
#######################################################################
#
#                 Cambridge Crystallographic Data Centre
#                                CCDC 
#
#######################################################################
#
# If this CIF has been generated from an entry in the Cambridge 
# Structural Database, then it will include bibliographic, chemical, 
# crystal, experimental, refinement or atomic coordinate data resulting 
# from the CCDC's data processing and validation procedures.
#
#######################################################################

data_LIQLIH14
_symmetry_cell_setting           monoclinic
_symmetry_space_group_name_H-M   'P 21/c'
_symmetry_Int_Tables_number      14
_space_group_name_Hall           '-P 2ybc'
loop_
_symmetry_equiv_pos_site_id
_symmetry_equiv_pos_as_xyz
1 x,y,z
2 -x,1/2+y,1/2-z
3 -x,-y,-z
4 x,1/2-y,1/2+z
_cell_length_a                   6.8098(6)
_cell_length_b                   7.5078(10)
_cell_length_c                   6.9873(9)
_cell_angle_alpha                90
_cell_angle_beta                 115.987(6)
_cell_angle_gamma                90
_cell_volume                     321.118
loop_
_atom_site_label
_atom_site_type_symbol
_atom_site_fract_x
_atom_site_fract_y
_atom_site_fract_z
Cu1 Cu 1.0000 0.5000 0.5000
F1 F 1.0391(3) 0.7509(2) 0.5408(3)
O1 O 1.1837(4) 0.4899(2) 0.8686(4)
N1 N 0.7013(4) 0.5076(2) 0.4976(4)
C1 C 0.6615(4) 0.6005(3) 0.6378(4)
C2 C 0.5406(3) 0.4076(3) 0.3583(4)
H1 H 0.773(3) 0.6690(18) 0.737(2)
H2 H 0.563(3) 0.3411(18) 0.257(2)
H3 H 1.146(5) 0.586(3) 0.898(2)
H4 H 1.121(5) 0.406(4) 0.891(2)
Cu1_2 Cu 0.0000 0.5000 0.5000
F1B F 0.9609(3) 0.2491(2) 0.4592(3)
O1B O 0.8163(4) 0.5101(2) 0.1314(4)
N1B N 0.2987(4) 0.4924(2) 0.5024(4)
N1B_2 N 1.2987(4) 0.4924(2) 0.5024(4)
C1B C 0.3385(4) 0.3995(3) 0.3622(4)
C2B C 0.4594(3) 0.5924(3) 0.6417(4)
H1B H 0.227(3) 0.3310(18) 0.263(2)
H2B H 0.437(3) 0.6589(18) 0.743(2)
H3B H 0.854(5) 0.414(3) 0.102(2)
H4B H 0.879(5) 0.594(4) 0.109(2)
loop_
_geom_bond_atom_site_label_1
_geom_bond_atom_site_label_2
_geom_bond_site_symmetry_1
_geom_bond_site_symmetry_2
Cu1 F1 1_555 1_555
O1 Cu1 1_555 1_555
N1 Cu1 1_555 1_555
C1 N1 1_555 1_555
C2 N1 1_555 1_555
H1 C1 1_555 1_555
H2 C2 1_555 1_555
H3 O1 1_555 1_555
H4 O1 1_555 1_555
Cu1_2 N1B 1_555 1_555
F1B Cu1 1_555 1_555
O1B Cu1 1_555 1_555
N1B C1B 1_555 1_555
N1B_2 Cu1 1_555 1_555
C1B C2 1_555 1_555
C2B C1 1_555 1_555
H1B C1B 1_555 1_555
H2B C2B 1_555 1_555
H3B O1B 1_555 1_555
H4B O1B 1_555 1_555
N1B C2B 1_555 1_555

#END
