
#######################################################################
#
#                 Cambridge Crystallographic Data Centre
#                                CCDC 
#
#######################################################################
#
# If this CIF has been generated from an entry in the Cambridge 
# Structural Database, then it will include bibliographic, chemical, 
# crystal, experimental, refinement or atomic coordinate data resulting 
# from the CCDC's data processing and validation procedures.
#
#######################################################################

data_LIQLIH12
_symmetry_cell_setting           monoclinic
_symmetry_space_group_name_H-M   'P 21/c'
_symmetry_Int_Tables_number      14
_space_group_name_Hall           '-P 2ybc'
loop_
_symmetry_equiv_pos_site_id
_symmetry_equiv_pos_as_xyz
1 x,y,z
2 -x,1/2+y,1/2-z
3 -x,-y,-z
4 x,1/2-y,1/2+z
_cell_length_a                   6.8385(7)
_cell_length_b                   7.5892(12)
_cell_length_c                   7.0257(11)
_cell_angle_alpha                90
_cell_angle_beta                 115.204(7)
_cell_angle_gamma                90
_cell_volume                     329.912
loop_
_atom_site_label
_atom_site_type_symbol
_atom_site_fract_x
_atom_site_fract_y
_atom_site_fract_z
Cu1 Cu 1.0000 0.5000 0.5000
F1 F 1.0320(2) 0.7489(2) 0.5330(2)
O1 O 1.1787(4) 0.49189(19) 0.8660(4)
N1 N 0.7016(5) 0.5063(2) 0.4983(5)
C1 C 0.6576(3) 0.6004(3) 0.6351(3)
C2 C 0.5432(3) 0.4063(3) 0.3623(4)
H1 H 0.569(2) 0.3393(16) 0.265(2)
H2 H 0.763(2) 0.6718(17) 0.730(2)
H3 H 1.118(5) 0.409(4) 0.896(2)
H4 H 1.144(5) 0.583(3) 0.902(2)
Cu1_2 Cu 0.0000 0.5000 0.5000
F1B F 0.9680(2) 0.2511(2) 0.4670(2)
O1B O 0.8213(4) 0.50811(19) 0.1340(4)
N1B N 0.2984(5) 0.4937(2) 0.5017(5)
N1B_2 N 1.2984(5) 0.4937(2) 0.5017(5)
C1B C 0.3424(3) 0.3996(3) 0.3649(3)
C2B C 0.4568(3) 0.5937(3) 0.6377(4)
H1B H 0.431(2) 0.6607(16) 0.735(2)
H2B H 0.237(2) 0.3282(17) 0.270(2)
H3B H 0.882(5) 0.591(4) 0.104(2)
H4B H 0.856(5) 0.417(3) 0.098(2)
loop_
_geom_bond_atom_site_label_1
_geom_bond_atom_site_label_2
_geom_bond_site_symmetry_1
_geom_bond_site_symmetry_2
Cu1 F1 1_555 1_555
O1 Cu1 1_555 1_555
N1 Cu1 1_555 1_555
C1 N1 1_555 1_555
C2 N1 1_555 1_555
H1 C2 1_555 1_555
H2 C1 1_555 1_555
H3 O1 1_555 1_555
H4 O1 1_555 1_555
Cu1_2 N1B 1_555 1_555
F1B Cu1 1_555 1_555
O1B Cu1 1_555 1_555
N1B C1B 1_555 1_555
N1B_2 Cu1 1_555 1_555
C1B C2 1_555 1_555
C2B C1 1_555 1_555
H1B C2B 1_555 1_555
H2B C1B 1_555 1_555
H3B O1B 1_555 1_555
H4B O1B 1_555 1_555
N1B C2B 1_555 1_555

#END
