
#######################################################################
#
#                 Cambridge Crystallographic Data Centre
#                                CCDC 
#
#######################################################################
#
# If this CIF has been generated from an entry in the Cambridge 
# Structural Database, then it will include bibliographic, chemical, 
# crystal, experimental, refinement or atomic coordinate data resulting 
# from the CCDC's data processing and validation procedures.
#
#######################################################################

data_LIQLIH09
_symmetry_cell_setting           monoclinic
_symmetry_space_group_name_H-M   'P 21/c'
_symmetry_Int_Tables_number      14
_space_group_name_Hall           '-P 2ybc'
loop_
_symmetry_equiv_pos_site_id
_symmetry_equiv_pos_as_xyz
1 x,y,z
2 -x,1/2+y,1/2-z
3 -x,-y,-z
4 x,1/2-y,1/2+z
_cell_length_a                   7.5857(14)
_cell_length_b                   7.456(2)
_cell_length_c                   6.751(2)
_cell_angle_alpha                90
_cell_angle_beta                 113.769(15)
_cell_angle_gamma                90
_cell_volume                     349.442
loop_
_atom_site_label
_atom_site_type_symbol
_atom_site_fract_x
_atom_site_fract_y
_atom_site_fract_z
Cu1 Cu 1.0000 0.5000 0.5000
F1 F 1.0390(3) 0.7532(3) 0.5228(3)
O1 O 1.1216(4) 0.4852(3) 0.8179(5)
N1 N 0.6823(4) 0.5209(4) 0.5010(6)
C1 C 0.6320(4) 0.6045(4) 0.6410(6)
C2 C 0.5495(4) 0.4151(5) 0.3591(6)
H1 H 0.582(2) 0.3519(18) 0.260(2)
H2 H 0.723(2) 0.6764(18) 0.745(2)
H3 H 1.072(4) 0.405(4) 0.858(2)
H4 H 1.102(5) 0.578(3) 0.867(2)
Cu1_2 Cu 0.0000 0.5000 0.5000
F1B F 0.9610(3) 0.2468(3) 0.4772(3)
O1B O 0.8784(4) 0.5148(3) 0.1821(5)
N1B N 0.3177(4) 0.4791(4) 0.4990(6)
N1B_2 N 1.3177(4) 0.4791(4) 0.4990(6)
C1B C 0.3680(4) 0.3955(4) 0.3590(6)
C2B C 0.4505(4) 0.5849(5) 0.6409(6)
H1B H 0.418(2) 0.6481(18) 0.740(2)
H2B H 0.277(2) 0.3236(18) 0.255(2)
H3B H 0.928(4) 0.595(4) 0.142(2)
H4B H 0.898(5) 0.422(3) 0.133(2)
loop_
_geom_bond_atom_site_label_1
_geom_bond_atom_site_label_2
_geom_bond_site_symmetry_1
_geom_bond_site_symmetry_2
Cu1 F1 1_555 1_555
O1 Cu1 1_555 1_555
N1 Cu1 1_555 1_555
C1 N1 1_555 1_555
C2 N1 1_555 1_555
H1 C2 1_555 1_555
H2 C1 1_555 1_555
H3 O1 1_555 1_555
H4 O1 1_555 1_555
Cu1_2 N1B 1_555 1_555
F1B Cu1 1_555 1_555
O1B Cu1 1_555 1_555
N1B C1B 1_555 1_555
N1B_2 Cu1 1_555 1_555
C1B C2 1_555 1_555
C2B C1 1_555 1_555
H1B C2B 1_555 1_555
H2B C1B 1_555 1_555
H3B O1B 1_555 1_555
H4B O1B 1_555 1_555
N1B C2B 1_555 1_555

#END
