
#######################################################################
#
#                 Cambridge Crystallographic Data Centre
#                                CCDC 
#
#######################################################################
#
# If this CIF has been generated from an entry in the Cambridge 
# Structural Database, then it will include bibliographic, chemical, 
# crystal, experimental, refinement or atomic coordinate data resulting 
# from the CCDC's data processing and validation procedures.
#
#######################################################################

data_LIQLIH01
_symmetry_cell_setting           monoclinic
_symmetry_space_group_name_H-M   'P 21/c'
_symmetry_Int_Tables_number      14
_space_group_name_Hall           '-P 2ybc'
loop_
_symmetry_equiv_pos_site_id
_symmetry_equiv_pos_as_xyz
1 x,y,z
2 -x,1/2+y,1/2-z
3 -x,-y,-z
4 x,1/2-y,1/2+z
_cell_length_a                   7.6250(10)
_cell_length_b                   7.5488(9)
_cell_length_c                   6.8453(9)
_cell_angle_alpha                90
_cell_angle_beta                 112.029(13)
_cell_angle_gamma                90
_cell_volume                     365.247
loop_
_atom_site_label
_atom_site_type_symbol
_atom_site_fract_x
_atom_site_fract_y
_atom_site_fract_z
Cu1 Cu 0.0000 0.0000 0.0000
F1 F -0.02547(15) -0.25265(19) -0.01374(15)
O1 O -0.1136(3) 0.00926(15) -0.3113(3)
H1 H -0.094(4) -0.081(3) -0.365(4)
H2 H -0.080(4) 0.089(3) -0.364(4)
N1 N -0.3162(3) 0.0138(2) 0.0037(3)
C1 C -0.3712(3) 0.1024(2) 0.1401(3)
H3 H -0.2829 0.1764 0.2424
C2 C -0.4466(3) -0.0890(2) -0.1356(3)
H4 H -0.4130 -0.1548 -0.2346
Cu1_2 Cu -1.0000 0.0000 0.0000
F1B F 0.02547(15) 0.25265(19) 0.01374(15)
O1B O 0.1136(3) -0.00926(15) 0.3113(3)
H1B H 0.094(4) 0.081(3) 0.365(4)
H2B H 0.080(4) -0.089(3) 0.364(4)
N1B N -0.6838(3) -0.0138(2) -0.0037(3)
N1B_2 N 0.3162(3) -0.0138(2) -0.0037(3)
C1B C -0.6288(3) -0.1024(2) -0.1401(3)
H3B H -0.7171 -0.1764 -0.2424
C2B C -0.5534(3) 0.0890(2) 0.1356(3)
H4B H -0.5870 0.1548 0.2346
loop_
_geom_bond_atom_site_label_1
_geom_bond_atom_site_label_2
_geom_bond_site_symmetry_1
_geom_bond_site_symmetry_2
Cu1 F1 1_555 1_555
O1 Cu1 1_555 1_555
H1 O1 1_555 1_555
H2 O1 1_555 1_555
N1 Cu1 1_555 1_555
C1 N1 1_555 1_555
H3 C1 1_555 1_555
C2 N1 1_555 1_555
H4 C2 1_555 1_555
Cu1_2 N1B 1_555 1_555
F1B Cu1 1_555 1_555
O1B Cu1 1_555 1_555
H1B O1B 1_555 1_555
H2B O1B 1_555 1_555
N1B C1B 1_555 1_555
N1B_2 Cu1 1_555 1_555
C1B C2 1_555 1_555
H3B C1B 1_555 1_555
C2B C1 1_555 1_555
H4B C2B 1_555 1_555
N1B C2B 1_555 1_555

#END
