
#######################################################################
#
#                 Cambridge Crystallographic Data Centre
#                                CCDC 
#
#######################################################################
#
# If this CIF has been generated from an entry in the Cambridge 
# Structural Database, then it will include bibliographic, chemical, 
# crystal, experimental, refinement or atomic coordinate data resulting 
# from the CCDC's data processing and validation procedures.
#
#######################################################################

data_LIQLIH10
_symmetry_cell_setting           monoclinic
_symmetry_space_group_name_H-M   'P 21/c'
_symmetry_Int_Tables_number      14
_space_group_name_Hall           '-P 2ybc'
loop_
_symmetry_equiv_pos_site_id
_symmetry_equiv_pos_as_xyz
1 x,y,z
2 -x,1/2+y,1/2-z
3 -x,-y,-z
4 x,1/2-y,1/2+z
_cell_length_a                   7.6471(10)
_cell_length_b                   7.551(5)
_cell_length_c                   6.8191(10)
_cell_angle_alpha                90
_cell_angle_beta                 112.833(8)
_cell_angle_gamma                90
_cell_volume                     362.902
loop_
_atom_site_label
_atom_site_type_symbol
_atom_site_fract_x
_atom_site_fract_y
_atom_site_fract_z
Cu1 Cu 1.0000 0.5000 0.5000
F1 F 0.9707(6) 0.2326(18) 0.4829(6)
O1 O 0.8855(8) 0.5090(11) 0.1841(9)
N1 N 0.6823(10) 0.5200(10) 0.5025(10)
C1 C 0.6287(10) 0.6076(13) 0.6389(12)
C2 C 0.5528(11) 0.4180(12) 0.3667(12)
H1 H 0.711(3) 0.685(2) 0.736(3)
H2 H 0.586(3) 0.358(2) 0.266(3)
Cu1_2 Cu 0.0000 0.5000 0.5000
F1B F 1.0293(6) 0.7674(18) 0.5171(6)
O1B O 1.1145(8) 0.4910(11) 0.8159(9)
N1B N 0.3177(10) 0.4800(10) 0.4975(10)
N1B_2 N 1.3177(10) 0.4800(10) 0.4975(10)
C1B C 0.3713(10) 0.3924(13) 0.3611(12)
C2B C 0.4472(11) 0.5820(12) 0.6333(12)
H1B H 0.289(3) 0.315(2) 0.264(3)
H2B H 0.414(3) 0.642(2) 0.734(3)
loop_
_geom_bond_atom_site_label_1
_geom_bond_atom_site_label_2
_geom_bond_site_symmetry_1
_geom_bond_site_symmetry_2
Cu1 F1 1_555 1_555
O1 Cu1 1_555 1_555
N1 Cu1 1_555 1_555
C1 N1 1_555 1_555
C2 N1 1_555 1_555
H1 C1 1_555 1_555
H2 C2 1_555 1_555
Cu1_2 N1B 1_555 1_555
F1B Cu1 1_555 1_555
O1B Cu1 1_555 1_555
N1B C1B 1_555 1_555
N1B_2 Cu1 1_555 1_555
C1B C2 1_555 1_555
C2B C1 1_555 1_555
H1B C1B 1_555 1_555
H2B C2B 1_555 1_555
N1B C2B 1_555 1_555

#END
