
#######################################################################
#
#                 Cambridge Crystallographic Data Centre
#                                CCDC 
#
#######################################################################
#
# If this CIF has been generated from an entry in the Cambridge 
# Structural Database, then it will include bibliographic, chemical, 
# crystal, experimental, refinement or atomic coordinate data resulting 
# from the CCDC's data processing and validation procedures.
#
#######################################################################

data_LIQLIH03
_symmetry_cell_setting           monoclinic
_symmetry_space_group_name_H-M   'P 21/c'
_symmetry_Int_Tables_number      14
_space_group_name_Hall           '-P 2ybc'
loop_
_symmetry_equiv_pos_site_id
_symmetry_equiv_pos_as_xyz
1 x,y,z
2 -x,1/2+y,1/2-z
3 -x,-y,-z
4 x,1/2-y,1/2+z
_cell_length_a                   7.6926(6)
_cell_length_b                   7.5568(6)
_cell_length_c                   6.8970(5)
_cell_angle_alpha                90
_cell_angle_beta                 111.065(3)
_cell_angle_gamma                90
_cell_volume                     374.14
loop_
_atom_site_label
_atom_site_type_symbol
_atom_site_fract_x
_atom_site_fract_y
_atom_site_fract_z
Cu1 Cu 0.0000 0.0000 0.0000
F1 F -0.01877(10) -0.25131(12) -0.01005(9)
O1 O -0.10902(16) 0.00658(9) -0.30750(16)
H1 H -0.086(2) -0.080(2) -0.357(3)
H2 H -0.074(2) 0.082(2) -0.353(3)
N1 N -0.31729(18) 0.01096(13) 0.0053(2)
C1 C -0.37427(17) 0.10143(19) 0.1360(2)
H3 H -0.2901 0.1741 0.2342
C2 C -0.44453(18) -0.0907(2) -0.1304(2)
H4 H -0.4106 -0.1569 -0.2249
Cu1_2 Cu -1.0000 0.0000 0.0000
F1B F 0.01877(10) 0.25131(12) 0.01005(9)
O1B O 0.10902(16) -0.00658(9) 0.30750(16)
H1B H 0.086(2) 0.080(2) 0.357(3)
H2B H 0.074(2) -0.082(2) 0.353(3)
N1B N -0.68271(18) -0.01096(13) -0.0053(2)
N1B_2 N 0.31729(18) -0.01096(13) -0.0053(2)
C1B C -0.62573(17) -0.10143(19) -0.1360(2)
H3B H -0.7099 -0.1741 -0.2342
C2B C -0.55547(18) 0.0907(2) 0.1304(2)
H4B H -0.5894 0.1569 0.2249
loop_
_geom_bond_atom_site_label_1
_geom_bond_atom_site_label_2
_geom_bond_site_symmetry_1
_geom_bond_site_symmetry_2
Cu1 F1 1_555 1_555
O1 Cu1 1_555 1_555
H1 O1 1_555 1_555
H2 O1 1_555 1_555
N1 Cu1 1_555 1_555
C1 N1 1_555 1_555
H3 C1 1_555 1_555
C2 N1 1_555 1_555
H4 C2 1_555 1_555
Cu1_2 N1B 1_555 1_555
F1B Cu1 1_555 1_555
O1B Cu1 1_555 1_555
H1B O1B 1_555 1_555
H2B O1B 1_555 1_555
N1B C1B 1_555 1_555
N1B_2 Cu1 1_555 1_555
C1B C2 1_555 1_555
H3B C1B 1_555 1_555
C2B C1 1_555 1_555
H4B C2B 1_555 1_555
N1B C2B 1_555 1_555

#END
