
#######################################################################
#
#                 Cambridge Crystallographic Data Centre
#                                CCDC 
#
#######################################################################
#
# If this CIF has been generated from an entry in the Cambridge 
# Structural Database, then it will include bibliographic, chemical, 
# crystal, experimental, refinement or atomic coordinate data resulting 
# from the CCDC's data processing and validation procedures.
#
#######################################################################

data_LIQLIH15
_symmetry_cell_setting           triclinic
_symmetry_space_group_name_H-M   'A -1'
_symmetry_Int_Tables_number      2
_space_group_name_Hall           '-A 1'
loop_
_symmetry_equiv_pos_site_id
_symmetry_equiv_pos_as_xyz
1 x,y,z
2 x,1/2+y,1/2+z
3 -x,-y,-z
4 -x,1/2-y,1/2-z
_cell_length_a                   6.813(4)
_cell_length_b                   7.1823(11)
_cell_length_c                   7.4463(12)
_cell_angle_alpha                84.344(15)
_cell_angle_beta                 116.72(4)
_cell_angle_gamma                78.85(3)
_cell_volume                     312.081
loop_
_atom_site_label
_atom_site_type_symbol
_atom_site_fract_x
_atom_site_fract_y
_atom_site_fract_z
Cu1 Cu 0.0000 0.0000 0.0000
F1 F 0.021(3) -0.2633(9) -0.0144(12)
O1 O -0.198(4) 0.0613(13) -0.3628(17)
N1 N 0.302(4) -0.0204(12) 0.0093(19)
C1 C 0.470(6) 0.0380(18) 0.157(2)
D1 D 0.4553 0.0641 0.2714
C2 C 0.338(5) -0.0605(16) -0.147(2)
D2 D 0.2314 -0.1048 -0.2512
D3 D -0.19(4) -0.021(18) -0.39(2)
D4 D -0.134(19) 0.106(18) -0.366(18)
N1B N 0.698(4) 0.0204(12) -0.0093(19)
C1B C 0.530(6) -0.0380(18) -0.157(2)
D1B D 0.5447 -0.0641 -0.2714
C2B C 0.662(5) 0.0605(16) 0.147(2)
D2B D 0.7686 0.1048 0.2512
F1B F -0.021(3) 0.2633(9) 0.0144(12)
O1B O 0.198(4) -0.0613(13) 0.3628(17)
D3B D 0.19(4) 0.021(18) 0.39(2)
D4B D 0.134(19) -0.106(18) 0.366(18)
Cu1_2 Cu 1.0000 0.0000 0.0000
N1B_2 N -0.302(4) 0.0204(12) -0.0093(19)
loop_
_geom_bond_atom_site_label_1
_geom_bond_atom_site_label_2
_geom_bond_site_symmetry_1
_geom_bond_site_symmetry_2
Cu1 F1 1_555 1_555
O1 Cu1 1_555 1_555
N1 Cu1 1_555 1_555
C1 N1 1_555 1_555
D1 C1 1_555 1_555
C2 N1 1_555 1_555
D2 C2 1_555 1_555
D3 O1 1_555 1_555
D4 O1 1_555 1_555
N1B C1B 1_555 1_555
C1B C2 1_555 1_555
D1B C1B 1_555 1_555
C2B C1 1_555 1_555
D2B C2B 1_555 1_555
F1B Cu1 1_555 1_555
O1B Cu1 1_555 1_555
D3B O1B 1_555 1_555
D4B O1B 1_555 1_555
Cu1_2 N1B 1_555 1_555
N1B_2 Cu1 1_555 1_555
N1B C2B 1_555 1_555

#END
