
#######################################################################
#
#                 Cambridge Crystallographic Data Centre
#                                CCDC 
#
#######################################################################
#
# If this CIF has been generated from an entry in the Cambridge 
# Structural Database, then it will include bibliographic, chemical, 
# crystal, experimental, refinement or atomic coordinate data resulting 
# from the CCDC's data processing and validation procedures.
#
#######################################################################

data_LIQLIH13
_symmetry_cell_setting           monoclinic
_symmetry_space_group_name_H-M   'P 21/c'
_symmetry_Int_Tables_number      14
_space_group_name_Hall           '-P 2ybc'
loop_
_symmetry_equiv_pos_site_id
_symmetry_equiv_pos_as_xyz
1 x,y,z
2 -x,1/2+y,1/2-z
3 -x,-y,-z
4 x,1/2-y,1/2+z
_cell_length_a                   6.8228(6)
_cell_length_b                   7.5581(10)
_cell_length_c                   7.0043(9)
_cell_angle_alpha                90
_cell_angle_beta                 115.566(6)
_cell_angle_gamma                90
_cell_volume                     325.829
loop_
_atom_site_label
_atom_site_type_symbol
_atom_site_fract_x
_atom_site_fract_y
_atom_site_fract_z
Cu1 Cu 1.0000 0.5000 0.5000
F1 F 1.0348(2) 0.7497(2) 0.5367(3)
O1 O 1.1806(4) 0.4912(2) 0.8671(4)
N1 N 0.7012(4) 0.5066(2) 0.4972(4)
C1 C 0.6588(3) 0.6010(3) 0.6362(4)
C2 C 0.5419(3) 0.4064(3) 0.3608(4)
H1 H 0.567(3) 0.3420(17) 0.258(2)
H2 H 0.768(3) 0.6713(17) 0.732(2)
H3 H 1.114(5) 0.413(4) 0.890(2)
H4 H 1.144(5) 0.588(3) 0.898(2)
Cu1_2 Cu 0.0000 0.5000 0.5000
F1B F 0.9652(2) 0.2503(2) 0.4633(3)
O1B O 0.8194(4) 0.5088(2) 0.1329(4)
N1B N 0.2988(4) 0.4934(2) 0.5028(4)
N1B_2 N 1.2988(4) 0.4934(2) 0.5028(4)
C1B C 0.3412(3) 0.3990(3) 0.3638(4)
C2B C 0.4581(3) 0.5936(3) 0.6392(4)
H1B H 0.433(3) 0.6580(17) 0.742(2)
H2B H 0.232(3) 0.3287(17) 0.268(2)
H3B H 0.886(5) 0.587(4) 0.110(2)
H4B H 0.856(5) 0.412(3) 0.102(2)
loop_
_geom_bond_atom_site_label_1
_geom_bond_atom_site_label_2
_geom_bond_site_symmetry_1
_geom_bond_site_symmetry_2
Cu1 F1 1_555 1_555
O1 Cu1 1_555 1_555
N1 Cu1 1_555 1_555
C1 N1 1_555 1_555
C2 N1 1_555 1_555
H1 C2 1_555 1_555
H2 C1 1_555 1_555
H3 O1 1_555 1_555
H4 O1 1_555 1_555
Cu1_2 N1B 1_555 1_555
F1B Cu1 1_555 1_555
O1B Cu1 1_555 1_555
N1B C1B 1_555 1_555
N1B_2 Cu1 1_555 1_555
C1B C2 1_555 1_555
C2B C1 1_555 1_555
H1B C2B 1_555 1_555
H2B C1B 1_555 1_555
H3B O1B 1_555 1_555
H4B O1B 1_555 1_555
N1B C2B 1_555 1_555

#END
