
#######################################################################
#
#                 Cambridge Crystallographic Data Centre
#                                CCDC 
#
#######################################################################
#
# If this CIF has been generated from an entry in the Cambridge 
# Structural Database, then it will include bibliographic, chemical, 
# crystal, experimental, refinement or atomic coordinate data resulting 
# from the CCDC's data processing and validation procedures.
#
#######################################################################

data_LIQREK
_symmetry_cell_setting           triclinic
_symmetry_space_group_name_H-M   'P -1'
_symmetry_Int_Tables_number      2
_space_group_name_Hall           '-P 1'
loop_
_symmetry_equiv_pos_site_id
_symmetry_equiv_pos_as_xyz
1 x,y,z
2 -x,-y,-z
_cell_length_a                   5.3371(16)
_cell_length_b                   10.693(3)
_cell_length_c                   18.670(6)
_cell_angle_alpha                80.696(5)
_cell_angle_beta                 84.700(5)
_cell_angle_gamma                86.105(6)
_cell_volume                     1045.45
loop_
_atom_site_label
_atom_site_type_symbol
_atom_site_fract_x
_atom_site_fract_y
_atom_site_fract_z
Mg1 Mg 0.0236(3) -0.34216(18) 0.53575(10)
O1 O -0.1861(5) 0.2789(3) 0.03853(15)
O2 O -0.0455(5) 0.5918(3) 0.06479(15)
O3 O 0.3527(6) -0.2663(3) 0.12515(18)
O4 O 0.3170(5) 0.4762(3) 0.07432(14)
O5 O 0.1946(5) -0.0700(3) 0.44733(16)
O6 O 0.2504(7) -0.2655(3) 0.42359(17)
O7 O 0.5985(6) 0.2923(3) 0.42092(17)
O8 O 0.2963(5) 0.1580(3) 0.44408(15)
O9 O 0.0665(6) 0.4876(3) 0.35007(18)
O10 O 0.3949(7) 0.6090(3) 0.3236(2)
O11 O -0.2550(6) -0.4333(3) 0.47005(18)
O12 O 0.3452(6) -0.0733(3) 0.06575(16)
O13 O 0.1637(5) 0.1547(3) 0.03796(15)
N1 N 0.1855(6) 0.3866(3) 0.22056(16)
N2 N 0.0603(6) 0.1972(3) 0.19682(16)
N3 N -0.0276(6) 0.0077(3) 0.16747(16)
N4 N 0.2625(6) 0.0039(3) 0.25281(16)
N5 N 0.5476(6) 0.0186(3) 0.33717(16)
N6 N 0.3832(6) 0.2041(3) 0.27597(16)
C1 C 0.2562(8) -0.1605(4) 0.1182(2)
C2 C 0.1092(7) 0.5081(3) 0.0996(2)
C3 C 0.0010(7) 0.4545(3) 0.1755(2)
H1 H -0.0768 0.5236 0.1990
H2 H -0.1297 0.3978 0.1715
C4 C 0.3597(7) 0.4613(4) 0.2480(2)
H3 H 0.4136 0.5283 0.2092
H4 H 0.5075 0.4075 0.2610
C5 C 0.2100(7) 0.2576(3) 0.23162(18)
C6 C 0.1051(7) 0.0706(3) 0.20782(19)
C7 C -0.1946(7) 0.0821(4) 0.1173(2)
H5 H -0.3250 0.1262 0.1450
H6 H -0.2762 0.0250 0.0925
C8 C 0.0284(8) -0.1269(3) 0.1667(2)
H7 H -0.1171 -0.1622 0.1516
H8 H 0.0524 -0.1677 0.2161
C9 C 0.3929(7) 0.0767(3) 0.28665(18)
C10 C 0.6824(7) 0.0979(4) 0.3751(2)
H9 H 0.8003 0.1452 0.3400
H10 H 0.7802 0.0432 0.4102
C11 C 0.5388(7) -0.1166(4) 0.3617(2)
H11 H 0.6901 -0.1467 0.3857
H12 H 0.5371 -0.1593 0.3197
C12 C 0.3076(8) -0.1518(4) 0.4143(2)
C13 C 0.5213(8) 0.1905(4) 0.4145(2)
C14 C 0.2546(8) 0.5200(4) 0.3128(2)
C15 C -0.0607(7) 0.1786(3) 0.0608(2)
H13 H 0.321(12) 0.651(6) 0.369(4)
H14 H 0.261(13) 0.022(7) 0.059(4)
Mg2 Mg -0.5663(3) 0.33451(15) -0.01494(9)
Mg1A Mg 0.9764(3) 0.34216(18) 0.46425(10)
O2A O -0.9545(5) 0.4082(3) -0.06479(15)
O7A O 0.4015(6) -0.2923(3) 0.57908(17)
Mg2A Mg -0.4337(3) 0.66549(15) 0.01494(9)
loop_
_geom_bond_atom_site_label_1
_geom_bond_atom_site_label_2
_geom_bond_site_symmetry_1
_geom_bond_site_symmetry_2
Mg1 O6 1_555 1_555
O1 C15 1_555 1_555
O2 C2 1_555 1_555
O3 C1 1_555 1_555
O4 C2 1_555 1_555
O5 C12 1_555 1_555
O6 C12 1_555 1_555
O7 C13 1_555 1_555
O8 C13 1_555 1_555
O9 C14 1_555 1_555
O10 C14 1_555 1_555
O11 Mg1 1_555 1_555
O12 C1 1_555 1_555
O13 C15 1_555 1_555
N1 C3 1_555 1_555
N2 C5 1_555 1_555
N3 C6 1_555 1_555
N4 C6 1_555 1_555
N5 C9 1_555 1_555
N6 C5 1_555 1_555
C1 C8 1_555 1_555
C2 C3 1_555 1_555
C3 H1 1_555 1_555
H2 C3 1_555 1_555
C4 N1 1_555 1_555
H3 C4 1_555 1_555
H4 C4 1_555 1_555
C5 N1 1_555 1_555
C6 N2 1_555 1_555
C7 N3 1_555 1_555
H5 C7 1_555 1_555
H6 C7 1_555 1_555
C8 N3 1_555 1_555
H7 C8 1_555 1_555
H8 C8 1_555 1_555
C9 N4 1_555 1_555
C10 N5 1_555 1_555
H9 C10 1_555 1_555
H10 C10 1_555 1_555
C11 N5 1_555 1_555
H11 C11 1_555 1_555
H12 C11 1_555 1_555
C12 C11 1_555 1_555
C13 C10 1_555 1_555
C14 C4 1_555 1_555
C15 C7 1_555 1_555
H13 O10 1_555 1_555
H14 O12 1_555 1_555
Mg2 O1 1_555 1_555
Mg1A O7 1_555 1_555
O2A Mg2 1_555 1_555
O7A Mg1 1_555 1_555
Mg2A O2 1_555 1_555
N6 C9 1_555 1_555

#END
