
#######################################################################
#
#                 Cambridge Crystallographic Data Centre
#                                CCDC 
#
#######################################################################
#
# If this CIF has been generated from an entry in the Cambridge 
# Structural Database, then it will include bibliographic, chemical, 
# crystal, experimental, refinement or atomic coordinate data resulting 
# from the CCDC's data processing and validation procedures.
#
#######################################################################

data_LIQRUZ
_symmetry_cell_setting           orthorhombic
_symmetry_space_group_name_H-M   'C m m a'
_symmetry_Int_Tables_number      67
_space_group_name_Hall           '-C 2a 2'
loop_
_symmetry_equiv_pos_site_id
_symmetry_equiv_pos_as_xyz
1 x,y,z
2 1/2+x,1/2+y,z
3 -x,1/2-y,z
4 x,-y,-z
5 1/2-x,y,-z
6 1/2-x,-y,z
7 1/2+x,1/2-y,-z
8 -x,1/2+y,-z
9 -x,-y,-z
10 1/2-x,1/2-y,-z
11 x,1/2+y,-z
12 -x,y,z
13 1/2+x,-y,z
14 1/2+x,y,-z
15 1/2-x,1/2+y,z
16 x,1/2-y,z
_cell_length_a                   19.840(5)
_cell_length_b                   21.933(5)
_cell_length_c                   21.739(5)
_cell_angle_alpha                90
_cell_angle_beta                 90
_cell_angle_gamma                90
_cell_volume                     9459.74
loop_
_atom_site_label
_atom_site_type_symbol
_atom_site_fract_x
_atom_site_fract_y
_atom_site_fract_z
W1 W 0.09423(6) 0.09064(6) 0.27531(6)
W2 W 0.09443(7) 0.16613(6) 0.40917(6)
W3 W 0.24660(11) 0.2500 0.36100(11)
W4 W 0.09431(8) 0.17377(6) 0.12870(6)
W5 W 0.24753(8) 0.17348(7) 0.22531(8)
Cu1 Cu 0.2500 0.0000 0.2507(2)
P1 P 0.0997(6) 0.2500 0.2705(5)
O1 O 0.0763(12) 0.2500 0.2048(10)
O2 O 0.0000 0.0863(13) 0.2866(13)
O3 O 0.0784(9) 0.1946(10) 0.3030(8)
O4 O 0.0000 0.1858(19) 0.1176(18)
O5 O 0.3052(19) 0.2500 0.4160(18)
O6 O 0.3089(12) 0.1260(10) 0.1983(13)
O7 O 0.0769(10) 0.1205(11) 0.1957(9)
O8 O 0.1818(12) 0.1916(10) 0.3881(11)
O9 O 0.1101(14) 0.1383(12) 0.4805(10)
N1 N 0.2500 0.0000 0.3358(14)
O10 O 0.0000 0.1547(13) 0.4077(12)
O11 O 0.2836(14) 0.2500 0.1958(14)
O12 O 0.1845(12) 0.1780(10) 0.1604(10)
O13 O 0.0775(13) 0.2500 0.4254(11)
O14 O 0.1091(15) 0.2500 0.0878(14)
O15 O 0.1087(13) 0.1256(12) 0.0662(10)
O16 O 0.1068(10) 0.0936(10) 0.3619(8)
O17 O 0.1836(11) 0.1207(10) 0.2608(9)
O18 O 0.1769(15) 0.2500 0.2725(12)
N2 N 0.2500 0.0000 0.1651(15)
O19 O 0.1102(10) 0.0152(11) 0.2599(11)
O20 O 0.2837(11) 0.1888(13) 0.3061(13)
C1 C 0.3031(17) 0.001(2) 0.1319(14)
H1 H 0.3441 0.0043 0.1522
C2 C 0.2500 0.0000 0.036(2)
C3 C 0.263(2) 0.0532(16) 0.4311(15)
H2 H 0.2721 0.0899 0.4508
C4 C 0.2500 0.0000 0.4660(18)
C5 C 0.3051(19) -0.003(2) 0.0672(15)
H3 H 0.3462 -0.0069 0.0471
C6 C 0.262(2) 0.0504(19) 0.3718(19)
H4 H 0.2715 0.0865 0.3510
W1O W 0.09423(6) 0.40936(6) 0.27531(6)
W1K W -0.09423(6) 0.09064(6) 0.27531(6)
W1B W -0.09423(6) 0.40936(6) 0.27531(6)
W1E W 0.40577(6) -0.09064(6) 0.27531(6)
W1N W 0.40577(6) 0.59064(6) 0.27531(6)
W2O W 0.09443(7) 0.33387(6) 0.40917(6)
W2K W -0.09443(7) 0.16613(6) 0.40917(6)
W2B W -0.09443(7) 0.33387(6) 0.40917(6)
W3K W -0.24660(11) 0.2500 0.36100(11)
W4O W 0.09431(8) 0.32623(6) 0.12870(6)
W4K W -0.09431(8) 0.17377(6) 0.12870(6)
W4B W -0.09431(8) 0.32623(6) 0.12870(6)
W5O W 0.24753(8) 0.32652(7) 0.22531(8)
W5K W -0.24753(8) 0.17348(7) 0.22531(8)
W5B W -0.24753(8) 0.32652(7) 0.22531(8)
Cu1N Cu 0.2500 0.5000 0.2507(2)
Cu1C Cu 0.2500 0.0000 0.7493(2)
Cu1C_2 Cu 0.2500 0.0000 -0.2507(2)
P1K P -0.0997(6) 0.2500 0.2705(5)
O1K O -0.0763(12) 0.2500 0.2048(10)
O2O O 0.0000 0.4137(13) 0.2866(13)
O3O O 0.0784(9) 0.3054(10) 0.3030(8)
O3K O -0.0784(9) 0.1946(10) 0.3030(8)
O3B O -0.0784(9) 0.3054(10) 0.3030(8)
O4O O 0.0000 0.3142(19) 0.1176(18)
O5K O -0.3052(19) 0.2500 0.4160(18)
O6O O 0.3089(12) 0.3740(10) 0.1983(13)
O6K O -0.3089(12) 0.1260(10) 0.1983(13)
O6B O -0.3089(12) 0.3740(10) 0.1983(13)
O7O O 0.0769(10) 0.3795(11) 0.1957(9)
O7K O -0.0769(10) 0.1205(11) 0.1957(9)
O7B O -0.0769(10) 0.3795(11) 0.1957(9)
O8O O 0.1818(12) 0.3084(10) 0.3881(11)
O8K O -0.1818(12) 0.1916(10) 0.3881(11)
O8B O -0.1818(12) 0.3084(10) 0.3881(11)
O9O O 0.1101(14) 0.3617(12) 0.4805(10)
O9K O -0.1101(14) 0.1383(12) 0.4805(10)
O9B O -0.1101(14) 0.3617(12) 0.4805(10)
N1C N 0.2500 0.0000 0.6642(14)
N1N N 0.2500 0.5000 0.3358(14)
O10O O 0.0000 0.3453(13) 0.4077(12)
O11K O -0.2836(14) 0.2500 0.1958(14)
O12O O 0.1845(12) 0.3220(10) 0.1604(10)
O12K O -0.1845(12) 0.1780(10) 0.1604(10)
O12B O -0.1845(12) 0.3220(10) 0.1604(10)
O13K O -0.0775(13) 0.2500 0.4254(11)
O14K O -0.1091(15) 0.2500 0.0878(14)
O15O O 0.1087(13) 0.3744(12) 0.0662(10)
O15K O -0.1087(13) 0.1256(12) 0.0662(10)
O15B O -0.1087(13) 0.3744(12) 0.0662(10)
O16O O 0.1068(10) 0.4064(10) 0.3619(8)
O16K O -0.1068(10) 0.0936(10) 0.3619(8)
O16B O -0.1068(10) 0.4064(10) 0.3619(8)
O17O O 0.1836(11) 0.3793(10) 0.2608(9)
O17K O -0.1836(11) 0.1207(10) 0.2608(9)
O17B O -0.1836(11) 0.3793(10) 0.2608(9)
O18K O -0.1769(15) 0.2500 0.2725(12)
N2C N 0.2500 0.0000 -0.1651(15)
N2N N 0.2500 0.5000 0.1651(15)
O19O O 0.1102(10) 0.4848(11) 0.2599(11)
O19E O 0.3898(10) -0.0152(11) 0.2599(11)
O19N O 0.3898(10) 0.5152(11) 0.2599(11)
O19K O -0.1102(10) 0.0152(11) 0.2599(11)
O19B O -0.1102(10) 0.4848(11) 0.2599(11)
O20O O 0.2837(11) 0.3112(13) 0.3061(13)
O20K O -0.2837(11) 0.1888(13) 0.3061(13)
O20B O -0.2837(11) 0.3112(13) 0.3061(13)
C1C C 0.3031(17) -0.001(2) -0.1319(14)
C1D C 0.1969(17) 0.001(2) -0.1319(14)
C1E C 0.1969(17) -0.001(2) 0.1319(14)
H1D H 0.1559 0.0043 -0.1522
H1C H 0.3441 -0.0043 -0.1522
H1E H 0.1559 -0.0043 0.1522
C2C C 0.2500 0.0000 -0.036(2)
C3E C 0.237(2) -0.0532(16) 0.4311(15)
C3C C 0.263(2) -0.0532(16) 0.5689(15)
C3D C 0.237(2) 0.0532(16) 0.5689(15)
H2E H 0.2279 -0.0899 0.4508
H2C H 0.2721 -0.0899 0.5492
H2D H 0.2279 0.0899 0.5492
C4C C 0.2500 0.0000 0.5340(18)
C5C C 0.3051(19) 0.003(2) -0.0672(15)
C5D C 0.1949(19) -0.003(2) -0.0672(15)
C5E C 0.1949(19) 0.003(2) 0.0672(15)
H3D H 0.1538 -0.0069 -0.0471
H3C H 0.3462 0.0069 -0.0471
H3E H 0.1538 0.0069 0.0471
C6E C 0.238(2) -0.0504(19) 0.3718(19)
C6C C 0.262(2) -0.0504(19) 0.6282(19)
C6D C 0.238(2) 0.0504(19) 0.6282(19)
H4E H 0.2285 -0.0865 0.3510
H4D H 0.2285 0.0865 0.6490
H4C H 0.2715 -0.0865 0.6490
O21 O 0.0000 0.875(3) 0.3383(18)
loop_
_geom_bond_atom_site_label_1
_geom_bond_atom_site_label_2
_geom_bond_site_symmetry_1
_geom_bond_site_symmetry_2
W1 O2 1_555 1_555
W2 O3 1_555 1_555
W3 O5 1_555 1_555
W4 O1 1_555 1_555
W5 O6 1_555 1_555
Cu1 N1 1_555 1_555
P1 O1 1_555 1_555
O1 W4O 1_555 1_555
O2 W1K 1_555 1_555
O3 W1 1_555 1_555
O4 W4 1_555 1_555
O7 W1 1_555 1_555
O8 W2 1_555 1_555
O9 W2 1_555 1_555
N1 C6 1_555 1_555
O10 W2 1_555 1_555
O11 W5 1_555 1_555
O12 W4 1_555 1_555
O13 W2 1_555 1_555
O14 W4 1_555 1_555
O15 W4 1_555 1_555
O16 W1 1_555 1_555
O17 W1 1_555 1_555
O18 W3 1_555 1_555
N2 Cu1 1_555 1_555
O19 W1 1_555 1_555
O20 W3 1_555 1_555
C1 N2 1_555 1_555
H1 C1 1_555 1_555
C2 C5 1_555 1_555
C3 H2 1_555 1_555
C4 C3 1_555 1_555
C5 C1 1_555 1_555
H3 C5 1_555 1_555
C6 C3 1_555 1_555
H4 C6 1_555 1_555
W1O O2O 1_555 1_555
W1K O3K 1_555 1_555
W1B O2O 1_555 1_555
W1E O19E 1_555 1_555
W1N O19N 1_555 1_555
W2O O13 1_555 1_555
W2K O10 1_555 1_555
W2B O3B 1_555 1_555
W3K O5K 1_555 1_555
W4O O14 1_555 1_555
W4K O4 1_555 1_555
W4B O1K 1_555 1_555
W5O O11 1_555 1_555
W5K O6K 1_555 1_555
W5B O6B 1_555 1_555
Cu1N N1N 1_555 1_555
Cu1C N1C 1_555 1_555
Cu1C_2 N2C 1_555 1_555
P1K O1K 1_555 1_555
O1K W4K 1_555 1_555
O3O P1 1_555 1_555
O3K W2K 1_555 1_555
O3B W1B 1_555 1_555
O4O W4O 1_555 1_555
O6O W5O 1_555 1_555
O7O W1O 1_555 1_555
O7K W1K 1_555 1_555
O7B W1B 1_555 1_555
O8O W3 1_555 1_555
O8K W2K 1_555 1_555
O8B W2B 1_555 1_555
O9O W2O 1_555 1_555
O9K W2K 1_555 1_555
O9B W2B 1_555 1_555
N1C C6C 1_555 1_555
O10O W2O 1_555 1_555
O11K W5K 1_555 1_555
O12O W4O 1_555 1_555
O12K W4K 1_555 1_555
O12B W4B 1_555 1_555
O13K W2K 1_555 1_555
O14K W4K 1_555 1_555
O15O W4O 1_555 1_555
O15K W4K 1_555 1_555
O15B W4B 1_555 1_555
O16O W1O 1_555 1_555
O16K W1K 1_555 1_555
O16B W1B 1_555 1_555
O17O W1O 1_555 1_555
O17K W1K 1_555 1_555
O17B W1B 1_555 1_555
O18K W3K 1_555 1_555
N2C C1C 1_555 1_555
N2N Cu1N 1_555 1_555
O19O W1O 1_555 1_555
O19E Cu1 1_555 1_555
O19N Cu1N 1_555 1_555
O19K W1K 1_555 1_555
O19B W1B 1_555 1_555
O20O W3 1_555 1_555
O20K W3K 1_555 1_555
O20B W3K 1_555 1_555
C1C H1C 1_555 1_555
C1D N2C 1_555 1_555
C1E N2 1_555 1_555
H1D C1D 1_555 1_555
H1E C1E 1_555 1_555
C2C C2 1_555 1_555
C3E C4 1_555 1_555
C3C H2C 1_555 1_555
C3D H2D 1_555 1_555
H2E C3E 1_555 1_555
C4C C4 1_555 1_555
C5C C1C 1_555 1_555
C5D C1D 1_555 1_555
C5E C2 1_555 1_555
H3D C5D 1_555 1_555
H3C C5C 1_555 1_555
H3E C5E 1_555 1_555
C6E N1 1_555 1_555
C6C C3C 1_555 1_555
C6D N1C 1_555 1_555
H4E C6E 1_555 1_555
H4D C6D 1_555 1_555
H4C C6C 1_555 1_555
W2 O16 1_555 1_555
W3 O8 1_555 1_555
W4 O7 1_555 1_555
W5 O12 1_555 1_555
W5 O17 1_555 1_555
W5 O18 1_555 1_555
W5 O20 1_555 1_555
Cu1 O19 1_555 1_555
P1 O3 1_555 1_555
P1 O18 1_555 1_555
O18 W5O 1_555 1_555
W1O O3O 1_555 1_555
W2O O3O 1_555 1_555
W2O O8O 1_555 1_555
W2O O16O 1_555 1_555
W2K O16K 1_555 1_555
W2B O10O 1_555 1_555
W2B O13K 1_555 1_555
W2B O16B 1_555 1_555
W3K O8K 1_555 1_555
W3K O8B 1_555 1_555
W4O O7O 1_555 1_555
W4K O7K 1_555 1_555
W4B O4O 1_555 1_555
W4B O7B 1_555 1_555
W4B O14K 1_555 1_555
W5O O12O 1_555 1_555
W5O O17O 1_555 1_555
W5O O20O 1_555 1_555
W5K O12K 1_555 1_555
W5K O17K 1_555 1_555
W5K O18K 1_555 1_555
W5K O20K 1_555 1_555
W5B O11K 1_555 1_555
W5B O12B 1_555 1_555
W5B O17B 1_555 1_555
W5B O18K 1_555 1_555
W5B O20B 1_555 1_555
Cu1N O19O 1_555 1_555
P1K O3K 1_555 1_555
P1K O3B 1_555 1_555
P1K O18K 1_555 1_555
C1E C5E 1_555 1_555
C2C C5C 1_555 1_555
C2C C5D 1_555 1_555
C3E C6E 1_555 1_555
C3C C4C 1_555 1_555
C3D C4C 1_555 1_555
C3D C6D 1_555 1_555

#END
