
#######################################################################
#
#                 Cambridge Crystallographic Data Centre
#                                CCDC 
#
#######################################################################
#
# If this CIF has been generated from an entry in the Cambridge 
# Structural Database, then it will include bibliographic, chemical, 
# crystal, experimental, refinement or atomic coordinate data resulting 
# from the CCDC's data processing and validation procedures.
#
#######################################################################

data_LIQROU
_symmetry_cell_setting           monoclinic
_symmetry_space_group_name_H-M   'C 2/c'
_symmetry_Int_Tables_number      15
_space_group_name_Hall           '-C 2yn'
loop_
_symmetry_equiv_pos_site_id
_symmetry_equiv_pos_as_xyz
1 x,y,z
2 -x,y,1/2-z
3 1/2+x,1/2+y,z
4 1/2-x,1/2+y,1/2-z
5 -x,-y,-z
6 x,-y,1/2+z
7 1/2-x,1/2-y,-z
8 1/2+x,1/2-y,1/2+z
_cell_length_a                   20.045(4)
_cell_length_b                   12.656(3)
_cell_length_c                   21.157(4)
_cell_angle_alpha                90
_cell_angle_beta                 90.688(4)
_cell_angle_gamma                90
_cell_volume                     5366.92
loop_
_atom_site_label
_atom_site_type_symbol
_atom_site_fract_x
_atom_site_fract_y
_atom_site_fract_z
Cu1 Cu 0.23489(6) -0.17836(11) 0.39699(6)
Cu2 Cu 0.53296(7) 0.60669(12) 0.46400(8)
O1 O 0.4588(4) 0.1049(8) 0.7085(4)
O2 O 0.3824(4) 0.1587(10) 0.7737(4)
O3 O 0.2795(4) -0.0973(8) 0.5817(5)
O4 O 0.3768(4) -0.2106(6) 0.4600(4)
O5 O 0.3157(3) -0.0924(6) 0.4066(4)
O6 O 0.2059(3) -0.1534(5) 0.4846(3)
O7 O 0.3426(4) -0.2293(6) 0.6154(4)
O8 O 0.2622(4) -0.2130(8) 0.3109(4)
O9 O 0.3205(4) 0.5318(6) 0.6342(4)
O10 O 0.3057(4) 0.0706(8) 0.3244(5)
H1 H 0.3165 0.0213 0.3476
O11 O 0.3566(6) 0.1963(10) 0.2723(5)
O12 O 0.4457(4) 0.4801(7) 0.4608(5)
O13 O 0.3871(5) 0.5434(9) 0.3818(5)
O14 O 0.4116(4) 0.4771(7) 0.5896(4)
O15 O 0.4947(4) 0.6757(8) 0.3877(5)
O16 O 0.4868(4) 0.7130(8) 0.5143(5)
N1 N 0.3709(4) 0.0518(8) 0.6174(4)
N2 N 0.3945(4) 0.0477(7) 0.5117(4)
N3 N 0.4175(4) 0.0486(7) 0.4060(4)
N4 N 0.3741(4) 0.2032(7) 0.4500(4)
N5 N 0.3372(5) 0.3539(7) 0.4993(4)
N6 N 0.3524(4) 0.2026(7) 0.5608(4)
C1 C 0.3989(5) 0.1242(9) 0.7230(5)
C2 C 0.3452(5) 0.1030(10) 0.6743(5)
H2 H 0.3114 0.0581 0.6927
H3 H 0.3242 0.1692 0.6625
C3 C 0.3310(5) -0.1332(11) 0.6043(5)
C4 C 0.3874(6) -0.0592(10) 0.6216(5)
H4 H 0.4019 -0.0746 0.6645
H5 H 0.4246 -0.0733 0.5940
C5 C 0.3716(5) 0.1021(9) 0.5615(5)
C6 C 0.3945(5) 0.1016(9) 0.4576(5)
C7 C 0.4327(5) -0.0634(8) 0.4144(5)
H6 H 0.4650 -0.0710 0.4486
H7 H 0.4530 -0.0900 0.3762
C8 C 0.3710(5) -0.1313(9) 0.4293(5)
C9 C 0.4222(6) 0.1019(11) 0.3480(5)
H8 H 0.4502 0.0600 0.3207
H9 H 0.4453 0.1680 0.3558
C10 C 0.3582(7) 0.1270(11) 0.3116(6)
C11 C 0.3478(5) 0.4775(9) 0.5942(5)
C12 C 0.3544(5) 0.2502(8) 0.5024(6)
C13 C 0.3058(6) 0.4049(9) 0.5533(6)
H10 H 0.2882 0.3498 0.5803
H11 H 0.2680 0.4454 0.5375
C14 C 0.3359(6) 0.4063(9) 0.4387(6)
H12 H 0.2948 0.4464 0.4352
H13 H 0.3350 0.3529 0.4059
C15 C 0.3936(6) 0.4799(9) 0.4266(6)
Cu1F Cu 0.26511(6) -0.32164(11) 0.60301(6)
Cu1F_2 Cu 0.26511(6) 0.67836(11) 0.60301(6)
Cu2D Cu 0.46704(7) 0.39331(12) 0.53600(8)
O7F O 0.1574(4) -0.2707(6) 0.3846(4)
O9F O 0.1795(4) -0.0318(6) 0.3658(4)
O12D O 0.5543(4) 0.5199(7) 0.5392(5)
O14D O 0.5884(4) 0.5229(7) 0.4104(4)
O17 O 0.4656(7) 0.6606(12) 0.6364(7)
O18 O 0.5614(10) 0.6353(14) 0.2755(7)
O19 O 0.3597(8) 0.3494(12) 0.2166(7)
O20 O 0.2965(12) 0.558(3) 0.2794(9)
O21 O 0.429(3) 0.410(3) 0.2624(16)
loop_
_geom_bond_atom_site_label_1
_geom_bond_atom_site_label_2
_geom_bond_site_symmetry_1
_geom_bond_site_symmetry_2
Cu1 O5 1_555 1_555
Cu2 O12 1_555 1_555
O1 C1 1_555 1_555
O2 C1 1_555 1_555
O3 C3 1_555 1_555
O4 C8 1_555 1_555
O5 C8 1_555 1_555
O6 Cu1 1_555 1_555
O7 C3 1_555 1_555
O8 Cu1 1_555 1_555
O9 C11 1_555 1_555
O10 H1 1_555 1_555
O11 C10 1_555 1_555
O12 C15 1_555 1_555
O13 C15 1_555 1_555
O14 C11 1_555 1_555
O15 Cu2 1_555 1_555
O16 Cu2 1_555 1_555
N1 C2 1_555 1_555
N2 C5 1_555 1_555
N3 C6 1_555 1_555
N4 C6 1_555 1_555
N5 C12 1_555 1_555
N6 C5 1_555 1_555
C1 C2 1_555 1_555
C2 H2 1_555 1_555
H3 C2 1_555 1_555
C3 C4 1_555 1_555
C4 N1 1_555 1_555
H4 C4 1_555 1_555
H5 C4 1_555 1_555
C5 N1 1_555 1_555
C6 N2 1_555 1_555
C7 N3 1_555 1_555
H6 C7 1_555 1_555
H7 C7 1_555 1_555
C8 C7 1_555 1_555
C9 N3 1_555 1_555
H8 C9 1_555 1_555
H9 C9 1_555 1_555
C10 O10 1_555 1_555
C11 C13 1_555 1_555
C12 N4 1_555 1_555
C13 N5 1_555 1_555
H10 C13 1_555 1_555
H11 C13 1_555 1_555
C14 N5 1_555 1_555
H12 C14 1_555 1_555
H13 C14 1_555 1_555
C15 C14 1_555 1_555
Cu1F O7 1_555 1_555
Cu1F_2 O9 1_555 1_555
Cu2D O12 1_555 1_555
O7F Cu1 1_555 1_555
O9F Cu1 1_555 1_555
O12D Cu2 1_555 1_555
O14D Cu2 1_555 1_555
O14 Cu2D 1_555 1_555
N6 C12 1_555 1_555
C9 C10 1_555 1_555
Cu2D O12D 1_555 1_555

#END
