
#######################################################################
#
#                 Cambridge Crystallographic Data Centre
#                                CCDC 
#
#######################################################################
#
# If this CIF has been generated from an entry in the Cambridge 
# Structural Database, then it will include bibliographic, chemical, 
# crystal, experimental, refinement or atomic coordinate data resulting 
# from the CCDC's data processing and validation procedures.
#
#######################################################################

data_LIQRUA
_symmetry_cell_setting           orthorhombic
_symmetry_space_group_name_H-M   'P b c a'
_symmetry_Int_Tables_number      61
_space_group_name_Hall           '-P 2ac 2ab'
loop_
_symmetry_equiv_pos_site_id
_symmetry_equiv_pos_as_xyz
1 x,y,z
2 1/2-x,-y,1/2+z
3 -x,1/2+y,1/2-z
4 1/2+x,1/2-y,-z
5 -x,-y,-z
6 1/2+x,y,1/2-z
7 x,1/2-y,1/2+z
8 1/2-x,1/2+y,z
_cell_length_a                   9.7539(15)
_cell_length_b                   19.227(3)
_cell_length_c                   24.684(4)
_cell_angle_alpha                90
_cell_angle_beta                 90
_cell_angle_gamma                90
_cell_volume                     4629.19
loop_
_atom_site_label
_atom_site_type_symbol
_atom_site_fract_x
_atom_site_fract_y
_atom_site_fract_z
Zn1 Zn 0.79588(5) 0.17441(3) 0.62315(2)
Zn2 Zn 0.85151(5) 0.02613(3) 0.34539(2)
Zn3 Zn 0.56255(13) 0.01131(7) 0.49957(5)
Na1 Na 0.4665(2) 0.08284(10) 0.29477(8)
O1 O 0.7506(4) 0.03763(18) 0.41617(14)
O2 O 0.7740(4) 0.0369(2) 0.50530(16)
O3 O 1.0118(3) 0.04540(16) 0.29722(12)
O4 O 1.2378(3) 0.0473(2) 0.29528(14)
O5 O 0.7319(4) 0.11152(17) 0.31832(14)
O6 O 0.7421(4) -0.03297(17) 0.29267(14)
O7 O 0.5436(4) 0.43884(18) 0.37674(16)
O8 O 1.3622(3) 0.18473(18) 0.25570(15)
O9 O 0.8412(4) 0.29848(19) 0.53825(14)
O10 O 0.7007(3) 0.21075(18) 0.55936(13)
O11 O 0.4833(4) 0.33502(18) 0.40343(16)
O12 O 1.3598(4) 0.2641(2) 0.31986(15)
O13 O 1.1802(3) 0.40629(16) 0.36337(14)
O14 O 1.0081(3) 0.46997(16) 0.33532(15)
O15 O 0.4973(6) 0.1100(2) 0.52071(17)
O16 O 0.4562(7) 0.0243(2) 0.4346(2)
N1 N 1.0073(4) 0.09837(17) 0.40238(15)
N2 N 1.0471(4) 0.19547(18) 0.34905(14)
N3 N 1.0850(4) 0.29526(19) 0.29952(15)
N4 N 0.9112(4) 0.29766(18) 0.36297(14)
N5 N 0.7465(4) 0.29601(18) 0.43060(14)
N6 N 0.8787(4) 0.19799(18) 0.41927(14)
C1 C 0.8186(5) 0.0481(3) 0.4589(2)
C2 C 0.9652(5) 0.0744(2) 0.45545(18)
H1 H 0.9762 0.1124 0.4810
H2 H 1.0263 0.0373 0.4667
C3 C 1.1278(4) 0.0541(2) 0.31946(18)
C4 C 1.1353(4) 0.0714(2) 0.37948(18)
H3 H 1.1612 0.0298 0.3992
H4 H 1.2070 0.1057 0.3850
C5 C 0.5696(5) 0.3818(2) 0.39643(18)
C6 C 0.9761(4) 0.1680(2) 0.38971(17)
C7 C 1.0106(4) 0.2612(2) 0.33851(16)
C8 C 1.0490(5) 0.3663(2) 0.28653(18)
H5 H 0.9518 0.3686 0.2785
H6 H 1.0986 0.3805 0.2543
C9 C 1.1635(5) 0.2539(2) 0.26099(18)
H7 H 1.1740 0.2804 0.2278
H8 H 1.1116 0.2123 0.2523
C10 C 1.3040(5) 0.2324(2) 0.28066(18)
C11 C 0.8485(4) 0.2633(2) 0.40342(16)
C12 C 0.7129(4) 0.3689(2) 0.41983(18)
H9 H 0.7802 0.3875 0.3947
H10 H 0.7214 0.3948 0.4534
C13 C 0.6751(4) 0.2590(2) 0.47343(17)
H11 H 0.6597 0.2116 0.4616
H12 H 0.5861 0.2805 0.4786
C14 C 0.7485(5) 0.2572(2) 0.52770(18)
C15 C 1.0813(5) 0.4169(2) 0.33219(19)
O17 O 0.5089(4) 0.1609(2) 0.37068(16)
Zn1C Zn 0.29588(5) 0.32559(3) 0.37685(2)
Zn1C_2 Zn 1.29588(5) 0.32559(3) 0.37685(2)
Zn2G Zn 0.64849(5) 0.52613(3) 0.34539(2)
Zn3D Zn 0.43745(13) -0.01131(7) 0.50043(5)
Na1_2 Na 1.4665(2) 0.08284(10) 0.29477(8)
Na1E Na 0.9665(2) 0.08284(10) 0.20523(8)
Na1G Na 1.0335(2) 0.58284(10) 0.29477(8)
O3E O 0.5118(3) 0.04540(16) 0.20278(12)
O4_2 O 0.2378(3) 0.0473(2) 0.29528(14)
O7G O 0.9564(4) -0.06116(18) 0.37674(16)
O8_2 O 0.3622(3) 0.18473(18) 0.25570(15)
O11C O 0.9833(4) 0.16498(18) 0.59657(16)
O12C O 0.8598(4) 0.2359(2) 0.68014(15)
O13C O 0.6802(3) 0.09371(16) 0.63663(14)
O14G O 0.4919(3) -0.03003(16) 0.33532(15)
O15D O 0.5027(6) -0.1100(2) 0.47929(17)
O16D O 0.5438(7) -0.0243(2) 0.5654(2)
loop_
_geom_bond_atom_site_label_1
_geom_bond_atom_site_label_2
_geom_bond_site_symmetry_1
_geom_bond_site_symmetry_2
Zn1 O10 1_555 1_555
Zn2 O1 1_555 1_555
Zn3 O2 1_555 1_555
Na1 O5 1_555 1_555
O1 C1 1_555 1_555
O2 C1 1_555 1_555
O3 Zn2 1_555 1_555
O4 C3 1_555 1_555
O5 Zn2 1_555 1_555
O6 Zn2 1_555 1_555
O7 C5 1_555 1_555
O8 C10 1_555 1_555
O9 C14 1_555 1_555
O10 C14 1_555 1_555
O11 C5 1_555 1_555
O12 C10 1_555 1_555
O13 C15 1_555 1_555
O14 C15 1_555 1_555
O15 Zn3 1_555 1_555
O16 Zn3 1_555 1_555
N1 Zn2 1_555 1_555
N2 C6 1_555 1_555
N3 C7 1_555 1_555
N4 C7 1_555 1_555
N5 C11 1_555 1_555
N6 C6 1_555 1_555
C1 C2 1_555 1_555
C2 N1 1_555 1_555
H1 C2 1_555 1_555
H2 C2 1_555 1_555
C3 O3 1_555 1_555
C4 N1 1_555 1_555
H3 C4 1_555 1_555
H4 C4 1_555 1_555
C5 C12 1_555 1_555
C6 N1 1_555 1_555
C7 N2 1_555 1_555
C8 N3 1_555 1_555
H5 C8 1_555 1_555
H6 C8 1_555 1_555
C9 N3 1_555 1_555
H7 C9 1_555 1_555
H8 C9 1_555 1_555
C10 C9 1_555 1_555
C11 N4 1_555 1_555
C12 N5 1_555 1_555
H9 C12 1_555 1_555
H10 C12 1_555 1_555
C13 N5 1_555 1_555
H11 C13 1_555 1_555
H12 C13 1_555 1_555
C14 C13 1_555 1_555
C15 C8 1_555 1_555
O17 Na1 1_555 1_555
Zn1C O11 1_555 1_555
Zn1C_2 O12 1_555 1_555
Zn2G O7 1_555 1_555
Zn3D Zn3 1_555 1_555
Na1_2 O4 1_555 1_555
Na1E O3 1_555 1_555
Na1G O14 1_555 1_555
O3E Na1 1_555 1_555
O4_2 Na1 1_555 1_555
O7G Zn2 1_555 1_555
O8_2 Na1 1_555 1_555
O11C Zn1 1_555 1_555
O12C Zn1 1_555 1_555
O13C Zn1 1_555 1_555
O14G Na1 1_555 1_555
O15D Zn3 1_555 1_555
O16D Zn3 1_555 1_555
O8 Na1_2 1_555 1_555
O13 Zn1C_2 1_555 1_555
O15 Zn3D 1_555 1_555
O16 Zn3D 1_555 1_555
N6 C11 1_555 1_555
C3 C4 1_555 1_555
Zn3D O15D 1_555 1_555
Zn3D O16D 1_555 1_555

#END
