
#######################################################################
#
#                 Cambridge Crystallographic Data Centre
#                                CCDC 
#
#######################################################################
#
# If this CIF has been generated from an entry in the Cambridge 
# Structural Database, then it will include bibliographic, chemical, 
# crystal, experimental, refinement or atomic coordinate data resulting 
# from the CCDC's data processing and validation procedures.
#
#######################################################################

data_LIQSEL
_symmetry_cell_setting           monoclinic
_symmetry_space_group_name_H-M   'C 2/c'
_symmetry_Int_Tables_number      15
_space_group_name_Hall           '-C 2yn'
loop_
_symmetry_equiv_pos_site_id
_symmetry_equiv_pos_as_xyz
1 x,y,z
2 -x,y,1/2-z
3 1/2+x,1/2+y,z
4 1/2-x,1/2+y,1/2-z
5 -x,-y,-z
6 x,-y,1/2+z
7 1/2-x,1/2-y,-z
8 1/2+x,1/2-y,1/2+z
_cell_length_a                   23.1441(10)
_cell_length_b                   14.5274(10)
_cell_length_c                   19.8691(12)
_cell_angle_alpha                90
_cell_angle_beta                 105.167(4)
_cell_angle_gamma                90
_cell_volume                     6447.76
loop_
_atom_site_label
_atom_site_type_symbol
_atom_site_fract_x
_atom_site_fract_y
_atom_site_fract_z
Ag1 Ag 0.0000 -0.33498(3) 0.2500
S1 S 0.18091(3) 0.15565(6) 0.31205(4)
C1 C 0.13470(13) 0.2043(2) 0.36175(15)
C2 C 0.08480(13) 0.1608(2) 0.37539(15)
C3 C 0.05309(12) 0.2104(2) 0.41417(15)
C4 C 0.07211(13) 0.2968(2) 0.44164(15)
H1 H 0.0489 0.3292 0.4669
C5 C 0.12412(13) 0.3366(2) 0.43286(15)
C6 C 0.15404(13) 0.2892(2) 0.39128(15)
H2 H 0.1889 0.3159 0.3828
S2 S 0.06134(3) 0.04808(6) 0.34777(4)
C7 C 0.12845(15) -0.0199(2) 0.38621(19)
H3 H 0.1558 -0.0194 0.3553
H4 H 0.1500 0.0059 0.4320
C8 C 0.10794(15) -0.1162(2) 0.39462(18)
C9 C 0.07522(17) -0.1653(2) 0.33819(19)
H5 H 0.0660 -0.1364 0.2938
N1 N 0.05561(15) -0.2512(2) 0.34220(18)
C10 C 0.0702(2) -0.2910(3) 0.4044(2)
H6 H 0.0565 -0.3520 0.4081
C11 C 0.1036(2) -0.2498(3) 0.4631(2)
H7 H 0.1137 -0.2817 0.5063
C12 C 0.12250(19) -0.1601(3) 0.4584(2)
H8 H 0.1453 -0.1290 0.4988
C13 C 0.14825(14) 0.4280(2) 0.46661(16)
C14 C 0.10373(17) 0.4755(3) 0.5010(2)
H9 H 0.0650 0.4824 0.4666
H10 H 0.1191 0.5363 0.5181
H11 H 0.0987 0.4380 0.5401
C15 C 0.1608(2) 0.4938(3) 0.4113(2)
H12 H 0.1898 0.4655 0.3894
H13 H 0.1771 0.5518 0.4336
H14 H 0.1234 0.5061 0.3756
C16 C 0.20625(17) 0.4099(3) 0.5238(2)
H15 H 0.1972 0.3725 0.5608
H16 H 0.2237 0.4687 0.5433
H17 H 0.2348 0.3771 0.5038
S3 S -0.00633(3) 0.16429(6) 0.44531(4)
C17 C -0.06017(13) 0.1123(2) 0.37565(15)
C18 C -0.08899(13) 0.1568(2) 0.31277(15)
C19 C -0.13404(13) 0.1077(2) 0.26536(15)
C20 C -0.15102(13) 0.0201(2) 0.28171(15)
H18 H -0.1820 -0.0113 0.2489
C21 C -0.12384(13) -0.0226(2) 0.34466(15)
C22 C -0.07793(13) 0.0253(2) 0.39025(16)
H19 H -0.0579 -0.0028 0.4332
S4 S -0.06941(4) 0.26832(6) 0.29084(4)
C23 C -0.08995(18) 0.3404(2) 0.35647(18)
H20 H -0.1249 0.3140 0.3696
H21 H -0.0562 0.3448 0.3989
C24 C -0.10500(15) 0.4338(2) 0.32421(16)
C25 C -0.06104(15) 0.4897(2) 0.31017(18)
H22 H -0.0210 0.4677 0.3227
N2 N -0.07135(13) 0.5725(2) 0.28015(16)
C26 C -0.12780(16) 0.6027(2) 0.2628(2)
H23 H -0.1362 0.6610 0.2407
C27 C -0.17428(17) 0.5527(3) 0.2758(2)
H24 H -0.2139 0.5766 0.2634
C28 C -0.16273(16) 0.4674(3) 0.3070(2)
H25 H -0.1943 0.4322 0.3166
C29 C -0.14169(14) -0.1191(2) 0.36375(16)
C30 C -0.08892(16) -0.1847(3) 0.36940(19)
H26 H -0.0982 -0.2444 0.3870
H27 H -0.0530 -0.1588 0.4015
H28 H -0.0818 -0.1928 0.3233
C31 C -0.15707(17) -0.1134(3) 0.43441(19)
H29 H -0.1911 -0.0717 0.4305
H30 H -0.1224 -0.0901 0.4699
H31 H -0.1675 -0.1748 0.4479
C32 C -0.19622(18) -0.1568(3) 0.3095(2)
H32 H -0.2077 -0.2163 0.3254
H33 H -0.1862 -0.1649 0.2649
H34 H -0.2296 -0.1134 0.3036
S1A S -0.18091(3) 0.15565(6) 0.18795(4)
C1A C -0.13470(13) 0.2043(2) 0.13825(15)
C2A C -0.08480(13) 0.1608(2) 0.12461(15)
C3A C -0.05309(12) 0.2104(2) 0.08583(15)
C4A C -0.07211(13) 0.2968(2) 0.05836(15)
H1A H -0.0489 0.3292 0.0331
C5A C -0.12412(13) 0.3366(2) 0.06714(15)
C6A C -0.15404(13) 0.2892(2) 0.10872(15)
H2A H -0.1889 0.3159 0.1172
S2A S -0.06134(3) 0.04808(6) 0.15223(4)
C7A C -0.12845(15) -0.0199(2) 0.11379(19)
H3A H -0.1558 -0.0194 0.1447
H4A H -0.1500 0.0059 0.0680
C8A C -0.10794(15) -0.1162(2) 0.10538(18)
C9A C -0.07522(17) -0.1653(2) 0.16181(19)
H5A H -0.0660 -0.1364 0.2062
N1A N -0.05561(15) -0.2512(2) 0.15780(18)
C10A C -0.0702(2) -0.2910(3) 0.0956(2)
H6A H -0.0565 -0.3520 0.0919
C11A C -0.1036(2) -0.2498(3) 0.0369(2)
H7A H -0.1137 -0.2817 -0.0063
C12A C -0.12250(19) -0.1601(3) 0.0416(2)
H8A H -0.1453 -0.1290 0.0012
C13A C -0.14825(14) 0.4280(2) 0.03339(16)
C14A C -0.10373(17) 0.4755(3) -0.0010(2)
H9A H -0.0650 0.4824 0.0334
H10A H -0.1191 0.5363 -0.0181
H11A H -0.0987 0.4380 -0.0401
C15A C -0.1608(2) 0.4938(3) 0.0887(2)
H12A H -0.1898 0.4655 0.1106
H13A H -0.1771 0.5518 0.0664
H14A H -0.1234 0.5061 0.1244
C16A C -0.20625(17) 0.4099(3) -0.0238(2)
H15A H -0.1972 0.3725 -0.0608
H16A H -0.2237 0.4687 -0.0433
H17A H -0.2348 0.3771 -0.0038
S3A S 0.00633(3) 0.16429(6) 0.05469(4)
C17A C 0.06017(13) 0.1123(2) 0.12435(15)
C18A C 0.08899(13) 0.1568(2) 0.18723(15)
C19A C 0.13404(13) 0.1077(2) 0.23464(15)
C20A C 0.15102(13) 0.0201(2) 0.21829(15)
H18A H 0.1820 -0.0113 0.2511
C21A C 0.12384(13) -0.0226(2) 0.15534(15)
C22A C 0.07793(13) 0.0253(2) 0.10975(16)
H19A H 0.0579 -0.0028 0.0668
S4A S 0.06941(4) 0.26832(6) 0.20916(4)
C23A C 0.08995(18) 0.3404(2) 0.14353(18)
H20A H 0.1249 0.3140 0.1304
H21A H 0.0562 0.3448 0.1011
C24A C 0.10500(15) 0.4338(2) 0.17579(16)
C25A C 0.06104(15) 0.4897(2) 0.18983(18)
H22A H 0.0210 0.4677 0.1773
N2A N 0.07135(13) 0.5725(2) 0.21985(16)
C26A C 0.12780(16) 0.6027(2) 0.2372(2)
H23A H 0.1362 0.6610 0.2593
C27A C 0.17428(17) 0.5527(3) 0.2242(2)
H24A H 0.2139 0.5766 0.2366
C28A C 0.16273(16) 0.4674(3) 0.1930(2)
H25A H 0.1943 0.4322 0.1834
C29A C 0.14169(14) -0.1191(2) 0.13625(16)
C30A C 0.08892(16) -0.1847(3) 0.13060(19)
H26A H 0.0982 -0.2444 0.1130
H27A H 0.0530 -0.1588 0.0985
H28A H 0.0818 -0.1928 0.1767
C31A C 0.15707(17) -0.1134(3) 0.06559(19)
H29A H 0.1911 -0.0717 0.0695
H30A H 0.1224 -0.0901 0.0301
H31A H 0.1675 -0.1748 0.0521
C32A C 0.19622(18) -0.1568(3) 0.1905(2)
H32A H 0.2077 -0.2163 0.1746
H33A H 0.1862 -0.1649 0.2351
H34A H 0.2296 -0.1134 0.1964
Ag1_2 Ag 0.0000 0.66502(3) 0.2500
N2_2 N -0.07135(13) -0.4275(2) 0.28015(16)
N2A_2 N 0.07135(13) -0.4275(2) 0.21985(16)
B1 B 0.2507(3) 0.7493(10) 0.3927(6)
F1 F 0.2706(3) 0.8290(5) 0.4114(3)
F2 F 0.2930(3) 0.7130(6) 0.3833(3)
F3 F 0.1992(3) 0.7498(5) 0.3524(3)
F4 F 0.2413(3) 0.7165(6) 0.4606(4)
loop_
_geom_bond_atom_site_label_1
_geom_bond_atom_site_label_2
_geom_bond_site_symmetry_1
_geom_bond_site_symmetry_2
Ag1 N1 1_555 1_555
S1 C1 1_555 1_555
C1 C2 1_555 1_555
C2 C3 1_555 1_555
C3 C4 1_555 1_555
C4 H1 1_555 1_555
C5 C4 1_555 1_555
C6 C1 1_555 1_555
H2 C6 1_555 1_555
S2 C2 1_555 1_555
C7 S2 1_555 1_555
H3 C7 1_555 1_555
H4 C7 1_555 1_555
C8 C7 1_555 1_555
C9 C8 1_555 1_555
H5 C9 1_555 1_555
N1 C9 1_555 1_555
C10 N1 1_555 1_555
H6 C10 1_555 1_555
C11 C10 1_555 1_555
H7 C11 1_555 1_555
C12 C8 1_555 1_555
H8 C12 1_555 1_555
C13 C5 1_555 1_555
C14 C13 1_555 1_555
H9 C14 1_555 1_555
H10 C14 1_555 1_555
H11 C14 1_555 1_555
C15 C13 1_555 1_555
H12 C15 1_555 1_555
H13 C15 1_555 1_555
H14 C15 1_555 1_555
C16 C13 1_555 1_555
H15 C16 1_555 1_555
H16 C16 1_555 1_555
H17 C16 1_555 1_555
S3 C3 1_555 1_555
C17 S3 1_555 1_555
C18 C17 1_555 1_555
C19 C18 1_555 1_555
C20 C19 1_555 1_555
H18 C20 1_555 1_555
C21 C20 1_555 1_555
C22 C17 1_555 1_555
H19 C22 1_555 1_555
S4 C18 1_555 1_555
C23 S4 1_555 1_555
H20 C23 1_555 1_555
H21 C23 1_555 1_555
C24 C23 1_555 1_555
C25 C24 1_555 1_555
H22 C25 1_555 1_555
N2 C25 1_555 1_555
C26 N2 1_555 1_555
H23 C26 1_555 1_555
C27 C26 1_555 1_555
H24 C27 1_555 1_555
C28 C24 1_555 1_555
H25 C28 1_555 1_555
C29 C21 1_555 1_555
C30 C29 1_555 1_555
H26 C30 1_555 1_555
H27 C30 1_555 1_555
H28 C30 1_555 1_555
C31 C29 1_555 1_555
H29 C31 1_555 1_555
H30 C31 1_555 1_555
H31 C31 1_555 1_555
C32 C29 1_555 1_555
H32 C32 1_555 1_555
H33 C32 1_555 1_555
H34 C32 1_555 1_555
B1 F1 1_555 1_555
F2 B1 1_555 1_555
F3 B1 1_555 1_555
F4 B1 1_555 1_555
S1A C19 1_555 1_555
C1A S1A 1_555 1_555
C2A C1A 1_555 1_555
C3A C2A 1_555 1_555
C4A C3A 1_555 1_555
H1A C4A 1_555 1_555
C5A C4A 1_555 1_555
C6A C1A 1_555 1_555
H2A C6A 1_555 1_555
S2A C2A 1_555 1_555
C7A S2A 1_555 1_555
H3A C7A 1_555 1_555
H4A C7A 1_555 1_555
C8A C7A 1_555 1_555
C9A C8A 1_555 1_555
H5A C9A 1_555 1_555
N1A Ag1 1_555 1_555
C10A N1A 1_555 1_555
H6A C10A 1_555 1_555
C11A C10A 1_555 1_555
H7A C11A 1_555 1_555
C12A C8A 1_555 1_555
H8A C12A 1_555 1_555
C13A C5A 1_555 1_555
C14A C13A 1_555 1_555
H9A C14A 1_555 1_555
H10A C14A 1_555 1_555
H11A C14A 1_555 1_555
C15A C13A 1_555 1_555
H12A C15A 1_555 1_555
H13A C15A 1_555 1_555
H14A C15A 1_555 1_555
C16A C13A 1_555 1_555
H15A C16A 1_555 1_555
H16A C16A 1_555 1_555
H17A C16A 1_555 1_555
S3A C3A 1_555 1_555
C17A S3A 1_555 1_555
C18A C17A 1_555 1_555
C19A S1 1_555 1_555
C20A C19A 1_555 1_555
H18A C20A 1_555 1_555
C21A C20A 1_555 1_555
C22A C17A 1_555 1_555
H19A C22A 1_555 1_555
S4A C18A 1_555 1_555
C23A S4A 1_555 1_555
H20A C23A 1_555 1_555
H21A C23A 1_555 1_555
C24A C23A 1_555 1_555
C25A C24A 1_555 1_555
H22A C25A 1_555 1_555
N2A C25A 1_555 1_555
C26A N2A 1_555 1_555
H23A C26A 1_555 1_555
C27A C26A 1_555 1_555
H24A C27A 1_555 1_555
C28A C24A 1_555 1_555
H25A C28A 1_555 1_555
C29A C21A 1_555 1_555
C30A C29A 1_555 1_555
H26A C30A 1_555 1_555
H27A C30A 1_555 1_555
H28A C30A 1_555 1_555
C31A C29A 1_555 1_555
H29A C31A 1_555 1_555
H30A C31A 1_555 1_555
H31A C31A 1_555 1_555
C32A C29A 1_555 1_555
H32A C32A 1_555 1_555
H33A C32A 1_555 1_555
H34A C32A 1_555 1_555
Ag1_2 N2 1_555 1_555
N2_2 Ag1 1_555 1_555
N2A_2 Ag1 1_555 1_555
C5 C6 1_555 1_555
C11 C12 1_555 1_555
C21 C22 1_555 1_555
C27 C28 1_555 1_555
C5A C6A 1_555 1_555
C9A N1A 1_555 1_555
C11A C12A 1_555 1_555
C18A C19A 1_555 1_555
C21A C22A 1_555 1_555
N2A Ag1_2 1_555 1_555
C27A C28A 1_555 1_555

#END
