
#######################################################################
#
#                 Cambridge Crystallographic Data Centre
#                                CCDC 
#
#######################################################################
#
# If this CIF has been generated from an entry in the Cambridge 
# Structural Database, then it will include bibliographic, chemical, 
# crystal, experimental, refinement or atomic coordinate data resulting 
# from the CCDC's data processing and validation procedures.
#
#######################################################################

data_LIQSEK
_symmetry_cell_setting           triclinic
_symmetry_space_group_name_H-M   'P -1'
_symmetry_Int_Tables_number      2
_space_group_name_Hall           '-P 1'
loop_
_symmetry_equiv_pos_site_id
_symmetry_equiv_pos_as_xyz
1 x,y,z
2 -x,-y,-z
_cell_length_a                   7.5876(18)
_cell_length_b                   9.109(2)
_cell_length_c                   12.9496(19)
_cell_angle_alpha                69.907(18)
_cell_angle_beta                 84.878(16)
_cell_angle_gamma                66.50(2)
_cell_volume                     769.645
loop_
_atom_site_label
_atom_site_type_symbol
_atom_site_fract_x
_atom_site_fract_y
_atom_site_fract_z
Cu1 Cu 0.85466(3) 0.21469(3) 0.116428(14)
O1 O 0.80455(17) 0.04746(15) 0.06826(9)
O2 O 0.69394(19) 0.03664(17) -0.08211(10)
O3 O 0.7702(2) 0.36156(16) -0.03564(10)
O4 O 0.6386(2) 0.37288(19) -0.18536(11)
O9 O 0.55133(18) 0.29219(16) 0.18331(10)
H1 H 0.5556 0.2209 0.2399
H2 H 0.4921 0.3848 0.1872
N1 N 0.9935(2) 0.03337(19) 0.25384(11)
H9 H 0.9422 -0.0426 0.2750
H10 H 1.1126 -0.0164 0.2368
N2 N 0.9276(2) 0.3894(2) 0.13624(12)
H11 H 0.8471 0.4888 0.0967
H12 H 1.0370 0.3812 0.1061
C1 C 0.7388(2) 0.1101(2) -0.03123(12)
C2 C 0.7138(3) 0.2970(2) -0.09086(13)
C3 C 1.0039(3) 0.0810(3) 0.35070(14)
H13 H 1.0886 -0.0205 0.4097
H14 H 0.8739 0.1211 0.3789
C4 C 1.0804(3) 0.2188(3) 0.32289(16)
H15 H 1.2033 0.1832 0.2867
H16 H 1.1085 0.2304 0.3922
C5 C 0.9459(3) 0.3905(3) 0.24873(17)
H17 H 0.8175 0.4215 0.2798
H18 H 0.9954 0.4774 0.2453
Mn1 Mn 0.36112(3) 0.24922(3) 0.608130(18)
O5 O 0.48640(18) 0.20745(16) 0.45498(10)
O6 O 0.58024(17) 0.01820(15) 0.36765(9)
O7 O 0.05899(16) 0.29315(15) 0.59045(10)
O8 O -0.21630(15) 0.47879(15) 0.49359(10)
O10 O 0.60377(17) 0.28966(17) 0.64079(10)
H3 H 0.6514 0.3428 0.5919
H4 H 0.6115 0.3098 0.6964
O11 O 0.34176(18) 0.18577(18) 0.78641(9)
H5 H 0.4330 0.1677 0.8231
H6 H 0.2898 0.1266 0.8261
C6 C 0.5193(2) 0.0659(2) 0.44928(12)
C7 C -0.0452(2) 0.43359(19) 0.52505(12)
Mn1A Mn 0.63888(3) -0.24922(3) 0.391870(18)
Mn1A_2 Mn -0.36112(3) 0.75078(3) 0.391870(18)
O5A O 0.51360(18) -0.20745(16) 0.54502(10)
O6A O 0.41976(17) -0.01820(15) 0.63235(9)
O7A O -0.05899(16) 0.70685(15) 0.40955(10)
O7A_2 O 0.94101(16) -0.29315(15) 0.40955(10)
O8A O 0.21630(15) 0.52121(15) 0.50641(10)
O8_2 O 0.78370(15) -0.52121(15) 0.49359(10)
O10A O 0.39623(17) -0.28966(17) 0.35921(10)
H3A H 0.3486 -0.3428 0.4081
H4A H 0.3885 -0.3098 0.3036
O11A O 0.65824(18) -0.18577(18) 0.21359(9)
H5A H 0.5670 -0.1677 0.1769
H6A H 0.7102 -0.1266 0.1739
C6A C 0.4807(2) -0.0659(2) 0.55072(12)
C7A C 0.0452(2) 0.56641(19) 0.47495(12)
O12 O 0.3144(2) 0.28542(18) 0.02667(12)
H7 H 0.3202 0.1905 0.0357
H8 H 0.3736 0.2845 0.0744
loop_
_geom_bond_atom_site_label_1
_geom_bond_atom_site_label_2
_geom_bond_site_symmetry_1
_geom_bond_site_symmetry_2
Cu1 O1 1_555 1_555
Mn1 O5 1_555 1_555
O1 C1 1_555 1_555
O2 C1 1_555 1_555
O3 Cu1 1_555 1_555
O4 C2 1_555 1_555
O5 C6 1_555 1_555
O6 C6 1_555 1_555
O7 Mn1 1_555 1_555
O8 C7 1_555 1_555
O9 Cu1 1_555 1_555
H1 O9 1_555 1_555
H2 O9 1_555 1_555
O10 Mn1 1_555 1_555
H3 O10 1_555 1_555
H4 O10 1_555 1_555
O11 Mn1 1_555 1_555
H5 O11 1_555 1_555
H6 O11 1_555 1_555
O12 H7 1_555 1_555
H8 O12 1_555 1_555
N1 Cu1 1_555 1_555
H9 N1 1_555 1_555
H10 N1 1_555 1_555
N2 Cu1 1_555 1_555
H11 N2 1_555 1_555
H12 N2 1_555 1_555
C1 C2 1_555 1_555
C2 O3 1_555 1_555
C3 N1 1_555 1_555
H13 C3 1_555 1_555
H14 C3 1_555 1_555
C4 C3 1_555 1_555
H15 C4 1_555 1_555
H16 C4 1_555 1_555
C5 N2 1_555 1_555
H17 C5 1_555 1_555
H18 C5 1_555 1_555
C6 C6A 1_555 1_555
C7 O7 1_555 1_555
Mn1A O6 1_555 1_555
Mn1A_2 O8 1_555 1_555
O5A Mn1A 1_555 1_555
O6A Mn1 1_555 1_555
O7A Mn1A_2 1_555 1_555
O7A_2 Mn1A 1_555 1_555
O8A Mn1 1_555 1_555
O8_2 Mn1A 1_555 1_555
O10A Mn1A 1_555 1_555
H3A O10A 1_555 1_555
H4A O10A 1_555 1_555
O11A Mn1A 1_555 1_555
H5A O11A 1_555 1_555
H6A O11A 1_555 1_555
C6A O5A 1_555 1_555
C7A C7 1_555 1_555
C4 C5 1_555 1_555
O6A C6A 1_555 1_555
O7A C7A 1_555 1_555
O8A C7A 1_555 1_555

#END
