
#######################################################################
#
#                 Cambridge Crystallographic Data Centre
#                                CCDC 
#
#######################################################################
#
# If this CIF has been generated from an entry in the Cambridge 
# Structural Database, then it will include bibliographic, chemical, 
# crystal, experimental, refinement or atomic coordinate data resulting 
# from the CCDC's data processing and validation procedures.
#
#######################################################################

data_LIQSAG
_symmetry_cell_setting           triclinic
_symmetry_space_group_name_H-M   'P -1'
_symmetry_Int_Tables_number      2
_space_group_name_Hall           '-P 1'
loop_
_symmetry_equiv_pos_site_id
_symmetry_equiv_pos_as_xyz
1 x,y,z
2 -x,-y,-z
_cell_length_a                   8.6108(17)
_cell_length_b                   9.1233(14)
_cell_length_c                   9.2126(14)
_cell_angle_alpha                106.892(13)
_cell_angle_beta                 94.040(14)
_cell_angle_gamma                117.115(17)
_cell_volume                     598.65
loop_
_atom_site_label
_atom_site_type_symbol
_atom_site_fract_x
_atom_site_fract_y
_atom_site_fract_z
Cu1 Cu 0.0000 0.5000 0.5000
N1 N -0.09674(19) 0.26222(19) 0.53867(17)
N2 N 0.11955(19) 0.61297(19) 0.72689(16)
H3 H 0.2422 0.6704 0.7394
H4 H 0.0881 0.6956 0.7746
C4 C 0.0299(2) 0.3065(2) 0.6835(2)
H5 H 0.1437 0.3162 0.6592
H6 H -0.0229 0.2115 0.7264
C5 C 0.0670(2) 0.4795(2) 0.8024(2)
H7 H -0.0417 0.4643 0.8410
H8 H 0.1651 0.5193 0.8925
C6 C -0.2800(2) 0.2032(2) 0.5647(2)
H9 H -0.3182 0.1001 0.5957
H10 H -0.3633 0.1711 0.4680
H11 H -0.2800 0.2991 0.6476
C7 C -0.1031(2) 0.1132(2) 0.4130(2)
H12 H -0.1379 0.0126 0.4470
H13 H 0.0157 0.1500 0.3902
H14 H -0.1913 0.0785 0.3186
N1A N 0.09674(19) 0.73778(19) 0.46133(17)
N2A N -0.11955(19) 0.38703(19) 0.27311(16)
H3A H -0.2422 0.3296 0.2606
H4A H -0.0881 0.3044 0.2254
C4A C -0.0299(2) 0.6935(2) 0.3165(2)
H5A H -0.1437 0.6838 0.3408
H6A H 0.0229 0.7885 0.2736
C5A C -0.0670(2) 0.5205(2) 0.1976(2)
H7A H 0.0417 0.5357 0.1590
H8A H -0.1651 0.4807 0.1075
C6A C 0.2800(2) 0.7968(2) 0.4353(2)
H9A H 0.3182 0.8999 0.4043
H10A H 0.3633 0.8289 0.5320
H11A H 0.2800 0.7009 0.3524
C7A C 0.1031(2) 0.8868(2) 0.5870(2)
H12A H 0.1379 0.9874 0.5530
H13A H -0.0157 0.8500 0.6098
H14A H 0.1913 0.9215 0.6814
Mn1 Mn 0.31105(3) 0.31582(3) 0.18413(3)
O1 O 0.27812(15) 0.43467(16) 0.41604(13)
O2 O 0.18554(16) 0.03210(16) 0.12383(14)
O3 O -0.04141(16) -0.21769(15) -0.05401(14)
O4 O 0.43204(17) 0.28294(16) -0.01375(14)
O5 O 0.58904(18) 0.43352(16) -0.15469(15)
O6 O 0.44511(16) 0.60865(17) 0.65943(14)
C1 C 0.0421(2) -0.0536(2) 0.02025(18)
C2 C 0.5057(2) 0.4178(2) -0.04937(18)
C3 C 0.4202(2) 0.5130(2) 0.52206(18)
Mn1A Mn 0.68895(3) 0.68418(3) 0.81587(3)
Mn1A_2 Mn -0.31105(3) -0.31582(3) -0.18413(3)
Mn1A_3 Mn 0.68895(3) 0.68418(3) -0.18413(3)
O1A O 0.72188(15) 0.56533(16) 0.58396(13)
O2A O -0.18554(16) -0.03210(16) -0.12383(14)
O2A_2 O 0.81446(16) 0.96790(16) 0.87617(14)
O3A O 0.04141(16) 0.21769(15) 0.05401(14)
O3_2 O 0.95859(16) 0.78231(15) 0.94599(14)
O4A O 0.56796(17) 0.71706(16) 0.01375(14)
O4A_2 O 0.56796(17) 0.71706(16) 1.01375(14)
O5A O 0.41096(18) 0.56648(16) 0.15469(15)
O5_2 O 0.58904(18) 0.43352(16) 0.84531(15)
O6A O 0.55489(16) 0.39135(17) 0.34057(14)
C1A C -0.0421(2) 0.0536(2) -0.02025(18)
C2A C 0.4943(2) 0.5822(2) 0.04937(18)
C3A C 0.5798(2) 0.4870(2) 0.47794(18)
O7 O 0.52192(19) 0.01557(19) 0.17846(18)
H1 H 0.4191 0.0004 0.1454
H2 H 0.5413 -0.0587 0.1193
loop_
_geom_bond_atom_site_label_1
_geom_bond_atom_site_label_2
_geom_bond_site_symmetry_1
_geom_bond_site_symmetry_2
Cu1 N1 1_555 1_555
Mn1 O1 1_555 1_555
O1 C3 1_555 1_555
O2 Mn1 1_555 1_555
O3 C1 1_555 1_555
O4 Mn1 1_555 1_555
O5 C2 1_555 1_555
O6 C3 1_555 1_555
O7 H1 1_555 1_555
H2 O7 1_555 1_555
N1 C4 1_555 1_555
N2 Cu1 1_555 1_555
H3 N2 1_555 1_555
H4 N2 1_555 1_555
C1 O2 1_555 1_555
C2 O4 1_555 1_555
C3 C3A 1_555 1_555
C4 H5 1_555 1_555
H6 C4 1_555 1_555
C5 N2 1_555 1_555
H7 C5 1_555 1_555
H8 C5 1_555 1_555
C6 N1 1_555 1_555
H9 C6 1_555 1_555
H10 C6 1_555 1_555
H11 C6 1_555 1_555
C7 N1 1_555 1_555
H12 C7 1_555 1_555
H13 C7 1_555 1_555
H14 C7 1_555 1_555
Mn1A O6 1_555 1_555
Mn1A_2 O3 1_555 1_555
Mn1A_3 O5 1_555 1_555
O1A Mn1A 1_555 1_555
O2A Mn1A_2 1_555 1_555
O2A_2 Mn1A 1_555 1_555
O3A Mn1 1_555 1_555
O3_2 Mn1A 1_555 1_555
O4A Mn1A_3 1_555 1_555
O4A_2 Mn1A 1_555 1_555
O5A Mn1 1_555 1_555
O5_2 Mn1A 1_555 1_555
O6A Mn1 1_555 1_555
N1A Cu1 1_555 1_555
N2A Cu1 1_555 1_555
H3A N2A 1_555 1_555
H4A N2A 1_555 1_555
C1A C1 1_555 1_555
C2A C2 1_555 1_555
C3A O1A 1_555 1_555
C4A N1A 1_555 1_555
H5A C4A 1_555 1_555
H6A C4A 1_555 1_555
C5A N2A 1_555 1_555
H7A C5A 1_555 1_555
H8A C5A 1_555 1_555
C6A N1A 1_555 1_555
H9A C6A 1_555 1_555
H10A C6A 1_555 1_555
H11A C6A 1_555 1_555
C7A N1A 1_555 1_555
H12A C7A 1_555 1_555
H13A C7A 1_555 1_555
H14A C7A 1_555 1_555
C4 C5 1_555 1_555
O2A C1A 1_555 1_555
O3A C1A 1_555 1_555
O4A C2A 1_555 1_555
O5A C2A 1_555 1_555
O6A C3A 1_555 1_555
C4A C5A 1_555 1_555

#END
