
#######################################################################
#
#                 Cambridge Crystallographic Data Centre
#                                CCDC 
#
#######################################################################
#
# If this CIF has been generated from an entry in the Cambridge 
# Structural Database, then it will include bibliographic, chemical, 
# crystal, experimental, refinement or atomic coordinate data resulting 
# from the CCDC's data processing and validation procedures.
#
#######################################################################

data_LIQTEL
_symmetry_cell_setting           monoclinic
_symmetry_space_group_name_H-M   'C 2/c'
_symmetry_Int_Tables_number      15
_space_group_name_Hall           '-C 2yn'
loop_
_symmetry_equiv_pos_site_id
_symmetry_equiv_pos_as_xyz
1 x,y,z
2 -x,y,1/2-z
3 1/2+x,1/2+y,z
4 1/2-x,1/2+y,1/2-z
5 -x,-y,-z
6 x,-y,1/2+z
7 1/2-x,1/2-y,-z
8 1/2+x,1/2-y,1/2+z
_cell_length_a                   32.822(6)
_cell_length_b                   8.3789(14)
_cell_length_c                   17.121(3)
_cell_angle_alpha                90
_cell_angle_beta                 118.902(2)
_cell_angle_gamma                90
_cell_volume                     4122.03
loop_
_atom_site_label
_atom_site_type_symbol
_atom_site_fract_x
_atom_site_fract_y
_atom_site_fract_z
C1 C 0.31952(9) 1.1461(3) 0.08387(18)
C2 C 0.29362(10) 1.1438(3) -0.00911(18)
H1 H 0.2661 1.0854 -0.0368
C3 C 0.30846(10) 1.2276(3) -0.06063(18)
C4 C 0.34870(10) 1.3181(3) -0.01934(19)
H2 H 0.3580 1.3781 -0.0537
C5 C 0.37531(9) 1.3200(3) 0.07304(19)
C6 C 0.36061(10) 1.2320(3) 0.12373(18)
H3 H 0.3787 1.2309 0.1855
C7 C 0.30604(10) 1.0498(4) 0.1422(2)
C8 C 0.28268(12) 1.2133(4) -0.1612(2)
C9 C 0.42036(11) 1.4110(4) 0.1178(2)
C10 C 0.66482(10) 2.1439(3) 0.09352(17)
H4 H 0.6676 2.0989 0.1456
C11 C 0.63864(10) 2.2123(3) -0.04403(19)
H5 H 0.6195 2.2226 -0.1053
C12 C 0.58707(9) 2.0311(3) -0.01478(17)
C13 C 0.55417(10) 2.0122(4) -0.10307(18)
H6 H 0.5563 2.0671 -0.1481
C14 C 0.51795(10) 1.9089(4) -0.12198(18)
H7 H 0.4953 1.8922 -0.1809
C15 C 0.51501(10) 1.8298(3) -0.05416(18)
H8 H 0.4911 1.7585 -0.0654
C16 C 0.54967(9) 1.8629(3) 0.03138(17)
C17 C 0.51680(10) 1.6979(3) 0.10978(18)
H9 H 0.4909 1.6568 0.0601
C18 C 0.58046(11) 1.8235(4) 0.19402(19)
H10 H 0.6069 1.8863 0.2131
N1 N 0.69609(8) 2.2318(3) 0.08857(14)
N2 N 0.67917(9) 2.2757(3) -0.00026(15)
N3 N 0.62727(7) 2.1279(3) 0.01087(14)
N4 N 0.58519(8) 1.9600(3) 0.05254(14)
N5 N 0.54903(8) 1.7945(3) 0.10710(14)
N6 N 0.52727(8) 1.6709(3) 0.19177(14)
N7 N 0.56823(10) 1.7510(4) 0.24650(16)
O1 O 0.33122(9) 1.0554(4) 0.22414(15)
O2 O 0.26971(8) 0.9654(3) 0.10298(15)
O3 O 0.24828(11) 1.1288(4) -0.19789(17)
O4 O 0.29933(10) 1.2824(3) -0.20458(15)
O5 O 0.42975(9) 1.5144(3) 0.0782(2)
O6 O 0.44738(8) 1.3750(3) 0.19886(16)
O7 O 0.79619(9) 2.1289(3) 0.12879(15)
H14 H 0.8007 2.1457 0.0845
H15 H 0.8101 2.0459 0.1583
Zn1 Zn 0.5000 1.52372(5) 0.2500
Zn2 Zn 0.763880(12) 2.28835(4) 0.17113(2)
C1A C 0.68048(9) 1.1461(3) 0.41613(18)
C2A C 0.70638(10) 1.1438(3) 0.50911(18)
H1A H 0.7339 1.0854 0.5368
C3A C 0.69154(10) 1.2276(3) 0.56063(18)
C4A C 0.65130(10) 1.3181(3) 0.51934(19)
H2A H 0.6420 1.3781 0.5537
C5A C 0.62469(9) 1.3200(3) 0.42696(19)
C6A C 0.63939(10) 1.2320(3) 0.37627(18)
H3A H 0.6213 1.2309 0.3145
C7A C 0.69396(10) 1.0498(4) 0.3578(2)
C8A C 0.71732(12) 1.2133(4) 0.6612(2)
C9A C 0.57964(11) 1.4110(4) 0.3822(2)
C10A C 0.33518(10) 2.1439(3) 0.40648(17)
H4A H 0.3324 2.0989 0.3544
C11A C 0.36136(10) 2.2123(3) 0.54403(19)
H5A H 0.3805 2.2226 0.6053
C12A C 0.41293(9) 2.0311(3) 0.51478(17)
C13A C 0.44583(10) 2.0122(4) 0.60307(18)
H6A H 0.4437 2.0671 0.6481
C14A C 0.48205(10) 1.9089(4) 0.62198(18)
H7A H 0.5047 1.8922 0.6809
C15A C 0.48499(10) 1.8298(3) 0.55416(18)
H8A H 0.5089 1.7585 0.5654
C16A C 0.45033(9) 1.8629(3) 0.46862(17)
C17A C 0.48320(10) 1.6979(3) 0.39022(18)
H9A H 0.5091 1.6568 0.4399
C18A C 0.41954(11) 1.8235(4) 0.30598(19)
H10A H 0.3931 1.8863 0.2869
N1A N 0.30391(8) 2.2318(3) 0.41143(14)
N2A N 0.32083(9) 2.2757(3) 0.50026(15)
N3A N 0.37273(7) 2.1279(3) 0.48913(14)
N4A N 0.41481(8) 1.9600(3) 0.44746(14)
N5A N 0.45097(8) 1.7945(3) 0.39290(14)
N6A N 0.47273(8) 1.6709(3) 0.30823(14)
N7A N 0.43177(10) 1.7510(4) 0.25350(16)
O1A O 0.66878(9) 1.0554(4) 0.27586(15)
O2A O 0.73029(8) 0.9654(3) 0.39702(15)
O2B O 0.76971(8) 2.4654(3) 0.10298(15)
O2C O 0.23029(8) 2.4654(3) 0.39702(15)
O3A O 0.75172(11) 1.1288(4) 0.69789(17)
O4A O 0.70067(10) 1.2824(3) 0.70458(15)
O4G O 0.79933(10) 2.2176(3) 0.29542(15)
O4F O 0.20067(10) 2.2176(3) 0.20458(15)
O5A O 0.57025(9) 1.5144(3) 0.4218(2)
O6A O 0.55262(8) 1.3750(3) 0.30114(16)
O7A O 0.20381(9) 2.1289(3) 0.37121(15)
H14A H 0.1993 2.1457 0.4155
H15A H 0.1899 2.0459 0.3417
Zn2A Zn 0.236120(12) 2.28835(4) 0.32887(2)
Zn2B Zn 0.263880(12) 0.78835(4) 0.17113(2)
Zn2G Zn 0.263880(12) 1.21165(4) -0.32887(2)
Zn2C Zn 0.736120(12) 0.78835(4) 0.32887(2)
Zn2F Zn 0.736120(12) 1.21165(4) 0.82887(2)
O8 O 0.34580(11) 0.4266(4) 0.2739(2)
H11 H 0.3292 0.4935 0.2839
H12 H 0.3257 0.3518 0.2617
O9 O 0.43089(10) 0.5833(4) 0.9233(2)
H13 H 0.4064 0.5867 0.8729
H16 H 0.4286 0.5313 0.9636
loop_
_geom_bond_atom_site_label_1
_geom_bond_atom_site_label_2
_geom_bond_site_symmetry_1
_geom_bond_site_symmetry_2
C1 C2 1_555 1_555
C2 H1 1_555 1_555
C3 C2 1_555 1_555
C4 C3 1_555 1_555
H2 C4 1_555 1_555
C5 C4 1_555 1_555
C6 C1 1_555 1_555
H3 C6 1_555 1_555
C7 C1 1_555 1_555
C8 C3 1_555 1_555
C9 C5 1_555 1_555
C10 H4 1_555 1_555
C11 H5 1_555 1_555
C12 C13 1_555 1_555
C13 H6 1_555 1_555
C14 C13 1_555 1_555
H7 C14 1_555 1_555
C15 C14 1_555 1_555
H8 C15 1_555 1_555
C16 C15 1_555 1_555
C17 H9 1_555 1_555
C18 H10 1_555 1_555
N1 C10 1_555 1_555
N2 C11 1_555 1_555
N3 C10 1_555 1_555
N4 C12 1_555 1_555
N5 C16 1_555 1_555
N6 C17 1_555 1_555
N7 C18 1_555 1_555
O1 C7 1_555 1_555
O2 C7 1_555 1_555
O3 C8 1_555 1_555
O4 C8 1_555 1_555
O5 C9 1_555 1_555
O6 C9 1_555 1_555
O7 H14 1_555 1_555
O8 H11 1_555 1_555
O9 H13 1_555 1_555
H12 O8 1_555 1_555
H15 O7 1_555 1_555
H16 O9 1_555 1_555
Zn1 N6 1_555 1_555
Zn2 N1 1_555 1_555
C1A C2A 1_555 1_555
C2A H1A 1_555 1_555
C3A C2A 1_555 1_555
C4A C3A 1_555 1_555
H2A C4A 1_555 1_555
C5A C4A 1_555 1_555
C6A C1A 1_555 1_555
H3A C6A 1_555 1_555
C7A C1A 1_555 1_555
C8A C3A 1_555 1_555
C9A C5A 1_555 1_555
C10A H4A 1_555 1_555
C11A H5A 1_555 1_555
C12A C13A 1_555 1_555
C13A H6A 1_555 1_555
C14A C13A 1_555 1_555
H7A C14A 1_555 1_555
C15A C14A 1_555 1_555
H8A C15A 1_555 1_555
C16A C15A 1_555 1_555
C17A H9A 1_555 1_555
C18A H10A 1_555 1_555
N1A C10A 1_555 1_555
N2A C11A 1_555 1_555
N3A C10A 1_555 1_555
N4A C12A 1_555 1_555
N5A C16A 1_555 1_555
N6A Zn1 1_555 1_555
N7A C18A 1_555 1_555
O1A C7A 1_555 1_555
O2A C7A 1_555 1_555
O2B Zn2 1_555 1_555
O2C Zn2A 1_555 1_555
O3A C8A 1_555 1_555
O4A C8A 1_555 1_555
O4G Zn2 1_555 1_555
O4F Zn2A 1_555 1_555
O5A C9A 1_555 1_555
O6A Zn1 1_555 1_555
O7A H14A 1_555 1_555
H15A O7A 1_555 1_555
Zn2A N1A 1_555 1_555
Zn2B O2 1_555 1_555
Zn2G O4 1_555 1_555
Zn2C O2A 1_555 1_555
Zn2F O4A 1_555 1_555
C5 C6 1_555 1_555
C11 N3 1_555 1_555
C12 N3 1_555 1_555
C16 N4 1_555 1_555
C17 N5 1_555 1_555
C18 N5 1_555 1_555
N1 N2 1_555 1_555
N6 N7 1_555 1_555
O6 Zn1 1_555 1_555
O7 Zn2 1_555 1_555
C5A C6A 1_555 1_555
C9A O6A 1_555 1_555
C11A N3A 1_555 1_555
C12A N3A 1_555 1_555
C16A N4A 1_555 1_555
C17A N5A 1_555 1_555
C17A N6A 1_555 1_555
C18A N5A 1_555 1_555
N1A N2A 1_555 1_555
N6A N7A 1_555 1_555
O7A Zn2A 1_555 1_555

#END
