
#######################################################################
#
#                 Cambridge Crystallographic Data Centre
#                                CCDC 
#
#######################################################################
#
# If this CIF has been generated from an entry in the Cambridge 
# Structural Database, then it will include bibliographic, chemical, 
# crystal, experimental, refinement or atomic coordinate data resulting 
# from the CCDC's data processing and validation procedures.
#
#######################################################################

data_LIQVEO
_symmetry_cell_setting           tetragonal
_symmetry_space_group_name_H-M   'I 41/a'
_symmetry_Int_Tables_number      88
_space_group_name_Hall           '-I 4ad'
loop_
_symmetry_equiv_pos_site_id
_symmetry_equiv_pos_as_xyz
1 x,y,z
2 1/2-x,-y,1/2+z
3 3/4-y,1/4+x,1/4+z
4 3/4+y,3/4-x,3/4+z
5 1/2+x,1/2+y,1/2+z
6 -x,1/2-y,z
7 1/4-y,3/4+x,3/4+z
8 1/4+y,1/4-x,1/4+z
9 -x,-y,-z
10 1/2+x,y,1/2-z
11 1/4+y,3/4-x,3/4-z
12 1/4-y,1/4+x,1/4-z
13 1/2-x,1/2-y,1/2-z
14 x,1/2+y,-z
15 3/4+y,1/4-x,1/4-z
16 3/4-y,3/4+x,3/4-z
_cell_length_a                   16.0692(4)
_cell_length_b                   16.0692(4)
_cell_length_c                   25.7400(17)
_cell_angle_alpha                90
_cell_angle_beta                 90
_cell_angle_gamma                90
_cell_volume                     6646.56
loop_
_atom_site_label
_atom_site_type_symbol
_atom_site_fract_x
_atom_site_fract_y
_atom_site_fract_z
Cu1 Cu 0.68664(4) 0.24934(4) 0.28341(3)
O1 O 0.7270(3) 0.3619(3) 0.2978(2)
C1 C 0.7898(4) 0.3946(4) 0.2779(3)
O2 O 0.8333(3) 0.3640(3) 0.24227(19)
C2 C 0.8152(4) 0.4772(4) 0.2989(3)
C3 C 0.8765(5) 0.5248(5) 0.2754(4)
H1 H 0.9020 0.5062 0.2452
C4 C 0.8684(7) 0.6269(7) 0.3422(6)
H2 H 0.8867 0.6764 0.3570
C5 C 0.7822(5) 0.5073(5) 0.3446(3)
H3 H 0.7406 0.4782 0.3619
C6 C 0.8994(7) 0.5994(6) 0.2969(6)
H4 H 0.9380 0.6322 0.2795
C7 C 0.8121(6) 0.5820(6) 0.3643(4)
N1 N 0.7786(7) 0.6131(7) 0.4084(5)
O3 O 0.7329(6) 0.5679(6) 0.4326(4)
O4 O 0.8001(7) 0.6831(8) 0.4225(5)
N2 N 0.5764(2) 0.2504(3) 0.34180(18)
C8 C 0.5751(3) 0.1757(3) 0.3751(2)
H5 H 0.6244 0.1752 0.3969
H6 H 0.5764 0.1264 0.3534
C9 C 0.5000 0.2500 0.3086(3)
H7 H 0.4997 0.2989 0.2865
O5 O 0.6245(3) 0.2923(3) 0.2248(2)
C10 C 0.6567(5) 0.3066(4) 0.1807(3)
O6 O 0.7324(3) 0.2942(3) 0.16803(19)
C11 C 0.6125(6) 0.3402(6) 0.1397(3)
C12 C 0.6478(5) 0.3523(6) 0.0910(4)
H8 H 0.7027 0.3366 0.0850
C13 C 0.6011(6) 0.3879(7) 0.0513(3)
C14 C 0.5191(6) 0.4114(7) 0.0604(3)
H9 H 0.4879 0.4352 0.0339
C15 C 0.4838(5) 0.3992(7) 0.1091(4)
H10 H 0.4290 0.4149 0.1152
C16 C 0.5305(6) 0.3637(7) 0.1488(3)
H11 H 0.5069 0.3555 0.1814
N3 N 0.6361(9) 0.4009(9) 0.0048(5)
O7 O 0.5917(10) 0.4367(11) -0.0298(7)
O8 O 0.7079(9) 0.3803(10) -0.0041(6)
N2E N 0.4236(2) 0.2496(3) 0.34180(18)
C8E C 0.4249(3) 0.3243(3) 0.3751(2)
H5E H 0.3756 0.3248 0.3969
H6E H 0.4236 0.3736 0.3534
H7E H 0.5003 0.2011 0.2865
N2J N 0.5004(3) 0.1736(2) 0.40820(18)
C8J C 0.4257(3) 0.1749(3) 0.3749(2)
H5J H 0.4252 0.1256 0.3531
H6J H 0.3764 0.1736 0.3966
C9J C 0.5000 0.2500 0.4414(3)
H7J H 0.5489 0.2503 0.4635
N2O N 0.4996(3) 0.3264(2) 0.40820(18)
C8O C 0.5743(3) 0.3251(3) 0.3749(2)
H5O H 0.5748 0.3744 0.3531
H6O H 0.6236 0.3264 0.3966
H7O H 0.4511 0.2497 0.4635
Cu1E Cu 0.31336(4) 0.25066(4) 0.28341(3)
O1E O 0.2730(3) 0.1381(3) 0.2978(2)
C1E C 0.2102(4) 0.1054(4) 0.2779(3)
O2E O 0.1667(3) 0.1360(3) 0.24227(19)
C2E C 0.1848(4) 0.0228(4) 0.2989(3)
C3E C 0.1235(5) -0.0248(5) 0.2754(4)
H1E H 0.0980 -0.0062 0.2452
C4E C 0.1316(7) -0.1269(7) 0.3422(6)
H2E H 0.1133 -0.1764 0.3570
C5E C 0.2178(5) -0.0073(5) 0.3446(3)
H3E H 0.2594 0.0218 0.3619
C6E C 0.1006(7) -0.0994(6) 0.2969(6)
H4E H 0.0620 -0.1322 0.2795
C7E C 0.1879(6) -0.0820(6) 0.3643(4)
N1E N 0.2214(7) -0.1131(7) 0.4084(5)
O3E O 0.2671(6) -0.0679(6) 0.4326(4)
O4E O 0.1999(7) -0.1831(8) 0.4225(5)
O5E O 0.3755(3) 0.2077(3) 0.2248(2)
C10E C 0.3433(5) 0.1934(4) 0.1807(3)
O6E O 0.2676(3) 0.2058(3) 0.16803(19)
C11E C 0.3875(6) 0.1598(6) 0.1397(3)
C12E C 0.3522(5) 0.1477(6) 0.0910(4)
H8E H 0.2973 0.1634 0.0850
C13E C 0.3989(6) 0.1121(7) 0.0513(3)
C14E C 0.4809(6) 0.0886(7) 0.0604(3)
H9E H 0.5121 0.0648 0.0339
C15E C 0.5162(5) 0.1008(7) 0.1091(4)
H10E H 0.5710 0.0851 0.1152
C16E C 0.4695(6) 0.1363(7) 0.1488(3)
H11E H 0.4931 0.1445 0.1814
N3E N 0.3639(9) 0.0991(9) 0.0048(5)
O7E O 0.4083(10) 0.0633(11) -0.0298(7)
O8E O 0.2921(9) 0.1197(10) -0.0041(6)
Cu1J Cu 0.49934(4) 0.06336(4) 0.46659(3)
O1J O 0.6119(3) 0.0230(3) 0.4522(2)
C1J C 0.6446(4) -0.0398(4) 0.4721(3)
O2J O 0.6140(3) -0.0833(3) 0.50773(19)
C2J C 0.7272(4) -0.0652(4) 0.4511(3)
C3J C 0.7748(5) -0.1265(5) 0.4746(4)
H1J H 0.7562 -0.1520 0.5048
C4J C 0.8769(7) -0.1184(7) 0.4078(6)
H2J H 0.9264 -0.1367 0.3930
C5J C 0.7573(5) -0.0322(5) 0.4054(3)
H3J H 0.7282 0.0094 0.3881
C6J C 0.8494(6) -0.1494(7) 0.4531(6)
H4J H 0.8822 -0.1880 0.4705
C7J C 0.8320(6) -0.0621(6) 0.3857(4)
N1J N 0.8631(7) -0.0286(7) 0.3416(5)
O3J O 0.8179(6) 0.0171(6) 0.3174(4)
O4J O 0.9331(8) -0.0501(7) 0.3275(5)
O5J O 0.5423(3) 0.1255(3) 0.5252(2)
C10J C 0.5566(4) 0.0933(5) 0.5693(3)
O6J O 0.5442(3) 0.0176(3) 0.58197(19)
C11J C 0.5902(6) 0.1375(6) 0.6103(3)
C12J C 0.6023(6) 0.1022(5) 0.6590(4)
H8J H 0.5866 0.0473 0.6650
C13J C 0.6379(7) 0.1489(6) 0.6987(3)
C14J C 0.6614(7) 0.2309(6) 0.6896(3)
H9J H 0.6852 0.2621 0.7161
C15J C 0.6492(7) 0.2662(5) 0.6409(4)
H10J H 0.6649 0.3210 0.6348
C16J C 0.6137(7) 0.2195(6) 0.6012(3)
H11J H 0.6055 0.2431 0.5686
N3J N 0.6509(9) 0.1139(9) 0.7452(5)
O7J O 0.6867(11) 0.1583(10) 0.7798(7)
O8J O 0.6303(10) 0.0421(9) 0.7541(6)
Cu1O Cu 0.50066(4) 0.43664(4) 0.46659(3)
O1O O 0.3881(3) 0.4770(3) 0.4522(2)
C1O C 0.3554(4) 0.5398(4) 0.4721(3)
O2O O 0.3860(3) 0.5833(3) 0.50773(19)
C2O C 0.2728(4) 0.5652(4) 0.4511(3)
C3O C 0.2252(5) 0.6265(5) 0.4746(4)
H1O H 0.2438 0.6520 0.5048
C4O C 0.1231(7) 0.6184(7) 0.4078(6)
H2O H 0.0736 0.6367 0.3930
C5O C 0.2427(5) 0.5322(5) 0.4054(3)
H3O H 0.2718 0.4906 0.3881
C6O C 0.1506(6) 0.6494(7) 0.4531(6)
H4O H 0.1178 0.6880 0.4705
C7O C 0.1680(6) 0.5621(6) 0.3857(4)
N1O N 0.1369(7) 0.5286(7) 0.3416(5)
O3O O 0.1821(6) 0.4829(6) 0.3174(4)
O4O O 0.0669(8) 0.5501(7) 0.3275(5)
O5O O 0.4577(3) 0.3745(3) 0.5252(2)
C10O C 0.4434(4) 0.4067(5) 0.5693(3)
O6O O 0.4558(3) 0.4824(3) 0.58197(19)
C11O C 0.4098(6) 0.3625(6) 0.6103(3)
C12O C 0.3977(6) 0.3978(5) 0.6590(4)
H8O H 0.4134 0.4527 0.6650
C13O C 0.3621(7) 0.3511(6) 0.6987(3)
C14O C 0.3386(7) 0.2691(6) 0.6896(3)
H9O H 0.3148 0.2379 0.7161
C15O C 0.3508(7) 0.2338(5) 0.6409(4)
H10O H 0.3351 0.1790 0.6348
C16O C 0.3863(7) 0.2805(6) 0.6012(3)
H11O H 0.3945 0.2569 0.5686
N3O N 0.3491(9) 0.3861(9) 0.7452(5)
O7O O 0.3133(11) 0.3417(10) 0.7798(7)
O8O O 0.3697(10) 0.4579(9) 0.7541(6)
Cu1B Cu 0.50066(4) -0.06336(4) 0.53341(3)
Cu1G Cu 0.49934(4) 0.56336(4) 0.53341(3)
Cu1I Cu 0.18664(4) 0.24934(4) 0.21659(3)
Cu1L Cu 0.81336(4) 0.25066(4) 0.21659(3)
O2B O 0.3860(3) 0.0833(3) 0.49227(19)
O2G O 0.6140(3) 0.4167(3) 0.49227(19)
O2I O 0.3333(3) 0.3640(3) 0.25773(19)
O2L O 0.6667(3) 0.1360(3) 0.25773(19)
O6B O 0.4558(3) -0.0176(3) 0.41803(19)
O6G O 0.5442(3) 0.5176(3) 0.41803(19)
O6I O 0.2324(3) 0.2942(3) 0.33197(19)
O6L O 0.7676(3) 0.2058(3) 0.33197(19)
O9 O 0.7934(11) 0.3041(11) 0.0222(6)
C17? C 0.8994(7) 0.5994(6) 0.2969(6)
C18? C 0.8121(6) 0.5820(6) 0.3643(4)
H12? H 0.7900 0.6008 0.3956
N4? N 0.9597(10) 0.6539(11) 0.2794(7)
O10? O 0.9763(10) 0.6356(10) 0.2358(7)
C19? C 0.5830(6) 0.3391(7) 0.1435(4)
C20? C 0.6072(6) 0.3628(7) 0.0939(4)
H13? H 0.6632 0.3617 0.0846
C21? C 0.5478(7) 0.3882(8) 0.0580(3)
C22? C 0.4642(7) 0.3899(8) 0.0717(4)
H14? H 0.4244 0.4069 0.0477
C23? C 0.4400(6) 0.3661(8) 0.1214(4)
H15? H 0.3840 0.3672 0.1306
C24? C 0.4994(7) 0.3407(8) 0.1573(3)
H16? H 0.4832 0.3248 0.1905
N5? N 0.5662(9) 0.4172(8) 0.0092(5)
O11? O 0.5181(8) 0.4191(9) -0.0288(5)
O12? O 0.6410(8) 0.4456(11) 0.0029(7)
H17? H 0.4997 0.2989 0.2865
O13? O 0.9789(14) 0.7073(13) 0.3153(8)
loop_
_geom_bond_atom_site_label_1
_geom_bond_atom_site_label_2
_geom_bond_site_symmetry_1
_geom_bond_site_symmetry_2
Cu1 O1 1_555 1_555
O1 C1 1_555 1_555
C1 O2 1_555 1_555
O2 Cu1L 1_555 1_555
C2 C1 1_555 1_555
C3 C2 1_555 1_555
H1 C3 1_555 1_555
C4 H2 1_555 1_555
C5 C2 1_555 1_555
H3 C5 1_555 1_555
C6 C3 1_555 1_555
H4 C6 1_555 1_555
C7 C4 1_555 1_555
N1 C7 1_555 1_555
O3 N1 1_555 1_555
O4 N1 1_555 1_555
N2 Cu1 1_555 1_555
C8 N2 1_555 1_555
H5 C8 1_555 1_555
H6 C8 1_555 1_555
C9 N2 1_555 1_555
H7 C9 1_555 1_555
O5 Cu1 1_555 1_555
C10 O5 1_555 1_555
O6 C10 1_555 1_555
C11 C10 1_555 1_555
C12 C11 1_555 1_555
H8 C12 1_555 1_555
C13 C12 1_555 1_555
C14 C13 1_555 1_555
H9 C14 1_555 1_555
C15 C14 1_555 1_555
H10 C15 1_555 1_555
C16 C11 1_555 1_555
H11 C16 1_555 1_555
N3 C13 1_555 1_555
O7 N3 1_555 1_555
O8 N3 1_555 1_555
N2E C9 1_555 1_555
C8E N2E 1_555 1_555
H5E C8E 1_555 1_555
H6E C8E 1_555 1_555
H7E C9 1_555 1_555
N2J C8 1_555 1_555
C8J N2E 1_555 1_555
H5J C8J 1_555 1_555
H6J C8J 1_555 1_555
C9J N2J 1_555 1_555
H7J C9J 1_555 1_555
N2O C8E 1_555 1_555
C8O N2 1_555 1_555
H5O C8O 1_555 1_555
H6O C8O 1_555 1_555
H7O C9J 1_555 1_555
Cu1E N2E 1_555 1_555
O1E Cu1E 1_555 1_555
C1E O1E 1_555 1_555
O2E C1E 1_555 1_555
C2E C1E 1_555 1_555
C3E C2E 1_555 1_555
H1E C3E 1_555 1_555
C4E H2E 1_555 1_555
C5E C2E 1_555 1_555
H3E C5E 1_555 1_555
C6E C3E 1_555 1_555
H4E C6E 1_555 1_555
C7E C4E 1_555 1_555
N1E C7E 1_555 1_555
O3E N1E 1_555 1_555
O4E N1E 1_555 1_555
O5E Cu1E 1_555 1_555
C10E O5E 1_555 1_555
O6E C10E 1_555 1_555
C11E C10E 1_555 1_555
C12E C11E 1_555 1_555
H8E C12E 1_555 1_555
C13E C12E 1_555 1_555
C14E C13E 1_555 1_555
H9E C14E 1_555 1_555
C15E C14E 1_555 1_555
H10E C15E 1_555 1_555
C16E C11E 1_555 1_555
H11E C16E 1_555 1_555
N3E C13E 1_555 1_555
O7E N3E 1_555 1_555
O8E N3E 1_555 1_555
Cu1J N2J 1_555 1_555
O1J Cu1J 1_555 1_555
C1J O1J 1_555 1_555
O2J C1J 1_555 1_555
C2J C1J 1_555 1_555
C3J C2J 1_555 1_555
H1J C3J 1_555 1_555
C4J H2J 1_555 1_555
C5J C2J 1_555 1_555
H3J C5J 1_555 1_555
C6J C3J 1_555 1_555
H4J C6J 1_555 1_555
C7J C4J 1_555 1_555
N1J C7J 1_555 1_555
O3J N1J 1_555 1_555
O4J N1J 1_555 1_555
O5J Cu1J 1_555 1_555
C10J O5J 1_555 1_555
O6J C10J 1_555 1_555
C11J C10J 1_555 1_555
C12J C11J 1_555 1_555
H8J C12J 1_555 1_555
C13J C12J 1_555 1_555
C14J C13J 1_555 1_555
H9J C14J 1_555 1_555
C15J C14J 1_555 1_555
H10J C15J 1_555 1_555
C16J C11J 1_555 1_555
H11J C16J 1_555 1_555
N3J C13J 1_555 1_555
O7J N3J 1_555 1_555
O8J N3J 1_555 1_555
Cu1O N2O 1_555 1_555
O1O Cu1O 1_555 1_555
C1O O1O 1_555 1_555
O2O C1O 1_555 1_555
C2O C1O 1_555 1_555
C3O C2O 1_555 1_555
H1O C3O 1_555 1_555
C4O H2O 1_555 1_555
C5O C2O 1_555 1_555
H3O C5O 1_555 1_555
C6O C3O 1_555 1_555
H4O C6O 1_555 1_555
C7O C4O 1_555 1_555
N1O C7O 1_555 1_555
O3O N1O 1_555 1_555
O4O N1O 1_555 1_555
O5O Cu1O 1_555 1_555
C10O O5O 1_555 1_555
O6O C10O 1_555 1_555
C11O C10O 1_555 1_555
C12O C11O 1_555 1_555
H8O C12O 1_555 1_555
C13O C12O 1_555 1_555
C14O C13O 1_555 1_555
H9O C14O 1_555 1_555
C15O C14O 1_555 1_555
H10O C15O 1_555 1_555
C16O C11O 1_555 1_555
H11O C16O 1_555 1_555
N3O C13O 1_555 1_555
O7O N3O 1_555 1_555
O8O N3O 1_555 1_555
Cu1B Cu1J 1_555 1_555
Cu1G Cu1O 1_555 1_555
Cu1I Cu1E 1_555 1_555
Cu1L Cu1 1_555 1_555
O2B Cu1J 1_555 1_555
O2G Cu1O 1_555 1_555
O2I Cu1E 1_555 1_555
O2L Cu1 1_555 1_555
O6B Cu1J 1_555 1_555
O6G Cu1O 1_555 1_555
O6I Cu1E 1_555 1_555
O6L Cu1 1_555 1_555
C4 C6 1_555 1_555
C5 C7 1_555 1_555
O6 Cu1L 1_555 1_555
C15 C16 1_555 1_555
N2J C8J 1_555 1_555
C9J N2O 1_555 1_555
N2O C8O 1_555 1_555
O2E Cu1I 1_555 1_555
C4E C6E 1_555 1_555
C5E C7E 1_555 1_555
O6E Cu1I 1_555 1_555
C15E C16E 1_555 1_555
O2J Cu1B 1_555 1_555
C4J C6J 1_555 1_555
C5J C7J 1_555 1_555
O6J Cu1B 1_555 1_555
C15J C16J 1_555 1_555
O2O Cu1G 1_555 1_555
C4O C6O 1_555 1_555
C5O C7O 1_555 1_555
O6O Cu1G 1_555 1_555
C15O C16O 1_555 1_555

#END
