
#######################################################################
#
#                 Cambridge Crystallographic Data Centre
#                                CCDC 
#
#######################################################################
#
# If this CIF has been generated from an entry in the Cambridge 
# Structural Database, then it will include bibliographic, chemical, 
# crystal, experimental, refinement or atomic coordinate data resulting 
# from the CCDC's data processing and validation procedures.
#
#######################################################################

data_LIQVEN01
_symmetry_cell_setting           tetragonal
_symmetry_space_group_name_H-M   'P 41 2 2'
_symmetry_Int_Tables_number      91
_space_group_name_Hall           'P 4w 2c'
loop_
_symmetry_equiv_pos_site_id
_symmetry_equiv_pos_as_xyz
1 x,y,z
2 -x,-y,1/2+z
3 -y,x,1/4+z
4 y,-x,3/4+z
5 -x,y,-z
6 x,-y,1/2-z
7 y,x,3/4-z
8 -y,-x,1/4-z
_cell_length_a                   8.0814(3)
_cell_length_b                   8.0814(3)
_cell_length_c                   28.0836(4)
_cell_angle_alpha                90
_cell_angle_beta                 90
_cell_angle_gamma                90
_cell_volume                     1834.11
loop_
_atom_site_label
_atom_site_type_symbol
_atom_site_fract_x
_atom_site_fract_y
_atom_site_fract_z
Co1 Co 0.0000 0.01301(5) 0.0000
C1 C -0.0152(3) 0.2543(3) 0.08253(9)
H1 H 0.0858 0.2206 0.0950
C2 C -0.2363(3) 0.2600(3) 0.03996(8)
H2 H -0.3175 0.2335 0.0178
C3 C -0.1004(3) 0.3897(3) 0.09651(8)
H3 H -0.0698 0.4658 0.1198
C4 C -0.3633(3) 0.5209(3) 0.06773(7)
C5 C -0.5288(3) 0.4797(3) 0.06368(7)
H4 H -0.5625 0.3697 0.0645
C6 C -0.3104(3) 0.6834(3) 0.06863(7)
H5 H -0.1989 0.7087 0.0722
C7 C -0.6438(3) 0.6062(3) 0.05831(7)
H6 H -0.7554 0.5807 0.0547
C8 C -0.4273(3) 0.8078(3) 0.06410(8)
H7 H -0.3938 0.9178 0.0650
C9 C -0.5928(3) 0.7708(3) 0.05827(8)
C10 C -0.7142(3) 0.9088(3) 0.04767(9)
N1 N -0.1008(2) 0.1737(2) 0.04686(7)
N2 N -0.2421(2) 0.3918(2) 0.06917(6)
O1 O -0.8544(2) 0.8597(2) 0.03212(6)
O2 O -0.6715(3) 1.0543(2) 0.05302(7)
Co1_2 Co -1.0000 1.01301(5) 0.0000
Co1_3 Co 1.0000 -0.98699(5) 0.0000
C1_2 C 0.9848(3) -0.7457(3) 0.08253(9)
H1_2 H 1.0858 -0.7794 0.0950
C2_2 C 0.7637(3) -0.7400(3) 0.03996(8)
H2_2 H 0.6825 -0.7665 0.0178
C3_2 C 0.8996(3) -0.6103(3) 0.09651(8)
H3_2 H 0.9302 -0.5342 0.1198
C4_2 C 0.6367(3) -0.4791(3) 0.06773(7)
C5_2 C 0.4712(3) -0.5203(3) 0.06368(7)
H4_2 H 0.4375 -0.6303 0.0645
C6_2 C 0.6896(3) -0.3166(3) 0.06863(7)
H5_2 H 0.8011 -0.2913 0.0722
C7_2 C 0.3562(3) -0.3938(3) 0.05831(7)
H6_2 H 0.2446 -0.4193 0.0547
C8_2 C 0.5727(3) -0.1922(3) 0.06410(8)
H7_2 H 0.6062 -0.0822 0.0650
C9_2 C 0.4072(3) -0.2292(3) 0.05827(8)
C10_2 C 0.2858(3) -0.0912(3) 0.04767(9)
N1_2 N 0.8992(2) -0.8263(2) 0.04686(7)
N1D N 0.1008(2) 0.1737(2) -0.04686(7)
N2_2 N 0.7579(2) -0.6082(2) 0.06917(6)
O1_2 O 0.1456(2) -0.1403(2) 0.03212(6)
O1D O -0.1456(2) -0.1403(2) -0.03212(6)
O2_2 O 0.3285(3) 0.0543(2) 0.05302(7)
loop_
_geom_bond_atom_site_label_1
_geom_bond_atom_site_label_2
_geom_bond_site_symmetry_1
_geom_bond_site_symmetry_2
Co1 N1 1_555 1_555
C1 H1 1_555 1_555
C2 H2 1_555 1_555
C3 C1 1_555 1_555
H3 C3 1_555 1_555
C4 C5 1_555 1_555
C5 H4 1_555 1_555
C6 C4 1_555 1_555
H5 C6 1_555 1_555
C7 C5 1_555 1_555
H6 C7 1_555 1_555
C8 C6 1_555 1_555
H7 C8 1_555 1_555
C9 C7 1_555 1_555
C10 C9 1_555 1_555
N1 C1 1_555 1_555
N2 C2 1_555 1_555
O1 C10 1_555 1_555
O2 C10 1_555 1_555
Co1_2 O1 1_555 1_555
Co1_3 N1_2 1_555 1_555
C1_2 H1_2 1_555 1_555
C2_2 H2_2 1_555 1_555
C3_2 C1_2 1_555 1_555
H3_2 C3_2 1_555 1_555
C4_2 C5_2 1_555 1_555
C5_2 H4_2 1_555 1_555
C6_2 C4_2 1_555 1_555
H5_2 C6_2 1_555 1_555
C7_2 C5_2 1_555 1_555
H6_2 C7_2 1_555 1_555
C8_2 C6_2 1_555 1_555
H7_2 C8_2 1_555 1_555
C9_2 C7_2 1_555 1_555
C10_2 C9_2 1_555 1_555
N1_2 C1_2 1_555 1_555
N1D Co1 1_555 1_555
N2_2 C2_2 1_555 1_555
O1_2 Co1 1_555 1_555
O1D Co1 1_555 1_555
O2_2 C10_2 1_555 1_555
C2 N1 1_555 1_555
C3 N2 1_555 1_555
C4 N2 1_555 1_555
C8 C9 1_555 1_555
C2_2 N1_2 1_555 1_555
C3_2 N2_2 1_555 1_555
C4_2 N2_2 1_555 1_555
C8_2 C9_2 1_555 1_555
C10_2 O1_2 1_555 1_555

#END
