
#######################################################################
#
#                 Cambridge Crystallographic Data Centre
#                                CCDC 
#
#######################################################################
#
# If this CIF has been generated from an entry in the Cambridge 
# Structural Database, then it will include bibliographic, chemical, 
# crystal, experimental, refinement or atomic coordinate data resulting 
# from the CCDC's data processing and validation procedures.
#
#######################################################################

data_LIRFIB
_symmetry_cell_setting           cubic
_symmetry_space_group_name_H-M   'P 21 3'
_symmetry_Int_Tables_number      198
_space_group_name_Hall           'P 2ac 2ab 3'
loop_
_symmetry_equiv_pos_site_id
_symmetry_equiv_pos_as_xyz
1 x,y,z
2 z,x,y
3 y,z,x
4 1/2+x,1/2-y,-z
5 1/2+z,1/2-x,-y
6 1/2+y,1/2-z,-x
7 -x,1/2+y,1/2-z
8 -z,1/2+x,1/2-y
9 -y,1/2+z,1/2-x
10 1/2-x,-y,1/2+z
11 1/2-z,-x,1/2+y
12 1/2-y,-z,1/2+x
_cell_length_a                   15.952(2)
_cell_length_b                   15.952(2)
_cell_length_c                   15.952(2)
_cell_angle_alpha                90
_cell_angle_beta                 90
_cell_angle_gamma                90
_cell_volume                     4059.25
loop_
_atom_site_label
_atom_site_type_symbol
_atom_site_fract_x
_atom_site_fract_y
_atom_site_fract_z
Cr1 Cr 0.13195(5) 0.13195(5) 0.13195(5)
Na1 Na 0.1337(1) -0.1337(1) 0.3663(1)
O1 O 0.1400(2) 0.1165(2) 0.2545(2)
O2 O 0.1367(3) 0.0148(2) 0.3502(2)
O3 O 0.1360(2) 0.0084(2) 0.1319(2)
O4 O 0.1402(3) -0.0998(2) 0.2197(2)
C1 C 0.1389(3) 0.0401(3) 0.2782(3)
C2 C 0.1385(3) -0.0252(3) 0.2046(3)
O2H O -0.0148(2) -0.1498(2) 0.3633(3)
C1H C -0.0401(3) -0.2218(3) 0.3611(3)
O1H O -0.1165(2) -0.2455(2) 0.3600(2)
Cr1H Cr -0.13195(5) -0.36805(5) 0.36805(5)
O3H O -0.0084(2) -0.3681(2) 0.3640(2)
C2H C 0.0252(3) -0.2954(3) 0.3615(3)
O4H O 0.0998(2) -0.2803(2) 0.3598(3)
O2J O 0.1498(2) -0.1367(3) 0.5148(2)
O1A O 0.2545(2) 0.1400(2) 0.1165(2)
O1B O 0.1165(2) 0.2545(2) 0.1400(2)
O3A O 0.1319(2) 0.1360(2) 0.0084(2)
O3B O 0.0084(2) 0.1319(2) 0.1360(2)
O4J O 0.2803(2) -0.1402(3) 0.4002(2)
C1A C 0.2782(3) 0.1389(3) 0.0401(3)
C2A C 0.2046(3) 0.1385(3) -0.0252(3)
O2A O 0.3502(2) 0.1367(3) 0.0148(2)
O4A O 0.2197(2) 0.1402(3) -0.0998(2)
Na1A Na 0.3663(1) 0.1337(1) -0.1337(1)
P1 P 0.34311(9) 0.34311(9) 0.34311(9)
C3 C 0.3799(2) 0.3497(2) 0.2376(2)
C4 C 0.4644(3) 0.3676(3) 0.2248(2)
C5 C 0.4952(3) 0.3707(3) 0.1433(3)
C6 C 0.4424(3) 0.3562(3) 0.0764(3)
C7 C 0.3588(3) 0.3385(2) 0.0891(2)
C8 C 0.3266(2) 0.3351(2) 0.1700(3)
C9 C 0.4082(3) 0.4082(3) 0.4082(3)
H1 H 0.50248 0.37804 0.27353
H2 H 0.55570 0.38347 0.13313
H3 H 0.46507 0.35860 0.01796
H4 H 0.32125 0.32816 0.04000
H5 H 0.26594 0.32224 0.17957
H6 H 0.38824 0.40509 0.46756
H7 H 0.46756 0.38824 0.40509
H8 H 0.40509 0.46756 0.38824
C3A C 0.2376(2) 0.3799(2) 0.3497(2)
C4A C 0.2248(2) 0.4644(3) 0.3676(3)
C5A C 0.1433(3) 0.4952(3) 0.3707(3)
C6A C 0.0764(3) 0.4424(3) 0.3562(3)
C7A C 0.0891(2) 0.3588(3) 0.3385(2)
C8A C 0.1700(3) 0.3266(2) 0.3351(2)
H5A H 0.17957 0.26594 0.32224
H4A H 0.04000 0.32125 0.32816
H3A H 0.01796 0.46507 0.35860
H2A H 0.13313 0.55570 0.38347
H1A H 0.27353 0.50248 0.37804
C3B C 0.3497(2) 0.2376(2) 0.3799(2)
C4B C 0.3676(3) 0.2248(2) 0.4644(3)
C5B C 0.3707(3) 0.1433(3) 0.4952(3)
C6B C 0.3562(3) 0.0764(3) 0.4424(3)
C7B C 0.3385(2) 0.0891(2) 0.3588(3)
C8B C 0.3351(2) 0.1700(3) 0.3266(2)
H5B H 0.32224 0.17957 0.26594
H4B H 0.32816 0.04000 0.32125
H3B H 0.35860 0.01796 0.46507
H2B H 0.38347 0.13313 0.55570
H1B H 0.37804 0.27353 0.50248
P2 P 0.84130(9) 0.84130(9) 0.84130(9)
C10 C 0.8788(2) 0.8475(2) 0.7362(2)
C11 C 0.9641(3) 0.8622(3) 0.7242(3)
C12 C 0.9955(3) 0.8651(3) 0.6429(3)
C13 C 0.9427(3) 0.8535(3) 0.5755(3)
C14 C 0.8584(4) 0.8390(2) 0.5874(3)
C15 C 0.8254(3) 0.8358(2) 0.6681(3)
C16 C 0.9067(4) 0.9067(4) 0.9067(4)
H9 H 1.00213 0.87058 0.77331
H10 H 1.05654 0.87564 0.63335
H11 H 0.96584 0.85573 0.51727
H12 H 0.82078 0.83066 0.53796
H13 H 0.76429 0.82520 0.67708
H14 H 0.88643 0.90391 0.96595
H15 H 0.96595 0.88643 0.90391
H16 H 0.90391 0.96595 0.88643
C10A C 0.7362(2) 0.8788(2) 0.8475(2)
C11A C 0.7242(3) 0.9641(3) 0.8622(3)
C12A C 0.6429(3) 0.9955(3) 0.8651(3)
C13A C 0.5755(3) 0.9427(3) 0.8535(3)
C14A C 0.5874(3) 0.8584(4) 0.8390(2)
C15A C 0.6681(3) 0.8254(3) 0.8358(2)
H13A H 0.67708 0.76429 0.82520
H12A H 0.53796 0.82078 0.83066
H11A H 0.51727 0.96584 0.85573
H10A H 0.63335 1.05654 0.87564
H9A H 0.77331 1.00213 0.87058
C10B C 0.8475(2) 0.7362(2) 0.8788(2)
C11B C 0.8622(3) 0.7242(3) 0.9641(3)
C12B C 0.8651(3) 0.6429(3) 0.9955(3)
C13B C 0.8535(3) 0.5755(3) 0.9427(3)
C14B C 0.8390(2) 0.5874(3) 0.8584(4)
C15B C 0.8358(2) 0.6681(3) 0.8254(3)
H13B H 0.82520 0.67708 0.76429
H12B H 0.83066 0.53796 0.82078
H11B H 0.85573 0.51727 0.96584
H10B H 0.87564 0.63335 1.05654
H9B H 0.87058 0.77331 1.00213
loop_
_geom_bond_atom_site_label_1
_geom_bond_atom_site_label_2
_geom_bond_site_symmetry_1
_geom_bond_site_symmetry_2
Cr1 O1 1_555 1_555
Na1 O2 1_555 1_555
O1 C1 1_555 1_555
O2 C1 1_555 1_555
O3 Cr1 1_555 1_555
O4 Na1 1_555 1_555
C1 C2 1_555 1_555
C2 O3 1_555 1_555
P1 C3 1_555 1_555
C3 C4 1_555 1_555
C4 C5 1_555 1_555
C5 C6 1_555 1_555
C6 C7 1_555 1_555
C7 C8 1_555 1_555
C8 C3 1_555 1_555
C9 P1 1_555 1_555
P2 C10 1_555 1_555
C10 C11 1_555 1_555
C11 C12 1_555 1_555
C12 C13 1_555 1_555
C13 C14 1_555 1_555
C14 C15 1_555 1_555
C15 C10 1_555 1_555
C16 P2 1_555 1_555
H1 C4 1_555 1_555
H2 C5 1_555 1_555
H3 C6 1_555 1_555
H4 C7 1_555 1_555
H5 C8 1_555 1_555
H6 C9 1_555 1_555
H7 C9 1_555 1_555
H8 C9 1_555 1_555
H9 C11 1_555 1_555
H10 C12 1_555 1_555
H11 C13 1_555 1_555
H12 C14 1_555 1_555
H13 C15 1_555 1_555
H14 C16 1_555 1_555
H15 C16 1_555 1_555
H16 C16 1_555 1_555
O2H Na1 1_555 1_555
C1H O2H 1_555 1_555
O1H C1H 1_555 1_555
Cr1H O1H 1_555 1_555
O3H Cr1H 1_555 1_555
C2H C1H 1_555 1_555
O4H Na1 1_555 1_555
O2J Na1 1_555 1_555
O1A Cr1 1_555 1_555
O1B Cr1 1_555 1_555
O3A Cr1 1_555 1_555
O3B Cr1 1_555 1_555
O4J Na1 1_555 1_555
C3A P1 1_555 1_555
C4A C3A 1_555 1_555
C5A C4A 1_555 1_555
C6A C5A 1_555 1_555
C7A C6A 1_555 1_555
C8A C3A 1_555 1_555
H5A C8A 1_555 1_555
H4A C7A 1_555 1_555
H3A C6A 1_555 1_555
H2A C5A 1_555 1_555
H1A C4A 1_555 1_555
C3B P1 1_555 1_555
C4B C3B 1_555 1_555
C5B C4B 1_555 1_555
C6B C5B 1_555 1_555
C7B C6B 1_555 1_555
C8B C3B 1_555 1_555
H5B C8B 1_555 1_555
H4B C7B 1_555 1_555
H3B C6B 1_555 1_555
H2B C5B 1_555 1_555
H1B C4B 1_555 1_555
C10A P2 1_555 1_555
C11A C10A 1_555 1_555
C12A C11A 1_555 1_555
C13A C12A 1_555 1_555
C14A C13A 1_555 1_555
C15A C10A 1_555 1_555
H13A C15A 1_555 1_555
H12A C14A 1_555 1_555
H11A C13A 1_555 1_555
H10A C12A 1_555 1_555
H9A C11A 1_555 1_555
C10B P2 1_555 1_555
C11B C10B 1_555 1_555
C12B C11B 1_555 1_555
C13B C12B 1_555 1_555
C14B C13B 1_555 1_555
C15B C10B 1_555 1_555
H13B C15B 1_555 1_555
H12B C14B 1_555 1_555
H11B C13B 1_555 1_555
H10B C12B 1_555 1_555
H9B C11B 1_555 1_555
C1A O1A 1_555 1_555
C2A O3A 1_555 1_555
O2A C1A 1_555 1_555
O4A C2A 1_555 1_555
Na1A O2A 1_555 1_555
O4 C2 1_555 1_555
O3H C2H 1_555 1_555
C2H O4H 1_555 1_555
C7A C8A 1_555 1_555
C7B C8B 1_555 1_555
C14A C15A 1_555 1_555
C14B C15B 1_555 1_555
C1A C2A 1_555 1_555
O4A Na1A 1_555 1_555

#END
