
#######################################################################
#
#                 Cambridge Crystallographic Data Centre
#                                CCDC 
#
#######################################################################
#
# If this CIF has been generated from an entry in the Cambridge 
# Structural Database, then it will include bibliographic, chemical, 
# crystal, experimental, refinement or atomic coordinate data resulting 
# from the CCDC's data processing and validation procedures.
#
#######################################################################

data_LIRJOM
_symmetry_cell_setting           monoclinic
_symmetry_space_group_name_H-M   'P 21'
_symmetry_Int_Tables_number      4
_space_group_name_Hall           'P 2yb'
loop_
_symmetry_equiv_pos_site_id
_symmetry_equiv_pos_as_xyz
1 x,y,z
2 -x,1/2+y,-z
_cell_length_a                   20.780(2)
_cell_length_b                   15.006(3)
_cell_length_c                   23.042(2)
_cell_angle_alpha                90
_cell_angle_beta                 96.081(4)
_cell_angle_gamma                90
_cell_volume                     7144.63
loop_
_atom_site_label
_atom_site_type_symbol
_atom_site_fract_x
_atom_site_fract_y
_atom_site_fract_z
Ag1 Ag 0.52769(5) 0.56087(9) 0.15049(4)
Ag2 Ag 0.03964(5) 0.61143(10) 0.65332(4)
S1 S 0.38743(11) 0.80732(15) 0.49979(11)
C1 C 0.4237(4) 0.7046(6) 0.4806(4)
C2 C 0.3960(4) 0.6214(6) 0.4896(4)
C3 C 0.4310(4) 0.5442(6) 0.4807(4)
C4 C 0.4941(4) 0.5531(7) 0.4627(4)
H1 H 0.5177 0.5007 0.4558
C5 C 0.5219(5) 0.6340(6) 0.4551(5)
C6 C 0.4854(4) 0.7108(6) 0.4642(4)
H2 H 0.5037 0.7679 0.4590
O1 O 0.3369(3) 0.6171(5) 0.5098(2)
C7 C 0.3394(5) 0.6114(10) 0.5713(4)
H3 H 0.3674 0.6589 0.5899
H4 H 0.3569 0.5529 0.5851
C8 C 0.2711(5) 0.6223(7) 0.5862(4)
H5 H 0.2549 0.6821 0.5736
H6 H 0.2431 0.5772 0.5648
C9 C 0.2677(5) 0.6119(10) 0.6504(5)
H7 H 0.2970 0.6556 0.6718
H8 H 0.2824 0.5514 0.6627
C10 C 0.1980(6) 0.6267(9) 0.6656(5)
N1 N 0.1499(5) 0.6294(10) 0.6735(5)
C11 C 0.5918(5) 0.6446(7) 0.4405(6)
C12 C 0.6326(5) 0.6881(10) 0.4966(5)
H9 H 0.6211 0.7512 0.4993
H10 H 0.6789 0.6828 0.4928
H11 H 0.6225 0.6569 0.5319
C13 C 0.6219(8) 0.5536(11) 0.4297(11)
H12 H 0.6077 0.5101 0.4574
H13 H 0.6692 0.5585 0.4351
H14 H 0.6079 0.5341 0.3898
C14 C 0.5974(6) 0.7107(10) 0.3914(5)
H15 H 0.5809 0.6835 0.3542
H16 H 0.6429 0.7272 0.3904
H17 H 0.5721 0.7641 0.3981
S2 S 0.40758(11) 0.43652(15) 0.49849(12)
C15 C 0.3247(4) 0.4251(6) 0.4711(4)
C16 C 0.3041(4) 0.4329(5) 0.4123(3)
C17 C 0.2395(4) 0.4157(5) 0.3928(3)
C18 C 0.1965(4) 0.3898(6) 0.4318(4)
H18 H 0.1522 0.3808 0.4182
C19 C 0.2179(4) 0.3765(6) 0.4917(4)
C20 C 0.2819(4) 0.3965(6) 0.5101(4)
H19 H 0.2971 0.3906 0.5503
O2 O 0.3463(3) 0.4599(4) 0.3726(3)
C21 C 0.3813(5) 0.3861(7) 0.3491(5)
H20 H 0.3506 0.3396 0.3332
H21 H 0.4117 0.3592 0.3802
C22 C 0.4185(5) 0.4237(8) 0.3007(5)
H22 H 0.3879 0.4531 0.2709
H23 H 0.4497 0.4691 0.3174
C23 C 0.4549(5) 0.3505(8) 0.2719(5)
H24 H 0.4920 0.3300 0.2992
H25 H 0.4258 0.2991 0.2626
C24 C 0.4784(7) 0.3839(10) 0.2184(7)
N2 N 0.4993(5) 0.4194(8) 0.1810(5)
C25 C 0.1716(8) 0.3422(11) 0.5352(7)
C26 C 0.1670(7) 0.4140(10) 0.5820(7)
H26 H 0.1988 0.4017 0.6155
H27 H 0.1234 0.4137 0.5946
H28 H 0.1757 0.4726 0.5657
C27 C 0.1929(7) 0.2569(10) 0.5603(7)
H29 H 0.1947 0.2130 0.5290
H30 H 0.1623 0.2367 0.5871
H31 H 0.2360 0.2636 0.5817
C28 C 0.1017(7) 0.3267(11) 0.5026(7)
H32 H 0.1051 0.2940 0.4662
H33 H 0.0808 0.3844 0.4936
H34 H 0.0757 0.2921 0.5276
S3 S 0.21038(12) 0.41628(14) 0.31808(10)
C29 C 0.2293(4) 0.5219(6) 0.2895(4)
C30 C 0.2149(4) 0.6022(6) 0.3164(3)
C31 C 0.2241(4) 0.6817(6) 0.2878(4)
C32 C 0.2432(4) 0.6810(6) 0.2307(4)
H35 H 0.2470 0.7357 0.2105
C33 C 0.2563(4) 0.6018(7) 0.2040(3)
C34 C 0.2499(4) 0.5224(6) 0.2352(4)
H36 H 0.2601 0.4675 0.2179
O3 O 0.1957(3) 0.6026(4) 0.3722(2)
C35 C 0.1275(5) 0.6002(8) 0.3738(4)
H37 H 0.1092 0.5443 0.3562
H38 H 0.1066 0.6514 0.3523
C36 C 0.1173(5) 0.6050(8) 0.4381(4)
H39 H 0.1407 0.5551 0.4591
H40 H 0.1358 0.6614 0.4547
C37 C 0.0473(5) 0.6002(11) 0.4474(5)
H41 H 0.0238 0.6481 0.4245
H42 H 0.0296 0.5424 0.4324
C38 C 0.0353(6) 0.6090(10) 0.5078(5)
N3 N 0.0270(5) 0.6094(9) 0.5560(4)
C39 C 0.2768(5) 0.5971(6) 0.1413(4)
C40 C 0.3438(5) 0.5456(9) 0.1424(5)
H43 H 0.3593 0.5487 0.1037
H44 H 0.3377 0.4831 0.1529
H45 H 0.3757 0.5732 0.1713
C41 C 0.2813(8) 0.6883(8) 0.1156(5)
H46 H 0.2380 0.7148 0.1095
H47 H 0.2994 0.6840 0.0781
H48 H 0.3094 0.7258 0.1424
C42 C 0.2259(5) 0.5391(7) 0.1035(4)
H49 H 0.1827 0.5649 0.1047
H50 H 0.2264 0.4783 0.1191
H51 H 0.2365 0.5377 0.0631
S4 S 0.19767(12) 0.78671(15) 0.31128(9)
C43 C 0.2229(4) 0.7972(5) 0.3879(4)
C44 C 0.2864(4) 0.7857(6) 0.4099(4)
C45 C 0.3051(4) 0.8080(5) 0.4683(4)
C46 C 0.2591(4) 0.8402(6) 0.5020(4)
H52 H 0.2716 0.8526 0.5421
C47 C 0.1955(4) 0.8551(5) 0.4800(4)
C48 C 0.1777(4) 0.8305(5) 0.4228(4)
H53 H 0.1338 0.8365 0.4070
O4 O 0.3306(3) 0.7502(4) 0.3746(3)
C49 C 0.3681(6) 0.8183(7) 0.3484(6)
H54 H 0.4000 0.8457 0.3781
H55 H 0.3395 0.8656 0.3303
C50 C 0.4020(6) 0.7702(8) 0.3027(5)
H56 H 0.3737 0.7732 0.2654
H57 H 0.4420 0.8037 0.2972
C51 C 0.4197(7) 0.6779(10) 0.3132(5)
H58 H 0.3799 0.6417 0.3132
H59 H 0.4444 0.6725 0.3522
C52 C 0.4596(5) 0.6421(8) 0.2683(5)
N4 N 0.4882(4) 0.6162(8) 0.2317(4)
C53 C 0.1471(5) 0.8927(7) 0.5199(4)
C54 C 0.1439(6) 0.8266(10) 0.5711(5)
H60 H 0.1151 0.8504 0.5984
H61 H 0.1874 0.8185 0.5914
H62 H 0.1273 0.7692 0.5559
C55 C 0.0785(5) 0.8966(9) 0.4884(6)
H63 H 0.0778 0.9371 0.4550
H64 H 0.0486 0.9182 0.5153
H65 H 0.0654 0.8368 0.4746
C56 C 0.1692(7) 0.9837(8) 0.5407(6)
H66 H 0.1892 1.0144 0.5096
H67 H 0.2009 0.9779 0.5751
H68 H 0.1319 1.0182 0.5509
S5 S 0.69602(11) 0.41956(15) -0.16766(9)
C57 C 0.7302(4) 0.4212(6) -0.0928(4)
C58 C 0.7956(4) 0.4373(6) -0.0777(3)
C59 C 0.8205(4) 0.4251(6) -0.0200(4)
C60 C 0.7812(4) 0.3941(5) 0.0209(3)
H69 H 0.7992 0.3871 0.0603
C61 C 0.7158(4) 0.3730(5) 0.0058(4)
C62 C 0.6921(4) 0.3876(6) -0.0518(4)
H70 H 0.6480 0.3740 -0.0638
O5 O 0.8334(3) 0.4715(4) -0.1179(3)
C63 C 0.8698(4) 0.4067(7) -0.1471(5)
H71 H 0.8404 0.3652 -0.1704
H72 H 0.8985 0.3719 -0.1185
C64 C 0.9088(5) 0.4602(9) -0.1860(5)
H73 H 0.9367 0.5027 -0.1620
H74 H 0.8793 0.4949 -0.2139
C65 C 0.9515(6) 0.3993(9) -0.2199(5)
H75 H 0.9833 0.3673 -0.1925
H76 H 0.9243 0.3547 -0.2427
C66 C 0.9854(6) 0.4560(10) -0.2595(5)
N5 N 1.0068(6) 0.5055(10) -0.2910(5)
C67 C 0.6722(7) 0.3384(9) 0.0502(5)
C68 C 0.6614(7) 0.2386(9) 0.0400(5)
H77 H 0.6319 0.2295 0.0045
H78 H 0.6426 0.2126 0.0734
H79 H 0.7029 0.2097 0.0357
C69 C 0.6070(6) 0.3938(9) 0.0478(5)
H80 H 0.6166 0.4546 0.0615
H81 H 0.5777 0.3654 0.0730
H82 H 0.5863 0.3955 0.0076
C70 C 0.7066(6) 0.3400(9) 0.1124(5)
H83 H 0.7456 0.3031 0.1143
H84 H 0.6775 0.3166 0.1396
H85 H 0.7186 0.4015 0.1232
S6 S 0.90427(11) 0.43711(16) 0.00343(11)
C71 C 0.9281(4) 0.5425(6) -0.0204(4)
C72 C 0.8955(4) 0.6208(7) -0.0096(4)
C73 C 0.9232(4) 0.7038(6) -0.0226(4)
C74 C 0.9837(4) 0.7054(6) -0.0427(4)
H86 H 1.0030 0.7615 -0.0489
C75 C 1.0178(4) 0.6277(6) -0.0543(4)
C76 C 0.9893(4) 0.5466(6) -0.0410(4)
H87 H 1.0121 0.4928 -0.0461
O6 O 0.8362(3) 0.6206(4) 0.0088(3)
C77 C 0.8377(5) 0.6229(9) 0.0725(5)
H88 H 0.8576 0.6786 0.0890
H89 H 0.8613 0.5711 0.0909
C78 C 0.7639(6) 0.6184(10) 0.0798(6)
H90 H 0.7409 0.6687 0.0590
H91 H 0.7452 0.5620 0.0634
C79 C 0.7566(7) 0.6236(13) 0.1438(7)
H92 H 0.7734 0.6813 0.1597
H93 H 0.7815 0.5751 0.1649
C80 C 0.6856(7) 0.6149(10) 0.1518(6)
N6 N 0.6332(5) 0.6054(9) 0.1541(5)
C81 C 1.0834(7) 0.6312(12) -0.0757(8)
C82 C 1.1151(7) 0.5442(12) -0.0805(8)
H94 H 1.0852 0.5031 -0.1026
H95 H 1.1274 0.5201 -0.0414
H96 H 1.1539 0.5516 -0.1008
C83 C 1.1292(7) 0.6797(12) -0.0237(8)
H97 H 1.1737 0.6821 -0.0340
H98 H 1.1281 0.6459 0.0126
H99 H 1.1134 0.7404 -0.0183
C84 C 1.0830(7) 0.6918(11) -0.1252(8)
H100 H 1.1270 0.6973 -0.1366
H101 H 1.0676 0.7505 -0.1142
H102 H 1.0542 0.6684 -0.1581
S7 S 0.89176(11) 0.80770(16) -0.00200(12)
C85 C 0.8085(4) 0.8102(6) -0.0288(4)
C86 C 0.7854(4) 0.7858(5) -0.0865(4)
C87 C 0.7219(4) 0.7988(6) -0.1052(4)
C88 C 0.6777(5) 0.8329(6) -0.0673(4)
H103 H 0.6332 0.8395 -0.0810
C89 C 0.6997(4) 0.8563(5) -0.0104(4)
C90 C 0.7660(4) 0.8453(6) 0.0079(4)
H104 H 0.7822 0.8623 0.0465
O7 O 0.8266(3) 0.7507(4) -0.1228(3)
C91 C 0.8603(6) 0.8146(9) -0.1530(5)
H105 H 0.8899 0.8500 -0.1255
H106 H 0.8298 0.8554 -0.1757
C92 C 0.8993(5) 0.7580(9) -0.1945(5)
H107 H 0.9288 0.7163 -0.1715
H108 H 0.8694 0.7231 -0.2220
C93 C 0.9375(5) 0.8231(11) -0.2275(6)
H109 H 0.9717 0.8513 -0.2004
H110 H 0.9086 0.8705 -0.2450
C94 C 0.9683(7) 0.7723(11) -0.2758(6)
N7 N 0.9912(7) 0.7346(11) -0.3081(6)
C95 C 0.6543(5) 0.8938(6) 0.0326(4)
C96 C 0.6597(6) 0.8349(10) 0.0876(5)
H111 H 0.6320 0.8591 0.1157
H112 H 0.7047 0.8339 0.1053
H113 H 0.6458 0.7741 0.0770
C97 C 0.5848(6) 0.8920(9) 0.0042(5)
H114 H 0.5808 0.9306 -0.0304
H115 H 0.5558 0.9134 0.0320
H116 H 0.5730 0.8308 -0.0075
C98 C 0.6702(9) 0.9944(9) 0.0428(8)
H117 H 0.6696 1.0248 0.0050
H118 H 0.7132 1.0005 0.0644
H119 H 0.6378 1.0214 0.0653
S8 S 0.68960(12) 0.78810(15) -0.17884(10)
C99 C 0.7120(4) 0.6826(6) -0.2030(4)
C100 C 0.7015(4) 0.6054(7) -0.1728(3)
C101 C 0.7166(4) 0.5209(6) -0.1983(4)
C102 C 0.7411(4) 0.5196(6) -0.2521(3)
H120 H 0.7516 0.4637 -0.2681
C103 C 0.7511(4) 0.5981(6) -0.2841(3)
C104 C 0.7368(4) 0.6776(6) -0.2572(4)
H121 H 0.7442 0.7318 -0.2767
O8 O 0.6800(3) 0.6058(4) -0.1186(2)
C105 C 0.6105(4) 0.6068(8) -0.1201(4)
H122 H 0.5915 0.5529 -0.1399
H123 H 0.5922 0.6601 -0.1412
C106 C 0.5963(5) 0.6089(8) -0.0569(4)
H124 H 0.6163 0.5563 -0.0363
H125 H 0.6159 0.6630 -0.0378
C107 C 0.5245(5) 0.6088(10) -0.0518(4)
H126 H 0.5052 0.6633 -0.0706
H127 H 0.5047 0.5568 -0.0733
C108 C 0.5089(6) 0.6053(9) 0.0081(5)
N8 N 0.5018(5) 0.5968(7) 0.0555(4)
C109 C 0.7752(5) 0.5917(6) -0.3442(4)
C110 C 0.7809(6) 0.6862(7) -0.3726(4)
H128 H 0.8129 0.7218 -0.3484
H129 H 0.7387 0.7161 -0.3752
H130 H 0.7945 0.6795 -0.4118
C111 C 0.7272(6) 0.5356(7) -0.3840(4)
H131 H 0.7476 0.5164 -0.4183
H132 H 0.6887 0.5713 -0.3965
H133 H 0.7145 0.4831 -0.3625
C112 C 0.8416(5) 0.5477(8) -0.3398(5)
H134 H 0.8720 0.5820 -0.3131
H135 H 0.8572 0.5459 -0.3785
H136 H 0.8384 0.4868 -0.3249
Ag2_2 Ag 1.03964(5) 0.61143(10) -0.34668(4)
N5_2 N 0.0068(6) 0.5055(10) 0.7090(5)
N7_2 N -0.0088(7) 0.7346(11) 0.6919(6)
B1 B 0.0401(15) 0.252(2) 0.6784(15)
F1 F -0.0204(6) 0.2759(9) 0.6461(5)
F2 F 0.0761(6) 0.3264(9) 0.6770(6)
F3 F 0.0642(6) 0.1754(10) 0.6527(6)
F4 F 0.0350(6) 0.2388(9) 0.7351(6)
B2 B 0.4077(9) 0.6605(14) 0.7866(9)
F5 F 0.4039(7) 0.5804(9) 0.7568(7)
F6 F 0.4426(7) 0.7157(10) 0.7550(7)
F7 F 0.3443(6) 0.6888(11) 0.7863(7)
F8 F 0.4329(7) 0.6577(11) 0.8419(6)
C113 C 0.0218(11) 0.6068(18) 0.1618(8)
H137 H -0.0181 0.6054 0.1826
Cl1 Cl 0.0181(3) 0.7030(5) 0.1134(2)
Cl2 Cl 0.0228(3) 0.5137(5) 0.1176(2)
Cl3 Cl 0.0865(3) 0.6069(5) 0.2109(2)
C114 C 0.8240(12) 0.8692(18) 0.2336(9)
H138 H 0.8594 0.8793 0.2658
Cl4 Cl 0.8518(3) 0.8422(5) 0.1711(2)
Cl5 Cl 0.7696(3) 0.9733(5) 0.2177(2)
Cl6 Cl 0.7623(3) 0.7968(5) 0.2544(2)
C115 C 0.3312(9) 0.8640(12) 0.7171(7)
H139 H 0.3567 0.8274 0.7476
Cl7 Cl 0.3619(2) 0.8414(3) 0.65027(15)
Cl8 Cl 0.2547(3) 0.8394(7) 0.7196(3)
Cl9 Cl 0.3488(3) 0.9803(7) 0.7342(3)
C116 C 0.5145(6) 0.5790(9) 0.6683(5)
H140 H 0.4778 0.5971 0.6907
Cl10 Cl 0.5212(2) 0.6636(4) 0.61602(15)
Cl11 Cl 0.4925(2) 0.4769(4) 0.63627(16)
Cl12 Cl 0.58046(19) 0.5723(5) 0.71772(17)
C117 C 0.8999(12) 0.4968(14) 0.2541(9)
H141 H 0.8616 0.4996 0.2770
C118 C 0.8830(8) 0.4221(13) 0.2117(8)
H142 H 0.8360 0.4196 0.2021
H143 H 0.8984 0.3655 0.2293
H144 H 0.9038 0.4325 0.1760
C119 C 0.9565(12) 0.471(2) 0.3009(12)
H145 H 0.9897 0.4387 0.2822
H146 H 0.9399 0.4328 0.3305
H147 H 0.9753 0.5250 0.3195
O9 O 0.8962(6) 0.5702(11) 0.2253(6)
H148 H 0.8748 0.6076 0.2425
C120 C 0.4953(9) 0.3877(11) 0.8092(8)
H149 H 0.5291 0.4147 0.7868
C121 C 0.4362(8) 0.3455(13) 0.7720(9)
H150 H 0.4125 0.3071 0.7968
H151 H 0.4513 0.3101 0.7404
H152 H 0.4074 0.3929 0.7554
C122 C 0.5188(9) 0.3099(11) 0.8527(8)
H153 H 0.4919 0.2570 0.8437
H154 H 0.5150 0.3289 0.8928
H155 H 0.5640 0.2955 0.8484
O10 O 0.4659(6) 0.4502(9) 0.8535(6)
H156 H 0.4877 0.4460 0.8863
loop_
_geom_bond_atom_site_label_1
_geom_bond_atom_site_label_2
_geom_bond_site_symmetry_1
_geom_bond_site_symmetry_2
Ag1 N2 1_555 1_555
Ag2 N1 1_555 1_555
S1 C1 1_555 1_555
C1 C2 1_555 1_555
C2 C3 1_555 1_555
C3 C4 1_555 1_555
C4 H1 1_555 1_555
C5 C4 1_555 1_555
C6 C1 1_555 1_555
H2 C6 1_555 1_555
O1 C2 1_555 1_555
C7 O1 1_555 1_555
H3 C7 1_555 1_555
H4 C7 1_555 1_555
C8 C7 1_555 1_555
H5 C8 1_555 1_555
H6 C8 1_555 1_555
C9 C8 1_555 1_555
H7 C9 1_555 1_555
H8 C9 1_555 1_555
C10 C9 1_555 1_555
N1 C10 1_555 1_555
C11 C5 1_555 1_555
C12 C11 1_555 1_555
H9 C12 1_555 1_555
H10 C12 1_555 1_555
H11 C12 1_555 1_555
C13 C11 1_555 1_555
H12 C13 1_555 1_555
H13 C13 1_555 1_555
H14 C13 1_555 1_555
C14 C11 1_555 1_555
H15 C14 1_555 1_555
H16 C14 1_555 1_555
H17 C14 1_555 1_555
S2 C3 1_555 1_555
C15 S2 1_555 1_555
C16 C15 1_555 1_555
C17 C16 1_555 1_555
C18 C17 1_555 1_555
H18 C18 1_555 1_555
C19 C18 1_555 1_555
C20 C15 1_555 1_555
H19 C20 1_555 1_555
O2 C16 1_555 1_555
C21 O2 1_555 1_555
H20 C21 1_555 1_555
H21 C21 1_555 1_555
C22 C21 1_555 1_555
H22 C22 1_555 1_555
H23 C22 1_555 1_555
C23 C22 1_555 1_555
H24 C23 1_555 1_555
H25 C23 1_555 1_555
C24 C23 1_555 1_555
N2 C24 1_555 1_555
C25 C19 1_555 1_555
C26 C25 1_555 1_555
H26 C26 1_555 1_555
H27 C26 1_555 1_555
H28 C26 1_555 1_555
C27 C25 1_555 1_555
H29 C27 1_555 1_555
H30 C27 1_555 1_555
H31 C27 1_555 1_555
C28 C25 1_555 1_555
H32 C28 1_555 1_555
H33 C28 1_555 1_555
H34 C28 1_555 1_555
S3 C17 1_555 1_555
C29 S3 1_555 1_555
C30 C29 1_555 1_555
C31 C30 1_555 1_555
C32 C31 1_555 1_555
H35 C32 1_555 1_555
C33 C32 1_555 1_555
C34 C29 1_555 1_555
H36 C34 1_555 1_555
O3 C30 1_555 1_555
C35 O3 1_555 1_555
H37 C35 1_555 1_555
H38 C35 1_555 1_555
C36 C35 1_555 1_555
H39 C36 1_555 1_555
H40 C36 1_555 1_555
C37 C36 1_555 1_555
H41 C37 1_555 1_555
H42 C37 1_555 1_555
C38 C37 1_555 1_555
N3 Ag2 1_555 1_555
C39 C33 1_555 1_555
C40 C39 1_555 1_555
H43 C40 1_555 1_555
H44 C40 1_555 1_555
H45 C40 1_555 1_555
C41 C39 1_555 1_555
H46 C41 1_555 1_555
H47 C41 1_555 1_555
H48 C41 1_555 1_555
C42 C39 1_555 1_555
H49 C42 1_555 1_555
H50 C42 1_555 1_555
H51 C42 1_555 1_555
S4 C31 1_555 1_555
C43 S4 1_555 1_555
C44 C43 1_555 1_555
C45 S1 1_555 1_555
C46 C45 1_555 1_555
H52 C46 1_555 1_555
C47 C46 1_555 1_555
C48 C43 1_555 1_555
H53 C48 1_555 1_555
O4 C44 1_555 1_555
C49 O4 1_555 1_555
H54 C49 1_555 1_555
H55 C49 1_555 1_555
C50 C49 1_555 1_555
H56 C50 1_555 1_555
H57 C50 1_555 1_555
C51 C50 1_555 1_555
H58 C51 1_555 1_555
H59 C51 1_555 1_555
C52 C51 1_555 1_555
N4 Ag1 1_555 1_555
C53 C47 1_555 1_555
C54 C53 1_555 1_555
H60 C54 1_555 1_555
H61 C54 1_555 1_555
H62 C54 1_555 1_555
C55 C53 1_555 1_555
H63 C55 1_555 1_555
H64 C55 1_555 1_555
H65 C55 1_555 1_555
C56 C53 1_555 1_555
H66 C56 1_555 1_555
H67 C56 1_555 1_555
H68 C56 1_555 1_555
S5 C57 1_555 1_555
C57 C58 1_555 1_555
C58 C59 1_555 1_555
C59 C60 1_555 1_555
C60 H69 1_555 1_555
C61 C60 1_555 1_555
C62 C57 1_555 1_555
H70 C62 1_555 1_555
O5 C58 1_555 1_555
C63 O5 1_555 1_555
H71 C63 1_555 1_555
H72 C63 1_555 1_555
C64 C63 1_555 1_555
H73 C64 1_555 1_555
H74 C64 1_555 1_555
C65 C64 1_555 1_555
H75 C65 1_555 1_555
H76 C65 1_555 1_555
C66 C65 1_555 1_555
N5 C66 1_555 1_555
C67 C61 1_555 1_555
C68 C67 1_555 1_555
H77 C68 1_555 1_555
H78 C68 1_555 1_555
H79 C68 1_555 1_555
C69 C67 1_555 1_555
H80 C69 1_555 1_555
H81 C69 1_555 1_555
H82 C69 1_555 1_555
C70 C67 1_555 1_555
H83 C70 1_555 1_555
H84 C70 1_555 1_555
H85 C70 1_555 1_555
S6 C59 1_555 1_555
C71 S6 1_555 1_555
C72 C71 1_555 1_555
C73 C72 1_555 1_555
C74 C73 1_555 1_555
H86 C74 1_555 1_555
C75 C74 1_555 1_555
C76 C71 1_555 1_555
H87 C76 1_555 1_555
O6 C72 1_555 1_555
C77 O6 1_555 1_555
H88 C77 1_555 1_555
H89 C77 1_555 1_555
C78 C77 1_555 1_555
H90 C78 1_555 1_555
H91 C78 1_555 1_555
C79 C78 1_555 1_555
H92 C79 1_555 1_555
H93 C79 1_555 1_555
C80 C79 1_555 1_555
N6 Ag1 1_555 1_555
C81 C75 1_555 1_555
C82 C81 1_555 1_555
H94 C82 1_555 1_555
H95 C82 1_555 1_555
H96 C82 1_555 1_555
C83 C81 1_555 1_555
H97 C83 1_555 1_555
H98 C83 1_555 1_555
H99 C83 1_555 1_555
C84 C81 1_555 1_555
H100 C84 1_555 1_555
H101 C84 1_555 1_555
H102 C84 1_555 1_555
S7 C73 1_555 1_555
C85 S7 1_555 1_555
C86 C85 1_555 1_555
C87 C86 1_555 1_555
C88 C87 1_555 1_555
H103 C88 1_555 1_555
C89 C88 1_555 1_555
C90 C85 1_555 1_555
H104 C90 1_555 1_555
O7 C86 1_555 1_555
C91 O7 1_555 1_555
H105 C91 1_555 1_555
H106 C91 1_555 1_555
C92 C91 1_555 1_555
H107 C92 1_555 1_555
H108 C92 1_555 1_555
C93 C92 1_555 1_555
H109 C93 1_555 1_555
H110 C93 1_555 1_555
C94 C93 1_555 1_555
N7 C94 1_555 1_555
C95 C89 1_555 1_555
C96 C95 1_555 1_555
H111 C96 1_555 1_555
H112 C96 1_555 1_555
H113 C96 1_555 1_555
C97 C95 1_555 1_555
H114 C97 1_555 1_555
H115 C97 1_555 1_555
H116 C97 1_555 1_555
C98 C95 1_555 1_555
H117 C98 1_555 1_555
H118 C98 1_555 1_555
H119 C98 1_555 1_555
S8 C87 1_555 1_555
C99 S8 1_555 1_555
C100 C99 1_555 1_555
C101 S5 1_555 1_555
C102 C101 1_555 1_555
H120 C102 1_555 1_555
C103 C102 1_555 1_555
C104 C99 1_555 1_555
H121 C104 1_555 1_555
O8 C100 1_555 1_555
C105 O8 1_555 1_555
H122 C105 1_555 1_555
H123 C105 1_555 1_555
C106 C105 1_555 1_555
H124 C106 1_555 1_555
H125 C106 1_555 1_555
C107 C106 1_555 1_555
H126 C107 1_555 1_555
H127 C107 1_555 1_555
C108 C107 1_555 1_555
N8 Ag1 1_555 1_555
C109 C103 1_555 1_555
C110 C109 1_555 1_555
H128 C110 1_555 1_555
H129 C110 1_555 1_555
H130 C110 1_555 1_555
C111 C109 1_555 1_555
H131 C111 1_555 1_555
H132 C111 1_555 1_555
H133 C111 1_555 1_555
C112 C109 1_555 1_555
H134 C112 1_555 1_555
H135 C112 1_555 1_555
H136 C112 1_555 1_555
B1 F1 1_555 1_555
F2 B1 1_555 1_555
F3 B1 1_555 1_555
F4 B1 1_555 1_555
B2 F5 1_555 1_555
F6 B2 1_555 1_555
F7 B2 1_555 1_555
F8 B2 1_555 1_555
C113 H137 1_555 1_555
Cl1 C113 1_555 1_555
Cl2 C113 1_555 1_555
Cl3 C113 1_555 1_555
C114 H138 1_555 1_555
Cl4 C114 1_555 1_555
Cl5 C114 1_555 1_555
Cl6 C114 1_555 1_555
C115 H139 1_555 1_555
Cl7 C115 1_555 1_555
Cl8 C115 1_555 1_555
Cl9 C115 1_555 1_555
C116 H140 1_555 1_555
Cl10 C116 1_555 1_555
Cl11 C116 1_555 1_555
Cl12 C116 1_555 1_555
C117 H141 1_555 1_555
C118 C117 1_555 1_555
H142 C118 1_555 1_555
H143 C118 1_555 1_555
H144 C118 1_555 1_555
C119 C117 1_555 1_555
H145 C119 1_555 1_555
H146 C119 1_555 1_555
H147 C119 1_555 1_555
O9 C117 1_555 1_555
H148 O9 1_555 1_555
C120 H149 1_555 1_555
C121 C120 1_555 1_555
H150 C121 1_555 1_555
H151 C121 1_555 1_555
H152 C121 1_555 1_555
C122 C120 1_555 1_555
H153 C122 1_555 1_555
H154 C122 1_555 1_555
H155 C122 1_555 1_555
O10 C120 1_555 1_555
H156 O10 1_555 1_555
Ag2_2 N5 1_555 1_555
N5_2 Ag2 1_555 1_555
N7_2 Ag2 1_555 1_555
C5 C6 1_555 1_555
C19 C20 1_555 1_555
C33 C34 1_555 1_555
C38 N3 1_555 1_555
C44 C45 1_555 1_555
C47 C48 1_555 1_555
C52 N4 1_555 1_555
C61 C62 1_555 1_555
C75 C76 1_555 1_555
C80 N6 1_555 1_555
C89 C90 1_555 1_555
N7 Ag2_2 1_555 1_555
C100 C101 1_555 1_555
C103 C104 1_555 1_555
C108 N8 1_555 1_555

#END
