
#######################################################################
#
#                 Cambridge Crystallographic Data Centre
#                                CCDC 
#
#######################################################################
#
# If this CIF has been generated from an entry in the Cambridge 
# Structural Database, then it will include bibliographic, chemical, 
# crystal, experimental, refinement or atomic coordinate data resulting 
# from the CCDC's data processing and validation procedures.
#
#######################################################################

data_LIRJUT
_symmetry_cell_setting           triclinic
_symmetry_space_group_name_H-M   'P -1'
_symmetry_Int_Tables_number      2
_space_group_name_Hall           '-P 1'
loop_
_symmetry_equiv_pos_site_id
_symmetry_equiv_pos_as_xyz
1 x,y,z
2 -x,-y,-z
_cell_length_a                   11.8249(5)
_cell_length_b                   16.0450(8)
_cell_length_c                   16.2113(7)
_cell_angle_alpha                62.522(5)
_cell_angle_beta                 78.673(4)
_cell_angle_gamma                68.793(4)
_cell_volume                     2542.38
loop_
_atom_site_label
_atom_site_type_symbol
_atom_site_fract_x
_atom_site_fract_y
_atom_site_fract_z
Cu1 Cu 0.02399(3) 0.90477(2) 0.54914(2)
Cu2 Cu 0.04415(3) 0.53807(2) 0.91558(2)
Cu3 Cu 0.04341(3) 0.52780(2) 0.54741(2)
N1 N 0.0982(2) 0.74316(14) 0.62260(14)
O1 O -0.12752(17) 0.61045(13) 0.88336(13)
O2 O -0.20335(17) 0.54360(13) 1.02779(12)
O3 O 0.13070(18) 0.90105(13) 0.44059(13)
O4 O 0.19354(18) 0.50344(14) 0.47230(13)
O5 O -0.02369(19) 0.65663(13) 0.44417(13)
O6 O 0.11770(18) 0.45878(14) 0.38896(13)
O7 O 0.02968(18) 0.42011(12) 0.91518(12)
O8 O -0.04403(18) 0.35180(13) 1.06093(13)
O9 O -0.10991(18) 0.91582(13) 0.48595(13)
O10 O -0.09976(18) 0.61142(13) 0.36114(13)
O11 O -0.1513(2) 1.07861(14) 0.40429(15)
C1 C 0.2865(3) 0.55605(19) 0.10531(19)
H1 H 0.2328 0.5652 0.0648
C2 C -0.2895(3) 1.0568(2) 0.2826(2)
O12 O 0.0924(2) 1.06358(14) 0.35669(13)
C3 C 0.0574(2) 0.70365(17) 0.72163(17)
H2 H -0.0306 0.7235 0.7258
H3 H 0.0836 0.7316 0.7534
N2 N 0.2845(2) 0.60177(15) 0.66198(15)
C4 C 0.0244(3) 0.25751(19) 0.9710(2)
H4 H -0.0091 0.2111 1.0241
H5 H -0.0140 0.2736 0.9156
C5 C -0.3235(3) 0.8449(2) 0.6569(2)
H6 H -0.2816 0.8890 0.6179
C6 C -0.2137(3) 0.60305(19) 0.94222(19)
N3 N 0.1054(2) 0.59012(14) 0.61907(14)
N4 N 0.1064(2) 0.59453(14) 0.76826(14)
C7 C 0.0573(2) 0.69919(17) 0.57575(18)
H7 H -0.0307 0.7194 0.5785
H8 H 0.0839 0.7241 0.5108
C8 C 0.3412(3) 0.50051(19) 0.26206(19)
C9 C -0.2599(3) 1.1806(2) 0.1304(2)
H9 H -0.2250 1.2302 0.0927
C10 C -0.3629(3) 0.72686(19) 0.81050(19)
C11 C -0.0186(3) 0.8142(2) 0.23620(19)
C12 C -0.2397(3) 1.1314(2) 0.2248(2)
H10 H -0.1920 1.1487 0.2498
C13 C 0.0655(2) 0.55432(17) 0.71801(17)
H11 H 0.0970 0.4827 0.7476
H12 H -0.0224 0.5729 0.7224
C14 C 0.2408(2) 0.56579(18) 0.75973(18)
H13 H 0.2694 0.5926 0.7914
H14 H 0.2742 0.4943 0.7899
C15 C -0.3403(3) 0.6717(2) 0.91345(19)
H15 H -0.3960 0.6332 0.9427
H16 H -0.3607 0.7200 0.9385
C16 C -0.4464(3) 0.71285(19) 0.7733(2)
H17 H -0.4882 0.6685 0.8121
C17 C 0.2407(2) 0.56152(19) 0.61511(18)
H18 H 0.2740 0.4900 0.6439
H19 H 0.2693 0.5850 0.5506
C18 C 0.2620(3) 0.51463(19) 0.20046(19)
H20 H 0.1920 0.4962 0.2232
C19 C 0.1590(3) 0.2121(2) 0.9621(2)
C20 C 0.4436(3) 0.5302(2) 0.2255(2)
H21 H 0.4971 0.5222 0.2656
C21 C 0.4679(3) 0.5713(2) 0.1305(2)
H22 H 0.5372 0.5906 0.1074
C22 C 0.3896(3) 0.5838(2) 0.0703(2)
H23 H 0.4062 0.6108 0.0065
C23 C 0.3269(3) 0.4463(2) 0.36652(18)
H24 H 0.3831 0.4566 0.3945
H25 H 0.3524 0.3762 0.3824
C24 C 0.3468(4) 0.0995(3) 1.0362(3)
H26 H 0.3876 0.0497 1.0895
C25 C -0.4690(3) 0.7639(2) 0.6790(2)
H27 H -0.5258 0.7540 0.6550
C26 C -0.2772(3) 1.00221(19) 0.38762(19)
H28 H -0.3505 1.0323 0.4160
H29 H -0.2744 0.9347 0.4064
C27 C -0.3022(3) 0.7944(2) 0.7512(2)
H30 H -0.2468 0.8056 0.7752
C28 C 0.0002(3) 0.35048(19) 0.9836(2)
C29 C -0.1707(3) 0.9984(2) 0.42824(19)
C30 C 0.2222(3) 0.2446(2) 0.8789(2)
H31 H 0.1807 0.2934 0.8255
C31 C 0.1792(3) 0.7810(2) 0.1621(2)
H32 H 0.2526 0.7358 0.1560
C32 C -0.0785(3) 0.6745(2) 0.37600(19)
C33 C 0.2329(2) 0.71019(18) 0.61805(19)
H33 H 0.2611 0.7353 0.5534
H34 H 0.2616 0.7377 0.6490
C34 C 0.2023(3) 0.47287(18) 0.41194(19)
C35 C 0.0910(3) 0.7479(2) 0.2262(2)
H35 H 0.1055 0.6805 0.2629
C36 C 0.3481(4) 0.2049(3) 0.8739(3)
H36 H 0.3905 0.2266 0.8173
C37 C -0.4067(3) 0.8298(2) 0.6206(2)
H37 H -0.4210 0.8637 0.5572
C38 C 0.0504(3) 0.9467(2) 0.1159(2)
H38 H 0.0366 1.0141 0.0793
C39 C 0.3367(4) 0.7744(2) 0.3379(2)
H39 H 0.2699 0.7731 0.3168
C40 C -0.3586(3) 1.0336(2) 0.2425(2)
H40 H -0.3924 0.9833 0.2797
C41 C -0.3305(3) 1.1574(2) 0.0918(2)
H41 H -0.3451 1.1915 0.0285
C42 C 0.3395(3) 0.8607(2) 0.3339(2)
C43 C 0.2362(3) 0.9550(2) 0.2966(2)
H42 H 0.1941 0.9525 0.2525
H43 H 0.2691 1.0097 0.2629
C44 C 0.2234(3) 0.1395(2) 1.0404(2)
H44 H 0.1816 0.1175 1.0973
C45 C -0.0391(3) 0.9140(2) 0.1791(2)
H45 H -0.1133 0.9594 0.1832
C46 C 0.1455(3) 0.9753(2) 0.3702(2)
C47 C -0.1196(3) 0.78194(19) 0.30505(19)
H46 H -0.1510 0.8238 0.3377
H47 H -0.1854 0.7916 0.2707
C48 C 0.1587(3) 0.8808(2) 0.1070(2)
H48 H 0.2182 0.9030 0.0642
C49 C 0.4361(4) 0.6867(3) 0.3741(3)
H49 H 0.4351 0.6277 0.3771
C50 C 0.5339(4) 0.6906(3) 0.4050(2)
H50 H 0.5999 0.6338 0.4282
C51 C -0.3793(3) 1.0827(3) 0.1484(2)
H51 H -0.4264 1.0651 0.1232
C52 C 0.4382(3) 0.8601(3) 0.3672(2)
H52 H 0.4392 0.9182 0.3663
C53 C 0.4100(4) 0.1326(3) 0.9541(3)
H53 H 0.4942 0.1070 0.9515
C54 C 0.5353(4) 0.7761(3) 0.4018(3)
H54 H 0.6016 0.7779 0.4229
Cu1A Cu -0.02399(3) 1.09523(2) 0.45086(2)
Cu2A Cu -0.04415(3) 0.46193(2) 1.08442(2)
Cu3A Cu -0.04341(3) 0.47220(2) 0.45259(2)
O2A O 0.20335(17) 0.45640(13) 0.97221(12)
O6A O -0.11770(18) 0.54122(14) 0.61104(13)
O8A O 0.04403(18) 0.64820(13) 0.93907(13)
O10A O 0.09976(18) 0.38858(13) 0.63886(13)
O11A O 0.1513(2) 0.92139(14) 0.59571(15)
O12A O -0.0924(2) 0.93642(14) 0.64331(13)
loop_
_geom_bond_atom_site_label_1
_geom_bond_atom_site_label_2
_geom_bond_site_symmetry_1
_geom_bond_site_symmetry_2
Cu1 N1 1_555 1_555
Cu2 O1 1_555 1_555
Cu3 O4 1_555 1_555
N1 C3 1_555 1_555
O1 C6 1_555 1_555
O2 C6 1_555 1_555
O3 Cu1 1_555 1_555
O4 C34 1_555 1_555
O5 Cu3 1_555 1_555
O6 C34 1_555 1_555
O7 Cu2 1_555 1_555
O8 C28 1_555 1_555
O9 Cu1 1_555 1_555
O10 C32 1_555 1_555
O11 C29 1_555 1_555
C1 H1 1_555 1_555
C2 C12 1_555 1_555
O12 C46 1_555 1_555
C3 H2 1_555 1_555
H3 C3 1_555 1_555
N2 C14 1_555 1_555
C4 H4 1_555 1_555
H5 C4 1_555 1_555
C5 H6 1_555 1_555
C6 C15 1_555 1_555
N3 Cu3 1_555 1_555
N4 Cu2 1_555 1_555
C7 N1 1_555 1_555
H7 C7 1_555 1_555
H8 C7 1_555 1_555
C8 C18 1_555 1_555
C9 H9 1_555 1_555
C10 C15 1_555 1_555
C11 C35 1_555 1_555
C12 C9 1_555 1_555
H10 C12 1_555 1_555
C13 N3 1_555 1_555
H11 C13 1_555 1_555
H12 C13 1_555 1_555
C14 N4 1_555 1_555
H13 C14 1_555 1_555
H14 C14 1_555 1_555
C15 H15 1_555 1_555
H16 C15 1_555 1_555
C16 C10 1_555 1_555
H17 C16 1_555 1_555
C17 N2 1_555 1_555
H18 C17 1_555 1_555
H19 C17 1_555 1_555
C18 C1 1_555 1_555
H20 C18 1_555 1_555
C19 C4 1_555 1_555
C20 C8 1_555 1_555
H21 C20 1_555 1_555
C21 C20 1_555 1_555
H22 C21 1_555 1_555
C22 C1 1_555 1_555
H23 C22 1_555 1_555
C23 C8 1_555 1_555
H24 C23 1_555 1_555
H25 C23 1_555 1_555
C24 H26 1_555 1_555
C25 C16 1_555 1_555
H27 C25 1_555 1_555
C26 C2 1_555 1_555
H28 C26 1_555 1_555
H29 C26 1_555 1_555
C27 C5 1_555 1_555
H30 C27 1_555 1_555
C28 O7 1_555 1_555
C29 O9 1_555 1_555
C30 C19 1_555 1_555
H31 C30 1_555 1_555
C31 H32 1_555 1_555
C32 O5 1_555 1_555
C33 N1 1_555 1_555
H33 C33 1_555 1_555
H34 C33 1_555 1_555
C34 C23 1_555 1_555
C35 C31 1_555 1_555
H35 C35 1_555 1_555
C36 C30 1_555 1_555
H36 C36 1_555 1_555
C37 C5 1_555 1_555
H37 C37 1_555 1_555
C38 H38 1_555 1_555
C39 H39 1_555 1_555
C40 C2 1_555 1_555
H40 C40 1_555 1_555
C41 C9 1_555 1_555
H41 C41 1_555 1_555
C42 C39 1_555 1_555
C43 C42 1_555 1_555
H42 C43 1_555 1_555
H43 C43 1_555 1_555
C44 C19 1_555 1_555
H44 C44 1_555 1_555
C45 C11 1_555 1_555
H45 C45 1_555 1_555
C46 O3 1_555 1_555
C47 C11 1_555 1_555
H46 C47 1_555 1_555
H47 C47 1_555 1_555
C48 C31 1_555 1_555
H48 C48 1_555 1_555
C49 C39 1_555 1_555
H49 C49 1_555 1_555
C50 C49 1_555 1_555
H50 C50 1_555 1_555
C51 C40 1_555 1_555
H51 C51 1_555 1_555
C52 C42 1_555 1_555
H52 C52 1_555 1_555
C53 C24 1_555 1_555
H53 C53 1_555 1_555
C54 C50 1_555 1_555
H54 C54 1_555 1_555
Cu1A O11 1_555 1_555
Cu2A O2 1_555 1_555
Cu3A O6 1_555 1_555
O2A Cu2 1_555 1_555
O6A Cu3 1_555 1_555
O8A Cu2 1_555 1_555
O10A Cu3 1_555 1_555
O11A Cu1 1_555 1_555
O12A Cu1 1_555 1_555
O8 Cu2A 1_555 1_555
O10 Cu3A 1_555 1_555
O12 Cu1A 1_555 1_555
C3 N4 1_555 1_555
N2 C33 1_555 1_555
C4 C28 1_555 1_555
N3 C7 1_555 1_555
N3 C17 1_555 1_555
N4 C13 1_555 1_555
C10 C27 1_555 1_555
C21 C22 1_555 1_555
C24 C44 1_555 1_555
C25 C37 1_555 1_555
C26 C29 1_555 1_555
C32 C47 1_555 1_555
C36 C53 1_555 1_555
C38 C45 1_555 1_555
C38 C48 1_555 1_555
C41 C51 1_555 1_555
C43 C46 1_555 1_555
C52 C54 1_555 1_555

#END
