
#######################################################################
#
#                 Cambridge Crystallographic Data Centre
#                                CCDC 
#
#######################################################################
#
# If this CIF has been generated from an entry in the Cambridge 
# Structural Database, then it will include bibliographic, chemical, 
# crystal, experimental, refinement or atomic coordinate data resulting 
# from the CCDC's data processing and validation procedures.
#
#######################################################################

data_LIRLUV
_symmetry_cell_setting           orthorhombic
_symmetry_space_group_name_H-M   'P n a 21'
_symmetry_Int_Tables_number      33
_space_group_name_Hall           'P 2c -2n'
loop_
_symmetry_equiv_pos_site_id
_symmetry_equiv_pos_as_xyz
1 x,y,z
2 -x,-y,1/2+z
3 1/2-x,1/2+y,1/2+z
4 1/2+x,1/2-y,z
_cell_length_a                   15.066(2)
_cell_length_b                   11.0800(13)
_cell_length_c                   12.9970(12)
_cell_angle_alpha                90
_cell_angle_beta                 90
_cell_angle_gamma                90
_cell_volume                     2169.61
loop_
_atom_site_label
_atom_site_type_symbol
_atom_site_fract_x
_atom_site_fract_y
_atom_site_fract_z
Ag1 Ag 0.35281(5) 0.41410(7) 0.98672(5)
Ag2 Ag 0.36335(5) -0.07090(7) 1.31224(5)
O1 O 0.3485(5) 0.8344(7) 1.5358(7)
H1 H 0.3412 0.9077 1.5378
C1 C 0.3983(6) 0.1805(10) 0.8682(8)
O2 O 0.3849(6) 0.3317(8) 0.7580(6)
H2 H 0.3745 0.4042 0.7542
N1 N 0.3647(5) 0.5061(8) 1.1346(8)
N2 N 0.3754(5) 0.0139(8) 1.1623(8)
N3 N 0.3538(5) 0.7971(8) 1.4342(7)
N4 N 0.3781(6) 0.6103(8) 1.5116(7)
H3 H 0.3789 0.6401 1.5727
H4 H 0.3854 0.5340 1.5027
N5 N 0.3822(5) 0.2943(9) 0.8638(8)
N6 N 0.4167(6) 0.1095(8) 0.7865(7)
H5 H 0.4183 0.1399 0.7257
H6 H 0.4267 0.0338 0.7953
C2 C 0.3067(6) 0.5963(9) 1.1557(8)
H7 H 0.2657 0.6187 1.1058
C3 C 0.3066(6) 0.6553(9) 1.2478(7)
H8 H 0.2670 0.7178 1.2609
C4 C 0.3686(5) 0.6180(8) 1.3225(10)
C5 C 0.4255(6) 0.5312(8) 1.3010(8)
H9 H 0.4681 0.5082 1.3490
C6 C 0.4212(7) 0.4753(9) 1.2072(9)
H10 H 0.4604 0.4122 1.1941
C7 C 0.4267(7) 0.1084(9) 1.1492(9)
H11 H 0.4576 0.1381 1.2058
C8 C 0.4374(6) 0.1671(9) 1.0547(8)
H12 H 0.4731 0.2350 1.0477
C9 C 0.3913(6) 0.1177(8) 0.9714(8)
C10 C 0.3427(6) 0.0275(10) 0.9821(9)
H13 H 0.3123 -0.0039 0.9259
C11 C 0.3340(7) -0.0261(9) 1.0786(9)
H14 H 0.2974 -0.0933 1.0847
C12 C 0.3655(6) 0.6823(9) 1.4309(8)
O3 O 0.2743(5) 0.5660(7) 0.8854(6)
O4 O 0.3580(5) 0.5717(7) 0.7438(7)
O5 O 0.4597(5) 0.0828(6) 1.3920(5)
O6 O 0.4018(5) 0.0671(6) 1.5498(6)
C13 C 0.3094(6) 0.6158(8) 0.8079(10)
C14 C 0.2832(7) 0.7492(10) 0.7925(10)
C15 C 0.4417(6) 0.1207(8) 1.4778(9)
C16 C 0.4738(8) 0.2482(9) 1.5065(8)
F1 F 0.5195(5) 0.2489(6) 1.5925(6)
F2 F 0.5207(7) 0.2972(7) 1.4339(7)
F3 F 0.4037(5) 0.3204(7) 1.5255(7)
F4 F 0.2405(9) 0.7973(7) 0.8681(8)
F5 F 0.3512(4) 0.8167(6) 0.7713(7)
F6 F 0.2299(5) 0.7577(7) 0.7090(8)
Ag2_2 Ag 0.36335(5) 0.92910(7) 1.31224(5)
N3_2 N 0.3538(5) -0.2029(8) 1.4342(7)
loop_
_geom_bond_atom_site_label_1
_geom_bond_atom_site_label_2
_geom_bond_site_symmetry_1
_geom_bond_site_symmetry_2
Ag1 N1 1_555 1_555
Ag2 N2 1_555 1_555
O1 H1 1_555 1_555
C1 N5 1_555 1_555
O2 H2 1_555 1_555
N1 C2 1_555 1_555
N2 C7 1_555 1_555
N3 O1 1_555 1_555
N4 H3 1_555 1_555
H4 N4 1_555 1_555
N5 Ag1 1_555 1_555
N6 C1 1_555 1_555
H5 N6 1_555 1_555
H6 N6 1_555 1_555
C2 H7 1_555 1_555
C3 C2 1_555 1_555
H8 C3 1_555 1_555
C4 C3 1_555 1_555
C5 C4 1_555 1_555
H9 C5 1_555 1_555
C6 N1 1_555 1_555
H10 C6 1_555 1_555
C7 H11 1_555 1_555
C8 C7 1_555 1_555
H12 C8 1_555 1_555
C9 C1 1_555 1_555
C10 C9 1_555 1_555
H13 C10 1_555 1_555
C11 N2 1_555 1_555
H14 C11 1_555 1_555
C12 N3 1_555 1_555
O3 Ag1 1_555 1_555
O4 C13 1_555 1_555
O5 Ag2 1_555 1_555
O6 C15 1_555 1_555
C13 O3 1_555 1_555
C14 C13 1_555 1_555
C15 O5 1_555 1_555
C16 C15 1_555 1_555
F1 C16 1_555 1_555
F2 C16 1_555 1_555
F3 C16 1_555 1_555
F4 C14 1_555 1_555
F5 C14 1_555 1_555
F6 C14 1_555 1_555
Ag2_2 N3 1_555 1_555
N3_2 Ag2 1_555 1_555
O2 N5 1_555 1_555
N4 C12 1_555 1_555
C4 C12 1_555 1_555
C5 C6 1_555 1_555
C8 C9 1_555 1_555
C10 C11 1_555 1_555

#END
