
#######################################################################
#
#                 Cambridge Crystallographic Data Centre
#                                CCDC 
#
#######################################################################
#
# If this CIF has been generated from an entry in the Cambridge 
# Structural Database, then it will include bibliographic, chemical, 
# crystal, experimental, refinement or atomic coordinate data resulting 
# from the CCDC's data processing and validation procedures.
#
#######################################################################

data_LIRMAC
_symmetry_cell_setting           monoclinic
_symmetry_space_group_name_H-M   'P 21/c'
_symmetry_Int_Tables_number      14
_space_group_name_Hall           '-P 2ybc'
loop_
_symmetry_equiv_pos_site_id
_symmetry_equiv_pos_as_xyz
1 x,y,z
2 -x,1/2+y,1/2-z
3 -x,-y,-z
4 x,1/2-y,1/2+z
_cell_length_a                   9.958(2)
_cell_length_b                   10.083(2)
_cell_length_c                   10.957(3)
_cell_angle_alpha                90
_cell_angle_beta                 107.799(4)
_cell_angle_gamma                90
_cell_volume                     1047.49
loop_
_atom_site_label
_atom_site_type_symbol
_atom_site_fract_x
_atom_site_fract_y
_atom_site_fract_z
Ag1 Ag 0.62903(4) 0.51569(4) 0.14019(4)
O1 O 0.9333(4) 0.4748(3) 0.1110(4)
H1 H 0.8980 0.5318 0.0574
N1 N 0.8265(4) 0.4182(4) 0.1582(4)
N2 N 0.9739(5) 0.2325(5) 0.1863(6)
H2 H 1.038(4) 0.270(5) 0.161(5)
H3 H 0.995(5) 0.154(2) 0.217(5)
N3 N 0.5669(4) 0.0961(4) 0.3452(4)
C1 C 0.8614(5) 0.2963(4) 0.1984(4)
C2 C 0.7658(5) 0.2262(4) 0.2550(4)
C3 C 0.7100(5) 0.2867(4) 0.3429(5)
H4 H 0.7390 0.3715 0.3731
C4 C 0.6111(5) 0.2202(4) 0.3852(4)
H5 H 0.5737 0.2622 0.4431
C5 C 0.6262(5) 0.0359(5) 0.2640(5)
H6 H 0.5989 -0.0505 0.2383
C6 C 0.7249(5) 0.0959(4) 0.2175(4)
H7 H 0.7636 0.0507 0.1622
Ag1A Ag 0.37097(4) 0.01569(4) 0.35981(4)
N3A N 0.4331(4) 0.5961(4) 0.1548(4)
Cl1 Cl 0.27924(17) 0.21875(12) 0.02102(14)
O2 O 0.4215(5) 0.2669(6) 0.0936(5)
O3 O 0.2743(5) 0.2227(4) -0.1102(4)
O4 O 0.1824(5) 0.3146(4) 0.0422(4)
O5 O 0.2588(8) 0.0961(5) 0.0623(6)
loop_
_geom_bond_atom_site_label_1
_geom_bond_atom_site_label_2
_geom_bond_site_symmetry_1
_geom_bond_site_symmetry_2
Ag1 N1 1_555 1_555
O1 H1 1_555 1_555
N1 O1 1_555 1_555
N2 H2 1_555 1_555
H3 N2 1_555 1_555
N3 C4 1_555 1_555
C1 N1 1_555 1_555
C2 C1 1_555 1_555
C3 C2 1_555 1_555
H4 C3 1_555 1_555
C4 C3 1_555 1_555
H5 C4 1_555 1_555
C5 N3 1_555 1_555
H6 C5 1_555 1_555
C6 C2 1_555 1_555
H7 C6 1_555 1_555
Cl1 O2 1_555 1_555
O3 Cl1 1_555 1_555
O4 Cl1 1_555 1_555
O5 Cl1 1_555 1_555
Ag1A N3 1_555 1_555
N3A Ag1 1_555 1_555
N2 C1 1_555 1_555
C5 C6 1_555 1_555

#END
