
#######################################################################
#
#                 Cambridge Crystallographic Data Centre
#                                CCDC 
#
#######################################################################
#
# If this CIF has been generated from an entry in the Cambridge 
# Structural Database, then it will include bibliographic, chemical, 
# crystal, experimental, refinement or atomic coordinate data resulting 
# from the CCDC's data processing and validation procedures.
#
#######################################################################

data_LIRMEG
_symmetry_cell_setting           monoclinic
_symmetry_space_group_name_H-M   'P 21/c'
_symmetry_Int_Tables_number      14
_space_group_name_Hall           '-P 2ybc'
loop_
_symmetry_equiv_pos_site_id
_symmetry_equiv_pos_as_xyz
1 x,y,z
2 -x,1/2+y,1/2-z
3 -x,-y,-z
4 x,1/2-y,1/2+z
_cell_length_a                   9.7768(7)
_cell_length_b                   12.4096(9)
_cell_length_c                   14.6295(11)
_cell_angle_alpha                90
_cell_angle_beta                 90.9150(12)
_cell_angle_gamma                90
_cell_volume                     1774.71
loop_
_atom_site_label
_atom_site_type_symbol
_atom_site_fract_x
_atom_site_fract_y
_atom_site_fract_z
Cu1 Cu 0.83119(5) 0.49581(3) 0.17619(3)
Cu2 Cu 0.33836(4) 0.10927(3) 0.17613(3)
I1 I 0.88294(2) 0.474350(18) 0.360506(15)
I2 I 0.38881(2) 0.128653(18) 0.363525(15)
O1 O 0.4522(2) -0.09662(17) 0.11674(17)
H1 H 0.3706 -0.1053 0.1264
O2 O -0.0490(2) 0.70346(17) 0.12720(17)
H2 H -0.1316 0.7117 0.1331
N1 N 0.7662(3) 0.3474(2) 0.14232(18)
N2 N 0.6980(3) -0.0528(2) 0.0833(2)
H3 H 0.6692 -0.1183 0.0826
H4 H 0.7818 -0.0389 0.0706
N3 N 0.4850(3) 0.01501(19) 0.12412(18)
N4 N 0.2729(3) 0.2601(2) 0.14901(19)
N5 N 0.2004(3) 0.6621(2) 0.1081(2)
H5 H 0.1703 0.7272 0.1055
H6 H 0.2861 0.6494 0.1012
N6 N -0.0163(3) 0.5915(2) 0.13376(18)
C1 C 0.8337(3) 0.2611(3) 0.1728(2)
H7 H 0.9147 0.2721 0.2057
C2 C 0.7911(3) 0.1563(3) 0.1585(2)
H8 H 0.8435 0.0987 0.1796
C3 C 0.6681(3) 0.1389(2) 0.1119(2)
C4 C 0.5977(3) 0.2285(2) 0.0780(2)
H9 H 0.5167 0.2200 0.0446
C5 C 0.6496(3) 0.3294(3) 0.0946(2)
H10 H 0.6016 0.3885 0.0717
C6 C 0.6120(3) 0.0281(2) 0.1042(2)
C7 C 0.3364(3) 0.3447(3) 0.1874(2)
H11 H 0.4156 0.3325 0.2219
C8 C 0.2902(3) 0.4489(3) 0.1781(2)
H12 H 0.3392 0.5054 0.2045
C9 C 0.1706(3) 0.4692(2) 0.1294(2)
C10 C 0.1061(3) 0.3827(3) 0.0871(2)
H13 H 0.0273 0.3932 0.0518
C11 C 0.1609(3) 0.2803(3) 0.0982(2)
H14 H 0.1176 0.2229 0.0688
C12 C 0.1134(3) 0.5802(2) 0.1228(2)
Cu1_2 Cu -0.16881(5) 0.49581(3) 0.17619(3)
Cu1A Cu 0.16881(5) -0.00419(3) 0.32381(3)
Cu2A Cu 0.66164(4) 0.60927(3) 0.32387(3)
I1A I 0.11706(2) -0.025650(18) 0.139494(15)
I2A I 0.61119(2) 0.628653(18) 0.136475(15)
N6_2 N 0.9837(3) 0.5915(2) 0.13376(18)
loop_
_geom_bond_atom_site_label_1
_geom_bond_atom_site_label_2
_geom_bond_site_symmetry_1
_geom_bond_site_symmetry_2
Cu1 I1 1_555 1_555
Cu2 I2 1_555 1_555
I1 Cu2A 1_555 1_555
I2 Cu1A 1_555 1_555
O1 H1 1_555 1_555
O2 H2 1_555 1_555
N1 Cu1 1_555 1_555
N2 H3 1_555 1_555
H4 N2 1_555 1_555
N3 Cu2 1_555 1_555
N4 Cu2 1_555 1_555
N5 H5 1_555 1_555
H6 N5 1_555 1_555
N6 O2 1_555 1_555
C1 N1 1_555 1_555
H7 C1 1_555 1_555
C2 C1 1_555 1_555
H8 C2 1_555 1_555
C3 C2 1_555 1_555
C4 C3 1_555 1_555
H9 C4 1_555 1_555
C5 N1 1_555 1_555
H10 C5 1_555 1_555
C6 N2 1_555 1_555
C7 N4 1_555 1_555
H11 C7 1_555 1_555
C8 C7 1_555 1_555
H12 C8 1_555 1_555
C9 C8 1_555 1_555
C10 C9 1_555 1_555
H13 C10 1_555 1_555
C11 N4 1_555 1_555
H14 C11 1_555 1_555
C12 N5 1_555 1_555
Cu1_2 N6 1_555 1_555
Cu1A I1A 1_555 1_555
Cu2A I2A 1_555 1_555
I1A Cu2 1_555 1_555
I2A Cu1 1_555 1_555
N6_2 Cu1 1_555 1_555
O1 N3 1_555 1_555
N3 C6 1_555 1_555
N6 C12 1_555 1_555
C3 C6 1_555 1_555
C4 C5 1_555 1_555
C9 C12 1_555 1_555
C10 C11 1_555 1_555

#END
