
#######################################################################
#
#                 Cambridge Crystallographic Data Centre
#                                CCDC 
#
#######################################################################
#
# If this CIF has been generated from an entry in the Cambridge 
# Structural Database, then it will include bibliographic, chemical, 
# crystal, experimental, refinement or atomic coordinate data resulting 
# from the CCDC's data processing and validation procedures.
#
#######################################################################

data_LIRNUW
_symmetry_cell_setting           trigonal
_symmetry_space_group_name_H-M   'P 32'
_symmetry_Int_Tables_number      145
_space_group_name_Hall           'P 32'
loop_
_symmetry_equiv_pos_site_id
_symmetry_equiv_pos_as_xyz
1 x,y,z
2 -y,x-y,2/3+z
3 -x+y,-x,1/3+z
_cell_length_a                   15.12810(10)
_cell_length_b                   15.12810(10)
_cell_length_c                   7.71600(10)
_cell_angle_alpha                90
_cell_angle_beta                 90
_cell_angle_gamma                120
_cell_volume                     1529.3
loop_
_atom_site_label
_atom_site_type_symbol
_atom_site_fract_x
_atom_site_fract_y
_atom_site_fract_z
Mn1 Mn 0.75713(13) 0.34462(13) 0.1620(2)
Mn2 Mn 1.01159(13) 0.09036(13) 0.9072(2)
Mn3 Mn 0.85178(14) 0.18479(14) 1.0351(3)
O1 O 0.9594(11) 0.2681(12) 0.847(3)
O2 O 1.0859(7) 0.2419(6) 0.8162(11)
O3 O 0.9365(12) 0.2963(12) 0.221(3)
O4 O 0.9052(6) 0.4156(6) 0.2603(11)
O5 O 0.7631(6) 0.2574(6) -0.0553(10)
O6 O 0.6876(6) 0.2910(6) -0.2710(10)
O7 O 0.9828(6) -0.0602(6) 1.0072(10)
O8 O 0.9047(6) -0.1723(6) 0.7884(11)
O9 O 0.8761(6) 0.0161(6) 0.7484(11)
O10 O 0.7660(7) 0.0624(7) 0.8501(11)
O11 O 0.7281(6) 0.0985(6) 0.2199(11)
O12 O 0.6804(6) 0.2061(6) 0.3244(10)
C1 C 1.1028(10) 0.3916(10) 0.6869(17)
C2 C 1.1110(15) 0.3986(16) 0.486(2)
C3 C 1.0375(15) 0.4300(15) 0.413(2)
H1 H 1.0801 0.5007 0.3734
C4 C 0.9762(16) 0.436(2) 0.592(3)
H2 H 0.9529 0.4849 0.5789
H3 H 0.9193 0.3699 0.6231
C5 C 1.066(2) 0.473(2) 0.722(3)
H4 H 1.0435 0.4700 0.8403
H5 H 1.1199 0.5422 0.6959
C6 C 1.2189(16) 0.450(2) 0.750(3)
H6 H 1.2483 0.4070 0.7306
H7 H 1.2215 0.4644 0.8718
H8 H 1.2566 0.5121 0.6868
C7 C 1.1040(14) 0.3022(11) 0.424(2)
H9 H 1.0387 0.2454 0.4544
H10 H 1.1571 0.2941 0.4760
H11 H 1.1117 0.3049 0.2998
C8 C 1.2185(17) 0.4923(19) 0.435(4)
H12 H 1.2242 0.4975 0.3109
H13 H 1.2717 0.4822 0.4809
H14 H 1.2247 0.5540 0.4816
C9 C 1.0450(11) 0.2926(11) 0.792(2)
C10 C 0.9608(13) 0.3798(11) 0.280(2)
C11 C 0.7239(9) 0.2393(9) -0.2071(15)
C12 C 0.9443(9) -0.1489(9) 0.9415(16)
H15 H 0.9446 -0.2001 1.0077
C13 C 0.7904(12) 0.0094(11) 0.7558(18)
C14 C 0.6737(10) 0.1171(10) 0.3135(17)
H16 H 0.6247 0.0643 0.3808
Mn1A Mn 0.65538(13) 0.41251(18) -0.1713(2)
Mn1B Mn 0.58749(18) 0.24287(13) -0.5047(2)
Mn1B_2 Mn 0.58749(18) 0.24287(13) 0.4953(2)
Mn2B Mn 1.07877(18) -0.01159(13) 1.2405(2)
Mn2A Mn 0.90964(13) -0.07877(18) 0.5739(2)
Mn3_2 Mn 0.85178(14) 0.18479(14) 0.0351(3)
Mn3A Mn 0.81521(14) -0.33301(20) 0.7018(3)
O3_2 O 0.9365(12) 0.2963(12) 1.221(3)
O5_2 O 0.7631(6) 0.2574(6) 0.9447(10)
O6A O 0.7090(6) 0.3966(8) 0.3957(10)
O6B O 0.6034(8) 0.3124(6) 0.0623(10)
O7A O 1.0602(6) 0.0430(8) 0.6739(10)
O8B O 0.9230(8) 0.0953(6) 1.1217(11)
O9B O 1.1400(8) 0.1239(6) 1.0817(11)
O11_2 O 0.7281(6) 0.0985(6) 1.2199(11)
O12A O 0.7939(6) 0.4743(8) -0.0089(10)
loop_
_geom_bond_atom_site_label_1
_geom_bond_atom_site_label_2
_geom_bond_site_symmetry_1
_geom_bond_site_symmetry_2
Mn1 O4 1_555 1_555
Mn2 O2 1_555 1_555
Mn3 O1 1_555 1_555
O1 C9 1_555 1_555
O2 C9 1_555 1_555
O3 C10 1_555 1_555
O4 C10 1_555 1_555
O5 Mn1 1_555 1_555
O6 C11 1_555 1_555
O7 Mn2 1_555 1_555
O8 C12 1_555 1_555
O9 Mn2 1_555 1_555
O10 Mn3 1_555 1_555
O11 C14 1_555 1_555
O12 Mn1 1_555 1_555
C1 C2 1_555 1_555
C2 C3 1_555 1_555
C3 H1 1_555 1_555
C4 C3 1_555 1_555
H2 C4 1_555 1_555
H3 C4 1_555 1_555
C5 C1 1_555 1_555
H4 C5 1_555 1_555
H5 C5 1_555 1_555
C6 C1 1_555 1_555
H6 C6 1_555 1_555
H7 C6 1_555 1_555
H8 C6 1_555 1_555
C7 C2 1_555 1_555
H9 C7 1_555 1_555
H10 C7 1_555 1_555
H11 C7 1_555 1_555
C8 C2 1_555 1_555
H12 C8 1_555 1_555
H13 C8 1_555 1_555
H14 C8 1_555 1_555
C9 C1 1_555 1_555
C10 C3 1_555 1_555
C11 O5 1_555 1_555
C12 O7 1_555 1_555
H15 C12 1_555 1_555
C13 O9 1_555 1_555
C14 O12 1_555 1_555
H16 C14 1_555 1_555
Mn1A O6 1_555 1_555
Mn1B O6 1_555 1_555
Mn1B_2 O12 1_555 1_555
Mn2B O7 1_555 1_555
Mn2A O8 1_555 1_555
Mn3_2 O3 1_555 1_555
Mn3A O8 1_555 1_555
O3_2 Mn3 1_555 1_555
O5_2 Mn3 1_555 1_555
O6A Mn1 1_555 1_555
O6B Mn1 1_555 1_555
O7A Mn2 1_555 1_555
O8B Mn2 1_555 1_555
O9B Mn2 1_555 1_555
O11_2 Mn3 1_555 1_555
O12A Mn1 1_555 1_555
Mn3 O8B 1_555 1_555
O5 Mn3_2 1_555 1_555
O9 Mn2A 1_555 1_555
O10 C13 1_555 1_555
O11 Mn3_2 1_555 1_555
C4 C5 1_555 1_555
Mn1A O6B 1_555 1_555
Mn1A O12A 1_555 1_555
Mn1B_2 O6A 1_555 1_555
Mn2B O9B 1_555 1_555
Mn2A O7A 1_555 1_555

#END
