
#######################################################################
#
#                 Cambridge Crystallographic Data Centre
#                                CCDC 
#
#######################################################################
#
# If this CIF has been generated from an entry in the Cambridge 
# Structural Database, then it will include bibliographic, chemical, 
# crystal, experimental, refinement or atomic coordinate data resulting 
# from the CCDC's data processing and validation procedures.
#
#######################################################################

data_LIRPEJ
_symmetry_cell_setting           triclinic
_symmetry_space_group_name_H-M   'P -1'
_symmetry_Int_Tables_number      2
_space_group_name_Hall           '-P 1'
loop_
_symmetry_equiv_pos_site_id
_symmetry_equiv_pos_as_xyz
1 x,y,z
2 -x,-y,-z
_cell_length_a                   10.5513(7)
_cell_length_b                   12.9013(5)
_cell_length_c                   13.0406(6)
_cell_angle_alpha                65.070(4)
_cell_angle_beta                 71.264(5)
_cell_angle_gamma                68.809(5)
_cell_volume                     1470.67
loop_
_atom_site_label
_atom_site_type_symbol
_atom_site_fract_x
_atom_site_fract_y
_atom_site_fract_z
Mo1 Mo 0.65395(4) 0.24099(3) 0.46643(3)
Mo2 Mo 0.61662(4) 0.48879(3) 0.24061(3)
Mo3 Mo 0.34512(3) 0.47685(3) 0.49360(3)
Mo4 Mo 0.52523(4) 0.22084(3) 0.75452(3)
Cu1 Cu 1.0000 0.5000 0.0000
O1 O 0.6209(3) 0.1122(2) 0.4944(2)
O2 O 0.8286(3) 0.2183(2) 0.4193(2)
O3 O 0.6582(3) 0.2231(2) 0.6230(2)
O4 O 0.6274(3) 0.44190(19) 0.4328(2)
O5 O 0.5926(3) 0.33408(19) 0.3233(2)
O6 O 0.7903(3) 0.4571(2) 0.1847(2)
O7 O 0.5432(3) 0.5336(2) 0.1259(2)
O8 O 0.3918(3) 0.5430(2) 0.3436(2)
O9 O 0.1713(3) 0.4920(2) 0.5250(3)
O10 O 0.4278(3) 0.32152(19) 0.5384(2)
O11 O 0.3881(3) 0.35735(19) 0.7577(2)
O12 O 0.4475(4) 0.1128(2) 0.7908(3)
O13 O 0.6135(4) 0.1809(3) 0.8595(3)
N1 N 1.0697(3) 0.6301(2) 0.2106(3)
N2 N 1.0658(4) 0.5557(2) 0.0892(3)
N3 N 1.1342(3) 1.1498(2) 0.1943(3)
N4 N 1.1068(3) 1.3321(2) 0.0729(3)
N5 N 0.6134(4) 1.1345(3) 0.1617(3)
N6 N 0.4518(4) 1.1574(3) 0.3074(4)
H1 H 0.4040 1.1444 0.3767
C1 C 0.9868(4) 0.8155(3) 0.2566(3)
C2 C 1.0534(4) 0.8695(3) 0.2878(3)
H2 H 1.1206 0.8230 0.3325
C3 C 1.0211(4) 0.9921(3) 0.2532(3)
C4 C 0.9206(4) 1.0585(3) 0.1881(4)
H3 H 0.8977 1.1406 0.1651
C5 C 0.8522(4) 1.0071(3) 0.1556(4)
C6 C 0.8869(4) 0.8851(3) 0.1907(4)
H4 H 0.8421 0.8492 0.1695
C7 C 1.0207(5) 0.6807(3) 0.3027(3)
H5 H 1.0915 0.6493 0.3484
H6 H 0.9384 0.6564 0.3531
C8 C 1.2004(4) 0.6089(3) 0.1482(4)
H7 H 1.2767 0.6234 0.1553
C9 C 1.1981(4) 0.5623(3) 0.0735(4)
H8 H 1.2740 0.5386 0.0200
C10 C 0.9916(4) 0.5963(3) 0.1730(4)
H9 H 0.8977 0.6010 0.2025
C11 C 1.0950(4) 1.0475(3) 0.2905(3)
H10 H 1.0346 1.0726 0.3543
H11 H 1.1775 0.9892 0.3168
C12 C 1.2337(4) 1.1471(3) 0.0986(4)
H12 H 1.3007 1.0807 0.0863
C13 C 1.2164(5) 1.2599(3) 0.0244(4)
H13 H 1.2710 1.2845 -0.0486
C14 C 1.0596(4) 1.2627(3) 0.1749(3)
H14 H 0.9839 1.2885 0.2273
C15 C 0.7377(5) 1.0818(4) 0.0895(4)
H15 H 0.7697 1.1444 0.0227
H16 H 0.7139 1.0332 0.0622
C16 C 0.5167(5) 1.2385(4) 0.1225(5)
H17 H 0.5194 1.2897 0.0464
C17 C 0.4174(6) 1.2532(4) 0.2138(5)
H18 H 0.3395 1.3172 0.2130
C18 C 0.5709(5) 1.0875(4) 0.2743(4)
H19 H 0.6175 1.0164 0.3225
Mo1A Mo 0.34605(4) 0.75901(3) 0.53357(3)
Mo2A Mo 0.38338(4) 0.51121(3) 0.75939(3)
Mo3A Mo 0.65488(3) 0.52315(3) 0.50640(3)
Mo4A Mo 0.47477(4) 0.77916(3) 0.24548(3)
O1A O 0.3791(3) 0.8878(2) 0.5056(2)
O2A O 0.1714(3) 0.7817(2) 0.5807(2)
O3A O 0.3418(3) 0.7769(2) 0.3770(2)
O4A O 0.3726(3) 0.55810(19) 0.5672(2)
O5A O 0.4074(3) 0.66592(19) 0.6767(2)
O6A O 0.2097(3) 0.5429(2) 0.8153(2)
O7A O 0.4568(3) 0.4664(2) 0.8741(2)
O8A O 0.6082(3) 0.4570(2) 0.6564(2)
O9A O 0.8287(3) 0.5080(2) 0.4750(3)
O10A O 0.5722(3) 0.67848(19) 0.4616(2)
O11A O 0.6119(3) 0.64265(19) 0.2423(2)
O12A O 0.5525(4) 0.8872(2) 0.2092(3)
O13A O 0.3865(4) 0.8191(3) 0.1405(3)
N1A N 0.9303(3) 0.3699(2) -0.2106(3)
N2A N 0.9342(4) 0.4443(2) -0.0892(3)
N3A N 0.8658(3) -0.1498(2) -0.1943(3)
N4A N 0.8932(3) -0.3321(2) -0.0729(3)
N5A N 1.3866(4) -0.1345(3) -0.1617(3)
N6A N 1.5482(4) -0.1574(3) -0.3074(4)
H1A H 1.5960 -0.1444 -0.3767
C1A C 1.0132(4) 0.1845(3) -0.2566(3)
C2A C 0.9466(4) 0.1305(3) -0.2878(3)
H2A H 0.8794 0.1770 -0.3325
C3A C 0.9789(4) 0.0079(3) -0.2532(3)
C4A C 1.0794(4) -0.0585(3) -0.1881(4)
H3A H 1.1023 -0.1406 -0.1651
C5A C 1.1478(4) -0.0071(3) -0.1556(4)
C6A C 1.1131(4) 0.1149(3) -0.1907(4)
H4A H 1.1579 0.1508 -0.1695
C7A C 0.9793(5) 0.3193(3) -0.3027(3)
H5A H 0.9085 0.3507 -0.3484
H6A H 1.0616 0.3436 -0.3531
C8A C 0.7996(4) 0.3911(3) -0.1482(4)
H7A H 0.7233 0.3766 -0.1553
C9A C 0.8019(4) 0.4377(3) -0.0735(4)
H8A H 0.7260 0.4614 -0.0200
C10A C 1.0084(4) 0.4037(3) -0.1730(4)
H9A H 1.1023 0.3990 -0.2025
C11A C 0.9050(4) -0.0475(3) -0.2905(3)
H10A H 0.9654 -0.0726 -0.3543
H11A H 0.8225 0.0108 -0.3168
C12A C 0.7663(4) -0.1471(3) -0.0986(4)
H12A H 0.6993 -0.0807 -0.0863
C13A C 0.7836(5) -0.2599(3) -0.0244(4)
H13A H 0.7290 -0.2845 0.0486
C14A C 0.9404(4) -0.2627(3) -0.1749(3)
H14A H 1.0161 -0.2885 -0.2273
C15A C 1.2623(5) -0.0818(4) -0.0895(4)
H15A H 1.2303 -0.1444 -0.0227
H16A H 1.2861 -0.0332 -0.0622
C16A C 1.4833(5) -0.2385(4) -0.1225(5)
H17A H 1.4806 -0.2897 -0.0464
C17A C 1.5826(6) -0.2532(4) -0.2138(5)
H18A H 1.6605 -0.3172 -0.2130
C18A C 1.4291(5) -0.0875(4) -0.2743(4)
H19A H 1.3825 -0.0164 -0.3225
Cu1_2 Cu 0.0000 0.5000 1.0000
Cu1_3 Cu 1.0000 -0.5000 0.0000
Cu1_4 Cu 1.0000 1.5000 0.0000
O6A_2 O 1.2097(3) 0.5429(2) -0.1847(2)
N4_2 N 1.1068(3) 0.3321(2) 0.0729(3)
N4A_2 N 0.8932(3) 0.6679(2) -0.0729(3)
O14 O 0.2942(4) 0.1639(3) 0.5217(4)
H20 H 0.2198 0.1888 0.4964
H21 H 0.3141 0.2221 0.5219
O15 O 0.0542(4) 0.3103(3) 0.4216(4)
H22 H -0.0072 0.3703 0.4341
H23 H 0.1308 0.3282 0.3873
loop_
_geom_bond_atom_site_label_1
_geom_bond_atom_site_label_2
_geom_bond_site_symmetry_1
_geom_bond_site_symmetry_2
Mo1 O1 1_555 1_555
Mo2 O4 1_555 1_555
Mo3 O8 1_555 1_555
Mo4 O3 1_555 1_555
Cu1 O6 1_555 1_555
O2 Mo1 1_555 1_555
O3 Mo1 1_555 1_555
O4 Mo1 1_555 1_555
O5 Mo1 1_555 1_555
O6 Mo2 1_555 1_555
O7 Mo2 1_555 1_555
O8 Mo2 1_555 1_555
O9 Mo3 1_555 1_555
O10 Mo1 1_555 1_555
O11 Mo4 1_555 1_555
O12 Mo4 1_555 1_555
O13 Mo4 1_555 1_555
N1 C7 1_555 1_555
N2 Cu1 1_555 1_555
N3 C11 1_555 1_555
N4 C13 1_555 1_555
N5 C15 1_555 1_555
N6 H1 1_555 1_555
C1 C2 1_555 1_555
C2 H2 1_555 1_555
C3 C2 1_555 1_555
C4 C3 1_555 1_555
H3 C4 1_555 1_555
C5 C4 1_555 1_555
C6 C1 1_555 1_555
H4 C6 1_555 1_555
C7 C1 1_555 1_555
H5 C7 1_555 1_555
H6 C7 1_555 1_555
C8 N1 1_555 1_555
H7 C8 1_555 1_555
C9 N2 1_555 1_555
H8 C9 1_555 1_555
C10 N1 1_555 1_555
H9 C10 1_555 1_555
C11 C3 1_555 1_555
H10 C11 1_555 1_555
H11 C11 1_555 1_555
C12 N3 1_555 1_555
H12 C12 1_555 1_555
C13 C12 1_555 1_555
H13 C13 1_555 1_555
C14 N3 1_555 1_555
H14 C14 1_555 1_555
C15 C5 1_555 1_555
H15 C15 1_555 1_555
H16 C15 1_555 1_555
C16 N5 1_555 1_555
H17 C16 1_555 1_555
C17 N6 1_555 1_555
H18 C17 1_555 1_555
C18 N5 1_555 1_555
H19 C18 1_555 1_555
O14 H20 1_555 1_555
H21 O14 1_555 1_555
O15 H22 1_555 1_555
H23 O15 1_555 1_555
Mo1A O1A 1_555 1_555
Mo2A O11 1_555 1_555
Mo3A O4 1_555 1_555
Mo4A O3A 1_555 1_555
O2A Mo1A 1_555 1_555
O3A Mo1A 1_555 1_555
O4A Mo3 1_555 1_555
O5A Mo1A 1_555 1_555
O6A Mo2A 1_555 1_555
O7A Mo2A 1_555 1_555
O8A Mo2A 1_555 1_555
O9A Mo3A 1_555 1_555
O10A Mo1A 1_555 1_555
O11A Mo2 1_555 1_555
O12A Mo4A 1_555 1_555
O13A Mo4A 1_555 1_555
N1A C7A 1_555 1_555
N2A Cu1 1_555 1_555
N3A C11A 1_555 1_555
N4A C13A 1_555 1_555
N5A C15A 1_555 1_555
N6A H1A 1_555 1_555
C1A C2A 1_555 1_555
C2A H2A 1_555 1_555
C3A C2A 1_555 1_555
C4A C3A 1_555 1_555
H3A C4A 1_555 1_555
C5A C4A 1_555 1_555
C6A C1A 1_555 1_555
H4A C6A 1_555 1_555
C7A C1A 1_555 1_555
H5A C7A 1_555 1_555
H6A C7A 1_555 1_555
C8A N1A 1_555 1_555
H7A C8A 1_555 1_555
C9A N2A 1_555 1_555
H8A C9A 1_555 1_555
C10A N1A 1_555 1_555
H9A C10A 1_555 1_555
C11A C3A 1_555 1_555
H10A C11A 1_555 1_555
H11A C11A 1_555 1_555
C12A N3A 1_555 1_555
H12A C12A 1_555 1_555
C13A C12A 1_555 1_555
H13A C13A 1_555 1_555
C14A N3A 1_555 1_555
H14A C14A 1_555 1_555
C15A C5A 1_555 1_555
H15A C15A 1_555 1_555
H16A C15A 1_555 1_555
C16A N5A 1_555 1_555
H17A C16A 1_555 1_555
C17A N6A 1_555 1_555
H18A C17A 1_555 1_555
C18A N5A 1_555 1_555
H19A C18A 1_555 1_555
Cu1_2 O6A 1_555 1_555
Cu1_3 N4A 1_555 1_555
Cu1_4 N4 1_555 1_555
O6A_2 Cu1 1_555 1_555
N4_2 Cu1 1_555 1_555
N4A_2 Cu1 1_555 1_555
Mo2 O5 1_555 1_555
Mo3 O10 1_555 1_555
N2 C10 1_555 1_555
N4 C14 1_555 1_555
N6 C18 1_555 1_555
C5 C6 1_555 1_555
C8 C9 1_555 1_555
C16 C17 1_555 1_555
Mo1A O4A 1_555 1_555
Mo2A O4A 1_555 1_555
Mo2A O5A 1_555 1_555
Mo3A O8A 1_555 1_555
Mo3A O10A 1_555 1_555
Mo4A O11A 1_555 1_555
N2A C10A 1_555 1_555
N4A C14A 1_555 1_555
N6A C18A 1_555 1_555
C5A C6A 1_555 1_555
C8A C9A 1_555 1_555
C16A C17A 1_555 1_555

#END
