
#######################################################################
#
#                 Cambridge Crystallographic Data Centre
#                                CCDC 
#
#######################################################################
#
# If this CIF has been generated from an entry in the Cambridge 
# Structural Database, then it will include bibliographic, chemical, 
# crystal, experimental, refinement or atomic coordinate data resulting 
# from the CCDC's data processing and validation procedures.
#
#######################################################################

data_LIRPAE
_symmetry_cell_setting           trigonal
_symmetry_space_group_name_H-M   'P 32'
_symmetry_Int_Tables_number      145
_space_group_name_Hall           'P 32'
loop_
_symmetry_equiv_pos_site_id
_symmetry_equiv_pos_as_xyz
1 x,y,z
2 -y,x-y,2/3+z
3 -x+y,-x,1/3+z
_cell_length_a                   14.8724(3)
_cell_length_b                   14.8724(3)
_cell_length_c                   7.3333(4)
_cell_angle_alpha                90
_cell_angle_beta                 90
_cell_angle_gamma                120
_cell_volume                     1404.73
loop_
_atom_site_label
_atom_site_type_symbol
_atom_site_fract_x
_atom_site_fract_y
_atom_site_fract_z
Mg1 Mg -0.3438(2) 0.2487(2) 0.4309(3)
Mg2 Mg -0.0860(2) -0.0105(2) -0.3121(3)
Mg3 Mg -0.1834(2) 0.1505(2) 0.5588(4)
O1 O -0.4091(5) 0.1039(5) 0.3378(9)
O2 O -0.2862(5) 0.0657(5) 0.3646(11)
O3 O -0.2690(5) 0.0476(6) -0.2424(10)
O4 O -0.2287(4) -0.0768(4) -0.2138(8)
O5 O -0.1026(5) 0.2681(5) 0.3731(8)
O6 O -0.2123(4) 0.3176(4) 0.2644(7)
O7 O -0.0653(4) 0.2316(5) -0.2571(8)
O8 O -0.0138(4) 0.1231(4) -0.1502(7)
O9 O -0.2343(4) 0.5074(4) 0.3079(7)
O10 O -0.0244(5) 0.0380(5) -0.7530(7)
O11 O -0.1001(4) 0.0741(5) -0.5241(8)
O12 O -0.3094(4) 0.3940(4) 0.5350(7)
C1 C -0.4443(9) -0.0588(11) 0.222(2)
C2 C -0.4472(13) -0.0705(13) 0.0206(19)
C3 C -0.3726(11) -0.1049(11) -0.044(2)
H1 H -0.4145 -0.1750 -0.0941
C4 C -0.3172(11) -0.1150(11) 0.1437(16)
H2 H -0.2939 -0.1651 0.1306
H3 H -0.2595 -0.0486 0.1815
C5 C -0.4123(15) -0.1546(19) 0.278(3)
H4 H -0.3922 -0.1514 0.4043
H5 H -0.4675 -0.2241 0.2480
C6 C -0.5543(14) -0.1107(17) 0.306(3)
H6 H -0.5839 -0.0670 0.2872
H7 H -0.5501 -0.1208 0.4344
H8 H -0.5972 -0.1767 0.2485
C7 C -0.4428(12) 0.0241(11) -0.0409(19)
H9 H -0.3799 0.0830 0.0020
H10 H -0.5015 0.0272 0.0062
H11 H -0.4443 0.0250 -0.1718
C8 C -0.5542(17) -0.1595(19) -0.056(3)
H12 H -0.6084 -0.1450 -0.0242
H13 H -0.5692 -0.2247 -0.0038
H14 H -0.5502 -0.1627 -0.1862
C9 C -0.3714(8) 0.0470(7) 0.3092(14)
C10 C -0.2863(8) -0.0397(8) -0.1880(13)
C11 C -0.1225(7) 0.3207(7) 0.2736(12)
C12 C -0.0110(7) 0.2096(6) -0.1587(12)
C13 C -0.0658(7) 0.0871(7) -0.6876(12)
H15 H -0.0716 0.1348 -0.7614
C14 C -0.2692(6) 0.4842(7) 0.4665(11)
Mg1A Mg -0.2487(2) 0.4075(3) 0.0976(3)
Mg1B Mg -0.4075(3) 0.3438(2) 0.7642(3)
Mg2B Mg 0.0755(3) 0.0860(2) 0.0212(3)
Mg2A Mg 0.0105(2) -0.0755(3) -0.6454(3)
Mg2B_2 Mg 0.0755(3) 0.0860(2) -0.9788(3)
Mg3_2 Mg -0.1834(2) 0.1505(2) -0.4412(4)
Mg3A Mg -0.1505(2) 0.6661(3) 0.2255(4)
O3_2 O -0.2690(5) 0.0476(6) 0.7576(10)
O6B O -0.4701(6) 0.2123(4) 0.5977(7)
O7_2 O -0.0653(4) 0.2316(5) 0.7429(8)
O8A O -0.1231(4) -0.1369(6) -0.4835(7)
O9B O -0.2583(6) 0.2343(4) 0.6412(7)
O10B O 0.0624(7) 0.0244(5) -0.4197(7)
O10A O -0.0380(5) -0.0624(7) -0.0863(7)
O11_2 O -0.1001(4) 0.0741(5) 0.4759(8)
O12A O -0.3940(4) 0.2966(6) 0.2017(7)
loop_
_geom_bond_atom_site_label_1
_geom_bond_atom_site_label_2
_geom_bond_site_symmetry_1
_geom_bond_site_symmetry_2
Mg1 O1 1_555 1_555
Mg2 O4 1_555 1_555
Mg3 O2 1_555 1_555
O1 C9 1_555 1_555
O2 C9 1_555 1_555
O3 C10 1_555 1_555
O4 C10 1_555 1_555
O5 Mg3 1_555 1_555
O6 Mg1 1_555 1_555
O7 C12 1_555 1_555
O8 Mg2 1_555 1_555
O9 C14 1_555 1_555
O10 C13 1_555 1_555
O11 Mg2 1_555 1_555
O12 Mg1 1_555 1_555
C1 C2 1_555 1_555
C2 C3 1_555 1_555
C3 H1 1_555 1_555
C4 C3 1_555 1_555
H2 C4 1_555 1_555
H3 C4 1_555 1_555
C5 C1 1_555 1_555
H4 C5 1_555 1_555
H5 C5 1_555 1_555
C6 C1 1_555 1_555
H6 C6 1_555 1_555
H7 C6 1_555 1_555
H8 C6 1_555 1_555
C7 C2 1_555 1_555
H9 C7 1_555 1_555
H10 C7 1_555 1_555
H11 C7 1_555 1_555
C8 C2 1_555 1_555
H12 C8 1_555 1_555
H13 C8 1_555 1_555
H14 C8 1_555 1_555
C9 C1 1_555 1_555
C10 C3 1_555 1_555
C11 O5 1_555 1_555
C12 O8 1_555 1_555
C13 O11 1_555 1_555
H15 C13 1_555 1_555
C14 O12 1_555 1_555
Mg1A O6 1_555 1_555
Mg1B O12 1_555 1_555
Mg2B O8 1_555 1_555
Mg2A O10 1_555 1_555
Mg2B_2 O10 1_555 1_555
Mg3_2 O3 1_555 1_555
Mg3A O9 1_555 1_555
O3_2 Mg3 1_555 1_555
O6B Mg1 1_555 1_555
O7_2 Mg3 1_555 1_555
O8A Mg2 1_555 1_555
O9B Mg1 1_555 1_555
O10B Mg2 1_555 1_555
O10A Mg2 1_555 1_555
O11_2 Mg3 1_555 1_555
O12A Mg1 1_555 1_555
Mg3 O9B 1_555 1_555
O6 C11 1_555 1_555
O7 Mg3_2 1_555 1_555
O9 Mg1A 1_555 1_555
O11 Mg3_2 1_555 1_555
C4 C5 1_555 1_555
Mg1A O12A 1_555 1_555
Mg1B O6B 1_555 1_555
Mg2B O10A 1_555 1_555
Mg2A O8A 1_555 1_555
Mg2A O10B 1_555 1_555

#END
