
#######################################################################
#
#                 Cambridge Crystallographic Data Centre
#                                CCDC 
#
#######################################################################
#
# If this CIF has been generated from an entry in the Cambridge 
# Structural Database, then it will include bibliographic, chemical, 
# crystal, experimental, refinement or atomic coordinate data resulting 
# from the CCDC's data processing and validation procedures.
#
#######################################################################

data_LIRPUZ
_symmetry_cell_setting           trigonal
_symmetry_space_group_name_H-M   'P -3'
_symmetry_Int_Tables_number      147
_space_group_name_Hall           '-P 3'
loop_
_symmetry_equiv_pos_site_id
_symmetry_equiv_pos_as_xyz
1 x,y,z
2 -y,x-y,z
3 -x+y,-x,z
4 -x,-y,-z
5 y,-x+y,-z
6 x-y,x,-z
_cell_length_a                   11.8441(5)
_cell_length_b                   11.8441(5)
_cell_length_c                   9.2064(4)
_cell_angle_alpha                90
_cell_angle_beta                 90
_cell_angle_gamma                120
_cell_volume                     1118.47
loop_
_atom_site_label
_atom_site_type_symbol
_atom_site_fract_x
_atom_site_fract_y
_atom_site_fract_z
Mo1 Mo 0.3333 0.6667 -0.39501(8)
Zn1 Zn 0.3333 0.6667 -0.00130(10)
O1 O 0.3333 0.6667 -0.2095(6)
O2 O 0.4772(6) 0.6927(9) -0.4611(7)
N1 N 0.4997(3) 0.6800(3) 0.0640(4)
N2 N 0.6722(3) 0.7226(4) 0.1893(4)
C1 C 0.5863(5) 0.6678(4) -0.0256(5)
H1 H 0.5735 0.6459 -0.1236
C2 C 0.6902(5) 0.6924(5) 0.0509(6)
H2 H 0.7628 0.6897 0.0169
C3 C 0.5565(4) 0.7131(4) 0.1906(5)
H3 H 0.5197 0.7283 0.2722
C4 C 0.7588(5) 0.7525(5) 0.3140(6)
H4 H 0.7790 0.6831 0.3259
H5 H 0.7135 0.7548 0.4008
C5 C 0.8852(5) 0.8813(4) 0.2998(5)
C6 C 1.0023(4) 0.8850(4) 0.2979(5)
H6 H 1.0044 0.8076 0.2952
N1A N 1.3200(3) 0.8197(4) 0.0640(4)
N2A N 1.2774(4) 0.9496(5) 0.1893(4)
C1A C 1.3322(4) 0.9185(6) -0.0256(5)
H1A H 1.3541 0.9276 -0.1236
C2A C 1.3076(5) 0.9978(7) 0.0509(6)
H2A H 1.3103 1.0731 0.0169
C3A C 1.2869(4) 0.8434(6) 0.1906(5)
H3A H 1.2717 0.7914 0.2722
C4A C 1.2475(5) 1.0063(7) 0.3140(6)
H4A H 1.3169 1.0959 0.3259
H5A H 1.2452 0.9587 0.4008
C5A C 1.1187(4) 1.0039(6) 0.2998(5)
C6A C 1.1150(4) 1.1173(6) 0.2979(5)
H6A H 1.1924 1.1968 0.2952
N1B N 1.1803(4) 1.5003(3) 0.0640(4)
N2B N 1.0504(5) 1.3278(3) 0.1893(4)
C1B C 1.0815(6) 1.4137(5) -0.0256(5)
H1B H 1.0724 1.4265 -0.1236
C2B C 1.0022(7) 1.3098(5) 0.0509(6)
H2B H 0.9269 1.2372 0.0169
C3B C 1.1566(6) 1.4435(4) 0.1906(5)
H3B H 1.2086 1.4803 0.2722
C4B C 0.9937(7) 1.2412(5) 0.3140(6)
H4B H 0.9041 1.2210 0.3259
H5B H 1.0413 1.2865 0.4008
C5B C 0.9961(6) 1.1148(5) 0.2998(5)
C6B C 0.8827(6) 0.9977(4) 0.2979(5)
H6B H 0.8032 0.9956 0.2952
O2B O 0.2155(11) 0.5228(6) -0.4611(7)
O2A O 0.3073(9) 0.7845(11) -0.4611(7)
Zn1_2 Zn 1.3333 0.6667 -0.00130(10)
Zn1_3 Zn 1.3333 1.6667 -0.00130(10)
N1A_2 N 0.3200(3) 0.8197(4) 0.0640(4)
N1B_2 N 0.1803(4) 0.5003(3) 0.0640(4)
O3 O 0.3873(6) 0.4212(5) 0.3626(6)
H7 H 0.4302 0.3861 0.3933
H8 H 0.3428 0.4239 0.4335
loop_
_geom_bond_atom_site_label_1
_geom_bond_atom_site_label_2
_geom_bond_site_symmetry_1
_geom_bond_site_symmetry_2
Mo1 O1 1_555 1_555
Zn1 O1 1_555 1_555
O2 Mo1 1_555 1_555
N1 Zn1 1_555 1_555
N2 C2 1_555 1_555
C1 N1 1_555 1_555
H1 C1 1_555 1_555
C2 C1 1_555 1_555
H2 C2 1_555 1_555
C3 N1 1_555 1_555
H3 C3 1_555 1_555
C4 N2 1_555 1_555
H4 C4 1_555 1_555
H5 C4 1_555 1_555
C5 C4 1_555 1_555
C6 C5 1_555 1_555
H6 C6 1_555 1_555
O3 H7 1_555 1_555
H8 O3 1_555 1_555
N1A C1A 1_555 1_555
N2A C2A 1_555 1_555
C1A H1A 1_555 1_555
C2A C1A 1_555 1_555
H2A C2A 1_555 1_555
C3A N1A 1_555 1_555
H3A C3A 1_555 1_555
C4A N2A 1_555 1_555
H4A C4A 1_555 1_555
H5A C4A 1_555 1_555
C5A C6 1_555 1_555
C6A C5A 1_555 1_555
H6A C6A 1_555 1_555
N1B C1B 1_555 1_555
N2B C2B 1_555 1_555
C1B H1B 1_555 1_555
C2B C1B 1_555 1_555
H2B C2B 1_555 1_555
C3B N1B 1_555 1_555
H3B C3B 1_555 1_555
C4B N2B 1_555 1_555
H4B C4B 1_555 1_555
H5B C4B 1_555 1_555
C5B C6A 1_555 1_555
C6B C5 1_555 1_555
H6B C6B 1_555 1_555
O2B Mo1 1_555 1_555
O2A Mo1 1_555 1_555
Zn1_2 N1A 1_555 1_555
Zn1_3 N1B 1_555 1_555
N1A_2 Zn1 1_555 1_555
N1B_2 Zn1 1_555 1_555
N2 C3 1_555 1_555
N2A C3A 1_555 1_555
C4A C5A 1_555 1_555
N2B C3B 1_555 1_555
C4B C5B 1_555 1_555
C5B C6B 1_555 1_555

#END
