
#######################################################################
#
#                 Cambridge Crystallographic Data Centre
#                                CCDC 
#
#######################################################################
#
# If this CIF has been generated from an entry in the Cambridge 
# Structural Database, then it will include bibliographic, chemical, 
# crystal, experimental, refinement or atomic coordinate data resulting 
# from the CCDC's data processing and validation procedures.
#
#######################################################################

data_LIRTOW
_symmetry_cell_setting           monoclinic
_symmetry_space_group_name_H-M   'C 2'
_symmetry_Int_Tables_number      5
_space_group_name_Hall           'C 2y'
loop_
_symmetry_equiv_pos_site_id
_symmetry_equiv_pos_as_xyz
1 x,y,z
2 -x,y,-z
3 1/2+x,1/2+y,z
4 1/2-x,1/2+y,-z
_cell_length_a                   18.799(3)
_cell_length_b                   13.813(2)
_cell_length_c                   13.1534(18)
_cell_angle_alpha                90
_cell_angle_beta                 134.40(2)
_cell_angle_gamma                90
_cell_volume                     2440.32
loop_
_atom_site_label
_atom_site_type_symbol
_atom_site_fract_x
_atom_site_fract_y
_atom_site_fract_z
N2 N 0.5000 0.5254(8) 0.5000
C24 C 0.4064(9) 0.4645(9) 0.3995(14)
C24A C 0.5936(9) 0.4645(9) 0.6005(14)
Co1 Co 0.00747(7) -0.01543(7) 0.18264(10)
Co2 Co 0.0000 0.13889(10) 0.0000
Co3 Co 0.04884(15) -0.15063(15) 0.0528(2)
O1 O -0.1427(4) 0.1384(4) -0.0888(5)
O2 O -0.1346(4) 0.0271(4) 0.0435(5)
O3 O 0.0248(6) -0.2385(5) -0.0845(7)
O4 O -0.0375(4) -0.1418(4) 0.2051(6)
O5 O 0.1974(5) -0.1122(9) 0.2299(7)
O6 O 0.1488(4) -0.0630(5) 0.3306(6)
O7 O 0.0300(4) 0.0904(4) 0.3372(6)
O8 O 0.0580(3) 0.1279(4) 0.2071(5)
O9 O 0.0000 -0.0247(6) 0.0000
N1 N 0.0000 0.2931(7) 0.0000
C1 C -0.2915(6) 0.1024(6) -0.1411(8)
C2 C -0.3083(6) 0.1736(7) -0.0686(9)
C3 C -0.4204(5) 0.1910(6) -0.1843(7)
H1 H -0.4517 0.1339 -0.1851
C4 C -0.4482(7) 0.1900(6) -0.3238(9)
H2 H -0.4624 0.2550 -0.3619
H3 H -0.5064 0.1497 -0.3933
C5 C -0.3547(6) 0.1470(7) -0.2870(9)
H4 H -0.3748 0.0984 -0.3563
H5 H -0.3184 0.1977 -0.2857
C6 C -0.3361(7) 0.0024(8) -0.1580(10)
H6 H -0.3263 -0.0417 -0.2037
H7 H -0.4060 0.0093 -0.2148
H8 H -0.3035 -0.0223 -0.0659
C7 C -0.2751(8) 0.1328(11) 0.0714(9)
H9 H -0.2043 0.1233 0.1426
H10 H -0.3079 0.0722 0.0511
H11 H -0.2930 0.1782 0.1058
C8 C -0.2499(7) 0.2671(8) -0.0256(11)
H12 H -0.2668 0.2948 -0.1073
H13 H -0.1798 0.2534 0.0462
H14 H -0.2662 0.3121 0.0112
C9 C -0.1807(6) 0.0883(5) -0.0555(8)
C10 C -0.0457(6) -0.2212(6) 0.1543(9)
C11 C 0.3137(5) -0.1214(6) 0.4792(7)
C12 C 0.3096(5) -0.2250(5) 0.5276(7)
C13 C 0.4230(6) -0.2431(6) 0.6548(9)
H15 H 0.4458 -0.2031 0.7346
C14 C 0.3979(6) -0.1343(6) 0.4859(8)
H16 H 0.4299 -0.0727 0.5041
H17 H 0.3720 -0.1600 0.3967
C15 C 0.4725(6) -0.2054(6) 0.6079(8)
H18 H 0.4864 -0.2582 0.5754
H19 H 0.5345 -0.1728 0.6860
C16 C 0.3435(7) -0.0398(6) 0.5827(10)
H20 H 0.3445 0.0208 0.5479
H21 H 0.4084 -0.0529 0.6748
H22 H 0.2961 -0.0364 0.5898
C17 C 0.2503(6) -0.2299(8) 0.5679(10)
H23 H 0.2518 -0.2948 0.5954
H24 H 0.1826 -0.2111 0.4877
H25 H 0.2794 -0.1867 0.6459
C18 C 0.2626(6) -0.2997(7) 0.4092(10)
H26 H 0.2610 -0.3617 0.4405
H27 H 0.3014 -0.3042 0.3869
H28 H 0.1960 -0.2801 0.3259
C19 C 0.2116(6) -0.0952(6) 0.3320(9)
C20 C 0.0538(5) 0.1530(5) 0.2967(7)
C21 C 0.0836(8) 0.3441(7) 0.0720(11)
H29 H 0.1428 0.3101 0.1231
C22 C 0.0881(10) 0.4439(8) 0.0759(13)
H30 H 0.1479 0.4768 0.1275
C23 C 0.0000 0.4914(13) 0.0000
H31 H 0.0000 0.5588 0.0000
Co1A Co -0.00747(7) -0.01543(7) -0.18264(10)
Co3A Co -0.04884(15) -0.15063(15) -0.0528(2)
O1A O 0.1427(4) 0.1384(4) 0.0888(5)
O3A O -0.0248(6) -0.2385(5) 0.0845(7)
O8A O -0.0580(3) 0.1279(4) -0.2071(5)
C3C C -0.0796(5) -0.3090(6) 0.1843(7)
C10A C 0.0457(6) -0.2212(6) -0.1543(9)
C10C C -0.4543(6) 0.2788(6) -0.1543(9)
C13C C 0.0770(6) 0.2569(6) 0.3452(9)
C20C C 0.4462(5) -0.3470(5) 0.7033(7)
C21A C -0.0836(8) 0.3441(7) -0.0720(11)
C22A C -0.0881(10) 0.4439(8) -0.0759(13)
loop_
_geom_bond_atom_site_label_1
_geom_bond_atom_site_label_2
_geom_bond_site_symmetry_1
_geom_bond_site_symmetry_2
Co1 O2 1_555 1_555
Co2 O1 1_555 1_555
Co3 O3 1_555 1_555
O1 C9 1_555 1_555
O2 C9 1_555 1_555
O3 Co3A 1_555 1_555
O4 Co1 1_555 1_555
O5 Co3 1_555 1_555
O6 Co1 1_555 1_555
O7 Co1 1_555 1_555
O8 Co1 1_555 1_555
O9 Co1 1_555 1_555
N1 Co2 1_555 1_555
N2 C24 1_555 1_555
C1 C2 1_555 1_555
C2 C3 1_555 1_555
C3 H1 1_555 1_555
C4 C3 1_555 1_555
H2 C4 1_555 1_555
H3 C4 1_555 1_555
C5 C1 1_555 1_555
H4 C5 1_555 1_555
H5 C5 1_555 1_555
C6 C1 1_555 1_555
H6 C6 1_555 1_555
H7 C6 1_555 1_555
H8 C6 1_555 1_555
C7 C2 1_555 1_555
H9 C7 1_555 1_555
H10 C7 1_555 1_555
H11 C7 1_555 1_555
C8 C2 1_555 1_555
H12 C8 1_555 1_555
H13 C8 1_555 1_555
H14 C8 1_555 1_555
C9 C1 1_555 1_555
C10 O4 1_555 1_555
C11 C12 1_555 1_555
C12 C13 1_555 1_555
C13 H15 1_555 1_555
C14 C11 1_555 1_555
H16 C14 1_555 1_555
H17 C14 1_555 1_555
C15 C13 1_555 1_555
H18 C15 1_555 1_555
H19 C15 1_555 1_555
C16 C11 1_555 1_555
H20 C16 1_555 1_555
H21 C16 1_555 1_555
H22 C16 1_555 1_555
C17 C12 1_555 1_555
H23 C17 1_555 1_555
H24 C17 1_555 1_555
H25 C17 1_555 1_555
C18 C12 1_555 1_555
H26 C18 1_555 1_555
H27 C18 1_555 1_555
H28 C18 1_555 1_555
C19 O5 1_555 1_555
C20 O7 1_555 1_555
C21 N1 1_555 1_555
H29 C21 1_555 1_555
C22 C21 1_555 1_555
H30 C22 1_555 1_555
C23 C22 1_555 1_555
H31 C23 1_555 1_555
Co1A O9 1_555 1_555
Co3A Co3 1_555 1_555
O1A Co2 1_555 1_555
O3A Co3 1_555 1_555
O8A Co2 1_555 1_555
C3C C10 1_555 1_555
C10A O3 1_555 1_555
C10C C3 1_555 1_555
C13C C20 1_555 1_555
C20C C13 1_555 1_555
C21A N1 1_555 1_555
C22A C23 1_555 1_555
C24A N2 1_555 1_555
Co2 O8 1_555 1_555
Co2 O9 1_555 1_555
Co3 O9 1_555 1_555
O6 C19 1_555 1_555
O8 C20 1_555 1_555
O9 Co3A 1_555 1_555
C4 C5 1_555 1_555
C10 O3A 1_555 1_555
C11 C19 1_555 1_555
C14 C15 1_555 1_555
Co1A O8A 1_555 1_555
Co3A O3A 1_555 1_555
C21A C22A 1_555 1_555

#END
