
#######################################################################
#
#                 Cambridge Crystallographic Data Centre
#                                CCDC 
#
#######################################################################
#
# If this CIF has been generated from an entry in the Cambridge 
# Structural Database, then it will include bibliographic, chemical, 
# crystal, experimental, refinement or atomic coordinate data resulting 
# from the CCDC's data processing and validation procedures.
#
#######################################################################

data_LIRVAK
_symmetry_cell_setting           monoclinic
_symmetry_space_group_name_H-M   'P 21'
_symmetry_Int_Tables_number      4
_space_group_name_Hall           'P 2yb'
loop_
_symmetry_equiv_pos_site_id
_symmetry_equiv_pos_as_xyz
1 x,y,z
2 -x,1/2+y,-z
_cell_length_a                   11.5557(6)
_cell_length_b                   25.6278(13)
_cell_length_c                   14.0999(8)
_cell_angle_alpha                90
_cell_angle_beta                 94.144(2)
_cell_angle_gamma                90
_cell_volume                     4164.73
loop_
_atom_site_label
_atom_site_type_symbol
_atom_site_fract_x
_atom_site_fract_y
_atom_site_fract_z
Cu1 Cu 0.97334(10) 0.35470(4) 0.98743(8)
Cu2 Cu 1.51816(10) 0.12214(4) 0.51771(8)
N1 N 1.4149(7) 0.1643(3) 0.5998(6)
N2 N 0.6025(8) 0.1703(3) 1.4281(6)
N3 N 1.3785(7) 0.5795(3) 1.3937(6)
N4 N 0.8826(7) 0.3100(3) 1.0736(6)
N5 N 0.8712(7) 0.3984(4) 0.8950(6)
N6 N 1.0752(7) 0.3120(4) 0.9096(6)
N7 N 1.0656(7) 0.3988(3) 1.0879(6)
N8 N 0.5699(7) 0.5753(3) 0.5816(6)
C1 C 0.7087(8) 0.1862(4) 1.4440(7)
H1 H 0.7480 0.1773 1.5016
C2 C 0.5490(9) 0.1827(4) 1.3457(8)
H2 H 0.4713 0.1734 1.3356
C3 C 0.9406(10) 0.2834(5) 1.1454(8)
H3 H 1.0212 0.2839 1.1480
C4 C 0.7090(9) 0.2839(4) 1.1472(7)
H4 H 0.6286 0.2852 1.1473
C5 C 0.7651(9) 0.3104(4) 1.0773(7)
H5 H 0.7206 0.3291 1.0315
C6 C 1.1240(10) 0.2313(5) 0.8423(7)
H6 H 1.1056 0.1962 0.8342
C7 C 1.4415(9) 0.2130(5) 0.6250(7)
H7 H 1.5078 0.2272 0.6016
C8 C 0.5118(10) 0.5477(4) 0.6434(8)
H8 H 0.4319 0.5522 0.6436
C9 C 1.3785(8) 0.2451(4) 0.6843(6)
H9 H 1.3995 0.2797 0.6954
C10 C 1.0655(9) 0.2590(4) 0.9000(7)
H10 H 1.0141 0.2417 0.9369
C11 C 1.0130(9) 0.4274(4) 1.1508(8)
H11 H 0.9332 0.4235 1.1530
C12 C 0.7738(9) 0.2555(5) 1.2172(7)
C13 C 0.8895(10) 0.2559(5) 1.2145(7)
H12 H 0.9354 0.2374 1.2598
C14 C 0.5984(9) 0.2080(4) 1.2743(7)
H13 H 0.5573 0.2132 1.2159
C15 C 0.7135(10) 0.2261(4) 1.2906(7)
C16 C 0.7843(10) 0.4271(4) 0.9247(8)
H14 H 0.7694 0.4252 0.9886
C17 C 0.8949(8) 0.4010(4) 0.8043(7)
H15 H 0.9525 0.3797 0.7826
C18 C 1.2179(8) 0.2534(4) 0.7896(7)
C19 C 1.4024(10) 0.5680(4) 1.3028(8)
H16 H 1.4662 0.5845 1.2795
C20 C 0.5668(9) 0.5124(5) 0.7077(8)
H17 H 0.5233 0.4943 0.7499
C21 C 1.2852(8) 0.5533(4) 1.4224(8)
H18 H 1.2612 0.5601 1.4827
C22 C 1.0675(9) 0.4621(4) 1.2121(7)
H19 H 1.0257 0.4810 1.2543
C23 C 1.1816(9) 0.4053(4) 1.0876(7)
H20 H 1.2220 0.3858 1.0453
C24 C 0.8337(9) 0.4358(5) 0.7395(7)
H21 H 0.8530 0.4385 0.6768
C25 C 1.3441(9) 0.5360(4) 1.2453(7)
H22 H 1.3652 0.5326 1.1832
C26 C 0.6832(9) 0.5687(4) 0.5853(7)
H23 H 0.7246 0.5885 0.5441
C27 C 0.7147(10) 0.4596(4) 0.8658(8)
H24 H 0.6510 0.4768 0.8878
C28 C 0.7448(9) 0.5350(4) 0.6451(7)
H25 H 0.8250 0.5322 0.6439
C29 C 1.3251(8) 0.1429(4) 0.6421(7)
H26 H 1.3078 0.1081 0.6295
C30 C 1.2236(8) 0.5168(4) 1.3653(8)
H27 H 1.1625 0.4988 1.3897
C31 C 1.1615(9) 0.3324(5) 0.8630(7)
H28 H 1.1763 0.3679 0.8710
C32 C 0.7446(8) 0.4652(4) 0.7727(7)
C33 C 1.2429(9) 0.4398(4) 1.1476(7)
H29 H 1.3227 0.4432 1.1447
C34 C 0.6833(10) 0.5042(4) 0.7092(7)
C35 C 1.2513(9) 0.5068(4) 1.2741(8)
C36 C 1.1872(8) 0.4686(4) 1.2105(7)
C37 C 1.2578(9) 0.1693(4) 0.7024(7)
H30 H 1.1956 0.1531 0.7288
C38 C 1.2300(8) 0.3054(4) 0.8042(7)
H31 H 1.2864 0.3233 0.7736
C78 C 0.7665(9) 0.2153(4) 1.3806(7)
H72 H 0.8407 0.2279 1.3976
C79 C 1.2873(9) 0.2241(5) 0.7240(7)
Cu2_2 Cu 0.51816(10) 0.12214(4) 1.51771(8)
Cu2A Cu 1.48184(10) 0.62214(4) 1.48229(8)
Cu2A_2 Cu 0.48184(10) 0.62214(4) 0.48229(8)
N2_2 N 1.6025(8) 0.1703(3) 0.4281(6)
N3A N 1.6215(7) 0.0795(3) 0.6063(6)
N8A N 1.4301(7) 0.0753(3) 0.4184(6)
N9 N 0.3348(9) 0.1774(5) 0.0486(7)
N10 N 0.1467(8) 0.3047(5) 0.4655(7)
C39 C 0.3005(15) 0.1522(6) 0.1195(11)
H32 H 0.3002 0.1160 0.1151
C40 C 0.2630(12) 0.1740(5) 0.2038(9)
H33 H 0.2405 0.1525 0.2524
C41 C 0.2106(10) 0.2282(5) 0.3869(9)
H34 H 0.2289 0.1929 0.3913
C42 C 0.2951(10) 0.2556(6) 0.1372(9)
H35 H 0.2963 0.2919 0.1382
C43 C 0.2599(9) 0.2286(4) 0.2139(7)
C44 C 0.3306(10) 0.2280(6) 0.0546(10)
H36 H 0.3514 0.2475 0.0028
C45 C 0.1756(10) 0.2537(6) 0.4628(9)
H37 H 0.1709 0.2346 0.5185
C46 C 0.1903(10) 0.3089(5) 0.3005(9)
H38 H 0.1928 0.3292 0.2460
C47 C 0.1596(11) 0.3291(5) 0.3802(8)
H39 H 0.1444 0.3647 0.3788
C48 C 0.2197(9) 0.2550(5) 0.2998(7)
N11 N -0.0297(7) 0.1931(4) 0.6104(6)
N12 N -0.4674(8) 0.2838(4) 0.9017(7)
C49 C -0.4335(10) 0.2356(5) 0.9025(8)
H40 H -0.4681 0.2129 0.9434
C50 C -0.3499(9) 0.2151(5) 0.8474(8)
H41 H -0.3295 0.1800 0.8516
C51 C -0.0865(10) 0.1628(5) 0.6645(8)
H42 H -0.0651 0.1278 0.6634
C52 C -0.1384(9) 0.2614(5) 0.6749(8)
H43 H -0.1497 0.2972 0.6796
C53 C -0.4153(9) 0.3166(5) 0.8398(7)
H44 H -0.4361 0.3516 0.8356
C54 C -0.1741(9) 0.1743(4) 0.7240(8)
H45 H -0.2098 0.1492 0.7595
C55 C -0.3332(8) 0.2971(5) 0.7850(7)
H46 H -0.2999 0.3201 0.7439
C56 C -0.0555(9) 0.2450(5) 0.6177(8)
H47 H -0.0160 0.2693 0.5833
C57 C -0.2051(9) 0.2305(4) 0.7250(7)
C58 C -0.2971(9) 0.2488(5) 0.7853(8)
C59 C 1.3036(8) -0.1093(4) 1.6516(7)
H48 H 1.3314 -0.1328 1.7032
C60 C 1.4113(9) -0.0892(4) 1.6017(7)
C61 C 1.4412(8) -0.1348(3) 1.5340(7)
C62 C 1.3198(10) -0.1513(6) 1.5009(8)
H49 H 1.2940 -0.1321 1.4440
H50 H 1.3188 -0.1882 1.4856
C63 C 1.2398(7) -0.1409(5) 1.5773(8)
H51 H 1.1718 -0.1222 1.5515
H52 H 1.2147 -0.1736 1.6041
C64 C 1.3887(8) -0.0417(3) 1.5461(7)
H53 H 1.4581 -0.0313 1.5176
H54 H 1.3649 -0.0144 1.5870
H55 H 1.3283 -0.0482 1.4971
C65 C 1.5009(10) -0.0885(5) 1.6709(9)
H56 H 1.5706 -0.0772 1.6438
H57 H 1.5122 -0.1229 1.6968
H58 H 1.4828 -0.0649 1.7205
C66 C 1.5107(12) -0.1192(3) 1.4550(8)
C67 C 1.2382(10) -0.0668(5) 1.6933(8)
O1 O 1.1518(7) -0.0465(3) 1.6457(5)
O3 O 1.2745(6) -0.0518(3) 1.7763(5)
O5 O 1.6101(7) -0.0977(3) 1.4781(6)
O7 O 1.4812(7) -0.1309(4) 1.3689(5)
C77 C 1.4974(9) -0.1774(4) 1.5881(8)
H69 H 1.5137 -0.2054 1.5458
H70 H 1.4470 -0.1897 1.6345
H71 H 1.5687 -0.1651 1.6197
C68 C 0.8129(9) 0.0884(4) 1.1564(7)
C69 C 0.9197(9) 0.0677(5) 1.1090(9)
C70 C 0.9402(13) 0.1032(8) 1.0327(9)
C71 C 0.8408(12) 0.1410(5) 1.0154(11)
H59 H 0.8110 0.1399 0.9493
H60 H 0.8658 0.1763 1.0309
C72 C 0.7451(9) 0.1230(5) 1.0821(8)
H61 H 0.7105 0.1527 1.1120
H62 H 0.6845 0.1033 1.0469
C73 C 0.8589(15) 0.1210(6) 1.2342(11)
H63 H 0.9024 0.1492 1.2096
H64 H 0.9087 0.1005 1.2772
H65 H 0.7961 0.1348 1.2675
C74 C 1.0140(11) 0.0410(6) 1.1680(8)
H66 H 1.0435 0.0640 1.2178
H67 H 1.0754 0.0317 1.1288
H68 H 0.9839 0.0100 1.1954
C75 C 0.7402(12) 0.0417(5) 1.1976(10)
C76 C 1.0286(13) 0.1004(8) 0.9639(9)
O9 O 0.7667(8) 0.0263(4) 1.2823(7)
O11 O 0.6576(7) 0.0237(3) 1.1471(6)
O13 O 1.1054(10) 0.0613(5) 0.9719(7)
O15 O 0.9955(13) 0.1048(6) 0.8838(11)
C80 C 0.882(2) 0.0265(7) 1.035(2)
H73 H 0.8173 0.0393 0.9951
H74 H 0.8602 -0.0049 1.0661
H75 H 0.9455 0.0191 0.9962
O2 O 0.0826(6) 0.1240(3) 0.4869(5)
O4 O 0.5071(9) 0.0233(4) 0.9887(8)
O6 O 0.5683(8) 0.4287(4) 0.0796(6)
O8 O 0.9674(9) 0.4577(4) 0.5247(7)
O10 O 0.4135(7) 0.1108(3) 0.8991(6)
O12 O 0.0758(6) 0.3723(3) 0.6105(5)
O14 O 0.2247(7) 0.0482(3) 0.8266(5)
O16 O 0.4171(6) 0.3548(3) 0.0225(6)
O17 O 0.9293(7) 0.0492(3) 1.4264(6)
O18 O 1.1066(6) 0.0568(3) 1.6511(5)
O19 O 1.7198(6) -0.0715(3) 1.3245(5)
O20 O 1.6126(7) -0.0813(3) 1.1453(6)
loop_
_geom_bond_atom_site_label_1
_geom_bond_atom_site_label_2
_geom_bond_site_symmetry_1
_geom_bond_site_symmetry_2
Cu1 N4 1_555 1_555
Cu2 N1 1_555 1_555
N1 C7 1_555 1_555
N2 C1 1_555 1_555
N3 C19 1_555 1_555
N4 C3 1_555 1_555
N5 Cu1 1_555 1_555
N6 Cu1 1_555 1_555
N7 Cu1 1_555 1_555
N8 C8 1_555 1_555
N9 C39 1_555 1_555
N10 C45 1_555 1_555
N11 C51 1_555 1_555
N12 C49 1_555 1_555
C1 H1 1_555 1_555
C2 N2 1_555 1_555
H2 C2 1_555 1_555
C3 H3 1_555 1_555
C4 H4 1_555 1_555
C5 N4 1_555 1_555
H5 C5 1_555 1_555
C6 H6 1_555 1_555
C7 H7 1_555 1_555
C8 H8 1_555 1_555
C9 C7 1_555 1_555
H9 C9 1_555 1_555
C10 N6 1_555 1_555
H10 C10 1_555 1_555
C11 N7 1_555 1_555
H11 C11 1_555 1_555
C12 C4 1_555 1_555
C13 C3 1_555 1_555
H12 C13 1_555 1_555
C14 C2 1_555 1_555
H13 C14 1_555 1_555
C15 C12 1_555 1_555
C16 N5 1_555 1_555
H14 C16 1_555 1_555
C17 N5 1_555 1_555
H15 C17 1_555 1_555
C18 C6 1_555 1_555
C19 H16 1_555 1_555
C20 C8 1_555 1_555
H17 C20 1_555 1_555
C21 N3 1_555 1_555
H18 C21 1_555 1_555
C22 C11 1_555 1_555
H19 C22 1_555 1_555
C23 N7 1_555 1_555
H20 C23 1_555 1_555
C24 C17 1_555 1_555
H21 C24 1_555 1_555
C25 C19 1_555 1_555
H22 C25 1_555 1_555
C26 N8 1_555 1_555
H23 C26 1_555 1_555
C27 C16 1_555 1_555
H24 C27 1_555 1_555
C28 C26 1_555 1_555
H25 C28 1_555 1_555
C29 N1 1_555 1_555
H26 C29 1_555 1_555
C30 C21 1_555 1_555
H27 C30 1_555 1_555
C31 N6 1_555 1_555
H28 C31 1_555 1_555
C32 C24 1_555 1_555
C33 C23 1_555 1_555
H29 C33 1_555 1_555
C34 C20 1_555 1_555
C35 C25 1_555 1_555
C36 C22 1_555 1_555
C37 C29 1_555 1_555
H30 C37 1_555 1_555
C38 C18 1_555 1_555
H31 C38 1_555 1_555
C39 H32 1_555 1_555
C40 C39 1_555 1_555
H33 C40 1_555 1_555
C41 H34 1_555 1_555
C42 H35 1_555 1_555
C43 C40 1_555 1_555
C44 N9 1_555 1_555
H36 C44 1_555 1_555
C45 C41 1_555 1_555
H37 C45 1_555 1_555
C46 H38 1_555 1_555
C47 N10 1_555 1_555
H39 C47 1_555 1_555
C48 C41 1_555 1_555
C49 H40 1_555 1_555
C50 C49 1_555 1_555
H41 C50 1_555 1_555
C51 H42 1_555 1_555
C52 H43 1_555 1_555
C53 N12 1_555 1_555
H44 C53 1_555 1_555
C54 C51 1_555 1_555
H45 C54 1_555 1_555
C55 C53 1_555 1_555
H46 C55 1_555 1_555
C56 N11 1_555 1_555
H47 C56 1_555 1_555
C57 C52 1_555 1_555
C58 C50 1_555 1_555
C59 H48 1_555 1_555
C60 C59 1_555 1_555
C61 C60 1_555 1_555
C62 C61 1_555 1_555
H49 C62 1_555 1_555
H50 C62 1_555 1_555
C63 C59 1_555 1_555
H51 C63 1_555 1_555
H52 C63 1_555 1_555
C64 C60 1_555 1_555
H53 C64 1_555 1_555
H54 C64 1_555 1_555
H55 C64 1_555 1_555
C65 C60 1_555 1_555
H56 C65 1_555 1_555
H57 C65 1_555 1_555
H58 C65 1_555 1_555
C66 C61 1_555 1_555
C67 C59 1_555 1_555
C68 C69 1_555 1_555
C69 C70 1_555 1_555
C70 C71 1_555 1_555
C71 H59 1_555 1_555
H60 C71 1_555 1_555
C72 C68 1_555 1_555
H61 C72 1_555 1_555
H62 C72 1_555 1_555
C73 C68 1_555 1_555
H63 C73 1_555 1_555
H64 C73 1_555 1_555
H65 C73 1_555 1_555
C74 C69 1_555 1_555
H66 C74 1_555 1_555
H67 C74 1_555 1_555
H68 C74 1_555 1_555
C75 C68 1_555 1_555
C76 C70 1_555 1_555
O1 C67 1_555 1_555
O3 C67 1_555 1_555
O5 C66 1_555 1_555
O7 C66 1_555 1_555
O9 C75 1_555 1_555
O11 C75 1_555 1_555
O13 C76 1_555 1_555
O15 C76 1_555 1_555
C77 C61 1_555 1_555
H69 C77 1_555 1_555
H70 C77 1_555 1_555
H71 C77 1_555 1_555
C78 C1 1_555 1_555
H72 C78 1_555 1_555
C79 C9 1_555 1_555
C80 C69 1_555 1_555
H73 C80 1_555 1_555
H74 C80 1_555 1_555
H75 C80 1_555 1_555
Cu2_2 N2 1_555 1_555
Cu2A N3 1_555 1_555
Cu2A_2 N8 1_555 1_555
N2_2 Cu2 1_555 1_555
N3A Cu2 1_555 1_555
N8A Cu2 1_555 1_555
C4 C5 1_555 1_555
C6 C10 1_555 1_555
C12 C13 1_555 1_555
C14 C15 1_555 1_555
C15 C78 1_555 1_555
C18 C79 1_555 1_555
C27 C32 1_555 1_555
C28 C34 1_555 1_555
C30 C35 1_555 1_555
C31 C38 1_555 1_555
C32 C34 1_555 1_555
C33 C36 1_555 1_555
C35 C36 1_555 1_555
C37 C79 1_555 1_555
C42 C43 1_555 1_555
C42 C44 1_555 1_555
C43 C48 1_555 1_555
C46 C47 1_555 1_555
C46 C48 1_555 1_555
C52 C56 1_555 1_555
C54 C57 1_555 1_555
C55 C58 1_555 1_555
C57 C58 1_555 1_555
C62 C63 1_555 1_555
C71 C72 1_555 1_555

#END
