
#######################################################################
#
#                 Cambridge Crystallographic Data Centre
#                                CCDC 
#
#######################################################################
#
# If this CIF has been generated from an entry in the Cambridge 
# Structural Database, then it will include bibliographic, chemical, 
# crystal, experimental, refinement or atomic coordinate data resulting 
# from the CCDC's data processing and validation procedures.
#
#######################################################################

data_LIRVUE
_symmetry_cell_setting           triclinic
_symmetry_space_group_name_H-M   'P -1'
_symmetry_Int_Tables_number      2
_space_group_name_Hall           '-P 1'
loop_
_symmetry_equiv_pos_site_id
_symmetry_equiv_pos_as_xyz
1 x,y,z
2 -x,-y,-z
_cell_length_a                   6.8288(14)
_cell_length_b                   12.087(2)
_cell_length_c                   16.046(3)
_cell_angle_alpha                69.48(3)
_cell_angle_beta                 82.96(3)
_cell_angle_gamma                74.89(3)
_cell_volume                     1196.8
loop_
_atom_site_label
_atom_site_type_symbol
_atom_site_fract_x
_atom_site_fract_y
_atom_site_fract_z
Sm1 Sm 0.29234(3) 0.41453(2) 1.000994(16)
Sm2 Sm 0.85638(3) 0.24056(2) 1.012450(16)
C1 C 0.4978(7) 0.4264(4) 0.8284(3)
C2 C 0.5849(8) 0.4547(5) 0.7363(4)
C3 C 0.7850(10) 0.4025(8) 0.7194(5)
H1 H 0.8686 0.3518 0.7661
C4 C 0.8591(13) 0.4264(10) 0.6326(6)
H2 H 0.9916 0.3883 0.6211
C5 C 0.7424(16) 0.5045(11) 0.5635(5)
H3 H 0.7960 0.5214 0.5055
C6 C 0.5457(14) 0.5581(8) 0.5797(5)
H4 H 0.4658 0.6116 0.5325
C7 C 0.4650(10) 0.5334(6) 0.6656(4)
H5 H 0.3306 0.5694 0.6761
C8 C 0.9366(7) -0.0758(4) 1.1303(3)
C9 C 0.7930(8) -0.1009(5) 1.2090(4)
C10 C 0.7226(10) -0.2054(5) 1.2382(4)
H6 H 0.7696 -0.2636 1.2103
C11 C 0.5824(11) -0.2249(7) 1.3086(5)
H7 H 0.5341 -0.2952 1.3276
C12 C 0.5157(15) -0.1401(9) 1.3500(6)
H8 H 0.4258 -0.1543 1.3989
C13 C 0.5793(18) -0.0353(10) 1.3203(7)
H9 H 0.5294 0.0233 1.3475
C14 C 0.7178(13) -0.0155(7) 1.2499(5)
H10 H 0.7607 0.0567 1.2298
C15 C 0.4239(7) 0.0132(4) 1.0358(4)
H11 H 0.2961 -0.0034 1.0293
H12 H 0.4740 -0.0383 1.0942
C16 C 0.3931(7) 0.1450(4) 1.0265(3)
C17 C 0.0652(8) 0.2679(4) 1.1917(3)
C18 C 0.0420(9) 0.2345(5) 1.2909(4)
C19 C 0.1798(13) 0.2543(9) 1.3375(5)
H13 H 0.2848 0.2898 1.3069
C20 C 0.1623(17) 0.2216(11) 1.4292(5)
H14 H 0.2575 0.2330 1.4603
C21 C 0.0072(18) 0.1734(10) 1.4734(5)
H15 H -0.0049 0.1521 1.5351
C22 C -0.1310(15) 0.1557(8) 1.4287(5)
H16 H -0.2372 0.1221 1.4600
C23 C -0.1164(12) 0.1870(7) 1.3371(5)
H17 H -0.2136 0.1758 1.3069
O1 O 0.3089(5) 0.4569(4) 0.8394(2)
O2 O 0.6034(4) 0.3941(3) 1.0639(2)
O3 O 0.0494(4) 0.5676(3) 1.0473(2)
O4 O 0.2040(6) 0.3191(4) 1.1531(3)
O5 O 0.9421(5) 0.2442(4) 1.1525(3)
O6 O 0.5353(5) 0.1830(3) 1.0413(3)
O7 O 0.9531(5) 0.0319(3) 1.0938(2)
O8 O 0.6132(6) 0.3738(3) 0.8938(2)
O9 O 0.9668(5) 0.1626(3) 0.8954(2)
O10 O 0.2259(5) 0.2183(3) 1.0037(3)
Sm1A Sm 0.70766(3) 0.58547(2) 0.999006(16)
Sm1A_2 Sm -0.29234(3) 0.58547(2) 0.999006(16)
Sm1_2 Sm 1.29234(3) 0.41453(2) 1.000994(16)
Sm1A_3 Sm 0.70766(3) -0.41453(2) 0.999006(16)
Sm2A Sm 0.14362(3) 0.75944(2) 0.987550(16)
Sm2_2 Sm -0.14362(3) 0.24056(2) 1.012450(16)
Sm2A_2 Sm 1.14362(3) -0.24056(2) 0.987550(16)
Sm2A_3 Sm 0.14362(3) -0.24056(2) 0.987550(16)
Sm2A_4 Sm -0.85638(3) 0.75944(2) 0.987550(16)
C1A C -0.4978(7) 0.5736(4) 1.1716(3)
C2A C -0.5849(8) 0.5453(5) 1.2637(4)
C3A C -0.7850(10) 0.5975(8) 1.2806(5)
H1A H -0.8686 0.6482 1.2339
C4A C -0.8591(13) 0.5736(10) 1.3674(6)
H2A H -0.9916 0.6117 1.3789
C5A C -0.7424(16) 0.4955(11) 1.4365(5)
H3A H -0.7960 0.4786 1.4945
C6A C -0.5457(14) 0.4419(8) 1.4203(5)
H4A H -0.4658 0.3884 1.4675
C7A C -0.4650(10) 0.4666(6) 1.3344(4)
H5A H -0.3306 0.4306 1.3239
C8A C 1.0634(7) 0.0758(4) 0.8697(3)
C9A C 1.2070(8) 0.1009(5) 0.7910(4)
C10A C 1.2774(10) 0.2054(5) 0.7618(4)
H6A H 1.2304 0.2636 0.7897
C11A C 1.4176(11) 0.2249(7) 0.6914(5)
H7A H 1.4659 0.2952 0.6724
C12A C 1.4843(15) 0.1401(9) 0.6500(6)
H8A H 1.5742 0.1543 0.6011
C13A C 1.4207(18) 0.0353(10) 0.6797(7)
H9A H 1.4706 -0.0233 0.6525
C14A C 1.2822(13) 0.0155(7) 0.7501(5)
H10A H 1.2393 -0.0567 0.7702
C15A C 0.5761(7) -0.0132(4) 0.9642(4)
H11A H 0.7039 0.0034 0.9707
H12A H 0.5260 0.0383 0.9058
C16A C 0.6069(7) -0.1450(4) 0.9735(3)
C17_2 C 1.0652(8) 0.2679(4) 1.1917(3)
C18_2 C 1.0420(9) 0.2345(5) 1.2909(4)
C19_2 C 1.1798(13) 0.2543(9) 1.3375(5)
H13_2 H 1.2848 0.2898 1.3069
C20_2 C 1.1623(17) 0.2216(11) 1.4292(5)
H14_2 H 1.2575 0.2330 1.4603
C21_2 C 1.0072(18) 0.1734(10) 1.4734(5)
H15_2 H 0.9951 0.1521 1.5351
C22_2 C 0.8690(15) 0.1557(8) 1.4287(5)
H16_2 H 0.7628 0.1221 1.4600
C23_2 C 0.8836(12) 0.1870(7) 1.3371(5)
H17_2 H 0.7864 0.1758 1.3069
O1A O -0.3089(5) 0.5431(4) 1.1606(2)
O2A O 0.3966(4) 0.6059(3) 0.9361(2)
O2_2 O -0.3966(4) 0.3941(3) 1.0639(2)
O2A_2 O -0.6034(4) 0.6059(3) 0.9361(2)
O3A O -0.0494(4) 0.4324(3) 0.9527(2)
O3A_2 O 0.9506(4) 0.4324(3) 0.9527(2)
O4_2 O 1.2040(6) 0.3191(4) 1.1531(3)
O4A O -0.2040(6) 0.6809(4) 0.8469(3)
O5_2 O -0.0579(5) 0.2442(4) 1.1525(3)
O6A O 0.4647(5) -0.1830(3) 0.9587(3)
O6A_2 O -0.5353(5) 0.8170(3) 0.9587(3)
O6_2 O -0.4647(5) 0.1830(3) 1.0413(3)
O7A O 1.0469(5) -0.0319(3) 0.9062(2)
O7_2 O -0.0469(5) 0.0319(3) 1.0938(2)
O8A O -0.6132(6) 0.6262(3) 1.1062(2)
O8_2 O -0.3868(6) 0.3738(3) 0.8938(2)
O9A O 1.0332(5) -0.1626(3) 1.1046(2)
O9_2 O -0.0332(5) 0.1626(3) 0.8954(2)
O10_2 O 1.2259(5) 0.2183(3) 1.0037(3)
O10A O 0.7741(5) -0.2183(3) 0.9963(3)
O10A_2 O -0.2259(5) 0.7817(3) 0.9963(3)
loop_
_geom_bond_atom_site_label_1
_geom_bond_atom_site_label_2
_geom_bond_site_symmetry_1
_geom_bond_site_symmetry_2
Sm1 O1 1_555 1_555
Sm2 O2 1_555 1_555
C1 C2 1_555 1_555
C2 C3 1_555 1_555
C3 H1 1_555 1_555
C4 C3 1_555 1_555
H2 C4 1_555 1_555
C5 C4 1_555 1_555
H3 C5 1_555 1_555
C6 C5 1_555 1_555
H4 C6 1_555 1_555
C7 C2 1_555 1_555
H5 C7 1_555 1_555
C8 C9 1_555 1_555
C9 C10 1_555 1_555
C10 H6 1_555 1_555
C11 C10 1_555 1_555
H7 C11 1_555 1_555
C12 C11 1_555 1_555
H8 C12 1_555 1_555
C13 C12 1_555 1_555
H9 C13 1_555 1_555
C14 C9 1_555 1_555
H10 C14 1_555 1_555
C15 H11 1_555 1_555
H12 C15 1_555 1_555
C16 C15 1_555 1_555
C17 C18 1_555 1_555
C18 C19 1_555 1_555
C19 H13 1_555 1_555
C20 C19 1_555 1_555
H14 C20 1_555 1_555
C21 C20 1_555 1_555
H15 C21 1_555 1_555
C22 C21 1_555 1_555
H16 C22 1_555 1_555
C23 C18 1_555 1_555
H17 C23 1_555 1_555
O1 C1 1_555 1_555
O2 Sm1 1_555 1_555
O3 Sm1 1_555 1_555
O4 Sm1 1_555 1_555
O5 Sm2 1_555 1_555
O6 Sm1 1_555 1_555
O7 Sm2 1_555 1_555
O8 Sm1 1_555 1_555
O9 Sm2 1_555 1_555
O10 Sm1 1_555 1_555
Sm1A O2 1_555 1_555
Sm1A_2 O3 1_555 1_555
Sm1_2 O3A_2 1_555 1_555
Sm1A_3 O6A 1_555 1_555
Sm2A O3 1_555 1_555
Sm2_2 O10 1_555 1_555
Sm2A_2 O7A 1_555 1_555
Sm2A_3 O6A 1_555 1_555
Sm2A_4 O2A_2 1_555 1_555
C1A C2A 1_555 1_555
C2A C3A 1_555 1_555
C3A H1A 1_555 1_555
C4A C3A 1_555 1_555
H2A C4A 1_555 1_555
C5A C4A 1_555 1_555
H3A C5A 1_555 1_555
C6A C5A 1_555 1_555
H4A C6A 1_555 1_555
C7A C2A 1_555 1_555
H5A C7A 1_555 1_555
C8A O9 1_555 1_555
C9A C8A 1_555 1_555
C10A C9A 1_555 1_555
H6A C10A 1_555 1_555
C11A C10A 1_555 1_555
H7A C11A 1_555 1_555
C12A C11A 1_555 1_555
H8A C12A 1_555 1_555
C13A C12A 1_555 1_555
H9A C13A 1_555 1_555
C14A C9A 1_555 1_555
H10A C14A 1_555 1_555
C15A C15 1_555 1_555
H11A C15A 1_555 1_555
H12A C15A 1_555 1_555
C16A C15A 1_555 1_555
C17_2 O5 1_555 1_555
C18_2 C17_2 1_555 1_555
C19_2 C18_2 1_555 1_555
H13_2 C19_2 1_555 1_555
C20_2 C19_2 1_555 1_555
H14_2 C20_2 1_555 1_555
C21_2 C20_2 1_555 1_555
H15_2 C21_2 1_555 1_555
C22_2 C21_2 1_555 1_555
H16_2 C22_2 1_555 1_555
C23_2 C18_2 1_555 1_555
H17_2 C23_2 1_555 1_555
O1A Sm1A_2 1_555 1_555
O2A Sm1 1_555 1_555
O2_2 Sm1A_2 1_555 1_555
O2A_2 Sm1A_2 1_555 1_555
O3A Sm1 1_555 1_555
O3A_2 Sm2 1_555 1_555
O4_2 Sm1_2 1_555 1_555
O4A Sm1A_2 1_555 1_555
O5_2 C17 1_555 1_555
O6A C16A 1_555 1_555
O6A_2 Sm1A_2 1_555 1_555
O6_2 Sm2_2 1_555 1_555
O7A C8A 1_555 1_555
O7_2 Sm2_2 1_555 1_555
O8A Sm1A_2 1_555 1_555
O8_2 Sm2_2 1_555 1_555
O9A C8 1_555 1_555
O9_2 Sm2_2 1_555 1_555
O10_2 Sm2 1_555 1_555
O10A Sm1A_3 1_555 1_555
O10A_2 Sm1A_2 1_555 1_555
Sm2 O6 1_555 1_555
Sm2 O8 1_555 1_555
C1 O8 1_555 1_555
C6 C7 1_555 1_555
C8 O7 1_555 1_555
C13 C14 1_555 1_555
C16 O6 1_555 1_555
C16 O10 1_555 1_555
C17 O4 1_555 1_555
C22 C23 1_555 1_555
Sm1A O2A 1_555 1_555
Sm1A O3A_2 1_555 1_555
Sm1A_2 O3A 1_555 1_555
Sm1_2 O10_2 1_555 1_555
Sm2A O2A 1_555 1_555
Sm2A O10A_2 1_555 1_555
Sm2_2 O2_2 1_555 1_555
Sm2_2 O3A 1_555 1_555
Sm2_2 O5_2 1_555 1_555
Sm2A_2 O9A 1_555 1_555
Sm2A_2 O10A 1_555 1_555
Sm2A_4 O6A_2 1_555 1_555
Sm2A_4 O8A 1_555 1_555
C1A O1A 1_555 1_555
C1A O8A 1_555 1_555
C6A C7A 1_555 1_555
C13A C14A 1_555 1_555
C16A O10A 1_555 1_555
C17_2 O4_2 1_555 1_555
C22_2 C23_2 1_555 1_555

#END
