
#######################################################################
#
#                 Cambridge Crystallographic Data Centre
#                                CCDC 
#
#######################################################################
#
# If this CIF has been generated from an entry in the Cambridge 
# Structural Database, then it will include bibliographic, chemical, 
# crystal, experimental, refinement or atomic coordinate data resulting 
# from the CCDC's data processing and validation procedures.
#
#######################################################################

data_LIRWIT
_symmetry_cell_setting           triclinic
_symmetry_space_group_name_H-M   'P -1'
_symmetry_Int_Tables_number      2
_space_group_name_Hall           '-P 1'
loop_
_symmetry_equiv_pos_site_id
_symmetry_equiv_pos_as_xyz
1 x,y,z
2 -x,-y,-z
_cell_length_a                   6.9499(11)
_cell_length_b                   12.2419(19)
_cell_length_c                   15.891(3)
_cell_angle_alpha                69.877(2)
_cell_angle_beta                 83.546(2)
_cell_angle_gamma                75.029(2)
_cell_volume                     1225.97
loop_
_atom_site_label
_atom_site_type_symbol
_atom_site_fract_x
_atom_site_fract_y
_atom_site_fract_z
C1 C 0.5059(9) 0.0729(5) 0.6749(4)
C2 C 0.4173(10) 0.0429(6) 0.7674(5)
C3 C 0.2228(13) 0.0981(9) 0.7832(6)
H1 H 0.1438 0.1515 0.7358
C4 C 0.1479(17) 0.0731(13) 0.8694(7)
H2 H 0.0182 0.1108 0.8809
C5 C 0.2641(19) -0.0077(13) 0.9390(6)
H3 H 0.2114 -0.0245 0.9973
C6 C 0.4513(16) -0.0625(10) 0.9246(6)
H4 H 0.5271 -0.1188 0.9720
C7 C 0.5314(12) -0.0344(7) 0.8379(5)
H5 H 0.6641 -0.0686 0.8278
C8 C -0.0614(8) 0.4263(5) 0.6327(4)
C9 C -0.2084(9) 0.3997(5) 0.7096(4)
C10 C -0.2719(11) 0.2945(7) 0.7388(5)
H6 H -0.2206 0.2359 0.7121
C11 C -0.4117(14) 0.2765(9) 0.8078(6)
H7 H -0.4512 0.2045 0.8289
C12 C -0.4919(18) 0.3629(11) 0.8451(8)
H8 H -0.5865 0.3494 0.8914
C13 C -0.437(2) 0.4680(11) 0.8164(8)
H9 H -0.4948 0.5273 0.8417
C14 C -0.2932(15) 0.4861(7) 0.7482(6)
H10 H -0.2535 0.5580 0.7283
C15 C 0.5793(9) 0.4836(5) 0.4656(4)
H11 H 0.5374 0.5342 0.4055
H12 H 0.7043 0.4980 0.4755
C16 C 0.6097(8) 0.3550(5) 0.4731(4)
C17 C 0.9285(10) 0.2306(5) 0.3053(4)
C18 C 0.9550(10) 0.2649(6) 0.2054(4)
C19 C 0.8237(17) 0.2473(11) 0.1554(6)
H13 H 0.7197 0.2121 0.1837
C20 C 0.847(2) 0.2824(15) 0.0618(7)
H14 H 0.7556 0.2723 0.0280
C21 C 0.999(2) 0.3305(12) 0.0208(7)
H15 H 1.0130 0.3532 -0.0413
C22 C 1.1324(19) 0.3464(10) 0.0681(7)
H16 H 1.2391 0.3785 0.0392
C23 C 1.1089(14) 0.3146(8) 0.1600(6)
H17 H 1.1998 0.3271 0.1924
O1 O 0.6889(7) 0.0433(4) 0.6648(3)
O2 O 0.3899(7) 0.1269(4) 0.6083(3)
O3 O 0.3929(6) 0.1069(3) 0.4354(3)
O4 O 0.9517(5) -0.0669(3) 0.4500(3)
O5 O 0.7915(8) 0.1814(4) 0.3410(3)
O6 O 1.0541(7) 0.2521(4) 0.3457(3)
O7 O 0.0370(6) 0.3403(4) 0.6081(3)
O8 O -0.0452(6) 0.5314(3) 0.5973(3)
O9 O 0.4665(6) 0.3176(4) 0.4591(3)
O10 O 0.7748(6) 0.2835(3) 0.4974(3)
Pr1 Pr 0.70825(4) 0.08685(2) 0.497820(19)
Pr2 Pr 0.14361(4) 0.26014(2) 0.48827(2)
C1A C 0.4941(9) -0.0729(5) 0.3251(4)
C2A C 0.5827(10) -0.0429(6) 0.2326(5)
C3A C 0.7772(13) -0.0981(9) 0.2168(6)
H1A H 0.8562 -0.1515 0.2642
C4A C 0.8521(17) -0.0731(13) 0.1306(7)
H2A H 0.9818 -0.1108 0.1191
C5A C 0.7359(19) 0.0077(13) 0.0610(6)
H3A H 0.7886 0.0245 0.0027
C6A C 0.5487(16) 0.0625(10) 0.0754(6)
H4A H 0.4729 0.1188 0.0280
C7A C 0.4686(12) 0.0344(7) 0.1621(5)
H5A H 0.3359 0.0686 0.1722
C8A C 0.0614(8) 0.5737(5) 0.3673(4)
C9A C 0.2084(9) 0.6003(5) 0.2904(4)
C10A C 0.2719(11) 0.7055(7) 0.2612(5)
H6A H 0.2206 0.7641 0.2879
C11A C 0.4117(14) 0.7235(9) 0.1922(6)
H7A H 0.4512 0.7955 0.1711
C12A C 0.4919(18) 0.6371(11) 0.1549(8)
H8A H 0.5865 0.6506 0.1086
C13A C 0.437(2) 0.5320(11) 0.1836(8)
H9A H 0.4948 0.4727 0.1583
C14A C 0.2932(15) 0.5139(7) 0.2518(6)
H10A H 0.2535 0.4420 0.2717
C15A C 0.4207(9) 0.5164(5) 0.5344(4)
H11A H 0.4626 0.4658 0.5945
H12A H 0.2957 0.5020 0.5245
C16A C 0.3903(8) 0.6450(5) 0.5269(4)
C17_2 C -0.0715(10) 0.2306(5) 0.3053(4)
C18_2 C -0.0450(10) 0.2649(6) 0.2054(4)
C19_2 C -0.1763(17) 0.2473(11) 0.1554(6)
H13_2 H -0.2803 0.2121 0.1837
C20_2 C -0.153(2) 0.2824(15) 0.0618(7)
H14_2 H -0.2444 0.2723 0.0280
C21_2 C -0.001(2) 0.3305(12) 0.0208(7)
H15_2 H 0.0130 0.3532 -0.0413
C22_2 C 0.1324(19) 0.3464(10) 0.0681(7)
H16_2 H 0.2391 0.3785 0.0392
C23_2 C 0.1089(14) 0.3146(8) 0.1600(6)
H17_2 H 0.1998 0.3271 0.1924
O1A O 0.3111(7) -0.0433(4) 0.3352(3)
O2A O 0.6101(7) -0.1269(4) 0.3917(3)
O3A O 0.6071(6) -0.1069(3) 0.5646(3)
O4A O 1.0483(5) 0.0669(3) 0.5500(3)
O4A_2 O 0.0483(5) 0.0669(3) 0.5500(3)
O4_2 O -0.0483(5) -0.0669(3) 0.4500(3)
O5_2 O -0.2085(8) 0.1814(4) 0.3410(3)
O5A O 0.2085(8) -0.1814(4) 0.6590(3)
O6_2 O 0.0541(7) 0.2521(4) 0.3457(3)
O6A O 0.9459(7) -0.2521(4) 0.6543(3)
O7A O -0.0370(6) 0.6597(4) 0.3919(3)
O7A_2 O 0.9630(6) -0.3403(4) 0.3919(3)
O8A O 0.0452(6) 0.4686(3) 0.4027(3)
O8_2 O 0.9548(6) -0.4686(3) 0.5973(3)
O9A O 0.5335(6) 0.6824(4) 0.5409(3)
O9A_2 O 0.5335(6) -0.3176(4) 0.5409(3)
O10A O 0.2252(6) 0.7165(3) 0.5026(3)
O10_2 O -0.2252(6) 0.2835(3) 0.4974(3)
O10A_2 O 0.2252(6) -0.2835(3) 0.5026(3)
O10A_3 O 1.2252(6) -0.2835(3) 0.5026(3)
Pr1A Pr 0.29175(4) -0.08685(2) 0.502180(19)
Pr1A_2 Pr 1.29175(4) -0.08685(2) 0.502180(19)
Pr1A_3 Pr 0.29175(4) 0.91315(2) 0.502180(19)
Pr1_2 Pr -0.29175(4) 0.08685(2) 0.497820(19)
Pr2A Pr 0.85639(4) -0.26014(2) 0.51173(2)
Pr2_2 Pr 1.14361(4) 0.26014(2) 0.48827(2)
Pr2A_2 Pr -0.14361(4) 0.73986(2) 0.51173(2)
Pr2A_3 Pr 0.85639(4) 0.73986(2) 0.51173(2)
loop_
_geom_bond_atom_site_label_1
_geom_bond_atom_site_label_2
_geom_bond_site_symmetry_1
_geom_bond_site_symmetry_2
C1 C2 1_555 1_555
C2 C3 1_555 1_555
C3 H1 1_555 1_555
C4 C3 1_555 1_555
H2 C4 1_555 1_555
C5 C4 1_555 1_555
H3 C5 1_555 1_555
C6 C5 1_555 1_555
H4 C6 1_555 1_555
C7 C2 1_555 1_555
H5 C7 1_555 1_555
C8 C9 1_555 1_555
C9 C10 1_555 1_555
C10 H6 1_555 1_555
C11 C10 1_555 1_555
H7 C11 1_555 1_555
C12 C11 1_555 1_555
H8 C12 1_555 1_555
C13 C12 1_555 1_555
H9 C13 1_555 1_555
C14 C9 1_555 1_555
H10 C14 1_555 1_555
C15 H11 1_555 1_555
H12 C15 1_555 1_555
C16 C15 1_555 1_555
C17 C18 1_555 1_555
C18 C19 1_555 1_555
C19 H13 1_555 1_555
C20 C19 1_555 1_555
H14 C20 1_555 1_555
C21 C20 1_555 1_555
H15 C21 1_555 1_555
C22 C21 1_555 1_555
H16 C22 1_555 1_555
C23 C18 1_555 1_555
H17 C23 1_555 1_555
O1 C1 1_555 1_555
O2 C1 1_555 1_555
O3 Pr1 1_555 1_555
O4 Pr1 1_555 1_555
O5 C17 1_555 1_555
O6 C17 1_555 1_555
O7 C8 1_555 1_555
O8 C8 1_555 1_555
O9 C16 1_555 1_555
O10 C16 1_555 1_555
Pr1 O1 1_555 1_555
Pr2 O2 1_555 1_555
C1A C2A 1_555 1_555
C2A C3A 1_555 1_555
C3A H1A 1_555 1_555
C4A C3A 1_555 1_555
H2A C4A 1_555 1_555
C5A C4A 1_555 1_555
H3A C5A 1_555 1_555
C6A C5A 1_555 1_555
H4A C6A 1_555 1_555
C7A C2A 1_555 1_555
H5A C7A 1_555 1_555
C8A C9A 1_555 1_555
C9A C10A 1_555 1_555
C10A H6A 1_555 1_555
C11A C10A 1_555 1_555
H7A C11A 1_555 1_555
C12A C11A 1_555 1_555
H8A C12A 1_555 1_555
C13A C12A 1_555 1_555
H9A C13A 1_555 1_555
C14A C9A 1_555 1_555
H10A C14A 1_555 1_555
C15A C15 1_555 1_555
H11A C15A 1_555 1_555
H12A C15A 1_555 1_555
C16A C15A 1_555 1_555
C17_2 C18_2 1_555 1_555
C18_2 C19_2 1_555 1_555
C19_2 H13_2 1_555 1_555
C20_2 C19_2 1_555 1_555
H14_2 C20_2 1_555 1_555
C21_2 C20_2 1_555 1_555
H15_2 C21_2 1_555 1_555
C22_2 C21_2 1_555 1_555
H16_2 C22_2 1_555 1_555
C23_2 C18_2 1_555 1_555
H17_2 C23_2 1_555 1_555
O1A C1A 1_555 1_555
O2A C1A 1_555 1_555
O3A Pr1 1_555 1_555
O4A Pr1 1_555 1_555
O4A_2 Pr2 1_555 1_555
O4_2 Pr1A 1_555 1_555
O5_2 C17_2 1_555 1_555
O5A Pr1A 1_555 1_555
O6_2 Pr2 1_555 1_555
O6A Pr2A 1_555 1_555
O7A C8A 1_555 1_555
O7A_2 Pr2A 1_555 1_555
O8A Pr2 1_555 1_555
O8_2 Pr2A 1_555 1_555
O9A C16A 1_555 1_555
O9A_2 Pr1A 1_555 1_555
O10A C16A 1_555 1_555
O10_2 Pr2 1_555 1_555
O10A_2 Pr1A 1_555 1_555
O10A_3 Pr1A_2 1_555 1_555
Pr1A O3 1_555 1_555
Pr1A_2 O4 1_555 1_555
Pr1A_3 O9A 1_555 1_555
Pr1_2 O4A_2 1_555 1_555
Pr2A O4 1_555 1_555
Pr2_2 O6 1_555 1_555
Pr2A_2 O8 1_555 1_555
Pr2A_3 O9A 1_555 1_555
C6 C7 1_555 1_555
C13 C14 1_555 1_555
C22 C23 1_555 1_555
O2 Pr1 1_555 1_555
O3 Pr2 1_555 1_555
O5 Pr1 1_555 1_555
O7 Pr2 1_555 1_555
O9 Pr1 1_555 1_555
O9 Pr2 1_555 1_555
O10 Pr1 1_555 1_555
O10 Pr2_2 1_555 1_555
C6A C7A 1_555 1_555
C8A O8A 1_555 1_555
C13A C14A 1_555 1_555
C17_2 O6_2 1_555 1_555
C22_2 C23_2 1_555 1_555
O1A Pr1A 1_555 1_555
O2A Pr1A 1_555 1_555
O2A Pr2A 1_555 1_555
O3A Pr1A 1_555 1_555
O3A Pr2A 1_555 1_555
O4A Pr1A_2 1_555 1_555
O4A Pr2_2 1_555 1_555
O4A_2 Pr1A 1_555 1_555
O4_2 Pr1_2 1_555 1_555
O5_2 Pr1_2 1_555 1_555
O7A Pr2A_2 1_555 1_555
O9A_2 Pr2A 1_555 1_555
O10A Pr1A_3 1_555 1_555
O10A Pr2A_2 1_555 1_555
O10_2 Pr1_2 1_555 1_555
O10A_3 Pr2A 1_555 1_555

#END
