
#######################################################################
#
#                 Cambridge Crystallographic Data Centre
#                                CCDC 
#
#######################################################################
#
# If this CIF has been generated from an entry in the Cambridge 
# Structural Database, then it will include bibliographic, chemical, 
# crystal, experimental, refinement or atomic coordinate data resulting 
# from the CCDC's data processing and validation procedures.
#
#######################################################################

data_LIRWEP
_symmetry_cell_setting           triclinic
_symmetry_space_group_name_H-M   'P -1'
_symmetry_Int_Tables_number      2
_space_group_name_Hall           '-P 1'
loop_
_symmetry_equiv_pos_site_id
_symmetry_equiv_pos_as_xyz
1 x,y,z
2 -x,-y,-z
_cell_length_a                   6.811(2)
_cell_length_b                   12.062(4)
_cell_length_c                   16.063(5)
_cell_angle_alpha                69.416(4)
_cell_angle_beta                 82.855(4)
_cell_angle_gamma                74.869(4)
_cell_volume                     1191.79
loop_
_atom_site_label
_atom_site_type_symbol
_atom_site_fract_x
_atom_site_fract_y
_atom_site_fract_z
Eu1 Eu 0.29226(6) 0.91480(3) 0.00089(3)
Eu2 Eu 0.85649(6) 0.74065(4) 0.01258(3)
C1 C 0.4982(15) 0.9251(8) -0.1715(7)
C2 C 0.5862(16) 0.9558(10) -0.2639(6)
C3 C 0.4632(19) 1.0322(10) -0.3334(7)
H1 H 0.3277 1.0666 -0.3225
C4 C 0.545(2) 1.0568(13) -0.4192(8)
H2 H 0.4641 1.1109 -0.4661
C5 C 0.738(2) 1.0038(17) -0.4363(10)
H3 H 0.7898 1.0206 -0.4947
C6 C 0.860(2) 0.9251(17) -0.3677(10)
H4 H 0.9927 0.8874 -0.3798
C7 C 0.7843(19) 0.9015(15) -0.2794(8)
H5 H 0.8668 0.8501 -0.2323
C8 C 1.0633(13) 0.5752(8) -0.1304(6)
C9 C 1.2078(15) 0.6032(9) -0.2084(7)
C10 C 1.2806(15) 0.7066(10) -0.2379(8)
H6 H 1.2357 0.7647 -0.2098
C11 C 1.420(2) 0.7264(13) -0.3091(10)
H7 H 1.4694 0.7966 -0.3284
C12 C 1.484(2) 0.6409(14) -0.3504(10)
H8 H 1.5723 0.6555 -0.4001
C13 C 1.421(3) 0.5345(15) -0.3204(12)
H9 H 1.4734 0.4753 -0.3471
C14 C 1.280(2) 0.5146(12) -0.2503(9)
H10 H 1.2329 0.4435 -0.2310
C15 C 0.4212(12) 0.5208(10) 0.0339(7)
H11 H 0.2915 0.5069 0.0265
H12 H 0.4644 0.4700 0.0934
C16 C 0.3910(12) 0.6463(9) 0.0270(6)
C17 C 0.0630(15) 0.7679(9) 0.1910(6)
C18 C 0.0433(16) 0.7342(9) 0.2907(7)
C19 C 0.182(2) 0.7521(13) 0.3358(8)
H13 H 0.2912 0.7844 0.3055
C20 C 0.159(3) 0.7208(18) 0.4285(10)
H14 H 0.2503 0.7345 0.4600
C21 C 0.001(3) 0.6699(16) 0.4733(9)
H15 H -0.0104 0.6473 0.5351
C22 C -0.136(2) 0.6528(14) 0.4289(9)
H16 H -0.2430 0.6192 0.4593
C23 C -0.1153(19) 0.6855(12) 0.3374(8)
H17 H -0.2113 0.6744 0.3065
O1 O 0.6144(10) 0.8719(6) -0.1056(4)
O2 O 0.3083(10) 0.9580(7) -0.1588(4)
O3 O 0.3985(8) 1.1053(5) -0.0639(4)
O4 O -0.0490(8) 0.9332(5) -0.0465(4)
O5 O 0.2037(11) 0.8194(6) 0.1522(4)
O6 O -0.0597(9) 0.7425(6) 0.1525(4)
O7 O 0.9676(9) 0.6624(5) -0.1041(4)
O8 O 1.0453(9) 0.4691(5) -0.0929(4)
O9 O 0.5370(9) 0.6838(5) 0.0429(5)
O10 O 0.2246(8) 0.7193(5) 0.0036(4)
Eu1A Eu 0.70774(6) 1.08520(3) -0.00089(3)
Eu1A_2 Eu -0.29226(6) 1.08520(3) -0.00089(3)
Eu1A_3 Eu 0.70774(6) 0.08520(3) -0.00089(3)
Eu1_2 Eu 1.29226(6) 0.91480(3) 0.00089(3)
Eu2A Eu 0.14351(6) 1.25935(4) -0.01258(3)
Eu2_2 Eu -0.14351(6) 0.74065(4) 0.01258(3)
Eu2A_2 Eu 1.14351(6) 0.25935(4) -0.01258(3)
Eu2A_3 Eu 0.14351(6) 0.25935(4) -0.01258(3)
C1A C 0.5018(15) 1.0749(8) 0.1715(7)
C2A C 0.4138(16) 1.0442(10) 0.2639(6)
C3A C 0.5368(19) 0.9678(10) 0.3334(7)
H1A H 0.6723 0.9334 0.3225
C4A C 0.455(2) 0.9432(13) 0.4192(8)
H2A H 0.5359 0.8891 0.4661
C5A C 0.262(2) 0.9962(17) 0.4363(10)
H3A H 0.2102 0.9794 0.4947
C6A C 0.140(2) 1.0749(17) 0.3677(10)
H4A H 0.0073 1.1126 0.3798
C7A C 0.2157(19) 1.0985(15) 0.2794(8)
H5A H 0.1332 1.1499 0.2323
C8A C 0.9367(13) 0.4248(8) 0.1304(6)
C9A C 0.7922(15) 0.3968(9) 0.2084(7)
C10A C 0.7194(15) 0.2934(10) 0.2379(8)
H6A H 0.7643 0.2353 0.2098
C11A C 0.580(2) 0.2736(13) 0.3091(10)
H7A H 0.5306 0.2034 0.3284
C12A C 0.516(2) 0.3591(14) 0.3504(10)
H8A H 0.4277 0.3445 0.4001
C13A C 0.579(3) 0.4655(15) 0.3204(12)
H9A H 0.5266 0.5247 0.3471
C14A C 0.720(2) 0.4854(12) 0.2503(9)
H10A H 0.7671 0.5565 0.2310
C15A C 0.5788(12) 0.4792(10) -0.0339(7)
H11A H 0.7085 0.4931 -0.0265
H12A H 0.5356 0.5300 -0.0934
C16A C 0.6090(12) 0.3537(9) -0.0270(6)
C17_2 C 1.0630(15) 0.7679(9) 0.1910(6)
C18_2 C 1.0433(16) 0.7342(9) 0.2907(7)
C19_2 C 1.182(2) 0.7521(13) 0.3358(8)
H13_2 H 1.2912 0.7844 0.3055
C20_2 C 1.159(3) 0.7208(18) 0.4285(10)
H14_2 H 1.2503 0.7345 0.4600
C21_2 C 1.001(3) 0.6699(16) 0.4733(9)
H15_2 H 0.9896 0.6473 0.5351
C22_2 C 0.864(2) 0.6528(14) 0.4289(9)
H16_2 H 0.7570 0.6192 0.4593
C23_2 C 0.8847(19) 0.6855(12) 0.3374(8)
H17_2 H 0.7887 0.6744 0.3065
O1A O 0.3856(10) 1.1281(6) 0.1056(4)
O2A O 0.6917(10) 1.0420(7) 0.1588(4)
O3A O 0.6015(8) 0.8947(5) 0.0639(4)
O4A O 0.0490(8) 1.0668(5) 0.0465(4)
O4_2 O 0.9510(8) 0.9332(5) -0.0465(4)
O4A_2 O 1.0490(8) 1.0668(5) 0.0465(4)
O5_2 O 1.2037(11) 0.8194(6) 0.1522(4)
O5A O 0.7963(11) 1.1806(6) -0.1522(4)
O6_2 O 0.9403(9) 0.7425(6) 0.1525(4)
O6A O 0.0597(9) 1.2575(6) -0.1525(4)
O7A O 1.0324(9) 0.3376(5) 0.1041(4)
O7A_2 O 0.0324(9) 1.3376(5) 0.1041(4)
O8A O 0.9547(9) 0.5309(5) 0.0929(4)
O8_2 O 0.0453(9) 1.4691(5) -0.0929(4)
O9A O 0.4630(9) 0.3162(5) -0.0429(5)
O9A_2 O 0.4630(9) 1.3162(5) -0.0429(5)
O10A O 0.7754(8) 0.2807(5) -0.0036(4)
O10_2 O 1.2246(8) 0.7193(5) 0.0036(4)
O10A_2 O 0.7754(8) 1.2807(5) -0.0036(4)
O10A_3 O -0.2246(8) 1.2807(5) -0.0036(4)
loop_
_geom_bond_atom_site_label_1
_geom_bond_atom_site_label_2
_geom_bond_site_symmetry_1
_geom_bond_site_symmetry_2
Eu1 O1 1_555 1_555
Eu2 O1 1_555 1_555
C1 C2 1_555 1_555
C2 C3 1_555 1_555
C3 H1 1_555 1_555
C4 C3 1_555 1_555
H2 C4 1_555 1_555
C5 C4 1_555 1_555
H3 C5 1_555 1_555
C6 C5 1_555 1_555
H4 C6 1_555 1_555
C7 C2 1_555 1_555
H5 C7 1_555 1_555
C8 C9 1_555 1_555
C9 C10 1_555 1_555
C10 H6 1_555 1_555
C11 C10 1_555 1_555
H7 C11 1_555 1_555
C12 C11 1_555 1_555
H8 C12 1_555 1_555
C13 C12 1_555 1_555
H9 C13 1_555 1_555
C14 C9 1_555 1_555
H10 C14 1_555 1_555
C15 H11 1_555 1_555
H12 C15 1_555 1_555
C16 C15 1_555 1_555
C17 C18 1_555 1_555
C18 C19 1_555 1_555
C19 H13 1_555 1_555
C20 C19 1_555 1_555
H14 C20 1_555 1_555
C21 C20 1_555 1_555
H15 C21 1_555 1_555
C22 C21 1_555 1_555
H16 C22 1_555 1_555
C23 C18 1_555 1_555
H17 C23 1_555 1_555
O1 C1 1_555 1_555
O2 Eu1 1_555 1_555
O3 Eu1 1_555 1_555
O4 Eu1 1_555 1_555
O5 Eu1 1_555 1_555
O6 C17 1_555 1_555
O7 Eu2 1_555 1_555
O8 C8 1_555 1_555
O9 Eu1 1_555 1_555
O10 Eu1 1_555 1_555
Eu1A O3 1_555 1_555
Eu1A_2 O4 1_555 1_555
Eu1A_3 O9A 1_555 1_555
Eu1_2 O4_2 1_555 1_555
Eu2A O3 1_555 1_555
Eu2_2 O4 1_555 1_555
Eu2A_2 O8 1_555 1_555
Eu2A_3 O9A 1_555 1_555
C1A C2A 1_555 1_555
C2A C3A 1_555 1_555
C3A H1A 1_555 1_555
C4A C3A 1_555 1_555
H2A C4A 1_555 1_555
C5A C4A 1_555 1_555
H3A C5A 1_555 1_555
C6A C5A 1_555 1_555
H4A C6A 1_555 1_555
C7A C2A 1_555 1_555
H5A C7A 1_555 1_555
C8A C9A 1_555 1_555
C9A C10A 1_555 1_555
C10A H6A 1_555 1_555
C11A C10A 1_555 1_555
H7A C11A 1_555 1_555
C12A C11A 1_555 1_555
H8A C12A 1_555 1_555
C13A C12A 1_555 1_555
H9A C13A 1_555 1_555
C14A C9A 1_555 1_555
H10A C14A 1_555 1_555
C15A C15 1_555 1_555
H11A C15A 1_555 1_555
H12A C15A 1_555 1_555
C16A C15A 1_555 1_555
C17_2 C18_2 1_555 1_555
C18_2 C19_2 1_555 1_555
C19_2 H13_2 1_555 1_555
C20_2 C19_2 1_555 1_555
H14_2 C20_2 1_555 1_555
C21_2 C20_2 1_555 1_555
H15_2 C21_2 1_555 1_555
C22_2 C21_2 1_555 1_555
H16_2 C22_2 1_555 1_555
C23_2 C18_2 1_555 1_555
H17_2 C23_2 1_555 1_555
O1A Eu1A 1_555 1_555
O2A Eu1A 1_555 1_555
O3A Eu1 1_555 1_555
O4A Eu1 1_555 1_555
O4_2 Eu2 1_555 1_555
O4A_2 Eu1A 1_555 1_555
O5_2 Eu1_2 1_555 1_555
O5A Eu1A 1_555 1_555
O6_2 Eu2 1_555 1_555
O6A Eu2A 1_555 1_555
O7A Eu2A_2 1_555 1_555
O7A_2 Eu2A 1_555 1_555
O8A Eu2 1_555 1_555
O8_2 Eu2A 1_555 1_555
O9A C16A 1_555 1_555
O9A_2 Eu1A 1_555 1_555
O10A Eu1A_3 1_555 1_555
O10_2 Eu2 1_555 1_555
O10A_2 Eu1A 1_555 1_555
O10A_3 Eu1A_2 1_555 1_555
Eu2 O9 1_555 1_555
Eu2 O3A 1_555 1_555
C1 O2 1_555 1_555
C6 C7 1_555 1_555
C8 O7 1_555 1_555
C13 C14 1_555 1_555
C16 O9 1_555 1_555
C16 O10 1_555 1_555
C17 O5 1_555 1_555
C22 C23 1_555 1_555
O6 Eu2_2 1_555 1_555
O10 Eu2_2 1_555 1_555
Eu1A O3A 1_555 1_555
Eu1A O4_2 1_555 1_555
Eu1A_2 O4A 1_555 1_555
Eu1_2 O4A_2 1_555 1_555
Eu1_2 O10_2 1_555 1_555
Eu2A O1A 1_555 1_555
Eu2A O4A 1_555 1_555
Eu2A O9A_2 1_555 1_555
Eu2A O10A_3 1_555 1_555
Eu2A_2 O10A 1_555 1_555
C1A O1A 1_555 1_555
C1A O2A 1_555 1_555
C6A C7A 1_555 1_555
C8A O7A 1_555 1_555
C8A O8A 1_555 1_555
C13A C14A 1_555 1_555
C16A O10A 1_555 1_555
C17_2 O5_2 1_555 1_555
C17_2 O6_2 1_555 1_555
C22_2 C23_2 1_555 1_555

#END
