
#######################################################################
#
#                 Cambridge Crystallographic Data Centre
#                                CCDC 
#
#######################################################################
#
# If this CIF has been generated from an entry in the Cambridge 
# Structural Database, then it will include bibliographic, chemical, 
# crystal, experimental, refinement or atomic coordinate data resulting 
# from the CCDC's data processing and validation procedures.
#
#######################################################################

data_LIRXOA
_symmetry_cell_setting           monoclinic
_symmetry_space_group_name_H-M   'P 21'
_symmetry_Int_Tables_number      4
_space_group_name_Hall           'P 2yb'
loop_
_symmetry_equiv_pos_site_id
_symmetry_equiv_pos_as_xyz
1 x,y,z
2 -x,1/2+y,-z
_cell_length_a                   8.7615(6)
_cell_length_b                   18.5982(13)
_cell_length_c                   9.0395(6)
_cell_angle_alpha                90
_cell_angle_beta                 105.5030(10)
_cell_angle_gamma                90
_cell_volume                     1419.38
loop_
_atom_site_label
_atom_site_type_symbol
_atom_site_fract_x
_atom_site_fract_y
_atom_site_fract_z
Cd1 Cd 0.35949(3) 0.124301(14) 0.81957(3)
Cd2 Cd -0.16036(3) 0.181865(16) 0.75305(3)
N1 N 0.4304(4) 0.1756(3) 0.6174(4)
N2 N 0.3687(4) 0.0862(2) 1.0732(4)
N3 N 0.6248(4) 0.1170(2) 0.9673(4)
C1 C 0.5575(5) 0.2083(2) 0.4587(5)
N4 N 0.1174(4) 0.0688(2) 0.7102(4)
N5 N 0.2386(5) 0.2272(2) 0.8814(5)
N6 N -0.2064(5) 0.2990(2) 0.8488(4)
C2 C 0.2796(7) -0.0918(3) 0.5596(6)
H1 H 0.1858 -0.1139 0.5062
C3 C 0.2722(5) -0.0290(2) 0.6432(5)
N7 N 0.8041(6) 0.2601(3) 0.1973(5)
N8 N 0.4053(5) 0.0032(2) 0.7234(4)
C4 C -0.0771(5) 0.3347(2) 0.9271(5)
N9 N -0.1183(5) 0.0237(3) 0.6344(6)
N10 N 0.0823(4) 0.2387(2) 0.8611(4)
N11 N 0.2179(6) 0.3306(3) 0.9846(6)
N12 N 0.4004(6) 0.0321(3) 1.3656(5)
C5 C 0.5458(7) -0.0888(3) 0.6347(8)
H2 H 0.6435 -0.1086 0.6357
N13 N -0.0201(5) -0.0250(3) 0.6021(6)
C6 C 0.1246(5) 0.0042(2) 0.6501(5)
N14 N -0.0361(4) 0.0798(2) 0.6990(4)
N15 N 0.4166(7) -0.1205(3) 0.5545(7)
N16 N -0.2279(7) 0.4222(3) 1.0156(6)
N17 N 0.8728(5) 0.0943(3) 1.0665(6)
C7 C 0.5414(6) -0.0264(3) 0.7183(7)
H3 H 0.6360 -0.0050 0.7718
C8 C -0.3466(6) 0.3256(3) 0.8540(6)
H4 H -0.4394 0.3028 0.8006
C9 C 0.6767(6) 0.2454(3) 0.2486(5)
H5 H 0.5763 0.2492 0.1810
C10 C 0.0756(5) 0.3018(3) 0.9249(5)
C11 C 0.2609(6) 0.0501(3) 1.2739(6)
H6 H 0.1713 0.0449 1.3095
N18 N 0.7701(4) 0.1221(3) 0.9494(4)
C12 C 0.6904(5) 0.2249(2) 0.3987(5)
C13 C -0.3544(7) 0.3871(3) 0.9385(7)
H7 H -0.4535 0.4043 0.9407
C14 C 0.9423(7) 0.2531(4) 0.2982(6)
H8 H 1.0333 0.2612 0.2663
N19 N 0.7973(5) 0.0694(3) 1.1666(6)
C15 C 0.5111(5) 0.0687(2) 1.1648(4)
C16 C 0.5261(6) 0.0417(3) 1.3118(5)
H9 H 0.6262 0.0302 1.3736
C17 C 0.2433(5) 0.0764(3) 1.1273(5)
H10 H 0.1427 0.0873 1.0659
C18 C 0.6457(5) 0.0837(3) 1.1009(5)
N20 N 0.5774(4) 0.1830(2) 0.6021(3)
N21 N 0.3269(4) 0.1948(3) 0.4882(4)
N22 N 0.4039(5) 0.2155(3) 0.3867(4)
N23 N 0.8328(4) 0.2198(2) 0.4994(4)
N24 N 0.3186(5) 0.2818(3) 0.9548(6)
C19 C -0.0884(7) 0.3967(3) 1.0096(7)
H11 H 0.0035 0.4206 1.0614
C20 C 0.9589(6) 0.2343(3) 0.4476(6)
H12 H 1.0597 0.2316 0.5147
Cd2_2 Cd 0.83964(3) 0.181865(16) 0.75305(3)
N18_2 N -0.2299(4) 0.1221(3) 0.9494(4)
N20_2 N -0.4226(4) 0.1830(2) 0.6021(3)
N23_2 N -0.1672(4) 0.2198(2) 0.4994(4)
loop_
_geom_bond_atom_site_label_1
_geom_bond_atom_site_label_2
_geom_bond_site_symmetry_1
_geom_bond_site_symmetry_2
Cd1 N1 1_555 1_555
Cd2 N6 1_555 1_555
N1 N20 1_555 1_555
N2 Cd1 1_555 1_555
N3 Cd1 1_555 1_555
C1 C12 1_555 1_555
N4 Cd1 1_555 1_555
N5 Cd1 1_555 1_555
N6 C4 1_555 1_555
C2 H1 1_555 1_555
C3 C2 1_555 1_555
N7 C9 1_555 1_555
N8 Cd1 1_555 1_555
C4 C10 1_555 1_555
N9 N13 1_555 1_555
N10 Cd2 1_555 1_555
N11 C10 1_555 1_555
N12 C11 1_555 1_555
C5 H2 1_555 1_555
N13 C6 1_555 1_555
C6 N4 1_555 1_555
N14 Cd2 1_555 1_555
N15 C2 1_555 1_555
N16 C13 1_555 1_555
N17 N18 1_555 1_555
C7 N8 1_555 1_555
H3 C7 1_555 1_555
C8 N6 1_555 1_555
H4 C8 1_555 1_555
C9 H5 1_555 1_555
C10 N10 1_555 1_555
C11 H6 1_555 1_555
N18 N3 1_555 1_555
C12 C9 1_555 1_555
C13 C8 1_555 1_555
H7 C13 1_555 1_555
C14 N7 1_555 1_555
H8 C14 1_555 1_555
N19 N17 1_555 1_555
C15 N2 1_555 1_555
C16 N12 1_555 1_555
H9 C16 1_555 1_555
C17 N2 1_555 1_555
H10 C17 1_555 1_555
C18 N3 1_555 1_555
N20 C1 1_555 1_555
N21 N1 1_555 1_555
N22 C1 1_555 1_555
N23 C12 1_555 1_555
N24 N5 1_555 1_555
C19 C4 1_555 1_555
H11 C19 1_555 1_555
C20 C14 1_555 1_555
H12 C20 1_555 1_555
Cd2_2 N18 1_555 1_555
N18_2 Cd2 1_555 1_555
N20_2 Cd2 1_555 1_555
N23_2 Cd2 1_555 1_555
N4 N14 1_555 1_555
N5 N10 1_555 1_555
C3 N8 1_555 1_555
C3 C6 1_555 1_555
N9 N14 1_555 1_555
N11 N24 1_555 1_555
C5 N15 1_555 1_555
C5 C7 1_555 1_555
N16 C19 1_555 1_555
C11 C17 1_555 1_555
N19 C18 1_555 1_555
C15 C16 1_555 1_555
C15 C18 1_555 1_555
N20 Cd2_2 1_555 1_555
N21 N22 1_555 1_555
N23 C20 1_555 1_555
N23 Cd2_2 1_555 1_555

#END
