
#######################################################################
#
#                 Cambridge Crystallographic Data Centre
#                                CCDC 
#
#######################################################################
#
# If this CIF has been generated from an entry in the Cambridge 
# Structural Database, then it will include bibliographic, chemical, 
# crystal, experimental, refinement or atomic coordinate data resulting 
# from the CCDC's data processing and validation procedures.
#
#######################################################################

data_LIRYAN
_symmetry_cell_setting           monoclinic
_symmetry_space_group_name_H-M   'C 2/n'
_symmetry_Int_Tables_number      15
_space_group_name_Hall           '-C 2ybc'
loop_
_symmetry_equiv_pos_site_id
_symmetry_equiv_pos_as_xyz
1 x,y,z
2 1/2+x,1/2+y,z
3 1/2-x,y,1/2-z
4 -x,1/2+y,1/2-z
5 -x,-y,-z
6 1/2-x,1/2-y,-z
7 1/2+x,-y,1/2+z
8 x,1/2-y,1/2+z
_cell_length_a                   20.1345(5)
_cell_length_b                   10.5451(3)
_cell_length_c                   13.3534(3)
_cell_angle_alpha                90
_cell_angle_beta                 131.39
_cell_angle_gamma                90
_cell_volume                     2127.04
loop_
_atom_site_label
_atom_site_type_symbol
_atom_site_fract_x
_atom_site_fract_y
_atom_site_fract_z
Cd1 Cd 0.2500 0.52722(3) 0.2500
O1 O 0.21870(11) 0.34820(19) 0.33384(19)
O2 O 0.12565(12) 0.46971(17) 0.04020(17)
N1 N 0.34227(13) 0.6765(2) 0.2588(2)
Cd2 Cd 0.364250(12) 0.260220(16) 0.492800(18)
S1 S 0.13191(4) 0.28178(6) 0.25274(6)
Cd3 Cd 0.0000 0.5000 0.0000
H1 H 0.124(3) 0.514(3) -0.015(3)
N2 N 0.43028(14) 0.6602(2) 0.3474(2)
C1 C 0.33112(16) 0.7922(2) 0.2080(3)
O3 O 0.37886(14) 0.2003(2) 0.3462(2)
O4 O 0.36976(13) 0.30159(18) 0.66043(18)
N3 N 0.53036(15) 0.2397(2) 0.6518(2)
N4 N 0.34187(15) 0.0407(2) 0.4902(2)
O5 O 0.06107(12) 0.37603(19) 0.18838(19)
N5 N 0.40877(14) 0.8466(2) 0.2613(2)
C2 C 0.24451(15) 0.8529(2) 0.1085(2)
N6 N 0.17441(16) 0.7760(2) 0.0334(3)
C3 C 0.23721(18) 0.9842(3) 0.0981(3)
C4 C 0.09588(18) 0.8341(3) -0.0557(3)
H2 H 0.2880 1.0337 0.1533
C5 C 0.08771(18) 0.9648(3) -0.0672(3)
H3 H 0.0451 0.7847 -0.1116
H4 H 0.0318 1.0006 -0.1302
O1B O 0.28130(11) 0.34820(19) 0.16616(19)
O2B O 0.37435(12) 0.46971(17) 0.45980(17)
N1B N 0.15773(13) 0.6765(2) 0.2412(2)
Cd2B Cd 0.135750(12) 0.260220(16) 0.007200(18)
S1B S 0.36809(4) 0.28178(6) 0.24726(6)
H1B H 0.376(3) 0.514(3) 0.515(3)
Cd3B Cd 0.5000 0.5000 0.5000
N2B N 0.06972(14) 0.6602(2) 0.1526(2)
C1B C 0.16888(16) 0.7922(2) 0.2920(3)
O3B O 0.12114(14) 0.2003(2) 0.1538(2)
O4E O 0.13024(13) 0.19841(18) 0.33957(18)
O5D O -0.06107(12) 0.62397(19) -0.18838(19)
O2D O -0.12565(12) 0.53029(17) -0.04020(17)
N2F N -0.06972(14) 0.3398(2) -0.1526(2)
O4B O 0.13024(13) 0.30159(18) -0.16043(18)
N3B N -0.03036(15) 0.2397(2) -0.1518(2)
N4B N 0.15813(15) 0.0407(2) 0.0098(2)
N3D N 0.46964(15) 0.7603(2) 0.3482(2)
O5B O 0.43893(12) 0.37603(19) 0.31162(19)
O4G O 0.36976(13) 0.19841(18) 0.16043(18)
N3F N 0.03036(15) 0.7603(2) 0.1518(2)
N5B N 0.09123(14) 0.8466(2) 0.2387(2)
C2B C 0.25549(15) 0.8529(2) 0.3915(2)
Cd2E Cd 0.135750(12) 0.239780(16) 0.507200(18)
Cd2F Cd -0.135750(12) 0.739780(16) -0.007200(18)
Cd2D Cd 0.635750(12) 0.739780(16) 0.507200(18)
Cd2G Cd 0.364250(12) 0.239780(16) -0.007200(18)
N6B N 0.32559(16) 0.7760(2) 0.4666(3)
C3B C 0.26279(18) 0.9842(3) 0.4019(3)
N4B_2 N 0.15813(15) 1.0407(2) 0.0098(2)
C4B C 0.40412(18) 0.8341(3) 0.5557(3)
N4_2 N 0.34187(15) 1.0407(2) 0.4902(2)
H2B H 0.2120 1.0337 0.3467
Cd2B_2 Cd 0.135750(12) 1.260220(16) 0.007200(18)
C5B C 0.41229(18) 0.9648(3) 0.5672(3)
H3B H 0.4549 0.7847 0.6116
Cd2_2 Cd 0.364250(12) 1.260220(16) 0.492800(18)
H4B H 0.4682 1.0006 0.6302
loop_
_geom_bond_atom_site_label_1
_geom_bond_atom_site_label_2
_geom_bond_site_symmetry_1
_geom_bond_site_symmetry_2
Cd1 O1 1_555 1_555
O1 Cd2 1_555 1_555
O2 Cd1 1_555 1_555
N1 Cd1 1_555 1_555
Cd2 O3 1_555 1_555
S1 O1 1_555 1_555
Cd3 O2 1_555 1_555
H1 O2 1_555 1_555
N2 N1 1_555 1_555
C1 N1 1_555 1_555
O3 S1B 1_555 1_555
O4 Cd2 1_555 1_555
N3 Cd2 1_555 1_555
N4 Cd2 1_555 1_555
O5 S1 1_555 1_555
N5 C1 1_555 1_555
C2 C1 1_555 1_555
N6 C2 1_555 1_555
C3 C2 1_555 1_555
C4 N6 1_555 1_555
H2 C3 1_555 1_555
C5 C4 1_555 1_555
H3 C4 1_555 1_555
H4 C5 1_555 1_555
O1B Cd1 1_555 1_555
O2B Cd1 1_555 1_555
N1B Cd1 1_555 1_555
Cd2B O2 1_555 1_555
S1B O1B 1_555 1_555
H1B O2B 1_555 1_555
Cd3B N2 1_555 1_555
N2B Cd3 1_555 1_555
C1B N1B 1_555 1_555
O3B S1 1_555 1_555
O4E S1 1_555 1_555
O5D Cd3 1_555 1_555
O2D Cd3 1_555 1_555
N2F Cd3 1_555 1_555
O4B Cd2B 1_555 1_555
N3B Cd2B 1_555 1_555
N4B Cd2B 1_555 1_555
N3D N2 1_555 1_555
O5B S1B 1_555 1_555
O4G S1B 1_555 1_555
N3F N2B 1_555 1_555
N5B C1B 1_555 1_555
C2B C1B 1_555 1_555
Cd2E O4E 1_555 1_555
Cd2F O2D 1_555 1_555
Cd2D N3D 1_555 1_555
Cd2G O4G 1_555 1_555
N6B C2B 1_555 1_555
C3B C2B 1_555 1_555
N4B_2 C3 1_555 1_555
C4B N6B 1_555 1_555
N4_2 C3B 1_555 1_555
H2B C3B 1_555 1_555
Cd2B_2 N4B_2 1_555 1_555
C5B C4B 1_555 1_555
H3B C4B 1_555 1_555
Cd2_2 N4_2 1_555 1_555
H4B C5B 1_555 1_555
Cd2 O2B 1_555 1_555
Cd3 O5 1_555 1_555
N5 N3D 1_555 1_555
C5 N4B_2 1_555 1_555
O1B Cd2B 1_555 1_555
O2B Cd3B 1_555 1_555
N1B N2B 1_555 1_555
Cd2B O3B 1_555 1_555
Cd3B O5B 1_555 1_555
N2F N3B 1_555 1_555
N3F N5B 1_555 1_555
N3F Cd2F 1_555 1_555
N4_2 C5B 1_555 1_555

#END
