
#######################################################################
#
#                 Cambridge Crystallographic Data Centre
#                                CCDC 
#
#######################################################################
#
# If this CIF has been generated from an entry in the Cambridge 
# Structural Database, then it will include bibliographic, chemical, 
# crystal, experimental, refinement or atomic coordinate data resulting 
# from the CCDC's data processing and validation procedures.
#
#######################################################################

data_LIRZOB
_symmetry_cell_setting           triclinic
_symmetry_space_group_name_H-M   'P -1'
_symmetry_Int_Tables_number      2
_space_group_name_Hall           '-P 1'
loop_
_symmetry_equiv_pos_site_id
_symmetry_equiv_pos_as_xyz
1 x,y,z
2 -x,-y,-z
_cell_length_a                   11.592(6)
_cell_length_b                   12.226(6)
_cell_length_c                   14.737(5)
_cell_angle_alpha                102.78(4)
_cell_angle_beta                 101.86(4)
_cell_angle_gamma                109.95(5)
_cell_volume                     1822.45
loop_
_atom_site_label
_atom_site_type_symbol
_atom_site_fract_x
_atom_site_fract_y
_atom_site_fract_z
Fe1 Fe -0.5000 0.0000 -0.5000
Fe2 Fe 0.0000 0.0000 0.0000
Cu1 Cu 0.41588(9) -0.02308(10) 0.15513(7)
Cu2 Cu 0.06627(9) 0.23281(8) 0.32963(7)
N1 N -0.5004(6) -0.0649(6) -0.3113(5)
N2 N -0.6603(6) 0.1477(6) -0.4509(5)
N3 N -0.7518(7) -0.2265(7) -0.6228(5)
N4 N 0.2562(6) 0.0005(6) 0.1094(5)
N5 N 0.0191(6) 0.1987(6) 0.1759(5)
N6 N 0.1506(7) 0.1901(7) -0.0836(5)
N7 N 0.5255(6) 0.1276(7) 0.1299(5)
N8 N 0.5602(7) -0.0732(7) 0.1299(5)
N9 N 0.3142(7) -0.1832(6) 0.1713(5)
H1 H 0.2999 -0.1650 0.2294
H2 H 0.2368 -0.2155 0.1253
N10 N -0.0376(6) 0.3321(6) 0.3587(4)
N11 N -0.0761(6) 0.1081(5) 0.3576(4)
N12 N 0.1688(6) 0.1322(5) 0.3302(4)
N13 N 0.2505(6) 0.3727(5) 0.3610(4)
C1 C -0.5032(6) -0.0429(6) -0.3846(5)
C2 C -0.6009(7) 0.0916(6) -0.4700(5)
C3 C -0.6569(8) -0.1418(7) -0.5748(5)
C4 C 0.1578(7) -0.0007(7) 0.0687(5)
C5 C 0.0131(7) 0.1244(7) 0.1092(5)
C6 C 0.0945(8) 0.1194(8) -0.0519(5)
C7 C 0.5099(9) 0.2309(9) 0.1387(6)
H3 H 0.4325 0.2318 0.1463
C8 C 0.6013(10) 0.3379(9) 0.1375(7)
H4 H 0.5869 0.4092 0.1444
C9 C 0.7179(10) 0.3343(11) 0.1252(7)
H5 H 0.7828 0.4039 0.1241
C10 C 0.7339(9) 0.2235(10) 0.1146(7)
H6 H 0.8088 0.2183 0.1047
C11 C 0.6382(8) 0.1239(9) 0.1191(6)
C12 C 0.6511(8) 0.0107(9) 0.1188(6)
H7 H 0.7243 -0.0003 0.1106
C13 C 0.5693(10) -0.1887(9) 0.1341(8)
H8 H 0.5418 -0.2433 0.0677
H9 H 0.6591 -0.1719 0.1630
C14 C 0.4957(13) -0.2510(12) 0.1875(10)
H10 H 0.5361 -0.2018 0.2558
H11 H 0.5067 -0.3272 0.1811
C15 C 0.3592(10) -0.2816(10) 0.1673(9)
H12 H 0.3305 -0.3221 0.2132
H13 H 0.3160 -0.3413 0.1025
C16 C -0.0250(8) 0.4384(8) 0.3483(6)
H14 H 0.0353 0.4741 0.3189
C17 C -0.0972(8) 0.5004(7) 0.3786(6)
H15 H -0.0830 0.5776 0.3724
C18 C -0.1896(8) 0.4462(8) 0.4179(6)
H16 H -0.2383 0.4867 0.4400
C19 C -0.2099(8) 0.3310(7) 0.4245(6)
H17 H -0.2743 0.2917 0.4492
C20 C -0.1336(7) 0.2743(7) 0.3939(5)
C21 C -0.1506(7) 0.1500(7) 0.3913(5)
H18 H -0.2136 0.1029 0.4134
C22 C -0.0951(7) -0.0193(7) 0.3442(6)
H19 H -0.1369 -0.0664 0.2755
H20 H -0.1518 -0.0530 0.3803
C23 C 0.0311(7) -0.0325(7) 0.3785(5)
H21 H 0.0760 0.0195 0.4458
H22 H 0.0125 -0.1167 0.3766
C24 C 0.1186(7) 0.0022(7) 0.3160(6)
H23 H 0.1897 -0.0219 0.3327
H24 H 0.0704 -0.0421 0.2476
C25 C 0.2885(7) 0.1903(7) 0.3411(5)
H25 H 0.3436 0.1501 0.3402
C26 C 0.3351(7) 0.3213(7) 0.3550(5)
C27 C 0.4614(8) 0.3876(8) 0.3617(6)
H26 H 0.5178 0.3491 0.3583
C28 C 0.5033(8) 0.5106(8) 0.3732(7)
H27 H 0.5871 0.5566 0.3759
C29 C 0.4169(8) 0.5634(8) 0.3808(6)
H28 H 0.4422 0.6469 0.3898
C30 C 0.2932(8) 0.4925(7) 0.3749(6)
H29 H 0.2365 0.5302 0.3809
Cu1A Cu -0.41588(9) 0.02308(10) -0.15513(7)
N1A N 0.5004(6) 0.0649(6) 0.3113(5)
N4A N -0.2562(6) -0.0005(6) -0.1094(5)
N7A N -0.5255(6) -0.1276(7) -0.1299(5)
N8A N -0.5602(7) 0.0732(7) -0.1299(5)
N9A N -0.3142(7) 0.1832(6) -0.1713(5)
H1A H -0.2999 0.1650 -0.2294
H2A H -0.2368 0.2155 -0.1253
C4A C -0.1578(7) 0.0007(7) -0.0687(5)
C7A C -0.5099(9) -0.2309(9) -0.1387(6)
H3A H -0.4325 -0.2318 -0.1463
C8A C -0.6013(10) -0.3379(9) -0.1375(7)
H4A H -0.5869 -0.4092 -0.1444
C9A C -0.7179(10) -0.3343(11) -0.1252(7)
H5A H -0.7828 -0.4039 -0.1241
C10A C -0.7339(9) -0.2235(10) -0.1146(7)
H6A H -0.8088 -0.2183 -0.1047
C11A C -0.6382(8) -0.1239(9) -0.1191(6)
C12A C -0.6511(8) -0.0107(9) -0.1188(6)
H7A H -0.7243 0.0003 -0.1106
C13A C -0.5693(10) 0.1887(9) -0.1341(8)
H8A H -0.5418 0.2433 -0.0677
H9A H -0.6591 0.1719 -0.1630
C14A C -0.4957(13) 0.2510(12) -0.1875(10)
H10A H -0.5361 0.2018 -0.2558
H11A H -0.5067 0.3272 -0.1811
C15A C -0.3592(10) 0.2816(10) -0.1673(9)
H12A H -0.3305 0.3221 -0.2132
H13A H -0.3160 0.3413 -0.1025
Cu2A Cu -0.06627(9) -0.23281(8) -0.32963(7)
N5A N -0.0191(6) -0.1987(6) -0.1759(5)
N10A N 0.0376(6) -0.3321(6) -0.3587(4)
N11A N 0.0761(6) -0.1081(5) -0.3576(4)
N12A N -0.1688(6) -0.1322(5) -0.3302(4)
N13A N -0.2505(6) -0.3727(5) -0.3610(4)
C5A C -0.0131(7) -0.1244(7) -0.1092(5)
C16A C 0.0250(8) -0.4384(8) -0.3483(6)
H14A H -0.0353 -0.4741 -0.3189
C17A C 0.0972(8) -0.5004(7) -0.3786(6)
H15A H 0.0830 -0.5776 -0.3724
C18A C 0.1896(8) -0.4462(8) -0.4179(6)
H16A H 0.2383 -0.4867 -0.4400
C19A C 0.2099(8) -0.3310(7) -0.4245(6)
H17A H 0.2743 -0.2917 -0.4492
C20A C 0.1336(7) -0.2743(7) -0.3939(5)
C21A C 0.1506(7) -0.1500(7) -0.3913(5)
H18A H 0.2136 -0.1029 -0.4134
C22A C 0.0951(7) 0.0193(7) -0.3442(6)
H19A H 0.1369 0.0664 -0.2755
H20A H 0.1518 0.0530 -0.3803
C23A C -0.0311(7) 0.0325(7) -0.3785(5)
H21A H -0.0760 -0.0195 -0.4458
H22A H -0.0125 0.1167 -0.3766
C24A C -0.1186(7) -0.0022(7) -0.3160(6)
H23A H -0.1897 0.0219 -0.3327
H24A H -0.0704 0.0421 -0.2476
C25A C -0.2885(7) -0.1903(7) -0.3411(5)
H25A H -0.3436 -0.1501 -0.3402
C26A C -0.3351(7) -0.3213(7) -0.3550(5)
C27A C -0.4614(8) -0.3876(8) -0.3617(6)
H26A H -0.5178 -0.3491 -0.3583
C28A C -0.5033(8) -0.5106(8) -0.3732(7)
H27A H -0.5871 -0.5566 -0.3759
C29A C -0.4169(8) -0.5634(8) -0.3808(6)
H28A H -0.4422 -0.6469 -0.3898
C30A C -0.2932(8) -0.4925(7) -0.3749(6)
H29A H -0.2365 -0.5302 -0.3809
N6A N -0.1506(7) -0.1901(7) 0.0836(5)
C6A C -0.0945(8) -0.1194(8) 0.0519(5)
C1A C -0.4968(6) 0.0429(6) -0.6154(5)
C2A C -0.3991(7) -0.0916(6) -0.5300(5)
C3A C -0.3431(8) 0.1418(7) -0.4252(5)
N1A_2 N -0.4996(6) 0.0649(6) -0.6887(5)
N2A N -0.3397(6) -0.1477(6) -0.5491(5)
N3A N -0.2482(7) 0.2265(7) -0.3772(5)
Cu1_2 Cu -0.58412(9) -0.02308(10) -0.84487(7)
O1 O -0.1993(6) 0.7108(5) 0.4109(5)
O2 O 0.0372(6) 0.6208(6) 0.2183(5)
O3 O -0.1932(7) 0.6601(6) 0.2081(5)
O4 O 0.1142(9) 0.4298(7) 0.1386(6)
O5 O 0.0361(10) 0.6826(10) 0.0484(8)
O7 O 0.3223(14) 0.3881(17) 0.1059(17)
O6? O 0.056(3) 0.587(3) 0.036(2)
O8? O 0.337(3) 0.421(3) 0.065(3)
O9? O 0.5652(18) 0.5221(19) 0.0303(15)
loop_
_geom_bond_atom_site_label_1
_geom_bond_atom_site_label_2
_geom_bond_site_symmetry_1
_geom_bond_site_symmetry_2
Fe1 C1 1_555 1_555
Fe2 C4 1_555 1_555
Cu1 N4 1_555 1_555
Cu2 N5 1_555 1_555
N1 C1 1_555 1_555
N2 C2 1_555 1_555
N3 C3 1_555 1_555
N4 C4 1_555 1_555
N5 C5 1_555 1_555
N6 C6 1_555 1_555
N7 Cu1 1_555 1_555
N8 Cu1 1_555 1_555
N9 Cu1 1_555 1_555
H1 N9 1_555 1_555
H2 N9 1_555 1_555
N10 Cu2 1_555 1_555
N11 Cu2 1_555 1_555
N12 Cu2 1_555 1_555
N13 Cu2 1_555 1_555
C2 Fe1 1_555 1_555
C3 Fe1 1_555 1_555
C5 Fe2 1_555 1_555
C6 Fe2 1_555 1_555
C7 N7 1_555 1_555
H3 C7 1_555 1_555
C8 C7 1_555 1_555
H4 C8 1_555 1_555
C9 C8 1_555 1_555
H5 C9 1_555 1_555
C10 C9 1_555 1_555
H6 C10 1_555 1_555
C11 N7 1_555 1_555
C12 N8 1_555 1_555
H7 C12 1_555 1_555
C13 N8 1_555 1_555
H8 C13 1_555 1_555
H9 C13 1_555 1_555
C14 C13 1_555 1_555
H10 C14 1_555 1_555
H11 C14 1_555 1_555
C15 N9 1_555 1_555
H12 C15 1_555 1_555
H13 C15 1_555 1_555
C16 N10 1_555 1_555
H14 C16 1_555 1_555
C17 C16 1_555 1_555
H15 C17 1_555 1_555
C18 C17 1_555 1_555
H16 C18 1_555 1_555
C19 C18 1_555 1_555
H17 C19 1_555 1_555
C20 N10 1_555 1_555
C21 N11 1_555 1_555
H18 C21 1_555 1_555
C22 N11 1_555 1_555
H19 C22 1_555 1_555
H20 C22 1_555 1_555
C23 C22 1_555 1_555
H21 C23 1_555 1_555
H22 C23 1_555 1_555
C24 N12 1_555 1_555
H23 C24 1_555 1_555
H24 C24 1_555 1_555
C25 N12 1_555 1_555
H25 C25 1_555 1_555
C26 N13 1_555 1_555
C27 C26 1_555 1_555
H26 C27 1_555 1_555
C28 C27 1_555 1_555
H27 C28 1_555 1_555
C29 C28 1_555 1_555
H28 C29 1_555 1_555
C30 N13 1_555 1_555
H29 C30 1_555 1_555
Cu1A N1 1_555 1_555
N1A Cu1 1_555 1_555
N4A Cu1A 1_555 1_555
N7A Cu1A 1_555 1_555
N8A Cu1A 1_555 1_555
N9A Cu1A 1_555 1_555
H1A N9A 1_555 1_555
H2A N9A 1_555 1_555
C4A Fe2 1_555 1_555
C7A N7A 1_555 1_555
H3A C7A 1_555 1_555
C8A C7A 1_555 1_555
H4A C8A 1_555 1_555
C9A C8A 1_555 1_555
H5A C9A 1_555 1_555
C10A C9A 1_555 1_555
H6A C10A 1_555 1_555
C11A N7A 1_555 1_555
C12A N8A 1_555 1_555
H7A C12A 1_555 1_555
C13A N8A 1_555 1_555
H8A C13A 1_555 1_555
H9A C13A 1_555 1_555
C14A C13A 1_555 1_555
H10A C14A 1_555 1_555
H11A C14A 1_555 1_555
C15A N9A 1_555 1_555
H12A C15A 1_555 1_555
H13A C15A 1_555 1_555
Cu2A N5A 1_555 1_555
N5A C5A 1_555 1_555
N10A Cu2A 1_555 1_555
N11A Cu2A 1_555 1_555
N12A Cu2A 1_555 1_555
N13A Cu2A 1_555 1_555
C5A Fe2 1_555 1_555
C16A N10A 1_555 1_555
H14A C16A 1_555 1_555
C17A C16A 1_555 1_555
H15A C17A 1_555 1_555
C18A C17A 1_555 1_555
H16A C18A 1_555 1_555
C19A C18A 1_555 1_555
H17A C19A 1_555 1_555
C20A N10A 1_555 1_555
C21A N11A 1_555 1_555
H18A C21A 1_555 1_555
C22A N11A 1_555 1_555
H19A C22A 1_555 1_555
H20A C22A 1_555 1_555
C23A C22A 1_555 1_555
H21A C23A 1_555 1_555
H22A C23A 1_555 1_555
C24A N12A 1_555 1_555
H23A C24A 1_555 1_555
H24A C24A 1_555 1_555
C25A N12A 1_555 1_555
H25A C25A 1_555 1_555
C26A N13A 1_555 1_555
C27A C26A 1_555 1_555
H26A C27A 1_555 1_555
C28A C27A 1_555 1_555
H27A C28A 1_555 1_555
C29A C28A 1_555 1_555
H28A C29A 1_555 1_555
C30A N13A 1_555 1_555
H29A C30A 1_555 1_555
N6A C6A 1_555 1_555
C6A Fe2 1_555 1_555
C1A Fe1 1_555 1_555
C2A Fe1 1_555 1_555
C3A Fe1 1_555 1_555
N1A_2 C1A 1_555 1_555
N2A C2A 1_555 1_555
N3A C3A 1_555 1_555
Cu1_2 N1A_2 1_555 1_555
C10 C11 1_555 1_555
C11 C12 1_555 1_555
C14 C15 1_555 1_555
C19 C20 1_555 1_555
C20 C21 1_555 1_555
C23 C24 1_555 1_555
C25 C26 1_555 1_555
C29 C30 1_555 1_555
N4A C4A 1_555 1_555
C10A C11A 1_555 1_555
C11A C12A 1_555 1_555
C14A C15A 1_555 1_555
C19A C20A 1_555 1_555
C20A C21A 1_555 1_555
C23A C24A 1_555 1_555
C25A C26A 1_555 1_555
C29A C30A 1_555 1_555

#END
