
#######################################################################
#
#                 Cambridge Crystallographic Data Centre
#                                CCDC 
#
#######################################################################
#
# If this CIF has been generated from an entry in the Cambridge 
# Structural Database, then it will include bibliographic, chemical, 
# crystal, experimental, refinement or atomic coordinate data resulting 
# from the CCDC's data processing and validation procedures.
#
#######################################################################

data_LISBEV
_symmetry_cell_setting           monoclinic
_symmetry_space_group_name_H-M   'P 21/c'
_symmetry_Int_Tables_number      14
_space_group_name_Hall           '-P 2ybc'
loop_
_symmetry_equiv_pos_site_id
_symmetry_equiv_pos_as_xyz
1 x,y,z
2 -x,1/2+y,1/2-z
3 -x,-y,-z
4 x,1/2-y,1/2+z
_cell_length_a                   11.2054(18)
_cell_length_b                   9.9383(16)
_cell_length_c                   8.8327(14)
_cell_angle_alpha                90
_cell_angle_beta                 92.627(2)
_cell_angle_gamma                90
_cell_volume                     982.599
loop_
_atom_site_label
_atom_site_type_symbol
_atom_site_fract_x
_atom_site_fract_y
_atom_site_fract_z
Zn1 Zn 0.126562(18) 0.72768(2) 0.21197(2)
O1 O 0.16538(12) 0.70356(13) -0.00492(14)
O2 O 0.27529(12) 0.68748(14) -0.20219(14)
N1 N -0.00817(14) 0.85431(15) 0.18359(17)
N2 N -0.00541(13) 0.97425(15) 0.25052(16)
N3 N -0.10473(14) 1.04162(15) 0.21083(17)
C1 C -0.11205(17) 0.84326(19) 0.0975(2)
C2 C -0.17404(16) 0.96281(19) 0.1154(2)
C3 C -0.28691(19) 0.9837(2) 0.0430(2)
H1 H -0.3297 1.0627 0.0560
C4 C -0.3303(2) 0.8816(3) -0.0475(3)
H2 H -0.4046 0.8919 -0.0974
C5 C -0.2664(2) 0.7618(2) -0.0675(3)
H3 H -0.2989 0.6961 -0.1320
C6 C -0.1580(2) 0.7391(2) 0.0049(3)
H4 H -0.1168 0.6588 -0.0065
C7 C 0.26101(16) 0.66903(18) -0.0633(2)
C8 C 0.36108(18) 0.6093(2) 0.0329(2)
H5 H 0.3272 0.5516 0.1084
H6 H 0.4033 0.6815 0.0863
C9 C 0.45039(18) 0.5283(2) -0.0523(2)
H7 H 0.4851 0.5852 -0.1279
H8 H 0.4093 0.4547 -0.1047
Zn1B Zn 0.873438(18) 0.27232(2) -0.21197(2)
Zn1C Zn 0.126562(18) 0.77232(2) -0.28803(2)
Zn1A Zn -0.126562(18) 1.22768(2) 0.28803(2)
Zn1A_2 Zn 0.873438(18) 0.22768(2) 0.28803(2)
Zn1A_3 Zn -0.126562(18) 0.22768(2) 0.28803(2)
O1B O 0.83462(12) 0.29644(13) 0.00492(14)
O2B O 0.72471(12) 0.31252(14) 0.20219(14)
O2C O 0.27529(12) 0.81252(14) 0.29781(14)
O2A O 0.72471(12) 0.18748(14) -0.29781(14)
N1A N 0.00817(14) 0.35431(15) 0.31641(17)
N1B N 1.00817(14) 0.14569(15) -0.18359(17)
N2A N 0.00541(13) 0.47425(15) 0.24948(16)
N3A N 0.10473(14) 0.54162(15) 0.28917(17)
N3C N 0.89527(14) 0.45838(15) -0.28917(17)
C1A C 0.11205(17) 0.34326(19) 0.4025(2)
C2A C 0.17404(16) 0.46281(19) 0.3846(2)
C3A C 0.28691(19) 0.4837(2) 0.4570(2)
H1A H 0.3297 0.5627 0.4440
C4A C 0.3303(2) 0.3816(3) 0.5475(3)
H2A H 0.4046 0.3919 0.5974
C5A C 0.2664(2) 0.2618(2) 0.5675(3)
H3A H 0.2989 0.1961 0.6320
C6A C 0.1580(2) 0.2391(2) 0.4951(3)
H4A H 0.1168 0.1588 0.5065
C7B C 0.73899(16) 0.33097(18) 0.0633(2)
C8B C 0.63892(18) 0.3907(2) -0.0329(2)
H5B H 0.6728 0.4484 -0.1084
H6B H 0.5967 0.3185 -0.0863
C9B C 0.54961(18) 0.4717(2) 0.0523(2)
H7B H 0.5149 0.4148 0.1279
H8B H 0.5907 0.5453 0.1047
loop_
_geom_bond_atom_site_label_1
_geom_bond_atom_site_label_2
_geom_bond_site_symmetry_1
_geom_bond_site_symmetry_2
Zn1 O1 1_555 1_555
O1 C7 1_555 1_555
O2 C7 1_555 1_555
N1 Zn1 1_555 1_555
N2 N1 1_555 1_555
N3 N2 1_555 1_555
C1 N1 1_555 1_555
C2 N3 1_555 1_555
C3 C2 1_555 1_555
H1 C3 1_555 1_555
C4 C3 1_555 1_555
H2 C4 1_555 1_555
C5 C4 1_555 1_555
H3 C5 1_555 1_555
C6 C1 1_555 1_555
H4 C6 1_555 1_555
C7 C8 1_555 1_555
C8 H5 1_555 1_555
H6 C8 1_555 1_555
C9 C8 1_555 1_555
H7 C9 1_555 1_555
H8 C9 1_555 1_555
Zn1B O1B 1_555 1_555
Zn1C O2 1_555 1_555
Zn1A N3 1_555 1_555
Zn1A_2 O2B 1_555 1_555
Zn1A_3 N1A 1_555 1_555
O1B C7B 1_555 1_555
O2B C7B 1_555 1_555
O2C Zn1 1_555 1_555
O2A Zn1B 1_555 1_555
N1A N2A 1_555 1_555
N1B Zn1B 1_555 1_555
N2A N3A 1_555 1_555
N3A Zn1 1_555 1_555
N3C Zn1B 1_555 1_555
C1A N1A 1_555 1_555
C2A N3A 1_555 1_555
C3A C2A 1_555 1_555
H1A C3A 1_555 1_555
C4A C3A 1_555 1_555
H2A C4A 1_555 1_555
C5A C4A 1_555 1_555
H3A C5A 1_555 1_555
C6A C1A 1_555 1_555
H4A C6A 1_555 1_555
C7B C8B 1_555 1_555
C8B H5B 1_555 1_555
H6B C8B 1_555 1_555
C9B C9 1_555 1_555
H7B C9B 1_555 1_555
H8B C9B 1_555 1_555
C1 C2 1_555 1_555
C5 C6 1_555 1_555
C1A C2A 1_555 1_555
C5A C6A 1_555 1_555
C8B C9B 1_555 1_555

#END
