
#######################################################################
#
#                 Cambridge Crystallographic Data Centre
#                                CCDC 
#
#######################################################################
#
# If this CIF has been generated from an entry in the Cambridge 
# Structural Database, then it will include bibliographic, chemical, 
# crystal, experimental, refinement or atomic coordinate data resulting 
# from the CCDC's data processing and validation procedures.
#
#######################################################################

data_LISBIZ
_symmetry_cell_setting           triclinic
_symmetry_space_group_name_H-M   'P -1'
_symmetry_Int_Tables_number      2
_space_group_name_Hall           '-P 1'
loop_
_symmetry_equiv_pos_site_id
_symmetry_equiv_pos_as_xyz
1 x,y,z
2 -x,-y,-z
_cell_length_a                   9.277(3)
_cell_length_b                   11.163(4)
_cell_length_c                   11.396(4)
_cell_angle_alpha                70.286(4)
_cell_angle_beta                 67.456(4)
_cell_angle_gamma                67.131(4)
_cell_volume                     979.399
loop_
_atom_site_label
_atom_site_type_symbol
_atom_site_fract_x
_atom_site_fract_y
_atom_site_fract_z
Zn1 Zn 1.0000 1.0000 0.5000
Zn2 Zn 0.85269(5) 0.75973(5) 0.52633(5)
Zn3 Zn 0.64190(5) 0.97772(5) 0.72096(5)
O1 O 1.1575(4) 0.8052(3) 0.5263(4)
O2 O 1.0827(3) 0.6630(3) 0.4814(3)
O3 O 0.9835(4) 0.9948(4) 0.6871(3)
O4 O 0.7381(4) 1.0030(4) 0.8293(3)
O5 O 0.5767(4) 0.8154(3) 0.8131(3)
O6 O 0.7503(4) 0.6611(3) 0.6987(3)
O7 O 0.7896(3) 0.9435(3) 0.5493(3)
H1 H 0.7433 0.9980 0.4922
N1 N 0.5565(4) 0.8763(4) 0.3032(4)
N2 N 0.6129(4) 0.8769(4) 0.3942(4)
N3 N 0.7492(4) 0.7764(4) 0.3969(4)
C1 C 0.6596(5) 0.7714(5) 0.2466(4)
C2 C 0.7821(5) 0.7083(4) 0.3053(4)
C3 C 0.9093(6) 0.5951(5) 0.2703(5)
H2 H 0.9941 0.5537 0.3084
C4 C 0.9005(7) 0.5493(6) 0.1762(6)
H3 H 0.9800 0.4727 0.1519
C5 C 0.7769(8) 0.6135(7) 0.1162(6)
H4 H 0.7779 0.5788 0.0522
C6 C 0.6526(7) 0.7265(6) 0.1472(5)
H5 H 0.5707 0.7697 0.1061
C7 C 1.1849(5) 0.6969(4) 0.5018(4)
C8 C 1.3496(5) 0.5951(4) 0.4998(4)
C9 C 1.4479(5) 0.6050(5) 0.5589(5)
H6 H 1.4130 0.6758 0.5987
C10 C 1.4018(5) 0.4895(4) 0.4404(5)
H7 H 1.3361 0.4823 0.4003
C11 C 0.8856(5) 0.9984(4) 0.7974(4)
C12 C 0.9445(5) 0.9993(4) 0.9029(4)
C13 C 0.8362(5) 1.0156(5) 1.0245(4)
H8 H 0.7262 1.0262 1.0411
C14 C 1.1087(5) 0.9838(5) 0.8788(4)
H9 H 1.1818 0.9729 0.7974
C15 C 0.6371(5) 0.6981(4) 0.7963(4)
C16 C 0.5657(5) 0.5947(4) 0.9008(4)
C17 C 0.6364(6) 0.4614(5) 0.8989(5)
H10 H 0.7273 0.4350 0.8304
C18 C 0.4269(6) 0.6336(5) 1.0018(5)
H11 H 0.3766 0.7235 1.0025
Zn1_2 Zn 2.0000 0.0000 0.5000
Zn1_3 Zn 1.0000 1.0000 1.5000
Zn2A Zn 2.14731(5) 0.24027(5) 0.47367(5)
Zn2A_2 Zn 0.14731(5) 0.24027(5) 1.47367(5)
Zn2A_3 Zn 1.14731(5) 1.24027(5) 0.47367(5)
Zn2A_4 Zn 0.14731(5) 1.24027(5) 0.47367(5)
Zn3A Zn 1.35810(5) 1.02228(5) 1.27904(5)
Zn3A_2 Zn 0.35810(5) 1.02228(5) 0.27904(5)
Zn3A_3 Zn 0.35810(5) 0.02228(5) 1.27904(5)
Zn3A_4 Zn 1.35810(5) 1.02228(5) 0.27904(5)
O1A O 1.8425(4) 0.1948(3) 0.4737(4)
O1A_2 O 0.8425(4) 1.1948(3) 0.4737(4)
O2A O 1.9173(3) 0.3370(3) 0.5186(3)
O3A O 1.0165(4) 1.0052(4) 1.3129(3)
O3A_2 O 1.0165(4) 1.0052(4) 0.3129(3)
O4A O 1.2619(4) 0.9970(4) 1.1707(3)
O5A O 0.4233(4) 0.1846(3) 1.1869(3)
O5A_2 O 1.4233(4) 1.1846(3) 1.1869(3)
O6A O 0.2497(4) 0.3389(3) 1.3013(3)
O6A_2 O 2.2497(4) 0.3389(3) 0.3013(3)
O7A O 1.2104(3) 1.0565(3) 0.4507(3)
O7A_2 O 2.2104(3) 0.0565(3) 0.4507(3)
O7A_3 O 1.2104(3) 1.0565(3) 1.4507(3)
H1A H 1.2567 1.0020 0.5078
H1A_2 H 2.2567 0.0020 0.5078
H1A_3 H 1.2567 1.0020 1.5078
N1A N 0.4435(4) 1.1237(4) 0.6968(4)
N1_2 N 1.5565(4) 0.8763(4) 1.3032(4)
N2A N 0.3871(4) 1.1231(4) 0.6058(4)
N3A N 0.2508(4) 1.2236(4) 0.6031(4)
N3A_2 N 2.2508(4) 0.2236(4) 0.6031(4)
C1A C 0.3404(5) 1.2286(5) 0.7534(4)
C2A C 0.2179(5) 1.2917(4) 0.6947(4)
C3A C 0.0907(6) 1.4049(5) 0.7297(5)
H2A H 0.0059 1.4463 0.6916
C4A C 0.0995(7) 1.4507(6) 0.8238(6)
H3A H 0.0200 1.5273 0.8481
C5A C 0.2231(8) 1.3865(7) 0.8838(6)
H4A H 0.2221 1.4212 0.9478
C6A C 0.3474(7) 1.2735(6) 0.8528(5)
H5A H 0.4293 1.2303 0.8939
C7A C 1.8151(5) 0.3031(4) 0.4982(4)
C8A C 1.6504(5) 0.4049(4) 0.5002(4)
C9A C 1.5521(5) 0.3950(5) 0.4411(5)
H6A H 1.5870 0.3242 0.4013
C10A C 1.5982(5) 0.5105(4) 0.5596(5)
H7A H 1.6639 0.5177 0.5997
C11A C 1.1144(5) 1.0016(4) 1.2026(4)
C12A C 1.0555(5) 1.0007(4) 1.0971(4)
C13A C 1.1638(5) 0.9844(5) 0.9755(4)
H8A H 1.2738 0.9738 0.9589
C14A C 0.8913(5) 1.0162(5) 1.1212(4)
H9A H 0.8182 1.0271 1.2026
C15A C 0.3629(5) 0.3019(4) 1.2037(4)
C16A C 0.4343(5) 0.4053(4) 1.0992(4)
C17A C 0.3636(6) 0.5386(5) 1.1011(5)
H10A H 0.2727 0.5650 1.1696
C18A C 0.5731(6) 0.3664(5) 0.9982(5)
H11A H 0.6234 0.2765 0.9975
loop_
_geom_bond_atom_site_label_1
_geom_bond_atom_site_label_2
_geom_bond_site_symmetry_1
_geom_bond_site_symmetry_2
Zn1 O1 1_555 1_555
Zn2 O2 1_555 1_555
Zn3 O4 1_555 1_555
O1 C7 1_555 1_555
O2 C7 1_555 1_555
O3 Zn1 1_555 1_555
O4 C11 1_555 1_555
O5 Zn3 1_555 1_555
O6 Zn2 1_555 1_555
O7 Zn1 1_555 1_555
H1 O7 1_555 1_555
N1 N2 1_555 1_555
N2 N3 1_555 1_555
N3 Zn2 1_555 1_555
C1 N1 1_555 1_555
C2 N3 1_555 1_555
C3 C2 1_555 1_555
H2 C3 1_555 1_555
C4 C3 1_555 1_555
H3 C4 1_555 1_555
C5 C4 1_555 1_555
H4 C5 1_555 1_555
C6 C1 1_555 1_555
H5 C6 1_555 1_555
C7 C8 1_555 1_555
C8 C9 1_555 1_555
C9 H6 1_555 1_555
C10 C8 1_555 1_555
H7 C10 1_555 1_555
C11 O3 1_555 1_555
C12 C11 1_555 1_555
C13 C12 1_555 1_555
H8 C13 1_555 1_555
C14 C12 1_555 1_555
H9 C14 1_555 1_555
C15 O5 1_555 1_555
C16 C15 1_555 1_555
C17 C16 1_555 1_555
H10 C17 1_555 1_555
C18 C16 1_555 1_555
H11 C18 1_555 1_555
Zn1_2 O1A 1_555 1_555
Zn1_3 O3A 1_555 1_555
Zn2A O2A 1_555 1_555
Zn2A_2 O6A 1_555 1_555
Zn2A_3 O7A 1_555 1_555
Zn2A_4 N3A 1_555 1_555
Zn3A O4A 1_555 1_555
Zn3A_2 N1 1_555 1_555
Zn3A_3 O5A 1_555 1_555
Zn3A_4 O7A 1_555 1_555
O1A C7A 1_555 1_555
O1A_2 Zn1 1_555 1_555
O2A C7A 1_555 1_555
O3A C11A 1_555 1_555
O3A_2 Zn1 1_555 1_555
O4A C11A 1_555 1_555
O5A C15A 1_555 1_555
O5A_2 Zn3A 1_555 1_555
O6A C15A 1_555 1_555
O6A_2 Zn2A 1_555 1_555
O7A Zn1 1_555 1_555
O7A_2 Zn1_2 1_555 1_555
O7A_3 Zn1_3 1_555 1_555
H1A O7A 1_555 1_555
H1A_2 O7A_2 1_555 1_555
H1A_3 O7A_3 1_555 1_555
N1A Zn3 1_555 1_555
N1_2 Zn3A 1_555 1_555
N2A N1A 1_555 1_555
N3A N2A 1_555 1_555
N3A_2 Zn2A 1_555 1_555
C1A N1A 1_555 1_555
C2A N3A 1_555 1_555
C3A C2A 1_555 1_555
H2A C3A 1_555 1_555
C4A C3A 1_555 1_555
H3A C4A 1_555 1_555
C5A C4A 1_555 1_555
H4A C5A 1_555 1_555
C6A C1A 1_555 1_555
H5A C6A 1_555 1_555
C7A C8A 1_555 1_555
C8A C9A 1_555 1_555
C9A C10 1_555 1_555
H6A C9A 1_555 1_555
C10A C9 1_555 1_555
H7A C10A 1_555 1_555
C11A C12A 1_555 1_555
C12A C13A 1_555 1_555
C13A C14 1_555 1_555
H8A C13A 1_555 1_555
C14A C13 1_555 1_555
H9A C14A 1_555 1_555
C15A C16A 1_555 1_555
C16A C17A 1_555 1_555
C17A C18 1_555 1_555
H10A C17A 1_555 1_555
C18A C17 1_555 1_555
H11A C18A 1_555 1_555
Zn2 O7 1_555 1_555
Zn3 O7 1_555 1_555
O6 C15 1_555 1_555
C1 C2 1_555 1_555
C5 C6 1_555 1_555
Zn2A O7A_2 1_555 1_555
Zn3A O7A_3 1_555 1_555
C1A C2A 1_555 1_555
C5A C6A 1_555 1_555
C8A C10A 1_555 1_555
C12A C14A 1_555 1_555
C16A C18A 1_555 1_555

#END
