
#######################################################################
#
#                 Cambridge Crystallographic Data Centre
#                                CCDC 
#
#######################################################################
#
# If this CIF has been generated from an entry in the Cambridge 
# Structural Database, then it will include bibliographic, chemical, 
# crystal, experimental, refinement or atomic coordinate data resulting 
# from the CCDC's data processing and validation procedures.
#
#######################################################################

data_LISCUM
_symmetry_cell_setting           orthorhombic
_symmetry_space_group_name_H-M   'P b c n'
_symmetry_Int_Tables_number      60
_space_group_name_Hall           '-P 2n 2ab'
loop_
_symmetry_equiv_pos_site_id
_symmetry_equiv_pos_as_xyz
1 x,y,z
2 1/2-x,1/2-y,1/2+z
3 1/2+x,1/2-y,-z
4 -x,y,1/2-z
5 -x,-y,-z
6 1/2+x,1/2+y,1/2-z
7 1/2-x,1/2+y,z
8 x,-y,1/2+z
_cell_length_a                   16.212(4)
_cell_length_b                   18.776(5)
_cell_length_c                   13.907(4)
_cell_angle_alpha                90
_cell_angle_beta                 90
_cell_angle_gamma                90
_cell_volume                     4233.24
loop_
_atom_site_label
_atom_site_type_symbol
_atom_site_fract_x
_atom_site_fract_y
_atom_site_fract_z
Cd1 Cd 0.25410(3) 0.78922(3) 0.88177(3)
N2 N 0.1196(4) 0.7571(3) 0.8794(4)
C1 C 0.0950(4) 0.6889(4) 0.8768(5)
H1 H 0.1358 0.6526 0.8776
C2 C 0.0124(4) 0.6689(4) 0.8729(4)
C3 C -0.0458(4) 0.7249(4) 0.8708(5)
H2 H -0.1030 0.7142 0.8677
C4 C -0.0209(5) 0.7933(4) 0.8733(6)
H3 H -0.0604 0.8307 0.8725
C5 C 0.0624(5) 0.8089(4) 0.8771(5)
H4 H 0.0797 0.8572 0.8780
N3 N -0.0169(3) 0.5994(3) 0.8710(4)
H5 H -0.0699 0.5937 0.8601
C6 C 0.0287(4) 0.5389(4) 0.8844(5)
O4 O 0.1029(3) 0.5383(3) 0.9010(4)
N4 N -0.0194(3) 0.4786(3) 0.8760(4)
H6 H -0.0726 0.4858 0.8680
C7 C 0.0060(4) 0.4076(4) 0.8787(5)
C8 C 0.0884(4) 0.3867(4) 0.8855(5)
H7 H 0.1303 0.4219 0.8898
N5 N 0.1091(3) 0.3177(3) 0.8861(4)
C9 C 0.0521(5) 0.2671(4) 0.8767(5)
H8 H 0.0682 0.2185 0.8741
C10 C -0.0307(4) 0.2852(4) 0.8707(6)
H9 H -0.0715 0.2490 0.8662
C11 C -0.0535(4) 0.3560(4) 0.8714(5)
H10 H -0.1100 0.3689 0.8668
O5 O 0.2598(3) 0.7326(3) 1.0515(4)
N6 N 0.2801(4) 0.6728(4) 1.0201(5)
O6 O 0.2896(3) 0.6665(3) 0.9309(4)
O7 O 0.2917(3) 0.6210(3) 1.0745(4)
O8 O 0.2228(4) 0.8800(4) 0.9875(5)
H11 H 0.2191 0.9186 0.9573
O9 O 0.2199(4) 0.8792(3) 0.7726(4)
H12 H 0.1813 0.9039 0.7952
O10 O 0.2842(3) 0.7253(3) 0.7410(4)
H13 H 0.2609 0.6854 0.7431
H14 H 0.283(6) 0.735(5) 0.683(3)
H15 H 0.227(9) 0.881(9) 0.715(3)
H16 H 0.255(7) 0.863(7) 1.029(8)
Cd1F Cd 0.24590(3) 0.28922(3) 0.88177(3)
N5F N 0.3909(3) 0.8177(3) 0.8861(4)
O1 O 0.7184(4) 0.5599(4) 0.7400(5)
N1 N 0.7813(4) 0.5501(4) 0.7903(5)
O2 O 0.8099(3) 0.6019(3) 0.8354(5)
O3 O 0.8162(3) 0.4928(3) 0.7920(5)
loop_
_geom_bond_atom_site_label_1
_geom_bond_atom_site_label_2
_geom_bond_site_symmetry_1
_geom_bond_site_symmetry_2
O1 N1 1_555 1_555
N1 O2 1_555 1_555
O3 N1 1_555 1_555
Cd1 N2 1_555 1_555
N2 C1 1_555 1_555
C1 H1 1_555 1_555
C2 C1 1_555 1_555
C3 C2 1_555 1_555
H2 C3 1_555 1_555
C4 C3 1_555 1_555
H3 C4 1_555 1_555
C5 N2 1_555 1_555
H4 C5 1_555 1_555
N3 C2 1_555 1_555
H5 N3 1_555 1_555
C6 N3 1_555 1_555
O4 C6 1_555 1_555
N4 C6 1_555 1_555
H6 N4 1_555 1_555
C7 N4 1_555 1_555
C8 C7 1_555 1_555
H7 C8 1_555 1_555
N5 C8 1_555 1_555
C9 N5 1_555 1_555
H8 C9 1_555 1_555
C10 C9 1_555 1_555
H9 C10 1_555 1_555
C11 C7 1_555 1_555
H10 C11 1_555 1_555
O5 Cd1 1_555 1_555
N6 O5 1_555 1_555
O6 Cd1 1_555 1_555
O7 N6 1_555 1_555
O8 Cd1 1_555 1_555
H11 O8 1_555 1_555
O9 Cd1 1_555 1_555
H12 O9 1_555 1_555
O10 Cd1 1_555 1_555
H13 O10 1_555 1_555
H14 O10 1_555 1_555
H15 O9 1_555 1_555
H16 O8 1_555 1_555
Cd1F N5 1_555 1_555
N5F Cd1 1_555 1_555
C4 C5 1_555 1_555
C10 C11 1_555 1_555
N6 O6 1_555 1_555

#END
