
#######################################################################
#
#                 Cambridge Crystallographic Data Centre
#                                CCDC 
#
#######################################################################
#
# If this CIF has been generated from an entry in the Cambridge 
# Structural Database, then it will include bibliographic, chemical, 
# crystal, experimental, refinement or atomic coordinate data resulting 
# from the CCDC's data processing and validation procedures.
#
#######################################################################

data_LISJII
_symmetry_cell_setting           triclinic
_symmetry_space_group_name_H-M   'P -1'
_symmetry_Int_Tables_number      2
_space_group_name_Hall           '-P 1'
loop_
_symmetry_equiv_pos_site_id
_symmetry_equiv_pos_as_xyz
1 x,y,z
2 -x,-y,-z
_cell_length_a                   12.9535(10)
_cell_length_b                   16.3294(13)
_cell_length_c                   17.1139(13)
_cell_angle_alpha                72.042(5)
_cell_angle_beta                 86.224(6)
_cell_angle_gamma                83.223(6)
_cell_volume                     3417.9
loop_
_atom_site_label
_atom_site_type_symbol
_atom_site_fract_x
_atom_site_fract_y
_atom_site_fract_z
Se1 Se 0.15705(15) 0.36092(15) 0.21790(14)
Se2 Se 0.11086(18) 0.49273(17) 0.11948(18)
Se3 Se 0.1603(2) 0.47966(18) -0.00928(16)
Se4 Se 0.3417(2) 0.4862(2) -0.01932(16)
Se5 Se 0.36195(19) 0.6240(2) -0.01458(15)
Se6 Se 0.32381(16) 0.72308(18) -0.14241(14)
Se7 Se 0.34937(15) -0.23206(15) 0.65558(13)
Se8 Se 0.38886(17) -0.14343(16) 0.52403(13)
Se9 Se 0.3337(2) -0.00090(16) 0.51767(14)
Se10 Se 0.15311(19) 0.01594(16) 0.49604(14)
Se11 Se 0.14047(17) 0.01254(15) 0.36214(14)
Se12 Se 0.16910(15) 0.14918(14) 0.27308(12)
Mn1 Mn -0.0104(2) 0.2616(2) 0.25568(19)
Mn2 Mn 0.5043(2) 0.7602(2) -0.23878(19)
N1 N -0.1525(14) 0.3620(13) 0.2509(12)
H1 H -0.187 0.3667 0.2055
H2 H -0.1946 0.3395 0.2943
C1 C -0.139(2) 0.451(2) 0.251(3)
H3 H -0.0991 0.4789 0.2013
H4 H -0.0984 0.4477 0.2974
C2 C -0.238(3) 0.507(2) 0.254(3)
H5 H -0.2809 0.4783 0.3003
H6 H -0.2759 0.5165 0.2039
C3 C -0.212(4) 0.594(3) 0.261(5)
H7 H -0.2448 0.6041 0.3102
H8 H -0.2361 0.6414 0.2137
C4 C -0.092(4) 0.586(7) 0.265(10)
H9 H -0.0608 0.5706 0.2187
H10 H -0.0701 0.543 0.3149
H11 H -0.0708 0.6411 0.2643
N2 N 0.0030(14) 0.2488(13) 0.3938(10)
H12 H 0.0443 0.1997 0.4158
H13 H 0.0378 0.2927 0.3957
C5 C -0.088(2) 0.2476(17) 0.4495(13)
H14 H -0.1309 0.205 0.4444
H15 H -0.1279 0.3037 0.4326
C6 C -0.0612(18) 0.2267(15) 0.5391(12)
H16 H -0.0144 0.2668 0.5443
H17 H -0.0255 0.1687 0.5577
C7 C -0.159(2) 0.232(2) 0.5936(14)
H18 H -0.1906 0.2919 0.5779
H19 H -0.2087 0.1972 0.5833
C8 C -0.139(3) 0.204(2) 0.6837(16)
H20 H -0.0949 0.15 0.6976
H21 H -0.2037 0.1958 0.7144
H22 H -0.1052 0.2469 0.6969
N3 N -0.1002(14) 0.1450(11) 0.2903(11)
H23 H -0.0792 0.1106 0.3398
H24 H -0.1677 0.1633 0.2963
C9 C -0.0934(18) 0.0901(16) 0.2331(14)
H25 H -0.0207 0.0792 0.2182
H26 H -0.1286 0.1236 0.1832
C10 C -0.139(2) 0.003(2) 0.265(2)
H27 H -0.1114 -0.0283 0.3191
H28 H -0.2136 0.0129 0.2715
C11 C -0.113(3) -0.049(4) 0.210(4)
H29 H -0.0403 -0.072 0.2156
H30 H -0.1222 -0.0124 0.1538
C12 C -0.181(7) -0.124(5) 0.228(6)
H31 H -0.1442 -0.1757 0.2626
H32 H -0.1955 -0.1332 0.1771
H33 H -0.2446 -0.1103 0.255
N4 N -0.0354(15) 0.2891(13) 0.1214(10)
H34 H -0.0967 0.271 0.1158
H35 H -0.0407 0.3469 0.0978
C13 C 0.0459(17) 0.2493(18) 0.0748(15)
H36 H 0.0545 0.1873 0.1015
H37 H 0.1114 0.2714 0.0777
C14 C 0.022(2) 0.2663(18) -0.0168(13)
H38 H 0.0067 0.3281 -0.0422
H39 H 0.0838 0.2474 -0.0445
C15 C -0.068(3) 0.221(3) -0.029(2)
H40 H -0.0515 0.1589 -0.0054
H41 H -0.1291 0.2382 0.0002
C16 C -0.094(3) 0.239(3) -0.116(2)
H42 H -0.1049 0.3004 -0.1413
H43 H -0.1557 0.2132 -0.1187
H44 H -0.0373 0.215 -0.144
N5 N 0.5545(15) 0.6177(12) -0.2024(12)
H45 H 0.6228 0.6105 -0.2153
H46 H 0.5472 0.5965 -0.1474
C17 C 0.4981(19) 0.5632(18) -0.2403(15)
H47 H 0.4247 0.5687 -0.2254
H48 H 0.5052 0.5853 -0.2997
C18 C 0.5395(19) 0.4685(19) -0.2127(16)
H49 H 0.4915 0.4349 -0.2275
H50 H 0.5446 0.4488 -0.1534
C19 C 0.6486(19) 0.454(3) -0.253(3)
H51 H 0.646 0.4772 -0.3124
H52 H 0.6994 0.4815 -0.2339
C20 C 0.677(5) 0.356(3) -0.228(4)
H53 H 0.6886 0.3345 -0.1699
H54 H 0.74 0.343 -0.2572
H55 H 0.622 0.3285 -0.2408
N6 N 0.6140(14) 0.7904(12) -0.3488(10)
H56 H 0.5864 0.8392 -0.3855
H57 H 0.6736 0.8026 -0.3326
C21 C 0.641(2) 0.7256(17) -0.3925(13)
H58 H 0.578 0.704 -0.4013
H59 H 0.6842 0.6773 -0.3572
C22 C 0.699(2) 0.757(2) -0.4748(14)
H60 H 0.6569 0.806 -0.5095
H61 H 0.7631 0.7771 -0.4657
C23 C 0.725(3) 0.693(2) -0.5204(19)
H62 H 0.6638 0.6657 -0.5255
H63 H 0.7781 0.6479 -0.4929
C24 C 0.765(5) 0.747(4) -0.606(2)
H64 H 0.7152 0.7952 -0.6285
H65 H 0.7759 0.7113 -0.6417
H66 H 0.83 0.7672 -0.5999
N7 N 0.4615(15) 0.9081(14) -0.2615(13)
H67 H 0.4256 0.9276 -0.308
H68 H 0.4165 0.9136 -0.2205
C25 C 0.537(2) 0.9674(17) -0.2683(16)
H69 H 0.5908 0.9587 -0.3078
H70 H 0.5687 0.9542 -0.2156
C26 C 0.4921(19) 1.0641(17) -0.2952(15)
H71 H 0.4625 1.0783 -0.349
H72 H 0.4365 1.0728 -0.2569
C27 C 0.573(2) 1.125(2) -0.2991(16)
H73 H 0.5971 1.1164 -0.2442
H74 H 0.6328 1.1126 -0.3325
C28 C 0.531(3) 1.217(2) -0.334(2)
H75 H 0.5202 1.2289 -0.3918
H76 H 0.5792 1.2541 -0.3268
H77 H 0.4658 1.2272 -0.3068
N8 N 0.6211(15) 0.7616(15) -0.1465(12)
H78 H 0.6642 0.7124 -0.1379
H79 H 0.6596 0.8056 -0.1708
C29 C 0.587(2) 0.769(3) -0.0670(17)
H80 H 0.5487 0.7205 -0.0392
H81 H 0.5384 0.8211 -0.0758
C30 C 0.666(2) 0.774(2) -0.0102(16)
H82 H 0.717 0.724 -0.0033
H83 H 0.7017 0.825 -0.0362
C31 C 0.628(5) 0.777(8) 0.072(4)
H84 H 0.5996 0.8363 0.0664
H85 H 0.6883 0.7655 0.1061
C32 C 0.547(10) 0.718(8) 0.121(7)
H86 H 0.5122 0.7417 0.1614
H87 H 0.5803 0.6613 0.147
H88 H 0.4962 0.7136 0.0836
Se7_2 Se 0.34937(15) 0.76794(15) -0.34442(13)
Mn2_2 Mn 0.5043(2) -0.2398(2) 0.76122(19)
loop_
_geom_bond_atom_site_label_1
_geom_bond_atom_site_label_2
_geom_bond_site_symmetry_1
_geom_bond_site_symmetry_2
Se1 Se2 1_555 1_555
Se2 Se3 1_555 1_555
Se3 Se4 1_555 1_555
Se4 Se5 1_555 1_555
Se5 Se6 1_555 1_555
Se6 Mn2 1_555 1_555
Se7 Se8 1_555 1_555
Se8 Se9 1_555 1_555
Se9 Se10 1_555 1_555
Se10 Se11 1_555 1_555
Se11 Se12 1_555 1_555
Se12 Mn1 1_555 1_555
Mn1 Se1 1_555 1_555
Mn2 N5 1_555 1_555
N1 Mn1 1_555 1_555
H1 N1 1_555 1_555
H2 N1 1_555 1_555
C1 N1 1_555 1_555
H3 C1 1_555 1_555
H4 C1 1_555 1_555
C2 C1 1_555 1_555
H5 C2 1_555 1_555
H6 C2 1_555 1_555
C3 C2 1_555 1_555
H7 C3 1_555 1_555
H8 C3 1_555 1_555
C4 C3 1_555 1_555
H9 C4 1_555 1_555
H10 C4 1_555 1_555
H11 C4 1_555 1_555
N2 Mn1 1_555 1_555
H12 N2 1_555 1_555
H13 N2 1_555 1_555
C5 N2 1_555 1_555
H14 C5 1_555 1_555
H15 C5 1_555 1_555
C6 C5 1_555 1_555
H16 C6 1_555 1_555
H17 C6 1_555 1_555
C7 C6 1_555 1_555
H18 C7 1_555 1_555
H19 C7 1_555 1_555
C8 C7 1_555 1_555
H20 C8 1_555 1_555
H21 C8 1_555 1_555
H22 C8 1_555 1_555
N3 Mn1 1_555 1_555
H23 N3 1_555 1_555
H24 N3 1_555 1_555
C9 N3 1_555 1_555
H25 C9 1_555 1_555
H26 C9 1_555 1_555
C10 C9 1_555 1_555
H27 C10 1_555 1_555
H28 C10 1_555 1_555
C11 C10 1_555 1_555
H29 C11 1_555 1_555
H30 C11 1_555 1_555
C12 C11 1_555 1_555
H31 C12 1_555 1_555
H32 C12 1_555 1_555
H33 C12 1_555 1_555
N4 Mn1 1_555 1_555
H34 N4 1_555 1_555
H35 N4 1_555 1_555
C13 N4 1_555 1_555
H36 C13 1_555 1_555
H37 C13 1_555 1_555
C14 C13 1_555 1_555
H38 C14 1_555 1_555
H39 C14 1_555 1_555
C15 C14 1_555 1_555
H40 C15 1_555 1_555
H41 C15 1_555 1_555
C16 C15 1_555 1_555
H42 C16 1_555 1_555
H43 C16 1_555 1_555
H44 C16 1_555 1_555
N5 H45 1_555 1_555
H46 N5 1_555 1_555
C17 N5 1_555 1_555
H47 C17 1_555 1_555
H48 C17 1_555 1_555
C18 C17 1_555 1_555
H49 C18 1_555 1_555
H50 C18 1_555 1_555
C19 C18 1_555 1_555
H51 C19 1_555 1_555
H52 C19 1_555 1_555
C20 C19 1_555 1_555
H53 C20 1_555 1_555
H54 C20 1_555 1_555
H55 C20 1_555 1_555
N6 Mn2 1_555 1_555
H56 N6 1_555 1_555
H57 N6 1_555 1_555
C21 N6 1_555 1_555
H58 C21 1_555 1_555
H59 C21 1_555 1_555
C22 C21 1_555 1_555
H60 C22 1_555 1_555
H61 C22 1_555 1_555
C23 C22 1_555 1_555
H62 C23 1_555 1_555
H63 C23 1_555 1_555
C24 C23 1_555 1_555
H64 C24 1_555 1_555
H65 C24 1_555 1_555
H66 C24 1_555 1_555
N7 Mn2 1_555 1_555
H67 N7 1_555 1_555
H68 N7 1_555 1_555
C25 N7 1_555 1_555
H69 C25 1_555 1_555
H70 C25 1_555 1_555
C26 C25 1_555 1_555
H71 C26 1_555 1_555
H72 C26 1_555 1_555
C27 C26 1_555 1_555
H73 C27 1_555 1_555
H74 C27 1_555 1_555
C28 C27 1_555 1_555
H75 C28 1_555 1_555
H76 C28 1_555 1_555
H77 C28 1_555 1_555
N8 Mn2 1_555 1_555
H78 N8 1_555 1_555
H79 N8 1_555 1_555
C29 N8 1_555 1_555
H80 C29 1_555 1_555
H81 C29 1_555 1_555
C30 C29 1_555 1_555
H82 C30 1_555 1_555
H83 C30 1_555 1_555
C31 C30 1_555 1_555
H84 C31 1_555 1_555
H85 C31 1_555 1_555
C32 C31 1_555 1_555
H86 C32 1_555 1_555
H87 C32 1_555 1_555
H88 C32 1_555 1_555
Se7_2 Mn2 1_555 1_555
Mn2_2 Se7 1_555 1_555

#END
