
#######################################################################
#
#                 Cambridge Crystallographic Data Centre
#                                CCDC 
#
#######################################################################
#
# If this CIF has been generated from an entry in the Cambridge 
# Structural Database, then it will include bibliographic, chemical, 
# crystal, experimental, refinement or atomic coordinate data resulting 
# from the CCDC's data processing and validation procedures.
#
#######################################################################

data_LISKED
_symmetry_cell_setting           monoclinic
_symmetry_space_group_name_H-M   'C 2/c'
_symmetry_Int_Tables_number      15
_space_group_name_Hall           '-C 2yn'
loop_
_symmetry_equiv_pos_site_id
_symmetry_equiv_pos_as_xyz
1 x,y,z
2 1/2+x,1/2+y,z
3 -x,y,1/2-z
4 1/2-x,1/2+y,1/2-z
5 -x,-y,-z
6 1/2-x,1/2-y,-z
7 x,-y,1/2+z
8 1/2+x,1/2-y,1/2+z
_cell_length_a                   15.442(8)
_cell_length_b                   10.432(5)
_cell_length_c                   15.966(8)
_cell_angle_alpha                90
_cell_angle_beta                 90.28(3)
_cell_angle_gamma                90
_cell_volume                     2571.95
loop_
_atom_site_label
_atom_site_type_symbol
_atom_site_fract_x
_atom_site_fract_y
_atom_site_fract_z
In1 In -0.2500 0.2500 0.5000
Na1 Na -0.5000 -0.00567(11) 0.2500
N1 N -0.34300(13) 0.1009(2) 0.46674(12)
N2 N -0.35069(11) 0.0558(2) 0.39970(12)
N3 N -0.36166(14) 0.0065(2) 0.33540(13)
N4 N -0.33619(13) 0.3078(2) 0.60474(12)
N5 N -0.39113(12) 0.2399(2) 0.62935(11)
N6 N -0.44645(14) 0.1777(2) 0.65662(14)
N7 N -0.31899(11) 0.3972(2) 0.41496(10)
N8 N -0.56462(13) 0.1593(2) 0.34199(12)
C1 C -0.40494(14) 0.4143(2) 0.41922(14)
H1 H -0.43748(14) 0.3597(2) 0.45373(14)
C2 C -0.44760(14) 0.5094(2) 0.3747(2)
H2 H -0.50782(14) 0.5200(2) 0.3796(2)
C3 C -0.3999(2) 0.5882(2) 0.32319(15)
H3 H -0.4272(2) 0.6539(2) 0.29267(15)
C4 C -0.3115(2) 0.5694(2) 0.31688(14)
H4 H -0.2780(2) 0.6206(2) 0.28106(14)
C5 C -0.27357(14) 0.4740(2) 0.36420(13)
H5 H -0.21333(14) 0.4623(2) 0.36072(13)
C6 C -0.56757(15) 0.1424(2) 0.42511(14)
H6 H -0.53653(15) 0.0734(2) 0.44837(14)
C7 C -0.6136(2) 0.2204(2) 0.4783(2)
H7 H -0.6136(2) 0.2049(2) 0.5363(2)
C8 C -0.6595(2) 0.3215(3) 0.4452(2)
H8 H -0.6918(2) 0.3760(3) 0.4800(2)
C9 C -0.6571(2) 0.3413(2) 0.3597(2)
H9 H -0.6876(2) 0.4097(2) 0.3351(2)
C10 C -0.6089(2) 0.2586(2) 0.3111(2)
H10 H -0.6072(2) 0.2730(2) 0.2530(2)
N3B N -0.63834(14) 0.0065(2) 0.16460(13)
N2B N -0.64931(11) 0.0558(2) 0.10030(12)
N1B N -0.65700(13) 0.1009(2) 0.03326(12)
In1G In -0.7500 0.2500 0.0000
N6D N -0.55355(14) -0.1777(2) 0.34338(14)
N8B N -0.43538(13) 0.1593(2) 0.15801(12)
N1E N -0.15700(13) 0.3991(2) 0.53326(12)
N4E N -0.16381(13) 0.1922(2) 0.39526(12)
N7E N -0.18101(11) 0.1028(2) 0.58504(10)
N6F N -0.44645(14) -0.1777(2) 0.15662(14)
C6B C -0.43243(15) 0.1424(2) 0.07489(14)
C10B C -0.3911(2) 0.2586(2) 0.1889(2)
N2E N -0.14931(11) 0.4442(2) 0.60030(12)
C1E C -0.09506(14) 0.0857(2) 0.58078(14)
C5E C -0.22643(14) 0.0260(2) 0.63580(13)
Na1F Na -0.5000 0.00567(11) 0.7500
H6B H -0.46347(15) 0.0734(2) 0.05163(14)
C7B C -0.3864(2) 0.2204(2) 0.0217(2)
C9B C -0.3429(2) 0.3413(2) 0.1403(2)
H10B H -0.3928(2) 0.2730(2) 0.2470(2)
N3E N -0.13834(14) 0.4935(2) 0.66460(13)
H1E H -0.06252(14) 0.1403(2) 0.54627(14)
C2E C -0.05240(14) -0.0094(2) 0.6253(2)
C4E C -0.1885(2) -0.0694(2) 0.68312(14)
H5E H -0.28667(14) 0.0377(2) 0.63928(13)
H7B H -0.3864(2) 0.2049(2) -0.0363(2)
C8B C -0.3405(2) 0.3215(3) 0.0548(2)
H9B H -0.3124(2) 0.4097(2) 0.1649(2)
Na1G Na 0.0000 0.50567(11) 0.7500
H2E H 0.00782(14) -0.0200(2) 0.6204(2)
C3E C -0.1001(2) -0.0882(2) 0.67681(15)
H4E H -0.2220(2) -0.1206(2) 0.71894(14)
H8B H -0.3082(2) 0.3760(3) 0.0200(2)
H3E H -0.0728(2) -0.1539(2) 0.70733(15)
loop_
_geom_bond_atom_site_label_1
_geom_bond_atom_site_label_2
_geom_bond_site_symmetry_1
_geom_bond_site_symmetry_2
In1 N1 1_555 1_555
Na1 N3 1_555 1_555
N1 N2 1_555 1_555
N2 N3 1_555 1_555
N4 In1 1_555 1_555
N5 N4 1_555 1_555
N6 N5 1_555 1_555
N7 In1 1_555 1_555
N8 Na1 1_555 1_555
C1 N7 1_555 1_555
H1 C1 1_555 1_555
C2 C1 1_555 1_555
H2 C2 1_555 1_555
C3 C2 1_555 1_555
H3 C3 1_555 1_555
C4 C3 1_555 1_555
H4 C4 1_555 1_555
C5 N7 1_555 1_555
H5 C5 1_555 1_555
C6 N8 1_555 1_555
H6 C6 1_555 1_555
C7 C6 1_555 1_555
H7 C7 1_555 1_555
C8 C7 1_555 1_555
H8 C8 1_555 1_555
C9 C8 1_555 1_555
H9 C9 1_555 1_555
C10 N8 1_555 1_555
H10 C10 1_555 1_555
N3B Na1 1_555 1_555
N2B N3B 1_555 1_555
N1B N2B 1_555 1_555
In1G N1B 1_555 1_555
N6D Na1 1_555 1_555
N8B Na1 1_555 1_555
N1E In1 1_555 1_555
N4E In1 1_555 1_555
N7E In1 1_555 1_555
N6F Na1 1_555 1_555
C6B N8B 1_555 1_555
C10B N8B 1_555 1_555
N2E N1E 1_555 1_555
C1E N7E 1_555 1_555
C5E N7E 1_555 1_555
Na1F N6 1_555 1_555
H6B C6B 1_555 1_555
C7B C6B 1_555 1_555
C9B C10B 1_555 1_555
H10B C10B 1_555 1_555
N3E N2E 1_555 1_555
H1E C1E 1_555 1_555
C2E C1E 1_555 1_555
C4E C5E 1_555 1_555
H5E C5E 1_555 1_555
H7B C7B 1_555 1_555
C8B C7B 1_555 1_555
H9B C9B 1_555 1_555
Na1G N3E 1_555 1_555
H2E C2E 1_555 1_555
C3E C2E 1_555 1_555
H4E C4E 1_555 1_555
H8B C8B 1_555 1_555
H3E C3E 1_555 1_555
C4 C5 1_555 1_555
C9 C10 1_555 1_555
C9B C8B 1_555 1_555
C4E C3E 1_555 1_555

#END
