
#######################################################################
#
#                 Cambridge Crystallographic Data Centre
#                                CCDC 
#
#######################################################################
#
# If this CIF has been generated from an entry in the Cambridge 
# Structural Database, then it will include bibliographic, chemical, 
# crystal, experimental, refinement or atomic coordinate data resulting 
# from the CCDC's data processing and validation procedures.
#
#######################################################################

data_LISKUT
_symmetry_cell_setting           orthorhombic
_symmetry_space_group_name_H-M   'C m c a'
_symmetry_Int_Tables_number      64
_space_group_name_Hall           '-C 2ac 2'
loop_
_symmetry_equiv_pos_site_id
_symmetry_equiv_pos_as_xyz
1 x,y,z
2 -x,1/2-y,1/2+z
3 x,-y,-z
4 -x,1/2+y,1/2-z
5 1/2+x,1/2+y,z
6 1/2-x,-y,1/2+z
7 1/2+x,1/2-y,-z
8 1/2-x,y,1/2-z
9 -x,-y,-z
10 x,1/2+y,1/2-z
11 -x,y,z
12 x,1/2-y,1/2+z
13 1/2-x,1/2-y,-z
14 1/2+x,y,1/2-z
15 1/2-x,1/2+y,z
16 1/2+x,-y,1/2+z
_cell_length_a                   6.883(1)
_cell_length_b                   10.094(1)
_cell_length_c                   17.831(1)
_cell_angle_alpha                90
_cell_angle_beta                 90
_cell_angle_gamma                90
_cell_volume                     1238.84
loop_
_atom_site_label
_atom_site_type_symbol
_atom_site_fract_x
_atom_site_fract_y
_atom_site_fract_z
Au1 Au 0.0000 0.19090(6) 0.26312(4)
Cu1 Cu 0.0000 0.5000 0.5000
N1 N 0.0000 0.296(1) 0.4280(8)
N2 N 0.0000 0.092(1) 0.0969(7)
N3 N 0.299(2) 0.5000 0.5000
C1 C 0.0000 0.250(2) 0.369(1)
C2 C 0.0000 0.130(2) 0.156(1)
C3 C 0.397(2) 0.551(1) 0.5564(6)
C3J C 0.603(2) 0.551(1) 0.5564(6)
N3J N 0.701(2) 0.5000 0.5000
C3H C 0.603(2) 0.449(1) 0.4436(6)
C3B C 0.397(2) 0.449(1) 0.4436(6)
Au1B Au 0.0000 0.80910(6) 0.73688(4)
N1B N 0.0000 0.704(1) 0.5720(8)
N2B N 0.0000 0.908(1) 0.9031(7)
C1B C 0.0000 0.750(2) 0.631(1)
C2B C 0.0000 0.870(2) 0.844(1)
N2A N 0.0000 0.408(1) 0.5969(7)
N2C N 0.0000 0.592(1) 0.4031(7)
N3H N -0.299(2) 0.5000 0.5000
Cu1A Cu 0.0000 0.0000 0.0000
Cu1C Cu 0.0000 1.0000 1.0000
Cu1J Cu 1.0000 0.5000 0.5000
loop_
_geom_bond_atom_site_label_1
_geom_bond_atom_site_label_2
_geom_bond_site_symmetry_1
_geom_bond_site_symmetry_2
Au1 C1 1_555 1_555
Cu1 N1 1_555 1_555
N1 C1 1_555 1_555
N2 C2 1_555 1_555
N3 Cu1 1_555 1_555
C2 Au1 1_555 1_555
C3 N3 1_555 1_555
C3J C3 1_555 1_555
N3J C3J 1_555 1_555
C3H N3J 1_555 1_555
C3B N3 1_555 1_555
Au1B C1B 1_555 1_555
N1B Cu1 1_555 1_555
N2B C2B 1_555 1_555
C1B N1B 1_555 1_555
C2B Au1B 1_555 1_555
N2A Cu1 1_555 1_555
N2C Cu1 1_555 1_555
N3H Cu1 1_555 1_555
Cu1A N2 1_555 1_555
Cu1C N2B 1_555 1_555
Cu1J N3J 1_555 1_555
C3H C3B 1_555 1_555

#END
