
#######################################################################
#
#                 Cambridge Crystallographic Data Centre
#                                CCDC 
#
#######################################################################
#
# If this CIF has been generated from an entry in the Cambridge 
# Structural Database, then it will include bibliographic, chemical, 
# crystal, experimental, refinement or atomic coordinate data resulting 
# from the CCDC's data processing and validation procedures.
#
#######################################################################

data_LISZUK
_symmetry_cell_setting           monoclinic
_symmetry_space_group_name_H-M   'C 2/c'
_symmetry_Int_Tables_number      15
_space_group_name_Hall           '-C 2yn'
loop_
_symmetry_equiv_pos_site_id
_symmetry_equiv_pos_as_xyz
1 x,y,z
2 -x,y,1/2-z
3 1/2+x,1/2+y,z
4 1/2-x,1/2+y,1/2-z
5 -x,-y,-z
6 x,-y,1/2+z
7 1/2-x,1/2-y,-z
8 1/2+x,1/2-y,1/2+z
_cell_length_a                   19.799(2)
_cell_length_b                   9.6470(10)
_cell_length_c                   11.2675(11)
_cell_angle_alpha                90
_cell_angle_beta                 113.439(2)
_cell_angle_gamma                90
_cell_volume                     1974.52
loop_
_atom_site_label
_atom_site_type_symbol
_atom_site_fract_x
_atom_site_fract_y
_atom_site_fract_z
Ag1 Ag 0.5000 0.0000 0.0000
O1 O 0.7292(2) 0.0524(3) 0.7649(4)
N1 N 0.5582(2) 0.1478(6) 0.1490(4)
C1 C 0.6277(2) 0.2069(5) 0.3726(4)
C2 C 0.5935(3) 0.1114(6) 0.2730(5)
H1 H 0.5955 0.0179 0.2943
C3 C 0.5559(3) 0.2803(7) 0.1193(5)
H2 H 0.5309 0.3067 0.0335
C4 C 0.5894(4) 0.3817(7) 0.2110(6)
H3 H 0.5884 0.4741 0.1867
C5 C 0.6236(3) 0.3439(5) 0.3367(5)
H4 H 0.6446 0.4114 0.3996
C6 C 0.6618(2) 0.1569(4) 0.5053(4)
H5 H 0.6604 0.0619 0.5179
C7 C 0.6947(2) 0.2339(4) 0.6099(4)
H6 H 0.6982 0.3289 0.5992
C8 C 0.7262(2) 0.1774(4) 0.7426(4)
N2 N 0.7495(2) 0.2721(3) 0.8353(3)
H7 H 0.7472 0.3579 0.8134
C9 C 0.7788(3) 0.2380(5) 0.9725(4)
H8 H 0.8216 0.2951 1.0185
H9 H 0.7942 0.1418 0.9844
O1F O 0.7708(2) 0.4476(3) 1.2351(4)
N1F N 0.9418(2) 0.3522(6) 1.8510(4)
C1F C 0.8723(2) 0.2931(5) 1.6274(4)
C2F C 0.9065(3) 0.3886(6) 1.7270(5)
H1F H 0.9045 0.4821 1.7057
C3F C 0.9441(3) 0.2197(7) 1.8807(5)
H2F H 0.9691 0.1933 1.9665
C4F C 0.9106(4) 0.1183(7) 1.7890(6)
H3F H 0.9116 0.0259 1.8133
C5F C 0.8764(3) 0.1561(5) 1.6633(5)
H4F H 0.8554 0.0886 1.6004
C6F C 0.8382(2) 0.3431(4) 1.4947(4)
H5F H 0.8396 0.4381 1.4821
C7F C 0.8053(2) 0.2661(4) 1.3901(4)
H6F H 0.8018 0.1711 1.4008
C8F C 0.7738(2) 0.3226(4) 1.2574(4)
N2F N 0.7505(2) 0.2279(3) 1.1647(3)
H7F H 0.7528 0.1421 1.1866
C9F C 0.7212(3) 0.2620(5) 1.0275(4)
H8F H 0.6784 0.2049 0.9815
H9F H 0.7058 0.3582 1.0156
Ag1B Ag 1.0000 0.5000 2.0000
N1D N 0.4418(2) -0.1478(6) -0.1490(4)
Cl1 Cl 0.5000 -0.2792(2) 0.2500
O2 O 0.5471(3) -0.3718(6) 0.3484(6)
O3 O 0.5565(5) -0.2449(12) 0.1974(9)
O2A O 0.4529(3) -0.3718(6) 0.1516(6)
O3A O 0.4435(5) -0.2449(12) 0.3026(9)
O4? O 0.4917(13) -0.1574(10) 0.1696(16)
loop_
_geom_bond_atom_site_label_1
_geom_bond_atom_site_label_2
_geom_bond_site_symmetry_1
_geom_bond_site_symmetry_2
Ag1 N1 1_555 1_555
O1 C8 1_555 1_555
N1 C2 1_555 1_555
C1 C2 1_555 1_555
C2 H1 1_555 1_555
C3 N1 1_555 1_555
H2 C3 1_555 1_555
C4 C3 1_555 1_555
H3 C4 1_555 1_555
C5 C1 1_555 1_555
H4 C5 1_555 1_555
C6 C1 1_555 1_555
H5 C6 1_555 1_555
C7 C6 1_555 1_555
H6 C7 1_555 1_555
C8 C7 1_555 1_555
N2 C8 1_555 1_555
H7 N2 1_555 1_555
C9 N2 1_555 1_555
H8 C9 1_555 1_555
H9 C9 1_555 1_555
Cl1 O2 1_555 1_555
O3 Cl1 1_555 1_555
O1F C8F 1_555 1_555
N1F C2F 1_555 1_555
C1F C2F 1_555 1_555
C2F H1F 1_555 1_555
C3F N1F 1_555 1_555
H2F C3F 1_555 1_555
C4F C3F 1_555 1_555
H3F C4F 1_555 1_555
C5F C1F 1_555 1_555
H4F C5F 1_555 1_555
C6F C1F 1_555 1_555
H5F C6F 1_555 1_555
C7F C6F 1_555 1_555
H6F C7F 1_555 1_555
C8F C7F 1_555 1_555
N2F C8F 1_555 1_555
H7F N2F 1_555 1_555
C9F C9 1_555 1_555
H8F C9F 1_555 1_555
H9F C9F 1_555 1_555
Ag1B N1F 1_555 1_555
N1D Ag1 1_555 1_555
O2A Cl1 1_555 1_555
O3A Cl1 1_555 1_555
C4 C5 1_555 1_555
C4F C5F 1_555 1_555
N2F C9F 1_555 1_555

#END
