
#######################################################################
#
#                 Cambridge Crystallographic Data Centre
#                                CCDC 
#
#######################################################################
#
# If this CIF has been generated from an entry in the Cambridge 
# Structural Database, then it will include bibliographic, chemical, 
# crystal, experimental, refinement or atomic coordinate data resulting 
# from the CCDC's data processing and validation procedures.
#
#######################################################################

data_LISZAO
_symmetry_cell_setting           monoclinic
_symmetry_space_group_name_H-M   'P 21/c'
_symmetry_Int_Tables_number      14
_space_group_name_Hall           '-P 2ybc'
loop_
_symmetry_equiv_pos_site_id
_symmetry_equiv_pos_as_xyz
1 x,y,z
2 -x,1/2+y,1/2-z
3 -x,-y,-z
4 x,1/2-y,1/2+z
_cell_length_a                   32.395(3)
_cell_length_b                   4.7914(2)
_cell_length_c                   9.3450(8)
_cell_angle_alpha                90
_cell_angle_beta                 93.661(8)
_cell_angle_gamma                90
_cell_volume                     1447.55
loop_
_atom_site_label
_atom_site_type_symbol
_atom_site_fract_x
_atom_site_fract_y
_atom_site_fract_z
Zn1 Zn -0.252230(6) 0.20853(4) -0.38043(2)
O1 O -0.30131(4) 0.4259(2) -0.44085(15)
O2 O -0.26641(4) 0.8141(2) -0.40133(15)
C1 C -0.29698(6) 0.6847(3) -0.45960(19)
C2 C -0.32895(6) 0.8358(4) -0.5539(2)
H1 H -0.3148 0.9432 -0.6240
H2 H -0.3432 0.9671 -0.4952
C3 C -0.36113(6) 0.6527(4) -0.6333(2)
H3 H -0.3742 0.5354 -0.5647
H4 H -0.3475 0.5317 -0.6988
C4 C -0.39423(6) 0.8229(4) -0.7174(2)
H5 H -0.4076 0.9450 -0.6516
H6 H -0.3810 0.9396 -0.7859
C5 C -0.42707(7) 0.6457(5) -0.7975(3)
H7 H -0.4395 0.5230 -0.7298
H8 H -0.4140 0.5297 -0.8665
C6 C -0.46090(8) 0.8179(7) -0.8755(3)
H9 H -0.4801 0.6958 -0.9268
H10 H -0.4488 0.9417 -0.9419
H11 H -0.4752 0.9249 -0.8072
O3 O -0.23823(5) 0.2305(3) -0.17318(15)
O4 O -0.20257(4) 0.1559(3) 0.03138(13)
C7 C -0.20741(6) 0.1229(4) -0.10270(18)
C8 C -0.17668(6) -0.0512(5) -0.1780(2)
H12 H -0.1915 -0.2028 -0.2273
H13 H -0.1648 0.0635 -0.2504
C9 C -0.14177(7) -0.1742(5) -0.0832(2)
H14 H -0.1279 -0.0252 -0.0288
H15 H -0.1532 -0.3017 -0.0156
C10 C -0.11013(7) -0.3298(5) -0.1674(2)
H16 H -0.0995 -0.2035 -0.2374
H17 H -0.1240 -0.4819 -0.2195
C11 C -0.07405(8) -0.4472(6) -0.0747(3)
H18 H -0.0846 -0.5759 -0.0058
H19 H -0.0604 -0.2956 -0.0216
C12 C -0.04247(9) -0.5976(8) -0.1595(4)
H20 H -0.0207 -0.6686 -0.0950
H21 H -0.0556 -0.7495 -0.2116
H22 H -0.0311 -0.4698 -0.2256
O2_2 O -0.26641(4) -0.1859(2) -0.40133(15)
Zn1_2 Zn -0.252230(6) 1.20853(4) -0.38043(2)
Zn1C Zn -0.252230(6) 0.29147(4) 0.11957(2)
O4C O -0.20257(4) 0.3441(3) -0.46862(13)
loop_
_geom_bond_atom_site_label_1
_geom_bond_atom_site_label_2
_geom_bond_site_symmetry_1
_geom_bond_site_symmetry_2
Zn1 O1 1_555 1_555
O1 C1 1_555 1_555
O2 C1 1_555 1_555
C1 C2 1_555 1_555
C2 H1 1_555 1_555
H2 C2 1_555 1_555
C3 C2 1_555 1_555
H3 C3 1_555 1_555
H4 C3 1_555 1_555
C4 C3 1_555 1_555
H5 C4 1_555 1_555
H6 C4 1_555 1_555
C5 C4 1_555 1_555
H7 C5 1_555 1_555
H8 C5 1_555 1_555
C6 C5 1_555 1_555
H9 C6 1_555 1_555
H10 C6 1_555 1_555
H11 C6 1_555 1_555
O3 Zn1 1_555 1_555
O4 C7 1_555 1_555
C7 O3 1_555 1_555
C8 C7 1_555 1_555
H12 C8 1_555 1_555
H13 C8 1_555 1_555
C9 C8 1_555 1_555
H14 C9 1_555 1_555
H15 C9 1_555 1_555
C10 C9 1_555 1_555
H16 C10 1_555 1_555
H17 C10 1_555 1_555
C11 C10 1_555 1_555
H18 C11 1_555 1_555
H19 C11 1_555 1_555
C12 C11 1_555 1_555
H20 C12 1_555 1_555
H21 C12 1_555 1_555
H22 C12 1_555 1_555
O2_2 Zn1 1_555 1_555
Zn1_2 O2 1_555 1_555
Zn1C O4 1_555 1_555
O4C Zn1 1_555 1_555

#END
