
#######################################################################
#
#                 Cambridge Crystallographic Data Centre
#                                CCDC 
#
#######################################################################
#
# If this CIF has been generated from an entry in the Cambridge 
# Structural Database, then it will include bibliographic, chemical, 
# crystal, experimental, refinement or atomic coordinate data resulting 
# from the CCDC's data processing and validation procedures.
#
#######################################################################

data_LISZOD
_symmetry_cell_setting           triclinic
_symmetry_space_group_name_H-M   'P -1'
_symmetry_Int_Tables_number      2
_space_group_name_Hall           '-P 1'
loop_
_symmetry_equiv_pos_site_id
_symmetry_equiv_pos_as_xyz
1 x,y,z
2 -x,-y,-z
_cell_length_a                   6.5782(18)
_cell_length_b                   8.855(2)
_cell_length_c                   10.700(3)
_cell_angle_alpha                68.458(4)
_cell_angle_beta                 83.528(4)
_cell_angle_gamma                68.646(4)
_cell_volume                     539.78
loop_
_atom_site_label
_atom_site_type_symbol
_atom_site_fract_x
_atom_site_fract_y
_atom_site_fract_z
Cu1 Cu 0.11295(7) 0.30530(5) 1.04668(4)
Cu2 Cu 0.5000 0.0000 1.0000
C1 C 0.7401(6) 0.1126(4) 0.3653(3)
H1 H 0.8236 0.0555 0.3092
C2 C 0.7516(6) 0.0219(5) 0.4990(3)
H2 H 0.8419 -0.0937 0.5317
C3 C 0.6327(6) 0.0981(4) 0.5854(3)
C4 C 0.6530(6) 0.0012(4) 0.7327(3)
C5 C 0.4881(7) 0.2716(5) 0.5315(4)
H3 H 0.3992 0.3247 0.5885
C6 C 0.6129(7) 0.2838(5) 0.3075(3)
O1 O 0.5189(4) 0.0699(4) 0.8049(2)
O2 O 0.4820(5) 0.2929(4) 0.9867(3)
O3 O 0.6253(6) 0.3583(4) 0.1837(3)
O4 O 0.8055(5) -0.1439(3) 0.7714(2)
N1 N 0.1748(5) 0.1169(4) 0.9757(3)
N2 N -0.0359(5) 0.4998(4) 0.8841(3)
N3 N 0.0163(5) 0.5203(4) 0.7687(3)
N4 N 0.0872(6) 0.1386(4) 0.8714(3)
N5 N 0.0592(7) 0.5423(5) 0.6590(3)
N6 N 0.0044(7) 0.1538(5) 0.7774(4)
N7 N 0.4782(7) 0.3609(5) 0.3974(4)
Cu1A Cu 0.88705(7) -0.30530(5) 0.95332(4)
Cu1A_2 Cu -0.11295(7) 0.69470(5) 0.95332(4)
C1A C 0.2599(6) -0.1126(4) 1.6347(3)
H1A H 0.1764 -0.0555 1.6908
C2A C 0.2484(6) -0.0219(5) 1.5010(3)
H2A H 0.1581 0.0937 1.4683
C3A C 0.3673(6) -0.0981(4) 1.4146(3)
C4A C 0.3470(6) -0.0012(4) 1.2673(3)
C5A C 0.5119(7) -0.2716(5) 1.4685(4)
H3A H 0.6008 -0.3247 1.4115
C6A C 0.3871(7) -0.2838(5) 1.6925(3)
O1A O 0.4811(4) -0.0699(4) 1.1951(2)
O2A O 0.5180(5) -0.2929(4) 1.0133(3)
O3A O 0.3747(6) -0.3583(4) 1.8163(3)
O4A O 0.1945(5) 0.1439(3) 1.2286(2)
N1A N 0.8252(5) -0.1169(4) 1.0243(3)
N2A N 0.0359(5) 0.5002(4) 1.1159(3)
N2_2 N 0.9641(5) -0.5002(4) 0.8841(3)
N2A_2 N 1.0359(5) -0.4998(4) 1.1159(3)
N3A N -0.0163(5) 0.4797(4) 1.2313(3)
N4A N 0.9128(6) -0.1386(4) 1.1286(3)
N5A N -0.0592(7) 0.4577(5) 1.3410(3)
N6A N 0.9956(7) -0.1538(5) 1.2226(4)
N7A N 0.5218(7) -0.3609(5) 1.6026(4)
loop_
_geom_bond_atom_site_label_1
_geom_bond_atom_site_label_2
_geom_bond_site_symmetry_1
_geom_bond_site_symmetry_2
Cu1 O2 1_555 1_555
Cu2 O1 1_555 1_555
C1 H1 1_555 1_555
C2 C1 1_555 1_555
H2 C2 1_555 1_555
C3 C2 1_555 1_555
C4 C3 1_555 1_555
C5 C3 1_555 1_555
H3 C5 1_555 1_555
C6 C1 1_555 1_555
O1 C4 1_555 1_555
O2 Cu2 1_555 1_555
O3 C6 1_555 1_555
O4 C4 1_555 1_555
N1 Cu1 1_555 1_555
N2 Cu1 1_555 1_555
N3 N2 1_555 1_555
N4 N1 1_555 1_555
N5 N3 1_555 1_555
N6 N4 1_555 1_555
N7 C5 1_555 1_555
Cu1A O4 1_555 1_555
Cu1A_2 N2 1_555 1_555
C1A H1A 1_555 1_555
C2A C1A 1_555 1_555
H2A C2A 1_555 1_555
C3A C2A 1_555 1_555
C4A C3A 1_555 1_555
C5A C3A 1_555 1_555
H3A C5A 1_555 1_555
C6A C1A 1_555 1_555
O1A Cu2 1_555 1_555
O2A Cu2 1_555 1_555
O3A C6A 1_555 1_555
O4A Cu1 1_555 1_555
N1A Cu2 1_555 1_555
N2A Cu1 1_555 1_555
N2_2 Cu1A 1_555 1_555
N2A_2 Cu1A 1_555 1_555
N3A N2A 1_555 1_555
N4A N1A 1_555 1_555
N5A N3A 1_555 1_555
N6A N4A 1_555 1_555
N7A C5A 1_555 1_555
Cu2 N1 1_555 1_555
C6 N7 1_555 1_555
Cu1A O2A 1_555 1_555
Cu1A N1A 1_555 1_555
Cu1A_2 N2A 1_555 1_555
C4A O1A 1_555 1_555
C4A O4A 1_555 1_555
C6A N7A 1_555 1_555

#END
