
#######################################################################
#
#                 Cambridge Crystallographic Data Centre
#                                CCDC 
#
#######################################################################
#
# If this CIF has been generated from an entry in the Cambridge 
# Structural Database, then it will include bibliographic, chemical, 
# crystal, experimental, refinement or atomic coordinate data resulting 
# from the CCDC's data processing and validation procedures.
#
#######################################################################

data_LITBAT
_symmetry_cell_setting           monoclinic
_symmetry_space_group_name_H-M   'C 2/c'
_symmetry_Int_Tables_number      15
_space_group_name_Hall           '-C 2yn'
loop_
_symmetry_equiv_pos_site_id
_symmetry_equiv_pos_as_xyz
1 x,y,z
2 -x,y,1/2-z
3 1/2+x,1/2+y,z
4 1/2-x,1/2+y,1/2-z
5 -x,-y,-z
6 x,-y,1/2+z
7 1/2-x,1/2-y,-z
8 1/2+x,1/2-y,1/2+z
_cell_length_a                   20.6773(15)
_cell_length_b                   9.6611(7)
_cell_length_c                   30.357(2)
_cell_angle_alpha                90
_cell_angle_beta                 107.503(2)
_cell_angle_gamma                90
_cell_volume                     5783.51
loop_
_atom_site_label
_atom_site_type_symbol
_atom_site_fract_x
_atom_site_fract_y
_atom_site_fract_z
Ag1 Ag 0.5000 0.5000 0.0000
Ag2 Ag 0.99134(3) 1.02512(6) 0.338721(17)
O1 O 0.7503(2) 0.9176(4) 0.42168(13)
O2 O 0.7289(2) 0.5642(4) 0.22859(13)
O3 O 0.7997(2) 0.9089(4) 0.09259(13)
N1 N 0.5684(2) 0.6639(5) 0.03383(15)
C1 C 0.6594(3) 0.7355(5) 0.10070(17)
C2 C 0.6193(3) 0.6341(6) 0.07154(18)
H1 H 0.6290 0.5415 0.0790
C3 C 0.5550(3) 0.7982(6) 0.02251(19)
H2 H 0.5200 0.8204 -0.0039
C4 C 0.5918(3) 0.9024(6) 0.04904(18)
H3 H 0.5817 0.9940 0.0403
C5 C 0.6435(3) 0.8728(6) 0.08842(18)
H4 H 0.6678 0.9439 0.1067
C6 C 0.7159(3) 0.6882(5) 0.14150(17)
H5 H 0.7099 0.5905 0.1479
C7 C 0.7317(3) 0.7742(5) 0.18666(16)
H6 H 0.7035 0.8575 0.1830
C8 C 0.7316(3) 0.6910(5) 0.22908(17)
N2 N 0.5376(2) 0.6785(5) 0.39007(16)
C9 C 0.6337(3) 0.7420(5) 0.45458(16)
C10 C 0.5937(3) 0.6454(6) 0.42437(17)
H7 H 0.6065 0.5529 0.4282
C11 C 0.5182(3) 0.8108(7) 0.3854(2)
H8 H 0.4798 0.8347 0.3614
C12 C 0.5528(3) 0.9139(7) 0.4148(2)
H9 H 0.5370 1.0046 0.4115
C13 C 0.6116(3) 0.8788(6) 0.44914(18)
H10 H 0.6364 0.9469 0.4687
C14 C 0.7001(3) 0.6964(5) 0.48742(16)
H11 H 0.6968 0.6000 0.4966
C15 C 0.7641(3) 0.7150(5) 0.46955(16)
H12 H 0.7877 0.6273 0.4689
C16 C 0.7480(3) 0.7920(5) 0.42391(16)
N3 N 0.7380(2) 0.7661(5) 0.26688(14)
H13 H 0.7351 0.8548 0.2645
N4 N 0.7297(2) 0.7097(5) 0.38649(14)
H14 H 0.7294 0.6214 0.3902
C17 C 0.7497(4) 0.7022(7) 0.31228(19)
H15 H 0.7975 0.7092 0.3293
H16 H 0.7382 0.6048 0.3083
C18 C 0.7101(4) 0.7666(8) 0.33894(18)
H17 H 0.6623 0.7500 0.3240
H18 H 0.7176 0.8659 0.3402
N5 N 0.9519(3) 0.8605(6) 0.29025(16)
C19 C 0.8650(3) 0.7745(5) 0.22407(17)
C20 C 0.8999(3) 0.8799(6) 0.25150(19)
H19 H 0.8868 0.9704 0.2427
C21 C 0.9710(3) 0.7283(7) 0.3023(2)
H20 H 1.0070 0.7125 0.3289
C22 C 0.9395(4) 0.6179(7) 0.2770(2)
H21 H 0.9543 0.5284 0.2861
C23 C 0.8853(3) 0.6392(6) 0.23760(19)
H22 H 0.8628 0.5644 0.2204
C24 C 0.8051(3) 0.8066(5) 0.18347(16)
H23 H 0.8073 0.9036 0.1746
C25 C 0.7900(3) 0.7146(5) 0.14015(16)
H24 H 0.8169 0.6293 0.1465
C26 C 0.7947(3) 0.7849(5) 0.09587(17)
N6 N 0.7902(2) 0.6955(5) 0.06150(14)
H25 H 0.7899 0.6082 0.0670
C27 C 0.7860(3) 0.7414(6) 0.01504(18)
H26 H 0.8086 0.6744 0.0010
H27 H 0.8096 0.8290 0.0169
O1F O 0.7497(2) 0.5824(4) -0.42168(13)
O2F O 0.7711(2) 0.9358(4) -0.22859(13)
O3F O 0.7003(2) 0.5911(4) -0.09259(13)
N1F N 0.9316(2) 0.8361(5) -0.03383(15)
C1F C 0.8406(3) 0.7645(5) -0.10070(17)
C2F C 0.8807(3) 0.8659(6) -0.07154(18)
H1F H 0.8710 0.9585 -0.0790
C3F C 0.9450(3) 0.7018(6) -0.02251(19)
H2F H 0.9800 0.6796 0.0039
C4F C 0.9082(3) 0.5976(6) -0.04904(18)
H3F H 0.9183 0.5060 -0.0403
C5F C 0.8565(3) 0.6272(6) -0.08842(18)
H4F H 0.8322 0.5561 -0.1067
C6F C 0.7841(3) 0.8118(5) -0.14150(17)
H5F H 0.7901 0.9095 -0.1479
C7F C 0.7683(3) 0.7258(5) -0.18666(16)
H6F H 0.7965 0.6425 -0.1830
C8F C 0.7684(3) 0.8090(5) -0.22908(17)
N2F N 0.9624(2) 0.8215(5) -0.39007(16)
C9F C 0.8663(3) 0.7580(5) -0.45458(16)
C10F C 0.9063(3) 0.8546(6) -0.42437(17)
H7F H 0.8935 0.9471 -0.4282
C11F C 0.9818(3) 0.6892(7) -0.3854(2)
H8F H 1.0202 0.6653 -0.3614
C12F C 0.9472(3) 0.5861(7) -0.4148(2)
H9F H 0.9630 0.4954 -0.4115
C13F C 0.8884(3) 0.6212(6) -0.44914(18)
H10F H 0.8636 0.5531 -0.4687
C14F C 0.7999(3) 0.8036(5) -0.48742(16)
H11F H 0.8032 0.9000 -0.4966
C15F C 0.7359(3) 0.7850(5) -0.46955(16)
H12F H 0.7123 0.8727 -0.4689
C16F C 0.7520(3) 0.7080(5) -0.42391(16)
N3F N 0.7620(2) 0.7339(5) -0.26688(14)
H13F H 0.7649 0.6452 -0.2645
N4F N 0.7703(2) 0.7903(5) -0.38649(14)
H14F H 0.7706 0.8786 -0.3902
C17F C 0.7503(4) 0.7978(7) -0.31228(19)
H15F H 0.7025 0.7908 -0.3293
H16F H 0.7618 0.8952 -0.3083
C18F C 0.7899(4) 0.7334(8) -0.33894(18)
H17F H 0.8377 0.7500 -0.3240
H18F H 0.7824 0.6341 -0.3402
N5F N 0.5481(3) 0.6395(6) -0.29025(16)
C19F C 0.6350(3) 0.7255(5) -0.22407(17)
C20F C 0.6001(3) 0.6201(6) -0.25150(19)
H19F H 0.6132 0.5296 -0.2427
C21F C 0.5290(3) 0.7717(7) -0.3023(2)
H20F H 0.4930 0.7875 -0.3289
C22F C 0.5605(4) 0.8821(7) -0.2770(2)
H21F H 0.5457 0.9716 -0.2861
C23F C 0.6147(3) 0.8608(6) -0.23760(19)
H22F H 0.6372 0.9356 -0.2204
C24F C 0.6949(3) 0.6934(5) -0.18347(16)
H23F H 0.6927 0.5964 -0.1746
C25F C 0.7100(3) 0.7854(5) -0.14015(16)
H24F H 0.6831 0.8707 -0.1465
C26F C 0.7053(3) 0.7151(5) -0.09587(17)
N6F N 0.7098(2) 0.8045(5) -0.06150(14)
H25F H 0.7101 0.8918 -0.0670
C27F C 0.7140(3) 0.7586(6) -0.01504(18)
H26F H 0.6914 0.8256 -0.0010
H27F H 0.6904 0.6710 -0.0169
Ag2B Ag 0.49134(3) 0.52512(6) 0.338721(17)
Ag1B Ag 1.0000 1.0000 0.0000
Ag2D Ag 1.00866(3) 0.97488(6) -0.338721(17)
Ag2F Ag 0.50866(3) 0.47488(6) -0.338721(17)
N1D N 0.4316(2) 0.3361(5) -0.03383(15)
N2B N 1.0376(2) 1.1785(5) 0.39007(16)
C14_2 C 0.7001(3) 0.6964(5) -0.51258(16)
C14F_2 C 0.7999(3) 0.8036(5) 0.51258(16)
C15_2 C 0.7641(3) 0.7150(5) -0.53045(16)
C15F_2 C 0.7359(3) 0.7850(5) 0.53045(16)
N5B N 0.4519(3) 0.3605(6) 0.29025(16)
Cl1 Cl 0.92984(8) 0.77496(16) 0.40390(5)
O4 O 0.9088(2) 0.7781(5) 0.44512(14)
O5 O 0.9999(3) 0.8126(8) 0.41515(16)
O6 O 0.8893(3) 0.8701(5) 0.37077(15)
O7 O 0.9227(3) 0.6384(5) 0.38545(18)
Cl2 Cl 1.0000 1.2630(3) 0.2500
O8 O 1.0454(8) 1.1987(18) 0.2386(7)
O9 O 0.9607(4) 1.3450(8) 0.2129(2)
O8A O 0.9546(8) 1.1987(18) 0.2614(7)
O9A O 1.0393(4) 1.3450(8) 0.2871(2)
loop_
_geom_bond_atom_site_label_1
_geom_bond_atom_site_label_2
_geom_bond_site_symmetry_1
_geom_bond_site_symmetry_2
Ag1 N1 1_555 1_555
Ag2 N5 1_555 1_555
O1 C16 1_555 1_555
O2 C8 1_555 1_555
O3 C26 1_555 1_555
N1 C2 1_555 1_555
C1 C2 1_555 1_555
C2 H1 1_555 1_555
C3 N1 1_555 1_555
H2 C3 1_555 1_555
C4 C3 1_555 1_555
H3 C4 1_555 1_555
C5 C1 1_555 1_555
H4 C5 1_555 1_555
C6 C1 1_555 1_555
H5 C6 1_555 1_555
C7 C6 1_555 1_555
H6 C7 1_555 1_555
C8 C7 1_555 1_555
N2 C10 1_555 1_555
C9 C10 1_555 1_555
C10 H7 1_555 1_555
C11 N2 1_555 1_555
H8 C11 1_555 1_555
C12 C11 1_555 1_555
H9 C12 1_555 1_555
C13 C9 1_555 1_555
H10 C13 1_555 1_555
C14 C9 1_555 1_555
H11 C14 1_555 1_555
C15 C14 1_555 1_555
H12 C15 1_555 1_555
C16 C15 1_555 1_555
N3 C8 1_555 1_555
H13 N3 1_555 1_555
N4 C16 1_555 1_555
H14 N4 1_555 1_555
C17 N3 1_555 1_555
H15 C17 1_555 1_555
H16 C17 1_555 1_555
C18 N4 1_555 1_555
H17 C18 1_555 1_555
H18 C18 1_555 1_555
N5 C20 1_555 1_555
C19 C20 1_555 1_555
C20 H19 1_555 1_555
C21 N5 1_555 1_555
H20 C21 1_555 1_555
C22 C21 1_555 1_555
H21 C22 1_555 1_555
C23 C19 1_555 1_555
H22 C23 1_555 1_555
C24 C7 1_555 1_555
H23 C24 1_555 1_555
C25 C6 1_555 1_555
H24 C25 1_555 1_555
C26 C25 1_555 1_555
N6 C26 1_555 1_555
H25 N6 1_555 1_555
C27 N6 1_555 1_555
H26 C27 1_555 1_555
H27 C27 1_555 1_555
Cl1 O4 1_555 1_555
O5 Cl1 1_555 1_555
O6 Cl1 1_555 1_555
O7 Cl1 1_555 1_555
Cl2 O8 1_555 1_555
O9 Cl2 1_555 1_555
O1F C16F 1_555 1_555
O2F C8F 1_555 1_555
O3F C26F 1_555 1_555
N1F C2F 1_555 1_555
C1F C2F 1_555 1_555
C2F H1F 1_555 1_555
C3F N1F 1_555 1_555
H2F C3F 1_555 1_555
C4F C3F 1_555 1_555
H3F C4F 1_555 1_555
C5F C1F 1_555 1_555
H4F C5F 1_555 1_555
C6F C1F 1_555 1_555
H5F C6F 1_555 1_555
C7F C6F 1_555 1_555
H6F C7F 1_555 1_555
C8F C7F 1_555 1_555
N2F C10F 1_555 1_555
C9F C10F 1_555 1_555
C10F H7F 1_555 1_555
C11F N2F 1_555 1_555
H8F C11F 1_555 1_555
C12F C11F 1_555 1_555
H9F C12F 1_555 1_555
C13F C9F 1_555 1_555
H10F C13F 1_555 1_555
C14F C9F 1_555 1_555
H11F C14F 1_555 1_555
C15F C14F 1_555 1_555
H12F C15F 1_555 1_555
C16F C15F 1_555 1_555
N3F C8F 1_555 1_555
H13F N3F 1_555 1_555
N4F C16F 1_555 1_555
H14F N4F 1_555 1_555
C17F N3F 1_555 1_555
H15F C17F 1_555 1_555
H16F C17F 1_555 1_555
C18F N4F 1_555 1_555
H17F C18F 1_555 1_555
H18F C18F 1_555 1_555
N5F C20F 1_555 1_555
C19F C20F 1_555 1_555
C20F H19F 1_555 1_555
C21F N5F 1_555 1_555
H20F C21F 1_555 1_555
C22F C21F 1_555 1_555
H21F C22F 1_555 1_555
C23F C19F 1_555 1_555
H22F C23F 1_555 1_555
C24F C7F 1_555 1_555
H23F C24F 1_555 1_555
C25F C6F 1_555 1_555
H24F C25F 1_555 1_555
C26F C25F 1_555 1_555
N6F C26F 1_555 1_555
H25F N6F 1_555 1_555
C27F C27 1_555 1_555
H26F C27F 1_555 1_555
H27F C27F 1_555 1_555
Ag2B N2 1_555 1_555
Ag1B N1F 1_555 1_555
Ag2D N2F 1_555 1_555
Ag2F N5F 1_555 1_555
N1D Ag1 1_555 1_555
N2B Ag2 1_555 1_555
C14_2 C15F 1_555 1_555
C14F_2 C15 1_555 1_555
C15_2 C14F 1_555 1_555
C15F_2 C14 1_555 1_555
N5B Ag2B 1_555 1_555
O8A Cl2 1_555 1_555
O9A Cl2 1_555 1_555
C4 C5 1_555 1_555
C12 C13 1_555 1_555
C17 C18 1_555 1_555
C19 C24 1_555 1_555
C22 C23 1_555 1_555
C24 C25 1_555 1_555
C4F C5F 1_555 1_555
C12F C13F 1_555 1_555
C17F C18F 1_555 1_555
C19F C24F 1_555 1_555
C22F C23F 1_555 1_555
C24F C25F 1_555 1_555
N6F C27F 1_555 1_555
C14_2 C15_2 1_555 1_555
C14F_2 C15F_2 1_555 1_555

#END
