
#######################################################################
#
#                 Cambridge Crystallographic Data Centre
#                                CCDC 
#
#######################################################################
#
# If this CIF has been generated from an entry in the Cambridge 
# Structural Database, then it will include bibliographic, chemical, 
# crystal, experimental, refinement or atomic coordinate data resulting 
# from the CCDC's data processing and validation procedures.
#
#######################################################################

data_LITBUN
_symmetry_cell_setting           triclinic
_symmetry_space_group_name_H-M   'P -1'
_symmetry_Int_Tables_number      2
_space_group_name_Hall           '-P 1'
loop_
_symmetry_equiv_pos_site_id
_symmetry_equiv_pos_as_xyz
1 x,y,z
2 -x,-y,-z
_cell_length_a                   9.458(8)
_cell_length_b                   10.001(8)
_cell_length_c                   11.102(9)
_cell_angle_alpha                75.79(2)
_cell_angle_beta                 65.02(2)
_cell_angle_gamma                89.24(3)
_cell_volume                     917.876
loop_
_atom_site_label
_atom_site_type_symbol
_atom_site_fract_x
_atom_site_fract_y
_atom_site_fract_z
Ag1 Ag 0.0000 0.0000 0.0000
N1 N 0.0523(13) -0.8304(7) 0.5097(13)
H1 H 0.1437 -0.8166 0.5061
O1 O -0.1372(11) -0.7312(7) 0.4608(10)
N2 N 0.1112(16) -0.1419(12) 0.0906(11)
C1 C 0.1015(15) -0.3463(11) 0.2691(10)
C2 C 0.0404(16) -0.2568(11) 0.1922(11)
H2 H -0.0642 -0.2792 0.2138
C3 C -0.0064(14) -0.4550(9) 0.4007(10)
H3 H -0.0988 -0.4841 0.3910
C4 C 0.0609(13) -0.5845(8) 0.4574(11)
H4 H 0.1753 -0.5791 0.4078
C5 C -0.0167(13) -0.7184(8) 0.4726(13)
C6 C -0.0220(15) -0.9790(11) 0.5574(11)
H5 H 0.0152 -1.0366 0.6198
H6 H -0.1353 -0.9830 0.6042
C7 C 0.254(2) -0.1266(17) 0.0651(15)
H7 H 0.3099 -0.0468 -0.0027
C8 C 0.343(2) -0.213(2) 0.1240(15)
H8 H 0.4512 -0.1979 0.0898
C9 C 0.2481(19) -0.3243(14) 0.2413(13)
H9 H 0.2909 -0.3790 0.2956
N1A N -0.0523(13) -1.1696(7) 0.4903(13)
H1A H -0.1437 -1.1834 0.4939
O1A O 0.1372(11) -1.2688(7) 0.5392(10)
N2A N -0.1112(16) -1.8581(12) 0.9094(11)
C1A C -0.1015(15) -1.6537(11) 0.7309(10)
C2A C -0.0404(16) -1.7432(11) 0.8078(11)
H2A H 0.0642 -1.7208 0.7862
C3A C 0.0064(14) -1.5450(9) 0.5993(10)
H3A H 0.0988 -1.5159 0.6090
C4A C -0.0609(13) -1.4155(8) 0.5426(11)
H4A H -0.1753 -1.4209 0.5922
C5A C 0.0167(13) -1.2816(8) 0.5274(13)
C6A C 0.0220(15) -1.0210(11) 0.4426(11)
H5A H -0.0152 -0.9634 0.3802
H6A H 0.1353 -1.0170 0.3958
C7A C -0.254(2) -1.8734(17) 0.9349(15)
H7A H -0.3099 -1.9532 1.0027
C8A C -0.343(2) -1.787(2) 0.8760(15)
H8A H -0.4512 -1.8021 0.9102
C9A C -0.2481(19) -1.6757(14) 0.7587(13)
H9A H -0.2909 -1.6210 0.7044
N1A_2 N -0.0523(13) -2.1696(7) 0.4903(13)
H1A_2 H -0.1437 -2.1834 0.4939
O1A_2 O 0.1372(11) -2.2688(7) 0.5392(10)
N2A_2 N -0.1112(16) -2.8581(12) 0.9094(11)
C1A_2 C -0.1015(15) -2.6537(11) 0.7309(10)
C2A_2 C -0.0404(16) -2.7432(11) 0.8078(11)
H2A_2 H 0.0642 -2.7208 0.7862
C3A_2 C 0.0064(14) -2.5450(9) 0.5993(10)
H3A_2 H 0.0988 -2.5159 0.6090
C4A_2 C -0.0609(13) -2.4155(8) 0.5426(11)
H4A_2 H -0.1753 -2.4209 0.5922
C5A_2 C 0.0167(13) -2.2816(8) 0.5274(13)
C6A_2 C 0.0220(15) -2.0210(11) 0.4426(11)
H5A_2 H -0.0152 -1.9634 0.3802
H6A_2 H 0.1353 -2.0170 0.3958
C7A_2 C -0.254(2) -2.8734(17) 0.9349(15)
H7A_2 H -0.3099 -2.9532 1.0027
C8A_2 C -0.343(2) -2.787(2) 0.8760(15)
H8A_2 H -0.4512 -2.8021 0.9102
C9A_2 C -0.2481(19) -2.6757(14) 0.7587(13)
H9A_2 H -0.2909 -2.6210 0.7044
N1_2 N 0.0523(13) -1.8304(7) 0.5097(13)
H1_2 H 0.1437 -1.8166 0.5061
O1_2 O -0.1372(11) -1.7312(7) 0.4608(10)
N2_2 N 0.1112(16) -1.1419(12) 0.0906(11)
C1_2 C 0.1015(15) -1.3463(11) 0.2691(10)
C2_2 C 0.0404(16) -1.2568(11) 0.1922(11)
H2_2 H -0.0642 -1.2792 0.2138
C3_2 C -0.0064(14) -1.4550(9) 0.4007(10)
H3_2 H -0.0988 -1.4841 0.3910
C4_2 C 0.0609(13) -1.5845(8) 0.4574(11)
H4_2 H 0.1753 -1.5791 0.4078
C5_2 C -0.0167(13) -1.7184(8) 0.4726(13)
C6_2 C -0.0220(15) -1.9790(11) 0.5574(11)
H5_2 H 0.0152 -2.0366 0.6198
H6_2 H -0.1353 -1.9830 0.6042
C7_2 C 0.254(2) -1.1266(17) 0.0651(15)
H7_2 H 0.3099 -1.0468 -0.0027
C8_2 C 0.343(2) -1.213(2) 0.1240(15)
H8_2 H 0.4512 -1.1979 0.0898
C9_2 C 0.2481(19) -1.3243(14) 0.2413(13)
H9_2 H 0.2909 -1.3790 0.2956
Ag1_2 Ag 0.0000 -3.0000 1.0000
Ag1_3 Ag 0.0000 -2.0000 1.0000
Ag1_4 Ag 0.0000 -1.0000 0.0000
N2A_3 N -0.1112(16) 0.1419(12) -0.0906(11)
C3_3 C -0.0064(14) -2.4550(9) 0.4007(10)
C3A_3 C 0.0064(14) -0.5450(9) 0.5993(10)
C4_3 C 0.0609(13) -2.5845(8) 0.4574(11)
C4A_3 C -0.0609(13) -0.4155(8) 0.5426(11)
Ag2 Ag 0.0000 -1.5000 1.0000
O2 O 0.3116(12) -0.7736(8) 0.5690(10)
C10 C 0.3945(13) -1.0499(10) 0.5954(10)
H10 H 0.2915 -1.0191 0.6082
N3 N 0.2237(15) -1.3768(11) 0.8768(10)
C11 C 0.3790(14) -1.1729(11) 0.7141(12)
C12 C 0.2418(14) -1.2601(12) 0.7858(11)
H11 H 0.1563 -1.2338 0.7680
C13 C 0.3538(18) -1.4243(15) 0.9017(14)
H12 H 0.3473 -1.5108 0.9601
C14 C 0.4858(18) -1.3381(14) 0.8369(15)
H13 H 0.5708 -1.3635 0.8556
C15 C 0.501(2) -1.2136(16) 0.7439(15)
H14 H 0.5953 -1.1568 0.7011
C16 C 0.5148(13) -0.9255(9) 0.5521(10)
H15 H 0.5780 -0.9425 0.6041
C17 C 0.4363(17) -0.7872(12) 0.5623(12)
N4 N 0.5390(14) -0.6879(9) 0.5469(15)
H16 H 0.6350 -0.7020 0.5281
C18 C 0.4742(17) -0.532(2) 0.5656(14)
H17 H 0.3609 -0.5385 0.6143
H18 H 0.5217 -0.4898 0.6112
O2A O 0.6884(12) -1.2264(8) 0.4310(10)
C10A C 0.6055(13) -0.9501(10) 0.4046(10)
H10A H 0.7085 -0.9809 0.3918
N3A N 0.7763(15) -0.6232(11) 0.1232(10)
C11A C 0.6210(14) -0.8271(11) 0.2859(12)
C12A C 0.7582(14) -0.7399(12) 0.2142(11)
H11A H 0.8437 -0.7662 0.2320
C13A C 0.6462(18) -0.5757(15) 0.0983(14)
H12A H 0.6527 -0.4892 0.0399
C14A C 0.5142(18) -0.6619(14) 0.1631(15)
H13A H 0.4292 -0.6365 0.1444
C15A C 0.499(2) -0.7864(16) 0.2561(15)
H14A H 0.4047 -0.8432 0.2989
C16A C 0.4852(13) -1.0745(9) 0.4479(10)
H15A H 0.4220 -1.0575 0.3959
C17A C 0.5637(17) -1.2128(12) 0.4377(12)
N4A N 0.4610(14) -1.3121(9) 0.4531(15)
H16A H 0.3650 -1.2980 0.4719
C18A C 0.5258(17) -1.468(2) 0.4344(14)
H17A H 0.6391 -1.4615 0.3857
H18A H 0.4783 -1.5102 0.3888
Ag2_2 Ag 1.0000 -0.5000 0.0000
N3A_2 N -0.2237(15) -1.6232(11) 1.1232(10)
C18_2 C 0.4742(17) -1.532(2) 0.5656(14)
C18A_2 C 0.5258(17) -0.468(2) 0.4344(14)
N5 N 0.187(2) 0.2380(18) 0.081(2)
O3 O 0.2885(19) 0.1478(17) 0.1142(17)
O4 O 0.1412(16) 0.3165(14) 0.1597(14)
O5 O 0.1915(19) 0.2417(17) -0.020(2)
loop_
_geom_bond_atom_site_label_1
_geom_bond_atom_site_label_2
_geom_bond_site_symmetry_1
_geom_bond_site_symmetry_2
Ag1 N2 1_555 1_555
N1 H1 1_555 1_555
O1 C5 1_555 1_555
N2 C2 1_555 1_555
C1 C2 1_555 1_555
C2 H2 1_555 1_555
C3 C1 1_555 1_555
H3 C3 1_555 1_555
C4 C3 1_555 1_555
H4 C4 1_555 1_555
C5 N1 1_555 1_555
C6 N1 1_555 1_555
H5 C6 1_555 1_555
H6 C6 1_555 1_555
C7 N2 1_555 1_555
H7 C7 1_555 1_555
C8 C7 1_555 1_555
H8 C8 1_555 1_555
C9 C1 1_555 1_555
H9 C9 1_555 1_555
Ag2 N3 1_555 1_555
O2 C17 1_555 1_555
C10 H10 1_555 1_555
N3 C12 1_555 1_555
C11 C10 1_555 1_555
C12 C11 1_555 1_555
H11 C12 1_555 1_555
C13 N3 1_555 1_555
H12 C13 1_555 1_555
C14 C13 1_555 1_555
H13 C14 1_555 1_555
C15 C11 1_555 1_555
H14 C15 1_555 1_555
C16 C10 1_555 1_555
H15 C16 1_555 1_555
C17 C16 1_555 1_555
N4 C17 1_555 1_555
H16 N4 1_555 1_555
C18 N4 1_555 1_555
H17 C18 1_555 1_555
H18 C18 1_555 1_555
N5 O3 1_555 1_555
O4 N5 1_555 1_555
O5 N5 1_555 1_555
N1A H1A 1_555 1_555
O1A C5A 1_555 1_555
N2A C2A 1_555 1_555
C1A C2A 1_555 1_555
C2A H2A 1_555 1_555
C3A C1A 1_555 1_555
H3A C3A 1_555 1_555
C4A C3A 1_555 1_555
H4A C4A 1_555 1_555
C5A N1A 1_555 1_555
C6A C6 1_555 1_555
H5A C6A 1_555 1_555
H6A C6A 1_555 1_555
C7A N2A 1_555 1_555
H7A C7A 1_555 1_555
C8A C7A 1_555 1_555
H8A C8A 1_555 1_555
C9A C1A 1_555 1_555
H9A C9A 1_555 1_555
N1A_2 H1A_2 1_555 1_555
O1A_2 C5A_2 1_555 1_555
N2A_2 C2A_2 1_555 1_555
C1A_2 C2A_2 1_555 1_555
C2A_2 H2A_2 1_555 1_555
C3A_2 C1A_2 1_555 1_555
H3A_2 C3A_2 1_555 1_555
C4A_2 C3A_2 1_555 1_555
H4A_2 C4A_2 1_555 1_555
C5A_2 N1A_2 1_555 1_555
C6A_2 N1A_2 1_555 1_555
H5A_2 C6A_2 1_555 1_555
H6A_2 C6A_2 1_555 1_555
C7A_2 N2A_2 1_555 1_555
H7A_2 C7A_2 1_555 1_555
C8A_2 C7A_2 1_555 1_555
H8A_2 C8A_2 1_555 1_555
C9A_2 C1A_2 1_555 1_555
H9A_2 C9A_2 1_555 1_555
N1_2 H1_2 1_555 1_555
O1_2 C5_2 1_555 1_555
N2_2 C2_2 1_555 1_555
C1_2 C2_2 1_555 1_555
C2_2 H2_2 1_555 1_555
C3_2 C4A 1_555 1_555
H3_2 C3_2 1_555 1_555
C4_2 C3A 1_555 1_555
H4_2 C4_2 1_555 1_555
C5_2 N1_2 1_555 1_555
C6_2 C6A_2 1_555 1_555
H5_2 C6_2 1_555 1_555
H6_2 C6_2 1_555 1_555
C7_2 N2_2 1_555 1_555
H7_2 C7_2 1_555 1_555
C8_2 C7_2 1_555 1_555
H8_2 C8_2 1_555 1_555
C9_2 C1_2 1_555 1_555
H9_2 C9_2 1_555 1_555
Ag1_2 N2A_2 1_555 1_555
Ag1_3 N2A 1_555 1_555
Ag1_4 N2_2 1_555 1_555
N2A_3 Ag1 1_555 1_555
C3_3 C4A_2 1_555 1_555
C3A_3 C4 1_555 1_555
C4_3 C3A_2 1_555 1_555
C4A_3 C3 1_555 1_555
O2A C17A 1_555 1_555
C10A C16 1_555 1_555
H10A C10A 1_555 1_555
N3A C12A 1_555 1_555
C11A C10A 1_555 1_555
C12A C11A 1_555 1_555
H11A C12A 1_555 1_555
C13A N3A 1_555 1_555
H12A C13A 1_555 1_555
C14A C13A 1_555 1_555
H13A C14A 1_555 1_555
C15A C11A 1_555 1_555
H14A C15A 1_555 1_555
C16A C10 1_555 1_555
H15A C16A 1_555 1_555
C17A C16A 1_555 1_555
N4A C17A 1_555 1_555
H16A N4A 1_555 1_555
C18A N4A 1_555 1_555
H17A C18A 1_555 1_555
H18A C18A 1_555 1_555
Ag2_2 N3A 1_555 1_555
N3A_2 Ag2 1_555 1_555
C18_2 C18A 1_555 1_555
C18A_2 C18 1_555 1_555
C4 C5 1_555 1_555
C8 C9 1_555 1_555
C14 C15 1_555 1_555
N1A C6A 1_555 1_555
C4A C5A 1_555 1_555
C8A C9A 1_555 1_555
C4A_2 C5A_2 1_555 1_555
C8A_2 C9A_2 1_555 1_555
N1_2 C6_2 1_555 1_555
C1_2 C3_2 1_555 1_555
C3_2 C4_2 1_555 1_555
C4_2 C5_2 1_555 1_555
C8_2 C9_2 1_555 1_555
C3_3 C4_3 1_555 1_555
C3A_3 C4A_3 1_555 1_555
C10A C16A 1_555 1_555
C14A C15A 1_555 1_555

#END
