
#######################################################################
#
#                 Cambridge Crystallographic Data Centre
#                                CCDC 
#
#######################################################################
#
# If this CIF has been generated from an entry in the Cambridge 
# Structural Database, then it will include bibliographic, chemical, 
# crystal, experimental, refinement or atomic coordinate data resulting 
# from the CCDC's data processing and validation procedures.
#
#######################################################################

data_LITBEX
_symmetry_cell_setting           monoclinic
_symmetry_space_group_name_H-M   'C 2/c'
_symmetry_Int_Tables_number      15
_space_group_name_Hall           '-C 2yn'
loop_
_symmetry_equiv_pos_site_id
_symmetry_equiv_pos_as_xyz
1 x,y,z
2 -x,y,1/2-z
3 1/2+x,1/2+y,z
4 1/2-x,1/2+y,1/2-z
5 -x,-y,-z
6 x,-y,1/2+z
7 1/2-x,1/2-y,-z
8 1/2+x,1/2-y,1/2+z
_cell_length_a                   20.838(4)
_cell_length_b                   9.7573(16)
_cell_length_c                   12.759(3)
_cell_angle_alpha                90
_cell_angle_beta                 121.463(8)
_cell_angle_gamma                90
_cell_volume                     2212.79
loop_
_atom_site_label
_atom_site_type_symbol
_atom_site_fract_x
_atom_site_fract_y
_atom_site_fract_z
Ag1 Ag 0.5000 0.0000 0.5000
O1 O 0.28147(14) 0.0332(2) -0.2127(2)
N1 N 0.44940(12) 0.1547(3) 0.3621(2)
N2 N 0.23662(12) 0.2391(2) -0.3003(2)
H1 H 0.2361 0.3258 -0.2886
C1 C 0.38288(14) 0.2116(3) 0.1466(2)
C2 C 0.41338(15) 0.1187(3) 0.2432(2)
H2 H 0.4086 0.0257 0.2243
C3 C 0.45486(16) 0.2880(3) 0.3878(3)
H3 H 0.4796 0.3152 0.4696
C4 C 0.42533(19) 0.3870(3) 0.2980(3)
H4 H 0.4294 0.4792 0.3191
C5 C 0.38984(17) 0.3485(3) 0.1773(3)
H5 H 0.3704 0.4148 0.1159
C6 C 0.34715(14) 0.1580(3) 0.0211(2)
H6 H 0.3503 0.0638 0.0137
C7 C 0.31119(15) 0.2273(3) -0.0825(2)
H7 H 0.3078 0.3222 -0.0798
C8 C 0.27596(15) 0.1579(3) -0.2032(2)
C9 C 0.19437(16) 0.1865(3) -0.4255(2)
H8 H 0.1508 0.2445 -0.4740
H9 H 0.1763 0.0952 -0.4243
C10 C 0.23986(15) 0.1802(3) -0.4872(2)
H10 H 0.2112 0.1306 -0.5640
H11 H 0.2858 0.1292 -0.4349
O1F O 0.21853(14) 0.4668(2) -0.7873(2)
N1F N 0.05060(12) 0.3453(3) -1.3621(2)
N2F N 0.26338(12) 0.2609(2) -0.6997(2)
H1F H 0.2639 0.1742 -0.7114
C1F C 0.11712(14) 0.2884(3) -1.1466(2)
C2F C 0.08662(15) 0.3813(3) -1.2432(2)
H2F H 0.0914 0.4743 -1.2243
C3F C 0.04514(16) 0.2120(3) -1.3878(3)
H3F H 0.0204 0.1848 -1.4696
C4F C 0.07467(19) 0.1130(3) -1.2980(3)
H4F H 0.0706 0.0208 -1.3191
C5F C 0.11016(17) 0.1515(3) -1.1773(3)
H5F H 0.1296 0.0852 -1.1159
C6F C 0.15285(14) 0.3420(3) -1.0211(2)
H6F H 0.1497 0.4362 -1.0137
C7F C 0.18881(15) 0.2727(3) -0.9175(2)
H7F H 0.1922 0.1778 -0.9202
C8F C 0.22404(15) 0.3421(3) -0.7968(2)
C9F C 0.30563(16) 0.3135(3) -0.5745(2)
H8F H 0.3492 0.2555 -0.5260
H9F H 0.3237 0.4048 -0.5757
C10F C 0.26014(15) 0.3198(3) -0.5128(2)
H10F H 0.2888 0.3694 -0.4360
H11F H 0.2142 0.3708 -0.5651
Ag1B Ag 0.0000 0.5000 -1.5000
N1D N 0.55060(12) -0.1547(3) 0.6379(2)
Cl1 Cl 0.0000 0.26023(14) 0.2500
O2 O 0.0394(2) 0.3528(4) 0.3557(3)
O3 O 0.0648(4) 0.2525(6) 0.2282(7)
O2A O -0.0394(2) 0.3528(4) 0.1443(3)
O3A O -0.0648(4) 0.2525(6) 0.2718(7)
O4? O 0.0348(3) 0.1359(6) 0.3169(7)
loop_
_geom_bond_atom_site_label_1
_geom_bond_atom_site_label_2
_geom_bond_site_symmetry_1
_geom_bond_site_symmetry_2
Ag1 N1 1_555 1_555
O1 C8 1_555 1_555
N1 C2 1_555 1_555
N2 H1 1_555 1_555
C1 C2 1_555 1_555
C2 H2 1_555 1_555
C3 N1 1_555 1_555
H3 C3 1_555 1_555
C4 C3 1_555 1_555
H4 C4 1_555 1_555
C5 C1 1_555 1_555
H5 C5 1_555 1_555
C6 C1 1_555 1_555
H6 C6 1_555 1_555
C7 C6 1_555 1_555
H7 C7 1_555 1_555
C8 N2 1_555 1_555
C9 N2 1_555 1_555
H8 C9 1_555 1_555
H9 C9 1_555 1_555
C10 C9 1_555 1_555
H10 C10 1_555 1_555
H11 C10 1_555 1_555
Cl1 O2 1_555 1_555
O3 Cl1 1_555 1_555
O1F C8F 1_555 1_555
N1F C2F 1_555 1_555
N2F H1F 1_555 1_555
C1F C2F 1_555 1_555
C2F H2F 1_555 1_555
C3F N1F 1_555 1_555
H3F C3F 1_555 1_555
C4F C3F 1_555 1_555
H4F C4F 1_555 1_555
C5F C1F 1_555 1_555
H5F C5F 1_555 1_555
C6F C1F 1_555 1_555
H6F C6F 1_555 1_555
C7F C6F 1_555 1_555
H7F C7F 1_555 1_555
C8F N2F 1_555 1_555
C9F N2F 1_555 1_555
H8F C9F 1_555 1_555
H9F C9F 1_555 1_555
C10F C10 1_555 1_555
H10F C10F 1_555 1_555
H11F C10F 1_555 1_555
Ag1B N1F 1_555 1_555
N1D Ag1 1_555 1_555
O2A Cl1 1_555 1_555
O3A Cl1 1_555 1_555
C4 C5 1_555 1_555
C7 C8 1_555 1_555
C4F C5F 1_555 1_555
C7F C8F 1_555 1_555
C9F C10F 1_555 1_555

#END
