
#######################################################################
#
#                 Cambridge Crystallographic Data Centre
#                                CCDC 
#
#######################################################################
#
# If this CIF has been generated from an entry in the Cambridge 
# Structural Database, then it will include bibliographic, chemical, 
# crystal, experimental, refinement or atomic coordinate data resulting 
# from the CCDC's data processing and validation procedures.
#
#######################################################################

data_LITBIB
_symmetry_cell_setting           monoclinic
_symmetry_space_group_name_H-M   'C 2'
_symmetry_Int_Tables_number      5
_space_group_name_Hall           'C 2y'
loop_
_symmetry_equiv_pos_site_id
_symmetry_equiv_pos_as_xyz
1 x,y,z
2 -x,y,-z
3 1/2+x,1/2+y,z
4 1/2-x,1/2+y,-z
_cell_length_a                   19.871(2)
_cell_length_b                   9.8406(10)
_cell_length_c                   23.807(2)
_cell_angle_alpha                90
_cell_angle_beta                 110.762(3)
_cell_angle_gamma                90
_cell_volume                     4352.97
loop_
_atom_site_label
_atom_site_type_symbol
_atom_site_fract_x
_atom_site_fract_y
_atom_site_fract_z
Ag1 Ag 0.87686(6) 0.45393(9) 0.86296(4)
Ag2 Ag 0.88489(6) 0.91426(9) 1.37433(4)
O1 O 1.2489(5) 0.8470(9) 1.5332(4)
N1 N 1.3963(6) 0.5764(11) 1.4359(4)
O2 O 1.4654(5) 0.5050(8) 1.6991(4)
C1 C 1.3923(6) 0.6551(10) 1.5301(4)
C2 C 1.3929(6) 0.5557(12) 1.4895(5)
H1 H 1.3907 0.4659 1.5010
C3 C 1.4027(8) 0.7073(15) 1.4191(5)
H2 H 1.4030 0.7257 1.3809
C4 C 1.4087(12) 0.8097(15) 1.4584(7)
H3 H 1.4170 0.8976 1.4480
C5 C 1.4026(11) 0.7861(13) 1.5137(6)
H4 H 1.4055 0.8580 1.5397
C6 C 1.3808(6) 0.6173(11) 1.5871(4)
H5 H 1.3943 0.5221 1.5970
C7 C 1.4148(6) 0.7080(11) 1.6446(4)
H6 H 1.4374 0.7912 1.6372
C8 C 1.4615(6) 0.6285(11) 1.6970(5)
N2 N 1.3475(5) 0.7832(11) 1.8043(4)
C9 C 1.3272(5) 0.6992(11) 1.7040(4)
C10 C 1.3434(6) 0.8032(11) 1.7460(5)
H7 H 1.3518 0.8899 1.7343
C11 C 1.3309(7) 0.6573(15) 1.8199(5)
H8 H 1.3330 0.6415 1.8591
C12 C 1.3112(6) 0.5543(14) 1.7787(5)
H9 H 1.2979 0.4704 1.7894
C13 C 1.3112(7) 0.5740(12) 1.7220(5)
H10 H 1.3001 0.5019 1.6950
C14 C 1.3372(6) 0.7308(10) 1.6460(4)
H11 H 1.3239 0.8260 1.6359
C15 C 1.3021(5) 0.6434(10) 1.5885(4)
H12 H 1.2796 0.5604 1.5963
C16 C 1.2542(6) 0.7194(11) 1.5332(5)
N3 N 0.7338(5) 0.6883(9) 0.9963(5)
H13 H 0.7361 0.6010 0.9970
N4 N 1.4990(5) 0.7063(10) 1.7454(4)
H14 H 1.4985 0.7932 1.7414
C17 C 0.6871(7) 0.7568(13) 0.9437(5)
H15 H 0.6614 0.8278 0.9561
H16 H 0.7163 0.8001 0.9237
C18 C 0.6357(7) 0.6695(14) 0.9016(5)
H17 H 0.6048 0.6305 0.9211
H18 H 0.6615 0.5952 0.8915
C19 C 0.5897(7) 0.7350(12) 0.8453(5)
H19 H 0.5634 0.8082 0.8555
H20 H 0.6207 0.7755 0.8263
C20 C 1.5389(6) 0.6490(13) 1.8023(5)
H21 H 1.5647 0.5706 1.7956
H22 H 1.5050 0.6161 1.8200
O3 O 0.7711(5) 0.8849(9) 1.0463(4)
N5 N 0.8743(6) 0.7636(12) 1.3084(4)
C21 C 0.8679(5) 0.7057(11) 1.2082(4)
C22 C 0.8703(6) 0.7954(11) 1.2547(5)
H23 H 0.8688 0.8877 1.2458
C23 C 0.8750(7) 0.6240(15) 1.3208(5)
H24 H 0.8755 0.5958 1.3583
C24 C 0.8748(7) 0.5290(12) 1.2792(6)
H25 H 0.8769 0.4373 1.2892
C25 C 0.8717(6) 0.5655(12) 1.2240(5)
H26 H 0.8721 0.4994 1.1962
C26 C 0.7735(7) 0.7601(15) 1.0440(5)
C27 C 0.8286(6) 0.6761(11) 1.0913(5)
H27 H 0.8086 0.5902 1.0992
C28 C 0.8682(6) 0.7601(11) 1.1512(5)
H28 H 0.8526 0.8552 1.1463
O4 O 1.0182(4) 0.5587(8) 1.1849(3)
N6 N 0.8939(5) 0.6210(9) 0.9253(4)
C29 C 0.9032(5) 0.6932(11) 1.0219(4)
C30 C 0.8995(5) 0.5969(13) 0.9801(4)
H29 H 0.9011 0.5064 0.9918
C31 C 0.8947(6) 0.7472(12) 0.9073(5)
H30 H 0.8901 0.7634 0.8676
C32 C 0.9025(7) 0.8585(13) 0.9463(5)
H31 H 0.9054 0.9477 0.9344
C33 C 0.9053(6) 0.8265(12) 1.0017(5)
H32 H 0.9089 0.8971 1.0285
C34 C 0.9009(6) 0.6562(9) 1.0819(4)
H33 H 0.9158 0.5611 1.0902
C35 C 0.9408(5) 0.7427(12) 1.1392(4)
H34 H 0.9557 0.8301 1.1277
C36 C 1.0018(5) 0.6787(12) 1.1869(4)
N7 N 1.2204(5) 0.6426(10) 1.4856(4)
H35 H 1.2251 0.5558 1.4888
N8 N 1.0386(5) 0.7586(10) 1.2323(4)
H36 H 1.0283 0.8437 1.2299
C37 C 1.1742(9) 0.7021(18) 1.4267(6)
H37 H 1.1447 0.7737 1.4339
H38 H 1.2049 0.7426 1.4074
C38 C 1.1296(10) 0.6055(16) 1.3883(7)
H39 H 1.1072 0.5522 1.4111
H40 H 1.1596 0.5443 1.3754
C39 C 1.0691(8) 0.6610(14) 1.3312(6)
H41 H 1.0344 0.5892 1.3142
H42 H 1.0443 0.7344 1.3430
C40 C 1.0952(6) 0.7101(14) 1.2857(5)
H43 H 1.1210 0.6373 1.2746
H44 H 1.1291 0.7834 1.3024
Ag1B Ag 1.37686(6) 0.95393(9) 1.86296(4)
Ag2B Ag 1.38489(6) 0.41426(9) 1.37433(4)
N1B N 0.8963(6) 1.0764(11) 1.4359(4)
N2B N 0.8475(5) 0.2832(11) 0.8043(4)
C19_2 C 1.5897(7) 0.7350(12) 1.8453(5)
C20_2 C 0.5389(6) 0.6490(13) 0.8023(5)
Cl1 Cl 1.0000 0.6991(9) 1.5000
O5 O 0.9929(12) 0.590(3) 1.5431(10)
O6 O 0.9311(12) 0.696(2) 1.4730(10)
O5A O 1.0071(12) 0.590(3) 1.4569(10)
O6A O 1.0689(12) 0.696(2) 1.5270(10)
Cl2 Cl 0.7217(2) 0.6620(4) 0.7409(2)
O7 O 0.7511(12) 0.720(3) 0.7998(8)
O8 O 0.7496(7) 0.5573(12) 0.7386(11)
O9 O 0.7330(6) 0.7754(12) 0.7045(7)
O10 O 0.6469(5) 0.6441(11) 0.7248(4)
Cl3? Cl 1.0000 0.2389(7) 1.0000
O11? O 1.007(2) 0.137(3) 0.9778(17)
O12? O 1.0038(12) 0.322(3) 0.9547(9)
loop_
_geom_bond_atom_site_label_1
_geom_bond_atom_site_label_2
_geom_bond_site_symmetry_1
_geom_bond_site_symmetry_2
Ag1 N6 1_555 1_555
Ag2 N5 1_555 1_555
O1 C16 1_555 1_555
N1 C2 1_555 1_555
O2 C8 1_555 1_555
C1 C2 1_555 1_555
C2 H1 1_555 1_555
C3 N1 1_555 1_555
H2 C3 1_555 1_555
C4 C3 1_555 1_555
H3 C4 1_555 1_555
C5 C1 1_555 1_555
H4 C5 1_555 1_555
C6 C1 1_555 1_555
H5 C6 1_555 1_555
C7 C6 1_555 1_555
H6 C7 1_555 1_555
C8 C7 1_555 1_555
N2 C10 1_555 1_555
C9 C10 1_555 1_555
C10 H7 1_555 1_555
C11 N2 1_555 1_555
H8 C11 1_555 1_555
C12 C11 1_555 1_555
H9 C12 1_555 1_555
C13 C9 1_555 1_555
H10 C13 1_555 1_555
C14 C7 1_555 1_555
H11 C14 1_555 1_555
C15 C6 1_555 1_555
H12 C15 1_555 1_555
C16 C15 1_555 1_555
N3 H13 1_555 1_555
N4 C8 1_555 1_555
H14 N4 1_555 1_555
C17 N3 1_555 1_555
H15 C17 1_555 1_555
H16 C17 1_555 1_555
C18 C17 1_555 1_555
H17 C18 1_555 1_555
H18 C18 1_555 1_555
C19 C18 1_555 1_555
H19 C19 1_555 1_555
H20 C19 1_555 1_555
C20 N4 1_555 1_555
H21 C20 1_555 1_555
H22 C20 1_555 1_555
O3 C26 1_555 1_555
N5 C22 1_555 1_555
C21 C22 1_555 1_555
C22 H23 1_555 1_555
C23 N5 1_555 1_555
H24 C23 1_555 1_555
C24 C23 1_555 1_555
H25 C24 1_555 1_555
C25 C21 1_555 1_555
H26 C25 1_555 1_555
C26 N3 1_555 1_555
C27 C26 1_555 1_555
H27 C27 1_555 1_555
C28 C21 1_555 1_555
H28 C28 1_555 1_555
O4 C36 1_555 1_555
N6 C30 1_555 1_555
C29 C30 1_555 1_555
C30 H29 1_555 1_555
C31 N6 1_555 1_555
H30 C31 1_555 1_555
C32 C31 1_555 1_555
H31 C32 1_555 1_555
C33 C29 1_555 1_555
H32 C33 1_555 1_555
C34 C27 1_555 1_555
H33 C34 1_555 1_555
C35 C28 1_555 1_555
H34 C35 1_555 1_555
C36 C35 1_555 1_555
N7 C16 1_555 1_555
H35 N7 1_555 1_555
N8 C36 1_555 1_555
H36 N8 1_555 1_555
C37 N7 1_555 1_555
H37 C37 1_555 1_555
H38 C37 1_555 1_555
C38 C37 1_555 1_555
H39 C38 1_555 1_555
H40 C38 1_555 1_555
C39 C38 1_555 1_555
H41 C39 1_555 1_555
H42 C39 1_555 1_555
C40 N8 1_555 1_555
H43 C40 1_555 1_555
H44 C40 1_555 1_555
Cl1 O5 1_555 1_555
O6 Cl1 1_555 1_555
Cl2 O7 1_555 1_555
O8 Cl2 1_555 1_555
O9 Cl2 1_555 1_555
O10 Cl2 1_555 1_555
Ag1B N2 1_555 1_555
Ag2B N1 1_555 1_555
N1B Ag2 1_555 1_555
N2B Ag1 1_555 1_555
C19_2 C20 1_555 1_555
C20_2 C19 1_555 1_555
O5A Cl1 1_555 1_555
O6A Cl1 1_555 1_555
C4 C5 1_555 1_555
C9 C14 1_555 1_555
C12 C13 1_555 1_555
C14 C15 1_555 1_555
C24 C25 1_555 1_555
C27 C28 1_555 1_555
C29 C34 1_555 1_555
C32 C33 1_555 1_555
C34 C35 1_555 1_555
C39 C40 1_555 1_555

#END
