
#######################################################################
#
#                 Cambridge Crystallographic Data Centre
#                                CCDC 
#
#######################################################################
#
# If this CIF has been generated from an entry in the Cambridge 
# Structural Database, then it will include bibliographic, chemical, 
# crystal, experimental, refinement or atomic coordinate data resulting 
# from the CCDC's data processing and validation procedures.
#
#######################################################################

data_LITCUM
_symmetry_cell_setting           hexagonal
_symmetry_space_group_name_H-M   'P 61'
_symmetry_Int_Tables_number      169
_space_group_name_Hall           'P 61'
loop_
_symmetry_equiv_pos_site_id
_symmetry_equiv_pos_as_xyz
1 x,y,z
2 -y,x-y,1/3+z
3 -x+y,-x,2/3+z
4 -x,-y,1/2+z
5 y,-x+y,5/6+z
6 x-y,x,1/6+z
_cell_length_a                   8.2630(10)
_cell_length_b                   8.2630(10)
_cell_length_c                   38.991(6)
_cell_angle_alpha                90
_cell_angle_beta                 90
_cell_angle_gamma                120
_cell_volume                     2305.53
loop_
_atom_site_label
_atom_site_type_symbol
_atom_site_fract_x
_atom_site_fract_y
_atom_site_fract_z
Sn1 Sn 0.57212(5) 0.40118(4) 0.122350(10)
N1 N 0.3502(7) 0.1497(7) 0.08966(13)
N2 N 0.3903(7) 0.0391(8) 0.0721(2)
N3 N 0.2601(7) -0.0465(8) 0.04843(15)
N4 N 0.1927(7) 0.1388(7) 0.07835(13)
N5 N -0.3373(7) -0.1324(7) -0.00937(14)
C1 C 0.3706(9) 0.4853(9) 0.1330(2)
H1 H 0.2479(9) 0.3844(9) 0.1266(2)
H2 H 0.3691(9) 0.5044(9) 0.1575(2)
C2 C 0.4042(19) 0.6562(18) 0.1153(5)
H3 H 0.353(17) 0.718(10) 0.1286(17)
H4 H 0.346(16) 0.6244(27) 0.0931(15)
H5 H 0.5362(20) 0.7382(85) 0.1125(32)
C3 C 0.6201(10) 0.2171(10) 0.1535(2)
H6 H 0.5699(10) 0.2135(10) 0.1762(2)
H7 H 0.5497(10) 0.0924(10) 0.1439(2)
C4 C 0.8133(17) 0.2628(20) 0.1573(5)
H8 H 0.8708(60) 0.285(20) 0.1351(5)
H9 H 0.8173(20) 0.1607(88) 0.1682(34)
H10 H 0.8793(54) 0.373(12) 0.1711(31)
C5 C 0.7339(13) 0.5205(11) 0.0773(2)
H11 H 0.6487(13) 0.5207(11) 0.0602(2)
H12 H 0.8207(13) 0.6504(11) 0.0826(2)
C6 C 0.8307(29) 0.4579(18) 0.0620(6)
H13 H 0.923(31) 0.462(44) 0.0775(29)
H14 H 0.892(39) 0.534(29) 0.0423(50)
H15 H 0.7494(71) 0.331(16) 0.0549(77)
C7 C 0.1422(8) 0.0167(8) 0.05255(15)
C8 C -0.0250(7) -0.0382(7) 0.03175(13)
C9 C -0.0444(8) -0.1179(9) -0.0005(2)
H16 H 0.0463(8) -0.1432(9) -0.0087(2)
C10 C -0.1973(8) -0.1588(10) -0.0199(2)
H17 H -0.2052(8) -0.2077(10) -0.0418(2)
C11 C -0.3209(9) -0.0617(9) 0.0216(2)
H18 H -0.4172(9) -0.0447(9) 0.0298(2)
C12 C -0.1680(9) -0.0115(8) 0.04274(15)
H19 H -0.1622(9) 0.0400(8) 0.06423(15)
N5E N 0.7951(10) 0.6627(7) 0.15730(14)
Sn1D Sn -0.59882(4) -0.17094(6) -0.044317(10)
loop_
_geom_bond_atom_site_label_1
_geom_bond_atom_site_label_2
_geom_bond_site_symmetry_1
_geom_bond_site_symmetry_2
Sn1 N1 1_555 1_555
N1 N2 1_555 1_555
N2 N3 1_555 1_555
N3 C7 1_555 1_555
N4 N1 1_555 1_555
N5 C10 1_555 1_555
C1 Sn1 1_555 1_555
H1 C1 1_555 1_555
H2 C1 1_555 1_555
C2 C1 1_555 1_555
H3 C2 1_555 1_555
H4 C2 1_555 1_555
H5 C2 1_555 1_555
C3 Sn1 1_555 1_555
H6 C3 1_555 1_555
H7 C3 1_555 1_555
C4 C3 1_555 1_555
H8 C4 1_555 1_555
H9 C4 1_555 1_555
H10 C4 1_555 1_555
C5 Sn1 1_555 1_555
H11 C5 1_555 1_555
H12 C5 1_555 1_555
C6 C5 1_555 1_555
H13 C6 1_555 1_555
H14 C6 1_555 1_555
H15 C6 1_555 1_555
C7 N4 1_555 1_555
C8 C7 1_555 1_555
C9 C8 1_555 1_555
H16 C9 1_555 1_555
C10 C9 1_555 1_555
H17 C10 1_555 1_555
C11 N5 1_555 1_555
H18 C11 1_555 1_555
C12 C8 1_555 1_555
H19 C12 1_555 1_555
N5E Sn1 1_555 1_555
Sn1D N5 1_555 1_555
C11 C12 1_555 1_555

#END
