
#######################################################################
#
#                 Cambridge Crystallographic Data Centre
#                                CCDC 
#
#######################################################################
#
# If this CIF has been generated from an entry in the Cambridge 
# Structural Database, then it will include bibliographic, chemical, 
# crystal, experimental, refinement or atomic coordinate data resulting 
# from the CCDC's data processing and validation procedures.
#
#######################################################################

data_LITCEY
_symmetry_cell_setting           triclinic
_symmetry_space_group_name_H-M   'P -1'
_symmetry_Int_Tables_number      2
_space_group_name_Hall           '-P 1'
loop_
_symmetry_equiv_pos_site_id
_symmetry_equiv_pos_as_xyz
1 x,y,z
2 -x,-y,-z
_cell_length_a                   8.792(4)
_cell_length_b                   11.024(5)
_cell_length_c                   16.479(7)
_cell_angle_alpha                84.580(7)
_cell_angle_beta                 85.459(7)
_cell_angle_gamma                78.893(7)
_cell_volume                     1557.23
loop_
_atom_site_label
_atom_site_type_symbol
_atom_site_fract_x
_atom_site_fract_y
_atom_site_fract_z
Mn1 Mn 0.10030(10) 0.35995(7) 0.47994(5)
Mn2 Mn -0.07490(11) 0.51103(8) 0.31982(5)
O1 O 0.0826(5) 0.2189(3) 0.3993(2)
C1 C 0.0020(6) 0.0036(5) 0.0842(3)
O2 O -0.0455(6) 0.3229(4) 0.2952(3)
C2 C 0.0155(6) 0.1090(5) 0.2112(3)
H1 H 0.0200 0.1822 0.1789
C3 C 0.0133(6) -0.0015(5) 0.3436(3)
H2 H 0.0223 -0.0050 0.3997
O3 O 0.5524(5) -0.1803(4) 0.0648(3)
O4 O -0.0784(6) -0.2992(4) 0.3213(2)
O5 O -0.0659(5) 0.5555(4) 0.1843(2)
C4 C 0.1374(7) -0.0450(5) 0.0404(3)
C5 C -0.1355(6) 0.0487(5) 0.0463(3)
O6 O -0.5503(5) 0.1856(4) 0.0898(3)
C6 C 0.0044(6) 0.0048(5) 0.1748(3)
C7 C -0.0106(6) -0.1022(5) 0.2249(3)
H3 H -0.0232 -0.1728 0.2013
C8 C -0.0073(6) -0.1054(5) 0.3078(3)
C9 C 0.0204(6) 0.1079(5) 0.2955(3)
C10 C -0.2770(7) 0.0973(5) 0.0902(3)
H4 H -0.2773 0.1005 0.1464
C11 C 0.2797(7) -0.0899(5) 0.0774(3)
H5 H 0.2823 -0.0875 0.1336
C12 C -0.4102(7) 0.1389(5) 0.0528(3)
C13 C 0.0231(7) 0.2257(5) 0.3335(3)
N1 N -0.1562(7) 0.5905(5) 0.0573(3)
O7 O 0.3310(5) 0.2674(5) 0.5195(3)
C14 C 0.4108(7) -0.1357(5) 0.0346(3)
C15 C -0.1467(8) 0.5336(6) 0.1316(4)
C16 C -0.2522(9) 0.4397(7) 0.1406(4)
H6 H -0.1924 0.3560 0.1468
H7 H -0.3250 0.4531 0.1877
C17 C 0.5611(8) -0.1833(7) 0.1508(4)
H8 H 0.6647 -0.2195 0.1651
H9 H 0.4897 -0.2320 0.1778
H10 H 0.5347 -0.1003 0.1675
C18 C -0.2609(10) 0.5490(7) 0.0067(4)
H11 H -0.2041 0.5080 -0.0392
H12 H -0.3377 0.6181 -0.0139
C19 C -0.0804(9) 0.6928(7) 0.0284(4)
H13 H -0.1569 0.7674 0.0219
H14 H -0.0251 0.6764 -0.0232
H15 H -0.0088 0.7028 0.0672
N2 N 0.5756(8) 0.1568(7) 0.5242(5)
C20 C -0.5554(9) 0.1969(8) 0.1750(4)
H16 H -0.4798 0.2442 0.1864
H17 H -0.5328 0.1158 0.2032
H18 H -0.6571 0.2381 0.1931
C21 C 0.4435(9) 0.2081(7) 0.4898(5)
C22 C 0.6321(12) 0.1190(16) 0.3870(7)
H19 H 0.6870 0.1700 0.3485
H20 H 0.6378 0.0394 0.3652
C23 C -0.3361(12) 0.4600(9) 0.0631(5)
H21 H -0.3281 0.3822 0.0386
H22 H -0.4451 0.4943 0.0743
C24 C 0.4690(11) 0.1802(10) 0.4010(5)
H23 H 0.4001 0.1263 0.3888
H24 H 0.4474 0.2565 0.3659
C25 C 0.7051(10) 0.1012(11) 0.4714(7)
H25 H 0.7394 0.0141 0.4881
H26 H 0.7919 0.1440 0.4705
O8 O 0.1692(5) 0.4680(4) 0.3589(2)
C26 C 0.2889(8) 0.4978(7) 0.3245(5)
C27 C 0.2882(11) 0.5624(10) 0.2430(5)
H27 H 0.2508 0.5147 0.2057
H28 H 0.3918 0.5728 0.2250
H29 H 0.2216 0.6423 0.2445
C28 C 0.5930(14) 0.1662(12) 0.6122(7)
H30 H 0.6599 0.2238 0.6178
H31 H 0.6373 0.0861 0.6370
H32 H 0.4929 0.1946 0.6387
O9 O 0.1148(4) 0.5166(3) 0.5493(2)
H33 H 0.2069 0.5532 0.5329
O10 O -0.3339(6) 0.5775(6) 0.3203(3)
H34 H -0.3624 0.6446 0.3465
H35 H -0.3828 0.5205 0.3445
C29 C -0.0302(7) -0.2227(5) 0.3582(3)
O11 O -0.0044(5) -0.2345(4) 0.4320(2)
O12 O 0.4157(8) 0.4740(9) 0.3561(5)
O1A O -0.0826(5) -0.2189(3) -0.3993(2)
C1A C -0.0020(6) -0.0036(5) -0.0842(3)
O2A O 0.0455(6) -0.3229(4) -0.2952(3)
C2A C -0.0155(6) -0.1090(5) -0.2112(3)
H1A H -0.0200 -0.1822 -0.1789
C3A C -0.0133(6) 0.0015(5) -0.3436(3)
H2A H -0.0223 0.0050 -0.3997
O3A O -0.5524(5) 0.1803(4) -0.0648(3)
O4A O 0.0784(6) 0.2992(4) -0.3213(2)
C4A C -0.1374(7) 0.0450(5) -0.0404(3)
C5A C 0.1355(6) -0.0487(5) -0.0463(3)
O6A O 0.5503(5) -0.1856(4) -0.0898(3)
C6A C -0.0044(6) -0.0048(5) -0.1748(3)
C7A C 0.0106(6) 0.1022(5) -0.2249(3)
H3A H 0.0232 0.1728 -0.2013
C8A C 0.0073(6) 0.1054(5) -0.3078(3)
C9A C -0.0204(6) -0.1079(5) -0.2955(3)
C10A C 0.2770(7) -0.0973(5) -0.0902(3)
H4A H 0.2773 -0.1005 -0.1464
C11A C -0.2797(7) 0.0899(5) -0.0774(3)
H5A H -0.2823 0.0875 -0.1336
C12A C 0.4102(7) -0.1389(5) -0.0528(3)
C13A C -0.0231(7) -0.2257(5) -0.3335(3)
C14A C -0.4108(7) 0.1357(5) -0.0346(3)
C17A C -0.5611(8) 0.1833(7) -0.1508(4)
H8A H -0.6647 0.2195 -0.1651
H9A H -0.4897 0.2320 -0.1778
H10A H -0.5347 0.1003 -0.1675
C20A C 0.5554(9) -0.1969(8) -0.1750(4)
H16A H 0.4798 -0.2442 -0.1864
H17A H 0.5328 -0.1158 -0.2032
H18A H 0.6571 -0.2381 -0.1931
C29A C 0.0302(7) 0.2227(5) -0.3582(3)
O11A O 0.0044(5) 0.2345(4) -0.4320(2)
Mn1A Mn -0.10030(10) -0.35995(7) -0.47994(5)
Mn2A Mn 0.07490(11) -0.51103(8) -0.31982(5)
O5A O 0.0659(5) -0.5555(4) -0.1843(2)
N1A N 0.1562(7) -0.5905(5) -0.0573(3)
O7A O -0.3310(5) -0.2674(5) -0.5195(3)
C15A C 0.1467(8) -0.5336(6) -0.1316(4)
C16A C 0.2522(9) -0.4397(7) -0.1406(4)
H6A H 0.1924 -0.3560 -0.1468
H7A H 0.3250 -0.4531 -0.1877
C18A C 0.2609(10) -0.5490(7) -0.0067(4)
H11A H 0.2041 -0.5080 0.0392
H12A H 0.3377 -0.6181 0.0139
C19A C 0.0804(9) -0.6928(7) -0.0284(4)
H13A H 0.1569 -0.7674 -0.0219
H14A H 0.0251 -0.6764 0.0232
H15A H 0.0088 -0.7028 -0.0672
N2A N -0.5756(8) -0.1568(7) -0.5242(5)
C21A C -0.4435(9) -0.2081(7) -0.4898(5)
C22A C -0.6321(12) -0.1190(16) -0.3870(7)
H19A H -0.6870 -0.1700 -0.3485
H20A H -0.6378 -0.0394 -0.3652
C23A C 0.3361(12) -0.4600(9) -0.0631(5)
H21A H 0.3281 -0.3822 -0.0386
H22A H 0.4451 -0.4943 -0.0743
C24A C -0.4690(11) -0.1802(10) -0.4010(5)
H23A H -0.4001 -0.1263 -0.3888
H24A H -0.4474 -0.2565 -0.3659
C25A C -0.7051(10) -0.1012(11) -0.4714(7)
H25A H -0.7394 -0.0141 -0.4881
H26A H -0.7919 -0.1440 -0.4705
O8A O -0.1692(5) -0.4680(4) -0.3589(2)
C26A C -0.2889(8) -0.4978(7) -0.3245(5)
C27A C -0.2882(11) -0.5624(10) -0.2430(5)
H27A H -0.2508 -0.5147 -0.2057
H28A H -0.3918 -0.5728 -0.2250
H29A H -0.2216 -0.6423 -0.2445
C28A C -0.5930(14) -0.1662(12) -0.6122(7)
H30A H -0.6599 -0.2238 -0.6178
H31A H -0.6373 -0.0861 -0.6370
H32A H -0.4929 -0.1946 -0.6387
O9A O -0.1148(4) -0.5166(3) -0.5493(2)
H33A H -0.2069 -0.5532 -0.5329
O10A O 0.3339(6) -0.5775(6) -0.3203(3)
H34A H 0.3624 -0.6446 -0.3465
H35A H 0.3828 -0.5205 -0.3445
O12A O -0.4157(8) -0.4740(9) -0.3561(5)
Mn1_2 Mn 0.10030(10) -0.64005(7) -0.52006(5)
Mn1_3 Mn 0.10030(10) 0.35995(7) -0.52006(5)
Mn1A_2 Mn -0.10030(10) -0.35995(7) 0.52006(5)
Mn1A_3 Mn -0.10030(10) 0.64005(7) 0.52006(5)
Mn2_2 Mn -0.07490(11) -0.48897(8) -0.68018(5)
Mn2_3 Mn -0.07490(11) -0.48897(8) 0.31982(5)
Mn2A_2 Mn 0.07490(11) 0.48897(8) -0.31982(5)
Mn2A_3 Mn 0.07490(11) 0.48897(8) 0.68018(5)
O4_2 O -0.0784(6) 0.7008(4) 0.3213(2)
O4A_2 O 0.0784(6) -0.7008(4) -0.3213(2)
O9_2 O 0.1148(4) -0.4834(3) -0.4507(2)
O9A_2 O -0.1148(4) 0.4834(3) 0.4507(2)
O11_2 O -0.0044(5) -0.2345(4) -0.5680(2)
O11A_2 O 0.0044(5) 0.2345(4) 0.5680(2)
O13 O 0.4088(17) 0.5659(15) 0.5039(9)
H36 H 0.4321 0.5248 0.4621
H37 H 0.4762 0.5392 0.5388
loop_
_geom_bond_atom_site_label_1
_geom_bond_atom_site_label_2
_geom_bond_site_symmetry_1
_geom_bond_site_symmetry_2
Mn1 O1 1_555 1_555
Mn2 O2 1_555 1_555
O1 C13 1_555 1_555
C1 C4 1_555 1_555
O2 C13 1_555 1_555
C2 H1 1_555 1_555
C3 H2 1_555 1_555
O3 C14 1_555 1_555
O4 C29 1_555 1_555
O5 Mn2 1_555 1_555
C4 C11 1_555 1_555
C5 C1 1_555 1_555
O6 C12 1_555 1_555
C6 C1 1_555 1_555
C7 C6 1_555 1_555
H3 C7 1_555 1_555
C8 C3 1_555 1_555
C9 C2 1_555 1_555
C10 C5 1_555 1_555
H4 C10 1_555 1_555
C11 H5 1_555 1_555
C12 C10 1_555 1_555
C13 C9 1_555 1_555
N1 C15 1_555 1_555
O7 Mn1 1_555 1_555
C14 C11 1_555 1_555
C15 O5 1_555 1_555
C16 C15 1_555 1_555
H6 C16 1_555 1_555
H7 C16 1_555 1_555
C17 O3 1_555 1_555
H8 C17 1_555 1_555
H9 C17 1_555 1_555
H10 C17 1_555 1_555
C18 N1 1_555 1_555
H11 C18 1_555 1_555
H12 C18 1_555 1_555
C19 N1 1_555 1_555
H13 C19 1_555 1_555
H14 C19 1_555 1_555
H15 C19 1_555 1_555
N2 C21 1_555 1_555
C20 O6 1_555 1_555
H16 C20 1_555 1_555
H17 C20 1_555 1_555
H18 C20 1_555 1_555
C21 O7 1_555 1_555
C22 H19 1_555 1_555
H20 C22 1_555 1_555
C23 C16 1_555 1_555
H21 C23 1_555 1_555
H22 C23 1_555 1_555
C24 C21 1_555 1_555
H23 C24 1_555 1_555
H24 C24 1_555 1_555
C25 N2 1_555 1_555
H25 C25 1_555 1_555
H26 C25 1_555 1_555
O8 Mn1 1_555 1_555
C26 O8 1_555 1_555
C27 C26 1_555 1_555
H27 C27 1_555 1_555
H28 C27 1_555 1_555
H29 C27 1_555 1_555
C28 N2 1_555 1_555
H30 C28 1_555 1_555
H31 C28 1_555 1_555
H32 C28 1_555 1_555
O9 Mn1 1_555 1_555
H33 O9 1_555 1_555
O10 Mn2 1_555 1_555
H34 O10 1_555 1_555
H35 O10 1_555 1_555
C29 C8 1_555 1_555
O11 C29 1_555 1_555
O12 C26 1_555 1_555
O13 H36 1_555 1_555
H37 O13 1_555 1_555
O1A C13A 1_555 1_555
C1A C4A 1_555 1_555
O2A C13A 1_555 1_555
C2A H1A 1_555 1_555
C3A H2A 1_555 1_555
O3A C14A 1_555 1_555
O4A C29A 1_555 1_555
C4A C5 1_555 1_555
C5A C4 1_555 1_555
O6A C12A 1_555 1_555
C6A C1A 1_555 1_555
C7A C6A 1_555 1_555
H3A C7A 1_555 1_555
C8A C3A 1_555 1_555
C9A C2A 1_555 1_555
C10A C5A 1_555 1_555
H4A C10A 1_555 1_555
C11A C4A 1_555 1_555
H5A C11A 1_555 1_555
C12A C14 1_555 1_555
C13A C9A 1_555 1_555
C14A C12 1_555 1_555
C17A O3A 1_555 1_555
H8A C17A 1_555 1_555
H9A C17A 1_555 1_555
H10A C17A 1_555 1_555
C20A O6A 1_555 1_555
H16A C20A 1_555 1_555
H17A C20A 1_555 1_555
H18A C20A 1_555 1_555
C29A C8A 1_555 1_555
O11A C29A 1_555 1_555
Mn1A O1A 1_555 1_555
Mn2A O2A 1_555 1_555
O5A Mn2A 1_555 1_555
N1A C15A 1_555 1_555
O7A Mn1A 1_555 1_555
C15A O5A 1_555 1_555
C16A C15A 1_555 1_555
H6A C16A 1_555 1_555
H7A C16A 1_555 1_555
C18A N1A 1_555 1_555
H11A C18A 1_555 1_555
H12A C18A 1_555 1_555
C19A N1A 1_555 1_555
H13A C19A 1_555 1_555
H14A C19A 1_555 1_555
H15A C19A 1_555 1_555
N2A C21A 1_555 1_555
C21A O7A 1_555 1_555
C22A H19A 1_555 1_555
H20A C22A 1_555 1_555
C23A C16A 1_555 1_555
H21A C23A 1_555 1_555
H22A C23A 1_555 1_555
C24A C21A 1_555 1_555
H23A C24A 1_555 1_555
H24A C24A 1_555 1_555
C25A N2A 1_555 1_555
H25A C25A 1_555 1_555
H26A C25A 1_555 1_555
O8A Mn1A 1_555 1_555
C26A O8A 1_555 1_555
C27A C26A 1_555 1_555
H27A C27A 1_555 1_555
H28A C27A 1_555 1_555
H29A C27A 1_555 1_555
C28A N2A 1_555 1_555
H30A C28A 1_555 1_555
H31A C28A 1_555 1_555
H32A C28A 1_555 1_555
O9A Mn1A 1_555 1_555
H33A O9A 1_555 1_555
O10A Mn2A 1_555 1_555
H34A O10A 1_555 1_555
H35A O10A 1_555 1_555
O12A C26A 1_555 1_555
Mn1_2 O9A 1_555 1_555
Mn1_3 O11A 1_555 1_555
Mn1A_2 O11 1_555 1_555
Mn1A_3 O9 1_555 1_555
Mn2_2 O9A 1_555 1_555
Mn2_3 O4 1_555 1_555
Mn2A_2 O4A 1_555 1_555
Mn2A_3 O9 1_555 1_555
O4_2 Mn2 1_555 1_555
O4A_2 Mn2A 1_555 1_555
O9_2 Mn1A 1_555 1_555
O9A_2 Mn1 1_555 1_555
O11_2 Mn1A 1_555 1_555
O11A_2 Mn1 1_555 1_555
Mn2 O8 1_555 1_555
Mn2 O9A_2 1_555 1_555
C2 C6 1_555 1_555
C3 C9 1_555 1_555
C7 C8 1_555 1_555
C18 C23 1_555 1_555
C22 C24 1_555 1_555
C22 C25 1_555 1_555
C1A C5A 1_555 1_555
C2A C6A 1_555 1_555
C3A C9A 1_555 1_555
C7A C8A 1_555 1_555
C10A C12A 1_555 1_555
C11A C14A 1_555 1_555
Mn2A O8A 1_555 1_555
Mn2A O9_2 1_555 1_555
C18A C23A 1_555 1_555
C22A C24A 1_555 1_555
C22A C25A 1_555 1_555
Mn1_2 O9_2 1_555 1_555
Mn1A_3 O9A_2 1_555 1_555

#END
