
#######################################################################
#
#                 Cambridge Crystallographic Data Centre
#                                CCDC 
#
#######################################################################
#
# If this CIF has been generated from an entry in the Cambridge 
# Structural Database, then it will include bibliographic, chemical, 
# crystal, experimental, refinement or atomic coordinate data resulting 
# from the CCDC's data processing and validation procedures.
#
#######################################################################

data_LITFAX
_symmetry_cell_setting           orthorhombic
_symmetry_space_group_name_H-M   'P b c a'
_symmetry_Int_Tables_number      61
_space_group_name_Hall           '-P 2ac 2ab'
loop_
_symmetry_equiv_pos_site_id
_symmetry_equiv_pos_as_xyz
1 x,y,z
2 1/2-x,-y,1/2+z
3 1/2+x,1/2-y,-z
4 -x,1/2+y,1/2-z
5 -x,-y,-z
6 1/2+x,y,1/2-z
7 1/2-x,1/2+y,z
8 x,1/2-y,1/2+z
_cell_length_a                   7.5630(2)
_cell_length_b                   18.4368(6)
_cell_length_c                   27.0336(8)
_cell_angle_alpha                90
_cell_angle_beta                 90
_cell_angle_gamma                90
_cell_volume                     3769.5
loop_
_atom_site_label
_atom_site_type_symbol
_atom_site_fract_x
_atom_site_fract_y
_atom_site_fract_z
C1 C 1.0734(2) 0.64697(8) 0.21177(5)
H1 H 1.0291 0.6876 0.228
C2 C 1.04877(18) 0.51687(7) 0.19315(4)
C3 C 1.20224(17) 0.52494(7) 0.16327(5)
H2 H 1.2477 0.4848 0.1468
C4 C 0.98957(18) 0.58072(7) 0.21722(5)
H3 H 0.8904 0.578 0.2375
C5 C 1.28542(18) 0.59176(8) 0.15833(5)
H4 H 1.3854 0.5952 0.1384
C6 C 1.22392(19) 0.65341(8) 0.18216(5)
H5 H 1.2812 0.6977 0.1785
K1 K 0.59589(4) 0.462686(17) 0.200103(10)
N1 N 0.49737(15) 0.38436(6) 0.11555(4)
N2 N 0.96273(16) 0.45336(6) 0.20472(4)
N3 N 0.67414(15) 0.51380(6) 0.10394(4)
C7 C 0.65523(17) 0.46951(7) 0.06394(5)
C8 C 0.56219(17) 0.40152(7) 0.07004(5)
C9 C 0.8985(2) 0.32757(8) 0.19495(5)
H6 H 0.8781 0.3253 0.2288
C10 C 0.54401(18) 0.35462(7) 0.02896(5)
C11 C 0.72613(17) 0.48717(7) 0.01704(5)
C12 C 0.70341(18) 0.43828(8) -0.02374(5)
H7 H 0.7494 0.4504 -0.0546
C13 C 0.95918(17) 0.39382(7) 0.17415(5)
C14 C 0.61634(18) 0.37512(8) -0.01802(5)
H8 H 0.6029 0.3443 -0.045
C15 C 0.39298(19) 0.27099(8) 0.08215(6)
H9 H 0.3355 0.2272 0.0878
C16 C 0.76410(18) 0.57455(8) 0.09792(5)
H10 H 0.7788 0.6046 0.1253
C17 C 0.45544(19) 0.28832(8) 0.03621(5)
H11 H 0.4395 0.2565 0.0099
C18 C 0.98994(17) 0.39270(7) 0.12247(5)
H12 H 1.0317 0.4343 0.1069
C19 C 0.41766(18) 0.32081(8) 0.12046(5)
H13 H 0.3751 0.3085 0.1516
C20 C 0.81846(19) 0.55282(8) 0.01240(5)
H14 H 0.8655 0.5665 -0.018
C21 C 0.89921(19) 0.26707(8) 0.11585(6)
H15 H 0.88 0.2259 0.0967
C22 C 0.83890(19) 0.59669(8) 0.05288(5)
H16 H 0.9009 0.6401 0.0506
C23 C 0.95919(18) 0.33101(8) 0.09452(5)
H17 H 0.9792 0.3325 0.0606
C24 C 0.8686(2) 0.26618(8) 0.16652(6)
H18 H 0.8276 0.224 0.1815
K1E K 1.09589(4) 0.462686(17) 0.299897(10)
N2E N 0.46273(16) 0.45336(6) 0.29528(4)
loop_
_geom_bond_atom_site_label_1
_geom_bond_atom_site_label_2
_geom_bond_site_symmetry_1
_geom_bond_site_symmetry_2
C1 H1 1_555 1_555
C2 C3 1_555 1_555
C3 H2 1_555 1_555
C4 C1 1_555 1_555
H3 C4 1_555 1_555
C5 C3 1_555 1_555
H4 C5 1_555 1_555
C6 C1 1_555 1_555
H5 C6 1_555 1_555
K1 N1 1_555 1_555
N1 C8 1_555 1_555
N2 C2 1_555 1_555
N3 K1 1_555 1_555
C7 N3 1_555 1_555
C8 C7 1_555 1_555
C9 H6 1_555 1_555
C10 C8 1_555 1_555
C11 C7 1_555 1_555
C12 C11 1_555 1_555
H7 C12 1_555 1_555
C13 N2 1_555 1_555
C14 C10 1_555 1_555
H8 C14 1_555 1_555
C15 H9 1_555 1_555
C16 N3 1_555 1_555
H10 C16 1_555 1_555
C17 C10 1_555 1_555
H11 C17 1_555 1_555
C18 C13 1_555 1_555
H12 C18 1_555 1_555
C19 N1 1_555 1_555
H13 C19 1_555 1_555
C20 C11 1_555 1_555
H14 C20 1_555 1_555
C21 H15 1_555 1_555
C22 C16 1_555 1_555
H16 C22 1_555 1_555
C23 C18 1_555 1_555
H17 C23 1_555 1_555
C24 C9 1_555 1_555
H18 C24 1_555 1_555
K1E N2 1_555 1_555
N2E K1 1_555 1_555
C2 C4 1_555 1_555
C5 C6 1_555 1_555
K1 N2 1_555 1_555
C9 C13 1_555 1_555
C12 C14 1_555 1_555
C15 C17 1_555 1_555
C15 C19 1_555 1_555
C20 C22 1_555 1_555
C21 C23 1_555 1_555
C21 C24 1_555 1_555

#END
