
#######################################################################
#
#                 Cambridge Crystallographic Data Centre
#                                CCDC 
#
#######################################################################
#
# If this CIF has been generated from an entry in the Cambridge 
# Structural Database, then it will include bibliographic, chemical, 
# crystal, experimental, refinement or atomic coordinate data resulting 
# from the CCDC's data processing and validation procedures.
#
#######################################################################

data_LITMOQ
_symmetry_cell_setting           triclinic
_symmetry_space_group_name_H-M   'P -1'
_symmetry_Int_Tables_number      2
_space_group_name_Hall           '-P 1'
loop_
_symmetry_equiv_pos_site_id
_symmetry_equiv_pos_as_xyz
1 x,y,z
2 -x,-y,-z
_cell_length_a                   10.165(2)
_cell_length_b                   11.371(2)
_cell_length_c                   16.962(3)
_cell_angle_alpha                92.56(3)
_cell_angle_beta                 104.20(3)
_cell_angle_gamma                93.78(3)
_cell_volume                     1892.78
loop_
_atom_site_label
_atom_site_type_symbol
_atom_site_fract_x
_atom_site_fract_y
_atom_site_fract_z
Cu1 Cu 0.5873(1) 0.3745(1) -0.1364(1)
Cu2 Cu -0.0052(1) 0.3607(1) -0.3840(1)
O1 O 0.4934(6) 0.5212(6) -0.1246(4)
O2 O 0.4410(5) 0.4732(4) -0.2565(4)
O3 O 0.1795(5) 0.5537(4) -0.4056(3)
O4 O 0.1252(4) 0.4701(4) -0.3005(3)
C1 C 0.4379(7) 0.5402(7) -0.1982(5)
C2 C 0.1824(7) 0.5514(6) -0.3319(4)
C3 C 0.3655(7) 0.6526(6) -0.2118(4)
C4 C 0.2530(7) 0.6569(6) -0.2758(4)
C5 C 0.1939(9) 0.7648(6) -0.2906(5)
C6 C 0.2495(11) 0.8653(7) -0.2413(6)
C7 C 0.3643(10) 0.8623(7) -0.1794(6)
C8 C 0.4222(9) 0.7542(7) -0.1645(6)
O5 O -0.3112(8) 0.2294(6) -0.1248(4)
O6 O -0.3583(6) 0.2560(5) -0.2559(5)
O7 O -0.0922(5) 0.2394(4) -0.3058(3)
O8 O -0.2454(6) 0.1381(6) -0.4075(3)
C9 C -0.3132(8) 0.1982(8) -0.1976(6)
C10 C -0.1797(7) 0.1555(6) -0.3343(4)
C11 C -0.2558(7) 0.0789(6) -0.2115(4)
C12 C -0.2022(6) 0.0605(6) -0.2785(4)
C13 C -0.1593(10) -0.0507(7) -0.2930(7)
C14 C -0.1719(11) -0.1411(8) -0.2426(8)
C15 C -0.2289(11) -0.1213(9) -0.1774(8)
C16 C -0.2693(9) -0.0132(9) -0.1613(6)
N1 N 0.7632(7) 0.4765(6) -0.1163(5)
C17 C 0.7918(10) 0.5625(7) -0.0564(6)
C18 C 0.9078(10) 0.6319(8) -0.0412(5)
C19 C 1.0041(9) 0.6216(8) -0.0846(5)
C20 C 0.9737(9) 0.5323(8) -0.1479(6)
C21 C 0.8529(9) 0.4599(8) -0.1609(5)
C22 C 1.1345(12) 0.6977(10) -0.0715(8)
N2 N 0.4296(6) 0.2732(5) -0.1216(4)
C23 C 0.4458(8) 0.1959(8) -0.0616(5)
C24 C 0.3398(8) 0.1258(8) -0.0453(5)
C25 C 0.2106(8) 0.1322(7) -0.0914(5)
C26 C 0.1904(8) 0.2086(8) -0.1532(6)
C27 C 0.2986(8) 0.2805(8) -0.1644(6)
C28 C 0.0925(11) 0.0546(10) -0.0778(8)
N3 N -0.1499(6) 0.4760(5) -0.3926(3)
C29 C -0.2698(8) 0.4414(7) -0.3754(5)
C30 C -0.3741(8) 0.5136(8) -0.3835(6)
C31 C -0.3591(8) 0.6258(8) -0.4092(6)
C32 C -0.2392(9) 0.6604(7) -0.4279(6)
C33 C -0.1371(7) 0.5840(6) -0.4188(5)
C34 C -0.4716(11) 0.7070(10) -0.4164(9)
N4 N 0.1340(6) 0.2452(5) -0.3918(3)
C35 C 0.2677(7) 0.2784(6) -0.3761(5)
C36 C 0.3646(7) 0.2003(7) -0.3788(5)
C37 C 0.3233(7) 0.0808(6) -0.3993(4)
C38 C 0.1862(8) 0.0488(6) -0.4169(5)
C39 C 0.0952(8) 0.1322(7) -0.4115(5)
C40 C 0.4241(9) -0.0079(8) -0.4024(7)
O9 O -0.1231(5) 0.2761(4) -0.4896(3)
H1 H 0.1151(9) 0.7684(6) -0.3350(5)
H2 H 0.2066(11) 0.9379(7) -0.2508(6)
H3 H 0.4048(10) 0.9328(7) -0.1470(6)
H4 H 0.5018(9) 0.7502(7) -0.1207(6)
H5 H -0.1208(10) -0.0649(7) -0.3385(7)
H6 H -0.1400(11) -0.2168(8) -0.2521(8)
H7 H -0.2411(11) -0.1848(9) -0.1437(8)
H8 H -0.3066(9) 0.0004(9) -0.1153(6)
H9 H 0.7296(10) 0.5741(7) -0.0252(6)
H10 H 0.9242(10) 0.6900(8) 0.0012(5)
H11 H 1.0332(9) 0.5218(8) -0.1810(6)
H12 H 0.8347(9) 0.3988(8) -0.2012(5)
H13 H 1.1342(12) 0.7395(10) -0.1195(8)
H14 H 1.2100(12) 0.6493(10) -0.0608(8)
H15 H 1.1426(12) 0.7532(10) -0.0260(8)
H16 H 0.5332(8) 0.1895(8) -0.0296(5)
H17 H 0.3571(8) 0.0748(8) -0.0033(5)
H18 H 0.1039(8) 0.2121(8) -0.1872(6)
H19 H 0.2812(8) 0.3364(8) -0.2033(6)
H20 H 0.0576(11) 0.0006(10) -0.1246(8)
H21 H 0.0218(11) 0.1024(10) -0.0698(8)
H22 H 0.1233(11) 0.0109(10) -0.0305(8)
H23 H -0.2809(8) 0.3663(7) -0.3572(5)
H24 H -0.4555(8) 0.4866(8) -0.3722(6)
H25 H -0.2264(9) 0.7350(7) -0.4465(6)
H26 H -0.0561(7) 0.6087(6) -0.4315(5)
H27 H -0.4973(11) 0.7321(10) -0.4710(9)
H28 H -0.4401(11) 0.7746(10) -0.3790(9)
H29 H -0.5490(11) 0.6666(10) -0.4035(9)
H30 H 0.2963(7) 0.3577(6) -0.3624(5)
H31 H 0.4562(7) 0.2268(7) -0.3674(5)
H32 H 0.1541(8) -0.0293(6) -0.4327(5)
H33 H 0.0030(8) 0.1079(7) -0.4221(5)
H34 H 0.5146(9) 0.0300(8) -0.3851(7)
H35 H 0.4092(9) -0.0418(8) -0.4570(7)
H36 H 0.4136(9) -0.0690(8) -0.3666(7)
H37 H -0.172(11) 0.3093(92) -0.5135(68)
H38 H -0.1930(97) 0.2059(86) -0.4599(61)
O5_2 O 0.6888(8) 0.2294(6) -0.1248(4)
Cu1_2 Cu -0.4127(1) 0.3745(1) -0.1364(1)
loop_
_geom_bond_atom_site_label_1
_geom_bond_atom_site_label_2
_geom_bond_site_symmetry_1
_geom_bond_site_symmetry_2
Cu1 O1 1_555 1_555
Cu2 O4 1_555 1_555
O1 C1 1_555 1_555
O2 C1 1_555 1_555
O3 C2 1_555 1_555
O4 C2 1_555 1_555
C1 C3 1_555 1_555
C2 C4 1_555 1_555
C3 C4 1_555 1_555
C4 C5 1_555 1_555
C5 C6 1_555 1_555
C6 C7 1_555 1_555
C7 C8 1_555 1_555
C8 C3 1_555 1_555
O5 C9 1_555 1_555
O6 C9 1_555 1_555
O7 Cu2 1_555 1_555
O8 C10 1_555 1_555
C9 C11 1_555 1_555
C10 O7 1_555 1_555
C11 C12 1_555 1_555
C12 C10 1_555 1_555
C13 C12 1_555 1_555
C14 C13 1_555 1_555
C15 C14 1_555 1_555
C16 C11 1_555 1_555
N1 Cu1 1_555 1_555
C17 N1 1_555 1_555
C18 C17 1_555 1_555
C19 C18 1_555 1_555
C20 C19 1_555 1_555
C21 N1 1_555 1_555
C22 C19 1_555 1_555
N2 Cu1 1_555 1_555
C23 N2 1_555 1_555
C24 C23 1_555 1_555
C25 C24 1_555 1_555
C26 C25 1_555 1_555
C27 N2 1_555 1_555
C28 C25 1_555 1_555
N3 Cu2 1_555 1_555
C29 N3 1_555 1_555
C30 C29 1_555 1_555
C31 C30 1_555 1_555
C32 C31 1_555 1_555
C33 N3 1_555 1_555
C34 C31 1_555 1_555
N4 Cu2 1_555 1_555
C35 N4 1_555 1_555
C36 C35 1_555 1_555
C37 C36 1_555 1_555
C38 C37 1_555 1_555
C39 N4 1_555 1_555
C40 C37 1_555 1_555
O9 Cu2 1_555 1_555
H1 C5 1_555 1_555
H2 C6 1_555 1_555
H3 C7 1_555 1_555
H4 C8 1_555 1_555
H5 C13 1_555 1_555
H6 C14 1_555 1_555
H7 C15 1_555 1_555
H8 C16 1_555 1_555
H9 C17 1_555 1_555
H10 C18 1_555 1_555
H11 C20 1_555 1_555
H12 C21 1_555 1_555
H13 C22 1_555 1_555
H14 C22 1_555 1_555
H15 C22 1_555 1_555
H16 C23 1_555 1_555
H17 C24 1_555 1_555
H18 C26 1_555 1_555
H19 C27 1_555 1_555
H20 C28 1_555 1_555
H21 C28 1_555 1_555
H22 C28 1_555 1_555
H23 C29 1_555 1_555
H24 C30 1_555 1_555
H25 C32 1_555 1_555
H26 C33 1_555 1_555
H27 C34 1_555 1_555
H28 C34 1_555 1_555
H29 C34 1_555 1_555
H30 C35 1_555 1_555
H31 C36 1_555 1_555
H32 C38 1_555 1_555
H33 C39 1_555 1_555
H34 C40 1_555 1_555
H35 C40 1_555 1_555
H36 C40 1_555 1_555
H37 O9 1_555 1_555
H38 O9 1_555 1_555
O5_2 Cu1 1_555 1_555
Cu1_2 O5 1_555 1_555
C15 C16 1_555 1_555
C20 C21 1_555 1_555
C26 C27 1_555 1_555
C32 C33 1_555 1_555
C38 C39 1_555 1_555

#END
