
#######################################################################
#
#                 Cambridge Crystallographic Data Centre
#                                CCDC 
#
#######################################################################
#
# If this CIF has been generated from an entry in the Cambridge 
# Structural Database, then it will include bibliographic, chemical, 
# crystal, experimental, refinement or atomic coordinate data resulting 
# from the CCDC's data processing and validation procedures.
#
#######################################################################

data_LITTEN
_symmetry_cell_setting           orthorhombic
_symmetry_space_group_name_H-M   'P 21 21 21'
_symmetry_Int_Tables_number      19
_space_group_name_Hall           'P 2ac 2ab'
loop_
_symmetry_equiv_pos_site_id
_symmetry_equiv_pos_as_xyz
1 x,y,z
2 1/2-x,-y,1/2+z
3 1/2+x,1/2-y,-z
4 -x,1/2+y,1/2-z
_cell_length_a                   6.491(1)
_cell_length_b                   9.617(1)
_cell_length_c                   19.261(2)
_cell_angle_alpha                90
_cell_angle_beta                 90
_cell_angle_gamma                90
_cell_volume                     1202.35
loop_
_atom_site_label
_atom_site_type_symbol
_atom_site_fract_x
_atom_site_fract_y
_atom_site_fract_z
Cu1 Cu -0.1591(1) 0.0598(1) -0.0690(1)
O1 O -0.0950(6) 0.1989(3) 0.0011(2)
O2 O -0.0366(6) 0.4058(3) 0.0470(2)
O3 O -0.2366(6) -0.0738(3) -0.1384(2)
O4 O -0.4007(6) -0.0819(4) -0.2405(2)
N1 N -0.1304(6) 0.1928(4) -0.1483(2)
N2 N -0.1209(7) -0.0900(4) -0.0001(2)
N3 N -0.0862(7) -0.3004(4) 0.0417(2)
C1 C -0.2338(8) 0.3253(5) -0.1294(2)
C2 C -0.1265(8) 0.4036(4) -0.0716(2)
C3 C -0.0855(8) 0.3305(5) -0.0034(3)
C4 C -0.2324(8) 0.1300(5) -0.2115(2)
C5 C -0.2994(8) -0.0218(5) -0.1965(3)
C6 C -0.0706(10) 0.1331(6) -0.2675(3)
C7 C 0.1295(9) 0.1175(6) -0.2279(3)
C8 C 0.0929(8) 0.2121(6) -0.1667(3)
C9 C -0.1099(8) -0.2243(5) -0.0149(3)
C10 C -0.0845(9) -0.2118(5) 0.0968(3)
C11 C -0.1057(8) -0.0836(5) 0.0713(3)
O2B O -0.5366(6) 0.0942(3) -0.0470(2)
Cu1B Cu 0.3409(1) 0.4402(1) 0.0690(1)
loop_
_geom_bond_atom_site_label_1
_geom_bond_atom_site_label_2
_geom_bond_site_symmetry_1
_geom_bond_site_symmetry_2
Cu1 O1 1_555 1_555
O1 C3 1_555 1_555
O2 C3 1_555 1_555
O3 Cu1 1_555 1_555
O4 C5 1_555 1_555
N1 Cu1 1_555 1_555
N2 Cu1 1_555 1_555
N3 C9 1_555 1_555
C1 N1 1_555 1_555
C2 C1 1_555 1_555
C3 C2 1_555 1_555
C4 N1 1_555 1_555
C5 O3 1_555 1_555
C6 C4 1_555 1_555
C7 C6 1_555 1_555
C8 N1 1_555 1_555
C9 N2 1_555 1_555
C10 N3 1_555 1_555
C11 N2 1_555 1_555
O2B Cu1 1_555 1_555
Cu1B O2 1_555 1_555
C4 C5 1_555 1_555
C7 C8 1_555 1_555
C10 C11 1_555 1_555

#END
