
#######################################################################
#
#                 Cambridge Crystallographic Data Centre
#                                CCDC 
#
#######################################################################
#
# If this CIF has been generated from an entry in the Cambridge 
# Structural Database, then it will include bibliographic, chemical, 
# crystal, experimental, refinement or atomic coordinate data resulting 
# from the CCDC's data processing and validation procedures.
#
#######################################################################

data_LITTUF
_symmetry_cell_setting           monoclinic
_symmetry_space_group_name_H-M   'P 21'
_symmetry_Int_Tables_number      4
_space_group_name_Hall           'P 2yb'
loop_
_symmetry_equiv_pos_site_id
_symmetry_equiv_pos_as_xyz
1 x,y,z
2 -x,1/2+y,-z
_cell_length_a                   9.2038(10)
_cell_length_b                   18.315(2)
_cell_length_c                   10.2439(12)
_cell_angle_alpha                90
_cell_angle_beta                 95.824(2)
_cell_angle_gamma                90
_cell_volume                     1717.88
loop_
_atom_site_label
_atom_site_type_symbol
_atom_site_fract_x
_atom_site_fract_y
_atom_site_fract_z
C1 C 0.0954(2) 0.73219(12) 0.10097(19)
H1 H 0.1284 0.6839 0.1328
C2 C -0.0691(2) 0.72725(12) 0.0495(2)
H2 H -0.0927 0.7719 -0.0011
C3 C 0.1828(2) 0.75405(15) -0.0100(2)
C4 C 0.1529(3) 0.81887(19) -0.0757(3)
H3 H 0.0806 0.8491 -0.0486
C5 C 0.2261(4) 0.8404(2) -0.1796(3)
H4 H 0.2035 0.8844 -0.2224
C6 C 0.3319(4) 0.7964(3) -0.2184(3)
H5 H 0.3808 0.8102 -0.2896
C7 C 0.3676(4) 0.7331(2) -0.1565(3)
H6 H 0.4422 0.7042 -0.1833
C8 C 0.2913(3) 0.71085(19) -0.0502(3)
H7 H 0.3147 0.6669 -0.0077
C9 C -0.0997(2) 0.66437(13) -0.0436(2)
C10 C -0.0600(3) 0.59347(15) -0.0077(3)
H8 H -0.0136 0.5841 0.0755
C11 C -0.0895(4) 0.53629(18) -0.0961(4)
H9 H -0.0611 0.4890 -0.0725
C12 C -0.1604(4) 0.5498(2) -0.2176(4)
H10 H -0.1811 0.5114 -0.2760
C13 C -0.2002(4) 0.6179(2) -0.2532(3)
H11 H -0.2488 0.6262 -0.3360
C14 C -0.1702(3) 0.67622(19) -0.1685(2)
H12 H -0.1972 0.7233 -0.1951
C15 C 0.2356(2) 0.81376(13) 0.24606(19)
H13 H 0.3118 0.8011 0.1974
C16 C 0.2684(2) 0.86513(12) 0.3525(2)
C17 C 0.4046(3) 0.90030(17) 0.3599(3)
H14 H 0.4705 0.8871 0.3010
C18 C 0.4436(3) 0.95278(19) 0.4500(3)
H15 H 0.5349 0.9748 0.4533
C19 C 0.3447(3) 0.97304(18) 0.5371(3)
H16 H 0.3691 1.0098 0.5980
C20 C 0.2117(3) 0.93937(14) 0.5342(2)
H17 H 0.1472 0.9539 0.5936
C21 C 0.1699(2) 0.88388(12) 0.44470(19)
C22 C -0.2734(2) 0.69071(14) 0.1648(2)
H18 H -0.2990 0.6603 0.0935
C23 C -0.3679(2) 0.69087(15) 0.2688(2)
C24 C -0.4803(3) 0.63855(17) 0.2600(3)
H19 H -0.4912 0.6072 0.1883
C25 C -0.5751(3) 0.6329(2) 0.3562(4)
H20 H -0.6497 0.5984 0.3492
C26 C -0.5569(3) 0.6793(2) 0.4624(4)
H21 H -0.6186 0.6751 0.5285
C27 C -0.4498(3) 0.73147(18) 0.4727(3)
H22 H -0.4408 0.7621 0.5454
C28 C -0.3534(2) 0.73972(15) 0.3762(2)
C29 C 0.2432(2) 0.42008(13) 0.8382(2)
C30 C 0.2795(2) 0.48995(13) 0.7934(2)
C31 C 0.4087(3) 0.52426(15) 0.8468(3)
H23 H 0.4323 0.5701 0.8159
C32 C 0.4998(3) 0.49207(18) 0.9424(3)
H24 H 0.5848 0.5155 0.9769
C33 C 0.4637(3) 0.4234(2) 0.9877(3)
H25 H 0.5248 0.4012 1.0540
C34 C 0.3406(3) 0.38816(16) 0.9369(3)
H26 H 0.3204 0.3419 0.9680
C35 C 0.1840(2) 0.52421(13) 0.6902(2)
H27 H 0.1099 0.4970 0.6448
C36 C 0.0612(3) 0.58166(14) 0.4393(2)
H28 H 0.0753 0.5324 0.4228
C37 C 0.0681(2) 0.68673(13) 0.5338(2)
H29 H 0.0880 0.7240 0.5946
Fe1 Fe -0.07607(3) 0.801297(17) 0.31207(3)
N1 N 0.11123(18) 0.78423(9) 0.21284(15)
N2 N -0.15711(19) 0.72900(10) 0.16261(17)
N3 N -0.0024(2) 0.69476(11) 0.41768(18)
N4 N -0.0066(3) 0.62769(13) 0.3565(2)
N5 N 0.10780(19) 0.61640(11) 0.55264(17)
N6 N 0.2004(2) 0.59137(11) 0.66038(19)
O1 O 0.04226(17) 0.85132(10) 0.45013(14)
O2 O -0.25528(16) 0.79225(11) 0.38921(15)
O3 O 0.12110(17) 0.38796(9) 0.79209(16)
Fe1A Fe 0.07607(3) 0.301297(17) 0.68793(3)
O3A O -0.12110(17) 0.88796(9) 0.20791(16)
C38 C 0.7701(6) 0.8945(4) 0.7023(5)
H30 H 0.8211 0.8552 0.7491
H31 H 0.6812 0.8763 0.6566
H32 H 0.7475 0.9316 0.7633
O4 O 0.8498(6) 0.9218(2) 0.6202(4)
H33 H 0.9287 0.8997 0.6088
loop_
_geom_bond_atom_site_label_1
_geom_bond_atom_site_label_2
_geom_bond_site_symmetry_1
_geom_bond_site_symmetry_2
C1 H1 1_555 1_555
C2 C1 1_555 1_555
H2 C2 1_555 1_555
C3 C1 1_555 1_555
C4 C3 1_555 1_555
H3 C4 1_555 1_555
C5 C4 1_555 1_555
H4 C5 1_555 1_555
C6 C5 1_555 1_555
H5 C6 1_555 1_555
C7 C6 1_555 1_555
H6 C7 1_555 1_555
C8 C3 1_555 1_555
H7 C8 1_555 1_555
C9 C2 1_555 1_555
C10 C9 1_555 1_555
H8 C10 1_555 1_555
C11 C10 1_555 1_555
H9 C11 1_555 1_555
C12 C11 1_555 1_555
H10 C12 1_555 1_555
C13 C12 1_555 1_555
H11 C13 1_555 1_555
C14 C9 1_555 1_555
H12 C14 1_555 1_555
C15 H13 1_555 1_555
C16 C15 1_555 1_555
C17 C16 1_555 1_555
H14 C17 1_555 1_555
C18 C17 1_555 1_555
H15 C18 1_555 1_555
C19 C18 1_555 1_555
H16 C19 1_555 1_555
C20 C19 1_555 1_555
H17 C20 1_555 1_555
C21 C16 1_555 1_555
C22 H18 1_555 1_555
C23 C22 1_555 1_555
C24 C23 1_555 1_555
H19 C24 1_555 1_555
C25 C24 1_555 1_555
H20 C25 1_555 1_555
C26 C25 1_555 1_555
H21 C26 1_555 1_555
C27 C26 1_555 1_555
H22 C27 1_555 1_555
C28 C23 1_555 1_555
C29 C30 1_555 1_555
C30 C31 1_555 1_555
C31 H23 1_555 1_555
C32 C31 1_555 1_555
H24 C32 1_555 1_555
C33 C32 1_555 1_555
H25 C33 1_555 1_555
C34 C29 1_555 1_555
H26 C34 1_555 1_555
C35 C30 1_555 1_555
H27 C35 1_555 1_555
C36 H28 1_555 1_555
C37 H29 1_555 1_555
Fe1 N1 1_555 1_555
N1 C1 1_555 1_555
N2 C2 1_555 1_555
N3 C37 1_555 1_555
N4 C36 1_555 1_555
N5 C36 1_555 1_555
N6 C35 1_555 1_555
O1 C21 1_555 1_555
O2 C28 1_555 1_555
O3 C29 1_555 1_555
C38 H30 1_555 1_555
H31 C38 1_555 1_555
H32 C38 1_555 1_555
O4 C38 1_555 1_555
H33 O4 1_555 1_555
Fe1A O3 1_555 1_555
O3A Fe1 1_555 1_555
C7 C8 1_555 1_555
C13 C14 1_555 1_555
C15 N1 1_555 1_555
C20 C21 1_555 1_555
C22 N2 1_555 1_555
C27 C28 1_555 1_555
C33 C34 1_555 1_555
C37 N5 1_555 1_555
Fe1 N2 1_555 1_555
Fe1 N3 1_555 1_555
Fe1 O1 1_555 1_555
Fe1 O2 1_555 1_555
N3 N4 1_555 1_555
N5 N6 1_555 1_555

#END
