
#######################################################################
#
#                 Cambridge Crystallographic Data Centre
#                                CCDC 
#
#######################################################################
#
# If this CIF has been generated from an entry in the Cambridge 
# Structural Database, then it will include bibliographic, chemical, 
# crystal, experimental, refinement or atomic coordinate data resulting 
# from the CCDC's data processing and validation procedures.
#
#######################################################################

data_LITVAN
_symmetry_cell_setting           monoclinic
_symmetry_space_group_name_H-M   'P 21'
_symmetry_Int_Tables_number      4
_space_group_name_Hall           'P 2yb'
loop_
_symmetry_equiv_pos_site_id
_symmetry_equiv_pos_as_xyz
1 x,y,z
2 -x,1/2+y,-z
_cell_length_a                   9.2005(4)
_cell_length_b                   18.3343(8)
_cell_length_c                   10.2483(5)
_cell_angle_alpha                90
_cell_angle_beta                 95.8770(10)
_cell_angle_gamma                90
_cell_volume                     1719.65
loop_
_atom_site_label
_atom_site_type_symbol
_atom_site_fract_x
_atom_site_fract_y
_atom_site_fract_z
C1 C 0.09491(19) -0.03550(8) 0.60064(16)
H1 H 0.1279 0.0127 0.6325
C2 C -0.0692(2) -0.03023(9) 0.54940(17)
H2 H -0.0931 -0.0748 0.4988
C3 C 0.1830(2) -0.05713(11) 0.48981(17)
C4 C 0.1523(3) -0.12253(14) 0.4240(2)
H3 H 0.0799 -0.1528 0.4509
C5 C 0.2261(4) -0.1436(2) 0.3207(3)
H4 H 0.2036 -0.1875 0.2780
C6 C 0.3314(4) -0.1001(2) 0.2815(2)
H5 H 0.3798 -0.1138 0.2100
C7 C 0.3682(4) -0.03643(19) 0.3448(3)
H6 H 0.4437 -0.0079 0.3189
C8 C 0.2910(3) -0.01409(14) 0.4498(3)
H7 H 0.3138 0.0300 0.4919
C9 C -0.0997(2) 0.03279(10) 0.45614(19)
C10 C -0.0596(3) 0.10366(11) 0.4927(3)
H8 H -0.0128 0.1128 0.5758
C11 C -0.0898(3) 0.16093(13) 0.4043(3)
H9 H -0.0618 0.2082 0.4282
C12 C -0.1609(3) 0.14758(17) 0.2822(3)
H10 H -0.1815 0.1860 0.2239
C13 C -0.2011(3) 0.07889(18) 0.2461(3)
H11 H -0.2497 0.0705 0.1634
C14 C -0.1705(3) 0.02106(14) 0.3315(2)
H12 H -0.1975 -0.0260 0.3052
C15 C 0.23593(19) -0.11687(9) 0.74596(16)
H13 H 0.3122 -0.1043 0.6973
C16 C 0.2682(2) -0.16820(9) 0.85249(17)
C17 C 0.4052(2) -0.20333(12) 0.8597(2)
H14 H 0.4709 -0.1901 0.8006
C18 C 0.4442(3) -0.25588(14) 0.9501(2)
H15 H 0.5357 -0.2778 0.9538
C19 C 0.3450(3) -0.27616(13) 1.0367(2)
H16 H 0.3694 -0.3130 1.0974
C20 C 0.2119(2) -0.24278(11) 1.03425(18)
H17 H 0.1474 -0.2575 1.0933
C21 C 0.17013(19) -0.18678(9) 0.94456(16)
C22 C -0.2737(2) 0.00612(10) 0.6644(2)
H18 H -0.2996 0.0363 0.5929
C23 C -0.3681(2) 0.00585(11) 0.7688(2)
C24 C -0.4811(3) 0.05840(13) 0.7603(3)
H19 H -0.4924 0.0898 0.6887
C25 C -0.5750(3) 0.06387(15) 0.8569(3)
H20 H -0.6491 0.0986 0.8506
C26 C -0.5574(3) 0.01748(16) 0.9622(3)
H21 H -0.6194 0.0214 1.0280
C27 C -0.4501(3) -0.03450(14) 0.9722(2)
H22 H -0.4410 -0.0652 1.0448
C28 C -0.3538(2) -0.04276(11) 0.8762(2)
C29 C 0.2429(2) 0.27688(10) 1.33807(19)
C30 C 0.3405(3) 0.30876(12) 1.4372(2)
H23 H 0.3204 0.3549 1.4683
C31 C 0.4637(3) 0.27325(15) 1.4882(3)
H24 H 0.5247 0.2952 1.5549
C32 C 0.4997(3) 0.20484(13) 1.4425(2)
H25 H 0.5848 0.1814 1.4769
C33 C 0.4086(2) 0.17282(11) 1.3465(2)
H26 H 0.4325 0.1272 1.3153
C34 C 0.2797(2) 0.20681(9) 1.29368(17)
C35 C 0.1835(2) 0.17256(9) 1.19023(18)
H27 H 0.1092 0.1996 1.1449
C36 C 0.0613(2) 0.11498(10) 0.9390(2)
H28 H 0.0757 0.1642 0.9223
C37 C 0.0681(2) 0.00998(10) 1.03405(19)
H29 H 0.0881 -0.0273 1.0948
Fe1 Fe -0.07598(2) -0.104328(12) 0.81199(2)
N1 N 0.11137(16) -0.08724(7) 0.71291(13)
N2 N -0.15681(17) -0.03200(8) 0.66239(15)
N3 N -0.00239(18) 0.00209(8) 0.91768(16)
N4 N -0.0068(2) 0.06910(9) 0.85624(17)
N5 N 0.10768(17) 0.08058(8) 1.05274(15)
N6 N 0.20026(18) 0.10528(8) 1.16093(16)
O1 O 0.04226(15) -0.15424(7) 0.95003(12)
O2 O -0.25532(14) -0.09532(8) 0.88909(13)
O3 O 0.12083(14) 0.30893(7) 1.29157(13)
Fe1A Fe 0.07598(2) 0.395672(12) 1.18801(2)
O3A O -0.12083(14) -0.19107(7) 0.70843(13)
C38 C 0.7709(6) 0.8035(3) 0.2023(4)
H30 H 0.7576 0.7686 0.2698
H31 H 0.6774 0.8173 0.1592
H32 H 0.8195 0.8459 0.2406
O4 O 0.8483(5) 0.77527(14) 0.1188(3)
H33 H 0.9395 0.7840 0.1289
loop_
_geom_bond_atom_site_label_1
_geom_bond_atom_site_label_2
_geom_bond_site_symmetry_1
_geom_bond_site_symmetry_2
C1 H1 1_555 1_555
C2 C1 1_555 1_555
H2 C2 1_555 1_555
C3 C1 1_555 1_555
C4 C3 1_555 1_555
H3 C4 1_555 1_555
C5 C4 1_555 1_555
H4 C5 1_555 1_555
C6 C5 1_555 1_555
H5 C6 1_555 1_555
C7 C6 1_555 1_555
H6 C7 1_555 1_555
C8 C3 1_555 1_555
H7 C8 1_555 1_555
C9 C2 1_555 1_555
C10 C9 1_555 1_555
H8 C10 1_555 1_555
C11 C10 1_555 1_555
H9 C11 1_555 1_555
C12 C11 1_555 1_555
H10 C12 1_555 1_555
C13 C12 1_555 1_555
H11 C13 1_555 1_555
C14 C9 1_555 1_555
H12 C14 1_555 1_555
C15 H13 1_555 1_555
C16 C15 1_555 1_555
C17 C16 1_555 1_555
H14 C17 1_555 1_555
C18 C17 1_555 1_555
H15 C18 1_555 1_555
C19 C18 1_555 1_555
H16 C19 1_555 1_555
C20 C19 1_555 1_555
H17 C20 1_555 1_555
C21 C16 1_555 1_555
C22 H18 1_555 1_555
C23 C22 1_555 1_555
C24 C23 1_555 1_555
H19 C24 1_555 1_555
C25 C24 1_555 1_555
H20 C25 1_555 1_555
C26 C25 1_555 1_555
H21 C26 1_555 1_555
C27 C26 1_555 1_555
H22 C27 1_555 1_555
C28 C23 1_555 1_555
C29 C30 1_555 1_555
C30 H23 1_555 1_555
C31 C30 1_555 1_555
H24 C31 1_555 1_555
C32 C31 1_555 1_555
H25 C32 1_555 1_555
C33 C32 1_555 1_555
H26 C33 1_555 1_555
C34 C29 1_555 1_555
C35 C34 1_555 1_555
H27 C35 1_555 1_555
C36 H28 1_555 1_555
C37 H29 1_555 1_555
Fe1 N1 1_555 1_555
N1 C1 1_555 1_555
N2 C2 1_555 1_555
N3 C37 1_555 1_555
N4 C36 1_555 1_555
N5 C36 1_555 1_555
N6 C35 1_555 1_555
O1 C21 1_555 1_555
O2 C28 1_555 1_555
O3 C29 1_555 1_555
C38 H30 1_555 1_555
H31 C38 1_555 1_555
H32 C38 1_555 1_555
O4 C38 1_555 1_555
H33 O4 1_555 1_555
Fe1A O3 1_555 1_555
O3A Fe1 1_555 1_555
C7 C8 1_555 1_555
C13 C14 1_555 1_555
C15 N1 1_555 1_555
C20 C21 1_555 1_555
C22 N2 1_555 1_555
C27 C28 1_555 1_555
C33 C34 1_555 1_555
C37 N5 1_555 1_555
Fe1 N2 1_555 1_555
Fe1 N3 1_555 1_555
Fe1 O1 1_555 1_555
Fe1 O2 1_555 1_555
N3 N4 1_555 1_555
N5 N6 1_555 1_555

#END
