
#######################################################################
#
#                 Cambridge Crystallographic Data Centre
#                                CCDC 
#
#######################################################################
#
# If this CIF has been generated from an entry in the Cambridge 
# Structural Database, then it will include bibliographic, chemical, 
# crystal, experimental, refinement or atomic coordinate data resulting 
# from the CCDC's data processing and validation procedures.
#
#######################################################################

data_LITXER
_symmetry_cell_setting           triclinic
_symmetry_space_group_name_H-M   'P -1'
_symmetry_Int_Tables_number      2
_space_group_name_Hall           '-P 1'
loop_
_symmetry_equiv_pos_site_id
_symmetry_equiv_pos_as_xyz
1 x,y,z
2 -x,-y,-z
_cell_length_a                   13.2710(9)
_cell_length_b                   13.9844(9)
_cell_length_c                   14.0125(9)
_cell_angle_alpha                64.6360(10)
_cell_angle_beta                 77.4500(10)
_cell_angle_gamma                74.0300(10)
_cell_volume                     2244.32
loop_
_atom_site_label
_atom_site_type_symbol
_atom_site_fract_x
_atom_site_fract_y
_atom_site_fract_z
Si1 Si 0.13905(8) 0.58511(8) 0.40266(8)
Si2 Si 0.13051(8) 0.73888(8) 0.24230(8)
Li1 Li 0.0742(8) 0.7561(6) 0.0648(6)
C1 C 0.1847(3) 0.6037(3) 0.5098(3)
C2 C 0.1482(4) 0.6817(3) 0.5532(3)
H1 H 0.0857 0.7319 0.5345
C3 C 0.2043(4) 0.6849(4) 0.6236(4)
H2 H 0.1786 0.7360 0.6536
C4 C 0.2978(5) 0.6128(4) 0.6495(4)
H3 H 0.3358 0.6164 0.6959
C5 C 0.3361(4) 0.5353(4) 0.6076(4)
H4 H 0.3997 0.4870 0.6258
C6 C 0.2799(3) 0.5286(3) 0.5379(3)
C7 C 0.3116(3) 0.4483(3) 0.4873(3)
C8 C 0.2500(3) 0.4636(3) 0.4150(3)
C9 C 0.2659(3) 0.3941(3) 0.3555(3)
C10 C 0.3559(4) 0.3831(4) 0.2840(4)
H5 H 0.4089 0.4194 0.2739
C11 C 0.3670(5) 0.3192(4) 0.2284(4)
H6 H 0.4274 0.3135 0.1812
C12 C 0.2922(6) 0.2645(5) 0.2409(5)
H7 H 0.3014 0.2210 0.2034
C13 C 0.2022(5) 0.2740(5) 0.3098(5)
H8 H 0.1499 0.2373 0.3189
C14 C 0.1900(4) 0.3385(4) 0.3657(4)
H9 H 0.1286 0.3446 0.4116
C15 C 0.4061(4) 0.3574(4) 0.5231(4)
H10 H 0.4241 0.3197 0.4756
H11 H 0.4656 0.3887 0.5159
C16 C 0.3914(8) 0.2761(6) 0.6354(6)
H12 H 0.4601 0.2346 0.6573
H13 H 0.3597 0.3146 0.6816
C17 C 0.3337(7) 0.2104(9) 0.6483(8)
H14 H 0.3591 0.1796 0.5951
H15 H 0.2619 0.2503 0.6373
C18 C 0.3337(7) 0.1099(7) 0.7696(7)
H16 H 0.2895 0.0633 0.7751
H17 H 0.3072 0.1398 0.8226
H18 H 0.4044 0.0691 0.7804
C19 C 0.0429(3) 0.8314(3) 0.3078(3)
C20 C -0.0644(3) 0.8441(3) 0.3460(3)
H19 H -0.1038 0.7994 0.3439
C21 C -0.1128(4) 0.9220(4) 0.3866(4)
H20 H -0.1839 0.9284 0.4128
C22 C -0.0559(4) 0.9905(4) 0.3887(4)
H21 H -0.0890 1.0431 0.4157
C23 C 0.0496(4) 0.9807(4) 0.3510(4)
H22 H 0.0871 1.0276 0.3516
C24 C 0.1006(3) 0.9013(3) 0.3119(3)
C25 C 0.2138(3) 0.8818(3) 0.2698(3)
C26 C 0.2439(3) 0.8018(3) 0.2332(3)
C27 C 0.3514(3) 0.7746(3) 0.1796(3)
C28 C 0.3921(4) 0.8519(4) 0.0872(4)
H23 H 0.3533 0.9224 0.0614
C29 C 0.4893(5) 0.8253(6) 0.0333(5)
H24 H 0.5155 0.8780 -0.0275
C30 C 0.5467(4) 0.7212(6) 0.0695(5)
H25 H 0.6113 0.7032 0.0327
C31 C 0.5090(4) 0.6440(5) 0.1597(4)
H26 H 0.5479 0.5734 0.1846
C32 C 0.4120(3) 0.6714(4) 0.2142(3)
H27 H 0.3874 0.6183 0.2758
C33 C 0.2849(4) 0.9431(4) 0.2821(4)
H28 H 0.2511 1.0190 0.2600
H29 H 0.3506 0.9373 0.2363
C34 C 0.3086(4) 0.8988(4) 0.3977(4)
H30 H 0.2424 0.8944 0.4435
H31 H 0.3502 0.8257 0.4156
C35 C 0.3662(5) 0.9628(5) 0.4222(5)
H32 H 0.3232 1.0347 0.4089
H33 H 0.4312 0.9705 0.3745
C36 C 0.3922(5) 0.9115(6) 0.5356(5)
H34 H 0.4286 0.9559 0.5467
H35 H 0.4365 0.8411 0.5489
H36 H 0.3282 0.9049 0.5834
O1 O -0.0499(5) 0.7043(4) 0.0715(3)
O2 O -0.1481(6) 0.5597(7) 0.0705(7)
O3 O 0.1852(4) 0.6979(4) -0.0207(3)
O4 O 0.3859(4) 0.6339(6) -0.1152(4)
O5 O 0.0285(3) 0.9074(3) -0.0241(3)
C37 C -0.0867(11) 0.6207(8) 0.1651(7)
H37 H -0.0262 0.5779 0.2036
H38 H -0.1345 0.6558 0.2090
C38 C -0.1255(15) 0.5651(13) 0.1611(8)
H39 H -0.1930 0.5719 0.2041
H40 H -0.0852 0.4939 0.1996
C39 C -0.1138(12) 0.6429(12) -0.0208(8)
H41 H -0.0660 0.6078 -0.0648
H42 H -0.1752 0.6833 -0.0584
C40 C -0.0740(13) 0.7052(9) -0.0222(7)
H43 H -0.1180 0.7754 -0.0569
H44 H -0.0083 0.7019 -0.0684
C41 C 0.2475(5) 0.5916(5) 0.0252(5)
H45 H 0.2319 0.5643 0.1020
H46 H 0.2293 0.5437 0.0010
C42 C 0.3571(6) 0.5917(8) -0.0032(6)
H47 H 0.3761 0.6345 0.0267
H48 H 0.3968 0.5182 0.0277
C43 C 0.3274(10) 0.7384(9) -0.1579(7)
H49 H 0.3453 0.7681 -0.2344
H50 H 0.3456 0.7832 -0.1298
C44 C 0.2116(9) 0.7415(8) -0.1327(5)
H51 H 0.1730 0.8156 -0.1629
H52 H 0.1921 0.6998 -0.1635
C45 C -0.0791(4) 0.9680(4) -0.0212(4)
H53 H -0.1274 0.9195 0.0006
H54 H -0.0921 1.0219 -0.0918
C46 C 0.0984(4) 0.9785(5) -0.0531(4)
H55 H 0.0891 1.0327 -0.1244
H56 H 0.1706 0.9381 -0.0534
C47 C 0.0072(3) 0.5436(3) 0.4434(3)
H57 H -0.0478 0.6073 0.4380
H58 H -0.0027 0.5170 0.3933
C46A C -0.0984(4) 1.0215(5) 0.0531(4)
C45A C 0.0791(4) 1.0320(4) 0.0212(4)
C47A C -0.0072(3) 0.4564(3) 0.5566(3)
O5A O -0.0285(3) 1.0926(3) 0.0241(3)
H55A H -0.0891 0.9673 0.1244
H56A H -0.1706 1.0619 0.0534
H53A H 0.1274 1.0805 -0.0006
H54A H 0.0921 0.9781 0.0918
Si1A Si -0.13905(8) 0.41489(8) 0.59734(8)
H57A H 0.0478 0.3927 0.5620
H58A H 0.0027 0.4830 0.6067
Li1A Li -0.0742(8) 1.2439(6) -0.0648(6)
Si2A Si -0.13051(8) 0.26112(8) 0.75770(8)
C1A C -0.1847(3) 0.3963(3) 0.4902(3)
C8A C -0.2500(3) 0.5364(3) 0.5850(3)
Li1A_2 Li -0.0742(8) 0.2439(6) 0.9352(6)
C19A C -0.0429(3) 0.1686(3) 0.6922(3)
C26A C -0.2439(3) 0.1982(3) 0.7668(3)
C2A C -0.1482(4) 0.3183(3) 0.4468(3)
C6A C -0.2799(3) 0.4714(3) 0.4621(3)
C7A C -0.3116(3) 0.5517(3) 0.5127(3)
C9A C -0.2659(3) 0.6059(3) 0.6445(3)
O1A O 0.0499(5) 0.2957(4) 0.9285(3)
O3A O -0.1852(4) 0.3021(4) 1.0207(3)
O5A_2 O -0.0285(3) 0.0926(3) 1.0241(3)
C20A C 0.0644(3) 0.1559(3) 0.6540(3)
C24A C -0.1006(3) 0.0987(3) 0.6881(3)
C25A C -0.2138(3) 0.1182(3) 0.7302(3)
C27A C -0.3514(3) 0.2254(3) 0.8204(3)
H1A H -0.0857 0.2681 0.4655
C3A C -0.2043(4) 0.3151(4) 0.3764(4)
C5A C -0.3361(4) 0.4647(4) 0.3924(4)
C15A C -0.4061(4) 0.6426(4) 0.4769(4)
C10A C -0.3559(4) 0.6169(4) 0.7160(4)
C14A C -0.1900(4) 0.6615(4) 0.6343(4)
C37A C 0.0867(11) 0.3793(8) 0.8349(7)
C40A C 0.0740(13) 0.2948(9) 1.0222(7)
C41A C -0.2475(5) 0.4084(5) 0.9748(5)
C44A C -0.2116(9) 0.2585(8) 1.1327(5)
H19A H 0.1038 0.2006 0.6561
C21A C 0.1128(4) 0.0780(4) 0.6134(4)
C23A C -0.0496(4) 0.0193(4) 0.6490(4)
C33A C -0.2849(4) 0.0569(4) 0.7179(4)
C28A C -0.3921(4) 0.1481(4) 0.9128(4)
C32A C -0.4120(3) 0.3286(4) 0.7858(3)
H2A H -0.1786 0.2640 0.3464
C4A C -0.2978(5) 0.3872(4) 0.3505(4)
H4A H -0.3997 0.5130 0.3742
H10A H -0.4241 0.6803 0.5244
H11A H -0.4656 0.6113 0.4841
C16A C -0.3914(8) 0.7239(6) 0.3646(6)
H5A H -0.4089 0.5806 0.7261
C11A C -0.3670(5) 0.6808(4) 0.7716(4)
C13A C -0.2022(5) 0.7260(5) 0.6902(5)
H9A H -0.1286 0.6554 0.5884
H37A H 0.0262 0.4221 0.7964
H38A H 0.1345 0.3442 0.7910
C38A C 0.1255(15) 0.4349(13) 0.8389(8)
C39A C 0.1138(12) 0.3571(12) 1.0208(8)
H43A H 0.1180 0.2246 1.0569
H44A H 0.0083 0.2981 1.0684
H45A H -0.2319 0.4357 0.8980
H46A H -0.2293 0.4563 0.9990
C42A C -0.3571(6) 0.4083(8) 1.0032(6)
C43A C -0.3274(10) 0.2616(9) 1.1579(7)
H51A H -0.1730 0.1844 1.1629
H52A H -0.1921 0.3002 1.1635
H20A H 0.1839 0.0716 0.5872
C22A C 0.0559(4) 0.0095(4) 0.6113(4)
H22A H -0.0871 -0.0276 0.6484
H28A H -0.2511 -0.0190 0.7400
H29A H -0.3506 0.0627 0.7637
C34A C -0.3086(4) 0.1012(4) 0.6023(4)
H23A H -0.3533 0.0776 0.9386
C29A C -0.4893(5) 0.1747(6) 0.9667(5)
C31A C -0.5090(4) 0.3560(5) 0.8403(4)
H27A H -0.3874 0.3817 0.7242
H3A H -0.3358 0.3836 0.3041
H12A H -0.4601 0.7654 0.3427
H13A H -0.3597 0.6854 0.3184
C17A C -0.3337(7) 0.7896(9) 0.3517(8)
H6A H -0.4274 0.6865 0.8188
C12A C -0.2922(6) 0.7355(5) 0.7591(5)
H8A H -0.1499 0.7627 0.6811
O2A O 0.1481(6) 0.4403(7) 0.9295(7)
H39A H 0.1930 0.4281 0.7959
H40A H 0.0852 0.5061 0.8004
H41A H 0.0660 0.3922 1.0648
H42A H 0.1752 0.3167 1.0584
O4A O -0.3859(4) 0.3661(6) 1.1152(4)
H47A H -0.3761 0.3655 0.9733
H48A H -0.3968 0.4818 0.9723
H49A H -0.3453 0.2319 1.2344
H50A H -0.3456 0.2168 1.1298
H21A H 0.0890 -0.0431 0.5843
H30A H -0.2424 0.1056 0.5565
H31A H -0.3502 0.1743 0.5844
C35A C -0.3662(5) 0.0372(5) 0.5778(5)
H24A H -0.5155 0.1220 1.0275
C30A C -0.5467(4) 0.2788(6) 0.9305(5)
H26A H -0.5479 0.4266 0.8154
H14A H -0.3591 0.8204 0.4049
H15A H -0.2619 0.7497 0.3627
C18A C -0.3337(7) 0.8901(7) 0.2304(7)
H7A H -0.3014 0.7790 0.7966
H32A H -0.3232 -0.0347 0.5911
H33A H -0.4312 0.0295 0.6255
C36A C -0.3922(5) 0.0885(6) 0.4644(5)
H25A H -0.6113 0.2968 0.9673
H16A H -0.2895 0.9367 0.2249
H17A H -0.3072 0.8602 0.1774
H18A H -0.4044 0.9309 0.2196
H34A H -0.4286 0.0441 0.4533
H35A H -0.4365 0.1589 0.4511
H36A H -0.3282 0.0951 0.4166
loop_
_geom_bond_atom_site_label_1
_geom_bond_atom_site_label_2
_geom_bond_site_symmetry_1
_geom_bond_site_symmetry_2
Si1 Si2 1_555 1_555
Si2 Li1 1_555 1_555
Li1 O1 1_555 1_555
C1 Si1 1_555 1_555
C2 C1 1_555 1_555
H1 C2 1_555 1_555
C3 C2 1_555 1_555
H2 C3 1_555 1_555
C4 C3 1_555 1_555
H3 C4 1_555 1_555
C5 C4 1_555 1_555
H4 C5 1_555 1_555
C6 C1 1_555 1_555
C7 C6 1_555 1_555
C8 Si1 1_555 1_555
C9 C8 1_555 1_555
C10 C9 1_555 1_555
H5 C10 1_555 1_555
C11 C10 1_555 1_555
H6 C11 1_555 1_555
C12 C11 1_555 1_555
H7 C12 1_555 1_555
C13 C12 1_555 1_555
H8 C13 1_555 1_555
C14 C9 1_555 1_555
H9 C14 1_555 1_555
C15 C7 1_555 1_555
H10 C15 1_555 1_555
H11 C15 1_555 1_555
C16 C15 1_555 1_555
H12 C16 1_555 1_555
H13 C16 1_555 1_555
C17 C16 1_555 1_555
H14 C17 1_555 1_555
H15 C17 1_555 1_555
C18 C17 1_555 1_555
H16 C18 1_555 1_555
H17 C18 1_555 1_555
H18 C18 1_555 1_555
C19 Si2 1_555 1_555
C20 C19 1_555 1_555
H19 C20 1_555 1_555
C21 C20 1_555 1_555
H20 C21 1_555 1_555
C22 C21 1_555 1_555
H21 C22 1_555 1_555
C23 C22 1_555 1_555
H22 C23 1_555 1_555
C24 C19 1_555 1_555
C25 C24 1_555 1_555
C26 Si2 1_555 1_555
C27 C26 1_555 1_555
C28 C27 1_555 1_555
H23 C28 1_555 1_555
C29 C28 1_555 1_555
H24 C29 1_555 1_555
C30 C29 1_555 1_555
H25 C30 1_555 1_555
C31 C30 1_555 1_555
H26 C31 1_555 1_555
C32 C27 1_555 1_555
H27 C32 1_555 1_555
C33 C25 1_555 1_555
H28 C33 1_555 1_555
H29 C33 1_555 1_555
C34 C33 1_555 1_555
H30 C34 1_555 1_555
H31 C34 1_555 1_555
C35 C34 1_555 1_555
H32 C35 1_555 1_555
H33 C35 1_555 1_555
C36 C35 1_555 1_555
H34 C36 1_555 1_555
H35 C36 1_555 1_555
H36 C36 1_555 1_555
O1 C37 1_555 1_555
O2 C38 1_555 1_555
O3 Li1 1_555 1_555
O4 C42 1_555 1_555
O5 Li1 1_555 1_555
C37 H37 1_555 1_555
H38 C37 1_555 1_555
C38 C37 1_555 1_555
H39 C38 1_555 1_555
H40 C38 1_555 1_555
C39 O2 1_555 1_555
H41 C39 1_555 1_555
H42 C39 1_555 1_555
C40 O1 1_555 1_555
H43 C40 1_555 1_555
H44 C40 1_555 1_555
C41 O3 1_555 1_555
H45 C41 1_555 1_555
H46 C41 1_555 1_555
C42 C41 1_555 1_555
H47 C42 1_555 1_555
H48 C42 1_555 1_555
C43 O4 1_555 1_555
H49 C43 1_555 1_555
H50 C43 1_555 1_555
C44 O3 1_555 1_555
H51 C44 1_555 1_555
H52 C44 1_555 1_555
C45 O5 1_555 1_555
H53 C45 1_555 1_555
H54 C45 1_555 1_555
C46 O5 1_555 1_555
H55 C46 1_555 1_555
H56 C46 1_555 1_555
C47 Si1 1_555 1_555
H57 C47 1_555 1_555
H58 C47 1_555 1_555
C46A C45 1_555 1_555
C45A C46 1_555 1_555
C47A C47 1_555 1_555
O5A C46A 1_555 1_555
H55A C46A 1_555 1_555
H56A C46A 1_555 1_555
H53A C45A 1_555 1_555
H54A C45A 1_555 1_555
Si1A C47A 1_555 1_555
H57A C47A 1_555 1_555
H58A C47A 1_555 1_555
Li1A O5A 1_555 1_555
Si2A Si1A 1_555 1_555
C1A Si1A 1_555 1_555
C8A Si1A 1_555 1_555
Li1A_2 Si2A 1_555 1_555
C19A Si2A 1_555 1_555
C26A Si2A 1_555 1_555
C2A C1A 1_555 1_555
C6A C1A 1_555 1_555
C7A C8A 1_555 1_555
C9A C8A 1_555 1_555
O1A Li1A_2 1_555 1_555
O3A Li1A_2 1_555 1_555
O5A_2 Li1A_2 1_555 1_555
C20A C19A 1_555 1_555
C24A C19A 1_555 1_555
C25A C26A 1_555 1_555
C27A C26A 1_555 1_555
H1A C2A 1_555 1_555
C3A C2A 1_555 1_555
C5A C6A 1_555 1_555
C15A C7A 1_555 1_555
C10A C9A 1_555 1_555
C14A C9A 1_555 1_555
C37A O1A 1_555 1_555
C40A O1A 1_555 1_555
C41A O3A 1_555 1_555
C44A O3A 1_555 1_555
H19A C20A 1_555 1_555
C21A C20A 1_555 1_555
C23A C24A 1_555 1_555
C33A C25A 1_555 1_555
C28A C27A 1_555 1_555
C32A C27A 1_555 1_555
H2A C3A 1_555 1_555
C4A C3A 1_555 1_555
H4A C5A 1_555 1_555
H10A C15A 1_555 1_555
H11A C15A 1_555 1_555
C16A C15A 1_555 1_555
H5A C10A 1_555 1_555
C11A C10A 1_555 1_555
C13A C14A 1_555 1_555
H9A C14A 1_555 1_555
H37A C37A 1_555 1_555
H38A C37A 1_555 1_555
C38A C37A 1_555 1_555
C39A C40A 1_555 1_555
H43A C40A 1_555 1_555
H44A C40A 1_555 1_555
H45A C41A 1_555 1_555
H46A C41A 1_555 1_555
C42A C41A 1_555 1_555
C43A C44A 1_555 1_555
H51A C44A 1_555 1_555
H52A C44A 1_555 1_555
H20A C21A 1_555 1_555
C22A C21A 1_555 1_555
H22A C23A 1_555 1_555
H28A C33A 1_555 1_555
H29A C33A 1_555 1_555
C34A C33A 1_555 1_555
H23A C28A 1_555 1_555
C29A C28A 1_555 1_555
C31A C32A 1_555 1_555
H27A C32A 1_555 1_555
H3A C4A 1_555 1_555
H12A C16A 1_555 1_555
H13A C16A 1_555 1_555
C17A C16A 1_555 1_555
H6A C11A 1_555 1_555
C12A C11A 1_555 1_555
H8A C13A 1_555 1_555
O2A C38A 1_555 1_555
H39A C38A 1_555 1_555
H40A C38A 1_555 1_555
H41A C39A 1_555 1_555
H42A C39A 1_555 1_555
O4A C42A 1_555 1_555
H47A C42A 1_555 1_555
H48A C42A 1_555 1_555
H49A C43A 1_555 1_555
H50A C43A 1_555 1_555
H21A C22A 1_555 1_555
H30A C34A 1_555 1_555
H31A C34A 1_555 1_555
C35A C34A 1_555 1_555
H24A C29A 1_555 1_555
C30A C29A 1_555 1_555
H26A C31A 1_555 1_555
H14A C17A 1_555 1_555
H15A C17A 1_555 1_555
C18A C17A 1_555 1_555
H7A C12A 1_555 1_555
H32A C35A 1_555 1_555
H33A C35A 1_555 1_555
C36A C35A 1_555 1_555
H25A C30A 1_555 1_555
H16A C18A 1_555 1_555
H17A C18A 1_555 1_555
H18A C18A 1_555 1_555
H34A C36A 1_555 1_555
H35A C36A 1_555 1_555
H36A C36A 1_555 1_555
C5 C6 1_555 1_555
C7 C8 1_555 1_555
C13 C14 1_555 1_555
C23 C24 1_555 1_555
C25 C26 1_555 1_555
C31 C32 1_555 1_555
C39 C40 1_555 1_555
C43 C44 1_555 1_555
C45A O5A 1_555 1_555
C6A C7A 1_555 1_555
C24A C25A 1_555 1_555
C5A C4A 1_555 1_555
C23A C22A 1_555 1_555
C13A C12A 1_555 1_555
C39A O2A 1_555 1_555
C43A O4A 1_555 1_555
C31A C30A 1_555 1_555

#END
