
#######################################################################
#
#                 Cambridge Crystallographic Data Centre
#                                CCDC 
#
#######################################################################
#
# If this CIF has been generated from an entry in the Cambridge 
# Structural Database, then it will include bibliographic, chemical, 
# crystal, experimental, refinement or atomic coordinate data resulting 
# from the CCDC's data processing and validation procedures.
#
#######################################################################

data_LIVFUT
_symmetry_cell_setting           triclinic
_symmetry_space_group_name_H-M   'P 1'
_symmetry_Int_Tables_number      1
_space_group_name_Hall           'P 1'
loop_
_symmetry_equiv_pos_site_id
_symmetry_equiv_pos_as_xyz
1 x,y,z
_cell_length_a                   12.1853(3)
_cell_length_b                   12.2243(4)
_cell_length_c                   19.8437(3)
_cell_angle_alpha                82.987(2)
_cell_angle_beta                 84.486(3)
_cell_angle_gamma                72.343(2)
_cell_volume                     2790.07
loop_
_atom_site_label
_atom_site_type_symbol
_atom_site_fract_x
_atom_site_fract_y
_atom_site_fract_z
Ag1 Ag -0.29329(6) 0.96434(6) 0.36393(4)
Ag2 Ag 0.20729(6) 0.95753(6) 0.37617(4)
C1 C -0.1357(8) 1.0288(8) 0.4652(4)
C2 C -0.2155(10) 1.0684(9) 0.5183(6)
H1 H -0.2916 1.0682 0.5171
C3 C -0.1816(10) 1.1083(10) 0.5731(7)
H2 H -0.2350 1.1348 0.6086
C4 C -0.0679(10) 1.1086(10) 0.5749(6)
H3 H -0.0452 1.1353 0.6116
C5 C 0.0119(9) 1.0690(7) 0.5218(5)
H4 H 0.0879 1.0691 0.5230
C6 C -0.0221(9) 1.0291(8) 0.4669(5)
C7 C -0.0421(11) 0.9556(11) 0.3741(6)
C8 C -0.0143(11) 0.8833(9) 0.3135(5)
H5 H 0.0555 0.8971 0.2902
C9 C 0.0174(10) 0.7605(9) 0.3347(5)
H6 H -0.0288 0.7464 0.3749
H7 H 0.0975 0.7336 0.3443
H8 H 0.0047 0.7204 0.2990
C10 C 0.4229(10) 0.9163(9) 0.2723(5)
C11 C 0.3765(9) 0.8995(8) 0.2145(5)
H9 H 0.3008 0.8967 0.2166
C12 C 0.4432(10) 0.8869(10) 0.1534(6)
H10 H 0.4121 0.8756 0.1147
C13 C 0.5563(9) 0.8911(8) 0.1502(6)
H11 H 0.6009 0.8826 0.1094
C14 C 0.6027(10) 0.9079(9) 0.2081(5)
H12 H 0.6784 0.9106 0.2059
C15 C 0.5360(8) 0.9205(9) 0.2691(5)
C16 C 0.4606(10) 0.9427(9) 0.3726(5)
C17 C 0.4519(10) 0.9456(9) 0.4449(5)
H13 H 0.5292 0.9096 0.4615
C18 C 0.4096(9) 1.0657(9) 0.4656(5)
H14 H 0.3712 1.1172 0.4288
H15 H 0.4738 1.0890 0.4763
H16 H 0.3565 1.0681 0.5048
N1 N -0.1544(7) 0.9791(7) 0.4076(4)
N2 N 0.0353(7) 0.9832(7) 0.4049(4)
N3 N 0.3781(7) 0.9302(7) 0.3344(4)
N4 N 0.5619(8) 0.9319(7) 0.3301(4)
O1 O -0.1018(6) 0.9294(7) 0.2664(4)
H17 H -0.0892 0.8886 0.2350
O2 O 0.3791(7) 0.8874(6) 0.4792(4)
H18 H 0.3653 0.8456 0.4539
Ag1_2 Ag 0.70671(6) 0.96434(6) 0.36393(4)
N4_2 N -0.4381(8) 0.9319(7) 0.3301(4)
Ag3 Ag -0.23005(6) 0.36140(6) 0.47786(4)
Ag4 Ag 0.26894(6) 0.36932(6) 0.46667(4)
C19 C -0.0600(9) 0.4080(8) 0.5710(5)
C20 C -0.1366(10) 0.4344(10) 0.6274(5)
H19 H -0.2118 0.4311 0.6267
C21 C -0.1009(10) 0.4655(10) 0.6847(6)
H20 H -0.1522 0.4832 0.7224
C22 C 0.0114(10) 0.4704(10) 0.6857(6)
H21 H 0.0353 0.4912 0.7241
C23 C 0.0880(12) 0.4440(9) 0.6294(6)
H22 H 0.1632 0.4472 0.6300
C24 C 0.0523(10) 0.4128(9) 0.5720(5)
C25 C 0.0217(9) 0.3643(9) 0.4760(5)
C26 C 0.0357(8) 0.3424(8) 0.4020(5)
H23 H -0.0189 0.3023 0.3927
C27 C 0.0258(10) 0.4426(10) 0.3542(5)
H24 H 0.0562 0.4957 0.3725
H25 H -0.0539 0.4791 0.3457
H26 H 0.0685 0.4199 0.3124
C28 C 0.4966(10) 0.3131(8) 0.3736(5)
C29 C 0.4631(11) 0.2750(9) 0.3179(5)
H27 H 0.3859 0.2806 0.3146
C30 C 0.5449(10) 0.2286(9) 0.2672(5)
H28 H 0.5225 0.2031 0.2300
C31 C 0.6602(10) 0.2203(9) 0.2722(6)
H29 H 0.7149 0.1892 0.2383
C32 C 0.6937(10) 0.2584(8) 0.3279(6)
H30 H 0.7709 0.2528 0.3312
C33 C 0.6119(9) 0.3048(9) 0.3786(5)
C34 C 0.5145(9) 0.3816(8) 0.4664(5)
C35 C 0.4844(9) 0.4336(8) 0.5344(5)
H31 H 0.4045 0.4837 0.5347
C36 C 0.4949(10) 0.3427(9) 0.5936(5)
H32 H 0.5740 0.3129 0.6049
H33 H 0.4690 0.2811 0.5818
H34 H 0.4483 0.3758 0.6321
N5 N -0.0822(7) 0.3784(8) 0.5064(4)
N6 N 0.1065(7) 0.3883(7) 0.5092(4)
N7 N 0.4355(7) 0.3562(6) 0.4318(4)
N8 N 0.6242(7) 0.3502(7) 0.4373(4)
O3 O 0.1546(6) 0.2663(6) 0.3944(3)
H35 H 0.1533 0.1992 0.3743
O4 O 0.5562(6) 0.4995(6) 0.5435(3)
H36 H 0.5879 0.5150 0.5068
Ag3_2 Ag 0.76995(6) 0.36140(6) 0.47786(4)
N8_2 N -0.3758(7) 0.3502(7) 0.4373(4)
Ag5 Ag 0.37812(7) 0.74997(6) 0.85648(4)
Ag6 Ag 0.37191(7) 0.24980(6) 0.86752(4)
C37 C 0.4483(10) 0.5222(8) 0.9525(6)
C38 C 0.4874(10) 0.5560(9) 1.0082(5)
H37 H 0.4934 0.6303 1.0067
C39 C 0.5158(9) 0.4831(9) 1.0626(6)
H38 H 0.5426 0.5081 1.0985
C40 C 0.5086(10) 0.3747(9) 1.0696(5)
H39 H 0.5237 0.3301 1.1109
C41 C 0.4785(10) 0.3276(10) 1.0153(5)
H40 H 0.4813 0.2504 1.0174
C42 C 0.4439(9) 0.4056(8) 0.9580(5)
C43 C 0.3732(11) 0.4957(10) 0.8629(6)
C44 C 0.3061(10) 0.5313(9) 0.7992(6)
H41 H 0.3290 0.4687 0.7694
C45 C 0.1845(10) 0.5516(9) 0.8240(7)
H42 H 0.1674 0.6006 0.8603
H43 H 0.1711 0.4793 0.8404
H44 H 0.1356 0.5881 0.7875
C46 C 0.3292(9) 0.0916(8) 0.7641(5)
C47 C 0.3035(10) 0.1678(10) 0.7069(6)
H45 H 0.3010 0.2444 0.7080
C48 C 0.2822(10) 0.1325(9) 0.6497(5)
H46 H 0.2686 0.1852 0.6112
C49 C 0.2793(9) 0.0225(9) 0.6450(5)
H47 H 0.2625 0.0004 0.6050
C50 C 0.3034(9) -0.0558(8) 0.7043(5)
H48 H 0.3043 -0.1319 0.7031
C51 C 0.3250(9) -0.0211(8) 0.7629(5)
C52 C 0.3577(9) 0.0023(9) 0.8639(5)
C53 C 0.3751(9) -0.0194(9) 0.9379(5)
H49 H 0.3564 -0.0900 0.9569
C54 C 0.5048(9) -0.0311(9) 0.9486(5)
H50 H 0.5520 -0.1075 0.9407
H51 H 0.5115 -0.0170 0.9944
H52 H 0.5298 0.0241 0.9173
N9 N 0.4034(7) 0.5795(7) 0.8960(4)
N10 N 0.3957(7) 0.3959(6) 0.8969(4)
N11 N 0.3445(8) 0.1075(6) 0.8284(4)
N12 N 0.3466(8) -0.0766(6) 0.8260(4)
O5 O 0.3270(7) 0.6292(6) 0.7654(4)
H53 H 0.2782 0.6588 0.7377
O6 O 0.3071(7) 0.0772(6) 0.9741(4)
H54 H 0.2470 0.1090 0.9551
Ag5_2 Ag 0.37812(7) -0.25003(6) 0.85648(4)
N12_2 N 0.3466(8) 0.9234(6) 0.8260(4)
Ag7 Ag 0.80010(6) 0.91032(6) 0.96907(4)
Ag8 Ag 0.76309(7) 0.42221(6) 0.96977(4)
C55 C 0.8364(10) 0.6837(8) 1.0687(5)
C56 C 0.8652(10) 0.7175(9) 1.1273(5)
H55 H 0.8753 0.7900 1.1268
C57 C 0.8790(10) 0.6429(9) 1.1867(6)
H56 H 0.8984 0.6655 1.2259
C58 C 0.8640(11) 0.5345(10) 1.1875(6)
H57 H 0.8732 0.4846 1.2272
C59 C 0.8351(10) 0.5007(9) 1.1288(5)
H58 H 0.8251 0.4281 1.1294
C60 C 0.8213(9) 0.5753(9) 1.0694(5)
C61 C 0.8012(10) 0.6531(9) 0.9649(6)
C62 C 0.7687(10) 0.6889(10) 0.8958(5)
H59 H 0.7339 0.7727 0.8890
C63 C 0.8767(10) 0.6512(11) 0.8508(6)
H60 H 0.9050 0.5685 0.8550
H61 H 0.9341 0.6821 0.8641
H62 H 0.8601 0.6789 0.8044
C64 C 0.7172(9) 0.2608(8) 0.8764(5)
C65 C 0.6714(9) 0.3424(9) 0.8233(5)
H63 H 0.6694 0.4189 0.8242
C66 C 0.6288(10) 0.3096(10) 0.7690(5)
H64 H 0.5981 0.3641 0.7335
C67 C 0.6319(11) 0.1952(9) 0.7678(5)
H65 H 0.6033 0.1733 0.7314
C68 C 0.6777(10) 0.1137(9) 0.8208(5)
H66 H 0.6797 0.0372 0.8200
C69 C 0.7204(9) 0.1465(9) 0.8751(5)
C70 C 0.7962(10) 0.1589(10) 0.9647(6)
C71 C 0.8584(9) 0.1291(8) 1.0338(5)
H67 H 0.8891 0.1918 1.0411
C72 C 0.7693(10) 0.1174(10) 1.0905(5)
H68 H 0.7014 0.1131 1.0714
H69 H 0.7497 0.1832 1.1161
H70 H 0.8002 0.0486 1.1199
N13 N 0.8204(8) 0.7347(7) 1.0029(4)
N14 N 0.7907(7) 0.5655(6) 1.0025(4)
N15 N 0.7606(7) 0.2702(6) 0.9352(4)
N16 N 0.7717(7) 0.0807(6) 0.9324(4)
O7 O 0.6923(8) 0.6301(7) 0.8796(4)
H71 H 0.6452 0.6730 0.8539
O8 O 0.9479(6) 0.0270(5) 1.0315(3)
H72 H 1.0098 0.0412 1.0289
Ag7_2 Ag 0.80010(6) -0.08968(6) 0.96907(4)
N16_2 N 0.7717(7) 1.0807(6) 0.9324(4)
C73 C 0.1676(11) 0.7477(9) 0.0302(6)
H73 H 0.2083 0.7269 -0.0124
H74 H 0.2091 0.7858 0.0534
H75 H 0.0919 0.7988 0.0222
C74 C 0.1564(12) 0.5354(10) 0.0414(6)
H76 H 0.1030 0.5584 0.0061
H77 H 0.1332 0.4819 0.0751
H78 H 0.2323 0.4991 0.0222
C75 C 0.1392(13) 0.6467(14) 0.1541(7)
C76 C 0.2131(12) 0.5476(11) 0.1930(7)
H79 H 0.2817 0.5645 0.2024
H80 H 0.2336 0.4820 0.1672
H81 H 0.1726 0.5310 0.2351
N17 N 0.1575(8) 0.6396(8) 0.0740(5)
O9 O 0.0721(9) 0.7360(8) 0.1774(5)
C77 C 0.1113(12) 0.1917(12) 0.0941(6)
H82 H 0.1577 0.1349 0.0655
H83 H 0.0883 0.2654 0.0679
H84 H 0.0440 0.1704 0.1123
C78 C 0.0261(10) 0.1981(10) 0.2409(5)
H85 H 0.0251 0.1202 0.2395
H86 H -0.0275 0.2488 0.2102
H87 H 0.0044 0.2199 0.2863
C79 C 0.1451(10) 0.2066(9) 0.2204(6)
C80 C 0.3093(11) 0.1993(10) 0.1292(7)
H88 H 0.3322 0.2486 0.1556
H89 H 0.3127 0.2273 0.0819
H90 H 0.3604 0.1223 0.1357
N18 N 0.1817(8) 0.1990(8) 0.1529(5)
O10 O 0.2007(7) 0.2157(7) 0.2694(4)
C81 C 0.1859(12) 0.6979(11) 0.5591(7)
H91 H 0.2055 0.7610 0.5324
H92 H 0.1919 0.6378 0.5307
H93 H 0.2379 0.6684 0.5949
C82 C -0.0400(11) 0.7527(11) 0.5496(6)
H94 H -0.0405 0.6778 0.5398
H95 H -0.0337 0.7995 0.5077
H96 H -0.1104 0.7886 0.5748
C83 C 0.0378(14) 0.7571(12) 0.6614(7)
C84 C -0.0815(10) 0.7929(11) 0.6940(6)
H97 H -0.0783 0.8079 0.7400
H98 H -0.1164 0.7323 0.6938
H99 H -0.1266 0.8616 0.6691
N19 N 0.0600(10) 0.7406(8) 0.5905(5)
O11 O 0.1300(7) 0.7551(7) 0.6880(4)
C85 C 0.5284(11) 0.5990(12) 0.2583(6)
H100 H 0.5324 0.6689 0.2317
H101 H 0.4760 0.5682 0.2391
H102 H 0.6036 0.5437 0.2583
C86 C 0.3463(10) 0.6411(10) 0.3453(6)
H103 H 0.3348 0.5687 0.3637
H104 H 0.3065 0.6680 0.3042
H105 H 0.3166 0.6966 0.3779
C87 C 0.5378(13) 0.6467(11) 0.3806(6)
C88 C 0.6660(12) 0.6302(10) 0.3724(7)
H106 H 0.6798 0.7042 0.3660
H107 H 0.6982 0.5888 0.3335
H108 H 0.7017 0.5872 0.4124
N20 N 0.4874(9) 0.6236(8) 0.3282(5)
O12 O 0.4922(7) 0.6680(6) 0.4398(4)
C89 C 0.5601(12) 0.9454(9) 0.6659(6)
H109 H 0.5135 0.9628 0.7073
H110 H 0.5144 0.9793 0.6277
H111 H 0.6241 0.9763 0.6641
C90 C 0.5827(11) 0.6353(9) 0.6957(7)
H112 H 0.6550 0.5802 0.6842
H113 H 0.5324 0.6487 0.6592
H114 H 0.5476 0.6058 0.7365
C91 C 0.6027(10) 0.7446(10) 0.7071(6)
C92 C 0.6602(13) 0.8068(13) 0.5827(7)
H115 H 0.7178 0.7334 0.5800
H116 H 0.6948 0.8675 0.5687
H117 H 0.6001 0.8130 0.5533
N21 N 0.6038(9) 0.8183(9) 0.6639(5)
O13 O 0.6098(8) 0.7528(7) 0.7689(4)
C93 C 0.0511(11) 0.2475(9) 0.8564(6)
H118 H 0.0251 0.2956 0.8931
H119 H -0.0012 0.2750 0.8207
H120 H 0.1268 0.2499 0.8393
C94 C 0.0368(11) -0.0460(9) 0.8324(6)
H121 H 0.0967 -0.0859 0.8625
H122 H 0.0571 -0.0736 0.7883
H123 H -0.0344 -0.0596 0.8503
C95 C 0.0550(11) 0.1253(10) 0.8819(6)
C96 C -0.0067(10) 0.1417(10) 0.7596(5)
H124 H -0.0770 0.2037 0.7628
H125 H -0.0167 0.0861 0.7323
H126 H 0.0544 0.1714 0.7390
N22 N 0.0222(8) 0.0875(7) 0.8263(5)
O14 O 0.0874(7) 0.0855(7) 0.9319(4)
loop_
_geom_bond_atom_site_label_1
_geom_bond_atom_site_label_2
_geom_bond_site_symmetry_1
_geom_bond_site_symmetry_2
Ag1 N1 1_555 1_555
Ag2 N2 1_555 1_555
C1 C2 1_555 1_555
C2 H1 1_555 1_555
C3 C2 1_555 1_555
H2 C3 1_555 1_555
C4 C3 1_555 1_555
H3 C4 1_555 1_555
C5 C4 1_555 1_555
H4 C5 1_555 1_555
C6 C1 1_555 1_555
C7 C8 1_555 1_555
C8 H5 1_555 1_555
C9 C8 1_555 1_555
H6 C9 1_555 1_555
H7 C9 1_555 1_555
H8 C9 1_555 1_555
C10 C11 1_555 1_555
C11 H9 1_555 1_555
C12 C11 1_555 1_555
H10 C12 1_555 1_555
C13 C12 1_555 1_555
H11 C13 1_555 1_555
C14 C13 1_555 1_555
H12 C14 1_555 1_555
C15 C10 1_555 1_555
C16 C17 1_555 1_555
C17 H13 1_555 1_555
C18 C17 1_555 1_555
H14 C18 1_555 1_555
H15 C18 1_555 1_555
H16 C18 1_555 1_555
N1 C1 1_555 1_555
N2 C6 1_555 1_555
N3 Ag2 1_555 1_555
N4 C15 1_555 1_555
O1 C8 1_555 1_555
H17 O1 1_555 1_555
O2 C17 1_555 1_555
H18 O2 1_555 1_555
Ag3 N5 1_555 1_555
Ag4 N6 1_555 1_555
C19 C20 1_555 1_555
C20 H19 1_555 1_555
C21 C20 1_555 1_555
H20 C21 1_555 1_555
C22 C21 1_555 1_555
H21 C22 1_555 1_555
C23 C22 1_555 1_555
H22 C23 1_555 1_555
C24 C19 1_555 1_555
C25 C26 1_555 1_555
C26 H23 1_555 1_555
C27 C26 1_555 1_555
H24 C27 1_555 1_555
H25 C27 1_555 1_555
H26 C27 1_555 1_555
C28 C29 1_555 1_555
C29 H27 1_555 1_555
C30 C29 1_555 1_555
H28 C30 1_555 1_555
C31 C30 1_555 1_555
H29 C31 1_555 1_555
C32 C31 1_555 1_555
H30 C32 1_555 1_555
C33 C28 1_555 1_555
C34 C35 1_555 1_555
C35 H31 1_555 1_555
C36 C35 1_555 1_555
H32 C36 1_555 1_555
H33 C36 1_555 1_555
H34 C36 1_555 1_555
N5 C19 1_555 1_555
N6 C24 1_555 1_555
N7 Ag4 1_555 1_555
N8 C33 1_555 1_555
O3 C26 1_555 1_555
H35 O3 1_555 1_555
O4 C35 1_555 1_555
H36 O4 1_555 1_555
Ag5 N9 1_555 1_555
Ag6 N10 1_555 1_555
C37 C38 1_555 1_555
C38 H37 1_555 1_555
C39 C38 1_555 1_555
H38 C39 1_555 1_555
C40 C39 1_555 1_555
H39 C40 1_555 1_555
C41 C40 1_555 1_555
H40 C41 1_555 1_555
C42 C37 1_555 1_555
C43 C44 1_555 1_555
C44 H41 1_555 1_555
C45 C44 1_555 1_555
H42 C45 1_555 1_555
H43 C45 1_555 1_555
H44 C45 1_555 1_555
C46 C47 1_555 1_555
C47 H45 1_555 1_555
C48 C47 1_555 1_555
H46 C48 1_555 1_555
C49 C48 1_555 1_555
H47 C49 1_555 1_555
C50 C49 1_555 1_555
H48 C50 1_555 1_555
C51 C46 1_555 1_555
C52 C53 1_555 1_555
C53 H49 1_555 1_555
C54 C53 1_555 1_555
H50 C54 1_555 1_555
H51 C54 1_555 1_555
H52 C54 1_555 1_555
N9 C37 1_555 1_555
N10 C42 1_555 1_555
N11 Ag6 1_555 1_555
N12 C51 1_555 1_555
O5 C44 1_555 1_555
H53 O5 1_555 1_555
O6 C53 1_555 1_555
H54 O6 1_555 1_555
Ag7 N13 1_555 1_555
Ag8 N14 1_555 1_555
C55 C56 1_555 1_555
C56 H55 1_555 1_555
C57 C56 1_555 1_555
H56 C57 1_555 1_555
C58 C57 1_555 1_555
H57 C58 1_555 1_555
C59 C58 1_555 1_555
H58 C59 1_555 1_555
C60 C55 1_555 1_555
C61 C62 1_555 1_555
C62 H59 1_555 1_555
C63 C62 1_555 1_555
H60 C63 1_555 1_555
H61 C63 1_555 1_555
H62 C63 1_555 1_555
C64 C65 1_555 1_555
C65 H63 1_555 1_555
C66 C65 1_555 1_555
H64 C66 1_555 1_555
C67 C66 1_555 1_555
H65 C67 1_555 1_555
C68 C67 1_555 1_555
H66 C68 1_555 1_555
C69 C64 1_555 1_555
C70 C71 1_555 1_555
C71 H67 1_555 1_555
C72 C71 1_555 1_555
H68 C72 1_555 1_555
H69 C72 1_555 1_555
H70 C72 1_555 1_555
N13 C55 1_555 1_555
N14 C60 1_555 1_555
N15 Ag8 1_555 1_555
N16 C69 1_555 1_555
O7 C62 1_555 1_555
H71 O7 1_555 1_555
O8 C71 1_555 1_555
H72 O8 1_555 1_555
C73 H73 1_555 1_555
H74 C73 1_555 1_555
H75 C73 1_555 1_555
C74 H76 1_555 1_555
H77 C74 1_555 1_555
H78 C74 1_555 1_555
C75 C76 1_555 1_555
C76 H79 1_555 1_555
H80 C76 1_555 1_555
H81 C76 1_555 1_555
N17 C73 1_555 1_555
O9 C75 1_555 1_555
C77 H82 1_555 1_555
H83 C77 1_555 1_555
H84 C77 1_555 1_555
C78 H85 1_555 1_555
H86 C78 1_555 1_555
H87 C78 1_555 1_555
C79 C78 1_555 1_555
C80 H88 1_555 1_555
H89 C80 1_555 1_555
H90 C80 1_555 1_555
N18 C77 1_555 1_555
O10 C79 1_555 1_555
C81 H91 1_555 1_555
H92 C81 1_555 1_555
H93 C81 1_555 1_555
C82 H94 1_555 1_555
H95 C82 1_555 1_555
H96 C82 1_555 1_555
C83 C84 1_555 1_555
C84 H97 1_555 1_555
H98 C84 1_555 1_555
H99 C84 1_555 1_555
N19 C81 1_555 1_555
O11 C83 1_555 1_555
C85 H100 1_555 1_555
H101 C85 1_555 1_555
H102 C85 1_555 1_555
C86 H103 1_555 1_555
H104 C86 1_555 1_555
H105 C86 1_555 1_555
C87 C88 1_555 1_555
C88 H106 1_555 1_555
H107 C88 1_555 1_555
H108 C88 1_555 1_555
N20 C85 1_555 1_555
O12 C87 1_555 1_555
C89 H109 1_555 1_555
H110 C89 1_555 1_555
H111 C89 1_555 1_555
C90 H112 1_555 1_555
H113 C90 1_555 1_555
H114 C90 1_555 1_555
C91 C90 1_555 1_555
C92 H115 1_555 1_555
H116 C92 1_555 1_555
H117 C92 1_555 1_555
N21 C89 1_555 1_555
O13 C91 1_555 1_555
C93 H118 1_555 1_555
H119 C93 1_555 1_555
H120 C93 1_555 1_555
C94 H121 1_555 1_555
H122 C94 1_555 1_555
H123 C94 1_555 1_555
C95 C93 1_555 1_555
C96 H124 1_555 1_555
H125 C96 1_555 1_555
H126 C96 1_555 1_555
N22 C94 1_555 1_555
O14 C95 1_555 1_555
Ag1_2 N4 1_555 1_555
N4_2 Ag1 1_555 1_555
Ag3_2 N8 1_555 1_555
N8_2 Ag3 1_555 1_555
Ag5_2 N12 1_555 1_555
N12_2 Ag5 1_555 1_555
Ag7_2 N16 1_555 1_555
N16_2 Ag7 1_555 1_555
C5 C6 1_555 1_555
C7 N1 1_555 1_555
C7 N2 1_555 1_555
C10 N3 1_555 1_555
C14 C15 1_555 1_555
C16 N3 1_555 1_555
C16 N4 1_555 1_555
C23 C24 1_555 1_555
C25 N5 1_555 1_555
C25 N6 1_555 1_555
C28 N7 1_555 1_555
C32 C33 1_555 1_555
C34 N7 1_555 1_555
C34 N8 1_555 1_555
C41 C42 1_555 1_555
C43 N9 1_555 1_555
C43 N10 1_555 1_555
C46 N11 1_555 1_555
C50 C51 1_555 1_555
C52 N11 1_555 1_555
C52 N12 1_555 1_555
C59 C60 1_555 1_555
C61 N13 1_555 1_555
C61 N14 1_555 1_555
C64 N15 1_555 1_555
C68 C69 1_555 1_555
C70 N15 1_555 1_555
C70 N16 1_555 1_555
C74 N17 1_555 1_555
C75 N17 1_555 1_555
C79 N18 1_555 1_555
C80 N18 1_555 1_555
C82 N19 1_555 1_555
C83 N19 1_555 1_555
C86 N20 1_555 1_555
C87 N20 1_555 1_555
C91 N21 1_555 1_555
C92 N21 1_555 1_555
C95 N22 1_555 1_555
C96 N22 1_555 1_555

#END
