
#######################################################################
#
#                 Cambridge Crystallographic Data Centre
#                                CCDC 
#
#######################################################################
#
# If this CIF has been generated from an entry in the Cambridge 
# Structural Database, then it will include bibliographic, chemical, 
# crystal, experimental, refinement or atomic coordinate data resulting 
# from the CCDC's data processing and validation procedures.
#
#######################################################################

data_LIVGEE
_symmetry_cell_setting           triclinic
_symmetry_space_group_name_H-M   'P 1'
_symmetry_Int_Tables_number      1
_space_group_name_Hall           'P 1'
loop_
_symmetry_equiv_pos_site_id
_symmetry_equiv_pos_as_xyz
1 x,y,z
_cell_length_a                   12.1688(3)
_cell_length_b                   12.2018(4)
_cell_length_c                   19.7929(3)
_cell_angle_alpha                83.004(2)
_cell_angle_beta                 84.406(3)
_cell_angle_gamma                72.401(2)
_cell_volume                     2774.75
loop_
_atom_site_label
_atom_site_type_symbol
_atom_site_fract_x
_atom_site_fract_y
_atom_site_fract_z
Ag1 Ag 1.29354(7) 0.03545(8) 0.63611(4)
N1 N 1.1532(8) 0.0204(9) 0.5925(5)
N2 N 1.4394(8) 0.0669(8) 0.6696(5)
C1 C 1.1365(9) -0.0277(10) 0.5351(5)
C2 C 1.0428(11) 0.0454(11) 0.6252(6)
C3 C 1.2176(11) -0.0754(11) 0.4812(6)
C4 C 1.0217(11) -0.0278(11) 0.5324(6)
C5 C 1.0102(11) 0.1129(12) 0.6857(7)
N3 N 0.9621(8) 0.0179(9) 0.5935(5)
H1 H 1.2957 -0.0825 0.4820
C6 C 1.1780(11) -0.1083(12) 0.4311(7)
C7 C 0.9863(11) -0.0685(10) 0.4795(5)
H2 H 0.9400 0.0984 0.7085
C8 C 0.9839(11) 0.2386(11) 0.6658(6)
O1 O 1.1022(7) 0.0692(8) 0.7332(4)
Ag2 Ag 0.79265(7) 0.04247(8) 0.62393(4)
H3 H 1.2315 -0.1367 0.3958
C9 C 1.0624(11) -0.1058(11) 0.4242(7)
H4 H 0.9106 -0.0713 0.4806
H5 H 0.9072 0.2771 0.6832
H6 H 0.9891 0.2526 0.6170
H7 H 1.0385 0.2675 0.6844
H8 H 1.0842 0.1051 0.7688
N4 N 0.6213(8) 0.0719(9) 0.6637(4)
H9 H 1.0393 -0.1273 0.3857
C10 C 0.5784(10) 0.0837(12) 0.7288(7)
C11 C 0.5376(10) 0.0586(10) 0.6296(5)
C12 C 0.6262(10) 0.0996(10) 0.7873(6)
C13 C 0.4674(9) 0.0761(12) 0.7324(6)
C14 C 0.5451(12) 0.0552(10) 0.5551(6)
H10 H 0.7029 0.0992 0.7859
C15 C 0.5583(11) 0.1154(11) 0.8456(6)
C16 C 0.3930(12) 0.0895(12) 0.7938(6)
H11 H 0.4679 0.0902 0.5383
C17 C 0.5918(11) -0.0688(10) 0.5351(6)
O2 O 0.6203(7) 0.1138(7) 0.5210(4)
H12 H 0.5868 0.1312 0.8841
C18 C 0.4445(12) 0.1081(11) 0.8484(6)
H13 H 0.3174 0.0860 0.7963
H14 H 0.6231 -0.1199 0.5739
H15 H 0.6514 -0.0725 0.4991
H16 H 0.5303 -0.0915 0.5197
H17 H 0.5806 0.1772 0.5012
H18 H 0.4015 0.1165 0.8899
N2_2 N 0.4394(8) 0.0669(8) 0.6696(5)
Ag1_2 Ag 0.29354(7) 0.03545(8) 0.63611(4)
Ag3 Ag 1.22968(7) 0.63845(8) 0.52237(4)
Ag4 Ag 0.73065(7) 0.63062(7) 0.53338(4)
C19 C 1.0639(10) 0.5899(9) 0.4284(5)
C20 C 1.1417(11) 0.5618(11) 0.3717(6)
H19 H 1.2189 0.5585 0.3725
C21 C 1.1003(12) 0.5399(12) 0.3165(6)
H20 H 1.1471 0.5330 0.2763
C22 C 0.9892(11) 0.5268(11) 0.3159(6)
H21 H 0.9691 0.4988 0.2787
C23 C 0.9086(13) 0.5562(11) 0.3721(7)
H22 H 0.8324 0.5554 0.3722
C24 C 0.9524(11) 0.5869(10) 0.4276(6)
C25 C 0.9764(10) 0.6354(11) 0.5247(6)
C26 C 0.9585(10) 0.6622(11) 0.5973(6)
H23 H 1.0117 0.7047 0.6057
C27 C 0.9762(12) 0.5564(11) 0.6472(6)
H24 H 0.9243 0.5740 0.6868
H25 H 1.0544 0.5316 0.6604
H26 H 0.9610 0.4959 0.6263
C28 C 0.5057(10) 0.6894(10) 0.6252(5)
C29 C 0.5360(12) 0.7262(11) 0.6830(6)
H27 H 0.6127 0.7209 0.6882
C30 C 0.4550(10) 0.7686(11) 0.7300(6)
H28 H 0.4762 0.7967 0.7668
C31 C 0.3359(13) 0.7738(11) 0.7278(7)
H29 H 0.2836 0.8000 0.7640
C32 C 0.2991(11) 0.7408(10) 0.6731(6)
H30 H 0.2214 0.7494 0.6687
C33 C 0.3863(11) 0.6924(11) 0.6231(6)
C34 C 0.4825(11) 0.6197(10) 0.5342(6)
C35 C 0.5168(10) 0.5676(10) 0.4658(6)
H31 H 0.5977 0.5198 0.4652
C36 C 0.5011(11) 0.6619(11) 0.4069(6)
H32 H 0.5502 0.6326 0.3681
H33 H 0.5210 0.7263 0.4200
H34 H 0.4220 0.6865 0.3952
N5 N 1.0803(8) 0.6180(9) 0.4928(5)
N6 N 0.8953(9) 0.6125(10) 0.4912(5)
N7 N 0.5612(7) 0.6428(7) 0.5685(4)
N8 N 0.3757(8) 0.6489(9) 0.5629(5)
O3 O 0.8454(7) 0.7326(8) 0.6061(4)
H35 H 0.8458 0.7934 0.6228
O4 O 0.4448(7) 0.4989(7) 0.4564(4)
H36 H 0.4683 0.4338 0.4795
Ag3_2 Ag 0.22968(7) 0.63845(8) 0.52237(4)
N8_2 N 1.3757(8) 0.6489(9) 0.5629(5)
Ag5 Ag 0.62190(8) 0.24963(7) 0.14348(4)
Ag6 Ag 0.62805(8) 0.75000(7) 0.13251(4)
C37 C 0.5515(12) 0.4815(10) 0.0454(6)
C38 C 0.5122(11) 0.4415(11) -0.0076(6)
H37 H 0.5060 0.3669 -0.0043
C39 C 0.4825(12) 0.5170(13) -0.0656(7)
H38 H 0.4572 0.4930 -0.1025
C40 C 0.4905(10) 0.6265(12) -0.0687(6)
H39 H 0.4746 0.6738 -0.1092
C41 C 0.5206(10) 0.6709(10) -0.0153(6)
H40 H 0.5155 0.7487 -0.0166
C42 C 0.5595(9) 0.5928(10) 0.0412(5)
C43 C 0.6271(13) 0.5003(13) 0.1346(7)
C44 C 0.6924(12) 0.4684(13) 0.1992(6)
H41 H 0.6661 0.5329 0.2277
C45 C 0.8180(11) 0.4494(11) 0.1781(7)
H42 H 0.8636 0.4101 0.2157
H43 H 0.8321 0.5226 0.1650
H44 H 0.8388 0.4034 0.1402
C46 C 0.6743(11) 0.9075(12) 0.2351(6)
C47 C 0.6965(11) 0.8302(12) 0.2933(6)
H45 H 0.6964 0.7543 0.2922
C48 C 0.7189(11) 0.8664(12) 0.3531(6)
H46 H 0.7338 0.8146 0.3920
C49 C 0.7192(11) 0.9799(11) 0.3547(6)
H47 H 0.7342 1.0040 0.3947
C50 C 0.6970(11) 1.0572(11) 0.2965(5)
H48 H 0.6972 1.1331 0.2975
C51 C 0.6746(9) 1.0210(9) 0.2367(5)
C52 C 0.6407(10) 0.9985(12) 0.1349(6)
C53 C 0.6226(11) 1.0169(10) 0.0629(6)
H49 H 0.6416 1.0876 0.0441
C54 C 0.4957(11) 1.0326(11) 0.0508(6)
H50 H 0.4874 1.0355 0.0028
H51 H 0.4480 1.1033 0.0676
H52 H 0.4726 0.9688 0.0743
N9 N 0.5965(8) 0.4219(8) 0.1041(5)
N10 N 0.6043(8) 0.6012(8) 0.1018(5)
N11 N 0.6544(9) 0.8928(9) 0.1704(5)
N12 N 0.6536(9) 1.0765(8) 0.1743(5)
O5 O 0.6731(8) 0.3733(8) 0.2346(4)
H53 H 0.7077 0.3585 0.2714
O6 O 0.6946(8) 0.9229(7) 0.0270(4)
H54 H 0.7653 0.9140 0.0324
Ag5_2 Ag 0.62190(8) 1.24963(7) 0.14348(4)
N12_2 N 0.6536(9) 0.0765(8) 0.1743(5)
Ag7 Ag 0.19992(7) 0.09007(7) 0.03108(4)
Ag8 Ag 0.23657(8) 0.57808(7) 0.03024(4)
C55 C 0.1625(11) 0.3166(11) -0.0692(6)
C56 C 0.1361(10) 0.2788(10) -0.1258(6)
H55 H 0.1277 0.2053 -0.1249
C57 C 0.1221(11) 0.3553(11) -0.1857(7)
H56 H 0.1037 0.3339 -0.2257
C58 C 0.1360(12) 0.4621(13) -0.1837(7)
H57 H 0.1224 0.5127 -0.2232
C59 C 0.1686(12) 0.5016(12) -0.1283(6)
H58 H 0.1831 0.5725 -0.1299
C60 C 0.1771(10) 0.4258(11) -0.0714(6)
C61 C 0.2014(11) 0.3414(11) 0.0328(7)
C62 C 0.2279(11) 0.3106(11) 0.1063(6)
H59 H 0.2622 0.2271 0.1160
C63 C 0.1194(12) 0.3518(11) 0.1477(7)
H60 H 0.1332 0.3301 0.1951
H61 H 0.0636 0.3178 0.1353
H62 H 0.0905 0.4344 0.1399
C64 C 0.2812(10) 0.7357(10) 0.1245(6)
C65 C 0.3275(11) 0.6553(11) 0.1762(6)
H63 H 0.3301 0.5784 0.1758
C66 C 0.3723(11) 0.6920(12) 0.2314(6)
H64 H 0.4056 0.6385 0.2668
C67 C 0.3656(11) 0.8053(12) 0.2317(6)
H65 H 0.3916 0.8260 0.2695
C68 C 0.3232(11) 0.8937(10) 0.1802(5)
H66 H 0.3215 0.9700 0.1819
C69 C 0.2844(10) 0.8557(10) 0.1268(6)
C70 C 0.2064(12) 0.8420(13) 0.0340(6)
C71 C 0.1452(11) 0.8670(10) -0.0332(6)
H67 H 0.1155 0.8034 -0.0405
C72 C 0.2359(10) 0.8843(10) -0.0912(5)
H68 H 0.1976 0.9179 -0.1323
H69 H 0.2906 0.8110 -0.0991
H70 H 0.2755 0.9349 -0.0782
N13 N 0.1825(9) 0.2647(9) -0.0033(5)
N14 N 0.2085(8) 0.4331(7) -0.0026(4)
N15 N 0.2386(8) 0.7302(8) 0.0648(4)
N16 N 0.2292(8) 0.9189(7) 0.0665(5)
O7 O 0.3065(9) 0.3725(8) 0.1190(4)
H71 H 0.3433 0.3557 0.1551
O8 O 0.0543(7) 0.9732(6) -0.0311(4)
H72 H 0.0004 0.9611 -0.0033
Ag7_2 Ag 0.19992(7) 1.09007(7) 0.03108(4)
N16_2 N 0.2292(8) -0.0811(7) 0.0665(5)
C73 C 0.8348(12) 0.2526(12) 0.9646(7)
H73 H 0.7836 0.2222 0.9439
H74 H 0.8043 0.2704 1.0099
H75 H 0.9094 0.1963 0.9668
C74 C 0.8464(11) 0.4635(12) 0.9562(7)
H76 H 0.8712 0.5164 0.9226
H77 H 0.8985 0.4404 0.9922
H78 H 0.7700 0.5006 0.9745
C75 C 0.8635(14) 0.3545(15) 0.8465(7)
C76 C 0.7983(14) 0.4512(13) 0.8047(8)
H79 H 0.8394 0.4568 0.7611
H80 H 0.7870 0.5205 0.8263
H81 H 0.7247 0.4414 0.7986
N17 N 0.8457(10) 0.3590(10) 0.9235(6)
O9 O 0.9297(10) 0.2653(10) 0.8234(6)
C77 C 0.8187(14) 0.2983(14) 0.4453(7)
H82 H 0.7662 0.3428 0.4120
H83 H 0.8187 0.3451 0.4809
H84 H 0.7947 0.2324 0.4644
C78 C 1.0428(13) 0.2457(13) 0.4512(7)
H85 H 1.1116 0.1963 0.4304
H86 H 1.0290 0.2131 0.4967
H87 H 1.0523 0.3206 0.4528
C79 C 0.9575(13) 0.2393(13) 0.3390(7)
C80 C 1.0823(14) 0.2058(13) 0.3137(7)
H88 H 1.0881 0.1996 0.2656
H89 H 1.1222 0.1327 0.3368
H90 H 1.1164 0.2635 0.3227
N18 N 0.9430(12) 0.2569(10) 0.4105(6)
O10 O 0.8718(9) 0.2444(8) 0.3100(5)
C81 C 0.4709(11) 0.4077(12) 0.7425(6)
H91 H 0.4776 0.4827 0.7474
H92 H 0.5142 0.3521 0.7760
H93 H 0.3912 0.4096 0.7487
C82 C 0.6499(11) 0.3594(14) 0.6531(7)
H94 H 0.6734 0.3160 0.6141
H95 H 0.6948 0.3189 0.6906
H96 H 0.6618 0.4340 0.6422
C83 C 0.4662(11) 0.3562(12) 0.6199(6)
C84 C 0.3333(11) 0.3680(11) 0.6281(6)
H97 H 0.2939 0.4260 0.5943
H98 H 0.3032 0.3899 0.6728
H99 H 0.3218 0.2954 0.6223
N19 N 0.5169(9) 0.3748(10) 0.6734(5)
O11 O 0.5057(8) 0.3319(8) 0.5600(4)
C85 C 0.4537(14) 0.0497(12) 0.3329(7)
H100 H 0.3943 0.0146 0.3287
H101 H 0.4956 0.0132 0.3723
H102 H 0.5057 0.0404 0.2928
C86 C 0.4211(13) 0.3662(13) 0.3041(8)
H103 H 0.4710 0.3895 0.2683
H104 H 0.4564 0.3542 0.3468
H105 H 0.3484 0.4254 0.3067
C87 C 0.4021(11) 0.2575(12) 0.2895(7)
C88 C 0.3419(13) 0.2006(13) 0.4167(7)
H106 H 0.2869 0.2761 0.4158
H107 H 0.4012 0.1959 0.4465
H108 H 0.3035 0.1434 0.4329
N20 N 0.3991(10) 0.1780(11) 0.3406(5)
O12 O 0.3882(8) 0.2471(9) 0.2303(5)
C89? C 0.8842(14) 0.8086(14) 0.9084(7)
H109? H 0.9602 0.8120 0.8921
H110? H 0.8903 0.7402 0.9392
H111? H 0.8449 0.8755 0.9317
C90? C 0.9707(11) 0.8023(11) 0.7577(7)
H112? H 0.9964 0.7692 0.7152
H113? H 1.0227 0.7611 0.7920
H114? H 0.9693 0.8820 0.7520
C91? C 0.8163(13) 0.8054(12) 0.8479(7)
C92? C 0.6899(12) 0.8030(13) 0.8720(7)
H115? H 0.6852 0.7824 0.9203
H116? H 0.6705 0.7472 0.8489
H117? H 0.6368 0.8780 0.8614
N21? N 0.8523(9) 0.7940(9) 0.7790(5)
O13? O 0.7969(7) 0.7826(7) 0.7305(4)
C93? C 0.9502(14) 0.7514(13) 0.1430(8)
H118? H 0.8793 0.7474 0.1676
H119? H 1.0129 0.7202 0.1724
H120? H 0.9639 0.7074 0.1044
C94? C 0.9640(12) 1.0482(12) 0.1712(7)
H121? H 1.0368 1.0613 0.1565
H122? H 0.9396 1.0743 0.2156
H123? H 0.9074 1.0900 0.1395
C95? C 0.9772(12) 0.9154(12) 0.1746(7)
C96? C 1.0017(11) 0.8510(13) 0.2416(7)
H124? H 0.9967 0.9040 0.2747
H125? H 1.0781 0.7978 0.2394
H126? H 0.9464 0.8092 0.2546
N22? N 0.9417(10) 0.8754(10) 0.1190(5)
O14? O 0.9102(8) 0.9181(9) 0.0652(5)
loop_
_geom_bond_atom_site_label_1
_geom_bond_atom_site_label_2
_geom_bond_site_symmetry_1
_geom_bond_site_symmetry_2
Ag1 N1 1_555 1_555
N1 C1 1_555 1_555
N2 Ag1 1_555 1_555
C1 C3 1_555 1_555
C2 N1 1_555 1_555
C3 H1 1_555 1_555
C4 C1 1_555 1_555
C5 C2 1_555 1_555
N3 C2 1_555 1_555
C6 C3 1_555 1_555
C7 C4 1_555 1_555
H2 C5 1_555 1_555
C8 C5 1_555 1_555
O1 C5 1_555 1_555
Ag2 N3 1_555 1_555
H3 C6 1_555 1_555
C9 C6 1_555 1_555
H4 C7 1_555 1_555
H5 C8 1_555 1_555
H6 C8 1_555 1_555
H7 C8 1_555 1_555
H8 O1 1_555 1_555
N4 Ag2 1_555 1_555
H9 C9 1_555 1_555
C10 N4 1_555 1_555
C11 N4 1_555 1_555
C12 C10 1_555 1_555
C13 C10 1_555 1_555
C14 C11 1_555 1_555
H10 C12 1_555 1_555
C15 C12 1_555 1_555
C16 C13 1_555 1_555
H11 C14 1_555 1_555
C17 C14 1_555 1_555
O2 C14 1_555 1_555
H12 C15 1_555 1_555
C18 C15 1_555 1_555
H13 C16 1_555 1_555
H14 C17 1_555 1_555
H15 C17 1_555 1_555
H16 C17 1_555 1_555
H17 O2 1_555 1_555
H18 C18 1_555 1_555
Ag3 N5 1_555 1_555
Ag4 N6 1_555 1_555
C19 C20 1_555 1_555
C20 H19 1_555 1_555
C21 C20 1_555 1_555
H20 C21 1_555 1_555
C22 C21 1_555 1_555
H21 C22 1_555 1_555
C23 C22 1_555 1_555
H22 C23 1_555 1_555
C24 C19 1_555 1_555
C25 C26 1_555 1_555
C26 H23 1_555 1_555
C27 C26 1_555 1_555
H24 C27 1_555 1_555
H25 C27 1_555 1_555
H26 C27 1_555 1_555
C28 C29 1_555 1_555
C29 H27 1_555 1_555
C30 C29 1_555 1_555
H28 C30 1_555 1_555
C31 C30 1_555 1_555
H29 C31 1_555 1_555
C32 C31 1_555 1_555
H30 C32 1_555 1_555
C33 C28 1_555 1_555
C34 C35 1_555 1_555
C35 H31 1_555 1_555
C36 C35 1_555 1_555
H32 C36 1_555 1_555
H33 C36 1_555 1_555
H34 C36 1_555 1_555
N5 C19 1_555 1_555
N6 C24 1_555 1_555
N7 Ag4 1_555 1_555
N8 C33 1_555 1_555
O3 C26 1_555 1_555
H35 O3 1_555 1_555
O4 C35 1_555 1_555
H36 O4 1_555 1_555
Ag5 N9 1_555 1_555
Ag6 N10 1_555 1_555
C37 C38 1_555 1_555
C38 H37 1_555 1_555
C39 C38 1_555 1_555
H38 C39 1_555 1_555
C40 C39 1_555 1_555
H39 C40 1_555 1_555
C41 C40 1_555 1_555
H40 C41 1_555 1_555
C42 C37 1_555 1_555
C43 C44 1_555 1_555
C44 H41 1_555 1_555
C45 C44 1_555 1_555
H42 C45 1_555 1_555
H43 C45 1_555 1_555
H44 C45 1_555 1_555
C46 C47 1_555 1_555
C47 H45 1_555 1_555
C48 C47 1_555 1_555
H46 C48 1_555 1_555
C49 C48 1_555 1_555
H47 C49 1_555 1_555
C50 C49 1_555 1_555
H48 C50 1_555 1_555
C51 C46 1_555 1_555
C52 C53 1_555 1_555
C53 H49 1_555 1_555
C54 C53 1_555 1_555
H50 C54 1_555 1_555
H51 C54 1_555 1_555
H52 C54 1_555 1_555
N9 C37 1_555 1_555
N10 C42 1_555 1_555
N11 Ag6 1_555 1_555
N12 C51 1_555 1_555
O5 C44 1_555 1_555
H53 O5 1_555 1_555
O6 C53 1_555 1_555
H54 O6 1_555 1_555
Ag7 N13 1_555 1_555
Ag8 N14 1_555 1_555
C55 C56 1_555 1_555
C56 H55 1_555 1_555
C57 C56 1_555 1_555
H56 C57 1_555 1_555
C58 C57 1_555 1_555
H57 C58 1_555 1_555
C59 C58 1_555 1_555
H58 C59 1_555 1_555
C60 C55 1_555 1_555
C61 C62 1_555 1_555
C62 H59 1_555 1_555
C63 C62 1_555 1_555
H60 C63 1_555 1_555
H61 C63 1_555 1_555
H62 C63 1_555 1_555
C64 C65 1_555 1_555
C65 H63 1_555 1_555
C66 C65 1_555 1_555
H64 C66 1_555 1_555
C67 C66 1_555 1_555
H65 C67 1_555 1_555
C68 C67 1_555 1_555
H66 C68 1_555 1_555
C69 C64 1_555 1_555
C70 C71 1_555 1_555
C71 H67 1_555 1_555
C72 C71 1_555 1_555
H68 C72 1_555 1_555
H69 C72 1_555 1_555
H70 C72 1_555 1_555
N13 C55 1_555 1_555
N14 C60 1_555 1_555
N15 Ag8 1_555 1_555
N16 C69 1_555 1_555
O7 C62 1_555 1_555
H71 O7 1_555 1_555
O8 C71 1_555 1_555
H72 O8 1_555 1_555
C73 H73 1_555 1_555
H74 C73 1_555 1_555
H75 C73 1_555 1_555
C74 H76 1_555 1_555
H77 C74 1_555 1_555
H78 C74 1_555 1_555
C75 C76 1_555 1_555
C76 H79 1_555 1_555
H80 C76 1_555 1_555
H81 C76 1_555 1_555
N17 C73 1_555 1_555
O9 C75 1_555 1_555
C77 H82 1_555 1_555
H83 C77 1_555 1_555
H84 C77 1_555 1_555
C78 H85 1_555 1_555
H86 C78 1_555 1_555
H87 C78 1_555 1_555
C79 C80 1_555 1_555
C80 H88 1_555 1_555
H89 C80 1_555 1_555
H90 C80 1_555 1_555
N18 C77 1_555 1_555
O10 C79 1_555 1_555
C81 H91 1_555 1_555
H92 C81 1_555 1_555
H93 C81 1_555 1_555
C82 H94 1_555 1_555
H95 C82 1_555 1_555
H96 C82 1_555 1_555
C83 C84 1_555 1_555
C84 H97 1_555 1_555
H98 C84 1_555 1_555
H99 C84 1_555 1_555
N19 C81 1_555 1_555
O11 C83 1_555 1_555
C85 H100 1_555 1_555
H101 C85 1_555 1_555
H102 C85 1_555 1_555
C86 H103 1_555 1_555
H104 C86 1_555 1_555
H105 C86 1_555 1_555
C87 C86 1_555 1_555
C88 H106 1_555 1_555
H107 C88 1_555 1_555
H108 C88 1_555 1_555
N20 C85 1_555 1_555
O12 C87 1_555 1_555
N2_2 C11 1_555 1_555
Ag1_2 N2_2 1_555 1_555
Ag3_2 N8 1_555 1_555
N8_2 Ag3 1_555 1_555
Ag5_2 N12 1_555 1_555
N12_2 Ag5 1_555 1_555
Ag7_2 N16 1_555 1_555
N16_2 Ag7 1_555 1_555
C4 N3 1_555 1_555
C7 C9 1_555 1_555
C13 N2_2 1_555 1_555
C16 C18 1_555 1_555
C23 C24 1_555 1_555
C25 N5 1_555 1_555
C25 N6 1_555 1_555
C28 N7 1_555 1_555
C32 C33 1_555 1_555
C34 N7 1_555 1_555
C34 N8 1_555 1_555
C41 C42 1_555 1_555
C43 N9 1_555 1_555
C43 N10 1_555 1_555
C46 N11 1_555 1_555
C50 C51 1_555 1_555
C52 N11 1_555 1_555
C52 N12 1_555 1_555
C59 C60 1_555 1_555
C61 N13 1_555 1_555
C61 N14 1_555 1_555
C64 N15 1_555 1_555
C68 C69 1_555 1_555
C70 N15 1_555 1_555
C70 N16 1_555 1_555
C74 N17 1_555 1_555
C75 N17 1_555 1_555
C78 N18 1_555 1_555
C79 N18 1_555 1_555
C82 N19 1_555 1_555
C83 N19 1_555 1_555
C87 N20 1_555 1_555
C88 N20 1_555 1_555

#END
