
#######################################################################
#
#                 Cambridge Crystallographic Data Centre
#                                CCDC 
#
#######################################################################
#
# If this CIF has been generated from an entry in the Cambridge 
# Structural Database, then it will include bibliographic, chemical, 
# crystal, experimental, refinement or atomic coordinate data resulting 
# from the CCDC's data processing and validation procedures.
#
#######################################################################

data_LIVGUU
_symmetry_cell_setting           orthorhombic
_symmetry_space_group_name_H-M   'P b c a'
_symmetry_Int_Tables_number      61
_space_group_name_Hall           '-P 2ac 2ab'
loop_
_symmetry_equiv_pos_site_id
_symmetry_equiv_pos_as_xyz
1 x,y,z
2 1/2-x,-y,1/2+z
3 -x,1/2+y,1/2-z
4 1/2+x,1/2-y,-z
5 -x,-y,-z
6 1/2+x,y,1/2-z
7 x,1/2-y,1/2+z
8 1/2-x,1/2+y,z
_cell_length_a                   17.928(3)
_cell_length_b                   9.4592(14)
_cell_length_c                   34.521(5)
_cell_angle_alpha                90
_cell_angle_beta                 90
_cell_angle_gamma                90
_cell_volume                     5854.23
loop_
_atom_site_label
_atom_site_type_symbol
_atom_site_fract_x
_atom_site_fract_y
_atom_site_fract_z
Gd1 Gd 0.74019(3) 0.16455(5) 0.118787(12)
Ag1 Ag 0.84403(7) 0.43083(13) 0.37070(3)
Ag2 Ag 0.53542(7) 0.22647(15) 0.08049(3)
S1 S 0.59620(13) 0.4329(2) 0.14750(7)
O1 O 0.3674(5) -0.0384(8) -0.0898(2)
O2 O 0.6257(4) 0.3004(8) 0.1306(2)
O3 O 0.7660(4) 0.3025(8) 0.1735(2)
O4 O 0.7870(4) 0.0071(8) 0.07334(18)
O5 O 0.5288(4) 0.4754(9) 0.1280(2)
O6 O 0.6528(4) 0.5442(7) 0.15074(19)
C1 C 0.5713(5) 0.3893(10) 0.1956(3)
C2 C 0.7965(5) -0.0910(10) 0.0500(3)
C3 C 0.8124(5) -0.0555(10) 0.0082(2)
C4 C 0.8266(6) -0.1565(10) -0.0198(3)
H1 H 0.8275 -0.2517 -0.0130
O7 O 0.7945(5) -0.2208(8) 0.05809(19)
C5 C 0.8394(7) -0.1182(13) -0.0573(3)
H2 H 0.8490 -0.1883 -0.0755
C6 C 0.5209(6) 0.3262(11) 0.2705(3)
C7 C 0.5849(5) 0.4164(10) 0.2651(3)
C8 C 0.6075(5) 0.4468(10) 0.2266(3)
H3 H 0.6476 0.5071 0.2224
C9 C 0.4863(6) 0.2669(11) 0.2376(3)
H4 H 0.4461 0.2062 0.2412
C10 C 0.6204(6) 0.4770(11) 0.2977(3)
H5 H 0.6628 0.5323 0.2944
C11 C 0.5923(7) 0.4542(12) 0.3342(3)
S2 S 0.6339(2) 0.5419(3) 0.37480(8)
N1 N 0.8335(5) 0.4254(9) 0.3089(2)
C12 C 0.7810(6) 0.3132(11) 0.2532(3)
H6 H 0.7537 0.2389 0.2426
C13 C 0.8521(6) 0.5234(11) 0.2456(3)
H7 H 0.8725 0.5942 0.2302
C14 C 0.8630(6) 0.5237(13) 0.2858(3)
H8 H 0.8918 0.5951 0.2968
C15 C 0.7924(7) 0.3213(12) 0.2925(3)
H9 H 0.7710 0.2529 0.3084
C16 C 0.8107(6) 0.4167(10) 0.2294(3)
C17 C 0.7947(5) 0.4146(10) 0.1866(3)
O8 O 0.8091(4) 0.5242(7) 0.16790(19)
N2 N 0.8385(5) 0.0168(10) -0.0687(2)
C18 C 0.8117(6) 0.0862(10) -0.0042(3)
H10 H 0.8026 0.1589 0.0134
C19 C 0.8245(7) 0.1153(12) -0.0426(3)
H11 H 0.8233 0.2091 -0.0506
C20 C 0.3712(7) 0.0980(12) -0.0835(3)
O9 O 0.5823(7) 0.6575(11) 0.3833(3)
O10 O 0.6359(7) 0.4397(11) 0.4054(3)
O11 O 0.7049(6) 0.5989(12) 0.3617(3)
C21 C 0.5097(6) 0.2951(11) 0.2007(3)
H12 H 0.4861 0.2542 0.1794
N3 N 0.4794(6) 0.2089(11) 0.0230(3)
C22 C 0.3988(7) 0.0521(13) -0.0129(4)
H13 H 0.3683 -0.0274 -0.0136
C23 C 0.4563(7) 0.2574(14) -0.0437(4)
H14 H 0.4634 0.3191 -0.0644
C24 C 0.4329(7) 0.0936(14) 0.0202(4)
H15 H 0.4244 0.0408 0.0425
C25 C 0.4892(7) 0.2804(17) -0.0083(4)
H16 H 0.5223 0.3560 -0.0068
O12 O 0.3454(5) 0.1995(8) -0.1021(2)
C26 C 0.5293(8) 0.3683(13) 0.3394(4)
H17 H 0.5108 0.3538 0.3643
C27 C 0.4939(7) 0.3044(13) 0.3082(4)
H18 H 0.4524 0.2472 0.3123
C28 C 0.4118(7) 0.1374(12) -0.0472(3)
Gd1C Gd 0.24019(3) 0.33545(5) -0.118787(12)
Gd1D Gd 0.25981(3) -0.16455(5) -0.118787(12)
Gd1G Gd 0.75981(3) -0.33545(5) 0.118787(12)
Gd1G_2 Gd 0.75981(3) 0.66455(5) 0.118787(12)
Ag1F Ag 0.84403(7) 0.06917(13) -0.12930(3)
Ag2B Ag 0.46458(7) 0.72647(15) 0.41951(3)
Ag2D Ag 0.46458(7) -0.22647(15) -0.08049(3)
O1D O 0.6326(5) 0.0384(8) 0.0898(2)
O6G O 0.8472(4) 0.0442(7) 0.15074(19)
O7G O 0.7055(5) 0.2792(8) 0.05809(19)
O8G O 0.6909(4) 0.0242(7) 0.16790(19)
N2F N 0.8385(5) 0.4832(10) 0.4313(2)
O9B O 0.4177(7) 0.1575(11) 0.1167(3)
O12C O 0.8454(5) 0.3005(8) 0.1021(2)
loop_
_geom_bond_atom_site_label_1
_geom_bond_atom_site_label_2
_geom_bond_site_symmetry_1
_geom_bond_site_symmetry_2
Gd1 O2 1_555 1_555
Ag1 N1 1_555 1_555
Ag2 O2 1_555 1_555
S1 O2 1_555 1_555
O1 C20 1_555 1_555
O3 Gd1 1_555 1_555
O4 Gd1 1_555 1_555
O5 S1 1_555 1_555
O6 S1 1_555 1_555
C1 S1 1_555 1_555
C2 O4 1_555 1_555
C3 C2 1_555 1_555
C4 C3 1_555 1_555
H1 C4 1_555 1_555
O7 C2 1_555 1_555
C5 C4 1_555 1_555
H2 C5 1_555 1_555
C6 C7 1_555 1_555
C7 C8 1_555 1_555
C8 C1 1_555 1_555
H3 C8 1_555 1_555
C9 C6 1_555 1_555
H4 C9 1_555 1_555
C10 C7 1_555 1_555
H5 C10 1_555 1_555
C11 C10 1_555 1_555
S2 C11 1_555 1_555
N1 C14 1_555 1_555
C12 H6 1_555 1_555
C13 H7 1_555 1_555
C14 C13 1_555 1_555
H8 C14 1_555 1_555
C15 N1 1_555 1_555
H9 C15 1_555 1_555
C16 C12 1_555 1_555
C17 O3 1_555 1_555
O8 C17 1_555 1_555
N2 C5 1_555 1_555
C18 C3 1_555 1_555
H10 C18 1_555 1_555
C19 N2 1_555 1_555
H11 C19 1_555 1_555
C20 O12 1_555 1_555
O9 S2 1_555 1_555
O10 S2 1_555 1_555
O11 S2 1_555 1_555
C21 C1 1_555 1_555
H12 C21 1_555 1_555
N3 Ag2 1_555 1_555
C22 H13 1_555 1_555
C23 H14 1_555 1_555
C24 N3 1_555 1_555
H15 C24 1_555 1_555
C25 N3 1_555 1_555
H16 C25 1_555 1_555
O12 Gd1C 1_555 1_555
C26 C11 1_555 1_555
H17 C26 1_555 1_555
C27 C6 1_555 1_555
H18 C27 1_555 1_555
C28 C20 1_555 1_555
Gd1D O1 1_555 1_555
Gd1G O7 1_555 1_555
Gd1G_2 O6 1_555 1_555
Ag1F N2 1_555 1_555
Ag2B O9 1_555 1_555
Ag2D O1 1_555 1_555
O1D Gd1 1_555 1_555
O6G Gd1 1_555 1_555
O7G Gd1 1_555 1_555
O8G Gd1 1_555 1_555
N2F Ag1 1_555 1_555
O9B Ag2 1_555 1_555
O12C Gd1 1_555 1_555
Ag2 O1D 1_555 1_555
C9 C21 1_555 1_555
C12 C15 1_555 1_555
C13 C16 1_555 1_555
C16 C17 1_555 1_555
O8 Gd1G_2 1_555 1_555
C18 C19 1_555 1_555
C22 C24 1_555 1_555
C22 C28 1_555 1_555
C23 C25 1_555 1_555
C23 C28 1_555 1_555
C26 C27 1_555 1_555

#END
