
#######################################################################
#
#                 Cambridge Crystallographic Data Centre
#                                CCDC 
#
#######################################################################
#
# If this CIF has been generated from an entry in the Cambridge 
# Structural Database, then it will include bibliographic, chemical, 
# crystal, experimental, refinement or atomic coordinate data resulting 
# from the CCDC's data processing and validation procedures.
#
#######################################################################

data_LIVHIJ
_symmetry_cell_setting           orthorhombic
_symmetry_space_group_name_H-M   'P b c a'
_symmetry_Int_Tables_number      61
_space_group_name_Hall           '-P 2ac 2ab'
loop_
_symmetry_equiv_pos_site_id
_symmetry_equiv_pos_as_xyz
1 x,y,z
2 1/2-x,-y,1/2+z
3 -x,1/2+y,1/2-z
4 1/2+x,1/2-y,-z
5 -x,-y,-z
6 1/2+x,y,1/2-z
7 x,1/2-y,1/2+z
8 1/2-x,1/2+y,z
_cell_length_a                   17.8453(18)
_cell_length_b                   9.5012(10)
_cell_length_c                   34.507(4)
_cell_angle_alpha                90
_cell_angle_beta                 90
_cell_angle_gamma                90
_cell_volume                     5850.72
loop_
_atom_site_label
_atom_site_type_symbol
_atom_site_fract_x
_atom_site_fract_y
_atom_site_fract_z
Ag1 Ag 0.15516(6) 0.07137(11) 0.37110(2)
Ag2 Ag -0.03472(7) 0.22267(14) -0.08093(3)
C1 C 0.4156(5) 0.0844(8) 0.2655(2)
C2 C 0.3926(4) 0.0540(9) 0.2272(2)
H1 H 0.3522 -0.0057 0.2229
C3 C 0.4298(4) 0.1122(9) 0.1962(2)
C4 C 0.4903(5) 0.2067(10) 0.2024(3)
H2 H 0.5140 0.2487 0.1814
C5 C 0.5134(5) 0.2356(9) 0.2385(3)
H3 H 0.5531 0.2978 0.2421
C6 C 0.4787(5) 0.1731(9) 0.2715(3)
C7 C 0.5045(6) 0.1978(11) 0.3096(3)
H4 H 0.5451 0.2572 0.3138
C8 C 0.4697(6) 0.1342(12) 0.3405(3)
H5 H 0.4879 0.1484 0.3655
C9 C 0.4062(5) 0.0467(10) 0.3346(2)
C10 C 0.3798(5) 0.0229(9) 0.2981(2)
H6 H 0.3380 -0.0340 0.2945
C11 C 0.1608(6) -0.1173(10) 0.4425(3)
H7 H 0.1514 -0.1865 0.4241
C12 C 0.1746(5) -0.1583(9) 0.4800(3)
H8 H 0.1752 -0.2532 0.4866
C13 C 0.1876(5) -0.0553(9) 0.5080(2)
C14 C 0.1876(6) 0.0836(9) 0.4960(2)
H9 H 0.1962 0.1556 0.5137
C15 C 0.1747(6) 0.1140(10) 0.4578(3)
H10 H 0.1761 0.2077 0.4500
C16 C 0.1367(6) -0.0219(10) 0.2859(3)
H11 H 0.1076 -0.0930 0.2968
C17 C 0.1479(5) -0.0228(9) 0.2464(2)
H12 H 0.1281 -0.0943 0.2311
C18 C 0.1893(4) 0.0848(8) 0.2299(2)
C19 C 0.2184(5) 0.1865(9) 0.2539(3)
H13 H 0.2462 0.2601 0.2434
C20 C 0.2070(6) 0.1806(10) 0.2928(3)
H14 H 0.2279 0.2497 0.3086
C21 C 0.2047(5) 0.0866(8) 0.1868(2)
C22 C 0.1281(6) 0.1001(12) 0.0844(3)
C23 C 0.0094(5) 0.2883(9) 0.0088(2)
H15 H -0.0225 0.3653 0.0070
N1 N 0.0220(4) 0.2047(9) -0.02360(18)
C24 C 0.0680(5) 0.0870(8) -0.02083(18)
H16 H 0.0765 0.0310 -0.0425
C25 C 0.1014(4) 0.0529(7) 0.0143(2)
H17 H 0.1321 -0.0258 0.0162
C26 C 0.0887(5) 0.1365(9) 0.04675(17)
C27 C 0.2030(5) -0.0952(9) 0.5497(2)
N2 N 0.1603(4) 0.0164(8) 0.4313(2)
N3 N 0.1655(5) 0.0761(8) 0.3094(2)
C28 C 0.0437(6) 0.2581(12) 0.0435(3)
H18 H 0.0372 0.3174 0.0646
O1 O 0.3482(3) -0.0396(6) 0.15112(16)
O2 O 0.3752(4) 0.2003(6) 0.13150(18)
O3 O 0.4726(4) 0.0275(8) 0.12883(19)
O4 O 0.2942(6) -0.0951(11) 0.3622(2)
O5 O 0.3619(6) 0.0586(9) 0.4058(2)
O6 O 0.4147(6) -0.1581(9) 0.3832(2)
O7 O 0.2331(4) 0.1974(7) 0.17363(18)
O8 O 0.1526(4) 0.2048(7) 0.1014(2)
O9 O 0.2141(4) 0.0015(7) 0.57325(16)
O10 O 0.2049(4) -0.2241(6) 0.55745(16)
O11 O 0.1314(4) -0.0365(7) 0.0899(2)
O12 O 0.1898(4) -0.0224(7) 0.16845(18)
S1 S 0.40486(12) 0.0693(2) 0.14821(6)
S2 S 0.36490(17) -0.0408(3) 0.37503(7)
Sm1 Sm 0.25982(2) 0.33733(4) 0.118873(11)
Ag2A Ag 0.53472(7) -0.22267(14) 0.41907(3)
Ag2C Ag 0.46528(7) 0.27733(14) 0.08093(3)
Ag2D Ag 0.03472(7) -0.22267(14) 0.08093(3)
O1G O 0.1518(3) 0.4604(6) 0.15112(16)
O2C O -0.1248(4) 0.2997(6) -0.13150(18)
O6A O 0.0853(6) 0.1581(9) -0.1168(2)
O9F O 0.2141(4) 0.4985(7) 0.07325(16)
O10A O 0.2951(4) 0.2241(6) 0.05745(16)
O11D O -0.1314(4) 0.0365(7) -0.0899(2)
O11G O 0.3686(4) 0.4635(7) 0.0899(2)
O12G O 0.3102(4) 0.4776(7) 0.16845(18)
Sm1A Sm 0.24018(2) -0.33733(4) 0.618873(11)
Sm1F Sm 0.25982(2) 0.16267(4) 0.618873(11)
Sm1G Sm 0.24018(2) -0.16267(4) 0.118873(11)
O3C O -0.0274(4) 0.4725(8) -0.12883(19)
Ag3? Ag 0.0027(7) 0.3168(15) -0.0747(3)
loop_
_geom_bond_atom_site_label_1
_geom_bond_atom_site_label_2
_geom_bond_site_symmetry_1
_geom_bond_site_symmetry_2
Ag1 N2 1_555 1_555
Ag2 N1 1_555 1_555
C1 C2 1_555 1_555
C2 H1 1_555 1_555
C3 C2 1_555 1_555
C4 C3 1_555 1_555
H2 C4 1_555 1_555
C5 C4 1_555 1_555
H3 C5 1_555 1_555
C6 C1 1_555 1_555
C7 C6 1_555 1_555
H4 C7 1_555 1_555
C8 C7 1_555 1_555
H5 C8 1_555 1_555
C9 C8 1_555 1_555
C10 C1 1_555 1_555
H6 C10 1_555 1_555
C11 H7 1_555 1_555
C12 C11 1_555 1_555
H8 C12 1_555 1_555
C13 C12 1_555 1_555
C14 C13 1_555 1_555
H9 C14 1_555 1_555
C15 C14 1_555 1_555
H10 C15 1_555 1_555
C16 H11 1_555 1_555
C17 C16 1_555 1_555
H12 C17 1_555 1_555
C18 C17 1_555 1_555
C19 C18 1_555 1_555
H13 C19 1_555 1_555
C20 C19 1_555 1_555
H14 C20 1_555 1_555
C21 C18 1_555 1_555
C22 C26 1_555 1_555
C23 H15 1_555 1_555
N1 C23 1_555 1_555
C24 N1 1_555 1_555
H16 C24 1_555 1_555
C25 C24 1_555 1_555
H17 C25 1_555 1_555
C26 C25 1_555 1_555
C27 C13 1_555 1_555
N2 C11 1_555 1_555
N3 Ag1 1_555 1_555
C28 C23 1_555 1_555
H18 C28 1_555 1_555
O1 S1 1_555 1_555
O2 S1 1_555 1_555
O3 S1 1_555 1_555
O4 S2 1_555 1_555
O5 S2 1_555 1_555
O6 S2 1_555 1_555
O7 C21 1_555 1_555
O8 C22 1_555 1_555
O9 C27 1_555 1_555
O10 C27 1_555 1_555
O11 C22 1_555 1_555
O12 C21 1_555 1_555
S1 C3 1_555 1_555
S2 C9 1_555 1_555
Sm1 O2 1_555 1_555
Ag2A O6 1_555 1_555
Ag2C O2 1_555 1_555
Ag2D O11 1_555 1_555
O1G Sm1 1_555 1_555
O2C Ag2 1_555 1_555
O6A Ag2 1_555 1_555
O9F Sm1 1_555 1_555
O10A Sm1 1_555 1_555
O11D Ag2 1_555 1_555
O11G Sm1 1_555 1_555
O12G Sm1 1_555 1_555
Sm1A O10 1_555 1_555
Sm1F O9 1_555 1_555
Sm1G O1 1_555 1_555
C5 C6 1_555 1_555
C9 C10 1_555 1_555
C15 N2 1_555 1_555
C16 N3 1_555 1_555
C20 N3 1_555 1_555
C26 C28 1_555 1_555
O7 Sm1 1_555 1_555
O8 Sm1 1_555 1_555
O11 Sm1G 1_555 1_555
O12 Sm1G 1_555 1_555
Ag2C O11G 1_555 1_555

#END
