
#######################################################################
#
#                 Cambridge Crystallographic Data Centre
#                                CCDC 
#
#######################################################################
#
# If this CIF has been generated from an entry in the Cambridge 
# Structural Database, then it will include bibliographic, chemical, 
# crystal, experimental, refinement or atomic coordinate data resulting 
# from the CCDC's data processing and validation procedures.
#
#######################################################################

data_LIVHEF
_symmetry_cell_setting           orthorhombic
_symmetry_space_group_name_H-M   'P b c a'
_symmetry_Int_Tables_number      61
_space_group_name_Hall           '-P 2ac 2ab'
loop_
_symmetry_equiv_pos_site_id
_symmetry_equiv_pos_as_xyz
1 x,y,z
2 1/2-x,-y,1/2+z
3 -x,1/2+y,1/2-z
4 1/2+x,1/2-y,-z
5 -x,-y,-z
6 1/2+x,y,1/2-z
7 x,1/2-y,1/2+z
8 1/2-x,1/2+y,z
_cell_length_a                   17.906(2)
_cell_length_b                   9.4075(11)
_cell_length_c                   34.360(4)
_cell_angle_alpha                90
_cell_angle_beta                 90
_cell_angle_gamma                90
_cell_volume                     5787.97
loop_
_atom_site_label
_atom_site_type_symbol
_atom_site_fract_x
_atom_site_fract_y
_atom_site_fract_z
Dy1 Dy 0.74033(2) 0.16573(4) 0.118697(9)
Ag1 Ag 0.84373(6) 0.43223(11) 0.37063(2)
Ag2 Ag 0.53719(6) 0.22796(14) 0.07983(3)
O1 O 0.7657(4) 0.3038(7) 0.17276(19)
S1 S 0.90235(11) -0.0663(2) 0.14749(6)
O2 O 0.7934(4) 0.7189(6) 0.55901(16)
O3 O 0.8461(3) 0.0444(6) 0.15070(17)
O4 O 0.6351(4) 0.0387(7) 0.0895(2)
O5 O 0.8726(4) -0.1998(7) 0.13105(18)
O6 O 0.8088(4) 0.5256(6) 0.16707(17)
O7 O 0.7870(4) 0.4899(6) 0.57376(16)
N1 N 0.8333(5) 0.4267(8) 0.3086(2)
N2 N 0.8389(4) 0.4836(8) 0.4309(2)
C1 C 0.8794(5) -0.0216(9) 0.2979(2)
H1 H 0.8367 0.0335 0.2946
C2 C 0.9283(4) -0.1093(9) 0.1954(2)
C3 C 0.8916(4) -0.0519(8) 0.2266(2)
H2 H 0.8509 0.0074 0.2225
C4 C 0.9789(5) -0.1705(9) 0.2706(3)
C5 C 1.0138(5) -0.2309(10) 0.2374(3)
H3 H 1.0542 -0.2920 0.2408
C6 C 0.9900(5) -0.2017(9) 0.2010(3)
H4 H 1.0139 -0.2421 0.1796
C7 C 0.9153(4) -0.0822(8) 0.2651(2)
C8 C 0.9076(5) -0.0445(10) 0.3345(3)
C9 C 0.9707(6) -0.1299(11) 0.3404(3)
H5 H 0.9890 -0.1433 0.3655
S2 S 0.86623(17) 0.0432(3) 0.37532(6)
O8 O 0.7962(5) 0.1013(11) 0.3624(2)
O9 O 0.8624(6) -0.0602(9) 0.4055(2)
C10 C 1.0057(6) -0.1941(10) 0.3094(3)
H6 H 1.0468 -0.2527 0.3136
O10 O 0.9173(6) 0.1601(9) 0.3838(2)
O11 O 0.9695(4) -0.0250(8) 0.1276(2)
C11 C 0.7922(5) 0.3226(10) 0.2922(3)
H7 H 0.7708 0.2539 0.3081
C12 C 0.8634(6) 0.5249(10) 0.2850(3)
H8 H 0.8928 0.5959 0.2960
C13 C 0.8265(5) 0.6569(9) 0.4808(2)
H9 H 0.8271 0.7523 0.4880
C14 C 0.8125(5) 0.4127(9) 0.4960(2)
H10 H 0.8031 0.3391 0.5133
C15 C 0.8390(6) 0.6194(11) 0.4431(3)
H11 H 0.8480 0.6909 0.4250
C16 C 0.8263(5) 0.3840(10) 0.4575(3)
H12 H 0.8269 0.2894 0.4496
C17 C 0.8128(4) 0.5533(8) 0.5087(2)
C18 C 0.8106(4) 0.4186(8) 0.2289(2)
C19 C 0.7809(5) 0.3149(9) 0.2529(3)
H13 H 0.7533 0.2405 0.2423
C20 C 0.8527(5) 0.5252(9) 0.2455(2)
H14 H 0.8735 0.5962 0.2301
C21 C 0.7941(5) 0.4155(8) 0.1857(2)
C22 C 0.7965(4) 0.5908(8) 0.5504(2)
C23 C 0.6301(6) -0.0975(11) 0.0841(3)
O12 O 0.6555(4) -0.2002(7) 0.1023(2)
N3 N 0.5195(5) -0.2085(11) -0.0222(3)
C24 C 0.5886(6) -0.1382(10) 0.0477(3)
C25 C 0.6005(6) -0.0536(12) 0.0133(3)
H15 H 0.6314 0.0258 0.0139
C26 C 0.5436(6) -0.2595(13) 0.0449(3)
H16 H 0.5365 -0.3209 0.0658
C27 C 0.5656(7) -0.0930(13) -0.0198(3)
H17 H 0.5732 -0.0387 -0.0420
C28 C 0.5104(6) -0.2820(17) 0.0090(3)
H18 H 0.4779 -0.3588 0.0073
Dy1A Dy 0.75967(2) 0.83427(4) 0.618697(9)
Dy1F Dy 0.74033(2) 0.33427(4) 0.618697(9)
Dy1G Dy 0.75967(2) -0.33427(4) 0.118697(9)
Dy1G_2 Dy 0.75967(2) 0.66573(4) 0.118697(9)
Ag2D Ag 0.46281(6) -0.22796(14) -0.07983(3)
Ag2E Ag 1.03719(6) 0.22796(14) 0.42017(3)
Ag2G Ag 0.96281(6) -0.27204(14) 0.07983(3)
O2A O 0.7066(4) 0.2811(6) 0.05901(16)
O5G O 0.6274(4) 0.3002(7) 0.13105(18)
O6G O 0.6912(4) 0.0256(6) 0.16707(17)
O7F O 0.7870(4) 0.0101(6) 0.07376(16)
O10E O 0.4173(6) 0.1601(9) 0.1162(2)
O12G O 0.8445(4) 0.2998(7) 0.1023(2)
N3D N 0.4805(5) 0.2085(11) 0.0222(3)
loop_
_geom_bond_atom_site_label_1
_geom_bond_atom_site_label_2
_geom_bond_site_symmetry_1
_geom_bond_site_symmetry_2
Dy1 O1 1_555 1_555
Ag1 N1 1_555 1_555
Ag2 O4 1_555 1_555
O1 C21 1_555 1_555
S1 O3 1_555 1_555
O2 C22 1_555 1_555
O3 Dy1 1_555 1_555
O4 Dy1 1_555 1_555
O5 S1 1_555 1_555
O6 C21 1_555 1_555
O7 C22 1_555 1_555
N1 C11 1_555 1_555
N2 Ag1 1_555 1_555
C1 H1 1_555 1_555
C2 S1 1_555 1_555
C3 C2 1_555 1_555
H2 C3 1_555 1_555
C4 C5 1_555 1_555
C5 H3 1_555 1_555
C6 C2 1_555 1_555
H4 C6 1_555 1_555
C7 C1 1_555 1_555
C8 C1 1_555 1_555
C9 C8 1_555 1_555
H5 C9 1_555 1_555
S2 C8 1_555 1_555
O8 S2 1_555 1_555
O9 S2 1_555 1_555
C10 C4 1_555 1_555
H6 C10 1_555 1_555
O10 S2 1_555 1_555
O11 S1 1_555 1_555
C11 H7 1_555 1_555
C12 N1 1_555 1_555
H8 C12 1_555 1_555
C13 H9 1_555 1_555
C14 H10 1_555 1_555
C15 N2 1_555 1_555
H11 C15 1_555 1_555
C16 N2 1_555 1_555
H12 C16 1_555 1_555
C17 C13 1_555 1_555
C18 C19 1_555 1_555
C19 C11 1_555 1_555
H13 C19 1_555 1_555
C20 C12 1_555 1_555
H14 C20 1_555 1_555
C21 C18 1_555 1_555
C22 C17 1_555 1_555
C23 O4 1_555 1_555
O12 C23 1_555 1_555
N3 C27 1_555 1_555
C24 C23 1_555 1_555
C25 C24 1_555 1_555
H15 C25 1_555 1_555
C26 C24 1_555 1_555
H16 C26 1_555 1_555
C27 C25 1_555 1_555
H17 C27 1_555 1_555
C28 N3 1_555 1_555
H18 C28 1_555 1_555
Dy1A O2 1_555 1_555
Dy1F O7 1_555 1_555
Dy1G O5 1_555 1_555
Dy1G_2 O6 1_555 1_555
Ag2D N3 1_555 1_555
Ag2E O10 1_555 1_555
Ag2G O5 1_555 1_555
O2A Dy1 1_555 1_555
O5G Dy1 1_555 1_555
O6G Dy1 1_555 1_555
O7F Dy1 1_555 1_555
O10E Ag2 1_555 1_555
O12G Dy1 1_555 1_555
N3D Ag2 1_555 1_555
Ag2 O5G 1_555 1_555
C3 C7 1_555 1_555
C4 C7 1_555 1_555
C5 C6 1_555 1_555
C9 C10 1_555 1_555
C13 C15 1_555 1_555
C14 C16 1_555 1_555
C14 C17 1_555 1_555
C18 C20 1_555 1_555
O12 Dy1G 1_555 1_555
C26 C28 1_555 1_555

#END
