
#######################################################################
#
#                 Cambridge Crystallographic Data Centre
#                                CCDC 
#
#######################################################################
#
# If this CIF has been generated from an entry in the Cambridge 
# Structural Database, then it will include bibliographic, chemical, 
# crystal, experimental, refinement or atomic coordinate data resulting 
# from the CCDC's data processing and validation procedures.
#
#######################################################################

data_LIVJOP
_symmetry_cell_setting           triclinic
_symmetry_space_group_name_H-M   'P -1'
_symmetry_Int_Tables_number      2
_space_group_name_Hall           '-P 1'
loop_
_symmetry_equiv_pos_site_id
_symmetry_equiv_pos_as_xyz
1 x,y,z
2 -x,-y,-z
_cell_length_a                   7.522(2)
_cell_length_b                   8.563(2)
_cell_length_c                   17.534(2)
_cell_angle_alpha                89.99(2)
_cell_angle_beta                 86.61(2)
_cell_angle_gamma                68.73(2)
_cell_volume                     1050.33
loop_
_atom_site_label
_atom_site_type_symbol
_atom_site_fract_x
_atom_site_fract_y
_atom_site_fract_z
N1 N -0.0178(3) 0.3118(2) 0.8203(1)
C1 C 0.0269(4) 0.1477(3) 0.8025(1)
C2 C -0.0176(4) 0.0388(3) 0.8500(2)
C3 C -0.1131(4) 0.1002(3) 0.9198(1)
C4 C -0.1536(3) 0.2644(3) 0.9406(1)
C5 C -0.1038(3) 0.3677(3) 0.8895(1)
S1 S -0.1426(1) 0.5799(1) 0.9091(1)
C6 C -0.3412(3) 0.6379(3) 0.9807(1)
C7 C -0.4220(3) 0.8253(3) 0.9902(1)
C8 C -0.4041(3) 0.9018(3) 1.0578(1)
C9 C -0.5183(3) 0.9261(3) 0.9326(1)
C10 C -0.1768(4) 0.0406(3) 0.5371(2)
C11 C -0.1041(4) 0.1655(3) 0.5241(1)
C12 C 0.0730(4) 0.1236(3) 0.4864(2)
C13 C -0.2136(4) 0.3439(3) 0.5499(1)
S2 S -0.2529(1) 0.3571(1) 0.6535(1)
C14 C -0.3349(3) 0.5773(3) 0.6677(1)
C15 C -0.5044(4) 0.6862(3) 0.6410(2)
C16 C -0.5547(4) 0.8558(3) 0.6547(2)
C17 C -0.4408(4) 0.9118(3) 0.6968(2)
C18 C -0.2757(4) 0.7962(3) 0.7225(2)
N2 N -0.2197(3) 0.6306(2) 0.7077(1)
N3 N 0.2930(3) 0.5517(3) 0.8119(1)
O1 O 0.3699(4) 0.6285(4) 0.8460(2)
O2 O 0.3506(3) 0.3977(3) 0.8087(2)
O3 O 0.1425(3) 0.6296(2) 0.7775(1)
N4 N 0.2519(3) 0.3567(3) 0.6109(1)
O4 O 0.3628(3) 0.2905(3) 0.5574(1)
O5 O 0.2229(3) 0.2718(2) 0.6666(1)
O6 O 0.1609(3) 0.5115(2) 0.6168(1)
H1 H 0.0929 0.1058 0.7541
H2 H 0.0163 -0.0769 0.8353
H3 H -0.1501 0.0272 0.9534
H4 H -0.2203 0.3175 0.9984
H5 H -0.2982 0.5871 1.0284
H6 H -0.4382 0.5992 0.9644
H7 H -0.3368 0.8335 1.0981
H8 H -0.5308 0.8750 0.8855
H9 H -0.3004 0.0682 0.5632
H10 H 0.1245 0.2095 0.4765
H11 H -0.3345 0.3837 0.5269
H12 H -0.1437 0.4133 0.5336
H13 H -0.5965 0.6385 0.6043
H14 H -0.6689 0.9346 0.6352
H15 H -0.4738 1.0293 0.7075
H16 H -0.1975 0.8348 0.7532
Co1 Co 0.0410(1) 0.4597(1) 0.7358(1)
C9A C -0.4817(3) 1.0739(3) 1.0674(1)
C8A C -0.5959(3) 1.0982(3) 0.9422(1)
C12A C -0.0730(4) -0.1236(3) 0.5136(2)
C10A C 0.1768(4) -0.0406(3) 0.4629(2)
C11A C 0.1041(4) -0.1655(3) 0.4759(1)
H9A H 0.3004 -0.0682 0.4368
H10A H -0.1245 -0.2095 0.5235
C13A C 0.2136(4) -0.3439(3) 0.4501(1)
C7A C -0.5780(3) 1.1747(3) 1.0098(1)
H8A H -0.4692 1.1250 1.1145
H7A H -0.6632 1.1665 0.9019
C6A C -0.6588(3) 1.3621(3) 1.0193(1)
S2A S 0.2529(1) -0.3571(1) 0.3465(1)
H11A H 0.3345 -0.3837 0.4731
H12A H 0.1437 -0.4133 0.4664
S1A S -0.8574(1) 1.4201(1) 1.0909(1)
H5A H -0.7018 1.4129 0.9716
H6A H -0.5618 1.4008 1.0356
C14A C 0.3349(3) -0.5773(3) 0.3323(1)
C5A C -0.8962(3) 1.6323(3) 1.1105(1)
C15A C 0.5044(4) -0.6862(3) 0.3590(2)
N2A N 0.2197(3) -0.6306(2) 0.2923(1)
N1A N -0.9822(3) 1.6882(2) 1.1797(1)
C4A C -0.8464(3) 1.7356(3) 1.0594(1)
C18A C 0.2757(4) -0.7962(3) 0.2775(2)
Co1A Co -0.0410(1) -0.4597(1) 0.2642(1)
C16A C 0.5547(4) -0.8558(3) 0.3453(2)
H13A H 0.5965 -0.6385 0.3957
C1A C -1.0269(4) 1.8523(3) 1.1975(1)
Co1A_2 Co -1.0410(1) 1.5403(1) 1.2642(1)
C3A C -0.8869(4) 1.8998(3) 1.0802(1)
H4A H -0.7797 1.6825 1.0016
C17A C 0.4408(4) -0.9118(3) 0.3032(2)
H16A H 0.1975 -0.8348 0.2468
H14A H 0.6689 -0.9346 0.3648
C2A C -0.9824(4) 1.9612(3) 1.1500(2)
H1A H -1.0929 1.8942 1.2459
H3A H -0.8499 1.9728 1.0466
N2A_2 N -0.7803(3) 1.3694(2) 1.2923(1)
O3A O -1.1425(3) 1.3704(2) 1.2225(1)
O5A O -1.2229(3) 1.7282(2) 1.3334(1)
O6A O -1.1609(3) 1.4885(2) 1.3832(1)
N4A N -1.2519(3) 1.6433(3) 1.3891(1)
O4A O -1.3628(3) 1.7095(3) 1.4426(1)
N3A N -1.2930(3) 1.4483(3) 1.1881(1)
O1A O -1.3699(4) 1.3715(4) 1.1540(2)
O2A O -1.3506(3) 1.6023(3) 1.1913(2)
H15A H 0.4738 -1.0293 0.2925
H2A H -1.0163 2.0769 1.1647
loop_
_geom_bond_atom_site_label_1
_geom_bond_atom_site_label_2
_geom_bond_site_symmetry_1
_geom_bond_site_symmetry_2
N1 C1 1_555 1_555
C1 C2 1_555 1_555
C2 C3 1_555 1_555
C3 C4 1_555 1_555
C4 C5 1_555 1_555
C5 N1 1_555 1_555
S1 C5 1_555 1_555
C6 S1 1_555 1_555
C7 C6 1_555 1_555
C8 C7 1_555 1_555
C9 C7 1_555 1_555
C10 C11 1_555 1_555
C11 C12 1_555 1_555
C12 H10 1_555 1_555
C13 C11 1_555 1_555
S2 C13 1_555 1_555
C14 S2 1_555 1_555
C15 C14 1_555 1_555
C16 C15 1_555 1_555
C17 C16 1_555 1_555
C18 C17 1_555 1_555
N2 C14 1_555 1_555
N3 O1 1_555 1_555
O2 N3 1_555 1_555
O3 N3 1_555 1_555
N4 O4 1_555 1_555
O5 N4 1_555 1_555
O6 N4 1_555 1_555
H1 C1 1_555 1_555
H2 C2 1_555 1_555
H3 C3 1_555 1_555
H4 C4 1_555 1_555
H5 C6 1_555 1_555
H6 C6 1_555 1_555
H7 C8 1_555 1_555
H8 C9 1_555 1_555
H9 C10 1_555 1_555
H11 C13 1_555 1_555
H12 C13 1_555 1_555
H13 C15 1_555 1_555
H14 C16 1_555 1_555
H15 C17 1_555 1_555
H16 C18 1_555 1_555
Co1 N1 1_555 1_555
C9A C8 1_555 1_555
C8A C9 1_555 1_555
C12A C10 1_555 1_555
C10A C12 1_555 1_555
C11A C12A 1_555 1_555
H9A C10A 1_555 1_555
H10A C12A 1_555 1_555
C13A C11A 1_555 1_555
C7A C9A 1_555 1_555
H8A C9A 1_555 1_555
H7A C8A 1_555 1_555
C6A C7A 1_555 1_555
S2A C13A 1_555 1_555
H11A C13A 1_555 1_555
H12A C13A 1_555 1_555
S1A C6A 1_555 1_555
H5A C6A 1_555 1_555
H6A C6A 1_555 1_555
C14A S2A 1_555 1_555
C5A S1A 1_555 1_555
C15A C14A 1_555 1_555
N2A C14A 1_555 1_555
N1A C5A 1_555 1_555
C4A C5A 1_555 1_555
C18A N2A 1_555 1_555
Co1A N2A 1_555 1_555
C16A C15A 1_555 1_555
H13A C15A 1_555 1_555
C1A N1A 1_555 1_555
Co1A_2 N1A 1_555 1_555
C3A C4A 1_555 1_555
H4A C4A 1_555 1_555
C17A C18A 1_555 1_555
H16A C18A 1_555 1_555
H14A C16A 1_555 1_555
C2A C1A 1_555 1_555
H1A C1A 1_555 1_555
H3A C3A 1_555 1_555
N2A_2 Co1A_2 1_555 1_555
O3A Co1A_2 1_555 1_555
O5A Co1A_2 1_555 1_555
O6A Co1A_2 1_555 1_555
N4A O5A 1_555 1_555
O4A N4A 1_555 1_555
N3A O3A 1_555 1_555
O1A N3A 1_555 1_555
O2A N3A 1_555 1_555
H15A C17A 1_555 1_555
H2A C2A 1_555 1_555
C18 N2 1_555 1_555
N2 Co1 1_555 1_555
O3 Co1 1_555 1_555
O5 Co1 1_555 1_555
O6 Co1 1_555 1_555
C8A C7A 1_555 1_555
C10A C11A 1_555 1_555
C16A C17A 1_555 1_555
C3A C2A 1_555 1_555
O6A N4A 1_555 1_555

#END
