
#######################################################################
#
#                 Cambridge Crystallographic Data Centre
#                                CCDC 
#
#######################################################################
#
# If this CIF has been generated from an entry in the Cambridge 
# Structural Database, then it will include bibliographic, chemical, 
# crystal, experimental, refinement or atomic coordinate data resulting 
# from the CCDC's data processing and validation procedures.
#
#######################################################################

data_LIVKEH
_symmetry_cell_setting           monoclinic
_symmetry_space_group_name_H-M   'C 2/c'
_symmetry_Int_Tables_number      15
_space_group_name_Hall           '-C 2yn'
loop_
_symmetry_equiv_pos_site_id
_symmetry_equiv_pos_as_xyz
1 x,y,z
2 1/2+x,1/2+y,z
3 -x,y,1/2-z
4 1/2-x,1/2+y,1/2-z
5 -x,-y,-z
6 1/2-x,1/2-y,-z
7 x,-y,1/2+z
8 1/2+x,1/2-y,1/2+z
_cell_length_a                   24.5585(7)
_cell_length_b                   9.7790(4)
_cell_length_c                   17.9794(6)
_cell_angle_alpha                90
_cell_angle_beta                 130.931(2)
_cell_angle_gamma                90
_cell_volume                     3262.16
loop_
_atom_site_label
_atom_site_type_symbol
_atom_site_fract_x
_atom_site_fract_y
_atom_site_fract_z
Pb1 Pb 0.267808(17) 0.35666(4) 0.29474(2)
S1 S 0.30118(13) 0.5551(3) 0.41751(18)
O1 O 0.2632(3) 0.0932(8) 0.2968(4)
O2 O 0.2795(3) -0.0905(8) 0.3872(4)
N1 N 0.3533(4) 0.5377(9) 0.5990(6)
H1 H 0.3690 0.4985 0.6541
H2 H 0.3519 0.6274 0.5944
N2 N 0.3347(4) 0.3285(9) 0.5331(6)
N3 N 0.3104(4) 0.2517(9) 0.4521(5)
C1 C 0.3316(5) 0.4614(11) 0.5229(7)
C2 C 0.3106(5) 0.1220(10) 0.4607(7)
H3 H 0.3292 0.0832 0.5218
C3 C 0.2819(5) 0.0326(11) 0.3761(7)
C4 C 0.3687(5) 0.3330(10) 0.3220(7)
C5 C 0.3808(5) 0.2122(12) 0.2948(7)
H4 H 0.3464 0.1403 0.2655
C6 C 0.4446(6) 0.1976(13) 0.3112(8)
H5 H 0.4542 0.1150 0.2938
C7 C 0.4934(6) 0.3035(14) 0.3526(8)
H6 H 0.5367 0.2942 0.3636
C8 C 0.4795(5) 0.4229(15) 0.3781(8)
H7 H 0.5136 0.4954 0.4070
C9 C 0.4158(5) 0.4389(13) 0.3620(7)
H8 H 0.4059 0.5218 0.3788
C10 C 0.1540(5) 0.3319(10) 0.2192(7)
C11 C 0.0998(6) 0.3348(11) 0.1164(8)
H9 H 0.1116 0.3448 0.0760
C12 C 0.0290(6) 0.3228(11) 0.0752(8)
H10 H -0.0083 0.3272 0.0057
C13 C 0.0113(6) 0.3046(14) 0.1334(8)
H11 H -0.0375 0.2936 0.1045
C14 C 0.0665(6) 0.3028(18) 0.2352(9)
H12 H 0.0550 0.2915 0.2761
C15 C 0.1366(6) 0.3169(13) 0.2771(8)
H13 H 0.1735 0.3164 0.3468
Pb1C Pb 0.232192(17) -0.14334(4) 0.20526(2)
O1C O 0.2368(3) 0.5932(8) 0.2032(4)
O2C O 0.2205(3) 0.4095(8) 0.1128(4)
O3 O 0.3302(4) 0.8259(8) 0.5715(5)
H14 H 0.3504 0.8769 0.6217
H15 H 0.3113 0.8773 0.5219
loop_
_geom_bond_atom_site_label_1
_geom_bond_atom_site_label_2
_geom_bond_site_symmetry_1
_geom_bond_site_symmetry_2
Pb1 S1 1_555 1_555
S1 C1 1_555 1_555
O1 Pb1 1_555 1_555
O2 C3 1_555 1_555
N1 H1 1_555 1_555
H2 N1 1_555 1_555
N2 N3 1_555 1_555
N3 Pb1 1_555 1_555
C1 N1 1_555 1_555
C2 N3 1_555 1_555
H3 C2 1_555 1_555
C3 O1 1_555 1_555
C4 Pb1 1_555 1_555
C5 C4 1_555 1_555
H4 C5 1_555 1_555
C6 C5 1_555 1_555
H5 C6 1_555 1_555
C7 C6 1_555 1_555
H6 C7 1_555 1_555
C8 C7 1_555 1_555
H7 C8 1_555 1_555
C9 C4 1_555 1_555
H8 C9 1_555 1_555
C10 Pb1 1_555 1_555
C11 C10 1_555 1_555
H9 C11 1_555 1_555
C12 C11 1_555 1_555
H10 C12 1_555 1_555
C13 C12 1_555 1_555
H11 C13 1_555 1_555
C14 C13 1_555 1_555
H12 C14 1_555 1_555
C15 C10 1_555 1_555
H13 C15 1_555 1_555
O3 H14 1_555 1_555
H15 O3 1_555 1_555
Pb1C O1 1_555 1_555
O1C Pb1 1_555 1_555
O2C Pb1 1_555 1_555
O2 Pb1C 1_555 1_555
N2 C1 1_555 1_555
C2 C3 1_555 1_555
C8 C9 1_555 1_555
C14 C15 1_555 1_555

#END
