
#######################################################################
#
#                 Cambridge Crystallographic Data Centre
#                                CCDC 
#
#######################################################################
#
# If this CIF has been generated from an entry in the Cambridge 
# Structural Database, then it will include bibliographic, chemical, 
# crystal, experimental, refinement or atomic coordinate data resulting 
# from the CCDC's data processing and validation procedures.
#
#######################################################################

data_LIVLEJ
_symmetry_cell_setting           triclinic
_symmetry_space_group_name_H-M   'P -1'
_symmetry_Int_Tables_number      2
_space_group_name_Hall           '-P 1'
loop_
_symmetry_equiv_pos_site_id
_symmetry_equiv_pos_as_xyz
1 x,y,z
2 -x,-y,-z
_cell_length_a                   11.583(2)
_cell_length_b                   12.069(2)
_cell_length_c                   22.782(6)
_cell_angle_alpha                93.135(3)
_cell_angle_beta                 94.641(3)
_cell_angle_gamma                115.197(2)
_cell_volume                     2858.27
loop_
_atom_site_label
_atom_site_type_symbol
_atom_site_fract_x
_atom_site_fract_y
_atom_site_fract_z
Pb1 Pb 1.1316(4) 0.6368(4) 0.80925(18)
Pb2 Pb 0.9958(4) 0.3431(4) 0.89355(18)
Pb3 Pb 0.8474(4) -0.1903(4) 0.70708(17)
Pb4 Pb 0.9834(4) 0.8321(4) 0.88949(17)
Pb5 Pb 1.1917(4) 0.6575(4) 0.63627(17)
O1 O 1.190(7) 0.221(7) 1.044(3)
O2 O 1.392(7) 0.748(8) 0.809(4)
H1 H 1.4655 0.7630 0.8271
H2 H 1.3771 0.7388 0.7718
O3 O 1.098(7) 0.095(6) 0.947(3)
H3 H 1.0531 0.1012 0.9186
O4 O 1.253(8) 0.486(8) 0.577(4)
H4 H 1.3079 0.5182 0.6072
H5 H 1.2066 0.4088 0.5723
O5 O 1.142(7) 0.317(7) 0.955(3)
O6 O 1.094(9) 0.296(9) 0.713(4)
H6 H 1.1184 0.2908 0.6805
O7 O 1.115(7) 0.411(7) 0.801(4)
O8 O 0.893(7) 0.004(7) 0.641(3)
H7 H 0.9065 0.0740 0.6582
H8 H 0.8937 -0.0050 0.6042
O9 O 1.176(7) 0.521(7) 0.711(3)
O10 O 1.126(7) -0.058(6) 0.703(3)
H9 H 1.1228 -0.0912 0.6700
O11 O 1.114(7) -0.145(7) 0.801(3)
O12 O 1.208(7) -0.218(6) 0.723(3)
O13 O 1.410(7) 0.746(7) 0.671(3)
O14 O 1.507(7) 0.614(6) 0.629(3)
H10 H 1.5752 0.6100 0.6265
O15 O 1.646(7) 0.803(7) 0.700(3)
O16 O 1.047(8) 0.976(11) 0.556(3)
H11 H 1.0478 1.0103 0.5257
O17 O 0.983(9) 0.758(9) 0.505(4)
H12 H 0.9422 0.7058 0.5263
O18 O 1.118(8) 0.841(7) 0.603(3)
O19 O 1.268(7) 0.376(7) 0.375(3)
O20 O 1.087(7) 0.435(7) 0.357(3)
H13 H 1.1047 0.4477 0.3228
O21 O 1.174(7) 0.436(7) 0.460(3)
O22 O 0.774(7) 0.656(6) 0.766(4)
O23 O 0.906(7) 0.627(6) 0.851(3)
O24 O 0.905(6) 0.537(6) 0.752(3)
O25 O 0.865(8) 0.227(7) 1.067(3)
O26 O 0.855(6) 0.431(6) 1.086(3)
O27 O 0.946(6) 0.387(7) 0.995(3)
O28 O 0.904(7) 0.094(7) 0.746(3)
H14 H 0.9762 0.1025 0.7413
O29 O 0.862(7) -0.088(7) 0.803(3)
O30 O 0.959(7) 0.127(7) 0.858(4)
P1 P 1.189(3) 0.228(2) 0.9792(12)
P2 P 1.175(3) 0.415(2) 0.7436(13)
P3 P 1.192(3) -0.108(2) 0.7502(12)
P4 P 1.534(3) 0.751(3) 0.6525(12)
P5 P 1.083(3) 0.873(3) 0.5432(13)
P6 P 1.210(3) 0.457(3) 0.3979(12)
P7 P 0.823(3) 0.570(2) 0.7922(12)
P8 P 0.847(3) 0.330(2) 1.0405(12)
P9 P 0.868(3) 0.041(3) 0.8070(12)
C1 C 1.352(9) 0.253(7) 0.892(4)
C2 C 1.353(9) 0.349(8) 0.858(3)
C3 C 1.347(9) 0.332(7) 0.796(4)
C4 C 1.348(10) 0.226(7) 0.768(4)
C5 C 1.346(10) 0.131(7) 0.804(3)
C6 C 1.348(9) 0.146(7) 0.864(4)
C7 C 1.349(10) 0.268(7) 0.961(3)
H15 H 1.4037 0.3531 0.9759
H16 H 1.3828 0.2164 0.9794
C8 C 1.371(10) 0.475(7) 0.887(4)
H17 H 1.3700 0.4721 0.9285
H18 H 1.3031 0.4929 0.8703
H19 H 1.4523 0.5371 0.8785
C9 C 1.337(10) 0.436(7) 0.761(4)
H20 H 1.3748 0.4389 0.7241
H21 H 1.3853 0.5148 0.7840
C10 C 1.350(11) 0.205(8) 0.700(4)
H22 H 1.3476 0.2737 0.6812
H23 H 1.2768 0.1310 0.6839
H24 H 1.4272 0.1980 0.6926
C11 C 1.349(9) 0.015(8) 0.774(3)
H25 H 1.3950 -0.0152 0.8020
H26 H 1.3973 0.0361 0.7402
C12 C 1.349(11) 0.042(7) 0.900(3)
H27 H 1.3516 0.0636 0.9413
H28 H 1.4234 0.0287 0.8934
H29 H 1.2729 -0.0325 0.8872
C13 C 1.475(9) 0.817(8) 0.542(4)
C14 C 1.399(9) 0.882(9) 0.545(4)
C15 C 1.297(9) 0.858(9) 0.500(4)
C16 C 1.269(9) 0.767(9) 0.453(4)
C17 C 1.349(8) 0.706(8) 0.448(4)
C18 C 1.451(9) 0.730(8) 0.492(4)
C19 C 1.584(8) 0.844(9) 0.593(4)
H30 H 1.6183 0.9294 0.6081
H31 H 1.6525 0.8305 0.5765
C20 C 1.421(10) 0.978(9) 0.595(5)
H32 H 1.4908 0.9853 0.6226
H33 H 1.3443 0.9547 0.6143
H34 H 1.4405 1.0561 0.5795
C21 C 1.220(10) 0.932(10) 0.502(5)
H35 H 1.1902 0.9379 0.4620
H36 H 1.2764 1.0151 0.5195
C22 C 1.160(9) 0.741(11) 0.405(5)
H37 H 1.1533 0.6756 0.3767
H38 H 1.1759 0.8134 0.3852
H39 H 1.0811 0.7163 0.4224
C23 C 1.327(9) 0.614(9) 0.394(5)
H40 H 1.4088 0.6136 0.3878
H41 H 1.3001 0.6446 0.3592
C24 C 1.536(11) 0.659(6) 0.485(4)
H42 H 1.6017 0.6847 0.5185
H43 H 1.5758 0.6774 0.4494
H44 H 1.4838 0.5722 0.4839
C25 C 0.695(9) 0.337(8) 0.838(3)
C26 C 0.691(9) 0.346(7) 0.898(3)
C27 C 0.691(9) 0.250(7) 0.932(3)
C28 C 0.696(9) 0.148(8) 0.904(3)
C29 C 0.699(9) 0.137(7) 0.841(3)
C30 C 0.699(9) 0.234(7) 0.809(3)
C31 C 0.681(9) 0.431(6) 0.801(4)
H45 H 0.6202 0.4563 0.8179
H46 H 0.6414 0.3908 0.7616
C32 C 0.695(10) 0.465(7) 0.934(4)
H47 H 0.6956 0.5236 0.9066
H48 H 0.7715 0.5020 0.9615
H49 H 0.6210 0.4428 0.9548
C33 C 0.686(9) 0.264(7) 1.000(3)
H50 H 0.6355 0.1835 1.0127
H51 H 0.6437 0.3160 1.0086
C34 C 0.698(11) 0.041(8) 0.937(3)
H52 H 0.6993 0.0597 0.9790
H53 H 0.7725 0.0293 0.9303
H54 H 0.6219 -0.0329 0.9236
C35 C 0.706(10) 0.023(6) 0.814(3)
H55 H 0.6579 0.0005 0.7748
H56 H 0.6653 -0.0437 0.8378
C36 C 0.704(10) 0.230(6) 0.742(3)
H57 H 0.7077 0.1548 0.7275
H58 H 0.7790 0.2989 0.7326
H59 H 0.6286 0.2325 0.7224
Pb1_2 Pb 1.1316(4) -0.3632(4) 0.80925(18)
Pb1A Pb 0.8684(4) 0.3632(4) 1.19075(18)
Pb2A Pb 1.0042(4) 0.6569(4) 1.10645(18)
Pb3_2 Pb 0.8474(4) 0.8097(4) 0.70708(17)
Pb3_3 Pb 1.8474(4) 0.8097(4) 0.70708(17)
Pb3A Pb 1.1526(4) 0.1903(4) 0.29292(17)
Pb4_2 Pb 0.9834(4) -0.1679(4) 0.88949(17)
Pb4A Pb 1.0166(4) 0.1679(4) 1.11051(17)
Pb5_2 Pb 1.1917(4) -0.3425(4) 0.63627(17)
O1A O 0.810(7) 0.779(7) 0.956(3)
O11_2 O 1.114(7) 0.855(7) 0.801(3)
O12_2 O 1.208(7) 0.782(6) 0.723(3)
O15_2 O 0.646(7) -0.197(7) 0.700(3)
O19A O 0.732(7) -0.376(7) 0.625(3)
O22_2 O 0.774(7) -0.344(6) 0.766(4)
O25A O 1.135(8) 0.773(7) 0.933(3)
O26A O 1.145(6) 0.569(6) 0.914(3)
O29_2 O 0.862(7) 0.912(7) 0.803(3)
O31 O 1.616(7) 0.726(8) 0.853(3)
H60 H 1.6783 0.7501 0.8803
H61 H 1.6571 0.7677 0.8263
O32 O 1.130(12) 0.218(11) 0.599(5)
H62 H 1.1784 0.1820 0.5968
H63 H 1.0659 0.1566 0.6083
loop_
_geom_bond_atom_site_label_1
_geom_bond_atom_site_label_2
_geom_bond_site_symmetry_1
_geom_bond_site_symmetry_2
Pb1 O2 1_555 1_555
Pb2 O5 1_555 1_555
Pb3 O8 1_555 1_555
Pb4 O23 1_555 1_555
Pb5 O4 1_555 1_555
O1 P1 1_555 1_555
O2 H1 1_555 1_555
H2 O2 1_555 1_555
O3 H3 1_555 1_555
O4 H4 1_555 1_555
H5 O4 1_555 1_555
O5 P1 1_555 1_555
O6 H6 1_555 1_555
O7 Pb1 1_555 1_555
O8 H7 1_555 1_555
H8 O8 1_555 1_555
O9 Pb1 1_555 1_555
O10 H9 1_555 1_555
O11 P3 1_555 1_555
O12 P3 1_555 1_555
O13 Pb5 1_555 1_555
O14 H10 1_555 1_555
O15 P4 1_555 1_555
O16 H11 1_555 1_555
O17 H12 1_555 1_555
O18 Pb5 1_555 1_555
O19 P6 1_555 1_555
O20 H13 1_555 1_555
O21 P6 1_555 1_555
O22 P7 1_555 1_555
O23 Pb1 1_555 1_555
O24 Pb1 1_555 1_555
O25 P8 1_555 1_555
O26 P8 1_555 1_555
O27 Pb2 1_555 1_555
O28 H14 1_555 1_555
O29 Pb3 1_555 1_555
O30 Pb2 1_555 1_555
P1 O3 1_555 1_555
P2 O6 1_555 1_555
P3 O10 1_555 1_555
P4 O13 1_555 1_555
P5 O16 1_555 1_555
P6 O20 1_555 1_555
P7 O23 1_555 1_555
P8 O27 1_555 1_555
P9 O28 1_555 1_555
C1 C2 1_555 1_555
C2 C3 1_555 1_555
C3 C4 1_555 1_555
C4 C5 1_555 1_555
C5 C6 1_555 1_555
C6 C1 1_555 1_555
C7 P1 1_555 1_555
H15 C7 1_555 1_555
H16 C7 1_555 1_555
C8 C2 1_555 1_555
H17 C8 1_555 1_555
H18 C8 1_555 1_555
H19 C8 1_555 1_555
C9 P2 1_555 1_555
H20 C9 1_555 1_555
H21 C9 1_555 1_555
C10 C4 1_555 1_555
H22 C10 1_555 1_555
H23 C10 1_555 1_555
H24 C10 1_555 1_555
C11 P3 1_555 1_555
H25 C11 1_555 1_555
H26 C11 1_555 1_555
C12 C6 1_555 1_555
H27 C12 1_555 1_555
H28 C12 1_555 1_555
H29 C12 1_555 1_555
C13 C14 1_555 1_555
C14 C15 1_555 1_555
C15 C16 1_555 1_555
C16 C17 1_555 1_555
C17 C18 1_555 1_555
C18 C13 1_555 1_555
C19 P4 1_555 1_555
H30 C19 1_555 1_555
H31 C19 1_555 1_555
C20 C14 1_555 1_555
H32 C20 1_555 1_555
H33 C20 1_555 1_555
H34 C20 1_555 1_555
C21 P5 1_555 1_555
H35 C21 1_555 1_555
H36 C21 1_555 1_555
C22 C16 1_555 1_555
H37 C22 1_555 1_555
H38 C22 1_555 1_555
H39 C22 1_555 1_555
C23 P6 1_555 1_555
H40 C23 1_555 1_555
H41 C23 1_555 1_555
C24 C18 1_555 1_555
H42 C24 1_555 1_555
H43 C24 1_555 1_555
H44 C24 1_555 1_555
C25 C26 1_555 1_555
C26 C27 1_555 1_555
C27 C28 1_555 1_555
C28 C29 1_555 1_555
C29 C30 1_555 1_555
C30 C25 1_555 1_555
C31 P7 1_555 1_555
H45 C31 1_555 1_555
H46 C31 1_555 1_555
C32 C26 1_555 1_555
H47 C32 1_555 1_555
H48 C32 1_555 1_555
H49 C32 1_555 1_555
C33 P8 1_555 1_555
H50 C33 1_555 1_555
H51 C33 1_555 1_555
C34 C28 1_555 1_555
H52 C34 1_555 1_555
H53 C34 1_555 1_555
H54 C34 1_555 1_555
C35 P9 1_555 1_555
H55 C35 1_555 1_555
H56 C35 1_555 1_555
C36 C30 1_555 1_555
H57 C36 1_555 1_555
H58 C36 1_555 1_555
H59 C36 1_555 1_555
O31 H60 1_555 1_555
H61 O31 1_555 1_555
O32 H62 1_555 1_555
H63 O32 1_555 1_555
Pb1_2 O11 1_555 1_555
Pb1A O26 1_555 1_555
Pb2A O26 1_555 1_555
Pb3_2 O22 1_555 1_555
Pb3_3 O15 1_555 1_555
Pb3A O19 1_555 1_555
Pb4_2 O11 1_555 1_555
Pb4A O1 1_555 1_555
Pb5_2 O12 1_555 1_555
O1A Pb4 1_555 1_555
O11_2 Pb1 1_555 1_555
O12_2 Pb1 1_555 1_555
O15_2 Pb3 1_555 1_555
O19A Pb3 1_555 1_555
O22_2 Pb3 1_555 1_555
O25A Pb4 1_555 1_555
O26A Pb1 1_555 1_555
O29_2 Pb4 1_555 1_555
Pb2 O7 1_555 1_555
Pb2 O26A 1_555 1_555
Pb4 O11_2 1_555 1_555
Pb5 O9 1_555 1_555
Pb5 O12_2 1_555 1_555
O7 P2 1_555 1_555
O9 P2 1_555 1_555
O12 Pb1_2 1_555 1_555
O14 P4 1_555 1_555
O17 P5 1_555 1_555
O18 P5 1_555 1_555
O24 P7 1_555 1_555
O25 Pb4A 1_555 1_555
O29 P9 1_555 1_555
O29 Pb4_2 1_555 1_555
O30 P9 1_555 1_555
C1 C7 1_555 1_555
C3 C9 1_555 1_555
C5 C11 1_555 1_555
C13 C19 1_555 1_555
C15 C21 1_555 1_555
C17 C23 1_555 1_555
C25 C31 1_555 1_555
C27 C33 1_555 1_555
C29 C35 1_555 1_555
Pb3_2 O29_2 1_555 1_555

#END
