
#######################################################################
#
#                 Cambridge Crystallographic Data Centre
#                                CCDC 
#
#######################################################################
#
# If this CIF has been generated from an entry in the Cambridge 
# Structural Database, then it will include bibliographic, chemical, 
# crystal, experimental, refinement or atomic coordinate data resulting 
# from the CCDC's data processing and validation procedures.
#
#######################################################################

data_LIVLUZ
_symmetry_cell_setting           orthorhombic
_symmetry_space_group_name_H-M   'P b c 21'
_symmetry_Int_Tables_number      29
_space_group_name_Hall           'P 2c -2b'
loop_
_symmetry_equiv_pos_site_id
_symmetry_equiv_pos_as_xyz
1 x,y,z
2 -x,-y,1/2+z
3 -x,1/2+y,z
4 x,1/2-y,1/2+z
_cell_length_a                   8.254(3)
_cell_length_b                   18.896(5)
_cell_length_c                   18.006(7)
_cell_angle_alpha                90
_cell_angle_beta                 90
_cell_angle_gamma                90
_cell_volume                     2808.35
loop_
_atom_site_label
_atom_site_type_symbol
_atom_site_fract_x
_atom_site_fract_y
_atom_site_fract_z
Cd1 Cd 0.51269(4) 0.97273(2) 0.90663(4)
O1 O 1.3732(5) 1.3639(2) 0.9388(3)
O2 O 1.2148(5) 1.4426(2) 0.8823(2)
O3 O -0.2417(5) 1.0016(2) 0.4339(2)
O4 O -0.4132(6) 1.0110(3) 0.5280(3)
N1 N 0.5751(6) 1.0889(3) 0.8990(4)
N2 N 0.7068(5) 1.1889(2) 0.9128(4)
N3 N 0.5439(7) 1.2051(3) 0.9198(5)
N4 N 0.4184(6) 0.9412(3) 0.7940(3)
N5 N 0.2549(6) 0.9374(3) 0.6968(3)
N6 N 0.3846(8) 0.8920(4) 0.6819(4)
C1 C 0.4627(6) 1.1419(3) 0.9121(6)
H1 H 0.3511 1.1359 0.9151
C2 C 0.7191(7) 1.1185(3) 0.8994(5)
H2 H 0.8160 1.0946 0.8915
C3 C 0.8385(7) 1.2375(3) 0.9142(5)
C4 C 0.9868(8) 1.2168(3) 0.9451(3)
H3 H 0.9985 1.1720 0.9658
C5 C 1.1158(7) 1.2636(3) 0.9445(4)
H4 H 1.2158 1.2494 0.9630
C6 C 1.0975(7) 1.3319(3) 0.9163(4)
C7 C 0.9468(8) 1.3525(3) 0.8877(3)
H5 H 0.9336 1.3978 0.8685
C8 C 0.8167(7) 1.3056(3) 0.8878(3)
H6 H 0.7159 1.3199 0.8702
C9 C 1.2370(6) 1.3828(3) 0.9118(5)
C10 C 0.4854(9) 0.8947(4) 0.7421(3)
H7 H 0.5820 0.8699 0.7475
C11 C 0.2826(7) 0.9648(3) 0.7655(4)
H8 H 0.2137 0.9964 0.7893
C12 C 0.1220(8) 0.9522(3) 0.6489(4)
C13 C 0.1529(8) 0.9639(4) 0.5741(4)
H9 H 0.2580 0.9613 0.5556
C14 C 0.0234(8) 0.9797(3) 0.5269(4)
H10 H 0.0424 0.9874 0.4767
C15 C -0.1340(8) 0.9839(3) 0.5545(4)
C16 C -0.1612(8) 0.9729(4) 0.6301(4)
H11 H -0.2661 0.9760 0.6487
C17 C -0.0339(8) 0.9572(3) 0.6783(4)
H12 H -0.0524 0.9502 0.7287
C18 C -0.2725(8) 0.9998(3) 0.5027(4)
Cd1A Cd -0.51269(4) 1.02727(2) 0.40663(4)
Cd1B Cd 1.48731(4) 1.47273(2) 0.90663(4)
O1B O 0.6268(5) 0.8639(2) 0.9388(3)
O2B O 0.7852(5) 0.9426(2) 0.8823(2)
O3A O 0.2417(5) 0.9984(2) 0.9339(2)
O4A O 0.4132(6) 0.9890(3) 1.0280(3)
O5 O 0.0647(8) 1.1172(3) 0.7783(3)
N7 N 0.0737(10) 1.2005(4) 0.6862(4)
C19 C 0.0276(14) 1.1527(4) 0.6245(5)
H13 H 0.0258 1.1788 0.5788
H14 H -0.0780 1.1334 0.6339
H15 H 0.1050 1.1149 0.6208
C20 C 0.0891(17) 1.2749(5) 0.6661(6)
H16 H 0.0790 1.2799 0.6132
H17 H 0.1930 1.2922 0.6816
H18 H 0.0053 1.3016 0.6902
C21 C 0.0809(11) 1.1784(5) 0.7574(5)
H19 H 0.0998 1.2125 0.7936
O6 O 0.6672(8) 1.2456(3) 0.5802(3)
N8 N 0.5655(8) 1.1639(3) 0.6611(3)
C22 C 0.4815(11) 1.0994(5) 0.6765(6)
H20 H 0.4864 1.0896 0.7288
H21 H 0.5314 1.0613 0.6496
H22 H 0.3704 1.1038 0.6615
C23 C 0.6452(13) 1.1941(6) 0.7253(5)
H23 H 0.6182 1.1669 0.7687
H24 H 0.6100 1.2421 0.7320
H25 H 0.7604 1.1932 0.7180
C24 C 0.5844(10) 1.1930(4) 0.5938(4)
H26 H 0.5307 1.1718 0.5543
loop_
_geom_bond_atom_site_label_1
_geom_bond_atom_site_label_2
_geom_bond_site_symmetry_1
_geom_bond_site_symmetry_2
Cd1 N1 1_555 1_555
O1 C9 1_555 1_555
O2 C9 1_555 1_555
O3 C18 1_555 1_555
O4 C18 1_555 1_555
N1 C1 1_555 1_555
N2 N3 1_555 1_555
N3 C1 1_555 1_555
N4 Cd1 1_555 1_555
N5 N6 1_555 1_555
N6 C10 1_555 1_555
C1 H1 1_555 1_555
C2 N1 1_555 1_555
H2 C2 1_555 1_555
C3 N2 1_555 1_555
C4 C3 1_555 1_555
H3 C4 1_555 1_555
C5 C4 1_555 1_555
H4 C5 1_555 1_555
C6 C5 1_555 1_555
C7 C6 1_555 1_555
H5 C7 1_555 1_555
C8 C3 1_555 1_555
H6 C8 1_555 1_555
C9 C6 1_555 1_555
C10 N4 1_555 1_555
H7 C10 1_555 1_555
C11 N4 1_555 1_555
H8 C11 1_555 1_555
C12 N5 1_555 1_555
C13 C12 1_555 1_555
H9 C13 1_555 1_555
C14 C13 1_555 1_555
H10 C14 1_555 1_555
C15 C14 1_555 1_555
C16 C15 1_555 1_555
H11 C16 1_555 1_555
C17 C12 1_555 1_555
H12 C17 1_555 1_555
C18 C15 1_555 1_555
O5 C21 1_555 1_555
N7 C19 1_555 1_555
C19 H13 1_555 1_555
H14 C19 1_555 1_555
H15 C19 1_555 1_555
C20 N7 1_555 1_555
H16 C20 1_555 1_555
H17 C20 1_555 1_555
H18 C20 1_555 1_555
C21 N7 1_555 1_555
H19 C21 1_555 1_555
O6 C24 1_555 1_555
N8 C22 1_555 1_555
C22 H20 1_555 1_555
H21 C22 1_555 1_555
H22 C22 1_555 1_555
C23 N8 1_555 1_555
H23 C23 1_555 1_555
H24 C23 1_555 1_555
H25 C23 1_555 1_555
C24 N8 1_555 1_555
H26 C24 1_555 1_555
Cd1A O3 1_555 1_555
Cd1B O1 1_555 1_555
O1B Cd1 1_555 1_555
O2B Cd1 1_555 1_555
O3A Cd1 1_555 1_555
O4A Cd1 1_555 1_555
O2 Cd1B 1_555 1_555
O4 Cd1A 1_555 1_555
N2 C2 1_555 1_555
N5 C11 1_555 1_555
C7 C8 1_555 1_555
C16 C17 1_555 1_555

#END
