
#######################################################################
#
#                 Cambridge Crystallographic Data Centre
#                                CCDC 
#
#######################################################################
#
# If this CIF has been generated from an entry in the Cambridge 
# Structural Database, then it will include bibliographic, chemical, 
# crystal, experimental, refinement or atomic coordinate data resulting 
# from the CCDC's data processing and validation procedures.
#
#######################################################################

data_LIVLAD
_symmetry_cell_setting           triclinic
_symmetry_space_group_name_H-M   'P -1'
_symmetry_Int_Tables_number      2
_space_group_name_Hall           '-P 1'
loop_
_symmetry_equiv_pos_site_id
_symmetry_equiv_pos_as_xyz
1 x,y,z
2 -x,-y,-z
_cell_length_a                   9.037(2)
_cell_length_b                   11.498(2)
_cell_length_c                   12.404(2)
_cell_angle_alpha                110.09(3)
_cell_angle_beta                 109.62(3)
_cell_angle_gamma                93.05(3)
_cell_volume                     1119.28
loop_
_atom_site_label
_atom_site_type_symbol
_atom_site_fract_x
_atom_site_fract_y
_atom_site_fract_z
Mn1 Mn 0.0000 0.0000 0.5000
O1 O 0.0837(4) 0.0113(4) 0.6929(3)
N1 N 0.2205(5) -0.0711(4) 0.4737(4)
N2 N 0.3586(5) -0.1743(4) 0.3682(4)
N3 N 0.1113(5) -0.8306(4) 0.0753(4)
N4 N 0.2499(6) -0.9170(5) 0.1945(5)
C1 C 0.2426(7) -0.1055(5) 0.3698(6)
C2 C 0.3278(8) -0.1237(7) 0.5442(6)
C3 C 0.4122(8) -0.1858(7) 0.4809(6)
C4 C 0.3981(7) -0.2394(5) 0.2615(6)
C5 C 0.3072(6) -0.3744(5) 0.1911(5)
C6 C 0.1653(7) -0.4164(6) 0.1999(6)
C7 C 0.0872(7) -0.5375(5) 0.1353(6)
C8 C 0.1456(7) -0.6252(5) 0.0589(5)
C9 C 0.2853(8) -0.5859(6) 0.0477(6)
C10 C 0.3659(7) -0.4604(5) 0.1149(6)
C11 C 0.0617(8) -0.7618(5) -0.0069(5)
C12 C 0.2557(7) -0.8619(5) 0.1177(6)
C13 C 0.0225(7) -0.8670(5) 0.1306(5)
C14 C 0.1017(6) -0.9218(5) 0.2021(5)
N5 N 0.1108(5) 0.2045(4) 0.5680(4)
N6 N 0.1662(5) 0.3928(4) 0.5713(4)
C15 C 0.1149(7) 0.2704(5) 0.5034(5)
C16 C 0.2029(7) 0.4074(5) 0.6920(6)
C17 C 0.1645(7) 0.2888(5) 0.6873(5)
C18 C 0.1941(7) 0.4918(5) 0.5279(7)
C19 C 0.3538(6) 0.4972(5) 0.5131(5)
C20 C 0.3648(6) 0.4271(5) 0.4015(6)
C21 C 0.4916(7) 0.5693(5) 0.6126(5)
O1A O -0.0837(4) -0.0113(4) 0.3071(3)
N1A N -0.2205(5) 0.0711(4) 0.5263(4)
C1A C -0.2426(7) 0.1055(5) 0.6302(6)
N2A N -0.3586(5) 0.1743(4) 0.6318(4)
C3A C -0.4122(8) 0.1858(7) 0.5191(6)
C2A C -0.3278(8) 0.1237(7) 0.4558(6)
C4A C -0.3981(7) 0.2394(5) 0.7385(6)
C5A C -0.3072(6) 0.3744(5) 0.8089(5)
C6A C -0.1653(7) 0.4164(6) 0.8001(6)
C7A C -0.0872(7) 0.5375(5) 0.8647(6)
C8A C -0.1456(7) 0.6252(5) 0.9411(5)
C9A C -0.2853(8) 0.5859(6) 0.9523(6)
C10A C -0.3659(7) 0.4604(5) 0.8851(6)
C11A C -0.0617(8) 0.7618(5) 1.0069(5)
N3A N -0.1113(5) 0.8306(4) 0.9247(4)
C12A C -0.2557(7) 0.8619(5) 0.8823(6)
N4A N -0.2499(6) 0.9170(5) 0.8055(5)
C14A C -0.1017(6) 0.9218(5) 0.7979(5)
C13A C -0.0225(7) 0.8670(5) 0.8694(5)
C21A C 0.5084(7) 0.4307(5) 0.3874(5)
C19A C 0.6462(6) 0.5028(5) 0.4869(5)
C18A C 0.8059(7) 0.5082(5) 0.4721(7)
N6A N 0.8338(5) 0.6072(4) 0.4287(4)
C15A C 0.8851(7) 0.7296(5) 0.4966(5)
N5A N 0.8892(5) 0.7955(4) 0.4320(4)
Mn1A Mn 1.0000 1.0000 0.5000
C17A C 0.8355(7) 0.7112(5) 0.3127(5)
C16A C 0.7971(7) 0.5926(5) 0.3080(6)
C20A C 0.6352(6) 0.5729(5) 0.5985(6)
N5A_2 N -0.1108(5) -0.2045(4) 0.4320(4)
O2 O 0.6245(7) -0.0106(5) 0.1547(5)
N7 N 0.6718(11) 0.2837(9) 0.1030(10)
O3 O 0.6855(13) 0.2452(10) 0.1778(11)
O4 O 0.6193(15) 0.2081(12) 0.0098(12)
loop_
_geom_bond_atom_site_label_1
_geom_bond_atom_site_label_2
_geom_bond_site_symmetry_1
_geom_bond_site_symmetry_2
Mn1 O1 1_555 1_555
N1 Mn1 1_555 1_555
N2 C1 1_555 1_555
N3 C11 1_555 1_555
N4 C12 1_555 1_555
C1 N1 1_555 1_555
C2 N1 1_555 1_555
C3 N2 1_555 1_555
C4 N2 1_555 1_555
C5 C4 1_555 1_555
C6 C5 1_555 1_555
C7 C6 1_555 1_555
C8 C7 1_555 1_555
C9 C8 1_555 1_555
C10 C5 1_555 1_555
C11 C8 1_555 1_555
C12 N3 1_555 1_555
C13 N3 1_555 1_555
C14 N4 1_555 1_555
N5 Mn1 1_555 1_555
N6 C15 1_555 1_555
C15 N5 1_555 1_555
C16 N6 1_555 1_555
C17 N5 1_555 1_555
C18 N6 1_555 1_555
C19 C18 1_555 1_555
C20 C19 1_555 1_555
C21 C19 1_555 1_555
N7 O3 1_555 1_555
O4 N7 1_555 1_555
O1A Mn1 1_555 1_555
N1A Mn1 1_555 1_555
C1A N1A 1_555 1_555
N2A C1A 1_555 1_555
C3A N2A 1_555 1_555
C2A N1A 1_555 1_555
C4A N2A 1_555 1_555
C5A C4A 1_555 1_555
C6A C5A 1_555 1_555
C7A C6A 1_555 1_555
C8A C7A 1_555 1_555
C9A C8A 1_555 1_555
C10A C5A 1_555 1_555
C11A C8A 1_555 1_555
N3A C11A 1_555 1_555
C12A N3A 1_555 1_555
N4A C12A 1_555 1_555
C14A N4A 1_555 1_555
C13A N3A 1_555 1_555
C21A C20 1_555 1_555
C19A C21A 1_555 1_555
C18A C19A 1_555 1_555
N6A C18A 1_555 1_555
C15A N6A 1_555 1_555
N5A C15A 1_555 1_555
Mn1A N5A 1_555 1_555
C17A N5A 1_555 1_555
C16A N6A 1_555 1_555
C20A C21 1_555 1_555
N5A_2 Mn1 1_555 1_555
C2 C3 1_555 1_555
C9 C10 1_555 1_555
C13 C14 1_555 1_555
C16 C17 1_555 1_555
C3A C2A 1_555 1_555
C9A C10A 1_555 1_555
C14A C13A 1_555 1_555
C19A C20A 1_555 1_555
C17A C16A 1_555 1_555

#END
