
#######################################################################
#
#                 Cambridge Crystallographic Data Centre
#                                CCDC 
#
#######################################################################
#
# If this CIF has been generated from an entry in the Cambridge 
# Structural Database, then it will include bibliographic, chemical, 
# crystal, experimental, refinement or atomic coordinate data resulting 
# from the CCDC's data processing and validation procedures.
#
#######################################################################

data_LIVMUA
_symmetry_cell_setting           monoclinic
_symmetry_space_group_name_H-M   'P 21/n'
_symmetry_Int_Tables_number      14
_space_group_name_Hall           '-P 2yn'
loop_
_symmetry_equiv_pos_site_id
_symmetry_equiv_pos_as_xyz
1 x,y,z
2 1/2-x,1/2+y,1/2-z
3 -x,-y,-z
4 1/2+x,1/2-y,1/2+z
_cell_length_a                   6.6668(7)
_cell_length_b                   32.418(3)
_cell_length_c                   12.6922(13)
_cell_angle_alpha                90
_cell_angle_beta                 97.5400(10)
_cell_angle_gamma                90
_cell_volume                     2719.37
loop_
_atom_site_label
_atom_site_type_symbol
_atom_site_fract_x
_atom_site_fract_y
_atom_site_fract_z
C1 C 1.9346(5) 0.10278(10) 1.2669(3)
H1 H 1.9809 0.1037 1.2010
C2 C 2.0506(6) 0.12148(12) 1.3528(3)
H2 H 2.1726 0.1341 1.3442
C3 C 1.9839(6) 0.12103(13) 1.4488(3)
H3 H 2.0588 0.1340 1.5064
C4 C 1.8021(5) 0.10103(11) 1.4622(3)
C5 C 1.6945(4) 0.08180(9) 1.3712(2)
C6 C 1.7237(7) 0.09884(14) 1.5613(3)
H4 H 1.7921 0.1120 1.6206
C7 C 1.5530(6) 0.07817(14) 1.5704(3)
H5 H 1.5044 0.0775 1.6358
C8 C 1.4435(5) 0.05711(12) 1.4815(3)
C9 C 1.5125(5) 0.05928(9) 1.3811(2)
C10 C 1.2696(6) 0.03395(15) 1.4885(3)
H6 H 1.2210 0.0313 1.5536
C11 C 1.1707(6) 0.01530(14) 1.4011(3)
H7 H 1.0550 -0.0002 1.4059
C12 C 1.2458(5) 0.01975(11) 1.3026(3)
H8 H 1.1758 0.0074 1.2427
C13 C 1.4089(4) 0.13796(9) 1.0829(2)
C14 C 1.3131(5) 0.17862(9) 1.0472(2)
C15 C 1.1330(5) 0.19222(11) 1.0837(3)
H9 H 1.0834 0.1763 1.1355
C16 C 1.3885(5) 0.20207(10) 0.9731(3)
H10 H 1.5090 0.1946 0.9487
C17 C 1.2832(5) 0.23821(10) 0.9327(3)
C18 C 1.1033(5) 0.24817(11) 0.9742(3)
C19 C 0.9895(7) 0.28329(12) 0.9319(4)
H11 H 0.8720 0.2908 0.9592
C20 C 1.3454(6) 0.26239(12) 0.8502(4)
H12 H 1.4644 0.2560 0.8228
C21 C 1.0530(7) 0.30553(13) 0.8523(4)
H13 H 0.9774 0.3281 0.8248
C22 C 1.2311(7) 0.29510(12) 0.8106(4)
H14 H 1.2715 0.3106 0.7555
C23 C 1.3197(4) 0.03515(9) 0.8509(2)
C24 C 1.0303(4) 0.05699(8) 1.0072(2)
C25 C 1.2112(4) 0.07617(9) 0.8478(2)
C26 C 1.0531(4) 0.08354(9) 0.9120(2)
C27 C 0.9342(4) 0.11747(10) 0.8889(2)
H15 H 0.8233 0.1220 0.9248
C28 C 0.9794(5) 0.14576(10) 0.8104(2)
C29 C 1.1546(5) 0.13825(10) 0.7607(2)
C30 C 1.2155(6) 0.16801(10) 0.6889(3)
H16 H 1.3329 0.1639 0.6580
C31 C 1.1019(7) 0.20251(11) 0.6654(3)
H17 H 1.1436 0.2220 0.6191
C32 C 0.9247(7) 0.20900(12) 0.7095(3)
H18 H 0.8458 0.2321 0.6898
C33 C 0.8651(6) 0.18193(11) 0.7814(3)
H19 H 0.7482 0.1872 0.8118
N1 N 1.7608(3) 0.08366(7) 1.27451(19)
N2 N 1.4119(4) 0.04084(8) 1.2925(2)
N3 N 1.0290(5) 0.22541(10) 1.0508(3)
N4 N 1.2627(4) 0.10228(8) 0.77637(19)
O1 O 1.3396(3) 0.11748(7) 1.15343(18)
O2 O 1.5525(4) 0.12467(7) 1.0369(2)
O3 O 0.8638(3) 0.05762(6) 1.04301(17)
O4 O 1.1827(3) 0.03752(6) 1.04884(16)
O5 O 1.2421(3) 0.00745(6) 0.79143(17)
O6 O 1.4864(3) 0.02993(6) 0.91217(15)
Ce1 Ce 1.54314(2) 0.051611(5) 1.105556(12)
O3_2 O 1.8638(3) 0.05762(6) 1.04301(17)
O5B O 1.7579(3) -0.00745(6) 1.20857(17)
O6B O 1.5136(3) -0.02993(6) 1.08783(15)
Ce1_2 Ce 0.54314(2) 0.051611(5) 1.105556(12)
Ce1B Ce 1.45686(2) -0.051611(5) 0.894444(12)
loop_
_geom_bond_atom_site_label_1
_geom_bond_atom_site_label_2
_geom_bond_site_symmetry_1
_geom_bond_site_symmetry_2
C1 H1 1_555 1_555
C2 C1 1_555 1_555
H2 C2 1_555 1_555
C3 C2 1_555 1_555
H3 C3 1_555 1_555
C4 C3 1_555 1_555
C5 C4 1_555 1_555
C6 C4 1_555 1_555
H4 C6 1_555 1_555
C7 C6 1_555 1_555
H5 C7 1_555 1_555
C8 C7 1_555 1_555
C9 C5 1_555 1_555
C10 C8 1_555 1_555
H6 C10 1_555 1_555
C11 C10 1_555 1_555
H7 C11 1_555 1_555
C12 C11 1_555 1_555
H8 C12 1_555 1_555
C13 C14 1_555 1_555
C14 C15 1_555 1_555
C15 H9 1_555 1_555
C16 C14 1_555 1_555
H10 C16 1_555 1_555
C17 C16 1_555 1_555
C18 C17 1_555 1_555
C19 C18 1_555 1_555
H11 C19 1_555 1_555
C20 C17 1_555 1_555
H12 C20 1_555 1_555
C21 C19 1_555 1_555
H13 C21 1_555 1_555
C22 C20 1_555 1_555
H14 C22 1_555 1_555
C23 C25 1_555 1_555
C24 C26 1_555 1_555
C25 C26 1_555 1_555
C26 C27 1_555 1_555
C27 H15 1_555 1_555
C28 C27 1_555 1_555
C29 C28 1_555 1_555
C30 C29 1_555 1_555
H16 C30 1_555 1_555
C31 C30 1_555 1_555
H17 C31 1_555 1_555
C32 C31 1_555 1_555
H18 C32 1_555 1_555
C33 C28 1_555 1_555
H19 C33 1_555 1_555
N1 C1 1_555 1_555
N2 C9 1_555 1_555
N3 C15 1_555 1_555
N4 C25 1_555 1_555
O1 C13 1_555 1_555
O2 C13 1_555 1_555
O3 C24 1_555 1_555
O4 C24 1_555 1_555
O5 C23 1_555 1_555
O6 C23 1_555 1_555
Ce1 N1 1_555 1_555
O3_2 Ce1 1_555 1_555
O5B Ce1 1_555 1_555
O6B Ce1 1_555 1_555
Ce1_2 O3 1_555 1_555
Ce1B O5 1_555 1_555
C5 N1 1_555 1_555
C8 C9 1_555 1_555
C12 N2 1_555 1_555
C18 N3 1_555 1_555
C21 C22 1_555 1_555
C29 N4 1_555 1_555
C32 C33 1_555 1_555
N2 Ce1 1_555 1_555
O1 Ce1 1_555 1_555
O2 Ce1 1_555 1_555
O4 Ce1 1_555 1_555
O6 Ce1 1_555 1_555
O6 Ce1B 1_555 1_555
O6B Ce1B 1_555 1_555

#END
