
#######################################################################
#
#                 Cambridge Crystallographic Data Centre
#                                CCDC 
#
#######################################################################
#
# If this CIF has been generated from an entry in the Cambridge 
# Structural Database, then it will include bibliographic, chemical, 
# crystal, experimental, refinement or atomic coordinate data resulting 
# from the CCDC's data processing and validation procedures.
#
#######################################################################

data_LIVMIO
_symmetry_cell_setting           monoclinic
_symmetry_space_group_name_H-M   'P 21/n'
_symmetry_Int_Tables_number      14
_space_group_name_Hall           '-P 2yn'
loop_
_symmetry_equiv_pos_site_id
_symmetry_equiv_pos_as_xyz
1 x,y,z
2 1/2-x,1/2+y,1/2-z
3 -x,-y,-z
4 1/2+x,1/2-y,1/2+z
_cell_length_a                   6.6809(6)
_cell_length_b                   32.422(3)
_cell_length_c                   12.6599(11)
_cell_angle_alpha                90
_cell_angle_beta                 97.5340(10)
_cell_angle_gamma                90
_cell_volume                     2718.56
loop_
_atom_site_label
_atom_site_type_symbol
_atom_site_fract_x
_atom_site_fract_y
_atom_site_fract_z
C1 C -0.0640(5) 0.10269(10) 0.2705(3)
H1 H -0.0179 0.1035 0.2043
C2 C 0.0522(5) 0.12155(12) 0.3566(3)
H2 H 0.1733 0.1345 0.3480
C3 C -0.0142(6) 0.12068(13) 0.4525(3)
H3 H 0.0609 0.1334 0.5104
C4 C -0.1947(5) 0.10084(11) 0.4659(3)
C5 C -0.3023(4) 0.08190(9) 0.3752(2)
C6 C -0.2734(6) 0.09874(14) 0.5651(3)
H4 H -0.2049 0.1119 0.6245
C7 C -0.4430(6) 0.07838(15) 0.5744(3)
H5 H -0.4910 0.0778 0.6401
C8 C -0.5532(6) 0.05738(12) 0.4859(3)
C9 C -0.4846(5) 0.05959(9) 0.3849(2)
C10 C -0.7269(6) 0.03433(15) 0.4933(3)
H6 H -0.7752 0.0316 0.5586
C11 C -0.8255(6) 0.01587(14) 0.4056(3)
H7 H -0.9412 0.0004 0.4104
C12 C -0.7520(5) 0.02023(11) 0.3072(3)
H8 H -0.8227 0.0079 0.2472
C13 C -0.5898(4) 0.13867(9) 0.0847(2)
C14 C -0.6858(5) 0.17911(9) 0.0495(2)
C15 C -0.8654(5) 0.19238(10) 0.0861(3)
H9 H -0.9148 0.1763 0.1378
C16 C -0.8953(5) 0.24854(10) -0.0232(3)
C17 C -0.7164(5) 0.23872(10) -0.0645(3)
C18 C -0.6116(5) 0.20279(10) -0.0245(3)
H10 H -0.4915 0.1954 -0.0492
C19 C -0.6540(7) 0.26338(12) -0.1471(4)
H11 H -0.5343 0.2574 -0.1740
C20 C -0.7692(7) 0.29554(13) -0.1862(4)
H12 H -0.7303 0.3110 -0.2419
C21 C -0.9460(7) 0.30595(12) -0.1443(4)
H13 H -1.0213 0.3286 -0.1716
C22 C -1.0089(7) 0.28383(12) -0.0651(4)
H14 H -1.1259 0.2914 -0.0375
C23 C -0.6807(4) 0.03533(8) -0.1493(2)
C24 C -0.9695(4) 0.05721(8) 0.0077(2)
C25 C -0.7881(4) 0.07655(8) -0.1516(2)
C26 C -0.9457(4) 0.08376(9) -0.0872(2)
C27 C -1.0630(4) 0.11793(10) -0.1091(2)
H15 H -1.1731 0.1225 -0.0727
C28 C -1.0173(5) 0.14643(9) -0.1873(2)
C29 C -0.8447(5) 0.13888(9) -0.2375(2)
C30 C -0.7830(6) 0.16877(10) -0.3088(2)
H16 H -0.6658 0.1646 -0.3397
C31 C -0.8951(8) 0.20333(11) -0.3320(3)
H17 H -0.8530 0.2229 -0.3780
C32 C -1.0729(8) 0.20974(12) -0.2872(3)
H18 H -1.1520 0.2328 -0.3067
C33 C -1.1315(6) 0.18248(11) -0.2153(3)
H19 H -1.2478 0.1876 -0.1843
N1 N -0.2365(3) 0.08367(7) 0.27822(18)
N2 N -0.5858(4) 0.04120(8) 0.29655(19)
N3 N -0.9694(5) 0.22559(10) 0.0534(3)
N4 N -0.7370(4) 0.10286(8) -0.22236(18)
O1 O -0.4450(4) 0.12573(7) 0.0397(2)
O2 O -0.6611(3) 0.11779(7) 0.15450(18)
O3 O -0.5149(3) 0.03015(6) -0.08860(14)
O4 O -0.7591(3) 0.00791(6) -0.20961(16)
O5 O -0.8177(3) 0.03730(6) 0.04898(15)
O6 O -1.1342(3) 0.05799(6) 0.04374(17)
La1 La -0.45634(2) 0.051763(4) 0.106981(11)
O3B O -0.4851(3) -0.03015(6) 0.08860(14)
O4B O -0.2409(3) -0.00791(6) 0.20961(16)
O6_2 O -0.1342(3) 0.05799(6) 0.04374(17)
La1_2 La -1.45634(2) 0.051763(4) 0.106981(11)
La1B La -0.54366(2) -0.051763(4) -0.106981(11)
loop_
_geom_bond_atom_site_label_1
_geom_bond_atom_site_label_2
_geom_bond_site_symmetry_1
_geom_bond_site_symmetry_2
C1 H1 1_555 1_555
C2 C1 1_555 1_555
H2 C2 1_555 1_555
C3 C2 1_555 1_555
H3 C3 1_555 1_555
C4 C3 1_555 1_555
C5 C4 1_555 1_555
C6 C4 1_555 1_555
H4 C6 1_555 1_555
C7 C6 1_555 1_555
H5 C7 1_555 1_555
C8 C7 1_555 1_555
C9 C5 1_555 1_555
C10 C8 1_555 1_555
H6 C10 1_555 1_555
C11 C10 1_555 1_555
H7 C11 1_555 1_555
C12 C11 1_555 1_555
H8 C12 1_555 1_555
C13 C14 1_555 1_555
C14 C15 1_555 1_555
C15 H9 1_555 1_555
C16 C17 1_555 1_555
C17 C18 1_555 1_555
C18 C14 1_555 1_555
H10 C18 1_555 1_555
C19 C17 1_555 1_555
H11 C19 1_555 1_555
C20 C19 1_555 1_555
H12 C20 1_555 1_555
C21 C20 1_555 1_555
H13 C21 1_555 1_555
C22 C16 1_555 1_555
H14 C22 1_555 1_555
C23 C25 1_555 1_555
C24 C26 1_555 1_555
C25 C26 1_555 1_555
C26 C27 1_555 1_555
C27 H15 1_555 1_555
C28 C27 1_555 1_555
C29 C28 1_555 1_555
C30 C29 1_555 1_555
H16 C30 1_555 1_555
C31 C30 1_555 1_555
H17 C31 1_555 1_555
C32 C31 1_555 1_555
H18 C32 1_555 1_555
C33 C28 1_555 1_555
H19 C33 1_555 1_555
N1 C1 1_555 1_555
N2 C9 1_555 1_555
N3 C15 1_555 1_555
N4 C25 1_555 1_555
O1 C13 1_555 1_555
O2 C13 1_555 1_555
O3 C23 1_555 1_555
O4 C23 1_555 1_555
O5 C24 1_555 1_555
O6 C24 1_555 1_555
La1 N1 1_555 1_555
O3B La1 1_555 1_555
O4B La1 1_555 1_555
O6_2 La1 1_555 1_555
La1_2 O6 1_555 1_555
La1B O3 1_555 1_555
C5 N1 1_555 1_555
C8 C9 1_555 1_555
C12 N2 1_555 1_555
C16 N3 1_555 1_555
C21 C22 1_555 1_555
C29 N4 1_555 1_555
C32 C33 1_555 1_555
N2 La1 1_555 1_555
O1 La1 1_555 1_555
O2 La1 1_555 1_555
O3 La1 1_555 1_555
O4 La1B 1_555 1_555
O5 La1 1_555 1_555
O3B La1B 1_555 1_555

#END
