
#######################################################################
#
#                 Cambridge Crystallographic Data Centre
#                                CCDC 
#
#######################################################################
#
# If this CIF has been generated from an entry in the Cambridge 
# Structural Database, then it will include bibliographic, chemical, 
# crystal, experimental, refinement or atomic coordinate data resulting 
# from the CCDC's data processing and validation procedures.
#
#######################################################################

data_LIVMEK
_symmetry_cell_setting           monoclinic
_symmetry_space_group_name_H-M   'P 21/n'
_symmetry_Int_Tables_number      14
_space_group_name_Hall           '-P 2yn'
loop_
_symmetry_equiv_pos_site_id
_symmetry_equiv_pos_as_xyz
1 x,y,z
2 1/2-x,1/2+y,1/2-z
3 -x,-y,-z
4 1/2+x,1/2-y,1/2+z
_cell_length_a                   6.5540(4)
_cell_length_b                   31.987(2)
_cell_length_c                   12.8672(8)
_cell_angle_alpha                90
_cell_angle_beta                 97.1280(10)
_cell_angle_gamma                90
_cell_volume                     2676.67
loop_
_atom_site_label
_atom_site_type_symbol
_atom_site_fract_x
_atom_site_fract_y
_atom_site_fract_z
C1 C 0.2290(10) 0.0168(2) 0.2809(6)
H1 H 0.1628 0.0045 0.2204
C2 C 0.1464(12) 0.0109(3) 0.3744(7)
H2 H 0.0291 -0.0053 0.3765
C3 C 0.2406(14) 0.0291(4) 0.4614(7)
H3 H 0.1874 0.0253 0.5244
C4 C 0.4170(13) 0.0538(3) 0.4597(6)
C5 C 0.5234(14) 0.0754(3) 0.5493(6)
H4 H 0.4719 0.0740 0.6134
C6 C 0.6929(15) 0.0972(3) 0.5416(6)
H5 H 0.7576 0.1107 0.6007
C7 C 0.7783(11) 0.1004(2) 0.4462(6)
C8 C 0.9680(13) 0.1206(3) 0.4359(6)
H6 H 1.0445 0.1323 0.4944
C9 C 1.0370(12) 0.1227(2) 0.3425(6)
H7 H 1.1597 0.1365 0.3356
C10 C 0.9243(10) 0.1042(2) 0.2554(5)
H8 H 0.9748 0.1057 0.1911
C11 C 0.6771(9) 0.08107(17) 0.3551(4)
C12 C 0.4917(9) 0.05770(18) 0.3621(5)
C13 C 0.1228(10) 0.19250(19) 0.0727(5)
H9 H 0.0732 0.1774 0.1260
C14 C 0.3038(9) 0.17773(17) 0.0358(5)
C15 C 0.3770(10) 0.20007(19) -0.0398(5)
H10 H 0.4973 0.1917 -0.0653
C16 C 0.2721(10) 0.23642(19) -0.0813(5)
C17 C 0.3343(13) 0.2594(2) -0.1667(6)
H11 H 0.4532 0.2519 -0.1947
C18 C 0.2199(14) 0.2925(2) -0.2074(7)
H12 H 0.2608 0.3075 -0.2632
C19 C 0.0416(14) 0.3037(2) -0.1655(7)
H13 H -0.0350 0.3263 -0.1943
C20 C -0.0232(12) 0.2829(2) -0.0847(6)
H14 H -0.1417 0.2913 -0.0576
C21 C 0.0921(10) 0.24771(19) -0.0409(5)
C22 C 0.3988(8) 0.13682(16) 0.0727(4)
C23 C 0.2115(7) 0.07493(15) -0.1545(4)
C24 C 0.0470(8) 0.08260(16) -0.0928(4)
C25 C -0.0770(9) 0.11623(19) -0.1210(4)
H15 H -0.1917 0.1211 -0.0868
C26 C -0.0326(10) 0.14325(19) -0.2006(4)
C27 C -0.1538(13) 0.1788(2) -0.2330(6)
H16 H -0.2745 0.1839 -0.2040
C28 C -0.0952(15) 0.2055(2) -0.3061(6)
H17 H -0.1782 0.2282 -0.3280
C29 C 0.0874(14) 0.1992(2) -0.3487(5)
H18 H 0.1292 0.2186 -0.3956
C30 C 0.2053(13) 0.16488(19) -0.3222(5)
H19 H 0.3257 0.1608 -0.3522
C31 C 0.1469(9) 0.13537(18) -0.2494(4)
C32 C 0.3258(7) 0.03366(16) -0.1448(4)
C33 C 0.0263(8) 0.05762(15) 0.0038(4)
N1 N 0.3971(7) 0.03908(15) 0.2735(4)
N2 N 0.7457(7) 0.08428(14) 0.2609(4)
N3 N 0.0189(9) 0.22574(18) 0.0380(5)
N4 N 0.2614(8) 0.09998(15) -0.2290(3)
O1 O 0.3351(6) 0.11768(13) 0.1476(3)
O2 O 0.5382(7) 0.12164(13) 0.0251(4)
O3 O 0.1848(5) 0.03888(12) 0.0462(3)
O4 O -0.1421(6) 0.05803(12) 0.0401(3)
O5 O 0.4934(5) 0.02932(12) -0.0836(3)
O6 O 0.2476(6) 0.00435(12) -0.2000(3)
Eu1 Eu 0.53853(4) 0.051792(7) 0.099681(19)
O4_2 O 0.8579(6) 0.05803(12) 0.0401(3)
O5B O 0.5066(5) -0.02932(12) 0.0836(3)
O6B O 0.7524(6) -0.00435(12) 0.2000(3)
Eu1_2 Eu -0.46147(4) 0.051792(7) 0.099681(19)
Eu1B Eu 0.46147(4) -0.051792(7) -0.099681(19)
loop_
_geom_bond_atom_site_label_1
_geom_bond_atom_site_label_2
_geom_bond_site_symmetry_1
_geom_bond_site_symmetry_2
C1 H1 1_555 1_555
C2 C1 1_555 1_555
H2 C2 1_555 1_555
C3 C2 1_555 1_555
H3 C3 1_555 1_555
C4 C3 1_555 1_555
C5 C4 1_555 1_555
H4 C5 1_555 1_555
C6 C5 1_555 1_555
H5 C6 1_555 1_555
C7 C6 1_555 1_555
C8 C7 1_555 1_555
H6 C8 1_555 1_555
C9 C8 1_555 1_555
H7 C9 1_555 1_555
C10 C9 1_555 1_555
H8 C10 1_555 1_555
C11 C7 1_555 1_555
C12 C4 1_555 1_555
C13 H9 1_555 1_555
C14 C13 1_555 1_555
C15 C14 1_555 1_555
H10 C15 1_555 1_555
C16 C15 1_555 1_555
C17 C16 1_555 1_555
H11 C17 1_555 1_555
C18 C17 1_555 1_555
H12 C18 1_555 1_555
C19 C18 1_555 1_555
H13 C19 1_555 1_555
C20 C19 1_555 1_555
H14 C20 1_555 1_555
C21 C16 1_555 1_555
C22 C14 1_555 1_555
C23 C24 1_555 1_555
C24 C25 1_555 1_555
C25 H15 1_555 1_555
C26 C25 1_555 1_555
C27 C26 1_555 1_555
H16 C27 1_555 1_555
C28 C27 1_555 1_555
H17 C28 1_555 1_555
C29 C28 1_555 1_555
H18 C29 1_555 1_555
C30 C29 1_555 1_555
H19 C30 1_555 1_555
C31 C26 1_555 1_555
C32 C23 1_555 1_555
C33 C24 1_555 1_555
N1 C1 1_555 1_555
N2 C10 1_555 1_555
N3 C13 1_555 1_555
N4 C23 1_555 1_555
O1 C22 1_555 1_555
O2 C22 1_555 1_555
O3 C33 1_555 1_555
O4 C33 1_555 1_555
O5 C32 1_555 1_555
O6 C32 1_555 1_555
Eu1 N1 1_555 1_555
O4_2 Eu1 1_555 1_555
O5B Eu1 1_555 1_555
O6B Eu1 1_555 1_555
Eu1_2 O4 1_555 1_555
Eu1B O5 1_555 1_555
C11 C12 1_555 1_555
C11 N2 1_555 1_555
C12 N1 1_555 1_555
C20 C21 1_555 1_555
C21 N3 1_555 1_555
C30 C31 1_555 1_555
C31 N4 1_555 1_555
N2 Eu1 1_555 1_555
O1 Eu1 1_555 1_555
O2 Eu1 1_555 1_555
O3 Eu1 1_555 1_555
O5 Eu1 1_555 1_555
O6 Eu1B 1_555 1_555
O5B Eu1B 1_555 1_555

#END
