
#######################################################################
#
#                 Cambridge Crystallographic Data Centre
#                                CCDC 
#
#######################################################################
#
# If this CIF has been generated from an entry in the Cambridge 
# Structural Database, then it will include bibliographic, chemical, 
# crystal, experimental, refinement or atomic coordinate data resulting 
# from the CCDC's data processing and validation procedures.
#
#######################################################################

data_LIVMAG
_symmetry_cell_setting           monoclinic
_symmetry_space_group_name_H-M   'P 21/n'
_symmetry_Int_Tables_number      14
_space_group_name_Hall           '-P 2yn'
loop_
_symmetry_equiv_pos_site_id
_symmetry_equiv_pos_as_xyz
1 x,y,z
2 1/2-x,1/2+y,1/2-z
3 -x,-y,-z
4 1/2+x,1/2-y,1/2+z
_cell_length_a                   6.5612(13)
_cell_length_b                   32.051(6)
_cell_length_c                   12.817(3)
_cell_angle_alpha                90
_cell_angle_beta                 97.14(3)
_cell_angle_gamma                90
_cell_volume                     2674.42
loop_
_atom_site_label
_atom_site_type_symbol
_atom_site_fract_x
_atom_site_fract_y
_atom_site_fract_z
C1 C 0.2327(5) 0.01724(11) 0.2842(3)
H1 H 0.1657 0.0048 0.2240
C2 C 0.1534(6) 0.01178(15) 0.3790(3)
H2 H 0.0363 -0.0043 0.3818
C3 C 0.2483(6) 0.03017(16) 0.4675(3)
H3 H 0.1971 0.0263 0.5313
C4 C 0.4227(5) 0.05489(12) 0.4632(2)
C5 C 0.5301(7) 0.07615(14) 0.5528(3)
H4 H 0.4791 0.0748 0.6173
C6 C 0.7000(7) 0.09752(13) 0.5450(3)
H5 H 0.7661 0.1108 0.6043
C7 C 0.7842(5) 0.10063(10) 0.4481(2)
C8 C 0.9683(6) 0.12120(11) 0.4377(3)
H6 H 1.0417 0.1340 0.4958
C9 C 1.0399(5) 0.12261(11) 0.3436(3)
H7 H 1.1635 0.1359 0.3367
C10 C 0.9263(4) 0.10388(9) 0.2568(2)
H8 H 0.9761 0.1052 0.1920
C11 C 0.6801(4) 0.08156(8) 0.3574(2)
C12 C 0.4963(4) 0.05808(9) 0.3655(2)
C13 C 0.1242(5) 0.19216(9) 0.0740(3)
H9 H 0.0741 0.1767 0.1267
C14 C 0.3061(4) 0.17783(8) 0.0371(2)
C15 C 0.3801(5) 0.20053(9) -0.0387(3)
H10 H 0.5005 0.1923 -0.0642
C16 C 0.2754(5) 0.23693(9) -0.0797(2)
C17 C 0.3377(6) 0.26036(10) -0.1633(3)
H11 H 0.4583 0.2534 -0.1904
C18 C 0.2230(6) 0.29300(11) -0.2045(3)
H12 H 0.2636 0.3078 -0.2608
C19 C 0.0433(7) 0.30453(11) -0.1626(3)
H13 H -0.0332 0.3272 -0.1904
C20 C -0.0191(6) 0.28278(10) -0.0819(3)
H14 H -0.1377 0.2909 -0.0544
C21 C 0.0939(5) 0.24763(9) -0.0384(3)
C22 C 0.4018(4) 0.13698(8) 0.0744(2)
C23 C 0.2111(4) 0.07508(7) -0.15360(18)
C24 C 0.0492(4) 0.08272(7) -0.09227(19)
C25 C -0.0764(4) 0.11620(8) -0.1190(2)
H15 H -0.1912 0.1208 -0.0847
C26 C -0.0305(5) 0.14384(8) -0.1990(2)
C27 C -0.1507(6) 0.17946(10) -0.2304(3)
H16 H -0.2712 0.1846 -0.2012
C28 C -0.0902(7) 0.20636(10) -0.3035(3)
H17 H -0.1718 0.2293 -0.3247
C29 C 0.0918(7) 0.19990(10) -0.3464(3)
H18 H 0.1344 0.2193 -0.3932
C30 C 0.2084(5) 0.16514(9) -0.3201(2)
H19 H 0.3285 0.1607 -0.3502
C31 C 0.1469(4) 0.13600(8) -0.24739(19)
C32 C 0.3241(4) 0.03370(7) -0.14661(19)
C33 C 0.0267(3) 0.05732(7) 0.00431(18)
N1 N 0.4002(3) 0.03953(7) 0.27657(18)
N2 N 0.7498(3) 0.08424(6) 0.26282(17)
N3 N 0.0200(4) 0.22563(8) 0.0399(2)
N4 N 0.2616(3) 0.10017(6) -0.22776(16)
O1 O 0.3359(3) 0.11759(6) 0.14797(16)
O2 O 0.5413(3) 0.12220(6) 0.02705(18)
O3 O 0.1845(2) 0.03856(5) 0.04654(14)
O4 O -0.1409(3) 0.05774(6) 0.04027(15)
O5 O 0.4902(3) 0.02921(5) -0.08452(13)
O6 O 0.2472(3) 0.00487(5) -0.20189(15)
Sm1 Sm 0.539585(17) 0.051748(3) 0.100612(9)
O4_2 O 0.8591(3) 0.05774(6) 0.04027(15)
O5B O 0.5098(3) -0.02921(5) 0.08452(13)
O6B O 0.7528(3) -0.00487(5) 0.20189(15)
Sm1_2 Sm -0.460415(17) 0.051748(3) 0.100612(9)
Sm1B Sm 0.460415(17) -0.051748(3) -0.100612(9)
loop_
_geom_bond_atom_site_label_1
_geom_bond_atom_site_label_2
_geom_bond_site_symmetry_1
_geom_bond_site_symmetry_2
C1 H1 1_555 1_555
C2 C1 1_555 1_555
H2 C2 1_555 1_555
C3 C2 1_555 1_555
H3 C3 1_555 1_555
C4 C3 1_555 1_555
C5 C4 1_555 1_555
H4 C5 1_555 1_555
C6 C5 1_555 1_555
H5 C6 1_555 1_555
C7 C6 1_555 1_555
C8 C7 1_555 1_555
H6 C8 1_555 1_555
C9 C8 1_555 1_555
H7 C9 1_555 1_555
C10 C9 1_555 1_555
H8 C10 1_555 1_555
C11 C7 1_555 1_555
C12 C4 1_555 1_555
C13 H9 1_555 1_555
C14 C13 1_555 1_555
C15 C14 1_555 1_555
H10 C15 1_555 1_555
C16 C15 1_555 1_555
C17 C16 1_555 1_555
H11 C17 1_555 1_555
C18 C17 1_555 1_555
H12 C18 1_555 1_555
C19 C18 1_555 1_555
H13 C19 1_555 1_555
C20 C19 1_555 1_555
H14 C20 1_555 1_555
C21 C16 1_555 1_555
C22 C14 1_555 1_555
C23 C24 1_555 1_555
C24 C25 1_555 1_555
C25 H15 1_555 1_555
C26 C25 1_555 1_555
C27 C26 1_555 1_555
H16 C27 1_555 1_555
C28 C27 1_555 1_555
H17 C28 1_555 1_555
C29 C28 1_555 1_555
H18 C29 1_555 1_555
C30 C29 1_555 1_555
H19 C30 1_555 1_555
C31 C26 1_555 1_555
C32 C23 1_555 1_555
C33 C24 1_555 1_555
N1 C1 1_555 1_555
N2 C10 1_555 1_555
N3 C13 1_555 1_555
N4 C23 1_555 1_555
O1 C22 1_555 1_555
O2 C22 1_555 1_555
O3 C33 1_555 1_555
O4 C33 1_555 1_555
O5 C32 1_555 1_555
O6 C32 1_555 1_555
Sm1 N1 1_555 1_555
O4_2 Sm1 1_555 1_555
O5B Sm1 1_555 1_555
O6B Sm1 1_555 1_555
Sm1_2 O4 1_555 1_555
Sm1B O5 1_555 1_555
C11 C12 1_555 1_555
C11 N2 1_555 1_555
C12 N1 1_555 1_555
C20 C21 1_555 1_555
C21 N3 1_555 1_555
C30 C31 1_555 1_555
C31 N4 1_555 1_555
N2 Sm1 1_555 1_555
O1 Sm1 1_555 1_555
O2 Sm1 1_555 1_555
O3 Sm1 1_555 1_555
O5 Sm1 1_555 1_555
O6 Sm1B 1_555 1_555
O5B Sm1B 1_555 1_555

#END
