
#######################################################################
#
#                 Cambridge Crystallographic Data Centre
#                                CCDC 
#
#######################################################################
#
# If this CIF has been generated from an entry in the Cambridge 
# Structural Database, then it will include bibliographic, chemical, 
# crystal, experimental, refinement or atomic coordinate data resulting 
# from the CCDC's data processing and validation procedures.
#
#######################################################################

data_LIVNEJ
_symmetry_cell_setting           orthorhombic
_symmetry_space_group_name_H-M   'P n n n'
_symmetry_Int_Tables_number      48
_space_group_name_Hall           '-P 2ab 2bc'
loop_
_symmetry_equiv_pos_site_id
_symmetry_equiv_pos_as_xyz
1 x,y,z
2 1/2-x,1/2-y,z
3 x,1/2-y,1/2-z
4 1/2-x,y,1/2-z
5 -x,-y,-z
6 1/2+x,1/2+y,-z
7 -x,1/2+y,1/2+z
8 1/2+x,-y,1/2+z
_cell_length_a                   8.248(1)
_cell_length_b                   8.277(1)
_cell_length_c                   11.385(1)
_cell_angle_alpha                90
_cell_angle_beta                 90
_cell_angle_gamma                90
_cell_volume                     777.239
loop_
_atom_site_label
_atom_site_type_symbol
_atom_site_fract_x
_atom_site_fract_y
_atom_site_fract_z
Ga1 Ga 0.1056(1) 0.2500 0.2500
Cl1 Cl -0.0402(1) 0.0642(1) 0.3336(1)
O1 O 0.1033(2) 0.4047(2) 0.4292(2)
C1 C 0.1116(4) 0.5785(3) 0.4291(3)
C2 C 0.0496(4) 0.3508(3) 0.5429(2)
H1 H 0.1468 0.6160 0.3525
H2 H 0.1905 0.6141 0.4867
H3 H 0.1277 0.3832 0.6021
H4 H 0.0424 0.2339 0.5436
Ga1A Ga 0.3944(1) 0.2500 0.2500
Cl1B Cl -0.0402(1) 0.4358(1) 0.1664(1)
O1B O 0.1033(2) 0.0953(2) 0.0708(2)
C2D C -0.0496(4) 0.6492(3) 0.4571(2)
C1D C -0.1116(4) 0.4215(3) 0.5709(3)
O1D O -0.1033(2) 0.5953(2) 0.5708(2)
H3D H -0.1277 0.6168 0.3979
H4D H -0.0424 0.7661 0.4564
H1D H -0.1468 0.3840 0.6475
H2D H -0.1905 0.3859 0.5133
Ga1D Ga -0.1056(1) 0.7500 0.7500
loop_
_geom_bond_atom_site_label_1
_geom_bond_atom_site_label_2
_geom_bond_site_symmetry_1
_geom_bond_site_symmetry_2
Ga1 Cl1 1_555 1_555
O1 Ga1 1_555 1_555
C1 O1 1_555 1_555
C2 O1 1_555 1_555
H1 C1 1_555 1_555
H2 C1 1_555 1_555
H3 C2 1_555 1_555
H4 C2 1_555 1_555
Ga1A Ga1 1_555 1_555
Cl1B Ga1 1_555 1_555
O1B Ga1 1_555 1_555
C2D C1 1_555 1_555
C1D C2 1_555 1_555
O1D C2D 1_555 1_555
H3D C2D 1_555 1_555
H4D C2D 1_555 1_555
H1D C1D 1_555 1_555
H2D C1D 1_555 1_555
Ga1D O1D 1_555 1_555
C1D O1D 1_555 1_555

#END
