
#######################################################################
#
#                 Cambridge Crystallographic Data Centre
#                                CCDC 
#
#######################################################################
#
# If this CIF has been generated from an entry in the Cambridge 
# Structural Database, then it will include bibliographic, chemical, 
# crystal, experimental, refinement or atomic coordinate data resulting 
# from the CCDC's data processing and validation procedures.
#
#######################################################################

data_LIVNAH
_symmetry_cell_setting           monoclinic
_symmetry_space_group_name_H-M   'P 21/n'
_symmetry_Int_Tables_number      14
_space_group_name_Hall           '-P 2yn'
loop_
_symmetry_equiv_pos_site_id
_symmetry_equiv_pos_as_xyz
1 x,y,z
2 1/2-x,1/2+y,1/2-z
3 -x,-y,-z
4 1/2+x,1/2-y,1/2+z
_cell_length_a                   6.6146(5)
_cell_length_b                   32.243(2)
_cell_length_c                   12.7240(9)
_cell_angle_alpha                90
_cell_angle_beta                 97.4670(10)
_cell_angle_gamma                90
_cell_volume                     2690.69
loop_
_atom_site_label
_atom_site_type_symbol
_atom_site_fract_x
_atom_site_fract_y
_atom_site_fract_z
Nd1 Nd 1.04132(2) 0.051520(5) 1.103349(13)
C1 C 0.9068(5) 0.13706(10) 1.0786(3)
O1 O 0.9876(3) 0.02928(7) 0.91367(17)
O2 O 0.7438(3) 0.00613(7) 0.79375(19)
C2 C 0.7807(6) 0.23731(12) 0.9271(3)
N1 N 0.7625(4) 0.10118(9) 0.7742(2)
O3 O 1.0475(4) 0.12319(8) 1.0313(2)
O4 O 0.6833(3) 0.03799(7) 1.04846(18)
N2 N 1.2565(4) 0.08388(8) 1.2686(2)
C3 C 1.5468(6) 0.12216(14) 1.3478(4)
H1 H 1.6686 0.1354 1.3395
C4 C 0.6312(6) 0.19193(12) 1.0795(3)
H2 H 0.5816 0.1762 1.1319
O5 O 0.8394(4) 0.11733(8) 1.1510(2)
C5 C 0.5979(8) 0.20139(13) 0.6599(3)
H3 H 0.6400 0.2208 0.6132
C6 C 0.4880(7) 0.28303(14) 0.9261(4)
H4 H 0.3703 0.2910 0.9535
N3 N 0.9074(4) 0.04033(9) 1.2856(2)
C7 C 1.4310(5) 0.10315(12) 1.2616(3)
H5 H 1.4788 0.1041 1.1961
C8 C 0.6515(5) 0.13716(10) 0.7568(3)
C9 C 0.4762(6) 0.14491(11) 0.8061(3)
C10 C 0.8208(5) 0.03413(10) 0.8520(2)
C11 C 0.6002(6) 0.24784(12) 0.9687(3)
C12 C 0.7122(7) 0.16655(12) 0.6852(3)
H6 H 0.8310 0.1622 0.6548
C13 C 1.1900(5) 0.08177(11) 1.3650(3)
C14 C 0.5517(4) 0.08282(10) 0.9099(2)
C15 C 0.4304(5) 0.11680(11) 0.8850(3)
H7 H 0.3177 0.1214 0.9202
C16 C 1.0061(5) 0.05885(11) 1.3739(3)
C17 C 0.8119(5) 0.17796(10) 1.0423(3)
N4 N 0.5275(5) 0.22530(11) 1.0463(3)
C18 C 0.7404(6) 0.01897(14) 1.2953(3)
H8 H 0.6696 0.0069 1.2351
C19 C 0.4183(8) 0.20786(14) 0.7042(3)
H9 H 0.3382 0.2310 0.6843
C20 C 0.7114(4) 0.07549(10) 0.8468(2)
C21 C 0.8845(6) 0.20113(12) 0.9674(3)
H10 H 1.0044 0.1933 0.9419
C22 C 1.4797(7) 0.12104(15) 1.4424(4)
H11 H 1.5556 0.1337 1.5003
C23 C 1.2156(8) 0.09862(16) 1.5533(3)
H12 H 1.2841 0.1118 1.6125
C24 C 1.2961(6) 0.10102(13) 1.4553(3)
C25 C 0.9367(7) 0.05647(14) 1.4738(3)
C26 C 0.3590(7) 0.18062(13) 0.7763(3)
H13 H 0.2402 0.1856 0.8061
C27 C 1.0452(8) 0.07806(17) 1.5626(3)
H14 H 0.9951 0.0776 1.6276
C28 C 0.8435(7) 0.26130(14) 0.8446(4)
H15 H 0.9638 0.2548 0.8177
C29 C 0.7282(8) 0.29401(14) 0.8043(4)
H16 H 0.7680 0.3092 0.7483
C30 C 0.5517(8) 0.30489(14) 0.8459(4)
H17 H 0.4761 0.3276 0.8182
C31 C 0.6654(7) 0.01380(18) 1.3927(4)
H18 H 0.5506 -0.0024 1.3973
C32 C 0.7627(8) 0.03285(19) 1.4803(4)
H19 H 0.7127 0.0301 1.5449
C33 C 0.5279(4) 0.05705(9) 1.0056(3)
O6 O 0.3609(3) 0.05743(7) 1.04136(19)
Nd1_2 Nd 0.04132(2) 0.051520(5) 1.103349(13)
Nd1B Nd 0.95868(2) -0.051520(5) 0.896651(13)
O1B O 1.0124(3) -0.02928(7) 1.08633(17)
O2B O 1.2562(3) -0.00613(7) 1.20625(19)
O6_2 O 1.3609(3) 0.05743(7) 1.04136(19)
loop_
_geom_bond_atom_site_label_1
_geom_bond_atom_site_label_2
_geom_bond_site_symmetry_1
_geom_bond_site_symmetry_2
Nd1 O1 1_555 1_555
C1 O3 1_555 1_555
O1 C10 1_555 1_555
O2 C10 1_555 1_555
C2 C11 1_555 1_555
N1 C8 1_555 1_555
O3 Nd1 1_555 1_555
O4 Nd1 1_555 1_555
N2 Nd1 1_555 1_555
C3 H1 1_555 1_555
C4 H2 1_555 1_555
O5 Nd1 1_555 1_555
C5 H3 1_555 1_555
C6 H4 1_555 1_555
N3 Nd1 1_555 1_555
C7 N2 1_555 1_555
H5 C7 1_555 1_555
C8 C9 1_555 1_555
C9 C15 1_555 1_555
C10 C20 1_555 1_555
C11 C6 1_555 1_555
C12 C5 1_555 1_555
H6 C12 1_555 1_555
C13 N2 1_555 1_555
C14 C15 1_555 1_555
C15 H7 1_555 1_555
C16 N3 1_555 1_555
C17 C1 1_555 1_555
N4 C4 1_555 1_555
C18 N3 1_555 1_555
H8 C18 1_555 1_555
C19 C5 1_555 1_555
H9 C19 1_555 1_555
C20 N1 1_555 1_555
C21 C2 1_555 1_555
H10 C21 1_555 1_555
C22 C3 1_555 1_555
H11 C22 1_555 1_555
C23 H12 1_555 1_555
C24 C13 1_555 1_555
C25 C16 1_555 1_555
C26 C9 1_555 1_555
H13 C26 1_555 1_555
C27 C23 1_555 1_555
H14 C27 1_555 1_555
C28 C2 1_555 1_555
H15 C28 1_555 1_555
C29 C28 1_555 1_555
H16 C29 1_555 1_555
C30 C6 1_555 1_555
H17 C30 1_555 1_555
C31 C18 1_555 1_555
H18 C31 1_555 1_555
C32 C25 1_555 1_555
H19 C32 1_555 1_555
C33 O4 1_555 1_555
O6 C33 1_555 1_555
Nd1_2 O6 1_555 1_555
Nd1B O1 1_555 1_555
O1B Nd1 1_555 1_555
O2B Nd1 1_555 1_555
O6_2 Nd1 1_555 1_555
C1 O5 1_555 1_555
O2 Nd1B 1_555 1_555
C3 C7 1_555 1_555
C4 C17 1_555 1_555
C8 C12 1_555 1_555
C11 N4 1_555 1_555
C13 C16 1_555 1_555
C14 C20 1_555 1_555
C14 C33 1_555 1_555
C17 C21 1_555 1_555
C19 C26 1_555 1_555
C22 C24 1_555 1_555
C23 C24 1_555 1_555
C25 C27 1_555 1_555
C29 C30 1_555 1_555
C31 C32 1_555 1_555
Nd1B O1B 1_555 1_555

#END
