
#######################################################################
#
#                 Cambridge Crystallographic Data Centre
#                                CCDC 
#
#######################################################################
#
# If this CIF has been generated from an entry in the Cambridge 
# Structural Database, then it will include bibliographic, chemical, 
# crystal, experimental, refinement or atomic coordinate data resulting 
# from the CCDC's data processing and validation procedures.
#
#######################################################################

data_LIVNEL
_symmetry_cell_setting           monoclinic
_symmetry_space_group_name_H-M   'P 21/n'
_symmetry_Int_Tables_number      14
_space_group_name_Hall           '-P 2yn'
loop_
_symmetry_equiv_pos_site_id
_symmetry_equiv_pos_as_xyz
1 x,y,z
2 1/2-x,1/2+y,1/2-z
3 -x,-y,-z
4 1/2+x,1/2-y,1/2+z
_cell_length_a                   6.6520(7)
_cell_length_b                   32.370(3)
_cell_length_c                   12.7232(13)
_cell_angle_alpha                90
_cell_angle_beta                 97.5500(10)
_cell_angle_gamma                90
_cell_volume                     2715.88
loop_
_atom_site_label
_atom_site_type_symbol
_atom_site_fract_x
_atom_site_fract_y
_atom_site_fract_z
C1 C 0.5680(8) 0.10304(17) 0.7361(4)
H1 H 0.5212 0.1040 0.8018
C2 C 0.4518(10) 0.1220(2) 0.6497(5)
H2 H 0.3311 0.1353 0.6583
C3 C 0.5175(10) 0.1207(2) 0.5536(5)
H3 H 0.4406 0.1329 0.4955
C4 C 0.7004(9) 0.10114(18) 0.5408(4)
C5 C 0.8068(7) 0.08178(14) 0.6323(3)
C6 C 0.9901(7) 0.05926(15) 0.6235(4)
C7 C 1.0600(10) 0.0572(2) 0.5223(5)
C8 C 0.9499(11) 0.0785(3) 0.4337(4)
H4 H 0.9983 0.0777 0.3684
C9 C 0.7788(11) 0.0993(2) 0.4428(5)
H5 H 0.7109 0.1128 0.3839
C10 C 1.2317(11) 0.0331(3) 0.5141(6)
H6 H 1.2770 0.0296 0.4486
C11 C 1.3324(10) 0.0149(3) 0.6021(6)
H7 H 1.4488 -0.0006 0.5974
C12 C 1.2581(8) 0.0196(2) 0.7013(5)
H8 H 1.3299 0.0075 0.7611
C13 C 1.3460(8) 0.13766(15) 1.2411(3)
C14 C 1.2855(10) 0.16734(16) 1.3136(4)
H9 H 1.1678 0.1633 1.3445
C15 C 1.4022(12) 0.20199(18) 1.3377(5)
H10 H 1.3613 0.2214 1.3843
C16 C 1.5801(13) 0.2085(2) 1.2937(5)
H11 H 1.6603 0.2314 1.3139
C17 C 1.6377(10) 0.18141(19) 1.2210(5)
H12 H 1.7543 0.1867 1.1902
C18 C 1.5230(8) 0.14527(15) 1.1915(4)
C19 C 1.5681(7) 0.11707(16) 1.1137(3)
H13 H 1.6804 0.1216 1.0787
C20 C 1.4479(6) 0.08289(14) 1.0888(3)
C21 C 1.2877(6) 0.07586(13) 1.1529(3)
C22 C 1.1796(6) 0.03460(13) 1.1481(3)
C23 C 1.4707(6) 0.05723(12) 0.9933(3)
C24 C 1.3975(9) 0.24788(17) 1.0290(5)
C25 C 1.5105(11) 0.2833(2) 1.0715(6)
H14 H 1.6278 0.2910 1.0443
C26 C 1.4467(13) 0.3052(2) 1.1508(6)
H15 H 1.5209 0.3280 1.1780
C27 C 1.2713(12) 0.2940(2) 1.1926(7)
H16 H 1.2325 0.3092 1.2486
C28 C 1.1550(11) 0.2614(2) 1.1536(6)
H17 H 1.0367 0.2548 1.1816
C29 C 1.2167(8) 0.23765(16) 1.0698(4)
C30 C 1.1126(8) 0.20165(16) 1.0300(4)
H18 H 0.9926 0.1940 1.0549
C31 C 1.1876(7) 0.17832(14) 0.9557(4)
C32 C 1.3674(9) 0.19219(17) 0.9177(5)
H19 H 1.4154 0.1766 0.8649
C33 C 1.0920(7) 0.13752(14) 0.9201(4)
N1 N 0.7412(6) 0.08382(12) 0.7289(3)
N2 N 1.0905(6) 0.04054(13) 0.7118(3)
N3 N 1.2365(7) 0.10182(13) 1.2255(3)
N4 N 1.4721(8) 0.22528(16) 0.9509(4)
O1 O 1.6375(5) 0.05758(10) 0.9575(3)
O2 O 1.3168(4) 0.03779(11) 0.9512(2)
O3 O 1.2575(5) 0.00648(10) 1.2072(3)
O4 O 1.0133(4) 0.02935(10) 1.0871(2)
O5 O 1.1610(5) 0.11728(11) 0.8480(3)
O6 O 0.9498(6) 0.12387(12) 0.9660(3)
Pr1 Pr 0.95783(3) 0.051576(7) 0.895640(16)
O1_2 O 0.6375(5) 0.05758(10) 0.9575(3)
O3B O 0.7425(5) -0.00648(10) 0.7928(3)
O4B O 0.9867(4) -0.02935(10) 0.9129(2)
Pr1_2 Pr 1.95783(3) 0.051576(7) 0.895640(16)
Pr1B Pr 1.04217(3) -0.051576(7) 1.104360(16)
loop_
_geom_bond_atom_site_label_1
_geom_bond_atom_site_label_2
_geom_bond_site_symmetry_1
_geom_bond_site_symmetry_2
C1 H1 1_555 1_555
C2 C1 1_555 1_555
H2 C2 1_555 1_555
C3 C2 1_555 1_555
H3 C3 1_555 1_555
C4 C3 1_555 1_555
C5 C4 1_555 1_555
C6 C5 1_555 1_555
C7 C6 1_555 1_555
C8 C7 1_555 1_555
H4 C8 1_555 1_555
C9 C4 1_555 1_555
H5 C9 1_555 1_555
C10 C7 1_555 1_555
H6 C10 1_555 1_555
C11 C10 1_555 1_555
H7 C11 1_555 1_555
C12 C11 1_555 1_555
H8 C12 1_555 1_555
C13 C14 1_555 1_555
C14 H9 1_555 1_555
C15 C14 1_555 1_555
H10 C15 1_555 1_555
C16 C15 1_555 1_555
H11 C16 1_555 1_555
C17 C16 1_555 1_555
H12 C17 1_555 1_555
C18 C13 1_555 1_555
C19 C18 1_555 1_555
H13 C19 1_555 1_555
C20 C19 1_555 1_555
C21 C20 1_555 1_555
C22 C21 1_555 1_555
C23 C20 1_555 1_555
C24 C25 1_555 1_555
C25 H14 1_555 1_555
C26 C25 1_555 1_555
H15 C26 1_555 1_555
C27 C26 1_555 1_555
H16 C27 1_555 1_555
C28 C27 1_555 1_555
H17 C28 1_555 1_555
C29 C24 1_555 1_555
C30 C29 1_555 1_555
H18 C30 1_555 1_555
C31 C30 1_555 1_555
C32 C31 1_555 1_555
H19 C32 1_555 1_555
C33 C31 1_555 1_555
N1 C1 1_555 1_555
N2 C6 1_555 1_555
N3 C13 1_555 1_555
N4 C24 1_555 1_555
O1 C23 1_555 1_555
O2 C23 1_555 1_555
O3 C22 1_555 1_555
O4 C22 1_555 1_555
O5 C33 1_555 1_555
O6 C33 1_555 1_555
Pr1 N1 1_555 1_555
O1_2 Pr1 1_555 1_555
O3B Pr1 1_555 1_555
O4B Pr1 1_555 1_555
Pr1_2 O1 1_555 1_555
Pr1B O3 1_555 1_555
C5 N1 1_555 1_555
C8 C9 1_555 1_555
C12 N2 1_555 1_555
C17 C18 1_555 1_555
C21 N3 1_555 1_555
C28 C29 1_555 1_555
C32 N4 1_555 1_555
N2 Pr1 1_555 1_555
O2 Pr1 1_555 1_555
O4 Pr1 1_555 1_555
O4 Pr1B 1_555 1_555
O5 Pr1 1_555 1_555
O6 Pr1 1_555 1_555
O4B Pr1B 1_555 1_555

#END
