
#######################################################################
#
#                 Cambridge Crystallographic Data Centre
#                                CCDC 
#
#######################################################################
#
# If this CIF has been generated from an entry in the Cambridge 
# Structural Database, then it will include bibliographic, chemical, 
# crystal, experimental, refinement or atomic coordinate data resulting 
# from the CCDC's data processing and validation procedures.
#
#######################################################################

data_LIVNIP
_symmetry_cell_setting           monoclinic
_symmetry_space_group_name_H-M   'P 21/n'
_symmetry_Int_Tables_number      14
_space_group_name_Hall           '-P 2yn'
loop_
_symmetry_equiv_pos_site_id
_symmetry_equiv_pos_as_xyz
1 x,y,z
2 1/2-x,1/2+y,1/2-z
3 -x,-y,-z
4 1/2+x,1/2-y,1/2+z
_cell_length_a                   6.5006(4)
_cell_length_b                   31.8313(17)
_cell_length_c                   12.9504(7)
_cell_angle_alpha                90
_cell_angle_beta                 96.8510(10)
_cell_angle_gamma                90
_cell_volume                     2660.6
loop_
_atom_site_label
_atom_site_type_symbol
_atom_site_fract_x
_atom_site_fract_y
_atom_site_fract_z
C1 C 1.4173(6) 0.10468(13) 0.2509(3)
H1 H 1.4694 0.1067 0.1873
C2 C 1.5291(7) 0.12301(15) 0.3377(4)
H2 H 1.6539 0.1366 0.3319
C3 C 1.4540(8) 0.12083(16) 0.4309(4)
H3 H 1.5263 0.1334 0.4891
C4 C 1.2680(7) 0.09970(15) 0.4396(3)
C5 C 1.1675(6) 0.08083(12) 0.3485(3)
C6 C 1.1777(8) 0.09549(17) 0.5349(4)
H4 H 1.2407 0.1088 0.5944
C7 C 1.0075(8) 0.07329(19) 0.5406(4)
H5 H 0.9535 0.0714 0.6037
C8 C 0.9043(8) 0.05204(16) 0.4509(3)
C9 C 0.9827(6) 0.05649(13) 0.3543(3)
C10 C 0.7231(6) 0.01488(15) 0.2718(3)
H6 H 0.6581 0.0027 0.2113
C11 C 0.6396(8) 0.00796(18) 0.3644(4)
H7 H 0.5237 -0.0091 0.3657
C12 C 0.7297(8) 0.02644(19) 0.4524(4)
H8 H 0.6749 0.0221 0.5147
C13 C 0.8955(6) 0.13634(12) 0.0711(3)
C14 C 0.7995(6) 0.17723(12) 0.0321(3)
C15 C 0.8740(7) 0.19920(13) -0.0440(4)
H9 H 0.9955 0.1906 -0.0689
C16 C 0.6186(7) 0.19269(14) 0.0693(4)
H10 H 0.5697 0.1780 0.1236
C17 C 0.5866(7) 0.24728(14) -0.0456(4)
C18 C 0.7691(7) 0.23533(13) -0.0865(4)
C19 C 0.4736(8) 0.28248(16) -0.0900(4)
H11 H 0.3542 0.2912 -0.0631
C20 C 0.5383(9) 0.30334(16) -0.1707(4)
H12 H 0.4627 0.3263 -0.1987
C21 C 0.7177(9) 0.29105(16) -0.2134(4)
H13 H 0.7577 0.3053 -0.2705
C22 C 0.8334(8) 0.25806(15) -0.1707(4)
H14 H 0.9550 0.2506 -0.1973
C23 C 0.8285(5) 0.03322(11) -0.1424(3)
C24 C 0.5258(5) 0.05796(11) 0.0037(3)
C25 C 0.5465(5) 0.08253(11) -0.0934(3)
C26 C 0.7121(5) 0.07464(11) -0.1542(3)
C27 C 0.4178(6) 0.11536(13) -0.1232(3)
H15 H 0.3011 0.1201 -0.0897
C28 C 0.4613(7) 0.14192(13) -0.2041(3)
C29 C 0.6434(6) 0.13422(12) -0.2519(3)
C30 C 0.7020(8) 0.16323(13) -0.3260(3)
H16 H 0.8240 0.1590 -0.3555
C31 C 0.5809(9) 0.19740(15) -0.3545(4)
H17 H 0.6214 0.2164 -0.4027
C32 C 0.3967(9) 0.20386(15) -0.3114(4)
H18 H 0.3131 0.2267 -0.3331
C33 C 0.3380(8) 0.17735(15) -0.2382(4)
H19 H 0.2154 0.1824 -0.2099
N1 N 1.2391(5) 0.08433(9) 0.2548(2)
N2 N 0.8908(5) 0.03799(10) 0.2659(2)
N3 N 0.5137(6) 0.22581(12) 0.0341(3)
N4 N 0.7621(5) 0.09902(10) -0.2295(2)
O1 O 1.0324(4) 0.12000(9) 0.0227(2)
O2 O 0.8324(4) 0.11818(9) 0.1468(2)
O3 O 0.9957(4) 0.02904(8) -0.08108(18)
O4 O 0.7519(4) 0.00344(8) -0.1956(2)
O5 O 0.6861(4) 0.03959(8) 0.04576(19)
O6 O 0.3558(4) 0.05801(8) 0.0398(2)
Dy1 Dy 1.03707(2) 0.051745(5) 0.097832(12)
O3B O 1.0043(4) -0.02904(8) 0.08108(18)
O4B O 1.2481(4) -0.00344(8) 0.1956(2)
O6_2 O 1.3558(4) 0.05801(8) 0.0398(2)
Dy1_2 Dy 0.03707(2) 0.051745(5) 0.097832(12)
Dy1B Dy 0.96293(2) -0.051745(5) -0.097832(12)
loop_
_geom_bond_atom_site_label_1
_geom_bond_atom_site_label_2
_geom_bond_site_symmetry_1
_geom_bond_site_symmetry_2
C1 H1 1_555 1_555
C2 C1 1_555 1_555
H2 C2 1_555 1_555
C3 C2 1_555 1_555
H3 C3 1_555 1_555
C4 C3 1_555 1_555
C5 C4 1_555 1_555
C6 C4 1_555 1_555
H4 C6 1_555 1_555
C7 C6 1_555 1_555
H5 C7 1_555 1_555
C8 C7 1_555 1_555
C9 C5 1_555 1_555
C10 H6 1_555 1_555
C11 C10 1_555 1_555
H7 C11 1_555 1_555
C12 C8 1_555 1_555
H8 C12 1_555 1_555
C13 C14 1_555 1_555
C14 C15 1_555 1_555
C15 H9 1_555 1_555
C16 C14 1_555 1_555
H10 C16 1_555 1_555
C17 C18 1_555 1_555
C18 C15 1_555 1_555
C19 C17 1_555 1_555
H11 C19 1_555 1_555
C20 C19 1_555 1_555
H12 C20 1_555 1_555
C21 C20 1_555 1_555
H13 C21 1_555 1_555
C22 C18 1_555 1_555
H14 C22 1_555 1_555
C23 C26 1_555 1_555
C24 C25 1_555 1_555
C25 C26 1_555 1_555
C26 N4 1_555 1_555
C27 C25 1_555 1_555
H15 C27 1_555 1_555
C28 C27 1_555 1_555
C29 C28 1_555 1_555
C30 C29 1_555 1_555
H16 C30 1_555 1_555
C31 C30 1_555 1_555
H17 C31 1_555 1_555
C32 C31 1_555 1_555
H18 C32 1_555 1_555
C33 C28 1_555 1_555
H19 C33 1_555 1_555
N1 C1 1_555 1_555
N2 C9 1_555 1_555
N3 C16 1_555 1_555
N4 C29 1_555 1_555
O1 C13 1_555 1_555
O2 C13 1_555 1_555
O3 C23 1_555 1_555
O4 C23 1_555 1_555
O5 C24 1_555 1_555
O6 C24 1_555 1_555
Dy1 N1 1_555 1_555
O3B Dy1 1_555 1_555
O4B Dy1 1_555 1_555
O6_2 Dy1 1_555 1_555
Dy1_2 O6 1_555 1_555
Dy1B O3 1_555 1_555
C5 N1 1_555 1_555
C8 C9 1_555 1_555
C10 N2 1_555 1_555
C11 C12 1_555 1_555
C17 N3 1_555 1_555
C21 C22 1_555 1_555
C32 C33 1_555 1_555
N2 Dy1 1_555 1_555
O1 Dy1 1_555 1_555
O2 Dy1 1_555 1_555
O3 Dy1 1_555 1_555
O4 Dy1B 1_555 1_555
O5 Dy1 1_555 1_555
O3B Dy1B 1_555 1_555

#END
