
#######################################################################
#
#                 Cambridge Crystallographic Data Centre
#                                CCDC 
#
#######################################################################
#
# If this CIF has been generated from an entry in the Cambridge 
# Structural Database, then it will include bibliographic, chemical, 
# crystal, experimental, refinement or atomic coordinate data resulting 
# from the CCDC's data processing and validation procedures.
#
#######################################################################

data_LIVPOX
_symmetry_cell_setting           triclinic
_symmetry_space_group_name_H-M   'P -1'
_symmetry_Int_Tables_number      2
_space_group_name_Hall           '-P 1'
loop_
_symmetry_equiv_pos_site_id
_symmetry_equiv_pos_as_xyz
1 x,y,z
2 -x,-y,-z
_cell_length_a                   9.1885(3)
_cell_length_b                   14.4631(4)
_cell_length_c                   14.6845(4)
_cell_angle_alpha                98.342(2)
_cell_angle_beta                 102.170(2)
_cell_angle_gamma                93.101(2)
_cell_volume                     1880.2
loop_
_atom_site_label
_atom_site_type_symbol
_atom_site_fract_x
_atom_site_fract_y
_atom_site_fract_z
Co1 Co 0.5000 1.0000 1.0000
N1 N 0.52932(15) 0.88932(9) 1.06541(9)
N2 N 0.39217(15) 0.91778(9) 0.88238(10)
N3 N 0.94155(17) 0.88392(11) 1.27847(11)
H1 H 0.9590 0.9249 1.2424
N4 N 0.57697(19) 0.65256(12) 0.83577(12)
H2 H 0.6294 0.6952 0.8815
N5 N 0.7928(2) 0.97203(13) 0.93683(14)
O1 O 0.97516(19) 0.73834(11) 1.31093(12)
O2 O 0.5711(2) 0.57652(13) 0.69039(11)
C1 C 0.66304(19) 0.96624(12) 1.22370(12)
C2 C 0.60058(19) 0.88825(12) 1.15701(12)
C3 C 0.6008(2) 0.79372(13) 1.17555(13)
H3 H 0.6432 0.7742 1.2337
C4 C 0.5306(2) 0.73807(12) 1.09608(13)
H4 H 0.5144 0.6716 1.0869
C5 C 0.48427(19) 0.79756(12) 1.02721(12)
C6 C 0.40387(19) 0.76506(12) 0.93650(12)
C7 C 0.36008(19) 0.82279(12) 0.87009(12)
C8 C 0.2772(2) 0.78898(13) 0.77591(13)
H5 H 0.2400 0.7259 0.7503
C9 C 0.2623(2) 0.86297(13) 0.73112(13)
H6 H 0.2128 0.8623 0.6673
C10 C 0.33430(19) 0.94339(12) 0.79678(12)
C11 C 0.7262(2) 0.95246(12) 1.32261(12)
C12 C 0.6505(2) 0.98329(15) 1.39281(14)
H7 H 0.5619 1.0140 1.3770
C13 C 0.7022(3) 0.96996(16) 1.48480(15)
H8 H 0.6494 0.9909 1.5319
C14 C 0.8304(3) 0.92624(16) 1.50768(14)
H9 H 0.8657 0.9165 1.5709
C15 C 0.9088(2) 0.89617(14) 1.43992(14)
H10 H 0.9978 0.8661 1.4566
C16 C 0.8571(2) 0.91008(13) 1.34684(13)
C17 C 0.9971(2) 0.79926(14) 1.26544(14)
C18 C 1.0893(2) 0.78598(16) 1.18982(14)
C19 C 1.1415(3) 0.68749(19) 1.18373(18)
H11 H 1.2030 0.6799 1.2449
H12 H 1.2006 0.6780 1.1354
H13 H 1.0544 0.6412 1.1670
C20 C 0.9932(3) 0.7967(2) 1.09392(16)
H14 H 0.9085 0.7486 1.0764
H15 H 1.0536 0.7892 1.0461
H16 H 0.9560 0.8590 1.0978
C21 C 1.2242(3) 0.85800(19) 1.21753(18)
H17 H 1.1904 0.9213 1.2210
H18 H 1.2852 0.8487 1.1702
H19 H 1.2839 0.8504 1.2793
C22 C 0.3639(2) 0.66159(12) 0.90657(12)
C23 C 0.2404(2) 0.61838(14) 0.92750(16)
H20 H 0.1823 0.6543 0.9634
C24 C 0.1995(3) 0.52378(15) 0.89726(17)
H21 H 0.1138 0.4950 0.9120
C25 C 0.2836(3) 0.47170(14) 0.84571(16)
H22 H 0.2553 0.4067 0.8243
C26 C 0.4078(3) 0.51240(14) 0.82480(14)
H23 H 0.4662 0.4755 0.7898
C27 C 0.4487(2) 0.60767(13) 0.85471(13)
C28 C 0.6291(2) 0.63779(15) 0.75535(14)
C29 C 0.7599(2) 0.70560(17) 0.75141(15)
C30 C 0.8447(3) 0.6566(2) 0.6829(2)
H24 H 0.8931 0.6047 0.7094
H25 H 0.9209 0.7014 0.6722
H26 H 0.7750 0.6321 0.6228
C31 C 0.6936(3) 0.79227(19) 0.71477(19)
H27 H 0.6252 0.7727 0.6531
H28 H 0.7745 0.8362 0.7084
H29 H 0.6389 0.8231 0.7595
C32 C 0.8650(3) 0.73621(19) 0.84737(17)
H30 H 0.8144 0.7761 0.8885
H31 H 0.9545 0.7715 0.8397
H32 H 0.8938 0.6807 0.8757
C33 C 0.6838(2) 0.98363(12) 0.96064(12)
K1 K 0.5000 0.5000 0.5000
O3 O 0.22357(15) 0.57249(10) 0.52236(9)
O4 O 0.45230(16) 0.68329(10) 0.47014(10)
O5 O 0.68531(15) 0.59387(9) 0.41262(10)
C34 C 0.8311(2) 0.56578(16) 0.41702(15)
H33 H 0.8960 0.5911 0.4795
H34 H 0.8744 0.5901 0.3680
C35 C 0.1781(2) 0.53796(16) 0.59851(15)
H35 H 0.0793 0.5594 0.6039
H36 H 0.2507 0.5630 0.6582
C36 C 0.2412(3) 0.67115(15) 0.53654(16)
H37 H 0.3102 0.6946 0.5981
H38 H 0.1434 0.6963 0.5378
C37 C 0.3018(3) 0.70415(16) 0.45976(17)
H39 H 0.2425 0.6726 0.3977
H40 H 0.2957 0.7726 0.4630
C38 C 0.5214(3) 0.71294(16) 0.40086(16)
H41 H 0.5153 0.7812 0.4018
H42 H 0.4691 0.6800 0.3376
C39 C 0.6799(2) 0.69204(14) 0.42005(16)
H43 H 0.7307 0.7161 0.3740
H44 H 0.7316 0.7230 0.4842
N1A N 0.47068(15) 1.11068(9) 0.93459(9)
N2A N 0.60783(15) 1.08222(9) 1.11762(10)
N3A N 0.05845(17) 1.11608(11) 0.72153(11)
H1A H 0.0410 1.0751 0.7576
N4A N 0.42303(19) 1.34744(12) 1.16423(12)
H2A H 0.3706 1.3048 1.1185
O1A O 0.02484(19) 1.26166(11) 0.68907(12)
O2A O 0.4289(2) 1.42348(13) 1.30961(11)
C1A C 0.33696(19) 1.03376(12) 0.77630(12)
C2A C 0.39942(19) 1.11175(12) 0.84299(12)
C3A C 0.3992(2) 1.20628(13) 0.82445(13)
H3A H 0.3568 1.2258 0.7663
C4A C 0.4694(2) 1.26193(12) 0.90392(13)
H4A H 0.4856 1.3284 0.9131
C5A C 0.51573(19) 1.20244(12) 0.97279(12)
C6A C 0.59613(19) 1.23494(12) 1.06350(12)
C7A C 0.63992(19) 1.17721(12) 1.12991(12)
C8A C 0.7228(2) 1.21102(13) 1.22409(13)
H5A H 0.7600 1.2741 1.2497
C9A C 0.7377(2) 1.13703(13) 1.26888(13)
H6A H 0.7872 1.1377 1.3327
C10A C 0.66570(19) 1.05661(12) 1.20322(12)
C11A C 0.2738(2) 1.04754(12) 0.67739(12)
C12A C 0.3495(2) 1.01671(15) 0.60719(14)
H7A H 0.4381 0.9860 0.6230
C13A C 0.2978(3) 1.03004(16) 0.51520(15)
H8A H 0.3506 1.0091 0.4681
C14A C 0.1696(3) 1.07376(16) 0.49232(14)
H9A H 0.1343 1.0835 0.4291
C15A C 0.0912(2) 1.10383(14) 0.56008(14)
H10A H 0.0022 1.1339 0.5434
C16A C 0.1429(2) 1.08992(13) 0.65316(13)
C17A C 0.0029(2) 1.20074(14) 0.73456(14)
C18A C -0.0893(2) 1.21402(16) 0.81018(14)
C19A C -0.1415(3) 1.31251(19) 0.81627(18)
H11A H -0.2030 1.3201 0.7551
H12A H -0.2006 1.3220 0.8646
H13A H -0.0544 1.3588 0.8330
C20A C 0.0068(3) 1.2033(2) 0.90608(16)
H14A H 0.0915 1.2514 0.9236
H15A H -0.0536 1.2108 0.9539
H16A H 0.0440 1.1410 0.9022
C21A C -0.2242(3) 1.14200(19) 0.78247(18)
H17A H -0.1904 1.0787 0.7790
H18A H -0.2852 1.1513 0.8298
H19A H -0.2839 1.1496 0.7207
C22A C 0.6361(2) 1.33841(12) 1.09343(12)
C23A C 0.7596(2) 1.38162(14) 1.07250(16)
H20A H 0.8177 1.3457 1.0366
C24A C 0.8005(3) 1.47622(15) 1.10274(17)
H21A H 0.8862 1.5050 1.0880
C25A C 0.7164(3) 1.52830(14) 1.15429(16)
H22A H 0.7447 1.5933 1.1757
C26A C 0.5922(3) 1.48760(14) 1.17520(14)
H23A H 0.5338 1.5245 1.2102
C27A C 0.5513(2) 1.39233(13) 1.14529(13)
C28A C 0.3709(2) 1.36221(15) 1.24465(14)
C29A C 0.2401(2) 1.29440(17) 1.24859(15)
C30A C 0.1553(3) 1.3434(2) 1.3171(2)
H24A H 0.1069 1.3953 1.2906
H25A H 0.0791 1.2986 1.3278
H26A H 0.2250 1.3679 1.3772
C31A C 0.3064(3) 1.20773(19) 1.28523(19)
H27A H 0.3748 1.2273 1.3469
H28A H 0.2255 1.1638 1.2916
H29A H 0.3611 1.1769 1.2405
C32A C 0.1350(3) 1.26379(19) 1.15263(17)
H30A H 0.1856 1.2239 1.1115
H31A H 0.0455 1.2285 1.1603
H32A H 0.1062 1.3193 1.1243
O3A O 0.77643(15) 0.42751(10) 0.47764(9)
O4A O 0.54770(16) 0.31671(10) 0.52986(10)
O5A O 0.31469(15) 0.40613(9) 0.58738(10)
C34A C 0.1689(2) 0.43422(16) 0.58298(15)
H33A H 0.1040 0.4089 0.5205
H34A H 0.1256 0.4099 0.6320
C35A C 0.8219(2) 0.46204(16) 0.40149(15)
H35A H 0.9207 0.4406 0.3961
H36A H 0.7493 0.4370 0.3418
C36A C 0.7588(3) 0.32885(15) 0.46346(16)
H37A H 0.6898 0.3054 0.4019
H38A H 0.8566 0.3037 0.4622
C37A C 0.6982(3) 0.29585(16) 0.54024(17)
H39A H 0.7575 0.3274 0.6023
H40A H 0.7043 0.2274 0.5370
C38A C 0.4786(3) 0.28706(16) 0.59914(16)
H41A H 0.4847 0.2188 0.5982
H42A H 0.5309 0.3200 0.6624
C39A C 0.3201(2) 0.30796(14) 0.57995(16)
H43A H 0.2693 0.2839 0.6260
H44A H 0.2684 0.2770 0.5158
N5A N 0.2072(2) 1.02797(13) 1.06317(14)
C33A C 0.3162(2) 1.01637(12) 1.03936(12)
O2A_2 O 0.4289(2) 0.42348(13) 0.30961(11)
K1_2 K 0.5000 1.5000 1.5000
O6 O 0.97562(19) 1.03103(13) 1.16135(13)
H45 H 1.053(2) 1.032(2) 1.136(2)
H46 H 0.890(2) 1.038(2) 1.1234(17)
loop_
_geom_bond_atom_site_label_1
_geom_bond_atom_site_label_2
_geom_bond_site_symmetry_1
_geom_bond_site_symmetry_2
Co1 N1 1_555 1_555
N1 C2 1_555 1_555
N2 Co1 1_555 1_555
N3 H1 1_555 1_555
N4 H2 1_555 1_555
N5 C33 1_555 1_555
O1 C17 1_555 1_555
O2 C28 1_555 1_555
C1 C2 1_555 1_555
C2 C3 1_555 1_555
C3 H3 1_555 1_555
C4 C3 1_555 1_555
H4 C4 1_555 1_555
C5 N1 1_555 1_555
C6 C5 1_555 1_555
C7 N2 1_555 1_555
C8 C7 1_555 1_555
H5 C8 1_555 1_555
C9 C8 1_555 1_555
H6 C9 1_555 1_555
C10 N2 1_555 1_555
C11 C1 1_555 1_555
C12 C11 1_555 1_555
H7 C12 1_555 1_555
C13 C12 1_555 1_555
H8 C13 1_555 1_555
C14 C13 1_555 1_555
H9 C14 1_555 1_555
C15 C14 1_555 1_555
H10 C15 1_555 1_555
C16 N3 1_555 1_555
C17 N3 1_555 1_555
C18 C17 1_555 1_555
C19 C18 1_555 1_555
H11 C19 1_555 1_555
H12 C19 1_555 1_555
H13 C19 1_555 1_555
C20 C18 1_555 1_555
H14 C20 1_555 1_555
H15 C20 1_555 1_555
H16 C20 1_555 1_555
C21 C18 1_555 1_555
H17 C21 1_555 1_555
H18 C21 1_555 1_555
H19 C21 1_555 1_555
C22 C6 1_555 1_555
C23 C22 1_555 1_555
H20 C23 1_555 1_555
C24 C23 1_555 1_555
H21 C24 1_555 1_555
C25 C24 1_555 1_555
H22 C25 1_555 1_555
C26 C25 1_555 1_555
H23 C26 1_555 1_555
C27 N4 1_555 1_555
C28 N4 1_555 1_555
C29 C28 1_555 1_555
C30 C29 1_555 1_555
H24 C30 1_555 1_555
H25 C30 1_555 1_555
H26 C30 1_555 1_555
C31 C29 1_555 1_555
H27 C31 1_555 1_555
H28 C31 1_555 1_555
H29 C31 1_555 1_555
C32 C29 1_555 1_555
H30 C32 1_555 1_555
H31 C32 1_555 1_555
H32 C32 1_555 1_555
C33 Co1 1_555 1_555
K1 O2 1_555 1_555
O3 K1 1_555 1_555
O4 K1 1_555 1_555
O5 K1 1_555 1_555
C34 O5 1_555 1_555
H33 C34 1_555 1_555
H34 C34 1_555 1_555
C35 O3 1_555 1_555
H35 C35 1_555 1_555
H36 C35 1_555 1_555
C36 O3 1_555 1_555
H37 C36 1_555 1_555
H38 C36 1_555 1_555
C37 O4 1_555 1_555
H39 C37 1_555 1_555
H40 C37 1_555 1_555
C38 O4 1_555 1_555
H41 C38 1_555 1_555
H42 C38 1_555 1_555
C39 O5 1_555 1_555
H43 C39 1_555 1_555
H44 C39 1_555 1_555
O6 H45 1_555 1_555
H46 O6 1_555 1_555
N1A Co1 1_555 1_555
N2A Co1 1_555 1_555
N3A H1A 1_555 1_555
N4A H2A 1_555 1_555
O1A C17A 1_555 1_555
O2A C28A 1_555 1_555
C1A C10 1_555 1_555
C2A N1A 1_555 1_555
C3A C2A 1_555 1_555
H3A C3A 1_555 1_555
C4A C3A 1_555 1_555
H4A C4A 1_555 1_555
C5A N1A 1_555 1_555
C6A C5A 1_555 1_555
C7A N2A 1_555 1_555
C8A C7A 1_555 1_555
H5A C8A 1_555 1_555
C9A C8A 1_555 1_555
H6A C9A 1_555 1_555
C10A C1 1_555 1_555
C11A C1A 1_555 1_555
C12A C11A 1_555 1_555
H7A C12A 1_555 1_555
C13A C12A 1_555 1_555
H8A C13A 1_555 1_555
C14A C13A 1_555 1_555
H9A C14A 1_555 1_555
C15A C14A 1_555 1_555
H10A C15A 1_555 1_555
C16A N3A 1_555 1_555
C17A N3A 1_555 1_555
C18A C17A 1_555 1_555
C19A C18A 1_555 1_555
H11A C19A 1_555 1_555
H12A C19A 1_555 1_555
H13A C19A 1_555 1_555
C20A C18A 1_555 1_555
H14A C20A 1_555 1_555
H15A C20A 1_555 1_555
H16A C20A 1_555 1_555
C21A C18A 1_555 1_555
H17A C21A 1_555 1_555
H18A C21A 1_555 1_555
H19A C21A 1_555 1_555
C22A C6A 1_555 1_555
C23A C22A 1_555 1_555
H20A C23A 1_555 1_555
C24A C23A 1_555 1_555
H21A C24A 1_555 1_555
C25A C24A 1_555 1_555
H22A C25A 1_555 1_555
C26A C25A 1_555 1_555
H23A C26A 1_555 1_555
C27A N4A 1_555 1_555
C28A N4A 1_555 1_555
C29A C28A 1_555 1_555
C30A C29A 1_555 1_555
H24A C30A 1_555 1_555
H25A C30A 1_555 1_555
H26A C30A 1_555 1_555
C31A C29A 1_555 1_555
H27A C31A 1_555 1_555
H28A C31A 1_555 1_555
H29A C31A 1_555 1_555
C32A C29A 1_555 1_555
H30A C32A 1_555 1_555
H31A C32A 1_555 1_555
H32A C32A 1_555 1_555
O3A K1 1_555 1_555
O4A K1 1_555 1_555
O5A K1 1_555 1_555
C34A C35 1_555 1_555
H33A C34A 1_555 1_555
H34A C34A 1_555 1_555
C35A C34 1_555 1_555
H35A C35A 1_555 1_555
H36A C35A 1_555 1_555
C36A O3A 1_555 1_555
H37A C36A 1_555 1_555
H38A C36A 1_555 1_555
C37A O4A 1_555 1_555
H39A C37A 1_555 1_555
H40A C37A 1_555 1_555
C38A O4A 1_555 1_555
H41A C38A 1_555 1_555
H42A C38A 1_555 1_555
C39A O5A 1_555 1_555
H43A C39A 1_555 1_555
H44A C39A 1_555 1_555
N5A C33A 1_555 1_555
C33A Co1 1_555 1_555
O2A_2 K1 1_555 1_555
K1_2 O2A 1_555 1_555
C4 C5 1_555 1_555
C6 C7 1_555 1_555
C9 C10 1_555 1_555
C11 C16 1_555 1_555
C15 C16 1_555 1_555
C22 C27 1_555 1_555
C26 C27 1_555 1_555
C36 C37 1_555 1_555
C38 C39 1_555 1_555
N2A C10A 1_555 1_555
C1A C2A 1_555 1_555
C4A C5A 1_555 1_555
C6A C7A 1_555 1_555
C9A C10A 1_555 1_555
C11A C16A 1_555 1_555
C15A C16A 1_555 1_555
C22A C27A 1_555 1_555
C26A C27A 1_555 1_555
O3A C35A 1_555 1_555
O5A C34A 1_555 1_555
C36A C37A 1_555 1_555
C38A C39A 1_555 1_555

#END
