
#######################################################################
#
#                 Cambridge Crystallographic Data Centre
#                                CCDC 
#
#######################################################################
#
# If this CIF has been generated from an entry in the Cambridge 
# Structural Database, then it will include bibliographic, chemical, 
# crystal, experimental, refinement or atomic coordinate data resulting 
# from the CCDC's data processing and validation procedures.
#
#######################################################################

data_LIVTER
_symmetry_cell_setting           monoclinic
_symmetry_space_group_name_H-M   'P 21/c'
_symmetry_Int_Tables_number      14
_space_group_name_Hall           '-P 2ybc'
loop_
_symmetry_equiv_pos_site_id
_symmetry_equiv_pos_as_xyz
1 x,y,z
2 -x,1/2+y,1/2-z
3 -x,-y,-z
4 x,1/2-y,1/2+z
_cell_length_a                   11.7106(4)
_cell_length_b                   12.5045(3)
_cell_length_c                   13.3522(10)
_cell_angle_alpha                90
_cell_angle_beta                 116.262(4)
_cell_angle_gamma                90
_cell_volume                     1753.41
loop_
_atom_site_label
_atom_site_type_symbol
_atom_site_fract_x
_atom_site_fract_y
_atom_site_fract_z
Cu1 Cu 0.60076(3) 1.06835(3) 0.52441(3)
O1 O 0.6732(2) 0.93621(17) 0.4934(2)
O2 O 0.5054(2) 0.82669(17) 0.4452(2)
O3 O 0.4999(2) 0.5951(2) 0.13723(19)
O4 O 0.6664(2) 0.48515(18) 0.17943(18)
N1 N 1.0856(3) 0.7493(2) 0.4703(2)
N2 N 1.2348(3) 0.8398(2) 0.4485(2)
C1 C 0.6867(3) 0.7631(2) 0.4299(3)
C2 C 0.6195(3) 0.6962(2) 0.3414(3)
H1 H 0.5311 0.7006 0.3049
C3 C 0.6823(3) 0.6220(2) 0.3062(3)
C4 C 0.8142(3) 0.6132(3) 0.3646(3)
H2 H 0.8568 0.5623 0.3429
C5 C 0.8826(3) 0.6793(2) 0.4546(3)
C6 C 0.8179(3) 0.7554(2) 0.4862(3)
H3 H 0.8632 0.8012 0.5456
C7 C 1.0264(3) 0.6715(3) 0.5152(3)
H4 H 1.0547 0.6849 0.5942
H5 H 1.0528 0.5998 0.5070
C8 C 1.0254(4) 0.8264(3) 0.3897(4)
H6 H 0.9383 0.8389 0.3516
C9 C 1.1186(4) 0.8799(3) 0.3776(3)
H7 H 1.1054 0.9361 0.3280
C10 C 1.2118(3) 0.7599(3) 0.5023(3)
C11 C 1.3092(4) 0.6886(3) 0.5853(3)
H8 H 1.3922 0.7093 0.5944
H9 H 1.2926 0.6160 0.5596
H10 H 1.3058 0.6946 0.6557
C12 C 0.6157(3) 0.8493(3) 0.4594(3)
C13 C 0.6097(3) 0.5615(3) 0.1996(3)
Cu1A Cu 0.39924(3) 0.56835(3) -0.02441(3)
Cu1B Cu 0.39924(3) 0.93165(3) 0.47559(3)
Cu1B_2 Cu 1.39924(3) 0.93165(3) 0.47559(3)
Cu1C Cu 0.60076(3) 0.43165(3) 0.02441(3)
O2B O 0.4946(2) 1.17331(17) 0.5548(2)
O3A O 0.5001(2) 1.0951(2) 0.36277(19)
O4C O 0.6664(2) 1.01485(18) 0.67943(18)
N2B N 0.7652(3) 1.1602(2) 0.5515(2)
O5 O 0.0856(4) 0.9889(4) 0.8517(4)
N3 N 0.2451(5) 0.9890(4) 0.8018(4)
C14 C 0.2045(12) 0.9070(8) 0.7274(8)
H11 H 0.2627 0.8481 0.7556
H12 H 0.2008 0.9303 0.6575
H13 H 0.1214 0.8847 0.7165
C15 C 0.3641(9) 1.0405(9) 0.8191(9)
H14 H 0.3741 1.1059 0.8598
H15 H 0.3625 1.0559 0.7480
H16 H 0.4341 0.9936 0.8607
C16 C 0.1833(6) 1.0208(5) 0.8565(5)
H17 H 0.2208 1.0766 0.9065
loop_
_geom_bond_atom_site_label_1
_geom_bond_atom_site_label_2
_geom_bond_site_symmetry_1
_geom_bond_site_symmetry_2
Cu1 O1 1_555 1_555
O1 C12 1_555 1_555
O2 C12 1_555 1_555
O3 C13 1_555 1_555
O4 C13 1_555 1_555
N1 C7 1_555 1_555
N2 C9 1_555 1_555
C1 C2 1_555 1_555
C2 H1 1_555 1_555
C3 C2 1_555 1_555
C4 C3 1_555 1_555
H2 C4 1_555 1_555
C5 C4 1_555 1_555
C6 C1 1_555 1_555
H3 C6 1_555 1_555
C7 C5 1_555 1_555
H4 C7 1_555 1_555
H5 C7 1_555 1_555
C8 N1 1_555 1_555
H6 C8 1_555 1_555
C9 C8 1_555 1_555
H7 C9 1_555 1_555
C10 N1 1_555 1_555
C11 C10 1_555 1_555
H8 C11 1_555 1_555
H9 C11 1_555 1_555
H10 C11 1_555 1_555
C12 C1 1_555 1_555
C13 C3 1_555 1_555
O5 C16 1_555 1_555
N3 C14 1_555 1_555
C14 H11 1_555 1_555
H12 C14 1_555 1_555
H13 C14 1_555 1_555
C15 N3 1_555 1_555
H14 C15 1_555 1_555
H15 C15 1_555 1_555
H16 C15 1_555 1_555
C16 N3 1_555 1_555
H17 C16 1_555 1_555
Cu1A O3 1_555 1_555
Cu1B Cu1 1_555 1_555
Cu1B_2 N2 1_555 1_555
Cu1C O4 1_555 1_555
O2B Cu1 1_555 1_555
O3A Cu1 1_555 1_555
O4C Cu1 1_555 1_555
N2B Cu1 1_555 1_555
O2 Cu1B 1_555 1_555
N2 C10 1_555 1_555
C5 C6 1_555 1_555
Cu1A Cu1C 1_555 1_555

#END
