
#######################################################################
#
#                 Cambridge Crystallographic Data Centre
#                                CCDC 
#
#######################################################################
#
# If this CIF has been generated from an entry in the Cambridge 
# Structural Database, then it will include bibliographic, chemical, 
# crystal, experimental, refinement or atomic coordinate data resulting 
# from the CCDC's data processing and validation procedures.
#
#######################################################################

data_LIVTAN
_symmetry_cell_setting           orthorhombic
_symmetry_space_group_name_H-M   'P b c a'
_symmetry_Int_Tables_number      61
_space_group_name_Hall           '-P 2ac 2ab'
loop_
_symmetry_equiv_pos_site_id
_symmetry_equiv_pos_as_xyz
1 x,y,z
2 1/2-x,-y,1/2+z
3 -x,1/2+y,1/2-z
4 1/2+x,1/2-y,-z
5 -x,-y,-z
6 1/2+x,y,1/2-z
7 x,1/2-y,1/2+z
8 1/2-x,1/2+y,z
_cell_length_a                   10.5109(4)
_cell_length_b                   13.6553(5)
_cell_length_c                   18.3511(6)
_cell_angle_alpha                90
_cell_angle_beta                 90
_cell_angle_gamma                90
_cell_volume                     2633.92
loop_
_atom_site_label
_atom_site_type_symbol
_atom_site_fract_x
_atom_site_fract_y
_atom_site_fract_z
Zn1 Zn 1.25412(5) 1.18676(3) 0.67558(2)
O1 O 1.1075(3) 1.1565(2) 0.61606(16)
O2 O 1.0233(3) 1.0637(2) 0.70260(15)
O3 O 0.7123(3) 1.11886(19) 0.35764(16)
O4 O 0.8434(3) 1.23335(18) 0.39879(15)
O5 O 1.3588(3) 1.06258(19) 0.68437(15)
H1 H 1.3988 1.0575 0.7267
H2 H 1.3247 1.0015 0.6756
N1 N 0.7153(4) 0.8044(2) 0.61873(19)
N2 N 0.7511(4) 0.7277(2) 0.72128(19)
C1 C 1.0246(4) 1.0964(3) 0.6398(2)
C2 C 0.9240(4) 1.0670(3) 0.5858(2)
C3 C 0.9074(4) 1.1180(3) 0.5214(2)
H3 H 0.9606 1.1706 0.5108
C4 C 0.8126(4) 1.0920(3) 0.4724(2)
C5 C 0.7370(4) 1.0112(3) 0.4876(2)
H4 H 0.6742 0.9927 0.4547
C6 C 0.7537(4) 0.9577(3) 0.5511(2)
C7 C 0.8468(4) 0.9863(3) 0.6005(2)
H5 H 0.8577 0.9515 0.6436
C8 C 0.7874(4) 1.1507(3) 0.4045(2)
C9 C 0.6690(5) 0.8687(3) 0.5633(3)
H6 H 0.5845 0.8908 0.5766
H7 H 0.6620 0.8326 0.5180
C10 C 0.6815(5) 0.7906(3) 0.6877(3)
C11 C 0.5752(5) 0.8446(3) 0.7219(3)
H8 H 0.5566 0.8164 0.7686
H9 H 0.5013 0.8404 0.6913
H10 H 0.5987 0.9120 0.7280
C12 C 0.8217(5) 0.7414(4) 0.6074(3)
H11 H 0.8674 0.7348 0.5643
C13 C 0.8437(5) 0.6946(3) 0.6678(3)
H12 H 0.9073 0.6484 0.6755
Zn1B Zn 0.74588(5) 0.68676(3) 0.82442(2)
Zn1C Zn 0.75412(5) 1.31324(3) 0.32442(2)
O4C O 1.3434(3) 1.26665(18) 0.60121(15)
N2B N 1.2489(4) 1.2277(2) 0.77872(19)
loop_
_geom_bond_atom_site_label_1
_geom_bond_atom_site_label_2
_geom_bond_site_symmetry_1
_geom_bond_site_symmetry_2
Zn1 O1 1_555 1_555
O1 C1 1_555 1_555
O2 C1 1_555 1_555
O3 C8 1_555 1_555
O4 C8 1_555 1_555
O5 Zn1 1_555 1_555
H1 O5 1_555 1_555
H2 O5 1_555 1_555
N1 C9 1_555 1_555
N2 C10 1_555 1_555
C1 C2 1_555 1_555
C2 C3 1_555 1_555
C3 H3 1_555 1_555
C4 C3 1_555 1_555
C5 C4 1_555 1_555
H4 C5 1_555 1_555
C6 C5 1_555 1_555
C7 C2 1_555 1_555
H5 C7 1_555 1_555
C8 C4 1_555 1_555
C9 C6 1_555 1_555
H6 C9 1_555 1_555
H7 C9 1_555 1_555
C10 N1 1_555 1_555
C11 C10 1_555 1_555
H8 C11 1_555 1_555
H9 C11 1_555 1_555
H10 C11 1_555 1_555
C12 N1 1_555 1_555
H11 C12 1_555 1_555
C13 N2 1_555 1_555
H12 C13 1_555 1_555
Zn1B N2 1_555 1_555
Zn1C O4 1_555 1_555
O4C Zn1 1_555 1_555
N2B Zn1 1_555 1_555
C6 C7 1_555 1_555
C12 C13 1_555 1_555

#END
