
#######################################################################
#
#                 Cambridge Crystallographic Data Centre
#                                CCDC 
#
#######################################################################
#
# If this CIF has been generated from an entry in the Cambridge 
# Structural Database, then it will include bibliographic, chemical, 
# crystal, experimental, refinement or atomic coordinate data resulting 
# from the CCDC's data processing and validation procedures.
#
#######################################################################

data_LIVWUK
_symmetry_cell_setting           monoclinic
_symmetry_space_group_name_H-M   'P 2/c'
_symmetry_Int_Tables_number      13
_space_group_name_Hall           '-P 2yc'
loop_
_symmetry_equiv_pos_site_id
_symmetry_equiv_pos_as_xyz
1 x,y,z
2 -x,y,1/2-z
3 -x,-y,-z
4 x,-y,1/2+z
_cell_length_a                   5.43280(54)
_cell_length_b                   5.41122(58)
_cell_length_c                   11.9143(15)
_cell_angle_alpha                90
_cell_angle_beta                 107.6955(49)
_cell_angle_gamma                90
_cell_volume                     333.685
loop_
_atom_site_label
_atom_site_type_symbol
_atom_site_fract_x
_atom_site_fract_y
_atom_site_fract_z
N1 N -0.23399(67) -0.43146(43) -0.14344(19)
N2 N 0.34652(56) 0.13290(68) -0.14220(31)
C1 C -0.11757(59) -0.27519(43) -0.11300(24)
C2 C 0.20602(41) 0.03308(85) -0.11674(33)
C3 C 0.02296(13) -0.04980(15) -0.050490(64)
Li1 Li -0.5 -0.6875(36) -0.25
N1B N 0.23399(67) 0.43146(43) 0.14344(19)
N2B N -0.34652(56) -0.13290(68) 0.14220(31)
C1B C 0.11757(59) 0.27519(43) 0.11300(24)
C2B C -0.20602(41) -0.03308(85) 0.11674(33)
C3B C -0.02296(13) 0.04980(15) 0.050490(64)
N1A N -0.76601(67) -0.43146(43) -0.35656(19)
N2_2 N -0.65348(56) -0.86710(68) -0.14220(31)
N2A N -0.34652(56) -0.86710(68) -0.35780(31)
Li1_2 Li 0.5 0.3125(36) -0.25
Li1B Li -0.5 -0.3125(36) 0.25
Li1B_2 Li 0.5 0.6875(36) 0.25
loop_
_geom_bond_atom_site_label_1
_geom_bond_atom_site_label_2
_geom_bond_site_symmetry_1
_geom_bond_site_symmetry_2
N1 C1 1_555 1_555
N2 C2 1_555 1_555
C1 C3 1_555 1_555
C2 C3 1_555 1_555
C3 C3B 1_555 1_555
Li1 N1 1_555 1_555
N1B C1B 1_555 1_555
N2B C2B 1_555 1_555
C1B C3B 1_555 1_555
C2B C3B 1_555 1_555
N1A Li1 1_555 1_555
N2_2 Li1 1_555 1_555
N2A Li1 1_555 1_555
Li1_2 N2 1_555 1_555
Li1B N2B 1_555 1_555
Li1B_2 N1B 1_555 1_555

#END
