
#######################################################################
#
#                 Cambridge Crystallographic Data Centre
#                                CCDC 
#
#######################################################################
#
# If this CIF has been generated from an entry in the Cambridge 
# Structural Database, then it will include bibliographic, chemical, 
# crystal, experimental, refinement or atomic coordinate data resulting 
# from the CCDC's data processing and validation procedures.
#
#######################################################################

data_LIVWUK05
_symmetry_cell_setting           monoclinic
_symmetry_space_group_name_H-M   'P 2/c'
_symmetry_Int_Tables_number      13
_space_group_name_Hall           '-P 2yc'
loop_
_symmetry_equiv_pos_site_id
_symmetry_equiv_pos_as_xyz
1 x,y,z
2 -x,y,1/2-z
3 -x,-y,-z
4 x,-y,1/2+z
_cell_length_a                   5.42943(33)
_cell_length_b                   5.41232(88)
_cell_length_c                   11.9671(18)
_cell_angle_alpha                90
_cell_angle_beta                 106.6921(41)
_cell_angle_gamma                90
_cell_volume                     336.845
loop_
_atom_site_label
_atom_site_type_symbol
_atom_site_fract_x
_atom_site_fract_y
_atom_site_fract_z
N1 N -0.24256(93) -0.41945(41) -0.14305(32)
N2 N 0.34498(63) 0.14691(69) -0.13930(41)
C1 C -0.12164(70) -0.26431(40) -0.11287(16)
C2 C 0.20161(65) 0.03646(47) -0.11906(26)
C3 C 0.02399(26) -0.04738(17) -0.05359(16)
Li1 Li -0.5 -0.6905(59) -0.25
N1B N 0.24256(93) 0.41945(41) 0.14305(32)
N2B N -0.34498(63) -0.14691(69) 0.13930(41)
C1B C 0.12164(70) 0.26431(40) 0.11287(16)
C2B C -0.20161(65) -0.03646(47) 0.11906(26)
C3B C -0.02399(26) 0.04738(17) 0.05359(16)
N1A N -0.75744(93) -0.41945(41) -0.35695(32)
N2_2 N -0.65502(63) -0.85309(69) -0.13930(41)
N2A N -0.34498(63) -0.85309(69) -0.36070(41)
Li1_2 Li 0.5 0.3095(59) -0.25
Li1B Li -0.5 -0.3095(59) 0.25
Li1B_2 Li 0.5 0.6905(59) 0.25
loop_
_geom_bond_atom_site_label_1
_geom_bond_atom_site_label_2
_geom_bond_site_symmetry_1
_geom_bond_site_symmetry_2
N1 C1 1_555 1_555
N2 C2 1_555 1_555
C1 C3 1_555 1_555
C2 C3 1_555 1_555
C3 C3B 1_555 1_555
Li1 N1 1_555 1_555
N1B C1B 1_555 1_555
N2B C2B 1_555 1_555
C1B C3B 1_555 1_555
C2B C3B 1_555 1_555
N1A Li1 1_555 1_555
N2_2 Li1 1_555 1_555
N2A Li1 1_555 1_555
Li1_2 N2 1_555 1_555
Li1B N2B 1_555 1_555
Li1B_2 N1B 1_555 1_555

#END
