
#######################################################################
#
#                 Cambridge Crystallographic Data Centre
#                                CCDC 
#
#######################################################################
#
# If this CIF has been generated from an entry in the Cambridge 
# Structural Database, then it will include bibliographic, chemical, 
# crystal, experimental, refinement or atomic coordinate data resulting 
# from the CCDC's data processing and validation procedures.
#
#######################################################################

data_LIVZUN
_symmetry_cell_setting           triclinic
_symmetry_space_group_name_H-M   'P -1'
_symmetry_Int_Tables_number      2
_space_group_name_Hall           '-P 1'
loop_
_symmetry_equiv_pos_site_id
_symmetry_equiv_pos_as_xyz
1 x,y,z
2 -x,-y,-z
_cell_length_a                   13.934(3)
_cell_length_b                   16.906(3)
_cell_length_c                   17.462(3)
_cell_angle_alpha                114.68(3)
_cell_angle_beta                 100.97(3)
_cell_angle_gamma                97.63(3)
_cell_volume                     3564.08
loop_
_atom_site_label
_atom_site_type_symbol
_atom_site_fract_x
_atom_site_fract_y
_atom_site_fract_z
C1 C 0.9022(8) 0.3600(6) 0.5302(7)
H1 H 0.8486 0.3116 0.4918
C2 C 0.8891(10) 0.4465(7) 0.5510(8)
H2 H 0.8297 0.4566 0.5261
C3 C 0.9672(10) 0.5143(8) 0.6091(8)
H3 H 0.9588 0.5725 0.6290
C4 C 1.0567(10) 0.5016(7) 0.6397(8)
H4 H 1.1119 0.5497 0.6743
C5 C 1.0640(8) 0.4132(6) 0.6175(7)
C6 C 1.1585(8) 0.3933(7) 0.6534(6)
C7 C 1.2412(9) 0.4583(8) 0.7192(7)
H5 H 1.2385 0.5181 0.7455
C8 C 1.3256(9) 0.4332(8) 0.7446(8)
H6 H 1.3810 0.4769 0.7872
C9 C 1.3311(9) 0.3477(8) 0.7099(7)
H7 H 1.3881 0.3304 0.7284
C10 C 1.2462(8) 0.2849(7) 0.6437(7)
H8 H 1.2498 0.2254 0.6165
C11 C 1.0784(6) 0.0615(5) 0.6307(5)
C12 C 1.1058(6) 0.0989(5) 0.7289(5)
C13 C 1.0795(6) 0.0464(5) 0.7675(5)
H9 H 1.0453 -0.0133 0.7331
C14 C 1.1042(7) 0.0833(6) 0.8585(5)
C15 C 1.1557(7) 0.1718(6) 0.9096(6)
H10 H 1.1731 0.1960 0.9704
C16 C 1.1810(7) 0.2238(6) 0.8704(5)
C17 C 1.1550(7) 0.1885(6) 0.7801(5)
H11 H 1.1705 0.2246 0.7538
C18 C 1.2288(10) 0.3223(8) 0.9243(7)
C19 C 1.0726(8) 0.0284(6) 0.9019(6)
C20 C 0.8276(6) 0.2118(5) 0.6236(5)
C21 C 0.8261(6) 0.3058(5) 0.6848(5)
C22 C 0.7367(7) 0.3300(6) 0.6826(6)
H12 H 0.6779 0.2896 0.6421
C23 C 0.7336(7) 0.4153(6) 0.7414(6)
C24 C 0.8212(7) 0.4757(6) 0.8041(6)
H13 H 0.8187 0.5322 0.8446
C25 C 0.9099(7) 0.4506(6) 0.8051(6)
C26 C 0.9139(6) 0.3661(5) 0.7458(5)
H14 H 0.9751 0.3498 0.7467
C27 C 1.0036(8) 0.5154(7) 0.8693(7)
C28 C 0.6369(8) 0.4441(7) 0.7354(8)
C29 C 0.4725(6) -0.1198(5) 0.3341(5)
C30 C 0.3947(6) -0.1785(6) 0.2494(6)
C31 C 0.2983(6) -0.1660(6) 0.2361(5)
H15 H 0.2809 -0.1213 0.2807
C32 C 0.2270(7) -0.2200(6) 0.1567(6)
C33 C 0.2515(7) -0.2868(7) 0.0901(6)
H16 H 0.2033 -0.3236 0.0372
C34 C 0.3476(8) -0.2983(7) 0.1028(7)
C35 C 0.4213(7) -0.2441(6) 0.1817(6)
H17 H 0.4868 -0.2515 0.1890
C36 C 0.3755(10) -0.3706(9) 0.0312(9)
C37 C 0.1228(8) -0.2042(7) 0.1430(7)
C38 C 0.5265(6) -0.1409(5) 0.5427(6)
C39 C 0.5350(6) -0.2165(5) 0.5652(6)
C40 C 0.4773(6) -0.2318(5) 0.6166(6)
H18 H 0.4324 -0.1965 0.6350
C41 C 0.4866(7) -0.2989(5) 0.6402(6)
C42 C 0.5507(7) -0.3546(5) 0.6109(6)
H19 H 0.5559 -0.4004 0.6265
C43 C 0.6060(6) -0.3407(5) 0.5586(6)
C44 C 0.5976(6) -0.2716(5) 0.5351(6)
H20 H 0.6345 -0.2630 0.4989
C45 C 0.6680(7) -0.4019(6) 0.5205(7)
C46 C 0.4263(8) -0.3121(6) 0.6991(7)
C47 C 0.7703(6) 0.0924(5) 0.3743(5)
C48 C 0.7378(6) 0.0811(6) 0.2824(5)
C49 C 0.6666(7) 0.0044(6) 0.2181(5)
H21 H 0.6366 -0.0388 0.2316
C50 C 0.6418(7) -0.0053(6) 0.1326(6)
C51 C 0.6814(7) 0.0596(6) 0.1127(6)
H22 H 0.6617 0.0524 0.0558
C52 C 0.7504(7) 0.1360(6) 0.1769(5)
C53 C 0.7796(7) 0.1468(6) 0.2622(5)
H23 H 0.8269 0.1978 0.3055
C54 C 0.7936(8) 0.2053(7) 0.1548(6)
C55 C 0.5695(9) -0.0875(8) 0.0643(6)
C56 C 1.1119(6) 0.1737(5) 0.3876(5)
C57 C 1.1577(6) 0.1669(5) 0.3146(5)
C58 C 1.1372(7) 0.2200(6) 0.2748(5)
H24 H 1.0928 0.2564 0.2912
C59 C 1.1821(8) 0.2198(6) 0.2107(6)
C60 C 1.2442(7) 0.1618(6) 0.1827(6)
H25 H 1.2726 0.1599 0.1381
C61 C 1.2631(7) 0.1079(6) 0.2210(5)
C62 C 1.2211(6) 0.1100(5) 0.2884(5)
H26 H 1.2355 0.0740 0.3151
C63 C 1.3271(8) 0.0442(6) 0.1887(6)
C64 C 1.1571(9) 0.2795(7) 0.1695(7)
N1 N 1.1614(5) 0.3054(5) 0.6179(5)
N2 N 0.9877(5) 0.3435(4) 0.5626(4)
O1 O 0.7437(4) 0.1584(4) 0.5844(4)
O2 O 0.9115(4) 0.1927(4) 0.6168(3)
O3 O 0.7256(5) 0.0342(4) 0.3911(4)
O4 O 0.8408(4) 0.1575(4) 0.4284(3)
O5 O 0.4462(4) -0.0675(3) 0.3990(3)
O6 O 0.5633(4) -0.1208(4) 0.3386(4)
O7 O 0.4481(4) -0.1119(4) 0.5495(5)
O8 O 0.5975(4) -0.1111(4) 0.5197(4)
O9 O 1.0473(5) -0.0214(3) 0.5867(4)
O10 O 1.0905(4) 0.1149(3) 0.5990(3)
O11 O 1.1449(4) 0.1423(4) 0.4380(4)
O12 O 1.0408(4) 0.2120(4) 0.3966(4)
O13 O 0.7944(5) -0.0020(5) 0.5598(6)
H27 H 0.7836 -0.0475 0.5710
H28 H 0.8352 -0.0108 0.5267
F1 F 0.3282(7) -0.3452(7) 0.6558(7)
F2 F 0.4440(8) -0.3718(6) 0.7221(7)
F3 F 0.4279(8) -0.2382(5) 0.7649(6)
F4 F 0.6943(10) -0.4440(9) 0.5642(9)
F5 F 0.7526(6) -0.3664(5) 0.5155(6)
F6 F 0.6257(8) -0.4634(6) 0.4448(8)
F7 F 0.9938(7) 0.0433(7) 0.9278(7)
F8 F 1.0531(6) -0.0602(4) 0.8505(4)
F9 F 1.1435(6) 0.0409(5) 0.9706(4)
F10 F 1.1895(12) 0.3649(6) 0.9814(8)
F11 F 1.3112(12) 0.3315(8) 0.9866(10)
F12 F 1.2639(13) 0.3586(6) 0.8909(7)
F13 F 1.0572(10) 0.4839(7) 0.9073(10)
F14 F 0.9892(8) 0.5816(8) 0.9308(7)
F15 F 1.0577(9) 0.5515(10) 0.8412(7)
F16 F 0.5608(7) 0.3792(7) 0.7096(10)
F17 F 0.6178(9) 0.4745(12) 0.6832(12)
F18 F 0.6275(9) 0.5018(9) 0.8053(9)
F19 F 0.0576(6) -0.2709(9) 0.1363(10)
F20 F 0.0909(6) -0.2040(7) 0.0683(5)
F21 F 0.1120(6) -0.1361(8) 0.2018(6)
F22 F 0.3137(10) -0.4417(8) -0.0078(11)
F23 F 0.381(3) -0.3557(15) -0.0299(12)
F24 F 0.4557(11) -0.3870(10) 0.0519(9)
F25 F 0.4820(8) -0.0992(8) 0.0701(9)
F26 F 0.5850(10) -0.1591(6) 0.0634(8)
F27 F 0.5592(13) -0.1007(9) -0.0123(6)
F28 F 0.8112(10) 0.1789(7) 0.0819(6)
F29 F 0.7433(10) 0.2632(8) 0.1607(10)
F30 F 0.8802(10) 0.2555(8) 0.2069(8)
F31 F 1.2779(6) -0.0309(5) 0.1226(5)
F32 F 1.4006(6) 0.0773(6) 0.1654(6)
F33 F 1.3742(6) 0.0227(5) 0.2495(5)
F34 F 1.1438(11) 0.3536(6) 0.2247(6)
F35 F 1.0777(8) 0.2396(7) 0.1008(6)
F36 F 1.2281(7) 0.2983(5) 0.1356(5)
Nd1 Nd 1.00457(3) 0.17539(2) 0.51242(2)
Nd2 Nd 0.63678(3) 0.01340(2) 0.48575(2)
O5A O 0.5538(4) 0.0675(3) 0.6010(3)
O7A O 0.5519(4) 0.1119(4) 0.4505(5)
O9A O 0.9527(5) 0.0214(3) 0.4133(4)
Nd1A Nd 0.99543(3) -0.17539(2) 0.48758(2)
Nd2A Nd 0.36322(3) -0.01340(2) 0.51425(2)
loop_
_geom_bond_atom_site_label_1
_geom_bond_atom_site_label_2
_geom_bond_site_symmetry_1
_geom_bond_site_symmetry_2
C1 H1 1_555 1_555
C2 C1 1_555 1_555
H2 C2 1_555 1_555
C3 C2 1_555 1_555
H3 C3 1_555 1_555
C4 C3 1_555 1_555
H4 C4 1_555 1_555
C5 C4 1_555 1_555
C6 C5 1_555 1_555
C7 C6 1_555 1_555
H5 C7 1_555 1_555
C8 C7 1_555 1_555
H6 C8 1_555 1_555
C9 C8 1_555 1_555
H7 C9 1_555 1_555
C10 C9 1_555 1_555
H8 C10 1_555 1_555
C11 C12 1_555 1_555
C12 C13 1_555 1_555
C13 H9 1_555 1_555
C14 C13 1_555 1_555
C15 C14 1_555 1_555
H10 C15 1_555 1_555
C16 C15 1_555 1_555
C17 C12 1_555 1_555
H11 C17 1_555 1_555
C18 C16 1_555 1_555
C19 C14 1_555 1_555
C20 C21 1_555 1_555
C21 C22 1_555 1_555
C22 H12 1_555 1_555
C23 C22 1_555 1_555
C24 C23 1_555 1_555
H13 C24 1_555 1_555
C25 C24 1_555 1_555
C26 C21 1_555 1_555
H14 C26 1_555 1_555
C27 C25 1_555 1_555
C28 C23 1_555 1_555
C29 C30 1_555 1_555
C30 C31 1_555 1_555
C31 H15 1_555 1_555
C32 C31 1_555 1_555
C33 C32 1_555 1_555
H16 C33 1_555 1_555
C34 C33 1_555 1_555
C35 C30 1_555 1_555
H17 C35 1_555 1_555
C36 C34 1_555 1_555
C37 C32 1_555 1_555
C38 C39 1_555 1_555
C39 C40 1_555 1_555
C40 H18 1_555 1_555
C41 C40 1_555 1_555
C42 C41 1_555 1_555
H19 C42 1_555 1_555
C43 C42 1_555 1_555
C44 C39 1_555 1_555
H20 C44 1_555 1_555
C45 C43 1_555 1_555
C46 C41 1_555 1_555
C47 C48 1_555 1_555
C48 C49 1_555 1_555
C49 H21 1_555 1_555
C50 C49 1_555 1_555
C51 C50 1_555 1_555
H22 C51 1_555 1_555
C52 C51 1_555 1_555
C53 C48 1_555 1_555
H23 C53 1_555 1_555
C54 C52 1_555 1_555
C55 C50 1_555 1_555
C56 C57 1_555 1_555
C57 C58 1_555 1_555
C58 H24 1_555 1_555
C59 C58 1_555 1_555
C60 C59 1_555 1_555
H25 C60 1_555 1_555
C61 C60 1_555 1_555
C62 C57 1_555 1_555
H26 C62 1_555 1_555
C63 C61 1_555 1_555
C64 C59 1_555 1_555
N1 C6 1_555 1_555
N2 C1 1_555 1_555
O1 C20 1_555 1_555
O2 C20 1_555 1_555
O3 C47 1_555 1_555
O4 C47 1_555 1_555
O5 C29 1_555 1_555
O6 C29 1_555 1_555
O7 C38 1_555 1_555
O8 C38 1_555 1_555
O9 C11 1_555 1_555
O10 C11 1_555 1_555
O11 C56 1_555 1_555
O12 C56 1_555 1_555
O13 H27 1_555 1_555
H28 O13 1_555 1_555
F1 C46 1_555 1_555
F2 C46 1_555 1_555
F3 C46 1_555 1_555
F4 C45 1_555 1_555
F5 C45 1_555 1_555
F6 C45 1_555 1_555
F7 C19 1_555 1_555
F8 C19 1_555 1_555
F9 C19 1_555 1_555
F10 C18 1_555 1_555
F11 C18 1_555 1_555
F12 C18 1_555 1_555
F13 C27 1_555 1_555
F14 C27 1_555 1_555
F15 C27 1_555 1_555
F16 C28 1_555 1_555
F17 C28 1_555 1_555
F18 C28 1_555 1_555
F19 C37 1_555 1_555
F20 C37 1_555 1_555
F21 C37 1_555 1_555
F22 C36 1_555 1_555
F23 C36 1_555 1_555
F24 C36 1_555 1_555
F25 C55 1_555 1_555
F26 C55 1_555 1_555
F27 C55 1_555 1_555
F28 C54 1_555 1_555
F29 C54 1_555 1_555
F30 C54 1_555 1_555
F31 C63 1_555 1_555
F32 C63 1_555 1_555
F33 C63 1_555 1_555
F34 C64 1_555 1_555
F35 C64 1_555 1_555
F36 C64 1_555 1_555
Nd1 N1 1_555 1_555
Nd2 O1 1_555 1_555
O5A Nd2 1_555 1_555
O7A Nd2 1_555 1_555
O9A Nd1 1_555 1_555
Nd1A O9 1_555 1_555
Nd2A O5 1_555 1_555
C5 N2 1_555 1_555
C10 N1 1_555 1_555
C16 C17 1_555 1_555
C25 C26 1_555 1_555
C34 C35 1_555 1_555
C43 C44 1_555 1_555
C52 C53 1_555 1_555
C61 C62 1_555 1_555
N2 Nd1 1_555 1_555
O2 Nd1 1_555 1_555
O3 Nd2 1_555 1_555
O4 Nd1 1_555 1_555
O5 Nd2 1_555 1_555
O6 Nd2 1_555 1_555
O7 Nd2A 1_555 1_555
O8 Nd2 1_555 1_555
O10 Nd1 1_555 1_555
O11 Nd1 1_555 1_555
O12 Nd1 1_555 1_555
O13 Nd2 1_555 1_555
O5A Nd2A 1_555 1_555

#END
