
#######################################################################
#
#                 Cambridge Crystallographic Data Centre
#                                CCDC 
#
#######################################################################
#
# If this CIF has been generated from an entry in the Cambridge 
# Structural Database, then it will include bibliographic, chemical, 
# crystal, experimental, refinement or atomic coordinate data resulting 
# from the CCDC's data processing and validation procedures.
#
#######################################################################

data_LIWDEB10
_symmetry_cell_setting           hexagonal
_symmetry_space_group_name_H-M   'P 65 2 2'
_symmetry_Int_Tables_number      179
_space_group_name_Hall           "P 65 2' (0,0,1)"
loop_
_symmetry_equiv_pos_site_id
_symmetry_equiv_pos_as_xyz
1 x,y,z
2 -y,x-y,2/3+z
3 -x+y,-x,1/3+z
4 -x,-y,1/2+z
5 y,-x+y,1/6+z
6 x-y,x,5/6+z
7 y,x,2/3-z
8 x-y,-y,-z
9 -x,-x+y,1/3-z
10 -y,-x,1/6-z
11 -x+y,y,1/2-z
12 x,x-y,5/6-z
_cell_length_a                   11.025(3)
_cell_length_b                   11.025(3)
_cell_length_c                   24.689(11)
_cell_angle_alpha                90
_cell_angle_beta                 90
_cell_angle_gamma                120
_cell_volume                     2598.91
loop_
_atom_site_label
_atom_site_type_symbol
_atom_site_fract_x
_atom_site_fract_y
_atom_site_fract_z
Cu1 Cu 0.48479(5) 1.0000 0.0000
C1 C 1.0501(4) 1.0000 0.0000
N1 N 0.6648(4) 1.0000 0.0000
O1 O 0.5669(3) 1.1724(3) 0.04205(11)
N2 N 1.3027(4) 1.0000 0.0000
C2 C 1.0560(4) 0.8797(4) 0.01096(16)
H1 H 0.9734 0.7957 0.0191
C3 C 1.1816(4) 0.8828(4) 0.01000(15)
H2 H 1.1828 0.7994 0.0166
C4 C 0.5515(4) 1.3354(4) 0.09932(16)
H3 H 0.5750 1.3549 0.1378
H4 H 0.4651 1.3381 0.0931
C5 C 0.5227(4) 1.1891(4) 0.08749(16)
O2 O 0.4564(3) 1.0930(3) 0.12067(12)
O3 O 0.5653(3) 1.1554(3) -0.08210(12)
H5 H 0.6423 1.1858 -0.0990
H6 H 0.5142 1.0684 -0.0887
C6 C 0.9119(4) 1.1212(4) 0.00847(18)
H7 H 0.9950 1.2065 0.0145
C7 C 0.9173(5) 1.0000 0.0000
C8 C 0.7861(4) 1.1174(4) 0.00807(17)
H8 H 0.7852 1.2013 0.0137
Cu1_2 Cu 1.48479(5) 1.0000 0.0000
Cu1D Cu 1.0000 1.51521(5) 0.1667
O1I O 0.8276(3) 1.4331(3) 0.12462(11)
O1G O 0.3945(4) 0.8276(3) -0.04205(11)
N2_2 N 0.3027(4) 1.0000 0.0000
C2G C 1.1763(6) 1.1203(4) -0.01096(16)
H1G H 1.1777 1.2043 -0.0191
C3G C 1.2988(6) 1.1172(4) -0.01000(15)
H2G H 1.3834 1.2006 -0.0166
C4I C 0.6646(4) 1.4485(4) 0.06735(16)
H3I H 0.6451 1.4250 0.0289
H4I H 0.6619 1.5349 0.0736
C5I C 0.8109(4) 1.4773(4) 0.07918(16)
O2I O 0.9070(3) 1.5436(3) 0.04600(12)
O3G O 0.4099(4) 0.8446(3) 0.08210(12)
H5G H 0.4565 0.8142 0.0990
H6G H 0.4458 0.9316 0.0887
C6G C 0.7907(6) 0.8788(4) -0.00847(18)
H7G H 0.7885 0.7935 -0.0145
C8G C 0.6687(6) 0.8826(4) -0.00807(17)
H8G H 0.5839 0.7987 -0.0137
O4 O 0.4544(4) 1.1456(4) 0.22791(15)
H9 H 0.4395 1.2129 0.2342
H10 H 0.5263 1.1589 0.2455
loop_
_geom_bond_atom_site_label_1
_geom_bond_atom_site_label_2
_geom_bond_site_symmetry_1
_geom_bond_site_symmetry_2
Cu1 N1 1_555 1_555
C1 C2 1_555 1_555
N1 C8 1_555 1_555
O1 Cu1 1_555 1_555
N2 C3 1_555 1_555
C2 H1 1_555 1_555
C3 C2 1_555 1_555
H2 C3 1_555 1_555
C4 H3 1_555 1_555
H4 C4 1_555 1_555
C5 O1 1_555 1_555
O2 C5 1_555 1_555
O3 Cu1 1_555 1_555
H5 O3 1_555 1_555
H6 O3 1_555 1_555
C6 H7 1_555 1_555
C7 C1 1_555 1_555
C8 C6 1_555 1_555
H8 C8 1_555 1_555
O4 H9 1_555 1_555
H10 O4 1_555 1_555
Cu1_2 N2 1_555 1_555
Cu1D O1I 1_555 1_555
O1I C5I 1_555 1_555
O1G Cu1 1_555 1_555
N2_2 Cu1 1_555 1_555
C2G C1 1_555 1_555
H1G C2G 1_555 1_555
C3G N2 1_555 1_555
H2G C3G 1_555 1_555
C4I C4 1_555 1_555
H3I C4I 1_555 1_555
H4I C4I 1_555 1_555
C5I C4I 1_555 1_555
O2I C5I 1_555 1_555
O3G Cu1 1_555 1_555
H5G O3G 1_555 1_555
H6G O3G 1_555 1_555
C6G C7 1_555 1_555
H7G C6G 1_555 1_555
C8G N1 1_555 1_555
H8G C8G 1_555 1_555
C4 C5 1_555 1_555
C6 C7 1_555 1_555
C2G C3G 1_555 1_555
C6G C8G 1_555 1_555

#END
