
#######################################################################
#
#                 Cambridge Crystallographic Data Centre
#                                CCDC 
#
#######################################################################
#
# If this CIF has been generated from an entry in the Cambridge 
# Structural Database, then it will include bibliographic, chemical, 
# crystal, experimental, refinement or atomic coordinate data resulting 
# from the CCDC's data processing and validation procedures.
#
#######################################################################

data_LIWDEB05
_symmetry_cell_setting           hexagonal
_symmetry_space_group_name_H-M   'P 65 2 2'
_symmetry_Int_Tables_number      179
_space_group_name_Hall           "P 65 2' (0,0,1)"
loop_
_symmetry_equiv_pos_site_id
_symmetry_equiv_pos_as_xyz
1 x,y,z
2 -y,x-y,2/3+z
3 -x+y,-x,1/3+z
4 -x,-y,1/2+z
5 y,-x+y,1/6+z
6 x-y,x,5/6+z
7 y,x,2/3-z
8 x-y,-y,-z
9 -x,-x+y,1/3-z
10 -y,-x,1/6-z
11 -x+y,y,1/2-z
12 x,x-y,5/6-z
_cell_length_a                   11.070(2)
_cell_length_b                   11.070(2)
_cell_length_c                   24.947(10)
_cell_angle_alpha                90
_cell_angle_beta                 90
_cell_angle_gamma                120
_cell_volume                     2647.55
loop_
_atom_site_label
_atom_site_type_symbol
_atom_site_fract_x
_atom_site_fract_y
_atom_site_fract_z
Cu1 Cu 0.51456(4) 1.0000 0.0000
C1 C 0.7007(3) 0.8836(3) -0.00993(14)
H1 H 0.6172 0.8017 -0.0165
N1 N 0.6974(3) 1.0000 0.0000
O1 O 0.4332(2) 0.8282(2) 0.04214(9)
C2 C 0.8234(3) 0.8801(3) -0.01090(14)
H2 H 0.8218 0.7973 -0.0189
C3 C 0.9492(3) 1.0000 0.0000
O3 O 0.5850(3) 1.1542(3) 0.08196(10)
H5 H 0.5971 1.0903 0.0952
H6 H 0.6499 1.2326 0.0930
N2 N 1.3343(3) 1.0000 0.0000
O4 O 0.5424(3) 0.9075(3) 0.11998(10)
C4 C 1.0819(4) 1.0000 0.0000
C5 C 0.4751(3) 0.8116(3) 0.08686(13)
C6 C 0.4481(3) 0.6664(3) 0.09959(14)
H7 H 0.5336 0.6641 0.0938
H8 H 0.4245 0.6476 0.1373
C7 C 1.3315(3) 1.1183(3) -0.00778(16)
H9 H 1.4150 1.2011 -0.0132
C8 C 1.2078(3) 1.1207(4) -0.00805(17)
H10 H 1.2095 1.2045 -0.0137
Cu1_2 Cu 1.51456(4) 1.0000 0.0000
Cu1D Cu 0.0000 0.48544(4) 0.1667
C1G C 0.8171(4) 1.1164(3) 0.00993(14)
H1G H 0.8155 1.1983 0.0165
O1I O 0.1718(2) 0.5668(2) 0.12453(9)
O1G O 0.6050(3) 1.1718(2) -0.04214(9)
C2G C 0.9433(4) 1.1199(3) 0.01090(14)
H2G H 1.0245 1.2027 0.0189
O3G O 0.4308(4) 0.8458(3) -0.08196(10)
H5G H 0.5068 0.9097 -0.0952
H6G H 0.4173 0.7674 -0.0930
N2_2 N 0.3343(3) 1.0000 0.0000
O4I O 0.0925(3) 0.4576(3) 0.04669(10)
C5I C 0.1884(3) 0.5249(3) 0.07981(13)
C6I C 0.3336(3) 0.5519(3) 0.06708(14)
H7I H 0.3359 0.4664 0.0729
H8I H 0.3524 0.5755 0.0294
C7G C 1.2132(4) 0.8817(3) 0.00778(16)
H9G H 1.2139 0.7989 0.0132
C8G C 1.0871(5) 0.8793(4) 0.00805(17)
H10G H 1.0050 0.7955 0.0137
O2 O 0.1464(3) 0.6916(4) -0.10463(13)
H3 H 0.0646 0.6324 -0.1149
H4 H 0.1970 0.7212 -0.1326
loop_
_geom_bond_atom_site_label_1
_geom_bond_atom_site_label_2
_geom_bond_site_symmetry_1
_geom_bond_site_symmetry_2
Cu1 N1 1_555 1_555
C1 H1 1_555 1_555
N1 C1 1_555 1_555
O1 Cu1 1_555 1_555
C2 C1 1_555 1_555
H2 C2 1_555 1_555
O2 H3 1_555 1_555
H4 O2 1_555 1_555
C3 C2 1_555 1_555
O3 Cu1 1_555 1_555
H5 O3 1_555 1_555
H6 O3 1_555 1_555
N2 C7 1_555 1_555
O4 C5 1_555 1_555
C4 C3 1_555 1_555
C5 O1 1_555 1_555
C6 C5 1_555 1_555
H7 C6 1_555 1_555
H8 C6 1_555 1_555
C7 H9 1_555 1_555
C8 C4 1_555 1_555
H10 C8 1_555 1_555
Cu1_2 N2 1_555 1_555
Cu1D O1I 1_555 1_555
C1G N1 1_555 1_555
H1G C1G 1_555 1_555
O1I C5I 1_555 1_555
O1G Cu1 1_555 1_555
C2G C3 1_555 1_555
H2G C2G 1_555 1_555
O3G Cu1 1_555 1_555
H5G O3G 1_555 1_555
H6G O3G 1_555 1_555
N2_2 Cu1 1_555 1_555
O4I C5I 1_555 1_555
C5I C6I 1_555 1_555
C6I C6 1_555 1_555
H7I C6I 1_555 1_555
H8I C6I 1_555 1_555
C7G N2 1_555 1_555
H9G C7G 1_555 1_555
C8G C4 1_555 1_555
H10G C8G 1_555 1_555
C7 C8 1_555 1_555
C1G C2G 1_555 1_555
C7G C8G 1_555 1_555

#END
