
#######################################################################
#
#                 Cambridge Crystallographic Data Centre
#                                CCDC 
#
#######################################################################
#
# If this CIF has been generated from an entry in the Cambridge 
# Structural Database, then it will include bibliographic, chemical, 
# crystal, experimental, refinement or atomic coordinate data resulting 
# from the CCDC's data processing and validation procedures.
#
#######################################################################

data_LIWDEB
_symmetry_cell_setting           hexagonal
_symmetry_space_group_name_H-M   'P 65 2 2'
_symmetry_Int_Tables_number      179
_space_group_name_Hall           "P 65 2' (0,0,1)"
loop_
_symmetry_equiv_pos_site_id
_symmetry_equiv_pos_as_xyz
1 x,y,z
2 -y,x-y,2/3+z
3 -x+y,-x,1/3+z
4 -x,-y,1/2+z
5 y,-x+y,1/6+z
6 x-y,x,5/6+z
7 y,x,2/3-z
8 x-y,-y,-z
9 -x,-x+y,1/3-z
10 -y,-x,1/6-z
11 -x+y,y,1/2-z
12 x,x-y,5/6-z
_cell_length_a                   11.0172(15)
_cell_length_b                   11.0172(15)
_cell_length_c                   24.606(7)
_cell_angle_alpha                90
_cell_angle_beta                 90
_cell_angle_gamma                120
_cell_volume                     2586.51
loop_
_atom_site_label
_atom_site_type_symbol
_atom_site_fract_x
_atom_site_fract_y
_atom_site_fract_z
Cu1 Cu 0.48397(4) 0.0000 0.0000
O1 O 0.5662(2) 0.1739(2) 0.04228(8)
N1 N 0.6644(3) 0.0000 0.0000
C1 C 1.0502(3) 0.0000 0.0000
N2 N 1.3020(3) 0.0000 0.0000
C2 C 0.5492(3) 0.3360(3) 0.10008(12)
H1 H 0.4614 0.3381 0.0941
H2 H 0.5740 0.3560 0.1390
C3 C 1.1818(3) -0.1169(3) 0.00996(11)
H3 H 1.1835 -0.2009 0.0166
C4 C 1.0548(3) -0.1209(3) 0.01099(12)
H4 H 0.9711 -0.2057 0.0192
O2 O 0.4549(2) 0.0944(2) 0.12098(9)
C5 C 0.5223(3) 0.1896(3) 0.08747(12)
O3 O 0.4117(3) -0.1528(2) 0.08160(9)
H5 H 0.4124 -0.0907 0.1023
H6 H 0.3354 -0.2292 0.0864
C6 C 0.9170(4) 0.0000 0.0000
C7 C 0.7853(3) 0.1183(3) 0.00842(13)
H9 H 0.7838 0.2029 0.0141
C8 C 0.9119(3) 0.1222(3) 0.00923(14)
H10 H 0.9958 0.2079 0.0161
Cu1_2 Cu 1.48397(4) 0.0000 0.0000
Cu1D Cu 1.0000 0.51603(4) 0.1667
O1I O 0.8261(2) 0.4338(2) 0.12439(8)
O1G O 0.3923(3) -0.1739(2) -0.04228(8)
N2_2 N 0.3020(3) 0.0000 0.0000
C2I C 0.6640(3) 0.4508(3) 0.06659(12)
H1I H 0.6619 0.5386 0.0726
H2I H 0.6440 0.4260 0.0277
C3G C 1.2987(4) 0.1169(3) -0.00996(11)
H3G H 1.3844 0.2009 -0.0166
C4G C 1.1757(4) 0.1209(3) -0.01099(12)
H4G H 1.1768 0.2057 -0.0192
O2I O 0.9056(2) 0.5451(2) 0.04569(9)
C5I C 0.8104(3) 0.4777(3) 0.07920(12)
O3G O 0.5645(4) 0.1528(2) -0.08160(9)
H5G H 0.5031 0.0907 -0.1023
H6G H 0.5646 0.2292 -0.0864
C7G C 0.6670(4) -0.1183(3) -0.00842(13)
H9G H 0.5809 -0.2029 -0.0141
C8G C 0.7897(4) -0.1222(3) -0.00923(14)
H10G H 0.7879 -0.2079 -0.0161
O4 O 0.5455(3) -0.3055(4) 0.10335(10)
H7 H 0.5591 -0.3069 0.1373
H8 H 0.4586 -0.3353 0.0985
loop_
_geom_bond_atom_site_label_1
_geom_bond_atom_site_label_2
_geom_bond_site_symmetry_1
_geom_bond_site_symmetry_2
Cu1 O1 1_555 1_555
O1 C5 1_555 1_555
N1 Cu1 1_555 1_555
C1 C4 1_555 1_555
N2 C3 1_555 1_555
C2 H1 1_555 1_555
H2 C2 1_555 1_555
C3 H3 1_555 1_555
C4 C3 1_555 1_555
H4 C4 1_555 1_555
O2 C5 1_555 1_555
C5 C2 1_555 1_555
O3 Cu1 1_555 1_555
H5 O3 1_555 1_555
H6 O3 1_555 1_555
C6 C1 1_555 1_555
O4 H7 1_555 1_555
H8 O4 1_555 1_555
C7 N1 1_555 1_555
H9 C7 1_555 1_555
C8 C6 1_555 1_555
H10 C8 1_555 1_555
Cu1_2 N2 1_555 1_555
Cu1D O1I 1_555 1_555
O1I C5I 1_555 1_555
O1G Cu1 1_555 1_555
N2_2 Cu1 1_555 1_555
C2I C2 1_555 1_555
H1I C2I 1_555 1_555
H2I C2I 1_555 1_555
C3G N2 1_555 1_555
H3G C3G 1_555 1_555
C4G C1 1_555 1_555
H4G C4G 1_555 1_555
O2I C5I 1_555 1_555
C5I C2I 1_555 1_555
O3G Cu1 1_555 1_555
H5G O3G 1_555 1_555
H6G O3G 1_555 1_555
C7G N1 1_555 1_555
H9G C7G 1_555 1_555
C8G C6 1_555 1_555
H10G C8G 1_555 1_555
C7 C8 1_555 1_555
C3G C4G 1_555 1_555
C7G C8G 1_555 1_555

#END
