
#######################################################################
#
#                 Cambridge Crystallographic Data Centre
#                                CCDC 
#
#######################################################################
#
# If this CIF has been generated from an entry in the Cambridge 
# Structural Database, then it will include bibliographic, chemical, 
# crystal, experimental, refinement or atomic coordinate data resulting 
# from the CCDC's data processing and validation procedures.
#
#######################################################################

data_LIWDEB02
_symmetry_cell_setting           hexagonal
_symmetry_space_group_name_H-M   'P 65 2 2'
_symmetry_Int_Tables_number      179
_space_group_name_Hall           "P 65 2' (0,0,1)"
loop_
_symmetry_equiv_pos_site_id
_symmetry_equiv_pos_as_xyz
1 x,y,z
2 -y,x-y,2/3+z
3 -x+y,-x,1/3+z
4 -x,-y,1/2+z
5 y,-x+y,1/6+z
6 x-y,x,5/6+z
7 y,x,2/3-z
8 x-y,-y,-z
9 -x,-x+y,1/3-z
10 -y,-x,1/6-z
11 -x+y,y,1/2-z
12 x,x-y,5/6-z
_cell_length_a                   11.039(2)
_cell_length_b                   11.039(2)
_cell_length_c                   24.657(9)
_cell_angle_alpha                90
_cell_angle_beta                 90
_cell_angle_gamma                120
_cell_volume                     2602.14
loop_
_atom_site_label
_atom_site_type_symbol
_atom_site_fract_x
_atom_site_fract_y
_atom_site_fract_z
Cu1 Cu 0.51599(4) 0.0000 0.0000
O1 O 0.4337(2) -0.1740(2) 0.04217(10)
N1 N 0.6973(3) 0.0000 0.0000
C1 C 0.9504(4) 0.0000 0.0000
C2 C 0.4498(3) -0.3361(4) 0.09987(14)
H1 H 0.4251 -0.3563 0.1387
H2 H 0.5373 -0.3385 0.0939
C3 C 0.8188(3) 0.1176(3) 0.01015(14)
H3 H 0.8174 0.2015 0.0171
C4 C 0.9459(3) 0.1211(3) 0.01095(14)
H4 H 1.0296 0.2059 0.0189
O2 O 0.5449(3) -0.0949(3) 0.12084(10)
C5 C 0.4778(3) -0.1900(3) 0.08782(14)
N2 N 1.3363(3) 0.0000 0.0000
C6 C 1.0834(4) 0.0000 0.0000
C7 C 1.2151(3) -0.1180(3) 0.00810(15)
H5 H 1.2161 -0.2027 0.0136
C8 C 1.0883(4) -0.1212(4) 0.00872(16)
H6 H 1.0044 -0.2069 0.0151
O3 O 0.5903(3) 0.1536(3) 0.08177(11)
H7 H 0.5809 0.0829 0.0991
H8 H 0.5330 0.1761 0.0948
Cu1_2 Cu 1.51599(4) 0.0000 0.0000
Cu1D Cu 0.0000 -0.51599(4) 0.1667
O1I O 0.1740(2) -0.4337(2) 0.12450(10)
O1G O 0.6077(3) 0.1740(2) -0.04217(10)
C2I C 0.3361(4) -0.4498(3) 0.06680(14)
H1I H 0.3563 -0.4251 0.0280
H2I H 0.3385 -0.5373 0.0728
C3G C 0.7012(4) -0.1176(3) -0.01015(14)
H3G H 0.6159 -0.2015 -0.0171
C4G C 0.8248(4) -0.1211(3) -0.01095(14)
H4G H 0.8237 -0.2059 -0.0189
O2I O 0.0949(3) -0.5449(3) 0.04583(10)
C5I C 0.1900(3) -0.4778(3) 0.07885(14)
N2_2 N 0.3363(3) 0.0000 0.0000
C7G C 1.3331(4) 0.1180(3) -0.00810(15)
H5G H 1.4188 0.2027 -0.0136
C8G C 1.2095(6) 0.1212(4) -0.00872(16)
H6G H 1.2113 0.2069 -0.0151
O3G O 0.4367(4) -0.1536(3) -0.08177(11)
H7G H 0.4980 -0.0829 -0.0991
H8G H 0.3569 -0.1761 -0.0948
O4 O 0.5423(4) -0.1493(3) 0.22906(12)
H9 H 0.5257 -0.1491 0.2627
H10 H 0.6058 -0.1708 0.2252
loop_
_geom_bond_atom_site_label_1
_geom_bond_atom_site_label_2
_geom_bond_site_symmetry_1
_geom_bond_site_symmetry_2
Cu1 O1 1_555 1_555
O1 C5 1_555 1_555
N1 Cu1 1_555 1_555
C1 C4 1_555 1_555
C2 H1 1_555 1_555
H2 C2 1_555 1_555
C3 N1 1_555 1_555
H3 C3 1_555 1_555
C4 C3 1_555 1_555
H4 C4 1_555 1_555
O2 C5 1_555 1_555
C5 C2 1_555 1_555
N2 C7 1_555 1_555
C6 C1 1_555 1_555
C7 H5 1_555 1_555
C8 C6 1_555 1_555
H6 C8 1_555 1_555
O3 Cu1 1_555 1_555
H7 O3 1_555 1_555
H8 O3 1_555 1_555
O4 H9 1_555 1_555
H10 O4 1_555 1_555
Cu1_2 N2 1_555 1_555
Cu1D O1I 1_555 1_555
O1I C5I 1_555 1_555
O1G Cu1 1_555 1_555
C2I C2 1_555 1_555
H1I C2I 1_555 1_555
H2I C2I 1_555 1_555
C3G N1 1_555 1_555
H3G C3G 1_555 1_555
C4G C1 1_555 1_555
H4G C4G 1_555 1_555
O2I C5I 1_555 1_555
C5I C2I 1_555 1_555
N2_2 Cu1 1_555 1_555
C7G N2 1_555 1_555
H5G C7G 1_555 1_555
C8G C6 1_555 1_555
H6G C8G 1_555 1_555
O3G Cu1 1_555 1_555
H7G O3G 1_555 1_555
H8G O3G 1_555 1_555
C7 C8 1_555 1_555
C3G C4G 1_555 1_555
C7G C8G 1_555 1_555

#END
