
#######################################################################
#
#                 Cambridge Crystallographic Data Centre
#                                CCDC 
#
#######################################################################
#
# If this CIF has been generated from an entry in the Cambridge 
# Structural Database, then it will include bibliographic, chemical, 
# crystal, experimental, refinement or atomic coordinate data resulting 
# from the CCDC's data processing and validation procedures.
#
#######################################################################

data_LIWDEB07
_symmetry_cell_setting           hexagonal
_symmetry_space_group_name_H-M   'P 65 2 2'
_symmetry_Int_Tables_number      179
_space_group_name_Hall           "P 65 2' (0,0,1)"
loop_
_symmetry_equiv_pos_site_id
_symmetry_equiv_pos_as_xyz
1 x,y,z
2 -y,x-y,2/3+z
3 -x+y,-x,1/3+z
4 -x,-y,1/2+z
5 y,-x+y,1/6+z
6 x-y,x,5/6+z
7 y,x,2/3-z
8 x-y,-y,-z
9 -x,-x+y,1/3-z
10 -y,-x,1/6-z
11 -x+y,y,1/2-z
12 x,x-y,5/6-z
_cell_length_a                   11.0807(17)
_cell_length_b                   11.0807(17)
_cell_length_c                   25.089(6)
_cell_angle_alpha                90
_cell_angle_beta                 90
_cell_angle_gamma                120
_cell_volume                     2667.77
loop_
_atom_site_label
_atom_site_type_symbol
_atom_site_fract_x
_atom_site_fract_y
_atom_site_fract_z
Cu1 Cu 0.48540(4) 1.0000 0.0000
O1 O 0.3950(2) 0.8278(2) -0.04222(7)
N1 N 0.6662(3) 1.0000 0.0000
N2 N 1.3030(3) 1.0000 0.0000
C1 C 1.2990(3) 1.1161(3) -0.01005(11)
H1 H 1.3823 1.1979 -0.0167
C2 C 0.3360(3) 0.8116(3) -0.08724(11)
O2 O 0.3650(3) 0.9073(3) -0.11983(9)
O3 O 0.5674(3) 1.1562(3) -0.08164(9)
H2 H 0.5068 1.0853 -0.0987
H3 H 0.6471 1.1806 -0.0948
C3 C 0.2184(3) 0.6669(3) -0.09981(11)
H4 H 0.2236 0.6480 -0.1372
H5 H 0.1307 0.6646 -0.0942
C4 C 0.9180(3) 1.0000 0.0000
C5 C 0.7867(3) 1.1172(4) 0.00779(13)
H8 H 0.7857 1.1998 0.0130
C6 C 1.0514(3) 1.0000 0.0000
C7 C 1.1764(3) 1.1200(3) -0.01108(12)
H9 H 1.1777 1.2025 -0.0191
C8 C 0.9134(3) 1.1209(4) 0.00840(14)
H10 H 0.9953 1.2046 0.0144
Cu1_2 Cu 1.48540(4) 1.0000 0.0000
Cu1E Cu 0.48540(4) 0.48540(4) -0.1667
O1K O 0.3950(2) 0.5672(3) -0.12445(7)
O1G O 0.5672(3) 1.1722(2) 0.04222(7)
N2_2 N 0.3030(3) 1.0000 0.0000
C1G C 1.1829(4) 0.8839(3) 0.01005(11)
H1G H 1.1844 0.8021 0.0167
C2K C 0.3360(3) 0.5244(4) -0.07943(11)
O2K O 0.3650(3) 0.4577(4) -0.04684(9)
O3G O 0.4112(4) 0.8438(3) 0.08164(9)
H2G H 0.4215 0.9147 0.0987
H3G H 0.4665 0.8194 0.0948
C3K C 0.2184(3) 0.5515(4) -0.06686(11)
H4K H 0.2236 0.5756 -0.0295
H5K H 0.1307 0.4661 -0.0725
C5G C 0.6695(5) 0.8828(4) -0.00779(13)
H8G H 0.5859 0.8002 -0.0130
C7G C 1.0564(4) 0.8800(3) 0.01108(12)
H9G H 0.9752 0.7975 0.0191
C8G C 0.7925(5) 0.8791(4) -0.00840(14)
H10G H 0.7907 0.7954 -0.0144
O4 O 0.3106(5) 0.8571(4) -0.22845(11)
H6 H 0.3365 0.8770 -0.1962
H7 H 0.2461 0.7724 -0.2298
loop_
_geom_bond_atom_site_label_1
_geom_bond_atom_site_label_2
_geom_bond_site_symmetry_1
_geom_bond_site_symmetry_2
Cu1 O1 1_555 1_555
O1 C2 1_555 1_555
N1 Cu1 1_555 1_555
N2 C1 1_555 1_555
C1 H1 1_555 1_555
C2 O2 1_555 1_555
O3 Cu1 1_555 1_555
H2 O3 1_555 1_555
H3 O3 1_555 1_555
C3 C2 1_555 1_555
H4 C3 1_555 1_555
H5 C3 1_555 1_555
O4 H6 1_555 1_555
H7 O4 1_555 1_555
C4 C6 1_555 1_555
C5 N1 1_555 1_555
H8 C5 1_555 1_555
C6 C7 1_555 1_555
C7 C1 1_555 1_555
H9 C7 1_555 1_555
C8 C4 1_555 1_555
H10 C8 1_555 1_555
Cu1_2 N2 1_555 1_555
Cu1E O1K 1_555 1_555
O1K C2K 1_555 1_555
O1G Cu1 1_555 1_555
N2_2 Cu1 1_555 1_555
C1G N2 1_555 1_555
H1G C1G 1_555 1_555
C2K O2K 1_555 1_555
O3G Cu1 1_555 1_555
H2G O3G 1_555 1_555
H3G O3G 1_555 1_555
C3K C3 1_555 1_555
H4K C3K 1_555 1_555
H5K C3K 1_555 1_555
C5G N1 1_555 1_555
H8G C5G 1_555 1_555
C7G C6 1_555 1_555
H9G C7G 1_555 1_555
C8G C4 1_555 1_555
H10G C8G 1_555 1_555
C5 C8 1_555 1_555
C1G C7G 1_555 1_555
C2K C3K 1_555 1_555
C5G C8G 1_555 1_555

#END
