
#######################################################################
#
#                 Cambridge Crystallographic Data Centre
#                                CCDC 
#
#######################################################################
#
# If this CIF has been generated from an entry in the Cambridge 
# Structural Database, then it will include bibliographic, chemical, 
# crystal, experimental, refinement or atomic coordinate data resulting 
# from the CCDC's data processing and validation procedures.
#
#######################################################################

data_LIWDEB03
_symmetry_cell_setting           hexagonal
_symmetry_space_group_name_H-M   'P 65 2 2'
_symmetry_Int_Tables_number      179
_space_group_name_Hall           "P 65 2' (0,0,1)"
loop_
_symmetry_equiv_pos_site_id
_symmetry_equiv_pos_as_xyz
1 x,y,z
2 -y,x-y,2/3+z
3 -x+y,-x,1/3+z
4 -x,-y,1/2+z
5 y,-x+y,1/6+z
6 x-y,x,5/6+z
7 y,x,2/3-z
8 x-y,-y,-z
9 -x,-x+y,1/3-z
10 -y,-x,1/6-z
11 -x+y,y,1/2-z
12 x,x-y,5/6-z
_cell_length_a                   11.0435(16)
_cell_length_b                   11.0435(16)
_cell_length_c                   24.604(7)
_cell_angle_alpha                90
_cell_angle_beta                 90
_cell_angle_gamma                120
_cell_volume                     2598.66
loop_
_atom_site_label
_atom_site_type_symbol
_atom_site_fract_x
_atom_site_fract_y
_atom_site_fract_z
Cu1 Cu 0.48401(3) 0.0000 0.0000
O1 O 0.56627(17) 0.17401(18) 0.04223(8)
N1 N 0.6641(2) 0.0000 0.0000
N2 N 1.3020(2) 0.0000 0.0000
C1 C 1.0498(3) 0.0000 0.0000
C2 C 0.5491(3) 0.3361(3) 0.10028(13)
H1 H 0.4614 0.3381 0.0945
H2 H 0.5744 0.3561 0.1392
C3 C 1.1817(2) -0.1171(2) 0.01012(11)
H3 H 1.1833 -0.2009 0.0170
C4 C 1.0549(2) -0.1208(2) 0.01097(12)
H4 H 0.9715 -0.2056 0.0190
O2 O 0.4543(2) 0.09422(19) 0.12072(9)
C5 C 0.5223(3) 0.1898(3) 0.08743(13)
C6 C 0.9163(3) 0.0000 0.0000
C7 C 0.9121(3) 0.1216(3) 0.00905(13)
H5 H 0.9961 0.2072 0.0156
O3 O 0.5648(2) 0.1533(2) -0.08180(9)
H6 H 0.5019 0.0776 -0.0960
H7 H 0.5389 0.2139 -0.0841
C8 C 0.7852(2) 0.1180(3) 0.00851(12)
H10 H 0.7840 0.2024 0.0144
Cu1_2 Cu 1.48401(3) 0.0000 0.0000
Cu1D Cu 1.0000 0.51599(3) 0.1667
O1I O 0.82599(18) 0.43373(17) 0.12444(8)
O1G O 0.39226(25) -0.17401(18) -0.04223(8)
N2_2 N 0.3020(2) 0.0000 0.0000
C2I C 0.6639(3) 0.4509(3) 0.06639(13)
H1I H 0.6619 0.5386 0.0722
H2I H 0.6439 0.4256 0.0275
C3G C 1.2988(3) 0.1171(2) -0.01012(11)
H3G H 1.3842 0.2009 -0.0170
C4G C 1.1757(3) 0.1208(2) -0.01097(12)
H4G H 1.1771 0.2056 -0.0190
O2I O 0.90578(19) 0.5457(2) 0.04595(9)
C5I C 0.8102(3) 0.4777(3) 0.07924(13)
C7G C 0.7905(4) -0.1216(3) -0.00905(13)
H5G H 0.7889 -0.2072 -0.0156
O3G O 0.4115(3) -0.1533(2) 0.08180(9)
H6G H 0.4243 -0.0776 0.0960
H7G H 0.3250 -0.2139 0.0841
C8G C 0.6672(4) -0.1180(3) -0.00851(12)
H10G H 0.5816 -0.2024 -0.0144
O4 O 0.8508(2) 0.3073(3) -0.10318(11)
H8 H 0.8836 0.3405 -0.1344
H9 H 0.7802 0.2263 -0.1075
loop_
_geom_bond_atom_site_label_1
_geom_bond_atom_site_label_2
_geom_bond_site_symmetry_1
_geom_bond_site_symmetry_2
Cu1 O1 1_555 1_555
O1 C5 1_555 1_555
N1 Cu1 1_555 1_555
N2 C3 1_555 1_555
C1 C4 1_555 1_555
C2 H1 1_555 1_555
H2 C2 1_555 1_555
C3 H3 1_555 1_555
C4 C3 1_555 1_555
H4 C4 1_555 1_555
O2 C5 1_555 1_555
C5 C2 1_555 1_555
C6 C1 1_555 1_555
C7 C6 1_555 1_555
H5 C7 1_555 1_555
O3 Cu1 1_555 1_555
H6 O3 1_555 1_555
H7 O3 1_555 1_555
O4 H8 1_555 1_555
H9 O4 1_555 1_555
C8 N1 1_555 1_555
H10 C8 1_555 1_555
Cu1_2 N2 1_555 1_555
Cu1D O1I 1_555 1_555
O1I C5I 1_555 1_555
O1G Cu1 1_555 1_555
N2_2 Cu1 1_555 1_555
C2I C2 1_555 1_555
H1I C2I 1_555 1_555
H2I C2I 1_555 1_555
C3G N2 1_555 1_555
H3G C3G 1_555 1_555
C4G C1 1_555 1_555
H4G C4G 1_555 1_555
O2I C5I 1_555 1_555
C5I C2I 1_555 1_555
C7G C6 1_555 1_555
H5G C7G 1_555 1_555
O3G Cu1 1_555 1_555
H6G O3G 1_555 1_555
H7G O3G 1_555 1_555
C8G N1 1_555 1_555
H10G C8G 1_555 1_555
C7 C8 1_555 1_555
C3G C4G 1_555 1_555
C7G C8G 1_555 1_555

#END
