
#######################################################################
#
#                 Cambridge Crystallographic Data Centre
#                                CCDC 
#
#######################################################################
#
# If this CIF has been generated from an entry in the Cambridge 
# Structural Database, then it will include bibliographic, chemical, 
# crystal, experimental, refinement or atomic coordinate data resulting 
# from the CCDC's data processing and validation procedures.
#
#######################################################################

data_LIWDEB13
_symmetry_cell_setting           hexagonal
_symmetry_space_group_name_H-M   'P 65 2 2'
_symmetry_Int_Tables_number      179
_space_group_name_Hall           "P 65 2' (0,0,1)"
loop_
_symmetry_equiv_pos_site_id
_symmetry_equiv_pos_as_xyz
1 x,y,z
2 -y,x-y,2/3+z
3 -x+y,-x,1/3+z
4 -x,-y,1/2+z
5 y,-x+y,1/6+z
6 x-y,x,5/6+z
7 y,x,2/3-z
8 x-y,-y,-z
9 -x,-x+y,1/3-z
10 -y,-x,1/6-z
11 -x+y,y,1/2-z
12 x,x-y,5/6-z
_cell_length_a                   11.0919(4)
_cell_length_b                   11.0919(4)
_cell_length_c                   25.021(2)
_cell_angle_alpha                90
_cell_angle_beta                 90
_cell_angle_gamma                120
_cell_volume                     2665.92
loop_
_atom_site_label
_atom_site_type_symbol
_atom_site_fract_x
_atom_site_fract_y
_atom_site_fract_z
Cu1 Cu 0.51484(10) 1.0000 0.0000
N1 N 0.6957(8) 1.0000 0.0000
C1 C 0.8154(9) 1.1143(9) 0.0097(4)
H1 H 0.8140 1.1964 0.0155
C2 C 0.9444(8) 1.1198(9) 0.0117(4)
H2 H 1.0254 1.2016 0.0207
C3 C 0.9466(10) 1.0000 0.0000
C4 C 1.0823(9) 1.0000 0.0000
C5 C 1.0871(9) 0.8790(9) 0.0088(4)
H3 H 1.0056 0.7954 0.0153
C6 C 1.2147(8) 0.8839(9) 0.0078(4)
H4 H 1.2162 0.8016 0.0130
N2 N 1.3338(7) 1.0000 0.0000
O1 O 0.6055(6) 1.1728(6) -0.0424(2)
O2 O 0.6338(8) 1.0944(7) -0.1199(3)
C7 C 0.6620(8) 1.1874(9) -0.0870(4)
C8 C 0.7816(9) 1.3330(10) -0.0997(4)
H5 H 0.8689 1.3348 -0.0938
H6 H 0.7771 1.3519 -0.1373
O3 O 0.5855(7) 1.1553(7) 0.0822(3)
H7 H 0.5582 1.0775 0.0975
H8 H 0.6694 1.2117 0.0909
Cu1_2 Cu 1.51484(10) 1.0000 0.0000
Cu1E Cu 0.51484(10) 1.51484(10) -0.1667
C1G C 0.7011(13) 0.8857(9) -0.0097(4)
H1G H 0.6176 0.8036 -0.0155
C2G C 0.8246(12) 0.8802(9) -0.0117(4)
H2G H 0.8238 0.7984 -0.0207
C5G C 1.2081(13) 1.1210(9) -0.0088(4)
H3G H 1.2102 1.2046 -0.0153
C6G C 1.3308(12) 1.1161(9) -0.0078(4)
H4G H 1.4146 1.1984 -0.0130
N2_2 N 0.3338(7) 1.0000 0.0000
O1K O 0.6055(6) 1.4327(8) -0.1243(2)
O1G O 0.4327(8) 0.8272(6) 0.0424(2)
O2K O 0.6338(8) 1.5394(11) -0.0468(3)
C7K C 0.6620(8) 1.4746(12) -0.0797(4)
C8K C 0.7816(9) 1.4486(13) -0.0670(4)
H5K H 0.8689 1.5341 -0.0729
H6K H 0.7771 1.4252 -0.0294
O3G O 0.4302(10) 0.8447(7) -0.0822(3)
H7G H 0.4807 0.9225 -0.0975
H8G H 0.4577 0.7883 -0.0909
O4 O 0.4521(10) 1.3099(11) 0.1050(3)
H9 H 0.4924 1.2631 0.0991
H10 H 0.4555 1.3259 0.1383
loop_
_geom_bond_atom_site_label_1
_geom_bond_atom_site_label_2
_geom_bond_site_symmetry_1
_geom_bond_site_symmetry_2
Cu1 N1 1_555 1_555
N1 C1 1_555 1_555
C1 H1 1_555 1_555
C2 C1 1_555 1_555
H2 C2 1_555 1_555
C3 C2 1_555 1_555
C4 C3 1_555 1_555
C5 C4 1_555 1_555
H3 C5 1_555 1_555
C6 C5 1_555 1_555
H4 C6 1_555 1_555
N2 C6 1_555 1_555
O1 Cu1 1_555 1_555
O2 C7 1_555 1_555
C7 O1 1_555 1_555
C8 C7 1_555 1_555
H5 C8 1_555 1_555
H6 C8 1_555 1_555
O3 Cu1 1_555 1_555
H7 O3 1_555 1_555
H8 O3 1_555 1_555
O4 H9 1_555 1_555
H10 O4 1_555 1_555
Cu1_2 N2 1_555 1_555
Cu1E O1K 1_555 1_555
C1G N1 1_555 1_555
H1G C1G 1_555 1_555
C2G C3 1_555 1_555
H2G C2G 1_555 1_555
C5G C4 1_555 1_555
H3G C5G 1_555 1_555
C6G N2 1_555 1_555
H4G C6G 1_555 1_555
N2_2 Cu1 1_555 1_555
O1K C7K 1_555 1_555
O1G Cu1 1_555 1_555
O2K C7K 1_555 1_555
C7K C8K 1_555 1_555
C8K C8 1_555 1_555
H5K C8K 1_555 1_555
H6K C8K 1_555 1_555
O3G Cu1 1_555 1_555
H7G O3G 1_555 1_555
H8G O3G 1_555 1_555
C1G C2G 1_555 1_555
C5G C6G 1_555 1_555

#END
