
#######################################################################
#
#                 Cambridge Crystallographic Data Centre
#                                CCDC 
#
#######################################################################
#
# If this CIF has been generated from an entry in the Cambridge 
# Structural Database, then it will include bibliographic, chemical, 
# crystal, experimental, refinement or atomic coordinate data resulting 
# from the CCDC's data processing and validation procedures.
#
#######################################################################

data_LIWDEB04
_symmetry_cell_setting           hexagonal
_symmetry_space_group_name_H-M   'P 65 2 2'
_symmetry_Int_Tables_number      179
_space_group_name_Hall           "P 65 2' (0,0,1)"
loop_
_symmetry_equiv_pos_site_id
_symmetry_equiv_pos_as_xyz
1 x,y,z
2 -y,x-y,2/3+z
3 -x+y,-x,1/3+z
4 -x,-y,1/2+z
5 y,-x+y,1/6+z
6 x-y,x,5/6+z
7 y,x,2/3-z
8 x-y,-y,-z
9 -x,-x+y,1/3-z
10 -y,-x,1/6-z
11 -x+y,y,1/2-z
12 x,x-y,5/6-z
_cell_length_a                   10.9274(14)
_cell_length_b                   10.9274(14)
_cell_length_c                   24.503(6)
_cell_angle_alpha                90
_cell_angle_beta                 90
_cell_angle_gamma                120
_cell_volume                     2533.87
loop_
_atom_site_label
_atom_site_type_symbol
_atom_site_fract_x
_atom_site_fract_y
_atom_site_fract_z
Cu1 Cu 0.0000 0.51508(5) 0.6667
N1 N 0.0000 0.3351(4) 0.6667
N2 N 0.0000 -0.3033(4) 0.6667
C1 C -0.1170(4) -0.2989(4) 0.67661(17)
H1 H -0.2012 -0.3841 0.6833
C2 C 0.0000 0.0824(5) 0.6667
O1 O -0.0946(3) 0.5424(4) 0.54620(12)
O2 O -0.1731(3) 0.4330(3) 0.62432(11)
C3 C 0.1176(4) 0.3317(4) 0.67453(19)
H2 H 0.2022 0.4174 0.6800
C4 C -0.1203(4) -0.1759(4) 0.67756(17)
H3 H -0.2050 -0.1773 0.6857
C5 C 0.1217(4) 0.2092(4) 0.6751(2)
H4 H 0.2076 0.2113 0.6813
O3 O 0.1543(3) 0.5885(4) 0.58499(13)
H5 H 0.2160 0.5830 0.5657
H6 H 0.0875 0.5783 0.5643
C6 C -0.3348(5) 0.4490(5) 0.56708(18)
H9 H -0.3371 0.5364 0.5733
H10 H -0.3545 0.4251 0.5283
C7 C -0.1899(5) 0.4764(4) 0.57922(17)
C8 C 0.0000 -0.0501(4) 0.6667
Cu1_2 Cu 0.0000 -0.48492(5) 0.6667
Cu1E Cu -0.51508(5) 0.0000 0.5000
N2_2 N 0.0000 0.6967(4) 0.6667
C1H C 0.1170(4) -0.1819(6) 0.65672(17)
H1H H 0.2012 -0.1829 0.6500
O1I O -0.5424(4) 0.0946(3) 0.62047(12)
O2I O -0.4330(3) 0.1731(3) 0.54235(11)
O2H O 0.1731(3) 0.6061(4) 0.70901(11)
C3H C -0.1176(4) 0.2141(6) 0.65880(19)
H2H H -0.2022 0.2152 0.6533
C4H C 0.1203(4) -0.0556(6) 0.65577(17)
H3H H 0.2050 0.0277 0.6476
C5H C -0.1217(4) 0.0875(6) 0.6582(2)
H4H H -0.2076 0.0037 0.6520
O3H O -0.1543(3) 0.4342(5) 0.74834(13)
H5H H -0.2160 0.3670 0.7676
H6H H -0.0875 0.4908 0.7690
C6I C -0.4490(5) 0.3348(5) 0.59959(18)
H9I H -0.5364 0.3371 0.5934
H10I H -0.4251 0.3545 0.6384
C7I C -0.4764(4) 0.1899(5) 0.58745(17)
O4 O -0.1468(4) 0.5467(5) 0.43822(15)
H7 H -0.1482 0.5015 0.4667
H8 H -0.1566 0.4964 0.4103
loop_
_geom_bond_atom_site_label_1
_geom_bond_atom_site_label_2
_geom_bond_site_symmetry_1
_geom_bond_site_symmetry_2
Cu1 N1 1_555 1_555
N1 C3 1_555 1_555
N2 C1 1_555 1_555
C1 H1 1_555 1_555
C2 C5 1_555 1_555
O1 C7 1_555 1_555
O2 Cu1 1_555 1_555
C3 H2 1_555 1_555
C4 C1 1_555 1_555
H3 C4 1_555 1_555
C5 C3 1_555 1_555
H4 C5 1_555 1_555
O3 Cu1 1_555 1_555
H5 O3 1_555 1_555
H6 O3 1_555 1_555
O4 H7 1_555 1_555
H8 O4 1_555 1_555
C6 H9 1_555 1_555
H10 C6 1_555 1_555
C7 O2 1_555 1_555
C8 C2 1_555 1_555
Cu1_2 N2 1_555 1_555
Cu1E O2I 1_555 1_555
N2_2 Cu1 1_555 1_555
C1H N2 1_555 1_555
H1H C1H 1_555 1_555
O1I C7I 1_555 1_555
O2I C7I 1_555 1_555
O2H Cu1 1_555 1_555
C3H N1 1_555 1_555
H2H C3H 1_555 1_555
C4H C8 1_555 1_555
H3H C4H 1_555 1_555
C5H C2 1_555 1_555
H4H C5H 1_555 1_555
O3H Cu1 1_555 1_555
H5H O3H 1_555 1_555
H6H O3H 1_555 1_555
C6I C6 1_555 1_555
H9I C6I 1_555 1_555
H10I C6I 1_555 1_555
C7I C6I 1_555 1_555
C4 C8 1_555 1_555
C6 C7 1_555 1_555
C1H C4H 1_555 1_555
C3H C5H 1_555 1_555

#END
