
#######################################################################
#
#                 Cambridge Crystallographic Data Centre
#                                CCDC 
#
#######################################################################
#
# If this CIF has been generated from an entry in the Cambridge 
# Structural Database, then it will include bibliographic, chemical, 
# crystal, experimental, refinement or atomic coordinate data resulting 
# from the CCDC's data processing and validation procedures.
#
#######################################################################

data_LIWDEB09
_symmetry_cell_setting           hexagonal
_symmetry_space_group_name_H-M   'P 65 2 2'
_symmetry_Int_Tables_number      179
_space_group_name_Hall           "P 65 2' (0,0,1)"
loop_
_symmetry_equiv_pos_site_id
_symmetry_equiv_pos_as_xyz
1 x,y,z
2 -y,x-y,2/3+z
3 -x+y,-x,1/3+z
4 -x,-y,1/2+z
5 y,-x+y,1/6+z
6 x-y,x,5/6+z
7 y,x,2/3-z
8 x-y,-y,-z
9 -x,-x+y,1/3-z
10 -y,-x,1/6-z
11 -x+y,y,1/2-z
12 x,x-y,5/6-z
_cell_length_a                   10.9274(14)
_cell_length_b                   10.9274(14)
_cell_length_c                   24.503(6)
_cell_angle_alpha                90
_cell_angle_beta                 90
_cell_angle_gamma                120
_cell_volume                     2533.87
loop_
_atom_site_label
_atom_site_type_symbol
_atom_site_fract_x
_atom_site_fract_y
_atom_site_fract_z
Cu1 Cu 0.48487(5) 0.0000 0.5000
N1 N 0.6647(4) 0.0000 0.5000
N2 N 1.3030(4) 0.0000 0.5000
C1 C 1.2984(4) 0.1166(4) 0.49007(16)
H1 H 1.3837 0.2008 0.4834
C2 C 0.9175(5) 0.0000 0.5000
O1 O 0.4573(4) 0.0943(3) 0.62058(12)
O2 O 0.5671(3) 0.1733(3) 0.54247(11)
C3 C 0.6679(4) -0.1178(4) 0.49207(19)
H2 H 0.5822 -0.2024 0.4866
C4 C 1.1761(4) 0.1200(4) 0.48917(17)
H3 H 1.1776 0.2049 0.4811
C5 C 0.7909(4) -0.1219(4) 0.4915(2)
H4 H 0.7889 -0.2078 0.4854
O3 O 0.5665(3) 0.1536(4) 0.41835(12)
H5 H 0.5077 0.0946 0.3957
H6 H 0.5896 0.2366 0.4079
C6 C 0.5505(5) 0.3346(4) 0.59974(17)
H9 H 0.5745 0.3540 0.6385
H10 H 0.4629 0.3367 0.5936
C7 C 0.5238(4) 0.1898(5) 0.58720(17)
C8 C 1.0502(4) 0.0000 0.5000
Cu1_2 Cu 1.48487(5) 0.0000 0.5000
Cu1D Cu 1.0000 0.51513(5) 0.6667
N2_2 N 0.3030(4) 0.0000 0.5000
C1G C 1.1818(6) -0.1166(4) 0.50993(16)
H1G H 1.1829 -0.2008 0.5166
O1I O 0.9057(3) 0.5427(4) 0.54609(12)
O2I O 0.8267(3) 0.4329(3) 0.62420(11)
O2G O 0.3938(4) -0.1733(3) 0.45753(11)
C3G C 0.7857(6) 0.1178(4) 0.50793(19)
H2G H 0.7846 0.2024 0.5134
C4G C 1.0561(6) -0.1200(4) 0.51083(17)
H3G H 0.9727 -0.2049 0.5189
C5G C 0.9128(6) 0.1219(4) 0.5085(2)
H4G H 0.9967 0.2078 0.5146
O3G O 0.4129(5) -0.1536(4) 0.58165(12)
H5G H 0.4131 -0.0946 0.6043
H6G H 0.3530 -0.2366 0.5921
C6I C 0.6654(4) 0.4495(5) 0.56693(17)
H9I H 0.6460 0.4255 0.5282
H10I H 0.6633 0.5371 0.5731
C7I C 0.8102(5) 0.4762(4) 0.57947(17)
O4 O 0.3090(5) 0.4538(5) 0.56217(15)
H7 H 0.3629 0.5355 0.5490
H8 H 0.2258 0.4412 0.5641
loop_
_geom_bond_atom_site_label_1
_geom_bond_atom_site_label_2
_geom_bond_site_symmetry_1
_geom_bond_site_symmetry_2
Cu1 N1 1_555 1_555
N1 C3 1_555 1_555
N2 C1 1_555 1_555
C1 H1 1_555 1_555
C2 C5 1_555 1_555
O1 C7 1_555 1_555
O2 Cu1 1_555 1_555
C3 H2 1_555 1_555
C4 C1 1_555 1_555
H3 C4 1_555 1_555
C5 C3 1_555 1_555
H4 C5 1_555 1_555
O3 Cu1 1_555 1_555
H5 O3 1_555 1_555
H6 O3 1_555 1_555
O4 H7 1_555 1_555
H8 O4 1_555 1_555
C6 H9 1_555 1_555
H10 C6 1_555 1_555
C7 O2 1_555 1_555
C8 C2 1_555 1_555
Cu1_2 N2 1_555 1_555
Cu1D O2I 1_555 1_555
N2_2 Cu1 1_555 1_555
C1G N2 1_555 1_555
H1G C1G 1_555 1_555
O1I C7I 1_555 1_555
O2I C7I 1_555 1_555
O2G Cu1 1_555 1_555
C3G N1 1_555 1_555
H2G C3G 1_555 1_555
C4G C8 1_555 1_555
H3G C4G 1_555 1_555
C5G C2 1_555 1_555
H4G C5G 1_555 1_555
O3G Cu1 1_555 1_555
H5G O3G 1_555 1_555
H6G O3G 1_555 1_555
C6I C6 1_555 1_555
H9I C6I 1_555 1_555
H10I C6I 1_555 1_555
C7I C6I 1_555 1_555
C4 C8 1_555 1_555
C6 C7 1_555 1_555
C1G C4G 1_555 1_555
C3G C5G 1_555 1_555

#END
