
#######################################################################
#
#                 Cambridge Crystallographic Data Centre
#                                CCDC 
#
#######################################################################
#
# If this CIF has been generated from an entry in the Cambridge 
# Structural Database, then it will include bibliographic, chemical, 
# crystal, experimental, refinement or atomic coordinate data resulting 
# from the CCDC's data processing and validation procedures.
#
#######################################################################

data_LIWDEB01
_symmetry_cell_setting           hexagonal
_symmetry_space_group_name_H-M   'P 65 2 2'
_symmetry_Int_Tables_number      179
_space_group_name_Hall           "P 65 2' (0,0,1)"
loop_
_symmetry_equiv_pos_site_id
_symmetry_equiv_pos_as_xyz
1 x,y,z
2 -y,x-y,2/3+z
3 -x+y,-x,1/3+z
4 -x,-y,1/2+z
5 y,-x+y,1/6+z
6 x-y,x,5/6+z
7 y,x,2/3-z
8 x-y,-y,-z
9 -x,-x+y,1/3-z
10 -y,-x,1/6-z
11 -x+y,y,1/2-z
12 x,x-y,5/6-z
_cell_length_a                   11.0412(15)
_cell_length_b                   11.0412(15)
_cell_length_c                   24.636(7)
_cell_angle_alpha                90
_cell_angle_beta                 90
_cell_angle_gamma                120
_cell_volume                     2600.96
loop_
_atom_site_label
_atom_site_type_symbol
_atom_site_fract_x
_atom_site_fract_y
_atom_site_fract_z
Cu1 Cu 0.51601(3) 0.0000 0.0000
O1 O 0.43394(16) -0.17383(16) 0.04219(6)
N1 N 0.3358(2) 0.0000 0.0000
N2 N -0.3023(2) 0.0000 0.0000
C1 C -0.0501(3) 0.0000 0.0000
C2 C 0.4509(2) -0.3362(2) 0.10009(9)
H1 H 0.5386 -0.3380 0.0941
H2 H 0.4263 -0.3562 0.1390
C3 C -0.1818(2) 0.1170(2) 0.00996(8)
H3 H -0.1835 0.2009 0.0166
C4 C -0.0549(2) 0.1213(2) 0.01102(9)
H4 H 0.0284 0.2061 0.0192
O2 O 0.54559(18) -0.09402(17) 0.12093(6)
O3 O 0.5886(2) 0.15301(18) 0.08158(7)
H5 H 0.5848 0.0892 0.1020
H6 H 0.6669 0.2270 0.0863
C5 C 0.4774(2) -0.1902(2) 0.08752(9)
C6 C 0.0834(3) 0.0000 0.0000
C7 C 0.0880(2) -0.1220(2) 0.00907(10)
H7 H 0.0042 -0.2076 0.0158
C8 C 0.2145(2) -0.1181(2) 0.00830(10)
H8 H 0.2157 -0.2026 0.0139
Cu1_2 Cu -0.48399(3) 0.0000 0.0000
Cu1D Cu 0.0000 -0.51601(3) 0.1667
O1I O 0.17383(16) -0.43394(16) 0.12448(6)
O1G O 0.60777(23) 0.17383(16) -0.04219(6)
N2_2 N 0.6977(2) 0.0000 0.0000
C2I C 0.3362(2) -0.4509(2) 0.06658(9)
H1I H 0.3380 -0.5386 0.0726
H2I H 0.3562 -0.4263 0.0277
C3G C -0.2988(3) -0.1170(2) -0.00996(8)
H3G H -0.3844 -0.2009 -0.0166
C4G C -0.1762(3) -0.1213(2) -0.01102(9)
H4G H -0.1777 -0.2061 -0.0192
O2I O 0.09402(17) -0.54559(18) 0.04574(6)
O3G O 0.43559(27) -0.15301(18) -0.08158(7)
H5G H 0.4956 -0.0892 -0.1020
H6G H 0.4399 -0.2270 -0.0863
C5I C 0.1902(2) -0.4774(2) 0.07915(9)
C7G C 0.2100(3) 0.1220(2) -0.00907(10)
H7G H 0.2118 0.2076 -0.0158
C8G C 0.3326(3) 0.1181(2) -0.00830(10)
H8G H 0.4183 0.2026 -0.0139
O4 O 0.5451(2) -0.1496(2) 0.22994(8)
H9 H 0.5583 -0.1341 0.1961
H10 H 0.4622 -0.1689 0.2373
loop_
_geom_bond_atom_site_label_1
_geom_bond_atom_site_label_2
_geom_bond_site_symmetry_1
_geom_bond_site_symmetry_2
Cu1 O1 1_555 1_555
O1 C5 1_555 1_555
N1 Cu1 1_555 1_555
N2 C3 1_555 1_555
C1 C4 1_555 1_555
C2 H1 1_555 1_555
H2 C2 1_555 1_555
C3 H3 1_555 1_555
C4 C3 1_555 1_555
H4 C4 1_555 1_555
O2 C5 1_555 1_555
O3 Cu1 1_555 1_555
H5 O3 1_555 1_555
H6 O3 1_555 1_555
C5 C2 1_555 1_555
C6 C1 1_555 1_555
C7 C6 1_555 1_555
H7 C7 1_555 1_555
C8 N1 1_555 1_555
H8 C8 1_555 1_555
O4 H9 1_555 1_555
H10 O4 1_555 1_555
Cu1_2 N2 1_555 1_555
Cu1D O1I 1_555 1_555
O1I C5I 1_555 1_555
O1G Cu1 1_555 1_555
N2_2 Cu1 1_555 1_555
C2I C2 1_555 1_555
H1I C2I 1_555 1_555
H2I C2I 1_555 1_555
C3G N2 1_555 1_555
H3G C3G 1_555 1_555
C4G C1 1_555 1_555
H4G C4G 1_555 1_555
O2I C5I 1_555 1_555
O3G Cu1 1_555 1_555
H5G O3G 1_555 1_555
H6G O3G 1_555 1_555
C5I C2I 1_555 1_555
C7G C6 1_555 1_555
H7G C7G 1_555 1_555
C8G N1 1_555 1_555
H8G C8G 1_555 1_555
C7 C8 1_555 1_555
C3G C4G 1_555 1_555
C7G C8G 1_555 1_555

#END
