
#######################################################################
#
#                 Cambridge Crystallographic Data Centre
#                                CCDC 
#
#######################################################################
#
# If this CIF has been generated from an entry in the Cambridge 
# Structural Database, then it will include bibliographic, chemical, 
# crystal, experimental, refinement or atomic coordinate data resulting 
# from the CCDC's data processing and validation procedures.
#
#######################################################################

data_LIWDEB12
_symmetry_cell_setting           hexagonal
_symmetry_space_group_name_H-M   'P 65'
_symmetry_Int_Tables_number      170
_space_group_name_Hall           'P 65'
loop_
_symmetry_equiv_pos_site_id
_symmetry_equiv_pos_as_xyz
1 x,y,z
2 -y,x-y,2/3+z
3 -x+y,-x,1/3+z
4 -x,-y,1/2+z
5 y,-x+y,1/6+z
6 x-y,x,5/6+z
_cell_length_a                   11.0946(10)
_cell_length_b                   11.0946(10)
_cell_length_c                   24.981(3)
_cell_angle_alpha                90
_cell_angle_beta                 90
_cell_angle_gamma                120
_cell_volume                     2662.95
loop_
_atom_site_label
_atom_site_type_symbol
_atom_site_fract_x
_atom_site_fract_y
_atom_site_fract_z
Cu1 Cu 0.48526(9) -0.00004(13) 0.09694(8)
O1 O 0.5668(6) 0.1718(5) 0.1391(3)
O2 O 0.8280(5) 0.4331(6) 0.2214(3)
O3 O 0.9070(8) 0.5421(6) 0.1437(3)
O4 O 0.4591(8) 0.0938(7) 0.2169(3)
N1 N 0.3031(6) -0.0003(7) 0.0968(3)
N2 N -0.3340(5) 0.0007(7) 0.0968(4)
C1 C 0.8115(8) 0.4755(9) 0.1765(5)
C2 C 0.6657(8) 0.4469(9) 0.1645(4)
H1 H 0.6630 0.5319 0.1705
H2 H 0.6467 0.4237 0.1269
C3 C 0.5239(8) 0.1883(7) 0.1832(4)
C4 C 0.5521(9) 0.3332(10) 0.1966(4)
H3 H 0.4671 0.3362 0.1911
H4 H 0.5759 0.3508 0.2342
C5 C -0.2136(9) 0.1162(10) 0.1057(5)
H5 H -0.2142 0.1984 0.1121
C6 C -0.0886(8) 0.1193(9) 0.1058(5)
H6 H -0.0068 0.2029 0.1119
C7 C -0.0829(7) 0.0003(10) 0.0971(5)
C8 C -0.2070(8) -0.1194(9) 0.0889(5)
H7 H -0.2086 -0.2030 0.0831
C9 C -0.3301(8) -0.1165(10) 0.0894(5)
H8 H -0.4133 -0.1993 0.0843
C10 C 0.2984(8) 0.1149(10) 0.0874(5)
H9 H 0.3819 0.1970 0.0814
C11 C 0.1763(8) 0.1199(9) 0.0860(4)
H10 H 0.1782 0.2026 0.0779
C12 C 0.0502(7) -0.0009(9) 0.0969(5)
C13 C 0.0566(7) -0.1201(8) 0.1077(4)
H11 H -0.0246 -0.2029 0.1155
C14 C 0.1824(8) -0.1167(9) 0.1070(4)
H12 H 0.1836 -0.1984 0.1139
O5 O 0.4130(6) -0.1543(7) 0.1797(3)
O6 O 0.5681(6) 0.1548(6) 0.0148(3)
O2E O 0.3949(8) -0.1720(5) 0.0547(3)
N2_2 N 0.6660(5) 0.0007(7) 0.0968(4)
Cu1D Cu 0.99996(13) 0.51470(16) 0.26361(8)
Cu1_2 Cu -0.51474(9) -0.00004(13) 0.09694(8)
O7 O -0.1437(8) -0.4546(9) 0.0360(4)
O8 O 0.8558(8) 0.3096(10) -0.0093(4)
loop_
_geom_bond_atom_site_label_1
_geom_bond_atom_site_label_2
_geom_bond_site_symmetry_1
_geom_bond_site_symmetry_2
Cu1 O1 1_555 1_555
O1 C3 1_555 1_555
O2 C1 1_555 1_555
O3 C1 1_555 1_555
O4 C3 1_555 1_555
N1 Cu1 1_555 1_555
N2 C5 1_555 1_555
C1 C2 1_555 1_555
C2 H1 1_555 1_555
H2 C2 1_555 1_555
C3 C4 1_555 1_555
C4 C2 1_555 1_555
H3 C4 1_555 1_555
H4 C4 1_555 1_555
C5 H5 1_555 1_555
C6 C5 1_555 1_555
H6 C6 1_555 1_555
C7 C6 1_555 1_555
C8 C7 1_555 1_555
H7 C8 1_555 1_555
C9 N2 1_555 1_555
H8 C9 1_555 1_555
C10 N1 1_555 1_555
H9 C10 1_555 1_555
C11 C10 1_555 1_555
H10 C11 1_555 1_555
C12 C7 1_555 1_555
C13 C12 1_555 1_555
H11 C13 1_555 1_555
C14 N1 1_555 1_555
H12 C14 1_555 1_555
O5 Cu1 1_555 1_555
O6 Cu1 1_555 1_555
O2E Cu1 1_555 1_555
N2_2 Cu1 1_555 1_555
Cu1D O2 1_555 1_555
Cu1_2 N2 1_555 1_555
C8 C9 1_555 1_555
C11 C12 1_555 1_555
C13 C14 1_555 1_555

#END
