
#######################################################################
#
#                 Cambridge Crystallographic Data Centre
#                                CCDC 
#
#######################################################################
#
# If this CIF has been generated from an entry in the Cambridge 
# Structural Database, then it will include bibliographic, chemical, 
# crystal, experimental, refinement or atomic coordinate data resulting 
# from the CCDC's data processing and validation procedures.
#
#######################################################################

data_LIWFEE
_symmetry_cell_setting           tetragonal
_symmetry_space_group_name_H-M   'P 42/n b c'
_symmetry_Int_Tables_number      133
_space_group_name_Hall           '-P 4ac 2b'
loop_
_symmetry_equiv_pos_site_id
_symmetry_equiv_pos_as_xyz
1 x,y,z
2 1/2-x,1/2-y,z
3 1/2-y,x,1/2+z
4 y,1/2-x,1/2+z
5 1/2-x,y,-z
6 x,1/2-y,-z
7 y,x,1/2-z
8 1/2-y,1/2-x,1/2-z
9 -x,-y,-z
10 1/2+x,1/2+y,-z
11 1/2+y,-x,1/2-z
12 -y,1/2+x,1/2-z
13 1/2+x,-y,z
14 -x,1/2+y,z
15 -y,-x,1/2+z
16 1/2+y,1/2+x,1/2+z
_cell_length_a                   13.7328(19)
_cell_length_b                   13.7328(19)
_cell_length_c                   24.546(5)
_cell_angle_alpha                90
_cell_angle_beta                 90
_cell_angle_gamma                90
_cell_volume                     4629.13
loop_
_atom_site_label
_atom_site_type_symbol
_atom_site_fract_x
_atom_site_fract_y
_atom_site_fract_z
Cd1 Cd -0.2500 0.7500 -0.2500
O1 O -0.1567(4) 0.9156(3) -0.2811(2)
O2 O -0.0239(5) 0.9761(5) -0.2500
N1 N -0.1794(3) 0.6570(3) -0.18156(14)
N2 N 0.0567(3) 0.5315(3) -0.04253(17)
N3 N 0.0990(4) 0.4946(3) 0.00139(17)
N4 N -0.0865(3) 0.9135(3) -0.2500
C1 C -0.0836(3) 0.6380(3) -0.18180(17)
H1 H -0.0477 0.6522 -0.2129
C2 C -0.0363(3) 0.5982(3) -0.1373(2)
H2 H 0.0300 0.5849 -0.1388
C3 C -0.0888(4) 0.5784(3) -0.09074(19)
C4 C -0.1887(3) 0.5974(3) -0.09039(18)
H3 H -0.2261 0.5846 -0.0596
C5 C -0.2301(3) 0.6353(3) -0.13651(19)
H4 H -0.2968 0.6467 -0.1366
C6 C -0.0416(4) 0.5363(4) -0.0423(2)
O1F O -0.0844(3) 0.8433(4) -0.2189(2)
N1H N 0.1794(3) 0.3430(3) 0.18156(14)
N2H N -0.0567(3) 0.4685(3) 0.04253(17)
N3H N -0.0990(4) 0.5054(3) -0.00139(17)
C1H C 0.0836(3) 0.3620(3) 0.18180(17)
H1H H 0.0477 0.3478 0.2129
C2H C 0.0363(3) 0.4018(3) 0.1373(2)
H2H H -0.0300 0.4151 0.1388
C3H C 0.0888(4) 0.4216(3) 0.09074(19)
C4H C 0.1887(3) 0.4026(3) 0.09039(18)
H3H H 0.2261 0.4154 0.0596
C5H C 0.2301(3) 0.3647(3) 0.13651(19)
H4H H 0.2968 0.3533 0.1366
C6H C 0.0416(4) 0.4637(4) 0.0423(2)
O1A O -0.3433(4) 0.5844(3) -0.2811(2)
O2A O -0.4761(5) 0.5239(5) -0.2500
N1A N -0.3206(3) 0.8430(3) -0.18156(14)
N2A N -0.5567(3) 0.9685(3) -0.04253(17)
N3A N -0.5990(4) 1.0054(3) 0.00139(17)
N4A N -0.4135(3) 0.5865(3) -0.2500
C1A C -0.4164(3) 0.8620(3) -0.18180(17)
H1A H -0.4523 0.8478 -0.2129
C2A C -0.4637(3) 0.9018(3) -0.1373(2)
H2A H -0.5300 0.9151 -0.1388
C3A C -0.4112(4) 0.9216(3) -0.09074(19)
C4A C -0.3113(3) 0.9026(3) -0.09039(18)
H3A H -0.2739 0.9154 -0.0596
C5A C -0.2699(3) 0.8647(3) -0.13651(19)
H4A H -0.2032 0.8533 -0.1366
C6A C -0.4584(4) 0.9637(4) -0.0423(2)
O1G O -0.4156(3) 0.6567(4) -0.2189(2)
N1I N -0.6794(3) 1.1570(3) 0.18156(14)
N2I N -0.4433(3) 1.0315(3) 0.04253(17)
N3I N -0.4010(4) 0.9946(3) -0.00139(17)
C1I C -0.5836(3) 1.1380(3) 0.18180(17)
H1I H -0.5477 1.1522 0.2129
C2I C -0.5363(3) 1.0982(3) 0.1373(2)
H2I H -0.4700 1.0849 0.1388
C3I C -0.5888(4) 1.0784(3) 0.09074(19)
C4I C -0.6887(3) 1.0974(3) 0.09039(18)
H3I H -0.7261 1.0846 0.0596
C5I C -0.7301(3) 1.1353(3) 0.13651(19)
H4I H -0.7968 1.1467 0.1366
C6I C -0.5416(4) 1.0363(4) 0.0423(2)
Cd1H Cd -0.7500 1.2500 0.2500
Cd1H_2 Cd 0.2500 0.2500 0.2500
N1F N -0.3430(3) 0.8206(3) -0.31844(14)
N1G N -0.1570(3) 0.6794(3) -0.31844(14)
Cd2 Cd 0.2500 0.7500 0.2500
S1 S 0.09748(10) 0.74110(10) 0.30817(5)
N5 N 0.1600(4) 0.9018(4) 0.35822(19)
H5 H 0.1779 0.9348 0.3863
H6 H 0.1585 0.9289 0.3266
N6 N 0.1372(3) 0.7694(4) 0.41208(19)
H7 H 0.1552 0.8027 0.4400
H8 H 0.1208 0.7093 0.4158
C7 C 0.1348(3) 0.8103(4) 0.3636(2)
S1A S 0.40252(10) 0.75890(10) 0.30817(5)
N5A N 0.3400(4) 0.5982(4) 0.35822(19)
H5A H 0.3221 0.5652 0.3863
H6A H 0.3415 0.5711 0.3266
N6A N 0.3628(3) 0.7306(4) 0.41208(19)
H7A H 0.3448 0.6973 0.4400
H8A H 0.3792 0.7907 0.4158
C7A C 0.3652(3) 0.6897(4) 0.3636(2)
S1J S 0.24110(10) 0.90252(10) 0.19183(5)
N5J N 0.4018(4) 0.8400(4) 0.14178(19)
H5J H 0.4348 0.8221 0.1137
H6J H 0.4289 0.8415 0.1734
N6J N 0.2694(4) 0.8628(3) 0.08792(19)
H7J H 0.3027 0.8448 0.0600
H8J H 0.2093 0.8792 0.0842
C7J C 0.3103(4) 0.8652(3) 0.1364(2)
S1K S 0.25890(10) 0.59748(10) 0.19183(5)
N5K N 0.0982(4) 0.6600(4) 0.14178(19)
H5K H 0.0652 0.6779 0.1137
H6K H 0.0711 0.6585 0.1734
N6K N 0.2306(4) 0.6372(3) 0.08792(19)
H7K H 0.1973 0.6552 0.0600
H8K H 0.2907 0.6208 0.0842
C7K C 0.1897(4) 0.6348(3) 0.1364(2)
O3 O -0.1334(5) 0.2500 0.0000
O4 O 0.0020(3) 0.2902(4) -0.03746(17)
N7 N -0.0418(6) 0.2500 0.0000
O4E O 0.0020(3) 0.2098(4) 0.03746(17)
loop_
_geom_bond_atom_site_label_1
_geom_bond_atom_site_label_2
_geom_bond_site_symmetry_1
_geom_bond_site_symmetry_2
Cd1 O1 1_555 1_555
O1 N4 1_555 1_555
O2 N4 1_555 1_555
N1 Cd1 1_555 1_555
N2 N3 1_555 1_555
N3 C6H 1_555 1_555
N4 O1F 1_555 1_555
C1 N1 1_555 1_555
H1 C1 1_555 1_555
C2 C1 1_555 1_555
H2 C2 1_555 1_555
C3 C2 1_555 1_555
C4 C3 1_555 1_555
H3 C4 1_555 1_555
C5 N1 1_555 1_555
H4 C5 1_555 1_555
C6 N2 1_555 1_555
Cd2 S1 1_555 1_555
S1 C7 1_555 1_555
N5 H5 1_555 1_555
H6 N5 1_555 1_555
N6 H7 1_555 1_555
H8 N6 1_555 1_555
C7 N5 1_555 1_555
O3 N7 1_555 1_555
O4 N7 1_555 1_555
N7 O4E 1_555 1_555
O1F Cd1 1_555 1_555
N1H C1H 1_555 1_555
N2H N3H 1_555 1_555
N3H C6 1_555 1_555
C1H H1H 1_555 1_555
C2H C1H 1_555 1_555
H2H C2H 1_555 1_555
C3H C2H 1_555 1_555
C4H C3H 1_555 1_555
H3H C4H 1_555 1_555
C5H N1H 1_555 1_555
H4H C5H 1_555 1_555
C6H N2H 1_555 1_555
O1A Cd1 1_555 1_555
O2A N4A 1_555 1_555
N1A Cd1 1_555 1_555
N2A N3A 1_555 1_555
N3A C6I 1_555 1_555
N4A O1A 1_555 1_555
C1A N1A 1_555 1_555
H1A C1A 1_555 1_555
C2A C1A 1_555 1_555
H2A C2A 1_555 1_555
C3A C2A 1_555 1_555
C4A C3A 1_555 1_555
H3A C4A 1_555 1_555
C5A N1A 1_555 1_555
H4A C5A 1_555 1_555
C6A N2A 1_555 1_555
O1G Cd1 1_555 1_555
N1I C1I 1_555 1_555
N2I N3I 1_555 1_555
N3I C6A 1_555 1_555
C1I H1I 1_555 1_555
C2I C1I 1_555 1_555
H2I C2I 1_555 1_555
C3I C2I 1_555 1_555
C4I C3I 1_555 1_555
H3I C4I 1_555 1_555
C5I N1I 1_555 1_555
H4I C5I 1_555 1_555
C6I N2I 1_555 1_555
Cd1H N1I 1_555 1_555
Cd1H_2 N1H 1_555 1_555
N1F Cd1 1_555 1_555
N1G Cd1 1_555 1_555
S1A Cd2 1_555 1_555
N5A H5A 1_555 1_555
H6A N5A 1_555 1_555
N6A H7A 1_555 1_555
H8A N6A 1_555 1_555
C7A S1A 1_555 1_555
S1J Cd2 1_555 1_555
N5J H5J 1_555 1_555
H6J N5J 1_555 1_555
N6J H7J 1_555 1_555
H8J N6J 1_555 1_555
C7J S1J 1_555 1_555
S1K Cd2 1_555 1_555
N5K H5K 1_555 1_555
H6K N5K 1_555 1_555
N6K H7K 1_555 1_555
H8K N6K 1_555 1_555
C7K S1K 1_555 1_555
C3 C6 1_555 1_555
C4 C5 1_555 1_555
N6 C7 1_555 1_555
C3H C6H 1_555 1_555
C4H C5H 1_555 1_555
N4A O1G 1_555 1_555
C3A C6A 1_555 1_555
C4A C5A 1_555 1_555
C3I C6I 1_555 1_555
C4I C5I 1_555 1_555
N5A C7A 1_555 1_555
N6A C7A 1_555 1_555
N5J C7J 1_555 1_555
N6J C7J 1_555 1_555
N5K C7K 1_555 1_555
N6K C7K 1_555 1_555

#END
