
#######################################################################
#
#                 Cambridge Crystallographic Data Centre
#                                CCDC 
#
#######################################################################
#
# If this CIF has been generated from an entry in the Cambridge 
# Structural Database, then it will include bibliographic, chemical, 
# crystal, experimental, refinement or atomic coordinate data resulting 
# from the CCDC's data processing and validation procedures.
#
#######################################################################

data_LIWFAA
_symmetry_cell_setting           monoclinic
_symmetry_space_group_name_H-M   'C 2/c'
_symmetry_Int_Tables_number      15
_space_group_name_Hall           '-C 2yn'
loop_
_symmetry_equiv_pos_site_id
_symmetry_equiv_pos_as_xyz
1 x,y,z
2 -x,y,1/2-z
3 1/2+x,1/2+y,z
4 1/2-x,1/2+y,1/2-z
5 -x,-y,-z
6 x,-y,1/2+z
7 1/2-x,1/2-y,-z
8 1/2+x,1/2-y,1/2+z
_cell_length_a                   21.3927(6)
_cell_length_b                   24.0819(6)
_cell_length_c                   15.8047(4)
_cell_angle_alpha                90
_cell_angle_beta                 130.500(2)
_cell_angle_gamma                90
_cell_volume                     6191.39
loop_
_atom_site_label
_atom_site_type_symbol
_atom_site_fract_x
_atom_site_fract_y
_atom_site_fract_z
Cd1 Cd 0.190762(19) 0.126771(13) -0.32949(2)
S1 S 0.17214(10) 0.06178(5) -0.46858(11)
S2 S 0.31577(8) 0.18423(7) -0.19577(10)
N1 N 0.1533(3) 0.11396(19) -0.5571(4)
N2 N 0.1551(2) 0.16614(15) -0.5309(3)
N3 N 0.0977(3) 0.19338(18) -0.7138(4)
N4 N 0.1014(3) 0.14109(18) -0.7376(4)
N5 N 0.1650(2) -0.05194(16) -0.7627(3)
N6 N 0.1531(5) 0.3758(2) -0.5230(7)
N7 N 0.3163(3) 0.18997(19) -0.0866(4)
N8 N 0.2580(2) 0.16399(16) -0.0922(3)
N9 N 0.3192(3) 0.1978(2) 0.0885(4)
N10 N 0.3756(3) 0.2251(2) 0.0927(3)
N11 N 0.5823(2) 0.31639(16) 0.1032(3)
N12 N 0.0924(3) 0.0783(2) 0.0012(4)
C1 C 0.1301(3) 0.20412(19) -0.6092(4)
C2 C 0.1313(3) 0.10165(19) -0.6621(4)
C3 C 0.1774(5) 0.3363(3) -0.4520(7)
H1 H 0.2005 0.3467 -0.3802
C4 C 0.1718(4) 0.2795(2) -0.4740(5)
H2 H 0.1914 0.2533 -0.4186
C5 C 0.1367(3) 0.2640(2) -0.5789(4)
C6 C 0.1094(4) 0.3048(2) -0.6579(5)
H3 H 0.0853 0.2961 -0.7308
C7 C 0.1202(6) 0.3599(3) -0.6217(8)
H4 H 0.1016 0.3876 -0.6743
C8 C 0.2244(3) -0.0315(2) -0.6610(4)
H5 H 0.2740 -0.0505 -0.6131
C9 C 0.2140(3) 0.0176(2) -0.6249(4)
H6 H 0.2564 0.0310 -0.5540
C10 C 0.1411(3) 0.04618(19) -0.6939(4)
C11 C 0.0800(3) 0.0245(2) -0.7993(4)
H7 H 0.0299 0.0426 -0.8488
C12 C 0.0944(3) -0.02414(19) -0.8298(3)
H8 H 0.0528 -0.0383 -0.9005
C13 C 0.2636(3) 0.1685(2) -0.0028(4)
C14 C 0.3771(3) 0.2208(2) 0.0107(4)
C15 C 0.0773(4) 0.0914(3) -0.0925(5)
H9 H 0.0271 0.0803 -0.1592
C16 C 0.1300(4) 0.1198(2) -0.0986(5)
H10 H 0.1156 0.1269 -0.1672
C17 C 0.2036(3) 0.1377(2) -0.0029(4)
C18 C 0.2205(4) 0.1251(3) 0.0952(5)
H11 H 0.2702 0.1361 0.1628
C19 C 0.1652(4) 0.0966(3) 0.0937(5)
H12 H 0.1786 0.0891 0.1616
C20 C 0.5108(3) 0.3175(2) -0.0023(4)
H13 H 0.5062 0.3412 -0.0525
C21 C 0.4442(3) 0.2853(2) -0.0394(4)
H14 H 0.3969 0.2864 -0.1140
C22 C 0.4477(3) 0.2511(2) 0.0346(4)
C23 C 0.5237(3) 0.2487(2) 0.1440(4)
H15 H 0.5302 0.2251 0.1958
C24 C 0.5878(3) 0.2807(2) 0.1741(4)
H16 H 0.6375 0.2780 0.2465
Cd1E Cd 0.190762(19) -0.126771(13) -0.82949(2)
Cd1G Cd 0.690762(19) 0.373229(13) 0.17051(2)
N5E N 0.1650(2) 0.05194(16) -0.2627(3)
N11G N 0.0823(2) 0.18361(16) -0.3968(3)
loop_
_geom_bond_atom_site_label_1
_geom_bond_atom_site_label_2
_geom_bond_site_symmetry_1
_geom_bond_site_symmetry_2
Cd1 S1 1_555 1_555
S1 N1 1_555 1_555
S2 Cd1 1_555 1_555
N1 N2 1_555 1_555
N2 C1 1_555 1_555
N3 N4 1_555 1_555
N4 C2 1_555 1_555
N5 C8 1_555 1_555
N6 C3 1_555 1_555
N7 S2 1_555 1_555
N8 N7 1_555 1_555
N9 N10 1_555 1_555
N10 C14 1_555 1_555
N11 C20 1_555 1_555
N12 C15 1_555 1_555
C1 N3 1_555 1_555
C2 N1 1_555 1_555
C3 H1 1_555 1_555
C4 C3 1_555 1_555
H2 C4 1_555 1_555
C5 C1 1_555 1_555
C6 C5 1_555 1_555
H3 C6 1_555 1_555
C7 N6 1_555 1_555
H4 C7 1_555 1_555
C8 H5 1_555 1_555
C9 C8 1_555 1_555
H6 C9 1_555 1_555
C10 C2 1_555 1_555
C11 C10 1_555 1_555
H7 C11 1_555 1_555
C12 N5 1_555 1_555
H8 C12 1_555 1_555
C13 N8 1_555 1_555
C14 N7 1_555 1_555
C15 H9 1_555 1_555
C16 C15 1_555 1_555
H10 C16 1_555 1_555
C17 C13 1_555 1_555
C18 C17 1_555 1_555
H11 C18 1_555 1_555
C19 N12 1_555 1_555
H12 C19 1_555 1_555
C20 H13 1_555 1_555
C21 C20 1_555 1_555
H14 C21 1_555 1_555
C22 C14 1_555 1_555
C23 C22 1_555 1_555
H15 C23 1_555 1_555
C24 N11 1_555 1_555
H16 C24 1_555 1_555
Cd1E N5 1_555 1_555
Cd1G N11 1_555 1_555
N5E Cd1 1_555 1_555
N11G Cd1 1_555 1_555
N9 C13 1_555 1_555
C4 C5 1_555 1_555
C6 C7 1_555 1_555
C9 C10 1_555 1_555
C11 C12 1_555 1_555
C16 C17 1_555 1_555
C18 C19 1_555 1_555
C21 C22 1_555 1_555
C23 C24 1_555 1_555

#END
