
#######################################################################
#
#                 Cambridge Crystallographic Data Centre
#                                CCDC 
#
#######################################################################
#
# If this CIF has been generated from an entry in the Cambridge 
# Structural Database, then it will include bibliographic, chemical, 
# crystal, experimental, refinement or atomic coordinate data resulting 
# from the CCDC's data processing and validation procedures.
#
#######################################################################

data_LIWFUS
_symmetry_cell_setting           triclinic
_symmetry_space_group_name_H-M   'P -1'
_symmetry_Int_Tables_number      2
_space_group_name_Hall           '-P 1'
loop_
_symmetry_equiv_pos_site_id
_symmetry_equiv_pos_as_xyz
1 x,y,z
2 -x,-y,-z
_cell_length_a                   7.4548(3)
_cell_length_b                   8.0825(3)
_cell_length_c                   10.1660(4)
_cell_angle_alpha                75.244(1)
_cell_angle_beta                 68.883(1)
_cell_angle_gamma                80.648(1)
_cell_volume                     550.856
loop_
_atom_site_label
_atom_site_type_symbol
_atom_site_fract_x
_atom_site_fract_y
_atom_site_fract_z
V1 V 0.2440(1) -0.4836(1) 0.2622(1)
V2 V 0.3074(1) -0.2386(1) -0.2528(1)
P1 P 0.5323(1) -0.2648(1) -0.0312(1)
P2 P -0.0973(1) -0.7230(1) 0.4785(1)
O1 O 0.4783(2) -0.3608(2) 0.1261(2)
O2 O 0.7113(2) -0.3488(2) -0.1310(2)
O3 O 0.0731(2) -0.3681(2) 0.2123(2)
O4 O 0.0993(2) -0.6552(2) 0.4340(2)
O5 O -0.2566(2) -0.6414(2) 0.5946(2)
O6 O 0.0451(3) -0.2996(3) -0.0837(2)
O7 O 0.3563(2) -0.2406(2) -0.0806(2)
O8 O -0.1593(2) -0.6903(2) 0.3447(2)
O9 O 0.4866(2) -0.6584(2) 0.3285(2)
O10 O 0.3225(3) -0.0386(2) -0.3311(2)
C1 C 0.5879(3) -0.0523(3) -0.0420(2)
C2 C -0.0784(3) -0.9505(3) 0.5519(2)
H1 H 0.6914(3) -0.0606(3) -0.0034(2)
H2 H 0.6328(3) 0.0071(3) -0.1424(2)
H3 H -0.2017(3) -0.9956(3) 0.5753(2)
H4 H -0.0501(3) -0.9693(3) 0.6408(2)
O8A O 0.1593(2) -0.3097(2) -0.3447(2)
O9A O 0.5134(2) -0.3416(2) -0.3285(2)
O2A O 0.2887(2) -0.6512(2) 0.1310(2)
O5A O 0.2566(2) -0.3586(2) 0.4054(2)
V2A V -0.3074(1) -0.7614(1) 0.2528(1)
V2A_2 V 0.6926(1) -0.7614(1) 0.2528(1)
C1A C 0.4121(3) 0.0523(3) 0.0420(2)
C2A C 0.0784(3) -1.0495(3) 0.4481(2)
V1A V 0.7560(1) -0.5164(1) -0.2622(1)
P1A P 0.4677(1) 0.2648(1) 0.0312(1)
H1A H 0.3086(3) 0.0606(3) 0.0034(2)
H2A H 0.3672(3) -0.0071(3) 0.1424(2)
O1A O 0.5217(2) 0.3608(2) -0.1261(2)
O2A_2 O 0.2887(2) 0.3488(2) 0.1310(2)
O7A O 0.6437(2) 0.2406(2) 0.0806(2)
V1A_2 V 0.7560(1) 0.4836(1) -0.2622(1)
O2_2 O 0.7113(2) 0.6512(2) -0.1310(2)
O3A O 0.9269(2) 0.3681(2) -0.2123(2)
O4A O 0.9007(2) 0.6552(2) -0.4340(2)
O5_2 O 0.7434(2) 0.3586(2) -0.4054(2)
O9A_2 O 0.5134(2) 0.6584(2) -0.3285(2)
V2_2 V 0.3074(1) 0.7614(1) -0.2528(1)
V2A_3 V 0.6926(1) 0.2386(1) 0.2528(1)
V1_2 V 0.2440(1) 0.5164(1) 0.2622(1)
V1A_3 V -0.2440(1) -0.5164(1) 0.7378(1)
O6A O -0.0451(3) -0.7004(3) 0.0837(2)
O7A_2 O -0.3563(2) -0.7594(2) 0.0806(2)
O9_2 O -0.5134(2) -0.6584(2) 0.3285(2)
O10A O -0.3225(3) -0.9614(2) 0.3311(2)
P2A P 0.0973(1) -1.2770(1) 0.5215(1)
H3A H 0.2017(3) -1.0044(3) 0.4247(2)
H4A H 0.0501(3) -1.0307(3) 0.3592(2)
O4A_2 O -0.0993(2) -1.3448(2) 0.5660(2)
O5A_2 O 0.2566(2) -1.3586(2) 0.4054(2)
O8A_2 O 0.1593(2) -1.3097(2) 0.6553(2)
V1A_4 V -0.2440(1) -1.5164(1) 0.7378(1)
V1_3 V 0.2440(1) -1.4836(1) 0.2622(1)
V2_3 V 0.3074(1) -1.2386(1) 0.7472(1)
N1 N 0.3428(3) -0.6863(3) 0.6379(2)
H5 H 0.3323(78) -0.8048(77) 0.6634(61)
H6 H 0.4347(83) -0.6655(73) 0.6575(60)
H7 H 0.2100(82) -0.6743(71) 0.7191(61)
H8 H 0.3457(76) -0.6287(70) 0.5374(63)
loop_
_geom_bond_atom_site_label_1
_geom_bond_atom_site_label_2
_geom_bond_site_symmetry_1
_geom_bond_site_symmetry_2
V1 O1 1_555 1_555
V2 O6 1_555 1_555
P1 O1 1_555 1_555
P2 O4 1_555 1_555
O2 P1 1_555 1_555
O3 V1 1_555 1_555
O4 V1 1_555 1_555
O5 P2 1_555 1_555
O7 V2 1_555 1_555
O8 P2 1_555 1_555
O9 V1 1_555 1_555
O10 V2 1_555 1_555
C1 P1 1_555 1_555
C2 P2 1_555 1_555
N1 H5 1_555 1_555
H1 C1 1_555 1_555
H2 C1 1_555 1_555
H3 C2 1_555 1_555
H4 C2 1_555 1_555
H6 N1 1_555 1_555
H7 N1 1_555 1_555
H8 N1 1_555 1_555
O8A V2 1_555 1_555
O9A V2 1_555 1_555
O2A V1 1_555 1_555
O5A V1 1_555 1_555
V2A O8 1_555 1_555
V2A_2 O9 1_555 1_555
C1A C1 1_555 1_555
C2A C2 1_555 1_555
V1A O2 1_555 1_555
P1A C1A 1_555 1_555
H1A C1A 1_555 1_555
H2A C1A 1_555 1_555
O1A P1A 1_555 1_555
O2A_2 P1A 1_555 1_555
O7A P1A 1_555 1_555
V1A_2 O1A 1_555 1_555
O2_2 V1A_2 1_555 1_555
O3A V1A_2 1_555 1_555
O4A V1A_2 1_555 1_555
O5_2 V1A_2 1_555 1_555
O9A_2 V1A_2 1_555 1_555
V2_2 O9A_2 1_555 1_555
V2A_3 O7A 1_555 1_555
V1_2 O2A_2 1_555 1_555
V1A_3 O5 1_555 1_555
O6A V2A 1_555 1_555
O7A_2 V2A 1_555 1_555
O9_2 V2A 1_555 1_555
O10A V2A 1_555 1_555
P2A C2A 1_555 1_555
H3A C2A 1_555 1_555
H4A C2A 1_555 1_555
O4A_2 P2A 1_555 1_555
O5A_2 P2A 1_555 1_555
O8A_2 P2A 1_555 1_555
V1A_4 O4A_2 1_555 1_555
V1_3 O5A_2 1_555 1_555
V2_3 O8A_2 1_555 1_555
P1 O7 1_555 1_555
O9A V1A 1_555 1_555

#END
