
#######################################################################
#
#                 Cambridge Crystallographic Data Centre
#                                CCDC 
#
#######################################################################
#
# If this CIF has been generated from an entry in the Cambridge 
# Structural Database, then it will include bibliographic, chemical, 
# crystal, experimental, refinement or atomic coordinate data resulting 
# from the CCDC's data processing and validation procedures.
#
#######################################################################

data_LIWHEF
_symmetry_cell_setting           orthorhombic
_symmetry_space_group_name_H-M   'P 21 21 2'
_symmetry_Int_Tables_number      18
_space_group_name_Hall           'P 2 2ab'
loop_
_symmetry_equiv_pos_site_id
_symmetry_equiv_pos_as_xyz
1 x,y,z
2 -x,-y,z
3 1/2-x,1/2+y,-z
4 1/2+x,1/2-y,-z
_cell_length_a                   30.693(6)
_cell_length_b                   3.6405(7)
_cell_length_c                   6.0918(12)
_cell_angle_alpha                90
_cell_angle_beta                 90
_cell_angle_gamma                90
_cell_volume                     680.685
loop_
_atom_site_label
_atom_site_type_symbol
_atom_site_fract_x
_atom_site_fract_y
_atom_site_fract_z
Cu1 Cu 0.5000 0.5000 0.1535(2)
Cl1 Cl 0.5000 0.0000 0.4044(4)
N1 N 0.4411(2) 0.4724(24) 0.0103(10)
C1 C 0.4069(2) 0.3650(21) 0.1277(14)
H1 H 0.4116 0.2657 0.2663
C2 C 0.3643(2) 0.3954(20) 0.0514(13)
N2 N 0.3557(2) 0.5446(21) -0.1467(11)
C3 C 0.3901(2) 0.6399(23) -0.2667(14)
H2 H 0.3857 0.7318 -0.4074
C4 C 0.4328(2) 0.6058(20) -0.1875(13)
H3 H 0.4559 0.6789 -0.2762
C5 C 0.3268(3) 0.2742(23) 0.1864(14)
O1 O 0.33293(15) 0.1009(13) 0.3588(9)
O2 O 0.2893(2) 0.3833(14) 0.1138(9)
H4 H 0.2661 0.3380 0.1718
Cu1_2 Cu 0.5000 -0.5000 0.1535(2)
Cl1_2 Cl 0.5000 1.0000 0.4044(4)
N1A N 0.5589(2) 0.5276(24) 0.0103(10)
C1A C 0.5931(2) 0.6350(21) 0.1277(14)
H1A H 0.5884 0.7343 0.2663
C2A C 0.6357(2) 0.6046(20) 0.0514(13)
N2A N 0.6443(2) 0.4554(21) -0.1467(11)
C3A C 0.6099(2) 0.3601(23) -0.2667(14)
H2A H 0.6143 0.2682 -0.4074
C4A C 0.5672(2) 0.3942(20) -0.1875(13)
H3A H 0.5441 0.3211 -0.2762
C5A C 0.6732(3) 0.7258(23) 0.1864(14)
O1A O 0.66707(15) 0.8991(13) 0.3588(9)
O2A O 0.7107(2) 0.6167(14) 0.1138(9)
H4A H 0.7339 0.6620 0.1718
O3 O 0.2258(2) 0.1965(14) 0.3455(9)
H5 H 0.2176 0.3860 0.4045
H6 H 0.2055 0.1056 0.2777
loop_
_geom_bond_atom_site_label_1
_geom_bond_atom_site_label_2
_geom_bond_site_symmetry_1
_geom_bond_site_symmetry_2
Cu1 Cl1 1_555 1_555
Cl1 Cu1_2 1_555 1_555
N1 Cu1 1_555 1_555
C1 N1 1_555 1_555
H1 C1 1_555 1_555
C2 C1 1_555 1_555
N2 C2 1_555 1_555
C3 N2 1_555 1_555
H2 C3 1_555 1_555
C4 N1 1_555 1_555
H3 C4 1_555 1_555
C5 C2 1_555 1_555
O1 C5 1_555 1_555
O2 C5 1_555 1_555
H4 O2 1_555 1_555
O3 H5 1_555 1_555
H6 O3 1_555 1_555
Cl1_2 Cu1 1_555 1_555
N1A Cu1 1_555 1_555
C1A N1A 1_555 1_555
H1A C1A 1_555 1_555
C2A C1A 1_555 1_555
N2A C2A 1_555 1_555
C3A N2A 1_555 1_555
H2A C3A 1_555 1_555
C4A N1A 1_555 1_555
H3A C4A 1_555 1_555
C5A C2A 1_555 1_555
O1A C5A 1_555 1_555
O2A C5A 1_555 1_555
H4A O2A 1_555 1_555
C3 C4 1_555 1_555
C3A C4A 1_555 1_555

#END
