
#######################################################################
#
#                 Cambridge Crystallographic Data Centre
#                                CCDC 
#
#######################################################################
#
# If this CIF has been generated from an entry in the Cambridge 
# Structural Database, then it will include bibliographic, chemical, 
# crystal, experimental, refinement or atomic coordinate data resulting 
# from the CCDC's data processing and validation procedures.
#
#######################################################################

data_LIWHII
_symmetry_cell_setting           monoclinic
_symmetry_space_group_name_H-M   'C 2/m'
_symmetry_Int_Tables_number      12
_space_group_name_Hall           '-C 2y'
loop_
_symmetry_equiv_pos_site_id
_symmetry_equiv_pos_as_xyz
1 x,y,z
2 -x,y,-z
3 1/2+x,1/2+y,z
4 1/2-x,1/2+y,-z
5 -x,-y,-z
6 x,-y,z
7 1/2-x,1/2-y,-z
8 1/2+x,1/2-y,z
_cell_length_a                   18.156(2)
_cell_length_b                   7.581(2)
_cell_length_c                   6.983(2)
_cell_angle_alpha                90
_cell_angle_beta                 110.09(2)
_cell_angle_gamma                90
_cell_volume                     902.663
loop_
_atom_site_label
_atom_site_type_symbol
_atom_site_fract_x
_atom_site_fract_y
_atom_site_fract_z
Cd1 Cd 0.0000 0.0000 0.0000
Ni1 Ni 0.0000 0.5000 -0.5000
N1 N 0.1210(2) 0.0000 0.2624(5)
N2 N 0.0423(2) 0.2169(3) -0.1793(3)
C1 C 0.0287(1) 0.3257(3) -0.2999(3)
C2 C 0.1248(2) 0.0000 0.4555(6)
C3 C 0.1963(3) 0.0000 0.6174(6)
C4 C 0.2654(2) 0.0000 0.5814(7)
C5 C 0.3432(3) 0.0000 0.7547(12)
C6 C 0.2609(3) 0.0000 0.3813(9)
C7 C 0.1881(3) 0.0000 0.2283(7)
H1 H 0.0785(2) 0.0000 0.4842(6)
H2 H 0.1967(3) 0.0000 0.7509(6)
H3 H 0.391(3) 0.0000 0.733(1)
H4 H 0.349(5) -0.1077(6) 0.811(1)
H5 H 0.3064(3) 0.0000 0.3486(9)
H6 H 0.1864(3) 0.0000 0.0937(7)
H4E H 0.349(5) 0.1077(6) 0.811(1)
N1A N -0.1210(2) 0.0000 -0.2624(5)
C2A C -0.1248(2) 0.0000 -0.4555(6)
C3A C -0.1963(3) 0.0000 -0.6174(6)
C4A C -0.2654(2) 0.0000 -0.5814(7)
C5A C -0.3432(3) 0.0000 -0.7547(12)
H3A H -0.391(3) 0.0000 -0.733(1)
H4A H -0.349(5) -0.1077(6) -0.811(1)
H4D H -0.349(5) 0.1077(6) -0.811(1)
C6A C -0.2609(3) 0.0000 -0.3813(9)
C7A C -0.1881(3) 0.0000 -0.2283(7)
H6A H -0.1864(3) 0.0000 -0.0937(7)
H5A H -0.3064(3) 0.0000 -0.3486(9)
H2A H -0.1967(3) 0.0000 -0.7509(6)
H1A H -0.0785(2) 0.0000 -0.4842(6)
C1A C -0.0287(1) 0.3257(3) -0.7001(3)
N2A N -0.0423(2) 0.2169(3) -0.8207(3)
Cd1A Cd 0.0000 0.0000 -1.0000
C1D C -0.0287(1) 0.6743(3) -0.7001(3)
C1E C 0.0287(1) 0.6743(3) -0.2999(3)
N2A_2 N -0.0423(2) 0.2169(3) 0.1793(3)
N2D N -0.0423(2) -0.2169(3) 0.1793(3)
N2E N 0.0423(2) -0.2169(3) -0.1793(3)
N2D_2 N -0.0423(2) 0.7831(3) -0.8207(3)
N2E_2 N 0.0423(2) 0.7831(3) -0.1793(3)
Cd1_2 Cd 0.0000 1.0000 -1.0000
Cd1_3 Cd 0.0000 1.0000 0.0000
loop_
_geom_bond_atom_site_label_1
_geom_bond_atom_site_label_2
_geom_bond_site_symmetry_1
_geom_bond_site_symmetry_2
Cd1 N1 1_555 1_555
Ni1 C1 1_555 1_555
N1 C2 1_555 1_555
N2 Cd1 1_555 1_555
C1 N2 1_555 1_555
C2 C3 1_555 1_555
C3 C4 1_555 1_555
C4 C5 1_555 1_555
C5 H3 1_555 1_555
C6 C4 1_555 1_555
C7 N1 1_555 1_555
H1 C2 1_555 1_555
H2 C3 1_555 1_555
H4 C5 1_555 1_555
H5 C6 1_555 1_555
H6 C7 1_555 1_555
H4E C5 1_555 1_555
N1A Cd1 1_555 1_555
C2A N1A 1_555 1_555
C3A C2A 1_555 1_555
C4A C3A 1_555 1_555
C5A C4A 1_555 1_555
H3A C5A 1_555 1_555
H4A C5A 1_555 1_555
H4D C5A 1_555 1_555
C6A C4A 1_555 1_555
C7A N1A 1_555 1_555
H6A C7A 1_555 1_555
H5A C6A 1_555 1_555
H2A C3A 1_555 1_555
H1A C2A 1_555 1_555
C1A Ni1 1_555 1_555
N2A C1A 1_555 1_555
Cd1A N2A 1_555 1_555
C1D Ni1 1_555 1_555
C1E Ni1 1_555 1_555
N2A_2 Cd1 1_555 1_555
N2D Cd1 1_555 1_555
N2E Cd1 1_555 1_555
N2D_2 C1D 1_555 1_555
N2E_2 C1E 1_555 1_555
Cd1_2 N2D_2 1_555 1_555
Cd1_3 N2E_2 1_555 1_555
C6 C7 1_555 1_555
C6A C7A 1_555 1_555

#END
