
#######################################################################
#
#                 Cambridge Crystallographic Data Centre
#                                CCDC 
#
#######################################################################
#
# If this CIF has been generated from an entry in the Cambridge 
# Structural Database, then it will include bibliographic, chemical, 
# crystal, experimental, refinement or atomic coordinate data resulting 
# from the CCDC's data processing and validation procedures.
#
#######################################################################

data_LIWKEH01
_symmetry_cell_setting           monoclinic
_symmetry_space_group_name_H-M   'C 2/c'
_symmetry_Int_Tables_number      15
_space_group_name_Hall           '-C 2yn'
loop_
_symmetry_equiv_pos_site_id
_symmetry_equiv_pos_as_xyz
1 x,y,z
2 -x,y,1/2-z
3 1/2+x,1/2+y,z
4 1/2-x,1/2+y,1/2-z
5 -x,-y,-z
6 x,-y,1/2+z
7 1/2-x,1/2-y,-z
8 1/2+x,1/2-y,1/2+z
_cell_length_a                   22.7870
_cell_length_b                   6.3670
_cell_length_c                   9.9060
_cell_angle_alpha                90.0
_cell_angle_beta                 110.58
_cell_angle_gamma                90.0
_cell_volume                     1345.49
loop_
_atom_site_label
_atom_site_type_symbol
_atom_site_fract_x
_atom_site_fract_y
_atom_site_fract_z
Ca1 Ca 0.00000 -0.29520 0.25000
O1 O -0.07840 -0.67250 0.51955
O2 O -0.03990 -0.57800 0.35050
O3 O 0.00000 0.07270 0.25000
C1 C -0.07500 -0.55100 0.42290
C2 C -0.11450 -0.35500 0.38945
C3 C -0.16610 -0.32250 0.43700
N1 N -0.20110 -0.14650 0.39900
C4 C -0.18495 -0.00600 0.31800
C5 C -0.13420 -0.03950 0.27450
N2 N -0.18355 -0.45950 0.51750
N3 N -0.09955 -0.21200 0.31010
H1 H 0.00850 0.11300 0.33950
H2 H -0.20800 0.11550 0.28800
H3 H -0.12500 0.06550 0.22000
H4 H -0.16600 -0.59000 0.54200
H5 H -0.22750 -0.48200 0.48200
H1A H -0.00850 0.11300 0.16050
O1E O -0.07840 -0.32750 0.01955
O2A O 0.03990 -0.57800 0.14950
N3A N 0.09955 -0.21200 0.18990
Ca1D Ca 0.00000 -0.70480 0.75000
Ca1D_2 Ca 0.00000 -0.70480 -0.25000
C1A C 0.07500 -0.55100 0.07710
C2A C 0.11450 -0.35500 0.11055
C5A C 0.13420 -0.03950 0.22550
O1D O 0.07840 -0.32750 0.48045
O1A O 0.07840 -0.67250 -0.01955
C3A C 0.16610 -0.32250 0.06300
C4A C 0.18495 -0.00600 0.18200
H3A H 0.12500 0.06550 0.28000
N1A N 0.20110 -0.14650 0.10100
N2A N 0.18355 -0.45950 -0.01750
H2A H 0.20800 0.11550 0.21200
H4A H 0.16600 -0.59000 -0.04200
H5A H 0.22750 -0.48200 0.01800
loop_
_geom_bond_atom_site_label_1
_geom_bond_atom_site_label_2
_geom_bond_site_symmetry_1
_geom_bond_site_symmetry_2
Ca1 O2 1_555 1_555
O1 C1 1_555 1_555
O2 C1 1_555 1_555
O3 Ca1 1_555 1_555
C1 C2 1_555 1_555
C2 C3 1_555 1_555
C3 N1 1_555 1_555
N1 C4 1_555 1_555
C4 C5 1_555 1_555
C5 N3 1_555 1_555
N2 C3 1_555 1_555
N3 Ca1 1_555 1_555
H1 O3 1_555 1_555
H2 C4 1_555 1_555
H3 C5 1_555 1_555
H4 N2 1_555 1_555
H5 N2 1_555 1_555
H1A O3 1_555 1_555
O1E Ca1 1_555 1_555
O2A Ca1 1_555 1_555
N3A Ca1 1_555 1_555
Ca1D O1 1_555 1_555
Ca1D_2 O1A 1_555 1_555
C1A O2A 1_555 1_555
C2A N3A 1_555 1_555
C5A N3A 1_555 1_555
O1D Ca1 1_555 1_555
O1A C1A 1_555 1_555
C3A C2A 1_555 1_555
C4A C5A 1_555 1_555
H3A C5A 1_555 1_555
N1A C3A 1_555 1_555
N2A C3A 1_555 1_555
H2A C4A 1_555 1_555
H4A N2A 1_555 1_555
H5A N2A 1_555 1_555
C2 N3 1_555 1_555
C1A C2A 1_555 1_555
C4A N1A 1_555 1_555

#END
