
#######################################################################
#
#                 Cambridge Crystallographic Data Centre
#                                CCDC 
#
#######################################################################
#
# If this CIF has been generated from an entry in the Cambridge 
# Structural Database, then it will include bibliographic, chemical, 
# crystal, experimental, refinement or atomic coordinate data resulting 
# from the CCDC's data processing and validation procedures.
#
#######################################################################

data_LIWKIN
_symmetry_cell_setting           triclinic
_symmetry_space_group_name_H-M   'P -1'
_symmetry_Int_Tables_number      2
_space_group_name_Hall           '-P 1'
loop_
_symmetry_equiv_pos_site_id
_symmetry_equiv_pos_as_xyz
1 x,y,z
2 -x,-y,-z
_cell_length_a                   10.4794(16)
_cell_length_b                   16.567(3)
_cell_length_c                   17.166(3)
_cell_angle_alpha                84.697(4)
_cell_angle_beta                 89.874(4)
_cell_angle_gamma                80.039(3)
_cell_volume                     2922.45
loop_
_atom_site_label
_atom_site_type_symbol
_atom_site_fract_x
_atom_site_fract_y
_atom_site_fract_z
Ru1 Ru -0.43666(2) 0.536086(15) 0.461234(14)
Ru2 Ru 0.44146(2) 0.968499(14) 0.045905(14)
Cl1 Cl -0.27294(10) 0.69199(7) 0.91754(6)
Cl2 Cl -1.09255(13) 0.92785(8) 0.43308(7)
Cl3 Cl 1.13178(9) 0.59861(5) 0.10363(5)
Cl4 Cl 0.29497(10) 0.70889(8) -0.35336(7)
S1 S -0.10102(8) 0.96765(5) 0.20322(5)
S2 S 0.10525(9) 0.55638(5) 0.32779(6)
O1 O -0.3814(2) 0.58492(14) 0.55677(12)
O2 O -0.5071(2) 0.51505(14) 0.63220(12)
O3 O -0.3623(3) 0.72336(14) 0.62242(14)
O4 O -0.5880(2) 0.62847(14) 0.44432(13)
O5 O -0.7133(2) 0.55815(14) 0.52000(12)
O6 O -0.9597(3) 0.62142(18) 0.51782(16)
O7 O 0.59964(19) 0.88268(13) 0.07370(12)
O8 O 0.71496(19) 0.94472(12) -0.01610(12)
O9 O 0.9663(2) 0.89527(13) -0.00494(13)
O10 O 0.39209(19) 0.89958(13) -0.03619(12)
O11 O 0.5087(2) 0.96055(13) -0.12593(12)
O12 O 0.3815(3) 0.74775(15) -0.06832(16)
N1 N -0.3295(3) 0.61730(18) 0.38269(16)
N2 N -0.4688(3) 0.8558(3) 0.28856(19)
N3 N -0.1826(3) 0.90058(17) 0.24232(16)
N4 N 0.0399(3) 0.91169(17) 0.19764(16)
N5 N 0.1863(3) 0.62299(17) 0.28818(16)
N6 N -0.0370(3) 0.61110(17) 0.33017(17)
N7 N 0.3312(3) 0.89840(16) 0.13286(15)
N8 N 0.4572(3) 0.6554(2) 0.2090(3)
C1 C -0.2946(3) 0.6725(3) 0.34970(19)
C2 C -0.2621(3) 0.7460(2) 0.31061(19)
C3 C -0.3731(4) 0.8091(3) 0.29656(19)
C4 C -0.1353(3) 0.7541(2) 0.28866(18)
C5 C -0.1002(3) 0.8293(2) 0.25428(18)
C6 C 0.0296(3) 0.83529(19) 0.22869(18)
C7 C 0.1367(3) 0.76798(19) 0.23606(17)
C8 C 0.1026(3) 0.6937(2) 0.27358(18)
C9 C -0.0275(4) 0.6876(2) 0.29848(18)
C10 C 0.2939(3) 0.8456(2) 0.16773(18)
C11 C 0.2609(3) 0.77288(19) 0.20764(18)
C12 C 0.3661(4) 0.7058(2) 0.2108(3)
C13 C -0.4283(3) 0.5651(2) 0.62291(19)
C14 C -0.3886(3) 0.5990(2) 0.69412(19)
C15 C -0.3535(3) 0.6775(2) 0.6923(2)
C16 C -0.3243(4) 0.8029(3) 0.6185(3)
C17 C -0.3167(4) 0.7057(3) 0.7621(2)
C18 C -0.3161(4) 0.6555(3) 0.8310(2)
C19 C -0.3510(4) 0.5784(3) 0.8346(2)
C20 C -0.3875(3) 0.5512(2) 0.7656(2)
C21 C -0.6952(3) 0.6225(2) 0.47728(18)
C22 C -0.7996(4) 0.6949(3) 0.46491(19)
C23 C -0.9286(4) 0.6938(3) 0.4883(2)
C24 C -1.0936(4) 0.6177(4) 0.5328(3)
C25 C -1.0178(4) 0.7675(3) 0.4781(3)
C26 C -0.9781(5) 0.8380(3) 0.4446(3)
C27 C -0.8542(4) 0.8393(3) 0.4192(3)
C28 C -0.7658(4) 0.7676(3) 0.4301(2)
C29 C 0.7046(3) 0.88673(18) 0.03670(17)
C30 C 0.8155(3) 0.81891(18) 0.05509(17)
C31 C 0.9428(3) 0.82306(19) 0.03084(18)
C32 C 1.0983(3) 0.9014(3) -0.0222(2)
C33 C 1.0399(3) 0.7540(2) 0.04564(19)
C34 C 1.0091(4) 0.6840(2) 0.08535(19)
C35 C 0.8863(4) 0.6787(2) 0.11209(19)
C36 C 0.7902(3) 0.7467(2) 0.09587(18)
C37 C 0.4362(3) 0.90792(19) -0.10494(19)
C38 C 0.4007(3) 0.8562(2) -0.1644(2)
C39 C 0.3724(3) 0.7765(2) -0.1439(2)
C40 C 0.3626(5) 0.6649(3) -0.0474(3)
C41 C 0.3414(4) 0.7311(3) -0.2038(3)
C42 C 0.3375(4) 0.7658(3) -0.2793(3)
C43 C 0.3631(4) 0.8435(3) -0.3007(3)
C44 C 0.3966(4) 0.8882(3) -0.2420(2)
H1 H -0.3994 0.8446 0.6285
H2 H -0.2908 0.8160 0.5664
H3 H -0.2566 0.8024 0.6580
H4 H -0.2926 0.7584 0.7620
H5 H -0.3498 0.5452 0.8829
H6 H -0.4125 0.4986 0.7669
H7 H -1.1141 0.6313 0.5863
H8 H -1.1096 0.5621 0.5267
H9 H -1.1484 0.6573 0.4956
H10 H -1.1050 0.7690 0.4941
H11 H -0.8304 0.8883 0.3948
H12 H -0.6792 0.7675 0.4136
H13 H 1.1377 0.9217 0.0221
H14 H 1.1011 0.9397 -0.0690
H15 H 1.1463 0.8471 -0.0316
H16 H 1.1258 0.7553 0.0285
H17 H 0.8684 0.6301 0.1406
H18 H 0.7046 0.7441 0.1129
H19 H 0.2707 0.6645 -0.0371
H20 H 0.4140 0.6423 -0.0002
H21 H 0.3903 0.6312 -0.0904
H22 H 0.3234 0.6771 -0.1922
H23 H 0.3580 0.8657 -0.3539
H24 H 0.4170 0.9415 -0.2550
Ru1A Ru -0.56334(2) 0.463914(15) 0.538766(14)
Ru2A Ru 0.55854(2) 1.031501(14) -0.045905(14)
O2A O -0.4929(2) 0.48495(14) 0.36780(12)
O5A O -0.2867(2) 0.44185(14) 0.48000(12)
O8A O 0.28504(19) 1.05528(12) 0.01610(12)
O11A O 0.4913(2) 1.03945(13) 0.12593(12)
C45 C 0.0176(5) 1.1321(3) 0.3273(3)
C46 C -0.0022(4) 1.1776(3) 0.2568(3)
C47 C 0.0784(5) 1.1578(3) 0.1953(3)
C48 C 0.1795(4) 1.0934(3) 0.2053(3)
C49 C 0.2022(5) 1.0486(3) 0.2757(3)
C50 C 0.1200(5) 1.0679(3) 0.3383(3)
H25 H -0.0397 1.1448 0.3690
H26 H -0.0716 1.2230 0.2500
H27 H 0.0637 1.1890 0.1459
H28 H 0.2344 1.0798 0.1626
H29 H 0.2734 1.0044 0.2825
H30 H 0.1350 1.0370 0.3879
C51 C -0.2648(5) 0.4957(3) 0.2160(4)
C52 C -0.2859(5) 0.5146(3) 0.1386(4)
C53 C -0.1955(5) 0.4887(3) 0.0857(4)
C54 C -0.0808(6) 0.4411(4) 0.1102(4)
C55 C -0.0537(6) 0.4194(4) 0.1868(5)
C56 C -0.1503(6) 0.4485(4) 0.2441(4)
H31 H -0.3298 0.5153 0.2517
H32 H -0.3661 0.5469 0.1207
H33 H -0.2121 0.5037 0.0314
H34 H -0.0186 0.4228 0.0724
H35 H 0.0264 0.3859 0.2032
H36 H -0.1345 0.4353 0.2987
C57 C 0.3838(5) 0.9721(3) 0.5110(3)
C58 C 0.4587(5) 0.9517(3) 0.4472(3)
C59 C 0.5725(5) 0.9792(3) 0.4360(3)
H37 H 0.3037 0.9533 0.5189
H38 H 0.4305 0.9182 0.4110
H39 H 0.6230 0.9652 0.3916
C57A C 0.6162(5) 1.0279(3) 0.4890(3)
C58A C 0.5413(5) 1.0483(3) 0.5528(3)
C59A C 0.4275(5) 1.0208(3) 0.5640(3)
H37A H 0.6963 1.0467 0.4811
H38A H 0.5695 1.0818 0.5890
H39A H 0.3770 1.0348 0.6084
loop_
_geom_bond_atom_site_label_1
_geom_bond_atom_site_label_2
_geom_bond_site_symmetry_1
_geom_bond_site_symmetry_2
Ru1 O1 1_555 1_555
Ru2 O7 1_555 1_555
Cl1 C18 1_555 1_555
Cl2 C26 1_555 1_555
Cl3 C34 1_555 1_555
Cl4 C42 1_555 1_555
S1 N3 1_555 1_555
S2 N5 1_555 1_555
O1 C13 1_555 1_555
O2 C13 1_555 1_555
O3 C15 1_555 1_555
O4 Ru1 1_555 1_555
O5 C21 1_555 1_555
O6 C23 1_555 1_555
O7 C29 1_555 1_555
O8 C29 1_555 1_555
O9 C31 1_555 1_555
O10 Ru2 1_555 1_555
O11 C37 1_555 1_555
O12 C39 1_555 1_555
N1 Ru1 1_555 1_555
N2 C3 1_555 1_555
N3 C5 1_555 1_555
N4 S1 1_555 1_555
N5 C8 1_555 1_555
N6 S2 1_555 1_555
N7 Ru2 1_555 1_555
N8 C12 1_555 1_555
C1 N1 1_555 1_555
C2 C1 1_555 1_555
C3 C2 1_555 1_555
C4 C2 1_555 1_555
C5 C4 1_555 1_555
C6 N4 1_555 1_555
C7 C6 1_555 1_555
C8 C7 1_555 1_555
C9 N6 1_555 1_555
C10 N7 1_555 1_555
C11 C7 1_555 1_555
C12 C11 1_555 1_555
C13 C14 1_555 1_555
C14 C15 1_555 1_555
C15 C17 1_555 1_555
C16 O3 1_555 1_555
C17 C18 1_555 1_555
C18 C19 1_555 1_555
C19 C20 1_555 1_555
C20 C14 1_555 1_555
C21 O4 1_555 1_555
C22 C21 1_555 1_555
C23 C22 1_555 1_555
C24 O6 1_555 1_555
C25 C23 1_555 1_555
C26 C25 1_555 1_555
C27 C26 1_555 1_555
C28 C22 1_555 1_555
C29 C30 1_555 1_555
C30 C31 1_555 1_555
C31 C33 1_555 1_555
C32 O9 1_555 1_555
C33 C34 1_555 1_555
C34 C35 1_555 1_555
C35 C36 1_555 1_555
C36 C30 1_555 1_555
C37 O10 1_555 1_555
C38 C37 1_555 1_555
C39 C38 1_555 1_555
C40 O12 1_555 1_555
C41 C39 1_555 1_555
C42 C41 1_555 1_555
C43 C42 1_555 1_555
C44 C38 1_555 1_555
H1 C16 1_555 1_555
H2 C16 1_555 1_555
H3 C16 1_555 1_555
H4 C17 1_555 1_555
H5 C19 1_555 1_555
H6 C20 1_555 1_555
H7 C24 1_555 1_555
H8 C24 1_555 1_555
H9 C24 1_555 1_555
H10 C25 1_555 1_555
H11 C27 1_555 1_555
H12 C28 1_555 1_555
H13 C32 1_555 1_555
H14 C32 1_555 1_555
H15 C32 1_555 1_555
H16 C33 1_555 1_555
H17 C35 1_555 1_555
H18 C36 1_555 1_555
H19 C40 1_555 1_555
H20 C40 1_555 1_555
H21 C40 1_555 1_555
H22 C41 1_555 1_555
H23 C43 1_555 1_555
H24 C44 1_555 1_555
C45 C46 1_555 1_555
C46 C47 1_555 1_555
C47 C48 1_555 1_555
C48 C49 1_555 1_555
C49 C50 1_555 1_555
C50 C45 1_555 1_555
H25 C45 1_555 1_555
H26 C46 1_555 1_555
H27 C47 1_555 1_555
H28 C48 1_555 1_555
H29 C49 1_555 1_555
H30 C50 1_555 1_555
C51 C52 1_555 1_555
C52 C53 1_555 1_555
C53 C54 1_555 1_555
C54 C55 1_555 1_555
C55 C56 1_555 1_555
C56 C51 1_555 1_555
H31 C51 1_555 1_555
H32 C52 1_555 1_555
H33 C53 1_555 1_555
H34 C54 1_555 1_555
H35 C55 1_555 1_555
H36 C56 1_555 1_555
C57 C58 1_555 1_555
C58 C59 1_555 1_555
C59 H39 1_555 1_555
H37 C57 1_555 1_555
H38 C58 1_555 1_555
Ru1A Ru1 1_555 1_555
Ru2A Ru2 1_555 1_555
O2A Ru1 1_555 1_555
O5A Ru1 1_555 1_555
O8A Ru2 1_555 1_555
O11A Ru2 1_555 1_555
C57A C59 1_555 1_555
C58A C57A 1_555 1_555
C59A C57 1_555 1_555
H37A C57A 1_555 1_555
H38A C58A 1_555 1_555
H39A C59A 1_555 1_555
O2 Ru1A 1_555 1_555
O5 Ru1A 1_555 1_555
O8 Ru2A 1_555 1_555
O11 Ru2A 1_555 1_555
C4 C9 1_555 1_555
C5 C6 1_555 1_555
C8 C9 1_555 1_555
C10 C11 1_555 1_555
C27 C28 1_555 1_555
C43 C44 1_555 1_555
C58A C59A 1_555 1_555

#END
