
#######################################################################
#
#                 Cambridge Crystallographic Data Centre
#                                CCDC 
#
#######################################################################
#
# If this CIF has been generated from an entry in the Cambridge 
# Structural Database, then it will include bibliographic, chemical, 
# crystal, experimental, refinement or atomic coordinate data resulting 
# from the CCDC's data processing and validation procedures.
#
#######################################################################

data_LIWKIM
_symmetry_cell_setting           triclinic
_symmetry_space_group_name_H-M   'P -1'
_symmetry_Int_Tables_number      2
_space_group_name_Hall           '-P 1'
loop_
_symmetry_equiv_pos_site_id
_symmetry_equiv_pos_as_xyz
1 x,y,z
2 -x,-y,-z
_cell_length_a                   9.02210(10)
_cell_length_b                   9.982
_cell_length_c                   15.5387(3)
_cell_angle_alpha                104.4080(10)
_cell_angle_beta                 100.32
_cell_angle_gamma                103.7730(10)
_cell_volume                     1273.44
loop_
_atom_site_label
_atom_site_type_symbol
_atom_site_fract_x
_atom_site_fract_y
_atom_site_fract_z
Cd1 Cd 1.00009(4) 0.18199(4) 0.25941(2)
O1 O 0.7638(4) 0.1839(4) 0.1878(2)
O2 O 0.6463(5) 0.2116(6) 0.3019(3)
O3 O 1.1594(4) 0.0527(3) 0.3283(2)
O4 O 0.9582(4) -0.0695(3) 0.2093(2)
O6 O 0.9122(5) 0.1803(5) 0.3911(3)
N1 N 1.1513(5) -0.5837(4) 0.3264(3)
N2 N 1.3156(5) -0.3772(4) 0.4239(3)
H1 H 1.3939 -0.3180 0.4703
N3 N 0.0832(4) 0.1921(4) 0.1279(3)
N4 N 0.0881(5) 0.1703(4) -0.0169(3)
H2 H 0.0553 0.1632 -0.0752
C1 C 0.6473(5) 0.1952(5) 0.2201(3)
C2 C 0.5006(5) 0.1882(5) 0.1529(3)
C3 C 0.5005(6) 0.1739(6) 0.0609(3)
H3 H 0.5947 0.1703 0.0425
C4 C 0.3658(5) 0.1951(5) 0.1823(3)
H4 H 0.3640 0.2054 0.2445
C5 C 0.3689(6) 0.1647(6) -0.0043(3)
H5 H 0.3699 0.1535 -0.0667
C6 C 0.2326(5) 0.1865(5) 0.1172(3)
C7 C 0.2363(5) 0.1727(5) 0.0267(3)
C8 C 0.0028(5) 0.1809(5) 0.0457(3)
H6 H -0.1043 0.1804 0.0321
C9 C 1.0675(6) -0.0658(5) 0.2744(3)
C10 C 1.0865(6) -0.2052(5) 0.2860(3)
C11 C 0.9838(6) -0.3355(5) 0.2233(3)
H7 H 0.9053 -0.3322 0.1748
C12 C 1.2039(5) -0.2044(5) 0.3575(3)
H8 H 1.2735 -0.1165 0.4001
C13 C 0.9943(6) -0.4686(5) 0.2305(3)
H9 H 0.9239 -0.5566 0.1884
C14 C 1.2147(6) -0.3384(5) 0.3637(3)
C15 C 1.1122(6) -0.4683(5) 0.3019(3)
C16 C 1.2720(6) -0.5223(5) 0.3986(3)
H10 H 1.3235 -0.5756 0.4300
H21 H 0.941(8) 0.284(8) 0.395(5)
H22 H 0.968(9) 0.216(8) 0.443(5)
Cd1_2 Cd 1.00009(4) -0.81801(4) 0.25941(2)
Cd1_3 Cd 0.00009(4) 0.18199(4) 0.25941(2)
N1_2 N 1.1513(5) 0.4163(4) 0.3264(3)
N3_2 N 1.0832(4) 0.1921(4) 0.1279(3)
O5 O 0.4652(5) 0.2024(7) 0.4218(3)
H19 H 0.5004 0.1866 0.3645
H20 H 0.393(9) 0.144(8) 0.410(5)
N5 N 0.8390(6) 0.7133(7) 0.4467(3)
N6 N 0.2547(7) 0.6855(7) 0.0627(4)
C17 C 0.7529(9) 0.5895(8) 0.3844(4)
H11 H 0.7710 0.5027 0.3920
C18 C 0.8097(9) 0.8308(8) 0.4334(5)
H12 H 0.8676 0.9214 0.4779
C19 C 0.7004(8) 0.8306(7) 0.3591(5)
H13 H 0.6876 0.9196 0.3527
C20 C 0.6391(8) 0.5789(7) 0.3097(4)
H14 H 0.5796 0.4864 0.2680
C21 C 0.6102(6) 0.7030(6) 0.2944(4)
C22 C 0.4882(6) 0.6962(6) 0.2138(4)
C23 C 0.4392(8) 0.8143(7) 0.2061(4)
H15 H 0.4848 0.9043 0.2534
C24 C 0.4174(10) 0.5719(7) 0.1406(5)
H16 H 0.4461 0.4861 0.1399
C25 C 0.3045(12) 0.5735(9) 0.0686(6)
H17 H 0.2588 0.4864 0.0189
C26 C 0.3254(8) 0.8035(8) 0.1311(5)
H18 H 0.2960 0.8880 0.1288
loop_
_geom_bond_atom_site_label_1
_geom_bond_atom_site_label_2
_geom_bond_site_symmetry_1
_geom_bond_site_symmetry_2
Cd1 O1 1_555 1_555
O1 C1 1_555 1_555
O2 C1 1_555 1_555
O3 Cd1 1_555 1_555
O4 Cd1 1_555 1_555
O5 H19 1_555 1_555
O6 Cd1 1_555 1_555
N1 C15 1_555 1_555
N2 H1 1_555 1_555
N3 C6 1_555 1_555
N4 H2 1_555 1_555
N5 C17 1_555 1_555
N6 C25 1_555 1_555
C1 C2 1_555 1_555
C2 C3 1_555 1_555
C3 H3 1_555 1_555
C4 C2 1_555 1_555
H4 C4 1_555 1_555
C5 C3 1_555 1_555
H5 C5 1_555 1_555
C6 C4 1_555 1_555
C7 N4 1_555 1_555
C8 N3 1_555 1_555
H6 C8 1_555 1_555
C9 O3 1_555 1_555
C10 C9 1_555 1_555
C11 C10 1_555 1_555
H7 C11 1_555 1_555
C12 C10 1_555 1_555
H8 C12 1_555 1_555
C13 C11 1_555 1_555
H9 C13 1_555 1_555
C14 N2 1_555 1_555
C15 C13 1_555 1_555
C16 N1 1_555 1_555
H10 C16 1_555 1_555
C17 H11 1_555 1_555
C18 N5 1_555 1_555
H12 C18 1_555 1_555
C19 C18 1_555 1_555
H13 C19 1_555 1_555
C20 C17 1_555 1_555
H14 C20 1_555 1_555
C21 C19 1_555 1_555
C22 C21 1_555 1_555
C23 C22 1_555 1_555
H15 C23 1_555 1_555
C24 C22 1_555 1_555
H16 C24 1_555 1_555
C25 C24 1_555 1_555
H17 C25 1_555 1_555
C26 N6 1_555 1_555
H18 C26 1_555 1_555
H20 O5 1_555 1_555
H21 O6 1_555 1_555
H22 O6 1_555 1_555
Cd1_2 N1 1_555 1_555
Cd1_3 N3 1_555 1_555
N1_2 Cd1 1_555 1_555
N3_2 Cd1 1_555 1_555
O4 C9 1_555 1_555
N2 C16 1_555 1_555
N4 C8 1_555 1_555
C5 C7 1_555 1_555
C6 C7 1_555 1_555
C12 C14 1_555 1_555
C14 C15 1_555 1_555
C20 C21 1_555 1_555
C23 C26 1_555 1_555

#END
