
#######################################################################
#
#                 Cambridge Crystallographic Data Centre
#                                CCDC 
#
#######################################################################
#
# If this CIF has been generated from an entry in the Cambridge 
# Structural Database, then it will include bibliographic, chemical, 
# crystal, experimental, refinement or atomic coordinate data resulting 
# from the CCDC's data processing and validation procedures.
#
#######################################################################

data_LIWLOT
_symmetry_cell_setting           monoclinic
_symmetry_space_group_name_H-M   'P 2/c'
_symmetry_Int_Tables_number      13
_space_group_name_Hall           '-P 2yc'
loop_
_symmetry_equiv_pos_site_id
_symmetry_equiv_pos_as_xyz
1 x,y,z
2 -x,y,1/2-z
3 -x,-y,-z
4 x,-y,1/2+z
_cell_length_a                   17.001(3)
_cell_length_b                   8.7562(12)
_cell_length_c                   14.213(2)
_cell_angle_alpha                90
_cell_angle_beta                 104.981(3)
_cell_angle_gamma                90
_cell_volume                     2043.89
loop_
_atom_site_label
_atom_site_type_symbol
_atom_site_fract_x
_atom_site_fract_y
_atom_site_fract_z
Cu1 Cu 0.24912(2) 0.26349(4) 0.24516(2)
O1 O 0.28270(12) 0.3527(2) 0.13447(14)
O2 O 0.34389(15) 0.5613(3) 0.21129(15)
O3 O 0.21637(12) 0.1758(2) 0.35701(14)
O4 O 0.15435(15) -0.0347(3) 0.28244(15)
O5 O 0.25658(18) 0.5230(4) 0.33968(19)
H1 H 0.263(3) 0.6171(14) 0.341(3)
H2 H 0.2100(13) 0.538(6) 0.305(3)
O6 O 0.24197(17) 0.0101(3) 0.15372(18)
H3 H 0.208(2) -0.017(5) 0.182(3)
H4 H 0.2851(18) -0.027(6) 0.185(3)
N1 N 0.50790(15) 1.1941(3) 0.11667(18)
N2 N 0.57102(15) 1.2877(3) 0.14949(19)
N3 N 0.63499(15) 1.2038(3) 0.19271(17)
N4 N 0.61584(15) 1.0564(3) 0.18939(18)
N5 N 0.41048(14) 0.6393(3) 0.07108(16)
N6 N -0.00486(15) -0.6662(3) 0.38459(19)
N7 N -0.06818(16) -0.7595(3) 0.35376(19)
N8 N -0.13352(14) -0.6758(3) 0.31525(17)
N9 N -0.11443(15) -0.5284(3) 0.31983(18)
N10 N 0.09163(14) -0.1104(3) 0.42724(16)
C1 C 0.53700(17) 1.0542(3) 0.1416(2)
C2 C 0.49178(17) 0.9107(3) 0.1174(2)
C3 C 0.53143(19) 0.7729(3) 0.1424(2)
H5 H 0.5876 0.7716 0.1757
C4 C 0.49006(17) 0.6388(3) 0.1192(2)
H6 H 0.5175 0.5445 0.1370
C5 C 0.37029(19) 0.7713(3) 0.0449(2)
H7 H 0.3145 0.7692 0.0102
C6 C 0.40915(17) 0.9089(3) 0.0679(2)
H8 H 0.3803 1.0019 0.0505
C7 C 0.36445(19) 0.4954(3) 0.0573(2)
H9 H 0.4012 0.4094 0.0530
H10 H 0.3208 0.4994 -0.0042
C8 C 0.32713(17) 0.4701(3) 0.1429(2)
C9 C -0.03489(17) -0.5257(3) 0.3625(2)
C10 C 0.01039(17) -0.3831(3) 0.3853(2)
C11 C -0.03003(19) -0.2450(3) 0.3615(2)
H11 H -0.0868 -0.2440 0.3310
C12 C 0.01170(17) -0.1104(3) 0.3819(2)
H12 H -0.0159 -0.0163 0.3640
C13 C 0.13231(19) -0.2422(3) 0.4524(2)
H13 H 0.1886 -0.2397 0.4849
C14 C 0.09349(17) -0.3800(4) 0.4318(2)
H14 H 0.1228 -0.4725 0.4489
C15 C 0.13736(18) 0.0343(3) 0.4380(2)
H15 H 0.1822 0.0318 0.4984
H16 H 0.1008 0.1204 0.4429
C16 C 0.17208(17) 0.0575(3) 0.3503(2)
Cu1A Cu 0.75088(2) 1.26349(4) 0.25484(2)
Cu1A_2 Cu -0.24912(2) -0.73651(4) 0.25484(2)
N3A N 0.36501(15) 0.2038(3) 0.30729(17)
N8A N 0.13352(14) 0.3242(3) 0.18475(17)
loop_
_geom_bond_atom_site_label_1
_geom_bond_atom_site_label_2
_geom_bond_site_symmetry_1
_geom_bond_site_symmetry_2
Cu1 O1 1_555 1_555
O1 C8 1_555 1_555
O2 C8 1_555 1_555
O3 Cu1 1_555 1_555
O4 C16 1_555 1_555
O5 Cu1 1_555 1_555
H1 O5 1_555 1_555
H2 O5 1_555 1_555
O6 Cu1 1_555 1_555
H3 O6 1_555 1_555
H4 O6 1_555 1_555
N1 N2 1_555 1_555
N2 N3 1_555 1_555
N3 N4 1_555 1_555
N4 C1 1_555 1_555
N5 C4 1_555 1_555
N6 N7 1_555 1_555
N7 N8 1_555 1_555
N8 N9 1_555 1_555
N9 C9 1_555 1_555
N10 C12 1_555 1_555
C1 N1 1_555 1_555
C2 C1 1_555 1_555
C3 C2 1_555 1_555
H5 C3 1_555 1_555
C4 C3 1_555 1_555
H6 C4 1_555 1_555
C5 N5 1_555 1_555
H7 C5 1_555 1_555
C6 C2 1_555 1_555
H8 C6 1_555 1_555
C7 N5 1_555 1_555
H9 C7 1_555 1_555
H10 C7 1_555 1_555
C8 C7 1_555 1_555
C9 N6 1_555 1_555
C10 C9 1_555 1_555
C11 C10 1_555 1_555
H11 C11 1_555 1_555
C12 C11 1_555 1_555
H12 C12 1_555 1_555
C13 N10 1_555 1_555
H13 C13 1_555 1_555
C14 C10 1_555 1_555
H14 C14 1_555 1_555
C15 N10 1_555 1_555
H15 C15 1_555 1_555
H16 C15 1_555 1_555
C16 O3 1_555 1_555
Cu1A N3 1_555 1_555
Cu1A_2 N8 1_555 1_555
N3A Cu1 1_555 1_555
N8A Cu1 1_555 1_555
C5 C6 1_555 1_555
C13 C14 1_555 1_555
C15 C16 1_555 1_555

#END
