
#######################################################################
#
#                 Cambridge Crystallographic Data Centre
#                                CCDC 
#
#######################################################################
#
# If this CIF has been generated from an entry in the Cambridge 
# Structural Database, then it will include bibliographic, chemical, 
# crystal, experimental, refinement or atomic coordinate data resulting 
# from the CCDC's data processing and validation procedures.
#
#######################################################################

data_LIWMUA
_symmetry_cell_setting           monoclinic
_symmetry_space_group_name_H-M   'C 2/c'
_symmetry_Int_Tables_number      15
_space_group_name_Hall           '-C 2yn'
loop_
_symmetry_equiv_pos_site_id
_symmetry_equiv_pos_as_xyz
1 x,y,z
2 1/2+x,1/2+y,z
3 -x,y,1/2-z
4 1/2-x,1/2+y,1/2-z
5 -x,-y,-z
6 1/2-x,1/2-y,-z
7 x,-y,1/2+z
8 1/2+x,1/2-y,1/2+z
_cell_length_a                   14.607(3)
_cell_length_b                   10.505(2)
_cell_length_c                   10.631(2)
_cell_angle_alpha                90
_cell_angle_beta                 115.14(3)
_cell_angle_gamma                90
_cell_volume                     1476.76
loop_
_atom_site_label
_atom_site_type_symbol
_atom_site_fract_x
_atom_site_fract_y
_atom_site_fract_z
Cd1 Cd 0.0000 0.87987(4) 0.2500
S1 S -0.16760(8) 0.87215(11) -0.00816(11)
C1 C -0.1161(3) 0.9416(4) -0.0999(4)
C2 C 0.1330(4) 0.6995(5) 0.1353(5)
H1 H 0.1551 0.7791 0.1160
C3 C 0.1708(4) 0.5889(7) 0.1035(6)
H2 H 0.2171 0.5926 0.0623
C4 C 0.1399(5) 0.4754(6) 0.1327(6)
H3 H 0.1657 0.3988 0.1129
C5 C 0.0709(4) 0.4693(5) 0.1914(5)
C6 C 0.0336(5) 0.3539(5) 0.2231(7)
H4 H 0.0574 0.2749 0.2053
C7 C 0.0357(3) 0.5861(4) 0.2198(5)
N1 N -0.0808(3) 0.9876(4) -0.1671(4)
N2 N 0.0674(3) 0.6991(3) 0.1913(4)
Cd1F Cd 0.0000 1.12013(4) -0.2500
Cd1F_2 Cd 0.0000 1.12013(4) 0.7500
S1B S 0.16760(8) 0.87215(11) 0.50816(11)
C1B C 0.1161(3) 0.9416(4) 0.5999(4)
C2B C -0.1330(4) 0.6995(5) 0.3647(5)
H1B H -0.1551 0.7791 0.3840
C3B C -0.1708(4) 0.5889(7) 0.3965(6)
H2B H -0.2171 0.5926 0.4377
C4B C -0.1399(5) 0.4754(6) 0.3673(6)
H3B H -0.1657 0.3988 0.3871
C5B C -0.0709(4) 0.4693(5) 0.3086(5)
C6B C -0.0336(5) 0.3539(5) 0.2769(7)
H4B H -0.0574 0.2749 0.2947
C7B C -0.0357(3) 0.5861(4) 0.2802(5)
N1B N 0.0808(3) 0.9876(4) 0.6671(4)
N1F N -0.0808(3) 1.0124(4) 0.3329(4)
N1D N 0.0808(3) 1.0124(4) 0.1671(4)
N2B N -0.0674(3) 0.6991(3) 0.3087(4)
loop_
_geom_bond_atom_site_label_1
_geom_bond_atom_site_label_2
_geom_bond_site_symmetry_1
_geom_bond_site_symmetry_2
Cd1 S1 1_555 1_555
S1 C1 1_555 1_555
C1 N1 1_555 1_555
C2 H1 1_555 1_555
C3 C2 1_555 1_555
H2 C3 1_555 1_555
C4 C3 1_555 1_555
H3 C4 1_555 1_555
C5 C4 1_555 1_555
C6 C5 1_555 1_555
H4 C6 1_555 1_555
C7 C5 1_555 1_555
N1 Cd1F 1_555 1_555
N2 Cd1 1_555 1_555
Cd1F_2 N1B 1_555 1_555
S1B Cd1 1_555 1_555
C1B S1B 1_555 1_555
C2B H1B 1_555 1_555
C3B C2B 1_555 1_555
H2B C3B 1_555 1_555
C4B C3B 1_555 1_555
H3B C4B 1_555 1_555
C5B C4B 1_555 1_555
C6B C6 1_555 1_555
H4B C6B 1_555 1_555
C7B C7 1_555 1_555
N1B C1B 1_555 1_555
N1F Cd1 1_555 1_555
N1D Cd1 1_555 1_555
N2B Cd1 1_555 1_555
C2 N2 1_555 1_555
C7 N2 1_555 1_555
C2B N2B 1_555 1_555
C5B C6B 1_555 1_555
C5B C7B 1_555 1_555
C7B N2B 1_555 1_555

#END
