
#######################################################################
#
#                 Cambridge Crystallographic Data Centre
#                                CCDC 
#
#######################################################################
#
# If this CIF has been generated from an entry in the Cambridge 
# Structural Database, then it will include bibliographic, chemical, 
# crystal, experimental, refinement or atomic coordinate data resulting 
# from the CCDC's data processing and validation procedures.
#
#######################################################################

data_LIWPUE
_symmetry_cell_setting           orthorhombic
_symmetry_space_group_name_H-M   'P b c a'
_symmetry_Int_Tables_number      61
_space_group_name_Hall           '-P 2ac 2ab'
loop_
_symmetry_equiv_pos_site_id
_symmetry_equiv_pos_as_xyz
1 x,y,z
2 1/2-x,-y,1/2+z
3 -x,1/2+y,1/2-z
4 1/2+x,1/2-y,-z
5 -x,-y,-z
6 1/2+x,y,1/2-z
7 x,1/2-y,1/2+z
8 1/2-x,1/2+y,z
_cell_length_a                   21.339(12)
_cell_length_b                   10.199(6)
_cell_length_c                   22.162(12)
_cell_angle_alpha                90
_cell_angle_beta                 90
_cell_angle_gamma                90
_cell_volume                     4823.26
loop_
_atom_site_label
_atom_site_type_symbol
_atom_site_fract_x
_atom_site_fract_y
_atom_site_fract_z
Zn1 Zn 0.09031(4) 0.55178(7) 0.42828(4)
O1 O 0.0893(2) 0.6980(4) 0.4873(2)
O2 O 0.0871(3) 1.3983(4) 0.4820(2)
O3 O 0.1001(3) 0.8065(4) 0.4017(2)
C1 C 0.0924(3) 0.8044(6) 0.4565(4)
N1 N 0.0133(3) 0.5568(5) 0.3749(2)
N2 N -0.3277(3) 0.5466(5) 0.1186(3)
C2 C 0.0876(3) 1.0463(5) 0.4590(3)
H1 H 0.0924 1.0447 0.4172
O4 O 0.0824(3) 1.2857(4) 0.3967(3)
C3 C 0.0820(3) 1.1654(6) 0.4885(3)
C4 C 0.0860(3) 0.9309(5) 0.4906(3)
C5 C -0.0976(4) 0.5673(8) 0.3084(4)
C6 C -0.0892(5) 0.4836(7) 0.3553(4)
H2 H -0.1217 0.4270 0.3654
C7 C 0.0686(4) 1.0537(7) 0.5804(4)
C8 C 0.0757(4) 0.9342(7) 0.5509(4)
H3 H 0.0733 0.8564 0.5726
C9 C -0.3179(4) 0.4623(7) 0.1629(4)
H4 H -0.3503 0.4064 0.1740
C10 C -0.2140(4) 0.5359(7) 0.1775(4)
C11 C -0.1575(4) 0.5812(8) 0.2732(4)
H5 H -0.1892 0.5277 0.2938
C12 C -0.2243(4) 0.6243(8) 0.1321(4)
H6 H -0.1928 0.6819 0.1205
C13 C -0.0363(4) 0.4787(7) 0.3876(3)
H7 H -0.0335 0.4202 0.4197
C14 C 0.0732(4) 1.1693(6) 0.5491(4)
H8 H 0.0703 1.2492 0.5691
C15 C 0.0068(4) 0.6403(7) 0.3297(3)
H9 H 0.0402 0.6950 0.3201
C16 C -0.2806(4) 0.6271(7) 0.1045(4)
H10 H -0.2869 0.6884 0.0740
C17 C -0.1513(4) 0.5290(8) 0.2110(4)
H11 H -0.1229 0.5886 0.1897
C18 C -0.2611(4) 0.4537(8) 0.1935(4)
H12 H -0.2555 0.3929 0.2243
C19 C -0.0477(4) 0.6496(7) 0.2958(3)
H13 H -0.0508 0.7109 0.2649
C20 C 0.1055(9) 0.8901(10) 0.6925(5)
O5 O 0.0553(4) 1.0678(5) 0.6401(3)
O6 O -0.1800(4) 0.7065(8) 0.2712(4)
H14 H -0.1920 0.7284 0.3049
C21 C 0.0827(4) 1.2899(6) 0.4517(4)
C22 C 0.0447(7) 0.9536(10) 0.6755(4)
H15 H 0.0193 0.8919 0.6529
H16 H 0.0220 0.9773 0.7118
C23 C 0.1530(8) 0.8376(12) 0.7030(6)
H17 H 0.1908 0.7959 0.7113
O7 O -0.1247(3) 0.4110(6) 0.2090(3)
H18 H -0.1194 0.3894 0.1737
Zn1_2 Zn 0.09031(4) 1.55178(7) 0.42828(4)
Zn1E Zn -0.40969(4) 0.55178(7) 0.07172(4)
O2_2 O 0.0871(3) 0.3983(4) 0.4820(2)
N2E N 0.1723(3) 0.5466(5) 0.3814(3)
O8 O 0.2794(10) 1.677(2) 0.6292(11)
O9 O 0.2196(9) 1.3870(19) 0.5479(8)
loop_
_geom_bond_atom_site_label_1
_geom_bond_atom_site_label_2
_geom_bond_site_symmetry_1
_geom_bond_site_symmetry_2
Zn1 O1 1_555 1_555
O1 C1 1_555 1_555
O2 C21 1_555 1_555
O3 C1 1_555 1_555
C1 C4 1_555 1_555
N1 Zn1 1_555 1_555
N2 C9 1_555 1_555
C2 H1 1_555 1_555
O4 C21 1_555 1_555
C3 C2 1_555 1_555
C4 C2 1_555 1_555
C5 C6 1_555 1_555
C6 H2 1_555 1_555
C7 C8 1_555 1_555
C8 C4 1_555 1_555
H3 C8 1_555 1_555
C9 H4 1_555 1_555
C10 C12 1_555 1_555
C11 C5 1_555 1_555
H5 C11 1_555 1_555
C12 H6 1_555 1_555
C13 N1 1_555 1_555
H7 C13 1_555 1_555
C14 C3 1_555 1_555
H8 C14 1_555 1_555
C15 N1 1_555 1_555
H9 C15 1_555 1_555
C16 N2 1_555 1_555
H10 C16 1_555 1_555
C17 C10 1_555 1_555
H11 C17 1_555 1_555
C18 C9 1_555 1_555
H12 C18 1_555 1_555
C19 C5 1_555 1_555
H13 C19 1_555 1_555
C20 C22 1_555 1_555
O5 C7 1_555 1_555
O6 C11 1_555 1_555
H14 O6 1_555 1_555
C21 C3 1_555 1_555
C22 O5 1_555 1_555
H15 C22 1_555 1_555
H16 C22 1_555 1_555
C23 C20 1_555 1_555
H17 C23 1_555 1_555
O7 C17 1_555 1_555
H18 O7 1_555 1_555
Zn1_2 O2 1_555 1_555
Zn1E N2 1_555 1_555
O2_2 Zn1 1_555 1_555
N2E Zn1 1_555 1_555
C6 C13 1_555 1_555
C7 C14 1_555 1_555
C10 C18 1_555 1_555
C11 C17 1_555 1_555
C12 C16 1_555 1_555
C15 C19 1_555 1_555

#END
