
#######################################################################
#
#                 Cambridge Crystallographic Data Centre
#                                CCDC 
#
#######################################################################
#
# If this CIF has been generated from an entry in the Cambridge 
# Structural Database, then it will include bibliographic, chemical, 
# crystal, experimental, refinement or atomic coordinate data resulting 
# from the CCDC's data processing and validation procedures.
#
#######################################################################

data_LIWQOX
_symmetry_cell_setting           monoclinic
_symmetry_space_group_name_H-M   'P 21/n'
_symmetry_Int_Tables_number      14
_space_group_name_Hall           '-P 2yn'
loop_
_symmetry_equiv_pos_site_id
_symmetry_equiv_pos_as_xyz
1 x,y,z
2 1/2-x,1/2+y,1/2-z
3 -x,-y,-z
4 1/2+x,1/2-y,1/2+z
_cell_length_a                   9.628(3)
_cell_length_b                   16.439(4)
_cell_length_c                   16.256(2)
_cell_angle_alpha                90
_cell_angle_beta                 102.78(2)
_cell_angle_gamma                90
_cell_volume                     2509.17
loop_
_atom_site_label
_atom_site_type_symbol
_atom_site_fract_x
_atom_site_fract_y
_atom_site_fract_z
Tb1 Tb 0.02043(4) 0.23024(3) 0.25799(3)
O1 O 0.0458(7) 0.3363(4) 0.1710(4)
C1 C 0.1049(9) 0.3552(6) 0.1082(6)
C2 C 0.143(1) 0.2964(7) 0.0567(7)
C3 C 0.207(1) 0.3188(7) -0.0089(7)
C4 C 0.232(1) 0.4011(8) -0.0245(7)
C5 C 0.195(1) 0.4607(7) 0.0273(7)
C6 C 0.1287(9) 0.4378(6) 0.0938(6)
C7 C 0.089(1) 0.5007(6) 0.1405(7)
N1 N 0.0235(7) 0.4914(5) 0.2037(5)
C8 C -0.018(1) 0.5604(6) 0.2503(7)
C9 C 0.0661(9) 0.5586(6) 0.3413(6)
N2 N 0.2213(7) 0.5616(5) 0.3469(5)
C10 C 0.302(1) 0.4989(6) 0.3724(6)
C11 C 0.5304(9) 0.5718(6) 0.3747(6)
C12 C 0.681(1) 0.5673(6) 0.3982(7)
C13 C 0.749(1) 0.4955(7) 0.4274(7)
C14 C 0.670(1) 0.4240(6) 0.4336(7)
C15 C 0.525(1) 0.4266(6) 0.4151(7)
C16 C 0.4531(9) 0.4995(6) 0.3853(6)
O2 O 0.4652(6) 0.6375(4) 0.3444(4)
N3 N -0.0054(8) 0.0760(5) 0.3402(6)
O3 O 0.1119(7) 0.1100(4) 0.3440(5)
O4 O -0.016(1) 0.0136(5) 0.3777(6)
O5 O -0.1137(6) 0.1128(4) 0.2963(5)
N4 N -0.0143(7) 0.3273(5) 0.4025(5)
O6 O -0.0306(7) 0.2521(4) 0.3961(5)
O7 O 0.0026(8) 0.3661(5) 0.4685(5)
O8 O -0.0104(7) 0.3641(4) 0.3326(5)
N5 N 0.3262(7) 0.2427(5) 0.3192(6)
O9 O 0.2415(7) 0.2771(4) 0.3574(5)
O10 O 0.4530(8) 0.2383(5) 0.3500(6)
O11 O 0.2742(6) 0.2127(4) 0.2495(4)
S1 S -0.2867(3) 0.3376(2) 0.1682(2)
O12 O -0.2153(7) 0.2581(4) 0.1993(5)
C17 C -0.462(1) 0.326(1) 0.183(1)
C18 C -0.324(2) 0.333(1) 0.0572(9)
O2A O 0.0348(6) 0.1375(4) 0.1556(4)
Tb1A Tb 0.47957(4) 0.73024(3) 0.24201(3)
loop_
_geom_bond_atom_site_label_1
_geom_bond_atom_site_label_2
_geom_bond_site_symmetry_1
_geom_bond_site_symmetry_2
Tb1 O1 1_555 1_555
O1 C1 1_555 1_555
C1 C2 1_555 1_555
C2 C3 1_555 1_555
C3 C4 1_555 1_555
C4 C5 1_555 1_555
C5 C6 1_555 1_555
C6 C1 1_555 1_555
C7 C6 1_555 1_555
N1 C7 1_555 1_555
C8 N1 1_555 1_555
C9 C8 1_555 1_555
N2 C9 1_555 1_555
C10 N2 1_555 1_555
C11 C12 1_555 1_555
C12 C13 1_555 1_555
C13 C14 1_555 1_555
C14 C15 1_555 1_555
C15 C16 1_555 1_555
C16 C10 1_555 1_555
O2 C11 1_555 1_555
N3 O3 1_555 1_555
O3 Tb1 1_555 1_555
O4 N3 1_555 1_555
O5 Tb1 1_555 1_555
N4 O6 1_555 1_555
O6 Tb1 1_555 1_555
O7 N4 1_555 1_555
O8 Tb1 1_555 1_555
N5 O9 1_555 1_555
O9 Tb1 1_555 1_555
O10 N5 1_555 1_555
O11 Tb1 1_555 1_555
S1 O12 1_555 1_555
O12 Tb1 1_555 1_555
C17 S1 1_555 1_555
C18 S1 1_555 1_555
O2A Tb1 1_555 1_555
Tb1A O2 1_555 1_555
C11 C16 1_555 1_555
N3 O5 1_555 1_555
N4 O8 1_555 1_555
N5 O11 1_555 1_555

#END
