
#######################################################################
#
#                 Cambridge Crystallographic Data Centre
#                                CCDC 
#
#######################################################################
#
# If this CIF has been generated from an entry in the Cambridge 
# Structural Database, then it will include bibliographic, chemical, 
# crystal, experimental, refinement or atomic coordinate data resulting 
# from the CCDC's data processing and validation procedures.
#
#######################################################################

data_LIWSUG
_symmetry_cell_setting           triclinic
_symmetry_space_group_name_H-M   'P -1'
_symmetry_Int_Tables_number      2
_space_group_name_Hall           '-P 1'
loop_
_symmetry_equiv_pos_site_id
_symmetry_equiv_pos_as_xyz
1 x,y,z
2 -x,-y,-z
_cell_length_a                   6.6913(6)
_cell_length_b                   7.0362(7)
_cell_length_c                   8.2446(8)
_cell_angle_alpha                96.388(7)
_cell_angle_beta                 96.859(7)
_cell_angle_gamma                94.316(6)
_cell_volume                     381.451
loop_
_atom_site_label
_atom_site_type_symbol
_atom_site_fract_x
_atom_site_fract_y
_atom_site_fract_z
Ni1 Ni 1.0000 0.5000 0.5000
O1 O 0.8401(2) 0.3154(2) 0.31465(19)
O2 O 0.5561(2) 0.4573(2) 0.2724(2)
O3 O 0.8019(3) 0.4204(3) 0.6615(2)
O4 O 0.8249(2) 0.7155(2) 0.4363(2)
C1 C 0.6624(3) 0.3208(3) 0.2449(2)
C2 C 0.5779(3) 0.1540(3) 0.1195(2)
C3 C 0.6820(3) -0.0076(3) 0.0945(3)
H1 H 0.8053 -0.0138 0.1581
C4 C 0.3931(3) 0.1588(3) 0.0222(3)
H2 H 0.3201 0.2654 0.0366
C5 C 0.7662(4) 0.8686(3) 0.5423(3)
H3 H 0.8543 0.8856 0.6446
H4 H 0.6296 0.8392 0.5627
H5 H 0.7747 0.9846 0.4913
C6 C 0.8484(5) 0.3367(5) 0.8060(3)
H6 H 0.9672 0.2693 0.7985
H7 H 0.7373 0.2482 0.8202
H8 H 0.8727 0.4350 0.8983
H9 H 0.735(5) 0.657(4) 0.389(4)
H10 H 0.710(4) 0.467(4) 0.668(4)
Ni1_2 Ni 0.0000 -0.5000 -0.5000
O1A O 0.1599(2) -0.3154(2) -0.31465(19)
O1A_2 O 1.1599(2) 0.6846(2) 0.68535(19)
O2A O 0.4439(2) -0.4573(2) -0.2724(2)
O3A O 1.1981(3) 0.5796(3) 0.3385(2)
O4A O 1.1751(2) 0.2845(2) 0.5637(2)
C1A C 0.3376(3) -0.3208(3) -0.2449(2)
C2A C 0.4221(3) -0.1540(3) -0.1195(2)
C3A C 0.3180(3) 0.0076(3) -0.0945(3)
H1A H 0.1947 0.0138 -0.1581
C4A C 0.6069(3) -0.1588(3) -0.0222(3)
H2A H 0.6799 -0.2654 -0.0366
C5A C 1.2338(4) 0.1314(3) 0.4577(3)
H3A H 1.1457 0.1144 0.3554
H4A H 1.3704 0.1608 0.4373
H5A H 1.2253 0.0154 0.5087
C6A C 1.1516(5) 0.6633(5) 0.1940(3)
H6A H 1.0328 0.7307 0.2015
H7A H 1.2627 0.7518 0.1798
H8A H 1.1273 0.5650 0.1017
H9A H 1.265(5) 0.343(4) 0.611(4)
H10A H 1.290(4) 0.533(4) 0.332(4)
loop_
_geom_bond_atom_site_label_1
_geom_bond_atom_site_label_2
_geom_bond_site_symmetry_1
_geom_bond_site_symmetry_2
Ni1 O1 1_555 1_555
O1 C1 1_555 1_555
O2 C1 1_555 1_555
O3 Ni1 1_555 1_555
O4 Ni1 1_555 1_555
C1 C2 1_555 1_555
C2 C3 1_555 1_555
C3 H1 1_555 1_555
C4 C2 1_555 1_555
H2 C4 1_555 1_555
C5 O4 1_555 1_555
H3 C5 1_555 1_555
H4 C5 1_555 1_555
H5 C5 1_555 1_555
C6 O3 1_555 1_555
H6 C6 1_555 1_555
H7 C6 1_555 1_555
H8 C6 1_555 1_555
H9 O4 1_555 1_555
H10 O3 1_555 1_555
Ni1_2 O1A 1_555 1_555
O1A C1A 1_555 1_555
O1A_2 Ni1 1_555 1_555
O2A C1A 1_555 1_555
O3A Ni1 1_555 1_555
O4A Ni1 1_555 1_555
C1A C2A 1_555 1_555
C2A C3A 1_555 1_555
C3A C4 1_555 1_555
H1A C3A 1_555 1_555
C4A C3 1_555 1_555
H2A C4A 1_555 1_555
C5A O4A 1_555 1_555
H3A C5A 1_555 1_555
H4A C5A 1_555 1_555
H5A C5A 1_555 1_555
C6A O3A 1_555 1_555
H6A C6A 1_555 1_555
H7A C6A 1_555 1_555
H8A C6A 1_555 1_555
H9A O4A 1_555 1_555
H10A O3A 1_555 1_555
C2A C4A 1_555 1_555

#END
