
#######################################################################
#
#                 Cambridge Crystallographic Data Centre
#                                CCDC 
#
#######################################################################
#
# If this CIF has been generated from an entry in the Cambridge 
# Structural Database, then it will include bibliographic, chemical, 
# crystal, experimental, refinement or atomic coordinate data resulting 
# from the CCDC's data processing and validation procedures.
#
#######################################################################

data_LIWVOE
_symmetry_cell_setting           monoclinic
_symmetry_space_group_name_H-M   'C c'
_symmetry_Int_Tables_number      9
_space_group_name_Hall           'C -2yc'
loop_
_symmetry_equiv_pos_site_id
_symmetry_equiv_pos_as_xyz
1 x,y,z
2 x,-y,1/2+z
3 1/2+x,1/2+y,z
4 1/2+x,1/2-y,1/2+z
_cell_length_a                   8.9469(2)
_cell_length_b                   23.6973(6)
_cell_length_c                   7.3859(2)
_cell_angle_alpha                90
_cell_angle_beta                 108.400(2)
_cell_angle_gamma                90
_cell_volume                     1485.88
loop_
_atom_site_label
_atom_site_type_symbol
_atom_site_fract_x
_atom_site_fract_y
_atom_site_fract_z
Ag1 Ag 1.04772(4) 0.321142(15) 1.39524(4)
Ag2 Ag 0.49372(6) 0.506994(17) 0.71678(7)
S1 S 0.76689(16) 0.29120(5) 1.02657(16)
N1 N 0.9119(4) 0.38699(15) 1.1618(5)
N2 N 0.6939(5) 0.45479(16) 0.8995(6)
N3 N 0.7210(4) 0.22076(14) 0.7444(5)
N4 N 0.9090(5) 0.27536(15) 0.5619(6)
N5 N 0.2094(5) 0.54640(17) 0.4426(6)
N6 N 0.5576(6) 0.62228(19) 0.9048(8)
O1 O 0.0892(5) 0.57091(15) 0.3376(6)
O2 O 0.3438(5) 0.56322(17) 0.4452(6)
O3 O 0.2000(5) 0.50591(16) 0.5419(6)
O4 O 0.4583(6) 0.58740(18) 0.9266(7)
O5 O 0.6567(7) 0.6053(2) 0.8328(10)
O6 O 0.5549(6) 0.67156(18) 0.9597(8)
O7 O 1.2740(6) 0.35956(18) 1.6215(6)
C1 C 0.7918(5) 0.36502(18) 1.0219(6)
C2 C 0.6847(6) 0.3991(2) 0.8922(7)
H1 H 0.6033 0.3823 0.7963
C3 C 0.8152(6) 0.47719(19) 1.0382(7)
H2 H 0.8276 0.5162 1.0462
C4 C 0.9224(6) 0.44309(19) 1.1696(7)
H3 H 1.0037 0.4599 1.2656
C5 C 0.7939(5) 0.26931(17) 0.8096(6)
C6 C 0.8870(5) 0.29670(18) 0.7188(7)
H4 H 0.9351 0.3306 0.7681
C7 C 0.8390(6) 0.22584(18) 0.4999(7)
H5 H 0.8528 0.2094 0.3920
C8 C 0.7487(6) 0.19909(19) 0.5902(7)
H6 H 0.7044 0.1644 0.5436
H7 H 1.3067 0.3893 1.5719
H8 H 1.2341 0.3803 1.6969
Ag1_2 Ag 1.04772(4) 0.321142(15) 0.39524(4)
Ag1C Ag 0.54772(4) 0.178858(15) 0.89524(4)
N3C N 1.2210(4) 0.27924(14) 1.2444(5)
N4_2 N 0.9090(5) 0.27536(15) 1.5619(6)
loop_
_geom_bond_atom_site_label_1
_geom_bond_atom_site_label_2
_geom_bond_site_symmetry_1
_geom_bond_site_symmetry_2
Ag1 N1 1_555 1_555
Ag2 N2 1_555 1_555
S1 C1 1_555 1_555
N1 C1 1_555 1_555
N2 C2 1_555 1_555
N3 C5 1_555 1_555
N4 C6 1_555 1_555
N5 O1 1_555 1_555
N6 O4 1_555 1_555
O2 Ag2 1_555 1_555
O3 Ag2 1_555 1_555
O4 Ag2 1_555 1_555
O5 N6 1_555 1_555
O6 N6 1_555 1_555
O7 Ag1 1_555 1_555
C1 C2 1_555 1_555
C2 H1 1_555 1_555
C3 N2 1_555 1_555
H2 C3 1_555 1_555
C4 N1 1_555 1_555
H3 C4 1_555 1_555
C5 S1 1_555 1_555
C6 C5 1_555 1_555
H4 C6 1_555 1_555
C7 N4 1_555 1_555
H5 C7 1_555 1_555
C8 N3 1_555 1_555
H6 C8 1_555 1_555
H7 O7 1_555 1_555
H8 O7 1_555 1_555
Ag1_2 N4 1_555 1_555
Ag1C N3 1_555 1_555
N3C Ag1 1_555 1_555
N4_2 Ag1 1_555 1_555
N5 O2 1_555 1_555
N5 O3 1_555 1_555
C3 C4 1_555 1_555
C7 C8 1_555 1_555

#END
