
#######################################################################
#
#                 Cambridge Crystallographic Data Centre
#                                CCDC 
#
#######################################################################
#
# If this CIF has been generated from an entry in the Cambridge 
# Structural Database, then it will include bibliographic, chemical, 
# crystal, experimental, refinement or atomic coordinate data resulting 
# from the CCDC's data processing and validation procedures.
#
#######################################################################

data_LIWWIY
_symmetry_cell_setting           triclinic
_symmetry_space_group_name_H-M   'P -1'
_symmetry_Int_Tables_number      2
_space_group_name_Hall           '-P 1'
loop_
_symmetry_equiv_pos_site_id
_symmetry_equiv_pos_as_xyz
1 x,y,z
2 -x,-y,-z
_cell_length_a                   9.6535(3)
_cell_length_b                   10.8471(3)
_cell_length_c                   12.1151(3)
_cell_angle_alpha                80.068(2)
_cell_angle_beta                 82.5150(10)
_cell_angle_gamma                85.153(2)
_cell_volume                     1236.44
loop_
_atom_site_label
_atom_site_type_symbol
_atom_site_fract_x
_atom_site_fract_y
_atom_site_fract_z
Ag1 Ag 0.06005(3) 0.35819(3) 0.00574(3)
Mo1 Mo 0.33492(3) 0.54507(3) -0.18223(2)
Mo2 Mo 0.41452(3) 0.24309(3) -0.13270(2)
Mo3 Mo 0.65186(3) 0.43819(3) -0.07695(2)
Mo4 Mo 0.57498(3) 0.73516(3) -0.13234(2)
O1 O 0.1624(2) 0.5117(2) -0.1347(2)
O2 O 0.2374(3) 0.2273(2) -0.1020(2)
O3 O 0.8257(2) 0.4634(2) -0.1029(2)
O4 O 0.7534(2) 0.7428(2) -0.1572(2)
O5 O 0.3299(3) 0.6519(2) -0.3017(2)
O6 O 0.4721(3) 0.1344(3) -0.2159(2)
O7 O 0.6296(2) 0.3128(2) -0.14552(19)
O8 O 0.5126(3) 0.8317(2) -0.2426(2)
O9 O 0.4017(2) 0.3974(2) -0.23964(19)
O10 O 0.3562(2) 0.6601(2) -0.07437(19)
O11 O 0.4700(2) 0.1711(2) 0.0125(2)
O12 O 0.5703(2) 0.5691(2) -0.18483(18)
O13 O 0.4102(2) 0.4196(2) -0.02459(18)
N1 N -0.0548(3) 0.2040(3) 0.1141(3)
C1 C -0.1144(4) 0.1350(4) 0.1815(4)
C2 C -0.1925(5) 0.0480(5) 0.2675(5)
H1 H -0.2871 0.0851 0.2856
H2 H -0.1447 0.0307 0.3356
H3 H -0.1984 -0.0305 0.2390
Ag1A Ag -0.06005(3) 0.64181(3) -0.00574(3)
Mo3A Mo 0.34814(3) 0.56181(3) 0.07695(2)
Mo4A Mo 0.42502(3) 0.26484(3) 0.13234(2)
O10A O 0.6438(2) 0.3399(2) 0.07437(19)
O11A O 0.5300(2) 0.8289(2) -0.0125(2)
O13A O 0.5898(2) 0.5804(2) 0.02459(18)
Ag2 Ag 0.92453(3) 0.67802(3) 0.29004(2)
O14 O 0.7588(3) 0.7776(3) 0.4440(2)
H4 H 0.8043 0.7792 0.4983
O15 O 1.0929(3) 0.2690(3) 0.3719(2)
H5 H 1.1329 0.2441 0.3131
N2 N 1.0506(3) 0.8084(3) 0.1809(3)
N3 N 0.8405(3) 0.5271(3) 0.4176(2)
C3 C 1.1266(4) 0.8769(4) 0.1312(3)
C4 C 1.2231(5) 0.9662(4) 0.0672(4)
H6 H 1.2793 0.9282 0.0069
H7 H 1.2850 0.9890 0.1174
H8 H 1.1701 1.0415 0.0341
C5 C 0.6593(4) 0.6839(4) 0.4757(3)
H9 H 0.5943 0.6935 0.4176
H10 H 0.6037 0.6972 0.5478
C6 C 0.7261(4) 0.5521(4) 0.4894(3)
C7 C 0.6721(4) 0.4589(4) 0.5737(3)
H11 H 0.5907 0.4770 0.6228
C8 C 0.7368(4) 0.3403(4) 0.5859(3)
H12 H 0.7013 0.2763 0.6439
C9 C 0.8545(4) 0.3150(4) 0.5126(3)
H13 H 0.9014 0.2339 0.5199
C10 C 0.9023(3) 0.4108(4) 0.4285(3)
C11 C 1.0261(4) 0.3898(4) 0.3429(3)
H14 H 0.9944 0.3977 0.2674
H15 H 1.0935 0.4546 0.3397
N4 N 0.1510(11) 0.9983(6) 0.3442(7)
C12 C 0.2498(10) 0.9835(6) 0.3867(6)
C13 C 0.3703(10) 0.9608(7) 0.4449(6)
H16 H 0.3782 1.0311 0.4844
H17 H 0.4539 0.9526 0.3907
H18 H 0.3621 0.8833 0.4997
loop_
_geom_bond_atom_site_label_1
_geom_bond_atom_site_label_2
_geom_bond_site_symmetry_1
_geom_bond_site_symmetry_2
Ag1 O1 1_555 1_555
Mo1 O1 1_555 1_555
Mo2 O2 1_555 1_555
Mo3 O3 1_555 1_555
Mo4 O4 1_555 1_555
O2 Ag1 1_555 1_555
O5 Mo1 1_555 1_555
O6 Mo2 1_555 1_555
O7 Mo2 1_555 1_555
O8 Mo4 1_555 1_555
O9 Mo1 1_555 1_555
O10 Mo1 1_555 1_555
O11 Mo2 1_555 1_555
O12 Mo1 1_555 1_555
O13 Mo1 1_555 1_555
N1 Ag1 1_555 1_555
C1 N1 1_555 1_555
C2 C1 1_555 1_555
H1 C2 1_555 1_555
H2 C2 1_555 1_555
H3 C2 1_555 1_555
Ag2 O14 1_555 1_555
O14 H4 1_555 1_555
O15 H5 1_555 1_555
N2 Ag2 1_555 1_555
N3 Ag2 1_555 1_555
C3 N2 1_555 1_555
C4 C3 1_555 1_555
H6 C4 1_555 1_555
H7 C4 1_555 1_555
H8 C4 1_555 1_555
C5 O14 1_555 1_555
H9 C5 1_555 1_555
H10 C5 1_555 1_555
C6 N3 1_555 1_555
C7 C6 1_555 1_555
H11 C7 1_555 1_555
C8 C7 1_555 1_555
H12 C8 1_555 1_555
C9 C8 1_555 1_555
H13 C9 1_555 1_555
C10 N3 1_555 1_555
C11 O15 1_555 1_555
H14 C11 1_555 1_555
H15 C11 1_555 1_555
N4 C12 1_555 1_555
C12 C13 1_555 1_555
C13 H16 1_555 1_555
H17 C13 1_555 1_555
H18 C13 1_555 1_555
Ag1A Ag1 1_555 1_555
Mo3A O10 1_555 1_555
Mo4A O11 1_555 1_555
O10A Mo3 1_555 1_555
O11A Mo4 1_555 1_555
O13A Mo3 1_555 1_555
Mo2 O9 1_555 1_555
Mo2 O13 1_555 1_555
Mo3 O7 1_555 1_555
Mo3 O12 1_555 1_555
Mo3 O13 1_555 1_555
Mo4 O10 1_555 1_555
Mo4 O12 1_555 1_555
Mo4 O13A 1_555 1_555
O13 Mo3A 1_555 1_555
O13 Mo4A 1_555 1_555
C5 C6 1_555 1_555
C9 C10 1_555 1_555
C10 C11 1_555 1_555
Mo3A O13A 1_555 1_555
Mo4A O10A 1_555 1_555

#END
