
#######################################################################
#
#                 Cambridge Crystallographic Data Centre
#                                CCDC 
#
#######################################################################
#
# If this CIF has been generated from an entry in the Cambridge 
# Structural Database, then it will include bibliographic, chemical, 
# crystal, experimental, refinement or atomic coordinate data resulting 
# from the CCDC's data processing and validation procedures.
#
#######################################################################

data_LIWXOF
_symmetry_cell_setting           monoclinic
_symmetry_space_group_name_H-M   'P 21/n'
_symmetry_Int_Tables_number      14
_space_group_name_Hall           '-P 2yn'
loop_
_symmetry_equiv_pos_site_id
_symmetry_equiv_pos_as_xyz
1 x,y,z
2 1/2-x,1/2+y,1/2-z
3 -x,-y,-z
4 1/2+x,1/2-y,1/2+z
_cell_length_a                   10.9080(5)
_cell_length_b                   24.5190(7)
_cell_length_c                   14.7000(11)
_cell_angle_alpha                90
_cell_angle_beta                 95.9690(10)
_cell_angle_gamma                90
_cell_volume                     3910.25
loop_
_atom_site_label
_atom_site_type_symbol
_atom_site_fract_x
_atom_site_fract_y
_atom_site_fract_z
Zn1 Zn 0.49623(3) 0.195953(12) 0.45328(2)
Zn2 Zn 0.74945(3) 0.085302(13) 0.131515(19)
C1 C 0.7926(3) 0.09621(11) 0.31523(17)
C2 C 0.8708(2) 0.09460(10) 0.40619(16)
C3 C 0.9942(3) 0.07909(11) 0.40768(17)
H1 H 1.0275 0.0738 0.3526
C4 C 1.0671(3) 0.07157(11) 0.48778(17)
H2 H 1.1486 0.0606 0.4871
C5 C 1.0185(2) 0.08038(10) 0.57107(15)
C6 C 0.8967(2) 0.09767(10) 0.57051(16)
H3 H 0.8647 0.1042 0.6257
C7 C 0.8220(2) 0.10529(9) 0.48869(16)
C8 C 0.6913(2) 0.12452(10) 0.49385(16)
C9 C 1.0954(2) 0.06643(10) 0.65673(16)
C10 C 0.9848(2) 0.14240(10) 0.85914(15)
C11 C 1.0206(2) 0.13223(10) 0.77294(15)
H4 H 1.0224 0.1607 0.7314
C12 C 1.0537(2) 0.08025(10) 0.74776(15)
C13 C 1.0514(3) 0.03765(10) 0.80994(16)
H5 H 1.0773 0.0030 0.7949
C14 C 1.0108(3) 0.04719(11) 0.89366(17)
H6 H 1.0057 0.0182 0.9339
C15 C 0.9772(2) 0.09868(10) 0.91966(16)
C16 C 0.9288(3) 0.10719(11) 1.01089(17)
C17 C 0.9470(3) 0.19914(10) 0.88387(16)
C18 C 0.5355(3) 0.16521(16) 1.1313(2)
H7 H 0.5016 0.1481 1.1793
C19 C 0.4925(4) 0.21101(17) 1.0884(3)
H8 H 0.4239 0.2310 1.1015
C20 C 0.6532(3) 0.18367(11) 1.02778(19)
H9 H 0.7164 0.1819 0.9900
C21 C 0.5627(4) 0.27090(13) 0.9615(2)
H10 H 0.6463 0.2834 0.9572
H11 H 0.5190 0.3000 0.9891
C22 C 0.5013(3) 0.26099(14) 0.8657(2)
H12 H 0.5084 0.2937 0.8297
H13 H 0.5449 0.2320 0.8378
C23 C 0.3689(3) 0.24588(14) 0.8627(2)
H14 H 0.3318 0.2669 0.9086
H15 H 0.3631 0.2077 0.8788
C24 C 0.2937(3) 0.25527(13) 0.76883(19)
H16 H 0.2075 0.2476 0.7743
H17 H 0.3001 0.2933 0.7520
C25 C 0.3213(3) 0.16582(12) 0.68627(19)
H18 H 0.2846 0.1426 0.7255
C26 C 0.3924(3) 0.23808(11) 0.62505(19)
H19 H 0.4128 0.2743 0.6151
C27 C 0.3705(3) 0.15145(11) 0.60996(19)
H20 H 0.3732 0.1162 0.5870
C28 C 0.3863(3) 0.09533(11) 0.3703(2)
H21 H 0.4408 0.0745 0.4088
C29 C 0.2950(3) 0.16303(13) 0.3016(2)
H22 H 0.2739 0.1985 0.2840
C30 C 0.2395(3) 0.11768(13) 0.2655(2)
H23 H 0.1745 0.1160 0.2193
C31 C 0.2764(3) 0.01639(12) 0.2949(2)
H24 H 0.1944 0.0073 0.3100
H25 H 0.3352 -0.0044 0.3352
C32 C 0.2882(3) 0.00023(12) 0.19661(19)
H26 H 0.3549 0.0208 0.1743
H27 H 0.2126 0.0097 0.1592
C33 C 0.3132(3) -0.06074(12) 0.1865(2)
H28 H 0.2550 -0.0810 0.2189
H29 H 0.2986 -0.0704 0.1223
C34 C 0.4426(3) -0.07801(12) 0.2222(2)
H30 H 0.4574 -0.0692 0.2867
H31 H 0.4504 -0.1172 0.2157
C35 C 0.5698(3) -0.06482(14) 0.0889(2)
H32 H 0.5463 -0.0959 0.0553
C36 C 0.6451(3) -0.02464(14) 0.0645(2)
H33 H 0.6828 -0.0236 0.0107
C37 C 0.5905(3) -0.00344(11) 0.19521(19)
H34 H 0.5828 0.0149 0.2497
N1 N 0.6571(2) 0.01442(10) 0.13189(15)
N2 N 0.5351(2) -0.05076(9) 0.17259(16)
N3 N 0.2984(2) 0.07447(9) 0.31064(16)
N4 N 0.3868(2) 0.14915(9) 0.36807(15)
N5 N 0.6378(2) 0.14794(10) 1.09235(15)
N6 N 0.5673(2) 0.22284(10) 1.02268(16)
N7 N 0.3353(2) 0.22103(9) 0.69549(14)
N8 N 0.4165(2) 0.19726(9) 0.57082(15)
O1 O 0.8365(2) 0.21002(8) 0.88349(15)
O2 O 0.9635(2) 0.14565(8) 1.05976(13)
O3 O 0.84997(19) 0.07146(8) 1.03037(12)
O4 O 0.66984(17) 0.17370(7) 0.46798(12)
O5 O 0.61614(19) 0.09379(8) 0.52350(14)
O6 O 1.19113(18) 0.04058(8) 0.65541(12)
O7 O 0.67984(19) 0.09539(9) 0.31173(12)
O8 O 0.85329(18) 0.09635(8) 0.24511(11)
O9 O 1.03414(19) 0.23272(7) 0.90169(13)
Zn1C Zn 0.99623(3) 0.304047(12) 0.95328(2)
Zn2_2 Zn 0.74945(3) 0.085302(13) 1.131515(19)
N5_2 N 0.6378(2) 0.14794(10) 0.09235(15)
O3_2 O 0.84997(19) 0.07146(8) 0.03037(12)
O9C O 0.53414(19) 0.26728(7) 0.40169(13)
O10 O 0.6111(3) 0.98752(9) 0.4484(2)
H35 H 0.673(5) 0.990(3) 0.417(5)
H36 H 0.611(7) 1.0180(16) 0.476(5)
O11 O 0.6833(4) 0.28426(16) 0.5831(3)
H37 H 0.615(4) 0.303(3) 0.576(6)
H38 H 0.732(6) 0.306(3) 0.556(6)
O12 O 0.2240(7) 0.31297(18) 0.1995(4)
H39 H 0.243(10) 0.284(2) 0.172(5)
H40 H 0.236(9) 0.304(3) 0.2564(14)
loop_
_geom_bond_atom_site_label_1
_geom_bond_atom_site_label_2
_geom_bond_site_symmetry_1
_geom_bond_site_symmetry_2
Zn1 N4 1_555 1_555
Zn2 N1 1_555 1_555
C1 C2 1_555 1_555
C2 C3 1_555 1_555
C3 H1 1_555 1_555
C4 C3 1_555 1_555
H2 C4 1_555 1_555
C5 C4 1_555 1_555
C6 C5 1_555 1_555
H3 C6 1_555 1_555
C7 C2 1_555 1_555
C8 C7 1_555 1_555
C9 C5 1_555 1_555
C10 C11 1_555 1_555
C11 H4 1_555 1_555
C12 C9 1_555 1_555
C13 C12 1_555 1_555
H5 C13 1_555 1_555
C14 C13 1_555 1_555
H6 C14 1_555 1_555
C15 C10 1_555 1_555
C16 C15 1_555 1_555
C17 C10 1_555 1_555
C18 H7 1_555 1_555
C19 C18 1_555 1_555
H8 C19 1_555 1_555
C20 H9 1_555 1_555
C21 H10 1_555 1_555
H11 C21 1_555 1_555
C22 C21 1_555 1_555
H12 C22 1_555 1_555
H13 C22 1_555 1_555
C23 C22 1_555 1_555
H14 C23 1_555 1_555
H15 C23 1_555 1_555
C24 C23 1_555 1_555
H16 C24 1_555 1_555
H17 C24 1_555 1_555
C25 H18 1_555 1_555
C26 H19 1_555 1_555
C27 C25 1_555 1_555
H20 C27 1_555 1_555
C28 H21 1_555 1_555
C29 H22 1_555 1_555
C30 C29 1_555 1_555
H23 C30 1_555 1_555
C31 H24 1_555 1_555
H25 C31 1_555 1_555
C32 C31 1_555 1_555
H26 C32 1_555 1_555
H27 C32 1_555 1_555
C33 C32 1_555 1_555
H28 C33 1_555 1_555
H29 C33 1_555 1_555
C34 C33 1_555 1_555
H30 C34 1_555 1_555
H31 C34 1_555 1_555
C35 H32 1_555 1_555
C36 C35 1_555 1_555
H33 C36 1_555 1_555
C37 H34 1_555 1_555
N1 C36 1_555 1_555
N2 C34 1_555 1_555
N3 C28 1_555 1_555
N4 C28 1_555 1_555
N5 C18 1_555 1_555
N6 C19 1_555 1_555
N7 C24 1_555 1_555
N8 Zn1 1_555 1_555
O1 C17 1_555 1_555
O2 C16 1_555 1_555
O3 C16 1_555 1_555
O4 Zn1 1_555 1_555
O5 C8 1_555 1_555
O6 C9 1_555 1_555
O7 C1 1_555 1_555
O8 Zn2 1_555 1_555
O9 C17 1_555 1_555
O10 H35 1_555 1_555
O11 H37 1_555 1_555
O12 H39 1_555 1_555
H36 O10 1_555 1_555
H38 O11 1_555 1_555
H40 O12 1_555 1_555
Zn1C O9 1_555 1_555
Zn2_2 N5 1_555 1_555
N5_2 Zn2 1_555 1_555
O3_2 Zn2 1_555 1_555
O9C Zn1 1_555 1_555
C1 O8 1_555 1_555
C6 C7 1_555 1_555
C8 O4 1_555 1_555
C11 C12 1_555 1_555
C14 C15 1_555 1_555
C20 N5 1_555 1_555
C20 N6 1_555 1_555
C21 N6 1_555 1_555
C25 N7 1_555 1_555
C26 N7 1_555 1_555
C26 N8 1_555 1_555
C27 N8 1_555 1_555
C29 N4 1_555 1_555
C30 N3 1_555 1_555
C31 N3 1_555 1_555
C35 N2 1_555 1_555
C37 N1 1_555 1_555
C37 N2 1_555 1_555
O3 Zn2_2 1_555 1_555

#END
