
#######################################################################
#
#                 Cambridge Crystallographic Data Centre
#                                CCDC 
#
#######################################################################
#
# If this CIF has been generated from an entry in the Cambridge 
# Structural Database, then it will include bibliographic, chemical, 
# crystal, experimental, refinement or atomic coordinate data resulting 
# from the CCDC's data processing and validation procedures.
#
#######################################################################

data_LIWXUL
_symmetry_cell_setting           triclinic
_symmetry_space_group_name_H-M   'P -1'
_symmetry_Int_Tables_number      2
_space_group_name_Hall           '-P 1'
loop_
_symmetry_equiv_pos_site_id
_symmetry_equiv_pos_as_xyz
1 x,y,z
2 -x,-y,-z
_cell_length_a                   10.6480(8)
_cell_length_b                   11.7180(9)
_cell_length_c                   13.6380(10)
_cell_angle_alpha                74.2110(10)
_cell_angle_beta                 72.8770(10)
_cell_angle_gamma                80.5940(10)
_cell_volume                     1558.44
loop_
_atom_site_label
_atom_site_type_symbol
_atom_site_fract_x
_atom_site_fract_y
_atom_site_fract_z
Zn1 Zn 0.5000 0.0000 1.0000
Zn2 Zn 0.34607(2) 0.16379(2) 0.78823(2)
Zn3 Zn 0.38926(3) -0.14979(2) 0.87517(2)
C1 C 0.3865(3) 0.1358(3) 0.5702(2)
H1 H 0.4775 0.1310 0.5591
C2 C 0.3242(3) 0.1314(3) 0.4989(2)
H2 H 0.3634 0.1236 0.4302
C3 C 0.1760(3) 0.1511(2) 0.6466(2)
C4 C 0.0468(3) 0.1651(3) 0.7242(2)
H3 H -0.0043 0.2341 0.6926
H4 H 0.0628 0.1820 0.7851
C5 C -0.0372(3) 0.0594(4) 0.7633(3)
H5 H -0.1179 0.0782 0.8129
H6 H 0.0106 -0.0093 0.7970
H7 H -0.0569 0.0431 0.7044
C6 C 0.0846(4) 0.1325(3) 0.5019(3)
H8 H 0.1057 0.1742 0.4279
H9 H 0.0033 0.1714 0.5378
C7 C 0.0644(3) 0.0044(3) 0.5116(3)
H10 H 0.0636 -0.0417 0.5826
H11 H 0.1374 -0.0291 0.4627
C8 C 0.3056(3) -0.1689(2) 0.68771(19)
H12 H 0.2664 -0.0911 0.6784
C9 C 0.3076(3) -0.2452(2) 0.6284(2)
H13 H 0.2716 -0.2297 0.5712
C10 C 0.4108(2) -0.3347(2) 0.75092(17)
C11 C 0.4817(2) -0.4293(2) 0.8182(2)
H14 H 0.5291 -0.3917 0.8500
H15 H 0.5462 -0.4751 0.7737
C12 C 0.3917(3) -0.5137(3) 0.9054(2)
H16 H 0.4435 -0.5722 0.9454
H17 H 0.3457 -0.5527 0.8748
H18 H 0.3290 -0.4695 0.9512
C13 C 0.3962(3) -0.4586(2) 0.6295(2)
H19 H 0.3132 -0.4773 0.6244
H20 H 0.4278 -0.5245 0.6797
C14 C 0.4955(2) -0.4459(2) 0.52225(19)
H21 H 0.5815 -0.4373 0.5288
H22 H 0.4695 -0.3747 0.4738
C15 C 0.7260(2) 0.3114(2) 0.80296(17)
C16 C 0.7074(2) 0.3035(2) 0.70756(18)
C17 C 0.7719(2) 0.3756(2) 0.61376(18)
H23 H 0.7585 0.3709 0.5507
C18 C 0.8562(2) 0.4547(2) 0.61197(18)
H24 H 0.8994 0.5023 0.5481
C19 C 0.8759(2) 0.4626(2) 0.70605(18)
C20 C 0.8094(2) 0.3925(2) 0.80082(18)
H25 H 0.8206 0.3997 0.8639
C21 C 0.6638(2) 0.2313(2) 0.90718(18)
C22 C 0.6090(2) 0.2257(2) 0.70462(18)
C23 C 0.9786(2) 0.5369(2) 0.70408(19)
C24 C 0.9504(2) 0.6001(2) 0.79039(18)
C25 C 1.0444(2) 0.6003(2) 0.8425(2)
H26 H 1.1270 0.5591 0.8249
C26 C 1.0141(2) 0.6624(2) 0.9209(2)
H27 H 1.0761 0.6608 0.9572
C27 C 0.8293(2) 0.6646(2) 0.81506(19)
H28 H 0.7663 0.6632 0.7806
N1 N 0.37065(19) -0.22448(17) 0.76390(15)
N2 N 0.3731(2) -0.34956(17) 0.66912(15)
N3 N 0.2941(2) 0.14849(18) 0.66256(16)
N4 N 0.1915(2) 0.1405(2) 0.54744(19)
O1 O 0.64719(19) 0.13608(19) 0.66989(18)
O2 O 0.49043(16) 0.26681(15) 0.73600(14)
O3 O 0.61922(18) 0.13999(15) 0.90654(13)
O4 O 1.08034(19) 0.5449(2) 0.63449(16)
O5 O 0.43707(16) 0.01376(14) 0.85443(13)
H29 H 0.505(3) 0.019(3) 0.817(2)
C28 C 0.7997(2) 0.7317(2) 0.89018(18)
C29 C 0.8924(2) 0.7270(2) 0.94598(18)
C30 C 0.8631(2) 0.7900(2) 1.03435(19)
C31 C 0.6717(2) 0.8091(2) 0.90398(19)
O6 O 0.65644(17) 0.88515(16) 0.95649(15)
O7 O 0.77813(17) 0.74769(16) 1.11780(14)
O8 O 0.59137(18) 0.79311(17) 0.85845(17)
O9 O 0.9274(2) 0.87373(19) 1.02129(17)
O10 O 0.6652(2) 0.26292(16) 0.98796(13)
O11 O 0.18600(19) -0.06741(19) 0.90043(18)
H30 H 0.158(4) -0.006(3) 0.919(3)
H31 H 0.125(4) -0.106(3) 0.923(3)
Zn1_2 Zn 0.5000 1.0000 1.0000
Zn1_3 Zn 0.5000 -1.0000 1.0000
Zn2A Zn 0.65393(2) -0.16379(2) 1.21177(2)
Zn2A_2 Zn 0.65393(2) 0.83621(2) 1.21177(2)
Zn2A_3 Zn -0.34607(2) -0.16379(2) 0.21177(2)
Zn2_2 Zn 0.34607(2) -0.83621(2) 0.78823(2)
Zn3A Zn 0.61074(3) 0.14979(2) 1.12483(2)
Zn3_2 Zn 0.38926(3) 0.85021(2) 0.87517(2)
Zn3A_2 Zn 0.61074(3) -0.85021(2) 0.12483(2)
Zn3A_3 Zn 0.61074(3) -0.85021(2) 1.12483(2)
C1A C -0.3865(3) -0.1358(3) 0.4298(2)
H1A H -0.4775 -0.1310 0.4409
C2A C -0.3242(3) -0.1314(3) 0.5011(2)
H2A H -0.3634 -0.1236 0.5698
C3A C -0.1760(3) -0.1511(2) 0.3534(2)
C4A C -0.0468(3) -0.1651(3) 0.2758(2)
H3A H 0.0043 -0.2341 0.3074
H4A H -0.0628 -0.1820 0.2149
C5A C 0.0372(3) -0.0594(4) 0.2367(3)
H5A H 0.1179 -0.0782 0.1871
H6A H -0.0106 0.0093 0.2030
H7A H 0.0569 -0.0431 0.2956
C6A C -0.0846(4) -0.1325(3) 0.4981(3)
H8A H -0.1057 -0.1742 0.5721
H9A H -0.0033 -0.1714 0.4622
C7A C -0.0644(3) -0.0044(3) 0.4884(3)
H10A H -0.0636 0.0417 0.4174
H11A H -0.1374 0.0291 0.5373
C8A C 0.6944(3) -0.8311(2) 0.31229(19)
H12A H 0.7336 -0.9089 0.3216
C9A C 0.6924(3) -0.7548(2) 0.3716(2)
H13A H 0.7284 -0.7703 0.4288
C10A C 0.5892(2) -0.6653(2) 0.24908(17)
C11A C 0.5183(2) -0.5707(2) 0.1818(2)
H14A H 0.4709 -0.6083 0.1500
H15A H 0.4538 -0.5249 0.2263
C12A C 0.6083(3) -0.4863(3) 0.0946(2)
H16A H 0.5565 -0.4278 0.0546
H17A H 0.6543 -0.4473 0.1252
H18A H 0.6710 -0.5305 0.0488
C13A C 0.6038(3) -0.5414(2) 0.3705(2)
H19A H 0.6868 -0.5227 0.3756
H20A H 0.5722 -0.4755 0.3203
C14A C 0.5045(2) -0.5541(2) 0.47775(19)
H21A H 0.4185 -0.5627 0.4712
H22A H 0.5305 -0.6253 0.5262
C15A C 0.2740(2) -0.3114(2) 1.19704(17)
C16A C 0.2926(2) -0.3035(2) 1.29244(18)
C17A C 0.2281(2) -0.3756(2) 1.38624(18)
H23A H 0.2415 -0.3709 1.4493
C18A C 0.1438(2) -0.4547(2) 1.38803(18)
H24A H 0.1006 -0.5023 1.4519
C19A C 0.1241(2) -0.4626(2) 1.29395(18)
C20A C 0.1906(2) -0.3925(2) 1.19918(18)
H25A H 0.1794 -0.3997 1.1361
C21A C 0.3362(2) -0.2313(2) 1.09282(18)
C22A C 0.3910(2) -0.2257(2) 1.29538(18)
C23A C 0.0214(2) -0.5369(2) 1.29592(19)
C24A C 0.0496(2) -0.6001(2) 1.20961(18)
C25A C -0.0444(2) -0.6003(2) 1.1575(2)
H26A H -0.1270 -0.5591 1.1751
C26A C -0.0141(2) -0.6624(2) 1.0791(2)
H27A H -0.0761 -0.6608 1.0428
C27A C 0.1707(2) -0.6646(2) 1.18494(19)
H28A H 0.2337 -0.6632 1.2194
N1A N 0.62935(19) -0.77552(17) 0.23610(15)
N1A_2 N 0.62935(19) 0.22448(17) 1.23610(15)
N2A N 0.6269(2) -0.65044(17) 0.33088(15)
N3A N -0.2941(2) -0.14849(18) 0.33744(16)
N3A_2 N 0.7059(2) -0.14849(18) 1.33744(16)
N4A N -0.1915(2) -0.1405(2) 0.45256(19)
O1A O 0.35281(19) -0.13608(19) 1.33011(18)
O2A O 0.50957(16) -0.26681(15) 1.26400(14)
O3A O 0.38078(18) -0.13999(15) 1.09346(13)
O4A O -0.08034(19) -0.5449(2) 1.36551(16)
O5A O 0.56293(16) -0.01376(14) 1.14557(13)
H29A H 0.495(3) -0.019(3) 1.183(2)
C28A C 0.2003(2) -0.7317(2) 1.10982(18)
C29A C 0.1076(2) -0.7270(2) 1.05402(18)
C30A C 0.1369(2) -0.7900(2) 0.96565(19)
C31A C 0.3283(2) -0.8091(2) 1.09602(19)
O6A O 0.34356(17) -0.88515(16) 1.04351(15)
O6_2 O 0.65644(17) -0.11485(16) 0.95649(15)
O6A_2 O 0.34356(17) 0.11485(16) 1.04351(15)
O7A O 0.22187(17) -0.74769(16) 0.88220(14)
O7A_2 O 0.22187(17) 0.25231(16) 0.88220(14)
O7_2 O 0.77813(17) -0.25231(16) 1.11780(14)
O8A O 0.40863(18) -0.79311(17) 1.14155(17)
O8_2 O 0.59137(18) -0.20689(17) 0.85845(17)
O8A_2 O 0.40863(18) 0.20689(17) 1.14155(17)
O9A O 0.0726(2) -0.87373(19) 0.97871(17)
O10A O 0.3348(2) -0.26292(16) 1.01204(13)
O11A O 0.81400(19) 0.06741(19) 1.09957(18)
H30A H 0.842(4) 0.006(3) 1.081(3)
H31A H 0.875(4) 0.106(3) 1.077(3)
loop_
_geom_bond_atom_site_label_1
_geom_bond_atom_site_label_2
_geom_bond_site_symmetry_1
_geom_bond_site_symmetry_2
Zn1 O3 1_555 1_555
Zn2 N3 1_555 1_555
Zn3 N1 1_555 1_555
C1 H1 1_555 1_555
C2 C1 1_555 1_555
H2 C2 1_555 1_555
C3 C4 1_555 1_555
C4 H3 1_555 1_555
H4 C4 1_555 1_555
C5 C4 1_555 1_555
H5 C5 1_555 1_555
H6 C5 1_555 1_555
H7 C5 1_555 1_555
C6 H8 1_555 1_555
H9 C6 1_555 1_555
C7 C6 1_555 1_555
H10 C7 1_555 1_555
H11 C7 1_555 1_555
C8 H12 1_555 1_555
C9 C8 1_555 1_555
H13 C9 1_555 1_555
C10 C11 1_555 1_555
C11 H14 1_555 1_555
H15 C11 1_555 1_555
C12 C11 1_555 1_555
H16 C12 1_555 1_555
H17 C12 1_555 1_555
H18 C12 1_555 1_555
C13 H19 1_555 1_555
H20 C13 1_555 1_555
C14 C13 1_555 1_555
H21 C14 1_555 1_555
H22 C14 1_555 1_555
C15 C16 1_555 1_555
C16 C17 1_555 1_555
C17 H23 1_555 1_555
C18 C17 1_555 1_555
H24 C18 1_555 1_555
C19 C18 1_555 1_555
C20 C15 1_555 1_555
H25 C20 1_555 1_555
C21 C15 1_555 1_555
C22 C16 1_555 1_555
C23 C19 1_555 1_555
C24 C23 1_555 1_555
C25 C24 1_555 1_555
H26 C25 1_555 1_555
C26 C25 1_555 1_555
H27 C26 1_555 1_555
C27 C24 1_555 1_555
H28 C27 1_555 1_555
N1 C8 1_555 1_555
N2 C9 1_555 1_555
N3 C1 1_555 1_555
N4 C2 1_555 1_555
O1 C22 1_555 1_555
O2 Zn2 1_555 1_555
O3 C21 1_555 1_555
O4 C23 1_555 1_555
O5 Zn1 1_555 1_555
H29 O5 1_555 1_555
C28 C27 1_555 1_555
C29 C26 1_555 1_555
C30 C29 1_555 1_555
C31 C28 1_555 1_555
O6 C31 1_555 1_555
O7 C30 1_555 1_555
O8 C31 1_555 1_555
O9 C30 1_555 1_555
O10 C21 1_555 1_555
O11 Zn3 1_555 1_555
H30 O11 1_555 1_555
H31 O11 1_555 1_555
Zn1_2 O6 1_555 1_555
Zn1_3 O6A 1_555 1_555
Zn2A N3A_2 1_555 1_555
Zn2A_2 O7 1_555 1_555
Zn2A_3 N3A 1_555 1_555
Zn2_2 O7A 1_555 1_555
Zn3A O10 1_555 1_555
Zn3_2 O8 1_555 1_555
Zn3A_2 N1A 1_555 1_555
Zn3A_3 O8A 1_555 1_555
C1A H1A 1_555 1_555
C2A C1A 1_555 1_555
H2A C2A 1_555 1_555
C3A C4A 1_555 1_555
C4A H3A 1_555 1_555
H4A C4A 1_555 1_555
C5A C4A 1_555 1_555
H5A C5A 1_555 1_555
H6A C5A 1_555 1_555
H7A C5A 1_555 1_555
C6A H8A 1_555 1_555
H9A C6A 1_555 1_555
C7A C7 1_555 1_555
H10A C7A 1_555 1_555
H11A C7A 1_555 1_555
C8A H12A 1_555 1_555
C9A C8A 1_555 1_555
H13A C9A 1_555 1_555
C10A C11A 1_555 1_555
C11A H14A 1_555 1_555
H15A C11A 1_555 1_555
C12A C11A 1_555 1_555
H16A C12A 1_555 1_555
H17A C12A 1_555 1_555
H18A C12A 1_555 1_555
C13A H19A 1_555 1_555
H20A C13A 1_555 1_555
C14A C14 1_555 1_555
H21A C14A 1_555 1_555
H22A C14A 1_555 1_555
C15A C16A 1_555 1_555
C16A C17A 1_555 1_555
C17A H23A 1_555 1_555
C18A C17A 1_555 1_555
H24A C18A 1_555 1_555
C19A C18A 1_555 1_555
C20A C15A 1_555 1_555
H25A C20A 1_555 1_555
C21A C15A 1_555 1_555
C22A C16A 1_555 1_555
C23A C19A 1_555 1_555
C24A C23A 1_555 1_555
C25A C24A 1_555 1_555
H26A C25A 1_555 1_555
C26A C25A 1_555 1_555
H27A C26A 1_555 1_555
C27A C24A 1_555 1_555
H28A C27A 1_555 1_555
N1A C8A 1_555 1_555
N1A_2 Zn3A 1_555 1_555
N2A C9A 1_555 1_555
N3A C1A 1_555 1_555
N4A C2A 1_555 1_555
O1A C22A 1_555 1_555
O2A Zn2A 1_555 1_555
O3A Zn1 1_555 1_555
O4A C23A 1_555 1_555
O5A Zn1 1_555 1_555
H29A O5A 1_555 1_555
C28A C27A 1_555 1_555
C29A C26A 1_555 1_555
C30A C29A 1_555 1_555
C31A C28A 1_555 1_555
O6A C31A 1_555 1_555
O6_2 Zn1 1_555 1_555
O6A_2 Zn1 1_555 1_555
O7A C30A 1_555 1_555
O7A_2 Zn2 1_555 1_555
O7_2 Zn2A 1_555 1_555
O8A C31A 1_555 1_555
O8_2 Zn3 1_555 1_555
O8A_2 Zn3A 1_555 1_555
O9A C30A 1_555 1_555
O10A Zn3 1_555 1_555
O11A Zn3A 1_555 1_555
H30A O11A 1_555 1_555
H31A O11A 1_555 1_555
Zn2 O5 1_555 1_555
Zn3 O5 1_555 1_555
C3 N3 1_555 1_555
C3 N4 1_555 1_555
C6 N4 1_555 1_555
C10 N1 1_555 1_555
C10 N2 1_555 1_555
C13 N2 1_555 1_555
C19 C20 1_555 1_555
C22 O2 1_555 1_555
C28 C29 1_555 1_555
Zn2A O5A 1_555 1_555
Zn3A O5A 1_555 1_555
C3A N3A 1_555 1_555
C3A N4A 1_555 1_555
C6A C7A 1_555 1_555
C6A N4A 1_555 1_555
C10A N1A 1_555 1_555
C10A N2A 1_555 1_555
C13A C14A 1_555 1_555
C13A N2A 1_555 1_555
C19A C20A 1_555 1_555
C21A O3A 1_555 1_555
C21A O10A 1_555 1_555
C22A O2A 1_555 1_555
C28A C29A 1_555 1_555

#END
