
#######################################################################
#
#                 Cambridge Crystallographic Data Centre
#                                CCDC 
#
#######################################################################
#
# If this CIF has been generated from an entry in the Cambridge 
# Structural Database, then it will include bibliographic, chemical, 
# crystal, experimental, refinement or atomic coordinate data resulting 
# from the CCDC's data processing and validation procedures.
#
#######################################################################

data_LIWXEV
_symmetry_cell_setting           monoclinic
_symmetry_space_group_name_H-M   'C 2/c'
_symmetry_Int_Tables_number      15
_space_group_name_Hall           '-C 2yn'
loop_
_symmetry_equiv_pos_site_id
_symmetry_equiv_pos_as_xyz
1 x,y,z
2 1/2+x,1/2+y,z
3 -x,y,1/2-z
4 1/2-x,1/2+y,1/2-z
5 -x,-y,-z
6 1/2-x,1/2-y,-z
7 x,-y,1/2+z
8 1/2+x,1/2-y,1/2+z
_cell_length_a                   33.0540(12)
_cell_length_b                   5.845(3)
_cell_length_c                   20.702(4)
_cell_angle_alpha                90
_cell_angle_beta                 121.116(3)
_cell_angle_gamma                90
_cell_volume                     3424.18
loop_
_atom_site_label
_atom_site_type_symbol
_atom_site_fract_x
_atom_site_fract_y
_atom_site_fract_z
Zn1 Zn 0.747261(12) -0.21524(7) 0.58218(2)
C1 C 0.5000 0.4419(9) 0.2500
C2 C 0.54594(11) 0.3152(6) 0.2919(2)
C3 C 0.55043(11) 0.1103(6) 0.3288(2)
H1 H 0.5239 0.0412 0.3249
C4 C 0.59466(11) 0.0081(6) 0.3718(2)
H2 H 0.5977 -0.1268 0.3977
C5 C 0.63425(10) 0.1058(6) 0.37617(17)
C6 C 0.62993(10) 0.3105(6) 0.33823(18)
C7 C 0.58604(11) 0.4144(6) 0.2973(2)
H3 H 0.5832 0.5524 0.2729
C8 C 0.67180(11) 0.4298(6) 0.34184(19)
C9 C 0.68016(11) -0.0240(6) 0.41619(19)
C10 C 0.72800(13) 0.0467(7) 0.6898(2)
H4 H 0.7547 0.1386 0.7085
C11 C 0.69329(14) 0.0739(8) 0.7049(2)
H5 H 0.6914 0.1857 0.7352
C12 C 0.67701(13) -0.2186(7) 0.6297(2)
H6 H 0.6614 -0.3439 0.5991
C13 C 0.61567(15) -0.1219(10) 0.6609(3)
H7 H 0.6202 -0.1146 0.7110
H8 H 0.6025 -0.2706 0.6397
C14 C 0.58142(13) 0.0622(8) 0.6122(2)
C15 C 0.5810(2) 0.1553(14) 0.5511(4)
H9 H 0.6027 0.1031 0.5387
C16 C 0.5493(2) 0.3247(14) 0.5074(3)
H10 H 0.5501 0.3833 0.4663
C17 C 0.51695(14) 0.4071(9) 0.5236(2)
C18 C 0.51844(19) 0.3201(11) 0.5858(4)
H11 H 0.4977 0.3776 0.5996
C19 C 0.54971(18) 0.1491(11) 0.6293(3)
H12 H 0.5491 0.0926 0.6708
N1 N 0.71805(9) -0.1369(5) 0.64252(16)
N2 N 0.66123(10) -0.0969(6) 0.66643(18)
O1 O 0.69399(8) -0.0923(5) 0.48179(14)
O2 O 0.69975(9) -0.0608(4) 0.37929(15)
O3 O 0.70930(7) 0.4483(4) 0.40805(13)
O4 O 0.66755(9) 0.5074(5) 0.28336(15)
O5 O 0.5000 0.6498(7) 0.2500
O6 O 0.70418(12) -0.5418(5) 0.53750(17)
H13 H 0.7128(18) -0.677(4) 0.560(2)
H14 H 0.6987(17) -0.570(8) 0.4916(11)
Zn1D Zn 0.252739(12) 1.21524(7) 0.41782(2)
Zn1E Zn 0.752739(12) -0.28476(7) 0.41782(2)
Zn1E_2 Zn 0.752739(12) 0.71524(7) 0.41782(2)
Zn1G Zn 0.247261(12) 0.71524(7) 0.08218(2)
Zn1B Zn 0.252739(12) -0.21524(7) -0.08218(2)
Zn1G_2 Zn 0.247261(12) -0.28476(7) 0.08218(2)
C2B C 0.45406(11) 0.3152(6) 0.2081(2)
C3B C 0.44957(11) 0.1103(6) 0.1712(2)
H1B H 0.4761 0.0412 0.1751
C4B C 0.40534(11) 0.0081(6) 0.1282(2)
H2B H 0.4023 -0.1268 0.1023
C5B C 0.36575(10) 0.1058(6) 0.12383(17)
C6B C 0.37007(10) 0.3105(6) 0.16177(18)
C7B C 0.41396(11) 0.4144(6) 0.2027(2)
H3B H 0.4168 0.5524 0.2271
C8B C 0.32820(11) 0.4298(6) 0.15816(19)
C9B C 0.31984(11) -0.0240(6) 0.08381(19)
C10D C 0.27200(13) 0.9533(7) 0.3102(2)
H4D H 0.2453 0.8614 0.2915
C11D C 0.30671(14) 0.9261(8) 0.2951(2)
H5D H 0.3086 0.8143 0.2648
C12D C 0.32299(13) 1.2186(7) 0.3703(2)
H6D H 0.3386 1.3439 0.4009
C13D C 0.38433(15) 1.1219(10) 0.3391(3)
H7D H 0.3798 1.1146 0.2890
H8D H 0.3975 1.2706 0.3603
C14D C 0.41858(13) 0.9378(8) 0.3878(2)
C15D C 0.4190(2) 0.8447(14) 0.4489(4)
H9D H 0.3973 0.8969 0.4613
C16D C 0.4507(2) 0.6753(14) 0.4926(3)
H10D H 0.4499 0.6167 0.5337
C17D C 0.48305(14) 0.5929(9) 0.4764(2)
C18D C 0.48156(19) 0.6799(11) 0.4142(4)
H11D H 0.5023 0.6224 0.4004
C19D C 0.45029(18) 0.8509(11) 0.3707(3)
H12D H 0.4509 0.9074 0.3292
N1D N 0.28195(9) 1.1369(5) 0.35748(16)
N2D N 0.33877(10) 1.0969(6) 0.33357(18)
O1B O 0.30601(8) -0.0923(5) 0.01821(14)
O1D O 0.30601(8) 1.0923(5) 0.51821(14)
O2B O 0.30025(9) -0.0608(4) 0.12071(15)
O2E O 0.80025(9) -0.4392(4) 0.62071(15)
O2A O 0.19975(9) 1.4392(4) 0.37929(15)
O3B O 0.29070(7) 0.4483(4) 0.09195(13)
O3E O 0.79070(7) 0.0517(4) 0.59195(13)
O3A O 0.20930(7) 0.9483(4) 0.40805(13)
O4B O 0.33245(9) 0.5074(5) 0.21664(15)
O6D O 0.29582(12) 1.5418(5) 0.46250(17)
H13D H 0.2872(18) 1.677(4) 0.440(2)
H14D H 0.3013(17) 1.570(8) 0.5084(11)
loop_
_geom_bond_atom_site_label_1
_geom_bond_atom_site_label_2
_geom_bond_site_symmetry_1
_geom_bond_site_symmetry_2
Zn1 N1 1_555 1_555
C1 C2 1_555 1_555
C2 C3 1_555 1_555
C3 H1 1_555 1_555
C4 C3 1_555 1_555
H2 C4 1_555 1_555
C5 C4 1_555 1_555
C6 C5 1_555 1_555
C7 C2 1_555 1_555
H3 C7 1_555 1_555
C8 C6 1_555 1_555
C9 C5 1_555 1_555
C10 H4 1_555 1_555
C11 C10 1_555 1_555
H5 C11 1_555 1_555
C12 H6 1_555 1_555
C13 H7 1_555 1_555
H8 C13 1_555 1_555
C14 C13 1_555 1_555
C15 C14 1_555 1_555
H9 C15 1_555 1_555
C16 C15 1_555 1_555
H10 C16 1_555 1_555
C17 C16 1_555 1_555
C18 C17 1_555 1_555
H11 C18 1_555 1_555
C19 C14 1_555 1_555
H12 C19 1_555 1_555
N1 C10 1_555 1_555
N2 C11 1_555 1_555
O1 Zn1 1_555 1_555
O2 C9 1_555 1_555
O3 C8 1_555 1_555
O4 C8 1_555 1_555
O5 C1 1_555 1_555
O6 Zn1 1_555 1_555
H13 O6 1_555 1_555
H14 O6 1_555 1_555
Zn1D N1D 1_555 1_555
Zn1E O2 1_555 1_555
Zn1E_2 O3 1_555 1_555
Zn1G O3B 1_555 1_555
Zn1B O1B 1_555 1_555
Zn1G_2 O2B 1_555 1_555
C2B C1 1_555 1_555
C3B C2B 1_555 1_555
H1B C3B 1_555 1_555
C4B C3B 1_555 1_555
H2B C4B 1_555 1_555
C5B C4B 1_555 1_555
C6B C5B 1_555 1_555
C7B C2B 1_555 1_555
H3B C7B 1_555 1_555
C8B C6B 1_555 1_555
C9B C5B 1_555 1_555
C10D H4D 1_555 1_555
C11D C10D 1_555 1_555
H5D C11D 1_555 1_555
C12D H6D 1_555 1_555
C13D H7D 1_555 1_555
H8D C13D 1_555 1_555
C14D C13D 1_555 1_555
C15D C14D 1_555 1_555
H9D C15D 1_555 1_555
C16D C15D 1_555 1_555
H10D C16D 1_555 1_555
C17D C17 1_555 1_555
C18D C17D 1_555 1_555
H11D C18D 1_555 1_555
C19D C14D 1_555 1_555
H12D C19D 1_555 1_555
N1D C10D 1_555 1_555
N2D C11D 1_555 1_555
O1B C9B 1_555 1_555
O1D Zn1D 1_555 1_555
O2B C9B 1_555 1_555
O2E Zn1 1_555 1_555
O2A Zn1D 1_555 1_555
O3B C8B 1_555 1_555
O3E Zn1 1_555 1_555
O3A Zn1D 1_555 1_555
O4B C8B 1_555 1_555
O6D Zn1D 1_555 1_555
H13D O6D 1_555 1_555
H14D O6D 1_555 1_555
C6 C7 1_555 1_555
C9 O1 1_555 1_555
C12 N1 1_555 1_555
C12 N2 1_555 1_555
C13 N2 1_555 1_555
C18 C19 1_555 1_555
C6B C7B 1_555 1_555
C12D N1D 1_555 1_555
C12D N2D 1_555 1_555
C13D N2D 1_555 1_555
C16D C17D 1_555 1_555
C18D C19D 1_555 1_555

#END
