
#######################################################################
#
#                 Cambridge Crystallographic Data Centre
#                                CCDC 
#
#######################################################################
#
# If this CIF has been generated from an entry in the Cambridge 
# Structural Database, then it will include bibliographic, chemical, 
# crystal, experimental, refinement or atomic coordinate data resulting 
# from the CCDC's data processing and validation procedures.
#
#######################################################################

data_LIWYEX
_symmetry_cell_setting           monoclinic
_symmetry_space_group_name_H-M   'C 2/c'
_symmetry_Int_Tables_number      15
_space_group_name_Hall           '-C 2yn'
loop_
_symmetry_equiv_pos_site_id
_symmetry_equiv_pos_as_xyz
1 x,y,z
2 -x,y,1/2-z
3 1/2+x,1/2+y,z
4 1/2-x,1/2+y,1/2-z
5 -x,-y,-z
6 x,-y,1/2+z
7 1/2-x,1/2-y,-z
8 1/2+x,1/2-y,1/2+z
_cell_length_a                   18.7675(4)
_cell_length_b                   22.3080(4)
_cell_length_c                   13.9336(5)
_cell_angle_alpha                90
_cell_angle_beta                 128.1470(10)
_cell_angle_gamma                90
_cell_volume                     4587.64
loop_
_atom_site_label
_atom_site_type_symbol
_atom_site_fract_x
_atom_site_fract_y
_atom_site_fract_z
Ag1 Ag 0.51953(4) 0.57169(3) 0.64919(6)
Ag2 Ag 0.64420(6) 0.25986(3) 0.82663(7)
S1 S 0.39101(11) 0.44653(8) 0.50477(16)
F1 F 0.7812(5) 0.6582(5) 1.1385(8)
F2 F 0.7962(7) 0.6473(8) 0.9999(11)
F3 F 0.9094(5) 0.5861(7) 1.1937(12)
F4 F 0.8048(8) 0.5464(7) 1.1808(12)
F5 F 0.8143(7) 0.5271(8) 1.0489(11)
F6 F 0.4591(6) 0.1977(6) 0.9494(9)
F7 F 0.5835(6) 0.1593(5) 1.1022(6)
F8 F 0.4458(6) 0.1146(5) 0.8056(9)
F9 F 0.5589(9) 0.0701(4) 0.9545(15)
F10 F 0.4498(9) 0.0816(7) 0.9556(14)
O1 O 0.6401(5) 0.5874(4) 0.8680(6)
O2 O 0.6213(5) 0.6070(4) 1.0025(7)
O3 O 0.5495(5) 0.2420(3) 0.8852(6)
O4 O 0.6591(4) 0.1772(3) 0.9859(6)
N1 N 0.5621(4) 0.4718(2) 0.6767(4)
N2 N 0.6179(4) 0.3548(3) 0.7479(5)
N3 N 0.3854(4) 0.3625(3) 0.3630(5)
N4 N 0.2441(4) 0.3001(3) 0.3302(5)
C1 C 0.5042(4) 0.4265(3) 0.6197(5)
C2 C 0.5326(5) 0.3676(3) 0.6574(6)
H1 H 0.4906 0.3366 0.6180
C3 C 0.6761(5) 0.3997(4) 0.7991(6)
H2 H 0.7372 0.3916 0.8597
C4 C 0.6488(5) 0.4580(4) 0.7654(7)
H3 H 0.6915 0.4886 0.8050
C5 C 0.3482(4) 0.3796(3) 0.4161(5)
C6 C 0.2793(4) 0.3490(3) 0.3999(6)
H4 H 0.2558 0.3625 0.4384
C7 C 0.2809(6) 0.2828(4) 0.2793(7)
H5 H 0.2587 0.2485 0.2310
C8 C 0.3515(6) 0.3137(4) 0.2952(7)
H6 H 0.3754 0.2998 0.2574
C9 C 0.6654(6) 0.6032(5) 0.9668(8)
C10 C 0.7632(8) 0.6215(8) 1.0533(10)
C11 C 0.8223(10) 0.5717(10) 1.1081(16)
C12 C 0.5866(6) 0.1970(4) 0.9482(7)
C13 C 0.5334(8) 0.1656(6) 0.9831(11)
C14 C 0.5014(12) 0.1078(10) 0.9333(17)
Ag1A Ag 0.48047(4) 0.57169(3) 0.85081(6)
Ag1D Ag 0.48047(4) 0.42831(3) 0.35081(6)
Ag2G Ag 0.14420(6) 0.24014(3) 0.32663(7)
O2A O 0.3787(5) 0.6070(4) 0.4975(7)
N3D N 0.6146(4) 0.6375(3) 0.6370(5)
N4G N 0.7441(4) 0.1999(3) 0.8302(5)
loop_
_geom_bond_atom_site_label_1
_geom_bond_atom_site_label_2
_geom_bond_site_symmetry_1
_geom_bond_site_symmetry_2
Ag1 O1 1_555 1_555
Ag2 O3 1_555 1_555
S1 C1 1_555 1_555
F1 C10 1_555 1_555
F2 C10 1_555 1_555
F3 C11 1_555 1_555
F4 C11 1_555 1_555
F5 C11 1_555 1_555
F6 C13 1_555 1_555
F7 C13 1_555 1_555
F8 C14 1_555 1_555
F9 C14 1_555 1_555
F10 C14 1_555 1_555
O1 C9 1_555 1_555
O2 C9 1_555 1_555
O3 C12 1_555 1_555
O4 C12 1_555 1_555
N1 Ag1 1_555 1_555
N2 Ag2 1_555 1_555
N3 C5 1_555 1_555
N4 C6 1_555 1_555
C1 N1 1_555 1_555
C2 N2 1_555 1_555
H1 C2 1_555 1_555
C3 N2 1_555 1_555
H2 C3 1_555 1_555
C4 N1 1_555 1_555
H3 C4 1_555 1_555
C5 S1 1_555 1_555
C6 C5 1_555 1_555
H4 C6 1_555 1_555
C7 N4 1_555 1_555
H5 C7 1_555 1_555
C8 N3 1_555 1_555
H6 C8 1_555 1_555
C9 C10 1_555 1_555
C10 C11 1_555 1_555
C12 C13 1_555 1_555
C13 C14 1_555 1_555
Ag1A O2 1_555 1_555
Ag1D N3 1_555 1_555
Ag2G N4 1_555 1_555
O2A Ag1 1_555 1_555
N3D Ag1 1_555 1_555
N4G Ag2 1_555 1_555
C1 C2 1_555 1_555
C3 C4 1_555 1_555
C7 C8 1_555 1_555

#END
