
#######################################################################
#
#                 Cambridge Crystallographic Data Centre
#                                CCDC 
#
#######################################################################
#
# If this CIF has been generated from an entry in the Cambridge 
# Structural Database, then it will include bibliographic, chemical, 
# crystal, experimental, refinement or atomic coordinate data resulting 
# from the CCDC's data processing and validation procedures.
#
#######################################################################

data_LIWYOG
_symmetry_cell_setting           monoclinic
_symmetry_space_group_name_H-M   'P 21/c'
_symmetry_Int_Tables_number      14
_space_group_name_Hall           '-P 2ybc'
loop_
_symmetry_equiv_pos_site_id
_symmetry_equiv_pos_as_xyz
1 x,y,z
2 -x,1/2+y,1/2-z
3 -x,-y,-z
4 x,1/2-y,1/2+z
_cell_length_a                   12.627(2)
_cell_length_b                   7.8053(13)
_cell_length_c                   5.8555(10)
_cell_angle_alpha                90
_cell_angle_beta                 95.954(3)
_cell_angle_gamma                90
_cell_volume                     573.99
loop_
_atom_site_label
_atom_site_type_symbol
_atom_site_fract_x
_atom_site_fract_y
_atom_site_fract_z
Ca1 Ca 0.45402(3) 0.88028(5) 0.22055(6)
O1 O 0.38767(10) 0.97200(19) 0.5735(2)
O2 O 0.44264(11) 1.16083(18) 0.0805(3)
H1 H 0.390(2) 1.204(4) 0.043(5)
O3 O 0.32354(11) 0.8418(2) 0.8668(3)
C1 C 0.19986(14) 0.9716(2) 0.5871(3)
C2 C 0.00876(15) 0.9572(3) 0.6071(3)
C3 C 0.31079(15) 0.9266(2) 0.6836(3)
C4 C 0.11492(15) 0.9224(3) 0.7005(4)
H2 H 0.1271 0.8656 0.8404
C5 C 0.18156(16) 1.0587(3) 0.3732(4)
H3 H 0.2391 1.0931 0.2971
C6 C -0.07999(17) 0.9076(3) 0.7218(4)
H4 H -0.0691 0.8518 0.8626
Ca1B Ca -0.45402(3) 1.11972(5) 0.77945(6)
Ca1B_2 Ca 0.54598(3) 1.11972(5) 0.77945(6)
Ca1B_3 Ca 0.54598(3) 1.11972(5) -0.22055(6)
Ca1A Ca 0.54598(3) 1.38028(5) 0.27945(6)
Ca1_2 Ca 0.45402(3) 0.88028(5) 1.22055(6)
Ca1C Ca 0.45402(3) 0.61972(5) 0.72055(6)
Ca1_3 Ca -0.54598(3) 0.88028(5) 0.22055(6)
Ca1B_4 Ca -0.45402(3) 1.11972(5) -0.22055(6)
Ca1A_2 Ca -0.45402(3) 1.38028(5) 0.27945(6)
Ca1C_2 Ca 0.45402(3) 0.61972(5) -0.27945(6)
O1B O -0.38767(10) 1.02800(19) 0.4265(2)
O1B_2 O 0.61233(10) 1.02800(19) 0.4265(2)
O1_2 O -0.61233(10) 0.97200(19) 0.5735(2)
O2B O 0.55736(11) 0.83917(18) -0.0805(3)
O2A O 0.55736(11) 0.66083(18) 0.4195(3)
O2_2 O -0.55736(11) 1.16083(18) 1.0805(3)
O2C O -0.55736(11) 1.33917(18) 0.5805(3)
O2B_2 O -0.44264(11) 0.83917(18) 0.9195(3)
H1B H 0.610(2) 0.796(4) -0.043(5)
H1A H 0.610(2) 0.704(4) 0.457(5)
H1_2 H -0.610(2) 1.204(4) 1.043(5)
H1C H -0.610(2) 1.296(4) 0.543(5)
H1B_2 H -0.390(2) 0.796(4) 0.957(5)
O3B O -0.32354(11) 1.1582(2) 0.1332(3)
O3_2 O 0.32354(11) 0.8418(2) -0.1332(3)
O3C O 0.32354(11) 0.6582(2) 0.3668(3)
O3B_2 O -0.32354(11) 1.1582(2) 1.1332(3)
O3A O -0.32354(11) 1.3418(2) 0.6332(3)
C1B C -0.19986(14) 1.0284(2) 0.4129(3)
C2B C -0.00876(15) 1.0428(3) 0.3929(3)
C3B C -0.31079(15) 1.0734(2) 0.3164(3)
C4B C -0.11492(15) 1.0776(3) 0.2995(4)
H2B H -0.1271 1.1344 0.1596
C5B C -0.18156(16) 0.9413(3) 0.6268(4)
H3B H -0.2391 0.9069 0.7029
C6B C 0.07999(17) 1.0924(3) 0.2782(4)
H4B H 0.0691 1.1482 0.1374
loop_
_geom_bond_atom_site_label_1
_geom_bond_atom_site_label_2
_geom_bond_site_symmetry_1
_geom_bond_site_symmetry_2
Ca1 O1 1_555 1_555
O1 C3 1_555 1_555
O2 Ca1 1_555 1_555
H1 O2 1_555 1_555
O3 C3 1_555 1_555
C1 C3 1_555 1_555
C2 C4 1_555 1_555
C4 C1 1_555 1_555
H2 C4 1_555 1_555
C5 C1 1_555 1_555
H3 C5 1_555 1_555
C6 C2 1_555 1_555
H4 C6 1_555 1_555
Ca1B O1B 1_555 1_555
Ca1B_2 O1 1_555 1_555
Ca1B_3 O2 1_555 1_555
Ca1A O2 1_555 1_555
Ca1_2 O3 1_555 1_555
Ca1C O3 1_555 1_555
Ca1_3 O1B 1_555 1_555
Ca1B_4 O3B 1_555 1_555
Ca1A_2 O2C 1_555 1_555
Ca1C_2 O2B 1_555 1_555
O1B C3B 1_555 1_555
O1B_2 Ca1 1_555 1_555
O1_2 Ca1B 1_555 1_555
O2B Ca1 1_555 1_555
O2A Ca1 1_555 1_555
O2_2 Ca1B 1_555 1_555
O2C Ca1B 1_555 1_555
O2B_2 Ca1B 1_555 1_555
H1B O2B 1_555 1_555
H1A O2A 1_555 1_555
H1_2 O2_2 1_555 1_555
H1C O2C 1_555 1_555
H1B_2 O2B_2 1_555 1_555
O3B Ca1A_2 1_555 1_555
O3_2 Ca1 1_555 1_555
O3C Ca1 1_555 1_555
O3B_2 Ca1B 1_555 1_555
O3A Ca1B 1_555 1_555
C1B C3B 1_555 1_555
C2B C2 1_555 1_555
C3B O3B 1_555 1_555
C4B C1B 1_555 1_555
H2B C4B 1_555 1_555
C5B C6 1_555 1_555
H3B C5B 1_555 1_555
C6B C5 1_555 1_555
H4B C6B 1_555 1_555
Ca1B_2 O1B_2 1_555 1_555
Ca1B_3 O2B 1_555 1_555
Ca1C O2A 1_555 1_555
Ca1C O3C 1_555 1_555
Ca1_3 O1_2 1_555 1_555
Ca1A_2 O3A 1_555 1_555
Ca1C_2 O3_2 1_555 1_555
C1B C5B 1_555 1_555
C2B C4B 1_555 1_555
C2B C6B 1_555 1_555

#END
