
#######################################################################
#
#                 Cambridge Crystallographic Data Centre
#                                CCDC 
#
#######################################################################
#
# If this CIF has been generated from an entry in the Cambridge 
# Structural Database, then it will include bibliographic, chemical, 
# crystal, experimental, refinement or atomic coordinate data resulting 
# from the CCDC's data processing and validation procedures.
#
#######################################################################

data_LIWYAS
_symmetry_cell_setting           triclinic
_symmetry_space_group_name_H-M   'P -1'
_symmetry_Int_Tables_number      2
_space_group_name_Hall           '-P 1'
loop_
_symmetry_equiv_pos_site_id
_symmetry_equiv_pos_as_xyz
1 x,y,z
2 -x,-y,-z
_cell_length_a                   10.2800(13)
_cell_length_b                   13.6270(18)
_cell_length_c                   14.6140(19)
_cell_angle_alpha                93.972(2)
_cell_angle_beta                 100.465(2)
_cell_angle_gamma                95.312(2)
_cell_volume                     1996.75
loop_
_atom_site_label
_atom_site_type_symbol
_atom_site_fract_x
_atom_site_fract_y
_atom_site_fract_z
Zn1 Zn 0.30781(5) 0.19328(3) 0.00090(3)
Zn2 Zn 0.55972(6) 0.55494(3) 0.22969(4)
C1 C 0.7686(5) 0.5549(3) 0.4183(4)
H1 H 0.8161 0.6050 0.3942
C2 C 0.8202(5) 0.5285(4) 0.5047(4)
H2 H 0.9019 0.5582 0.5377
C3 C 0.7482(5) 0.4572(4) 0.5412(4)
H3 H 0.7794 0.4389 0.6006
C4 C 0.6304(5) 0.4129(3) 0.4905(3)
H4 H 0.5813 0.3638 0.5149
C5 C 0.5843(4) 0.4415(3) 0.4024(3)
C6 C 0.4599(4) 0.4059(3) 0.3392(3)
C7 C 0.2994(5) 0.4045(3) 0.2200(3)
H5 H 0.2485 0.4215 0.1652
C8 C 0.2648(5) 0.3303(3) 0.2704(3)
H6 H 0.1870 0.2871 0.2565
C9 C 0.3752(5) 0.2590(3) 0.4170(3)
H7 H 0.3735 0.2934 0.4771
H8 H 0.4596 0.2316 0.4215
C10 C 0.0267(5) 0.2386(4) 0.0206(3)
H9 H 0.0461 0.2937 -0.0107
C11 C -0.0985(5) 0.2224(4) 0.0423(4)
H10 H -0.1620 0.2658 0.0267
C12 C -0.1265(5) 0.1397(4) 0.0881(3)
H11 H -0.2100 0.1266 0.1033
C13 C -0.0315(4) 0.0775(3) 0.1109(3)
H12 H -0.0496 0.0216 0.1414
C14 C 0.0938(4) 0.0989(3) 0.0878(3)
C15 C 0.2019(4) 0.0382(3) 0.1036(3)
C16 C 0.3871(5) -0.0162(4) 0.0872(4)
H13 H 0.4662 -0.0239 0.0666
C17 C 0.3414(5) -0.0686(4) 0.1510(4)
H14 H 0.3820 -0.1183 0.1821
C18 C 0.1552(5) -0.0620(3) 0.2369(3)
H15 H 0.1948 -0.1169 0.2658
H16 H 0.0627 -0.0841 0.2108
C19 C 0.1618(4) 0.0214(3) 0.3102(3)
C20 C 0.0640(4) 0.0212(4) 0.3676(3)
H17 H -0.0037 -0.0307 0.3584
C21 C 0.0670(5) 0.0937(4) 0.4345(3)
H18 H 0.0025 0.0911 0.4717
C22 C 0.1651(5) 0.1726(3) 0.4490(3)
H19 H 0.1650 0.2238 0.4945
C23 C 0.2635(4) 0.1753(3) 0.3957(3)
C24 C 0.2605(4) 0.0998(3) 0.3269(3)
H20 H 0.3266 0.1018 0.2910
C25 C 0.2863(5) 0.1372(3) -0.1805(3)
C26 C 0.4390(5) 0.2556(3) -0.3035(3)
C27 C 0.3203(4) 0.0937(3) -0.2697(2)
C28 C 0.3949(4) 0.1461(3) -0.3244(3)
C29 C 0.4243(5) 0.0976(3) -0.4037(3)
H21 H 0.4749 0.1325 -0.4398
C30 C 0.3815(5) 0.0006(3) -0.4301(3)
H22 H 0.4010 -0.0298 -0.4842
C31 C 0.3071(4) -0.0535(3) -0.3747(3)
C32 C 0.2793(4) -0.0055(3) -0.2950(3)
H23 H 0.2317 -0.0409 -0.2575
C33 C 0.2579(4) -0.1580(3) -0.4071(3)
C34 C 0.2440(4) -0.2299(3) -0.3355(3)
C35 C 0.1394(5) -0.3040(3) -0.3519(3)
H24 H 0.0740 -0.3060 -0.4052
C36 C 0.1311(5) -0.3743(3) -0.2905(3)
H25 H 0.0575 -0.4216 -0.3006
C37 C 0.2313(4) -0.3760(3) -0.2133(3)
C38 C 0.3364(4) -0.3015(3) -0.1952(3)
C39 C 0.3405(4) -0.2278(3) -0.2562(3)
H26 H 0.4092 -0.1764 -0.2433
C40 C 0.4455(5) -0.2967(3) -0.1102(3)
C41 C 0.2201(5) -0.4627(3) -0.1544(3)
N1 N 0.3018(3) 0.0496(3) 0.0571(2)
N2 N 0.1204(4) 0.1788(3) 0.0425(2)
N3 N 0.2233(4) -0.0349(2) 0.1616(2)
N4 N 0.6549(4) 0.5134(2) 0.3665(3)
N5 N 0.4214(4) 0.4508(2) 0.2624(2)
N6 N 0.3659(3) 0.3305(2) 0.3458(2)
O1 O 0.2313(4) -0.1854(2) -0.4890(2)
O2 O 0.1695(4) 0.1449(3) -0.1763(3)
O3 O 0.2888(4) 0.3453(2) -0.0214(2)
O4 O 0.3799(4) 0.1567(2) -0.1124(2)
O5 O 0.4151(5) 0.5783(4) 0.1113(3)
O6 O 0.5434(3) -0.2351(3) -0.1071(2)
O8 O 0.4338(6) -0.3526(4) -0.0516(3)
O10 O 0.3730(4) 0.3039(2) -0.2573(2)
O12 O 0.5316(4) 0.2930(2) -0.3378(3)
O13 O 0.2922(4) -0.5293(2) -0.1618(2)
O14 O 0.1317(5) -0.4659(3) -0.1084(3)
Zn1A Zn 0.69219(5) -0.19328(3) -0.00090(3)
Zn2A Zn 0.44028(6) 0.44506(3) -0.22969(4)
Zn2A_2 Zn 0.44028(6) -0.55494(3) -0.22969(4)
O6A O 0.4566(3) 0.2351(3) 0.1071(2)
O10A O 0.6270(4) 0.6961(2) 0.2573(2)
O13A O 0.7078(4) 0.5293(2) 0.1618(2)
O7 O 0.1198(9) 0.5522(7) 0.0804(6)
O9 O 0.0308(9) 0.2661(7) 0.6392(8)
O11 O 0.1985(10) 0.6895(10) 0.2528(13)
loop_
_geom_bond_atom_site_label_1
_geom_bond_atom_site_label_2
_geom_bond_site_symmetry_1
_geom_bond_site_symmetry_2
Zn1 N1 1_555 1_555
Zn2 N4 1_555 1_555
C1 H1 1_555 1_555
C2 C1 1_555 1_555
H2 C2 1_555 1_555
C3 C2 1_555 1_555
H3 C3 1_555 1_555
C4 C3 1_555 1_555
H4 C4 1_555 1_555
C5 C4 1_555 1_555
C6 C5 1_555 1_555
C7 H5 1_555 1_555
C8 C7 1_555 1_555
H6 C8 1_555 1_555
C9 H7 1_555 1_555
H8 C9 1_555 1_555
C10 H9 1_555 1_555
C11 C10 1_555 1_555
H10 C11 1_555 1_555
C12 C11 1_555 1_555
H11 C12 1_555 1_555
C13 C12 1_555 1_555
H12 C13 1_555 1_555
C14 C13 1_555 1_555
C15 C14 1_555 1_555
C16 H13 1_555 1_555
C17 C16 1_555 1_555
H14 C17 1_555 1_555
C18 H15 1_555 1_555
H16 C18 1_555 1_555
C19 C18 1_555 1_555
C20 C19 1_555 1_555
H17 C20 1_555 1_555
C21 C20 1_555 1_555
H18 C21 1_555 1_555
C22 C21 1_555 1_555
H19 C22 1_555 1_555
C23 C9 1_555 1_555
C24 C19 1_555 1_555
H20 C24 1_555 1_555
C25 C27 1_555 1_555
C26 C28 1_555 1_555
C27 C28 1_555 1_555
C28 C29 1_555 1_555
C29 H21 1_555 1_555
C30 C29 1_555 1_555
H22 C30 1_555 1_555
C31 C30 1_555 1_555
C32 C27 1_555 1_555
H23 C32 1_555 1_555
C33 C31 1_555 1_555
C34 C33 1_555 1_555
C35 C34 1_555 1_555
H24 C35 1_555 1_555
C36 C35 1_555 1_555
H25 C36 1_555 1_555
C37 C36 1_555 1_555
C38 C37 1_555 1_555
C39 C34 1_555 1_555
H26 C39 1_555 1_555
C40 C38 1_555 1_555
C41 C37 1_555 1_555
N1 C15 1_555 1_555
N2 Zn1 1_555 1_555
N3 C15 1_555 1_555
N4 C1 1_555 1_555
N5 Zn2 1_555 1_555
N6 C6 1_555 1_555
O1 C33 1_555 1_555
O2 C25 1_555 1_555
O3 Zn1 1_555 1_555
O4 Zn1 1_555 1_555
O5 Zn2 1_555 1_555
O6 C40 1_555 1_555
O8 C40 1_555 1_555
O10 C26 1_555 1_555
O12 C26 1_555 1_555
O13 C41 1_555 1_555
O14 C41 1_555 1_555
Zn1A O6 1_555 1_555
Zn2A O10 1_555 1_555
Zn2A_2 O13 1_555 1_555
O6A Zn1 1_555 1_555
O10A Zn2 1_555 1_555
O13A Zn2 1_555 1_555
C5 N4 1_555 1_555
C6 N5 1_555 1_555
C7 N5 1_555 1_555
C8 N6 1_555 1_555
C9 N6 1_555 1_555
C10 N2 1_555 1_555
C14 N2 1_555 1_555
C16 N1 1_555 1_555
C17 N3 1_555 1_555
C18 N3 1_555 1_555
C22 C23 1_555 1_555
C23 C24 1_555 1_555
C25 O4 1_555 1_555
C31 C32 1_555 1_555
C38 C39 1_555 1_555

#END
