
#######################################################################
#
#                 Cambridge Crystallographic Data Centre
#                                CCDC 
#
#######################################################################
#
# If this CIF has been generated from an entry in the Cambridge 
# Structural Database, then it will include bibliographic, chemical, 
# crystal, experimental, refinement or atomic coordinate data resulting 
# from the CCDC's data processing and validation procedures.
#
#######################################################################

data_LIXCOM
_symmetry_cell_setting           monoclinic
_symmetry_space_group_name_H-M   'C 2/c'
_symmetry_Int_Tables_number      15
_space_group_name_Hall           '-C 2yn'
loop_
_symmetry_equiv_pos_site_id
_symmetry_equiv_pos_as_xyz
1 x,y,z
2 -x,y,1/2-z
3 1/2+x,1/2+y,z
4 1/2-x,1/2+y,1/2-z
5 -x,-y,-z
6 x,-y,1/2+z
7 1/2-x,1/2-y,-z
8 1/2+x,1/2-y,1/2+z
_cell_length_a                   29.888(6)
_cell_length_b                   9.0272(18)
_cell_length_c                   16.467(3)
_cell_angle_alpha                90
_cell_angle_beta                 113.18(3)
_cell_angle_gamma                90
_cell_volume                     4084.22
loop_
_atom_site_label
_atom_site_type_symbol
_atom_site_fract_x
_atom_site_fract_y
_atom_site_fract_z
O1 O 0.95131(19) 0.7333(8) 0.6588(4)
O2 O 0.9399(2) 0.2765(9) 0.9559(4)
O3 O 0.9550(2) 0.0626(8) 0.9088(4)
C1 C 0.9271(3) 0.1681(13) 0.9035(6)
O4 O 0.5577(2) 0.2838(8) 0.5198(4)
O5 O 0.5597(2) 0.4722(8) 0.4339(4)
C2 C 0.5790(3) 0.3691(12) 0.4887(6)
Pr1 Pr 0.997526(16) 0.83448(7) 0.90611(3)
O6 O 0.9865(3) 0.5456(8) 0.9054(5)
O7 O 0.73071(17) 0.1318(6) 0.6709(3)
C3 C 0.7333(2) 0.3334(9) 0.5788(4)
H1 H 0.7668 0.3236 0.5970
O8 O 0.9315(2) 0.7656(8) 0.7732(4)
C4 C 0.8714(3) 0.6788(9) 0.6411(5)
C5 C 0.8374(3) 0.6658(9) 0.6786(5)
H2 H 0.8461 0.6894 0.7379
C6 C 0.6338(2) 0.3544(9) 0.5184(5)
C7 C 0.6590(3) 0.4526(10) 0.4884(5)
H3 H 0.6424 0.5251 0.4474
C8 C 0.8758(3) 0.1653(10) 0.8354(5)
C9 C 0.7800(3) 0.1492(9) 0.7234(5)
C10 C 0.8574(3) 0.6472(10) 0.5524(5)
H4 H 0.8795 0.6587 0.5258
C11 C 0.9214(3) 0.7312(10) 0.6943(5)
O9 O 0.73238(18) 0.5408(6) 0.4864(3)
C12 C 0.7783(3) 0.5848(9) 0.5403(5)
C13 C 0.6576(3) 0.2471(9) 0.5798(5)
H5 H 0.6405 0.1808 0.6001
C14 C 0.7082(3) 0.4426(9) 0.5190(5)
C15 C 0.8450(3) 0.2798(10) 0.8276(5)
H6 H 0.8570 0.3649 0.8610
C16 C 0.7912(3) 0.6186(9) 0.6294(5)
H7 H 0.7686 0.6090 0.6549
C17 C 0.8097(3) 0.0351(9) 0.7278(5)
H8 H 0.7977 -0.0482 0.6927
C18 C 0.7972(3) 0.2739(10) 0.7726(5)
H9 H 0.7766 0.3533 0.7685
C19 C 0.7079(3) 0.2411(9) 0.6101(5)
C20 C 0.8115(3) 0.5996(10) 0.5037(5)
H10 H 0.8028 0.5766 0.4444
C21 C 0.8580(3) 0.0414(10) 0.7845(5)
H11 H 0.8786 -0.0380 0.7883
O1A O 1.04869(19) 0.7333(8) 0.8412(4)
O2D O 1.0601(2) 0.7235(9) 1.0441(4)
O3_2 O 0.9550(2) 1.0626(8) 0.9088(4)
O4C O 0.9423(2) 0.7838(8) 0.9802(4)
O5G O 1.0597(2) 1.0278(8) 0.9339(4)
Pr1_2 Pr 0.997526(16) -0.16552(7) 0.90611(3)
Pr1A Pr 1.002474(16) 0.83448(7) 0.59389(3)
Pr1C Pr 0.502474(16) 0.33448(7) 0.59389(3)
Pr1D Pr 1.002474(16) 0.16552(7) 1.09389(3)
Pr1G Pr 0.497526(16) 0.66552(7) 0.40611(3)
O10 O 0.5000 0.4815(18) 0.2500
H12 H 0.5321 0.5120 0.2661
H12A H 0.4679 0.5120 0.2339
loop_
_geom_bond_atom_site_label_1
_geom_bond_atom_site_label_2
_geom_bond_site_symmetry_1
_geom_bond_site_symmetry_2
O1 C11 1_555 1_555
O2 C1 1_555 1_555
O3 C1 1_555 1_555
C1 C8 1_555 1_555
O4 C2 1_555 1_555
O5 C2 1_555 1_555
C2 C6 1_555 1_555
Pr1 O6 1_555 1_555
O7 C9 1_555 1_555
C3 H1 1_555 1_555
O8 Pr1 1_555 1_555
C4 C5 1_555 1_555
C5 H2 1_555 1_555
C6 C7 1_555 1_555
C7 H3 1_555 1_555
C8 C15 1_555 1_555
C9 C17 1_555 1_555
C10 C4 1_555 1_555
H4 C10 1_555 1_555
C11 O8 1_555 1_555
O9 C12 1_555 1_555
C12 C16 1_555 1_555
C13 C6 1_555 1_555
H5 C13 1_555 1_555
C14 C3 1_555 1_555
C15 H6 1_555 1_555
C16 C5 1_555 1_555
H7 C16 1_555 1_555
C17 H8 1_555 1_555
C18 C9 1_555 1_555
H9 C18 1_555 1_555
C19 O7 1_555 1_555
C20 C10 1_555 1_555
H10 C20 1_555 1_555
C21 C8 1_555 1_555
H11 C21 1_555 1_555
O10 H12 1_555 1_555
O1A Pr1 1_555 1_555
O2D Pr1 1_555 1_555
O3_2 Pr1 1_555 1_555
O4C Pr1 1_555 1_555
O5G Pr1 1_555 1_555
Pr1_2 O3 1_555 1_555
Pr1A O1 1_555 1_555
Pr1C O4 1_555 1_555
Pr1D O2 1_555 1_555
Pr1G O5 1_555 1_555
H12A O10 1_555 1_555
C3 C19 1_555 1_555
C4 C11 1_555 1_555
C7 C14 1_555 1_555
O9 C14 1_555 1_555
C12 C20 1_555 1_555
C13 C19 1_555 1_555
C15 C18 1_555 1_555
C17 C21 1_555 1_555

#END
