
#######################################################################
#
#                 Cambridge Crystallographic Data Centre
#                                CCDC 
#
#######################################################################
#
# If this CIF has been generated from an entry in the Cambridge 
# Structural Database, then it will include bibliographic, chemical, 
# crystal, experimental, refinement or atomic coordinate data resulting 
# from the CCDC's data processing and validation procedures.
#
#######################################################################

data_LIXCUS
_symmetry_cell_setting           monoclinic
_symmetry_space_group_name_H-M   'C 2/c'
_symmetry_Int_Tables_number      15
_space_group_name_Hall           '-C 2yn'
loop_
_symmetry_equiv_pos_site_id
_symmetry_equiv_pos_as_xyz
1 x,y,z
2 -x,y,1/2-z
3 1/2+x,1/2+y,z
4 1/2-x,1/2+y,1/2-z
5 -x,-y,-z
6 x,-y,1/2+z
7 1/2-x,1/2-y,-z
8 1/2+x,1/2-y,1/2+z
_cell_length_a                   29.862(6)
_cell_length_b                   9.2002(18)
_cell_length_c                   16.406(3)
_cell_angle_alpha                90
_cell_angle_beta                 112.94(3)
_cell_angle_gamma                90
_cell_volume                     4150.86
loop_
_atom_site_label
_atom_site_type_symbol
_atom_site_fract_x
_atom_site_fract_y
_atom_site_fract_z
Sm1 Sm 1.002621(12) -0.16476(5) 1.09201(3)
O1 O 0.93892(19) 0.0137(7) 1.0599(4)
O2 O 0.94148(19) 0.2052(7) 0.9775(4)
O3 O 0.76586(16) -0.0443(6) 1.0124(3)
O4 O 0.76893(17) 0.3663(5) 0.8293(4)
O5 O 0.54655(18) -0.2388(7) 0.8424(3)
O6 O 0.56582(19) -0.2767(7) 0.7252(3)
O7 O 0.5571(2) 0.2340(8) 0.5439(4)
O8 O 0.54297(19) 0.4416(7) 0.5962(5)
O9 O 1.0155(3) -0.4417(9) 1.0924(4)
C1 C 0.9197(3) 0.1169(10) 1.0082(5)
C2 C 0.8396(2) 0.0413(8) 1.0094(4)
H1 H 0.8555 -0.0324 1.0489
C3 C 0.8660(3) 0.1379(8) 0.9811(5)
C4 C 0.8413(2) 0.2460(8) 0.9195(4)
H2 H 0.8584 0.3106 0.8988
C5 C 0.7915(2) 0.2552(7) 0.8902(4)
C6 C 0.7656(3) 0.1628(7) 0.9215(5)
H3 H 0.7322 0.1734 0.9040
C7 C 0.7904(2) 0.0543(7) 0.9794(4)
C8 C 0.7195(2) -0.0863(8) 0.9578(4)
C9 C 0.7069(3) -0.1207(9) 0.8688(5)
H4 H 0.7296 -0.1114 0.8433
C10 C 0.6600(3) -0.1690(7) 0.8184(5)
H5 H 0.6515 -0.1921 0.7590
C11 C 0.6254(3) -0.1830(7) 0.8572(5)
C12 C 0.6394(3) -0.1488(8) 0.9462(5)
H6 H 0.6171 -0.1587 0.9727
C13 C 0.6861(3) -0.0999(9) 0.9965(5)
H7 H 0.6948 -0.0764 1.0558
C14 C 0.5761(2) -0.2376(8) 0.8055(5)
C15 C 0.7189(3) 0.3495(7) 0.7768(5)
C16 C 0.7015(3) 0.2256(8) 0.7251(5)
H8 H 0.7221 0.1487 0.7271
C17 C 0.6530(3) 0.2205(9) 0.6715(5)
H9 H 0.6403 0.1367 0.6390
C18 C 0.6227(3) 0.3369(8) 0.6648(5)
C19 C 0.6407(2) 0.4613(9) 0.7175(5)
H10 H 0.6203 0.5392 0.7144
C20 C 0.6898(2) 0.4660(8) 0.7743(5)
H11 H 0.7024 0.5468 0.8100
C21 C 0.5700(3) 0.3347(10) 0.5976(6)
Sm1C Sm 0.497379(12) 0.33524(5) 0.40799(3)
Sm1D Sm 0.997379(12) 0.16476(5) 0.90799(3)
Sm1F Sm 0.497379(12) -0.33524(5) 0.90799(3)
Sm1G Sm 0.502621(12) -0.33524(5) 0.59201(3)
Sm1G_2 Sm 0.502621(12) 0.66476(5) 0.59201(3)
O2D O 1.05852(19) -0.2052(7) 1.0225(4)
O5F O 0.95345(18) -0.2612(7) 1.1576(3)
O6G O 1.06582(19) -0.2233(7) 1.2252(3)
O7C O 0.9429(2) -0.2660(8) 0.9561(4)
O8G O 1.04297(19) 0.0584(7) 1.0962(5)
loop_
_geom_bond_atom_site_label_1
_geom_bond_atom_site_label_2
_geom_bond_site_symmetry_1
_geom_bond_site_symmetry_2
Sm1 O1 1_555 1_555
O1 C1 1_555 1_555
O2 C1 1_555 1_555
O3 C7 1_555 1_555
O4 C5 1_555 1_555
O5 C14 1_555 1_555
O6 C14 1_555 1_555
O7 C21 1_555 1_555
O8 C21 1_555 1_555
O9 Sm1 1_555 1_555
C1 C3 1_555 1_555
C2 H1 1_555 1_555
C3 C2 1_555 1_555
C4 C3 1_555 1_555
H2 C4 1_555 1_555
C5 C4 1_555 1_555
C6 C5 1_555 1_555
H3 C6 1_555 1_555
C7 C2 1_555 1_555
C8 O3 1_555 1_555
C9 C8 1_555 1_555
H4 C9 1_555 1_555
C10 C9 1_555 1_555
H5 C10 1_555 1_555
C11 C10 1_555 1_555
C12 C11 1_555 1_555
H6 C12 1_555 1_555
C13 C8 1_555 1_555
H7 C13 1_555 1_555
C14 C11 1_555 1_555
C15 O4 1_555 1_555
C16 C15 1_555 1_555
H8 C16 1_555 1_555
C17 C16 1_555 1_555
H9 C17 1_555 1_555
C18 C17 1_555 1_555
C19 C18 1_555 1_555
H10 C19 1_555 1_555
C20 C15 1_555 1_555
H11 C20 1_555 1_555
C21 C18 1_555 1_555
Sm1C O7 1_555 1_555
Sm1D O2 1_555 1_555
Sm1F O5 1_555 1_555
Sm1G O6 1_555 1_555
Sm1G_2 O8 1_555 1_555
O2D Sm1 1_555 1_555
O5F Sm1 1_555 1_555
O6G Sm1 1_555 1_555
O7C Sm1 1_555 1_555
O8G Sm1 1_555 1_555
C6 C7 1_555 1_555
C12 C13 1_555 1_555
C19 C20 1_555 1_555

#END
