
#######################################################################
#
#                 Cambridge Crystallographic Data Centre
#                                CCDC 
#
#######################################################################
#
# If this CIF has been generated from an entry in the Cambridge 
# Structural Database, then it will include bibliographic, chemical, 
# crystal, experimental, refinement or atomic coordinate data resulting 
# from the CCDC's data processing and validation procedures.
#
#######################################################################

data_LIXCIG
_symmetry_cell_setting           monoclinic
_symmetry_space_group_name_H-M   'C 2/c'
_symmetry_Int_Tables_number      15
_space_group_name_Hall           '-C 2yn'
loop_
_symmetry_equiv_pos_site_id
_symmetry_equiv_pos_as_xyz
1 x,y,z
2 -x,y,1/2-z
3 1/2+x,1/2+y,z
4 1/2-x,1/2+y,1/2-z
5 -x,-y,-z
6 x,-y,1/2+z
7 1/2-x,1/2-y,-z
8 1/2+x,1/2-y,1/2+z
_cell_length_a                   29.762(6)
_cell_length_b                   9.1425(18)
_cell_length_c                   16.364(3)
_cell_angle_alpha                90
_cell_angle_beta                 113.39(3)
_cell_angle_gamma                90
_cell_volume                     4086.73
loop_
_atom_site_label
_atom_site_type_symbol
_atom_site_fract_x
_atom_site_fract_y
_atom_site_fract_z
Nd1 Nd 0.497310(12) -0.16375(5) 0.40641(3)
O1 O 0.56044(16) 0.0202(6) 0.4366(3)
O2 O 0.55836(17) 0.2086(6) 0.5215(4)
O3 O 0.73303(15) -0.0434(5) 0.4865(3)
O4 O 0.73119(15) 0.3653(4) 0.6711(3)
O5 O 0.94134(18) 0.2295(7) 0.9567(3)
O6 O 0.95626(16) 0.4394(6) 0.9059(4)
O7 O 0.95246(16) -0.2343(6) 0.6579(3)
O8 O 0.93238(16) -0.2734(6) 0.7729(3)
O9 O 0.4846(2) -0.4449(7) 0.4075(4)
C1 C 0.5797(2) 0.1230(9) 0.4893(5)
C2 C 0.6344(2) 0.1404(7) 0.5192(4)
C3 C 0.6583(2) 0.2467(7) 0.5801(4)
H1 H 0.6410 0.3107 0.6010
C4 C 0.7081(2) 0.2566(6) 0.6093(4)
C5 C 0.7340(2) 0.1628(6) 0.5778(4)
H2 H 0.7677 0.1728 0.5958
C6 C 0.7092(2) 0.0551(7) 0.5195(4)
C7 C 0.6597(2) 0.0428(7) 0.4889(4)
H3 H 0.6432 -0.0298 0.4483
C8 C 0.7805(2) 0.3494(6) 0.7232(4)
C9 C 0.8098(2) 0.4648(7) 0.7269(4)
H4 H 0.7973 0.5467 0.6914
C10 C 0.8590(2) 0.4588(7) 0.7849(5)
H5 H 0.8795 0.5379 0.7896
C11 C 0.8769(2) 0.3364(7) 0.8347(4)
C12 C 0.8466(2) 0.2196(7) 0.8287(4)
H6 H 0.8590 0.1365 0.8630
C13 C 0.7983(2) 0.2252(7) 0.7726(4)
H7 H 0.7778 0.1461 0.7679
C14 C 0.7797(2) -0.0860(7) 0.5411(4)
C15 C 0.7920(2) -0.1213(7) 0.6298(4)
H8 H 0.7691 -0.1134 0.6550
C16 C 0.8385(2) -0.1679(6) 0.6794(4)
H9 H 0.8473 -0.1909 0.7392
C17 C 0.8729(2) -0.1815(6) 0.6416(4)
C18 C 0.8588(2) -0.1468(7) 0.5526(5)
H10 H 0.8812 -0.1564 0.5263
C19 C 0.8127(2) -0.0989(8) 0.5030(4)
H11 H 0.8038 -0.0751 0.4433
C20 C 0.9225(2) -0.2350(7) 0.6940(4)
C21 C 0.9284(2) 0.3333(9) 0.9029(5)
Nd1C Nd 1.002690(12) 0.33625(5) 1.09359(3)
Nd1D Nd 0.502690(12) 0.16375(5) 0.59359(3)
Nd1F Nd 1.002690(12) -0.33625(5) 0.59359(3)
Nd1G Nd 0.997310(12) -0.33625(5) 0.90641(3)
Nd1G_2 Nd 0.997310(12) 0.66375(5) 0.90641(3)
O2D O 0.44164(17) -0.2086(6) 0.4785(4)
O5C O 0.55866(18) -0.2705(7) 0.5433(3)
O6G O 0.45626(16) 0.0606(6) 0.4059(4)
O7F O 0.54754(16) -0.2657(6) 0.3421(3)
O8G O 0.43238(16) -0.2266(6) 0.2729(3)
loop_
_geom_bond_atom_site_label_1
_geom_bond_atom_site_label_2
_geom_bond_site_symmetry_1
_geom_bond_site_symmetry_2
Nd1 O1 1_555 1_555
O1 C1 1_555 1_555
O2 C1 1_555 1_555
O3 C6 1_555 1_555
O4 C4 1_555 1_555
O5 C21 1_555 1_555
O6 C21 1_555 1_555
O7 C20 1_555 1_555
O8 C20 1_555 1_555
O9 Nd1 1_555 1_555
C1 C2 1_555 1_555
C2 C3 1_555 1_555
C3 H1 1_555 1_555
C4 C3 1_555 1_555
C5 C4 1_555 1_555
H2 C5 1_555 1_555
C6 C5 1_555 1_555
C7 C2 1_555 1_555
H3 C7 1_555 1_555
C8 O4 1_555 1_555
C9 C8 1_555 1_555
H4 C9 1_555 1_555
C10 C9 1_555 1_555
H5 C10 1_555 1_555
C11 C10 1_555 1_555
C12 C11 1_555 1_555
H6 C12 1_555 1_555
C13 C8 1_555 1_555
H7 C13 1_555 1_555
C14 O3 1_555 1_555
C15 C14 1_555 1_555
H8 C15 1_555 1_555
C16 C15 1_555 1_555
H9 C16 1_555 1_555
C17 C16 1_555 1_555
C18 C17 1_555 1_555
H10 C18 1_555 1_555
C19 C14 1_555 1_555
H11 C19 1_555 1_555
C20 C17 1_555 1_555
C21 C11 1_555 1_555
Nd1C O5 1_555 1_555
Nd1D O2 1_555 1_555
Nd1F O7 1_555 1_555
Nd1G O8 1_555 1_555
Nd1G_2 O6 1_555 1_555
O2D Nd1 1_555 1_555
O5C Nd1 1_555 1_555
O6G Nd1 1_555 1_555
O7F Nd1 1_555 1_555
O8G Nd1 1_555 1_555
C6 C7 1_555 1_555
C12 C13 1_555 1_555
C18 C19 1_555 1_555

#END
