
#######################################################################
#
#                 Cambridge Crystallographic Data Centre
#                                CCDC 
#
#######################################################################
#
# If this CIF has been generated from an entry in the Cambridge 
# Structural Database, then it will include bibliographic, chemical, 
# crystal, experimental, refinement or atomic coordinate data resulting 
# from the CCDC's data processing and validation procedures.
#
#######################################################################

data_LIXDIH
_symmetry_cell_setting           monoclinic
_symmetry_space_group_name_H-M   'P 21/c'
_symmetry_Int_Tables_number      14
_space_group_name_Hall           '-P 2ybc'
loop_
_symmetry_equiv_pos_site_id
_symmetry_equiv_pos_as_xyz
1 x,y,z
2 -x,1/2+y,1/2-z
3 -x,-y,-z
4 x,1/2-y,1/2+z
_cell_length_a                   12.887(3)
_cell_length_b                   19.363(4)
_cell_length_c                   25.334(8)
_cell_angle_alpha                90
_cell_angle_beta                 115.53(3)
_cell_angle_gamma                90
_cell_volume                     5704.37
loop_
_atom_site_label
_atom_site_type_symbol
_atom_site_fract_x
_atom_site_fract_y
_atom_site_fract_z
U1 U 0.26154(7) -0.11973(4) 0.25179(3)
C1 C 0.367(2) 0.0023(12) 0.2924(9)
C2 C 0.4349(11) 0.0676(6) 0.3056(6)
C3 C 0.3851(10) 0.1269(8) 0.2739(6)
H1 H 0.3096 0.1258 0.2452
C4 C 0.4481(13) 0.1878(6) 0.2851(7)
H2 H 0.4148 0.2275 0.2639
C5 C 0.5609(12) 0.1894(7) 0.3279(7)
H3 H 0.6030 0.2302 0.3354
C6 C 0.6107(9) 0.1301(8) 0.3596(6)
C7 C 0.5477(12) 0.0692(7) 0.3485(6)
H4 H 0.5810 0.0295 0.3697
C8 C 0.7363(19) 0.1403(12) 0.4037(11)
H5 H 0.7768 0.1683 0.3868
H6 H 0.7407 0.1631 0.4387
C9 C 0.8984(11) 0.0695(8) 0.4628(6)
H7 H 0.9494 0.0957 0.4513
H8 H 0.8994 0.0912 0.4975
C10 C 0.9428(15) 0.0018(8) 0.4776(8)
H9 H 0.9404 -0.0204 0.4428
H10 H 0.8930 -0.0241 0.4902
C11 C 0.0817(18) -0.2332(12) 0.2278(12)
C12 C -0.0398(6) -0.2298(6) 0.2061(4)
C13 C -0.0913(8) -0.2655(6) 0.2362(4)
H11 H -0.0460 -0.2876 0.2712
C14 C -0.2104(8) -0.2683(6) 0.2138(5)
H12 H -0.2449 -0.2922 0.2339
C15 C -0.2781(6) -0.2353(6) 0.1614(5)
H13 H -0.3578 -0.2372 0.1464
C16 C -0.2266(8) -0.1996(5) 0.1314(4)
C17 C -0.1075(9) -0.1968(5) 0.1538(4)
H14 H -0.0730 -0.1729 0.1337
C18 C -0.2942(14) -0.1697(8) 0.0770(6)
H15 H -0.3575 -0.2004 0.0547
H16 H -0.2482 -0.1638 0.0554
C19 C -0.4156(14) -0.0772(9) 0.0282(7)
H17 H -0.3761 -0.0753 0.0032
H18 H -0.4797 -0.1089 0.0104
C20 C -0.4588(13) -0.0117(9) 0.0302(7)
H19 H -0.3958 0.0209 0.0467
H20 H -0.4982 -0.0128 0.0553
N1 N 0.7844(11) 0.0740(8) 0.4170(6)
H21 H 0.7473 0.0380 0.3986
N2 N -0.3388(11) -0.1042(6) 0.0833(5)
H22 H -0.3214 -0.0839 0.1162
O1 O 0.2316(12) -0.1288(7) 0.3085(6)
O2 O 0.2906(11) -0.1123(7) 0.1947(6)
O3 O 0.4217(14) -0.0460(11) 0.3099(7)
O4 O 0.2702(14) 0.0052(9) 0.2672(7)
O5 O 0.1256(11) -0.1942(7) 0.2044(7)
O6 O 0.1291(12) -0.2707(9) 0.2675(8)
O7 O 0.0885(12) -0.0553(7) 0.1990(6)
H23 H 0.0414 -0.0369 0.2102
H24 H 0.0555 -0.0616 0.1622
O8 O 0.3838(16) -0.2147(9) 0.2750(8)
H25 H 0.4011 -0.2459 0.3010
H26 H 0.4525 -0.2248 0.2817
C1B C 1.633(2) -0.0023(12) 0.7076(9)
C2B C 1.5651(11) -0.0676(6) 0.6944(6)
C3B C 1.6149(10) -0.1269(8) 0.7261(6)
H1B H 1.6904 -0.1258 0.7548
C4B C 1.5519(13) -0.1878(6) 0.7149(7)
H2B H 1.5852 -0.2275 0.7361
C5B C 1.4391(12) -0.1894(7) 0.6721(7)
H3B H 1.3970 -0.2302 0.6646
C6B C 1.3893(9) -0.1301(8) 0.6404(6)
C7B C 1.4523(12) -0.0692(7) 0.6515(6)
H4B H 1.4190 -0.0295 0.6303
C8B C 1.2637(19) -0.1403(12) 0.5963(11)
H5B H 1.2232 -0.1683 0.6132
H6B H 1.2593 -0.1631 0.5613
C9B C 1.1016(11) -0.0695(8) 0.5372(6)
H7B H 1.0506 -0.0957 0.5487
H8B H 1.1006 -0.0912 0.5025
C10B C 1.0572(15) -0.0018(8) 0.5224(8)
H9B H 1.0596 0.0204 0.5572
H10B H 1.1070 0.0241 0.5098
N1B N 1.2156(11) -0.0740(8) 0.5830(6)
H21B H 1.2527 -0.0380 0.6014
O3B O 1.5783(14) 0.0460(11) 0.6901(7)
O4B O 1.7298(14) -0.0052(9) 0.7328(7)
C11B C -1.0817(18) 0.2332(12) -0.2278(12)
C12B C -0.9602(6) 0.2298(6) -0.2061(4)
C13B C -0.9087(8) 0.2655(6) -0.2362(4)
H11B H -0.9540 0.2876 -0.2712
C14B C -0.7896(8) 0.2683(6) -0.2138(5)
H12B H -0.7551 0.2922 -0.2339
C15B C -0.7219(6) 0.2353(6) -0.1614(5)
H13B H -0.6422 0.2372 -0.1464
C16B C -0.7734(8) 0.1996(5) -0.1314(4)
C17B C -0.8925(9) 0.1968(5) -0.1538(4)
H14B H -0.9270 0.1729 -0.1337
C18B C -0.7058(14) 0.1697(8) -0.0770(6)
H15B H -0.6425 0.2004 -0.0547
H16B H -0.7518 0.1638 -0.0554
C19B C -0.5844(14) 0.0772(9) -0.0282(7)
H17B H -0.6239 0.0753 -0.0032
H18B H -0.5203 0.1089 -0.0104
C20B C -0.5412(13) 0.0117(9) -0.0302(7)
H19B H -0.6042 -0.0209 -0.0467
H20B H -0.5018 0.0128 -0.0553
N2B N -0.6612(11) 0.1042(6) -0.0833(5)
H22B H -0.6786 0.0839 -0.1162
O5B O -1.1256(11) 0.1942(7) -0.2044(7)
O6B O -1.1291(12) 0.2707(9) -0.2675(8)
U1B U -1.26154(7) 0.11973(4) -0.25179(3)
O1B O -1.2316(12) 0.1288(7) -0.3085(6)
O2B O -1.2906(11) 0.1123(7) -0.1947(6)
O7B O -1.0885(12) 0.0553(7) -0.1990(6)
H23B H -1.0414 0.0369 -0.2102
H24B H -1.0555 0.0616 -0.1622
O8B O -1.3838(16) 0.2147(9) -0.2750(8)
H25B H -1.4011 0.2459 -0.3010
H26B H -1.4525 0.2248 -0.2817
U1B_2 U 1.73846(7) 0.11973(4) 0.74821(3)
O3B_2 O -1.4217(14) 0.0460(11) -0.3099(7)
O4B_2 O -1.2702(14) -0.0052(9) -0.2672(7)
C21 C 0.5784(14) 0.0949(12) -0.1206(8)
C22 C 0.7161(18) 0.1735(7) -0.0538(6)
H27 H 0.7866 0.1874 -0.0559
H28 H 0.6568 0.2067 -0.0758
C23 C 0.6654(16) 0.1997(9) 0.0243(9)
C24 C 0.6609(14) 0.2246(8) 0.1156(8)
H29 H 0.7215 0.2445 0.1504
H30 H 0.6083 0.2613 0.0942
C25 C 0.4865(16) 0.1714(10) 0.1066(9)
C26 C 0.3473(15) 0.1138(9) 0.1245(8)
H31 H 0.3017 0.1509 0.0995
H32 H 0.3371 0.1154 0.1603
C27 C 0.6888(13) 0.0088(10) -0.1280(7)
H33 H 0.7124 0.0021 -0.1596
C28 C 0.7628(12) 0.0585(7) -0.0841(6)
H34 H 0.8178 0.0812 -0.0957
C29 C 0.8385(12) 0.1493(6) 0.0527(6)
H35 H 0.9060 0.1735 0.0537
C30 C 0.8214(11) 0.1623(6) 0.1033(7)
H36 H 0.8821 0.1903 0.1328
C31 C 0.6520(14) 0.1357(11) 0.1835(7)
H37 H 0.6967 0.1651 0.2172
C32 C 0.5510(15) 0.1059(11) 0.1873(7)
H38 H 0.5446 0.1215 0.2226
C33 C 0.7834(13) -0.0497(9) -0.0424(7)
C34 C 0.8976(14) 0.0418(9) 0.0181(7)
H39 H 0.9467 0.0737 0.0099
H40 H 0.9458 0.0047 0.0419
C35 C 0.8354(12) 0.0446(9) 0.0947(6)
C36 C 0.8246(9) 0.0840(9) 0.1810(5)
H41 H 0.8697 0.0428 0.1976
H42 H 0.8647 0.1231 0.2051
C37 C 0.6780(14) 0.0177(10) 0.1842(7)
C38 C 0.5131(15) -0.0201(10) 0.1988(7)
H43 H 0.5632 -0.0597 0.2147
H44 H 0.4859 -0.0057 0.2273
N3 N 0.5793(11) 0.0394(8) -0.1481(5)
N4 N 0.6826(12) 0.1058(6) -0.0791(6)
N5 N 0.7335(11) 0.1732(7) 0.0059(5)
N6 N 0.7096(10) 0.1943(7) 0.0798(5)
N7 N 0.6007(12) 0.1734(7) 0.1321(6)
N8 N 0.4593(11) 0.1263(8) 0.1382(6)
N9 N 0.5761(11) 0.0336(9) 0.1899(5)
N10 N 0.7143(9) 0.0772(7) 0.1807(5)
N11 N 0.8130(11) 0.0940(6) 0.1225(5)
N12 N 0.8489(11) 0.0761(6) 0.0500(5)
N13 N 0.8181(10) 0.0143(7) -0.0341(5)
N14 N 0.6963(11) -0.0521(8) -0.0970(5)
O9 O 0.5006(10) 0.1323(6) -0.1281(5)
O10 O 0.5775(11) 0.2267(6) -0.0068(5)
O11 O 0.4259(10) 0.2000(6) 0.0650(5)
O12 O 0.7122(8) -0.0341(6) 0.1837(4)
O13 O 0.8430(8) -0.0104(5) 0.1048(4)
O14 O 0.8130(9) -0.0909(6) -0.0114(5)
C21B C 0.4216(14) -0.0949(12) 0.1206(8)
C22B C 0.2839(18) -0.1735(7) 0.0538(6)
H27B H 0.2134 -0.1874 0.0559
H28B H 0.3432 -0.2067 0.0758
C23B C 0.3346(16) -0.1997(9) -0.0243(9)
C24B C 0.3391(14) -0.2246(8) -0.1156(8)
H29B H 0.2785 -0.2445 -0.1504
H30B H 0.3917 -0.2613 -0.0942
C25B C 0.5135(16) -0.1714(10) -0.1066(9)
C26B C 0.6527(15) -0.1138(9) -0.1245(8)
H31B H 0.6983 -0.1509 -0.0995
H32B H 0.6629 -0.1154 -0.1603
C27B C 0.3112(13) -0.0088(10) 0.1280(7)
H33B H 0.2876 -0.0021 0.1596
C28B C 0.2372(12) -0.0585(7) 0.0841(6)
H34B H 0.1822 -0.0812 0.0957
C29B C 0.1615(12) -0.1493(6) -0.0527(6)
H35B H 0.0940 -0.1735 -0.0537
C30B C 0.1786(11) -0.1623(6) -0.1033(7)
H36B H 0.1179 -0.1903 -0.1328
C31B C 0.3480(14) -0.1357(11) -0.1835(7)
H37B H 0.3033 -0.1651 -0.2172
C32B C 0.4490(15) -0.1059(11) -0.1873(7)
H38B H 0.4554 -0.1215 -0.2226
C33B C 0.2166(13) 0.0497(9) 0.0424(7)
C34B C 0.1024(14) -0.0418(9) -0.0181(7)
H39B H 0.0533 -0.0737 -0.0099
H40B H 0.0542 -0.0047 -0.0419
C35B C 0.1646(12) -0.0446(9) -0.0947(6)
C36B C 0.1754(9) -0.0840(9) -0.1810(5)
H41B H 0.1303 -0.0428 -0.1976
H42B H 0.1353 -0.1231 -0.2051
C37B C 0.3220(14) -0.0177(10) -0.1842(7)
C38B C 0.4869(15) 0.0201(10) -0.1988(7)
H43B H 0.4368 0.0597 -0.2147
H44B H 0.5141 0.0057 -0.2273
N3B N 0.4207(11) -0.0394(8) 0.1481(5)
N4B N 0.3174(12) -0.1058(6) 0.0791(6)
N5B N 0.2665(11) -0.1732(7) -0.0059(5)
N6B N 0.2904(10) -0.1943(7) -0.0798(5)
N7B N 0.3993(12) -0.1734(7) -0.1321(6)
N8B N 0.5407(11) -0.1263(8) -0.1382(6)
N9B N 0.4239(11) -0.0336(9) -0.1899(5)
N10B N 0.2857(9) -0.0772(7) -0.1807(5)
N11B N 0.1870(11) -0.0940(6) -0.1225(5)
N12B N 0.1511(11) -0.0761(6) -0.0500(5)
N13B N 0.1819(10) -0.0143(7) 0.0341(5)
N14B N 0.3037(11) 0.0521(8) 0.0970(5)
O9B O 0.4994(10) -0.1323(6) 0.1281(5)
O10B O 0.4225(11) -0.2267(6) 0.0068(5)
O11B O 0.5741(10) -0.2000(6) -0.0650(5)
O12B O 0.2878(8) 0.0341(6) -0.1837(4)
O13B O 0.1570(8) 0.0104(5) -0.1048(4)
O14B O 0.1870(9) 0.0909(6) 0.0114(5)
C39 C -0.171(2) 0.3969(12) 0.0832(13)
C40 C -0.0375(19) 0.3090(10) 0.1116(10)
H45 H -0.0140 0.2833 0.1478
H46 H -0.1020 0.2847 0.0818
C41 C 0.0488(16) 0.2849(9) 0.0452(8)
C42 C 0.1625(16) 0.2554(7) -0.0027(6)
H47 H 0.2309 0.2268 0.0128
H48 H 0.0985 0.2271 -0.0283
C43 C 0.0897(16) 0.3352(9) -0.0849(7)
C44 C 0.0695(14) 0.4060(7) -0.1661(5)
H49 H 0.1165 0.4064 -0.1874
H50 H 0.0038 0.3763 -0.1868
C45 C -0.0235(19) 0.4131(9) 0.1711(7)
H51 H -0.0142 0.3847 0.2048
C46 C 0.1718(12) 0.3082(7) 0.1379(7)
H52 H 0.1895 0.2739 0.1690
C47 C 0.2330(13) 0.2974(9) 0.1001(6)
H53 H 0.2898 0.2601 0.1146
C48 C 0.2861(13) 0.3412(8) -0.0267(7)
H54 H 0.3457 0.3075 -0.0227
C49 C 0.2537(15) 0.3868(9) -0.0770(8)
H55 H 0.2930 0.3738 -0.1011
C50 C 0.0989(13) 0.5331(8) -0.1637(6)
H56 H 0.1246 0.5307 -0.1948
C51 C 0.0778(14) 0.5117(8) 0.1761(7)
C52 C 0.1909(14) 0.4097(9) 0.2037(6)
H57 H 0.1936 0.3755 0.2322
H58 H 0.2504 0.4437 0.2234
C53 C 0.2663(17) 0.4023(11) 0.1394(9)
C54 C 0.3730(14) 0.3722(10) 0.0794(6)
H59 H 0.4161 0.3297 0.0842
H60 H 0.4258 0.4077 0.1029
C55 C 0.3299(16) 0.4539(14) 0.0049(8)
C56 C 0.2980(14) 0.5118(9) -0.0832(7)
H61 H 0.3575 0.5415 -0.0558
H62 H 0.3198 0.4989 -0.1140
N15 N -0.0754(16) 0.3756(8) 0.1196(8)
N16 N 0.0307(12) 0.4748(5) -0.1632(6)
N17 N 0.0541(12) 0.3090(6) 0.0953(6)
N18 N 0.1398(11) 0.2808(7) 0.0452(5)
N19 N 0.1786(10) 0.3112(7) -0.0355(5)
N20 N 0.1360(10) 0.3793(7) -0.1077(5)
N21 N 0.0805(12) 0.4426(8) 0.1791(6)
N22 N 0.1906(12) 0.5475(7) -0.1075(5)
N23 N 0.2113(14) 0.3768(7) 0.1581(5)
N24 N 0.2843(13) 0.3621(7) 0.0985(6)
N25 N 0.3222(13) 0.3925(9) 0.0186(5)
N26 N 0.2858(12) 0.4514(8) -0.0538(6)
O15 O -0.2333(13) 0.3691(7) 0.0416(7)
O16 O -0.0416(12) 0.2696(6) 0.0061(6)
O17 O -0.0027(8) 0.3193(6) -0.1017(4)
O18 O 0.3593(10) 0.5013(7) 0.0350(6)
O19 O 0.3133(11) 0.4587(7) 0.1473(5)
O20 O 0.1472(8) 0.5491(5) 0.1808(4)
C39B C 0.171(2) 0.6031(12) -0.0832(13)
C40B C 0.0375(19) 0.6910(10) -0.1116(10)
H45B H 0.0140 0.7167 -0.1478
H46B H 0.1020 0.7153 -0.0818
C41B C -0.0488(16) 0.7151(9) -0.0452(8)
C42B C -0.1625(16) 0.7446(7) 0.0027(6)
H47B H -0.2309 0.7732 -0.0128
H48B H -0.0985 0.7729 0.0283
C43B C -0.0897(16) 0.6648(9) 0.0849(7)
C44B C -0.0695(14) 0.5940(7) 0.1661(5)
H49B H -0.1165 0.5936 0.1874
H50B H -0.0038 0.6237 0.1868
C45B C 0.0235(19) 0.5869(9) -0.1711(7)
H51B H 0.0142 0.6153 -0.2048
C46B C -0.1718(12) 0.6918(7) -0.1379(7)
H52B H -0.1895 0.7261 -0.1690
C47B C -0.2330(13) 0.7026(9) -0.1001(6)
H53B H -0.2898 0.7399 -0.1146
C48B C -0.2861(13) 0.6588(8) 0.0267(7)
H54B H -0.3457 0.6925 0.0227
C49B C -0.2537(15) 0.6132(9) 0.0770(8)
H55B H -0.2930 0.6262 0.1011
C50B C -0.0989(13) 0.4669(8) 0.1637(6)
H56B H -0.1246 0.4693 0.1948
C51B C -0.0778(14) 0.4883(8) -0.1761(7)
C52B C -0.1909(14) 0.5903(9) -0.2037(6)
H57B H -0.1936 0.6245 -0.2322
H58B H -0.2504 0.5563 -0.2234
C53B C -0.2663(17) 0.5977(11) -0.1394(9)
C54B C -0.3730(14) 0.6278(10) -0.0794(6)
H59B H -0.4161 0.6703 -0.0842
H60B H -0.4258 0.5923 -0.1029
C55B C -0.3299(16) 0.5461(14) -0.0049(8)
C56B C -0.2980(14) 0.4882(9) 0.0832(7)
H61B H -0.3575 0.4585 0.0558
H62B H -0.3198 0.5011 0.1140
N15B N 0.0754(16) 0.6244(8) -0.1196(8)
N16B N -0.0307(12) 0.5252(5) 0.1632(6)
N17B N -0.0541(12) 0.6910(6) -0.0953(6)
N18B N -0.1398(11) 0.7192(7) -0.0452(5)
N19B N -0.1786(10) 0.6888(7) 0.0355(5)
N20B N -0.1360(10) 0.6207(7) 0.1077(5)
N21B N -0.0805(12) 0.5574(8) -0.1791(6)
N22B N -0.1906(12) 0.4525(7) 0.1075(5)
N23B N -0.2113(14) 0.6232(7) -0.1581(5)
N24B N -0.2843(13) 0.6379(7) -0.0985(6)
N25B N -0.3222(13) 0.6075(9) -0.0186(5)
N26B N -0.2858(12) 0.5486(8) 0.0538(6)
O15B O 0.2333(13) 0.6309(7) -0.0416(7)
O16B O 0.0416(12) 0.7304(6) -0.0061(6)
O17B O 0.0027(8) 0.6807(6) 0.1017(4)
O18B O -0.3593(10) 0.4987(7) -0.0350(6)
O19B O -0.3133(11) 0.5413(7) -0.1473(5)
O20B O -0.1472(8) 0.4509(5) -0.1808(4)
loop_
_geom_bond_atom_site_label_1
_geom_bond_atom_site_label_2
_geom_bond_site_symmetry_1
_geom_bond_site_symmetry_2
U1 O1 1_555 1_555
C1 C2 1_555 1_555
C2 C3 1_555 1_555
C3 H1 1_555 1_555
C4 C3 1_555 1_555
H2 C4 1_555 1_555
C5 C4 1_555 1_555
H3 C5 1_555 1_555
C6 C5 1_555 1_555
C7 C2 1_555 1_555
H4 C7 1_555 1_555
C8 C6 1_555 1_555
H5 C8 1_555 1_555
H6 C8 1_555 1_555
C9 H7 1_555 1_555
H8 C9 1_555 1_555
C10 C9 1_555 1_555
H9 C10 1_555 1_555
H10 C10 1_555 1_555
C11 C12 1_555 1_555
C12 C13 1_555 1_555
C13 H11 1_555 1_555
C14 C13 1_555 1_555
H12 C14 1_555 1_555
C15 C14 1_555 1_555
H13 C15 1_555 1_555
C16 C15 1_555 1_555
C17 C12 1_555 1_555
H14 C17 1_555 1_555
C18 C16 1_555 1_555
H15 C18 1_555 1_555
H16 C18 1_555 1_555
C19 H17 1_555 1_555
H18 C19 1_555 1_555
C20 C19 1_555 1_555
H19 C20 1_555 1_555
H20 C20 1_555 1_555
N1 C8 1_555 1_555
H21 N1 1_555 1_555
N2 C18 1_555 1_555
H22 N2 1_555 1_555
O2 U1 1_555 1_555
O3 U1 1_555 1_555
O4 U1 1_555 1_555
O5 U1 1_555 1_555
O6 C11 1_555 1_555
O7 U1 1_555 1_555
H23 O7 1_555 1_555
H24 O7 1_555 1_555
O8 U1 1_555 1_555
H25 O8 1_555 1_555
H26 O8 1_555 1_555
C21 N3 1_555 1_555
C22 H27 1_555 1_555
H28 C22 1_555 1_555
C23 N5 1_555 1_555
C24 H29 1_555 1_555
H30 C24 1_555 1_555
C25 N7 1_555 1_555
C26 H31 1_555 1_555
H32 C26 1_555 1_555
C27 H33 1_555 1_555
C28 C27 1_555 1_555
H34 C28 1_555 1_555
C29 H35 1_555 1_555
C30 C29 1_555 1_555
H36 C30 1_555 1_555
C31 H37 1_555 1_555
C32 C31 1_555 1_555
H38 C32 1_555 1_555
C33 N13 1_555 1_555
C34 H39 1_555 1_555
H40 C34 1_555 1_555
C35 N11 1_555 1_555
C36 H41 1_555 1_555
H42 C36 1_555 1_555
C37 N9 1_555 1_555
C38 H43 1_555 1_555
H44 C38 1_555 1_555
N3 C27 1_555 1_555
N4 C21 1_555 1_555
N5 C22 1_555 1_555
N6 C23 1_555 1_555
N7 C24 1_555 1_555
N8 C25 1_555 1_555
N9 C32 1_555 1_555
N10 C31 1_555 1_555
N11 C30 1_555 1_555
N12 C29 1_555 1_555
N13 C28 1_555 1_555
N14 C27 1_555 1_555
O9 C21 1_555 1_555
O10 C23 1_555 1_555
O11 C25 1_555 1_555
O12 C37 1_555 1_555
O13 C35 1_555 1_555
O14 C33 1_555 1_555
C39 N15 1_555 1_555
C40 H45 1_555 1_555
H46 C40 1_555 1_555
C41 N17 1_555 1_555
C42 H47 1_555 1_555
H48 C42 1_555 1_555
C43 N19 1_555 1_555
C44 H49 1_555 1_555
H50 C44 1_555 1_555
C45 H51 1_555 1_555
C46 H52 1_555 1_555
C47 C46 1_555 1_555
H53 C47 1_555 1_555
C48 H54 1_555 1_555
C49 C48 1_555 1_555
H55 C49 1_555 1_555
C50 H56 1_555 1_555
C51 N21 1_555 1_555
C52 H57 1_555 1_555
H58 C52 1_555 1_555
C53 N23 1_555 1_555
C54 H59 1_555 1_555
H60 C54 1_555 1_555
C55 N25 1_555 1_555
C56 H61 1_555 1_555
H62 C56 1_555 1_555
N15 C40 1_555 1_555
N16 C44 1_555 1_555
N17 C40 1_555 1_555
N18 C41 1_555 1_555
N19 C42 1_555 1_555
N20 C43 1_555 1_555
N21 C45 1_555 1_555
N22 C50 1_555 1_555
N23 C46 1_555 1_555
N24 C47 1_555 1_555
N25 C48 1_555 1_555
N26 C49 1_555 1_555
O15 C39 1_555 1_555
O16 C41 1_555 1_555
O17 C43 1_555 1_555
O18 C55 1_555 1_555
O19 C53 1_555 1_555
O20 C51 1_555 1_555
C1B C2B 1_555 1_555
C2B C3B 1_555 1_555
C3B H1B 1_555 1_555
C4B C3B 1_555 1_555
H2B C4B 1_555 1_555
C5B C4B 1_555 1_555
H3B C5B 1_555 1_555
C6B C5B 1_555 1_555
C7B C2B 1_555 1_555
H4B C7B 1_555 1_555
C8B C6B 1_555 1_555
H5B C8B 1_555 1_555
H6B C8B 1_555 1_555
C9B H7B 1_555 1_555
H8B C9B 1_555 1_555
C10B C10 1_555 1_555
H9B C10B 1_555 1_555
H10B C10B 1_555 1_555
N1B C8B 1_555 1_555
H21B N1B 1_555 1_555
O3B C1B 1_555 1_555
O4B C1B 1_555 1_555
C11B C12B 1_555 1_555
C12B C13B 1_555 1_555
C13B H11B 1_555 1_555
C14B C13B 1_555 1_555
H12B C14B 1_555 1_555
C15B C14B 1_555 1_555
H13B C15B 1_555 1_555
C16B C15B 1_555 1_555
C17B C12B 1_555 1_555
H14B C17B 1_555 1_555
C18B C16B 1_555 1_555
H15B C18B 1_555 1_555
H16B C18B 1_555 1_555
C19B H17B 1_555 1_555
H18B C19B 1_555 1_555
C20B C20 1_555 1_555
H19B C20B 1_555 1_555
H20B C20B 1_555 1_555
N2B C18B 1_555 1_555
H22B N2B 1_555 1_555
O5B C11B 1_555 1_555
O6B C11B 1_555 1_555
U1B O5B 1_555 1_555
O1B U1B 1_555 1_555
O2B U1B 1_555 1_555
O7B U1B 1_555 1_555
H23B O7B 1_555 1_555
H24B O7B 1_555 1_555
O8B U1B 1_555 1_555
H25B O8B 1_555 1_555
H26B O8B 1_555 1_555
U1B_2 O3B 1_555 1_555
O3B_2 U1B 1_555 1_555
O4B_2 U1B 1_555 1_555
C21B N3B 1_555 1_555
C22B H27B 1_555 1_555
H28B C22B 1_555 1_555
C23B N5B 1_555 1_555
C24B H29B 1_555 1_555
H30B C24B 1_555 1_555
C25B N7B 1_555 1_555
C26B N14 1_555 1_555
H31B C26B 1_555 1_555
H32B C26B 1_555 1_555
C27B H33B 1_555 1_555
C28B C27B 1_555 1_555
H34B C28B 1_555 1_555
C29B H35B 1_555 1_555
C30B C29B 1_555 1_555
H36B C30B 1_555 1_555
C31B H37B 1_555 1_555
C32B C31B 1_555 1_555
H38B C32B 1_555 1_555
C33B N13B 1_555 1_555
C34B H39B 1_555 1_555
H40B C34B 1_555 1_555
C35B N11B 1_555 1_555
C36B H41B 1_555 1_555
H42B C36B 1_555 1_555
C37B N9B 1_555 1_555
C38B N3 1_555 1_555
H43B C38B 1_555 1_555
H44B C38B 1_555 1_555
N3B C38 1_555 1_555
N4B C21B 1_555 1_555
N5B C22B 1_555 1_555
N6B C23B 1_555 1_555
N7B C24B 1_555 1_555
N8B C25B 1_555 1_555
N9B C32B 1_555 1_555
N10B C31B 1_555 1_555
N11B C30B 1_555 1_555
N12B C29B 1_555 1_555
N13B C28B 1_555 1_555
N14B C26 1_555 1_555
O9B C21B 1_555 1_555
O10B C23B 1_555 1_555
O11B C25B 1_555 1_555
O12B C37B 1_555 1_555
O13B C35B 1_555 1_555
O14B C33B 1_555 1_555
C39B N22 1_555 1_555
C40B H45B 1_555 1_555
H46B C40B 1_555 1_555
C41B N17B 1_555 1_555
C42B H47B 1_555 1_555
H48B C42B 1_555 1_555
C43B N19B 1_555 1_555
C44B H49B 1_555 1_555
H50B C44B 1_555 1_555
C45B C50 1_555 1_555
H51B C45B 1_555 1_555
C46B H52B 1_555 1_555
C47B C46B 1_555 1_555
H53B C47B 1_555 1_555
C48B H54B 1_555 1_555
C49B C48B 1_555 1_555
H55B C49B 1_555 1_555
C50B C45 1_555 1_555
H56B C50B 1_555 1_555
C51B N16 1_555 1_555
C52B H57B 1_555 1_555
H58B C52B 1_555 1_555
C53B N23B 1_555 1_555
C54B H59B 1_555 1_555
H60B C54B 1_555 1_555
C55B N25B 1_555 1_555
C56B H61B 1_555 1_555
H62B C56B 1_555 1_555
N15B C39B 1_555 1_555
N16B C51 1_555 1_555
N17B C40B 1_555 1_555
N18B C41B 1_555 1_555
N19B C42B 1_555 1_555
N20B C43B 1_555 1_555
N21B C45B 1_555 1_555
N22B C39 1_555 1_555
N23B C46B 1_555 1_555
N24B C47B 1_555 1_555
N25B C48B 1_555 1_555
N26B C49B 1_555 1_555
O15B C39B 1_555 1_555
O16B C41B 1_555 1_555
O17B C43B 1_555 1_555
O18B C55B 1_555 1_555
O19B C53B 1_555 1_555
O20B C51B 1_555 1_555
C1 O3 1_555 1_555
C1 O4 1_555 1_555
C6 C7 1_555 1_555
C9 N1 1_555 1_555
C11 O5 1_555 1_555
C16 C17 1_555 1_555
C19 N2 1_555 1_555
C22 N4 1_555 1_555
C24 N6 1_555 1_555
C26 N8 1_555 1_555
C28 N4 1_555 1_555
C29 N5 1_555 1_555
C30 N6 1_555 1_555
C31 N7 1_555 1_555
C32 N8 1_555 1_555
C33 N14 1_555 1_555
C34 N12 1_555 1_555
C34 N13 1_555 1_555
C35 N12 1_555 1_555
C36 N10 1_555 1_555
C36 N11 1_555 1_555
C37 N10 1_555 1_555
C38 N9 1_555 1_555
C42 N18 1_555 1_555
C44 N20 1_555 1_555
C45 N15 1_555 1_555
C46 N17 1_555 1_555
C47 N18 1_555 1_555
C48 N19 1_555 1_555
C49 N20 1_555 1_555
C50 N16 1_555 1_555
C52 N21 1_555 1_555
C52 N23 1_555 1_555
C53 N24 1_555 1_555
C54 N24 1_555 1_555
C54 N25 1_555 1_555
C55 N26 1_555 1_555
C56 N22 1_555 1_555
C56 N26 1_555 1_555
C6B C7B 1_555 1_555
C9B C10B 1_555 1_555
C9B N1B 1_555 1_555
O4B U1B_2 1_555 1_555
C16B C17B 1_555 1_555
C19B C20B 1_555 1_555
C19B N2B 1_555 1_555
C22B N4B 1_555 1_555
C24B N6B 1_555 1_555
C26B N8B 1_555 1_555
C27B N3B 1_555 1_555
C27B N14B 1_555 1_555
C28B N4B 1_555 1_555
C29B N5B 1_555 1_555
C30B N6B 1_555 1_555
C31B N7B 1_555 1_555
C32B N8B 1_555 1_555
C33B N14B 1_555 1_555
C34B N12B 1_555 1_555
C34B N13B 1_555 1_555
C35B N12B 1_555 1_555
C36B N10B 1_555 1_555
C36B N11B 1_555 1_555
C37B N10B 1_555 1_555
C38B N9B 1_555 1_555
C40B N15B 1_555 1_555
C42B N18B 1_555 1_555
C44B N16B 1_555 1_555
C44B N20B 1_555 1_555
C45B N15B 1_555 1_555
C46B N17B 1_555 1_555
C47B N18B 1_555 1_555
C48B N19B 1_555 1_555
C49B N20B 1_555 1_555
C50B N16B 1_555 1_555
C50B N22B 1_555 1_555
C51B N21B 1_555 1_555
C52B N21B 1_555 1_555
C52B N23B 1_555 1_555
C53B N24B 1_555 1_555
C54B N24B 1_555 1_555
C54B N25B 1_555 1_555
C55B N26B 1_555 1_555
C56B N22B 1_555 1_555
C56B N26B 1_555 1_555

#END
