
#######################################################################
#
#                 Cambridge Crystallographic Data Centre
#                                CCDC 
#
#######################################################################
#
# If this CIF has been generated from an entry in the Cambridge 
# Structural Database, then it will include bibliographic, chemical, 
# crystal, experimental, refinement or atomic coordinate data resulting 
# from the CCDC's data processing and validation procedures.
#
#######################################################################

data_LIXDOM
_symmetry_cell_setting           triclinic
_symmetry_space_group_name_H-M   'P -1'
_symmetry_Int_Tables_number      2
_space_group_name_Hall           '-P 1'
loop_
_symmetry_equiv_pos_site_id
_symmetry_equiv_pos_as_xyz
1 x,y,z
2 -x,-y,-z
_cell_length_a                   9.1578(7)
_cell_length_b                   9.9548(8)
_cell_length_c                   12.6503(11)
_cell_angle_alpha                102.1310(10)
_cell_angle_beta                 103.2110(10)
_cell_angle_gamma                109.3780(10)
_cell_volume                     1006.47
loop_
_atom_site_label
_atom_site_type_symbol
_atom_site_fract_x
_atom_site_fract_y
_atom_site_fract_z
La1 La 0.275627(17) 0.039353(16) -0.026722(12)
C1 C 0.4083(3) 0.1923(3) 0.2266(2)
C2 C 0.4849(4) 0.2653(3) 0.3530(2)
C3 C 0.6314(4) 0.3897(4) 0.3961(3)
H1 H 0.6830 0.4263 0.3467
C4 C 0.7015(4) 0.4601(4) 0.5130(3)
C5 C 0.6254(5) 0.4053(5) 0.5871(3)
H2 H 0.6722 0.4525 0.6655
C6 C 0.4793(5) 0.2802(5) 0.5437(3)
C7 C 0.4092(4) 0.2098(4) 0.4270(3)
H3 H 0.3113 0.1254 0.3982
C8 C 0.8555(5) 0.5978(4) 0.5603(3)
C9 C 0.0840(3) 0.2754(3) 0.0558(2)
C10 C 0.1230(3) 0.4392(3) 0.0984(2)
C11 C 0.2610(3) 0.5374(3) 0.0844(2)
H4 H 0.3273 0.5006 0.0523
C12 C 0.2993(3) 0.6899(3) 0.1184(2)
C13 C 0.2025(3) 0.7453(3) 0.1687(2)
H5 H 0.2286 0.8478 0.1919
C14 C 0.0670(3) 0.6473(3) 0.1842(2)
C15 C 0.0257(3) 0.4935(3) 0.1482(2)
H6 H -0.0665 0.4279 0.1575
C16 C 0.4400(3) 0.7897(3) 0.0938(2)
O1 O 0.2660(2) 0.0915(2) 0.18496(17)
O2 O 0.4924(2) 0.2339(2) 0.16292(16)
O3 O 0.9125(4) 0.6411(4) 0.4809(2)
H7 H 0.9942 0.7196 0.5109
O4 O 0.9210(3) 0.6658(3) 0.6607(2)
O5 O 0.4016(6) 0.2247(5) 0.6150(3)
H8 H 0.4133 0.2942 0.6687
O6 O 0.1819(3) 0.2378(2) 0.0157(2)
O7 O -0.0449(3) 0.1829(2) 0.06105(19)
O8 O 0.5644(3) 0.7594(2) 0.1012(2)
O9 O 0.4339(2) 0.9016(2) 0.06258(17)
O10 O -0.0232(3) 0.7084(2) 0.2349(2)
H9 H -0.1139 0.6433 0.2218
O11 O 0.0495(3) 0.0221(2) -0.20972(19)
O12 O 0.2491(3) -0.1468(3) -0.21077(19)
H10 H 0.1541 -0.2091 -0.2541
H11 H -0.0477 -0.0338 -0.2162
H14 H 0.3198 -0.1843 -0.1995
H15 H 0.0569 0.1107 -0.2042
La1A La -0.275627(17) -0.039353(16) 0.026722(12)
La1A_2 La 0.724373(17) 0.960647(16) 0.026722(12)
La1_2 La 0.275627(17) 1.039353(16) -0.026722(12)
O7A O 0.0449(3) -0.1829(2) -0.06105(19)
O8A O 0.4356(3) 0.2406(2) -0.1012(2)
O9_2 O 0.4339(2) -0.0984(2) 0.06258(17)
O9A O 0.5661(2) 0.0984(2) -0.06258(17)
O13 O 0.8921(5) 0.0508(4) 0.4310(3)
H13 H 0.8400 0.1018 0.4568
H17 H 0.8637 -0.0419 0.4230
O14 O 0.6531(3) 0.5505(3) 0.1863(3)
H12 H 0.5817 0.4614 0.1654
H16 H 0.6040 0.6013 0.1599
loop_
_geom_bond_atom_site_label_1
_geom_bond_atom_site_label_2
_geom_bond_site_symmetry_1
_geom_bond_site_symmetry_2
La1 O1 1_555 1_555
C1 C2 1_555 1_555
C2 C3 1_555 1_555
C3 H1 1_555 1_555
C4 C3 1_555 1_555
C5 C4 1_555 1_555
H2 C5 1_555 1_555
C6 C5 1_555 1_555
C7 C2 1_555 1_555
H3 C7 1_555 1_555
C8 C4 1_555 1_555
C9 C10 1_555 1_555
C10 C11 1_555 1_555
C11 H4 1_555 1_555
C12 C11 1_555 1_555
C13 C12 1_555 1_555
H5 C13 1_555 1_555
C14 C13 1_555 1_555
C15 C10 1_555 1_555
H6 C15 1_555 1_555
C16 C12 1_555 1_555
O1 C1 1_555 1_555
O2 La1 1_555 1_555
O3 C8 1_555 1_555
H7 O3 1_555 1_555
O4 C8 1_555 1_555
O5 C6 1_555 1_555
H8 O5 1_555 1_555
O6 La1 1_555 1_555
O7 C9 1_555 1_555
O8 C16 1_555 1_555
O9 C16 1_555 1_555
O10 C14 1_555 1_555
H9 O10 1_555 1_555
O11 La1 1_555 1_555
O12 La1 1_555 1_555
O13 H13 1_555 1_555
O14 H12 1_555 1_555
H10 O12 1_555 1_555
H11 O11 1_555 1_555
H14 O12 1_555 1_555
H15 O11 1_555 1_555
H16 O14 1_555 1_555
H17 O13 1_555 1_555
La1A O7 1_555 1_555
La1A_2 O8 1_555 1_555
La1_2 O9 1_555 1_555
O7A La1 1_555 1_555
O8A La1 1_555 1_555
O9_2 La1 1_555 1_555
O9A La1 1_555 1_555
C1 O2 1_555 1_555
C6 C7 1_555 1_555
C9 O6 1_555 1_555
C14 C15 1_555 1_555
O9 La1A_2 1_555 1_555

#END
