
#######################################################################
#
#                 Cambridge Crystallographic Data Centre
#                                CCDC 
#
#######################################################################
#
# If this CIF has been generated from an entry in the Cambridge 
# Structural Database, then it will include bibliographic, chemical, 
# crystal, experimental, refinement or atomic coordinate data resulting 
# from the CCDC's data processing and validation procedures.
#
#######################################################################

data_LIXDAZ
_symmetry_cell_setting           monoclinic
_symmetry_space_group_name_H-M   'C 2/c'
_symmetry_Int_Tables_number      15
_space_group_name_Hall           '-C 2yn'
loop_
_symmetry_equiv_pos_site_id
_symmetry_equiv_pos_as_xyz
1 x,y,z
2 -x,y,1/2-z
3 1/2+x,1/2+y,z
4 1/2-x,1/2+y,1/2-z
5 -x,-y,-z
6 x,-y,1/2+z
7 1/2-x,1/2-y,-z
8 1/2+x,1/2-y,1/2+z
_cell_length_a                   29.665(6)
_cell_length_b                   9.1754(18)
_cell_length_c                   16.300(3)
_cell_angle_alpha                90
_cell_angle_beta                 112.97(3)
_cell_angle_gamma                90
_cell_volume                     4084.88
loop_
_atom_site_label
_atom_site_type_symbol
_atom_site_fract_x
_atom_site_fract_y
_atom_site_fract_z
Tb1 Tb 0.497418(15) 0.66412(6) 0.40807(3)
O1 O 0.5606(2) 0.4902(10) 0.4418(5)
O2 O 0.5584(2) 0.3013(10) 0.5265(5)
O3 O 0.7309(2) 0.1364(7) 0.6713(4)
O4 O 0.7348(2) 0.5436(8) 0.4886(4)
O5 O 0.9351(2) 0.7805(9) 0.7746(4)
O6 O 0.9550(2) 0.7434(9) 0.6593(4)
O7 O 0.4841(3) 0.9325(11) 0.4094(6)
C1 C 0.5800(3) 0.3846(13) 0.4946(7)
C2 C 0.6343(3) 0.3653(10) 0.5210(6)
C3 C 0.6581(3) 0.2563(11) 0.5815(6)
H1 H 0.6406 0.1913 0.6014
C4 C 0.7083(3) 0.2464(10) 0.6113(6)
C5 C 0.7347(3) 0.3389(10) 0.5785(6)
H2 H 0.7682 0.3267 0.5954
C6 C 0.7103(3) 0.4480(11) 0.5211(6)
C7 C 0.6601(3) 0.4630(11) 0.4902(6)
C8 C 0.7811(3) 0.1510(10) 0.7236(6)
C9 C 0.8101(3) 0.0359(11) 0.7241(6)
H3 H 0.7972 -0.0439 0.6871
C10 C 0.8591(3) 0.0398(12) 0.7808(6)
H4 H 0.8791 -0.0396 0.7834
C11 C 0.8785(3) 0.1601(11) 0.8332(6)
C12 C 0.8483(3) 0.2758(12) 0.8291(6)
H5 H 0.8612 0.3580 0.8637
C13 C 0.7990(3) 0.2720(11) 0.7744(6)
H6 H 0.7786 0.3501 0.7723
C14 C 0.7813(3) 0.5855(10) 0.5429(6)
C15 C 0.7938(3) 0.6224(11) 0.6313(6)
H7 H 0.7708 0.6152 0.6567
C16 C 0.8404(3) 0.6696(10) 0.6814(6)
H8 H 0.8491 0.6919 0.7413
C17 C 0.8751(3) 0.6846(10) 0.6431(6)
C18 C 0.8614(3) 0.6502(12) 0.5546(6)
H9 H 0.8837 0.6613 0.5278
C19 C 0.8149(3) 0.5994(12) 0.5049(6)
H10 H 0.8063 0.5745 0.4454
O8 O 0.9441(2) 0.2572(11) 0.9569(5)
C20 C 0.9253(3) 0.7416(11) 0.6961(6)
O9 O 0.9578(2) 0.0554(10) 0.8982(6)
C21 C 0.9304(3) 0.1589(13) 0.8995(7)
Tb1C Tb 1.002582(15) 0.16412(6) 1.09193(3)
Tb1D Tb 0.502582(15) 0.33588(6) 0.59193(3)
Tb1F Tb 1.002582(15) 0.83588(6) 0.59193(3)
Tb1G Tb 0.997418(15) -0.16412(6) 0.90807(3)
Tb1G_2 Tb 0.997418(15) 0.83588(6) 0.90807(3)
O2D O 0.4416(2) 0.6987(10) 0.4735(5)
O5G O 0.4351(2) 0.7195(9) 0.2746(4)
O6F O 0.5450(2) 0.7566(9) 0.3407(4)
O8C O 0.5559(2) 0.7572(11) 0.5431(5)
O9G O 0.4578(2) 0.4446(10) 0.3982(6)
loop_
_geom_bond_atom_site_label_1
_geom_bond_atom_site_label_2
_geom_bond_site_symmetry_1
_geom_bond_site_symmetry_2
Tb1 O1 1_555 1_555
O1 C1 1_555 1_555
O2 C1 1_555 1_555
O3 C4 1_555 1_555
O4 C6 1_555 1_555
O5 C20 1_555 1_555
O6 C20 1_555 1_555
O7 Tb1 1_555 1_555
C1 C2 1_555 1_555
C2 C3 1_555 1_555
C3 H1 1_555 1_555
C4 C3 1_555 1_555
C5 C4 1_555 1_555
H2 C5 1_555 1_555
C6 C5 1_555 1_555
C7 C2 1_555 1_555
C8 O3 1_555 1_555
C9 C8 1_555 1_555
H3 C9 1_555 1_555
C10 C9 1_555 1_555
H4 C10 1_555 1_555
C11 C10 1_555 1_555
C12 C11 1_555 1_555
H5 C12 1_555 1_555
C13 C8 1_555 1_555
H6 C13 1_555 1_555
C14 O4 1_555 1_555
C15 C14 1_555 1_555
H7 C15 1_555 1_555
C16 C15 1_555 1_555
H8 C16 1_555 1_555
C17 C16 1_555 1_555
C18 C17 1_555 1_555
H9 C18 1_555 1_555
C19 C14 1_555 1_555
H10 C19 1_555 1_555
O8 C21 1_555 1_555
C20 C17 1_555 1_555
O9 C21 1_555 1_555
C21 C11 1_555 1_555
Tb1C O8 1_555 1_555
Tb1D O2 1_555 1_555
Tb1F O6 1_555 1_555
Tb1G O9 1_555 1_555
Tb1G_2 O5 1_555 1_555
O2D Tb1 1_555 1_555
O5G Tb1 1_555 1_555
O6F Tb1 1_555 1_555
O8C Tb1 1_555 1_555
O9G Tb1 1_555 1_555
C6 C7 1_555 1_555
C12 C13 1_555 1_555
C18 C19 1_555 1_555

#END
