
#######################################################################
#
#                 Cambridge Crystallographic Data Centre
#                                CCDC 
#
#######################################################################
#
# If this CIF has been generated from an entry in the Cambridge 
# Structural Database, then it will include bibliographic, chemical, 
# crystal, experimental, refinement or atomic coordinate data resulting 
# from the CCDC's data processing and validation procedures.
#
#######################################################################

data_LIXFII
_symmetry_cell_setting           tetragonal
_symmetry_space_group_name_H-M   'P 43 21 2'
_symmetry_Int_Tables_number      96
_space_group_name_Hall           'P 4nw 2abw'
loop_
_symmetry_equiv_pos_site_id
_symmetry_equiv_pos_as_xyz
1 x,y,z
2 -x,-y,1/2+z
3 1/2-y,1/2+x,3/4+z
4 1/2+y,1/2-x,1/4+z
5 1/2-x,1/2+y,3/4-z
6 1/2+x,1/2-y,1/4-z
7 y,x,-z
8 -y,-x,1/2-z
_cell_length_a                   10.5677(14)
_cell_length_b                   10.5677(14)
_cell_length_c                   20.228(6)
_cell_angle_alpha                90
_cell_angle_beta                 90
_cell_angle_gamma                90
_cell_volume                     2258.99
loop_
_atom_site_label
_atom_site_type_symbol
_atom_site_fract_x
_atom_site_fract_y
_atom_site_fract_z
Co1 Co 0.82385(7) 0.82385(7) 0.5000
N1 N 0.8280(5) 1.0146(4) 0.5337(2)
N2 N 0.8316(5) 1.6293(4) 0.5193(2)
N3 N 0.6953(8) 1.0061(6) 0.7601(3)
O1 O 0.7903(4) 0.8600(4) 0.60403(19)
C1 C 0.7953(5) 0.9777(6) 0.5961(3)
C2 C 0.7692(6) 1.0732(6) 0.6437(3)
C3 C 0.7830(6) 1.1984(6) 0.6267(3)
H1 H 0.7673 1.2606 0.6581
C4 C 0.8199(6) 1.2336(5) 0.5635(3)
C5 C 0.8417(5) 1.1365(5) 0.5173(2)
C6 C 0.8929(6) 1.5799(6) 0.5702(3)
H2 H 0.9386 1.6346 0.5972
C7 C 0.8937(6) 1.4529(6) 0.5860(3)
H3 H 0.9387 1.4236 0.6224
C8 C 0.8259(7) 1.3693(5) 0.5462(3)
C9 C 0.7668(6) 1.4193(6) 0.4918(3)
H4 H 0.7238 1.3663 0.4628
C10 C 0.7706(6) 1.5458(6) 0.4800(3)
H5 H 0.7290 1.5765 0.4428
C11 C 0.7319(8) 1.0367(7) 0.7089(3)
C12 C 0.8834(7) 1.1593(6) 0.4477(3)
H6 H 0.8922 1.0798 0.4252
H7 H 0.9633 1.2026 0.4479
H8 H 0.8215 1.2102 0.4254
Co1_2 Co 0.82385(7) 1.82385(7) 0.5000
Co1_3 Co 1.82385(7) 0.82385(7) 0.5000
N1F N 1.0146(4) 0.8280(5) 0.4663(2)
N2F N 1.6293(4) 0.8316(5) 0.4807(2)
N2_2 N 0.8316(5) 0.6293(4) 0.5193(2)
N2F_2 N 0.6293(4) 0.8316(5) 0.4807(2)
N3F N 1.0061(6) 0.6953(8) 0.2399(3)
O1F O 0.8600(4) 0.7903(4) 0.39597(19)
C1F C 0.9777(6) 0.7953(5) 0.4039(3)
C2F C 1.0732(6) 0.7692(6) 0.3563(3)
C3F C 1.1984(6) 0.7830(6) 0.3733(3)
H1F H 1.2606 0.7673 0.3419
C4F C 1.2336(5) 0.8199(6) 0.4365(3)
C5F C 1.1365(5) 0.8417(5) 0.4827(2)
C6F C 1.5799(6) 0.8929(6) 0.4298(3)
H2F H 1.6346 0.9386 0.4028
C7F C 1.4529(6) 0.8937(6) 0.4140(3)
H3F H 1.4236 0.9387 0.3776
C8F C 1.3693(5) 0.8259(7) 0.4538(3)
C9F C 1.4193(6) 0.7668(6) 0.5082(3)
H4F H 1.3663 0.7238 0.5372
C10F C 1.5458(6) 0.7706(6) 0.5200(3)
H5F H 1.5765 0.7290 0.5572
C11F C 1.0367(7) 0.7319(8) 0.2911(3)
C12F C 1.1593(6) 0.8834(7) 0.5523(3)
H6F H 1.0798 0.8922 0.5748
H7F H 1.2026 0.9633 0.5521
H8F H 1.2102 0.8215 0.5746
loop_
_geom_bond_atom_site_label_1
_geom_bond_atom_site_label_2
_geom_bond_site_symmetry_1
_geom_bond_site_symmetry_2
Co1 N1 1_555 1_555
N1 C1 1_555 1_555
N2 C6 1_555 1_555
N3 C11 1_555 1_555
O1 Co1 1_555 1_555
C1 O1 1_555 1_555
C2 C1 1_555 1_555
C3 C2 1_555 1_555
H1 C3 1_555 1_555
C4 C3 1_555 1_555
C5 N1 1_555 1_555
C6 H2 1_555 1_555
C7 C6 1_555 1_555
H3 C7 1_555 1_555
C8 C4 1_555 1_555
C9 C8 1_555 1_555
H4 C9 1_555 1_555
C10 N2 1_555 1_555
H5 C10 1_555 1_555
C11 C2 1_555 1_555
C12 C5 1_555 1_555
H6 C12 1_555 1_555
H7 C12 1_555 1_555
H8 C12 1_555 1_555
Co1_2 N2 1_555 1_555
Co1_3 N2F 1_555 1_555
N1F Co1 1_555 1_555
N2F C6F 1_555 1_555
N2_2 Co1 1_555 1_555
N2F_2 Co1 1_555 1_555
N3F C11F 1_555 1_555
O1F Co1 1_555 1_555
C1F N1F 1_555 1_555
C2F C1F 1_555 1_555
C3F C2F 1_555 1_555
H1F C3F 1_555 1_555
C4F C3F 1_555 1_555
C5F N1F 1_555 1_555
C6F H2F 1_555 1_555
C7F C6F 1_555 1_555
H3F C7F 1_555 1_555
C8F C4F 1_555 1_555
C9F C8F 1_555 1_555
H4F C9F 1_555 1_555
C10F N2F 1_555 1_555
H5F C10F 1_555 1_555
C11F C2F 1_555 1_555
C12F C5F 1_555 1_555
H6F C12F 1_555 1_555
H7F C12F 1_555 1_555
H8F C12F 1_555 1_555
C4 C5 1_555 1_555
C7 C8 1_555 1_555
C9 C10 1_555 1_555
O1F C1F 1_555 1_555
C4F C5F 1_555 1_555
C7F C8F 1_555 1_555
C9F C10F 1_555 1_555

#END
