
#######################################################################
#
#                 Cambridge Crystallographic Data Centre
#                                CCDC 
#
#######################################################################
#
# If this CIF has been generated from an entry in the Cambridge 
# Structural Database, then it will include bibliographic, chemical, 
# crystal, experimental, refinement or atomic coordinate data resulting 
# from the CCDC's data processing and validation procedures.
#
#######################################################################

data_LIXKAG
_symmetry_cell_setting           orthorhombic
_symmetry_space_group_name_H-M   'P n a 21'
_symmetry_Int_Tables_number      33
_space_group_name_Hall           'P 2c -2n'
loop_
_symmetry_equiv_pos_site_id
_symmetry_equiv_pos_as_xyz
1 x,y,z
2 -x,-y,1/2+z
3 1/2+x,1/2-y,z
4 1/2-x,1/2+y,1/2+z
_cell_length_a                   17.6391(2)
_cell_length_b                   20.0133(2)
_cell_length_c                   16.0589(2)
_cell_angle_alpha                90
_cell_angle_beta                 90
_cell_angle_gamma                90
_cell_volume                     5669.06
loop_
_atom_site_label
_atom_site_type_symbol
_atom_site_fract_x
_atom_site_fract_y
_atom_site_fract_z
Al1 Al 0.45231(4) 0.58721(4) 0.41702(5)
Al2 Al -0.03427(4) 0.41479(3) 0.51431(5)
Al3 Al 0.18435(4) 0.47227(4) 0.28438(6)
H1 H 0.1276(18) 0.4974(17) 0.221(2)
H2 H 0.2360(19) 0.4177(15) 0.236(2)
H3 H 0.1391(18) 0.4431(17) 0.353(2)
H4 H 0.2345(18) 0.5305(17) 0.321(2)
Al4 Al 0.66440(4) 0.47340(4) 0.60753(6)
H5 H 0.6366(19) 0.4723(16) 0.697(2)
H6 H 0.7519(17) 0.4786(17) 0.608(2)
H7 H 0.643(2) 0.4194(16) 0.553(2)
H8 H 0.6401(19) 0.5383(16) 0.554(2)
Li1 Li 0.5749(3) 0.6075(3) 0.5128(3)
Li2 Li 0.3403(2) 0.5480(2) 0.3143(3)
Li3 Li 0.0872(2) 0.3787(2) 0.4239(3)
Li4 Li -0.1449(2) 0.4630(2) 0.6113(3)
O1 O 0.13939(13) 0.29375(11) 0.40514(16)
O2 O 0.54988(9) 0.58968(9) 0.39700(12)
O3 O 0.40414(9) 0.51180(8) 0.40092(11)
O4 O 0.39079(9) 0.63011(8) 0.35091(12)
O5 O 0.46538(10) 0.61577(9) 0.51881(12)
O6 O 0.06301(9) 0.41001(9) 0.53503(12)
O7 O -0.07823(10) 0.49281(8) 0.52337(12)
O8 O -0.02316(10) 0.37912(9) 0.41599(12)
O9 O -0.09713(9) 0.37836(8) 0.58553(12)
O10 O 0.63501(13) 0.68435(12) 0.54532(18)
C1 C 0.1897(3) 0.2754(2) 0.3398(3)
H9 H 0.1817 0.3043 0.2906
H10 H 0.2430 0.2799 0.3582
C2 C 0.1740(2) 0.21106(15) 0.3209(2)
H11 H 0.2199 0.1886 0.2991
H12 H 0.1340 0.2090 0.2778
C3 C 0.1498(2) 0.17981(19) 0.3926(3)
H13 H 0.1916 0.1538 0.4178
H14 H 0.1073 0.1491 0.3802
C4 C 0.1246(2) 0.23353(17) 0.4501(3)
H15 H 0.0700 0.2292 0.4631
H16 H 0.1539 0.2323 0.5027
C5 C 0.60003(14) 0.57877(14) 0.32871(19)
C6 C 0.55693(19) 0.58089(18) 0.2472(2)
H17 H 0.5364 0.6258 0.2386
H18 H 0.5153 0.5485 0.2489
H19 H 0.5913 0.5697 0.2013
C7 C 0.63863(18) 0.51094(16) 0.3400(2)
H20 H 0.6003 0.4755 0.3391
H21 H 0.6655 0.5101 0.3934
H22 H 0.6749 0.5037 0.2946
C8 C 0.66047(18) 0.63352(18) 0.3311(3)
H23 H 0.6361 0.6774 0.3264
H24 H 0.6958 0.6273 0.2846
H25 H 0.6883 0.6310 0.3838
C9 C 0.41209(14) 0.44398(13) 0.42681(18)
C10 C 0.47557(17) 0.43766(16) 0.4905(2)
H26 H 0.5228 0.4551 0.4667
H27 H 0.4824 0.3905 0.5053
H28 H 0.4625 0.4633 0.5404
C11 C 0.4302(2) 0.40343(16) 0.3498(2)
H29 H 0.4766 0.4207 0.3240
H30 H 0.3881 0.4068 0.3103
H31 H 0.4377 0.3565 0.3654
C12 C 0.33724(16) 0.42133(17) 0.4651(3)
H32 H 0.2964 0.4269 0.4243
H33 H 0.3262 0.4484 0.5145
H34 H 0.3410 0.3742 0.4810
C13 C 0.37733(15) 0.69728(13) 0.32412(19)
C14 C 0.3668(2) 0.69627(16) 0.2300(2)
H35 H 0.4108 0.6750 0.2039
H36 H 0.3619 0.7422 0.2094
H37 H 0.3209 0.6710 0.2161
C15 C 0.44356(17) 0.74204(15) 0.3482(2)
H38 H 0.4905 0.7242 0.3242
H39 H 0.4481 0.7435 0.4090
H40 H 0.4348 0.7873 0.3269
C16 C 0.30427(17) 0.72154(18) 0.3657(3)
H41 H 0.3112 0.7224 0.4262
H42 H 0.2626 0.6912 0.3515
H43 H 0.2922 0.7666 0.3459
C17 C 0.41918(16) 0.63174(14) 0.58930(19)
C18 C 0.4610(3) 0.6062(2) 0.6662(3)
H44 H 0.5109 0.6276 0.6697
H45 H 0.4673 0.5577 0.6622
H46 H 0.4315 0.6170 0.7162
C19 C 0.4097(2) 0.70608(18) 0.5956(3)
H47 H 0.3885 0.7233 0.5434
H48 H 0.4591 0.7269 0.6058
H49 H 0.3753 0.7166 0.6417
C20 C 0.34277(19) 0.5976(2) 0.5828(3)
H50 H 0.3169 0.6125 0.5321
H51 H 0.3119 0.6091 0.6315
H52 H 0.3500 0.5491 0.5807
C21 C 0.11326(14) 0.42857(14) 0.60099(19)
C22 C 0.17515(16) 0.37486(16) 0.6043(2)
H53 H 0.1517 0.3309 0.6124
H54 H 0.2096 0.3843 0.6507
H55 H 0.2037 0.3750 0.5519
C23 C 0.14879(18) 0.49582(17) 0.5809(3)
H56 H 0.1094 0.5304 0.5807
H57 H 0.1729 0.4938 0.5260
H58 H 0.1870 0.5067 0.6232
C24 C 0.07078(19) 0.4310(2) 0.6828(2)
H59 H 0.0306 0.4648 0.6795
H60 H 0.1060 0.4427 0.7278
H61 H 0.0482 0.3872 0.6942
C25 C -0.07236(16) 0.55787(13) 0.48763(19)
C26 C -0.01098(17) 0.55858(16) 0.4208(2)
H62 H 0.0377 0.5460 0.4456
H63 H -0.0071 0.6035 0.3969
H64 H -0.0241 0.5267 0.3768
C27 C -0.14852(19) 0.57576(18) 0.4499(3)
H65 H -0.1870 0.5773 0.4938
H66 H -0.1626 0.5420 0.4085
H67 H -0.1451 0.6196 0.4229
C28 C -0.0531(2) 0.60673(17) 0.5558(3)
H68 H -0.0919 0.6046 0.5994
H69 H -0.0513 0.6520 0.5327
H70 H -0.0036 0.5953 0.5796
C29 C -0.06960(16) 0.35978(15) 0.3472(2)
C30 C -0.0298(3) 0.3805(2) 0.2688(2)
H71 H 0.0180 0.3558 0.2636
H72 H -0.0192 0.4286 0.2707
H73 H -0.0621 0.3707 0.2207
C31 C -0.0785(2) 0.28456(17) 0.3484(3)
H74 H -0.0286 0.2636 0.3538
H75 H -0.1024 0.2699 0.2964
H76 H -0.1104 0.2715 0.3956
C32 C -0.1469(2) 0.3943(2) 0.3539(3)
H77 H -0.1404 0.4427 0.3481
H78 H -0.1696 0.3843 0.4082
H79 H -0.1803 0.3778 0.3096
C33 C -0.11209(15) 0.31455(14) 0.6209(2)
C34 C -0.04730(17) 0.26635(15) 0.6016(3)
H80 H -0.0408 0.2629 0.5411
H81 H -0.0592 0.2222 0.6245
H82 H -0.0004 0.2830 0.6267
C35 C -0.18548(17) 0.28817(17) 0.5834(3)
H83 H -0.2253 0.3220 0.5889
H84 H -0.2009 0.2474 0.6127
H85 H -0.1775 0.2780 0.5243
C36 C -0.12064(19) 0.32393(17) 0.7147(2)
H86 H -0.1598 0.3575 0.7257
H87 H -0.0723 0.3389 0.7383
H88 H -0.1353 0.2814 0.7403
C37 C 0.6896(3) 0.6883(3) 0.6106(4)
H89 H 0.6744 0.6594 0.6578
H90 H 0.7399 0.6735 0.5904
C38 C 0.6925(3) 0.7527(3) 0.6351(4)
H91 H 0.6712 0.7568 0.6918
H92 H 0.7460 0.7676 0.6370
C39 C 0.6535(4) 0.7921(3) 0.5828(5)
H93 H 0.6872 0.8270 0.5596
H94 H 0.6116 0.8144 0.6130
C40 C 0.6233(2) 0.75111(18) 0.5162(3)
H95 H 0.5688 0.7602 0.5073
H96 H 0.6510 0.7591 0.4635
H1A H -0.1276(18) 0.5026(17) 0.721(2)
H5A H 0.3634(19) 0.5277(16) 0.197(2)
H6_2 H -0.2481(17) 0.4786(17) 0.608(2)
Li2A Li 0.6597(2) 0.4520(2) 0.8143(3)
Li4_2 Li 0.8551(2) 0.4630(2) 0.6113(3)
Li4A Li 0.1449(2) 0.5370(2) 0.1113(3)
loop_
_geom_bond_atom_site_label_1
_geom_bond_atom_site_label_2
_geom_bond_site_symmetry_1
_geom_bond_site_symmetry_2
Al1 O2 1_555 1_555
Al2 O6 1_555 1_555
Al3 H1 1_555 1_555
H1 Li4A 1_555 1_555
H2 Al3 1_555 1_555
H3 Al3 1_555 1_555
H4 Al3 1_555 1_555
Al4 H5 1_555 1_555
H5 Li2A 1_555 1_555
H6 Al4 1_555 1_555
H7 Al4 1_555 1_555
H8 Al4 1_555 1_555
Li1 H8 1_555 1_555
Li2 H4 1_555 1_555
Li3 H3 1_555 1_555
Li4 O7 1_555 1_555
O1 Li3 1_555 1_555
O2 Li1 1_555 1_555
O3 Al1 1_555 1_555
O4 Al1 1_555 1_555
O5 Al1 1_555 1_555
O6 Li3 1_555 1_555
O7 Al2 1_555 1_555
O8 Al2 1_555 1_555
O9 Al2 1_555 1_555
O10 Li1 1_555 1_555
C1 O1 1_555 1_555
H9 C1 1_555 1_555
H10 C1 1_555 1_555
C2 C1 1_555 1_555
H11 C2 1_555 1_555
H12 C2 1_555 1_555
C3 C2 1_555 1_555
H13 C3 1_555 1_555
H14 C3 1_555 1_555
C4 O1 1_555 1_555
H15 C4 1_555 1_555
H16 C4 1_555 1_555
C5 O2 1_555 1_555
C6 C5 1_555 1_555
H17 C6 1_555 1_555
H18 C6 1_555 1_555
H19 C6 1_555 1_555
C7 C5 1_555 1_555
H20 C7 1_555 1_555
H21 C7 1_555 1_555
H22 C7 1_555 1_555
C8 C5 1_555 1_555
H23 C8 1_555 1_555
H24 C8 1_555 1_555
H25 C8 1_555 1_555
C9 O3 1_555 1_555
C10 C9 1_555 1_555
H26 C10 1_555 1_555
H27 C10 1_555 1_555
H28 C10 1_555 1_555
C11 C9 1_555 1_555
H29 C11 1_555 1_555
H30 C11 1_555 1_555
H31 C11 1_555 1_555
C12 C9 1_555 1_555
H32 C12 1_555 1_555
H33 C12 1_555 1_555
H34 C12 1_555 1_555
C13 O4 1_555 1_555
C14 C13 1_555 1_555
H35 C14 1_555 1_555
H36 C14 1_555 1_555
H37 C14 1_555 1_555
C15 C13 1_555 1_555
H38 C15 1_555 1_555
H39 C15 1_555 1_555
H40 C15 1_555 1_555
C16 C13 1_555 1_555
H41 C16 1_555 1_555
H42 C16 1_555 1_555
H43 C16 1_555 1_555
C17 O5 1_555 1_555
C18 C17 1_555 1_555
H44 C18 1_555 1_555
H45 C18 1_555 1_555
H46 C18 1_555 1_555
C19 C17 1_555 1_555
H47 C19 1_555 1_555
H48 C19 1_555 1_555
H49 C19 1_555 1_555
C20 C17 1_555 1_555
H50 C20 1_555 1_555
H51 C20 1_555 1_555
H52 C20 1_555 1_555
C21 O6 1_555 1_555
C22 C21 1_555 1_555
H53 C22 1_555 1_555
H54 C22 1_555 1_555
H55 C22 1_555 1_555
C23 C21 1_555 1_555
H56 C23 1_555 1_555
H57 C23 1_555 1_555
H58 C23 1_555 1_555
C24 C21 1_555 1_555
H59 C24 1_555 1_555
H60 C24 1_555 1_555
H61 C24 1_555 1_555
C25 O7 1_555 1_555
C26 C25 1_555 1_555
H62 C26 1_555 1_555
H63 C26 1_555 1_555
H64 C26 1_555 1_555
C27 C25 1_555 1_555
H65 C27 1_555 1_555
H66 C27 1_555 1_555
H67 C27 1_555 1_555
C28 C25 1_555 1_555
H68 C28 1_555 1_555
H69 C28 1_555 1_555
H70 C28 1_555 1_555
C29 O8 1_555 1_555
C30 C29 1_555 1_555
H71 C30 1_555 1_555
H72 C30 1_555 1_555
H73 C30 1_555 1_555
C31 C29 1_555 1_555
H74 C31 1_555 1_555
H75 C31 1_555 1_555
H76 C31 1_555 1_555
C32 C29 1_555 1_555
H77 C32 1_555 1_555
H78 C32 1_555 1_555
H79 C32 1_555 1_555
C33 O9 1_555 1_555
C34 C33 1_555 1_555
H80 C34 1_555 1_555
H81 C34 1_555 1_555
H82 C34 1_555 1_555
C35 C33 1_555 1_555
H83 C35 1_555 1_555
H84 C35 1_555 1_555
H85 C35 1_555 1_555
C36 C33 1_555 1_555
H86 C36 1_555 1_555
H87 C36 1_555 1_555
H88 C36 1_555 1_555
C37 O10 1_555 1_555
H89 C37 1_555 1_555
H90 C37 1_555 1_555
C38 C37 1_555 1_555
H91 C38 1_555 1_555
H92 C38 1_555 1_555
C39 C38 1_555 1_555
H93 C39 1_555 1_555
H94 C39 1_555 1_555
C40 O10 1_555 1_555
H95 C40 1_555 1_555
H96 C40 1_555 1_555
H1A Li4 1_555 1_555
H5A Li2 1_555 1_555
H6_2 Li4 1_555 1_555
Li4_2 H6 1_555 1_555
Li1 O5 1_555 1_555
Li2 O3 1_555 1_555
Li2 O4 1_555 1_555
Li3 O8 1_555 1_555
Li4 O9 1_555 1_555
C3 C4 1_555 1_555
C39 C40 1_555 1_555

#END
