
#######################################################################
#
#                 Cambridge Crystallographic Data Centre
#                                CCDC 
#
#######################################################################
#
# If this CIF has been generated from an entry in the Cambridge 
# Structural Database, then it will include bibliographic, chemical, 
# crystal, experimental, refinement or atomic coordinate data resulting 
# from the CCDC's data processing and validation procedures.
#
#######################################################################

data_LIXMIQ
_symmetry_cell_setting           monoclinic
_symmetry_space_group_name_H-M   'C 2/c'
_symmetry_Int_Tables_number      15
_space_group_name_Hall           '-C 2yn'
loop_
_symmetry_equiv_pos_site_id
_symmetry_equiv_pos_as_xyz
1 x,y,z
2 -x,y,1/2-z
3 1/2+x,1/2+y,z
4 1/2-x,1/2+y,1/2-z
5 -x,-y,-z
6 x,-y,1/2+z
7 1/2-x,1/2-y,-z
8 1/2+x,1/2-y,1/2+z
_cell_length_a                   29.889(9)
_cell_length_b                   9.4071(17)
_cell_length_c                   16.056(4)
_cell_angle_alpha                90
_cell_angle_beta                 112.318(8)
_cell_angle_gamma                90
_cell_volume                     4176.27
loop_
_atom_site_label
_atom_site_type_symbol
_atom_site_fract_x
_atom_site_fract_y
_atom_site_fract_z
C1 C 0.5694(4) 0.1572(15) 0.6019(9)
C2 C 0.5770(4) 0.7348(13) 0.8076(8)
C3 C 0.6272(4) 0.6847(11) 0.8612(7)
C4 C 0.6406(4) 0.6487(13) 0.9525(7)
H1 H 0.6182 0.6569 0.9794
C5 C 0.6865(4) 0.6014(13) 1.0025(7)
H2 H 0.6950 0.5778 1.0628
C6 C 0.7198(4) 0.5894(12) 0.9628(7)
C7 C 0.7088(4) 0.6252(12) 0.8725(7)
H3 H 0.7319 0.6175 0.8470
C8 C 0.6622(4) 0.6727(12) 0.8220(8)
H4 H 0.6540 0.6969 0.7619
C9 C 0.6215(4) 0.1633(12) 0.6677(7)
C10 C 0.6501(4) 0.2818(13) 0.6749(7)
H5 H 0.6361 0.3630 0.6423
C11 C 0.6993(4) 0.2837(12) 0.7294(7)
H6 H 0.7181 0.3644 0.7340
C12 C 0.7190(3) 0.1607(12) 0.7763(7)
C13 C 0.6913(3) 0.0385(12) 0.7726(7)
H7 H 0.7053 -0.0421 0.8058
C14 C 0.6421(4) 0.0408(13) 0.7181(7)
H8 H 0.6230 -0.0385 0.7151
C15 C 0.7654(3) 0.3440(11) 0.9236(6)
H9 H 0.7322 0.3333 0.9068
C16 C 0.7902(4) 0.4513(12) 0.9836(6)
C17 C 0.8400(4) 0.4657(12) 1.0135(7)
H10 H 0.8562 0.5373 1.0536
C18 C 0.8651(4) 0.3690(13) 0.9813(7)
C19 C 0.8411(3) 0.2631(12) 0.9191(7)
H11 H 0.8583 0.2002 0.8979
C20 C 0.7910(3) 0.2539(11) 0.8896(6)
C21 C 0.9194(4) 0.3940(16) 1.0078(9)
Gd1 Gd 0.996753(18) 0.34120(7) 0.90192(4)
O1 O 0.5551(3) 0.2528(12) 0.5413(6)
O2 O 0.5429(3) 0.0570(11) 0.6075(7)
O3 O 0.5687(3) 0.7810(10) 0.7278(6)
O4 O 0.5463(3) 0.7223(9) 0.8430(5)
O5 O 0.7665(2) 0.5453(9) 1.0181(5)
O6 O 0.7689(2) 0.1478(8) 0.8286(5)
O7 O 0.9386(3) 0.4932(11) 1.0612(7)
O8 O 0.9413(3) 0.3097(11) 0.9747(7)
O9 O 1.0000 0.4893(14) 0.7500
O10 O 0.9794(4) 0.0813(12) 0.9088(6)
C1A C 1.4306(4) 0.1572(15) 0.8981(9)
C2A C 1.4230(4) 0.7348(13) 0.6924(8)
C3A C 1.3728(4) 0.6847(11) 0.6388(7)
C4A C 1.3594(4) 0.6487(13) 0.5475(7)
H1A H 1.3818 0.6569 0.5206
C5A C 1.3135(4) 0.6014(13) 0.4975(7)
H2A H 1.3050 0.5778 0.4372
C6A C 1.2802(4) 0.5894(12) 0.5372(7)
C7A C 1.2912(4) 0.6252(12) 0.6275(7)
H3A H 1.2681 0.6175 0.6530
C8A C 1.3378(4) 0.6727(12) 0.6780(8)
H4A H 1.3460 0.6969 0.7381
C9A C 1.3785(4) 0.1633(12) 0.8323(7)
C10A C 1.3499(4) 0.2818(13) 0.8251(7)
H5A H 1.3639 0.3630 0.8577
C11A C 1.3007(4) 0.2837(12) 0.7706(7)
H6A H 1.2819 0.3644 0.7660
C12A C 1.2810(3) 0.1607(12) 0.7237(7)
C13A C 1.3087(3) 0.0385(12) 0.7274(7)
H7A H 1.2947 -0.0421 0.6942
C14A C 1.3579(4) 0.0408(13) 0.7819(7)
H8A H 1.3770 -0.0385 0.7849
C15A C 1.2346(3) 0.3440(11) 0.5764(6)
H9A H 1.2678 0.3333 0.5932
C16A C 1.2098(4) 0.4513(12) 0.5164(6)
C17A C 1.1600(4) 0.4657(12) 0.4865(7)
H10A H 1.1438 0.5373 0.4464
C18A C 1.1349(4) 0.3690(13) 0.5187(7)
C19A C 1.1589(3) 0.2631(12) 0.5809(7)
H11A H 1.1417 0.2002 0.6021
C20A C 1.2090(3) 0.2539(11) 0.6104(6)
C21A C 1.0806(4) 0.3940(16) 0.4922(9)
Gd1A Gd 1.003247(18) 0.34120(7) 0.59808(4)
O1A O 1.4449(3) 0.2528(12) 0.9587(6)
O2A O 1.4571(3) 0.0570(11) 0.8925(7)
O3A O 1.4313(3) 0.7810(10) 0.7722(6)
O4A O 1.4537(3) 0.7223(9) 0.6570(5)
O5A O 1.2335(2) 0.5453(9) 0.4819(5)
O6A O 1.2311(2) 0.1478(8) 0.6714(5)
O7A O 1.0614(3) 0.4932(11) 0.4388(7)
O8A O 1.0587(3) 0.3097(11) 0.5253(7)
O10A O 1.0206(4) 0.0813(12) 0.5912(6)
Gd1B Gd 0.496753(18) 0.84120(7) 0.90192(4)
Gd1B_2 Gd 1.496753(18) -0.15880(7) 0.90192(4)
Gd1B_3 Gd 1.496753(18) 0.84120(7) 0.90192(4)
Gd1C Gd 0.503247(18) -0.15880(7) 0.59808(4)
Gd1C_2 Gd 0.503247(18) 0.84120(7) 0.59808(4)
Gd1C_3 Gd 1.503247(18) 0.84120(7) 0.59808(4)
Gd1D Gd 1.003247(18) 0.65880(7) 1.09808(4)
Gd1E Gd 0.996753(18) 0.65880(7) 0.40192(4)
Gd1F Gd 1.503247(18) 0.15880(7) 1.09808(4)
Gd1G Gd 0.496753(18) 0.15880(7) 0.40192(4)
O1F O 0.9449(3) 0.2472(12) 0.4587(6)
O1G O 1.0551(3) 0.2472(12) 1.0413(6)
O2B O 1.0429(3) 0.5570(11) 0.6075(7)
O2C O 0.9571(3) 0.5570(11) 0.8925(7)
O3B O 1.0687(3) 0.2810(10) 0.7278(6)
O3C O 0.9313(3) 0.2810(10) 0.7722(6)
O4B O 1.0463(3) 0.2223(9) 0.8430(5)
O4C O 0.9537(3) 0.2223(9) 0.6570(5)
O7D O 1.0614(3) 0.5068(11) 0.9388(7)
O7E O 0.9386(3) 0.5068(11) 0.5612(7)
loop_
_geom_bond_atom_site_label_1
_geom_bond_atom_site_label_2
_geom_bond_site_symmetry_1
_geom_bond_site_symmetry_2
C1 C9 1_555 1_555
C2 C3 1_555 1_555
C3 C4 1_555 1_555
C4 H1 1_555 1_555
C5 C4 1_555 1_555
H2 C5 1_555 1_555
C6 C5 1_555 1_555
C7 C6 1_555 1_555
H3 C7 1_555 1_555
C8 C3 1_555 1_555
H4 C8 1_555 1_555
C9 C10 1_555 1_555
C10 H5 1_555 1_555
C11 C10 1_555 1_555
H6 C11 1_555 1_555
C12 C11 1_555 1_555
C13 C12 1_555 1_555
H7 C13 1_555 1_555
C14 C9 1_555 1_555
H8 C14 1_555 1_555
C15 H9 1_555 1_555
C16 C15 1_555 1_555
C17 C16 1_555 1_555
H10 C17 1_555 1_555
C18 C17 1_555 1_555
C19 C18 1_555 1_555
H11 C19 1_555 1_555
C20 C15 1_555 1_555
C21 C18 1_555 1_555
Gd1 O8 1_555 1_555
O1 C1 1_555 1_555
O2 C1 1_555 1_555
O3 C2 1_555 1_555
O4 C2 1_555 1_555
O5 C6 1_555 1_555
O6 C12 1_555 1_555
O7 C21 1_555 1_555
O8 C21 1_555 1_555
O9 Gd1 1_555 1_555
O10 Gd1 1_555 1_555
C1A C9A 1_555 1_555
C2A C3A 1_555 1_555
C3A C4A 1_555 1_555
C4A H1A 1_555 1_555
C5A C4A 1_555 1_555
H2A C5A 1_555 1_555
C6A C5A 1_555 1_555
C7A C6A 1_555 1_555
H3A C7A 1_555 1_555
C8A C3A 1_555 1_555
H4A C8A 1_555 1_555
C9A C10A 1_555 1_555
C10A H5A 1_555 1_555
C11A C10A 1_555 1_555
H6A C11A 1_555 1_555
C12A C11A 1_555 1_555
C13A C12A 1_555 1_555
H7A C13A 1_555 1_555
C14A C9A 1_555 1_555
H8A C14A 1_555 1_555
C15A H9A 1_555 1_555
C16A C15A 1_555 1_555
C17A C16A 1_555 1_555
H10A C17A 1_555 1_555
C18A C17A 1_555 1_555
C19A C18A 1_555 1_555
H11A C19A 1_555 1_555
C20A C15A 1_555 1_555
C21A C18A 1_555 1_555
Gd1A O9 1_555 1_555
O1A C1A 1_555 1_555
O2A C1A 1_555 1_555
O3A C2A 1_555 1_555
O4A C2A 1_555 1_555
O5A C6A 1_555 1_555
O6A C12A 1_555 1_555
O7A C21A 1_555 1_555
O8A C21A 1_555 1_555
O10A Gd1A 1_555 1_555
Gd1B O4 1_555 1_555
Gd1B_2 O2A 1_555 1_555
Gd1B_3 O3A 1_555 1_555
Gd1C O2 1_555 1_555
Gd1C_2 O3 1_555 1_555
Gd1C_3 O4A 1_555 1_555
Gd1D O7 1_555 1_555
Gd1E O7A 1_555 1_555
Gd1F O1A 1_555 1_555
Gd1G O1 1_555 1_555
O1F Gd1A 1_555 1_555
O1G Gd1 1_555 1_555
O2B Gd1A 1_555 1_555
O2C Gd1 1_555 1_555
O3B Gd1A 1_555 1_555
O3C Gd1 1_555 1_555
O4B Gd1 1_555 1_555
O4C Gd1A 1_555 1_555
O7D Gd1 1_555 1_555
O7E Gd1A 1_555 1_555
C7 C8 1_555 1_555
C13 C14 1_555 1_555
C16 O5 1_555 1_555
C19 C20 1_555 1_555
C20 O6 1_555 1_555
C7A C8A 1_555 1_555
C13A C14A 1_555 1_555
C16A O5A 1_555 1_555
C19A C20A 1_555 1_555
C20A O6A 1_555 1_555
Gd1A O8A 1_555 1_555

#END
