
#######################################################################
#
#                 Cambridge Crystallographic Data Centre
#                                CCDC 
#
#######################################################################
#
# If this CIF has been generated from an entry in the Cambridge 
# Structural Database, then it will include bibliographic, chemical, 
# crystal, experimental, refinement or atomic coordinate data resulting 
# from the CCDC's data processing and validation procedures.
#
#######################################################################

data_LIXMEM
_symmetry_cell_setting           monoclinic
_symmetry_space_group_name_H-M   'C 2/c'
_symmetry_Int_Tables_number      15
_space_group_name_Hall           '-C 2yn'
loop_
_symmetry_equiv_pos_site_id
_symmetry_equiv_pos_as_xyz
1 x,y,z
2 -x,y,1/2-z
3 1/2+x,1/2+y,z
4 1/2-x,1/2+y,1/2-z
5 -x,-y,-z
6 x,-y,1/2+z
7 1/2-x,1/2-y,-z
8 1/2+x,1/2-y,1/2+z
_cell_length_a                   29.797(3)
_cell_length_b                   9.0479(8)
_cell_length_c                   16.3496(14)
_cell_angle_alpha                90
_cell_angle_beta                 113.101(2)
_cell_angle_gamma                90
_cell_volume                     4054.41
loop_
_atom_site_label
_atom_site_type_symbol
_atom_site_fract_x
_atom_site_fract_y
_atom_site_fract_z
C1 C 0.0798(3) 0.8823(12) -0.0071(7)
C2 C 0.1338(3) 0.8619(10) 0.0199(6)
C3 C 0.1601(3) 0.9584(10) -0.0098(6)
H1 H 0.1439 1.0323 -0.0502
C4 C 0.2101(3) 0.9459(10) 0.0201(6)
C5 C 0.2348(3) 0.8366(9) 0.0790(6)
H2 H 0.2683 0.8255 0.0972
C6 C 0.2083(3) 0.7438(9) 0.1104(6)
C7 C 0.1578(3) 0.7522(10) 0.0811(5)
H3 H 0.1406 0.6866 0.1018
C8 C 0.2809(3) 1.0854(10) 0.0432(6)
C9 C 0.3143(3) 1.0987(11) 0.0049(6)
H4 H 0.3054 1.0750 -0.0548
C10 C 0.3617(3) 1.1476(11) 0.0549(6)
H5 H 0.3842 1.1563 0.0288
C11 C 0.3746(3) 1.1824(9) 0.1425(6)
C12 C 0.3405(4) 1.1689(10) 0.1809(6)
H6 H 0.3494 1.1928 0.2406
C13 C 0.2937(3) 1.1204(11) 0.1315(6)
H7 H 0.2711 1.1116 0.1575
C14 C 0.2815(3) 0.6494(10) 0.2242(6)
C15 C 0.2989(3) 0.7732(11) 0.2743(6)
H8 H 0.2782 0.8516 0.2715
C16 C 0.3475(4) 0.7803(11) 0.3288(6)
H9 H 0.3599 0.8649 0.3623
C17 C 0.3779(3) 0.6640(11) 0.3342(6)
C18 C 0.3592(3) 0.5415(11) 0.2816(6)
H10 H 0.3798 0.4629 0.2840
C19 C 0.3105(3) 0.5330(10) 0.2255(6)
H11 H 0.2981 0.4504 0.1899
C20 C 0.4259(3) 1.2375(10) 0.1964(6)
C21 C 0.4289(4) 0.6652(12) 0.3999(7)
Eu1 Eu 0.502523(16) 0.66667(6) 0.59075(3)
O1 O 0.0602(2) 0.9870(9) -0.0602(5)
O2 O 0.0593(3) 0.7950(9) 0.0230(5)
O3 O 0.2344(2) 1.0440(7) -0.0114(4)
O4 O 0.2313(2) 0.6328(7) 0.1720(4)
O5 O 0.4541(2) 1.2398(9) 0.1586(4)
O6 O 0.4350(2) 1.2807(9) 0.2740(4)
O7 O 0.4434(2) 0.7687(10) 0.4559(5)
O8 O 0.4572(2) 0.5586(9) 0.4022(5)
O9 O 0.5154(3) 0.9440(9) 0.5938(6)
Eu1C Eu -0.002523(16) 1.16667(6) -0.09075(3)
Eu1D Eu 0.497477(16) 0.33333(6) 0.40925(3)
Eu1D_2 Eu 0.497477(16) 1.33333(6) 0.40925(3)
Eu1E Eu 0.502523(16) 1.33333(6) 0.09075(3)
Eu1G Eu 0.002523(16) 0.83333(6) 0.09075(3)
O1C O 0.4398(2) 0.4870(9) 0.5602(5)
O2G O 0.5593(3) 0.7050(9) 0.5230(5)
O5E O 0.4541(2) 0.7602(9) 0.6586(4)
O6D O 0.5650(2) 0.7193(9) 0.7260(4)
O8D O 0.5428(2) 0.4414(9) 0.5978(5)
loop_
_geom_bond_atom_site_label_1
_geom_bond_atom_site_label_2
_geom_bond_site_symmetry_1
_geom_bond_site_symmetry_2
C1 C2 1_555 1_555
C2 C3 1_555 1_555
C3 H1 1_555 1_555
C4 C3 1_555 1_555
C5 C4 1_555 1_555
H2 C5 1_555 1_555
C6 C5 1_555 1_555
C7 C2 1_555 1_555
H3 C7 1_555 1_555
C8 C9 1_555 1_555
C9 H4 1_555 1_555
C10 C9 1_555 1_555
H5 C10 1_555 1_555
C11 C10 1_555 1_555
C12 C11 1_555 1_555
H6 C12 1_555 1_555
C13 C8 1_555 1_555
H7 C13 1_555 1_555
C14 C15 1_555 1_555
C15 H8 1_555 1_555
C16 C15 1_555 1_555
H9 C16 1_555 1_555
C17 C16 1_555 1_555
C18 C17 1_555 1_555
H10 C18 1_555 1_555
C19 C14 1_555 1_555
H11 C19 1_555 1_555
C20 C11 1_555 1_555
C21 C17 1_555 1_555
Eu1 O7 1_555 1_555
O1 C1 1_555 1_555
O2 C1 1_555 1_555
O3 C4 1_555 1_555
O4 C6 1_555 1_555
O5 C20 1_555 1_555
O6 C20 1_555 1_555
O7 C21 1_555 1_555
O8 C21 1_555 1_555
O9 Eu1 1_555 1_555
Eu1C O1 1_555 1_555
Eu1D O8 1_555 1_555
Eu1D_2 O6 1_555 1_555
Eu1E O5 1_555 1_555
Eu1G O2 1_555 1_555
O1C Eu1 1_555 1_555
O2G Eu1 1_555 1_555
O5E Eu1 1_555 1_555
O6D Eu1 1_555 1_555
O8D Eu1 1_555 1_555
C6 C7 1_555 1_555
C8 O3 1_555 1_555
C12 C13 1_555 1_555
C14 O4 1_555 1_555
C18 C19 1_555 1_555

#END
