
#######################################################################
#
#                 Cambridge Crystallographic Data Centre
#                                CCDC 
#
#######################################################################
#
# If this CIF has been generated from an entry in the Cambridge 
# Structural Database, then it will include bibliographic, chemical, 
# crystal, experimental, refinement or atomic coordinate data resulting 
# from the CCDC's data processing and validation procedures.
#
#######################################################################

data_LIXMAI
_symmetry_cell_setting           monoclinic
_symmetry_space_group_name_H-M   'C 2/c'
_symmetry_Int_Tables_number      15
_space_group_name_Hall           '-C 2yn'
loop_
_symmetry_equiv_pos_site_id
_symmetry_equiv_pos_as_xyz
1 x,y,z
2 -x,y,1/2-z
3 1/2+x,1/2+y,z
4 1/2-x,1/2+y,1/2-z
5 -x,-y,-z
6 x,-y,1/2+z
7 1/2-x,1/2-y,-z
8 1/2+x,1/2-y,1/2+z
_cell_length_a                   29.642(4)
_cell_length_b                   9.0327(12)
_cell_length_c                   16.378(2)
_cell_angle_alpha                90
_cell_angle_beta                 113.031(3)
_cell_angle_gamma                90
_cell_volume                     4035.64
loop_
_atom_site_label
_atom_site_type_symbol
_atom_site_fract_x
_atom_site_fract_y
_atom_site_fract_z
O1 O 0.93907(12) 0.4954(4) 1.0550(2)
O2 O 0.54127(12) 0.0558(4) 0.6038(3)
O3 O 0.55436(13) 0.2649(4) 0.5456(2)
C1 C 0.56861(19) 0.1616(6) 0.6027(3)
O4 O 0.56325(13) 0.7849(4) 0.7259(2)
O5 O 0.54379(12) 0.7454(4) 0.8406(2)
C2 C 0.57300(18) 0.7412(5) 0.8039(3)
C3 C 0.78931(17) 0.4474(5) 0.9782(3)
Dy1 Dy 0.997394(8) 0.33138(3) 0.910774(16)
O6 O 0.76875(12) 0.1324(4) 0.8267(2)
C4 C 0.71892(18) 0.1482(5) 0.7752(3)
C5 C 0.76505(18) 0.3363(5) 0.9192(3)
H1 H 0.7314 0.3243 0.9010
C6 C 0.71717(18) 0.5852(5) 0.9552(3)
O7 O 0.98497(16) 0.0597(4) 0.9059(3)
O8 O 0.76445(12) 0.5437(4) 1.0104(2)
O9 O 0.94154(13) 0.2984(4) 0.9743(3)
C7 C 0.62334(18) 0.6834(5) 0.8552(3)
C8 C 0.63727(19) 0.6478(6) 0.9447(3)
H2 H 0.6148 0.6571 0.9711
C9 C 0.62078(18) 0.1624(5) 0.6679(3)
C10 C 0.65731(19) 0.6686(5) 0.8177(3)
H3 H 0.6484 0.6910 0.7580
C11 C 0.86553(18) 0.3651(5) 0.9784(3)
C12 C 0.68892(18) 0.0330(5) 0.7752(3)
H4 H 0.7015 -0.0491 0.8112
C13 C 0.83939(17) 0.4616(5) 1.0087(3)
H5 H 0.8555 0.5353 1.0493
C14 C 0.79149(17) 0.2439(5) 0.8879(3)
C15 C 0.70424(19) 0.6213(6) 0.8671(3)
H6 H 0.7271 0.6137 0.8414
C16 C 0.70046(19) 0.2714(6) 0.7233(3)
H7 H 0.7212 0.3490 0.7242
C17 C 0.84146(17) 0.2548(5) 0.9174(3)
H8 H 0.8590 0.1896 0.8971
C18 C 0.63985(18) 0.0405(6) 0.7210(3)
H9 H 0.6193 -0.0378 0.7202
C19 C 0.65138(19) 0.2797(6) 0.6702(3)
H10 H 0.6388 0.3636 0.6360
C20 C 0.91975(18) 0.3868(6) 1.0055(4)
C21 C 0.68427(18) 0.5988(6) 0.9945(3)
H11 H 0.6934 0.5753 1.0541
O1D O 1.06093(12) 0.5046(4) 0.9450(2)
O2C O 0.95873(12) 0.5558(4) 0.8962(3)
O3G O 1.05436(13) 0.2351(4) 1.0456(2)
O4C O 0.93675(13) 0.2849(4) 0.7741(2)
O5B O 1.04379(12) 0.2454(4) 0.8406(2)
Dy1B Dy 0.497394(8) 0.83138(3) 0.910774(16)
Dy1C Dy 0.502606(8) -0.16862(3) 0.589226(16)
Dy1C_2 Dy 0.502606(8) 0.83138(3) 0.589226(16)
Dy1D Dy 1.002606(8) 0.66862(3) 1.089226(16)
Dy1G Dy 0.497394(8) 0.16862(3) 0.410774(16)
loop_
_geom_bond_atom_site_label_1
_geom_bond_atom_site_label_2
_geom_bond_site_symmetry_1
_geom_bond_site_symmetry_2
O1 C20 1_555 1_555
O2 C1 1_555 1_555
O3 C1 1_555 1_555
C1 C9 1_555 1_555
O4 C2 1_555 1_555
O5 C2 1_555 1_555
C2 C7 1_555 1_555
C3 C5 1_555 1_555
Dy1 O7 1_555 1_555
O6 C4 1_555 1_555
C4 C12 1_555 1_555
C5 H1 1_555 1_555
C6 O8 1_555 1_555
O8 C3 1_555 1_555
O9 Dy1 1_555 1_555
C7 C8 1_555 1_555
C8 H2 1_555 1_555
C9 C18 1_555 1_555
C10 C7 1_555 1_555
H3 C10 1_555 1_555
C11 C13 1_555 1_555
C12 H4 1_555 1_555
C13 C3 1_555 1_555
H5 C13 1_555 1_555
C14 O6 1_555 1_555
C15 C6 1_555 1_555
H6 C15 1_555 1_555
C16 C4 1_555 1_555
H7 C16 1_555 1_555
C17 C11 1_555 1_555
H8 C17 1_555 1_555
C18 C12 1_555 1_555
H9 C18 1_555 1_555
C19 C9 1_555 1_555
H10 C19 1_555 1_555
C20 O9 1_555 1_555
C21 C6 1_555 1_555
H11 C21 1_555 1_555
O1D Dy1 1_555 1_555
O2C Dy1 1_555 1_555
O3G Dy1 1_555 1_555
O4C Dy1 1_555 1_555
O5B Dy1 1_555 1_555
Dy1B O5 1_555 1_555
Dy1C O2 1_555 1_555
Dy1C_2 O4 1_555 1_555
Dy1D O1 1_555 1_555
Dy1G O3 1_555 1_555
C5 C14 1_555 1_555
C8 C21 1_555 1_555
C10 C15 1_555 1_555
C11 C20 1_555 1_555
C14 C17 1_555 1_555
C16 C19 1_555 1_555

#END
