
#######################################################################
#
#                 Cambridge Crystallographic Data Centre
#                                CCDC 
#
#######################################################################
#
# If this CIF has been generated from an entry in the Cambridge 
# Structural Database, then it will include bibliographic, chemical, 
# crystal, experimental, refinement or atomic coordinate data resulting 
# from the CCDC's data processing and validation procedures.
#
#######################################################################

data_LIXRIV
_symmetry_cell_setting           triclinic
_symmetry_space_group_name_H-M   'P -1'
_symmetry_Int_Tables_number      2
_space_group_name_Hall           '-P 1'
loop_
_symmetry_equiv_pos_site_id
_symmetry_equiv_pos_as_xyz
1 x,y,z
2 -x,-y,-z
_cell_length_a                   7.9133(2)
_cell_length_b                   12.7498(4)
_cell_length_c                   13.9783(5)
_cell_angle_alpha                88.1338(14)
_cell_angle_beta                 84.4238(19)
_cell_angle_gamma                80.653(2)
_cell_volume                     1384.8
loop_
_atom_site_label
_atom_site_type_symbol
_atom_site_fract_x
_atom_site_fract_y
_atom_site_fract_z
P1 P 1.04463(16) 0.26900(9) 0.79170(8)
P2 P 0.97534(13) 0.45301(7) 0.36314(7)
P3 P 0.57161(13) -0.25964(8) 0.98579(7)
Na1 Na 0.2799(3) -0.45537(18) 1.03127(17)
O1 O 1.1140(5) 0.1981(3) 0.8715(3)
O2 O 0.9373(5) 0.3739(2) 0.8288(2)
O3 O 1.1973(4) 0.2916(2) 0.7185(2)
O4 O 1.1464(4) 0.4157(2) 0.4106(2)
O5 O 0.8809(4) 0.5569(2) 0.40467(19)
O6 O 1.0229(4) 0.4579(2) 0.25477(19)
O7 O 0.3864(4) -0.2863(2) 1.0103(2)
O8 O 0.7022(4) -0.3575(2) 0.9812(2)
O9 O 0.5933(4) -0.1797(2) 1.0631(2)
O10 O 0.5199(7) -0.5122(4) 1.1219(3)
O11 O 0.0560(7) -0.4147(6) 0.9374(4)
C1 C 0.5127(5) -0.0411(3) 0.5942(3)
C2 C 0.5743(5) 0.0897(3) 0.4706(3)
C3 C 0.5887(5) 0.0480(3) 0.5644(3)
C4 C 0.6970(5) 0.0964(3) 0.6280(3)
C5 C 0.6266(5) 0.1683(3) 0.6996(3)
C6 C 0.7318(5) 0.2193(3) 0.7499(3)
C7 C 0.9098(5) 0.2014(3) 0.7281(3)
C8 C 0.9817(6) 0.1273(4) 0.6578(3)
C9 C 0.8749(5) 0.0749(3) 0.6100(3)
C10 C 0.6626(5) 0.1827(3) 0.4388(3)
C11 C 0.6138(5) 0.2813(3) 0.4823(3)
C12 C 0.7054(5) 0.3646(3) 0.4578(3)
C13 C 0.8460(5) 0.3503(3) 0.3885(3)
C14 C 0.8921(5) 0.2527(3) 0.3436(3)
C15 C 0.8010(5) 0.1698(3) 0.3685(3)
C16 C 0.5356(5) -0.0901(3) 0.6920(3)
C17 C 0.6311(5) -0.1912(3) 0.7000(3)
C18 C 0.6471(5) -0.2413(3) 0.7892(3)
C19 C 0.5670(5) -0.1899(3) 0.8725(3)
C20 C 0.4742(5) -0.0878(3) 0.8652(3)
C21 C 0.4566(5) -0.0384(3) 0.7756(3)
C22 C 0.4717(8) -0.4775(5) 1.2930(5)
C23 C 0.5710(12) -0.4720(7) 1.1994(5)
C24 C -0.0096(9) -0.3746(6) 1.0027(5)
H1 H 1.1325 0.4357 0.4745
H2 H 1.1683 0.3474 0.6734
H3 H 0.5748 -0.4656 1.0797
H4 H 0.9527 0.4389 0.8000
H5 H 0.7069 -0.1900 1.0841
H6 H 0.0255 -0.4480 0.8805
H7 H 0.2896 -0.2463 1.0018
H8 H 0.5055 0.1826 0.7143
H9 H 0.6823 0.2671 0.7995
H10 H 1.1029 0.1127 0.6432
H11 H 0.9245 0.0231 0.5638
H12 H 0.5178 0.2918 0.5292
H13 H 0.6726 0.4313 0.4884
H14 H 0.9875 0.2425 0.2962
H15 H 0.8326 0.1037 0.3369
H16 H 0.6865 -0.2261 0.6436
H17 H 0.7120 -0.3106 0.7937
H18 H 0.4228 -0.0515 0.9216
H19 H 0.3903 0.0303 0.7706
H20 H 0.5251 -0.4480 1.3415
H21 H 0.3603 -0.4380 1.2879
H22 H 0.4624 -0.5494 1.3093
H23 H 0.5797 -0.3995 1.1861
H24 H 0.6819 -0.5109 1.2075
H25 H -0.0086 -0.3003 0.9956
H26 H -0.1252 -0.3873 1.0117
H27 H 0.0486 -0.4011 1.0570
P1A P -0.04463(16) -0.26900(9) 0.20830(8)
P2A P 0.02466(13) -0.45301(7) 0.63686(7)
P3A P 0.42839(13) 0.25964(8) 0.01421(7)
O1A O -0.1140(5) -0.1981(3) 0.1285(3)
O2A O 0.0627(5) -0.3739(2) 0.1712(2)
O3A O -0.1973(4) -0.2916(2) 0.2815(2)
O4A O -0.1464(4) -0.4157(2) 0.5894(2)
O5A O 0.1191(4) -0.5569(2) 0.59533(19)
O6A O -0.0229(4) -0.4579(2) 0.74523(19)
O7A O 0.6136(4) 0.2863(2) -0.0103(2)
O8A O 0.2978(4) 0.3575(2) 0.0188(2)
O9A O 0.4067(4) 0.1797(2) -0.0631(2)
C1A C 0.4873(5) 0.0411(3) 0.4058(3)
C2A C 0.4257(5) -0.0897(3) 0.5294(3)
C3A C 0.4113(5) -0.0480(3) 0.4356(3)
C4A C 0.3030(5) -0.0964(3) 0.3720(3)
C5A C 0.3734(5) -0.1683(3) 0.3004(3)
C6A C 0.2682(5) -0.2193(3) 0.2501(3)
C7A C 0.0902(5) -0.2014(3) 0.2719(3)
C8A C 0.0183(6) -0.1273(4) 0.3422(3)
C9A C 0.1251(5) -0.0749(3) 0.3900(3)
C10A C 0.3374(5) -0.1827(3) 0.5612(3)
C11A C 0.3862(5) -0.2813(3) 0.5177(3)
C12A C 0.2946(5) -0.3646(3) 0.5422(3)
C13A C 0.1540(5) -0.3503(3) 0.6115(3)
C14A C 0.1079(5) -0.2527(3) 0.6564(3)
C15A C 0.1990(5) -0.1698(3) 0.6315(3)
C16A C 0.4644(5) 0.0901(3) 0.3080(3)
C17A C 0.3689(5) 0.1912(3) 0.3000(3)
C18A C 0.3529(5) 0.2413(3) 0.2108(3)
C19A C 0.4330(5) 0.1899(3) 0.1275(3)
C20A C 0.5258(5) 0.0878(3) 0.1348(3)
C21A C 0.5434(5) 0.0384(3) 0.2244(3)
H1A H -0.1325 -0.4357 0.5255
H2A H -0.1683 -0.3474 0.3266
H4A H 0.0473 -0.4389 0.2000
H5A H 0.2931 0.1900 -0.0841
H7A H 0.7104 0.2463 -0.0018
H8A H 0.4945 -0.1826 0.2857
H9A H 0.3177 -0.2671 0.2005
H10A H -0.1029 -0.1127 0.3568
H11A H 0.0755 -0.0231 0.4362
H12A H 0.4822 -0.2918 0.4708
H13A H 0.3274 -0.4313 0.5116
H14A H 0.0125 -0.2425 0.7038
H15A H 0.1674 -0.1037 0.6631
H16A H 0.3135 0.2261 0.3564
H17A H 0.2880 0.3106 0.2063
H18A H 0.5772 0.0515 0.0784
H19A H 0.6097 -0.0303 0.2294
Na1A Na 0.7201(3) -0.54463(18) 0.96873(17)
O10A O 0.4801(7) -0.4878(4) 0.8781(3)
O11A O 0.9440(7) -0.5853(6) 1.0626(4)
C22A C 0.5283(8) -0.5225(5) 0.7070(5)
C23A C 0.4290(12) -0.5280(7) 0.8006(5)
C24A C 1.0096(9) -0.6254(6) 0.9973(5)
H3A H 0.4252 -0.5344 0.9203
H6A H 0.9745 -0.5520 1.1195
H20A H 0.4749 -0.5520 0.6585
H21A H 0.6397 -0.5620 0.7121
H22A H 0.5376 -0.4506 0.6907
H23A H 0.4203 -0.6005 0.8139
H24A H 0.3181 -0.4891 0.7925
H25A H 1.0086 -0.6997 1.0044
H26A H 1.1252 -0.6127 0.9883
H27A H 0.9514 -0.5989 0.9430
Na1_2 Na 0.2799(3) -0.45537(18) 0.03127(17)
Na1_3 Na 0.2799(3) 0.54463(18) 0.03127(17)
Na1A_2 Na 0.7201(3) 0.45537(18) -0.03127(17)
Na1A_3 Na 0.7201(3) 0.45537(18) 0.96873(17)
O2_2 O 0.9373(5) -0.6261(2) 0.8288(2)
O2A_2 O 0.0627(5) -0.3739(2) 1.1712(2)
O7A_2 O 0.6136(4) -0.7137(2) 0.9897(2)
O8A_2 O 0.2978(4) -0.6425(2) 1.0188(2)
O12 O 0.8744(5) 0.1534(4) 1.0164(3)
C25 C 1.0596(9) 0.0516(5) 1.1317(5)
C26 C 0.9466(8) 0.1553(6) 1.1062(4)
H28 H 0.9502 0.1669 0.9622
H29 H 1.1034 0.0575 1.1918
H30 H 1.1526 0.0367 1.0832
H31 H 0.9933 -0.0045 1.1353
H32 H 1.0142 0.2106 1.1035
H33 H 0.8549 0.1694 1.1556
loop_
_geom_bond_atom_site_label_1
_geom_bond_atom_site_label_2
_geom_bond_site_symmetry_1
_geom_bond_site_symmetry_2
P1 O1 1_555 1_555
P2 O4 1_555 1_555
P3 O7 1_555 1_555
Na1 O7 1_555 1_555
O2 P1 1_555 1_555
O3 P1 1_555 1_555
O4 H1 1_555 1_555
O5 P2 1_555 1_555
O6 P2 1_555 1_555
O7 H7 1_555 1_555
O8 P3 1_555 1_555
O9 P3 1_555 1_555
O10 Na1 1_555 1_555
O11 Na1 1_555 1_555
C1 C3 1_555 1_555
C2 C3 1_555 1_555
C3 C4 1_555 1_555
C4 C5 1_555 1_555
C5 C6 1_555 1_555
C6 C7 1_555 1_555
C7 P1 1_555 1_555
C8 C7 1_555 1_555
C9 C4 1_555 1_555
C10 C2 1_555 1_555
C11 C10 1_555 1_555
C12 C11 1_555 1_555
C13 P2 1_555 1_555
C14 C13 1_555 1_555
C15 C10 1_555 1_555
C16 C1 1_555 1_555
C17 C16 1_555 1_555
C18 C17 1_555 1_555
C19 P3 1_555 1_555
C20 C19 1_555 1_555
C21 C16 1_555 1_555
C22 C23 1_555 1_555
C23 O10 1_555 1_555
C24 O11 1_555 1_555
H2 O3 1_555 1_555
H3 O10 1_555 1_555
H4 O2 1_555 1_555
H5 O9 1_555 1_555
H6 O11 1_555 1_555
H8 C5 1_555 1_555
H9 C6 1_555 1_555
H10 C8 1_555 1_555
H11 C9 1_555 1_555
H12 C11 1_555 1_555
H13 C12 1_555 1_555
H14 C14 1_555 1_555
H15 C15 1_555 1_555
H16 C17 1_555 1_555
H17 C18 1_555 1_555
H18 C20 1_555 1_555
H19 C21 1_555 1_555
H20 C22 1_555 1_555
H21 C22 1_555 1_555
H22 C22 1_555 1_555
H23 C23 1_555 1_555
H24 C23 1_555 1_555
H25 C24 1_555 1_555
H26 C24 1_555 1_555
H27 C24 1_555 1_555
O12 C26 1_555 1_555
C25 C26 1_555 1_555
C26 H32 1_555 1_555
H28 O12 1_555 1_555
H29 C25 1_555 1_555
H30 C25 1_555 1_555
H31 C25 1_555 1_555
H33 C26 1_555 1_555
P1A O1A 1_555 1_555
P2A O4A 1_555 1_555
P3A O7A 1_555 1_555
O2A P1A 1_555 1_555
O3A P1A 1_555 1_555
O4A H1A 1_555 1_555
O5A P2A 1_555 1_555
O6A P2A 1_555 1_555
O7A H7A 1_555 1_555
O8A P3A 1_555 1_555
O9A P3A 1_555 1_555
C1A C2 1_555 1_555
C2A C1 1_555 1_555
C3A C1A 1_555 1_555
C4A C3A 1_555 1_555
C5A C4A 1_555 1_555
C6A C5A 1_555 1_555
C7A P1A 1_555 1_555
C8A C7A 1_555 1_555
C9A C4A 1_555 1_555
C10A C2A 1_555 1_555
C11A C10A 1_555 1_555
C12A C11A 1_555 1_555
C13A P2A 1_555 1_555
C14A C13A 1_555 1_555
C15A C10A 1_555 1_555
C16A C1A 1_555 1_555
C17A C16A 1_555 1_555
C18A C17A 1_555 1_555
C19A P3A 1_555 1_555
C20A C19A 1_555 1_555
C21A C16A 1_555 1_555
H2A O3A 1_555 1_555
H4A O2A 1_555 1_555
H5A O9A 1_555 1_555
H8A C5A 1_555 1_555
H9A C6A 1_555 1_555
H10A C8A 1_555 1_555
H11A C9A 1_555 1_555
H12A C11A 1_555 1_555
H13A C12A 1_555 1_555
H14A C14A 1_555 1_555
H15A C15A 1_555 1_555
H16A C17A 1_555 1_555
H17A C18A 1_555 1_555
H18A C20A 1_555 1_555
H19A C21A 1_555 1_555
Na1A O8 1_555 1_555
O10A Na1 1_555 1_555
O11A Na1A 1_555 1_555
C22A C23A 1_555 1_555
C23A O10A 1_555 1_555
C24A O11A 1_555 1_555
H3A O10A 1_555 1_555
H6A O11A 1_555 1_555
H20A C22A 1_555 1_555
H21A C22A 1_555 1_555
H22A C22A 1_555 1_555
H23A C23A 1_555 1_555
H24A C23A 1_555 1_555
H25A C24A 1_555 1_555
H26A C24A 1_555 1_555
H27A C24A 1_555 1_555
Na1_2 O2A 1_555 1_555
Na1_3 O8A 1_555 1_555
Na1A_2 O7A 1_555 1_555
Na1A_3 O2 1_555 1_555
O2_2 Na1A 1_555 1_555
O2A_2 Na1 1_555 1_555
O7A_2 Na1A 1_555 1_555
O8A_2 Na1 1_555 1_555
O10 Na1A 1_555 1_555
C8 C9 1_555 1_555
C12 C13 1_555 1_555
C14 C15 1_555 1_555
C18 C19 1_555 1_555
C20 C21 1_555 1_555
C2A C3A 1_555 1_555
C6A C7A 1_555 1_555
C8A C9A 1_555 1_555
C12A C13A 1_555 1_555
C14A C15A 1_555 1_555
C18A C19A 1_555 1_555
C20A C21A 1_555 1_555
Na1A O10A 1_555 1_555

#END
