
#######################################################################
#
#                 Cambridge Crystallographic Data Centre
#                                CCDC 
#
#######################################################################
#
# If this CIF has been generated from an entry in the Cambridge 
# Structural Database, then it will include bibliographic, chemical, 
# crystal, experimental, refinement or atomic coordinate data resulting 
# from the CCDC's data processing and validation procedures.
#
#######################################################################

data_LIXROZ
_symmetry_cell_setting           orthorhombic
_symmetry_space_group_name_H-M   'P n a 21'
_symmetry_Int_Tables_number      33
_space_group_name_Hall           'P 2c -2n'
loop_
_symmetry_equiv_pos_site_id
_symmetry_equiv_pos_as_xyz
1 x,y,z
2 -x,-y,1/2+z
3 1/2+x,1/2-y,z
4 1/2-x,1/2+y,1/2+z
_cell_length_a                   12.9124(2)
_cell_length_b                   20.7944(2)
_cell_length_c                   4.44570(10)
_cell_angle_alpha                90
_cell_angle_beta                 90
_cell_angle_gamma                90
_cell_volume                     1193.7
loop_
_atom_site_label
_atom_site_type_symbol
_atom_site_fract_x
_atom_site_fract_y
_atom_site_fract_z
I1 I 0.86789(2) 0.959507(15) 1.65334(11)
Cu1 Cu 1.06762(5) 0.97669(3) 1.6549(3)
S1 S 1.17628(10) 0.88951(7) 1.6895(5)
S2 S 1.01659(10) 0.81675(7) 1.3263(3)
S3 S 1.21931(9) 0.76309(7) 1.4228(3)
S4 S 1.19367(11) 0.64978(7) 1.0274(3)
S5 S 0.94158(11) 0.70776(8) 0.9453(3)
O1 O 0.9927(4) 0.5509(2) 0.8007(11)
C1 C 1.1379(4) 0.8271(3) 1.4844(12)
C2 C 1.0420(3) 0.7433(2) 1.1515(16)
C3 C 1.1383(3) 0.7183(2) 1.1948(15)
C4 C 0.9294(4) 0.6300(3) 1.1350(18)
C5 C 1.0096(5) 0.5841(3) 1.0195(13)
C6 C 1.1141(4) 0.5836(3) 1.1738(22)
H1 H 0.9348(42) 0.6373(27) 1.341(15)
H2 H 1.1211(37) 0.5888(28) 1.411(14)
H3 H 1.1491(52) 0.5497(33) 1.113(26)
H4 H 0.8659(45) 0.6204(28) 1.085(15)
I1A I 1.13211(2) 1.040493(15) 2.15334(11)
Cu1A Cu 0.93238(5) 1.02331(3) 2.1549(3)
I1A_2 I 1.13211(2) 1.040493(15) 1.15334(11)
Cu1A_2 Cu 0.93238(5) 1.02331(3) 1.1549(3)
loop_
_geom_bond_atom_site_label_1
_geom_bond_atom_site_label_2
_geom_bond_site_symmetry_1
_geom_bond_site_symmetry_2
I1 Cu1 1_555 1_555
Cu1 S1 1_555 1_555
S1 C1 1_555 1_555
S2 C1 1_555 1_555
S3 C1 1_555 1_555
S4 C3 1_555 1_555
S5 C2 1_555 1_555
O1 C5 1_555 1_555
C2 S2 1_555 1_555
C3 S3 1_555 1_555
C4 S5 1_555 1_555
C5 C4 1_555 1_555
C6 S4 1_555 1_555
H1 C4 1_555 1_555
H2 C6 1_555 1_555
H3 C6 1_555 1_555
H4 C4 1_555 1_555
I1A Cu1 1_555 1_555
Cu1A I1 1_555 1_555
I1A_2 Cu1 1_555 1_555
Cu1A_2 I1 1_555 1_555
C2 C3 1_555 1_555
C5 C6 1_555 1_555
I1A Cu1A 1_555 1_555
I1A_2 Cu1A_2 1_555 1_555

#END
