
#######################################################################
#
#                 Cambridge Crystallographic Data Centre
#                                CCDC 
#
#######################################################################
#
# If this CIF has been generated from an entry in the Cambridge 
# Structural Database, then it will include bibliographic, chemical, 
# crystal, experimental, refinement or atomic coordinate data resulting 
# from the CCDC's data processing and validation procedures.
#
#######################################################################

data_LIXVAR
_symmetry_cell_setting           triclinic
_symmetry_space_group_name_H-M   'P -1'
_symmetry_Int_Tables_number      2
_space_group_name_Hall           '-P 1'
loop_
_symmetry_equiv_pos_site_id
_symmetry_equiv_pos_as_xyz
1 x,y,z
2 -x,-y,-z
_cell_length_a                   8.7315(3)
_cell_length_b                   10.2374(3)
_cell_length_c                   12.5966(4)
_cell_angle_alpha                85.1440(10)
_cell_angle_beta                 80.5740(10)
_cell_angle_gamma                76.8290(10)
_cell_volume                     1080.25
loop_
_atom_site_label
_atom_site_type_symbol
_atom_site_fract_x
_atom_site_fract_y
_atom_site_fract_z
C1 C 0.85837(18) -0.10339(15) 0.48413(12)
C2 C 0.73030(19) -0.04167(16) 0.55736(13)
H1 H 0.7052 -0.0858 0.6233
C3 C 0.63918(18) 0.08450(15) 0.53396(13)
C4 C 0.6776(2) 0.14960(17) 0.43460(14)
H2 H 0.6173 0.2338 0.4174
C5 C 0.8046(2) 0.08946(18) 0.36173(14)
H3 H 0.8298 0.1338 0.2958
C6 C 0.8953(2) -0.03647(18) 0.38568(13)
H4 H 0.9807 -0.0761 0.3360
C7 C 1.1376(2) -0.42035(17) 0.50930(14)
H5 H 1.2175 -0.4911 0.4818
C8 C 0.9646(2) -0.29193(16) 0.61722(13)
H6 H 0.9027 -0.2580 0.6803
C9 C 0.95435(18) -0.23304(15) 0.51695(12)
C10 C 0.3267(2) 0.17104(17) 0.75770(14)
H7 H 0.2680 0.1513 0.8232
C11 C 0.4128(2) 0.27526(17) 0.61374(15)
H8 H 0.4238 0.3430 0.5608
C12 C 0.50584(18) 0.14809(15) 0.61238(13)
C13 C -0.2721(2) 0.27961(16) 1.03917(13)
H9 H -0.3793 0.2753 1.0752
C14 C -0.29266(18) 0.34028(16) 0.92511(13)
H10 H -0.3722 0.4249 0.9332
C15 C -0.3608(2) 0.2473(2) 0.86447(16)
H11 H -0.4689 0.2467 0.8980
H12 H -0.3640 0.2820 0.7906
C16 C -0.2616(3) 0.1048(2) 0.86504(17)
H13 H -0.3090 0.0487 0.8276
H14 H -0.1554 0.1042 0.8271
C17 C -0.2515(3) 0.04815(19) 0.97904(18)
H15 H -0.1876 -0.0428 0.9778
H16 H -0.3572 0.0452 1.0162
C18 C -0.1770(3) 0.13526(18) 1.03891(16)
H17 H -0.1736 0.0996 1.1125
H18 H -0.0686 0.1331 1.0045
C19 C -0.2131(2) 0.36977(17) 1.10578(12)
C20 C -0.14185(19) 0.37353(16) 0.86041(13)
Cd1 Cd 0.121853(12) 0.468857(10) 0.766255(8)
N1 N 1.06667(17) -0.31704(14) 0.44935(11)
H19 H 1.0877 -0.3052 0.3806
N2 N 1.07995(16) -0.40905(13) 0.61194(11)
N3 N 0.44817(16) 0.08393(13) 0.70550(12)
H20 H 0.4839 0.0021 0.7266
N4 N 0.30124(17) 0.28811(14) 0.70443(12)
O1 O -0.09327(16) 0.32608(13) 1.15182(10)
O2 O -0.29471(15) 0.48859(13) 1.11845(11)
O3 O -0.02397(15) 0.37075(15) 0.90536(10)
O4 O -0.14129(16) 0.40947(14) 0.76204(10)
Cd1_2 Cd 1.121853(12) -0.531143(10) 0.766255(8)
Cd1A Cd -0.121853(12) 0.531143(10) 1.233745(8)
N2_2 N 0.07995(16) 0.59095(13) 0.61194(11)
O1A O 0.09327(16) 0.67392(13) 0.84818(10)
O2A O 0.29471(15) 0.51141(13) 0.88155(11)
O5 O 0.5634(2) 0.56825(18) 0.70982(16)
H21 H 0.506(4) 0.542(3) 0.742(3)
H22 H 0.649(3) 0.529(3) 0.722(2)
O6 O 0.5786(2) 0.81964(15) 0.78556(14)
H23 H 0.622(3) 0.794(3) 0.833(2)
H24 H 0.575(3) 0.760(3) 0.756(2)
O7 O 0.2427(2) 0.29882(19) 0.05215(17)
H25 H 0.153(5) 0.309(4) 0.069(3)
H26 H 0.265(4) 0.351(3) 0.011(3)
loop_
_geom_bond_atom_site_label_1
_geom_bond_atom_site_label_2
_geom_bond_site_symmetry_1
_geom_bond_site_symmetry_2
C1 C2 1_555 1_555
C2 H1 1_555 1_555
C3 C2 1_555 1_555
C4 C3 1_555 1_555
H2 C4 1_555 1_555
C5 C4 1_555 1_555
H3 C5 1_555 1_555
C6 C1 1_555 1_555
H4 C6 1_555 1_555
C7 H5 1_555 1_555
C8 H6 1_555 1_555
C9 C1 1_555 1_555
C10 H7 1_555 1_555
C11 H8 1_555 1_555
C12 C3 1_555 1_555
C13 H9 1_555 1_555
C14 C13 1_555 1_555
H10 C14 1_555 1_555
C15 C14 1_555 1_555
H11 C15 1_555 1_555
H12 C15 1_555 1_555
C16 C15 1_555 1_555
H13 C16 1_555 1_555
H14 C16 1_555 1_555
C17 C16 1_555 1_555
H15 C17 1_555 1_555
H16 C17 1_555 1_555
C18 C13 1_555 1_555
H17 C18 1_555 1_555
H18 C18 1_555 1_555
C19 C13 1_555 1_555
C20 C14 1_555 1_555
Cd1 N4 1_555 1_555
N1 C7 1_555 1_555
H19 N1 1_555 1_555
N2 C7 1_555 1_555
N3 C10 1_555 1_555
H20 N3 1_555 1_555
N4 C10 1_555 1_555
O1 C19 1_555 1_555
O2 C19 1_555 1_555
O3 C20 1_555 1_555
O4 C20 1_555 1_555
O5 H21 1_555 1_555
H22 O5 1_555 1_555
O6 H23 1_555 1_555
H24 O6 1_555 1_555
O7 H25 1_555 1_555
H26 O7 1_555 1_555
Cd1_2 N2 1_555 1_555
Cd1A O1 1_555 1_555
N2_2 Cd1 1_555 1_555
O1A Cd1 1_555 1_555
O2A Cd1 1_555 1_555
C5 C6 1_555 1_555
C8 C9 1_555 1_555
C8 N2 1_555 1_555
C9 N1 1_555 1_555
C11 C12 1_555 1_555
C11 N4 1_555 1_555
C12 N3 1_555 1_555
C17 C18 1_555 1_555
Cd1 O3 1_555 1_555
Cd1 O4 1_555 1_555
O2 Cd1A 1_555 1_555

#END
