
#######################################################################
#
#                 Cambridge Crystallographic Data Centre
#                                CCDC 
#
#######################################################################
#
# If this CIF has been generated from an entry in the Cambridge 
# Structural Database, then it will include bibliographic, chemical, 
# crystal, experimental, refinement or atomic coordinate data resulting 
# from the CCDC's data processing and validation procedures.
#
#######################################################################

data_LIXVIZ
_symmetry_cell_setting           monoclinic
_symmetry_space_group_name_H-M   'P 21/c'
_symmetry_Int_Tables_number      14
_space_group_name_Hall           '-P 2ybc'
loop_
_symmetry_equiv_pos_site_id
_symmetry_equiv_pos_as_xyz
1 x,y,z
2 -x,1/2+y,1/2-z
3 -x,-y,-z
4 x,1/2-y,1/2+z
_cell_length_a                   12.733(10)
_cell_length_b                   9.909(8)
_cell_length_c                   16.611(13)
_cell_angle_alpha                90
_cell_angle_beta                 94.184(11)
_cell_angle_gamma                90
_cell_volume                     2090.25
loop_
_atom_site_label
_atom_site_type_symbol
_atom_site_fract_x
_atom_site_fract_y
_atom_site_fract_z
Cd1 Cd 0.23903(2) 0.50722(3) 1.158298(19)
C1 C 0.2157(4) 0.5306(6) 0.8770(3)
C2 C 0.2468(3) 0.4557(5) 0.9464(3)
H1 H 0.1972 0.4349 0.9829
C3 C 0.3503(3) 0.4119(5) 0.9617(3)
C4 C 0.4248(3) 0.4440(5) 0.9057(3)
H2 H 0.4940 0.4148 0.9148
C5 C 0.3954(4) 0.5181(5) 0.8379(4)
H3 H 0.4453 0.5393 0.8017
C6 C 0.2909(4) 0.5626(6) 0.8223(3)
H4 H 0.2719 0.6127 0.7762
C7 C -0.0338(4) 0.6860(5) 0.8118(3)
H5 H -0.0746 0.7525 0.7853
C8 C 0.0132(4) 0.5071(4) 0.8790(4)
H6 H 0.0097 0.4265 0.9074
C9 C 0.1042(3) 0.5693(5) 0.8609(3)
C10 C 0.3817(4) 0.2477(5) 1.1550(3)
H7 H 0.3676 0.2352 1.2086
C11 C 0.4467(3) 0.2182(5) 1.0370(3)
H8 H 0.4845 0.1841 0.9957
C12 C 0.3820(3) 0.3282(5) 1.0330(2)
C13 C 0.2438(6) 1.0123(5) 0.9134(4)
H9 H 0.3051 1.0670 0.9317
C14 C 0.2528(4) 0.8791(5) 0.9586(3)
H10 H 0.3187 0.8359 0.9479
H11 H 0.1958 0.8202 0.9388
C15 C 0.2485(4) 0.8975(5) 1.0499(3)
H12 H 0.3103 0.9496 1.0701
C16 C 0.1499(4) 0.9742(6) 1.0699(3)
H13 H 0.1529 0.9910 1.1276
H14 H 0.0885 0.9187 1.0559
C17 C 0.1379(4) 1.1103(5) 1.0244(3)
H15 H 0.0703 1.1502 1.0338
H16 H 0.1926 1.1719 1.0450
C18 C 0.1456(4) 1.0904(6) 0.9336(3)
H17 H 0.0836 1.0423 0.9117
H18 H 0.1461 1.1781 0.9077
C19 C 0.2450(5) 0.9977(5) 0.8228(5)
C20 C 0.2538(3) 0.7585(5) 1.0903(2)
N1 N 0.0725(3) 0.6829(4) 0.8173(2)
H19 H 0.1133 0.7412 0.7972
N2 N -0.0719(3) 0.5803(4) 0.8496(2)
N3 N 0.3414(3) 0.3475(4) 1.1081(2)
N4 N 0.4452(3) 0.1676(4) 1.1144(2)
H20 H 0.4786 0.0977 1.1333
O1 O 0.2899(3) 1.0901(4) 0.7865(2)
O2 O 0.2035(3) 0.8977(4) 0.7850(2)
O3 O 0.1731(3) 0.6835(4) 1.0828(2)
O4 O 0.3373(3) 0.7195(4) 1.1284(2)
Cd1B Cd -0.23903(2) 0.49278(3) 0.841702(19)
Cd1C Cd 0.23903(2) 0.99278(3) 0.658298(19)
N2B N 0.0719(3) 0.4197(4) 1.1504(2)
O1C O 0.2899(3) 0.4099(4) 1.2865(2)
O2C O 0.2035(3) 0.6023(4) 1.2850(2)
H21 H 0.446(5) 0.830(7) 0.143(4)
H22 H 0.549(5) 0.877(6) 0.162(3)
O5 O 0.5007(3) 0.9032(4) 0.1496(2)
loop_
_geom_bond_atom_site_label_1
_geom_bond_atom_site_label_2
_geom_bond_site_symmetry_1
_geom_bond_site_symmetry_2
Cd1 N3 1_555 1_555
C1 C2 1_555 1_555
C2 H1 1_555 1_555
C3 C2 1_555 1_555
C4 C3 1_555 1_555
H2 C4 1_555 1_555
C5 C4 1_555 1_555
H3 C5 1_555 1_555
C6 C1 1_555 1_555
H4 C6 1_555 1_555
C7 H5 1_555 1_555
C8 H6 1_555 1_555
C9 C1 1_555 1_555
C10 H7 1_555 1_555
C11 H8 1_555 1_555
C12 C3 1_555 1_555
C13 H9 1_555 1_555
C14 C13 1_555 1_555
H10 C14 1_555 1_555
H11 C14 1_555 1_555
C15 C14 1_555 1_555
H12 C15 1_555 1_555
C16 C15 1_555 1_555
H13 C16 1_555 1_555
H14 C16 1_555 1_555
C17 C16 1_555 1_555
H15 C17 1_555 1_555
H16 C17 1_555 1_555
C18 C13 1_555 1_555
H17 C18 1_555 1_555
H18 C18 1_555 1_555
C19 C13 1_555 1_555
C20 C15 1_555 1_555
N1 C7 1_555 1_555
H19 N1 1_555 1_555
N2 C7 1_555 1_555
N3 C10 1_555 1_555
N4 C10 1_555 1_555
H20 N4 1_555 1_555
O1 C19 1_555 1_555
O2 C19 1_555 1_555
O3 Cd1 1_555 1_555
O4 Cd1 1_555 1_555
H21 O5 1_555 1_555
H22 O5 1_555 1_555
Cd1B N2 1_555 1_555
Cd1C O1 1_555 1_555
N2B Cd1 1_555 1_555
O1C Cd1 1_555 1_555
O2C Cd1 1_555 1_555
C5 C6 1_555 1_555
C8 C9 1_555 1_555
C8 N2 1_555 1_555
C9 N1 1_555 1_555
C11 C12 1_555 1_555
C11 N4 1_555 1_555
C12 N3 1_555 1_555
C17 C18 1_555 1_555
C20 O3 1_555 1_555
C20 O4 1_555 1_555
O2 Cd1C 1_555 1_555

#END
