
#######################################################################
#
#                 Cambridge Crystallographic Data Centre
#                                CCDC 
#
#######################################################################
#
# If this CIF has been generated from an entry in the Cambridge 
# Structural Database, then it will include bibliographic, chemical, 
# crystal, experimental, refinement or atomic coordinate data resulting 
# from the CCDC's data processing and validation procedures.
#
#######################################################################

data_LIXVUL
_symmetry_cell_setting           triclinic
_symmetry_space_group_name_H-M   'P -1'
_symmetry_Int_Tables_number      2
_space_group_name_Hall           '-P 1'
loop_
_symmetry_equiv_pos_site_id
_symmetry_equiv_pos_as_xyz
1 x,y,z
2 -x,-y,-z
_cell_length_a                   8.453(8)
_cell_length_b                   8.831(8)
_cell_length_c                   14.795(13)
_cell_angle_alpha                82.632(14)
_cell_angle_beta                 76.522(14)
_cell_angle_gamma                69.758(14)
_cell_volume                     1006.3
loop_
_atom_site_label
_atom_site_type_symbol
_atom_site_fract_x
_atom_site_fract_y
_atom_site_fract_z
C1 C 0.4758(6) 0.1729(5) 0.0978(3)
C2 C 0.4422(6) 0.0862(5) 0.1807(3)
H1 H 0.5205 -0.0148 0.1917
C3 C 0.2954(6) 0.1463(6) 0.2470(3)
C4 C 0.1787(6) 0.2965(6) 0.2322(4)
H2 H 0.0795 0.3373 0.2770
C5 C 0.2104(7) 0.3874(6) 0.1493(4)
H3 H 0.1335 0.4895 0.1389
C6 C 0.3574(6) 0.3235(6) 0.0831(4)
H4 H 0.3773 0.3828 0.0275
C7 C 0.8773(6) -0.0630(5) -0.0389(3)
H5 H 0.9770 -0.1524 -0.0468
C8 C 0.6820(6) 0.1605(6) -0.0631(4)
H6 H 0.6212 0.2554 -0.0923
C9 C 0.6306(6) 0.1091(5) 0.0265(3)
C10 C 0.1652(6) -0.1233(6) 0.4261(4)
H7 H 0.1092 -0.1979 0.4505
C11 C 0.3181(7) 0.0345(7) 0.4153(4)
H8 H 0.3863 0.0881 0.4289
C12 C 0.2626(6) 0.0486(6) 0.3339(3)
C13 C -0.3143(6) 0.6489(5) 0.2922(3)
H9 H -0.4255 0.7351 0.3061
C14 C -0.3090(7) 0.5789(6) 0.2029(4)
H10 H -0.1969 0.4987 0.1841
H11 H -0.3243 0.6642 0.1542
C15 C -0.4471(6) 0.5011(6) 0.2135(4)
H12 H -0.5594 0.5840 0.2233
H13 H -0.4323 0.4499 0.1564
C16 C -0.4401(6) 0.3765(5) 0.2938(3)
H14 H -0.5424 0.3438 0.3021
C17 C -0.4518(6) 0.4522(5) 0.3836(4)
H15 H -0.5629 0.5357 0.3988
H16 H -0.4435 0.3701 0.4342
C18 C -0.3089(6) 0.5257(6) 0.3746(3)
H17 H -0.3240 0.5779 0.4313
H18 H -0.1978 0.4409 0.3657
C19 C -0.1754(6) 0.7279(5) 0.2813(4)
C20 C -0.2831(6) 0.2240(5) 0.2769(3)
Cd1 Cd -0.00472(4) -0.05073(4) 0.24673(2)
N1 N 0.7589(5) -0.0357(5) 0.0395(3)
H19 H 0.7615 -0.0972 0.0896
N2 N 0.8361(5) 0.0526(5) -0.1045(3)
N3 N 0.1665(5) -0.0543(5) 0.3419(3)
N4 N 0.2543(5) -0.0728(5) 0.4721(3)
H20 H 0.2687 -0.1031 0.5281
O1 O -0.0948(5) 0.7199(5) 0.3426(3)
O2 O -0.1544(4) 0.8129(4) 0.2053(2)
O3 O -0.1900(5) 0.2009(4) 0.1984(2)
O4 O -0.2529(5) 0.1213(4) 0.3437(2)
Cd1_2 Cd -0.00472(4) 0.94927(4) 0.24673(2)
Cd1A Cd 1.00472(4) 0.05073(4) -0.24673(2)
N2A N 0.1639(5) -0.0526(5) 0.1045(3)
O1_2 O -0.0948(5) -0.2801(5) 0.3426(3)
O2_2 O -0.1544(4) -0.1871(4) 0.2053(2)
loop_
_geom_bond_atom_site_label_1
_geom_bond_atom_site_label_2
_geom_bond_site_symmetry_1
_geom_bond_site_symmetry_2
C1 C2 1_555 1_555
C2 H1 1_555 1_555
C3 C2 1_555 1_555
C4 C3 1_555 1_555
H2 C4 1_555 1_555
C5 C4 1_555 1_555
H3 C5 1_555 1_555
C6 C1 1_555 1_555
H4 C6 1_555 1_555
C7 H5 1_555 1_555
C8 H6 1_555 1_555
C9 C1 1_555 1_555
C10 H7 1_555 1_555
C11 H8 1_555 1_555
C12 C3 1_555 1_555
C13 H9 1_555 1_555
C14 C13 1_555 1_555
H10 C14 1_555 1_555
H11 C14 1_555 1_555
C15 C14 1_555 1_555
H12 C15 1_555 1_555
H13 C15 1_555 1_555
C16 C15 1_555 1_555
H14 C16 1_555 1_555
C17 C16 1_555 1_555
H15 C17 1_555 1_555
H16 C17 1_555 1_555
C18 C13 1_555 1_555
H17 C18 1_555 1_555
H18 C18 1_555 1_555
C19 C13 1_555 1_555
C20 C16 1_555 1_555
Cd1 N3 1_555 1_555
N1 C7 1_555 1_555
H19 N1 1_555 1_555
N2 C7 1_555 1_555
N3 C10 1_555 1_555
N4 C10 1_555 1_555
H20 N4 1_555 1_555
O1 C19 1_555 1_555
O2 C19 1_555 1_555
O3 C20 1_555 1_555
O4 C20 1_555 1_555
Cd1_2 O1 1_555 1_555
Cd1A N2 1_555 1_555
N2A Cd1 1_555 1_555
O1_2 Cd1 1_555 1_555
O2_2 Cd1 1_555 1_555
C5 C6 1_555 1_555
C8 C9 1_555 1_555
C8 N2 1_555 1_555
C9 N1 1_555 1_555
C11 C12 1_555 1_555
C11 N4 1_555 1_555
C12 N3 1_555 1_555
C17 C18 1_555 1_555
Cd1 O3 1_555 1_555
Cd1 O4 1_555 1_555
O2 Cd1_2 1_555 1_555

#END
