
#######################################################################
#
#                 Cambridge Crystallographic Data Centre
#                                CCDC 
#
#######################################################################
#
# If this CIF has been generated from an entry in the Cambridge 
# Structural Database, then it will include bibliographic, chemical, 
# crystal, experimental, refinement or atomic coordinate data resulting 
# from the CCDC's data processing and validation procedures.
#
#######################################################################

data_LIXVEV
_symmetry_cell_setting           monoclinic
_symmetry_space_group_name_H-M   'P 2/c'
_symmetry_Int_Tables_number      13
_space_group_name_Hall           '-P 2yc'
loop_
_symmetry_equiv_pos_site_id
_symmetry_equiv_pos_as_xyz
1 x,y,z
2 -x,y,1/2-z
3 -x,-y,-z
4 x,-y,1/2+z
_cell_length_a                   28.718(7)
_cell_length_b                   7.1528(17)
_cell_length_c                   22.348(5)
_cell_angle_alpha                90
_cell_angle_beta                 112.90
_cell_angle_gamma                90
_cell_volume                     4228.79
loop_
_atom_site_label
_atom_site_type_symbol
_atom_site_fract_x
_atom_site_fract_y
_atom_site_fract_z
C1 C -0.0129(3) 0.5498(13) 0.0797(5)
C2 C 0.1923(4) 0.2348(14) 0.1375(5)
C3 C 0.1146(3) 0.1891(15) 0.0823(5)
C4 C 0.1164(3) 0.3505(12) 0.1158(5)
C5 C 0.5663(4) -0.4838(14) 0.4514(5)
C6 C 0.5161(4) -0.4121(12) 0.4326(5)
C7 C 0.4747(4) -0.5292(15) 0.4016(5)
C8 C 0.4831(4) -0.7155(17) 0.3906(6)
C9 C 0.5321(4) -0.7835(16) 0.4080(6)
C10 C 0.5732(4) -0.6673(15) 0.4390(5)
C11 C 0.6863(4) -0.2601(16) 0.5390(6)
C12 C 0.0263(3) 0.4236(12) 0.0873(4)
C13 C 0.6089(4) -0.2074(16) 0.5248(5)
C14 C 0.6079(4) -0.3556(13) 0.4890(5)
C15 C 0.3406(4) -0.4360(16) 0.3391(6)
C16 C 0.4067(4) -0.2888(14) 0.3994(5)
C17 C 0.4236(4) -0.4527(14) 0.3843(5)
C18 C 0.3442(3) -0.1280(15) 0.1456(5)
C19 C 0.3634(4) 0.0296(17) 0.1948(5)
C20 C 0.4214(4) 0.027(2) 0.2269(6)
C21 C 0.4391(4) -0.155(2) 0.2604(6)
C22 C 0.4212(4) -0.318(3) 0.2125(7)
C23 C 0.0770(3) 0.4824(12) 0.1148(5)
C24 C 0.3628(4) -0.3216(18) 0.1773(6)
C25 C 0.2870(3) -0.1220(16) 0.1075(5)
C26 C 0.3397(3) 0.0220(12) 0.2449(5)
C27 C 0.1326(4) -0.0113(16) 0.3303(5)
C28 C 0.1550(4) 0.1232(18) 0.2956(5)
C29 C 0.1413(5) 0.3283(19) 0.3000(7)
C30 C 0.0845(5) 0.352(3) 0.2795(8)
C31 C 0.0632(5) 0.223(3) 0.3157(8)
C32 C 0.0753(4) 0.018(3) 0.3056(6)
C33 C 0.1565(3) 0.0065(13) 0.4034(5)
C34 C 0.0877(4) 0.6652(15) 0.1371(5)
C35 C 0.2114(4) 0.0919(14) 0.3114(5)
C36 C 0.0484(4) 0.7871(15) 0.1298(5)
C37 C -0.0019(4) 0.7342(16) 0.1008(6)
C38 C -0.1480(3) 0.4815(14) 0.0147(6)
C39 C -0.0843(3) 0.3214(11) 0.0152(5)
C40 C -0.0652(3) 0.4839(13) 0.0478(5)
Cd1 Cd 0.18810(3) -0.07702(9) 0.03407(4)
Cd2 Cd 0.30925(3) -0.00883(14) 0.34880(4)
H1 H -0.1065 0.6899 0.0645
H2 H 0.2273 0.2227 0.1556
H3 H 0.0848 0.135 0.0536
H4 H 0.5111 -0.288 0.441
H5 H 0.4557 -0.7953 0.3716
H6 H 0.5373 -0.9067 0.3987
H7 H 0.6058 -0.7146 0.4516
H8 H 0.7212 -0.2501 0.5523
H9 H 0.0188 0.3001 0.074
H10 H 0.5806 -0.1519 0.5276
H11 H 0.3073 -0.4687 0.3145
H12 H 0.4276 -0.1953 0.4249
H13 H 0.3596 -0.109 0.1139
H14 H 0.3533 0.1479 0.1711
H15 H 0.4354 0.0458 0.1942
H16 H 0.433 0.1285 0.2582
H17 H 0.4262 -0.1703 0.2943
H18 H 0.4757 -0.1552 0.2806
H19 H 0.4326 -0.4343 0.2357
H20 H 0.4362 -0.3067 0.1806
H21 H 0.1808 0.4675 0.1776
H22 H 0.3476 -0.3499 0.2081
H23 H 0.3529 -0.418 0.1442
H24 H 0.1386 -0.139 0.319
H25 H 0.1381 0.0915 0.2494
H26 H 0.1585 0.3718 0.3443
H27 H 0.1527 0.4038 0.2723
H28 H 0.0774 0.4806 0.2874
H29 H 0.0678 0.3286 0.2333
H30 H 0.0268 0.2391 0.3001
H31 H 0.0776 0.2525 0.3617
H32 H 0.0613 -0.0641 0.3288
H33 H 0.0599 -0.0125 0.2598
H34 H 0.1211 0.7053 0.1568
H35 H 0.0561 0.909 0.1449
H36 H 0.6688 -0.4812 0.4817
H37 H -0.0276 0.8195 0.0956
H38 H -0.1809 0.5174 0.0075
H39 H 0.3788 -0.6484 0.3276
H40 H -0.0653 0.2248 0.0083
N1 N -0.1070(3) 0.5823(11) 0.0471(4)
N2 N -0.1357(3) 0.3243(10) -0.0055(4)
N3 N 0.1673(3) 0.3767(11) 0.1513(4)
N4 N 0.1621(3) 0.1153(12) 0.0958(4)
N5 N 0.6580(3) -0.3914(12) 0.4986(5)
N6 N 0.6583(3) -0.1461(13) 0.5575(4)
N7 N 0.3802(3) -0.5408(12) 0.3454(5)
N8 N 0.3546(3) -0.2795(11) 0.3720(5)
O1 O 0.2985(2) -0.0549(12) 0.2335(4)
O2 O 0.3618(3) 0.1036(10) 0.2993(4)
O3 O 0.2691(2) 0.0359(10) 0.0832(4)
O4 O 0.2607(3) -0.2619(10) 0.0982(4)
O5 O 0.1958(2) 0.1013(11) 0.4301(3)
O6 O 0.1349(3) -0.0692(10) 0.4374(4)
O7 O 0.2412(3) 0.2222(10) 0.3176(4)
O8 O 0.2263(3) -0.0786(10) 0.3199(4)
Cd1B Cd -0.18810(3) 0.07702(9) -0.03407(4)
Cd1C Cd 0.18810(3) 0.07702(9) 0.53407(4)
Cd2B Cd 0.69075(3) 0.00883(14) 0.65120(4)
N2B N 0.1357(3) -0.3243(10) 0.0055(4)
N6B N 0.3417(3) 0.1461(13) 0.4425(4)
O5C O 0.1958(2) -0.1013(11) -0.0699(3)
O6C O 0.1349(3) 0.0692(10) -0.0626(4)
H41 H 0.697 0.7144 0.933
H42 H 0.732 0.5699 0.949
O9 O 0.7129(6) 0.635(3) 0.9620(11)
H43 H 0.2402 0.602 0.4343
H44 H 0.2256 0.6968 0.3756
O10 O 0.2333(11) 0.591(5) 0.3939(19)
H45 H 0.2338 0.7477 0.1964
H46 H 0.2215 0.7167 0.2537
O11 O 0.2196(3) 0.6829(13) 0.2163(5)
loop_
_geom_bond_atom_site_label_1
_geom_bond_atom_site_label_2
_geom_bond_site_symmetry_1
_geom_bond_site_symmetry_2
C1 C12 1_555 1_555
C2 H2 1_555 1_555
C3 C4 1_555 1_555
C4 C23 1_555 1_555
C5 C6 1_555 1_555
C6 C7 1_555 1_555
C7 C8 1_555 1_555
C8 C9 1_555 1_555
C9 C10 1_555 1_555
C10 C5 1_555 1_555
C11 H8 1_555 1_555
C12 C23 1_555 1_555
C13 C14 1_555 1_555
C14 C5 1_555 1_555
C15 H11 1_555 1_555
C16 C17 1_555 1_555
C17 C7 1_555 1_555
C18 C19 1_555 1_555
C19 C20 1_555 1_555
C20 C21 1_555 1_555
C21 C22 1_555 1_555
C22 C24 1_555 1_555
C23 C34 1_555 1_555
C24 C18 1_555 1_555
C25 C18 1_555 1_555
C26 C19 1_555 1_555
C27 C28 1_555 1_555
C28 C29 1_555 1_555
C29 C30 1_555 1_555
C30 C31 1_555 1_555
C31 C32 1_555 1_555
C32 C27 1_555 1_555
C33 C27 1_555 1_555
C34 C36 1_555 1_555
C35 C28 1_555 1_555
C36 C37 1_555 1_555
C37 C1 1_555 1_555
C38 H38 1_555 1_555
C39 C40 1_555 1_555
C40 C1 1_555 1_555
Cd1 N4 1_555 1_555
Cd2 N8 1_555 1_555
H1 N1 1_555 1_555
H3 C3 1_555 1_555
H4 C6 1_555 1_555
H5 C8 1_555 1_555
H6 C9 1_555 1_555
H7 C10 1_555 1_555
H9 C12 1_555 1_555
H10 C13 1_555 1_555
H12 C16 1_555 1_555
H13 C18 1_555 1_555
H14 C19 1_555 1_555
H15 C20 1_555 1_555
H16 C20 1_555 1_555
H17 C21 1_555 1_555
H18 C21 1_555 1_555
H19 C22 1_555 1_555
H20 C22 1_555 1_555
H21 N3 1_555 1_555
H22 C24 1_555 1_555
H23 C24 1_555 1_555
H24 C27 1_555 1_555
H25 C28 1_555 1_555
H26 C29 1_555 1_555
H27 C29 1_555 1_555
H28 C30 1_555 1_555
H29 C30 1_555 1_555
H30 C31 1_555 1_555
H31 C31 1_555 1_555
H32 C32 1_555 1_555
H33 C32 1_555 1_555
H34 C34 1_555 1_555
H35 C36 1_555 1_555
H36 N5 1_555 1_555
H37 C37 1_555 1_555
H39 N7 1_555 1_555
H40 C39 1_555 1_555
N1 C38 1_555 1_555
N2 C38 1_555 1_555
N3 C2 1_555 1_555
N4 C2 1_555 1_555
N5 C11 1_555 1_555
N6 C11 1_555 1_555
N7 C15 1_555 1_555
N8 C15 1_555 1_555
O1 C26 1_555 1_555
O2 C26 1_555 1_555
O3 C25 1_555 1_555
O4 C25 1_555 1_555
O5 C33 1_555 1_555
O6 C33 1_555 1_555
O7 C35 1_555 1_555
O8 C35 1_555 1_555
H41 O9 1_555 1_555
H42 O9 1_555 1_555
H43 O10 1_555 1_555
H44 O10 1_555 1_555
H45 O11 1_555 1_555
H46 O11 1_555 1_555
Cd1B N2 1_555 1_555
Cd1C O5 1_555 1_555
Cd2B N6 1_555 1_555
N2B Cd1 1_555 1_555
N6B Cd2 1_555 1_555
O5C Cd1 1_555 1_555
O6C Cd1 1_555 1_555
C3 N4 1_555 1_555
C4 N3 1_555 1_555
C13 N6 1_555 1_555
C14 N5 1_555 1_555
C16 N8 1_555 1_555
C17 N7 1_555 1_555
C39 N2 1_555 1_555
C40 N1 1_555 1_555
Cd1 O3 1_555 1_555
Cd1 O4 1_555 1_555
Cd2 O1 1_555 1_555
Cd2 O2 1_555 1_555
Cd2 O7 1_555 1_555
Cd2 O8 1_555 1_555
O6 Cd1C 1_555 1_555

#END
