
#######################################################################
#
#                 Cambridge Crystallographic Data Centre
#                                CCDC 
#
#######################################################################
#
# If this CIF has been generated from an entry in the Cambridge 
# Structural Database, then it will include bibliographic, chemical, 
# crystal, experimental, refinement or atomic coordinate data resulting 
# from the CCDC's data processing and validation procedures.
#
#######################################################################

data_LIXVAP
_symmetry_cell_setting           monoclinic
_symmetry_space_group_name_H-M   'P 21'
_symmetry_Int_Tables_number      4
_space_group_name_Hall           'P 2yb'
loop_
_symmetry_equiv_pos_site_id
_symmetry_equiv_pos_as_xyz
1 x,y,z
2 -x,1/2+y,-z
_cell_length_a                   12.412(3)
_cell_length_b                   11.816(2)
_cell_length_c                   19.057(4)
_cell_angle_alpha                90
_cell_angle_beta                 105.28(3)
_cell_angle_gamma                90
_cell_volume                     2696.1
loop_
_atom_site_label
_atom_site_type_symbol
_atom_site_fract_x
_atom_site_fract_y
_atom_site_fract_z
Cu1 Cu -0.45635(7) 0.48905(6) -0.59941(4)
O1 O -0.3656(4) 0.5412(4) -0.5039(2)
N1 N -0.5087(5) 0.6422(5) -0.6258(3)
C1 C -0.2291(7) 0.5658(7) -0.3718(4)
H1 H -0.1843(7) 0.5914(7) -0.3255(4)
H2 H -0.2816(7) 0.5103(7) -0.3645(4)
H3 H -0.1818(7) 0.5327(7) -0.3988(4)
O2 O -0.2875(4) 0.6600(4) -0.4136(2)
C2 C -0.3546(6) 0.6397(6) -0.4789(3)
C3 C -0.4075(6) 0.7375(5) -0.5146(3)
N2 N -0.3789(5) 0.9295(6) -0.4525(3)
C4 C -0.4782(6) 0.7326(6) -0.5858(4)
C5 C -0.5254(6) 0.8395(6) -0.6256(4)
H4 H -0.4695(6) 0.8816(6) -0.6410(4)
H5 H -0.5569(6) 0.8867(6) -0.5951(4)
C6 C -0.6153(6) 0.7951(7) -0.6907(4)
H6 H -0.6188(6) 0.8394(7) -0.7335(4)
H7 H -0.6873(6) 0.7946(7) -0.6810(4)
C7 C -0.5745(6) 0.6738(5) -0.6988(4)
H8 H -0.6373(6) 0.6236(5) -0.7134(4)
C8 C -0.5084(7) 0.6703(6) -0.7541(4)
O3 O -0.5480(5) 0.6623(5) -0.8184(3)
O4 O -0.4009(4) 0.6771(5) -0.7232(3)
C9 C -0.3237(9) 0.6768(13) -0.7692(6)
H9 H -0.3533(9) 0.6317(13) -0.8118(6)
C10 C -0.2203(10) 0.6283(16) -0.7262(8)
H10 H -0.1652(10) 0.6249(16) -0.7533(8)
H11 H -0.1925(10) 0.6734(16) -0.6833(8)
H12 H -0.2358(10) 0.5532(16) -0.7123(8)
C11 C -0.3107(13) 0.7943(14) -0.7905(9)
H13 H -0.2604(13) 0.7983(14) -0.8211(9)
H14 H -0.3824(13) 0.8234(14) -0.8163(9)
H15 H -0.2815(13) 0.8385(14) -0.7474(9)
O5 O -0.5461(4) 0.4390(4) -0.6954(2)
N3 N -0.3876(4) 0.3395(5) -0.5798(3)
C12 C -0.6925(7) 0.4125(6) -0.8223(4)
H16 H -0.7419(7) 0.3857(6) -0.8668(4)
H17 H -0.7348(7) 0.4516(6) -0.7943(4)
H18 H -0.6387(7) 0.4632(6) -0.8333(4)
O6 O -0.6376(5) 0.3175(4) -0.7809(3)
C13 C -0.5636(6) 0.3394(7) -0.7170(4)
C14 C -0.5101(6) 0.2434(6) -0.6816(4)
C15 C -0.4218(6) 0.2491(6) -0.6168(3)
C16 C -0.3570(7) 0.1452(6) -0.5840(4)
H19 H -0.3117(7) 0.1183(6) -0.6143(4)
H20 H -0.4066(7) 0.0858(6) -0.5781(4)
C17 C -0.2853(7) 0.1853(6) -0.5126(4)
H21 H -0.2100(7) 0.1583(6) -0.5045(4)
H22 H -0.3151(7) 0.1600(6) -0.4737(4)
C18 C -0.2895(6) 0.3145(5) -0.5181(3)
H23 H -0.3019(6) 0.3464(5) -0.4745(3)
C19 C -0.1858(6) 0.3648(7) -0.5314(4)
O7 O -0.1764(5) 0.4021(7) -0.5867(3)
O8 O -0.1033(4) 0.3557(6) -0.4721(3)
C20 C 0.0083(9) 0.3923(13) -0.4746(5)
H24 H 0.0038(9) 0.4401(13) -0.5160(5)
C21 C 0.0707(10) 0.2919(16) -0.4815(8)
H25 H 0.0356(10) 0.2572(16) -0.5273(8)
H26 H 0.1476(10) 0.3072(16) -0.4789(8)
H27 H 0.0665(10) 0.2417(16) -0.4427(8)
C22 C 0.0612(10) 0.4556(15) -0.4067(8)
H28 H 0.0185(10) 0.5235(15) -0.4072(8)
H29 H 0.0567(10) 0.4095(15) -0.3662(8)
H30 H 0.1378(10) 0.4750(15) -0.4024(8)
N5 N -0.5552(9) 0.0506(6) -0.7443(4)
C27 C -0.5365(7) 0.1354(7) -0.7161(4)
C41 C -0.3892(6) 0.8428(7) -0.4790(4)
N2A N -0.6211(5) 0.4295(6) -0.5475(3)
Cu1A Cu -0.54365(7) 0.98905(6) -0.40059(4)
Cu2 Cu -1.05652(7) 0.44491(7) -0.88289(4)
O9 O -1.1061(4) 0.6041(4) -0.9007(2)
N4 N -0.9806(4) 0.4828(5) -0.7829(2)
C23 C -1.1659(8) 0.8029(8) -0.9619(5)
H31 H -1.1759(8) 0.8811(8) -0.9755(5)
H32 H -1.1410(8) 0.7620(8) -0.9982(5)
H33 H -1.2356(8) 0.7719(8) -0.9579(5)
O10 O -1.0853(5) 0.7927(5) -0.8930(3)
C24 C -1.0597(7) 0.6883(6) -0.8650(4)
C25 C -0.9822(6) 0.6859(6) -0.7970(4)
C26 C -0.9408(8) 0.7889(7) -0.7623(5)
N6 N -0.9061(7) 0.8696(7) -0.7347(4)
C28 C -0.9534(6) 0.5845(6) -0.7572(4)
C29 C -0.8855(7) 0.5837(7) -0.6796(4)
H34 H -0.9106(7) 0.6415(7) -0.6521(4)
H35 H -0.8076(7) 0.5950(7) -0.6760(4)
C30 C -0.9071(8) 0.4673(8) -0.6553(4)
H36 H -0.9672(8) 0.4682(8) -0.6323(4)
H37 H -0.8414(8) 0.4374(8) -0.6220(4)
C31 C -0.9404(6) 0.3971(6) -0.7256(3)
H38 H -0.8750(6) 0.3613(6) -0.7333(3)
C32 C -1.0216(7) 0.3101(7) -0.7197(4)
O11 O -0.9980(6) 0.2294(6) -0.6800(4)
O12 O -1.1237(5) 0.3285(5) -0.7599(3)
C33 C -1.2105(10) 0.2483(11) -0.7566(6)
H39 H -1.2011(10) 0.2242(11) -0.7073(6)
C34 C -1.2025(13) 0.1488(13) -0.8028(9)
H40 H -1.1316(13) 0.1130(13) -0.7827(9)
H41 H -1.2614(13) 0.0956(13) -0.8040(9)
H42 H -1.2067(13) 0.1742(13) -0.8513(9)
C35 C -1.3153(12) 0.3082(15) -0.7800(7)
H43 H -1.3165(12) 0.3701(15) -0.7477(7)
H44 H -1.3218(12) 0.3367(15) -0.8281(7)
H45 H -1.3766(12) 0.2581(15) -0.7809(7)
O13 O -0.9843(4) 0.2938(4) -0.8688(2)
N7 N -1.1534(5) 0.3974(5) -0.9758(3)
C36 C -0.8657(9) 0.1140(9) -0.8231(4)
H46 H -0.8277(9) 0.0424(9) -0.8161(4)
H47 H -0.8124(9) 0.1737(9) -0.8204(4)
H48 H -0.9040(9) 0.1246(9) -0.7859(4)
O14 O -0.9427(5) 0.1173(4) -0.8927(3)
C37 C -1.0021(6) 0.2119(6) -0.9109(4)
C38 C -1.0798(6) 0.2093(6) -0.9795(3)
C39 C -1.0897(6) 0.1075(7) -1.0219(4)
N8 N -1.0961(6) 0.0276(6) -1.0564(3)
C40 C -1.1492(6) 0.3021(6) -1.0088(3)
C42 C -1.2267(6) 0.2987(7) -1.0844(4)
H49 H -1.2720(6) 0.2317(7) -1.0907(4)
H50 H -1.1865(6) 0.3003(7) -1.1211(4)
C43 C -1.2969(7) 0.4027(7) -1.0876(4)
H51 H -1.3707(7) 0.3835(7) -1.0845(4)
H52 H -1.3025(7) 0.4430(7) -1.1321(4)
C44 C -1.2386(6) 0.4724(6) -1.0221(3)
H53 H -1.2027(6) 0.5365(6) -1.0372(3)
C45 C -1.3203(6) 0.5118(7) -0.9813(4)
O15 O -1.3282(5) 0.4778(7) -0.9243(3)
O16 O -1.3837(5) 0.5914(6) -1.0202(3)
C46 C -1.4778(12) 0.6290(15) -0.9963(8)
H54 H -1.4576(12) 0.6334(15) -0.9442(8)
C47 C -1.5072(15) 0.7369(14) -1.0279(11)
H55 H -1.5716(15) 0.7663(14) -1.0152(11)
H56 H -1.4442(15) 0.7850(14) -1.0081(11)
H57 H -1.5214(15) 0.7342(14) -1.0799(11)
C48 C -1.5755(14) 0.5550(17) -1.0212(11)
H58 H -1.5572(14) 0.4809(17) -1.0008(11)
H59 H -1.6368(14) 0.5852(17) -1.0052(11)
H60 H -1.5963(14) 0.5499(17) -1.0733(11)
N8A N -0.9039(6) 0.5276(6) -0.9436(3)
Cu2A Cu -0.94348(7) -0.05509(7) -1.11711(4)
loop_
_geom_bond_atom_site_label_1
_geom_bond_atom_site_label_2
_geom_bond_site_symmetry_1
_geom_bond_site_symmetry_2
Cu1 O1 1_555 1_555
O1 C2 1_555 1_555
N1 Cu1 1_555 1_555
C1 H1 1_555 1_555
H2 C1 1_555 1_555
H3 C1 1_555 1_555
O2 C1 1_555 1_555
C2 O2 1_555 1_555
C3 C2 1_555 1_555
N2 C41 1_555 1_555
C4 N1 1_555 1_555
C5 C4 1_555 1_555
H4 C5 1_555 1_555
H5 C5 1_555 1_555
C6 C5 1_555 1_555
H6 C6 1_555 1_555
H7 C6 1_555 1_555
C7 N1 1_555 1_555
H8 C7 1_555 1_555
C8 C7 1_555 1_555
O3 C8 1_555 1_555
O4 C8 1_555 1_555
C9 O4 1_555 1_555
H9 C9 1_555 1_555
C10 C9 1_555 1_555
H10 C10 1_555 1_555
H11 C10 1_555 1_555
H12 C10 1_555 1_555
C11 C9 1_555 1_555
H13 C11 1_555 1_555
H14 C11 1_555 1_555
H15 C11 1_555 1_555
O5 Cu1 1_555 1_555
N3 Cu1 1_555 1_555
C12 H16 1_555 1_555
H17 C12 1_555 1_555
H18 C12 1_555 1_555
O6 C12 1_555 1_555
C13 O5 1_555 1_555
C14 C13 1_555 1_555
C15 N3 1_555 1_555
C16 C15 1_555 1_555
H19 C16 1_555 1_555
H20 C16 1_555 1_555
C17 C16 1_555 1_555
H21 C17 1_555 1_555
H22 C17 1_555 1_555
C18 N3 1_555 1_555
H23 C18 1_555 1_555
C19 C18 1_555 1_555
O7 C19 1_555 1_555
O8 C19 1_555 1_555
C20 O8 1_555 1_555
H24 C20 1_555 1_555
C21 C20 1_555 1_555
H25 C21 1_555 1_555
H26 C21 1_555 1_555
H27 C21 1_555 1_555
C22 C20 1_555 1_555
H28 C22 1_555 1_555
H29 C22 1_555 1_555
H30 C22 1_555 1_555
Cu2 O9 1_555 1_555
O9 C24 1_555 1_555
N4 Cu2 1_555 1_555
C23 H31 1_555 1_555
H32 C23 1_555 1_555
H33 C23 1_555 1_555
O10 C23 1_555 1_555
C24 O10 1_555 1_555
C25 C24 1_555 1_555
C26 C25 1_555 1_555
N5 C27 1_555 1_555
C27 C14 1_555 1_555
N6 C26 1_555 1_555
C28 N4 1_555 1_555
C29 C28 1_555 1_555
H34 C29 1_555 1_555
H35 C29 1_555 1_555
C30 C29 1_555 1_555
H36 C30 1_555 1_555
H37 C30 1_555 1_555
C31 N4 1_555 1_555
H38 C31 1_555 1_555
C32 C31 1_555 1_555
O11 C32 1_555 1_555
O12 C32 1_555 1_555
C33 O12 1_555 1_555
H39 C33 1_555 1_555
C34 C33 1_555 1_555
H40 C34 1_555 1_555
H41 C34 1_555 1_555
H42 C34 1_555 1_555
C35 C33 1_555 1_555
H43 C35 1_555 1_555
H44 C35 1_555 1_555
H45 C35 1_555 1_555
O13 Cu2 1_555 1_555
N7 Cu2 1_555 1_555
C36 H46 1_555 1_555
H47 C36 1_555 1_555
H48 C36 1_555 1_555
O14 C36 1_555 1_555
C37 O13 1_555 1_555
C38 C37 1_555 1_555
C39 C38 1_555 1_555
N8 C39 1_555 1_555
C40 N7 1_555 1_555
C41 C3 1_555 1_555
C42 C40 1_555 1_555
H49 C42 1_555 1_555
H50 C42 1_555 1_555
C43 C42 1_555 1_555
H51 C43 1_555 1_555
H52 C43 1_555 1_555
C44 N7 1_555 1_555
H53 C44 1_555 1_555
C45 C44 1_555 1_555
O15 C45 1_555 1_555
O16 C45 1_555 1_555
C46 O16 1_555 1_555
H54 C46 1_555 1_555
C47 C46 1_555 1_555
H55 C47 1_555 1_555
H56 C47 1_555 1_555
H57 C47 1_555 1_555
C48 C46 1_555 1_555
H58 C48 1_555 1_555
H59 C48 1_555 1_555
H60 C48 1_555 1_555
N2A Cu1 1_555 1_555
Cu1A N2 1_555 1_555
N8A Cu2 1_555 1_555
Cu2A N8 1_555 1_555
C3 C4 1_555 1_555
C6 C7 1_555 1_555
O6 C13 1_555 1_555
C14 C15 1_555 1_555
C17 C18 1_555 1_555
C25 C28 1_555 1_555
C30 C31 1_555 1_555
O14 C37 1_555 1_555
C38 C40 1_555 1_555
C43 C44 1_555 1_555

#END
