
#######################################################################
#
#                 Cambridge Crystallographic Data Centre
#                                CCDC 
#
#######################################################################
#
# If this CIF has been generated from an entry in the Cambridge 
# Structural Database, then it will include bibliographic, chemical, 
# crystal, experimental, refinement or atomic coordinate data resulting 
# from the CCDC's data processing and validation procedures.
#
#######################################################################

data_LIXXAS
_symmetry_cell_setting           triclinic
_symmetry_space_group_name_H-M   'P -1'
_symmetry_Int_Tables_number      2
_space_group_name_Hall           '-P 1'
loop_
_symmetry_equiv_pos_site_id
_symmetry_equiv_pos_as_xyz
1 x,y,z
2 -x,-y,-z
_cell_length_a                   10.4883(11)
_cell_length_b                   11.2214(12)
_cell_length_c                   12.7410(13)
_cell_angle_alpha                100.986(2)
_cell_angle_beta                 110.352(2)
_cell_angle_gamma                99.772(2)
_cell_volume                     1334.01
loop_
_atom_site_label
_atom_site_type_symbol
_atom_site_fract_x
_atom_site_fract_y
_atom_site_fract_z
Gd1 Gd -0.606566(18) -0.548831(17) 0.324239(16)
O1 O -0.3796(4) -0.5634(4) 0.3251(3)
O2 O -0.5707(4) -0.7214(3) 0.4036(3)
O3 O -0.3466(4) -0.4974(3) 0.5083(3)
O4 O -0.4995(4) -0.6713(3) 0.5965(3)
O5 O -0.5818(5) -0.4714(4) 0.1639(3)
O6 O -0.6834(4) -0.7357(4) 0.1580(3)
O7 O -0.8351(4) -0.7060(4) 0.2348(4)
O8 O -0.7972(5) -0.4515(6) 0.2506(5)
C1 C -0.2998(5) -0.5264(5) 0.4310(4)
C2 C -0.9026(6) -0.8901(5) 0.0803(5)
C3 C -0.5300(6) -0.7464(5) 0.4994(5)
C4 C -0.5167(6) -0.8792(5) 0.4975(4)
C5 C -0.0551(6) -0.4563(6) 0.5790(5)
H1 H -0.0925 -0.4258 0.6338
C6 C -0.5140(7) -0.9601(5) 0.3996(5)
C7 C -0.1447(5) -0.5140(5) 0.4659(5)
C8 C -0.5015(8) -0.9209(5) 0.5962(5)
H2 H -0.5018 -0.8659 0.6628
C9 C -0.0913(6) -0.5590(6) 0.3841(5)
C10 C -0.4838(10) -0.3941(8) 0.1659(7)
H3 H -0.3978 -0.3767 0.2314
C11 C -0.8636(7) -0.9706(6) 0.0050(5)
N1 N -0.9143(11) -0.3207(12) 0.1750(12)
C12 C -0.8012(5) -0.7718(5) 0.1634(4)
C13 C -1.0420(7) -0.9202(7) 0.0727(6)
H4 H -1.0711 -0.8653 0.1211
N2 N -0.4824(11) -0.3329(9) 0.0901(7)
C14 C -0.607(2) -0.354(2) -0.0146(14)
H5 H -0.6399 -0.4438 -0.0553
H6 H -0.5834 -0.3066 -0.0654
H7 H -0.6805 -0.3263 0.0061
N3 N -0.5192(15) -0.9193(11) 0.2970(11)
H8 H -0.5125 -0.9702 0.2385
H9 H -0.5290 -0.8437 0.2933
C15 C -0.8085(11) -0.3567(11) 0.2420(12)
H10 H -0.7283 -0.2900 0.2913
N4 N -0.1694(12) -0.6176(16) 0.2746(9)
H11 H -0.2615 -0.6306 0.2486
H12 H -0.1297 -0.6438 0.2271
C16 C -0.3678(19) -0.2421(14) 0.0956(14)
H13 H -0.2861 -0.2317 0.1671
H14 H -0.3928 -0.1618 0.0954
H15 H -0.3449 -0.2696 0.0281
C17 C -0.8981(18) -0.1745(19) 0.208(3)
H16 H -0.7980 -0.1303 0.2473
H17 H -0.9456 -0.1540 0.2608
H18 H -0.9405 -0.1483 0.1377
N5 N -0.702(8) -0.981(5) 0.021(5)
H19 H -0.6888 -1.0486 -0.0169
H20 H -0.6286 -0.9183 0.0685
C18 C -1.063(2) -0.4025(19) 0.120(2)
H21 H -1.0615 -0.4911 0.1070
H22 H -1.1123 -0.3865 0.0448
H23 H -1.1123 -0.3830 0.1709
Gd1A Gd 0.606566(18) -0.451169(17) 0.675761(16)
Gd1A_2 Gd -0.393434(18) -0.451169(17) 0.675761(16)
Gd1_2 Gd 0.393434(18) -0.548831(17) 0.324239(16)
Gd1A_3 Gd -0.393434(18) -1.451169(17) 0.675761(16)
Gd1_3 Gd -0.606566(18) -1.548831(17) 0.324239(16)
Gd1A_4 Gd -1.393434(18) -1.451169(17) -0.324239(16)
O1A O 0.3796(4) -0.4366(4) 0.6749(3)
O2A O -0.4293(4) -1.2786(3) 0.5964(3)
O2A_2 O 0.5707(4) -0.2786(3) 0.5964(3)
O3A O 0.3466(4) -0.5026(3) 0.4917(3)
O3A_2 O -0.6534(4) -0.5026(3) 0.4917(3)
O3_2 O 0.6534(4) -0.4974(3) 0.5083(3)
O4A O -0.5005(4) -1.3287(3) 0.4035(3)
O4A_2 O -0.5005(4) -0.3287(3) 0.4035(3)
O4_2 O 0.5005(4) -0.6713(3) 0.5965(3)
O5A O 0.5818(5) -0.5286(4) 0.8361(3)
O6A O -1.3166(4) -1.2643(4) -0.1580(3)
O6A_2 O 0.6834(4) -0.2643(4) 0.8420(3)
O7A O -1.1649(4) -1.2940(4) -0.2348(4)
O7A_2 O 0.8351(4) -0.2940(4) 0.7652(4)
O8A O 0.7972(5) -0.5485(6) 0.7494(5)
C1A C 0.2998(5) -0.4736(5) 0.5690(4)
C2A C -1.0974(6) -1.1099(5) -0.0803(5)
C3A C -0.4700(6) -1.2536(5) 0.5006(5)
C4A C -0.4833(6) -1.1208(5) 0.5025(4)
C5A C 0.0551(6) -0.5437(6) 0.4210(5)
H1A H 0.0925 -0.5742 0.3662
C6A C -0.4860(7) -1.0399(5) 0.6004(5)
C7A C 0.1447(5) -0.4860(5) 0.5341(5)
C8A C -0.4985(8) -1.0791(5) 0.4038(5)
H2A H -0.4982 -1.1341 0.3372
C9A C 0.0913(6) -0.4410(6) 0.6159(5)
C10A C 0.4838(10) -0.6059(8) 0.8341(7)
H3A H 0.3978 -0.6233 0.7686
C11A C -1.1364(7) -1.0294(6) -0.0050(5)
N1A N 0.9143(11) -0.6793(12) 0.8250(12)
C12A C -1.1988(5) -1.2282(5) -0.1634(4)
C13A C -0.9580(7) -1.0798(7) -0.0727(6)
H4A H -0.9289 -1.1347 -0.1211
N2A N 0.4824(11) -0.6671(9) 0.9099(7)
C14A C 0.607(2) -0.646(2) 1.0146(14)
H5A H 0.6399 -0.5562 1.0553
H6A H 0.5834 -0.6934 1.0654
H7A H 0.6805 -0.6737 0.9939
N3A N -0.4808(15) -1.0807(11) 0.7030(11)
H8A H -0.4875 -1.0298 0.7615
H9A H -0.4710 -1.1563 0.7067
C15A C 0.8085(11) -0.6433(11) 0.7580(12)
H10A H 0.7283 -0.7100 0.7087
N4A N 0.1694(12) -0.3824(16) 0.7254(9)
H11A H 0.2615 -0.3694 0.7514
H12A H 0.1297 -0.3562 0.7729
C16A C 0.3678(19) -0.7579(14) 0.9044(14)
H13A H 0.2861 -0.7683 0.8329
H14A H 0.3928 -0.8382 0.9046
H15A H 0.3449 -0.7304 0.9719
C17A C 0.8981(18) -0.8255(19) 0.792(3)
H16A H 0.7980 -0.8697 0.7527
H17A H 0.9456 -0.8460 0.7392
H18A H 0.9405 -0.8517 0.8623
N5A N -1.298(8) -1.019(5) -0.021(5)
H19A H -1.3112 -0.9514 0.0169
H20A H -1.3714 -1.0817 -0.0685
C18A C 1.063(2) -0.5975(19) 0.880(2)
H21A H 1.0615 -0.5089 0.8930
H22A H 1.1123 -0.6135 0.9552
H23A H 1.1123 -0.6170 0.8291
loop_
_geom_bond_atom_site_label_1
_geom_bond_atom_site_label_2
_geom_bond_site_symmetry_1
_geom_bond_site_symmetry_2
Gd1 O1 1_555 1_555
O1 C1 1_555 1_555
O2 Gd1 1_555 1_555
O3 Gd1 1_555 1_555
O4 C3 1_555 1_555
O5 Gd1 1_555 1_555
O6 Gd1 1_555 1_555
O7 Gd1 1_555 1_555
O8 Gd1 1_555 1_555
C1 O3 1_555 1_555
C2 C11 1_555 1_555
C3 O2 1_555 1_555
C4 C3 1_555 1_555
C5 H1 1_555 1_555
C6 C4 1_555 1_555
C7 C1 1_555 1_555
C8 C4 1_555 1_555
H2 C8 1_555 1_555
C9 C7 1_555 1_555
C10 O5 1_555 1_555
H3 C10 1_555 1_555
C11 N5 1_555 1_555
N1 C15 1_555 1_555
C12 O6 1_555 1_555
C13 C2 1_555 1_555
H4 C13 1_555 1_555
N2 C10 1_555 1_555
C14 N2 1_555 1_555
H5 C14 1_555 1_555
H6 C14 1_555 1_555
H7 C14 1_555 1_555
N3 C6 1_555 1_555
H8 N3 1_555 1_555
H9 N3 1_555 1_555
C15 O8 1_555 1_555
H10 C15 1_555 1_555
N4 C9 1_555 1_555
H11 N4 1_555 1_555
H12 N4 1_555 1_555
C16 N2 1_555 1_555
H13 C16 1_555 1_555
H14 C16 1_555 1_555
H15 C16 1_555 1_555
C17 N1 1_555 1_555
H16 C17 1_555 1_555
H17 C17 1_555 1_555
H18 C17 1_555 1_555
N5 H19 1_555 1_555
H20 N5 1_555 1_555
C18 N1 1_555 1_555
H21 C18 1_555 1_555
H22 C18 1_555 1_555
H23 C18 1_555 1_555
Gd1A O1A 1_555 1_555
Gd1A_2 O3 1_555 1_555
Gd1_2 O3A 1_555 1_555
Gd1A_3 O2A 1_555 1_555
Gd1_3 O4A 1_555 1_555
Gd1A_4 O6A 1_555 1_555
O1A C1A 1_555 1_555
O2A C3A 1_555 1_555
O2A_2 Gd1A 1_555 1_555
O3A Gd1A 1_555 1_555
O3A_2 Gd1 1_555 1_555
O3_2 Gd1A 1_555 1_555
O4A C3A 1_555 1_555
O4A_2 Gd1 1_555 1_555
O4_2 Gd1A 1_555 1_555
O5A Gd1A 1_555 1_555
O6A C12A 1_555 1_555
O6A_2 Gd1A 1_555 1_555
O7A Gd1A_4 1_555 1_555
O7A_2 Gd1A 1_555 1_555
O8A Gd1A 1_555 1_555
C1A O3A 1_555 1_555
C2A C11A 1_555 1_555
C3A C4A 1_555 1_555
C4A C6A 1_555 1_555
C5A C9 1_555 1_555
H1A C5A 1_555 1_555
C6A C8 1_555 1_555
C7A C1A 1_555 1_555
C8A C6 1_555 1_555
H2A C8A 1_555 1_555
C9A C5 1_555 1_555
C10A O5A 1_555 1_555
H3A C10A 1_555 1_555
C11A C13 1_555 1_555
N1A C15A 1_555 1_555
C12A O7A 1_555 1_555
C13A C11 1_555 1_555
H4A C13A 1_555 1_555
N2A C10A 1_555 1_555
C14A N2A 1_555 1_555
H5A C14A 1_555 1_555
H6A C14A 1_555 1_555
H7A C14A 1_555 1_555
N3A C6A 1_555 1_555
H8A N3A 1_555 1_555
H9A N3A 1_555 1_555
C15A O8A 1_555 1_555
H10A C15A 1_555 1_555
N4A C9A 1_555 1_555
H11A N4A 1_555 1_555
H12A N4A 1_555 1_555
C16A N2A 1_555 1_555
H13A C16A 1_555 1_555
H14A C16A 1_555 1_555
H15A C16A 1_555 1_555
C17A N1A 1_555 1_555
H16A C17A 1_555 1_555
H17A C17A 1_555 1_555
H18A C17A 1_555 1_555
N5A C11A 1_555 1_555
H19A N5A 1_555 1_555
H20A N5A 1_555 1_555
C18A N1A 1_555 1_555
H21A C18A 1_555 1_555
H22A C18A 1_555 1_555
H23A C18A 1_555 1_555
O4 Gd1A_2 1_555 1_555
O7 C12 1_555 1_555
C2 C12 1_555 1_555
C5 C7 1_555 1_555
Gd1A_2 O3A_2 1_555 1_555
Gd1_2 O3_2 1_555 1_555
C2A C12A 1_555 1_555
C2A C13A 1_555 1_555
C4A C8A 1_555 1_555
C5A C7A 1_555 1_555
C7A C9A 1_555 1_555

#END
