
#######################################################################
#
#                 Cambridge Crystallographic Data Centre
#                                CCDC 
#
#######################################################################
#
# If this CIF has been generated from an entry in the Cambridge 
# Structural Database, then it will include bibliographic, chemical, 
# crystal, experimental, refinement or atomic coordinate data resulting 
# from the CCDC's data processing and validation procedures.
#
#######################################################################

data_LIXYOG
_symmetry_cell_setting           monoclinic
_symmetry_space_group_name_H-M   'P 21/c'
_symmetry_Int_Tables_number      14
_space_group_name_Hall           '-P 2ybc'
loop_
_symmetry_equiv_pos_site_id
_symmetry_equiv_pos_as_xyz
1 x,y,z
2 x,1/2-y,1/2+z
3 -x,-y,-z
4 -x,1/2+y,1/2-z
_cell_length_a                   9.3446(13)
_cell_length_b                   22.190(6)
_cell_length_c                   14.243(3)
_cell_angle_alpha                90.00(2)
_cell_angle_beta                 107.394(14)
_cell_angle_gamma                90.000(17)
_cell_volume                     2818.33
loop_
_atom_site_label
_atom_site_type_symbol
_atom_site_fract_x
_atom_site_fract_y
_atom_site_fract_z
Ag1 Ag 0.31177(11) -0.40511(4) 0.08211(7)
Ag2 Ag 0.50045(13) -0.39146(4) 0.32838(8)
Ag3 Ag -0.11733(13) -0.68493(4) 0.24635(8)
S1 S -0.0137(3) -0.67287(10) 0.0998(2)
S2 S 0.7516(3) -0.16459(12) 0.0987(2)
N1 N 0.4425(11) -0.3240(4) 0.0814(7)
N2 N 0.1958(9) -0.4899(3) 0.0849(6)
N3 N 0.3471(11) -0.8163(3) 0.1573(7)
N4 N 0.5674(10) 0.0190(4) 0.1443(7)
N5 N -0.1175(13) -0.6209(6) 0.4283(11)
N6 N -0.3854(11) -0.6046(4) 0.1344(8)
N7 N -0.1721(13) -0.8184(4) 0.2570(9)
O1 O -0.1334(18) -0.6000(7) 0.5003(10)
O2 O -0.1468(15) -0.6745(6) 0.4101(9)
O3 O -0.0754(13) -0.5933(4) 0.3675(9)
O4 O -0.2692(10) -0.5829(4) 0.1208(7)
O5 O -0.5029(12) -0.5783(5) 0.1013(9)
O6 O -0.3789(11) -0.6512(4) 0.1818(9)
O7 O -0.0607(13) -0.7953(6) 0.3140(9)
O8 O -0.2562(12) -0.7880(5) 0.1939(8)
O9 O -0.2066(15) -0.8718(4) 0.2654(10)
O11 O 0.670(3) -0.4591(6) 0.1929(13)
C1 C 0.5914(13) -0.3279(5) 0.1054(8)
H1 H 0.6350 -0.3659 0.1185
C2 C 0.6823(13) -0.2801(4) 0.1119(8)
H2 H 0.7857 -0.2855 0.1291
C3 C 0.6214(11) -0.2230(4) 0.0928(7)
C4 C 0.4661(13) -0.2178(4) 0.0657(8)
H3 H 0.4196 -0.1805 0.0505
C5 C 0.3836(12) -0.2691(5) 0.0622(9)
H4 H 0.2798 -0.2654 0.0453
C6 C 0.1918(12) -0.5317(4) 0.0185(9)
H5 H 0.2335 -0.5228 -0.0315
C7 C 0.1282(12) -0.5887(4) 0.0191(8)
H6 H 0.1241 -0.6166 -0.0304
C8 C 0.0723(10) -0.6018(4) 0.0954(7)
C9 C 0.0723(11) -0.5584(4) 0.1644(7)
H7 H 0.0306 -0.5661 0.2149
C10 C 0.1369(11) -0.5025(4) 0.1565(8)
H8 H 0.1385 -0.4731 0.2032
C11 C 0.2011(14) -0.8286(4) 0.1406(9)
H9 H 0.1725 -0.8687 0.1416
C12 C 0.0926(12) -0.7856(4) 0.1222(8)
H10 H -0.0076 -0.7960 0.1109
C13 C 0.1351(10) -0.7255(4) 0.1207(6)
C14 C 0.2847(12) -0.7116(4) 0.1383(7)
H11 H 0.3163 -0.6719 0.1387
C15 C 0.3871(12) -0.7589(4) 0.1556(8)
H12 H 0.4879 -0.7499 0.1665
C16 C 0.5137(12) -0.0305(5) 0.1741(9)
H13 H 0.4407 -0.0258 0.2058
C17 C 0.5584(12) -0.0880(5) 0.1613(8)
H14 H 0.5199 -0.1209 0.1863
C18 C 0.6630(11) -0.0959(4) 0.1100(7)
C19 C 0.7168(12) -0.0446(4) 0.0759(7)
H15 H 0.7868 -0.0479 0.0416
C20 C 0.6665(13) 0.0100(5) 0.0931(8)
H16 H 0.7021 0.0436 0.0681
N3C N 0.6529(11) -0.3163(3) 0.3427(7)
N4C N 0.4326(10) -0.4810(4) 0.3557(7)
Ag2C Ag 0.49955(13) -0.89146(4) 0.17162(8)
Ag2C_2 Ag 0.49955(13) 0.10854(4) 0.17162(8)
O10 O 0.912(2) -0.4709(7) 0.362(2)
loop_
_geom_bond_atom_site_label_1
_geom_bond_atom_site_label_2
_geom_bond_site_symmetry_1
_geom_bond_site_symmetry_2
Ag1 Ag2 1_555 1_555
Ag2 O11 1_555 1_555
Ag3 S1 1_555 1_555
S1 C8 1_555 1_555
S2 C3 1_555 1_555
N1 Ag1 1_555 1_555
N2 Ag1 1_555 1_555
N3 C11 1_555 1_555
N4 C16 1_555 1_555
N5 O1 1_555 1_555
N6 O4 1_555 1_555
N7 O7 1_555 1_555
O2 Ag3 1_555 1_555
O3 Ag3 1_555 1_555
O5 N6 1_555 1_555
O6 Ag3 1_555 1_555
O7 Ag3 1_555 1_555
O8 Ag3 1_555 1_555
O9 N7 1_555 1_555
C1 N1 1_555 1_555
H1 C1 1_555 1_555
C2 C1 1_555 1_555
H2 C2 1_555 1_555
C3 C2 1_555 1_555
C4 C3 1_555 1_555
H3 C4 1_555 1_555
C5 N1 1_555 1_555
H4 C5 1_555 1_555
C6 N2 1_555 1_555
H5 C6 1_555 1_555
C7 C6 1_555 1_555
H6 C7 1_555 1_555
C8 C7 1_555 1_555
C9 C8 1_555 1_555
H7 C9 1_555 1_555
C10 N2 1_555 1_555
H8 C10 1_555 1_555
C11 H9 1_555 1_555
C12 C11 1_555 1_555
H10 C12 1_555 1_555
C13 S1 1_555 1_555
C14 C13 1_555 1_555
H11 C14 1_555 1_555
C15 N3 1_555 1_555
H12 C15 1_555 1_555
C16 H13 1_555 1_555
C17 C16 1_555 1_555
H14 C17 1_555 1_555
C18 S2 1_555 1_555
C19 C18 1_555 1_555
H15 C19 1_555 1_555
C20 N4 1_555 1_555
H16 C20 1_555 1_555
N3C Ag2 1_555 1_555
N4C Ag2 1_555 1_555
Ag2C N3 1_555 1_555
Ag2C_2 N4 1_555 1_555
N5 O2 1_555 1_555
N5 O3 1_555 1_555
N6 O6 1_555 1_555
N7 O8 1_555 1_555
C4 C5 1_555 1_555
C9 C10 1_555 1_555
C12 C13 1_555 1_555
C14 C15 1_555 1_555
C17 C18 1_555 1_555
C19 C20 1_555 1_555

#END
