
#######################################################################
#
#                 Cambridge Crystallographic Data Centre
#                                CCDC 
#
#######################################################################
#
# If this CIF has been generated from an entry in the Cambridge 
# Structural Database, then it will include bibliographic, chemical, 
# crystal, experimental, refinement or atomic coordinate data resulting 
# from the CCDC's data processing and validation procedures.
#
#######################################################################

data_LIXYOI
_symmetry_cell_setting           tetragonal
_symmetry_space_group_name_H-M   'I 41/a'
_symmetry_Int_Tables_number      88
_space_group_name_Hall           '-I 4ad'
loop_
_symmetry_equiv_pos_site_id
_symmetry_equiv_pos_as_xyz
1 x,y,z
2 1/2-x,-y,1/2+z
3 3/4-y,1/4+x,1/4+z
4 3/4+y,3/4-x,3/4+z
5 1/2+x,1/2+y,1/2+z
6 -x,1/2-y,z
7 1/4-y,3/4+x,3/4+z
8 1/4+y,1/4-x,1/4+z
9 -x,-y,-z
10 1/2+x,y,1/2-z
11 1/4+y,3/4-x,3/4-z
12 1/4-y,1/4+x,1/4-z
13 1/2-x,1/2-y,1/2-z
14 x,1/2+y,-z
15 3/4+y,1/4-x,1/4-z
16 3/4-y,3/4+x,3/4-z
_cell_length_a                   18.3203(2)
_cell_length_b                   18.3203(2)
_cell_length_c                   45.4431(11)
_cell_angle_alpha                90
_cell_angle_beta                 90
_cell_angle_gamma                90
_cell_volume                     15252.2
loop_
_atom_site_label
_atom_site_type_symbol
_atom_site_fract_x
_atom_site_fract_y
_atom_site_fract_z
Cd1 Cd 0.32475(4) 0.63473(4) 0.061814(13)
Cd2 Cd 0.5000 0.7500 0.05230(2)
Ag1 Ag 0.65568(4) 0.71946(4) 0.126050(13)
S1 S 0.41022(13) 0.67301(14) 0.02229(5)
S2 S 0.55976(11) 0.66142(11) 0.09115(4)
S3 S 0.74775(14) 0.76741(13) 0.08776(5)
S4 S 0.71316(13) 0.60841(13) 0.15254(5)
N1 N 0.2234(3) 0.5823(4) 0.03782(13)
C1 C 0.1868(4) 0.6140(3) 0.01426(13)
H1 H 0.2064 0.6547 0.0049
C2 C 0.1210(4) 0.5847(4) 0.00465(14)
H2 H 0.0965 0.6058 -0.0111
C3 C 0.0918(3) 0.5238(5) 0.01860(18)
C4 C 0.1284(4) 0.4922(4) 0.04216(18)
H3 H 0.1089 0.4515 0.0515
C5 C 0.1942(4) 0.5215(4) 0.05178(14)
H4 H 0.2187 0.5003 0.0675
C6 C 0.0257(5) 0.4963(7) 0.0108(2)
H5 H 0.0107 0.4614 0.0244
C7 C 0.3497(5) 0.7270(5) 0.00073(17)
C8 C 0.3122(6) 0.7860(5) 0.01192(18)
H6 H 0.3205 0.7995 0.0314
C9 C 0.2638(7) 0.8252(6) -0.0041(2)
H7 H 0.2410 0.8661 0.0038
C10 C 0.2494(8) 0.8031(8) -0.0322(3)
H8 H 0.2128 0.8264 -0.0428
C11 C 0.2871(8) 0.7483(8) -0.0449(2)
H9 H 0.2803 0.7372 -0.0647
C12 C 0.3363(6) 0.7085(6) -0.02797(19)
H10 H 0.3605 0.6689 -0.0363
C13 C 0.6032(5) 0.5910(4) 0.06919(16)
C14 C 0.6787(5) 0.5824(5) 0.07095(19)
H11 H 0.7059 0.6099 0.0842
C15 C 0.7130(6) 0.5316(5) 0.0525(2)
H12 H 0.7635 0.5265 0.0522
C16 C 0.6686(7) 0.4897(6) 0.0347(2)
H13 H 0.6904 0.4545 0.0229
C17 C 0.5945(7) 0.4970(6) 0.0336(2)
H14 H 0.5669 0.4677 0.0211
C18 C 0.5609(6) 0.5487(5) 0.05129(19)
H15 H 0.5105 0.5545 0.0510
C19 C 0.8204(5) 0.8203(6) 0.10354(18)
C20 C 0.8891(6) 0.8127(7) 0.0906(2)
H16 H 0.8966 0.7814 0.0747
C21 C 0.9459(7) 0.8537(10) 0.1024(4)
H17 H 0.9918 0.8498 0.0938
C22 C 0.9375(8) 0.8997(10) 0.1260(3)
H18 H 0.9761 0.9272 0.1334
C23 C 0.8680(7) 0.9028(8) 0.1382(2)
H19 H 0.8597 0.9338 0.1540
C24 C 0.8127(6) 0.8626(6) 0.12782(18)
H20 H 0.7679 0.8636 0.1375
C25 C 0.7864(5) 0.6465(5) 0.1730(2)
C26 C 0.8418(6) 0.6826(6) 0.1565(2)
H21 H 0.8400 0.6851 0.1361
C27 C 0.9004(6) 0.7145(7) 0.1727(3)
H22 H 0.9367 0.7400 0.1628
C28 C 0.9039(7) 0.7081(7) 0.2036(3)
H23 H 0.9431 0.7280 0.2139
C29 C 0.8520(6) 0.6741(6) 0.2179(2)
H24 H 0.8544 0.6725 0.2383
C30 C 0.7928(6) 0.6400(5) 0.2038(2)
H25 H 0.7586 0.6137 0.2146
N1H N -0.2234(3) 0.4177(4) -0.03782(13)
C1H C -0.1868(4) 0.3860(3) -0.01426(13)
H1H H -0.2064 0.3453 -0.0049
C2H C -0.1210(4) 0.4153(4) -0.00465(14)
H2H H -0.0965 0.3942 0.0111
C3H C -0.0918(3) 0.4762(5) -0.01860(18)
C4H C -0.1284(4) 0.5078(4) -0.04216(18)
H3H H -0.1089 0.5485 -0.0515
C5H C -0.1942(4) 0.4785(4) -0.05178(14)
H4H H -0.2187 0.4997 -0.0675
C6H C -0.0257(5) 0.5037(7) -0.0108(2)
H5H H -0.0107 0.5386 -0.0244
Cd1E Cd 0.67525(4) 0.86527(4) 0.061814(13)
Ag1E Ag 0.34432(4) 0.78054(4) 0.126050(13)
S1E S 0.58978(13) 0.82699(14) 0.02229(5)
S2E S 0.44024(11) 0.83858(11) 0.09115(4)
S3E S 0.25225(14) 0.73259(13) 0.08776(5)
S4E S 0.28684(13) 0.89159(13) 0.15254(5)
C7E C 0.6503(5) 0.7730(5) 0.00073(17)
C8E C 0.6878(6) 0.7140(5) 0.01192(18)
H6E H 0.6795 0.7005 0.0314
C9E C 0.7362(7) 0.6748(6) -0.0041(2)
H7E H 0.7590 0.6339 0.0038
C10E C 0.7506(8) 0.6969(8) -0.0322(3)
H8E H 0.7872 0.6736 -0.0428
C11E C 0.7129(8) 0.7517(8) -0.0449(2)
H9E H 0.7197 0.7628 -0.0647
C12E C 0.6637(6) 0.7915(6) -0.02797(19)
H10E H 0.6395 0.8311 -0.0363
C13E C 0.3968(5) 0.9090(4) 0.06919(16)
C14E C 0.3213(5) 0.9176(5) 0.07095(19)
H11E H 0.2941 0.8901 0.0842
C15E C 0.2870(6) 0.9684(5) 0.0525(2)
H12E H 0.2365 0.9735 0.0522
C16E C 0.3314(7) 1.0103(6) 0.0347(2)
H13E H 0.3096 1.0455 0.0229
C17E C 0.4055(7) 1.0030(6) 0.0336(2)
H14E H 0.4331 1.0323 0.0211
C18E C 0.4391(6) 0.9513(5) 0.05129(19)
H15E H 0.4895 0.9455 0.0510
C19E C 0.1796(5) 0.6797(6) 0.10354(18)
C20E C 0.1109(6) 0.6873(7) 0.0906(2)
H16E H 0.1034 0.7186 0.0747
C21E C 0.0541(7) 0.6463(10) 0.1024(4)
H17E H 0.0082 0.6502 0.0938
C22E C 0.0625(8) 0.6003(10) 0.1260(3)
H18E H 0.0239 0.5728 0.1334
C23E C 0.1320(7) 0.5972(8) 0.1382(2)
H19E H 0.1403 0.5662 0.1540
C24E C 0.1873(6) 0.6374(6) 0.12782(18)
H20E H 0.2321 0.6364 0.1375
C25E C 0.2136(5) 0.8535(5) 0.1730(2)
C26E C 0.1582(6) 0.8174(6) 0.1565(2)
H21E H 0.1600 0.8149 0.1361
C27E C 0.0996(6) 0.7855(7) 0.1727(3)
H22E H 0.0633 0.7600 0.1628
C28E C 0.0961(7) 0.7919(7) 0.2036(3)
H23E H 0.0569 0.7720 0.2139
C29E C 0.1480(6) 0.8259(6) 0.2179(2)
H24E H 0.1456 0.8275 0.2383
C30E C 0.2072(6) 0.8600(5) 0.2038(2)
H25E H 0.2414 0.8863 0.2146
Cd1H Cd -0.32475(4) 0.36527(4) -0.061814(13)
Cd1K Cd 0.61527(4) 0.57475(4) 0.188186(13)
Cd1N Cd 0.38473(4) 0.92525(4) 0.188186(13)
Ag1K Ag 0.53054(4) 0.90568(4) 0.123950(13)
Ag1N Ag 0.46946(4) 0.59432(4) 0.123950(13)
S2K S 0.58858(11) 0.80976(11) 0.15885(4)
S2N S 0.41142(11) 0.69024(11) 0.15885(4)
S4K S 0.64159(13) 0.96316(13) 0.09746(5)
S4N S 0.35841(13) 0.53684(13) 0.09746(5)
N1E N 0.7766(3) 0.9177(4) 0.03782(13)
loop_
_geom_bond_atom_site_label_1
_geom_bond_atom_site_label_2
_geom_bond_site_symmetry_1
_geom_bond_site_symmetry_2
Cd1 S1 1_555 1_555
Cd2 S1 1_555 1_555
Ag1 S2 1_555 1_555
S1 C7 1_555 1_555
S2 Cd2 1_555 1_555
S3 Ag1 1_555 1_555
S4 Ag1 1_555 1_555
N1 Cd1 1_555 1_555
C1 N1 1_555 1_555
H1 C1 1_555 1_555
C2 C1 1_555 1_555
H2 C2 1_555 1_555
C3 C2 1_555 1_555
C4 C3 1_555 1_555
H3 C4 1_555 1_555
C5 N1 1_555 1_555
H4 C5 1_555 1_555
C6 C3 1_555 1_555
H5 C6 1_555 1_555
C7 C8 1_555 1_555
C8 H6 1_555 1_555
C9 C8 1_555 1_555
H7 C9 1_555 1_555
C10 C9 1_555 1_555
H8 C10 1_555 1_555
C11 C10 1_555 1_555
H9 C11 1_555 1_555
C12 C7 1_555 1_555
H10 C12 1_555 1_555
C13 S2 1_555 1_555
C14 C13 1_555 1_555
H11 C14 1_555 1_555
C15 C14 1_555 1_555
H12 C15 1_555 1_555
C16 C15 1_555 1_555
H13 C16 1_555 1_555
C17 C16 1_555 1_555
H14 C17 1_555 1_555
C18 C13 1_555 1_555
H15 C18 1_555 1_555
C19 S3 1_555 1_555
C20 C19 1_555 1_555
H16 C20 1_555 1_555
C21 C20 1_555 1_555
H17 C21 1_555 1_555
C22 C21 1_555 1_555
H18 C22 1_555 1_555
C23 C22 1_555 1_555
H19 C23 1_555 1_555
C24 C19 1_555 1_555
H20 C24 1_555 1_555
C25 S4 1_555 1_555
C26 C25 1_555 1_555
H21 C26 1_555 1_555
C27 C26 1_555 1_555
H22 C27 1_555 1_555
C28 C27 1_555 1_555
H23 C28 1_555 1_555
C29 C28 1_555 1_555
H24 C29 1_555 1_555
C30 C25 1_555 1_555
H25 C30 1_555 1_555
N1H C1H 1_555 1_555
C1H H1H 1_555 1_555
C2H C1H 1_555 1_555
H2H C2H 1_555 1_555
C3H C2H 1_555 1_555
C4H C3H 1_555 1_555
H3H C4H 1_555 1_555
C5H N1H 1_555 1_555
H4H C5H 1_555 1_555
C6H C6 1_555 1_555
H5H C6H 1_555 1_555
Cd1E S3 1_555 1_555
Ag1E S2E 1_555 1_555
S1E Cd2 1_555 1_555
S2E Cd2 1_555 1_555
S3E Cd1 1_555 1_555
S4E Ag1E 1_555 1_555
C7E S1E 1_555 1_555
C8E C7E 1_555 1_555
H6E C8E 1_555 1_555
C9E C8E 1_555 1_555
H7E C9E 1_555 1_555
C10E C9E 1_555 1_555
H8E C10E 1_555 1_555
C11E C10E 1_555 1_555
H9E C11E 1_555 1_555
C12E C7E 1_555 1_555
H10E C12E 1_555 1_555
C13E S2E 1_555 1_555
C14E C13E 1_555 1_555
H11E C14E 1_555 1_555
C15E C14E 1_555 1_555
H12E C15E 1_555 1_555
C16E C15E 1_555 1_555
H13E C16E 1_555 1_555
C17E C16E 1_555 1_555
H14E C17E 1_555 1_555
C18E C13E 1_555 1_555
H15E C18E 1_555 1_555
C19E S3E 1_555 1_555
C20E C19E 1_555 1_555
H16E C20E 1_555 1_555
C21E C20E 1_555 1_555
H17E C21E 1_555 1_555
C22E C21E 1_555 1_555
H18E C22E 1_555 1_555
C23E C22E 1_555 1_555
H19E C23E 1_555 1_555
C24E C19E 1_555 1_555
H20E C24E 1_555 1_555
C25E S4E 1_555 1_555
C26E C25E 1_555 1_555
H21E C26E 1_555 1_555
C27E C26E 1_555 1_555
H22E C27E 1_555 1_555
C28E C27E 1_555 1_555
H23E C28E 1_555 1_555
C29E C28E 1_555 1_555
H24E C29E 1_555 1_555
C30E C25E 1_555 1_555
H25E C30E 1_555 1_555
Cd1H N1H 1_555 1_555
Cd1K S4 1_555 1_555
Cd1N S4E 1_555 1_555
Ag1K S2E 1_555 1_555
Ag1N S2 1_555 1_555
S2K Ag1 1_555 1_555
S2N Ag1E 1_555 1_555
S4K Cd1E 1_555 1_555
S4N Cd1 1_555 1_555
N1E Cd1E 1_555 1_555
C4 C5 1_555 1_555
C11 C12 1_555 1_555
C17 C18 1_555 1_555
C23 C24 1_555 1_555
C29 C30 1_555 1_555
C3H C6H 1_555 1_555
C4H C5H 1_555 1_555
Cd1E S1E 1_555 1_555
Ag1E S3E 1_555 1_555
C11E C12E 1_555 1_555
C17E C18E 1_555 1_555
C23E C24E 1_555 1_555
C29E C30E 1_555 1_555
Ag1K S2K 1_555 1_555
Ag1K S4K 1_555 1_555
Ag1N S2N 1_555 1_555
Ag1N S4N 1_555 1_555

#END
