
#######################################################################
#
#                 Cambridge Crystallographic Data Centre
#                                CCDC 
#
#######################################################################
#
# If this CIF has been generated from an entry in the Cambridge 
# Structural Database, then it will include bibliographic, chemical, 
# crystal, experimental, refinement or atomic coordinate data resulting 
# from the CCDC's data processing and validation procedures.
#
#######################################################################

data_LIXZEY
_symmetry_cell_setting           triclinic
_symmetry_space_group_name_H-M   'P -1'
_symmetry_Int_Tables_number      2
_space_group_name_Hall           '-P 1'
loop_
_symmetry_equiv_pos_site_id
_symmetry_equiv_pos_as_xyz
1 x,y,z
2 -x,-y,-z
_cell_length_a                   9.8714(13)
_cell_length_b                   9.9271(19)
_cell_length_c                   14.797(3)
_cell_angle_alpha                87.270(16)
_cell_angle_beta                 71.388(15)
_cell_angle_gamma                74.944(14)
_cell_volume                     1326.03
loop_
_atom_site_label
_atom_site_type_symbol
_atom_site_fract_x
_atom_site_fract_y
_atom_site_fract_z
Cd1 Cd 0.5000 0.5000 0.5000
S1 S 0.31949(8) 0.30894(7) 0.39166(5)
N1 N 0.6878(2) 0.2954(2) 0.48877(15)
N2 N 0.8027(2) 0.13647(19) 0.56782(13)
N3 N 1.6095(2) -0.3930(2) 1.35791(15)
O1 O 0.3989(2) 0.4065(2) 0.40575(15)
N4 N 1.5538(2) -0.2540(2) 1.24717(13)
O2 O 0.4163(3) 0.1746(2) 0.35767(19)
C1 C 0.7750(3) 0.2718(2) 0.54162(18)
H1 H 0.8132 0.3391 0.5591
O3 O 0.1943(3) 0.3021(3) 0.47107(17)
C2 C 0.6600(3) 0.1686(3) 0.47852(18)
H2 H 0.6013 0.1531 0.4439
C3 C 0.2500(3) 0.3800(2) 0.29799(18)
C4 C 1.5396(3) -0.3715(3) 1.29500(17)
H3 H 1.4862 -0.4303 1.2843
C5 C 0.1050(3) 0.4524(3) 0.3170(2)
H4 H 0.0402 0.4630 0.3791
C6 C 0.7299(3) 0.0710(3) 0.52570(18)
H5 H 0.7294 -0.0226 0.5293
C7 C 0.3439(3) 0.3618(3) 0.2057(2)
H6 H 0.4414 0.3093 0.1924
C8 C 1.6744(3) -0.2842(3) 1.35006(18)
H7 H 1.7329 -0.2723 1.3859
N5 N 1.1580(2) -0.0329(2) 0.86680(15)
C9 C 0.8890(2) 0.0741(2) 0.62752(16)
C10 C 1.6412(3) -0.1975(3) 1.28307(18)
H8 H 1.6709 -0.1161 1.2646
C11 C 1.4789(2) -0.1936(2) 1.18128(16)
C12 C 0.9289(3) -0.0696(2) 0.63338(18)
H9 H 0.8999 -0.1255 0.5982
C13 C 1.1445(3) -0.1154(3) 0.80787(17)
C14 C 1.0560(2) -0.0508(2) 0.74554(16)
C15 C 1.0112(3) -0.1299(2) 0.69101(18)
H10 H 1.0378 -0.2266 0.6936
C16 C 1.4537(3) -0.2785(3) 1.12022(18)
H11 H 1.4882 -0.3750 1.1208
C17 C 1.3260(2) -0.0759(2) 1.05479(16)
C18 C 0.9310(3) 0.1557(3) 0.6818(2)
H12 H 0.9037 0.2524 0.6792
C19 C 0.1487(4) 0.4959(3) 0.1499(2)
C20 C 1.4292(3) -0.0509(3) 1.17944(17)
H13 H 1.4470 0.0065 1.2198
C21 C 0.2928(4) 0.4216(3) 0.1329(2)
H14 H 0.3577 0.4112 0.0708
C22 C 0.0560(4) 0.5100(3) 0.2418(3)
H15 H -0.0425 0.5594 0.2545
C23 C 1.0127(3) 0.0939(3) 0.7393(2)
H16 H 1.0400 0.1502 0.7752
C24 C 1.3772(3) -0.2197(3) 1.05845(18)
H17 H 1.3596 -0.2777 1.0183
C25 C 1.3528(3) 0.0068(3) 1.11745(17)
H18 H 1.3183 0.1034 1.1175
C26 C 1.2105(3) -0.2700(3) 0.7993(2)
H19 H 1.2644 -0.2965 0.8439
H20 H 1.2764 -0.2957 0.7357
H21 H 1.1330 -0.3170 0.8130
C27 C 0.0949(5) 0.5608(5) 0.0693(3)
H22 H -0.0081 0.6086 0.0941
H23 H 0.1081 0.4891 0.0237
H24 H 0.1504 0.6260 0.0389
C28 C 1.2447(3) -0.0138(3) 0.98763(17)
N6 N 1.2384(2) -0.0983(2) 0.92674(15)
C29 C 1.1752(3) 0.1399(3) 0.9949(2)
H25 H 1.1269 0.1644 0.9472
H26 H 1.2502 0.1892 0.9850
H27 H 1.1038 0.1648 1.0571
Cd1_2 Cd 1.5000 -0.5000 1.5000
Cd1_3 Cd -0.5000 1.5000 -0.5000
S1A S 0.68051(8) 0.69106(7) 0.60834(5)
N1A N 0.3122(2) 0.7046(2) 0.51123(15)
N2A N 0.1973(2) 0.86353(19) 0.43218(13)
N3A N -0.6095(2) 1.3930(2) -0.35791(15)
N3_2 N 0.6095(2) 0.6070(2) 0.35791(15)
N3A_2 N 0.3905(2) 0.3930(2) 0.64209(15)
O1A O 0.6011(2) 0.5935(2) 0.59425(15)
N4A N -0.5538(2) 1.2540(2) -0.24717(13)
O2A O 0.5837(3) 0.8254(2) 0.64233(19)
C1A C 0.2250(3) 0.7282(2) 0.45838(18)
H1A H 0.1868 0.6609 0.4409
O3A O 0.8057(3) 0.6979(3) 0.52893(17)
C2A C 0.3400(3) 0.8314(3) 0.52148(18)
H2A H 0.3987 0.8469 0.5561
C3A C 0.7500(3) 0.6200(2) 0.70201(18)
C4A C -0.5396(3) 1.3715(3) -0.29500(17)
H3A H -0.4862 1.4303 -0.2843
C5A C 0.8950(3) 0.5476(3) 0.6830(2)
H4A H 0.9598 0.5370 0.6209
C6A C 0.2701(3) 0.9290(3) 0.47430(18)
H5A H 0.2706 1.0226 0.4707
C7A C 0.6561(3) 0.6382(3) 0.7943(2)
H6A H 0.5586 0.6907 0.8076
C8A C -0.6744(3) 1.2842(3) -0.35006(18)
H7A H -0.7329 1.2723 -0.3859
N5A N -0.1580(2) 1.0329(2) 0.13320(15)
C9A C 0.1110(2) 0.9259(2) 0.37248(16)
C10A C -0.6412(3) 1.1975(3) -0.28307(18)
H8A H -0.6709 1.1161 -0.2646
C11A C -0.4789(2) 1.1936(2) -0.18128(16)
C12A C 0.0711(3) 1.0696(2) 0.36662(18)
H9A H 0.1001 1.1255 0.4018
C13A C -0.1445(3) 1.1154(3) 0.19213(17)
C14A C -0.0560(2) 1.0508(2) 0.25446(16)
C15A C -0.0112(3) 1.1299(2) 0.30899(18)
H10A H -0.0378 1.2266 0.3064
C16A C -0.4537(3) 1.2785(3) -0.12022(18)
H11A H -0.4882 1.3750 -0.1208
C17A C -0.3260(2) 1.0759(2) -0.05479(16)
C18A C 0.0690(3) 0.8443(3) 0.3182(2)
H12A H 0.0963 0.7476 0.3208
C19A C 0.8513(4) 0.5041(3) 0.8501(2)
C20A C -0.4292(3) 1.0509(3) -0.17944(17)
H13A H -0.4470 0.9935 -0.2198
C21A C 0.7072(4) 0.5784(3) 0.8671(2)
H14A H 0.6423 0.5888 0.9292
C22A C 0.9440(4) 0.4900(3) 0.7582(3)
H15A H 1.0425 0.4406 0.7455
C23A C -0.0127(3) 0.9061(3) 0.2607(2)
H16A H -0.0400 0.8498 0.2248
C24A C -0.3772(3) 1.2197(3) -0.05845(18)
H17A H -0.3596 1.2777 -0.0183
C25A C -0.3528(3) 0.9932(3) -0.11745(17)
H18A H -0.3183 0.8966 -0.1175
C26A C -0.2105(3) 1.2700(3) 0.2007(2)
H19A H -0.2644 1.2965 0.1561
H20A H -0.2764 1.2957 0.2643
H21A H -0.1330 1.3170 0.1870
C27A C 0.9051(5) 0.4392(5) 0.9307(3)
H22A H 1.0081 0.3914 0.9059
H23A H 0.8919 0.5109 0.9763
H24A H 0.8496 0.3740 0.9611
C28A C -0.2447(3) 1.0138(3) 0.01237(17)
N6A N -0.2384(2) 1.0983(2) 0.07326(15)
C29A C -0.1752(3) 0.8601(3) 0.0051(2)
H25A H -0.1269 0.8356 0.0528
H26A H -0.2502 0.8108 0.0150
H27A H -0.1038 0.8352 -0.0571
loop_
_geom_bond_atom_site_label_1
_geom_bond_atom_site_label_2
_geom_bond_site_symmetry_1
_geom_bond_site_symmetry_2
Cd1 N1 1_555 1_555
S1 O1 1_555 1_555
N1 C1 1_555 1_555
N2 C1 1_555 1_555
N3 C4 1_555 1_555
O1 Cd1 1_555 1_555
N4 C4 1_555 1_555
O2 S1 1_555 1_555
C1 H1 1_555 1_555
O3 S1 1_555 1_555
C2 N1 1_555 1_555
H2 C2 1_555 1_555
C3 S1 1_555 1_555
C4 H3 1_555 1_555
C5 C3 1_555 1_555
H4 C5 1_555 1_555
C6 N2 1_555 1_555
H5 C6 1_555 1_555
C7 C3 1_555 1_555
H6 C7 1_555 1_555
C8 N3 1_555 1_555
H7 C8 1_555 1_555
N5 C13 1_555 1_555
C9 N2 1_555 1_555
C10 N4 1_555 1_555
H8 C10 1_555 1_555
C11 N4 1_555 1_555
C12 C9 1_555 1_555
H9 C12 1_555 1_555
C13 C14 1_555 1_555
C14 C15 1_555 1_555
C15 C12 1_555 1_555
H10 C15 1_555 1_555
C16 C11 1_555 1_555
H11 C16 1_555 1_555
C17 C24 1_555 1_555
C18 C9 1_555 1_555
H12 C18 1_555 1_555
C19 C21 1_555 1_555
C20 C11 1_555 1_555
H13 C20 1_555 1_555
C21 C7 1_555 1_555
H14 C21 1_555 1_555
C22 C5 1_555 1_555
H15 C22 1_555 1_555
C23 C14 1_555 1_555
H16 C23 1_555 1_555
C24 C16 1_555 1_555
H17 C24 1_555 1_555
C25 C17 1_555 1_555
H18 C25 1_555 1_555
C26 C13 1_555 1_555
H19 C26 1_555 1_555
H20 C26 1_555 1_555
H21 C26 1_555 1_555
C27 C19 1_555 1_555
H22 C27 1_555 1_555
H23 C27 1_555 1_555
H24 C27 1_555 1_555
C28 C17 1_555 1_555
N6 N5 1_555 1_555
C29 C28 1_555 1_555
H25 C29 1_555 1_555
H26 C29 1_555 1_555
H27 C29 1_555 1_555
Cd1_2 N3 1_555 1_555
Cd1_3 N3A 1_555 1_555
S1A O1A 1_555 1_555
N1A Cd1 1_555 1_555
N2A C1A 1_555 1_555
N3A C4A 1_555 1_555
N3_2 Cd1 1_555 1_555
N3A_2 Cd1 1_555 1_555
O1A Cd1 1_555 1_555
N4A C4A 1_555 1_555
O2A S1A 1_555 1_555
C1A N1A 1_555 1_555
H1A C1A 1_555 1_555
O3A S1A 1_555 1_555
C2A N1A 1_555 1_555
H2A C2A 1_555 1_555
C3A S1A 1_555 1_555
C4A H3A 1_555 1_555
C5A C3A 1_555 1_555
H4A C5A 1_555 1_555
C6A N2A 1_555 1_555
H5A C6A 1_555 1_555
C7A C3A 1_555 1_555
H6A C7A 1_555 1_555
C8A N3A 1_555 1_555
H7A C8A 1_555 1_555
N5A C13A 1_555 1_555
C9A N2A 1_555 1_555
C10A N4A 1_555 1_555
H8A C10A 1_555 1_555
C11A N4A 1_555 1_555
C12A C9A 1_555 1_555
H9A C12A 1_555 1_555
C13A C14A 1_555 1_555
C14A C15A 1_555 1_555
C15A C12A 1_555 1_555
H10A C15A 1_555 1_555
C16A C11A 1_555 1_555
H11A C16A 1_555 1_555
C17A C24A 1_555 1_555
C18A C9A 1_555 1_555
H12A C18A 1_555 1_555
C19A C21A 1_555 1_555
C20A C11A 1_555 1_555
H13A C20A 1_555 1_555
C21A C7A 1_555 1_555
H14A C21A 1_555 1_555
C22A C5A 1_555 1_555
H15A C22A 1_555 1_555
C23A C14A 1_555 1_555
H16A C23A 1_555 1_555
C24A C16A 1_555 1_555
H17A C24A 1_555 1_555
C25A C17A 1_555 1_555
H18A C25A 1_555 1_555
C26A C13A 1_555 1_555
H19A C26A 1_555 1_555
H20A C26A 1_555 1_555
H21A C26A 1_555 1_555
C27A C19A 1_555 1_555
H22A C27A 1_555 1_555
H23A C27A 1_555 1_555
H24A C27A 1_555 1_555
C28A C17A 1_555 1_555
N6A N5A 1_555 1_555
C29A C28A 1_555 1_555
H25A C29A 1_555 1_555
H26A C29A 1_555 1_555
H27A C29A 1_555 1_555
C2 C6 1_555 1_555
C8 C10 1_555 1_555
C18 C23 1_555 1_555
C19 C22 1_555 1_555
C20 C25 1_555 1_555
C28 N6 1_555 1_555
C2A C6A 1_555 1_555
C8A C10A 1_555 1_555
C18A C23A 1_555 1_555
C19A C22A 1_555 1_555
C20A C25A 1_555 1_555
C28A N6A 1_555 1_555

#END
