
#######################################################################
#
#                 Cambridge Crystallographic Data Centre
#                                CCDC 
#
#######################################################################
#
# If this CIF has been generated from an entry in the Cambridge 
# Structural Database, then it will include bibliographic, chemical, 
# crystal, experimental, refinement or atomic coordinate data resulting 
# from the CCDC's data processing and validation procedures.
#
#######################################################################

data_LIXZAU
_symmetry_cell_setting           monoclinic
_symmetry_space_group_name_H-M   'C 2/c'
_symmetry_Int_Tables_number      15
_space_group_name_Hall           '-C 2yn'
loop_
_symmetry_equiv_pos_site_id
_symmetry_equiv_pos_as_xyz
1 x,y,z
2 1/2+x,1/2+y,z
3 -x,y,1/2-z
4 1/2-x,1/2+y,1/2-z
5 -x,-y,-z
6 1/2-x,1/2-y,-z
7 x,-y,1/2+z
8 1/2+x,1/2-y,1/2+z
_cell_length_a                   10.772(2)
_cell_length_b                   16.887(3)
_cell_length_c                   23.130(5)
_cell_angle_alpha                90
_cell_angle_beta                 99.98(3)
_cell_angle_gamma                90
_cell_volume                     4143.84
loop_
_atom_site_label
_atom_site_type_symbol
_atom_site_fract_x
_atom_site_fract_y
_atom_site_fract_z
C13 C 0.9900(9) 0.1478(6) 0.6626(4)
H3 H 1.0632 0.1738 0.6799
C14 C 0.8852(11) 0.1877(5) 0.6419(5)
H4 H 0.8848 0.2425 0.6459
C15 C 0.7773(10) 0.1500(6) 0.6145(5)
H5 H 0.7063 0.1794 0.5990
C16 C 0.7753(9) 0.0718(6) 0.6105(4)
H6 H 0.7029 0.0458 0.5922
C17 C 0.8778(11) 0.0305(5) 0.6329(5)
H7 H 0.8738 -0.0245 0.6313
C18 C 0.9857(10) 0.0644(6) 0.6575(5)
H8 H 1.0567 0.0339 0.6709
O4 O 0.368(3) 0.0901(18) 0.7580(12)
H9 H 0.3456 0.0728 0.7186
C19 C 0.5677(14) 0.1747(7) 0.7902(6)
H10 H 0.5363 0.2279 0.7900
H11 H 0.6494 0.1750 0.7789
H12 H 0.5741 0.1528 0.8289
C20 C 0.476(2) 0.1238(14) 0.7461(11)
H13 H 0.4513 0.1565 0.7115
H14 H 0.4740 0.0808 0.7656
O4B O 0.632(3) 0.0901(18) 0.7420(12)
H9B H 0.6544 0.0728 0.7814
C19B C 0.4323(14) 0.1747(7) 0.7098(6)
H10B H 0.4637 0.2279 0.7100
H11B H 0.3506 0.1750 0.7211
H12B H 0.4259 0.1528 0.6711
C20B C 0.524(2) 0.1238(14) 0.7539(11)
H13B H 0.5487 0.1565 0.7885
H14B H 0.5260 0.0808 0.7344
Ni1 Ni 0.2500 0.2500 0.5000
N1 N 0.3619(2) 0.18601(16) 0.44936(11)
N2 N 0.2518(3) 0.1525(2) 0.26977(13)
N3 N 0.2255(3) 0.1344(2) 0.20945(13)
N4 N -0.0783(2) 0.19267(16) 0.03926(11)
N5 N 0.2912(3) 0.0964(2) 0.57080(17)
O1 O 0.3191(5) 0.0631(2) 0.61780(19)
O2 O 0.2652(3) 0.05797(17) 0.52575(17)
O3 O 0.2834(2) 0.17165(13) 0.57039(10)
C1 C 0.4642(3) 0.1462(2) 0.47589(17)
C2 C 0.5338(4) 0.0977(2) 0.44686(17)
C3 C 0.4997(4) 0.0892(3) 0.38668(17)
C4 C 0.3947(3) 0.1297(2) 0.35843(15)
C5 C 0.3310(3) 0.1779(2) 0.39128(15)
C6 C 0.3511(4) 0.1199(3) 0.29518(15)
H1 H 0.3978 0.0889 0.2735
C7 C 0.1256(4) 0.1675(3) 0.18418(17)
C8 C 0.0784(3) 0.1568(2) 0.12206(15)
C9 C 0.1335(4) 0.1063(2) 0.08687(17)
C10 C 0.0849(3) 0.1008(2) 0.02863(16)
H2 H 0.1217 0.0678 0.0042
C11 C -0.0203(3) 0.1451(2) 0.00650(17)
C12 C -0.0273(3) 0.1989(2) 0.09609(15)
H15 H -0.068(3) 0.235(2) 0.1178(14)
H16 H 0.541(3) 0.054(2) 0.3659(16)
H17 H 0.264(3) 0.207(2) 0.3729(15)
H18 H -0.056(4) 0.146(2) -0.0333(17)
H19 H 0.489(4) 0.154(2) 0.5179(18)
H20 H 0.093(3) 0.1782(19) 0.2075(18)
H21 H 0.602(4) 0.071(2) 0.4697(17)
H22 H 0.201(4) 0.080(2) 0.1029(16)
Ni1G Ni -0.2500 0.2500 0.0000
Ni1G_2 Ni 0.7500 0.2500 1.0000
N1E N 0.1381(2) 0.31399(16) 0.55064(11)
N2E N 0.2482(3) 0.3475(2) 0.73023(13)
N3E N 0.2745(3) 0.3656(2) 0.79055(13)
N4E N 0.5783(2) 0.30733(16) 0.96074(11)
N4G N 0.4217(2) 0.30733(16) 0.53926(11)
N4B N 0.0783(2) 0.19267(16) 0.46074(11)
N5E N 0.2088(3) 0.4036(2) 0.42920(17)
O1E O 0.1809(5) 0.4369(2) 0.38220(19)
O2E O 0.2348(3) 0.44203(17) 0.47425(17)
O3E O 0.2166(2) 0.32835(13) 0.42961(10)
C1E C 0.0358(3) 0.3538(2) 0.52411(17)
C2E C -0.0338(4) 0.4023(2) 0.55314(17)
C3E C 0.0003(4) 0.4108(3) 0.61332(17)
C4E C 0.1053(3) 0.3703(2) 0.64157(15)
C5E C 0.1690(3) 0.3221(2) 0.60872(15)
C6E C 0.1489(4) 0.3801(3) 0.70482(15)
H1E H 0.1022 0.4111 0.7265
C7E C 0.3744(4) 0.3325(3) 0.81582(17)
C8E C 0.4216(3) 0.3432(2) 0.87794(15)
C9E C 0.3665(4) 0.3937(2) 0.91313(17)
C10E C 0.4151(3) 0.3992(2) 0.97137(16)
H2E H 0.3783 0.4322 0.9958
C11E C 0.5203(3) 0.3549(2) 0.99350(17)
C12E C 0.5273(3) 0.3011(2) 0.90391(15)
H15E H 0.568(3) 0.265(2) 0.8822(14)
H16E H -0.041(3) 0.446(2) 0.6341(16)
H17E H 0.236(3) 0.293(2) 0.6271(15)
H18E H 0.556(4) 0.354(2) 1.0333(17)
H19E H 0.011(4) 0.346(2) 0.4821(18)
H20E H 0.407(3) 0.3218(19) 0.7925(18)
H21E H -0.102(4) 0.429(2) 0.5303(17)
H22E H 0.299(4) 0.420(2) 0.8971(16)
loop_
_geom_bond_atom_site_label_1
_geom_bond_atom_site_label_2
_geom_bond_site_symmetry_1
_geom_bond_site_symmetry_2
Ni1 N1 1_555 1_555
N1 C1 1_555 1_555
N2 N3 1_555 1_555
N3 C7 1_555 1_555
N4 C11 1_555 1_555
N5 O1 1_555 1_555
O2 N5 1_555 1_555
O3 Ni1 1_555 1_555
C1 C2 1_555 1_555
C2 C3 1_555 1_555
C3 C4 1_555 1_555
C4 C5 1_555 1_555
C5 N1 1_555 1_555
C6 N2 1_555 1_555
H1 C6 1_555 1_555
C7 C8 1_555 1_555
C8 C9 1_555 1_555
C9 C10 1_555 1_555
C10 H2 1_555 1_555
C11 C10 1_555 1_555
C12 N4 1_555 1_555
C13 H3 1_555 1_555
C14 C13 1_555 1_555
H4 C14 1_555 1_555
C15 C14 1_555 1_555
H5 C15 1_555 1_555
C16 C15 1_555 1_555
H6 C16 1_555 1_555
C17 C16 1_555 1_555
H7 C17 1_555 1_555
C18 C13 1_555 1_555
H8 C18 1_555 1_555
O4 H9 1_555 1_555
C19 H10 1_555 1_555
H11 C19 1_555 1_555
H12 C19 1_555 1_555
C20 O4 1_555 1_555
H13 C20 1_555 1_555
H14 O4 1_555 1_555
H15 C12 1_555 1_555
H16 C3 1_555 1_555
H17 C5 1_555 1_555
H18 C11 1_555 1_555
H19 C1 1_555 1_555
H20 C7 1_555 1_555
H21 C2 1_555 1_555
H22 C9 1_555 1_555
Ni1G N4 1_555 1_555
Ni1G_2 N4E 1_555 1_555
N1E Ni1 1_555 1_555
N2E N3E 1_555 1_555
N3E C7E 1_555 1_555
N4E C11E 1_555 1_555
N4G Ni1 1_555 1_555
N4B Ni1 1_555 1_555
N5E O1E 1_555 1_555
O2E N5E 1_555 1_555
O3E Ni1 1_555 1_555
C1E N1E 1_555 1_555
C2E C1E 1_555 1_555
C3E C2E 1_555 1_555
C4E C3E 1_555 1_555
C5E N1E 1_555 1_555
C6E N2E 1_555 1_555
H1E C6E 1_555 1_555
C7E C8E 1_555 1_555
C8E C9E 1_555 1_555
C9E C10E 1_555 1_555
C10E H2E 1_555 1_555
C11E C10E 1_555 1_555
C12E N4E 1_555 1_555
O4B H9B 1_555 1_555
C19B C20 1_555 1_555
H10B C19B 1_555 1_555
H11B C19B 1_555 1_555
H12B C19B 1_555 1_555
C20B C19 1_555 1_555
H13B C19 1_555 1_555
H14B C20 1_555 1_555
H15E C12E 1_555 1_555
H16E C3E 1_555 1_555
H17E C5E 1_555 1_555
H18E C11E 1_555 1_555
H19E C1E 1_555 1_555
H20E C7E 1_555 1_555
H21E C2E 1_555 1_555
H22E C9E 1_555 1_555
N5 O3 1_555 1_555
C4 C6 1_555 1_555
C8 C12 1_555 1_555
C17 C18 1_555 1_555
C19 C20 1_555 1_555
C20 H14 1_555 1_555
C20 C20B 1_555 1_555
C20 H13B 1_555 1_555
H13 C19B 1_555 1_555
H13 C20B 1_555 1_555
H14 C20B 1_555 1_555
N5E O3E 1_555 1_555
C4E C5E 1_555 1_555
C4E C6E 1_555 1_555
C8E C12E 1_555 1_555
O4B C20B 1_555 1_555
O4B H14B 1_555 1_555
C19B C20B 1_555 1_555
C20B H13B 1_555 1_555
C20B H14B 1_555 1_555

#END
