
#######################################################################
#
#                 Cambridge Crystallographic Data Centre
#                                CCDC 
#
#######################################################################
#
# If this CIF has been generated from an entry in the Cambridge 
# Structural Database, then it will include bibliographic, chemical, 
# crystal, experimental, refinement or atomic coordinate data resulting 
# from the CCDC's data processing and validation procedures.
#
#######################################################################

data_LIXZOI
_symmetry_cell_setting           triclinic
_symmetry_space_group_name_H-M   'P -1'
_symmetry_Int_Tables_number      2
_space_group_name_Hall           '-P 1'
loop_
_symmetry_equiv_pos_site_id
_symmetry_equiv_pos_as_xyz
1 x,y,z
2 -x,-y,-z
_cell_length_a                   9.8175(11)
_cell_length_b                   12.4818(14)
_cell_length_c                   12.8567(14)
_cell_angle_alpha                111.215(2)
_cell_angle_beta                 109.160(2)
_cell_angle_gamma                92.401(2)
_cell_volume                     1364.05
loop_
_atom_site_label
_atom_site_type_symbol
_atom_site_fract_x
_atom_site_fract_y
_atom_site_fract_z
Cl1 Cl 0.38641(9) -0.06460(12) 0.79450(8)
O3 O 0.2956(3) -0.1399(3) 0.8165(3)
O4 O 0.4046(4) 0.0518(4) 0.8803(4)
O5 O 0.5252(3) -0.0956(4) 0.8111(3)
O6 O 0.3187(4) -0.0718(5) 0.6774(3)
C25 C 0.8508(9) 0.4191(7) 0.4541(7)
H21 H 0.7911 0.3465 0.4230
C26 C 0.7890(7) 0.5191(9) 0.4671(8)
C27 C 0.8783(11) 0.6276(7) 0.5135(8)
H22 H 0.8370 0.6945 0.5222
C28 C 0.9705(10) 0.3638(6) 0.4530(9)
H23 H 0.9108 0.2912 0.4220
C29 C 0.9087(7) 0.4638(8) 0.4661(9)
H24 H 0.8076 0.4580 0.4437
C30 C 1.0020(9) 0.4277(7) 0.4875(8)
C31 C 0.9432(18) 0.6811(12) 0.5292(12)
H25 H 0.9757 0.2548 0.4328
H26 H 0.8830 0.6793 0.4526
H27 H 0.8861 0.6906 0.5788
C32 C 0.6253(17) 0.5106(19) 0.4322(14)
H28 H 0.5795 0.4302 0.4000
H29 H 0.5887 0.5423 0.3727
H30 H 0.6036 0.5540 0.5017
C25A C 1.1492(9) 0.5809(7) 0.5459(7)
H21A H 1.2089 0.6535 0.5770
C26A C 1.2110(7) 0.4809(9) 0.5329(8)
C27A C 1.1217(11) 0.3724(7) 0.4865(8)
H22A H 1.1630 0.3055 0.4778
C28A C 1.0295(10) 0.6362(6) 0.5470(9)
H23A H 1.0892 0.7088 0.5780
C29A C 1.0913(7) 0.5362(8) 0.5339(9)
H24A H 1.1924 0.5420 0.5563
C30A C 0.9980(9) 0.5723(7) 0.5125(8)
C31A C 1.0568(18) 0.3189(12) 0.4708(12)
H25A H 1.0243 0.7452 0.5672
H26A H 1.1170 0.3207 0.5474
H27A H 1.1139 0.3094 0.4212
C32A C 1.3747(17) 0.4894(19) 0.5678(14)
H28A H 1.4205 0.5698 0.6000
H29A H 1.4113 0.4577 0.6273
H30A H 1.3964 0.4460 0.4983
Co1 Co 0.0000 0.0000 0.0000
N1 N 0.0637(2) 0.0213(2) 0.1875(2)
N2 N 0.4563(3) 0.1498(2) 0.5657(2)
N3 N 1.5058(3) 0.5218(2) 0.8332(3)
C1 C 0.2019(3) 0.0688(3) 0.2640(2)
H1 H 0.2656 0.0973 0.2363
C2 C 0.2559(3) 0.0783(3) 0.3808(2)
C3 C 0.1607(4) 0.0370(3) 0.4219(3)
H2 H 0.1927 0.0405 0.4999
C4 C 0.0186(4) -0.0092(3) 0.3461(3)
H3 H -0.0482 -0.0355 0.3727
C5 C -0.0251(3) -0.0167(3) 0.2303(3)
H4 H -0.1218 -0.0501 0.1793
C6 C 0.4105(3) 0.1293(3) 0.4572(3)
H5 H 0.4748 0.1464 0.4236
C7 C 0.6052(3) 0.1968(3) 0.6406(3)
C8 C 0.6490(3) 0.1918(3) 0.7525(3)
H6 H 0.5814 0.1586 0.7738
C9 C 0.7905(3) 0.2350(3) 0.8320(3)
H7 H 0.8192 0.2297 0.9062
C10 C 0.8905(3) 0.2864(3) 0.8019(3)
C11 C 0.8505(3) 0.2930(3) 0.6915(3)
H8 H 0.9184 0.3272 0.6713
C12 C 0.7075(3) 0.2478(3) 0.6112(3)
H9 H 0.6796 0.2517 0.5364
C13 C 1.1400(3) 0.3801(3) 0.8688(3)
C14 C 1.2154(4) 0.3112(3) 0.8076(4)
H10 H 1.1869 0.2303 0.7735
C15 C 1.3018(4) 0.5493(3) 0.9103(4)
H11 H 1.3308 0.6301 0.9459
C16 C 1.3789(3) 0.4810(3) 0.8478(3)
C17 C 1.3341(4) 0.3621(3) 0.7964(3)
H12 H 1.3845 0.3151 0.7533
C18 C 1.1820(4) 0.4982(4) 0.9203(4)
H13 H 1.1301 0.5446 0.9622
C19 C 1.5705(3) 0.6253(3) 0.8881(3)
H14 H 1.5344 0.6796 0.9391
N4 N 1.8993(2) 0.8158(2) 0.9226(2)
C20 C 1.7044(3) 0.6616(3) 0.8722(3)
C21 C 1.9532(3) 0.7379(3) 0.8516(3)
H15 H 2.0380 0.7634 0.8435
C22 C 1.8893(4) 0.6211(3) 0.7896(3)
H16 H 1.9309 0.5693 0.7416
C23 C 1.7643(4) 0.5829(3) 0.8001(3)
H17 H 1.7197 0.5046 0.7592
C24 C 1.7763(3) 0.7765(3) 0.9315(2)
H18 H 1.7371 0.8298 0.9805
O1 O 1.0279(2) 0.3309(2) 0.8909(2)
O2 O 0.2065(2) -0.0464(2) 0.0032(2)
H19 H 0.279(3) -0.021(4) 0.054(3)
H20 H 0.223(4) -0.073(3) -0.053(3)
Co1_2 Co 2.0000 1.0000 1.0000
Co1_3 Co -2.0000 -1.0000 -1.0000
N1A N -0.0637(2) -0.0213(2) -0.1875(2)
N2A N -0.4563(3) -0.1498(2) -0.5657(2)
N3A N -1.5058(3) -0.5218(2) -0.8332(3)
C1A C -0.2019(3) -0.0688(3) -0.2640(2)
H1A H -0.2656 -0.0973 -0.2363
C2A C -0.2559(3) -0.0783(3) -0.3808(2)
C3A C -0.1607(4) -0.0370(3) -0.4219(3)
H2A H -0.1927 -0.0405 -0.4999
C4A C -0.0186(4) 0.0092(3) -0.3461(3)
H3A H 0.0482 0.0355 -0.3727
C5A C 0.0251(3) 0.0167(3) -0.2303(3)
H4A H 0.1218 0.0501 -0.1793
C6A C -0.4105(3) -0.1293(3) -0.4572(3)
H5A H -0.4748 -0.1464 -0.4236
C7A C -0.6052(3) -0.1968(3) -0.6406(3)
C8A C -0.6490(3) -0.1918(3) -0.7525(3)
H6A H -0.5814 -0.1586 -0.7738
C9A C -0.7905(3) -0.2350(3) -0.8320(3)
H7A H -0.8192 -0.2297 -0.9062
C10A C -0.8905(3) -0.2864(3) -0.8019(3)
C11A C -0.8505(3) -0.2930(3) -0.6915(3)
H8A H -0.9184 -0.3272 -0.6713
C12A C -0.7075(3) -0.2478(3) -0.6112(3)
H9A H -0.6796 -0.2517 -0.5364
C13A C -1.1400(3) -0.3801(3) -0.8688(3)
C14A C -1.2154(4) -0.3112(3) -0.8076(4)
H10A H -1.1869 -0.2303 -0.7735
C15A C -1.3018(4) -0.5493(3) -0.9103(4)
H11A H -1.3308 -0.6301 -0.9459
C16A C -1.3789(3) -0.4810(3) -0.8478(3)
C17A C -1.3341(4) -0.3621(3) -0.7964(3)
H12A H -1.3845 -0.3151 -0.7533
C18A C -1.1820(4) -0.4982(4) -0.9203(4)
H13A H -1.1301 -0.5446 -0.9622
C19A C -1.5705(3) -0.6253(3) -0.8881(3)
H14A H -1.5344 -0.6796 -0.9391
N4A N -1.8993(2) -0.8158(2) -0.9226(2)
N4_2 N -0.1007(2) -0.1842(2) -0.0774(2)
N4A_2 N 0.1007(2) 0.1842(2) 0.0774(2)
C20A C -1.7044(3) -0.6616(3) -0.8722(3)
C21A C -1.9532(3) -0.7379(3) -0.8516(3)
H15A H -2.0380 -0.7634 -0.8435
C22A C -1.8893(4) -0.6211(3) -0.7896(3)
H16A H -1.9309 -0.5693 -0.7416
C23A C -1.7643(4) -0.5829(3) -0.8001(3)
H17A H -1.7197 -0.5046 -0.7592
C24A C -1.7763(3) -0.7765(3) -0.9315(2)
H18A H -1.7371 -0.8298 -0.9805
O1A O -1.0279(2) -0.3309(2) -0.8909(2)
O2A O -0.2065(2) 0.0464(2) -0.0032(2)
H19A H -0.279(3) 0.021(4) -0.054(3)
H20A H -0.223(4) 0.073(3) 0.053(3)
loop_
_geom_bond_atom_site_label_1
_geom_bond_atom_site_label_2
_geom_bond_site_symmetry_1
_geom_bond_site_symmetry_2
Co1 N1 1_555 1_555
N1 C1 1_555 1_555
N2 C6 1_555 1_555
N3 C16 1_555 1_555
C1 H1 1_555 1_555
C2 C1 1_555 1_555
C3 C2 1_555 1_555
H2 C3 1_555 1_555
C4 C3 1_555 1_555
H3 C4 1_555 1_555
C5 N1 1_555 1_555
H4 C5 1_555 1_555
C6 C2 1_555 1_555
H5 C6 1_555 1_555
C7 N2 1_555 1_555
C8 C7 1_555 1_555
H6 C8 1_555 1_555
C9 C8 1_555 1_555
H7 C9 1_555 1_555
C10 C9 1_555 1_555
C11 C10 1_555 1_555
H8 C11 1_555 1_555
C12 C7 1_555 1_555
H9 C12 1_555 1_555
C13 C14 1_555 1_555
C14 H10 1_555 1_555
C15 H11 1_555 1_555
C16 C15 1_555 1_555
C17 C14 1_555 1_555
H12 C17 1_555 1_555
C18 C13 1_555 1_555
H13 C18 1_555 1_555
C19 N3 1_555 1_555
H14 C19 1_555 1_555
N4 C21 1_555 1_555
C20 C19 1_555 1_555
C21 H15 1_555 1_555
C22 C21 1_555 1_555
H16 C22 1_555 1_555
C23 C20 1_555 1_555
H17 C23 1_555 1_555
C24 N4 1_555 1_555
H18 C24 1_555 1_555
O1 C10 1_555 1_555
O2 Co1 1_555 1_555
H19 O2 1_555 1_555
H20 O2 1_555 1_555
Cl1 O3 1_555 1_555
O4 Cl1 1_555 1_555
O5 Cl1 1_555 1_555
O6 Cl1 1_555 1_555
C25 H21 1_555 1_555
C26 C25 1_555 1_555
C27 C26 1_555 1_555
H22 C27 1_555 1_555
C28 C25 1_555 1_555
H23 C28 1_555 1_555
C29 C25 1_555 1_555
H24 C25 1_555 1_555
C30 C25 1_555 1_555
C31 C27 1_555 1_555
H25 C28 1_555 1_555
H26 C27 1_555 1_555
H27 C27 1_555 1_555
C32 C26 1_555 1_555
H28 C32 1_555 1_555
H29 C32 1_555 1_555
H30 C32 1_555 1_555
Co1_2 N4 1_555 1_555
Co1_3 N4A 1_555 1_555
N1A Co1 1_555 1_555
N2A C6A 1_555 1_555
N3A C16A 1_555 1_555
C1A N1A 1_555 1_555
H1A C1A 1_555 1_555
C2A C1A 1_555 1_555
C3A C2A 1_555 1_555
H2A C3A 1_555 1_555
C4A C3A 1_555 1_555
H3A C4A 1_555 1_555
C5A N1A 1_555 1_555
H4A C5A 1_555 1_555
C6A C2A 1_555 1_555
H5A C6A 1_555 1_555
C7A N2A 1_555 1_555
C8A C7A 1_555 1_555
H6A C8A 1_555 1_555
C9A C8A 1_555 1_555
H7A C9A 1_555 1_555
C10A C9A 1_555 1_555
C11A C10A 1_555 1_555
H8A C11A 1_555 1_555
C12A C7A 1_555 1_555
H9A C12A 1_555 1_555
C13A C14A 1_555 1_555
C14A H10A 1_555 1_555
C15A H11A 1_555 1_555
C16A C15A 1_555 1_555
C17A C14A 1_555 1_555
H12A C17A 1_555 1_555
C18A C13A 1_555 1_555
H13A C18A 1_555 1_555
C19A N3A 1_555 1_555
H14A C19A 1_555 1_555
N4A C21A 1_555 1_555
N4_2 Co1 1_555 1_555
N4A_2 Co1 1_555 1_555
C20A C19A 1_555 1_555
C21A H15A 1_555 1_555
C22A C21A 1_555 1_555
H16A C22A 1_555 1_555
C23A C20A 1_555 1_555
H17A C23A 1_555 1_555
C24A N4A 1_555 1_555
H18A C24A 1_555 1_555
O1A C10A 1_555 1_555
O2A Co1 1_555 1_555
H19A O2A 1_555 1_555
H20A O2A 1_555 1_555
C25A H21A 1_555 1_555
C26A C25A 1_555 1_555
C27A C28 1_555 1_555
H22A C27A 1_555 1_555
C28A C27 1_555 1_555
H23A C28A 1_555 1_555
C29A C29 1_555 1_555
H24A C25A 1_555 1_555
C30A C27 1_555 1_555
C31A C28 1_555 1_555
H25A C31 1_555 1_555
H26A C27A 1_555 1_555
H27A C27A 1_555 1_555
C32A C26A 1_555 1_555
H28A C32A 1_555 1_555
H29A C32A 1_555 1_555
H30A C32A 1_555 1_555
C4 C5 1_555 1_555
C11 C12 1_555 1_555
C13 O1 1_555 1_555
C15 C18 1_555 1_555
C16 C17 1_555 1_555
C20 C24 1_555 1_555
C22 C23 1_555 1_555
C26 C29 1_555 1_555
C26 H24 1_555 1_555
H22 C31 1_555 1_555
H22 H27 1_555 1_555
C28 C29 1_555 1_555
C28 C30 1_555 1_555
H23 H25 1_555 1_555
C29 H24 1_555 1_555
C29 C30 1_555 1_555
C29 C30A 1_555 1_555
C30 C27A 1_555 1_555
C30 C29A 1_555 1_555
C30 C30A 1_555 1_555
C30 C31A 1_555 1_555
C31 H26 1_555 1_555
C31 H27 1_555 1_555
C31 C28A 1_555 1_555
C31 C30A 1_555 1_555
H25 C31A 1_555 1_555
C4A C5A 1_555 1_555
C11A C12A 1_555 1_555
C13A O1A 1_555 1_555
C15A C18A 1_555 1_555
C16A C17A 1_555 1_555
C20A C24A 1_555 1_555
C22A C23A 1_555 1_555
C25A C28A 1_555 1_555
C25A C29A 1_555 1_555
C25A C30A 1_555 1_555
C26A C27A 1_555 1_555
C26A C29A 1_555 1_555
C26A H24A 1_555 1_555
C27A C31A 1_555 1_555
H22A C31A 1_555 1_555
H22A H27A 1_555 1_555
C28A C29A 1_555 1_555
C28A C30A 1_555 1_555
C28A H25A 1_555 1_555
H23A H25A 1_555 1_555
C29A H24A 1_555 1_555
C29A C30A 1_555 1_555
C31A H26A 1_555 1_555
C31A H27A 1_555 1_555

#END
