
#######################################################################
#
#                 Cambridge Crystallographic Data Centre
#                                CCDC 
#
#######################################################################
#
# If this CIF has been generated from an entry in the Cambridge 
# Structural Database, then it will include bibliographic, chemical, 
# crystal, experimental, refinement or atomic coordinate data resulting 
# from the CCDC's data processing and validation procedures.
#
#######################################################################

data_LIXZUP
_symmetry_cell_setting           triclinic
_symmetry_space_group_name_H-M   'P -1'
_symmetry_Int_Tables_number      2
_space_group_name_Hall           '-P 1'
loop_
_symmetry_equiv_pos_site_id
_symmetry_equiv_pos_as_xyz
1 x,y,z
2 -x,-y,-z
_cell_length_a                   12.212(2)
_cell_length_b                   12.449(3)
_cell_length_c                   14.962(3)
_cell_angle_alpha                100.70(3)
_cell_angle_beta                 100.41(3)
_cell_angle_gamma                115.29(3)
_cell_volume                     1932.39
loop_
_atom_site_label
_atom_site_type_symbol
_atom_site_fract_x
_atom_site_fract_y
_atom_site_fract_z
Zn1 Zn 0.85401(8) 0.74978(9) 1.07072(6)
Zn2 Zn 0.66253(8) 0.70954(9) 0.89401(6)
N1 N 0.5522(6) 0.6779(6) 0.7631(5)
N2 N 0.5142(7) 0.6766(7) 0.6135(5)
N3 N -0.0118(6) 0.7824(7) 0.1886(5)
N4 N 0.1392(7) 0.7759(7) 0.2909(6)
O1 O 0.8267(5) 0.7445(6) 0.8516(5)
O2 O 0.9620(6) 0.7634(7) 0.9795(4)
O3 O 1.1122(6) 1.0726(6) 0.9249(5)
O4 O 1.2673(6) 1.1058(6) 1.0469(5)
O5 O 0.5553(6) 0.6857(7) 0.9869(4)
O6 O 0.7042(5) 0.7387(6) 1.1217(5)
O7 O 0.2383(6) 0.4401(6) 0.9796(5)
O8 O 0.3685(6) 0.4702(6) 1.1172(5)
C1 C 0.9334(7) 0.7718(7) 0.8975(6)
C2 C 1.1819(7) 1.0388(7) 0.9692(6)
C3 C 1.1685(8) 0.9134(8) 0.9277(6)
H1 H 1.1791 0.8776 0.9789
H2 H 1.2363 0.9236 0.8993
C4 C 1.0428(7) 0.8220(7) 0.8530(6)
H3 H 1.0229 0.8676 0.8115
C5 C 1.0500(8) 0.7148(8) 0.7905(6)
C6 C 0.9913(10) 0.6739(10) 0.6924(7)
H4 H 0.9458 0.7104 0.6667
C7 C 0.9998(14) 0.5798(12) 0.6327(9)
H5 H 0.9603 0.5532 0.5676
C8 C 1.0676(14) 0.5265(12) 0.6716(11)
H6 H 1.0761 0.4652 0.6320
C9 C 1.1231(12) 0.5632(11) 0.7688(10)
H7 H 1.1671 0.5257 0.7948
C10 C 1.1125(10) 0.6566(9) 0.8269(8)
H8 H 1.1488 0.6803 0.8923
C11 C 0.3221(8) 0.5072(8) 1.0566(6)
C12 C 0.3687(8) 0.6475(8) 1.0774(7)
H9 H 0.3545 0.6661 1.0176
H10 H 0.3186 0.6696 1.1130
C13 C 0.5083(7) 0.7278(7) 1.1333(6)
H11 H 0.5237 0.6991 1.1886
C14 C 0.5468(8) 0.8637(8) 1.1692(6)
C15 C 0.4894(10) 0.9216(9) 1.1225(8)
H12 H 0.4256 0.8746 1.0653
C16 C 0.5230(12) 1.0457(10) 1.1572(10)
H13 H 0.4805 1.0803 1.1250
C17 C 0.6197(12) 1.1172(10) 1.2397(10)
H14 H 0.6438 1.2012 1.2628
C18 C 0.6815(11) 1.0666(10) 1.2890(8)
H15 H 0.7471 1.1161 1.3449
C19 C 0.6457(9) 0.9403(9) 1.2548(7)
H16 H 0.6872 0.9062 1.2886
C20 C 0.5957(7) 0.7151(7) 1.0746(6)
C21 C 0.6996(9) 0.8653(9) 0.7283(7)
H17 H 0.7226 0.9055 0.7952
H18 H 0.6776 0.9137 0.6929
H19 H 0.7697 0.8581 0.7133
C22 C 0.5901(8) 0.7404(8) 0.7033(6)
C23 C 0.4180(8) 0.5645(9) 0.6155(6)
C24 C 0.4443(7) 0.5673(8) 0.7104(6)
C25 C 0.3672(8) 0.4655(8) 0.7377(7)
H20 H 0.3833 0.4643 0.8005
C26 C 0.2660(9) 0.3670(9) 0.6663(8)
H21 H 0.2124 0.2981 0.6816
C27 C 0.2424(10) 0.3684(10) 0.5721(8)
H22 H 0.1732 0.3000 0.5266
C28 C 0.3163(9) 0.4659(9) 0.5434(7)
H23 H 0.2999 0.4662 0.4803
C29 C 0.5292(8) 0.7127(10) 0.5261(6)
H24 H 0.5100 0.6403 0.4756
H25 H 0.6166 0.7738 0.5374
C30 C 0.4439(9) 0.7666(10) 0.4939(6)
H26 H 0.4640 0.8406 0.5432
H27 H 0.3561 0.7064 0.4830
C31 C 0.4621(8) 0.7992(10) 0.4029(6)
H28 H 0.4535 0.7276 0.3573
H29 H 0.5475 0.8661 0.4167
C32 C 0.3675(8) 0.8395(10) 0.3571(7)
H30 H 0.3791 0.9143 0.4008
H31 H 0.3847 0.8588 0.2996
C33 C 0.2303(9) 0.7372(11) 0.3328(8)
H32 H 0.2185 0.6630 0.2882
H33 H 0.2138 0.7168 0.3902
C34 C 0.0610(9) 0.6365(10) 0.1230(7)
H34 H -0.0241 0.5821 0.0829
H35 H 0.0946 0.5888 0.1501
H36 H 0.1125 0.6779 0.0860
C35 C 0.0611(7) 0.7298(8) 0.2000(6)
C36 C 0.0220(8) 0.8700(8) 0.2762(6)
C37 C -0.0208(8) 0.9550(9) 0.3015(6)
H37 H -0.0841 0.9584 0.2590
C38 C 0.0362(9) 1.0343(10) 0.3936(7)
H38 H 0.0118 1.0938 0.4131
C39 C 0.1294(10) 1.0273(10) 0.4579(7)
H39 H 0.1639 1.0811 0.5195
C40 C 0.1713(10) 0.9435(11) 0.4330(7)
H40 H 0.2336 0.9395 0.4761
C41 C 0.1166(8) 0.8647(8) 0.3404(6)
Zn1_2 Zn -0.14599(8) 0.74978(9) 0.07072(6)
Zn1A Zn 0.14599(8) 0.25022(9) 0.92928(6)
Zn1A_2 Zn 1.14599(8) 1.25022(9) 0.92928(6)
Zn2A Zn 0.33747(8) 0.29046(9) 1.10599(6)
Zn2A_2 Zn 1.33747(8) 1.29046(9) 1.10599(6)
N3_2 N 0.9882(6) 0.7824(7) 1.1886(5)
O3A O 0.8878(6) 0.9274(6) 1.0751(5)
O4A O 0.7327(6) 0.8942(6) 0.9531(5)
O7A O 0.7617(6) 0.5599(6) 1.0204(5)
O8A O 0.6315(6) 0.5298(6) 0.8828(5)
O9 O 0.6911(10) 0.5026(10) 0.6968(7)
H41 H 0.6988 0.4838 0.7485
H42 H 0.7154 0.5798 0.7069
loop_
_geom_bond_atom_site_label_1
_geom_bond_atom_site_label_2
_geom_bond_site_symmetry_1
_geom_bond_site_symmetry_2
Zn1 O2 1_555 1_555
Zn2 N1 1_555 1_555
N1 C22 1_555 1_555
N2 C22 1_555 1_555
N3 C35 1_555 1_555
N4 C33 1_555 1_555
O1 Zn2 1_555 1_555
O2 C1 1_555 1_555
O3 C2 1_555 1_555
O4 C2 1_555 1_555
O5 Zn2 1_555 1_555
O6 Zn1 1_555 1_555
O7 C11 1_555 1_555
O8 C11 1_555 1_555
C1 O1 1_555 1_555
C2 C3 1_555 1_555
C3 H1 1_555 1_555
H2 C3 1_555 1_555
C4 C1 1_555 1_555
H3 C4 1_555 1_555
C5 C4 1_555 1_555
C6 C5 1_555 1_555
H4 C6 1_555 1_555
C7 C6 1_555 1_555
H5 C7 1_555 1_555
C8 C7 1_555 1_555
H6 C8 1_555 1_555
C9 C8 1_555 1_555
H7 C9 1_555 1_555
C10 C5 1_555 1_555
H8 C10 1_555 1_555
C11 C12 1_555 1_555
C12 H9 1_555 1_555
H10 C12 1_555 1_555
C13 C12 1_555 1_555
H11 C13 1_555 1_555
C14 C13 1_555 1_555
C15 C14 1_555 1_555
H12 C15 1_555 1_555
C16 C15 1_555 1_555
H13 C16 1_555 1_555
C17 C16 1_555 1_555
H14 C17 1_555 1_555
C18 C17 1_555 1_555
H15 C18 1_555 1_555
C19 C14 1_555 1_555
H16 C19 1_555 1_555
C20 O5 1_555 1_555
C21 H17 1_555 1_555
H18 C21 1_555 1_555
H19 C21 1_555 1_555
C22 C21 1_555 1_555
C23 N2 1_555 1_555
C24 N1 1_555 1_555
C25 C24 1_555 1_555
H20 C25 1_555 1_555
C26 C25 1_555 1_555
H21 C26 1_555 1_555
C27 C26 1_555 1_555
H22 C27 1_555 1_555
C28 C23 1_555 1_555
H23 C28 1_555 1_555
C29 N2 1_555 1_555
H24 C29 1_555 1_555
H25 C29 1_555 1_555
C30 C29 1_555 1_555
H26 C30 1_555 1_555
H27 C30 1_555 1_555
C31 C30 1_555 1_555
H28 C31 1_555 1_555
H29 C31 1_555 1_555
C32 C31 1_555 1_555
H30 C32 1_555 1_555
H31 C32 1_555 1_555
C33 C32 1_555 1_555
H32 C33 1_555 1_555
H33 C33 1_555 1_555
C34 H34 1_555 1_555
H35 C34 1_555 1_555
H36 C34 1_555 1_555
C35 N4 1_555 1_555
C36 N3 1_555 1_555
C37 C36 1_555 1_555
H37 C37 1_555 1_555
C38 C37 1_555 1_555
H38 C38 1_555 1_555
C39 C38 1_555 1_555
H39 C39 1_555 1_555
C40 C39 1_555 1_555
H40 C40 1_555 1_555
C41 N4 1_555 1_555
O9 H41 1_555 1_555
H42 O9 1_555 1_555
Zn1_2 N3 1_555 1_555
Zn1A O7 1_555 1_555
Zn1A_2 O3 1_555 1_555
Zn2A O8 1_555 1_555
Zn2A_2 O4 1_555 1_555
N3_2 Zn1 1_555 1_555
O3A Zn1 1_555 1_555
O4A Zn2 1_555 1_555
O7A Zn1 1_555 1_555
O8A Zn2 1_555 1_555
O6 C20 1_555 1_555
C3 C4 1_555 1_555
C9 C10 1_555 1_555
C13 C20 1_555 1_555
C18 C19 1_555 1_555
C23 C24 1_555 1_555
C27 C28 1_555 1_555
C34 C35 1_555 1_555
C36 C41 1_555 1_555
C40 C41 1_555 1_555

#END
