
#######################################################################
#
#                 Cambridge Crystallographic Data Centre
#                                CCDC 
#
#######################################################################
#
# If this CIF has been generated from an entry in the Cambridge 
# Structural Database, then it will include bibliographic, chemical, 
# crystal, experimental, refinement or atomic coordinate data resulting 
# from the CCDC's data processing and validation procedures.
#
#######################################################################

data_LIYBIG
_symmetry_cell_setting           orthorhombic
_symmetry_space_group_name_H-M   'P 21 21 21'
_symmetry_Int_Tables_number      19
_space_group_name_Hall           'P 2ac 2ab'
loop_
_symmetry_equiv_pos_site_id
_symmetry_equiv_pos_as_xyz
1 x,y,z
2 1/2-x,-y,1/2+z
3 -x,1/2+y,1/2-z
4 1/2+x,1/2-y,-z
_cell_length_a                   8.2075(16)
_cell_length_b                   10.465(2)
_cell_length_c                   31.895(6)
_cell_angle_alpha                90
_cell_angle_beta                 90
_cell_angle_gamma                90
_cell_volume                     2739.51
loop_
_atom_site_label
_atom_site_type_symbol
_atom_site_fract_x
_atom_site_fract_y
_atom_site_fract_z
Sn1 Sn 0.344404(16) 0.967607(11) 0.113196(4)
O1 O 0.09119(17) 0.89212(13) 0.13653(4)
N1 N 0.0760(2) 0.65115(15) 0.14234(5)
H1 H 0.1747 0.6532 0.1343
Cl1 Cl 0.61196(6) 1.05690(5) 0.09302(2)
O2 O -0.13703(18) 0.53512(14) 0.16589(4)
N2 N -0.1516(2) 0.81029(15) 0.17880(5)
H2 H -0.2150 0.7469 0.1822
Cl2 Cl 0.42556(6) 0.73504(5) 0.101922(19)
N3 N -0.1514(2) 0.76337(15) 0.09993(5)
H3 H -0.2429 0.8015 0.1006
N4 N 0.2292(2) 0.18012(16) 0.12530(5)
P1 P -0.03165(6) 0.78837(4) 0.139161(15)
C1 C 0.2323(3) 0.9876(2) 0.05410(6)
H4 H 0.2822 1.0592 0.0390
H5 H 0.1157 1.0043 0.0579
H6 H 0.2469 0.9088 0.0379
C2 C 0.3985(3) 0.9633(3) 0.17784(7)
H7 H 0.3186 1.0150 0.1931
H8 H 0.5080 0.9980 0.1825
H9 H 0.3942 0.8750 0.1879
C3 C 0.0000(2) 0.53798(19) 0.15112(6)
C4 C 0.0871(3) 0.41594(18) 0.14141(6)
C5 C 0.2480(2) 0.40776(18) 0.12846(6)
H10 H 0.3115 0.4827 0.1246
C6 C 0.3144(2) 0.28781(18) 0.12132(6)
H11 H 0.4256 0.2822 0.1132
C7 C 0.0720(3) 0.18853(19) 0.13658(7)
H12 H 0.0096 0.1124 0.1389
C8 C -0.0012(3) 0.30377(18) 0.14491(6)
H13 H -0.1125 0.3065 0.1531
C9 C -0.1020(2) 0.87953(19) 0.21696(6)
H14 H -0.0620 0.9659 0.2083
C10 C 0.0352(3) 0.8129(3) 0.24069(7)
H15 H 0.1296 0.8028 0.2222
H16 H -0.0019 0.7286 0.2501
H17 H 0.0661 0.8644 0.2651
C11 C -0.2487(2) 0.89815(19) 0.24504(6)
C12 C -0.3411(3) 0.79479(19) 0.25827(6)
H18 H -0.3110 0.7108 0.2501
C13 C -0.4771(3) 0.8129(2) 0.28341(7)
H19 H -0.5411 0.7417 0.2918
C14 C -0.5196(3) 0.9348(2) 0.29629(7)
H20 H -0.6129 0.9474 0.3134
C15 C -0.4265(3) 1.0373(2) 0.28423(6)
H21 H -0.4542 1.1207 0.2936
C16 C -0.2917(3) 1.0197(2) 0.25841(6)
H22 H -0.2288 1.0913 0.2499
C17 C -0.0867(2) 0.71961(19) 0.05916(6)
H23 H 0.0314 0.7429 0.0579
C18 C -0.1741(3) 0.79176(19) 0.02438(6)
H24 H -0.1605 0.8839 0.0287
H25 H -0.2903 0.7703 0.0249
H26 H -0.1277 0.7675 -0.0028
C19 C -0.1002(2) 0.57547(19) 0.05357(6)
C20 C -0.2437(3) 0.5102(2) 0.06284(7)
H27 H -0.3346 0.5552 0.0738
C21 C -0.2540(3) 0.3800(2) 0.05605(7)
H28 H -0.3522 0.3360 0.0625
C22 C -0.1223(3) 0.3131(2) 0.03997(7)
H29 H -0.1301 0.2235 0.0355
C23 C 0.0196(3) 0.3765(2) 0.03052(7)
H30 H 0.1098 0.3311 0.0193
C24 C 0.0308(3) 0.50754(19) 0.03749(6)
H31 H 0.1294 0.5510 0.0312
Sn1_2 Sn 0.344404(16) -0.032393(11) 0.113196(4)
N4_2 N 0.2292(2) 1.18012(16) 0.12530(5)
loop_
_geom_bond_atom_site_label_1
_geom_bond_atom_site_label_2
_geom_bond_site_symmetry_1
_geom_bond_site_symmetry_2
Sn1 O1 1_555 1_555
O1 P1 1_555 1_555
N1 H1 1_555 1_555
Cl1 Sn1 1_555 1_555
O2 C3 1_555 1_555
N2 H2 1_555 1_555
Cl2 Sn1 1_555 1_555
N3 H3 1_555 1_555
N4 C6 1_555 1_555
P1 N1 1_555 1_555
C1 Sn1 1_555 1_555
H4 C1 1_555 1_555
H5 C1 1_555 1_555
H6 C1 1_555 1_555
C2 Sn1 1_555 1_555
H7 C2 1_555 1_555
H8 C2 1_555 1_555
H9 C2 1_555 1_555
C3 N1 1_555 1_555
C4 C3 1_555 1_555
C5 C4 1_555 1_555
H10 C5 1_555 1_555
C6 C5 1_555 1_555
H11 C6 1_555 1_555
C7 N4 1_555 1_555
H12 C7 1_555 1_555
C8 C4 1_555 1_555
H13 C8 1_555 1_555
C9 N2 1_555 1_555
H14 C9 1_555 1_555
C10 C9 1_555 1_555
H15 C10 1_555 1_555
H16 C10 1_555 1_555
H17 C10 1_555 1_555
C11 C9 1_555 1_555
C12 C11 1_555 1_555
H18 C12 1_555 1_555
C13 C12 1_555 1_555
H19 C13 1_555 1_555
C14 C13 1_555 1_555
H20 C14 1_555 1_555
C15 C14 1_555 1_555
H21 C15 1_555 1_555
C16 C11 1_555 1_555
H22 C16 1_555 1_555
C17 N3 1_555 1_555
H23 C17 1_555 1_555
C18 C17 1_555 1_555
H24 C18 1_555 1_555
H25 C18 1_555 1_555
H26 C18 1_555 1_555
C19 C17 1_555 1_555
C20 C19 1_555 1_555
H27 C20 1_555 1_555
C21 C20 1_555 1_555
H28 C21 1_555 1_555
C22 C21 1_555 1_555
H29 C22 1_555 1_555
C23 C22 1_555 1_555
H30 C23 1_555 1_555
C24 C19 1_555 1_555
H31 C24 1_555 1_555
Sn1_2 N4 1_555 1_555
N4_2 Sn1 1_555 1_555
N2 P1 1_555 1_555
N3 P1 1_555 1_555
C7 C8 1_555 1_555
C15 C16 1_555 1_555
C23 C24 1_555 1_555

#END
