
#######################################################################
#
#                 Cambridge Crystallographic Data Centre
#                                CCDC 
#
#######################################################################
#
# If this CIF has been generated from an entry in the Cambridge 
# Structural Database, then it will include bibliographic, chemical, 
# crystal, experimental, refinement or atomic coordinate data resulting 
# from the CCDC's data processing and validation procedures.
#
#######################################################################

data_LIYGUX
_symmetry_cell_setting           triclinic
_symmetry_space_group_name_H-M   'P -1'
_symmetry_Int_Tables_number      2
_space_group_name_Hall           '-P 1'
loop_
_symmetry_equiv_pos_site_id
_symmetry_equiv_pos_as_xyz
1 x,y,z
2 -x,-y,-z
_cell_length_a                   7.9489(14)
_cell_length_b                   11.809(2)
_cell_length_c                   16.288(3)
_cell_angle_alpha                73.855(3)
_cell_angle_beta                 81.126(3)
_cell_angle_gamma                78.589(3)
_cell_volume                     1431.58
loop_
_atom_site_label
_atom_site_type_symbol
_atom_site_fract_x
_atom_site_fract_y
_atom_site_fract_z
Co1 Co 0.75140(6) 0.45977(4) 0.25183(3)
O1 O 0.8572(3) 0.2880(2) 0.26053(17)
N1 N 0.7639(4) 0.5005(3) 0.1153(2)
C1 C 0.7899(5) 0.6077(3) 0.0647(3)
H1 H 0.8043 0.6659 0.0903
O2 O 0.9770(3) 0.5310(2) 0.24857(17)
H2 H 1.0442 0.5695 0.2098
H3 H 1.0215 0.5130 0.2957
O3 O 1.1434(3) 0.2695(2) 0.23882(18)
N2 N 0.7346(4) 0.4283(3) 0.3883(2)
C2 C 0.7962(5) 0.6355(4) -0.0230(3)
H4 H 0.8154 0.7108 -0.0560
O4 O 0.5117(3) 0.3959(3) 0.25915(18)
H5 H 0.5086 0.3734 0.2142
H6 H 0.4142 0.3922 0.2886
O5 O 0.7018(3) -0.2237(2) 0.31592(18)
N3 N 0.6476(4) 0.2568(3) -0.0067(2)
H7 H 0.6019 0.2595 0.0443
C3 C 0.7737(5) 0.5505(4) -0.0617(3)
H8 H 0.7774 0.5674 -0.1212
O6 O 0.6008(3) 0.6285(2) 0.24399(18)
H9 H 0.6805 0.6703 0.2222
H10 H 0.5061 0.6765 0.2454
O7 O 0.5772(3) -0.0466(2) 0.24300(19)
C4 C 0.7452(5) 0.4388(3) -0.0104(3)
N4 N 0.7953(4) 0.7030(3) 0.4964(2)
H11 H 0.7819 0.7160 0.4430
O8 O 1.3279(3) -0.1732(2) 0.26116(18)
H12 H 1.4074 -0.1359 0.2555
C5 C 0.7430(5) 0.4185(3) 0.0770(2)
H13 H 0.7262 0.3435 0.1115
O9 O 0.7905(5) 0.3511(3) -0.1280(2)
C6 C 0.7283(6) 0.3453(4) -0.0533(3)
O10 O 0.7848(4) 0.5737(3) 0.62729(19)
C7 C 0.6325(6) 0.1554(4) -0.0377(3)
H14 H 0.6589 0.1748 -0.0996
H15 H 0.5143 0.1407 -0.0244
C8 C 0.7513(6) 0.0437(4) 0.0017(4)
H16 H 0.7208 0.0224 0.0634
H17 H 0.7337 -0.0211 -0.0202
C9 C 0.9390(7) 0.0558(5) -0.0164(4)
H18 H 0.9667 0.0832 -0.0780
H19 H 0.9574 0.1169 0.0091
C10 C 0.5771(6) 0.9590(4) 0.4843(3)
H20 H 0.5367 0.9089 0.4559
H21 H 0.6520 1.0074 0.4422
C11 C 0.6803(6) 0.8802(4) 0.5559(3)
H22 H 0.6053 0.8313 0.5974
H23 H 0.7181 0.9307 0.5849
C12 C 0.8373(6) 0.7988(4) 0.5264(3)
H24 H 0.9059 0.8466 0.4802
H25 H 0.9075 0.7635 0.5737
C13 C 0.7768(5) 0.5959(4) 0.5492(3)
C14 C 0.7476(4) 0.5011(3) 0.5105(2)
C15 C 0.7633(5) 0.5118(3) 0.4234(2)
H26 H 0.7958 0.5815 0.3866
C16 C 0.6923(5) 0.3282(4) 0.4425(3)
H27 H 0.6727 0.2686 0.4198
C17 C 0.6762(6) 0.3086(4) 0.5302(3)
H28 H 0.6456 0.2376 0.5657
C18 C 0.7056(5) 0.3952(4) 0.5643(3)
H29 H 0.6975 0.3829 0.6236
C19 C 1.0076(5) 0.2287(3) 0.2519(2)
C20 C 1.0115(4) 0.0985(3) 0.2585(2)
C21 C 0.8612(4) 0.0535(3) 0.2643(2)
H30 H 0.7556 0.1044 0.2635
C22 C 0.8662(4) -0.0668(3) 0.2713(2)
C23 C 0.7030(4) -0.1152(3) 0.2772(3)
C24 C 1.0240(4) -0.1429(3) 0.2711(2)
H31 H 1.0278 -0.2237 0.2762
C25 C 1.1752(4) -0.0980(3) 0.2634(2)
C26 C 1.1675(4) 0.0224(3) 0.2583(2)
H32 H 1.2691 0.0521 0.2547
N1A N 1.2361(4) -0.5005(3) -0.1153(2)
C1A C 1.2101(5) -0.6077(3) -0.0647(3)
H1A H 1.1957 -0.6659 -0.0903
C2A C 1.2038(5) -0.6355(4) 0.0230(3)
H4A H 1.1846 -0.7108 0.0560
N3A N 1.3524(4) -0.2568(3) 0.0067(2)
H7A H 1.3981 -0.2595 -0.0443
C3A C 1.2263(5) -0.5505(4) 0.0617(3)
H8A H 1.2226 -0.5674 0.1212
C4A C 1.2548(5) -0.4388(3) 0.0104(3)
C5A C 1.2570(5) -0.4185(3) -0.0770(2)
H13A H 1.2738 -0.3435 -0.1115
O9A O 1.2095(5) -0.3511(3) 0.1280(2)
C6A C 1.2717(6) -0.3453(4) 0.0533(3)
C7A C 1.3675(6) -0.1554(4) 0.0377(3)
H14A H 1.3411 -0.1748 0.0996
H15A H 1.4857 -0.1407 0.0244
C8A C 1.2487(6) -0.0437(4) -0.0017(4)
H16A H 1.2792 -0.0224 -0.0634
H17A H 1.2663 0.0211 0.0202
C9A C 1.0610(7) -0.0558(5) 0.0164(4)
H18A H 1.0333 -0.0832 0.0780
H19A H 1.0426 -0.1169 -0.0091
N2A N 0.2654(4) 1.5717(3) 0.6117(2)
N4A N 0.2047(4) 1.2970(3) 0.5036(2)
H11A H 0.2181 1.2840 0.5570
O10A O 0.2152(4) 1.4263(3) 0.37271(19)
C10A C 0.4229(6) 1.0410(4) 0.5157(3)
H20A H 0.4633 1.0911 0.5441
H21A H 0.3480 0.9926 0.5578
C11A C 0.3197(6) 1.1198(4) 0.4441(3)
H22A H 0.3947 1.1687 0.4026
H23A H 0.2819 1.0693 0.4151
C12A C 0.1627(6) 1.2012(4) 0.4736(3)
H24A H 0.0941 1.1534 0.5198
H25A H 0.0925 1.2365 0.4263
C13A C 0.2232(5) 1.4041(4) 0.4508(3)
C14A C 0.2524(4) 1.4989(3) 0.4895(2)
C15A C 0.2367(5) 1.4882(3) 0.5766(2)
H26A H 0.2042 1.4185 0.6134
C16A C 0.3077(5) 1.6718(4) 0.5575(3)
H27A H 0.3273 1.7314 0.5802
C17A C 0.3238(6) 1.6914(4) 0.4698(3)
H28A H 0.3544 1.7624 0.4343
C18A C 0.2944(5) 1.6048(4) 0.4357(3)
H29A H 0.3025 1.6171 0.3764
Co1A Co 0.24860(6) 1.54023(4) 0.74817(3)
O1A O 0.1428(3) 1.7120(2) 0.73947(17)
O2A O 0.0230(3) 1.4690(2) 0.75143(17)
H2A H -0.0442 1.4305 0.7902
H3A H -0.0215 1.4870 0.7043
O3A O -0.1434(3) 1.7305(2) 0.76118(18)
O4A O 0.4883(3) 1.6041(3) 0.74085(18)
H5A H 0.4914 1.6266 0.7858
H6A H 0.5858 1.6078 0.7114
O5A O 0.2982(3) 2.2237(2) 0.68408(18)
O6A O 0.3992(3) 1.3715(2) 0.75601(18)
H9A H 0.3195 1.3297 0.7778
H10A H 0.4939 1.3235 0.7546
O7A O 0.4228(3) 2.0466(2) 0.75700(19)
O8A O -0.3279(3) 2.1732(2) 0.73884(18)
H12A H -0.4074 2.1359 0.7445
C19A C -0.0076(5) 1.7713(3) 0.7481(2)
C20A C -0.0115(4) 1.9015(3) 0.7415(2)
C21A C 0.1388(4) 1.9465(3) 0.7357(2)
H30A H 0.2444 1.8956 0.7365
C22A C 0.1338(4) 2.0668(3) 0.7287(2)
C23A C 0.2970(4) 2.1152(3) 0.7228(3)
C24A C -0.0240(4) 2.1429(3) 0.7289(2)
H31A H -0.0278 2.2237 0.7238
C25A C -0.1752(4) 2.0980(3) 0.7366(2)
C26A C -0.1675(4) 1.9776(3) 0.7417(2)
H32A H -0.2691 1.9479 0.7453
Co1A_2 Co 1.24860(6) -0.45977(4) -0.25183(3)
N1A_2 N 0.2361(4) 1.4995(3) 0.8847(2)
O11 O 1.4845(3) 0.2094(2) 0.18109(18)
H33 H 1.3827 0.2238 0.1664
H34 H 1.5101 0.1341 0.2009
loop_
_geom_bond_atom_site_label_1
_geom_bond_atom_site_label_2
_geom_bond_site_symmetry_1
_geom_bond_site_symmetry_2
Co1 O1 1_555 1_555
O1 C19 1_555 1_555
N1 Co1 1_555 1_555
C1 N1 1_555 1_555
H1 C1 1_555 1_555
O2 Co1 1_555 1_555
H2 O2 1_555 1_555
H3 O2 1_555 1_555
O3 C19 1_555 1_555
N2 Co1 1_555 1_555
C2 C1 1_555 1_555
H4 C2 1_555 1_555
O4 Co1 1_555 1_555
H5 O4 1_555 1_555
H6 O4 1_555 1_555
O5 C23 1_555 1_555
N3 H7 1_555 1_555
C3 C2 1_555 1_555
H8 C3 1_555 1_555
O6 Co1 1_555 1_555
H9 O6 1_555 1_555
H10 O6 1_555 1_555
O7 C23 1_555 1_555
C4 C3 1_555 1_555
N4 H11 1_555 1_555
O8 H12 1_555 1_555
C5 N1 1_555 1_555
H13 C5 1_555 1_555
O9 C6 1_555 1_555
C6 N3 1_555 1_555
O10 C13 1_555 1_555
C7 N3 1_555 1_555
H14 C7 1_555 1_555
H15 C7 1_555 1_555
C8 C7 1_555 1_555
H16 C8 1_555 1_555
H17 C8 1_555 1_555
C9 C8 1_555 1_555
H18 C9 1_555 1_555
H19 C9 1_555 1_555
C10 H20 1_555 1_555
H21 C10 1_555 1_555
C11 C10 1_555 1_555
H22 C11 1_555 1_555
H23 C11 1_555 1_555
C12 N4 1_555 1_555
H24 C12 1_555 1_555
H25 C12 1_555 1_555
C13 N4 1_555 1_555
C14 C13 1_555 1_555
C15 N2 1_555 1_555
H26 C15 1_555 1_555
C16 N2 1_555 1_555
H27 C16 1_555 1_555
C17 C16 1_555 1_555
H28 C17 1_555 1_555
C18 C14 1_555 1_555
H29 C18 1_555 1_555
C19 C20 1_555 1_555
C20 C21 1_555 1_555
C21 H30 1_555 1_555
C22 C21 1_555 1_555
C23 C22 1_555 1_555
C24 C22 1_555 1_555
H31 C24 1_555 1_555
C25 O8 1_555 1_555
C26 C20 1_555 1_555
H32 C26 1_555 1_555
O11 H33 1_555 1_555
H34 O11 1_555 1_555
N1A C1A 1_555 1_555
C1A H1A 1_555 1_555
C2A C1A 1_555 1_555
H4A C2A 1_555 1_555
N3A H7A 1_555 1_555
C3A C2A 1_555 1_555
H8A C3A 1_555 1_555
C4A C3A 1_555 1_555
C5A N1A 1_555 1_555
H13A C5A 1_555 1_555
O9A C6A 1_555 1_555
C6A N3A 1_555 1_555
C7A N3A 1_555 1_555
H14A C7A 1_555 1_555
H15A C7A 1_555 1_555
C8A C7A 1_555 1_555
H16A C8A 1_555 1_555
H17A C8A 1_555 1_555
C9A C9 1_555 1_555
H18A C9A 1_555 1_555
H19A C9A 1_555 1_555
N2A C15A 1_555 1_555
N4A H11A 1_555 1_555
O10A C13A 1_555 1_555
C10A C10 1_555 1_555
H20A C10A 1_555 1_555
H21A C10A 1_555 1_555
C11A C10A 1_555 1_555
H22A C11A 1_555 1_555
H23A C11A 1_555 1_555
C12A N4A 1_555 1_555
H24A C12A 1_555 1_555
H25A C12A 1_555 1_555
C13A N4A 1_555 1_555
C14A C13A 1_555 1_555
C15A C14A 1_555 1_555
H26A C15A 1_555 1_555
C16A N2A 1_555 1_555
H27A C16A 1_555 1_555
C17A C16A 1_555 1_555
H28A C17A 1_555 1_555
C18A C14A 1_555 1_555
H29A C18A 1_555 1_555
Co1A N2A 1_555 1_555
O1A Co1A 1_555 1_555
O2A Co1A 1_555 1_555
H2A O2A 1_555 1_555
H3A O2A 1_555 1_555
O3A C19A 1_555 1_555
O4A Co1A 1_555 1_555
H5A O4A 1_555 1_555
H6A O4A 1_555 1_555
O5A C23A 1_555 1_555
O6A Co1A 1_555 1_555
H9A O6A 1_555 1_555
H10A O6A 1_555 1_555
O7A C23A 1_555 1_555
O8A H12A 1_555 1_555
C19A O1A 1_555 1_555
C20A C19A 1_555 1_555
C21A C20A 1_555 1_555
H30A C21A 1_555 1_555
C22A C21A 1_555 1_555
C23A C22A 1_555 1_555
C24A C22A 1_555 1_555
H31A C24A 1_555 1_555
C25A O8A 1_555 1_555
C26A C20A 1_555 1_555
H32A C26A 1_555 1_555
Co1A_2 N1A 1_555 1_555
N1A_2 Co1A 1_555 1_555
C4 C5 1_555 1_555
C4 C6 1_555 1_555
C11 C12 1_555 1_555
C14 C15 1_555 1_555
C17 C18 1_555 1_555
C24 C25 1_555 1_555
C25 C26 1_555 1_555
C4A C5A 1_555 1_555
C4A C6A 1_555 1_555
C8A C9A 1_555 1_555
C11A C12A 1_555 1_555
C17A C18A 1_555 1_555
C24A C25A 1_555 1_555
C25A C26A 1_555 1_555

#END
