
#######################################################################
#
#                 Cambridge Crystallographic Data Centre
#                                CCDC 
#
#######################################################################
#
# If this CIF has been generated from an entry in the Cambridge 
# Structural Database, then it will include bibliographic, chemical, 
# crystal, experimental, refinement or atomic coordinate data resulting 
# from the CCDC's data processing and validation procedures.
#
#######################################################################

data_LIYHEI
_symmetry_cell_setting           triclinic
_symmetry_space_group_name_H-M   'P -1'
_symmetry_Int_Tables_number      2
_space_group_name_Hall           '-P 1'
loop_
_symmetry_equiv_pos_site_id
_symmetry_equiv_pos_as_xyz
1 x,y,z
2 -x,-y,-z
_cell_length_a                   9.5483(14)
_cell_length_b                   10.0547(14)
_cell_length_c                   14.570(2)
_cell_angle_alpha                89.140(2)
_cell_angle_beta                 88.044(3)
_cell_angle_gamma                75.873(2)
_cell_volume                     1355.67
loop_
_atom_site_label
_atom_site_type_symbol
_atom_site_fract_x
_atom_site_fract_y
_atom_site_fract_z
Co1 Co -0.13656(6) 0.38088(5) 1.03528(4)
O1 O -0.2446(3) 0.5769(2) 1.05740(19)
O2 O -0.3448(3) 1.3057(3) 1.0793(2)
O3 O -0.1396(3) 1.1718(3) 1.0300(2)
O4 O -0.0755(3) 0.6738(3) 1.0007(2)
O5 O -0.1072(5) 0.3215(4) 0.5810(2)
O6 O 0.6930(6) -0.3195(5) 0.3449(3)
N1 N -0.2098(4) 0.4095(3) 0.8965(2)
N2 N 0.9163(4) -0.6282(3) 0.1793(2)
N3 N -0.0114(5) 0.1527(4) 0.6790(3)
H1 H -0.0077 0.1254 0.7352
N4 N 0.7510(5) -0.4371(4) 0.4753(3)
H2 H 0.7947 -0.5133 0.5002
C1 C -0.3445(5) 0.4796(4) 0.8812(3)
H3 H -0.4000 0.5247 0.9303
C2 C -0.4055(5) 0.4889(5) 0.7967(3)
H4 H -0.4995 0.5403 0.7889
C3 C -0.3261(5) 0.4216(5) 0.7243(3)
H5 H -0.3660 0.4246 0.6667
C4 C -0.1858(5) 0.3492(4) 0.7377(3)
C5 C -0.1319(5) 0.3472(4) 0.8245(3)
H6 H -0.0366 0.3002 0.8333
C6 C -0.0969(6) 0.2735(5) 0.6589(3)
C7 C 0.0776(7) 0.0643(6) 0.6101(4)
H7 H 0.0241 0.0017 0.5874
H8 H 0.0973 0.1202 0.5588
C8 C 0.2125(7) -0.0139(6) 0.6449(4)
H9 H 0.1937 -0.0638 0.6996
H10 H 0.2705 0.0482 0.6620
C9 C 0.2979(7) -0.1165(7) 0.5729(4)
H11 H 0.2434 -0.1840 0.5614
H12 H 0.3044 -0.0671 0.5158
C10 C 0.4374(8) -0.1855(8) 0.5968(5)
H13 H 0.4328 -0.2255 0.6575
H14 H 0.4961 -0.1195 0.6001
C11 C 0.5133(8) -0.3018(8) 0.5284(5)
H15 H 0.4840 -0.3855 0.5437
H16 H 0.4843 -0.2751 0.4663
C12 C 0.6687(7) -0.3260(6) 0.5335(4)
H17 H 0.6952 -0.3469 0.5967
H18 H 0.6964 -0.2422 0.5163
C13 C 0.7595(7) -0.4228(5) 0.3845(3)
C14 C 0.8576(5) -0.5352(5) 0.3307(3)
C15 C 0.9720(6) -0.6343(5) 0.3652(3)
H19 H 0.9909 -0.6379 0.4275
C16 C 1.0567(6) -0.7269(6) 0.3054(4)
H20 H 1.1332 -0.7947 0.3271
C17 C 1.0278(5) -0.7189(5) 0.2133(3)
H21 H 1.0890 -0.7795 0.1733
C18 C 0.8348(5) -0.5389(4) 0.2378(3)
H22 H 0.7569 -0.4744 0.2144
C19 C -0.1954(4) 0.6801(4) 1.0399(3)
C20 C -0.2866(4) 0.8164(3) 1.0698(3)
C21 C -0.4116(4) 0.8264(4) 1.1240(3)
H23 H -0.4415 0.7471 1.1385
C22 C -0.4922(5) 0.9502(4) 1.1569(3)
C23 C -0.6223(6) 0.9583(5) 1.2205(5)
H24 H -0.5999 0.8872 1.2662
H25 H -0.7021 0.9468 1.1857
H26 H -0.6476 1.0461 1.2499
C24 C -0.4482(4) 1.0691(4) 1.1318(3)
H27 H -0.5038 1.1543 1.1506
C25 C -0.3236(4) 1.0615(4) 1.0798(3)
C26 C -0.2699(5) 1.1892(4) 1.0611(3)
C27 C -0.2424(4) 0.9356(4) 1.0485(3)
H28 H -0.1583 0.9308 1.0132
Co1_2 Co -0.13656(6) 1.38088(5) 1.03528(4)
Co1_3 Co 0.86344(6) -0.61912(5) 0.03528(4)
Co1A Co 0.13656(6) 0.61912(5) 0.96472(4)
O2_2 O -0.3448(3) 0.3057(3) 1.0793(2)
O3_2 O -0.1396(3) 0.1718(3) 1.0300(2)
O4A O 0.0755(3) 0.3262(3) 0.9993(2)
N2_2 N -0.0837(4) 0.3718(3) 1.1793(2)
O7 O 0.0442(4) 0.9672(3) 0.1410(2)
H29 H 0.0409 1.0481 0.1216
H30 H 0.0873 0.9117 0.0998
loop_
_geom_bond_atom_site_label_1
_geom_bond_atom_site_label_2
_geom_bond_site_symmetry_1
_geom_bond_site_symmetry_2
Co1 O1 1_555 1_555
O1 C19 1_555 1_555
O2 C26 1_555 1_555
O3 C26 1_555 1_555
O4 C19 1_555 1_555
O5 C6 1_555 1_555
O6 C13 1_555 1_555
N1 Co1 1_555 1_555
N2 C17 1_555 1_555
N3 H1 1_555 1_555
N4 H2 1_555 1_555
C1 N1 1_555 1_555
H3 C1 1_555 1_555
C2 C1 1_555 1_555
H4 C2 1_555 1_555
C3 C2 1_555 1_555
H5 C3 1_555 1_555
C4 C3 1_555 1_555
C5 N1 1_555 1_555
H6 C5 1_555 1_555
C6 N3 1_555 1_555
C7 N3 1_555 1_555
H7 C7 1_555 1_555
H8 C7 1_555 1_555
C8 C7 1_555 1_555
H9 C8 1_555 1_555
H10 C8 1_555 1_555
C9 C8 1_555 1_555
H11 C9 1_555 1_555
H12 C9 1_555 1_555
C10 C9 1_555 1_555
H13 C10 1_555 1_555
H14 C10 1_555 1_555
C11 C10 1_555 1_555
H15 C11 1_555 1_555
H16 C11 1_555 1_555
C12 N4 1_555 1_555
H17 C12 1_555 1_555
H18 C12 1_555 1_555
C13 N4 1_555 1_555
C14 C13 1_555 1_555
C15 C14 1_555 1_555
H19 C15 1_555 1_555
C16 C15 1_555 1_555
H20 C16 1_555 1_555
C17 C16 1_555 1_555
H21 C17 1_555 1_555
C18 N2 1_555 1_555
H22 C18 1_555 1_555
C19 C20 1_555 1_555
C20 C21 1_555 1_555
C21 H23 1_555 1_555
C22 C21 1_555 1_555
C23 C22 1_555 1_555
H24 C23 1_555 1_555
H25 C23 1_555 1_555
H26 C23 1_555 1_555
C24 C22 1_555 1_555
H27 C24 1_555 1_555
C25 C24 1_555 1_555
C26 C25 1_555 1_555
C27 C20 1_555 1_555
H28 C27 1_555 1_555
O7 H29 1_555 1_555
H30 O7 1_555 1_555
Co1_2 O2 1_555 1_555
Co1_3 N2 1_555 1_555
Co1A O4 1_555 1_555
O2_2 Co1 1_555 1_555
O3_2 Co1 1_555 1_555
O4A Co1 1_555 1_555
N2_2 Co1 1_555 1_555
O3 Co1_2 1_555 1_555
C4 C5 1_555 1_555
C4 C6 1_555 1_555
C11 C12 1_555 1_555
C14 C18 1_555 1_555
C25 C27 1_555 1_555

#END
