
#######################################################################
#
#                 Cambridge Crystallographic Data Centre
#                                CCDC 
#
#######################################################################
#
# If this CIF has been generated from an entry in the Cambridge 
# Structural Database, then it will include bibliographic, chemical, 
# crystal, experimental, refinement or atomic coordinate data resulting 
# from the CCDC's data processing and validation procedures.
#
#######################################################################

data_LIYHIM
_symmetry_cell_setting           triclinic
_symmetry_space_group_name_H-M   'P -1'
_symmetry_Int_Tables_number      2
_space_group_name_Hall           '-P 1'
loop_
_symmetry_equiv_pos_site_id
_symmetry_equiv_pos_as_xyz
1 x,y,z
2 -x,-y,-z
_cell_length_a                   8.5954(5)
_cell_length_b                   10.0057(6)
_cell_length_c                   11.1279(7)
_cell_angle_alpha                81.0020(10)
_cell_angle_beta                 78.5250(10)
_cell_angle_gamma                75.6750(10)
_cell_volume                     902.934
loop_
_atom_site_label
_atom_site_type_symbol
_atom_site_fract_x
_atom_site_fract_y
_atom_site_fract_z
Co1 Co 0.21010(4) 0.32952(3) 0.85554(3)
O1 O 0.3661(2) 0.14082(18) 0.84964(18)
N1 N 0.1951(3) 0.3595(2) 0.6610(2)
C1 C 0.2794(3) 0.4383(3) 0.5775(3)
H1 H 0.3441 0.4852 0.6049
O2 O -0.0439(2) 0.3707(2) 0.89687(17)
H2 H -0.0909 0.3776 0.9711
H3 H -0.1041 0.3282 0.8726
O3 O 0.1415(3) 0.0729(2) 0.8528(2)
C2 C 0.2748(4) 0.4533(3) 0.4527(3)
H4 H 0.3361 0.5082 0.3975
N2 N -0.1380(3) 0.1911(3) 0.5261(2)
H5 H -0.1525 0.2028 0.6028
O4 O 0.1864(2) -0.45075(19) 0.87723(17)
N3 N 0.7915(2) -0.2924(2) 0.93928(19)
H6 H 0.8468 -0.3764 0.9492
H7 H 0.8305 -0.2250 0.9508
C3 C 0.1778(4) 0.3855(3) 0.4114(3)
H8 H 0.1728 0.3938 0.3278
O5 O 0.4285(2) -0.57420(18) 0.81475(18)
C4 C 0.0880(3) 0.3049(3) 0.4958(2)
O6 O 0.0174(3) 0.2085(3) 0.3397(2)
C5 C 0.1014(3) 0.2939(3) 0.6191(2)
H9 H 0.0425 0.2383 0.6758
C6 C -0.0148(4) 0.2299(3) 0.4486(3)
C7 C -0.2498(5) 0.1282(5) 0.4814(4)
H10 H -0.2916 0.1892 0.4127
H11 H -0.1897 0.0410 0.4511
C8 C -0.3852(5) 0.1026(5) 0.5751(4)
H12 H -0.4312 0.1853 0.6168
H13 H -0.3444 0.0282 0.6357
C9 C -0.5214(5) 0.0636(5) 0.5264(5)
H14 H -0.6113 0.0593 0.5941
H15 H -0.5603 0.1377 0.4648
C10 C 0.2894(3) 0.0469(3) 0.8562(2)
C11 C 0.3855(3) -0.1014(2) 0.8682(2)
C12 C 0.5436(3) -0.1294(2) 0.8920(2)
H16 H 0.5889 -0.0566 0.9002
C13 C 0.6352(3) -0.2649(3) 0.9038(2)
C14 C 0.5700(3) -0.3722(2) 0.8847(2)
H17 H 0.6328 -0.4624 0.8868
C15 C 0.4109(3) -0.3451(2) 0.8625(2)
C16 C 0.3391(3) -0.4626(2) 0.8499(2)
C17 C 0.3172(3) -0.2099(3) 0.8562(2)
H18 H 0.2097 -0.1923 0.8441
N1A N -1.1951(3) -0.3595(2) 0.3390(2)
C1A C -1.2794(3) -0.4383(3) 0.4225(3)
H1A H -1.3441 -0.4852 0.3951
C2A C -1.2748(4) -0.4533(3) 0.5473(3)
H4A H -1.3361 -0.5082 0.6025
N2A N -0.8620(3) -0.1911(3) 0.4739(2)
H5A H -0.8475 -0.2028 0.3972
C3A C -1.1778(4) -0.3855(3) 0.5886(3)
H8A H -1.1728 -0.3938 0.6722
C4A C -1.0880(3) -0.3049(3) 0.5042(2)
O6A O -1.0174(3) -0.2085(3) 0.6603(2)
C5A C -1.1014(3) -0.2939(3) 0.3809(2)
H9A H -1.0425 -0.2383 0.3242
C6A C -0.9852(4) -0.2299(3) 0.5514(3)
C7A C -0.7502(5) -0.1282(5) 0.5186(4)
H10A H -0.7084 -0.1892 0.5873
H11A H -0.8103 -0.0410 0.5489
C8A C -0.6148(5) -0.1026(5) 0.4249(4)
H12A H -0.5688 -0.1853 0.3832
H13A H -0.6556 -0.0282 0.3643
C9A C -0.4786(5) -0.0636(5) 0.4736(5)
H14A H -0.3887 -0.0593 0.4059
H15A H -0.4397 -0.1377 0.5352
Co1A Co -1.21010(4) -0.32952(3) 0.14446(3)
O1A O -1.3661(2) -0.14082(18) 0.15036(18)
O2A O -0.9561(2) -0.3707(2) 0.10313(17)
H2A H -0.9091 -0.3776 0.0289
H3A H -0.8959 -0.3282 0.1274
O3A O -1.1415(3) -0.0729(2) 0.1472(2)
O4A O -1.1864(2) 0.45075(19) 0.12277(17)
N3A N -1.7915(2) 0.2924(2) 0.06072(19)
H6A H -1.8468 0.3764 0.0508
H7A H -1.8305 0.2250 0.0492
O5A O -1.4285(2) 0.57420(18) 0.18525(18)
C10A C -1.2894(3) -0.0469(3) 0.1438(2)
C11A C -1.3855(3) 0.1014(2) 0.1318(2)
C12A C -1.5436(3) 0.1294(2) 0.1080(2)
H16A H -1.5889 0.0566 0.0998
C13A C -1.6352(3) 0.2649(3) 0.0962(2)
C14A C -1.5700(3) 0.3722(2) 0.1153(2)
H17A H -1.6328 0.4624 0.1132
C15A C -1.4109(3) 0.3451(2) 0.1375(2)
C16A C -1.3391(3) 0.4626(2) 0.1501(2)
C17A C -1.3172(3) 0.2099(3) 0.1438(2)
H18A H -1.2097 0.1923 0.1559
Co1_2 Co -1.78990(4) 0.32952(3) -0.14446(3)
Co1_3 Co 0.21010(4) -0.67048(3) 0.85554(3)
Co1A_2 Co -1.21010(4) 0.67048(3) 0.14446(3)
Co1A_3 Co 0.78990(4) -0.32952(3) 1.14446(3)
O4_2 O 0.1864(2) 0.54925(19) 0.87723(17)
O4A_2 O -1.1864(2) -0.54925(19) 0.12277(17)
N3_2 N -1.2085(2) -0.2924(2) -0.06072(19)
N3A_2 N 0.2085(2) 0.2924(2) 1.06072(19)
O5_2 O 0.4285(2) 0.42580(18) 0.81475(18)
O5A_2 O -1.4285(2) -0.42580(18) 0.18525(18)
O7 O 0.7497(2) -0.7397(2) 0.7968(2)
H19 H 0.7658 -0.8273 0.8141
H20 H 0.6489 -0.7016 0.8118
O8 O -0.1168(3) -0.0210(2) 0.8340(2)
H21 H -0.0277 -0.0065 0.8453
H22 H -0.0835 -0.0616 0.7689
loop_
_geom_bond_atom_site_label_1
_geom_bond_atom_site_label_2
_geom_bond_site_symmetry_1
_geom_bond_site_symmetry_2
Co1 O1 1_555 1_555
O1 C10 1_555 1_555
N1 Co1 1_555 1_555
C1 N1 1_555 1_555
H1 C1 1_555 1_555
O2 Co1 1_555 1_555
H2 O2 1_555 1_555
H3 O2 1_555 1_555
O3 C10 1_555 1_555
C2 C1 1_555 1_555
H4 C2 1_555 1_555
N2 H5 1_555 1_555
O4 C16 1_555 1_555
N3 H6 1_555 1_555
H7 N3 1_555 1_555
C3 C2 1_555 1_555
H8 C3 1_555 1_555
O5 C16 1_555 1_555
C4 C3 1_555 1_555
O6 C6 1_555 1_555
C5 N1 1_555 1_555
H9 C5 1_555 1_555
C6 N2 1_555 1_555
C7 N2 1_555 1_555
H10 C7 1_555 1_555
H11 C7 1_555 1_555
C8 C7 1_555 1_555
H12 C8 1_555 1_555
H13 C8 1_555 1_555
C9 C8 1_555 1_555
H14 C9 1_555 1_555
H15 C9 1_555 1_555
C10 C11 1_555 1_555
C11 C12 1_555 1_555
C12 H16 1_555 1_555
C13 N3 1_555 1_555
C14 C13 1_555 1_555
H17 C14 1_555 1_555
C15 C14 1_555 1_555
C16 C15 1_555 1_555
C17 C11 1_555 1_555
H18 C17 1_555 1_555
O7 H19 1_555 1_555
H20 O7 1_555 1_555
O8 H21 1_555 1_555
H22 O8 1_555 1_555
N1A C1A 1_555 1_555
C1A H1A 1_555 1_555
C2A C1A 1_555 1_555
H4A C2A 1_555 1_555
N2A H5A 1_555 1_555
C3A C2A 1_555 1_555
H8A C3A 1_555 1_555
C4A C3A 1_555 1_555
O6A C6A 1_555 1_555
C5A N1A 1_555 1_555
H9A C5A 1_555 1_555
C6A N2A 1_555 1_555
C7A N2A 1_555 1_555
H10A C7A 1_555 1_555
H11A C7A 1_555 1_555
C8A C7A 1_555 1_555
H12A C8A 1_555 1_555
H13A C8A 1_555 1_555
C9A C9 1_555 1_555
H14A C9A 1_555 1_555
H15A C9A 1_555 1_555
Co1A N1A 1_555 1_555
O1A Co1A 1_555 1_555
O2A Co1A 1_555 1_555
H2A O2A 1_555 1_555
H3A O2A 1_555 1_555
O3A C10A 1_555 1_555
O4A C16A 1_555 1_555
N3A H6A 1_555 1_555
H7A N3A 1_555 1_555
O5A C16A 1_555 1_555
C10A O1A 1_555 1_555
C11A C10A 1_555 1_555
C12A C11A 1_555 1_555
H16A C12A 1_555 1_555
C13A N3A 1_555 1_555
C14A C13A 1_555 1_555
H17A C14A 1_555 1_555
C15A C14A 1_555 1_555
C16A C15A 1_555 1_555
C17A C11A 1_555 1_555
H18A C17A 1_555 1_555
Co1_2 N3A 1_555 1_555
Co1_3 O4 1_555 1_555
Co1A_2 O4A 1_555 1_555
Co1A_3 N3 1_555 1_555
O4_2 Co1 1_555 1_555
O4A_2 Co1A 1_555 1_555
N3_2 Co1A 1_555 1_555
N3A_2 Co1 1_555 1_555
O5_2 Co1 1_555 1_555
O5A_2 Co1A 1_555 1_555
O5 Co1_3 1_555 1_555
C4 C5 1_555 1_555
C4 C6 1_555 1_555
C12 C13 1_555 1_555
C15 C17 1_555 1_555
C4A C5A 1_555 1_555
C4A C6A 1_555 1_555
C8A C9A 1_555 1_555
O5A Co1A_2 1_555 1_555
C12A C13A 1_555 1_555
C15A C17A 1_555 1_555

#END
