
#######################################################################
#
#                 Cambridge Crystallographic Data Centre
#                                CCDC 
#
#######################################################################
#
# If this CIF has been generated from an entry in the Cambridge 
# Structural Database, then it will include bibliographic, chemical, 
# crystal, experimental, refinement or atomic coordinate data resulting 
# from the CCDC's data processing and validation procedures.
#
#######################################################################

data_LIYPUG
_symmetry_cell_setting           triclinic
_symmetry_space_group_name_H-M   'P -1'
_symmetry_Int_Tables_number      2
_space_group_name_Hall           '-P 1'
loop_
_symmetry_equiv_pos_site_id
_symmetry_equiv_pos_as_xyz
1 x,y,z
2 -x,-y,-z
_cell_length_a                   14.6784(4)
_cell_length_b                   15.7494(5)
_cell_length_c                   17.5002(5)
_cell_angle_alpha                97.9850(10)
_cell_angle_beta                 102.1390(10)
_cell_angle_gamma                103.5720(10)
_cell_volume                     3768.53
loop_
_atom_site_label
_atom_site_type_symbol
_atom_site_fract_x
_atom_site_fract_y
_atom_site_fract_z
Cu1 Cu 0.64762(4) 0.19762(4) 0.16101(4)
Cu2 Cu 0.92252(5) 0.25353(4) 0.04687(4)
Cu3 Cu 0.62020(4) 0.30589(4) 0.69486(4)
Cu4 Cu 0.88247(5) 0.26217(4) 0.58033(4)
Cu5 Cu 0.36163(5) 0.26106(4) 0.83218(4)
Cu6 Cu 0.39089(5) 0.21283(4) 0.29059(4)
Cl1 Cl 0.48979(10) 0.12818(8) -0.03371(8)
Cl2 Cl 0.28939(10) 0.28273(9) 0.10571(9)
Cl3 Cl 0.77261(11) 0.32391(9) -0.10288(8)
Cl4 Cl 1.04264(11) 0.22194(10) 0.23818(9)
Cl5 Cl 1.01499(12) 0.29738(12) 0.77585(11)
Cl6 Cl 0.73957(10) 0.23116(9) 0.38132(8)
O1 O 0.7671(3) 0.1620(2) 0.5773(2)
O2 O 0.3948(3) 0.1610(2) 0.7698(2)
O3 O 0.2714(3) 0.1969(3) 0.8846(3)
O4 O 0.2494(4) 0.2594(4) 0.7246(3)
O5 O 0.5136(4) 0.3194(3) 0.5756(3)
O6 O 0.6626(3) 0.4347(2) 0.7278(2)
O7 O 0.9649(3) 0.1904(3) 0.5500(3)
O8 O 0.4881(3) 0.3227(2) 0.2793(2)
O9 O 0.8843(3) 0.3510(2) 0.1092(2)
O10 O 1.0451(3) 0.3279(3) 0.0408(3)
O11 O 0.6473(3) 0.0760(2) 0.1779(2)
O12 O 0.4929(3) 0.2234(3) 0.4118(3)
O13 O 0.3088(3) 0.2704(3) 0.3409(3)
O14 O 0.9358(4) 0.2389(3) 0.7169(3)
O15 O 0.9864(4) 0.3810(4) 0.7933(4)
O16 O 1.0351(5) 0.2625(5) 0.8432(4)
O17 O 1.0958(4) 0.3219(4) 0.7439(5)
O18 O 0.6948(5) 0.2989(4) 0.4040(4)
O19 O 0.6778(4) 0.1476(3) 0.3764(3)
O20 O 0.7596(3) 0.2392(3) 0.3062(2)
O21 O 0.8301(3) 0.2450(4) 0.4382(3)
O22 O 0.9655(4) 0.2403(4) 0.2687(4)
O23 O 1.0191(5) 0.2013(5) 0.1567(3)
O24 O 1.1228(4) 0.3001(5) 0.2636(5)
O25 O 1.0797(6) 0.1583(6) 0.2706(5)
O26 O 0.1994(3) 0.2570(3) 0.0450(3)
O27 O 0.2783(3) 0.2332(3) 0.1672(3)
O28 O 0.3140(5) 0.3750(3) 0.1372(4)
O29 O 0.3638(3) 0.2637(4) 0.0719(3)
O30 O 0.3913(3) 0.0759(3) -0.0527(3)
O31 O 0.5377(4) 0.1191(3) 0.0430(3)
O32 O 0.4935(3) 0.2187(3) -0.0375(3)
O33 O 0.5342(5) 0.0922(4) -0.0905(3)
O34 O 0.6988(5) 0.3112(6) -0.0647(5)
O35 O 0.7430(4) 0.2971(3) -0.1877(3)
O36 O 0.8219(7) 0.4141(4) -0.0816(4)
O37 O 0.8355(6) 0.2752(5) -0.0749(3)
N1 N 0.9662(3) 0.3880(3) 0.5899(3)
N2 N 0.8003(3) 0.3279(3) 0.6192(3)
N3 N 0.7163(3) 0.2794(3) 0.6313(3)
N4 N 0.5767(3) 0.1766(3) 0.6661(2)
N5 N 0.5122(3) 0.2788(3) 0.7532(3)
N6 N 0.4726(3) 0.3273(3) 0.8018(3)
N7 N 0.3717(3) 0.3833(3) 0.8898(3)
N8 N 0.9160(3) 0.1326(3) -0.0131(2)
N9 N 0.8071(3) 0.1845(3) 0.0696(2)
N10 N 0.7618(3) 0.2304(3) 0.1146(2)
N11 N 0.6802(3) 0.3266(3) 0.1873(2)
N12 N 0.5399(3) 0.2144(3) 0.2103(3)
N13 N 0.4621(3) 0.1593(3) 0.2255(3)
N14 N 0.3119(3) 0.0848(3) 0.2683(3)
C1 C 1.0514(4) 0.4161(4) 0.5755(3)
H1 H 1.0814 0.3742 0.5574
C2 C 1.0987(4) 0.5071(4) 0.5865(3)
H2 H 1.1583 0.5254 0.5747
C3 C 1.0550(4) 0.5681(4) 0.6150(4)
H3 H 1.0856 0.6287 0.6237
C4 C 0.9656(4) 0.5399(4) 0.6309(4)
C5 C 0.9231(4) 0.4492(3) 0.6170(3)
C6 C 0.8284(4) 0.4129(3) 0.6317(3)
H4 H 0.7917 0.4488 0.6488
C7 C 0.7088(4) 0.1935(3) 0.6070(3)
C8 C 0.6215(4) 0.1336(3) 0.6216(3)
C9 C 0.5883(4) 0.0410(3) 0.5953(3)
H5 H 0.6186 0.0107 0.5634
C10 C 0.5098(4) -0.0032(4) 0.6180(3)
C11 C 0.4649(4) 0.0416(3) 0.6660(3)
H6 H 0.4119 0.0110 0.6818
C12 C 0.5013(4) 0.1331(3) 0.6897(3)
C13 C 0.4646(4) 0.1919(3) 0.7412(3)
C14 C 0.5034(4) 0.4107(4) 0.8295(3)
C15 C 0.4471(4) 0.4469(3) 0.8787(3)
C16 C 0.4649(4) 0.5344(3) 0.9116(3)
H7 H 0.5169 0.5763 0.9041
C17 C 0.4052(4) 0.5612(4) 0.9567(3)
H8 H 0.4166 0.6210 0.9792
C18 C 0.3288(4) 0.4977(4) 0.9674(3)
H9 H 0.2877 0.5141 0.9970
C19 C 0.3143(4) 0.4084(4) 0.9332(3)
C20 C 0.9722(4) 0.1090(4) -0.0577(3)
H10 H 1.0237 0.1526 -0.0637
C21 C 0.9567(4) 0.0211(4) -0.0961(3)
H11 H 0.9975 0.0063 -0.1266
C22 C 0.8799(4) -0.0432(4) -0.0880(3)
H12 H 0.8679 -0.1022 -0.1132
C23 C 0.8210(4) -0.0195(4) -0.0422(3)
C24 C 0.8394(4) 0.0684(3) -0.0063(3)
C25 C 0.7788(4) 0.1014(3) 0.0411(3)
C26 C 0.8090(4) 0.3176(3) 0.1303(3)
C27 C 0.7624(4) 0.3743(3) 0.1756(3)
C28 C 0.7973(4) 0.4645(3) 0.2058(3)
H13 H 0.8541 0.4977 0.1968
C29 C 0.7450(4) 0.5044(3) 0.2501(3)
C30 C 0.6622(4) 0.4542(3) 0.2637(3)
H14 H 0.6279 0.4805 0.2945
C31 C 0.6304(4) 0.3644(3) 0.2311(3)
C32 C 0.5460(4) 0.2984(3) 0.2420(3)
C33 C 0.4301(4) 0.0753(3) 0.1957(3)
H15 H 0.4587 0.0457 0.1619
C34 C 0.3452(4) 0.0310(3) 0.2198(3)
C35 C 0.3001(4) -0.0602(3) 0.1961(3)
H16 H 0.3230 -0.0963 0.1623
C36 C 0.2208(4) -0.0960(3) 0.2237(3)
H17 H 0.1895 -0.1566 0.2090
C37 C 0.1886(4) -0.0400(4) 0.2739(3)
C38 C 0.2359(4) 0.0505(3) 0.2949(3)
H18 H 0.2139 0.0878 0.3283
H19 H 0.943(4) 0.591(4) 0.651(3)
H20 H 0.486(4) -0.059(4) 0.598(3)
H21 H 0.551(4) 0.449(4) 0.817(4)
H22 H 0.263(4) 0.362(4) 0.937(3)
H23 H 0.765(4) -0.065(4) -0.033(3)
H24 H 0.719(4) 0.062(4) 0.045(3)
H25 H 0.761(4) 0.565(4) 0.271(3)
H26 H 0.138(4) -0.059(4) 0.295(3)
Cu3_2 Cu 0.62020(4) 0.30589(4) -0.30514(4)
O35_2 O 0.7430(4) 0.2971(3) 0.8123(3)
Cl7 Cl 0.32219(14) 0.45266(13) 0.49338(12)
O38 O 0.2412(5) 0.4208(5) 0.4289(5)
O39 O 0.2950(6) 0.4327(6) 0.5617(5)
O40 O 0.3613(7) 0.5465(5) 0.5002(6)
O41 O 0.3925(4) 0.4089(4) 0.4788(3)
Cl8 Cl 0.72364(19) 0.85614(18) 0.47423(14)
O42 O 0.6863(12) 0.7820(11) 0.4222(11)
O43 O 0.6587(15) 0.8898(12) 0.4953(8)
O44 O 0.7729(19) 0.8877(16) 0.4287(14)
O45 O 0.7886(12) 0.8617(18) 0.5330(6)
O46 O 0.9950(8) 0.0445(7) 0.6103(6)
O47 O 0.8490(8) 0.0416(6) 0.4085(6)
O48 O 0.8202(4) 0.0712(4) 0.2617(4)
O49 O 0.1555(4) 0.4774(4) 0.2017(3)
O50 O 0.9298(6) 0.5506(4) 0.0433(4)
O51 O 0.8797(5) 0.9285(4) 0.2001(5)
O52 O 0.0639(6) 0.2352(6) 0.4480(4)
O53 O 0.4566(4) 0.4819(3) 0.3402(4)
loop_
_geom_bond_atom_site_label_1
_geom_bond_atom_site_label_2
_geom_bond_site_symmetry_1
_geom_bond_site_symmetry_2
Cu1 O11 1_555 1_555
Cu2 O9 1_555 1_555
Cu3 O5 1_555 1_555
Cu4 O1 1_555 1_555
Cu5 O2 1_555 1_555
Cu6 O8 1_555 1_555
Cl1 O30 1_555 1_555
Cl2 O26 1_555 1_555
Cl3 O34 1_555 1_555
Cl4 O22 1_555 1_555
Cl5 O14 1_555 1_555
Cl6 O18 1_555 1_555
O1 C7 1_555 1_555
O2 C13 1_555 1_555
O3 Cu5 1_555 1_555
O4 Cu5 1_555 1_555
O6 Cu3 1_555 1_555
O7 Cu4 1_555 1_555
O8 C32 1_555 1_555
O9 C26 1_555 1_555
O10 Cu2 1_555 1_555
O12 Cu6 1_555 1_555
O13 Cu6 1_555 1_555
O14 Cu4 1_555 1_555
O15 Cl5 1_555 1_555
O16 Cl5 1_555 1_555
O17 Cl5 1_555 1_555
O19 Cl6 1_555 1_555
O20 Cu1 1_555 1_555
O21 Cu4 1_555 1_555
O23 Cu2 1_555 1_555
O24 Cl4 1_555 1_555
O25 Cl4 1_555 1_555
O27 Cu6 1_555 1_555
O28 Cl2 1_555 1_555
O29 Cl2 1_555 1_555
O31 Cu1 1_555 1_555
O32 Cl1 1_555 1_555
O33 Cl1 1_555 1_555
O35 Cl3 1_555 1_555
O36 Cl3 1_555 1_555
O37 Cu2 1_555 1_555
N1 Cu4 1_555 1_555
N2 Cu4 1_555 1_555
N3 Cu3 1_555 1_555
N4 Cu3 1_555 1_555
N5 Cu3 1_555 1_555
N6 Cu5 1_555 1_555
N7 Cu5 1_555 1_555
N8 Cu2 1_555 1_555
N9 Cu2 1_555 1_555
N10 Cu1 1_555 1_555
N11 Cu1 1_555 1_555
N12 Cu1 1_555 1_555
N13 Cu6 1_555 1_555
N14 Cu6 1_555 1_555
C1 N1 1_555 1_555
H1 C1 1_555 1_555
C2 C1 1_555 1_555
H2 C2 1_555 1_555
C3 C2 1_555 1_555
H3 C3 1_555 1_555
C4 C3 1_555 1_555
C5 N1 1_555 1_555
C6 N2 1_555 1_555
H4 C6 1_555 1_555
C7 N3 1_555 1_555
C8 N4 1_555 1_555
C9 C8 1_555 1_555
H5 C9 1_555 1_555
C10 C9 1_555 1_555
C11 C10 1_555 1_555
H6 C11 1_555 1_555
C12 N4 1_555 1_555
C13 N5 1_555 1_555
C14 N6 1_555 1_555
C15 N7 1_555 1_555
C16 C15 1_555 1_555
H7 C16 1_555 1_555
C17 C16 1_555 1_555
H8 C17 1_555 1_555
C18 C17 1_555 1_555
H9 C18 1_555 1_555
C19 N7 1_555 1_555
C20 N8 1_555 1_555
H10 C20 1_555 1_555
C21 C20 1_555 1_555
H11 C21 1_555 1_555
C22 C21 1_555 1_555
H12 C22 1_555 1_555
C23 C22 1_555 1_555
C24 N8 1_555 1_555
C25 N9 1_555 1_555
C26 N10 1_555 1_555
C27 N11 1_555 1_555
C28 C27 1_555 1_555
H13 C28 1_555 1_555
C29 C28 1_555 1_555
C30 C29 1_555 1_555
H14 C30 1_555 1_555
C31 N11 1_555 1_555
C32 N12 1_555 1_555
C33 N13 1_555 1_555
H15 C33 1_555 1_555
C34 N14 1_555 1_555
C35 C34 1_555 1_555
H16 C35 1_555 1_555
C36 C35 1_555 1_555
H17 C36 1_555 1_555
C37 C36 1_555 1_555
C38 N14 1_555 1_555
H18 C38 1_555 1_555
H19 C4 1_555 1_555
H20 C10 1_555 1_555
H21 C14 1_555 1_555
H22 C19 1_555 1_555
H23 C23 1_555 1_555
H24 C25 1_555 1_555
H25 C29 1_555 1_555
H26 C37 1_555 1_555
Cl7 O38 1_555 1_555
O39 Cl7 1_555 1_555
O40 Cl7 1_555 1_555
O41 Cl7 1_555 1_555
Cl8 O42 1_555 1_555
O43 Cl8 1_555 1_555
O44 Cl8 1_555 1_555
O45 Cl8 1_555 1_555
Cu3_2 O35 1_555 1_555
O35_2 Cu3 1_555 1_555
Cl1 O31 1_555 1_555
Cl2 O27 1_555 1_555
Cl3 O37 1_555 1_555
Cl4 O23 1_555 1_555
Cl6 O20 1_555 1_555
Cl6 O21 1_555 1_555
N2 N3 1_555 1_555
N5 N6 1_555 1_555
N9 N10 1_555 1_555
N12 N13 1_555 1_555
C4 C5 1_555 1_555
C5 C6 1_555 1_555
C7 C8 1_555 1_555
C11 C12 1_555 1_555
C12 C13 1_555 1_555
C14 C15 1_555 1_555
C18 C19 1_555 1_555
C23 C24 1_555 1_555
C24 C25 1_555 1_555
C26 C27 1_555 1_555
C30 C31 1_555 1_555
C31 C32 1_555 1_555
C33 C34 1_555 1_555
C37 C38 1_555 1_555

#END
