
#######################################################################
#
#                 Cambridge Crystallographic Data Centre
#                                CCDC 
#
#######################################################################
#
# If this CIF has been generated from an entry in the Cambridge 
# Structural Database, then it will include bibliographic, chemical, 
# crystal, experimental, refinement or atomic coordinate data resulting 
# from the CCDC's data processing and validation procedures.
#
#######################################################################

data_LIYVOG
_symmetry_cell_setting           orthorhombic
_symmetry_space_group_name_H-M   'P n a 21'
_symmetry_Int_Tables_number      33
_space_group_name_Hall           'P 2c -2n'
loop_
_symmetry_equiv_pos_site_id
_symmetry_equiv_pos_as_xyz
1 x,y,z
2 -x,-y,1/2+z
3 1/2+x,1/2-y,z
4 1/2-x,1/2+y,1/2+z
_cell_length_a                   7.4665(2)
_cell_length_b                   17.7858(5)
_cell_length_c                   6.6821(2)
_cell_angle_alpha                90
_cell_angle_beta                 90
_cell_angle_gamma                90
_cell_volume                     887.367
loop_
_atom_site_label
_atom_site_type_symbol
_atom_site_fract_x
_atom_site_fract_y
_atom_site_fract_z
Cu1 Cu 0.00521(5) 0.502896(17) 0.50002(17)
O1 O 0.0918(2) 0.40286(10) 0.5811(3)
O2 O 0.0673(3) 0.39533(9) 0.9179(3)
O3 O -0.0991(3) 0.14441(11) 1.1700(3)
O4 O -0.0088(2) 0.04569(11) 1.0096(4)
O5 O 0.2389(2) 0.07033(9) 0.3473(3)
O6 O 0.3041(2) 0.18099(10) 0.2336(3)
O7 O -0.1161(2) 0.51396(9) 0.7481(3)
H1 H -0.2242 0.5270 0.7463
N1 N -0.0260(3) 0.11347(12) 1.0269(4)
N2 N 0.2439(3) 0.13903(11) 0.3632(3)
C1 C 0.0847(3) 0.36866(12) 0.7455(4)
C2 C 0.0984(3) 0.28424(13) 0.7318(4)
C3 C 0.0397(4) 0.23927(14) 0.8891(4)
H2 H -0.0025 0.2611 1.0100
C4 C 0.0445(4) 0.16166(14) 0.8649(4)
C5 C 0.1101(4) 0.12656(13) 0.6959(4)
H3 H 0.1135 0.0734 0.6839
C6 C 0.1710(3) 0.17364(13) 0.5442(4)
C7 C 0.1637(3) 0.25149(13) 0.5565(4)
H4 H 0.2024 0.2819 0.4478
Cu1A Cu -0.00521(5) 0.497104(17) 1.00002(17)
Cu1B Cu 0.50521(5) -0.002896(17) 0.50002(17)
O2A O -0.0673(3) 0.60467(9) 0.4179(3)
O5B O -0.2611(2) 0.42967(9) 0.3473(3)
O7A O 0.1161(2) 0.48604(9) 0.2481(3)
loop_
_geom_bond_atom_site_label_1
_geom_bond_atom_site_label_2
_geom_bond_site_symmetry_1
_geom_bond_site_symmetry_2
Cu1 O1 1_555 1_555
O1 C1 1_555 1_555
O2 C1 1_555 1_555
O3 N1 1_555 1_555
O4 N1 1_555 1_555
O5 N2 1_555 1_555
O6 N2 1_555 1_555
O7 Cu1 1_555 1_555
H1 O7 1_555 1_555
N1 C4 1_555 1_555
N2 C6 1_555 1_555
C1 C2 1_555 1_555
C2 C3 1_555 1_555
C3 H2 1_555 1_555
C4 C3 1_555 1_555
C5 C4 1_555 1_555
H3 C5 1_555 1_555
C6 C5 1_555 1_555
C7 C2 1_555 1_555
H4 C7 1_555 1_555
Cu1A O2 1_555 1_555
Cu1B O5 1_555 1_555
O2A Cu1 1_555 1_555
O5B Cu1 1_555 1_555
O7A Cu1 1_555 1_555
O7 Cu1A 1_555 1_555
C6 C7 1_555 1_555

#END
