
#######################################################################
#
#                 Cambridge Crystallographic Data Centre
#                                CCDC 
#
#######################################################################
#
# If this CIF has been generated from an entry in the Cambridge 
# Structural Database, then it will include bibliographic, chemical, 
# crystal, experimental, refinement or atomic coordinate data resulting 
# from the CCDC's data processing and validation procedures.
#
#######################################################################

data_LIZDEF
_symmetry_cell_setting           monoclinic
_symmetry_space_group_name_H-M   'C 2/c'
_symmetry_Int_Tables_number      15
_space_group_name_Hall           '-C 2yn'
loop_
_symmetry_equiv_pos_site_id
_symmetry_equiv_pos_as_xyz
1 x,y,z
2 -x,y,1/2-z
3 1/2+x,1/2+y,z
4 1/2-x,1/2+y,1/2-z
5 -x,-y,-z
6 x,-y,1/2+z
7 1/2-x,1/2-y,-z
8 1/2+x,1/2-y,1/2+z
_cell_length_a                   20.951(7)
_cell_length_b                   9.515(3)
_cell_length_c                   27.483(10)
_cell_angle_alpha                90
_cell_angle_beta                 106.176(6)
_cell_angle_gamma                90
_cell_volume                     5261.8
loop_
_atom_site_label
_atom_site_type_symbol
_atom_site_fract_x
_atom_site_fract_y
_atom_site_fract_z
Gd1 Gd 0.187586(11) 0.30206(3) 0.214319(9)
O1 O 0.23398(19) 0.1234(4) 0.17272(15)
O2 O 0.11838(18) 0.1158(4) 0.22562(16)
O3 O 0.08979(18) 0.4013(4) 0.22560(17)
O4 O 0.1214(3) 0.2715(5) 0.12911(18)
O5 O 0.29740(19) 0.3890(4) 0.21762(17)
O6 O 0.17111(19) -0.4745(4) 0.17082(15)
O7 O 0.24974(19) -0.3399(4) 0.21920(15)
O8 O 0.28526(18) -0.0689(4) 0.20970(15)
C1 C 0.2359(3) -0.0078(5) 0.18165(19)
C2 C 0.0624(2) 0.0563(5) 0.21522(19)
C3 C 0.0295(2) 0.4138(5) 0.2035(2)
H1 H 0.1129 0.1961 0.1144
H2 H 0.1034 0.3171 0.1140
H3 H 0.3328 0.3885 0.2340
H4 H 0.3078 0.4798 0.2361
C4 C 0.1757(2) -0.0909(6) 0.15493(19)
O9 O 0.05474(19) -0.0682(4) 0.22613(16)
C5 C 0.0018(3) 0.1391(6) 0.1877(2)
O10 O -0.00235(19) 0.5265(4) 0.19791(16)
C6 C -0.0086(3) 0.2837(6) 0.1829(2)
N1 N 0.1227(2) -0.0221(5) 0.12197(17)
C7 C 0.1622(3) -0.2310(5) 0.1565(2)
Gd2 Gd 0.0000 -0.26582(4) 0.2500
N2 N -0.0553(2) 0.0715(5) 0.16304(17)
N3 N -0.0732(2) 0.2987(5) 0.15503(19)
C8 C 0.0776(3) -0.1202(5) 0.1043(2)
N4 N 0.0998(2) -0.2493(5) 0.12368(18)
C9 C 0.1969(2) -0.3564(5) 0.18412(19)
C10 C -0.1002(3) 0.1684(6) 0.1432(2)
C11 C 0.0116(2) -0.0942(6) 0.07004(19)
C12 C -0.1673(3) 0.1446(7) 0.1113(2)
C13 C -0.0295(3) -0.2045(7) 0.0461(3)
C14 C -0.0129(3) 0.0405(6) 0.0595(2)
C15 C -0.1923(4) 0.0096(8) 0.1030(3)
C16 C -0.2083(4) 0.2544(8) 0.0884(3)
C17 C -0.0911(3) -0.1733(9) 0.0148(3)
H5 H -0.0152 -0.2972 0.0512
C18 C -0.0752(3) 0.0624(7) 0.0280(2)
H6 H 0.0132 0.1169 0.0740
C19 C -0.2552(4) -0.0125(9) 0.0734(4)
H7 H -0.1659 -0.0663 0.1177
C20 C -0.2716(4) 0.2248(9) 0.0583(4)
H8 H -0.1934 0.3468 0.0933
N5 N -0.1168(3) -0.0457(7) 0.0043(2)
H9 H -0.1174 -0.2486 -0.0005
H10 H -0.0905 0.1543 0.0221
N6 N -0.2959(3) 0.0959(9) 0.0496(3)
H11 H -0.2715 -0.1040 0.0689
H12 H -0.2986 0.2995 0.0433
O11 O -0.11298(19) -0.3439(4) 0.23481(19)
H13 H -0.1432 -0.3439 0.2146
H14 H -0.1180 -0.4173 0.2533
O12 O -0.0535(3) -0.2141(5) 0.16462(17)
H15 H -0.0778 -0.2550 0.1466
H16 H -0.0636 -0.1290 0.1535
Gd1A Gd -0.187586(11) 0.30206(3) 0.285681(9)
O1A O -0.23398(19) 0.1234(4) 0.32728(15)
O2A O -0.11838(18) 0.1158(4) 0.27438(16)
O3A O -0.08979(18) 0.4013(4) 0.27440(17)
O4A O -0.1214(3) 0.2715(5) 0.37089(18)
O5A O -0.29740(19) 0.3890(4) 0.28238(17)
O6A O -0.17111(19) -0.4745(4) 0.32918(15)
O7A O -0.24974(19) -0.3399(4) 0.28080(15)
O8A O -0.28526(18) -0.0689(4) 0.29030(15)
C1A C -0.2359(3) -0.0078(5) 0.31835(19)
C2A C -0.0624(2) 0.0563(5) 0.28478(19)
C3A C -0.0295(2) 0.4138(5) 0.2965(2)
H1A H -0.1129 0.1961 0.3856
H2A H -0.1034 0.3171 0.3860
H3A H -0.3328 0.3885 0.2660
H4A H -0.3078 0.4798 0.2639
C4A C -0.1757(2) -0.0909(6) 0.34507(19)
O9A O -0.05474(19) -0.0682(4) 0.27387(16)
C5A C -0.0018(3) 0.1391(6) 0.3123(2)
O10A O 0.00235(19) 0.5265(4) 0.30209(16)
C6A C 0.0086(3) 0.2837(6) 0.3171(2)
N1A N -0.1227(2) -0.0221(5) 0.37803(17)
C7A C -0.1622(3) -0.2310(5) 0.3435(2)
N2A N 0.0553(2) 0.0715(5) 0.33696(17)
N3A N 0.0732(2) 0.2987(5) 0.34497(19)
C8A C -0.0776(3) -0.1202(5) 0.3957(2)
N4A N -0.0998(2) -0.2493(5) 0.37632(18)
C9A C -0.1969(2) -0.3564(5) 0.31588(19)
C10A C 0.1002(3) 0.1684(6) 0.3568(2)
C11A C -0.0116(2) -0.0942(6) 0.42996(19)
C12A C 0.1673(3) 0.1446(7) 0.3887(2)
C13A C 0.0295(3) -0.2045(7) 0.4539(3)
C14A C 0.0129(3) 0.0405(6) 0.4405(2)
C15A C 0.1923(4) 0.0096(8) 0.3970(3)
C16A C 0.2083(4) 0.2544(8) 0.4116(3)
C17A C 0.0911(3) -0.1733(9) 0.4852(3)
H5A H 0.0152 -0.2972 0.4488
C18A C 0.0752(3) 0.0624(7) 0.4720(2)
H6A H -0.0132 0.1169 0.4260
C19A C 0.2552(4) -0.0125(9) 0.4266(4)
H7A H 0.1659 -0.0663 0.3823
C20A C 0.2716(4) 0.2248(9) 0.4417(4)
H8A H 0.1934 0.3468 0.4067
N5A N 0.1168(3) -0.0457(7) 0.4957(2)
H9A H 0.1174 -0.2486 0.5005
H10A H 0.0905 0.1543 0.4779
N6A N 0.2959(3) 0.0959(9) 0.4504(3)
H11A H 0.2715 -0.1040 0.4311
H12A H 0.2986 0.2995 0.4567
O11A O 0.11298(19) -0.3439(4) 0.26519(19)
H13A H 0.1432 -0.3439 0.2854
H14A H 0.1180 -0.4173 0.2467
O12A O 0.0535(3) -0.2141(5) 0.33538(17)
H15A H 0.0778 -0.2550 0.3534
H16A H 0.0636 -0.1290 0.3465
Gd1_2 Gd 0.187586(11) -0.69794(3) 0.214319(9)
Gd1A_2 Gd -0.187586(11) -0.69794(3) 0.285681(9)
Gd1B Gd -0.312414(11) -0.19794(3) 0.214319(9)
Gd1C Gd 0.312414(11) -0.19794(3) 0.285681(9)
O6_2 O 0.17111(19) 0.5255(4) 0.17082(15)
O6A_2 O -0.17111(19) 0.5255(4) 0.32918(15)
O7B O -0.25026(19) 0.1601(4) 0.21920(15)
O7C O 0.25026(19) 0.1601(4) 0.28080(15)
O8B O -0.21474(18) 0.4311(4) 0.20970(15)
O8C O 0.21474(18) 0.4311(4) 0.29030(15)
O10_2 O -0.00235(19) -0.4735(4) 0.19791(16)
O10A_2 O 0.00235(19) -0.4735(4) 0.30209(16)
Gd2_2 Gd 0.0000 0.73418(4) 0.2500
O13 O 0.8761(3) 0.5755(6) 0.1013(2)
H17 H 0.8966 0.4978 0.1027
H18 H 0.8371 0.5846 0.0816
O14 O 0.7582(3) 0.8780(7) 0.9314(2)
H19 H 0.7768 0.8822 0.9631
H20 H 0.7752 0.9397 0.9164
O15 O -0.0053(2) 0.5552(4) 0.93606(17)
loop_
_geom_bond_atom_site_label_1
_geom_bond_atom_site_label_2
_geom_bond_site_symmetry_1
_geom_bond_site_symmetry_2
Gd1 O1 1_555 1_555
O1 C1 1_555 1_555
O2 Gd1 1_555 1_555
O3 Gd1 1_555 1_555
O4 Gd1 1_555 1_555
O5 Gd1 1_555 1_555
O6 C9 1_555 1_555
O7 C9 1_555 1_555
O8 C1 1_555 1_555
C1 C4 1_555 1_555
C2 O2 1_555 1_555
C3 O3 1_555 1_555
H1 O4 1_555 1_555
H2 O4 1_555 1_555
H3 O5 1_555 1_555
H4 O5 1_555 1_555
C4 N1 1_555 1_555
O9 C2 1_555 1_555
C5 C2 1_555 1_555
O10 C3 1_555 1_555
C6 C3 1_555 1_555
N1 C8 1_555 1_555
C7 C4 1_555 1_555
Gd2 O9 1_555 1_555
N2 C5 1_555 1_555
N3 C6 1_555 1_555
C8 N4 1_555 1_555
N4 C7 1_555 1_555
C9 C7 1_555 1_555
C10 N2 1_555 1_555
C11 C8 1_555 1_555
C12 C10 1_555 1_555
C13 C11 1_555 1_555
C14 C11 1_555 1_555
C15 C12 1_555 1_555
C16 C12 1_555 1_555
C17 C13 1_555 1_555
H5 C13 1_555 1_555
C18 C14 1_555 1_555
H6 C14 1_555 1_555
C19 C15 1_555 1_555
H7 C15 1_555 1_555
C20 C16 1_555 1_555
H8 C16 1_555 1_555
N5 C17 1_555 1_555
H9 C17 1_555 1_555
H10 C18 1_555 1_555
N6 C19 1_555 1_555
H11 C19 1_555 1_555
H12 C20 1_555 1_555
O11 Gd2 1_555 1_555
H13 O11 1_555 1_555
H14 O11 1_555 1_555
O12 Gd2 1_555 1_555
H15 O12 1_555 1_555
H16 O12 1_555 1_555
O13 H17 1_555 1_555
H18 O13 1_555 1_555
O14 H19 1_555 1_555
H20 O14 1_555 1_555
Gd1A O1A 1_555 1_555
O1A C1A 1_555 1_555
O2A Gd1A 1_555 1_555
O3A Gd1A 1_555 1_555
O4A Gd1A 1_555 1_555
O5A Gd1A 1_555 1_555
O6A C9A 1_555 1_555
O7A C9A 1_555 1_555
O8A C1A 1_555 1_555
C1A C4A 1_555 1_555
C2A O2A 1_555 1_555
C3A O3A 1_555 1_555
H1A O4A 1_555 1_555
H2A O4A 1_555 1_555
H3A O5A 1_555 1_555
H4A O5A 1_555 1_555
C4A N1A 1_555 1_555
O9A Gd2 1_555 1_555
C5A C2A 1_555 1_555
O10A C3A 1_555 1_555
C6A C3A 1_555 1_555
N1A C8A 1_555 1_555
C7A C4A 1_555 1_555
N2A C5A 1_555 1_555
N3A C6A 1_555 1_555
C8A N4A 1_555 1_555
N4A C7A 1_555 1_555
C9A C7A 1_555 1_555
C10A N2A 1_555 1_555
C11A C8A 1_555 1_555
C12A C10A 1_555 1_555
C13A C11A 1_555 1_555
C14A C11A 1_555 1_555
C15A C12A 1_555 1_555
C16A C12A 1_555 1_555
C17A C13A 1_555 1_555
H5A C13A 1_555 1_555
C18A C14A 1_555 1_555
H6A C14A 1_555 1_555
C19A C15A 1_555 1_555
H7A C15A 1_555 1_555
C20A C16A 1_555 1_555
H8A C16A 1_555 1_555
N5A C17A 1_555 1_555
H9A C17A 1_555 1_555
H10A C18A 1_555 1_555
N6A C19A 1_555 1_555
H11A C19A 1_555 1_555
H12A C20A 1_555 1_555
O11A Gd2 1_555 1_555
H13A O11A 1_555 1_555
H14A O11A 1_555 1_555
O12A Gd2 1_555 1_555
H15A O12A 1_555 1_555
H16A O12A 1_555 1_555
Gd1_2 O6 1_555 1_555
Gd1A_2 O6A 1_555 1_555
Gd1B O7A 1_555 1_555
Gd1C O7 1_555 1_555
O6_2 Gd1 1_555 1_555
O6A_2 Gd1A 1_555 1_555
O7B Gd1A 1_555 1_555
O7C Gd1 1_555 1_555
O8B Gd1A 1_555 1_555
O8C Gd1 1_555 1_555
O10_2 Gd2 1_555 1_555
O10A_2 Gd2 1_555 1_555
Gd2_2 O10 1_555 1_555
O8 Gd1C 1_555 1_555
C5 C6 1_555 1_555
N3 C10 1_555 1_555
C18 N5 1_555 1_555
C20 N6 1_555 1_555
O8A Gd1B 1_555 1_555
C2A O9A 1_555 1_555
C5A C6A 1_555 1_555
O10A Gd2_2 1_555 1_555
N3A C10A 1_555 1_555
C18A N5A 1_555 1_555
C20A N6A 1_555 1_555

#END
