
#######################################################################
#
#                 Cambridge Crystallographic Data Centre
#                                CCDC 
#
#######################################################################
#
# If this CIF has been generated from an entry in the Cambridge 
# Structural Database, then it will include bibliographic, chemical, 
# crystal, experimental, refinement or atomic coordinate data resulting 
# from the CCDC's data processing and validation procedures.
#
#######################################################################

data_LIZHOS
_symmetry_cell_setting           triclinic
_symmetry_space_group_name_H-M   'P -1'
_symmetry_Int_Tables_number      2
_space_group_name_Hall           '-P 1'
loop_
_symmetry_equiv_pos_site_id
_symmetry_equiv_pos_as_xyz
1 x,y,z
2 -x,-y,-z
_cell_length_a                   11.291(3)
_cell_length_b                   16.605(4)
_cell_length_c                   31.562(7)
_cell_angle_alpha                79.638(4)
_cell_angle_beta                 88.669(4)
_cell_angle_gamma                70.766(3)
_cell_volume                     5491.9
loop_
_atom_site_label
_atom_site_type_symbol
_atom_site_fract_x
_atom_site_fract_y
_atom_site_fract_z
Sn1 Sn 0.45636(5) 0.89828(4) 0.802634(19)
Sn2 Sn 0.69726(6) 0.40763(4) 0.727921(19)
Sn3 Sn 0.18227(5) 0.11951(4) 0.865963(18)
Sn4 Sn -0.04449(6) 0.61078(4) 0.940671(18)
O1 O 0.5627(5) 0.7940(4) 0.77283(19)
O2 O 0.6853(5) 0.8568(4) 0.7950(2)
O3 O 0.8177(6) 0.4584(4) 0.75709(19)
O4 O 0.7613(6) 0.5357(4) 0.69320(19)
O5 O 0.7340(6) 0.3188(4) 0.78715(19)
O6 O 0.6054(6) 0.2841(4) 0.7478(2)
O7 O 0.3352(5) 0.1557(4) 0.88552(18)
O8 O 0.4060(5) 0.0503(4) 0.84948(19)
O9 O 0.0752(5) 0.2261(4) 0.89416(19)
O10 O -0.0484(5) 0.1593(4) 0.87539(19)
O11 O -0.1725(6) 0.5621(4) 0.9148(2)
O12 O -0.0972(6) 0.4723(4) 0.9749(2)
O13 O -0.0921(6) 0.7019(4) 0.88262(18)
O14 O 0.0381(6) 0.7362(4) 0.9202(2)
O15 O 0.3004(5) 0.8646(4) 0.78417(19)
O16 O 0.2322(6) 0.9700(4) 0.82025(19)
C1 C 0.6723(8) 0.7982(5) 0.7778(3)
C2 C 0.7842(7) 0.7296(5) 0.7644(3)
H1 H 0.8594 0.7483 0.7659
C3 C 0.8105(9) 0.6414(5) 0.7942(3)
H2 H 0.8240 0.6473 0.8243
H3 H 0.7369 0.6218 0.7933
C4 C 0.9247(9) 0.5750(6) 0.7807(3)
H4 H 0.9368 0.5180 0.7994
H5 H 0.9996 0.5916 0.7849
C5 C 0.9144(8) 0.5664(6) 0.7336(3)
H6 H 0.9992 0.5302 0.7259
C6 C 0.8818(8) 0.6546(5) 0.7036(3)
H7 H 0.9536 0.6764 0.7034
H8 H 0.8666 0.6479 0.6739
C7 C 0.7655(8) 0.7201(5) 0.7181(3)
H9 H 0.6921 0.7007 0.7160
H10 H 0.7482 0.7771 0.6988
C8 C 0.8245(8) 0.5196(5) 0.7269(3)
C9 C 0.6656(9) 0.2719(6) 0.7818(3)
C10 C 0.6658(8) 0.2026(6) 0.8197(3)
H11 H 0.7496 0.1822 0.8352
C11 C 0.6408(8) 0.1237(5) 0.8083(3)
H12 H 0.5555 0.1418 0.7949
H13 H 0.7021 0.0986 0.7873
C12 C 0.6520(8) 0.0562(5) 0.8487(3)
H14 H 0.7387 0.0362 0.8611
H15 H 0.6355 0.0055 0.8410
C13 C 0.5604(7) 0.0917(5) 0.8823(3)
H16 H 0.5854 0.0483 0.9097
C14 C 0.5711(8) 0.1766(6) 0.8914(3)
H17 H 0.5024 0.2019 0.9101
H18 H 0.6516 0.1637 0.9074
C15 C 0.5648(8) 0.2436(5) 0.8506(3)
H19 H 0.5795 0.2949 0.8582
H20 H 0.4806 0.2628 0.8363
C16 C 0.4276(8) 0.1003(5) 0.8708(3)
C17 C -0.0357(8) 0.2207(6) 0.8907(3)
C18 C -0.1440(8) 0.2882(5) 0.9049(3)
H21 H -0.2204 0.2714 0.9024
C19 C -0.1268(8) 0.2944(5) 0.9516(3)
H22 H -0.0494 0.3085 0.9551
H23 H -0.1169 0.2376 0.9701
C20 C -0.2386(9) 0.3638(6) 0.9659(3)
H24 H -0.3139 0.3458 0.9658
H25 H -0.2218 0.3688 0.9958
C21 C -0.2652(9) 0.4523(6) 0.9366(3)
H26 H -0.3484 0.4903 0.9446
C22 C -0.2786(9) 0.4461(6) 0.8897(3)
H27 H -0.3556 0.4319 0.8854
H28 H -0.2882 0.5032 0.8714
C23 C -0.1666(8) 0.3777(6) 0.8754(3)
H29 H -0.0909 0.3950 0.8765
H30 H -0.1817 0.3735 0.8453
C24 C -0.1714(8) 0.4957(5) 0.9431(3)
C25 C -0.0267(8) 0.7506(6) 0.8865(3)
C26 C -0.0290(8) 0.8198(5) 0.8490(3)
H31 H -0.1141 0.8407 0.8344
C27 C -0.0038(8) 0.8979(5) 0.8612(3)
H32 H -0.0650 0.9222 0.8824
H33 H 0.0815 0.8793 0.8747
C28 C -0.0152(8) 0.9671(5) 0.8211(3)
H34 H 0.0032 1.0167 0.8292
H35 H -0.1025 0.9885 0.8091
C29 C 0.0745(8) 0.9323(6) 0.7866(3)
H36 H 0.0508 0.9770 0.7596
C30 C 0.0610(9) 0.8497(6) 0.7766(3)
H37 H 0.1282 0.8251 0.7572
H38 H -0.0206 0.8642 0.7610
C31 C 0.0680(8) 0.7808(6) 0.8169(3)
H39 H 0.1533 0.7599 0.8305
H40 H 0.0511 0.7308 0.8086
C32 C 0.2090(8) 0.9211(5) 0.7995(3)
C33 C 0.4951(9) 0.8381(6) 0.8680(3)
H41 H 0.5870 0.8130 0.8737
H42 H 0.4606 0.8817 0.8867
C34 C 0.4356(13) 0.7660(10) 0.8784(5)
H43 H 0.3434 0.7942 0.8778
H44 H 0.4544 0.7323 0.8547
C35 C 0.4743(19) 0.7011(11) 0.9212(6)
H45 H 0.4462 0.7296 0.9463
H46 H 0.5662 0.6711 0.9240
C36 C 0.4027(15) 0.6390(10) 0.9156(8)
H47 H 0.3142 0.6651 0.9217
H48 H 0.4391 0.5839 0.9355
H49 H 0.4092 0.6285 0.8859
C37 C 0.4309(8) 1.0113(6) 0.7556(3)
H50 H 0.3485 1.0257 0.7406
H51 H 0.4255 1.0594 0.7709
C38 C 0.5293(14) 1.0103(8) 0.7210(5)
H52 H 0.5288 0.9674 0.7029
H53 H 0.6136 0.9912 0.7353
C39 C 0.5066(13) 1.0992(9) 0.6916(6)
H54 H 0.5107 1.1417 0.7094
H55 H 0.5739 1.0943 0.6706
C40 C 0.3784(18) 1.1325(12) 0.6671(5)
H56 H 0.3580 1.0833 0.6601
H57 H 0.3819 1.1722 0.6404
H58 H 0.3135 1.1632 0.6852
C41 C 0.8245(8) 0.3379(4) 0.6865(3)
H59 H 0.7833 0.3535 0.6574
H60 H 0.8980 0.3581 0.6842
C42 C 0.8731(9) 0.2382(4) 0.6989(3)
H61 H 0.8018 0.2158 0.7000
H62 H 0.9158 0.2205 0.7277
C43 C 0.9656(10) 0.2002(5) 0.6652(3)
H63 H 1.0339 0.2257 0.6631
H64 H 0.9212 0.2163 0.6367
C44 C 1.0225(17) 0.1008(5) 0.6771(5)
H65 H 1.0788 0.0850 0.7027
H66 H 1.0700 0.0781 0.6530
H67 H 0.9550 0.0759 0.6832
C45 C 0.5161(9) 0.4910(7) 0.7346(4)
H68 H 0.4895 0.5328 0.7071
H69 H 0.4591 0.4561 0.7387
C46 C 0.4972(12) 0.5429(13) 0.7714(6)
H70 H 0.5622 0.5711 0.7703
H71 H 0.5093 0.5022 0.7993
C47 C 0.3668(12) 0.6127(13) 0.7697(6)
H72 H 0.3815 0.6692 0.7648
H73 H 0.3348 0.6052 0.7991
C48 C 0.2573(15) 0.6236(15) 0.7386(7)
H74 H 0.2892 0.6168 0.7099
H75 H 0.1950 0.6815 0.7371
H76 H 0.2182 0.5795 0.7490
C49 C 0.2009(9) 0.0119(6) 0.9156(2)
H77 H 0.1446 -0.0191 0.9087
H78 H 0.2882 -0.0286 0.9171
C50 C 0.1689(10) 0.0386(6) 0.9599(2)
H79 H 0.2230 0.0719 0.9660
H80 H 0.0807 0.0777 0.9584
C51 C 0.1858(10) -0.0381(6) 0.9974(3)
H81 H 0.2740 -0.0772 0.9995
H82 H 0.1314 -0.0715 0.9919
C52 C 0.1515(12) -0.0050(8) 1.0401(3)
H83 H 0.2062 0.0274 1.0457
H84 H 0.1626 -0.0545 1.0637
H85 H 0.0638 0.0331 1.0382
C53 C 0.1434(9) 0.1813(6) 0.8015(3)
H86 H 0.1712 0.1374 0.7827
H87 H 0.0516 0.2100 0.7967
C54 C 0.2094(9) 0.2495(6) 0.7889(3)
H88 H 0.1933 0.2869 0.8110
H89 H 0.3010 0.2191 0.7893
C55 C 0.1680(10) 0.3076(7) 0.7444(3)
H90 H 0.0775 0.3413 0.7442
H91 H 0.1807 0.2709 0.7221
C56 C 0.2437(12) 0.3702(8) 0.7338(5)
H92 H 0.2384 0.4022 0.7574
H93 H 0.2092 0.4112 0.7071
H94 H 0.3317 0.3371 0.7302
C57 C 0.1320(9) 0.5292(6) 0.9272(3)
H95 H 0.1946 0.5585 0.9291
H96 H 0.1561 0.4756 0.9494
C58 C 0.1364(16) 0.5042(15) 0.8824(5)
H97 H 0.1409 0.5538 0.8604
H98 H 0.0571 0.4941 0.8766
C59 C 0.2472(16) 0.4232(16) 0.8768(6)
H99 H 0.2603 0.4220 0.8458
H100 H 0.2284 0.3702 0.8901
C60 C 0.367(2) 0.425(2) 0.8986(13)
H101 H 0.4043 0.4619 0.8789
H102 H 0.4266 0.3662 0.9056
H103 H 0.3447 0.4489 0.9251
C61 C -0.1605(8) 0.6736(5) 0.9868(3)
H104 H -0.2124 0.6380 0.9993
H105 H -0.1061 0.6757 1.0105
C62 C -0.2483(9) 0.7664(5) 0.9695(3)
H106 H -0.2929 0.7675 0.9427
H107 H -0.1987 0.8060 0.9629
C63 C -0.3440(10) 0.7964(6) 1.0038(3)
H108 H -0.3942 0.7570 1.0102
H109 H -0.2993 0.7946 1.0308
C64 C -0.4311(11) 0.8895(6) 0.9869(4)
H110 H -0.3805 0.9259 0.9755
H111 H -0.4804 0.9130 1.0106
H112 H -0.4878 0.8890 0.9640
Sn5 Sn 0.64878(6) 0.61557(4) 0.596571(19)
Sn6 Sn 0.81619(5) 1.10192(4) 0.517350(19)
O17 O 0.6213(6) 0.6861(4) 0.53282(19)
O18 O 0.7514(7) 0.7288(5) 0.5666(2)
O19 O 0.7087(5) 1.0528(3) 0.48076(19)
O20 O 0.9060(5) 0.9744(4) 0.4756(2)
O21 O 0.5225(6) 0.5625(4) 0.57401(19)
O22 O 0.5806(6) 0.4914(4) 0.6389(2)
O23 O 0.6348(5) 0.1807(4) 0.53006(19)
O24 O 0.7735(6) 0.2145(4) 0.5650(2)
C65 C 0.6940(9) 0.7321(6) 0.5335(3)
C66 C 0.7026(8) 0.7898(5) 0.4918(3)
H113 H 0.6774 0.7661 0.4678
C67 C 0.6106(7) 0.8839(5) 0.4899(3)
H114 H 0.5239 0.8826 0.4936
H115 H 0.6323 0.9084 0.5138
C68 C 0.6165(9) 0.9405(6) 0.4479(3)
H116 H 0.5608 1.0004 0.4485
H117 H 0.5846 0.9198 0.4244
C69 C 0.7477(7) 0.9417(5) 0.4380(3)
H118 H 0.7454 0.9729 0.4077
C70 C 0.8419(8) 0.8493(5) 0.4409(3)
H119 H 0.8236 0.8234 0.4170
H120 H 0.9280 0.8521 0.4378
C71 C 0.8350(8) 0.7917(5) 0.4841(3)
H121 H 0.8926 0.7320 0.4843
H122 H 0.8629 0.8139 0.5077
C72 C 0.7959(7) 0.9899(5) 0.4674(3)
C73 C 0.5151(7) 0.5040(5) 0.6061(3)
C74 C 0.4254(8) 0.4562(5) 0.6022(3)
H123 H 0.3416 0.4921 0.6108
C75 C 0.4623(9) 0.3679(5) 0.6325(3)
H124 H 0.4812 0.3753 0.6618
H125 H 0.3904 0.3459 0.6343
C76 C 0.5762(8) 0.3015(5) 0.6174(3)
H126 H 0.5941 0.2448 0.6370
H127 H 0.6504 0.3204 0.6183
C77 C 0.5526(8) 0.2913(5) 0.5713(3)
H128 H 0.4781 0.2714 0.5710
C78 C 0.5221(8) 0.3796(5) 0.5410(3)
H129 H 0.5955 0.3998 0.5402
H130 H 0.5043 0.3734 0.5114
C79 C 0.4099(7) 0.4455(5) 0.5561(3)
H131 H 0.3351 0.4279 0.5536
H132 H 0.3946 0.5023 0.5368
C80 C 0.6625(8) 0.2248(5) 0.5565(3)
C81 C 0.8273(9) 0.5226(7) 0.5962(3)
H133 H 0.8919 0.5474 0.6028
H134 H 0.8340 0.4717 0.6191
C82 C 0.8521(15) 0.4931(12) 0.5524(4)
H135 H 0.8430 0.5439 0.5292
H136 H 0.7903 0.4656 0.5463
C83 C 0.9860(17) 0.4277(14) 0.5535(6)
H137 H 0.9754 0.3751 0.5460
H138 H 1.0271 0.4521 0.5287
C84 C 1.0856(14) 0.3942(14) 0.5907(7)
H139 H 1.0913 0.4433 0.6028
H140 H 1.1672 0.3640 0.5799
H141 H 1.0616 0.3541 0.6132
C85 C 0.5346(10) 0.6984(5) 0.6356(3)
H142 H 0.4610 0.6795 0.6428
H143 H 0.5826 0.6892 0.6629
C86 C 0.486(2) 0.7966(5) 0.6178(5)
H144 H 0.4233 0.8081 0.5940
H145 H 0.5564 0.8146 0.6056
C87 C 0.4245(12) 0.8526(9) 0.6515(4)
H146 H 0.4686 0.8280 0.6800
H147 H 0.4246 0.9129 0.6425
C88 C 0.2897(13) 0.8493(10) 0.6527(7)
H148 H 0.2556 0.8599 0.6232
H149 H 0.2372 0.8939 0.6681
H150 H 0.2907 0.7920 0.6677
C89 C 0.8758(7) 1.1818(5) 0.4685(3)
H151 H 0.9656 1.1716 0.4746
H152 H 0.8701 1.1620 0.4411
C90 C 0.8071(18) 1.2804(5) 0.4611(7)
H153 H 0.7956 1.2989 0.4894
H154 H 0.7226 1.2924 0.4482
C91 C 0.8733(13) 1.3360(9) 0.4320(5)
H155 H 0.8402 1.3976 0.4351
H156 H 0.9654 1.3136 0.4375
C92 C 0.836(2) 1.3228(12) 0.3878(5)
H157 H 0.8301 1.2646 0.3904
H158 H 0.9003 1.3290 0.3671
H159 H 0.7551 1.3663 0.3776
C93 C 0.8650(7) 1.0060(6) 0.5739(3)
H160 H 0.9178 0.9501 0.5664
H161 H 0.9147 1.0228 0.5940
C94 C 0.7472(8) 0.9947(7) 0.5961(3)
H162 H 0.6893 0.9903 0.5742
H163 H 0.7037 1.0467 0.6087
C95 C 0.7775(12) 0.9137(8) 0.6319(4)
H164 H 0.6986 0.9093 0.6448
H165 H 0.8176 0.8612 0.6193
C96 C 0.8657(19) 0.9177(14) 0.6674(5)
H166 H 0.9430 0.8676 0.6698
H167 H 0.8241 0.9165 0.6950
H168 H 0.8862 0.9713 0.6600
Sn6_2 Sn 0.81619(5) 0.10192(4) 0.517350(19)
O23_2 O 0.6348(5) 1.1807(4) 0.53006(19)
O24_2 O 0.7735(6) 1.2145(4) 0.5650(2)
loop_
_geom_bond_atom_site_label_1
_geom_bond_atom_site_label_2
_geom_bond_site_symmetry_1
_geom_bond_site_symmetry_2
Sn1 O1 1_555 1_555
Sn2 O3 1_555 1_555
Sn3 O7 1_555 1_555
Sn4 O11 1_555 1_555
Sn5 O17 1_555 1_555
Sn6 O19 1_555 1_555
O1 C1 1_555 1_555
O2 Sn1 1_555 1_555
O3 C8 1_555 1_555
O4 Sn2 1_555 1_555
O5 Sn2 1_555 1_555
O6 Sn2 1_555 1_555
O7 C16 1_555 1_555
O8 Sn3 1_555 1_555
O9 Sn3 1_555 1_555
O10 Sn3 1_555 1_555
O11 C24 1_555 1_555
O12 Sn4 1_555 1_555
O13 Sn4 1_555 1_555
O14 Sn4 1_555 1_555
O15 Sn1 1_555 1_555
O16 Sn1 1_555 1_555
O17 C65 1_555 1_555
O18 Sn5 1_555 1_555
O19 C72 1_555 1_555
O20 Sn6 1_555 1_555
O21 Sn5 1_555 1_555
O22 Sn5 1_555 1_555
O23 C80 1_555 1_555
O24 C80 1_555 1_555
C1 O2 1_555 1_555
C2 C1 1_555 1_555
H1 C2 1_555 1_555
C3 C2 1_555 1_555
H2 C3 1_555 1_555
H3 C3 1_555 1_555
C4 C3 1_555 1_555
H4 C4 1_555 1_555
H5 C4 1_555 1_555
C5 C4 1_555 1_555
H6 C5 1_555 1_555
C6 C5 1_555 1_555
H7 C6 1_555 1_555
H8 C6 1_555 1_555
C7 C2 1_555 1_555
H9 C7 1_555 1_555
H10 C7 1_555 1_555
C8 O4 1_555 1_555
C9 O5 1_555 1_555
C10 C9 1_555 1_555
H11 C10 1_555 1_555
C11 C10 1_555 1_555
H12 C11 1_555 1_555
H13 C11 1_555 1_555
C12 C11 1_555 1_555
H14 C12 1_555 1_555
H15 C12 1_555 1_555
C13 C12 1_555 1_555
H16 C13 1_555 1_555
C14 C13 1_555 1_555
H17 C14 1_555 1_555
H18 C14 1_555 1_555
C15 C10 1_555 1_555
H19 C15 1_555 1_555
H20 C15 1_555 1_555
C16 O8 1_555 1_555
C17 O9 1_555 1_555
C18 C17 1_555 1_555
H21 C18 1_555 1_555
C19 C18 1_555 1_555
H22 C19 1_555 1_555
H23 C19 1_555 1_555
C20 C19 1_555 1_555
H24 C20 1_555 1_555
H25 C20 1_555 1_555
C21 C20 1_555 1_555
H26 C21 1_555 1_555
C22 C21 1_555 1_555
H27 C22 1_555 1_555
H28 C22 1_555 1_555
C23 C18 1_555 1_555
H29 C23 1_555 1_555
H30 C23 1_555 1_555
C24 O12 1_555 1_555
C25 O13 1_555 1_555
C26 C25 1_555 1_555
H31 C26 1_555 1_555
C27 C26 1_555 1_555
H32 C27 1_555 1_555
H33 C27 1_555 1_555
C28 C27 1_555 1_555
H34 C28 1_555 1_555
H35 C28 1_555 1_555
C29 C28 1_555 1_555
H36 C29 1_555 1_555
C30 C29 1_555 1_555
H37 C30 1_555 1_555
H38 C30 1_555 1_555
C31 C26 1_555 1_555
H39 C31 1_555 1_555
H40 C31 1_555 1_555
C32 O15 1_555 1_555
C33 Sn1 1_555 1_555
H41 C33 1_555 1_555
H42 C33 1_555 1_555
C34 C33 1_555 1_555
H43 C34 1_555 1_555
H44 C34 1_555 1_555
C35 C34 1_555 1_555
H45 C35 1_555 1_555
H46 C35 1_555 1_555
C36 C35 1_555 1_555
H47 C36 1_555 1_555
H48 C36 1_555 1_555
H49 C36 1_555 1_555
C37 Sn1 1_555 1_555
H50 C37 1_555 1_555
H51 C37 1_555 1_555
C38 C37 1_555 1_555
H52 C38 1_555 1_555
H53 C38 1_555 1_555
C39 C38 1_555 1_555
H54 C39 1_555 1_555
H55 C39 1_555 1_555
C40 C39 1_555 1_555
H56 C40 1_555 1_555
H57 C40 1_555 1_555
H58 C40 1_555 1_555
C41 Sn2 1_555 1_555
H59 C41 1_555 1_555
H60 C41 1_555 1_555
C42 C41 1_555 1_555
H61 C42 1_555 1_555
H62 C42 1_555 1_555
C43 C42 1_555 1_555
H63 C43 1_555 1_555
H64 C43 1_555 1_555
C44 C43 1_555 1_555
H65 C44 1_555 1_555
H66 C44 1_555 1_555
H67 C44 1_555 1_555
C45 Sn2 1_555 1_555
H68 C45 1_555 1_555
H69 C45 1_555 1_555
C46 C45 1_555 1_555
H70 C46 1_555 1_555
H71 C46 1_555 1_555
C47 C46 1_555 1_555
H72 C47 1_555 1_555
H73 C47 1_555 1_555
C48 C47 1_555 1_555
H74 C48 1_555 1_555
H75 C48 1_555 1_555
H76 C48 1_555 1_555
C49 Sn3 1_555 1_555
H77 C49 1_555 1_555
H78 C49 1_555 1_555
C50 C49 1_555 1_555
H79 C50 1_555 1_555
H80 C50 1_555 1_555
C51 C50 1_555 1_555
H81 C51 1_555 1_555
H82 C51 1_555 1_555
C52 C51 1_555 1_555
H83 C52 1_555 1_555
H84 C52 1_555 1_555
H85 C52 1_555 1_555
C53 Sn3 1_555 1_555
H86 C53 1_555 1_555
H87 C53 1_555 1_555
C54 C53 1_555 1_555
H88 C54 1_555 1_555
H89 C54 1_555 1_555
C55 C54 1_555 1_555
H90 C55 1_555 1_555
H91 C55 1_555 1_555
C56 C55 1_555 1_555
H92 C56 1_555 1_555
H93 C56 1_555 1_555
H94 C56 1_555 1_555
C57 Sn4 1_555 1_555
H95 C57 1_555 1_555
H96 C57 1_555 1_555
C58 C57 1_555 1_555
H97 C58 1_555 1_555
H98 C58 1_555 1_555
C59 C58 1_555 1_555
H99 C59 1_555 1_555
H100 C59 1_555 1_555
C60 C59 1_555 1_555
H101 C60 1_555 1_555
H102 C60 1_555 1_555
H103 C60 1_555 1_555
C61 Sn4 1_555 1_555
H104 C61 1_555 1_555
H105 C61 1_555 1_555
C62 C61 1_555 1_555
H106 C62 1_555 1_555
H107 C62 1_555 1_555
C63 C62 1_555 1_555
H108 C63 1_555 1_555
H109 C63 1_555 1_555
C64 C63 1_555 1_555
H110 C64 1_555 1_555
H111 C64 1_555 1_555
H112 C64 1_555 1_555
C65 O18 1_555 1_555
C66 C65 1_555 1_555
H113 C66 1_555 1_555
C67 C66 1_555 1_555
H114 C67 1_555 1_555
H115 C67 1_555 1_555
C68 C67 1_555 1_555
H116 C68 1_555 1_555
H117 C68 1_555 1_555
C69 C68 1_555 1_555
H118 C69 1_555 1_555
C70 C69 1_555 1_555
H119 C70 1_555 1_555
H120 C70 1_555 1_555
C71 C66 1_555 1_555
H121 C71 1_555 1_555
H122 C71 1_555 1_555
C72 O20 1_555 1_555
C73 O21 1_555 1_555
C74 C73 1_555 1_555
H123 C74 1_555 1_555
C75 C74 1_555 1_555
H124 C75 1_555 1_555
H125 C75 1_555 1_555
C76 C75 1_555 1_555
H126 C76 1_555 1_555
H127 C76 1_555 1_555
C77 C76 1_555 1_555
H128 C77 1_555 1_555
C78 C77 1_555 1_555
H129 C78 1_555 1_555
H130 C78 1_555 1_555
C79 C74 1_555 1_555
H131 C79 1_555 1_555
H132 C79 1_555 1_555
C80 C77 1_555 1_555
C81 Sn5 1_555 1_555
H133 C81 1_555 1_555
H134 C81 1_555 1_555
C82 C81 1_555 1_555
H135 C82 1_555 1_555
H136 C82 1_555 1_555
C83 C82 1_555 1_555
H137 C83 1_555 1_555
H138 C83 1_555 1_555
C84 C83 1_555 1_555
H139 C84 1_555 1_555
H140 C84 1_555 1_555
H141 C84 1_555 1_555
C85 Sn5 1_555 1_555
H142 C85 1_555 1_555
H143 C85 1_555 1_555
C86 C85 1_555 1_555
H144 C86 1_555 1_555
H145 C86 1_555 1_555
C87 C86 1_555 1_555
H146 C87 1_555 1_555
H147 C87 1_555 1_555
C88 C87 1_555 1_555
H148 C88 1_555 1_555
H149 C88 1_555 1_555
H150 C88 1_555 1_555
C89 Sn6 1_555 1_555
H151 C89 1_555 1_555
H152 C89 1_555 1_555
C90 C89 1_555 1_555
H153 C90 1_555 1_555
H154 C90 1_555 1_555
C91 C90 1_555 1_555
H155 C91 1_555 1_555
H156 C91 1_555 1_555
C92 C91 1_555 1_555
H157 C92 1_555 1_555
H158 C92 1_555 1_555
H159 C92 1_555 1_555
C93 Sn6 1_555 1_555
H160 C93 1_555 1_555
H161 C93 1_555 1_555
C94 C93 1_555 1_555
H162 C94 1_555 1_555
H163 C94 1_555 1_555
C95 C94 1_555 1_555
H164 C95 1_555 1_555
H165 C95 1_555 1_555
C96 C95 1_555 1_555
H166 C96 1_555 1_555
H167 C96 1_555 1_555
H168 C96 1_555 1_555
Sn6_2 O23 1_555 1_555
O23_2 Sn6 1_555 1_555
O24_2 Sn6 1_555 1_555
O6 C9 1_555 1_555
O10 C17 1_555 1_555
O14 C25 1_555 1_555
O16 C32 1_555 1_555
O22 C73 1_555 1_555
O24 Sn6_2 1_555 1_555
C5 C8 1_555 1_555
C6 C7 1_555 1_555
C13 C16 1_555 1_555
C14 C15 1_555 1_555
C21 C24 1_555 1_555
C22 C23 1_555 1_555
C29 C32 1_555 1_555
C30 C31 1_555 1_555
C69 C72 1_555 1_555
C70 C71 1_555 1_555
C78 C79 1_555 1_555

#END
