
#######################################################################
#
#                 Cambridge Crystallographic Data Centre
#                                CCDC 
#
#######################################################################
#
# If this CIF has been generated from an entry in the Cambridge 
# Structural Database, then it will include bibliographic, chemical, 
# crystal, experimental, refinement or atomic coordinate data resulting 
# from the CCDC's data processing and validation procedures.
#
#######################################################################

data_LIZJIN
_symmetry_cell_setting           monoclinic
_symmetry_space_group_name_H-M   'P 21'
_symmetry_Int_Tables_number      4
_space_group_name_Hall           'P 2yb'
loop_
_symmetry_equiv_pos_site_id
_symmetry_equiv_pos_as_xyz
1 x,y,z
2 -x,1/2+y,-z
_cell_length_a                   9.560(2)
_cell_length_b                   5.417(2)
_cell_length_c                   12.858(2)
_cell_angle_alpha                90
_cell_angle_beta                 109.37(1)
_cell_angle_gamma                90
_cell_volume                     628.18
loop_
_atom_site_label
_atom_site_type_symbol
_atom_site_fract_x
_atom_site_fract_y
_atom_site_fract_z
Ag1 Ag 0.3246(1) 0.4602 0.28999(8)
Ag2 Ag 0.16553(9) 0.0140(2) 0.27173(7)
O1 O 0.5040(9) 0.233(2) 0.3971(7)
O2 O 0.4031(8) -0.111(1) 0.3142(6)
O3 O 0.8867(9) 0.342(2) 0.5665(7)
O4 O 0.7473(7) 0.004(2) 0.5206(5)
O5 O -0.0249(9) 0.257(2) 0.1929(7)
O6 O 0.1059(8) 0.595(1) 0.1807(6)
O7 O -0.461(1) 0.288(2) 0.0988(8)
O8 O -0.2721(8) 0.544(2) 0.1439(6)
C1 C 0.827(1) 0.193(3) 0.498(1)
C2 C 0.818(1) 0.174(3) 0.379(1)
C3 C 0.747(1) -0.073(3) 0.342(1)
C4 C 0.658(1) -0.112(2) 0.419(1)
C5 C 0.508(1) 0.016(3) 0.3760(8)
C6 C -0.361(1) 0.374(3) 0.075(1)
C7 C -0.316(2) 0.336(3) -0.024(1)
C8 C -0.207(1) 0.547(3) -0.0181(9)
C9 C -0.153(1) 0.615(2) 0.106(1)
C10 C -0.011(1) 0.479(3) 0.1661(8)
H1 H 0.7581 0.3138 0.3318
H2 H 0.9145 0.1947 0.3686
H3 H -0.3920 0.3508 -0.0979
H4 H -0.2606 0.1879 -0.0287
H5 H -0.1242 0.5049 -0.0429
H6 H -0.2560 0.6876 -0.0659
H7 H 0.6841 -0.0684 0.2672
H8 H 0.8222 -0.1914 0.3511
H9 H -0.1397 0.7948 0.1092
H10 H 0.6484 -0.2844 0.4308
O2_2 O 0.4031(8) 0.889(1) 0.3142(6)
Ag1_2 Ag 0.3246(1) -0.5398 0.28999(8)
Ag2A Ag 0.83447(9) 0.5140(2) 0.72827(7)
O3A O 0.1133(9) -0.158(2) 0.4335(7)
loop_
_geom_bond_atom_site_label_1
_geom_bond_atom_site_label_2
_geom_bond_site_symmetry_1
_geom_bond_site_symmetry_2
Ag1 Ag2 1_555 1_555
Ag2 O2 1_555 1_555
O1 Ag1 1_555 1_555
O2 C5 1_555 1_555
O3 C1 1_555 1_555
O4 C1 1_555 1_555
O5 Ag2 1_555 1_555
O6 Ag1 1_555 1_555
O7 C6 1_555 1_555
O8 C6 1_555 1_555
C1 C2 1_555 1_555
C2 C3 1_555 1_555
C3 C4 1_555 1_555
C4 O4 1_555 1_555
C5 O1 1_555 1_555
C6 C7 1_555 1_555
C7 C8 1_555 1_555
C8 C9 1_555 1_555
C9 O8 1_555 1_555
C10 O5 1_555 1_555
H1 C2 1_555 1_555
H2 C2 1_555 1_555
H3 C7 1_555 1_555
H4 C7 1_555 1_555
H5 C8 1_555 1_555
H6 C8 1_555 1_555
H7 C3 1_555 1_555
H8 C3 1_555 1_555
H9 C9 1_555 1_555
H10 C4 1_555 1_555
O2_2 Ag1 1_555 1_555
Ag1_2 O2 1_555 1_555
Ag2A O3 1_555 1_555
O3A Ag2 1_555 1_555
O6 C10 1_555 1_555
C4 C5 1_555 1_555
C9 C10 1_555 1_555

#END
