
#######################################################################
#
#                 Cambridge Crystallographic Data Centre
#                                CCDC 
#
#######################################################################
#
# If this CIF has been generated from an entry in the Cambridge 
# Structural Database, then it will include bibliographic, chemical, 
# crystal, experimental, refinement or atomic coordinate data resulting 
# from the CCDC's data processing and validation procedures.
#
#######################################################################

data_LIZKOV01
_symmetry_cell_setting           orthorhombic
_symmetry_space_group_name_H-M   'I b a 2'
_symmetry_Int_Tables_number      45
_space_group_name_Hall           'I 2 -2c'
loop_
_symmetry_equiv_pos_site_id
_symmetry_equiv_pos_as_xyz
1 x,y,z
2 -x,-y,z
3 1/2+x,1/2-y,z
4 1/2-x,1/2+y,z
5 1/2+x,1/2+y,1/2+z
6 1/2-x,1/2-y,1/2+z
7 x,-y,1/2+z
8 -x,y,1/2+z
_cell_length_a                   12.656(3)
_cell_length_b                   20.114(4)
_cell_length_c                   6.2216(12)
_cell_angle_alpha                90
_cell_angle_beta                 90
_cell_angle_gamma                90
_cell_volume                     1583.79
loop_
_atom_site_label
_atom_site_type_symbol
_atom_site_fract_x
_atom_site_fract_y
_atom_site_fract_z
In1 In 0.584660(10) -0.389077(6) 1.13246(5)
O1 O 0.45964(14) -0.41978(10) 1.3218(3)
O2 O 0.67099(13) -0.47992(8) 1.1824(3)
O3 O 0.82618(13) -0.53105(8) 1.1366(6)
O4 O 1.03411(14) -0.21005(9) 1.0313(3)
O5 O 0.87372(14) -0.17598(9) 0.9224(3)
N1 N 0.75303(15) -0.36324(10) 1.0649(3)
C1 C 0.82000(19) -0.41419(12) 1.0924(3)
C2 C 0.9289(2) -0.40514(15) 1.0849(4)
H1 H 0.9746 -0.4410 1.1025
C3 C 0.96785(19) -0.34190(13) 1.0509(4)
H2 H 1.0404 -0.3345 1.0480
C4 C 0.8979(2) -0.28921(12) 1.0208(4)
C5 C 0.7904(2) -0.30184(12) 1.0261(5)
H3 H 0.7431 -0.2672 1.0023
C6 C 0.77112(16) -0.48161(10) 1.1395(6)
C7 C 0.9375(2) -0.21942(13) 0.9882(4)
H4 H 0.422(3) -0.446(3) 1.287(10)
In1G In 0.415340(10) -0.389077(6) 1.63246(5)
In1B In 1.084660(10) -0.110923(6) 1.13246(5)
In1E In 0.915340(10) -0.110923(6) 0.63246(5)
O1G O 0.54036(14) -0.41978(10) 0.8218(3)
O4B O 0.53411(14) -0.28995(9) 1.0313(3)
O5E O 0.62628(14) -0.32402(9) 1.4224(3)
H4G H 0.578(3) -0.446(3) 0.787(10)
loop_
_geom_bond_atom_site_label_1
_geom_bond_atom_site_label_2
_geom_bond_site_symmetry_1
_geom_bond_site_symmetry_2
In1 O1 1_555 1_555
O1 H4 1_555 1_555
O2 In1 1_555 1_555
O3 C6 1_555 1_555
O4 C7 1_555 1_555
O5 C7 1_555 1_555
N1 In1 1_555 1_555
C1 N1 1_555 1_555
C2 C1 1_555 1_555
H1 C2 1_555 1_555
C3 C2 1_555 1_555
H2 C3 1_555 1_555
C4 C3 1_555 1_555
C5 N1 1_555 1_555
H3 C5 1_555 1_555
C6 O2 1_555 1_555
C7 C4 1_555 1_555
In1G O1 1_555 1_555
In1B O4 1_555 1_555
In1E O5 1_555 1_555
O1G In1 1_555 1_555
O4B In1 1_555 1_555
O5E In1 1_555 1_555
H4G O1G 1_555 1_555
C1 C6 1_555 1_555
C4 C5 1_555 1_555

#END
