
#######################################################################
#
#                 Cambridge Crystallographic Data Centre
#                                CCDC 
#
#######################################################################
#
# If this CIF has been generated from an entry in the Cambridge 
# Structural Database, then it will include bibliographic, chemical, 
# crystal, experimental, refinement or atomic coordinate data resulting 
# from the CCDC's data processing and validation procedures.
#
#######################################################################

data_LIZKOV
_symmetry_cell_setting           orthorhombic
_symmetry_space_group_name_H-M   'I b a 2'
_symmetry_Int_Tables_number      45
_space_group_name_Hall           'I 2 -2c'
loop_
_symmetry_equiv_pos_site_id
_symmetry_equiv_pos_as_xyz
1 x,y,z
2 -x,-y,z
3 -x,y,1/2+z
4 x,-y,1/2+z
5 1/2+x,1/2+y,1/2+z
6 1/2-x,1/2-y,1/2+z
7 1/2-x,1/2+y,z
8 1/2+x,1/2-y,z
_cell_length_a                   12.6324(10)
_cell_length_b                   20.0884(16)
_cell_length_c                   6.2171(5)
_cell_angle_alpha                90
_cell_angle_beta                 90
_cell_angle_gamma                90
_cell_volume                     1577.68
loop_
_atom_site_label
_atom_site_type_symbol
_atom_site_fract_x
_atom_site_fract_y
_atom_site_fract_z
In1 In 0.084657(17) 0.110980(10) 0.28451(9)
O1 O 0.1708(2) 0.02004(13) 0.2361(5)
O2 O 0.32643(19) -0.03081(12) 0.2788(10)
O3 O 0.5337(2) 0.29000(14) 0.3852(5)
O4 O 0.3740(2) 0.32415(15) 0.4938(5)
N1 N 0.2527(2) 0.13676(15) 0.3516(5)
C1 C 0.2710(2) 0.01836(16) 0.2798(12)
C2 C 0.3202(3) 0.08586(19) 0.3227(8)
C3 C 0.4285(3) 0.0948(2) 0.3322(7)
H1 H 0.4741 0.0588 0.3163
C4 C 0.4680(3) 0.15828(19) 0.3658(7)
H2 H 0.5406 0.1657 0.3673
C5 C 0.3977(3) 0.21111(19) 0.3974(7)
C6 C 0.2910(3) 0.1979(2) 0.3903(7)
H3 H 0.2436 0.2326 0.4132
C7 C 0.4374(3) 0.2803(2) 0.4300(7)
O5 O -0.0401(2) 0.08018(15) 0.0948(5)
H4 H -0.0731 0.0536 0.1339
In1G In 0.584657(17) 0.389020(10) 0.28451(9)
In1E In 0.415343(17) 0.389020(10) 0.78451(9)
In1B In -0.084657(17) 0.110980(10) -0.21549(9)
O3G O 0.0337(2) 0.21000(14) 0.3852(5)
O4E O 0.1260(2) 0.17585(15) -0.0062(5)
O5B O 0.0401(2) 0.08018(15) 0.5948(5)
H4B H 0.0731 0.0536 0.6339
loop_
_geom_bond_atom_site_label_1
_geom_bond_atom_site_label_2
_geom_bond_site_symmetry_1
_geom_bond_site_symmetry_2
In1 O1 1_555 1_555
O1 C1 1_555 1_555
O2 C1 1_555 1_555
O3 C7 1_555 1_555
O4 C7 1_555 1_555
N1 In1 1_555 1_555
C1 C2 1_555 1_555
C2 N1 1_555 1_555
C3 C2 1_555 1_555
H1 C3 1_555 1_555
C4 C3 1_555 1_555
H2 C4 1_555 1_555
C5 C4 1_555 1_555
C6 N1 1_555 1_555
H3 C6 1_555 1_555
C7 C5 1_555 1_555
O5 In1 1_555 1_555
H4 O5 1_555 1_555
In1G O3 1_555 1_555
In1E O4 1_555 1_555
In1B O5 1_555 1_555
O3G In1 1_555 1_555
O4E In1 1_555 1_555
O5B In1 1_555 1_555
H4B O5B 1_555 1_555
C5 C6 1_555 1_555

#END
