
#######################################################################
#
#                 Cambridge Crystallographic Data Centre
#                                CCDC 
#
#######################################################################
#
# If this CIF has been generated from an entry in the Cambridge 
# Structural Database, then it will include bibliographic, chemical, 
# crystal, experimental, refinement or atomic coordinate data resulting 
# from the CCDC's data processing and validation procedures.
#
#######################################################################

data_LIZKUB
_symmetry_cell_setting           monoclinic
_symmetry_space_group_name_H-M   'C 2/c'
_symmetry_Int_Tables_number      15
_space_group_name_Hall           '-C 2yn'
loop_
_symmetry_equiv_pos_site_id
_symmetry_equiv_pos_as_xyz
1 x,y,z
2 1/2+x,1/2+y,z
3 -x,y,1/2-z
4 1/2-x,1/2+y,1/2-z
5 -x,-y,-z
6 1/2-x,1/2-y,-z
7 x,-y,1/2+z
8 1/2+x,1/2-y,1/2+z
_cell_length_a                   16.1373(11)
_cell_length_b                   9.8643(4)
_cell_length_c                   11.1582(7)
_cell_angle_alpha                90
_cell_angle_beta                 111.800(3)
_cell_angle_gamma                90
_cell_volume                     1649.17
loop_
_atom_site_label
_atom_site_type_symbol
_atom_site_fract_x
_atom_site_fract_y
_atom_site_fract_z
In1 In 0.0000 0.20069(2) 0.7500
In2 In -0.2500 0.7500 1.0000
N1 N -0.19965(11) 0.52802(17) 1.04238(16)
C1 C -0.21232(13) 0.4484(2) 1.13174(19)
H1 H -0.2462 0.4815 1.1771
C2 C -0.12174(12) 0.3452(2) 0.98897(19)
C3 C -0.17671(13) 0.3182(2) 1.15918(19)
C4 C -0.15287(13) 0.4772(2) 0.9750(2)
H2 H -0.1409 0.5333 0.9165
C5 C -0.13332(13) 0.2650(2) 1.0832(2)
H3 H -0.1123 0.1763 1.0955
O1 O 0.11731(9) 0.18581(17) 0.91904(15)
O2 O 0.0000 -0.0207(2) 0.7500
O3 O -0.24285(9) 0.27649(15) 1.31180(14)
O4 O -0.06530(10) 0.16505(16) 0.89989(15)
O5 O -0.12923(12) 0.14443(18) 1.31647(16)
C6 C -0.18259(14) 0.2381(2) 1.2704(2)
C7 C -0.07913(13) 0.2903(2) 0.9011(2)
O6 O -0.05768(10) 0.37089(16) 0.82940(15)
H4 H 0.1046(18) 0.154(3) 0.968(3)
H5 H -0.0333(17) -0.061(3) 0.772(3)
In2A In 0.2500 0.2500 1.0000
In2F In -0.2500 0.2500 1.5000
In2F_2 In -0.2500 0.2500 0.5000
In2G In 0.2500 0.7500 0.5000
In2A_2 In 0.2500 0.2500 0.0000
N1B N 0.19965(11) 0.52802(17) 0.45762(16)
N1E N -0.30035(11) 0.97198(17) 0.95762(16)
C1B C 0.21232(13) 0.4484(2) 0.36826(19)
H1B H 0.2462 0.4815 0.3229
C2B C 0.12174(12) 0.3452(2) 0.51103(19)
C3B C 0.17671(13) 0.3182(2) 0.34082(19)
C4B C 0.15287(13) 0.4772(2) 0.5250(2)
H2B H 0.1409 0.5333 0.5835
C5B C 0.13332(13) 0.2650(2) 0.4168(2)
H3B H 0.1123 0.1763 0.4045
O1B O -0.11731(9) 0.18581(17) 0.58096(15)
O1A O -0.38269(9) 0.68581(17) 0.91904(15)
O1D O -0.11731(9) 0.81419(17) 1.08096(15)
O3B O 0.24285(9) 0.27649(15) 0.18820(14)
O3F O -0.24285(9) 0.72351(15) 0.81180(14)
O3C O -0.25715(9) 0.77649(15) 1.18820(14)
O4B O 0.06530(10) 0.16505(16) 0.60011(15)
O5B O 0.12923(12) 0.14443(18) 0.18353(16)
C6B C 0.18259(14) 0.2381(2) 0.2296(2)
C7B C 0.07913(13) 0.2903(2) 0.5989(2)
O6B O 0.05768(10) 0.37089(16) 0.67060(15)
H4B H -0.1046(18) 0.154(3) 0.532(3)
H4A H -0.3954(18) 0.654(3) 0.968(3)
H4D H -0.1046(18) 0.846(3) 1.032(3)
H5B H 0.0333(17) -0.061(3) 0.728(3)
loop_
_geom_bond_atom_site_label_1
_geom_bond_atom_site_label_2
_geom_bond_site_symmetry_1
_geom_bond_site_symmetry_2
In1 O1 1_555 1_555
In2 N1 1_555 1_555
N1 C1 1_555 1_555
C1 H1 1_555 1_555
C2 C4 1_555 1_555
C3 C1 1_555 1_555
C4 N1 1_555 1_555
H2 C4 1_555 1_555
C5 C2 1_555 1_555
H3 C5 1_555 1_555
O1 H4 1_555 1_555
O2 In1 1_555 1_555
O3 C6 1_555 1_555
O4 In1 1_555 1_555
O5 C6 1_555 1_555
C6 C3 1_555 1_555
C7 C2 1_555 1_555
O6 In1 1_555 1_555
H5 O2 1_555 1_555
In2A O1 1_555 1_555
In2F O3 1_555 1_555
In2F_2 O1B 1_555 1_555
In2G N1B 1_555 1_555
In2A_2 O3B 1_555 1_555
N1B C1B 1_555 1_555
N1E In2 1_555 1_555
C1B H1B 1_555 1_555
C2B C4B 1_555 1_555
C3B C1B 1_555 1_555
C4B N1B 1_555 1_555
H2B C4B 1_555 1_555
C5B C2B 1_555 1_555
H3B C5B 1_555 1_555
O1B In1 1_555 1_555
O1A In2 1_555 1_555
O1D In2 1_555 1_555
O3B C6B 1_555 1_555
O3F In2 1_555 1_555
O3C In2 1_555 1_555
O4B In1 1_555 1_555
O5B C6B 1_555 1_555
C6B C3B 1_555 1_555
C7B C2B 1_555 1_555
O6B In1 1_555 1_555
H4B O1B 1_555 1_555
H4A O1A 1_555 1_555
H4D O1D 1_555 1_555
H5B O2 1_555 1_555
C3 C5 1_555 1_555
O4 C7 1_555 1_555
C7 O6 1_555 1_555
C3B C5B 1_555 1_555
O4B C7B 1_555 1_555
C7B O6B 1_555 1_555

#END
