
#######################################################################
#
#                 Cambridge Crystallographic Data Centre
#                                CCDC 
#
#######################################################################
#
# If this CIF has been generated from an entry in the Cambridge 
# Structural Database, then it will include bibliographic, chemical, 
# crystal, experimental, refinement or atomic coordinate data resulting 
# from the CCDC's data processing and validation procedures.
#
#######################################################################

data_LIZMAK
_symmetry_cell_setting           monoclinic
_symmetry_space_group_name_H-M   'P 2/n'
_symmetry_Int_Tables_number      13
_space_group_name_Hall           '-P 2yac'
loop_
_symmetry_equiv_pos_site_id
_symmetry_equiv_pos_as_xyz
1 x,y,z
2 1/2-x,y,1/2-z
3 -x,-y,-z
4 1/2+x,-y,1/2+z
_cell_length_a                   17.5013(3)
_cell_length_b                   8.3208(2)
_cell_length_c                   23.4388(4)
_cell_angle_alpha                90
_cell_angle_beta                 94.540(2)
_cell_angle_gamma                90
_cell_volume                     3402.56
loop_
_atom_site_label
_atom_site_type_symbol
_atom_site_fract_x
_atom_site_fract_y
_atom_site_fract_z
Mn1 Mn 0.454577(14) 0.24909(3) 0.522010(11)
Cl1 Cl -0.04052(3) 0.28824(7) 0.44695(2)
Cl2 Cl 0.39771(3) 0.19947(7) 0.88663(2)
O1 O 0.38062(7) 0.07050(16) 0.48183(5)
O2 O 0.44476(8) -0.13112(19) 0.44751(7)
O3 O 0.49479(8) 0.43366(16) 0.58016(5)
O4 O 0.50721(7) 0.69267(16) 0.55988(5)
O5 O 0.35116(8) 0.39603(18) 0.50535(7)
O6 O 0.40194(8) 0.15756(17) 0.60057(6)
N1 N 0.24478(8) 0.14880(19) 0.43191(6)
H1 H 0.2795 0.1646 0.4606
N2 N 0.49577(9) 0.3670(2) 0.69285(6)
H2 H 0.4662 0.3586 0.6608
N3 N 0.27237(8) 0.58783(19) 0.53504(7)
N4 N 0.35786(9) -0.0510(2) 0.65027(7)
C1 C 0.38670(9) -0.0448(2) 0.44819(7)
C2 C 0.32069(9) -0.0803(2) 0.40470(7)
C3 C 0.32704(10) -0.2131(2) 0.36928(7)
H3 H 0.3710 -0.2800 0.3750
C4 C 0.27138(10) -0.2510(2) 0.32599(8)
H4 H 0.2765 -0.3430 0.3026
C5 C 0.20795(10) -0.1513(2) 0.31760(8)
H5 H 0.1700 -0.1738 0.2874
C6 C 0.19906(9) -0.0202(2) 0.35236(7)
H6 H 0.1549 0.0456 0.3459
C7 C 0.25437(9) 0.0179(2) 0.39735(7)
C8 C 0.18359(9) 0.2603(2) 0.42509(7)
C9 C 0.19932(10) 0.4166(2) 0.40918(8)
H7 H 0.2496 0.4440 0.4000
C10 C 0.14270(11) 0.5330(2) 0.40656(8)
H8 H 0.1545 0.6404 0.3968
C11 C 0.06878(11) 0.4925(3) 0.41818(8)
H9 H 0.0293 0.5710 0.4161
C12 C 0.05376(10) 0.3356(2) 0.43277(8)
C13 C 0.10931(10) 0.2151(2) 0.43793(7)
C14 C 0.09204(11) 0.0496(2) 0.45867(9)
H10 H 0.0613 0.0574 0.4917
H11 H 0.1401 -0.0064 0.4699
H12 H 0.0634 -0.0103 0.4280
C15 C 0.51617(9) 0.5732(2) 0.59280(7)
C16 C 0.55600(9) 0.5992(2) 0.65158(7)
C17 C 0.60747(10) 0.7262(2) 0.65838(8)
H13 H 0.6126 0.7974 0.6272
C18 C 0.65167(10) 0.7521(2) 0.70934(8)
H14 H 0.6870 0.8388 0.7130
C19 C 0.64313(10) 0.6491(2) 0.75462(8)
H15 H 0.6732 0.6651 0.7897
C20 C 0.59157(10) 0.5232(2) 0.74963(8)
H16 H 0.5861 0.4550 0.7816
C21 C 0.54717(10) 0.4942(2) 0.69817(7)
C22 C 0.48803(10) 0.2502(2) 0.73587(8)
C23 C 0.51507(10) 0.0959(2) 0.72717(8)
H17 H 0.5409 0.0732 0.6939
C24 C 0.50486(11) -0.0246(3) 0.76623(9)
H18 H 0.5225 -0.1303 0.7594
C25 C 0.46883(11) 0.0086(2) 0.81544(9)
H19 H 0.4619 -0.0732 0.8428
C26 C 0.44317(10) 0.1631(3) 0.82379(8)
C27 C 0.45028(10) 0.2876(2) 0.78508(8)
C28 C 0.41677(12) 0.4516(3) 0.79339(9)
H20 H 0.3667 0.4406 0.8089
H21 H 0.4106 0.5075 0.7565
H22 H 0.4512 0.5135 0.8201
C29 C 0.33396(10) 0.5389(3) 0.51048(8)
H23 H 0.3666 0.6179 0.4961
C30 C 0.24735(12) 0.7544(2) 0.53252(9)
H24 H 0.2884 0.8219 0.5195
H25 H 0.2351 0.7894 0.5707
H26 H 0.2017 0.7642 0.5057
C31 C 0.22178(12) 0.4717(3) 0.55895(10)
H27 H 0.1744 0.4624 0.5339
H28 H 0.2095 0.5074 0.5970
H29 H 0.2473 0.3668 0.5621
C32 C 0.40073(11) 0.0127(3) 0.61210(8)
H30 H 0.4325 -0.0571 0.5924
C33 C 0.30948(13) 0.0501(3) 0.68283(10)
H31 H 0.3093 0.1598 0.6676
H32 H 0.3294 0.0510 0.7231
H33 H 0.2571 0.0076 0.6797
C34 C 0.36348(14) -0.2198(3) 0.66550(11)
H34 H 0.3958 -0.2752 0.6394
H35 H 0.3122 -0.2678 0.6625
H36 H 0.3862 -0.2303 0.7049
Mn1B Mn 0.545423(14) -0.24909(3) 0.477990(11)
Mn1B_2 Mn 0.545423(14) 0.75091(3) 0.477990(11)
O2B O 0.55524(8) 0.13112(19) 0.55249(7)
O4B O 0.49279(7) 0.30733(16) 0.44012(5)
loop_
_geom_bond_atom_site_label_1
_geom_bond_atom_site_label_2
_geom_bond_site_symmetry_1
_geom_bond_site_symmetry_2
Mn1 O1 1_555 1_555
Cl1 C12 1_555 1_555
Cl2 C26 1_555 1_555
O1 C1 1_555 1_555
O2 C1 1_555 1_555
O3 Mn1 1_555 1_555
O4 C15 1_555 1_555
O5 Mn1 1_555 1_555
O6 Mn1 1_555 1_555
N1 H1 1_555 1_555
N2 H2 1_555 1_555
N3 C29 1_555 1_555
N4 C32 1_555 1_555
C1 C2 1_555 1_555
C2 C3 1_555 1_555
C3 H3 1_555 1_555
C4 C3 1_555 1_555
H4 C4 1_555 1_555
C5 C4 1_555 1_555
H5 C5 1_555 1_555
C6 C5 1_555 1_555
H6 C6 1_555 1_555
C7 N1 1_555 1_555
C8 N1 1_555 1_555
C9 C8 1_555 1_555
H7 C9 1_555 1_555
C10 C9 1_555 1_555
H8 C10 1_555 1_555
C11 C10 1_555 1_555
H9 C11 1_555 1_555
C12 C11 1_555 1_555
C13 C8 1_555 1_555
C14 C13 1_555 1_555
H10 C14 1_555 1_555
H11 C14 1_555 1_555
H12 C14 1_555 1_555
C15 O3 1_555 1_555
C16 C15 1_555 1_555
C17 C16 1_555 1_555
H13 C17 1_555 1_555
C18 C17 1_555 1_555
H14 C18 1_555 1_555
C19 C18 1_555 1_555
H15 C19 1_555 1_555
C20 C19 1_555 1_555
H16 C20 1_555 1_555
C21 N2 1_555 1_555
C22 N2 1_555 1_555
C23 C22 1_555 1_555
H17 C23 1_555 1_555
C24 C23 1_555 1_555
H18 C24 1_555 1_555
C25 C24 1_555 1_555
H19 C25 1_555 1_555
C26 C25 1_555 1_555
C27 C22 1_555 1_555
C28 C27 1_555 1_555
H20 C28 1_555 1_555
H21 C28 1_555 1_555
H22 C28 1_555 1_555
C29 O5 1_555 1_555
H23 C29 1_555 1_555
C30 N3 1_555 1_555
H24 C30 1_555 1_555
H25 C30 1_555 1_555
H26 C30 1_555 1_555
C31 N3 1_555 1_555
H27 C31 1_555 1_555
H28 C31 1_555 1_555
H29 C31 1_555 1_555
C32 O6 1_555 1_555
H30 C32 1_555 1_555
C33 N4 1_555 1_555
H31 C33 1_555 1_555
H32 C33 1_555 1_555
H33 C33 1_555 1_555
C34 N4 1_555 1_555
H34 C34 1_555 1_555
H35 C34 1_555 1_555
H36 C34 1_555 1_555
Mn1B O2 1_555 1_555
Mn1B_2 O4 1_555 1_555
O2B Mn1 1_555 1_555
O4B Mn1 1_555 1_555
C2 C7 1_555 1_555
C6 C7 1_555 1_555
C12 C13 1_555 1_555
C16 C21 1_555 1_555
C20 C21 1_555 1_555
C26 C27 1_555 1_555

#END
