
#######################################################################
#
#                 Cambridge Crystallographic Data Centre
#                                CCDC 
#
#######################################################################
#
# If this CIF has been generated from an entry in the Cambridge 
# Structural Database, then it will include bibliographic, chemical, 
# crystal, experimental, refinement or atomic coordinate data resulting 
# from the CCDC's data processing and validation procedures.
#
#######################################################################

data_LIZTIZ
_symmetry_cell_setting           monoclinic
_symmetry_space_group_name_H-M   'P 21/c'
_symmetry_Int_Tables_number      14
_space_group_name_Hall           '-P 2ybc'
loop_
_symmetry_equiv_pos_site_id
_symmetry_equiv_pos_as_xyz
1 x,y,z
2 -x,1/2+y,1/2-z
3 -x,-y,-z
4 x,1/2-y,1/2+z
_cell_length_a                   8.047(2)
_cell_length_b                   8.016(2)
_cell_length_c                   12.733(4)
_cell_angle_alpha                90
_cell_angle_beta                 95.380(4)
_cell_angle_gamma                90
_cell_volume                     817.721
loop_
_atom_site_label
_atom_site_type_symbol
_atom_site_fract_x
_atom_site_fract_y
_atom_site_fract_z
Ag1 Ag 0.46034(4) 0.73247(5) 0.45525(2)
C1 C 0.4353(4) 0.8189(5) 0.6997(3)
H1 H 0.3193 0.8139 0.6936
C2 C 0.6835(4) 0.8289(5) 0.7662(3)
H2 H 0.7787 0.8318 0.8136
C3 C 0.9141(4) 1.0187(4) 0.6163(2)
C4 C 0.8259(4) 0.8480(4) 0.5980(2)
H3 H 0.7815 0.8435 0.5237
C5 C 0.9442(4) 0.7031(4) 0.6176(3)
H4 H 0.9888 0.7044 0.6911
H5 H 1.0370 0.7177 0.5750
C6 C 0.8645(4) 0.5340(4) 0.5926(3)
N1 N 0.5228(3) 0.8276(4) 0.6179(2)
N2 N 0.5288(3) 0.8180(4) 0.7932(2)
N3 N 0.6830(3) 0.8348(3) 0.66201(19)
O1 O 0.8156(3) 1.1400(3) 0.6238(2)
O2 O 1.0667(3) 1.0266(3) 0.61957(19)
O3 O 0.9507(3) 0.4141(3) 0.6350(2)
H6 H 0.8971 0.3272 0.6279
O4 O 0.7345(3) 0.5171(3) 0.5361(2)
Ag1B Ag 0.53966(4) 0.26753(5) 0.54475(2)
Ag1B_2 Ag 0.53966(4) 1.26753(5) 0.54475(2)
Ag1C Ag 0.46034(4) 0.76753(5) 0.95525(2)
N2C N 0.5288(3) 0.6820(4) 0.2932(2)
O1B O 0.1844(3) 0.8600(3) 0.3762(2)
O4B O 0.2655(3) 0.4829(3) 0.4639(2)
loop_
_geom_bond_atom_site_label_1
_geom_bond_atom_site_label_2
_geom_bond_site_symmetry_1
_geom_bond_site_symmetry_2
Ag1 N1 1_555 1_555
C1 H1 1_555 1_555
C2 H2 1_555 1_555
C3 C4 1_555 1_555
C4 H3 1_555 1_555
C5 C4 1_555 1_555
H4 C5 1_555 1_555
H5 C5 1_555 1_555
C6 C5 1_555 1_555
N1 C1 1_555 1_555
N2 C1 1_555 1_555
N3 C2 1_555 1_555
O1 C3 1_555 1_555
O2 C3 1_555 1_555
O3 C6 1_555 1_555
H6 O3 1_555 1_555
O4 C6 1_555 1_555
Ag1B O4 1_555 1_555
Ag1B_2 O1 1_555 1_555
Ag1C N2 1_555 1_555
N2C Ag1 1_555 1_555
O1B Ag1 1_555 1_555
O4B Ag1 1_555 1_555
C2 N2 1_555 1_555
C4 N3 1_555 1_555
N1 N3 1_555 1_555

#END
