
#######################################################################
#
#                 Cambridge Crystallographic Data Centre
#                                CCDC 
#
#######################################################################
#
# If this CIF has been generated from an entry in the Cambridge 
# Structural Database, then it will include bibliographic, chemical, 
# crystal, experimental, refinement or atomic coordinate data resulting 
# from the CCDC's data processing and validation procedures.
#
#######################################################################

data_LIZVUM
_symmetry_cell_setting           monoclinic
_symmetry_space_group_name_H-M   'P 21/n'
_symmetry_Int_Tables_number      14
_space_group_name_Hall           '-P 2yn'
loop_
_symmetry_equiv_pos_site_id
_symmetry_equiv_pos_as_xyz
1 x,y,z
2 1/2-x,1/2+y,1/2-z
3 -x,-y,-z
4 1/2+x,1/2-y,1/2+z
_cell_length_a                   26.1000(21)
_cell_length_b                   13.6983(11)
_cell_length_c                   4.15286(35)
_cell_angle_alpha                90
_cell_angle_beta                 95.324(4)
_cell_angle_gamma                90
_cell_volume                     1478.35
loop_
_atom_site_label
_atom_site_type_symbol
_atom_site_fract_x
_atom_site_fract_y
_atom_site_fract_z
Cu1 Cu 0.5647(17) 0.4656(33) 0.1187(19)
S1 S 0.50296(7) 0.35209(14) 0.0202(8)
O1 O 0.621616(25) -0.01967(8) 0.15546(30)
C1 C 0.537869(32) 0.24037(5) 0.0546(4)
C2 C 0.584809(28) 0.23233(5) -0.07627(32)
C3 C 0.613058(26) 0.14642(5) -0.03813(32)
C4 C 0.593927(27) 0.06792(5) 0.12583(33)
C5 C 0.546931(28) 0.07588(5) 0.25606(31)
C6 C 0.518673(26) 0.16178(5) 0.21777(32)
C7 C 0.591293(21) -0.09307(4) 0.30304(15)
H1 H 0.59778(5) 0.28621(10) -0.1923(8)
H2 H 0.64601(8) 0.14163(7) -0.1222(6)
H3 H 0.53422(5) 0.02240(10) 0.3751(8)
H4 H 0.48595(8) 0.16690(7) 0.3046(6)
H5 H 0.60933(4) -0.15423(10) 0.31046(24)
H6 H 0.58574(4) -0.07321(7) 0.5188(4)
H7 H 0.55873(5) -0.10038(7) 0.17761(27)
Cu2 Cu 0.4826(10) 0.4022(24) 0.5083(17)
S2 S 0.58872(9) 0.50967(13) -0.3673(8)
O2 O 0.767884(28) 0.77290(7) -0.04843(27)
C8 C 0.643258(30) 0.58678(5) -0.2852(4)
C9 C 0.686397(29) 0.55271(5) -0.09720(29)
C10 C 0.728266(29) 0.61405(5) -0.02358(29)
C11 C 0.726929(29) 0.70955(5) -0.13711(29)
C12 C 0.684327(29) 0.74284(5) -0.33187(27)
C13 C 0.642327(29) 0.68171(5) -0.40387(28)
C14 C 0.754682(22) 0.87055(4) -0.16232(14)
H8 H 0.68749(4) 0.48651(13) -0.0211(5)
H9 H 0.75792(7) 0.59073(8) 0.1081(10)
H10 H 0.68414(4) 0.80770(13) -0.4195(5)
H11 H 0.61284(7) 0.70479(8) -0.5376(10)
H12 H 0.77933(4) 0.91621(7) -0.06446(26)
H13 H 0.75499(4) 0.87293(7) -0.3932(4)
H14 H 0.72099(6) 0.88719(6) -0.10474(25)
Cu1_2 Cu 0.5647(17) 0.4656(33) -0.8813(19)
S1_2 S 0.50296(7) 0.35209(14) 1.0202(8)
Cu2_2 Cu 0.4826(10) 0.4022(24) -0.4917(17)
Cu2B Cu 0.5174(10) 0.5978(24) -0.5083(17)
S2_2 S 0.58872(9) 0.50967(13) 0.6327(8)
S2B S 0.41128(9) 0.49033(13) 0.3673(8)
loop_
_geom_bond_atom_site_label_1
_geom_bond_atom_site_label_2
_geom_bond_site_symmetry_1
_geom_bond_site_symmetry_2
Cu1 S1 1_555 1_555
S1 C1 1_555 1_555
O1 C4 1_555 1_555
C1 C2 1_555 1_555
C2 C3 1_555 1_555
C3 C4 1_555 1_555
C4 C5 1_555 1_555
C5 C6 1_555 1_555
C6 C1 1_555 1_555
C7 O1 1_555 1_555
H1 C2 1_555 1_555
H2 C3 1_555 1_555
H3 C5 1_555 1_555
H4 C6 1_555 1_555
H5 C7 1_555 1_555
H6 C7 1_555 1_555
H7 C7 1_555 1_555
Cu2 S1 1_555 1_555
S2 Cu1 1_555 1_555
O2 C11 1_555 1_555
C8 S2 1_555 1_555
C9 C8 1_555 1_555
C10 C9 1_555 1_555
C11 C10 1_555 1_555
C12 C11 1_555 1_555
C13 C8 1_555 1_555
C14 O2 1_555 1_555
H8 C9 1_555 1_555
H9 C10 1_555 1_555
H10 C12 1_555 1_555
H11 C13 1_555 1_555
H12 C14 1_555 1_555
H13 C14 1_555 1_555
H14 C14 1_555 1_555
Cu1_2 S2 1_555 1_555
S1_2 Cu2 1_555 1_555
Cu2_2 S1 1_555 1_555
Cu2B S2 1_555 1_555
S2_2 Cu1 1_555 1_555
S2B Cu2 1_555 1_555
C12 C13 1_555 1_555

#END
