
#######################################################################
#
#                 Cambridge Crystallographic Data Centre
#                                CCDC 
#
#######################################################################
#
# If this CIF has been generated from an entry in the Cambridge 
# Structural Database, then it will include bibliographic, chemical, 
# crystal, experimental, refinement or atomic coordinate data resulting 
# from the CCDC's data processing and validation procedures.
#
#######################################################################

data_LIZVOG
_symmetry_cell_setting           tetragonal
_symmetry_space_group_name_H-M   'P 42/n'
_symmetry_Int_Tables_number      86
_space_group_name_Hall           '-P 4bc'
loop_
_symmetry_equiv_pos_site_id
_symmetry_equiv_pos_as_xyz
1 x,y,z
2 -y,1/2+x,1/2+z
3 1/2+y,-x,1/2+z
4 1/2-x,1/2-y,z
5 -x,-y,-z
6 y,1/2-x,1/2-z
7 1/2-y,x,1/2-z
8 1/2+x,1/2+y,-z
_cell_length_a                   17.3571(22)
_cell_length_b                   17.3571(22)
_cell_length_c                   3.8268(16)
_cell_angle_alpha                90
_cell_angle_beta                 90
_cell_angle_gamma                90
_cell_volume                     1152.9
loop_
_atom_site_label
_atom_site_type_symbol
_atom_site_fract_x
_atom_site_fract_y
_atom_site_fract_z
Cu1 Cu 0.35223(18) 0.23384(5) 0.05246(24)
S1 S 0.29828(5) 0.115390(28) -0.05774(16)
C1 C 0.324840(10) 0.019760(16) -0.16928(9)
C2 C 0.282210(9) -0.042040(13) -0.04293(7)
C3 C 0.300280(10) -0.116660(12) -0.14634(7)
C4 C 0.361280(10) -0.129500(12) -0.37473(7)
C5 C 0.404880(9) -0.067830(13) -0.49547(7)
C6 C 0.386910(10) 0.006770(12) -0.39151(7)
H1 H 0.239390(13) -0.03308(7) 0.1106(7)
H2 H 0.270200(21) -0.159260(24) -0.06271(12)
H3 H 0.37377(4) -0.181040(18) -0.44609(11)
H4 H 0.447490(13) -0.07677(6) -0.6503(7)
H5 H 0.416590(21) 0.049430(23) -0.47743(12)
Cu1E Cu 0.23384(5) 0.14777(18) -0.55246(24)
Cu1E_2 Cu 0.23384(5) 0.14777(18) 0.44754(24)
S1F S 0.384610(28) 0.29828(5) -0.44226(16)
S1F_2 S 0.384610(28) 0.29828(5) 0.55774(16)
loop_
_geom_bond_atom_site_label_1
_geom_bond_atom_site_label_2
_geom_bond_site_symmetry_1
_geom_bond_site_symmetry_2
Cu1 S1 1_555 1_555
S1 C1 1_555 1_555
C1 C2 1_555 1_555
C2 C3 1_555 1_555
C3 C4 1_555 1_555
C4 C5 1_555 1_555
C5 C6 1_555 1_555
C6 C1 1_555 1_555
H1 C2 1_555 1_555
H2 C3 1_555 1_555
H3 C4 1_555 1_555
H4 C5 1_555 1_555
H5 C6 1_555 1_555
Cu1E S1 1_555 1_555
Cu1E_2 S1 1_555 1_555
S1F Cu1 1_555 1_555
S1F_2 Cu1 1_555 1_555

#END
