
#######################################################################
#
#                 Cambridge Crystallographic Data Centre
#                                CCDC 
#
#######################################################################
#
# If this CIF has been generated from an entry in the Cambridge 
# Structural Database, then it will include bibliographic, chemical, 
# crystal, experimental, refinement or atomic coordinate data resulting 
# from the CCDC's data processing and validation procedures.
#
#######################################################################

data_LIZWAT
_symmetry_cell_setting           tetragonal
_symmetry_space_group_name_H-M   'P 42/n'
_symmetry_Int_Tables_number      86
_space_group_name_Hall           '-P 4bc'
loop_
_symmetry_equiv_pos_site_id
_symmetry_equiv_pos_as_xyz
1 x,y,z
2 -y,1/2+x,1/2+z
3 1/2+y,-x,1/2+z
4 1/2-x,1/2-y,z
5 -x,-y,-z
6 y,1/2-x,1/2-z
7 1/2-y,x,1/2-z
8 1/2+x,1/2+y,-z
_cell_length_a                   19.7270(9)
_cell_length_b                   19.7270(9)
_cell_length_c                   3.9685(4)
_cell_angle_alpha                90
_cell_angle_beta                 90
_cell_angle_gamma                90
_cell_volume                     1544.36
loop_
_atom_site_label
_atom_site_type_symbol
_atom_site_fract_x
_atom_site_fract_y
_atom_site_fract_z
Cu1 Cu 0.2598(17) 0.3444(14) -0.2383(34)
S1 S 0.217580(21) 0.39324(4) -0.73586(26)
N1 N 0.073600(8) 0.654320(8) -0.95340(13)
O1 O 0.105130(15) 0.704020(23) -1.0320(12)
O2 O 0.01311(8) 0.657210(13) -0.92543(27)
C1 C 0.174800(9) 0.471130(8) -0.79793(12)
C2 C 0.209540(8) 0.526690(7) -0.93006(9)
C3 C 0.174920(7) 0.586910(8) -0.99636(8)
C4 C 0.106800(8) 0.593170(8) -0.90773(9)
C5 C 0.072520(8) 0.538230(7) -0.76613(9)
C6 C 0.106240(7) 0.476820(8) -0.71685(10)
H1 H 0.25760(8) 0.524170(10) -0.96563(15)
H2 H 0.197390(12) 0.623220(18) -1.1120(7)
H3 H 0.02637(9) 0.543270(10) -0.69350(16)
H4 H 0.081980(12) 0.438210(18) -0.6323(7)
Cu1E Cu 0.3444(14) 0.2402(17) -0.2617(34)
Cu1F Cu 0.1556(14) 0.2598(17) -0.2617(34)
Cu1_2 Cu 0.2598(17) 0.3444(14) -1.2383(34)
S1_2 S 0.217580(21) 0.39324(4) 0.26414(26)
loop_
_geom_bond_atom_site_label_1
_geom_bond_atom_site_label_2
_geom_bond_site_symmetry_1
_geom_bond_site_symmetry_2
Cu1 S1 1_555 1_555
S1 C1 1_555 1_555
N1 O1 1_555 1_555
O2 N1 1_555 1_555
C1 C2 1_555 1_555
C2 C3 1_555 1_555
C3 C4 1_555 1_555
C4 N1 1_555 1_555
C5 C4 1_555 1_555
C6 C1 1_555 1_555
H1 C2 1_555 1_555
H2 C3 1_555 1_555
H3 C5 1_555 1_555
H4 C6 1_555 1_555
Cu1E Cu1 1_555 1_555
Cu1F Cu1 1_555 1_555
Cu1_2 S1 1_555 1_555
S1_2 Cu1 1_555 1_555
C5 C6 1_555 1_555

#END
