
#######################################################################
#
#                 Cambridge Crystallographic Data Centre
#                                CCDC 
#
#######################################################################
#
# If this CIF has been generated from an entry in the Cambridge 
# Structural Database, then it will include bibliographic, chemical, 
# crystal, experimental, refinement or atomic coordinate data resulting 
# from the CCDC's data processing and validation procedures.
#
#######################################################################

data_LIZXOJ
_symmetry_cell_setting           triclinic
_symmetry_space_group_name_H-M   'P -1'
_symmetry_Int_Tables_number      2
_space_group_name_Hall           '-P 1'
loop_
_symmetry_equiv_pos_site_id
_symmetry_equiv_pos_as_xyz
1 x,y,z
2 -x,-y,-z
_cell_length_a                   10.3914(7)
_cell_length_b                   12.7364(9)
_cell_length_c                   13.0153(9)
_cell_angle_alpha                107.453(7)
_cell_angle_beta                 105.230(8)
_cell_angle_gamma                97.342(8)
_cell_volume                     1545.1
loop_
_atom_site_label
_atom_site_type_symbol
_atom_site_fract_x
_atom_site_fract_y
_atom_site_fract_z
Co1 Co 0.04181(7) 0.02983(6) 0.40188(6)
Co2 Co -0.08117(7) 0.21534(6) 0.60233(6)
O1 O -0.1378(4) 0.0713(3) 0.3212(3)
O2 O -0.2012(4) 0.2006(3) 0.4442(3)
O3 O -0.4103(4) -0.0320(4) 0.3549(4)
O4 O -0.6228(5) -0.0038(5) 0.3106(5)
H1 H -0.6320 -0.0412 0.3508
O5 O -0.1881(4) 0.2523(3) 0.2055(3)
O6 O -0.0175(4) 0.0641(3) -0.2335(3)
O7 O -0.0119(4) 0.2422(3) -0.2258(3)
O8 O -0.0479(4) -0.1094(3) 0.4328(3)
H2 H -0.1195 -0.1358 0.3783
O9 O 0.2230(4) -0.0492(3) 0.4361(4)
N1 N 0.9328(5) 0.6445(4) 0.3842(4)
N2 N 0.1775(5) 0.1637(4) 0.3961(4)
C1 C -0.2153(6) 0.1333(5) 0.3476(5)
C2 C -0.3403(6) 0.1309(5) 0.2529(5)
C3 C -0.4721(6) 0.0730(5) 0.2352(5)
C4 C -0.5793(7) 0.0763(7) 0.1469(6)
H3 H -0.6682 0.0403 0.1356
C5 C -0.5548(7) 0.1334(7) 0.0747(6)
H4 H -0.6266 0.1328 0.0141
C6 C -0.4247(7) 0.1901(6) 0.0937(6)
H5 H -0.4079 0.2289 0.0467
C7 C -0.3211(6) 0.1890(5) 0.1812(5)
C8 C -0.5059(6) 0.0095(5) 0.3076(5)
C9 C -0.1409(6) 0.2320(5) 0.1129(5)
C10 C -0.1118(7) 0.3197(5) 0.0749(5)
H6 H -0.1206 0.3918 0.1123
C11 C -0.0694(7) 0.2981(5) -0.0197(5)
H7 H -0.0504 0.3565 -0.0463
C12 C -0.0543(6) 0.1916(5) -0.0762(5)
C13 C -0.0831(6) 0.1053(5) -0.0348(5)
H8 H -0.0720 0.0336 -0.0706
C14 C -0.1278(6) 0.1248(5) 0.0584(5)
H9 H -0.1488 0.0664 0.0844
C15 C -0.0257(5) 0.1643(5) -0.1864(5)
C16 C 0.9403(7) 0.6172(5) 0.4775(6)
H10 H 1.0182 0.6510 0.5407
C17 C 0.8377(7) 0.5413(6) 0.4834(7)
H11 H 0.8473 0.5251 0.5497
C18 C 0.7216(6) 0.4898(5) 0.3919(6)
C19 C 0.7137(7) 0.5171(6) 0.2936(6)
H12 H 0.6374 0.4843 0.2290
C20 C 0.8206(6) 0.5927(5) 0.2953(6)
H13 H 0.8146 0.6092 0.2295
C21 C 0.6118(7) 0.4140(6) 0.4039(7)
H14 H 0.6372 0.3866 0.4632
C22 C 0.4845(7) 0.3806(6) 0.3424(7)
H15 H 0.4582 0.4037 0.2801
C23 C 0.3766(6) 0.3084(5) 0.3626(6)
C24 C 0.4005(7) 0.2847(6) 0.4636(7)
H16 H 0.4833 0.3174 0.5218
C25 C 0.2992(6) 0.2121(5) 0.4753(6)
H17 H 0.3168 0.1961 0.5422
C26 C 0.1553(7) 0.1905(5) 0.3014(6)
H18 H 0.0705 0.1590 0.2455
C27 C 0.2501(7) 0.2612(6) 0.2822(6)
H19 H 0.2287 0.2770 0.2153
O10 O -0.2234(6) 0.3130(5) 0.6552(6)
H20 H 0.252(10) -0.051(9) 0.381(5)
H21 H 0.282(9) 0.003(7) 0.491(5)
Co1A Co -0.04181(7) -0.02983(6) -0.40188(6)
Co1A_2 Co -0.04181(7) -0.02983(6) 0.59812(6)
Co2_2 Co -0.08117(7) 0.21534(6) -0.39767(6)
Co2A Co 0.08117(7) -0.21534(6) 0.39767(6)
Co2A_2 Co 1.08117(7) 0.78466(6) 0.39767(6)
O6A O 0.0175(4) -0.0641(3) 0.2335(3)
O7_2 O -0.0119(4) 0.2422(3) 0.7742(3)
O8A O 0.0479(4) 0.1094(3) 0.5672(3)
O9A O -0.2230(4) 0.0492(3) 0.5639(4)
N1A N 0.0672(5) 0.3555(4) 0.6158(4)
loop_
_geom_bond_atom_site_label_1
_geom_bond_atom_site_label_2
_geom_bond_site_symmetry_1
_geom_bond_site_symmetry_2
Co1 O1 1_555 1_555
Co2 O2 1_555 1_555
O1 C1 1_555 1_555
O2 C1 1_555 1_555
O3 C8 1_555 1_555
O4 H1 1_555 1_555
O5 C7 1_555 1_555
O6 C15 1_555 1_555
O7 C15 1_555 1_555
O8 Co1 1_555 1_555
H2 O8 1_555 1_555
O9 Co1 1_555 1_555
N1 C16 1_555 1_555
N2 Co1 1_555 1_555
C1 C2 1_555 1_555
C2 C3 1_555 1_555
C3 C4 1_555 1_555
C4 H3 1_555 1_555
C5 C4 1_555 1_555
H4 C5 1_555 1_555
C6 C5 1_555 1_555
H5 C6 1_555 1_555
C7 C2 1_555 1_555
C8 O4 1_555 1_555
C9 O5 1_555 1_555
C10 C9 1_555 1_555
H6 C10 1_555 1_555
C11 C10 1_555 1_555
H7 C11 1_555 1_555
C12 C11 1_555 1_555
C13 C12 1_555 1_555
H8 C13 1_555 1_555
C14 C9 1_555 1_555
H9 C14 1_555 1_555
C15 C12 1_555 1_555
C16 H10 1_555 1_555
C17 C16 1_555 1_555
H11 C17 1_555 1_555
C18 C17 1_555 1_555
C19 C18 1_555 1_555
H12 C19 1_555 1_555
C20 N1 1_555 1_555
H13 C20 1_555 1_555
C21 C18 1_555 1_555
H14 C21 1_555 1_555
C22 C21 1_555 1_555
H15 C22 1_555 1_555
C23 C22 1_555 1_555
C24 C23 1_555 1_555
H16 C24 1_555 1_555
C25 N2 1_555 1_555
H17 C25 1_555 1_555
C26 N2 1_555 1_555
H18 C26 1_555 1_555
C27 C23 1_555 1_555
H19 C27 1_555 1_555
O10 Co2 1_555 1_555
H20 O9 1_555 1_555
H21 O9 1_555 1_555
Co1A O6 1_555 1_555
Co1A_2 O8 1_555 1_555
Co2_2 O7 1_555 1_555
Co2A O8 1_555 1_555
Co2A_2 N1 1_555 1_555
O6A Co1 1_555 1_555
O7_2 Co2 1_555 1_555
O8A Co1 1_555 1_555
O9A Co2 1_555 1_555
N1A Co2 1_555 1_555
Co2 O8A 1_555 1_555
O9 Co2A 1_555 1_555
C3 C8 1_555 1_555
C6 C7 1_555 1_555
C13 C14 1_555 1_555
C19 C20 1_555 1_555
C24 C25 1_555 1_555
C26 C27 1_555 1_555
Co1A_2 O8A 1_555 1_555
Co1A_2 O9A 1_555 1_555

#END
