
#######################################################################
#
#                 Cambridge Crystallographic Data Centre
#                                CCDC 
#
#######################################################################
#
# If this CIF has been generated from an entry in the Cambridge 
# Structural Database, then it will include bibliographic, chemical, 
# crystal, experimental, refinement or atomic coordinate data resulting 
# from the CCDC's data processing and validation procedures.
#
#######################################################################

data_LIZXID
_symmetry_cell_setting           triclinic
_symmetry_space_group_name_H-M   'P -1'
_symmetry_Int_Tables_number      2
_space_group_name_Hall           '-P 1'
loop_
_symmetry_equiv_pos_site_id
_symmetry_equiv_pos_as_xyz
1 x,y,z
2 -x,-y,-z
_cell_length_a                   11.3568(12)
_cell_length_b                   12.0897(13)
_cell_length_c                   12.9531(13)
_cell_angle_alpha                95.237(2)
_cell_angle_beta                 97.074(2)
_cell_angle_gamma                107.616(2)
_cell_volume                     1666.56
loop_
_atom_site_label
_atom_site_type_symbol
_atom_site_fract_x
_atom_site_fract_y
_atom_site_fract_z
C1 C 0.9395(3) 0.4877(3) 0.9864(3)
H1 H 0.9113 0.5456 0.9598
C2 C 0.8444(3) 0.3765(3) 0.9942(3)
C3 C 0.8705(3) 0.2801(3) 1.0292(3)
H2 H 0.9527 0.2843 1.0526
C4 C 0.7748(3) 0.1788(3) 1.0291(3)
H3 H 0.7956 0.1149 1.0508
C5 C 0.6292(3) 0.2590(3) 0.9699(3)
H4 H 0.5458 0.2539 0.9518
C6 C 0.7191(3) 0.3634(3) 0.9637(3)
H5 H 0.6957 0.4248 0.9390
C7 C 0.2946(3) 0.1114(3) 0.9506(3)
C8 C 0.1798(3) 0.0994(3) 0.8728(3)
C9 C 0.1000(3) 0.1629(3) 0.8924(3)
H6 H 0.1157 0.2109 0.9562
C10 C -0.0029(3) 0.1567(3) 0.8193(3)
H7 H -0.0546 0.2011 0.8332
C11 C -0.0272(3) 0.0831(3) 0.7252(3)
C12 C 0.0489(3) 0.0163(3) 0.7059(3)
H8 H 0.0303 -0.0349 0.6437
C13 C 0.1521(3) 0.0248(3) 0.7780(3)
H9 H 0.2037 -0.0195 0.7635
C14 C -0.1999(3) 0.1440(3) 0.6583(2)
C15 C -0.2922(3) 0.1164(3) 0.7200(3)
H10 H -0.3009 0.0538 0.7584
C16 C -0.3720(3) 0.1832(3) 0.7239(3)
H11 H -0.4372 0.1634 0.7627
C17 C -0.3546(3) 0.2792(3) 0.6702(3)
H12 H -0.4059 0.3258 0.6761
C18 C -0.2620(3) 0.3069(3) 0.6079(2)
C19 C -0.1837(3) 0.2366(3) 0.5987(2)
C20 C -0.0861(3) 0.2526(3) 0.5269(3)
C21 C 0.3434(3) 0.2650(3) 0.4146(3)
H13 H 0.3510 0.3224 0.3705
C22 C 0.4208(4) 0.1971(3) 0.4101(3)
H14 H 0.4782 0.2087 0.3635
C23 C 0.4131(3) 0.1121(3) 0.4746(3)
C24 C 0.3217(4) 0.0966(3) 0.5393(3)
H15 H 0.3106 0.0381 0.5826
C25 C 0.2481(4) 0.1682(3) 0.5387(3)
H16 H 0.1878 0.1567 0.5826
C26 C 0.4996(4) 0.0417(3) 0.4712(3)
H17 H 0.5572 0.0580 0.4251
C27 C 0.4009(4) 0.5103(4) 0.6724(3)
H18 H 0.4321 0.5452 0.6161
C28 C 0.4761(4) 0.5413(4) 0.7686(3)
H19 H 0.5555 0.5958 0.7757
C29 C 0.4351(3) 0.4925(3) 0.8544(3)
C30 C 0.3169(4) 0.4110(4) 0.8359(3)
H20 H 0.2839 0.3742 0.8907
C31 C 0.2485(4) 0.3843(3) 0.7377(3)
H21 H 0.1699 0.3278 0.7278
C32 C 0.5136(3) 0.5260(3) 0.9581(2)
H22 H 0.5876 0.5881 0.9657
C33 C -0.2407(3) 0.4157(3) 0.5558(3)
Co1 Co 0.5000 0.0000 1.0000
Co2 Co 0.17723(4) 0.38563(4) 0.50055(3)
N1 N 0.2872(3) 0.4343(2) 0.6548(2)
N2 N 0.2585(3) 0.2536(2) 0.4783(2)
N3 N 0.6539(2) 0.1652(2) 1.0002(2)
O1 O 0.0251(2) 0.30967(19) 0.56889(17)
O2 O -0.1211(2) 0.2045(2) 0.43469(17)
O3 O -0.1524(2) 0.44468(19) 0.50349(19)
O4 O -0.3066(2) 0.4811(2) 0.57060(19)
O5 O 0.3098(2) 0.1680(2) 1.0399(2)
O6 O 0.3690(2) 0.06052(19) 0.91967(17)
O7 O -0.1246(2) 0.07280(19) 0.64654(17)
O8 O 0.0720(2) 0.3228(2) 0.34268(18)
O9 O 0.4722(2) 0.0773(2) 1.14543(17)
H23 H 0.0322 0.3669 0.3266
H24 H -0.0104 0.2645 0.3552
H25 H 0.4320 0.1222 1.1343
H26 H 0.5500 0.1315 1.1896
C1A C 1.0605(3) 0.5123(3) 1.0136(3)
H1A H 1.0887 0.4544 1.0402
C2A C 1.1556(3) 0.6235(3) 1.0058(3)
C3A C 1.1295(3) 0.7199(3) 0.9708(3)
H2A H 1.0473 0.7157 0.9474
C4A C 1.2252(3) 0.8212(3) 0.9709(3)
H3A H 1.2044 0.8851 0.9492
C5A C 1.3708(3) 0.7410(3) 1.0301(3)
H4A H 1.4542 0.7461 1.0482
C6A C 1.2809(3) 0.6366(3) 1.0363(3)
H5A H 1.3043 0.5752 1.0610
N3A N 1.3461(2) 0.8348(2) 0.9998(2)
C21A C 0.6566(3) -0.2650(3) 0.5854(3)
H13A H 0.6490 -0.3224 0.6295
C22A C 0.5792(4) -0.1971(3) 0.5899(3)
H14A H 0.5218 -0.2087 0.6365
C23A C 0.5869(3) -0.1121(3) 0.5254(3)
C24A C 0.6783(4) -0.0966(3) 0.4607(3)
H15A H 0.6894 -0.0381 0.4174
C25A C 0.7519(4) -0.1682(3) 0.4613(3)
H16A H 0.8122 -0.1567 0.4174
C26A C 0.5004(4) -0.0417(3) 0.5288(3)
H17A H 0.4428 -0.0580 0.5749
N2A N 0.7415(3) -0.2536(2) 0.5217(2)
C27A C 0.5991(4) 0.4897(4) 1.3276(3)
H18A H 0.5679 0.4548 1.3839
C28A C 0.5239(4) 0.4587(4) 1.2314(3)
H19A H 0.4445 0.4042 1.2243
C29A C 0.5649(3) 0.5075(3) 1.1456(3)
C30A C 0.6831(4) 0.5890(4) 1.1641(3)
H20A H 0.7161 0.6258 1.1093
C31A C 0.7515(4) 0.6157(3) 1.2623(3)
H21A H 0.8301 0.6722 1.2722
C32A C 0.4864(3) 0.4740(3) 1.0419(2)
H22A H 0.4124 0.4119 1.0343
N1A N 0.7128(3) 0.5657(2) 1.3452(2)
C7A C -0.2946(3) 0.8886(3) 0.0494(3)
C8A C -0.1798(3) 0.9006(3) 0.1272(3)
C9A C -0.1000(3) 0.8371(3) 0.1076(3)
H6A H -0.1157 0.7891 0.0438
C10A C 0.0029(3) 0.8433(3) 0.1807(3)
H7A H 0.0546 0.7989 0.1668
C11A C 0.0272(3) 0.9169(3) 0.2748(3)
C12A C -0.0489(3) 0.9837(3) 0.2941(3)
H8A H -0.0303 1.0349 0.3563
C13A C -0.1521(3) 0.9752(3) 0.2220(3)
H9A H -0.2037 1.0195 0.2365
C14A C 0.1999(3) 0.8560(3) 0.3417(2)
C15A C 0.2922(3) 0.8836(3) 0.2800(3)
H10A H 0.3009 0.9462 0.2416
C16A C 0.3720(3) 0.8168(3) 0.2761(3)
H11A H 0.4372 0.8366 0.2373
C17A C 0.3546(3) 0.7208(3) 0.3298(3)
H12A H 0.4059 0.6742 0.3239
C18A C 0.2620(3) 0.6931(3) 0.3921(2)
C19A C 0.1837(3) 0.7634(3) 0.4013(2)
C20A C 0.0861(3) 0.7474(3) 0.4731(3)
C33A C 0.2407(3) 0.5843(3) 0.4442(3)
Co2A Co -0.17723(4) 0.61437(4) 0.49945(3)
O1A O -0.0251(2) 0.69033(19) 0.43111(17)
O2A O 0.1211(2) 0.7955(2) 0.56531(17)
O3A O 0.1524(2) 0.55532(19) 0.49651(19)
O4A O 0.3066(2) 0.5189(2) 0.42940(19)
O5A O -0.3098(2) 0.8320(2) -0.0399(2)
O6A O -0.3690(2) 0.93948(19) 0.08033(17)
O7A O 0.1246(2) 0.92720(19) 0.35346(17)
O8A O -0.0720(2) 0.6772(2) 0.65732(18)
H23A H -0.0322 0.6331 0.6734
H24A H 0.0104 0.7355 0.6448
O9A O 0.5278(2) -0.0773(2) 0.85457(17)
H25A H 0.5680 -0.1222 0.8657
H26A H 0.4500 -0.1315 0.8104
Co1_2 Co -0.5000 1.0000 0.0000
Co1_3 Co 1.5000 1.0000 1.0000
Co2A_2 Co 0.82277(4) -0.38563(4) 0.49945(3)
Co2A_3 Co 0.82277(4) 0.61437(4) 1.49945(3)
N1A_2 N -0.2872(3) 0.5657(2) 0.3452(2)
N2A_2 N -0.2585(3) 0.7464(2) 0.5217(2)
N3A_2 N 0.3461(2) -0.1652(2) 0.9998(2)
O6A_2 O 0.6310(2) -0.06052(19) 1.08033(17)
loop_
_geom_bond_atom_site_label_1
_geom_bond_atom_site_label_2
_geom_bond_site_symmetry_1
_geom_bond_site_symmetry_2
C1 H1 1_555 1_555
C2 C1 1_555 1_555
C3 C2 1_555 1_555
H2 C3 1_555 1_555
C4 C3 1_555 1_555
H3 C4 1_555 1_555
C5 H4 1_555 1_555
C6 C2 1_555 1_555
H5 C6 1_555 1_555
C7 C8 1_555 1_555
C8 C9 1_555 1_555
C9 H6 1_555 1_555
C10 C9 1_555 1_555
H7 C10 1_555 1_555
C11 C10 1_555 1_555
C12 C11 1_555 1_555
H8 C12 1_555 1_555
C13 C8 1_555 1_555
H9 C13 1_555 1_555
C14 C15 1_555 1_555
C15 H10 1_555 1_555
C16 C15 1_555 1_555
H11 C16 1_555 1_555
C17 C16 1_555 1_555
H12 C17 1_555 1_555
C18 C17 1_555 1_555
C19 C14 1_555 1_555
C20 C19 1_555 1_555
C21 H13 1_555 1_555
C22 C21 1_555 1_555
H14 C22 1_555 1_555
C23 C22 1_555 1_555
C24 C23 1_555 1_555
H15 C24 1_555 1_555
C25 C24 1_555 1_555
H16 C25 1_555 1_555
C26 C23 1_555 1_555
H17 C26 1_555 1_555
C27 H18 1_555 1_555
C28 C27 1_555 1_555
H19 C28 1_555 1_555
C29 C28 1_555 1_555
C30 C29 1_555 1_555
H20 C30 1_555 1_555
C31 C30 1_555 1_555
H21 C31 1_555 1_555
C32 C29 1_555 1_555
H22 C32 1_555 1_555
C33 C18 1_555 1_555
Co1 N3 1_555 1_555
Co2 N1 1_555 1_555
N1 C27 1_555 1_555
N2 C21 1_555 1_555
N3 C4 1_555 1_555
O1 C20 1_555 1_555
O2 C20 1_555 1_555
O3 C33 1_555 1_555
O4 C33 1_555 1_555
O5 C7 1_555 1_555
O6 C7 1_555 1_555
O7 C11 1_555 1_555
O8 Co2 1_555 1_555
O9 Co1 1_555 1_555
H23 O8 1_555 1_555
H24 O8 1_555 1_555
H25 O9 1_555 1_555
H26 O9 1_555 1_555
C1A C1 1_555 1_555
H1A C1A 1_555 1_555
C2A C1A 1_555 1_555
C3A C2A 1_555 1_555
H2A C3A 1_555 1_555
C4A C3A 1_555 1_555
H3A C4A 1_555 1_555
C5A H4A 1_555 1_555
C6A C2A 1_555 1_555
H5A C6A 1_555 1_555
N3A C4A 1_555 1_555
C21A H13A 1_555 1_555
C22A C21A 1_555 1_555
H14A C22A 1_555 1_555
C23A C22A 1_555 1_555
C24A C23A 1_555 1_555
H15A C24A 1_555 1_555
C25A C24A 1_555 1_555
H16A C25A 1_555 1_555
C26A C26 1_555 1_555
H17A C26A 1_555 1_555
N2A C21A 1_555 1_555
C27A H18A 1_555 1_555
C28A C27A 1_555 1_555
H19A C28A 1_555 1_555
C29A C28A 1_555 1_555
C30A C29A 1_555 1_555
H20A C30A 1_555 1_555
C31A C30A 1_555 1_555
H21A C31A 1_555 1_555
C32A C32 1_555 1_555
H22A C32A 1_555 1_555
N1A C27A 1_555 1_555
C7A C8A 1_555 1_555
C8A C9A 1_555 1_555
C9A H6A 1_555 1_555
C10A C9A 1_555 1_555
H7A C10A 1_555 1_555
C11A C10A 1_555 1_555
C12A C11A 1_555 1_555
H8A C12A 1_555 1_555
C13A C8A 1_555 1_555
H9A C13A 1_555 1_555
C14A C15A 1_555 1_555
C15A H10A 1_555 1_555
C16A C15A 1_555 1_555
H11A C16A 1_555 1_555
C17A C16A 1_555 1_555
H12A C17A 1_555 1_555
C18A C17A 1_555 1_555
C19A C14A 1_555 1_555
C20A C19A 1_555 1_555
C33A C18A 1_555 1_555
Co2A O3 1_555 1_555
O1A C20A 1_555 1_555
O2A C20A 1_555 1_555
O3A Co2 1_555 1_555
O4A Co2 1_555 1_555
O5A C7A 1_555 1_555
O6A C7A 1_555 1_555
O7A C11A 1_555 1_555
O8A Co2A 1_555 1_555
H23A O8A 1_555 1_555
H24A O8A 1_555 1_555
O9A Co1 1_555 1_555
H25A O9A 1_555 1_555
H26A O9A 1_555 1_555
Co1_2 O6A 1_555 1_555
Co1_3 N3A 1_555 1_555
Co2A_2 N2A 1_555 1_555
Co2A_3 N1A 1_555 1_555
N1A_2 Co2A 1_555 1_555
N2A_2 Co2A 1_555 1_555
N3A_2 Co1 1_555 1_555
O6A_2 Co1 1_555 1_555
C5 C6 1_555 1_555
C5 N3 1_555 1_555
C12 C13 1_555 1_555
C14 O7 1_555 1_555
C18 C19 1_555 1_555
C25 N2 1_555 1_555
C31 N1 1_555 1_555
Co1 O6 1_555 1_555
Co2 N2 1_555 1_555
Co2 O1 1_555 1_555
O4 Co2A 1_555 1_555
C5A C6A 1_555 1_555
C5A N3A 1_555 1_555
C23A C26A 1_555 1_555
C25A N2A 1_555 1_555
C29A C32A 1_555 1_555
C31A N1A 1_555 1_555
C12A C13A 1_555 1_555
C14A O7A 1_555 1_555
C18A C19A 1_555 1_555
C33A O3A 1_555 1_555
C33A O4A 1_555 1_555
Co2A O1A 1_555 1_555

#END
