
#######################################################################
#
#                 Cambridge Crystallographic Data Centre
#                                CCDC 
#
#######################################################################
#
# If this CIF has been generated from an entry in the Cambridge 
# Structural Database, then it will include bibliographic, chemical, 
# crystal, experimental, refinement or atomic coordinate data resulting 
# from the CCDC's data processing and validation procedures.
#
#######################################################################

data_LMETZN
_symmetry_cell_setting           monoclinic
_symmetry_space_group_name_H-M   'P 21'
_symmetry_Int_Tables_number      4
_space_group_name_Hall           'P 2yb'
loop_
_symmetry_equiv_pos_site_id
_symmetry_equiv_pos_as_xyz
1 x,y,z
2 -x,1/2+y,-z
_cell_length_a                   15.731(5)
_cell_length_b                   5.119(2)
_cell_length_c                   9.437(4)
_cell_angle_alpha                90
_cell_angle_beta                 107.96(2)
_cell_angle_gamma                90
_cell_volume                     722.903
loop_
_atom_site_label
_atom_site_type_symbol
_atom_site_fract_x
_atom_site_fract_y
_atom_site_fract_z
Zn1 Zn 0.01600 0.00000 0.26720
S1 S -0.34620 -0.20240 0.11920
S2 S 0.38390 -0.30990 0.36120
O1 O 0.10990 -0.23530 0.44910
H1 H 0.50590 -0.53800 0.33210
O2 O -0.01900 0.24880 0.41130
O3 O 0.03890 -0.21760 0.10030
N1 N 0.10210 0.24970 0.20710
C1 C -0.15080 -0.01890 0.33410
C2 C -0.28130 -0.33780 0.29450
C3 C 0.09770 -0.12580 0.04610
C4 C 0.23740 -0.01640 0.25560
C5 C 0.44400 -0.52780 0.27840
N2 N -0.09600 -0.19740 0.27480
C6 C 0.08760 -0.31880 0.55760
C7 C -0.21590 -0.15350 0.40160
C8 C -0.41190 0.03140 0.17470
O4 O 0.11130 -0.20730 -0.06880
C9 C 0.15590 0.09630 0.13290
C10 C 0.29740 -0.18960 0.19930
H2 H -0.13010 -0.26760 0.17850
H3 H -0.18460 0.07510 0.25360
H4 H -0.25080 -0.03130 0.43260
H5 H -0.32110 -0.41460 0.34570
H6 H -0.37720 0.17060 0.20100
H7 H 0.06940 0.36990 0.13990
H8 H 0.17540 0.19480 0.06520
H9 H 0.21740 -0.12300 0.32440
H10 H 0.32370 -0.10190 0.13470
H11 H 0.43680 -0.48720 0.17720
H12 H -0.07930 -0.35660 0.33940
H13 H -0.18380 -0.25850 0.48950
H14 H -0.24650 -0.48910 0.27730
H15 H -0.43880 0.00530 0.24750
H16 H -0.46210 0.05250 0.08830
H17 H 0.14120 0.32130 0.29230
H18 H 0.27330 0.11820 0.30810
H19 H 0.26420 -0.34020 0.14140
H20 H 0.42730 -0.71540 0.27070
C6A C -0.08760 0.18120 0.44240
O2A O 0.01900 -0.25120 0.58870
C1A C 0.15080 -0.51890 0.66590
O1A O -0.10990 0.26470 0.55090
Zn1A Zn -0.01600 -0.50000 0.73280
N2A N 0.09600 -0.69740 0.72520
C7A C 0.21590 -0.65350 0.59840
H3A H 0.18460 -0.42490 0.74640
Zn1A_2 Zn -0.01600 0.50000 0.73280
O1A_2 O -0.10990 -0.73530 0.55090
O3A O -0.03890 -0.71760 0.89970
N1A N -0.10210 -0.25030 0.79290
H2A H 0.13010 -0.76760 0.82150
H12A H 0.07930 -0.85660 0.66060
C2A C 0.28130 -0.83780 0.70550
H4A H 0.25080 -0.53130 0.56740
H13A H 0.18380 -0.75850 0.51050
C3A C -0.09770 -0.62580 0.95390
C9A C -0.15590 -0.40370 0.86710
H7A H -0.06940 -0.13010 0.86010
H17A H -0.14120 -0.17870 0.70770
S1A S 0.34620 -0.70240 0.88080
H5A H 0.32110 -0.91460 0.65430
H14A H 0.24650 -0.98910 0.72270
O4A O -0.11130 -0.70730 1.06880
C4A C -0.23740 -0.51640 0.74440
H8A H -0.17540 -0.30520 0.93480
C8A C 0.41190 -0.46860 0.82530
C10A C -0.29740 -0.68960 0.80070
H9A H -0.21740 -0.62300 0.67560
H18A H -0.27330 -0.38180 0.69190
H6A H 0.37720 -0.32940 0.79900
H15A H 0.43880 -0.49470 0.75250
H16A H 0.46210 -0.44750 0.91170
S2A S -0.38390 -0.80990 0.63880
H10A H -0.32370 -0.60190 0.86530
H19A H -0.26420 -0.84020 0.85860
C5A C -0.44400 -1.02780 0.72160
H1A H -0.50590 -1.03800 0.66790
H11A H -0.43680 -0.98720 0.82280
H20A H -0.42730 -1.21540 0.72930
loop_
_geom_bond_atom_site_label_1
_geom_bond_atom_site_label_2
_geom_bond_site_symmetry_1
_geom_bond_site_symmetry_2
Zn1 O1 1_555 1_555
S1 C2 1_555 1_555
S2 C5 1_555 1_555
O1 C6 1_555 1_555
H1 C5 1_555 1_555
O2 Zn1 1_555 1_555
O3 Zn1 1_555 1_555
N1 Zn1 1_555 1_555
C1 N2 1_555 1_555
C2 C7 1_555 1_555
C3 O3 1_555 1_555
C4 C9 1_555 1_555
C5 H11 1_555 1_555
N2 Zn1 1_555 1_555
C6 O2A 1_555 1_555
C7 C1 1_555 1_555
C8 S1 1_555 1_555
O4 C3 1_555 1_555
C9 N1 1_555 1_555
C10 S2 1_555 1_555
H2 N2 1_555 1_555
H3 C1 1_555 1_555
H4 C7 1_555 1_555
H5 C2 1_555 1_555
H6 C8 1_555 1_555
H7 N1 1_555 1_555
H8 C9 1_555 1_555
H9 C4 1_555 1_555
H10 C10 1_555 1_555
H12 N2 1_555 1_555
H13 C7 1_555 1_555
H14 C2 1_555 1_555
H15 C8 1_555 1_555
H16 C8 1_555 1_555
H17 N1 1_555 1_555
H18 C4 1_555 1_555
H19 C10 1_555 1_555
H20 C5 1_555 1_555
C6A O2 1_555 1_555
O2A Zn1A 1_555 1_555
C1A C6 1_555 1_555
O1A C6A 1_555 1_555
Zn1A N2A 1_555 1_555
N2A C1A 1_555 1_555
C7A C1A 1_555 1_555
H3A C1A 1_555 1_555
Zn1A_2 O1A 1_555 1_555
O1A_2 Zn1A 1_555 1_555
O3A Zn1A 1_555 1_555
N1A Zn1A 1_555 1_555
H2A N2A 1_555 1_555
H12A N2A 1_555 1_555
C2A C7A 1_555 1_555
H4A C7A 1_555 1_555
H13A C7A 1_555 1_555
C3A O3A 1_555 1_555
C9A N1A 1_555 1_555
H7A N1A 1_555 1_555
H17A N1A 1_555 1_555
S1A C2A 1_555 1_555
H5A C2A 1_555 1_555
H14A C2A 1_555 1_555
O4A C3A 1_555 1_555
C4A C9A 1_555 1_555
H8A C9A 1_555 1_555
C8A S1A 1_555 1_555
C10A C4A 1_555 1_555
H9A C4A 1_555 1_555
H18A C4A 1_555 1_555
H6A C8A 1_555 1_555
H15A C8A 1_555 1_555
H16A C8A 1_555 1_555
S2A C10A 1_555 1_555
H10A C10A 1_555 1_555
H19A C10A 1_555 1_555
C5A S2A 1_555 1_555
H1A C5A 1_555 1_555
H11A C5A 1_555 1_555
H20A C5A 1_555 1_555
C1 C6A 1_555 1_555
C3 C9 1_555 1_555
C4 C10 1_555 1_555
C3A C9A 1_555 1_555

#END
