
#######################################################################
#
#                 Cambridge Crystallographic Data Centre
#                                CCDC 
#
#######################################################################
#
# If this CIF has been generated from an entry in the Cambridge 
# Structural Database, then it will include bibliographic, chemical, 
# crystal, experimental, refinement or atomic coordinate data resulting 
# from the CCDC's data processing and validation procedures.
#
#######################################################################

data_LOBBEJ
_symmetry_cell_setting           monoclinic
_symmetry_space_group_name_H-M   'C 2/c'
_symmetry_Int_Tables_number      15
_space_group_name_Hall           '-C 2yn'
loop_
_symmetry_equiv_pos_site_id
_symmetry_equiv_pos_as_xyz
1 x,y,z
2 1/2+x,1/2+y,z
3 x,-y,1/2+z
4 1/2+x,1/2-y,1/2+z
5 -x,-y,-z
6 1/2-x,1/2-y,-z
7 -x,y,1/2-z
8 1/2-x,1/2+y,1/2-z
_cell_length_a                   15.1727(4)
_cell_length_b                   8.3275(2)
_cell_length_c                   15.2603(4)
_cell_angle_alpha                90
_cell_angle_beta                 116.0370(10)
_cell_angle_gamma                90
_cell_volume                     1732.46
loop_
_atom_site_label
_atom_site_type_symbol
_atom_site_fract_x
_atom_site_fract_y
_atom_site_fract_z
Cu1 Cu 0.132463(11) 0.338326(19) 0.406141(11)
Cl1 Cl 0.17989(2) 0.45666(4) 0.30130(2)
Cl2 Cl 0.26098(2) 0.44773(4) 0.53798(2)
N1 N 0.05552(8) 0.28739(14) 0.48179(8)
N2 N -0.12582(9) 0.07763(15) 0.27424(9)
N3 N 0.01463(8) 0.22900(14) 0.30078(7)
H1 H -0.1626(16) 0.054(3) 0.2979(16)
H2 H -0.1405(14) 0.067(2) 0.2148(16)
C1 C 0.07725(11) 0.33504(19) 0.57295(10)
H3 H 0.1352(14) 0.390(2) 0.6061(14)
C2 C 0.01371(12) 0.3089(2) 0.61538(11)
H4 H 0.0317(18) 0.355(3) 0.6792(18)
C3 C -0.07393(11) 0.23027(19) 0.56262(10)
H5 H -0.1181(15) 0.215(3) 0.5903(14)
C4 C -0.09576(11) 0.17558(17) 0.46873(10)
H6 H -0.1515(14) 0.119(2) 0.4339(14)
C5 C -0.02949(9) 0.20723(16) 0.43084(9)
C6 C -0.04895(9) 0.16735(15) 0.32883(9)
Cl2E Cl 0.23902(2) 0.05227(4) 0.46202(2)
Cu1E Cu 0.367537(11) 0.161674(19) 0.593859(11)
N3F N -0.01463(8) 0.22900(14) 0.19922(7)
Cu1F Cu -0.132463(11) 0.338326(19) 0.093859(11)
C6F C 0.04895(9) 0.16735(15) 0.17117(9)
N2F N 0.12582(9) 0.07763(15) 0.22576(9)
C5F C 0.02949(9) 0.20723(16) 0.06916(9)
H1F H 0.1626(16) 0.054(3) 0.2021(16)
H2F H 0.1405(14) 0.067(2) 0.2852(16)
N1F N -0.05552(8) 0.28739(14) 0.01821(8)
C4F C 0.09576(11) 0.17558(17) 0.03127(10)
C1F C -0.07725(11) 0.33504(19) -0.07295(10)
H3F H -0.1352(14) 0.390(2) -0.1061(14)
C2F C -0.01371(12) 0.3089(2) -0.11538(11)
C3F C 0.07393(11) 0.23027(19) -0.06262(10)
H6F H 0.1515(14) 0.119(2) 0.0661(14)
H5F H 0.1181(15) 0.215(3) -0.0903(14)
H4F H -0.0317(18) 0.355(3) -0.1792(18)
Cl1F Cl -0.17989(2) 0.45666(4) 0.19870(2)
Cl2C Cl -0.23902(2) 0.05227(4) 0.03798(2)
Cl2F Cl -0.26098(2) 0.44773(4) -0.03798(2)
loop_
_geom_bond_atom_site_label_1
_geom_bond_atom_site_label_2
_geom_bond_site_symmetry_1
_geom_bond_site_symmetry_2
Cu1 Cl1 1_555 1_555
Cl2 Cu1 1_555 1_555
N1 Cu1 1_555 1_555
N2 H1 1_555 1_555
N3 Cu1 1_555 1_555
H2 N2 1_555 1_555
C1 N1 1_555 1_555
H3 C1 1_555 1_555
C2 C1 1_555 1_555
H4 C2 1_555 1_555
C3 C2 1_555 1_555
H5 C3 1_555 1_555
C4 C3 1_555 1_555
H6 C4 1_555 1_555
C5 N1 1_555 1_555
C6 N2 1_555 1_555
Cl2E Cu1 1_555 1_555
Cu1E Cl2 1_555 1_555
N3F N3 1_555 1_555
Cu1F N3F 1_555 1_555
C6F N3F 1_555 1_555
N2F C6F 1_555 1_555
C5F C6F 1_555 1_555
H1F N2F 1_555 1_555
H2F N2F 1_555 1_555
N1F Cu1F 1_555 1_555
C4F C5F 1_555 1_555
C1F N1F 1_555 1_555
H3F C1F 1_555 1_555
C2F C1F 1_555 1_555
C3F C4F 1_555 1_555
H6F C4F 1_555 1_555
H5F C3F 1_555 1_555
H4F C2F 1_555 1_555
Cl1F Cu1F 1_555 1_555
Cl2C Cu1F 1_555 1_555
Cl2F Cu1F 1_555 1_555
N3 C6 1_555 1_555
C4 C5 1_555 1_555
C5 C6 1_555 1_555
Cl2E Cu1E 1_555 1_555
C5F N1F 1_555 1_555
C2F C3F 1_555 1_555

#END
