
#######################################################################
#
#                 Cambridge Crystallographic Data Centre
#                                CCDC 
#
#######################################################################
#
# If this CIF has been generated from an entry in the Cambridge 
# Structural Database, then it will include bibliographic, chemical, 
# crystal, experimental, refinement or atomic coordinate data resulting 
# from the CCDC's data processing and validation procedures.
#
#######################################################################

data_LOBHOA
_symmetry_cell_setting           triclinic
_symmetry_space_group_name_H-M   'P -1'
_symmetry_Int_Tables_number      2
_space_group_name_Hall           '-P 1'
loop_
_symmetry_equiv_pos_site_id
_symmetry_equiv_pos_as_xyz
1 x,y,z
2 -x,-y,-z
_cell_length_a                   8.5489(3)
_cell_length_b                   8.9997(4)
_cell_length_c                   9.6016(7)
_cell_angle_alpha                100.890(3)
_cell_angle_beta                 104.282(3)
_cell_angle_gamma                115.281(2)
_cell_volume                     609.733
loop_
_atom_site_label
_atom_site_type_symbol
_atom_site_fract_x
_atom_site_fract_y
_atom_site_fract_z
Zn1 Zn 0.40147(4) 0.13270(4) 0.64819(4)
Zn2 Zn 0.5000 0.5000 1.0000
O1 O 0.2416(3) -0.0009(3) 0.7470(2)
O2 O 0.3429(3) 0.2406(3) 0.9744(2)
O3 O 0.4858(3) 0.0263(3) 1.3658(2)
O4 O 0.2319(3) -0.0213(3) 1.4142(2)
O5 O -0.3606(3) -0.6069(3) 0.8873(2)
O6 O -0.3372(3) -0.6165(3) 0.6793(2)
C1 C 0.1713(4) -0.0612(4) 0.9408(3)
C2 C 0.2704(4) 0.0014(4) 1.0941(3)
H1 H 0.3807 0.1094 1.1452
C3 C 0.1939(4) -0.1057(4) 1.1596(3)
C4 C 0.0161(4) -0.2777(4) 1.0704(3)
H2 H -0.0333 -0.3468 1.1275
C5 C -0.0812(4) -0.3443(4) 0.9164(3)
C6 C -0.0031(4) -0.2365(4) 0.8514(3)
H3 H -0.0561 -0.2675 0.7450
C7 C 0.2586(4) 0.0696(4) 0.8813(3)
C8 C 0.3111(4) -0.0308(4) 1.3260(3)
C9 C -0.2699(4) -0.5318(4) 0.8212(3)
N1 N 0.3139(3) 0.4324(3) 0.7835(3)
N2 N 0.2626(3) 0.2799(3) 0.6520(3)
N3 N 0.0950(3) 0.3946(3) 0.5961(3)
C10 C 0.1313(4) 0.2592(4) 0.5416(3)
H4 H 0.0706 0.1731 0.4445
C11 C 0.2134(4) 0.5003(4) 0.7471(3)
H5 H 0.2175 0.5983 0.8072
C12 C -0.0498(4) 0.4154(4) 0.5106(3)
H6 H -0.1306 0.4183 0.5666
H7 H -0.1253 0.3207 0.4123
Zn1A Zn 0.59853(4) 0.86730(4) 1.35181(4)
Zn1A_2 Zn 0.59853(4) -0.13270(4) 1.35181(4)
Zn1_2 Zn 0.40147(4) 0.13270(4) 1.64819(4)
Zn1_3 Zn -0.59853(4) -0.86730(4) 0.64819(4)
Zn1A_3 Zn -0.40147(4) 0.86730(4) 0.35181(4)
Zn1_4 Zn 0.40147(4) 1.13270(4) 0.64819(4)
Zn1A_4 Zn 0.59853(4) 0.86730(4) 0.35181(4)
Zn1A_5 Zn 1.59853(4) 1.86730(4) 1.35181(4)
Zn2_2 Zn -0.5000 -0.5000 1.0000
Zn2_3 Zn -0.5000 0.5000 0.0000
Zn2_4 Zn 1.5000 1.5000 1.0000
O1A O 0.7584(3) 1.0009(3) 1.2530(2)
O2A O 0.6571(3) 0.7594(3) 1.0256(2)
O3A O 0.5142(3) 0.9737(3) 0.6342(2)
O3A_2 O 0.5142(3) -0.0263(3) 0.6342(2)
O3_2 O 0.4858(3) 1.0263(3) 1.3658(2)
O4A O 0.7681(3) 1.0213(3) 0.5858(2)
O4_2 O 0.2319(3) -0.0213(3) 0.4142(2)
O4A_2 O 0.7681(3) 1.0213(3) 1.5858(2)
O5A O 1.3606(3) 1.6069(3) 1.1127(2)
O5_2 O 0.6394(3) 0.3931(3) 0.8873(2)
O5A_2 O 0.3606(3) 0.6069(3) 1.1127(2)
O6A O 1.3372(3) 1.6165(3) 1.3207(2)
O6_2 O 0.6628(3) 0.3835(3) 0.6793(2)
O6A_2 O 0.3372(3) 0.6165(3) 1.3207(2)
C1A C 0.8287(4) 1.0612(4) 1.0592(3)
C2A C 0.7296(4) 0.9986(4) 0.9059(3)
H1A H 0.6193 0.8906 0.8548
C3A C 0.8061(4) 1.1057(4) 0.8404(3)
C4A C 0.9839(4) 1.2777(4) 0.9296(3)
H2A H 1.0333 1.3468 0.8725
C5A C 1.0812(4) 1.3443(4) 1.0836(3)
C6A C 1.0031(4) 1.2365(4) 1.1486(3)
H3A H 1.0561 1.2675 1.2550
C7A C 0.7414(4) 0.9304(4) 1.1187(3)
C8A C 0.6889(4) 1.0308(4) 0.6740(3)
C9A C 1.2699(4) 1.5318(4) 1.1788(3)
N1A N -0.3139(3) 0.5676(3) 0.2165(3)
N1A_2 N 0.6861(3) 0.5676(3) 1.2165(3)
N2A N -0.2626(3) 0.7201(3) 0.3480(3)
N2A_2 N 0.7374(3) 0.7201(3) 1.3480(3)
N3A N -0.0950(3) 0.6054(3) 0.4039(3)
C10A C -0.1313(4) 0.7408(4) 0.4584(3)
H4A H -0.0706 0.8269 0.5555
C11A C -0.2134(4) 0.4997(4) 0.2529(3)
H5A H -0.2175 0.4017 0.1928
C12A C 0.0498(4) 0.5846(4) 0.4894(3)
H6A H 0.1306 0.5817 0.4334
H7A H 0.1253 0.6793 0.5877
O7 O 0.4765(19) 0.4006(16) 0.4162(12)
H8 H 0.54(3) 0.46(2) 0.513(9)
loop_
_geom_bond_atom_site_label_1
_geom_bond_atom_site_label_2
_geom_bond_site_symmetry_1
_geom_bond_site_symmetry_2
Zn1 O1 1_555 1_555
Zn2 O2 1_555 1_555
O1 C7 1_555 1_555
O2 C7 1_555 1_555
O3 C8 1_555 1_555
O4 C8 1_555 1_555
O5 C9 1_555 1_555
O6 C9 1_555 1_555
C1 C2 1_555 1_555
C2 H1 1_555 1_555
C3 C2 1_555 1_555
C4 C3 1_555 1_555
H2 C4 1_555 1_555
C5 C4 1_555 1_555
C6 C1 1_555 1_555
H3 C6 1_555 1_555
C7 C1 1_555 1_555
C8 C3 1_555 1_555
C9 C5 1_555 1_555
N1 Zn2 1_555 1_555
N2 Zn1 1_555 1_555
N3 C10 1_555 1_555
C10 N2 1_555 1_555
H4 C10 1_555 1_555
C11 N1 1_555 1_555
H5 C11 1_555 1_555
C12 N3 1_555 1_555
H6 C12 1_555 1_555
H7 C12 1_555 1_555
O7 H8 1_555 1_555
Zn1A O1A 1_555 1_555
Zn1A_2 O3 1_555 1_555
Zn1_2 O4 1_555 1_555
Zn1_3 O6 1_555 1_555
Zn1A_3 N2A 1_555 1_555
Zn1_4 O3A 1_555 1_555
Zn1A_4 O4A 1_555 1_555
Zn1A_5 O6A 1_555 1_555
Zn2_2 O5 1_555 1_555
Zn2_3 N1A 1_555 1_555
Zn2_4 O5A 1_555 1_555
O1A C7A 1_555 1_555
O2A Zn2 1_555 1_555
O3A C8A 1_555 1_555
O3A_2 Zn1 1_555 1_555
O3_2 Zn1A 1_555 1_555
O4A C8A 1_555 1_555
O4_2 Zn1 1_555 1_555
O4A_2 Zn1A 1_555 1_555
O5A C9A 1_555 1_555
O5_2 Zn2 1_555 1_555
O5A_2 Zn2 1_555 1_555
O6A C9A 1_555 1_555
O6_2 Zn1 1_555 1_555
O6A_2 Zn1A 1_555 1_555
C1A C2A 1_555 1_555
C2A H1A 1_555 1_555
C3A C2A 1_555 1_555
C4A C3A 1_555 1_555
H2A C4A 1_555 1_555
C5A C4A 1_555 1_555
C6A C1A 1_555 1_555
H3A C6A 1_555 1_555
C7A O2A 1_555 1_555
C8A C3A 1_555 1_555
C9A C5A 1_555 1_555
N1A N2A 1_555 1_555
N1A_2 Zn2 1_555 1_555
N2A C10A 1_555 1_555
N2A_2 Zn1A 1_555 1_555
N3A C10A 1_555 1_555
C10A H4A 1_555 1_555
C11A N1A 1_555 1_555
H5A C11A 1_555 1_555
C12A C12 1_555 1_555
H6A C12A 1_555 1_555
H7A C12A 1_555 1_555
C5 C6 1_555 1_555
N1 N2 1_555 1_555
N3 C11 1_555 1_555
C1A C7A 1_555 1_555
C5A C6A 1_555 1_555
N1A_2 N2A_2 1_555 1_555
N3A C11A 1_555 1_555
N3A C12A 1_555 1_555

#END
