
#######################################################################
#
#                 Cambridge Crystallographic Data Centre
#                                CCDC 
#
#######################################################################
#
# If this CIF has been generated from an entry in the Cambridge 
# Structural Database, then it will include bibliographic, chemical, 
# crystal, experimental, refinement or atomic coordinate data resulting 
# from the CCDC's data processing and validation procedures.
#
#######################################################################

data_LOBHIU
_symmetry_cell_setting           triclinic
_symmetry_space_group_name_H-M   'P -1'
_symmetry_Int_Tables_number      2
_space_group_name_Hall           '-P 1'
loop_
_symmetry_equiv_pos_site_id
_symmetry_equiv_pos_as_xyz
1 x,y,z
2 -x,-y,-z
_cell_length_a                   11.8109(2)
_cell_length_b                   11.9995(2)
_cell_length_c                   12.4175(3)
_cell_angle_alpha                109.0470(10)
_cell_angle_beta                 105.8250(10)
_cell_angle_gamma                110.9600(10)
_cell_volume                     1394.08
loop_
_atom_site_label
_atom_site_type_symbol
_atom_site_fract_x
_atom_site_fract_y
_atom_site_fract_z
Zn1 Zn 0.61844(3) 1.28660(2) 0.33309(2)
Zn2 Zn 0.25340(2) 1.01230(2) 0.25243(2)
Zn3 Zn -0.10340(3) 1.71081(2) 0.16801(2)
O1 O 0.39911(17) 1.10857(16) 0.43664(15)
H1 H 0.474(3) 1.132(3) 0.442(3)
H2 H 0.387(3) 1.060(3) 0.483(2)
O2 O 0.10280(17) 0.92427(17) 0.06996(16)
H3 H 0.033(3) 0.919(3) 0.069(3)
H4 H 0.122(3) 0.973(3) 0.027(3)
N1 N 0.44917(19) 1.30843(18) 0.31310(17)
N2 N 0.31675(19) 1.21505(18) 0.27150(18)
N3 N 0.33154(19) 1.41232(18) 0.30983(17)
N4 N 0.20571(19) 1.81640(18) 0.23830(18)
N5 N 0.07756(18) 1.71185(18) 0.19396(18)
N6 N 0.21744(19) 1.63256(18) 0.21279(17)
C1 C 0.4553(2) 1.4253(2) 0.3351(2)
H5 H 0.5343 1.5063 0.3641
C2 C 0.2485(2) 1.2802(2) 0.2706(2)
H6 H 0.1551 1.2409 0.2461
C3 C 0.2965(3) 1.5206(2) 0.3247(2)
H7 H 0.3718 1.6063 0.3968
H8 H 0.2172 1.4992 0.3418
C4 C 0.2877(2) 1.7662(2) 0.2488(2)
H9 H 0.3815 1.8156 0.2771
C5 C 0.0879(2) 1.6030(2) 0.1796(2)
H10 H 0.0153 1.5170 0.1503
C6 C 0.2665(3) 1.5347(2) 0.2044(2)
H11 H 0.3487 1.5653 0.1922
H12 H 0.1980 1.4465 0.1311
O3 O 0.59143(16) 1.13150(15) 0.19591(14)
O4 O 0.38669(16) 0.99475(16) 0.16867(15)
O5 O 0.19644(16) 0.50161(16) -0.06995(17)
O6 O 0.29021(19) 0.41523(16) -0.17572(16)
O7 O 0.80344(16) 0.72821(16) 0.01972(15)
O8 O 0.87107(16) 0.94326(16) 0.06529(16)
O9 O 0.73520(17) 1.48143(16) 0.42222(17)
O10 O 0.85465(19) 1.42542(17) 0.32780(17)
O11 O 1.34763(16) 1.77991(15) 0.53752(15)
O12 O 1.38986(16) 1.99093(16) 0.58624(15)
O13 O 1.07052(16) 2.12370(15) 0.69891(15)
O14 O 0.87575(17) 1.96461(16) 0.66923(16)
C7 C 0.5050(2) 0.8970(2) 0.0827(2)
C8 C 0.3962(2) 0.7661(2) 0.0208(2)
H13 H 0.3123 0.7523 0.0196
C9 C 0.4106(2) 0.6559(2) -0.0390(2)
C10 C 0.5359(2) 0.6749(2) -0.0351(2)
H14 H 0.5465 0.5999 -0.0732
C11 C 0.6453(2) 0.8061(2) 0.0259(2)
C12 C 0.6292(2) 0.9170(2) 0.0832(2)
H15 H 0.7020 1.0053 0.1221
C13 C 0.4910(2) 1.0154(2) 0.1535(2)
C14 C 0.2931(2) 0.5162(2) -0.0999(2)
C15 C 0.7830(2) 0.8289(2) 0.0376(2)
C16 C 0.9431(2) 1.6587(2) 0.4675(2)
C17 C 1.0724(2) 1.6955(2) 0.4764(2)
H16 H 1.0933 1.6285 0.4389
C18 C 1.1711(2) 1.8317(2) 0.5410(2)
C19 C 1.1400(2) 1.9310(2) 0.5962(2)
H17 H 1.2060 2.0229 0.6377
C20 C 1.0124(2) 1.8952(2) 0.5903(2)
C21 C 0.9136(2) 1.7583(2) 0.5260(2)
H18 H 0.8270 1.7335 0.5221
C22 C 0.8390(2) 1.5111(2) 0.3995(2)
C23 C 1.3123(2) 1.8729(2) 0.5567(2)
C24 C 0.9827(2) 2.0022(2) 0.6577(2)
Zn1A Zn 1.38156(3) 1.71340(2) 0.66691(2)
Zn2_2 Zn 0.25340(2) 2.01230(2) 0.25243(2)
Zn2A Zn 0.74660(2) 1.98770(2) 0.74757(2)
Zn3A Zn 0.10340(3) 0.28919(2) -0.16801(2)
Zn3_2 Zn 0.89660(3) 0.71081(2) 0.16801(2)
Zn3A_2 Zn 1.10340(3) 2.28919(2) 0.83199(2)
N4_2 N 0.20571(19) 0.81640(18) 0.23830(18)
O5A O -0.19644(16) 1.49839(16) 0.06995(17)
O6A O -0.29021(19) 1.58477(16) 0.17572(16)
O7_2 O -0.19656(16) 1.72821(16) 0.01972(15)
O11A O 0.65237(16) 1.22009(15) 0.46248(15)
O13A O -0.07052(16) 1.87630(15) 0.30109(15)
O14A O 0.12425(17) 1.03539(16) 0.33077(16)
O15 O 0.0254(2) 1.6831(2) 0.8191(2)
H19 H 0.073(4) 1.667(4) 0.783(4)
H20 H 0.081(4) 1.753(4) 0.888(4)
O16 O 0.4109(3) 0.3097(2) -0.3178(3)
H21 H 0.361(4) 0.234(3) -0.376(4)
H22 H 0.371(4) 0.326(4) -0.279(4)
loop_
_geom_bond_atom_site_label_1
_geom_bond_atom_site_label_2
_geom_bond_site_symmetry_1
_geom_bond_site_symmetry_2
Zn1 N1 1_555 1_555
Zn2 O1 1_555 1_555
Zn3 N5 1_555 1_555
O1 H1 1_555 1_555
H2 O1 1_555 1_555
O2 Zn2 1_555 1_555
H3 O2 1_555 1_555
H4 O2 1_555 1_555
N1 N2 1_555 1_555
N2 Zn2 1_555 1_555
N3 C1 1_555 1_555
N4 N5 1_555 1_555
N5 C5 1_555 1_555
N6 C4 1_555 1_555
C1 N1 1_555 1_555
H5 C1 1_555 1_555
C2 N2 1_555 1_555
H6 C2 1_555 1_555
C3 N3 1_555 1_555
H7 C3 1_555 1_555
H8 C3 1_555 1_555
C4 N4 1_555 1_555
H9 C4 1_555 1_555
C5 N6 1_555 1_555
H10 C5 1_555 1_555
C6 N6 1_555 1_555
H11 C6 1_555 1_555
H12 C6 1_555 1_555
O3 Zn1 1_555 1_555
O4 Zn2 1_555 1_555
O5 C14 1_555 1_555
O6 C14 1_555 1_555
O7 C15 1_555 1_555
O8 C15 1_555 1_555
O9 Zn1 1_555 1_555
O10 C22 1_555 1_555
O11 C23 1_555 1_555
O12 C23 1_555 1_555
O13 C24 1_555 1_555
O14 C24 1_555 1_555
C7 C8 1_555 1_555
C8 H13 1_555 1_555
C9 C8 1_555 1_555
C10 C9 1_555 1_555
H14 C10 1_555 1_555
C11 C10 1_555 1_555
C12 C7 1_555 1_555
H15 C12 1_555 1_555
C13 O3 1_555 1_555
C14 C9 1_555 1_555
C15 C11 1_555 1_555
C16 C17 1_555 1_555
C17 H16 1_555 1_555
C18 C17 1_555 1_555
C19 C18 1_555 1_555
H17 C19 1_555 1_555
C20 C19 1_555 1_555
C21 C16 1_555 1_555
H18 C21 1_555 1_555
C22 O9 1_555 1_555
C23 C18 1_555 1_555
C24 C20 1_555 1_555
O15 H19 1_555 1_555
H20 O15 1_555 1_555
O16 H21 1_555 1_555
H22 O16 1_555 1_555
Zn1A O11 1_555 1_555
Zn2_2 N4 1_555 1_555
Zn2A O14 1_555 1_555
Zn3A O5 1_555 1_555
Zn3_2 O7 1_555 1_555
Zn3A_2 O13 1_555 1_555
N4_2 Zn2 1_555 1_555
O5A Zn3 1_555 1_555
O6A Zn3 1_555 1_555
O7_2 Zn3 1_555 1_555
O11A Zn1 1_555 1_555
O13A Zn3 1_555 1_555
O14A Zn2 1_555 1_555
N3 C2 1_555 1_555
C3 C6 1_555 1_555
O4 C13 1_555 1_555
O6 Zn3A 1_555 1_555
C7 C13 1_555 1_555
C11 C12 1_555 1_555
C16 C22 1_555 1_555
C20 C21 1_555 1_555

#END
