
#######################################################################
#
#                 Cambridge Crystallographic Data Centre
#                                CCDC 
#
#######################################################################
#
# If this CIF has been generated from an entry in the Cambridge 
# Structural Database, then it will include bibliographic, chemical, 
# crystal, experimental, refinement or atomic coordinate data resulting 
# from the CCDC's data processing and validation procedures.
#
#######################################################################

data_LOBHEQ
_symmetry_cell_setting           monoclinic
_symmetry_space_group_name_H-M   'P 21/c'
_symmetry_Int_Tables_number      14
_space_group_name_Hall           '-P 2ybc'
loop_
_symmetry_equiv_pos_site_id
_symmetry_equiv_pos_as_xyz
1 x,y,z
2 -x,1/2+y,1/2-z
3 -x,-y,-z
4 x,1/2-y,1/2+z
_cell_length_a                   13.7399(9)
_cell_length_b                   8.2320(5)
_cell_length_c                   18.8439(13)
_cell_angle_alpha                90
_cell_angle_beta                 114.636(4)
_cell_angle_gamma                90
_cell_volume                     1937.36
loop_
_atom_site_label
_atom_site_type_symbol
_atom_site_fract_x
_atom_site_fract_y
_atom_site_fract_z
Ni1 Ni 0.26471(11) 0.38631(18) 0.55871(8)
Ni2 Ni 0.0000 0.5000 0.5000
O1 O 0.0994(7) 0.3114(9) 0.4924(4)
H1 H 0.085(9) 0.214(8) 0.501(7)
H2 H 0.100(9) 0.306(14) 0.448(4)
O2 O 0.3167(8) 0.1595(11) 0.5936(5)
H3 H 0.246(6) 0.108(15) 0.580(8)
H4 H 0.348(11) 0.164(18) 0.640(8)
N1 N 0.2105(7) 0.6103(10) 0.5082(4)
N2 N 0.1040(7) 0.6488(10) 0.4771(5)
C1 C 0.2572(9) 0.7142(13) 0.4799(6)
H5 H 0.3308 0.7158 0.4917
C2 C 0.0910(8) 0.7734(13) 0.4319(6)
H6 H 0.0250 0.8248 0.4033
N3 N 0.1842(6) 0.8187(10) 0.4315(5)
C3 C 0.1971(9) 0.9429(13) 0.3794(6)
H7 H 0.2559 1.0167 0.4092
H8 H 0.1313 1.0068 0.3545
N4 N 0.1056(7) 0.9996(11) 0.1188(5)
N5 N 0.2111(7) 1.0514(11) 0.1434(5)
C4 C 0.1003(9) 0.9357(13) 0.1820(6)
H9 H 0.0377 0.8923 0.1831
C5 C 0.2619(9) 1.0140(13) 0.2188(7)
H10 H 0.3344 1.0354 0.2504
N6 N 0.1934(7) 0.9408(10) 0.2426(5)
C6 C 0.2213(10) 0.8537(15) 0.3177(7)
H11 H 0.1827 0.7501 0.3064
H12 H 0.2980 0.8287 0.3399
O3 O 0.3006(6) 0.3441(9) 0.4627(4)
C7 C 0.2316(9) 0.3578(13) 0.3937(7)
O4 O 0.1339(6) 0.3310(9) 0.3716(4)
O5 O 0.5858(6) 0.5319(10) 0.3851(4)
C8 C 0.5146(9) 0.5840(14) 0.3216(7)
O6 O 0.5346(6) 0.6799(11) 0.2759(5)
O7 O 0.1527(7) 0.5134(10) 0.0667(5)
C9 C 0.1283(9) 0.5474(14) 0.1239(7)
O8 O 0.0388(6) 0.5868(9) 0.1174(5)
C10 C 0.2692(8) 0.4200(13) 0.3350(6)
C11 C 0.3723(8) 0.4625(12) 0.3534(6)
H13 H 0.4247 0.4401 0.4037
C12 C 0.4025(8) 0.5384(13) 0.2998(6)
C13 C 0.3226(8) 0.5639(13) 0.2239(6)
H14 H 0.3411 0.6118 0.1859
C14 C 0.2190(8) 0.5204(13) 0.2046(6)
C15 C 0.1904(9) 0.4458(13) 0.2591(6)
H15 H 0.1193 0.4129 0.2454
Ni1B Ni -0.26471(11) 0.61369(18) 0.44129(8)
Ni1C Ni 0.26471(11) 1.11369(18) 0.05871(8)
Ni1B_2 Ni 0.73529(11) 0.61369(18) 0.44129(8)
Ni1A Ni -0.26471(11) -0.11369(18) 0.94129(8)
Ni2C Ni 0.0000 1.0000 0.0000
Ni2C_2 Ni 0.0000 0.0000 1.0000
O1B O -0.0994(7) 0.6886(9) 0.5076(4)
H1B H -0.085(9) 0.786(8) 0.499(7)
H2B H -0.100(9) 0.694(14) 0.552(4)
O2B O -0.3167(8) 0.8405(11) 0.4064(5)
H3B H -0.246(6) 0.892(15) 0.420(8)
H4B H -0.348(11) 0.836(18) 0.360(8)
N1B N -0.2105(7) 0.3897(10) 0.4918(4)
N2B N -0.1040(7) 0.3512(10) 0.5229(5)
C1B C -0.2572(9) 0.2858(13) 0.5201(6)
H5B H -0.3308 0.2842 0.5083
C2B C -0.0910(8) 0.2266(13) 0.5681(6)
H6B H -0.0250 0.1752 0.5967
N3B N -0.1842(6) 0.1813(10) 0.5685(5)
C3B C -0.1971(9) 0.0571(13) 0.6206(6)
H7B H -0.2559 -0.0167 0.5908
H8B H -0.1313 -0.0068 0.6455
N4B N -0.1056(7) 0.0004(11) 0.8812(5)
N4C N 0.1056(7) 0.5004(11) 0.6188(5)
N4A N -0.1056(7) 0.4996(11) 0.3812(5)
N5B N -0.2111(7) -0.0514(11) 0.8566(5)
N5C N 0.2111(7) 0.4486(11) 0.6434(5)
N5A N -0.2111(7) 0.5514(11) 0.3566(5)
C4B C -0.1003(9) 0.0643(13) 0.8180(6)
H9B H -0.0377 0.1077 0.8169
C5B C -0.2619(9) -0.0140(13) 0.7812(7)
H10B H -0.3344 -0.0354 0.7496
N6B N -0.1934(7) 0.0592(10) 0.7574(5)
C6B C -0.2213(10) 0.1463(15) 0.6823(7)
H11B H -0.1827 0.2499 0.6936
H12B H -0.2980 0.1713 0.6601
O3B O 0.6994(6) 0.6559(9) 0.5373(4)
O3B_2 O -0.3006(6) 0.6559(9) 0.5373(4)
C7B C 0.7684(9) 0.6422(13) 0.6063(7)
O4B O 0.8661(6) 0.6690(9) 0.6284(4)
O5B O 0.4142(6) 0.4681(10) 0.6149(4)
O5_2 O -0.4142(6) 0.5319(10) 0.3851(4)
C8B C 0.4854(9) 0.4160(14) 0.6784(7)
O6B O 0.4654(6) 0.3201(11) 0.7241(5)
O7B O 0.8473(7) 0.4866(10) 0.9333(5)
C9B C 0.8717(9) 0.4526(14) 0.8761(7)
O8B O 0.9612(6) 0.4132(9) 0.8826(5)
C10B C 0.7308(8) 0.5800(13) 0.6650(6)
C11B C 0.6277(8) 0.5375(12) 0.6466(6)
H13B H 0.5753 0.5599 0.5963
C12B C 0.5975(8) 0.4616(13) 0.7002(6)
C13B C 0.6774(8) 0.4361(13) 0.7761(6)
H14B H 0.6589 0.3882 0.8141
C14B C 0.7810(8) 0.4796(13) 0.7954(6)
C15B C 0.8096(9) 0.5542(13) 0.7409(6)
H15B H 0.8807 0.5871 0.7546
O9 O 0.4876(8) 0.7009(12) 0.9737(6)
H16 H 0.5179 0.6061 0.9657
H17 H 0.5214 0.7884 0.9610
O10 O 0.4712(10) 0.4233(15) 0.8809(8)
H18 H 0.4625 0.3523 0.9144
H19 H 0.4631 0.3685 0.8342
loop_
_geom_bond_atom_site_label_1
_geom_bond_atom_site_label_2
_geom_bond_site_symmetry_1
_geom_bond_site_symmetry_2
Ni1 O1 1_555 1_555
Ni2 O1 1_555 1_555
O1 H1 1_555 1_555
H2 O1 1_555 1_555
O2 Ni1 1_555 1_555
H3 O2 1_555 1_555
H4 O2 1_555 1_555
N1 Ni1 1_555 1_555
N2 Ni2 1_555 1_555
C1 N1 1_555 1_555
H5 C1 1_555 1_555
C2 N2 1_555 1_555
H6 C2 1_555 1_555
N3 C1 1_555 1_555
C3 N3 1_555 1_555
H7 C3 1_555 1_555
H8 C3 1_555 1_555
N4 N5 1_555 1_555
N5 C5 1_555 1_555
C4 N4 1_555 1_555
H9 C4 1_555 1_555
C5 H10 1_555 1_555
N6 C4 1_555 1_555
C6 C3 1_555 1_555
H11 C6 1_555 1_555
H12 C6 1_555 1_555
O3 Ni1 1_555 1_555
C7 O3 1_555 1_555
O4 C7 1_555 1_555
O5 C8 1_555 1_555
C8 O6 1_555 1_555
O7 C9 1_555 1_555
C9 O8 1_555 1_555
C10 C7 1_555 1_555
C11 C10 1_555 1_555
H13 C11 1_555 1_555
C12 C8 1_555 1_555
C13 C12 1_555 1_555
H14 C13 1_555 1_555
C14 C9 1_555 1_555
C15 C10 1_555 1_555
H15 C15 1_555 1_555
O9 H16 1_555 1_555
H17 O9 1_555 1_555
O10 H18 1_555 1_555
H19 O10 1_555 1_555
Ni1B O1B 1_555 1_555
Ni1C N5 1_555 1_555
Ni1B_2 O5 1_555 1_555
Ni1A N5B 1_555 1_555
Ni2C N4 1_555 1_555
Ni2C_2 N4B 1_555 1_555
O1B Ni2 1_555 1_555
H1B O1B 1_555 1_555
H2B O1B 1_555 1_555
O2B Ni1B 1_555 1_555
H3B O2B 1_555 1_555
H4B O2B 1_555 1_555
N1B Ni1B 1_555 1_555
N2B Ni2 1_555 1_555
C1B N1B 1_555 1_555
H5B C1B 1_555 1_555
C2B N2B 1_555 1_555
H6B C2B 1_555 1_555
N3B C1B 1_555 1_555
C3B N3B 1_555 1_555
H7B C3B 1_555 1_555
H8B C3B 1_555 1_555
N4B N5B 1_555 1_555
N4C Ni2 1_555 1_555
N4A Ni2 1_555 1_555
N5B C5B 1_555 1_555
N5C Ni1 1_555 1_555
N5A Ni1B 1_555 1_555
C4B N4B 1_555 1_555
H9B C4B 1_555 1_555
C5B H10B 1_555 1_555
N6B C4B 1_555 1_555
C6B C3B 1_555 1_555
H11B C6B 1_555 1_555
H12B C6B 1_555 1_555
O3B Ni1B_2 1_555 1_555
O3B_2 Ni1B 1_555 1_555
C7B O3B 1_555 1_555
O4B C7B 1_555 1_555
O5B Ni1 1_555 1_555
O5_2 Ni1B 1_555 1_555
C8B O5B 1_555 1_555
O6B C8B 1_555 1_555
O7B C9B 1_555 1_555
C9B O8B 1_555 1_555
C10B C7B 1_555 1_555
C11B C10B 1_555 1_555
H13B C11B 1_555 1_555
C12B C8B 1_555 1_555
C13B C12B 1_555 1_555
H14B C13B 1_555 1_555
C14B C9B 1_555 1_555
C15B C10B 1_555 1_555
H15B C15B 1_555 1_555
N1 N2 1_555 1_555
C2 N3 1_555 1_555
C5 N6 1_555 1_555
N6 C6 1_555 1_555
C11 C12 1_555 1_555
C13 C14 1_555 1_555
C14 C15 1_555 1_555
N1B N2B 1_555 1_555
C2B N3B 1_555 1_555
N4C N5C 1_555 1_555
N4A N5A 1_555 1_555
C5B N6B 1_555 1_555
N6B C6B 1_555 1_555
C11B C12B 1_555 1_555
C13B C14B 1_555 1_555
C14B C15B 1_555 1_555

#END
