
#######################################################################
#
#                 Cambridge Crystallographic Data Centre
#                                CCDC 
#
#######################################################################
#
# If this CIF has been generated from an entry in the Cambridge 
# Structural Database, then it will include bibliographic, chemical, 
# crystal, experimental, refinement or atomic coordinate data resulting 
# from the CCDC's data processing and validation procedures.
#
#######################################################################

data_LOBNIA
_symmetry_cell_setting           orthorhombic
_symmetry_space_group_name_H-M   'C m c 21'
_symmetry_Int_Tables_number      36
_space_group_name_Hall           'C 2n -2'
loop_
_symmetry_equiv_pos_site_id
_symmetry_equiv_pos_as_xyz
1 x,y,z
2 -x,-y,1/2+z
3 -x,y,z
4 x,-y,1/2+z
5 1/2+x,1/2+y,z
6 1/2-x,1/2-y,1/2+z
7 1/2-x,1/2+y,z
8 1/2+x,1/2-y,1/2+z
_cell_length_a                   18.3830(2)
_cell_length_b                   10.28010(10)
_cell_length_c                   8.17620(10)
_cell_angle_alpha                90
_cell_angle_beta                 90
_cell_angle_gamma                90
_cell_volume                     1545.13
loop_
_atom_site_label
_atom_site_type_symbol
_atom_site_fract_x
_atom_site_fract_y
_atom_site_fract_z
Sn1 Sn 0.5000 0.494121(18) 0.50000(18)
O1 O 0.5000 0.5850(3) 0.2563(4)
H1 H 0.5000 0.6666 0.2598
C1 C 0.5000 0.2980(4) 0.4053(6)
H2 H 0.5000 0.3071 0.2836
C2 C 0.43184(16) 0.2226(3) 0.4465(5)
H3 H 0.3888 0.2721 0.4084
H4 H 0.4281 0.2132 0.5667
C3 C 0.4313(2) 0.0883(3) 0.3681(5)
H5 H 0.3885 0.0392 0.4078
H6 H 0.4268 0.0977 0.2480
C4 C 0.5000 0.0125(4) 0.4074(8)
H7 H 0.5000 -0.0102 0.5251
H8 H 0.5000 -0.0696 0.3442
C5 C 0.60222(16) 0.5831(3) 0.5558(4)
C6 C 0.62261(15) 0.7060(2) 0.5004(5)
H9 H 0.5897 0.7548 0.4352
C7 C 0.69028(19) 0.7587(3) 0.5387(4)
H10 H 0.7023 0.8441 0.5036
C8 C 0.74004(18) 0.6867(4) 0.6280(5)
H11 H 0.7867 0.7216 0.6514
C9 C 0.72163(17) 0.5644(4) 0.6826(5)
H12 H 0.7553 0.5149 0.7449
C10 C 0.6529(3) 0.5133(3) 0.6458(7)
H13 H 0.6407 0.4287 0.6836
Sn1A Sn 0.5000 0.505879(18) 0.00000(18)
O1A O 0.5000 0.4150(3) 0.7563(4)
H1A H 0.5000 0.3334 0.7598
C2B C 0.56816(16) 0.2226(3) 0.4465(5)
H3B H 0.6112 0.2721 0.4084
H4B H 0.5719 0.2132 0.5667
C3B C 0.5687(2) 0.0883(3) 0.3681(5)
H5B H 0.6115 0.0392 0.4078
H6B H 0.5732 0.0977 0.2480
C5B C 0.39778(16) 0.5831(3) 0.5558(4)
C6B C 0.37739(15) 0.7060(2) 0.5004(5)
H9B H 0.4103 0.7548 0.4352
C7B C 0.30972(19) 0.7587(3) 0.5387(4)
H10B H 0.2977 0.8441 0.5036
C8B C 0.25996(18) 0.6867(4) 0.6280(5)
H11B H 0.2133 0.7216 0.6514
C9B C 0.27837(17) 0.5644(4) 0.6826(5)
H12B H 0.2447 0.5149 0.7449
C10B C 0.3471(3) 0.5133(3) 0.6458(7)
H13B H 0.3593 0.4287 0.6836
loop_
_geom_bond_atom_site_label_1
_geom_bond_atom_site_label_2
_geom_bond_site_symmetry_1
_geom_bond_site_symmetry_2
Sn1 O1 1_555 1_555
O1 H1 1_555 1_555
C1 Sn1 1_555 1_555
H2 C1 1_555 1_555
C2 C1 1_555 1_555
H3 C2 1_555 1_555
H4 C2 1_555 1_555
C3 C2 1_555 1_555
H5 C3 1_555 1_555
H6 C3 1_555 1_555
C4 C3 1_555 1_555
H7 C4 1_555 1_555
H8 C4 1_555 1_555
C5 Sn1 1_555 1_555
C6 C5 1_555 1_555
H9 C6 1_555 1_555
C7 C6 1_555 1_555
H10 C7 1_555 1_555
C8 C7 1_555 1_555
H11 C8 1_555 1_555
C9 C8 1_555 1_555
H12 C9 1_555 1_555
C10 C5 1_555 1_555
H13 C10 1_555 1_555
Sn1A O1 1_555 1_555
O1A Sn1 1_555 1_555
H1A O1A 1_555 1_555
C2B C1 1_555 1_555
H3B C2B 1_555 1_555
H4B C2B 1_555 1_555
C3B C4 1_555 1_555
H5B C3B 1_555 1_555
H6B C3B 1_555 1_555
C5B Sn1 1_555 1_555
C6B C5B 1_555 1_555
H9B C6B 1_555 1_555
C7B C6B 1_555 1_555
H10B C7B 1_555 1_555
C8B C7B 1_555 1_555
H11B C8B 1_555 1_555
C9B C8B 1_555 1_555
H12B C9B 1_555 1_555
C10B C5B 1_555 1_555
H13B C10B 1_555 1_555
C9 C10 1_555 1_555
C2B C3B 1_555 1_555
C9B C10B 1_555 1_555

#END
