
#######################################################################
#
#                 Cambridge Crystallographic Data Centre
#                                CCDC 
#
#######################################################################
#
# If this CIF has been generated from an entry in the Cambridge 
# Structural Database, then it will include bibliographic, chemical, 
# crystal, experimental, refinement or atomic coordinate data resulting 
# from the CCDC's data processing and validation procedures.
#
#######################################################################

data_LOBNUM
_symmetry_cell_setting           monoclinic
_symmetry_space_group_name_H-M   'P 21/n'
_symmetry_Int_Tables_number      14
_space_group_name_Hall           '-P 2yn'
loop_
_symmetry_equiv_pos_site_id
_symmetry_equiv_pos_as_xyz
1 x,y,z
2 1/2-x,1/2+y,1/2-z
3 -x,-y,-z
4 1/2+x,1/2-y,1/2+z
_cell_length_a                   10.8771(7)
_cell_length_b                   9.6066(6)
_cell_length_c                   12.7284(8)
_cell_angle_alpha                90
_cell_angle_beta                 111.6190(10)
_cell_angle_gamma                90
_cell_volume                     1236.45
loop_
_atom_site_label
_atom_site_type_symbol
_atom_site_fract_x
_atom_site_fract_y
_atom_site_fract_z
Fe1 Fe 0.40603(2) 0.37707(2) 0.580119(18)
O1 O 0.28044(15) 0.19952(16) 0.64714(12)
O2 O 0.43525(13) 0.34442(14) 0.74858(11)
O3 O 0.32118(11) 0.33429(14) 0.41409(10)
O4 O 0.45693(13) 0.46511(14) 0.36328(12)
N1 N 0.25364(13) 0.02956(15) 0.94060(12)
N2 N 0.06748(13) 0.27149(15) 0.09200(12)
C1 C 0.35420(18) 0.24585(18) 0.73955(15)
C2 C 0.35386(17) 0.18565(18) 0.84835(14)
C3 C 0.25803(17) 0.09027(18) 0.84724(15)
H1 H 0.1932 0.0671 0.7780
C4 C 0.34759(18) 0.0657(2) 1.03903(15)
H2 H 0.3462 0.0246 1.1047
C5 C 0.4460(2) 0.1601(2) 1.04838(16)
H3 H 0.5090 0.1824 1.1187
C6 C 0.44980(18) 0.2211(2) 0.95150(16)
H4 H 0.5156 0.2849 0.9554
C7 C 0.35595(15) 0.39427(16) 0.34127(14)
C8 C 0.26579(15) 0.37708(15) 0.22048(14)
C9 C 0.15745(16) 0.29047(17) 0.19585(13)
H5 H 0.1464 0.2424 0.2552
C10 C 0.08654(19) 0.3417(2) 0.00799(15)
H6 H 0.0251 0.3306 -0.0651
C11 C 0.19213(19) 0.4291(2) 0.02432(15)
H7 H 0.2013 0.4753 -0.0366
C12 C 0.28458(18) 0.44749(18) 0.13239(15)
H8 H 0.3572 0.5054 0.1456
Fe1B Fe 0.59397(2) 0.62293(2) 0.419881(18)
Fe1A Fe 0.09397(2) -0.12293(2) 0.919881(18)
Fe1C Fe -0.09397(2) 0.12293(2) 0.080119(18)
O4B O 0.54307(13) 0.53489(14) 0.63672(12)
N1A N 0.24636(13) 0.52956(15) 0.55940(12)
N2C N 0.56748(13) 0.22851(15) 0.59200(12)
loop_
_geom_bond_atom_site_label_1
_geom_bond_atom_site_label_2
_geom_bond_site_symmetry_1
_geom_bond_site_symmetry_2
Fe1 O1 1_555 1_555
O1 C1 1_555 1_555
O2 Fe1 1_555 1_555
O3 Fe1 1_555 1_555
O4 C7 1_555 1_555
N1 C3 1_555 1_555
N2 C9 1_555 1_555
C1 O2 1_555 1_555
C2 C1 1_555 1_555
C3 C2 1_555 1_555
H1 C3 1_555 1_555
C4 N1 1_555 1_555
H2 C4 1_555 1_555
C5 C4 1_555 1_555
H3 C5 1_555 1_555
C6 C2 1_555 1_555
H4 C6 1_555 1_555
C7 O3 1_555 1_555
C8 C7 1_555 1_555
C9 C8 1_555 1_555
H5 C9 1_555 1_555
C10 N2 1_555 1_555
H6 C10 1_555 1_555
C11 C10 1_555 1_555
H7 C11 1_555 1_555
C12 C8 1_555 1_555
H8 C12 1_555 1_555
Fe1B O4 1_555 1_555
Fe1A N1 1_555 1_555
Fe1C N2 1_555 1_555
O4B Fe1 1_555 1_555
N1A Fe1 1_555 1_555
N2C Fe1 1_555 1_555
C5 C6 1_555 1_555
C11 C12 1_555 1_555

#END
