
#######################################################################
#
#                 Cambridge Crystallographic Data Centre
#                                CCDC 
#
#######################################################################
#
# If this CIF has been generated from an entry in the Cambridge 
# Structural Database, then it will include bibliographic, chemical, 
# crystal, experimental, refinement or atomic coordinate data resulting 
# from the CCDC's data processing and validation procedures.
#
#######################################################################

data_LOBQAV
_symmetry_cell_setting           orthorhombic
_symmetry_space_group_name_H-M   'P b c a'
_symmetry_Int_Tables_number      61
_space_group_name_Hall           '-P 2ac 2ab'
loop_
_symmetry_equiv_pos_site_id
_symmetry_equiv_pos_as_xyz
1 x,y,z
2 1/2-x,-y,1/2+z
3 1/2+x,1/2-y,-z
4 -x,1/2+y,1/2-z
5 -x,-y,-z
6 1/2+x,y,1/2-z
7 1/2-x,1/2+y,z
8 x,1/2-y,1/2+z
_cell_length_a                   13.948(3)
_cell_length_b                   6.8724(14)
_cell_length_c                   21.844(4)
_cell_angle_alpha                90
_cell_angle_beta                 90
_cell_angle_gamma                90
_cell_volume                     2093.88
loop_
_atom_site_label
_atom_site_type_symbol
_atom_site_fract_x
_atom_site_fract_y
_atom_site_fract_z
C1 C 0.1795(2) 0.2005(4) 0.33571(13)
C2 C 0.1524(2) 0.1513(4) 0.27097(13)
C3 C 0.0612(2) 0.1987(5) 0.24969(14)
H1 H 0.0170 0.2563 0.2759
C4 C 0.0363(2) 0.1603(5) 0.18965(13)
H2 H -0.0247 0.1919 0.1756
C5 C 0.1021(2) 0.0744(4) 0.15012(12)
C6 C 0.1935(2) 0.0297(5) 0.17129(14)
H3 H 0.2382 -0.0253 0.1449
C7 C 0.2183(2) 0.0667(5) 0.23162(14)
H4 H 0.2792 0.0348 0.2457
C8 C 0.3754(2) 0.5305(4) 0.46896(15)
C9 C 0.4829(2) 0.5423(5) 0.46975(14)
H5 H 0.5034 0.6766 0.4660
H6 H 0.5095 0.4688 0.4358
C10 C 0.0752(2) 0.0328(4) 0.08488(12)
O1 O 0.25854(17) 0.1379(4) 0.35567(9)
O2 O 0.12255(18) 0.3032(3) 0.36600(10)
O3 O 0.33421(15) 0.3741(3) 0.45414(10)
O4 O 0.32547(15) 0.6772(3) 0.48303(9)
O5 O 0.13755(15) -0.0398(3) 0.05016(9)
O6 O -0.00860(15) 0.0752(3) 0.06791(9)
Tb1 Tb 0.331426(9) 0.019240(18) 0.445275(6)
C1F C 0.3205(2) -0.2995(4) 0.33571(13)
C2F C 0.3476(2) -0.3487(4) 0.27097(13)
C3F C 0.4388(2) -0.3013(5) 0.24969(14)
H1F H 0.4830 -0.2437 0.2759
C4F C 0.4637(2) -0.3397(5) 0.18965(13)
H2F H 0.5247 -0.3081 0.1756
C5F C 0.3979(2) -0.4256(4) 0.15012(12)
C6F C 0.3065(2) -0.4703(5) 0.17129(14)
H3F H 0.2618 -0.5253 0.1449
C7F C 0.2817(2) -0.4333(5) 0.23162(14)
H4F H 0.2208 -0.4652 0.2457
C8D C 0.6246(2) 0.4695(4) 0.53104(15)
C9D C 0.5171(2) 0.4577(5) 0.53025(14)
H5D H 0.4966 0.3234 0.5340
H6D H 0.4905 0.5312 0.5642
C10F C 0.4248(2) -0.4672(4) 0.08488(12)
O1F O 0.24146(17) -0.3621(4) 0.35567(9)
O2F O 0.37745(18) -0.1968(3) 0.36600(10)
O2_2 O 0.12255(18) -0.6968(3) 0.36600(10)
O3D O 0.66579(15) 0.6259(3) 0.54586(10)
O3F O 0.16579(15) -0.1259(3) 0.45414(10)
O3_2 O 0.33421(15) -0.6259(3) 0.45414(10)
O4D O 0.67453(15) 0.3228(3) 0.51697(9)
O4_2 O 0.32547(15) -0.3228(3) 0.48303(9)
O4F O 0.17453(15) 0.1772(3) 0.48303(9)
O4F_2 O 0.17453(15) -0.8228(3) 0.48303(9)
O5F O 0.36245(15) -0.5398(3) 0.05016(9)
O5A O 0.36245(15) 0.0398(3) 0.55016(9)
O5G O 0.13755(15) -0.4602(3) 0.55016(9)
O6F O 0.50860(15) -0.4248(3) 0.06791(9)
O6E O 0.49140(15) 0.0752(3) 0.43209(9)
O6C O 0.00860(15) -0.4248(3) 0.43209(9)
Tb1F Tb 0.168574(9) -0.480760(18) 0.445275(6)
Tb1F_2 Tb 0.168574(9) 0.519240(18) 0.445275(6)
Tb1_2 Tb 0.331426(9) 1.019240(18) 0.445275(6)
Tb1A Tb 0.168574(9) -0.019240(18) -0.054725(6)
Tb1E Tb -0.168574(9) 0.019240(18) 0.054725(6)
Tb1D Tb 0.668574(9) 0.980760(18) 0.554725(6)
Tb1B Tb 0.831426(9) 0.480760(18) 0.554725(6)
Tb1D_2 Tb 0.668574(9) -0.019240(18) 0.554725(6)
Tb1G Tb 0.331426(9) -0.519240(18) -0.054725(6)
Tb1C Tb 0.668574(9) -0.480760(18) 0.054725(6)
loop_
_geom_bond_atom_site_label_1
_geom_bond_atom_site_label_2
_geom_bond_site_symmetry_1
_geom_bond_site_symmetry_2
C1 C2 1_555 1_555
C2 C3 1_555 1_555
C3 H1 1_555 1_555
C4 C3 1_555 1_555
H2 C4 1_555 1_555
C5 C4 1_555 1_555
C6 C5 1_555 1_555
H3 C6 1_555 1_555
C7 C2 1_555 1_555
H4 C7 1_555 1_555
C8 C9 1_555 1_555
C9 H5 1_555 1_555
H6 C9 1_555 1_555
C10 C5 1_555 1_555
O1 C1 1_555 1_555
O2 C1 1_555 1_555
O3 C8 1_555 1_555
O4 C8 1_555 1_555
O5 C10 1_555 1_555
O6 C10 1_555 1_555
Tb1 O1 1_555 1_555
C1F C2F 1_555 1_555
C2F C3F 1_555 1_555
C3F H1F 1_555 1_555
C4F C3F 1_555 1_555
H2F C4F 1_555 1_555
C5F C4F 1_555 1_555
C6F C5F 1_555 1_555
H3F C6F 1_555 1_555
C7F C2F 1_555 1_555
H4F C7F 1_555 1_555
C8D C9D 1_555 1_555
C9D C9 1_555 1_555
H5D C9D 1_555 1_555
H6D C9D 1_555 1_555
C10F C5F 1_555 1_555
O1F C1F 1_555 1_555
O2F Tb1 1_555 1_555
O2_2 Tb1F 1_555 1_555
O3D C8D 1_555 1_555
O3F Tb1 1_555 1_555
O3_2 Tb1F 1_555 1_555
O4D C8D 1_555 1_555
O4_2 Tb1 1_555 1_555
O4F Tb1 1_555 1_555
O4F_2 Tb1F 1_555 1_555
O5F C10F 1_555 1_555
O5A Tb1 1_555 1_555
O5G Tb1F 1_555 1_555
O6F C10F 1_555 1_555
O6E Tb1 1_555 1_555
O6C Tb1F 1_555 1_555
Tb1F O1F 1_555 1_555
Tb1F_2 O2 1_555 1_555
Tb1_2 O4 1_555 1_555
Tb1A O5 1_555 1_555
Tb1E O6 1_555 1_555
Tb1D O3D 1_555 1_555
Tb1B O3D 1_555 1_555
Tb1D_2 O4D 1_555 1_555
Tb1G O5F 1_555 1_555
Tb1C O6F 1_555 1_555
C6 C7 1_555 1_555
O3 Tb1 1_555 1_555
O3 Tb1F_2 1_555 1_555
O4 Tb1F_2 1_555 1_555
C1F O2F 1_555 1_555
C6F C7F 1_555 1_555
O3F Tb1F 1_555 1_555
O4D Tb1B 1_555 1_555
O4_2 Tb1F 1_555 1_555
O4F Tb1F_2 1_555 1_555

#END
