
#######################################################################
#
#                 Cambridge Crystallographic Data Centre
#                                CCDC 
#
#######################################################################
#
# If this CIF has been generated from an entry in the Cambridge 
# Structural Database, then it will include bibliographic, chemical, 
# crystal, experimental, refinement or atomic coordinate data resulting 
# from the CCDC's data processing and validation procedures.
#
#######################################################################

data_LOBXEH
_symmetry_cell_setting           triclinic
_symmetry_space_group_name_H-M   'P -1'
_symmetry_Int_Tables_number      2
_space_group_name_Hall           '-P 1'
loop_
_symmetry_equiv_pos_site_id
_symmetry_equiv_pos_as_xyz
1 x,y,z
2 -x,-y,-z
_cell_length_a                   7.3088(19)
_cell_length_b                   7.3343(11)
_cell_length_c                   10.0658(14)
_cell_angle_alpha                87.759(11)
_cell_angle_beta                 71.037(14)
_cell_angle_gamma                66.135(14)
_cell_volume                     463.994
loop_
_atom_site_label
_atom_site_type_symbol
_atom_site_fract_x
_atom_site_fract_y
_atom_site_fract_z
N1 N 0.1713(4) 1.1859(3) 0.4846(2)
Co1 Co 0.0000 1.5000 0.5000
Co2 Co 0.5000 0.5000 0.0000
O1 O 0.2349(4) 1.2645(3) 0.8085(2)
O2 O 0.0981(3) 1.4796(3) 0.6682(2)
O3 O 0.2844(3) 0.5277(3) 0.3544(2)
O4 O 0.3336(3) 0.7205(3) 0.1803(2)
O5 O 0.2453(4) 0.5843(4) -0.0716(3)
H1 H 0.139(4) 0.688(3) -0.062(4)
H2 H 0.234(6) 0.500(4) -0.116(4)
O6 O 0.4199(4) 0.2847(3) 0.1156(2)
H3 H 0.333(4) 0.258(6) 0.095(3)
H4 H 0.359(5) 0.335(5) 0.1980(13)
C1 C 0.2165(4) 1.1321(4) 0.6043(3)
C2 C 0.2884(5) 0.9358(4) 0.6342(3)
H5 H 0.3194 0.9024 0.7169
C3 C 0.3139(4) 0.7880(4) 0.5383(3)
H6 H 0.3553 0.6554 0.5584
C4 C 0.2770(4) 0.8409(4) 0.4128(3)
C5 C 0.2067(4) 1.0424(4) 0.3894(3)
H7 H 0.1836 1.0784 0.3047
C6 C 0.1794(5) 1.3044(4) 0.7027(3)
C7 C 0.3003(4) 0.6853(4) 0.3072(3)
N1A N -0.1713(4) 0.8141(3) 0.5154(2)
O1A O -0.2349(4) 0.7355(3) 0.1915(2)
O2A O -0.0981(3) 0.5204(3) 0.3318(2)
O3A O -0.2844(3) 1.4723(3) 0.6456(2)
O4A O -0.3336(3) 1.2795(3) 0.8197(2)
C1A C -0.2165(4) 0.8679(4) 0.3957(3)
C2A C -0.2884(5) 1.0642(4) 0.3658(3)
H5A H -0.3194 1.0976 0.2831
C3A C -0.3139(4) 1.2120(4) 0.4617(3)
H6A H -0.3553 1.3446 0.4416
C4A C -0.2770(4) 1.1591(4) 0.5872(3)
C5A C -0.2067(4) 0.9576(4) 0.6106(3)
H7A H -0.1836 0.9216 0.6953
C6A C -0.1794(5) 0.6956(4) 0.2973(3)
C7A C -0.3003(4) 1.3147(4) 0.6928(3)
O5A O 0.7547(4) 0.4157(4) 0.0716(3)
H1A H 0.861(4) 0.312(3) 0.062(4)
H2A H 0.766(6) 0.500(4) 0.116(4)
O6A O 0.5801(4) 0.7153(3) -0.1156(2)
H3A H 0.667(4) 0.742(6) -0.095(3)
H4A H 0.641(5) 0.665(5) -0.1980(13)
N1A_2 N -0.1713(4) 1.8141(3) 0.5154(2)
Co1_2 Co 0.0000 0.5000 0.5000
Co2_2 Co -0.5000 1.5000 1.0000
O2A_2 O -0.0981(3) 1.5204(3) 0.3318(2)
O3_2 O 0.2844(3) 1.5277(3) 0.3544(2)
O4A_2 O 0.6664(3) 0.2795(3) -0.1803(2)
O7 O 0.1790(5) 1.0990(4) 1.0537(3)
H8 H 0.239(7) 1.093(6) 0.9685(10)
H9 H 0.231(7) 0.984(2) 1.073(4)
loop_
_geom_bond_atom_site_label_1
_geom_bond_atom_site_label_2
_geom_bond_site_symmetry_1
_geom_bond_site_symmetry_2
N1 Co1 1_555 1_555
Co1 O2 1_555 1_555
Co2 O4 1_555 1_555
O1 C6 1_555 1_555
O2 C6 1_555 1_555
O3 C7 1_555 1_555
O4 C7 1_555 1_555
O5 Co2 1_555 1_555
H1 O5 1_555 1_555
H2 O5 1_555 1_555
O6 Co2 1_555 1_555
H3 O6 1_555 1_555
H4 O6 1_555 1_555
C1 N1 1_555 1_555
C2 C1 1_555 1_555
H5 C2 1_555 1_555
C3 C2 1_555 1_555
H6 C3 1_555 1_555
C4 C3 1_555 1_555
C5 N1 1_555 1_555
H7 C5 1_555 1_555
C6 C1 1_555 1_555
C7 C4 1_555 1_555
O7 H8 1_555 1_555
H9 O7 1_555 1_555
N1A C1A 1_555 1_555
O1A C6A 1_555 1_555
O2A C6A 1_555 1_555
O3A Co1 1_555 1_555
O4A C7A 1_555 1_555
C1A C2A 1_555 1_555
C2A H5A 1_555 1_555
C3A C2A 1_555 1_555
H6A C3A 1_555 1_555
C4A C3A 1_555 1_555
C5A N1A 1_555 1_555
H7A C5A 1_555 1_555
C6A C1A 1_555 1_555
C7A O3A 1_555 1_555
O5A Co2 1_555 1_555
H1A O5A 1_555 1_555
H2A O5A 1_555 1_555
O6A Co2 1_555 1_555
H3A O6A 1_555 1_555
H4A O6A 1_555 1_555
N1A_2 Co1 1_555 1_555
Co1_2 O3 1_555 1_555
Co2_2 O4A 1_555 1_555
O2A_2 Co1 1_555 1_555
O3_2 Co1 1_555 1_555
O4A_2 Co2 1_555 1_555
C4 C5 1_555 1_555
N1A Co1_2 1_555 1_555
O2A Co1_2 1_555 1_555
C4A C5A 1_555 1_555
C4A C7A 1_555 1_555

#END
