
#######################################################################
#
#                 Cambridge Crystallographic Data Centre
#                                CCDC 
#
#######################################################################
#
# If this CIF has been generated from an entry in the Cambridge 
# Structural Database, then it will include bibliographic, chemical, 
# crystal, experimental, refinement or atomic coordinate data resulting 
# from the CCDC's data processing and validation procedures.
#
#######################################################################

data_LOBXUW01
_symmetry_cell_setting           triclinic
_symmetry_space_group_name_H-M   'P -1'
_symmetry_Int_Tables_number      2
_space_group_name_Hall           '-P 1'
loop_
_symmetry_equiv_pos_site_id
_symmetry_equiv_pos_as_xyz
1 x,y,z
2 -x,-y,-z
_cell_length_a                   6.1943(15)
_cell_length_b                   12.700(3)
_cell_length_c                   15.634(4)
_cell_angle_alpha                111.728(4)
_cell_angle_beta                 90.330(4)
_cell_angle_gamma                95.202(4)
_cell_volume                     1136.77
loop_
_atom_site_label
_atom_site_type_symbol
_atom_site_fract_x
_atom_site_fract_y
_atom_site_fract_z
C1 C 0.4206(7) -0.1543(3) 0.3429(3)
C2 C 0.2391(7) -0.2386(3) 0.2938(3)
H1 H 0.1028 -0.2309 0.3188
C3 C 0.2615(7) -0.3245(3) 0.2159(3)
H2 H 0.3981 -0.3301 0.1912
C4 C 0.0885(7) -0.4112(3) 0.1656(3)
C5 C -0.1280(8) -0.3904(4) 0.1712(4)
H3 H -0.1608 -0.3181 0.2085
C6 C -0.0313(8) -0.5986(4) 0.0630(4)
H4 H -0.0034 -0.6720 0.0258
C7 C -0.2397(9) -0.5694(5) 0.0728(4)
H5 H -0.3510 -0.6240 0.0399
C8 C 0.1355(8) -0.5188(4) 0.1084(3)
H6 H 0.2785 -0.5363 0.1010
C9 C 0.9740(7) 0.0134(4) 0.2641(3)
C10 C 1.0727(7) -0.0196(4) 0.1724(3)
H7 H 1.0032 -0.0050 0.1257
C11 C 1.2544(7) -0.0688(4) 0.1548(3)
H8 H 1.3238 -0.0781 0.2041
C12 C 1.3593(7) -0.1103(4) 0.0665(3)
C13 C 1.2716(8) -0.1131(4) -0.0154(3)
H9 H 1.1342 -0.0900 -0.0178
C14 C 1.3880(10) -0.1502(4) -0.0934(3)
H10 H 1.3322 -0.1521 -0.1494
C15 C 1.5897(10) -0.1844(4) -0.0867(4)
H11 H 1.6687 -0.2091 -0.1397
C16 C 1.5618(8) -0.1488(4) 0.0642(3)
H12 H 1.6211 -0.1498 0.1187
C17 C 1.0768(7) 0.2093(3) 0.5246(3)
C18 C 1.2491(7) 0.3026(3) 0.5702(3)
H13 H 1.3664 0.2862 0.5988
C19 C 1.2474(7) 0.4064(3) 0.5729(3)
H14 H 1.1246 0.4229 0.5477
C20 C 1.4205(7) 0.4997(3) 0.6119(3)
C21 C 1.6182(8) 0.4856(4) 0.6451(4)
H15 H 1.6448 0.4148 0.6453
C22 C 1.7759(8) 0.5757(4) 0.6779(4)
H16 H 1.9087 0.5674 0.7015
C23 C 1.7321(8) 0.6780(4) 0.6750(3)
H17 H 1.8408 0.7383 0.6954
C24 C 1.3932(8) 0.6076(4) 0.6142(3)
H18 H 1.2604 0.6193 0.5929
Gd1 Gd 0.75616(3) 0.027829(16) 0.424754(14)
N1 N 1.5449(7) 0.6960(3) 0.6449(3)
N2 N 1.6768(7) -0.1845(4) -0.0108(3)
N3 N -0.2917(7) -0.4669(4) 0.1269(3)
O1 O 0.4039(4) -0.0905(2) 0.42782(18)
O2 O 0.5933(5) -0.1443(2) 0.30329(19)
O3 O 0.8040(5) 0.0604(3) 0.2771(2)
O4 O 1.0666(4) -0.0066(2) 0.32922(19)
O5 O 0.9225(5) 0.2252(2) 0.4809(2)
O6 O 1.0879(4) 0.1121(2) 0.53043(18)
O7 O 0.4601(4) 0.1148(2) 0.3959(2)
H19 H 0.4939 0.1862 0.4138
H20 H 0.3529 0.1017 0.4255
Gd1A Gd 0.24384(3) -0.027829(16) 0.575246(14)
Gd1A_2 Gd 1.24384(3) -0.027829(16) 0.575246(14)
O1A O 0.5961(4) 0.0905(2) 0.57218(18)
O6A O 0.9121(4) -0.1121(2) 0.46957(18)
loop_
_geom_bond_atom_site_label_1
_geom_bond_atom_site_label_2
_geom_bond_site_symmetry_1
_geom_bond_site_symmetry_2
C1 C2 1_555 1_555
C2 H1 1_555 1_555
C3 C2 1_555 1_555
H2 C3 1_555 1_555
C4 C3 1_555 1_555
C5 C4 1_555 1_555
H3 C5 1_555 1_555
C6 H4 1_555 1_555
C7 C6 1_555 1_555
H5 C7 1_555 1_555
C8 C4 1_555 1_555
H6 C8 1_555 1_555
C9 C10 1_555 1_555
C10 H7 1_555 1_555
C11 C10 1_555 1_555
H8 C11 1_555 1_555
C12 C11 1_555 1_555
C13 C12 1_555 1_555
H9 C13 1_555 1_555
C14 C13 1_555 1_555
H10 C14 1_555 1_555
C15 C14 1_555 1_555
H11 C15 1_555 1_555
C16 C12 1_555 1_555
H12 C16 1_555 1_555
C17 C18 1_555 1_555
C18 H13 1_555 1_555
C19 C18 1_555 1_555
H14 C19 1_555 1_555
C20 C19 1_555 1_555
C21 C20 1_555 1_555
H15 C21 1_555 1_555
C22 C21 1_555 1_555
H16 C22 1_555 1_555
C23 C22 1_555 1_555
H17 C23 1_555 1_555
C24 C20 1_555 1_555
H18 C24 1_555 1_555
Gd1 O1 1_555 1_555
N1 C23 1_555 1_555
N2 C15 1_555 1_555
N3 C5 1_555 1_555
O1 C1 1_555 1_555
O2 C1 1_555 1_555
O3 C9 1_555 1_555
O4 C9 1_555 1_555
O5 C17 1_555 1_555
O6 C17 1_555 1_555
O7 Gd1 1_555 1_555
H19 O7 1_555 1_555
H20 O7 1_555 1_555
Gd1A O1 1_555 1_555
Gd1A_2 O6 1_555 1_555
O1A Gd1 1_555 1_555
O6A Gd1 1_555 1_555
C6 C8 1_555 1_555
C7 N3 1_555 1_555
C16 N2 1_555 1_555
C24 N1 1_555 1_555
Gd1 O2 1_555 1_555
Gd1 O3 1_555 1_555
Gd1 O4 1_555 1_555
Gd1 O5 1_555 1_555
Gd1 O6 1_555 1_555
Gd1A O1A 1_555 1_555
Gd1A_2 O6A 1_555 1_555

#END
