
#######################################################################
#
#                 Cambridge Crystallographic Data Centre
#                                CCDC 
#
#######################################################################
#
# If this CIF has been generated from an entry in the Cambridge 
# Structural Database, then it will include bibliographic, chemical, 
# crystal, experimental, refinement or atomic coordinate data resulting 
# from the CCDC's data processing and validation procedures.
#
#######################################################################

data_LOCCOV02
_symmetry_cell_setting           monoclinic
_symmetry_space_group_name_H-M   'C 2/c'
_symmetry_Int_Tables_number      15
_space_group_name_Hall           '-C 2yn'
loop_
_symmetry_equiv_pos_site_id
_symmetry_equiv_pos_as_xyz
1 x,y,z
2 1/2+x,1/2+y,z
3 x,-y,1/2+z
4 1/2+x,1/2-y,1/2+z
5 -x,-y,-z
6 1/2-x,1/2-y,-z
7 -x,y,1/2-z
8 1/2-x,1/2+y,1/2-z
_cell_length_a                   18.9015(11)
_cell_length_b                   11.7948(7)
_cell_length_c                   12.1547(7)
_cell_angle_alpha                90
_cell_angle_beta                 97.4380(10)
_cell_angle_gamma                90
_cell_volume                     2686.96
loop_
_atom_site_label
_atom_site_type_symbol
_atom_site_fract_x
_atom_site_fract_y
_atom_site_fract_z
Cd1 Cd 0.0000 0.258808(9) 0.7500
O1 O 0.07106(6) 0.25978(8) 0.91964(9)
H1 H 0.0969 0.3133 0.9333
H2 H 0.0944 0.1976 0.9407
N1 N -0.10001(7) 0.25288(8) 0.85001(11)
N2 N 0.0000 0.45917(13) 0.7500
N3 N 0.0000 1.06018(13) 0.7500
C1 C -0.16401(8) 0.21528(14) 0.80377(12)
H3 H -0.1688 0.1896 0.7291
C2 C -0.22354(7) 0.21200(14) 0.85948(12)
H4 H -0.2676 0.1843 0.8231
C3 C -0.21855(8) 0.24943(10) 0.96890(12)
C4 C -0.15162(7) 0.28637(14) 1.01718(11)
H5 H -0.1450 0.3110 1.0922
C5 C -0.09472(7) 0.28722(13) 0.95599(11)
H6 H -0.0498 0.3134 0.9907
C6 C -0.05245(7) 0.51839(11) 0.78807(11)
H7 H -0.0904 0.4778 0.8141
C7 C -0.05399(7) 0.63575(11) 0.79123(11)
H8 H -0.0914 0.6740 0.8211
C8 C 0.0000 0.69721(15) 0.7500
C9 C -0.01980(7) 1.00121(11) 0.83559(11)
H9 H -0.0338 1.0419 0.8967
C10 C -0.02068(7) 0.88403(11) 0.83867(10)
H10 H -0.0352 0.8455 0.9006
C11 C 0.0000 0.82300(15) 0.7500
C3E C -0.28145(8) 0.25057(10) 1.03110(12)
C2E C -0.27646(7) 0.28800(14) 1.14052(12)
C1E C -0.33599(8) 0.28472(14) 1.19623(12)
N1E N -0.39999(7) 0.24712(8) 1.14999(11)
C5E C -0.40528(7) 0.21278(13) 1.04401(11)
C4E C -0.34838(7) 0.21363(14) 0.98282(11)
H5E H -0.3550 0.1890 0.9078
H6E H -0.4502 0.1866 1.0093
H3E H -0.3312 0.3104 1.2709
H4E H -0.2324 0.3157 1.1769
C7F C 0.05399(7) 0.63575(11) 0.70877(11)
C6F C 0.05245(7) 0.51839(11) 0.71193(11)
H7F H 0.0904 0.4778 0.6859
H8F H 0.0914 0.6740 0.6789
C9F C 0.01980(7) 1.00121(11) 0.66441(11)
H9F H 0.0338 1.0419 0.6033
C10F C 0.02068(7) 0.88403(11) 0.66133(10)
H10F H 0.0352 0.8455 0.5994
O1F O -0.07106(6) 0.25978(8) 0.58036(9)
H1F H -0.0969 0.3133 0.5667
H2F H -0.0944 0.1976 0.5593
N1F N 0.10001(7) 0.25288(8) 0.64999(11)
N3_2 N 0.0000 0.06018(13) 0.7500
Cd1_2 Cd 0.0000 1.258808(9) 0.7500
Cd1C Cd -0.5000 0.241192(9) 1.2500
N4 N -0.26963(7) 0.45698(12) 0.77262(11)
O2 O -0.26526(8) 0.41922(15) 0.67684(10)
O3 O -0.32353(6) 0.43460(12) 0.81738(11)
O4 O -0.22022(7) 0.51464(12) 0.82123(10)
O5 O 0.15736(7) 0.43964(12) 0.95613(12)
H11 H 0.1803 0.4528 1.0214
H12 H 0.1916 0.4388 0.9086
O6 O 0.13337(6) 0.06366(11) 0.98757(10)
H13 H 0.1505 0.0257 0.9467
H14 H 0.1625 0.0711 1.0487
loop_
_geom_bond_atom_site_label_1
_geom_bond_atom_site_label_2
_geom_bond_site_symmetry_1
_geom_bond_site_symmetry_2
Cd1 O1 1_555 1_555
O1 H1 1_555 1_555
H2 O1 1_555 1_555
N1 Cd1 1_555 1_555
N2 Cd1 1_555 1_555
N3 C9 1_555 1_555
C1 N1 1_555 1_555
H3 C1 1_555 1_555
C2 C1 1_555 1_555
H4 C2 1_555 1_555
C3 C2 1_555 1_555
C4 C3 1_555 1_555
H5 C4 1_555 1_555
C5 N1 1_555 1_555
H6 C5 1_555 1_555
C6 N2 1_555 1_555
H7 C6 1_555 1_555
C7 C6 1_555 1_555
H8 C7 1_555 1_555
C8 C7 1_555 1_555
C9 H9 1_555 1_555
C10 C9 1_555 1_555
H10 C10 1_555 1_555
C11 C8 1_555 1_555
N4 O2 1_555 1_555
O3 N4 1_555 1_555
O4 N4 1_555 1_555
O5 H11 1_555 1_555
H12 O5 1_555 1_555
O6 H13 1_555 1_555
H14 O6 1_555 1_555
C3E C3 1_555 1_555
C2E C3E 1_555 1_555
C1E C2E 1_555 1_555
N1E C1E 1_555 1_555
C5E N1E 1_555 1_555
C4E C3E 1_555 1_555
H5E C4E 1_555 1_555
H6E C5E 1_555 1_555
H3E C1E 1_555 1_555
H4E C2E 1_555 1_555
C7F C8 1_555 1_555
C6F N2 1_555 1_555
H7F C6F 1_555 1_555
H8F C7F 1_555 1_555
C9F N3 1_555 1_555
H9F C9F 1_555 1_555
C10F C11 1_555 1_555
H10F C10F 1_555 1_555
O1F Cd1 1_555 1_555
H1F O1F 1_555 1_555
H2F O1F 1_555 1_555
N1F Cd1 1_555 1_555
N3_2 Cd1 1_555 1_555
Cd1_2 N3 1_555 1_555
Cd1C N1E 1_555 1_555
C4 C5 1_555 1_555
C10 C11 1_555 1_555
C5E C4E 1_555 1_555
C7F C6F 1_555 1_555
C9F C10F 1_555 1_555

#END
