
#######################################################################
#
#                 Cambridge Crystallographic Data Centre
#                                CCDC 
#
#######################################################################
#
# If this CIF has been generated from an entry in the Cambridge 
# Structural Database, then it will include bibliographic, chemical, 
# crystal, experimental, refinement or atomic coordinate data resulting 
# from the CCDC's data processing and validation procedures.
#
#######################################################################

data_LOCCOV01
_symmetry_cell_setting           monoclinic
_symmetry_space_group_name_H-M   'C 2/c'
_symmetry_Int_Tables_number      15
_space_group_name_Hall           '-C 2yn'
loop_
_symmetry_equiv_pos_site_id
_symmetry_equiv_pos_as_xyz
1 x,y,z
2 1/2+x,1/2+y,z
3 x,-y,1/2+z
4 1/2+x,1/2-y,1/2+z
5 -x,-y,-z
6 1/2-x,1/2-y,-z
7 -x,y,1/2-z
8 1/2-x,1/2+y,1/2-z
_cell_length_a                   18.931(13)
_cell_length_b                   11.688(5)
_cell_length_c                   12.101(10)
_cell_angle_alpha                90
_cell_angle_beta                 96.65
_cell_angle_gamma                90
_cell_volume                     2659.52
loop_
_atom_site_label
_atom_site_type_symbol
_atom_site_fract_x
_atom_site_fract_y
_atom_site_fract_z
Cd1 Cd 0.0000 0.26125(2) 0.2500
N1 N 0.10019(13) 0.25631(18) 0.1493(2)
N2 N 0.0000 0.0622(3) 0.2500
N3 N 0.0000 -0.5381(3) 0.2500
C1 C 0.16343(18) 0.2225(3) 0.1961(3)
H1 H 0.1685 0.2037 0.2738
C2 C 0.22286(17) 0.2182(3) 0.1407(3)
H2 H 0.2676 0.1923 0.1778
C3 C 0.21846(15) 0.2504(2) 0.0308(2)
C4 C 0.15249(16) 0.2833(3) -0.0178(3)
H3 H 0.1467 0.3056 -0.0946
C5 C 0.09553(16) 0.2857(3) 0.0429(3)
H4 H 0.0502 0.3096 0.0064
C6 C 0.02038(16) 0.0030(2) 0.1656(2)
H5 H 0.0363 0.0444 0.1046
C7 C 0.02125(16) -0.1132(2) 0.1620(2)
H6 H 0.0367 -0.1523 0.0993
C8 C 0.0000 -0.1746(3) 0.2500
C9 C 0.0000 -0.3007(3) 0.2500
C10 C -0.05353(15) -0.3621(2) 0.2917(3)
H7 H -0.0910 -0.3226 0.3229
C11 C -0.05170(16) -0.4790(2) 0.2893(3)
H8 H -0.0897 -0.5201 0.3175
O1 O 0.07022(13) 0.25867(19) 0.4188(2)
H9 H 0.0993 0.1859 0.4475
H10 H 0.0991 0.3249 0.4368
N1F N -0.10019(13) 0.25631(18) 0.3507(2)
O1F O -0.07022(13) 0.25867(19) 0.0812(2)
C6F C -0.02038(16) 0.0030(2) 0.3344(2)
C3E C 0.28154(15) 0.2496(2) -0.0308(2)
C7F C -0.02125(16) -0.1132(2) 0.3380(2)
C10F C 0.05353(15) -0.3621(2) 0.2083(3)
H9F H -0.0993 0.1859 0.0525
H10F H -0.0991 0.3249 0.0632
H5F H -0.0363 0.0444 0.3954
C2E C 0.27714(17) 0.2818(3) -0.1407(3)
C4E C 0.34751(16) 0.2167(3) 0.0178(3)
H6F H -0.0367 -0.1523 0.4007
H7F H 0.0910 -0.3226 0.1771
C11F C 0.05170(16) -0.4790(2) 0.2107(3)
N3_2 N 0.0000 0.4619(3) 0.2500
C1E C 0.33657(18) 0.2775(3) -0.1961(3)
H2E H 0.2324 0.3077 -0.1778
H3E H 0.3533 0.1944 0.0946
C5E C 0.40447(16) 0.2143(3) -0.0429(3)
H8F H 0.0897 -0.5201 0.1825
Cd1_2 Cd 0.0000 -0.73875(2) 0.2500
N1E N 0.39981(13) 0.24369(18) -0.1493(2)
H1E H 0.3315 0.2963 -0.2738
H4E H 0.4498 0.1904 -0.0064
Cd1C Cd 0.5000 0.23875(2) -0.2500
O2 O 0.13455(14) 0.0633(2) 0.4836(2)
H11 H 0.1577 0.0101 0.4367
H12 H 0.1722 0.0641 0.5435
O3 O 0.15886(14) 0.4339(2) 0.4638(2)
H13 H 0.1843 0.4435 0.5417
H14 H 0.1189 0.4804 0.4693
N4 N 0.2328(2) -0.0368(4) 0.2648(3)
O4 O 0.2781(2) 0.0151(4) 0.3158(4)
O5 O 0.2355(3) -0.0744(5) 0.1733(3)
O6 O 0.1777(2) -0.0606(4) 0.3087(4)
loop_
_geom_bond_atom_site_label_1
_geom_bond_atom_site_label_2
_geom_bond_site_symmetry_1
_geom_bond_site_symmetry_2
Cd1 N1 1_555 1_555
N1 C1 1_555 1_555
N2 Cd1 1_555 1_555
N3 C11 1_555 1_555
C1 H1 1_555 1_555
C2 C1 1_555 1_555
H2 C2 1_555 1_555
C3 C2 1_555 1_555
C4 C3 1_555 1_555
H3 C4 1_555 1_555
C5 N1 1_555 1_555
H4 C5 1_555 1_555
C6 N2 1_555 1_555
H5 C6 1_555 1_555
C7 C6 1_555 1_555
H6 C7 1_555 1_555
C8 C7 1_555 1_555
C9 C8 1_555 1_555
C10 C9 1_555 1_555
H7 C10 1_555 1_555
C11 C10 1_555 1_555
H8 C11 1_555 1_555
O1 Cd1 1_555 1_555
H9 O1 1_555 1_555
H10 O1 1_555 1_555
O2 H11 1_555 1_555
H12 O2 1_555 1_555
O3 H13 1_555 1_555
H14 O3 1_555 1_555
N4 O4 1_555 1_555
O5 N4 1_555 1_555
O6 N4 1_555 1_555
N1F Cd1 1_555 1_555
O1F Cd1 1_555 1_555
C6F N2 1_555 1_555
C3E C3 1_555 1_555
C7F C8 1_555 1_555
C10F C9 1_555 1_555
H9F O1F 1_555 1_555
H10F O1F 1_555 1_555
H5F C6F 1_555 1_555
C2E C3E 1_555 1_555
C4E C3E 1_555 1_555
H6F C7F 1_555 1_555
H7F C10F 1_555 1_555
C11F N3 1_555 1_555
N3_2 Cd1 1_555 1_555
C1E C2E 1_555 1_555
H2E C2E 1_555 1_555
H3E C4E 1_555 1_555
C5E C4E 1_555 1_555
H8F C11F 1_555 1_555
Cd1_2 N3 1_555 1_555
N1E C1E 1_555 1_555
H1E C1E 1_555 1_555
H4E C5E 1_555 1_555
Cd1C N1E 1_555 1_555
C4 C5 1_555 1_555
C6F C7F 1_555 1_555
C10F C11F 1_555 1_555
C5E N1E 1_555 1_555

#END
