
#######################################################################
#
#                 Cambridge Crystallographic Data Centre
#                                CCDC 
#
#######################################################################
#
# If this CIF has been generated from an entry in the Cambridge 
# Structural Database, then it will include bibliographic, chemical, 
# crystal, experimental, refinement or atomic coordinate data resulting 
# from the CCDC's data processing and validation procedures.
#
#######################################################################

data_LOCCEL
_symmetry_cell_setting           monoclinic
_symmetry_space_group_name_H-M   'C 2/c'
_symmetry_Int_Tables_number      15
_space_group_name_Hall           '-C 2yn'
loop_
_symmetry_equiv_pos_site_id
_symmetry_equiv_pos_as_xyz
1 x,y,z
2 1/2+x,1/2+y,z
3 x,-y,1/2+z
4 1/2+x,1/2-y,1/2+z
5 -x,-y,-z
6 1/2-x,1/2-y,-z
7 -x,y,1/2-z
8 1/2-x,1/2+y,1/2-z
_cell_length_a                   9.8688(8)
_cell_length_b                   22.1573(17)
_cell_length_c                   7.0524(6)
_cell_angle_alpha                90.00
_cell_angle_beta                 129.7900(10)
_cell_angle_gamma                90.00
_cell_volume                     1184.96
loop_
_atom_site_label
_atom_site_type_symbol
_atom_site_fract_x
_atom_site_fract_y
_atom_site_fract_z
Ba1 Ba 0.5000 -0.539050(7) 0.2500
O1 O 0.4669(2) -0.41613(7) 0.0682(3)
O2 O 0.4964(3) -0.09947(8) 0.0883(4)
O3 O 0.2203(2) -0.50478(9) -0.2684(3)
H1 H 0.151(5) -0.5304(16) -0.378(7)
H2 H 0.157(5) -0.4746(18) -0.298(7)
O4 O 0.7689(3) -0.62569(9) 0.5112(4)
H3 H 0.842(6) -0.619(2) 0.490(8)
H4 H 0.820(7) -0.621(2) 0.647(10)
C1 C 0.5000 -0.38905(14) 0.2500
C2 C 0.5000 -0.32083(13) 0.2500
C3 C 0.4622(3) -0.28917(10) 0.0507(4)
H5 H 0.4363 -0.3105 -0.0861
C4 C 0.4624(3) -0.22665(11) 0.0510(5)
H6 H 0.4366 -0.2054 -0.0857
C5 C 0.5000 -0.19459(15) 0.2500
C6 C 0.5000 -0.12646(14) 0.2500
O1D O 0.5331(2) -0.58387(7) -0.0682(3)
O3D O 0.7797(2) -0.49522(9) 0.2684(3)
Ba1B Ba 0.5000 -0.460950(7) -0.2500
O1F O 0.5331(2) -0.41613(7) 0.4318(3)
C3F C 0.5378(3) -0.28917(10) 0.4493(4)
C4F C 0.5376(3) -0.22665(11) 0.4490(5)
O2F O 0.5036(3) -0.09947(8) 0.4117(4)
H1D H 0.849(5) -0.4696(16) 0.378(7)
H2D H 0.843(5) -0.5254(18) 0.298(7)
O1B O 0.4669(2) -0.58387(7) 0.5682(3)
O3B O 0.2203(2) -0.49522(9) 0.2316(3)
O3F O 0.7797(2) -0.50478(9) 0.7684(3)
O4F O 0.2311(3) -0.62569(9) -0.0112(4)
Ba1B_2 Ba 0.5000 -0.460950(7) 0.7500
H5F H 0.5637 -0.3105 0.5861
H6F H 0.5634 -0.2054 0.5857
H1B H 0.151(5) -0.4696(16) 0.122(7)
H2B H 0.157(5) -0.5254(18) 0.202(7)
H1F H 0.849(5) -0.5304(16) 0.878(7)
H2F H 0.843(5) -0.4746(18) 0.798(7)
H3F H 0.158(6) -0.619(2) 0.010(8)
H4F H 0.180(7) -0.621(2) -0.147(10)
loop_
_geom_bond_atom_site_label_1
_geom_bond_atom_site_label_2
_geom_bond_site_symmetry_1
_geom_bond_site_symmetry_2
Ba1 O1 1_555 1_555
O1 C1 1_555 1_555
O2 C6 1_555 1_555
O3 Ba1 1_555 1_555
H1 O3 1_555 1_555
H2 O3 1_555 1_555
O4 Ba1 1_555 1_555
H3 O4 1_555 1_555
H4 O4 1_555 1_555
C1 C2 1_555 1_555
C2 C3 1_555 1_555
C3 H5 1_555 1_555
C4 C3 1_555 1_555
H6 C4 1_555 1_555
C5 C4 1_555 1_555
C6 C5 1_555 1_555
O1D Ba1 1_555 1_555
O3D Ba1 1_555 1_555
Ba1B O1 1_555 1_555
O1F Ba1 1_555 1_555
C3F C2 1_555 1_555
C4F C5 1_555 1_555
O2F C6 1_555 1_555
H1D O3D 1_555 1_555
H2D O3D 1_555 1_555
O1B Ba1 1_555 1_555
O3B Ba1 1_555 1_555
O3F Ba1 1_555 1_555
O4F Ba1 1_555 1_555
Ba1B_2 O1F 1_555 1_555
H5F C3F 1_555 1_555
H6F C4F 1_555 1_555
H1B O3B 1_555 1_555
H2B O3B 1_555 1_555
H1F O3F 1_555 1_555
H2F O3F 1_555 1_555
H3F O4F 1_555 1_555
H4F O4F 1_555 1_555
O3 Ba1B 1_555 1_555
C1 O1F 1_555 1_555
O1D Ba1B 1_555 1_555
O3D Ba1B 1_555 1_555
C3F C4F 1_555 1_555
O1B Ba1B_2 1_555 1_555
O3B Ba1B_2 1_555 1_555
O3F Ba1B_2 1_555 1_555

#END
