
#######################################################################
#
#                 Cambridge Crystallographic Data Centre
#                                CCDC 
#
#######################################################################
#
# If this CIF has been generated from an entry in the Cambridge 
# Structural Database, then it will include bibliographic, chemical, 
# crystal, experimental, refinement or atomic coordinate data resulting 
# from the CCDC's data processing and validation procedures.
#
#######################################################################

data_LOCCOV
_symmetry_cell_setting           monoclinic
_symmetry_space_group_name_H-M   'C 2/c'
_symmetry_Int_Tables_number      15
_space_group_name_Hall           '-C 2yn'
loop_
_symmetry_equiv_pos_site_id
_symmetry_equiv_pos_as_xyz
1 x,y,z
2 1/2+x,1/2+y,z
3 x,-y,1/2+z
4 1/2+x,1/2-y,1/2+z
5 -x,-y,-z
6 1/2-x,1/2-y,-z
7 -x,y,1/2-z
8 1/2-x,1/2+y,1/2-z
_cell_length_a                   19.0338(3)
_cell_length_b                   11.8099(4)
_cell_length_c                   12.1718(4)
_cell_angle_alpha                90
_cell_angle_beta                 96.714(2)
_cell_angle_gamma                90
_cell_volume                     2717.3
loop_
_atom_site_label
_atom_site_type_symbol
_atom_site_fract_x
_atom_site_fract_y
_atom_site_fract_z
Cd1 Cd 0.0000 0.26113(2) 0.2500
N1 N 0.10026(9) 0.25606(14) 0.1496(2)
C1 C 0.16336(13) 0.2224(2) 0.1961(2)
H1 H 0.16797(13) 0.2005(2) 0.2700(2)
C2 C 0.22256(13) 0.2184(2) 0.1404(2)
H2 H 0.26550(13) 0.1940(2) 0.1771(2)
C3 C 0.21848(11) 0.2502(2) 0.0310(2)
C4 C 0.15231(12) 0.2836(2) -0.0174(2)
H3 H 0.14611(12) 0.3050(2) -0.0914(2)
C5 C 0.09552(12) 0.2853(2) 0.0432(2)
H4 H 0.05175(12) 0.3080(2) 0.0082(2)
C6 C 0.02056(13) 0.0029(2) 0.1657(2)
H5 H 0.03515(13) 0.0425(2) 0.1063(2)
C7 C 0.02124(13) -0.1137(2) 0.1622(2)
H6 H 0.03578(13) -0.1512(2) 0.1016(2)
C8 C 0.0000 -0.1746(2) 0.2500
C9 C 0.0000 -0.3007(2) 0.2500
C10 C 0.05143(13) -0.4790(2) 0.2106(2)
H7 H 0.08800(13) -0.5186(2) 0.1836(2)
C11 C 0.05312(13) -0.3620(2) 0.2077(2)
H8 H 0.08948(13) -0.3247(2) 0.1778(2)
N2 N 0.0000 0.0620(2) 0.2500
N3 N 0.0000 0.4618(2) 0.2500
O1 O -0.07013(9) 0.2588(2) 0.08136(15)
H9 H -0.0958(17) 0.3114(23) 0.0667(32)
H10 H -0.0941(17) 0.2037(23) 0.0608(31)
N1F N -0.10026(9) 0.25606(14) 0.3504(2)
O1F O 0.07013(9) 0.2588(2) 0.41864(15)
C3E C 0.28152(11) 0.2498(2) -0.0310(2)
C7F C -0.02124(13) -0.1137(2) 0.3378(2)
C11F C -0.05312(13) -0.3620(2) 0.2923(2)
N3_2 N 0.0000 -0.5382(2) 0.2500
C6F C -0.02056(13) 0.0029(2) 0.3343(2)
C10_2 C 0.05143(13) 0.5210(2) 0.2106(2)
C10F C -0.05143(13) 0.5210(2) 0.2894(2)
Cd1_2 Cd 0.0000 -0.73887(2) 0.2500
C10F_2 C -0.05143(13) -0.4790(2) 0.2894(2)
H8F H -0.08948(13) -0.3247(2) 0.3222(2)
H7_2 H 0.08800(13) 0.4814(2) 0.1836(2)
C11_2 C 0.05312(13) 0.6380(2) 0.2077(2)
H7F H -0.08800(13) 0.4814(2) 0.3164(2)
C11F_2 C -0.05312(13) 0.6380(2) 0.2923(2)
C9_2 C 0.0000 0.6993(2) 0.2500
H8F_2 H -0.08948(13) 0.6753(2) 0.3222(2)
H8_2 H 0.08948(13) 0.6753(2) 0.1778(2)
N1_2 N 0.10026(9) -0.74394(14) 0.1496(2)
N1F_2 N -0.10026(9) -0.74394(14) 0.3504(2)
N2_2 N 0.0000 -0.9380(2) 0.2500
O1_2 O -0.07013(9) -0.7412(2) 0.08136(15)
O1F_2 O 0.07013(9) -0.7412(2) 0.41864(15)
C8_2 C 0.0000 0.8254(2) 0.2500
C1_2 C 0.16336(13) -0.7776(2) 0.1961(2)
C5_2 C 0.09552(12) -0.7147(2) 0.0432(2)
C7_2 C 0.02124(13) 0.8863(2) 0.1622(2)
C7F_2 C -0.02124(13) 0.8863(2) 0.3378(2)
C2E C 0.27744(13) 0.2816(2) -0.1404(2)
C4E C 0.34769(12) 0.2164(2) 0.0174(2)
C6F_2 C -0.02056(13) 1.0029(2) 0.3343(2)
H6F H -0.03578(13) 0.8488(2) 0.3984(2)
C6_2 C 0.02056(13) 1.0029(2) 0.1657(2)
H6_2 H 0.03578(13) 0.8488(2) 0.1016(2)
C1E C 0.33664(13) 0.2776(2) -0.1961(2)
H2E H 0.23450(13) 0.3060(2) -0.1771(2)
H3E H 0.35389(12) 0.1950(2) 0.0914(2)
C5E C 0.40448(12) 0.2147(2) -0.0432(2)
H5F H -0.03515(13) 1.0425(2) 0.3937(2)
N2_3 N 0.0000 1.0620(2) 0.2500
H5_2 H 0.03515(13) 1.0425(2) 0.1063(2)
N1E N 0.39974(9) 0.24394(14) -0.1496(2)
H1E H 0.33203(13) 0.2995(2) -0.2700(2)
H4E H 0.44825(12) 0.1920(2) -0.0082(2)
Cd1_3 Cd 0.0000 1.26113(2) 0.2500
Cd1C Cd 0.5000 0.23887(2) -0.2500
C4_2 C 0.15231(12) -0.7164(2) -0.0174(2)
H4_2 H 0.05175(12) -0.6920(2) 0.0082(2)
H1_2 H 0.16797(13) -0.7995(2) 0.2700(2)
C2_2 C 0.22256(13) -0.7816(2) 0.1404(2)
C3_2 C 0.21848(11) -0.7498(2) 0.0310(2)
H3_2 H 0.14611(12) -0.6950(2) -0.0914(2)
H2_2 H 0.26550(13) -0.8060(2) 0.1771(2)
C3E_2 C 0.28152(11) -0.7502(2) -0.0310(2)
C2E_2 C 0.27744(13) -0.7184(2) -0.1404(2)
C4E_2 C 0.34769(12) -0.7836(2) 0.0174(2)
C1E_2 C 0.33664(13) -0.7224(2) -0.1961(2)
H2E_2 H 0.23450(13) -0.6940(2) -0.1771(2)
H3E_2 H 0.35389(12) -0.8050(2) 0.0914(2)
C5E_2 C 0.40448(12) -0.7853(2) -0.0432(2)
N1E_2 N 0.39974(9) -0.75606(14) -0.1496(2)
H1E_2 H 0.33203(13) -0.7005(2) -0.2700(2)
H4E_2 H 0.44825(12) -0.8080(2) -0.0082(2)
Cd1C_2 Cd 0.5000 -0.76113(2) -0.2500
H9F H 0.0958(17) 0.3114(23) 0.4333(32)
H10F H 0.0941(17) 0.2037(23) 0.4392(31)
H6F_2 H -0.03578(13) -0.1512(2) 0.3984(2)
H5F_2 H -0.03515(13) 0.0425(2) 0.3937(2)
H7F_2 H -0.08800(13) -0.5186(2) 0.3164(2)
H9_2 H -0.0958(17) -0.6886(23) 0.0667(32)
H10_2 H -0.0941(17) -0.7963(23) 0.0608(31)
H9F_2 H 0.0958(17) -0.6886(23) 0.4333(32)
H10F_2 H 0.0941(17) -0.7963(23) 0.4392(31)
N4 N 0.2671(2) 0.4634(3) 0.2340(2)
O2 O 0.2197(2) 0.5161(3) 0.1851(3)
O3 O 0.3224(2) 0.4399(3) 0.1892(3)
O4 O 0.2647(2) 0.4243(4) 0.3286(2)
O8 O -0.13482(14) 0.0635(3) 0.0157(2)
H11 H -0.1672(17) 0.0764(35) -0.0323(25)
H12 H -0.1538(19) 0.0305(31) 0.0628(26)
O9 O -0.1563(2) 0.4356(3) 0.0353(3)
H13 H -0.1826(19) 0.4277(38) -0.0229(22)
H14 H -0.1830(18) 0.4437(37) 0.0803(26)
O5? O 0.2097(10) 0.4864(18) 0.2875(17)
O6? O 0.3159(11) 0.4361(18) 0.2778(19)
O7? O 0.2570(11) 0.5139(19) 0.1413(16)
loop_
_geom_bond_atom_site_label_1
_geom_bond_atom_site_label_2
_geom_bond_site_symmetry_1
_geom_bond_site_symmetry_2
Cd1 N1 1_555 1_555
N1 C1 1_555 1_555
C1 H1 1_555 1_555
C2 C1 1_555 1_555
H2 C2 1_555 1_555
C3 C2 1_555 1_555
C4 C3 1_555 1_555
H3 C4 1_555 1_555
C5 N1 1_555 1_555
H4 C5 1_555 1_555
C6 H5 1_555 1_555
C7 C6 1_555 1_555
H6 C7 1_555 1_555
C8 C7 1_555 1_555
C9 C8 1_555 1_555
C10 H7 1_555 1_555
C11 C9 1_555 1_555
H8 C11 1_555 1_555
N2 Cd1 1_555 1_555
N3 Cd1 1_555 1_555
O1 Cd1 1_555 1_555
H9 O1 1_555 1_555
H10 O1 1_555 1_555
N4 O2 1_555 1_555
O3 N4 1_555 1_555
O4 N4 1_555 1_555
O8 H11 1_555 1_555
H12 O8 1_555 1_555
O9 H13 1_555 1_555
H14 O9 1_555 1_555
N1F Cd1 1_555 1_555
O1F Cd1 1_555 1_555
C3E C3 1_555 1_555
C7F C8 1_555 1_555
C11F C9 1_555 1_555
N3_2 C10 1_555 1_555
C6F N2 1_555 1_555
C10_2 N3 1_555 1_555
C10F N3 1_555 1_555
Cd1_2 N3_2 1_555 1_555
C10F_2 C11F 1_555 1_555
H8F C11F 1_555 1_555
H7_2 C10_2 1_555 1_555
C11_2 C10_2 1_555 1_555
H7F C10F 1_555 1_555
C11F_2 C10F 1_555 1_555
C9_2 C11_2 1_555 1_555
H8F_2 C11F_2 1_555 1_555
H8_2 C11_2 1_555 1_555
N1_2 Cd1_2 1_555 1_555
N1F_2 Cd1_2 1_555 1_555
N2_2 Cd1_2 1_555 1_555
O1_2 Cd1_2 1_555 1_555
O1F_2 Cd1_2 1_555 1_555
C8_2 C9_2 1_555 1_555
C1_2 N1_2 1_555 1_555
C5_2 N1_2 1_555 1_555
C7_2 C8_2 1_555 1_555
C7F_2 C8_2 1_555 1_555
C2E C3E 1_555 1_555
C4E C3E 1_555 1_555
C6F_2 C7F_2 1_555 1_555
H6F C7F_2 1_555 1_555
C6_2 C7_2 1_555 1_555
H6_2 C7_2 1_555 1_555
C1E C2E 1_555 1_555
H2E C2E 1_555 1_555
H3E C4E 1_555 1_555
C5E C4E 1_555 1_555
H5F C6F_2 1_555 1_555
N2_3 C6F_2 1_555 1_555
H5_2 C6_2 1_555 1_555
N1E C1E 1_555 1_555
H1E C1E 1_555 1_555
H4E C5E 1_555 1_555
Cd1_3 N2_3 1_555 1_555
Cd1C N1E 1_555 1_555
C4_2 C5_2 1_555 1_555
H4_2 C5_2 1_555 1_555
H1_2 C1_2 1_555 1_555
C2_2 C1_2 1_555 1_555
C3_2 C4_2 1_555 1_555
H3_2 C4_2 1_555 1_555
H2_2 C2_2 1_555 1_555
C3E_2 C3_2 1_555 1_555
C2E_2 C3E_2 1_555 1_555
C4E_2 C3E_2 1_555 1_555
C1E_2 C2E_2 1_555 1_555
H2E_2 C2E_2 1_555 1_555
H3E_2 C4E_2 1_555 1_555
C5E_2 C4E_2 1_555 1_555
N1E_2 C1E_2 1_555 1_555
H1E_2 C1E_2 1_555 1_555
H4E_2 C5E_2 1_555 1_555
Cd1C_2 N1E_2 1_555 1_555
H9F O1F 1_555 1_555
H10F O1F 1_555 1_555
H6F_2 C7F 1_555 1_555
H5F_2 C6F 1_555 1_555
H7F_2 C10F_2 1_555 1_555
H9_2 O1_2 1_555 1_555
H10_2 O1_2 1_555 1_555
H9F_2 O1F_2 1_555 1_555
H10F_2 O1F_2 1_555 1_555
C4 C5 1_555 1_555
C6 N2 1_555 1_555
C10 C11 1_555 1_555
C7F C6F 1_555 1_555
N3_2 C10F_2 1_555 1_555
C11F_2 C9_2 1_555 1_555
C6_2 N2_3 1_555 1_555
C5E N1E 1_555 1_555
C2_2 C3_2 1_555 1_555
C5E_2 N1E_2 1_555 1_555

#END
