
#######################################################################
#
#                 Cambridge Crystallographic Data Centre
#                                CCDC 
#
#######################################################################
#
# If this CIF has been generated from an entry in the Cambridge 
# Structural Database, then it will include bibliographic, chemical, 
# crystal, experimental, refinement or atomic coordinate data resulting 
# from the CCDC's data processing and validation procedures.
#
#######################################################################

data_LOCCOV03
_symmetry_cell_setting           monoclinic
_symmetry_space_group_name_H-M   'C 2/c'
_symmetry_Int_Tables_number      15
_space_group_name_Hall           '-C 2yn'
loop_
_symmetry_equiv_pos_site_id
_symmetry_equiv_pos_as_xyz
1 x,y,z
2 -x,y,1/2-z
3 1/2+x,1/2+y,z
4 1/2-x,1/2+y,1/2-z
5 -x,-y,-z
6 x,-y,1/2+z
7 1/2-x,1/2-y,-z
8 1/2+x,1/2-y,1/2+z
_cell_length_a                   18.8822(11)
_cell_length_b                   11.7880(7)
_cell_length_c                   12.1449(7)
_cell_angle_alpha                90
_cell_angle_beta                 97.489(2)
_cell_angle_gamma                90
_cell_volume                     2680.19
loop_
_atom_site_label
_atom_site_type_symbol
_atom_site_fract_x
_atom_site_fract_y
_atom_site_fract_z
Cd1 Cd 0.5000 0.258666(11) 0.2500
N1 N 0.60007(7) 0.25267(10) 0.14976(12)
C1 C 0.59494(9) 0.28711(15) 0.04428(14)
H1 H 0.5509 0.3129 0.0103
C2 C 0.65170(9) 0.28647(15) -0.01700(14)
H2 H 0.6452 0.3109 -0.0904
C3 C 0.66405(9) 0.21501(15) 0.19611(15)
H3 H 0.6688 0.1898 0.2693
C4 C 0.72339(9) 0.21181(15) 0.14022(15)
H4 H 0.7666 0.1844 0.1759
C5 C 0.71865(8) 0.24930(11) 0.03115(14)
N2 N 0.5000 0.45885(15) 0.2500
C6 C 0.55248(9) 0.51825(13) 0.21192(14)
H5 H 0.5897 0.4786 0.1864
C7 C 0.55392(8) 0.63572(13) 0.20875(13)
H6 H 0.5905 0.6733 0.1794
C8 C 0.5000 0.69685(17) 0.2500
C9 C 0.5000 0.82306(17) 0.2500
C10 C 0.47925(8) 0.88383(13) 0.33871(13)
H7 H 0.4650 0.8461 0.3994
C11 C 0.48015(9) 1.00108(13) 0.33544(13)
H8 H 0.4664 1.0410 0.3952
N3 N 0.5000 1.05993(14) 0.2500
O3 O 0.57096(7) 0.25969(11) 0.41961(11)
H9 H 0.5959(11) 0.3107(19) 0.4313(18)
H10 H 0.5943(12) 0.200(2) 0.4403(19)
Cd1_2 Cd 0.5000 1.258666(11) 0.2500
Cd1F Cd 1.0000 0.241334(11) -0.2500
N1F N 0.89993(7) 0.24733(10) -0.14976(12)
N1A N 0.39993(7) 0.25267(10) 0.35024(12)
C1F C 0.90506(9) 0.21289(15) -0.04428(14)
H1F H 0.9491 0.1871 -0.0103
C2F C 0.84830(9) 0.21353(15) 0.01700(14)
H2F H 0.8548 0.1891 0.0904
C3F C 0.83595(9) 0.28499(15) -0.19611(15)
H3F H 0.8312 0.3102 -0.2693
C4F C 0.77661(9) 0.28819(15) -0.14022(15)
H4F H 0.7334 0.3156 -0.1759
C5F C 0.78135(8) 0.25070(11) -0.03115(14)
C6A C 0.44752(9) 0.51825(13) 0.28808(14)
H5A H 0.4103 0.4786 0.3136
C7A C 0.44608(8) 0.63572(13) 0.29125(13)
H6A H 0.4095 0.6733 0.3206
C10A C 0.52075(8) 0.88383(13) 0.16129(13)
H7A H 0.5350 0.8461 0.1006
C11A C 0.51985(9) 1.00108(13) 0.16456(13)
H8A H 0.5336 1.0410 0.1048
N3_2 N 0.5000 0.05993(14) 0.2500
O3A O 0.42904(7) 0.25969(11) 0.08039(11)
H9A H 0.4041(11) 0.3107(19) 0.0687(18)
H10A H 0.4057(12) 0.200(2) 0.0597(19)
O1 O 0.86666(8) 0.56354(14) 0.01233(14)
H11 H 0.8503(15) 0.526(2) 0.056(2)
H12 H 0.8357(14) 0.572(2) -0.038(2)
O2 O 0.65703(10) 0.43977(15) 0.45593(17)
H13 H 0.6804(14) 0.447(2) 0.515(2)
H14 H 0.6838(16) 0.437(3) 0.416(3)
N4 N 0.76967(8) 0.45691(14) 0.22712(13)
O4 O 0.72020(8) 0.51456(13) 0.17861(12)
O5 O 0.76522(9) 0.41915(16) 0.32293(12)
O6 O 0.82354(7) 0.43414(13) 0.18263(12)
loop_
_geom_bond_atom_site_label_1
_geom_bond_atom_site_label_2
_geom_bond_site_symmetry_1
_geom_bond_site_symmetry_2
Cd1 N1 1_555 1_555
N1 C1 1_555 1_555
C1 H1 1_555 1_555
C2 C1 1_555 1_555
H2 C2 1_555 1_555
C3 N1 1_555 1_555
H3 C3 1_555 1_555
C4 C3 1_555 1_555
H4 C4 1_555 1_555
C5 C2 1_555 1_555
N2 Cd1 1_555 1_555
C6 N2 1_555 1_555
H5 C6 1_555 1_555
C7 C6 1_555 1_555
H6 C7 1_555 1_555
C8 C7 1_555 1_555
C9 C8 1_555 1_555
C10 C9 1_555 1_555
H7 C10 1_555 1_555
C11 C10 1_555 1_555
H8 C11 1_555 1_555
N3 C11 1_555 1_555
O1 H11 1_555 1_555
O2 H13 1_555 1_555
O3 Cd1 1_555 1_555
N4 O4 1_555 1_555
O5 N4 1_555 1_555
O6 N4 1_555 1_555
H9 O3 1_555 1_555
H10 O3 1_555 1_555
H12 O1 1_555 1_555
H14 O2 1_555 1_555
Cd1_2 N3 1_555 1_555
Cd1F N1F 1_555 1_555
N1F C1F 1_555 1_555
N1A Cd1 1_555 1_555
C1F H1F 1_555 1_555
C2F C1F 1_555 1_555
H2F C2F 1_555 1_555
C3F N1F 1_555 1_555
H3F C3F 1_555 1_555
C4F C3F 1_555 1_555
H4F C4F 1_555 1_555
C5F C5 1_555 1_555
C6A N2 1_555 1_555
H5A C6A 1_555 1_555
C7A C8 1_555 1_555
H6A C7A 1_555 1_555
C10A C9 1_555 1_555
H7A C10A 1_555 1_555
C11A N3 1_555 1_555
H8A C11A 1_555 1_555
N3_2 Cd1 1_555 1_555
O3A Cd1 1_555 1_555
H9A O3A 1_555 1_555
H10A O3A 1_555 1_555
C4 C5 1_555 1_555
C2F C5F 1_555 1_555
C4F C5F 1_555 1_555
C6A C7A 1_555 1_555
C10A C11A 1_555 1_555

#END
