
#######################################################################
#
#                 Cambridge Crystallographic Data Centre
#                                CCDC 
#
#######################################################################
#
# If this CIF has been generated from an entry in the Cambridge 
# Structural Database, then it will include bibliographic, chemical, 
# crystal, experimental, refinement or atomic coordinate data resulting 
# from the CCDC's data processing and validation procedures.
#
#######################################################################

data_LOCFUF
_symmetry_cell_setting           monoclinic
_symmetry_space_group_name_H-M   'C 2/c'
_symmetry_Int_Tables_number      15
_space_group_name_Hall           '-C 2yn'
loop_
_symmetry_equiv_pos_site_id
_symmetry_equiv_pos_as_xyz
1 x,y,z
2 1/2+x,1/2+y,z
3 -x,y,1/2-z
4 1/2-x,1/2+y,1/2-z
5 -x,-y,-z
6 1/2-x,1/2-y,-z
7 x,-y,1/2+z
8 1/2+x,1/2-y,1/2+z
_cell_length_a                   15.158(2)
_cell_length_b                   14.8108(15)
_cell_length_c                   7.4512(11)
_cell_angle_alpha                90
_cell_angle_beta                 111.892(11)
_cell_angle_gamma                90
_cell_volume                     1552.18
loop_
_atom_site_label
_atom_site_type_symbol
_atom_site_fract_x
_atom_site_fract_y
_atom_site_fract_z
Cu1 Cu 0.25000 0.25000 0.00000
Ni1 Ni 0.50000 0.48517(2) 0.25000
O1 O 0.19674(10) 0.29463(10) 0.2554(2)
N1 N 0.33744(11) 0.15805(11) 0.1921(2)
N2 N 0.35317(11) 0.34047(11) 0.0831(2)
N3 N 0.34939(15) 0.62688(13) 0.0778(3)
C1 C 0.32545(14) 0.06920(13) 0.1632(3)
C2 C 0.38581(14) 0.00581(13) 0.2811(3)
C3 C 0.46528(13) 0.03304(13) 0.4376(3)
C4 C 0.47620(14) 0.12552(13) 0.4718(3)
C5 C 0.41181(14) 0.18454(13) 0.3492(3)
C6 C 0.40931(14) 0.39594(13) 0.1439(3)
C7 C 0.40768(15) 0.57362(14) 0.1433(3)
H1 H 0.2405(17) 0.3173(17) 0.353(3)
H2 H 0.178(2) 0.2458(14) 0.287(4)
H3 H 0.27240 0.04870 0.05550
H4 H 0.37310 -0.05670 0.25530
H5 H 0.52810 0.14780 0.57980
H6 H 0.42020 0.24730 0.37670
Cu1A Cu 0.75000 -0.25000 1.00000
Ni1G Ni 0.00000 0.01483(2) -0.25000
O1E O 0.30326(10) 0.20537(10) -0.2554(2)
N1D N 0.66256(11) -0.15805(11) 0.8079(2)
N1E N 0.16256(11) 0.34195(11) -0.1921(2)
N2E N 0.14683(11) 0.15953(11) -0.0831(2)
N3B N 0.65061(15) 0.62688(13) 0.4222(3)
C1D C 0.67455(14) -0.06920(13) 0.8368(3)
C2D C 0.61419(14) -0.00581(13) 0.7189(3)
C3D C 0.53472(13) -0.03304(13) 0.5624(3)
C4D C 0.52380(14) -0.12552(13) 0.5282(3)
C5D C 0.58819(14) -0.18454(13) 0.6508(3)
C6E C 0.09069(14) 0.10406(13) -0.1439(3)
C6B C 0.59069(14) 0.39594(13) 0.3561(3)
C7B C 0.59232(15) 0.57362(14) 0.3567(3)
H1E H 0.2595(17) 0.1827(17) -0.353(3)
H2E H 0.322(2) 0.2542(14) -0.287(4)
H3D H 0.72760 -0.04870 0.94450
H4D H 0.62690 0.05670 0.74470
H5D H 0.47190 -0.14780 0.42020
H6D H 0.57980 -0.24730 0.62330
loop_
_geom_bond_atom_site_label_1
_geom_bond_atom_site_label_2
_geom_bond_site_symmetry_1
_geom_bond_site_symmetry_2
Cu1 O1 1_555 1_555
Ni1 C6 1_555 1_555
O1 H1 1_555 1_555
N1 Cu1 1_555 1_555
N2 Cu1 1_555 1_555
N3 C7 1_555 1_555
C1 N1 1_555 1_555
C2 C1 1_555 1_555
C3 C2 1_555 1_555
C4 C3 1_555 1_555
C5 N1 1_555 1_555
C6 N2 1_555 1_555
C7 Ni1 1_555 1_555
H2 O1 1_555 1_555
H3 C1 1_555 1_555
H4 C2 1_555 1_555
H5 C4 1_555 1_555
H6 C5 1_555 1_555
Cu1A N1D 1_555 1_555
Ni1G C6E 1_555 1_555
O1E Cu1 1_555 1_555
N1D C1D 1_555 1_555
N1E Cu1 1_555 1_555
N2E Cu1 1_555 1_555
N3B C7B 1_555 1_555
C1D C2D 1_555 1_555
C2D C3D 1_555 1_555
C3D C3 1_555 1_555
C4D C3D 1_555 1_555
C5D N1D 1_555 1_555
C6E N2E 1_555 1_555
C6B Ni1 1_555 1_555
C7B Ni1 1_555 1_555
H1E O1E 1_555 1_555
H2E O1E 1_555 1_555
H3D C1D 1_555 1_555
H4D C2D 1_555 1_555
H5D C4D 1_555 1_555
H6D C5D 1_555 1_555
C4 C5 1_555 1_555
C4D C5D 1_555 1_555

#END
