
#######################################################################
#
#                 Cambridge Crystallographic Data Centre
#                                CCDC 
#
#######################################################################
#
# If this CIF has been generated from an entry in the Cambridge 
# Structural Database, then it will include bibliographic, chemical, 
# crystal, experimental, refinement or atomic coordinate data resulting 
# from the CCDC's data processing and validation procedures.
#
#######################################################################

data_LOCMIA
_symmetry_cell_setting           orthorhombic
_symmetry_space_group_name_H-M   'P b c a'
_symmetry_Int_Tables_number      61
_space_group_name_Hall           '-P 2ac 2ab'
loop_
_symmetry_equiv_pos_site_id
_symmetry_equiv_pos_as_xyz
1 x,y,z
2 1/2-x,-y,1/2+z
3 -x,1/2+y,1/2-z
4 1/2+x,1/2-y,-z
5 -x,-y,-z
6 1/2+x,y,1/2-z
7 x,1/2-y,1/2+z
8 1/2-x,1/2+y,z
_cell_length_a                   14.568(5)
_cell_length_b                   6.592(2)
_cell_length_c                   16.453(5)
_cell_angle_alpha                90
_cell_angle_beta                 90
_cell_angle_gamma                90
_cell_volume                     1580.02
loop_
_atom_site_label
_atom_site_type_symbol
_atom_site_fract_x
_atom_site_fract_y
_atom_site_fract_z
Zn1 Zn 0.72151(2) 0.22224(6) 0.29095(2)
C1 C 0.47222(19) 0.1822(4) 0.39700(17)
C2 C 0.4115(2) 0.2083(4) 0.46716(18)
C3 C 0.4477(3) 0.2682(4) 0.54209(18)
C4 C 0.3895(2) 0.2849(4) 0.60797(19)
C5 C 0.2644(2) 0.1917(5) 0.5311(2)
C6 C 0.3177(2) 0.1709(5) 0.46290(19)
D1 D 0.416(3) 0.318(5) 0.661(2)
D2 D 0.198(2) 0.171(5) 0.5255(18)
D3 D 0.810(3) 0.000(7) 0.211(2)
H1 H 0.512(3) 0.292(4) 0.548(2)
H2 H 0.291(3) 0.155(6) 0.412(3)
N1 N 0.44635(16) 0.1048(4) 0.32547(14)
N2 N 0.52199(16) 0.1023(4) 0.27992(15)
N3 N 0.58987(16) 0.1755(4) 0.32463(15)
N4 N 0.56072(19) 0.2274(4) 0.39864(16)
N5 N 0.2993(2) 0.2478(4) 0.60389(17)
O1 O 0.77125(14) -0.0157(3) 0.23831(14)
Zn1C Zn 0.22151(2) 0.27776(6) 0.70905(2)
Zn1G Zn 0.77849(2) -0.27776(6) 0.29095(2)
D3G D 0.690(3) 0.500(7) 0.211(2)
N5C N 0.7993(2) 0.2522(4) 0.39611(17)
O1G O 0.72875(14) 0.4843(3) 0.23831(14)
loop_
_geom_bond_atom_site_label_1
_geom_bond_atom_site_label_2
_geom_bond_site_symmetry_1
_geom_bond_site_symmetry_2
Zn1 N3 1_555 1_555
C1 C2 1_555 1_555
C2 C3 1_555 1_555
C3 C4 1_555 1_555
C4 D1 1_555 1_555
C5 C6 1_555 1_555
C6 C2 1_555 1_555
D2 C5 1_555 1_555
D3 O1 1_555 1_555
H1 C3 1_555 1_555
H2 C6 1_555 1_555
N1 C1 1_555 1_555
N2 N1 1_555 1_555
N3 N2 1_555 1_555
N4 C1 1_555 1_555
N5 C4 1_555 1_555
O1 Zn1 1_555 1_555
Zn1C N5 1_555 1_555
Zn1G O1 1_555 1_555
D3G O1G 1_555 1_555
N5C Zn1 1_555 1_555
O1G Zn1 1_555 1_555
C5 N5 1_555 1_555
N3 N4 1_555 1_555

#END
