
#######################################################################
#
#                 Cambridge Crystallographic Data Centre
#                                CCDC 
#
#######################################################################
#
# If this CIF has been generated from an entry in the Cambridge 
# Structural Database, then it will include bibliographic, chemical, 
# crystal, experimental, refinement or atomic coordinate data resulting 
# from the CCDC's data processing and validation procedures.
#
#######################################################################

data_LOCTEE
_symmetry_cell_setting           monoclinic
_symmetry_space_group_name_H-M   'P 21/n'
_symmetry_Int_Tables_number      14
_space_group_name_Hall           '-P 2yn'
loop_
_symmetry_equiv_pos_site_id
_symmetry_equiv_pos_as_xyz
1 x,y,z
2 1/2-x,1/2+y,1/2-z
3 -x,-y,-z
4 1/2+x,1/2-y,1/2+z
_cell_length_a                   22.3152(3)
_cell_length_b                   11.64703(16)
_cell_length_c                   25.6567(4)
_cell_angle_alpha                90
_cell_angle_beta                 103.2066(14)
_cell_angle_gamma                90
_cell_volume                     6491.97
loop_
_atom_site_label
_atom_site_type_symbol
_atom_site_fract_x
_atom_site_fract_y
_atom_site_fract_z
C1 C 0.5872(9) 0.1689(16) 0.0055(7)
H1 H 0.5682 0.1523 -0.0317
H2 H 0.6302 0.1467 0.0120
C2 C 0.5828(9) 0.2968(19) 0.0156(8)
C3 C 0.6085(9) 0.3762(16) -0.0150(7)
H3 H 0.6288 0.3502 -0.0406
C4 C 0.6035(9) 0.488(2) -0.0070(7)
H4 H 0.6176 0.5405 -0.0287
C5 C 0.5773(9) 0.5251(16) 0.0333(7)
H5 H 0.5744 0.6032 0.0398
C6 C 0.5548(8) 0.4445(14) 0.0647(7)
C7 C 0.5284(8) 0.4820(15) 0.1084(6)
H6 H 0.5288 0.5596 0.1171
C8 C 0.4653(10) 0.5713(15) 0.1774(8)
H7 H 0.5012 0.6078 0.1987
H8 H 0.4313 0.5813 0.1942
H9 H 0.4553 0.6051 0.1424
C9 C 0.4562(8) 0.3657(15) 0.2054(7)
C10 C 0.4334(8) 0.3990(15) 0.2487(7)
H10 H 0.4285 0.4760 0.2564
C11 C 0.4183(9) 0.3130(15) 0.2796(8)
C12 C 0.4480(9) 0.1796(15) 0.2256(8)
C13 C 0.4554(12) 0.0557(15) 0.2124(8)
H11 H 0.4233 0.0342 0.1822
H12 H 0.4529 0.0090 0.2427
H13 H 0.4947 0.0447 0.2039
C14 C 0.3772(13) 0.452(3) 0.3375(12)
H14 H 0.341(6) 0.447(3) 0.355(3)
H15 H 0.365(2) 0.500(8) 0.304(5)
H16 H 0.413(6) 0.490(7) 0.363(4)
C15 C 0.3750(10) 0.2629(18) 0.3998(8)
H17 H 0.3568 0.3328 0.4044
C16 C 0.3779(9) 0.1705(14) 0.4409(8)
C17 C 0.3496(9) 0.1841(17) 0.4840(8)
H18 H 0.3310 0.2536 0.4886
C18 C 0.3492(8) 0.0974(18) 0.5191(8)
H19 H 0.3330 0.1075 0.5491
C19 C 0.3740(8) -0.0079(15) 0.5085(7)
H20 H 0.3693 -0.0726 0.5284
C20 C 0.4066(9) -0.0151(14) 0.4668(7)
C21 C 0.4356(9) -0.1221(14) 0.4584(7)
H21 H 0.4301 -0.1879 0.4773
C22 C 0.4923(10) -0.3253(13) 0.4437(7)
H22 H 0.5208 -0.3273 0.4780
H23 H 0.4999 -0.3894 0.4226
H24 H 0.4510 -0.3296 0.4487
C23 C 0.5342(8) -0.2116(13) 0.3778(7)
C24 C 0.5534(8) -0.3103(12) 0.3545(6)
H25 H 0.5423 -0.3836 0.3631
C25 C 0.5900(7) -0.2928(12) 0.3177(6)
C26 C 0.5834(9) -0.0987(14) 0.3304(8)
C27 C 0.6036(11) 0.0187(15) 0.3183(11)
H26 H 0.5840 0.0750 0.3362
H27 H 0.5924 0.0318 0.2804
H28 H 0.6475 0.0249 0.3307
C28 C 0.6036(8) -0.4989(12) 0.3053(7)
H29 H 0.5667 -0.5311 0.2835
H30 H 0.6016 -0.5021 0.3423
H31 H 0.6386 -0.5419 0.3004
C29 C 0.6533(7) -0.4290(13) 0.2216(6)
H32 H 0.6447 -0.5057 0.2269
C30 C 0.6835(6) -0.3982(13) 0.1788(6)
C31 C 0.6978(8) -0.4826(12) 0.1451(7)
H33 H 0.6892 -0.5594 0.1501
C32 C 0.7251(9) -0.4504(16) 0.1040(8)
H34 H 0.7335 -0.5050 0.0802
C33 C 0.7396(7) -0.3370(14) 0.0986(6)
H35 H 0.7595 -0.3148 0.0721
C34 C 0.7243(7) -0.2556(15) 0.1332(7)
C35 C 0.7383(9) -0.1315(15) 0.1273(7)
H36 H 0.7807 -0.1238 0.1246
H37 H 0.7122 -0.1025 0.0944
N1 N 0.5592(7) 0.3298(11) 0.0548(5)
N2 N 0.5045(6) 0.4099(11) 0.1353(5)
N3 N 0.4773(7) 0.4491(11) 0.1729(5)
N4 N 0.4640(8) 0.2566(11) 0.1931(6)
N5 N 0.4247(8) 0.2010(13) 0.2676(6)
N6 N 0.3950(9) 0.3347(14) 0.3239(7)
N7 N 0.3965(7) 0.2477(13) 0.3600(6)
N8 N 0.4048(7) 0.0716(11) 0.4321(6)
N9 N 0.4698(7) -0.1237(11) 0.4236(5)
N10 N 0.5001(7) -0.2195(12) 0.4166(6)
N11 N 0.5490(7) -0.1089(11) 0.3656(6)
N12 N 0.6054(6) -0.1820(11) 0.3040(6)
N13 N 0.6095(6) -0.3817(10) 0.2902(5)
N14 N 0.6386(6) -0.3524(10) 0.2516(5)
N15 N 0.6969(6) -0.2875(10) 0.1731(5)
O1 O 0.5585(7) 0.1057(11) 0.0383(6)
H38 H 0.5521 0.0277 0.0315
O2 O 0.7292(6) -0.0664(10) 0.1696(5)
H39 H 0.7406 0.0106 0.1716
O3 O 0.3320(13) 0.015(3) 0.3200(10)
O4 O 0.5269(7) 0.1966(11) 0.4210(6)
O5 O 0.5440(8) 0.2743(12) 0.3434(5)
O6 O 0.5376(9) 0.3914(13) 0.4130(7)
O7 O 0.6218(7) 0.2760(16) 0.4212(8)
O8 O 0.6259(10) 0.2832(19) 0.1818(8)
O9 O 0.6419(13) 0.103(3) 0.2122(11)
O10 O 0.6529(11) 0.241(2) 0.2744(9)
O11 O 0.7161(9) 0.196(3) 0.2218(13)
O12 O 0.4320(7) 0.2325(19) 0.0396(8)
O13 O 0.3219(9) 0.242(3) 0.0212(10)
O14 O 0.3838(13) 0.113(4) 0.0840(11)
O15 O 0.3735(12) 0.096(2) -0.0121(12)
O16 O 0.9474(11) 0.255(2) 0.3882(10)
O17 O 1.0002(11) 0.4342(18) 0.3883(8)
O18 O 0.9222(13) 0.357(2) 0.3141(11)
O19 O 0.909(2) 0.416(4) 0.3927(18)
Cl1 Cl 0.5577(2) 0.2874(3) 0.39929(16)
Cl2 Cl 0.6552(2) 0.2146(3) 0.22021(19)
Cl3 Cl 0.3785(3) 0.1664(4) 0.0338(2)
Cl4 Cl 0.9543(3) 0.3552(4) 0.3662(2)
Pb1 Pb 0.52252(3) 0.19431(5) 0.11605(2)
Pb2 Pb 0.44995(4) 0.05391(5) 0.35356(3)
Pb3 Pb 0.81899(3) 0.34596(5) 0.25607(3)
N12A N 0.8946(6) 0.3180(11) 0.1960(6)
N14A N 0.8614(6) 0.1476(10) 0.2484(5)
N15A N 0.8031(6) 0.2125(10) 0.3269(5)
O2A O 0.7708(6) 0.4336(10) 0.3304(5)
Pb3A Pb 0.68101(3) -0.15404(5) 0.24393(3)
C36 C 0.7118(14) 0.456(2) 0.4992(12)
H40 H 0.7417 0.5081 0.5196
H41 H 0.6955 0.4882 0.4643
H42 H 0.7309 0.3839 0.4957
N16 N 0.6613(12) 0.4396(19) 0.5269(10)
O20 O 0.6597(14) 0.355(3) 0.5500(14)
O21 O 0.6225(10) 0.5132(19) 0.5218(10)
O22 O 0.6973(11) 0.627(3) 0.4012(12)
O23 O 0.7319(9) 0.782(2) 0.3660(14)
O24 O 0.8012(10) 0.6332(17) 0.3991(7)
O25 O 0.7699(12) 0.741(4) 0.4554(17)
Cl5 Cl 0.7484(2) 0.6972(4) 0.4038(2)
O26 O 0.4212(9) -0.1641(15) 0.2899(7)
O27 O 0.3152(13) -0.182(2) 0.2625(11)
O28 O 0.3656(10) -0.270(2) 0.3389(8)
O29 O 0.378(2) -0.334(2) 0.2506(19)
Cl6 Cl 0.3721(5) -0.2270(14) 0.2905(4)
loop_
_geom_bond_atom_site_label_1
_geom_bond_atom_site_label_2
_geom_bond_site_symmetry_1
_geom_bond_site_symmetry_2
C1 H1 1_555 1_555
H2 C1 1_555 1_555
C2 C1 1_555 1_555
C3 C2 1_555 1_555
H3 C3 1_555 1_555
C4 C3 1_555 1_555
H4 C4 1_555 1_555
C5 C4 1_555 1_555
H5 C5 1_555 1_555
C6 C5 1_555 1_555
C7 C6 1_555 1_555
H6 C7 1_555 1_555
C8 H7 1_555 1_555
H8 C8 1_555 1_555
H9 C8 1_555 1_555
C9 C10 1_555 1_555
C10 H10 1_555 1_555
C11 C10 1_555 1_555
C12 C13 1_555 1_555
C13 H11 1_555 1_555
H12 C13 1_555 1_555
H13 C13 1_555 1_555
C14 H14 1_555 1_555
H15 C14 1_555 1_555
H16 C14 1_555 1_555
C15 H17 1_555 1_555
C16 C15 1_555 1_555
C17 C16 1_555 1_555
H18 C17 1_555 1_555
C18 C17 1_555 1_555
H19 C18 1_555 1_555
C19 C18 1_555 1_555
H20 C19 1_555 1_555
C20 C19 1_555 1_555
C21 C20 1_555 1_555
H21 C21 1_555 1_555
C22 H22 1_555 1_555
H23 C22 1_555 1_555
H24 C22 1_555 1_555
C23 C24 1_555 1_555
C24 H25 1_555 1_555
C25 C24 1_555 1_555
C26 C27 1_555 1_555
C27 H26 1_555 1_555
H27 C27 1_555 1_555
H28 C27 1_555 1_555
C28 H29 1_555 1_555
H30 C28 1_555 1_555
H31 C28 1_555 1_555
C29 H32 1_555 1_555
C30 C29 1_555 1_555
C31 C30 1_555 1_555
H33 C31 1_555 1_555
C32 C31 1_555 1_555
H34 C32 1_555 1_555
C33 C32 1_555 1_555
H35 C33 1_555 1_555
C34 C33 1_555 1_555
C35 C34 1_555 1_555
H36 C35 1_555 1_555
H37 C35 1_555 1_555
N1 C2 1_555 1_555
N2 C7 1_555 1_555
N3 C8 1_555 1_555
N4 C9 1_555 1_555
N5 C11 1_555 1_555
N6 C11 1_555 1_555
N7 C15 1_555 1_555
N8 C16 1_555 1_555
N9 C21 1_555 1_555
N10 C22 1_555 1_555
N11 C23 1_555 1_555
N12 C25 1_555 1_555
N13 C25 1_555 1_555
N14 C29 1_555 1_555
N15 C30 1_555 1_555
O1 C1 1_555 1_555
H38 O1 1_555 1_555
O2 C35 1_555 1_555
H39 O2 1_555 1_555
O3 Pb2 1_555 1_555
O4 Cl1 1_555 1_555
O5 Cl1 1_555 1_555
O6 Cl1 1_555 1_555
O7 Cl1 1_555 1_555
O8 Cl2 1_555 1_555
O9 Cl2 1_555 1_555
O10 Cl2 1_555 1_555
O11 Cl2 1_555 1_555
O12 Cl3 1_555 1_555
O13 Cl3 1_555 1_555
O14 Cl3 1_555 1_555
O15 Cl3 1_555 1_555
O16 Cl4 1_555 1_555
O17 Cl4 1_555 1_555
O18 Cl4 1_555 1_555
O19 Cl4 1_555 1_555
Pb1 N1 1_555 1_555
Pb2 N5 1_555 1_555
Pb3 O11 1_555 1_555
C36 H40 1_555 1_555
H41 C36 1_555 1_555
H42 C36 1_555 1_555
N16 C36 1_555 1_555
O20 N16 1_555 1_555
O21 N16 1_555 1_555
O22 Cl5 1_555 1_555
O23 Cl5 1_555 1_555
O24 Cl5 1_555 1_555
O25 Cl5 1_555 1_555
O26 Cl6 1_555 1_555
O27 Cl6 1_555 1_555
O28 Cl6 1_555 1_555
O29 Cl6 1_555 1_555
N12A Pb3 1_555 1_555
N14A Pb3 1_555 1_555
N15A Pb3 1_555 1_555
O2A Pb3 1_555 1_555
Pb3A N12 1_555 1_555
C6 N1 1_555 1_555
C9 N3 1_555 1_555
C12 N4 1_555 1_555
C12 N5 1_555 1_555
C14 N6 1_555 1_555
C20 N8 1_555 1_555
C23 N10 1_555 1_555
C26 N11 1_555 1_555
C26 N12 1_555 1_555
C28 N13 1_555 1_555
C34 N15 1_555 1_555
N2 N3 1_555 1_555
N2 Pb1 1_555 1_555
N4 Pb1 1_555 1_555
N6 N7 1_555 1_555
N7 Pb2 1_555 1_555
N8 Pb2 1_555 1_555
N9 N10 1_555 1_555
N9 Pb2 1_555 1_555
N11 Pb2 1_555 1_555
N13 N14 1_555 1_555
N14 Pb3A 1_555 1_555
N15 Pb3A 1_555 1_555
O1 Pb1 1_555 1_555
O2 Pb3A 1_555 1_555
O4 Pb2 1_555 1_555
O8 Pb1 1_555 1_555
O12 Pb1 1_555 1_555
O18 Pb3 1_555 1_555

#END
