
#######################################################################
#
#                 Cambridge Crystallographic Data Centre
#                                CCDC 
#
#######################################################################
#
# If this CIF has been generated from an entry in the Cambridge 
# Structural Database, then it will include bibliographic, chemical, 
# crystal, experimental, refinement or atomic coordinate data resulting 
# from the CCDC's data processing and validation procedures.
#
#######################################################################

data_LOCXIK
_symmetry_cell_setting           triclinic
_symmetry_space_group_name_H-M   'P -1'
_symmetry_Int_Tables_number      2
_space_group_name_Hall           '-P 1'
loop_
_symmetry_equiv_pos_site_id
_symmetry_equiv_pos_as_xyz
1 x,y,z
2 -x,-y,-z
_cell_length_a                   10.725(2)
_cell_length_b                   10.814(2)
_cell_length_c                   9.517(2)
_cell_angle_alpha                104.21(2)
_cell_angle_beta                 94.60(1)
_cell_angle_gamma                106.62(1)
_cell_volume                     1011.78
loop_
_atom_site_label
_atom_site_type_symbol
_atom_site_fract_x
_atom_site_fract_y
_atom_site_fract_z
Cd1 Cd -0.03831(3) 0.18896(3) 0.55621(4)
O1 O 0.0933(4) 0.0380(4) 0.6135(4)
O2 O 0.1453(4) 0.2142(4) 0.7927(4)
O3 O 0.2004(6) 0.0435(5) 0.8149(6)
O4 O -0.2325(4) 0.2106(4) 0.4441(4)
O5 O -0.2950(5) 0.3645(6) 0.3878(7)
O6 O -0.1059(5) 0.3535(5) 0.3591(7)
O7 O -0.0077(3) 0.4011(3) 0.7067(4)
N1 N 0.1492(4) 0.0991(4) 0.7435(4)
N2 N -0.2124(4) 0.3111(5) 0.3934(5)
N3 N -0.1849(4) 0.0972(4) 0.6945(5)
N4 N 0.1260(4) 0.2470(4) 0.4291(4)
N5 N 0.7640(4) 0.4159(4) -0.1818(5)
C1 C -0.1635(6) 0.1385(6) 0.8404(6)
C2 C -0.2616(7) 0.1012(6) 0.9224(6)
C3 C -0.3874(6) 0.0205(5) 0.8541(7)
C4 C -0.4084(6) -0.0238(5) 0.7019(7)
C5 C -0.3058(6) 0.0152(5) 0.6285(6)
C6 C -0.5016(6) -0.0190(6) 0.9302(7)
C7 C 0.1040(5) 0.2173(5) 0.2815(6)
C8 C 0.2038(5) 0.2483(5) 0.2002(5)
C9 C 0.3339(4) 0.3136(4) 0.2717(5)
C10 C 0.3543(5) 0.3402(5) 0.4243(5)
C11 C 0.2514(5) 0.3071(5) 0.4968(5)
C12 C 0.4454(5) 0.3511(5) 0.1955(5)
C13 C 0.4416(5) 0.3203(5) 0.0510(5)
C14 C 0.5533(5) 0.3562(5) -0.0243(5)
C15 C 0.5371(5) 0.3107(5) -0.1768(5)
C16 C 0.6420(5) 0.3413(5) -0.2493(5)
C17 C 0.7806(5) 0.4620(5) -0.0350(6)
C18 C 0.6818(5) 0.4352(5) 0.0458(5)
H1 H -0.0781 0.1953 0.8893
H2 H -0.2418 0.1321 1.0272
H3 H -0.0008 0.4618 0.6468
H4 H -0.4917 -0.0806 0.6509
H5 H -0.3226 -0.0169 0.5237
H6 H -0.5849 -0.0769 0.8726
H7 H 0.0176 0.1750 0.2328
H8 H 0.1841 0.2250 0.0980
H9 H -0.0791 0.4004 0.7568
H10 H 0.4405 0.3811 0.4763
H11 H 0.2686 0.3275 0.6004
H12 H 0.5287 0.4009 0.2551
H13 H 0.3576 0.2713 -0.0081
H14 H 0.4520 0.2582 -0.2299
H15 H 0.6279 0.3092 -0.3526
H16 H 0.8661 0.5176 0.0153
H17 H 0.6996 0.4713 0.1490
C6A C -0.4984(6) 0.0190(6) 1.0698(7)
C3A C -0.6126(6) -0.0205(5) 1.1459(7)
C2A C -0.7384(7) -0.1012(6) 1.0776(6)
C1A C -0.8365(6) -0.1385(6) 1.1596(6)
N3A N -0.8151(4) -0.0972(4) 1.3055(5)
C5A C -0.6942(6) -0.0152(5) 1.3715(6)
C4A C -0.5916(6) 0.0238(5) 1.2981(7)
H4A H -0.5083 0.0806 1.3491
H5A H -0.6774 0.0169 1.4763
H1A H -0.9219 -0.1953 1.1107
H2A H -0.7582 -0.1321 0.9728
H6A H -0.4151 0.0769 1.1274
O1A O -0.0933(4) -0.0380(4) 0.3865(4)
O2A O -0.1453(4) -0.2142(4) 0.2073(4)
O3A O -0.2004(6) -0.0435(5) 0.1851(6)
N1A N -0.1492(4) -0.0991(4) 0.2565(4)
Cd1A Cd 0.03831(3) -0.18896(3) 0.44379(4)
Cd1A_2 Cd -0.96169(3) -0.18896(3) 1.44379(4)
O4A O 0.2325(4) -0.2106(4) 0.5559(4)
O5A O 0.2950(5) -0.3645(6) 0.6122(7)
O6A O 0.1059(5) -0.3535(5) 0.6409(7)
N2A N 0.2124(4) -0.3111(5) 0.6066(5)
O7A O 0.0077(3) -0.4011(3) 0.2933(4)
H3A H 0.0008 -0.4618 0.3532
H9A H 0.0791 -0.4004 0.2432
N3A_2 N 0.1849(4) -0.0972(4) 0.3055(5)
N4A N -0.1260(4) -0.2470(4) 0.5709(4)
N5A N -0.7640(4) -0.4159(4) 1.1818(5)
C7A C -0.1040(5) -0.2173(5) 0.7185(6)
C8A C -0.2038(5) -0.2483(5) 0.7998(5)
C9A C -0.3339(4) -0.3136(4) 0.7283(5)
C10A C -0.3543(5) -0.3402(5) 0.5757(5)
C11A C -0.2514(5) -0.3071(5) 0.5032(5)
C12A C -0.4454(5) -0.3511(5) 0.8045(5)
C13A C -0.4416(5) -0.3203(5) 0.9490(5)
C14A C -0.5533(5) -0.3562(5) 1.0243(5)
C15A C -0.5371(5) -0.3107(5) 1.1768(5)
C16A C -0.6420(5) -0.3413(5) 1.2493(5)
C17A C -0.7806(5) -0.4620(5) 1.0350(6)
C18A C -0.6818(5) -0.4352(5) 0.9542(5)
H7A H -0.0176 -0.1750 0.7672
H8A H -0.1841 -0.2250 0.9020
H10A H -0.4405 -0.3811 0.5237
H11A H -0.2686 -0.3275 0.3996
H12A H -0.5287 -0.4009 0.7449
H13A H -0.3576 -0.2713 1.0081
H14A H -0.4520 -0.2582 1.2299
H15A H -0.6279 -0.3092 1.3526
H16A H -0.8661 -0.5176 0.9847
H17A H -0.6996 -0.4713 0.8510
loop_
_geom_bond_atom_site_label_1
_geom_bond_atom_site_label_2
_geom_bond_site_symmetry_1
_geom_bond_site_symmetry_2
Cd1 O1 1_555 1_555
O1 N1 1_555 1_555
O2 N1 1_555 1_555
O3 N1 1_555 1_555
O4 Cd1 1_555 1_555
O5 N2 1_555 1_555
O6 N2 1_555 1_555
O7 Cd1 1_555 1_555
N2 O4 1_555 1_555
N3 Cd1 1_555 1_555
N4 Cd1 1_555 1_555
N5 C16 1_555 1_555
C1 N3 1_555 1_555
C2 C1 1_555 1_555
C3 C2 1_555 1_555
C4 C3 1_555 1_555
C5 N3 1_555 1_555
C6 C3 1_555 1_555
C7 N4 1_555 1_555
C8 C7 1_555 1_555
C9 C8 1_555 1_555
C10 C9 1_555 1_555
C11 N4 1_555 1_555
C12 C9 1_555 1_555
C13 C12 1_555 1_555
C14 C13 1_555 1_555
C15 C14 1_555 1_555
C16 C15 1_555 1_555
C17 N5 1_555 1_555
C18 C14 1_555 1_555
H1 C1 1_555 1_555
H2 C2 1_555 1_555
H3 O7 1_555 1_555
H4 C4 1_555 1_555
H5 C5 1_555 1_555
H6 C6 1_555 1_555
H7 C7 1_555 1_555
H8 C8 1_555 1_555
H9 O7 1_555 1_555
H10 C10 1_555 1_555
H11 C11 1_555 1_555
H12 C12 1_555 1_555
H13 C13 1_555 1_555
H14 C15 1_555 1_555
H15 C16 1_555 1_555
H16 C17 1_555 1_555
H17 C18 1_555 1_555
C6A C6 1_555 1_555
C3A C6A 1_555 1_555
C2A C3A 1_555 1_555
C1A C2A 1_555 1_555
N3A C1A 1_555 1_555
C5A N3A 1_555 1_555
C4A C3A 1_555 1_555
H4A C4A 1_555 1_555
H5A C5A 1_555 1_555
H1A C1A 1_555 1_555
H2A C2A 1_555 1_555
H6A C6A 1_555 1_555
O1A Cd1 1_555 1_555
O2A N1A 1_555 1_555
O3A N1A 1_555 1_555
N1A O1A 1_555 1_555
Cd1A O1 1_555 1_555
Cd1A_2 N3A 1_555 1_555
O4A Cd1A 1_555 1_555
O5A N2A 1_555 1_555
O6A N2A 1_555 1_555
N2A O4A 1_555 1_555
O7A Cd1A 1_555 1_555
H3A O7A 1_555 1_555
H9A O7A 1_555 1_555
N3A_2 Cd1A 1_555 1_555
N4A Cd1A 1_555 1_555
N5A C16A 1_555 1_555
C7A N4A 1_555 1_555
C8A C7A 1_555 1_555
C9A C8A 1_555 1_555
C10A C9A 1_555 1_555
C11A N4A 1_555 1_555
C12A C9A 1_555 1_555
C13A C12A 1_555 1_555
C14A C13A 1_555 1_555
C15A C14A 1_555 1_555
C16A C15A 1_555 1_555
C17A N5A 1_555 1_555
C18A C14A 1_555 1_555
H7A C7A 1_555 1_555
H8A C8A 1_555 1_555
H10A C10A 1_555 1_555
H11A C11A 1_555 1_555
H12A C12A 1_555 1_555
H13A C13A 1_555 1_555
H14A C15A 1_555 1_555
H15A C16A 1_555 1_555
H16A C17A 1_555 1_555
H17A C18A 1_555 1_555
C4 C5 1_555 1_555
C10 C11 1_555 1_555
C17 C18 1_555 1_555
C5A C4A 1_555 1_555
O1A Cd1A 1_555 1_555
C10A C11A 1_555 1_555
C17A C18A 1_555 1_555

#END
