
#######################################################################
#
#                 Cambridge Crystallographic Data Centre
#                                CCDC 
#
#######################################################################
#
# If this CIF has been generated from an entry in the Cambridge 
# Structural Database, then it will include bibliographic, chemical, 
# crystal, experimental, refinement or atomic coordinate data resulting 
# from the CCDC's data processing and validation procedures.
#
#######################################################################

data_LOCXEG
_symmetry_cell_setting           monoclinic
_symmetry_space_group_name_H-M   'C 2/c'
_symmetry_Int_Tables_number      15
_space_group_name_Hall           '-C 2yn'
loop_
_symmetry_equiv_pos_site_id
_symmetry_equiv_pos_as_xyz
1 x,y,z
2 -x,y,1/2-z
3 1/2+x,1/2+y,z
4 1/2-x,1/2+y,1/2-z
5 -x,-y,-z
6 x,-y,1/2+z
7 1/2-x,1/2-y,-z
8 1/2+x,1/2-y,1/2+z
_cell_length_a                   20.713(3)
_cell_length_b                   17.450(2)
_cell_length_c                   14.451(3)
_cell_angle_alpha                90
_cell_angle_beta                 129.203(8)
_cell_angle_gamma                90
_cell_volume                     4047.51
loop_
_atom_site_label
_atom_site_type_symbol
_atom_site_fract_x
_atom_site_fract_y
_atom_site_fract_z
Cd1 Cd 0.73176(4) 0.02171(3) 0.57250(5)
O1 O 0.8536(4) 0.0861(4) 0.6223(5)
O2 O 0.8171(5) -0.0184(4) 0.5206(7)
O3 O 0.9334(5) 0.0374(5) 0.5894(8)
O4 O 0.6003(4) -0.0173(4) 0.5263(6)
O5 O 0.6411(4) -0.0842(4) 0.4469(6)
O6 O 0.5225(5) -0.1077(6) 0.4056(8)
N1 N 0.8696(5) 0.0349(5) 0.5779(7)
N2 N 0.5859(5) -0.0706(5) 0.4574(7)
N3 N 0.8139(4) -0.0596(4) 0.7343(6)
N4 N 1.1557(4) -0.4031(4) 1.4023(5)
N5 N 0.7349(4) 0.1101(4) 0.6984(5)
C1 C 0.7820(5) -0.1149(5) 0.7567(7)
C2 C 0.8299(6) -0.1679(5) 0.8481(8)
C3 C 0.9158(5) -0.1617(5) 0.9226(7)
C4 C 0.9491(5) -0.1032(6) 0.9025(7)
C5 C 0.8965(5) -0.0532(5) 0.8091(8)
C6 C 1.1564(5) -0.3266(5) 1.4112(7)
C7 C 1.1119(5) -0.2774(5) 1.3169(7)
C8 C 1.0622(5) -0.3078(5) 1.2023(7)
C9 C 1.0618(5) -0.3878(5) 1.1901(6)
C10 C 1.1084(5) -0.4313(5) 1.2909(7)
C11 C 1.0100(5) -0.2585(5) 1.0986(7)
C12 C 0.9675(5) -0.2154(5) 1.0194(8)
C13 C 0.8068(5) 0.1415(5) 0.7922(8)
C14 C 0.8146(5) 0.1832(5) 0.8805(7)
C15 C 0.7451(6) 0.1919(5) 0.8742(7)
C16 C 0.6694(5) 0.1604(5) 0.7770(8)
C17 C 0.6671(5) 0.1201(5) 0.6927(7)
C18 C 0.7500(6) 0.2334(5) 0.9645(8)
H1 H 0.7211 -0.1192 0.7047
H2 H 0.8029 -0.2085 0.8598
H3 H 1.0101 -0.0979 0.9526
H4 H 0.9207 -0.0095 0.7966
H5 H 1.1914 -0.3058 1.4907
H6 H 1.1149 -0.2233 1.3293
H7 H 1.0284 -0.4118 1.1120
H8 H 1.1087 -0.4863 1.2828
H9 H 0.8555 0.1343 0.7983
H10 H 0.8678 0.2069 0.9449
H11 H 0.6210 0.1653 0.7717
H12 H 0.6160 0.0962 0.6261
C18F C 0.7500(6) 0.2666(5) 1.0355(8)
C15F C 0.7549(6) 0.3081(5) 1.1258(7)
C14F C 0.6854(5) 0.3168(5) 1.1195(7)
C13F C 0.6932(5) 0.3585(5) 1.2078(8)
N5F N 0.7651(4) 0.3899(4) 1.3016(5)
C17F C 0.8329(5) 0.3799(5) 1.3073(7)
C16F C 0.8306(5) 0.3396(5) 1.2230(8)
H11F H 0.8790 0.3347 1.2283
H12F H 0.8840 0.4038 1.3739
H9F H 0.6445 0.3657 1.2017
H10F H 0.6322 0.2931 1.0551
N3B N 0.3139(4) 0.4404(4) -0.2657(6)
N4B N 0.6557(4) 0.0969(4) 0.4023(5)
C1B C 0.2820(5) 0.3851(5) -0.2433(7)
C2B C 0.3299(6) 0.3321(5) -0.1519(8)
C3B C 0.4158(5) 0.3383(5) -0.0774(7)
C4B C 0.4491(5) 0.3968(6) -0.0975(7)
C5B C 0.3965(5) 0.4468(5) -0.1909(8)
C6B C 0.6564(5) 0.1734(5) 0.4112(7)
C7B C 0.6119(5) 0.2226(5) 0.3169(7)
C8B C 0.5622(5) 0.1922(5) 0.2023(7)
C9B C 0.5618(5) 0.1122(5) 0.1901(6)
C10B C 0.6084(5) 0.0687(5) 0.2909(7)
C11B C 0.5100(5) 0.2415(5) 0.0986(7)
C12B C 0.4675(5) 0.2846(5) 0.0194(8)
H1B H 0.2211 0.3808 -0.2953
H2B H 0.3029 0.2915 -0.1402
H3B H 0.5101 0.4021 -0.0474
H4B H 0.4207 0.4905 -0.2034
H5B H 0.6914 0.1942 0.4907
H6B H 0.6149 0.2767 0.3293
H7B H 0.5284 0.0882 0.1120
H8B H 0.6087 0.0137 0.2828
Cd1B Cd 0.23176(4) 0.52171(3) -0.42750(5)
Cd1B_2 Cd 1.23176(4) -0.47829(3) 1.57250(5)
Cd1F Cd 0.76824(4) 0.47829(3) 1.42750(5)
O1F O 0.6464(4) 0.4139(4) 1.3777(5)
O2F O 0.6829(5) 0.5184(4) 1.4794(7)
O3F O 0.5666(5) 0.4626(5) 1.4106(8)
N1F N 0.6304(5) 0.4651(5) 1.4221(7)
O4F O 0.8997(4) 0.5173(4) 1.4737(6)
O5F O 0.8589(4) 0.5842(4) 1.5531(6)
O6F O 0.9775(5) 0.6077(6) 1.5944(8)
N2F N 0.9141(5) 0.5706(5) 1.5426(7)
N3F N 0.6861(4) 0.5596(4) 1.2657(6)
N4D N 0.8443(4) 0.4031(4) 1.5977(5)
loop_
_geom_bond_atom_site_label_1
_geom_bond_atom_site_label_2
_geom_bond_site_symmetry_1
_geom_bond_site_symmetry_2
Cd1 O1 1_555 1_555
O1 N1 1_555 1_555
O2 Cd1 1_555 1_555
O3 N1 1_555 1_555
O4 Cd1 1_555 1_555
O5 Cd1 1_555 1_555
O6 N2 1_555 1_555
N1 O2 1_555 1_555
N2 O4 1_555 1_555
N3 Cd1 1_555 1_555
N4 C6 1_555 1_555
N5 Cd1 1_555 1_555
C1 N3 1_555 1_555
C2 C1 1_555 1_555
C3 C2 1_555 1_555
C4 C3 1_555 1_555
C5 N3 1_555 1_555
C6 C7 1_555 1_555
C7 C8 1_555 1_555
C8 C9 1_555 1_555
C9 C10 1_555 1_555
C10 N4 1_555 1_555
C11 C8 1_555 1_555
C12 C3 1_555 1_555
C13 N5 1_555 1_555
C14 C13 1_555 1_555
C15 C14 1_555 1_555
C16 C15 1_555 1_555
C17 N5 1_555 1_555
C18 C15 1_555 1_555
H1 C1 1_555 1_555
H2 C2 1_555 1_555
H3 C4 1_555 1_555
H4 C5 1_555 1_555
H5 C6 1_555 1_555
H6 C7 1_555 1_555
H7 C9 1_555 1_555
H8 C10 1_555 1_555
H9 C13 1_555 1_555
H10 C14 1_555 1_555
H11 C16 1_555 1_555
H12 C17 1_555 1_555
C18F C18 1_555 1_555
C15F C18F 1_555 1_555
C14F C15F 1_555 1_555
C13F C14F 1_555 1_555
N5F C13F 1_555 1_555
C17F N5F 1_555 1_555
C16F C15F 1_555 1_555
H11F C16F 1_555 1_555
H12F C17F 1_555 1_555
H9F C13F 1_555 1_555
H10F C14F 1_555 1_555
N3B C1B 1_555 1_555
N4B Cd1 1_555 1_555
C1B C2B 1_555 1_555
C2B C3B 1_555 1_555
C3B C4B 1_555 1_555
C4B C5B 1_555 1_555
C5B N3B 1_555 1_555
C6B N4B 1_555 1_555
C7B C6B 1_555 1_555
C8B C7B 1_555 1_555
C9B C8B 1_555 1_555
C10B N4B 1_555 1_555
C11B C8B 1_555 1_555
C12B C3B 1_555 1_555
H1B C1B 1_555 1_555
H2B C2B 1_555 1_555
H3B C4B 1_555 1_555
H4B C5B 1_555 1_555
H5B C6B 1_555 1_555
H6B C7B 1_555 1_555
H7B C9B 1_555 1_555
H8B C10B 1_555 1_555
Cd1B N3B 1_555 1_555
Cd1B_2 N4 1_555 1_555
Cd1F N5F 1_555 1_555
O1F Cd1F 1_555 1_555
O2F Cd1F 1_555 1_555
O3F N1F 1_555 1_555
N1F O1F 1_555 1_555
O4F Cd1F 1_555 1_555
O5F Cd1F 1_555 1_555
O6F N2F 1_555 1_555
N2F O4F 1_555 1_555
N3F Cd1F 1_555 1_555
N4D Cd1F 1_555 1_555
O5 N2 1_555 1_555
C4 C5 1_555 1_555
C11 C12 1_555 1_555
C16 C17 1_555 1_555
C17F C16F 1_555 1_555
C9B C10B 1_555 1_555
C11B C12B 1_555 1_555
O2F N1F 1_555 1_555
O5F N2F 1_555 1_555

#END
