
#######################################################################
#
#                 Cambridge Crystallographic Data Centre
#                                CCDC 
#
#######################################################################
#
# If this CIF has been generated from an entry in the Cambridge 
# Structural Database, then it will include bibliographic, chemical, 
# crystal, experimental, refinement or atomic coordinate data resulting 
# from the CCDC's data processing and validation procedures.
#
#######################################################################

data_LOCYAE
_symmetry_cell_setting           orthorhombic
_symmetry_space_group_name_H-M   'P b c n'
_symmetry_Int_Tables_number      60
_space_group_name_Hall           '-P 2n 2ab'
loop_
_symmetry_equiv_pos_site_id
_symmetry_equiv_pos_as_xyz
1 x,y,z
2 1/2-x,1/2-y,1/2+z
3 1/2+x,1/2-y,-z
4 -x,y,1/2-z
5 -x,-y,-z
6 1/2+x,1/2+y,1/2-z
7 1/2-x,1/2+y,z
8 x,-y,1/2+z
_cell_length_a                   23.061(2)
_cell_length_b                   13.5958(14)
_cell_length_c                   20.094(2)
_cell_angle_alpha                90
_cell_angle_beta                 90
_cell_angle_gamma                90
_cell_volume                     6300.13
loop_
_atom_site_label
_atom_site_type_symbol
_atom_site_fract_x
_atom_site_fract_y
_atom_site_fract_z
C2 C 0.32470(14) 0.9734(2) 0.53206(17)
C3 C 0.29355(14) 1.0355(2) 0.57229(17)
C4 C 0.28771(13) 1.0145(2) 0.63932(17)
C5 C 0.31606(13) 0.9314(2) 0.66217(17)
C6 C 0.34656(14) 0.8729(2) 0.61821(17)
C7 C 0.25052(13) 1.0778(2) 0.68360(16)
C8 C 0.25642(13) 1.0749(2) 0.75973(15)
C9 C 0.25007(13) 1.1895(2) 0.76198(15)
C10 C 0.26187(13) 1.1914(2) 0.68513(16)
C11 C 0.32058(14) 1.2274(2) 0.66543(16)
C12 C 0.37206(13) 1.1958(2) 0.69542(17)
C13 C 0.42426(14) 1.2319(3) 0.67385(19)
C14 C 0.38092(17) 1.3299(3) 0.59743(18)
C15 C 0.32656(15) 1.2979(2) 0.61522(18)
C16 C 0.19139(13) 1.2301(2) 0.78145(16)
C17 C 0.18752(14) 1.3013(2) 0.83052(17)
C18 C 0.13443(15) 1.3438(3) 0.84429(18)
C19 C 0.08962(13) 1.2511(3) 0.76690(16)
C20 C 0.14067(14) 1.2038(2) 0.74992(17)
C21 C 0.21797(14) 1.0143(2) 0.80375(17)
C22 C 0.17963(14) 0.9436(2) 0.78092(17)
C23 C 0.14888(14) 0.8873(2) 0.82567(17)
C24 C 0.19031(14) 0.9668(2) 0.91400(18)
C25 C 0.22175(14) 1.0264(2) 0.87236(17)
C26 C 0.52199(14) 0.8628(3) 0.49278(18)
H5 H 0.3279 0.9891 0.4872
H6 H 0.4949(11) 0.679(3) 0.4086(18)
H7 H 0.4602(16) 0.5987(14) 0.432(2)
H8 H 0.2764 1.0916 0.5545
H9 H 0.4654(16) 0.845(3) 0.5596(11)
H10 H 0.3146 0.915 0.7071
H11 H 0.3652 0.8174 0.6348
H12 H 0.2098 1.0666 0.672
H13 H 0.2968 1.0586 0.7704
H14 H 0.2816 1.2205 0.7872
H15 H 0.2313 1.2272 0.6615
H16 H 0.3709 1.1503 0.73
H17 H 0.4578 1.2088 0.6942
H18 H 0.3839 1.3766 0.5638
H19 H 0.2939 1.323 0.594
H20 H 0.2204 1.3204 0.854
H21 H 0.1329 1.3919 0.8772
H22 H 0.056 1.2333 0.7443
H23 H 0.1407 1.1548 0.7176
H24 H 0.1746 0.9342 0.7354
H25 H 0.123 0.8409 0.8092
H26 H 0.194 0.9757 0.9597
H27 H 0.2456 1.0749 0.89
H28 H 0.5465 0.8896 0.5269
H29 H 0.5128 0.9132 0.4611
H30 H 0.5418 0.8099 0.4707
Cl1 Cl 0.39064(4) 0.87820(6) 0.37091(4)
Cl2 Cl 0.26498(3) 0.75410(8) 0.47500(4)
Cl3 Cl 0.38336(4) 0.61244(6) 0.57418(4)
N1 N 0.35077(11) 0.89148(19) 0.55354(13)
N2 N 0.15452(11) 0.89622(19) 0.89202(14)
N3 N 0.42975(12) 1.2976(2) 0.62576(16)
N4 N 0.08551(12) 1.3203(2) 0.81352(16)
O2 O 0.46489(10) 0.65710(17) 0.42529(15)
O3 O 0.46983(11) 0.8266(2) 0.52207(13)
Pr1 Pr 0.382937(7) 0.746776(16) 0.472358(8)
N2A N 0.34548(11) 0.60378(19) 0.39202(14)
Pr1A Pr 0.117063(7) 0.753224(16) 0.972358(8)
C1 C 0.46736(15) 0.9808(3) 0.66584(19)
H1 H 0.5108 0.8658 0.6624
H2 H 0.4523 0.9798 0.7104
H3 H 0.439 1.0088 0.6364
H4 H 0.5021 1.0198 0.6646
O1 O 0.48023(9) 0.88358(18) 0.64530(13)
loop_
_geom_bond_atom_site_label_1
_geom_bond_atom_site_label_2
_geom_bond_site_symmetry_1
_geom_bond_site_symmetry_2
C1 H2 1_555 1_555
H1 O1 1_555 1_555
H3 C1 1_555 1_555
H4 C1 1_555 1_555
O1 C1 1_555 1_555
C2 C3 1_555 1_555
C3 C4 1_555 1_555
C4 C5 1_555 1_555
C5 C6 1_555 1_555
C6 H11 1_555 1_555
C7 C4 1_555 1_555
C8 C7 1_555 1_555
C9 C8 1_555 1_555
C10 C7 1_555 1_555
C11 C10 1_555 1_555
C12 C11 1_555 1_555
C13 C12 1_555 1_555
C14 C15 1_555 1_555
C15 C11 1_555 1_555
C16 C9 1_555 1_555
C17 C16 1_555 1_555
C18 C17 1_555 1_555
C19 C20 1_555 1_555
C20 C16 1_555 1_555
C21 C8 1_555 1_555
C22 C21 1_555 1_555
C23 C22 1_555 1_555
C24 C25 1_555 1_555
C25 C21 1_555 1_555
C26 H28 1_555 1_555
H5 C2 1_555 1_555
H6 O2 1_555 1_555
H7 O2 1_555 1_555
H8 C3 1_555 1_555
H9 O3 1_555 1_555
H10 C5 1_555 1_555
H12 C7 1_555 1_555
H13 C8 1_555 1_555
H14 C9 1_555 1_555
H15 C10 1_555 1_555
H16 C12 1_555 1_555
H17 C13 1_555 1_555
H18 C14 1_555 1_555
H19 C15 1_555 1_555
H20 C17 1_555 1_555
H21 C18 1_555 1_555
H22 C19 1_555 1_555
H23 C20 1_555 1_555
H24 C22 1_555 1_555
H25 C23 1_555 1_555
H26 C24 1_555 1_555
H27 C25 1_555 1_555
H29 C26 1_555 1_555
H30 C26 1_555 1_555
Cl1 Pr1 1_555 1_555
Cl2 Pr1 1_555 1_555
Cl3 Pr1 1_555 1_555
N1 C2 1_555 1_555
N2 C23 1_555 1_555
N3 C13 1_555 1_555
N4 C18 1_555 1_555
O2 Pr1 1_555 1_555
O3 C26 1_555 1_555
Pr1 N1 1_555 1_555
N2A Pr1 1_555 1_555
Pr1A N2 1_555 1_555
C6 N1 1_555 1_555
C9 C10 1_555 1_555
C14 N3 1_555 1_555
C19 N4 1_555 1_555
C24 N2 1_555 1_555
O3 Pr1 1_555 1_555

#END
