
#######################################################################
#
#                 Cambridge Crystallographic Data Centre
#                                CCDC 
#
#######################################################################
#
# If this CIF has been generated from an entry in the Cambridge 
# Structural Database, then it will include bibliographic, chemical, 
# crystal, experimental, refinement or atomic coordinate data resulting 
# from the CCDC's data processing and validation procedures.
#
#######################################################################

data_LOCZEK
_symmetry_cell_setting           monoclinic
_symmetry_space_group_name_H-M   'P 2/c'
_symmetry_Int_Tables_number      13
_space_group_name_Hall           '-P 2yc'
loop_
_symmetry_equiv_pos_site_id
_symmetry_equiv_pos_as_xyz
1 x,y,z
2 -x,y,1/2-z
3 -x,-y,-z
4 x,-y,1/2+z
_cell_length_a                   8.315(2)
_cell_length_b                   10.205(3)
_cell_length_c                   20.279(5)
_cell_angle_alpha                90
_cell_angle_beta                 113.120(12)
_cell_angle_gamma                90
_cell_volume                     1582.56
loop_
_atom_site_label
_atom_site_type_symbol
_atom_site_fract_x
_atom_site_fract_y
_atom_site_fract_z
Cu1 Cu 1.0000 1.16676(6) 0.2500
S1 S 0.55000(10) 0.72926(8) 0.01489(4)
S2 S 0.71484(12) 0.60608(8) -0.00648(4)
N1 N 0.9039(4) 0.3040(3) 0.17258(15)
N2 N 0.8729(4) 1.0301(3) 0.17741(15)
C1 C 0.9275(4) 0.2895(3) 0.11060(17)
H1 H 0.9850 0.2151 0.1046
C2 C 0.8694(4) 0.3811(3) 0.05560(17)
H2 H 0.8884 0.3692 0.0137
C3 C 0.7809(4) 0.4926(3) 0.06512(16)
C4 C 0.7532(4) 0.5066(3) 0.12803(17)
H3 H 0.6948 0.5793 0.1353
C5 C 0.8148(4) 0.4093(3) 0.17975(17)
H4 H 0.7936 0.4173 0.2213
C6 C 0.8674(4) 0.8332(3) 0.11145(17)
H5 H 0.9271 0.7639 0.1015
C7 C 0.6873(4) 0.8444(3) 0.07708(17)
C8 C 0.5985(4) 0.9493(3) 0.09203(17)
H6 H 0.4777 0.9576 0.0690
C9 C 0.6970(4) 1.0406(3) 0.14248(18)
H7 H 0.6404 1.1115 0.1527
C10 C 0.9569(4) 0.9300(3) 0.16178(18)
H8 H 1.0779 0.9246 0.1850
O1 O 1.2167(6) 1.6902(4) 0.11283(19)
O2 O 1.3790(6) 1.8254(4) 0.1944(3)
O3 O 1.3282(4) 1.1958(3) 0.12243(14)
O4 O 1.2672(4) 1.1603(3) 0.21850(15)
C11 C 1.3384(5) 1.2249(4) 0.18487(19)
C12 C 1.4288(5) 1.3506(4) 0.21808(19)
C13 C 1.3603(5) 1.4696(4) 0.18538(19)
H9 H 1.2642 1.4682 0.1418
C14 C 1.4301(5) 1.5920(4) 0.2153(2)
C15 C 1.3294(6) 1.7007(5) 0.1713(2)
O1A O 1.7833(6) 1.6902(4) 0.38717(19)
O2A O 1.6210(6) 1.8254(4) 0.3056(3)
O3A O 1.6718(4) 1.1958(3) 0.37757(14)
O4A O 1.7328(4) 1.1603(3) 0.28150(15)
C11A C 1.6616(5) 1.2249(4) 0.31513(19)
C12A C 1.5712(5) 1.3506(4) 0.28192(19)
C13A C 1.6397(5) 1.4696(4) 0.31462(19)
H9A H 1.7358 1.4682 0.3582
C14A C 1.5699(5) 1.5920(4) 0.2847(2)
C15A C 1.6706(6) 1.7007(5) 0.3287(2)
S1A S 1.45000(10) 0.72926(8) 0.48511(4)
S2A S 1.28516(12) 0.60608(8) 0.50648(4)
N1A N 1.0961(4) 0.3040(3) 0.32742(15)
N2A N 1.1271(4) 1.0301(3) 0.32259(15)
C1A C 1.0725(4) 0.2895(3) 0.38940(17)
H1A H 1.0150 0.2151 0.3954
C2A C 1.1306(4) 0.3811(3) 0.44440(17)
H2A H 1.1116 0.3692 0.4863
C3A C 1.2191(4) 0.4926(3) 0.43488(16)
C4A C 1.2468(4) 0.5066(3) 0.37197(17)
H3A H 1.3052 0.5793 0.3647
C5A C 1.1852(4) 0.4093(3) 0.32025(17)
H4A H 1.2064 0.4173 0.2787
C6A C 1.1326(4) 0.8332(3) 0.38855(17)
H5A H 1.0729 0.7639 0.3985
C7A C 1.3127(4) 0.8444(3) 0.42292(17)
C8A C 1.4015(4) 0.9493(3) 0.40797(17)
H6A H 1.5223 0.9576 0.4310
C9A C 1.3030(4) 1.0406(3) 0.35752(18)
H7A H 1.3596 1.1115 0.3473
C10A C 1.0431(4) 0.9300(3) 0.33822(18)
H8A H 0.9221 0.9246 0.3150
Cu1_2 Cu 1.0000 0.16676(6) 0.2500
Cu1_3 Cu 2.0000 1.16676(6) 0.2500
N1_2 N 0.9039(4) 1.3040(3) 0.17258(15)
N1A_2 N 1.0961(4) 1.3040(3) 0.32742(15)
O4A_2 O 0.7328(4) 1.1603(3) 0.28150(15)
O5 O 0.1658(4) 0.9832(4) 0.0499(2)
loop_
_geom_bond_atom_site_label_1
_geom_bond_atom_site_label_2
_geom_bond_site_symmetry_1
_geom_bond_site_symmetry_2
Cu1 N2 1_555 1_555
S1 S2 1_555 1_555
S2 C3 1_555 1_555
N1 C1 1_555 1_555
N2 C9 1_555 1_555
C1 H1 1_555 1_555
C2 C1 1_555 1_555
H2 C2 1_555 1_555
C3 C2 1_555 1_555
C4 C3 1_555 1_555
H3 C4 1_555 1_555
C5 N1 1_555 1_555
H4 C5 1_555 1_555
C6 H5 1_555 1_555
C7 S1 1_555 1_555
C8 C7 1_555 1_555
H6 C8 1_555 1_555
C9 C8 1_555 1_555
H7 C9 1_555 1_555
C10 N2 1_555 1_555
H8 C10 1_555 1_555
O1 C15 1_555 1_555
O2 C15 1_555 1_555
O3 C11 1_555 1_555
O4 Cu1 1_555 1_555
C11 O4 1_555 1_555
C12 C11 1_555 1_555
C13 C12 1_555 1_555
H9 C13 1_555 1_555
C14 C13 1_555 1_555
C15 C14 1_555 1_555
O1A C15A 1_555 1_555
O2A C15A 1_555 1_555
O3A C11A 1_555 1_555
O4A C11A 1_555 1_555
C11A C12A 1_555 1_555
C12A C12 1_555 1_555
C13A C12A 1_555 1_555
H9A C13A 1_555 1_555
C14A C14 1_555 1_555
C15A C14A 1_555 1_555
S1A S2A 1_555 1_555
S2A C3A 1_555 1_555
N1A C1A 1_555 1_555
N2A Cu1 1_555 1_555
C1A H1A 1_555 1_555
C2A C1A 1_555 1_555
H2A C2A 1_555 1_555
C3A C2A 1_555 1_555
C4A C3A 1_555 1_555
H3A C4A 1_555 1_555
C5A N1A 1_555 1_555
H4A C5A 1_555 1_555
C6A H5A 1_555 1_555
C7A S1A 1_555 1_555
C8A C7A 1_555 1_555
H6A C8A 1_555 1_555
C9A N2A 1_555 1_555
H7A C9A 1_555 1_555
C10A N2A 1_555 1_555
H8A C10A 1_555 1_555
Cu1_2 N1 1_555 1_555
Cu1_3 O4A 1_555 1_555
N1_2 Cu1 1_555 1_555
N1A_2 Cu1 1_555 1_555
O4A_2 Cu1 1_555 1_555
C4 C5 1_555 1_555
C6 C7 1_555 1_555
C6 C10 1_555 1_555
C13A C14A 1_555 1_555
N1A Cu1_2 1_555 1_555
C4A C5A 1_555 1_555
C6A C7A 1_555 1_555
C6A C10A 1_555 1_555
C8A C9A 1_555 1_555

#END
