
#######################################################################
#
#                 Cambridge Crystallographic Data Centre
#                                CCDC 
#
#######################################################################
#
# If this CIF has been generated from an entry in the Cambridge 
# Structural Database, then it will include bibliographic, chemical, 
# crystal, experimental, refinement or atomic coordinate data resulting 
# from the CCDC's data processing and validation procedures.
#
#######################################################################

data_LODBEN
_symmetry_cell_setting           monoclinic
_symmetry_space_group_name_H-M   'P 21/n'
_symmetry_Int_Tables_number      14
_space_group_name_Hall           '-P 2yn'
loop_
_symmetry_equiv_pos_site_id
_symmetry_equiv_pos_as_xyz
1 x,y,z
2 1/2-x,1/2+y,1/2-z
3 -x,-y,-z
4 1/2+x,1/2-y,1/2+z
_cell_length_a                   13.1308(11)
_cell_length_b                   18.3853(14)
_cell_length_c                   21.7336(18)
_cell_angle_alpha                90
_cell_angle_beta                 101.981(2)
_cell_angle_gamma                90
_cell_volume                     5132.5
loop_
_atom_site_label
_atom_site_type_symbol
_atom_site_fract_x
_atom_site_fract_y
_atom_site_fract_z
O1 O 0.7979(11) 0.7328(9) 0.3329(6)
C1 C 0.802(2) 0.8028(9) 0.3609(9)
H1 H 0.7472 0.8334 0.3379
H2 H 0.8687 0.8257 0.3602
C2 C 0.790(3) 0.7941(15) 0.4240(9)
H3 H 0.8511 0.8129 0.4528
H4 H 0.7297 0.8206 0.4305
C3 C 0.779(2) 0.7187(17) 0.4349(8)
H5 H 0.7123 0.7098 0.4465
H6 H 0.8337 0.7021 0.4689
C4 C 0.7832(19) 0.6808(10) 0.3786(10)
H7 H 0.8405 0.6464 0.3861
H8 H 0.7191 0.6541 0.3638
C5 C 0.9548(5) 0.8331(3) 0.0282(3)
C6 C 0.8813(6) 0.8854(4) 0.0346(3)
H9 H 0.8483 0.8834 0.0686
C7 C 0.8570(7) 0.9406(4) -0.0097(4)
C8 C 0.9062(8) 0.9436(5) -0.0604(4)
H10 H 0.8900 0.9805 -0.0900
C9 C 0.9798(8) 0.8913(5) -0.0668(4)
C10 C 1.0041(6) 0.8360(4) -0.0225(3)
H11 H 1.0533 0.8011 -0.0268
C11 C 0.7911(6) 0.8604(4) 0.1970(3)
C12 C 0.7288(6) 0.9254(4) 0.2113(4)
C13 C 0.7702(6) 0.9766(4) 0.2549(4)
H12 H 0.8399 0.9738 0.2751
C14 C 0.7087(6) 1.0325(4) 0.2688(4)
H13 H 0.7383 1.0668 0.2986
C15 C 0.5691(7) 0.9902(5) 0.1970(5)
H14 H 0.4998 0.9947 0.1763
C16 C 0.6269(7) 0.9334(5) 0.1807(5)
H15 H 0.5971 0.9009 0.1494
C17 C 0.3217(8) 0.6929(5) 0.1767(5)
C18 C 0.4356(7) 0.6897(5) 0.1685(5)
C19 C 0.4575(8) 0.6611(7) 0.1152(5)
H16 H 0.4051 0.6408 0.0846
C20 C 0.5607(8) 0.6627(7) 0.1073(6)
H17 H 0.5736 0.6464 0.0691
C21 C 0.6168(8) 0.7088(7) 0.2041(5)
H18 H 0.6704 0.7242 0.2366
C22 C 0.5151(8) 0.7109(7) 0.2139(5)
H19 H 0.5026 0.7272 0.2522
C23 C 1.0555(6) 0.7124(4) 0.3448(3)
C24 C 1.1122(6) 0.7238(4) 0.4119(4)
C25 C 1.1912(8) 0.7745(5) 0.4249(4)
H20 H 1.2111 0.8002 0.3925
C26 C 1.2402(7) 0.7865(5) 0.4865(4)
H21 H 1.2957 0.8190 0.4943
C27 C 1.1384(8) 0.7039(5) 0.5223(4)
H22 H 1.1199 0.6787 0.5555
C28 C 1.0877(8) 0.6875(5) 0.4615(4)
H23 H 1.0368 0.6516 0.4544
C29 C 1.1764(6) 0.5284(4) 0.2236(4)
C30 C 1.2558(6) 0.4693(4) 0.2453(4)
C31 C 1.2489(7) 0.4179(5) 0.2904(5)
H24 H 1.1937 0.4197 0.3111
C32 C 1.3220(7) 0.3643(4) 0.3051(4)
H25 H 1.3144 0.3302 0.3355
C33 C 1.4117(7) 0.4093(5) 0.2341(5)
H26 H 1.4682 0.4068 0.2145
C34 C 1.3403(7) 0.4641(5) 0.2171(4)
H27 H 1.3491 0.4977 0.1867
C35 C 0.8836(6) 0.5770(4) 0.1007(4)
C36 C 0.8775(6) 0.5137(4) 0.0539(4)
C37 C 0.7980(7) 0.5120(5) 0.0004(4)
H28 H 0.7430 0.5447 -0.0041
C38 C 0.8016(7) 0.4608(5) -0.0464(5)
H29 H 0.7484 0.4610 -0.0822
C39 C 0.9478(8) 0.4108(5) 0.0108(5)
H30 H 0.9973 0.3739 0.0160
C40 C 0.9535(7) 0.4616(5) 0.0605(5)
H31 H 1.0067 0.4596 0.0961
C41 C 0.9761(6) 0.7722(4) 0.0744(4)
N1 N 0.6084(5) 1.0393(3) 0.2413(3)
N2 N 0.6415(5) 0.6858(4) 0.1503(4)
N3 N 1.2126(5) 0.7543(3) 0.5354(3)
N4 N 1.4037(5) 0.3587(3) 0.2781(3)
N5 N 0.8770(5) 0.4118(4) -0.0426(3)
O2 O 0.8782(4) 0.6948(2) 0.2134(2)
H32 H 0.8407 0.7008 0.2477
O3 O 1.0858(4) 0.6922(2) 0.2054(2)
H33 H 1.1515 0.6968 0.2362
O4 O 0.7428(4) 0.8189(3) 0.1553(3)
O5 O 0.8817(4) 0.8543(3) 0.2267(3)
O6 O 0.3075(6) 0.7029(5) 0.2309(4)
O7 O 0.2550(5) 0.6875(4) 0.1272(3)
O8 O 1.0374(4) 0.7685(3) 0.3118(2)
O9 O 1.0328(4) 0.6479(3) 0.3282(2)
O10 O 1.1094(4) 0.5401(3) 0.2560(3)
O11 O 1.1850(5) 0.5598(3) 0.1740(3)
O12 O 0.8056(4) 0.6167(3) 0.0945(3)
O13 O 0.9690(4) 0.5842(3) 0.1391(2)
O14 O 0.9276(4) 0.7715(3) 0.1187(2)
O15 O 1.0437(5) 0.7264(3) 0.0676(3)
Ni1 Ni 0.78532(7) 0.71855(5) 0.12907(4)
Ni2 Ni 0.98845(7) 0.77472(5) 0.21591(4)
Ni3 Ni 0.99230(7) 0.61656(5) 0.23518(4)
Ni4 Ni 1.11143(8) 0.64568(5) 0.12563(5)
C42 C 1.010(2) 0.9445(14) -0.1602(11)
H34 H 1.0559 0.9400 -0.1890
H35 H 1.0198 0.9911 -0.1398
H36 H 0.9390 0.9404 -0.1829
O16 O 1.0309(10) 0.8893(7) -0.1149(5)
O17 O 0.7824(12) 0.9908(7) -0.0050(6)
C43 C 0.747(3) 1.0012(18) 0.0507(19)
H37 H 0.6950 0.9657 0.0536
H38 H 0.7184 1.0491 0.0509
H39 H 0.8047 0.9960 0.0859
N1A N 0.8916(5) 0.5393(3) 0.2587(3)
N3C N 0.7126(5) 0.7457(3) 0.0354(3)
N4A N 1.0963(5) 0.8587(3) 0.2219(3)
N5B N 1.1230(5) 0.5882(4) 0.0426(3)
O7_2 O 1.2550(5) 0.6875(4) 0.1272(3)
Ni1C Ni 1.28532(7) 0.78145(5) 0.62907(4)
Ni2A Ni 1.51155(7) 0.27472(5) 0.28409(4)
Ni3A Ni 0.50770(7) 1.11656(5) 0.26482(4)
Ni4_2 Ni 0.11143(8) 0.64568(5) 0.12563(5)
Ni4B Ni 0.88857(8) 0.35432(5) -0.12563(5)
O18 O 0.3941(19) 0.7889(16) 0.3429(10)
C44? C 0.703(3) 1.014(3) -0.0635(14)
H40? H 0.6672 1.0569 -0.0541
H41? H 0.6540 0.9756 -0.0763
H42? H 0.7387 1.0247 -0.0969
loop_
_geom_bond_atom_site_label_1
_geom_bond_atom_site_label_2
_geom_bond_site_symmetry_1
_geom_bond_site_symmetry_2
O1 C1 1_555 1_555
C1 H1 1_555 1_555
H2 C1 1_555 1_555
C2 C1 1_555 1_555
H3 C2 1_555 1_555
H4 C2 1_555 1_555
C3 C2 1_555 1_555
H5 C3 1_555 1_555
H6 C3 1_555 1_555
C4 O1 1_555 1_555
H7 C4 1_555 1_555
H8 C4 1_555 1_555
C5 C6 1_555 1_555
C6 H9 1_555 1_555
C7 C6 1_555 1_555
C8 C7 1_555 1_555
H10 C8 1_555 1_555
C9 C8 1_555 1_555
C10 C5 1_555 1_555
H11 C10 1_555 1_555
C11 C12 1_555 1_555
C12 C13 1_555 1_555
C13 H12 1_555 1_555
C14 C13 1_555 1_555
H13 C14 1_555 1_555
C15 H14 1_555 1_555
C16 C12 1_555 1_555
H15 C16 1_555 1_555
C17 C18 1_555 1_555
C18 C19 1_555 1_555
C19 H16 1_555 1_555
C20 C19 1_555 1_555
H17 C20 1_555 1_555
C21 H18 1_555 1_555
C22 C18 1_555 1_555
H19 C22 1_555 1_555
C23 C24 1_555 1_555
C24 C25 1_555 1_555
C25 H20 1_555 1_555
C26 C25 1_555 1_555
H21 C26 1_555 1_555
C27 H22 1_555 1_555
C28 C24 1_555 1_555
H23 C28 1_555 1_555
C29 C30 1_555 1_555
C30 C31 1_555 1_555
C31 H24 1_555 1_555
C32 C31 1_555 1_555
H25 C32 1_555 1_555
C33 H26 1_555 1_555
C34 C30 1_555 1_555
H27 C34 1_555 1_555
C35 C36 1_555 1_555
C36 C37 1_555 1_555
C37 H28 1_555 1_555
C38 C37 1_555 1_555
H29 C38 1_555 1_555
C39 H30 1_555 1_555
C40 C36 1_555 1_555
H31 C40 1_555 1_555
C41 C5 1_555 1_555
N1 C14 1_555 1_555
N2 C20 1_555 1_555
N3 C26 1_555 1_555
N4 C32 1_555 1_555
N5 C38 1_555 1_555
O2 H32 1_555 1_555
O3 H33 1_555 1_555
O4 C11 1_555 1_555
O5 C11 1_555 1_555
O6 C17 1_555 1_555
O7 C17 1_555 1_555
O8 C23 1_555 1_555
O9 C23 1_555 1_555
O10 C29 1_555 1_555
O11 C29 1_555 1_555
O12 C35 1_555 1_555
O13 C35 1_555 1_555
O14 C41 1_555 1_555
O15 C41 1_555 1_555
Ni1 N2 1_555 1_555
Ni2 O2 1_555 1_555
Ni3 O2 1_555 1_555
Ni4 O3 1_555 1_555
C42 H34 1_555 1_555
H35 C42 1_555 1_555
H36 C42 1_555 1_555
O16 C9 1_555 1_555
O17 C7 1_555 1_555
C43 O17 1_555 1_555
H37 C43 1_555 1_555
H38 C43 1_555 1_555
H39 C43 1_555 1_555
N1A Ni3 1_555 1_555
N3C Ni1 1_555 1_555
N4A Ni2 1_555 1_555
N5B Ni4 1_555 1_555
O7_2 Ni4 1_555 1_555
Ni1C N3 1_555 1_555
Ni2A N4 1_555 1_555
Ni3A N1 1_555 1_555
Ni4_2 O7 1_555 1_555
Ni4B N5 1_555 1_555
C3 C4 1_555 1_555
C9 C10 1_555 1_555
C15 C16 1_555 1_555
C15 N1 1_555 1_555
C21 C22 1_555 1_555
C21 N2 1_555 1_555
C27 C28 1_555 1_555
C27 N3 1_555 1_555
C33 C34 1_555 1_555
C33 N4 1_555 1_555
C39 C40 1_555 1_555
C39 N5 1_555 1_555
O2 Ni1 1_555 1_555
O3 Ni2 1_555 1_555
O3 Ni3 1_555 1_555
O4 Ni1 1_555 1_555
O5 Ni2 1_555 1_555
O8 Ni2 1_555 1_555
O9 Ni3 1_555 1_555
O10 Ni3 1_555 1_555
O11 Ni4 1_555 1_555
O12 Ni1 1_555 1_555
O13 Ni3 1_555 1_555
O13 Ni4 1_555 1_555
O14 Ni1 1_555 1_555
O14 Ni2 1_555 1_555
O15 Ni4 1_555 1_555
C42 O16 1_555 1_555

#END
