
#######################################################################
#
#                 Cambridge Crystallographic Data Centre
#                                CCDC 
#
#######################################################################
#
# If this CIF has been generated from an entry in the Cambridge 
# Structural Database, then it will include bibliographic, chemical, 
# crystal, experimental, refinement or atomic coordinate data resulting 
# from the CCDC's data processing and validation procedures.
#
#######################################################################

data_LODCAK
_symmetry_cell_setting           orthorhombic
_symmetry_space_group_name_H-M   'P c c a'
_symmetry_Int_Tables_number      54
_space_group_name_Hall           '-P 2a 2ac'
loop_
_symmetry_equiv_pos_site_id
_symmetry_equiv_pos_as_xyz
1 x,y,z
2 1/2-x,-y,z
3 1/2+x,-y,1/2-z
4 -x,y,1/2-z
5 -x,-y,-z
6 1/2+x,y,-z
7 1/2-x,y,1/2+z
8 x,-y,1/2+z
_cell_length_a                   23.423(4)
_cell_length_b                   11.2363(19)
_cell_length_c                   22.563(4)
_cell_angle_alpha                90
_cell_angle_beta                 90
_cell_angle_gamma                90
_cell_volume                     5938.31
loop_
_atom_site_label
_atom_site_type_symbol
_atom_site_fract_x
_atom_site_fract_y
_atom_site_fract_z
Ni1 Ni 0.0000 0.83844(6) 0.2500
Ni2 Ni 0.7500 0.5000 0.35267(3)
O1 O 0.06416(12) 0.8383(2) 0.31081(16)
O2 O 0.01845(16) 0.8748(4) 0.39566(18)
O3 O 0.26918(18) 0.8440(4) 0.4922(2)
O4 O 0.42190(15) 0.6648(4) 0.45882(19)
O5 O 0.62329(12) 0.3530(3) 0.34971(15)
O6 O 0.66387(12) 0.5320(3) 0.35376(12)
O7 O -0.06282(11) 0.8450(2) 0.31746(14)
H1 H -0.0445 0.8577 0.3477
H2 H -0.0784 0.7803 0.3160
O8 O 0.76135(13) 0.6870(3) 0.35330(15)
H3 H 0.7701 0.7356 0.3806
H4 H 0.7902 0.6798 0.3324
N1 N 0.0000 0.6523(4) 0.2500
N2 N 0.0000 0.0232(4) 0.2500
N3 N 0.7500 0.5000 0.4461(2)
N4 N 0.7500 0.5000 0.7598(2)
C1 C 0.0630(2) 0.8555(4) 0.3660(3)
C2 C 0.1183(2) 0.8526(4) 0.3974(3)
C3 C 0.1682(2) 0.8515(4) 0.3670(3)
H5 H 0.1679 0.8521 0.3258
C4 C 0.1198(2) 0.8526(5) 0.4591(3)
H6 H 0.0858 0.8545 0.4802
C5 C 0.1703(3) 0.8499(5) 0.4892(3)
H7 H 0.1706 0.8495 0.5304
C6 C 0.2200(2) 0.8479(5) 0.4588(3)
C7 C 0.2207(2) 0.8496(5) 0.3976(3)
H8 H 0.2551 0.8495 0.3770
C8 C 0.3205(2) 0.8256(6) 0.4617(3)
H9 H 0.3281 0.8914 0.4351
H10 H 0.3186 0.7528 0.4386
C9 C 0.3677(3) 0.8165(6) 0.5095(3)
H11 H 0.3712 0.8918 0.5302
H12 H 0.3577 0.7557 0.5382
C10 C 0.4226(3) 0.7860(7) 0.4809(3)
H13 H 0.4297 0.8403 0.4483
H14 H 0.4533 0.7949 0.5094
C11 C 0.4730(2) 0.6250(7) 0.4337(2)
C12 C 0.4743(2) 0.5016(7) 0.4264(2)
H15 H 0.4432 0.4554 0.4375
C13 C 0.5228(2) 0.4480(5) 0.4024(2)
H16 H 0.5238 0.3659 0.3971
C14 C 0.56906(18) 0.5158(5) 0.38638(19)
C15 C 0.5651(2) 0.6380(5) 0.3948(2)
H17 H 0.5958 0.6857 0.3838
C16 C 0.5174(2) 0.6912(6) 0.4189(2)
H18 H 0.5165 0.7731 0.4247
C17 C 0.62195(19) 0.4626(5) 0.36107(19)
C18 C 0.7083(2) 0.5467(5) 0.4766(2)
H19 H 0.6780 0.5813 0.4562
C19 C 0.7070(2) 0.5470(5) 0.5381(2)
H20 H 0.6758 0.5804 0.5573
C20 C 0.7500 0.5000 0.5713(3)
C21 C 0.7500 0.5000 0.6367(2)
C22 C 0.79512(19) 0.4588(5) 0.6687(2)
H21 H 0.8273 0.4300 0.6492
C23 C 0.79347(19) 0.4596(5) 0.7289(2)
H22 H 0.8248 0.4298 0.7493
C24 C 0.04442(18) 0.5902(4) 0.2692(2)
H23 H 0.0761 0.6316 0.2830
C25 C 0.04619(18) 0.4686(3) 0.2699(2)
H24 H 0.0786 0.4296 0.2838
C26 C 0.0000 0.4037(5) 0.2500
C27 C 0.0000 0.2715(5) 0.2500
C28 C -0.0489(2) 0.2065(4) 0.2432(2)
H25 H -0.0838 0.2453 0.2391
C29 C -0.04683(19) 0.0854(4) 0.2425(3)
H26 H -0.0807 0.0442 0.2363
C24C C -0.04442(18) 0.5902(4) 0.2308(2)
H23C H -0.0761 0.6316 0.2170
C25C C -0.04619(18) 0.4686(3) 0.2301(2)
H24C H -0.0786 0.4296 0.2162
C28C C 0.0489(2) 0.2065(4) 0.2568(2)
H25C H 0.0838 0.2453 0.2609
C29C C 0.04683(19) 0.0854(4) 0.2575(3)
H26C H 0.0807 0.0442 0.2637
C18A C 0.7917(2) 0.4533(5) 0.4766(2)
H19A H 0.8220 0.4187 0.4562
C19A C 0.7930(2) 0.4530(5) 0.5381(2)
H20A H 0.8242 0.4196 0.5573
C22A C 0.70488(19) 0.5412(5) 0.6687(2)
H21A H 0.6727 0.5700 0.6492
C23A C 0.70653(19) 0.5404(5) 0.7289(2)
H22A H 0.6752 0.5702 0.7493
O1A O 1.43584(12) 0.1617(2) 0.31081(16)
O2A O 1.48155(16) 0.1252(4) 0.39566(18)
O3A O 1.23082(18) 0.1560(4) 0.4922(2)
O4A O 1.07810(15) 0.3352(4) 0.45882(19)
O5A O 0.87671(12) 0.6470(3) 0.34971(15)
O6A O 0.83613(12) 0.4680(3) 0.35376(12)
O8A O 0.73865(13) 0.3130(3) 0.35330(15)
H3A H 0.7299 0.2644 0.3806
H4A H 0.7098 0.3202 0.3324
C1A C 1.4370(2) 0.1445(4) 0.3660(3)
C2A C 1.3817(2) 0.1474(4) 0.3974(3)
C3A C 1.3318(2) 0.1485(4) 0.3670(3)
H5A H 1.3321 0.1479 0.3258
C4A C 1.3802(2) 0.1474(5) 0.4591(3)
H6A H 1.4142 0.1455 0.4802
C5A C 1.3297(3) 0.1501(5) 0.4892(3)
H7A H 1.3294 0.1505 0.5304
C6A C 1.2800(2) 0.1521(5) 0.4588(3)
C7A C 1.2793(2) 0.1504(5) 0.3976(3)
H8A H 1.2449 0.1505 0.3770
C8A C 1.1795(2) 0.1744(6) 0.4617(3)
H9A H 1.1719 0.1086 0.4351
H10A H 1.1814 0.2472 0.4386
C9A C 1.1323(3) 0.1835(6) 0.5095(3)
H11A H 1.1288 0.1082 0.5302
H12A H 1.1423 0.2443 0.5382
C10A C 1.0774(3) 0.2140(7) 0.4809(3)
H13A H 1.0703 0.1597 0.4483
H14A H 1.0467 0.2051 0.5094
C11A C 1.0270(2) 0.3750(7) 0.4337(2)
C12A C 1.0257(2) 0.4984(7) 0.4264(2)
H15A H 1.0568 0.5446 0.4375
C13A C 0.9772(2) 0.5520(5) 0.4024(2)
H16A H 0.9762 0.6341 0.3971
C14A C 0.93094(18) 0.4842(5) 0.38638(19)
C15A C 0.9349(2) 0.3620(5) 0.3948(2)
H17A H 0.9042 0.3143 0.3838
C16A C 0.9826(2) 0.3088(6) 0.4189(2)
H18A H 0.9835 0.2269 0.4247
C17A C 0.87805(19) 0.5374(5) 0.36107(19)
O7C O 0.06282(11) 0.8450(2) 0.18254(14)
H1C H 0.0445 0.8577 0.1523
H2C H 0.0784 0.7803 0.1840
Ni1_2 Ni 0.0000 -0.16156(6) 0.2500
Ni1A Ni 1.5000 0.16156(6) 0.2500
Ni2F Ni 0.7500 0.5000 0.85267(3)
O1C O -0.06416(12) 0.8383(2) 0.18919(16)
N2_2 N 0.0000 1.0232(4) 0.2500
N4F N 0.7500 0.5000 0.2598(2)
O9 O 0.7595(10) 0.9048(19) 0.3750(14)
H27 H 0.7580 0.9062 0.3387
H28 H 0.7855 0.8563 0.3783
O10 O 0.7500 1.0000 0.3971(6)
O11 O 0.6865(7) 0.7697(15) 0.2752(8)
H29 H 0.7125 0.7520 0.2980
H30 H 0.7002 0.8086 0.2456
O12 O 0.6632(5) 1.0146(11) 0.3165(7)
H31 H 0.6797 1.0201 0.2846
H32 H 0.6524 0.9495 0.3285
O13 O 0.0183(16) 0.9616(19) 0.5248(19)
H33? H 0.7013 0.8060 0.2478
O14? O 0.7206(8) 0.8440(14) 0.2692(10)
H34? H 0.7424 0.8754 0.2455
loop_
_geom_bond_atom_site_label_1
_geom_bond_atom_site_label_2
_geom_bond_site_symmetry_1
_geom_bond_site_symmetry_2
Ni1 O1 1_555 1_555
Ni2 O6 1_555 1_555
O1 C1 1_555 1_555
O2 C1 1_555 1_555
O3 C6 1_555 1_555
O4 C10 1_555 1_555
O5 C17 1_555 1_555
O6 C17 1_555 1_555
O7 Ni1 1_555 1_555
H1 O7 1_555 1_555
H2 O7 1_555 1_555
O8 Ni2 1_555 1_555
H3 O8 1_555 1_555
H4 O8 1_555 1_555
N1 Ni1 1_555 1_555
N2 C29 1_555 1_555
N3 Ni2 1_555 1_555
N4 C23 1_555 1_555
C1 C2 1_555 1_555
C2 C3 1_555 1_555
C3 H5 1_555 1_555
C4 C2 1_555 1_555
H6 C4 1_555 1_555
C5 C4 1_555 1_555
H7 C5 1_555 1_555
C6 C5 1_555 1_555
C7 C3 1_555 1_555
H8 C7 1_555 1_555
C8 O3 1_555 1_555
H9 C8 1_555 1_555
H10 C8 1_555 1_555
C9 C8 1_555 1_555
H11 C9 1_555 1_555
H12 C9 1_555 1_555
C10 C9 1_555 1_555
H13 C10 1_555 1_555
H14 C10 1_555 1_555
C11 O4 1_555 1_555
C12 C11 1_555 1_555
H15 C12 1_555 1_555
C13 C12 1_555 1_555
H16 C13 1_555 1_555
C14 C13 1_555 1_555
C15 C14 1_555 1_555
H17 C15 1_555 1_555
C16 C11 1_555 1_555
H18 C16 1_555 1_555
C17 C14 1_555 1_555
C18 N3 1_555 1_555
H19 C18 1_555 1_555
C19 C18 1_555 1_555
H20 C19 1_555 1_555
C20 C19 1_555 1_555
C21 C20 1_555 1_555
C22 C21 1_555 1_555
H21 C22 1_555 1_555
C23 C22 1_555 1_555
H22 C23 1_555 1_555
C24 N1 1_555 1_555
H23 C24 1_555 1_555
C25 C24 1_555 1_555
H24 C25 1_555 1_555
C26 C25 1_555 1_555
C27 C26 1_555 1_555
C28 C27 1_555 1_555
H25 C28 1_555 1_555
C29 C28 1_555 1_555
H26 C29 1_555 1_555
O9 H27 1_555 1_555
H28 O9 1_555 1_555
O11 H29 1_555 1_555
H30 O11 1_555 1_555
O12 H31 1_555 1_555
H32 O12 1_555 1_555
C24C N1 1_555 1_555
H23C C24C 1_555 1_555
C25C C26 1_555 1_555
H24C C25C 1_555 1_555
C28C C27 1_555 1_555
H25C C28C 1_555 1_555
C29C N2 1_555 1_555
H26C C29C 1_555 1_555
C18A N3 1_555 1_555
H19A C18A 1_555 1_555
C19A C20 1_555 1_555
H20A C19A 1_555 1_555
C22A C21 1_555 1_555
H21A C22A 1_555 1_555
C23A N4 1_555 1_555
H22A C23A 1_555 1_555
O1A C1A 1_555 1_555
O2A C1A 1_555 1_555
O3A C6A 1_555 1_555
O4A C10A 1_555 1_555
O5A C17A 1_555 1_555
O6A Ni2 1_555 1_555
O8A Ni2 1_555 1_555
H3A O8A 1_555 1_555
H4A O8A 1_555 1_555
C1A C2A 1_555 1_555
C2A C3A 1_555 1_555
C3A H5A 1_555 1_555
C4A C2A 1_555 1_555
H6A C4A 1_555 1_555
C5A C4A 1_555 1_555
H7A C5A 1_555 1_555
C6A C5A 1_555 1_555
C7A C3A 1_555 1_555
H8A C7A 1_555 1_555
C8A O3A 1_555 1_555
H9A C8A 1_555 1_555
H10A C8A 1_555 1_555
C9A C8A 1_555 1_555
H11A C9A 1_555 1_555
H12A C9A 1_555 1_555
C10A C9A 1_555 1_555
H13A C10A 1_555 1_555
H14A C10A 1_555 1_555
C11A O4A 1_555 1_555
C12A C11A 1_555 1_555
H15A C12A 1_555 1_555
C13A C12A 1_555 1_555
H16A C13A 1_555 1_555
C14A C13A 1_555 1_555
C15A C14A 1_555 1_555
H17A C15A 1_555 1_555
C16A C11A 1_555 1_555
H18A C16A 1_555 1_555
C17A O6A 1_555 1_555
O7C Ni1 1_555 1_555
H1C O7C 1_555 1_555
H2C O7C 1_555 1_555
Ni1_2 N2 1_555 1_555
Ni1A O1A 1_555 1_555
Ni2F N4 1_555 1_555
O1C Ni1 1_555 1_555
N2_2 Ni1 1_555 1_555
N4F Ni2 1_555 1_555
C6 C7 1_555 1_555
C15 C16 1_555 1_555
C24C C25C 1_555 1_555
C28C C29C 1_555 1_555
C18A C19A 1_555 1_555
C22A C23A 1_555 1_555
C6A C7A 1_555 1_555
C14A C17A 1_555 1_555
C15A C16A 1_555 1_555

#END
