
#######################################################################
#
#                 Cambridge Crystallographic Data Centre
#                                CCDC 
#
#######################################################################
#
# If this CIF has been generated from an entry in the Cambridge 
# Structural Database, then it will include bibliographic, chemical, 
# crystal, experimental, refinement or atomic coordinate data resulting 
# from the CCDC's data processing and validation procedures.
#
#######################################################################

data_LODDOZ
_symmetry_cell_setting           tetragonal
_symmetry_space_group_name_H-M   'P 4/n'
_symmetry_Int_Tables_number      85
_space_group_name_Hall           '-P 4a'
loop_
_symmetry_equiv_pos_site_id
_symmetry_equiv_pos_as_xyz
1 x,y,z
2 1/2-x,1/2-y,z
3 1/2-y,x,z
4 y,1/2-x,z
5 -x,-y,-z
6 1/2+x,1/2+y,-z
7 1/2+y,-x,-z
8 -y,1/2+x,-z
_cell_length_a                   11.0387(2)
_cell_length_b                   11.0387(2)
_cell_length_c                   6.6318(5)
_cell_angle_alpha                90
_cell_angle_beta                 90
_cell_angle_gamma                90
_cell_volume                     808.104
loop_
_atom_site_label
_atom_site_type_symbol
_atom_site_fract_x
_atom_site_fract_y
_atom_site_fract_z
Cd1 Cd 0.2500 0.2500 0.3164(2)
Br1 Br 0.2500 0.2500 0.7303(4)
N1 N -0.1393(6) 0.2246(6) 0.1358(11)
N2 N 0.0458(6) 0.2252(7) 0.2598(12)
C1 C -0.1353(8) 0.1439(8) 0.2943(14)
H1 H -0.1996 0.0975 0.3422
C2 C -0.0219(7) 0.1444(7) 0.3668(14)
H2 H 0.0061 0.0971 0.4731
B1 B -0.2500 0.2500 0.0000
C3 C -0.0269(7) 0.2707(7) 0.1257(15)
H3 H -0.0035 0.3291 0.0324
N1A N -0.3607(6) 0.2754(6) 0.1358(11)
N2A N -0.5458(6) 0.2748(7) 0.2598(12)
C1A C -0.3647(8) 0.3561(8) 0.2943(14)
H1A H -0.3004 0.4025 0.3422
C2A C -0.4781(7) 0.3556(7) 0.3668(14)
H2A H -0.5061 0.4029 0.4731
C3A C -0.4731(7) 0.2293(7) 0.1257(15)
H3A H -0.4965 0.1709 0.0324
N1F N -0.2754(6) 0.1393(6) -0.1358(11)
N2F N -0.2748(7) -0.0458(6) -0.2598(12)
C1F C -0.3561(8) 0.1353(8) -0.2943(14)
H1F H -0.4025 0.1996 -0.3422
C2F C -0.3556(7) 0.0219(7) -0.3668(14)
H2F H -0.4029 -0.0061 -0.4731
C3F C -0.2293(7) 0.0269(7) -0.1257(15)
H3F H -0.1709 0.0035 -0.0324
N1G N -0.2246(6) 0.3607(6) -0.1358(11)
N2G N -0.2252(7) 0.5458(6) -0.2598(12)
C1G C -0.1439(8) 0.3647(8) -0.2943(14)
H1G H -0.0975 0.3004 -0.3422
C2G C -0.1444(7) 0.4781(7) -0.3668(14)
H2G H -0.0971 0.5061 -0.4731
C3G C -0.2707(7) 0.4731(7) -0.1257(15)
H3G H -0.3291 0.4965 -0.0324
Cd1_2 Cd -0.7500 0.2500 0.3164(2)
Cd1D Cd -0.2500 -0.2500 -0.3164(2)
Cd1D_2 Cd -0.2500 0.7500 -0.3164(2)
N2A_2 N 0.4542(6) 0.2748(7) 0.2598(12)
N2B N 0.2748(7) 0.0458(6) 0.2598(12)
N2C N 0.2252(7) 0.4542(6) 0.2598(12)
loop_
_geom_bond_atom_site_label_1
_geom_bond_atom_site_label_2
_geom_bond_site_symmetry_1
_geom_bond_site_symmetry_2
Cd1 Br1 1_555 1_555
N1 C1 1_555 1_555
N2 Cd1 1_555 1_555
C1 H1 1_555 1_555
C2 N2 1_555 1_555
H2 C2 1_555 1_555
B1 N1 1_555 1_555
C3 N1 1_555 1_555
H3 C3 1_555 1_555
N1A B1 1_555 1_555
N2A C2A 1_555 1_555
C1A N1A 1_555 1_555
H1A C1A 1_555 1_555
C2A C1A 1_555 1_555
H2A C2A 1_555 1_555
C3A N1A 1_555 1_555
H3A C3A 1_555 1_555
N1F B1 1_555 1_555
N2F C2F 1_555 1_555
C1F N1F 1_555 1_555
H1F C1F 1_555 1_555
C2F C1F 1_555 1_555
H2F C2F 1_555 1_555
C3F N1F 1_555 1_555
H3F C3F 1_555 1_555
N1G B1 1_555 1_555
N2G C2G 1_555 1_555
C1G N1G 1_555 1_555
H1G C1G 1_555 1_555
C2G C1G 1_555 1_555
H2G C2G 1_555 1_555
C3G N1G 1_555 1_555
H3G C3G 1_555 1_555
Cd1_2 N2A 1_555 1_555
Cd1D N2F 1_555 1_555
Cd1D_2 N2G 1_555 1_555
N2A_2 Cd1 1_555 1_555
N2B Cd1 1_555 1_555
N2C Cd1 1_555 1_555
N2 C3 1_555 1_555
C1 C2 1_555 1_555
N2A C3A 1_555 1_555
N2F C3F 1_555 1_555
N2G C3G 1_555 1_555

#END
