
#######################################################################
#
#                 Cambridge Crystallographic Data Centre
#                                CCDC 
#
#######################################################################
#
# If this CIF has been generated from an entry in the Cambridge 
# Structural Database, then it will include bibliographic, chemical, 
# crystal, experimental, refinement or atomic coordinate data resulting 
# from the CCDC's data processing and validation procedures.
#
#######################################################################

data_LODHET
_symmetry_cell_setting           monoclinic
_symmetry_space_group_name_H-M   'P 21/c'
_symmetry_Int_Tables_number      14
_space_group_name_Hall           '-P 2ybc'
loop_
_symmetry_equiv_pos_site_id
_symmetry_equiv_pos_as_xyz
1 x,y,z
2 -x,1/2+y,1/2-z
3 -x,-y,-z
4 x,1/2-y,1/2+z
_cell_length_a                   11.3975(8)
_cell_length_b                   5.7560(4)
_cell_length_c                   15.4086(10)
_cell_angle_alpha                90
_cell_angle_beta                 94.012(7)
_cell_angle_gamma                90
_cell_volume                     1008.39
loop_
_atom_site_label
_atom_site_type_symbol
_atom_site_fract_x
_atom_site_fract_y
_atom_site_fract_z
C1 C 0.2749(22) 0.1588(45) 0.4454(15)
C2 C 0.3905(23) 0.2865(58) 0.4406(30)
Ca1 Ca 0.0887(11) 0.7361(35) 0.4476(76)
K1 K 0.1278(12) 0.7872(26) 0.1955(8)
O1 O 0.134(3) 0.4923(59) 0.5554(29)
O2 O 0.1299(24) 0.0217(32) 0.5522(31)
O3 O 0.0805(18) 0.0607(40) 0.3522(27)
O4 O 0.1065(18) 0.4782(29) 0.3309(13)
O5 O 0.2777(21) 0.2858(82) 0.6290(12)
O6 O 0.2701(32) 0.1876(71) 0.2799(22)
O7 O 0.3027(37) -0.0865(29) 0.4441(23)
O8 O 0.3830(31) 0.7187(73) 0.1714(20)
P1 P 0.1728(10) 0.2519(24) 0.3481(11)
P2 P 0.1928(10) 0.2509(27) 0.5458(7)
Ca1_2 Ca 0.0887(11) -0.2639(35) 0.4476(76)
Ca1B Ca -0.0887(11) 0.2639(35) 0.5524(76)
K1_2 K 0.1278(12) -0.2128(26) 0.1955(8)
K1A K -0.1278(12) 0.2872(26) 0.3045(8)
K1C K 0.1278(12) -0.2872(26) 0.6955(8)
K1C_2 K 0.1278(12) 0.7128(26) 0.6955(8)
O1B O -0.134(3) 0.5077(59) 0.4446(29)
O1C O 0.134(3) 1.0077(59) 0.0554(29)
O2_2 O 0.1299(24) 1.0217(32) 0.5522(31)
O2B O -0.1299(24) 0.9783(32) 0.4478(31)
O2C O 0.1299(24) 0.4783(32) 0.0522(31)
O3_2 O 0.0805(18) 1.0607(40) 0.3522(27)
O3A O -0.0805(18) 0.5607(40) 0.1478(27)
O4A O -0.1065(18) 0.9782(29) 0.1691(13)
O5C O 0.2777(21) 1.2142(82) 0.1290(12)
O6_2 O 0.2701(32) 1.1876(71) 0.2799(22)
O7_2 O 0.3027(37) 0.9135(29) 0.4441(23)
O9 O 0.4808(30) 0.6771(69) 0.3554(18)
loop_
_geom_bond_atom_site_label_1
_geom_bond_atom_site_label_2
_geom_bond_site_symmetry_1
_geom_bond_site_symmetry_2
C1 C2 1_555 1_555
Ca1 O1 1_555 1_555
K1 O4 1_555 1_555
O1 P2 1_555 1_555
O2 P2 1_555 1_555
O3 P1 1_555 1_555
O4 Ca1 1_555 1_555
O5 P2 1_555 1_555
O6 P1 1_555 1_555
O7 C1 1_555 1_555
O8 K1 1_555 1_555
P1 C1 1_555 1_555
P2 C1 1_555 1_555
Ca1_2 O2 1_555 1_555
Ca1B O1 1_555 1_555
K1_2 O3 1_555 1_555
K1A O3 1_555 1_555
K1C O2 1_555 1_555
K1C_2 O1 1_555 1_555
O1B Ca1 1_555 1_555
O1C K1 1_555 1_555
O2_2 Ca1 1_555 1_555
O2B Ca1 1_555 1_555
O2C K1 1_555 1_555
O3_2 Ca1 1_555 1_555
O3A K1 1_555 1_555
O4A K1 1_555 1_555
O5C K1 1_555 1_555
O6_2 K1 1_555 1_555
O7_2 Ca1 1_555 1_555
K1 O3_2 1_555 1_555
O2 Ca1B 1_555 1_555
O3 Ca1_2 1_555 1_555
O4 P1 1_555 1_555
O4 K1A 1_555 1_555
O5 K1C_2 1_555 1_555
O6 K1_2 1_555 1_555
O7 Ca1_2 1_555 1_555
Ca1B O1B 1_555 1_555
K1A O1B 1_555 1_555
K1A O3A 1_555 1_555
K1C_2 O2_2 1_555 1_555

#END
