
#######################################################################
#
#                 Cambridge Crystallographic Data Centre
#                                CCDC 
#
#######################################################################
#
# If this CIF has been generated from an entry in the Cambridge 
# Structural Database, then it will include bibliographic, chemical, 
# crystal, experimental, refinement or atomic coordinate data resulting 
# from the CCDC's data processing and validation procedures.
#
#######################################################################

data_LODHAP
_symmetry_cell_setting           triclinic
_symmetry_space_group_name_H-M   'P -1'
_symmetry_Int_Tables_number      2
_space_group_name_Hall           '-P 1'
loop_
_symmetry_equiv_pos_site_id
_symmetry_equiv_pos_as_xyz
1 x,y,z
2 -x,-y,-z
_cell_length_a                   5.7626(2)
_cell_length_b                   9.6720(5)
_cell_length_c                   10.8216(4)
_cell_angle_alpha                76.150(3)
_cell_angle_beta                 87.995(4)
_cell_angle_gamma                72.813(4)
_cell_volume                     559.049
loop_
_atom_site_label
_atom_site_type_symbol
_atom_site_fract_x
_atom_site_fract_y
_atom_site_fract_z
C1 C 0.6500(56) 0.783(2) 0.2424(16)
C2 C 0.7361(51) 0.9216(24) 0.1755(32)
Ca1 Ca 0.3244(18) 0.5532(13) 0.3338(8)
O1 O 0.5507(49) 0.8871(35) 0.4491(26)
O2 O 0.5976(21) 0.6174(14) 0.4494(25)
O3 O 0.9939(31) 0.7052(36) 0.4198(27)
O4 O 0.6769(56) 0.7158(39) -0.0067(26)
O5 O 0.6854(57) 0.4826(39) 0.2056(27)
O6 O 1.0563(54) 0.5904(40) 0.1618(28)
O7 O 0.3657(50) 0.8105(39) 0.2228(25)
O8 O 0.3335(50) 0.3059(36) 0.2674(24)
P1 P 0.7264(12) 0.7333(7) 0.4097(8)
P2 P 0.7787(23) 0.6261(12) 0.1547(12)
Ca1_2 Ca 1.3244(18) 0.5532(13) 0.3338(8)
Ca1A Ca 0.6756(18) 0.4468(13) 0.6662(8)
O2A O 0.4024(21) 0.3826(14) 0.5506(25)
O3_2 O -0.0061(31) 0.7052(36) 0.4198(27)
O6_2 O 0.0563(54) 0.5904(40) 0.1618(28)
O9 O 0.8945(45) -0.0885(38) 0.7702(27)
O10 O 0.2648(51) 0.7188(36) -0.0510(27)
O11 O 1.0000 1.0000 0.5000
loop_
_geom_bond_atom_site_label_1
_geom_bond_atom_site_label_2
_geom_bond_site_symmetry_1
_geom_bond_site_symmetry_2
C1 C2 1_555 1_555
Ca1 O2 1_555 1_555
O1 P1 1_555 1_555
O2 P1 1_555 1_555
O3 P1 1_555 1_555
O4 P2 1_555 1_555
O5 Ca1 1_555 1_555
O6 P2 1_555 1_555
O7 C1 1_555 1_555
O8 Ca1 1_555 1_555
P1 C1 1_555 1_555
P2 C1 1_555 1_555
Ca1_2 O3 1_555 1_555
Ca1A O2 1_555 1_555
O2A Ca1 1_555 1_555
O3_2 Ca1 1_555 1_555
O6_2 Ca1 1_555 1_555
Ca1 O7 1_555 1_555
O5 P2 1_555 1_555
O6 Ca1_2 1_555 1_555
Ca1A O2A 1_555 1_555

#END
