
#######################################################################
#
#                 Cambridge Crystallographic Data Centre
#                                CCDC 
#
#######################################################################
#
# If this CIF has been generated from an entry in the Cambridge 
# Structural Database, then it will include bibliographic, chemical, 
# crystal, experimental, refinement or atomic coordinate data resulting 
# from the CCDC's data processing and validation procedures.
#
#######################################################################

data_LODKAS
_symmetry_cell_setting           orthorhombic
_symmetry_space_group_name_H-M   'P c c n'
_symmetry_Int_Tables_number      56
_space_group_name_Hall           '-P 2ab 2ac'
loop_
_symmetry_equiv_pos_site_id
_symmetry_equiv_pos_as_xyz
1 x,y,z
2 1/2-x,1/2-y,z
3 1/2+x,-y,1/2-z
4 -x,1/2+y,1/2-z
5 -x,-y,-z
6 1/2+x,1/2+y,-z
7 1/2-x,y,1/2+z
8 x,1/2-y,1/2+z
_cell_length_a                   45.787(15)
_cell_length_b                   16.599(5)
_cell_length_c                   17.858(6)
_cell_angle_alpha                90
_cell_angle_beta                 90
_cell_angle_gamma                90
_cell_volume                     13572.4
loop_
_atom_site_label
_atom_site_type_symbol
_atom_site_fract_x
_atom_site_fract_y
_atom_site_fract_z
O1 O 0.3373(3) 0.7214(9) 0.4281(11)
Cd1 Cd 0.279777(14) 0.60004(4) 0.06356(6)
Cd2 Cd 0.449766(14) 1.39359(4) 0.21245(5)
O2 O 0.29066(12) 0.7167(3) 0.1222(4)
O3 O 0.32643(13) 0.6839(4) 0.0447(4)
O4 O 0.2760(2) 0.8541(5) 0.0228(8)
O5 O 0.26414(15) 0.9216(4) 0.1247(7)
O6 O 0.41619(15) 1.3124(4) 0.1495(4)
O7 O 0.43295(15) 1.2661(4) 0.2575(5)
O8 O 0.51178(13) 0.9116(4) 0.2080(4)
O9 O 0.50078(15) 0.8373(4) 0.3086(4)
C1 C 0.32902(16) 0.8107(5) 0.1089(5)
C2 C 0.31343(16) 0.8830(5) 0.1067(5)
C3 C 0.32751(17) 0.9543(5) 0.1260(6)
H1 H 0.3168 1.0033 0.1239
C4 C 0.35643(16) 0.9569(5) 0.1481(5)
C5 C 0.37209(16) 0.8841(5) 0.1535(5)
C6 C 0.35818(16) 0.8130(5) 0.1333(6)
H2 H 0.3688 0.7639 0.1362
C7 C 0.31422(18) 0.7307(5) 0.0906(6)
C8 C 0.2818(2) 0.8856(6) 0.0820(10)
C9 C 0.37066(16) 1.0377(5) 0.1666(6)
C10 C 0.3687(2) 1.0981(5) 0.1130(6)
H3 H 0.3573 1.0902 0.0691
C11 C 0.3837(2) 1.1712(6) 0.1242(6)
H4 H 0.3823 1.2129 0.0879
C12 C 0.40029(19) 1.1825(6) 0.1870(7)
C13 C 0.4019(2) 1.1210(6) 0.2410(6)
H5 H 0.4133 1.1279 0.2850
C14 C 0.38647(19) 1.0491(5) 0.2288(6)
H6 H 0.3872 1.0077 0.2654
C15 C 0.4176(2) 1.2576(6) 0.1984(8)
C16 C 0.40381(17) 0.8794(5) 0.1781(6)
C17 C 0.42504(18) 0.9239(7) 0.1406(6)
H7 H 0.4197 0.9575 0.0998
C18 C 0.45378(19) 0.9192(7) 0.1628(7)
H8 H 0.4683 0.9483 0.1361
C19 C 0.46172(18) 0.8726(5) 0.2235(6)
C20 C 0.4405(2) 0.8296(5) 0.2623(7)
H9 H 0.4457 0.7983 0.3047
C21 C 0.41172(19) 0.8327(5) 0.2388(6)
H10 H 0.3973 0.8023 0.2646
C22 C 0.4937(2) 0.8724(6) 0.2498(7)
N1 N 0.30174(14) 0.5121(4) 0.1458(7)
N2 N 0.32893(16) 0.4185(4) 0.2045(7)
N3 N 0.27267(16) 0.0345(4) 0.3477(6)
N4 N 0.27437(15) -0.0185(4) 0.4610(6)
C23 C 0.31877(18) 0.4471(5) 0.1353(8)
C24 C 0.30052(19) 0.5262(5) 0.2240(8)
C25 C 0.3176(2) 0.4681(6) 0.2610(10)
C26 C 0.3216(2) 0.4670(7) 0.3372(10)
H11 H 0.3329 0.4269 0.3616
C27 C 0.3077(2) 0.5292(6) 0.3762(8)
H12 H 0.3107 0.5320 0.4288
C28 C 0.2900(2) 0.5870(7) 0.3436(10)
H13 H 0.2803 0.6261 0.3735
C29 C 0.2868(2) 0.5866(6) 0.2660(10)
H14 H 0.2754 0.6268 0.2418
C30 C 0.34616(18) 0.3459(5) 0.2184(7)
H15 H 0.3589 0.3550 0.2624
H16 H 0.3589 0.3356 0.1746
C31 C 0.32711(18) 0.2716(5) 0.2326(7)
C32 C 0.30084(19) 0.2574(5) 0.1962(7)
H17 H 0.2934 0.2966 0.1625
C33 C 0.28518(19) 0.1868(5) 0.2082(7)
H18 H 0.2674 0.1784 0.1821
C34 C 0.2949(2) 0.1287(5) 0.2572(7)
C35 C 0.3210(2) 0.1434(5) 0.2968(6)
H19 H 0.3280 0.1052 0.3320
C36 C 0.33646(19) 0.2151(5) 0.2836(7)
H20 H 0.3539 0.2248 0.3107
C37 C 0.2783(2) 0.0510(6) 0.2676(7)
H21 H 0.2595 0.0542 0.2405
H22 H 0.2897 0.0060 0.2459
C38 C 0.28393(19) -0.0253(5) 0.3938(8)
C39 C 0.25432(19) 0.0810(5) 0.3915(7)
C40 C 0.2376(2) 0.1486(5) 0.3735(7)
H23 H 0.2375 0.1716 0.3248
C41 C 0.2212(2) 0.1795(5) 0.4317(8)
H24 H 0.2087 0.2240 0.4217
C42 C 0.22186(19) 0.1481(5) 0.5056(7)
H25 H 0.2107 0.1727 0.5441
C43 C 0.23909(18) 0.0809(5) 0.5212(7)
H26 H 0.2395 0.0580 0.5700
C44 C 0.25575(17) 0.0480(5) 0.4629(7)
C45 C 0.3264(2) 0.4107(6) 0.0623(8)
H27 H 0.3087 0.4113 0.0303
H28 H 0.3317 0.3536 0.0709
C46 C 0.3504(3) 0.4495(10) 0.0206(11)
H29 H 0.3473 0.5079 0.0197
H30 H 0.3507 0.4288 -0.0308
H31 H 0.3690 0.4374 0.0452
C47 C 0.3048(2) -0.0891(5) 0.3652(8)
H32 H 0.3148 -0.1143 0.4085
H33 H 0.3200 -0.0627 0.3342
C48 C 0.2898(3) -0.1563(6) 0.3179(11)
H34 H 0.2750 -0.1833 0.3484
H35 H 0.3045 -0.1957 0.3019
H36 H 0.2806 -0.1322 0.2738
N5 N 0.41780(18) 1.4655(5) 0.2833(5)
N6 N 0.39955(18) 1.5441(5) 0.3753(6)
N7 N 0.4708(2) 1.9082(7) 0.5515(9)
N8 N 0.45754(18) 2.0158(5) 0.6187(7)
C49 C 0.4169(2) 1.4806(6) 0.3589(9)
C50 C 0.3989(2) 1.5228(6) 0.2550(8)
C51 C 0.3875(2) 1.5716(7) 0.3092(8)
C52 C 0.3672(2) 1.6340(7) 0.2982(9)
H37 H 0.3604 1.6671 0.3379
C53 C 0.3581(3) 1.6434(8) 0.2251(10)
H38 H 0.3439 1.6831 0.2133
C54 C 0.3698(3) 1.5937(8) 0.1667(10)
H39 H 0.3633 1.6024 0.1169
C55 C 0.3898(2) 1.5351(7) 0.1793(7)
H40 H 0.3974 1.5035 0.1395
C56 C 0.3952(3) 1.5863(8) 0.4466(8)
H41 H 0.3963 1.5467 0.4880
H42 H 0.3754 1.6101 0.4471
C57 C 0.4179(3) 1.6538(6) 0.4607(7)
C58 C 0.4084(3) 1.7243(7) 0.4930(8)
H43 H 0.3881 1.7335 0.4999
C59 C 0.4286(3) 1.7821(8) 0.5157(9)
H44 H 0.4222 1.8299 0.5398
C60 C 0.4574(3) 1.7703(7) 0.5034(8)
C61 C 0.4662(3) 1.7018(7) 0.4658(8)
H45 H 0.4864 1.6939 0.4555
C62 C 0.4466(3) 1.6454(7) 0.4433(8)
H46 H 0.4529 1.5999 0.4153
C63 C 0.4812(3) 1.8272(9) 0.5316(12)
H47 H 0.4905 1.8029 0.5763
H48 H 0.4964 1.8323 0.4924
C64 C 0.4684(3) 1.9418(8) 0.6236(9)
C65 C 0.4534(2) 2.0322(8) 0.5422(9)
C66 C 0.4617(3) 1.9622(9) 0.5042(10)
C67 C 0.4601(3) 1.9587(10) 0.4244(11)
H49 H 0.4654 1.9115 0.3975
C68 C 0.4507(6) 2.0253(12) 0.3893(10)
H50 H 0.4488 2.0256 0.3364
C69 C 0.4436(5) 2.0964(10) 0.4317(11)
H51 H 0.4384 2.1437 0.4048
C70 C 0.4438(4) 2.1000(9) 0.5060(10)
H52 H 0.4376 2.1467 0.5325
C71 C 0.4327(4) 1.4317(9) 0.4156(9)
H53 H 0.4340 1.4627 0.4628
H54 H 0.4528 1.4214 0.3977
C72 C 0.4177(4) 1.3510(9) 0.4313(9)
H55 H 0.3979 1.3608 0.4500
H56 H 0.4289 1.3213 0.4691
H57 H 0.4167 1.3194 0.3851
C73 C 0.4709(5) 1.8875(13) 0.6954(9)
H58 H 0.4571 1.9095 0.7329
H59 H 0.4636 1.8333 0.6816
C74 C 0.4993(6) 1.8762(18) 0.7334(17)
H60 H 0.5034 1.8186 0.7388
H61 H 0.4988 1.9016 0.7829
H62 H 0.5146 1.9013 0.7030
O10 O 0.2676(2) 0.7145(7) -0.0407(8)
Cd1G Cd 0.279777(14) -0.10004(4) 0.56356(6)
Cd1A Cd 0.220223(14) 0.89996(4) 0.06356(6)
Cd2G Cd 0.449766(14) 2.10641(4) 0.71245(5)
Cd2C Cd 0.550234(14) 0.89359(4) 0.28755(5)
O4A O 0.2240(2) 0.6459(5) 0.0228(8)
O5A O 0.23586(15) 0.5784(4) 0.1247(7)
O8C O 0.48822(13) 1.4116(4) 0.2920(4)
O9C O 0.49922(15) 1.3373(4) 0.1914(4)
N4G N 0.27437(15) 0.5185(4) -0.0390(6)
N8G N 0.45754(18) 1.4842(5) 0.1187(7)
loop_
_geom_bond_atom_site_label_1
_geom_bond_atom_site_label_2
_geom_bond_site_symmetry_1
_geom_bond_site_symmetry_2
Cd1 O2 1_555 1_555
Cd2 O6 1_555 1_555
O2 C7 1_555 1_555
O3 Cd1 1_555 1_555
O4 C8 1_555 1_555
O5 C8 1_555 1_555
O6 C15 1_555 1_555
O7 Cd2 1_555 1_555
O8 C22 1_555 1_555
O9 C22 1_555 1_555
C1 C2 1_555 1_555
C2 C3 1_555 1_555
C3 H1 1_555 1_555
C4 C3 1_555 1_555
C5 C4 1_555 1_555
C6 C1 1_555 1_555
H2 C6 1_555 1_555
C7 O3 1_555 1_555
C8 C2 1_555 1_555
C9 C4 1_555 1_555
C10 C9 1_555 1_555
H3 C10 1_555 1_555
C11 C10 1_555 1_555
H4 C11 1_555 1_555
C12 C11 1_555 1_555
C13 C12 1_555 1_555
H5 C13 1_555 1_555
C14 C9 1_555 1_555
H6 C14 1_555 1_555
C15 O7 1_555 1_555
C16 C5 1_555 1_555
C17 C16 1_555 1_555
H7 C17 1_555 1_555
C18 C17 1_555 1_555
H8 C18 1_555 1_555
C19 C18 1_555 1_555
C20 C19 1_555 1_555
H9 C20 1_555 1_555
C21 C16 1_555 1_555
H10 C21 1_555 1_555
C22 C19 1_555 1_555
N1 Cd1 1_555 1_555
N2 C23 1_555 1_555
N3 C37 1_555 1_555
N4 C38 1_555 1_555
C23 N1 1_555 1_555
C24 N1 1_555 1_555
C25 N2 1_555 1_555
C26 C25 1_555 1_555
H11 C26 1_555 1_555
C27 C26 1_555 1_555
H12 C27 1_555 1_555
C28 C27 1_555 1_555
H13 C28 1_555 1_555
C29 C24 1_555 1_555
H14 C29 1_555 1_555
C30 N2 1_555 1_555
H15 C30 1_555 1_555
H16 C30 1_555 1_555
C31 C30 1_555 1_555
C32 C31 1_555 1_555
H17 C32 1_555 1_555
C33 C32 1_555 1_555
H18 C33 1_555 1_555
C34 C33 1_555 1_555
C35 C34 1_555 1_555
H19 C35 1_555 1_555
C36 C31 1_555 1_555
H20 C36 1_555 1_555
C37 C34 1_555 1_555
H21 C37 1_555 1_555
H22 C37 1_555 1_555
C38 N3 1_555 1_555
C39 N3 1_555 1_555
C40 C39 1_555 1_555
H23 C40 1_555 1_555
C41 C40 1_555 1_555
H24 C41 1_555 1_555
C42 C41 1_555 1_555
H25 C42 1_555 1_555
C43 C42 1_555 1_555
H26 C43 1_555 1_555
C44 N4 1_555 1_555
C45 C23 1_555 1_555
H27 C45 1_555 1_555
H28 C45 1_555 1_555
C46 C45 1_555 1_555
H29 C46 1_555 1_555
H30 C46 1_555 1_555
H31 C46 1_555 1_555
C47 C38 1_555 1_555
H32 C47 1_555 1_555
H33 C47 1_555 1_555
C48 C47 1_555 1_555
H34 C48 1_555 1_555
H35 C48 1_555 1_555
H36 C48 1_555 1_555
N5 Cd2 1_555 1_555
N6 C49 1_555 1_555
N7 C63 1_555 1_555
N8 C64 1_555 1_555
C49 N5 1_555 1_555
C50 N5 1_555 1_555
C51 N6 1_555 1_555
C52 C51 1_555 1_555
H37 C52 1_555 1_555
C53 C52 1_555 1_555
H38 C53 1_555 1_555
C54 C53 1_555 1_555
H39 C54 1_555 1_555
C55 C50 1_555 1_555
H40 C55 1_555 1_555
C56 N6 1_555 1_555
H41 C56 1_555 1_555
H42 C56 1_555 1_555
C57 C56 1_555 1_555
C58 C57 1_555 1_555
H43 C58 1_555 1_555
C59 C58 1_555 1_555
H44 C59 1_555 1_555
C60 C59 1_555 1_555
C61 C60 1_555 1_555
H45 C61 1_555 1_555
C62 C57 1_555 1_555
H46 C62 1_555 1_555
C63 C60 1_555 1_555
H47 C63 1_555 1_555
H48 C63 1_555 1_555
C64 N7 1_555 1_555
C65 N8 1_555 1_555
C66 N7 1_555 1_555
C67 C66 1_555 1_555
H49 C67 1_555 1_555
C68 C67 1_555 1_555
H50 C68 1_555 1_555
C69 C68 1_555 1_555
H51 C69 1_555 1_555
C70 C65 1_555 1_555
H52 C70 1_555 1_555
C71 C49 1_555 1_555
H53 C71 1_555 1_555
H54 C71 1_555 1_555
C72 C71 1_555 1_555
H55 C72 1_555 1_555
H56 C72 1_555 1_555
H57 C72 1_555 1_555
C73 C64 1_555 1_555
H58 C73 1_555 1_555
H59 C73 1_555 1_555
C74 C73 1_555 1_555
H60 C74 1_555 1_555
H61 C74 1_555 1_555
H62 C74 1_555 1_555
O10 Cd1 1_555 1_555
Cd1G N4 1_555 1_555
Cd1A O4 1_555 1_555
Cd2G N8 1_555 1_555
Cd2C O8 1_555 1_555
O4A Cd1 1_555 1_555
O5A Cd1 1_555 1_555
O8C Cd2 1_555 1_555
O9C Cd2 1_555 1_555
N4G Cd1 1_555 1_555
N8G Cd2 1_555 1_555
O5 Cd1A 1_555 1_555
O9 Cd2C 1_555 1_555
C1 C7 1_555 1_555
C5 C6 1_555 1_555
C12 C15 1_555 1_555
C13 C14 1_555 1_555
C20 C21 1_555 1_555
C24 C25 1_555 1_555
C28 C29 1_555 1_555
C35 C36 1_555 1_555
C39 C44 1_555 1_555
C43 C44 1_555 1_555
C50 C51 1_555 1_555
C54 C55 1_555 1_555
C61 C62 1_555 1_555
C65 C66 1_555 1_555
C69 C70 1_555 1_555

#END
