
#######################################################################
#
#                 Cambridge Crystallographic Data Centre
#                                CCDC 
#
#######################################################################
#
# If this CIF has been generated from an entry in the Cambridge 
# Structural Database, then it will include bibliographic, chemical, 
# crystal, experimental, refinement or atomic coordinate data resulting 
# from the CCDC's data processing and validation procedures.
#
#######################################################################

data_LODKIA
_symmetry_cell_setting           monoclinic
_symmetry_space_group_name_H-M   'C 2/c'
_symmetry_Int_Tables_number      15
_space_group_name_Hall           '-C 2yn'
loop_
_symmetry_equiv_pos_site_id
_symmetry_equiv_pos_as_xyz
1 x,y,z
2 -x,y,1/2-z
3 1/2+x,1/2+y,z
4 1/2-x,1/2+y,1/2-z
5 -x,-y,-z
6 x,-y,1/2+z
7 1/2-x,1/2-y,-z
8 1/2+x,1/2-y,1/2+z
_cell_length_a                   29.426(6)
_cell_length_b                   9.1549(18)
_cell_length_c                   27.559(6)
_cell_angle_alpha                90
_cell_angle_beta                 115.50(3)
_cell_angle_gamma                90
_cell_volume                     6700.95
loop_
_atom_site_label
_atom_site_type_symbol
_atom_site_fract_x
_atom_site_fract_y
_atom_site_fract_z
O1 O 0.9833(4) 0.288(3) 0.7923(10)
H1 H 0.9702 0.3611 0.7720
H2 H 0.9630 0.2163 0.7819
O2 O 0.0313(4) 0.4852(9) 0.5806(6)
H3 H 0.0166 0.5087 0.5476
H4 H 0.0107 0.4920 0.5947
Cd1 Cd 0.935790(16) 0.91098(5) 0.495029(17)
Cd2 Cd 0.88640(2) 1.24361(5) 0.53389(2)
O3 O 0.8927(2) 0.7765(6) 0.5485(2)
O4 O 0.92203(18) 1.0007(5) 0.56687(19)
O5 O 0.99808(17) 0.7871(5) 0.94323(18)
O6 O 0.97949(16) 1.0234(5) 0.94126(17)
O7 O 0.63102(18) 0.6293(6) 0.57752(19)
O8 O 0.6153(2) 0.8673(7) 0.5710(2)
O9 O 0.90943(16) 0.8385(5) 0.97049(16)
O10 O 0.83810(19) 0.7182(6) 0.92753(19)
O11 O 0.9723(2) 1.2729(7) 0.5901(2)
H5 H 0.9837 1.1946 0.6078
H6 H 0.9762 1.3430 0.6118
O12 O 0.8895(3) 1.4888(6) 0.5188(2)
H7 H 0.9169 1.5243 0.5426
H8 H 0.8645 1.5318 0.5207
C1 C 0.8970(3) 0.8857(7) 0.6289(3)
C2 C 0.8700(3) 0.7760(8) 0.6383(3)
H9 H 0.8558 0.7026 0.6129
C3 C 0.8635(3) 0.7735(8) 0.6851(3)
H10 H 0.8448 0.6988 0.6905
C4 C 0.8843(2) 0.8791(7) 0.7237(2)
C5 C 0.9117(3) 0.9889(8) 0.7144(3)
H11 H 0.9264 1.0608 0.7404
C6 C 0.9180(3) 0.9945(8) 0.6676(3)
H12 H 0.9361 1.0706 0.6619
C7 C 0.9040(2) 0.8863(7) 0.5782(3)
C8 C 0.8792(2) 0.8669(7) 0.7755(2)
C9 C 0.8346(2) 0.8230(7) 0.7775(2)
C10 C 0.8349(2) 0.7954(7) 0.8269(2)
H13 H 0.8056 0.7609 0.8279
C11 C 0.8773(2) 0.8168(7) 0.8753(2)
C12 C 0.9214(2) 0.8672(7) 0.8732(2)
C13 C 0.9212(2) 0.8893(7) 0.8231(2)
H14 H 0.9507 0.9206 0.8217
C14 C 0.8740(2) 0.7877(7) 0.9271(2)
C15 C 0.9689(2) 0.8939(7) 0.9232(2)
C16 C 0.7858(2) 0.8065(7) 0.7290(2)
C17 C 0.7609(3) 0.6750(8) 0.7175(3)
H15 H 0.7753 0.5947 0.7394
C18 C 0.7141(3) 0.6602(8) 0.6734(3)
H16 H 0.6980 0.5700 0.6659
C19 C 0.6915(2) 0.7787(7) 0.6406(3)
C20 C 0.7161(3) 0.9129(8) 0.6528(3)
H17 H 0.7010 0.9946 0.6321
C21 C 0.7636(2) 0.9250(7) 0.6965(3)
H18 H 0.7804 1.0141 0.7036
C22 C 0.6424(3) 0.7595(8) 0.5931(3)
C23 C 0.7933(3) 1.0170(9) 0.4698(3)
H19 H 0.8091 1.0113 0.4470
C24 C 0.7517(3) 0.9305(10) 0.4594(4)
H20 H 0.7399 0.8663 0.4304
C25 C 0.7281(3) 0.9413(10) 0.4925(4)
H21 H 0.6997 0.8854 0.4860
C26 C 0.7467(3) 1.0345(10) 0.5348(4)
H22 H 0.7312 1.0418 0.5578
C27 C 0.7886(3) 1.1187(8) 0.5438(3)
C28 C 0.8133(3) 1.2186(8) 0.5911(3)
C29 C 0.7932(4) 1.2420(10) 0.6284(4)
H23 H 0.7622 1.2020 0.6223
C30 C 0.8185(5) 1.3213(11) 0.6723(4)
H24 H 0.8055 1.3345 0.6974
C31 C 0.8631(4) 1.3829(10) 0.6807(4)
H25 H 0.8813 1.4370 0.7117
C32 C 0.8813(4) 1.3637(10) 0.6419(4)
H26 H 0.9116 1.4070 0.6469
N1 N 0.8117(2) 1.1087(7) 0.5117(2)
N2 N 0.8560(3) 1.2839(7) 0.5975(3)
Cd1A Cd 1.064210(16) 0.91098(5) 1.004971(17)
Cd1E Cd 0.935790(16) 1.08902(5) 0.995029(17)
Cd1F Cd 0.564210(16) 0.58902(5) 0.504971(17)
Cd2E Cd 0.88640(2) 0.75639(5) 1.03389(2)
O5A O 1.00192(17) 0.7871(5) 0.55677(18)
O6A O 1.02051(16) 1.0234(5) 0.55874(17)
O6E O 0.97949(16) 0.9766(5) 0.44126(17)
O7F O 0.86898(18) 0.8707(6) 0.42248(19)
O9E O 0.90943(16) 1.1615(5) 0.47049(16)
O10E O 0.83810(19) 1.2818(6) 0.42753(19)
loop_
_geom_bond_atom_site_label_1
_geom_bond_atom_site_label_2
_geom_bond_site_symmetry_1
_geom_bond_site_symmetry_2
O1 H1 1_555 1_555
H2 O1 1_555 1_555
O2 H3 1_555 1_555
H4 O2 1_555 1_555
Cd1 O3 1_555 1_555
Cd2 O4 1_555 1_555
O3 C7 1_555 1_555
O4 Cd1 1_555 1_555
O5 C15 1_555 1_555
O6 C15 1_555 1_555
O7 C22 1_555 1_555
O8 C22 1_555 1_555
O9 C14 1_555 1_555
O10 C14 1_555 1_555
O11 Cd2 1_555 1_555
H5 O11 1_555 1_555
H6 O11 1_555 1_555
O12 Cd2 1_555 1_555
H7 O12 1_555 1_555
H8 O12 1_555 1_555
C1 C2 1_555 1_555
C2 H9 1_555 1_555
C3 C2 1_555 1_555
H10 C3 1_555 1_555
C4 C3 1_555 1_555
C5 C4 1_555 1_555
H11 C5 1_555 1_555
C6 C1 1_555 1_555
H12 C6 1_555 1_555
C7 O4 1_555 1_555
C8 C4 1_555 1_555
C9 C8 1_555 1_555
C10 C9 1_555 1_555
H13 C10 1_555 1_555
C11 C10 1_555 1_555
C12 C11 1_555 1_555
C13 C8 1_555 1_555
H14 C13 1_555 1_555
C14 C11 1_555 1_555
C15 C12 1_555 1_555
C16 C9 1_555 1_555
C17 C16 1_555 1_555
H15 C17 1_555 1_555
C18 C17 1_555 1_555
H16 C18 1_555 1_555
C19 C18 1_555 1_555
C20 C19 1_555 1_555
H17 C20 1_555 1_555
C21 C16 1_555 1_555
H18 C21 1_555 1_555
C22 C19 1_555 1_555
C23 H19 1_555 1_555
C24 C23 1_555 1_555
H20 C24 1_555 1_555
C25 C24 1_555 1_555
H21 C25 1_555 1_555
C26 C25 1_555 1_555
H22 C26 1_555 1_555
C27 C26 1_555 1_555
C28 C27 1_555 1_555
C29 C28 1_555 1_555
H23 C29 1_555 1_555
C30 C29 1_555 1_555
H24 C30 1_555 1_555
C31 C30 1_555 1_555
H25 C31 1_555 1_555
C32 C31 1_555 1_555
H26 C32 1_555 1_555
N1 Cd2 1_555 1_555
N2 Cd2 1_555 1_555
Cd1A O5 1_555 1_555
Cd1E O6 1_555 1_555
Cd1F O7 1_555 1_555
Cd2E O9 1_555 1_555
O5A Cd1 1_555 1_555
O6A Cd1 1_555 1_555
O6E Cd1 1_555 1_555
O7F Cd1 1_555 1_555
O9E Cd1 1_555 1_555
O10E Cd2 1_555 1_555
Cd2 O9E 1_555 1_555
O6 Cd1A 1_555 1_555
O9 Cd1E 1_555 1_555
O10 Cd2E 1_555 1_555
C1 C7 1_555 1_555
C5 C6 1_555 1_555
C12 C13 1_555 1_555
C20 C21 1_555 1_555
C23 N1 1_555 1_555
C27 N1 1_555 1_555
C28 N2 1_555 1_555
C32 N2 1_555 1_555

#END
