
#######################################################################
#
#                 Cambridge Crystallographic Data Centre
#                                CCDC 
#
#######################################################################
#
# If this CIF has been generated from an entry in the Cambridge 
# Structural Database, then it will include bibliographic, chemical, 
# crystal, experimental, refinement or atomic coordinate data resulting 
# from the CCDC's data processing and validation procedures.
#
#######################################################################

data_LODKEW
_symmetry_cell_setting           triclinic
_symmetry_space_group_name_H-M   'P -1'
_symmetry_Int_Tables_number      2
_space_group_name_Hall           '-P 1'
loop_
_symmetry_equiv_pos_site_id
_symmetry_equiv_pos_as_xyz
1 x,y,z
2 -x,-y,-z
_cell_length_a                   10.933(2)
_cell_length_b                   14.321(3)
_cell_length_c                   14.435(3)
_cell_angle_alpha                67.19(3)
_cell_angle_beta                 83.40(3)
_cell_angle_gamma                71.99(3)
_cell_volume                     1981.25
loop_
_atom_site_label
_atom_site_type_symbol
_atom_site_fract_x
_atom_site_fract_y
_atom_site_fract_z
Cd1 Cd 0.43518(3) -0.03004(3) 0.33594(3)
Cd2 Cd 0.06763(3) 0.12728(3) 0.30568(3)
O1 O 0.2729(3) 0.1318(2) 0.3146(3)
O2 O 0.4587(3) 0.1270(3) 0.3594(3)
O3 O 0.3639(4) 0.1122(3) 0.5645(3)
O4 O 0.4772(4) 0.2110(3) 0.5712(3)
O5 O 0.2586(4) 0.9347(3) 0.2987(3)
O6 O 0.0624(4) 0.9568(3) 0.3613(3)
O7 O -0.0266(4) 0.8466(3) -0.1428(3)
O8 O -0.0741(4) 0.7156(3) -0.1563(3)
O9 O 0.3393(4) -0.0570(4) 0.5039(3)
H1 H 0.2667 -0.0109 0.4987
H2 H 0.3890 -0.0506 0.5408
O10 O 0.0927(4) 0.0999(4) 0.4759(3)
H3 H 0.0403 0.0661 0.5151
H4 H 0.0745 0.1611 0.4820
C1 C 0.2824(4) 0.2732(3) 0.3625(3)
C2 C 0.2076(4) 0.3585(3) 0.2853(4)
H5 H 0.1808 0.3468 0.2329
C3 C 0.1718(4) 0.4617(4) 0.2846(4)
C4 C 0.2128(5) 0.4780(4) 0.3642(4)
C5 C 0.2835(5) 0.3907(4) 0.4435(4)
H6 H 0.3086 0.4014 0.4971
C6 C 0.3172(5) 0.2885(3) 0.4440(3)
C7 C 0.3408(4) 0.1704(3) 0.3472(3)
C8 C 0.3903(5) 0.1975(4) 0.5327(4)
C9 C 0.1938(5) 0.5852(3) 0.3657(4)
C10 C 0.0747(5) 0.6577(4) 0.3597(4)
H7 H 0.0005 0.6395 0.3584
C11 C 0.0657(5) 0.7583(4) 0.3558(4)
H8 H -0.0150 0.8059 0.3542
C12 C 0.1738(5) 0.7885(3) 0.3544(4)
C13 C 0.2928(5) 0.7157(4) 0.3642(4)
H9 H 0.3666 0.7343 0.3657
C14 C 0.3021(5) 0.6141(4) 0.3717(4)
H10 H 0.3825 0.5642 0.3811
C15 C 0.1658(5) 0.9009(4) 0.3387(4)
C16 C 0.1044(5) 0.5477(4) 0.1920(4)
C17 C 0.1403(5) 0.6392(4) 0.1413(4)
H11 H 0.1993 0.6545 0.1706
C18 C 0.0892(5) 0.7083(4) 0.0472(4)
H12 H 0.1126 0.7704 0.0152
C19 C 0.0047(5) 0.6865(4) 0.0007(4)
C20 C -0.0352(5) 0.5969(4) 0.0532(4)
H13 H -0.0956 0.5827 0.0243
C21 C 0.0125(5) 0.5294(4) 0.1462(4)
H14 H -0.0164 0.4702 0.1799
C22 C -0.0358(5) 0.7543(4) -0.1056(4)
C23 C 0.6929(6) -0.1806(4) 0.2224(5)
H15 H 0.7515 -0.1798 0.2666
H16 H 0.7394 -0.2203 0.1825
H17 H 0.6293 -0.2130 0.2615
C24 C 0.6286(5) -0.0705(4) 0.1556(4)
C25 C 0.5880(5) 0.0788(4) 0.0236(4)
C26 C 0.5862(6) 0.1602(5) -0.0699(4)
H18 H 0.6452 0.1515 -0.1199
C27 C 0.4937(7) 0.2523(5) -0.0833(5)
H19 H 0.4905 0.3092 -0.1438
C28 C 0.4023(6) 0.2654(5) -0.0096(5)
H20 H 0.3390 0.3299 -0.0233
C29 C 0.4034(5) 0.1856(4) 0.0825(4)
H21 H 0.3432 0.1948 0.1316
C30 C 0.4986(5) 0.0907(4) 0.0985(4)
C31 C 0.7754(5) -0.0679(4) 0.0053(4)
H22 H 0.7480 -0.0482 -0.0630
H23 H 0.8006 -0.1445 0.0364
C32 C 0.8897(5) -0.0296(4) 0.0025(4)
C33 C 0.9332(5) 0.0313(5) -0.0857(4)
H24 H 0.8883 0.0527 -0.1449
C34 C 0.9595(5) -0.0613(5) 0.0890(4)
H25 H 0.9327 -0.1036 0.1500
C35 C -0.6013(5) 0.4771(5) 0.0587(5)
H26 H -0.6713 0.4617 0.0981
C36 C -0.4788(5) 0.4198(4) 0.0956(4)
C37 C -0.3772(5) 0.4435(5) 0.0351(5)
H27 H -0.2934 0.4056 0.0578
C38 C -0.4615(5) 0.3301(5) 0.1965(5)
H28 H -0.5308 0.3493 0.2401
H29 H -0.4690 0.2683 0.1878
C39 C -0.2395(6) 0.1237(5) 0.2352(5)
H30 H -0.1598 0.0686 0.2556
H31 H -0.2491 0.1488 0.1636
H32 H -0.3097 0.0963 0.2675
C40 C -0.2394(5) 0.2133(4) 0.2649(4)
C41 C -0.3070(5) 0.3654(4) 0.2854(4)
C42 C -0.1842(5) 0.3099(4) 0.3276(4)
C43 C -0.1245(6) 0.3534(4) 0.3717(4)
H33 H -0.0430 0.3168 0.4001
C44 C -0.1869(7) 0.4521(5) 0.3734(4)
H34 H -0.1472 0.4826 0.4027
C45 C -0.3100(7) 0.5069(5) 0.3312(5)
H35 H -0.3506 0.5735 0.3331
C46 C -0.3724(6) 0.4648(5) 0.2870(5)
H36 H -0.4544 0.5011 0.2595
N1 N 0.5281(4) -0.0036(3) 0.1817(3)
N2 N 0.6671(4) -0.0243(3) 0.0608(3)
N3 N -0.1454(4) 0.2138(3) 0.3141(3)
N4 N -0.3386(4) 0.3016(4) 0.2468(3)
C23A C 1.3071(6) 0.1806(4) -0.2224(5)
H15A H 1.2485 0.1798 -0.2666
H16A H 1.2606 0.2203 -0.1825
H17A H 1.3707 0.2130 -0.2615
C24A C 1.3714(5) 0.0705(4) -0.1556(4)
C25A C 1.4120(5) -0.0788(4) -0.0236(4)
C26A C 1.4138(6) -0.1602(5) 0.0699(4)
H18A H 1.3548 -0.1515 0.1199
C27A C 1.5063(7) -0.2523(5) 0.0833(5)
H19A H 1.5095 -0.3092 0.1438
C28A C 1.5977(6) -0.2654(5) 0.0096(5)
H20A H 1.6610 -0.3299 0.0233
C29A C 1.5966(5) -0.1856(4) -0.0825(4)
H21A H 1.6568 -0.1948 -0.1316
C30A C 1.5014(5) -0.0907(4) -0.0985(4)
C31A C 1.2246(5) 0.0679(4) -0.0053(4)
H22A H 1.2520 0.0482 0.0630
H23A H 1.1994 0.1445 -0.0364
C32A C 1.1103(5) 0.0296(4) -0.0025(4)
C33A C 1.0668(5) -0.0313(5) 0.0857(4)
H24A H 1.1117 -0.0527 0.1449
C34A C 1.0405(5) 0.0613(5) -0.0890(4)
H25A H 1.0673 0.1036 -0.1500
N1A N 1.4719(4) 0.0036(3) -0.1817(3)
N2A N 1.3329(4) 0.0243(3) -0.0608(3)
C35A C -0.3987(5) 0.5229(5) -0.0587(5)
H26A H -0.3287 0.5383 -0.0981
C36A C -0.5212(5) 0.5802(4) -0.0956(4)
C37A C -0.6228(5) 0.5565(5) -0.0351(5)
H27A H -0.7066 0.5944 -0.0578
C38A C -0.5385(5) 0.6699(5) -0.1965(5)
H28A H -0.4692 0.6507 -0.2401
H29A H -0.5310 0.7317 -0.1878
C39A C -0.7605(6) 0.8763(5) -0.2352(5)
H30A H -0.8402 0.9314 -0.2556
H31A H -0.7509 0.8512 -0.1636
H32A H -0.6903 0.9037 -0.2675
C40A C -0.7606(5) 0.7867(4) -0.2649(4)
C41A C -0.6930(5) 0.6346(4) -0.2854(4)
C42A C -0.8158(5) 0.6901(4) -0.3276(4)
C43A C -0.8755(6) 0.6466(4) -0.3717(4)
H33A H -0.9570 0.6832 -0.4001
C44A C -0.8131(7) 0.5479(5) -0.3734(4)
H34A H -0.8528 0.5174 -0.4027
C45A C -0.6900(7) 0.4931(5) -0.3312(5)
H35A H -0.6494 0.4265 -0.3331
C46A C -0.6276(6) 0.5352(5) -0.2870(5)
H36A H -0.5456 0.4989 -0.2595
N3A N -0.8546(4) 0.7862(3) -0.3141(3)
N4A N -0.6614(4) 0.6984(4) -0.2468(3)
Cd1A Cd -1.43518(3) 1.03004(3) -0.33594(3)
Cd2A Cd -1.06763(3) 0.87272(3) -0.30568(3)
O1A O -1.2729(3) 0.8682(2) -0.3146(3)
O2A O -1.4587(3) 0.8730(3) -0.3594(3)
O3A O -1.3639(4) 0.8878(3) -0.5645(3)
O4A O -1.4772(4) 0.7890(3) -0.5712(3)
O5A O -1.2586(4) 0.0653(3) -0.2987(3)
O6A O -1.0624(4) 0.0432(3) -0.3613(3)
O7A O -0.9734(4) 0.1534(3) 0.1428(3)
O8A O -0.9259(4) 0.2844(3) 0.1563(3)
O9A O -1.3393(4) 1.0570(4) -0.5039(3)
H1A H -1.2667 1.0109 -0.4987
H2A H -1.3890 1.0506 -0.5408
O10A O -1.0927(4) 0.9001(4) -0.4759(3)
H3A H -1.0403 0.9339 -0.5151
H4A H -1.0745 0.8389 -0.4820
C1A C -1.2824(4) 0.7268(3) -0.3625(3)
C2A C -1.2076(4) 0.6415(3) -0.2853(4)
H5A H -1.1808 0.6532 -0.2329
C3A C -1.1718(4) 0.5383(4) -0.2846(4)
C4A C -1.2128(5) 0.5220(4) -0.3642(4)
C5A C -1.2835(5) 0.6093(4) -0.4435(4)
H6A H -1.3086 0.5986 -0.4971
C6A C -1.3172(5) 0.7115(3) -0.4440(3)
C7A C -1.3408(4) 0.8296(3) -0.3472(3)
C8A C -1.3903(5) 0.8025(4) -0.5327(4)
C9A C -1.1938(5) 0.4148(3) -0.3657(4)
C10A C -1.0747(5) 0.3423(4) -0.3597(4)
H7A H -1.0005 0.3605 -0.3584
C11A C -1.0657(5) 0.2417(4) -0.3558(4)
H8A H -0.9850 0.1941 -0.3542
C12A C -1.1738(5) 0.2115(3) -0.3544(4)
C13A C -1.2928(5) 0.2843(4) -0.3642(4)
H9A H -1.3666 0.2657 -0.3657
C14A C -1.3021(5) 0.3859(4) -0.3717(4)
H10A H -1.3825 0.4358 -0.3811
C15A C -1.1658(5) 0.0991(4) -0.3387(4)
C16A C -1.1044(5) 0.4523(4) -0.1920(4)
C17A C -1.1403(5) 0.3608(4) -0.1413(4)
H11A H -1.1993 0.3455 -0.1706
C18A C -1.0892(5) 0.2917(4) -0.0472(4)
H12A H -1.1126 0.2296 -0.0152
C19A C -1.0047(5) 0.3135(4) -0.0007(4)
C20A C -0.9648(5) 0.4031(4) -0.0532(4)
H13A H -0.9044 0.4173 -0.0243
C21A C -1.0125(5) 0.4706(4) -0.1462(4)
H14A H -0.9836 0.5298 -0.1799
C22A C -0.9642(5) 0.2457(4) 0.1056(4)
Cd1_2 Cd -1.56482(3) 0.96996(3) -0.66406(3)
Cd1_3 Cd 0.43518(3) 0.96996(3) 0.33594(3)
Cd1A_2 Cd -1.43518(3) 0.03004(3) -0.33594(3)
Cd1A_3 Cd 0.56482(3) 0.03004(3) 0.66406(3)
Cd1A_4 Cd 1.56482(3) 0.03004(3) -0.33594(3)
Cd2_2 Cd -0.93237(3) 0.12728(3) 0.30568(3)
Cd2_3 Cd 0.06763(3) 1.12728(3) 0.30568(3)
Cd2A_2 Cd -1.06763(3) -0.12728(3) -0.30568(3)
Cd2A_3 Cd -0.06763(3) 0.87272(3) -0.30568(3)
O3_2 O -1.6361(4) 1.1122(3) -0.4355(3)
O3A_2 O 0.6361(4) -0.1122(3) 0.4355(3)
O4_2 O -1.5228(4) 1.2110(3) -0.4288(3)
O4A_2 O 0.5228(4) -0.2110(3) 0.4288(3)
O5_2 O 0.2586(4) -0.0653(3) 0.2987(3)
O5A_2 O -1.2586(4) 1.0653(3) -0.2987(3)
O6_2 O 0.0624(4) -0.0432(3) 0.3613(3)
O6A_2 O -1.0624(4) 1.0432(3) -0.3613(3)
O7_2 O -1.0266(4) 0.8466(3) -0.1428(3)
O7A_2 O 0.0266(4) 0.1534(3) 0.1428(3)
O8_2 O -1.0741(4) 0.7156(3) -0.1563(3)
O8A_2 O 0.0741(4) 0.2844(3) 0.1563(3)
N1A_2 N -1.5281(4) 1.0036(3) -0.1817(3)
loop_
_geom_bond_atom_site_label_1
_geom_bond_atom_site_label_2
_geom_bond_site_symmetry_1
_geom_bond_site_symmetry_2
Cd1 O1 1_555 1_555
Cd2 O1 1_555 1_555
O1 C7 1_555 1_555
O2 Cd1 1_555 1_555
O3 C8 1_555 1_555
O4 C8 1_555 1_555
O5 C15 1_555 1_555
O6 C15 1_555 1_555
O7 C22 1_555 1_555
O8 C22 1_555 1_555
O9 Cd1 1_555 1_555
H1 O9 1_555 1_555
H2 O9 1_555 1_555
O10 Cd2 1_555 1_555
H3 O10 1_555 1_555
H4 O10 1_555 1_555
C1 C2 1_555 1_555
C2 H5 1_555 1_555
C3 C2 1_555 1_555
C4 C3 1_555 1_555
C5 C4 1_555 1_555
H6 C5 1_555 1_555
C6 C1 1_555 1_555
C7 O2 1_555 1_555
C8 C6 1_555 1_555
C9 C4 1_555 1_555
C10 C9 1_555 1_555
H7 C10 1_555 1_555
C11 C10 1_555 1_555
H8 C11 1_555 1_555
C12 C11 1_555 1_555
C13 C12 1_555 1_555
H9 C13 1_555 1_555
C14 C9 1_555 1_555
H10 C14 1_555 1_555
C15 C12 1_555 1_555
C16 C3 1_555 1_555
C17 C16 1_555 1_555
H11 C17 1_555 1_555
C18 C17 1_555 1_555
H12 C18 1_555 1_555
C19 C18 1_555 1_555
C20 C19 1_555 1_555
H13 C20 1_555 1_555
C21 C16 1_555 1_555
H14 C21 1_555 1_555
C22 C19 1_555 1_555
C23 H15 1_555 1_555
H16 C23 1_555 1_555
H17 C23 1_555 1_555
C24 C23 1_555 1_555
C25 C26 1_555 1_555
C26 H18 1_555 1_555
C27 C26 1_555 1_555
H19 C27 1_555 1_555
C28 C27 1_555 1_555
H20 C28 1_555 1_555
C29 C28 1_555 1_555
H21 C29 1_555 1_555
C30 C25 1_555 1_555
C31 H22 1_555 1_555
H23 C31 1_555 1_555
C32 C31 1_555 1_555
C33 C32 1_555 1_555
H24 C33 1_555 1_555
C34 C32 1_555 1_555
H25 C34 1_555 1_555
C35 H26 1_555 1_555
C36 C35 1_555 1_555
C37 C36 1_555 1_555
H27 C37 1_555 1_555
C38 C36 1_555 1_555
H28 C38 1_555 1_555
H29 C38 1_555 1_555
C39 H30 1_555 1_555
H31 C39 1_555 1_555
H32 C39 1_555 1_555
C40 C39 1_555 1_555
C41 C42 1_555 1_555
C42 C43 1_555 1_555
C43 H33 1_555 1_555
C44 C43 1_555 1_555
H34 C44 1_555 1_555
C45 C44 1_555 1_555
H35 C45 1_555 1_555
C46 C41 1_555 1_555
H36 C46 1_555 1_555
N1 Cd1 1_555 1_555
N2 C24 1_555 1_555
N3 Cd2 1_555 1_555
N4 C38 1_555 1_555
C23A H15A 1_555 1_555
H16A C23A 1_555 1_555
H17A C23A 1_555 1_555
C24A C23A 1_555 1_555
C25A C26A 1_555 1_555
C26A H18A 1_555 1_555
C27A C26A 1_555 1_555
H19A C27A 1_555 1_555
C28A C27A 1_555 1_555
H20A C28A 1_555 1_555
C29A C28A 1_555 1_555
H21A C29A 1_555 1_555
C30A C25A 1_555 1_555
C31A H22A 1_555 1_555
H23A C31A 1_555 1_555
C32A C31A 1_555 1_555
C33A C34 1_555 1_555
H24A C33A 1_555 1_555
C34A C33 1_555 1_555
H25A C34A 1_555 1_555
N1A C24A 1_555 1_555
N2A C24A 1_555 1_555
C35A C37 1_555 1_555
H26A C35A 1_555 1_555
C36A C35A 1_555 1_555
C37A C35 1_555 1_555
H27A C37A 1_555 1_555
C38A C36A 1_555 1_555
H28A C38A 1_555 1_555
H29A C38A 1_555 1_555
C39A H30A 1_555 1_555
H31A C39A 1_555 1_555
H32A C39A 1_555 1_555
C40A C39A 1_555 1_555
C41A C42A 1_555 1_555
C42A C43A 1_555 1_555
C43A H33A 1_555 1_555
C44A C43A 1_555 1_555
H34A C44A 1_555 1_555
C45A C44A 1_555 1_555
H35A C45A 1_555 1_555
C46A C41A 1_555 1_555
H36A C46A 1_555 1_555
N3A C40A 1_555 1_555
N4A C38A 1_555 1_555
Cd1A O1A 1_555 1_555
Cd2A N3A 1_555 1_555
O1A Cd2A 1_555 1_555
O2A Cd1A 1_555 1_555
O3A C8A 1_555 1_555
O4A C8A 1_555 1_555
O5A C15A 1_555 1_555
O6A C15A 1_555 1_555
O7A C22A 1_555 1_555
O8A C22A 1_555 1_555
O9A Cd1A 1_555 1_555
H1A O9A 1_555 1_555
H2A O9A 1_555 1_555
O10A Cd2A 1_555 1_555
H3A O10A 1_555 1_555
H4A O10A 1_555 1_555
C1A C2A 1_555 1_555
C2A H5A 1_555 1_555
C3A C2A 1_555 1_555
C4A C3A 1_555 1_555
C5A C4A 1_555 1_555
H6A C5A 1_555 1_555
C6A C1A 1_555 1_555
C7A O1A 1_555 1_555
C8A C6A 1_555 1_555
C9A C4A 1_555 1_555
C10A C9A 1_555 1_555
H7A C10A 1_555 1_555
C11A C10A 1_555 1_555
H8A C11A 1_555 1_555
C12A C11A 1_555 1_555
C13A C12A 1_555 1_555
H9A C13A 1_555 1_555
C14A C9A 1_555 1_555
H10A C14A 1_555 1_555
C15A C12A 1_555 1_555
C16A C3A 1_555 1_555
C17A C16A 1_555 1_555
H11A C17A 1_555 1_555
C18A C17A 1_555 1_555
H12A C18A 1_555 1_555
C19A C18A 1_555 1_555
C20A C19A 1_555 1_555
H13A C20A 1_555 1_555
C21A C16A 1_555 1_555
H14A C21A 1_555 1_555
C22A C19A 1_555 1_555
Cd1_2 O3A 1_555 1_555
Cd1_3 O5 1_555 1_555
Cd1A_2 O5A 1_555 1_555
Cd1A_3 O3 1_555 1_555
Cd1A_4 N1A 1_555 1_555
Cd2_2 O7A 1_555 1_555
Cd2_3 O6 1_555 1_555
Cd2A_2 O6A 1_555 1_555
Cd2A_3 O7 1_555 1_555
O3_2 Cd1A 1_555 1_555
O3A_2 Cd1 1_555 1_555
O4_2 Cd1A 1_555 1_555
O4A_2 Cd1 1_555 1_555
O5_2 Cd1 1_555 1_555
O5A_2 Cd1A 1_555 1_555
O6_2 Cd2 1_555 1_555
O6A_2 Cd2A 1_555 1_555
O7_2 Cd2A 1_555 1_555
O7A_2 Cd2 1_555 1_555
O8_2 Cd2A 1_555 1_555
O8A_2 Cd2 1_555 1_555
N1A_2 Cd1A 1_555 1_555
O4 Cd1A_3 1_555 1_555
O8 Cd2A_3 1_555 1_555
C1 C7 1_555 1_555
C5 C6 1_555 1_555
C13 C14 1_555 1_555
C20 C21 1_555 1_555
C24 N1 1_555 1_555
C25 N2 1_555 1_555
C29 C30 1_555 1_555
C30 N1 1_555 1_555
C31 N2 1_555 1_555
C40 N3 1_555 1_555
C40 N4 1_555 1_555
C41 N4 1_555 1_555
C42 N3 1_555 1_555
C45 C46 1_555 1_555
C25A N2A 1_555 1_555
C29A C30A 1_555 1_555
C30A N1A 1_555 1_555
C31A N2A 1_555 1_555
C32A C33A 1_555 1_555
C32A C34A 1_555 1_555
C36A C37A 1_555 1_555
C40A N4A 1_555 1_555
C41A N4A 1_555 1_555
C42A N3A 1_555 1_555
C45A C46A 1_555 1_555
O2A C7A 1_555 1_555
O4A Cd1_2 1_555 1_555
O8A Cd2_2 1_555 1_555
C1A C7A 1_555 1_555
C5A C6A 1_555 1_555
C13A C14A 1_555 1_555
C20A C21A 1_555 1_555

#END
