
#######################################################################
#
#                 Cambridge Crystallographic Data Centre
#                                CCDC 
#
#######################################################################
#
# If this CIF has been generated from an entry in the Cambridge 
# Structural Database, then it will include bibliographic, chemical, 
# crystal, experimental, refinement or atomic coordinate data resulting 
# from the CCDC's data processing and validation procedures.
#
#######################################################################

data_LODNUP
_symmetry_cell_setting           monoclinic
_symmetry_space_group_name_H-M   'P 21/c'
_symmetry_Int_Tables_number      14
_space_group_name_Hall           '-P 2ybc'
loop_
_symmetry_equiv_pos_site_id
_symmetry_equiv_pos_as_xyz
1 x,y,z
2 -x,1/2+y,1/2-z
3 -x,-y,-z
4 x,1/2-y,1/2+z
_cell_length_a                   8.9470(9)
_cell_length_b                   24.276(2)
_cell_length_c                   12.5320(11)
_cell_angle_alpha                90
_cell_angle_beta                 90.1250(10)
_cell_angle_gamma                90
_cell_volume                     2721.91
loop_
_atom_site_label
_atom_site_type_symbol
_atom_site_fract_x
_atom_site_fract_y
_atom_site_fract_z
Co1 Co 0.68204(6) 0.62444(2) 0.47115(4)
N1 N 0.2369(5) 0.45291(16) 1.0555(3)
N2 N 0.1496(5) 0.45894(17) 1.1442(3)
N3 N 0.1632(4) 0.53848(15) 1.0544(3)
H1 H 0.1494 0.5724 1.0376
N4 N -0.1794(4) 0.58503(16) 1.3683(3)
N5 N 0.1863(4) 0.79876(15) -0.0872(3)
N6 N 0.0974(4) 0.79330(16) -0.1756(3)
N7 N 0.1494(4) 0.71045(15) -0.1046(3)
H2 H 0.1499 0.6754 -0.0953
N8 N -0.1866(4) 0.66459(16) -0.4226(3)
O1 O 0.5397(3) 0.58950(14) 0.5681(2)
O2 O 0.6815(4) 0.51627(15) 0.5940(3)
O3 O 0.5518(4) 0.65927(16) 0.3696(3)
O4 O 0.6525(5) 0.74246(18) 0.3655(3)
C1 C 0.5757(5) 0.54543(19) 0.6189(3)
C2 C 0.4836(5) 0.53304(18) 0.7164(3)
C3 C 0.3894(5) 0.57234(19) 0.7610(4)
H3 H 0.3780 0.6062 0.7275
C4 C 0.3131(5) 0.56197(19) 0.8537(4)
H4 H 0.2520 0.5890 0.8827
C5 C 0.3265(5) 0.51111(18) 0.9047(3)
C6 C 0.4194(6) 0.47185(19) 0.8595(4)
H5 H 0.4294 0.4376 0.8919
C7 C 0.4974(6) 0.48298(19) 0.7669(4)
H6 H 0.5601 0.4562 0.7384
C8 C 0.2433(5) 0.50115(18) 1.0029(3)
C9 C 0.1081(5) 0.51090(19) 1.1395(3)
C10 C -0.1332(6) 0.5337(2) 1.3802(4)
H7 H -0.1652 0.5139 1.4395
C11 C -0.0391(6) 0.5081(2) 1.3078(4)
H8 H -0.0089 0.4719 1.3191
C12 C 0.0100(5) 0.53635(19) 1.2189(3)
C13 C -0.0389(6) 0.5894(2) 1.2064(4)
H9 H -0.0084 0.6100 1.1477
C14 C -0.1339(6) 0.6123(2) 1.2813(4)
H10 H -0.1675 0.6481 1.2708
C15 C 0.5676(5) 0.7070(2) 0.3299(4)
C16 C 0.4746(5) 0.71778(19) 0.2317(3)
C17 C 0.4718(5) 0.7699(2) 0.1876(4)
H11 H 0.5272 0.7981 0.2186
C18 C 0.3867(5) 0.78020(19) 0.0973(4)
H12 H 0.3833 0.8156 0.0691
C19 C 0.3071(5) 0.73852(18) 0.0490(3)
C20 C 0.3108(5) 0.68627(19) 0.0924(4)
H13 H 0.2576 0.6578 0.0605
C21 C 0.3937(5) 0.6766(2) 0.1836(4)
H14 H 0.3948 0.6414 0.2130
C22 C 0.2168(5) 0.74866(18) -0.0464(3)
C23 C 0.0795(5) 0.73948(19) -0.1822(3)
C24 C -0.1455(5) 0.7170(2) -0.4308(4)
H15 H -0.1759 0.7370 -0.4903
C25 C -0.0593(5) 0.7430(2) -0.3541(4)
H16 H -0.0339 0.7800 -0.3618
C26 C -0.0110(5) 0.71367(19) -0.2656(3)
C27 C -0.0527(6) 0.6594(2) -0.2576(4)
H17 H -0.0219 0.6383 -0.1997
C28 C -0.1402(6) 0.6368(2) -0.3359(4)
H18 H -0.1691 0.6002 -0.3288
Co1_2 Co -0.31796(6) 0.62444(2) -0.52885(4)
Co1_3 Co -0.31796(6) 0.62444(2) 1.47115(4)
N4_2 N 0.8206(4) 0.58503(16) 0.3683(3)
N8_2 N 0.8134(4) 0.66459(16) 0.5774(3)
O5 O 0.2441(5) 0.90667(15) 0.9766(3)
H19 H 0.3267 0.9008 1.0083
H20 H 0.2472 0.9388 0.9499
O6 O 0.6497(6) 0.8448(2) 0.4749(4)
H21 H 0.6635 0.8186 0.4308
H22 H 0.6923 0.8736 0.4514
loop_
_geom_bond_atom_site_label_1
_geom_bond_atom_site_label_2
_geom_bond_site_symmetry_1
_geom_bond_site_symmetry_2
Co1 O1 1_555 1_555
N1 N2 1_555 1_555
N2 C9 1_555 1_555
N3 H1 1_555 1_555
N4 C10 1_555 1_555
N5 N6 1_555 1_555
N6 C23 1_555 1_555
N7 H2 1_555 1_555
N8 C24 1_555 1_555
O1 C1 1_555 1_555
O2 C1 1_555 1_555
O3 Co1 1_555 1_555
O4 C15 1_555 1_555
C1 C2 1_555 1_555
C2 C3 1_555 1_555
C3 H3 1_555 1_555
C4 C3 1_555 1_555
H4 C4 1_555 1_555
C5 C4 1_555 1_555
C6 C5 1_555 1_555
H5 C6 1_555 1_555
C7 C2 1_555 1_555
H6 C7 1_555 1_555
C8 N1 1_555 1_555
C9 N3 1_555 1_555
C10 H7 1_555 1_555
C11 C10 1_555 1_555
H8 C11 1_555 1_555
C12 C9 1_555 1_555
C13 C12 1_555 1_555
H9 C13 1_555 1_555
C14 N4 1_555 1_555
H10 C14 1_555 1_555
C15 O3 1_555 1_555
C16 C15 1_555 1_555
C17 C16 1_555 1_555
H11 C17 1_555 1_555
C18 C17 1_555 1_555
H12 C18 1_555 1_555
C19 C18 1_555 1_555
C20 C19 1_555 1_555
H13 C20 1_555 1_555
C21 C16 1_555 1_555
H14 C21 1_555 1_555
C22 N5 1_555 1_555
C23 N7 1_555 1_555
C24 H15 1_555 1_555
C25 C24 1_555 1_555
H16 C25 1_555 1_555
C26 C23 1_555 1_555
C27 C26 1_555 1_555
H17 C27 1_555 1_555
C28 N8 1_555 1_555
H18 C28 1_555 1_555
O5 H19 1_555 1_555
H20 O5 1_555 1_555
O6 H21 1_555 1_555
H22 O6 1_555 1_555
Co1_2 N8 1_555 1_555
Co1_3 N4 1_555 1_555
N4_2 Co1 1_555 1_555
N8_2 Co1 1_555 1_555
N3 C8 1_555 1_555
N7 C22 1_555 1_555
C5 C8 1_555 1_555
C6 C7 1_555 1_555
C11 C12 1_555 1_555
C13 C14 1_555 1_555
C19 C22 1_555 1_555
C20 C21 1_555 1_555
C25 C26 1_555 1_555
C27 C28 1_555 1_555

#END
