
#######################################################################
#
#                 Cambridge Crystallographic Data Centre
#                                CCDC 
#
#######################################################################
#
# If this CIF has been generated from an entry in the Cambridge 
# Structural Database, then it will include bibliographic, chemical, 
# crystal, experimental, refinement or atomic coordinate data resulting 
# from the CCDC's data processing and validation procedures.
#
#######################################################################

data_LODNOJ
_symmetry_cell_setting           monoclinic
_symmetry_space_group_name_H-M   'P 21/c'
_symmetry_Int_Tables_number      14
_space_group_name_Hall           '-P 2ybc'
loop_
_symmetry_equiv_pos_site_id
_symmetry_equiv_pos_as_xyz
1 x,y,z
2 -x,1/2+y,1/2-z
3 -x,-y,-z
4 x,1/2-y,1/2+z
_cell_length_a                   8.9676(8)
_cell_length_b                   24.598(2)
_cell_length_c                   12.6341(11)
_cell_angle_alpha                90
_cell_angle_beta                 90.1140(10)
_cell_angle_gamma                90
_cell_volume                     2786.89
loop_
_atom_site_label
_atom_site_type_symbol
_atom_site_fract_x
_atom_site_fract_y
_atom_site_fract_z
Zn1 Zn 0.31749(7) 0.37552(3) 0.47291(5)
N1 N 0.7642(6) 0.5477(2) 1.0562(4)
N2 N 0.8522(6) 0.5418(2) 1.1445(4)
N3 N 0.8366(5) 0.46237(19) 1.0561(3)
H1 H 0.8498 0.4288 1.0398
N4 N 1.1795(5) 0.41564(19) 1.3712(3)
N5 N 0.8138(5) 0.20077(19) -0.0852(3)
N6 N 0.9015(6) 0.20665(19) -0.1733(4)
N7 N 0.8506(5) 0.28848(19) -0.1034(4)
H2 H 0.8502 0.3231 -0.0946
N8 N 1.1860(5) 0.33456(19) -0.4213(3)
O1 O 0.4592(4) 0.41147(16) 0.5699(3)
O2 O 0.3187(5) 0.48478(18) 0.5943(3)
O3 O 0.4476(5) 0.34056(18) 0.3707(3)
O4 O 0.3480(5) 0.2579(2) 0.3680(3)
C1 C 0.4239(7) 0.4553(2) 0.6198(4)
C2 C 0.5161(6) 0.4673(2) 0.7172(4)
C3 C 0.5040(7) 0.5175(2) 0.7672(4)
H3 H 0.4426 0.5441 0.7381
C4 C 0.5824(7) 0.5286(2) 0.8600(4)
H4 H 0.5732 0.5626 0.8916
C5 C 0.6747(6) 0.4895(2) 0.9065(4)
C6 C 0.6857(7) 0.4391(2) 0.8556(4)
H5 H 0.7456 0.4121 0.8848
C7 C 0.6093(7) 0.4288(2) 0.7633(4)
H6 H 0.6204 0.3951 0.7307
C8 C 0.7562(7) 0.4997(2) 1.0041(4)
C9 C 1.1334(7) 0.4665(3) 1.3813(4)
H7 H 1.1647 0.4861 1.4403
C10 C 0.8929(6) 0.4900(2) 1.1413(4)
C11 C 1.0410(8) 0.4923(3) 1.3088(4)
H8 H 1.0134 0.5283 1.3197
C12 C 0.9897(6) 0.4647(2) 1.2203(4)
C13 C 1.0387(8) 0.4114(3) 1.2104(5)
H9 H 1.0080 0.3908 1.1526
C14 C 1.1315(8) 0.3887(3) 1.2845(5)
H10 H 1.1630 0.3531 1.2746
C15 C 0.4337(7) 0.2933(3) 0.3316(5)
C16 C 0.5247(6) 0.2820(2) 0.2331(4)
C17 C 0.6046(7) 0.3225(2) 0.1853(4)
H11 H 0.6041 0.3570 0.2152
C18 C 0.6869(7) 0.3137(2) 0.0932(4)
H12 H 0.7364 0.3423 0.0605
C19 C 0.6939(6) 0.2607(2) 0.0505(4)
C20 C 0.6139(7) 0.2198(2) 0.1004(4)
H13 H 0.6171 0.1848 0.0726
C21 C 0.5297(7) 0.2293(2) 0.1898(4)
H14 H 0.4768 0.2011 0.2212
C22 C 0.7824(6) 0.2512(2) -0.0436(4)
C23 C 0.9205(6) 0.2603(2) -0.1807(4)
C24 C 1.1399(8) 0.3614(3) -0.3356(5)
H15 H 1.1694 0.3975 -0.3283
C25 C 1.0512(8) 0.3394(3) -0.2569(5)
H16 H 1.0202 0.3606 -0.2001
C26 C 1.0094(7) 0.2856(2) -0.2638(4)
C27 C 1.0605(7) 0.2560(3) -0.3516(4)
H17 H 1.0374 0.2193 -0.3588
C28 C 1.1474(7) 0.2827(2) -0.4289(4)
H18 H 1.1788 0.2630 -0.4876
Zn1_2 Zn 1.31749(7) 0.37552(3) -0.52709(5)
Zn1_3 Zn 1.31749(7) 0.37552(3) 1.47291(5)
N4_2 N 0.1795(5) 0.41564(19) 0.3712(3)
N8_2 N 0.1860(5) 0.33456(19) 0.5787(3)
O5 O 0.7556(6) 0.09374(18) 0.9778(4)
H19 H 0.6733 0.0991 1.0094
H20 H 0.7529 0.0621 0.9507
O6 O 0.6502(8) 0.6554(2) 0.0243(5)
H21 H 0.6925 0.6269 0.0481
H22 H 0.6639 0.6812 0.0679
loop_
_geom_bond_atom_site_label_1
_geom_bond_atom_site_label_2
_geom_bond_site_symmetry_1
_geom_bond_site_symmetry_2
Zn1 O1 1_555 1_555
N1 N2 1_555 1_555
N2 C10 1_555 1_555
N3 H1 1_555 1_555
N4 C9 1_555 1_555
N5 N6 1_555 1_555
N6 C23 1_555 1_555
N7 H2 1_555 1_555
N8 C24 1_555 1_555
O1 C1 1_555 1_555
O2 C1 1_555 1_555
O3 Zn1 1_555 1_555
O4 C15 1_555 1_555
C1 C2 1_555 1_555
C2 C3 1_555 1_555
C3 H3 1_555 1_555
C4 C3 1_555 1_555
H4 C4 1_555 1_555
C5 C4 1_555 1_555
C6 C5 1_555 1_555
H5 C6 1_555 1_555
C7 C2 1_555 1_555
H6 C7 1_555 1_555
C8 N1 1_555 1_555
C9 H7 1_555 1_555
C10 N3 1_555 1_555
C11 C9 1_555 1_555
H8 C11 1_555 1_555
C12 C10 1_555 1_555
C13 C12 1_555 1_555
H9 C13 1_555 1_555
C14 N4 1_555 1_555
H10 C14 1_555 1_555
C15 O3 1_555 1_555
C16 C15 1_555 1_555
C17 C16 1_555 1_555
H11 C17 1_555 1_555
C18 C17 1_555 1_555
H12 C18 1_555 1_555
C19 C18 1_555 1_555
C20 C19 1_555 1_555
H13 C20 1_555 1_555
C21 C16 1_555 1_555
H14 C21 1_555 1_555
C22 N5 1_555 1_555
C23 N7 1_555 1_555
C24 H15 1_555 1_555
C25 C24 1_555 1_555
H16 C25 1_555 1_555
C26 C23 1_555 1_555
C27 C26 1_555 1_555
H17 C27 1_555 1_555
C28 N8 1_555 1_555
H18 C28 1_555 1_555
O5 H19 1_555 1_555
H20 O5 1_555 1_555
O6 H21 1_555 1_555
H22 O6 1_555 1_555
Zn1_2 N8 1_555 1_555
Zn1_3 N4 1_555 1_555
N4_2 Zn1 1_555 1_555
N8_2 Zn1 1_555 1_555
N3 C8 1_555 1_555
N7 C22 1_555 1_555
C5 C8 1_555 1_555
C6 C7 1_555 1_555
C11 C12 1_555 1_555
C13 C14 1_555 1_555
C19 C22 1_555 1_555
C20 C21 1_555 1_555
C25 C26 1_555 1_555
C27 C28 1_555 1_555

#END
