
#######################################################################
#
#                 Cambridge Crystallographic Data Centre
#                                CCDC 
#
#######################################################################
#
# If this CIF has been generated from an entry in the Cambridge 
# Structural Database, then it will include bibliographic, chemical, 
# crystal, experimental, refinement or atomic coordinate data resulting 
# from the CCDC's data processing and validation procedures.
#
#######################################################################

data_LODPAX
_symmetry_cell_setting           monoclinic
_symmetry_space_group_name_H-M   'P 21/c'
_symmetry_Int_Tables_number      14
_space_group_name_Hall           '-P 2ybc'
loop_
_symmetry_equiv_pos_site_id
_symmetry_equiv_pos_as_xyz
1 x,y,z
2 -x,1/2+y,1/2-z
3 -x,-y,-z
4 x,1/2-y,1/2+z
_cell_length_a                   9.9488(8)
_cell_length_b                   23.117(2)
_cell_length_c                   11.8918(11)
_cell_angle_alpha                90
_cell_angle_beta                 90.2870(10)
_cell_angle_gamma                90
_cell_volume                     2734.92
loop_
_atom_site_label
_atom_site_type_symbol
_atom_site_fract_x
_atom_site_fract_y
_atom_site_fract_z
Cu1 Cu 0.31072(8) 0.37374(4) 0.45203(6)
N1 N 0.8112(5) 0.2002(3) -0.1073(4)
N2 N 0.8984(6) 0.2052(3) -0.1957(5)
N3 N 0.8558(5) 0.2920(2) -0.1233(4)
H1 H 0.8589 0.3288 -0.1127
N4 N 1.1806(5) 0.3402(3) -0.4392(4)
N5 N 0.7495(6) 0.5442(2) 1.0566(4)
N6 N 0.8385(6) 0.5376(3) 1.1447(4)
N7 N 0.8388(6) 0.4591(2) 1.0365(4)
H2 H 0.8590 0.4253 1.0114
N8 N 1.1742(5) 0.4063(3) 1.3454(4)
O1 O 0.4450(4) 0.3616(2) 0.3374(3)
O2 O 0.3581(5) 0.2741(2) 0.3422(4)
O3 O 0.4438(4) 0.3906(2) 0.5670(3)
O4 O 0.3357(5) 0.47350(19) 0.5730(4)
C1 C 0.4356(7) 0.3094(3) 0.3031(5)
C2 C 0.5291(7) 0.2939(3) 0.2071(5)
C3 C 0.5257(7) 0.2399(3) 0.1597(5)
H3 H 0.4670 0.2123 0.1880
C4 C 0.6077(7) 0.2259(3) 0.0706(5)
H4 H 0.6027 0.1892 0.0388
C5 C 0.6977(6) 0.2661(3) 0.0280(5)
C6 C 0.7016(7) 0.3210(3) 0.0758(5)
H5 H 0.7599 0.3489 0.0477
C7 C 0.6188(6) 0.3340(3) 0.1647(5)
H6 H 0.6233 0.3705 0.1971
C8 C 0.7849(6) 0.2532(3) -0.0655(5)
C9 C 0.9211(7) 0.2612(3) -0.2015(5)
C10 C 1.1462(7) 0.3667(4) -0.3456(6)
H7 H 1.1818 0.4031 -0.3307
C11 C 1.0587(8) 0.3423(3) -0.2681(6)
H8 H 1.0330 0.3632 -0.2049
C12 C 1.0103(7) 0.2876(3) -0.2846(5)
C13 C 1.0479(7) 0.2588(3) -0.3816(5)
H9 H 1.0167 0.2216 -0.3965
C14 C 1.1342(7) 0.2869(3) -0.4568(5)
H10 H 1.1601 0.2676 -0.5217
C15 C 0.4250(6) 0.4408(3) 0.6078(5)
C16 C 0.5144(6) 0.4567(3) 0.7061(5)
C17 C 0.4957(7) 0.5079(3) 0.7613(5)
H11 H 0.4301 0.5335 0.7360
C18 C 0.5732(7) 0.5222(3) 0.8545(5)
H12 H 0.5589 0.5572 0.8913
C19 C 0.6713(6) 0.4849(3) 0.8930(5)
C20 C 0.6905(7) 0.4334(3) 0.8356(5)
H13 H 0.7566 0.4078 0.8597
C21 C 0.6130(7) 0.4199(3) 0.7435(5)
H14 H 0.6276 0.3852 0.7059
C22 C 0.7526(7) 0.4961(3) 0.9938(5)
C23 C 0.8880(7) 0.4855(3) 1.1276(5)
C24 C 1.1150(9) 0.4550(4) 1.3717(6)
H15 H 1.1378 0.4717 1.4404
C25 C 1.0205(9) 0.4838(4) 1.3050(6)
H16 H 0.9811 0.5182 1.3287
C26 C 0.9882(7) 0.4595(3) 1.2032(5)
C27 C 1.0509(7) 0.4088(3) 1.1736(5)
H17 H 1.0310 0.3912 1.1052
C28 C 1.1434(7) 0.3843(3) 1.2457(6)
H18 H 1.1864 0.3505 1.2233
Cu1_2 Cu 1.31072(8) 0.37374(4) -0.54797(6)
Cu1_3 Cu 1.31072(8) 0.37374(4) 1.45203(6)
N4_2 N 0.1806(5) 0.3402(3) 0.5608(4)
N8_2 N 0.1742(5) 0.4063(3) 0.3454(4)
O5 O 0.7122(6) 0.0924(3) 0.9434(6)
H19 H 0.6413 0.1025 0.9777
H20 H 0.7089 0.0560 0.9332
O6 O 0.6316(8) 0.6575(3) 0.0495(6)
H21 H 0.6522 0.6857 0.0920
H22 H 0.6797 0.6285 0.0673
loop_
_geom_bond_atom_site_label_1
_geom_bond_atom_site_label_2
_geom_bond_site_symmetry_1
_geom_bond_site_symmetry_2
Cu1 O1 1_555 1_555
N1 N2 1_555 1_555
N2 C9 1_555 1_555
N3 H1 1_555 1_555
N4 C10 1_555 1_555
N5 N6 1_555 1_555
N6 C23 1_555 1_555
N7 H2 1_555 1_555
N8 C24 1_555 1_555
O1 C1 1_555 1_555
O2 Cu1 1_555 1_555
O3 Cu1 1_555 1_555
O4 Cu1 1_555 1_555
C1 O2 1_555 1_555
C2 C1 1_555 1_555
C3 C2 1_555 1_555
H3 C3 1_555 1_555
C4 C3 1_555 1_555
H4 C4 1_555 1_555
C5 C4 1_555 1_555
C6 C5 1_555 1_555
H5 C6 1_555 1_555
C7 C2 1_555 1_555
H6 C7 1_555 1_555
C8 N1 1_555 1_555
C9 N3 1_555 1_555
C10 H7 1_555 1_555
C11 C10 1_555 1_555
H8 C11 1_555 1_555
C12 C9 1_555 1_555
C13 C12 1_555 1_555
H9 C13 1_555 1_555
C14 N4 1_555 1_555
H10 C14 1_555 1_555
C15 O3 1_555 1_555
C16 C15 1_555 1_555
C17 C16 1_555 1_555
H11 C17 1_555 1_555
C18 C17 1_555 1_555
H12 C18 1_555 1_555
C19 C18 1_555 1_555
C20 C19 1_555 1_555
H13 C20 1_555 1_555
C21 C16 1_555 1_555
H14 C21 1_555 1_555
C22 N5 1_555 1_555
C23 N7 1_555 1_555
C24 H15 1_555 1_555
C25 C24 1_555 1_555
H16 C25 1_555 1_555
C26 C23 1_555 1_555
C27 C26 1_555 1_555
H17 C27 1_555 1_555
C28 N8 1_555 1_555
H18 C28 1_555 1_555
O5 H19 1_555 1_555
H20 O5 1_555 1_555
O6 H21 1_555 1_555
H22 O6 1_555 1_555
Cu1_2 N4 1_555 1_555
Cu1_3 N8 1_555 1_555
N4_2 Cu1 1_555 1_555
N8_2 Cu1 1_555 1_555
N3 C8 1_555 1_555
N7 C22 1_555 1_555
O4 C15 1_555 1_555
C5 C8 1_555 1_555
C6 C7 1_555 1_555
C11 C12 1_555 1_555
C13 C14 1_555 1_555
C19 C22 1_555 1_555
C20 C21 1_555 1_555
C25 C26 1_555 1_555
C27 C28 1_555 1_555

#END
