
#######################################################################
#
#                 Cambridge Crystallographic Data Centre
#                                CCDC 
#
#######################################################################
#
# If this CIF has been generated from an entry in the Cambridge 
# Structural Database, then it will include bibliographic, chemical, 
# crystal, experimental, refinement or atomic coordinate data resulting 
# from the CCDC's data processing and validation procedures.
#
#######################################################################

data_LODROL
_symmetry_cell_setting           orthorhombic
_symmetry_space_group_name_H-M   'P 21 21 21'
_symmetry_Int_Tables_number      19
_space_group_name_Hall           'P 2ac 2ab'
loop_
_symmetry_equiv_pos_site_id
_symmetry_equiv_pos_as_xyz
1 x,y,z
2 1/2-x,-y,1/2+z
3 -x,1/2+y,1/2-z
4 1/2+x,1/2-y,-z
_cell_length_a                   11.247(5)
_cell_length_b                   11.600(5)
_cell_length_c                   28.010(24)
_cell_angle_alpha                90
_cell_angle_beta                 90
_cell_angle_gamma                90
_cell_volume                     3654.33
loop_
_atom_site_label
_atom_site_type_symbol
_atom_site_fract_x
_atom_site_fract_y
_atom_site_fract_z
Zn1 Zn -0.3559(2) 0.1687(2) -0.12479(5)
N1 N -0.4332(10) 0.1134(9) -0.0617(3)
N2 N -0.3152(9) 0.3225(10) -0.0938(3)
N3 N -0.3054(9) 0.2339(9) -0.1895(3)
N4 N -0.4218(10) 0.0236(10) -0.1581(3)
C1 C -0.4860(12) 0.0095(12) -0.0537(4)
C2 C -0.5188(12) 0.0005(13) -0.0031(4)
H1 H -0.5559(12) -0.0627(13) 0.0125(4)
C3 C -0.4846(12) 0.1025(12) 0.0165(4)
H2 H -0.4935(12) 0.1229(12) 0.0491(4)
C4 C -0.4331(11) 0.1742(13) -0.0195(4)
C5 C -0.3930(11) 0.2870(11) -0.0124(4)
C6 C -0.4101(11) 0.3374(13) 0.0369(4)
C7 C -0.5256(12) 0.3718(11) 0.0512(4)
C8 C -0.5410(13) 0.4146(13) 0.0977(4)
C9 C -0.4481(12) 0.4275(12) 0.1285(4)
C10 C -0.3305(12) 0.3923(11) 0.1143(4)
C11 C -0.3164(12) 0.3519(11) 0.0676(4)
H3 H -0.2386(12) 0.3336(11) 0.0568(4)
C12 C -0.6296(11) 0.3581(11) 0.0180(4)
H4 H -0.6019(11) 0.3270(11) -0.0126(4)
H5 H -0.6670(11) 0.4334(11) 0.0127(4)
H6 H -0.6876(11) 0.3052(11) 0.0321(4)
O1 O -0.6549(9) 0.4493(7) 0.1114(2)
C13 C -0.6680(16) 0.5717(11) 0.1079(5)
H7 H -0.7481(16) 0.5937(11) 0.1181(5)
H8 H -0.6556(16) 0.5958(11) 0.0747(5)
H9 H -0.6091(16) 0.6094(11) 0.1284(5)
O2 O -0.4565(9) 0.4735(8) 0.1727(3)
C14 C -0.5377(13) 0.4178(14) 0.2040(4)
H10 H -0.5380(13) 0.4574(14) 0.2349(4)
H11 H -0.5133(13) 0.3374(14) 0.2085(4)
H12 H -0.6177(13) 0.4200(14) 0.1901(4)
C15 C -0.2289(13) 0.3996(13) 0.1488(4)
H13 H -0.2576(13) 0.4291(13) 0.1795(4)
H14 H -0.1681(13) 0.4517(13) 0.1361(4)
H15 H -0.1946(13) 0.3227(13) 0.1533(4)
C16 C -0.3409(12) 0.3567(10) -0.0469(3)
C17 C -0.3093(12) 0.4772(12) -0.0406(4)
H16 H -0.3183(12) 0.5215(12) -0.0123(4)
C18 C -0.2641(12) 0.5146(13) -0.0831(4)
H17 H -0.2373(12) 0.5906(13) -0.0898(4)
C19 C -0.2641(13) 0.4183(12) -0.1164(4)
C20 C -0.2354(13) 0.4217(12) -0.1636(4)
C21 C -0.1764(8) 0.5372(6) -0.1798(3)
C22 C -0.2328(7) 0.6075(9) -0.2131(3)
C23 C -0.1840(9) 0.7138(8) -0.2249(3)
C24 C -0.0789(10) 0.7499(7) -0.2035(3)
C25 C -0.0225(7) 0.6796(9) -0.1702(3)
C26 C -0.0713(8) 0.5733(8) -0.1584(3)
C27 C -0.2503(12) 0.3379(13) -0.1981(4)
C28 C -0.2183(11) 0.3443(12) -0.2469(4)
H18 H -0.1791(11) 0.4072(12) -0.2619(4)
C29 C -0.2529(12) 0.2460(11) -0.2682(4)
H19 H -0.2429(12) 0.2267(11) -0.3009(4)
C30 C -0.3071(11) 0.1767(12) -0.2327(4)
C31 C -0.3544(13) 0.0641(11) -0.2399(4)
C32 C -0.3401(8) 0.0139(7) -0.2897(2)
C33 C -0.2316(7) -0.0345(8) -0.3024(2)
C34 C -0.2174(6) -0.0843(8) -0.3472(3)
C35 C -0.3117(8) -0.0855(8) -0.3793(2)
C36 C -0.4202(7) -0.0371(9) -0.3666(3)
C37 C -0.4344(6) 0.0127(8) -0.3218(3)
C38 C -0.4083(12) -0.0037(13) -0.2051(4)
C39 C -0.4583(12) -0.1188(12) -0.2137(4)
H20 H -0.4601(12) -0.1591(12) -0.2432(4)
C40 C -0.5008(12) -0.1557(13) -0.1717(4)
H21 H -0.5398(12) -0.2271(13) -0.1661(4)
C41 C -0.4773(12) -0.0689(12) -0.1368(4)
C42 C -0.5086(12) -0.0783(13) -0.0877(4)
C43 C -0.5776(8) -0.1792(7) -0.0710(3)
C44 C -0.5233(6) -0.2665(9) -0.0449(3)
C45 C -0.5911(9) -0.3562(7) -0.0264(3)
C46 C -0.7132(9) -0.3586(7) -0.0341(3)
C47 C -0.7675(6) -0.2713(9) -0.0602(3)
C48 C -0.6997(8) -0.1816(7) -0.0786(3)
O1C O -0.1549(9) 0.0507(7) -0.1114(2)
Zn1C Zn -0.8559(2) 0.3313(2) 0.12479(5)
loop_
_geom_bond_atom_site_label_1
_geom_bond_atom_site_label_2
_geom_bond_site_symmetry_1
_geom_bond_site_symmetry_2
Zn1 N1 1_555 1_555
N1 C1 1_555 1_555
N2 Zn1 1_555 1_555
N3 Zn1 1_555 1_555
N4 Zn1 1_555 1_555
C1 C2 1_555 1_555
C2 H1 1_555 1_555
C3 C2 1_555 1_555
H2 C3 1_555 1_555
C4 N1 1_555 1_555
C5 C4 1_555 1_555
C6 C5 1_555 1_555
C7 C6 1_555 1_555
C8 C7 1_555 1_555
C9 C8 1_555 1_555
C10 C9 1_555 1_555
C11 C6 1_555 1_555
H3 C11 1_555 1_555
C12 C7 1_555 1_555
H4 C12 1_555 1_555
H5 C12 1_555 1_555
H6 C12 1_555 1_555
O1 C8 1_555 1_555
C13 O1 1_555 1_555
H7 C13 1_555 1_555
H8 C13 1_555 1_555
H9 C13 1_555 1_555
O2 C9 1_555 1_555
C14 O2 1_555 1_555
H10 C14 1_555 1_555
H11 C14 1_555 1_555
H12 C14 1_555 1_555
C15 C10 1_555 1_555
H13 C15 1_555 1_555
H14 C15 1_555 1_555
H15 C15 1_555 1_555
C16 N2 1_555 1_555
C17 C16 1_555 1_555
H16 C17 1_555 1_555
C18 C17 1_555 1_555
H17 C18 1_555 1_555
C19 N2 1_555 1_555
C20 C19 1_555 1_555
C21 C20 1_555 1_555
C22 C21 1_555 1_555
C23 C22 1_555 1_555
C24 C23 1_555 1_555
C25 C24 1_555 1_555
C26 C21 1_555 1_555
C27 N3 1_555 1_555
C28 C27 1_555 1_555
H18 C28 1_555 1_555
C29 C28 1_555 1_555
H19 C29 1_555 1_555
C30 N3 1_555 1_555
C31 C30 1_555 1_555
C32 C31 1_555 1_555
C33 C32 1_555 1_555
C34 C33 1_555 1_555
C35 C34 1_555 1_555
C36 C35 1_555 1_555
C37 C32 1_555 1_555
C38 N4 1_555 1_555
C39 C38 1_555 1_555
H20 C39 1_555 1_555
C40 C39 1_555 1_555
H21 C40 1_555 1_555
C41 N4 1_555 1_555
C42 C1 1_555 1_555
C43 C42 1_555 1_555
C44 C43 1_555 1_555
C45 C44 1_555 1_555
C46 C45 1_555 1_555
C47 C46 1_555 1_555
C48 C43 1_555 1_555
O1C Zn1 1_555 1_555
Zn1C O1 1_555 1_555
C3 C4 1_555 1_555
C5 C16 1_555 1_555
C10 C11 1_555 1_555
C18 C19 1_555 1_555
C20 C27 1_555 1_555
C25 C26 1_555 1_555
C29 C30 1_555 1_555
C31 C38 1_555 1_555
C36 C37 1_555 1_555
C40 C41 1_555 1_555
C41 C42 1_555 1_555
C47 C48 1_555 1_555

#END
