
#######################################################################
#
#                 Cambridge Crystallographic Data Centre
#                                CCDC 
#
#######################################################################
#
# If this CIF has been generated from an entry in the Cambridge 
# Structural Database, then it will include bibliographic, chemical, 
# crystal, experimental, refinement or atomic coordinate data resulting 
# from the CCDC's data processing and validation procedures.
#
#######################################################################

data_LODTEF
_symmetry_cell_setting           orthorhombic
_symmetry_space_group_name_H-M   'C m c a'
_symmetry_Int_Tables_number      64
_space_group_name_Hall           '-C 2ac 2'
loop_
_symmetry_equiv_pos_site_id
_symmetry_equiv_pos_as_xyz
1 x,y,z
2 -x,1/2-y,1/2+z
3 x,-y,-z
4 1/2-x,y,1/2-z
5 1/2+x,1/2+y,z
6 1/2-x,-y,1/2+z
7 1/2+x,1/2-y,-z
8 -x,1/2+y,1/2-z
9 -x,-y,-z
10 x,1/2+y,1/2-z
11 -x,y,z
12 1/2+x,-y,1/2+z
13 1/2-x,1/2-y,-z
14 1/2+x,y,1/2-z
15 1/2-x,1/2+y,z
16 x,1/2-y,1/2+z
_cell_length_a                   15.939(5)
_cell_length_b                   20.857(5)
_cell_length_c                   14.374(5)
_cell_angle_alpha                90
_cell_angle_beta                 90
_cell_angle_gamma                90
_cell_volume                     4778.49
loop_
_atom_site_label
_atom_site_type_symbol
_atom_site_fract_x
_atom_site_fract_y
_atom_site_fract_z
C1 C 1.0000 -0.3175(6) 0.3216(10)
C2 C 1.0000 -0.2521(6) 0.2773(8)
C3 C 1.0000 -0.2463(6) 0.1797(8)
H1 H 1.0000 -0.2830 0.1429
C4 C 1.0000 -0.1861(5) 0.1379(10)
H2 H 1.0000 -0.1825 0.0734
C5 C 1.0000 -0.1313(5) 0.1932(8)
C6 C 1.0000 -0.1364(5) 0.2899(8)
H3 H 1.0000 -0.0997 0.3265
C7 C 1.0000 -0.1969(6) 0.3318(9)
C8 C 1.0000 -0.0648(5) 0.1487(8)
N1 N 1.0000 -0.1989(10) 0.4280(14)
O1 O 1.0000 -0.3664(4) 0.2691(6)
O2 O 1.0000 -0.3229(4) 0.4080(6)
O3 O 1.0000 -0.0607(4) 0.0631(7)
O4 O 1.0000 -0.0183(4) 0.2016(6)
Cd1 Cd 1.0000 -0.43566(4) 0.40106(6)
C9 C 1.197(2) -0.4923(12) 0.3709(18)
H4 H 1.1615 -0.5233 0.3460
C10 C 1.2852(19) -0.5017(13) 0.363(2)
H5 H 1.3096 -0.5365 0.3327
C11 C 1.3311(13) -0.4519(10) 0.4051(17)
C12 C 1.2913(15) -0.4005(7) 0.4523(11)
H6 H 1.3254 -0.3705 0.4817
C13 C 1.2034(16) -0.3915(11) 0.4581(15)
H7 H 1.1772 -0.3574 0.4879
C14 C 1.4254(12) -0.4469(9) 0.4040(14)
N2 N 1.1620(11) -0.4410(7) 0.4129(11)
N3 N 1.4643(7) -0.4205(5) 0.4433(8)
C9J C 1.803(2) -0.4923(12) 0.3709(18)
H4J H 1.8385 -0.5233 0.3460
C10J C 1.7148(19) -0.5017(13) 0.363(2)
H5J H 1.6904 -0.5365 0.3327
C11J C 1.6689(13) -0.4519(10) 0.4051(17)
C12J C 1.7087(15) -0.4005(7) 0.4523(11)
H6J H 1.6746 -0.3705 0.4817
C13J C 1.7966(16) -0.3915(11) 0.4581(15)
H7J H 1.8228 -0.3574 0.4879
C14J C 1.5746(12) -0.4469(9) 0.4040(14)
N2J N 1.8380(11) -0.4410(7) 0.4129(11)
N3J N 1.5357(7) -0.4205(5) 0.4433(8)
O3A O 1.0000 -0.4393(4) 0.5631(7)
O3G O 1.0000 -0.5607(4) 0.4369(7)
O4G O 1.0000 -0.5183(4) 0.2984(6)
Cd1_2 Cd 2.0000 -0.43566(4) 0.40106(6)
Cd1A Cd 1.0000 -0.06434(4) -0.09894(6)
Cd1G Cd 1.0000 0.06434(4) 0.09894(6)
N2J_2 N 0.8380(11) -0.4410(7) 0.4129(11)
O5 O 1.2500 -0.725(4) 0.2500
O6 O 1.2500 -0.632(3) 0.2500
loop_
_geom_bond_atom_site_label_1
_geom_bond_atom_site_label_2
_geom_bond_site_symmetry_1
_geom_bond_site_symmetry_2
C1 C2 1_555 1_555
C2 C3 1_555 1_555
C3 H1 1_555 1_555
C4 C3 1_555 1_555
H2 C4 1_555 1_555
C5 C4 1_555 1_555
C6 C5 1_555 1_555
H3 C6 1_555 1_555
C7 C2 1_555 1_555
C8 C5 1_555 1_555
N1 C7 1_555 1_555
O1 C1 1_555 1_555
O2 C1 1_555 1_555
O3 C8 1_555 1_555
O4 C8 1_555 1_555
Cd1 O1 1_555 1_555
C9 H4 1_555 1_555
C10 C9 1_555 1_555
H5 C10 1_555 1_555
C11 C10 1_555 1_555
C12 C11 1_555 1_555
H6 C12 1_555 1_555
C13 C12 1_555 1_555
H7 C13 1_555 1_555
C14 C11 1_555 1_555
N2 Cd1 1_555 1_555
N3 C14 1_555 1_555
C9J H4J 1_555 1_555
C10J C9J 1_555 1_555
H5J C10J 1_555 1_555
C11J C10J 1_555 1_555
C12J C11J 1_555 1_555
H6J C12J 1_555 1_555
C13J C12J 1_555 1_555
H7J C13J 1_555 1_555
C14J C11J 1_555 1_555
N2J C9J 1_555 1_555
N3J N3 1_555 1_555
O3A Cd1 1_555 1_555
O3G Cd1 1_555 1_555
O4G Cd1 1_555 1_555
Cd1_2 N2J 1_555 1_555
Cd1A O3 1_555 1_555
Cd1G O3 1_555 1_555
N2J_2 Cd1 1_555 1_555
C6 C7 1_555 1_555
O2 Cd1 1_555 1_555
O4 Cd1G 1_555 1_555
C9 N2 1_555 1_555
C13 N2 1_555 1_555
C13J N2J 1_555 1_555
C14J N3J 1_555 1_555

#END
