
#######################################################################
#
#                 Cambridge Crystallographic Data Centre
#                                CCDC 
#
#######################################################################
#
# If this CIF has been generated from an entry in the Cambridge 
# Structural Database, then it will include bibliographic, chemical, 
# crystal, experimental, refinement or atomic coordinate data resulting 
# from the CCDC's data processing and validation procedures.
#
#######################################################################

data_LOFDUG
_symmetry_cell_setting           monoclinic
_symmetry_space_group_name_H-M   'P 21/c'
_symmetry_Int_Tables_number      14
_space_group_name_Hall           '-P 2ybc'
loop_
_symmetry_equiv_pos_site_id
_symmetry_equiv_pos_as_xyz
1 x,y,z
2 -x,1/2+y,1/2-z
3 -x,-y,-z
4 x,1/2-y,1/2+z
_cell_length_a                   9.0090(5)
_cell_length_b                   16.2579(9)
_cell_length_c                   8.0584(4)
_cell_angle_alpha                90
_cell_angle_beta                 99.408(2)
_cell_angle_gamma                90
_cell_volume                     1164.42
loop_
_atom_site_label
_atom_site_type_symbol
_atom_site_fract_x
_atom_site_fract_y
_atom_site_fract_z
Eu1 Eu 0.600522(9) 0.105265(5) 0.489088(10)
O1 O 0.74475(15) -0.00186(8) 0.39898(17)
O2 O 0.41869(15) -0.00401(9) 0.31986(16)
O3 O 0.46280(18) 0.11393(9) 0.20632(19)
O4 O 1.38222(15) -0.20978(9) 0.31045(19)
O5 O 1.25420(15) -0.30568(9) 0.14617(17)
C1 C 0.1567(2) 0.00551(13) 0.0150(2)
C2 C 0.3261(2) 0.01263(14) 0.0250(2)
H1 H 0.3664 -0.0410 0.0037
H2 H 0.3472 0.0496 -0.0628
C3 C 1.2627(2) -0.24259(12) 0.2378(2)
C4 C 1.1169(2) -0.20269(12) 0.2642(2)
C5 C 0.4056(2) 0.04378(13) 0.1926(2)
C6 C 0.0801(2) -0.06150(13) -0.0643(3)
H3 H 0.1334 -0.1031 -0.1076
N1 N 1.13413(17) -0.12772(10) 0.33465(19)
C7 C 0.9780(2) -0.24088(12) 0.2235(2)
H4 H 0.9692 -0.2910 0.1672
C8 C 0.0751(2) 0.06696(13) 0.0794(3)
H5 H 0.1251 0.1121 0.1332
O6 O 0.64118(15) -0.12397(9) 0.44614(18)
C9 C 0.7401(2) -0.07958(12) 0.3984(2)
C10 C 0.8684(2) -0.12453(12) 0.3385(2)
C11 C 1.0103(2) -0.08836(12) 0.3622(2)
H6 H 1.0194 -0.0341 0.3991
C12 C 0.8518(2) -0.20271(12) 0.2686(2)
H7 H 0.7589 -0.2290 0.2522
Eu1B Eu 1.399478(9) -0.105265(5) 0.510912(10)
Eu1B_2 Eu 0.399478(9) -0.105265(5) 0.510912(10)
Eu1A Eu 1.399478(9) -0.394735(5) 0.010912(10)
Eu1_2 Eu -0.399478(9) 0.105265(5) -0.510912(10)
Eu1B_3 Eu -0.600522(9) -0.105265(5) -0.489088(10)
Eu1C Eu 0.600522(9) 0.394735(5) 0.989088(10)
Eu1_3 Eu 1.600522(9) 0.105265(5) 0.489088(10)
O1B O 1.25525(15) 0.00186(8) 0.60102(17)
O2B O -0.41869(15) 0.00401(9) -0.31986(16)
O2B_2 O 0.58131(15) 0.00401(9) 0.68014(16)
O2_2 O 1.41869(15) -0.00401(9) 0.31986(16)
O2B_3 O 1.58131(15) 0.00401(9) 0.68014(16)
O3B O -0.46280(18) -0.11393(9) -0.20632(19)
O3B_2 O 1.53720(18) -0.11393(9) 0.79368(19)
O4B O 0.61778(15) 0.20978(9) 0.68955(19)
O5B O 0.74580(15) 0.30568(9) 0.85383(17)
O5A O 0.74580(15) 0.19432(9) 0.35383(17)
O5C O 1.25420(15) -0.19432(9) 0.64617(17)
C1B C -0.1567(2) -0.00551(13) -0.0150(2)
C2B C -0.3261(2) -0.01263(14) -0.0250(2)
H1B H -0.3664 0.0410 -0.0037
H2B H -0.3472 -0.0496 0.0628
C3B C 0.7373(2) 0.24259(12) 0.7622(2)
C4B C 0.8831(2) 0.20269(12) 0.7358(2)
C5B C -0.4056(2) -0.04378(13) -0.1926(2)
C6B C -0.0801(2) 0.06150(13) 0.0643(3)
H3B H -0.1334 0.1031 0.1076
N1B N 0.86587(17) 0.12772(10) 0.66535(19)
C7B C 1.0220(2) 0.24088(12) 0.7765(2)
H4B H 1.0308 0.2910 0.8328
C8B C -0.0751(2) -0.06696(13) -0.0794(3)
H5B H -0.1251 -0.1121 -0.1332
O6B O 1.35882(15) 0.12397(9) 0.55386(18)
O6B_2 O 0.35882(15) 0.12397(9) 0.55386(18)
O6_2 O 1.64118(15) -0.12397(9) 0.44614(18)
C9B C 1.2599(2) 0.07958(12) 0.6016(2)
C10B C 1.1316(2) 0.12453(12) 0.6615(2)
C11B C 0.9897(2) 0.08836(12) 0.6378(2)
H6B H 0.9806 0.0341 0.6009
C12B C 1.1482(2) 0.20271(12) 0.7314(2)
H7B H 1.2411 0.2290 0.7478
loop_
_geom_bond_atom_site_label_1
_geom_bond_atom_site_label_2
_geom_bond_site_symmetry_1
_geom_bond_site_symmetry_2
Eu1 O1 1_555 1_555
O1 C9 1_555 1_555
O2 Eu1 1_555 1_555
O3 Eu1 1_555 1_555
O4 C3 1_555 1_555
O5 C3 1_555 1_555
C1 C2 1_555 1_555
C2 H1 1_555 1_555
H2 C2 1_555 1_555
C3 C4 1_555 1_555
C4 N1 1_555 1_555
C5 O2 1_555 1_555
C6 C1 1_555 1_555
H3 C6 1_555 1_555
N1 C11 1_555 1_555
C7 C4 1_555 1_555
H4 C7 1_555 1_555
C8 C1 1_555 1_555
H5 C8 1_555 1_555
O6 C9 1_555 1_555
C9 C10 1_555 1_555
C10 C11 1_555 1_555
C11 H6 1_555 1_555
C12 C7 1_555 1_555
H7 C12 1_555 1_555
Eu1B O4 1_555 1_555
Eu1B_2 O2 1_555 1_555
Eu1A O5 1_555 1_555
Eu1_2 O2B 1_555 1_555
Eu1B_3 O2B 1_555 1_555
Eu1C O5B 1_555 1_555
Eu1_3 O2_2 1_555 1_555
O1B Eu1B 1_555 1_555
O2B C5B 1_555 1_555
O2B_2 Eu1 1_555 1_555
O2_2 Eu1B 1_555 1_555
O2B_3 Eu1B 1_555 1_555
O3B Eu1B_3 1_555 1_555
O3B_2 Eu1B 1_555 1_555
O4B Eu1 1_555 1_555
O5B C3B 1_555 1_555
O5A Eu1 1_555 1_555
O5C Eu1B 1_555 1_555
C1B C2B 1_555 1_555
C2B H1B 1_555 1_555
H2B C2B 1_555 1_555
C3B O4B 1_555 1_555
C4B C3B 1_555 1_555
C5B O3B 1_555 1_555
C6B C8 1_555 1_555
H3B C6B 1_555 1_555
N1B Eu1 1_555 1_555
C7B C4B 1_555 1_555
H4B C7B 1_555 1_555
C8B C6 1_555 1_555
H5B C8B 1_555 1_555
O6B Eu1_3 1_555 1_555
O6B_2 Eu1 1_555 1_555
O6_2 Eu1B 1_555 1_555
C9B O1B 1_555 1_555
C10B C9B 1_555 1_555
C11B N1B 1_555 1_555
H6B C11B 1_555 1_555
C12B C7B 1_555 1_555
H7B C12B 1_555 1_555
O3 C5 1_555 1_555
C2 C5 1_555 1_555
N1 Eu1B 1_555 1_555
O6 Eu1B_2 1_555 1_555
C10 C12 1_555 1_555
Eu1B_2 O2B_2 1_555 1_555
Eu1_3 O2B_3 1_555 1_555
C1B C6B 1_555 1_555
C1B C8B 1_555 1_555
C2B C5B 1_555 1_555
C4B N1B 1_555 1_555
O6B C9B 1_555 1_555
C10B C11B 1_555 1_555
C10B C12B 1_555 1_555

#END
