
#######################################################################
#
#                 Cambridge Crystallographic Data Centre
#                                CCDC 
#
#######################################################################
#
# If this CIF has been generated from an entry in the Cambridge 
# Structural Database, then it will include bibliographic, chemical, 
# crystal, experimental, refinement or atomic coordinate data resulting 
# from the CCDC's data processing and validation procedures.
#
#######################################################################

data_LOFFAO
_symmetry_cell_setting           monoclinic
_symmetry_space_group_name_H-M   'P 21/c'
_symmetry_Int_Tables_number      14
_space_group_name_Hall           '-P 2ybc'
loop_
_symmetry_equiv_pos_site_id
_symmetry_equiv_pos_as_xyz
1 x,y,z
2 -x,1/2+y,1/2-z
3 -x,-y,-z
4 x,1/2-y,1/2+z
_cell_length_a                   9.1666(5)
_cell_length_b                   15.5309(8)
_cell_length_c                   8.5327(4)
_cell_angle_alpha                90
_cell_angle_beta                 102.874(2)
_cell_angle_gamma                90
_cell_volume                     1184.23
loop_
_atom_site_label
_atom_site_type_symbol
_atom_site_fract_x
_atom_site_fract_y
_atom_site_fract_z
Eu1 Eu 0.105560(10) -0.612590(6) 0.010260(11)
O1 O -0.11899(16) -0.62102(9) 0.11160(19)
O2 O -0.24119(14) -0.49495(8) 0.10081(16)
O3 O 0.84891(15) -0.30934(9) -0.25857(16)
O4 O 0.72011(15) -0.19923(9) -0.39085(17)
O5 O 0.01947(17) -0.37694(9) 0.28759(17)
O6 O 0.09682(15) -0.48544(8) 0.16367(16)
N1 N 0.61534(18) -0.37729(10) -0.1836(2)
O7 O -0.00553(17) -0.75598(9) -0.03632(18)
C1 C 0.3431(2) -0.49224(13) 0.4741(2)
C2 C 0.5924(2) -0.30176(12) -0.2624(2)
C3 C 0.7300(2) -0.26606(12) -0.3084(2)
C4 C 0.4549(2) -0.26085(12) -0.2994(2)
H1 H 0.4429 -0.2092 -0.3559
C5 C 0.4964(2) -0.41638(13) -0.1498(2)
H2 H 0.5086 -0.4713 -0.1053
C6 C 0.4187(2) -0.56032(13) 0.5641(2)
H3 H 0.3651 -0.6010 0.6083
C7 C 0.1754(2) -0.48230(13) 0.4531(2)
H4 H 0.1332 -0.5384 0.4664
H5 H 0.1567 -0.4455 0.5383
C8 C 0.4272(2) -0.43212(13) 0.4118(2)
H6 H 0.3792 -0.3859 0.3527
C9 C 0.0937(2) -0.44530(12) 0.2935(2)
C10 C 0.3544(2) -0.37887(12) -0.1780(2)
C11 C 0.3352(2) -0.29847(13) -0.2504(2)
H7 H 0.2436 -0.2703 -0.2658
C12 C -0.2278(2) -0.57512(12) 0.1258(2)
H8 H 0.031(2) -0.7844(12) -0.1161(18)
H9 H -0.020(2) -0.7945(11) 0.0433(18)
Eu1B Eu -0.105560(10) -0.387410(6) -0.010260(11)
Eu1B_2 Eu 0.894440(10) -0.387410(6) -0.010260(11)
Eu1_2 Eu -0.894440(10) -0.612590(6) 0.010260(11)
Eu1C Eu -0.894440(10) -0.887410(6) 0.510260(11)
Eu1A Eu 0.894440(10) -0.112590(6) -0.510260(11)
Eu1_3 Eu 1.105560(10) -0.612590(6) 1.010260(11)
Eu1B_3 Eu 0.894440(10) -0.387410(6) 0.989740(11)
O1B O 0.11899(16) -0.37898(9) -0.11160(19)
O2B O 0.24119(14) -0.50505(8) -0.10081(16)
O3B O 0.15109(15) -0.69066(9) 0.25857(16)
O3_2 O -0.15109(15) -0.30934(9) -0.25857(16)
O3B_2 O -0.84891(15) -0.69066(9) 0.25857(16)
O4A O 0.27989(15) -0.69923(9) -0.10915(17)
O4C O -0.27989(15) -0.30077(9) 0.10915(17)
O4B O -0.72011(15) -0.80077(9) 0.39085(17)
O5B O -0.01947(17) -0.62306(9) -0.28759(17)
O5B_2 O 0.98053(17) -0.62306(9) 0.71241(17)
O6B O -0.09682(15) -0.51456(8) -0.16367(16)
O6B_2 O 0.90318(15) -0.51456(8) 0.83633(16)
N1B N 0.38466(18) -0.62271(10) 0.1836(2)
N1_2 N -0.38466(18) -0.37729(10) -0.1836(2)
N1B_2 N -0.61534(18) -0.62271(10) 0.1836(2)
O7B O 0.00553(17) -0.24402(9) 0.03632(18)
C1B C 0.6569(2) -0.50776(13) 0.5259(2)
C2B C -0.5924(2) -0.69824(12) 0.2624(2)
C3B C -0.7300(2) -0.73394(12) 0.3084(2)
C4B C -0.4549(2) -0.73915(12) 0.2994(2)
H1B H -0.4429 -0.7908 0.3559
C5B C -0.4964(2) -0.58362(13) 0.1498(2)
H2B H -0.5086 -0.5287 0.1053
C6B C 0.5813(2) -0.43968(13) 0.4359(2)
H3B H 0.6349 -0.3990 0.3917
C7B C 0.8246(2) -0.51770(13) 0.5469(2)
H4B H 0.8668 -0.4616 0.5336
H5B H 0.8433 -0.5545 0.4617
C8B C 0.5728(2) -0.56788(13) 0.5882(2)
H6B H 0.6208 -0.6141 0.6473
C9B C 0.9063(2) -0.55470(12) 0.7065(2)
C10B C -0.3544(2) -0.62113(12) 0.1780(2)
C11B C -0.3352(2) -0.70153(13) 0.2504(2)
H7B H -0.2436 -0.7297 0.2658
C12B C 0.2278(2) -0.42488(12) -0.1258(2)
H8B H -0.031(2) -0.2156(12) 0.1161(18)
H9B H 0.020(2) -0.2055(11) -0.0433(18)
loop_
_geom_bond_atom_site_label_1
_geom_bond_atom_site_label_2
_geom_bond_site_symmetry_1
_geom_bond_site_symmetry_2
Eu1 O1 1_555 1_555
O1 C12 1_555 1_555
O2 C12 1_555 1_555
O3 C3 1_555 1_555
O4 C3 1_555 1_555
O5 C9 1_555 1_555
O6 Eu1 1_555 1_555
N1 C2 1_555 1_555
O7 Eu1 1_555 1_555
C1 C6 1_555 1_555
C2 C3 1_555 1_555
C4 C2 1_555 1_555
H1 C4 1_555 1_555
C5 N1 1_555 1_555
H2 C5 1_555 1_555
C6 H3 1_555 1_555
C7 C1 1_555 1_555
H4 C7 1_555 1_555
H5 C7 1_555 1_555
C8 C1 1_555 1_555
H6 C8 1_555 1_555
C9 O6 1_555 1_555
C10 C5 1_555 1_555
C11 C4 1_555 1_555
H7 C11 1_555 1_555
C12 C10B 1_555 1_555
H8 O7 1_555 1_555
H9 O7 1_555 1_555
Eu1B O2 1_555 1_555
Eu1B_2 O3 1_555 1_555
Eu1_2 O3B_2 1_555 1_555
Eu1C O4B 1_555 1_555
Eu1A O4 1_555 1_555
Eu1_3 O5B_2 1_555 1_555
Eu1B_3 O6B_2 1_555 1_555
O1B Eu1B 1_555 1_555
O2B Eu1 1_555 1_555
O3B Eu1 1_555 1_555
O3_2 Eu1B 1_555 1_555
O3B_2 C3B 1_555 1_555
O4A Eu1 1_555 1_555
O4C Eu1B 1_555 1_555
O4B C3B 1_555 1_555
O5B Eu1 1_555 1_555
O5B_2 C9B 1_555 1_555
O6B Eu1 1_555 1_555
O6B_2 Eu1_3 1_555 1_555
N1B Eu1 1_555 1_555
N1_2 Eu1B 1_555 1_555
N1B_2 Eu1_2 1_555 1_555
O7B Eu1B 1_555 1_555
C1B C6B 1_555 1_555
C2B N1B_2 1_555 1_555
C3B C2B 1_555 1_555
C4B C2B 1_555 1_555
H1B C4B 1_555 1_555
C5B N1B_2 1_555 1_555
H2B C5B 1_555 1_555
C6B C8 1_555 1_555
H3B C6B 1_555 1_555
C7B C1B 1_555 1_555
H4B C7B 1_555 1_555
H5B C7B 1_555 1_555
C8B C6 1_555 1_555
H6B C8B 1_555 1_555
C9B O6B_2 1_555 1_555
C10B C5B 1_555 1_555
C11B C4B 1_555 1_555
H7B C11B 1_555 1_555
C12B C10 1_555 1_555
H8B O7B 1_555 1_555
H9B O7B 1_555 1_555
O5 Eu1B 1_555 1_555
O6 Eu1B 1_555 1_555
N1 Eu1B_2 1_555 1_555
C7 C9 1_555 1_555
C10 C11 1_555 1_555
Eu1B O6B 1_555 1_555
O1B C12B 1_555 1_555
O2B C12B 1_555 1_555
C1B C8B 1_555 1_555
C7B C9B 1_555 1_555
C10B C11B 1_555 1_555

#END
