
#######################################################################
#
#                 Cambridge Crystallographic Data Centre
#                                CCDC 
#
#######################################################################
#
# If this CIF has been generated from an entry in the Cambridge 
# Structural Database, then it will include bibliographic, chemical, 
# crystal, experimental, refinement or atomic coordinate data resulting 
# from the CCDC's data processing and validation procedures.
#
#######################################################################

data_LOFFES
_symmetry_cell_setting           monoclinic
_symmetry_space_group_name_H-M   'P 21/c'
_symmetry_Int_Tables_number      14
_space_group_name_Hall           '-P 2ybc'
loop_
_symmetry_equiv_pos_site_id
_symmetry_equiv_pos_as_xyz
1 x,y,z
2 -x,1/2+y,1/2-z
3 -x,-y,-z
4 x,1/2-y,1/2+z
_cell_length_a                   9.1376(5)
_cell_length_b                   15.4194(9)
_cell_length_c                   8.5106(5)
_cell_angle_alpha                90
_cell_angle_beta                 102.660(3)
_cell_angle_gamma                90
_cell_volume                     1169.96
loop_
_atom_site_label
_atom_site_type_symbol
_atom_site_fract_x
_atom_site_fract_y
_atom_site_fract_z
Tb1 Tb 0.895422(10) 0.112666(6) -0.010141(12)
O1 O 1.11917(18) 0.12079(10) -0.1098(2)
O2 O 1.24002(16) -0.00668(10) -0.10128(19)
O3 O 1.72270(17) 0.30097(10) -0.3910(2)
N1 N 1.6169(2) 0.12208(11) -0.1821(2)
O4 O 1.09645(17) 0.01378(10) 0.16252(19)
O5 O 1.01839(19) 0.12327(10) 0.2856(2)
O6 O 1.85167(17) 0.19093(10) -0.2555(2)
C1 C 1.3426(2) 0.00756(15) 0.4741(3)
C2 C 1.4267(3) 0.06842(15) 0.4116(3)
H1 H 1.3784 0.1148 0.3522
C3 C 1.0930(2) 0.05450(14) 0.2919(3)
C4 C 1.1748(2) 0.01758(15) 0.4527(3)
H2 H 1.1556 0.0550 0.5376
H3 H 1.1324 -0.0388 0.4666
C5 C 1.4180(2) -0.06112(15) 0.5636(3)
H4 H 1.3641 -0.1024 0.6072
C6 C 1.5943(2) 0.19841(14) -0.2610(3)
C7 C 1.4972(2) 0.08246(14) -0.1494(3)
H5 H 1.5091 0.0269 -0.1060
C8 C 1.4561(2) 0.23936(14) -0.2989(3)
H6 H 1.4442 0.2912 -0.3562
C9 C 1.7323(2) 0.23425(14) -0.3074(3)
C10 C 1.3552(2) 0.12031(13) -0.1770(3)
C11 C 1.3359(2) 0.20159(14) -0.2498(3)
H7 H 1.2441 0.2300 -0.2652
C12 C 1.2275(2) 0.07419(14) -0.1248(3)
O7 O 1.0072(2) 0.25516(10) 0.0372(2)
H8 H 1.015(3) 0.2945(14) -0.046(2)
H9 H 0.964(3) 0.2819(15) 0.115(2)
Tb1B Tb 1.104578(10) -0.112666(6) 0.010141(12)
Tb1C Tb 1.895422(10) 0.387334(6) -0.510141(12)
Tb1_2 Tb 1.895422(10) 0.112666(6) -0.010141(12)
Tb1_3 Tb 1.895422(10) 0.112666(6) 0.989859(12)
Tb1B_2 Tb 2.104578(10) -0.112666(6) 1.010141(12)
Tb1A Tb 0.104578(10) -0.387334(6) 0.510141(12)
Tb1B_3 Tb 0.104578(10) -0.112666(6) 0.010141(12)
O1B O 0.88083(18) -0.12079(10) 0.1098(2)
O2B O 0.75998(16) 0.00668(10) 0.10128(19)
O3B O 0.27730(17) -0.30097(10) 0.3910(2)
O3C O 0.72270(17) 0.19903(10) 0.1090(2)
O3A O 1.27730(17) -0.19903(10) -0.1090(2)
N1B N 0.3831(2) -0.12208(11) 0.1821(2)
N1_2 N 0.6169(2) 0.12208(11) -0.1821(2)
N1B_2 N 1.3831(2) -0.12208(11) 0.1821(2)
O4B O 1.90355(17) -0.01378(10) 0.83748(19)
O4B_2 O 0.90355(17) -0.01378(10) -0.16252(19)
O5B O 1.98161(19) -0.12327(10) 0.7144(2)
O5B_2 O 0.98161(19) -0.12327(10) -0.2856(2)
O6B O 0.14833(17) -0.19093(10) 0.2555(2)
O6_2 O 0.85167(17) 0.19093(10) -0.2555(2)
O6B_2 O 1.14833(17) -0.19093(10) 0.2555(2)
C1B C 1.6574(2) -0.00756(15) 0.5259(3)
C2B C 1.5733(3) -0.06842(15) 0.5884(3)
H1B H 1.6216 -0.1148 0.6478
C3B C 1.9070(2) -0.05450(14) 0.7081(3)
C4B C 1.8252(2) -0.01758(15) 0.5473(3)
H2B H 1.8444 -0.0550 0.4624
H3B H 1.8676 0.0388 0.5334
C5B C 1.5820(2) 0.06112(15) 0.4364(3)
H4B H 1.6359 0.1024 0.3928
C6B C 0.4057(2) -0.19841(14) 0.2610(3)
C7B C 0.5028(2) -0.08246(14) 0.1494(3)
H5B H 0.4909 -0.0269 0.1060
C8B C 0.5439(2) -0.23936(14) 0.2989(3)
H6B H 0.5558 -0.2912 0.3562
C9B C 0.2677(2) -0.23425(14) 0.3074(3)
C10B C 0.6448(2) -0.12031(13) 0.1770(3)
C11B C 0.6641(2) -0.20159(14) 0.2498(3)
H7B H 0.7559 -0.2300 0.2652
C12B C 0.7725(2) -0.07419(14) 0.1248(3)
O7B O 0.9928(2) -0.25516(10) -0.0372(2)
H8B H 0.985(3) -0.2945(14) 0.046(2)
H9B H 1.036(3) -0.2819(15) -0.115(2)
loop_
_geom_bond_atom_site_label_1
_geom_bond_atom_site_label_2
_geom_bond_site_symmetry_1
_geom_bond_site_symmetry_2
Tb1 O1 1_555 1_555
O1 C12 1_555 1_555
O2 C12 1_555 1_555
O3 C9 1_555 1_555
N1 C6 1_555 1_555
O4 Tb1 1_555 1_555
O5 Tb1 1_555 1_555
O6 C9 1_555 1_555
C1 C2 1_555 1_555
C2 H1 1_555 1_555
C3 O4 1_555 1_555
C4 C1 1_555 1_555
H2 C4 1_555 1_555
H3 C4 1_555 1_555
C5 C1 1_555 1_555
H4 C5 1_555 1_555
C6 C8 1_555 1_555
C7 N1 1_555 1_555
H5 C7 1_555 1_555
C8 H6 1_555 1_555
C9 C6 1_555 1_555
C10 C7 1_555 1_555
C11 C8 1_555 1_555
H7 C11 1_555 1_555
C12 C10 1_555 1_555
O7 Tb1 1_555 1_555
H8 O7 1_555 1_555
H9 O7 1_555 1_555
Tb1B O2 1_555 1_555
Tb1C O3 1_555 1_555
Tb1_2 N1 1_555 1_555
Tb1_3 O4B 1_555 1_555
Tb1B_2 O4B 1_555 1_555
Tb1A O3B 1_555 1_555
Tb1B_3 N1B 1_555 1_555
O1B Tb1B 1_555 1_555
O2B Tb1 1_555 1_555
O3B C9B 1_555 1_555
O3C Tb1 1_555 1_555
O3A Tb1B 1_555 1_555
N1B C6B 1_555 1_555
N1_2 Tb1 1_555 1_555
N1B_2 Tb1B 1_555 1_555
O4B C3B 1_555 1_555
O4B_2 Tb1 1_555 1_555
O5B Tb1B_2 1_555 1_555
O5B_2 Tb1B 1_555 1_555
O6B Tb1B_3 1_555 1_555
O6_2 Tb1 1_555 1_555
O6B_2 Tb1B 1_555 1_555
C1B C2B 1_555 1_555
C2B C5 1_555 1_555
H1B C2B 1_555 1_555
C3B O5B 1_555 1_555
C4B C1B 1_555 1_555
H2B C4B 1_555 1_555
H3B C4B 1_555 1_555
C5B C2 1_555 1_555
H4B C5B 1_555 1_555
C6B C8B 1_555 1_555
C7B N1B 1_555 1_555
H5B C7B 1_555 1_555
C8B H6B 1_555 1_555
C9B O6B 1_555 1_555
C10B C7B 1_555 1_555
C11B C8B 1_555 1_555
H7B C11B 1_555 1_555
C12B O1B 1_555 1_555
O7B Tb1B 1_555 1_555
H8B O7B 1_555 1_555
H9B O7B 1_555 1_555
O4 Tb1B 1_555 1_555
O5 C3 1_555 1_555
O6 Tb1_2 1_555 1_555
C3 C4 1_555 1_555
C10 C11 1_555 1_555
Tb1B O4B_2 1_555 1_555
O2B C12B 1_555 1_555
C1B C5B 1_555 1_555
C3B C4B 1_555 1_555
C6B C9B 1_555 1_555
C10B C11B 1_555 1_555
C10B C12B 1_555 1_555

#END
