
#######################################################################
#
#                 Cambridge Crystallographic Data Centre
#                                CCDC 
#
#######################################################################
#
# If this CIF has been generated from an entry in the Cambridge 
# Structural Database, then it will include bibliographic, chemical, 
# crystal, experimental, refinement or atomic coordinate data resulting 
# from the CCDC's data processing and validation procedures.
#
#######################################################################

data_LOFGAQ
_symmetry_cell_setting           monoclinic
_symmetry_space_group_name_H-M   'P 21/n'
_symmetry_Int_Tables_number      14
_space_group_name_Hall           '-P 2yn'
loop_
_symmetry_equiv_pos_site_id
_symmetry_equiv_pos_as_xyz
1 x,y,z
2 1/2-x,1/2+y,1/2-z
3 -x,-y,-z
4 1/2+x,1/2-y,1/2+z
_cell_length_a                   9.9704(2)
_cell_length_b                   11.0906(2)
_cell_length_c                   16.6491(3)
_cell_angle_alpha                90
_cell_angle_beta                 98.0470(10)
_cell_angle_gamma                90
_cell_volume                     1822.89
loop_
_atom_site_label
_atom_site_type_symbol
_atom_site_fract_x
_atom_site_fract_y
_atom_site_fract_z
Br1 Br 0.757396(18) 0.302622(17) 0.606213(11)
Cu1 Cu 0.63214(2) 0.333457(19) 0.433152(13)
O1 O 0.45521(12) 0.35122(11) 0.47630(8)
O2 O 0.35045(12) 0.49009(11) 0.54272(8)
C1 C 0.44413(16) 0.45426(15) 0.50552(10)
N1 N 0.60079(15) 0.15567(13) 0.42016(9)
C2 C 0.69143(18) 0.07712(16) 0.45753(11)
H1 H 0.7708 0.1074 0.4865
C3 C 0.67281(18) -0.04694(16) 0.45509(10)
C4 C 0.55251(18) -0.09031(16) 0.41247(11)
H2 H 0.5346 -0.1726 0.4107
C5 C 0.45966(18) -0.01018(17) 0.37270(11)
H3 H 0.3797 -0.0382 0.3432
C6 C 0.48700(18) 0.11215(16) 0.37733(11)
H4 H 0.4248 0.1657 0.3500
C7 C 0.78142(18) -0.12844(17) 0.49814(11)
H5 H 0.7397 -0.2019 0.5143
H6 H 0.8243 -0.0886 0.5469
C8 C 0.89015(18) -0.16107(17) 0.44486(12)
H7 H 0.9237 -0.0878 0.4228
H8 H 0.9656 -0.2000 0.4780
C9 C 0.83518(19) -0.24405(19) 0.37606(12)
H9 H 0.8090 -0.3197 0.3987
H10 H 0.7543 -0.2080 0.3465
O3 O 0.92854(15) -0.26862(14) 0.32052(9)
N2 N 0.80992(14) 0.32719(13) 0.38832(9)
C10 C 0.83200(17) 0.24409(16) 0.33257(11)
H11 H 0.7628 0.1899 0.3151
C11 C 0.95226(18) 0.23473(16) 0.29975(11)
C12 C 1.05271(19) 0.31851(18) 0.32578(13)
H12 H 1.1348 0.3159 0.3053
C13 C 1.0311(2) 0.40583(18) 0.38209(13)
H13 H 1.0976 0.4626 0.3993
C14 C 0.90858(18) 0.40672(17) 0.41224(12)
H14 H 0.8942 0.4647 0.4505
C15 C 0.97215(18) 0.13555(17) 0.24068(11)
H15 H 1.0018 0.1704 0.1927
H16 H 0.8863 0.0953 0.2241
C16 C 1.07668(18) 0.04298(17) 0.27758(11)
H17 H 1.1630 0.0832 0.2926
H18 H 1.0484 0.0106 0.3267
C17 C 1.09553(18) -0.06018(17) 0.22060(11)
H19 H 1.1284 -0.0286 0.1726
H20 H 1.1634 -0.1151 0.2471
O4 O 0.97202(13) -0.12496(13) 0.19677(9)
H21 H 0.962(2) -0.165(2) 0.2356(15)
H22 H 1.001(3) -0.284(2) 0.3454(16)
O1B O 0.54479(12) 0.64878(11) 0.52370(8)
O2B O 0.64955(12) 0.50991(11) 0.45728(8)
C1B C 0.55587(16) 0.54574(15) 0.49448(10)
Br1B Br 0.242604(18) 0.697378(17) 0.393787(11)
Cu1B Cu 0.36786(2) 0.666543(19) 0.566848(13)
N1B N 0.39921(15) 0.84433(13) 0.57984(9)
C2B C 0.30857(18) 0.92288(16) 0.54247(11)
H1B H 0.2292 0.8926 0.5135
C3B C 0.32719(18) 1.04694(16) 0.54491(10)
C4B C 0.44749(18) 1.09031(16) 0.58753(11)
H2B H 0.4654 1.1726 0.5893
C5B C 0.54034(18) 1.01018(17) 0.62730(11)
H3B H 0.6203 1.0382 0.6568
C6B C 0.51300(18) 0.88785(16) 0.62267(11)
H4B H 0.5752 0.8343 0.6500
C7B C 0.21858(18) 1.12844(17) 0.50186(11)
H5B H 0.2603 1.2019 0.4857
H6B H 0.1757 1.0886 0.4531
C8B C 0.10985(18) 1.16107(17) 0.55514(12)
H7B H 0.0763 1.0878 0.5772
H8B H 0.0344 1.2000 0.5220
C9B C 0.16482(19) 1.24405(19) 0.62394(12)
H9B H 0.1910 1.3197 0.6013
H10B H 0.2457 1.2080 0.6535
O3B O 0.07146(15) 1.26862(14) 0.67948(9)
N2B N 0.19008(14) 0.67281(13) 0.61168(9)
C10B C 0.16800(17) 0.75591(16) 0.66743(11)
H11B H 0.2372 0.8101 0.6849
C11B C 0.04774(18) 0.76527(16) 0.70025(11)
C12B C -0.05271(19) 0.68149(18) 0.67422(13)
H12B H -0.1348 0.6841 0.6947
C13B C -0.0311(2) 0.59417(18) 0.61791(13)
H13B H -0.0976 0.5374 0.6007
C14B C 0.09142(18) 0.59328(17) 0.58776(12)
H14B H 0.1058 0.5353 0.5495
C15B C 0.02785(18) 0.86445(17) 0.75932(11)
H15B H -0.0018 0.8296 0.8073
H16B H 0.1137 0.9047 0.7759
C16B C -0.07668(18) 0.95702(17) 0.72242(11)
H17B H -0.1630 0.9168 0.7074
H18B H -0.0484 0.9894 0.6733
C17B C -0.09553(18) 1.06018(17) 0.77940(11)
H19B H -0.1284 1.0286 0.8274
H20B H -0.1634 1.1151 0.7529
O4B O 0.02798(13) 1.12496(13) 0.80323(9)
H21B H 0.038(2) 1.165(2) 0.7644(15)
H22B H -0.001(3) 1.284(2) 0.6546(16)
Cu1A Cu 0.86786(2) -0.166543(19) 0.066848(13)
Cu1C Cu 0.13214(2) 1.166543(19) 0.933152(13)
O4A O 0.52798(13) 0.37504(13) 0.30323(9)
O4C O 0.47202(13) 0.62496(13) 0.69677(9)
loop_
_geom_bond_atom_site_label_1
_geom_bond_atom_site_label_2
_geom_bond_site_symmetry_1
_geom_bond_site_symmetry_2
Br1 Cu1 1_555 1_555
Cu1 O1 1_555 1_555
O1 C1 1_555 1_555
O2 C1 1_555 1_555
C1 C1B 1_555 1_555
N1 Cu1 1_555 1_555
C2 N1 1_555 1_555
H1 C2 1_555 1_555
C3 C2 1_555 1_555
C4 C3 1_555 1_555
H2 C4 1_555 1_555
C5 C4 1_555 1_555
H3 C5 1_555 1_555
C6 N1 1_555 1_555
H4 C6 1_555 1_555
C7 C3 1_555 1_555
H5 C7 1_555 1_555
H6 C7 1_555 1_555
C8 C7 1_555 1_555
H7 C8 1_555 1_555
H8 C8 1_555 1_555
C9 C8 1_555 1_555
H9 C9 1_555 1_555
H10 C9 1_555 1_555
O3 C9 1_555 1_555
N2 Cu1 1_555 1_555
C10 N2 1_555 1_555
H11 C10 1_555 1_555
C11 C10 1_555 1_555
C12 C11 1_555 1_555
H12 C12 1_555 1_555
C13 C12 1_555 1_555
H13 C13 1_555 1_555
C14 N2 1_555 1_555
H14 C14 1_555 1_555
C15 C11 1_555 1_555
H15 C15 1_555 1_555
H16 C15 1_555 1_555
C16 C15 1_555 1_555
H17 C16 1_555 1_555
H18 C16 1_555 1_555
C17 C16 1_555 1_555
H19 C17 1_555 1_555
H20 C17 1_555 1_555
O4 C17 1_555 1_555
H21 O4 1_555 1_555
H22 O3 1_555 1_555
O1B C1B 1_555 1_555
O2B Cu1 1_555 1_555
C1B O2B 1_555 1_555
Br1B Cu1B 1_555 1_555
Cu1B O2 1_555 1_555
N1B Cu1B 1_555 1_555
C2B N1B 1_555 1_555
H1B C2B 1_555 1_555
C3B C2B 1_555 1_555
C4B C3B 1_555 1_555
H2B C4B 1_555 1_555
C5B C4B 1_555 1_555
H3B C5B 1_555 1_555
C6B N1B 1_555 1_555
H4B C6B 1_555 1_555
C7B C3B 1_555 1_555
H5B C7B 1_555 1_555
H6B C7B 1_555 1_555
C8B C7B 1_555 1_555
H7B C8B 1_555 1_555
H8B C8B 1_555 1_555
C9B C8B 1_555 1_555
H9B C9B 1_555 1_555
H10B C9B 1_555 1_555
O3B C9B 1_555 1_555
N2B Cu1B 1_555 1_555
C10B N2B 1_555 1_555
H11B C10B 1_555 1_555
C11B C10B 1_555 1_555
C12B C11B 1_555 1_555
H12B C12B 1_555 1_555
C13B C12B 1_555 1_555
H13B C13B 1_555 1_555
C14B N2B 1_555 1_555
H14B C14B 1_555 1_555
C15B C11B 1_555 1_555
H15B C15B 1_555 1_555
H16B C15B 1_555 1_555
C16B C15B 1_555 1_555
H17B C16B 1_555 1_555
H18B C16B 1_555 1_555
C17B C16B 1_555 1_555
H19B C17B 1_555 1_555
H20B C17B 1_555 1_555
O4B C17B 1_555 1_555
H21B O4B 1_555 1_555
H22B O3B 1_555 1_555
Cu1A O4 1_555 1_555
Cu1C O4B 1_555 1_555
O4A Cu1 1_555 1_555
O4C Cu1B 1_555 1_555
C5 C6 1_555 1_555
C13 C14 1_555 1_555
O1B Cu1B 1_555 1_555
C5B C6B 1_555 1_555
C13B C14B 1_555 1_555

#END
