
#######################################################################
#
#                 Cambridge Crystallographic Data Centre
#                                CCDC 
#
#######################################################################
#
# If this CIF has been generated from an entry in the Cambridge 
# Structural Database, then it will include bibliographic, chemical, 
# crystal, experimental, refinement or atomic coordinate data resulting 
# from the CCDC's data processing and validation procedures.
#
#######################################################################

data_LOFGOE
_symmetry_cell_setting           tetragonal
_symmetry_space_group_name_H-M   'I -4 2 d'
_symmetry_Int_Tables_number      122
_space_group_name_Hall           'I -4 2bw'
loop_
_symmetry_equiv_pos_site_id
_symmetry_equiv_pos_as_xyz
1 x,y,z
2 y,-x,-z
3 -x,-y,z
4 -y,x,-z
5 x,1/2-y,1/4-z
6 1/2-y,-x,3/4+z
7 -x,1/2+y,1/4-z
8 1/2+y,x,3/4+z
9 1/2+x,1/2+y,1/2+z
10 1/2+y,1/2-x,1/2-z
11 1/2-x,1/2-y,1/2+z
12 1/2-y,1/2+x,1/2-z
13 1/2+x,-y,3/4-z
14 -y,1/2-x,1/4+z
15 1/2-x,y,3/4-z
16 y,1/2+x,1/4+z
_cell_length_a                   21.312(10)
_cell_length_b                   21.312(10)
_cell_length_c                   16.548(3)
_cell_angle_alpha                90
_cell_angle_beta                 90
_cell_angle_gamma                90
_cell_volume                     7516.12
loop_
_atom_site_label
_atom_site_type_symbol
_atom_site_fract_x
_atom_site_fract_y
_atom_site_fract_z
O1 O 0.991(9) 0.949(3) 0.726(4)
Mn1 Mn 0.00928(4) 0.12472(4) -0.02059(5)
Mn2 Mn 0.01895(7) 0.2500 0.1250
Cl1 Cl 0.0000 0.0000 0.0000
Cl2 Cl 0.02228(8) 0.24001(7) -0.02737(10)
N1 N 0.1250(3) 0.0769(3) 0.0977(3)
N2 N 0.0810(2) 0.1208(3) 0.0834(3)
N3 N 0.0903(3) 0.1728(3) 0.1281(4)
N4 N 0.0898(3) 0.1082(3) -0.1001(3)
N5 N 0.1283(3) 0.0592(3) -0.0844(3)
N6 N 0.1783(3) 0.0582(3) -0.1325(4)
C1 C 0.1966(5) 0.1857(5) -0.2847(7)
H1 H 0.2224 0.2017 -0.3251
C2 C 0.1404(5) 0.2177(5) -0.2635(7)
H2 H 0.1304 0.2547 -0.2903
C3 C 0.2132(4) 0.1305(4) -0.2452(5)
H3 H 0.2493 0.1085 -0.2593
C4 C 0.1716(4) 0.2009(5) 0.2305(6)
H4 H 0.1555 0.2400 0.2440
C5 C 0.1174(4) 0.1405(4) -0.1632(5)
C6 C 0.2262(4) 0.1787(6) 0.2653(6)
H5 H 0.2487 0.2043 0.3004
C7 C 0.2484(4) 0.1171(5) 0.2481(6)
H6 H 0.2839 0.1025 0.2749
C8 C 0.0997(5) 0.1955(4) -0.2039(6)
H7 H 0.0625 0.2162 -0.1917
C9 C 0.1415(3) 0.1620(4) 0.1742(5)
C10 C 0.1731(4) 0.1091(3) -0.1828(5)
C11 C 0.1641(4) 0.1027(4) 0.1546(4)
C12 C 0.2188(4) 0.0777(5) 0.1923(5)
H8 H 0.2338 0.0377 0.1805
Mn1A Mn 0.12472(4) -0.00928(4) 0.02059(5)
Mn2A Mn 0.2500 -0.01895(7) -0.1250
Cl2A Cl 0.24001(7) -0.02228(8) 0.02737(10)
N1A N 0.0769(3) -0.1250(3) -0.0977(3)
N2A N 0.1208(3) -0.0810(2) -0.0834(3)
N3A N 0.1728(3) -0.0903(3) -0.1281(4)
N4A N 0.1082(3) -0.0898(3) 0.1001(3)
N5A N 0.0592(3) -0.1283(3) 0.0844(3)
N6A N 0.0582(3) -0.1783(3) 0.1325(4)
C1A C 0.1857(5) -0.1966(5) 0.2847(7)
H1A H 0.2017 -0.2224 0.3251
C2A C 0.2177(5) -0.1404(5) 0.2635(7)
H2A H 0.2547 -0.1304 0.2903
C3A C 0.1305(4) -0.2132(4) 0.2452(5)
H3A H 0.1085 -0.2493 0.2593
C4A C 0.2009(5) -0.1716(4) -0.2305(6)
H4A H 0.2400 -0.1555 -0.2440
C5A C 0.1405(4) -0.1174(4) 0.1632(5)
C6A C 0.1787(6) -0.2262(4) -0.2653(6)
H5A H 0.2043 -0.2487 -0.3004
C7A C 0.1171(5) -0.2484(4) -0.2481(6)
H6A H 0.1025 -0.2839 -0.2749
C8A C 0.1955(4) -0.0997(5) 0.2039(6)
H7A H 0.2162 -0.0625 0.1917
C9A C 0.1620(4) -0.1415(3) -0.1742(5)
C10A C 0.1091(3) -0.1731(4) 0.1828(5)
C11A C 0.1027(4) -0.1641(4) -0.1546(4)
C12A C 0.0777(5) -0.2188(4) -0.1923(5)
H8A H 0.0377 -0.2338 -0.1805
Mn1B Mn -0.00928(4) -0.12472(4) -0.02059(5)
Cl2B Cl -0.02228(8) -0.24001(7) -0.02737(10)
N1B N -0.1250(3) -0.0769(3) 0.0977(3)
N2B N -0.0810(2) -0.1208(3) 0.0834(3)
N3B N -0.0903(3) -0.1728(3) 0.1281(4)
N4B N -0.0898(3) -0.1082(3) -0.1001(3)
N5B N -0.1283(3) -0.0592(3) -0.0844(3)
N6B N -0.1783(3) -0.0582(3) -0.1325(4)
C1B C -0.1966(5) -0.1857(5) -0.2847(7)
H1B H -0.2224 -0.2017 -0.3251
C2B C -0.1404(5) -0.2177(5) -0.2635(7)
H2B H -0.1304 -0.2547 -0.2903
C3B C -0.2132(4) -0.1305(4) -0.2452(5)
H3B H -0.2493 -0.1085 -0.2593
C4B C -0.1716(4) -0.2009(5) 0.2305(6)
H4B H -0.1555 -0.2400 0.2440
C5B C -0.1174(4) -0.1405(4) -0.1632(5)
C6B C -0.2262(4) -0.1787(6) 0.2653(6)
H5B H -0.2487 -0.2043 0.3004
C7B C -0.2484(4) -0.1171(5) 0.2481(6)
H6B H -0.2839 -0.1025 0.2749
C8B C -0.0997(5) -0.1955(4) -0.2039(6)
H7B H -0.0625 -0.2162 -0.1917
C9B C -0.1415(3) -0.1620(4) 0.1742(5)
C10B C -0.1731(4) -0.1091(3) -0.1828(5)
C11B C -0.1641(4) -0.1027(4) 0.1546(4)
C12B C -0.2188(4) -0.0777(5) 0.1923(5)
H8B H -0.2338 -0.0377 0.1805
Mn1C Mn -0.12472(4) 0.00928(4) 0.02059(5)
Cl2C Cl -0.24001(7) 0.02228(8) 0.02737(10)
N1C N -0.0769(3) 0.1250(3) -0.0977(3)
N2C N -0.1208(3) 0.0810(2) -0.0834(3)
N3C N -0.1728(3) 0.0903(3) -0.1281(4)
N4C N -0.1082(3) 0.0898(3) 0.1001(3)
N5C N -0.0592(3) 0.1283(3) 0.0844(3)
N6C N -0.0582(3) 0.1783(3) 0.1325(4)
C1C C -0.1857(5) 0.1966(5) 0.2847(7)
H1C H -0.2017 0.2224 0.3251
C2C C -0.2177(5) 0.1404(5) 0.2635(7)
H2C H -0.2547 0.1304 0.2903
C3C C -0.1305(4) 0.2132(4) 0.2452(5)
H3C H -0.1085 0.2493 0.2593
C4C C -0.2009(5) 0.1716(4) -0.2305(6)
H4C H -0.2400 0.1555 -0.2440
C5C C -0.1405(4) 0.1174(4) 0.1632(5)
C6C C -0.1787(6) 0.2262(4) -0.2653(6)
H5C H -0.2043 0.2487 -0.3004
C7C C -0.1171(5) 0.2484(4) -0.2481(6)
H6C H -0.1025 0.2839 -0.2749
C8C C -0.1955(4) 0.0997(5) 0.2039(6)
H7C H -0.2162 0.0625 0.1917
C9C C -0.1620(4) 0.1415(3) -0.1742(5)
C10C C -0.1091(3) 0.1731(4) 0.1828(5)
C11C C -0.1027(4) 0.1641(4) -0.1546(4)
C12C C -0.0777(5) 0.2188(4) -0.1923(5)
H8C H -0.0377 0.2338 -0.1805
Mn2B Mn -0.01895(7) -0.2500 0.1250
Mn2C Mn -0.2500 0.01895(7) -0.1250
Cl2D Cl 0.02228(8) 0.25999(7) 0.27737(10)
Cl2E Cl 0.25999(7) -0.02228(8) -0.27737(10)
N3D N 0.0903(3) 0.3272(3) 0.1219(4)
N3E N 0.3272(3) -0.0903(3) -0.1219(4)
N6M N -0.0582(3) 0.3217(3) 0.1175(4)
N6N N 0.3217(3) 0.0582(3) -0.1175(4)
loop_
_geom_bond_atom_site_label_1
_geom_bond_atom_site_label_2
_geom_bond_site_symmetry_1
_geom_bond_site_symmetry_2
Mn1 Cl1 1_555 1_555
Mn2 Cl2 1_555 1_555
Cl1 Mn1A 1_555 1_555
Cl2 Mn1 1_555 1_555
N1 N2 1_555 1_555
N2 Mn1 1_555 1_555
N3 Mn2 1_555 1_555
N4 Mn1 1_555 1_555
N5 N4 1_555 1_555
N6 N5 1_555 1_555
C1 H1 1_555 1_555
C2 C1 1_555 1_555
H2 C2 1_555 1_555
C3 C1 1_555 1_555
H3 C3 1_555 1_555
C4 H4 1_555 1_555
C5 N4 1_555 1_555
C6 C4 1_555 1_555
H5 C6 1_555 1_555
C7 C6 1_555 1_555
H6 C7 1_555 1_555
C8 C2 1_555 1_555
H7 C8 1_555 1_555
C9 N3 1_555 1_555
C10 N6 1_555 1_555
C11 N1 1_555 1_555
C12 C7 1_555 1_555
H8 C12 1_555 1_555
Mn1A N1 1_555 1_555
Mn2A N6 1_555 1_555
Cl2A Mn1A 1_555 1_555
N1A N2A 1_555 1_555
N2A Mn1A 1_555 1_555
N3A Mn2A 1_555 1_555
N4A Mn1A 1_555 1_555
N5A N4A 1_555 1_555
N6A N5A 1_555 1_555
C1A H1A 1_555 1_555
C2A C1A 1_555 1_555
H2A C2A 1_555 1_555
C3A C1A 1_555 1_555
H3A C3A 1_555 1_555
C4A H4A 1_555 1_555
C5A N4A 1_555 1_555
C6A C4A 1_555 1_555
H5A C6A 1_555 1_555
C7A C6A 1_555 1_555
H6A C7A 1_555 1_555
C8A C2A 1_555 1_555
H7A C8A 1_555 1_555
C9A N3A 1_555 1_555
C10A N6A 1_555 1_555
C11A N1A 1_555 1_555
C12A C7A 1_555 1_555
H8A C12A 1_555 1_555
Mn1B Cl1 1_555 1_555
Cl2B Mn1B 1_555 1_555
N1B N2B 1_555 1_555
N2B Mn1B 1_555 1_555
N3B N2B 1_555 1_555
N4B Mn1B 1_555 1_555
N5B N4B 1_555 1_555
N6B N5B 1_555 1_555
C1B H1B 1_555 1_555
C2B C1B 1_555 1_555
H2B C2B 1_555 1_555
C3B C1B 1_555 1_555
H3B C3B 1_555 1_555
C4B H4B 1_555 1_555
C5B N4B 1_555 1_555
C6B C4B 1_555 1_555
H5B C6B 1_555 1_555
C7B C6B 1_555 1_555
H6B C7B 1_555 1_555
C8B C2B 1_555 1_555
H7B C8B 1_555 1_555
C9B N3B 1_555 1_555
C10B N6B 1_555 1_555
C11B N1B 1_555 1_555
C12B C7B 1_555 1_555
H8B C12B 1_555 1_555
Mn1C Cl1 1_555 1_555
Cl2C Mn1C 1_555 1_555
N1C Mn1 1_555 1_555
N2C Mn1C 1_555 1_555
N3C N2C 1_555 1_555
N4C Mn1C 1_555 1_555
N5C Mn1 1_555 1_555
N6C Mn2 1_555 1_555
C1C H1C 1_555 1_555
C2C C1C 1_555 1_555
H2C C2C 1_555 1_555
C3C C1C 1_555 1_555
H3C C3C 1_555 1_555
C4C H4C 1_555 1_555
C5C N4C 1_555 1_555
C6C C4C 1_555 1_555
H5C C6C 1_555 1_555
C7C C6C 1_555 1_555
H6C C7C 1_555 1_555
C8C C2C 1_555 1_555
H7C C8C 1_555 1_555
C9C N3C 1_555 1_555
C10C N6C 1_555 1_555
C11C N1C 1_555 1_555
C12C C7C 1_555 1_555
H8C C12C 1_555 1_555
Mn2B N6A 1_555 1_555
Mn2C N6B 1_555 1_555
Cl2D Mn2 1_555 1_555
Cl2E Mn2A 1_555 1_555
N3D Mn2 1_555 1_555
N3E Mn2A 1_555 1_555
N6M Mn2 1_555 1_555
N6N Mn2A 1_555 1_555
N2 N3 1_555 1_555
N5 Mn1A 1_555 1_555
C3 C10 1_555 1_555
C4 C9 1_555 1_555
C5 C8 1_555 1_555
C5 C10 1_555 1_555
C9 C11 1_555 1_555
C11 C12 1_555 1_555
Mn2A Cl2A 1_555 1_555
N1A Mn1B 1_555 1_555
N2A N3A 1_555 1_555
N5A Mn1B 1_555 1_555
C3A C10A 1_555 1_555
C4A C9A 1_555 1_555
C5A C8A 1_555 1_555
C5A C10A 1_555 1_555
C9A C11A 1_555 1_555
C11A C12A 1_555 1_555
Cl2B Mn2B 1_555 1_555
N1B Mn1C 1_555 1_555
N3B Mn2B 1_555 1_555
N5B Mn1C 1_555 1_555
C3B C10B 1_555 1_555
C4B C9B 1_555 1_555
C5B C8B 1_555 1_555
C5B C10B 1_555 1_555
C9B C11B 1_555 1_555
C11B C12B 1_555 1_555
Cl2C Mn2C 1_555 1_555
N1C N2C 1_555 1_555
N3C Mn2C 1_555 1_555
N4C N5C 1_555 1_555
N5C N6C 1_555 1_555
C3C C10C 1_555 1_555
C4C C9C 1_555 1_555
C5C C8C 1_555 1_555
C5C C10C 1_555 1_555
C9C C11C 1_555 1_555
C11C C12C 1_555 1_555

#END
