
#######################################################################
#
#                 Cambridge Crystallographic Data Centre
#                                CCDC 
#
#######################################################################
#
# If this CIF has been generated from an entry in the Cambridge 
# Structural Database, then it will include bibliographic, chemical, 
# crystal, experimental, refinement or atomic coordinate data resulting 
# from the CCDC's data processing and validation procedures.
#
#######################################################################

data_LOFGAP
_symmetry_cell_setting           monoclinic
_symmetry_space_group_name_H-M   'P 21/c'
_symmetry_Int_Tables_number      14
_space_group_name_Hall           '-P 2ybc'
loop_
_symmetry_equiv_pos_site_id
_symmetry_equiv_pos_as_xyz
1 x,y,z
2 -x,1/2+y,1/2-z
3 -x,-y,-z
4 x,1/2-y,1/2+z
_cell_length_a                   11.8831(13)
_cell_length_b                   27.270(3)
_cell_length_c                   10.5135(11)
_cell_angle_alpha                90
_cell_angle_beta                 91.630(2)
_cell_angle_gamma                90
_cell_volume                     3405.54
loop_
_atom_site_label
_atom_site_type_symbol
_atom_site_fract_x
_atom_site_fract_y
_atom_site_fract_z
Zn1 Zn 0.70866(5) 0.20003(2) 0.34242(5)
Zn2 Zn 0.86760(6) 0.00388(2) 0.19767(6)
Cl1 Cl 0.72694(15) -0.04581(6) 0.24033(18)
N1 N 0.6133(4) 0.13837(15) 0.2655(4)
N2 N 0.6123(4) 0.05794(16) 0.2311(4)
H1 H 0.6362 0.0282 0.2268
N3 N 0.8279(4) 0.14516(15) 0.3426(4)
N4 N 0.8674(4) 0.06452(16) 0.3069(4)
N5 N 0.6569(3) 0.24387(14) 0.1977(4)
N6 N 0.8562(3) 0.19103(15) 0.0782(4)
H2 H 0.8475 0.1778 0.1515
N7 N 0.6436(3) 0.28584(14) 0.0125(4)
N8 N 0.8262(3) 0.24018(15) -0.0866(4)
N9 N 0.8641(4) 0.03011(15) 0.0111(4)
N10 N 0.9799(4) 0.02562(15) -0.1598(4)
C1 C 0.5071(5) 0.1241(2) 0.2212(5)
C2 C 0.4124(5) 0.1520(2) 0.1958(5)
H3 H 0.4119 0.1857 0.2084
C3 C 0.3188(5) 0.1273(3) 0.1512(6)
H4 H 0.2527 0.1446 0.1344
C4 C 0.3201(6) 0.0769(3) 0.1303(7)
H5 H 0.2550 0.0619 0.0983
C5 C 0.4123(6) 0.0489(3) 0.1547(7)
H6 H 0.4130 0.0152 0.1414
C6 C 0.5054(5) 0.0745(2) 0.2010(6)
C7 C 0.6721(5) 0.0976(2) 0.2686(5)
C8 C 0.7905(5) 0.1011(2) 0.3067(5)
C9 C 0.9652(5) 0.0876(2) 0.3515(5)
C10 C 1.0753(6) 0.0675(2) 0.3745(6)
H7 H 1.0912 0.0346 0.3604
C11 C 1.1560(6) 0.1000(3) 0.4187(6)
H8 H 1.2285 0.0884 0.4356
C12 C 1.1336(5) 0.1497(3) 0.4392(6)
H9 H 1.1913 0.1704 0.4673
C13 C 1.0262(5) 0.1684(2) 0.4179(5)
H10 H 1.0110 0.2013 0.4329
C14 C 0.9412(5) 0.1366(2) 0.3733(5)
C15 C 0.4073(5) 0.3186(2) 0.2738(6)
H11 H 0.3559 0.3253 0.3365
C16 C 0.4893(5) 0.2841(2) 0.2968(5)
H12 H 0.4937 0.2670 0.3734
C17 C 0.5654(4) 0.27568(18) 0.2022(5)
C18 C 0.6966(4) 0.25178(18) 0.0834(5)
C19 C 0.7923(4) 0.22807(18) 0.0272(5)
C20 C 0.9369(5) 0.1784(2) -0.0069(5)
C21 C 1.0250(5) 0.1448(2) -0.0034(6)
H13 H 1.0384 0.1251 0.0676
C22 C 1.0909(5) 0.1415(2) -0.1064(6)
H14 H 1.1487 0.1186 -0.1070
C23 C 0.3991(5) 0.3436(2) 0.1590(5)
H15 H 0.3420 0.3666 0.1467
C24 C 0.4724(4) 0.33550(19) 0.0637(5)
H16 H 0.4659 0.3522 -0.0133
C25 C 0.5573(4) 0.30127(18) 0.0866(5)
C26 C 0.9170(5) 0.2097(2) -0.1112(5)
C27 C 0.9850(5) 0.2058(2) -0.2143(6)
H17 H 0.9723 0.2255 -0.2854
C28 C 1.0731(5) 0.1722(2) -0.2112(6)
H18 H 1.1206 0.1701 -0.2798
C29 C 0.6854(6) 0.1043(3) -0.2117(6)
H19 H 0.6187 0.1220 -0.2194
C30 C 0.7128(5) 0.0817(2) -0.0993(6)
H20 H 0.6655 0.0834 -0.0304
C31 C 0.8135(5) 0.05609(19) -0.0913(5)
C32 C 0.9600(4) 0.01435(18) -0.0377(5)
C33 C 0.8848(5) 0.05283(19) -0.1946(5)
C34 C 0.8556(6) 0.0760(2) -0.3086(5)
H21 H 0.9016 0.0746 -0.3786
C35 C 0.7541(6) 0.1014(3) -0.3128(7)
H22 H 0.7322 0.1171 -0.3880
Zn1C Zn 0.70866(5) 0.29997(2) 0.84242(5)
Zn1C_2 Zn 0.70866(5) 0.29997(2) -0.15758(5)
Zn2C Zn 0.86760(6) 0.49612(2) 0.69767(6)
Zn2B Zn 1.13240(6) -0.00388(2) -0.19767(6)
Cl1C Cl 0.72694(15) 0.54581(6) 0.74033(18)
N1C N 0.6133(4) 0.36163(15) 0.7655(4)
N2C N 0.6123(4) 0.44206(16) 0.7311(4)
H1C H 0.6362 0.4718 0.7268
N3C N 0.8279(4) 0.35484(15) 0.8426(4)
N4C N 0.8674(4) 0.43548(16) 0.8069(4)
N5C N 0.6569(3) 0.25613(14) 0.6977(4)
N6C N 0.8562(3) 0.30897(15) 0.5782(4)
H2C H 0.8475 0.3222 0.6515
N7C N 0.6436(3) 0.21416(14) 0.5125(4)
N7_2 N 0.6436(3) 0.28584(14) 1.0125(4)
N8C N 0.8262(3) 0.25982(15) 0.4134(4)
N8_2 N 0.8262(3) 0.24018(15) 0.9134(4)
N9B N 1.1359(4) -0.03011(15) -0.0111(4)
N9C N 0.8641(4) 0.46989(15) 0.5111(4)
N10B N 1.0201(4) -0.02562(15) 0.1598(4)
N10A N 1.0201(4) 0.52562(15) 0.6598(4)
C1C C 0.5071(5) 0.3759(2) 0.7212(5)
C2C C 0.4124(5) 0.3480(2) 0.6958(5)
H3C H 0.4119 0.3143 0.7084
C3C C 0.3188(5) 0.3727(3) 0.6512(6)
H4C H 0.2527 0.3554 0.6344
C4C C 0.3201(6) 0.4231(3) 0.6303(7)
H5C H 0.2550 0.4381 0.5983
C5C C 0.4123(6) 0.4511(3) 0.6547(7)
H6C H 0.4130 0.4848 0.6414
C6C C 0.5054(5) 0.4255(2) 0.7010(6)
C7C C 0.6721(5) 0.4024(2) 0.7686(5)
C8C C 0.7905(5) 0.3989(2) 0.8067(5)
C9C C 0.9652(5) 0.4124(2) 0.8515(5)
C10C C 1.0753(6) 0.4325(2) 0.8745(6)
H7C H 1.0912 0.4654 0.8604
C11C C 1.1560(6) 0.4000(3) 0.9187(6)
H8C H 1.2285 0.4116 0.9356
C12C C 1.1336(5) 0.3503(3) 0.9392(6)
H9C H 1.1913 0.3296 0.9673
C13C C 1.0262(5) 0.3316(2) 0.9179(5)
H10C H 1.0110 0.2987 0.9329
C14C C 0.9412(5) 0.3634(2) 0.8733(5)
C15C C 0.4073(5) 0.1814(2) 0.7738(6)
H11C H 0.3559 0.1747 0.8365
C16C C 0.4893(5) 0.2159(2) 0.7968(5)
H12C H 0.4937 0.2330 0.8734
C17C C 0.5654(4) 0.22432(18) 0.7022(5)
C18C C 0.6966(4) 0.24822(18) 0.5834(5)
C19C C 0.7923(4) 0.27193(18) 0.5272(5)
C20C C 0.9369(5) 0.3216(2) 0.4931(5)
C21C C 1.0250(5) 0.3552(2) 0.4966(6)
H13C H 1.0384 0.3749 0.5676
C22C C 1.0909(5) 0.3585(2) 0.3936(6)
H14C H 1.1487 0.3814 0.3930
C23C C 0.3991(5) 0.1564(2) 0.6590(5)
H15C H 0.3420 0.1334 0.6467
C24C C 0.4724(4) 0.16450(19) 0.5637(5)
H16C H 0.4659 0.1478 0.4867
C25C C 0.5573(4) 0.19873(18) 0.5866(5)
C26C C 0.9170(5) 0.2903(2) 0.3888(5)
C27C C 0.9850(5) 0.2942(2) 0.2857(6)
H17C H 0.9723 0.2745 0.2146
C28C C 1.0731(5) 0.3278(2) 0.2888(6)
H18C H 1.1206 0.3299 0.2202
C29B C 1.3146(6) -0.1043(3) 0.2117(6)
H19B H 1.3813 -0.1220 0.2194
C30B C 1.2872(5) -0.0817(2) 0.0993(6)
H20B H 1.3345 -0.0834 0.0304
C31B C 1.1865(5) -0.05609(19) 0.0913(5)
C32B C 1.0400(4) -0.01435(18) 0.0377(5)
C33B C 1.1152(5) -0.05283(19) 0.1946(5)
C34B C 1.1444(6) -0.0760(2) 0.3086(5)
H21B H 1.0984 -0.0746 0.3786
C35B C 1.2459(6) -0.1014(3) 0.3128(7)
H22B H 1.2678 -0.1171 0.3880
loop_
_geom_bond_atom_site_label_1
_geom_bond_atom_site_label_2
_geom_bond_site_symmetry_1
_geom_bond_site_symmetry_2
Zn1 N1 1_555 1_555
Zn2 Cl1 1_555 1_555
N1 C1 1_555 1_555
N2 H1 1_555 1_555
N3 Zn1 1_555 1_555
N4 Zn2 1_555 1_555
N5 Zn1 1_555 1_555
N6 H2 1_555 1_555
N7 C18 1_555 1_555
N8 C19 1_555 1_555
N9 Zn2 1_555 1_555
N10 C32 1_555 1_555
C1 C2 1_555 1_555
C2 H3 1_555 1_555
C3 C2 1_555 1_555
H4 C3 1_555 1_555
C4 C3 1_555 1_555
H5 C4 1_555 1_555
C5 C4 1_555 1_555
H6 C5 1_555 1_555
C6 N2 1_555 1_555
C7 N1 1_555 1_555
C8 N3 1_555 1_555
C9 N4 1_555 1_555
C10 C9 1_555 1_555
H7 C10 1_555 1_555
C11 C10 1_555 1_555
H8 C11 1_555 1_555
C12 C11 1_555 1_555
H9 C12 1_555 1_555
C13 C12 1_555 1_555
H10 C13 1_555 1_555
C14 N3 1_555 1_555
C15 H11 1_555 1_555
C16 C15 1_555 1_555
H12 C16 1_555 1_555
C17 N5 1_555 1_555
C18 N5 1_555 1_555
C19 N6 1_555 1_555
C20 N6 1_555 1_555
C21 C20 1_555 1_555
H13 C21 1_555 1_555
C22 C21 1_555 1_555
H14 C22 1_555 1_555
C23 C15 1_555 1_555
H15 C23 1_555 1_555
C24 C23 1_555 1_555
H16 C24 1_555 1_555
C25 N7 1_555 1_555
C26 N8 1_555 1_555
C27 C26 1_555 1_555
H17 C27 1_555 1_555
C28 C22 1_555 1_555
H18 C28 1_555 1_555
C29 H19 1_555 1_555
C30 C29 1_555 1_555
H20 C30 1_555 1_555
C31 N9 1_555 1_555
C32 N9 1_555 1_555
C33 N10 1_555 1_555
C34 C33 1_555 1_555
H21 C34 1_555 1_555
C35 C29 1_555 1_555
H22 C35 1_555 1_555
Zn1C N1C 1_555 1_555
Zn1C_2 N7 1_555 1_555
Zn2C Cl1C 1_555 1_555
Zn2B N10 1_555 1_555
N1C C1C 1_555 1_555
N2C H1C 1_555 1_555
N3C Zn1C 1_555 1_555
N4C Zn2C 1_555 1_555
N5C Zn1C 1_555 1_555
N6C H2C 1_555 1_555
N7C Zn1 1_555 1_555
N7_2 Zn1C 1_555 1_555
N8C Zn1 1_555 1_555
N8_2 Zn1C 1_555 1_555
N9B Zn2B 1_555 1_555
N9C Zn2C 1_555 1_555
N10B Zn2 1_555 1_555
N10A Zn2C 1_555 1_555
C1C C2C 1_555 1_555
C2C H3C 1_555 1_555
C3C C2C 1_555 1_555
H4C C3C 1_555 1_555
C4C C3C 1_555 1_555
H5C C4C 1_555 1_555
C5C C4C 1_555 1_555
H6C C5C 1_555 1_555
C6C N2C 1_555 1_555
C7C N1C 1_555 1_555
C8C N3C 1_555 1_555
C9C N4C 1_555 1_555
C10C C9C 1_555 1_555
H7C C10C 1_555 1_555
C11C C10C 1_555 1_555
H8C C11C 1_555 1_555
C12C C11C 1_555 1_555
H9C C12C 1_555 1_555
C13C C12C 1_555 1_555
H10C C13C 1_555 1_555
C14C N3C 1_555 1_555
C15C H11C 1_555 1_555
C16C C15C 1_555 1_555
H12C C16C 1_555 1_555
C17C N5C 1_555 1_555
C18C N5C 1_555 1_555
C19C N6C 1_555 1_555
C20C N6C 1_555 1_555
C21C C20C 1_555 1_555
H13C C21C 1_555 1_555
C22C C21C 1_555 1_555
H14C C22C 1_555 1_555
C23C C15C 1_555 1_555
H15C C23C 1_555 1_555
C24C C23C 1_555 1_555
H16C C24C 1_555 1_555
C25C N7C 1_555 1_555
C26C N8C 1_555 1_555
C27C C26C 1_555 1_555
H17C C27C 1_555 1_555
C28C C22C 1_555 1_555
H18C C28C 1_555 1_555
C29B H19B 1_555 1_555
C30B C29B 1_555 1_555
H20B C30B 1_555 1_555
C31B N9B 1_555 1_555
C32B C32 1_555 1_555
C33B N10B 1_555 1_555
C34B C33B 1_555 1_555
H21B C34B 1_555 1_555
C35B C29B 1_555 1_555
H22B C35B 1_555 1_555
N2 C7 1_555 1_555
N4 C8 1_555 1_555
N8 Zn1C_2 1_555 1_555
C1 C6 1_555 1_555
C5 C6 1_555 1_555
C7 C8 1_555 1_555
C9 C14 1_555 1_555
C13 C14 1_555 1_555
C16 C17 1_555 1_555
C17 C25 1_555 1_555
C18 C19 1_555 1_555
C20 C26 1_555 1_555
C24 C25 1_555 1_555
C27 C28 1_555 1_555
C30 C31 1_555 1_555
C31 C33 1_555 1_555
C34 C35 1_555 1_555
N2C C7C 1_555 1_555
N4C C8C 1_555 1_555
N7C C18C 1_555 1_555
N8C C19C 1_555 1_555
N9B C32B 1_555 1_555
N10B C32B 1_555 1_555
C1C C6C 1_555 1_555
C5C C6C 1_555 1_555
C7C C8C 1_555 1_555
C9C C14C 1_555 1_555
C13C C14C 1_555 1_555
C16C C17C 1_555 1_555
C17C C25C 1_555 1_555
C18C C19C 1_555 1_555
C20C C26C 1_555 1_555
C24C C25C 1_555 1_555
C27C C28C 1_555 1_555
C30B C31B 1_555 1_555
C31B C33B 1_555 1_555
C34B C35B 1_555 1_555

#END
