
#######################################################################
#
#                 Cambridge Crystallographic Data Centre
#                                CCDC 
#
#######################################################################
#
# If this CIF has been generated from an entry in the Cambridge 
# Structural Database, then it will include bibliographic, chemical, 
# crystal, experimental, refinement or atomic coordinate data resulting 
# from the CCDC's data processing and validation procedures.
#
#######################################################################

data_LOFGUI
_symmetry_cell_setting           monoclinic
_symmetry_space_group_name_H-M   'P 21/c'
_symmetry_Int_Tables_number      14
_space_group_name_Hall           '-P 2ybc'
loop_
_symmetry_equiv_pos_site_id
_symmetry_equiv_pos_as_xyz
1 x,y,z
2 -x,1/2+y,1/2-z
3 -x,-y,-z
4 x,1/2-y,1/2+z
_cell_length_a                   13.411(3)
_cell_length_b                   10.740(6)
_cell_length_c                   17.746(9)
_cell_angle_alpha                90
_cell_angle_beta                 100.54(3)
_cell_angle_gamma                90
_cell_volume                     2512.9
loop_
_atom_site_label
_atom_site_type_symbol
_atom_site_fract_x
_atom_site_fract_y
_atom_site_fract_z
U1 U 0.32645(4) 0.11284(5) 0.08306(4)
U2 U 0.18149(4) -0.17023(5) -0.04298(4)
Cr1 Cr 0.4238(2) -0.1726(2) -0.0178(2)
Cr2 Cr 0.0947(2) 0.0784(3) 0.0945(2)
O1 O 0.3571(8) 0.016(1) 0.1630(7)
O2 O 0.2956(8) 0.209(1) 0.0015(7)
O3 O 0.3822(9) 0.285(1) 0.1568(7)
O4 O 0.1787(8) 0.179(1) 0.1361(7)
O5 O 0.1663(8) 0.004(1) 0.0370(7)
O6 O 0.3421(7) -0.063(1) 0.0056(7)
O7 O 0.4953(7) 0.116(1) 0.0697(6)
O8 O 0.1900(9) -0.265(1) 0.0388(8)
O9 O 0.1713(9) -0.076(1) -0.1259(7)
O10 O 0.3405(8) -0.268(1) -0.0660(7)
O11 O 0.123(1) -0.339(1) -0.1186(9)
O12 O -0.0078(8) 0.149(1) 0.0448(7)
O13 O 0.486(1) -0.238(1) 0.0556(8)
O14 O 0.065(1) -0.014(1) 0.1546(8)
N1 N 0.390(1) 0.474(2) 0.210(1)
N2 N 0.0514(9) -0.5116(9) -0.1563(9)
C1 C 0.391(2) 0.404(3) 0.150(1)
C2 C 0.399(2) 0.473(3) 0.071(2)
C3 C 0.409(2) 0.618(3) 0.222(2)
C4 C 0.319(2) 0.678(3) 0.227(2)
C5 C 0.397(2) 0.405(3) 0.287(2)
C6 C 0.305(2) 0.359(2) 0.296(1)
C7 C 0.1286(9) -0.4560(9) -0.1390(9)
C8 C 0.232(1) -0.505(1) -0.1595(9)
C9 C 0.0504(9) -0.6373(9) -0.1946(9)
C10 C 0.0668(9) -0.7181(9) -0.1251(9)
C11 C -0.0474(9) -0.4415(9) -0.1528(9)
C12 C -0.0730(9) -0.4554(9) -0.0755(9)
O7B O 0.5047(7) -0.116(1) -0.0697(6)
Cr1B Cr 0.5762(2) 0.1726(2) 0.0178(2)
O12B O 0.0078(8) -0.149(1) -0.0448(7)
U2B U -0.18149(4) 0.17023(5) 0.04298(4)
loop_
_geom_bond_atom_site_label_1
_geom_bond_atom_site_label_2
_geom_bond_site_symmetry_1
_geom_bond_site_symmetry_2
U1 O1 1_555 1_555
U2 O5 1_555 1_555
Cr1 O6 1_555 1_555
Cr2 O4 1_555 1_555
O2 U1 1_555 1_555
O3 U1 1_555 1_555
O4 U1 1_555 1_555
O5 U1 1_555 1_555
O6 U1 1_555 1_555
O7 U1 1_555 1_555
O8 U2 1_555 1_555
O9 U2 1_555 1_555
O10 U2 1_555 1_555
O11 U2 1_555 1_555
O12 Cr2 1_555 1_555
O13 Cr1 1_555 1_555
O14 Cr2 1_555 1_555
N1 C1 1_555 1_555
N2 C7 1_555 1_555
C1 O3 1_555 1_555
C2 C1 1_555 1_555
C3 N1 1_555 1_555
C4 C3 1_555 1_555
C5 N1 1_555 1_555
C6 C5 1_555 1_555
C7 O11 1_555 1_555
C8 C7 1_555 1_555
C9 N2 1_555 1_555
C10 C9 1_555 1_555
C11 N2 1_555 1_555
C12 C11 1_555 1_555
O7B Cr1 1_555 1_555
Cr1B O7 1_555 1_555
O12B U2 1_555 1_555
U2B O12 1_555 1_555
U2 O6 1_555 1_555
Cr1 O10 1_555 1_555
Cr2 O5 1_555 1_555

#END
