
#######################################################################
#
#                 Cambridge Crystallographic Data Centre
#                                CCDC 
#
#######################################################################
#
# If this CIF has been generated from an entry in the Cambridge 
# Structural Database, then it will include bibliographic, chemical, 
# crystal, experimental, refinement or atomic coordinate data resulting 
# from the CCDC's data processing and validation procedures.
#
#######################################################################

data_LOFJIA
_symmetry_cell_setting           orthorhombic
_symmetry_space_group_name_H-M   'P b c n'
_symmetry_Int_Tables_number      60
_space_group_name_Hall           '-P 2n 2ab'
loop_
_symmetry_equiv_pos_site_id
_symmetry_equiv_pos_as_xyz
1 x,y,z
2 1/2-x,1/2-y,1/2+z
3 -x,y,1/2-z
4 1/2+x,1/2-y,-z
5 -x,-y,-z
6 1/2+x,1/2+y,1/2-z
7 x,-y,1/2+z
8 1/2-x,1/2+y,z
_cell_length_a                   10.877(3)
_cell_length_b                   7.937(3)
_cell_length_c                   14.299(5)
_cell_angle_alpha                90
_cell_angle_beta                 90
_cell_angle_gamma                90
_cell_volume                     1234.44
loop_
_atom_site_label
_atom_site_type_symbol
_atom_site_fract_x
_atom_site_fract_y
_atom_site_fract_z
Cd1 Cd 0.68424(2) 0.18741(3) 0.33442(2)
Br1 Br 0.81502(4) -0.01351(5) 0.44077(3)
S1 S 0.46154(8) 0.19090(10) 0.38797(7)
N1 N 0.3207(2) -0.2008(4) 0.2693(2)
N2 N 0.3434(2) -0.0301(4) 0.2761(2)
C1 C 0.4115(3) -0.0049(5) 0.3510(2)
N3 N 0.4337(3) -0.1567(4) 0.3917(2)
H1 H 0.4762 -0.1747 0.4414
C2 C 0.3767(4) -0.2732(5) 0.3392(2)
H2 H 0.3770 -0.3884 0.3510
Cd1G Cd 0.81576(2) -0.31259(3) 0.33442(2)
Cd1E Cd 0.18424(2) -0.31259(3) 0.16558(2)
Cd1B Cd 0.31576(2) 0.18741(3) 0.16558(2)
Br1G Br 0.68498(4) 0.48649(5) 0.44077(3)
N1E N 0.8207(2) 0.2992(4) 0.2307(2)
N2B N 0.6566(2) -0.0301(4) 0.2239(2)
loop_
_geom_bond_atom_site_label_1
_geom_bond_atom_site_label_2
_geom_bond_site_symmetry_1
_geom_bond_site_symmetry_2
Cd1 Br1 1_555 1_555
Br1 Cd1G 1_555 1_555
S1 Cd1 1_555 1_555
N1 N2 1_555 1_555
N2 C1 1_555 1_555
C1 S1 1_555 1_555
N3 C1 1_555 1_555
H1 N3 1_555 1_555
C2 N1 1_555 1_555
H2 C2 1_555 1_555
Cd1E N1 1_555 1_555
Cd1B N2 1_555 1_555
Br1G Cd1 1_555 1_555
N1E Cd1 1_555 1_555
N2B Cd1 1_555 1_555
N3 C2 1_555 1_555

#END
