
#######################################################################
#
#                 Cambridge Crystallographic Data Centre
#                                CCDC 
#
#######################################################################
#
# If this CIF has been generated from an entry in the Cambridge 
# Structural Database, then it will include bibliographic, chemical, 
# crystal, experimental, refinement or atomic coordinate data resulting 
# from the CCDC's data processing and validation procedures.
#
#######################################################################

data_LOFJIZ
_symmetry_cell_setting           cubic
_symmetry_space_group_name_H-M   'P 21 3'
_symmetry_Int_Tables_number      198
_space_group_name_Hall           'P 2ac 2ab 3'
loop_
_symmetry_equiv_pos_site_id
_symmetry_equiv_pos_as_xyz
1 x,y,z
2 1/2-x,-y,1/2+z
3 1/2+x,1/2-y,-z
4 z,x,y
5 -x,1/2+y,1/2-z
6 1/2-z,-x,1/2+y
7 1/2+z,1/2-x,-y
8 -z,1/2+x,1/2-y
9 y,z,x
10 1/2+y,1/2-z,-x
11 -y,1/2+z,1/2-x
12 1/2-y,-z,1/2+x
_cell_length_a                   12.331(1)
_cell_length_b                   12.331(1)
_cell_length_c                   12.331(1)
_cell_angle_alpha                90
_cell_angle_beta                 90
_cell_angle_gamma                90
_cell_volume                     1874.97
loop_
_atom_site_label
_atom_site_type_symbol
_atom_site_fract_x
_atom_site_fract_y
_atom_site_fract_z
Bi1 Bi 0.39411(2) 0.39411(2) 0.39411(2)
O1 O 0.41944(38) 0.47569(35) 0.20228(33)
O2 O 0.41173(41) 0.29669(37) 0.19147(39)
O3 O 0.58656(32) 0.39103(39) 0.34539(38)
O4 O 0.72971(38) 0.49916(42) 0.31840(47)
N1 N 0.4931(3) 0.5069 0.0069
H1 H 0.45099(33) 0.54901(33) 0.04901(33)
N2 N 0.5110(4) 0.5110 0.5110
C1 C 0.42772(43) 0.38829(51) 0.15220(41)
C2 C 0.45957(42) 0.39385(50) 0.03255(41)
H2 H 0.39555(42) 0.37292(50) -0.01262(41)
H3 H 0.52052(42) 0.34290(50) 0.01624(41)
C3 C 0.64139(45) 0.47786(50) 0.36328(45)
C4 C 0.59497(50) 0.56005(45) 0.44138(50)
H4 H 0.56492(50) 0.62309(45) 0.40015(50)
H5 H 0.65470(50) 0.58698(45) 0.48916(50)
C2E C 0.46745(41) 0.54043(42) -0.10615(50)
C1E C 0.34780(41) 0.57228(43) -0.11171(51)
O1E O 0.29772(33) 0.58056(38) -0.02431(35)
Bi1E Bi 0.10589(2) 0.60589(2) -0.10589(2)
O2E O 0.30853(39) 0.58827(41) -0.20331(37)
H2E H 0.51262(41) 0.60445(42) -0.12708(50)
H3E H 0.48376(41) 0.47948(42) -0.15710(50)
C2J C 0.60615(50) 0.53255(41) 0.04043(42)
O1C O 0.20228(33) 0.41944(38) 0.47569(35)
O1H O 0.47569(35) 0.20228(33) 0.41944(38)
O3C O 0.34539(38) 0.58656(32) 0.39103(39)
O3H O 0.39103(39) 0.34539(38) 0.58656(32)
C4C C 0.44138(50) 0.59497(50) 0.56005(45)
C4H C 0.56005(45) 0.44138(50) 0.59497(50)
C1J C 0.61171(51) 0.65220(41) 0.07228(43)
H2J H 0.62708(50) 0.48738(41) 0.10445(42)
H3J H 0.65710(50) 0.51624(41) -0.02052(42)
C3C C 0.36328(45) 0.64139(45) 0.47786(50)
C3H C 0.47786(50) 0.36328(45) 0.64139(45)
H4C H 0.40015(50) 0.56492(50) 0.62309(45)
H5C H 0.48916(50) 0.65470(50) 0.58698(45)
H4H H 0.62309(45) 0.40015(50) 0.56492(50)
H5H H 0.58698(45) 0.48916(50) 0.65470(50)
O1J O 0.52431(35) 0.70228(33) 0.08056(38)
O2J O 0.70331(37) 0.69147(39) 0.08827(41)
O4C O 0.31840(47) 0.72971(38) 0.49916(42)
O4H O 0.49916(42) 0.31840(47) 0.72971(38)
Bi1D Bi 0.60589(2) 0.89411(2) 0.10589(2)
K1 K 0.20846(10) 0.20846 0.20846
K2 K 0.81309(12) 0.81309 0.81309
O5 O 0.6820(5) 0.6820 0.6820
loop_
_geom_bond_atom_site_label_1
_geom_bond_atom_site_label_2
_geom_bond_site_symmetry_1
_geom_bond_site_symmetry_2
Bi1 O1 1_555 1_555
O1 C1 1_555 1_555
O2 C1 1_555 1_555
O3 Bi1 1_555 1_555
O4 C3 1_555 1_555
N1 H1 1_555 1_555
N2 Bi1 1_555 1_555
C1 C2 1_555 1_555
C2 N1 1_555 1_555
H2 C2 1_555 1_555
H3 C2 1_555 1_555
C3 O3 1_555 1_555
C4 N2 1_555 1_555
H4 C4 1_555 1_555
H5 C4 1_555 1_555
C2E N1 1_555 1_555
C1E C2E 1_555 1_555
O1E C1E 1_555 1_555
Bi1E O1E 1_555 1_555
O2E C1E 1_555 1_555
H2E C2E 1_555 1_555
H3E C2E 1_555 1_555
C2J N1 1_555 1_555
O1C Bi1 1_555 1_555
O1H Bi1 1_555 1_555
O3C Bi1 1_555 1_555
O3H Bi1 1_555 1_555
C4C N2 1_555 1_555
C4H N2 1_555 1_555
C1J C2J 1_555 1_555
H2J C2J 1_555 1_555
H3J C2J 1_555 1_555
C3C O3C 1_555 1_555
C3H O3H 1_555 1_555
H4C C4C 1_555 1_555
H5C C4C 1_555 1_555
H4H C4H 1_555 1_555
H5H C4H 1_555 1_555
O1J C1J 1_555 1_555
O2J C1J 1_555 1_555
O4C C3C 1_555 1_555
O4H C3H 1_555 1_555
Bi1D O1J 1_555 1_555
C3 C4 1_555 1_555
C4C C3C 1_555 1_555
C4H C3H 1_555 1_555

#END
