
#######################################################################
#
#                 Cambridge Crystallographic Data Centre
#                                CCDC 
#
#######################################################################
#
# If this CIF has been generated from an entry in the Cambridge 
# Structural Database, then it will include bibliographic, chemical, 
# crystal, experimental, refinement or atomic coordinate data resulting 
# from the CCDC's data processing and validation procedures.
#
#######################################################################

data_LOFJOG
_symmetry_cell_setting           orthorhombic
_symmetry_space_group_name_H-M   'P b c n'
_symmetry_Int_Tables_number      60
_space_group_name_Hall           '-P 2n 2ab'
loop_
_symmetry_equiv_pos_site_id
_symmetry_equiv_pos_as_xyz
1 x,y,z
2 1/2-x,1/2-y,1/2+z
3 -x,y,1/2-z
4 1/2+x,1/2-y,-z
5 -x,-y,-z
6 1/2+x,1/2+y,1/2-z
7 x,-y,1/2+z
8 1/2-x,1/2+y,z
_cell_length_a                   11.056(3)
_cell_length_b                   8.260(2)
_cell_length_c                   14.512(4)
_cell_angle_alpha                90
_cell_angle_beta                 90
_cell_angle_gamma                90
_cell_volume                     1325.27
loop_
_atom_site_label
_atom_site_type_symbol
_atom_site_fract_x
_atom_site_fract_y
_atom_site_fract_z
Cd1 Cd 0.81878(2) 0.19021(3) 0.326808(17)
I1 I 0.67415(2) -0.00233(3) 0.440389(17)
S1 S 1.03622(7) 0.18167(10) 0.38589(6)
N1 N 1.1599(2) -0.0280(3) 0.2790(2)
N2 N 1.1833(2) -0.1893(3) 0.27309(19)
N3 N 1.0653(3) -0.1511(3) 0.38970(18)
H1 H 1.0207 -0.1694 0.4371
C1 C 1.0879(3) -0.0052(4) 0.3506(2)
C2 C 1.1267(3) -0.2626(4) 0.3396(2)
H2 H 1.1281 -0.3734 0.3509
Cd1G Cd 0.68122(2) -0.30979(3) 0.326808(17)
Cd1B Cd 1.18122(2) 0.19021(3) 0.173192(17)
Cd1E Cd 1.31878(2) -0.30979(3) 0.173192(17)
I1G I 0.82585(2) 0.49767(3) 0.440389(17)
N1B N 0.8401(2) -0.0280(3) 0.2210(2)
N2E N 0.6833(2) 0.3107(3) 0.22691(19)
loop_
_geom_bond_atom_site_label_1
_geom_bond_atom_site_label_2
_geom_bond_site_symmetry_1
_geom_bond_site_symmetry_2
Cd1 I1 1_555 1_555
I1 Cd1G 1_555 1_555
S1 Cd1 1_555 1_555
N1 N2 1_555 1_555
N2 C2 1_555 1_555
N3 H1 1_555 1_555
C1 S1 1_555 1_555
C2 N3 1_555 1_555
H2 C2 1_555 1_555
Cd1B N1 1_555 1_555
Cd1E N2 1_555 1_555
I1G Cd1 1_555 1_555
N1B Cd1 1_555 1_555
N2E Cd1 1_555 1_555
N1 C1 1_555 1_555
N3 C1 1_555 1_555

#END
