
#######################################################################
#
#                 Cambridge Crystallographic Data Centre
#                                CCDC 
#
#######################################################################
#
# If this CIF has been generated from an entry in the Cambridge 
# Structural Database, then it will include bibliographic, chemical, 
# crystal, experimental, refinement or atomic coordinate data resulting 
# from the CCDC's data processing and validation procedures.
#
#######################################################################

data_LOFKOI
_symmetry_cell_setting           triclinic
_symmetry_space_group_name_H-M   'P -1'
_symmetry_Int_Tables_number      2
_space_group_name_Hall           '-P 1'
loop_
_symmetry_equiv_pos_site_id
_symmetry_equiv_pos_as_xyz
1 x,y,z
2 -x,-y,-z
_cell_length_a                   12.159(3)
_cell_length_b                   12.311(3)
_cell_length_c                   12.361(3)
_cell_angle_alpha                68.914(4)
_cell_angle_beta                 65.452(5)
_cell_angle_gamma                72.928(5)
_cell_volume                     1547.57
loop_
_atom_site_label
_atom_site_type_symbol
_atom_site_fract_x
_atom_site_fract_y
_atom_site_fract_z
O6 O 0.9667(14) 0.0707(9) 0.0322(13)
O7 O 0.9176(8) 0.0110(13) -0.0305(6)
C25 C 1.0000 0.0000 0.0000
O6A O 1.0333(14) -0.0707(9) -0.0322(13)
O7A O 1.0824(8) -0.0110(13) 0.0305(6)
K1 K 0.51783(8) 0.66819(7) 0.43459(7)
O1 O 0.5393(3) 0.8611(2) 0.2288(2)
O2 O 0.9394(2) 1.2057(2) -0.4467(2)
O3 O 1.2129(3) 0.5593(2) -0.1104(3)
O4 O 0.5689(3) 0.4923(3) 0.3270(3)
O5 O 0.2820(3) 0.6742(3) 0.4873(3)
N1 N 0.8327(2) 0.8136(2) -0.1827(2)
N2 N 0.7147(3) 0.8510(3) 0.0638(3)
H1 H 0.7826 0.8772 0.0195
N3 N 0.6815(3) 0.9774(3) 0.1759(3)
H2 H 0.7543 0.9897 0.1274
N4 N 0.5106(4) 1.1890(3) 0.4222(4)
N5 N 0.8851(3) 1.0567(3) -0.2729(3)
H3 H 0.8964 1.0172 -0.2041
N6 N 1.0104(3) 1.1723(3) -0.2906(3)
H4 H 1.0129 1.1237 -0.2210
N7 N 1.2084(4) 1.4467(3) -0.4138(4)
N8 N 1.0713(3) 0.7262(3) -0.1361(3)
H5 H 1.0303 0.7876 -0.1105
N9 N 1.1802(3) 0.7008(3) -0.0134(3)
H6 H 1.1402 0.7700 -0.0074
N10 N 1.4087(4) 0.5567(4) 0.1985(4)
C1 C 0.7053(3) 0.8000(4) -0.1048(3)
H7 H 0.6824 0.7419 -0.1241
H8 H 0.6517 0.8746 -0.1232
C2 C 0.6870(4) 0.7615(4) 0.0317(4)
H9 H 0.6029 0.7500 0.0801
H10 H 0.7405 0.6870 0.0508
C3 C 0.6377(4) 0.8941(3) 0.1604(3)
C4 C 0.6205(4) 1.0430(3) 0.2612(3)
C5 C 0.4951(4) 1.0601(4) 0.3240(4)
H11 H 0.4446 1.0237 0.3136
C6 C 0.4464(4) 1.1316(4) 0.4019(4)
H12 H 0.3621 1.1409 0.4438
C7 C 0.6310(6) 1.1697(4) 0.3631(5)
H13 H 0.6789 1.2072 0.3759
C8 C 0.6907(5) 1.0980(4) 0.2842(4)
H14 H 0.7756 1.0867 0.2473
C9 C 0.8388(4) 0.8922(3) -0.3061(3)
H15 H 0.7847 0.8729 -0.3336
H16 H 0.9217 0.8791 -0.3637
C10 C 0.8024(4) 1.0212(3) -0.3077(4)
H17 H 0.8040 1.0694 -0.3899
H18 H 0.7193 1.0349 -0.2506
C11 C 0.9440(3) 1.1484(3) -0.3443(3)
C12 C 1.0736(3) 1.2658(3) -0.3360(3)
C13 C 1.1091(4) 1.3328(4) -0.4576(4)
H19 H 1.0895 1.3191 -0.5162
C14 C 1.1751(5) 1.4216(5) -0.4896(5)
H20 H 1.1976 1.4670 -0.5715
C15 C 1.1716(4) 1.3821(4) -0.2966(5)
H21 H 1.1909 1.3990 -0.2396
C16 C 1.1070(4) 1.2927(4) -0.2554(4)
H22 H 1.0853 1.2495 -0.1727
C17 C 0.9115(3) 0.6987(3) -0.1908(4)
H23 H 0.9000 0.6725 -0.2500
H24 H 0.8861 0.6415 -0.1109
C18 C 1.0451(4) 0.7017(4) -0.2288(4)
H25 H 1.0928 0.6261 -0.2420
H26 H 1.0698 0.7620 -0.3064
C19 C 1.1583(3) 0.6550(3) -0.0891(3)
C20 C 1.2588(3) 0.6483(4) 0.0534(3)
C21 C 1.3143(4) 0.5307(4) 0.0750(4)
H27 H 1.3031 0.4801 0.0413
C22 C 1.3860(5) 0.4910(5) 0.1470(5)
H28 H 1.4219 0.4117 0.1613
C23 C 1.3579(5) 0.6700(5) 0.1740(4)
H29 H 1.3737 0.7189 0.2064
C24 C 1.2838(4) 0.7191(4) 0.1042(4)
H30 H 1.2503 0.7991 0.0907
H31 H 0.622(5) 0.465(4) 0.289(5)
H32 H 0.505(6) 0.513(5) 0.281(5)
H33 H 0.265(4) 0.612(4) 0.506(4)
H34 H 0.216(5) 0.719(5) 0.472(5)
K1A K 0.48217(8) 0.33181(7) 0.56541(7)
K1A_2 K 0.48217(8) 1.33181(7) 0.56541(7)
K1A_3 K 1.48217(8) 1.33181(7) -0.43459(7)
O4A O 0.4311(3) 0.5077(3) 0.6730(3)
N4A N 0.4894(4) 0.8110(3) 0.5778(4)
N7A N 0.7916(4) 0.5533(3) 0.4138(4)
loop_
_geom_bond_atom_site_label_1
_geom_bond_atom_site_label_2
_geom_bond_site_symmetry_1
_geom_bond_site_symmetry_2
K1 O1 1_555 1_555
O1 C3 1_555 1_555
O2 C11 1_555 1_555
O3 C19 1_555 1_555
O4 K1 1_555 1_555
O5 K1 1_555 1_555
N1 C1 1_555 1_555
N2 H1 1_555 1_555
N3 H2 1_555 1_555
N4 C6 1_555 1_555
N5 H3 1_555 1_555
N6 H4 1_555 1_555
N7 C14 1_555 1_555
N8 H5 1_555 1_555
N9 H6 1_555 1_555
N10 C22 1_555 1_555
C1 H7 1_555 1_555
H8 C1 1_555 1_555
C2 N2 1_555 1_555
H9 C2 1_555 1_555
H10 C2 1_555 1_555
C3 N2 1_555 1_555
C4 N3 1_555 1_555
C5 C4 1_555 1_555
H11 C5 1_555 1_555
C6 C5 1_555 1_555
H12 C6 1_555 1_555
C7 N4 1_555 1_555
H13 C7 1_555 1_555
C8 C4 1_555 1_555
H14 C8 1_555 1_555
C9 N1 1_555 1_555
H15 C9 1_555 1_555
H16 C9 1_555 1_555
C10 N5 1_555 1_555
H17 C10 1_555 1_555
H18 C10 1_555 1_555
C11 N5 1_555 1_555
C12 N6 1_555 1_555
C13 C12 1_555 1_555
H19 C13 1_555 1_555
C14 C13 1_555 1_555
H20 C14 1_555 1_555
C15 N7 1_555 1_555
H21 C15 1_555 1_555
C16 C12 1_555 1_555
H22 C16 1_555 1_555
C17 N1 1_555 1_555
H23 C17 1_555 1_555
H24 C17 1_555 1_555
C18 N8 1_555 1_555
H25 C18 1_555 1_555
H26 C18 1_555 1_555
C19 N8 1_555 1_555
C20 N9 1_555 1_555
C21 C20 1_555 1_555
H27 C21 1_555 1_555
C22 C21 1_555 1_555
H28 C22 1_555 1_555
C23 N10 1_555 1_555
H29 C23 1_555 1_555
C24 C20 1_555 1_555
H30 C24 1_555 1_555
H31 O4 1_555 1_555
H32 O4 1_555 1_555
H33 O5 1_555 1_555
H34 O5 1_555 1_555
O6 C25 1_555 1_555
O7 C25 1_555 1_555
C25 O6A 1_555 1_555
K1A O4 1_555 1_555
K1A_2 N4 1_555 1_555
K1A_3 N7 1_555 1_555
O4A K1 1_555 1_555
N4A K1 1_555 1_555
N7A K1 1_555 1_555
O7A C25 1_555 1_555
N3 C3 1_555 1_555
N6 C11 1_555 1_555
N9 C19 1_555 1_555
C1 C2 1_555 1_555
C7 C8 1_555 1_555
C9 C10 1_555 1_555
C15 C16 1_555 1_555
C17 C18 1_555 1_555
C23 C24 1_555 1_555
K1A O4A 1_555 1_555

#END
