
#######################################################################
#
#                 Cambridge Crystallographic Data Centre
#                                CCDC 
#
#######################################################################
#
# If this CIF has been generated from an entry in the Cambridge 
# Structural Database, then it will include bibliographic, chemical, 
# crystal, experimental, refinement or atomic coordinate data resulting 
# from the CCDC's data processing and validation procedures.
#
#######################################################################

data_LOFKEX
_symmetry_cell_setting           monoclinic
_symmetry_space_group_name_H-M   'P 21/c'
_symmetry_Int_Tables_number      14
_space_group_name_Hall           '-P 2ybc'
loop_
_symmetry_equiv_pos_site_id
_symmetry_equiv_pos_as_xyz
1 x,y,z
2 -x,1/2+y,1/2-z
3 -x,-y,-z
4 x,1/2-y,1/2+z
_cell_length_a                   6.1204(17)
_cell_length_b                   11.225(2)
_cell_length_c                   6.811(2)
_cell_angle_alpha                90
_cell_angle_beta                 114.250(13)
_cell_angle_gamma                90
_cell_volume                     426.637
loop_
_atom_site_label
_atom_site_type_symbol
_atom_site_fract_x
_atom_site_fract_y
_atom_site_fract_z
Cd1 Cd 0.74002(4) 0.61005(2) 0.24658(3)
S1 S 0.74135(14) 0.55745(7) -0.11588(14)
C1 C 0.2308(5) 0.7553(3) -0.4868(5)
H1 H 0.1623 0.8258 -0.5566
N1 N 0.2762(5) 0.5715(2) -0.3848(4)
N2 N 0.4636(5) 0.7455(2) -0.3474(4)
N3 N 0.1112(5) 0.6548(2) -0.5133(4)
C2 C 0.4831(5) 0.6285(3) -0.2896(5)
Cd1B Cd 0.25998(4) 0.38995(2) -0.24658(3)
Cd1C Cd 0.74002(4) 0.88995(2) -0.25342(3)
Cd1_2 Cd -0.25998(4) 0.61005(2) -0.75342(3)
N1B N 0.7238(5) 0.4285(2) 0.3848(4)
N2C N 0.4636(5) 0.7545(2) 0.1526(4)
N3_2 N 1.1112(5) 0.6548(2) 0.4867(4)
loop_
_geom_bond_atom_site_label_1
_geom_bond_atom_site_label_2
_geom_bond_site_symmetry_1
_geom_bond_site_symmetry_2
Cd1 S1 1_555 1_555
S1 C2 1_555 1_555
C1 H1 1_555 1_555
N1 N3 1_555 1_555
N2 C1 1_555 1_555
N3 C1 1_555 1_555
C2 N1 1_555 1_555
Cd1B N1 1_555 1_555
Cd1C N2 1_555 1_555
Cd1_2 N3 1_555 1_555
N1B Cd1 1_555 1_555
N2C Cd1 1_555 1_555
N3_2 Cd1 1_555 1_555
N2 C2 1_555 1_555

#END
