
#######################################################################
#
#                 Cambridge Crystallographic Data Centre
#                                CCDC 
#
#######################################################################
#
# If this CIF has been generated from an entry in the Cambridge 
# Structural Database, then it will include bibliographic, chemical, 
# crystal, experimental, refinement or atomic coordinate data resulting 
# from the CCDC's data processing and validation procedures.
#
#######################################################################

data_LOFKUO
_symmetry_cell_setting           monoclinic
_symmetry_space_group_name_H-M   'P 2/c'
_symmetry_Int_Tables_number      13
_space_group_name_Hall           '-P 2yc'
loop_
_symmetry_equiv_pos_site_id
_symmetry_equiv_pos_as_xyz
1 x,y,z
2 -x,y,1/2-z
3 -x,-y,-z
4 x,-y,1/2+z
_cell_length_a                   19.6177(10)
_cell_length_b                   9.3725(3)
_cell_length_c                   26.6897(17)
_cell_angle_alpha                90
_cell_angle_beta                 132.445(8)
_cell_angle_gamma                90
_cell_volume                     3621.26
loop_
_atom_site_label
_atom_site_type_symbol
_atom_site_fract_x
_atom_site_fract_y
_atom_site_fract_z
N1 N 0.1607(4) 0.5180(6) 0.4862(3)
C1 C 0.1893(5) 0.3901(6) 0.4791(3)
H1 H 0.2176 0.3211 0.5129
C2 C 0.1756(6) 0.3655(6) 0.4215(3)
H2 H 0.1948 0.2799 0.4167
C3 C 0.1333(5) 0.4687(7) 0.3710(3)
C4 C 0.1047(5) 0.5966(6) 0.3781(3)
H3 H 0.0763 0.6657 0.3443
C5 C 0.1184(5) 0.6213(6) 0.4357(3)
H4 H 0.0992 0.7068 0.4404
C6 C 0.1205(7) 0.4415(11) 0.3089(5)
H5 H 0.0948 0.5267 0.281
H6 H 0.0757 0.3654 0.2825
C7 C 0.2090(7) 0.4007(11) 0.3243(5)
H7 H 0.259 0.4612 0.3607
H8 H 0.2249 0.303 0.3405
N2 N 0.1912(4) 0.4352(6) 0.1551(2)
C8 C 0.1115(3) 0.4446(8) 0.1445(2)
H9 H 0.0545 0.4581 0.1008
C9 C 0.1171(3) 0.4338(8) 0.1991(3)
H10 H 0.0638 0.4401 0.192
C10 C 0.2023(4) 0.4137(7) 0.2643(3)
C11 C 0.2819(3) 0.4043(8) 0.2749(2)
H11 H 0.3389 0.3908 0.3185
C12 C 0.2764(3) 0.4151(7) 0.2203(3)
H12 H 0.3296 0.4088 0.2274
N3 N 0.3382(5) -0.0770(6) 0.3232(3)
C13 C 0.3542(6) 0.0479(5) 0.3044(4)
H13 H 0.3542 0.1353 0.321
C14 C 0.3700(6) 0.0422(6) 0.2610(4)
H14 H 0.3807 0.1258 0.2484
C15 C 0.3699(6) -0.0885(7) 0.2363(4)
C16 C 0.3540(8) -0.2134(6) 0.2551(5)
H15 H 0.3539 -0.3009 0.2386
C17 C 0.3381(7) -0.2077(5) 0.2985(5)
H16 H 0.3274 -0.2913 0.3111
C18 C 0.3854(8) -0.0893(13) 0.1866(5)
H17 H 0.4174 -0.0028 0.1926
H18 H 0.4238 -0.17 0.1966
C19 C 0.2936(7) -0.0987(11) 0.1134(5)
H19 H 0.2488 -0.0385 0.1079
H20 H 0.2713 -0.1961 0.1037
N4 N 0.3086(4) 0.0264(7) -0.0352(3)
C20 C 0.2243(3) 0.0245(8) -0.0520(2)
H21 H 0.1705 0.0495 -0.0956
C21 C 0.2205(4) -0.0149(9) -0.0037(3)
H22 H 0.1641 -0.0162 -0.015
C22 C 0.3009(5) -0.0523(8) 0.0614(3)
C23 C 0.3852(4) -0.0503(8) 0.0782(2)
H23 H 0.439 -0.0754 0.1218
C24 C 0.3890(3) -0.0110(8) 0.0299(3)
H24 H 0.4454 -0.0097 0.0412
Ni1 Ni 0.17949(8) 0.45211(12) 0.07194(6)
Ni2 Ni 0.32043(8) 0.05722(12) -0.10765(6)
O1 O 0.2603(5) 0.2571(7) -0.1325(4)
O2 O 0.4457(5) 0.1734(11) -0.0355(4)
O3 O 0.6193(5) 0.1404(7) 0.0791(3)
O4 O 0.5183(5) 0.3711(8) 0.0660(3)
O5 O 0.4232(7) 0.6373(9) 0.0098(5)
O6 O 0.3342(5) 0.3929(9) -0.0085(4)
O7 O 0.4493(5) 0.5085(9) 0.1186(4)
O8 O 0.4092(5) 0.2876(8) 0.1663(4)
O9 O 0.500 0.5262(12) 0.250
O10 O 0.3132(5) 0.5225(7) 0.1294(3)
O11 O 0.2235(5) 0.2433(7) 0.0851(4)
O12 O 0.1311(4) 0.6526(7) 0.0595(3)
O13 O 0.0493(5) 0.3579(8) 0.0130(3)
O14 O -0.0445(7) 0.1369(8) -0.0787(4)
O15 O -0.0219(6) 0.1460(8) 0.0422(4)
O16 O 0.1612(7) 0.0872(10) 0.1383(5)
O17 O 0.0566(7) 0.0377(9) 0.1718(4)
O18 O 0.1913(5) 0.0322(7) 0.3179(4)
O19 O 0.0849(6) -0.1920(8) 0.2516(4)
O20 O 0.000 0.0499(11) 0.250
V1 V 0.53840(11) 0.25375(15) 0.02329(8)
V2 V 0.42867(10) 0.48016(16) 0.04559(7)
V3 V 0.41588(12) 0.46003(17) 0.16568(8)
V4 V -0.03747(11) 0.25161(15) -0.02145(7)
V5 V 0.06377(12) 0.03457(16) 0.11064(8)
V6 V 0.08562(11) -0.01750(19) 0.24971(8)
N1A N -0.1607(4) 0.5180(6) 0.0138(3)
C1A C -0.1893(5) 0.3901(6) 0.0209(3)
H1A H -0.2176 0.3211 -0.0129
C2A C -0.1756(6) 0.3655(6) 0.0785(3)
H2A H -0.1948 0.2799 0.0833
C3A C -0.1333(5) 0.4687(7) 0.1290(3)
C4A C -0.1047(5) 0.5966(6) 0.1219(3)
H3A H -0.0763 0.6657 0.1557
C5A C -0.1184(5) 0.6213(6) 0.0643(3)
H4A H -0.0992 0.7068 0.0596
C6A C -0.1205(7) 0.4415(11) 0.1911(5)
H5A H -0.0948 0.5267 0.219
H6A H -0.0757 0.3654 0.2175
C7A C -0.2090(7) 0.4007(11) 0.1757(5)
H7A H -0.259 0.4612 0.1393
H8A H -0.2249 0.303 0.1595
N2A N -0.1912(4) 0.4352(6) 0.3449(2)
C8A C -0.1115(3) 0.4446(8) 0.3555(2)
H9A H -0.0545 0.4581 0.3992
C9A C -0.1171(3) 0.4338(8) 0.3009(3)
H10A H -0.0638 0.4401 0.308
C10A C -0.2023(4) 0.4137(7) 0.2357(3)
C11A C -0.2819(3) 0.4043(8) 0.2251(2)
H11A H -0.3389 0.3908 0.1815
C12A C -0.2764(3) 0.4151(7) 0.2797(3)
H12A H -0.3296 0.4088 0.2726
N3A N -0.3382(5) -0.0770(6) 0.1768(3)
C13A C -0.3542(6) 0.0479(5) 0.1956(4)
H13A H -0.3542 0.1353 0.179
C14A C -0.3700(6) 0.0422(6) 0.2390(4)
H14A H -0.3807 0.1258 0.2516
C15A C -0.3699(6) -0.0885(7) 0.2637(4)
C16A C -0.3540(8) -0.2134(6) 0.2449(5)
H15A H -0.3539 -0.3009 0.2614
C17A C -0.3381(7) -0.2077(5) 0.2015(5)
H16A H -0.3274 -0.2913 0.1889
C18A C -0.3854(8) -0.0893(13) 0.3134(5)
H17A H -0.4174 -0.0028 0.3074
H18A H -0.4238 -0.17 0.3034
C19A C -0.2936(7) -0.0987(11) 0.3866(5)
H19A H -0.2488 -0.0385 0.3921
H20A H -0.2713 -0.1961 0.3963
N4A N -0.3086(4) 0.0264(7) 0.5352(3)
C20A C -0.2243(3) 0.0245(8) 0.5520(2)
H21A H -0.1705 0.0495 0.5956
C21A C -0.2205(4) -0.0149(9) 0.5037(3)
H22A H -0.1641 -0.0162 0.515
C22A C -0.3009(5) -0.0523(8) 0.4386(3)
C23A C -0.3852(4) -0.0503(8) 0.4218(2)
H23A H -0.439 -0.0754 0.3782
C24A C -0.3890(3) -0.0110(8) 0.4701(3)
H24A H -0.4454 -0.0097 0.4588
Ni1A Ni -0.17949(8) 0.45211(12) 0.42806(6)
Ni2A Ni -0.32043(8) 0.05722(12) 0.60765(6)
O1A O -0.2603(5) 0.2571(7) 0.6325(4)
O2A O -0.4457(5) 0.1734(11) 0.5355(4)
O3A O -0.6193(5) 0.1404(7) 0.4209(3)
O4A O -0.5183(5) 0.3711(8) 0.4340(3)
O5A O -0.4232(7) 0.6373(9) 0.4902(5)
O6A O -0.3342(5) 0.3929(9) 0.5085(4)
O7A O -0.4493(5) 0.5085(9) 0.3814(4)
O8A O -0.4092(5) 0.2876(8) 0.3337(4)
O10A O -0.3132(5) 0.5225(7) 0.3706(3)
O11A O -0.2235(5) 0.2433(7) 0.4149(4)
O12A O -0.1311(4) 0.6526(7) 0.4405(3)
O13A O -0.0493(5) 0.3579(8) 0.4870(3)
O14A O 0.0445(7) 0.1369(8) 0.5787(4)
O15A O 0.0219(6) 0.1460(8) 0.4578(4)
O16A O -0.1612(7) 0.0872(10) 0.3617(5)
O17A O -0.0566(7) 0.0377(9) 0.3282(4)
O18A O -0.1913(5) 0.0322(7) 0.1821(4)
O19A O -0.0849(6) -0.1920(8) 0.2484(4)
V1A V -0.53840(11) 0.25375(15) 0.47671(8)
V2A V -0.42867(10) 0.48016(16) 0.45441(7)
V3A V -0.41588(12) 0.46003(17) 0.33432(8)
V4A V 0.03747(11) 0.25161(15) 0.52145(7)
V5A V -0.06377(12) 0.03457(16) 0.38936(8)
V6A V -0.08562(11) -0.01750(19) 0.25029(8)
N1B N -0.1607(4) 0.4820(6) 0.5138(3)
N1C N 0.1607(4) 0.4820(6) -0.0138(3)
N3B N -0.3382(5) 0.0770(6) 0.6768(3)
N3C N 0.3382(5) 0.0770(6) -0.1768(3)
Ni1B Ni -0.17949(8) 0.54789(12) -0.07194(6)
Ni1C Ni 0.17949(8) 0.54789(12) 0.57194(6)
Ni2B Ni -0.32043(8) -0.05722(12) 0.10765(6)
Ni2B_2 Ni 0.67957(8) -0.05722(12) 0.10765(6)
Ni2C Ni -0.67957(8) -0.05722(12) 0.39235(6)
Ni2C_2 Ni 0.32043(8) -0.05722(12) 0.39235(6)
O3B O 0.3807(5) -0.1404(7) -0.0791(3)
O3C O -0.3807(5) -0.1404(7) 0.5791(3)
O5B O 0.5768(7) 0.3627(9) -0.0098(5)
O5C O -0.5768(7) 0.3627(9) 0.5098(5)
O9_2 O -0.500 0.5262(12) 0.250
O12B O -0.1311(4) 0.3474(7) -0.0595(3)
O12C O 0.1311(4) 0.3474(7) 0.5595(3)
O14B O 0.0445(7) -0.1369(8) 0.0787(4)
O14C O -0.0445(7) -0.1369(8) 0.4213(4)
O18B O -0.1913(5) -0.0322(7) 0.6821(4)
O18C O 0.1913(5) -0.0322(7) -0.1821(4)
V1B V 0.46160(11) 0.74625(15) -0.02329(8)
V1C V -0.46160(11) 0.74625(15) 0.52329(8)
V3A_2 V 0.58412(12) 0.46003(17) 0.33432(8)
V4B V 0.03747(11) 0.74839(15) 0.02145(7)
V4C V -0.03747(11) 0.74839(15) 0.47855(7)
V5B V -0.06377(12) -0.03457(16) -0.11064(8)
V5C V 0.06377(12) -0.03457(16) 0.61064(8)
loop_
_geom_bond_atom_site_label_1
_geom_bond_atom_site_label_2
_geom_bond_site_symmetry_1
_geom_bond_site_symmetry_2
N1 C1 1_555 1_555
C1 H1 1_555 1_555
C2 C1 1_555 1_555
H2 C2 1_555 1_555
C3 C2 1_555 1_555
C4 C3 1_555 1_555
H3 C4 1_555 1_555
C5 N1 1_555 1_555
H4 C5 1_555 1_555
C6 C3 1_555 1_555
H5 C6 1_555 1_555
H6 C6 1_555 1_555
C7 C6 1_555 1_555
H7 C7 1_555 1_555
H8 C7 1_555 1_555
N2 C8 1_555 1_555
C8 H9 1_555 1_555
C9 C8 1_555 1_555
H10 C9 1_555 1_555
C10 C7 1_555 1_555
C11 C10 1_555 1_555
H11 C11 1_555 1_555
C12 N2 1_555 1_555
H12 C12 1_555 1_555
N3 C13 1_555 1_555
C13 H13 1_555 1_555
C14 C13 1_555 1_555
H14 C14 1_555 1_555
C15 C14 1_555 1_555
C16 C15 1_555 1_555
H15 C16 1_555 1_555
C17 N3 1_555 1_555
H16 C17 1_555 1_555
C18 C15 1_555 1_555
H17 C18 1_555 1_555
H18 C18 1_555 1_555
C19 C18 1_555 1_555
H19 C19 1_555 1_555
H20 C19 1_555 1_555
N4 C20 1_555 1_555
C20 H21 1_555 1_555
C21 C20 1_555 1_555
H22 C21 1_555 1_555
C22 C19 1_555 1_555
C23 C22 1_555 1_555
H23 C23 1_555 1_555
C24 N4 1_555 1_555
H24 C24 1_555 1_555
Ni1 N2 1_555 1_555
Ni2 N4 1_555 1_555
O1 Ni2 1_555 1_555
O2 Ni2 1_555 1_555
O3 V1 1_555 1_555
O4 V1 1_555 1_555
O5 V2 1_555 1_555
O6 V2 1_555 1_555
O7 V2 1_555 1_555
O8 V3 1_555 1_555
O9 V3 1_555 1_555
O10 Ni1 1_555 1_555
O11 Ni1 1_555 1_555
O12 Ni1 1_555 1_555
O13 Ni1 1_555 1_555
O14 V4 1_555 1_555
O15 V4 1_555 1_555
O16 V5 1_555 1_555
O17 V5 1_555 1_555
O18 V6 1_555 1_555
O19 V6 1_555 1_555
O20 V6 1_555 1_555
V1 O2 1_555 1_555
V2 O4 1_555 1_555
V3 O7 1_555 1_555
V4 O13 1_555 1_555
V5 O15 1_555 1_555
V6 O17 1_555 1_555
N1A C1A 1_555 1_555
C1A H1A 1_555 1_555
C2A C1A 1_555 1_555
H2A C2A 1_555 1_555
C3A C2A 1_555 1_555
C4A C3A 1_555 1_555
H3A C4A 1_555 1_555
C5A N1A 1_555 1_555
H4A C5A 1_555 1_555
C6A C3A 1_555 1_555
H5A C6A 1_555 1_555
H6A C6A 1_555 1_555
C7A C6A 1_555 1_555
H7A C7A 1_555 1_555
H8A C7A 1_555 1_555
N2A C8A 1_555 1_555
C8A H9A 1_555 1_555
C9A C8A 1_555 1_555
H10A C9A 1_555 1_555
C10A C7A 1_555 1_555
C11A C10A 1_555 1_555
H11A C11A 1_555 1_555
C12A N2A 1_555 1_555
H12A C12A 1_555 1_555
N3A C13A 1_555 1_555
C13A H13A 1_555 1_555
C14A C13A 1_555 1_555
H14A C14A 1_555 1_555
C15A C14A 1_555 1_555
C16A C15A 1_555 1_555
H15A C16A 1_555 1_555
C17A N3A 1_555 1_555
H16A C17A 1_555 1_555
C18A C15A 1_555 1_555
H17A C18A 1_555 1_555
H18A C18A 1_555 1_555
C19A C18A 1_555 1_555
H19A C19A 1_555 1_555
H20A C19A 1_555 1_555
N4A C20A 1_555 1_555
C20A H21A 1_555 1_555
C21A C20A 1_555 1_555
H22A C21A 1_555 1_555
C22A C19A 1_555 1_555
C23A C22A 1_555 1_555
H23A C23A 1_555 1_555
C24A N4A 1_555 1_555
H24A C24A 1_555 1_555
Ni1A N2A 1_555 1_555
Ni2A N4A 1_555 1_555
O1A Ni2A 1_555 1_555
O2A Ni2A 1_555 1_555
O3A V1A 1_555 1_555
O4A V1A 1_555 1_555
O5A V2A 1_555 1_555
O6A V2A 1_555 1_555
O7A V2A 1_555 1_555
O8A V3A 1_555 1_555
O10A Ni1A 1_555 1_555
O11A Ni1A 1_555 1_555
O12A Ni1A 1_555 1_555
O13A Ni1A 1_555 1_555
O14A V4A 1_555 1_555
O15A V4A 1_555 1_555
O16A V5A 1_555 1_555
O17A V5A 1_555 1_555
O18A V6A 1_555 1_555
O19A V6A 1_555 1_555
V1A O2A 1_555 1_555
V2A O4A 1_555 1_555
V3A O7A 1_555 1_555
V4A O13A 1_555 1_555
V5A O15A 1_555 1_555
V6A O20 1_555 1_555
N1B Ni1A 1_555 1_555
N1C Ni1 1_555 1_555
N3B Ni2A 1_555 1_555
N3C Ni2 1_555 1_555
Ni1B N1A 1_555 1_555
Ni1C N1 1_555 1_555
Ni2B N3A 1_555 1_555
Ni2B_2 O3 1_555 1_555
Ni2C O3A 1_555 1_555
Ni2C_2 N3 1_555 1_555
O3B Ni2 1_555 1_555
O3C Ni2A 1_555 1_555
O5B V1 1_555 1_555
O5C V1A 1_555 1_555
O9_2 V3A 1_555 1_555
O12B V4 1_555 1_555
O12C V4A 1_555 1_555
O14B V5 1_555 1_555
O14C V5A 1_555 1_555
O18B Ni2A 1_555 1_555
O18C Ni2 1_555 1_555
V1B O5 1_555 1_555
V1C O5A 1_555 1_555
V3A_2 O9 1_555 1_555
V4B O12 1_555 1_555
V4C O12A 1_555 1_555
V5B O14 1_555 1_555
V5C O14A 1_555 1_555
C4 C5 1_555 1_555
C9 C10 1_555 1_555
C11 C12 1_555 1_555
C16 C17 1_555 1_555
C21 C22 1_555 1_555
C23 C24 1_555 1_555
O10 V3 1_555 1_555
O18 Ni2C_2 1_555 1_555
C4A C5A 1_555 1_555
C9A C10A 1_555 1_555
C11A C12A 1_555 1_555
C16A C17A 1_555 1_555
C21A C22A 1_555 1_555
C23A C24A 1_555 1_555
O10A V3A 1_555 1_555
O17A V6A 1_555 1_555
O18A Ni2B 1_555 1_555
Ni1B O12B 1_555 1_555
Ni1C O12C 1_555 1_555

#END
