
#######################################################################
#
#                 Cambridge Crystallographic Data Centre
#                                CCDC 
#
#######################################################################
#
# If this CIF has been generated from an entry in the Cambridge 
# Structural Database, then it will include bibliographic, chemical, 
# crystal, experimental, refinement or atomic coordinate data resulting 
# from the CCDC's data processing and validation procedures.
#
#######################################################################

data_LOFKEY
_symmetry_cell_setting           cubic
_symmetry_space_group_name_H-M   'P a -3'
_symmetry_Int_Tables_number      205
_space_group_name_Hall           '-P 2ac 2ab 3'
loop_
_symmetry_equiv_pos_site_id
_symmetry_equiv_pos_as_xyz
1 x,y,z
2 1/2-x,-y,1/2+z
3 -x,1/2+y,1/2-z
4 1/2+x,1/2-y,-z
5 z,x,y
6 1/2+z,1/2-x,-y
7 1/2-z,-x,1/2+y
8 -z,1/2+x,1/2-y
9 y,z,x
10 -y,1/2+z,1/2-x
11 1/2+y,1/2-z,-x
12 1/2-y,-z,1/2+x
13 -x,-y,-z
14 1/2+x,y,1/2-z
15 x,1/2-y,1/2+z
16 1/2-x,1/2+y,z
17 -z,-x,-y
18 1/2-z,1/2+x,y
19 1/2+z,x,1/2-y
20 z,1/2-x,1/2+y
21 -y,-z,-x
22 y,1/2-z,1/2+x
23 1/2-y,1/2+z,x
24 1/2+y,z,1/2-x
_cell_length_a                   18.037(6)
_cell_length_b                   18.037(6)
_cell_length_c                   18.037(6)
_cell_angle_alpha                90
_cell_angle_beta                 90
_cell_angle_gamma                90
_cell_volume                     5868.04
loop_
_atom_site_label
_atom_site_type_symbol
_atom_site_fract_x
_atom_site_fract_y
_atom_site_fract_z
K1 K 0.93610(5) 0.93610(5) -0.06390(5)
O1 O 0.90389(19) 0.93735(18) -0.20751(17)
O2 O 0.9436(4) 0.9594(3) 0.0877(3)
N1 N 0.82281(18) 1.17719(18) -0.32281(18)
N2 N 0.9257(2) 0.9242(2) -0.3309(2)
H1 H 0.9271 0.9480 -0.3722
N3 N 0.8876(3) 1.0354(2) -0.2839(3)
H2 H 0.8921 1.0513 -0.3286
N4 N 0.9770(3) 0.6993(3) -0.3523(3)
C1 C 0.9239(3) 0.7977(3) -0.2809(3)
H3 H 0.8986 0.8118 -0.2382
C2 C 0.9421(3) 0.7248(3) -0.2927(3)
H4 H 0.9291 0.6907 -0.2563
C3 C 0.9058(3) 0.9641(3) -0.2696(3)
C4 C 0.8008(3) 1.1335(3) -0.2580(3)
H5 H 0.7595 1.1019 -0.2717
H6 H 0.7836 1.1671 -0.2196
C5 C 0.9436(2) 0.8499(3) -0.3335(2)
C6 C 0.9813(4) 0.8252(4) -0.3947(3)
H7 H 0.9965 0.8587 -0.4308
C7 C 0.8608(4) 1.0869(3) -0.2274(3)
H8 H 0.9013 1.1181 -0.2107
H9 H 0.8424 1.0593 -0.1850
C8 C 0.9960(4) 0.7538(6) -0.4025(3)
H10 H 1.0211 0.7393 -0.4451
O1F O 0.70751(17) 1.09611(19) -0.56265(18)
N2F N 0.8309(2) 1.0743(2) -0.5758(2)
H1F H 0.8722 1.0729 -0.5520
N3F N 0.7839(3) 1.1124(3) -0.4646(2)
H2F H 0.8286 1.1079 -0.4487
N4F N 0.8523(3) 1.0230(3) -0.8007(3)
C1F C 0.7809(3) 1.0761(3) -0.7023(3)
H3F H 0.7382 1.1014 -0.6882
C2F C 0.7927(3) 1.0579(3) -0.7752(3)
H4F H 0.7563 1.0709 -0.8093
C3F C 0.7696(3) 1.0942(3) -0.5359(3)
C4F C 0.7580(3) 1.1992(3) -0.3665(3)
H5F H 0.7717 1.2405 -0.3981
H6F H 0.7196 1.2164 -0.3329
C5F C 0.8335(2) 1.0564(2) -0.6501(3)
C6F C 0.8947(3) 1.0187(4) -0.6748(4)
H7F H 0.9308 1.0035 -0.6413
C7F C 0.7274(3) 1.1392(4) -0.4131(3)
H8F H 0.7107 1.0987 -0.3819
H9F H 0.6850 1.1576 -0.4407
C8F C 0.9025(3) 1.0040(4) -0.7462(6)
H10F H 0.9451 0.9789 -0.7607
O1I O 1.06265(18) 1.29249(17) -0.40389(19)
N2I N 1.0758(2) 1.1691(2) -0.4257(2)
H1I H 1.0520 1.1278 -0.4271
N3I N 0.9646(2) 1.2161(3) -0.3876(3)
H2I H 0.9487 1.1714 -0.3921
N4I N 1.3007(3) 1.1477(3) -0.4770(3)
C1I C 1.2023(3) 1.2191(3) -0.4239(3)
H3I H 1.1882 1.2618 -0.3986
C2I C 1.2752(3) 1.2073(3) -0.4421(3)
H4I H 1.3093 1.2437 -0.4291
C3I C 1.0359(3) 1.2304(3) -0.4058(3)
C4I C 0.8665(3) 1.2420(3) -0.3008(3)
H5I H 0.8981 1.2283 -0.2595
H6I H 0.8329 1.2804 -0.2836
C5I C 1.1501(3) 1.1665(2) -0.4436(2)
C6I C 1.1748(4) 1.1053(3) -0.4813(4)
H7I H 1.1413 1.0692 -0.4965
C7I C 0.9131(3) 1.2726(3) -0.3608(4)
H8I H 0.8819 1.2893 -0.4013
H9I H 0.9407 1.3150 -0.3424
C8I C 1.2462(6) 1.0975(3) -0.4960(4)
H10I H 1.2607 1.0549 -0.5211
O2D O 1.0877(3) 0.9436(4) -0.0406(3)
O2H O 0.9594(3) 1.0877(3) -0.0564(4)
K1A K 0.56390(5) 1.06390(5) -0.56390(5)
K1B K 1.06390(5) 1.43610(5) -0.43610(5)
K1L K 1.06390(5) 1.06390(5) 0.06390(5)
O1D O 0.79249(17) 0.90389(19) -0.06265(18)
O1H O 0.93735(18) 0.79249(17) -0.09611(19)
O2L O 1.0564(4) 1.0406(3) -0.0877(3)
O2P O 0.9123(3) 1.0564(4) 0.0406(3)
O2T O 1.0406(3) 0.9123(3) 0.0564(4)
F1 F 0.93213(17) 0.06787(17) 0.56787(17)
loop_
_geom_bond_atom_site_label_1
_geom_bond_atom_site_label_2
_geom_bond_site_symmetry_1
_geom_bond_site_symmetry_2
K1 O1 1_555 1_555
O1 C3 1_555 1_555
O2 K1 1_555 1_555
N1 C4 1_555 1_555
N2 H1 1_555 1_555
N3 H2 1_555 1_555
N4 C2 1_555 1_555
C1 H3 1_555 1_555
C2 C1 1_555 1_555
H4 C2 1_555 1_555
C3 N2 1_555 1_555
C4 H5 1_555 1_555
H6 C4 1_555 1_555
C5 N2 1_555 1_555
C6 C5 1_555 1_555
H7 C6 1_555 1_555
C7 N3 1_555 1_555
H8 C7 1_555 1_555
H9 C7 1_555 1_555
C8 N4 1_555 1_555
H10 C8 1_555 1_555
O1F C3F 1_555 1_555
N2F H1F 1_555 1_555
N3F H2F 1_555 1_555
N4F C2F 1_555 1_555
C1F H3F 1_555 1_555
C2F C1F 1_555 1_555
H4F C2F 1_555 1_555
C3F N2F 1_555 1_555
C4F N1 1_555 1_555
H5F C4F 1_555 1_555
H6F C4F 1_555 1_555
C5F N2F 1_555 1_555
C6F C5F 1_555 1_555
H7F C6F 1_555 1_555
C7F N3F 1_555 1_555
H8F C7F 1_555 1_555
H9F C7F 1_555 1_555
C8F N4F 1_555 1_555
H10F C8F 1_555 1_555
O1I C3I 1_555 1_555
N2I H1I 1_555 1_555
N3I H2I 1_555 1_555
N4I C2I 1_555 1_555
C1I H3I 1_555 1_555
C2I C1I 1_555 1_555
H4I C2I 1_555 1_555
C3I N2I 1_555 1_555
C4I N1 1_555 1_555
H5I C4I 1_555 1_555
H6I C4I 1_555 1_555
C5I N2I 1_555 1_555
C6I C5I 1_555 1_555
H7I C6I 1_555 1_555
C7I N3I 1_555 1_555
H8I C7I 1_555 1_555
H9I C7I 1_555 1_555
C8I N4I 1_555 1_555
H10I C8I 1_555 1_555
O2D K1 1_555 1_555
O2H K1 1_555 1_555
K1A O1F 1_555 1_555
K1B O1I 1_555 1_555
K1L O2 1_555 1_555
O1D K1 1_555 1_555
O1H K1 1_555 1_555
O2L K1 1_555 1_555
O2P K1 1_555 1_555
O2T K1 1_555 1_555
N3 C3 1_555 1_555
C1 C5 1_555 1_555
C4 C7 1_555 1_555
C6 C8 1_555 1_555
N3F C3F 1_555 1_555
C1F C5F 1_555 1_555
C4F C7F 1_555 1_555
C6F C8F 1_555 1_555
N3I C3I 1_555 1_555
C1I C5I 1_555 1_555
C4I C7I 1_555 1_555
C6I C8I 1_555 1_555
O2D K1L 1_555 1_555
O2H K1L 1_555 1_555
K1L O2L 1_555 1_555
K1L O2P 1_555 1_555
K1L O2T 1_555 1_555

#END
