
#######################################################################
#
#                 Cambridge Crystallographic Data Centre
#                                CCDC 
#
#######################################################################
#
# If this CIF has been generated from an entry in the Cambridge 
# Structural Database, then it will include bibliographic, chemical, 
# crystal, experimental, refinement or atomic coordinate data resulting 
# from the CCDC's data processing and validation procedures.
#
#######################################################################

data_LOFRON
_symmetry_cell_setting           orthorhombic
_symmetry_space_group_name_H-M   'P 21 21 21'
_symmetry_Int_Tables_number      19
_space_group_name_Hall           'P 2ac 2ab'
loop_
_symmetry_equiv_pos_site_id
_symmetry_equiv_pos_as_xyz
1 x,y,z
2 1/2-x,-y,1/2+z
3 -x,1/2+y,1/2-z
4 1/2+x,1/2-y,-z
_cell_length_a                   17.0365(5)
_cell_length_b                   23.3634(8)
_cell_length_c                   29.038(1)
_cell_angle_alpha                90
_cell_angle_beta                 90
_cell_angle_gamma                90
_cell_volume                     11558
loop_
_atom_site_label
_atom_site_type_symbol
_atom_site_fract_x
_atom_site_fract_y
_atom_site_fract_z
Au1 Au 0.28431(6) -0.49003(4) 0.66501(3)
Au2 Au 0.49372(4) -0.30753(4) 0.40185(3)
Cl1 Cl 0.2016(4) -0.5382(3) 0.7132(2)
C1 C 0.194(1) -0.502(1) 0.5734(8)
C2 C 0.263(1) -0.4993(9) 0.5476(6)
C3 C 0.300(1) -0.5477(9) 0.5311(7)
C4 C 0.271(2) -0.602(1) 0.5438(8)
C5 C 0.203(1) -0.606(1) 0.5760(8)
C6 C 0.168(1) -0.5611(9) 0.5882(8)
O1 O 0.2929(8) -0.4447(6) 0.5344(5)
C7 C 0.323(1) -0.4072(9) 0.5688(7)
P1 P 0.3665(4) -0.4403(3) 0.6192(2)
C8 C 0.447(1) -0.481(1) 0.6006(8)
C9 C 0.506(1) -0.460(1) 0.5708(8)
C10 C 0.570(1) -0.495(2) 0.554(1)
C11 C 0.571(2) -0.557(1) 0.568(1)
C12 C 0.509(2) -0.575(1) 0.597(1)
C13 C 0.450(1) -0.544(1) 0.6147(9)
C14 C 0.415(1) -0.382(1) 0.6471(6)
C15 C 0.419(2) -0.386(1) 0.687(1)
C16 C 0.452(2) -0.334(1) 0.721(1)
C17 C 0.481(1) -0.288(1) 0.698(1)
C18 C 0.480(2) -0.290(1) 0.6508(8)
C19 C 0.449(1) -0.338(1) 0.6243(8)
C20 C 0.174(2) -0.662(1) 0.597(1)
C21 C 0.245(3) -0.683(1) 0.623(1)
C22 C 0.167(2) -0.697(2) 0.556(1)
C23 C 0.099(2) -0.646(2) 0.633(2)
C24 C 0.364(1) -0.543(1) 0.4989(8)
C25 C 0.340(1) -0.5364(9) 0.4476(7)
C26 C 0.350(1) -0.4830(8) 0.4223(7)
C27 C 0.316(1) -0.479(1) 0.3768(7)
C28 C 0.279(1) -0.530(1) 0.3592(7)
C29 C 0.272(2) -0.5835(8) 0.3809(8)
C30 C 0.302(1) -0.584(1) 0.4274(7)
O2 O 0.3857(7) -0.4395(6) 0.4407(5)
C31 C 0.466(1) -0.449(1) 0.4456(7)
P2 P 0.5247(3) -0.4065(2) 0.4030(2)
C32 C 0.621(1) -0.4245(8) 0.4259(7)
C33 C 0.667(1) -0.469(1) 0.409(1)
C34 C 0.736(1) -0.483(1) 0.429(1)
C35 C 0.764(2) -0.450(1) 0.465(1)
C36 C 0.717(1) -0.408(1) 0.4839(9)
C37 C 0.645(1) -0.396(1) 0.4627(8)
C38 C 0.518(1) -0.4402(9) 0.3485(7)
C39 C 0.501(1) -0.5012(8) 0.3419(9)
C40 C 0.497(2) -0.5231(9) 0.2966(8)
C41 C 0.505(2) -0.492(1) 0.2588(8)
C42 C 0.521(2) -0.433(2) 0.2633(8)
C43 C 0.529(1) -0.408(1) 0.3095(8)
C44 C 0.245(1) -0.6340(9) 0.3572(8)
C45 C 0.316(3) -0.657(1) 0.325(1)
C46 C 0.173(2) -0.620(1) 0.324(1)
C47 C 0.218(2) -0.681(1) 0.388(1)
C48 C 0.318(1) -0.4258(9) 0.3511(6)
C49 C 0.236(1) -0.3992(8) 0.3517(7)
C50 C 0.211(1) -0.3679(8) 0.3883(7)
C51 C 0.130(1) -0.354(1) 0.3931(7)
C52 C 0.085(1) -0.364(1) 0.3543(8)
C53 C 0.109(1) -0.3918(9) 0.3163(6)
C54 C 0.184(1) -0.4099(8) 0.3157(7)
O3 O 0.2615(7) -0.3557(6) 0.4241(4)
C55 C 0.285(1) -0.2993(9) 0.4330(7)
P3 P 0.3647(3) -0.2701(3) 0.3929(2)
C56 C 0.322(1) -0.2755(9) 0.3343(8)
C57 C 0.364(2) -0.298(1) 0.296(1)
C58 C 0.333(2) -0.297(1) 0.2537(7)
C59 C 0.262(2) -0.284(1) 0.2475(7)
C60 C 0.221(1) -0.260(1) 0.2805(8)
C61 C 0.245(1) -0.257(1) 0.3264(9)
C62 C 0.363(1) -0.193(1) 0.4078(8)
C63 C 0.343(2) -0.148(1) 0.3786(9)
C64 C 0.354(2) -0.0948(9) 0.391(1)
C65 C 0.382(1) -0.080(1) 0.4329(9)
C66 C 0.398(1) -0.123(1) 0.4609(8)
C67 C 0.391(1) -0.180(1) 0.4509(8)
C68 C 0.052(1) -0.408(1) 0.2761(7)
C69 C 0.056(1) -0.470(1) 0.2643(9)
C70 C 0.074(1) -0.363(2) 0.232(1)
C71 C -0.034(1) -0.395(1) 0.2876(9)
C72 C 0.101(1) -0.3307(9) 0.4383(7)
C73 C 0.082(1) -0.385(1) 0.4674(8)
C74 C 0.108(1) -0.387(1) 0.5133(7)
C75 C 0.099(1) -0.442(1) 0.5353(7)
C76 C 0.062(1) -0.4856(9) 0.5151(7)
C77 C 0.034(1) -0.481(1) 0.4734(9)
C78 C 0.044(1) -0.4307(9) 0.4478(8)
O4 O 0.1458(8) -0.3410(6) 0.5348(4)
C79 C 0.591(1) -0.2050(9) 0.4604(7)
P4 P 0.6039(3) -0.2448(3) 0.4046(2)
C80 C 0.611(1) -0.191(1) 0.3613(7)
C81 C 0.541(1) -0.162(1) 0.3493(8)
C82 C 0.546(1) -0.121(1) 0.317(1)
C83 C 0.615(1) -0.103(1) 0.2950(7)
C84 C 0.680(1) -0.131(1) 0.3062(7)
C85 C 0.683(1) -0.173(1) 0.3405(8)
C86 C 0.702(1) -0.2779(8) 0.4056(7)
C87 C 0.718(1) -0.3208(9) 0.3748(7)
C88 C 0.791(1) -0.344(1) 0.3720(8)
C89 C 0.851(1) -0.326(1) 0.399(1)
C90 C 0.836(1) -0.279(1) 0.4310(8)
C91 C 0.767(1) -0.257(1) 0.4320(7)
C92 C -0.001(1) -0.537(1) 0.4468(9)
C93 C 0.064(2) -0.585(1) 0.447(1)
C94 C -0.037(2) -0.525(2) 0.399(1)
C95 C -0.062(3) -0.564(1) 0.480(1)
C96 C 0.137(2) -0.451(1) 0.5811(7)
Cl2 Cl 0.4766(3) -0.3113(3) 0.5050(2)
H1 H 0.2947 -0.6354 0.5318
H2 H 0.1230 -0.5643 0.6075
H3 H 0.2817 -0.3835 0.5789
H4 H 0.3628 -0.3843 0.5547
H5 H 0.5040 -0.4214 0.5613
H6 H 0.6101 -0.4793 0.5351
H7 H 0.6107 -0.5827 0.5581
H8 H 0.5084 -0.6151 0.6039
H9 H 0.4127 -0.5601 0.6353
H10 H 0.4037 -0.4207 0.7011
H11 H 0.4495 -0.3349 0.7536
H12 H 0.5025 -0.2558 0.7133
H13 H 0.5011 -0.2583 0.6344
H14 H 0.4528 -0.3380 0.5917
H15 H 0.2326 -0.7183 0.6375
H16 H 0.2875 -0.6880 0.6026
H17 H 0.2584 -0.6554 0.6458
H18 H 0.1496 -0.7338 0.5638
H19 H 0.1307 -0.6793 0.5354
H20 H 0.2170 -0.6992 0.5411
H21 H 0.0801 -0.6797 0.6472
H22 H 0.1182 -0.6206 0.6568
H23 H 0.0585 -0.6274 0.6168
H24 H 0.3958 -0.5762 0.5015
H25 H 0.3944 -0.5102 0.5071
H26 H 0.2569 -0.5266 0.3293
H27 H 0.2961 -0.6181 0.4452
H28 H 0.4767 -0.4882 0.4412
H29 H 0.4814 -0.4377 0.4758
H30 H 0.6500 -0.4900 0.3830
H31 H 0.7647 -0.5154 0.4185
H32 H 0.8149 -0.4564 0.4772
H33 H 0.7338 -0.3872 0.5104
H34 H 0.6127 -0.3674 0.4753
H35 H 0.4934 -0.5257 0.3677
H36 H 0.4871 -0.5629 0.2929
H37 H 0.4994 -0.5085 0.2292
H38 H 0.5276 -0.4097 0.2368
H39 H 0.5409 -0.3687 0.3125
H40 H 0.2995 -0.6900 0.3094
H41 H 0.3298 -0.6278 0.3039
H42 H 0.3598 -0.6655 0.3442
H43 H 0.1564 -0.6544 0.3088
H44 H 0.1303 -0.6054 0.3414
H45 H 0.1882 -0.5928 0.3014
H46 H 0.2016 -0.7125 0.3695
H47 H 0.2603 -0.6927 0.4071
H48 H 0.1758 -0.6680 0.4061
H49 H 0.3329 -0.4333 0.3202
H50 H 0.3542 -0.4003 0.3648
H51 H 0.0326 -0.3491 0.3544
H52 H 0.2019 -0.4309 0.2898
H53 H 0.3041 -0.2977 0.4637
H54 H 0.2400 -0.2754 0.4302
H55 H 0.4144 -0.3139 0.3009
H56 H 0.3651 -0.3061 0.2280
H57 H 0.2376 -0.2915 0.2186
H58 H 0.1713 -0.2445 0.2727
H59 H 0.2118 -0.2428 0.3503
H60 H 0.3219 -0.1556 0.3491
H61 H 0.3415 -0.0655 0.3693
H62 H 0.3899 -0.0408 0.4416
H63 H 0.4164 -0.1136 0.4908
H64 H 0.4037 -0.2090 0.4726
H65 H 0.0211 -0.4780 0.2397
H66 H 0.1083 -0.4796 0.2552
H67 H 0.0420 -0.4922 0.2905
H68 H 0.0412 -0.3714 0.2069
H69 H 0.0658 -0.3249 0.2421
H70 H 0.1274 -0.3682 0.2238
H71 H -0.0665 -0.4056 0.2622
H72 H -0.0495 -0.4162 0.3140
H73 H -0.0401 -0.3553 0.2935
H74 H 0.0548 -0.3083 0.4339
H75 H 0.1400 -0.3081 0.4527
H76 H 0.0565 -0.5207 0.5312
H77 H 0.0246 -0.4281 0.4172
H78 H 0.5393 -0.1898 0.4615
H79 H 0.5983 -0.2310 0.4852
H80 H 0.4926 -0.1719 0.3633
H81 H 0.4992 -0.1017 0.3083
H82 H 0.6152 -0.0729 0.2732
H83 H 0.7273 -0.1229 0.2900
H84 H 0.7314 -0.1887 0.3500
H85 H 0.6780 -0.3346 0.3552
H86 H 0.8005 -0.3730 0.3501
H87 H 0.9006 -0.3443 0.3979
H88 H 0.8768 -0.2651 0.4504
H89 H 0.7589 -0.2244 0.4513
H90 H 0.0451 -0.6180 0.4314
H91 H 0.1098 -0.5713 0.4313
H92 H 0.0776 -0.5946 0.4776
H93 H -0.0554 -0.5600 0.3857
H94 H -0.0795 -0.4991 0.4017
H95 H 0.0018 -0.5090 0.3791
H96 H -0.0838 -0.5975 0.4656
H97 H -0.0372 -0.5748 0.5077
H98 H -0.1027 -0.5375 0.4858
H99 H 0.1657 -0.4182 0.5903
H100 H 0.0993 -0.4603 0.6039
C79C C 0.091(1) -0.2950(9) 0.5396(7)
O4C O 0.6458(8) -0.1590(6) 0.4652(4)
H78C H 0.0393 -0.3102 0.5385
H79C H 0.0983 -0.2690 0.5148
O5 O 0.632(1) -0.310(1) 0.5695(9)
O6 O 0.305(3) -0.820(2) 0.317(2)
loop_
_geom_bond_atom_site_label_1
_geom_bond_atom_site_label_2
_geom_bond_site_symmetry_1
_geom_bond_site_symmetry_2
Au1 Cl1 1_555 1_555
Au2 P2 1_555 1_555
C1 C2 1_555 1_555
C2 C3 1_555 1_555
C3 C4 1_555 1_555
C4 C5 1_555 1_555
C5 C6 1_555 1_555
C6 C1 1_555 1_555
O1 C2 1_555 1_555
C7 O1 1_555 1_555
P1 Au1 1_555 1_555
C8 P1 1_555 1_555
C9 C8 1_555 1_555
C10 C9 1_555 1_555
C11 C10 1_555 1_555
C12 C11 1_555 1_555
C13 C8 1_555 1_555
C14 P1 1_555 1_555
C15 C14 1_555 1_555
C16 C15 1_555 1_555
C17 C16 1_555 1_555
C18 C17 1_555 1_555
C19 C14 1_555 1_555
C20 C5 1_555 1_555
C21 C20 1_555 1_555
C22 C20 1_555 1_555
C23 C20 1_555 1_555
C24 C3 1_555 1_555
C25 C24 1_555 1_555
C26 C25 1_555 1_555
C27 C26 1_555 1_555
C28 C27 1_555 1_555
C29 C28 1_555 1_555
C30 C25 1_555 1_555
O2 C26 1_555 1_555
C31 O2 1_555 1_555
P2 C31 1_555 1_555
C32 P2 1_555 1_555
C33 C32 1_555 1_555
C34 C33 1_555 1_555
C35 C34 1_555 1_555
C36 C35 1_555 1_555
C37 C32 1_555 1_555
C38 P2 1_555 1_555
C39 C38 1_555 1_555
C40 C39 1_555 1_555
C41 C40 1_555 1_555
C42 C41 1_555 1_555
C43 C38 1_555 1_555
C44 C29 1_555 1_555
C45 C44 1_555 1_555
C46 C44 1_555 1_555
C47 C44 1_555 1_555
C48 C27 1_555 1_555
C49 C48 1_555 1_555
C50 C49 1_555 1_555
C51 C50 1_555 1_555
C52 C51 1_555 1_555
C53 C52 1_555 1_555
C54 C49 1_555 1_555
O3 C50 1_555 1_555
C55 O3 1_555 1_555
P3 Au2 1_555 1_555
C56 P3 1_555 1_555
C57 C56 1_555 1_555
C58 C57 1_555 1_555
C59 C58 1_555 1_555
C60 C59 1_555 1_555
C61 C56 1_555 1_555
C62 P3 1_555 1_555
C63 C62 1_555 1_555
C64 C63 1_555 1_555
C65 C64 1_555 1_555
C66 C65 1_555 1_555
C67 C62 1_555 1_555
C68 C53 1_555 1_555
C69 C68 1_555 1_555
C70 C68 1_555 1_555
C71 C68 1_555 1_555
C72 C51 1_555 1_555
C73 C72 1_555 1_555
C74 C73 1_555 1_555
C75 C74 1_555 1_555
C76 C75 1_555 1_555
C77 C76 1_555 1_555
C78 C73 1_555 1_555
O4 C74 1_555 1_555
C79 P4 1_555 1_555
P4 Au2 1_555 1_555
C80 P4 1_555 1_555
C81 C80 1_555 1_555
C82 C81 1_555 1_555
C83 C82 1_555 1_555
C84 C83 1_555 1_555
C85 C80 1_555 1_555
C86 P4 1_555 1_555
C87 C86 1_555 1_555
C88 C87 1_555 1_555
C89 C88 1_555 1_555
C90 C89 1_555 1_555
C91 C86 1_555 1_555
C92 C77 1_555 1_555
C93 C92 1_555 1_555
C94 C92 1_555 1_555
C95 C92 1_555 1_555
C96 C1 1_555 1_555
Cl2 Au2 1_555 1_555
H1 C4 1_555 1_555
H2 C6 1_555 1_555
H3 C7 1_555 1_555
H4 C7 1_555 1_555
H5 C9 1_555 1_555
H6 C10 1_555 1_555
H7 C11 1_555 1_555
H8 C12 1_555 1_555
H9 C13 1_555 1_555
H10 C15 1_555 1_555
H11 C16 1_555 1_555
H12 C17 1_555 1_555
H13 C18 1_555 1_555
H14 C19 1_555 1_555
H15 C21 1_555 1_555
H16 C21 1_555 1_555
H17 C21 1_555 1_555
H18 C22 1_555 1_555
H19 C22 1_555 1_555
H20 C22 1_555 1_555
H21 C23 1_555 1_555
H22 C23 1_555 1_555
H23 C23 1_555 1_555
H24 C24 1_555 1_555
H25 C24 1_555 1_555
H26 C28 1_555 1_555
H27 C30 1_555 1_555
H28 C31 1_555 1_555
H29 C31 1_555 1_555
H30 C33 1_555 1_555
H31 C34 1_555 1_555
H32 C35 1_555 1_555
H33 C36 1_555 1_555
H34 C37 1_555 1_555
H35 C39 1_555 1_555
H36 C40 1_555 1_555
H37 C41 1_555 1_555
H38 C42 1_555 1_555
H39 C43 1_555 1_555
H40 C45 1_555 1_555
H41 C45 1_555 1_555
H42 C45 1_555 1_555
H43 C46 1_555 1_555
H44 C46 1_555 1_555
H45 C46 1_555 1_555
H46 C47 1_555 1_555
H47 C47 1_555 1_555
H48 C47 1_555 1_555
H49 C48 1_555 1_555
H50 C48 1_555 1_555
H51 C52 1_555 1_555
H52 C54 1_555 1_555
H53 C55 1_555 1_555
H54 C55 1_555 1_555
H55 C57 1_555 1_555
H56 C58 1_555 1_555
H57 C59 1_555 1_555
H58 C60 1_555 1_555
H59 C61 1_555 1_555
H60 C63 1_555 1_555
H61 C64 1_555 1_555
H62 C65 1_555 1_555
H63 C66 1_555 1_555
H64 C67 1_555 1_555
H65 C69 1_555 1_555
H66 C69 1_555 1_555
H67 C69 1_555 1_555
H68 C70 1_555 1_555
H69 C70 1_555 1_555
H70 C70 1_555 1_555
H71 C71 1_555 1_555
H72 C71 1_555 1_555
H73 C71 1_555 1_555
H74 C72 1_555 1_555
H75 C72 1_555 1_555
H76 C76 1_555 1_555
H77 C78 1_555 1_555
H78 C79 1_555 1_555
H79 C79 1_555 1_555
H80 C81 1_555 1_555
H81 C82 1_555 1_555
H82 C83 1_555 1_555
H83 C84 1_555 1_555
H84 C85 1_555 1_555
H85 C87 1_555 1_555
H86 C88 1_555 1_555
H87 C89 1_555 1_555
H88 C90 1_555 1_555
H89 C91 1_555 1_555
H90 C93 1_555 1_555
H91 C93 1_555 1_555
H92 C93 1_555 1_555
H93 C94 1_555 1_555
H94 C94 1_555 1_555
H95 C94 1_555 1_555
H96 C95 1_555 1_555
H97 C95 1_555 1_555
H98 C95 1_555 1_555
H99 C96 1_555 1_555
H100 C96 1_555 1_555
C79C O4 1_555 1_555
O4C C79 1_555 1_555
H78C C79C 1_555 1_555
H79C C79C 1_555 1_555
C7 P1 1_555 1_555
C12 C13 1_555 1_555
C18 C19 1_555 1_555
C29 C30 1_555 1_555
C36 C37 1_555 1_555
C42 C43 1_555 1_555
C53 C54 1_555 1_555
C55 P3 1_555 1_555
C60 C61 1_555 1_555
C66 C67 1_555 1_555
C75 C96 1_555 1_555
C77 C78 1_555 1_555
C84 C85 1_555 1_555
C90 C91 1_555 1_555

#END
