
#######################################################################
#
#                 Cambridge Crystallographic Data Centre
#                                CCDC 
#
#######################################################################
#
# If this CIF has been generated from an entry in the Cambridge 
# Structural Database, then it will include bibliographic, chemical, 
# crystal, experimental, refinement or atomic coordinate data resulting 
# from the CCDC's data processing and validation procedures.
#
#######################################################################

data_LOFVUZ
_symmetry_cell_setting           orthorhombic
_symmetry_space_group_name_H-M   'P 21 21 2'
_symmetry_Int_Tables_number      18
_space_group_name_Hall           'P 2 2ab'
loop_
_symmetry_equiv_pos_site_id
_symmetry_equiv_pos_as_xyz
1 x,y,z
2 -x,-y,z
3 1/2-x,1/2+y,-z
4 1/2+x,1/2-y,-z
_cell_length_a                   21.9953(12)
_cell_length_b                   8.4064(5)
_cell_length_c                   11.7118(7)
_cell_angle_alpha                90
_cell_angle_beta                 90
_cell_angle_gamma                90
_cell_volume                     2165.53
loop_
_atom_site_label
_atom_site_type_symbol
_atom_site_fract_x
_atom_site_fract_y
_atom_site_fract_z
Cd1 Cd 0.208799(11) 1.10938(3) 0.52013(3)
C1 C 0.2105(3) 1.0977(8) 0.9566(5)
C2 C 0.2107(3) 1.0994(8) 1.0831(4)
C3 C 0.2621(3) 1.095(3) 0.7776(8)
H1 H 0.2994 1.1010 0.7404
C4 C 0.2632(4) 1.068(2) 1.1470(7)
H2 H 0.3000 1.0446 1.1115
C5 C 0.1598(4) 1.122(3) 0.8945(7)
H3 H 0.1243 1.1595 0.9281
C6 C 0.2605(3) 1.080(2) 0.8954(7)
H4 H 0.2965 1.0566 0.9335
C7 C 0.2582(3) 1.0715(13) 1.2644(5)
H5 H 0.2927 1.0459 1.3064
C8 C 0.1596(3) 1.1381(17) 1.2586(6)
H6 H 0.1254 1.1775 1.2957
C9 C 0.1566(3) 1.114(2) 1.1449(5)
H7 H 0.1192 1.1078 1.1082
N1 N 0.2114(2) 1.0997(6) 0.7174(4)
N2 N 0.20987(19) 1.1076(6) 1.3210(3)
O1 O 0.21951(11) 0.8375(3) 0.5014(3)
O2 O 0.11243(13) 0.9727(4) 0.5200(4)
O3 O 0.14069(15) 1.3110(4) 0.5286(6)
C10 C 0.11028(16) 0.8131(4) 0.4903(5)
H8 H 0.0940 0.8066 0.4126
C11 C 0.17476(16) 0.7461(4) 0.4876(5)
C12 C 0.0706(2) 0.7136(7) 0.5646(9)
H9 H 0.0718 0.6046 0.5351
O4 O 0.18177(13) 0.6002(3) 0.4690(3)
O5 O 0.0954(3) 0.7116(11) 0.6769(7)
H10 H 0.1179 0.6345 0.6839
C13 C 0.0030(2) 0.7711(7) 0.5600(9)
O6 O -0.0181(3) 0.8195(17) 0.4750(9)
C14 C 0.1626(3) 1.088(2) 0.7761(6)
H11 H 0.1271 1.0563 0.7393
O7 O -0.0252(4) 0.774(2) 0.6315(12)
Cd1_2 Cd 0.208799(11) 1.10938(3) 1.52013(3)
Cd1B Cd 0.291201(11) 0.60938(3) 0.47987(3)
N2_2 N 0.20987(19) 1.1076(6) 0.3210(3)
O1B O 0.28049(11) 1.3375(3) 0.4986(3)
O4B O 0.31823(13) 1.1002(3) 0.5310(3)
O8 O 0.0000 0.0000 0.2447(15)
loop_
_geom_bond_atom_site_label_1
_geom_bond_atom_site_label_2
_geom_bond_site_symmetry_1
_geom_bond_site_symmetry_2
Cd1 N1 1_555 1_555
C1 C2 1_555 1_555
C2 C4 1_555 1_555
C3 H1 1_555 1_555
C4 H2 1_555 1_555
C5 C1 1_555 1_555
H3 C5 1_555 1_555
C6 C1 1_555 1_555
H4 C6 1_555 1_555
C7 C4 1_555 1_555
H5 C7 1_555 1_555
C8 H6 1_555 1_555
C9 C2 1_555 1_555
H7 C9 1_555 1_555
N1 C3 1_555 1_555
N2 C7 1_555 1_555
O1 Cd1 1_555 1_555
O2 Cd1 1_555 1_555
O3 Cd1 1_555 1_555
C10 O2 1_555 1_555
H8 C10 1_555 1_555
C11 O1 1_555 1_555
C12 C10 1_555 1_555
H9 C12 1_555 1_555
O4 C11 1_555 1_555
O5 C12 1_555 1_555
H10 O5 1_555 1_555
C13 C12 1_555 1_555
O6 C13 1_555 1_555
C14 C5 1_555 1_555
H11 C14 1_555 1_555
O7 C13 1_555 1_555
Cd1_2 N2 1_555 1_555
Cd1B O1 1_555 1_555
N2_2 Cd1 1_555 1_555
O1B Cd1 1_555 1_555
O4B Cd1 1_555 1_555
C3 C6 1_555 1_555
C8 C9 1_555 1_555
C8 N2 1_555 1_555
N1 C14 1_555 1_555
C10 C11 1_555 1_555
O4 Cd1B 1_555 1_555

#END
