
#######################################################################
#
#                 Cambridge Crystallographic Data Centre
#                                CCDC 
#
#######################################################################
#
# If this CIF has been generated from an entry in the Cambridge 
# Structural Database, then it will include bibliographic, chemical, 
# crystal, experimental, refinement or atomic coordinate data resulting 
# from the CCDC's data processing and validation procedures.
#
#######################################################################

data_LOFVOT
_symmetry_cell_setting           orthorhombic
_symmetry_space_group_name_H-M   'P 21 21 2'
_symmetry_Int_Tables_number      18
_space_group_name_Hall           'P 2 2ab'
loop_
_symmetry_equiv_pos_site_id
_symmetry_equiv_pos_as_xyz
1 x,y,z
2 -x,-y,z
3 1/2-x,1/2+y,-z
4 1/2+x,1/2-y,-z
_cell_length_a                   21.9728(11)
_cell_length_b                   8.4040(4)
_cell_length_c                   11.7030(6)
_cell_angle_alpha                90
_cell_angle_beta                 90
_cell_angle_gamma                90
_cell_volume                     2161.07
loop_
_atom_site_label
_atom_site_type_symbol
_atom_site_fract_x
_atom_site_fract_y
_atom_site_fract_z
Cd1 Cd 0.208680(14) 1.11021(4) -0.02065(3)
C1 C 0.2104(3) 1.1023(9) 0.4164(5)
C2 C 0.2633(4) 1.069(2) 0.3494(8)
H1 H 0.2999 1.0420 0.3842
C3 C 0.2588(4) 1.077(2) 0.2367(6)
H2 H 0.2941 1.0576 0.1951
C4 C 0.1568(3) 1.112(3) 0.3568(5)
H3 H 0.1196 1.1031 0.3943
C5 C 0.1592(4) 1.136(2) 0.2394(7)
H4 H 0.1245 1.1721 0.2020
C6 C 0.2105(3) 1.0991(9) 0.5429(5)
C7 C 0.2601(4) 1.076(2) 0.6042(7)
H5 H 0.2965 1.0551 0.5665
C8 C 0.1602(4) 1.132(3) 0.6052(8)
H6 H 0.1254 1.1715 0.5700
N1 N 0.2095(2) 1.1087(7) 0.1782(4)
C9 C 0.1614(4) 1.107(3) 0.7239(6)
H7 H 0.1246 1.0953 0.7622
C10 C 0.2602(4) 1.082(3) 0.7214(9)
H8 H 0.2971 1.0717 0.7596
N2 N 0.2106(3) 1.1006(7) 0.7819(4)
O1 O 0.11241(15) 0.9739(5) -0.0198(5)
O2 O 0.21929(14) 0.8384(5) -0.0011(4)
O3 O 0.14070(19) 1.3124(5) -0.0289(6)
C11 C 0.1749(2) 0.7477(6) 0.0133(5)
O4 O 0.18192(16) 0.6010(4) 0.0317(4)
C12 C 0.1103(2) 0.8153(6) 0.0105(6)
H9 H 0.0935 0.8084 0.0879
C13 C 0.0710(3) 0.7148(9) -0.0672(10)
H10 H 0.0732 0.6061 -0.0372
O5 O 0.0953(3) 0.7089(13) -0.1762(8)
H11 H 0.1162 0.6287 -0.1829
C14 C 0.0028(3) 0.7688(9) -0.0537(10)
O6 O -0.0190(3) 0.818(2) 0.0185(10)
O7 O -0.0248(5) 0.787(3) -0.1496(12)
Cd1_2 Cd 0.208680(14) 1.11021(4) 0.97935(3)
Cd1B Cd 0.291320(14) 0.61021(4) 0.02065(3)
N2_2 N 0.2106(3) 1.1006(7) -0.2181(4)
O2B O 0.28071(14) 1.3384(5) 0.0011(4)
O4B O 0.31808(16) 1.1010(4) -0.0317(4)
O8 O 0.0000 0.0000 0.2475(15)
loop_
_geom_bond_atom_site_label_1
_geom_bond_atom_site_label_2
_geom_bond_site_symmetry_1
_geom_bond_site_symmetry_2
Cd1 N1 1_555 1_555
C1 C2 1_555 1_555
C2 H1 1_555 1_555
C3 C2 1_555 1_555
H2 C3 1_555 1_555
C4 C1 1_555 1_555
H3 C4 1_555 1_555
C5 C4 1_555 1_555
H4 C5 1_555 1_555
C6 C1 1_555 1_555
C7 C6 1_555 1_555
H5 C7 1_555 1_555
C8 C6 1_555 1_555
H6 C8 1_555 1_555
N1 C3 1_555 1_555
C9 C8 1_555 1_555
H7 C9 1_555 1_555
C10 C7 1_555 1_555
H8 C10 1_555 1_555
N2 C9 1_555 1_555
O1 Cd1 1_555 1_555
O2 Cd1 1_555 1_555
O3 Cd1 1_555 1_555
C11 O2 1_555 1_555
O4 C11 1_555 1_555
C12 O1 1_555 1_555
H9 C12 1_555 1_555
C13 C12 1_555 1_555
H10 C13 1_555 1_555
O5 C13 1_555 1_555
H11 O5 1_555 1_555
C14 C13 1_555 1_555
O6 C14 1_555 1_555
O7 C14 1_555 1_555
Cd1_2 N2 1_555 1_555
Cd1B O2 1_555 1_555
N2_2 Cd1 1_555 1_555
O2B Cd1 1_555 1_555
O4B Cd1 1_555 1_555
C5 N1 1_555 1_555
C10 N2 1_555 1_555
C11 C12 1_555 1_555
O4 Cd1B 1_555 1_555

#END
