
#######################################################################
#
#                 Cambridge Crystallographic Data Centre
#                                CCDC 
#
#######################################################################
#
# If this CIF has been generated from an entry in the Cambridge 
# Structural Database, then it will include bibliographic, chemical, 
# crystal, experimental, refinement or atomic coordinate data resulting 
# from the CCDC's data processing and validation procedures.
#
#######################################################################

data_LOFVIN
_symmetry_cell_setting           monoclinic
_symmetry_space_group_name_H-M   'C 2/c'
_symmetry_Int_Tables_number      15
_space_group_name_Hall           '-C 2yn'
loop_
_symmetry_equiv_pos_site_id
_symmetry_equiv_pos_as_xyz
1 x,y,z
2 -x,y,1/2-z
3 1/2+x,1/2+y,z
4 1/2-x,1/2+y,1/2-z
5 -x,-y,-z
6 x,-y,1/2+z
7 1/2-x,1/2-y,-z
8 1/2+x,1/2-y,1/2+z
_cell_length_a                   22.1396(16)
_cell_length_b                   14.5936(5)
_cell_length_c                   28.1238(19)
_cell_angle_alpha                90
_cell_angle_beta                 116.317(9)
_cell_angle_gamma                90
_cell_volume                     8144.91
loop_
_atom_site_label
_atom_site_type_symbol
_atom_site_fract_x
_atom_site_fract_y
_atom_site_fract_z
Ni1 Ni 0.24601(4) 0.67163(5) 0.24430(3)
Ni2 Ni 0.21899(4) 0.99414(6) 0.53944(3)
O1 O -0.2159(2) 0.9279(3) 0.34863(19)
O2 O 0.2131(2) 0.7604(3) 0.28401(19)
O3 O 0.3001(2) 1.0365(4) 0.6100(2)
H1 H 0.3271 0.9906 0.6258
H2 H 0.2857 1.0589 0.6319
O4 O 0.1352(2) 0.9496(3) 0.47232(18)
O5 O 0.2088(2) 1.1304(3) 0.5136(2)
H3 H 0.2253 1.1681 0.5407
H4 H 0.1663 1.1449 0.4944
O6 O -0.1525(2) 0.9881(4) 0.4280(2)
O7 O 0.2812(2) 0.7835(3) 0.21568(19)
H5 H 0.3115 0.8141 0.2418
H6 H 0.2481 0.8202 0.1975
O8 O 0.2384(3) 0.8577(4) 0.5698(2)
H7 H 0.2207 0.8469 0.5920
H8 H 0.2822 0.8477 0.5875
O9 O 0.2229(2) 1.0829(3) 0.2955(2)
O10 O 0.1648(3) 0.6752(3) 0.3231(2)
N1 N 0.3427(3) 0.6711(4) 0.3080(2)
O11 O 0.1730(3) 1.1649(3) 0.3347(2)
O12 O 0.2120(2) 0.5586(3) 0.2729(2)
H9 H 0.1800 0.5306 0.2468
H10 H 0.1968 0.5768 0.2948
N2 N 0.2795(3) 0.9695(4) 0.5027(2)
N3 N 0.6512(3) 0.8246(4) 0.6805(2)
N4 N 0.5678(3) 0.7991(4) 0.6011(2)
N5 N 0.4267(3) 0.6990(4) 0.3860(2)
C1 C 0.0216(3) 0.9642(4) 0.4053(3)
O13 O 0.0879(3) 1.0885(4) 0.4502(3)
C2 C 0.5264(3) 0.7637(5) 0.4594(3)
H11 H 0.5455 0.7737 0.4362
C3 C 0.0986(3) 0.8390(4) 0.3356(3)
H12 H 0.0791 0.7840 0.3384
N6 N 0.3682(3) 0.9686(4) 0.4864(3)
C4 C 0.0750(3) 0.9207(4) 0.3460(3)
C5 C 0.4861(4) 1.0005(5) 0.5430(3)
H13 H 0.4767 1.0006 0.5722
C6 C 0.0165(3) 0.9242(4) 0.3588(3)
C7 C 0.1793(3) 0.9205(4) 0.3159(3)
H14 H 0.2138 0.9203 0.3055
C8 C 0.4701(4) 0.7321(5) 0.5288(3)
H15 H 0.4517 0.7216 0.5523
C9 C 0.5613(4) 0.7883(5) 0.5122(3)
H16 H 0.6038 0.8148 0.5245
C10 C 0.3600(4) 0.6947(5) 0.3572(3)
H17 H 0.3292 0.7069 0.3706
C11 C 0.4635(3) 0.7243(5) 0.4411(3)
C12 C -0.1034(3) 0.9032(5) 0.3291(3)
H18 H -0.1451 0.8837 0.3034
C13 C -0.1599(3) 0.9535(4) 0.3854(3)
C14 C 0.5333(4) 0.7737(5) 0.5464(3)
C15 C 0.6347(3) 0.7997(5) 0.6307(3)
H19 H 0.6658 0.7848 0.6180
C16 C 0.4354(4) 0.9836(5) 0.4936(3)
C17 C 0.3434(4) 0.9903(5) 0.5206(3)
H20 H 0.3688 1.0172 0.5535
C18 C 0.2610(4) 0.9324(6) 0.4542(3)
H21 H 0.2181 0.9113 0.4317
C19 C -0.0468(3) 0.8931(5) 0.3206(3)
H22 H -0.0506 0.8657 0.2896
C20 C 0.0873(4) 1.0038(5) 0.4458(3)
C21 C 0.4545(4) 0.6758(6) 0.3526(3)
H23 H 0.5001 0.6729 0.3610
C22 C 0.4486(4) 0.9826(5) 0.4498(3)
H24 H 0.4143 0.9707 0.4161
C23 C 0.1565(3) 1.0037(4) 0.3260(3)
C24 C -0.0984(3) 0.9427(4) 0.3762(3)
C25 C 0.1052(3) 1.0016(4) 0.3420(3)
H25 H 0.0908 1.0565 0.3504
C26 C 0.4344(4) 0.7060(5) 0.4749(3)
H26 H 0.3926 0.6775 0.4625
C27 C 0.1515(3) 0.8377(4) 0.3210(3)
C28 C -0.0360(3) 0.9727(5) 0.4140(3)
H27 H -0.0323 0.9987 0.4454
C29 C 0.4019(4) 0.6579(5) 0.3051(3)
H28 H 0.4056 0.6393 0.2749
C30 C 0.5913(4) 0.8412(5) 0.6816(3)
H29 H 0.5867 0.8605 0.7113
C31 C 0.5391(4) 0.8258(5) 0.6332(3)
H30 H 0.4934 0.8321 0.6238
C32 C 0.1866(3) 1.0898(5) 0.3187(3)
C33 C 0.3161(4) 0.9309(7) 0.4433(4)
H31 H 0.3174 0.9087 0.4128
C34 C 0.1775(3) 0.7505(5) 0.3083(3)
N2D N 0.7205(3) 1.0305(4) 0.4973(2)
N6D N 0.6318(3) 1.0314(4) 0.5136(3)
C5D C 0.5139(4) 0.9995(5) 0.4570(3)
H13D H 0.5233 0.9994 0.4278
C16D C 0.5646(4) 1.0164(5) 0.5064(3)
C17D C 0.6566(4) 1.0097(5) 0.4794(3)
H20D H 0.6312 0.9828 0.4465
C18D C 0.7390(4) 1.0676(6) 0.5458(3)
H21D H 0.7819 1.0887 0.5683
C22D C 0.5514(4) 1.0174(5) 0.5502(3)
H24D H 0.5857 1.0293 0.5839
C33D C 0.6839(4) 1.0691(7) 0.5567(4)
H31D H 0.6826 1.0913 0.5872
Ni1D Ni -0.24601(4) 1.32837(5) 0.75570(3)
Ni2D Ni -0.21899(4) 1.00586(6) 0.46056(3)
O1D O 0.2159(2) 1.0721(3) 0.65137(19)
O2D O -0.2131(2) 1.2396(3) 0.71599(19)
O3D O -0.3001(2) 0.9635(4) 0.3900(2)
H1D H -0.3271 1.0094 0.3742
H2D H -0.2857 0.9411 0.3681
O4D O -0.1352(2) 1.0504(3) 0.52768(18)
O5D O -0.2088(2) 0.8696(3) 0.4864(2)
H3D H -0.2253 0.8319 0.4593
H4D H -0.1663 0.8551 0.5056
O6D O 0.1525(2) 1.0119(4) 0.5720(2)
O7D O -0.2812(2) 1.2165(3) 0.78432(19)
H5D H -0.3115 1.1859 0.7582
H6D H -0.2481 1.1798 0.8025
O8D O -0.2384(3) 1.1423(4) 0.4302(2)
H7D H -0.2207 1.1531 0.4080
H8D H -0.2822 1.1523 0.4125
O9D O -0.2229(2) 0.9171(3) 0.7045(2)
O10D O -0.1648(3) 1.3248(3) 0.6769(2)
N1D N -0.3427(3) 1.3289(4) 0.6920(2)
O11D O -0.1730(3) 0.8351(3) 0.6653(2)
O12D O -0.2120(2) 1.4414(3) 0.7271(2)
H9D H -0.1800 1.4694 0.7532
H10D H -0.1968 1.4232 0.7052
N3D N -0.6512(3) 1.1754(4) 0.3195(2)
N4D N -0.5678(3) 1.2009(4) 0.3989(2)
N5D N -0.4267(3) 1.3010(4) 0.6140(2)
C1D C -0.0216(3) 1.0358(4) 0.5947(3)
O13D O -0.0879(3) 0.9115(4) 0.5498(3)
C2D C -0.5264(3) 1.2363(5) 0.5406(3)
H11D H -0.5455 1.2263 0.5638
C3D C -0.0986(3) 1.1610(4) 0.6644(3)
H12D H -0.0791 1.2160 0.6616
C4D C -0.0750(3) 1.0793(4) 0.6540(3)
C6D C -0.0165(3) 1.0758(4) 0.6412(3)
C7D C -0.1793(3) 1.0795(4) 0.6841(3)
H14D H -0.2138 1.0797 0.6945
C8D C -0.4701(4) 1.2679(5) 0.4712(3)
H15D H -0.4517 1.2784 0.4477
C9D C -0.5613(4) 1.2117(5) 0.4878(3)
H16D H -0.6038 1.1852 0.4755
C10D C -0.3600(4) 1.3053(5) 0.6428(3)
H17D H -0.3292 1.2931 0.6294
C11D C -0.4635(3) 1.2757(5) 0.5589(3)
C12D C 0.1034(3) 1.0968(5) 0.6709(3)
H18D H 0.1451 1.1163 0.6966
C13D C 0.1599(3) 1.0465(4) 0.6146(3)
C14D C -0.5333(4) 1.2263(5) 0.4536(3)
C15D C -0.6347(3) 1.2003(5) 0.3693(3)
H19D H -0.6658 1.2152 0.3820
C19D C 0.0468(3) 1.1069(5) 0.6794(3)
H22D H 0.0506 1.1343 0.7104
C20D C -0.0873(4) 0.9962(5) 0.5542(3)
C21D C -0.4545(4) 1.3242(6) 0.6474(3)
H23D H -0.5001 1.3271 0.6390
C23D C -0.1565(3) 0.9963(4) 0.6740(3)
C24D C 0.0984(3) 1.0573(4) 0.6238(3)
C25D C -0.1052(3) 0.9984(4) 0.6580(3)
H25D H -0.0908 0.9435 0.6496
C26D C -0.4344(4) 1.2940(5) 0.5251(3)
H26D H -0.3926 1.3225 0.5375
C27D C -0.1515(3) 1.1623(4) 0.6790(3)
C28D C 0.0360(3) 1.0273(5) 0.5860(3)
H27D H 0.0323 1.0013 0.5546
C29D C -0.4019(4) 1.3421(5) 0.6949(3)
H28D H -0.4056 1.3607 0.7251
C30D C -0.5913(4) 1.1588(5) 0.3184(3)
H29D H -0.5867 1.1395 0.2887
C31D C -0.5391(4) 1.1742(5) 0.3668(3)
H30D H -0.4934 1.1679 0.3762
C32D C -0.1866(3) 0.9102(5) 0.6813(3)
C34D C -0.1775(3) 1.2495(5) 0.6917(3)
Ni1C Ni -0.74601(4) 1.17163(5) 0.25570(3)
Ni1C_2 Ni 0.25399(4) 1.17163(5) 0.25570(3)
Ni1G Ni -0.25399(4) 0.82837(5) 0.74430(3)
Ni1G_2 Ni 0.74601(4) 0.82837(5) 0.74430(3)
Ni2D_2 Ni 0.78101(4) 1.00586(6) 0.46056(3)
O9C O 0.2771(2) 0.5829(3) 0.2045(2)
O9G O -0.2771(2) 1.4171(3) 0.7955(2)
N2D_2 N -0.2795(3) 1.0305(4) 0.4973(2)
N3C N -0.1512(3) 1.3246(4) 0.8195(2)
N3G N 0.1512(3) 0.6754(4) 0.1805(2)
O14 O 0.2644(3) 1.1916(4) 0.4442(3)
O15 O 0.3861(5) 1.1864(7) 0.6238(5)
H32 H 0.3652 1.1391 0.6069
H33 H 0.3581 1.2247 0.6253
O16 O 0.3647(6) 0.9144(6) 0.3089(4)
H34 H 0.3567 0.8637 0.2924
H35 H 0.3541 0.9583 0.2868
O17 O 0.1775(7) 0.7557(8) 0.4668(5)
loop_
_geom_bond_atom_site_label_1
_geom_bond_atom_site_label_2
_geom_bond_site_symmetry_1
_geom_bond_site_symmetry_2
Ni1 O2 1_555 1_555
Ni2 O3 1_555 1_555
O1 C13 1_555 1_555
O2 C34 1_555 1_555
O3 H1 1_555 1_555
H2 O3 1_555 1_555
O4 Ni2 1_555 1_555
O5 Ni2 1_555 1_555
H3 O5 1_555 1_555
H4 O5 1_555 1_555
O6 C13 1_555 1_555
O7 Ni1 1_555 1_555
H5 O7 1_555 1_555
H6 O7 1_555 1_555
O8 Ni2 1_555 1_555
H7 O8 1_555 1_555
H8 O8 1_555 1_555
O9 C32 1_555 1_555
O10 C34 1_555 1_555
N1 Ni1 1_555 1_555
O11 C32 1_555 1_555
O12 Ni1 1_555 1_555
H9 O12 1_555 1_555
H10 O12 1_555 1_555
N2 Ni2 1_555 1_555
N3 C15 1_555 1_555
N4 C14 1_555 1_555
N5 C10 1_555 1_555
C1 C6 1_555 1_555
O13 C20 1_555 1_555
C2 H11 1_555 1_555
C3 H12 1_555 1_555
N6 C16 1_555 1_555
C4 C3 1_555 1_555
C5 H13 1_555 1_555
C6 C4 1_555 1_555
C7 H14 1_555 1_555
C8 H15 1_555 1_555
C9 C2 1_555 1_555
H16 C9 1_555 1_555
C10 N1 1_555 1_555
H17 C10 1_555 1_555
C11 N5 1_555 1_555
C12 H18 1_555 1_555
C13 C24 1_555 1_555
C14 C8 1_555 1_555
C15 N4 1_555 1_555
H19 C15 1_555 1_555
C16 C5 1_555 1_555
C17 N2 1_555 1_555
H20 C17 1_555 1_555
C18 N2 1_555 1_555
H21 C18 1_555 1_555
C19 C6 1_555 1_555
H22 C19 1_555 1_555
C20 O4 1_555 1_555
C21 N5 1_555 1_555
H23 C21 1_555 1_555
C22 C16 1_555 1_555
H24 C22 1_555 1_555
C23 C7 1_555 1_555
C24 C12 1_555 1_555
C25 C4 1_555 1_555
H25 C25 1_555 1_555
C26 C8 1_555 1_555
H26 C26 1_555 1_555
C27 C3 1_555 1_555
C28 C1 1_555 1_555
H27 C28 1_555 1_555
C29 N1 1_555 1_555
H28 C29 1_555 1_555
C30 N3 1_555 1_555
H29 C30 1_555 1_555
C31 N4 1_555 1_555
H30 C31 1_555 1_555
C32 C23 1_555 1_555
C33 N6 1_555 1_555
H31 C33 1_555 1_555
C34 C27 1_555 1_555
O15 H32 1_555 1_555
H33 O15 1_555 1_555
O16 H34 1_555 1_555
H35 O16 1_555 1_555
N2D C17D 1_555 1_555
N6D C16D 1_555 1_555
C5D C22 1_555 1_555
H13D C5D 1_555 1_555
C16D C5D 1_555 1_555
C17D N6D 1_555 1_555
H20D C17D 1_555 1_555
C18D N2D 1_555 1_555
H21D C18D 1_555 1_555
C22D C5 1_555 1_555
H24D C22D 1_555 1_555
C33D N6D 1_555 1_555
H31D C33D 1_555 1_555
Ni1D O2D 1_555 1_555
Ni2D O6 1_555 1_555
O1D C13D 1_555 1_555
O2D C34D 1_555 1_555
O3D Ni2D 1_555 1_555
H1D O3D 1_555 1_555
H2D O3D 1_555 1_555
O4D Ni2D 1_555 1_555
O5D Ni2D 1_555 1_555
H3D O5D 1_555 1_555
H4D O5D 1_555 1_555
O6D Ni2 1_555 1_555
O7D Ni1D 1_555 1_555
H5D O7D 1_555 1_555
H6D O7D 1_555 1_555
O8D Ni2D 1_555 1_555
H7D O8D 1_555 1_555
H8D O8D 1_555 1_555
O9D C32D 1_555 1_555
O10D C34D 1_555 1_555
N1D Ni1D 1_555 1_555
O11D C32D 1_555 1_555
O12D Ni1D 1_555 1_555
H9D O12D 1_555 1_555
H10D O12D 1_555 1_555
N3D C15D 1_555 1_555
N4D C14D 1_555 1_555
N5D C10D 1_555 1_555
C1D C6D 1_555 1_555
O13D C20D 1_555 1_555
C2D H11D 1_555 1_555
C3D H12D 1_555 1_555
C4D C3D 1_555 1_555
C6D C4D 1_555 1_555
C7D H14D 1_555 1_555
C8D H15D 1_555 1_555
C9D C2D 1_555 1_555
H16D C9D 1_555 1_555
C10D N1D 1_555 1_555
H17D C10D 1_555 1_555
C11D N5D 1_555 1_555
C12D H18D 1_555 1_555
C13D O6D 1_555 1_555
C14D C8D 1_555 1_555
C15D N4D 1_555 1_555
H19D C15D 1_555 1_555
C19D C6D 1_555 1_555
H22D C19D 1_555 1_555
C20D O4D 1_555 1_555
C21D N5D 1_555 1_555
H23D C21D 1_555 1_555
C23D C7D 1_555 1_555
C24D C12D 1_555 1_555
C25D C4D 1_555 1_555
H25D C25D 1_555 1_555
C26D C8D 1_555 1_555
H26D C26D 1_555 1_555
C27D C3D 1_555 1_555
C28D C1D 1_555 1_555
H27D C28D 1_555 1_555
C29D N1D 1_555 1_555
H28D C29D 1_555 1_555
C30D N3D 1_555 1_555
H29D C30D 1_555 1_555
C31D N4D 1_555 1_555
H30D C31D 1_555 1_555
C32D C23D 1_555 1_555
C34D C27D 1_555 1_555
Ni1C N3D 1_555 1_555
Ni1C_2 O9 1_555 1_555
Ni1G O9D 1_555 1_555
Ni1G_2 N3 1_555 1_555
Ni2D_2 N2D 1_555 1_555
O9C Ni1 1_555 1_555
O9G Ni1D 1_555 1_555
N2D_2 Ni2D 1_555 1_555
N3C Ni1D 1_555 1_555
N3G Ni1 1_555 1_555
C1 C20 1_555 1_555
C2 C11 1_555 1_555
N6 C17 1_555 1_555
C7 C27 1_555 1_555
C9 C14 1_555 1_555
C11 C26 1_555 1_555
C12 C19 1_555 1_555
C18 C33 1_555 1_555
C21 C29 1_555 1_555
C23 C25 1_555 1_555
C24 C28 1_555 1_555
C30 C31 1_555 1_555
C16D C22D 1_555 1_555
C18D C33D 1_555 1_555
C1D C20D 1_555 1_555
C2D C11D 1_555 1_555
C7D C27D 1_555 1_555
C9D C14D 1_555 1_555
C11D C26D 1_555 1_555
C12D C19D 1_555 1_555
C13D C24D 1_555 1_555
C21D C29D 1_555 1_555
C23D C25D 1_555 1_555
C24D C28D 1_555 1_555
C30D C31D 1_555 1_555

#END
