
#######################################################################
#
#                 Cambridge Crystallographic Data Centre
#                                CCDC 
#
#######################################################################
#
# If this CIF has been generated from an entry in the Cambridge 
# Structural Database, then it will include bibliographic, chemical, 
# crystal, experimental, refinement or atomic coordinate data resulting 
# from the CCDC's data processing and validation procedures.
#
#######################################################################

data_LOFYUB
_symmetry_cell_setting           triclinic
_symmetry_space_group_name_H-M   'P -1'
_symmetry_Int_Tables_number      2
_space_group_name_Hall           '-P 1'
loop_
_symmetry_equiv_pos_site_id
_symmetry_equiv_pos_as_xyz
1 x,y,z
2 -x,-y,-z
_cell_length_a                   11.892(4)
_cell_length_b                   13.150(5)
_cell_length_c                   16.593(7)
_cell_angle_alpha                76.906(12)
_cell_angle_beta                 81.048(14)
_cell_angle_gamma                68.231(11)
_cell_volume                     2339.75
loop_
_atom_site_label
_atom_site_type_symbol
_atom_site_fract_x
_atom_site_fract_y
_atom_site_fract_z
Mo1 Mo 0.55023(3) -0.08429(3) 0.256946(17)
Mn1 Mn 0.38560(5) 0.25477(5) 0.02082(3)
Mn2 Mn 0.76997(5) -0.17255(5) 0.53985(3)
N1 N 0.3785(3) 0.1275(3) 0.12857(17)
N2 N 0.6670(3) -0.1296(3) 0.43385(19)
N3 N 0.3348(3) 0.0447(3) 0.38826(19)
N4 N 0.6535(4) -0.3580(3) 0.3247(2)
N5 N 0.3187(3) -0.1618(4) 0.2394(2)
N6 N 0.6042(3) -0.1634(3) 0.07600(18)
N7 N 0.6165(4) 0.1390(3) 0.2578(2)
N8 N 0.8477(3) -0.1481(3) 0.2119(2)
N9 N 0.3631(3) 0.3851(3) 0.09587(18)
N10 N 0.3795(3) 0.4140(3) -0.06916(18)
N11 N 0.9303(3) -0.3096(3) 0.4906(2)
N12 N 0.8945(3) -0.2664(3) 0.64273(18)
C1 C 0.4374(3) 0.0529(3) 0.1737(2)
C2 C 0.6246(3) -0.1148(3) 0.3733(2)
C3 C 0.4077(3) -0.0043(3) 0.3431(2)
C4 C 0.6157(4) -0.2635(3) 0.3007(2)
C5 C 0.3989(3) -0.1360(4) 0.2480(2)
C6 C 0.5891(3) -0.1352(3) 0.1389(2)
C7 C 0.5926(3) 0.0625(3) 0.2550(2)
C8 C 0.7452(3) -0.1256(3) 0.2254(2)
C9 C 0.3545(3) 0.3660(4) 0.1793(2)
H1 H 0.3609 0.2932 0.2083
C10 C 0.3368(4) 0.4472(4) 0.2249(2)
H2 H 0.3305 0.4308 0.2838
C11 C 0.3286(4) 0.5530(4) 0.1828(3)
H3 H 0.3165 0.6106 0.2125
C12 C 0.3382(3) 0.5743(4) 0.0961(3)
H4 H 0.3331 0.6462 0.0658
C13 C 0.3554(3) 0.4881(3) 0.0553(2)
C14 C 0.3649(3) 0.5045(3) -0.0379(2)
C15 C 0.3578(3) 0.6060(3) -0.0885(3)
H5 H 0.3501 0.6679 -0.0650
C16 C 0.3619(3) 0.6162(4) -0.1738(2)
H6 H 0.3559 0.6852 -0.2096
C17 C 0.3749(4) 0.5237(4) -0.2055(2)
H7 H 0.3765 0.5284 -0.2636
C18 C 0.3855(3) 0.4242(4) -0.1517(2)
H8 H 0.3976 0.3603 -0.1742
C19 C 0.9470(4) -0.3214(4) 0.4102(3)
H9 H 0.8823 -0.2804 0.3755
C20 C 1.0524(5) -0.3895(5) 0.3767(3)
H10 H 1.0616 -0.3946 0.3197
C21 C 1.1451(5) -0.4506(5) 0.4273(3)
H11 H 1.2189 -0.4997 0.4057
C22 C 1.1307(4) -0.4404(5) 0.5098(3)
H12 H 1.1934 -0.4825 0.5458
C23 C 1.0217(4) -0.3667(4) 0.5384(2)
C24 C 0.9988(3) -0.3472(3) 0.6257(2)
C25 C 1.0806(4) -0.4083(4) 0.6856(2)
H13 H 1.1554 -0.4638 0.6723
C26 C 1.0493(4) -0.3853(4) 0.7654(2)
H14 H 1.1037 -0.4249 0.8075
C27 C 0.9401(4) -0.3055(4) 0.7840(2)
H15 H 0.9161 -0.2916 0.8390
C28 C 0.8667(3) -0.2464(4) 0.7203(2)
H16 H 0.7928 -0.1888 0.7320
C29 C 0.1412(3) 0.3345(3) -0.0567(2)
H17 H 0.1964 0.3224 -0.1045
C30 C -0.0638(4) 0.3871(6) 0.0035(3)
H18 H -0.0228 0.3757 0.0534
H19 H -0.1078 0.3351 0.0119
H20 H -0.1211 0.4638 -0.0075
C31 C -0.0199(4) 0.3826(4) -0.1468(3)
H21 H 0.0485 0.3664 -0.1890
H22 H -0.0745 0.4597 -0.1621
H23 H -0.0643 0.3319 -0.1433
C32 C 0.6467(3) 0.1017(3) -0.0065(2)
H24 H 0.6097 0.0692 -0.0353
C33 C 0.8312(3) -0.0545(4) -0.0218(3)
H25 H 0.7769 -0.0790 -0.0451
H26 H 0.8711 -0.1125 0.0238
H27 H 0.8928 -0.0407 -0.0650
C34 C 0.8238(4) 0.0916(4) 0.0540(3)
H28 H 0.8610 0.1399 0.0143
H29 H 0.8872 0.0297 0.0843
H30 H 0.7657 0.1347 0.0933
C35 C 0.5421(5) -0.2260(5) 0.5787(3)
H31 H 0.5068 -0.1501 0.5843
C36 C 0.5174(6) -0.3819(6) 0.5423(6)
H32 H 0.5602 -0.3833 0.4869
H33 H 0.4501 -0.4091 0.5457
H34 H 0.5739 -0.4299 0.5841
C37 C 0.3429(5) -0.2084(6) 0.5458(5)
H35 H 0.2929 -0.2395 0.5896
H36 H 0.3247 -0.2135 0.4915
H37 H 0.3249 -0.1302 0.5483
C38 C 0.8734(4) -0.0299(4) 0.3921(2)
H38 H 0.8018 -0.0165 0.3666
C39 C 1.0736(4) -0.0193(6) 0.3793(3)
H39 H 1.0704 0.0480 0.3971
H40 H 1.1408 -0.0389 0.3366
H41 H 1.0865 -0.0808 0.4270
C40 C 0.9428(5) 0.0619(5) 0.2614(3)
H42 H 0.8661 0.0642 0.2450
H43 H 1.0101 0.0247 0.2239
H44 H 0.9402 0.1381 0.2583
N13 N 0.0255(3) 0.3675(3) -0.0666(2)
N14 N 0.7609(3) 0.0478(3) 0.00957(19)
N15 N 0.4710(4) -0.2710(4) 0.5575(3)
N16 N 0.9607(3) 0.0010(4) 0.3458(2)
O1 O 0.1846(2) 0.3178(2) 0.01081(15)
O2 O 0.5840(2) 0.1935(2) 0.01405(16)
O3 O 0.6511(3) -0.2743(3) 0.5919(2)
O4 O 0.8785(2) -0.0749(3) 0.46623(16)
Mn1A Mn 0.61440(5) -0.25477(5) -0.02082(3)
Mn2A Mn 0.23003(5) 0.17255(5) 0.46015(3)
N3A N 0.6652(3) -0.0447(3) 0.61174(19)
N6A N 0.3958(3) 0.1634(3) -0.07600(18)
O5 O 0.1113(3) 0.8308(3) 0.1552(2)
H45 H 0.1581 0.8316 0.1888
H46 H 0.0404 0.8446 0.1798
O6 O 0.3872(7) 0.6294(7) 0.3675(5)
H47 H 0.4618 0.6163 0.3516
H48 H 0.3500 0.6991 0.3540
loop_
_geom_bond_atom_site_label_1
_geom_bond_atom_site_label_2
_geom_bond_site_symmetry_1
_geom_bond_site_symmetry_2
Mo1 C1 1_555 1_555
Mn1 N1 1_555 1_555
Mn2 N2 1_555 1_555
N1 C1 1_555 1_555
N2 C2 1_555 1_555
N3 C3 1_555 1_555
N4 C4 1_555 1_555
N5 C5 1_555 1_555
N6 C6 1_555 1_555
N7 C7 1_555 1_555
N8 C8 1_555 1_555
N9 Mn1 1_555 1_555
N10 Mn1 1_555 1_555
N11 Mn2 1_555 1_555
N12 Mn2 1_555 1_555
C2 Mo1 1_555 1_555
C3 Mo1 1_555 1_555
C4 Mo1 1_555 1_555
C5 Mo1 1_555 1_555
C6 Mo1 1_555 1_555
C7 Mo1 1_555 1_555
C8 Mo1 1_555 1_555
C9 N9 1_555 1_555
H1 C9 1_555 1_555
C10 C9 1_555 1_555
H2 C10 1_555 1_555
C11 C10 1_555 1_555
H3 C11 1_555 1_555
C12 C11 1_555 1_555
H4 C12 1_555 1_555
C13 N9 1_555 1_555
C14 N10 1_555 1_555
C15 C14 1_555 1_555
H5 C15 1_555 1_555
C16 C15 1_555 1_555
H6 C16 1_555 1_555
C17 C16 1_555 1_555
H7 C17 1_555 1_555
C18 N10 1_555 1_555
H8 C18 1_555 1_555
C19 N11 1_555 1_555
H9 C19 1_555 1_555
C20 C19 1_555 1_555
H10 C20 1_555 1_555
C21 C20 1_555 1_555
H11 C21 1_555 1_555
C22 C21 1_555 1_555
H12 C22 1_555 1_555
C23 N11 1_555 1_555
C24 N12 1_555 1_555
C25 C24 1_555 1_555
H13 C25 1_555 1_555
C26 C25 1_555 1_555
H14 C26 1_555 1_555
C27 C26 1_555 1_555
H15 C27 1_555 1_555
C28 N12 1_555 1_555
H16 C28 1_555 1_555
C29 H17 1_555 1_555
C30 H18 1_555 1_555
H19 C30 1_555 1_555
H20 C30 1_555 1_555
C31 H21 1_555 1_555
H22 C31 1_555 1_555
H23 C31 1_555 1_555
C32 H24 1_555 1_555
C33 H25 1_555 1_555
H26 C33 1_555 1_555
H27 C33 1_555 1_555
C34 H28 1_555 1_555
H29 C34 1_555 1_555
H30 C34 1_555 1_555
C35 H31 1_555 1_555
C36 H32 1_555 1_555
H33 C36 1_555 1_555
H34 C36 1_555 1_555
C37 H35 1_555 1_555
H36 C37 1_555 1_555
H37 C37 1_555 1_555
C38 H38 1_555 1_555
C39 H39 1_555 1_555
H40 C39 1_555 1_555
H41 C39 1_555 1_555
C40 H42 1_555 1_555
H43 C40 1_555 1_555
H44 C40 1_555 1_555
N13 C29 1_555 1_555
N14 C32 1_555 1_555
N15 C35 1_555 1_555
N16 C38 1_555 1_555
O1 Mn1 1_555 1_555
O2 Mn1 1_555 1_555
O3 Mn2 1_555 1_555
O4 Mn2 1_555 1_555
O5 H45 1_555 1_555
H46 O5 1_555 1_555
O6 H47 1_555 1_555
H48 O6 1_555 1_555
Mn1A N6 1_555 1_555
Mn2A N3 1_555 1_555
N3A Mn2 1_555 1_555
N6A Mn1 1_555 1_555
C12 C13 1_555 1_555
C13 C14 1_555 1_555
C17 C18 1_555 1_555
C22 C23 1_555 1_555
C23 C24 1_555 1_555
C27 C28 1_555 1_555
C29 O1 1_555 1_555
C30 N13 1_555 1_555
C31 N13 1_555 1_555
C32 O2 1_555 1_555
C33 N14 1_555 1_555
C34 N14 1_555 1_555
C35 O3 1_555 1_555
C36 N15 1_555 1_555
C37 N15 1_555 1_555
C38 O4 1_555 1_555
C39 N16 1_555 1_555
C40 N16 1_555 1_555

#END
