
#######################################################################
#
#                 Cambridge Crystallographic Data Centre
#                                CCDC 
#
#######################################################################
#
# If this CIF has been generated from an entry in the Cambridge 
# Structural Database, then it will include bibliographic, chemical, 
# crystal, experimental, refinement or atomic coordinate data resulting 
# from the CCDC's data processing and validation procedures.
#
#######################################################################

data_LOGLOI
_symmetry_cell_setting           triclinic
_symmetry_space_group_name_H-M   'P -1'
_symmetry_Int_Tables_number      2
_space_group_name_Hall           '-P 1'
loop_
_symmetry_equiv_pos_site_id
_symmetry_equiv_pos_as_xyz
1 x,y,z
2 -x,-y,-z
_cell_length_a                   9.3366(15)
_cell_length_b                   9.5519(15)
_cell_length_c                   22.527(4)
_cell_angle_alpha                96.259(3)
_cell_angle_beta                 95.649(3)
_cell_angle_gamma                95.673(3)
_cell_volume                     1975.1
loop_
_atom_site_label
_atom_site_type_symbol
_atom_site_fract_x
_atom_site_fract_y
_atom_site_fract_z
Cr1 Cr 0.19342(5) -0.24538(5) 0.38752(2)
Na1 Na 0.37184(13) 0.24149(12) 0.28392(5)
O1 O 0.1681(2) -0.36747(19) 0.31005(8)
O2 O 0.3724(2) -0.1467(2) 0.36866(9)
O3 O 0.2999(2) -0.3987(2) 0.41448(9)
N1 N 0.2020(2) -0.1417(2) 0.47294(10)
N2 N 0.0024(3) -0.3313(3) 0.41451(11)
O4 O 0.2391(2) -0.5656(2) 0.26723(9)
O5 O 0.4506(2) 0.0428(2) 0.32656(12)
O6 O 0.4043(2) -0.5831(2) 0.37503(10)
C1 C 0.2016(3) 0.0134(3) 0.34616(13)
O7 O 0.1795(2) 0.1336(2) 0.33800(10)
C2 C 0.3558(3) -0.0313(3) 0.34550(13)
C3 C 0.3240(3) -0.4906(3) 0.37129(13)
C4 C 0.2385(3) -0.4764(3) 0.31010(13)
C5 C 0.0901(3) -0.1798(3) 0.50431(13)
C6 C -0.0191(3) -0.2905(3) 0.47206(14)
C7 C 0.3016(3) -0.0351(3) 0.49758(14)
H1 H 0.3788 -0.0098 0.4764
C8 C 0.2942(4) 0.0380(4) 0.55287(15)
H2 H 0.3643 0.1122 0.5687
C9 C 0.0785(4) -0.1099(4) 0.55988(14)
H3 H 0.0013 -0.1365 0.5809
C10 C 0.1810(4) -0.0007(4) 0.58440(15)
H4 H 0.1739 0.0468 0.6221
C11 C -0.0981(4) -0.4232(4) 0.38058(16)
H5 H -0.0849 -0.4495 0.3407
C12 C -0.1391(4) -0.3458(4) 0.49650(17)
H6 H -0.1517 -0.3181 0.5364
C13 C -0.2403(4) -0.4427(4) 0.4609(2)
H7 H -0.3213 -0.4819 0.4767
C14 C -0.2203(4) -0.4803(4) 0.40254(19)
H8 H -0.2885 -0.5439 0.3778
Cr2 Cr 0.28666(5) 0.17661(5) 0.10587(2)
O8 O 0.2687(2) 0.1085(2) 0.18449(9)
O9 O 0.1894(2) -0.0127(2) 0.07558(9)
O10 O 0.1037(2) 0.2593(2) 0.10388(9)
O11 O 0.3667(2) 0.3690(2) 0.13910(9)
N3 N 0.4924(3) 0.1190(2) 0.10247(11)
N4 N 0.3280(3) 0.2277(3) 0.02263(11)
O12 O 0.2988(2) 0.5857(2) 0.15875(10)
O13 O 0.0139(2) 0.4608(2) 0.13277(10)
C15 C 0.1148(3) 0.3914(3) 0.12577(13)
C16 C 0.4669(3) 0.2241(3) 0.01099(14)
C17 C 0.2731(3) 0.4596(3) 0.14336(13)
C18 C 0.5599(3) 0.1601(3) 0.05536(14)
O14 O 0.1789(3) -0.0826(2) 0.22310(10)
C19 C 0.2009(3) -0.0169(3) 0.18098(14)
C20 C 0.1479(3) -0.0858(3) 0.11641(13)
O15 O 0.0742(3) -0.2004(2) 0.10818(11)
C21 C 0.5681(3) 0.0551(3) 0.14322(15)
H9 H 0.5229 0.0262 0.1755
C22 C 0.2357(3) 0.2769(3) -0.01673(15)
H10 H 0.1396 0.2767 -0.0092
C23 C 0.7088(4) 0.0304(4) 0.13938(17)
H11 H 0.7575 -0.0152 0.1683
C24 C 0.4173(4) 0.3289(4) -0.07872(17)
H12 H 0.4478 0.3648 -0.1127
C25 C 0.2758(4) 0.3280(4) -0.06778(16)
H13 H 0.2083 0.3612 -0.0944
C26 C 0.7016(4) 0.1397(4) 0.04991(17)
H14 H 0.7465 0.1702 0.0178
C27 C 0.7769(4) 0.0735(4) 0.09257(19)
H15 H 0.8730 0.0585 0.0894
C28 C 0.5153(4) 0.2760(4) -0.03888(16)
H16 H 0.6118 0.2756 -0.0458
Na2 Na 0.09108(12) -0.32471(12) 0.20020(5)
N5 N 0.8391(3) 0.6744(3) 0.22959(11)
N6 N 0.7118(2) 0.5896(3) 0.22229(11)
N7 N 0.7448(2) 0.3468(2) 0.23305(11)
N8 N 0.6470(3) 0.2841(3) 0.26556(12)
C29 C 0.8783(3) 0.3072(3) 0.24589(15)
H17 H 0.9614 0.3372 0.2291
C30 C 0.7029(3) 0.4466(3) 0.19304(14)
H18 H 0.6042 0.4175 0.1751
H19 H 0.7648 0.4448 0.1609
C31 C 0.6068(3) 0.6542(4) 0.24679(15)
H20 H 0.5114 0.6157 0.2471
C32 C 0.8087(4) 0.7940(3) 0.25919(15)
H21 H 0.8756 0.8735 0.2706
C33 C 0.7249(3) 0.2059(4) 0.29786(16)
H22 H 0.6869 0.1492 0.3249
C34 C 0.6655(4) 0.7862(4) 0.27107(16)
H23 H 0.6196 0.8561 0.2913
C35 C 0.8693(3) 0.2168(4) 0.28742(16)
H24 H 0.9432 0.1716 0.3052
O18 O 0.1071(2) -0.0851(2) 0.35770(9)
O4_2 O 0.2391(2) 0.4344(2) 0.26723(9)
Na1_2 Na 0.37184(13) -0.75851(12) 0.28392(5)
O6_2 O 0.4043(2) 0.4169(2) 0.37503(10)
Na2_2 Na 0.09108(12) 0.67529(12) 0.20020(5)
O12_2 O 0.2988(2) -0.4143(2) 0.15875(10)
O13_2 O 0.0139(2) -0.5392(2) 0.13277(10)
N5_2 N -0.1609(3) -0.3256(3) 0.22959(11)
Na2_3 Na 1.09108(12) 0.67529(12) 0.20020(5)
O16 O 0.4903(4) -0.7405(4) 0.47384(18)
O17 O 0.1314(5) -1.4081(5) 0.0128(2)
loop_
_geom_bond_atom_site_label_1
_geom_bond_atom_site_label_2
_geom_bond_site_symmetry_1
_geom_bond_site_symmetry_2
Cr1 O1 1_555 1_555
Na1 O5 1_555 1_555
O1 C4 1_555 1_555
O2 Cr1 1_555 1_555
O3 Cr1 1_555 1_555
N1 Cr1 1_555 1_555
N2 Cr1 1_555 1_555
O4 C4 1_555 1_555
O5 C2 1_555 1_555
O6 C3 1_555 1_555
C1 O7 1_555 1_555
O7 Na1 1_555 1_555
C2 O2 1_555 1_555
C3 O3 1_555 1_555
C4 C3 1_555 1_555
C5 N1 1_555 1_555
C6 N2 1_555 1_555
C7 N1 1_555 1_555
H1 C7 1_555 1_555
C8 C7 1_555 1_555
H2 C8 1_555 1_555
C9 C5 1_555 1_555
H3 C9 1_555 1_555
C10 C8 1_555 1_555
H4 C10 1_555 1_555
C11 N2 1_555 1_555
H5 C11 1_555 1_555
C12 C6 1_555 1_555
H6 C12 1_555 1_555
C13 C12 1_555 1_555
H7 C13 1_555 1_555
C14 C11 1_555 1_555
H8 C14 1_555 1_555
Cr2 O8 1_555 1_555
O8 Na1 1_555 1_555
O9 Cr2 1_555 1_555
O10 Cr2 1_555 1_555
O11 Cr2 1_555 1_555
N3 Cr2 1_555 1_555
N4 Cr2 1_555 1_555
O12 C17 1_555 1_555
O13 C15 1_555 1_555
C15 O10 1_555 1_555
C16 N4 1_555 1_555
C17 O11 1_555 1_555
C18 N3 1_555 1_555
O14 C19 1_555 1_555
C19 O8 1_555 1_555
C20 O9 1_555 1_555
O15 C20 1_555 1_555
C21 N3 1_555 1_555
H9 C21 1_555 1_555
C22 N4 1_555 1_555
H10 C22 1_555 1_555
C23 C21 1_555 1_555
H11 C23 1_555 1_555
C24 H12 1_555 1_555
C25 C22 1_555 1_555
H13 C25 1_555 1_555
C26 C18 1_555 1_555
H14 C26 1_555 1_555
C27 C23 1_555 1_555
H15 C27 1_555 1_555
C28 C16 1_555 1_555
H16 C28 1_555 1_555
Na2 O1 1_555 1_555
N5 N6 1_555 1_555
N6 C30 1_555 1_555
N7 N8 1_555 1_555
N8 Na1 1_555 1_555
C29 N7 1_555 1_555
H17 C29 1_555 1_555
C30 N7 1_555 1_555
H18 C30 1_555 1_555
H19 C30 1_555 1_555
C31 N6 1_555 1_555
H20 C31 1_555 1_555
C32 N5 1_555 1_555
H21 C32 1_555 1_555
C33 N8 1_555 1_555
H22 C33 1_555 1_555
C34 C31 1_555 1_555
H23 C34 1_555 1_555
C35 C29 1_555 1_555
H24 C35 1_555 1_555
O18 Cr1 1_555 1_555
O4_2 Na1 1_555 1_555
Na1_2 O4 1_555 1_555
O6_2 Na1 1_555 1_555
Na2_2 O12 1_555 1_555
O12_2 Na2 1_555 1_555
O13_2 Na2 1_555 1_555
N5_2 Na2 1_555 1_555
Na2_3 N5 1_555 1_555
O6 Na1_2 1_555 1_555
C1 C2 1_555 1_555
C1 O18 1_555 1_555
C5 C6 1_555 1_555
C9 C10 1_555 1_555
C13 C14 1_555 1_555
O13 Na2_2 1_555 1_555
C15 C17 1_555 1_555
C16 C18 1_555 1_555
O14 Na2 1_555 1_555
C19 C20 1_555 1_555
O15 Na2 1_555 1_555
C24 C25 1_555 1_555
C24 C28 1_555 1_555
C26 C27 1_555 1_555
C32 C34 1_555 1_555
C33 C35 1_555 1_555

#END
