
#######################################################################
#
#                 Cambridge Crystallographic Data Centre
#                                CCDC 
#
#######################################################################
#
# If this CIF has been generated from an entry in the Cambridge 
# Structural Database, then it will include bibliographic, chemical, 
# crystal, experimental, refinement or atomic coordinate data resulting 
# from the CCDC's data processing and validation procedures.
#
#######################################################################

data_LOGMUP
_symmetry_cell_setting           monoclinic
_symmetry_space_group_name_H-M   'P 21/c'
_symmetry_Int_Tables_number      14
_space_group_name_Hall           '-P 2ybc'
loop_
_symmetry_equiv_pos_site_id
_symmetry_equiv_pos_as_xyz
1 x,y,z
2 x,1/2-y,1/2+z
3 -x,-y,-z
4 -x,1/2+y,1/2-z
_cell_length_a                   7.797(1)
_cell_length_b                   22.328(7)
_cell_length_c                   8.699(9)
_cell_angle_alpha                90
_cell_angle_beta                 101.77(5)
_cell_angle_gamma                90
_cell_volume                     1482.58
loop_
_atom_site_label
_atom_site_type_symbol
_atom_site_fract_x
_atom_site_fract_y
_atom_site_fract_z
Cu1 Cu -0.0138(1) 0.41763(4) 0.0505(1)
Cl1 Cl 0.1724(3) 0.35585(9) 0.2147(2)
Cl2 Cl -0.1984(3) 0.48186(8) -0.1174(2)
N1 N -0.3313(7) 0.4156(3) 0.1979(6)
N2 N -0.1594(7) 0.4258(3) 0.2143(6)
N3 N 0.0835(8) 0.1113(3) 0.3699(7)
N4 N 0.0555(8) 0.1656(3) 0.3003(7)
C1 C -0.2458(9) 0.2914(3) 0.2106(8)
C2 C -0.208(1) 0.2306(4) 0.2266(8)
C3 C -0.316(1) 0.1904(3) 0.133(1)
C4 C -0.456(1) 0.2106(4) 0.024(1)
C5 C -0.489(1) 0.2703(4) 0.0073(9)
C6 C -0.386(1) 0.3118(3) 0.0994(8)
C7 C -0.425(1) 0.3779(3) 0.0734(9)
C8 C -0.389(1) 0.4307(3) 0.3265(9)
C9 C -0.251(1) 0.4522(3) 0.4304(9)
C10 C -0.110(1) 0.4485(3) 0.3562(8)
C11 C 0.192(1) 0.0830(4) 0.2957(8)
C12 C 0.233(1) 0.1184(4) 0.1795(9)
C13 C 0.144(1) 0.1706(4) 0.1864(9)
C14 C -0.050(1) 0.2121(3) 0.3523(8)
H1 H -0.17235 0.32072 0.27874
H2 H -0.29118 0.14740 0.14678
H3 H -0.53004 0.18120 -0.04208
H4 H -0.59194 0.28367 -0.07381
H5 H -0.50995 0.42730 0.34504
H6 H 0.01122 0.46176 0.40462
H7 H -0.24900 0.46797 0.53677
H8 H 0.30791 0.10837 0.10463
H9 H 0.23813 0.04149 0.32079
H10 H 0.14439 0.20538 0.11503
H11 H -0.55153 0.38502 0.06039
H12 H -0.39667 0.39101 -0.02575
H13 H -0.00533 0.21802 0.46379
H14 H -0.16790 0.19279 0.34888
Cl2B Cl 0.1984(3) 0.51814(8) 0.1174(2)
Cu1B Cu 0.0138(1) 0.58237(4) -0.0505(1)
N3A N 0.0835(8) 0.3887(3) -0.1301(7)
Cu1A Cu -0.0138(1) 0.08237(4) 0.5505(1)
loop_
_geom_bond_atom_site_label_1
_geom_bond_atom_site_label_2
_geom_bond_site_symmetry_1
_geom_bond_site_symmetry_2
Cu1 Cl1 1_555 1_555
Cl2 Cu1 1_555 1_555
N1 N2 1_555 1_555
N2 Cu1 1_555 1_555
N3 N4 1_555 1_555
N4 C13 1_555 1_555
C1 C2 1_555 1_555
C2 C3 1_555 1_555
C3 C4 1_555 1_555
C4 C5 1_555 1_555
C5 C6 1_555 1_555
C6 C1 1_555 1_555
C7 N1 1_555 1_555
C8 N1 1_555 1_555
C9 C8 1_555 1_555
C10 N2 1_555 1_555
C11 N3 1_555 1_555
C12 C11 1_555 1_555
C13 C12 1_555 1_555
C14 N4 1_555 1_555
H1 C1 1_555 1_555
H2 C3 1_555 1_555
H3 C4 1_555 1_555
H4 C5 1_555 1_555
H5 C8 1_555 1_555
H6 C10 1_555 1_555
H7 C9 1_555 1_555
H8 C12 1_555 1_555
H9 C11 1_555 1_555
H10 C13 1_555 1_555
H11 C7 1_555 1_555
H12 C7 1_555 1_555
H13 C14 1_555 1_555
H14 C14 1_555 1_555
Cl2B Cu1 1_555 1_555
Cu1B Cl2 1_555 1_555
N3A Cu1 1_555 1_555
Cu1A N3 1_555 1_555
C2 C14 1_555 1_555
C6 C7 1_555 1_555
C9 C10 1_555 1_555
Cl2B Cu1B 1_555 1_555

#END
