
#######################################################################
#
#                 Cambridge Crystallographic Data Centre
#                                CCDC 
#
#######################################################################
#
# If this CIF has been generated from an entry in the Cambridge 
# Structural Database, then it will include bibliographic, chemical, 
# crystal, experimental, refinement or atomic coordinate data resulting 
# from the CCDC's data processing and validation procedures.
#
#######################################################################

data_LOGYOX
_symmetry_cell_setting           monoclinic
_symmetry_space_group_name_H-M   'C 2/c'
_symmetry_Int_Tables_number      15
_space_group_name_Hall           '-C 2yn'
loop_
_symmetry_equiv_pos_site_id
_symmetry_equiv_pos_as_xyz
1 x,y,z
2 -x,y,1/2-z
3 1/2+x,1/2+y,z
4 1/2-x,1/2+y,1/2-z
5 -x,-y,-z
6 x,-y,1/2+z
7 1/2-x,1/2-y,-z
8 1/2+x,1/2-y,1/2+z
_cell_length_a                   23.7102(6)
_cell_length_b                   12.1250(3)
_cell_length_c                   16.7934(4)
_cell_angle_alpha                90
_cell_angle_beta                 106.894(2)
_cell_angle_gamma                90
_cell_volume                     4619.52
loop_
_atom_site_label
_atom_site_type_symbol
_atom_site_fract_x
_atom_site_fract_y
_atom_site_fract_z
Ni1 Ni 0.885938(15) 0.47422(3) 0.51812(2)
C1 C 0.94944(12) 0.3106(2) 0.55426(16)
C2 C 0.99055(12) 0.2147(2) 0.57359(16)
C3 C 0.98977(15) 0.1431(3) 0.6374(2)
H1 H 0.9615 0.1514 0.6655
C4 C 1.03061(16) 0.0596(3) 0.6595(2)
H2 H 1.0296 0.0115 0.7022
C5 C 1.07324(15) 0.0466(3) 0.6186(2)
C6 C 1.07275(14) 0.1163(3) 0.55321(19)
H3 H 1.1004 0.1068 0.5242
C7 C 1.03183(12) 0.1993(3) 0.53067(17)
H4 H 1.0318 0.2455 0.4864
C8 C 1.12272(18) -0.0309(3) 0.6512(3)
C9 C 1.11780(15) -0.1202(3) 0.7104(2)
C10 C 1.07337(14) -0.1963(3) 0.68904(19)
H5 H 1.0446 -0.1900 0.6380
C11 C 1.07021(13) -0.2820(3) 0.74129(18)
H6 H 1.0401 -0.3338 0.7251
C12 C 1.11230(13) -0.2905(3) 0.81838(17)
C13 C 1.15691(15) -0.2138(3) 0.8403(2)
H7 H 1.1854 -0.2193 0.8915
C14 C 1.15978(16) -0.1282(3) 0.7866(2)
H8 H 1.1900 -0.0765 0.8020
C15 C 1.10901(13) -0.3816(3) 0.87677(17)
C16 C 0.81207(14) 0.3233(3) 0.39191(19)
H9 H 0.8479 0.3117 0.3810
C17 C 0.76319(11) 0.2710(3) 0.34229(17)
H10 H 0.7664 0.2251 0.2995
C18 C 0.70914(13) 0.2868(3) 0.35610(17)
C19 C 0.70851(14) 0.3529(3) 0.42286(18)
H11 H 0.6735 0.3644 0.4362
C20 C 0.75973(13) 0.4016(3) 0.46945(18)
H12 H 0.7581 0.4456 0.5141
C21 C 0.64634(12) 0.1850(3) 0.23399(16)
C22 C 0.67603(13) 0.2084(3) 0.17571(17)
H13 H 0.7050 0.2626 0.1865
C23 C 0.66242(13) 0.1514(3) 0.10265(17)
H14 H 0.6839 0.1666 0.0655
C24 C 0.58974(13) 0.0555(3) 0.13516(18)
H15 H 0.5593 0.0041 0.1209
C25 C 0.60113(13) 0.1076(3) 0.21107(17)
H16 H 0.5788 0.0913 0.2468
N1 N 0.81135(10) 0.3897(2) 0.45469(14)
N2 N 0.62010(10) 0.0750(2) 0.08116(13)
N3 N 0.65760(11) 0.2363(2) 0.31051(14)
H17 H 0.6290 0.2369 0.3324
O1 O 0.91773(9) 0.33300(18) 0.60082(12)
O2 O 0.94714(8) 0.36998(17) 0.49226(11)
O3 O 1.16880(16) -0.0193(3) 0.6345(3)
O4 O 1.06076(9) -0.41632(19) 0.88253(13)
O5 O 1.15705(9) -0.42268(18) 0.92174(12)
Ni1A Ni 1.114062(15) -0.52578(3) 0.98188(2)
Ni1C Ni 0.614062(15) -0.02578(3) -0.01812(2)
N2C N 0.87990(10) 0.5750(2) 0.41884(13)
O4A O 0.93924(9) 0.58368(19) 0.61747(13)
O5A O 0.84295(9) 0.57732(18) 0.57826(12)
O6 O 0.72520(11) 0.6350(3) 0.55388(17)
H18 H 0.735(6) 0.589(10) 0.593(6)
H19 H 0.743(5) 0.627(10) 0.518(6)
loop_
_geom_bond_atom_site_label_1
_geom_bond_atom_site_label_2
_geom_bond_site_symmetry_1
_geom_bond_site_symmetry_2
Ni1 N1 1_555 1_555
C1 C2 1_555 1_555
C2 C3 1_555 1_555
C3 H1 1_555 1_555
C4 C3 1_555 1_555
H2 C4 1_555 1_555
C5 C4 1_555 1_555
C6 C5 1_555 1_555
H3 C6 1_555 1_555
C7 C2 1_555 1_555
H4 C7 1_555 1_555
C8 C5 1_555 1_555
C9 C8 1_555 1_555
C10 C9 1_555 1_555
H5 C10 1_555 1_555
C11 C10 1_555 1_555
H6 C11 1_555 1_555
C12 C11 1_555 1_555
C13 C12 1_555 1_555
H7 C13 1_555 1_555
C14 C9 1_555 1_555
H8 C14 1_555 1_555
C15 C12 1_555 1_555
C16 H9 1_555 1_555
C17 C16 1_555 1_555
H10 C17 1_555 1_555
C18 C17 1_555 1_555
C19 C18 1_555 1_555
H11 C19 1_555 1_555
C20 C19 1_555 1_555
H12 C20 1_555 1_555
C21 C22 1_555 1_555
C22 H13 1_555 1_555
C23 C22 1_555 1_555
H14 C23 1_555 1_555
C24 H15 1_555 1_555
C25 C21 1_555 1_555
H16 C25 1_555 1_555
N1 C16 1_555 1_555
N2 C23 1_555 1_555
N3 C18 1_555 1_555
H17 N3 1_555 1_555
O1 Ni1 1_555 1_555
O2 Ni1 1_555 1_555
O3 C8 1_555 1_555
O4 C15 1_555 1_555
O5 C15 1_555 1_555
O6 H18 1_555 1_555
H19 O6 1_555 1_555
Ni1A O4 1_555 1_555
Ni1C N2 1_555 1_555
N2C Ni1 1_555 1_555
O4A Ni1 1_555 1_555
O5A Ni1 1_555 1_555
C1 O1 1_555 1_555
C1 O2 1_555 1_555
C6 C7 1_555 1_555
C13 C14 1_555 1_555
C20 N1 1_555 1_555
C21 N3 1_555 1_555
C24 C25 1_555 1_555
C24 N2 1_555 1_555
O5 Ni1A 1_555 1_555

#END
