
#######################################################################
#
#                 Cambridge Crystallographic Data Centre
#                                CCDC 
#
#######################################################################
#
# If this CIF has been generated from an entry in the Cambridge 
# Structural Database, then it will include bibliographic, chemical, 
# crystal, experimental, refinement or atomic coordinate data resulting 
# from the CCDC's data processing and validation procedures.
#
#######################################################################

data_LOHDET
_symmetry_cell_setting           monoclinic
_symmetry_space_group_name_H-M   'C 2/c'
_symmetry_Int_Tables_number      15
_space_group_name_Hall           '-C 2yn'
loop_
_symmetry_equiv_pos_site_id
_symmetry_equiv_pos_as_xyz
1 x,y,z
2 -x,y,1/2-z
3 1/2+x,1/2+y,z
4 1/2-x,1/2+y,1/2-z
5 -x,-y,-z
6 x,-y,1/2+z
7 1/2-x,1/2-y,-z
8 1/2+x,1/2-y,1/2+z
_cell_length_a                   28.5550(19)
_cell_length_b                   10.0900(7)
_cell_length_c                   28.2580(19)
_cell_angle_alpha                90
_cell_angle_beta                 106.4270(12)
_cell_angle_gamma                90
_cell_volume                     7809.36
loop_
_atom_site_label
_atom_site_type_symbol
_atom_site_fract_x
_atom_site_fract_y
_atom_site_fract_z
Nd1 Nd 0.21115(2) 0.42672(2) 0.98562(2)
O1 O 0.45142(6) 0.19580(17) 1.05482(6)
O2 O 0.29454(5) 0.44342(13) 0.98774(6)
O3 O 0.34027(5) 0.26042(13) 1.00984(5)
O4 O 0.17146(6) 0.44987(17) 0.78368(7)
O5 O 0.20368(5) 0.36257(14) 0.89929(5)
O6 O 0.24540(5) 0.20008(13) 0.94356(5)
O7 O 0.21084(5) 0.62918(13) 0.93376(5)
O8 O 0.26012(5) 0.89186(14) 0.95196(5)
O9 O 0.33779(5) 0.94552(14) 0.97126(6)
O10 O 0.12359(5) 0.46629(14) 0.92702(6)
H1 H 0.1210 0.4378 0.8981
H2 H 0.1029 0.4213 0.9367
Cl1 Cl 0.42017(4) 0.06995(10) 0.81660(3)
Cl2 Cl 0.06927(4) 0.92487(10) 0.73295(4)
Cl3 Cl -0.02387(3) 0.20216(10) 0.83506(3)
C1 C 0.44452(9) 0.0945(2) 0.96170(11)
H3 H 0.4569 0.0403 0.9890
C2 C 0.44281(10) 0.0488(3) 0.91555(11)
H4 H 0.4545 -0.0354 0.9116
C3 C 0.42388(9) 0.1272(3) 0.87544(11)
C4 C 0.40646(9) 0.2522(3) 0.88077(10)
H5 H 0.3930 0.3049 0.8533
C5 C 0.40930(9) 0.2976(3) 0.92750(9)
H6 H 0.3983 0.3825 0.9314
C6 C 0.42805(7) 0.2202(2) 0.96826(9)
C7 C 0.43472(7) 0.2687(2) 1.01967(9)
C8 C 0.42589(8) 0.4130(2) 1.02810(8)
C9 C 0.46675(8) 0.4940(3) 1.04503(10)
H7 H 0.4979 0.4581 1.0512
C10 C 0.46109(9) 0.6276(3) 1.05270(11)
H8 H 0.4886 0.6810 1.0638
C11 C 0.41564(9) 0.6824(2) 1.04425(10)
H9 H 0.4123 0.7725 1.0495
C12 C 0.37472(9) 0.6036(2) 1.02789(9)
H10 H 0.3438 0.6410 1.0221
C13 C 0.37932(7) 0.4689(2) 1.02000(8)
C14 C 0.33444(7) 0.3844(2) 1.00450(7)
C15 C 0.13588(9) 0.7367(2) 0.85748(9)
H11 H 0.1270 0.6916 0.8823
C16 C 0.10034(10) 0.7906(3) 0.81803(11)
H12 H 0.0675 0.7820 0.8164
C17 C 0.11365(11) 0.8562(3) 0.78173(10)
C18 C 0.16172(11) 0.8726(3) 0.78368(10)
H13 H 0.1703 0.9194 0.7590
C19 C 0.19732(9) 0.8191(2) 0.82240(9)
H14 H 0.2300 0.8291 0.8236
C20 C 0.18495(8) 0.7506(2) 0.85965(8)
C21 C 0.22238(7) 0.68549(18) 0.90053(7)
C22 C 0.27346(8) 0.67383(19) 0.89514(7)
C23 C 0.28180(9) 0.5722(2) 0.86527(8)
H15 H 0.2567 0.5140 0.8503
C24 C 0.32700(9) 0.5578(2) 0.85777(9)
H16 H 0.3324 0.4897 0.8378
C25 C 0.36439(9) 0.6433(3) 0.87960(9)
H17 H 0.3949 0.6329 0.8744
C26 C 0.35632(8) 0.7442(2) 0.90910(9)
H18 H 0.3817 0.8018 0.9238
C27 C 0.31111(7) 0.76173(19) 0.91733(7)
C28 C 0.30266(7) 0.8729(2) 0.94902(8)
C29 C 0.11386(9) 0.1809(2) 0.83073(9)
H19 H 0.1389 0.1186 0.8379
C30 C 0.06934(10) 0.1504(3) 0.83849(11)
H20 H 0.0644 0.0684 0.8513
C31 C 0.03270(9) 0.2429(3) 0.82702(10)
C32 C 0.03955(10) 0.3664(3) 0.81023(10)
H21 H 0.0149 0.4296 0.8043
C33 C 0.08378(9) 0.3950(3) 0.80224(10)
H22 H 0.0885 0.4777 0.7897
C34 C 0.12123(8) 0.3040(2) 0.81235(8)
C35 C 0.16783(8) 0.3433(2) 0.80226(8)
C36 C 0.20989(8) 0.2473(2) 0.81057(7)
C37 C 0.22193(9) 0.2030(3) 0.76920(8)
H23 H 0.2034 0.2305 0.7381
C38 C 0.26105(10) 0.1187(3) 0.77337(10)
H24 H 0.2684 0.0888 0.7451
C39 C 0.28888(9) 0.0791(2) 0.81870(10)
H25 H 0.3153 0.0228 0.8213
C40 C 0.27797(8) 0.1222(2) 0.86093(9)
H26 H 0.2972 0.0951 0.8918
C41 C 0.23849(7) 0.2058(2) 0.85750(7)
C42 C 0.22849(7) 0.25827(19) 0.90289(7)
Nd1F Nd 0.28885(2) 0.07328(2) 1.01438(2)
Nd1F_2 Nd 0.28885(2) 1.07328(2) 1.01438(2)
O3F O 0.15973(5) 0.23958(13) 0.99016(5)
O6F O 0.25460(5) 0.29992(13) 1.05644(5)
O8F O 0.23988(5) 0.60814(14) 1.04804(5)
O9F O 0.16221(5) 0.55448(14) 1.02874(6)
loop_
_geom_bond_atom_site_label_1
_geom_bond_atom_site_label_2
_geom_bond_site_symmetry_1
_geom_bond_site_symmetry_2
Nd1 O2 1_555 1_555
O1 C7 1_555 1_555
O2 C14 1_555 1_555
O3 C14 1_555 1_555
O4 C35 1_555 1_555
O5 Nd1 1_555 1_555
O6 Nd1 1_555 1_555
O7 Nd1 1_555 1_555
O8 C28 1_555 1_555
O9 C28 1_555 1_555
O10 Nd1 1_555 1_555
H1 O10 1_555 1_555
H2 O10 1_555 1_555
Cl1 C3 1_555 1_555
Cl2 C17 1_555 1_555
Cl3 C31 1_555 1_555
C1 H3 1_555 1_555
C2 C1 1_555 1_555
H4 C2 1_555 1_555
C3 C2 1_555 1_555
C4 C3 1_555 1_555
H5 C4 1_555 1_555
C5 C4 1_555 1_555
H6 C5 1_555 1_555
C6 C1 1_555 1_555
C7 C6 1_555 1_555
C8 C7 1_555 1_555
C9 C8 1_555 1_555
H7 C9 1_555 1_555
C10 C9 1_555 1_555
H8 C10 1_555 1_555
C11 C10 1_555 1_555
H9 C11 1_555 1_555
C12 C11 1_555 1_555
H10 C12 1_555 1_555
C13 C8 1_555 1_555
C14 C13 1_555 1_555
C15 H11 1_555 1_555
C16 C15 1_555 1_555
H12 C16 1_555 1_555
C17 C16 1_555 1_555
C18 C17 1_555 1_555
H13 C18 1_555 1_555
C19 C18 1_555 1_555
H14 C19 1_555 1_555
C20 C15 1_555 1_555
C21 O7 1_555 1_555
C22 C21 1_555 1_555
C23 C22 1_555 1_555
H15 C23 1_555 1_555
C24 C23 1_555 1_555
H16 C24 1_555 1_555
C25 C24 1_555 1_555
H17 C25 1_555 1_555
C26 C25 1_555 1_555
H18 C26 1_555 1_555
C27 C22 1_555 1_555
C28 C27 1_555 1_555
C29 H19 1_555 1_555
C30 C29 1_555 1_555
H20 C30 1_555 1_555
C31 C30 1_555 1_555
C32 C31 1_555 1_555
H21 C32 1_555 1_555
C33 C32 1_555 1_555
H22 C33 1_555 1_555
C34 C29 1_555 1_555
C35 C34 1_555 1_555
C36 C35 1_555 1_555
C37 C36 1_555 1_555
H23 C37 1_555 1_555
C38 C37 1_555 1_555
H24 C38 1_555 1_555
C39 C38 1_555 1_555
H25 C39 1_555 1_555
C40 C39 1_555 1_555
H26 C40 1_555 1_555
C41 C36 1_555 1_555
C42 O5 1_555 1_555
Nd1F O3 1_555 1_555
Nd1F_2 O8 1_555 1_555
O3F Nd1 1_555 1_555
O6F Nd1 1_555 1_555
O8F Nd1 1_555 1_555
O9F Nd1 1_555 1_555
O6 C42 1_555 1_555
O6 Nd1F 1_555 1_555
O9 Nd1F_2 1_555 1_555
C5 C6 1_555 1_555
C12 C13 1_555 1_555
C19 C20 1_555 1_555
C20 C21 1_555 1_555
C26 C27 1_555 1_555
C33 C34 1_555 1_555
C40 C41 1_555 1_555
C41 C42 1_555 1_555
Nd1F O6F 1_555 1_555

#END
