
#######################################################################
#
#                 Cambridge Crystallographic Data Centre
#                                CCDC 
#
#######################################################################
#
# If this CIF has been generated from an entry in the Cambridge 
# Structural Database, then it will include bibliographic, chemical, 
# crystal, experimental, refinement or atomic coordinate data resulting 
# from the CCDC's data processing and validation procedures.
#
#######################################################################

data_LOHDOD
_symmetry_cell_setting           monoclinic
_symmetry_space_group_name_H-M   'C 2/c'
_symmetry_Int_Tables_number      15
_space_group_name_Hall           '-C 2yn'
loop_
_symmetry_equiv_pos_site_id
_symmetry_equiv_pos_as_xyz
1 x,y,z
2 -x,y,1/2-z
3 1/2+x,1/2+y,z
4 1/2-x,1/2+y,1/2-z
5 -x,-y,-z
6 x,-y,1/2+z
7 1/2-x,1/2-y,-z
8 1/2+x,1/2-y,1/2+z
_cell_length_a                   28.561(2)
_cell_length_b                   10.1580(8)
_cell_length_c                   28.301(2)
_cell_angle_alpha                90
_cell_angle_beta                 106.2330(14)
_cell_angle_gamma                90
_cell_volume                     7883.42
loop_
_atom_site_label
_atom_site_type_symbol
_atom_site_fract_x
_atom_site_fract_y
_atom_site_fract_z
Pr1 Pr 0.71064(2) 0.42779(2) 0.48624(2)
Cl1 Cl 0.93056(8) 0.5761(2) 0.76747(7)
Cl2 Cl 0.91962(8) 0.0694(2) 0.31734(7)
Cl3 Cl 0.47546(6) 0.2043(2) 0.33430(7)
O1 O 0.78889(10) 0.8675(3) 0.56702(10)
O2 O 0.73922(11) 0.6094(3) 0.55074(11)
O3 O 0.66142(11) 0.5608(3) 0.53073(12)
O4 O 0.95232(12) 0.1976(4) 0.55514(13)
O5 O 0.84135(10) 0.2630(3) 0.50855(11)
O6 O 0.79588(10) 0.4448(3) 0.48797(11)
O7 O 0.67058(13) 0.4469(4) 0.28198(14)
O8 O 0.70211(10) 0.3641(3) 0.39748(9)
O9 O 0.74361(10) 0.2043(3) 0.44254(9)
O10 O 0.62147(11) 0.4647(3) 0.42633(11)
H1 H 0.6143 0.5437 0.4173
H2 H 0.5941 0.4277 0.4235
C1 C 0.86369(18) 0.7618(5) 0.64329(18)
H3 H 0.8725 0.8058 0.6182
C2 C 0.8996(2) 0.7095(6) 0.6824(2)
H4 H 0.9324 0.7188 0.6839
C3 C 0.8863(2) 0.6443(6) 0.7188(2)
C4 C 0.8384(3) 0.6290(6) 0.71720(19)
H5 H 0.8299 0.5833 0.7420
C5 C 0.80291(19) 0.6813(5) 0.67881(17)
H6 H 0.7703 0.6713 0.6779
C6 C 0.81504(16) 0.7492(4) 0.64121(15)
C7 C 0.77775(16) 0.8142(4) 0.60063(15)
C8 C 0.72723(16) 0.8272(4) 0.60651(14)
C9 C 0.71951(18) 0.9300(4) 0.63575(16)
H7 H 0.7449 0.9870 0.6503
C10 C 0.6743(2) 0.9479(5) 0.64332(18)
H8 H 0.6693 1.0168 0.6630
C11 C 0.63680(19) 0.8647(5) 0.62198(19)
H9 H 0.6064 0.8769 0.6274
C12 C 0.64367(18) 0.7628(5) 0.59245(18)
H10 H 0.6177 0.7076 0.5777
C13 C 0.68868(15) 0.7421(4) 0.58459(15)
C14 C 0.69693(16) 0.6308(4) 0.55312(15)
C15 C 0.90975(17) 0.2966(5) 0.42792(18)
H11 H 0.8988 0.3811 0.4316
C16 C 0.90655(19) 0.2504(6) 0.3816(2)
H12 H 0.8929 0.3024 0.3542
C17 C 0.9235(2) 0.1281(6) 0.3761(2)
C18 C 0.9426(2) 0.0494(6) 0.4157(3)
H13 H 0.9542 -0.0342 0.4115
C19 C 0.9446(2) 0.0957(5) 0.4622(2)
H14 H 0.9569 0.0418 0.4894
C20 C 0.92865(15) 0.2211(4) 0.46870(17)
C21 C 0.93540(15) 0.2704(5) 0.52004(18)
C22 C 0.92688(16) 0.4135(4) 0.52830(16)
C23 C 0.96727(18) 0.4941(6) 0.5459(2)
H15 H 0.9984 0.4580 0.5523
C24 C 0.9622(2) 0.6269(6) 0.5539(2)
H16 H 0.9897 0.6793 0.5657
C25 C 0.9171(2) 0.6809(6) 0.5447(2)
H17 H 0.9138 0.7705 0.5497
C26 C 0.87585(18) 0.6037(5) 0.52781(18)
H18 H 0.8450 0.6412 0.5217
C27 C 0.88068(15) 0.4699(4) 0.52007(15)
C28 C 0.83601(15) 0.3862(4) 0.50412(14)
C29 C 0.58316(19) 0.3940(6) 0.30198(18)
H19 H 0.5880 0.4767 0.2900
C30 C 0.5392(2) 0.3664(7) 0.30977(19)
H20 H 0.5147 0.4296 0.3042
C31 C 0.53208(19) 0.2442(7) 0.3259(2)
C32 C 0.5683(2) 0.1514(6) 0.3371(2)
H21 H 0.5632 0.0695 0.3494
C33 C 0.61276(19) 0.1829(5) 0.3294(2)
H22 H 0.6378 0.1211 0.3366
C34 C 0.62060(16) 0.3039(5) 0.31120(15)
C35 C 0.66723(16) 0.3421(5) 0.30072(16)
C36 C 0.70927(16) 0.2473(4) 0.30995(14)
C37 C 0.7215(2) 0.2020(6) 0.26864(17)
H23 H 0.7033 0.2281 0.2375
C38 C 0.7606(2) 0.1186(6) 0.2736(2)
H24 H 0.7683 0.0881 0.2457
C39 C 0.7882(2) 0.0803(5) 0.3190(2)
H25 H 0.8146 0.0241 0.3219
C40 C 0.77702(17) 0.1247(4) 0.36061(18)
H26 H 0.7962 0.0993 0.3916
C41 C 0.73738(15) 0.2071(4) 0.35649(14)
C42 C 0.72682(14) 0.2612(4) 0.40165(13)
Pr1F Pr 0.78936(2) 0.07221(2) 0.51376(2)
Pr1F_2 Pr 0.78936(2) 1.07221(2) 0.51376(2)
O1F O 0.71111(10) 0.6325(3) 0.43298(10)
O5F O 0.65865(10) 0.2370(3) 0.49145(11)
O9F O 0.75639(10) 0.2957(3) 0.55746(9)
loop_
_geom_bond_atom_site_label_1
_geom_bond_atom_site_label_2
_geom_bond_site_symmetry_1
_geom_bond_site_symmetry_2
Pr1 O2 1_555 1_555
Cl1 C3 1_555 1_555
Cl2 C17 1_555 1_555
Cl3 C31 1_555 1_555
O1 C7 1_555 1_555
O2 C14 1_555 1_555
O3 Pr1 1_555 1_555
O4 C21 1_555 1_555
O5 C28 1_555 1_555
O6 Pr1 1_555 1_555
O7 C35 1_555 1_555
O8 Pr1 1_555 1_555
O9 Pr1 1_555 1_555
O10 Pr1 1_555 1_555
H1 O10 1_555 1_555
H2 O10 1_555 1_555
C1 H3 1_555 1_555
C2 C1 1_555 1_555
H4 C2 1_555 1_555
C3 C2 1_555 1_555
C4 C3 1_555 1_555
H5 C4 1_555 1_555
C5 C4 1_555 1_555
H6 C5 1_555 1_555
C6 C1 1_555 1_555
C7 C6 1_555 1_555
C8 C7 1_555 1_555
C9 C8 1_555 1_555
H7 C9 1_555 1_555
C10 C9 1_555 1_555
H8 C10 1_555 1_555
C11 C10 1_555 1_555
H9 C11 1_555 1_555
C12 C11 1_555 1_555
H10 C12 1_555 1_555
C13 C8 1_555 1_555
C14 O3 1_555 1_555
C15 H11 1_555 1_555
C16 C15 1_555 1_555
H12 C16 1_555 1_555
C17 C16 1_555 1_555
C18 C17 1_555 1_555
H13 C18 1_555 1_555
C19 C18 1_555 1_555
H14 C19 1_555 1_555
C20 C15 1_555 1_555
C21 C20 1_555 1_555
C22 C21 1_555 1_555
C23 C22 1_555 1_555
H15 C23 1_555 1_555
C24 C23 1_555 1_555
H16 C24 1_555 1_555
C25 C24 1_555 1_555
H17 C25 1_555 1_555
C26 C25 1_555 1_555
H18 C26 1_555 1_555
C27 C22 1_555 1_555
C28 O6 1_555 1_555
C29 H19 1_555 1_555
C30 C29 1_555 1_555
H20 C30 1_555 1_555
C31 C30 1_555 1_555
C32 C31 1_555 1_555
H21 C32 1_555 1_555
C33 C32 1_555 1_555
H22 C33 1_555 1_555
C34 C29 1_555 1_555
C35 C34 1_555 1_555
C36 C35 1_555 1_555
C37 C36 1_555 1_555
H23 C37 1_555 1_555
C38 C37 1_555 1_555
H24 C38 1_555 1_555
C39 C38 1_555 1_555
H25 C39 1_555 1_555
C40 C39 1_555 1_555
H26 C40 1_555 1_555
C41 C36 1_555 1_555
C42 O8 1_555 1_555
Pr1F O5 1_555 1_555
Pr1F_2 O1 1_555 1_555
O1F Pr1 1_555 1_555
O5F Pr1 1_555 1_555
O9F Pr1 1_555 1_555
O9 C42 1_555 1_555
O9 Pr1F 1_555 1_555
C5 C6 1_555 1_555
C12 C13 1_555 1_555
C13 C14 1_555 1_555
C19 C20 1_555 1_555
C26 C27 1_555 1_555
C27 C28 1_555 1_555
C33 C34 1_555 1_555
C40 C41 1_555 1_555
C41 C42 1_555 1_555
Pr1F O9F 1_555 1_555

#END
