
#######################################################################
#
#                 Cambridge Crystallographic Data Centre
#                                CCDC 
#
#######################################################################
#
# If this CIF has been generated from an entry in the Cambridge 
# Structural Database, then it will include bibliographic, chemical, 
# crystal, experimental, refinement or atomic coordinate data resulting 
# from the CCDC's data processing and validation procedures.
#
#######################################################################

data_LOHKUQ
_symmetry_cell_setting           monoclinic
_symmetry_space_group_name_H-M   'P 21/c'
_symmetry_Int_Tables_number      14
_space_group_name_Hall           '-P 2ybc'
loop_
_symmetry_equiv_pos_site_id
_symmetry_equiv_pos_as_xyz
1 x,y,z
2 -x,1/2+y,1/2-z
3 -x,-y,-z
4 x,1/2-y,1/2+z
_cell_length_a                   14.7157(18)
_cell_length_b                   3.7029(19)
_cell_length_c                   16.0233(15)
_cell_angle_alpha                90
_cell_angle_beta                 116.682(13)
_cell_angle_gamma                90
_cell_volume                     780.145
loop_
_atom_site_label
_atom_site_type_symbol
_atom_site_fract_x
_atom_site_fract_y
_atom_site_fract_z
Na1 Na 0.4111(3) 0.2304(15) 0.7694(3)
O1 O 0.4056(4) 0.748(2) 0.6793(4)
C1 C 0.3734(7) 0.711(4) 0.5904(7)
N1 N 0.4341(6) 0.802(3) 0.5548(5)
N2 N 0.3994(5) 0.752(3) 0.4606(5)
H1 H 0.4389 0.8255 0.4375
C2 C 0.3117(7) 0.605(4) 0.4007(6)
O2 O 0.2976(4) 0.553(2) 0.3185(4)
C3 C 0.2427(7) 0.496(4) 0.4377(7)
C4 C 0.1468(7) 0.329(4) 0.3828(7)
N3 N 0.1130(5) 0.285(3) 0.2880(5)
H2 H 0.0525 0.2061 0.2538
H3 H 0.1524 0.3362 0.2631
C5 C 0.0846(7) 0.248(3) 0.4223(7)
H4 H 0.0194 0.1613 0.3849
C6 C 0.1176(6) 0.293(4) 0.5196(6)
H5 H 0.0758 0.2195 0.5460
C7 C 0.2117(7) 0.445(3) 0.5758(7)
H6 H 0.2329 0.4809 0.6393
C8 C 0.2740(6) 0.542(4) 0.5340(6)
Na1_2 Na 0.4111(3) 1.2304(15) 0.7694(3)
Na1C Na 0.4111(3) 0.2696(15) 0.2694(3)
Na1A Na 0.5889(3) 0.7304(15) 0.7306(3)
O1_2 O 0.4056(4) -0.252(2) 0.6793(4)
O1A O 0.5944(4) 0.248(2) 0.8207(4)
N1A N 0.5659(6) 0.302(3) 0.9452(5)
O2C O 0.2976(4) -0.053(2) 0.8185(4)
loop_
_geom_bond_atom_site_label_1
_geom_bond_atom_site_label_2
_geom_bond_site_symmetry_1
_geom_bond_site_symmetry_2
Na1 O1 1_555 1_555
O1 C1 1_555 1_555
C1 N1 1_555 1_555
N1 N2 1_555 1_555
N2 H1 1_555 1_555
C2 N2 1_555 1_555
O2 C2 1_555 1_555
C3 C2 1_555 1_555
C4 C3 1_555 1_555
N3 C4 1_555 1_555
H2 N3 1_555 1_555
H3 N3 1_555 1_555
C5 C4 1_555 1_555
H4 C5 1_555 1_555
C6 C5 1_555 1_555
H5 C6 1_555 1_555
C7 C6 1_555 1_555
H6 C7 1_555 1_555
C8 C1 1_555 1_555
Na1_2 O1 1_555 1_555
Na1C O2 1_555 1_555
Na1A O1 1_555 1_555
O1_2 Na1 1_555 1_555
O1A Na1 1_555 1_555
N1A Na1 1_555 1_555
O2C Na1 1_555 1_555
N1 Na1A 1_555 1_555
C3 C8 1_555 1_555
C7 C8 1_555 1_555
Na1A O1A 1_555 1_555

#END
