
#######################################################################
#
#                 Cambridge Crystallographic Data Centre
#                                CCDC 
#
#######################################################################
#
# If this CIF has been generated from an entry in the Cambridge 
# Structural Database, then it will include bibliographic, chemical, 
# crystal, experimental, refinement or atomic coordinate data resulting 
# from the CCDC's data processing and validation procedures.
#
#######################################################################

data_LOHKOK
_symmetry_cell_setting           orthorhombic
_symmetry_space_group_name_H-M   'P n a 21'
_symmetry_Int_Tables_number      33
_space_group_name_Hall           'P 2c -2n'
loop_
_symmetry_equiv_pos_site_id
_symmetry_equiv_pos_as_xyz
1 x,y,z
2 -x,-y,1/2+z
3 1/2-x,1/2+y,1/2+z
4 1/2+x,1/2-y,z
_cell_length_a                   27.7765(15)
_cell_length_b                   3.3980(19)
_cell_length_c                   8.1692(19)
_cell_angle_alpha                90
_cell_angle_beta                 90
_cell_angle_gamma                90
_cell_volume                     771.046
loop_
_atom_site_label
_atom_site_type_symbol
_atom_site_fract_x
_atom_site_fract_y
_atom_site_fract_z
Na1 Na 0.05230(18) 0.9484(14) 0.0000(6)
O1 O 0.0562(3) 0.416(2) 0.1888(11)
C1 C 0.0660(4) 0.424(5) 0.3458(19)
N1 N 0.0312(4) 0.464(3) 0.4516(12)
N2 N 0.0435(4) 0.467(3) 0.6168(12)
H1 H 0.0203 0.5022 0.6848
C2 C 0.0870(4) 0.423(4) 0.6806(18)
O2 O 0.0913(3) 0.432(2) 0.8366(14)
C3 C 0.1267(5) 0.372(4) 0.5681(16)
C4 C 0.1752(4) 0.315(4) 0.6178(17)
N3 N 0.1874(3) 0.304(4) 0.7814(13)
H2 H 0.2165 0.2499 0.8100
H3 H 0.1660 0.3513 0.8546
C5 C 0.2099(5) 0.239(5) 0.5043(17)
H4 H 0.2411 0.1826 0.5385
C6 C 0.1992(5) 0.243(5) 0.335(2)
H5 H 0.2237 0.2099 0.2595
C7 C 0.1517(4) 0.298(5) 0.2815(17)
H6 H 0.1442 0.2932 0.1707
C8 C 0.1161(5) 0.359(5) 0.3980(14)
Na1_2 Na 0.05230(18) -0.0516(14) 0.0000(6)
Na1_3 Na 0.05230(18) -0.0516(14) 1.0000(6)
Na1_4 Na 0.05230(18) 0.9484(14) 1.0000(6)
Na1A Na -0.05230(18) 0.0516(14) 0.5000(6)
O1_2 O 0.0562(3) 1.416(2) 0.1888(11)
N1A N -0.0312(4) 0.536(3) -0.0484(12)
O2_2 O 0.0913(3) 0.432(2) -0.1634(14)
O2_3 O 0.0913(3) 1.432(2) -0.1634(14)
loop_
_geom_bond_atom_site_label_1
_geom_bond_atom_site_label_2
_geom_bond_site_symmetry_1
_geom_bond_site_symmetry_2
Na1 O1 1_555 1_555
O1 C1 1_555 1_555
C1 N1 1_555 1_555
N1 N2 1_555 1_555
N2 H1 1_555 1_555
C2 N2 1_555 1_555
O2 C2 1_555 1_555
C3 C2 1_555 1_555
C4 C3 1_555 1_555
N3 C4 1_555 1_555
H2 N3 1_555 1_555
H3 N3 1_555 1_555
C5 C4 1_555 1_555
H4 C5 1_555 1_555
C6 C5 1_555 1_555
H5 C6 1_555 1_555
C7 C6 1_555 1_555
H6 C7 1_555 1_555
C8 C1 1_555 1_555
Na1_2 O1 1_555 1_555
Na1_3 O2 1_555 1_555
Na1_4 O2 1_555 1_555
Na1A N1 1_555 1_555
O1_2 Na1 1_555 1_555
N1A Na1 1_555 1_555
O2_2 Na1 1_555 1_555
O2_3 Na1 1_555 1_555
C3 C8 1_555 1_555
C7 C8 1_555 1_555
Na1_2 O2_2 1_555 1_555

#END
