
#######################################################################
#
#                 Cambridge Crystallographic Data Centre
#                                CCDC 
#
#######################################################################
#
# If this CIF has been generated from an entry in the Cambridge 
# Structural Database, then it will include bibliographic, chemical, 
# crystal, experimental, refinement or atomic coordinate data resulting 
# from the CCDC's data processing and validation procedures.
#
#######################################################################

data_LOHKOK02
_symmetry_cell_setting           monoclinic
_symmetry_space_group_name_H-M   'P 21/c'
_symmetry_Int_Tables_number      14
_space_group_name_Hall           '-P 2ybc'
loop_
_symmetry_equiv_pos_site_id
_symmetry_equiv_pos_as_xyz
1 x,y,z
2 -x,1/2+y,1/2-z
3 -x,-y,-z
4 x,1/2-y,1/2+z
_cell_length_a                   8.0364(2)
_cell_length_b                   3.69765(5)
_cell_length_c                   26.4246(7)
_cell_angle_alpha                90
_cell_angle_beta                 96.346(2)
_cell_angle_gamma                90
_cell_volume                     780.417
loop_
_atom_site_label
_atom_site_type_symbol
_atom_site_fract_x
_atom_site_fract_y
_atom_site_fract_z
Na1 Na 0.1351(5) 0.2478(13) 0.04594(17)
O1 O 0.9664(4) 0.756(2) 0.0498(2)
O2 O 0.3341(3) 0.5539(11) 0.09837(13)
N1 N 0.6831(4) 0.7954(12) 0.02958(14)
N2 N 0.5302(4) 0.7295(10) 0.04695(12)
N3 N 0.4538(5) 0.2784(13) 0.18864(13)
C1 C 0.8201(4) 0.7070(17) 0.06177(17)
C2 C 0.4879(3) 0.5879(9) 0.09132(11)
C3 C 0.6325(3) 0.4887(13) 0.12695(13)
C4 C 0.6120(5) 0.3355(16) 0.17564(13)
C5 C 0.7559(6) 0.248(2) 0.20848(17)
C6 C 0.9158(5) 0.309(3) 0.1936(2)
C7 C 0.9363(4) 0.457(3) 0.1463(2)
C8 C 0.7949(3) 0.5482(18) 0.11251(16)
H1 H 0.4308(4) 0.7999(13) 0.02172(12)
H2 H 0.3520(5) 0.3504(11) 0.16402(13)
H3 H 0.4379(6) 0.1769(15) 0.22326(15)
H4 H 0.7418(7) 0.131(3) 0.24584(18)
H5 H 1.0254(6) 0.238(4) 0.2200(2)
H6 H 1.0589(3) 0.506(3) 0.1336(2)
Na1_2 Na 1.1351(5) 0.2478(13) 0.04594(17)
Na1_3 Na 1.1351(5) 1.2478(13) 0.04594(17)
Na1B Na 0.8649(5) 0.7522(13) -0.04594(17)
O1_2 O -0.0336(4) -0.244(2) 0.0498(2)
O1_3 O -0.0336(4) 0.756(2) 0.0498(2)
O1B O 0.0336(4) 0.244(2) -0.0498(2)
N1B N 0.3169(4) 0.2046(12) -0.02958(14)
loop_
_geom_bond_atom_site_label_1
_geom_bond_atom_site_label_2
_geom_bond_site_symmetry_1
_geom_bond_site_symmetry_2
Na1 O2 1_555 1_555
O1 C1 1_555 1_555
O2 C2 1_555 1_555
N1 N2 1_555 1_555
N2 C2 1_555 1_555
N3 C4 1_555 1_555
C1 N1 1_555 1_555
C2 C3 1_555 1_555
C3 C4 1_555 1_555
C4 C5 1_555 1_555
C5 C6 1_555 1_555
C6 C7 1_555 1_555
C7 C8 1_555 1_555
C8 C1 1_555 1_555
H1 N2 1_555 1_555
H2 N3 1_555 1_555
H3 N3 1_555 1_555
H4 C5 1_555 1_555
H5 C6 1_555 1_555
H6 C7 1_555 1_555
Na1_2 O1 1_555 1_555
Na1_3 O1 1_555 1_555
Na1B O1 1_555 1_555
O1_2 Na1 1_555 1_555
O1_3 Na1 1_555 1_555
O1B Na1 1_555 1_555
N1B Na1 1_555 1_555
N1 Na1B 1_555 1_555
C3 C8 1_555 1_555

#END
