
#######################################################################
#
#                 Cambridge Crystallographic Data Centre
#                                CCDC 
#
#######################################################################
#
# If this CIF has been generated from an entry in the Cambridge 
# Structural Database, then it will include bibliographic, chemical, 
# crystal, experimental, refinement or atomic coordinate data resulting 
# from the CCDC's data processing and validation procedures.
#
#######################################################################

data_LOHKOK01
_symmetry_cell_setting           monoclinic
_symmetry_space_group_name_H-M   'P 21/c'
_symmetry_Int_Tables_number      14
_space_group_name_Hall           '-P 2ybc'
loop_
_symmetry_equiv_pos_site_id
_symmetry_equiv_pos_as_xyz
1 x,y,z
2 -x,1/2+y,1/2-z
3 -x,-y,-z
4 x,1/2-y,1/2+z
_cell_length_a                   14.7172(7)
_cell_length_b                   3.70031(10)
_cell_length_c                   16.0055(8)
_cell_angle_alpha                90
_cell_angle_beta                 116.715(3)
_cell_angle_gamma                90
_cell_volume                     778.587
loop_
_atom_site_label
_atom_site_type_symbol
_atom_site_fract_x
_atom_site_fract_y
_atom_site_fract_z
Na1 Na 0.4099(5) 0.2584(18) 0.7694(4)
O1 O 0.4032(5) 0.7654(15) 0.6833(3)
O2 O 0.2971(3) 0.5728(9) 0.3147(3)
N1 N 0.4396(3) 0.8107(11) 0.5591(3)
N2 N 0.4027(3) 0.7468(10) 0.4644(3)
N3 N 0.1186(3) 0.2923(15) 0.2875(4)
C1 C 0.3773(4) 0.7189(12) 0.5973(3)
C2 C 0.3134(2) 0.6044(8) 0.3997(3)
C3 C 0.2444(3) 0.5016(11) 0.4384(3)
C4 C 0.1468(3) 0.3471(15) 0.3806(4)
C5 C 0.0833(4) 0.256(2) 0.4217(5)
C6 C 0.1154(5) 0.315(2) 0.5174(5)
C7 C 0.2102(5) 0.4636(19) 0.5740(4)
C8 C 0.2756(4) 0.5588(13) 0.5350(3)
H1 H 0.4516(3) 0.8198(13) 0.4385(4)
H2 H 0.1663(3) 0.3668(12) 0.2598(3)
H3 H 0.0492(3) 0.1899(18) 0.2457(5)
H4 H 0.0085(4) 0.138(3) 0.3781(6)
H5 H 0.0642(6) 0.241(3) 0.5474(6)
H6 H 0.2372(6) 0.512(2) 0.6486(4)
Na1_2 Na 0.4099(5) 1.2584(18) 0.7694(4)
Na1A Na 0.5901(5) 0.7584(18) 0.7306(4)
Na1C Na 0.4099(5) 0.2416(18) 0.2694(4)
O1_2 O 0.4032(5) -0.2346(15) 0.6833(3)
O1A O 0.5968(5) 0.2654(15) 0.8167(3)
O2C O 0.2971(3) -0.0728(9) 0.8147(3)
N1A N 0.5604(3) 0.3107(11) 0.9409(3)
loop_
_geom_bond_atom_site_label_1
_geom_bond_atom_site_label_2
_geom_bond_site_symmetry_1
_geom_bond_site_symmetry_2
Na1 O1 1_555 1_555
O1 C1 1_555 1_555
O2 C2 1_555 1_555
N1 N2 1_555 1_555
N2 C2 1_555 1_555
N3 C4 1_555 1_555
C1 N1 1_555 1_555
C2 C3 1_555 1_555
C3 C4 1_555 1_555
C4 C5 1_555 1_555
C5 C6 1_555 1_555
C6 C7 1_555 1_555
C7 C8 1_555 1_555
C8 C1 1_555 1_555
H1 N2 1_555 1_555
H2 N3 1_555 1_555
H3 N3 1_555 1_555
H4 C5 1_555 1_555
H5 C6 1_555 1_555
H6 C7 1_555 1_555
Na1_2 O1 1_555 1_555
Na1A O1 1_555 1_555
Na1C O2 1_555 1_555
O1_2 Na1 1_555 1_555
O1A Na1 1_555 1_555
O2C Na1 1_555 1_555
N1A Na1 1_555 1_555
N1 Na1A 1_555 1_555
C3 C8 1_555 1_555
Na1A O1A 1_555 1_555

#END
