
#######################################################################
#
#                 Cambridge Crystallographic Data Centre
#                                CCDC 
#
#######################################################################
#
# If this CIF has been generated from an entry in the Cambridge 
# Structural Database, then it will include bibliographic, chemical, 
# crystal, experimental, refinement or atomic coordinate data resulting 
# from the CCDC's data processing and validation procedures.
#
#######################################################################

data_LOHMEA
_symmetry_cell_setting           monoclinic
_symmetry_space_group_name_H-M   'C 2/c'
_symmetry_Int_Tables_number      15
_space_group_name_Hall           '-C 2yn'
loop_
_symmetry_equiv_pos_site_id
_symmetry_equiv_pos_as_xyz
1 x,y,z
2 1/2+x,1/2+y,z
3 x,-y,1/2+z
4 1/2+x,1/2-y,1/2+z
5 -x,-y,-z
6 1/2-x,1/2-y,-z
7 -x,y,1/2-z
8 1/2-x,1/2+y,1/2-z
_cell_length_a                   31.562(5)
_cell_length_b                   13.548(2)
_cell_length_c                   18.733(6)
_cell_angle_alpha                90.00
_cell_angle_beta                 91.28(2)
_cell_angle_gamma                90.00
_cell_volume                     8008.27
loop_
_atom_site_label
_atom_site_type_symbol
_atom_site_fract_x
_atom_site_fract_y
_atom_site_fract_z
Cd1 Cd 0.13003(2) -0.79066(6) -0.63869(4)
Br1 Br 0.05445(4) -0.76133(13) -0.67861(10)
Br2 Br 0.18274(4) -0.84918(13) -0.72971(9)
P1 P 0.13911(9) -0.5502(2) -0.56830(15)
P2 P 0.14118(10) 0.0384(2) -0.4840(2)
O1 O 0.1500(2) -0.6572(5) -0.5747(4)
O2 O 0.1335(3) 0.1033(6) -0.5474(4)
O3 O 0.0505(2) -0.3962(5) -0.4561(4)
O4 O 0.0893(3) -0.2074(6) -0.4721(6)
C1 C 0.0834(3) -0.5298(8) -0.5533(6)
H1 H 0.0774(3) -0.4602(8) -0.5600(6)
H2 H 0.0672(3) -0.5658(8) -0.5894(6)
C2 C 0.0468(5) -0.3202(10) -0.4016(10)
H3 H 0.0701(5) -0.3243(10) -0.3672(10)
H4 H 0.0203(5) -0.3269(10) -0.3767(10)
C3 C 0.0480(5) -0.2259(9) -0.4411(12)
H5 H 0.0265(5) -0.2269(9) -0.4789(12)
H6 H 0.0413(5) -0.1723(9) -0.4089(12)
C4 C 0.1549(3) -0.0855(8) -0.5097(7)
H7 H 0.1836(3) -0.0849(8) -0.5274(7)
H8 H 0.1550(3) -0.1269(8) -0.4674(7)
C5 C 0.0672(2) -0.5613(5) -0.4778(3)
C6 C 0.0686(2) -0.6600(5) -0.4576(4)
H9 H 0.0794(3) -0.7070(6) -0.4883(5)
C7 C 0.0536(3) -0.6883(5) -0.3914(4)
H10 H 0.0545(4) -0.7543(5) -0.3779(6)
C8 C 0.0374(3) -0.6180(7) -0.3454(3)
H11 H 0.0274(4) -0.6369(9) -0.3011(4)
C9 C 0.0361(2) -0.5193(6) -0.3656(4)
H12 H 0.0252(3) -0.4722(7) -0.3349(5)
C10 C 0.0510(2) -0.4909(4) -0.4318(4)
C11 C 0.0930(3) -0.1930(7) -0.5438(4)
C12 C 0.0661(3) -0.2379(7) -0.5937(6)
H13 H 0.0442(4) -0.2782(9) -0.5786(8)
C13 C 0.0719(3) -0.2227(8) -0.6662(5)
H14 H 0.0539(5) -0.2527(11) -0.6996(7)
C14 C 0.1046(4) -0.1625(9) -0.6888(4)
H15 H 0.1085(5) -0.1522(12) -0.7373(4)
C15 C 0.1316(3) -0.1175(7) -0.6389(6)
H16 H 0.1535(4) -0.0773(10) -0.6540(8)
C16 C 0.1258(3) -0.1328(6) -0.5664(5)
C17 C 0.1495(2) -0.4821(6) -0.6526(4)
C18 C 0.1743(3) -0.3974(6) -0.6509(4)
H17 H 0.1859(4) -0.3749(9) -0.6078(5)
C19 C 0.1819(3) -0.3462(5) -0.7137(5)
H18 H 0.1985(4) -0.2895(7) -0.7125(7)
C20 C 0.1646(3) -0.3798(6) -0.7781(4)
H19 H 0.1696(4) -0.3455(9) -0.8201(5)
C21 C 0.1397(3) -0.4645(7) -0.7797(4)
H20 H 0.1282(4) -0.4870(10) -0.8229(4)
C22 C 0.1322(2) -0.5157(5) -0.7170(5)
H21 H 0.1156(3) -0.5724(7) -0.7181(7)
C23 C 0.1696(2) -0.4936(5) -0.4947(3)
C24 C 0.1573(2) -0.4051(5) -0.4639(4)
H22 H 0.1323(2) -0.3745(7) -0.4790(6)
C25 C 0.1824(3) -0.3622(5) -0.4103(4)
H23 H 0.1741(4) -0.3030(6) -0.3897(6)
C26 C 0.2197(2) -0.4079(6) -0.3877(4)
H24 H 0.2365(3) -0.3792(8) -0.3518(5)
C27 C 0.2320(2) -0.4964(6) -0.4185(4)
H25 H 0.2570(2) -0.5270(8) -0.4033(6)
C28 C 0.2070(2) -0.5392(4) -0.4720(4)
H26 H 0.2152(3) -0.5985(5) -0.4926(5)
C29 C 0.0944(2) 0.0297(6) -0.4281(4)
C30 C 0.0958(2) -0.0071(6) -0.3589(4)
H27 H 0.1215(2) -0.0276(8) -0.3385(6)
C31 C 0.0589(3) -0.0133(6) -0.3200(3)
H28 H 0.0599(4) -0.0380(9) -0.2737(4)
C32 C 0.0205(2) 0.0173(6) -0.3505(4)
H29 H -0.0042(3) 0.0132(9) -0.3245(6)
C33 C 0.0191(2) 0.0542(6) -0.4197(5)
H30 H -0.0066(2) 0.0746(9) -0.4401(6)
C34 C 0.0560(3) 0.0604(6) -0.4586(3)
H31 H 0.0551(4) 0.0850(9) -0.5049(4)
C35 C 0.1840(2) 0.0795(5) -0.4258(4)
C36 C 0.1980(2) 0.1762(5) -0.4330(4)
H32 H 0.1852(3) 0.2176(7) -0.4667(5)
C37 C 0.2311(2) 0.2111(4) -0.3897(5)
H33 H 0.2405(3) 0.2757(5) -0.3946(6)
C38 C 0.2501(2) 0.1492(6) -0.3393(4)
H34 H 0.2723(3) 0.1725(8) -0.3103(6)
C39 C 0.2361(2) 0.0526(5) -0.3320(4)
H35 H 0.2489(3) 0.0112(7) -0.2983(5)
C40 C 0.2030(2) 0.0177(4) -0.3753(4)
H36 H 0.1937(3) -0.0470(5) -0.3705(6)
O2_2 O 0.1335(3) -0.8967(6) -0.5474(4)
Cd1_2 Cd 0.13003(2) 0.20934(6) -0.63869(4)
loop_
_geom_bond_atom_site_label_1
_geom_bond_atom_site_label_2
_geom_bond_site_symmetry_1
_geom_bond_site_symmetry_2
Cd1 Br1 1_555 1_555
Br2 Cd1 1_555 1_555
P1 O1 1_555 1_555
P2 O2 1_555 1_555
O1 Cd1 1_555 1_555
O2 Cd1_2 1_555 1_555
O3 C2 1_555 1_555
O4 C3 1_555 1_555
C1 P1 1_555 1_555
H1 C1 1_555 1_555
H2 C1 1_555 1_555
C2 H3 1_555 1_555
H4 C2 1_555 1_555
C3 C2 1_555 1_555
H5 C3 1_555 1_555
H6 C3 1_555 1_555
C4 P2 1_555 1_555
H7 C4 1_555 1_555
H8 C4 1_555 1_555
C5 C1 1_555 1_555
C6 C5 1_555 1_555
H9 C6 1_555 1_555
C7 C6 1_555 1_555
H10 C7 1_555 1_555
C8 C7 1_555 1_555
H11 C8 1_555 1_555
C9 C8 1_555 1_555
H12 C9 1_555 1_555
C10 O3 1_555 1_555
C11 O4 1_555 1_555
C12 C11 1_555 1_555
H13 C12 1_555 1_555
C13 C12 1_555 1_555
H14 C13 1_555 1_555
C14 C13 1_555 1_555
H15 C14 1_555 1_555
C15 C14 1_555 1_555
H16 C15 1_555 1_555
C16 C4 1_555 1_555
C17 P1 1_555 1_555
C18 C17 1_555 1_555
H17 C18 1_555 1_555
C19 C18 1_555 1_555
H18 C19 1_555 1_555
C20 C19 1_555 1_555
H19 C20 1_555 1_555
C21 C20 1_555 1_555
H20 C21 1_555 1_555
C22 C17 1_555 1_555
H21 C22 1_555 1_555
C23 P1 1_555 1_555
C24 C23 1_555 1_555
H22 C24 1_555 1_555
C25 C24 1_555 1_555
H23 C25 1_555 1_555
C26 C25 1_555 1_555
H24 C26 1_555 1_555
C27 C26 1_555 1_555
H25 C27 1_555 1_555
C28 C23 1_555 1_555
H26 C28 1_555 1_555
C29 P2 1_555 1_555
C30 C29 1_555 1_555
H27 C30 1_555 1_555
C31 C30 1_555 1_555
H28 C31 1_555 1_555
C32 C31 1_555 1_555
H29 C32 1_555 1_555
C33 C32 1_555 1_555
H30 C33 1_555 1_555
C34 C29 1_555 1_555
H31 C34 1_555 1_555
C35 P2 1_555 1_555
C36 C35 1_555 1_555
H32 C36 1_555 1_555
C37 C36 1_555 1_555
H33 C37 1_555 1_555
C38 C37 1_555 1_555
H34 C38 1_555 1_555
C39 C38 1_555 1_555
H35 C39 1_555 1_555
C40 C35 1_555 1_555
H36 C40 1_555 1_555
O2_2 Cd1 1_555 1_555
C5 C10 1_555 1_555
C9 C10 1_555 1_555
C11 C16 1_555 1_555
C15 C16 1_555 1_555
C21 C22 1_555 1_555
C27 C28 1_555 1_555
C33 C34 1_555 1_555
C39 C40 1_555 1_555

#END
