
#######################################################################
#
#                 Cambridge Crystallographic Data Centre
#                                CCDC 
#
#######################################################################
#
# If this CIF has been generated from an entry in the Cambridge 
# Structural Database, then it will include bibliographic, chemical, 
# crystal, experimental, refinement or atomic coordinate data resulting 
# from the CCDC's data processing and validation procedures.
#
#######################################################################

data_LOHROR
_symmetry_cell_setting           orthorhombic
_symmetry_space_group_name_H-M   'P c a b'
_symmetry_Int_Tables_number      61
_space_group_name_Hall           '-P 2bc 2ac'
loop_
_symmetry_equiv_pos_site_id
_symmetry_equiv_pos_as_xyz
1 x,y,z
2 -x,1/2-y,1/2+z
3 1/2+x,-y,1/2-z
4 1/2-x,1/2+y,-z
5 -x,-y,-z
6 x,1/2+y,1/2-z
7 1/2-x,y,1/2+z
8 1/2+x,1/2-y,z
_cell_length_a                   14.545(3)
_cell_length_b                   14.834(3)
_cell_length_c                   12.805(4)
_cell_angle_alpha                90
_cell_angle_beta                 90
_cell_angle_gamma                90
_cell_volume                     2762.81
loop_
_atom_site_label
_atom_site_type_symbol
_atom_site_fract_x
_atom_site_fract_y
_atom_site_fract_z
Zn1 Zn 0.54519(5) 0.25867(4) 0.12262(4)
S1 S 0.69116(12) 0.49513(11) 0.52506(11)
N1 N 0.6318(3) 0.2673(4) 0.0100(4)
N2 N 0.5037(4) 0.1459(3) 0.1754(4)
N3 N 0.9340(3) 0.6683(3) 0.4251(3)
N4 N 0.5950(3) 0.3318(3) 0.2457(3)
O1 O 0.7106(4) 0.2156(2) -0.1382(3)
O2 O 0.4498(4) 0.0286(3) 0.2824(3)
C1 C 0.6706(4) 0.2426(5) -0.0646(4)
C2 C 0.4759(5) 0.0879(4) 0.2292(4)
C3 C 0.5432(5) 0.3446(4) 0.3318(4)
H1 H 0.4856 0.3175 0.3348
C4 C 0.5716(4) 0.3957(4) 0.4155(4)
H2 H 0.533 0.4046 0.4725
C5 C 0.6578(4) 0.4335(3) 0.4136(4)
C6 C 0.7120(4) 0.4208(3) 0.3255(4)
H3 H 0.7701 0.4468 0.3213
C7 C 0.6785(4) 0.3691(4) 0.2442(4)
H4 H 0.7157 0.36 0.1861
C8 C 0.7858(4) 0.5598(3) 0.4812(4)
C9 C 0.8671(4) 0.5578(4) 0.5379(4)
H5 H 0.873 0.5197 0.5952
C10 C 0.9386(4) 0.6124(3) 0.5089(4)
H6 H 0.9925 0.611 0.548
C11 C 0.8539(4) 0.6681(3) 0.3696(4)
H7 H 0.8494 0.7055 0.3115
C12 C 0.7804(4) 0.6161(3) 0.3950(4)
H8 H 0.7271 0.6182 0.3551
Zn1B Zn 1.04519(5) 0.74133(4) 0.37738(4)
N3B N 0.4340(3) 0.3317(3) 0.0749(3)
loop_
_geom_bond_atom_site_label_1
_geom_bond_atom_site_label_2
_geom_bond_site_symmetry_1
_geom_bond_site_symmetry_2
Zn1 N1 1_555 1_555
S1 C5 1_555 1_555
N1 C1 1_555 1_555
N2 Zn1 1_555 1_555
N3 C10 1_555 1_555
N4 Zn1 1_555 1_555
O1 C1 1_555 1_555
O2 C2 1_555 1_555
C2 N2 1_555 1_555
C3 N4 1_555 1_555
H1 C3 1_555 1_555
C4 C3 1_555 1_555
H2 C4 1_555 1_555
C5 C4 1_555 1_555
C6 C5 1_555 1_555
H3 C6 1_555 1_555
C7 N4 1_555 1_555
H4 C7 1_555 1_555
C8 S1 1_555 1_555
C9 C8 1_555 1_555
H5 C9 1_555 1_555
C10 C9 1_555 1_555
H6 C10 1_555 1_555
C11 N3 1_555 1_555
H7 C11 1_555 1_555
C12 C8 1_555 1_555
H8 C12 1_555 1_555
Zn1B N3 1_555 1_555
N3B Zn1 1_555 1_555
C6 C7 1_555 1_555
C11 C12 1_555 1_555

#END
