
#######################################################################
#
#                 Cambridge Crystallographic Data Centre
#                                CCDC 
#
#######################################################################
#
# If this CIF has been generated from an entry in the Cambridge 
# Structural Database, then it will include bibliographic, chemical, 
# crystal, experimental, refinement or atomic coordinate data resulting 
# from the CCDC's data processing and validation procedures.
#
#######################################################################

data_LOHSOS
_symmetry_cell_setting           monoclinic
_symmetry_space_group_name_H-M   'P 21'
_symmetry_Int_Tables_number      4
_space_group_name_Hall           'P 2yb'
loop_
_symmetry_equiv_pos_site_id
_symmetry_equiv_pos_as_xyz
1 x,y,z
2 -x,1/2+y,-z
_cell_length_a                   9.6133(2)
_cell_length_b                   45.6542(12)
_cell_length_c                   10.5801(3)
_cell_angle_alpha                90
_cell_angle_beta                 113.2020(10)
_cell_angle_gamma                90
_cell_volume                     4267.92
loop_
_atom_site_label
_atom_site_type_symbol
_atom_site_fract_x
_atom_site_fract_y
_atom_site_fract_z
C1 C -1.3938(7) 1.12820(14) -0.8987(7)
H1 H -1.3459 1.1235 -0.9627
H2 H -1.5039 1.1286 -0.9487
H3 H -1.3666 1.1133 -0.8264
C2 C -0.9170(6) 1.14428(14) -0.6790(7)
H4 H -0.8737 1.1250 -0.6444
H5 H -0.8806 1.1586 -0.6041
H6 H -0.8862 1.1503 -0.7530
C3 C -1.2898(6) 1.30222(14) -1.1780(7)
H7 H -1.3194 1.2845 -1.2349
H8 H -1.3379 1.3194 -1.2339
H9 H -1.3223 1.3005 -1.1014
C4 C -0.8225(6) 1.32466(12) -0.9799(6)
H10 H -0.8653 1.3299 -0.9127
H11 H -0.8638 1.3377 -1.0596
H12 H -0.7122 1.3267 -0.9376
C5 C 0.7452(7) 0.88971(13) 0.6333(7)
H13 H 0.8169 0.8733 0.6574
H14 H 0.6609 0.8850 0.6598
H15 H 0.7966 0.9074 0.6820
C6 C 0.4908(9) 0.94236(18) 0.1812(7)
H16 H 0.3994 0.9485 0.1939
H17 H 0.4632 0.9355 0.0866
H18 H 0.5604 0.9590 0.1990
C7 C 0.4994(8) 1.00350(17) 0.9663(7)
H19 H 0.4234 0.9880 0.9482
H20 H 0.5296 1.0105 1.0608
H21 H 0.5882 0.9957 0.9538
C8 C 0.2684(6) 1.05695(13) 0.5077(6)
H22 H 0.1999 1.0414 0.4546
H23 H 0.3574 1.0576 0.4844
H24 H 0.2159 1.0758 0.4858
C9 C -0.7939(6) 1.19745(12) -0.8903(5)
H25 H -0.8435 1.1945 -0.9867
C10 C -0.6502(6) 1.18583(12) -0.8223(5)
H26 H -0.6023 1.1753 -0.8714
C11 C -0.5770(5) 1.18988(11) -0.6799(5)
C12 C -0.6494(6) 1.20600(11) -0.6146(5)
H27 H -0.6019 1.2094 -0.5183
C13 C -0.7917(5) 1.21733(11) -0.6894(5)
H28 H -0.8389 1.2288 -0.6427
C14 C -0.3345(6) 1.18074(11) -0.4806(5)
C15 C -0.1935(5) 1.16217(11) -0.4308(5)
C16 C -0.0590(6) 1.17666(11) -0.3664(5)
H29 H -0.0600 1.1972 -0.3538
C17 C 0.0806(5) 1.16172(12) -0.3184(5)
C18 C 0.2210(6) 1.17712(13) -0.2642(6)
H30 H 0.2216 1.1978 -0.2554
C19 C 0.3547(7) 1.16222(15) -0.2250(7)
H31 H 0.4477 1.1726 -0.1900
C20 C 0.3553(6) 1.13098(13) -0.2364(6)
H32 H 0.4482 1.1206 -0.2098
C21 C 0.2224(6) 1.11650(12) -0.2855(6)
H33 H 0.2245 1.0957 -0.2908
C22 C 0.0791(6) 1.13067(11) -0.3298(5)
C23 C -0.0611(5) 1.11534(11) -0.3863(5)
C24 C -0.1926(5) 1.13151(11) -0.4399(5)
C25 C -0.4223(7) 1.11401(15) -0.4367(7)
H34 H -0.3967 1.0960 -0.3820
H35 H -0.5285 1.1133 -0.5013
H36 H -0.4068 1.1309 -0.3755
C26 C 0.4648(6) 1.01679(12) 0.3426(5)
H37 H 0.5662 1.0222 0.3975
C27 C 0.3919(6) 1.03094(12) 0.2189(6)
H38 H 0.4415 1.0461 0.1913
C28 C 0.2423(5) 1.02258(12) 0.1334(5)
C29 C 0.1733(6) 1.00161(12) 0.1835(5)
H39 H 0.0715 0.9959 0.1317
C30 C 0.2543(6) 0.98910(11) 0.3098(5)
H40 H 0.2044 0.9749 0.3427
C31 C 0.0771(6) 1.02073(11) -0.1089(5)
C32 C 0.0081(5) 1.03761(11) -0.2430(5)
C33 C -0.0298(5) 1.02127(11) -0.3607(5)
H41 H -0.0209 1.0006 -0.3536
C34 C -0.0812(5) 1.03421(11) -0.4907(5)
C35 C -0.1067(5) 1.01695(11) -0.6106(5)
H42 H -0.0952 0.9963 -0.6026
C36 C -0.1475(6) 1.02988(13) -0.7370(6)
H43 H -0.1636 1.0183 -0.8162
C37 C -0.1652(6) 1.06032(13) -0.7483(6)
H44 H -0.1951 1.0692 -0.8363
C38 C -0.1408(6) 1.07766(11) -0.6365(5)
H45 H -0.1542 1.0982 -0.6478
C39 C -0.0954(5) 1.06512(11) -0.5027(5)
C40 C -0.0588(5) 1.08238(10) -0.3807(5)
C41 C -0.0061(6) 1.06860(12) -0.2544(5)
C42 C -0.0794(8) 1.09222(18) -0.0919(7)
H46 H -0.1303 1.0741 -0.0841
H47 H -0.1526 1.1053 -0.1590
H48 H -0.0368 1.1020 -0.0022
C43 C -1.5503(6) 1.43113(12) -0.8069(6)
H49 H -1.4491 1.4257 -0.7511
C44 C -1.6207(6) 1.41735(12) -0.9327(6)
H50 H -1.5707 1.4022 -0.9598
C45 C -1.7674(5) 1.42620(11) -1.0198(5)
C46 C -1.8379(6) 1.44697(12) -0.9680(5)
H51 H -1.9389 1.4530 -1.0207
C47 C -1.7586(5) 1.45868(12) -0.8390(6)
H52 H -1.8083 1.4726 -0.8047
C48 C -1.9404(6) 1.42718(11) -1.2627(5)
C49 C -2.0091(6) 1.40887(11) -1.3885(5)
C50 C -2.0439(5) 1.42177(10) -1.5143(5)
H53 H -2.0303 1.4423 -1.5188
C51 C -2.0991(5) 1.40552(11) -1.6366(5)
C52 C -2.1293(6) 1.41909(12) -1.7674(6)
H54 H -2.1165 1.4396 -1.7720
C53 C -2.1754(7) 1.40303(14) -1.8834(6)
H55 H -2.1952 1.4123 -1.9693
C54 C -2.1942(7) 1.37259(15) -1.8775(6)
H56 H -2.2262 1.3616 -1.9603
C55 C -2.1680(6) 1.35830(12) -1.7568(5)
H57 H -2.1818 1.3377 -1.7562
C56 C -2.1196(5) 1.37465(11) -1.6314(5)
C57 C -2.0918(5) 1.36120(10) -1.5016(5)
C58 C -2.0408(5) 1.37805(10) -1.3846(5)
C59 C -2.1315(6) 1.37313(14) -1.2100(6)
H58 H -2.1330 1.3945 -1.2015
H59 H -2.1071 1.3641 -1.1197
H60 H -2.2310 1.3663 -1.2740
C60 C -1.3972(5) 1.25116(11) -0.9571(5)
H61 H -1.3464 1.2555 -0.8620
C61 C -1.5447(5) 1.26103(12) -1.0251(5)
H62 H -1.5933 1.2715 -0.9765
C62 C -1.6209(5) 1.25546(10) -1.1647(5)
C63 C -1.5443(5) 1.23902(11) -1.2309(5)
H63 H -1.5915 1.2344 -1.3259
C64 C -1.3986(5) 1.22997(11) -1.1524(5)
H64 H -1.3481 1.2187 -1.1969
C65 C -1.8620(5) 1.26089(11) -1.3661(5)
C66 C -2.0011(5) 1.28062(11) -1.4253(5)
C67 C -2.1412(5) 1.26764(10) -1.4795(5)
H65 H -2.1495 1.2469 -1.4794
C68 C -2.2738(5) 1.28513(11) -1.5359(5)
C69 C -2.4207(5) 1.27184(12) -1.5899(5)
H66 H -2.4301 1.2512 -1.5872
C70 C -2.5470(6) 1.28878(12) -1.6451(6)
H67 H -2.6441 1.2799 -1.6844
C71 C -2.5333(6) 1.31927(13) -1.6437(6)
H68 H -2.6223 1.3309 -1.6776
C72 C -2.3951(6) 1.33279(12) -1.5948(5)
H69 H -2.3895 1.3535 -1.5972
C73 C -2.2591(5) 1.31592(11) -1.5401(5)
C74 C -2.1145(5) 1.32893(10) -1.4911(5)
C75 C -1.9871(5) 1.31122(11) -1.4328(5)
C76 C -1.7616(6) 1.31809(13) -1.4679(6)
H70 H -1.8251 1.3226 -1.5640
H71 H -1.7329 1.2974 -1.4599
H72 H -1.6702 1.3302 -1.4374
O1 O -1.3422(4) 1.15633(8) -0.8379(4)
O2 O -1.0806(4) 1.14261(8) -0.7314(4)
O3 O -1.1288(4) 1.30548(8) -1.1252(4)
O4 O -0.8619(4) 1.29444(8) -1.0244(4)
O5 O 0.6878(5) 0.89478(9) 0.4866(5)
O6 O 0.5637(5) 0.91892(10) 0.2758(5)
O7 O 0.4341(4) 1.02823(9) 0.8686(4)
O8 O 0.3155(4) 1.05104(8) 0.6524(4)
O9 O -0.3528(5) 1.19990(10) -0.4084(4)
O10 O -0.3291(4) 1.11669(8) -0.5104(4)
O11 O 0.0531(4) 0.99458(8) -0.1071(4)
O12 O 0.0392(4) 1.08539(8) -0.1360(3)
O13 O -1.9698(4) 1.45351(8) -1.2622(4)
O14 O -2.0189(4) 1.36496(8) -1.2612(3)
O15 O -1.8457(4) 1.24051(8) -1.4321(4)
O16 O -1.8445(4) 1.32399(7) -1.3835(4)
P1 P -1.18080(15) 1.16893(3) -0.82280(15)
P2 P -1.01881(15) 1.28070(3) -1.03098(14)
P3 P 0.59428(17) 0.92454(3) 0.43312(17)
P4 P 0.41135(15) 1.02214(3) 0.71351(15)
S1 S -1.16039(15) 1.17212(3) -1.00166(14)
S2 S -1.14552(15) 1.20628(3) -0.72221(13)
S3 S -1.03038(15) 1.27781(3) -0.84832(14)
S4 S -1.04724(14) 1.24243(3) -1.12448(13)
S5 S 0.40296(15) 0.92526(3) 0.46283(15)
S6 S 0.71660(15) 0.96009(3) 0.50616(16)
S7 S 0.29407(14) 0.98579(3) 0.63954(15)
S8 S 0.60682(15) 1.02197(3) 0.69072(15)
Ni1 Ni -1.09450(7) 1.224679(14) -0.92239(6)
Ni2 Ni 0.50709(7) 0.973630(15) 0.57484(7)
N1 N -0.8664(4) 1.21282(9) -0.8251(4)
N2 N 0.3991(4) 0.99554(10) 0.3900(5)
N3 N -1.3227(4) 1.23579(9) -1.0188(4)
N4 N -1.6166(4) 1.45151(9) -0.7601(4)
N5 N -0.4355(5) 1.17593(10) -0.6118(4)
N6 N 0.1690(5) 1.03579(10) 0.0053(5)
N7 N -1.8378(5) 1.41358(9) -1.1494(4)
N8 N -1.7644(4) 1.26745(9) -1.2373(4)
H73 H -0.389(5) 1.1667(10) -0.660(4)
H74 H 0.201(5) 1.0537(6) -0.005(5)
H75 H -1.805(5) 1.3955(6) -1.157(5)
H76 H -1.795(5) 1.2768(11) -1.181(4)
Ni2A Ni -1.50709(7) 1.473630(15) -0.57484(7)
N4A N 0.6166(4) 0.95151(9) 0.7601(4)
O17 O -1.6621(4) 1.36474(9) -1.1812(4)
H77 H -1.712(5) 1.3512(8) -1.235(4)
H78 H -1.635(5) 1.3752(9) -1.235(4)
loop_
_geom_bond_atom_site_label_1
_geom_bond_atom_site_label_2
_geom_bond_site_symmetry_1
_geom_bond_site_symmetry_2
C1 H1 1_555 1_555
H2 C1 1_555 1_555
H3 C1 1_555 1_555
C2 H4 1_555 1_555
H5 C2 1_555 1_555
H6 C2 1_555 1_555
C3 H7 1_555 1_555
H8 C3 1_555 1_555
H9 C3 1_555 1_555
C4 H10 1_555 1_555
H11 C4 1_555 1_555
H12 C4 1_555 1_555
C5 H13 1_555 1_555
H14 C5 1_555 1_555
H15 C5 1_555 1_555
C6 H16 1_555 1_555
H17 C6 1_555 1_555
H18 C6 1_555 1_555
C7 H19 1_555 1_555
H20 C7 1_555 1_555
H21 C7 1_555 1_555
C8 H22 1_555 1_555
H23 C8 1_555 1_555
H24 C8 1_555 1_555
C9 H25 1_555 1_555
C10 C9 1_555 1_555
H26 C10 1_555 1_555
C11 C10 1_555 1_555
C12 C11 1_555 1_555
H27 C12 1_555 1_555
C13 C12 1_555 1_555
H28 C13 1_555 1_555
C14 C15 1_555 1_555
C15 C16 1_555 1_555
C16 H29 1_555 1_555
C17 C16 1_555 1_555
C18 C17 1_555 1_555
H30 C18 1_555 1_555
C19 C18 1_555 1_555
H31 C19 1_555 1_555
C20 C19 1_555 1_555
H32 C20 1_555 1_555
C21 C20 1_555 1_555
H33 C21 1_555 1_555
C22 C17 1_555 1_555
C23 C22 1_555 1_555
C24 C15 1_555 1_555
C25 H34 1_555 1_555
H35 C25 1_555 1_555
H36 C25 1_555 1_555
C26 H37 1_555 1_555
C27 C26 1_555 1_555
H38 C27 1_555 1_555
C28 C27 1_555 1_555
C29 C28 1_555 1_555
H39 C29 1_555 1_555
C30 C29 1_555 1_555
H40 C30 1_555 1_555
C31 C32 1_555 1_555
C32 C33 1_555 1_555
C33 H41 1_555 1_555
C34 C33 1_555 1_555
C35 C34 1_555 1_555
H42 C35 1_555 1_555
C36 C35 1_555 1_555
H43 C36 1_555 1_555
C37 C36 1_555 1_555
H44 C37 1_555 1_555
C38 C37 1_555 1_555
H45 C38 1_555 1_555
C39 C34 1_555 1_555
C40 C23 1_555 1_555
C41 C32 1_555 1_555
C42 H46 1_555 1_555
H47 C42 1_555 1_555
H48 C42 1_555 1_555
C43 H49 1_555 1_555
C44 C43 1_555 1_555
H50 C44 1_555 1_555
C45 C44 1_555 1_555
C46 C45 1_555 1_555
H51 C46 1_555 1_555
C47 C46 1_555 1_555
H52 C47 1_555 1_555
C48 C49 1_555 1_555
C49 C50 1_555 1_555
C50 H53 1_555 1_555
C51 C50 1_555 1_555
C52 C51 1_555 1_555
H54 C52 1_555 1_555
C53 C52 1_555 1_555
H55 C53 1_555 1_555
C54 C53 1_555 1_555
H56 C54 1_555 1_555
C55 C54 1_555 1_555
H57 C55 1_555 1_555
C56 C51 1_555 1_555
C57 C56 1_555 1_555
C58 C49 1_555 1_555
C59 H58 1_555 1_555
H59 C59 1_555 1_555
H60 C59 1_555 1_555
C60 H61 1_555 1_555
C61 C60 1_555 1_555
H62 C61 1_555 1_555
C62 C61 1_555 1_555
C63 C62 1_555 1_555
H63 C63 1_555 1_555
C64 C63 1_555 1_555
H64 C64 1_555 1_555
C65 C66 1_555 1_555
C66 C67 1_555 1_555
C67 H65 1_555 1_555
C68 C67 1_555 1_555
C69 C68 1_555 1_555
H66 C69 1_555 1_555
C70 C69 1_555 1_555
H67 C70 1_555 1_555
C71 C70 1_555 1_555
H68 C71 1_555 1_555
C72 C71 1_555 1_555
H69 C72 1_555 1_555
C73 C68 1_555 1_555
C74 C57 1_555 1_555
C75 C66 1_555 1_555
C76 H70 1_555 1_555
H71 C76 1_555 1_555
H72 C76 1_555 1_555
O1 C1 1_555 1_555
O2 C2 1_555 1_555
O3 C3 1_555 1_555
O4 C4 1_555 1_555
O5 C5 1_555 1_555
O6 C6 1_555 1_555
O7 C7 1_555 1_555
O8 C8 1_555 1_555
O9 C14 1_555 1_555
O10 C24 1_555 1_555
O11 C31 1_555 1_555
O12 C41 1_555 1_555
O13 C48 1_555 1_555
O14 C58 1_555 1_555
O15 C65 1_555 1_555
O16 C75 1_555 1_555
P1 O1 1_555 1_555
P2 O3 1_555 1_555
P3 O5 1_555 1_555
P4 O7 1_555 1_555
S1 P1 1_555 1_555
S2 P1 1_555 1_555
S3 P2 1_555 1_555
S4 P2 1_555 1_555
S5 P3 1_555 1_555
S6 P3 1_555 1_555
S7 P4 1_555 1_555
S8 P4 1_555 1_555
Ni1 S1 1_555 1_555
Ni2 S5 1_555 1_555
N1 C9 1_555 1_555
N2 C26 1_555 1_555
N3 C60 1_555 1_555
N4 C43 1_555 1_555
N5 C11 1_555 1_555
N6 C28 1_555 1_555
N7 C45 1_555 1_555
N8 C62 1_555 1_555
H73 N5 1_555 1_555
H74 N6 1_555 1_555
H75 N7 1_555 1_555
H76 N8 1_555 1_555
O17 H77 1_555 1_555
H78 O17 1_555 1_555
Ni2A N4 1_555 1_555
N4A Ni2 1_555 1_555
C13 N1 1_555 1_555
C14 N5 1_555 1_555
C21 C22 1_555 1_555
C23 C24 1_555 1_555
C25 O10 1_555 1_555
C30 N2 1_555 1_555
C31 N6 1_555 1_555
C38 C39 1_555 1_555
C39 C40 1_555 1_555
C40 C41 1_555 1_555
C42 O12 1_555 1_555
C47 N4 1_555 1_555
C48 N7 1_555 1_555
C55 C56 1_555 1_555
C57 C58 1_555 1_555
C59 O14 1_555 1_555
C64 N3 1_555 1_555
C65 N8 1_555 1_555
C72 C73 1_555 1_555
C73 C74 1_555 1_555
C74 C75 1_555 1_555
C76 O16 1_555 1_555
O2 P1 1_555 1_555
O4 P2 1_555 1_555
O6 P3 1_555 1_555
O8 P4 1_555 1_555
S2 Ni1 1_555 1_555
S3 Ni1 1_555 1_555
S4 Ni1 1_555 1_555
S6 Ni2 1_555 1_555
S7 Ni2 1_555 1_555
S8 Ni2 1_555 1_555
Ni1 N1 1_555 1_555
Ni1 N3 1_555 1_555
Ni2 N2 1_555 1_555

#END
