
#######################################################################
#
#                 Cambridge Crystallographic Data Centre
#                                CCDC 
#
#######################################################################
#
# If this CIF has been generated from an entry in the Cambridge 
# Structural Database, then it will include bibliographic, chemical, 
# crystal, experimental, refinement or atomic coordinate data resulting 
# from the CCDC's data processing and validation procedures.
#
#######################################################################

data_LOHVOV
_symmetry_cell_setting           triclinic
_symmetry_space_group_name_H-M   'P 1'
_symmetry_Int_Tables_number      1
_space_group_name_Hall           'P 1'
loop_
_symmetry_equiv_pos_site_id
_symmetry_equiv_pos_as_xyz
1 x,y,z
_cell_length_a                   8.9158(3)
_cell_length_b                   11.1440(4)
_cell_length_c                   14.0968(6)
_cell_angle_alpha                83.256(2)
_cell_angle_beta                 72.321(2)
_cell_angle_gamma                84.057(2)
_cell_volume                     1321.83
loop_
_atom_site_label
_atom_site_type_symbol
_atom_site_fract_x
_atom_site_fract_y
_atom_site_fract_z
Mn1 Mn 0.61583(17) -0.83111(12) 0.70448(11)
I1 I 0.28200(5) -0.01170(3) 0.47587(3)
I2 I 0.93270(5) -1.66266(3) 0.92757(3)
I3 I 0.18251(6) -0.67738(4) 1.41102(4)
I4 I 1.04082(6) -1.01017(5) 0.00312(4)
N1 N 0.7213(7) -0.9816(5) 0.6360(5)
N2 N 0.5942(7) -0.9270(5) 0.8372(5)
N3 N 0.6262(7) -0.7435(5) 0.5671(5)
N4 N 0.4950(7) -0.6874(6) 0.7723(5)
C1 C 0.4555(9) -0.7678(8) 0.9474(6)
C2 C 0.8382(9) -1.1740(7) 0.6067(6)
H1 H 0.8764 -1.2557 0.6172
C3 C 0.5692(9) -0.6263(6) 0.5528(6)
C4 C 0.4864(9) -0.5515(6) 0.6238(6)
C5 C 0.8330(10) -0.9296(7) 0.3530(6)
C6 C 0.6853(10) -0.6916(7) 0.4008(7)
H2 H 0.7271 -0.6973 0.3308
C7 C 0.5204(9) -0.8847(7) 0.9301(6)
C8 C 0.3451(10) -0.1910(7) 0.5233(7)
C9 C 0.9912(10) -0.9527(8) 0.3082(7)
H3 H 1.0627 -0.9525 0.3462
C10 C 0.8486(9) -1.1102(7) 0.5180(6)
H4 H 0.8954 -1.1394 0.4542
C11 C 0.7759(9) -0.9889(7) 0.5367(6)
C12 C 0.6076(10) -0.5921(7) 0.4475(6)
H5 H 0.5837 -0.5154 0.4161
C13 C 0.4933(10) -0.7367(8) 1.1126(7)
H6 H 0.6041 -0.7490 1.0834
C14 C 1.0482(10) -0.9756(9) 0.2112(7)
H7 H 1.1591 -0.9884 0.1824
C15 C 0.7878(10) -0.9588(9) 0.1969(7)
H8 H 0.7179 -0.9596 0.1578
C16 C 0.4396(11) -0.4218(7) 0.5874(6)
C17 C 0.4541(9) -0.5796(6) 0.7285(6)
C18 C 0.2756(11) -0.7005(7) 1.2575(6)
C19 C 0.2926(9) -0.3962(7) 0.5672(8)
H9 H 0.2242 -0.4595 0.5774
C20 C 0.2476(10) -0.2834(7) 0.5335(8)
H10 H 0.1511 -0.2682 0.5172
C21 C 0.4361(10) -0.6762(7) 0.8769(6)
C22 C 0.7767(10) -1.2487(8) 0.8153(6)
C23 C 0.6909(9) -0.7855(7) 0.4789(7)
C24 C 0.7584(8) -1.0949(6) 0.6822(6)
C25 C 0.8661(9) -1.4858(6) 0.8781(5)
C26 C 0.3609(10) -0.5589(7) 0.8925(6)
H11 H 0.3129 -0.5273 0.9553
C27 C 0.4867(11) -0.2133(7) 0.5434(9)
H12 H 0.5525 -0.1488 0.5357
C28 C 0.9528(11) -0.9808(8) 0.1542(6)
C29 C 0.9409(10) -1.3875(8) 0.8904(8)
H13 H 1.0239 -1.4009 0.9205
C30 C 0.5346(11) -0.3289(7) 0.5747(9)
H14 H 0.6338 -0.3439 0.5874
C31 C 0.5297(10) -0.9803(8) 1.0098(6)
H15 H 0.4937 -0.9742 1.0799
C32 C 0.3920(9) -0.7393(7) 1.0555(6)
C33 C 0.5999(10) -1.0781(8) 0.9623(7)
H16 H 0.6178 -1.1559 0.9942
C34 C 0.6437(9) -1.0478(7) 0.8569(6)
C35 C 0.9807(7) -0.7470(6) 0.6746(5)
C36 C 0.2293(9) -0.7151(8) 1.1012(6)
H17 H 0.1597 -0.7124 1.0615
C37 C 0.7550(12) -1.4673(9) 0.8326(9)
H18 H 0.7060 -1.5342 0.8219
C38 C 0.7693(9) -0.9010(6) 0.4575(6)
C39 C 0.1663(11) -0.6954(8) 1.2004(7)
H19 H 0.0561 -0.6792 1.2295
C40 C 0.7323(10) -0.9368(8) 0.2928(6)
H20 H 0.6214 -0.9256 0.3221
C41 C 0.7088(10) -1.3481(8) 0.7997(8)
H21 H 0.6298 -1.3361 0.7664
C42 C 0.4316(10) -0.7159(8) 1.2133(7)
H22 H 0.5020 -0.7127 1.2517
C43 C 0.7203(9) -1.1300(7) 0.7843(6)
C44 C 0.3701(10) -0.4998(7) 0.8009(6)
H23 H 0.3280 -0.4198 0.7880
O1 O 0.8388(6) -0.7747(5) 0.7024(4)
O2 O 1.0280(6) -0.6506(5) 0.6290(5)
C45 C 0.8956(9) -1.2702(7) 0.8592(7)
H24 H 0.9475 -1.2042 0.8685
C46 C 1.0968(10) -0.8343(8) 0.7051(7)
C47 C 1.2527(6) -0.8113(5) 0.6865(4)
H25 H 1.2840 -0.7339 0.6553
N5 N 1.3630(7) -0.8902(5) 0.7092(5)
C48 C 1.3125(7) -1.0017(6) 0.7504(5)
H26 H 1.3878 -1.0588 0.7689
N6 N 1.1706(8) -1.0376(6) 0.7670(5)
C49 C 1.0613(7) -0.9560(6) 0.7447(5)
H27 H 0.9577 -0.9797 0.7556
Mn1_2 Mn 1.61583(17) -0.83111(12) 0.70448(11)
N5_2 N 0.3630(7) -0.8902(5) 0.7092(5)
loop_
_geom_bond_atom_site_label_1
_geom_bond_atom_site_label_2
_geom_bond_site_symmetry_1
_geom_bond_site_symmetry_2
Mn1 N1 1_555 1_555
I1 C8 1_555 1_555
I2 C25 1_555 1_555
I3 C18 1_555 1_555
I4 C28 1_555 1_555
N1 C11 1_555 1_555
N2 Mn1 1_555 1_555
N3 Mn1 1_555 1_555
N4 Mn1 1_555 1_555
C1 C7 1_555 1_555
C2 H1 1_555 1_555
C3 N3 1_555 1_555
C4 C3 1_555 1_555
C5 C9 1_555 1_555
C6 H2 1_555 1_555
C7 N2 1_555 1_555
C8 C20 1_555 1_555
C9 H3 1_555 1_555
C10 C2 1_555 1_555
H4 C10 1_555 1_555
C11 C10 1_555 1_555
C12 C3 1_555 1_555
H5 C12 1_555 1_555
C13 H6 1_555 1_555
C14 C9 1_555 1_555
H7 C14 1_555 1_555
C15 H8 1_555 1_555
C16 C4 1_555 1_555
C17 N4 1_555 1_555
C18 C39 1_555 1_555
C19 C16 1_555 1_555
H9 C19 1_555 1_555
C20 C19 1_555 1_555
H10 C20 1_555 1_555
C21 N4 1_555 1_555
C22 C41 1_555 1_555
C23 N3 1_555 1_555
C24 N1 1_555 1_555
C25 C29 1_555 1_555
C26 C21 1_555 1_555
H11 C26 1_555 1_555
C27 C8 1_555 1_555
H12 C27 1_555 1_555
C28 C14 1_555 1_555
C29 H13 1_555 1_555
C30 C16 1_555 1_555
H14 C30 1_555 1_555
C31 C7 1_555 1_555
H15 C31 1_555 1_555
C32 C1 1_555 1_555
C33 C31 1_555 1_555
H16 C33 1_555 1_555
C34 N2 1_555 1_555
C35 O1 1_555 1_555
C36 C32 1_555 1_555
H17 C36 1_555 1_555
C37 C25 1_555 1_555
H18 C37 1_555 1_555
C38 C5 1_555 1_555
C39 C36 1_555 1_555
H19 C39 1_555 1_555
C40 C5 1_555 1_555
H20 C40 1_555 1_555
C41 C37 1_555 1_555
H21 C41 1_555 1_555
C42 C13 1_555 1_555
H22 C42 1_555 1_555
C43 C22 1_555 1_555
C44 C17 1_555 1_555
H23 C44 1_555 1_555
O1 Mn1 1_555 1_555
O2 C35 1_555 1_555
C45 C22 1_555 1_555
H24 C45 1_555 1_555
C46 C35 1_555 1_555
C47 C46 1_555 1_555
H25 C47 1_555 1_555
N5 C47 1_555 1_555
C48 N5 1_555 1_555
H26 C48 1_555 1_555
N6 C48 1_555 1_555
C49 C46 1_555 1_555
H27 C49 1_555 1_555
Mn1_2 N5 1_555 1_555
N5_2 Mn1 1_555 1_555
C1 C21 1_555 1_555
C2 C24 1_555 1_555
C4 C17 1_555 1_555
C6 C12 1_555 1_555
C6 C23 1_555 1_555
C11 C38 1_555 1_555
C13 C32 1_555 1_555
C15 C28 1_555 1_555
C15 C40 1_555 1_555
C18 C42 1_555 1_555
C23 C38 1_555 1_555
C24 C43 1_555 1_555
C26 C44 1_555 1_555
C27 C30 1_555 1_555
C29 C45 1_555 1_555
C33 C34 1_555 1_555
C34 C43 1_555 1_555
N6 C49 1_555 1_555

#END
