
#######################################################################
#
#                 Cambridge Crystallographic Data Centre
#                                CCDC 
#
#######################################################################
#
# If this CIF has been generated from an entry in the Cambridge 
# Structural Database, then it will include bibliographic, chemical, 
# crystal, experimental, refinement or atomic coordinate data resulting 
# from the CCDC's data processing and validation procedures.
#
#######################################################################

data_LOHVEL
_symmetry_cell_setting           monoclinic
_symmetry_space_group_name_H-M   'P 21/c'
_symmetry_Int_Tables_number      14
_space_group_name_Hall           '-P 2ybc'
loop_
_symmetry_equiv_pos_site_id
_symmetry_equiv_pos_as_xyz
1 x,y,z
2 -x,1/2+y,1/2-z
3 -x,-y,-z
4 x,1/2-y,1/2+z
_cell_length_a                   7.9571(3)
_cell_length_b                   23.6001(8)
_cell_length_c                   13.0293(5)
_cell_angle_alpha                90
_cell_angle_beta                 92.124(4)
_cell_angle_gamma                90
_cell_volume                     2445.07
loop_
_atom_site_label
_atom_site_type_symbol
_atom_site_fract_x
_atom_site_fract_y
_atom_site_fract_z
Pd1 Pd 0.07652(5) 0.406827(17) 0.62989(3)
Pd2 Pd 0.32999(5) 0.477142(17) 0.54359(3)
O1 O 0.1793(5) 0.43953(18) 0.7710(3)
O2 O 0.3732(5) 0.49460(18) 0.7039(3)
O3 O 0.2729(5) 0.34937(15) 0.6383(3)
O4 O 0.4654(5) 0.40486(16) 0.5699(3)
C1 C 0.3014(8) 0.4729(3) 0.7774(5)
C2 C 0.3596(12) 0.4898(4) 0.8812(6)
H1 H 0.2949 0.4703 0.931
H2 H 0.3456 0.5299 0.8892
H3 H 0.4762 0.4802 0.8914
C3 C 0.4149(8) 0.3598(2) 0.6073(5)
C4 C 0.5391(9) 0.3114(3) 0.6092(7)
H4 H 0.6441 0.3242 0.5836
H5 H 0.4957 0.281 0.5668
H6 H 0.5564 0.2981 0.6784
O5 O -0.4529(8) 0.6799(3) 0.7620(6)
O6 O -0.3063(10) 0.6566(3) 0.8933(6)
N1 N -0.1875(5) 0.45547(17) 0.5052(3)
N2 N -0.1197(5) 0.45948(17) 0.5982(3)
N3 N 0.0423(7) 0.2671(2) 0.3051(4)
N4 N -0.3583(10) 0.6479(3) 0.8072(7)
C5 C -0.1361(6) 0.4094(2) 0.4540(4)
C6 C -0.0117(6) 0.3746(2) 0.5013(4)
C7 C 0.0444(7) 0.3275(2) 0.4540(4)
H7 H 0.1253 0.3048 0.487
C8 C -0.0183(7) 0.3127(2) 0.3555(5)
C9 C -0.1450(8) 0.3470(2) 0.3090(5)
H8 H -0.1902 0.3371 0.2446
C10 C -0.2020(7) 0.3938(2) 0.3559(5)
H9 H -0.2849 0.4159 0.3236
C11 C -0.1796(7) 0.5063(2) 0.6526(4)
C12 C -0.2874(7) 0.5430(2) 0.6002(4)
C13 C -0.3477(8) 0.5897(2) 0.6518(5)
H10 H -0.4214 0.6149 0.6189
C14 C -0.2966(9) 0.5980(3) 0.7525(6)
C15 C -0.1933(9) 0.5612(3) 0.8062(5)
H11 H -0.1645 0.5675 0.8751
C16 C -0.1326(8) 0.5142(3) 0.7548(5)
H12 H -0.0615 0.4885 0.7887
C17 C -0.0131(11) 0.2535(3) 0.1998(6)
H13 H 0.0435 0.22 0.1777
H14 H 0.013 0.2845 0.1554
H15 H -0.1324 0.2471 0.197
C18 C 0.1726(10) 0.2313(3) 0.3532(6)
H16 H 0.2001 0.2013 0.307
H17 H 0.1322 0.2155 0.4155
H18 H 0.2711 0.2537 0.3686
Pd2B Pd -0.32999(5) 0.522858(17) 0.45641(3)
Pd2B_2 Pd 0.67001(5) 0.522858(17) 0.45641(3)
N1B N 0.1875(5) 0.54453(17) 0.4948(3)
C12B C 0.2874(7) 0.4570(2) 0.3998(4)
O7 O 0.842(2) 0.3952(7) -0.0650(17)
C19 C 0.740(2) 0.3746(8) -0.1505(13)
H19 H 0.8095 0.3587 -0.2031
H20 H 0.6716 0.4047 -0.1804
C20 C 0.633(2) 0.3298(8) -0.1042(14)
H21 H 0.5212 0.3441 -0.0923
H22 H 0.6241 0.2968 -0.1483
C21 C 0.716(2) 0.3174(8) -0.0151(15)
H23 H 0.7784 0.2825 -0.0227
H24 H 0.6354 0.3117 0.0381
C22 C 0.824(2) 0.3601(7) 0.0136(11)
H25 H 0.7805 0.3807 0.0713
H26 H 0.9326 0.3443 0.0348
loop_
_geom_bond_atom_site_label_1
_geom_bond_atom_site_label_2
_geom_bond_site_symmetry_1
_geom_bond_site_symmetry_2
Pd1 Pd2 1_555 1_555
Pd2 O2 1_555 1_555
O1 Pd1 1_555 1_555
O2 C1 1_555 1_555
O3 Pd1 1_555 1_555
O4 Pd2 1_555 1_555
C1 O1 1_555 1_555
C2 C1 1_555 1_555
H1 C2 1_555 1_555
H2 C2 1_555 1_555
H3 C2 1_555 1_555
C3 O3 1_555 1_555
C4 C3 1_555 1_555
H4 C4 1_555 1_555
H5 C4 1_555 1_555
H6 C4 1_555 1_555
O5 N4 1_555 1_555
O6 N4 1_555 1_555
N1 N2 1_555 1_555
N2 Pd1 1_555 1_555
N3 C8 1_555 1_555
N4 C14 1_555 1_555
C5 N1 1_555 1_555
C6 Pd1 1_555 1_555
C7 C6 1_555 1_555
H7 C7 1_555 1_555
C8 C7 1_555 1_555
C9 C8 1_555 1_555
H8 C9 1_555 1_555
C10 C5 1_555 1_555
H9 C10 1_555 1_555
C11 N2 1_555 1_555
C12 C11 1_555 1_555
C13 C12 1_555 1_555
H10 C13 1_555 1_555
C14 C13 1_555 1_555
C15 C14 1_555 1_555
H11 C15 1_555 1_555
C16 C11 1_555 1_555
H12 C16 1_555 1_555
C17 N3 1_555 1_555
H13 C17 1_555 1_555
H14 C17 1_555 1_555
H15 C17 1_555 1_555
C18 N3 1_555 1_555
H16 C18 1_555 1_555
H17 C18 1_555 1_555
H18 C18 1_555 1_555
O7 C19 1_555 1_555
C19 H19 1_555 1_555
H20 C19 1_555 1_555
C20 C19 1_555 1_555
H21 C20 1_555 1_555
H22 C20 1_555 1_555
C21 C20 1_555 1_555
H23 C21 1_555 1_555
H24 C21 1_555 1_555
C22 O7 1_555 1_555
H25 C22 1_555 1_555
H26 C22 1_555 1_555
Pd2B N1 1_555 1_555
Pd2B_2 Pd2 1_555 1_555
N1B Pd2 1_555 1_555
C12B Pd2 1_555 1_555
O4 C3 1_555 1_555
C5 C6 1_555 1_555
C9 C10 1_555 1_555
C12 Pd2B 1_555 1_555
C15 C16 1_555 1_555
C21 C22 1_555 1_555

#END
