
#######################################################################
#
#                 Cambridge Crystallographic Data Centre
#                                CCDC 
#
#######################################################################
#
# If this CIF has been generated from an entry in the Cambridge 
# Structural Database, then it will include bibliographic, chemical, 
# crystal, experimental, refinement or atomic coordinate data resulting 
# from the CCDC's data processing and validation procedures.
#
#######################################################################

data_LOHXAJ
_symmetry_cell_setting           orthorhombic
_symmetry_space_group_name_H-M   'I b c a'
_symmetry_Int_Tables_number      73
_space_group_name_Hall           '-I 2b 2c'
loop_
_symmetry_equiv_pos_site_id
_symmetry_equiv_pos_as_xyz
1 x,y,z
2 1/2-x,-y,1/2+z
3 -x,1/2+y,1/2-z
4 1/2+x,1/2-y,-z
5 1/2+x,1/2+y,1/2+z
6 -x,1/2-y,z
7 1/2-x,y,-z
8 x,-y,1/2-z
9 -x,-y,-z
10 1/2+x,y,1/2-z
11 x,1/2-y,1/2+z
12 1/2-x,1/2+y,z
13 1/2-x,1/2-y,1/2-z
14 x,1/2+y,-z
15 1/2+x,-y,z
16 -x,y,1/2+z
_cell_length_a                   12.0233(13)
_cell_length_b                   21.236(2)
_cell_length_c                   25.690(3)
_cell_angle_alpha                90
_cell_angle_beta                 90
_cell_angle_gamma                90
_cell_volume                     6559.35
loop_
_atom_site_label
_atom_site_type_symbol
_atom_site_fract_x
_atom_site_fract_y
_atom_site_fract_z
Ni1 Ni 0.2500 0.2500 0.2500
O1 O 0.12591(16) 0.21899(9) 0.49190(7)
O2 O 0.14601(17) 0.32972(11) 0.24683(8)
H1 H 0.1007 0.3254 0.2233
O3 O 0.02980(15) 0.16611(9) 0.43130(7)
O4 O 0.11321(15) 0.19682(9) 0.26879(7)
C1 C 0.1748(2) 0.22595(13) 0.35152(10)
C2 C 0.0986(2) 0.19326(13) 0.31639(10)
C3 C 0.4010(2) 0.33439(13) 0.36948(10)
N1 N 0.25715(17) 0.26249(10) 0.33063(8)
C4 C 0.1071(2) 0.20437(13) 0.44571(10)
O5 O 0.01474(14) 0.16195(10) 0.33538(7)
H2 H 0.0181 0.1621 0.3673
N2 N 0.25965(17) 0.27306(11) 0.41829(8)
C5 C 0.1772(2) 0.23254(13) 0.40510(10)
C6 C 0.3064(2) 0.29012(12) 0.37241(10)
C7 C 0.5784(2) 0.42225(13) 0.36876(12)
C8 C 0.4083(2) 0.37954(13) 0.33033(10)
H3 H 0.3548 0.3809 0.3042
C9 C 0.5710(2) 0.37582(14) 0.40653(12)
H4 H 0.6254 0.3737 0.4322
C10 C 0.6720(3) 0.47164(14) 0.36748(13)
C11 C 0.6228(3) 0.53748(15) 0.36600(17)
H5 H 0.5802 0.5426 0.3347
H6 H 0.6818 0.5680 0.3667
H7 H 0.5755 0.5435 0.3957
C12 C 0.4954(2) 0.42263(14) 0.33027(11)
H8 H 0.4989 0.4526 0.3039
C13 C 0.4844(2) 0.33223(14) 0.40710(11)
H9 H 0.4823 0.3014 0.4328
C14 C 0.7484(3) 0.4674(2) 0.41579(19)
H10 H 0.8067 0.4981 0.4130
H11 H 0.7804 0.4260 0.4178
H12 H 0.7056 0.4754 0.4466
C15 C 0.7445(3) 0.46097(17) 0.31901(18)
H13 H 0.6988 0.4628 0.2884
H14 H 0.7793 0.4204 0.3211
H15 H 0.8006 0.4930 0.3172
H16 H 0.103(4) 0.337(2) 0.2686(18)
Ni2 Ni 0.2500 0.28650(2) 0.5000
O6 O 0.35748(18) 0.36139(11) 0.50953(9)
H17 H 0.4144 0.3492 0.5239
H18 H 0.370(3) 0.3757(18) 0.4876(15)
O1F O 0.37409(16) 0.21899(9) 0.50810(7)
O3F O 0.47020(15) 0.16611(9) 0.56870(7)
O4F O 0.38679(15) 0.19682(9) 0.73121(7)
C1F C 0.3252(2) 0.22595(13) 0.64848(10)
C2F C 0.4014(2) 0.19326(13) 0.68361(10)
C3F C 0.0990(2) 0.33439(13) 0.63052(10)
N1F N 0.24285(17) 0.26249(10) 0.66937(8)
C4F C 0.3929(2) 0.20437(13) 0.55429(10)
O5F O 0.48526(14) 0.16195(10) 0.66462(7)
H2F H 0.4819 0.1621 0.6327
N2F N 0.24035(17) 0.27306(11) 0.58171(8)
C5F C 0.3228(2) 0.23254(13) 0.59490(10)
C6F C 0.1936(2) 0.29012(12) 0.62759(10)
C7F C -0.0784(2) 0.42225(13) 0.63124(12)
C8F C 0.0917(2) 0.37954(13) 0.66967(10)
H3F H 0.1452 0.3809 0.6958
C9F C -0.0710(2) 0.37582(14) 0.59347(12)
H4F H -0.1254 0.3737 0.5678
C10F C -0.1720(3) 0.47164(14) 0.63252(13)
C11F C -0.1228(3) 0.53748(15) 0.63400(17)
H5F H -0.0802 0.5426 0.6653
H6F H -0.1818 0.5680 0.6333
H7F H -0.0755 0.5435 0.6043
C12F C 0.0046(2) 0.42263(14) 0.66973(11)
H8F H 0.0011 0.4526 0.6961
C13F C 0.0156(2) 0.33223(14) 0.59290(11)
H9F H 0.0177 0.3014 0.5672
C14F C -0.2484(3) 0.4674(2) 0.58421(19)
H10F H -0.3067 0.4981 0.5870
H11F H -0.2804 0.4260 0.5822
H12F H -0.2056 0.4754 0.5534
C15F C -0.2445(3) 0.46097(17) 0.68099(18)
H13F H -0.1988 0.4628 0.7116
H14F H -0.2793 0.4204 0.6789
H15F H -0.3006 0.4930 0.6828
O6F O 0.14252(18) 0.36139(11) 0.49047(9)
H17F H 0.0856 0.3492 0.4761
H18F H 0.130(3) 0.3757(18) 0.5124(15)
O2L O 0.35399(17) 0.17028(11) 0.25317(8)
H1L H 0.3993 0.1746 0.2767
H16L H 0.397(4) 0.163(2) 0.2314(18)
Ni1F Ni 0.2500 0.2500 0.7500
O4L O 0.38679(15) 0.30318(9) 0.23121(7)
N1L N 0.24285(17) 0.23751(10) 0.16937(8)
loop_
_geom_bond_atom_site_label_1
_geom_bond_atom_site_label_2
_geom_bond_site_symmetry_1
_geom_bond_site_symmetry_2
Ni1 O2 1_555 1_555
O1 C4 1_555 1_555
O2 H1 1_555 1_555
O3 C4 1_555 1_555
O4 Ni1 1_555 1_555
C1 C2 1_555 1_555
C2 O4 1_555 1_555
C3 C6 1_555 1_555
N1 Ni1 1_555 1_555
C4 C5 1_555 1_555
O5 C2 1_555 1_555
H2 O5 1_555 1_555
N2 C5 1_555 1_555
C5 C1 1_555 1_555
C6 N1 1_555 1_555
C7 C9 1_555 1_555
C8 C3 1_555 1_555
H3 C8 1_555 1_555
C9 H4 1_555 1_555
C10 C7 1_555 1_555
C11 C10 1_555 1_555
H5 C11 1_555 1_555
H6 C11 1_555 1_555
H7 C11 1_555 1_555
C12 C7 1_555 1_555
H8 C12 1_555 1_555
C13 C3 1_555 1_555
H9 C13 1_555 1_555
C14 C10 1_555 1_555
H10 C14 1_555 1_555
H11 C14 1_555 1_555
H12 C14 1_555 1_555
C15 C10 1_555 1_555
H13 C15 1_555 1_555
H14 C15 1_555 1_555
H15 C15 1_555 1_555
H16 O2 1_555 1_555
Ni2 O1 1_555 1_555
O6 Ni2 1_555 1_555
H17 O6 1_555 1_555
H18 O6 1_555 1_555
O1F Ni2 1_555 1_555
O3F C4F 1_555 1_555
O4F C2F 1_555 1_555
C1F C2F 1_555 1_555
C2F O5F 1_555 1_555
C3F C6F 1_555 1_555
N1F C1F 1_555 1_555
C4F O1F 1_555 1_555
O5F H2F 1_555 1_555
N2F Ni2 1_555 1_555
C5F C1F 1_555 1_555
C6F N1F 1_555 1_555
C7F C9F 1_555 1_555
C8F C3F 1_555 1_555
H3F C8F 1_555 1_555
C9F H4F 1_555 1_555
C10F C7F 1_555 1_555
C11F C10F 1_555 1_555
H5F C11F 1_555 1_555
H6F C11F 1_555 1_555
H7F C11F 1_555 1_555
C12F C7F 1_555 1_555
H8F C12F 1_555 1_555
C13F C3F 1_555 1_555
H9F C13F 1_555 1_555
C14F C10F 1_555 1_555
H10F C14F 1_555 1_555
H11F C14F 1_555 1_555
H12F C14F 1_555 1_555
C15F C10F 1_555 1_555
H13F C15F 1_555 1_555
H14F C15F 1_555 1_555
H15F C15F 1_555 1_555
O6F Ni2 1_555 1_555
H17F O6F 1_555 1_555
H18F O6F 1_555 1_555
O2L Ni1 1_555 1_555
H1L O2L 1_555 1_555
H16L O2L 1_555 1_555
Ni1F O4F 1_555 1_555
O4L Ni1 1_555 1_555
N1L Ni1 1_555 1_555
C1 N1 1_555 1_555
N2 C6 1_555 1_555
N2 Ni2 1_555 1_555
C8 C12 1_555 1_555
C9 C13 1_555 1_555
N1F Ni1F 1_555 1_555
C4F C5F 1_555 1_555
N2F C5F 1_555 1_555
N2F C6F 1_555 1_555
C8F C12F 1_555 1_555
C9F C13F 1_555 1_555

#END
