
#######################################################################
#
#                 Cambridge Crystallographic Data Centre
#                                CCDC 
#
#######################################################################
#
# If this CIF has been generated from an entry in the Cambridge 
# Structural Database, then it will include bibliographic, chemical, 
# crystal, experimental, refinement or atomic coordinate data resulting 
# from the CCDC's data processing and validation procedures.
#
#######################################################################

data_LOHYUE
_symmetry_cell_setting           monoclinic
_symmetry_space_group_name_H-M   'P 21/c'
_symmetry_Int_Tables_number      14
_space_group_name_Hall           '-P 2ybc'
loop_
_symmetry_equiv_pos_site_id
_symmetry_equiv_pos_as_xyz
1 x,y,z
2 -x,1/2+y,1/2-z
3 -x,-y,-z
4 x,1/2-y,1/2+z
_cell_length_a                   10.1877(9)
_cell_length_b                   12.7877(11)
_cell_length_c                   17.6909(18)
_cell_angle_alpha                90
_cell_angle_beta                 99.720(4)
_cell_angle_gamma                90
_cell_volume                     2271.64
loop_
_atom_site_label
_atom_site_type_symbol
_atom_site_fract_x
_atom_site_fract_y
_atom_site_fract_z
Zn1 Zn 0.00423(3) 0.46314(2) 0.616688(14)
O1 O 0.0600(2) 0.35213(13) 0.54408(10)
O2 O 0.10069(19) 0.40498(13) 0.42927(9)
O3 O -0.0101(2) -0.01312(16) 0.23677(10)
O4 O 0.0808(2) 0.13775(14) 0.21834(9)
N1 N 0.4887(2) 1.0924(2) 0.61998(14)
N2 N 0.1812(2) 0.55288(16) 0.62154(13)
N3 N 0.8178(2) 1.38574(16) 0.61466(12)
N4 N 0.4797(2) 0.87085(19) 0.64352(14)
C1 C 0.0692(2) 0.22304(16) 0.44946(12)
C2 C 0.0786(2) 0.33632(17) 0.47638(12)
C3 C 0.0156(3) 0.04131(15) 0.47310(13)
C4 C 0.6001(3) 1.3714(2) 0.6483(2)
H1 H 0.5304 1.4034 0.6673
C5 C 0.5659(4) 1.0426(2) 0.6869(2)
H2 H 0.5148 1.0418 0.7284
H3 H 0.6468 1.0821 0.7036
C6 C 0.3656(3) 1.0333(2) 0.5974(2)
H4 H 0.3122 1.0660 0.5531
H5 H 0.3146 1.0335 0.6389
C7 C 0.3977(3) 0.9226(2) 0.57824(17)
H6 H 0.3156 0.8838 0.5636
H7 H 0.4448 0.9228 0.5349
C8 C 0.0439(2) 0.09899(18) 0.34524(12)
C9 C 0.0726(2) 0.20032(18) 0.37271(12)
H8 H 0.0938 0.2523 0.3400
C10 C 0.6008(3) 0.9321(3) 0.6680(2)
H9 H 0.6539 0.9331 0.6273
H10 H 0.6533 0.8999 0.7127
C11 C 0.0390(3) 0.07340(19) 0.26205(13)
C12 C 0.0144(3) 0.02121(19) 0.39555(14)
H11 H -0.0066 -0.0457 0.3767
C13 C 0.0449(2) 0.14433(17) 0.49946(12)
H12 H 0.0480 0.1597 0.5511
C14 C 0.4687(4) 1.2034(3) 0.6323(2)
H13 H 0.4450 1.2134 0.6827
H14 H 0.3951 1.2283 0.5945
C15 C 0.2778(3) 0.5331(2) 0.58089(18)
H15 H 0.2735 0.4717 0.5524
C16 C 0.1906(3) 0.6416(2) 0.66280(15)
H16 H 0.1252 0.6558 0.6922
C17 C 0.2932(3) 0.7127(2) 0.66359(16)
H17 H 0.2948 0.7741 0.6919
C18 C 0.8070(3) 1.2859(2) 0.5942(2)
H18 H 0.8778 1.2555 0.5753
C19 C 0.3939(3) 0.6915(2) 0.62160(16)
C20 C 0.5108(3) 0.7649(3) 0.6241(2)
H19 H 0.5844 0.7394 0.6617
H20 H 0.5392 0.7648 0.5745
C21 C 0.5908(3) 1.2669(2) 0.62652(17)
C22 C 0.6972(3) 1.2239(2) 0.59915(19)
H21 H 0.6956 1.1541 0.5842
C23 C 0.3839(3) 0.6002(2) 0.57945(17)
H22 H 0.4485 0.5837 0.5500
C24 C 0.7135(3) 1.4274(2) 0.64156(19)
H23 H 0.7179 1.4973 0.6563
O1B O -0.0600(2) -0.35213(13) 0.45592(10)
O2B O -0.10069(19) -0.40498(13) 0.57073(9)
O3B O 0.0101(2) 0.01312(16) 0.76323(10)
O4B O -0.0808(2) -0.13775(14) 0.78166(9)
C1B C -0.0692(2) -0.22304(16) 0.55054(12)
C2B C -0.0786(2) -0.33632(17) 0.52362(12)
C3B C -0.0156(3) -0.04131(15) 0.52690(13)
C8B C -0.0439(2) -0.09899(18) 0.65476(12)
C9B C -0.0726(2) -0.20032(18) 0.62729(12)
H8B H -0.0938 -0.2523 0.6600
C11B C -0.0390(3) -0.07340(19) 0.73795(13)
C12B C -0.0144(3) -0.02121(19) 0.60445(14)
H11B H 0.0066 0.0457 0.6233
C13B C -0.0449(2) -0.14433(17) 0.50054(12)
H12B H -0.0480 -0.1597 0.4489
Zn1B Zn -0.00423(3) -0.46314(2) 0.383312(14)
N1B N -0.4887(2) -1.0924(2) 0.38002(14)
N2B N -0.1812(2) -0.55288(16) 0.37846(13)
N3B N -0.8178(2) -1.38574(16) 0.38534(12)
N4B N -0.4797(2) -0.87085(19) 0.35648(14)
C4B C -0.6001(3) -1.3714(2) 0.3517(2)
H1B H -0.5304 -1.4034 0.3327
C5B C -0.5659(4) -1.0426(2) 0.3131(2)
H2B H -0.5148 -1.0418 0.2716
H3B H -0.6468 -1.0821 0.2964
C6B C -0.3656(3) -1.0333(2) 0.4026(2)
H4B H -0.3122 -1.0660 0.4469
H5B H -0.3146 -1.0335 0.3611
C7B C -0.3977(3) -0.9226(2) 0.42176(17)
H6B H -0.3156 -0.8838 0.4364
H7B H -0.4448 -0.9228 0.4651
C10B C -0.6008(3) -0.9321(3) 0.3320(2)
H9B H -0.6539 -0.9331 0.3727
H10B H -0.6533 -0.8999 0.2873
C14B C -0.4687(4) -1.2034(3) 0.3677(2)
H13B H -0.4450 -1.2134 0.3173
H14B H -0.3951 -1.2283 0.4055
C15B C -0.2778(3) -0.5331(2) 0.41911(18)
H15B H -0.2735 -0.4717 0.4476
C16B C -0.1906(3) -0.6416(2) 0.33720(15)
H16B H -0.1252 -0.6558 0.3078
C17B C -0.2932(3) -0.7127(2) 0.33641(16)
H17B H -0.2948 -0.7741 0.3081
C18B C -0.8070(3) -1.2859(2) 0.4058(2)
H18B H -0.8778 -1.2555 0.4247
C19B C -0.3939(3) -0.6915(2) 0.37840(16)
C20B C -0.5108(3) -0.7649(3) 0.3759(2)
H19B H -0.5844 -0.7394 0.3383
H20B H -0.5392 -0.7648 0.4255
C21B C -0.5908(3) -1.2669(2) 0.37348(17)
C22B C -0.6972(3) -1.2239(2) 0.40085(19)
H21B H -0.6956 -1.1541 0.4158
C23B C -0.3839(3) -0.6002(2) 0.42055(17)
H22B H -0.4485 -0.5837 0.4500
C24B C -0.7135(3) -1.4274(2) 0.35844(19)
H23B H -0.7179 -1.4973 0.3437
Zn1_2 Zn 0.00423(3) -0.53686(2) 0.616688(14)
Zn1_3 Zn 1.00423(3) 1.46314(2) 0.616688(14)
Zn1A Zn -0.00423(3) -0.03686(2) 0.883312(14)
Zn1B_2 Zn -1.00423(3) -1.46314(2) 0.383312(14)
Zn1B_3 Zn -0.00423(3) 0.53686(2) 0.383312(14)
Zn1C Zn 0.00423(3) 0.03686(2) 0.116688(14)
O2_2 O 0.10069(19) -0.59502(13) 0.42927(9)
O2B_2 O -0.10069(19) 0.59502(13) 0.57073(9)
O3A O 0.0101(2) -0.51312(16) 0.26323(10)
O3C O -0.0101(2) 0.51312(16) 0.73677(10)
O4A O -0.0808(2) -0.36225(14) 0.28166(9)
O4C O 0.0808(2) 0.36225(14) 0.71834(9)
N3_2 N -0.1822(2) 0.38574(16) 0.61466(12)
N3B_2 N 0.1822(2) -0.38574(16) 0.38534(12)
O5 O 0.2034(3) 0.3388(2) 0.2262(2)
H24 H 0.136(5) 0.390(4) 0.244(3)
H25 H 0.170(4) 0.263(4) 0.228(2)
loop_
_geom_bond_atom_site_label_1
_geom_bond_atom_site_label_2
_geom_bond_site_symmetry_1
_geom_bond_site_symmetry_2
Zn1 O1 1_555 1_555
O1 C2 1_555 1_555
O2 C2 1_555 1_555
O3 C11 1_555 1_555
O4 C11 1_555 1_555
N1 C5 1_555 1_555
N2 Zn1 1_555 1_555
N3 C18 1_555 1_555
N4 C7 1_555 1_555
C1 C2 1_555 1_555
C3 C12 1_555 1_555
C4 H1 1_555 1_555
C5 H2 1_555 1_555
H3 C5 1_555 1_555
C6 N1 1_555 1_555
H4 C6 1_555 1_555
H5 C6 1_555 1_555
C7 C6 1_555 1_555
H6 C7 1_555 1_555
H7 C7 1_555 1_555
C8 C9 1_555 1_555
C9 C1 1_555 1_555
H8 C9 1_555 1_555
C10 N4 1_555 1_555
H9 C10 1_555 1_555
H10 C10 1_555 1_555
C11 C8 1_555 1_555
C12 C8 1_555 1_555
H11 C12 1_555 1_555
C13 C1 1_555 1_555
H12 C13 1_555 1_555
C14 N1 1_555 1_555
H13 C14 1_555 1_555
H14 C14 1_555 1_555
C15 N2 1_555 1_555
H15 C15 1_555 1_555
C16 N2 1_555 1_555
H16 C16 1_555 1_555
C17 C16 1_555 1_555
H17 C17 1_555 1_555
C18 H18 1_555 1_555
C19 C17 1_555 1_555
C20 N4 1_555 1_555
H19 C20 1_555 1_555
H20 C20 1_555 1_555
C21 C4 1_555 1_555
C22 C18 1_555 1_555
H21 C22 1_555 1_555
C23 C15 1_555 1_555
H22 C23 1_555 1_555
C24 N3 1_555 1_555
H23 C24 1_555 1_555
O5 H24 1_555 1_555
H25 O5 1_555 1_555
O1B C2B 1_555 1_555
O2B C2B 1_555 1_555
O3B C11B 1_555 1_555
O4B C11B 1_555 1_555
C1B C2B 1_555 1_555
C3B C3 1_555 1_555
C8B C9B 1_555 1_555
C9B C1B 1_555 1_555
H8B C9B 1_555 1_555
C11B C8B 1_555 1_555
C12B C3B 1_555 1_555
H11B C12B 1_555 1_555
C13B C1B 1_555 1_555
H12B C13B 1_555 1_555
Zn1B O1B 1_555 1_555
N1B C5B 1_555 1_555
N2B Zn1B 1_555 1_555
N3B C18B 1_555 1_555
N4B C7B 1_555 1_555
C4B H1B 1_555 1_555
C5B H2B 1_555 1_555
H3B C5B 1_555 1_555
C6B N1B 1_555 1_555
H4B C6B 1_555 1_555
H5B C6B 1_555 1_555
C7B C6B 1_555 1_555
H6B C7B 1_555 1_555
H7B C7B 1_555 1_555
C10B N4B 1_555 1_555
H9B C10B 1_555 1_555
H10B C10B 1_555 1_555
C14B N1B 1_555 1_555
H13B C14B 1_555 1_555
H14B C14B 1_555 1_555
C15B N2B 1_555 1_555
H15B C15B 1_555 1_555
C16B N2B 1_555 1_555
H16B C16B 1_555 1_555
C17B C16B 1_555 1_555
H17B C17B 1_555 1_555
C18B H18B 1_555 1_555
C19B C17B 1_555 1_555
C20B N4B 1_555 1_555
H19B C20B 1_555 1_555
H20B C20B 1_555 1_555
C21B C4B 1_555 1_555
C22B C18B 1_555 1_555
H21B C22B 1_555 1_555
C23B C15B 1_555 1_555
H22B C23B 1_555 1_555
C24B N3B 1_555 1_555
H23B C24B 1_555 1_555
Zn1_2 O2B 1_555 1_555
Zn1_3 N3 1_555 1_555
Zn1A O3B 1_555 1_555
Zn1B_2 N3B 1_555 1_555
Zn1B_3 O2 1_555 1_555
Zn1C O3 1_555 1_555
O2_2 Zn1B 1_555 1_555
O2B_2 Zn1 1_555 1_555
O3A Zn1B 1_555 1_555
O3C Zn1 1_555 1_555
O4A Zn1B 1_555 1_555
O4C Zn1 1_555 1_555
N3_2 Zn1 1_555 1_555
N3B_2 Zn1B 1_555 1_555
O4 Zn1C 1_555 1_555
C3 C13 1_555 1_555
C4 C24 1_555 1_555
C5 C10 1_555 1_555
C14 C21 1_555 1_555
C19 C20 1_555 1_555
C19 C23 1_555 1_555
C21 C22 1_555 1_555
O4B Zn1A 1_555 1_555
C3B C13B 1_555 1_555
C8B C12B 1_555 1_555
C4B C24B 1_555 1_555
C5B C10B 1_555 1_555
C14B C21B 1_555 1_555
C19B C20B 1_555 1_555
C19B C23B 1_555 1_555
C21B C22B 1_555 1_555

#END
