
#######################################################################
#
#                 Cambridge Crystallographic Data Centre
#                                CCDC 
#
#######################################################################
#
# If this CIF has been generated from an entry in the Cambridge 
# Structural Database, then it will include bibliographic, chemical, 
# crystal, experimental, refinement or atomic coordinate data resulting 
# from the CCDC's data processing and validation procedures.
#
#######################################################################

data_LOJFEX
_symmetry_cell_setting           monoclinic
_symmetry_space_group_name_H-M   'P 21/c'
_symmetry_Int_Tables_number      14
_space_group_name_Hall           '-P 2ybc'
loop_
_symmetry_equiv_pos_site_id
_symmetry_equiv_pos_as_xyz
1 x,y,z
2 -x,1/2+y,1/2-z
3 -x,-y,-z
4 x,1/2-y,1/2+z
_cell_length_a                   20.8464(18)
_cell_length_b                   9.5471(9)
_cell_length_c                   19.1788(17)
_cell_angle_alpha                90
_cell_angle_beta                 90.637(5)
_cell_angle_gamma                90
_cell_volume                     3816.78
loop_
_atom_site_label
_atom_site_type_symbol
_atom_site_fract_x
_atom_site_fract_y
_atom_site_fract_z
Zn1 Zn 0.41739(3) 0.20103(6) 0.31858(3)
Zn2 Zn 0.07127(3) -0.89054(6) 0.66005(3)
O1 O 0.1124(2) -0.0326(4) 0.6024(2)
N1 N 0.4025(2) 0.2057(5) 0.2137(2)
C1 C 0.2270(3) -0.3598(5) 0.5247(3)
O2 O 0.3662(2) -0.6550(4) 0.3631(2)
O3 O 0.0929(2) -0.6971(4) 0.6324(2)
O4 O 0.3963(2) 0.0080(4) 0.3465(2)
N2 N 0.5124(3) 0.2089(5) 0.3349(3)
C2 C 0.3505(3) -0.1674(5) 0.4172(3)
N3 N 0.9747(3) 0.3892(5) 0.1499(3)
N4 N 0.0934(3) -0.8945(5) 0.7622(3)
C3 C 0.3557(3) -0.4124(5) 0.3882(3)
C4 C 0.1368(3) -0.2748(5) 0.5944(3)
C5 C 0.1867(3) -0.2508(5) 0.5477(3)
H1 H 0.1936 -0.1603 0.5314
C6 C 0.3767(3) -0.2765(5) 0.3780(3)
H2 H 0.4081 -0.2578 0.3453
C7 C 0.1513(3) -0.6698(5) 0.6195(3)
C8 C 0.2783(3) -0.3309(5) 0.4754(3)
C9 C 0.3722(3) -0.0176(5) 0.4058(3)
C10 C 0.3854(3) -0.5305(5) 0.3476(3)
O5 O 0.0547(3) -0.1806(4) 0.6652(3)
C11 C 0.2142(3) -0.4946(5) 0.5502(3)
H3 H 0.2403 -0.5683 0.5364
C12 C 0.1638(3) -0.5230(5) 0.5956(3)
C13 C 0.3065(3) -0.4420(5) 0.4359(3)
H4 H 0.2923 -0.5336 0.4417
C14 C 0.0973(3) -0.1580(5) 0.6233(3)
C15 C 0.1248(3) -0.4127(5) 0.6174(3)
H5 H 0.0908 -0.4302 0.6471
O6 O 0.3666(3) 0.0691(4) 0.4540(2)
O7 O 0.1956(3) -0.7547(5) 0.6225(4)
N5 N 0.6137(3) 0.2741(6) 0.3257(3)
C16 C 0.3032(3) -0.1961(5) 0.4654(3)
H6 H 0.2873 -0.1229 0.4922
N6 N 0.4254(3) 0.1952(5) 0.1025(3)
C17 C 0.5534(3) 0.2971(6) 0.3054(3)
H7 H 0.5413 0.3669 0.2742
N7 N 0.8745(3) 0.3281(7) 0.1675(3)
C18 C 0.4464(3) 0.1701(6) 0.1678(3)
H8 H 0.4863 0.1327 0.1792
C19 C 0.3506(4) 0.2510(9) 0.1753(4)
H9 H 0.3121 0.2824 0.1938
C20 C 0.9356(3) 0.3093(7) 0.1862(4)
H10 H 0.9492 0.2472 0.2208
C21 C 0.4620(4) 0.1676(8) 0.0393(3)
H11 H 0.5017 0.2208 0.0411
H12 H 0.4375 0.1993 -0.0010
C22 C 0.6117(4) 0.1594(9) 0.3707(4)
H13 H 0.6466 0.1175 0.3930
C23 C 0.4775(4) 0.0151(7) 0.0308(3)
H14 H 0.4379 -0.0365 0.0238
H15 H 0.4976 -0.0189 0.0734
N8 N 0.0818(4) -0.8906(13) 0.8749(4)
C24 C 0.3638(4) 0.2431(9) 0.1074(4)
H16 H 0.3363 0.2658 0.0706
C25 C 0.7723(3) 0.3468(9) 0.2333(4)
H17 H 0.7941 0.4074 0.2665
H18 H 0.7515 0.4057 0.1986
C26 C 0.1474(4) -0.8438(9) 0.7948(4)
H19 H 0.1833 -0.8097 0.7719
C27 C 0.8201(4) 0.2546(10) 0.1988(5)
H20 H 0.7983 0.2012 0.1627
H21 H 0.8366 0.1886 0.2330
C28 C 0.0209(4) -0.9950(11) 0.9691(4)
H22 H 0.0565 -1.0582 0.9777
H23 H -0.0035 -1.0342 0.9304
C29 C 0.5503(4) 0.1211(8) 0.3759(4)
H24 H 0.5352 0.0472 0.4028
C30 C 0.0478(6) -0.8690(10) 0.9447(5)
H25 H 0.0783 -0.8336 0.9789
H26 H 0.0141 -0.7996 0.9388
C31 C 0.7215(3) 0.2610(9) 0.2712(4)
H27 H 0.7011 0.1970 0.2384
H28 H 0.7420 0.2056 0.3075
C32 C 0.6709(4) 0.3536(9) 0.3034(4)
H29 H 0.6894 0.4015 0.3434
H30 H 0.6578 0.4241 0.2697
C33 C 0.1415(5) -0.8499(13) 0.8632(5)
H31 H 0.1729 -0.8297 0.8965
C34 C 0.9356(4) 0.4647(9) 0.1065(4)
H32 H 0.9501 0.5286 0.0736
C35 C 0.0551(4) -0.9288(14) 0.8118(4)
H33 H 0.0156 -0.9726 0.8058
O8 O 0.4272(2) -0.5048(4) 0.3040(2)
C36 C 0.8729(3) 0.4346(6) 0.1176(3)
H34 H 0.8370 0.4755 0.0967
N1B N 0.5975(2) -0.2057(5) -0.2137(2)
N6B N 0.5746(3) -0.1952(5) -0.1025(3)
C18B C 0.5536(3) -0.1701(6) -0.1678(3)
H8B H 0.5137 -0.1327 -0.1792
C19B C 0.6494(4) -0.2510(9) -0.1753(4)
H9B H 0.6879 -0.2824 -0.1938
C21B C 0.5380(4) -0.1676(8) -0.0393(3)
H11B H 0.4983 -0.2208 -0.0411
H12B H 0.5625 -0.1993 0.0010
C23B C 0.5225(4) -0.0151(7) -0.0308(3)
H14B H 0.5621 0.0365 -0.0238
H15B H 0.5024 0.0189 -0.0734
C24B C 0.6362(4) -0.2431(9) -0.1074(4)
H16B H 0.6637 -0.2658 -0.0706
N4B N -0.0934(3) -1.1055(5) 1.2378(3)
N8B N -0.0818(4) -1.1094(13) 1.1251(4)
C26B C -0.1474(4) -1.1562(9) 1.2052(4)
H19B H -0.1833 -1.1903 1.2281
C28B C -0.0209(4) -1.0050(11) 1.0309(4)
H22B H -0.0565 -0.9418 1.0223
H23B H 0.0035 -0.9658 1.0696
C30B C -0.0478(6) -1.1310(10) 1.0553(5)
H25B H -0.0783 -1.1664 1.0211
H26B H -0.0141 -1.2004 1.0612
C33B C -0.1415(5) -1.1501(13) 1.1368(5)
H31B H -0.1729 -1.1703 1.1035
C35B C -0.0551(4) -1.0712(14) 1.1882(4)
H33B H -0.0156 -1.0274 1.1942
Zn1B Zn -0.41739(3) -2.20103(6) 1.68142(3)
Zn2B Zn -0.07127(3) -1.10946(6) 1.33995(3)
O1B O -0.1124(2) -1.9674(4) 1.3976(2)
C1B C -0.2270(3) -1.6402(5) 1.4753(3)
O2B O -0.3662(2) -1.3450(4) 1.6369(2)
O3B O -0.0929(2) -1.3029(4) 1.3676(2)
O4B O -0.3963(2) -2.0080(4) 1.6535(2)
N2B N -0.5124(3) -2.2089(5) 1.6651(3)
C2B C -0.3505(3) -1.8326(5) 1.5828(3)
N3B N -0.9747(3) -2.3892(5) 1.8501(3)
C3B C -0.3557(3) -1.5876(5) 1.6118(3)
C4B C -0.1368(3) -1.7252(5) 1.4056(3)
C5B C -0.1867(3) -1.7492(5) 1.4523(3)
H1B H -0.1936 -1.8397 1.4686
C6B C -0.3767(3) -1.7235(5) 1.6220(3)
H2B H -0.4081 -1.7422 1.6547
C7B C -0.1513(3) -1.3302(5) 1.3805(3)
C8B C -0.2783(3) -1.6691(5) 1.5246(3)
C9B C -0.3722(3) -1.9824(5) 1.5942(3)
C10B C -0.3854(3) -1.4695(5) 1.6524(3)
O5B O -0.0547(3) -1.8194(4) 1.3348(3)
C11B C -0.2142(3) -1.5054(5) 1.4498(3)
H3B H -0.2403 -1.4317 1.4636
C12B C -0.1638(3) -1.4770(5) 1.4044(3)
C13B C -0.3065(3) -1.5580(5) 1.5641(3)
H4B H -0.2923 -1.4664 1.5583
C14B C -0.0973(3) -1.8420(5) 1.3767(3)
C15B C -0.1248(3) -1.5873(5) 1.3826(3)
H5B H -0.0908 -1.5698 1.3529
O6B O -0.3666(3) -2.0691(4) 1.5460(2)
O7B O -0.1956(3) -1.2453(5) 1.3775(4)
N5B N -0.6137(3) -2.2741(6) 1.6743(3)
C16B C -0.3032(3) -1.8039(5) 1.5346(3)
H6B H -0.2873 -1.8771 1.5078
C17B C -0.5534(3) -2.2971(6) 1.6946(3)
H7B H -0.5413 -2.3669 1.7258
N7B N -0.8745(3) -2.3281(7) 1.8325(3)
C20B C -0.9356(3) -2.3093(7) 1.8138(4)
H10B H -0.9492 -2.2472 1.7792
C22B C -0.6117(4) -2.1594(9) 1.6293(4)
H13B H -0.6466 -2.1175 1.6070
C25B C -0.7723(3) -2.3468(9) 1.7667(4)
H17B H -0.7941 -2.4074 1.7335
H18B H -0.7515 -2.4057 1.8014
C27B C -0.8201(4) -2.2546(10) 1.8012(5)
H20B H -0.7983 -2.2012 1.8373
H21B H -0.8366 -2.1886 1.7670
C29B C -0.5503(4) -2.1211(8) 1.6241(4)
H24B H -0.5352 -2.0472 1.5972
C31B C -0.7215(3) -2.2610(9) 1.7288(4)
H27B H -0.7011 -2.1970 1.7616
H28B H -0.7420 -2.2056 1.6925
C32B C -0.6709(4) -2.3536(9) 1.6966(4)
H29B H -0.6894 -2.4015 1.6566
H30B H -0.6578 -2.4241 1.7303
C34B C -0.9356(4) -2.4647(9) 1.8935(4)
H32B H -0.9501 -2.5286 1.9264
O8B O -0.4272(2) -1.4952(4) 1.6960(2)
C36B C -0.8729(3) -2.4346(6) 1.8824(3)
H34B H -0.8370 -2.4755 1.9033
Zn1_2 Zn 0.41739(3) -0.79897(6) 0.31858(3)
Zn1B_2 Zn -0.41739(3) -1.20103(6) 1.68142(3)
Zn1B_3 Zn 0.58261(3) -0.20103(6) -0.31858(3)
Zn2_2 Zn 0.07127(3) 0.10946(6) 0.66005(3)
Zn2A Zn -1.07127(3) -2.39054(6) 1.83995(3)
Zn2B_2 Zn -0.07127(3) -2.10946(6) 1.33995(3)
Zn2C Zn 1.07127(3) 0.39054(6) 0.16005(3)
O1_2 O 0.1124(2) -1.0326(4) 0.6024(2)
O1B_2 O -0.1124(2) -0.9674(4) 1.3976(2)
N1B_2 N -0.4025(2) -2.2057(5) 1.7863(2)
O2_2 O 0.3662(2) 0.3450(4) 0.3631(2)
O2B_2 O -0.3662(2) -2.3450(4) 1.6369(2)
N3A N 0.0253(3) -1.1108(5) 1.3501(3)
N3C N -0.0253(3) -0.8892(5) 0.6499(3)
O9 O -0.2291(3) -1.1434(6) 0.5188(3)
H35 H -0.2277 -1.1614 0.4769
H36 H -0.2640 -1.1130 0.5309
loop_
_geom_bond_atom_site_label_1
_geom_bond_atom_site_label_2
_geom_bond_site_symmetry_1
_geom_bond_site_symmetry_2
Zn1 N1 1_555 1_555
Zn2 O3 1_555 1_555
O1 C14 1_555 1_555
N1 C18 1_555 1_555
C1 C5 1_555 1_555
O2 C10 1_555 1_555
O3 C7 1_555 1_555
O4 Zn1 1_555 1_555
N2 Zn1 1_555 1_555
C2 C6 1_555 1_555
N3 C20 1_555 1_555
N4 Zn2 1_555 1_555
C3 C6 1_555 1_555
C4 C5 1_555 1_555
C5 H1 1_555 1_555
C6 H2 1_555 1_555
C7 C12 1_555 1_555
C8 C1 1_555 1_555
C9 O4 1_555 1_555
C10 C3 1_555 1_555
O5 C14 1_555 1_555
C11 C1 1_555 1_555
H3 C11 1_555 1_555
C12 C11 1_555 1_555
C13 C3 1_555 1_555
H4 C13 1_555 1_555
C14 C4 1_555 1_555
C15 C4 1_555 1_555
H5 C15 1_555 1_555
O6 C9 1_555 1_555
O7 C7 1_555 1_555
N5 C17 1_555 1_555
C16 C2 1_555 1_555
H6 C16 1_555 1_555
N6 C18 1_555 1_555
C17 N2 1_555 1_555
H7 C17 1_555 1_555
N7 C20 1_555 1_555
C18 H8 1_555 1_555
C19 N1 1_555 1_555
H9 C19 1_555 1_555
C20 H10 1_555 1_555
C21 N6 1_555 1_555
H11 C21 1_555 1_555
H12 C21 1_555 1_555
C22 N5 1_555 1_555
H13 C22 1_555 1_555
C23 C21 1_555 1_555
H14 C23 1_555 1_555
H15 C23 1_555 1_555
N8 C30 1_555 1_555
C24 N6 1_555 1_555
H16 C24 1_555 1_555
C25 H17 1_555 1_555
H18 C25 1_555 1_555
C26 N4 1_555 1_555
H19 C26 1_555 1_555
C27 N7 1_555 1_555
H20 C27 1_555 1_555
H21 C27 1_555 1_555
C28 H22 1_555 1_555
H23 C28 1_555 1_555
C29 N2 1_555 1_555
H24 C29 1_555 1_555
C30 C28 1_555 1_555
H25 C30 1_555 1_555
H26 C30 1_555 1_555
C31 C25 1_555 1_555
H27 C31 1_555 1_555
H28 C31 1_555 1_555
C32 N5 1_555 1_555
H29 C32 1_555 1_555
H30 C32 1_555 1_555
C33 N8 1_555 1_555
H31 C33 1_555 1_555
C34 N3 1_555 1_555
H32 C34 1_555 1_555
C35 N4 1_555 1_555
H33 C35 1_555 1_555
O8 C10 1_555 1_555
C36 N7 1_555 1_555
H34 C36 1_555 1_555
O9 H35 1_555 1_555
H36 O9 1_555 1_555
N1B C18B 1_555 1_555
N6B C18B 1_555 1_555
C18B H8B 1_555 1_555
C19B N1B 1_555 1_555
H9B C19B 1_555 1_555
C21B N6B 1_555 1_555
H11B C21B 1_555 1_555
H12B C21B 1_555 1_555
C23B C23 1_555 1_555
H14B C23B 1_555 1_555
H15B C23B 1_555 1_555
C24B N6B 1_555 1_555
H16B C24B 1_555 1_555
N4B C26B 1_555 1_555
N8B C30B 1_555 1_555
C26B H19B 1_555 1_555
C28B C28 1_555 1_555
H22B C28B 1_555 1_555
H23B C28B 1_555 1_555
C30B C28B 1_555 1_555
H25B C30B 1_555 1_555
H26B C30B 1_555 1_555
C33B N8B 1_555 1_555
H31B C33B 1_555 1_555
C35B N4B 1_555 1_555
H33B C35B 1_555 1_555
Zn1B O4B 1_555 1_555
Zn2B N4B 1_555 1_555
O1B C14B 1_555 1_555
C1B C5B 1_555 1_555
O2B C10B 1_555 1_555
O3B Zn2B 1_555 1_555
O4B C9B 1_555 1_555
N2B Zn1B 1_555 1_555
C2B C6B 1_555 1_555
N3B C20B 1_555 1_555
C3B C6B 1_555 1_555
C4B C5B 1_555 1_555
C5B H1B 1_555 1_555
C6B H2B 1_555 1_555
C7B O3B 1_555 1_555
C8B C1B 1_555 1_555
C9B C2B 1_555 1_555
C10B C3B 1_555 1_555
O5B C14B 1_555 1_555
C11B C1B 1_555 1_555
H3B C11B 1_555 1_555
C12B C7B 1_555 1_555
C13B C3B 1_555 1_555
H4B C13B 1_555 1_555
C14B C4B 1_555 1_555
C15B C4B 1_555 1_555
H5B C15B 1_555 1_555
O6B C9B 1_555 1_555
O7B C7B 1_555 1_555
N5B C17B 1_555 1_555
C16B C2B 1_555 1_555
H6B C16B 1_555 1_555
C17B N2B 1_555 1_555
H7B C17B 1_555 1_555
N7B C20B 1_555 1_555
C20B H10B 1_555 1_555
C22B N5B 1_555 1_555
H13B C22B 1_555 1_555
C25B H17B 1_555 1_555
H18B C25B 1_555 1_555
C27B N7B 1_555 1_555
H20B C27B 1_555 1_555
H21B C27B 1_555 1_555
C29B N2B 1_555 1_555
H24B C29B 1_555 1_555
C31B C25B 1_555 1_555
H27B C31B 1_555 1_555
H28B C31B 1_555 1_555
C32B N5B 1_555 1_555
H29B C32B 1_555 1_555
H30B C32B 1_555 1_555
C34B N3B 1_555 1_555
H32B C34B 1_555 1_555
O8B C10B 1_555 1_555
C36B N7B 1_555 1_555
H34B C36B 1_555 1_555
Zn1_2 O2 1_555 1_555
Zn1B_2 O2B 1_555 1_555
Zn1B_3 N1B 1_555 1_555
Zn2_2 O1 1_555 1_555
Zn2A N3B 1_555 1_555
Zn2B_2 O1B 1_555 1_555
Zn2C N3 1_555 1_555
O1_2 Zn2 1_555 1_555
O1B_2 Zn2B 1_555 1_555
N1B_2 Zn1B 1_555 1_555
O2_2 Zn1 1_555 1_555
O2B_2 Zn1B 1_555 1_555
N3A Zn2B 1_555 1_555
N3C Zn2 1_555 1_555
C2 C9 1_555 1_555
C8 C13 1_555 1_555
C8 C16 1_555 1_555
C12 C15 1_555 1_555
C19 C24 1_555 1_555
C22 C29 1_555 1_555
N8 C35 1_555 1_555
C25 C27 1_555 1_555
C26 C33 1_555 1_555
C31 C32 1_555 1_555
C34 C36 1_555 1_555
C19B C24B 1_555 1_555
C21B C23B 1_555 1_555
N8B C35B 1_555 1_555
C26B C33B 1_555 1_555
C8B C13B 1_555 1_555
C8B C16B 1_555 1_555
C11B C12B 1_555 1_555
C12B C15B 1_555 1_555
C22B C29B 1_555 1_555
C25B C27B 1_555 1_555
C31B C32B 1_555 1_555
C34B C36B 1_555 1_555

#END
