
#######################################################################
#
#                 Cambridge Crystallographic Data Centre
#                                CCDC 
#
#######################################################################
#
# If this CIF has been generated from an entry in the Cambridge 
# Structural Database, then it will include bibliographic, chemical, 
# crystal, experimental, refinement or atomic coordinate data resulting 
# from the CCDC's data processing and validation procedures.
#
#######################################################################

data_LOJNOP
_symmetry_cell_setting           triclinic
_symmetry_space_group_name_H-M   'P -1'
_symmetry_Int_Tables_number      2
_space_group_name_Hall           '-P 1'
loop_
_symmetry_equiv_pos_site_id
_symmetry_equiv_pos_as_xyz
1 x,y,z
2 -x,-y,-z
_cell_length_a                   7.6137(6)
_cell_length_b                   10.0890(9)
_cell_length_c                   10.3272(11)
_cell_angle_alpha                105.897(2)
_cell_angle_beta                 91.7150(10)
_cell_angle_gamma                98.7490(10)
_cell_volume                     751.922
loop_
_atom_site_label
_atom_site_type_symbol
_atom_site_fract_x
_atom_site_fract_y
_atom_site_fract_z
Mo1 Mo 0.20079(9) 0.30810(8) 0.86272(7)
Mo2 Mo 0.49942(8) 0.59082(8) 0.87872(7)
Mo3 Mo -0.00049(8) 0.57621(8) 0.86283(7)
Zn1 Zn 0.5000 0.5000 0.5000
N1 N 0.3909(9) 0.7416(8) 0.4034(7)
H1 H 0.4240 0.7028 0.3251
N2 N 0.4079(9) 0.6938(8) 0.5135(7)
N3 N 0.1913(9) 1.0620(8) 0.1465(7)
H2 H 0.1642 1.1041 0.0886
O1 O 0.2471(7) 0.5373(6) 0.8790(5)
O2 O 0.4579(7) 0.3768(6) 0.9066(5)
O3 O -0.0173(7) 0.3743(6) 0.9118(5)
O4 O 0.1882(8) 0.2656(6) 0.6888(6)
O5 O 0.2412(7) 0.4086(6) 1.0871(5)
O6 O 0.1742(7) 0.1500(6) 0.8983(6)
O7 O 0.5154(7) 0.5303(7) 0.7061(5)
O8 O 0.4973(7) 0.7641(7) 0.9052(6)
O9 O -0.0493(7) 0.4971(7) 0.6938(6)
O10 O 0.0738(7) 0.7459(7) 0.8713(6)
O11 O 0.2332(8) 0.4021(7) 0.4887(6)
H3 H 0.1604 0.4465 0.4616
H4 H 0.2033 0.3860 0.5623
C1 C 0.3450(12) 0.7858(11) 0.6127(9)
H5 H 0.3434 0.7816 0.7015
C2 C 0.2821(13) 0.8889(10) 0.5671(9)
H6 H 0.2295 0.9622 0.6168
C3 C 0.3142(11) 0.8595(9) 0.4338(9)
C4 C 0.2820(11) 0.9571(10) 0.1082(9)
H7 H 0.3164 0.9305 0.0205
C5 C 0.3244(12) 0.8884(10) 0.1999(9)
H8 H 0.3875 0.8145 0.1740
C6 C 0.2735(11) 0.9287(9) 0.3310(8)
C7 C 0.1824(13) 1.0422(10) 0.3662(10)
H9 H 0.1506 1.0746 0.4541
C8 C 0.1406(13) 1.1046(10) 0.2723(10)
H10 H 0.0761 1.1778 0.2950
Mo1A Mo -0.20079(9) 0.69190(8) 1.13728(7)
Mo2A Mo -0.49942(8) 0.40918(8) 1.12128(7)
Mo3A Mo 0.00049(8) 0.42379(8) 1.13717(7)
O1A O -0.2471(7) 0.4627(6) 1.1210(5)
O2A O -0.4579(7) 0.6232(6) 1.0934(5)
O3A O 0.0173(7) 0.6257(6) 1.0882(5)
O4A O -0.1882(8) 0.7344(6) 1.3112(6)
O5A O -0.2412(7) 0.5914(6) 0.9129(5)
O6A O -0.1742(7) 0.8500(6) 1.1017(6)
O7A O -0.5154(7) 0.4697(7) 1.2939(5)
O8A O -0.4973(7) 0.2359(7) 1.0948(6)
O9A O 0.0493(7) 0.5029(7) 1.3062(6)
O10A O -0.0738(7) 0.2541(7) 1.1287(6)
N1A N 0.6091(9) 0.2584(8) 0.5966(7)
H1A H 0.5760 0.2972 0.6749
N2A N 0.5921(9) 0.3062(8) 0.4865(7)
N3A N 0.8087(9) -0.0620(8) 0.8535(7)
H2A H 0.8358 -0.1041 0.9114
C1A C 0.6550(12) 0.2142(11) 0.3873(9)
H5A H 0.6566 0.2184 0.2985
C2A C 0.7179(13) 0.1111(10) 0.4329(9)
H6A H 0.7705 0.0378 0.3832
C3A C 0.6858(11) 0.1405(9) 0.5662(9)
C4A C 0.7180(11) 0.0429(10) 0.8918(9)
H7A H 0.6836 0.0695 0.9795
C5A C 0.6756(12) 0.1116(10) 0.8001(9)
H8A H 0.6125 0.1855 0.8260
C6A C 0.7265(11) 0.0713(9) 0.6690(8)
C7A C 0.8176(13) -0.0422(10) 0.6338(10)
H9A H 0.8494 -0.0746 0.5459
C8A C 0.8594(13) -0.1046(10) 0.7277(10)
H10A H 0.9239 -0.1778 0.7050
O11A O 0.7668(8) 0.5979(7) 0.5113(6)
H3A H 0.8396 0.5535 0.5384
H4A H 0.7967 0.6140 0.4377
Mo2_2 Mo -0.50058(8) 0.59082(8) 0.87872(7)
Mo2A_2 Mo 0.50058(8) 0.40918(8) 1.12128(7)
Zn1_2 Zn -0.5000 0.5000 1.5000
O2_2 O -0.5421(7) 0.3768(6) 0.9066(5)
O2A_2 O 0.5421(7) 0.6232(6) 1.0934(5)
O5_2 O -0.7588(7) 0.4086(6) 1.0871(5)
O5A_2 O 0.7588(7) 0.5914(6) 0.9129(5)
O7A_2 O 0.4846(7) 0.4697(7) 0.2939(5)
loop_
_geom_bond_atom_site_label_1
_geom_bond_atom_site_label_2
_geom_bond_site_symmetry_1
_geom_bond_site_symmetry_2
Mo1 O1 1_555 1_555
Mo2 O1 1_555 1_555
Mo3 O1 1_555 1_555
Zn1 N2 1_555 1_555
N1 H1 1_555 1_555
N2 N1 1_555 1_555
N3 H2 1_555 1_555
O2 Mo1 1_555 1_555
O3 Mo1 1_555 1_555
O4 Mo1 1_555 1_555
O5 Mo1 1_555 1_555
O6 Mo1 1_555 1_555
O7 Mo2 1_555 1_555
O8 Mo2 1_555 1_555
O9 Mo3 1_555 1_555
O10 Mo3 1_555 1_555
O11 Zn1 1_555 1_555
H3 O11 1_555 1_555
H4 O11 1_555 1_555
C1 N2 1_555 1_555
H5 C1 1_555 1_555
C2 C1 1_555 1_555
H6 C2 1_555 1_555
C3 N1 1_555 1_555
C4 N3 1_555 1_555
H7 C4 1_555 1_555
C5 C4 1_555 1_555
H8 C5 1_555 1_555
C6 C3 1_555 1_555
C7 C6 1_555 1_555
H9 C7 1_555 1_555
C8 N3 1_555 1_555
H10 C8 1_555 1_555
Mo1A O1A 1_555 1_555
Mo2A O1A 1_555 1_555
Mo3A O3 1_555 1_555
O1A Mo3A 1_555 1_555
O2A Mo1A 1_555 1_555
O3A Mo3 1_555 1_555
O4A Mo1A 1_555 1_555
O5A Mo3 1_555 1_555
O6A Mo1A 1_555 1_555
O7A Mo2A 1_555 1_555
O8A Mo2A 1_555 1_555
O9A Mo3A 1_555 1_555
O10A Mo3A 1_555 1_555
N1A H1A 1_555 1_555
N2A Zn1 1_555 1_555
N3A H2A 1_555 1_555
C1A N2A 1_555 1_555
H5A C1A 1_555 1_555
C2A C1A 1_555 1_555
H6A C2A 1_555 1_555
C3A N1A 1_555 1_555
C4A N3A 1_555 1_555
H7A C4A 1_555 1_555
C5A C4A 1_555 1_555
H8A C5A 1_555 1_555
C6A C3A 1_555 1_555
C7A C6A 1_555 1_555
H9A C7A 1_555 1_555
C8A N3A 1_555 1_555
H10A C8A 1_555 1_555
O11A Zn1 1_555 1_555
H3A O11A 1_555 1_555
H4A O11A 1_555 1_555
Mo2_2 O2A 1_555 1_555
Mo2A_2 O2 1_555 1_555
Zn1_2 O7A 1_555 1_555
O2_2 Mo2A 1_555 1_555
O2A_2 Mo2 1_555 1_555
O5_2 Mo2A 1_555 1_555
O5A_2 Mo2 1_555 1_555
O7A_2 Zn1 1_555 1_555
Mo2 O2 1_555 1_555
Mo3 O3 1_555 1_555
Zn1 O7 1_555 1_555
O5 Mo3A 1_555 1_555
O5 Mo2A_2 1_555 1_555
C2 C3 1_555 1_555
C5 C6 1_555 1_555
C7 C8 1_555 1_555
Mo1A O3A 1_555 1_555
Mo1A O5A 1_555 1_555
Mo2A O2A 1_555 1_555
Mo3A O3A 1_555 1_555
O5A Mo2_2 1_555 1_555
N1A N2A 1_555 1_555
C2A C3A 1_555 1_555
C5A C6A 1_555 1_555
C7A C8A 1_555 1_555
Mo2_2 O2_2 1_555 1_555
Mo2A_2 O2A_2 1_555 1_555

#END
