
#######################################################################
#
#                 Cambridge Crystallographic Data Centre
#                                CCDC 
#
#######################################################################
#
# If this CIF has been generated from an entry in the Cambridge 
# Structural Database, then it will include bibliographic, chemical, 
# crystal, experimental, refinement or atomic coordinate data resulting 
# from the CCDC's data processing and validation procedures.
#
#######################################################################

data_LOJNUV
_symmetry_cell_setting           triclinic
_symmetry_space_group_name_H-M   'P -1'
_symmetry_Int_Tables_number      2
_space_group_name_Hall           '-P 1'
loop_
_symmetry_equiv_pos_site_id
_symmetry_equiv_pos_as_xyz
1 x,y,z
2 -x,-y,-z
_cell_length_a                   7.5923(12)
_cell_length_b                   10.0495(13)
_cell_length_c                   10.2603(12)
_cell_angle_alpha                105.944(2)
_cell_angle_beta                 91.9350(13)
_cell_angle_gamma                98.7693(12)
_cell_volume                     741.573
loop_
_atom_site_label
_atom_site_type_symbol
_atom_site_fract_x
_atom_site_fract_y
_atom_site_fract_z
Mo1 Mo 0.20065(14) 0.30870(11) 0.36130(10)
Mo2 Mo 0.50044(14) 0.59082(11) 0.37842(10)
Mo3 Mo 0.00091(14) 0.57762(11) 0.36344(10)
Co1 Co 0.5000 0.5000 0.0000
N1 N 0.3911(15) 0.7435(11) -0.0998(12)
H1 H 0.4250 0.7064 -0.1788
N2 N 0.4090(16) 0.6947(12) 0.0095(11)
N3 N 0.1877(16) 1.0633(11) -0.3539(11)
H2 H 0.1571 1.1040 -0.4126
O1 O 0.2475(11) 0.5372(9) 0.3829(9)
O2 O 0.4576(12) 0.3757(8) 0.4046(8)
O3 O -0.0176(12) 0.3741(8) 0.4083(8)
O4 O 0.1892(13) 0.2661(9) 0.1876(9)
O5 O 0.2417(12) 0.4086(10) 0.5850(8)
O6 O 0.1733(13) 0.1501(10) 0.3968(9)
O7 O 0.5127(12) 0.5285(9) 0.2073(8)
O8 O 0.4979(12) 0.7653(9) 0.4065(9)
O9 O -0.0487(13) 0.4987(11) 0.1953(9)
O10 O 0.0770(12) 0.7482(10) 0.3753(10)
O11 O 0.2367(13) 0.4044(10) -0.0090(9)
H3 H 0.1634 0.4488 -0.0365
H4 H 0.2072 0.3884 0.0651
C1 C 0.3141(19) 0.8561(13) -0.0680(14)
C2 C 0.2843(19) 0.8856(14) 0.0651(13)
H5 H 0.2329 0.9596 0.1156
C3 C 0.3458(19) 0.7836(14) 0.1099(14)
H6 H 0.3435 0.7776 0.1987
C4 C 0.282(2) 0.9583(14) -0.3921(14)
H7 H 0.3166 0.9318 -0.4803
C5 C 0.3252(19) 0.8912(14) -0.3011(13)
H8 H 0.3907 0.8185 -0.3275
C6 C 0.2738(19) 0.9289(14) -0.1679(13)
C7 C 0.182(2) 1.0426(15) -0.1351(14)
H9 H 0.1489 1.0751 -0.0470
C8 C 0.141(2) 1.1055(15) -0.2285(15)
H10 H 0.0787 1.1803 -0.2046
Mo1A Mo -0.20065(14) 0.69130(11) 0.63870(10)
Mo2A Mo -0.50044(14) 0.40918(11) 0.62158(10)
Mo3A Mo -0.00091(14) 0.42238(11) 0.63656(10)
O1A O -0.2475(11) 0.4628(9) 0.6171(9)
O2A O -0.4576(12) 0.6243(8) 0.5954(8)
O3A O 0.0176(12) 0.6259(8) 0.5917(8)
O4A O -0.1892(13) 0.7339(9) 0.8124(9)
O5A O -0.2417(12) 0.5914(10) 0.4150(8)
O6A O -0.1733(13) 0.8499(10) 0.6032(9)
O7A O -0.5127(12) 0.4715(9) 0.7927(8)
O8A O -0.4979(12) 0.2347(9) 0.5935(9)
O9A O 0.0487(13) 0.5013(11) 0.8047(9)
O10A O -0.0770(12) 0.2518(10) 0.6247(10)
N1A N 0.6089(15) 0.2565(11) 0.0998(12)
H1A H 0.5750 0.2936 0.1788
N2A N 0.5910(16) 0.3053(12) -0.0095(11)
N3A N 0.8123(16) -0.0633(11) 0.3539(11)
H2A H 0.8429 -0.1040 0.4126
C1A C 0.6859(19) 0.1439(13) 0.0680(14)
C2A C 0.7157(19) 0.1144(14) -0.0651(13)
H5A H 0.7671 0.0404 -0.1156
C3A C 0.6542(19) 0.2164(14) -0.1099(14)
H6A H 0.6565 0.2224 -0.1987
C4A C 0.718(2) 0.0417(14) 0.3921(14)
H7A H 0.6834 0.0682 0.4803
C5A C 0.6748(19) 0.1088(14) 0.3011(13)
H8A H 0.6093 0.1815 0.3275
C6A C 0.7262(19) 0.0711(14) 0.1679(13)
C7A C 0.818(2) -0.0426(15) 0.1351(14)
H9A H 0.8511 -0.0751 0.0470
C8A C 0.859(2) -0.1055(15) 0.2285(15)
H10A H 0.9213 -0.1803 0.2046
O11A O 0.7633(13) 0.5956(10) 0.0090(9)
H3A H 0.8366 0.5512 0.0365
H4A H 0.7928 0.6116 -0.0651
Mo2_2 Mo -0.49956(14) 0.59082(11) 0.37842(10)
Mo2A_2 Mo 0.49956(14) 0.40918(11) 0.62158(10)
Co1_2 Co -0.5000 0.5000 1.0000
O2_2 O -0.5424(12) 0.3757(8) 0.4046(8)
O2A_2 O 0.5424(12) 0.6243(8) 0.5954(8)
O5_2 O -0.7583(12) 0.4086(10) 0.5850(8)
O5A_2 O 0.7583(12) 0.5914(10) 0.4150(8)
O7A_2 O 0.4873(12) 0.4715(9) -0.2073(8)
loop_
_geom_bond_atom_site_label_1
_geom_bond_atom_site_label_2
_geom_bond_site_symmetry_1
_geom_bond_site_symmetry_2
Mo1 O1 1_555 1_555
Mo2 O1 1_555 1_555
Mo3 O1 1_555 1_555
Co1 N2 1_555 1_555
N1 H1 1_555 1_555
N2 N1 1_555 1_555
N3 H2 1_555 1_555
O2 Mo1 1_555 1_555
O3 Mo1 1_555 1_555
O4 Mo1 1_555 1_555
O5 Mo1 1_555 1_555
O6 Mo1 1_555 1_555
O7 Mo2 1_555 1_555
O8 Mo2 1_555 1_555
O9 Mo3 1_555 1_555
O10 Mo3 1_555 1_555
O11 Co1 1_555 1_555
H3 O11 1_555 1_555
H4 O11 1_555 1_555
C1 N1 1_555 1_555
C2 C1 1_555 1_555
H5 C2 1_555 1_555
C3 N2 1_555 1_555
H6 C3 1_555 1_555
C4 N3 1_555 1_555
H7 C4 1_555 1_555
C5 C4 1_555 1_555
H8 C5 1_555 1_555
C6 C1 1_555 1_555
C7 C6 1_555 1_555
H9 C7 1_555 1_555
C8 N3 1_555 1_555
H10 C8 1_555 1_555
Mo1A O1A 1_555 1_555
Mo2A O1A 1_555 1_555
Mo3A O3 1_555 1_555
O1A Mo3A 1_555 1_555
O2A Mo1A 1_555 1_555
O3A Mo3 1_555 1_555
O4A Mo1A 1_555 1_555
O5A Mo3 1_555 1_555
O6A Mo1A 1_555 1_555
O7A Mo2A 1_555 1_555
O8A Mo2A 1_555 1_555
O9A Mo3A 1_555 1_555
O10A Mo3A 1_555 1_555
N1A H1A 1_555 1_555
N2A Co1 1_555 1_555
N3A H2A 1_555 1_555
C1A N1A 1_555 1_555
C2A C1A 1_555 1_555
H5A C2A 1_555 1_555
C3A N2A 1_555 1_555
H6A C3A 1_555 1_555
C4A N3A 1_555 1_555
H7A C4A 1_555 1_555
C5A C4A 1_555 1_555
H8A C5A 1_555 1_555
C6A C1A 1_555 1_555
C7A C6A 1_555 1_555
H9A C7A 1_555 1_555
C8A N3A 1_555 1_555
H10A C8A 1_555 1_555
O11A Co1 1_555 1_555
H3A O11A 1_555 1_555
H4A O11A 1_555 1_555
Mo2_2 O2A 1_555 1_555
Mo2A_2 O2 1_555 1_555
Co1_2 O7A 1_555 1_555
O2_2 Mo2A 1_555 1_555
O2A_2 Mo2 1_555 1_555
O5_2 Mo2A 1_555 1_555
O5A_2 Mo2 1_555 1_555
O7A_2 Co1 1_555 1_555
Mo2 O2 1_555 1_555
Mo3 O3 1_555 1_555
Co1 O7 1_555 1_555
O5 Mo3A 1_555 1_555
O5 Mo2A_2 1_555 1_555
C2 C3 1_555 1_555
C5 C6 1_555 1_555
C7 C8 1_555 1_555
Mo1A O3A 1_555 1_555
Mo1A O5A 1_555 1_555
Mo2A O2A 1_555 1_555
Mo3A O3A 1_555 1_555
O5A Mo2_2 1_555 1_555
N1A N2A 1_555 1_555
C2A C3A 1_555 1_555
C5A C6A 1_555 1_555
C7A C8A 1_555 1_555
Mo2_2 O2_2 1_555 1_555
Mo2A_2 O2A_2 1_555 1_555

#END
