
#######################################################################
#
#                 Cambridge Crystallographic Data Centre
#                                CCDC 
#
#######################################################################
#
# If this CIF has been generated from an entry in the Cambridge 
# Structural Database, then it will include bibliographic, chemical, 
# crystal, experimental, refinement or atomic coordinate data resulting 
# from the CCDC's data processing and validation procedures.
#
#######################################################################

data_LOJPIL
_symmetry_cell_setting           triclinic
_symmetry_space_group_name_H-M   'P -1'
_symmetry_Int_Tables_number      2
_space_group_name_Hall           '-P 1'
loop_
_symmetry_equiv_pos_site_id
_symmetry_equiv_pos_as_xyz
1 x,y,z
2 -x,-y,-z
_cell_length_a                   7.6364(5)
_cell_length_b                   10.1462(7)
_cell_length_c                   10.3819(8)
_cell_angle_alpha                106.443(2)
_cell_angle_beta                 91.5990(10)
_cell_angle_gamma                98.7530(10)
_cell_volume                     760.37
loop_
_atom_site_label
_atom_site_type_symbol
_atom_site_fract_x
_atom_site_fract_y
_atom_site_fract_z
Mo1 Mo 0.70134(9) 0.30751(7) 0.86389(6)
Mo2 Mo 0.99865(8) 0.58931(6) 0.87919(6)
Mo3 Mo 0.49902(8) 0.57445(7) 0.86322(6)
Mn1 Mn 1.0000 0.5000 0.5000
N1 N 0.8867(10) 0.7485(7) 0.4045(7)
N2 N 0.9046(10) 0.7072(7) 0.5152(7)
N3 N 0.6907(9) 1.0615(7) 0.1431(7)
H1 H 0.6645 1.1015 0.0840
O1 O 0.7488(7) 0.5366(5) 0.8791(5)
O2 O 0.9582(6) 0.3752(5) 0.9078(5)
O3 O 0.4840(7) 0.3751(5) 0.9107(5)
O4 O 0.6909(7) 0.2651(6) 0.6912(5)
O5 O 0.7399(7) 0.4107(5) 1.0882(5)
O6 O 0.6739(8) 0.1501(6) 0.8983(6)
O7 O 1.0195(7) 0.5207(6) 0.7074(5)
O8 O 0.9982(7) 0.7611(6) 0.8999(5)
O9 O 0.5756(7) 0.7435(6) 0.8721(6)
O10 O 0.4501(7) 0.4942(6) 0.6946(5)
O11 O 0.7227(7) 0.4023(6) 0.4907(6)
H2 H 0.6504 0.4470 0.4644
H3 H 0.6934 0.3868 0.5641
C1 C 0.8386(13) 0.7969(9) 0.6134(9)
H4 H 0.8321 0.7916 0.7012
C2 C 0.7817(12) 0.8979(9) 0.5676(9)
H5 H 0.7332 0.9735 0.6174
C3 C 0.8105(11) 0.8655(8) 0.4342(9)
C4 C 0.6403(13) 1.1074(9) 0.2666(9)
H6 H 0.5773 1.1813 0.2883
C5 C 0.6817(12) 1.0451(9) 0.3629(9)
H7 H 0.6496 1.0786 0.4505
C6 C 0.7704(12) 0.9335(8) 0.3295(8)
C7 C 0.8220(12) 0.8898(9) 0.1992(9)
H8 H 0.8846 0.8158 0.1746
C8 C 0.7810(12) 0.9552(8) 0.1068(9)
H9 H 0.8156 0.9261 0.0195
Mo1A Mo 0.29866(9) 0.69249(7) 1.13611(6)
Mo2A Mo 0.00135(8) 0.41069(6) 1.12081(6)
Mo3A Mo 0.50098(8) 0.42555(7) 1.13678(6)
O1A O 0.2512(7) 0.4634(5) 1.1209(5)
O2A O 0.0418(6) 0.6248(5) 1.0922(5)
O3A O 0.5160(7) 0.6249(5) 1.0893(5)
O4A O 0.3091(7) 0.7349(6) 1.3088(5)
O5A O 0.2601(7) 0.5893(5) 0.9118(5)
O6A O 0.3261(8) 0.8499(6) 1.1017(6)
O7A O -0.0195(7) 0.4793(6) 1.2926(5)
O8A O 0.0018(7) 0.2389(6) 1.1001(5)
O9A O 0.4244(7) 0.2565(6) 1.1279(6)
O10A O 0.5499(7) 0.5058(6) 1.3054(5)
N1A N 1.1133(10) 0.2515(7) 0.5955(7)
N2A N 1.0954(10) 0.2928(7) 0.4848(7)
N3A N 1.3093(9) -0.0615(7) 0.8569(7)
H1A H 1.3355 -0.1015 0.9160
C1A C 1.1614(13) 0.2031(9) 0.3866(9)
H4A H 1.1679 0.2084 0.2988
C2A C 1.2183(12) 0.1021(9) 0.4324(9)
H5A H 1.2668 0.0265 0.3826
C3A C 1.1895(11) 0.1345(8) 0.5658(9)
C4A C 1.3597(13) -0.1074(9) 0.7334(9)
H6A H 1.4227 -0.1813 0.7117
C5A C 1.3183(12) -0.0451(9) 0.6371(9)
H7A H 1.3504 -0.0786 0.5495
C6A C 1.2296(12) 0.0665(8) 0.6705(8)
C7A C 1.1780(12) 0.1102(9) 0.8008(9)
H8A H 1.1154 0.1842 0.8254
C8A C 1.2190(12) 0.0448(8) 0.8932(9)
H9A H 1.1844 0.0739 0.9805
O11A O 1.2773(7) 0.5977(6) 0.5093(6)
H2A H 1.3496 0.5530 0.5356
H3A H 1.3066 0.6132 0.4359
Mo2_2 Mo -0.00135(8) 0.58931(6) 0.87919(6)
Mo2A_2 Mo 1.00135(8) 0.41069(6) 1.12081(6)
Mn1_2 Mn 0.0000 0.5000 1.5000
O2_2 O -0.0418(6) 0.3752(5) 0.9078(5)
O2A_2 O 1.0418(6) 0.6248(5) 1.0922(5)
O5_2 O -0.2601(7) 0.4107(5) 1.0882(5)
O5A_2 O 1.2601(7) 0.5893(5) 0.9118(5)
O7A_2 O 0.9805(7) 0.4793(6) 0.2926(5)
loop_
_geom_bond_atom_site_label_1
_geom_bond_atom_site_label_2
_geom_bond_site_symmetry_1
_geom_bond_site_symmetry_2
Mo1 O1 1_555 1_555
Mo2 O1 1_555 1_555
Mo3 O1 1_555 1_555
Mn1 N2 1_555 1_555
N1 N2 1_555 1_555
N2 C1 1_555 1_555
N3 H1 1_555 1_555
O2 Mo1 1_555 1_555
O3 Mo1 1_555 1_555
O4 Mo1 1_555 1_555
O5 Mo1 1_555 1_555
O6 Mo1 1_555 1_555
O7 Mo2 1_555 1_555
O8 Mo2 1_555 1_555
O9 Mo3 1_555 1_555
O10 Mo3 1_555 1_555
O11 Mn1 1_555 1_555
H2 O11 1_555 1_555
H3 O11 1_555 1_555
C1 H4 1_555 1_555
C2 C1 1_555 1_555
H5 C2 1_555 1_555
C3 N1 1_555 1_555
C4 N3 1_555 1_555
H6 C4 1_555 1_555
C5 C4 1_555 1_555
H7 C5 1_555 1_555
C6 C3 1_555 1_555
C7 C6 1_555 1_555
H8 C7 1_555 1_555
C8 N3 1_555 1_555
H9 C8 1_555 1_555
Mo1A O1A 1_555 1_555
Mo2A O1A 1_555 1_555
Mo3A O3 1_555 1_555
O1A Mo3A 1_555 1_555
O2A Mo1A 1_555 1_555
O3A Mo3 1_555 1_555
O4A Mo1A 1_555 1_555
O5A Mo3 1_555 1_555
O6A Mo1A 1_555 1_555
O7A Mo2A 1_555 1_555
O8A Mo2A 1_555 1_555
O9A Mo3A 1_555 1_555
O10A Mo3A 1_555 1_555
N1A N2A 1_555 1_555
N2A Mn1 1_555 1_555
N3A H1A 1_555 1_555
C1A N2A 1_555 1_555
H4A C1A 1_555 1_555
C2A C1A 1_555 1_555
H5A C2A 1_555 1_555
C3A N1A 1_555 1_555
C4A N3A 1_555 1_555
H6A C4A 1_555 1_555
C5A C4A 1_555 1_555
H7A C5A 1_555 1_555
C6A C3A 1_555 1_555
C7A C6A 1_555 1_555
H8A C7A 1_555 1_555
C8A N3A 1_555 1_555
H9A C8A 1_555 1_555
O11A Mn1 1_555 1_555
H2A O11A 1_555 1_555
H3A O11A 1_555 1_555
Mo2_2 O2A 1_555 1_555
Mo2A_2 O2 1_555 1_555
Mn1_2 O7A 1_555 1_555
O2_2 Mo2A 1_555 1_555
O2A_2 Mo2 1_555 1_555
O5_2 Mo2A 1_555 1_555
O5A_2 Mo2 1_555 1_555
O7A_2 Mn1 1_555 1_555
Mo2 O2 1_555 1_555
Mo3 O3 1_555 1_555
Mn1 O7 1_555 1_555
O5 Mo3A 1_555 1_555
O5 Mo2A_2 1_555 1_555
C2 C3 1_555 1_555
C5 C6 1_555 1_555
C7 C8 1_555 1_555
Mo1A O3A 1_555 1_555
Mo1A O5A 1_555 1_555
Mo2A O2A 1_555 1_555
Mo3A O3A 1_555 1_555
O5A Mo2_2 1_555 1_555
C2A C3A 1_555 1_555
C5A C6A 1_555 1_555
C7A C8A 1_555 1_555
Mo2_2 O2_2 1_555 1_555
Mo2A_2 O2A_2 1_555 1_555

#END
