
#######################################################################
#
#                 Cambridge Crystallographic Data Centre
#                                CCDC 
#
#######################################################################
#
# If this CIF has been generated from an entry in the Cambridge 
# Structural Database, then it will include bibliographic, chemical, 
# crystal, experimental, refinement or atomic coordinate data resulting 
# from the CCDC's data processing and validation procedures.
#
#######################################################################

data_LOJPEH
_symmetry_cell_setting           triclinic
_symmetry_space_group_name_H-M   'P -1'
_symmetry_Int_Tables_number      2
_space_group_name_Hall           '-P 1'
loop_
_symmetry_equiv_pos_site_id
_symmetry_equiv_pos_as_xyz
1 x,y,z
2 -x,-y,-z
_cell_length_a                   7.5755(6)
_cell_length_b                   9.9208(8)
_cell_length_c                   10.2918(9)
_cell_angle_alpha                105.551(2)
_cell_angle_beta                 92.0130(10)
_cell_angle_gamma                99.0090(10)
_cell_volume                     733.552
loop_
_atom_site_label
_atom_site_type_symbol
_atom_site_fract_x
_atom_site_fract_y
_atom_site_fract_z
Mo1 Mo 0.19928(12) -0.19342(9) 0.36542(9)
Mo2 Mo 0.50129(11) -0.09070(9) 0.62239(9)
Mo3 Mo -0.00133(11) 0.07590(9) 0.36222(9)
Cu1 Cu 0.5000 0.0000 1.0000
N1 N 0.3977(13) 0.2336(9) 0.9033(9)
H1 H 0.4332 0.1966 0.8253
N2 N 0.4108(13) 0.1831(10) 1.0101(9)
N3 N 0.1927(13) 0.5579(10) 0.6473(9)
H2 H 0.1613 0.5990 0.5887
O1 O 0.4566(10) -0.1226(7) 0.4069(7)
O2 O 0.2427(9) -0.0907(8) 0.5892(7)
O3 O 0.2456(9) 0.0370(7) 0.3804(7)
O4 O -0.0170(10) -0.1266(7) 0.4156(8)
O5 O 0.1737(10) -0.3523(8) 0.4039(8)
O6 O 0.1863(11) -0.2381(8) 0.1929(7)
O7 O 0.4898(10) -0.0303(8) 0.7957(7)
O8 O 0.5031(10) -0.2652(7) 0.5964(8)
O9 O 0.0730(10) 0.2473(8) 0.3672(8)
O10 O -0.0509(11) -0.0066(9) 0.1959(8)
O11 O 0.2215(12) -0.1058(8) 0.9872(8)
H3 H 0.1480 -0.0610 0.9595
H4 H 0.1911 -0.1225 1.0608
C1 C 0.3458(17) 0.2689(12) 1.1094(12)
H5 H 0.3398 0.2598 1.1968
C2 C 0.2874(17) 0.3750(13) 1.0646(12)
H6 H 0.2350 0.4488 1.1150
C3 C 0.3213(15) 0.3505(11) 0.9342(11)
C4 C 0.2808(16) 0.4527(12) 0.6100(12)
H7 H 0.3118 0.4247 0.5213
C5 C 0.3280(16) 0.3832(12) 0.7018(11)
H8 H 0.3933 0.3098 0.6753
C6 C 0.2797(15) 0.4215(11) 0.8314(11)
C7 C 0.1900(17) 0.5382(12) 0.8678(12)
H9 H 0.1586 0.5701 0.9560
C8 C 0.1500(18) 0.6031(13) 0.7756(13)
H10 H 0.0918 0.6809 0.8004
Mo1A Mo -0.19928(12) 0.19342(9) 0.63458(9)
Mo2A Mo -0.50129(11) 0.09070(9) 0.37761(9)
Mo3A Mo 0.00133(11) -0.07590(9) 0.63778(9)
O1A O -0.4566(10) 0.1226(7) 0.5931(7)
O2A O -0.2427(9) 0.0907(8) 0.4108(7)
O3A O -0.2456(9) -0.0370(7) 0.6196(7)
O4A O 0.0170(10) 0.1266(7) 0.5844(8)
O5A O -0.1737(10) 0.3523(8) 0.5961(8)
O6A O -0.1863(11) 0.2381(8) 0.8071(7)
O7A O -0.4898(10) 0.0303(8) 0.2043(7)
O8A O -0.5031(10) 0.2652(7) 0.4036(8)
O9A O -0.0730(10) -0.2473(8) 0.6328(8)
O10A O 0.0509(11) 0.0066(9) 0.8041(8)
N1A N 0.6023(13) -0.2336(9) 1.0967(9)
H1A H 0.5668 -0.1966 1.1747
N2A N 0.5892(13) -0.1831(10) 0.9899(9)
N3A N 0.8073(13) -0.5579(10) 1.3527(9)
H2A H 0.8387 -0.5990 1.4113
C1A C 0.6542(17) -0.2689(12) 0.8906(12)
H5A H 0.6602 -0.2598 0.8032
C2A C 0.7126(17) -0.3750(13) 0.9354(12)
H6A H 0.7650 -0.4488 0.8850
C3A C 0.6787(15) -0.3505(11) 1.0658(11)
C4A C 0.7192(16) -0.4527(12) 1.3900(12)
H7A H 0.6882 -0.4247 1.4787
C5A C 0.6720(16) -0.3832(12) 1.2982(11)
H8A H 0.6067 -0.3098 1.3247
C6A C 0.7203(15) -0.4215(11) 1.1686(11)
C7A C 0.8100(17) -0.5382(12) 1.1322(12)
H9A H 0.8414 -0.5701 1.0440
C8A C 0.8500(18) -0.6031(13) 1.2244(13)
H10A H 0.9082 -0.6809 1.1996
O11A O 0.7785(12) 0.1058(8) 1.0128(8)
H3A H 0.8520 0.0610 1.0405
H4A H 0.8089 0.1225 0.9392
Mo2_2 Mo -0.49871(11) -0.09070(9) 0.62239(9)
Mo2A_2 Mo 0.49871(11) 0.09070(9) 0.37761(9)
Cu1_2 Cu -0.5000 0.0000 0.0000
O1_2 O -0.5434(10) -0.1226(7) 0.4069(7)
O1A_2 O 0.5434(10) 0.1226(7) 0.5931(7)
O3_2 O -0.7544(9) 0.0370(7) 0.3804(7)
O3A_2 O 0.7544(9) -0.0370(7) 0.6196(7)
O7A_2 O 0.5102(10) 0.0303(8) 1.2043(7)
loop_
_geom_bond_atom_site_label_1
_geom_bond_atom_site_label_2
_geom_bond_site_symmetry_1
_geom_bond_site_symmetry_2
Mo1 O1 1_555 1_555
Mo2 O1 1_555 1_555
Mo3 O3 1_555 1_555
Cu1 N2 1_555 1_555
N1 H1 1_555 1_555
N2 N1 1_555 1_555
N3 H2 1_555 1_555
O1 Mo2A_2 1_555 1_555
O2 Mo1 1_555 1_555
O3 Mo1 1_555 1_555
O4 Mo1 1_555 1_555
O5 Mo1 1_555 1_555
O6 Mo1 1_555 1_555
O7 Mo2 1_555 1_555
O8 Mo2 1_555 1_555
O9 Mo3 1_555 1_555
O10 Mo3 1_555 1_555
O11 Cu1 1_555 1_555
H3 O11 1_555 1_555
H4 O11 1_555 1_555
C1 N2 1_555 1_555
H5 C1 1_555 1_555
C2 C1 1_555 1_555
H6 C2 1_555 1_555
C3 N1 1_555 1_555
C4 N3 1_555 1_555
H7 C4 1_555 1_555
C5 C4 1_555 1_555
H8 C5 1_555 1_555
C6 C3 1_555 1_555
C7 C6 1_555 1_555
H9 C7 1_555 1_555
C8 N3 1_555 1_555
H10 C8 1_555 1_555
Mo1A O1A 1_555 1_555
Mo2A O1A 1_555 1_555
Mo3A O2 1_555 1_555
O1A Mo2_2 1_555 1_555
O2A Mo3 1_555 1_555
O3A Mo1A 1_555 1_555
O4A Mo3 1_555 1_555
O5A Mo1A 1_555 1_555
O6A Mo1A 1_555 1_555
O7A Mo2A 1_555 1_555
O8A Mo2A 1_555 1_555
O9A Mo3A 1_555 1_555
O10A Mo3A 1_555 1_555
N1A H1A 1_555 1_555
N2A Cu1 1_555 1_555
N3A H2A 1_555 1_555
C1A N2A 1_555 1_555
H5A C1A 1_555 1_555
C2A C1A 1_555 1_555
H6A C2A 1_555 1_555
C3A N1A 1_555 1_555
C4A N3A 1_555 1_555
H7A C4A 1_555 1_555
C5A C4A 1_555 1_555
H8A C5A 1_555 1_555
C6A C3A 1_555 1_555
C7A C6A 1_555 1_555
H9A C7A 1_555 1_555
C8A N3A 1_555 1_555
H10A C8A 1_555 1_555
O11A Cu1 1_555 1_555
H3A O11A 1_555 1_555
H4A O11A 1_555 1_555
Mo2_2 O3A 1_555 1_555
Mo2A_2 O3 1_555 1_555
Cu1_2 O7A 1_555 1_555
O1_2 Mo2A 1_555 1_555
O1A_2 Mo2 1_555 1_555
O3_2 Mo2A 1_555 1_555
O3A_2 Mo2 1_555 1_555
O7A_2 Cu1 1_555 1_555
Mo2 O2 1_555 1_555
Mo3 O4 1_555 1_555
Cu1 O7 1_555 1_555
O4 Mo3A 1_555 1_555
C2 C3 1_555 1_555
C5 C6 1_555 1_555
C7 C8 1_555 1_555
Mo1A O2A 1_555 1_555
Mo1A O4A 1_555 1_555
Mo2A O2A 1_555 1_555
Mo3A O3A 1_555 1_555
Mo3A O4A 1_555 1_555
N1A N2A 1_555 1_555
C2A C3A 1_555 1_555
C5A C6A 1_555 1_555
C7A C8A 1_555 1_555
Mo2_2 O1_2 1_555 1_555
Mo2A_2 O1A_2 1_555 1_555

#END
