
#######################################################################
#
#                 Cambridge Crystallographic Data Centre
#                                CCDC 
#
#######################################################################
#
# If this CIF has been generated from an entry in the Cambridge 
# Structural Database, then it will include bibliographic, chemical, 
# crystal, experimental, refinement or atomic coordinate data resulting 
# from the CCDC's data processing and validation procedures.
#
#######################################################################

data_LOJPAD
_symmetry_cell_setting           triclinic
_symmetry_space_group_name_H-M   'P -1'
_symmetry_Int_Tables_number      2
_space_group_name_Hall           '-P 1'
loop_
_symmetry_equiv_pos_site_id
_symmetry_equiv_pos_as_xyz
1 x,y,z
2 -x,-y,-z
_cell_length_a                   7.6177(5)
_cell_length_b                   10.0632(6)
_cell_length_c                   10.2539(8)
_cell_angle_alpha                105.844(2)
_cell_angle_beta                 91.8560(10)
_cell_angle_gamma                99.0400(10)
_cell_volume                     744.444
loop_
_atom_site_label
_atom_site_type_symbol
_atom_site_fract_x
_atom_site_fract_y
_atom_site_fract_z
Mo1 Mo 0.29952(9) 1.19128(8) 0.63832(8)
Mo2 Mo 0.00106(9) 1.09116(8) 0.37757(7)
Mo3 Mo 0.49863(9) 0.92265(8) 0.63755(8)
Ni1 Ni 0.0000 1.0000 0.0000
N1 N 0.1073(10) 0.7621(8) 0.0980(8)
H1 H 0.0741 0.8007 0.1767
N2 N 0.0892(10) 0.8101(8) -0.0115(8)
N3 N 0.3099(10) 0.4388(8) 0.3538(8)
H2 H 0.3401 0.3980 0.4126
O1 O 0.2587(7) 1.0899(7) 0.4110(6)
O2 O 0.0416(7) 1.1220(6) 0.5959(6)
O3 O 0.2527(7) 0.9619(6) 0.6213(6)
O4 O 0.5174(8) 1.1258(7) 0.5899(6)
O5 O 0.3138(8) 1.2334(7) 0.8126(7)
O6 O 0.3263(8) 1.3496(7) 0.6030(7)
O7 O 0.0109(8) 1.0311(7) 0.2016(6)
O8 O -0.0014(8) 1.2648(7) 0.4074(7)
O9 O 0.5489(8) 1.0034(7) 0.8063(7)
O10 O 0.4266(8) 0.7516(7) 0.6293(7)
O11 O 0.2609(8) 1.0973(7) 0.0127(7)
H3 H 0.2909 1.1138 -0.0612
H4 H 0.3338 1.0529 0.0400
C1 C 0.1541(14) 0.7214(11) -0.1121(10)
H5 H 0.1595 0.7285 -0.2005
C2 C 0.2122(14) 0.6173(12) -0.0667(10)
H6 H 0.2609 0.5428 -0.1185
C3 C 0.1849(12) 0.6443(10) 0.0687(10)
C4 C 0.2182(13) 0.5409(11) 0.3909(11)
H7 H 0.1826 0.5649 0.4790
C5 C 0.1734(13) 0.6139(11) 0.3015(10)
H8 H 0.1110 0.6878 0.3291
C6 C 0.2243(12) 0.5733(10) 0.1693(9)
C7 C 0.3154(13) 0.4605(10) 0.1335(11)
H9 H 0.3473 0.4291 0.0450
C8 C 0.3573(14) 0.3967(11) 0.2273(11)
H10 H 0.4200 0.3225 0.2033
Mo1A Mo -0.29952(9) 0.80872(8) -0.63832(8)
Mo2A Mo -0.00106(9) 0.90884(8) -0.37757(7)
Mo3A Mo -0.49863(9) 1.07735(8) -0.63755(8)
N1A N -0.1073(10) 1.2379(8) -0.0980(8)
H1A H -0.0741 1.1993 -0.1767
N2A N -0.0892(10) 1.1899(8) 0.0115(8)
N3A N -0.3099(10) 1.5612(8) -0.3538(8)
H2A H -0.3401 1.6020 -0.4126
O1A O -0.2587(7) 0.9101(7) -0.4110(6)
O2A O -0.0416(7) 0.8780(6) -0.5959(6)
O3A O -0.2527(7) 1.0381(6) -0.6213(6)
O4A O -0.5174(8) 0.8742(7) -0.5899(6)
O5A O -0.3138(8) 0.7666(7) -0.8126(7)
O6A O -0.3263(8) 0.6504(7) -0.6030(7)
O7A O -0.0109(8) 0.9689(7) -0.2016(6)
O8A O 0.0014(8) 0.7352(7) -0.4074(7)
O9A O -0.5489(8) 0.9966(7) -0.8063(7)
O10A O -0.4266(8) 1.2484(7) -0.6293(7)
O11A O -0.2609(8) 0.9027(7) -0.0127(7)
H3A H -0.2909 0.8862 0.0612
H4A H -0.3338 0.9471 -0.0400
C1A C -0.1541(14) 1.2786(11) 0.1121(10)
H5A H -0.1595 1.2715 0.2005
C2A C -0.2122(14) 1.3827(12) 0.0667(10)
H6A H -0.2609 1.4572 0.1185
C3A C -0.1849(12) 1.3557(10) -0.0687(10)
C4A C -0.2182(13) 1.4591(11) -0.3909(11)
H7A H -0.1826 1.4351 -0.4790
C5A C -0.1734(13) 1.3861(11) -0.3015(10)
H8A H -0.1110 1.3122 -0.3291
C6A C -0.2243(12) 1.4267(10) -0.1693(9)
C7A C -0.3154(13) 1.5395(10) -0.1335(11)
H9A H -0.3473 1.5709 -0.0450
C8A C -0.3573(14) 1.6033(11) -0.2273(11)
H10A H -0.4200 1.6775 -0.2033
Mo2_2 Mo 0.00106(9) 1.09116(8) -0.62243(7)
Mo2A_2 Mo -0.00106(9) 0.90884(8) 0.62243(7)
Mo3_2 Mo -0.50137(9) 0.92265(8) -0.36245(8)
Mo3A_2 Mo 0.50137(9) 1.07735(8) 0.36245(8)
O1_2 O -0.7413(7) 1.0899(7) -0.5890(6)
O1A_2 O 0.7413(7) 0.9101(7) 0.5890(6)
O2_2 O 0.0416(7) 1.1220(6) -0.4041(6)
O2A_2 O -0.0416(7) 0.8780(6) 0.4041(6)
O3_2 O 0.2527(7) 0.9619(6) -0.3787(6)
O3A_2 O -0.2527(7) 1.0381(6) 0.3787(6)
O4_2 O -0.4826(8) 1.1258(7) -0.4101(6)
O4A_2 O 0.4826(8) 0.8742(7) 0.4101(6)
loop_
_geom_bond_atom_site_label_1
_geom_bond_atom_site_label_2
_geom_bond_site_symmetry_1
_geom_bond_site_symmetry_2
Mo1 O1 1_555 1_555
Mo2 O1 1_555 1_555
Mo3 O3 1_555 1_555
Ni1 N2 1_555 1_555
N1 H1 1_555 1_555
N2 N1 1_555 1_555
N3 H2 1_555 1_555
O1 Mo3A_2 1_555 1_555
O2 Mo1 1_555 1_555
O3 Mo1 1_555 1_555
O4 Mo1 1_555 1_555
O5 Mo1 1_555 1_555
O6 Mo1 1_555 1_555
O7 Mo2 1_555 1_555
O8 Mo2 1_555 1_555
O9 Mo3 1_555 1_555
O10 Mo3 1_555 1_555
O11 Ni1 1_555 1_555
H3 O11 1_555 1_555
H4 O11 1_555 1_555
C1 N2 1_555 1_555
H5 C1 1_555 1_555
C2 C1 1_555 1_555
H6 C2 1_555 1_555
C3 N1 1_555 1_555
C4 N3 1_555 1_555
H7 C4 1_555 1_555
C5 C4 1_555 1_555
H8 C5 1_555 1_555
C6 C3 1_555 1_555
C7 C6 1_555 1_555
H9 C7 1_555 1_555
C8 N3 1_555 1_555
H10 C8 1_555 1_555
Mo1A O1A 1_555 1_555
Mo2A O1A 1_555 1_555
Mo3A O3A 1_555 1_555
N1A H1A 1_555 1_555
N2A Ni1 1_555 1_555
N3A H2A 1_555 1_555
O1A Mo3_2 1_555 1_555
O2A Mo1A 1_555 1_555
O3A Mo1A 1_555 1_555
O4A Mo1A 1_555 1_555
O5A Mo1A 1_555 1_555
O6A Mo1A 1_555 1_555
O7A Ni1 1_555 1_555
O8A Mo2A 1_555 1_555
O9A Mo3A 1_555 1_555
O10A Mo3A 1_555 1_555
O11A Ni1 1_555 1_555
H3A O11A 1_555 1_555
H4A O11A 1_555 1_555
C1A N2A 1_555 1_555
H5A C1A 1_555 1_555
C2A C1A 1_555 1_555
H6A C2A 1_555 1_555
C3A N1A 1_555 1_555
C4A N3A 1_555 1_555
H7A C4A 1_555 1_555
C5A C4A 1_555 1_555
H8A C5A 1_555 1_555
C6A C3A 1_555 1_555
C7A C6A 1_555 1_555
H9A C7A 1_555 1_555
C8A N3A 1_555 1_555
H10A C8A 1_555 1_555
Mo2_2 O2A 1_555 1_555
Mo2A_2 O2 1_555 1_555
Mo3_2 O4A 1_555 1_555
Mo3A_2 O4 1_555 1_555
O1_2 Mo3A 1_555 1_555
O1A_2 Mo3 1_555 1_555
O2_2 Mo2A 1_555 1_555
O2A_2 Mo2 1_555 1_555
O3_2 Mo2A 1_555 1_555
O3A_2 Mo2 1_555 1_555
O4_2 Mo3A 1_555 1_555
O4A_2 Mo3 1_555 1_555
Mo2 O2 1_555 1_555
Mo3 O4 1_555 1_555
Ni1 O7 1_555 1_555
O3 Mo2A_2 1_555 1_555
C2 C3 1_555 1_555
C5 C6 1_555 1_555
C7 C8 1_555 1_555
Mo2A O2A 1_555 1_555
Mo2A O7A 1_555 1_555
Mo3A O4A 1_555 1_555
N1A N2A 1_555 1_555
O3A Mo2_2 1_555 1_555
C2A C3A 1_555 1_555
C5A C6A 1_555 1_555
C7A C8A 1_555 1_555
Mo2_2 O2_2 1_555 1_555
Mo2A_2 O2A_2 1_555 1_555
Mo3_2 O4_2 1_555 1_555
Mo3A_2 O4A_2 1_555 1_555

#END
