
#######################################################################
#
#                 Cambridge Crystallographic Data Centre
#                                CCDC 
#
#######################################################################
#
# If this CIF has been generated from an entry in the Cambridge 
# Structural Database, then it will include bibliographic, chemical, 
# crystal, experimental, refinement or atomic coordinate data resulting 
# from the CCDC's data processing and validation procedures.
#
#######################################################################

data_LOJQAE
_symmetry_cell_setting           monoclinic
_symmetry_space_group_name_H-M   'P 21/c'
_symmetry_Int_Tables_number      14
_space_group_name_Hall           '-P 2ybc'
loop_
_symmetry_equiv_pos_site_id
_symmetry_equiv_pos_as_xyz
1 x,y,z
2 -x,1/2+y,1/2-z
3 -x,-y,-z
4 x,1/2-y,1/2+z
_cell_length_a                   11.115(2)
_cell_length_b                   9.0645(18)
_cell_length_c                   19.081(6)
_cell_angle_alpha                90
_cell_angle_beta                 112.10(3)
_cell_angle_gamma                90
_cell_volume                     1781.2
loop_
_atom_site_label
_atom_site_type_symbol
_atom_site_fract_x
_atom_site_fract_y
_atom_site_fract_z
Cd1 Cd 0.30196(3) 0.25583(3) 0.207239(17)
O1 O 0.2862(3) 0.3392(4) 0.08283(19)
O2 O 0.4671(3) 0.3849(4) 0.17884(17)
O3 O 0.7054(4) 0.6667(5) 0.1759(2)
O4 O 0.5082(5) 0.7077(5) 0.1708(3)
O5 O 0.4352(5) 0.0565(5) 0.1831(3)
H1 H 0.4863 0.0578 0.1593
H2 H 0.4887 0.0211 0.2243
N1 N 0.2186(4) -0.5211(4) 0.2232(2)
N2 N 0.1990(6) -0.2813(5) 0.2256(3)
N3 N 0.0096(4) -0.0986(5) 0.1117(2)
H3 H -0.0373 -0.1698 0.1171
N4 N 0.1294(4) 0.1027(4) 0.1521(2)
C1 C 0.3992(5) 0.3863(6) 0.1091(3)
C2 C 0.4543(4) 0.4502(5) 0.0549(2)
C3 C 0.4211(4) 0.3793(5) -0.0143(2)
H4 H 0.3683 0.2962 -0.0237
C4 C 0.5368(4) 0.5729(5) 0.0699(2)
C5 C 0.5841(5) 0.6539(5) 0.1441(2)
C6 C 0.2459(5) -0.3953(5) 0.2002(3)
H5 H 0.2931 -0.3860 0.1693
C7 C 0.1496(7) -0.4871(6) 0.2665(4)
H6 H 0.1166 -0.5553 0.2910
C8 C 0.1362(7) -0.3389(6) 0.2684(4)
H7 H 0.0928 -0.2869 0.2939
C9 C 0.2273(6) -0.1264(6) 0.2172(4)
H8 H 0.3032 -0.1219 0.2038
H9 H 0.2494 -0.0783 0.2658
C10 C 0.1212(5) -0.0412(5) 0.1600(3)
C11 C 0.0122(5) 0.1415(5) 0.0938(3)
C12 C -0.0343(6) 0.2786(6) 0.0627(3)
H10 H 0.0154 0.3636 0.0790
C13 C -0.1559(7) 0.2839(7) 0.0071(4)
H11 H -0.1897 0.3743 -0.0143
C14 C -0.2307(6) 0.1557(7) -0.0181(3)
H12 H -0.3130 0.1636 -0.0559
C15 C -0.1859(5) 0.0194(7) 0.0113(3)
H13 H -0.2349 -0.0657 -0.0060
C16 C -0.0626(5) 0.0153(5) 0.0685(3)
O1B O 0.7138(3) 0.6608(4) -0.08283(19)
O2B O 0.5329(3) 0.6151(4) -0.17884(17)
O3B O 0.2946(4) 0.3333(5) -0.1759(2)
O4B O 0.4918(5) 0.2923(5) -0.1708(3)
C1B C 0.6008(5) 0.6137(6) -0.1091(3)
C2B C 0.5457(4) 0.5498(5) -0.0549(2)
C3B C 0.5789(4) 0.6207(5) 0.0143(2)
H4B H 0.6317 0.7038 0.0237
C4B C 0.4632(4) 0.4271(5) -0.0699(2)
C5B C 0.4159(5) 0.3461(5) -0.1441(2)
Cd1B Cd 0.69804(3) 0.74417(3) -0.207239(17)
O5B O 0.5648(5) 0.9435(5) -0.1831(3)
H1B H 0.5137 0.9422 -0.1593
H2B H 0.5113 0.9789 -0.2243
N1B N 0.7814(4) 1.5211(4) -0.2232(2)
N2B N 0.8010(6) 1.2813(5) -0.2256(3)
N3B N 0.9904(4) 1.0986(5) -0.1117(2)
H3B H 1.0373 1.1698 -0.1171
N4B N 0.8706(4) 0.8973(4) -0.1521(2)
C6B C 0.7541(5) 1.3953(5) -0.2002(3)
H5B H 0.7069 1.3860 -0.1693
C7B C 0.8504(7) 1.4871(6) -0.2665(4)
H6B H 0.8834 1.5553 -0.2910
C8B C 0.8638(7) 1.3389(6) -0.2684(4)
H7B H 0.9072 1.2869 -0.2939
C9B C 0.7727(6) 1.1264(6) -0.2172(4)
H8B H 0.6968 1.1219 -0.2038
H9B H 0.7506 1.0783 -0.2658
C10B C 0.8788(5) 1.0412(5) -0.1600(3)
C11B C 0.9878(5) 0.8585(5) -0.0938(3)
C12B C 1.0343(6) 0.7214(6) -0.0627(3)
H10B H 0.9846 0.6364 -0.0790
C13B C 1.1559(7) 0.7161(7) -0.0071(4)
H11B H 1.1897 0.6257 0.0143
C14B C 1.2307(6) 0.8443(7) 0.0181(3)
H12B H 1.3130 0.8364 0.0559
C15B C 1.1859(5) 0.9806(7) -0.0113(3)
H13B H 1.2349 1.0657 0.0060
C16B C 1.0626(5) 0.9847(5) -0.0685(3)
Cd1_2 Cd 0.30196(3) -0.74417(3) 0.207239(17)
Cd1A Cd 0.69804(3) 0.75583(3) 0.292761(17)
Cd1B_2 Cd 0.69804(3) 1.74417(3) -0.207239(17)
Cd1C Cd 0.30196(3) 0.24417(3) -0.292761(17)
O3A O 0.2946(4) 0.1667(5) 0.3241(2)
O3C O 0.7054(4) 0.8333(5) -0.3241(2)
O4A O 0.4918(5) 0.2077(5) 0.3292(3)
O4C O 0.5082(5) 0.7923(5) -0.3292(3)
N1_2 N 0.2186(4) 0.4789(4) 0.2232(2)
N1B_2 N 0.7814(4) 0.5211(4) -0.2232(2)
O6 O 0.1107(5) 0.1319(5) 0.4110(4)
H14 H 0.1194 0.1439 0.4568
H15 H 0.1702 0.1354 0.3932
O7 O 0.5593(9) 0.0448(13) 0.0794(6)
H16 H 0.4885 0.0347 0.0863
H17 H 0.5245 0.0191 0.0333
loop_
_geom_bond_atom_site_label_1
_geom_bond_atom_site_label_2
_geom_bond_site_symmetry_1
_geom_bond_site_symmetry_2
Cd1 O1 1_555 1_555
O1 C1 1_555 1_555
O2 Cd1 1_555 1_555
O3 C5 1_555 1_555
O4 C5 1_555 1_555
O5 Cd1 1_555 1_555
H1 O5 1_555 1_555
H2 O5 1_555 1_555
N1 C6 1_555 1_555
N2 C6 1_555 1_555
N3 H3 1_555 1_555
N4 Cd1 1_555 1_555
C1 O2 1_555 1_555
C2 C1 1_555 1_555
C3 C2 1_555 1_555
H4 C3 1_555 1_555
C4 C2 1_555 1_555
C5 C4 1_555 1_555
C6 H5 1_555 1_555
C7 N1 1_555 1_555
H6 C7 1_555 1_555
C8 N2 1_555 1_555
H7 C8 1_555 1_555
C9 N2 1_555 1_555
H8 C9 1_555 1_555
H9 C9 1_555 1_555
C10 N3 1_555 1_555
C11 N4 1_555 1_555
C12 C11 1_555 1_555
H10 C12 1_555 1_555
C13 C12 1_555 1_555
H11 C13 1_555 1_555
C14 C13 1_555 1_555
H12 C14 1_555 1_555
C15 C14 1_555 1_555
H13 C15 1_555 1_555
C16 N3 1_555 1_555
O6 H14 1_555 1_555
H15 O6 1_555 1_555
O7 H16 1_555 1_555
H17 O7 1_555 1_555
O1B C1B 1_555 1_555
O2B C1B 1_555 1_555
O3B C5B 1_555 1_555
O4B C5B 1_555 1_555
C1B C2B 1_555 1_555
C2B C3B 1_555 1_555
C3B C4 1_555 1_555
H4B C3B 1_555 1_555
C4B C3 1_555 1_555
C5B C4B 1_555 1_555
Cd1B O1B 1_555 1_555
O5B Cd1B 1_555 1_555
H1B O5B 1_555 1_555
H2B O5B 1_555 1_555
N1B C6B 1_555 1_555
N2B C6B 1_555 1_555
N3B H3B 1_555 1_555
N4B Cd1B 1_555 1_555
C6B H5B 1_555 1_555
C7B N1B 1_555 1_555
H6B C7B 1_555 1_555
C8B N2B 1_555 1_555
H7B C8B 1_555 1_555
C9B N2B 1_555 1_555
H8B C9B 1_555 1_555
H9B C9B 1_555 1_555
C10B N3B 1_555 1_555
C11B N4B 1_555 1_555
C12B C11B 1_555 1_555
H10B C12B 1_555 1_555
C13B C12B 1_555 1_555
H11B C13B 1_555 1_555
C14B C13B 1_555 1_555
H12B C14B 1_555 1_555
C15B C14B 1_555 1_555
H13B C15B 1_555 1_555
C16B N3B 1_555 1_555
Cd1_2 N1 1_555 1_555
Cd1A O3 1_555 1_555
Cd1B_2 N1B 1_555 1_555
Cd1C O3B 1_555 1_555
O3A Cd1 1_555 1_555
O3C Cd1B 1_555 1_555
O4A Cd1 1_555 1_555
O4C Cd1B 1_555 1_555
N1_2 Cd1 1_555 1_555
N1B_2 Cd1B 1_555 1_555
O4 Cd1A 1_555 1_555
N4 C10 1_555 1_555
C7 C8 1_555 1_555
C9 C10 1_555 1_555
C11 C16 1_555 1_555
C15 C16 1_555 1_555
O2B Cd1B 1_555 1_555
O4B Cd1C 1_555 1_555
C2B C4B 1_555 1_555
N4B C10B 1_555 1_555
C7B C8B 1_555 1_555
C9B C10B 1_555 1_555
C11B C16B 1_555 1_555
C15B C16B 1_555 1_555

#END
