
#######################################################################
#
#                 Cambridge Crystallographic Data Centre
#                                CCDC 
#
#######################################################################
#
# If this CIF has been generated from an entry in the Cambridge 
# Structural Database, then it will include bibliographic, chemical, 
# crystal, experimental, refinement or atomic coordinate data resulting 
# from the CCDC's data processing and validation procedures.
#
#######################################################################

data_LOJSUA
_symmetry_cell_setting           monoclinic
_symmetry_space_group_name_H-M   'P 21/c'
_symmetry_Int_Tables_number      14
_space_group_name_Hall           '-P 2ybc'
loop_
_symmetry_equiv_pos_site_id
_symmetry_equiv_pos_as_xyz
1 x,y,z
2 -x,1/2+y,1/2-z
3 -x,-y,-z
4 x,1/2-y,1/2+z
_cell_length_a                   15.864(3)
_cell_length_b                   15.159(3)
_cell_length_c                   25.011(5)
_cell_angle_alpha                90
_cell_angle_beta                 94.514(2)
_cell_angle_gamma                90
_cell_volume                     5996.05
loop_
_atom_site_label
_atom_site_type_symbol
_atom_site_fract_x
_atom_site_fract_y
_atom_site_fract_z
Cu1 Cu 1.13948(3) 0.89532(3) 0.163866(18)
Si1 Si 0.71303(5) 0.89870(6) 0.13827(3)
Mo1 Mo 0.922412(18) 0.860900(19) 0.107451(11)
Mo2 Mo 0.871604(18) 1.009627(19) 0.217869(11)
Mo3 Mo 0.813473(18) 1.074410(19) 0.075835(12)
Mo4 Mo 0.768820(19) 0.730627(19) 0.048570(12)
Mo5 Mo 0.828500(19) 0.710169(19) 0.180080(12)
Mo6 Mo 0.745278(19) 0.86613(2) 0.277738(11)
Mo7 Mo 0.669503(19) 1.061581(19) 0.233703(12)
Mo8 Mo 0.603921(18) 1.087223(19) 0.087536(12)
Mo9 Mo 0.680210(18) 0.94530(2) -0.000367(11)
Mo10 Mo 0.543578(19) 0.78791(2) 0.065479(12)
Mo11 Mo 0.596376(19) 0.72543(2) 0.192015(12)
Mo12 Mo 0.499232(18) 0.92041(2) 0.167549(12)
C1 C 1.1039(2) 1.0310(2) 0.08147(14)
H1 H 1.1046 0.9837 0.0579
C2 C 1.0696(2) 1.1099(2) 0.06241(14)
H2 H 1.0481 1.1148 0.0268
C3 C 1.1401(2) 1.0910(2) 0.16351(15)
H3 H 1.1669 1.0857 0.1978
C4 C 1.1070(2) 1.1724(2) 0.14807(14)
H4 H 1.1111 1.2199 0.1716
C5 C 1.0674(2) 1.1821(2) 0.09684(14)
C6 C 1.0214(2) 1.2627(2) 0.07932(13)
C7 C 0.9712(2) 1.3232(2) 0.10454(13)
C8 C 0.9489(2) 1.3321(2) 0.16050(13)
C9 C 0.9497(2) 1.2644(2) 0.19774(14)
H5 H 0.9649 1.2077 0.1880
C10 C 0.9280(2) 1.2807(2) 0.24936(14)
H6 H 0.9295 1.2340 0.2735
C11 C 0.9029(2) 1.4257(2) 0.22980(14)
H7 H 0.8870 1.4817 0.2403
C12 C 0.9228(2) 1.4145(2) 0.17812(14)
H8 H 0.9190 1.4619 0.1545
C13 C 0.9643(2) 1.3596(2) 0.02121(13)
C14 C 0.9424(2) 1.4057(2) -0.02899(14)
C15 C 0.8875(2) 1.4783(2) -0.02971(14)
H9 H 0.8653 1.4969 0.0017
C16 C 0.8667(2) 1.5217(2) -0.07731(15)
H10 H 0.8307 1.5702 -0.0781
C17 C 0.9512(2) 1.4252(2) -0.12355(14)
H11 H 0.9720 1.4080 -0.1557
C18 C 0.9748(2) 1.3799(2) -0.07722(14)
H12 H 1.0120 1.3325 -0.0778
C19 C 1.2663(2) 0.8491(2) 0.09368(14)
H13 H 1.2708 0.9100 0.0903
C20 C 1.2950(2) 0.7970(2) 0.05389(14)
H14 H 1.3180 0.8225 0.0245
C21 C 1.2299(2) 0.7281(2) 0.14210(15)
H15 H 1.2085 0.7041 0.1724
C22 C 1.2577(2) 0.6720(2) 0.10462(15)
H16 H 1.2556 0.6113 0.1100
C23 C 1.2893(2) 0.7057(2) 0.05806(14)
C24 C 1.3119(2) 0.6486(2) 0.01369(14)
C25 C 1.3471(2) 0.5651(2) 0.01067(15)
C26 C 1.3874(2) 0.5087(2) 0.05253(15)
C27 C 1.4176(2) 0.5392(3) 0.10272(15)
H17 H 1.4133 0.5987 0.1111
C28 C 1.4539(2) 0.4814(3) 0.13993(16)
H18 H 1.4730 0.5017 0.1738
C29 C 1.4361(3) 0.3649(3) 0.07941(18)
H19 H 1.4434 0.3054 0.0719
C30 C 1.3988(3) 0.4192(3) 0.04064(16)
H20 H 1.3813 0.3970 0.0069
C31 C 1.3152(2) 0.6068(2) -0.07037(14)
C32 C 1.3059(2) 0.6080(2) -0.12914(15)
C33 C 1.3226(3) 0.5304(3) -0.15648(16)
H21 H 1.3344 0.4784 -0.1376
C34 C 1.3215(3) 0.5314(3) -0.21129(16)
H22 H 1.3333 0.4803 -0.2299
C35 C 1.2840(3) 0.6809(3) -0.21361(16)
H23 H 1.2700 0.7312 -0.2337
C36 C 1.2846(3) 0.6834(3) -0.15852(15)
H24 H 1.2709 0.7351 -0.1412
N1 N 1.13593(19) 1.0192(2) 0.13197(12)
N2 N 0.90492(19) 1.36087(19) 0.26637(11)
N3 N 0.93588(18) 1.38223(19) 0.06775(11)
N4 N 1.01605(18) 1.28798(18) 0.02681(11)
H25 H 1.0411 1.2630 0.0016
N5 N 0.8984(2) 1.4940(2) -0.12275(12)
H26 H 0.8844 1.5215 -0.1522
N6 N 1.23199(19) 0.81663(19) 0.13736(12)
N7 N 1.4620(2) 0.3964(2) 0.12785(14)
H27 H 1.4844 0.3610 0.1518
N8 N 1.3476(2) 0.5402(2) -0.04208(12)
N9 N 1.2934(2) 0.6743(2) -0.03835(11)
H28 H 1.2720 0.7240 -0.0489
N10 N 1.3033(2) 0.6069(2) -0.23802(13)
H29 H 1.3043 0.6072 -0.2724
O1 O 1.02836(14) 0.86042(16) 0.10167(10)
O2 O 0.95618(15) 1.06845(16) 0.24241(10)
O3 O 0.88106(16) 1.14681(16) 0.05167(10)
O4 O 0.88582(14) 0.96240(15) 0.07560(9)
O5 O 0.88810(14) 0.78306(15) 0.05222(9)
O6 O 0.92705(14) 0.75542(15) 0.15732(9)
O7 O 0.91773(14) 0.92542(15) 0.17686(9)
O8 O 0.85479(14) 0.93984(15) 0.27752(9)
O9 O 0.78300(15) 1.09234(15) 0.24324(9)
O10 O 0.71844(14) 1.14539(15) 0.07725(9)
O11 O 0.76846(14) 1.02639(15) 0.00565(9)
O12 O 0.84338(15) 1.07302(15) 0.14838(9)
O13 O 0.78119(16) 0.66514(16) -0.00455(10)
O14 O 0.80597(15) 0.65968(15) 0.10492(9)
O15 O 0.86298(17) 0.61541(16) 0.20902(10)
O16 O 0.81676(14) 0.78252(15) 0.23723(9)
O17 O 0.69168(15) 0.97103(15) 0.29165(9)
O18 O 0.62619(15) 1.13859(16) 0.27160(10)
O19 O 0.64850(14) 1.10246(15) 0.16590(9)
O20 O 0.54773(16) 1.18113(16) 0.08103(10)
O21 O 0.60423(14) 1.04753(15) 0.01851(9)
O22 O 0.65572(16) 0.94591(17) -0.06707(9)
O23 O 0.70643(13) 0.97538(14) 0.09274(8)
O24 O 0.78431(13) 0.82683(14) 0.12333(8)
O25 O 0.74122(13) 0.94222(14) 0.19671(8)
O26 O 0.74328(14) 0.84649(15) 0.01060(9)
O27 O 0.76708(17) 0.82849(17) 0.34088(10)
O28 O 0.65593(15) 0.72731(15) 0.05643(9)
O29 O 0.70337(15) 0.69052(15) 0.18018(9)
O30 O 0.65598(15) 0.80213(15) 0.25153(9)
O31 O 0.58511(14) 0.87569(15) 0.02487(9)
O32 O 0.62197(13) 0.85022(14) 0.14053(9)
O33 O 0.56761(15) 0.98218(15) 0.21606(9)
O34 O 0.53073(14) 1.00895(16) 0.11384(9)
O35 O 0.48198(16) 0.72861(17) 0.02101(10)
O36 O 0.54411(15) 0.69923(16) 0.12635(10)
O37 O 0.56347(16) 0.64246(17) 0.23024(10)
O38 O 0.50395(14) 0.81255(16) 0.20319(9)
O39 O 0.40102(15) 0.95507(17) 0.17963(10)
O40 O 0.46637(14) 0.85122(16) 0.10005(9)
Cu1A Cu 0.86052(3) 1.39532(3) 0.336134(18)
N2A N 1.09508(19) 0.86087(19) 0.23363(11)
O41 O 1.5298(2) 0.2697(2) 0.19095(12)
O42 O 1.3826(5) 0.1782(5) 0.1503(3)
loop_
_geom_bond_atom_site_label_1
_geom_bond_atom_site_label_2
_geom_bond_site_symmetry_1
_geom_bond_site_symmetry_2
Cu1 N1 1_555 1_555
Si1 O23 1_555 1_555
Mo1 O1 1_555 1_555
Mo2 O2 1_555 1_555
Mo3 O3 1_555 1_555
Mo4 O5 1_555 1_555
Mo5 O6 1_555 1_555
Mo6 O8 1_555 1_555
Mo7 O9 1_555 1_555
Mo8 O10 1_555 1_555
Mo9 O11 1_555 1_555
Mo10 O28 1_555 1_555
Mo11 O29 1_555 1_555
Mo12 O32 1_555 1_555
C1 H1 1_555 1_555
C2 C1 1_555 1_555
H2 C2 1_555 1_555
C3 H3 1_555 1_555
C4 C3 1_555 1_555
H4 C4 1_555 1_555
C5 C2 1_555 1_555
C6 C5 1_555 1_555
C7 C6 1_555 1_555
C8 C7 1_555 1_555
C9 C8 1_555 1_555
H5 C9 1_555 1_555
C10 C9 1_555 1_555
H6 C10 1_555 1_555
C11 H7 1_555 1_555
C12 C8 1_555 1_555
H8 C12 1_555 1_555
C13 C14 1_555 1_555
C14 C15 1_555 1_555
C15 H9 1_555 1_555
C16 C15 1_555 1_555
H10 C16 1_555 1_555
C17 H11 1_555 1_555
C18 C14 1_555 1_555
H12 C18 1_555 1_555
C19 H13 1_555 1_555
C20 C19 1_555 1_555
H14 C20 1_555 1_555
C21 H15 1_555 1_555
C22 C21 1_555 1_555
H16 C22 1_555 1_555
C23 C20 1_555 1_555
C24 C23 1_555 1_555
C25 C24 1_555 1_555
C26 C25 1_555 1_555
C27 C26 1_555 1_555
H17 C27 1_555 1_555
C28 C27 1_555 1_555
H18 C28 1_555 1_555
C29 H19 1_555 1_555
C30 C26 1_555 1_555
H20 C30 1_555 1_555
C31 C32 1_555 1_555
C32 C33 1_555 1_555
C33 H21 1_555 1_555
C34 C33 1_555 1_555
H22 C34 1_555 1_555
C35 H23 1_555 1_555
C36 C32 1_555 1_555
H24 C36 1_555 1_555
N1 C1 1_555 1_555
N2 C10 1_555 1_555
N3 C7 1_555 1_555
N4 C6 1_555 1_555
H25 N4 1_555 1_555
N5 C16 1_555 1_555
H26 N5 1_555 1_555
N6 Cu1 1_555 1_555
N7 C28 1_555 1_555
H27 N7 1_555 1_555
N8 C25 1_555 1_555
N9 C24 1_555 1_555
H28 N9 1_555 1_555
N10 C34 1_555 1_555
H29 N10 1_555 1_555
O1 Cu1 1_555 1_555
O4 Mo1 1_555 1_555
O5 Mo1 1_555 1_555
O6 Mo1 1_555 1_555
O7 Mo1 1_555 1_555
O8 Mo2 1_555 1_555
O9 Mo2 1_555 1_555
O10 Mo3 1_555 1_555
O11 Mo3 1_555 1_555
O12 Mo2 1_555 1_555
O13 Mo4 1_555 1_555
O14 Mo4 1_555 1_555
O15 Mo5 1_555 1_555
O16 Mo5 1_555 1_555
O17 Mo6 1_555 1_555
O18 Mo7 1_555 1_555
O19 Mo7 1_555 1_555
O20 Mo8 1_555 1_555
O21 Mo8 1_555 1_555
O22 Mo9 1_555 1_555
O23 Mo3 1_555 1_555
O24 Si1 1_555 1_555
O25 Si1 1_555 1_555
O26 Mo4 1_555 1_555
O27 Mo6 1_555 1_555
O28 Mo4 1_555 1_555
O29 Mo5 1_555 1_555
O30 Mo6 1_555 1_555
O31 Mo9 1_555 1_555
O32 Si1 1_555 1_555
O33 Mo7 1_555 1_555
O34 Mo8 1_555 1_555
O35 Mo10 1_555 1_555
O36 Mo10 1_555 1_555
O37 Mo11 1_555 1_555
O38 Mo11 1_555 1_555
O39 Mo12 1_555 1_555
O40 Mo10 1_555 1_555
Cu1A N2 1_555 1_555
N2A Cu1 1_555 1_555
Mo1 O24 1_555 1_555
Mo2 O7 1_555 1_555
Mo2 O25 1_555 1_555
Mo3 O4 1_555 1_555
Mo3 O12 1_555 1_555
Mo4 O24 1_555 1_555
Mo5 O14 1_555 1_555
Mo5 O24 1_555 1_555
Mo6 O16 1_555 1_555
Mo6 O25 1_555 1_555
Mo7 O17 1_555 1_555
Mo7 O25 1_555 1_555
Mo8 O19 1_555 1_555
Mo8 O23 1_555 1_555
Mo9 O21 1_555 1_555
Mo9 O23 1_555 1_555
Mo9 O26 1_555 1_555
Mo10 O31 1_555 1_555
Mo10 O32 1_555 1_555
Mo11 O30 1_555 1_555
Mo11 O32 1_555 1_555
Mo11 O36 1_555 1_555
Mo12 O33 1_555 1_555
Mo12 O34 1_555 1_555
Mo12 O38 1_555 1_555
Mo12 O40 1_555 1_555
C3 N1 1_555 1_555
C4 C5 1_555 1_555
C11 C12 1_555 1_555
C11 N2 1_555 1_555
C13 N3 1_555 1_555
C13 N4 1_555 1_555
C17 C18 1_555 1_555
C17 N5 1_555 1_555
C19 N6 1_555 1_555
C21 N6 1_555 1_555
C22 C23 1_555 1_555
C29 C30 1_555 1_555
C29 N7 1_555 1_555
C31 N8 1_555 1_555
C31 N9 1_555 1_555
C35 C36 1_555 1_555
C35 N10 1_555 1_555

#END
