
#######################################################################
#
#                 Cambridge Crystallographic Data Centre
#                                CCDC 
#
#######################################################################
#
# If this CIF has been generated from an entry in the Cambridge 
# Structural Database, then it will include bibliographic, chemical, 
# crystal, experimental, refinement or atomic coordinate data resulting 
# from the CCDC's data processing and validation procedures.
#
#######################################################################

data_LOJSOU
_symmetry_cell_setting           monoclinic
_symmetry_space_group_name_H-M   'P 21/c'
_symmetry_Int_Tables_number      14
_space_group_name_Hall           '-P 2ybc'
loop_
_symmetry_equiv_pos_site_id
_symmetry_equiv_pos_as_xyz
1 x,y,z
2 -x,1/2+y,1/2-z
3 -x,-y,-z
4 x,1/2-y,1/2+z
_cell_length_a                   15.8681(6)
_cell_length_b                   15.1661(6)
_cell_length_c                   24.9681(10)
_cell_angle_alpha                90
_cell_angle_beta                 94.5290(10)
_cell_angle_gamma                90
_cell_volume                     5989.99
loop_
_atom_site_label
_atom_site_type_symbol
_atom_site_fract_x
_atom_site_fract_y
_atom_site_fract_z
Cu1 Cu 1.13935(3) -0.10519(3) 0.163521(16)
Ge1 Ge 0.712615(19) -0.101586(19) 0.138369(12)
Mo1 Mo 0.922383(16) -0.140148(17) 0.107203(10)
Mo2 Mo 0.871882(17) 0.009018(17) 0.218561(10)
Mo3 Mo 0.813114(17) 0.075023(17) 0.075766(10)
Mo4 Mo 0.768696(17) -0.270208(17) 0.048692(11)
Mo5 Mo 0.828592(17) -0.290559(17) 0.179975(11)
Mo6 Mo 0.745009(18) -0.133885(18) 0.278328(10)
Mo7 Mo 0.670337(18) 0.061638(17) 0.234306(10)
Mo8 Mo 0.603870(17) 0.087557(17) 0.087359(11)
Mo9 Mo 0.680329(17) -0.053920(18) -0.000399(10)
Mo10 Mo 0.542361(17) -0.211729(18) 0.065578(11)
Mo11 Mo 0.595158(18) -0.275113(18) 0.191803(11)
Mo12 Mo 0.498697(17) -0.079974(18) 0.167851(11)
C1 C 1.1031(2) 0.0309(2) 0.08114(13)
H1 H 1.1034 -0.0163 0.0574
C2 C 1.0695(2) 0.1099(2) 0.06243(13)
H2 H 1.0483 0.1153 0.0268
C3 C 1.1400(2) 0.0908(2) 0.16386(14)
H3 H 1.1668 0.0856 0.1982
C4 C 1.1069(2) 0.1722(2) 0.14827(13)
H4 H 1.1112 0.2197 0.1719
C5 C 1.0673(2) 0.1821(2) 0.09723(12)
C6 C 1.0217(2) 0.2625(2) 0.07992(12)
C7 C 0.9707(2) 0.3228(2) 0.10498(12)
C8 C 0.9487(2) 0.3316(2) 0.16113(12)
C9 C 0.9496(2) 0.2637(2) 0.19812(13)
H5 H 0.9647 0.2070 0.1884
C10 C 0.9277(2) 0.2807(2) 0.24981(13)
H6 H 0.9291 0.2341 0.2741
C11 C 0.9035(2) 0.4254(2) 0.23044(13)
H7 H 0.8884 0.4816 0.2411
C12 C 0.9232(2) 0.4139(2) 0.17841(13)
H8 H 0.9194 0.4612 0.1546
C13 C 0.9643(2) 0.3593(2) 0.02174(12)
C14 C 0.9423(2) 0.4056(2) -0.02845(12)
C15 C 0.8876(2) 0.4784(2) -0.02928(13)
H9 H 0.8655 0.4970 0.0022
C16 C 0.8669(2) 0.5219(2) -0.07654(13)
H10 H 0.8309 0.5704 -0.0772
C17 C 0.9513(2) 0.4253(2) -0.12287(13)
H11 H 0.9722 0.4080 -0.1550
C18 C 0.9747(2) 0.3801(2) -0.07669(13)
H12 H 1.0118 0.3327 -0.0773
C19 C 1.2661(2) -0.1512(2) 0.09365(13)
H13 H 1.2712 -0.0904 0.0905
C20 C 1.2944(2) -0.2040(2) 0.05371(13)
H14 H 1.3167 -0.1787 0.0240
C21 C 1.2298(2) -0.2724(2) 0.14222(14)
H15 H 1.2087 -0.2962 0.1728
C22 C 1.2578(2) -0.3288(2) 0.10465(13)
H16 H 1.2560 -0.3894 0.1100
C23 C 1.2892(2) -0.2946(2) 0.05812(13)
C24 C 1.3118(2) -0.3514(2) 0.01380(13)
C25 C 1.3471(2) -0.4354(2) 0.01060(13)
C26 C 1.3875(2) -0.4922(2) 0.05234(13)
C27 C 1.4173(2) -0.4612(2) 0.10326(14)
H17 H 1.4120 -0.4019 0.1119
C28 C 1.4542(2) -0.5186(3) 0.14007(15)
H18 H 1.4735 -0.4985 0.1740
C29 C 1.4366(3) -0.6358(3) 0.07883(16)
H19 H 1.4440 -0.6953 0.0714
C30 C 1.3990(3) -0.5811(2) 0.03991(16)
H20 H 1.3816 -0.6029 0.0060
C31 C 1.3150(2) -0.3933(2) -0.07058(14)
C32 C 1.3058(2) -0.3920(2) -0.12908(14)
C33 C 1.3227(3) -0.4700(3) -0.15638(15)
H21 H 1.3345 -0.5220 -0.1375
C34 C 1.3214(3) -0.4684(3) -0.21138(15)
H22 H 1.3334 -0.5193 -0.2301
C35 C 1.2837(3) -0.3192(3) -0.21366(15)
H23 H 1.2697 -0.2689 -0.2337
C36 C 1.2845(2) -0.3168(2) -0.15846(14)
H24 H 1.2708 -0.2651 -0.1411
N1 N 1.13553(18) 0.01872(18) 0.13207(11)
N2 N 0.90484(17) 0.36027(17) 0.26680(10)
N3 N 0.93627(18) 0.38212(18) 0.06833(10)
N4 N 1.01598(17) 0.28792(17) 0.02715(10)
H25 H 1.0409 0.2630 0.0018
N5 N 0.89873(19) 0.49425(18) -0.12218(11)
H26 H 0.8848 0.5217 -0.1517
N6 N 1.23144(18) -0.18403(18) 0.13700(11)
N7 N 1.4627(2) -0.6039(2) 0.12746(13)
H27 H 1.4855 -0.6393 0.1513
N8 N 1.34723(19) -0.46028(19) -0.04217(11)
N9 N 1.29347(18) -0.32634(18) -0.03829(11)
H28 H 1.2720 -0.2767 -0.0489
N10 N 1.3029(2) -0.3932(2) -0.23818(12)
H29 H 1.3035 -0.3931 -0.2726
O1 O 1.02868(14) -0.13971(15) 0.10221(9)
O2 O 0.95662(14) 0.06862(15) 0.24229(9)
O3 O 0.88184(15) 0.14638(15) 0.05210(9)
O4 O 0.88465(13) -0.03890(14) 0.07577(8)
O5 O 0.88884(13) -0.21791(14) 0.05188(8)
O6 O 0.92769(13) -0.24679(14) 0.15756(8)
O7 O 0.91622(14) -0.07573(14) 0.17719(8)
O8 O 0.85557(14) -0.06032(14) 0.27858(8)
O9 O 0.78360(14) 0.09289(14) 0.24414(8)
O10 O 0.71899(14) 0.14706(13) 0.07694(8)
O11 O 0.76853(13) 0.02725(14) 0.00493(8)
O12 O 0.84208(14) 0.07150(14) 0.14840(8)
O13 O 0.78040(15) -0.33437(16) -0.00521(9)
O14 O 0.80588(14) -0.34224(14) 0.10443(9)
O15 O 0.86108(16) -0.38581(15) 0.20915(10)
O16 O 0.81576(14) -0.21658(14) 0.23649(8)
O17 O 0.69208(14) -0.02901(14) 0.29304(8)
O18 O 0.62601(15) 0.13828(15) 0.27186(9)
O19 O 0.64948(14) 0.10097(14) 0.16608(8)
O20 O 0.54784(16) 0.18187(16) 0.08212(9)
O21 O 0.60350(14) 0.04928(14) 0.01805(8)
O22 O 0.65496(15) -0.05446(16) -0.06701(9)
O23 O 0.70591(13) -0.01983(13) 0.08997(8)
O24 O 0.78817(13) -0.17806(13) 0.12241(8)
O25 O 0.74280(13) -0.05517(13) 0.20047(8)
O26 O 0.74326(13) -0.15277(14) 0.01150(8)
O27 O 0.76707(16) -0.17258(16) 0.34121(9)
O28 O 0.65618(14) -0.27174(14) 0.05726(9)
O29 O 0.70239(14) -0.30824(14) 0.17937(9)
O30 O 0.65603(14) -0.19690(14) 0.25118(8)
O31 O 0.58527(14) -0.12342(14) 0.02607(9)
O32 O 0.61574(13) -0.15282(13) 0.14070(8)
O33 O 0.56865(14) -0.01886(14) 0.21591(8)
O34 O 0.53168(14) 0.00819(14) 0.11373(8)
O35 O 0.48192(15) -0.27125(16) 0.02071(9)
O36 O 0.54232(14) -0.30184(14) 0.12640(9)
O37 O 0.56343(16) -0.35785(15) 0.23057(10)
O38 O 0.50194(14) -0.18796(15) 0.20358(9)
O39 O 0.40110(15) -0.04403(16) 0.17973(9)
O40 O 0.46424(13) -0.14884(15) 0.09959(9)
Cu1A Cu 0.86065(3) 0.39481(3) 0.336479(16)
N2A N 1.09516(17) -0.13973(17) 0.23320(10)
O41 O 1.5304(2) -0.7300(2) 0.19074(11)
O42 O 1.3839(5) -0.8202(5) 0.1498(3)
loop_
_geom_bond_atom_site_label_1
_geom_bond_atom_site_label_2
_geom_bond_site_symmetry_1
_geom_bond_site_symmetry_2
Cu1 N1 1_555 1_555
Ge1 O23 1_555 1_555
Mo1 O1 1_555 1_555
Mo2 O2 1_555 1_555
Mo3 O3 1_555 1_555
Mo4 O5 1_555 1_555
Mo5 O6 1_555 1_555
Mo6 O8 1_555 1_555
Mo7 O9 1_555 1_555
Mo8 O10 1_555 1_555
Mo9 O11 1_555 1_555
Mo10 O28 1_555 1_555
Mo11 O29 1_555 1_555
Mo12 O32 1_555 1_555
C1 H1 1_555 1_555
C2 C1 1_555 1_555
H2 C2 1_555 1_555
C3 H3 1_555 1_555
C4 C3 1_555 1_555
H4 C4 1_555 1_555
C5 C2 1_555 1_555
C6 C5 1_555 1_555
C7 C6 1_555 1_555
C8 C7 1_555 1_555
C9 C8 1_555 1_555
H5 C9 1_555 1_555
C10 C9 1_555 1_555
H6 C10 1_555 1_555
C11 H7 1_555 1_555
C12 C8 1_555 1_555
H8 C12 1_555 1_555
C13 C14 1_555 1_555
C14 C15 1_555 1_555
C15 H9 1_555 1_555
C16 C15 1_555 1_555
H10 C16 1_555 1_555
C17 H11 1_555 1_555
C18 C14 1_555 1_555
H12 C18 1_555 1_555
C19 H13 1_555 1_555
C20 C19 1_555 1_555
H14 C20 1_555 1_555
C21 H15 1_555 1_555
C22 C21 1_555 1_555
H16 C22 1_555 1_555
C23 C20 1_555 1_555
C24 C23 1_555 1_555
C25 C24 1_555 1_555
C26 C25 1_555 1_555
C27 C26 1_555 1_555
H17 C27 1_555 1_555
C28 C27 1_555 1_555
H18 C28 1_555 1_555
C29 H19 1_555 1_555
C30 C26 1_555 1_555
H20 C30 1_555 1_555
C31 C32 1_555 1_555
C32 C33 1_555 1_555
C33 H21 1_555 1_555
C34 C33 1_555 1_555
H22 C34 1_555 1_555
C35 H23 1_555 1_555
C36 C32 1_555 1_555
H24 C36 1_555 1_555
N1 C1 1_555 1_555
N2 C10 1_555 1_555
N3 C7 1_555 1_555
N4 C6 1_555 1_555
H25 N4 1_555 1_555
N5 C16 1_555 1_555
H26 N5 1_555 1_555
N6 Cu1 1_555 1_555
N7 C28 1_555 1_555
H27 N7 1_555 1_555
N8 C25 1_555 1_555
N9 C24 1_555 1_555
H28 N9 1_555 1_555
N10 C34 1_555 1_555
H29 N10 1_555 1_555
O1 Cu1 1_555 1_555
O4 Mo1 1_555 1_555
O5 Mo1 1_555 1_555
O6 Mo1 1_555 1_555
O7 Mo1 1_555 1_555
O8 Mo2 1_555 1_555
O9 Mo2 1_555 1_555
O10 Mo3 1_555 1_555
O11 Mo3 1_555 1_555
O12 Mo2 1_555 1_555
O13 Mo4 1_555 1_555
O14 Mo4 1_555 1_555
O15 Mo5 1_555 1_555
O16 Mo5 1_555 1_555
O17 Mo6 1_555 1_555
O18 Mo7 1_555 1_555
O19 Mo7 1_555 1_555
O20 Mo8 1_555 1_555
O21 Mo8 1_555 1_555
O22 Mo9 1_555 1_555
O23 Mo3 1_555 1_555
O24 Ge1 1_555 1_555
O25 Ge1 1_555 1_555
O26 Mo4 1_555 1_555
O27 Mo6 1_555 1_555
O28 Mo4 1_555 1_555
O29 Mo5 1_555 1_555
O30 Mo6 1_555 1_555
O31 Mo9 1_555 1_555
O32 Ge1 1_555 1_555
O33 Mo7 1_555 1_555
O34 Mo8 1_555 1_555
O35 Mo10 1_555 1_555
O36 Mo10 1_555 1_555
O37 Mo11 1_555 1_555
O38 Mo11 1_555 1_555
O39 Mo12 1_555 1_555
O40 Mo10 1_555 1_555
Cu1A N2 1_555 1_555
N2A Cu1 1_555 1_555
Mo1 O24 1_555 1_555
Mo2 O7 1_555 1_555
Mo2 O25 1_555 1_555
Mo3 O4 1_555 1_555
Mo3 O12 1_555 1_555
Mo4 O24 1_555 1_555
Mo5 O14 1_555 1_555
Mo5 O24 1_555 1_555
Mo6 O16 1_555 1_555
Mo6 O25 1_555 1_555
Mo7 O17 1_555 1_555
Mo7 O25 1_555 1_555
Mo8 O19 1_555 1_555
Mo8 O23 1_555 1_555
Mo9 O21 1_555 1_555
Mo9 O23 1_555 1_555
Mo9 O26 1_555 1_555
Mo10 O31 1_555 1_555
Mo10 O32 1_555 1_555
Mo11 O30 1_555 1_555
Mo11 O32 1_555 1_555
Mo11 O36 1_555 1_555
Mo12 O33 1_555 1_555
Mo12 O34 1_555 1_555
Mo12 O38 1_555 1_555
Mo12 O40 1_555 1_555
C3 N1 1_555 1_555
C4 C5 1_555 1_555
C11 C12 1_555 1_555
C11 N2 1_555 1_555
C13 N3 1_555 1_555
C13 N4 1_555 1_555
C17 C18 1_555 1_555
C17 N5 1_555 1_555
C19 N6 1_555 1_555
C21 N6 1_555 1_555
C22 C23 1_555 1_555
C29 C30 1_555 1_555
C29 N7 1_555 1_555
C31 N8 1_555 1_555
C31 N9 1_555 1_555
C35 C36 1_555 1_555
C35 N10 1_555 1_555

#END
