
#######################################################################
#
#                 Cambridge Crystallographic Data Centre
#                                CCDC 
#
#######################################################################
#
# If this CIF has been generated from an entry in the Cambridge 
# Structural Database, then it will include bibliographic, chemical, 
# crystal, experimental, refinement or atomic coordinate data resulting 
# from the CCDC's data processing and validation procedures.
#
#######################################################################

data_LOKBUJ
_symmetry_cell_setting           orthorhombic
_symmetry_space_group_name_H-M   'F m m 2'
_symmetry_Int_Tables_number      42
_space_group_name_Hall           'F 2 -2'
loop_
_symmetry_equiv_pos_site_id
_symmetry_equiv_pos_as_xyz
1 x,y,z
2 -x,-y,z
3 -x,y,z
4 x,-y,z
5 x,1/2+y,1/2+z
6 -x,1/2-y,1/2+z
7 -x,1/2+y,1/2+z
8 x,1/2-y,1/2+z
9 1/2+x,y,1/2+z
10 1/2-x,-y,1/2+z
11 1/2-x,y,1/2+z
12 1/2+x,-y,1/2+z
13 1/2+x,1/2+y,z
14 1/2-x,1/2-y,z
15 1/2-x,1/2+y,z
16 1/2+x,1/2-y,z
_cell_length_a                   6.6224(7)
_cell_length_b                   11.2563(10)
_cell_length_c                   14.1921(16)
_cell_angle_alpha                90
_cell_angle_beta                 90
_cell_angle_gamma                90
_cell_volume                     1057.93
loop_
_atom_site_label
_atom_site_type_symbol
_atom_site_fract_x
_atom_site_fract_y
_atom_site_fract_z
Er1 Er 0.0000 0.0000 0.4609
O1 O 0.3362(8) 0.0000 0.458(3)
O2 O 0.0000 0.0000 0.6242(7)
H1 H 0.0000 -0.0687 0.6435
O3 O 0.0000 0.1928(6) 0.5052(5)
H2 H -0.1216 0.2325 0.5143
N1 N 0.0000 0.1254(6) 0.3169(5)
N2 N 0.0000 0.2474(7) 0.3266(6)
N3 N 0.0000 0.2925(17) 0.2456(10)
N4 N 0.0000 0.207(2) 0.1805(15)
N5 N 0.0000 0.0000 0.1792(7)
H3 H 0.0000 0.0000 0.1186
C1 C 0.0000 0.1082(7) 0.2244(5)
C2 C 0.5000 0.0000 0.4947(9)
H4 H 0.5000 0.0000 0.5602
Er1_2 Er 1.0000 0.0000 0.4609
O1A O 0.6638(8) 0.0000 0.458(3)
O1A_2 O -0.3362(8) 0.0000 0.458(3)
H1A H 0.0000 0.0687 0.6435
O3A O 0.0000 -0.1928(6) 0.5052(5)
H2B H 0.1216 0.2325 0.5143
H2A H 0.1216 -0.2325 0.5143
H2C H -0.1216 -0.2325 0.5143
N1A N 0.0000 -0.1254(6) 0.3169(5)
N2A N 0.0000 -0.2474(7) 0.3266(6)
N3A N 0.0000 -0.2925(17) 0.2456(10)
N4A N 0.0000 -0.207(2) 0.1805(15)
C1A C 0.0000 -0.1082(7) 0.2244(5)
loop_
_geom_bond_atom_site_label_1
_geom_bond_atom_site_label_2
_geom_bond_site_symmetry_1
_geom_bond_site_symmetry_2
Er1 O1 1_555 1_555
O1 C2 1_555 1_555
O2 Er1 1_555 1_555
H1 O2 1_555 1_555
O3 Er1 1_555 1_555
H2 O3 1_555 1_555
N1 Er1 1_555 1_555
N2 N1 1_555 1_555
N3 N2 1_555 1_555
N4 N3 1_555 1_555
N5 H3 1_555 1_555
C1 N1 1_555 1_555
C2 H4 1_555 1_555
Er1_2 O1A 1_555 1_555
O1A C2 1_555 1_555
O1A_2 Er1 1_555 1_555
H1A O2 1_555 1_555
O3A Er1 1_555 1_555
H2B O3 1_555 1_555
H2A O3A 1_555 1_555
H2C O3A 1_555 1_555
N1A Er1 1_555 1_555
N2A N1A 1_555 1_555
N3A N2A 1_555 1_555
N4A N3A 1_555 1_555
C1A N5 1_555 1_555
N4 C1 1_555 1_555
N5 C1 1_555 1_555
N1A C1A 1_555 1_555
N4A C1A 1_555 1_555

#END
