
#######################################################################
#
#                 Cambridge Crystallographic Data Centre
#                                CCDC 
#
#######################################################################
#
# If this CIF has been generated from an entry in the Cambridge 
# Structural Database, then it will include bibliographic, chemical, 
# crystal, experimental, refinement or atomic coordinate data resulting 
# from the CCDC's data processing and validation procedures.
#
#######################################################################

data_LOKCEU
_symmetry_cell_setting           orthorhombic
_symmetry_space_group_name_H-M   'F m m 2'
_symmetry_Int_Tables_number      42
_space_group_name_Hall           'F 2 -2'
loop_
_symmetry_equiv_pos_site_id
_symmetry_equiv_pos_as_xyz
1 x,y,z
2 -x,-y,z
3 x,-y,z
4 -x,y,z
5 x,1/2+y,1/2+z
6 -x,1/2-y,1/2+z
7 x,1/2-y,1/2+z
8 -x,1/2+y,1/2+z
9 1/2+x,y,1/2+z
10 1/2-x,-y,1/2+z
11 1/2+x,-y,1/2+z
12 1/2-x,y,1/2+z
13 1/2+x,1/2+y,z
14 1/2-x,1/2-y,z
15 1/2+x,1/2-y,z
16 1/2-x,1/2+y,z
_cell_length_a                   6.5671(7)
_cell_length_b                   11.2158(13)
_cell_length_c                   14.1583(16)
_cell_angle_alpha                90
_cell_angle_beta                 90
_cell_angle_gamma                90
_cell_volume                     1042.83
loop_
_atom_site_label
_atom_site_type_symbol
_atom_site_fract_x
_atom_site_fract_y
_atom_site_fract_z
Yb1 Yb 1.0000 0.5000 0.35120(4)
N1 N 1.0000 0.3744(5) 0.2081(4)
O1 O 1.0000 0.5000 0.5141(5)
N2 N 1.0000 0.2025(15) 0.1362(9)
N3 N 1.0000 0.2881(14) 0.0701(10)
N4 N 1.0000 0.2528(5) 0.2176(4)
C1 C 1.0000 0.3924(6) 0.1149(4)
O2 O 0.6648(5) 0.5000 0.350(2)
N5 N 1.0000 0.5000 0.0700(5)
H1 H 1.0000 0.5000 0.0093
O3 O 1.0000 0.3082(5) 0.3960(4)
C2 C 0.5000 0.5000 0.3847(7)
H2 H 0.5000 0.5000 0.4503
Yb1_2 Yb 0.0000 0.5000 0.35120(4)
N1A N 1.0000 0.6256(5) 0.2081(4)
N2A N 1.0000 0.7975(15) 0.1362(9)
N3A N 1.0000 0.7119(14) 0.0701(10)
N4A N 1.0000 0.7472(5) 0.2176(4)
C1A C 1.0000 0.6076(6) 0.1149(4)
O2A O 0.3352(5) 0.5000 0.350(2)
O2A_2 O 1.3352(5) 0.5000 0.350(2)
O3A O 1.0000 0.6918(5) 0.3960(4)
loop_
_geom_bond_atom_site_label_1
_geom_bond_atom_site_label_2
_geom_bond_site_symmetry_1
_geom_bond_site_symmetry_2
Yb1 N1 1_555 1_555
N1 N4 1_555 1_555
O1 Yb1 1_555 1_555
N2 N3 1_555 1_555
N3 C1 1_555 1_555
N4 N2 1_555 1_555
C1 N1 1_555 1_555
O2 Yb1 1_555 1_555
N5 C1 1_555 1_555
H1 N5 1_555 1_555
O3 Yb1 1_555 1_555
C2 O2 1_555 1_555
H2 C2 1_555 1_555
Yb1_2 O2A 1_555 1_555
N1A Yb1 1_555 1_555
N2A N3A 1_555 1_555
N3A C1A 1_555 1_555
N4A N1A 1_555 1_555
C1A N5 1_555 1_555
O2A C2 1_555 1_555
O2A_2 Yb1 1_555 1_555
O3A Yb1 1_555 1_555
N1A C1A 1_555 1_555
N2A N4A 1_555 1_555

#END
