
#######################################################################
#
#                 Cambridge Crystallographic Data Centre
#                                CCDC 
#
#######################################################################
#
# If this CIF has been generated from an entry in the Cambridge 
# Structural Database, then it will include bibliographic, chemical, 
# crystal, experimental, refinement or atomic coordinate data resulting 
# from the CCDC's data processing and validation procedures.
#
#######################################################################

data_LOKCAQ
_symmetry_cell_setting           orthorhombic
_symmetry_space_group_name_H-M   'F m m 2'
_symmetry_Int_Tables_number      42
_space_group_name_Hall           'F 2 -2'
loop_
_symmetry_equiv_pos_site_id
_symmetry_equiv_pos_as_xyz
1 x,y,z
2 -x,-y,z
3 -x,y,z
4 x,-y,z
5 x,1/2+y,1/2+z
6 -x,1/2-y,1/2+z
7 -x,1/2+y,1/2+z
8 x,1/2-y,1/2+z
9 1/2+x,y,1/2+z
10 1/2-x,-y,1/2+z
11 1/2-x,y,1/2+z
12 1/2+x,-y,1/2+z
13 1/2+x,1/2+y,z
14 1/2-x,1/2-y,z
15 1/2-x,1/2+y,z
16 1/2+x,1/2-y,z
_cell_length_a                   6.7214(4)
_cell_length_b                   11.3120(6)
_cell_length_c                   14.2721(8)
_cell_angle_alpha                90
_cell_angle_beta                 90
_cell_angle_gamma                90
_cell_volume                     1085.14
loop_
_atom_site_label
_atom_site_type_symbol
_atom_site_fract_x
_atom_site_fract_y
_atom_site_fract_z
Gd1 Gd -0.5000 0.0000 -0.3929
O1 O -0.1621(8) 0.0000 -0.400(3)
O2 O -0.5000 0.0000 -0.2259(10)
H1 H -0.5000 -0.0683 -0.2067
O3 O -0.5000 0.1981(8) -0.3487(7)
H2 H -0.6198 0.2377 -0.3399
N1 N -0.5000 0.1257(8) -0.5383(7)
N2 N -0.5000 0.2468(9) -0.5285(8)
N3 N -0.5000 0.300(3) -0.606(2)
N4 N -0.5000 0.213(2) -0.672(2)
N5 N -0.5000 0.0000 -0.6741(10)
H3 H -0.5000 0.0000 -0.7344
C1 C -0.5000 0.1077(9) -0.6294(8)
C2 C 0.0000 0.0000 -0.3564(13)
H4 H 0.0000 0.0000 -0.2912
Gd1_2 Gd 0.5000 0.0000 -0.3929
O1A O 0.1621(8) 0.0000 -0.400(3)
O1A_2 O -0.8379(8) 0.0000 -0.400(3)
H1A H -0.5000 0.0683 -0.2067
O3A O -0.5000 -0.1981(8) -0.3487(7)
H2B H -0.3802 0.2377 -0.3399
H2A H -0.3802 -0.2377 -0.3399
H2C H -0.6198 -0.2377 -0.3399
N1A N -0.5000 -0.1257(8) -0.5383(7)
N2A N -0.5000 -0.2468(9) -0.5285(8)
N3A N -0.5000 -0.300(3) -0.606(2)
N4A N -0.5000 -0.213(2) -0.672(2)
C1A C -0.5000 -0.1077(9) -0.6294(8)
loop_
_geom_bond_atom_site_label_1
_geom_bond_atom_site_label_2
_geom_bond_site_symmetry_1
_geom_bond_site_symmetry_2
Gd1 O1 1_555 1_555
O1 C2 1_555 1_555
O2 Gd1 1_555 1_555
H1 O2 1_555 1_555
O3 Gd1 1_555 1_555
H2 O3 1_555 1_555
N1 Gd1 1_555 1_555
N2 N1 1_555 1_555
N3 N2 1_555 1_555
N4 N3 1_555 1_555
N5 H3 1_555 1_555
C1 N1 1_555 1_555
C2 H4 1_555 1_555
Gd1_2 O1A 1_555 1_555
O1A C2 1_555 1_555
O1A_2 Gd1 1_555 1_555
H1A O2 1_555 1_555
O3A Gd1 1_555 1_555
H2B O3 1_555 1_555
H2A O3A 1_555 1_555
H2C O3A 1_555 1_555
N1A Gd1 1_555 1_555
N2A N1A 1_555 1_555
N3A N2A 1_555 1_555
N4A N3A 1_555 1_555
C1A N5 1_555 1_555
N4 C1 1_555 1_555
N5 C1 1_555 1_555
N1A C1A 1_555 1_555
N4A C1A 1_555 1_555

#END
