
#######################################################################
#
#                 Cambridge Crystallographic Data Centre
#                                CCDC 
#
#######################################################################
#
# If this CIF has been generated from an entry in the Cambridge 
# Structural Database, then it will include bibliographic, chemical, 
# crystal, experimental, refinement or atomic coordinate data resulting 
# from the CCDC's data processing and validation procedures.
#
#######################################################################

data_LOKDUM
_symmetry_cell_setting           triclinic
_symmetry_space_group_name_H-M   'P -1'
_symmetry_Int_Tables_number      2
_space_group_name_Hall           '-P 1'
loop_
_symmetry_equiv_pos_site_id
_symmetry_equiv_pos_as_xyz
1 x,y,z
2 -x,-y,-z
_cell_length_a                   10.9694(11)
_cell_length_b                   13.6637(14)
_cell_length_c                   13.9341(14)
_cell_angle_alpha                64.8306(13)
_cell_angle_beta                 73.1694(15)
_cell_angle_gamma                69.7887(15)
_cell_volume                     1748.61
loop_
_atom_site_label
_atom_site_type_symbol
_atom_site_fract_x
_atom_site_fract_y
_atom_site_fract_z
Na1 Na 0.0000 1.5000 0.0000
O23 O 0.214(3) 1.472(3) 0.031(3)
H21 H 0.2766 1.4201 0.0150
H22 H 0.2284 1.5119 0.0571
W1 W 0.23855(11) 0.02694(11) 0.26106(9)
O1 O 0.344(3) 0.045(2) 0.144(2)
O2 O 0.131(3) 0.171(3) 0.242(2)
O3 O 0.099(3) 0.002(3) 0.222(2)
O4 O 0.322(3) 0.048(2) 0.344(2)
O5 O 0.291(3) -0.130(2) 0.335(2)
O6 O 0.154(6) -0.039(5) 0.447(5)
W2 W -0.03902(10) 0.25644(9) 0.27791(9)
W3 W -0.08813(11) 0.01688(11) 0.26669(9)
Ag1 Ag 0.5642(5) 0.0571(3) 0.2534(5)
W4 W 0.32235(18) 0.00532(17) 0.49617(14)
W5 W 0.27682(11) -0.22960(9) 0.48146(8)
P1 P 0.0000 0.0000 0.5000
O7 O 0.042(6) -0.124(5) 0.535(5)
O8 O 0.016(6) 0.062(5) 0.377(5)
O9 O -0.200(3) 0.281(2) 0.369(2)
O10 O 0.037(3) 0.287(2) 0.366(2)
O11 O -0.056(3) 0.376(2) 0.170(2)
O12 O -0.105(3) 0.174(2) 0.236(2)
O13 O -0.076(6) -0.046(5) 0.457(5)
O14 O -0.124(3) 0.027(2) 0.152(2)
O15 O -0.041(3) -0.134(3) 0.342(2)
O16 O -0.251(3) 0.034(2) 0.352(2)
N1 N 0.509(3) 0.208(2) 0.241(2)
N2 N 0.608(4) -0.095(3) 0.262(3)
O17 O 0.353(3) -0.147(2) 0.511(2)
O18 O 0.5000 0.0000 0.5000
O19 O 0.223(3) 0.155(2) 0.481(2)
O20 O 0.399(3) -0.339(2) 0.473(2)
O21 O 0.134(3) -0.266(2) 0.459(2)
W6 W 0.05375(11) 0.23774(9) 0.51041(9)
Ag2 Ag -0.1489(5) 0.0042(3) -0.0096(4)
C1 C 0.381(5) 0.275(4) 0.231(4)
C2 C 0.573(4) 0.275(3) 0.238(3)
O22 O 0.077(3) 0.348(2) 0.516(2)
N3 N 0.376(4) 0.381(3) 0.212(3)
H1 H 0.3094 0.2496 0.2372
N4 N 0.494(3) 0.377(2) 0.220(2)
H2 H 0.6601 0.2537 0.2471
C3 C 0.521(4) 0.481(3) 0.203(3)
H3 H 0.4973 0.5361 0.1347
H4 H 0.6146 0.4678 0.1990
C4 C 0.446(4) 0.527(3) 0.291(3)
H5 H 0.4586 0.4669 0.3603
H6 H 0.4851 0.5835 0.2854
C5 C 0.302(4) 0.577(3) 0.292(3)
N5 N 0.262(3) 0.673(2) 0.195(2)
H7 H 0.2619 0.5189 0.3030
H8 H 0.2649 0.6007 0.3532
N6 N 0.265(4) 0.656(2) 0.104(2)
C6 C 0.233(4) 0.775(3) 0.183(4)
C7 C 0.228(4) 0.761(3) 0.034(3)
N7 N 0.210(3) 0.837(2) 0.078(2)
H9 H 0.2271 0.8029 0.2344
H10 H 0.2158 0.7786 -0.0359
N8 N 0.102(3) 1.155(2) -0.054(2)
C8 C 0.095(4) 1.228(3) -0.012(3)
C9 C 0.084(4) 1.218(3) -0.159(3)
N9 N 0.072(3) 1.332(2) -0.081(2)
H11 H 0.1059 1.2083 0.0586
N10 N 0.064(2) 1.324(2) -0.1702(19)
H12 H 0.0853 1.1915 -0.2108
C10 C 0.055(3) 1.421(2) -0.272(2)
H13 H -0.0145 1.4827 -0.2594
H14 H 0.0311 1.4012 -0.3224
C11 C 0.184(3) 1.458(2) -0.324(3)
H15 H 0.1620 1.5344 -0.3743
H16 H 0.2186 1.4589 -0.2678
C12 C 0.289(4) 1.390(3) -0.381(3)
C13 C 0.347(4) 1.187(3) -0.340(3)
C14 C 0.403(4) 1.135(3) -0.191(4)
N11 N 0.335(2) 1.275(2) -0.318(2)
H17 H 0.2573 1.3943 -0.4414
H18 H 0.3638 1.4230 -0.4108
H19 H 0.3260 1.1898 -0.4018
N12 N 0.373(3) 1.240(2) -0.222(3)
H20 H 0.4312 1.0888 -0.1251
O7A O -0.042(6) 0.124(5) 0.465(5)
O16_2 O 0.749(3) 0.034(2) 0.352(2)
O16A O 0.251(3) -0.034(2) 0.648(2)
O9A O 0.200(3) -0.281(2) 0.631(2)
O8A O -0.016(6) -0.062(5) 0.623(5)
O6A O -0.154(6) 0.039(5) 0.553(5)
O13A O 0.076(6) 0.046(5) 0.543(5)
W2A W 0.03902(10) -0.25644(9) 0.72209(9)
W5A W -0.27682(11) 0.22960(9) 0.51854(8)
W6A W -0.05375(11) -0.23774(9) 0.48959(9)
W4A W -0.32235(18) -0.00532(17) 0.50383(14)
Ag1_2 Ag -0.4358(5) 0.0571(3) 0.2534(5)
W4A_2 W 0.67765(18) -0.00532(17) 0.50383(14)
W3A W 0.08813(11) -0.01688(11) 0.73331(9)
Ag1A Ag 0.4358(5) -0.0571(3) 0.7466(5)
W1A W -0.23855(11) -0.02694(11) 0.73894(9)
O10A O -0.037(3) -0.287(2) 0.634(2)
O11A O 0.056(3) -0.376(2) 0.830(2)
O12A O 0.105(3) -0.174(2) 0.764(2)
O2A O -0.131(3) -0.171(3) 0.758(2)
O5A O -0.291(3) 0.130(2) 0.665(2)
O20A O -0.399(3) 0.339(2) 0.527(2)
O21A O -0.134(3) 0.266(2) 0.541(2)
O17A O -0.353(3) 0.147(2) 0.489(2)
O15A O 0.041(3) 0.134(3) 0.658(2)
O22A O -0.077(3) -0.348(2) 0.484(2)
O19A O -0.223(3) -0.155(2) 0.519(2)
O4A O -0.322(3) -0.048(2) 0.656(2)
O18_2 O -0.5000 0.0000 0.5000
O14A O 0.124(3) -0.027(2) 0.848(2)
O3A O -0.099(3) -0.002(3) 0.778(2)
O1A O -0.344(3) -0.045(2) 0.856(2)
Ag1A_2 Ag -0.5642(5) -0.0571(3) 0.7466(5)
Ag2A Ag 0.1489(5) -0.0042(3) 1.0096(4)
N1A N -0.509(3) -0.208(2) 0.759(2)
N2A N -0.608(4) 0.095(3) 0.738(3)
O16A_2 O -0.749(3) -0.034(2) 0.648(2)
C1A C -0.381(5) -0.275(4) 0.769(4)
C2A C -0.573(4) -0.275(3) 0.762(3)
N3A N -0.376(4) -0.381(3) 0.788(3)
H1A H -0.3094 -0.2496 0.7628
N4A N -0.494(3) -0.377(2) 0.780(2)
H2A H -0.6601 -0.2537 0.7529
C3A C -0.521(4) -0.481(3) 0.797(3)
H3A H -0.4973 -0.5361 0.8653
H4A H -0.6146 -0.4678 0.8010
C4A C -0.446(4) -0.527(3) 0.709(3)
H5A H -0.4586 -0.4669 0.6397
H6A H -0.4851 -0.5835 0.7146
C5A C -0.302(4) -0.577(3) 0.708(3)
Ag2A_2 Ag 0.1489(5) 0.9958(3) 0.0096(4)
N5A N -0.262(3) -0.673(2) 0.805(2)
H7A H -0.2619 -0.5189 0.6970
H8A H -0.2649 -0.6007 0.6468
O14A_2 O 0.124(3) 0.973(2) -0.152(2)
N6A N -0.265(4) -0.656(2) 0.896(2)
C6A C -0.233(4) -0.775(3) 0.817(4)
C7A C -0.228(4) -0.761(3) 0.966(3)
N7A N -0.210(3) -0.837(2) 0.922(2)
H9A H -0.2271 -0.8029 0.7656
H10A H -0.2158 -0.7786 1.0359
Ag2_2 Ag -0.1489(5) -0.9958(3) 0.9904(4)
Ag1A_3 Ag 0.4358(5) 0.9429(3) -0.2534(5)
N8A N -0.102(3) -1.155(2) 1.054(2)
O14_2 O -0.124(3) -0.973(2) 1.152(2)
N2A_2 N 0.392(4) 1.095(3) -0.262(3)
C8A C -0.095(4) -1.228(3) 1.012(3)
C9A C -0.084(4) -1.218(3) 1.159(3)
N9A N -0.072(3) -1.332(2) 1.081(2)
H11A H -0.1059 -1.2083 0.9414
N10A N -0.064(2) -1.324(2) 1.1702(19)
H12A H -0.0853 -1.1915 1.2108
C10A C -0.055(3) -1.421(2) 1.272(2)
Ag1_3 Ag -0.4358(5) -0.9429(3) 1.2534(5)
H13A H 0.0145 -1.4827 1.2594
H14A H -0.0311 -1.4012 1.3224
C11A C -0.184(3) -1.458(2) 1.324(3)
N2_2 N -0.392(4) -1.095(3) 1.262(3)
H15A H -0.1620 -1.5344 1.3743
H16A H -0.2186 -1.4589 1.2678
C12A C -0.289(4) -1.390(3) 1.381(3)
C13A C -0.347(4) -1.187(3) 1.340(3)
C14A C -0.403(4) -1.135(3) 1.191(4)
N11A N -0.335(2) -1.275(2) 1.318(2)
H17A H -0.2573 -1.3943 1.4414
H18A H -0.3638 -1.4230 1.4108
H19A H -0.3260 -1.1898 1.4018
N12A N -0.373(3) -1.240(2) 1.222(3)
H20A H -0.4312 -1.0888 1.1251
loop_
_geom_bond_atom_site_label_1
_geom_bond_atom_site_label_2
_geom_bond_site_symmetry_1
_geom_bond_site_symmetry_2
W1 O1 1_555 1_555
O2 W1 1_555 1_555
O3 W1 1_555 1_555
O4 W1 1_555 1_555
O5 W1 1_555 1_555
O6 W1 1_555 1_555
W2 O2 1_555 1_555
W3 O3 1_555 1_555
Ag1 O4 1_555 1_555
W4 O4 1_555 1_555
W5 O5 1_555 1_555
P1 O6 1_555 1_555
O7 O6 1_555 1_555
O8 W2 1_555 1_555
O9 W2 1_555 1_555
O10 W2 1_555 1_555
O11 W2 1_555 1_555
O12 W2 1_555 1_555
O13 W3 1_555 1_555
O14 W3 1_555 1_555
O15 W3 1_555 1_555
O16 W3 1_555 1_555
N1 Ag1 1_555 1_555
N2 Ag1 1_555 1_555
O17 W4 1_555 1_555
O18 W4 1_555 1_555
O19 W4 1_555 1_555
O20 W5 1_555 1_555
O21 W5 1_555 1_555
W6 O10 1_555 1_555
Ag2 O14 1_555 1_555
C1 N1 1_555 1_555
C2 N1 1_555 1_555
O22 W6 1_555 1_555
N3 C1 1_555 1_555
H1 C1 1_555 1_555
N4 C2 1_555 1_555
H2 C2 1_555 1_555
C3 N4 1_555 1_555
H3 C3 1_555 1_555
H4 C3 1_555 1_555
C4 C3 1_555 1_555
H5 C4 1_555 1_555
H6 C4 1_555 1_555
C5 C4 1_555 1_555
N5 C5 1_555 1_555
H7 C5 1_555 1_555
H8 C5 1_555 1_555
N6 N5 1_555 1_555
C6 N5 1_555 1_555
C7 N6 1_555 1_555
N7 C6 1_555 1_555
H9 C6 1_555 1_555
H10 C7 1_555 1_555
N8 C8 1_555 1_555
C8 N9 1_555 1_555
C9 N8 1_555 1_555
N9 N10 1_555 1_555
H11 C8 1_555 1_555
N10 C9 1_555 1_555
H12 C9 1_555 1_555
C10 N10 1_555 1_555
H13 C10 1_555 1_555
H14 C10 1_555 1_555
C11 C10 1_555 1_555
H15 C11 1_555 1_555
H16 C11 1_555 1_555
C12 C11 1_555 1_555
C13 N11 1_555 1_555
C14 N12 1_555 1_555
N11 C12 1_555 1_555
H17 C12 1_555 1_555
H18 C12 1_555 1_555
H19 C13 1_555 1_555
N12 N11 1_555 1_555
H20 C14 1_555 1_555
O23 H21 1_555 1_555
H22 O23 1_555 1_555
O7A W2 1_555 1_555
O16_2 Ag1 1_555 1_555
O16A W4 1_555 1_555
O9A W5 1_555 1_555
O8A P1 1_555 1_555
O6A P1 1_555 1_555
O13A P1 1_555 1_555
W2A O7 1_555 1_555
W5A O9 1_555 1_555
W6A O13 1_555 1_555
W4A O16 1_555 1_555
Ag1_2 O16 1_555 1_555
W4A_2 O18 1_555 1_555
W3A O16A 1_555 1_555
Ag1A O16A 1_555 1_555
W1A O6A 1_555 1_555
O10A W2A 1_555 1_555
O11A W2A 1_555 1_555
O12A W2A 1_555 1_555
O2A W2A 1_555 1_555
O5A W5A 1_555 1_555
O20A W5A 1_555 1_555
O21A W6 1_555 1_555
O17A W5A 1_555 1_555
O15A W6 1_555 1_555
O22A W6A 1_555 1_555
O19A W6A 1_555 1_555
O4A W4A 1_555 1_555
O18_2 W4A 1_555 1_555
O14A W3A 1_555 1_555
O3A W3A 1_555 1_555
O1A W1A 1_555 1_555
Ag1A_2 O4A 1_555 1_555
Ag2A O14A 1_555 1_555
N1A Ag1A_2 1_555 1_555
N2A Ag1A_2 1_555 1_555
O16A_2 Ag1A_2 1_555 1_555
C1A N1A 1_555 1_555
C2A N1A 1_555 1_555
N3A C1A 1_555 1_555
H1A C1A 1_555 1_555
N4A C2A 1_555 1_555
H2A C2A 1_555 1_555
C3A N4A 1_555 1_555
H3A C3A 1_555 1_555
H4A C3A 1_555 1_555
C4A C3A 1_555 1_555
H5A C4A 1_555 1_555
H6A C4A 1_555 1_555
C5A C4A 1_555 1_555
Ag2A_2 N7 1_555 1_555
N5A C5A 1_555 1_555
H7A C5A 1_555 1_555
H8A C5A 1_555 1_555
O14A_2 Ag2A_2 1_555 1_555
N6A N5A 1_555 1_555
C6A N5A 1_555 1_555
C7A N6A 1_555 1_555
N7A C6A 1_555 1_555
H9A C6A 1_555 1_555
H10A C7A 1_555 1_555
Ag2_2 N7A 1_555 1_555
Ag1A_3 N2A_2 1_555 1_555
N8A Ag2_2 1_555 1_555
O14_2 Ag2_2 1_555 1_555
N2A_2 C13 1_555 1_555
C8A N8A 1_555 1_555
C9A N8A 1_555 1_555
N9A C8A 1_555 1_555
H11A C8A 1_555 1_555
N10A C9A 1_555 1_555
H12A C9A 1_555 1_555
C10A N10A 1_555 1_555
Ag1_3 N2_2 1_555 1_555
H13A C10A 1_555 1_555
H14A C10A 1_555 1_555
C11A C10A 1_555 1_555
N2_2 C13A 1_555 1_555
H15A C11A 1_555 1_555
H16A C11A 1_555 1_555
C12A C11A 1_555 1_555
C13A N11A 1_555 1_555
C14A N2_2 1_555 1_555
N11A C12A 1_555 1_555
H17A C12A 1_555 1_555
H18A C12A 1_555 1_555
H19A C13A 1_555 1_555
N12A C14A 1_555 1_555
H20A C14A 1_555 1_555
O6 W4 1_555 1_555
O6 W5 1_555 1_555
W3 O12 1_555 1_555
W5 O17 1_555 1_555
P1 O7 1_555 1_555
P1 O8 1_555 1_555
P1 O13 1_555 1_555
P1 O7A 1_555 1_555
O7 O13 1_555 1_555
O7 O8A 1_555 1_555
O8 O7A 1_555 1_555
O15 W6A 1_555 1_555
O19 W6 1_555 1_555
O21 W6A 1_555 1_555
W6 O13A 1_555 1_555
N3 N4 1_555 1_555
C7 N7 1_555 1_555
N8 Ag2A_2 1_555 1_555
C14 N2A_2 1_555 1_555
O7A O6A 1_555 1_555
O7A O13A 1_555 1_555
O16_2 W4A_2 1_555 1_555
O9A W2A 1_555 1_555
O8A W2A 1_555 1_555
O6A W5A 1_555 1_555
O6A W4A 1_555 1_555
O13A W3A 1_555 1_555
W5A O21A 1_555 1_555
W6A O10A 1_555 1_555
W4A O17A 1_555 1_555
W4A O19A 1_555 1_555
W3A O12A 1_555 1_555
W3A O15A 1_555 1_555
W1A O2A 1_555 1_555
W1A O5A 1_555 1_555
W1A O4A 1_555 1_555
W1A O3A 1_555 1_555
N3A N4A 1_555 1_555
C7A N7A 1_555 1_555
N9A N10A 1_555 1_555
N11A N12A 1_555 1_555

#END
