
#######################################################################
#
#                 Cambridge Crystallographic Data Centre
#                                CCDC 
#
#######################################################################
#
# If this CIF has been generated from an entry in the Cambridge 
# Structural Database, then it will include bibliographic, chemical, 
# crystal, experimental, refinement or atomic coordinate data resulting 
# from the CCDC's data processing and validation procedures.
#
#######################################################################

data_LOKDOG
_symmetry_cell_setting           triclinic
_symmetry_space_group_name_H-M   'P -1'
_symmetry_Int_Tables_number      2
_space_group_name_Hall           '-P 1'
loop_
_symmetry_equiv_pos_site_id
_symmetry_equiv_pos_as_xyz
1 x,y,z
2 -x,-y,-z
_cell_length_a                   10.944(3)
_cell_length_b                   13.623(4)
_cell_length_c                   13.884(4)
_cell_angle_alpha                64.730(4)
_cell_angle_beta                 73.057(5)
_cell_angle_gamma                69.711(4)
_cell_volume                     1730.47
loop_
_atom_site_label
_atom_site_type_symbol
_atom_site_fract_x
_atom_site_fract_y
_atom_site_fract_z
Na1 Na 0.0000 1.5000 0.0000
O23 O 0.218(4) 1.468(3) 0.027(3)
H21 H 0.2803 1.4161 0.0108
H22 H 0.2322 1.5079 0.0529
Cu1 Cu 0.5648(5) 0.0571(4) 0.2533(4)
Cu2 Cu 0.1488(5) 0.9960(3) 0.0098(4)
N1 N 0.072(3) 1.332(2) -0.081(2)
N2 N 0.065(3) 1.324(2) -0.171(2)
N3 N 0.105(3) 1.155(2) -0.055(2)
N4 N 0.339(3) 1.274(2) -0.319(2)
N5 N 0.371(3) 1.243(3) -0.221(3)
N6 N 0.509(3) 0.208(2) 0.240(2)
N7 N 0.496(3) 0.375(3) 0.220(2)
N8 N 0.372(4) 0.379(3) 0.214(3)
N9 N 0.265(3) 0.671(2) 0.194(2)
N10 N 0.268(3) 0.655(3) 0.102(3)
N11 N 0.208(3) 0.839(2) 0.078(2)
C1 C 0.090(4) 1.228(3) -0.014(3)
H1 H 0.0922 1.2081 0.0587
C2 C 0.084(3) 1.216(3) -0.155(3)
H2 H 0.0828 1.1886 -0.2055
C3 C 0.056(4) 1.422(3) -0.273(3)
H3 H -0.0140 1.4843 -0.2605
H4 H 0.0331 1.4036 -0.3252
C4 C 0.184(3) 1.456(2) -0.320(2)
H5 H 0.1642 1.5347 -0.3671
H6 H 0.2200 1.4504 -0.2614
C5 C 0.288(4) 1.390(3) -0.383(3)
H7 H 0.2521 1.3937 -0.4409
H8 H 0.3613 1.4256 -0.4166
C6 C 0.350(4) 1.184(3) -0.339(3)
H9 H 0.3303 1.1872 -0.4014
C7 C 0.405(4) 1.133(3) -0.188(3)
H10 H 0.4353 1.0863 -0.1233
C8 C 0.376(5) 0.275(4) 0.234(4)
H11 H 0.3034 0.2489 0.2434
C9 C 0.577(4) 0.272(3) 0.246(3)
H12 H 0.6609 0.2488 0.2629
C10 C 0.519(4) 0.479(3) 0.199(3)
H13 H 0.4896 0.5332 0.1321
H14 H 0.6127 0.4693 0.1908
C11 C 0.443(5) 0.527(3) 0.294(3)
H15 H 0.4555 0.4671 0.3636
H16 H 0.4811 0.5848 0.2875
C12 C 0.302(4) 0.575(3) 0.293(3)
H17 H 0.2618 0.5981 0.3542
H18 H 0.2639 0.5159 0.3021
C13 C 0.229(4) 0.779(3) 0.181(3)
H19 H 0.2200 0.8074 0.2337
C14 C 0.225(4) 0.762(3) 0.031(3)
H20 H 0.2107 0.7804 -0.0375
N12 N 0.391(4) 1.091(3) -0.260(3)
W1 W 0.23859(13) 0.02696(11) 0.26095(10)
W2 W 0.27697(12) -0.22977(9) 0.48148(9)
W3 W -0.05376(12) -0.23763(9) 0.48945(9)
W4 W 0.03902(12) -0.25653(9) 0.72203(9)
W5 W 0.08819(12) -0.01705(11) 0.73333(10)
W6 W 0.32203(19) 0.00534(18) 0.49603(15)
P1 P 0.0000 0.0000 0.5000
O1 O 0.345(3) 0.043(2) 0.144(2)
O2 O 0.132(3) 0.174(3) 0.238(2)
O3 O 0.097(3) 0.005(2) 0.227(3)
O4 O 0.323(3) 0.047(2) 0.344(2)
O5 O 0.298(3) -0.132(2) 0.333(2)
O6 O 0.397(3) -0.341(2) 0.476(2)
O7 O 0.131(2) -0.262(2) 0.4618(19)
O8 O 0.202(2) -0.281(2) 0.632(2)
O9 O 0.350(3) -0.147(2) 0.511(2)
O10 O -0.073(3) -0.351(2) 0.485(2)
O11 O -0.227(3) -0.159(2) 0.520(2)
O12 O -0.037(2) -0.288(2) 0.635(2)
O13 O 0.042(4) -0.121(4) 0.535(3)
O14 O -0.070(4) -0.049(4) 0.460(4)
O15 O 0.057(3) -0.376(2) 0.829(2)
O16 O 0.099(3) -0.170(2) 0.764(2)
O17 O -0.018(4) -0.061(4) 0.621(4)
O18 O 0.123(3) -0.028(2) 0.8488(19)
O19 O 0.045(3) 0.139(2) 0.658(2)
O20 O 0.252(3) -0.035(2) 0.647(2)
O21 O 0.5000 0.0000 0.5000
O22 O -0.150(4) 0.043(4) 0.551(4)
O13A O -0.042(4) 0.121(4) 0.465(3)
O14A O 0.070(4) 0.049(4) 0.540(4)
O17A O 0.018(4) 0.061(4) 0.379(4)
O22A O 0.150(4) -0.043(4) 0.449(4)
Cu1A Cu -0.5648(5) -0.0571(4) 0.7467(4)
Cu2A Cu -0.1488(5) -0.9960(3) 0.9902(4)
N1A N -0.072(3) -1.332(2) 1.081(2)
N2A N -0.065(3) -1.324(2) 1.171(2)
N3A N -0.105(3) -1.155(2) 1.055(2)
N4A N -0.339(3) -1.274(2) 1.319(2)
N5A N -0.371(3) -1.243(3) 1.221(3)
N6A N -0.509(3) -0.208(2) 0.760(2)
N7A N -0.496(3) -0.375(3) 0.780(2)
N8A N -0.372(4) -0.379(3) 0.786(3)
N9A N -0.265(3) -0.671(2) 0.806(2)
N10A N -0.268(3) -0.655(3) 0.898(3)
N11A N -0.208(3) -0.839(2) 0.922(2)
C1A C -0.090(4) -1.228(3) 1.014(3)
H1A H -0.0922 -1.2081 0.9413
C2A C -0.084(3) -1.216(3) 1.155(3)
H2A H -0.0828 -1.1886 1.2055
C3A C -0.056(4) -1.422(3) 1.273(3)
H3A H 0.0140 -1.4843 1.2605
H4A H -0.0331 -1.4036 1.3252
C4A C -0.184(3) -1.456(2) 1.320(2)
H5A H -0.1642 -1.5347 1.3671
H6A H -0.2200 -1.4504 1.2614
C5A C -0.288(4) -1.390(3) 1.383(3)
H7A H -0.2521 -1.3937 1.4409
H8A H -0.3613 -1.4256 1.4166
C6A C -0.350(4) -1.184(3) 1.339(3)
H9A H -0.3303 -1.1872 1.4014
C7A C -0.405(4) -1.133(3) 1.188(3)
H10A H -0.4353 -1.0863 1.1233
C8A C -0.376(5) -0.275(4) 0.766(4)
H11A H -0.3034 -0.2489 0.7566
C9A C -0.577(4) -0.272(3) 0.754(3)
H12A H -0.6609 -0.2488 0.7371
C10A C -0.519(4) -0.479(3) 0.801(3)
H13A H -0.4896 -0.5332 0.8679
H14A H -0.6127 -0.4693 0.8092
C11A C -0.443(5) -0.527(3) 0.706(3)
H15A H -0.4555 -0.4671 0.6364
H16A H -0.4811 -0.5848 0.7125
C12A C -0.302(4) -0.575(3) 0.707(3)
H17A H -0.2618 -0.5981 0.6458
H18A H -0.2639 -0.5159 0.6979
C13A C -0.229(4) -0.779(3) 0.819(3)
H19A H -0.2200 -0.8074 0.7663
C14A C -0.225(4) -0.762(3) 0.969(3)
H20A H -0.2107 -0.7804 1.0375
N12A N -0.391(4) -1.091(3) 1.260(3)
W1A W -0.23859(13) -0.02696(11) 0.73905(10)
W2A W -0.27697(12) 0.22977(9) 0.51852(9)
W3A W 0.05376(12) 0.23763(9) 0.51055(9)
W4A W -0.03902(12) 0.25653(9) 0.27797(9)
W5A W -0.08819(12) 0.01705(11) 0.26667(10)
W6A W -0.32203(19) -0.00534(18) 0.50397(15)
O1A O -0.345(3) -0.043(2) 0.856(2)
O2A O -0.132(3) -0.174(3) 0.762(2)
O3A O -0.097(3) -0.005(2) 0.773(3)
O4A O -0.323(3) -0.047(2) 0.656(2)
O5A O -0.298(3) 0.132(2) 0.667(2)
O6A O -0.397(3) 0.341(2) 0.524(2)
O7A O -0.131(2) 0.262(2) 0.5382(19)
O8A O -0.202(2) 0.281(2) 0.368(2)
O9A O -0.350(3) 0.147(2) 0.489(2)
O10A O 0.073(3) 0.351(2) 0.515(2)
O11A O 0.227(3) 0.159(2) 0.480(2)
O12A O 0.037(2) 0.288(2) 0.365(2)
O15A O -0.057(3) 0.376(2) 0.171(2)
O16A O -0.099(3) 0.170(2) 0.236(2)
O18A O -0.123(3) 0.028(2) 0.1512(19)
O19A O -0.045(3) -0.139(2) 0.342(2)
O20A O -0.252(3) 0.035(2) 0.353(2)
Cu1_2 Cu -0.4352(5) -0.9429(4) 1.2533(4)
Cu1_3 Cu -0.4352(5) 0.0571(4) 0.2533(4)
Cu1A_2 Cu 0.4352(5) -0.0571(4) 0.7467(4)
Cu1A_3 Cu 0.4352(5) 0.9429(4) -0.2533(4)
Cu2_2 Cu 0.1488(5) -0.0040(3) 1.0098(4)
Cu2A_2 Cu -0.1488(5) 0.0040(3) -0.0098(4)
N12_2 N -0.609(4) 0.091(3) 0.740(3)
N12A_2 N 0.609(4) -0.091(3) 0.260(3)
W6A_2 W 0.67797(19) -0.00534(18) 0.50397(15)
O18_2 O 0.123(3) 0.972(2) -0.1512(19)
O18A_2 O -0.123(3) -0.972(2) 1.1512(19)
O20_2 O -0.748(3) -0.035(2) 0.647(2)
O20A_2 O 0.748(3) 0.035(2) 0.353(2)
O21_2 O -0.5000 0.0000 0.5000
loop_
_geom_bond_atom_site_label_1
_geom_bond_atom_site_label_2
_geom_bond_site_symmetry_1
_geom_bond_site_symmetry_2
Cu1 N6 1_555 1_555
Cu2 N3 1_555 1_555
N1 N2 1_555 1_555
N2 C2 1_555 1_555
N3 C1 1_555 1_555
N4 N5 1_555 1_555
N5 C7 1_555 1_555
N6 C8 1_555 1_555
N7 N8 1_555 1_555
N8 C8 1_555 1_555
N9 N10 1_555 1_555
N10 C14 1_555 1_555
N11 Cu2 1_555 1_555
C1 N1 1_555 1_555
H1 C1 1_555 1_555
C2 N3 1_555 1_555
H2 C2 1_555 1_555
C3 N2 1_555 1_555
H3 C3 1_555 1_555
H4 C3 1_555 1_555
C4 C3 1_555 1_555
H5 C4 1_555 1_555
H6 C4 1_555 1_555
C5 N4 1_555 1_555
H7 C5 1_555 1_555
H8 C5 1_555 1_555
C6 N4 1_555 1_555
H9 C6 1_555 1_555
C7 H10 1_555 1_555
C8 H11 1_555 1_555
C9 N6 1_555 1_555
H12 C9 1_555 1_555
C10 N7 1_555 1_555
H13 C10 1_555 1_555
H14 C10 1_555 1_555
C11 C10 1_555 1_555
H15 C11 1_555 1_555
H16 C11 1_555 1_555
C12 N9 1_555 1_555
H17 C12 1_555 1_555
H18 C12 1_555 1_555
C13 N9 1_555 1_555
H19 C13 1_555 1_555
C14 N11 1_555 1_555
H20 C14 1_555 1_555
N12 C6 1_555 1_555
W1 O1 1_555 1_555
W2 O5 1_555 1_555
W3 O7 1_555 1_555
W4 O8 1_555 1_555
W5 O16 1_555 1_555
W6 O4 1_555 1_555
P1 O13 1_555 1_555
O2 W1 1_555 1_555
O3 W1 1_555 1_555
O4 Cu1 1_555 1_555
O5 W1 1_555 1_555
O6 W2 1_555 1_555
O7 W2 1_555 1_555
O8 W2 1_555 1_555
O9 W2 1_555 1_555
O10 W3 1_555 1_555
O11 W3 1_555 1_555
O12 W3 1_555 1_555
O13 W4 1_555 1_555
O14 W3 1_555 1_555
O15 W4 1_555 1_555
O16 W4 1_555 1_555
O17 W4 1_555 1_555
O18 W5 1_555 1_555
O19 W5 1_555 1_555
O20 W5 1_555 1_555
O21 W6 1_555 1_555
O22 P1 1_555 1_555
O23 H21 1_555 1_555
H22 O23 1_555 1_555
O13A P1 1_555 1_555
O14A W5 1_555 1_555
O17A P1 1_555 1_555
O22A W1 1_555 1_555
Cu1A N6A 1_555 1_555
Cu2A N3A 1_555 1_555
N1A N2A 1_555 1_555
N2A C2A 1_555 1_555
N3A C1A 1_555 1_555
N4A N5A 1_555 1_555
N5A C7A 1_555 1_555
N6A C8A 1_555 1_555
N7A N8A 1_555 1_555
N8A C8A 1_555 1_555
N9A N10A 1_555 1_555
N10A C14A 1_555 1_555
N11A Cu2A 1_555 1_555
C1A N1A 1_555 1_555
H1A C1A 1_555 1_555
C2A N3A 1_555 1_555
H2A C2A 1_555 1_555
C3A N2A 1_555 1_555
H3A C3A 1_555 1_555
H4A C3A 1_555 1_555
C4A C3A 1_555 1_555
H5A C4A 1_555 1_555
H6A C4A 1_555 1_555
C5A N4A 1_555 1_555
H7A C5A 1_555 1_555
H8A C5A 1_555 1_555
C6A N4A 1_555 1_555
H9A C6A 1_555 1_555
C7A H10A 1_555 1_555
C8A H11A 1_555 1_555
C9A N6A 1_555 1_555
H12A C9A 1_555 1_555
C10A N7A 1_555 1_555
H13A C10A 1_555 1_555
H14A C10A 1_555 1_555
C11A C10A 1_555 1_555
H15A C11A 1_555 1_555
H16A C11A 1_555 1_555
C12A N9A 1_555 1_555
H17A C12A 1_555 1_555
H18A C12A 1_555 1_555
C13A N9A 1_555 1_555
H19A C13A 1_555 1_555
C14A N11A 1_555 1_555
H20A C14A 1_555 1_555
N12A C6A 1_555 1_555
W1A O22 1_555 1_555
W2A O22 1_555 1_555
W3A O19 1_555 1_555
W4A O2 1_555 1_555
W5A O3 1_555 1_555
W6A O11 1_555 1_555
O1A W1A 1_555 1_555
O2A W4 1_555 1_555
O3A W5 1_555 1_555
O4A Cu1A 1_555 1_555
O5A W1A 1_555 1_555
O6A W2A 1_555 1_555
O7A W2A 1_555 1_555
O8A W2A 1_555 1_555
O9A W2A 1_555 1_555
O10A W3A 1_555 1_555
O11A W6 1_555 1_555
O12A W3A 1_555 1_555
O15A W4A 1_555 1_555
O16A W4A 1_555 1_555
O18A W5A 1_555 1_555
O19A W3 1_555 1_555
O20A W5A 1_555 1_555
Cu1_2 N12A 1_555 1_555
Cu1_3 O20A 1_555 1_555
Cu1A_2 O20 1_555 1_555
Cu1A_3 N12 1_555 1_555
Cu2_2 O18 1_555 1_555
Cu2A_2 O18A 1_555 1_555
N12_2 Cu1A 1_555 1_555
N12A_2 Cu1 1_555 1_555
W6A_2 O21 1_555 1_555
O18_2 Cu2 1_555 1_555
O18A_2 Cu2A 1_555 1_555
O20_2 Cu1A 1_555 1_555
O20A_2 Cu1 1_555 1_555
O21_2 W6A 1_555 1_555
N7 C9 1_555 1_555
N11 C13 1_555 1_555
C4 C5 1_555 1_555
C7 N12 1_555 1_555
C11 C12 1_555 1_555
W1 O4 1_555 1_555
W2 O22A 1_555 1_555
W4 O12 1_555 1_555
W6 O9 1_555 1_555
W6 O20 1_555 1_555
P1 O14 1_555 1_555
P1 O17 1_555 1_555
P1 O14A 1_555 1_555
P1 O22A 1_555 1_555
O13 O14 1_555 1_555
O13 O17 1_555 1_555
O13 O22A 1_555 1_555
O14 W5A 1_555 1_555
O17 O22 1_555 1_555
O22 O13A 1_555 1_555
O13A O14A 1_555 1_555
O13A O17A 1_555 1_555
O13A W4A 1_555 1_555
O14A W3A 1_555 1_555
O17A O22A 1_555 1_555
O17A W4A 1_555 1_555
N7A C9A 1_555 1_555
N11A C13A 1_555 1_555
C4A C5A 1_555 1_555
C7A N12A 1_555 1_555
C11A C12A 1_555 1_555
W1A O2A 1_555 1_555
W1A O3A 1_555 1_555
W1A O4A 1_555 1_555
W2A O5A 1_555 1_555
W3A O7A 1_555 1_555
W3A O11A 1_555 1_555
W4A O8A 1_555 1_555
W4A O12A 1_555 1_555
W5A O16A 1_555 1_555
W5A O19A 1_555 1_555
W6A O4A 1_555 1_555
W6A O9A 1_555 1_555
W6A O20A 1_555 1_555
W6A_2 O20A_2 1_555 1_555

#END
