
#######################################################################
#
#                 Cambridge Crystallographic Data Centre
#                                CCDC 
#
#######################################################################
#
# If this CIF has been generated from an entry in the Cambridge 
# Structural Database, then it will include bibliographic, chemical, 
# crystal, experimental, refinement or atomic coordinate data resulting 
# from the CCDC's data processing and validation procedures.
#
#######################################################################

data_LOKDAR
_symmetry_cell_setting           orthorhombic
_symmetry_space_group_name_H-M   'F m m 2'
_symmetry_Int_Tables_number      42
_space_group_name_Hall           'F 2 -2'
loop_
_symmetry_equiv_pos_site_id
_symmetry_equiv_pos_as_xyz
1 x,y,z
2 -x,-y,z
3 x,-y,z
4 -x,y,z
5 x,1/2+y,1/2+z
6 -x,1/2-y,1/2+z
7 x,1/2-y,1/2+z
8 -x,1/2+y,1/2+z
9 1/2+x,y,1/2+z
10 1/2-x,-y,1/2+z
11 1/2+x,-y,1/2+z
12 1/2-x,y,1/2+z
13 1/2+x,1/2+y,z
14 1/2-x,1/2-y,z
15 1/2+x,1/2-y,z
16 1/2-x,1/2+y,z
_cell_length_a                   6.6892(2)
_cell_length_b                   11.2926(3)
_cell_length_c                   14.2428(3)
_cell_angle_alpha                90
_cell_angle_beta                 90
_cell_angle_gamma                90
_cell_volume                     1075.88
loop_
_atom_site_label
_atom_site_type_symbol
_atom_site_fract_x
_atom_site_fract_y
_atom_site_fract_z
Tb1 Tb 1.0000 0.5000 0.1943
O1 O 0.6618(8) 0.5000 0.1956(17)
O2 O 1.0000 0.3046(6) 0.2398(5)
N1 N 1.0000 0.3740(6) 0.0494(5)
N2 N 1.0000 0.205(2) -0.0175(14)
N3 N 1.0000 0.2900(19) -0.0826(15)
N4 N 1.0000 0.2540(6) 0.0576(5)
C1 C 1.0000 0.3923(7) -0.0414(5)
O3 O 1.0000 0.5000 0.3611(7)
N5 N 1.0000 0.5000 -0.0870(7)
H1 H 1.0000 0.5000 -0.1473
C2 C 0.5000 0.5000 0.1603(9)
H2 H 0.5000 0.5000 0.0950
Tb1_2 Tb 0.0000 0.5000 0.1943
O1A O 0.3382(8) 0.5000 0.1956(17)
O1A_2 O 1.3382(8) 0.5000 0.1956(17)
O2A O 1.0000 0.6954(6) 0.2398(5)
N1A N 1.0000 0.6260(6) 0.0494(5)
N2A N 1.0000 0.795(2) -0.0175(14)
N3A N 1.0000 0.7100(19) -0.0826(15)
N4A N 1.0000 0.7460(6) 0.0576(5)
C1A C 1.0000 0.6077(7) -0.0414(5)
loop_
_geom_bond_atom_site_label_1
_geom_bond_atom_site_label_2
_geom_bond_site_symmetry_1
_geom_bond_site_symmetry_2
Tb1 O1 1_555 1_555
O1 C2 1_555 1_555
O2 Tb1 1_555 1_555
N1 Tb1 1_555 1_555
N2 N3 1_555 1_555
N3 C1 1_555 1_555
N4 N1 1_555 1_555
C1 N1 1_555 1_555
O3 Tb1 1_555 1_555
N5 C1 1_555 1_555
H1 N5 1_555 1_555
C2 H2 1_555 1_555
Tb1_2 O1A 1_555 1_555
O1A C2 1_555 1_555
O1A_2 Tb1 1_555 1_555
O2A Tb1 1_555 1_555
N1A Tb1 1_555 1_555
N2A N3A 1_555 1_555
N3A C1A 1_555 1_555
N4A N1A 1_555 1_555
C1A N5 1_555 1_555
N2 N4 1_555 1_555
N1A C1A 1_555 1_555
N2A N4A 1_555 1_555

#END
