
#######################################################################
#
#                 Cambridge Crystallographic Data Centre
#                                CCDC 
#
#######################################################################
#
# If this CIF has been generated from an entry in the Cambridge 
# Structural Database, then it will include bibliographic, chemical, 
# crystal, experimental, refinement or atomic coordinate data resulting 
# from the CCDC's data processing and validation procedures.
#
#######################################################################

data_LOKGUO
_symmetry_cell_setting           triclinic
_symmetry_space_group_name_H-M   'P -1'
_symmetry_Int_Tables_number      2
_space_group_name_Hall           '-P 1'
loop_
_symmetry_equiv_pos_site_id
_symmetry_equiv_pos_as_xyz
1 x,y,z
2 -x,-y,-z
_cell_length_a                   8.9863(13)
_cell_length_b                   17.0138(15)
_cell_length_c                   20.087(3)
_cell_angle_alpha                100.407(12)
_cell_angle_beta                 101.125(14)
_cell_angle_gamma                90.537(10)
_cell_volume                     2960.73
loop_
_atom_site_label
_atom_site_type_symbol
_atom_site_fract_x
_atom_site_fract_y
_atom_site_fract_z
Ag1 Ag -0.28242(4) 0.06722(3) -0.50123(2)
Ag2 Ag 0.27039(5) 0.54427(3) 0.47575(2)
N1 N -0.0808(4) 0.0516(2) -0.4263(2)
N2 N 0.3782(4) 0.0843(2) -0.23011(19)
H1 H 0.3491 0.1293 -0.2406
N3 N 0.6494(4) 0.3245(2) 0.22312(19)
H2 H 0.6329 0.3004 0.2553
N4 N 0.3955(5) 0.4996(3) 0.3968(2)
N5 N -0.8606(4) -0.4509(2) -1.4452(2)
N6 N -1.1181(4) -0.3436(2) -1.24595(19)
H3 H -1.0969 -0.3070 -1.2676
N7 N -0.8963(4) -0.0840(2) -0.78506(19)
H4 H -0.8424 -0.1193 -0.7674
N8 N -0.4813(4) 0.0411(3) -0.5838(2)
O1 O 0.3312(4) -0.0495(2) -0.26288(18)
O2 O 0.6451(5) 0.4461(2) 0.1923(2)
O3 O -1.1077(5) -0.4767(2) -1.2461(2)
O4 O -0.9215(4) 0.0495(2) -0.77566(19)
C1 C -0.0297(5) -0.0198(3) -0.4193(2)
H5 H -0.0802 -0.0645 -0.4489
C2 C 0.0955(5) -0.0311(3) -0.3700(2)
H6 H 0.1291 -0.0823 -0.3677
C3 C 0.1688(5) 0.0338(3) -0.3250(2)
C4 C 0.1139(6) 0.1087(3) -0.3308(3)
H7 H 0.1593 0.1543 -0.3007
C5 C -0.0089(6) 0.1139(3) -0.3822(3)
H8 H -0.0439 0.1644 -0.3862
C6 C 0.3015(5) 0.0187(3) -0.2695(2)
C7 C 0.5014(5) 0.0884(3) -0.1733(2)
C8 C 0.5597(6) 0.0231(3) -0.1469(3)
H9 H 0.5206 -0.0283 -0.1671
C9 C 0.6782(6) 0.0355(3) -0.0894(3)
H10 H 0.7158 -0.0086 -0.0714
C10 C 0.7412(5) 0.1092(3) -0.0587(2)
C11 C 0.6823(6) 0.1737(3) -0.0870(3)
H11 H 0.7230 0.2250 -0.0673
C12 C 0.5640(6) 0.1632(3) -0.1439(3)
H12 H 0.5270 0.2072 -0.1622
C13 C 0.8678(5) 0.1232(3) 0.0052(2)
H13 H 0.8959 0.0723 0.0180
H14 H 0.9563 0.1478 -0.0052
C14 C 0.8182(5) 0.1770(3) 0.0651(2)
C15 C 0.8475(5) 0.2585(3) 0.0779(3)
H15 H 0.9057 0.2801 0.0515
C16 C 0.7930(5) 0.3092(3) 0.1290(2)
H16 H 0.8134 0.3641 0.1363
C17 C 0.7083(5) 0.2775(3) 0.1690(2)
C18 C 0.6812(5) 0.1959(3) 0.1578(2)
H17 H 0.6263 0.1741 0.1854
C19 C 0.7345(5) 0.1456(3) 0.1059(2)
H18 H 0.7138 0.0907 0.0985
C20 C 0.6163(5) 0.4019(3) 0.2302(2)
C21 C 0.4334(6) 0.5439(3) 0.3540(3)
H19 H 0.4108 0.5976 0.3603
C22 C 0.5060(6) 0.5130(3) 0.2997(3)
H20 H 0.5312 0.5459 0.2708
C23 C 0.5398(5) 0.4329(3) 0.2896(2)
C24 C 0.5031(6) 0.3880(3) 0.3348(3)
H21 H 0.5262 0.3344 0.3303
C25 C 0.4318(6) 0.4227(3) 0.3871(3)
H22 H 0.4077 0.3911 0.4172
C26 C -0.8585(6) -0.5037(3) -1.4042(3)
H23 H -0.8059 -0.5498 -1.4136
C27 C -0.9290(6) -0.4948(3) -1.3484(3)
H24 H -0.9225 -0.5339 -1.3212
C28 C -1.0091(5) -0.4276(3) -1.3331(2)
C29 C -1.0199(6) -0.3735(3) -1.3767(3)
H25 H -1.0780 -0.3289 -1.3697
C30 C -0.9448(6) -0.3854(3) -1.4309(3)
H26 H -0.9512 -0.3473 -1.4591
C31 C -1.0823(6) -0.4184(3) -1.2710(3)
C32 C -1.1865(5) -0.3179(3) -1.1881(2)
C33 C -1.2332(6) -0.3677(3) -1.1485(3)
H27 H -1.2227 -0.4225 -1.1597
C34 C -1.2960(6) -0.3363(4) -1.0919(3)
H28 H -1.3272 -0.3710 -1.0659
C35 C -1.3134(5) -0.2559(3) -1.0729(2)
C36 C -1.2694(6) -0.2078(3) -1.1141(3)
H29 H -1.2816 -0.1531 -1.1033
C37 C -1.2080(6) -0.2370(3) -1.1706(3)
H30 H -1.1806 -0.2021 -1.1973
C38 C -1.3767(5) -0.2223(3) -1.0093(2)
H31 H -1.4289 -0.2652 -0.9957
H32 H -1.4503 -0.1831 -1.0205
C39 C -1.2536(5) -0.1835(3) -0.9490(2)
C40 C -1.1602(7) -0.2301(3) -0.9104(3)
H33 H -1.1751 -0.2855 -0.9207
C41 C -1.0451(6) -0.1953(3) -0.8566(3)
H34 H -0.9845 -0.2277 -0.8310
C42 C -1.0186(5) -0.1139(3) -0.8404(2)
C43 C -1.1118(5) -0.0665(3) -0.8778(2)
H35 H -1.0969 -0.0111 -0.8676
C44 C -1.2285(5) -0.1026(3) -0.9312(2)
H36 H -1.2919 -0.0702 -0.9557
C45 C -0.8546(5) -0.0084(3) -0.7573(2)
C46 C -0.5608(6) 0.0996(3) -0.6084(3)
H37 H -0.5352 0.1524 -0.5869
C47 C -0.6791(5) 0.0838(3) -0.6646(3)
H38 H -0.7305 0.1259 -0.6808
C48 C -0.7217(5) 0.0063(3) -0.6968(2)
C49 C -0.6395(5) -0.0538(3) -0.6715(2)
H39 H -0.6628 -0.1071 -0.6923
C50 C -0.5217(6) -0.0337(3) -0.6146(3)
H40 H -0.4687 -0.0747 -0.5973
Ag2_2 Ag -0.72961(5) -0.45573(3) -1.52425(2)
N5_2 N 0.1394(4) 0.5491(2) 0.5548(2)
S1 S -0.27975(15) 0.26037(8) -0.47769(7)
O5 O -0.3432(5) 0.2104(2) -0.4369(2)
O6 O -0.4006(5) 0.3028(3) -0.5137(3)
O7 O -0.2080(4) 0.2083(2) -0.52904(19)
O8 O -0.1683(5) 0.3192(2) -0.4333(2)
loop_
_geom_bond_atom_site_label_1
_geom_bond_atom_site_label_2
_geom_bond_site_symmetry_1
_geom_bond_site_symmetry_2
Ag1 N1 1_555 1_555
Ag2 N4 1_555 1_555
N1 C1 1_555 1_555
N2 H1 1_555 1_555
N3 H2 1_555 1_555
N4 C21 1_555 1_555
N5 C26 1_555 1_555
N6 H3 1_555 1_555
N7 H4 1_555 1_555
N8 Ag1 1_555 1_555
O1 C6 1_555 1_555
O2 C20 1_555 1_555
O3 C31 1_555 1_555
O4 C45 1_555 1_555
C1 H5 1_555 1_555
C2 C1 1_555 1_555
H6 C2 1_555 1_555
C3 C2 1_555 1_555
C4 C3 1_555 1_555
H7 C4 1_555 1_555
C5 N1 1_555 1_555
H8 C5 1_555 1_555
C6 N2 1_555 1_555
C7 N2 1_555 1_555
C8 C7 1_555 1_555
H9 C8 1_555 1_555
C9 C8 1_555 1_555
H10 C9 1_555 1_555
C10 C9 1_555 1_555
C11 C10 1_555 1_555
H11 C11 1_555 1_555
C12 C7 1_555 1_555
H12 C12 1_555 1_555
C13 C10 1_555 1_555
H13 C13 1_555 1_555
H14 C13 1_555 1_555
C14 C13 1_555 1_555
C15 C14 1_555 1_555
H15 C15 1_555 1_555
C16 C15 1_555 1_555
H16 C16 1_555 1_555
C17 N3 1_555 1_555
C18 C17 1_555 1_555
H17 C18 1_555 1_555
C19 C14 1_555 1_555
H18 C19 1_555 1_555
C20 N3 1_555 1_555
C21 H19 1_555 1_555
C22 C21 1_555 1_555
H20 C22 1_555 1_555
C23 C20 1_555 1_555
C24 C23 1_555 1_555
H21 C24 1_555 1_555
C25 N4 1_555 1_555
H22 C25 1_555 1_555
C26 H23 1_555 1_555
C27 C26 1_555 1_555
H24 C27 1_555 1_555
C28 C27 1_555 1_555
C29 C28 1_555 1_555
H25 C29 1_555 1_555
C30 N5 1_555 1_555
H26 C30 1_555 1_555
C31 N6 1_555 1_555
C32 N6 1_555 1_555
C33 C32 1_555 1_555
H27 C33 1_555 1_555
C34 C33 1_555 1_555
H28 C34 1_555 1_555
C35 C34 1_555 1_555
C36 C35 1_555 1_555
H29 C36 1_555 1_555
C37 C32 1_555 1_555
H30 C37 1_555 1_555
C38 C35 1_555 1_555
H31 C38 1_555 1_555
H32 C38 1_555 1_555
C39 C38 1_555 1_555
C40 C39 1_555 1_555
H33 C40 1_555 1_555
C41 C40 1_555 1_555
H34 C41 1_555 1_555
C42 N7 1_555 1_555
C43 C42 1_555 1_555
H35 C43 1_555 1_555
C44 C39 1_555 1_555
H36 C44 1_555 1_555
C45 N7 1_555 1_555
C46 N8 1_555 1_555
H37 C46 1_555 1_555
C47 C46 1_555 1_555
H38 C47 1_555 1_555
C48 C45 1_555 1_555
C49 C48 1_555 1_555
H39 C49 1_555 1_555
C50 N8 1_555 1_555
H40 C50 1_555 1_555
S1 O5 1_555 1_555
O6 S1 1_555 1_555
O7 S1 1_555 1_555
O8 S1 1_555 1_555
Ag2_2 N5 1_555 1_555
N5_2 Ag2 1_555 1_555
C3 C6 1_555 1_555
C4 C5 1_555 1_555
C11 C12 1_555 1_555
C16 C17 1_555 1_555
C18 C19 1_555 1_555
C22 C23 1_555 1_555
C24 C25 1_555 1_555
C28 C31 1_555 1_555
C29 C30 1_555 1_555
C36 C37 1_555 1_555
C41 C42 1_555 1_555
C43 C44 1_555 1_555
C47 C48 1_555 1_555
C49 C50 1_555 1_555

#END
