
#######################################################################
#
#                 Cambridge Crystallographic Data Centre
#                                CCDC 
#
#######################################################################
#
# If this CIF has been generated from an entry in the Cambridge 
# Structural Database, then it will include bibliographic, chemical, 
# crystal, experimental, refinement or atomic coordinate data resulting 
# from the CCDC's data processing and validation procedures.
#
#######################################################################

data_LOKGOI
_symmetry_cell_setting           triclinic
_symmetry_space_group_name_H-M   'P -1'
_symmetry_Int_Tables_number      2
_space_group_name_Hall           '-P 1'
loop_
_symmetry_equiv_pos_site_id
_symmetry_equiv_pos_as_xyz
1 x,y,z
2 -x,-y,-z
_cell_length_a                   13.0788(10)
_cell_length_b                   16.1648(12)
_cell_length_c                   16.8279(12)
_cell_angle_alpha                105.6630(10)
_cell_angle_beta                 94.3490(10)
_cell_angle_gamma                112.7670(10)
_cell_volume                     3092.86
loop_
_atom_site_label
_atom_site_type_symbol
_atom_site_fract_x
_atom_site_fract_y
_atom_site_fract_z
Cu1 Cu 0.83510(3) 0.68719(2) 1.73692(2)
C1 C 0.7050(2) 0.4895(2) 1.73410(17)
H1 H 0.6593 0.5144 1.7618
C2 C 0.6731(2) 0.3935(2) 1.71237(18)
H2 H 0.6065 0.3548 1.7244
C3 C 0.7403(2) 0.3546(2) 1.67248(18)
C4 C 0.8385(3) 0.4157(2) 1.6564(2)
H3 H 0.8866 0.3925 1.6304
C5 C 0.8644(3) 0.5106(2) 1.6790(2)
H4 H 0.9304 0.5506 1.6673
C6 C 0.6983(3) 0.2488(2) 1.6450(2)
C7 C 0.7597(2) 0.1186(2) 1.60054(17)
C8 C 0.6536(3) 0.0426(2) 1.5668(2)
H5 H 0.5886 0.0530 1.5633
C9 C 0.6460(3) -0.0487(2) 1.5385(2)
H6 H 0.5750 -0.0993 1.5165
C10 C 0.7408(2) -0.06699(19) 1.54200(16)
C11 C 0.8440(2) 0.0091(2) 1.57648(19)
H7 H 0.9089 -0.0014 1.5808
C12 C 0.8540(2) 0.1011(2) 1.60504(19)
H8 H 0.9252 0.1513 1.6274
C13 C 0.7311(3) -0.1669(2) 1.50660(17)
H9 H 0.7908 -0.1731 1.5389
H10 H 0.6591 -0.2114 1.5123
C14 C 0.7398(2) -0.19152(18) 1.41479(16)
C15 C 0.6460(3) -0.2455(3) 1.3516(2)
H11 H 0.5756 -0.2706 1.3657
C16 C 0.6525(3) -0.2639(3) 1.2675(2)
H12 H 0.5870 -0.3008 1.2260
C17 C 0.7555(2) -0.2277(2) 1.24531(16)
C18 C 0.8498(2) -0.1756(2) 1.30769(18)
H13 H 0.9204 -0.1516 1.2936
C19 C 0.8421(3) -0.1581(2) 1.39119(19)
H14 H 0.9079 -0.1227 1.4326
C20 C 0.6907(2) -0.2783(2) 1.09048(17)
C21 C 0.7331(2) -0.2826(2) 1.00909(17)
C22 C 0.6648(3) -0.2836(3) 0.94171(19)
H15 H 0.5969 -0.2792 0.9480
C23 C 0.6973(3) -0.2908(3) 0.86613(19)
H16 H 0.6506 -0.2907 0.8217
C24 C 0.8585(3) -0.2975(2) 0.91739(18)
H17 H 0.9254 -0.3029 0.9092
C25 C 0.8324(3) -0.2892(2) 0.99578(18)
H18 H 0.8816 -0.2880 1.0395
C26 C 0.7657(3) 0.5986(3) 1.55224(19)
H19 H 0.7024 0.5577 1.5661
C27 C 0.7713(3) 0.5834(3) 1.46833(19)
H20 H 0.7127 0.5330 1.4271
C28 C 0.8629(2) 0.64236(19) 1.44548(16)
C29 C 0.9470(3) 0.7142(2) 1.50982(18)
H21 H 1.0117 0.7554 1.4978
C30 C 0.9356(3) 0.7253(2) 1.59191(18)
H22 H 0.9935 0.7750 1.6342
C31 C 0.8769(2) 0.62945(19) 1.35556(17)
C32 C 0.7704(2) 0.54894(19) 1.20760(17)
C33 C 0.6636(3) 0.5130(2) 1.15972(18)
H23 H 0.6027 0.5094 1.1861
C34 C 0.6457(3) 0.4820(2) 1.07238(19)
H24 H 0.5726 0.4571 1.0411
C35 C 0.7330(3) 0.4872(2) 1.03141(17)
C36 C 0.8399(3) 0.5250(3) 1.08041(19)
H25 H 0.9007 0.5292 1.0539
C37 C 0.8602(3) 0.5570(3) 1.16764(19)
H26 H 0.9336 0.5837 1.1989
C38 C 0.7133(3) 0.4510(2) 0.93606(18)
H27 H 0.7633 0.5003 0.9166
H28 H 0.6359 0.4365 0.9126
C39 C 0.7341(3) 0.3628(2) 0.90453(17)
C40 C 0.6542(3) 0.2762(2) 0.9012(2)
H29 H 0.5855 0.2713 0.9159
C41 C 0.6740(3) 0.1952(2) 0.8763(2)
H30 H 0.6189 0.1370 0.8748
C42 C 0.7759(2) 0.2011(2) 0.85362(18)
C43 C 0.8553(3) 0.2872(2) 0.8553(2)
H31 H 0.9234 0.2922 0.8394
C44 C 0.8338(3) 0.3671(2) 0.88084(19)
H32 H 0.8887 0.4252 0.8819
C45 C 0.8852(2) 0.1056(2) 0.82062(18)
C46 C 0.8732(3) 0.0059(2) 0.79602(18)
C47 C 0.7772(3) -0.0708(2) 0.74229(18)
H33 H 0.7168 -0.0617 0.7196
C48 C 0.7742(3) -0.1602(2) 0.72372(18)
H34 H 0.7107 -0.2108 0.6870
C49 C 0.9488(3) -0.1045(2) 0.8040(2)
H35 H 1.0083 -0.1155 0.8253
C50 C 0.9602(3) -0.0129(2) 0.8245(2)
H36 H 1.0272 0.0367 0.8579
C51 C 1.1021(5) 0.7206(5) 1.7809(5)
H37 H 1.1077 0.6983 1.7251
C52 C 1.2808(9) 0.7082(9) 1.8103(14)
H38 H 1.3487 0.7644 1.8186
H39 H 1.2591 0.6698 1.7520
H40 H 1.2943 0.6730 1.8443
C53 C 1.168(2) 0.718(2) 1.9057(9)
H41 H 1.1077 0.7348 1.9206
H42 H 1.2343 0.7554 1.9499
H43 H 1.1458 0.6519 1.8982
N1 N 0.7985(2) 0.54875(16) 1.71752(14)
N2 N 0.7766(2) 0.21511(17) 1.62920(16)
H44 H 0.8450 0.2569 1.6374
N3 N 0.7705(2) -0.24312(18) 1.16037(14)
H45 H 0.8390 -0.2280 1.1532
N4 N 0.7937(2) -0.29817(16) 0.85293(14)
N5 N 0.8470(2) 0.66941(16) 1.61427(14)
N6 N 0.78201(19) 0.57613(17) 1.29677(13)
H46 H 0.7204 0.5558 1.3151
N7 N 0.7894(2) 0.11608(17) 0.82894(16)
H47 H 0.7287 0.0646 0.8179
N8 N 0.8560(2) -0.17849(17) 0.75476(14)
N9 N 1.1913(4) 0.7345(4) 1.8344(5)
O1 O 0.5985(2) 0.19902(17) 1.6369(2)
O2 O 0.58976(19) -0.3058(2) 1.08869(13)
O3 O 0.97113(15) 0.66638(14) 1.34034(12)
O4 O 0.97797(17) 0.17154(15) 0.83199(14)
O5 O 1.0212(2) 0.72899(17) 1.78609(15)
Cu1_2 Cu 0.83510(3) -0.31281(2) 0.73692(2)
N4_2 N 0.7937(2) 0.70183(16) 1.85293(14)
N8_2 N 0.8560(2) 0.82151(17) 1.75476(14)
N10 N 0.5043(3) 0.5697(3) 1.6752(3)
O6 O 0.6012(2) 0.6187(2) 1.66977(17)
O7 O 0.4614(3) 0.4895(3) 1.6690(2)
O8 O 0.4424(4) 0.6109(4) 1.7031(3)
N11 N 0.6903(7) 0.0071(8) 1.2893(9)
O9 O 0.5909(9) -0.0539(10) 1.2994(9)
O10 O 0.7286(19) 0.0055(16) 1.2045(17)
O11 O 0.8025(14) 0.0371(8) 1.3447(7)
loop_
_geom_bond_atom_site_label_1
_geom_bond_atom_site_label_2
_geom_bond_site_symmetry_1
_geom_bond_site_symmetry_2
Cu1 N1 1_555 1_555
C1 H1 1_555 1_555
C2 C1 1_555 1_555
H2 C2 1_555 1_555
C3 C2 1_555 1_555
C4 C3 1_555 1_555
H3 C4 1_555 1_555
C5 C4 1_555 1_555
H4 C5 1_555 1_555
C6 C3 1_555 1_555
C7 C8 1_555 1_555
C8 H5 1_555 1_555
C9 C8 1_555 1_555
H6 C9 1_555 1_555
C10 C9 1_555 1_555
C11 C10 1_555 1_555
H7 C11 1_555 1_555
C12 C7 1_555 1_555
H8 C12 1_555 1_555
C13 C10 1_555 1_555
H9 C13 1_555 1_555
H10 C13 1_555 1_555
C14 C13 1_555 1_555
C15 C14 1_555 1_555
H11 C15 1_555 1_555
C16 C15 1_555 1_555
H12 C16 1_555 1_555
C17 C16 1_555 1_555
C18 C17 1_555 1_555
H13 C18 1_555 1_555
C19 C14 1_555 1_555
H14 C19 1_555 1_555
C20 C21 1_555 1_555
C21 C22 1_555 1_555
C22 H15 1_555 1_555
C23 C22 1_555 1_555
H16 C23 1_555 1_555
C24 H17 1_555 1_555
C25 C21 1_555 1_555
H18 C25 1_555 1_555
C26 H19 1_555 1_555
C27 C26 1_555 1_555
H20 C27 1_555 1_555
C28 C27 1_555 1_555
C29 C28 1_555 1_555
H21 C29 1_555 1_555
C30 C29 1_555 1_555
H22 C30 1_555 1_555
C31 C28 1_555 1_555
C32 C33 1_555 1_555
C33 H23 1_555 1_555
C34 C33 1_555 1_555
H24 C34 1_555 1_555
C35 C34 1_555 1_555
C36 C35 1_555 1_555
H25 C36 1_555 1_555
C37 C32 1_555 1_555
H26 C37 1_555 1_555
C38 C35 1_555 1_555
H27 C38 1_555 1_555
H28 C38 1_555 1_555
C39 C38 1_555 1_555
C40 C39 1_555 1_555
H29 C40 1_555 1_555
C41 C40 1_555 1_555
H30 C41 1_555 1_555
C42 C41 1_555 1_555
C43 C42 1_555 1_555
H31 C43 1_555 1_555
C44 C39 1_555 1_555
H32 C44 1_555 1_555
C45 C46 1_555 1_555
C46 C47 1_555 1_555
C47 H33 1_555 1_555
C48 C47 1_555 1_555
H34 C48 1_555 1_555
C49 H35 1_555 1_555
C50 C46 1_555 1_555
H36 C50 1_555 1_555
C51 H37 1_555 1_555
C52 H38 1_555 1_555
H39 C52 1_555 1_555
H40 C52 1_555 1_555
C53 H41 1_555 1_555
H42 C53 1_555 1_555
H43 C53 1_555 1_555
N1 C1 1_555 1_555
N2 C6 1_555 1_555
H44 N2 1_555 1_555
N3 C17 1_555 1_555
H45 N3 1_555 1_555
N4 C23 1_555 1_555
N5 Cu1 1_555 1_555
N6 C31 1_555 1_555
H46 N6 1_555 1_555
N7 C42 1_555 1_555
H47 N7 1_555 1_555
N8 C48 1_555 1_555
N9 C51 1_555 1_555
O1 C6 1_555 1_555
O2 C20 1_555 1_555
O3 C31 1_555 1_555
O4 C45 1_555 1_555
O5 Cu1 1_555 1_555
N10 O6 1_555 1_555
O7 N10 1_555 1_555
O8 N10 1_555 1_555
N11 O9 1_555 1_555
O10 N11 1_555 1_555
O11 N11 1_555 1_555
Cu1_2 N4 1_555 1_555
N4_2 Cu1 1_555 1_555
N8_2 Cu1 1_555 1_555
C5 N1 1_555 1_555
C7 N2 1_555 1_555
C11 C12 1_555 1_555
C18 C19 1_555 1_555
C20 N3 1_555 1_555
C24 C25 1_555 1_555
C24 N4 1_555 1_555
C26 N5 1_555 1_555
C30 N5 1_555 1_555
C32 N6 1_555 1_555
C36 C37 1_555 1_555
C43 C44 1_555 1_555
C45 N7 1_555 1_555
C49 C50 1_555 1_555
C49 N8 1_555 1_555
C51 O5 1_555 1_555
C52 N9 1_555 1_555
C53 N9 1_555 1_555
N8 Cu1_2 1_555 1_555

#END
