
#######################################################################
#
#                 Cambridge Crystallographic Data Centre
#                                CCDC 
#
#######################################################################
#
# If this CIF has been generated from an entry in the Cambridge 
# Structural Database, then it will include bibliographic, chemical, 
# crystal, experimental, refinement or atomic coordinate data resulting 
# from the CCDC's data processing and validation procedures.
#
#######################################################################

data_LOKGIC
_symmetry_cell_setting           monoclinic
_symmetry_space_group_name_H-M   'C 2/c'
_symmetry_Int_Tables_number      15
_space_group_name_Hall           '-C 2yn'
loop_
_symmetry_equiv_pos_site_id
_symmetry_equiv_pos_as_xyz
1 x,y,z
2 -x,y,1/2-z
3 1/2+x,1/2+y,z
4 1/2-x,1/2+y,1/2-z
5 -x,-y,-z
6 x,-y,1/2+z
7 1/2-x,1/2-y,-z
8 1/2+x,1/2-y,1/2+z
_cell_length_a                   26.737(4)
_cell_length_b                   19.056(4)
_cell_length_c                   15.746(3)
_cell_angle_alpha                90
_cell_angle_beta                 122.044(13)
_cell_angle_gamma                90
_cell_volume                     6800.28
loop_
_atom_site_label
_atom_site_type_symbol
_atom_site_fract_x
_atom_site_fract_y
_atom_site_fract_z
Cu1 Cu 1.0000 -0.89262(6) 1.7500
Br1 Br 1.05637(3) -0.88809(4) 1.62866(5)
N1 N 0.9422(2) -0.8187(3) 1.6584(4)
N2 N 0.8235(2) -0.6318(3) 1.3974(4)
H1 H 0.8438 -0.6606 1.3851
N3 N 0.8282(3) -0.1596(3) 1.4072(4)
H2 H 0.8489 -0.1301 1.3899
N4 N 0.9430(2) 0.0301(3) 1.6622(4)
O1 O 0.7782(2) -0.6474(3) 1.4843(4)
O2 O 0.7984(4) -0.1621(5) 1.5155(7)
C1 C 0.9576(3) -0.7672(4) 1.6245(6)
H3 H 0.9970 -0.7639 1.6437
C2 C 0.9186(3) -0.7163(4) 1.5609(6)
H4 H 0.9325 -0.6804 1.5388
C3 C 0.8621(3) -0.7178(4) 1.5308(5)
C4 C 0.8435(3) -0.7742(4) 1.5649(5)
H5 H 0.8043 -0.7784 1.5458
C5 C 0.8851(3) -0.8236(4) 1.6277(5)
H6 H 0.8727 -0.8615 1.6492
C6 C 0.8174(3) -0.6627(4) 1.4672(5)
C7 C 0.7908(3) -0.5758(4) 1.3335(5)
C8 C 0.7411(3) -0.5477(4) 1.3243(6)
H7 H 0.7255 -0.5673 1.3594
C9 C 0.7137(4) -0.4894(4) 1.2620(6)
H8 H 0.6799 -0.4705 1.2561
C10 C 0.7363(3) -0.4603(3) 1.2099(5)
C11 C 0.7808(4) -0.4911(5) 1.2112(7)
H9 H 0.7929 -0.4752 1.1690
C12 C 0.8103(4) -0.5478(5) 1.2761(6)
H10 H 0.8436 -0.5666 1.2800
C13 C 0.7082(3) -0.3934(3) 1.1471(5)
H11 H 0.7133 -0.3931 1.0905
H12 H 0.6663 -0.3929 1.1214
C14 C 0.7375(3) -0.3280(3) 1.2122(5)
C15 C 0.7816(3) -0.2940(4) 1.2118(5)
H13 H 0.7926 -0.3086 1.1677
C16 C 0.8109(3) -0.2384(4) 1.2744(5)
H14 H 0.8410 -0.2158 1.2722
C17 C 0.7951(3) -0.2165(4) 1.3407(5)
C18 C 0.7479(4) -0.2463(4) 1.3355(7)
H15 H 0.7339 -0.2283 1.3741
C19 C 0.7201(4) -0.3027(5) 1.2741(7)
H16 H 0.6890 -0.3241 1.2745
C20 C 0.8287(4) -0.1379(5) 1.4863(7)
C21 C 0.9233(3) 0.0236(4) 1.5670(5)
H17 H 0.9340 0.0574 1.5370
C22 C 0.8870(3) -0.0314(4) 1.5075(6)
H18 H 0.8753 -0.0339 1.4405
C23 C 0.8695(3) -0.0789(4) 1.5448(5)
C24 C 0.8910(4) -0.0763(5) 1.6482(6)
H19 H 0.8814 -0.1108 1.6789
C25 C 0.9270(4) -0.0209(5) 1.7017(6)
H20 H 0.9411 -0.0187 1.7698
Cu1_2 Cu 1.0000 0.10738(6) 1.7500
Br1A Br 0.94363(3) -0.88809(4) 1.87134(5)
N1A N 1.0578(2) -0.8187(3) 1.8416(4)
N2A N 1.1765(2) -0.6318(3) 2.1026(4)
H1A H 1.1562 -0.6606 2.1149
N3A N 1.1718(3) -0.1596(3) 2.0928(4)
H2A H 1.1511 -0.1301 2.1101
N4A N 1.0570(2) 0.0301(3) 1.8378(4)
N4_2 N 0.9430(2) -0.9699(3) 1.6622(4)
N4A_2 N 1.0570(2) -0.9699(3) 1.8378(4)
O1A O 1.2218(2) -0.6474(3) 2.0157(4)
O2A O 1.2016(4) -0.1621(5) 1.9845(7)
C1A C 1.0424(3) -0.7672(4) 1.8755(6)
H3A H 1.0030 -0.7639 1.8563
C2A C 1.0814(3) -0.7163(4) 1.9391(6)
H4A H 1.0675 -0.6804 1.9612
C3A C 1.1379(3) -0.7178(4) 1.9692(5)
C4A C 1.1565(3) -0.7742(4) 1.9351(5)
H5A H 1.1957 -0.7784 1.9542
C5A C 1.1149(3) -0.8236(4) 1.8723(5)
H6A H 1.1273 -0.8615 1.8508
C6A C 1.1826(3) -0.6627(4) 2.0328(5)
C7A C 1.2092(3) -0.5758(4) 2.1665(5)
C8A C 1.2589(3) -0.5477(4) 2.1757(6)
H7A H 1.2745 -0.5673 2.1406
C9A C 1.2863(4) -0.4894(4) 2.2380(6)
H8A H 1.3201 -0.4705 2.2439
C10A C 1.2637(3) -0.4603(3) 2.2901(5)
C11A C 1.2192(4) -0.4911(5) 2.2888(7)
H9A H 1.2071 -0.4752 2.3310
C12A C 1.1897(4) -0.5478(5) 2.2239(6)
H10A H 1.1564 -0.5666 2.2200
C13A C 1.2918(3) -0.3934(3) 2.3529(5)
H11A H 1.2867 -0.3931 2.4095
H12A H 1.3337 -0.3929 2.3786
C14A C 1.2625(3) -0.3280(3) 2.2878(5)
C15A C 1.2184(3) -0.2940(4) 2.2882(5)
H13A H 1.2074 -0.3086 2.3323
C16A C 1.1891(3) -0.2384(4) 2.2256(5)
H14A H 1.1590 -0.2158 2.2278
C17A C 1.2049(3) -0.2165(4) 2.1593(5)
C18A C 1.2521(4) -0.2463(4) 2.1645(7)
H15A H 1.2661 -0.2283 2.1259
C19A C 1.2799(4) -0.3027(5) 2.2259(7)
H16A H 1.3110 -0.3241 2.2255
C20A C 1.1713(4) -0.1379(5) 2.0137(7)
C21A C 1.0767(3) 0.0236(4) 1.9330(5)
H17A H 1.0660 0.0574 1.9630
C22A C 1.1130(3) -0.0314(4) 1.9925(6)
H18A H 1.1247 -0.0339 2.0595
C23A C 1.1305(3) -0.0789(4) 1.9552(5)
C24A C 1.1090(4) -0.0763(5) 1.8518(6)
H19A H 1.1186 -0.1108 1.8211
C25A C 1.0730(4) -0.0209(5) 1.7983(6)
H20A H 1.0589 -0.0187 1.7302
loop_
_geom_bond_atom_site_label_1
_geom_bond_atom_site_label_2
_geom_bond_site_symmetry_1
_geom_bond_site_symmetry_2
Cu1 Br1 1_555 1_555
N1 Cu1 1_555 1_555
N2 H1 1_555 1_555
N3 H2 1_555 1_555
N4 C21 1_555 1_555
O1 C6 1_555 1_555
O2 C20 1_555 1_555
C1 N1 1_555 1_555
H3 C1 1_555 1_555
C2 C1 1_555 1_555
H4 C2 1_555 1_555
C3 C2 1_555 1_555
C4 C3 1_555 1_555
H5 C4 1_555 1_555
C5 N1 1_555 1_555
H6 C5 1_555 1_555
C6 N2 1_555 1_555
C7 N2 1_555 1_555
C8 C7 1_555 1_555
H7 C8 1_555 1_555
C9 C8 1_555 1_555
H8 C9 1_555 1_555
C10 C9 1_555 1_555
C11 C10 1_555 1_555
H9 C11 1_555 1_555
C12 C7 1_555 1_555
H10 C12 1_555 1_555
C13 C10 1_555 1_555
H11 C13 1_555 1_555
H12 C13 1_555 1_555
C14 C13 1_555 1_555
C15 C14 1_555 1_555
H13 C15 1_555 1_555
C16 C15 1_555 1_555
H14 C16 1_555 1_555
C17 N3 1_555 1_555
C18 C17 1_555 1_555
H15 C18 1_555 1_555
C19 C14 1_555 1_555
H16 C19 1_555 1_555
C20 N3 1_555 1_555
C21 H17 1_555 1_555
C22 C21 1_555 1_555
H18 C22 1_555 1_555
C23 C20 1_555 1_555
C24 C23 1_555 1_555
H19 C24 1_555 1_555
C25 N4 1_555 1_555
H20 C25 1_555 1_555
Cu1_2 N4 1_555 1_555
Br1A Cu1 1_555 1_555
N1A Cu1 1_555 1_555
N2A H1A 1_555 1_555
N3A H2A 1_555 1_555
N4A Cu1_2 1_555 1_555
N4_2 Cu1 1_555 1_555
N4A_2 Cu1 1_555 1_555
O1A C6A 1_555 1_555
O2A C20A 1_555 1_555
C1A N1A 1_555 1_555
H3A C1A 1_555 1_555
C2A C1A 1_555 1_555
H4A C2A 1_555 1_555
C3A C2A 1_555 1_555
C4A C3A 1_555 1_555
H5A C4A 1_555 1_555
C5A N1A 1_555 1_555
H6A C5A 1_555 1_555
C6A N2A 1_555 1_555
C7A N2A 1_555 1_555
C8A C7A 1_555 1_555
H7A C8A 1_555 1_555
C9A C8A 1_555 1_555
H8A C9A 1_555 1_555
C10A C9A 1_555 1_555
C11A C10A 1_555 1_555
H9A C11A 1_555 1_555
C12A C7A 1_555 1_555
H10A C12A 1_555 1_555
C13A C10A 1_555 1_555
H11A C13A 1_555 1_555
H12A C13A 1_555 1_555
C14A C13A 1_555 1_555
C15A C14A 1_555 1_555
H13A C15A 1_555 1_555
C16A C15A 1_555 1_555
H14A C16A 1_555 1_555
C17A N3A 1_555 1_555
C18A C17A 1_555 1_555
H15A C18A 1_555 1_555
C19A C14A 1_555 1_555
H16A C19A 1_555 1_555
C20A N3A 1_555 1_555
C21A N4A 1_555 1_555
H17A C21A 1_555 1_555
C22A C21A 1_555 1_555
H18A C22A 1_555 1_555
C23A C20A 1_555 1_555
C24A C23A 1_555 1_555
H19A C24A 1_555 1_555
C25A N4A 1_555 1_555
H20A C25A 1_555 1_555
C3 C6 1_555 1_555
C4 C5 1_555 1_555
C11 C12 1_555 1_555
C16 C17 1_555 1_555
C18 C19 1_555 1_555
C22 C23 1_555 1_555
C24 C25 1_555 1_555
C3A C6A 1_555 1_555
C4A C5A 1_555 1_555
C11A C12A 1_555 1_555
C16A C17A 1_555 1_555
C18A C19A 1_555 1_555
C22A C23A 1_555 1_555
C24A C25A 1_555 1_555

#END
