
#######################################################################
#
#                 Cambridge Crystallographic Data Centre
#                                CCDC 
#
#######################################################################
#
# If this CIF has been generated from an entry in the Cambridge 
# Structural Database, then it will include bibliographic, chemical, 
# crystal, experimental, refinement or atomic coordinate data resulting 
# from the CCDC's data processing and validation procedures.
#
#######################################################################

data_LOKJUR
_symmetry_cell_setting           triclinic
_symmetry_space_group_name_H-M   'P -1'
_symmetry_Int_Tables_number      2
_space_group_name_Hall           '-P 1'
loop_
_symmetry_equiv_pos_site_id
_symmetry_equiv_pos_as_xyz
1 x,y,z
2 -x,-y,-z
_cell_length_a                   9.9538(7)
_cell_length_b                   11.4051(8)
_cell_length_c                   12.5150(9)
_cell_angle_alpha                64.5350(10)
_cell_angle_beta                 74.8920(10)
_cell_angle_gamma                89.805(2)
_cell_volume                     1228.73
loop_
_atom_site_label
_atom_site_type_symbol
_atom_site_fract_x
_atom_site_fract_y
_atom_site_fract_z
Cu1 Cu 0.0000 0.0000 0.5000
O14 O -0.2838(13) 0.2191(12) 0.2745(11)
N4 N -0.1927(8) 0.0383(7) 0.5539(7)
N5 N -0.0242(7) -0.0849(6) 0.6821(6)
C7 C -0.2816(15) 0.0940(14) 0.4868(12)
C8 C -0.4053(13) 0.1294(13) 0.5332(12)
H5 H -0.4624 0.1719 0.4811
C9 C -0.4482(10) 0.1032(10) 0.6572(10)
H6 H -0.5353 0.1259 0.6914
C10 C -0.3615(9) 0.0436(9) 0.7289(9)
H7 H -0.3873 0.0250 0.8137
C11 C -0.2361(9) 0.0111(8) 0.6757(8)
C12 C -0.1386(9) -0.0577(7) 0.7482(7)
C13 C -0.1655(9) -0.0908(8) 0.8702(7)
H8 H -0.2477 -0.0690 0.9130
C14 C -0.0718(9) -0.1564(8) 0.9304(8)
H9 H -0.0871 -0.1791 1.0155
C15 C 0.0435(10) -0.1888(9) 0.8670(9)
H10 H 0.1076 -0.2368 0.9085
C16 C -0.0675(10) 0.1511(9) 0.2592(8)
C17 C -0.2057(18) 0.1658(16) 0.3323(15)
O14A O 0.2838(13) -0.2191(12) 0.7255(11)
N4A N 0.1927(8) -0.0383(7) 0.4461(7)
N5A N 0.0242(7) 0.0849(6) 0.3179(6)
C7A C 0.2816(15) -0.0940(14) 0.5132(12)
C8A C 0.4053(13) -0.1294(13) 0.4668(12)
H5A H 0.4624 -0.1719 0.5189
C9A C 0.4482(10) -0.1032(10) 0.3428(10)
H6A H 0.5353 -0.1259 0.3086
C10A C 0.3615(9) -0.0436(9) 0.2711(9)
H7A H 0.3873 -0.0250 0.1863
C11A C 0.2361(9) -0.0111(8) 0.3243(8)
C12A C 0.1386(9) 0.0577(7) 0.2518(7)
C13A C 0.1655(9) 0.0908(8) 0.1298(7)
H8A H 0.2477 0.0690 0.0870
C14A C 0.0718(9) 0.1564(8) 0.0696(8)
H9A H 0.0871 0.1791 -0.0155
C15A C -0.0435(10) 0.1888(9) 0.1330(9)
H10A H -0.1076 0.2368 0.0915
C16A C 0.0675(10) -0.1511(9) 0.7408(8)
C17A C 0.2057(18) -0.1658(16) 0.6677(15)
Mo1 Mo -0.10774(7) 0.30529(7) -0.24889(6)
Mo2 Mo 0.19159(7) 0.23251(7) -0.37026(6)
Mo3 Mo 0.00512(7) 0.60934(6) -0.43737(6)
Mo4 Mo -0.30084(7) 0.46414(6) -0.43884(6)
Cu2 Cu 0.01561(10) 0.51007(10) -0.13239(9)
Cu3 Cu -0.66204(10) 0.43699(10) -0.27106(9)
O1 O -0.2631(5) 0.2142(5) -0.1577(4)
O2 O 0.2483(6) 0.0917(5) -0.3650(5)
O3 O -0.4407(5) 0.3859(5) -0.3126(5)
O4 O 0.0767(5) 0.2483(5) -0.5131(4)
O5 O -0.1636(5) 0.4844(5) -0.3308(4)
O6 O -0.0009(5) 0.1769(5) -0.2713(4)
O7 O 0.3170(5) 0.3594(5) -0.5218(4)
O8 O -0.1714(5) 0.3261(5) -0.4217(4)
O9 O 0.0765(5) 0.4281(5) -0.4257(4)
O10 O 0.0670(5) 0.6133(5) -0.3239(5)
O11 O -0.0357(6) 0.3413(5) -0.1547(4)
O12 O 0.2584(6) 0.2636(5) -0.2705(5)
O13 O -0.3485(6) 0.4573(5) -0.5591(5)
N1 N 0.2947(6) 0.4312(6) -0.1117(5)
N2 N 0.1753(6) 0.4703(6) -0.0641(6)
N3 N 0.1639(7) 0.4502(6) 0.0524(6)
C1 C 0.2782(8) 0.3962(7) 0.0803(7)
C2 C 0.3202(8) 0.3537(7) 0.1891(7)
H1 H 0.2661 0.3636 0.2588
C3 C 0.4420(9) 0.2978(8) 0.1902(7)
H2 H 0.4714 0.2674 0.2629
C4 C 0.3606(8) 0.3833(7) -0.0207(6)
C5 C 0.4868(8) 0.3275(8) -0.0206(7)
H3 H 0.5427 0.3203 -0.0912
H4 H 0.6087 0.2437 0.0929
C6 C 0.5253(8) 0.2836(9) 0.0879(7)
Mo1A Mo 0.10774(7) 0.69471(7) -0.75111(6)
Mo2A Mo -0.19159(7) 0.76749(7) -0.62974(6)
Mo2_2 Mo -0.80841(7) 0.23251(7) -0.37026(6)
Mo3A Mo -0.00512(7) 0.39066(6) -0.56263(6)
Mo4A Mo 0.30084(7) 0.53586(6) -0.56116(6)
Cu2A Cu -0.01561(10) 0.48993(10) -0.86761(9)
Cu2A_2 Cu -0.01561(10) 0.48993(10) 0.13239(9)
Cu3A Cu 0.66204(10) 0.56301(10) -0.72894(9)
Cu3_2 Cu 0.33796(10) 0.43699(10) -0.27106(9)
Cu3A_2 Cu -0.33796(10) 0.56301(10) -0.72894(9)
Cu3A_3 Cu -0.33796(10) 0.56301(10) 0.27106(9)
O1A O 0.2631(5) 0.7858(5) -0.8423(4)
O2A O -0.2483(6) 0.9083(5) -0.6350(5)
O3A O 0.4407(5) 0.6141(5) -0.6874(5)
O4A O -0.0767(5) 0.7517(5) -0.4869(4)
O5A O 0.1636(5) 0.5156(5) -0.6692(4)
O6A O 0.0009(5) 0.8231(5) -0.7287(4)
O7A O -0.3170(5) 0.6406(5) -0.4782(4)
O8A O 0.1714(5) 0.6739(5) -0.5783(4)
O9A O -0.0765(5) 0.5719(5) -0.5743(4)
O10A O -0.0670(5) 0.3867(5) -0.6761(5)
O11A O 0.0357(6) 0.6587(5) -0.8453(4)
O12_2 O -0.7416(6) 0.2636(5) -0.2705(5)
O12A O -0.2584(6) 0.7364(5) -0.7295(5)
O12A_2 O 0.7416(6) 0.7364(5) -0.7295(5)
O13A O 0.3485(6) 0.5427(5) -0.4409(5)
O13A_2 O -0.6515(6) 0.5427(5) -0.4409(5)
O13_2 O 0.6515(6) 0.4573(5) -0.5591(5)
N1A N -0.2947(6) 0.5688(6) 0.1117(5)
N1_2 N -0.7053(6) 0.4312(6) -0.1117(5)
N1A_2 N 0.7053(6) 0.5688(6) -0.8883(5)
N2A N -0.1753(6) 0.5297(6) 0.0641(6)
N2A_2 N -0.1753(6) 0.5297(6) -0.9359(6)
N3A N -0.1639(7) 0.5498(6) -0.0524(6)
N3_2 N 0.1639(7) 0.4502(6) -0.9476(6)
C1A C -0.2782(8) 0.6038(7) -0.0803(7)
C2A C -0.3202(8) 0.6463(7) -0.1891(7)
H1A H -0.2661 0.6364 -0.2588
C3A C -0.4420(9) 0.7022(8) -0.1902(7)
H2A H -0.4714 0.7326 -0.2629
C4A C -0.3606(8) 0.6167(7) 0.0207(6)
C5A C -0.4868(8) 0.6725(8) 0.0206(7)
H3A H -0.5427 0.6797 0.0912
H4A H -0.6087 0.7563 -0.0929
C6A C -0.5253(8) 0.7164(9) -0.0879(7)
loop_
_geom_bond_atom_site_label_1
_geom_bond_atom_site_label_2
_geom_bond_site_symmetry_1
_geom_bond_site_symmetry_2
Mo1 O1 1_555 1_555
Mo2 O2 1_555 1_555
Mo3 O5 1_555 1_555
Mo4 O3 1_555 1_555
Cu1 N4 1_555 1_555
Cu2 O10 1_555 1_555
Cu3 O3 1_555 1_555
O4 Mo2 1_555 1_555
O5 Mo1 1_555 1_555
O6 Mo1 1_555 1_555
O7 Mo2 1_555 1_555
O8 Mo1 1_555 1_555
O9 Mo1 1_555 1_555
O10 Mo3 1_555 1_555
O11 Mo1 1_555 1_555
O12 Mo2 1_555 1_555
O13 Mo4 1_555 1_555
O14 C17 1_555 1_555
N1 N2 1_555 1_555
N2 Cu2 1_555 1_555
N3 N2 1_555 1_555
N4 C7 1_555 1_555
N5 Cu1 1_555 1_555
C1 N3 1_555 1_555
C2 C1 1_555 1_555
H1 C2 1_555 1_555
C3 C2 1_555 1_555
H2 C3 1_555 1_555
C4 N1 1_555 1_555
C5 C4 1_555 1_555
H3 C5 1_555 1_555
H4 C6 1_555 1_555
C6 C3 1_555 1_555
C7 C8 1_555 1_555
C8 H5 1_555 1_555
C9 C8 1_555 1_555
H6 C9 1_555 1_555
C10 C9 1_555 1_555
H7 C10 1_555 1_555
C11 N4 1_555 1_555
C12 N5 1_555 1_555
C13 C12 1_555 1_555
H8 C13 1_555 1_555
C14 C13 1_555 1_555
H9 C14 1_555 1_555
C15 C14 1_555 1_555
H10 C15 1_555 1_555
C16 C17 1_555 1_555
C17 C7 1_555 1_555
Mo1A O1A 1_555 1_555
Mo2A O2A 1_555 1_555
Mo2_2 O12_2 1_555 1_555
Mo3A O4 1_555 1_555
Mo4A O7 1_555 1_555
Cu2A O10A 1_555 1_555
Cu2A_2 N3 1_555 1_555
Cu3A O3A 1_555 1_555
Cu3_2 O12 1_555 1_555
Cu3A_2 O13 1_555 1_555
Cu3A_3 N1A 1_555 1_555
O3A Mo4A 1_555 1_555
O4A Mo3 1_555 1_555
O5A Mo1A 1_555 1_555
O6A Mo1A 1_555 1_555
O7A Mo4 1_555 1_555
O8A Mo3 1_555 1_555
O9A Mo3 1_555 1_555
O10A Mo3A 1_555 1_555
O11A Mo1A 1_555 1_555
O12_2 Cu3 1_555 1_555
O12A Mo2A 1_555 1_555
O12A_2 Cu3A 1_555 1_555
O13A Mo4A 1_555 1_555
O13A_2 Cu3 1_555 1_555
O13_2 Cu3A 1_555 1_555
O14A C17A 1_555 1_555
N1A N2A 1_555 1_555
N1_2 Cu3 1_555 1_555
N1A_2 Cu3A 1_555 1_555
N2A Cu2A_2 1_555 1_555
N2A_2 Cu2A 1_555 1_555
N3A Cu2 1_555 1_555
N3_2 Cu2A 1_555 1_555
N4A Cu1 1_555 1_555
N5A Cu1 1_555 1_555
C1A N3A 1_555 1_555
C2A C1A 1_555 1_555
H1A C2A 1_555 1_555
C3A C2A 1_555 1_555
H2A C3A 1_555 1_555
C4A N1A 1_555 1_555
C5A C4A 1_555 1_555
H3A C5A 1_555 1_555
H4A C6A 1_555 1_555
C6A C3A 1_555 1_555
C7A N4A 1_555 1_555
C8A C7A 1_555 1_555
H5A C8A 1_555 1_555
C9A C8A 1_555 1_555
H6A C9A 1_555 1_555
C10A C9A 1_555 1_555
H7A C10A 1_555 1_555
C11A N4A 1_555 1_555
C12A N5A 1_555 1_555
C13A C12A 1_555 1_555
H8A C13A 1_555 1_555
C14A C13A 1_555 1_555
H9A C14A 1_555 1_555
C15A C16 1_555 1_555
H10A C15A 1_555 1_555
C16A N5 1_555 1_555
C17A C7A 1_555 1_555
Mo2 O6 1_555 1_555
Mo2 O9 1_555 1_555
Mo3 O9 1_555 1_555
Mo4 O5 1_555 1_555
Mo4 O8 1_555 1_555
Mo4 O9A 1_555 1_555
Cu2 O11 1_555 1_555
O8 Mo3A 1_555 1_555
O9 Mo3A 1_555 1_555
O9 Mo4A 1_555 1_555
N1 Cu3_2 1_555 1_555
C1 C4 1_555 1_555
C5 C6 1_555 1_555
C10 C11 1_555 1_555
C11 C12 1_555 1_555
C15 C16A 1_555 1_555
C16 N5A 1_555 1_555
Mo1A O8A 1_555 1_555
Mo1A O9A 1_555 1_555
Mo2A O4A 1_555 1_555
Mo2A O6A 1_555 1_555
Mo2A O7A 1_555 1_555
Mo2A O9A 1_555 1_555
Mo3A O5A 1_555 1_555
Mo3A O9A 1_555 1_555
Mo4A O5A 1_555 1_555
Mo4A O8A 1_555 1_555
Cu2A O11A 1_555 1_555
Cu3_2 O13A 1_555 1_555
Cu3A_2 O12A 1_555 1_555
N2A N3A 1_555 1_555
C1A C4A 1_555 1_555
C5A C6A 1_555 1_555
C10A C11A 1_555 1_555
C11A C12A 1_555 1_555
C14A C15A 1_555 1_555
C16A C17A 1_555 1_555

#END
