
#######################################################################
#
#                 Cambridge Crystallographic Data Centre
#                                CCDC 
#
#######################################################################
#
# If this CIF has been generated from an entry in the Cambridge 
# Structural Database, then it will include bibliographic, chemical, 
# crystal, experimental, refinement or atomic coordinate data resulting 
# from the CCDC's data processing and validation procedures.
#
#######################################################################

data_LOKKEB
_symmetry_cell_setting           orthorhombic
_symmetry_space_group_name_H-M   'P n m a'
_symmetry_Int_Tables_number      62
_space_group_name_Hall           '-P 2ac 2n'
loop_
_symmetry_equiv_pos_site_id
_symmetry_equiv_pos_as_xyz
1 x,y,z
2 1/2-x,-y,1/2+z
3 1/2+x,1/2-y,1/2-z
4 -x,1/2+y,-z
5 -x,-y,-z
6 1/2+x,y,1/2-z
7 1/2-x,1/2+y,1/2+z
8 x,1/2-y,z
_cell_length_a                   12.953(2)
_cell_length_b                   21.626(6)
_cell_length_c                   5.253(3)
_cell_angle_alpha                90
_cell_angle_beta                 90
_cell_angle_gamma                90
_cell_volume                     1471.48
loop_
_atom_site_label
_atom_site_type_symbol
_atom_site_fract_x
_atom_site_fract_y
_atom_site_fract_z
Cd1 Cd 0.00000 0.0000 0.0000
Cu1 Cu 0.05034(9) 0.2500 0.1606(2)
O1 O 0.1140(4) 0.1835(2) -0.047(1)
O2 O 0.0947(4) 0.0830(2) -0.120(1)
O3 O -0.0636(4) 0.0788(2) 0.235(2)
O4 O 0.1750(6) 0.2500 0.470(2)
O5 O 0.1231(5) -0.0227(3) 0.305(1)
N1 N -0.0353(4) 0.1834(2) 0.290(1)
C1 C 0.0718(5) 0.1316(3) -0.007(1)
C2 C -0.0169(5) 0.1299(3) 0.192(1)
C3 C -0.1198(6) 0.1903(3) 0.475(2)
C4 C -0.1086(8) 0.2500 0.627(2)
O2D O -0.0947(4) -0.0830(2) 0.120(1)
O3D O 0.0636(4) -0.0788(2) -0.235(2)
O5D O -0.1231(5) 0.0227(3) -0.305(1)
O1G O 0.1140(4) 0.3165(2) -0.047(1)
N1G N -0.0353(4) 0.3166(2) 0.290(1)
C3G C -0.1198(6) 0.3097(3) 0.475(2)
C1G C 0.0718(5) 0.3684(3) -0.007(1)
C2G C -0.0169(5) 0.3701(3) 0.192(1)
O2G O 0.0947(4) 0.4170(2) -0.120(1)
O3G O -0.0636(4) 0.4212(2) 0.235(2)
Cd1C Cd 0.00000 0.5000 0.0000
O6 O 0.2123(4) 0.0879(4) 0.436(1)
loop_
_geom_bond_atom_site_label_1
_geom_bond_atom_site_label_2
_geom_bond_site_symmetry_1
_geom_bond_site_symmetry_2
Cd1 O2 1_555 1_555
Cu1 O1 1_555 1_555
O1 C1 1_555 1_555
O2 C1 1_555 1_555
O3 Cd1 1_555 1_555
O4 Cu1 1_555 1_555
O5 Cd1 1_555 1_555
N1 Cu1 1_555 1_555
C1 C2 1_555 1_555
C2 O3 1_555 1_555
C3 N1 1_555 1_555
C4 C3 1_555 1_555
O2D Cd1 1_555 1_555
O3D Cd1 1_555 1_555
O5D Cd1 1_555 1_555
O1G Cu1 1_555 1_555
N1G Cu1 1_555 1_555
C3G C4 1_555 1_555
C1G O1G 1_555 1_555
C2G N1G 1_555 1_555
O2G C1G 1_555 1_555
O3G C2G 1_555 1_555
Cd1C O2G 1_555 1_555
N1 C2 1_555 1_555
N1G C3G 1_555 1_555
C1G C2G 1_555 1_555
O3G Cd1C 1_555 1_555

#END
