
#######################################################################
#
#                 Cambridge Crystallographic Data Centre
#                                CCDC 
#
#######################################################################
#
# If this CIF has been generated from an entry in the Cambridge 
# Structural Database, then it will include bibliographic, chemical, 
# crystal, experimental, refinement or atomic coordinate data resulting 
# from the CCDC's data processing and validation procedures.
#
#######################################################################

data_LOKLAZ
_symmetry_cell_setting           orthorhombic
_symmetry_space_group_name_H-M   'P 21 21 21'
_symmetry_Int_Tables_number      19
_space_group_name_Hall           'P 2ac 2ab'
loop_
_symmetry_equiv_pos_site_id
_symmetry_equiv_pos_as_xyz
1 x,y,z
2 1/2-x,-y,1/2+z
3 1/2+x,1/2-y,-z
4 -x,1/2+y,1/2-z
_cell_length_a                   6.80730(10)
_cell_length_b                   14.5179(2)
_cell_length_c                   26.7825(3)
_cell_angle_alpha                90
_cell_angle_beta                 90
_cell_angle_gamma                90
_cell_volume                     2646.85
loop_
_atom_site_label
_atom_site_type_symbol
_atom_site_fract_x
_atom_site_fract_y
_atom_site_fract_z
Cu1 Cu 0.30750(6) 0.19504(2) 0.299588(12)
Cu2 Cu 0.20583(6) -0.00807(2) 0.243777(13)
O1 O 0.5579(4) 0.03519(16) 0.35614(10)
O2 O 0.3947(5) 0.15295(16) 0.44920(8)
O3 O 0.3431(4) 0.18832(15) 0.14791(7)
O4 O 0.1508(4) -0.13275(16) 0.37458(8)
O7 O 0.2138(4) 0.07166(12) 0.30116(7)
N1 N 0.3264(4) 0.20773(16) 0.37092(8)
O10 O 0.1999(5) 0.08152(14) 0.19287(7)
O12 O 0.3663(4) 0.19577(16) 0.22969(7)
N2 N 0.1987(5) -0.10359(16) 0.29165(9)
N3 N 0.3183(4) 0.33263(16) 0.30129(8)
C1 C 0.2009(6) 0.02365(19) 0.34728(10)
H1 H 0.0814 0.0441 0.3644
C2 C 0.3130(5) 0.36909(19) 0.34784(10)
N4 N 0.1881(5) -0.11442(17) 0.19622(9)
C3 C 0.1840(5) -0.07994(19) 0.33834(10)
C4 C 0.3014(6) 0.4642(2) 0.35494(12)
H2 H 0.2968 0.4886 0.3870
C5 C 0.3187(6) 0.3903(2) 0.26178(11)
H3 H 0.3247 0.3652 0.2299
C6 C 0.1870(6) -0.1074(2) 0.14600(11)
H4 H 0.1919 -0.0495 0.1312
C7 C 0.1831(6) -0.1980(2) 0.27493(11)
H5 H 0.0630 -0.2255 0.2875
H6 H 0.2936 -0.2337 0.2872
C8 C 0.3671(5) 0.1414(2) 0.40270(10)
C9 C 0.3220(5) 0.30197(19) 0.39033(10)
H7 H 0.4388 0.3134 0.4101
H8 H 0.2081 0.3100 0.4117
C10 C 0.3106(6) 0.4842(2) 0.26654(12)
H9 H 0.3144 0.5223 0.2386
C11 C 0.3765(5) 0.04419(19) 0.38147(11)
H10 H 0.3745 0.0004 0.4093
C12 C 0.1742(6) -0.2770(2) 0.18994(14)
H11 H 0.1678 -0.3341 0.2056
C13 C 0.1763(6) -0.2714(2) 0.13854(14)
H12 H 0.1761 -0.3247 0.1193
C14 C 0.3032(5) 0.15482(18) 0.19050(10)
C15 C 0.2967(7) 0.5210(2) 0.31439(13)
H13 H 0.2843 0.5843 0.3187
C16 C 0.1786(6) -0.1860(2) 0.11607(12)
H14 H 0.1746 -0.1808 0.0815
C17 C 0.1817(5) -0.1977(2) 0.21780(11)
H22 H 0.604(8) -0.0283(18) 0.3541(19)
Na1 Na 0.6437(2) 0.25746(11) 0.00132(5)
O5 O 0.6908(5) 0.20194(18) 0.09025(9)
O6 O 0.4037(4) 0.14055(18) -0.02242(9)
O8 O 0.5887(5) 0.3607(2) -0.07170(9)
O9 O 0.3823(4) 0.34752(17) 0.03086(9)
H15 H 0.585(5) 0.195(3) 0.1134(12)
H18 H 0.451(4) 0.345(4) -0.0807(17)
H19 H 0.689(14) 0.241(4) 0.1198(15)
H20 H 0.429(5) 0.4050(16) 0.0186(12)
H21 H 0.701(6) 0.358(5) -0.0949(19)
H23 H 0.366(9) 0.371(4) 0.0648(10)
H25 H 0.323(14) 0.111(6) -0.049(3)
H27 H 0.492(7) 0.095(3) -0.0077(18)
Na1B Na 0.1437(2) 0.24254(11) -0.00132(5)
O6B O 0.9037(4) 0.35945(18) 0.02242(9)
O9B O 0.8823(4) 0.15248(17) -0.03086(9)
H20B H 0.929(5) 0.0950(16) -0.0186(12)
H23B H 0.866(9) 0.129(4) -0.0648(10)
H25B H 0.823(14) 0.389(6) 0.049(3)
H27B H 0.992(7) 0.405(3) 0.0077(18)
O11 O 0.2733(5) 0.36448(18) 0.13059(10)
H16 H 0.136(3) 0.365(3) 0.1256(14)
H17 H 0.313(8) 0.3013(17) 0.1352(17)
O13 O -0.0263(7) 0.7047(3) 0.01086(14)
H30 H -0.157(7) 0.720(6) -0.002(3)
H31 H -0.06(4) 0.645(7) 0.028(5)
O14 O 0.4710(6) 0.5209(2) -0.01654(14)
H24 H 0.554(7) 0.569(3) -0.0048(16)
H26 H 0.538(6) 0.492(3) -0.0446(12)
O15 O 0.0532(8) 0.5222(3) -0.01815(18)
H28 H 0.156(7) 0.514(4) 0.0076(18)
H29 H -0.027(9) 0.559(4) 0.0049(18)
loop_
_geom_bond_atom_site_label_1
_geom_bond_atom_site_label_2
_geom_bond_site_symmetry_1
_geom_bond_site_symmetry_2
Cu1 O7 1_555 1_555
Cu2 O7 1_555 1_555
Na1 O5 1_555 1_555
O1 C11 1_555 1_555
O2 C8 1_555 1_555
O3 C14 1_555 1_555
O4 C3 1_555 1_555
O5 H15 1_555 1_555
O6 Na1 1_555 1_555
O7 C1 1_555 1_555
O8 Na1 1_555 1_555
O9 Na1 1_555 1_555
N1 Cu1 1_555 1_555
O10 Cu2 1_555 1_555
O11 H16 1_555 1_555
O12 Cu1 1_555 1_555
N2 Cu2 1_555 1_555
N3 Cu1 1_555 1_555
C1 H1 1_555 1_555
O13 H30 1_555 1_555
O14 H24 1_555 1_555
C2 N3 1_555 1_555
N4 Cu2 1_555 1_555
C3 N2 1_555 1_555
C4 C2 1_555 1_555
H2 C4 1_555 1_555
C5 N3 1_555 1_555
H3 C5 1_555 1_555
C6 N4 1_555 1_555
H4 C6 1_555 1_555
C7 N2 1_555 1_555
H5 C7 1_555 1_555
H6 C7 1_555 1_555
C8 N1 1_555 1_555
C9 N1 1_555 1_555
H7 C9 1_555 1_555
H8 C9 1_555 1_555
C10 C5 1_555 1_555
H9 C10 1_555 1_555
C11 C1 1_555 1_555
H10 C11 1_555 1_555
C12 H11 1_555 1_555
O15 H28 1_555 1_555
C13 C12 1_555 1_555
H12 C13 1_555 1_555
C14 O10 1_555 1_555
C15 C4 1_555 1_555
H13 C15 1_555 1_555
C16 C6 1_555 1_555
H14 C16 1_555 1_555
C17 N4 1_555 1_555
H17 O11 1_555 1_555
H18 O8 1_555 1_555
H19 O5 1_555 1_555
H20 O9 1_555 1_555
H21 O8 1_555 1_555
H22 O1 1_555 1_555
H23 O9 1_555 1_555
H25 O6 1_555 1_555
H26 O14 1_555 1_555
H27 O6 1_555 1_555
H29 O15 1_555 1_555
H31 O13 1_555 1_555
Na1B O6 1_555 1_555
O6B Na1 1_555 1_555
O9B Na1 1_555 1_555
H20B O9B 1_555 1_555
H23B O9B 1_555 1_555
H25B O6B 1_555 1_555
H27B O6B 1_555 1_555
O9 Na1B 1_555 1_555
O12 C14 1_555 1_555
C1 C3 1_555 1_555
C2 C9 1_555 1_555
C7 C17 1_555 1_555
C8 C11 1_555 1_555
C10 C15 1_555 1_555
C12 C17 1_555 1_555
C13 C16 1_555 1_555

#END
