
#######################################################################
#
#                 Cambridge Crystallographic Data Centre
#                                CCDC 
#
#######################################################################
#
# If this CIF has been generated from an entry in the Cambridge 
# Structural Database, then it will include bibliographic, chemical, 
# crystal, experimental, refinement or atomic coordinate data resulting 
# from the CCDC's data processing and validation procedures.
#
#######################################################################

data_LOKZOC
_symmetry_cell_setting           triclinic
_symmetry_space_group_name_H-M   'P -1'
_symmetry_Int_Tables_number      2
_space_group_name_Hall           '-P 1'
loop_
_symmetry_equiv_pos_site_id
_symmetry_equiv_pos_as_xyz
1 x,y,z
2 -x,-y,-z
_cell_length_a                   8.3970(7)
_cell_length_b                   8.5672(7)
_cell_length_c                   10.0051(8)
_cell_angle_alpha                71.7540(10)
_cell_angle_beta                 88.1560(10)
_cell_angle_gamma                83.6730(10)
_cell_volume                     679.401
loop_
_atom_site_label
_atom_site_type_symbol
_atom_site_fract_x
_atom_site_fract_y
_atom_site_fract_z
Cu1 Cu 0.5000 0.5000 0.0000
Cu2 Cu 0.02152(3) 0.49775(4) 0.35371(3)
O1 O 0.1890(2) 0.5518(2) 0.22503(18)
O2 O 0.1289(2) 0.5533(2) 0.49647(18)
O3 O 0.2953(2) 0.6701(2) 0.84018(18)
O4 O 0.1019(2) 0.5625(3) 0.76975(19)
O5 O 0.4375(2) 0.5936(2) 0.15893(17)
N1 N 0.3750(2) 0.3082(2) 0.0637(2)
N2 N 0.1953(2) 0.1367(2) 0.1219(2)
C1 C 0.3599(2) 0.6503(3) 0.3664(2)
N3 N 0.6989(3) 0.8370(3) 0.4658(2)
C2 C 0.5005(3) 0.7234(3) 0.3594(2)
H1 H 0.5643 0.7410 0.2793
C3 C 0.3139(3) 0.6695(3) 0.6049(2)
C4 C 0.2636(2) 0.6250(3) 0.4885(2)
C5 C 0.2197(3) 0.2945(3) 0.0861(2)
H2 H 0.1406 0.3820 0.0780
C6 C 0.4549(3) 0.7431(3) 0.5931(2)
H3 H 0.4886 0.7747 0.6676
C7 C 0.2323(3) 0.6325(3) 0.7470(2)
C8 C 0.5457(3) 0.7701(3) 0.4721(2)
N4 N 0.3353(3) 0.0410(3) 0.1228(3)
O6 O 0.7483(3) 0.8578(4) 0.5713(3)
C9 C 0.4405(3) 0.1497(3) 0.0866(3)
H4 H 0.5494 0.1208 0.0774
O7 O 0.7733(4) 0.8668(5) 0.3578(3)
C10 C 0.0461(3) 0.0603(4) 0.1651(3)
H5 H -0.0421 0.1462 0.1561
H6 H 0.0543 -0.0065 0.2633
C11 C 0.0115(4) -0.0470(4) 0.0770(3)
H7 H -0.0845 -0.0997 0.1125
H8 H 0.0995 -0.1334 0.0875
C12 C 0.3249(3) 0.5941(2) 0.2427(2)
N1A N -0.3750(2) -0.3082(2) -0.0637(2)
N2A N -0.1953(2) -0.1367(2) -0.1219(2)
C5A C -0.2197(3) -0.2945(3) -0.0861(2)
H2A H -0.1406 -0.3820 -0.0780
N4A N -0.3353(3) -0.0410(3) -0.1228(3)
C9A C -0.4405(3) -0.1497(3) -0.0866(3)
H4A H -0.5494 -0.1208 -0.0774
C10A C -0.0461(3) -0.0603(4) -0.1651(3)
H5A H 0.0421 -0.1462 -0.1561
H6A H -0.0543 0.0065 -0.2633
C11A C -0.0115(4) 0.0470(4) -0.0770(3)
H7A H 0.0845 0.0997 -0.1125
H8A H -0.0995 0.1334 -0.0875
Cu2A Cu 0.97848(3) 0.50225(4) 0.64629(3)
O1A O 0.8110(2) 0.4482(2) 0.77497(18)
O2A O 0.8711(2) 0.4467(2) 0.50353(18)
O3A O 0.7047(2) 0.3299(2) 0.15982(18)
O4A O 0.8981(2) 0.4375(3) 0.23025(19)
O5A O 0.5625(2) 0.4064(2) 0.84107(17)
C1A C 0.6401(2) 0.3497(3) 0.6336(2)
N3A N 0.3011(3) 0.1630(3) 0.5342(2)
C2A C 0.4995(3) 0.2766(3) 0.6406(2)
H1A H 0.4357 0.2590 0.7207
C3A C 0.6861(3) 0.3305(3) 0.3951(2)
C4A C 0.7364(2) 0.3750(3) 0.5115(2)
C6A C 0.5451(3) 0.2569(3) 0.4069(2)
H3A H 0.5114 0.2253 0.3324
C7A C 0.7677(3) 0.3675(3) 0.2530(2)
C8A C 0.4543(3) 0.2299(3) 0.5279(2)
O6A O 0.2517(3) 0.1422(4) 0.4287(3)
O7A O 0.2267(4) 0.1332(5) 0.6422(3)
C12A C 0.6751(3) 0.4059(2) 0.7573(2)
Cu1_2 Cu -0.5000 -0.5000 0.0000
Cu1_3 Cu 0.5000 0.5000 1.0000
Cu2_2 Cu 1.02152(3) 0.49775(4) 0.35371(3)
Cu2A_2 Cu -0.02152(3) 0.50225(4) 0.64629(3)
O2_2 O 1.1289(2) 0.5533(2) 0.49647(18)
O2A_2 O -0.1289(2) 0.4467(2) 0.50353(18)
O3_2 O 0.2953(2) 0.6701(2) -0.15982(18)
O4_2 O 1.1019(2) 0.5625(3) 0.76975(19)
O4A_2 O -0.1019(2) 0.4375(3) 0.23025(19)
O5A_2 O 0.5625(2) 0.4064(2) -0.15893(17)
N1A_2 N 0.6250(2) 0.6918(2) -0.0637(2)
loop_
_geom_bond_atom_site_label_1
_geom_bond_atom_site_label_2
_geom_bond_site_symmetry_1
_geom_bond_site_symmetry_2
Cu1 O5 1_555 1_555
Cu2 O1 1_555 1_555
O1 C12 1_555 1_555
O2 Cu2 1_555 1_555
O3 C7 1_555 1_555
O4 C7 1_555 1_555
O5 C12 1_555 1_555
N1 Cu1 1_555 1_555
N2 C5 1_555 1_555
C1 C2 1_555 1_555
N3 C8 1_555 1_555
C2 H1 1_555 1_555
C3 C4 1_555 1_555
C4 O2 1_555 1_555
C5 N1 1_555 1_555
H2 C5 1_555 1_555
C6 C3 1_555 1_555
H3 C6 1_555 1_555
C7 C3 1_555 1_555
C8 C2 1_555 1_555
N4 N2 1_555 1_555
O6 N3 1_555 1_555
C9 N1 1_555 1_555
H4 C9 1_555 1_555
O7 N3 1_555 1_555
C10 N2 1_555 1_555
H5 C10 1_555 1_555
H6 C10 1_555 1_555
C11 C10 1_555 1_555
H7 C11 1_555 1_555
H8 C11 1_555 1_555
C12 C1 1_555 1_555
N1A C5A 1_555 1_555
N2A C5A 1_555 1_555
C5A H2A 1_555 1_555
N4A N2A 1_555 1_555
C9A N1A 1_555 1_555
H4A C9A 1_555 1_555
C10A N2A 1_555 1_555
H5A C10A 1_555 1_555
H6A C10A 1_555 1_555
C11A C11 1_555 1_555
H7A C11A 1_555 1_555
H8A C11A 1_555 1_555
Cu2A O1A 1_555 1_555
O1A C12A 1_555 1_555
O2A Cu2A 1_555 1_555
O3A Cu1 1_555 1_555
O4A C7A 1_555 1_555
O5A C12A 1_555 1_555
C1A C2A 1_555 1_555
N3A C8A 1_555 1_555
C2A H1A 1_555 1_555
C3A C4A 1_555 1_555
C4A O2A 1_555 1_555
C6A C3A 1_555 1_555
H3A C6A 1_555 1_555
C7A O3A 1_555 1_555
C8A C2A 1_555 1_555
O6A N3A 1_555 1_555
O7A N3A 1_555 1_555
C12A C1A 1_555 1_555
Cu1_2 N1A 1_555 1_555
Cu1_3 O3 1_555 1_555
Cu2_2 O2A 1_555 1_555
Cu2A_2 O2 1_555 1_555
O2_2 Cu2A 1_555 1_555
O2A_2 Cu2 1_555 1_555
O3_2 Cu1 1_555 1_555
O4_2 Cu2A 1_555 1_555
O4A_2 Cu2 1_555 1_555
O5A_2 Cu1 1_555 1_555
N1A_2 Cu1 1_555 1_555
O4 Cu2A_2 1_555 1_555
C1 C4 1_555 1_555
C6 C8 1_555 1_555
N4 C9 1_555 1_555
N4A C9A 1_555 1_555
C10A C11A 1_555 1_555
O4A Cu2_2 1_555 1_555
O5A Cu1_3 1_555 1_555
C1A C4A 1_555 1_555
C3A C7A 1_555 1_555
C6A C8A 1_555 1_555
Cu2_2 O2_2 1_555 1_555
Cu2A_2 O2A_2 1_555 1_555

#END
