
#######################################################################
#
#                 Cambridge Crystallographic Data Centre
#                                CCDC 
#
#######################################################################
#
# If this CIF has been generated from an entry in the Cambridge 
# Structural Database, then it will include bibliographic, chemical, 
# crystal, experimental, refinement or atomic coordinate data resulting 
# from the CCDC's data processing and validation procedures.
#
#######################################################################

data_LOKZES
_symmetry_cell_setting           monoclinic
_symmetry_space_group_name_H-M   'C 2/c'
_symmetry_Int_Tables_number      15
_space_group_name_Hall           '-C 2yn'
loop_
_symmetry_equiv_pos_site_id
_symmetry_equiv_pos_as_xyz
1 x,y,z
2 -x,y,1/2-z
3 1/2+x,1/2+y,z
4 1/2-x,1/2+y,1/2-z
5 -x,-y,-z
6 x,-y,1/2+z
7 1/2-x,1/2-y,-z
8 1/2+x,1/2-y,1/2+z
_cell_length_a                   26.447(4)
_cell_length_b                   7.2619(10)
_cell_length_c                   17.524(2)
_cell_angle_alpha                90
_cell_angle_beta                 115.390(2)
_cell_angle_gamma                90
_cell_volume                     3040.5
loop_
_atom_site_label
_atom_site_type_symbol
_atom_site_fract_x
_atom_site_fract_y
_atom_site_fract_z
Pb1 Pb 0.203605(7) 0.89007(2) 0.234631(12)
O1 O 0.18158(15) 0.6947(5) 0.3338(2)
O2 O 0.20339(14) 0.9833(5) 0.3745(2)
O3 O 0.29627(14) 0.7586(5) 0.3195(2)
O4 O 0.29486(13) 1.0586(4) 0.3095(2)
C1 C 0.1343(2) 0.6269(7) 0.4456(3)
C2 C 0.1597(2) 0.4616(7) 0.4824(3)
H1 H 0.1993 0.4560 0.5129
C3 C 0.1278(2) 0.3038(7) 0.4749(3)
H2 H 0.1456 0.1921 0.5008
C4 C 0.0705(2) 0.3099(8) 0.4302(3)
H3 H 0.0488 0.2020 0.4244
C5 C 0.0443(2) 0.4737(8) 0.3936(4)
H4 H 0.0048 0.4788 0.3631
C6 C 0.07620(19) 0.6291(7) 0.4017(3)
H5 H 0.0580 0.7409 0.3766
C7 C 0.1678(2) 0.7993(7) 0.4536(4)
H6 H 0.2018 0.7953 0.5079
H7 H 0.1453 0.9067 0.4554
C8 C 0.1852(2) 0.8268(7) 0.3829(3)
C9 C 0.4085(2) 0.7371(7) 0.3448(3)
C10 C 0.42631(19) 0.5942(7) 0.4040(3)
H8 H 0.4258 0.6109 0.4574
C11 C 0.4446(2) 0.4295(7) 0.3858(4)
H9 H 0.4559 0.3331 0.4264
C12 C 0.4465(2) 0.4033(7) 0.3083(3)
H10 H 0.4588 0.2891 0.2959
C13 C 0.4306(2) 0.5437(7) 0.2500(3)
H11 H 0.4328 0.5273 0.1977
C14 C 0.4112(2) 0.7098(7) 0.2672(3)
H12 H 0.3997 0.8053 0.2262
C15 C 0.3846(2) 0.9141(7) 0.3598(3)
H13 H 0.3949 1.0157 0.3315
H14 H 0.4018 0.9403 0.4212
C16 C 0.3216(2) 0.9110(6) 0.3280(3)
O5 O 0.25569(15) 0.8675(5) 0.1304(2)
H15 H 0.2756 0.9569 0.1278
H16 H 0.2628 0.7581 0.1207
Pb1C Pb 0.296395(7) 0.39007(2) 0.265369(12)
Pb1C_2 Pb 0.296395(7) 1.39007(2) 0.265369(12)
O3C O 0.20373(14) 1.2586(5) 0.1805(2)
O4C O 0.20514(13) 0.5586(4) 0.1905(2)
loop_
_geom_bond_atom_site_label_1
_geom_bond_atom_site_label_2
_geom_bond_site_symmetry_1
_geom_bond_site_symmetry_2
Pb1 O1 1_555 1_555
O1 C8 1_555 1_555
O2 Pb1 1_555 1_555
O3 Pb1 1_555 1_555
O4 Pb1 1_555 1_555
C1 C2 1_555 1_555
C2 H1 1_555 1_555
C3 C2 1_555 1_555
H2 C3 1_555 1_555
C4 C3 1_555 1_555
H3 C4 1_555 1_555
C5 C4 1_555 1_555
H4 C5 1_555 1_555
C6 C1 1_555 1_555
H5 C6 1_555 1_555
C7 C1 1_555 1_555
H6 C7 1_555 1_555
H7 C7 1_555 1_555
C8 O2 1_555 1_555
C9 C10 1_555 1_555
C10 H8 1_555 1_555
C11 C10 1_555 1_555
H9 C11 1_555 1_555
C12 C11 1_555 1_555
H10 C12 1_555 1_555
C13 C12 1_555 1_555
H11 C13 1_555 1_555
C14 C9 1_555 1_555
H12 C14 1_555 1_555
C15 C9 1_555 1_555
H13 C15 1_555 1_555
H14 C15 1_555 1_555
C16 O3 1_555 1_555
O5 Pb1 1_555 1_555
H15 O5 1_555 1_555
H16 O5 1_555 1_555
Pb1C O3 1_555 1_555
Pb1C_2 O4 1_555 1_555
O3C Pb1 1_555 1_555
O4C Pb1 1_555 1_555
O4 C16 1_555 1_555
C5 C6 1_555 1_555
C7 C8 1_555 1_555
C13 C14 1_555 1_555
C15 C16 1_555 1_555
Pb1C O4C 1_555 1_555
Pb1C_2 O3C 1_555 1_555

#END
