
#######################################################################
#
#                 Cambridge Crystallographic Data Centre
#                                CCDC 
#
#######################################################################
#
# If this CIF has been generated from an entry in the Cambridge 
# Structural Database, then it will include bibliographic, chemical, 
# crystal, experimental, refinement or atomic coordinate data resulting 
# from the CCDC's data processing and validation procedures.
#
#######################################################################

data_LOLDAR
_symmetry_cell_setting           monoclinic
_symmetry_space_group_name_H-M   'P 21/c'
_symmetry_Int_Tables_number      14
_space_group_name_Hall           '-P 2ybc'
loop_
_symmetry_equiv_pos_site_id
_symmetry_equiv_pos_as_xyz
1 x,y,z
2 -x,1/2+y,1/2-z
3 -x,-y,-z
4 x,1/2-y,1/2+z
_cell_length_a                   11.563(3)
_cell_length_b                   8.353(4)
_cell_length_c                   26.188(7)
_cell_angle_alpha                90
_cell_angle_beta                 95.88(2)
_cell_angle_gamma                90
_cell_volume                     2516.08
loop_
_atom_site_label
_atom_site_type_symbol
_atom_site_fract_x
_atom_site_fract_y
_atom_site_fract_z
Ag1 Ag 0.01360(6) 0.16472(8) -0.48237(3)
P1 P 0.1758(2) 0.0783(3) -0.42713(8)
N1 N -0.1463(6) 0.2189(9) -0.5283(3)
N2 N 0.2986(6) -0.2192(9) -0.4135(3)
C1 C 0.2092(7) -0.132(1) -0.4365(3)
C2 C -0.1978(8) 0.368(1) -0.5286(4)
C3 C 0.2918(8) -0.368(1) -0.4358(3)
C4 C 0.3913(8) -0.164(1) -0.3743(4)
C5 C 0.4440(8) -0.297(1) -0.3418(3)
C6 C 0.5620(8) -0.318(1) -0.3386(4)
C7 C 0.614(1) -0.438(2) -0.3070(5)
C8 C 0.546(1) -0.532(2) -0.2776(4)
C9 C 0.430(1) -0.512(1) -0.2819(4)
C10 C 0.380(1) -0.394(1) -0.3132(4)
C11 C 0.1544(7) 0.100(1) -0.3601(3)
C12 C 0.1307(9) -0.029(1) -0.3289(4)
C13 C 0.106(1) -0.001(2) -0.2790(4)
C14 C 0.103(1) 0.148(2) -0.2604(4)
C15 C 0.124(1) 0.278(2) -0.2904(5)
C16 C 0.1495(8) 0.255(1) -0.3406(4)
C17 C 0.3132(7) 0.179(1) -0.4362(3)
C18 C 0.3954(8) 0.220(1) -0.3970(4)
C19 C 0.4998(8) 0.286(1) -0.4068(4)
C20 C 0.521(1) 0.311(1) -0.4559(6)
C21 C 0.438(1) 0.273(2) -0.4962(5)
C22 C 0.333(1) 0.207(1) -0.4869(4)
F1 F -0.0981(7) -0.332(1) -0.4377(3)
F2 F -0.0311(7) -0.572(1) -0.4239(3)
F3 F -0.021(1) -0.615(1) -0.6318(3)
F4 F 0.158(1) -0.524(1) -0.6253(5)
B1 B -0.074(2) -0.443(2) -0.4005(5)
H1 H 0.4510 -0.1106 -0.3909
H2 H 0.3585 -0.0851 -0.3528
H3 H 0.6101 -0.2475 -0.3570
H4 H 0.6974 -0.4554 -0.3052
H5 H 0.5824 -0.6130 -0.2546
H6 H 0.3820 -0.5819 -0.2631
H7 H 0.2957 -0.3787 -0.3153
H8 H 0.1314 -0.1375 -0.3423
H9 H 0.0895 -0.0905 -0.2573
H10 H 0.0871 0.1648 -0.2254
H11 H 0.1199 0.3880 -0.2770
H12 H 0.1650 0.3454 -0.3618
H13 H 0.3792 0.2033 -0.3619
H14 H 0.5568 0.3152 -0.3790
H15 H 0.5963 0.3534 -0.4631
H16 H 0.4524 0.2956 -0.5314
H17 H 0.2745 0.1813 -0.5148
H18 H -0.1712 0.4575 -0.5072
H19 H 0.3451 -0.4562 -0.4279
Ag1B Ag -0.01360(6) -0.16472(8) -0.51763(3)
P1B P -0.1758(2) -0.0783(3) -0.57287(8)
C1B C -0.2092(7) 0.132(1) -0.5635(3)
N1B N 0.1463(6) -0.2189(9) -0.4717(3)
F1B F 0.0981(7) 0.332(1) -0.5623(3)
F2_2 F -0.0311(7) 0.428(1) -0.4239(3)
Ag1_2 Ag 0.01360(6) -0.83528(8) -0.48237(3)
F1B_2 F 0.0981(7) -0.668(1) -0.5623(3)
B1B B 0.074(2) -0.557(2) -0.5995(5)
F2B F 0.0311(7) -0.428(1) -0.5761(3)
F3B F 0.021(1) -0.385(1) -0.3682(3)
F4B F -0.158(1) -0.476(1) -0.3747(5)
C2B C 0.1978(8) -0.368(1) -0.4714(4)
H18B H 0.1712 -0.4575 -0.4928
C3B C -0.2918(8) 0.368(1) -0.5642(3)
N2B N -0.2986(6) 0.2192(9) -0.5865(3)
C4B C -0.3913(8) 0.164(1) -0.6257(4)
C5B C -0.4440(8) 0.297(1) -0.6582(3)
C6B C -0.5620(8) 0.318(1) -0.6614(4)
C7B C -0.614(1) 0.438(2) -0.6930(5)
C8B C -0.546(1) 0.532(2) -0.7224(4)
C9B C -0.430(1) 0.512(1) -0.7181(4)
C10B C -0.380(1) 0.394(1) -0.6868(4)
H7B H -0.2957 0.3787 -0.6847
H6B H -0.3820 0.5819 -0.7369
H5B H -0.5824 0.6130 -0.7454
H4B H -0.6974 0.4554 -0.6948
H3B H -0.6101 0.2475 -0.6430
H1B H -0.4510 0.1106 -0.6091
H2B H -0.3585 0.0851 -0.6472
H19B H -0.3451 0.4562 -0.5721
C11B C -0.1544(7) -0.100(1) -0.6399(3)
C12B C -0.1307(9) 0.029(1) -0.6711(4)
C13B C -0.106(1) 0.001(2) -0.7210(4)
C14B C -0.103(1) -0.148(2) -0.7396(4)
C15B C -0.124(1) -0.278(2) -0.7096(5)
C16B C -0.1495(8) -0.255(1) -0.6594(4)
H12B H -0.1650 -0.3454 -0.6382
H11B H -0.1199 -0.3880 -0.7230
H10B H -0.0871 -0.1648 -0.7746
H9B H -0.0895 0.0905 -0.7427
H8B H -0.1314 0.1375 -0.6577
C17B C -0.3132(7) -0.179(1) -0.5638(3)
C18B C -0.3954(8) -0.220(1) -0.6030(4)
C19B C -0.4998(8) -0.286(1) -0.5932(4)
C20B C -0.521(1) -0.311(1) -0.5441(6)
C21B C -0.438(1) -0.273(2) -0.5038(5)
C22B C -0.333(1) -0.207(1) -0.5131(4)
H17B H -0.2745 -0.1813 -0.4852
H16B H -0.4524 -0.2956 -0.4686
H15B H -0.5963 -0.3534 -0.5369
H14B H -0.5568 -0.3152 -0.6210
H13B H -0.3792 -0.2033 -0.6381
Cl1 Cl 0.7517(4) 0.1248(6) -0.3065(2)
C23 C 0.830(1) 0.146(2) -0.3596(5)
Cl2 Cl 0.8354(7) -0.024(1) -0.3923(3)
loop_
_geom_bond_atom_site_label_1
_geom_bond_atom_site_label_2
_geom_bond_site_symmetry_1
_geom_bond_site_symmetry_2
Ag1 P1 1_555 1_555
P1 C1 1_555 1_555
N1 Ag1 1_555 1_555
N2 C1 1_555 1_555
C1 N1B 1_555 1_555
C2 N1 1_555 1_555
C3 N2 1_555 1_555
C4 N2 1_555 1_555
C5 C4 1_555 1_555
C6 C5 1_555 1_555
C7 C6 1_555 1_555
C8 C7 1_555 1_555
C9 C8 1_555 1_555
C10 C5 1_555 1_555
C11 P1 1_555 1_555
C12 C11 1_555 1_555
C13 C12 1_555 1_555
C14 C13 1_555 1_555
C15 C14 1_555 1_555
C16 C11 1_555 1_555
C17 P1 1_555 1_555
C18 C17 1_555 1_555
C19 C18 1_555 1_555
C20 C19 1_555 1_555
C21 C20 1_555 1_555
C22 C17 1_555 1_555
F1 B1 1_555 1_555
F2 B1 1_555 1_555
F3 B1B 1_555 1_555
F4 B1B 1_555 1_555
B1 F3B 1_555 1_555
Cl1 C23 1_555 1_555
C23 Cl2 1_555 1_555
H1 C4 1_555 1_555
H2 C4 1_555 1_555
H3 C6 1_555 1_555
H4 C7 1_555 1_555
H5 C8 1_555 1_555
H6 C9 1_555 1_555
H7 C10 1_555 1_555
H8 C12 1_555 1_555
H9 C13 1_555 1_555
H10 C14 1_555 1_555
H11 C15 1_555 1_555
H12 C16 1_555 1_555
H13 C18 1_555 1_555
H14 C19 1_555 1_555
H15 C20 1_555 1_555
H16 C21 1_555 1_555
H17 C22 1_555 1_555
H18 C2 1_555 1_555
H19 C3 1_555 1_555
Ag1B Ag1 1_555 1_555
P1B Ag1B 1_555 1_555
C1B N1 1_555 1_555
N1B Ag1B 1_555 1_555
F1B Ag1 1_555 1_555
F2_2 Ag1 1_555 1_555
Ag1_2 F2 1_555 1_555
F1B_2 Ag1_2 1_555 1_555
B1B F1B_2 1_555 1_555
F2B Ag1B 1_555 1_555
F4B B1 1_555 1_555
C2B C3 1_555 1_555
H18B C2B 1_555 1_555
C3B C2 1_555 1_555
N2B C1B 1_555 1_555
C4B N2B 1_555 1_555
C5B C4B 1_555 1_555
C6B C5B 1_555 1_555
C7B C6B 1_555 1_555
C8B C7B 1_555 1_555
C9B C8B 1_555 1_555
C10B C5B 1_555 1_555
H7B C10B 1_555 1_555
H6B C9B 1_555 1_555
H5B C8B 1_555 1_555
H4B C7B 1_555 1_555
H3B C6B 1_555 1_555
H1B C4B 1_555 1_555
H2B C4B 1_555 1_555
H19B C3B 1_555 1_555
C11B P1B 1_555 1_555
C12B C11B 1_555 1_555
C13B C12B 1_555 1_555
C14B C13B 1_555 1_555
C15B C14B 1_555 1_555
C16B C11B 1_555 1_555
H12B C16B 1_555 1_555
H11B C15B 1_555 1_555
H10B C14B 1_555 1_555
H9B C13B 1_555 1_555
H8B C12B 1_555 1_555
C17B P1B 1_555 1_555
C18B C17B 1_555 1_555
C19B C18B 1_555 1_555
C20B C19B 1_555 1_555
C21B C20B 1_555 1_555
C22B C17B 1_555 1_555
H17B C22B 1_555 1_555
H16B C21B 1_555 1_555
H15B C20B 1_555 1_555
H14B C19B 1_555 1_555
H13B C18B 1_555 1_555
C9 C10 1_555 1_555
C15 C16 1_555 1_555
C21 C22 1_555 1_555
F1 Ag1B 1_555 1_555
P1B C1B 1_555 1_555
N1B C2B 1_555 1_555
B1B F2B 1_555 1_555
C3B N2B 1_555 1_555
C9B C10B 1_555 1_555
C15B C16B 1_555 1_555
C21B C22B 1_555 1_555

#END
