
#######################################################################
#
#                 Cambridge Crystallographic Data Centre
#                                CCDC 
#
#######################################################################
#
# If this CIF has been generated from an entry in the Cambridge 
# Structural Database, then it will include bibliographic, chemical, 
# crystal, experimental, refinement or atomic coordinate data resulting 
# from the CCDC's data processing and validation procedures.
#
#######################################################################

data_LOLFUO
_symmetry_cell_setting           monoclinic
_symmetry_space_group_name_H-M   'P 21/c'
_symmetry_Int_Tables_number      14
_space_group_name_Hall           '-P 2ybc'
loop_
_symmetry_equiv_pos_site_id
_symmetry_equiv_pos_as_xyz
1 x,y,z
2 -x,1/2+y,1/2-z
3 -x,-y,-z
4 x,1/2-y,1/2+z
_cell_length_a                   13.5645(11)
_cell_length_b                   11.9094(10)
_cell_length_c                   12.4053(10)
_cell_angle_alpha                90
_cell_angle_beta                 104.114(2)
_cell_angle_gamma                90
_cell_volume                     1943.52
loop_
_atom_site_label
_atom_site_type_symbol
_atom_site_fract_x
_atom_site_fract_y
_atom_site_fract_z
Hg1 Hg 0.95899(6) 0.95091(6) 0.16028(5)
Hg2 Hg 1.36481(7) 0.98036(6) 0.36336(6)
Br1 Br 0.96891(17) 0.81295(16) 0.01210(14)
Br2 Br 1.13781(16) 0.96155(15) 0.31221(17)
Br3 Br 1.38653(16) 0.96754(16) 0.57363(15)
Br4 Br 1.38353(18) 0.82637(14) 0.23490(14)
S1 S 0.8969(4) 1.1436(3) 0.1970(3)
S2 S 0.6361(4) 0.6917(3) 0.1898(3)
N1 N 0.8825(12) 0.8947(12) 0.3064(10)
H1 H 0.9271 0.8416 0.3505
C1 C 0.6307(15) 1.0593(14) 0.1034(13)
H2 H 0.6078 1.1206 0.1398
C2 C 0.5813(14) 0.9585(12) 0.0977(14)
H3 H 0.5257 0.9493 0.1310
C3 C 0.6140(15) 0.8693(14) 0.0422(12)
C4 C 0.6883(15) 0.8874(15) -0.0169(13)
H4 H 0.7053 0.8298 -0.0623
C5 C 0.7346(17) 0.9862(16) -0.0084(12)
H5 H 0.7847 0.9982 -0.0490
C6 C 0.7128(14) 1.0743(12) 0.0579(12)
C7 C 0.7824(15) 1.1752(14) 0.0824(14)
H6 H 0.7452 1.2395 0.1041
H7 H 0.8042 1.1966 0.0146
C8 C 0.8401(15) 1.1018(13) 0.3104(14)
H8 H 0.8436 1.1663 0.3615
H9 H 0.7674 1.0846 0.2788
C9 C 0.8890(16) 1.0025(14) 0.3763(13)
H10 H 0.8556 0.9890 0.4377
H11 H 0.9614 1.0199 0.4096
C10 C 0.7763(17) 0.8476(14) 0.2880(13)
H12 H 0.7264 0.9038 0.2488
H13 H 0.7612 0.8313 0.3605
C11 C 0.5719(16) 0.7538(13) 0.0535(13)
H14 H 0.5825 0.7050 -0.0072
H15 H 0.4979 0.7590 0.0474
C12 C 0.7665(14) 0.7387(14) 0.2182(14)
H16 H 0.8122 0.6802 0.2596
H17 H 0.7859 0.7534 0.1476
Hg2A Hg 0.63519(7) 0.48036(6) 0.13664(6)
S2A S 1.3639(4) 1.1917(3) 0.3102(3)
loop_
_geom_bond_atom_site_label_1
_geom_bond_atom_site_label_2
_geom_bond_site_symmetry_1
_geom_bond_site_symmetry_2
Hg1 Br1 1_555 1_555
Hg2 Br2 1_555 1_555
Br2 Hg1 1_555 1_555
Br3 Hg2 1_555 1_555
Br4 Hg2 1_555 1_555
S1 Hg1 1_555 1_555
S2 C11 1_555 1_555
N1 Hg1 1_555 1_555
H1 N1 1_555 1_555
C1 H2 1_555 1_555
C2 C1 1_555 1_555
H3 C2 1_555 1_555
C3 C2 1_555 1_555
C4 C3 1_555 1_555
H4 C4 1_555 1_555
C5 C4 1_555 1_555
H5 C5 1_555 1_555
C6 C1 1_555 1_555
C7 S1 1_555 1_555
H6 C7 1_555 1_555
H7 C7 1_555 1_555
C8 S1 1_555 1_555
H8 C8 1_555 1_555
H9 C8 1_555 1_555
C9 N1 1_555 1_555
H10 C9 1_555 1_555
H11 C9 1_555 1_555
C10 N1 1_555 1_555
H12 C10 1_555 1_555
H13 C10 1_555 1_555
C11 C3 1_555 1_555
H14 C11 1_555 1_555
H15 C11 1_555 1_555
C12 S2 1_555 1_555
H16 C12 1_555 1_555
H17 C12 1_555 1_555
Hg2A S2 1_555 1_555
S2A Hg2 1_555 1_555
C5 C6 1_555 1_555
C6 C7 1_555 1_555
C8 C9 1_555 1_555
C10 C12 1_555 1_555

#END
