
#######################################################################
#
#                 Cambridge Crystallographic Data Centre
#                                CCDC 
#
#######################################################################
#
# If this CIF has been generated from an entry in the Cambridge 
# Structural Database, then it will include bibliographic, chemical, 
# crystal, experimental, refinement or atomic coordinate data resulting 
# from the CCDC's data processing and validation procedures.
#
#######################################################################

data_LOLFIC
_symmetry_cell_setting           orthorhombic
_symmetry_space_group_name_H-M   'P b c a'
_symmetry_Int_Tables_number      61
_space_group_name_Hall           '-P 2ac 2ab'
loop_
_symmetry_equiv_pos_site_id
_symmetry_equiv_pos_as_xyz
1 x,y,z
2 1/2-x,-y,1/2+z
3 -x,1/2+y,1/2-z
4 1/2+x,1/2-y,-z
5 -x,-y,-z
6 1/2+x,y,1/2-z
7 x,1/2-y,1/2+z
8 1/2-x,1/2+y,z
_cell_length_a                   18.2813(8)
_cell_length_b                   8.1124(4)
_cell_length_c                   26.4524(12)
_cell_angle_alpha                90
_cell_angle_beta                 90
_cell_angle_gamma                90
_cell_volume                     3923.03
loop_
_atom_site_label
_atom_site_type_symbol
_atom_site_fract_x
_atom_site_fract_y
_atom_site_fract_z
Hg1 Hg 0.03743(2) 1.06932(5) 0.093096(16)
Hg2 Hg -0.21878(2) 1.25512(5) 0.117073(18)
Br1 Br 0.11564(7) 1.24847(13) 0.04251(4)
Br2 Br -0.24776(7) 1.04150(13) 0.05052(4)
Br3 Br -0.29643(6) 1.38331(14) 0.18637(4)
Br4 Br -0.08225(6) 1.31257(13) 0.13817(5)
S1 S 0.06856(16) 0.7748(3) 0.03280(11)
S2 S 0.06798(14) 1.1213(3) 0.19808(10)
N1 N -0.0377(4) 0.8893(9) 0.1271(3)
H1 H -0.0815 0.9477 0.1341
C1 C 0.1725(5) 0.8546(13) 0.1378(4)
H2 H 0.1824 0.9526 0.1194
C2 C 0.1654(6) 0.7080(13) 0.1125(4)
C3 C 0.1575(6) 0.7036(14) 0.0553(4)
H3 H 0.1654 0.5891 0.0435
H4 H 0.1962 0.7732 0.0401
C4 C 0.0033(6) 0.6571(14) 0.0692(4)
H5 H -0.0171 0.5690 0.0475
H6 H 0.0293 0.6032 0.0976
C5 C -0.0581(6) 0.7563(13) 0.0901(5)
H7 H -0.0928 0.6803 0.1069
H8 H -0.0843 0.8083 0.0615
C6 C -0.0109(6) 0.8270(12) 0.1767(4)
H9 H 0.0351 0.7650 0.1712
H10 H -0.0474 0.7494 0.1907
C7 C 0.0030(6) 0.9618(12) 0.2149(4)
H11 H 0.0201 0.9092 0.2466
H12 H -0.0444 1.0156 0.2225
C8 C 0.1560(5) 1.0299(13) 0.2151(4)
H13 H 0.1961 1.1042 0.2043
H14 H 0.1589 1.0172 0.2523
C9 C 0.1655(5) 0.8618(12) 0.1899(4)
C10 C 0.1603(6) 0.7199(13) 0.2175(4)
H15 H 0.1583 0.7243 0.2534
C11 C 0.1579(5) 0.5672(13) 0.1923(4)
H16 H 0.1552 0.4682 0.2114
C12 C 0.1594(5) 0.5598(13) 0.1406(5)
H17 H 0.1564 0.4566 0.1237
Hg2G Hg -0.28122(2) 0.75512(5) 0.117073(18)
Br2G Br -0.25224(7) 1.54150(13) 0.05052(4)
loop_
_geom_bond_atom_site_label_1
_geom_bond_atom_site_label_2
_geom_bond_site_symmetry_1
_geom_bond_site_symmetry_2
Hg1 Br1 1_555 1_555
Hg2 Br2 1_555 1_555
Br2 Hg2G 1_555 1_555
Br3 Hg2 1_555 1_555
Br4 Hg1 1_555 1_555
S1 Hg1 1_555 1_555
S2 Hg1 1_555 1_555
N1 Hg1 1_555 1_555
H1 N1 1_555 1_555
C1 H2 1_555 1_555
C2 C1 1_555 1_555
C3 S1 1_555 1_555
H3 C3 1_555 1_555
H4 C3 1_555 1_555
C4 S1 1_555 1_555
H5 C4 1_555 1_555
H6 C4 1_555 1_555
C5 N1 1_555 1_555
H7 C5 1_555 1_555
H8 C5 1_555 1_555
C6 N1 1_555 1_555
H9 C6 1_555 1_555
H10 C6 1_555 1_555
C7 S2 1_555 1_555
H11 C7 1_555 1_555
H12 C7 1_555 1_555
C8 S2 1_555 1_555
H13 C8 1_555 1_555
H14 C8 1_555 1_555
C9 C1 1_555 1_555
C10 C9 1_555 1_555
H15 C10 1_555 1_555
C11 C10 1_555 1_555
H16 C11 1_555 1_555
C12 C2 1_555 1_555
H17 C12 1_555 1_555
Br2G Hg2 1_555 1_555
Hg2 Br4 1_555 1_555
C2 C3 1_555 1_555
C4 C5 1_555 1_555
C6 C7 1_555 1_555
C8 C9 1_555 1_555
C11 C12 1_555 1_555

#END
