
#######################################################################
#
#                 Cambridge Crystallographic Data Centre
#                                CCDC 
#
#######################################################################
#
# If this CIF has been generated from an entry in the Cambridge 
# Structural Database, then it will include bibliographic, chemical, 
# crystal, experimental, refinement or atomic coordinate data resulting 
# from the CCDC's data processing and validation procedures.
#
#######################################################################

data_LOLGOK
_symmetry_cell_setting           monoclinic
_symmetry_space_group_name_H-M   'C 2/c'
_symmetry_Int_Tables_number      15
_space_group_name_Hall           '-C 2yn'
loop_
_symmetry_equiv_pos_site_id
_symmetry_equiv_pos_as_xyz
1 x,y,z
2 -x,y,1/2-z
3 1/2+x,1/2+y,z
4 1/2-x,1/2+y,1/2-z
5 -x,-y,-z
6 x,-y,1/2+z
7 1/2-x,1/2-y,-z
8 1/2+x,1/2-y,1/2+z
_cell_length_a                   22.74(12)
_cell_length_b                   28.36(13)
_cell_length_c                   10.39(5)
_cell_angle_alpha                90
_cell_angle_beta                 101.66(8)
_cell_angle_gamma                90
_cell_volume                     6562.31
loop_
_atom_site_label
_atom_site_type_symbol
_atom_site_fract_x
_atom_site_fract_y
_atom_site_fract_z
C1 C 0.1288(4) 0.2812(3) 0.7750(8)
H1 H 0.1524 0.3088 0.7972
C2 C 0.0675(4) 0.2839(3) 0.7798(8)
H2 H 0.0505 0.3122 0.8048
C3 C 0.0326(4) 0.2441(3) 0.7470(8)
C4 C 0.0599(4) 0.2041(3) 0.7098(8)
H3 H 0.0371 0.1764 0.6846
C5 C 0.1212(4) 0.2049(3) 0.7094(8)
H4 H 0.1393 0.1770 0.6850
C6 C 0.3647(4) 0.2541(3) 0.6381(9)
H5 H 0.3369 0.2615 0.5594
C7 C 0.4243(4) 0.2547(3) 0.6359(9)
H6 H 0.4369 0.2624 0.5568
C8 C 0.4679(4) 0.2440(3) 0.7510(10)
C9 C 0.4449(5) 0.2332(3) 0.8609(9)
H7 H 0.4718 0.2254 0.9404
C10 C 0.3838(4) 0.2334(3) 0.8585(8)
H8 H 0.3702 0.2263 0.9370
C11 C 0.1277(4) 0.1309(3) 0.9935(9)
C12 C 0.0839(4) 0.1054(3) 0.9092(10)
H9 H 0.0881 0.0977 0.8225
C13 C 0.0333(5) 0.0915(3) 0.9570(10)
H10 H 0.0025 0.0741 0.9016
C14 C 0.0275(5) 0.1024(4) 1.0827(13)
H11 H -0.0075 0.0930 1.1130
C15 C 0.0728(5) 0.1273(4) 1.1659(11)
H12 H 0.0690 0.1346 1.2530
C16 C 0.1246(5) 0.1414(3) 1.1193(9)
H13 H 0.1563 0.1579 1.1748
C17 C 0.2988(4) 0.0938(3) 1.0303(9)
C18 C 0.2833(5) 0.0510(4) 1.0815(10)
H14 H 0.2576 0.0499 1.1430
C19 C 0.3072(6) 0.0101(4) 1.0384(14)
H15 H 0.2966 -0.0197 1.0689
C20 C 0.3468(6) 0.0121(4) 0.9504(16)
H16 H 0.3646 -0.0157 0.9242
C21 C 0.3585(6) 0.0548(4) 0.9047(14)
H17 H 0.3830 0.0561 0.8407
C22 C 0.3375(4) 0.0964(3) 0.9441(10)
H18 H 0.3491 0.1258 0.9135
C23 C 0.3033(4) 0.4077(3) 0.4920(9)
C24 C 0.3421(5) 0.4400(3) 0.5662(10)
H19 H 0.3509 0.4379 0.6594
C25 C 0.3679(5) 0.4750(4) 0.5038(12)
H20 H 0.3947 0.4967 0.5550
C26 C 0.3554(5) 0.4793(4) 0.3684(11)
H21 H 0.3731 0.5036 0.3259
C27 C 0.3155(4) 0.4463(4) 0.2957(10)
H22 H 0.3060 0.4489 0.2026
C28 C 0.2897(4) 0.4103(3) 0.3553(9)
H23 H 0.2636 0.3880 0.3045
C29 C 0.1317(4) 0.3694(3) 0.4894(9)
C30 C 0.0744(4) 0.3695(4) 0.4059(10)
H24 H 0.0684 0.3582 0.3181
C31 C 0.0261(5) 0.3872(4) 0.4589(12)
H25 H -0.0132 0.3868 0.4058
C32 C 0.0338(5) 0.4047(4) 0.5831(11)
H26 H 0.0008 0.4173 0.6150
C33 C 0.0907(4) 0.4039(3) 0.6623(10)
H27 H 0.0963 0.4161 0.7491
C34 C 0.1408(4) 0.3854(3) 0.6171(8)
H28 H 0.1794 0.3841 0.6731
N1 N 0.1561(3) 0.2434(2) 0.7421(7)
N2 N 0.3427(4) 0.2434(2) 0.7477(7)
O1 O 0.2323(3) 0.3032(2) 0.6265(5)
O2 O 0.2626(3) 0.1858(2) 0.8804(6)
O3 O 0.2248(3) 0.2100(2) 1.0879(5)
O4 O 0.1756(3) 0.1440(2) 0.9331(6)
O5 O 0.2768(3) 0.1344(2) 1.0841(6)
O6 O 0.2665(3) 0.3050(2) 0.4056(6)
O7 O 0.2800(3) 0.3740(2) 0.5656(6)
O8 O 0.1777(3) 0.3513(2) 0.4324(6)
Zn1 Zn 0.25048(4) 0.24328(4) 0.75080(9)
P1 P 0.24021(10) 0.32926(8) 0.5095(2)
P2 P 0.23608(10) 0.17343(8) 0.9948(2)
C1A C -0.1288(4) 0.2812(3) 0.7250(8)
H1A H -0.1524 0.3088 0.7028
C2A C -0.0675(4) 0.2839(3) 0.7202(8)
H2A H -0.0505 0.3122 0.6952
C3A C -0.0326(4) 0.2441(3) 0.7530(8)
C4A C -0.0599(4) 0.2041(3) 0.7902(8)
H3A H -0.0371 0.1764 0.8154
C5A C -0.1212(4) 0.2049(3) 0.7906(8)
H4A H -0.1393 0.1770 0.8150
N1A N -0.1561(3) 0.2434(2) 0.7579(7)
C6A C 0.6353(4) 0.2541(3) 0.8619(9)
H5A H 0.6631 0.2615 0.9406
C7A C 0.5757(4) 0.2547(3) 0.8641(9)
H6A H 0.5631 0.2624 0.9432
C8A C 0.5321(4) 0.2440(3) 0.7490(10)
C9A C 0.5551(5) 0.2332(3) 0.6391(9)
H7A H 0.5282 0.2254 0.5596
C10A C 0.6162(4) 0.2334(3) 0.6415(8)
H8A H 0.6298 0.2263 0.5630
N2A N 0.6573(4) 0.2434(2) 0.7523(7)
C11A C -0.1277(4) 0.1309(3) 0.5065(9)
C12A C -0.0839(4) 0.1054(3) 0.5908(10)
H9A H -0.0881 0.0977 0.6775
C13A C -0.0333(5) 0.0915(3) 0.5430(10)
H10A H -0.0025 0.0741 0.5984
C14A C -0.0275(5) 0.1024(4) 0.4173(13)
H11A H 0.0075 0.0930 0.3870
C15A C -0.0728(5) 0.1273(4) 0.3341(11)
H12A H -0.0690 0.1346 0.2470
C16A C -0.1246(5) 0.1414(3) 0.3807(9)
H13A H -0.1563 0.1579 0.3252
C17A C -0.2988(4) 0.0938(3) 0.4697(9)
C18A C -0.2833(5) 0.0510(4) 0.4185(10)
H14A H -0.2576 0.0499 0.3570
C19A C -0.3072(6) 0.0101(4) 0.4616(14)
H15A H -0.2966 -0.0197 0.4311
C20A C -0.3468(6) 0.0121(4) 0.5496(16)
H16A H -0.3646 -0.0157 0.5758
C21A C -0.3585(6) 0.0548(4) 0.5953(14)
H17A H -0.3830 0.0561 0.6593
C22A C -0.3375(4) 0.0964(3) 0.5559(10)
H18A H -0.3491 0.1258 0.5865
C23A C -0.3033(4) 0.4077(3) 1.0080(9)
C24A C -0.3421(5) 0.4400(3) 0.9338(10)
H19A H -0.3509 0.4379 0.8406
C25A C -0.3679(5) 0.4750(4) 0.9962(12)
H20A H -0.3947 0.4967 0.9450
C26A C -0.3554(5) 0.4793(4) 1.1316(11)
H21A H -0.3731 0.5036 1.1741
C27A C -0.3155(4) 0.4463(4) 1.2043(10)
H22A H -0.3060 0.4489 1.2974
C28A C -0.2897(4) 0.4103(3) 1.1447(9)
H23A H -0.2636 0.3880 1.1955
C29A C -0.1317(4) 0.3694(3) 1.0106(9)
C30A C -0.0744(4) 0.3695(4) 1.0941(10)
H24A H -0.0684 0.3582 1.1819
C31A C -0.0261(5) 0.3872(4) 1.0411(12)
H25A H 0.0132 0.3868 1.0942
C32A C -0.0338(5) 0.4047(4) 0.9169(11)
H26A H -0.0008 0.4173 0.8850
C33A C -0.0907(4) 0.4039(3) 0.8377(10)
H27A H -0.0963 0.4161 0.7509
C34A C -0.1408(4) 0.3854(3) 0.8829(8)
H28A H -0.1794 0.3841 0.8269
O1A O -0.2323(3) 0.3032(2) 0.8735(5)
O2A O -0.2626(3) 0.1858(2) 0.6196(6)
O3A O -0.2248(3) 0.2100(2) 0.4121(5)
O4A O -0.1756(3) 0.1440(2) 0.5669(6)
O5A O -0.2768(3) 0.1344(2) 0.4159(6)
O6A O -0.2665(3) 0.3050(2) 1.0944(6)
O7A O -0.2800(3) 0.3740(2) 0.9344(6)
O8A O -0.1777(3) 0.3513(2) 1.0676(6)
Zn1A Zn -0.25048(4) 0.24328(4) 0.74920(9)
P1A P -0.24021(10) 0.32926(8) 0.9905(2)
P2A P -0.23608(10) 0.17343(8) 0.5052(2)
N2A_2 N -0.3427(4) 0.2434(2) 0.7523(7)
O3F O 0.2752(3) 0.2900(2) 0.9121(5)
O3G O -0.2752(3) 0.2900(2) 0.5879(5)
O6F O 0.2335(3) 0.1950(2) 0.5944(6)
O6G O -0.2335(3) 0.1950(2) 0.9056(6)
Zn1A_2 Zn 0.74952(4) 0.24328(4) 0.74920(9)
Zn1F Zn 0.24952(4) 0.25672(4) 0.24920(9)
Zn1F_2 Zn 0.24952(4) 0.25672(4) 1.24920(9)
Zn1G Zn -0.24952(4) 0.25672(4) 0.25080(9)
Zn1G_2 Zn -0.24952(4) 0.25672(4) 1.25080(9)
loop_
_geom_bond_atom_site_label_1
_geom_bond_atom_site_label_2
_geom_bond_site_symmetry_1
_geom_bond_site_symmetry_2
C1 H1 1_555 1_555
C2 C1 1_555 1_555
H2 C2 1_555 1_555
C3 C2 1_555 1_555
C4 C3 1_555 1_555
H3 C4 1_555 1_555
C5 C4 1_555 1_555
H4 C5 1_555 1_555
C6 H5 1_555 1_555
C7 C6 1_555 1_555
H6 C7 1_555 1_555
C8 C7 1_555 1_555
C9 C8 1_555 1_555
H7 C9 1_555 1_555
C10 C9 1_555 1_555
H8 C10 1_555 1_555
C11 C12 1_555 1_555
C12 H9 1_555 1_555
C13 C12 1_555 1_555
H10 C13 1_555 1_555
C14 C13 1_555 1_555
H11 C14 1_555 1_555
C15 C14 1_555 1_555
H12 C15 1_555 1_555
C16 C11 1_555 1_555
H13 C16 1_555 1_555
C17 C18 1_555 1_555
C18 H14 1_555 1_555
C19 C18 1_555 1_555
H15 C19 1_555 1_555
C20 C19 1_555 1_555
H16 C20 1_555 1_555
C21 C20 1_555 1_555
H17 C21 1_555 1_555
C22 C17 1_555 1_555
H18 C22 1_555 1_555
C23 C24 1_555 1_555
C24 H19 1_555 1_555
C25 C24 1_555 1_555
H20 C25 1_555 1_555
C26 C25 1_555 1_555
H21 C26 1_555 1_555
C27 C26 1_555 1_555
H22 C27 1_555 1_555
C28 C23 1_555 1_555
H23 C28 1_555 1_555
C29 C30 1_555 1_555
C30 H24 1_555 1_555
C31 C30 1_555 1_555
H25 C31 1_555 1_555
C32 C31 1_555 1_555
H26 C32 1_555 1_555
C33 C32 1_555 1_555
H27 C33 1_555 1_555
C34 C29 1_555 1_555
H28 C34 1_555 1_555
N1 C1 1_555 1_555
N2 C6 1_555 1_555
O1 Zn1 1_555 1_555
O2 Zn1 1_555 1_555
O3 P2 1_555 1_555
O4 C11 1_555 1_555
O5 C17 1_555 1_555
O6 P1 1_555 1_555
O7 C23 1_555 1_555
O8 C29 1_555 1_555
Zn1 N1 1_555 1_555
P1 O1 1_555 1_555
P2 O2 1_555 1_555
C1A H1A 1_555 1_555
C2A C1A 1_555 1_555
H2A C2A 1_555 1_555
C3A C3 1_555 1_555
C4A C3A 1_555 1_555
H3A C4A 1_555 1_555
C5A C4A 1_555 1_555
H4A C5A 1_555 1_555
N1A C1A 1_555 1_555
C6A H5A 1_555 1_555
C7A C6A 1_555 1_555
H6A C7A 1_555 1_555
C8A C8 1_555 1_555
C9A C8A 1_555 1_555
H7A C9A 1_555 1_555
C10A C9A 1_555 1_555
H8A C10A 1_555 1_555
N2A C6A 1_555 1_555
C11A C12A 1_555 1_555
C12A H9A 1_555 1_555
C13A C12A 1_555 1_555
H10A C13A 1_555 1_555
C14A C13A 1_555 1_555
H11A C14A 1_555 1_555
C15A C14A 1_555 1_555
H12A C15A 1_555 1_555
C16A C11A 1_555 1_555
H13A C16A 1_555 1_555
C17A C18A 1_555 1_555
C18A H14A 1_555 1_555
C19A C18A 1_555 1_555
H15A C19A 1_555 1_555
C20A C19A 1_555 1_555
H16A C20A 1_555 1_555
C21A C20A 1_555 1_555
H17A C21A 1_555 1_555
C22A C17A 1_555 1_555
H18A C22A 1_555 1_555
C23A C24A 1_555 1_555
C24A H19A 1_555 1_555
C25A C24A 1_555 1_555
H20A C25A 1_555 1_555
C26A C25A 1_555 1_555
H21A C26A 1_555 1_555
C27A C26A 1_555 1_555
H22A C27A 1_555 1_555
C28A C23A 1_555 1_555
H23A C28A 1_555 1_555
C29A C30A 1_555 1_555
C30A H24A 1_555 1_555
C31A C30A 1_555 1_555
H25A C31A 1_555 1_555
C32A C31A 1_555 1_555
H26A C32A 1_555 1_555
C33A C32A 1_555 1_555
H27A C33A 1_555 1_555
C34A C29A 1_555 1_555
H28A C34A 1_555 1_555
O1A Zn1A 1_555 1_555
O2A Zn1A 1_555 1_555
O3A P2A 1_555 1_555
O4A C11A 1_555 1_555
O5A C17A 1_555 1_555
O6A P1A 1_555 1_555
O7A C23A 1_555 1_555
O8A C29A 1_555 1_555
Zn1A N1A 1_555 1_555
P1A O1A 1_555 1_555
P2A O2A 1_555 1_555
N2A_2 Zn1A 1_555 1_555
O3F Zn1 1_555 1_555
O3G Zn1A 1_555 1_555
O6F Zn1 1_555 1_555
O6G Zn1A 1_555 1_555
Zn1A_2 N2A 1_555 1_555
Zn1F O6 1_555 1_555
Zn1F_2 O3 1_555 1_555
Zn1G O3A 1_555 1_555
Zn1G_2 O6A 1_555 1_555
C5 N1 1_555 1_555
C10 N2 1_555 1_555
C15 C16 1_555 1_555
C21 C22 1_555 1_555
C27 C28 1_555 1_555
C33 C34 1_555 1_555
N2 Zn1 1_555 1_555
O4 P2 1_555 1_555
O5 P2 1_555 1_555
O7 P1 1_555 1_555
O8 P1 1_555 1_555
C2A C3A 1_555 1_555
C5A N1A 1_555 1_555
C7A C8A 1_555 1_555
C10A N2A 1_555 1_555
C15A C16A 1_555 1_555
C21A C22A 1_555 1_555
C27A C28A 1_555 1_555
C33A C34A 1_555 1_555
O4A P2A 1_555 1_555
O5A P2A 1_555 1_555
O7A P1A 1_555 1_555
O8A P1A 1_555 1_555

#END
