
#######################################################################
#
#                 Cambridge Crystallographic Data Centre
#                                CCDC 
#
#######################################################################
#
# If this CIF has been generated from an entry in the Cambridge 
# Structural Database, then it will include bibliographic, chemical, 
# crystal, experimental, refinement or atomic coordinate data resulting 
# from the CCDC's data processing and validation procedures.
#
#######################################################################

data_LOLGEA
_symmetry_cell_setting           monoclinic
_symmetry_space_group_name_H-M   'P 21/c'
_symmetry_Int_Tables_number      14
_space_group_name_Hall           '-P 2ybc'
loop_
_symmetry_equiv_pos_site_id
_symmetry_equiv_pos_as_xyz
1 x,y,z
2 -x,1/2+y,1/2-z
3 -x,-y,-z
4 x,1/2-y,1/2+z
_cell_length_a                   13.211(8)
_cell_length_b                   11.690(7)
_cell_length_c                   14.445(9)
_cell_angle_alpha                90
_cell_angle_beta                 99.835(11)
_cell_angle_gamma                90
_cell_volume                     2198.05
loop_
_atom_site_label
_atom_site_type_symbol
_atom_site_fract_x
_atom_site_fract_y
_atom_site_fract_z
C1 C 0.4671(4) 0.7829(5) 0.6198(4)
C2 C 0.4698(4) 0.6644(4) 0.6200(4)
C3 C 0.3900(3) 0.6046(4) 0.5667(3)
C4 C 0.3107(4) 0.6681(4) 0.5168(4)
C5 C 0.3135(4) 0.7856(5) 0.5207(4)
C6 C 0.3888(4) 0.4763(4) 0.5661(3)
C7 C 0.4643(4) 0.4146(5) 0.6241(4)
C8 C 0.4620(4) 0.2975(5) 0.6233(4)
C9 C 0.3161(4) 0.2941(5) 0.5143(4)
C10 C 0.3143(4) 0.4121(4) 0.5094(4)
C11 C 0.2565(3) 0.0460(4) 0.6902(3)
C12 C 0.1770(3) 0.0523(4) 0.7528(3)
C13 C 0.1282(4) -0.0469(5) 0.7753(3)
C14 C 0.1603(5) -0.1618(5) 0.7421(5)
H1 H 0.1183 -0.2220 0.7638
H2 H 0.2328 -0.1754 0.7678
H3 H 0.1505 -0.1624 0.6734
C15 C 0.0498(4) -0.0367(6) 0.8276(4)
C16 C 0.0191(4) 0.0673(5) 0.8585(3)
C17 C -0.0686(5) 0.0768(7) 0.9121(4)
C18 C 0.0711(4) 0.1640(5) 0.8375(4)
C19 C 0.1493(4) 0.1592(5) 0.7840(3)
C20 C 0.2015(4) 0.2664(5) 0.7596(4)
H4 H 0.2539 0.2469 0.7218
H5 H 0.2340 0.3047 0.8174
H6 H 0.1506 0.3176 0.7237
C21 C 0.6352(4) 0.0195(4) 0.6346(3)
C22 C 0.7159(4) 0.0542(5) 0.7158(4)
H7 H 0.6840 0.0979 0.7611
H8 H 0.7676 0.1015 0.6930
H9 H 0.7487 -0.0144 0.7465
Mn1 Mn 0.38920(5) 0.04030(6) 0.57641(5)
N1 N 0.3900(3) 0.8433(3) 0.5718(3)
N2 N 0.3898(3) 0.2348(3) 0.5697(3)
O1 O 0.6622(3) -0.0375(3) 0.5697(2)
O2 O 0.5447(2) 0.0502(3) 0.6377(3)
O3 O 0.2275(2) 0.0467(3) 0.6024(2)
O4 O 0.3504(2) 0.0394(3) 0.7256(2)
H10 H 0.526(4) 0.822(4) 0.656(3)
H11 H 0.534(4) 0.628(5) 0.660(4)
H12 H 0.256(4) 0.637(5) 0.475(4)
H13 H 0.259(4) 0.830(5) 0.488(4)
H14 H 0.515(4) 0.450(5) 0.659(4)
H15 H 0.511(4) 0.254(5) 0.661(3)
H16 H 0.265(4) 0.250(5) 0.472(4)
H17 H 0.260(4) 0.454(4) 0.466(3)
H18 H 0.023(4) -0.104(5) 0.845(3)
H19 H -0.091(3) 0.000(4) 0.926(3)
H20 H -0.044(5) 0.132(6) 0.975(5)
H21 H -0.126(5) 0.112(6) 0.880(5)
H22 H 0.053(4) 0.238(5) 0.859(4)
Mn1_2 Mn 0.38920(5) 1.04030(6) 0.57641(5)
Mn1B Mn 0.61080(5) -0.04030(6) 0.42359(5)
N1_2 N 0.3900(3) -0.1567(3) 0.5718(3)
O1B O 0.3378(3) 0.0375(3) 0.4303(2)
C23 C -0.0371(6) 0.1239(11) 0.5676(7)
H23 H -0.0247 0.0421 0.5791
H24 H -0.0981 0.1341 0.5191
H25 H -0.0482 0.1612 0.6258
O5 O 0.0465(5) 0.1721(6) 0.5378(5)
H26 H 0.0813 0.1207 0.5176
loop_
_geom_bond_atom_site_label_1
_geom_bond_atom_site_label_2
_geom_bond_site_symmetry_1
_geom_bond_site_symmetry_2
C1 C2 1_555 1_555
C2 C3 1_555 1_555
C3 C4 1_555 1_555
C4 C5 1_555 1_555
C5 N1 1_555 1_555
C6 C3 1_555 1_555
C7 C6 1_555 1_555
C8 C7 1_555 1_555
C9 C10 1_555 1_555
C10 C6 1_555 1_555
C11 C12 1_555 1_555
C12 C13 1_555 1_555
C13 C14 1_555 1_555
C14 H1 1_555 1_555
H2 C14 1_555 1_555
H3 C14 1_555 1_555
C15 C13 1_555 1_555
C16 C15 1_555 1_555
C17 C16 1_555 1_555
C18 C16 1_555 1_555
C19 C12 1_555 1_555
C20 C19 1_555 1_555
H4 C20 1_555 1_555
H5 C20 1_555 1_555
H6 C20 1_555 1_555
C21 C22 1_555 1_555
C22 H7 1_555 1_555
H8 C22 1_555 1_555
H9 C22 1_555 1_555
Mn1 N2 1_555 1_555
N1 C1 1_555 1_555
N2 C8 1_555 1_555
O1 C21 1_555 1_555
O2 C21 1_555 1_555
O3 C11 1_555 1_555
O4 C11 1_555 1_555
H10 C1 1_555 1_555
H11 C2 1_555 1_555
H12 C4 1_555 1_555
H13 C5 1_555 1_555
H14 C7 1_555 1_555
H15 C8 1_555 1_555
H16 C9 1_555 1_555
H17 C10 1_555 1_555
H18 C15 1_555 1_555
H19 C17 1_555 1_555
H20 C17 1_555 1_555
H21 C17 1_555 1_555
H22 C18 1_555 1_555
C23 H23 1_555 1_555
H24 C23 1_555 1_555
H25 C23 1_555 1_555
O5 C23 1_555 1_555
H26 O5 1_555 1_555
Mn1_2 N1 1_555 1_555
Mn1B O1 1_555 1_555
N1_2 Mn1 1_555 1_555
O1B Mn1 1_555 1_555
C9 N2 1_555 1_555
C18 C19 1_555 1_555
Mn1 O2 1_555 1_555
Mn1 O3 1_555 1_555
Mn1 O4 1_555 1_555

#END
