
#######################################################################
#
#                 Cambridge Crystallographic Data Centre
#                                CCDC 
#
#######################################################################
#
# If this CIF has been generated from an entry in the Cambridge 
# Structural Database, then it will include bibliographic, chemical, 
# crystal, experimental, refinement or atomic coordinate data resulting 
# from the CCDC's data processing and validation procedures.
#
#######################################################################

data_LOLQOS
_symmetry_cell_setting           triclinic
_symmetry_space_group_name_H-M   'P -1'
_symmetry_Int_Tables_number      2
_space_group_name_Hall           '-P 1'
loop_
_symmetry_equiv_pos_site_id
_symmetry_equiv_pos_as_xyz
1 x,y,z
2 -x,-y,-z
_cell_length_a                   10.024(3)
_cell_length_b                   10.220(3)
_cell_length_c                   10.727(4)
_cell_angle_alpha                74.42(3)
_cell_angle_beta                 74.58(2)
_cell_angle_gamma                84.77(3)
_cell_volume                     1020.22
loop_
_atom_site_label
_atom_site_type_symbol
_atom_site_fract_x
_atom_site_fract_y
_atom_site_fract_z
Cu1 Cu 0.32830(3) 0.91381(3) 0.12643(3)
Cu2 Cu 0.49846(3) 0.72680(3) 0.13376(3)
N1 N 0.1892(3) 1.0763(3) 0.1208(2)
N2 N -0.3424(3) 1.5822(3) 0.1311(2)
O1 O 0.3535(2) 0.9216(2) -0.05853(19)
O2 O 0.5036(2) 0.7470(2) -0.05015(19)
O3 O 0.1709(2) 0.7607(2) 0.2099(2)
O4 O 0.3242(2) 0.5917(3) 0.2446(3)
O5 O 0.3509(2) 0.9197(2) 0.2962(2)
O6 O 0.5174(2) 0.7606(2) 0.2959(2)
C1 C 0.4253(3) 0.8310(3) -0.2464(2)
C2 C 0.5080(3) 0.7385(3) -0.3084(3)
H1 H 0.5640 0.6766 -0.2633
C3 C 0.5073(3) 0.7381(3) -0.4377(3)
H2 H 0.5614 0.6749 -0.4784
C4 C 0.4256(3) 0.8323(3) -0.5061(3)
C5 C 0.3394(3) 0.9214(3) -0.4422(3)
H3 H 0.2813 0.9815 -0.4863
C6 C 0.3394(3) 0.9215(3) -0.3136(3)
H4 H 0.2819 0.9820 -0.2715
C7 C 0.4277(3) 0.8337(3) -0.1091(2)
C8 C 0.2070(3) 0.6465(3) 0.2719(3)
C9 C 0.0994(3) 0.5704(3) 0.3894(3)
C10 C 0.1249(3) 0.4376(3) 0.4564(3)
H5 H 0.2090 0.3949 0.4272
C11 C -0.0271(3) 0.6318(4) 0.4346(3)
H6 H -0.0461 0.7204 0.3909
C12 C 0.1568(5) 1.1425(5) 0.2145(4)
H7 H 0.2058 1.1215 0.2800
C13 C 0.0535(5) 1.2419(5) 0.2210(4)
H8 H 0.0340 1.2846 0.2904
C14 C -0.0198(3) 1.2773(3) 0.1256(3)
C15 C 0.0172(5) 1.2111(4) 0.0255(4)
H9 H -0.0280 1.2316 -0.0430
C16 C 0.1221(4) 1.1136(4) 0.0273(4)
H10 H 0.1467 1.0716 -0.0427
C17 C 0.4314(3) 0.8373(3) 0.3522(3)
C18 C -0.2759(4) 1.5466(4) 0.2272(3)
H11 H -0.3014 1.5896 0.2965
C19 C -0.1706(4) 1.4492(4) 0.2304(4)
H12 H -0.1270 1.4280 0.3000
C20 C -0.1312(3) 1.3836(3) 0.1280(3)
C21 C -0.2018(3) 1.4200(3) 0.0289(3)
H13 H -0.1794 1.3780 -0.0412
C22 C -0.3054(3) 1.5184(3) 0.0339(3)
H14 H -0.3516 1.5411 -0.0339
C17_2 C 0.4314(3) 0.8373(3) -0.6478(3)
C11A C 0.0271(3) 0.3682(4) 0.5654(3)
C10A C -0.1249(3) 0.5624(3) 0.5436(3)
C4_2 C 0.4256(3) 0.8323(3) 0.4939(3)
Cu1_2 Cu 1.32830(3) -0.08619(3) 0.12643(3)
N1_2 N 1.1892(3) 0.0763(3) 0.1208(2)
N2_2 N 0.6576(3) 0.5822(3) 0.1311(2)
O1_2 O 1.3535(2) -0.0784(2) -0.05853(19)
O2_2 O 1.5036(2) -0.2530(2) -0.05015(19)
O3_2 O 1.1709(2) -0.2393(2) 0.2099(2)
O4_2 O 1.3242(2) -0.4083(3) 0.2446(3)
O5_2 O 1.3509(2) -0.0803(2) 0.2962(2)
O6_2 O 1.5174(2) -0.2394(2) 0.2959(2)
C12_2 C 1.1568(5) 0.1425(5) 0.2145(4)
H7_2 H 1.2058 0.1215 0.2800
C13_2 C 1.0535(5) 0.2419(5) 0.2210(4)
H8_2 H 1.0340 0.2846 0.2904
C14_2 C 0.9802(3) 0.2773(3) 0.1256(3)
C15_2 C 1.0172(5) 0.2111(4) 0.0255(4)
H9_2 H 0.9720 0.2316 -0.0430
C16_2 C 1.1221(4) 0.1136(4) 0.0273(4)
H10_2 H 1.1467 0.0716 -0.0427
C18_2 C 0.7241(4) 0.5466(4) 0.2272(3)
H11_2 H 0.6986 0.5896 0.2965
C19_2 C 0.8294(4) 0.4492(4) 0.2304(4)
H12_2 H 0.8730 0.4280 0.3000
C20_2 C 0.8688(3) 0.3836(3) 0.1280(3)
C21_2 C 0.7982(3) 0.4200(3) 0.0289(3)
H13_2 H 0.8206 0.3780 -0.0412
C22_2 C 0.6946(3) 0.5184(3) 0.0339(3)
H14_2 H 0.6484 0.5411 -0.0339
Cu2_2 Cu 1.49846(3) -0.27320(3) 0.13376(3)
Cu2_3 Cu -0.50154(3) 1.72680(3) 0.13376(3)
O5_3 O 0.3509(2) 0.9197(2) -0.7038(2)
O6_3 O 0.5174(2) 0.7606(2) -0.7041(2)
C9A C -0.0994(3) 0.4296(3) 0.6106(3)
H6A H 0.0461 0.2796 0.6091
H5A H -0.2090 0.6051 0.5728
C3_2 C 0.5073(3) 0.7381(3) 0.5623(3)
C5_2 C 0.3394(3) 0.9214(3) 0.5578(3)
Cu1_3 Cu 0.32830(3) 0.91381(3) -0.87357(3)
Cu2_4 Cu 0.49846(3) 0.72680(3) -0.86624(3)
C8A C -0.2070(3) 0.3535(3) 0.7281(3)
C2_2 C 0.5080(3) 0.7385(3) 0.6916(3)
H2_2 H 0.5614 0.6749 0.5216
H3_2 H 0.2813 0.9815 0.5137
C6_2 C 0.3394(3) 0.9215(3) 0.6864(3)
O3A O -0.1709(2) 0.2393(2) 0.7901(2)
O4A O -0.3242(2) 0.4083(3) 0.7554(3)
C1_2 C 0.4253(3) 0.8310(3) 0.7536(2)
H1_2 H 0.5640 0.6766 0.7367
H4_2 H 0.2819 0.9820 0.7285
Cu1A Cu -0.32830(3) 0.08619(3) 0.87357(3)
Cu2A Cu -0.49846(3) 0.27320(3) 0.86624(3)
C7_2 C 0.4277(3) 0.8337(3) 0.8909(2)
O1_3 O 0.3535(2) 0.9216(2) 0.94147(19)
O2_3 O 0.5036(2) 0.7470(2) 0.94985(19)
Cu1_4 Cu 0.32830(3) 0.91381(3) 1.12643(3)
Cu2_5 Cu 0.49846(3) 0.72680(3) 1.13376(3)
N2_3 N 1.6576(3) -0.4178(3) 0.1311(2)
loop_
_geom_bond_atom_site_label_1
_geom_bond_atom_site_label_2
_geom_bond_site_symmetry_1
_geom_bond_site_symmetry_2
Cu1 Cu2 1_555 1_555
Cu2 O2 1_555 1_555
N1 Cu1 1_555 1_555
N2 C18 1_555 1_555
O1 Cu1 1_555 1_555
O2 C7 1_555 1_555
O3 Cu1 1_555 1_555
O4 Cu2 1_555 1_555
O5 Cu1 1_555 1_555
O6 Cu2 1_555 1_555
C1 C2 1_555 1_555
C2 H1 1_555 1_555
C3 C2 1_555 1_555
H2 C3 1_555 1_555
C4 C3 1_555 1_555
C5 C4 1_555 1_555
H3 C5 1_555 1_555
C6 C1 1_555 1_555
H4 C6 1_555 1_555
C7 O1 1_555 1_555
C8 O3 1_555 1_555
C9 C8 1_555 1_555
C10 C9 1_555 1_555
H5 C10 1_555 1_555
C11 C9 1_555 1_555
H6 C11 1_555 1_555
C12 N1 1_555 1_555
H7 C12 1_555 1_555
C13 C12 1_555 1_555
H8 C13 1_555 1_555
C14 C13 1_555 1_555
C15 C14 1_555 1_555
H9 C15 1_555 1_555
C16 N1 1_555 1_555
H10 C16 1_555 1_555
C17 O5 1_555 1_555
C18 H11 1_555 1_555
C19 C18 1_555 1_555
H12 C19 1_555 1_555
C20 C14 1_555 1_555
C21 C20 1_555 1_555
H13 C21 1_555 1_555
C22 N2 1_555 1_555
H14 C22 1_555 1_555
C17_2 C4 1_555 1_555
C11A C10 1_555 1_555
C10A C11 1_555 1_555
C4_2 C17 1_555 1_555
Cu1_2 N1_2 1_555 1_555
N1_2 C12_2 1_555 1_555
N2_2 Cu2 1_555 1_555
O1_2 Cu1_2 1_555 1_555
O2_2 Cu2_2 1_555 1_555
O3_2 Cu1_2 1_555 1_555
O4_2 Cu2_2 1_555 1_555
O5_2 Cu1_2 1_555 1_555
O6_2 Cu2_2 1_555 1_555
C12_2 H7_2 1_555 1_555
C13_2 C12_2 1_555 1_555
H8_2 C13_2 1_555 1_555
C14_2 C13_2 1_555 1_555
C15_2 C14_2 1_555 1_555
H9_2 C15_2 1_555 1_555
C16_2 N1_2 1_555 1_555
H10_2 C16_2 1_555 1_555
C18_2 N2_2 1_555 1_555
H11_2 C18_2 1_555 1_555
C19_2 C18_2 1_555 1_555
H12_2 C19_2 1_555 1_555
C20_2 C14_2 1_555 1_555
C21_2 C20_2 1_555 1_555
H13_2 C21_2 1_555 1_555
C22_2 N2_2 1_555 1_555
H14_2 C22_2 1_555 1_555
Cu2_2 Cu1_2 1_555 1_555
Cu2_3 N2 1_555 1_555
O5_3 C17_2 1_555 1_555
O6_3 C17_2 1_555 1_555
C9A C11A 1_555 1_555
H6A C11A 1_555 1_555
H5A C10A 1_555 1_555
C3_2 C4_2 1_555 1_555
C5_2 C4_2 1_555 1_555
Cu1_3 O5_3 1_555 1_555
Cu2_4 O6_3 1_555 1_555
C8A C9A 1_555 1_555
C2_2 C3_2 1_555 1_555
H2_2 C3_2 1_555 1_555
H3_2 C5_2 1_555 1_555
C6_2 C5_2 1_555 1_555
O3A C8A 1_555 1_555
O4A C8A 1_555 1_555
C1_2 C2_2 1_555 1_555
H1_2 C2_2 1_555 1_555
H4_2 C6_2 1_555 1_555
Cu1A O3A 1_555 1_555
Cu2A O4A 1_555 1_555
C7_2 C1_2 1_555 1_555
O1_3 C7_2 1_555 1_555
O2_3 C7_2 1_555 1_555
Cu1_4 O1_3 1_555 1_555
Cu2_5 O2_3 1_555 1_555
N2_3 Cu2_2 1_555 1_555
O4 C8 1_555 1_555
O6 C17 1_555 1_555
C1 C7 1_555 1_555
C5 C6 1_555 1_555
C15 C16 1_555 1_555
C19 C20 1_555 1_555
C21 C22 1_555 1_555
C10A C9A 1_555 1_555
C15_2 C16_2 1_555 1_555
C19_2 C20_2 1_555 1_555
C21_2 C22_2 1_555 1_555
Cu1_3 Cu2_4 1_555 1_555
C6_2 C1_2 1_555 1_555
Cu1A Cu2A 1_555 1_555
Cu1_4 Cu2_5 1_555 1_555

#END
