
#######################################################################
#
#                 Cambridge Crystallographic Data Centre
#                                CCDC 
#
#######################################################################
#
# If this CIF has been generated from an entry in the Cambridge 
# Structural Database, then it will include bibliographic, chemical, 
# crystal, experimental, refinement or atomic coordinate data resulting 
# from the CCDC's data processing and validation procedures.
#
#######################################################################

data_LOLVEO
_symmetry_cell_setting           orthorhombic
_symmetry_space_group_name_H-M   'P c a 21'
_symmetry_Int_Tables_number      29
_space_group_name_Hall           'P 2c -2ac'
loop_
_symmetry_equiv_pos_site_id
_symmetry_equiv_pos_as_xyz
1 x,y,z
2 -x,-y,1/2+z
3 1/2+x,-y,z
4 1/2-x,y,1/2+z
_cell_length_a                   16.6730(2)
_cell_length_b                   10.54060(10)
_cell_length_c                   25.1940(4)
_cell_angle_alpha                90
_cell_angle_beta                 90
_cell_angle_gamma                90
_cell_volume                     4427.68
loop_
_atom_site_label
_atom_site_type_symbol
_atom_site_fract_x
_atom_site_fract_y
_atom_site_fract_z
Mn1 Mn -0.024133(15) 0.75343(3) 0.55022(3)
S2 S -0.08863(4) 0.46589(6) 0.63797(4)
S3 S 0.05557(4) 1.02788(7) 0.45256(4)
O2 O -0.22616(9) 0.49252(15) 0.58592(7)
O3 O 0.18327(9) 1.00537(16) 0.51428(8)
O4 O -0.06410(11) 0.80242(17) 0.46928(7)
H1 H -0.0402(18) 0.868(2) 0.4637(12)
H2 H -0.056(2) 0.759(2) 0.4426(9)
O5 O 0.00965(11) 0.72057(18) 0.63291(8)
H3 H -0.001(2) 0.774(2) 0.6558(11)
H4 H -0.0079(19) 0.6567(19) 0.6439(12)
N5 N -0.13557(10) 0.63285(16) 0.56104(8)
N6 N -0.20577(10) 0.65431(17) 0.53193(8)
N7 N -0.45731(10) 0.42622(17) 0.52745(8)
N8 N 0.08761(10) 0.87252(17) 0.53759(8)
N9 N 0.15383(11) 0.85347(18) 0.57127(9)
N10 N 0.41096(10) 1.06671(16) 0.57407(8)
C8 C -0.14853(13) 0.5364(2) 0.59359(10)
C9 C -0.25654(11) 0.57102(18) 0.54815(10)
C10 C -0.33907(12) 0.5547(2) 0.53054(9)
C11 C -0.37709(14) 0.6475(2) 0.50097(11)
H9 H -0.3504 0.7221 0.4923
C12 C -0.45488(15) 0.6282(2) 0.48449(12)
H10 H -0.4814 0.6889 0.4642
C13 C -0.49253(13) 0.5166(2) 0.49876(10)
H11 H -0.5452 0.5039 0.4878
C14 C -0.38163(11) 0.44544(18) 0.54346(10)
H12 H -0.3567 0.3836 0.5639
C15 C 0.10625(13) 0.9632(2) 0.50347(10)
C16 C 0.20746(11) 0.93222(18) 0.55559(10)
C17 C 0.28952(12) 0.9467(2) 0.57497(10)
C18 C 0.32572(15) 0.8540(2) 0.60541(11)
H13 H 0.2972 0.7824 0.6159
C19 C 0.40465(16) 0.8695(2) 0.61995(12)
H14 H 0.4303 0.8088 0.6407
C20 C 0.44502(14) 0.9762(2) 0.60334(11)
H15 H 0.4985 0.9856 0.6130
C21 C 0.33395(12) 1.05116(18) 0.55983(10)
H16 H 0.3097 1.1130 0.5390
Mn1B Mn -0.524133(15) 0.24657(3) 0.55022(3)
Mn1B_2 Mn 0.475867(15) 1.24657(3) 0.55022(3)
N7B N 0.04269(10) 0.57378(17) 0.52745(8)
N10B N -0.08904(10) 0.93329(16) 0.57407(8)
S1 S 0.04481(7) 0.08384(8) 0.22578(4)
O1 O 0.02681(12) 0.3187(2) 0.26409(8)
N2 N -0.00331(19) 0.1690(3) 0.32194(11)
N3 N -0.01626(18) 0.2882(3) 0.34551(11)
N4 N -0.0254(2) 0.6845(3) 0.37326(12)
C1 C 0.02073(17) 0.1883(3) 0.27365(12)
C2 C 0.00257(18) 0.3718(3) 0.31017(11)
C3 C 0.00374(18) 0.5096(3) 0.31630(11)
C4 C 0.0361(2) 0.5901(3) 0.27906(13)
H5 H 0.0570 0.5587 0.2475
C5 C 0.0370(2) 0.7183(4) 0.28957(15)
H6 H 0.0573 0.7749 0.2647
C6 C 0.0077(2) 0.7620(4) 0.33696(16)
H7 H 0.0108 0.8483 0.3443
C7 C -0.0272(2) 0.5630(4) 0.36233(14)
H8 H -0.0507 0.5089 0.3870
N1 N -0.22108(14) -0.0027(3) 0.31336(10)
C22 C -0.25985(19) 0.1062(3) 0.28339(14)
H17 H -0.2977 0.1481 0.3068
H18 H -0.2900 0.0716 0.2538
C23 C -0.2011(2) 0.2054(4) 0.26203(15)
H19 H -0.1663 0.2340 0.2905
H20 H -0.1679 0.1676 0.2347
C24 C -0.2461(2) 0.3171(3) 0.23936(16)
H21 H -0.2784 0.3554 0.2671
H22 H -0.2821 0.2875 0.2118
C25 C -0.1905(3) 0.4158(5) 0.2165(2)
H23 H -0.2215 0.4851 0.2027
H24 H -0.1594 0.3789 0.1884
H25 H -0.1554 0.4464 0.2438
C26 C -0.2886(2) -0.0902(4) 0.33099(16)
H26 H -0.3242 -0.0424 0.3533
H27 H -0.3183 -0.1159 0.3002
C27 C -0.2494(4) -0.2167(8) 0.3572(5)
H28 H -0.2036 -0.2436 0.3363
H29 H -0.2309 -0.1978 0.3929
C28 C -0.3108(4) -0.3217(7) 0.3591(3)
H30 H -0.3291 -0.3393 0.3233
H31 H -0.3566 -0.2933 0.3796
C29 C -0.278(2) -0.442(2) 0.3833(13)
H32 H -0.3188 -0.5072 0.3816
H33 H -0.2643 -0.4271 0.4196
H34 H -0.2318 -0.4691 0.3640
C30 C -0.1611(2) -0.0695(3) 0.27774(14)
H35 H -0.1175 -0.0113 0.2704
H36 H -0.1389 -0.1408 0.2972
C31 C -0.1929(3) -0.1176(4) 0.22585(17)
H37 H -0.2091 -0.0466 0.2038
H38 H -0.2396 -0.1704 0.2321
C32 C -0.1293(3) -0.1934(5) 0.19787(16)
H39 H -0.1164 -0.2671 0.2192
H40 H -0.0812 -0.1421 0.1951
C33 C -0.1532(4) -0.2370(5) 0.14310(16)
H41 H -0.1097 -0.2836 0.1274
H42 H -0.1655 -0.1647 0.1215
H43 H -0.1996 -0.2907 0.1456
C34 C -0.17477(18) 0.0453(3) 0.36125(12)
H44 H -0.1596 -0.0273 0.3827
H45 H -0.1257 0.0845 0.3487
C35 C -0.2175(2) 0.1394(4) 0.39673(14)
H46 H -0.2658 0.1010 0.4109
H47 H -0.2330 0.2133 0.3762
C36 C -0.1633(2) 0.1797(3) 0.44190(13)
H48 H -0.1556 0.1083 0.4656
H49 H -0.1113 0.2026 0.4276
C37 C -0.1958(3) 0.2902(3) 0.47330(16)
H50 H -0.1589 0.3114 0.5012
H51 H -0.2466 0.2675 0.4885
H52 H -0.2025 0.3620 0.4503
C38? C -0.2840(6) -0.2000(10) 0.3645(6)
C39? C -0.2711(7) -0.3208(9) 0.3335(4)
C40? C -0.271(3) -0.436(3) 0.3688(17)
H53? H -0.3333 -0.2072 0.3847
H54? H -0.2402 -0.1892 0.3894
H55? H -0.2203 -0.3157 0.3149
H56? H -0.3132 -0.3294 0.3072
H57? H -0.2603 -0.5104 0.3479
H58? H -0.3223 -0.4446 0.3857
H59? H -0.2301 -0.4273 0.3954
loop_
_geom_bond_atom_site_label_1
_geom_bond_atom_site_label_2
_geom_bond_site_symmetry_1
_geom_bond_site_symmetry_2
Mn1 O4 1_555 1_555
S1 C1 1_555 1_555
S2 C8 1_555 1_555
S3 C15 1_555 1_555
O1 C1 1_555 1_555
O2 C8 1_555 1_555
O3 C15 1_555 1_555
O4 H1 1_555 1_555
H2 O4 1_555 1_555
O5 Mn1 1_555 1_555
H3 O5 1_555 1_555
H4 O5 1_555 1_555
N1 C22 1_555 1_555
N2 N3 1_555 1_555
N3 C2 1_555 1_555
N4 C6 1_555 1_555
N5 Mn1 1_555 1_555
N6 N5 1_555 1_555
N7 C13 1_555 1_555
N8 Mn1 1_555 1_555
N9 N8 1_555 1_555
N10 C20 1_555 1_555
C1 N2 1_555 1_555
C2 O1 1_555 1_555
C3 C2 1_555 1_555
C4 C3 1_555 1_555
H5 C4 1_555 1_555
C5 C4 1_555 1_555
H6 C5 1_555 1_555
C6 C5 1_555 1_555
H7 C6 1_555 1_555
C7 N4 1_555 1_555
H8 C7 1_555 1_555
C8 N5 1_555 1_555
C9 O2 1_555 1_555
C10 C9 1_555 1_555
C11 C10 1_555 1_555
H9 C11 1_555 1_555
C12 C11 1_555 1_555
H10 C12 1_555 1_555
C13 C12 1_555 1_555
H11 C13 1_555 1_555
C14 N7 1_555 1_555
H12 C14 1_555 1_555
C15 N8 1_555 1_555
C16 O3 1_555 1_555
C17 C16 1_555 1_555
C18 C17 1_555 1_555
H13 C18 1_555 1_555
C19 C18 1_555 1_555
H14 C19 1_555 1_555
C20 C19 1_555 1_555
H15 C20 1_555 1_555
C21 N10 1_555 1_555
H16 C21 1_555 1_555
C22 H17 1_555 1_555
H18 C22 1_555 1_555
C23 C22 1_555 1_555
H19 C23 1_555 1_555
H20 C23 1_555 1_555
C24 C23 1_555 1_555
H21 C24 1_555 1_555
H22 C24 1_555 1_555
C25 C24 1_555 1_555
H23 C25 1_555 1_555
H24 C25 1_555 1_555
H25 C25 1_555 1_555
C26 N1 1_555 1_555
H26 C26 1_555 1_555
H27 C26 1_555 1_555
C27 C26 1_555 1_555
H28 C27 1_555 1_555
H29 C27 1_555 1_555
C28 C27 1_555 1_555
H30 C28 1_555 1_555
H31 C28 1_555 1_555
C29 C28 1_555 1_555
H32 C29 1_555 1_555
H33 C29 1_555 1_555
H34 C29 1_555 1_555
C30 N1 1_555 1_555
H35 C30 1_555 1_555
H36 C30 1_555 1_555
C31 C30 1_555 1_555
H37 C31 1_555 1_555
H38 C31 1_555 1_555
C32 C31 1_555 1_555
H39 C32 1_555 1_555
H40 C32 1_555 1_555
C33 C32 1_555 1_555
H41 C33 1_555 1_555
H42 C33 1_555 1_555
H43 C33 1_555 1_555
C34 N1 1_555 1_555
H44 C34 1_555 1_555
H45 C34 1_555 1_555
C35 C34 1_555 1_555
H46 C35 1_555 1_555
H47 C35 1_555 1_555
C36 C35 1_555 1_555
H48 C36 1_555 1_555
H49 C36 1_555 1_555
C37 C36 1_555 1_555
H50 C37 1_555 1_555
H51 C37 1_555 1_555
H52 C37 1_555 1_555
Mn1B N7 1_555 1_555
Mn1B_2 N10 1_555 1_555
N7B Mn1 1_555 1_555
N10B Mn1 1_555 1_555
N6 C9 1_555 1_555
N9 C16 1_555 1_555
C3 C7 1_555 1_555
C10 C14 1_555 1_555
C17 C21 1_555 1_555

#END
