
#######################################################################
#
#                 Cambridge Crystallographic Data Centre
#                                CCDC 
#
#######################################################################
#
# If this CIF has been generated from an entry in the Cambridge 
# Structural Database, then it will include bibliographic, chemical, 
# crystal, experimental, refinement or atomic coordinate data resulting 
# from the CCDC's data processing and validation procedures.
#
#######################################################################

data_LOMLOO
_symmetry_cell_setting           tetragonal
_symmetry_space_group_name_H-M   'P -4 21 c'
_symmetry_Int_Tables_number      114
_space_group_name_Hall           'P -4 2n'
loop_
_symmetry_equiv_pos_site_id
_symmetry_equiv_pos_as_xyz
1 x,y,z
2 -x,-y,z
3 y,-x,-z
4 -y,x,-z
5 1/2-x,1/2+y,1/2-z
6 1/2+x,1/2-y,1/2-z
7 1/2-y,1/2-x,1/2+z
8 1/2+y,1/2+x,1/2+z
_cell_length_a                   26.435(6)
_cell_length_b                   26.435(6)
_cell_length_c                   7.584(2)
_cell_angle_alpha                90
_cell_angle_beta                 90
_cell_angle_gamma                90
_cell_volume                     5299.77
loop_
_atom_site_label
_atom_site_type_symbol
_atom_site_fract_x
_atom_site_fract_y
_atom_site_fract_z
Er1 Er 0.26446(2) 0.01795(3) 0.04554(12)
O1 O 0.1923(5) 0.0509(6) 0.207(2)
O2 O 0.1920(5) -0.0302(5) 0.1653(18)
O3 O 0.1367(6) 0.0030(7) 0.342(3)
N1 N 0.1715(6) 0.0075(7) 0.236(3)
O4 O 0.2797(5) -0.0021(5) 0.3522(17)
O5 O 0.3415(4) -0.0186(5) 0.1804(16)
O6 O 0.3508(5) -0.0279(7) 0.462(2)
N2 N 0.3249(6) -0.0183(7) 0.331(2)
O7 O 0.3189(5) 0.0826(5) 0.169(2)
O8 O 0.2600(5) 0.1098(4) 0.0006(19)
O9 O 0.3184(8) 0.1610(6) 0.083(3)
N3 N 0.2994(7) 0.1202(6) 0.085(3)
O10 O 0.3199(4) 0.0335(5) -0.1842(18)
N4 N 0.3707(5) 0.0247(5) -0.1935(17)
O11 O 0.2124(4) 0.0241(4) -0.1813(17)
N5 N 0.1945(5) 0.0617(5) -0.279(2)
O12 O 0.0651(4) 0.2722(4) -0.954(2)
N6 N 0.0868(5) 0.2412(5) -0.8377(19)
C1 C 0.4008(6) 0.0620(6) -0.234(2)
H1 H 0.3880 0.0942 -0.2534
C2 C 0.4520(6) 0.0526(6) -0.246(2)
H2 H 0.4737 0.0786 -0.2789
C3 C 0.4720(6) 0.0043(6) -0.210(2)
C4 C 0.4379(6) -0.0335(6) -0.176(2)
H3 H 0.4491 -0.0663 -0.1556
C5 C 0.3866(6) -0.0227(7) -0.171(2)
H4 H 0.3634 -0.0485 -0.1519
C6 C 0.2265(7) 0.0860(6) -0.388(2)
H5 H 0.2606 0.0775 -0.3903
C7 C 0.2076(7) 0.1247(7) -0.498(2)
H6 H 0.2287 0.1409 -0.5779
C8 C 0.1559(7) 0.1384(6) -0.484(3)
C9 C 0.1269(8) 0.1146(7) -0.359(3)
H7 H 0.0932 0.1240 -0.3451
C10 C 0.1461(7) 0.0782(8) -0.255(3)
H8 H 0.1262 0.0641 -0.1666
C11 C 0.1249(7) 0.2112(7) -0.899(3)
H9 H 0.1345 0.2122 -1.0166
C12 C 0.1496(8) 0.1784(7) -0.779(3)
H10 H 0.1768 0.1589 -0.8177
C13 C 0.1339(7) 0.1750(6) -0.609(2)
C14 C 0.0955(6) 0.2088(6) -0.554(3)
H11 H 0.0853 0.2086 -0.4365
C15 C 0.0732(6) 0.2414(6) -0.668(2)
H12 H 0.0485 0.2637 -0.6284
C3A C 0.5280(6) -0.0043(6) -0.210(2)
C2A C 0.5480(6) -0.0526(6) -0.246(2)
C4A C 0.5621(6) 0.0335(6) -0.176(2)
C1A C 0.5992(6) -0.0620(6) -0.234(2)
H2A H 0.5263 -0.0786 -0.2789
H3A H 0.5509 0.0663 -0.1556
C5A C 0.6134(6) 0.0227(7) -0.171(2)
O12B O 0.2722(4) -0.0651(4) -0.046(2)
N4A N 0.6293(5) -0.0247(5) -0.1935(17)
H1A H 0.6120 -0.0942 -0.2534
H4A H 0.6366 0.0485 -0.1519
Er1C Er -0.01795(3) 0.26446(2) -1.04554(12)
O10A O 0.6801(4) -0.0335(5) -0.1842(18)
O1C O -0.0509(6) 0.1923(5) -1.207(2)
O2C O 0.0302(5) 0.1920(5) -1.1653(18)
O4C O 0.0021(5) 0.2797(5) -1.3522(17)
O5C O 0.0186(5) 0.3415(4) -1.1804(16)
O7C O -0.0826(5) 0.3189(5) -1.169(2)
O8C O -0.1098(4) 0.2600(5) -1.0006(19)
O10C O -0.0335(5) 0.3199(4) -0.8158(18)
O11C O -0.0241(4) 0.2124(4) -0.8187(17)
Er1A Er 0.73554(2) -0.01795(3) 0.04554(12)
N1C N -0.0075(7) 0.1715(6) -1.236(3)
N2C N 0.0183(7) 0.3249(6) -1.331(2)
N3C N -0.1202(6) 0.2994(7) -1.085(3)
O9C O -0.1610(6) 0.3184(8) -1.083(3)
O3C O -0.0030(7) 0.1367(6) -1.342(3)
O6C O 0.0279(7) 0.3508(5) -1.462(2)
N4C N -0.0247(5) 0.3707(5) -0.8065(17)
C1C C -0.0620(6) 0.4008(6) -0.766(2)
C5C C 0.0227(7) 0.3866(6) -0.829(2)
C4C C 0.0335(6) 0.4379(6) -0.824(2)
H4C H 0.0485 0.3634 -0.8481
H1C H -0.0942 0.3880 -0.7466
C2C C -0.0526(6) 0.4520(6) -0.754(2)
C3C C -0.0043(6) 0.4720(6) -0.790(2)
H3C H 0.0663 0.4491 -0.8444
H2C H -0.0786 0.4737 -0.7211
C3B C 0.0043(6) 0.5280(6) -0.790(2)
C2B C 0.0526(6) 0.5480(6) -0.754(2)
C4B C -0.0335(6) 0.5621(6) -0.824(2)
C1B C 0.0620(6) 0.5992(6) -0.766(2)
H2B H 0.0786 0.5263 -0.7211
H3B H -0.0663 0.5509 -0.8444
C5B C -0.0227(7) 0.6134(6) -0.829(2)
N4B N 0.0247(5) 0.6293(5) -0.8065(17)
H1B H 0.0942 0.6120 -0.7466
H4B H -0.0485 0.6366 -0.8481
O10B O 0.0335(5) 0.6801(4) -0.8158(18)
Er1B Er 0.01795(3) 0.73554(2) -1.04554(12)
O13 O 0.2726(15) 0.2604(16) 0.312(5)
C16 C 0.256(2) 0.307(2) 0.240(8)
O14 O 0.0462(12) 0.0571(12) 0.033(5)
C17 C 0.0502(17) 0.0912(17) 0.161(6)
loop_
_geom_bond_atom_site_label_1
_geom_bond_atom_site_label_2
_geom_bond_site_symmetry_1
_geom_bond_site_symmetry_2
Er1 O1 1_555 1_555
O1 N1 1_555 1_555
O2 Er1 1_555 1_555
O3 N1 1_555 1_555
N1 O2 1_555 1_555
O4 Er1 1_555 1_555
O5 Er1 1_555 1_555
O6 N2 1_555 1_555
N2 O4 1_555 1_555
O7 Er1 1_555 1_555
O8 Er1 1_555 1_555
O9 N3 1_555 1_555
N3 O7 1_555 1_555
O10 Er1 1_555 1_555
N4 O10 1_555 1_555
O11 Er1 1_555 1_555
N5 O11 1_555 1_555
O12 N6 1_555 1_555
N6 C11 1_555 1_555
C1 N4 1_555 1_555
H1 C1 1_555 1_555
C2 C1 1_555 1_555
H2 C2 1_555 1_555
C3 C2 1_555 1_555
C4 C3 1_555 1_555
H3 C4 1_555 1_555
C5 N4 1_555 1_555
H4 C5 1_555 1_555
C6 N5 1_555 1_555
H5 C6 1_555 1_555
C7 C6 1_555 1_555
H6 C7 1_555 1_555
C8 C7 1_555 1_555
C9 C8 1_555 1_555
H7 C9 1_555 1_555
C10 N5 1_555 1_555
H8 C10 1_555 1_555
C11 H9 1_555 1_555
C12 C11 1_555 1_555
H10 C12 1_555 1_555
C13 C8 1_555 1_555
C14 C13 1_555 1_555
H11 C14 1_555 1_555
C15 N6 1_555 1_555
H12 C15 1_555 1_555
O13 C16 1_555 1_555
O14 C17 1_555 1_555
C3A C3 1_555 1_555
C2A C3A 1_555 1_555
C4A C3A 1_555 1_555
C1A C2A 1_555 1_555
H2A C2A 1_555 1_555
H3A C4A 1_555 1_555
C5A C4A 1_555 1_555
O12B Er1 1_555 1_555
N4A C1A 1_555 1_555
H1A C1A 1_555 1_555
H4A C5A 1_555 1_555
Er1C O12 1_555 1_555
O10A N4A 1_555 1_555
O1C Er1C 1_555 1_555
O2C Er1C 1_555 1_555
O4C Er1C 1_555 1_555
O5C Er1C 1_555 1_555
O7C Er1C 1_555 1_555
O8C Er1C 1_555 1_555
O10C Er1C 1_555 1_555
O11C Er1C 1_555 1_555
Er1A O10A 1_555 1_555
N1C O1C 1_555 1_555
N2C O4C 1_555 1_555
N3C O7C 1_555 1_555
O9C N3C 1_555 1_555
O3C N1C 1_555 1_555
O6C N2C 1_555 1_555
N4C O10C 1_555 1_555
C1C N4C 1_555 1_555
C5C N4C 1_555 1_555
C4C C5C 1_555 1_555
H4C C5C 1_555 1_555
H1C C1C 1_555 1_555
C2C C1C 1_555 1_555
C3C C4C 1_555 1_555
H3C C4C 1_555 1_555
H2C C2C 1_555 1_555
C3B C3C 1_555 1_555
C2B C3B 1_555 1_555
C4B C3B 1_555 1_555
C1B C2B 1_555 1_555
H2B C2B 1_555 1_555
H3B C4B 1_555 1_555
C5B C4B 1_555 1_555
N4B C1B 1_555 1_555
H1B C1B 1_555 1_555
H4B C5B 1_555 1_555
O10B N4B 1_555 1_555
Er1B O10B 1_555 1_555
O5 N2 1_555 1_555
O8 N3 1_555 1_555
C4 C5 1_555 1_555
C9 C10 1_555 1_555
C12 C13 1_555 1_555
C14 C15 1_555 1_555
C5A N4A 1_555 1_555
O2C N1C 1_555 1_555
O5C N2C 1_555 1_555
O8C N3C 1_555 1_555
C2C C3C 1_555 1_555
C5B N4B 1_555 1_555

#END
