
#######################################################################
#
#                 Cambridge Crystallographic Data Centre
#                                CCDC 
#
#######################################################################
#
# If this CIF has been generated from an entry in the Cambridge 
# Structural Database, then it will include bibliographic, chemical, 
# crystal, experimental, refinement or atomic coordinate data resulting 
# from the CCDC's data processing and validation procedures.
#
#######################################################################

data_LOMLIK
_symmetry_cell_setting           monoclinic
_symmetry_space_group_name_H-M   'C 2/c'
_symmetry_Int_Tables_number      15
_space_group_name_Hall           '-C 2yn'
loop_
_symmetry_equiv_pos_site_id
_symmetry_equiv_pos_as_xyz
1 x,y,z
2 -x,y,1/2-z
3 1/2+x,1/2+y,z
4 1/2-x,1/2+y,1/2-z
5 -x,-y,-z
6 x,-y,1/2+z
7 1/2-x,1/2-y,-z
8 1/2+x,1/2-y,1/2+z
_cell_length_a                   30.581(9)
_cell_length_b                   6.2049(17)
_cell_length_c                   21.504(7)
_cell_angle_alpha                90
_cell_angle_beta                 132.467(4)
_cell_angle_gamma                90
_cell_volume                     3009.99
loop_
_atom_site_label
_atom_site_type_symbol
_atom_site_fract_x
_atom_site_fract_y
_atom_site_fract_z
Ni1 Ni 1.0000 0.0000 0.0000
C1 C 1.10501(11) 0.2360(4) 0.17807(15)
C2 C 1.15577(12) 0.1864(6) 0.19286(18)
H1 H 1.1550 0.0868 0.1598
C3 C 1.20716(14) 0.2917(8) 0.2587(2)
H2 H 1.2418 0.2628 0.2699
C4 C 1.20899(16) 0.4398(8) 0.3090(2)
H3 H 1.2445 0.5089 0.3523
C5 C 1.15951(15) 0.4865(6) 0.2963(2)
H4 H 1.1607 0.5836 0.3304
C6 C 1.10785(11) 0.3811(5) 0.23015(15)
C7 C 1.01757(11) 0.2523(4) 0.13251(15)
H5 H 0.9775 0.2274 0.1011
C8 C 1.02681(12) 0.5035(4) 0.22840(15)
C9 C 1.02620(12) 0.7264(4) 0.22969(16)
H6 H 1.0448 0.8023 0.2158
N1 N 1.0000 0.8366(5) 0.2500
C10 C 1.0000 0.3884(6) 0.2500
H7 H 1.0000 0.2385 0.2500
C11 C 0.86909(11) -0.2418(4) 0.00598(15)
C12 C 0.83287(16) -0.4185(5) -0.0232(3)
H8 H 0.8399 -0.5392 -0.0410
C13 C 0.78617(16) -0.4201(5) -0.0266(3)
H9 H 0.7615 -0.5400 -0.0487
C14 C 0.77521(10) -0.2491(4) 0.00192(15)
C15 C 0.81233(13) -0.0750(5) 0.0326(2)
H10 H 0.8067 0.0426 0.0535
C16 C 0.85796(13) -0.0704(5) 0.0334(2)
H11 H 0.8815 0.0520 0.0530
C17 C 0.91918(11) -0.2415(4) 0.00811(15)
N2 N 1.04693(9) 0.1608(3) 0.11598(12)
N3 N 1.05056(9) 0.3873(3) 0.19968(12)
O1 O 0.93632(7) -0.0600(3) 0.00532(11)
O2 O 0.94053(9) -0.4186(3) 0.01281(13)
O3 O 1.04591(7) -0.2798(3) 0.06841(10)
H12 H 1.0205 -0.3490 0.0657
H13 H 1.0605 -0.3592 0.0543
C1A C 0.89499(11) 0.2360(4) 0.32193(15)
C2A C 0.84423(12) 0.1864(6) 0.30714(18)
H1A H 0.8450 0.0868 0.3402
C3A C 0.79284(14) 0.2917(8) 0.2413(2)
H2A H 0.7582 0.2628 0.2301
C4A C 0.79101(16) 0.4398(8) 0.1910(2)
H3A H 0.7555 0.5089 0.1477
C5A C 0.84049(15) 0.4865(6) 0.2037(2)
H4A H 0.8393 0.5836 0.1696
C6A C 0.89215(11) 0.3811(5) 0.26985(15)
C7A C 0.98243(11) 0.2523(4) 0.36749(15)
H5A H 1.0225 0.2274 0.3989
C8A C 0.97319(12) 0.5035(4) 0.27160(15)
C9A C 0.97380(12) 0.7264(4) 0.27031(16)
H6A H 0.9552 0.8023 0.2842
N2A N 0.95307(9) 0.1608(3) 0.38402(12)
N3A N 0.94944(9) 0.3873(3) 0.30032(12)
C11F C 0.63091(11) -0.2582(4) -0.00598(15)
C12F C 0.66713(16) -0.0815(5) 0.0232(3)
H8F H 0.6601 0.0392 0.0410
C13F C 0.71383(16) -0.0799(5) 0.0266(3)
H9F H 0.7385 0.0400 0.0487
C14F C 0.72479(10) -0.2509(4) -0.00192(15)
C15F C 0.68767(13) -0.4250(5) -0.0326(2)
H10F H 0.6933 -0.5426 -0.0535
C16F C 0.64204(13) -0.4296(5) -0.0334(2)
H11F H 0.6185 -0.5520 -0.0530
C17F C 0.58082(11) -0.2585(4) -0.00811(15)
O1F O 0.56368(7) -0.4400(3) -0.00532(11)
O2F O 0.55947(9) -0.0814(3) -0.01281(13)
O3D O 0.95409(7) 0.2798(3) -0.06841(10)
H12D H 0.9795 0.3490 -0.0657
H13D H 0.9395 0.3592 -0.0543
Ni1A Ni 1.0000 0.0000 0.5000
Ni1B Ni 0.5000 -0.5000 0.0000
N2D N 0.95307(9) -0.1608(3) -0.11598(12)
O1D O 1.06368(7) 0.0600(3) -0.00532(11)
loop_
_geom_bond_atom_site_label_1
_geom_bond_atom_site_label_2
_geom_bond_site_symmetry_1
_geom_bond_site_symmetry_2
Ni1 N2 1_555 1_555
C1 C2 1_555 1_555
C2 H1 1_555 1_555
C3 C2 1_555 1_555
H2 C3 1_555 1_555
C4 C3 1_555 1_555
H3 C4 1_555 1_555
C5 C4 1_555 1_555
H4 C5 1_555 1_555
C6 C1 1_555 1_555
C7 H5 1_555 1_555
C8 C9 1_555 1_555
C9 H6 1_555 1_555
N1 C9 1_555 1_555
C10 C8 1_555 1_555
H7 C10 1_555 1_555
C11 C12 1_555 1_555
C12 H8 1_555 1_555
C13 C12 1_555 1_555
H9 C13 1_555 1_555
C14 C13 1_555 1_555
C15 C14 1_555 1_555
H10 C15 1_555 1_555
C16 C11 1_555 1_555
H11 C16 1_555 1_555
C17 C11 1_555 1_555
N2 C1 1_555 1_555
N3 C6 1_555 1_555
O1 Ni1 1_555 1_555
O2 C17 1_555 1_555
O3 Ni1 1_555 1_555
H12 O3 1_555 1_555
H13 O3 1_555 1_555
C1A C2A 1_555 1_555
C2A H1A 1_555 1_555
C3A C2A 1_555 1_555
H2A C3A 1_555 1_555
C4A C3A 1_555 1_555
H3A C4A 1_555 1_555
C5A C4A 1_555 1_555
H4A C5A 1_555 1_555
C6A C1A 1_555 1_555
C7A H5A 1_555 1_555
C8A C10 1_555 1_555
C9A N1 1_555 1_555
H6A C9A 1_555 1_555
N2A C1A 1_555 1_555
N3A C6A 1_555 1_555
C11F C12F 1_555 1_555
C12F H8F 1_555 1_555
C13F C12F 1_555 1_555
H9F C13F 1_555 1_555
C14F C14 1_555 1_555
C15F C14F 1_555 1_555
H10F C15F 1_555 1_555
C16F C11F 1_555 1_555
H11F C16F 1_555 1_555
C17F C11F 1_555 1_555
O1F C17F 1_555 1_555
O2F C17F 1_555 1_555
O3D Ni1 1_555 1_555
H12D O3D 1_555 1_555
H13D O3D 1_555 1_555
Ni1A N2A 1_555 1_555
Ni1B O1F 1_555 1_555
N2D Ni1 1_555 1_555
O1D Ni1 1_555 1_555
C5 C6 1_555 1_555
C7 N2 1_555 1_555
C7 N3 1_555 1_555
C8 N3 1_555 1_555
C15 C16 1_555 1_555
C17 O1 1_555 1_555
C5A C6A 1_555 1_555
C7A N2A 1_555 1_555
C7A N3A 1_555 1_555
C8A C9A 1_555 1_555
C8A N3A 1_555 1_555
C13F C14F 1_555 1_555
C15F C16F 1_555 1_555

#END
