
#######################################################################
#
#                 Cambridge Crystallographic Data Centre
#                                CCDC 
#
#######################################################################
#
# If this CIF has been generated from an entry in the Cambridge 
# Structural Database, then it will include bibliographic, chemical, 
# crystal, experimental, refinement or atomic coordinate data resulting 
# from the CCDC's data processing and validation procedures.
#
#######################################################################

data_LOMMIL
_symmetry_cell_setting           tetragonal
_symmetry_space_group_name_H-M   'I -4 2 d'
_symmetry_Int_Tables_number      122
_space_group_name_Hall           'I -4 2bw'
loop_
_symmetry_equiv_pos_site_id
_symmetry_equiv_pos_as_xyz
1 x,y,z
2 -x,-y,z
3 y,-x,-z
4 -y,x,-z
5 1/2-x,y,3/4-z
6 1/2+x,-y,3/4-z
7 1/2-y,-x,3/4+z
8 1/2+y,x,3/4+z
9 1/2+x,1/2+y,1/2+z
10 1/2-x,1/2-y,1/2+z
11 1/2+y,1/2-x,1/2-z
12 1/2-y,1/2+x,1/2-z
13 -x,1/2+y,1/4-z
14 x,1/2-y,1/4-z
15 -y,1/2-x,1/4+z
16 y,1/2+x,1/4+z
_cell_length_a                   28.9341(3)
_cell_length_b                   28.9341(3)
_cell_length_c                   10.5123(3)
_cell_angle_alpha                90
_cell_angle_beta                 90
_cell_angle_gamma                90
_cell_volume                     8800.71
loop_
_atom_site_label
_atom_site_type_symbol
_atom_site_fract_x
_atom_site_fract_y
_atom_site_fract_z
Y1 Y 0.391047(11) 0.816618(12) 1.03552(3)
C1 C 0.45812(13) 0.71834(13) 0.9906(3)
C2 C 0.50107(13) 0.71897(13) 0.9169(3)
C3 C 0.52027(16) 0.75293(16) 0.8467(4)
H1 H 0.5078 0.7829 0.8328
C4 C 0.56244(15) 0.73560(15) 0.7973(5)
H2 H 0.5839 0.7516 0.7449
C5 C 0.56599(13) 0.69185(14) 0.8396(3)
C6 C 0.60234(13) 0.65717(14) 0.8147(3)
C7 C 0.32472(12) 0.72327(12) 0.9840(3)
C8 C 0.28261(12) 0.70281(12) 0.9273(3)
C9 C 0.27097(13) 0.65788(13) 0.9093(3)
H3 H 0.2877 0.6316 0.9374
C10 C 0.49061(14) 0.87816(15) 0.9995(4)
H4 H 0.4885 0.8775 1.0896
C11 C 0.52909(19) 0.8992(2) 0.9438(5)
H5 H 0.5528 0.9122 0.9951
C12 C 0.53202(19) 0.9008(2) 0.8128(5)
H6 H 0.5578 0.9151 0.7732
C13 C 0.49743(16) 0.88143(17) 0.7391(4)
C14 C 0.49700(19) 0.88319(19) 0.6020(4)
H7 H 0.5225 0.8965 0.5584
C15 C 0.46152(19) 0.86648(16) 0.5353(5)
H8 H 0.4621 0.8682 0.4450
C16 C 0.42326(18) 0.84638(15) 0.5964(4)
C17 C 0.3837(2) 0.83001(16) 0.5315(5)
H9 H 0.3828 0.8310 0.4412
C18 C 0.3470(2) 0.8129(2) 0.5965(4)
H10 H 0.3199 0.8030 0.5531
C19 C 0.34996(18) 0.81023(18) 0.7295(4)
H11 H 0.3244 0.7979 0.7749
C20 C 0.42248(14) 0.84281(13) 0.7313(3)
C21 C 0.46014(14) 0.86118(13) 0.8032(4)
N1 N 0.45734(11) 0.85927(11) 0.9325(3)
N2 N 0.38672(12) 0.82399(11) 0.7956(3)
O1 O 0.44873(8) 0.68365(9) 1.0573(2)
O2 O 0.43368(8) 0.75465(8) 0.9823(2)
O3 O 0.52914(8) 0.68075(9) 0.9162(2)
O4 O 0.60206(9) 0.61794(8) 0.8651(2)
O5 O 0.63376(10) 0.67031(10) 0.7402(2)
O6 O 0.33082(8) 0.76610(9) 0.9789(2)
O7 O 0.35143(8) 0.69380(8) 1.0323(2)
O8 O 0.2500 0.73153(11) 0.8750
C7D C 0.17528(12) 0.72327(12) 0.7660(3)
C8D C 0.21739(12) 0.70281(12) 0.8227(3)
C9D C 0.22903(13) 0.65788(13) 0.8407(3)
H3D H 0.2123 0.6316 0.8126
O6D O 0.16918(8) 0.76610(9) 0.7711(2)
O7D O 0.14857(8) 0.69380(8) 0.7177(2)
Y1D Y 0.108953(11) 0.816618(12) 0.71448(3)
C1D C 0.04188(13) 0.71834(13) 0.7594(3)
C2D C -0.00107(13) 0.71897(13) 0.8331(3)
C3D C -0.02027(16) 0.75293(16) 0.9033(4)
H1D H -0.0078 0.7829 0.9172
C4D C -0.06244(15) 0.73560(15) 0.9527(5)
H2D H -0.0839 0.7516 1.0051
C5D C -0.06599(13) 0.69185(14) 0.9104(3)
C6D C -0.10234(13) 0.65717(14) 0.9353(3)
C10D C 0.00939(14) 0.87816(15) 0.7505(4)
H4D H 0.0115 0.8775 0.6604
C11D C -0.02909(19) 0.8992(2) 0.8062(5)
H5D H -0.0528 0.9122 0.7549
C12D C -0.03202(19) 0.9008(2) 0.9372(5)
H6D H -0.0578 0.9151 0.9768
C13D C 0.00257(16) 0.88143(17) 1.0109(4)
C14D C 0.00300(19) 0.88319(19) 1.1480(4)
H7D H -0.0225 0.8965 1.1916
C15D C 0.03848(19) 0.86648(16) 1.2147(5)
H8D H 0.0379 0.8682 1.3050
C16D C 0.07674(18) 0.84638(15) 1.1536(4)
C17D C 0.1163(2) 0.83001(16) 1.2185(5)
H9D H 0.1172 0.8310 1.3088
C18D C 0.1530(2) 0.8129(2) 1.1535(4)
H10D H 0.1801 0.8030 1.1969
C19D C 0.15004(18) 0.81023(18) 1.0205(4)
H11D H 0.1756 0.7979 0.9751
C20D C 0.07752(14) 0.84281(13) 1.0187(3)
C21D C 0.03986(14) 0.86118(13) 0.9468(4)
N1D N 0.04266(11) 0.85927(11) 0.8175(3)
N2D N 0.11328(12) 0.82399(11) 0.9544(3)
O1D O 0.05127(8) 0.68365(9) 0.6927(2)
O2D O 0.06632(8) 0.75465(8) 0.7677(2)
O3D O -0.02914(8) 0.68075(9) 0.8338(2)
O4D O -0.10206(9) 0.61794(8) 0.8849(2)
O5D O -0.13376(10) 0.67031(10) 1.0098(2)
Y1B Y -0.183382(12) 0.608953(11) 0.96448(3)
Y1F Y 0.683382(12) 0.608953(11) 0.78552(3)
Y1I Y 0.108953(11) 0.683382(12) 0.53552(3)
Y1M Y 0.391047(11) 0.683382(12) 1.21448(3)
O1I O 0.05127(8) 0.81635(9) 0.5573(2)
O1M O 0.44873(8) 0.81635(9) 1.1927(2)
O4J O 0.11794(8) 0.89794(9) 0.6349(2)
O4N O 0.38206(8) 0.89794(9) 1.1151(2)
O5J O 0.17031(10) 0.86624(10) 0.7598(2)
O5N O 0.32969(10) 0.86624(10) 0.9902(2)
O7I O 0.14857(8) 0.80620(8) 0.5323(2)
O7M O 0.35143(8) 0.80620(8) 1.2177(2)
O9 O 0.44291(13) 0.95954(13) 0.2559(4)
H12 H 0.4240 0.9395 0.2230
H13 H 0.4479 0.9885 0.2512
loop_
_geom_bond_atom_site_label_1
_geom_bond_atom_site_label_2
_geom_bond_site_symmetry_1
_geom_bond_site_symmetry_2
Y1 N1 1_555 1_555
C1 C2 1_555 1_555
C2 C3 1_555 1_555
C3 H1 1_555 1_555
C4 C3 1_555 1_555
H2 C4 1_555 1_555
C5 C4 1_555 1_555
C6 C5 1_555 1_555
C7 C8 1_555 1_555
C8 C9 1_555 1_555
C9 H3 1_555 1_555
C10 H4 1_555 1_555
C11 C10 1_555 1_555
H5 C11 1_555 1_555
C12 C11 1_555 1_555
H6 C12 1_555 1_555
C13 C12 1_555 1_555
C14 C13 1_555 1_555
H7 C14 1_555 1_555
C15 C14 1_555 1_555
H8 C15 1_555 1_555
C16 C15 1_555 1_555
C17 C16 1_555 1_555
H9 C17 1_555 1_555
C18 C17 1_555 1_555
H10 C18 1_555 1_555
C19 C18 1_555 1_555
H11 C19 1_555 1_555
C20 C16 1_555 1_555
C21 C13 1_555 1_555
N1 C10 1_555 1_555
N2 Y1 1_555 1_555
O1 C1 1_555 1_555
O2 Y1 1_555 1_555
O3 C2 1_555 1_555
O4 C6 1_555 1_555
O5 C6 1_555 1_555
O6 Y1 1_555 1_555
O7 C7 1_555 1_555
O8 C8 1_555 1_555
O9 H12 1_555 1_555
H13 O9 1_555 1_555
C7D C8D 1_555 1_555
C8D O8 1_555 1_555
C9D C9 1_555 1_555
H3D C9D 1_555 1_555
O6D C7D 1_555 1_555
O7D C7D 1_555 1_555
Y1D O6D 1_555 1_555
C1D C2D 1_555 1_555
C2D C3D 1_555 1_555
C3D H1D 1_555 1_555
C4D C3D 1_555 1_555
H2D C4D 1_555 1_555
C5D C4D 1_555 1_555
C6D C5D 1_555 1_555
C10D H4D 1_555 1_555
C11D C10D 1_555 1_555
H5D C11D 1_555 1_555
C12D C11D 1_555 1_555
H6D C12D 1_555 1_555
C13D C12D 1_555 1_555
C14D C13D 1_555 1_555
H7D C14D 1_555 1_555
C15D C14D 1_555 1_555
H8D C15D 1_555 1_555
C16D C15D 1_555 1_555
C17D C16D 1_555 1_555
H9D C17D 1_555 1_555
C18D C17D 1_555 1_555
H10D C18D 1_555 1_555
C19D C18D 1_555 1_555
H11D C19D 1_555 1_555
C20D C16D 1_555 1_555
C21D C13D 1_555 1_555
N1D Y1D 1_555 1_555
N2D Y1D 1_555 1_555
O1D C1D 1_555 1_555
O2D Y1D 1_555 1_555
O3D C2D 1_555 1_555
O4D C6D 1_555 1_555
O5D C6D 1_555 1_555
Y1B O4D 1_555 1_555
Y1F O4 1_555 1_555
Y1I O7D 1_555 1_555
Y1M O1 1_555 1_555
O1I Y1D 1_555 1_555
O1M Y1 1_555 1_555
O4J Y1D 1_555 1_555
O4N Y1 1_555 1_555
O5J Y1D 1_555 1_555
O5N Y1 1_555 1_555
O7I Y1D 1_555 1_555
O7M Y1 1_555 1_555
C1 O2 1_555 1_555
C5 O3 1_555 1_555
C7 O6 1_555 1_555
C19 N2 1_555 1_555
C20 C21 1_555 1_555
C20 N2 1_555 1_555
C21 N1 1_555 1_555
O5 Y1F 1_555 1_555
O7 Y1M 1_555 1_555
C8D C9D 1_555 1_555
C1D O2D 1_555 1_555
C5D O3D 1_555 1_555
C10D N1D 1_555 1_555
C19D N2D 1_555 1_555
C20D C21D 1_555 1_555
C20D N2D 1_555 1_555
C21D N1D 1_555 1_555
O1D Y1I 1_555 1_555
O5D Y1B 1_555 1_555

#END
