
#######################################################################
#
#                 Cambridge Crystallographic Data Centre
#                                CCDC 
#
#######################################################################
#
# If this CIF has been generated from an entry in the Cambridge 
# Structural Database, then it will include bibliographic, chemical, 
# crystal, experimental, refinement or atomic coordinate data resulting 
# from the CCDC's data processing and validation procedures.
#
#######################################################################

data_LOMMUX
_symmetry_cell_setting           monoclinic
_symmetry_space_group_name_H-M   'C 2/c'
_symmetry_Int_Tables_number      15
_space_group_name_Hall           '-C 2yn'
loop_
_symmetry_equiv_pos_site_id
_symmetry_equiv_pos_as_xyz
1 x,y,z
2 -x,y,1/2-z
3 1/2+x,1/2+y,z
4 1/2-x,1/2+y,1/2-z
5 -x,-y,-z
6 x,-y,1/2+z
7 1/2-x,1/2-y,-z
8 1/2+x,1/2-y,1/2+z
_cell_length_a                   31.463(3)
_cell_length_b                   9.0761(7)
_cell_length_c                   15.7005(10)
_cell_angle_alpha                90
_cell_angle_beta                 109.058(3)
_cell_angle_gamma                90
_cell_volume                     4237.71
loop_
_atom_site_label
_atom_site_type_symbol
_atom_site_fract_x
_atom_site_fract_y
_atom_site_fract_z
Tb1 Tb 0.75234(2) 1.01274(3) 0.79563(2)
N1 N 0.69383(16) 1.1191(5) 0.5309(3)
H1 H 0.6894 1.2261 0.5298
H2 H 0.7080 1.1112 0.5877
N2 N 0.67835(16) 0.4433(5) 0.8933(3)
H3 H 0.6704 0.3406 0.9003
H4 H 0.7004 0.4228 0.8629
N3 N 0.6234(2) 1.1144(7) 0.8171(5)
H5 H 0.6527 1.1000 0.8091
H6 H 0.6095 1.0519 0.8516
O1 O 0.73023(12) 0.8980(4) 0.6556(2)
O2 O 0.69634(14) 0.6830(4) 0.6120(3)
O3 O 0.69089(13) 0.8611(4) 0.7957(3)
O4 O 0.71820(12) 0.6340(4) 0.8030(3)
O5 O 0.68614(13) 1.3646(4) 0.6686(3)
O6 O 0.69224(13) 1.1667(4) 0.7545(3)
O7 O 0.75609(14) 0.9672(5) 0.9452(3)
H7 H 0.7816 0.9875 0.9834
H8 H 0.7373 0.9414 0.9709
C1 C 0.69637(19) 0.8209(6) 0.6115(4)
C2 C 0.65409(19) 0.8987(6) 0.5587(4)
C3 C 0.65388(19) 1.0437(6) 0.5251(4)
C4 C 0.6128(2) 1.1107(7) 0.4819(4)
H9 H 0.6124 1.2052 0.4587
C5 C 0.5719(2) 1.0399(8) 0.4722(4)
H10 H 0.5448 1.0877 0.4439
C6 C 0.5722(2) 0.8970(8) 0.5052(4)
H11 H 0.5454 0.8480 0.4988
C7 C 0.68730(18) 0.7243(6) 0.8019(4)
C8 C 0.6133(2) 0.8293(7) 0.5479(4)
H12 H 0.6135 0.7341 0.5700
C9 C 0.64410(18) 0.6669(6) 0.8092(4)
C10 C 0.64105(19) 0.5330(6) 0.8535(4)
C11 C 0.5990(2) 0.4956(6) 0.8614(4)
H13 H 0.5969 0.4125 0.8944
C12 C 0.5609(2) 0.5787(7) 0.8215(4)
H14 H 0.5334 0.5496 0.8260
C13 C 0.5639(2) 0.7070(7) 0.7740(4)
H15 H 0.5384 0.7630 0.7464
C14 C 0.60452(19) 0.7488(6) 0.7688(4)
H16 H 0.6062 0.8343 0.7374
C15 C 0.66918(19) 1.2686(6) 0.7055(4)
C16 C 0.61999(18) 1.2731(6) 0.6907(4)
C17 C 0.5998(2) 1.1882(9) 0.7416(5)
C18 C 0.5531(2) 1.1982(9) 0.7219(5)
H17 H 0.5391 1.1433 0.7552
C19 C 0.5276(2) 1.2893(9) 0.6533(5)
H18 H 0.4965 1.2916 0.6397
C20 C 0.5469(2) 1.3742(9) 0.6063(5)
H19 H 0.5293 1.4375 0.5622
C21 C 0.5931(2) 1.3680(9) 0.6232(5)
H20 H 0.6063 1.4264 0.5900
Tb1C Tb 0.74766(2) 0.51274(3) 0.70437(2)
Tb1C_2 Tb 0.74766(2) 1.51274(3) 0.70437(2)
O2C O 0.80366(14) 1.1830(4) 0.8880(3)
O4C O 0.78180(12) 1.1340(4) 0.6970(3)
O5C O 0.81386(13) 0.8646(4) 0.8314(3)
loop_
_geom_bond_atom_site_label_1
_geom_bond_atom_site_label_2
_geom_bond_site_symmetry_1
_geom_bond_site_symmetry_2
Tb1 O1 1_555 1_555
N1 H1 1_555 1_555
H2 N1 1_555 1_555
N2 H3 1_555 1_555
H4 N2 1_555 1_555
N3 H5 1_555 1_555
H6 N3 1_555 1_555
O1 C1 1_555 1_555
O2 C1 1_555 1_555
O3 Tb1 1_555 1_555
O4 C7 1_555 1_555
O5 C15 1_555 1_555
O6 Tb1 1_555 1_555
O7 Tb1 1_555 1_555
H7 O7 1_555 1_555
H8 O7 1_555 1_555
C1 C2 1_555 1_555
C2 C3 1_555 1_555
C3 N1 1_555 1_555
C4 C3 1_555 1_555
H9 C4 1_555 1_555
C5 C4 1_555 1_555
H10 C5 1_555 1_555
C6 C5 1_555 1_555
H11 C6 1_555 1_555
C7 O3 1_555 1_555
C8 C2 1_555 1_555
H12 C8 1_555 1_555
C9 C7 1_555 1_555
C10 N2 1_555 1_555
C11 C10 1_555 1_555
H13 C11 1_555 1_555
C12 C11 1_555 1_555
H14 C12 1_555 1_555
C13 C12 1_555 1_555
H15 C13 1_555 1_555
C14 C9 1_555 1_555
H16 C14 1_555 1_555
C15 O6 1_555 1_555
C16 C15 1_555 1_555
C17 N3 1_555 1_555
C18 C17 1_555 1_555
H17 C18 1_555 1_555
C19 C18 1_555 1_555
H18 C19 1_555 1_555
C20 C19 1_555 1_555
H19 C20 1_555 1_555
C21 C16 1_555 1_555
H20 C21 1_555 1_555
Tb1C O2 1_555 1_555
Tb1C_2 O5 1_555 1_555
O2C Tb1 1_555 1_555
O4C Tb1 1_555 1_555
O5C Tb1 1_555 1_555
O4 Tb1C 1_555 1_555
C6 C8 1_555 1_555
C9 C10 1_555 1_555
C13 C14 1_555 1_555
C16 C17 1_555 1_555
C20 C21 1_555 1_555

#END
