
#######################################################################
#
#                 Cambridge Crystallographic Data Centre
#                                CCDC 
#
#######################################################################
#
# If this CIF has been generated from an entry in the Cambridge 
# Structural Database, then it will include bibliographic, chemical, 
# crystal, experimental, refinement or atomic coordinate data resulting 
# from the CCDC's data processing and validation procedures.
#
#######################################################################

data_LOMQIP
_symmetry_cell_setting           monoclinic
_symmetry_space_group_name_H-M   'P 21/n'
_symmetry_Int_Tables_number      14
_space_group_name_Hall           '-P 2yn'
loop_
_symmetry_equiv_pos_site_id
_symmetry_equiv_pos_as_xyz
1 x,y,z
2 1/2-x,1/2+y,1/2-z
3 -x,-y,-z
4 1/2+x,1/2-y,1/2+z
_cell_length_a                   16.182(3)
_cell_length_b                   9.4700(19)
_cell_length_c                   16.361(3)
_cell_angle_alpha                90
_cell_angle_beta                 111.28(3)
_cell_angle_gamma                90
_cell_volume                     2336.27
loop_
_atom_site_label
_atom_site_type_symbol
_atom_site_fract_x
_atom_site_fract_y
_atom_site_fract_z
Co1 Co 0.500 1 0.000
Co2 Co 0.36562(6) 0.94125(8) 0.12448(5)
N1 N 0.1726(4) 0.8102(6) -0.0982(3)
N2 N 0.2077(4) 0.9173(5) 0.2821(3)
O1 O 0.5639(3) 1.0564(5) 0.1293(3)
O2 O 0.4757(3) 1.0414(5) 0.2075(3)
O3 O 0.8984(3) 1.3562(5) 0.4774(3)
O4 O 0.8038(3) 1.3918(4) 0.5475(3)
O5 O 0.4237(3) 0.8508(4) 0.0385(3)
O6 O 0.4298(3) 0.7273(5) 0.1522(3)
O7 O 0.2501(3) 0.8160(5) 0.0468(3)
O8 O 0.3100(3) 0.9640(5) 0.2192(3)
C1 C 0.5458(5) 1.0718(6) 0.1972(4)
C2 C 0.6184(4) 1.1414(6) 0.2737(4)
C3 C 0.6024(4) 1.1834(6) 0.3488(4)
H1 H 0.5456 1.1705 0.3523
C4 C 0.6708(4) 1.2439(7) 0.4179(4)
H2 H 0.6605 1.2711 0.4692
C5 C 0.7533(4) 1.2656(7) 0.4138(4)
C6 C 0.7677(5) 1.2213(9) 0.3398(5)
H3 H 0.8245 1.2343 0.3363
C7 C 0.7004(5) 1.1579(8) 0.2697(4)
H4 H 0.7119 1.1265 0.2197
C8 C 0.8246(5) 1.3435(6) 0.4856(4)
C9 C 0.4427(5) 0.7390(7) 0.0821(5)
C10 C 0.4727(5) 0.6093(8) 0.0365(5)
C11 C 0.4633(5) 0.6181(8) -0.0503(5)
H5 H 0.4388 0.7002 -0.0836
C12 C 0.4903(5) 0.5056(8) -0.0882(5)
H6 H 0.4834 0.5075 -0.1483
C13 C 0.1952(5) 0.8657(8) -0.0215(4)
H7 H 0.1675 0.9522 -0.0167
C14 C 0.2146(6) 0.6813(9) -0.1097(5)
H8 H 0.2569 0.7024 -0.1384
H9 H 0.1695 0.6157 -0.1462
H10 H 0.2461 0.6381 -0.0524
C15 C 0.1082(6) 0.8811(10) -0.1759(5)
H11 H 0.0796 0.9589 -0.1567
H12 H 0.0631 0.8129 -0.2096
H13 H 0.1392 0.9183 -0.2128
C16 C 0.2423(5) 0.9061(7) 0.2195(4)
H14 H 0.2115 0.8478 0.1707
C17 C 0.1286(5) 0.8408(8) 0.2770(5)
H15 H 0.1092 0.7812 0.2244
H16 H 0.0814 0.908 0.2739
H17 H 0.1414 0.7814 0.3292
C18 C 0.2447(6) 1.0095(9) 0.3553(5)
H18 H 0.3039 1.0397 0.3589
H19 H 0.2493 0.9597 0.4093
H20 H 0.2065 1.0924 0.3479
O5B O 0.5763(3) 0.1492(4) -0.0385(3)
O6B O 0.5702(3) 0.2727(5) -0.1522(3)
C9B C 0.5573(5) 0.2610(7) -0.0821(5)
C10B C 0.5273(5) 0.3907(8) -0.0365(5)
C11B C 0.5367(5) 0.3819(8) 0.0503(5)
H5B H 0.5612 0.2998 0.0836
C12B C 0.5097(5) 0.4944(8) 0.0882(5)
H6B H 0.5166 0.4925 0.1483
Co2B Co 0.63438(6) 0.05875(8) -0.12448(5)
N1B N 0.8274(4) 0.1898(6) 0.0982(3)
N2B N 0.7923(4) 0.0827(5) -0.2821(3)
O1B O 0.4361(3) -0.0564(5) -0.1293(3)
O2B O 0.5243(3) -0.0414(5) -0.2075(3)
O3B O 0.1016(3) -0.3562(5) -0.4774(3)
O4B O 0.1962(3) -0.3918(4) -0.5475(3)
O7B O 0.7499(3) 0.1840(5) -0.0468(3)
O8B O 0.6900(3) 0.0360(5) -0.2192(3)
C1B C 0.4542(5) -0.0718(6) -0.1972(4)
C2B C 0.3816(4) -0.1414(6) -0.2737(4)
C3B C 0.3976(4) -0.1834(6) -0.3488(4)
H1B H 0.4544 -0.1705 -0.3523
C4B C 0.3292(4) -0.2439(7) -0.4179(4)
H2B H 0.3395 -0.2711 -0.4692
C5B C 0.2467(4) -0.2656(7) -0.4138(4)
C6B C 0.2323(5) -0.2213(9) -0.3398(5)
H3B H 0.1755 -0.2343 -0.3363
C7B C 0.2996(5) -0.1579(8) -0.2697(4)
H4B H 0.2881 -0.1265 -0.2197
C8B C 0.1754(5) -0.3435(6) -0.4856(4)
C13B C 0.8048(5) 0.1343(8) 0.0215(4)
H7B H 0.8325 0.0478 0.0167
C14B C 0.7854(6) 0.3187(9) 0.1097(5)
H8B H 0.7431 0.2976 0.1384
H9B H 0.8305 0.3843 0.1462
H10B H 0.7539 0.3619 0.0524
C15B C 0.8918(6) 0.1189(10) 0.1759(5)
H11B H 0.9204 0.0411 0.1567
H12B H 0.9369 0.1871 0.2096
H13B H 0.8608 0.0817 0.2128
C16B C 0.7577(5) 0.0939(7) -0.2195(4)
H14B H 0.7885 0.1522 -0.1707
C17B C 0.8714(5) 0.1592(8) -0.2770(5)
H15B H 0.8908 0.2188 -0.2244
H16B H 0.9186 0.092 -0.2739
H17B H 0.8586 0.2186 -0.3292
C18B C 0.7553(6) -0.0095(9) -0.3553(5)
H18B H 0.6961 -0.0397 -0.3589
H19B H 0.7507 0.0403 -0.4093
H20B H 0.7935 -0.0924 -0.3479
Co1_2 Co 0.500 0 0.000
Co1A Co 0.000 -0.5 -0.500
Co1A_2 Co 1.000 1.5 0.500
Co2A Co 0.13438(6) -0.55875(8) -0.62448(5)
Co2C Co 0.86562(6) 1.55875(8) 0.62448(5)
O1B_2 O 0.4361(3) 0.9436(5) -0.1293(3)
O3A O 0.6016(3) 0.8562(5) 0.0226(3)
O3C O 0.3984(3) 1.1438(5) -0.0226(3)
O4A O 0.6962(3) -0.1082(4) -0.0475(3)
O4C O 0.3038(3) 1.1082(4) 0.0475(3)
O5B_2 O 0.5763(3) 1.1492(4) -0.0385(3)
loop_
_geom_bond_atom_site_label_1
_geom_bond_atom_site_label_2
_geom_bond_site_symmetry_1
_geom_bond_site_symmetry_2
Co1 O1 1_555 1_555
Co2 O2 1_555 1_555
N1 C13 1_555 1_555
N2 C16 1_555 1_555
O1 C1 1_555 1_555
O2 C1 1_555 1_555
O3 C8 1_555 1_555
O4 C8 1_555 1_555
O5 Co1 1_555 1_555
O6 Co2 1_555 1_555
O7 Co2 1_555 1_555
O8 Co2 1_555 1_555
C1 C2 1_555 1_555
C2 C3 1_555 1_555
C3 H1 1_555 1_555
C4 C3 1_555 1_555
H2 C4 1_555 1_555
C5 C4 1_555 1_555
C6 C5 1_555 1_555
H3 C6 1_555 1_555
C7 C2 1_555 1_555
H4 C7 1_555 1_555
C8 C5 1_555 1_555
C9 O5 1_555 1_555
C10 C9 1_555 1_555
C11 C10 1_555 1_555
H5 C11 1_555 1_555
C12 C11 1_555 1_555
H6 C12 1_555 1_555
C13 O7 1_555 1_555
H7 C13 1_555 1_555
C14 N1 1_555 1_555
H8 C14 1_555 1_555
H9 C14 1_555 1_555
H10 C14 1_555 1_555
C15 N1 1_555 1_555
H11 C15 1_555 1_555
H12 C15 1_555 1_555
H13 C15 1_555 1_555
C16 O8 1_555 1_555
H14 C16 1_555 1_555
C17 N2 1_555 1_555
H15 C17 1_555 1_555
H16 C17 1_555 1_555
H17 C17 1_555 1_555
C18 N2 1_555 1_555
H18 C18 1_555 1_555
H19 C18 1_555 1_555
H20 C18 1_555 1_555
O5B C9B 1_555 1_555
O6B C9B 1_555 1_555
C9B C10B 1_555 1_555
C10B C12 1_555 1_555
C11B C10B 1_555 1_555
H5B C11B 1_555 1_555
C12B C10 1_555 1_555
H6B C12B 1_555 1_555
Co2B O5B 1_555 1_555
N1B C13B 1_555 1_555
N2B C16B 1_555 1_555
O1B C1B 1_555 1_555
O2B Co2B 1_555 1_555
O3B C8B 1_555 1_555
O4B C8B 1_555 1_555
O7B Co2B 1_555 1_555
O8B Co2B 1_555 1_555
C1B O2B 1_555 1_555
C2B C1B 1_555 1_555
C3B C2B 1_555 1_555
H1B C3B 1_555 1_555
C4B C3B 1_555 1_555
H2B C4B 1_555 1_555
C5B C4B 1_555 1_555
C6B C5B 1_555 1_555
H3B C6B 1_555 1_555
C7B C2B 1_555 1_555
H4B C7B 1_555 1_555
C8B C5B 1_555 1_555
C13B O7B 1_555 1_555
H7B C13B 1_555 1_555
C14B N1B 1_555 1_555
H8B C14B 1_555 1_555
H9B C14B 1_555 1_555
H10B C14B 1_555 1_555
C15B N1B 1_555 1_555
H11B C15B 1_555 1_555
H12B C15B 1_555 1_555
H13B C15B 1_555 1_555
C16B O8B 1_555 1_555
H14B C16B 1_555 1_555
C17B N2B 1_555 1_555
H15B C17B 1_555 1_555
H16B C17B 1_555 1_555
H17B C17B 1_555 1_555
C18B N2B 1_555 1_555
H18B C18B 1_555 1_555
H19B C18B 1_555 1_555
H20B C18B 1_555 1_555
Co1_2 O5B 1_555 1_555
Co1A O3B 1_555 1_555
Co1A_2 O3 1_555 1_555
Co2A O4B 1_555 1_555
Co2C O4 1_555 1_555
O1B_2 Co1 1_555 1_555
O3A Co1 1_555 1_555
O3C Co1 1_555 1_555
O4A Co2B 1_555 1_555
O4C Co2 1_555 1_555
O5B_2 Co1 1_555 1_555
Co2 O5 1_555 1_555
O6 C9 1_555 1_555
C6 C7 1_555 1_555
O6B Co2B 1_555 1_555
C11B C12B 1_555 1_555
O1B Co1_2 1_555 1_555
C6B C7B 1_555 1_555

#END
