
#######################################################################
#
#                 Cambridge Crystallographic Data Centre
#                                CCDC 
#
#######################################################################
#
# If this CIF has been generated from an entry in the Cambridge 
# Structural Database, then it will include bibliographic, chemical, 
# crystal, experimental, refinement or atomic coordinate data resulting 
# from the CCDC's data processing and validation procedures.
#
#######################################################################

data_LOMSIR
_symmetry_cell_setting           monoclinic
_symmetry_space_group_name_H-M   'P 21/c'
_symmetry_Int_Tables_number      14
_space_group_name_Hall           '-P 2ybc'
loop_
_symmetry_equiv_pos_site_id
_symmetry_equiv_pos_as_xyz
1 x,y,z
2 -x,1/2+y,1/2-z
3 -x,-y,-z
4 x,1/2-y,1/2+z
_cell_length_a                   38.0659(11)
_cell_length_b                   11.9553(12)
_cell_length_c                   18.9714(10)
_cell_angle_alpha                90
_cell_angle_beta                 103.9361(12)
_cell_angle_gamma                90
_cell_volume                     8379.55
loop_
_atom_site_label
_atom_site_type_symbol
_atom_site_fract_x
_atom_site_fract_y
_atom_site_fract_z
C1 C 0.61441(17) 0.2651(6) 0.2786(4)
C2 C 0.67104(18) 0.3754(5) 0.2732(4)
C3 C 0.65792(16) 0.5721(6) 0.2448(4)
C4 C 0.62313(19) 0.4379(6) 0.3527(4)
C5 C 0.58701(16) 0.5716(5) 0.2673(4)
C6 C 0.59328(18) 0.5248(6) 0.1372(4)
C7 C 0.55879(16) 0.3850(5) 0.2114(3)
C8 C 0.62538(17) 0.3445(5) 0.1476(3)
C9 C 0.83461(17) 0.1448(5) 0.2688(3)
C10 C 0.88000(15) 0.2352(5) 0.2026(3)
C11 C 0.89412(16) 0.0718(5) 0.3504(3)
C12 C 0.93513(16) 0.1093(5) 0.2530(3)
C13 C 0.91088(16) -0.0847(5) 0.2539(3)
C14 C 0.89723(18) 0.0362(5) 0.1371(4)
C15 C 0.84207(16) -0.0731(5) 0.2481(4)
C16 C 0.83020(16) 0.0670(5) 0.1416(4)
C17 C 0.71607(18) 0.1506(5) 0.1082(4)
C18 C 0.69921(16) 0.1322(5) 0.0318(3)
H1 H 0.6744 0.1558 0.0216
H2 H 0.7003 0.0541 0.0207
H3 H 0.7118 0.1745 0.0026
C19 C 0.8117(2) 0.3229(6) 0.4330(4)
C20 C 0.84942(17) 0.3027(5) 0.4726(4)
H4 H 0.8653 0.3189 0.4415
H5 H 0.8522 0.2259 0.4876
H6 H 0.8554 0.3503 0.5146
C21 C 0.50660(16) 0.0568(5) 0.1734(3)
H7 H 0.4954 0.0255 0.2072
C22 C 0.48638(18) 0.0968(5) 0.1120(3)
H8 H 0.4613 0.0900 0.1011
C23 C 0.50359(16) 0.1493(5) 0.0639(3)
C24 C 0.54012(16) 0.1510(5) 0.0735(3)
H9 H 0.5512 0.1817 0.0393
C25 C 0.55995(16) 0.1035(5) 0.1383(3)
H10 H 0.5851 0.1013 0.1473
C26 C 0.53093(17) 0.3111(5) -0.1560(4)
H11 H 0.5346 0.2856 -0.2001
C27 C 0.50824(17) 0.2446(5) -0.1217(4)
H12 H 0.4974 0.1792 -0.1429
C28 C 0.50326(17) 0.2821(6) -0.0560(3)
C29 C 0.52099(18) 0.3769(5) -0.0272(4)
H13 H 0.5193 0.4012 0.0184
C30 C 0.54164(16) 0.4379(5) -0.0654(3)
H14 H 0.5522 0.5043 -0.0452
C31 C 0.65270(17) -0.0443(5) 0.2342(4)
H15 H 0.6628 0.0032 0.2726
C32 C 0.67367(18) -0.0780(5) 0.1874(4)
H16 H 0.6976 -0.0551 0.1950
C33 C 0.65858(16) -0.1448(5) 0.1305(3)
C34 C 0.62229(16) -0.1812(5) 0.1245(3)
H17 H 0.6120 -0.2331 0.0890
C35 C 0.60261(17) -0.1414(5) 0.1695(3)
H18 H 0.5781 -0.1584 0.1607
C36 C 0.63213(17) -0.4476(5) -0.0335(4)
H19 H 0.6252 -0.5190 -0.0227
C37 C 0.65125(17) -0.3782(5) 0.0237(4)
H20 H 0.6577 -0.4034 0.0714
C38 C 0.66016(16) -0.2677(5) 0.0047(3)
C39 C 0.65253(17) -0.2365(5) -0.0641(3)
H21 H 0.6593 -0.1661 -0.0771
C40 C 0.63329(17) -0.3147(5) -0.1193(4)
H22 H 0.6276 -0.2941 -0.1680
C41 C 0.74521(17) 0.4994(5) 0.2057(4)
H23 H 0.7335 0.5136 0.2425
C42 C 0.74428(18) 0.5768(5) 0.1526(4)
H24 H 0.7330 0.6450 0.1555
C43 C 0.75977(18) 0.5572(5) 0.0935(4)
C44 C 0.77990(17) 0.4605(5) 0.0960(3)
H25 H 0.7931 0.4475 0.0614
C45 C 0.78029(16) 0.3804(5) 0.1525(3)
H26 H 0.7925 0.3128 0.1532
C46 C 0.72201(17) 0.3862(6) -0.1084(4)
H27 H 0.7078 0.3229 -0.1080
C47 C 0.72466(18) 0.4650(5) -0.0554(3)
H28 H 0.7113 0.4560 -0.0208
C48 C 0.74741(18) 0.5611(5) -0.0516(4)
C49 C 0.76422(17) 0.5716(5) -0.1094(4)
H29 H 0.7791 0.6329 -0.1108
C50 C 0.75917(18) 0.4926(5) -0.1646(4)
H30 H 0.7693 0.5053 -0.2038
C51 C 0.85003(17) 0.5456(5) 0.2815(4)
H31 H 0.8373 0.5161 0.2374
C52 C 0.83052(17) 0.5773(5) 0.3300(4)
H32 H 0.8057 0.5642 0.3195
C53 C 0.84654(16) 0.6260(5) 0.3910(3)
C54 C 0.88503(17) 0.6341(5) 0.4065(3)
H33 H 0.8974 0.6621 0.4513
C55 C 0.90492(16) 0.6012(5) 0.3560(3)
H34 H 0.9298 0.6116 0.3658
C56 C 0.88327(17) 0.9181(5) 0.5475(3)
H35 H 0.8955 0.9789 0.5342
C57 C 0.86408(16) 0.8483(5) 0.4959(3)
H36 H 0.8619 0.8642 0.4470
C58 C 0.84762(16) 0.7531(5) 0.5154(3)
C59 C 0.84947(18) 0.7353(5) 0.5872(3)
H37 H 0.8378 0.6741 0.6016
C60 C 0.86855(18) 0.8074(6) 0.6377(4)
H38 H 0.8707 0.7939 0.6869
C61 C 0.94390(17) 0.3404(5) 0.3551(3)
H39 H 0.9189 0.3316 0.3428
C62 C 0.96318(16) 0.2875(5) 0.4166(3)
H40 H 0.9519 0.2444 0.4456
C63 C 1.00082(15) 0.3020(5) 0.4332(3)
C64 C 1.01642(16) 0.3651(5) 0.3888(3)
H41 H 1.0413 0.3757 0.3995
C65 C 0.99440(18) 0.4119(5) 0.3285(4)
H42 H 1.0051 0.4521 0.2973
C66 C 0.98433(16) 0.0218(5) 0.6195(3)
H43 H 0.9882 -0.0519 0.6350
C67 C 1.00691(17) 0.0719(5) 0.5774(3)
H44 H 1.0244 0.0290 0.5633
C68 C 1.00281(16) 0.1837(5) 0.5575(3)
C69 C 0.97579(16) 0.2433(5) 0.5798(3)
H45 H 0.9727 0.3187 0.5676
C70 C 0.95373(17) 0.1959(5) 0.6187(3)
H46 H 0.9365 0.2401 0.6328
Cd1 Cd 0.581864(12) 0.00410(3) 0.30096(2)
Cd2 Cd 0.751558(11) 0.25607(4) 0.27689(2)
Cd3 Cd 0.920908(12) 0.49183(3) 0.21084(2)
N1 N 0.61263(14) 0.1761(4) 0.2947(3)
N2 N 0.69899(14) 0.3362(4) 0.2890(3)
N3 N 0.67474(15) 0.6385(4) 0.2385(3)
N4 N 0.63103(15) 0.4532(4) 0.4155(3)
N5 N 0.57032(14) 0.6503(4) 0.2793(3)
N6 N 0.57793(15) 0.5736(4) 0.0886(3)
N7 N 0.52923(14) 0.3641(5) 0.1988(3)
N8 N 0.63392(14) 0.3001(4) 0.0992(3)
N9 N 0.80909(13) 0.1889(4) 0.2795(3)
N10 N 0.88221(14) 0.3299(4) 0.1933(3)
N11 N 0.90380(14) 0.0755(4) 0.4111(3)
N12 N 0.96508(13) 0.1360(4) 0.2625(3)
N13 N 0.92854(13) -0.1636(4) 0.2651(3)
N14 N 0.90638(14) 0.0212(5) 0.0816(3)
N15 N 0.82649(15) -0.1434(5) 0.2711(3)
N16 N 0.80556(15) 0.0771(4) 0.0933(3)
N17 N 0.72848(14) 0.1718(4) 0.1660(3)
N18 N 0.78368(15) 0.3369(5) 0.3919(3)
N19 N 0.54359(13) 0.0603(4) 0.1885(3)
N20 N 0.54699(14) 0.4053(4) -0.1300(3)
N21 N 0.61766(13) -0.0788(4) 0.2258(3)
N22 N 0.62408(14) -0.4141(4) -0.1002(3)
N23 N 0.76264(14) 0.4045(4) 0.2050(3)
N24 N 0.74038(14) 0.3997(4) -0.1632(3)
N25 N 0.88652(13) 0.5538(4) 0.2927(3)
N26 N 0.88451(15) 0.8993(4) 0.6165(3)
N27 N 0.95854(14) 0.4035(4) 0.3117(3)
N28 N 0.95633(15) 0.0847(4) 0.6373(3)
O1 O 0.54543(11) -0.1460(3) 0.3028(2)
H47 H 0.5239 -0.1237 0.3024
H48 H 0.5450 -0.1862 0.2659
O2 O 0.96016(10) 0.6436(3) 0.2389(2)
H49 H 0.9555 0.6782 0.2747
H50 H 0.9822 0.6210 0.2495
S1 S 0.47332(5) 0.20927(15) -0.01341(10)
S2 S 0.68706(5) -0.18125(14) 0.07171(9)
S3 S 0.75571(4) 0.64905(15) 0.02264(10)
S4 S 0.81985(5) 0.66317(14) 0.45175(9)
S5 S 1.03155(4) 0.23409(14) 0.50519(9)
W1 W 0.616017(6) 0.43396(2) 0.238064(15)
W2 W 0.878083(6) 0.063651(19) 0.232141(14)
Cd1C Cd 0.581864(12) -0.50410(3) -0.19904(2)
Cd1C_2 Cd 0.581864(12) 0.49590(3) -0.19904(2)
Cd2C Cd 0.751558(11) 0.24393(4) -0.22311(2)
Cd3C Cd 0.920908(12) 0.00817(3) 0.71084(2)
Cd3C_2 Cd 0.920908(12) 1.00817(3) 0.71084(2)
N20C N 0.54699(14) 0.0947(4) 0.3700(3)
N22C N 0.62408(14) -0.0859(4) 0.3998(3)
N24C N 0.74038(14) 0.1003(4) 0.3368(3)
N26C N 0.88451(15) 0.6007(4) 0.1165(3)
N28C N 0.95633(15) 0.4153(4) 0.1373(3)
O3 O 0.75103(11) 0.4970(3) 0.4388(2)
H51 H 0.7636 0.4528 0.4697
H52 H 0.7636 0.5172 0.4092
O4 O 0.74324(11) 0.7566(3) 0.2508(2)
H53 H 0.7610 0.8022 0.2615
H54 H 0.7231 0.7918 0.2447
O5 O 0.75036(11) 0.8583(4) 0.0207(2)
H55 H 0.7688 0.8283 0.0095
H56 H 0.7358 0.8823 -0.0173
loop_
_geom_bond_atom_site_label_1
_geom_bond_atom_site_label_2
_geom_bond_site_symmetry_1
_geom_bond_site_symmetry_2
C1 N1 1_555 1_555
C2 N2 1_555 1_555
C3 N3 1_555 1_555
C4 N4 1_555 1_555
C5 N5 1_555 1_555
C6 N6 1_555 1_555
C7 N7 1_555 1_555
C8 N8 1_555 1_555
C9 N9 1_555 1_555
C10 N10 1_555 1_555
C11 N11 1_555 1_555
C12 N12 1_555 1_555
C13 N13 1_555 1_555
C14 N14 1_555 1_555
C15 N15 1_555 1_555
C16 N16 1_555 1_555
C17 C18 1_555 1_555
C18 H1 1_555 1_555
H2 C18 1_555 1_555
H3 C18 1_555 1_555
C19 C20 1_555 1_555
C20 H4 1_555 1_555
H5 C20 1_555 1_555
H6 C20 1_555 1_555
C21 H7 1_555 1_555
C22 C21 1_555 1_555
H8 C22 1_555 1_555
C23 C22 1_555 1_555
C24 C23 1_555 1_555
H9 C24 1_555 1_555
C25 C24 1_555 1_555
H10 C25 1_555 1_555
C26 H11 1_555 1_555
C27 C26 1_555 1_555
H12 C27 1_555 1_555
C28 C27 1_555 1_555
C29 C28 1_555 1_555
H13 C29 1_555 1_555
C30 C29 1_555 1_555
H14 C30 1_555 1_555
C31 H15 1_555 1_555
C32 C31 1_555 1_555
H16 C32 1_555 1_555
C33 C32 1_555 1_555
C34 C33 1_555 1_555
H17 C34 1_555 1_555
C35 C34 1_555 1_555
H18 C35 1_555 1_555
C36 H19 1_555 1_555
C37 C36 1_555 1_555
H20 C37 1_555 1_555
C38 C37 1_555 1_555
C39 C38 1_555 1_555
H21 C39 1_555 1_555
C40 C39 1_555 1_555
H22 C40 1_555 1_555
C41 H23 1_555 1_555
C42 C41 1_555 1_555
H24 C42 1_555 1_555
C43 C42 1_555 1_555
C44 C43 1_555 1_555
H25 C44 1_555 1_555
C45 C44 1_555 1_555
H26 C45 1_555 1_555
C46 H27 1_555 1_555
C47 C46 1_555 1_555
H28 C47 1_555 1_555
C48 C47 1_555 1_555
C49 C48 1_555 1_555
H29 C49 1_555 1_555
C50 C49 1_555 1_555
H30 C50 1_555 1_555
C51 H31 1_555 1_555
C52 C51 1_555 1_555
H32 C52 1_555 1_555
C53 C52 1_555 1_555
C54 C53 1_555 1_555
H33 C54 1_555 1_555
C55 C54 1_555 1_555
H34 C55 1_555 1_555
C56 H35 1_555 1_555
C57 C56 1_555 1_555
H36 C57 1_555 1_555
C58 C57 1_555 1_555
C59 C58 1_555 1_555
H37 C59 1_555 1_555
C60 C59 1_555 1_555
H38 C60 1_555 1_555
C61 H39 1_555 1_555
C62 C61 1_555 1_555
H40 C62 1_555 1_555
C63 C62 1_555 1_555
C64 C63 1_555 1_555
H41 C64 1_555 1_555
C65 C64 1_555 1_555
H42 C65 1_555 1_555
C66 H43 1_555 1_555
C67 C66 1_555 1_555
H44 C67 1_555 1_555
C68 C67 1_555 1_555
C69 C68 1_555 1_555
H45 C69 1_555 1_555
C70 C69 1_555 1_555
H46 C70 1_555 1_555
Cd1 N1 1_555 1_555
Cd2 N2 1_555 1_555
Cd3 N10 1_555 1_555
N9 Cd2 1_555 1_555
N17 C17 1_555 1_555
N18 C19 1_555 1_555
N19 C21 1_555 1_555
N20 C26 1_555 1_555
N21 C31 1_555 1_555
N22 C36 1_555 1_555
N23 C41 1_555 1_555
N24 C46 1_555 1_555
N25 C51 1_555 1_555
N26 C56 1_555 1_555
N27 C61 1_555 1_555
N28 C66 1_555 1_555
O1 Cd1 1_555 1_555
H47 O1 1_555 1_555
H48 O1 1_555 1_555
O2 Cd3 1_555 1_555
H49 O2 1_555 1_555
H50 O2 1_555 1_555
S1 C23 1_555 1_555
S2 C33 1_555 1_555
S3 C43 1_555 1_555
S4 C53 1_555 1_555
S5 C63 1_555 1_555
W1 C1 1_555 1_555
W2 C9 1_555 1_555
O3 H51 1_555 1_555
H52 O3 1_555 1_555
O4 H53 1_555 1_555
H54 O4 1_555 1_555
O5 H55 1_555 1_555
H56 O5 1_555 1_555
Cd1C N22 1_555 1_555
Cd1C_2 N20 1_555 1_555
Cd2C N24 1_555 1_555
Cd3C N28 1_555 1_555
Cd3C_2 N26 1_555 1_555
N20C Cd1 1_555 1_555
N22C Cd1 1_555 1_555
N24C Cd2 1_555 1_555
N26C Cd3 1_555 1_555
N28C Cd3 1_555 1_555
C2 W1 1_555 1_555
C3 W1 1_555 1_555
C4 W1 1_555 1_555
C5 W1 1_555 1_555
C6 W1 1_555 1_555
C7 W1 1_555 1_555
C8 W1 1_555 1_555
C10 W2 1_555 1_555
C11 W2 1_555 1_555
C12 W2 1_555 1_555
C13 W2 1_555 1_555
C14 W2 1_555 1_555
C15 W2 1_555 1_555
C16 W2 1_555 1_555
C25 N19 1_555 1_555
C28 S1 1_555 1_555
C30 N20 1_555 1_555
C35 N21 1_555 1_555
C38 S2 1_555 1_555
C40 N22 1_555 1_555
C45 N23 1_555 1_555
C48 S3 1_555 1_555
C50 N24 1_555 1_555
C55 N25 1_555 1_555
C58 S4 1_555 1_555
C60 N26 1_555 1_555
C65 N27 1_555 1_555
C68 S5 1_555 1_555
C70 N28 1_555 1_555
Cd1 N19 1_555 1_555
Cd1 N21 1_555 1_555
Cd2 N17 1_555 1_555
Cd2 N18 1_555 1_555
Cd2 N23 1_555 1_555
Cd3 N25 1_555 1_555
Cd3 N27 1_555 1_555

#END
