
#######################################################################
#
#                 Cambridge Crystallographic Data Centre
#                                CCDC 
#
#######################################################################
#
# If this CIF has been generated from an entry in the Cambridge 
# Structural Database, then it will include bibliographic, chemical, 
# crystal, experimental, refinement or atomic coordinate data resulting 
# from the CCDC's data processing and validation procedures.
#
#######################################################################

data_LOMVIU
_symmetry_cell_setting           monoclinic
_symmetry_space_group_name_H-M   'C 2/c'
_symmetry_Int_Tables_number      15
_space_group_name_Hall           '-C 2yn'
loop_
_symmetry_equiv_pos_site_id
_symmetry_equiv_pos_as_xyz
1 x,y,z
2 -x,y,1/2-z
3 1/2+x,1/2+y,z
4 1/2-x,1/2+y,1/2-z
5 -x,-y,-z
6 x,-y,1/2+z
7 1/2-x,1/2-y,-z
8 1/2+x,1/2-y,1/2+z
_cell_length_a                   37.855(5)
_cell_length_b                   11.8053(15)
_cell_length_c                   18.885(2)
_cell_angle_alpha                90
_cell_angle_beta                 104.534(2)
_cell_angle_gamma                90
_cell_volume                     8169.44
loop_
_atom_site_label
_atom_site_type_symbol
_atom_site_fract_x
_atom_site_fract_y
_atom_site_fract_z
O3 O 0.12641(15) 0.0683(5) 0.4226(3)
H25 H 0.1336 0.1049 0.3920
H26 H 0.1367 0.0094 0.4392
O4 O -0.05533(15) 0.0447(5) 0.1601(3)
H27 H -0.0752 0.0721 0.1402
H28 H -0.0535 0.0710 0.2010
W1 W 0.129269(6) 0.184521(19) 0.140388(13)
Cd1 Cd 0.169690(12) -0.24612(4) 0.21271(2)
Cd2 Cd 0.0000 0.0000 0.0000
S1 S 0.28247(4) 0.00888(15) 0.02200(9)
S2 S 0.06681(4) -0.60495(14) 0.36956(9)
S3 S 0.0000 0.41260(19) -0.2500
O1 O 0.20976(12) -0.3960(4) 0.2291(3)
H1 H 0.2086 -0.4595 0.2074
H2 H 0.2322 -0.3891 0.2508
O2 O -0.00797(12) 0.1228(4) 0.0897(2)
H3 H -0.0257 0.1129 0.1092
H4 H 0.0096 0.1430 0.1251
N1 N 0.13223(14) -0.0827(4) 0.1968(3)
N2 N 0.06172(14) 0.0476(5) 0.0260(3)
N3 N 0.05620(15) 0.1793(5) 0.2063(3)
N4 N 0.07798(16) 0.3913(5) 0.0486(3)
N5 N 0.18017(15) 0.4149(5) 0.1562(3)
N6 N 0.15608(15) 0.1644(5) -0.0134(3)
N7 N 0.21627(14) 0.1094(4) 0.1967(3)
N8 N 0.15512(16) 0.2183(5) 0.3205(3)
N9 N 0.20840(14) -0.1618(4) 0.1479(3)
N10 N 0.20560(14) 0.1656(4) -0.1789(3)
N11 N 0.13158(14) -0.3561(4) 0.2663(3)
N12 N 0.13467(14) -0.6993(4) 0.5967(3)
N13 N -0.01091(14) 0.1512(4) -0.0791(3)
C1 C 0.13022(16) 0.0104(5) 0.1774(3)
C2 C 0.08634(17) 0.0962(5) 0.0636(3)
C3 C 0.08193(16) 0.1837(5) 0.1843(3)
C4 C 0.09490(17) 0.3203(6) 0.0794(4)
C5 C 0.16183(16) 0.3356(5) 0.1502(3)
C6 C 0.14787(16) 0.1729(5) 0.0419(3)
C7 C 0.18668(16) 0.1328(5) 0.1751(3)
C8 C 0.14610(17) 0.2110(5) 0.2578(4)
C9 C 0.19409(17) -0.1027(5) 0.0874(3)
H5 H 0.1682 -0.0977 0.0717
C10 C 0.21438(17) -0.0479(5) 0.0458(3)
H6 H 0.2027 -0.0052 0.0037
C11 C 0.25226(16) -0.0570(5) 0.0671(3)
C12 C 0.26779(18) -0.1186(6) 0.1307(4)
H7 H 0.2935 -0.1268 0.1472
C13 C 0.25279(16) 0.0665(6) -0.0581(3)
C14 C 0.22777(18) 0.0011(5) -0.1070(3)
H8 H 0.2264 -0.0783 -0.1001
C15 C 0.20487(18) 0.0541(5) -0.1662(3)
H9 H 0.1876 0.0090 -0.1997
C16 C 0.23085(17) 0.2270(5) -0.1328(3)
H10 H 0.2322 0.3059 -0.1418
C17 C 0.25515(17) 0.1811(6) -0.0725(3)
H11 H 0.2731 0.2271 -0.0414
C18 C 0.12828(17) -0.3384(5) 0.3347(4)
H12 H 0.1397 -0.2736 0.3604
C19 C 0.10907(18) -0.4100(5) 0.3694(4)
H13 H 0.1070 -0.3937 0.4175
C20 C 0.09272(16) -0.5067(5) 0.3326(3)
C21 C 0.09560(17) -0.5242(5) 0.2619(4)
H14 H 0.0843 -0.5877 0.2346
C22 C 0.11527(18) -0.4473(5) 0.2316(4)
H15 H 0.1172 -0.4606 0.1831
C23 C 0.09475(17) -0.6386(5) 0.4568(3)
C24 C 0.13201(17) -0.6166(6) 0.4799(4)
H16 H 0.1445 -0.5812 0.4481
C25 C 0.15025(17) -0.6471(5) 0.5494(3)
H17 H 0.1755 -0.6301 0.5651
C26 C 0.09935(17) -0.7227(6) 0.5731(4)
H18 H 0.0879 -0.7614 0.6055
C27 C 0.07805(17) -0.6946(5) 0.5046(3)
H19 H 0.0528 -0.7128 0.4906
C28 C 0.00735(17) 0.2481(5) -0.0604(4)
H20 H 0.0189 0.2604 -0.0102
C29 C 0.01042(17) 0.3315(5) -0.1099(3)
H21 H 0.0238 0.3989 -0.0942
C30 C -0.00671(16) 0.3140(5) -0.1836(3)
C31 C -0.02806(17) 0.2181(6) -0.2032(4)
H22 H -0.0418 0.2074 -0.2523
C32 C -0.02904(16) 0.1382(5) -0.1502(3)
H23 H -0.0430 0.0714 -0.1642
C33 C 0.24506(17) -0.1670(5) 0.1685(4)
H24 H 0.2560 -0.2068 0.2122
N13A N 0.01091(14) 0.1512(4) -0.4209(3)
C28A C -0.00735(17) 0.2481(5) -0.4396(4)
H20A H -0.0189 0.2604 -0.4898
C29A C -0.01042(17) 0.3315(5) -0.3901(3)
H21A H -0.0238 0.3989 -0.4058
C30A C 0.00671(16) 0.3140(5) -0.3164(3)
C31A C 0.02806(17) 0.2181(6) -0.2968(4)
H22A H 0.0418 0.2074 -0.2477
C32A C 0.02904(16) 0.1382(5) -0.3498(3)
H23A H 0.0430 0.0714 -0.3358
W1E W 0.129269(6) -0.184521(19) 0.640388(13)
Cd1E Cd 0.169690(12) 0.24612(4) 0.71271(2)
S1E S 0.28247(4) -0.00888(15) 0.52200(9)
S2E S 0.06681(4) 0.60495(14) 0.86956(9)
O1E O 0.20976(12) 0.3960(4) 0.7291(3)
H1E H 0.2086 0.4595 0.7074
H2E H 0.2322 0.3891 0.7508
N1E N 0.13223(14) 0.0827(4) 0.6968(3)
N2E N 0.06172(14) -0.0476(5) 0.5260(3)
N3E N 0.05620(15) -0.1793(5) 0.7063(3)
N4E N 0.07798(16) -0.3913(5) 0.5486(3)
N5E N 0.18017(15) -0.4149(5) 0.6562(3)
N6E N 0.15608(15) -0.1644(5) 0.4866(3)
N7E N 0.21627(14) -0.1094(4) 0.6967(3)
N8E N 0.15512(16) -0.2183(5) 0.8205(3)
N9E N 0.20840(14) 0.1618(4) 0.6479(3)
N10E N 0.20560(14) -0.1656(4) 0.3211(3)
N11E N 0.13158(14) 0.3561(4) 0.7663(3)
N12E N 0.13467(14) 0.6993(4) 1.0967(3)
C1E C 0.13022(16) -0.0104(5) 0.6774(3)
C2E C 0.08634(17) -0.0962(5) 0.5636(3)
C3E C 0.08193(16) -0.1837(5) 0.6843(3)
C4E C 0.09490(17) -0.3203(6) 0.5794(4)
C5E C 0.16183(16) -0.3356(5) 0.6502(3)
C6E C 0.14787(16) -0.1729(5) 0.5419(3)
C7E C 0.18668(16) -0.1328(5) 0.6751(3)
C8E C 0.14610(17) -0.2110(5) 0.7578(4)
C9E C 0.19409(17) 0.1027(5) 0.5874(3)
H5E H 0.1682 0.0977 0.5717
C10E C 0.21438(17) 0.0479(5) 0.5458(3)
H6E H 0.2027 0.0052 0.5037
C11E C 0.25226(16) 0.0570(5) 0.5671(3)
C12E C 0.26779(18) 0.1186(6) 0.6307(4)
H7E H 0.2935 0.1268 0.6472
C13E C 0.25279(16) -0.0665(6) 0.4419(3)
C14E C 0.22777(18) -0.0011(5) 0.3930(3)
H8E H 0.2264 0.0783 0.3999
C15E C 0.20487(18) -0.0541(5) 0.3338(3)
H9E H 0.1876 -0.0090 0.3003
C16E C 0.23085(17) -0.2270(5) 0.3672(3)
H10E H 0.2322 -0.3059 0.3582
C17E C 0.25515(17) -0.1811(6) 0.4275(3)
H11E H 0.2731 -0.2271 0.4586
C18E C 0.12828(17) 0.3384(5) 0.8347(4)
H12E H 0.1397 0.2736 0.8604
C19E C 0.10907(18) 0.4100(5) 0.8694(4)
H13E H 0.1070 0.3937 0.9175
C20E C 0.09272(16) 0.5067(5) 0.8326(3)
C21E C 0.09560(17) 0.5242(5) 0.7619(4)
H14E H 0.0843 0.5877 0.7346
C22E C 0.11527(18) 0.4473(5) 0.7316(4)
H15E H 0.1172 0.4606 0.6831
C23E C 0.09475(17) 0.6386(5) 0.9568(3)
C24E C 0.13201(17) 0.6166(6) 0.9799(4)
H16E H 0.1445 0.5812 0.9481
C25E C 0.15025(17) 0.6471(5) 1.0494(3)
H17E H 0.1755 0.6301 1.0651
C26E C 0.09935(17) 0.7227(6) 1.0731(4)
H18E H 0.0879 0.7614 1.1055
C27E C 0.07805(17) 0.6946(5) 1.0046(3)
H19E H 0.0528 0.7128 0.9906
C33E C 0.24506(17) 0.1670(5) 0.6685(4)
H24E H 0.2560 0.2068 0.7122
O2D O 0.00797(12) -0.1228(4) -0.0897(2)
H3D H 0.0257 -0.1129 -0.1092
H4D H -0.0096 -0.1430 -0.1251
Cd1_2 Cd 0.169690(12) 0.75388(4) 1.21271(2)
Cd1E_2 Cd 0.169690(12) -0.75388(4) 0.71271(2)
Cd1E_3 Cd 0.169690(12) 0.24612(4) -0.28729(2)
Cd2A Cd 0.0000 0.0000 -0.5000
Cd2A_2 Cd 0.0000 0.0000 0.5000
N2D N -0.06172(14) -0.0476(5) -0.0260(3)
N10_2 N 0.20560(14) 0.1656(4) 0.8211(3)
N12_2 N 0.13467(14) 0.3007(4) 0.5967(3)
N12E_2 N 0.13467(14) -0.3007(4) 0.0967(3)
N13D N 0.01091(14) -0.1512(4) 0.0791(3)
loop_
_geom_bond_atom_site_label_1
_geom_bond_atom_site_label_2
_geom_bond_site_symmetry_1
_geom_bond_site_symmetry_2
W1 C1 1_555 1_555
Cd1 O1 1_555 1_555
Cd2 O2 1_555 1_555
S1 C11 1_555 1_555
S2 C20 1_555 1_555
S3 C30 1_555 1_555
O1 H1 1_555 1_555
H2 O1 1_555 1_555
O2 H3 1_555 1_555
H4 O2 1_555 1_555
N1 Cd1 1_555 1_555
N2 Cd2 1_555 1_555
N3 C3 1_555 1_555
N4 C4 1_555 1_555
N5 C5 1_555 1_555
N6 C6 1_555 1_555
N7 C7 1_555 1_555
N8 C8 1_555 1_555
N9 Cd1 1_555 1_555
N10 C15 1_555 1_555
N11 Cd1 1_555 1_555
N12 C25 1_555 1_555
N13 Cd2 1_555 1_555
C1 N1 1_555 1_555
C2 W1 1_555 1_555
C3 W1 1_555 1_555
C4 W1 1_555 1_555
C5 W1 1_555 1_555
C6 W1 1_555 1_555
C7 W1 1_555 1_555
C8 W1 1_555 1_555
C9 N9 1_555 1_555
H5 C9 1_555 1_555
C10 C9 1_555 1_555
H6 C10 1_555 1_555
C11 C10 1_555 1_555
C12 C11 1_555 1_555
H7 C12 1_555 1_555
C13 S1 1_555 1_555
C14 C13 1_555 1_555
H8 C14 1_555 1_555
C15 C14 1_555 1_555
H9 C15 1_555 1_555
C16 N10 1_555 1_555
H10 C16 1_555 1_555
C17 C13 1_555 1_555
H11 C17 1_555 1_555
C18 N11 1_555 1_555
H12 C18 1_555 1_555
C19 C18 1_555 1_555
H13 C19 1_555 1_555
C20 C19 1_555 1_555
C21 C20 1_555 1_555
H14 C21 1_555 1_555
C22 N11 1_555 1_555
H15 C22 1_555 1_555
C23 S2 1_555 1_555
C24 C23 1_555 1_555
H16 C24 1_555 1_555
C25 C24 1_555 1_555
H17 C25 1_555 1_555
C26 N12 1_555 1_555
H18 C26 1_555 1_555
C27 C23 1_555 1_555
H19 C27 1_555 1_555
C28 N13 1_555 1_555
H20 C28 1_555 1_555
C29 C28 1_555 1_555
H21 C29 1_555 1_555
C30 C29 1_555 1_555
C31 C30 1_555 1_555
H22 C31 1_555 1_555
C32 N13 1_555 1_555
H23 C32 1_555 1_555
C33 N9 1_555 1_555
H24 C33 1_555 1_555
O3 H25 1_555 1_555
H26 O3 1_555 1_555
O4 H27 1_555 1_555
H28 O4 1_555 1_555
N13A C28A 1_555 1_555
C28A H20A 1_555 1_555
C29A C28A 1_555 1_555
H21A C29A 1_555 1_555
C30A S3 1_555 1_555
C31A C30A 1_555 1_555
H22A C31A 1_555 1_555
C32A N13A 1_555 1_555
H23A C32A 1_555 1_555
W1E C1E 1_555 1_555
Cd1E O1E 1_555 1_555
S1E C11E 1_555 1_555
S2E C20E 1_555 1_555
O1E H1E 1_555 1_555
H2E O1E 1_555 1_555
N1E Cd1E 1_555 1_555
N2E C2E 1_555 1_555
N3E C3E 1_555 1_555
N4E C4E 1_555 1_555
N5E C5E 1_555 1_555
N6E C6E 1_555 1_555
N7E C7E 1_555 1_555
N8E C8E 1_555 1_555
N9E Cd1E 1_555 1_555
N10E Cd1 1_555 1_555
N11E Cd1E 1_555 1_555
N12E C25E 1_555 1_555
C1E N1E 1_555 1_555
C2E W1E 1_555 1_555
C3E W1E 1_555 1_555
C4E W1E 1_555 1_555
C5E W1E 1_555 1_555
C6E W1E 1_555 1_555
C7E W1E 1_555 1_555
C8E W1E 1_555 1_555
C9E N9E 1_555 1_555
H5E C9E 1_555 1_555
C10E C9E 1_555 1_555
H6E C10E 1_555 1_555
C11E C10E 1_555 1_555
C12E C11E 1_555 1_555
H7E C12E 1_555 1_555
C13E S1E 1_555 1_555
C14E C13E 1_555 1_555
H8E C14E 1_555 1_555
C15E N10E 1_555 1_555
H9E C15E 1_555 1_555
C16E N10E 1_555 1_555
H10E C16E 1_555 1_555
C17E C13E 1_555 1_555
H11E C17E 1_555 1_555
C18E N11E 1_555 1_555
H12E C18E 1_555 1_555
C19E C18E 1_555 1_555
H13E C19E 1_555 1_555
C20E C19E 1_555 1_555
C21E C20E 1_555 1_555
H14E C21E 1_555 1_555
C22E N11E 1_555 1_555
H15E C22E 1_555 1_555
C23E S2E 1_555 1_555
C24E C23E 1_555 1_555
H16E C24E 1_555 1_555
C25E C24E 1_555 1_555
H17E C25E 1_555 1_555
C26E N12E 1_555 1_555
H18E C26E 1_555 1_555
C27E C23E 1_555 1_555
H19E C27E 1_555 1_555
C33E N9E 1_555 1_555
H24E C33E 1_555 1_555
O2D Cd2 1_555 1_555
H3D O2D 1_555 1_555
H4D O2D 1_555 1_555
Cd1_2 N12E 1_555 1_555
Cd1E_2 N12 1_555 1_555
Cd1E_3 N10 1_555 1_555
Cd2A N13A 1_555 1_555
Cd2A_2 N2E 1_555 1_555
N2D Cd2 1_555 1_555
N10_2 Cd1E 1_555 1_555
N12_2 Cd1E 1_555 1_555
N12E_2 Cd1 1_555 1_555
N13D Cd2 1_555 1_555
N2 C2 1_555 1_555
C12 C33 1_555 1_555
C16 C17 1_555 1_555
C21 C22 1_555 1_555
C26 C27 1_555 1_555
C31 C32 1_555 1_555
C29A C30A 1_555 1_555
C31A C32A 1_555 1_555
C12E C33E 1_555 1_555
C14E C15E 1_555 1_555
C16E C17E 1_555 1_555
C21E C22E 1_555 1_555
C26E C27E 1_555 1_555

#END
