
#######################################################################
#
#                 Cambridge Crystallographic Data Centre
#                                CCDC 
#
#######################################################################
#
# If this CIF has been generated from an entry in the Cambridge 
# Structural Database, then it will include bibliographic, chemical, 
# crystal, experimental, refinement or atomic coordinate data resulting 
# from the CCDC's data processing and validation procedures.
#
#######################################################################

data_LOMVEQ
_symmetry_cell_setting           monoclinic
_symmetry_space_group_name_H-M   'C 2/c'
_symmetry_Int_Tables_number      15
_space_group_name_Hall           '-C 2yn'
loop_
_symmetry_equiv_pos_site_id
_symmetry_equiv_pos_as_xyz
1 x,y,z
2 -x,y,1/2-z
3 1/2+x,1/2+y,z
4 1/2-x,1/2+y,1/2-z
5 -x,-y,-z
6 x,-y,1/2+z
7 1/2-x,1/2-y,-z
8 1/2+x,1/2-y,1/2+z
_cell_length_a                   38.4736(12)
_cell_length_b                   12.0047(10)
_cell_length_c                   19.0031(16)
_cell_angle_alpha                90
_cell_angle_beta                 104.334(3)
_cell_angle_gamma                90
_cell_volume                     8503.62
loop_
_atom_site_label
_atom_site_type_symbol
_atom_site_fract_x
_atom_site_fract_y
_atom_site_fract_z
C1 C 0.08549(11) -0.0928(4) 0.0809(3)
C2 C 0.13309(13) -0.0045(4) 0.1865(3)
C3 C 0.18689(11) -0.1273(3) 0.1835(2)
C4 C 0.14978(12) -0.2046(4) 0.2703(2)
C5 C 0.16243(15) -0.3250(4) 0.1654(3)
C6 C 0.09684(14) -0.3110(4) 0.1017(3)
C7 C 0.08652(13) -0.1768(4) 0.2062(3)
C8 C 0.14504(11) -0.1665(4) 0.0543(2)
C9 C 0.12312(17) 0.4509(4) 0.2463(3)
H1 H 0.1263 0.4712 0.2010
C10 C 0.10320(13) 0.5194(4) 0.2804(3)
H2 H 0.0927 0.5841 0.2578
C11 C 0.09901(12) 0.4906(4) 0.3486(3)
C12 C 0.11405(12) 0.3925(4) 0.3811(3)
H3 H 0.1110 0.3725 0.4265
C13 C 0.13371(13) 0.3238(4) 0.3459(2)
H4 H 0.1437 0.2582 0.3680
C14 C 0.15531(11) 0.6422(4) 0.5576(3)
H5 H 0.1802 0.6349 0.5702
C15 C 0.13590(13) 0.6056(4) 0.4905(3)
H6 H 0.1477 0.5740 0.4582
C16 C 0.09855(12) 0.6160(4) 0.4710(2)
C17 C 0.08128(13) 0.6643(4) 0.5204(3)
H7 H 0.0564 0.6713 0.5084
C18 C 0.10145(13) 0.7018(4) 0.5875(3)
H8 H 0.0900 0.7352 0.6199
C19 C 0.24815(13) 0.1742(3) 0.1719(2)
H9 H 0.2593 0.2176 0.2116
C20 C 0.26827(11) 0.1191(4) 0.1319(2)
H10 H 0.2931 0.1247 0.1454
C21 C 0.25203(13) 0.0558(4) 0.0721(2)
C22 C 0.21471(12) 0.0443(4) 0.0511(2)
H11 H 0.2038 0.0005 0.0114
C23 C 0.19432(12) 0.1004(4) 0.0912(2)
H12 H 0.1694 0.0952 0.0772
C24 C 0.20495(12) -0.0561(4) -0.1611(3)
H13 H 0.1875 -0.0141 -0.1928
C25 C 0.22638(13) -0.0069(4) -0.0997(2)
H14 H 0.2228 0.0670 -0.0885
C26 C 0.25351(13) -0.0705(4) -0.0547(2)
C27 C 0.25887(13) -0.1817(4) -0.0675(3)
H15 H 0.2770 -0.2221 -0.0365
C28 C 0.23612(13) -0.2323(4) -0.1288(3)
H16 H 0.2387 -0.3074 -0.1382
C29 C 0.02999(15) 0.1406(5) 0.1465(3)
H17 H 0.0462 0.0820 0.1579
C30 C 0.02836(14) 0.2198(5) 0.1986(3)
H18 H 0.0431 0.2133 0.2453
C31 C 0.00486(16) 0.3088(4) 0.1815(3)
C32 C -0.01716(15) 0.3203(5) 0.1115(3)
H19 H -0.0327 0.3805 0.0997
C33 C -0.01542(15) 0.2394(5) 0.0593(3)
H20 H -0.0296 0.2466 0.0122
Cd1 Cd 0.173646(8) 0.24836(2) 0.218929(15)
Cd2 Cd 0.0000 0.0000 0.0000
N1 N 0.06038(10) -0.0501(3) 0.0437(2)
N2 N 0.13526(11) 0.0897(3) 0.2002(2)
N3 N 0.21631(10) -0.1040(3) 0.2034(2)
N4 N 0.16160(10) -0.2118(3) 0.3335(2)
N5 N 0.17952(12) -0.4028(3) 0.1688(3)
N6 N 0.07662(12) -0.3809(3) 0.0733(2)
N7 N 0.06217(11) -0.1827(3) 0.2349(2)
N8 N 0.15470(12) -0.1634(3) -0.0010(2)
N9 N 0.13835(11) 0.3529(3) 0.2785(2)
N10 N 0.13817(10) 0.6896(3) 0.60624(19)
N11 N 0.21044(12) 0.1638(3) 0.1518(2)
N12 N 0.20936(10) -0.1682(3) -0.1757(2)
N13 N 0.00745(11) 0.1484(4) 0.0775(2)
O1 O 0.21140(8) 0.4002(2) 0.22610(18)
H21 H 0.2020 0.4494 0.1861
H22 H 0.2348 0.3750 0.2241
O2 O -0.01059(8) -0.1180(3) 0.08952(17)
H23 H -0.0149 -0.1921 0.0702
H24 H 0.0100 -0.1185 0.1302
S1 S 0.07113(3) 0.57818(12) 0.38640(7)
S2 S 0.28164(3) -0.01327(10) 0.02750(7)
S3 S 0.0000 0.40766(16) 0.2500
W1 W 0.130366(4) -0.176153(12) 0.155137(9)
C29A C -0.02999(15) 0.1406(5) 0.3535(3)
H17A H -0.0462 0.0820 0.3421
C30A C -0.02836(14) 0.2198(5) 0.3014(3)
H18A H -0.0431 0.2133 0.2547
C31A C -0.00486(16) 0.3088(4) 0.3185(3)
C32A C 0.01716(15) 0.3203(5) 0.3885(3)
H19A H 0.0327 0.3805 0.4003
C33A C 0.01542(15) 0.2394(5) 0.4407(3)
H20A H 0.0296 0.2466 0.4878
N13A N -0.00745(11) 0.1484(4) 0.4225(2)
C1E C 0.08549(11) 1.0928(4) -0.4191(3)
C2E C 0.13309(13) 1.0045(4) -0.3135(3)
C3E C 0.18689(11) 1.1273(3) -0.3165(2)
C4E C 0.14978(12) 1.2046(4) -0.2297(2)
C5E C 0.16243(15) 1.3250(4) -0.3346(3)
C6E C 0.09684(14) 1.3110(4) -0.3983(3)
C7E C 0.08652(13) 1.1768(4) -0.2938(3)
C8E C 0.14504(11) 1.1665(4) -0.4457(2)
C9E C 0.12312(17) 0.5491(4) -0.2537(3)
H1E H 0.1263 0.5288 -0.2990
C10E C 0.10320(13) 0.4806(4) -0.2196(3)
H2E H 0.0927 0.4159 -0.2422
C11E C 0.09901(12) 0.5094(4) -0.1514(3)
C12E C 0.11405(12) 0.6075(4) -0.1189(3)
H3E H 0.1110 0.6275 -0.0735
C13E C 0.13371(13) 0.6762(4) -0.1541(2)
H4E H 0.1437 0.7418 -0.1320
C14E C 0.15531(11) 0.3578(4) 0.0576(3)
H5E H 0.1802 0.3651 0.0702
C15E C 0.13590(13) 0.3944(4) -0.0095(3)
H6E H 0.1477 0.4260 -0.0418
C16E C 0.09855(12) 0.3840(4) -0.0290(2)
C17E C 0.08128(13) 0.3357(4) 0.0204(3)
H7E H 0.0564 0.3287 0.0084
C18E C 0.10145(13) 0.2982(4) 0.0875(3)
H8E H 0.0900 0.2648 0.1199
C19E C 0.24815(13) 0.8258(3) -0.3281(2)
H9E H 0.2593 0.7824 -0.2884
C20E C 0.26827(11) 0.8809(4) -0.3681(2)
H10E H 0.2931 0.8753 -0.3546
C21E C 0.25203(13) 0.9442(4) -0.4279(2)
C22E C 0.21471(12) 0.9557(4) -0.4489(2)
H11E H 0.2038 0.9995 -0.4886
C23E C 0.19432(12) 0.8996(4) -0.4088(2)
H12E H 0.1694 0.9048 -0.4228
C24E C 0.20495(12) 1.0561(4) -0.6611(3)
H13E H 0.1875 1.0141 -0.6928
C25E C 0.22638(13) 1.0069(4) -0.5997(2)
H14E H 0.2228 0.9330 -0.5885
C26E C 0.25351(13) 1.0705(4) -0.5547(2)
C27E C 0.25887(13) 1.1817(4) -0.5675(3)
H15E H 0.2770 1.2221 -0.5365
C28E C 0.23612(13) 1.2323(4) -0.6288(3)
H16E H 0.2387 1.3074 -0.6382
Cd1E Cd 0.173646(8) 0.75164(2) -0.281071(15)
N1E N 0.06038(10) 1.0501(3) -0.4563(2)
N2E N 0.13526(11) 0.9103(3) -0.2998(2)
N3E N 0.21631(10) 1.1040(3) -0.2966(2)
N4E N 0.16160(10) 1.2118(3) -0.1665(2)
N5E N 0.17952(12) 1.4028(3) -0.3312(3)
N6E N 0.07662(12) 1.3809(3) -0.4267(2)
N7E N 0.06217(11) 1.1827(3) -0.2651(2)
N8E N 0.15470(12) 1.1634(3) -0.5010(2)
N9E N 0.13835(11) 0.6471(3) -0.2215(2)
N10E N 0.13817(10) 0.3104(3) 0.10624(19)
N11E N 0.21044(12) 0.8362(3) -0.3482(2)
N12E N 0.20936(10) 1.1682(3) -0.6757(2)
O1E O 0.21140(8) 0.5998(2) -0.27390(18)
H21E H 0.2020 0.5506 -0.3139
H22E H 0.2348 0.6250 -0.2759
S1E S 0.07113(3) 0.42182(12) -0.11360(7)
S2E S 0.28164(3) 1.01327(10) -0.47250(7)
W1E W 0.130366(4) 1.176153(12) -0.344863(9)
O2D O 0.01059(8) 0.1180(3) -0.08952(17)
H23D H 0.0149 0.1921 -0.0702
H24D H -0.0100 0.1185 -0.1302
Cd1_2 Cd 0.173646(8) 1.24836(2) -0.781071(15)
Cd1E_2 Cd 0.173646(8) -0.24836(2) -0.281071(15)
Cd1E_3 Cd 0.173646(8) 0.75164(2) 0.718929(15)
Cd2A Cd 0.0000 0.0000 0.5000
Cd2A_2 Cd 0.0000 1.0000 -0.5000
N1D N -0.06038(10) 0.0501(3) -0.0437(2)
N10_2 N 0.13817(10) 0.6896(3) -0.39376(19)
N12_2 N 0.20936(10) 0.8318(3) -0.1757(2)
N12E_2 N 0.20936(10) 0.1682(3) 0.3243(2)
N13D N -0.00745(11) -0.1484(4) -0.0775(2)
C34 C 0.10515(15) -0.0782(5) 0.4167(3)
H25 H 0.1216 -0.0483 0.4588
H26 H 0.1182 -0.1180 0.3877
H27 H 0.0888 -0.1281 0.4316
C35 C 0.08538(17) 0.0110(5) 0.3748(3)
N14 N 0.06950(14) 0.0837(4) 0.3440(3)
O3 O 1.0000 0.6974(5) 0.2500
O4 O 0.00538(10) 0.6627(3) 0.1026(2)
H28 H 0.0269 0.6458 0.1029
H29 H -0.0085 0.6099 0.0835
O5 O 1.0000 0.9666(4) 0.2500
H30 H 1.0176 0.9645 0.2872
H30A H 0.9824 0.9645 0.2128
H31? H 0.9825 0.7220 0.2172
H32? H 0.9935 0.6890 0.2893
H33? H 0.9805 0.9645 0.2633
loop_
_geom_bond_atom_site_label_1
_geom_bond_atom_site_label_2
_geom_bond_site_symmetry_1
_geom_bond_site_symmetry_2
C1 N1 1_555 1_555
C2 N2 1_555 1_555
C3 N3 1_555 1_555
C4 N4 1_555 1_555
C5 N5 1_555 1_555
C6 N6 1_555 1_555
C7 N7 1_555 1_555
C8 N8 1_555 1_555
C9 H1 1_555 1_555
C10 C9 1_555 1_555
H2 C10 1_555 1_555
C11 C10 1_555 1_555
C12 C11 1_555 1_555
H3 C12 1_555 1_555
C13 C12 1_555 1_555
H4 C13 1_555 1_555
C14 H5 1_555 1_555
C15 C14 1_555 1_555
H6 C15 1_555 1_555
C16 C15 1_555 1_555
C17 C16 1_555 1_555
H7 C17 1_555 1_555
C18 C17 1_555 1_555
H8 C18 1_555 1_555
C19 H9 1_555 1_555
C20 C19 1_555 1_555
H10 C20 1_555 1_555
C21 C20 1_555 1_555
C22 C21 1_555 1_555
H11 C22 1_555 1_555
C23 C22 1_555 1_555
H12 C23 1_555 1_555
C24 H13 1_555 1_555
C25 C24 1_555 1_555
H14 C25 1_555 1_555
C26 C25 1_555 1_555
C27 C26 1_555 1_555
H15 C27 1_555 1_555
C28 C27 1_555 1_555
H16 C28 1_555 1_555
C29 H17 1_555 1_555
C30 C29 1_555 1_555
H18 C30 1_555 1_555
C31 C30 1_555 1_555
C32 C31 1_555 1_555
H19 C32 1_555 1_555
C33 C32 1_555 1_555
H20 C33 1_555 1_555
Cd1 N2 1_555 1_555
Cd2 N1 1_555 1_555
N9 C9 1_555 1_555
N10 C14 1_555 1_555
N11 C19 1_555 1_555
N12 C24 1_555 1_555
N13 C29 1_555 1_555
O1 Cd1 1_555 1_555
H21 O1 1_555 1_555
H22 O1 1_555 1_555
O2 Cd2 1_555 1_555
H23 O2 1_555 1_555
H24 O2 1_555 1_555
S1 C11 1_555 1_555
S2 C21 1_555 1_555
S3 C31 1_555 1_555
W1 C1 1_555 1_555
C34 H25 1_555 1_555
H26 C34 1_555 1_555
H27 C34 1_555 1_555
C35 C34 1_555 1_555
N14 C35 1_555 1_555
O4 H28 1_555 1_555
H29 O4 1_555 1_555
O5 H30 1_555 1_555
C29A H17A 1_555 1_555
C30A C29A 1_555 1_555
H18A C30A 1_555 1_555
C31A S3 1_555 1_555
C32A C31A 1_555 1_555
H19A C32A 1_555 1_555
C33A C32A 1_555 1_555
H20A C33A 1_555 1_555
N13A C29A 1_555 1_555
C1E N1E 1_555 1_555
C2E N2E 1_555 1_555
C3E N3E 1_555 1_555
C4E N4E 1_555 1_555
C5E N5E 1_555 1_555
C6E N6E 1_555 1_555
C7E N7E 1_555 1_555
C8E N8E 1_555 1_555
C9E H1E 1_555 1_555
C10E C9E 1_555 1_555
H2E C10E 1_555 1_555
C11E C10E 1_555 1_555
C12E C11E 1_555 1_555
H3E C12E 1_555 1_555
C13E C12E 1_555 1_555
H4E C13E 1_555 1_555
C14E H5E 1_555 1_555
C15E C14E 1_555 1_555
H6E C15E 1_555 1_555
C16E C15E 1_555 1_555
C17E C16E 1_555 1_555
H7E C17E 1_555 1_555
C18E C17E 1_555 1_555
H8E C18E 1_555 1_555
C19E H9E 1_555 1_555
C20E C19E 1_555 1_555
H10E C20E 1_555 1_555
C21E C20E 1_555 1_555
C22E C21E 1_555 1_555
H11E C22E 1_555 1_555
C23E C22E 1_555 1_555
H12E C23E 1_555 1_555
C24E H13E 1_555 1_555
C25E C24E 1_555 1_555
H14E C25E 1_555 1_555
C26E C25E 1_555 1_555
C27E C26E 1_555 1_555
H15E C27E 1_555 1_555
C28E C27E 1_555 1_555
H16E C28E 1_555 1_555
Cd1E N2E 1_555 1_555
N1E Cd2A_2 1_555 1_555
N9E C9E 1_555 1_555
N10E Cd1 1_555 1_555
N11E C19E 1_555 1_555
N12E C24E 1_555 1_555
O1E Cd1E 1_555 1_555
H21E O1E 1_555 1_555
H22E O1E 1_555 1_555
S1E C11E 1_555 1_555
S2E C21E 1_555 1_555
W1E C1E 1_555 1_555
O2D Cd2 1_555 1_555
H23D O2D 1_555 1_555
H24D O2D 1_555 1_555
Cd1_2 N12E 1_555 1_555
Cd1E_2 N12 1_555 1_555
Cd1E_3 N10 1_555 1_555
Cd2A N13A 1_555 1_555
N1D Cd2 1_555 1_555
N10_2 Cd1E 1_555 1_555
N12_2 Cd1E 1_555 1_555
N12E_2 Cd1 1_555 1_555
N13D Cd2 1_555 1_555
H30A O5 1_555 1_555
C2 W1 1_555 1_555
C3 W1 1_555 1_555
C4 W1 1_555 1_555
C5 W1 1_555 1_555
C6 W1 1_555 1_555
C7 W1 1_555 1_555
C8 W1 1_555 1_555
C13 N9 1_555 1_555
C16 S1 1_555 1_555
C18 N10 1_555 1_555
C23 N11 1_555 1_555
C26 S2 1_555 1_555
C28 N12 1_555 1_555
C33 N13 1_555 1_555
Cd1 N9 1_555 1_555
Cd1 N11 1_555 1_555
Cd2 N13 1_555 1_555
C30A C31A 1_555 1_555
C33A N13A 1_555 1_555
C2E W1E 1_555 1_555
C3E W1E 1_555 1_555
C4E W1E 1_555 1_555
C5E W1E 1_555 1_555
C6E W1E 1_555 1_555
C7E W1E 1_555 1_555
C8E W1E 1_555 1_555
C13E N9E 1_555 1_555
C14E N10E 1_555 1_555
C16E S1E 1_555 1_555
C18E N10E 1_555 1_555
C23E N11E 1_555 1_555
C26E S2E 1_555 1_555
C28E N12E 1_555 1_555
Cd1E N9E 1_555 1_555
Cd1E N11E 1_555 1_555

#END
