
#######################################################################
#
#                 Cambridge Crystallographic Data Centre
#                                CCDC 
#
#######################################################################
#
# If this CIF has been generated from an entry in the Cambridge 
# Structural Database, then it will include bibliographic, chemical, 
# crystal, experimental, refinement or atomic coordinate data resulting 
# from the CCDC's data processing and validation procedures.
#
#######################################################################

data_LOMVOA
_symmetry_cell_setting           monoclinic
_symmetry_space_group_name_H-M   'C 2/c'
_symmetry_Int_Tables_number      15
_space_group_name_Hall           '-C 2yn'
loop_
_symmetry_equiv_pos_site_id
_symmetry_equiv_pos_as_xyz
1 x,y,z
2 -x,y,1/2-z
3 1/2+x,1/2+y,z
4 1/2-x,1/2+y,1/2-z
5 -x,-y,-z
6 x,-y,1/2+z
7 1/2-x,1/2-y,-z
8 1/2+x,1/2-y,1/2+z
_cell_length_a                   37.571(5)
_cell_length_b                   11.9361(15)
_cell_length_c                   19.196(2)
_cell_angle_alpha                90
_cell_angle_beta                 104.686(2)
_cell_angle_gamma                90
_cell_volume                     8327.23
loop_
_atom_site_label
_atom_site_type_symbol
_atom_site_fract_x
_atom_site_fract_y
_atom_site_fract_z
W1 W 0.628148(4) 0.689153(10) 0.146745(8)
Cd1 Cd 0.5000 0.5000 0.0000
S1 S 0.5000 0.09627(12) 0.2500
O1 O 0.48965(9) 0.6173(3) 0.09012(17)
N1 N 0.56113(9) 0.5537(3) 0.03235(18)
C1 C 0.58524(10) 0.6018(3) 0.06868(19)
H1 H 0.5079(6) 0.644(3) 0.1169(16)
H2 H 0.4708(6) 0.615(4) 0.1055(18)
Cd2 Cd 0.669393(7) 0.258373(19) 0.212150(13)
S2 S 0.56794(3) -0.09145(9) 0.37559(6)
O2 O 0.70979(8) 0.1107(2) 0.22327(19)
N2 N 0.63137(9) 0.4217(2) 0.19562(17)
C2 C 0.62970(9) 0.5149(3) 0.17944(19)
H3 H 0.7000(8) 0.0525(17) 0.2061(19)
H4 H 0.7317(4) 0.107(3) 0.244(2)
S3 S 0.78069(3) 0.51373(11) 0.02168(6)
N3 N 0.71581(9) 0.6158(3) 0.20219(19)
C3 C 0.68571(11) 0.6395(3) 0.1808(2)
N4 N 0.65611(11) 0.6851(3) -0.0037(2)
C4 C 0.64633(11) 0.6851(3) 0.0481(2)
N5 N 0.67872(11) 0.9179(3) 0.1621(2)
C5 C 0.66081(11) 0.8396(3) 0.1566(2)
N6 N 0.57473(12) 0.8902(3) 0.0595(3)
C6 C 0.59343(12) 0.8215(3) 0.0904(3)
N7 N 0.65466(13) 0.7389(4) 0.3220(2)
C7 C 0.64501(12) 0.7210(4) 0.2615(2)
N8 N 0.55406(12) 0.6756(3) 0.2088(2)
C8 C 0.58000(12) 0.6826(3) 0.1883(2)
N9 N 0.51092(9) 0.3496(3) 0.07912(17)
C9 C 0.49211(12) 0.2543(3) 0.0613(2)
H5 H 0.4804 0.2410 0.0121
N10 N 0.63462(8) -0.1966(2) 0.59812(16)
C10 C 0.48900(12) 0.1739(3) 0.1116(2)
H6 H 0.4753 0.1073 0.0971
N11 N 0.63288(9) 0.1483(2) 0.26988(16)
C11 C 0.50620(11) 0.1925(3) 0.1833(2)
N12 N 0.70499(9) 0.6629(2) -0.18054(16)
C12 C 0.52778(12) 0.2877(4) 0.2014(2)
H7 H 0.5414 0.3000 0.2497
N13 N 0.70752(9) 0.3466(3) 0.14765(17)
C13 C 0.52907(11) 0.3640(4) 0.1484(2)
H8 H 0.5434 0.4298 0.1613
C14 C 0.59854(12) -0.2118(4) 0.5748(2)
H9 H 0.5862 -0.2484 0.6060
C15 C 0.57792(11) -0.1779(3) 0.5086(2)
H10 H 0.5520 -0.1888 0.4953
C16 C 0.59549(10) -0.1274(3) 0.46122(19)
C17 C 0.63317(11) -0.1151(4) 0.4838(2)
H11 H 0.6465 -0.0834 0.4527
C18 C 0.65105(11) -0.1491(3) 0.5514(2)
H12 H 0.6769 -0.1383 0.5664
C19 C 0.59509(10) 0.0022(3) 0.3390(2)
C20 C 0.63134(12) 0.1653(3) 0.3382(2)
H13 H 0.6438 0.2285 0.3631
C21 C 0.61264(11) 0.0959(3) 0.3740(2)
H14 H 0.6118 0.1123 0.4220
C22 C 0.59621(12) -0.0161(3) 0.2684(2)
H15 H 0.5842 -0.0790 0.2424
C23 C 0.61522(11) 0.0594(3) 0.2365(2)
H16 H 0.6156 0.0468 0.1878
C24 C 0.70304(12) 0.5538(3) -0.1652(2)
H17 H 0.6853 0.5087 -0.1971
C25 C 0.72553(12) 0.5043(3) -0.1055(2)
H18 H 0.7235 0.4265 -0.0969
C26 C 0.75096(10) 0.5685(4) -0.0584(2)
C27 C 0.75435(12) 0.6801(3) -0.0741(2)
H19 H 0.7726 0.7257 -0.0438
C28 C 0.73065(12) 0.7239(3) -0.1351(2)
H20 H 0.7326 0.8012 -0.1452
C29 C 0.69242(11) 0.4077(3) 0.0886(2)
H21 H 0.6664 0.4152 0.0746
C30 C 0.71278(10) 0.4598(3) 0.0474(2)
H22 H 0.7009 0.5028 0.0065
C31 C 0.75035(10) 0.4490(3) 0.0664(2)
C32 C 0.76642(11) 0.3875(4) 0.1281(2)
H23 H 0.7924 0.3788 0.1435
C33 C 0.74390(12) 0.3395(4) 0.1663(2)
H24 H 0.7552 0.2989 0.2087
N9A N 0.48908(9) 0.3496(3) 0.42088(17)
C9A C 0.50789(12) 0.2543(3) 0.4387(2)
H5A H 0.5196 0.2410 0.4879
C10A C 0.51100(12) 0.1739(3) 0.3884(2)
H6A H 0.5247 0.1073 0.4029
C11A C 0.49380(11) 0.1925(3) 0.3167(2)
C12A C 0.47222(12) 0.2877(4) 0.2986(2)
H7A H 0.4586 0.3000 0.2503
C13A C 0.47093(11) 0.3640(4) 0.3516(2)
H8A H 0.4566 0.4298 0.3387
W1D W 0.371852(4) 0.310847(10) -0.146745(8)
N1D N 0.43887(9) 0.4463(3) -0.03235(18)
C1D C 0.41476(10) 0.3982(3) -0.06868(19)
Cd2D Cd 0.330607(7) 0.741627(19) -0.212150(13)
S2D S 0.43206(3) 1.09145(9) -0.37559(6)
O2D O 0.29021(8) 0.8893(2) -0.22327(19)
N2D N 0.36863(9) 0.5783(2) -0.19562(17)
C2D C 0.37030(9) 0.4851(3) -0.17944(19)
H3D H 0.3000(8) 0.9475(17) -0.2061(19)
H4D H 0.2683(4) 0.893(3) -0.244(2)
S3D S 0.21931(3) 0.48627(11) -0.02168(6)
N3D N 0.28419(9) 0.3842(3) -0.20219(19)
C3D C 0.31429(11) 0.3605(3) -0.1808(2)
N4D N 0.34389(11) 0.3149(3) 0.0037(2)
C4D C 0.35367(11) 0.3149(3) -0.0481(2)
N5D N 0.32128(11) 0.0821(3) -0.1621(2)
C5D C 0.33919(11) 0.1604(3) -0.1566(2)
N6D N 0.42527(12) 0.1098(3) -0.0595(3)
C6D C 0.40657(12) 0.1785(3) -0.0904(3)
N7D N 0.34534(13) 0.2611(4) -0.3220(2)
C7D C 0.35499(12) 0.2790(4) -0.2615(2)
N8D N 0.44594(12) 0.3244(3) -0.2088(2)
C8D C 0.42000(12) 0.3174(3) -0.1883(2)
N10D N 0.36538(8) 1.1966(2) -0.59812(16)
N11D N 0.36712(9) 0.8517(2) -0.26988(16)
N12D N 0.29501(9) 0.3371(2) 0.18054(16)
N13D N 0.29248(9) 0.6534(3) -0.14765(17)
C14D C 0.40146(12) 1.2118(4) -0.5748(2)
H9D H 0.4138 1.2484 -0.6060
C15D C 0.42208(11) 1.1779(3) -0.5086(2)
H10D H 0.4480 1.1888 -0.4953
C16D C 0.40451(10) 1.1274(3) -0.46122(19)
C17D C 0.36683(11) 1.1151(4) -0.4838(2)
H11D H 0.3535 1.0834 -0.4527
C18D C 0.34895(11) 1.1491(3) -0.5514(2)
H12D H 0.3231 1.1383 -0.5664
C19D C 0.40491(10) 0.9978(3) -0.3390(2)
C20D C 0.36866(12) 0.8347(3) -0.3382(2)
H13D H 0.3562 0.7715 -0.3631
C21D C 0.38736(11) 0.9041(3) -0.3740(2)
H14D H 0.3882 0.8877 -0.4220
C22D C 0.40379(12) 1.0161(3) -0.2684(2)
H15D H 0.4158 1.0790 -0.2424
C23D C 0.38478(11) 0.9406(3) -0.2365(2)
H16D H 0.3844 0.9532 -0.1878
C24D C 0.29696(12) 0.4462(3) 0.1652(2)
H17D H 0.3147 0.4913 0.1971
C25D C 0.27447(12) 0.4957(3) 0.1055(2)
H18D H 0.2765 0.5735 0.0969
C26D C 0.24904(10) 0.4315(4) 0.0584(2)
C27D C 0.24565(12) 0.3199(3) 0.0741(2)
H19D H 0.2274 0.2743 0.0438
C28D C 0.26935(12) 0.2761(3) 0.1351(2)
H20D H 0.2674 0.1988 0.1452
C29D C 0.30758(11) 0.5923(3) -0.0886(2)
H21D H 0.3336 0.5848 -0.0746
C30D C 0.28722(10) 0.5402(3) -0.0474(2)
H22D H 0.2991 0.4972 -0.0065
C31D C 0.24965(10) 0.5510(3) -0.0664(2)
C32D C 0.23358(11) 0.6125(4) -0.1281(2)
H23D H 0.2076 0.6212 -0.1435
C33D C 0.25610(12) 0.6605(4) -0.1663(2)
H24D H 0.2448 0.7011 -0.2087
O1D O 0.51035(9) 0.3827(3) -0.09012(17)
H1D H 0.4921(6) 0.356(3) -0.1169(16)
H2D H 0.5292(6) 0.385(4) -0.1055(18)
Cd1A Cd 0.5000 0.5000 0.5000
Cd2A Cd 0.330607(7) 0.258373(19) 0.287850(13)
Cd2A_2 Cd 0.330607(7) 1.258373(19) -0.712150(13)
Cd2E Cd 0.669393(7) -0.258373(19) 0.712150(13)
Cd2E_2 Cd 0.669393(7) 0.741627(19) -0.287850(13)
N9D N 0.48908(9) 0.6504(3) -0.07912(17)
N10A N 0.36538(8) 0.8034(2) -0.09812(16)
N10E N 0.63462(8) 0.1966(2) 0.09812(16)
N12A N 0.29501(9) 0.6629(2) -0.31946(16)
N12E N 0.70499(9) 0.3371(2) 0.31946(16)
O3 O 0.44995(17) 0.5292(7) 0.1657(4)
H25 H 0.4508 0.5746 0.1990
C34 C 0.4139(3) 0.4757(8) 0.1407(4)
H26 H 0.4027 0.4579 0.1808
H27 H 0.4149 0.4073 0.1120
C35 C 0.3949(4) 0.5688(9) 0.0959(5)
H28 H 0.3730 0.5900 0.1117
H29 H 0.3876 0.5452 0.0453
H30 H 0.4116 0.6332 0.1008
loop_
_geom_bond_atom_site_label_1
_geom_bond_atom_site_label_2
_geom_bond_site_symmetry_1
_geom_bond_site_symmetry_2
W1 C1 1_555 1_555
Cd1 O1 1_555 1_555
S1 C11 1_555 1_555
O1 H1 1_555 1_555
N1 Cd1 1_555 1_555
C1 N1 1_555 1_555
H2 O1 1_555 1_555
Cd2 O2 1_555 1_555
S2 C16 1_555 1_555
O2 H3 1_555 1_555
N2 Cd2 1_555 1_555
C2 W1 1_555 1_555
H4 O2 1_555 1_555
S3 C26 1_555 1_555
N3 C3 1_555 1_555
C3 W1 1_555 1_555
N4 C4 1_555 1_555
C4 W1 1_555 1_555
N5 C5 1_555 1_555
C5 W1 1_555 1_555
N6 C6 1_555 1_555
C6 W1 1_555 1_555
N7 C7 1_555 1_555
C7 W1 1_555 1_555
N8 C8 1_555 1_555
C8 W1 1_555 1_555
N9 Cd1 1_555 1_555
C9 N9 1_555 1_555
H5 C9 1_555 1_555
N10 C14 1_555 1_555
C10 C9 1_555 1_555
H6 C10 1_555 1_555
N11 Cd2 1_555 1_555
C11 C10 1_555 1_555
N12 C24 1_555 1_555
C12 C11 1_555 1_555
H7 C12 1_555 1_555
N13 Cd2 1_555 1_555
C13 N9 1_555 1_555
H8 C13 1_555 1_555
C14 H9 1_555 1_555
C15 C14 1_555 1_555
H10 C15 1_555 1_555
C16 C15 1_555 1_555
C17 C16 1_555 1_555
H11 C17 1_555 1_555
C18 N10 1_555 1_555
H12 C18 1_555 1_555
C19 S2 1_555 1_555
C20 N11 1_555 1_555
H13 C20 1_555 1_555
C21 C19 1_555 1_555
H14 C21 1_555 1_555
C22 C19 1_555 1_555
H15 C22 1_555 1_555
C23 N11 1_555 1_555
H16 C23 1_555 1_555
C24 H17 1_555 1_555
C25 C24 1_555 1_555
H18 C25 1_555 1_555
C26 C25 1_555 1_555
C27 C26 1_555 1_555
H19 C27 1_555 1_555
C28 N12 1_555 1_555
H20 C28 1_555 1_555
C29 N13 1_555 1_555
H21 C29 1_555 1_555
C30 C29 1_555 1_555
H22 C30 1_555 1_555
C31 S3 1_555 1_555
C32 C31 1_555 1_555
H23 C32 1_555 1_555
C33 N13 1_555 1_555
H24 C33 1_555 1_555
O3 H25 1_555 1_555
C34 O3 1_555 1_555
H26 C34 1_555 1_555
H27 C34 1_555 1_555
C35 C34 1_555 1_555
H28 C35 1_555 1_555
H29 C35 1_555 1_555
H30 C35 1_555 1_555
N9A C9A 1_555 1_555
C9A H5A 1_555 1_555
C10A C9A 1_555 1_555
H6A C10A 1_555 1_555
C11A S1 1_555 1_555
C12A C11A 1_555 1_555
H7A C12A 1_555 1_555
C13A N9A 1_555 1_555
H8A C13A 1_555 1_555
W1D C1D 1_555 1_555
N1D Cd1 1_555 1_555
C1D N1D 1_555 1_555
Cd2D O2D 1_555 1_555
S2D C16D 1_555 1_555
O2D H3D 1_555 1_555
N2D Cd2D 1_555 1_555
C2D W1D 1_555 1_555
H4D O2D 1_555 1_555
S3D C26D 1_555 1_555
N3D C3D 1_555 1_555
C3D W1D 1_555 1_555
N4D C4D 1_555 1_555
C4D W1D 1_555 1_555
N5D C5D 1_555 1_555
C5D W1D 1_555 1_555
N6D C6D 1_555 1_555
C6D W1D 1_555 1_555
N7D C7D 1_555 1_555
C7D W1D 1_555 1_555
N8D C8D 1_555 1_555
C8D W1D 1_555 1_555
N10D C14D 1_555 1_555
N11D Cd2D 1_555 1_555
N12D C24D 1_555 1_555
N13D Cd2D 1_555 1_555
C14D H9D 1_555 1_555
C15D C14D 1_555 1_555
H10D C15D 1_555 1_555
C16D C15D 1_555 1_555
C17D C16D 1_555 1_555
H11D C17D 1_555 1_555
C18D N10D 1_555 1_555
H12D C18D 1_555 1_555
C19D S2D 1_555 1_555
C20D N11D 1_555 1_555
H13D C20D 1_555 1_555
C21D C19D 1_555 1_555
H14D C21D 1_555 1_555
C22D C19D 1_555 1_555
H15D C22D 1_555 1_555
C23D N11D 1_555 1_555
H16D C23D 1_555 1_555
C24D H17D 1_555 1_555
C25D C24D 1_555 1_555
H18D C25D 1_555 1_555
C26D C25D 1_555 1_555
C27D C26D 1_555 1_555
H19D C27D 1_555 1_555
C28D N12D 1_555 1_555
H20D C28D 1_555 1_555
C29D N13D 1_555 1_555
H21D C29D 1_555 1_555
C30D C29D 1_555 1_555
H22D C30D 1_555 1_555
C31D S3D 1_555 1_555
C32D C31D 1_555 1_555
H23D C32D 1_555 1_555
C33D N13D 1_555 1_555
H24D C33D 1_555 1_555
O1D Cd1 1_555 1_555
H1D O1D 1_555 1_555
H2D O1D 1_555 1_555
Cd1A N9A 1_555 1_555
Cd2A N12D 1_555 1_555
Cd2A_2 N10D 1_555 1_555
Cd2E N10 1_555 1_555
Cd2E_2 N12 1_555 1_555
N9D Cd1 1_555 1_555
N10A Cd2D 1_555 1_555
N10E Cd2 1_555 1_555
N12A Cd2D 1_555 1_555
N12E Cd2 1_555 1_555
N2 C2 1_555 1_555
C12 C13 1_555 1_555
C17 C18 1_555 1_555
C20 C21 1_555 1_555
C22 C23 1_555 1_555
C27 C28 1_555 1_555
C30 C31 1_555 1_555
C32 C33 1_555 1_555
C10A C11A 1_555 1_555
C12A C13A 1_555 1_555
N2D C2D 1_555 1_555
C17D C18D 1_555 1_555
C20D C21D 1_555 1_555
C22D C23D 1_555 1_555
C27D C28D 1_555 1_555
C30D C31D 1_555 1_555
C32D C33D 1_555 1_555

#END
