
#######################################################################
#
#                 Cambridge Crystallographic Data Centre
#                                CCDC 
#
#######################################################################
#
# If this CIF has been generated from an entry in the Cambridge 
# Structural Database, then it will include bibliographic, chemical, 
# crystal, experimental, refinement or atomic coordinate data resulting 
# from the CCDC's data processing and validation procedures.
#
#######################################################################

data_LONDUP
_symmetry_cell_setting           monoclinic
_symmetry_space_group_name_H-M   'P 21/n'
_symmetry_Int_Tables_number      14
_space_group_name_Hall           '-P 2yn'
loop_
_symmetry_equiv_pos_site_id
_symmetry_equiv_pos_as_xyz
1 x,y,z
2 1/2-x,1/2+y,1/2-z
3 -x,-y,-z
4 1/2+x,1/2-y,1/2+z
_cell_length_a                   16.2897(18)
_cell_length_b                   6.3828(7)
_cell_length_c                   19.946(2)
_cell_angle_alpha                90
_cell_angle_beta                 100.632(2)
_cell_angle_gamma                90
_cell_volume                     2038.26
loop_
_atom_site_label
_atom_site_type_symbol
_atom_site_fract_x
_atom_site_fract_y
_atom_site_fract_z
Ni1 Ni 0.69374(3) 0.79360(7) 0.10340(2)
C1 C 1.2142(2) 0.7413(6) 0.39044(19)
C2 C 1.2456(3) 0.8307(7) 0.3370(2)
H1 H 1.2278 0.7858 0.2912
C3 C 1.3032(3) 0.9861(8) 0.3535(2)
H2 H 1.3267 1.0500 0.3184
C4 C 1.3285(3) 1.0541(8) 0.4209(2)
H3 H 1.3675 1.1658 0.4302
C5 C 1.2984(3) 0.9631(7) 0.4743(2)
H4 H 1.3164 1.0087 0.5199
C6 C 1.2406(3) 0.8024(6) 0.45855(19)
C7 C 1.1505(2) 0.5554(6) 0.45909(18)
H5 H 1.1147 0.4553 0.4741
C8 C 1.1028(2) 0.4913(6) 0.33526(18)
C9 C 1.0512(2) 0.6205(6) 0.28925(18)
H6 H 1.0532 0.7688 0.2930
C10 C 0.9973(2) 0.5200(6) 0.23794(18)
C11 C 0.9948(3) 0.3025(6) 0.23590(19)
H7 H 0.9554 0.2370 0.2011
C12 C 1.0989(3) 0.2780(6) 0.3288(2)
H8 H 1.1361 0.1947 0.3602
C13 C 0.9622(3) 0.8086(6) 0.15087(18)
C14 C 1.0379(3) 0.8983(7) 0.1444(2)
H9 H 1.0895 0.8482 0.1695
C15 C 1.0345(3) 1.0636(7) 0.0997(2)
H10 H 1.0851 1.1279 0.0933
C16 C 0.9589(3) 1.1394(7) 0.0635(2)
H11 H 0.9593 1.2542 0.0332
C17 C 0.8833(3) 1.0513(6) 0.0706(2)
H12 H 0.8318 1.1045 0.0463
C18 C 0.8860(2) 0.8816(6) 0.11474(18)
C19 C 0.8578(2) 0.6187(6) 0.17396(18)
H13 H 0.8284 0.5129 0.1932
N1 N 1.1566(2) 0.5831(5) 0.39230(15)
N2 N 1.1991(2) 0.6811(5) 0.50002(15)
N3 N 1.0442(2) 0.1820(5) 0.27965(17)
N4 N 0.9421(2) 0.6393(5) 0.18877(15)
N5 N 0.8212(2) 0.7581(5) 0.13075(15)
O1 O 0.56432(18) 1.2385(4) 0.10541(18)
O2 O 0.67247(19) 1.4741(4) 0.08673(13)
O3 O 0.6692(2) 1.3459(5) 0.19989(13)
O4 O 0.70583(17) 1.1165(4) 0.11437(14)
O5 O 0.56708(18) 0.8346(5) 0.07807(17)
H14 H 0.5564 0.9601 0.0901
H15 H 0.5275 0.7483 0.0719
O6 O 0.68391(19) 0.7665(4) 0.20649(13)
H16 H 0.6798 0.6370 0.2115
H17 H 0.7309 0.7878 0.2366
S1 S 0.65264(6) 1.29243(14) 0.12703(5)
Ni1_2 Ni 0.69374(3) 1.79360(7) 0.10340(2)
Ni1C Ni 1.19374(3) 0.70640(7) 0.60340(2)
N2C N 0.6991(2) 0.8189(5) 0.00002(15)
O2_2 O 0.67247(19) 0.4741(4) 0.08673(13)
O7 O 0.4424(2) 0.5373(5) 0.05372(16)
H18 H 0.4145 0.5105 0.0123
H19 H 0.4751 0.4358 0.0605
loop_
_geom_bond_atom_site_label_1
_geom_bond_atom_site_label_2
_geom_bond_site_symmetry_1
_geom_bond_site_symmetry_2
Ni1 N5 1_555 1_555
C1 C2 1_555 1_555
C2 H1 1_555 1_555
C3 C2 1_555 1_555
H2 C3 1_555 1_555
C4 C3 1_555 1_555
H3 C4 1_555 1_555
C5 C4 1_555 1_555
H4 C5 1_555 1_555
C6 C1 1_555 1_555
C7 H5 1_555 1_555
C8 C9 1_555 1_555
C9 H6 1_555 1_555
C10 C9 1_555 1_555
C11 C10 1_555 1_555
H7 C11 1_555 1_555
C12 C8 1_555 1_555
H8 C12 1_555 1_555
C13 C14 1_555 1_555
C14 H9 1_555 1_555
C15 C14 1_555 1_555
H10 C15 1_555 1_555
C16 C15 1_555 1_555
H11 C16 1_555 1_555
C17 C16 1_555 1_555
H12 C17 1_555 1_555
C18 C13 1_555 1_555
C19 H13 1_555 1_555
N1 C1 1_555 1_555
N2 C6 1_555 1_555
N3 C11 1_555 1_555
N4 C10 1_555 1_555
N5 C18 1_555 1_555
O1 S1 1_555 1_555
O2 S1 1_555 1_555
O3 S1 1_555 1_555
O4 Ni1 1_555 1_555
O5 Ni1 1_555 1_555
H14 O5 1_555 1_555
H15 O5 1_555 1_555
O6 Ni1 1_555 1_555
H16 O6 1_555 1_555
H17 O6 1_555 1_555
S1 O4 1_555 1_555
O7 H18 1_555 1_555
H19 O7 1_555 1_555
Ni1_2 O2 1_555 1_555
Ni1C N2 1_555 1_555
N2C Ni1 1_555 1_555
O2_2 Ni1 1_555 1_555
C5 C6 1_555 1_555
C7 N1 1_555 1_555
C7 N2 1_555 1_555
C8 N1 1_555 1_555
C12 N3 1_555 1_555
C13 N4 1_555 1_555
C17 C18 1_555 1_555
C19 N4 1_555 1_555
C19 N5 1_555 1_555

#END
