
#######################################################################
#
#                 Cambridge Crystallographic Data Centre
#                                CCDC 
#
#######################################################################
#
# If this CIF has been generated from an entry in the Cambridge 
# Structural Database, then it will include bibliographic, chemical, 
# crystal, experimental, refinement or atomic coordinate data resulting 
# from the CCDC's data processing and validation procedures.
#
#######################################################################

data_LONFUQ
_symmetry_cell_setting           monoclinic
_symmetry_space_group_name_H-M   'P 21/c'
_symmetry_Int_Tables_number      14
_space_group_name_Hall           '-P 2ybc'
loop_
_symmetry_equiv_pos_site_id
_symmetry_equiv_pos_as_xyz
1 x,y,z
2 -x,1/2+y,1/2-z
3 -x,-y,-z
4 x,1/2-y,1/2+z
_cell_length_a                   9.900(2)
_cell_length_b                   11.0180(10)
_cell_length_c                   12.861(2)
_cell_angle_alpha                90
_cell_angle_beta                 103.550(13)
_cell_angle_gamma                90
_cell_volume                     1363.81
loop_
_atom_site_label
_atom_site_type_symbol
_atom_site_fract_x
_atom_site_fract_y
_atom_site_fract_z
Cu1 Cu 0.16607(3) 0.01484(2) 0.31001(2)
S1 S -0.27883(7) -0.02046(7) 0.10687(6)
O1 O 0.26714(15) 0.15066(14) 0.25712(12)
N1 N 0.40054(18) 0.14096(16) 0.43154(14)
N2 N 0.29726(18) 0.06173(17) 0.44039(15)
N3 N 0.09691(18) -0.09159(16) 0.41690(15)
N4 N 0.0033(2) 0.01133(18) 0.19485(17)
N5 N 0.69434(18) 0.38408(16) 0.24083(14)
C1 C 0.4839(2) 0.2532(2) 0.30057(17)
C2 C 0.5713(2) 0.3278(2) 0.37308(18)
C3 C 0.6734(2) 0.3926(2) 0.34058(18)
C4 C 0.6101(2) 0.3117(2) 0.17165(18)
C5 C 0.5033(2) 0.2460(2) 0.19689(18)
C6 C 0.3739(2) 0.1781(2) 0.33012(17)
C7 C 0.2891(2) 0.0104(2) 0.52806(18)
C8 C 0.1738(2) -0.07613(19) 0.51832(17)
C9 C 0.1453(2) -0.1388(2) 0.6036(2)
C10 C 0.0353(3) -0.2205(2) 0.5844(2)
C11 C -0.0409(3) -0.2376(2) 0.4818(2)
C12 C -0.0081(2) -0.1712(2) 0.3991(2)
C13 C -0.1144(3) -0.00084(19) 0.15742(18)
H1 H 0.630(2) 0.311(2) 0.095(2)
H2 H 0.734(2) 0.446(2) 0.3881(18)
H3 H 0.560(2) 0.337(2) 0.4420(19)
H4 H 0.454(2) 0.199(2) 0.149(2)
H5 H -0.057(2) -0.181(2) 0.325(2)
H6 H 0.200(3) -0.126(2) 0.670(2)
H7 H -0.108(3) -0.291(3) 0.467(2)
H8 H 0.011(3) -0.268(3) 0.643(2)
H9 H 0.350(3) 0.024(2) 0.595(2)
Cu1A Cu 0.83393(3) 0.51484(2) 0.18999(2)
N5A N 0.30566(18) -0.11592(16) 0.25917(14)
loop_
_geom_bond_atom_site_label_1
_geom_bond_atom_site_label_2
_geom_bond_site_symmetry_1
_geom_bond_site_symmetry_2
Cu1 O1 1_555 1_555
S1 C13 1_555 1_555
O1 C6 1_555 1_555
N1 N2 1_555 1_555
N2 Cu1 1_555 1_555
N3 Cu1 1_555 1_555
N4 Cu1 1_555 1_555
N5 C3 1_555 1_555
C1 C2 1_555 1_555
C2 C3 1_555 1_555
C3 H2 1_555 1_555
C4 N5 1_555 1_555
C5 C1 1_555 1_555
C6 N1 1_555 1_555
C7 N2 1_555 1_555
C8 N3 1_555 1_555
C9 C8 1_555 1_555
C10 C9 1_555 1_555
C11 C10 1_555 1_555
C12 N3 1_555 1_555
C13 N4 1_555 1_555
H1 C4 1_555 1_555
H3 C2 1_555 1_555
H4 C5 1_555 1_555
H5 C12 1_555 1_555
H6 C9 1_555 1_555
H7 C11 1_555 1_555
H8 C10 1_555 1_555
H9 C7 1_555 1_555
Cu1A N5 1_555 1_555
N5A Cu1 1_555 1_555
C1 C6 1_555 1_555
C4 C5 1_555 1_555
C7 C8 1_555 1_555
C11 C12 1_555 1_555

#END
