
#######################################################################
#
#                 Cambridge Crystallographic Data Centre
#                                CCDC 
#
#######################################################################
#
# If this CIF has been generated from an entry in the Cambridge 
# Structural Database, then it will include bibliographic, chemical, 
# crystal, experimental, refinement or atomic coordinate data resulting 
# from the CCDC's data processing and validation procedures.
#
#######################################################################

data_LONFAX
_symmetry_cell_setting           triclinic
_symmetry_space_group_name_H-M   'P -1'
_symmetry_Int_Tables_number      2
_space_group_name_Hall           '-P 1'
loop_
_symmetry_equiv_pos_site_id
_symmetry_equiv_pos_as_xyz
1 x,y,z
2 -x,-y,-z
_cell_length_a                   8.0810(10)
_cell_length_b                   17.003(2)
_cell_length_c                   18.446(2)
_cell_angle_alpha                72.270(2)
_cell_angle_beta                 83.040(2)
_cell_angle_gamma                89.033(2)
_cell_volume                     2395.79
loop_
_atom_site_label
_atom_site_type_symbol
_atom_site_fract_x
_atom_site_fract_y
_atom_site_fract_z
Ni1 Ni 0.33293(9) 0.66716(4) 0.66673(4)
Ni2 Ni 0.0000 1.0000 1.0000
C1 C 0.3272(9) 0.7014(4) 0.4975(4)
H1 H 0.2370 0.7350 0.5021
C2 C 0.5225(9) 0.6141(4) 0.5255(4)
C3 C 0.5354(9) 0.6436(5) 0.4457(4)
C4 C 0.6306(11) 0.5545(5) 0.5609(4)
H2 H 0.6200 0.5317 0.6140
C5 C 0.6623(12) 0.6201(7) 0.3983(5)
H3 H 0.6725 0.6420 0.3452
C6 C 0.7540(13) 0.5302(7) 0.5145(5)
H4 H 0.8287 0.4908 0.5371
C7 C 0.7713(13) 0.5626(6) 0.4350(6)
H5 H 0.8581 0.5451 0.4060
C8 C 0.3281(9) 0.7025(5) 0.3040(4)
H6 H 0.3268 0.6451 0.3202
C9 C 0.3660(9) 0.7443(4) 0.3544(4)
C10 C 0.3714(9) 0.8296(4) 0.3314(4)
H7 H 0.3965 0.8588 0.3640
C11 C 0.3377(9) 0.8696(4) 0.2575(4)
C12 C 0.3007(9) 0.8234(5) 0.2123(4)
H8 H 0.2786 0.8512 0.1627
C13 C 0.4555(10) 0.9971(5) 0.1608(4)
H9 H 0.5165 0.9699 0.1300
C14 C 0.3488(10) 1.0914(5) 0.2042(4)
C15 C 0.2842(10) 1.0180(5) 0.2558(4)
C16 C 0.3068(12) 1.1664(5) 0.2162(6)
H10 H 0.3560 1.2158 0.1841
C17 C 0.1671(11) 1.0157(6) 0.3171(5)
H11 H 0.1202 0.9662 0.3501
C18 C 0.1893(14) 1.1650(7) 0.2776(6)
H12 H 0.1546 1.2144 0.2858
C19 C 0.1229(13) 1.0914(7) 0.3269(6)
H13 H 0.0456 1.0924 0.3682
C20 C 0.5156(9) 0.8243(4) 0.5781(4)
C21 C 0.5049(8) 0.9154(4) 0.5379(4)
C22 C 0.3563(9) 0.9532(4) 0.5198(4)
H14 H 0.2588 0.9211 0.5323
C23 C 0.3476(9) 1.0366(4) 0.4841(4)
H15 H 0.2452 1.0609 0.4746
C24 C 0.3792(9) 0.6031(5) 1.0395(4)
H16 H 0.4230 0.6533 1.0397
C25 C 0.2608(9) 0.5093(4) 1.0001(4)
C26 C 0.2930(10) 0.4775(5) 1.0749(4)
C27 C 0.1798(10) 0.4640(5) 0.9621(4)
H17 H 0.1567 0.4866 0.9118
C28 C 0.2443(11) 0.3959(5) 1.1172(4)
H18 H 0.2616 0.3736 1.1683
C29 C 0.1369(10) 0.3837(5) 1.0044(4)
H19 H 0.0841 0.3506 0.9819
C30 C 0.1697(11) 0.3508(5) 1.0791(5)
H20 H 0.1403 0.2958 1.1049
C31 C 0.2508(8) 0.7317(4) 0.9083(4)
H21 H 0.2436 0.7456 0.9536
C32 C 0.2978(8) 0.6529(4) 0.9079(4)
C33 C 0.2156(8) 0.7885(4) 0.8428(4)
C34 C 0.2263(8) 0.7667(4) 0.7753(4)
H22 H 0.1955 0.8042 0.7309
C35 C 0.3172(8) 0.6365(4) 0.8377(3)
H23 H 0.3566 0.5855 0.8356
C36 C 0.0868(8) 0.8841(4) 0.9080(4)
H24 H 0.0594 0.8428 0.9543
C37 C 0.1852(8) 0.9443(4) 0.7878(3)
C38 C 0.1173(8) 1.0029(4) 0.8218(3)
C39 C 0.2663(9) 0.9687(4) 0.7116(4)
H25 H 0.3176 0.9310 0.6892
C40 C 0.1142(9) 1.0856(4) 0.7810(4)
H26 H 0.0639 1.1237 0.8032
C41 C 0.2643(11) 1.0509(5) 0.6734(4)
H27 H 0.3157 1.0693 0.6232
C42 C 0.1887(10) 1.1096(5) 0.7058(4)
H28 H 0.1889 1.1648 0.6765
C43 C 0.1992(8) 1.1573(4) 0.9193(3)
C44 C 0.1900(8) 1.2471(4) 0.8731(3)
C45 C 0.3357(8) 1.2965(4) 0.8481(4)
H29 H 0.4386 1.2745 0.8602
C46 C 0.0383(9) 1.2816(4) 0.8530(4)
H30 H -0.0590 1.2495 0.8696
C47 C 0.3245(9) 1.3784(4) 0.8052(4)
H31 H 0.4210 1.4112 0.7900
C48 C 0.0302(9) 1.3624(4) 0.8091(4)
H32 H -0.0724 1.3838 0.7958
C49 C 0.1736(8) 1.4134(4) 0.7837(4)
C50 C 0.1628(8) 1.5008(4) 0.7368(4)
N1 N 0.3897(7) 0.6515(3) 0.5567(3)
N2 N 0.4077(7) 0.6993(4) 0.4283(3)
N3 N 0.2943(8) 0.7413(4) 0.2346(3)
N4 N 0.3536(8) 0.9564(4) 0.2272(3)
N5 N 0.4580(9) 1.0770(4) 0.1453(4)
N6 N 0.3180(7) 0.5910(3) 0.9766(3)
N7 N 0.3686(8) 0.5368(4) 1.0981(3)
N8 N 0.2806(7) 0.6922(3) 0.7738(3)
N9 N 0.1616(7) 0.8685(3) 0.8436(3)
N10 N 0.0569(7) 0.9618(3) 0.8993(3)
O1 O 0.6478(7) 0.7888(3) 0.5745(3)
O2 O 0.3753(6) 0.7902(3) 0.6150(2)
O3 O 0.3363(6) 1.1258(3) 0.9313(3)
O4 O 0.0595(5) 1.1197(3) 0.9416(2)
O5 O 0.2953(5) 1.5445(3) 0.7220(2)
O6 O 0.0302(7) 1.5270(3) 0.7129(4)
O7 O -0.2393(5) 1.0260(3) 0.9719(2)
H33 H -0.2944 1.0438 1.0057
H34 H -0.2862 0.9822 0.9704
O8 O 0.5746(5) 0.6525(3) 0.6921(2)
H35 H 0.6104 0.6972 0.6969
H36 H 0.5774 0.6138 0.7339
O9 O 0.0803(6) 0.6865(3) 0.6529(3)
H37 H 0.0624 0.6799 0.6107
H38 H 0.0210 0.6520 0.6897
C20A C 0.4844(9) 1.1757(4) 0.4219(4)
C21A C 0.4951(8) 1.0846(4) 0.4621(4)
C22A C 0.6437(9) 1.0468(4) 0.4802(4)
H14A H 0.7412 1.0789 0.4677
C23A C 0.6524(9) 0.9634(4) 0.5159(4)
H15A H 0.7548 0.9391 0.5254
O1A O 0.3522(7) 1.2112(3) 0.4255(3)
O2A O 0.6247(6) 1.2098(3) 0.3850(2)
Ni1A Ni -0.33293(9) 1.33284(4) 1.33327(4)
C1A C -0.3272(9) 1.2986(4) 1.5025(4)
H1A H -0.2370 1.2650 1.4979
C2A C -0.5225(9) 1.3859(4) 1.4745(4)
C3A C -0.5354(9) 1.3564(5) 1.5543(4)
C4A C -0.6306(11) 1.4455(5) 1.4391(4)
H2A H -0.6200 1.4683 1.3860
C5A C -0.6623(12) 1.3799(7) 1.6017(5)
H3A H -0.6725 1.3580 1.6548
C6A C -0.7540(13) 1.4698(7) 1.4855(5)
H4A H -0.8287 1.5092 1.4629
C7A C -0.7713(13) 1.4374(6) 1.5650(6)
H5A H -0.8581 1.4549 1.5940
C8A C -0.3281(9) 1.2975(5) 1.6960(4)
H6A H -0.3268 1.3549 1.6798
C9A C -0.3660(9) 1.2557(4) 1.6456(4)
C10A C -0.3714(9) 1.1704(4) 1.6686(4)
H7A H -0.3965 1.1412 1.6360
C11A C -0.3377(9) 1.1304(4) 1.7425(4)
C12A C -0.3007(9) 1.1766(5) 1.7877(4)
H8A H -0.2786 1.1488 1.8373
C13A C -0.4555(10) 1.0029(5) 1.8392(4)
H9A H -0.5165 1.0301 1.8700
C14A C -0.3488(10) 0.9086(5) 1.7958(4)
C15A C -0.2842(10) 0.9820(5) 1.7442(4)
C16A C -0.3068(12) 0.8336(5) 1.7838(6)
H10A H -0.3560 0.7842 1.8159
C17A C -0.1671(11) 0.9843(6) 1.6829(5)
H11A H -0.1202 1.0338 1.6499
C18A C -0.1893(14) 0.8350(7) 1.7224(6)
H12A H -0.1546 0.7856 1.7142
C19A C -0.1229(13) 0.9086(7) 1.6731(6)
H13A H -0.0456 0.9076 1.6318
C24A C -0.3792(9) 1.3969(5) 0.9605(4)
H16A H -0.4230 1.3467 0.9603
C25A C -0.2608(9) 1.4907(4) 0.9999(4)
C26A C -0.2930(10) 1.5225(5) 0.9251(4)
C27A C -0.1798(10) 1.5360(5) 1.0379(4)
H17A H -0.1567 1.5134 1.0882
C28A C -0.2443(11) 1.6041(5) 0.8828(4)
H18A H -0.2616 1.6264 0.8317
C29A C -0.1369(10) 1.6163(5) 0.9956(4)
H19A H -0.0841 1.6494 1.0181
C30A C -0.1697(11) 1.6492(5) 0.9209(5)
H20A H -0.1403 1.7042 0.8951
C31A C -0.2508(8) 1.2683(4) 1.0917(4)
H21A H -0.2436 1.2544 1.0464
C32A C -0.2978(8) 1.3471(4) 1.0921(4)
C33A C -0.2156(8) 1.2115(4) 1.1572(4)
C34A C -0.2263(8) 1.2333(4) 1.2247(4)
H22A H -0.1955 1.1958 1.2691
C35A C -0.3172(8) 1.3635(4) 1.1623(3)
H23A H -0.3566 1.4145 1.1644
C36A C -0.0868(8) 1.1159(4) 1.0920(4)
H24A H -0.0594 1.1572 1.0457
C37A C -0.1852(8) 1.0557(4) 1.2122(3)
C38A C -0.1173(8) 0.9971(4) 1.1782(3)
C39A C -0.2663(9) 1.0313(4) 1.2884(4)
H25A H -0.3176 1.0690 1.3108
C40A C -0.1142(9) 0.9144(4) 1.2190(4)
H26A H -0.0639 0.8763 1.1968
C41A C -0.2643(11) 0.9491(5) 1.3266(4)
H27A H -0.3157 0.9307 1.3768
C42A C -0.1887(10) 0.8904(5) 1.2942(4)
H28A H -0.1889 0.8352 1.3235
C43A C -0.1992(8) 0.8427(4) 1.0807(3)
C44A C -0.1900(8) 0.7529(4) 1.1269(3)
C45A C -0.3357(8) 0.7035(4) 1.1519(4)
H29A H -0.4386 0.7255 1.1398
C46A C -0.0383(9) 0.7184(4) 1.1470(4)
H30A H 0.0590 0.7505 1.1304
C47A C -0.3245(9) 0.6216(4) 1.1948(4)
H31A H -0.4210 0.5888 1.2100
C48A C -0.0302(9) 0.6376(4) 1.1909(4)
H32A H 0.0724 0.6162 1.2042
C49A C -0.1736(8) 0.5866(4) 1.2163(4)
C50A C -0.1628(8) 0.4992(4) 1.2632(4)
N1A N -0.3897(7) 1.3485(3) 1.4433(3)
N2A N -0.4077(7) 1.3007(4) 1.5717(3)
N3A N -0.2943(8) 1.2587(4) 1.7654(3)
N4A N -0.3536(8) 1.0436(4) 1.7728(3)
N5A N -0.4580(9) 0.9230(4) 1.8547(4)
N6A N -0.3180(7) 1.4090(3) 1.0234(3)
N7A N -0.3686(8) 1.4632(4) 0.9019(3)
N8A N -0.2806(7) 1.3078(3) 1.2262(3)
N9A N -0.1616(7) 1.1315(3) 1.1564(3)
N10A N -0.0569(7) 1.0382(3) 1.1007(3)
O3A O -0.3363(6) 0.8742(3) 1.0687(3)
O4A O -0.0595(5) 0.8803(3) 1.0584(2)
O5A O -0.2953(5) 0.4555(3) 1.2780(2)
O6A O -0.0302(7) 0.4730(3) 1.2871(4)
O7A O 0.2393(5) 0.9740(3) 1.0281(2)
H33A H 0.2944 0.9562 0.9943
H34A H 0.2862 1.0178 1.0296
O8A O -0.5746(5) 1.3475(3) 1.3079(2)
H35A H -0.6104 1.3028 1.3031
H36A H -0.5774 1.3862 1.2661
O9A O -0.0803(6) 1.3135(3) 1.3471(3)
H37A H -0.0624 1.3201 1.3893
H38A H -0.0210 1.3480 1.3103
Ni1_2 Ni 0.33293(9) 1.66716(4) 0.66673(4)
Ni1A_2 Ni -0.33293(9) 0.33284(4) 1.33327(4)
Ni1A_3 Ni 0.66707(9) 1.33284(4) 0.33327(4)
O2A_2 O -0.3753(6) 1.2098(3) 1.3850(2)
O5_2 O 0.2953(5) 0.5445(3) 0.7220(2)
O5A_2 O -0.2953(5) 1.4555(3) 1.2780(2)
O10 O 0.4012(6) 0.8366(3) 1.0032(3)
H39 H 0.4493 0.8369 0.9595
H40 H 0.4720 0.8268 1.0352
O11 O 0.6979(6) 0.4974(3) 0.7395(3)
H41 H 0.6877 0.4665 0.7858
H42 H 0.8007 0.5067 0.7229
O12 O 0.9405(10) 0.7541(7) 0.5094(4)
H43 H 0.8392 0.7610 0.5244
H44 H 0.9451 0.7299 0.4751
loop_
_geom_bond_atom_site_label_1
_geom_bond_atom_site_label_2
_geom_bond_site_symmetry_1
_geom_bond_site_symmetry_2
Ni1 N1 1_555 1_555
Ni2 N10 1_555 1_555
C1 H1 1_555 1_555
C2 C3 1_555 1_555
C3 C5 1_555 1_555
C4 C2 1_555 1_555
H2 C4 1_555 1_555
C5 H3 1_555 1_555
C6 C4 1_555 1_555
H4 C6 1_555 1_555
C7 C5 1_555 1_555
H5 C7 1_555 1_555
C8 H6 1_555 1_555
C9 C8 1_555 1_555
C10 C9 1_555 1_555
H7 C10 1_555 1_555
C11 C10 1_555 1_555
C12 C11 1_555 1_555
H8 C12 1_555 1_555
C13 H9 1_555 1_555
C14 C15 1_555 1_555
C15 C17 1_555 1_555
C16 C14 1_555 1_555
H10 C16 1_555 1_555
C17 H11 1_555 1_555
C18 C16 1_555 1_555
H12 C18 1_555 1_555
C19 C17 1_555 1_555
H13 C19 1_555 1_555
C20 C21 1_555 1_555
C21 C22 1_555 1_555
C22 H14 1_555 1_555
C23 C22 1_555 1_555
H15 C23 1_555 1_555
C24 H16 1_555 1_555
C25 C26 1_555 1_555
C26 C28 1_555 1_555
C27 C25 1_555 1_555
H17 C27 1_555 1_555
C28 H18 1_555 1_555
C29 C27 1_555 1_555
H19 C29 1_555 1_555
C30 C28 1_555 1_555
H20 C30 1_555 1_555
C31 H21 1_555 1_555
C32 C31 1_555 1_555
C33 C31 1_555 1_555
C34 C33 1_555 1_555
H22 C34 1_555 1_555
C35 C32 1_555 1_555
H23 C35 1_555 1_555
C36 H24 1_555 1_555
C37 C38 1_555 1_555
C38 C40 1_555 1_555
C39 C37 1_555 1_555
H25 C39 1_555 1_555
C40 H26 1_555 1_555
C41 C39 1_555 1_555
H27 C41 1_555 1_555
C42 C40 1_555 1_555
H28 C42 1_555 1_555
C43 C44 1_555 1_555
C44 C45 1_555 1_555
C45 H29 1_555 1_555
C46 C44 1_555 1_555
H30 C46 1_555 1_555
C47 C45 1_555 1_555
H31 C47 1_555 1_555
C48 C46 1_555 1_555
H32 C48 1_555 1_555
C49 C47 1_555 1_555
C50 C49 1_555 1_555
N1 C1 1_555 1_555
N2 C1 1_555 1_555
N3 C8 1_555 1_555
N4 C11 1_555 1_555
N5 C13 1_555 1_555
N6 C24 1_555 1_555
N7 C24 1_555 1_555
N8 Ni1 1_555 1_555
N9 C33 1_555 1_555
N10 C36 1_555 1_555
O1 C20 1_555 1_555
O2 Ni1 1_555 1_555
O3 C43 1_555 1_555
O4 Ni2 1_555 1_555
O5 C50 1_555 1_555
O6 C50 1_555 1_555
O7 Ni2 1_555 1_555
H33 O7 1_555 1_555
H34 O7 1_555 1_555
O8 Ni1 1_555 1_555
H35 O8 1_555 1_555
H36 O8 1_555 1_555
O9 Ni1 1_555 1_555
H37 O9 1_555 1_555
H38 O9 1_555 1_555
O10 H39 1_555 1_555
H40 O10 1_555 1_555
O11 H41 1_555 1_555
H42 O11 1_555 1_555
O12 H43 1_555 1_555
H44 O12 1_555 1_555
C20A C21A 1_555 1_555
C21A C23 1_555 1_555
C22A C21A 1_555 1_555
H14A C22A 1_555 1_555
C23A C21 1_555 1_555
H15A C23A 1_555 1_555
O1A C20A 1_555 1_555
O2A C20A 1_555 1_555
Ni1A N1A 1_555 1_555
C1A H1A 1_555 1_555
C2A C3A 1_555 1_555
C3A C5A 1_555 1_555
C4A C2A 1_555 1_555
H2A C4A 1_555 1_555
C5A H3A 1_555 1_555
C6A C4A 1_555 1_555
H4A C6A 1_555 1_555
C7A C5A 1_555 1_555
H5A C7A 1_555 1_555
C8A H6A 1_555 1_555
C9A C8A 1_555 1_555
C10A C9A 1_555 1_555
H7A C10A 1_555 1_555
C11A C10A 1_555 1_555
C12A C11A 1_555 1_555
H8A C12A 1_555 1_555
C13A H9A 1_555 1_555
C14A C15A 1_555 1_555
C15A C17A 1_555 1_555
C16A C14A 1_555 1_555
H10A C16A 1_555 1_555
C17A H11A 1_555 1_555
C18A C16A 1_555 1_555
H12A C18A 1_555 1_555
C19A C17A 1_555 1_555
H13A C19A 1_555 1_555
C24A H16A 1_555 1_555
C25A C26A 1_555 1_555
C26A C28A 1_555 1_555
C27A C25A 1_555 1_555
H17A C27A 1_555 1_555
C28A H18A 1_555 1_555
C29A C27A 1_555 1_555
H19A C29A 1_555 1_555
C30A C28A 1_555 1_555
H20A C30A 1_555 1_555
C31A H21A 1_555 1_555
C32A C31A 1_555 1_555
C33A C31A 1_555 1_555
C34A C33A 1_555 1_555
H22A C34A 1_555 1_555
C35A C32A 1_555 1_555
H23A C35A 1_555 1_555
C36A H24A 1_555 1_555
C37A C38A 1_555 1_555
C38A C40A 1_555 1_555
C39A C37A 1_555 1_555
H25A C39A 1_555 1_555
C40A H26A 1_555 1_555
C41A C39A 1_555 1_555
H27A C41A 1_555 1_555
C42A C40A 1_555 1_555
H28A C42A 1_555 1_555
C43A C44A 1_555 1_555
C44A C45A 1_555 1_555
C45A H29A 1_555 1_555
C46A C44A 1_555 1_555
H30A C46A 1_555 1_555
C47A C45A 1_555 1_555
H31A C47A 1_555 1_555
C48A C46A 1_555 1_555
H32A C48A 1_555 1_555
C49A C47A 1_555 1_555
C50A C49A 1_555 1_555
N1A C1A 1_555 1_555
N2A C1A 1_555 1_555
N3A C8A 1_555 1_555
N4A C11A 1_555 1_555
N5A C13A 1_555 1_555
N6A C24A 1_555 1_555
N7A C24A 1_555 1_555
N8A Ni1A 1_555 1_555
N9A C33A 1_555 1_555
N10A Ni2 1_555 1_555
O3A C43A 1_555 1_555
O4A Ni2 1_555 1_555
O5A C50A 1_555 1_555
O6A C50A 1_555 1_555
O7A Ni2 1_555 1_555
H33A O7A 1_555 1_555
H34A O7A 1_555 1_555
O8A Ni1A 1_555 1_555
H35A O8A 1_555 1_555
H36A O8A 1_555 1_555
O9A Ni1A 1_555 1_555
H37A O9A 1_555 1_555
H38A O9A 1_555 1_555
Ni1_2 O5 1_555 1_555
Ni1A_2 O5A 1_555 1_555
Ni1A_3 O2A 1_555 1_555
O2A_2 Ni1A 1_555 1_555
O5_2 Ni1 1_555 1_555
O5A_2 Ni1A 1_555 1_555
C2 N1 1_555 1_555
C3 N2 1_555 1_555
C6 C7 1_555 1_555
C9 N2 1_555 1_555
C12 N3 1_555 1_555
C13 N4 1_555 1_555
C14 N5 1_555 1_555
C15 N4 1_555 1_555
C18 C19 1_555 1_555
C20 O2 1_555 1_555
C25 N6 1_555 1_555
C26 N7 1_555 1_555
C29 C30 1_555 1_555
C32 N6 1_555 1_555
C34 N8 1_555 1_555
C35 N8 1_555 1_555
C36 N9 1_555 1_555
C37 N9 1_555 1_555
C38 N10 1_555 1_555
C41 C42 1_555 1_555
C43 O4 1_555 1_555
C48 C49 1_555 1_555
C22A C23A 1_555 1_555
C2A N1A 1_555 1_555
C3A N2A 1_555 1_555
C6A C7A 1_555 1_555
C9A N2A 1_555 1_555
C12A N3A 1_555 1_555
C13A N4A 1_555 1_555
C14A N5A 1_555 1_555
C15A N4A 1_555 1_555
C18A C19A 1_555 1_555
C25A N6A 1_555 1_555
C26A N7A 1_555 1_555
C29A C30A 1_555 1_555
C32A N6A 1_555 1_555
C34A N8A 1_555 1_555
C35A N8A 1_555 1_555
C36A N9A 1_555 1_555
C36A N10A 1_555 1_555
C37A N9A 1_555 1_555
C38A N10A 1_555 1_555
C41A C42A 1_555 1_555
C43A O4A 1_555 1_555
C48A C49A 1_555 1_555

#END
