
#######################################################################
#
#                 Cambridge Crystallographic Data Centre
#                                CCDC 
#
#######################################################################
#
# If this CIF has been generated from an entry in the Cambridge 
# Structural Database, then it will include bibliographic, chemical, 
# crystal, experimental, refinement or atomic coordinate data resulting 
# from the CCDC's data processing and validation procedures.
#
#######################################################################

data_LONFEB
_symmetry_cell_setting           monoclinic
_symmetry_space_group_name_H-M   'P 21/n'
_symmetry_Int_Tables_number      14
_space_group_name_Hall           '-P 2yn'
loop_
_symmetry_equiv_pos_site_id
_symmetry_equiv_pos_as_xyz
1 x,y,z
2 1/2-x,1/2+y,1/2-z
3 -x,-y,-z
4 1/2+x,1/2-y,1/2+z
_cell_length_a                   9.438(3)
_cell_length_b                   16.395(5)
_cell_length_c                   20.981(7)
_cell_angle_alpha                90
_cell_angle_beta                 99.531(5)
_cell_angle_gamma                90
_cell_volume                     3201.7
loop_
_atom_site_label
_atom_site_type_symbol
_atom_site_fract_x
_atom_site_fract_y
_atom_site_fract_z
Ni1 Ni 0.27027(6) -0.05531(4) 0.24550(3)
C1 C -0.1677(6) 0.4095(4) 0.3321(2)
C2 C -0.2782(6) 0.4352(4) 0.3636(3)
H1 H -0.3504 0.4002 0.3719
C3 C -0.2736(7) 0.5162(5) 0.3817(3)
H2 H -0.3468 0.5366 0.4019
C4 C -0.1662(7) 0.5677(4) 0.3711(3)
H3 H -0.1661 0.6211 0.3860
C5 C -0.0583(6) 0.5425(4) 0.3391(3)
H4 H 0.0130 0.5782 0.3308
C6 C -0.0602(5) 0.4618(4) 0.3198(2)
C7 C -0.0107(5) 0.3457(4) 0.2839(2)
H5 H 0.0345 0.3040 0.2649
C8 C -0.1979(5) 0.2574(4) 0.3117(2)
C9 C -0.1177(5) 0.1881(3) 0.3126(2)
H6 H -0.0185 0.1917 0.3159
C10 C -0.1822(5) 0.1139(4) 0.3087(2)
C11 C -0.3303(6) 0.1121(5) 0.3081(3)
H7 H -0.3764 0.0618 0.3063
C12 C -0.3429(5) 0.2496(4) 0.3111(3)
H8 H -0.3980 0.2966 0.3115
C13 C -0.1251(5) -0.0363(4) 0.3236(2)
C14 C -0.2314(6) -0.0704(5) 0.3534(3)
H9 H -0.3058 -0.0394 0.3648
C15 C -0.2206(7) -0.1518(6) 0.3650(3)
H10 H -0.2909 -0.1765 0.3847
C16 C -0.1086(8) -0.2015(4) 0.3491(4)
H11 H -0.1061 -0.2573 0.3573
C17 C -0.0027(6) -0.1638(4) 0.3208(3)
H12 H 0.0736 -0.1939 0.3102
C18 C -0.0120(6) -0.0833(4) 0.3089(2)
C19 C 0.0221(5) 0.0379(4) 0.2793(2)
H13 H 0.0623 0.0832 0.2623
C20 C 0.3762(5) -0.3773(3) 0.4039(2)
C21 C 0.4384(5) -0.3762(3) 0.4685(2)
H14 H 0.4501 -0.4245 0.4920
C22 C 0.4829(6) -0.3038(4) 0.4977(3)
H15 H 0.5271 -0.3037 0.5407
C23 C 0.4634(5) -0.2321(4) 0.4649(2)
H16 H 0.4934 -0.1835 0.4857
C24 C 0.3991(5) -0.2309(3) 0.4007(2)
C25 C 0.3559(5) -0.3043(3) 0.3707(2)
H17 H 0.3126 -0.3044 0.3275
C26 C 0.3352(5) -0.4579(3) 0.3722(2)
C27 C 0.3770(5) -0.1515(4) 0.3660(3)
N1 N -0.1326(4) 0.3340(3) 0.3087(2)
N2 N 0.0380(4) 0.4196(3) 0.2887(2)
N3 N -0.4068(5) 0.1784(4) 0.3098(2)
N4 N -0.1020(4) 0.0432(3) 0.30528(19)
N5 N 0.0785(4) -0.0324(3) 0.27980(19)
O1 O 0.3643(4) -0.5207(2) 0.40494(17)
O2 O 0.2777(3) -0.45620(19) 0.31370(15)
O3 O 0.4171(6) -0.0889(3) 0.3959(2)
O4 O 0.3193(3) -0.1529(2) 0.30761(15)
O5 O 0.1571(3) -0.1368(2) 0.17953(15)
H18 H 0.2117 -0.1578 0.1566
H19 H 0.0904 -0.1113 0.1554
O6 O 0.3742(3) 0.0251(2) 0.31360(15)
H20 H 0.3338 0.0705 0.3098
H21 H 0.3717 0.0066 0.3512
Ni1A Ni 0.22973(6) -0.55531(4) 0.25450(3)
Ni1A_2 Ni 0.22973(6) 0.44469(4) 0.25450(3)
N2A N 0.4620(4) -0.0804(3) 0.2113(2)
O2A O 0.2223(3) 0.04380(19) 0.18630(15)
loop_
_geom_bond_atom_site_label_1
_geom_bond_atom_site_label_2
_geom_bond_site_symmetry_1
_geom_bond_site_symmetry_2
Ni1 N5 1_555 1_555
C1 C2 1_555 1_555
C2 H1 1_555 1_555
C3 C2 1_555 1_555
H2 C3 1_555 1_555
C4 C3 1_555 1_555
H3 C4 1_555 1_555
C5 C4 1_555 1_555
H4 C5 1_555 1_555
C6 C1 1_555 1_555
C7 H5 1_555 1_555
C8 C9 1_555 1_555
C9 H6 1_555 1_555
C10 C9 1_555 1_555
C11 C10 1_555 1_555
H7 C11 1_555 1_555
C12 C8 1_555 1_555
H8 C12 1_555 1_555
C13 C14 1_555 1_555
C14 H9 1_555 1_555
C15 C14 1_555 1_555
H10 C15 1_555 1_555
C16 C15 1_555 1_555
H11 C16 1_555 1_555
C17 C16 1_555 1_555
H12 C17 1_555 1_555
C18 C13 1_555 1_555
C19 H13 1_555 1_555
C20 C21 1_555 1_555
C21 H14 1_555 1_555
C22 C21 1_555 1_555
H15 C22 1_555 1_555
C23 C22 1_555 1_555
H16 C23 1_555 1_555
C24 C23 1_555 1_555
C25 C20 1_555 1_555
H17 C25 1_555 1_555
C26 C20 1_555 1_555
C27 C24 1_555 1_555
N1 C1 1_555 1_555
N2 C6 1_555 1_555
N3 C11 1_555 1_555
N4 C10 1_555 1_555
N5 C18 1_555 1_555
O1 C26 1_555 1_555
O2 C26 1_555 1_555
O3 C27 1_555 1_555
O4 Ni1 1_555 1_555
O5 Ni1 1_555 1_555
H18 O5 1_555 1_555
H19 O5 1_555 1_555
O6 Ni1 1_555 1_555
H20 O6 1_555 1_555
H21 O6 1_555 1_555
Ni1A O2 1_555 1_555
Ni1A_2 N2 1_555 1_555
N2A Ni1 1_555 1_555
O2A Ni1 1_555 1_555
C5 C6 1_555 1_555
C7 N1 1_555 1_555
C7 N2 1_555 1_555
C8 N1 1_555 1_555
C12 N3 1_555 1_555
C13 N4 1_555 1_555
C17 C18 1_555 1_555
C19 N4 1_555 1_555
C19 N5 1_555 1_555
C24 C25 1_555 1_555
C27 O4 1_555 1_555

#END
