
#######################################################################
#
#                 Cambridge Crystallographic Data Centre
#                                CCDC 
#
#######################################################################
#
# If this CIF has been generated from an entry in the Cambridge 
# Structural Database, then it will include bibliographic, chemical, 
# crystal, experimental, refinement or atomic coordinate data resulting 
# from the CCDC's data processing and validation procedures.
#
#######################################################################

data_LONHON
_symmetry_cell_setting           orthorhombic
_symmetry_space_group_name_H-M   'P 21 21 21'
_symmetry_Int_Tables_number      19
_space_group_name_Hall           'P 2ac 2ab'
loop_
_symmetry_equiv_pos_site_id
_symmetry_equiv_pos_as_xyz
1 x,y,z
2 1/2-x,-y,1/2+z
3 1/2+x,1/2-y,-z
4 -x,1/2+y,1/2-z
_cell_length_a                   10.7932(12)
_cell_length_b                   12.1372(11)
_cell_length_c                   22.132(2)
_cell_angle_alpha                90
_cell_angle_beta                 90
_cell_angle_gamma                90
_cell_volume                     2899.27
loop_
_atom_site_label
_atom_site_type_symbol
_atom_site_fract_x
_atom_site_fract_y
_atom_site_fract_z
C1 C 0.2548(14) 0.8579(14) 0.8670(7)
C2 C 0.2794(16) 0.9207(14) 0.8099(7)
C3 C 0.3761(14) 0.8935(12) 0.7711(6)
H1 H 0.4244 0.8316 0.7787
C4 C 0.4004(14) 0.9589(12) 0.7209(6)
H2 H 0.4651 0.9408 0.6950
C5 C 0.3281(15) 1.0513(14) 0.7094(7)
C6 C 0.2314(15) 1.0784(15) 0.7482(6)
H3 H 0.1830 1.1402 0.7405
C7 C 0.2071(14) 1.0131(13) 0.7984(7)
H4 H 0.1424 1.0312 0.8243
C8 C 0.3536(13) 1.1265(12) 0.6571(6)
C9 C -0.1431(13) 1.0443(11) 0.9302(6)
C10 C -0.1021(14) 1.1620(12) 0.9353(7)
C11 C -0.1761(17) 1.2404(13) 0.9033(6)
H5 H -0.2426 1.2166 0.8800
C12 C -0.1476(15) 1.3574(13) 0.9072(7)
H6 H -0.1937 1.4103 0.8867
C13 C -0.0450(13) 1.3858(12) 0.9443(9)
C14 C 0.0290(14) 1.3091(13) 0.9712(7)
H7 H 0.1023 1.3302 0.9900
C15 C -0.0053(16) 1.2020(13) 0.9702(7)
H8 H 0.0383 1.1525 0.9942
C16 C -0.0164(13) 1.5065(11) 0.9480(6)
C17 C 0.0849(17) 0.5609(13) 0.8170(7)
H9 H 0.0149 0.5218 0.8289
C18 C 0.1288(14) 0.4050(13) 0.7427(7)
H10 H 0.2035 0.3738 0.7265
H11 H 0.0697 0.4151 0.7108
H12 H 0.0950 0.3562 0.7726
C19 C 0.2730(15) 0.5702(17) 0.7547(8)
H13 H 0.2978 0.6179 0.7871
H14 H 0.2602 0.6129 0.7187
H15 H 0.3366 0.5165 0.7476
N1 N 0.1572(13) 0.5139(10) 0.7711(5)
O1 O 0.1570(11) 0.8703(9) 0.8974(4)
O2 O 0.3443(9) 0.7939(7) 0.8823(4)
O3 O 0.4252(11) 1.0766(9) 0.6163(4)
O4 O 0.3082(10) 1.2215(9) 0.6521(5)
O5 O -0.0718(9) 0.9792(8) 0.9624(5)
O6 O -0.2304(10) 1.0167(9) 0.8984(5)
O7 O -0.1028(10) 1.5762(8) 0.9307(5)
O8 O 0.0842(10) 1.5331(8) 0.9746(5)
O9 O -0.0006(10) 0.7832(8) 1.0120(4)
O10 O -0.2505(10) 0.7695(8) 0.9780(5)
O11 O 0.1050(10) 0.6495(9) 0.8433(4)
Pb1 Pb 0.16818(5) 0.90000(4) 1.00750(2)
Pb2 Pb -0.07438(5) 0.76918(4) 0.91495(2)
Pb3 Pb -0.16718(5) 0.86771(4) 1.05460(2)
Pb4 Pb 0.08432(5) 0.64551(4) 1.07061(2)
O2B O -0.1557(9) 0.7061(7) 1.1177(4)
O3A O 0.0748(11) 0.9234(9) 1.1163(4)
O4A O 0.1918(10) 0.7785(9) 1.1521(5)
O6B O 0.2696(10) 0.4833(9) 1.1016(5)
O7_2 O -0.1028(10) 0.5762(8) 0.9307(5)
O7B O 0.3972(10) 0.9238(8) 1.0693(5)
O8_2 O 0.0842(10) 0.5331(8) 0.9746(5)
O10B O 0.2495(10) 0.7305(8) 1.0220(5)
Pb1A Pb 0.33182(5) 1.10000(4) 0.50750(2)
Pb1B Pb -0.33182(5) 0.60000(4) 0.99250(2)
Pb1B_2 Pb -0.33182(5) 1.60000(4) 0.99250(2)
Pb2_2 Pb -0.07438(5) 1.76918(4) 0.91495(2)
Pb3B Pb 0.33282(5) 0.63229(4) 0.94540(2)
Pb4_2 Pb 0.08432(5) 1.64551(4) 1.07061(2)
Pb4A Pb 0.41568(5) 1.35449(4) 0.57061(2)
Pb4B Pb -0.41568(5) 0.85449(4) 0.92939(2)
Pb4B_2 Pb 0.58432(5) 0.85449(4) 0.92939(2)
C20 C 0.8187(13) 0.3778(12) 0.0739(7)
H16 H 0.8116 0.3505 0.0333
H17 H 0.8660 0.4448 0.0738
H18 H 0.7375 0.3920 0.0898
C21 C 0.8423(16) 0.1828(11) 0.1127(6)
H19 H 0.8145 0.1458 0.0785
C22 C 0.9962(14) 0.3187(14) 0.1470(7)
H20 H 0.9742 0.3416 0.1871
H21 H 1.0413 0.3766 0.1273
H22 H 1.0470 0.2539 0.1491
N2 N 0.8824(11) 0.2940(11) 0.1123(6)
O12 O 0.8482(9) 0.1402(9) 0.1634(4)
loop_
_geom_bond_atom_site_label_1
_geom_bond_atom_site_label_2
_geom_bond_site_symmetry_1
_geom_bond_site_symmetry_2
C1 C2 1_555 1_555
C2 C3 1_555 1_555
C3 H1 1_555 1_555
C4 C3 1_555 1_555
H2 C4 1_555 1_555
C5 C4 1_555 1_555
C6 C5 1_555 1_555
H3 C6 1_555 1_555
C7 C2 1_555 1_555
H4 C7 1_555 1_555
C8 C5 1_555 1_555
C9 C10 1_555 1_555
C10 C11 1_555 1_555
C11 H5 1_555 1_555
C12 C11 1_555 1_555
H6 C12 1_555 1_555
C13 C12 1_555 1_555
C14 C13 1_555 1_555
H7 C14 1_555 1_555
C15 C10 1_555 1_555
H8 C15 1_555 1_555
C16 C13 1_555 1_555
C17 H9 1_555 1_555
C18 H10 1_555 1_555
H11 C18 1_555 1_555
H12 C18 1_555 1_555
C19 H13 1_555 1_555
H14 C19 1_555 1_555
H15 C19 1_555 1_555
N1 C17 1_555 1_555
O1 C1 1_555 1_555
O2 C1 1_555 1_555
O3 C8 1_555 1_555
O4 C8 1_555 1_555
O5 C9 1_555 1_555
O6 C9 1_555 1_555
O7 C16 1_555 1_555
O8 C16 1_555 1_555
O9 Pb1 1_555 1_555
O10 Pb2 1_555 1_555
O11 C17 1_555 1_555
Pb1 O1 1_555 1_555
Pb2 O1 1_555 1_555
Pb3 O5 1_555 1_555
Pb4 O9 1_555 1_555
C20 H16 1_555 1_555
H17 C20 1_555 1_555
H18 C20 1_555 1_555
C21 H19 1_555 1_555
C22 H20 1_555 1_555
H21 C22 1_555 1_555
H22 C22 1_555 1_555
N2 C20 1_555 1_555
O12 C21 1_555 1_555
O2B Pb3 1_555 1_555
O3A Pb1 1_555 1_555
O4A Pb4 1_555 1_555
O6B Pb4 1_555 1_555
O7_2 Pb2 1_555 1_555
O7B Pb1 1_555 1_555
O8_2 Pb4 1_555 1_555
O10B Pb1 1_555 1_555
Pb1A O3 1_555 1_555
Pb1B O10 1_555 1_555
Pb1B_2 O7 1_555 1_555
Pb2_2 O7 1_555 1_555
Pb3B O2 1_555 1_555
Pb4_2 O8 1_555 1_555
Pb4A O4 1_555 1_555
Pb4B O6 1_555 1_555
Pb4B_2 O2 1_555 1_555
C6 C7 1_555 1_555
C14 C15 1_555 1_555
C18 N1 1_555 1_555
C19 N1 1_555 1_555
O5 Pb2 1_555 1_555
O9 Pb2 1_555 1_555
O9 Pb3 1_555 1_555
O10 Pb3 1_555 1_555
O10 Pb4B 1_555 1_555
O11 Pb2 1_555 1_555
Pb4 O2B 1_555 1_555
Pb4 O10B 1_555 1_555
C21 N2 1_555 1_555
C22 N2 1_555 1_555
O7_2 Pb1B 1_555 1_555
O10B Pb3B 1_555 1_555

#END
