
#######################################################################
#
#                 Cambridge Crystallographic Data Centre
#                                CCDC 
#
#######################################################################
#
# If this CIF has been generated from an entry in the Cambridge 
# Structural Database, then it will include bibliographic, chemical, 
# crystal, experimental, refinement or atomic coordinate data resulting 
# from the CCDC's data processing and validation procedures.
#
#######################################################################

data_LONJOP
_symmetry_cell_setting           hexagonal
_symmetry_space_group_name_H-M   'P 63 2 2'
_symmetry_Int_Tables_number      182
_space_group_name_Hall           "P 6c 2'c"
loop_
_symmetry_equiv_pos_site_id
_symmetry_equiv_pos_as_xyz
1 x,y,z
2 -y,x-y,z
3 -x+y,-x,z
4 -x,-y,1/2+z
5 y,-x+y,1/2+z
6 x-y,x,1/2+z
7 y,x,-z
8 x-y,-y,-z
9 -x,-x+y,-z
10 -y,-x,1/2-z
11 -x+y,y,1/2-z
12 x,x-y,1/2-z
_cell_length_a                   21.420(3)
_cell_length_b                   21.420(3)
_cell_length_c                   14.320(3)
_cell_angle_alpha                90
_cell_angle_beta                 90
_cell_angle_gamma                120
_cell_volume                     5690
loop_
_atom_site_label
_atom_site_type_symbol
_atom_site_fract_x
_atom_site_fract_y
_atom_site_fract_z
Ag1 Ag 0.3333 0.6667 0.60124(8)
Ag2 Ag 0.27111(2) 0.72889(2) 0.7500
Ag3 Ag 0.0000 0.46927(7) 0.5000
C1 C 0.1597(2) 0.5861(2) 0.5421(3)
N1 N 0.0986(2) 0.5190(3) 0.5660(3)
C2 C 0.1178(3) 0.4899(3) 0.6426(4)
N2 N 0.1907(3) 0.5390(3) 0.6660(3)
N3 N 0.2166(2) 0.5985(3) 0.6039(3)
C3 C 0.1626(3) 0.6316(4) 0.4682(6)
C4 C 0.2242(6) 0.7100(4) 0.4800(10)
H1 H 0.2058 0.7423 0.4707
H2 H 0.2612 0.7201 0.4349
H3 H 0.2439 0.7164 0.5418
C5 C 0.0931(4) 0.6360(6) 0.4570(11)
H4 H 0.0604 0.6102 0.5070
H5 H 0.0707 0.6150 0.3983
H6 H 0.1050 0.6856 0.4586
C6 C 0.1686(6) 0.5975(6) 0.3767(7)
H7 H 0.2154 0.6274 0.3498
H8 H 0.1322 0.5932 0.3339
H9 H 0.1620 0.5506 0.3894
C7 C 0.0846(3) 0.4231(4) 0.6866(5)
C8 C 0.0757(6) 0.3632(5) 0.6183(7)
H10 H 0.0963 0.3842 0.5589
H11 H 0.0254 0.3289 0.6105
H12 H 0.0998 0.3392 0.6430
C9 C 0.0101(4) 0.4111(6) 0.7117(9)
H13 H 0.0111 0.4564 0.7108
H14 H -0.0031 0.3904 0.7730
H15 H -0.0246 0.3790 0.6671
C10 C 0.1206(5) 0.4116(7) 0.7737(7)
H16 H 0.1293 0.3724 0.7624
H17 H 0.0892 0.4005 0.8266
H18 H 0.1655 0.4547 0.7860
Ag2A Ag 0.27111(2) 0.54222(3) 0.7500
Ag3A Ag 0.53073(7) 0.53073(7) 0.5000
C1A C 0.4139(2) 0.5736(3) 0.5421(3)
N1A N 0.4810(3) 0.5796(4) 0.5660(3)
C2A C 0.5101(3) 0.6279(4) 0.6426(4)
N2A N 0.4610(3) 0.6517(4) 0.6660(3)
N3A N 0.4015(3) 0.6181(4) 0.6039(3)
C3A C 0.3684(4) 0.5310(5) 0.4682(6)
C4A C 0.2900(4) 0.5142(7) 0.4800(10)
H1A H 0.2577 0.4635 0.4707
H2A H 0.2799 0.5411 0.4349
H3A H 0.2836 0.5275 0.5418
C5A C 0.3640(6) 0.4571(7) 0.4570(11)
H4A H 0.3898 0.4502 0.5070
H5A H 0.3850 0.4557 0.3983
H6A H 0.3144 0.4194 0.4586
C6A C 0.4025(6) 0.5711(8) 0.3767(7)
H7A H 0.3726 0.5880 0.3498
H8A H 0.4068 0.5390 0.3339
H9A H 0.4494 0.6114 0.3894
C7A C 0.5769(4) 0.6615(5) 0.6866(5)
C8A C 0.6368(5) 0.7125(8) 0.6183(7)
H10A H 0.6158 0.7121 0.5589
H11A H 0.6711 0.6965 0.6105
H12A H 0.6608 0.7606 0.6430
C9A C 0.5889(6) 0.5990(7) 0.7117(9)
H13A H 0.5436 0.5547 0.7108
H14A H 0.6096 0.6065 0.7730
H15A H 0.6210 0.5964 0.6671
C10A C 0.5884(7) 0.7090(9) 0.7737(7)
H16A H 0.6276 0.7569 0.7624
H17A H 0.5995 0.6887 0.8266
H18A H 0.5453 0.7108 0.7860
Ag2B Ag 0.45778(3) 0.72889(2) 0.7500
Ag3B Ag 0.46927(7) 1.0000 0.5000
C1B C 0.4264(3) 0.8403(2) 0.5421(3)
N1B N 0.4204(4) 0.9014(2) 0.5660(3)
C2B C 0.3721(4) 0.8822(3) 0.6426(4)
N2B N 0.3483(4) 0.8093(3) 0.6660(3)
N3B N 0.3819(4) 0.7834(2) 0.6039(3)
C3B C 0.4690(5) 0.8374(3) 0.4682(6)
C4B C 0.4858(7) 0.7758(6) 0.4800(10)
H1B H 0.5365 0.7942 0.4707
H2B H 0.4589 0.7388 0.4349
H3B H 0.4725 0.7561 0.5418
C5B C 0.5429(7) 0.9069(4) 0.4570(11)
H4B H 0.5498 0.9396 0.5070
H5B H 0.5443 0.9293 0.3983
H6B H 0.5806 0.8950 0.4586
C6B C 0.4289(8) 0.8314(6) 0.3767(7)
H7B H 0.4120 0.7846 0.3498
H8B H 0.4610 0.8678 0.3339
H9B H 0.3886 0.8380 0.3894
C7B C 0.3385(5) 0.9154(3) 0.6866(5)
C8B C 0.2875(8) 0.9243(6) 0.6183(7)
H10B H 0.2879 0.9037 0.5589
H11B H 0.3035 0.9746 0.6105
H12B H 0.2394 0.9002 0.6430
C9B C 0.4010(7) 0.9899(4) 0.7117(9)
H13B H 0.4453 0.9889 0.7108
H14B H 0.3935 1.0031 0.7730
H15B H 0.4036 1.0246 0.6671
C10B C 0.2910(9) 0.8794(5) 0.7737(7)
H16B H 0.2431 0.8707 0.7624
H17B H 0.3113 0.9108 0.8266
H18B H 0.2892 0.8345 0.7860
Ag1I Ag 0.3333 0.6667 0.89876(8)
C1I C 0.4139(2) 0.8403(2) 0.9579(3)
N1I N 0.4810(3) 0.9014(2) 0.9340(3)
C2I C 0.5101(3) 0.8822(3) 0.8574(4)
N2I N 0.4610(3) 0.8093(3) 0.8340(3)
N3I N 0.4015(3) 0.7834(2) 0.8961(3)
C3I C 0.3684(4) 0.8374(3) 1.0318(6)
C4I C 0.2900(4) 0.7758(6) 1.0200(10)
H1I H 0.2577 0.7942 1.0293
H2I H 0.2799 0.7388 1.0651
H3I H 0.2836 0.7561 0.9582
C5I C 0.3640(6) 0.9069(4) 1.0430(11)
H4I H 0.3898 0.9396 0.9930
H5I H 0.3850 0.9293 1.1017
H6I H 0.3144 0.8950 1.0414
C6I C 0.4025(6) 0.8314(6) 1.1233(7)
H7I H 0.3726 0.7846 1.1502
H8I H 0.4068 0.8678 1.1661
H9I H 0.4494 0.8380 1.1106
C7I C 0.5769(4) 0.9154(3) 0.8134(5)
C8I C 0.6368(5) 0.9243(6) 0.8817(7)
H10I H 0.6158 0.9037 0.9411
H11I H 0.6711 0.9746 0.8895
H12I H 0.6608 0.9002 0.8570
C9I C 0.5889(6) 0.9899(4) 0.7883(9)
H13I H 0.5436 0.9889 0.7892
H14I H 0.6096 1.0031 0.7270
H15I H 0.6210 1.0246 0.8329
C10I C 0.5884(7) 0.8794(5) 0.7263(7)
H16I H 0.6276 0.8707 0.7376
H17I H 0.5995 0.9108 0.6734
H18I H 0.5453 0.8345 0.7140
C1J C 0.4264(3) 0.5861(2) 0.9579(3)
N1J N 0.4204(4) 0.5190(3) 0.9340(3)
C2J C 0.3721(4) 0.4899(3) 0.8574(4)
N2J N 0.3483(4) 0.5390(3) 0.8340(3)
N3J N 0.3819(4) 0.5985(3) 0.8961(3)
C3J C 0.4690(5) 0.6316(4) 1.0318(6)
C4J C 0.4858(7) 0.7100(4) 1.0200(10)
H1J H 0.5365 0.7423 1.0293
H2J H 0.4589 0.7201 1.0651
H3J H 0.4725 0.7164 0.9582
C5J C 0.5429(7) 0.6360(6) 1.0430(11)
H4J H 0.5498 0.6102 0.9930
H5J H 0.5443 0.6150 1.1017
H6J H 0.5806 0.6856 1.0414
C6J C 0.4289(8) 0.5975(6) 1.1233(7)
H7J H 0.4120 0.6274 1.1502
H8J H 0.4610 0.5932 1.1661
H9J H 0.3886 0.5506 1.1106
C7J C 0.3385(5) 0.4231(4) 0.8134(5)
C8J C 0.2875(8) 0.3632(5) 0.8817(7)
H10J H 0.2879 0.3842 0.9411
H11J H 0.3035 0.3289 0.8895
H12J H 0.2394 0.3392 0.8570
C9J C 0.4010(7) 0.4111(6) 0.7883(9)
H13J H 0.4453 0.4564 0.7892
H14J H 0.3935 0.3904 0.7270
H15J H 0.4036 0.3790 0.8329
C10J C 0.2910(9) 0.4116(7) 0.7263(7)
H16J H 0.2431 0.3724 0.7376
H17J H 0.3113 0.4005 0.6734
H18J H 0.2892 0.4547 0.7140
C1K C 0.1597(2) 0.5736(3) 0.9579(3)
N1K N 0.0986(2) 0.5796(4) 0.9340(3)
C2K C 0.1178(3) 0.6279(4) 0.8574(4)
N2K N 0.1907(3) 0.6517(4) 0.8340(3)
N3K N 0.2166(2) 0.6181(4) 0.8961(3)
C3K C 0.1626(3) 0.5310(5) 1.0318(6)
C4K C 0.2242(6) 0.5142(7) 1.0200(10)
H1K H 0.2058 0.4635 1.0293
H2K H 0.2612 0.5411 1.0651
H3K H 0.2439 0.5275 0.9582
C5K C 0.0931(4) 0.4571(7) 1.0430(11)
H4K H 0.0604 0.4502 0.9930
H5K H 0.0707 0.4557 1.1017
H6K H 0.1050 0.4194 1.0414
C6K C 0.1686(6) 0.5711(8) 1.1233(7)
H7K H 0.2154 0.5880 1.1502
H8K H 0.1322 0.5390 1.1661
H9K H 0.1620 0.6114 1.1106
C7K C 0.0846(3) 0.6615(5) 0.8134(5)
C8K C 0.0757(6) 0.7125(8) 0.8817(7)
H10K H 0.0963 0.7121 0.9411
H11K H 0.0254 0.6965 0.8895
H12K H 0.0998 0.7606 0.8570
C9K C 0.0101(4) 0.5990(7) 0.7883(9)
H13K H 0.0111 0.5547 0.7892
H14K H -0.0031 0.6065 0.7270
H15K H -0.0246 0.5964 0.8329
C10K C 0.1206(5) 0.7090(9) 0.7263(7)
H16K H 0.1293 0.7569 0.7376
H17K H 0.0892 0.6887 0.6734
H18K H 0.1655 0.7108 0.7140
Ag3C Ag 0.0000 0.53073(7) 1.0000
Ag3D Ag 0.46927(7) 0.46927(7) 1.0000
Ag3E Ag 0.53073(7) 1.0000 1.0000
N1F N 0.5190(3) 1.0986(2) 0.4340(3)
N1G N 0.5796(4) 0.4810(3) 0.4340(3)
N1H N -0.0986(2) 0.4204(4) 0.4340(3)
loop_
_geom_bond_atom_site_label_1
_geom_bond_atom_site_label_2
_geom_bond_site_symmetry_1
_geom_bond_site_symmetry_2
Ag1 Ag2 1_555 1_555
Ag2 N2B 1_555 1_555
Ag3 N1 1_555 1_555
C1 N1 1_555 1_555
N1 C2 1_555 1_555
C2 N2 1_555 1_555
N2 N3 1_555 1_555
N3 Ag1 1_555 1_555
C3 C1 1_555 1_555
C4 C3 1_555 1_555
H1 C4 1_555 1_555
H2 C4 1_555 1_555
H3 C4 1_555 1_555
C5 C3 1_555 1_555
H4 C5 1_555 1_555
H5 C5 1_555 1_555
H6 C5 1_555 1_555
C6 C3 1_555 1_555
H7 C6 1_555 1_555
H8 C6 1_555 1_555
H9 C6 1_555 1_555
C7 C2 1_555 1_555
C8 C7 1_555 1_555
H10 C8 1_555 1_555
H11 C8 1_555 1_555
H12 C8 1_555 1_555
C9 C7 1_555 1_555
H13 C9 1_555 1_555
H14 C9 1_555 1_555
H15 C9 1_555 1_555
C10 C7 1_555 1_555
H16 C10 1_555 1_555
H17 C10 1_555 1_555
H18 C10 1_555 1_555
Ag2A Ag1 1_555 1_555
Ag3A N1A 1_555 1_555
C1A N1A 1_555 1_555
N1A C2A 1_555 1_555
C2A N2A 1_555 1_555
N2A N3A 1_555 1_555
N3A Ag1 1_555 1_555
C3A C1A 1_555 1_555
C4A C3A 1_555 1_555
H1A C4A 1_555 1_555
H2A C4A 1_555 1_555
H3A C4A 1_555 1_555
C5A C3A 1_555 1_555
H4A C5A 1_555 1_555
H5A C5A 1_555 1_555
H6A C5A 1_555 1_555
C6A C3A 1_555 1_555
H7A C6A 1_555 1_555
H8A C6A 1_555 1_555
H9A C6A 1_555 1_555
C7A C2A 1_555 1_555
C8A C7A 1_555 1_555
H10A C8A 1_555 1_555
H11A C8A 1_555 1_555
H12A C8A 1_555 1_555
C9A C7A 1_555 1_555
H13A C9A 1_555 1_555
H14A C9A 1_555 1_555
H15A C9A 1_555 1_555
C10A C7A 1_555 1_555
H16A C10A 1_555 1_555
H17A C10A 1_555 1_555
H18A C10A 1_555 1_555
Ag2B Ag1 1_555 1_555
Ag3B N1B 1_555 1_555
C1B N1B 1_555 1_555
N1B C2B 1_555 1_555
C2B N2B 1_555 1_555
N2B N3B 1_555 1_555
N3B Ag1 1_555 1_555
C3B C1B 1_555 1_555
C4B C3B 1_555 1_555
H1B C4B 1_555 1_555
H2B C4B 1_555 1_555
H3B C4B 1_555 1_555
C5B C3B 1_555 1_555
H4B C5B 1_555 1_555
H5B C5B 1_555 1_555
H6B C5B 1_555 1_555
C6B C3B 1_555 1_555
H7B C6B 1_555 1_555
H8B C6B 1_555 1_555
H9B C6B 1_555 1_555
C7B C2B 1_555 1_555
C8B C7B 1_555 1_555
H10B C8B 1_555 1_555
H11B C8B 1_555 1_555
H12B C8B 1_555 1_555
C9B C7B 1_555 1_555
H13B C9B 1_555 1_555
H14B C9B 1_555 1_555
H15B C9B 1_555 1_555
C10B C7B 1_555 1_555
H16B C10B 1_555 1_555
H17B C10B 1_555 1_555
H18B C10B 1_555 1_555
Ag1I Ag2 1_555 1_555
C1I N1I 1_555 1_555
N1I C2I 1_555 1_555
C2I N2I 1_555 1_555
N2I Ag2B 1_555 1_555
N3I Ag1I 1_555 1_555
C3I C1I 1_555 1_555
C4I C3I 1_555 1_555
H1I C4I 1_555 1_555
H2I C4I 1_555 1_555
H3I C4I 1_555 1_555
C5I C3I 1_555 1_555
H4I C5I 1_555 1_555
H5I C5I 1_555 1_555
H6I C5I 1_555 1_555
C6I C3I 1_555 1_555
H7I C6I 1_555 1_555
H8I C6I 1_555 1_555
H9I C6I 1_555 1_555
C7I C2I 1_555 1_555
C8I C7I 1_555 1_555
H10I C8I 1_555 1_555
H11I C8I 1_555 1_555
H12I C8I 1_555 1_555
C9I C7I 1_555 1_555
H13I C9I 1_555 1_555
H14I C9I 1_555 1_555
H15I C9I 1_555 1_555
C10I C7I 1_555 1_555
H16I C10I 1_555 1_555
H17I C10I 1_555 1_555
H18I C10I 1_555 1_555
C1J N1J 1_555 1_555
N1J C2J 1_555 1_555
C2J N2J 1_555 1_555
N2J Ag2A 1_555 1_555
N3J Ag1I 1_555 1_555
C3J C1J 1_555 1_555
C4J C3J 1_555 1_555
H1J C4J 1_555 1_555
H2J C4J 1_555 1_555
H3J C4J 1_555 1_555
C5J C3J 1_555 1_555
H4J C5J 1_555 1_555
H5J C5J 1_555 1_555
H6J C5J 1_555 1_555
C6J C3J 1_555 1_555
H7J C6J 1_555 1_555
H8J C6J 1_555 1_555
H9J C6J 1_555 1_555
C7J C2J 1_555 1_555
C8J C7J 1_555 1_555
H10J C8J 1_555 1_555
H11J C8J 1_555 1_555
H12J C8J 1_555 1_555
C9J C7J 1_555 1_555
H13J C9J 1_555 1_555
H14J C9J 1_555 1_555
H15J C9J 1_555 1_555
C10J C7J 1_555 1_555
H16J C10J 1_555 1_555
H17J C10J 1_555 1_555
H18J C10J 1_555 1_555
C1K N1K 1_555 1_555
N1K C2K 1_555 1_555
C2K N2K 1_555 1_555
N2K Ag2 1_555 1_555
N3K Ag1I 1_555 1_555
C3K C1K 1_555 1_555
C4K C3K 1_555 1_555
H1K C4K 1_555 1_555
H2K C4K 1_555 1_555
H3K C4K 1_555 1_555
C5K C3K 1_555 1_555
H4K C5K 1_555 1_555
H5K C5K 1_555 1_555
H6K C5K 1_555 1_555
C6K C3K 1_555 1_555
H7K C6K 1_555 1_555
H8K C6K 1_555 1_555
H9K C6K 1_555 1_555
C7K C2K 1_555 1_555
C8K C7K 1_555 1_555
H10K C8K 1_555 1_555
H11K C8K 1_555 1_555
H12K C8K 1_555 1_555
C9K C7K 1_555 1_555
H13K C9K 1_555 1_555
H14K C9K 1_555 1_555
H15K C9K 1_555 1_555
C10K C7K 1_555 1_555
H16K C10K 1_555 1_555
H17K C10K 1_555 1_555
H18K C10K 1_555 1_555
Ag3C N1K 1_555 1_555
Ag3D N1J 1_555 1_555
Ag3E N1I 1_555 1_555
N1F Ag3B 1_555 1_555
N1G Ag3A 1_555 1_555
N1H Ag3 1_555 1_555
C1 N3 1_555 1_555
N2 Ag2A 1_555 1_555
Ag2A Ag1I 1_555 1_555
C1A N3A 1_555 1_555
N2A Ag2B 1_555 1_555
Ag2B Ag1I 1_555 1_555
C1B N3B 1_555 1_555
C1I N3I 1_555 1_555
N2I N3I 1_555 1_555
C1J N3J 1_555 1_555
N2J N3J 1_555 1_555
C1K N3K 1_555 1_555
N2K N3K 1_555 1_555

#END
