
#######################################################################
#
#                 Cambridge Crystallographic Data Centre
#                                CCDC 
#
#######################################################################
#
# If this CIF has been generated from an entry in the Cambridge 
# Structural Database, then it will include bibliographic, chemical, 
# crystal, experimental, refinement or atomic coordinate data resulting 
# from the CCDC's data processing and validation procedures.
#
#######################################################################

data_LONKUU
_symmetry_cell_setting           triclinic
_symmetry_space_group_name_H-M   'P -1'
_symmetry_Int_Tables_number      2
_space_group_name_Hall           '-P 1'
loop_
_symmetry_equiv_pos_site_id
_symmetry_equiv_pos_as_xyz
1 x,y,z
2 -x,-y,-z
_cell_length_a                   9.2630(2)
_cell_length_b                   9.7394(1)
_cell_length_c                   13.2724(1)
_cell_angle_alpha                104.76(1)
_cell_angle_beta                 108.86(1)
_cell_angle_gamma                93.092(1)
_cell_volume                     1083.49
loop_
_atom_site_label
_atom_site_type_symbol
_atom_site_fract_x
_atom_site_fract_y
_atom_site_fract_z
Ag1 Ag 0.54593(4) 0.48292(3) 0.39400(3)
I1 I 0.28994(3) 0.61590(3) 0.41598(2)
P1 P 0.50309(10) 0.28255(9) 0.22733(8)
N1 N 0.7274(3) 0.6890(3) 0.4302(3)
C1 C 0.6846(4) 0.8081(4) 0.4066(4)
H1 H 0.5802 0.8084 0.3707
C2 C 0.7857(4) 0.9318(4) 0.4322(4)
H2 H 0.7490 1.0126 0.4142
C3 C 0.9427(4) 0.9348(3) 0.4851(3)
C4 C 0.9856(4) 0.8098(4) 0.5088(4)
H3 H 1.0891 0.8050 0.5438
C5 C 0.8761(5) 0.6922(4) 0.4808(4)
H4 H 0.9090 0.6101 0.4987
C6 C 0.6835(4) 0.2250(4) 0.2182(3)
C7 C 0.7073(4) 0.0830(4) 0.1902(3)
H5 H 0.6278 0.0099 0.1752
C8 C 0.8480(5) 0.0488(5) 0.1842(4)
H6 H 0.8629 -0.0468 0.1655
C9 C 0.9654(5) 0.1561(6) 0.2060(4)
H7 H 1.0596 0.1329 0.2015
C10 C 0.9452(5) 0.2965(5) 0.2341(4)
H8 H 1.0253 0.3685 0.2480
C11 C 0.8057(5) 0.3325(4) 0.2421(4)
H9 H 0.7935 0.4286 0.2635
C12 C 0.3877(4) 0.1177(4) 0.2159(3)
C13 C 0.3885(5) 0.0880(4) 0.3127(3)
H10 H 0.4422 0.1540 0.3814
C14 C 0.3090(5) -0.0403(5) 0.3074(4)
H11 H 0.3117 -0.0606 0.3727
C15 C 0.2265(5) -0.1374(5) 0.2065(4)
H12 H 0.1730 -0.2228 0.2036
C16 C 0.2231(6) -0.1083(5) 0.1107(4)
H13 H 0.1665 -0.1736 0.0423
C17 C 0.3042(5) 0.0188(4) 0.1147(3)
H14 H 0.3023 0.0374 0.0490
C18 C 0.4089(4) 0.3167(4) 0.0937(3)
C19 C 0.4664(6) 0.2885(5) 0.0080(4)
H15 H 0.5587 0.2513 0.0170
C20 C 0.3876(8) 0.3153(6) -0.0913(4)
H16 H 0.4287 0.2983 -0.1478
C21 C 0.2514(9) 0.3657(6) -0.1070(5)
H17 H 0.1975 0.3803 -0.1750
C22 C 0.1932(8) 0.3954(8) -0.0226(6)
H18 H 0.0998 0.4308 -0.0333
C23 C 0.2723(6) 0.3732(6) 0.0784(5)
H19 H 0.2336 0.3964 0.1362
Ag1A Ag 0.45407(4) 0.51708(3) 0.60600(3)
I1A I 0.71006(3) 0.38410(3) 0.58402(2)
C3A C 1.0573(4) 1.0652(3) 0.5149(3)
C2A C 1.2143(4) 1.0682(4) 0.5678(4)
C1A C 1.3154(4) 1.1919(4) 0.5934(4)
N1A N 1.2726(3) 1.3110(3) 0.5698(3)
Ag1A_2 Ag 1.45407(4) 1.51708(3) 0.60600(3)
C5A C 1.1239(5) 1.3078(4) 0.5192(4)
C4A C 1.0144(4) 1.1902(4) 0.4912(4)
H3A H 0.9109 1.1950 0.4562
H4A H 1.0910 1.3899 0.5013
H1A H 1.4198 1.1916 0.6293
H2A H 1.2510 0.9874 0.5858
P1A P 0.49691(10) 0.71745(9) 0.77267(8)
N1A_2 N 0.2726(3) 0.3110(3) 0.5698(3)
C6A C 0.3165(4) 0.7750(4) 0.7818(3)
C12A C 0.6123(4) 0.8823(4) 0.7841(3)
C18A C 0.5911(4) 0.6833(4) 0.9063(3)
C7A C 0.2927(4) 0.9170(4) 0.8098(3)
C11A C 0.1943(5) 0.6675(4) 0.7579(4)
C13A C 0.6115(5) 0.9120(4) 0.6873(3)
C17A C 0.6958(5) 0.9812(4) 0.8853(3)
C19A C 0.5336(6) 0.7115(5) 0.9920(4)
C23A C 0.7277(6) 0.6268(6) 0.9216(5)
H5A H 0.3722 0.9901 0.8248
C8A C 0.1520(5) 0.9512(5) 0.8158(4)
C10A C 0.0548(5) 0.7035(5) 0.7659(4)
H9A H 0.2065 0.5714 0.7365
H10A H 0.5578 0.8460 0.6186
C14A C 0.6910(5) 1.0403(5) 0.6926(4)
C16A C 0.7769(6) 1.1083(5) 0.8893(4)
H14A H 0.6977 0.9626 0.9510
H15A H 0.4413 0.7487 0.9830
C20A C 0.6124(8) 0.6847(6) 1.0913(4)
C22A C 0.8068(8) 0.6046(8) 1.0226(6)
H19A H 0.7664 0.6036 0.8638
H6A H 0.1371 1.0468 0.8345
C9A C 0.0346(5) 0.8439(6) 0.7940(4)
H8A H -0.0253 0.6315 0.7520
H11A H 0.6883 1.0606 0.6273
C15A C 0.7735(5) 1.1374(5) 0.7935(4)
H13A H 0.8335 1.1736 0.9577
H16A H 0.5713 0.7017 1.1478
C21A C 0.7486(9) 0.6343(6) 1.1070(5)
H18A H 0.9002 0.5692 1.0333
H7A H -0.0596 0.8671 0.7985
H12A H 0.8270 1.2228 0.7964
H17A H 0.8025 0.6197 1.1750
loop_
_geom_bond_atom_site_label_1
_geom_bond_atom_site_label_2
_geom_bond_site_symmetry_1
_geom_bond_site_symmetry_2
Ag1 I1 1_555 1_555
I1 Ag1A 1_555 1_555
P1 Ag1 1_555 1_555
N1 Ag1 1_555 1_555
C1 N1 1_555 1_555
H1 C1 1_555 1_555
C2 C1 1_555 1_555
H2 C2 1_555 1_555
C3 C2 1_555 1_555
C4 C3 1_555 1_555
H3 C4 1_555 1_555
C5 N1 1_555 1_555
H4 C5 1_555 1_555
C6 P1 1_555 1_555
C7 C6 1_555 1_555
H5 C7 1_555 1_555
C8 C7 1_555 1_555
H6 C8 1_555 1_555
C9 C8 1_555 1_555
H7 C9 1_555 1_555
C10 C9 1_555 1_555
H8 C10 1_555 1_555
C11 C6 1_555 1_555
H9 C11 1_555 1_555
C12 P1 1_555 1_555
C13 C12 1_555 1_555
H10 C13 1_555 1_555
C14 C13 1_555 1_555
H11 C14 1_555 1_555
C15 C14 1_555 1_555
H12 C15 1_555 1_555
C16 C15 1_555 1_555
H13 C16 1_555 1_555
C17 C12 1_555 1_555
H14 C17 1_555 1_555
C18 P1 1_555 1_555
C19 C18 1_555 1_555
H15 C19 1_555 1_555
C20 C19 1_555 1_555
H16 C20 1_555 1_555
C21 C20 1_555 1_555
H17 C21 1_555 1_555
C22 C21 1_555 1_555
H18 C22 1_555 1_555
C23 C18 1_555 1_555
H19 C23 1_555 1_555
Ag1A I1A 1_555 1_555
I1A Ag1 1_555 1_555
C3A C3 1_555 1_555
C2A C3A 1_555 1_555
C1A C2A 1_555 1_555
N1A C1A 1_555 1_555
Ag1A_2 N1A 1_555 1_555
C5A N1A 1_555 1_555
C4A C3A 1_555 1_555
H3A C4A 1_555 1_555
H4A C5A 1_555 1_555
H1A C1A 1_555 1_555
H2A C2A 1_555 1_555
P1A Ag1A 1_555 1_555
N1A_2 Ag1A 1_555 1_555
C6A P1A 1_555 1_555
C12A P1A 1_555 1_555
C18A P1A 1_555 1_555
C7A C6A 1_555 1_555
C11A C6A 1_555 1_555
C13A C12A 1_555 1_555
C17A C12A 1_555 1_555
C19A C18A 1_555 1_555
C23A C18A 1_555 1_555
H5A C7A 1_555 1_555
C8A C7A 1_555 1_555
C10A C11A 1_555 1_555
H9A C11A 1_555 1_555
H10A C13A 1_555 1_555
C14A C13A 1_555 1_555
C16A C17A 1_555 1_555
H14A C17A 1_555 1_555
H15A C19A 1_555 1_555
C20A C19A 1_555 1_555
C22A C23A 1_555 1_555
H19A C23A 1_555 1_555
H6A C8A 1_555 1_555
C9A C8A 1_555 1_555
H8A C10A 1_555 1_555
H11A C14A 1_555 1_555
C15A C14A 1_555 1_555
H13A C16A 1_555 1_555
H16A C20A 1_555 1_555
C21A C20A 1_555 1_555
H18A C22A 1_555 1_555
H7A C9A 1_555 1_555
H12A C15A 1_555 1_555
H17A C21A 1_555 1_555
C4 C5 1_555 1_555
C10 C11 1_555 1_555
C16 C17 1_555 1_555
C22 C23 1_555 1_555
C5A C4A 1_555 1_555
C10A C9A 1_555 1_555
C16A C15A 1_555 1_555
C22A C21A 1_555 1_555

#END
