
#######################################################################
#
#                 Cambridge Crystallographic Data Centre
#                                CCDC 
#
#######################################################################
#
# If this CIF has been generated from an entry in the Cambridge 
# Structural Database, then it will include bibliographic, chemical, 
# crystal, experimental, refinement or atomic coordinate data resulting 
# from the CCDC's data processing and validation procedures.
#
#######################################################################

data_LONLEF
_symmetry_cell_setting           monoclinic
_symmetry_space_group_name_H-M   'P 21/c'
_symmetry_Int_Tables_number      14
_space_group_name_Hall           '-P 2ybc'
loop_
_symmetry_equiv_pos_site_id
_symmetry_equiv_pos_as_xyz
1 x,y,z
2 x,1/2-y,1/2+z
3 -x,-y,-z
4 -x,1/2+y,1/2-z
_cell_length_a                   11.4925(1)
_cell_length_b                   18.4604(2)
_cell_length_c                   14.2642(2)
_cell_angle_alpha                90
_cell_angle_beta                 101.977(1)
_cell_angle_gamma                90
_cell_volume                     2960.36
loop_
_atom_site_label
_atom_site_type_symbol
_atom_site_fract_x
_atom_site_fract_y
_atom_site_fract_z
Ag1 Ag 0.21782(4) 0.48686(3) 0.35124(4)
Ag2 Ag 0.09570(4) 0.49688(3) 0.13369(4)
N1 N 0.0309(4) 0.4883(3) 0.3692(4)
C1 C -0.0296(6) 0.5480(4) 0.3671(6)
H1 H 0.0094 0.5912 0.3603
C2 C -0.1471(6) 0.5520(3) 0.3742(6)
H2 H -0.1843 0.5968 0.3732
C3 C -0.2092(5) 0.4897(3) 0.3828(4)
C4 C -0.1456(6) 0.4271(4) 0.3875(6)
H3 H -0.1822 0.3832 0.3952
C5 C -0.0276(6) 0.4281(3) 0.3810(6)
H4 H 0.0131 0.3843 0.3852
C6 C -0.5270(5) 0.5510(3) 0.3671(5)
H5 H -0.5692 0.5943 0.3585
C7 C -0.4056(5) 0.5537(3) 0.3717(4)
H6 H -0.3686 0.5979 0.3667
C8 C -0.3394(5) 0.4906(3) 0.3836(4)
C9 C -0.4005(5) 0.4283(3) 0.3935(5)
H7 H -0.3597 0.3845 0.4035
C10 C -0.5211(5) 0.4295(3) 0.3891(5)
H8 H -0.5592 0.3861 0.3967
N2 N -0.5869(4) 0.4903(2) 0.3742(3)
N3 N -0.0992(4) 0.4948(2) 0.1186(4)
C11 C -0.1589(5) 0.4343(4) 0.1223(5)
H9 H -0.1176 0.3908 0.1244
C12 C -0.2784(5) 0.4311(3) 0.1233(5)
H10 H -0.3160 0.3866 0.1248
C13 C -0.3424(5) 0.4953(3) 0.1220(4)
C14 C -0.2800(5) 0.5585(3) 0.1176(5)
H11 H -0.3187 0.6029 0.1157
C15 C -0.1607(5) 0.5562(3) 0.1159(6)
H12 H -0.1210 0.5997 0.1128
C16 C -0.6560(5) 0.5567(3) 0.1189(4)
H13 H -0.6970 0.6004 0.1149
C17 C -0.5376(5) 0.5578(3) 0.1167(4)
H14 H -0.5011 0.6020 0.1101
C18 C -0.4711(5) 0.4952(3) 0.1240(4)
C19 C -0.5331(5) 0.4320(3) 0.1326(5)
H15 H -0.4936 0.3877 0.1377
C20 C -0.6522(5) 0.4339(3) 0.1336(5)
H16 H -0.6908 0.3904 0.1395
N4 N -0.7156(4) 0.4953(2) 0.1266(4)
C21 C 0.1462(5) 0.3191(3) 0.2429(5)
C22 C 0.1169(7) 0.2383(3) 0.2398(5)
H17 H 0.0611 0.2274 0.1816
H18 H 0.0829 0.2259 0.2937
H19 H 0.1884 0.2108 0.2423
O1 O 0.2183(4) 0.3422(2) 0.3147(3)
O2 O 0.0980(4) 0.3563(2) 0.1716(4)
C23 C 0.1649(5) 0.6622(3) 0.2252(5)
C24 C 0.2145(8) 0.7383(4) 0.2214(6)
H20 H 0.2623 0.7506 0.2829
H21 H 0.1500 0.7722 0.2052
H22 H 0.2625 0.7402 0.1738
O3 O 0.1951(4) 0.6283(2) 0.3033(4)
O4 O 0.1004(4) 0.6376(2) 0.1507(4)
N2_2 N 0.4131(4) 0.4903(2) 0.3742(3)
N4_2 N 0.2844(4) 0.4953(2) 0.1266(4)
Ag1_2 Ag -0.78218(4) 0.48686(3) 0.35124(4)
Ag2_2 Ag -0.90430(4) 0.49688(3) 0.13369(4)
O5 O 0.2114(5) 0.2918(4) 0.4996(4)
H23 H 0.2241 0.3024 0.4480
H24 H 0.1526 0.2673 0.4849
O6 O -0.0051(5) 0.2191(3) 0.5062(4)
H25 H 0.0270 0.1915 0.5462
H26 H -0.0290 0.1936 0.4604
O7 O 0.4222(6) 0.2593(4) 0.6313(4)
H27 H 0.468(5) 0.245(5) 0.600(4)
H28 H 0.360(3) 0.257(5) 0.594(4)
O8 O 0.5718(5) 0.2245(3) 0.5071(4)
H29 H 0.629(4) 0.248(4) 0.503(5)
H30 H 0.533(6) 0.227(5) 0.454(2)
O9 O 0.7867(5) 0.2943(3) 0.5293(4)
H31 H 0.842(5) 0.267(4) 0.536(5)
H32 H 0.794(7) 0.312(4) 0.581(3)
O10 O 0.4223(5) 0.2403(3) 0.3256(5)
H33 H 0.367(4) 0.265(3) 0.330(6)
H34 H 0.469(5) 0.269(3) 0.314(7)
loop_
_geom_bond_atom_site_label_1
_geom_bond_atom_site_label_2
_geom_bond_site_symmetry_1
_geom_bond_site_symmetry_2
Ag1 N1 1_555 1_555
Ag2 N3 1_555 1_555
N1 C1 1_555 1_555
C1 H1 1_555 1_555
C2 C1 1_555 1_555
H2 C2 1_555 1_555
C3 C2 1_555 1_555
C4 C3 1_555 1_555
H3 C4 1_555 1_555
C5 N1 1_555 1_555
H4 C5 1_555 1_555
C6 H5 1_555 1_555
C7 C6 1_555 1_555
H6 C7 1_555 1_555
C8 C3 1_555 1_555
C9 C8 1_555 1_555
H7 C9 1_555 1_555
C10 C9 1_555 1_555
H8 C10 1_555 1_555
N2 C6 1_555 1_555
N3 C11 1_555 1_555
C11 H9 1_555 1_555
C12 C11 1_555 1_555
H10 C12 1_555 1_555
C13 C12 1_555 1_555
C14 C13 1_555 1_555
H11 C14 1_555 1_555
C15 N3 1_555 1_555
H12 C15 1_555 1_555
C16 H13 1_555 1_555
C17 C16 1_555 1_555
H14 C17 1_555 1_555
C18 C13 1_555 1_555
C19 C18 1_555 1_555
H15 C19 1_555 1_555
C20 C19 1_555 1_555
H16 C20 1_555 1_555
N4 C16 1_555 1_555
C21 C22 1_555 1_555
C22 H17 1_555 1_555
H18 C22 1_555 1_555
H19 C22 1_555 1_555
O1 Ag1 1_555 1_555
O2 Ag2 1_555 1_555
C23 C24 1_555 1_555
C24 H20 1_555 1_555
H21 C24 1_555 1_555
H22 C24 1_555 1_555
O3 Ag1 1_555 1_555
O4 Ag2 1_555 1_555
O5 H23 1_555 1_555
H24 O5 1_555 1_555
O6 H25 1_555 1_555
H26 O6 1_555 1_555
O7 H27 1_555 1_555
H28 O7 1_555 1_555
O8 H29 1_555 1_555
H30 O8 1_555 1_555
O9 H31 1_555 1_555
H32 O9 1_555 1_555
O10 H33 1_555 1_555
H34 O10 1_555 1_555
N2_2 Ag1 1_555 1_555
N4_2 Ag2 1_555 1_555
Ag1_2 N2 1_555 1_555
Ag2_2 N4 1_555 1_555
C4 C5 1_555 1_555
C7 C8 1_555 1_555
C10 N2 1_555 1_555
C14 C15 1_555 1_555
C17 C18 1_555 1_555
C20 N4 1_555 1_555
C21 O1 1_555 1_555
C21 O2 1_555 1_555
C23 O3 1_555 1_555
C23 O4 1_555 1_555

#END
