
#######################################################################
#
#                 Cambridge Crystallographic Data Centre
#                                CCDC 
#
#######################################################################
#
# If this CIF has been generated from an entry in the Cambridge 
# Structural Database, then it will include bibliographic, chemical, 
# crystal, experimental, refinement or atomic coordinate data resulting 
# from the CCDC's data processing and validation procedures.
#
#######################################################################

data_LONLOR
_symmetry_cell_setting           monoclinic
_symmetry_space_group_name_H-M   'P 21/c'
_symmetry_Int_Tables_number      14
_space_group_name_Hall           '-P 2ybc'
loop_
_symmetry_equiv_pos_site_id
_symmetry_equiv_pos_as_xyz
1 x,y,z
2 -x,1/2+y,1/2-z
3 -x,-y,-z
4 x,1/2-y,1/2+z
_cell_length_a                   15.185(3)
_cell_length_b                   7.5341(16)
_cell_length_c                   19.632(3)
_cell_angle_alpha                90
_cell_angle_beta                 126.563(10)
_cell_angle_gamma                90
_cell_volume                     1804
loop_
_atom_site_label
_atom_site_type_symbol
_atom_site_fract_x
_atom_site_fract_y
_atom_site_fract_z
Zn1 Zn 0.47448(3) 0.08466(6) 0.28321(2)
C1 C -0.1062(3) 0.3693(5) 0.0234(2)
C2 C -0.0011(3) 0.3086(5) 0.0665(2)
H1 H 0.0450 0.3177 0.1253
C3 C 0.0393(3) 0.2346(5) 0.0261(2)
C4 C -0.0317(3) 0.2206(5) -0.0626(2)
H2 H -0.0070 0.1706 -0.0918
C5 C -0.1368(3) 0.2803(5) -0.1060(2)
H3 H -0.1829 0.2709 -0.1648
C6 C -0.1763(3) 0.3537(5) -0.0654(2)
H4 H -0.2486 0.3927 -0.0961
C7 C -0.1474(3) 0.5150(5) 0.1753(3)
H5 H -0.1251 0.5294 0.2305
C8 C -0.2456(3) 0.5148(5) 0.0394(2)
H6 H -0.3046 0.5302 -0.0173
C9 C -0.1474(3) 0.4455(5) 0.0679(2)
C10 C 0.3005(3) 0.0453(5) 0.1069(2)
H7 H 0.3488 -0.0141 0.1004
C11 C 0.2313(3) 0.1764(5) 0.1618(2)
H8 H 0.2237 0.2254 0.2015
C12 C 0.1513(3) 0.1735(5) 0.0758(2)
C13 C 0.2766(3) -0.4428(5) 0.37503(19)
C14 C 0.3196(3) -0.4253(5) 0.33028(19)
H9 H 0.2841 -0.4784 0.2773
C15 C 0.4134(3) -0.3316(5) 0.3624(2)
C16 C 0.4716(3) -0.2629(5) 0.44388(19)
H10 H 0.5361 -0.2001 0.4661
C17 C 0.4337(3) -0.2878(4) 0.4917(2)
C18 C 0.3347(3) -0.3713(4) 0.45563(19)
H11 H 0.3061 -0.3799 0.4863
C19 C 0.1671(3) -0.5307(5) 0.3370(2)
C20 C 0.4547(3) -0.2978(5) 0.3112(2)
C21 C 0.4976(3) -0.2161(5) 0.5806(2)
N1 N -0.0864(3) 0.4486(4) 0.15496(19)
N2 N -0.2441(3) 0.5584(5) 0.1071(2)
N3 N 0.1996(2) 0.0897(5) 0.04408(19)
N4 N 0.3239(2) 0.0963(4) 0.18003(15)
O1 O 0.1271(2) -0.5313(4) 0.37586(14)
O2 O 0.12290(19) -0.5970(4) 0.26408(13)
O3 O 0.43330(18) -0.4123(4) 0.25686(13)
O4 O 0.5117(2) -0.1621(3) 0.32644(15)
O5 O 0.5890(2) -0.1513(3) 0.61504(14)
O6 O 0.44942(19) -0.2263(3) 0.61543(13)
H12 H 0.177(3) 0.072(5) -0.003(2)
H13 H -0.013(3) 0.424(5) 0.1962(19)
H14 H -0.304(3) 0.607(5) 0.108(2)
Zn1A Zn 0.52552(3) -0.41534(6) 0.21679(2)
Zn1B Zn 0.52552(3) -0.08466(6) 0.71679(2)
O3A O 0.56670(18) 0.0877(4) 0.24314(13)
O6B O 0.55058(19) 0.2263(3) 0.38457(13)
loop_
_geom_bond_atom_site_label_1
_geom_bond_atom_site_label_2
_geom_bond_site_symmetry_1
_geom_bond_site_symmetry_2
Zn1 N4 1_555 1_555
C1 C2 1_555 1_555
C2 H1 1_555 1_555
C3 C2 1_555 1_555
C4 C3 1_555 1_555
H2 C4 1_555 1_555
C5 C4 1_555 1_555
H3 C5 1_555 1_555
C6 C1 1_555 1_555
H4 C6 1_555 1_555
C7 H5 1_555 1_555
C8 H6 1_555 1_555
C9 C1 1_555 1_555
C10 H7 1_555 1_555
C11 H8 1_555 1_555
C12 C3 1_555 1_555
C13 C14 1_555 1_555
C14 H9 1_555 1_555
C15 C14 1_555 1_555
C16 C15 1_555 1_555
H10 C16 1_555 1_555
C17 C16 1_555 1_555
C18 C13 1_555 1_555
H11 C18 1_555 1_555
C19 C13 1_555 1_555
C20 C15 1_555 1_555
C21 C17 1_555 1_555
N1 C7 1_555 1_555
N2 C7 1_555 1_555
N3 C10 1_555 1_555
N4 C10 1_555 1_555
O1 C19 1_555 1_555
O2 C19 1_555 1_555
O3 C20 1_555 1_555
O4 Zn1 1_555 1_555
O5 C21 1_555 1_555
O6 C21 1_555 1_555
H12 N3 1_555 1_555
H13 N1 1_555 1_555
H14 N2 1_555 1_555
Zn1A O3 1_555 1_555
Zn1B O6 1_555 1_555
O3A Zn1 1_555 1_555
O6B Zn1 1_555 1_555
C5 C6 1_555 1_555
C8 C9 1_555 1_555
C8 N2 1_555 1_555
C9 N1 1_555 1_555
C11 C12 1_555 1_555
C11 N4 1_555 1_555
C12 N3 1_555 1_555
C17 C18 1_555 1_555
C20 O4 1_555 1_555

#END
