
#######################################################################
#
#                 Cambridge Crystallographic Data Centre
#                                CCDC 
#
#######################################################################
#
# If this CIF has been generated from an entry in the Cambridge 
# Structural Database, then it will include bibliographic, chemical, 
# crystal, experimental, refinement or atomic coordinate data resulting 
# from the CCDC's data processing and validation procedures.
#
#######################################################################

data_LONMEI
_symmetry_cell_setting           monoclinic
_symmetry_space_group_name_H-M   'P 2/c'
_symmetry_Int_Tables_number      13
_space_group_name_Hall           '-P 2yc'
loop_
_symmetry_equiv_pos_site_id
_symmetry_equiv_pos_as_xyz
1 x,y,z
2 -x,y,1/2-z
3 -x,-y,-z
4 x,-y,1/2+z
_cell_length_a                   18.295(5)
_cell_length_b                   7.783(2)
_cell_length_c                   16.579(4)
_cell_angle_alpha                90
_cell_angle_beta                 107.382(9)
_cell_angle_gamma                90
_cell_volume                     2252.88
loop_
_atom_site_label
_atom_site_type_symbol
_atom_site_fract_x
_atom_site_fract_y
_atom_site_fract_z
Cd1 Cd 0.0000 1.0000 0.0000
Cl1 Cl 0.03893(9) 0.7182(2) 0.08550(11)
O1 O 0.1689(3) 0.3989(6) -0.1367(3)
O2 O 0.2955(2) 0.3936(6) -0.3565(3)
O3 O 0.4296(3) 0.3019(10) -0.0667(3)
C1 C 0.2313(4) 0.3891(8) -0.1672(5)
C2 C 0.2261(4) 0.4024(8) -0.2521(4)
H1 H 0.1794 0.4223 -0.2928
C3 C 0.2922(4) 0.3850(8) -0.2741(4)
C4 C 0.3631(4) 0.3541(10) -0.2153(4)
H2 H 0.4074 0.3437 -0.2316
C5 C 0.3649(5) 0.3396(11) -0.1323(5)
C6 C 0.2996(5) 0.3557(10) -0.1080(5)
H3 H 0.3021 0.3439 -0.0514
N1 N 0.0562(3) 0.8893(7) -0.1018(3)
C7 C 0.0941(3) 0.6579(8) -0.1757(4)
C8 C 0.0624(3) 0.7239(9) -0.1157(4)
H4 H 0.0444 0.6464 -0.0833
C9 C 0.0826(5) 0.9976(10) -0.1481(5)
H5 H 0.0795 1.1147 -0.1383
C10 C 0.1138(5) 0.9486(9) -0.2087(6)
H6 H 0.1311 1.0299 -0.2398
C11 C 0.1194(4) 0.7764(9) -0.2233(5)
H7 H 0.1402 0.7396 -0.2651
C12 C 0.0975(4) 0.4691(8) -0.1874(5)
H8 H 0.0558 0.4147 -0.1721
H9 H 0.0910 0.4442 -0.2464
N2 N 0.1260(3) 0.8791(7) -0.4356(3)
C13 C 0.2162(4) 0.6481(8) -0.4097(4)
C14 C 0.1434(4) 0.7134(8) -0.4402(4)
H10 H 0.1039 0.6378 -0.4655
C15 C 0.1841(4) 0.9845(8) -0.3985(5)
H11 H 0.1737 1.1005 -0.3941
C16 C 0.2581(5) 0.9285(10) -0.3667(5)
H12 H 0.2971 1.0055 -0.3414
C17 C 0.2743(4) 0.7578(10) -0.3725(5)
H13 H 0.3242 0.7177 -0.3513
C18 C 0.2297(4) 0.4577(8) -0.4205(4)
H14 H 0.1848 0.3936 -0.4186
H15 H 0.2367 0.4391 -0.4756
N3 N 0.5948(7) 0.1491(16) 0.1403(6)
C19 C 0.5582(5) 0.2239(11) -0.0063(5)
C20 C 0.5432(6) 0.2027(15) 0.0694(6)
H16 H 0.4940 0.2270 0.0714
C21 C 0.6623(9) 0.1132(19) 0.1343(8)
H17 H 0.6988 0.0742 0.1828
C22 C 0.6836(6) 0.1278(16) 0.0636(8)
H18 H 0.7333 0.1011 0.0639
C23 C 0.6296(5) 0.1837(13) -0.0099(6)
H19 H 0.6419 0.1934 -0.0602
C24 C 0.4981(5) 0.2808(14) -0.0860(5)
H20 H 0.5132 0.3883 -0.1061
H21 H 0.4921 0.1950 -0.1299
O1A O -0.1689(3) 0.3989(6) -0.3633(3)
O2A O -0.2955(2) 0.3936(6) -0.1435(3)
O3A O -0.4296(3) 0.3019(10) -0.4333(3)
C1A C -0.2313(4) 0.3891(8) -0.3328(5)
C2A C -0.2261(4) 0.4024(8) -0.2479(4)
H1A H -0.1794 0.4223 -0.2072
C3A C -0.2922(4) 0.3850(8) -0.2259(4)
C4A C -0.3631(4) 0.3541(10) -0.2847(4)
H2A H -0.4074 0.3437 -0.2684
C5A C -0.3649(5) 0.3396(11) -0.3677(5)
C6A C -0.2996(5) 0.3557(10) -0.3920(5)
H3A H -0.3021 0.3439 -0.4486
N1A N -0.0562(3) 0.8893(7) -0.3982(3)
C7A C -0.0941(3) 0.6579(8) -0.3243(4)
C8A C -0.0624(3) 0.7239(9) -0.3843(4)
H4A H -0.0444 0.6464 -0.4167
C9A C -0.0826(5) 0.9976(10) -0.3519(5)
H5A H -0.0795 1.1147 -0.3617
C10A C -0.1138(5) 0.9486(9) -0.2913(6)
H6A H -0.1311 1.0299 -0.2602
C11A C -0.1194(4) 0.7764(9) -0.2767(5)
H7A H -0.1402 0.7396 -0.2349
C12A C -0.0975(4) 0.4691(8) -0.3126(5)
H8A H -0.0558 0.4147 -0.3279
H9A H -0.0910 0.4442 -0.2536
N2A N -0.1260(3) 0.8791(7) -0.0644(3)
C13A C -0.2162(4) 0.6481(8) -0.0903(4)
C14A C -0.1434(4) 0.7134(8) -0.0598(4)
H10A H -0.1039 0.6378 -0.0345
C15A C -0.1841(4) 0.9845(8) -0.1015(5)
H11A H -0.1737 1.1005 -0.1059
C16A C -0.2581(5) 0.9285(10) -0.1333(5)
H12A H -0.2971 1.0055 -0.1586
C17A C -0.2743(4) 0.7578(10) -0.1275(5)
H13A H -0.3242 0.7177 -0.1487
C18A C -0.2297(4) 0.4577(8) -0.0795(4)
H14A H -0.1848 0.3936 -0.0814
H15A H -0.2367 0.4391 -0.0244
N3A N -0.5948(7) 0.1491(16) -0.6403(6)
C19A C -0.5582(5) 0.2239(11) -0.4937(5)
C20A C -0.5432(6) 0.2027(15) -0.5694(6)
H16A H -0.4940 0.2270 -0.5714
C21A C -0.6623(9) 0.1132(19) -0.6343(8)
H17A H -0.6988 0.0742 -0.6828
C22A C -0.6836(6) 0.1278(16) -0.5636(8)
H18A H -0.7333 0.1011 -0.5639
C23A C -0.6296(5) 0.1837(13) -0.4901(6)
H19A H -0.6419 0.1934 -0.4398
C24A C -0.4981(5) 0.2808(14) -0.4140(5)
H20A H -0.5132 0.3883 -0.3939
H21A H -0.4921 0.1950 -0.3701
Cl1B Cl -0.03893(9) 1.2818(2) -0.08550(11)
Cd1A Cd 0.0000 1.0000 -0.5000
N1B N -0.0562(3) 1.1107(7) 0.1018(3)
N2C N 0.1260(3) 1.1209(7) 0.0644(3)
O4 O 0.5297(11) 0.082(5) 0.2667(14)
loop_
_geom_bond_atom_site_label_1
_geom_bond_atom_site_label_2
_geom_bond_site_symmetry_1
_geom_bond_site_symmetry_2
Cd1 Cl1 1_555 1_555
O1 C1 1_555 1_555
O2 C3 1_555 1_555
O3 C5 1_555 1_555
C1 C2 1_555 1_555
C2 H1 1_555 1_555
C3 C2 1_555 1_555
C4 C3 1_555 1_555
H2 C4 1_555 1_555
C5 C4 1_555 1_555
C6 C1 1_555 1_555
H3 C6 1_555 1_555
N1 Cd1 1_555 1_555
C7 C8 1_555 1_555
C8 N1 1_555 1_555
H4 C8 1_555 1_555
C9 N1 1_555 1_555
H5 C9 1_555 1_555
C10 C9 1_555 1_555
H6 C10 1_555 1_555
C11 C7 1_555 1_555
H7 C11 1_555 1_555
C12 O1 1_555 1_555
H8 C12 1_555 1_555
H9 C12 1_555 1_555
N2 C14 1_555 1_555
C13 C14 1_555 1_555
C14 H10 1_555 1_555
C15 N2 1_555 1_555
H11 C15 1_555 1_555
C16 C15 1_555 1_555
H12 C16 1_555 1_555
C17 C13 1_555 1_555
H13 C17 1_555 1_555
C18 O2 1_555 1_555
H14 C18 1_555 1_555
H15 C18 1_555 1_555
N3 C20 1_555 1_555
C19 C20 1_555 1_555
C20 H16 1_555 1_555
C21 N3 1_555 1_555
H17 C21 1_555 1_555
C22 C21 1_555 1_555
H18 C22 1_555 1_555
C23 C19 1_555 1_555
H19 C23 1_555 1_555
C24 O3 1_555 1_555
H20 C24 1_555 1_555
H21 C24 1_555 1_555
O1A C1A 1_555 1_555
O2A C3A 1_555 1_555
O3A C5A 1_555 1_555
C1A C2A 1_555 1_555
C2A H1A 1_555 1_555
C3A C2A 1_555 1_555
C4A C3A 1_555 1_555
H2A C4A 1_555 1_555
C5A C4A 1_555 1_555
C6A C1A 1_555 1_555
H3A C6A 1_555 1_555
N1A C8A 1_555 1_555
C7A C8A 1_555 1_555
C8A H4A 1_555 1_555
C9A N1A 1_555 1_555
H5A C9A 1_555 1_555
C10A C9A 1_555 1_555
H6A C10A 1_555 1_555
C11A C7A 1_555 1_555
H7A C11A 1_555 1_555
C12A O1A 1_555 1_555
H8A C12A 1_555 1_555
H9A C12A 1_555 1_555
N2A Cd1 1_555 1_555
C13A C14A 1_555 1_555
C14A N2A 1_555 1_555
H10A C14A 1_555 1_555
C15A N2A 1_555 1_555
H11A C15A 1_555 1_555
C16A C15A 1_555 1_555
H12A C16A 1_555 1_555
C17A C13A 1_555 1_555
H13A C17A 1_555 1_555
C18A O2A 1_555 1_555
H14A C18A 1_555 1_555
H15A C18A 1_555 1_555
N3A C20A 1_555 1_555
C19A C20A 1_555 1_555
C20A H16A 1_555 1_555
C21A N3A 1_555 1_555
H17A C21A 1_555 1_555
C22A C21A 1_555 1_555
H18A C22A 1_555 1_555
C23A C19A 1_555 1_555
H19A C23A 1_555 1_555
C24A O3A 1_555 1_555
H20A C24A 1_555 1_555
H21A C24A 1_555 1_555
Cl1B Cd1 1_555 1_555
Cd1A N2 1_555 1_555
N1B Cd1 1_555 1_555
N2C Cd1 1_555 1_555
C5 C6 1_555 1_555
C7 C12 1_555 1_555
C10 C11 1_555 1_555
C13 C18 1_555 1_555
C16 C17 1_555 1_555
C19 C24 1_555 1_555
C22 C23 1_555 1_555
C5A C6A 1_555 1_555
N1A Cd1A 1_555 1_555
C7A C12A 1_555 1_555
C10A C11A 1_555 1_555
C13A C18A 1_555 1_555
C16A C17A 1_555 1_555
C19A C24A 1_555 1_555
C22A C23A 1_555 1_555

#END
