
#######################################################################
#
#                 Cambridge Crystallographic Data Centre
#                                CCDC 
#
#######################################################################
#
# If this CIF has been generated from an entry in the Cambridge 
# Structural Database, then it will include bibliographic, chemical, 
# crystal, experimental, refinement or atomic coordinate data resulting 
# from the CCDC's data processing and validation procedures.
#
#######################################################################

data_LONPAF
_symmetry_cell_setting           monoclinic
_symmetry_space_group_name_H-M   'P 21/c'
_symmetry_Int_Tables_number      14
_space_group_name_Hall           '-P 2ybc'
loop_
_symmetry_equiv_pos_site_id
_symmetry_equiv_pos_as_xyz
1 x,y,z
2 x,1/2-y,1/2+z
3 -x,-y,-z
4 -x,1/2+y,1/2-z
_cell_length_a                   17.788(4)
_cell_length_b                   10.706(2)
_cell_length_c                   18.560(4)
_cell_angle_alpha                90.00
_cell_angle_beta                 113.37(3)
_cell_angle_gamma                90.00
_cell_volume                     3244.57
loop_
_atom_site_label
_atom_site_type_symbol
_atom_site_fract_x
_atom_site_fract_y
_atom_site_fract_z
Eu1 Eu -0.00443(5) -0.45614(8) 0.10328(5)
Eu2 Eu 0.49829(5) 0.23112(7) 0.17994(5)
Cl1 Cl 0.4791(4) 0.2241(5) 0.3828(3)
P1 P 0.3600(2) -0.0306(4) 0.1805(2)
P2 P -0.3606(3) -0.4896(4) -0.1896(3)
O1 O 0.4032(7) 0.0725(10) 0.1576(7)
O2 O 0.4070(7) -0.1321(12) 0.2316(7)
O3 O 0.3031(7) 0.0334(11) 0.2180(7)
O4 O 0.0523(7) -0.3819(12) -0.0030(8)
O5 O 0.1160(8) -0.3224(13) 0.1201(9)
O6 O -0.4125(8) -0.5884(12) -0.2451(8)
O7 O -0.4036(7) -0.3847(11) -0.1701(7)
O8 O -0.2985(7) -0.5530(12) -0.1106(8)
O9 O -0.1186(10) -0.3826(15) -0.0072(8)
O10 O -0.1116(7) -0.4140(11) -0.1236(7)
O11 O -0.0327(11) -0.2379(14) 0.1161(13)
O12 O 0.0693(10) -0.4073(19) 0.2409(8)
O13 O -0.1233(8) -0.4457(16) 0.1388(9)
O14 O -0.0091(9) -0.6440(14) 0.1785(10)
O15 O 0.5484(11) 0.1094(16) 0.0923(9)
O16 O 0.5384(10) 0.3771(14) 0.0988(9)
O17 O 0.3958(10) 0.2381(16) 0.0391(9)
O19 O 0.410(3) 0.169(5) 0.389(2)
O20 O 0.538(2) 0.147(3) 0.4238(16)
O21 O 0.4594(12) 0.218(2) 0.3007(10)
O22 O 0.486(2) 0.339(2) 0.4110(15)
N1 N 0.2331(7) -0.1941(13) 0.1024(8)
N2 N -0.2581(9) -0.3035(13) -0.2052(8)
C1 C 0.2870(11) -0.0950(17) 0.0896(9)
C2 C 0.1662(10) -0.2366(19) 0.0270(9)
C3 C 0.1072(11) -0.3211(18) 0.0502(13)
C4 C -0.2939(11) -0.4321(15) -0.2342(11)
C5 C -0.2179(11) -0.2861(17) -0.1176(10)
C6 C -0.1446(11) -0.3681(16) -0.0818(12)
O4B O -0.0523(7) -0.6181(12) 0.0030(8)
O2C O 0.5930(7) 0.3679(12) 0.2684(7)
Eu2C Eu 0.50171(5) -0.26888(7) 0.32006(5)
Eu1B Eu 0.00443(5) -0.54386(8) -0.10328(5)
O10B O 0.1116(7) -0.5860(11) 0.1236(7)
O6A O 0.5875(8) 0.0884(12) 0.2549(8)
O7B O 0.4036(7) 0.3847(11) 0.1701(7)
Eu2A Eu -0.50171(5) -0.73112(7) -0.32006(5)
Eu2B Eu -0.49829(5) -0.23112(7) -0.17994(5)
Cl2 Cl 0.2548(3) -0.2034(5) 0.3421(3)
O23 O 0.3034(14) -0.241(2) 0.4175(11)
O24 O 0.2728(12) -0.0726(14) 0.3368(9)
O25 O 0.2698(16) -0.2700(19) 0.2839(12)
O26 O 0.1711(12) -0.219(2) 0.3320(16)
Cl3 Cl 0.2213(3) 0.3931(6) 0.3992(3)
O27 O 0.2121(17) 0.335(3) 0.4599(13)
O28 O 0.1646(19) 0.504(3) 0.388(2)
O29 O 0.1914(19) 0.336(4) 0.3305(15)
O30 O 0.2993(10) 0.4459(17) 0.4219(11)
Cl4 Cl 0.0751(3) 0.4475(5) 0.6460(4)
O31 O 0.1194(11) 0.3561(16) 0.7005(11)
O32 O -0.0011(12) 0.426(3) 0.6051(16)
O33 O 0.1146(14) 0.492(3) 0.6029(19)
O34 O 0.062(3) 0.552(2) 0.6883(19)
O18 O 0.2983(13) 0.4546(18) 0.9833(10)
loop_
_geom_bond_atom_site_label_1
_geom_bond_atom_site_label_2
_geom_bond_site_symmetry_1
_geom_bond_site_symmetry_2
Eu1 O4 1_555 1_555
Eu2 O1 1_555 1_555
Cl1 O19 1_555 1_555
Cl2 O23 1_555 1_555
Cl3 O27 1_555 1_555
Cl4 O31 1_555 1_555
P1 O1 1_555 1_555
P2 O6 1_555 1_555
O2 P1 1_555 1_555
O3 P1 1_555 1_555
O4 C3 1_555 1_555
O5 Eu1 1_555 1_555
O6 Eu2A 1_555 1_555
O7 P2 1_555 1_555
O8 P2 1_555 1_555
O9 Eu1 1_555 1_555
O10 C6 1_555 1_555
O11 Eu1 1_555 1_555
O12 Eu1 1_555 1_555
O13 Eu1 1_555 1_555
O14 Eu1 1_555 1_555
O15 Eu2 1_555 1_555
O16 Eu2 1_555 1_555
O17 Eu2 1_555 1_555
O20 Cl1 1_555 1_555
O21 Eu2 1_555 1_555
O22 Cl1 1_555 1_555
O24 Cl2 1_555 1_555
O25 Cl2 1_555 1_555
O26 Cl2 1_555 1_555
O28 Cl3 1_555 1_555
O29 Cl3 1_555 1_555
O30 Cl3 1_555 1_555
O32 Cl4 1_555 1_555
O33 Cl4 1_555 1_555
O34 Cl4 1_555 1_555
N1 C1 1_555 1_555
N2 C4 1_555 1_555
C1 P1 1_555 1_555
C2 N1 1_555 1_555
C3 O5 1_555 1_555
C4 P2 1_555 1_555
C5 N2 1_555 1_555
C6 O9 1_555 1_555
O4B Eu1 1_555 1_555
O2C Eu2 1_555 1_555
Eu2C O2 1_555 1_555
Eu1B O4 1_555 1_555
O10B Eu1 1_555 1_555
O6A Eu2 1_555 1_555
O7B Eu2 1_555 1_555
Eu2B O7 1_555 1_555
Cl1 O21 1_555 1_555
O10 Eu1B 1_555 1_555
C2 C3 1_555 1_555
C5 C6 1_555 1_555
O4B Eu1B 1_555 1_555

#END
