
#######################################################################
#
#                 Cambridge Crystallographic Data Centre
#                                CCDC 
#
#######################################################################
#
# If this CIF has been generated from an entry in the Cambridge 
# Structural Database, then it will include bibliographic, chemical, 
# crystal, experimental, refinement or atomic coordinate data resulting 
# from the CCDC's data processing and validation procedures.
#
#######################################################################

data_LONQUB
_symmetry_cell_setting           triclinic
_symmetry_space_group_name_H-M   'P -1'
_symmetry_Int_Tables_number      2
_space_group_name_Hall           '-P 1'
loop_
_symmetry_equiv_pos_site_id
_symmetry_equiv_pos_as_xyz
1 x,y,z
2 -x,-y,-z
_cell_length_a                   10.080(2)
_cell_length_b                   15.050(3)
_cell_length_c                   19.070(4)
_cell_angle_alpha                95.24(3)
_cell_angle_beta                 94.75(3)
_cell_angle_gamma                107.62(3)
_cell_volume                     2727.09
loop_
_atom_site_label
_atom_site_type_symbol
_atom_site_fract_x
_atom_site_fract_y
_atom_site_fract_z
Cd1 Cd 0.0000 0.5000 0.5000
Cd2 Cd 0.32384(2) 0.296833(17) 1.173963(12)
N1 N -0.3512(3) 0.6644(2) -0.06020(16)
C1 C -0.4680(5) 0.6397(3) -0.0307(2)
H1 H -0.5532 0.6419 -0.0519
C2 C -0.3135(7) 0.6237(4) 0.0468(2)
H2 H -0.2688 0.6140 0.0888
C3 C -0.5679(6) 0.5756(3) 0.0771(3)
H3 H -0.6567 0.5566 0.0471
H4 H -0.5574 0.5205 0.0965
C4 C -0.5710(6) 0.6426(3) 0.1332(3)
H5 H -0.4842 0.6598 0.1648
H6 H -0.6476 0.6155 0.1602
C5 C -0.5518(4) 0.8029(3) 0.1565(2)
C6 C -0.5690(4) 0.7984(3) 0.2277(2)
H7 H -0.6092 0.7405 0.2433
C7 C -0.4726(4) 1.1212(3) -0.27576(19)
H8 H -0.4597 1.1250 -0.3232
C8 C -0.5337(3) 1.0345(3) -0.25305(19)
C9 C -0.5482(3) 1.0298(3) -0.18093(18)
H9 H -0.5864 0.9718 -0.1651
C10 C -0.4937(3) 0.8896(2) 0.13309(19)
H10 H -0.4830 0.8933 0.0854
C11 C -0.5569(4) 0.9487(3) -0.36865(19)
H11 H -0.6208 0.8923 -0.3959
H12 H -0.5733 1.0025 -0.3879
C12 C -0.4064(4) 0.9510(3) -0.3753(2)
H13 H -0.3425 1.0074 -0.3479
H14 H -0.3891 0.9528 -0.4245
C13 C -0.3428(4) 0.8573(3) -0.28233(18)
H15 H -0.3219 0.9049 -0.2446
C14 C -0.4033(4) 0.7833(3) -0.38897(19)
H16 H -0.4319 0.7686 -0.4374
C15 C -0.3771(4) 0.7242(3) -0.34388(19)
H17 H -0.3833 0.6618 -0.3566
C16 C -0.5512(4) 0.4926(3) -0.2586(2)
H18 H -0.4797 0.4687 -0.2700
C17 C -0.6899(4) 0.4474(3) -0.2760(2)
H19 H -0.7305 0.3878 -0.3010
C18 C -0.6600(4) 0.5838(3) -0.21824(19)
H20 H -0.6804 0.6350 -0.1963
C19 C -0.9102(4) 0.4843(3) -0.2544(2)
H21 H -0.9344 0.5412 -0.2598
H22 H -0.9539 0.4393 -0.2958
C20 C -0.9658(4) 0.4447(3) -0.1892(2)
H23 H -0.9388 0.3894 -0.1817
H24 H -1.0672 0.4275 -0.1940
C21 C -0.9567(4) 0.5052(3) -0.06740(19)
C22 C -1.0528(4) 0.4239(3) -0.0522(2)
H25 H -1.0884 0.3724 -0.0869
C23 C -0.9040(4) 0.5808(3) -0.0152(2)
H26 H -0.8390 0.6354 -0.0252
C24 C 0.0309(3) 0.1463(2) 1.09429(17)
H27 H 0.0799 0.1052 1.0814
C25 C -0.0213(4) 0.2646(2) 1.14024(19)
H28 H -0.0136 0.3219 1.1659
C26 C -0.1393(4) 0.2072(2) 1.10206(19)
H29 H -0.2262 0.2170 1.0966
C27 C -0.1944(3) 0.0573(2) 1.01840(18)
H30 H -0.2910 0.0416 1.0286
H31 H -0.1659 0.0014 1.0198
C28 C -0.1847(3) 0.0877(3) 0.94523(18)
H32 H -0.2552 0.0424 0.9111
H33 H -0.1997 0.1484 0.9448
C29 C -0.0131(3) 0.1210(2) 0.86285(17)
C30 C -0.1022(4) 0.1430(3) 0.81258(18)
H34 H -0.1930 0.1392 0.8216
C31 C -0.0563(4) 0.1707(2) 0.74911(18)
H35 H -0.1163 0.1858 0.7158
C32 C 0.0778(3) 0.1761(2) 0.73500(17)
C33 C 0.1673(4) 0.1536(3) 0.78483(19)
H36 H 0.2577 0.1567 0.7756
C34 C 0.1210(4) 0.1265(3) 0.8485(2)
H37 H 0.1811 0.1118 0.8819
C35 C 0.2426(4) 0.1959(2) 0.64838(18)
H38 H 0.2483 0.1338 0.6543
H39 H 0.3222 0.2422 0.6767
C36 C 0.2430(4) 0.2113(2) 0.57134(18)
H40 H 0.3259 0.2009 0.5544
H41 H 0.1617 0.1652 0.5442
C37 C 0.3542(4) 0.3783(2) 0.5457(2)
H42 H 0.4465 0.3783 0.5458
C38 C 0.3039(4) 0.4500(3) 0.5331(2)
H43 H 0.3575 0.5082 0.5225
C39 C 0.1294(4) 0.3370(2) 0.55340(17)
H44 H 0.0394 0.3012 0.5600
C40 C -0.0271(4) 0.3136(2) 0.38738(19)
H45 H 0.0643 0.3172 0.4033
C41 C -0.2219(4) 0.3421(3) 0.3748(2)
H46 H -0.2919 0.3697 0.3807
C42 C -0.2336(4) 0.2671(3) 0.3279(2)
H47 H -0.3115 0.2340 0.2960
C43 C -0.0726(4) 0.1735(3) 0.29583(19)
H48 H -0.1571 0.1314 0.2683
H49 H -0.0084 0.2010 0.2628
C44 C -0.0070(4) 0.1171(3) 0.34031(19)
H50 H 0.0817 0.1570 0.3654
H51 H 0.0106 0.0672 0.3104
C45 C -0.1094(3) 0.0380(2) 0.50567(19)
H52 H -0.1824 0.0632 0.5096
C46 C 0.0627(3) 0.0016(2) 0.43797(18)
H53 H 0.1047 0.0026 0.3963
C47 C -0.0465(3) 0.0397(2) 0.44350(18)
N2 N -0.4523(5) 0.6111(3) 0.0328(2)
C48 C -0.2495(5) 0.6536(4) -0.0122(2)
H54 H -0.1555 0.6643 -0.0182
N3 N -0.3796(3) 0.8683(2) -0.34984(15)
N4 N -0.3400(3) 0.7715(2) -0.27609(14)
N5 N -0.5318(3) 0.5800(2) -0.22141(15)
N6 N -0.7577(3) 0.5057(2) -0.25005(14)
N7 N 0.0864(3) 0.22646(19) 1.13584(14)
N8 N -0.1054(3) 0.13138(19) 1.07284(14)
N9 N 0.2413(3) 0.30569(18) 0.55832(14)
N10 N 0.1621(3) 0.4243(2) 0.53815(15)
N11 N -0.0919(3) 0.37179(19) 0.41255(15)
N12 N -0.1088(3) 0.24872(18) 0.33623(14)
N13 N 0.2221(3) 0.4593(3) 1.2533(2)
N14 N 0.4531(3) 0.1564(2) 1.10014(15)
O1 O -0.1005(2) 0.07845(17) 0.38944(13)
O2 O 0.1146(2) 0.20514(17) 0.67017(12)
O3 O -0.0473(2) 0.09340(19) 0.92773(12)
O4 O -0.5837(2) 0.95059(17) -0.29610(13)
O5 O -0.5887(3) 0.72538(18) 0.10642(15)
O6 O -0.9057(3) 0.51707(18) -0.13146(13)
O7 O 0.2409(3) 0.4455(2) 1.19010(18)
O8 O 0.1955(5) 0.3931(3) 1.2862(2)
O9 O 0.2366(4) 0.5408(3) 1.28030(17)
O10 O 0.3276(3) 0.13732(19) 1.11099(15)
O11 O 0.5382(3) 0.22694(19) 1.13552(15)
O12 O 0.4914(3) 0.1065(2) 1.05664(14)
O13 O -0.1515(4) 0.4306(2) 0.57936(16)
H55 H -0.175(4) 0.458(2) 0.6130(16)
H56 H -0.206(3) 0.3778(14) 0.567(2)
Cd1_2 Cd 0.0000 -0.5000 0.5000
Cd2A Cd -0.32384(2) 0.703167(17) -0.173963(12)
Cd2_2 Cd -0.67616(2) 1.296833(17) 0.173963(12)
Cd2_3 Cd -1.67616(2) 0.296833(17) 0.173963(12)
N1A N 0.3512(3) 0.3356(2) 1.06020(16)
N1A_2 N -0.6488(3) 1.3356(2) 0.06020(16)
C1A C -0.5320(5) 1.3603(3) 0.0307(2)
H1A H -0.4468 1.3581 0.0519
C2A C -0.6865(7) 1.3763(4) -0.0468(2)
H2A H -0.7312 1.3860 -0.0888
C3A C -0.4321(6) 1.4244(3) -0.0771(3)
H3A H -0.3433 1.4434 -0.0471
H4A H -0.4426 1.4795 -0.0965
C4A C -0.4290(6) 1.3574(3) -0.1332(3)
H5A H -0.5158 1.3402 -0.1648
H6A H -0.3524 1.3845 -0.1602
C5A C -0.4482(4) 1.1971(3) -0.1565(2)
C6A C -0.4310(4) 1.2016(3) -0.2277(2)
H7A H -0.3908 1.2595 -0.2433
C7A C -0.5274(4) 0.8788(3) 0.27576(19)
H8A H -0.5403 0.8750 0.3232
C8A C -0.4663(3) 0.9655(3) 0.25305(19)
C9A C -0.4518(3) 0.9702(3) 0.18093(18)
H9A H -0.4136 1.0282 0.1651
C10A C -0.5063(3) 1.1104(2) -0.13309(19)
H10A H -0.5170 1.1067 -0.0854
C11A C -0.4431(4) 1.0513(3) 0.36865(19)
H11A H -0.3792 1.1077 0.3959
H12A H -0.4267 0.9975 0.3879
C12A C -0.5936(4) 1.0490(3) 0.3753(2)
H13A H -0.6575 0.9926 0.3479
H14A H -0.6109 1.0472 0.4245
C13A C -0.6572(4) 1.1427(3) 0.28233(18)
H15A H -0.6781 1.0951 0.2446
C14A C -0.5967(4) 1.2167(3) 0.38897(19)
H16A H -0.5681 1.2314 0.4374
C15A C -0.6229(4) 1.2758(3) 0.34388(19)
H17A H -0.6167 1.3382 0.3566
C16A C -1.4488(4) 0.5074(3) 0.2586(2)
H18A H -1.5203 0.5313 0.2700
C17A C -1.3101(4) 0.5526(3) 0.2760(2)
H19A H -1.2695 0.6122 0.3010
C18A C -1.3400(4) 0.4162(3) 0.21824(19)
H20A H -1.3196 0.3650 0.1963
C19A C -1.0898(4) 0.5157(3) 0.2544(2)
H21A H -1.0656 0.4588 0.2598
H22A H -1.0461 0.5607 0.2958
C20A C -1.0342(4) 0.5553(3) 0.1892(2)
H23A H -1.0612 0.6106 0.1817
H24A H -0.9328 0.5725 0.1940
C21A C -1.0433(4) 0.4948(3) 0.06740(19)
C22A C -0.9472(4) 0.5761(3) 0.0522(2)
H25A H -0.9116 0.6276 0.0869
C23A C -1.0960(4) 0.4192(3) 0.0152(2)
H26A H -1.1610 0.3646 0.0252
C24A C -0.0309(3) 0.8537(2) -0.09429(17)
H27A H -0.0799 0.8948 -0.0814
C25A C 0.0213(4) 0.7354(2) -0.14024(19)
H28A H 0.0136 0.6781 -0.1659
C26A C 0.1393(4) 0.7928(2) -0.10206(19)
H29A H 0.2262 0.7830 -0.0966
C27A C 0.1944(3) 0.9427(2) -0.01840(18)
H30A H 0.2910 0.9584 -0.0286
H31A H 0.1659 0.9986 -0.0198
C28A C 0.1847(3) 0.9123(3) 0.05477(18)
H32A H 0.2552 0.9576 0.0889
H33A H 0.1997 0.8516 0.0552
C29A C 0.0131(3) 0.8790(2) 0.13715(17)
C30A C 0.1022(4) 0.8570(3) 0.18742(18)
H34A H 0.1930 0.8608 0.1784
C31A C 0.0563(4) 0.8293(2) 0.25089(18)
H35A H 0.1163 0.8142 0.2842
C32A C -0.0778(3) 0.8239(2) 0.26500(17)
C33A C -0.1673(4) 0.8464(3) 0.21517(19)
H36A H -0.2577 0.8433 0.2244
C34A C -0.1210(4) 0.8735(3) 0.1515(2)
H37A H -0.1811 0.8882 0.1181
C35A C -0.2426(4) 0.8041(2) 0.35162(18)
H38A H -0.2483 0.8662 0.3457
H39A H -0.3222 0.7578 0.3233
C36A C -0.2430(4) 0.7887(2) 0.42866(18)
H40A H -0.3259 0.7991 0.4456
H41A H -0.1617 0.8348 0.4558
C37A C -0.3542(4) 0.6217(2) 0.4543(2)
H42A H -0.4465 0.6217 0.4542
C38A C -0.3039(4) 0.5500(3) 0.4669(2)
H43A H -0.3575 0.4918 0.4775
C39A C -0.1294(4) 0.6630(2) 0.44660(17)
H44A H -0.0394 0.6988 0.4400
C40A C 0.0271(4) -0.3136(2) 0.61262(19)
H45A H -0.0643 -0.3172 0.5967
C41A C 0.2219(4) -0.3421(3) 0.6252(2)
H46A H 0.2919 -0.3697 0.6193
C42A C 0.2336(4) -0.2671(3) 0.6721(2)
H47A H 0.3115 -0.2340 0.7040
C43A C 0.0726(4) -0.1735(3) 0.70417(19)
H48A H 0.1571 -0.1314 0.7317
H49A H 0.0084 -0.2010 0.7372
C44A C 0.0070(4) -0.1171(3) 0.65969(19)
H50A H -0.0817 -0.1570 0.6346
H51A H -0.0106 -0.0672 0.6896
C45A C 0.1094(3) -0.0380(2) 0.49433(19)
H52A H 0.1824 -0.0632 0.4904
C46A C -0.0627(3) -0.0016(2) 0.56203(18)
H53A H -0.1047 -0.0026 0.6037
C47A C 0.0465(3) -0.0397(2) 0.55650(18)
N2A N -0.5477(5) 1.3889(3) -0.0328(2)
C48A C -0.7505(5) 1.3464(4) 0.0122(2)
H54A H -0.8445 1.3357 0.0182
N3A N -0.6204(3) 1.1317(2) 0.34984(15)
N4A N 0.3400(3) 0.2285(2) 1.27609(14)
N4A_2 N -0.6600(3) 1.2285(2) 0.27609(14)
N5A N 0.5318(3) 0.4200(2) 1.22141(15)
N5A_2 N -1.4682(3) 0.4200(2) 0.22141(15)
N6A N -1.2423(3) 0.4943(2) 0.25005(14)
N7A N -0.0864(3) 0.77354(19) -0.13584(14)
N8A N 0.1054(3) 0.86862(19) -0.07284(14)
N9A N -0.2413(3) 0.69431(18) 0.44168(14)
N10A N -0.1621(3) 0.5757(2) 0.46185(15)
N11A N 0.0919(3) 0.62821(19) 0.58745(15)
N11A_2 N 0.0919(3) -0.37179(19) 0.58745(15)
N12A N 0.1088(3) -0.24872(18) 0.66377(14)
N13A N -0.2221(3) 0.5407(3) -0.2533(2)
N14A N -0.4531(3) 0.8436(2) -0.10014(15)
O1A O 0.1005(2) -0.07845(17) 0.61056(13)
O2A O -0.1146(2) 0.79486(17) 0.32983(12)
O3A O 0.0473(2) 0.90660(19) 0.07227(12)
O4A O -0.4163(2) 1.04941(17) 0.29610(13)
O5A O -0.4113(3) 1.27462(18) -0.10642(15)
O6A O -1.0943(3) 0.48293(18) 0.13146(13)
O7A O -0.2409(3) 0.5545(2) -0.19010(18)
O8A O -0.1955(5) 0.6069(3) -0.2862(2)
O9A O -0.2366(4) 0.4592(3) -0.28030(17)
O10A O -0.3276(3) 0.86268(19) -0.11099(15)
O11A O -0.5382(3) 0.77306(19) -0.13552(15)
O12A O -0.4914(3) 0.8935(2) -0.05664(14)
O13A O 0.1515(4) 0.5694(2) 0.42064(16)
H55A H 0.175(4) 0.542(2) 0.3870(16)
H56A H 0.206(3) 0.6222(14) 0.433(2)
N15 N 0.3587(4) 0.7972(2) 0.44526(18)
O14 O 0.3921(4) 0.7264(3) 0.4513(2)
O15 O 0.4450(5) 0.8731(2) 0.46060(19)
O16 O 0.2400(5) 0.7860(3) 0.4220(3)
loop_
_geom_bond_atom_site_label_1
_geom_bond_atom_site_label_2
_geom_bond_site_symmetry_1
_geom_bond_site_symmetry_2
Cd1 N10 1_555 1_555
Cd2 N7 1_555 1_555
N1 C1 1_555 1_555
C1 H1 1_555 1_555
C2 H2 1_555 1_555
C3 H3 1_555 1_555
H4 C3 1_555 1_555
C4 C3 1_555 1_555
H5 C4 1_555 1_555
H6 C4 1_555 1_555
C5 C6 1_555 1_555
C6 H7 1_555 1_555
C7 H8 1_555 1_555
C8 C7 1_555 1_555
C9 C8 1_555 1_555
H9 C9 1_555 1_555
C10 C5 1_555 1_555
H10 C10 1_555 1_555
C11 H11 1_555 1_555
H12 C11 1_555 1_555
C12 C11 1_555 1_555
H13 C12 1_555 1_555
H14 C12 1_555 1_555
C13 H15 1_555 1_555
C14 H16 1_555 1_555
C15 C14 1_555 1_555
H17 C15 1_555 1_555
C16 H18 1_555 1_555
C17 C16 1_555 1_555
H19 C17 1_555 1_555
C18 H20 1_555 1_555
C19 H21 1_555 1_555
H22 C19 1_555 1_555
C20 C19 1_555 1_555
H23 C20 1_555 1_555
H24 C20 1_555 1_555
C21 C22 1_555 1_555
C22 H25 1_555 1_555
C23 C21 1_555 1_555
H26 C23 1_555 1_555
C24 H27 1_555 1_555
C25 H28 1_555 1_555
C26 C25 1_555 1_555
H29 C26 1_555 1_555
C27 H30 1_555 1_555
H31 C27 1_555 1_555
C28 C27 1_555 1_555
H32 C28 1_555 1_555
H33 C28 1_555 1_555
C29 C30 1_555 1_555
C30 H34 1_555 1_555
C31 C30 1_555 1_555
H35 C31 1_555 1_555
C32 C31 1_555 1_555
C33 C32 1_555 1_555
H36 C33 1_555 1_555
C34 C29 1_555 1_555
H37 C34 1_555 1_555
C35 H38 1_555 1_555
H39 C35 1_555 1_555
C36 C35 1_555 1_555
H40 C36 1_555 1_555
H41 C36 1_555 1_555
C37 H42 1_555 1_555
C38 C37 1_555 1_555
H43 C38 1_555 1_555
C39 H44 1_555 1_555
C40 H45 1_555 1_555
C41 H46 1_555 1_555
C42 C41 1_555 1_555
H47 C42 1_555 1_555
C43 H48 1_555 1_555
H49 C43 1_555 1_555
C44 C43 1_555 1_555
H50 C44 1_555 1_555
H51 C44 1_555 1_555
C45 H52 1_555 1_555
C46 H53 1_555 1_555
C47 C45 1_555 1_555
N2 C1 1_555 1_555
C48 N1 1_555 1_555
H54 C48 1_555 1_555
N3 C12 1_555 1_555
N4 C13 1_555 1_555
N5 C16 1_555 1_555
N6 C17 1_555 1_555
N7 C24 1_555 1_555
N8 C24 1_555 1_555
N9 C36 1_555 1_555
N10 C38 1_555 1_555
N11 Cd1 1_555 1_555
N12 C40 1_555 1_555
N13 O7 1_555 1_555
N14 O10 1_555 1_555
O1 C44 1_555 1_555
O2 C32 1_555 1_555
O3 C28 1_555 1_555
O4 C8 1_555 1_555
O5 C4 1_555 1_555
O6 C20 1_555 1_555
O7 Cd2 1_555 1_555
O8 N13 1_555 1_555
O9 N13 1_555 1_555
O10 Cd2 1_555 1_555
O11 N14 1_555 1_555
O12 N14 1_555 1_555
O13 Cd1 1_555 1_555
H55 O13 1_555 1_555
H56 O13 1_555 1_555
N15 O14 1_555 1_555
O15 N15 1_555 1_555
O16 N15 1_555 1_555
Cd1_2 N11A_2 1_555 1_555
Cd2A N1 1_555 1_555
Cd2_2 N1A_2 1_555 1_555
Cd2_3 N5A_2 1_555 1_555
N1A Cd2 1_555 1_555
N1A_2 C1A 1_555 1_555
C1A H1A 1_555 1_555
C2A H2A 1_555 1_555
C3A H3A 1_555 1_555
H4A C3A 1_555 1_555
C4A C3A 1_555 1_555
H5A C4A 1_555 1_555
H6A C4A 1_555 1_555
C5A C6A 1_555 1_555
C6A C7 1_555 1_555
H7A C6A 1_555 1_555
C7A C6 1_555 1_555
H8A C7A 1_555 1_555
C8A C7A 1_555 1_555
C9A C10 1_555 1_555
H9A C9A 1_555 1_555
C10A C9 1_555 1_555
H10A C10A 1_555 1_555
C11A H11A 1_555 1_555
H12A C11A 1_555 1_555
C12A C11A 1_555 1_555
H13A C12A 1_555 1_555
H14A C12A 1_555 1_555
C13A H15A 1_555 1_555
C14A H16A 1_555 1_555
C15A C14A 1_555 1_555
H17A C15A 1_555 1_555
C16A H18A 1_555 1_555
C17A C16A 1_555 1_555
H19A C17A 1_555 1_555
C18A H20A 1_555 1_555
C19A H21A 1_555 1_555
H22A C19A 1_555 1_555
C20A C19A 1_555 1_555
H23A C20A 1_555 1_555
H24A C20A 1_555 1_555
C21A C22A 1_555 1_555
C22A C23 1_555 1_555
H25A C22A 1_555 1_555
C23A C22 1_555 1_555
H26A C23A 1_555 1_555
C24A H27A 1_555 1_555
C25A H28A 1_555 1_555
C26A C25A 1_555 1_555
H29A C26A 1_555 1_555
C27A H30A 1_555 1_555
H31A C27A 1_555 1_555
C28A C27A 1_555 1_555
H32A C28A 1_555 1_555
H33A C28A 1_555 1_555
C29A C30A 1_555 1_555
C30A H34A 1_555 1_555
C31A C30A 1_555 1_555
H35A C31A 1_555 1_555
C32A C31A 1_555 1_555
C33A C32A 1_555 1_555
H36A C33A 1_555 1_555
C34A C29A 1_555 1_555
H37A C34A 1_555 1_555
C35A H38A 1_555 1_555
H39A C35A 1_555 1_555
C36A C35A 1_555 1_555
H40A C36A 1_555 1_555
H41A C36A 1_555 1_555
C37A H42A 1_555 1_555
C38A C37A 1_555 1_555
H43A C38A 1_555 1_555
C39A H44A 1_555 1_555
C40A H45A 1_555 1_555
C41A H46A 1_555 1_555
C42A C41A 1_555 1_555
H47A C42A 1_555 1_555
C43A H48A 1_555 1_555
H49A C43A 1_555 1_555
C44A C43A 1_555 1_555
H50A C44A 1_555 1_555
H51A C44A 1_555 1_555
C45A C46 1_555 1_555
H52A C45A 1_555 1_555
C46A C45 1_555 1_555
H53A C46A 1_555 1_555
C47A C45A 1_555 1_555
N2A C1A 1_555 1_555
C48A N1A_2 1_555 1_555
H54A C48A 1_555 1_555
N3A C12A 1_555 1_555
N4A Cd2 1_555 1_555
N4A_2 Cd2_2 1_555 1_555
N5A Cd2 1_555 1_555
N5A_2 C16A 1_555 1_555
N6A C17A 1_555 1_555
N7A Cd2A 1_555 1_555
N8A C24A 1_555 1_555
N9A C36A 1_555 1_555
N10A Cd1 1_555 1_555
N11A Cd1 1_555 1_555
N11A_2 C40A 1_555 1_555
N12A C40A 1_555 1_555
N13A O7A 1_555 1_555
N14A O10A 1_555 1_555
O1A C44A 1_555 1_555
O2A C32A 1_555 1_555
O3A C28A 1_555 1_555
O4A C8A 1_555 1_555
O5A C4A 1_555 1_555
O6A C20A 1_555 1_555
O7A Cd2A 1_555 1_555
O8A N13A 1_555 1_555
O9A N13A 1_555 1_555
O10A Cd2A 1_555 1_555
O11A N14A 1_555 1_555
O12A N14A 1_555 1_555
O13A Cd1 1_555 1_555
H55A O13A 1_555 1_555
H56A O13A 1_555 1_555
C2 N2 1_555 1_555
C2 C48 1_555 1_555
C3 N2 1_555 1_555
C5 O5 1_555 1_555
C11 O4 1_555 1_555
C13 N3 1_555 1_555
C14 N3 1_555 1_555
C15 N4 1_555 1_555
C18 N5 1_555 1_555
C18 N6 1_555 1_555
C19 N6 1_555 1_555
C21 O6 1_555 1_555
C25 N7 1_555 1_555
C26 N8 1_555 1_555
C27 N8 1_555 1_555
C29 O3 1_555 1_555
C33 C34 1_555 1_555
C35 O2 1_555 1_555
C37 N9 1_555 1_555
C39 N9 1_555 1_555
C39 N10 1_555 1_555
C40 N11 1_555 1_555
C41 N11 1_555 1_555
C42 N12 1_555 1_555
C43 N12 1_555 1_555
C46 C47 1_555 1_555
C47 O1 1_555 1_555
N4 Cd2A 1_555 1_555
N5 Cd2A 1_555 1_555
C2A N2A 1_555 1_555
C2A C48A 1_555 1_555
C3A N2A 1_555 1_555
C5A C10A 1_555 1_555
C5A O5A 1_555 1_555
C8A C9A 1_555 1_555
C11A O4A 1_555 1_555
C13A N3A 1_555 1_555
C13A N4A_2 1_555 1_555
C14A N3A 1_555 1_555
C15A N4A_2 1_555 1_555
C18A N5A_2 1_555 1_555
C18A N6A 1_555 1_555
C19A N6A 1_555 1_555
C21A C23A 1_555 1_555
C21A O6A 1_555 1_555
C24A N7A 1_555 1_555
C25A N7A 1_555 1_555
C26A N8A 1_555 1_555
C27A N8A 1_555 1_555
C29A O3A 1_555 1_555
C33A C34A 1_555 1_555
C35A O2A 1_555 1_555
C37A N9A 1_555 1_555
C38A N10A 1_555 1_555
C39A N9A 1_555 1_555
C39A N10A 1_555 1_555
C41A N11A_2 1_555 1_555
C42A N12A 1_555 1_555
C43A N12A 1_555 1_555
C46A C47A 1_555 1_555
C47A O1A 1_555 1_555

#END
