
#######################################################################
#
#                 Cambridge Crystallographic Data Centre
#                                CCDC 
#
#######################################################################
#
# If this CIF has been generated from an entry in the Cambridge 
# Structural Database, then it will include bibliographic, chemical, 
# crystal, experimental, refinement or atomic coordinate data resulting 
# from the CCDC's data processing and validation procedures.
#
#######################################################################

data_LONRAJ
_symmetry_cell_setting           monoclinic
_symmetry_space_group_name_H-M   'P 21/c'
_symmetry_Int_Tables_number      14
_space_group_name_Hall           '-P 2ybc'
loop_
_symmetry_equiv_pos_site_id
_symmetry_equiv_pos_as_xyz
1 x,y,z
2 -x,1/2+y,1/2-z
3 -x,-y,-z
4 x,1/2-y,1/2+z
_cell_length_a                   15.899(4)
_cell_length_b                   7.627(2)
_cell_length_c                   7.3440(19)
_cell_angle_alpha                90
_cell_angle_beta                 100.075(4)
_cell_angle_gamma                90
_cell_volume                     876.813
loop_
_atom_site_label
_atom_site_type_symbol
_atom_site_fract_x
_atom_site_fract_y
_atom_site_fract_z
Cu1 Cu 0.02159(5) 0.30976(8) 0.45225(9)
Br1 Br 0.44842(6) -0.12351(16) 0.18980(16)
P1 P 0.09954(10) -0.04482(17) 0.3857(2)
S1 S 0.25990(11) -0.1702(2) 0.2384(3)
O1 O 0.0855(3) 0.0997(5) 0.5224(6)
O2 O 0.0806(3) -0.2267(5) 0.4570(6)
O3 O 0.0473(3) -0.0091(5) 0.1931(5)
O4 O 0.1255(3) 0.4209(5) 0.3863(6)
H1 H 0.1333 0.5257 0.4249
H2 H 0.1094 0.4189 0.2697
C1 C 0.2103(4) -0.0311(7) 0.3713(9)
C2 C 0.2648(5) 0.0956(9) 0.4498(11)
H3 H 0.2490 0.1829 0.5256
C3 C 0.3481(5) 0.0825(11) 0.4057(13)
H4 H 0.3930 0.1583 0.4492
C4 C 0.3535(5) -0.0544(10) 0.2924(11)
Cu1A Cu -0.02159(5) -0.19024(8) 0.04775(9)
Cu1B Cu -0.02159(5) -0.30976(8) 0.54775(9)
Cu1C Cu 0.02159(5) 0.19024(8) -0.04775(9)
O2B O -0.0806(3) 0.2267(5) 0.5430(6)
O3A O -0.0473(3) 0.4909(5) 0.3069(5)
O3C O 0.0473(3) 0.5091(5) 0.6931(5)
loop_
_geom_bond_atom_site_label_1
_geom_bond_atom_site_label_2
_geom_bond_site_symmetry_1
_geom_bond_site_symmetry_2
Cu1 O1 1_555 1_555
Br1 C4 1_555 1_555
P1 O1 1_555 1_555
S1 C1 1_555 1_555
O2 P1 1_555 1_555
O3 P1 1_555 1_555
O4 Cu1 1_555 1_555
H1 O4 1_555 1_555
H2 O4 1_555 1_555
C1 P1 1_555 1_555
C2 C1 1_555 1_555
H3 C2 1_555 1_555
C3 C2 1_555 1_555
H4 C3 1_555 1_555
C4 S1 1_555 1_555
Cu1A O3 1_555 1_555
Cu1B O2 1_555 1_555
Cu1C O3 1_555 1_555
O2B Cu1 1_555 1_555
O3A Cu1 1_555 1_555
O3C Cu1 1_555 1_555
C3 C4 1_555 1_555

#END
