
#######################################################################
#
#                 Cambridge Crystallographic Data Centre
#                                CCDC 
#
#######################################################################
#
# If this CIF has been generated from an entry in the Cambridge 
# Structural Database, then it will include bibliographic, chemical, 
# crystal, experimental, refinement or atomic coordinate data resulting 
# from the CCDC's data processing and validation procedures.
#
#######################################################################

data_LONTAJ
_symmetry_cell_setting           triclinic
_symmetry_space_group_name_H-M   'P -1'
_symmetry_Int_Tables_number      2
_space_group_name_Hall           '-P 1'
loop_
_symmetry_equiv_pos_site_id
_symmetry_equiv_pos_as_xyz
1 x,y,z
2 -x,-y,-z
_cell_length_a                   11.008(5)
_cell_length_b                   13.057(4)
_cell_length_c                   15.752(5)
_cell_angle_alpha                99.070(10)
_cell_angle_beta                 100.220(10)
_cell_angle_gamma                105.390(10)
_cell_volume                     2097.64
loop_
_atom_site_label
_atom_site_type_symbol
_atom_site_fract_x
_atom_site_fract_y
_atom_site_fract_z
Cu1 Cu -1.01293(4) -0.23489(3) 0.76134(3)
N1 N -0.1668(3) 0.2378(2) 0.24104(19)
N2 N -0.8061(3) 0.2350(2) 0.23954(18)
N3 N -0.9892(3) 0.1509(2) 0.33545(17)
N4 N -0.0130(3) -0.3294(2) 0.85038(18)
N5 N 0.1179(3) 0.0021(3) 0.9417(2)
N6 N -0.1989(4) -0.5009(3) 0.5937(2)
O1 O 0.0596(3) -0.0592(2) 0.86788(16)
O2 O 0.1961(3) -0.0264(3) 0.9918(2)
O3 O 0.0925(3) 0.0885(2) 0.96412(18)
O4 O -0.2600(3) -0.5447(3) 0.6429(2)
O5 O -0.2289(4) -0.5426(3) 0.5149(2)
O6 O -0.1075(3) -0.4157(2) 0.62395(18)
C1 C -0.1923(4) 0.3133(4) 0.2945(3)
H10 H -0.1210 0.3702 0.3336
C2 C -0.3163(4) 0.3152(4) 0.2973(3)
H11 H -0.3307 0.3708 0.3385
C3 C -0.4193(3) 0.2375(3) 0.2401(2)
C4 C -0.3907(4) 0.1613(4) 0.1831(3)
H12 H -0.4604 0.1059 0.1412
C5 C -0.2664(4) 0.1630(4) 0.1854(3)
H13 H -0.2489 0.1079 0.1456
C6 C -0.5529(3) 0.2356(3) 0.2408(2)
C7 C -0.5822(4) 0.2918(3) 0.3101(3)
H14 H -0.5147 0.3332 0.3608
C8 C -0.7082(4) 0.2886(3) 0.3086(3)
H15 H -0.2719 -0.3268 0.6411
C9 C -0.2227(4) -0.1806(4) 0.8263(3)
H16 H -0.1535 -0.1400 0.8762
C10 C -0.6546(4) 0.1787(4) 0.1704(3)
H17 H -0.6385 0.1374 0.1199
C11 C -0.9815(6) 0.0526(4) 0.3235(3)
H18 H -0.9706 0.0217 0.2670
C12 C -0.9864(6) -0.0087(3) 0.3845(3)
H19 H -0.9808 -0.0814 0.3710
C13 C -0.9977(4) 0.0320(2) 0.4656(2)
C14 C -0.9961(6) -0.1344(3) 0.5220(3)
H20 H -0.9843 -0.1672 0.4663
C15 C -1.0003(6) -0.1910(3) 0.5871(3)
H21 H -0.9981 -0.2647 0.5747
C16 C -0.0417(6) -0.4330(3) 0.8252(3)
H22 H -0.0695 -0.4638 0.7629
C17 C -0.0367(7) -0.5016(4) 0.8822(3)
H23 H -0.0595 -0.5786 0.8594
C18 C -0.0020(3) -0.4639(3) 0.9687(2)
C19 C -0.0296(6) -0.6445(3) 1.0063(3)
H24 H -0.0575 -0.6772 0.9443
C20 C -0.0239(6) -0.7086(3) 1.0657(3)
H25 H -0.0472 -0.7859 1.0444
Cu1A Cu -0.98707(4) 0.23489(3) 0.23866(3)
C13A C -1.0023(4) -0.0320(2) 0.5344(2)
C12A C -1.0136(6) 0.0087(3) 0.6155(3)
C11A C -1.0185(6) -0.0526(4) 0.6765(3)
N3A N -1.0108(3) -0.1509(2) 0.66455(17)
Cu1A_2 Cu 0.01293(4) 0.23489(3) 0.23866(3)
N1A N -0.8332(3) -0.2378(2) 0.75896(19)
C1A C -0.8077(4) -0.3133(4) 0.7055(3)
H10A H -0.8790 -0.3702 0.6664
C2A C -0.6837(4) -0.3152(4) 0.7027(3)
H11A H -0.6693 -0.3708 0.6615
C3A C -0.5807(3) -0.2375(3) 0.7599(2)
C4A C -0.6093(4) -0.1613(4) 0.8169(3)
H12A H -0.5396 -0.1059 0.8588
C5A C -0.7336(4) -0.1630(4) 0.8146(3)
H13A H -0.7511 -0.1079 0.8544
C6A C -0.4471(3) -0.2356(3) 0.7592(2)
C7A C -0.4178(4) -0.2918(3) 0.6899(3)
H14A H -0.4853 -0.3332 0.6392
C8A C -0.2918(4) -0.2886(3) 0.6914(3)
N2A N -0.1939(3) -0.2350(2) 0.76046(18)
Cu1_2 Cu -0.01293(4) -0.23489(3) 0.76134(3)
N1A_2 N 0.1668(3) -0.2378(2) 0.75896(19)
N3A_2 N -0.0108(3) -0.1509(2) 0.66455(17)
C18A C 0.0020(3) -0.5361(3) 1.0313(2)
C17A C 0.0367(7) -0.4984(4) 1.1178(3)
C16A C 0.0417(6) -0.5670(3) 1.1748(3)
N4A N 0.0130(3) -0.6706(2) 1.14962(18)
Cu1A_3 Cu 0.01293(4) -0.76511(3) 1.23866(3)
H22A H 0.0695 -0.5362 1.2371
H23A H 0.0595 -0.4214 1.1406
C19A C 0.0296(6) -0.3555(3) 0.9937(3)
H24A H 0.0575 -0.3228 1.0557
C20A C 0.0239(6) -0.2914(3) 0.9343(3)
H25A H 0.0472 -0.2141 0.9556
C10A C -0.3454(4) -0.1787(4) 0.8296(3)
H17A H -0.3615 -0.1374 0.8801
N2A_2 N -1.1939(3) -0.2350(2) 0.76046(18)
N4_2 N -1.0130(3) -0.3294(2) 0.85038(18)
O1_2 O -0.9404(3) -0.0592(2) 0.86788(16)
N5_2 N -0.8821(3) 0.0021(3) 0.9417(2)
O2_2 O -0.8039(3) -0.0264(3) 0.9918(2)
O3_2 O -0.9075(3) 0.0885(2) 0.96412(18)
O6_2 O -1.1075(3) -0.4157(2) 0.62395(18)
N6_2 N -1.1989(4) -0.5009(3) 0.5937(2)
O4_2 O -1.2600(3) -0.5447(3) 0.6429(2)
O5_2 O -1.2289(4) -0.5426(3) 0.5149(2)
H18A H -1.0294 -0.0217 0.7330
H19A H -1.0192 0.0814 0.6290
C14A C -1.0039(6) 0.1344(3) 0.4780(3)
H20A H -1.0157 0.1672 0.5337
C15A C -0.9997(6) 0.1910(3) 0.4129(3)
H21A H -1.0019 0.2647 0.4253
C9A C -0.7773(4) 0.1806(4) 0.1737(3)
H16A H -0.8465 0.1400 0.1238
H15A H -0.7281 0.3268 0.3589
N7 N -0.5015(6) 0.2633(4) 0.5650(4)
H1 H -0.5780 0.2668 0.5760
H2 H -0.4274 0.3127 0.5973
O7 O -0.5956(3) -0.1173(3) 0.2341(3)
O8 O -0.3852(3) -0.0668(3) 0.2791(3)
H7 H -0.3636 -0.1160 0.2389
C28 C -0.4966(5) -0.0587(4) 0.2881(4)
C29 C -0.4965(5) 0.0224(4) 0.3619(3)
C30 C -0.3843(5) 0.0992(4) 0.4139(4)
H30 H -0.3029 0.0964 0.4015
C31 C -0.3881(6) 0.1780(5) 0.4807(4)
H31 H -0.3084 0.2304 0.5145
C32 C -0.6127(6) 0.1069(4) 0.4496(4)
H32 H -0.6938 0.1098 0.4628
C33 C -0.6115(6) 0.0294(4) 0.3816(4)
H33 H -0.6913 -0.0225 0.3474
C41 C -0.5017(7) 0.1825(5) 0.4994(4)
N8 N -0.1169(4) 0.1344(3) 0.8302(2)
H3 H -0.2032 0.1213 0.8212
H4 H -0.0758 0.1048 0.8697
O9 O 0.2724(4) 0.3909(3) 0.6349(2)
O10 O 0.0901(3) 0.4211(3) 0.5767(2)
H8 H 0.1440 0.4421 0.5365
C21 C 0.1603(5) 0.3803(3) 0.6312(3)
C22 C 0.0875(4) 0.3214(3) 0.6858(2)
C23 C -0.0441(4) 0.3044(3) 0.6764(3)
H26 H -0.0864 0.3369 0.6342
C24 C -0.1140(4) 0.2430(3) 0.7237(3)
H27 H -0.2055 0.2316 0.7156
C25 C -0.0506(4) 0.1976(3) 0.7857(2)
C26 C 0.0819(4) 0.2171(3) 0.7969(3)
H28 H 0.1258 0.1888 0.8417
C27 C 0.1514(4) 0.2772(3) 0.7474(3)
H29 H 0.2423 0.2870 0.7536
N9 N -0.5212(5) 0.5396(4) 0.2214(3)
H5 H -0.5977 0.5464 0.2298
H6 H -0.4476 0.5777 0.2617
O11 O -0.6067(4) 0.2031(4) -0.1361(3)
O12 O -0.3942(4) 0.2571(4) -0.0889(3)
H9 H -0.3990 0.2152 -0.1363
C34 C -0.5093(6) 0.2606(5) -0.0801(4)
C35 C -0.5102(5) 0.3323(4) -0.0013(4)
C36 C -0.6241(6) 0.3452(5) 0.0137(4)
H34 H -0.7027 0.3048 -0.0292
C37 C -0.6281(6) 0.4131(5) 0.0861(4)
H35 H -0.7109 0.4194 0.0931
C38 C -0.5170(6) 0.4717(4) 0.1489(4)
C39 C -0.4024(5) 0.4618(4) 0.1350(4)
H36 H -0.3233 0.5033 0.1770
C40 C -0.3989(6) 0.3930(4) 0.0615(4)
H37 H -0.3165 0.3869 0.0535
loop_
_geom_bond_atom_site_label_1
_geom_bond_atom_site_label_2
_geom_bond_site_symmetry_1
_geom_bond_site_symmetry_2
Cu1 N3A 1_555 1_555
N1 C1 1_555 1_555
N2 C8 1_555 1_555
N3 C11 1_555 1_555
N4 C16 1_555 1_555
N5 O1 1_555 1_555
N6 O4 1_555 1_555
N7 H1 1_555 1_555
H2 N7 1_555 1_555
N8 H3 1_555 1_555
H4 N8 1_555 1_555
N9 H5 1_555 1_555
H6 N9 1_555 1_555
O1 Cu1_2 1_555 1_555
O2 N5 1_555 1_555
O3 N5 1_555 1_555
O5 N6 1_555 1_555
O6 N6 1_555 1_555
O7 C28 1_555 1_555
O8 H7 1_555 1_555
O9 C21 1_555 1_555
O10 H8 1_555 1_555
O11 C34 1_555 1_555
O12 H9 1_555 1_555
C1 H10 1_555 1_555
C2 C1 1_555 1_555
H11 C2 1_555 1_555
C3 C2 1_555 1_555
C4 C3 1_555 1_555
H12 C4 1_555 1_555
C5 N1 1_555 1_555
H13 C5 1_555 1_555
C6 C3 1_555 1_555
C7 C6 1_555 1_555
H14 C7 1_555 1_555
C8 C7 1_555 1_555
H15 C8A 1_555 1_555
C9 H16 1_555 1_555
C10 C6 1_555 1_555
H17 C10 1_555 1_555
C11 H18 1_555 1_555
C12 C11 1_555 1_555
H19 C12 1_555 1_555
C13 C12 1_555 1_555
C14 H20 1_555 1_555
C15 C14 1_555 1_555
H21 C15 1_555 1_555
C16 H22 1_555 1_555
C17 C16 1_555 1_555
H23 C17 1_555 1_555
C18 C17 1_555 1_555
C19 H24 1_555 1_555
C20 C19 1_555 1_555
H25 C20 1_555 1_555
C21 O10 1_555 1_555
C22 C21 1_555 1_555
C23 C22 1_555 1_555
H26 C23 1_555 1_555
C24 C23 1_555 1_555
H27 C24 1_555 1_555
C25 N8 1_555 1_555
C26 C25 1_555 1_555
H28 C26 1_555 1_555
C27 C22 1_555 1_555
H29 C27 1_555 1_555
C28 O8 1_555 1_555
C29 C28 1_555 1_555
C30 C29 1_555 1_555
H30 C30 1_555 1_555
C31 C30 1_555 1_555
H31 C31 1_555 1_555
C32 H32 1_555 1_555
C33 C29 1_555 1_555
H33 C33 1_555 1_555
C34 O12 1_555 1_555
C35 C34 1_555 1_555
C36 C35 1_555 1_555
H34 C36 1_555 1_555
C37 C36 1_555 1_555
H35 C37 1_555 1_555
C38 N9 1_555 1_555
C39 C38 1_555 1_555
H36 C39 1_555 1_555
C40 C35 1_555 1_555
H37 C40 1_555 1_555
C41 N7 1_555 1_555
Cu1A N2 1_555 1_555
C13A C13 1_555 1_555
C12A C13A 1_555 1_555
C11A C12A 1_555 1_555
N3A C15 1_555 1_555
Cu1A_2 N1 1_555 1_555
N1A Cu1 1_555 1_555
C1A N1A 1_555 1_555
H10A C1A 1_555 1_555
C2A C1A 1_555 1_555
H11A C2A 1_555 1_555
C3A C2A 1_555 1_555
C4A C3A 1_555 1_555
H12A C4A 1_555 1_555
C5A N1A 1_555 1_555
H13A C5A 1_555 1_555
C6A C3A 1_555 1_555
C7A C6A 1_555 1_555
H14A C7A 1_555 1_555
C8A C7A 1_555 1_555
N2A C9 1_555 1_555
Cu1_2 N4 1_555 1_555
N1A_2 Cu1_2 1_555 1_555
N3A_2 Cu1_2 1_555 1_555
C18A C18 1_555 1_555
C17A C18A 1_555 1_555
C16A C17A 1_555 1_555
N4A C20 1_555 1_555
Cu1A_3 N4A 1_555 1_555
H22A C16A 1_555 1_555
H23A C17A 1_555 1_555
C19A C18 1_555 1_555
H24A C19A 1_555 1_555
C20A N4 1_555 1_555
H25A C20A 1_555 1_555
C10A C9 1_555 1_555
H17A C10A 1_555 1_555
N2A_2 Cu1 1_555 1_555
N4_2 Cu1 1_555 1_555
O1_2 Cu1 1_555 1_555
N5_2 O1_2 1_555 1_555
O2_2 N5_2 1_555 1_555
O3_2 N5_2 1_555 1_555
O6_2 Cu1 1_555 1_555
N6_2 O6_2 1_555 1_555
O4_2 N6_2 1_555 1_555
O5_2 N6_2 1_555 1_555
H18A C11A 1_555 1_555
H19A C12A 1_555 1_555
C14A C13 1_555 1_555
H20A C14A 1_555 1_555
C15A N3 1_555 1_555
H21A C15A 1_555 1_555
C9A N2 1_555 1_555
H16A C9A 1_555 1_555
H15A C8 1_555 1_555
N3 Cu1A 1_555 1_555
O6 Cu1_2 1_555 1_555
C4 C5 1_555 1_555
C10 C9A 1_555 1_555
C14 C13A 1_555 1_555
C19 C18A 1_555 1_555
C24 C25 1_555 1_555
C26 C27 1_555 1_555
C31 C41 1_555 1_555
C32 C33 1_555 1_555
C32 C41 1_555 1_555
C37 C38 1_555 1_555
C39 C40 1_555 1_555
C11A N3A 1_555 1_555
C4A C5A 1_555 1_555
C6A C10A 1_555 1_555
C8A N2A 1_555 1_555
N2A Cu1_2 1_555 1_555
C16A N4A 1_555 1_555
C19A C20A 1_555 1_555
C14A C15A 1_555 1_555

#END
