
#######################################################################
#
#                 Cambridge Crystallographic Data Centre
#                                CCDC 
#
#######################################################################
#
# If this CIF has been generated from an entry in the Cambridge 
# Structural Database, then it will include bibliographic, chemical, 
# crystal, experimental, refinement or atomic coordinate data resulting 
# from the CCDC's data processing and validation procedures.
#
#######################################################################

data_LONTEO
_symmetry_cell_setting           triclinic
_symmetry_space_group_name_H-M   'P -1'
_symmetry_Int_Tables_number      2
_space_group_name_Hall           '-P 1'
loop_
_symmetry_equiv_pos_site_id
_symmetry_equiv_pos_as_xyz
1 x,y,z
2 -x,-y,-z
_cell_length_a                   10.2834(8)
_cell_length_b                   10.8709(8)
_cell_length_c                   17.6139(13)
_cell_angle_alpha                78.6800(10)
_cell_angle_beta                 88.1970(10)
_cell_angle_gamma                67.8620(10)
_cell_volume                     1786.45
loop_
_atom_site_label
_atom_site_type_symbol
_atom_site_fract_x
_atom_site_fract_y
_atom_site_fract_z
Cd1 Cd 0.27278(3) -0.22771(3) -0.348780(15)
C1 C 0.0757(4) 0.0784(4) -0.3165(2)
N1 N 0.3911(3) -0.3636(3) -0.44988(16)
H1 H 0.4849 -0.3943 -0.4417
H2 H 0.3665 -0.4358 -0.4450
O1 O 0.1489(3) -0.3565(3) -0.30781(18)
N2 N 0.2271(3) -0.0973(3) -0.46940(16)
H3 H 0.1331 -0.0544 -0.4757
H4 H 0.2625 -0.0330 -0.4700
C2 C -0.0435(5) 0.2813(5) -0.2633(4)
H5 H -0.0733 0.3232 -0.2212
N3 N 0.1493(4) -0.0596(3) -0.28779(19)
C3 C 0.2903(5) -0.1042(5) -0.8029(2)
H6 H 0.2678 -0.0500 -0.8522
N4 N 0.3981(3) -0.3443(3) -0.58046(18)
N5 N 0.2354(3) -0.0735(3) -0.59927(18)
C4 C 0.2673(4) -0.1458(4) -0.5268(2)
C5 C 0.2446(4) -0.0481(4) -0.7389(2)
H7 H 0.1897 0.0438 -0.7451
O2 O -0.0234(3) -0.1837(3) -0.37778(19)
C6 C 0.2799(4) -0.1281(4) -0.6652(2)
C7 C 0.3617(4) -0.2663(4) -0.6565(2)
N6 N 0.0777(4) 0.0424(4) -0.1885(2)
H8 H 0.0638 0.0532 -0.1414
C8 C 0.4064(5) -0.3234(5) -0.7206(2)
H9 H 0.4602 -0.4155 -0.7148
C9 C 0.0454(4) 0.1524(4) -0.3923(3)
H10 H 0.0736 0.1106 -0.4346
C10 C 0.3583(4) -0.2951(4) -0.5169(2)
C11 C -0.1358(5) -0.4512(5) -0.1565(3)
H11 H -0.1072 -0.5037 -0.1071
C12 C 0.1468(5) -0.0733(5) -0.2109(3)
H12 H 0.1891 -0.1556 -0.1767
C13 C 0.3699(5) -0.2414(5) -0.7939(3)
H13 H 0.3993 -0.2791 -0.8375
C14 C -0.0278(5) 0.2899(5) -0.4019(3)
H14 H -0.0493 0.3427 -0.4516
C15 C -0.0708(6) 0.3520(5) -0.3373(4)
H15 H -0.1199 0.4453 -0.3459
C16 C 0.0319(4) 0.1422(5) -0.2539(3)
C17 C 0.0183(4) -0.2848(4) -0.3243(2)
C18 C -0.0847(4) -0.3277(4) -0.2749(2)
C19 C -0.0408(4) -0.4121(4) -0.2026(2)
H16 H 0.0525 -0.4424 -0.1851
C20 C -0.2248(4) -0.2827(4) -0.3003(2)
H17 H -0.2559 -0.2222 -0.3473
C21 C -0.3183(4) -0.3272(4) -0.2562(2)
C22 C -0.4665(4) -0.2838(4) -0.2865(2)
C23 C -0.2729(4) -0.4128(4) -0.1837(2)
H18 H -0.3348 -0.4437 -0.1539
O3 O -0.5196(3) -0.1719(3) -0.33365(18)
O4 O -0.5338(3) -0.3585(3) -0.26608(19)
Cd1_2 Cd -0.72722(3) -0.22771(3) -0.348780(15)
O3_2 O 0.4804(3) -0.1719(3) -0.33365(18)
O4_2 O 0.4662(3) -0.3585(3) -0.26608(19)
Cd2 Cd 0.31634(3) 0.14038(3) -0.038050(17)
O5 O 0.0802(3) 0.1334(3) -0.05482(19)
O6 O 0.1200(4) 0.2536(5) 0.0197(2)
C24 C -0.1117(4) 0.2617(4) 0.0135(2)
C25 C -0.1635(5) 0.3718(4) 0.0499(3)
H19 H -0.1045 0.4147 0.0595
C26 C 0.0386(4) 0.2122(5) -0.0086(2)
N7 N 0.2642(3) 0.3129(3) -0.15170(17)
H20 H 0.1723 0.3656 -0.1529
H21 H 0.3130 0.3650 -0.1478
N8 N 0.3854(3) 0.0446(3) -0.15024(16)
H22 H 0.4786 -0.0039 -0.1452
H23 H 0.3426 -0.0136 -0.1514
N9 N 0.3921(3) 0.0866(3) -0.28092(19)
C27 C -0.2009(4) 0.1990(4) -0.0019(2)
H24 H -0.1677 0.1259 -0.0269
C28 C -0.3396(4) 0.2456(4) 0.0200(2)
C29 C 0.3604(4) 0.1238(4) -0.2128(2)
C30 C 0.2894(4) 0.2749(4) -0.2134(2)
C31 C -0.3875(4) 0.3552(5) 0.0572(3)
H25 H -0.4797 0.3863 0.0726
C32 C -0.2987(5) 0.4184(5) 0.0717(3)
H26 H -0.3315 0.4921 0.0961
N10 N 0.2590(4) 0.3587(3) -0.28285(19)
C33 C 0.3587(4) 0.1782(4) -0.3526(2)
C34 C 0.2891(4) 0.3160(4) -0.3534(2)
C35 C 0.3955(5) 0.1318(4) -0.4214(2)
H27 H 0.4428 0.0399 -0.4206
C36 C 0.2528(5) 0.4076(4) -0.4235(3)
H28 H 0.2042 0.4994 -0.4244
C37 C 0.3609(5) 0.2243(5) -0.4913(3)
H29 H 0.3856 0.1946 -0.5377
C38 C 0.2889(5) 0.3621(5) -0.4919(3)
H30 H 0.2652 0.4238 -0.5388
C39 C -0.4388(4) 0.1824(5) 0.0018(2)
O7 O -0.3936(3) 0.0766(3) -0.02560(16)
O8 O -0.5674(3) 0.2439(4) 0.0117(2)
Cd2A Cd -0.31634(3) -0.14038(3) 0.038050(17)
Cd2_2 Cd -0.68366(3) 0.14038(3) -0.038050(17)
O7A O 0.3936(3) -0.0766(3) 0.02560(16)
O8_2 O 0.4326(3) 0.2439(4) 0.0117(2)
loop_
_geom_bond_atom_site_label_1
_geom_bond_atom_site_label_2
_geom_bond_site_symmetry_1
_geom_bond_site_symmetry_2
Cd1 N1 1_555 1_555
C1 N3 1_555 1_555
N1 H1 1_555 1_555
H2 N1 1_555 1_555
O1 Cd1 1_555 1_555
N2 Cd1 1_555 1_555
H3 N2 1_555 1_555
H4 N2 1_555 1_555
C2 H5 1_555 1_555
N3 Cd1 1_555 1_555
C3 H6 1_555 1_555
N4 C7 1_555 1_555
N5 C4 1_555 1_555
C4 N2 1_555 1_555
C5 C3 1_555 1_555
H7 C5 1_555 1_555
O2 C17 1_555 1_555
C6 N5 1_555 1_555
C7 C6 1_555 1_555
N6 H8 1_555 1_555
C8 C7 1_555 1_555
H9 C8 1_555 1_555
C9 C1 1_555 1_555
H10 C9 1_555 1_555
C10 N1 1_555 1_555
C11 H11 1_555 1_555
C12 N3 1_555 1_555
H12 C12 1_555 1_555
C13 C3 1_555 1_555
H13 C13 1_555 1_555
C14 C9 1_555 1_555
H14 C14 1_555 1_555
C15 C2 1_555 1_555
H15 C15 1_555 1_555
C16 C1 1_555 1_555
C17 O1 1_555 1_555
C18 C17 1_555 1_555
C19 C11 1_555 1_555
H16 C19 1_555 1_555
C20 C18 1_555 1_555
H17 C20 1_555 1_555
C21 C20 1_555 1_555
C22 C21 1_555 1_555
C23 C11 1_555 1_555
H18 C23 1_555 1_555
O3 C22 1_555 1_555
O4 C22 1_555 1_555
Cd2 O5 1_555 1_555
O5 C26 1_555 1_555
O6 Cd2 1_555 1_555
C24 C25 1_555 1_555
C25 H19 1_555 1_555
C26 O6 1_555 1_555
N7 Cd2 1_555 1_555
H20 N7 1_555 1_555
H21 N7 1_555 1_555
N8 Cd2 1_555 1_555
H22 N8 1_555 1_555
H23 N8 1_555 1_555
N9 C29 1_555 1_555
C27 C24 1_555 1_555
H24 C27 1_555 1_555
C28 C27 1_555 1_555
C29 N8 1_555 1_555
C30 N7 1_555 1_555
C31 C28 1_555 1_555
H25 C31 1_555 1_555
C32 C25 1_555 1_555
H26 C32 1_555 1_555
N10 C30 1_555 1_555
C33 N9 1_555 1_555
C34 N10 1_555 1_555
C35 C33 1_555 1_555
H27 C35 1_555 1_555
C36 C34 1_555 1_555
H28 C36 1_555 1_555
C37 C35 1_555 1_555
H29 C37 1_555 1_555
C38 C36 1_555 1_555
H30 C38 1_555 1_555
C39 C28 1_555 1_555
O7 C39 1_555 1_555
O8 C39 1_555 1_555
Cd1_2 O3 1_555 1_555
O3_2 Cd1 1_555 1_555
O4_2 Cd1 1_555 1_555
Cd2A O7 1_555 1_555
Cd2_2 O8 1_555 1_555
O7A Cd2 1_555 1_555
O8_2 Cd2 1_555 1_555
C2 C16 1_555 1_555
N4 C10 1_555 1_555
C4 C10 1_555 1_555
C5 C6 1_555 1_555
N6 C12 1_555 1_555
N6 C16 1_555 1_555
C8 C13 1_555 1_555
C14 C15 1_555 1_555
C18 C19 1_555 1_555
C21 C23 1_555 1_555
O4 Cd1_2 1_555 1_555
C24 C26 1_555 1_555
C29 C30 1_555 1_555
C31 C32 1_555 1_555
C33 C34 1_555 1_555
C37 C38 1_555 1_555

#END
