
#######################################################################
#
#                 Cambridge Crystallographic Data Centre
#                                CCDC 
#
#######################################################################
#
# If this CIF has been generated from an entry in the Cambridge 
# Structural Database, then it will include bibliographic, chemical, 
# crystal, experimental, refinement or atomic coordinate data resulting 
# from the CCDC's data processing and validation procedures.
#
#######################################################################

data_LONVOA
_symmetry_cell_setting           monoclinic
_symmetry_space_group_name_H-M   'P 21/c'
_symmetry_Int_Tables_number      14
_space_group_name_Hall           '-P 2ybc'
loop_
_symmetry_equiv_pos_site_id
_symmetry_equiv_pos_as_xyz
1 x,y,z
2 -x,1/2+y,1/2-z
3 -x,-y,-z
4 x,1/2-y,1/2+z
_cell_length_a                   8.4045(12)
_cell_length_b                   12.6831(18)
_cell_length_c                   8.0310(11)
_cell_angle_alpha                90
_cell_angle_beta                 91.203(2)
_cell_angle_gamma                90
_cell_volume                     855.877
loop_
_atom_site_label
_atom_site_type_symbol
_atom_site_fract_x
_atom_site_fract_y
_atom_site_fract_z
Cu1 Cu 0.5000 0.5000 0.0000
N1 N 0.3548(3) 0.61380(19) 0.0679(3)
C1 C 0.3938(4) 0.7091(3) 0.1415(4)
H1 H 0.4962 0.7314 0.1696
C2 C 0.2594(5) 0.7645(3) 0.1662(5)
H2 H 0.2521 0.8316 0.2120
C3 C 0.1992(4) 0.6131(3) 0.0528(4)
H3 H 0.1397 0.5578 0.0078
N2 N 0.1372(3) 0.7032(2) 0.1111(3)
H4 H 0.0378 0.7192 0.1131
O1 O 0.6347(3) 0.52760(17) 0.2009(3)
O2 O 0.8024(3) 0.64822(17) 0.1055(2)
C4 C 0.7479(3) 0.5922(2) 0.2195(3)
C5 C 0.8250(4) 0.6026(3) 0.3901(3)
H5 H 0.8697 0.6728 0.4011
H6 H 0.9120 0.5526 0.3994
C6 C 0.7126(4) 0.5840(3) 0.5315(3)
H7 H 0.6194 0.6282 0.5155
H8 H 0.6778 0.5111 0.5289
C7 C 0.7866(4) 0.6071(2) 0.6987(3)
O3 O 0.6798(3) 0.62798(17) 0.8135(2)
H9 H 0.7446 0.6283 0.8913
O4 O 0.9278(3) 0.6070(2) 0.7281(3)
Cu1_2 Cu 0.5000 0.5000 1.0000
Cu1_3 Cu 0.5000 0.5000 -1.0000
N1B N 0.6452(3) 0.38620(19) -0.0679(3)
C1B C 0.6062(4) 0.2909(3) -0.1415(4)
H1B H 0.5038 0.2686 -0.1696
C2B C 0.7406(5) 0.2355(3) -0.1662(5)
H2B H 0.7479 0.1684 -0.2120
C3B C 0.8008(4) 0.3869(3) -0.0528(4)
H3B H 0.8603 0.4422 -0.0078
N2B N 0.8628(3) 0.2968(2) -0.1111(3)
H4B H 0.9622 0.2808 -0.1131
O1B O 0.3653(3) 0.47240(17) -0.2009(3)
O2B O 0.1976(3) 0.35178(17) -0.1055(2)
C4B C 0.2521(3) 0.4078(2) -0.2195(3)
C5B C 0.1750(4) 0.3974(3) -0.3901(3)
H5B H 0.1303 0.3272 -0.4011
H6B H 0.0880 0.4474 -0.3994
C6B C 0.2874(4) 0.4160(3) -0.5315(3)
H7B H 0.3806 0.3718 -0.5155
H8B H 0.3222 0.4889 -0.5289
C7B C 0.2134(4) 0.3929(2) -0.6987(3)
O3B O 0.3202(3) 0.37202(17) -0.8135(2)
O3_2 O 0.6798(3) 0.62798(17) -0.1865(2)
O3B_2 O 0.3202(3) 0.37202(17) 0.1865(2)
H9B H 0.2554 0.3717 -0.8913
H9_2 H 0.7446 0.6283 -0.1087
H9B_2 H 0.2554 0.3717 0.1087
O4B O 0.0722(3) 0.3930(2) -0.7281(3)
loop_
_geom_bond_atom_site_label_1
_geom_bond_atom_site_label_2
_geom_bond_site_symmetry_1
_geom_bond_site_symmetry_2
Cu1 N1 1_555 1_555
N1 C1 1_555 1_555
C1 H1 1_555 1_555
C2 C1 1_555 1_555
H2 C2 1_555 1_555
C3 N1 1_555 1_555
H3 C3 1_555 1_555
N2 C2 1_555 1_555
H4 N2 1_555 1_555
O1 Cu1 1_555 1_555
O2 C4 1_555 1_555
C4 O1 1_555 1_555
C5 C4 1_555 1_555
H5 C5 1_555 1_555
H6 C5 1_555 1_555
C6 C5 1_555 1_555
H7 C6 1_555 1_555
H8 C6 1_555 1_555
C7 C6 1_555 1_555
O3 C7 1_555 1_555
H9 O3 1_555 1_555
O4 C7 1_555 1_555
Cu1_2 O3 1_555 1_555
Cu1_3 O3B 1_555 1_555
N1B Cu1 1_555 1_555
C1B N1B 1_555 1_555
H1B C1B 1_555 1_555
C2B C1B 1_555 1_555
H2B C2B 1_555 1_555
C3B N1B 1_555 1_555
H3B C3B 1_555 1_555
N2B C2B 1_555 1_555
H4B N2B 1_555 1_555
O1B Cu1 1_555 1_555
O2B C4B 1_555 1_555
C4B O1B 1_555 1_555
C5B C4B 1_555 1_555
H5B C5B 1_555 1_555
H6B C5B 1_555 1_555
C6B C5B 1_555 1_555
H7B C6B 1_555 1_555
H8B C6B 1_555 1_555
C7B C6B 1_555 1_555
O3B C7B 1_555 1_555
O3_2 Cu1 1_555 1_555
O3B_2 Cu1 1_555 1_555
H9B O3B 1_555 1_555
H9_2 O3_2 1_555 1_555
H9B_2 O3B_2 1_555 1_555
O4B C7B 1_555 1_555
C3 N2 1_555 1_555
C3B N2B 1_555 1_555

#END
