
#######################################################################
#
#                 Cambridge Crystallographic Data Centre
#                                CCDC 
#
#######################################################################
#
# If this CIF has been generated from an entry in the Cambridge 
# Structural Database, then it will include bibliographic, chemical, 
# crystal, experimental, refinement or atomic coordinate data resulting 
# from the CCDC's data processing and validation procedures.
#
#######################################################################

data_LONWIW
_symmetry_cell_setting           triclinic
_symmetry_space_group_name_H-M   'P -1'
_symmetry_Int_Tables_number      2
_space_group_name_Hall           '-P 1'
loop_
_symmetry_equiv_pos_site_id
_symmetry_equiv_pos_as_xyz
1 x,y,z
2 -x,-y,-z
_cell_length_a                   13.6132(9)
_cell_length_b                   18.0261(12)
_cell_length_c                   22.945(2)
_cell_angle_alpha                69.574(3)
_cell_angle_beta                 88.899(4)
_cell_angle_gamma                89.147(3)
_cell_volume                     5275.34
loop_
_atom_site_label
_atom_site_type_symbol
_atom_site_fract_x
_atom_site_fract_y
_atom_site_fract_z
Mg1 Mg -0.08821(7) 0.79426(6) 0.39759(5)
Mg2 Mg 0.12418(7) 0.86681(6) 0.25039(5)
Mg3 Mg 0.34246(7) 0.94376(6) 0.10503(5)
Mg4 Mg 0.60702(7) 0.69053(6) 0.61170(5)
Mg5 Mg 0.37601(7) 0.63236(6) 0.75093(5)
Mg6 Mg 0.14780(7) 0.56977(6) 0.89026(5)
O1 O 0.04652(15) 0.83785(13) 0.40443(10)
O2 O 0.16576(15) 0.82400(13) 0.34109(10)
O3 O 0.47113(15) 0.65929(13) 0.59352(10)
O4 O 0.34944(15) 0.66705(13) 0.65819(10)
O5 O 0.34043(17) 0.78134(16) 0.38177(11)
H1 H 0.297(3) 0.794(2) 0.3574(18)
O6 O 0.17636(17) 0.71824(16) 0.61661(11)
H2 H 0.218(3) 0.701(2) 0.6403(18)
O7 O -0.12373(15) 0.89513(13) 0.32491(10)
O8 O 0.00373(15) 0.93261(13) 0.25854(10)
O9 O -0.26427(15) 1.29041(13) 0.25039(10)
O10 O -0.13851(15) 1.32613(13) 0.18231(10)
O11 O 0.02405(18) 1.07798(16) 0.18795(12)
H3 H 0.040(3) 1.030(2) 0.2075(18)
O12 O -0.28710(18) 1.14290(14) 0.32063(12)
H4 H -0.291(3) 1.189(2) 0.3048(18)
O13 O 0.04662(15) 0.26899(13) 0.65676(10)
O14 O -0.04269(15) 0.22905(13) 0.74459(10)
O15 O 0.28694(16) 0.54039(13) 0.75617(10)
O16 O 0.20119(15) 0.49857(13) 0.84501(10)
O17 O -0.01388(19) 0.28631(16) 0.83088(12)
H5 H -0.040(3) 0.260(2) 0.8084(19)
O18 O 0.25608(19) 0.48450(16) 0.66927(12)
H6 H 0.285(3) 0.509(2) 0.6899(18)
O19 O 0.20340(15) 0.96385(12) 0.24678(10)
O20 O 0.29271(15) 1.00416(12) 0.15906(10)
O21 O 0.44662(15) 1.23482(12) 0.34564(10)
O22 O 0.53339(15) 1.27508(13) 0.25702(10)
O23 O 0.23460(18) 1.02026(15) 0.33341(11)
H7 H 0.202(3) 0.992(2) 0.3139(17)
O24 O 0.50393(19) 1.21820(16) 0.17107(12)
H8 H 0.529(3) 1.245(2) 0.1928(18)
O25 O 0.08769(15) 0.90934(13) 0.15855(10)
O26 O 0.20919(15) 0.90326(12) 0.09340(10)
O27 O -0.08712(17) 0.95180(16) 0.11718(11)
H9 H -0.044(3) 0.940(2) 0.1399(17)
O28 O 0.40439(15) 0.59985(13) 0.84375(10)
O29 O 0.28449(15) 0.59627(12) 0.91262(10)
O30 O 0.58054(17) 0.54862(16) 0.88105(11)
H10 H 0.538(3) 0.558(2) 0.8597(18)
O31 O 0.62238(15) 0.59361(13) 0.69141(10)
O32 O 0.48919(15) 0.55634(13) 0.75274(10)
O33 O 0.75748(15) 0.19871(13) 0.76090(10)
O34 O 0.62660(15) 0.16116(12) 0.82458(10)
O35 O 0.46302(18) 0.40883(15) 0.82098(12)
H11 H 0.443(3) 0.457(2) 0.7989(18)
O36 O 0.79035(19) 0.34728(15) 0.69968(13)
H12 H 0.797(3) 0.298(2) 0.7138(19)
O37 O -0.23181(16) 0.75688(14) 0.39696(11)
O38 O -0.13772(16) 0.85152(14) 0.45887(11)
O39 O -0.05379(17) 0.69316(14) 0.47208(11)
O40 O 0.31432(17) 1.04953(14) 0.03179(11)
O41 O 0.39946(16) 0.89382(14) 0.04132(10)
O42 O 0.48696(15) 0.97803(13) 0.11454(11)
O43 O 0.75008(16) 0.72279(14) 0.62469(11)
O44 O 0.60399(17) 0.78748(14) 0.52909(10)
O45 O 0.66801(16) 0.62596(14) 0.56039(11)
O46 O 0.14732(17) 0.46734(14) 0.97094(11)
O47 O 0.09067(16) 0.62842(14) 0.94857(10)
O48 O 0.00864(16) 0.54701(14) 0.86803(11)
N1 N -0.3586(2) 0.7228(2) 0.34952(15)
N2 N -0.1525(2) 0.96515(18) 0.47998(14)
N3 N -0.0383(2) 0.60640(18) 0.56960(14)
N4 N 0.3055(2) 1.14225(18) -0.06430(14)
N5 N 0.4119(2) 0.78705(17) 0.01136(14)
N6 N 0.6003(2) 0.9962(2) 0.17966(15)
N7 N 0.8613(2) 0.7498(2) 0.68763(16)
N8 N 0.5280(2) 0.89198(18) 0.45934(15)
N9 N 0.6775(2) 0.51620(19) 0.53377(15)
N10 N 0.2324(2) 0.36004(18) 1.03234(14)
N11 N 0.0803(2) 0.73976(18) 0.97304(14)
N12 N -0.1226(2) 0.47788(18) 0.85886(14)
C1 C 0.1316(2) 0.81798(19) 0.39432(15)
C2 C 0.1991(2) 0.78379(19) 0.44765(14)
C3 C 0.2978(2) 0.76704(19) 0.43914(14)
C4 C 0.3553(2) 0.73270(19) 0.49104(14)
H13 H 0.4209 0.7211 0.4854
C5 C 0.3181(2) 0.71508(19) 0.55132(14)
C6 C 0.2194(2) 0.73302(19) 0.55966(15)
C7 C 0.1617(2) 0.76738(19) 0.50791(15)
H14 H 0.0964 0.7798 0.5134
C8 C 0.3850(2) 0.67774(18) 0.60466(15)
C9 C -0.0720(2) 0.9463(2) 0.28545(15)
C10 C -0.1019(2) 1.03165(19) 0.26846(15)
C11 C -0.0532(2) 1.0920(2) 0.22148(15)
C12 C -0.0830(2) 1.1698(2) 0.20819(16)
H15 H -0.0501 1.2097 0.1771
C13 C -0.1606(2) 1.18995(19) 0.24004(15)
C14 C -0.2099(2) 1.1297(2) 0.28733(15)
C15 C -0.1788(2) 1.0521(2) 0.30092(15)
H16 H -0.2103 1.0123 0.3328
C16 C -0.1894(2) 1.2759(2) 0.22252(15)
C17 C 0.0222(2) 0.27236(19) 0.70850(16)
C18 C 0.0719(2) 0.33058(19) 0.73064(15)
C19 C 0.0527(2) 0.3339(2) 0.78995(16)
C20 C 0.1040(2) 0.3879(2) 0.80892(16)
H17 H 0.0926 0.3894 0.8486
C21 C 0.1719(2) 0.43938(19) 0.76985(15)
C22 C 0.1906(2) 0.43605(19) 0.71044(15)
C23 C 0.1395(2) 0.3832(2) 0.69163(16)
H18 H 0.1502 0.3826 0.6517
C24 C 0.2234(2) 0.49684(18) 0.79253(15)
C25 C 0.2682(2) 1.00690(18) 0.21092(15)
C26 C 0.3186(2) 1.06501(19) 0.23302(15)
C27 C 0.3006(2) 1.06847(19) 0.29256(15)
C28 C 0.3516(2) 1.12214(19) 0.31084(15)
H19 H 0.3401 1.1241 0.3504
C29 C 0.4199(2) 1.17356(19) 0.27155(15)
C30 C 0.4378(2) 1.1706(2) 0.21221(16)
C31 C 0.3862(2) 1.11660(19) 0.19380(15)
H20 H 0.3973 1.1150 0.1541
C32 C 0.4700(2) 1.23198(18) 0.29370(15)
C33 C 0.1241(2) 0.92177(18) 0.10482(15)
C34 C 0.0583(2) 0.96159(18) 0.05165(15)
C35 C -0.0418(2) 0.97490(19) 0.06001(15)
C36 C -0.0986(2) 1.01239(19) 0.00875(14)
H21 H -0.1652 1.0206 0.0144
C37 C 0.3705(2) 0.58236(18) 0.89847(15)
C38 C 0.4392(2) 0.54091(19) 0.95010(15)
C39 C 0.5380(2) 0.52572(19) 0.93903(15)
C40 C 0.4031(2) 0.51491(19) 1.01105(14)
H22 H 0.3378 0.5251 1.0185
C41 C 0.5684(2) 0.54255(19) 0.72878(15)
C42 C 0.5982(2) 0.45715(19) 0.74682(15)
C43 C 0.5446(2) 0.3959(2) 0.79027(16)
C44 C 0.5739(2) 0.31811(19) 0.80258(15)
H23 H 0.5382 0.2778 0.8315
C45 C 0.6549(2) 0.29833(19) 0.77308(15)
C46 C 0.7093(2) 0.3596(2) 0.73049(16)
C47 C 0.6801(2) 0.43736(19) 0.71839(16)
H24 H 0.7166 0.4777 0.6902
C48 C 0.6816(2) 0.21272(19) 0.78768(15)
C49 C -0.2707(3) 0.7528(2) 0.35094(18)
H25 H -0.2358 0.7724 0.3135
C50 C -0.4183(3) 0.6912(3) 0.40518(19)
H26 H -0.3912 0.7063 0.4377
H27 H -0.4194 0.6345 0.4179
H28 H -0.4841 0.7117 0.3970
C51 C -0.3952(3) 0.7127(3) 0.2937(2)
H29 H -0.3493 0.7350 0.2600
H30 H -0.4575 0.7392 0.2833
H31 H -0.4028 0.6573 0.3009
C52 C -0.1133(3) 0.9202(2) 0.45074(17)
H32 H -0.0634 0.9419 0.4218
C53 C -0.2341(3) 0.9376(3) 0.5232(2)
H33 H -0.2405 0.8814 0.5341
H34 H -0.2935 0.9634 0.5042
H35 H -0.2225 0.9496 0.5601
C54 C -0.1257(3) 1.0485(2) 0.4636(2)
H36 H -0.0697 1.0597 0.4359
H37 H -0.1100 1.0588 0.5006
H38 H -0.1799 1.0816 0.4434
C55 C -0.0829(3) 0.6647(2) 0.52606(17)
H39 H -0.1402 0.6855 0.5371
C56 C 0.0531(3) 0.5708(2) 0.55696(19)
H40 H 0.0724 0.5965 0.5142
H41 H 0.0432 0.5155 0.5649
H42 H 0.1037 0.5770 0.5834
C57 C -0.0781(3) 0.5735(3) 0.63246(19)
H43 H -0.1372 0.6015 0.6358
H44 H -0.0308 0.5786 0.6613
H45 H -0.0926 0.5185 0.6419
C58 C 0.3477(3) 1.0812(2) -0.02078(18)
H46 H 0.4064 1.0615 -0.0311
C59 C 0.2119(3) 1.1764(2) -0.05488(18)
H47 H 0.1868 1.1477 -0.0139
H48 H 0.1661 1.1733 -0.0852
H49 H 0.2208 1.2309 -0.0593
C60 C 0.3511(3) 1.1762(3) -0.12565(19)
H50 H 0.4154 1.1534 -0.1254
H51 H 0.3567 1.2325 -0.1363
H52 H 0.3115 1.1653 -0.1558
C61 C 0.3731(3) 0.8269(2) 0.04486(17)
H53 H 0.3227 0.8032 0.0728
C62 C 0.4920(3) 0.8182(2) -0.03231(19)
H54 H 0.4943 0.8747 -0.0432
H55 H 0.4821 0.8055 -0.0690
H56 H 0.5529 0.7952 -0.0136
C63 C 0.3838(3) 0.7055(2) 0.0227(2)
H57 H 0.3331 0.6904 0.0542
H58 H 0.4399 0.6713 0.0365
H59 H 0.3600 0.7010 -0.0150
C64 C 0.5151(3) 0.9727(2) 0.16649(18)
H60 H 0.4721 0.9498 0.1997
C65 C 0.6732(3) 1.0345(3) 0.1318(2)
H61 H 0.6509 1.0349 0.0922
H62 H 0.7343 1.0059 0.1414
H63 H 0.6825 1.0879 0.1301
C66 C 0.6216(3) 0.9912(3) 0.2425(2)
H64 H 0.5652 0.9714 0.2688
H65 H 0.6373 1.0428 0.2427
H66 H 0.6765 0.9560 0.2576
C67 C 0.7767(3) 0.7235(2) 0.67526(19)
H67 H 0.7327 0.7034 0.7085
C68 C 0.9326(3) 0.7866(3) 0.6375(2)
H68 H 0.9071 0.7868 0.5987
H69 H 0.9931 0.7570 0.6459
H70 H 0.9443 0.8400 0.6350
C69 C 0.8834(3) 0.7507(3) 0.7491(2)
H71 H 0.8287 0.7299 0.7767
H72 H 0.8955 0.8040 0.7466
H73 H 0.9407 0.7186 0.7646
C70 C 0.5376(3) 0.8353(2) 0.51473(17)
H74 H 0.4893 0.8323 0.5447
C71 C 0.4407(3) 0.9419(3) 0.4449(2)
H75 H 0.4010 0.9317 0.4819
H76 H 0.4038 0.9305 0.4139
H77 H 0.4597 0.9965 0.4295
C72 C 0.5967(3) 0.8980(3) 0.40915(19)
H78 H 0.6535 0.8656 0.4254
H79 H 0.6164 0.9521 0.3897
H80 H 0.5660 0.8803 0.3791
C73 C 0.6400(3) 0.5594(2) 0.56475(17)
H81 H 0.5881 0.5381 0.5922
C74 C 0.7588(3) 0.5443(3) 0.48999(19)
H82 H 0.7662 0.6002 0.4803
H83 H 0.7457 0.5338 0.4526
H84 H 0.8181 0.5174 0.5081
C75 C 0.6459(4) 0.4347(3) 0.5470(3)
H85 H 0.5943 0.4222 0.5780
H86 H 0.7004 0.3993 0.5621
H87 H 0.6221 0.4292 0.5097
C76 C 0.2157(3) 0.4207(2) 0.97982(17)
H88 H 0.2603 0.4279 0.9471
C77 C 0.1701(3) 0.3469(2) 1.08623(17)
H89 H 0.1065 0.3699 1.0735
H90 H 0.1987 0.3709 1.1131
H91 H 0.1636 0.2910 1.1080
C78 C 0.3205(3) 0.3115(2) 1.0407(2)
H92 H 0.3577 0.3269 1.0024
H93 H 0.3026 0.2569 1.0524
H94 H 0.3595 0.3186 1.0727
C79 C 0.1196(3) 0.6949(2) 0.94374(16)
H95 H 0.1732 0.7149 0.9175
C80 C -0.0061(3) 0.7152(2) 1.01292(18)
H96 H -0.0207 0.6612 1.0186
H97 H -0.0609 0.7484 0.9940
H98 H 0.0062 0.7198 1.0526
C81 C 0.1166(3) 0.8192(2) 0.9619(2)
H99 H 0.1732 0.8287 0.9348
H100 H 0.1345 0.8239 1.0008
H101 H 0.0662 0.8573 0.9430
C82 C -0.0551(3) 0.4986(2) 0.89123(18)
H102 H -0.0566 0.4745 0.9343
C83 C -0.1225(3) 0.5086(3) 0.79226(18)
H103 H -0.0662 0.5418 0.7772
H104 H -0.1813 0.5391 0.7782
H105 H -0.1198 0.4656 0.7767
C84 C -0.1966(3) 0.4197(2) 0.88970(19)
H106 H -0.1894 0.4037 0.9339
H107 H -0.1887 0.3745 0.8771
H108 H -0.2608 0.4425 0.8785
O25A O -0.08769(15) 1.09066(13) -0.15855(10)
O26A O -0.20919(15) 1.09674(12) -0.09340(10)
O27A O 0.08712(17) 1.04820(16) -0.11718(11)
H9A H 0.044(3) 1.060(2) -0.1399(17)
C33A C -0.1241(2) 1.07823(18) -0.10482(15)
C34A C -0.0583(2) 1.03841(18) -0.05165(15)
C35A C 0.0418(2) 1.02510(19) -0.06001(15)
C36A C 0.0986(2) 0.98761(19) -0.00875(14)
H21A H 0.1652 0.9794 -0.0144
O28A O 0.59561(15) 0.40015(13) 1.15625(10)
O29A O 0.71551(15) 0.40373(12) 1.08738(10)
O30A O 0.41946(17) 0.45138(16) 1.11895(11)
H10A H 0.462(3) 0.442(2) 1.1403(18)
C37A C 0.6295(2) 0.41764(18) 1.10153(15)
C38A C 0.5608(2) 0.45909(19) 1.04990(15)
C39A C 0.4620(2) 0.47428(19) 1.06097(15)
C40A C 0.5969(2) 0.48509(19) 0.98895(14)
H22A H 0.6622 0.4749 0.9815
Mg1A Mg 0.08821(7) 0.20574(6) 0.60241(5)
Mg2A Mg -0.12418(7) 0.13319(6) 0.74961(5)
Mg3A Mg -0.34246(7) 0.05624(6) 0.89497(5)
Mg4A Mg -0.60702(7) 0.30947(6) 0.38830(5)
Mg5A Mg -0.37601(7) 0.36764(6) 0.24907(5)
Mg6A Mg -0.14780(7) 0.43023(6) 0.10974(5)
O1A O -0.04652(15) 0.16215(13) 0.59557(10)
O2A O -0.16576(15) 0.17600(13) 0.65891(10)
O3A O -0.47113(15) 0.34071(13) 0.40648(10)
O4A O -0.34944(15) 0.33295(13) 0.34181(10)
O5A O -0.34043(17) 0.21866(16) 0.61823(11)
H1A H -0.297(3) 0.206(2) 0.6426(18)
O6A O -0.17636(17) 0.28176(16) 0.38339(11)
H2A H -0.218(3) 0.299(2) 0.3597(18)
O7A O 0.12373(15) 0.10487(13) 0.67509(10)
O8A O -0.00373(15) 0.06739(13) 0.74146(10)
O9A O 0.26427(15) -0.29041(13) 0.74961(10)
O10A O 0.13851(15) -0.32613(13) 0.81769(10)
O11A O -0.02405(18) -0.07798(16) 0.81205(12)
H3A H -0.040(3) -0.030(2) 0.7925(18)
O12A O 0.28710(18) -0.14290(14) 0.67937(12)
H4A H 0.291(3) -0.189(2) 0.6952(18)
O13A O -0.04662(15) 0.73101(13) 0.34324(10)
O14A O 0.04269(15) 0.77095(13) 0.25541(10)
O15A O -0.28694(16) 0.45961(13) 0.24383(10)
O16A O -0.20119(15) 0.50143(13) 0.15499(10)
O17A O 0.01388(19) 0.71369(16) 0.16912(12)
H5A H 0.040(3) 0.740(2) 0.1916(19)
O18A O -0.25608(19) 0.51550(16) 0.33073(12)
H6A H -0.285(3) 0.491(2) 0.3101(18)
O19A O -0.20340(15) 0.03615(12) 0.75322(10)
O20A O -0.29271(15) -0.00416(12) 0.84094(10)
O21A O -0.44662(15) -0.23482(12) 0.65436(10)
O22A O -0.53339(15) -0.27508(13) 0.74298(10)
O23A O -0.23460(18) -0.02026(15) 0.66659(11)
H7A H -0.202(3) 0.008(2) 0.6861(17)
O24A O -0.50393(19) -0.21820(16) 0.82893(12)
H8A H -0.529(3) -0.245(2) 0.8072(18)
O31A O -0.62238(15) 0.40639(13) 0.30859(10)
O32A O -0.48919(15) 0.44366(13) 0.24726(10)
O33A O -0.75748(15) 0.80129(13) 0.23910(10)
O34A O -0.62660(15) 0.83884(12) 0.17542(10)
O35A O -0.46302(18) 0.59117(15) 0.17902(12)
H11A H -0.443(3) 0.543(2) 0.2011(18)
O36A O -0.79035(19) 0.65272(15) 0.30032(13)
H12A H -0.797(3) 0.702(2) 0.2862(19)
O37A O 0.23181(16) 0.24312(14) 0.60304(11)
O38A O 0.13772(16) 0.14848(14) 0.54113(11)
O39A O 0.05379(17) 0.30684(14) 0.52792(11)
O40A O -0.31432(17) -0.04953(14) 0.96821(11)
O41A O -0.39946(16) 0.10618(14) 0.95868(10)
O42A O -0.48696(15) 0.02197(13) 0.88546(11)
O43A O -0.75008(16) 0.27721(14) 0.37531(11)
O44A O -0.60399(17) 0.21252(14) 0.47091(10)
O45A O -0.66801(16) 0.37404(14) 0.43961(11)
O46A O -0.14732(17) 0.53266(14) 0.02906(11)
O47A O -0.09067(16) 0.37158(14) 0.05143(10)
O48A O -0.00864(16) 0.45299(14) 0.13197(11)
N1A N 0.3586(2) 0.2772(2) 0.65048(15)
N2A N 0.1525(2) 0.03485(18) 0.52002(14)
N3A N 0.0383(2) 0.39360(18) 0.43040(14)
N4A N -0.3055(2) -0.14225(18) 1.06430(14)
N5A N -0.4119(2) 0.21295(17) 0.98864(14)
N6A N -0.6003(2) 0.0038(2) 0.82034(15)
N7A N -0.8613(2) 0.2502(2) 0.31237(16)
N8A N -0.5280(2) 0.10802(18) 0.54066(15)
N9A N -0.6775(2) 0.48380(19) 0.46623(15)
N10A N -0.2324(2) 0.63996(18) -0.03234(14)
N11A N -0.0803(2) 0.26024(18) 0.02696(14)
N12A N 0.1226(2) 0.52212(18) 0.14114(14)
C1A C -0.1316(2) 0.18202(19) 0.60568(15)
C2A C -0.1991(2) 0.21621(19) 0.55235(14)
C3A C -0.2978(2) 0.23296(19) 0.56086(14)
C4A C -0.3553(2) 0.26730(19) 0.50896(14)
H13A H -0.4209 0.2789 0.5146
C5A C -0.3181(2) 0.28492(19) 0.44868(14)
C6A C -0.2194(2) 0.26698(19) 0.44034(15)
C7A C -0.1617(2) 0.23262(19) 0.49209(15)
H14A H -0.0964 0.2202 0.4866
C8A C -0.3850(2) 0.32226(18) 0.39534(15)
C9A C 0.0720(2) 0.0537(2) 0.71455(15)
C10A C 0.1019(2) -0.03165(19) 0.73154(15)
C11A C 0.0532(2) -0.0920(2) 0.77852(15)
C12A C 0.0830(2) -0.1698(2) 0.79181(16)
H15A H 0.0501 -0.2097 0.8229
C13A C 0.1606(2) -0.18995(19) 0.75996(15)
C14A C 0.2099(2) -0.1297(2) 0.71267(15)
C15A C 0.1788(2) -0.0521(2) 0.69908(15)
H16A H 0.2103 -0.0123 0.6672
C16A C 0.1894(2) -0.2759(2) 0.77748(15)
C17A C -0.0222(2) 0.72764(19) 0.29150(16)
C18A C -0.0719(2) 0.66942(19) 0.26936(15)
C19A C -0.0527(2) 0.6661(2) 0.21005(16)
C20A C -0.1040(2) 0.6121(2) 0.19108(16)
H17A H -0.0926 0.6106 0.1514
C21A C -0.1719(2) 0.56062(19) 0.23015(15)
C22A C -0.1906(2) 0.56395(19) 0.28956(15)
C23A C -0.1395(2) 0.6168(2) 0.30837(16)
H18A H -0.1502 0.6174 0.3483
C24A C -0.2234(2) 0.50316(18) 0.20747(15)
C25A C -0.2682(2) -0.00690(18) 0.78908(15)
C26A C -0.3186(2) -0.06501(19) 0.76698(15)
C27A C -0.3006(2) -0.06847(19) 0.70744(15)
C28A C -0.3516(2) -0.12214(19) 0.68916(15)
H19A H -0.3401 -0.1241 0.6496
C29A C -0.4199(2) -0.17356(19) 0.72845(15)
C30A C -0.4378(2) -0.1706(2) 0.78779(16)
C31A C -0.3862(2) -0.11660(19) 0.80620(15)
H20A H -0.3973 -0.1150 0.8459
C32A C -0.4700(2) -0.23198(18) 0.70630(15)
C41A C -0.5684(2) 0.45745(19) 0.27122(15)
C42A C -0.5982(2) 0.54285(19) 0.25318(15)
C43A C -0.5446(2) 0.6041(2) 0.20973(16)
C44A C -0.5739(2) 0.68189(19) 0.19742(15)
H23A H -0.5382 0.7222 0.1685
C45A C -0.6549(2) 0.70167(19) 0.22692(15)
C46A C -0.7093(2) 0.6404(2) 0.26951(16)
C47A C -0.6801(2) 0.56264(19) 0.28161(16)
H24A H -0.7166 0.5223 0.3098
C48A C -0.6816(2) 0.78728(19) 0.21232(15)
C49A C 0.2707(3) 0.2472(2) 0.64906(18)
H25A H 0.2358 0.2276 0.6865
C50A C 0.4183(3) 0.3088(3) 0.59482(19)
H26A H 0.3912 0.2937 0.5623
H27A H 0.4194 0.3655 0.5821
H28A H 0.4841 0.2883 0.6030
C51A C 0.3952(3) 0.2873(3) 0.7063(2)
H29A H 0.3493 0.2650 0.7400
H30A H 0.4575 0.2608 0.7167
H31A H 0.4028 0.3427 0.6991
C52A C 0.1133(3) 0.0798(2) 0.54926(17)
H32A H 0.0634 0.0581 0.5782
C53A C 0.2341(3) 0.0624(3) 0.4768(2)
H33A H 0.2405 0.1186 0.4659
H34A H 0.2935 0.0366 0.4958
H35A H 0.2225 0.0504 0.4399
C54A C 0.1257(3) -0.0485(2) 0.5364(2)
H36A H 0.0697 -0.0597 0.5641
H37A H 0.1100 -0.0588 0.4994
H38A H 0.1799 -0.0816 0.5566
C55A C 0.0829(3) 0.3353(2) 0.47394(17)
H39A H 0.1402 0.3145 0.4629
C56A C -0.0531(3) 0.4292(2) 0.44304(19)
H40A H -0.0724 0.4035 0.4858
H41A H -0.0432 0.4845 0.4351
H42A H -0.1037 0.4230 0.4166
C57A C 0.0781(3) 0.4265(3) 0.36754(19)
H43A H 0.1372 0.3985 0.3642
H44A H 0.0308 0.4214 0.3387
H45A H 0.0926 0.4815 0.3581
C58A C -0.3477(3) -0.0812(2) 1.02078(18)
H46A H -0.4064 -0.0615 1.0311
C59A C -0.2119(3) -0.1764(2) 1.05488(18)
H47A H -0.1868 -0.1477 1.0139
H48A H -0.1661 -0.1733 1.0852
H49A H -0.2208 -0.2309 1.0593
C60A C -0.3511(3) -0.1762(3) 1.12565(19)
H50A H -0.4154 -0.1534 1.1254
H51A H -0.3567 -0.2325 1.1363
H52A H -0.3115 -0.1653 1.1558
C61A C -0.3731(3) 0.1731(2) 0.95514(17)
H53A H -0.3227 0.1968 0.9272
C62A C -0.4920(3) 0.1818(2) 1.03231(19)
H54A H -0.4943 0.1253 1.0432
H55A H -0.4821 0.1945 1.0690
H56A H -0.5529 0.2048 1.0136
C63A C -0.3838(3) 0.2945(2) 0.9773(2)
H57A H -0.3331 0.3096 0.9458
H58A H -0.4399 0.3287 0.9635
H59A H -0.3600 0.2990 1.0150
C64A C -0.5151(3) 0.0273(2) 0.83351(18)
H60A H -0.4721 0.0502 0.8003
C65A C -0.6732(3) -0.0345(3) 0.8682(2)
H61A H -0.6509 -0.0349 0.9078
H62A H -0.7343 -0.0059 0.8586
H63A H -0.6825 -0.0879 0.8699
C66A C -0.6216(3) 0.0088(3) 0.7575(2)
H64A H -0.5652 0.0286 0.7312
H65A H -0.6373 -0.0428 0.7573
H66A H -0.6765 0.0440 0.7424
C67A C -0.7767(3) 0.2765(2) 0.32474(19)
H67A H -0.7327 0.2966 0.2915
C68A C -0.9326(3) 0.2134(3) 0.3625(2)
H68A H -0.9071 0.2132 0.4013
H69A H -0.9931 0.2430 0.3541
H70A H -0.9443 0.1600 0.3650
C69A C -0.8834(3) 0.2493(3) 0.2509(2)
H71A H -0.8287 0.2701 0.2233
H72A H -0.8955 0.1960 0.2534
H73A H -0.9407 0.2814 0.2354
C70A C -0.5376(3) 0.1647(2) 0.48527(17)
H74A H -0.4893 0.1677 0.4553
C71A C -0.4407(3) 0.0581(3) 0.5551(2)
H75A H -0.4010 0.0683 0.5181
H76A H -0.4038 0.0695 0.5861
H77A H -0.4597 0.0035 0.5705
C72A C -0.5967(3) 0.1020(3) 0.59085(19)
H78A H -0.6535 0.1344 0.5746
H79A H -0.6164 0.0479 0.6103
H80A H -0.5660 0.1197 0.6209
C73A C -0.6400(3) 0.4406(2) 0.43525(17)
H81A H -0.5881 0.4619 0.4078
C74A C -0.7588(3) 0.4557(3) 0.51001(19)
H82A H -0.7662 0.3998 0.5197
H83A H -0.7457 0.4662 0.5474
H84A H -0.8181 0.4826 0.4919
C75A C -0.6459(4) 0.5653(3) 0.4530(3)
H85A H -0.5943 0.5778 0.4220
H86A H -0.7004 0.6007 0.4379
H87A H -0.6221 0.5708 0.4903
C76A C -0.2157(3) 0.5793(2) 0.02018(17)
H88A H -0.2603 0.5721 0.0529
C77A C -0.1701(3) 0.6531(2) -0.08623(17)
H89A H -0.1065 0.6301 -0.0735
H90A H -0.1987 0.6291 -0.1131
H91A H -0.1636 0.7090 -0.1080
C78A C -0.3205(3) 0.6885(2) -0.0407(2)
H92A H -0.3577 0.6731 -0.0024
H93A H -0.3026 0.7431 -0.0524
H94A H -0.3595 0.6814 -0.0727
C79A C -0.1196(3) 0.3051(2) 0.05626(16)
H95A H -0.1732 0.2851 0.0825
C80A C 0.0061(3) 0.2848(2) -0.01292(18)
H96A H 0.0207 0.3388 -0.0186
H97A H 0.0609 0.2516 0.0060
H98A H -0.0062 0.2802 -0.0526
C81A C -0.1166(3) 0.1808(2) 0.0381(2)
H99A H -0.1732 0.1713 0.0652
H100A H -0.1345 0.1761 -0.0008
H101A H -0.0662 0.1427 0.0570
C82A C 0.0551(3) 0.5014(2) 0.10877(18)
H102A H 0.0566 0.5255 0.0657
C83A C 0.1225(3) 0.4914(3) 0.20774(18)
H103A H 0.0662 0.4582 0.2228
H104A H 0.1813 0.4609 0.2218
H105A H 0.1198 0.5344 0.2233
C84A C 0.1966(3) 0.5803(2) 0.11030(19)
H106A H 0.1894 0.5963 0.0661
H107A H 0.1887 0.6255 0.1229
H108A H 0.2608 0.5575 0.1215
Mg2_2 Mg -0.87582(7) 0.86681(6) 0.25039(5)
Mg2A_2 Mg -0.12418(7) 1.13319(6) -0.25039(5)
Mg2A_3 Mg 0.87582(7) 0.13319(6) 0.74961(5)
Mg3_2 Mg -0.65754(7) 0.94376(6) 0.10503(5)
Mg3A_2 Mg -0.34246(7) 1.05624(6) -0.10503(5)
Mg3A_3 Mg 0.65754(7) 0.05624(6) 0.89497(5)
Mg4_2 Mg -0.39298(7) -0.30947(6) 0.61170(5)
Mg4A_2 Mg 0.39298(7) 1.30947(6) 0.38830(5)
Mg5_2 Mg -0.62399(7) -0.36764(6) 0.75093(5)
Mg5_3 Mg 0.37601(7) -0.36764(6) 0.75093(5)
Mg5A_2 Mg -0.37601(7) 1.36764(6) 0.24907(5)
Mg5A_3 Mg 0.62399(7) 0.36764(6) 1.24907(5)
Mg5A_4 Mg 0.62399(7) 1.36764(6) 0.24907(5)
Mg6_2 Mg 0.14780(7) -0.43023(6) 0.89026(5)
Mg6A_2 Mg -0.14780(7) 1.43023(6) 0.10974(5)
Mg6A_3 Mg 0.85220(7) 0.43023(6) 1.10974(5)
O9_2 O -0.26427(15) 0.29041(13) 0.25039(10)
O9A_2 O 0.26427(15) 0.70959(13) 0.74961(10)
O10_2 O -0.13851(15) 0.32613(13) 0.18231(10)
O10A_2 O 0.13851(15) 0.67387(13) 0.81769(10)
O21_2 O -0.55338(15) 0.23482(12) 0.34564(10)
O21A_2 O 0.55338(15) 0.76518(12) 0.65436(10)
O22_2 O -0.46661(15) 0.27508(13) 0.25702(10)
O22A_2 O 0.46661(15) 0.72492(13) 0.74298(10)
O25A_2 O -0.08769(15) 0.09066(13) 0.84145(10)
O26A_2 O -0.20919(15) 0.09674(12) 0.90660(10)
O28A_2 O -0.40439(15) 0.40015(13) 0.15625(10)
O29A_2 O -0.28449(15) 0.40373(12) 0.08738(10)
O33_2 O -0.24252(15) 0.19871(13) 0.76090(10)
O33A_2 O 0.24252(15) 0.80129(13) 0.23910(10)
O34_2 O -0.37340(15) 0.16116(12) 0.82458(10)
O34A_2 O 0.37340(15) 0.83884(12) 0.17542(10)
O49 O 0.1628(2) 0.14688(19) 0.09229(15)
O50 O 0.9019(4) 0.4043(3) 0.5880(2)
loop_
_geom_bond_atom_site_label_1
_geom_bond_atom_site_label_2
_geom_bond_site_symmetry_1
_geom_bond_site_symmetry_2
Mg1 O1 1_555 1_555
Mg2 O2 1_555 1_555
Mg3 O20 1_555 1_555
Mg4 O3 1_555 1_555
Mg5 O4 1_555 1_555
Mg6 O16 1_555 1_555
O1 C1 1_555 1_555
O2 C1 1_555 1_555
O3 C8 1_555 1_555
O4 C8 1_555 1_555
O5 H1 1_555 1_555
O6 H2 1_555 1_555
O7 Mg1 1_555 1_555
O8 Mg2 1_555 1_555
O9 C16 1_555 1_555
O10 C16 1_555 1_555
O11 H3 1_555 1_555
O12 H4 1_555 1_555
O13 C17 1_555 1_555
O14 C17 1_555 1_555
O15 Mg5 1_555 1_555
O16 C24 1_555 1_555
O17 H5 1_555 1_555
O18 H6 1_555 1_555
O19 Mg2 1_555 1_555
O20 C25 1_555 1_555
O21 C32 1_555 1_555
O22 C32 1_555 1_555
O23 H7 1_555 1_555
O24 H8 1_555 1_555
O25 Mg2 1_555 1_555
O26 Mg3 1_555 1_555
O27 H9 1_555 1_555
O28 Mg5 1_555 1_555
O29 Mg6 1_555 1_555
O30 H10 1_555 1_555
O31 Mg4 1_555 1_555
O32 Mg5 1_555 1_555
O33 C48 1_555 1_555
O34 C48 1_555 1_555
O35 H11 1_555 1_555
O36 H12 1_555 1_555
O37 Mg1 1_555 1_555
O38 Mg1 1_555 1_555
O39 Mg1 1_555 1_555
O40 Mg3 1_555 1_555
O41 Mg3 1_555 1_555
O42 Mg3 1_555 1_555
O43 Mg4 1_555 1_555
O44 Mg4 1_555 1_555
O45 Mg4 1_555 1_555
O46 Mg6 1_555 1_555
O47 Mg6 1_555 1_555
O48 Mg6 1_555 1_555
N1 C49 1_555 1_555
N2 C52 1_555 1_555
N3 C55 1_555 1_555
N4 C58 1_555 1_555
N5 C61 1_555 1_555
N6 C64 1_555 1_555
N7 C67 1_555 1_555
N8 C70 1_555 1_555
N9 C73 1_555 1_555
N10 C76 1_555 1_555
N11 C79 1_555 1_555
N12 C82 1_555 1_555
C1 C2 1_555 1_555
C2 C3 1_555 1_555
C3 O5 1_555 1_555
C4 C3 1_555 1_555
H13 C4 1_555 1_555
C5 C4 1_555 1_555
C6 O6 1_555 1_555
C7 C2 1_555 1_555
H14 C7 1_555 1_555
C8 C5 1_555 1_555
C9 O7 1_555 1_555
C10 C9 1_555 1_555
C11 O11 1_555 1_555
C12 C11 1_555 1_555
H15 C12 1_555 1_555
C13 C12 1_555 1_555
C14 O12 1_555 1_555
C15 C10 1_555 1_555
H16 C15 1_555 1_555
C16 C13 1_555 1_555
C17 C18 1_555 1_555
C18 C19 1_555 1_555
C19 O17 1_555 1_555
C20 C19 1_555 1_555
H17 C20 1_555 1_555
C21 C20 1_555 1_555
C22 O18 1_555 1_555
C23 C18 1_555 1_555
H18 C23 1_555 1_555
C24 O15 1_555 1_555
C25 O19 1_555 1_555
C26 C25 1_555 1_555
C27 O23 1_555 1_555
C28 C27 1_555 1_555
H19 C28 1_555 1_555
C29 C28 1_555 1_555
C30 O24 1_555 1_555
C31 C26 1_555 1_555
H20 C31 1_555 1_555
C32 C29 1_555 1_555
C33 O25 1_555 1_555
C34 C33 1_555 1_555
C35 O27 1_555 1_555
C36 C35 1_555 1_555
H21 C36 1_555 1_555
C37 O28 1_555 1_555
C38 C37 1_555 1_555
C39 O30 1_555 1_555
C40 C38 1_555 1_555
H22 C40 1_555 1_555
C41 O31 1_555 1_555
C42 C41 1_555 1_555
C43 O35 1_555 1_555
C44 C43 1_555 1_555
H23 C44 1_555 1_555
C45 C44 1_555 1_555
C46 O36 1_555 1_555
C47 C42 1_555 1_555
H24 C47 1_555 1_555
C48 C45 1_555 1_555
C49 O37 1_555 1_555
H25 C49 1_555 1_555
C50 N1 1_555 1_555
H26 C50 1_555 1_555
H27 C50 1_555 1_555
H28 C50 1_555 1_555
C51 N1 1_555 1_555
H29 C51 1_555 1_555
H30 C51 1_555 1_555
H31 C51 1_555 1_555
C52 O38 1_555 1_555
H32 C52 1_555 1_555
C53 N2 1_555 1_555
H33 C53 1_555 1_555
H34 C53 1_555 1_555
H35 C53 1_555 1_555
C54 N2 1_555 1_555
H36 C54 1_555 1_555
H37 C54 1_555 1_555
H38 C54 1_555 1_555
C55 O39 1_555 1_555
H39 C55 1_555 1_555
C56 N3 1_555 1_555
H40 C56 1_555 1_555
H41 C56 1_555 1_555
H42 C56 1_555 1_555
C57 N3 1_555 1_555
H43 C57 1_555 1_555
H44 C57 1_555 1_555
H45 C57 1_555 1_555
C58 O40 1_555 1_555
H46 C58 1_555 1_555
C59 N4 1_555 1_555
H47 C59 1_555 1_555
H48 C59 1_555 1_555
H49 C59 1_555 1_555
C60 N4 1_555 1_555
H50 C60 1_555 1_555
H51 C60 1_555 1_555
H52 C60 1_555 1_555
C61 O41 1_555 1_555
H53 C61 1_555 1_555
C62 N5 1_555 1_555
H54 C62 1_555 1_555
H55 C62 1_555 1_555
H56 C62 1_555 1_555
C63 N5 1_555 1_555
H57 C63 1_555 1_555
H58 C63 1_555 1_555
H59 C63 1_555 1_555
C64 O42 1_555 1_555
H60 C64 1_555 1_555
C65 N6 1_555 1_555
H61 C65 1_555 1_555
H62 C65 1_555 1_555
H63 C65 1_555 1_555
C66 N6 1_555 1_555
H64 C66 1_555 1_555
H65 C66 1_555 1_555
H66 C66 1_555 1_555
C67 O43 1_555 1_555
H67 C67 1_555 1_555
C68 N7 1_555 1_555
H68 C68 1_555 1_555
H69 C68 1_555 1_555
H70 C68 1_555 1_555
C69 N7 1_555 1_555
H71 C69 1_555 1_555
H72 C69 1_555 1_555
H73 C69 1_555 1_555
C70 O44 1_555 1_555
H74 C70 1_555 1_555
C71 N8 1_555 1_555
H75 C71 1_555 1_555
H76 C71 1_555 1_555
H77 C71 1_555 1_555
C72 N8 1_555 1_555
H78 C72 1_555 1_555
H79 C72 1_555 1_555
H80 C72 1_555 1_555
C73 O45 1_555 1_555
H81 C73 1_555 1_555
C74 N9 1_555 1_555
H82 C74 1_555 1_555
H83 C74 1_555 1_555
H84 C74 1_555 1_555
C75 N9 1_555 1_555
H85 C75 1_555 1_555
H86 C75 1_555 1_555
H87 C75 1_555 1_555
C76 O46 1_555 1_555
H88 C76 1_555 1_555
C77 N10 1_555 1_555
H89 C77 1_555 1_555
H90 C77 1_555 1_555
H91 C77 1_555 1_555
C78 N10 1_555 1_555
H92 C78 1_555 1_555
H93 C78 1_555 1_555
H94 C78 1_555 1_555
C79 O47 1_555 1_555
H95 C79 1_555 1_555
C80 N11 1_555 1_555
H96 C80 1_555 1_555
H97 C80 1_555 1_555
H98 C80 1_555 1_555
C81 N11 1_555 1_555
H99 C81 1_555 1_555
H100 C81 1_555 1_555
H101 C81 1_555 1_555
C82 O48 1_555 1_555
H102 C82 1_555 1_555
C83 N12 1_555 1_555
H103 C83 1_555 1_555
H104 C83 1_555 1_555
H105 C83 1_555 1_555
C84 N12 1_555 1_555
H106 C84 1_555 1_555
H107 C84 1_555 1_555
H108 C84 1_555 1_555
O25A C33A 1_555 1_555
O26A C33A 1_555 1_555
O27A H9A 1_555 1_555
C33A C34A 1_555 1_555
C34A C36 1_555 1_555
C35A O27A 1_555 1_555
C36A C34 1_555 1_555
H21A C36A 1_555 1_555
O28A C37A 1_555 1_555
O29A C37A 1_555 1_555
O30A H10A 1_555 1_555
C37A C38A 1_555 1_555
C38A C39A 1_555 1_555
C39A C40 1_555 1_555
C40A C39 1_555 1_555
H22A C40A 1_555 1_555
Mg1A O13 1_555 1_555
Mg2A O14 1_555 1_555
Mg3A O20A 1_555 1_555
Mg4A O3A 1_555 1_555
Mg5A O4A 1_555 1_555
Mg6A O16A 1_555 1_555
O1A Mg1A 1_555 1_555
O2A Mg2A 1_555 1_555
O3A C8A 1_555 1_555
O4A C8A 1_555 1_555
O5A H1A 1_555 1_555
O6A H2A 1_555 1_555
O7A Mg1A 1_555 1_555
O8A Mg2A 1_555 1_555
O9A C16A 1_555 1_555
O10A C16A 1_555 1_555
O11A H3A 1_555 1_555
O12A H4A 1_555 1_555
O13A Mg1 1_555 1_555
O14A Mg2 1_555 1_555
O15A Mg5A 1_555 1_555
O16A C24A 1_555 1_555
O17A H5A 1_555 1_555
O18A H6A 1_555 1_555
O19A Mg2A 1_555 1_555
O20A C25A 1_555 1_555
O21A C32A 1_555 1_555
O22A C32A 1_555 1_555
O23A H7A 1_555 1_555
O24A H8A 1_555 1_555
O31A Mg4A 1_555 1_555
O32A Mg5A 1_555 1_555
O33A C48A 1_555 1_555
O34A C48A 1_555 1_555
O35A H11A 1_555 1_555
O36A H12A 1_555 1_555
O37A Mg1A 1_555 1_555
O38A Mg1A 1_555 1_555
O39A Mg1A 1_555 1_555
O40A Mg3A 1_555 1_555
O41A Mg3A 1_555 1_555
O42A Mg3A 1_555 1_555
O43A Mg4A 1_555 1_555
O44A Mg4A 1_555 1_555
O45A Mg4A 1_555 1_555
O46A Mg6A 1_555 1_555
O47A Mg6A 1_555 1_555
O48A Mg6A 1_555 1_555
N1A C49A 1_555 1_555
N2A C52A 1_555 1_555
N3A C55A 1_555 1_555
N4A C58A 1_555 1_555
N5A C61A 1_555 1_555
N6A C64A 1_555 1_555
N7A C67A 1_555 1_555
N8A C70A 1_555 1_555
N9A C73A 1_555 1_555
N10A C76A 1_555 1_555
N11A C79A 1_555 1_555
N12A C82A 1_555 1_555
C1A O1A 1_555 1_555
C2A C1A 1_555 1_555
C3A O5A 1_555 1_555
C4A C3A 1_555 1_555
H13A C4A 1_555 1_555
C5A C4A 1_555 1_555
C6A O6A 1_555 1_555
C7A C2A 1_555 1_555
H14A C7A 1_555 1_555
C8A C5A 1_555 1_555
C9A O7A 1_555 1_555
C10A C9A 1_555 1_555
C11A O11A 1_555 1_555
C12A C11A 1_555 1_555
H15A C12A 1_555 1_555
C13A C12A 1_555 1_555
C14A O12A 1_555 1_555
C15A C10A 1_555 1_555
H16A C15A 1_555 1_555
C16A C13A 1_555 1_555
C17A O13A 1_555 1_555
C18A C17A 1_555 1_555
C19A O17A 1_555 1_555
C20A C19A 1_555 1_555
H17A C20A 1_555 1_555
C21A C20A 1_555 1_555
C22A O18A 1_555 1_555
C23A C18A 1_555 1_555
H18A C23A 1_555 1_555
C24A O15A 1_555 1_555
C25A O19A 1_555 1_555
C26A C25A 1_555 1_555
C27A O23A 1_555 1_555
C28A C27A 1_555 1_555
H19A C28A 1_555 1_555
C29A C28A 1_555 1_555
C30A O24A 1_555 1_555
C31A C26A 1_555 1_555
H20A C31A 1_555 1_555
C32A C29A 1_555 1_555
C41A O31A 1_555 1_555
C42A C41A 1_555 1_555
C43A O35A 1_555 1_555
C44A C43A 1_555 1_555
H23A C44A 1_555 1_555
C45A C44A 1_555 1_555
C46A O36A 1_555 1_555
C47A C42A 1_555 1_555
H24A C47A 1_555 1_555
C48A C45A 1_555 1_555
C49A O37A 1_555 1_555
H25A C49A 1_555 1_555
C50A N1A 1_555 1_555
H26A C50A 1_555 1_555
H27A C50A 1_555 1_555
H28A C50A 1_555 1_555
C51A N1A 1_555 1_555
H29A C51A 1_555 1_555
H30A C51A 1_555 1_555
H31A C51A 1_555 1_555
C52A O38A 1_555 1_555
H32A C52A 1_555 1_555
C53A N2A 1_555 1_555
H33A C53A 1_555 1_555
H34A C53A 1_555 1_555
H35A C53A 1_555 1_555
C54A N2A 1_555 1_555
H36A C54A 1_555 1_555
H37A C54A 1_555 1_555
H38A C54A 1_555 1_555
C55A O39A 1_555 1_555
H39A C55A 1_555 1_555
C56A N3A 1_555 1_555
H40A C56A 1_555 1_555
H41A C56A 1_555 1_555
H42A C56A 1_555 1_555
C57A N3A 1_555 1_555
H43A C57A 1_555 1_555
H44A C57A 1_555 1_555
H45A C57A 1_555 1_555
C58A O40A 1_555 1_555
H46A C58A 1_555 1_555
C59A N4A 1_555 1_555
H47A C59A 1_555 1_555
H48A C59A 1_555 1_555
H49A C59A 1_555 1_555
C60A N4A 1_555 1_555
H50A C60A 1_555 1_555
H51A C60A 1_555 1_555
H52A C60A 1_555 1_555
C61A O41A 1_555 1_555
H53A C61A 1_555 1_555
C62A N5A 1_555 1_555
H54A C62A 1_555 1_555
H55A C62A 1_555 1_555
H56A C62A 1_555 1_555
C63A N5A 1_555 1_555
H57A C63A 1_555 1_555
H58A C63A 1_555 1_555
H59A C63A 1_555 1_555
C64A O42A 1_555 1_555
H60A C64A 1_555 1_555
C65A N6A 1_555 1_555
H61A C65A 1_555 1_555
H62A C65A 1_555 1_555
H63A C65A 1_555 1_555
C66A N6A 1_555 1_555
H64A C66A 1_555 1_555
H65A C66A 1_555 1_555
H66A C66A 1_555 1_555
C67A O43A 1_555 1_555
H67A C67A 1_555 1_555
C68A N7A 1_555 1_555
H68A C68A 1_555 1_555
H69A C68A 1_555 1_555
H70A C68A 1_555 1_555
C69A N7A 1_555 1_555
H71A C69A 1_555 1_555
H72A C69A 1_555 1_555
H73A C69A 1_555 1_555
C70A O44A 1_555 1_555
H74A C70A 1_555 1_555
C71A N8A 1_555 1_555
H75A C71A 1_555 1_555
H76A C71A 1_555 1_555
H77A C71A 1_555 1_555
C72A N8A 1_555 1_555
H78A C72A 1_555 1_555
H79A C72A 1_555 1_555
H80A C72A 1_555 1_555
C73A O45A 1_555 1_555
H81A C73A 1_555 1_555
C74A N9A 1_555 1_555
H82A C74A 1_555 1_555
H83A C74A 1_555 1_555
H84A C74A 1_555 1_555
C75A N9A 1_555 1_555
H85A C75A 1_555 1_555
H86A C75A 1_555 1_555
H87A C75A 1_555 1_555
C76A O46A 1_555 1_555
H88A C76A 1_555 1_555
C77A N10A 1_555 1_555
H89A C77A 1_555 1_555
H90A C77A 1_555 1_555
H91A C77A 1_555 1_555
C78A N10A 1_555 1_555
H92A C78A 1_555 1_555
H93A C78A 1_555 1_555
H94A C78A 1_555 1_555
C79A O47A 1_555 1_555
H95A C79A 1_555 1_555
C80A N11A 1_555 1_555
H96A C80A 1_555 1_555
H97A C80A 1_555 1_555
H98A C80A 1_555 1_555
C81A N11A 1_555 1_555
H99A C81A 1_555 1_555
H100A C81A 1_555 1_555
H101A C81A 1_555 1_555
C82A O48A 1_555 1_555
H102A C82A 1_555 1_555
C83A N12A 1_555 1_555
H103A C83A 1_555 1_555
H104A C83A 1_555 1_555
H105A C83A 1_555 1_555
C84A N12A 1_555 1_555
H106A C84A 1_555 1_555
H107A C84A 1_555 1_555
H108A C84A 1_555 1_555
Mg2_2 O33A 1_555 1_555
Mg2A_2 O25A 1_555 1_555
Mg2A_3 O33 1_555 1_555
Mg3_2 O34A 1_555 1_555
Mg3A_2 O26A 1_555 1_555
Mg3A_3 O34 1_555 1_555
Mg4_2 O21A 1_555 1_555
Mg4A_2 O21 1_555 1_555
Mg5_2 O22A 1_555 1_555
Mg5_3 O9A 1_555 1_555
Mg5A_2 O9 1_555 1_555
Mg5A_3 O28A 1_555 1_555
Mg5A_4 O22 1_555 1_555
Mg6_2 O10A 1_555 1_555
Mg6A_2 O10 1_555 1_555
Mg6A_3 O29A 1_555 1_555
O9_2 Mg5A 1_555 1_555
O9A_2 Mg5 1_555 1_555
O10_2 Mg6A 1_555 1_555
O10A_2 Mg6 1_555 1_555
O21_2 Mg4A 1_555 1_555
O21A_2 Mg4 1_555 1_555
O22_2 Mg5A 1_555 1_555
O22A_2 Mg5 1_555 1_555
O25A_2 Mg2A 1_555 1_555
O26A_2 Mg3A 1_555 1_555
O28A_2 Mg5A 1_555 1_555
O29A_2 Mg6A 1_555 1_555
O33_2 Mg2A 1_555 1_555
O33A_2 Mg2 1_555 1_555
O34_2 Mg3A 1_555 1_555
O34A_2 Mg3 1_555 1_555
O8 C9 1_555 1_555
O26 C33 1_555 1_555
O29 C37 1_555 1_555
O32 C41 1_555 1_555
C5 C6 1_555 1_555
C6 C7 1_555 1_555
C10 C11 1_555 1_555
C13 C14 1_555 1_555
C14 C15 1_555 1_555
C21 C22 1_555 1_555
C21 C24 1_555 1_555
C22 C23 1_555 1_555
C26 C27 1_555 1_555
C29 C30 1_555 1_555
C30 C31 1_555 1_555
C34 C35 1_555 1_555
C38 C39 1_555 1_555
C42 C43 1_555 1_555
C45 C46 1_555 1_555
C46 C47 1_555 1_555
C34A C35A 1_555 1_555
C35A C36A 1_555 1_555
O30A C39A 1_555 1_555
C38A C40A 1_555 1_555
O2A C1A 1_555 1_555
O8A C9A 1_555 1_555
O14A C17A 1_555 1_555
O32A C41A 1_555 1_555
C2A C3A 1_555 1_555
C5A C6A 1_555 1_555
C6A C7A 1_555 1_555
C10A C11A 1_555 1_555
C13A C14A 1_555 1_555
C14A C15A 1_555 1_555
C18A C19A 1_555 1_555
C21A C22A 1_555 1_555
C21A C24A 1_555 1_555
C22A C23A 1_555 1_555
C26A C27A 1_555 1_555
C29A C30A 1_555 1_555
C30A C31A 1_555 1_555
C42A C43A 1_555 1_555
C45A C46A 1_555 1_555
C46A C47A 1_555 1_555

#END
