
#######################################################################
#
#                 Cambridge Crystallographic Data Centre
#                                CCDC 
#
#######################################################################
#
# If this CIF has been generated from an entry in the Cambridge 
# Structural Database, then it will include bibliographic, chemical, 
# crystal, experimental, refinement or atomic coordinate data resulting 
# from the CCDC's data processing and validation procedures.
#
#######################################################################

data_LONXER
_symmetry_cell_setting           trigonal
_symmetry_space_group_name_H-M   'P 31 2 1'
_symmetry_Int_Tables_number      152
_space_group_name_Hall           'P 31 2"'
loop_
_symmetry_equiv_pos_site_id
_symmetry_equiv_pos_as_xyz
1 x,y,z
2 -y,x-y,1/3+z
3 -x+y,-x,2/3+z
4 x-y,-y,2/3-z
5 -x,-x+y,1/3-z
6 y,x,-z
_cell_length_a                   12.988(4)
_cell_length_b                   12.988(4)
_cell_length_c                   20.665(7)
_cell_angle_alpha                90
_cell_angle_beta                 90
_cell_angle_gamma                120
_cell_volume                     3018.91
loop_
_atom_site_label
_atom_site_type_symbol
_atom_site_fract_x
_atom_site_fract_y
_atom_site_fract_z
Ni1 Ni -0.55061(15) 0.07533(16) -0.34177(8)
S1 S 0.0018(4) 0.2071(4) -0.2846(2)
S2 S -0.0012(4) 0.4970(4) -0.3828(2)
O1 O -0.3296(8) 0.5623(8) -0.3343(4)
O2 O -0.4109(8) 0.0421(8) -0.3203(4)
O3 O -0.4249(9) 0.2518(8) -0.3589(5)
O4 O -0.3357(11) -0.1613(12) -0.2104(5)
O5 O -0.3129(8) -0.1975(9) -0.3150(4)
N1 N -0.2760(11) 0.3749(11) -0.4286(5)
H1 H -0.2448 0.3842 -0.4664
N2 N -0.2724(10) 0.0721(11) -0.2473(6)
H2 H -0.2385 0.1066 -0.2116
N3 N -0.5268(10) 0.0661(10) -0.4407(6)
H3 H -0.534 -0.0046 -0.4511
H4 H -0.5813 0.0748 -0.4631
N4 N -0.5223(12) 0.1183(11) -0.2445(5)
H5 H -0.5308 0.1818 -0.2365
H6 H -0.5763 0.057 -0.2206
C1 C -0.4081(13) 0.1440(16) -0.2275(7)
H7 H -0.4083 0.1206 -0.1829
H8 H -0.3545 0.2291 -0.2305
C2 C -0.2275(11) 0.4763(13) -0.3838(6)
H9 H -0.2348 0.4454 -0.3398
C3 C -0.3653(12) 0.0844(12) -0.2680(7)
C4 C -0.0986(14) 0.5560(15) -0.3978(6)
H10 H -0.0709 0.6275 -0.3721
H11 H -0.0907 0.5792 -0.4429
O6 O -0.3058(17) 0.5727(13) -0.4408(6)
C5 C -0.2250(12) 0.0040(13) -0.2813(7)
H12 H -0.2289 0.0149 -0.3280
C6 C -0.1003(12) 0.0529(12) -0.2634(7)
H13 H -0.0719 0.0043 -0.2836
H14 H -0.0965 0.0448 -0.2170
C7 C -0.4033(12) 0.1658(12) -0.4561(7)
H15 H -0.3474 0.1372 -0.4519
H16 H -0.4009 0.1909 -0.5006
C8 C -0.3669(12) 0.2691(13) -0.4124(6)
C9 C -0.3013(15) -0.1322(13) -0.2659(7)
C10 C -0.2974(13) 0.5387(14) -0.3875(7)
S1D S -0.0018(4) 0.2053(6) -0.3821(2)
S2D S 0.0012(4) 0.4982(6) -0.2839(2)
O5D O -0.6871(8) 0.1154(12) -0.3517(4)
Ni1D Ni -0.44939(15) -0.37406(22) -0.32490(8)
O1D O -0.6704(8) -0.1081(11) -0.3324(4)
Ni1D_2 Ni -0.44939(15) 0.62594(22) -0.32490(8)
O7 O -0.193(5) 0.392(5) -0.552(3)
H17 H -0.150(9) 0.477(6) -0.566(5)
H18 H -0.277(6) 0.355(9) -0.568(5)
loop_
_geom_bond_atom_site_label_1
_geom_bond_atom_site_label_2
_geom_bond_site_symmetry_1
_geom_bond_site_symmetry_2
Ni1 O2 1_555 1_555
S1 C6 1_555 1_555
S2 C4 1_555 1_555
O1 C10 1_555 1_555
O2 C3 1_555 1_555
O3 Ni1 1_555 1_555
O4 C9 1_555 1_555
O5 C9 1_555 1_555
N1 H1 1_555 1_555
N2 H2 1_555 1_555
N3 Ni1 1_555 1_555
H3 N3 1_555 1_555
H4 N3 1_555 1_555
N4 Ni1 1_555 1_555
H5 N4 1_555 1_555
H6 N4 1_555 1_555
C1 N4 1_555 1_555
H7 C1 1_555 1_555
H8 C1 1_555 1_555
C2 N1 1_555 1_555
H9 C2 1_555 1_555
C3 N2 1_555 1_555
C4 C2 1_555 1_555
H10 C4 1_555 1_555
H11 C4 1_555 1_555
O6 C10 1_555 1_555
C5 N2 1_555 1_555
H12 C5 1_555 1_555
C6 C5 1_555 1_555
H13 C6 1_555 1_555
H14 C6 1_555 1_555
C7 N3 1_555 1_555
H15 C7 1_555 1_555
H16 C7 1_555 1_555
C8 O3 1_555 1_555
C9 C5 1_555 1_555
C10 C2 1_555 1_555
O7 H17 1_555 1_555
H18 O7 1_555 1_555
S1D S1 1_555 1_555
S2D S2 1_555 1_555
O5D Ni1 1_555 1_555
Ni1D O5 1_555 1_555
O1D Ni1 1_555 1_555
Ni1D_2 O1 1_555 1_555
N1 C8 1_555 1_555
C1 C3 1_555 1_555
C7 C8 1_555 1_555

#END
