
#######################################################################
#
#                 Cambridge Crystallographic Data Centre
#                                CCDC 
#
#######################################################################
#
# If this CIF has been generated from an entry in the Cambridge 
# Structural Database, then it will include bibliographic, chemical, 
# crystal, experimental, refinement or atomic coordinate data resulting 
# from the CCDC's data processing and validation procedures.
#
#######################################################################

data_LOPNOT
_symmetry_cell_setting           monoclinic
_symmetry_space_group_name_H-M   'P 21/c'
_symmetry_Int_Tables_number      14
_space_group_name_Hall           '-P 2ybc'
loop_
_symmetry_equiv_pos_site_id
_symmetry_equiv_pos_as_xyz
1 x,y,z
2 -x,1/2+y,1/2-z
3 -x,-y,-z
4 x,1/2-y,1/2+z
_cell_length_a                   9.2143(2)
_cell_length_b                   13.2282(2)
_cell_length_c                   7.39190(10)
_cell_angle_alpha                90
_cell_angle_beta                 97.1056(10)
_cell_angle_gamma                90
_cell_volume                     894.069
loop_
_atom_site_label
_atom_site_type_symbol
_atom_site_fract_x
_atom_site_fract_y
_atom_site_fract_z
Cd1 Cd 0.5000 0.5000 0.5000
O1 O 0.67886(18) 0.38838(12) 0.3951(2)
O2 O 0.5793(2) 0.43362(14) 0.1323(3)
O3 O 0.7104(2) 0.30013(12) 0.1587(3)
O4 O 0.6201(2) 0.40905(14) 0.7515(2)
H1 H 0.656(3) 0.350(2) 0.732(4)
H2 H 0.593(4) 0.422(3) 0.851(5)
N1 N 0.67095(16) 0.62265(11) 0.5372(2)
N2 N 0.65658(17) 0.37305(12) 0.2274(2)
C1 C 0.6324(2) 0.71984(14) 0.5440(3)
H3 H 0.533(3) 0.7353(18) 0.534(3)
C2 C 0.7317(2) 0.79782(16) 0.5544(3)
H4 H 0.694(3) 0.8641(18) 0.559(3)
C3 C 0.8790(2) 0.77728(14) 0.5574(3)
C4 C 0.9189(2) 0.67663(15) 0.5530(3)
H5 H 1.019(2) 0.6569(17) 0.560(4)
C5 C 0.8136(2) 0.60250(15) 0.5427(3)
H6 H 0.839(3) 0.532(2) 0.535(3)
C6 C 0.9938(3) 0.85854(17) 0.5613(4)
H7 H 1.062(3) 0.8535(19) 0.683(4)
H8 H 1.058(4) 0.846(3) 0.485(5)
C7 C 0.9389(2) 0.96359(19) 0.5171(4)
H9 H 0.864(3) 0.964(2) 0.415(4)
H10 H 0.897(4) 0.9875(18) 0.620(6)
O1B O 0.32114(18) 0.61162(12) 0.6049(2)
N2B N 0.34342(17) 0.62695(12) 0.7726(2)
O2B O 0.4207(2) 0.56638(14) 0.8677(3)
O3B O 0.2896(2) 0.69987(12) 0.8413(3)
O4B O 0.3799(2) 0.59095(14) 0.2485(2)
H1B H 0.344(3) 0.650(2) 0.268(4)
H2B H 0.407(4) 0.578(3) 0.149(5)
C7B C 1.0611(2) 1.03641(19) 0.4829(4)
C6B C 1.0062(3) 1.14146(17) 0.4387(4)
C3B C 1.1210(2) 1.22272(14) 0.4426(3)
C2B C 1.2683(2) 1.20218(16) 0.4456(3)
C1B C 1.3676(2) 1.28016(14) 0.4560(3)
N1B N 1.32905(16) 1.37735(11) 0.4628(2)
Cd1B Cd 1.5000 1.5000 0.5000
C5B C 1.1864(2) 1.39750(15) 0.4573(3)
C4B C 1.0811(2) 1.32337(15) 0.4470(3)
H5B H 0.981(2) 1.3431(17) 0.440(4)
H6B H 1.161(3) 1.468(2) 0.465(3)
H3B H 1.467(3) 1.2647(18) 0.466(3)
H4B H 1.306(3) 1.1359(18) 0.441(3)
H7B H 0.938(3) 1.1465(19) 0.317(4)
H8B H 0.942(4) 1.154(3) 0.515(5)
H9B H 1.136(3) 1.036(2) 0.585(4)
H10B H 1.103(4) 1.0125(18) 0.380(6)
N1B_2 N 0.32905(16) 0.37735(11) 0.4628(2)
loop_
_geom_bond_atom_site_label_1
_geom_bond_atom_site_label_2
_geom_bond_site_symmetry_1
_geom_bond_site_symmetry_2
Cd1 O1 1_555 1_555
O1 N2 1_555 1_555
O2 N2 1_555 1_555
O3 N2 1_555 1_555
O4 Cd1 1_555 1_555
H1 O4 1_555 1_555
H2 O4 1_555 1_555
N1 Cd1 1_555 1_555
C1 N1 1_555 1_555
H3 C1 1_555 1_555
C2 C1 1_555 1_555
H4 C2 1_555 1_555
C3 C2 1_555 1_555
C4 C3 1_555 1_555
H5 C4 1_555 1_555
C5 N1 1_555 1_555
H6 C5 1_555 1_555
C6 C3 1_555 1_555
H7 C6 1_555 1_555
H8 C6 1_555 1_555
C7 C6 1_555 1_555
H9 C7 1_555 1_555
H10 C7 1_555 1_555
O1B Cd1 1_555 1_555
N2B O1B 1_555 1_555
O2B N2B 1_555 1_555
O3B N2B 1_555 1_555
O4B Cd1 1_555 1_555
H1B O4B 1_555 1_555
H2B O4B 1_555 1_555
C7B C7 1_555 1_555
C6B C7B 1_555 1_555
C3B C6B 1_555 1_555
C2B C3B 1_555 1_555
C1B C2B 1_555 1_555
N1B C1B 1_555 1_555
Cd1B N1B 1_555 1_555
C5B N1B 1_555 1_555
C4B C3B 1_555 1_555
H5B C4B 1_555 1_555
H6B C5B 1_555 1_555
H3B C1B 1_555 1_555
H4B C2B 1_555 1_555
H7B C6B 1_555 1_555
H8B C6B 1_555 1_555
H9B C7B 1_555 1_555
H10B C7B 1_555 1_555
N1B_2 Cd1 1_555 1_555
C4 C5 1_555 1_555
C5B C4B 1_555 1_555

#END
