
#######################################################################
#
#                 Cambridge Crystallographic Data Centre
#                                CCDC 
#
#######################################################################
#
# If this CIF has been generated from an entry in the Cambridge 
# Structural Database, then it will include bibliographic, chemical, 
# crystal, experimental, refinement or atomic coordinate data resulting 
# from the CCDC's data processing and validation procedures.
#
#######################################################################

data_LOPXIZ
_symmetry_cell_setting           orthorhombic
_symmetry_space_group_name_H-M   'P b c n'
_symmetry_Int_Tables_number      60
_space_group_name_Hall           '-P 2n 2ab'
loop_
_symmetry_equiv_pos_site_id
_symmetry_equiv_pos_as_xyz
1 x,y,z
2 1/2-x,1/2-y,1/2+z
3 1/2+x,1/2-y,-z
4 -x,y,1/2-z
5 -x,-y,-z
6 1/2+x,1/2+y,1/2-z
7 1/2-x,1/2+y,z
8 x,-y,1/2+z
_cell_length_a                   7.9630(10)
_cell_length_b                   7.7267(9)
_cell_length_c                   40.986(5)
_cell_angle_alpha                90
_cell_angle_beta                 90
_cell_angle_gamma                90
_cell_volume                     2521.77
loop_
_atom_site_label
_atom_site_type_symbol
_atom_site_fract_x
_atom_site_fract_y
_atom_site_fract_z
Cl1 Cl 0.36460(6) 0.39739(6) 0.648105(11)
S1 S 0.5000 0.81900(8) 0.7500
S2 S 1.04423(5) 0.17528(5) 0.541945(10)
Na1 Na 1.30913(9) -0.05907(9) 0.487613(16)
O1 O 0.64244(18) 0.91291(17) 0.76227(3)
O2 O 0.71744(15) 0.41848(16) 0.63599(3)
O3 O 1.21137(16) 0.1191(2) 0.53218(3)
O4 O 0.98035(18) 0.31244(16) 0.52102(3)
O5 O 0.92698(16) 0.03214(16) 0.54412(3)
O6 O 1.46555(18) -0.17613(19) 0.44327(3)
C1 C 0.5713(3) 0.6842(3) 0.71822(4)
C2 C 0.4534(3) 0.5972(3) 0.69925(4)
C3 C 0.5084(3) 0.5073(3) 0.67230(4)
C4 C 0.6791(3) 0.5046(3) 0.66365(4)
C5 C 0.7943(3) 0.5883(3) 0.68350(4)
C6 C 0.7405(3) 0.6781(3) 0.71091(4)
C7 C 0.8913(3) 0.4077(3) 0.62628(4)
C8 C 0.8866(3) 0.3079(3) 0.59458(4)
C9 C 1.0611(3) 0.2651(3) 0.58174(4)
H1 H 0.335(3) 0.601(3) 0.7051(5)
H2 H 0.909(3) 0.585(3) 0.6778(5)
H3 H 0.820(3) 0.737(3) 0.7237(5)
H4 H 0.957(3) 0.346(3) 0.6432(5)
H5 H 0.936(3) 0.525(3) 0.6225(5)
H6 H 0.8270 0.3755 0.5784
H7 H 0.8248 0.2011 0.5979
H8 H 1.116(3) 0.181(3) 0.5950(5)
H9 H 1.129(3) 0.363(3) 0.5798(5)
H10 H 1.457(3) -0.280(4) 0.4436(6)
H11 H 1.558(4) -0.163(4) 0.4479(6)
Cl1C Cl 0.63540(6) 0.39739(6) 0.851895(11)
S2C S -0.04423(5) 0.17528(5) 0.958055(10)
O1C O 0.35756(18) 0.91291(17) 0.73773(3)
O2C O 0.28256(15) 0.41848(16) 0.86401(3)
O3C O -0.21137(16) 0.1191(2) 0.96782(3)
O4C O 0.01965(18) 0.31244(16) 0.97898(3)
O5C O 0.07302(16) 0.03214(16) 0.95588(3)
C1C C 0.4287(3) 0.6842(3) 0.78178(4)
C2C C 0.5466(3) 0.5972(3) 0.80075(4)
C3C C 0.4916(3) 0.5073(3) 0.82770(4)
C4C C 0.3209(3) 0.5046(3) 0.83635(4)
C5C C 0.2057(3) 0.5883(3) 0.81650(4)
C6C C 0.2595(3) 0.6781(3) 0.78909(4)
C7C C 0.1087(3) 0.4077(3) 0.87372(4)
C8C C 0.1134(3) 0.3079(3) 0.90542(4)
C9C C -0.0611(3) 0.2651(3) 0.91826(4)
H1C H 0.665(3) 0.601(3) 0.7949(5)
H2C H 0.091(3) 0.585(3) 0.8222(5)
H3C H 0.180(3) 0.737(3) 0.7763(5)
H4C H 0.043(3) 0.346(3) 0.8568(5)
H5C H 0.064(3) 0.525(3) 0.8775(5)
H6C H 0.1730 0.3755 0.9216
H7C H 0.1752 0.2011 0.9021
H8C H -0.116(3) 0.181(3) 0.9050(5)
H9C H -0.129(3) 0.363(3) 0.9202(5)
Na1D Na 0.69087(9) 0.05907(9) 0.512387(16)
O6D O 0.53445(18) 0.17613(19) 0.55673(3)
H10D H 0.543(3) 0.280(4) 0.5564(6)
H11D H 0.442(4) 0.163(4) 0.5521(6)
Na1F Na 1.19087(9) 0.44093(9) 0.487613(16)
Na1G Na 0.30913(9) 0.05907(9) 0.987613(16)
Na1A Na 0.19087(9) 0.55907(9) 0.987613(16)
Na1B Na 0.80913(9) 0.55907(9) 0.512387(16)
Na1C Na -0.30913(9) -0.05907(9) 1.012387(16)
Na1E Na -0.19087(9) 0.44093(9) 1.012387(16)
O3D O 0.78863(16) -0.1191(2) 0.46782(3)
O4F O 0.51965(18) -0.18756(16) 0.52102(3)
O4F_2 O 1.51965(18) -0.18756(16) 0.52102(3)
O4D O 1.01965(18) -0.31244(16) 0.47898(3)
O4B O 0.48035(18) 0.18756(16) 0.47898(3)
O4B_2 O 1.48035(18) 0.18756(16) 0.47898(3)
O5D O 1.07302(16) -0.03214(16) 0.45588(3)
loop_
_geom_bond_atom_site_label_1
_geom_bond_atom_site_label_2
_geom_bond_site_symmetry_1
_geom_bond_site_symmetry_2
Cl1 C3 1_555 1_555
S1 O1 1_555 1_555
S2 O3 1_555 1_555
Na1 O3 1_555 1_555
O2 C4 1_555 1_555
O4 S2 1_555 1_555
O5 S2 1_555 1_555
O6 Na1 1_555 1_555
C1 S1 1_555 1_555
C2 C1 1_555 1_555
C3 C2 1_555 1_555
C4 C3 1_555 1_555
C5 C4 1_555 1_555
C6 C1 1_555 1_555
C7 O2 1_555 1_555
C8 C7 1_555 1_555
C9 S2 1_555 1_555
H1 C2 1_555 1_555
H2 C5 1_555 1_555
H3 C6 1_555 1_555
H4 C7 1_555 1_555
H5 C7 1_555 1_555
H6 C8 1_555 1_555
H7 C8 1_555 1_555
H8 C9 1_555 1_555
H9 C9 1_555 1_555
H10 O6 1_555 1_555
H11 O6 1_555 1_555
Cl1C C3C 1_555 1_555
S2C O3C 1_555 1_555
O1C S1 1_555 1_555
O2C C4C 1_555 1_555
O3C Na1C 1_555 1_555
O4C S2C 1_555 1_555
O5C S2C 1_555 1_555
C1C S1 1_555 1_555
C2C C1C 1_555 1_555
C3C C2C 1_555 1_555
C4C C3C 1_555 1_555
C5C C4C 1_555 1_555
C6C C1C 1_555 1_555
C7C O2C 1_555 1_555
C8C C7C 1_555 1_555
C9C S2C 1_555 1_555
H1C C2C 1_555 1_555
H2C C5C 1_555 1_555
H3C C6C 1_555 1_555
H4C C7C 1_555 1_555
H5C C7C 1_555 1_555
H6C C8C 1_555 1_555
H7C C8C 1_555 1_555
H8C C9C 1_555 1_555
H9C C9C 1_555 1_555
Na1D O4 1_555 1_555
O6D Na1D 1_555 1_555
H10D O6D 1_555 1_555
H11D O6D 1_555 1_555
Na1F O4 1_555 1_555
Na1G O4C 1_555 1_555
Na1A O4C 1_555 1_555
Na1B O4 1_555 1_555
Na1E O4C 1_555 1_555
O3D Na1D 1_555 1_555
O4F Na1D 1_555 1_555
O4F_2 Na1 1_555 1_555
O4D Na1 1_555 1_555
O4B Na1D 1_555 1_555
O4B_2 Na1 1_555 1_555
O5D Na1 1_555 1_555
O5 Na1D 1_555 1_555
C5 C6 1_555 1_555
C8 C9 1_555 1_555
O5C Na1G 1_555 1_555
C5C C6C 1_555 1_555
C8C C9C 1_555 1_555
Na1F O4B_2 1_555 1_555

#END
