
#######################################################################
#
#                 Cambridge Crystallographic Data Centre
#                                CCDC 
#
#######################################################################
#
# If this CIF has been generated from an entry in the Cambridge 
# Structural Database, then it will include bibliographic, chemical, 
# crystal, experimental, refinement or atomic coordinate data resulting 
# from the CCDC's data processing and validation procedures.
#
#######################################################################

data_LOPZAS
_symmetry_cell_setting           cubic
_symmetry_space_group_name_H-M   'I 21 3'
_symmetry_Int_Tables_number      199
_space_group_name_Hall           'I 2b 2c 3'
loop_
_symmetry_equiv_pos_site_id
_symmetry_equiv_pos_as_xyz
1 x,y,z
2 -x,1/2-y,z
3 x,-y,1/2-z
4 -x,1/2+y,1/2-z
5 z,x,y
6 -z,1/2-x,y
7 z,-x,1/2-y
8 -z,1/2+x,1/2-y
9 y,z,x
10 y,-z,1/2-x
11 -y,1/2+z,1/2-x
12 -y,1/2-z,x
13 1/2+x,1/2+y,1/2+z
14 1/2-x,-y,1/2+z
15 1/2+x,1/2-y,-z
16 1/2-x,y,-z
17 1/2+z,1/2+x,1/2+y
18 1/2-z,-x,1/2+y
19 1/2+z,1/2-x,-y
20 1/2-z,x,-y
21 1/2+y,1/2+z,1/2+x
22 1/2+y,1/2-z,-x
23 1/2-y,z,-x
24 1/2-y,-z,1/2+x
_cell_length_a                   27.083(5)
_cell_length_b                   27.083(5)
_cell_length_c                   27.083(5)
_cell_angle_alpha                90
_cell_angle_beta                 90
_cell_angle_gamma                90
_cell_volume                     19865.1
loop_
_atom_site_label
_atom_site_type_symbol
_atom_site_fract_x
_atom_site_fract_y
_atom_site_fract_z
Rb1 Rb 0.2500 0.03401(5) 0.5000
Co1 Co 0.10067(4) -0.10067(4) 0.39933(4)
O1 O 0.1729(2) 0.0800(2) 0.4533(2)
O2 O 0.1853(2) -0.0193(2) 0.4421(3)
C1 C 0.2347(3) 0.1026(4) 0.6094(3)
O3 O 0.0900(2) -0.17780(19) 0.3902(2)
O4 O 0.2112(3) 0.1753(3) 0.5638(3)
C2 C 0.1663(3) 0.1316(3) 0.4486(4)
C3 C 0.1505(4) 0.0577(4) 0.5766(4)
H1 H 0.1188 0.0427 0.5677
C4 C 0.2008(4) 0.1281(4) 0.5786(3)
C5 C 0.1398(4) 0.1550(3) 0.4827(4)
C6 C 0.1351(4) 0.0539(4) 0.4309(4)
H2 H 0.1303 0.0662 0.3976
H3 H 0.1047 0.0591 0.4492
C7 C 0.1687(4) -0.0220(4) 0.6224(4)
C8 C 0.1299(3) 0.2045(4) 0.4735(5)
H4 H 0.1113 0.2224 0.4962
C9 C 0.1865(4) 0.1534(4) 0.4076(4)
C10 C 0.1821(4) 0.0302(4) 0.6071(4)
C11 C 0.1584(3) 0.1032(4) 0.5618(4)
C12 C 0.2227(4) 0.0528(4) 0.6207(3)
H5 H 0.2435 0.0360 0.6450
O5 O 0.1090(2) -0.0263(2) 0.4083(2)
C13 C 0.1469(5) -0.0023(4) 0.4291(3)
C14 C 0.1476(4) 0.2287(3) 0.4296(5)
C15 C 0.1744(4) 0.2033(4) 0.3998(4)
H6 H 0.1864 0.2187 0.3716
C16 C 0.1196(3) 0.1317(4) 0.5294(4)
H7 H 0.0936 0.1088 0.5202
H8 H 0.1048 0.1574 0.5494
C17 C 0.1844(8) 0.3129(5) 0.4241(10)
H9 H 0.1791 0.3477 0.4198
H10 H 0.2049 0.3008 0.3979
H11 H 0.2002 0.3071 0.4553
C18 C 0.2178(4) 0.1277(4) 0.3730(4)
H12 H 0.2270 0.1512 0.3476
H13 H 0.1978 0.1026 0.3572
C19 C 0.1807(5) -0.0555(4) 0.5758(4)
H14 H 0.1600 -0.0459 0.5487
H15 H 0.1747 -0.0895 0.5838
H16 H 0.2147 -0.0514 0.5667
C20 C 0.2024(5) -0.0418(5) 0.6661(5)
H17 H 0.1927 -0.0748 0.6745
H18 H 0.1985 -0.0208 0.6944
H19 H 0.2363 -0.0416 0.6559
C21 C 0.0925(7) 0.3044(5) 0.4558(7)
H20 H 0.0865 0.3383 0.4475
H21 H 0.1033 0.3022 0.4895
H22 H 0.0626 0.2858 0.4518
C22 C 0.1126(8) 0.2863(5) 0.3734(8)
H23 H 0.1019 0.3194 0.3663
H24 H 0.0851 0.2641 0.3702
H25 H 0.1381 0.2770 0.3508
C23 C 0.1184(4) -0.0312(4) 0.6358(4)
H26 H 0.0970 -0.0207 0.6095
H27 H 0.1105 -0.0132 0.6653
H28 H 0.1138 -0.0659 0.6415
C24 C 0.1312(6) 0.2841(4) 0.4230(6)
C25 C 0.1985(8) 0.2131(6) 0.5874(8)
H29 H 0.2088 0.2420 0.5698
H30 H 0.2137 0.2126 0.6194
H31 H 0.1633 0.2134 0.5911
Rb1J Rb -0.03401(5) 0.0000 0.2500
Rb1P Rb 0.0000 -0.2500 0.53401(5)
Rb1F Rb 0.5000 -0.2500 0.46599(5)
Rb1T Rb 0.53401(5) 0.0000 0.7500
Rb1B Rb 0.2500 -0.03401(5) 0.0000
Rb1R Rb 0.0000 0.2500 -0.03401(5)
Rb1A Rb -0.2500 -0.53401(5) 0.5000
Rb1H Rb 0.03401(5) -0.5000 0.2500
Co1F Co 0.39933(4) -0.10067(4) 0.60067(4)
Co1B Co 0.10067(4) 0.10067(4) 0.10067(4)
Co1A Co -0.10067(4) -0.39933(4) 0.39933(4)
O1O O 0.3271(2) 0.0800(2) 0.5467(2)
O1J O -0.0800(2) -0.0467(2) 0.3271(2)
O1Q O 0.0467(2) -0.1729(2) 0.5800(2)
O1K O -0.0800(2) 0.0467(2) 0.1729(2)
O1P O -0.0467(2) -0.3271(2) 0.5800(2)
O1F O 0.4533(2) -0.1729(2) 0.4200(2)
O1T O 0.5800(2) -0.0467(2) 0.6729(2)
O1B O 0.1729(2) -0.0800(2) 0.0467(2)
O1S O 0.0467(2) 0.1729(2) -0.0800(2)
O1A O -0.1729(2) -0.5800(2) 0.4533(2)
O1I O 0.0800(2) -0.4533(2) 0.3271(2)
O2O O 0.3147(2) -0.0193(2) 0.5579(3)
O2J O 0.0193(2) -0.0579(3) 0.3147(2)
O2Q O 0.0579(3) -0.1853(2) 0.4807(2)
O2K O 0.0193(2) 0.0579(3) 0.1853(2)
O2P O -0.0579(3) -0.3147(2) 0.4807(2)
O2F O 0.4421(3) -0.1853(2) 0.5193(2)
O2T O 0.4807(2) -0.0579(3) 0.6853(2)
O2B O 0.1853(2) 0.0193(2) 0.0579(3)
O2S O 0.0579(3) 0.1853(2) 0.0193(2)
O2A O -0.1853(2) -0.4807(2) 0.4421(3)
O2I O -0.0193(2) -0.4421(3) 0.3147(2)
C1O C 0.2653(3) 0.1026(4) 0.3906(3)
C1K C -0.1026(4) -0.1094(3) 0.2347(3)
C1P C 0.1094(3) -0.2653(3) 0.6026(4)
C1J C -0.1026(4) 0.1094(3) 0.2653(3)
C1Q C -0.1094(3) -0.2347(3) 0.6026(4)
O3J O 0.17780(19) -0.1098(2) 0.4100(2)
O3Q O 0.1098(2) -0.0900(2) 0.32220(19)
O3F O 0.3902(2) -0.0900(2) 0.67780(19)
O3O O 0.4100(2) -0.17780(19) 0.6098(2)
O3T O 0.32220(19) -0.1098(2) 0.5900(2)
O3B O 0.0900(2) 0.17780(19) 0.1098(2)
O3K O 0.17780(19) 0.1098(2) 0.0900(2)
O3S O 0.1098(2) 0.0900(2) 0.17780(19)
O3A O -0.0900(2) -0.32220(19) 0.3902(2)
O3I O -0.17780(19) -0.3902(2) 0.4100(2)
O3P O -0.1098(2) -0.4100(2) 0.32220(19)
O4O O 0.2888(3) 0.1753(3) 0.4362(3)
O4J O -0.1753(3) 0.0638(3) 0.2888(3)
O4K O -0.1753(3) -0.0638(3) 0.2112(3)
O4Q O -0.0638(3) -0.2112(3) 0.6753(3)
O4P O 0.0638(3) -0.2888(3) 0.6753(3)
C2O C 0.3337(3) 0.1316(3) 0.5514(4)
C2J C -0.1316(3) -0.0514(4) 0.3337(3)
C2Q C 0.0514(4) -0.1663(3) 0.6316(3)
C2K C -0.1316(3) 0.0514(4) 0.1663(3)
C2P C -0.0514(4) -0.3337(3) 0.6316(3)
C3O C 0.3495(4) 0.0577(4) 0.4234(4)
C3J C -0.0577(4) 0.0766(4) 0.3495(4)
C3Q C -0.0766(4) -0.1505(4) 0.5577(4)
C3K C -0.0577(4) -0.0766(4) 0.1505(4)
C3P C 0.0766(4) -0.3495(4) 0.5577(4)
H1O H 0.3812 0.0427 0.4323
H1J H -0.0427 0.0677 0.3812
H1Q H -0.0677 -0.1188 0.5427
H1K H -0.0427 -0.0677 0.1188
H1P H 0.0677 -0.3812 0.5427
C4O C 0.2992(4) 0.1281(4) 0.4214(3)
C4J C -0.1281(4) 0.0786(3) 0.2992(4)
C4K C -0.1281(4) -0.0786(3) 0.2008(4)
C4Q C -0.0786(3) -0.2008(4) 0.6281(4)
C4P C 0.0786(3) -0.2992(4) 0.6281(4)
C5O C 0.3602(4) 0.1550(3) 0.5173(4)
C5J C -0.1550(3) -0.0173(4) 0.3602(4)
C5Q C 0.0173(4) -0.1398(4) 0.6550(3)
C5K C -0.1550(3) 0.0173(4) 0.1398(4)
C5P C -0.0173(4) -0.3602(4) 0.6550(3)
C6O C 0.3649(4) 0.0539(4) 0.5691(4)
C6J C -0.0539(4) -0.0691(4) 0.3649(4)
C6Q C 0.0691(4) -0.1351(4) 0.5539(4)
C6K C -0.0539(4) 0.0691(4) 0.1351(4)
C6P C -0.0691(4) -0.3649(4) 0.5539(4)
C6F C 0.4309(4) -0.1351(4) 0.4461(4)
C6T C 0.5539(4) -0.0691(4) 0.6351(4)
C6B C 0.1351(4) -0.0539(4) 0.0691(4)
C6S C 0.0691(4) 0.1351(4) -0.0539(4)
C6A C -0.1351(4) -0.5539(4) 0.4309(4)
C6I C 0.0539(4) -0.4309(4) 0.3649(4)
H2O H 0.3697 0.0662 0.6024
H2J H -0.0662 -0.1024 0.3697
H2Q H 0.1024 -0.1303 0.5662
H2K H -0.0662 0.1024 0.1303
H2P H -0.1024 -0.3697 0.5662
H2F H 0.3976 -0.1303 0.4338
H2T H 0.5662 -0.1024 0.6303
H2B H 0.1303 -0.0662 0.1024
H2S H 0.1024 0.1303 -0.0662
H2A H -0.1303 -0.5662 0.3976
H2I H 0.0662 -0.3976 0.3697
H3O H 0.3953 0.0591 0.5508
H3J H -0.0591 -0.0508 0.3953
H3Q H 0.0508 -0.1047 0.5591
H3K H -0.0591 0.0508 0.1047
H3P H -0.0508 -0.3953 0.5591
H3F H 0.4492 -0.1047 0.4409
H3T H 0.5591 -0.0508 0.6047
H3B H 0.1047 -0.0591 0.0508
H3S H 0.0508 0.1047 -0.0591
H3A H -0.1047 -0.5591 0.4492
H3I H 0.0591 -0.4492 0.3953
C7O C 0.3313(4) -0.0220(4) 0.3776(4)
C7J C 0.0220(4) 0.1224(4) 0.3313(4)
C7K C 0.0220(4) -0.1224(4) 0.1687(4)
C7Q C -0.1224(4) -0.1687(4) 0.4780(4)
C7P C 0.1224(4) -0.3313(4) 0.4780(4)
C8O C 0.3701(3) 0.2045(4) 0.5265(5)
C8J C -0.2045(4) -0.0265(5) 0.3701(3)
C8Q C 0.0265(5) -0.1299(3) 0.7045(4)
C8K C -0.2045(4) 0.0265(5) 0.1299(3)
C8P C -0.0265(5) -0.3701(3) 0.7045(4)
H4O H 0.3887 0.2224 0.5038
H4J H -0.2224 -0.0038 0.3887
H4Q H 0.0038 -0.1113 0.7224
H4K H -0.2224 0.0038 0.1113
H4P H -0.0038 -0.3887 0.7224
C9O C 0.3135(4) 0.1534(4) 0.5924(4)
C9J C -0.1534(4) -0.0924(4) 0.3135(4)
C9Q C 0.0924(4) -0.1865(4) 0.6534(4)
C9K C -0.1534(4) 0.0924(4) 0.1865(4)
C9P C -0.0924(4) -0.3135(4) 0.6534(4)
C10O C 0.3179(4) 0.0302(4) 0.3929(4)
C10J C -0.0302(4) 0.1071(4) 0.3179(4)
C10K C -0.0302(4) -0.1071(4) 0.1821(4)
C10Q C -0.1071(4) -0.1821(4) 0.5302(4)
C10P C 0.1071(4) -0.3179(4) 0.5302(4)
C11O C 0.3416(3) 0.1032(4) 0.4382(4)
C11J C -0.1032(4) 0.0618(4) 0.3416(3)
C11Q C -0.0618(4) -0.1584(3) 0.6032(4)
C11K C -0.1032(4) -0.0618(4) 0.1584(3)
C11P C 0.0618(4) -0.3416(3) 0.6032(4)
C12O C 0.2773(4) 0.0528(4) 0.3793(3)
C12K C -0.0528(4) -0.1207(3) 0.2227(4)
C12P C 0.1207(3) -0.2773(4) 0.5528(4)
C12J C -0.0528(4) 0.1207(3) 0.2773(4)
C12Q C -0.1207(3) -0.2227(4) 0.5528(4)
H5O H 0.2565 0.0360 0.3550
H5K H -0.0360 -0.1450 0.2435
H5P H 0.1450 -0.2565 0.5360
H5J H -0.0360 0.1450 0.2565
H5Q H -0.1450 -0.2435 0.5360
O5J O 0.0263(2) -0.0917(2) 0.3910(2)
O5Q O 0.0917(2) -0.1090(2) 0.4737(2)
O5O O 0.3910(2) -0.0263(2) 0.5917(2)
O5K O 0.0263(2) 0.0917(2) 0.1090(2)
O5P O -0.0917(2) -0.3910(2) 0.4737(2)
O5F O 0.4083(2) -0.1090(2) 0.5263(2)
O5T O 0.4737(2) -0.0917(2) 0.6090(2)
O5B O 0.1090(2) 0.0263(2) 0.0917(2)
O5S O 0.0917(2) 0.1090(2) 0.0263(2)
O5A O -0.1090(2) -0.4737(2) 0.4083(2)
O5I O -0.0263(2) -0.4083(2) 0.3910(2)
C13O C 0.3531(5) -0.0023(4) 0.5709(3)
C13J C 0.0023(4) -0.0709(3) 0.3531(5)
C13Q C 0.0709(3) -0.1469(5) 0.4977(4)
C13K C 0.0023(4) 0.0709(3) 0.1469(5)
C13P C -0.0709(3) -0.3531(5) 0.4977(4)
C13F C 0.4291(3) -0.1469(5) 0.5023(4)
C13T C 0.4977(4) -0.0709(3) 0.6469(5)
C13B C 0.1469(5) 0.0023(4) 0.0709(3)
C13S C 0.0709(3) 0.1469(5) 0.0023(4)
C13A C -0.1469(5) -0.4977(4) 0.4291(3)
C13I C -0.0023(4) -0.4291(3) 0.3531(5)
C14O C 0.3524(4) 0.2287(3) 0.5704(5)
C14J C -0.2287(3) -0.0704(5) 0.3524(4)
C14Q C 0.0704(5) -0.1476(4) 0.7287(3)
C14K C -0.2287(3) 0.0704(5) 0.1476(4)
C14P C -0.0704(5) -0.3524(4) 0.7287(3)
C15O C 0.3256(4) 0.2033(4) 0.6002(4)
C15J C -0.2033(4) -0.1002(4) 0.3256(4)
C15Q C 0.1002(4) -0.1744(4) 0.7033(4)
C15K C -0.2033(4) 0.1002(4) 0.1744(4)
C15P C -0.1002(4) -0.3256(4) 0.7033(4)
H6O H 0.3136 0.2187 0.6284
H6J H -0.2187 -0.1284 0.3136
H6Q H 0.1284 -0.1864 0.7187
H6K H -0.2187 0.1284 0.1864
H6P H -0.1284 -0.3136 0.7187
C16O C 0.3804(3) 0.1317(4) 0.4706(4)
C16J C -0.1317(4) 0.0294(4) 0.3804(3)
C16Q C -0.0294(4) -0.1196(3) 0.6317(4)
C16K C -0.1317(4) -0.0294(4) 0.1196(3)
C16P C 0.0294(4) -0.3804(3) 0.6317(4)
H7O H 0.4064 0.1088 0.4798
H7J H -0.1088 0.0202 0.4064
H7Q H -0.0202 -0.0936 0.6088
H7K H -0.1088 -0.0202 0.0936
H7P H 0.0202 -0.4064 0.6088
H8O H 0.3952 0.1574 0.4506
H8J H -0.1574 0.0494 0.3952
H8Q H -0.0494 -0.1048 0.6574
H8K H -0.1574 -0.0494 0.1048
H8P H 0.0494 -0.3952 0.6574
C17O C 0.3156(8) 0.3129(5) 0.5759(10)
C17J C -0.3129(5) -0.0759(10) 0.3156(8)
C17Q C 0.0759(10) -0.1844(8) 0.8129(5)
C17K C -0.3129(5) 0.0759(10) 0.1844(8)
C17P C -0.0759(10) -0.3156(8) 0.8129(5)
H9O H 0.3209 0.3477 0.5802
H9J H -0.3477 -0.0802 0.3209
H9Q H 0.0802 -0.1791 0.8477
H9K H -0.3477 0.0802 0.1791
H9P H -0.0802 -0.3209 0.8477
H10O H 0.2951 0.3008 0.6021
H10J H -0.3008 -0.1021 0.2951
H10Q H 0.1021 -0.2049 0.8008
H10K H -0.3008 0.1021 0.2049
H10P H -0.1021 -0.2951 0.8008
H11O H 0.2998 0.3071 0.5447
H11J H -0.3071 -0.0447 0.2998
H11Q H 0.0447 -0.2002 0.8071
H11K H -0.3071 0.0447 0.2002
H11P H -0.0447 -0.2998 0.8071
C18O C 0.2822(4) 0.1277(4) 0.6270(4)
C18J C -0.1277(4) -0.1270(4) 0.2822(4)
C18Q C 0.1270(4) -0.2178(4) 0.6277(4)
C18K C -0.1277(4) 0.1270(4) 0.2178(4)
C18P C -0.1270(4) -0.2822(4) 0.6277(4)
H12O H 0.2730 0.1512 0.6524
H12J H -0.1512 -0.1524 0.2730
H12Q H 0.1524 -0.2270 0.6512
H12K H -0.1512 0.1524 0.2270
H12P H -0.1524 -0.2730 0.6512
H13O H 0.3022 0.1026 0.6428
H13J H -0.1026 -0.1428 0.3022
H13Q H 0.1428 -0.1978 0.6026
H13K H -0.1026 0.1428 0.1978
H13P H -0.1428 -0.3022 0.6026
C19O C 0.3193(5) -0.0555(4) 0.4242(4)
C19J C 0.0555(4) 0.0758(4) 0.3193(5)
C19K C 0.0555(4) -0.0758(4) 0.1807(5)
C19Q C -0.0758(4) -0.1807(5) 0.4445(4)
C19P C 0.0758(4) -0.3193(5) 0.4445(4)
H14O H 0.3400 -0.0459 0.4513
H14J H 0.0459 0.0487 0.3400
H14K H 0.0459 -0.0487 0.1600
H14Q H -0.0487 -0.1600 0.4541
H14P H 0.0487 -0.3400 0.4541
H15O H 0.3253 -0.0895 0.4162
H15J H 0.0895 0.0838 0.3253
H15K H 0.0895 -0.0838 0.1747
H15Q H -0.0838 -0.1747 0.4105
H15P H 0.0838 -0.3253 0.4105
H16O H 0.2853 -0.0514 0.4333
H16J H 0.0514 0.0667 0.2853
H16K H 0.0514 -0.0667 0.2147
H16Q H -0.0667 -0.2147 0.4486
H16P H 0.0667 -0.2853 0.4486
C20O C 0.2976(5) -0.0418(5) 0.3339(5)
C20J C 0.0418(5) 0.1661(5) 0.2976(5)
C20K C 0.0418(5) -0.1661(5) 0.2024(5)
C20Q C -0.1661(5) -0.2024(5) 0.4582(5)
C20P C 0.1661(5) -0.2976(5) 0.4582(5)
H17O H 0.3073 -0.0748 0.3255
H17J H 0.0748 0.1745 0.3073
H17K H 0.0748 -0.1745 0.1927
H17Q H -0.1745 -0.1927 0.4252
H17P H 0.1745 -0.3073 0.4252
H18O H 0.3015 -0.0208 0.3056
H18J H 0.0208 0.1944 0.3015
H18K H 0.0208 -0.1944 0.1985
H18Q H -0.1944 -0.1985 0.4792
H18P H 0.1944 -0.3015 0.4792
H19O H 0.2637 -0.0416 0.3441
H19J H 0.0416 0.1559 0.2637
H19K H 0.0416 -0.1559 0.2363
H19Q H -0.1559 -0.2363 0.4584
H19P H 0.1559 -0.2637 0.4584
C21O C 0.4075(7) 0.3044(5) 0.5442(7)
C21J C -0.3044(5) -0.0442(7) 0.4075(7)
C21Q C 0.0442(7) -0.0925(7) 0.8044(5)
C21K C -0.3044(5) 0.0442(7) 0.0925(7)
C21P C -0.0442(7) -0.4075(7) 0.8044(5)
H20O H 0.4135 0.3383 0.5525
H20J H -0.3383 -0.0525 0.4135
H20Q H 0.0525 -0.0865 0.8383
H20K H -0.3383 0.0525 0.0865
H20P H -0.0525 -0.4135 0.8383
H21O H 0.3967 0.3022 0.5105
H21J H -0.3022 -0.0105 0.3967
H21Q H 0.0105 -0.1033 0.8022
H21K H -0.3022 0.0105 0.1033
H21P H -0.0105 -0.3967 0.8022
H22O H 0.4374 0.2858 0.5482
H22J H -0.2858 -0.0482 0.4374
H22Q H 0.0482 -0.0626 0.7858
H22K H -0.2858 0.0482 0.0626
H22P H -0.0482 -0.4374 0.7858
C22O C 0.3874(8) 0.2863(5) 0.6266(8)
C22J C -0.2863(5) -0.1266(8) 0.3874(8)
C22Q C 0.1266(8) -0.1126(8) 0.7863(5)
C22K C -0.2863(5) 0.1266(8) 0.1126(8)
C22P C -0.1266(8) -0.3874(8) 0.7863(5)
H23O H 0.3981 0.3194 0.6337
H23J H -0.3194 -0.1337 0.3981
H23Q H 0.1337 -0.1019 0.8194
H23K H -0.3194 0.1337 0.1019
H23P H -0.1337 -0.3981 0.8194
H24O H 0.4149 0.2641 0.6298
H24J H -0.2641 -0.1298 0.4149
H24Q H 0.1298 -0.0851 0.7641
H24K H -0.2641 0.1298 0.0851
H24P H -0.1298 -0.4149 0.7641
H25O H 0.3619 0.2770 0.6492
H25J H -0.2770 -0.1492 0.3619
H25Q H 0.1492 -0.1381 0.7770
H25K H -0.2770 0.1492 0.1381
H25P H -0.1492 -0.3619 0.7770
C23O C 0.3816(4) -0.0312(4) 0.3642(4)
C23J C 0.0312(4) 0.1358(4) 0.3816(4)
C23K C 0.0312(4) -0.1358(4) 0.1184(4)
C23Q C -0.1358(4) -0.1184(4) 0.4688(4)
C23P C 0.1358(4) -0.3816(4) 0.4688(4)
H26O H 0.4030 -0.0207 0.3905
H26J H 0.0207 0.1095 0.4030
H26K H 0.0207 -0.1095 0.0970
H26Q H -0.1095 -0.0970 0.4793
H26P H 0.1095 -0.4030 0.4793
H27O H 0.3895 -0.0132 0.3347
H27J H 0.0132 0.1653 0.3895
H27K H 0.0132 -0.1653 0.1105
H27Q H -0.1653 -0.1105 0.4868
H27P H 0.1653 -0.3895 0.4868
H28O H 0.3862 -0.0659 0.3585
H28J H 0.0659 0.1415 0.3862
H28K H 0.0659 -0.1415 0.1138
H28Q H -0.1415 -0.1138 0.4341
H28P H 0.1415 -0.3862 0.4341
C24O C 0.3688(6) 0.2841(4) 0.5770(6)
C24J C -0.2841(4) -0.0770(6) 0.3688(6)
C24Q C 0.0770(6) -0.1312(6) 0.7841(4)
C24K C -0.2841(4) 0.0770(6) 0.1312(6)
C24P C -0.0770(6) -0.3688(6) 0.7841(4)
C25O C 0.3015(8) 0.2131(6) 0.4126(8)
C25J C -0.2131(6) 0.0874(8) 0.3015(8)
C25K C -0.2131(6) -0.0874(8) 0.1985(8)
C25Q C -0.0874(8) -0.1985(8) 0.7131(6)
C25P C 0.0874(8) -0.3015(8) 0.7131(6)
H29O H 0.2912 0.2420 0.4302
H29J H -0.2420 0.0698 0.2912
H29K H -0.2420 -0.0698 0.2088
H29Q H -0.0698 -0.2088 0.7420
H29P H 0.0698 -0.2912 0.7420
H30O H 0.2863 0.2126 0.3806
H30J H -0.2126 0.1194 0.2863
H30K H -0.2126 -0.1194 0.2137
H30Q H -0.1194 -0.2137 0.7126
H30P H 0.1194 -0.2863 0.7126
H31O H 0.3367 0.2134 0.4089
H31J H -0.2134 0.0911 0.3367
H31K H -0.2134 -0.0911 0.1633
H31Q H -0.0911 -0.1633 0.7134
H31P H 0.0911 -0.3367 0.7134
loop_
_geom_bond_atom_site_label_1
_geom_bond_atom_site_label_2
_geom_bond_site_symmetry_1
_geom_bond_site_symmetry_2
Rb1 O1 1_555 1_555
Co1 O3 1_555 1_555
O1 C2 1_555 1_555
O2 Rb1 1_555 1_555
C1 C4 1_555 1_555
O4 C4 1_555 1_555
C2 C5 1_555 1_555
C3 H1 1_555 1_555
C4 C11 1_555 1_555
C5 C8 1_555 1_555
C6 O1 1_555 1_555
H2 C6 1_555 1_555
H3 C6 1_555 1_555
C7 C10 1_555 1_555
C8 H4 1_555 1_555
C9 C2 1_555 1_555
C10 C3 1_555 1_555
C11 C3 1_555 1_555
C12 C1 1_555 1_555
H5 C12 1_555 1_555
O5 Co1 1_555 1_555
C13 O2 1_555 1_555
C14 C8 1_555 1_555
C15 C9 1_555 1_555
H6 C15 1_555 1_555
C16 C5 1_555 1_555
H7 C16 1_555 1_555
H8 C16 1_555 1_555
C17 H9 1_555 1_555
H10 C17 1_555 1_555
H11 C17 1_555 1_555
C18 C9 1_555 1_555
H12 C18 1_555 1_555
H13 C18 1_555 1_555
C19 C7 1_555 1_555
H14 C19 1_555 1_555
H15 C19 1_555 1_555
H16 C19 1_555 1_555
C20 C7 1_555 1_555
H17 C20 1_555 1_555
H18 C20 1_555 1_555
H19 C20 1_555 1_555
C21 H20 1_555 1_555
H21 C21 1_555 1_555
H22 C21 1_555 1_555
C22 H23 1_555 1_555
H24 C22 1_555 1_555
H25 C22 1_555 1_555
C23 C7 1_555 1_555
H26 C23 1_555 1_555
H27 C23 1_555 1_555
H28 C23 1_555 1_555
C24 C14 1_555 1_555
C25 O4 1_555 1_555
H29 C25 1_555 1_555
H30 C25 1_555 1_555
H31 C25 1_555 1_555
Rb1J O1J 1_555 1_555
Rb1P O1Q 1_555 1_555
Rb1F O2F 1_555 1_555
Rb1T O2T 1_555 1_555
Rb1B O2B 1_555 1_555
Rb1R O2S 1_555 1_555
Rb1A O2A 1_555 1_555
Rb1H O2I 1_555 1_555
Co1F O3F 1_555 1_555
Co1B O3B 1_555 1_555
Co1A O3A 1_555 1_555
O1O Rb1 1_555 1_555
O1J C2J 1_555 1_555
O1Q C2Q 1_555 1_555
O1K Rb1J 1_555 1_555
O1P Rb1P 1_555 1_555
O1F C6F 1_555 1_555
O1T C6T 1_555 1_555
O1B C6B 1_555 1_555
O1S C6S 1_555 1_555
O1A C6A 1_555 1_555
O1I C6I 1_555 1_555
O2O Rb1 1_555 1_555
O2J Rb1J 1_555 1_555
O2Q Rb1P 1_555 1_555
O2K Rb1J 1_555 1_555
O2P Rb1P 1_555 1_555
O2F C13F 1_555 1_555
O2T C13T 1_555 1_555
O2B C13B 1_555 1_555
O2S C13S 1_555 1_555
O2A C13A 1_555 1_555
O2I C13I 1_555 1_555
C1O C18 1_555 1_555
C1K C4K 1_555 1_555
C1P C4P 1_555 1_555
C1J C4J 1_555 1_555
C1Q C4Q 1_555 1_555
O3J Co1 1_555 1_555
O3Q Co1 1_555 1_555
O3O Co1F 1_555 1_555
O3T Co1F 1_555 1_555
O3K Co1B 1_555 1_555
O3S Co1B 1_555 1_555
O3I Co1A 1_555 1_555
O3P Co1A 1_555 1_555
O4O C4O 1_555 1_555
O4J C4J 1_555 1_555
O4K C4K 1_555 1_555
O4Q C4Q 1_555 1_555
O4P C4P 1_555 1_555
C2O O1O 1_555 1_555
C2J C5J 1_555 1_555
C2Q C5Q 1_555 1_555
C2K O1K 1_555 1_555
C2P O1P 1_555 1_555
C3O H1O 1_555 1_555
C3J H1J 1_555 1_555
C3Q H1Q 1_555 1_555
C3K H1K 1_555 1_555
C3P H1P 1_555 1_555
C4O C1O 1_555 1_555
C4J C11J 1_555 1_555
C4K C11K 1_555 1_555
C4Q C11Q 1_555 1_555
C4P C11P 1_555 1_555
C5O C2O 1_555 1_555
C5J C8J 1_555 1_555
C5Q C8Q 1_555 1_555
C5K C2K 1_555 1_555
C5P C2P 1_555 1_555
C6O O1O 1_555 1_555
C6J O1J 1_555 1_555
C6Q O1Q 1_555 1_555
C6K O1K 1_555 1_555
C6P O1P 1_555 1_555
C6F H2F 1_555 1_555
C6T H2T 1_555 1_555
C6B H2B 1_555 1_555
C6S H2S 1_555 1_555
C6A H2A 1_555 1_555
C6I H2I 1_555 1_555
H2O C6O 1_555 1_555
H2J C6J 1_555 1_555
H2Q C6Q 1_555 1_555
H2K C6K 1_555 1_555
H2P C6P 1_555 1_555
H3O C6O 1_555 1_555
H3J C6J 1_555 1_555
H3Q C6Q 1_555 1_555
H3K C6K 1_555 1_555
H3P C6P 1_555 1_555
H3F C6F 1_555 1_555
H3T C6T 1_555 1_555
H3B C6B 1_555 1_555
H3S C6S 1_555 1_555
H3A C6A 1_555 1_555
H3I C6I 1_555 1_555
C7O C10O 1_555 1_555
C7J C10J 1_555 1_555
C7K C10K 1_555 1_555
C7Q C10Q 1_555 1_555
C7P C10P 1_555 1_555
C8O C5O 1_555 1_555
C8J H4J 1_555 1_555
C8Q H4Q 1_555 1_555
C8K C5K 1_555 1_555
C8P C5P 1_555 1_555
H4O C8O 1_555 1_555
H4K C8K 1_555 1_555
H4P C8P 1_555 1_555
C9O C2O 1_555 1_555
C9J C2J 1_555 1_555
C9Q C2Q 1_555 1_555
C9K C2K 1_555 1_555
C9P C2P 1_555 1_555
C10O C3O 1_555 1_555
C10J C3J 1_555 1_555
C10K C3K 1_555 1_555
C10Q C3Q 1_555 1_555
C10P C3P 1_555 1_555
C11O C3O 1_555 1_555
C11J C3J 1_555 1_555
C11Q C3Q 1_555 1_555
C11K C3K 1_555 1_555
C11P C3P 1_555 1_555
C12O C1O 1_555 1_555
C12K C1K 1_555 1_555
C12P C1P 1_555 1_555
C12J C1J 1_555 1_555
C12Q C1Q 1_555 1_555
H5O C12O 1_555 1_555
H5K C12K 1_555 1_555
H5P C12P 1_555 1_555
H5J C12J 1_555 1_555
H5Q C12Q 1_555 1_555
O5J Co1 1_555 1_555
O5Q Co1 1_555 1_555
O5O Co1F 1_555 1_555
O5K Co1B 1_555 1_555
O5P Co1A 1_555 1_555
O5F Co1F 1_555 1_555
O5T Co1F 1_555 1_555
O5B Co1B 1_555 1_555
O5S Co1B 1_555 1_555
O5A Co1A 1_555 1_555
O5I Co1A 1_555 1_555
C13O O2O 1_555 1_555
C13J O2J 1_555 1_555
C13Q O2Q 1_555 1_555
C13K O2K 1_555 1_555
C13P O2P 1_555 1_555
C13F C6F 1_555 1_555
C13T C6T 1_555 1_555
C13B C6B 1_555 1_555
C13S C6S 1_555 1_555
C13A C6A 1_555 1_555
C13I C6I 1_555 1_555
C14O C8O 1_555 1_555
C14J C8J 1_555 1_555
C14Q C8Q 1_555 1_555
C14K C8K 1_555 1_555
C14P C8P 1_555 1_555
C15O C9O 1_555 1_555
C15J C9J 1_555 1_555
C15Q C9Q 1_555 1_555
C15K C9K 1_555 1_555
C15P C9P 1_555 1_555
H6O C15O 1_555 1_555
H6J C15J 1_555 1_555
H6Q C15Q 1_555 1_555
H6K C15K 1_555 1_555
H6P C15P 1_555 1_555
C16O C5O 1_555 1_555
C16J C5J 1_555 1_555
C16Q C5Q 1_555 1_555
C16K C5K 1_555 1_555
C16P C5P 1_555 1_555
H7O C16O 1_555 1_555
H7J C16J 1_555 1_555
H7Q C16Q 1_555 1_555
H7K C16K 1_555 1_555
H7P C16P 1_555 1_555
H8O C16O 1_555 1_555
H8J C16J 1_555 1_555
H8Q C16Q 1_555 1_555
H8K C16K 1_555 1_555
H8P C16P 1_555 1_555
C17O H9O 1_555 1_555
C17J H9J 1_555 1_555
C17Q H9Q 1_555 1_555
C17K H9K 1_555 1_555
C17P H9P 1_555 1_555
H10O C17O 1_555 1_555
H10J C17J 1_555 1_555
H10Q C17Q 1_555 1_555
H10K C17K 1_555 1_555
H10P C17P 1_555 1_555
H11O C17O 1_555 1_555
H11J C17J 1_555 1_555
H11Q C17Q 1_555 1_555
H11K C17K 1_555 1_555
H11P C17P 1_555 1_555
C18O C1 1_555 1_555
C18J C1K 1_555 1_555
C18Q C1P 1_555 1_555
C18K C1J 1_555 1_555
C18P C1Q 1_555 1_555
H12O C18O 1_555 1_555
H12J C18J 1_555 1_555
H12Q C18Q 1_555 1_555
H12K C18K 1_555 1_555
H12P C18P 1_555 1_555
H13O C18O 1_555 1_555
H13J C18J 1_555 1_555
H13Q C18Q 1_555 1_555
H13K C18K 1_555 1_555
H13P C18P 1_555 1_555
C19O C7O 1_555 1_555
C19J C7J 1_555 1_555
C19K C7K 1_555 1_555
C19Q C7Q 1_555 1_555
C19P C7P 1_555 1_555
H14O C19O 1_555 1_555
H14J C19J 1_555 1_555
H14K C19K 1_555 1_555
H14Q C19Q 1_555 1_555
H14P C19P 1_555 1_555
H15O C19O 1_555 1_555
H15J C19J 1_555 1_555
H15K C19K 1_555 1_555
H15Q C19Q 1_555 1_555
H15P C19P 1_555 1_555
H16O C19O 1_555 1_555
H16J C19J 1_555 1_555
H16K C19K 1_555 1_555
H16Q C19Q 1_555 1_555
H16P C19P 1_555 1_555
C20O C7O 1_555 1_555
C20J C7J 1_555 1_555
C20K C7K 1_555 1_555
C20Q C7Q 1_555 1_555
C20P C7P 1_555 1_555
H17O C20O 1_555 1_555
H17J C20J 1_555 1_555
H17K C20K 1_555 1_555
H17Q C20Q 1_555 1_555
H17P C20P 1_555 1_555
H18O C20O 1_555 1_555
H18J C20J 1_555 1_555
H18K C20K 1_555 1_555
H18Q C20Q 1_555 1_555
H18P C20P 1_555 1_555
H19O C20O 1_555 1_555
H19J C20J 1_555 1_555
H19K C20K 1_555 1_555
H19Q C20Q 1_555 1_555
H19P C20P 1_555 1_555
C21O H20O 1_555 1_555
C21J H20J 1_555 1_555
C21Q H20Q 1_555 1_555
C21K H20K 1_555 1_555
C21P H20P 1_555 1_555
H21O C21O 1_555 1_555
H21J C21J 1_555 1_555
H21Q C21Q 1_555 1_555
H21K C21K 1_555 1_555
H21P C21P 1_555 1_555
H22O C21O 1_555 1_555
H22J C21J 1_555 1_555
H22Q C21Q 1_555 1_555
H22K C21K 1_555 1_555
H22P C21P 1_555 1_555
C22O H23O 1_555 1_555
C22J H23J 1_555 1_555
C22Q H23Q 1_555 1_555
C22K H23K 1_555 1_555
C22P H23P 1_555 1_555
H24O C22O 1_555 1_555
H24J C22J 1_555 1_555
H24Q C22Q 1_555 1_555
H24K C22K 1_555 1_555
H24P C22P 1_555 1_555
H25O C22O 1_555 1_555
H25J C22J 1_555 1_555
H25Q C22Q 1_555 1_555
H25K C22K 1_555 1_555
H25P C22P 1_555 1_555
C23O C7O 1_555 1_555
C23J C7J 1_555 1_555
C23K C7K 1_555 1_555
C23Q C7Q 1_555 1_555
C23P C7P 1_555 1_555
H26O C23O 1_555 1_555
H26J C23J 1_555 1_555
H26K C23K 1_555 1_555
H26Q C23Q 1_555 1_555
H26P C23P 1_555 1_555
H27O C23O 1_555 1_555
H27J C23J 1_555 1_555
H27K C23K 1_555 1_555
H27Q C23Q 1_555 1_555
H27P C23P 1_555 1_555
H28O C23O 1_555 1_555
H28J C23J 1_555 1_555
H28K C23K 1_555 1_555
H28Q C23Q 1_555 1_555
H28P C23P 1_555 1_555
C24O C14O 1_555 1_555
C24J C14J 1_555 1_555
C24Q C14Q 1_555 1_555
C24K C14K 1_555 1_555
C24P C14P 1_555 1_555
C25O O4O 1_555 1_555
C25J O4J 1_555 1_555
C25K O4K 1_555 1_555
C25Q O4Q 1_555 1_555
C25P O4P 1_555 1_555
H29O C25O 1_555 1_555
H29J C25J 1_555 1_555
H29K C25K 1_555 1_555
H29Q C25Q 1_555 1_555
H29P C25P 1_555 1_555
H30O C25O 1_555 1_555
H30J C25J 1_555 1_555
H30K C25K 1_555 1_555
H30Q C25Q 1_555 1_555
H30P C25P 1_555 1_555
H31O C25O 1_555 1_555
H31J C25J 1_555 1_555
H31K C25K 1_555 1_555
H31Q C25Q 1_555 1_555
H31P C25P 1_555 1_555
C6 C13 1_555 1_555
C10 C12 1_555 1_555
C11 C16 1_555 1_555
O5 C13 1_555 1_555
C14 C15 1_555 1_555
C17 C24 1_555 1_555
C21 C24 1_555 1_555
C22 C24 1_555 1_555
C4O C11O 1_555 1_555
C6O C13O 1_555 1_555
C6J C13J 1_555 1_555
C6Q C13Q 1_555 1_555
C6K C13K 1_555 1_555
C6P C13P 1_555 1_555
C9O C18O 1_555 1_555
C9J C18J 1_555 1_555
C9Q C18Q 1_555 1_555
C9K C18K 1_555 1_555
C9P C18P 1_555 1_555
C10O C12O 1_555 1_555
C10J C12J 1_555 1_555
C10K C12K 1_555 1_555
C10Q C12Q 1_555 1_555
C10P C12P 1_555 1_555
C11O C16O 1_555 1_555
C11J C16J 1_555 1_555
C11Q C16Q 1_555 1_555
C11K C16K 1_555 1_555
C11P C16P 1_555 1_555
O5J C13J 1_555 1_555
O5Q C13Q 1_555 1_555
O5O C13O 1_555 1_555
O5K C13K 1_555 1_555
O5P C13P 1_555 1_555
O5F C13F 1_555 1_555
O5T C13T 1_555 1_555
O5B C13B 1_555 1_555
O5S C13S 1_555 1_555
O5A C13A 1_555 1_555
O5I C13I 1_555 1_555
C14O C15O 1_555 1_555
C14J C15J 1_555 1_555
C14Q C15Q 1_555 1_555
C14K C15K 1_555 1_555
C14P C15P 1_555 1_555
C17O C24O 1_555 1_555
C17J C24J 1_555 1_555
C17Q C24Q 1_555 1_555
C17K C24K 1_555 1_555
C17P C24P 1_555 1_555
C21O C24O 1_555 1_555
C21J C24J 1_555 1_555
C21Q C24Q 1_555 1_555
C21K C24K 1_555 1_555
C21P C24P 1_555 1_555
C22O C24O 1_555 1_555
C22J C24J 1_555 1_555
C22Q C24Q 1_555 1_555
C22K C24K 1_555 1_555
C22P C24P 1_555 1_555

#END
