
#######################################################################
#
#                 Cambridge Crystallographic Data Centre
#                                CCDC 
#
#######################################################################
#
# If this CIF has been generated from an entry in the Cambridge 
# Structural Database, then it will include bibliographic, chemical, 
# crystal, experimental, refinement or atomic coordinate data resulting 
# from the CCDC's data processing and validation procedures.
#
#######################################################################

data_LOPZEW
_symmetry_cell_setting           cubic
_symmetry_space_group_name_H-M   'I 21 3'
_symmetry_Int_Tables_number      199
_space_group_name_Hall           'I 2b 2c 3'
loop_
_symmetry_equiv_pos_site_id
_symmetry_equiv_pos_as_xyz
1 x,y,z
2 1/2-x,-y,1/2+z
3 -x,1/2+y,1/2-z
4 1/2+x,1/2-y,-z
5 z,x,y
6 1/2+z,1/2-x,-y
7 1/2-z,-x,1/2+y
8 -z,1/2+x,1/2-y
9 y,z,x
10 -y,1/2+z,1/2-x
11 1/2+y,1/2-z,-x
12 1/2-y,-z,1/2+x
13 1/2+x,1/2+y,1/2+z
14 -x,1/2-y,z
15 1/2-x,y,-z
16 x,-y,1/2-z
17 1/2+z,1/2+x,1/2+y
18 z,-x,1/2-y
19 -z,1/2-x,y
20 1/2-z,x,-y
21 1/2+y,1/2+z,1/2+x
22 1/2-y,z,-x
23 y,-z,1/2-x
24 -y,1/2-z,x
_cell_length_a                   27.046(2)
_cell_length_b                   27.046(2)
_cell_length_c                   27.046(2)
_cell_angle_alpha                90
_cell_angle_beta                 90
_cell_angle_gamma                90
_cell_volume                     19783.8
loop_
_atom_site_label
_atom_site_type_symbol
_atom_site_fract_x
_atom_site_fract_y
_atom_site_fract_z
K1 K 0.7500 0.46685(7) 0.5000
O1 O 0.67526(16) 0.42148(17) 0.54452(14)
O2 O 0.68693(18) 0.52008(16) 0.55513(17)
C1 C 0.6675(3) 0.3707(3) 0.5522(3)
O3 O 0.7892(2) 0.3257(2) 0.5657(2)
C2 C 0.7664(3) 0.3997(3) 0.6091(2)
C3 C 0.6201(2) 0.3690(3) 0.4694(3)
H1 H 0.6072 0.3426 0.4489
H2 H 0.5927 0.3907 0.4775
C4 C 0.6360(3) 0.4480(2) 0.5642(3)
H3 H 0.6282 0.4350 0.5967
H4 H 0.6072 0.4434 0.5433
C5 C 0.6400(3) 0.3465(3) 0.5173(3)
C6 C 0.6859(3) 0.3484(3) 0.5927(3)
C7 C 0.6289(2) 0.2958(3) 0.5253(3)
H5 H 0.6122 0.2779 0.5012
C8 C 0.6732(3) 0.2989(3) 0.6015(3)
H6 H 0.6857 0.2836 0.6296
C9 C 0.6436(3) 0.2722(3) 0.5710(4)
C10 C 0.7995(3) 0.3753(3) 0.5785(3)
C11 C 0.6128(6) 0.2147(4) 0.6371(5)
H7 H 0.6386 0.2273 0.6579
H8 H 0.6071 0.1805 0.6448
H9 H 0.5830 0.2331 0.6428
C12 C 0.6283(5) 0.2197(3) 0.5822(4)
C13 C 0.8498(3) 0.4442(3) 0.5741(3)
H10 H 0.8813 0.4594 0.5646
C14 C 0.7169(3) 0.3759(3) 0.6279(3)
H11 H 0.7251 0.3536 0.6548
H12 H 0.6968 0.4022 0.6418
C15 C 0.7758(3) 0.4474(3) 0.6203(2)
H13 H 0.7553 0.4637 0.6453
C16 C 0.8301(3) 0.5251(3) 0.6200(3)
C17 C 0.8191(3) 0.4711(3) 0.6044(3)
C18 C 0.8833(3) 0.5333(3) 0.6318(3)
H14 H 0.9031 0.5250 0.6036
H15 H 0.8926 0.5127 0.6592
H16 H 0.8885 0.5673 0.6404
C19 C 0.8216(3) 0.5594(3) 0.5757(3)
H17 H 0.8405 0.5478 0.5480
H18 H 0.8318 0.5923 0.5841
H19 H 0.7871 0.5595 0.5673
C20 C 0.8028(4) 0.5415(4) 0.6671(4)
H20 H 0.8109 0.5753 0.6744
H21 H 0.8125 0.5209 0.6943
H22 H 0.7677 0.5387 0.6621
C21 C 0.6576(3) 0.3980(3) 0.4395(3)
C22 C 0.6465(3) 0.5018(3) 0.5685(3)
O4 O 0.61187(16) 0.52811(16) 0.58946(16)
Co1 Co 0.60172(3) 0.60172(3) 0.60172(3)
O5 O 0.61247(16) 0.58814(17) 0.67915(15)
C23 C 0.5889(5) 0.1994(4) 0.5472(6)
H23 H 0.6002 0.2021 0.5137
H24 H 0.5589 0.2179 0.5511
H25 H 0.5828 0.1652 0.5548
C24 C 0.8051(5) 0.2910(4) 0.5945(4)
H26 H 0.7954 0.2594 0.5815
H27 H 0.7912 0.2952 0.6269
H28 H 0.8405 0.2926 0.5965
C25 C 0.6689(6) 0.1912(4) 0.5756(8)
H29 H 0.6955 0.2038 0.5953
H30 H 0.6782 0.1917 0.5413
H31 H 0.6617 0.1578 0.5853
K1H K 0.46685(7) 0.5000 0.7500
K1D K 0.5000 0.7500 0.46685(7)
O1N O 0.82474(16) 0.42148(17) 0.45548(14)
O1H O 0.42148(17) 0.54452(14) 0.67526(16)
O1V O 0.42148(17) 0.45548(14) 0.82474(16)
O1D O 0.54452(14) 0.67526(16) 0.42148(17)
O1R O 0.45548(14) 0.82474(16) 0.42148(17)
O2N O 0.81307(18) 0.52008(16) 0.44487(17)
O2H O 0.52008(16) 0.55513(17) 0.68693(18)
O2V O 0.52008(16) 0.44487(17) 0.81307(18)
O2D O 0.55513(17) 0.68693(18) 0.52008(16)
O2R O 0.44487(17) 0.81307(18) 0.52008(16)
C1N C 0.8325(3) 0.3707(3) 0.4478(3)
C1H C 0.3707(3) 0.5522(3) 0.6675(3)
C1V C 0.3707(3) 0.4478(3) 0.8325(3)
C1D C 0.5522(3) 0.6675(3) 0.3707(3)
C1R C 0.4478(3) 0.8325(3) 0.3707(3)
O3N O 0.7108(2) 0.3257(2) 0.4343(2)
O3H O 0.3257(2) 0.5657(2) 0.7892(2)
O3V O 0.3257(2) 0.4343(2) 0.7108(2)
O3D O 0.5657(2) 0.7892(2) 0.3257(2)
O3R O 0.4343(2) 0.7108(2) 0.3257(2)
C2N C 0.7336(3) 0.3997(3) 0.3909(2)
C2H C 0.3997(3) 0.6091(2) 0.7664(3)
C2V C 0.3997(3) 0.3909(2) 0.7336(3)
C2D C 0.6091(2) 0.7664(3) 0.3997(3)
C2R C 0.3909(2) 0.7336(3) 0.3997(3)
C3N C 0.8799(2) 0.3690(3) 0.5306(3)
C3H C 0.3690(3) 0.4694(3) 0.6201(2)
C3V C 0.3690(3) 0.5306(3) 0.8799(2)
C3D C 0.4694(3) 0.6201(2) 0.3690(3)
C3R C 0.5306(3) 0.8799(2) 0.3690(3)
H1N H 0.8928 0.3426 0.5511
H1H H 0.3426 0.4489 0.6072
H1V H 0.3426 0.5511 0.8928
H1D H 0.4489 0.6072 0.3426
H1R H 0.5511 0.8928 0.3426
H2N H 0.9073 0.3907 0.5225
H2H H 0.3907 0.4775 0.5927
H2V H 0.3907 0.5225 0.9073
H2D H 0.4775 0.5927 0.3907
H2R H 0.5225 0.9073 0.3907
C4N C 0.8640(3) 0.4480(2) 0.4358(3)
C4H C 0.4480(2) 0.5642(3) 0.6360(3)
C4V C 0.4480(2) 0.4358(3) 0.8640(3)
C4D C 0.5642(3) 0.6360(3) 0.4480(2)
C4R C 0.4358(3) 0.8640(3) 0.4480(2)
H3N H 0.8718 0.4350 0.4033
H3H H 0.4350 0.5967 0.6282
H3V H 0.4350 0.4033 0.8718
H3D H 0.5967 0.6282 0.4350
H3R H 0.4033 0.8718 0.4350
H4N H 0.8928 0.4434 0.4567
H4H H 0.4434 0.5433 0.6072
H4V H 0.4434 0.4567 0.8928
H4D H 0.5433 0.6072 0.4434
H4R H 0.4567 0.8928 0.4434
C5N C 0.8600(3) 0.3465(3) 0.4827(3)
C5H C 0.3465(3) 0.5173(3) 0.6400(3)
C5V C 0.3465(3) 0.4827(3) 0.8600(3)
C5D C 0.5173(3) 0.6400(3) 0.3465(3)
C5R C 0.4827(3) 0.8600(3) 0.3465(3)
C6N C 0.8141(3) 0.3484(3) 0.4073(3)
C6H C 0.3484(3) 0.5927(3) 0.6859(3)
C6V C 0.3484(3) 0.4073(3) 0.8141(3)
C6D C 0.5927(3) 0.6859(3) 0.3484(3)
C6R C 0.4073(3) 0.8141(3) 0.3484(3)
C7N C 0.8711(2) 0.2958(3) 0.4747(3)
C7H C 0.2958(3) 0.5253(3) 0.6289(2)
C7V C 0.2958(3) 0.4747(3) 0.8711(2)
C7D C 0.5253(3) 0.6289(2) 0.2958(3)
C7R C 0.4747(3) 0.8711(2) 0.2958(3)
H5N H 0.8878 0.2779 0.4988
H5H H 0.2779 0.5012 0.6122
H5V H 0.2779 0.4988 0.8878
H5D H 0.5012 0.6122 0.2779
H5R H 0.4988 0.8878 0.2779
C8N C 0.8268(3) 0.2989(3) 0.3985(3)
C8H C 0.2989(3) 0.6015(3) 0.6732(3)
C8V C 0.2989(3) 0.3985(3) 0.8268(3)
C8D C 0.6015(3) 0.6732(3) 0.2989(3)
C8R C 0.3985(3) 0.8268(3) 0.2989(3)
H6N H 0.8143 0.2836 0.3704
H6H H 0.2836 0.6296 0.6857
H6V H 0.2836 0.3704 0.8143
H6D H 0.6296 0.6857 0.2836
H6R H 0.3704 0.8143 0.2836
C9N C 0.8564(3) 0.2722(3) 0.4290(4)
C9H C 0.2722(3) 0.5710(4) 0.6436(3)
C9V C 0.2722(3) 0.4290(4) 0.8564(3)
C9D C 0.5710(4) 0.6436(3) 0.2722(3)
C9R C 0.4290(4) 0.8564(3) 0.2722(3)
C10N C 0.7005(3) 0.3753(3) 0.4215(3)
C10H C 0.3753(3) 0.5785(3) 0.7995(3)
C10V C 0.3753(3) 0.4215(3) 0.7005(3)
C10D C 0.5785(3) 0.7995(3) 0.3753(3)
C10R C 0.4215(3) 0.7005(3) 0.3753(3)
C11N C 0.8872(6) 0.2147(4) 0.3629(5)
C11H C 0.2147(4) 0.6371(5) 0.6128(6)
C11V C 0.2147(4) 0.3629(5) 0.8872(6)
C11D C 0.6371(5) 0.6128(6) 0.2147(4)
C11R C 0.3629(5) 0.8872(6) 0.2147(4)
H7N H 0.8614 0.2273 0.3421
H7H H 0.2273 0.6579 0.6386
H7V H 0.2273 0.3421 0.8614
H7D H 0.6579 0.6386 0.2273
H7R H 0.3421 0.8614 0.2273
H8N H 0.8929 0.1805 0.3552
H8H H 0.1805 0.6448 0.6071
H8V H 0.1805 0.3552 0.8929
H8D H 0.6448 0.6071 0.1805
H8R H 0.3552 0.8929 0.1805
H9N H 0.9170 0.2331 0.3572
H9H H 0.2331 0.6428 0.5830
H9V H 0.2331 0.3572 0.9170
H9D H 0.6428 0.5830 0.2331
H9R H 0.3572 0.9170 0.2331
C12N C 0.8717(5) 0.2197(3) 0.4178(4)
C12H C 0.2197(3) 0.5822(4) 0.6283(5)
C12V C 0.2197(3) 0.4178(4) 0.8717(5)
C12D C 0.5822(4) 0.6283(5) 0.2197(3)
C12R C 0.4178(4) 0.8717(5) 0.2197(3)
C13N C 0.6502(3) 0.4442(3) 0.4259(3)
C13H C 0.4442(3) 0.5741(3) 0.8498(3)
C13V C 0.4442(3) 0.4259(3) 0.6502(3)
C13D C 0.5741(3) 0.8498(3) 0.4442(3)
C13R C 0.4259(3) 0.6502(3) 0.4442(3)
H10N H 0.6187 0.4594 0.4354
H10H H 0.4594 0.5646 0.8813
H10V H 0.4594 0.4354 0.6187
H10D H 0.5646 0.8813 0.4594
H10R H 0.4354 0.6187 0.4594
C14N C 0.7831(3) 0.3759(3) 0.3721(3)
C14H C 0.3759(3) 0.6279(3) 0.7169(3)
C14V C 0.3759(3) 0.3721(3) 0.7831(3)
C14D C 0.6279(3) 0.7169(3) 0.3759(3)
C14R C 0.3721(3) 0.7831(3) 0.3759(3)
H11N H 0.7749 0.3536 0.3452
H11H H 0.3536 0.6548 0.7251
H11V H 0.3536 0.3452 0.7749
H11D H 0.6548 0.7251 0.3536
H11R H 0.3452 0.7749 0.3536
H12N H 0.8032 0.4022 0.3582
H12H H 0.4022 0.6418 0.6968
H12V H 0.4022 0.3582 0.8032
H12D H 0.6418 0.6968 0.4022
H12R H 0.3582 0.8032 0.4022
C15N C 0.7242(3) 0.4474(3) 0.3797(2)
C15H C 0.4474(3) 0.6203(2) 0.7758(3)
C15V C 0.4474(3) 0.3797(2) 0.7242(3)
C15D C 0.6203(2) 0.7758(3) 0.4474(3)
C15R C 0.3797(2) 0.7242(3) 0.4474(3)
H13N H 0.7447 0.4637 0.3547
H13H H 0.4637 0.6453 0.7553
H13V H 0.4637 0.3547 0.7447
H13D H 0.6453 0.7553 0.4637
H13R H 0.3547 0.7447 0.4637
C16N C 0.6699(3) 0.5251(3) 0.3800(3)
C16H C 0.5251(3) 0.6200(3) 0.8301(3)
C16V C 0.5251(3) 0.3800(3) 0.6699(3)
C16D C 0.6200(3) 0.8301(3) 0.5251(3)
C16R C 0.3800(3) 0.6699(3) 0.5251(3)
C17N C 0.6809(3) 0.4711(3) 0.3956(3)
C17H C 0.4711(3) 0.6044(3) 0.8191(3)
C17V C 0.4711(3) 0.3956(3) 0.6809(3)
C17D C 0.6044(3) 0.8191(3) 0.4711(3)
C17R C 0.3956(3) 0.6809(3) 0.4711(3)
C18N C 0.6167(3) 0.5333(3) 0.3682(3)
C18H C 0.5333(3) 0.6318(3) 0.8833(3)
C18V C 0.5333(3) 0.3682(3) 0.6167(3)
C18D C 0.6318(3) 0.8833(3) 0.5333(3)
C18R C 0.3682(3) 0.6167(3) 0.5333(3)
H14N H 0.5969 0.5250 0.3964
H14H H 0.5250 0.6036 0.9031
H14V H 0.5250 0.3964 0.5969
H14D H 0.6036 0.9031 0.5250
H14R H 0.3964 0.5969 0.5250
H15N H 0.6074 0.5127 0.3408
H15H H 0.5127 0.6592 0.8926
H15V H 0.5127 0.3408 0.6074
H15D H 0.6592 0.8926 0.5127
H15R H 0.3408 0.6074 0.5127
H16N H 0.6115 0.5673 0.3596
H16H H 0.5673 0.6404 0.8885
H16V H 0.5673 0.3596 0.6115
H16D H 0.6404 0.8885 0.5673
H16R H 0.3596 0.6115 0.5673
C19N C 0.6784(3) 0.5594(3) 0.4243(3)
C19H C 0.5594(3) 0.5757(3) 0.8216(3)
C19V C 0.5594(3) 0.4243(3) 0.6784(3)
C19D C 0.5757(3) 0.8216(3) 0.5594(3)
C19R C 0.4243(3) 0.6784(3) 0.5594(3)
H17N H 0.6595 0.5478 0.4520
H17H H 0.5478 0.5480 0.8405
H17V H 0.5478 0.4520 0.6595
H17D H 0.5480 0.8405 0.5478
H17R H 0.4520 0.6595 0.5478
H18N H 0.6682 0.5923 0.4159
H18H H 0.5923 0.5841 0.8318
H18V H 0.5923 0.4159 0.6682
H18D H 0.5841 0.8318 0.5923
H18R H 0.4159 0.6682 0.5923
H19N H 0.7129 0.5595 0.4327
H19H H 0.5595 0.5673 0.7871
H19V H 0.5595 0.4327 0.7129
H19D H 0.5673 0.7871 0.5595
H19R H 0.4327 0.7129 0.5595
C20N C 0.6972(4) 0.5415(4) 0.3329(4)
C20H C 0.5415(4) 0.6671(4) 0.8028(4)
C20V C 0.5415(4) 0.3329(4) 0.6972(4)
C20D C 0.6671(4) 0.8028(4) 0.5415(4)
C20R C 0.3329(4) 0.6972(4) 0.5415(4)
H20N H 0.6891 0.5753 0.3256
H20H H 0.5753 0.6744 0.8109
H20V H 0.5753 0.3256 0.6891
H20D H 0.6744 0.8109 0.5753
H20R H 0.3256 0.6891 0.5753
H21N H 0.6875 0.5209 0.3057
H21H H 0.5209 0.6943 0.8125
H21V H 0.5209 0.3057 0.6875
H21D H 0.6943 0.8125 0.5209
H21R H 0.3057 0.6875 0.5209
H22N H 0.7323 0.5387 0.3379
H22H H 0.5387 0.6621 0.7677
H22V H 0.5387 0.3379 0.7323
H22D H 0.6621 0.7677 0.5387
H22R H 0.3379 0.7323 0.5387
C21N C 0.8424(3) 0.3980(3) 0.5605(3)
C21H C 0.3980(3) 0.4395(3) 0.6576(3)
C21V C 0.3980(3) 0.5605(3) 0.8424(3)
C21D C 0.4395(3) 0.6576(3) 0.3980(3)
C21R C 0.5605(3) 0.8424(3) 0.3980(3)
C22N C 0.8535(3) 0.5018(3) 0.4315(3)
C22H C 0.5018(3) 0.5685(3) 0.6465(3)
C22V C 0.5018(3) 0.4315(3) 0.8535(3)
C22D C 0.5685(3) 0.6465(3) 0.5018(3)
C22R C 0.4315(3) 0.8535(3) 0.5018(3)
C22U C 0.9982(3) 0.5685(3) 0.3535(3)
C22S C 0.9315(3) 0.6465(3) 0.4982(3)
O4N O 0.88813(16) 0.52811(16) 0.41054(16)
O4H O 0.52811(16) 0.58946(16) 0.61187(16)
O4V O 0.52811(16) 0.41054(16) 0.88813(16)
O4D O 0.58946(16) 0.61187(16) 0.52811(16)
O4R O 0.41054(16) 0.88813(16) 0.52811(16)
O4U O 0.97189(16) 0.58946(16) 0.38813(16)
O4S O 0.91054(16) 0.61187(16) 0.47189(16)
O4O O 0.61187(16) 0.47189(16) 0.91054(16)
O4Q O 0.58946(16) 0.38813(16) 0.97189(16)
O4M O 0.38813(16) 0.97189(16) 0.58946(16)
O4W O 0.47189(16) 0.91054(16) 0.61187(16)
Co1N Co 0.89828(3) 0.60172(3) 0.39828(3)
Co1O Co 0.60172(3) 0.39828(3) 0.89828(3)
Co1M Co 0.39828(3) 0.89828(3) 0.60172(3)
O5D O 0.67915(15) 0.61247(16) 0.58814(17)
O5H O 0.58814(17) 0.67915(15) 0.61247(16)
O5N O 0.88753(16) 0.58814(17) 0.32085(15)
O5S O 0.82085(15) 0.61247(16) 0.41186(17)
O5U O 0.91186(17) 0.67915(15) 0.38753(16)
O5O O 0.61247(16) 0.41186(17) 0.82085(15)
O5Q O 0.67915(15) 0.38753(16) 0.91186(17)
O5V O 0.58814(17) 0.32085(15) 0.88753(16)
O5M O 0.38753(16) 0.91186(17) 0.67915(15)
O5R O 0.32085(15) 0.88753(16) 0.58814(17)
O5W O 0.41186(17) 0.82085(15) 0.61247(16)
C23N C 0.9111(5) 0.1994(4) 0.4528(6)
C23H C 0.1994(4) 0.5472(6) 0.5889(5)
C23V C 0.1994(4) 0.4528(6) 0.9111(5)
C23D C 0.5472(6) 0.5889(5) 0.1994(4)
C23R C 0.4528(6) 0.9111(5) 0.1994(4)
H23N H 0.8998 0.2021 0.4863
H23H H 0.2021 0.5137 0.6002
H23V H 0.2021 0.4863 0.8998
H23D H 0.5137 0.6002 0.2021
H23R H 0.4863 0.8998 0.2021
H24N H 0.9411 0.2179 0.4489
H24H H 0.2179 0.5511 0.5589
H24V H 0.2179 0.4489 0.9411
H24D H 0.5511 0.5589 0.2179
H24R H 0.4489 0.9411 0.2179
H25N H 0.9172 0.1652 0.4452
H25H H 0.1652 0.5548 0.5828
H25V H 0.1652 0.4452 0.9172
H25D H 0.5548 0.5828 0.1652
H25R H 0.4452 0.9172 0.1652
C24N C 0.6949(5) 0.2910(4) 0.4055(4)
C24H C 0.2910(4) 0.5945(4) 0.8051(5)
C24V C 0.2910(4) 0.4055(4) 0.6949(5)
C24D C 0.5945(4) 0.8051(5) 0.2910(4)
C24R C 0.4055(4) 0.6949(5) 0.2910(4)
H26N H 0.7046 0.2594 0.4185
H26H H 0.2594 0.5815 0.7954
H26V H 0.2594 0.4185 0.7046
H26D H 0.5815 0.7954 0.2594
H26R H 0.4185 0.7046 0.2594
H27N H 0.7088 0.2952 0.3731
H27H H 0.2952 0.6269 0.7912
H27V H 0.2952 0.3731 0.7088
H27D H 0.6269 0.7912 0.2952
H27R H 0.3731 0.7088 0.2952
H28N H 0.6595 0.2926 0.4035
H28H H 0.2926 0.5965 0.8405
H28V H 0.2926 0.4035 0.6595
H28D H 0.5965 0.8405 0.2926
H28R H 0.4035 0.6595 0.2926
C25N C 0.8311(6) 0.1912(4) 0.4244(8)
C25H C 0.1912(4) 0.5756(8) 0.6689(6)
C25V C 0.1912(4) 0.4244(8) 0.8311(6)
C25D C 0.5756(8) 0.6689(6) 0.1912(4)
C25R C 0.4244(8) 0.8311(6) 0.1912(4)
H29N H 0.8045 0.2038 0.4047
H29H H 0.2038 0.5953 0.6955
H29V H 0.2038 0.4047 0.8045
H29D H 0.5953 0.6955 0.2038
H29R H 0.4047 0.8045 0.2038
H30N H 0.8218 0.1917 0.4587
H30H H 0.1917 0.5413 0.6782
H30V H 0.1917 0.4587 0.8218
H30D H 0.5413 0.6782 0.1917
H30R H 0.4587 0.8218 0.1917
H31N H 0.8383 0.1578 0.4147
H31H H 0.1578 0.5853 0.6617
H31V H 0.1578 0.4147 0.8383
H31D H 0.5853 0.6617 0.1578
H31R H 0.4147 0.8383 0.1578
loop_
_geom_bond_atom_site_label_1
_geom_bond_atom_site_label_2
_geom_bond_site_symmetry_1
_geom_bond_site_symmetry_2
K1 O1 1_555 1_555
O1 C1 1_555 1_555
O2 K1 1_555 1_555
C1 C5 1_555 1_555
O3 C10 1_555 1_555
C2 C10 1_555 1_555
C3 H1 1_555 1_555
H2 C3 1_555 1_555
C4 O1 1_555 1_555
H3 C4 1_555 1_555
H4 C4 1_555 1_555
C5 C3 1_555 1_555
C6 C1 1_555 1_555
C7 C5 1_555 1_555
H5 C7 1_555 1_555
C8 C6 1_555 1_555
H6 C8 1_555 1_555
C9 C7 1_555 1_555
C10 C21N 1_555 1_555
C11 H7 1_555 1_555
H8 C11 1_555 1_555
H9 C11 1_555 1_555
C12 C9 1_555 1_555
C13 H10 1_555 1_555
C14 C2 1_555 1_555
H11 C14 1_555 1_555
H12 C14 1_555 1_555
C15 C2 1_555 1_555
H13 C15 1_555 1_555
C16 C17 1_555 1_555
C17 C13 1_555 1_555
C18 C16 1_555 1_555
H14 C18 1_555 1_555
H15 C18 1_555 1_555
H16 C18 1_555 1_555
C19 C16 1_555 1_555
H17 C19 1_555 1_555
H18 C19 1_555 1_555
H19 C19 1_555 1_555
C20 C16 1_555 1_555
H20 C20 1_555 1_555
H21 C20 1_555 1_555
H22 C20 1_555 1_555
C21 C3 1_555 1_555
C22 O2 1_555 1_555
O4 C22 1_555 1_555
Co1 O4 1_555 1_555
O5 Co1 1_555 1_555
C23 C12 1_555 1_555
H23 C23 1_555 1_555
H24 C23 1_555 1_555
H25 C23 1_555 1_555
C24 O3 1_555 1_555
H26 C24 1_555 1_555
H27 C24 1_555 1_555
H28 C24 1_555 1_555
C25 C12 1_555 1_555
H29 C25 1_555 1_555
H30 C25 1_555 1_555
H31 C25 1_555 1_555
K1H O1H 1_555 1_555
K1D O1D 1_555 1_555
O1N K1 1_555 1_555
O1H C1H 1_555 1_555
O1V K1H 1_555 1_555
O1D C1D 1_555 1_555
O1R K1D 1_555 1_555
O2N K1 1_555 1_555
O2H K1H 1_555 1_555
O2V K1H 1_555 1_555
O2D K1D 1_555 1_555
O2R K1D 1_555 1_555
C1N O1N 1_555 1_555
C1H C5H 1_555 1_555
C1V O1V 1_555 1_555
C1D C5D 1_555 1_555
C1R O1R 1_555 1_555
O3N C10N 1_555 1_555
O3H C10H 1_555 1_555
O3V C10V 1_555 1_555
O3D C10D 1_555 1_555
O3R C10R 1_555 1_555
C2N C10N 1_555 1_555
C2H C10H 1_555 1_555
C2V C10V 1_555 1_555
C2D C10D 1_555 1_555
C2R C10R 1_555 1_555
C3N H1N 1_555 1_555
C3H H1H 1_555 1_555
C3V H1V 1_555 1_555
C3D H1D 1_555 1_555
C3R H1R 1_555 1_555
H2N C3N 1_555 1_555
H2H C3H 1_555 1_555
H2V C3V 1_555 1_555
H2D C3D 1_555 1_555
H2R C3R 1_555 1_555
C4N O1N 1_555 1_555
C4H O1H 1_555 1_555
C4V O1V 1_555 1_555
C4D O1D 1_555 1_555
C4R O1R 1_555 1_555
H3N C4N 1_555 1_555
H3H C4H 1_555 1_555
H3V C4V 1_555 1_555
H3D C4D 1_555 1_555
H3R C4R 1_555 1_555
H4N C4N 1_555 1_555
H4H C4H 1_555 1_555
H4V C4V 1_555 1_555
H4D C4D 1_555 1_555
H4R C4R 1_555 1_555
C5N C1N 1_555 1_555
C5H C3H 1_555 1_555
C5V C1V 1_555 1_555
C5D C3D 1_555 1_555
C5R C1R 1_555 1_555
C6N C1N 1_555 1_555
C6H C1H 1_555 1_555
C6V C1V 1_555 1_555
C6D C1D 1_555 1_555
C6R C1R 1_555 1_555
C7N C5N 1_555 1_555
C7H C5H 1_555 1_555
C7V C5V 1_555 1_555
C7D C5D 1_555 1_555
C7R C5R 1_555 1_555
H5N C7N 1_555 1_555
H5H C7H 1_555 1_555
H5V C7V 1_555 1_555
H5D C7D 1_555 1_555
H5R C7R 1_555 1_555
C8N C6N 1_555 1_555
C8H C6H 1_555 1_555
C8V C6V 1_555 1_555
C8D C6D 1_555 1_555
C8R C6R 1_555 1_555
H6N C8N 1_555 1_555
H6H C8H 1_555 1_555
H6V C8V 1_555 1_555
H6D C8D 1_555 1_555
H6R C8R 1_555 1_555
C9N C7N 1_555 1_555
C9H C7H 1_555 1_555
C9V C7V 1_555 1_555
C9D C7D 1_555 1_555
C9R C7R 1_555 1_555
C10N C21 1_555 1_555
C10H C21V 1_555 1_555
C10V C21H 1_555 1_555
C10D C21R 1_555 1_555
C10R C21D 1_555 1_555
C11N H7N 1_555 1_555
C11H H7H 1_555 1_555
C11V H7V 1_555 1_555
C11D H7D 1_555 1_555
C11R H7R 1_555 1_555
H8N C11N 1_555 1_555
H8H C11H 1_555 1_555
H8V C11V 1_555 1_555
H8D C11D 1_555 1_555
H8R C11R 1_555 1_555
H9N C11N 1_555 1_555
H9H C11H 1_555 1_555
H9V C11V 1_555 1_555
H9D C11D 1_555 1_555
H9R C11R 1_555 1_555
C12N C9N 1_555 1_555
C12H C9H 1_555 1_555
C12V C9V 1_555 1_555
C12D C9D 1_555 1_555
C12R C9R 1_555 1_555
C13N C21 1_555 1_555
C13H H10H 1_555 1_555
C13V H10V 1_555 1_555
C13D H10D 1_555 1_555
C13R H10R 1_555 1_555
H10N C13N 1_555 1_555
C14N C2N 1_555 1_555
C14H C2H 1_555 1_555
C14V C2V 1_555 1_555
C14D C2D 1_555 1_555
C14R C2R 1_555 1_555
H11N C14N 1_555 1_555
H11H C14H 1_555 1_555
H11V C14V 1_555 1_555
H11D C14D 1_555 1_555
H11R C14R 1_555 1_555
H12N C14N 1_555 1_555
H12H C14H 1_555 1_555
H12V C14V 1_555 1_555
H12D C14D 1_555 1_555
H12R C14R 1_555 1_555
C15N C2N 1_555 1_555
C15H C2H 1_555 1_555
C15V C2V 1_555 1_555
C15D C2D 1_555 1_555
C15R C2R 1_555 1_555
H13N C15N 1_555 1_555
H13H C15H 1_555 1_555
H13V C15V 1_555 1_555
H13D C15D 1_555 1_555
H13R C15R 1_555 1_555
C16N C17N 1_555 1_555
C16H C17H 1_555 1_555
C16V C17V 1_555 1_555
C16D C17D 1_555 1_555
C16R C17R 1_555 1_555
C17N C13N 1_555 1_555
C17H C13H 1_555 1_555
C17V C13V 1_555 1_555
C17D C13D 1_555 1_555
C17R C13R 1_555 1_555
C18N C16N 1_555 1_555
C18H C16H 1_555 1_555
C18V C16V 1_555 1_555
C18D C16D 1_555 1_555
C18R C16R 1_555 1_555
H14N C18N 1_555 1_555
H14H C18H 1_555 1_555
H14V C18V 1_555 1_555
H14D C18D 1_555 1_555
H14R C18R 1_555 1_555
H15N C18N 1_555 1_555
H15H C18H 1_555 1_555
H15V C18V 1_555 1_555
H15D C18D 1_555 1_555
H15R C18R 1_555 1_555
H16N C18N 1_555 1_555
H16H C18H 1_555 1_555
H16V C18V 1_555 1_555
H16D C18D 1_555 1_555
H16R C18R 1_555 1_555
C19N C16N 1_555 1_555
C19H C16H 1_555 1_555
C19V C16V 1_555 1_555
C19D C16D 1_555 1_555
C19R C16R 1_555 1_555
H17N C19N 1_555 1_555
H17H C19H 1_555 1_555
H17V C19V 1_555 1_555
H17D C19D 1_555 1_555
H17R C19R 1_555 1_555
H18N C19N 1_555 1_555
H18H C19H 1_555 1_555
H18V C19V 1_555 1_555
H18D C19D 1_555 1_555
H18R C19R 1_555 1_555
H19N C19N 1_555 1_555
H19H C19H 1_555 1_555
H19V C19V 1_555 1_555
H19D C19D 1_555 1_555
H19R C19R 1_555 1_555
C20N C16N 1_555 1_555
C20H C16H 1_555 1_555
C20V C16V 1_555 1_555
C20D C16D 1_555 1_555
C20R C16R 1_555 1_555
H20N C20N 1_555 1_555
H20H C20H 1_555 1_555
H20V C20V 1_555 1_555
H20D C20D 1_555 1_555
H20R C20R 1_555 1_555
H21N C20N 1_555 1_555
H21H C20H 1_555 1_555
H21V C20V 1_555 1_555
H21D C20D 1_555 1_555
H21R C20R 1_555 1_555
H22N C20N 1_555 1_555
H22H C20H 1_555 1_555
H22V C20V 1_555 1_555
H22D C20D 1_555 1_555
H22R C20R 1_555 1_555
C21N C13 1_555 1_555
C21H C3H 1_555 1_555
C21V C3V 1_555 1_555
C21D C3D 1_555 1_555
C21R C3R 1_555 1_555
C22N O2N 1_555 1_555
C22H O2H 1_555 1_555
C22V O2V 1_555 1_555
C22D O2D 1_555 1_555
C22R O2R 1_555 1_555
C22U O4U 1_555 1_555
C22S O4S 1_555 1_555
O4N C22N 1_555 1_555
O4H Co1 1_555 1_555
O4V C22V 1_555 1_555
O4D Co1 1_555 1_555
O4R C22R 1_555 1_555
O4U Co1N 1_555 1_555
O4S Co1N 1_555 1_555
O4O Co1O 1_555 1_555
O4Q Co1O 1_555 1_555
O4M Co1M 1_555 1_555
O4W Co1M 1_555 1_555
Co1N O4N 1_555 1_555
Co1O O4V 1_555 1_555
Co1M O4R 1_555 1_555
O5D Co1 1_555 1_555
O5H Co1 1_555 1_555
O5N Co1N 1_555 1_555
O5S Co1N 1_555 1_555
O5U Co1N 1_555 1_555
O5O Co1O 1_555 1_555
O5Q Co1O 1_555 1_555
O5V Co1O 1_555 1_555
O5M Co1M 1_555 1_555
O5R Co1M 1_555 1_555
O5W Co1M 1_555 1_555
C23N C12N 1_555 1_555
C23H C12H 1_555 1_555
C23V C12V 1_555 1_555
C23D C12D 1_555 1_555
C23R C12R 1_555 1_555
H23N C23N 1_555 1_555
H23H C23H 1_555 1_555
H23V C23V 1_555 1_555
H23D C23D 1_555 1_555
H23R C23R 1_555 1_555
H24N C23N 1_555 1_555
H24H C23H 1_555 1_555
H24V C23V 1_555 1_555
H24D C23D 1_555 1_555
H24R C23R 1_555 1_555
H25N C23N 1_555 1_555
H25H C23H 1_555 1_555
H25V C23V 1_555 1_555
H25D C23D 1_555 1_555
H25R C23R 1_555 1_555
C24N O3N 1_555 1_555
C24H O3H 1_555 1_555
C24V O3V 1_555 1_555
C24D O3D 1_555 1_555
C24R O3R 1_555 1_555
H26N C24N 1_555 1_555
H26H C24H 1_555 1_555
H26V C24V 1_555 1_555
H26D C24D 1_555 1_555
H26R C24R 1_555 1_555
H27N C24N 1_555 1_555
H27H C24H 1_555 1_555
H27V C24V 1_555 1_555
H27D C24D 1_555 1_555
H27R C24R 1_555 1_555
H28N C24N 1_555 1_555
H28H C24H 1_555 1_555
H28V C24V 1_555 1_555
H28D C24D 1_555 1_555
H28R C24R 1_555 1_555
C25N C12N 1_555 1_555
C25H C12H 1_555 1_555
C25V C12V 1_555 1_555
C25D C12D 1_555 1_555
C25R C12R 1_555 1_555
H29N C25N 1_555 1_555
H29H C25H 1_555 1_555
H29V C25V 1_555 1_555
H29D C25D 1_555 1_555
H29R C25R 1_555 1_555
H30N C25N 1_555 1_555
H30H C25H 1_555 1_555
H30V C25V 1_555 1_555
H30D C25D 1_555 1_555
H30R C25R 1_555 1_555
H31N C25N 1_555 1_555
H31H C25H 1_555 1_555
H31V C25V 1_555 1_555
H31D C25D 1_555 1_555
H31R C25R 1_555 1_555
C4 C22 1_555 1_555
C6 C14 1_555 1_555
C8 C9 1_555 1_555
C11 C12 1_555 1_555
C15 C17 1_555 1_555
C3N C5N 1_555 1_555
C3N C21N 1_555 1_555
C3V C5V 1_555 1_555
C3R C5R 1_555 1_555
C4N C22N 1_555 1_555
C4H C22H 1_555 1_555
C4V C22V 1_555 1_555
C4D C22D 1_555 1_555
C4R C22R 1_555 1_555
C6N C14N 1_555 1_555
C6H C14H 1_555 1_555
C6V C14V 1_555 1_555
C6D C14D 1_555 1_555
C6R C14R 1_555 1_555
C8N C9N 1_555 1_555
C8H C9H 1_555 1_555
C8V C9V 1_555 1_555
C8D C9D 1_555 1_555
C8R C9R 1_555 1_555
C11N C12N 1_555 1_555
C11H C12H 1_555 1_555
C11V C12V 1_555 1_555
C11D C12D 1_555 1_555
C11R C12R 1_555 1_555
C13H C21V 1_555 1_555
C13V C21H 1_555 1_555
C13D C21R 1_555 1_555
C13R C21D 1_555 1_555
C15N C17N 1_555 1_555
C15H C17H 1_555 1_555
C15V C17V 1_555 1_555
C15D C17D 1_555 1_555
C15R C17R 1_555 1_555
C22H O4H 1_555 1_555
C22D O4D 1_555 1_555

#END
