
#######################################################################
#
#                 Cambridge Crystallographic Data Centre
#                                CCDC 
#
#######################################################################
#
# If this CIF has been generated from an entry in the Cambridge 
# Structural Database, then it will include bibliographic, chemical, 
# crystal, experimental, refinement or atomic coordinate data resulting 
# from the CCDC's data processing and validation procedures.
#
#######################################################################

data_LOQGEF
_symmetry_cell_setting           triclinic
_symmetry_space_group_name_H-M   'P -1'
_symmetry_Int_Tables_number      2
_space_group_name_Hall           '-P 1'
loop_
_symmetry_equiv_pos_site_id
_symmetry_equiv_pos_as_xyz
1 x,y,z
2 -x,-y,-z
_cell_length_a                   9.8304(8)
_cell_length_b                   13.7388(11)
_cell_length_c                   14.8816(12)
_cell_angle_alpha                63.4935(11)
_cell_angle_beta                 84.0016(13)
_cell_angle_gamma                81.8575(12)
_cell_volume                     1778.54
loop_
_atom_site_label
_atom_site_type_symbol
_atom_site_fract_x
_atom_site_fract_y
_atom_site_fract_z
Cd1 Cd 0.50443(2) 0.05368(2) 0.35685(2)
Cd2 Cd 0.15023(2) 0.07845(2) 0.49986(2)
Cl1 Cl 0.35930(7) -0.08333(5) 0.51401(5)
Cl2 Cl 0.30590(7) 0.20222(5) 0.35240(5)
Cl3 Cl 0.28795(7) 0.08664(6) 0.63691(5)
Cl4 Cl 0.01156(7) 0.05557(5) 0.36904(5)
O1 O 0.1299(2) -0.10925(19) -0.06145(17)
O2 O -0.0320(3) -0.1808(2) 0.08470(18)
H1 H 0.009(3) -0.162(3) 0.0278(17)
O3 O 0.8559(3) 0.5588(2) -0.18904(19)
H2 H 0.868(4) 0.600(3) -0.160(3)
O4 O 0.8571(3) 0.6459(2) -0.0755(2)
O5 O -0.5520(2) 0.55950(18) 0.32619(19)
H3 H -0.533(4) 0.601(2) 0.351(2)
O6 O -0.4417(2) 0.66111(17) 0.39087(18)
N1 N 0.3871(2) 0.00479(19) 0.25611(17)
N2 N 0.6033(3) 0.19701(19) 0.21866(18)
N3 N -0.0091(2) 0.23090(18) 0.48202(17)
C1 C -0.0101(4) -0.1713(3) 0.2366(3)
H4 H -0.0990 -0.2010 0.2512
H5 H -0.0205 -0.1033 0.2441
H6 H 0.0569 -0.2245 0.2835
C2 C 0.0389(3) -0.1487(3) 0.1319(2)
C3 C 0.1587(3) -0.0961(2) 0.0873(2)
C4 C 0.1994(3) -0.0771(3) -0.0116(2)
C5 C 0.3214(4) -0.0197(3) -0.0668(3)
H7 H 0.3186 -0.0006 -0.1384
H8 H 0.4057 -0.0678 -0.0400
H9 H 0.3203 0.0472 -0.0582
C6 C 0.2393(3) -0.0607(2) 0.1451(2)
C7 C 0.2049(3) 0.0395(3) 0.1478(2)
H10 H 0.1303 0.0881 0.1111
C8 C 0.2800(3) 0.0681(2) 0.2044(2)
H11 H 0.2537 0.1364 0.2064
C9 C 0.4215(3) -0.0925(2) 0.2543(2)
H12 H 0.4976 -0.1388 0.2909
C10 C 0.3497(3) -0.1273(2) 0.2007(2)
H13 H 0.3760 -0.1972 0.2020
C11 C 0.7779(4) 0.3892(3) -0.1410(3)
H14 H 0.6994 0.4150 -0.1843
H15 H 0.7577 0.3235 -0.0799
H16 H 0.8597 0.3717 -0.1770
C12 C 0.8038(4) 0.4762(3) -0.1133(3)
C13 C 0.7788(3) 0.4731(3) -0.0195(2)
C14 C 0.8102(4) 0.5627(3) -0.0036(3)
C15 C 0.7880(5) 0.5631(3) 0.0974(3)
H17 H 0.8072 0.6338 0.0917
H18 H 0.8498 0.5045 0.1448
H19 H 0.6923 0.5514 0.1217
C16 C 0.7194(3) 0.3772(2) 0.0642(2)
C17 C 0.7965(3) 0.3002(3) 0.1439(2)
H20 H 0.8902 0.3077 0.1472
C18 C 0.7346(3) 0.2121(3) 0.2185(2)
H21 H 0.7886 0.1600 0.2722
C19 C 0.5291(3) 0.2716(3) 0.1418(2)
H22 H 0.4351 0.2628 0.1412
C20 C 0.5826(3) 0.3599(3) 0.0642(2)
H23 H 0.5267 0.4092 0.0106
C21 C -0.2290(3) 0.6006(3) 0.4710(3)
H24 H -0.2407 0.6760 0.4631
H25 H -0.1388 0.5860 0.4420
H26 H -0.2352 0.5499 0.5426
C22 C -0.3392(3) 0.5852(3) 0.4182(2)
C23 C -0.3380(3) 0.4930(2) 0.4003(2)
C24 C -0.4495(3) 0.4833(2) 0.3537(2)
C25 C -0.4587(4) 0.3874(3) 0.3338(3)
H27 H -0.4937 0.3280 0.3948
H28 H -0.3672 0.3624 0.3140
H29 H -0.5213 0.4085 0.2794
C26 C -0.2210(3) 0.4037(2) 0.4311(2)
C27 C -0.2391(3) 0.3009(2) 0.5084(2)
H30 H -0.3248 0.2875 0.5454
C28 C -0.1315(3) 0.2180(2) 0.5311(2)
H31 H -0.1458 0.1483 0.5845
C29 C 0.0094(3) 0.3313(2) 0.4081(2)
H32 H 0.0965 0.3430 0.3731
C30 C -0.0933(3) 0.4178(2) 0.3811(2)
H33 H -0.0761 0.4870 0.3282
Cd1A Cd 0.49557(2) -0.05368(2) 0.64315(2)
Cd2A Cd -0.15023(2) -0.07845(2) 0.50014(2)
Cl1A Cl 0.64070(7) 0.08333(5) 0.48599(5)
Cl3A Cl 0.71205(7) -0.08664(6) 0.36309(5)
Cl4A Cl -0.01156(7) -0.05557(5) 0.63096(5)
loop_
_geom_bond_atom_site_label_1
_geom_bond_atom_site_label_2
_geom_bond_site_symmetry_1
_geom_bond_site_symmetry_2
Cd1 Cl1 1_555 1_555
Cd2 Cl1 1_555 1_555
Cl1 Cd1A 1_555 1_555
Cl2 Cd1 1_555 1_555
Cl3 Cd2 1_555 1_555
Cl4 Cd2 1_555 1_555
O1 C4 1_555 1_555
O2 H1 1_555 1_555
O3 H2 1_555 1_555
O4 C14 1_555 1_555
O5 H3 1_555 1_555
O6 C22 1_555 1_555
N1 Cd1 1_555 1_555
N2 Cd1 1_555 1_555
N3 Cd2 1_555 1_555
C1 H4 1_555 1_555
H5 C1 1_555 1_555
H6 C1 1_555 1_555
C2 O2 1_555 1_555
C3 C2 1_555 1_555
C4 C3 1_555 1_555
C5 C4 1_555 1_555
H7 C5 1_555 1_555
H8 C5 1_555 1_555
H9 C5 1_555 1_555
C6 C3 1_555 1_555
C7 C6 1_555 1_555
H10 C7 1_555 1_555
C8 N1 1_555 1_555
H11 C8 1_555 1_555
C9 N1 1_555 1_555
H12 C9 1_555 1_555
C10 C6 1_555 1_555
H13 C10 1_555 1_555
C11 H14 1_555 1_555
H15 C11 1_555 1_555
H16 C11 1_555 1_555
C12 O3 1_555 1_555
C13 C12 1_555 1_555
C14 C13 1_555 1_555
C15 C14 1_555 1_555
H17 C15 1_555 1_555
H18 C15 1_555 1_555
H19 C15 1_555 1_555
C16 C13 1_555 1_555
C17 C16 1_555 1_555
H20 C17 1_555 1_555
C18 N2 1_555 1_555
H21 C18 1_555 1_555
C19 N2 1_555 1_555
H22 C19 1_555 1_555
C20 C16 1_555 1_555
H23 C20 1_555 1_555
C21 H24 1_555 1_555
H25 C21 1_555 1_555
H26 C21 1_555 1_555
C22 C21 1_555 1_555
C23 C22 1_555 1_555
C24 O5 1_555 1_555
C25 C24 1_555 1_555
H27 C25 1_555 1_555
H28 C25 1_555 1_555
H29 C25 1_555 1_555
C26 C23 1_555 1_555
C27 C26 1_555 1_555
H30 C27 1_555 1_555
C28 N3 1_555 1_555
H31 C28 1_555 1_555
C29 N3 1_555 1_555
H32 C29 1_555 1_555
C30 C26 1_555 1_555
H33 C30 1_555 1_555
Cd1A Cl3 1_555 1_555
Cd2A Cl4 1_555 1_555
Cl1A Cd1 1_555 1_555
Cl3A Cd1 1_555 1_555
Cl4A Cd2 1_555 1_555
Cd2 Cl2 1_555 1_555
C1 C2 1_555 1_555
C7 C8 1_555 1_555
C9 C10 1_555 1_555
C11 C12 1_555 1_555
C17 C18 1_555 1_555
C19 C20 1_555 1_555
C23 C24 1_555 1_555
C27 C28 1_555 1_555
C29 C30 1_555 1_555
Cd1A Cl1A 1_555 1_555
Cd2A Cl4A 1_555 1_555

#END
