
#######################################################################
#
#                 Cambridge Crystallographic Data Centre
#                                CCDC 
#
#######################################################################
#
# If this CIF has been generated from an entry in the Cambridge 
# Structural Database, then it will include bibliographic, chemical, 
# crystal, experimental, refinement or atomic coordinate data resulting 
# from the CCDC's data processing and validation procedures.
#
#######################################################################

data_LOQKIL
_symmetry_cell_setting           monoclinic
_symmetry_space_group_name_H-M   'P 21/n'
_symmetry_Int_Tables_number      14
_space_group_name_Hall           '-P 2yn'
loop_
_symmetry_equiv_pos_site_id
_symmetry_equiv_pos_as_xyz
1 x,y,z
2 1/2-x,1/2+y,1/2-z
3 -x,-y,-z
4 1/2+x,1/2-y,1/2+z
_cell_length_a                   8.9216(3)
_cell_length_b                   8.8643(3)
_cell_length_c                   11.4100(4)
_cell_angle_alpha                90
_cell_angle_beta                 111.7990(10)
_cell_angle_gamma                90
_cell_volume                     837.821
loop_
_atom_site_label
_atom_site_type_symbol
_atom_site_fract_x
_atom_site_fract_y
_atom_site_fract_z
Cu1 Cu 0.0000 0.0000 0.0000
Cu2 Cu 0.1193(1) 0.2911(1) -0.1136(1)
V1 V -0.1979(1) 0.3186(1) -0.0174(1)
V2 V -0.0843(1) 0.1519(1) 0.2659(1)
O1 O -0.1761(4) 0.2838(3) 0.1410(3)
O2 O -0.3943(3) 0.2746(3) -0.1243(3)
O3 O -0.0557(3) 0.2161(3) -0.0542(3)
O4 O -0.1657(4) 0.4957(3) -0.0291(3)
O5 O -0.2054(4) 0.1222(3) 0.3435(3)
O6 O 0.0542(4) 0.0061(3) -0.2028(3)
N1 N 0.2740(4) 0.1860(4) 0.0334(3)
N2 N 0.2201(4) 0.0709(3) 0.0863(3)
N3 N 0.4566(4) 0.1428(4) 0.2238(3)
C1 C 0.4169(5) 0.2273(5) 0.1173(4)
C2 C 0.3317(5) 0.0479(4) 0.1990(4)
H1 H 0.4906(47) 0.3131(43) 0.1045(36)
H2 H 0.3184(54) -0.0191(55) 0.2514(43)
O3B O 0.0557(3) -0.2161(3) 0.0542(3)
O6B O -0.0542(4) -0.0061(3) 0.2028(3)
N2B N -0.2201(4) -0.0709(3) -0.0863(3)
O4B O 0.1657(4) 0.5043(3) 0.0291(3)
O2C O 0.1057(3) 0.2254(3) 0.3757(3)
O5C O 0.2946(4) 0.3778(3) -0.1565(3)
V2C V -0.5843(1) 0.3481(1) -0.2341(1)
V2B V 0.0843(1) -0.1519(1) -0.2659(1)
N3C N -0.0434(4) 0.3572(4) -0.2762(3)
Cu2B Cu -0.1193(1) -0.2911(1) 0.1136(1)
V1B V 0.1979(1) -0.3186(1) 0.0174(1)
N1B N -0.2740(4) -0.1860(4) -0.0334(3)
C2B C -0.3317(5) -0.0479(4) -0.1990(4)
Cu2B_2 Cu -0.1193(1) 0.7089(1) 0.1136(1)
Cu2C Cu -0.3807(1) 0.2089(1) 0.3864(1)
O1B O 0.1761(4) -0.2838(3) -0.1410(3)
O2A O -0.1057(3) -0.2254(3) -0.3757(3)
O5B O 0.2054(4) -0.1222(3) -0.3435(3)
Cu2C_2 Cu 0.6193(1) 0.2089(1) 0.3864(1)
O4_2 O -0.1657(4) -0.5043(3) -0.0291(3)
O5A O -0.2946(4) -0.3778(3) 0.1565(3)
N3A N 0.0434(4) -0.3572(4) 0.2762(3)
O2B O 0.3943(3) -0.2746(3) 0.1243(3)
O4B_2 O 0.1657(4) -0.4957(3) 0.0291(3)
C1B C -0.4169(5) -0.2273(5) -0.1173(4)
N3B N -0.4566(4) -0.1428(4) -0.2238(3)
H2B H -0.3184(54) 0.0191(55) -0.2514(43)
Cu2A Cu 0.3807(1) -0.2089(1) -0.3864(1)
V2A V 0.5843(1) -0.3481(1) 0.2341(1)
Cu2_2 Cu 0.1193(1) -0.7089(1) -0.1136(1)
H1B H -0.4906(47) -0.3131(43) -0.1045(36)
Cu2A_2 Cu -0.6193(1) -0.2089(1) -0.3864(1)
loop_
_geom_bond_atom_site_label_1
_geom_bond_atom_site_label_2
_geom_bond_site_symmetry_1
_geom_bond_site_symmetry_2
Cu1 O3 1_555 1_555
Cu2 O3 1_555 1_555
V1 O1 1_555 1_555
V2 O1 1_555 1_555
O2 V1 1_555 1_555
O3 V1 1_555 1_555
O4 V1 1_555 1_555
O5 V2 1_555 1_555
O6 Cu1 1_555 1_555
N1 Cu2 1_555 1_555
N2 Cu1 1_555 1_555
N3 C1 1_555 1_555
C1 N1 1_555 1_555
C2 N2 1_555 1_555
H1 C1 1_555 1_555
H2 C2 1_555 1_555
O3B Cu1 1_555 1_555
O6B Cu1 1_555 1_555
N2B Cu1 1_555 1_555
O4B Cu2 1_555 1_555
O2C V2 1_555 1_555
O5C Cu2 1_555 1_555
V2C O2 1_555 1_555
V2B O6 1_555 1_555
N3C Cu2 1_555 1_555
Cu2B O3B 1_555 1_555
V1B O3B 1_555 1_555
N1B N2B 1_555 1_555
C2B N2B 1_555 1_555
Cu2B_2 O4 1_555 1_555
Cu2C O5 1_555 1_555
O1B V2B 1_555 1_555
O2A V2B 1_555 1_555
O5B V2B 1_555 1_555
Cu2C_2 N3 1_555 1_555
O4_2 Cu2B 1_555 1_555
O5A Cu2B 1_555 1_555
N3A Cu2B 1_555 1_555
O2B V1B 1_555 1_555
O4B_2 V1B 1_555 1_555
C1B N1B 1_555 1_555
N3B C2B 1_555 1_555
H2B C2B 1_555 1_555
Cu2A O5B 1_555 1_555
V2A O2B 1_555 1_555
Cu2_2 O4B_2 1_555 1_555
H1B C1B 1_555 1_555
Cu2A_2 N3B 1_555 1_555
Cu2 O6 1_555 1_555
V2 O6B 1_555 1_555
N1 N2 1_555 1_555
N3 C2 1_555 1_555
O6B Cu2B 1_555 1_555
Cu2B N1B 1_555 1_555
V1B O1B 1_555 1_555
C1B N3B 1_555 1_555

#END
