
#######################################################################
#
#                 Cambridge Crystallographic Data Centre
#                                CCDC 
#
#######################################################################
#
# If this CIF has been generated from an entry in the Cambridge 
# Structural Database, then it will include bibliographic, chemical, 
# crystal, experimental, refinement or atomic coordinate data resulting 
# from the CCDC's data processing and validation procedures.
#
#######################################################################

data_LOQLEJ
_symmetry_cell_setting           orthorhombic
_symmetry_space_group_name_H-M   'C m c m'
_symmetry_Int_Tables_number      63
_space_group_name_Hall           '-C 2n 2'
loop_
_symmetry_equiv_pos_site_id
_symmetry_equiv_pos_as_xyz
1 x,y,z
2 -x,-y,1/2+z
3 -x,y,1/2-z
4 x,-y,-z
5 1/2+x,1/2+y,z
6 1/2-x,1/2-y,1/2+z
7 1/2-x,1/2+y,1/2-z
8 1/2+x,1/2-y,-z
9 -x,-y,-z
10 x,y,1/2-z
11 x,-y,1/2+z
12 -x,y,z
13 1/2-x,1/2-y,-z
14 1/2+x,1/2+y,1/2-z
15 1/2+x,1/2-y,1/2+z
16 1/2-x,1/2+y,z
_cell_length_a                   21.7739(6)
_cell_length_b                   37.6772(10)
_cell_length_c                   7.23300(10)
_cell_angle_alpha                90
_cell_angle_beta                 90
_cell_angle_gamma                90
_cell_volume                     5933.81
loop_
_atom_site_label
_atom_site_type_symbol
_atom_site_fract_x
_atom_site_fract_y
_atom_site_fract_z
C10 C 0.5000 0.3270(3) 0.7500
N1 N 0.5000 0.35178(16) 0.5983(10)
C11 C 0.5000 0.3298(3) 0.4335(14)
C12 C 0.5000 0.38730(17) 0.6025(10)
O6 O 0.5000 0.4024(2) 0.7500
N1B N 0.5000 0.35178(16) 0.9017(10)
C11B C 0.5000 0.3298(3) 1.0665(14)
C12B C 0.5000 0.38730(17) 0.8975(10)
In1 In 0.2500 -0.2500 1.0000
In2 In 0.0000 0.0000 1.0000
O1 O 0.22628(9) -0.27489(5) 1.2500
O2 O 0.34179(5) -0.23893(4) 1.09565(16)
O3 O 0.22136(7) -0.19869(3) 1.09806(19)
O4 O 0.06617(7) -0.03799(3) 1.09647(19)
O5 O 0.0000 0.02416(8) 1.2500
C1 C 0.36763(11) -0.23833(7) 1.2500
C2 C 0.43722(10) -0.23508(8) 1.2500
C3 C 0.46837(7) -0.23630(8) 1.4144(2)
H1 H 0.4469 -0.2371 1.5255
C4 C 0.20819(12) -0.18567(7) 1.2500
C5 C 0.17818(12) -0.14937(6) 1.2500
C6 C 0.16312(11) -0.13271(5) 1.0861(2)
H2 H 0.1742 -0.1431 0.9743
C7 C 0.13249(10) -0.10159(5) 1.0858(2)
H3 H 0.1219 -0.0909 0.9743
C8 C 0.11691(13) -0.08558(6) 1.2500
C9 C 0.08025(12) -0.05100(6) 1.2500
In1E In 0.2500 -0.2500 1.5000
In1G In 0.7500 -0.2500 1.0000
In1B In 0.7500 -0.2500 1.5000
In1D In -0.2500 0.2500 1.0000
In1A In -0.2500 0.2500 0.5000
In1E_2 In 0.2500 -0.2500 0.5000
In2A In 0.0000 0.0000 1.5000
In2A_2 In 0.0000 0.0000 0.5000
O1E O 0.27372(9) -0.22511(5) 0.7500
O1E_2 O 0.27372(9) -0.22511(5) 1.7500
O2I O 0.34179(5) -0.23893(4) 1.40435(16)
O2K O 0.65821(5) -0.23893(4) 1.09565(16)
O2B O 0.65821(5) -0.23893(4) 1.40435(16)
O2L O 0.15821(5) -0.26107(4) 0.90435(16)
O2E O 0.15821(5) -0.26107(4) 1.59565(16)
O3I O 0.22136(7) -0.19869(3) 1.40194(19)
O3H O -0.22136(7) 0.19869(3) 0.90194(19)
O3A O -0.22136(7) 0.19869(3) 0.59806(19)
O3L O 0.27864(7) -0.30131(3) 0.90194(19)
O3E O 0.27864(7) -0.30131(3) 1.59806(19)
O4I O 0.06617(7) -0.03799(3) 1.40353(19)
O4H O -0.06617(7) 0.03799(3) 0.90353(19)
O4A O -0.06617(7) 0.03799(3) 0.59647(19)
O4C O 0.06617(7) 0.03799(3) 0.90353(19)
O4K O -0.06617(7) -0.03799(3) 1.09647(19)
O5A O 0.0000 -0.02416(8) 0.7500
C1B C 0.63237(11) -0.23833(7) 1.2500
C2B C 0.56278(10) -0.23508(8) 1.2500
C3K C 0.53163(7) -0.23630(8) 1.4144(2)
C3B C 0.53163(7) -0.23630(8) 1.0856(2)
C3I C 0.46837(7) -0.23630(8) 1.0856(2)
H1B H 0.5531 -0.2371 0.9745
H1I H 0.4469 -0.2371 0.9745
H1K H 0.5531 -0.2371 1.5255
C4A C -0.20819(12) 0.18567(7) 0.7500
C5A C -0.17818(12) 0.14937(6) 0.7500
C6I C 0.16312(11) -0.13271(5) 1.4139(2)
C6H C -0.16312(11) 0.13271(5) 0.9139(2)
C6A C -0.16312(11) 0.13271(5) 0.5861(2)
H2I H 0.1742 -0.1431 1.5257
H2H H -0.1742 0.1431 1.0257
H2A H -0.1742 0.1431 0.4743
C7I C 0.13249(10) -0.10159(5) 1.4142(2)
C7H C -0.13249(10) 0.10159(5) 0.9142(2)
C7A C -0.13249(10) 0.10159(5) 0.5858(2)
H3I H 0.1219 -0.0909 1.5257
H3H H -0.1219 0.0909 1.0257
H3A H -0.1219 0.0909 0.4743
C8A C -0.11691(13) 0.08558(6) 0.7500
C9A C -0.08025(12) 0.05100(6) 0.7500
loop_
_geom_bond_atom_site_label_1
_geom_bond_atom_site_label_2
_geom_bond_site_symmetry_1
_geom_bond_site_symmetry_2
In1 O1 1_555 1_555
In2 O4 1_555 1_555
O1 In1E 1_555 1_555
O2 In1 1_555 1_555
O3 In1 1_555 1_555
O4 C9 1_555 1_555
O5 In2 1_555 1_555
C1 O2 1_555 1_555
C2 C1 1_555 1_555
C3 C2 1_555 1_555
H1 C3 1_555 1_555
C4 O3 1_555 1_555
C5 C4 1_555 1_555
C6 C5 1_555 1_555
H2 C6 1_555 1_555
C7 C6 1_555 1_555
H3 C7 1_555 1_555
C8 C7 1_555 1_555
C9 C8 1_555 1_555
C10 N1 1_555 1_555
N1 C11 1_555 1_555
C12 N1 1_555 1_555
O6 C12 1_555 1_555
In1E O1E_2 1_555 1_555
In1G O2K 1_555 1_555
In1B O2B 1_555 1_555
In1D O3H 1_555 1_555
In1A O3A 1_555 1_555
In1E_2 O1E 1_555 1_555
In2A O5 1_555 1_555
In2A_2 O4A 1_555 1_555
O1E In1 1_555 1_555
O2I C1 1_555 1_555
O2K C1B 1_555 1_555
O2B C1B 1_555 1_555
O2L In1 1_555 1_555
O2E In1E 1_555 1_555
O3I C4 1_555 1_555
O3H C4A 1_555 1_555
O3A C4A 1_555 1_555
O3L In1 1_555 1_555
O3E In1E 1_555 1_555
O4I C9 1_555 1_555
O4H In2 1_555 1_555
O4A C9A 1_555 1_555
O4C In2 1_555 1_555
O4K In2 1_555 1_555
O5A In2 1_555 1_555
C1B C2B 1_555 1_555
C2B C3K 1_555 1_555
C3K C3 1_555 1_555
C3B C2B 1_555 1_555
C3I C2 1_555 1_555
H1B C3B 1_555 1_555
H1I C3I 1_555 1_555
H1K C3K 1_555 1_555
C4A C5A 1_555 1_555
C5A C6H 1_555 1_555
C6I C5 1_555 1_555
C6H H2H 1_555 1_555
C6A C5A 1_555 1_555
H2I C6I 1_555 1_555
H2A C6A 1_555 1_555
C7I C8 1_555 1_555
C7H C6H 1_555 1_555
C7A C6A 1_555 1_555
H3I C7I 1_555 1_555
H3H C7H 1_555 1_555
H3A C7A 1_555 1_555
C8A C7H 1_555 1_555
C9A O4H 1_555 1_555
N1B C10 1_555 1_555
C11B N1B 1_555 1_555
C12B O6 1_555 1_555
In1E O2I 1_555 1_555
In1E O3I 1_555 1_555
In2A O4I 1_555 1_555
In2A_2 O5A 1_555 1_555
C3B C3I 1_555 1_555
C6I C7I 1_555 1_555
C7A C8A 1_555 1_555
C8A C9A 1_555 1_555
N1B C12B 1_555 1_555

#END
