
#######################################################################
#
#                 Cambridge Crystallographic Data Centre
#                                CCDC 
#
#######################################################################
#
# If this CIF has been generated from an entry in the Cambridge 
# Structural Database, then it will include bibliographic, chemical, 
# crystal, experimental, refinement or atomic coordinate data resulting 
# from the CCDC's data processing and validation procedures.
#
#######################################################################

data_LOQMUB
_symmetry_cell_setting           monoclinic
_symmetry_space_group_name_H-M   'P 21/c'
_symmetry_Int_Tables_number      14
_space_group_name_Hall           '-P 2ybc'
loop_
_symmetry_equiv_pos_site_id
_symmetry_equiv_pos_as_xyz
1 x,y,z
2 -x,1/2+y,1/2-z
3 -x,-y,-z
4 x,1/2-y,1/2+z
_cell_length_a                   12.1215(4)
_cell_length_b                   14.6839(5)
_cell_length_c                   13.6118(5)
_cell_angle_alpha                90
_cell_angle_beta                 100.819(3)
_cell_angle_gamma                90
_cell_volume                     2379.71
loop_
_atom_site_label
_atom_site_type_symbol
_atom_site_fract_x
_atom_site_fract_y
_atom_site_fract_z
Co1 Co 0.25178(3) 0.99281(3) 0.47746(3)
O1 O 0.33649(18) 0.91675(15) 0.40169(17)
O2 O 0.21819(18) 0.79989(17) 0.36210(18)
O3 O 0.6527(2) 0.89060(16) 0.60792(16)
O4 O 0.8567(2) 0.73751(16) 0.96634(15)
O5 O 1.17951(17) 0.58853(15) 1.05958(16)
O6 O 1.30066(19) 0.7028(2) 1.1038(2)
N1 N 0.5107(2) 0.83144(17) 0.35732(19)
N2 N 0.6466(2) 0.93047(18) 0.41648(18)
N3 N 1.02304(19) 0.65736(17) 1.14555(17)
N4 N 0.89186(19) 0.55141(18) 1.10223(17)
C1 C 0.3109(3) 0.8353(2) 0.3751(2)
C2 C 0.4099(3) 0.7767(2) 0.3577(3)
H1 H 0.4259 0.7311 0.4099
H2 H 0.3896 0.7454 0.2941
C3 C 0.5365(2) 0.8758(2) 0.2742(2)
C4 C 0.4919(3) 0.8667(2) 0.1727(2)
H3 H 0.4332 0.8269 0.1492
C5 C 0.5398(3) 0.9201(3) 0.1094(3)
H4 H 0.5127 0.9166 0.0409
C6 C 0.6279(3) 0.9792(3) 0.1451(3)
H5 H 0.6590 1.0135 0.0996
C7 C 0.6705(3) 0.9886(3) 0.2460(2)
H6 H 0.7291 1.0286 0.2691
C8 C 0.6224(3) 0.9361(2) 0.3114(2)
C9 C 0.5764(2) 0.8679(2) 0.4383(2)
C10 C 0.5709(3) 0.8397(3) 0.5432(2)
H7 H 0.4968 0.8518 0.5574
H8 H 0.5861 0.7750 0.5520
C11 C 0.7002(3) 0.8466(2) 0.6973(2)
C12 C 0.7669(3) 0.7719(2) 0.6956(2)
H9 H 0.7755 0.7470 0.6347
C13 C 0.8218(3) 0.7328(2) 0.7842(2)
H10 H 0.8678 0.6823 0.7833
C14 C 0.8068(3) 0.7707(2) 0.8739(2)
C15 C 0.7392(3) 0.8466(3) 0.8751(3)
H11 H 0.7299 0.8719 0.9357
C16 C 0.6854(3) 0.8845(3) 0.7858(3)
H12 H 0.6396 0.9353 0.7860
C17 C 0.9212(3) 0.6561(2) 0.9674(2)
H13 H 0.9912 0.6687 0.9452
H14 H 0.8797 0.6111 0.9229
C18 C 0.9440(2) 0.6216(2) 1.0721(2)
C19 C 0.9438(2) 0.5365(2) 1.2022(2)
C20 C 0.9278(3) 0.4689(3) 1.2687(2)
H15 H 0.8728 0.4246 1.2515
C21 C 0.9970(3) 0.4699(3) 1.3620(3)
H16 H 0.9899 0.4241 1.4076
C22 C 1.0770(3) 0.5380(3) 1.3893(2)
H17 H 1.1204 0.5372 1.4534
C23 C 1.0936(3) 0.6062(2) 1.3244(2)
H18 H 1.1469 0.6516 1.3426
C24 C 1.0257(2) 0.6031(2) 1.2296(2)
C25 C 1.1137(3) 0.7184(2) 1.1315(2)
H19 H 1.1435 0.7485 1.1943
H20 H 1.0842 0.7648 1.0829
C26 C 1.2086(3) 0.6666(2) 1.0951(2)
Co1A Co 0.74822(3) 0.49281(3) 1.02254(3)
Co1B Co 0.74822(3) 1.00719(3) 0.52254(3)
Co1C Co 1.25178(3) 0.50719(3) 0.97746(3)
O5C O 0.17951(17) 0.91147(15) 0.55958(16)
N2B N 0.3534(2) 1.06953(18) 0.58352(18)
N4A N 0.10814(19) 1.05141(18) 0.39777(17)
loop_
_geom_bond_atom_site_label_1
_geom_bond_atom_site_label_2
_geom_bond_site_symmetry_1
_geom_bond_site_symmetry_2
Co1 O1 1_555 1_555
O1 C1 1_555 1_555
O2 C1 1_555 1_555
O3 C10 1_555 1_555
O4 C14 1_555 1_555
O5 C26 1_555 1_555
O6 C26 1_555 1_555
N1 C2 1_555 1_555
N2 C8 1_555 1_555
N3 C18 1_555 1_555
N4 C18 1_555 1_555
C1 C2 1_555 1_555
C2 H1 1_555 1_555
H2 C2 1_555 1_555
C3 N1 1_555 1_555
C4 C3 1_555 1_555
H3 C4 1_555 1_555
C5 C4 1_555 1_555
H4 C5 1_555 1_555
C6 C5 1_555 1_555
H5 C6 1_555 1_555
C7 C6 1_555 1_555
H6 C7 1_555 1_555
C8 C3 1_555 1_555
C9 N1 1_555 1_555
C10 C9 1_555 1_555
H7 C10 1_555 1_555
H8 C10 1_555 1_555
C11 O3 1_555 1_555
C12 C11 1_555 1_555
H9 C12 1_555 1_555
C13 C12 1_555 1_555
H10 C13 1_555 1_555
C14 C13 1_555 1_555
C15 C14 1_555 1_555
H11 C15 1_555 1_555
C16 C11 1_555 1_555
H12 C16 1_555 1_555
C17 O4 1_555 1_555
H13 C17 1_555 1_555
H14 C17 1_555 1_555
C18 C17 1_555 1_555
C19 N4 1_555 1_555
C20 C19 1_555 1_555
H15 C20 1_555 1_555
C21 C20 1_555 1_555
H16 C21 1_555 1_555
C22 C21 1_555 1_555
H17 C22 1_555 1_555
C23 C22 1_555 1_555
H18 C23 1_555 1_555
C24 N3 1_555 1_555
C25 N3 1_555 1_555
H19 C25 1_555 1_555
H20 C25 1_555 1_555
C26 C25 1_555 1_555
Co1A N4 1_555 1_555
Co1B N2 1_555 1_555
Co1C O5 1_555 1_555
O5C Co1 1_555 1_555
N2B Co1 1_555 1_555
N4A Co1 1_555 1_555
N2 C9 1_555 1_555
C7 C8 1_555 1_555
C15 C16 1_555 1_555
C19 C24 1_555 1_555
C23 C24 1_555 1_555

#END
