
#######################################################################
#
#                 Cambridge Crystallographic Data Centre
#                                CCDC 
#
#######################################################################
#
# If this CIF has been generated from an entry in the Cambridge 
# Structural Database, then it will include bibliographic, chemical, 
# crystal, experimental, refinement or atomic coordinate data resulting 
# from the CCDC's data processing and validation procedures.
#
#######################################################################

data_LOQSOA
_symmetry_cell_setting           rhombohedral
_symmetry_space_group_name_H-M   'R 3 c'
_symmetry_Int_Tables_number      161
_space_group_name_Hall           'R 3 -2"c'
loop_
_symmetry_equiv_pos_site_id
_symmetry_equiv_pos_as_xyz
1 x,y,z
2 -y,x-y,z
3 -x+y,-x,z
4 -y,-x,1/2+z
5 -x+y,y,1/2+z
6 x,x-y,1/2+z
7 2/3+x,1/3+y,1/3+z
8 2/3-y,1/3+x-y,1/3+z
9 2/3-x+y,1/3-x,1/3+z
10 2/3-y,1/3-x,5/6+z
11 2/3-x+y,1/3+y,5/6+z
12 2/3+x,1/3+x-y,5/6+z
13 1/3+x,2/3+y,2/3+z
14 1/3-y,2/3+x-y,2/3+z
15 1/3-x+y,2/3-x,2/3+z
16 1/3-y,2/3-x,1/6+z
17 1/3-x+y,2/3+y,1/6+z
18 1/3+x,2/3+x-y,1/6+z
_cell_length_a                   39.560(2)
_cell_length_b                   39.560(2)
_cell_length_c                   24.2198(14)
_cell_angle_alpha                90
_cell_angle_beta                 90
_cell_angle_gamma                120
_cell_volume                     32825.7
loop_
_atom_site_label
_atom_site_type_symbol
_atom_site_fract_x
_atom_site_fract_y
_atom_site_fract_z
Tb1 Tb 0.865504(9) 0.682711(10) 0.53452(2)
Tb2 Tb 0.6667 0.3333 0.63674(3)
N1 N 0.7520(3) 0.6040(3) 0.6089(5)
H1 H 0.7318 0.5936 0.6300
N2 N 0.6011(2) 0.5500(2) 0.7998(4)
H2 H 0.6229 0.5617 0.7821
N3 N 0.7949(2) 0.5930(2) 0.9070(3)
H3 H 0.7903 0.5713 0.8924
N4 N 0.6878(3) 0.4171(3) 0.7679(5)
H4 H 0.7014 0.4331 0.7937
N5 N 0.8890(2) 0.7415(2) 0.6174(3)
N6 N 0.9282(2) 0.7272(2) 0.4650(3)
N7 N 0.89981(18) 0.6424(2) 0.5854(3)
N8 N 0.6209(2) 0.35542(19) 0.5752(3)
O1 O 0.7369(2) 0.6024(2) 0.7192(3)
O2 O 0.64223(17) 0.51863(19) 0.7408(3)
O3 O 0.7200(2) 0.5451(2) 0.8668(3)
O4 O 0.7350(2) 0.49933(19) 0.7487(3)
O5 O 0.80721(18) 0.65528(18) 0.5839(3)
O6 O 0.53712(16) 0.49864(17) 0.8105(3)
O7 O 0.79333(19) 0.62677(19) 0.9806(3)
O8 O 0.69494(16) 0.38711(15) 0.6963(3)
O9 O 0.89740(19) 0.71515(18) 0.6233(3)
O10 O 0.86878(18) 0.74110(19) 0.5779(3)
O11 O 0.8937(3) 0.7644(2) 0.6566(3)
O12 O 0.90140(18) 0.69474(18) 0.4491(3)
O13 O 0.9260(2) 0.7412(2) 0.5099(3)
O14 O 0.96003(19) 0.7423(3) 0.4383(4)
O15 O 0.91685(19) 0.6652(2) 0.5455(3)
O16 O 0.86491(14) 0.63319(19) 0.5967(3)
O17 O 0.91176(19) 0.6203(2) 0.6027(4)
O18 O 0.63876(19) 0.37459(17) 0.6169(3)
O19 O 0.6201(2) 0.32436(17) 0.5643(3)
O20 O 0.6070(2) 0.3690(2) 0.5416(4)
C1 C 0.70807(19) 0.5406(2) 0.7694(4)
C2 C 0.7142(2) 0.5822(2) 0.7728(4)
H5 H 0.7292 0.5957 0.8053
H6 H 0.6894 0.5815 0.7740
C3 C 0.6797(2) 0.5204(2) 0.7223(4)
H7 H 0.6757 0.4944 0.7164
H8 H 0.6893 0.5353 0.6884
C4 C 0.6935(3) 0.5203(3) 0.8200(4)
H9 H 0.6929 0.4955 0.8187
H10 H 0.6671 0.5152 0.8262
C5 C 0.7456(3) 0.5424(3) 0.7589(5)
H11 H 0.7628 0.5532 0.7906
H12 H 0.7584 0.5584 0.7269
C6 C 0.7797(3) 0.6381(3) 0.6166(5)
C7 C 0.7763(3) 0.6591(2) 0.6698(4)
C8 C 0.7534(2) 0.6431(2) 0.7177(3)
C9 C 0.7525(3) 0.6648(2) 0.7609(4)
H13 H 0.7420 0.6531 0.7947
C10 C 0.7678(3) 0.7053(2) 0.7536(4)
H14 H 0.7617 0.7200 0.7775
C11 C 0.7922(3) 0.7218(3) 0.7092(4)
H15 H 0.8066 0.7489 0.7068
C12 C 0.7964(3) 0.7001(2) 0.6679(4)
H16 H 0.8128 0.7129 0.6382
C13 C 0.7559(4) 0.5848(3) 0.5657(6)
H17 H 0.7816 0.5875 0.5671
H18 H 0.7542 0.5969 0.5318
C14 C 0.72541(11) 0.54141(14) 0.56395(15)
C15 C 0.73214(11) 0.51396(16) 0.59067(14)
H19 H 0.7553 0.5218 0.6099
C16 C 0.70404(15) 0.47538(18) 0.5880(2)
H20 H 0.7083 0.4569 0.6055
C17 C 0.67018(19) 0.4634(2) 0.5604(3)
H21 H 0.6515 0.4371 0.5599
C18 C 0.6630(2) 0.4899(2) 0.5331(3)
H22 H 0.6402 0.4817 0.5131
C19 C 0.69065(19) 0.5287(2) 0.5364(3)
H23 H 0.6858 0.5470 0.5195
C20 C 0.5716(2) 0.5141(3) 0.7843(5)
C21 C 0.5751(2) 0.4921(2) 0.7344(4)
C22 C 0.6087(2) 0.4942(2) 0.7111(4)
C23 C 0.6103(2) 0.4752(3) 0.6644(4)
H24 H 0.6337 0.4777 0.6517
C24 C 0.5748(2) 0.4519(2) 0.6370(5)
H25 H 0.5745 0.4406 0.6032
C25 C 0.5408(3) 0.4457(2) 0.6596(4)
H26 H 0.5171 0.4274 0.6438
C26 C 0.5408(2) 0.4659(3) 0.7051(4)
H27 H 0.5170 0.4624 0.7176
C27 C 0.5938(2) 0.5675(3) 0.8479(4)
H28 H 0.5813 0.5486 0.8774
H29 H 0.5781 0.5792 0.8387
C28 C 0.63470(15) 0.59781(10) 0.86276(15)
C29 C 0.66068(18) 0.59603(10) 0.89903(14)
H30 H 0.6551 0.5725 0.9153
C30 C 0.69520(19) 0.62978(14) 0.9106(2)
H31 H 0.7128 0.6288 0.9351
C31 C 0.70401(19) 0.6647(2) 0.8867(3)
H32 H 0.7276 0.6870 0.8948
C32 C 0.67837(19) 0.6668(2) 0.8512(3)
H33 H 0.6841 0.6905 0.8354
C33 C 0.64442(19) 0.63367(19) 0.8391(3)
H34 H 0.6271 0.6349 0.8143
C34 C 0.7733(2) 0.5956(3) 0.9485(4)
C35 C 0.7348(2) 0.56434(18) 0.9591(3)
C36 C 0.7084(2) 0.53803(18) 0.9200(3)
C37 C 0.6731(2) 0.50714(19) 0.9350(3)
H35 H 0.6548 0.4923 0.9081
C38 C 0.6646(3) 0.49794(19) 0.9907(3)
H36 H 0.6439 0.4739 1.0019
C39 C 0.6879(2) 0.52566(19) 1.0284(3)
H37 H 0.6787 0.5242 1.0642
C40 C 0.7241(2) 0.5554(2) 1.0145(3)
H38 H 0.7418 0.5698 1.0422
C41 C 0.8272(3) 0.6311(2) 0.8897(4)
H39 H 0.8180 0.6495 0.8848
H40 H 0.8476 0.6414 0.9175
C42 C 0.84293(12) 0.62573(8) 0.8365(2)
C43 C 0.83573(13) 0.64224(7) 0.7900(3)
H41 H 0.8202 0.6537 0.7930
C44 C 0.85146(16) 0.64142(11) 0.7405(3)
H42 H 0.8466 0.6526 0.7100
C45 C 0.8742(2) 0.6248(2) 0.7341(3)
H43 H 0.8843 0.6244 0.6996
C46 C 0.8822(2) 0.6085(2) 0.7794(3)
H44 H 0.8980 0.5974 0.7759
C47 C 0.86622(19) 0.60902(19) 0.8295(3)
H45 H 0.8713 0.5978 0.8598
C48 C 0.7025(3) 0.4135(3) 0.7252(5)
C49 C 0.74612(14) 0.45216(16) 0.71186(14)
C50 C 0.76253(14) 0.49264(16) 0.72429(13)
C51 C 0.80060(17) 0.5226(2) 0.71538(18)
H46 H 0.8081 0.5482 0.7251
C52 C 0.8274(2) 0.5137(2) 0.6915(3)
H47 H 0.8531 0.5329 0.6853
C53 C 0.8141(2) 0.4754(2) 0.6776(3)
H48 H 0.8311 0.4687 0.6608
C54 C 0.7760(2) 0.4466(3) 0.6880(3)
H49 H 0.7692 0.4212 0.6786
C55 C 0.6487(4) 0.3940(4) 0.7711(7)
H50 H 0.6432 0.3673 0.7738
H51 H 0.6379 0.3963 0.7363
C56 C 0.62781(13) 0.39951(10) 0.8131(3)
C57 C 0.60356(13) 0.41496(9) 0.8014(3)
H52 H 0.5998 0.4202 0.7652
C58 C 0.58548(16) 0.42213(13) 0.8441(3)
H53 H 0.5694 0.4324 0.8364
C59 C 0.5904(2) 0.4146(2) 0.8986(3)
H54 H 0.5778 0.4198 0.9270
C60 C 0.6142(2) 0.3993(2) 0.9100(3)
H55 H 0.6178 0.3939 0.9462
C61 C 0.6323(2) 0.3923(2) 0.8679(3)
H56 H 0.6484 0.3822 0.8760
Tb1A Tb 0.317289(10) 0.182793(13) 0.53452(2)
Tb1B Tb 0.817207(13) 0.134496(9) 0.53452(2)
Tb1H Tb 0.483874(13) 0.467829(9) 0.86785(2)
Tb1D Tb 0.817207(13) 0.682711(10) 1.03452(2)
Tb1F Tb 0.532171(9) 0.016044(10) 0.86785(2)
Tb1C Tb 0.317289(10) 0.134496(9) 1.03452(2)
Tb1G Tb 0.983956(10) 0.516126(13) 0.86785(2)
Tb1E Tb 0.865504(9) 0.182793(13) 1.03452(2)
N1A N 0.3960(3) 0.1480(4) 0.6089(5)
N1B N 0.8520(4) 0.2480(3) 0.6089(5)
H1A H 0.4064 0.1382 0.6300
H1B H 0.8618 0.2682 0.6300
N2A N 0.4500(2) 0.0511(3) 0.7998(4)
N2B N 0.9489(3) 0.3989(2) 0.7998(4)
H2A H 0.4383 0.0612 0.7821
H2B H 0.9388 0.3771 0.7821
N3A N 0.4070(2) 0.2019(3) 0.9070(3)
N3B N 0.7981(3) 0.2051(2) 0.9070(3)
H3A H 0.4287 0.2190 0.8924
H3B H 0.7810 0.2097 0.8924
N4A N 0.5829(3) 0.2707(4) 0.7679(5)
N4B N 0.7293(4) 0.3122(3) 0.7679(5)
H4A H 0.5669 0.2683 0.7937
H4B H 0.7317 0.2986 0.7937
N5A N 0.2585(2) 0.1475(3) 0.6174(3)
N5B N 0.8525(3) 0.1110(2) 0.6174(3)
N6A N 0.2728(2) 0.2010(3) 0.4650(3)
N6B N 0.7990(3) 0.0718(2) 0.4650(3)
N7A N 0.3576(2) 0.25741(27) 0.5854(3)
N7B N 0.74259(27) 0.10019(18) 0.5854(3)
N8A N 0.64458(19) 0.26548(28) 0.5752(3)
N8B N 0.73452(28) 0.3791(2) 0.5752(3)
O1A O 0.3976(2) 0.1345(3) 0.7192(3)
O1B O 0.8655(3) 0.2631(2) 0.7192(3)
O2A O 0.48137(19) 0.12360(25) 0.7408(3)
O2B O 0.87640(25) 0.35777(17) 0.7408(3)
O3A O 0.4549(2) 0.1749(3) 0.8668(3)
O3B O 0.8251(3) 0.2800(2) 0.8668(3)
O4A O 0.50067(19) 0.23567(28) 0.7487(3)
O4B O 0.76433(28) 0.2650(2) 0.7487(3)
O5A O 0.34472(18) 0.15193(25) 0.5839(3)
O5B O 0.84807(25) 0.19279(18) 0.5839(3)
O6A O 0.50136(17) 0.03848(23) 0.8105(3)
O6B O 0.96152(23) 0.46288(16) 0.8105(3)
O6M O 0.83469(17) 0.70515(23) 0.4772(3)
O6N O 0.29485(23) 0.12955(16) 0.4772(3)
O6L O 0.87045(16) 0.16531(17) 0.4772(3)
O7A O 0.37323(19) 0.16656(27) 0.9806(3)
O7B O 0.83344(27) 0.20667(19) 0.9806(3)
O7D O 0.83344(27) 0.62677(19) 0.4806(3)
O7C O 0.37323(19) 0.20667(19) 0.4806(3)
O7E O 0.79333(19) 0.16656(27) 0.4806(3)
O8A O 0.61289(15) 0.30783(22) 0.6963(3)
O8B O 0.69217(22) 0.30506(16) 0.6963(3)
O9A O 0.28485(18) 0.18225(26) 0.6233(3)
O9B O 0.81775(26) 0.10260(19) 0.6233(3)
O10A O 0.25890(19) 0.12768(26) 0.5779(3)
O10B O 0.87232(26) 0.13122(18) 0.5779(3)
O11A O 0.2356(2) 0.1293(4) 0.6566(3)
O11B O 0.8707(4) 0.1063(3) 0.6566(3)
O12A O 0.30526(18) 0.20666(25) 0.4491(3)
O12B O 0.79334(25) 0.09860(18) 0.4491(3)
O13A O 0.2588(2) 0.1848(3) 0.5099(3)
O13B O 0.8152(3) 0.0740(2) 0.5099(3)
O14A O 0.2577(3) 0.21773(36) 0.4383(4)
O14B O 0.78227(36) 0.03997(19) 0.4383(4)
O15A O 0.3348(2) 0.25165(28) 0.5455(3)
O15B O 0.74835(28) 0.08315(19) 0.5455(3)
O16A O 0.36681(19) 0.23172(24) 0.5967(3)
O16B O 0.76828(24) 0.13509(14) 0.5967(3)
O17A O 0.3797(2) 0.29146(28) 0.6027(4)
O17B O 0.70854(28) 0.08824(19) 0.6027(4)
O18A O 0.62541(17) 0.26417(25) 0.6169(3)
O18B O 0.73583(25) 0.36124(19) 0.6169(3)
O19A O 0.67564(17) 0.29574(26) 0.5643(3)
O19B O 0.70426(26) 0.3799(2) 0.5643(3)
O20B O 0.7620(3) 0.3930(2) 0.5416(4)
O20A O 0.6310(2) 0.2380(3) 0.5416(4)
C1A C 0.4594(2) 0.16747(28) 0.7694(4)
C1B C 0.83253(28) 0.29193(19) 0.7694(4)
C2A C 0.4178(2) 0.1320(3) 0.7728(4)
C2B C 0.8680(3) 0.2858(2) 0.7728(4)
H5A H 0.4043 0.1335 0.8053
H5B H 0.8665 0.2708 0.8053
H6A H 0.4185 0.1079 0.7740
H6B H 0.8921 0.3106 0.7740
C3A C 0.4796(2) 0.1593(3) 0.7223(4)
C3B C 0.8407(3) 0.3203(2) 0.7223(4)
H7A H 0.5056 0.1813 0.7164
H7B H 0.8187 0.3243 0.7164
H8A H 0.4647 0.1540 0.6884
H8B H 0.8460 0.3107 0.6884
C4A C 0.4797(3) 0.1732(4) 0.8200(4)
C4B C 0.8268(4) 0.3065(3) 0.8200(4)
H9A H 0.5045 0.1974 0.8187
H9B H 0.8026 0.3071 0.8187
H10A H 0.4848 0.1519 0.8262
H10B H 0.8481 0.3329 0.8262
C5A C 0.4576(3) 0.2032(4) 0.7589(5)
C5B C 0.7968(4) 0.2544(3) 0.7589(5)
H11A H 0.4468 0.2096 0.7906
H11B H 0.7904 0.2372 0.7906
H12A H 0.4416 0.2000 0.7269
H12B H 0.8000 0.2416 0.7269
C6A C 0.3619(3) 0.1416(4) 0.6166(5)
C6B C 0.8584(4) 0.2203(3) 0.6166(5)
C7A C 0.3409(2) 0.1172(4) 0.6698(4)
C7B C 0.8828(4) 0.2237(3) 0.6698(4)
C8A C 0.3569(2) 0.1103(3) 0.7177(3)
C8B C 0.8897(3) 0.2466(2) 0.7177(3)
C9A C 0.3352(2) 0.0877(4) 0.7609(4)
C9B C 0.9123(4) 0.2475(3) 0.7609(4)
H13A H 0.3469 0.0889 0.7947
H13B H 0.9111 0.2580 0.7947
C10A C 0.2947(2) 0.0625(4) 0.7536(4)
C10B C 0.9375(4) 0.2322(3) 0.7536(4)
H14A H 0.2800 0.0417 0.7775
H14B H 0.9583 0.2383 0.7775
C11A C 0.2782(3) 0.0704(4) 0.7092(4)
C11B C 0.9296(4) 0.2078(3) 0.7092(4)
H15A H 0.2511 0.0577 0.7068
H15B H 0.9423 0.1934 0.7068
C12A C 0.2999(2) 0.0963(4) 0.6679(4)
C12B C 0.9037(4) 0.2036(3) 0.6679(4)
H16A H 0.2871 0.0999 0.6382
H16B H 0.9001 0.1872 0.6382
C13A C 0.4152(3) 0.1711(5) 0.5657(6)
C13B C 0.8289(5) 0.2441(4) 0.5657(6)
H17A H 0.4125 0.1941 0.5671
H17B H 0.8059 0.2184 0.5671
H18A H 0.4031 0.1573 0.5318
H18B H 0.8427 0.2458 0.5318
C14A C 0.45859(14) 0.18400(18) 0.56395(15)
C14B C 0.81600(18) 0.27459(11) 0.56395(15)
C15A C 0.48604(16) 0.21818(19) 0.59067(14)
C15B C 0.78182(19) 0.26786(11) 0.59067(14)
H19A H 0.4782 0.2335 0.6099
H19B H 0.7665 0.2447 0.6099
C16A C 0.52462(18) 0.22866(23) 0.5880(2)
C16B C 0.77134(23) 0.29596(15) 0.5880(2)
H20A H 0.5431 0.2514 0.6055
H20B H 0.7486 0.2917 0.6055
C17A C 0.5366(2) 0.20678(28) 0.5604(3)
C17B C 0.79322(28) 0.32982(19) 0.5604(3)
H21A H 0.5629 0.2144 0.5599
H21B H 0.7856 0.3485 0.5599
C18A C 0.5101(2) 0.1731(3) 0.5331(3)
C18B C 0.8269(3) 0.3370(2) 0.5331(3)
H22A H 0.5183 0.1585 0.5131
H22B H 0.8415 0.3598 0.5131
C19A C 0.4713(2) 0.16195(28) 0.5364(3)
C19B C 0.83805(28) 0.30935(19) 0.5364(3)
H23A H 0.4530 0.1388 0.5195
H23B H 0.8612 0.3142 0.5195
C20A C 0.4859(3) 0.0575(4) 0.7843(5)
C20B C 0.9425(4) 0.4284(2) 0.7843(5)
C21A C 0.5079(2) 0.0830(3) 0.7344(4)
C21B C 0.9170(3) 0.4249(2) 0.7344(4)
C22A C 0.5058(2) 0.1145(3) 0.7111(4)
C22B C 0.8855(3) 0.3913(2) 0.7111(4)
C23A C 0.5248(3) 0.1351(4) 0.6644(4)
C23B C 0.8649(4) 0.3897(2) 0.6644(4)
H24A H 0.5223 0.1560 0.6517
H24B H 0.8440 0.3663 0.6517
C24A C 0.5481(2) 0.1229(3) 0.6370(5)
C24B C 0.8771(3) 0.4252(2) 0.6370(5)
H25A H 0.5594 0.1339 0.6032
H25B H 0.8661 0.4255 0.6032
C25A C 0.5543(2) 0.0951(4) 0.6596(4)
C25B C 0.9049(4) 0.4592(3) 0.6596(4)
H26A H 0.5726 0.0897 0.6438
H26B H 0.9103 0.4829 0.6438
C26A C 0.5341(3) 0.0749(4) 0.7051(4)
C26B C 0.9251(4) 0.4592(2) 0.7051(4)
H27A H 0.5376 0.0546 0.7176
H27B H 0.9454 0.4830 0.7176
C27A C 0.4325(3) 0.0263(4) 0.8479(4)
C27B C 0.9737(4) 0.4062(2) 0.8479(4)
H28A H 0.4514 0.0327 0.8774
H28B H 0.9673 0.4187 0.8774
H29A H 0.4208 -0.0011 0.8387
H29B H 1.0011 0.4219 0.8387
C28A C 0.40219(10) 0.03689(18) 0.86276(15)
C28B C 0.96311(18) 0.36530(15) 0.86276(15)
C29A C 0.40397(10) 0.06465(21) 0.89903(14)
C29B C 0.93535(21) 0.33932(18) 0.89903(14)
H30A H 0.4275 0.0826 0.9153
H30B H 0.9174 0.3449 0.9153
C30A C 0.37022(14) 0.06542(24) 0.9106(2)
C30B C 0.93458(24) 0.30480(19) 0.9106(2)
H31A H 0.3712 0.0840 0.9351
H31B H 0.9160 0.2872 0.9351
C31A C 0.3353(2) 0.03931(28) 0.8867(3)
C31B C 0.96069(28) 0.29599(19) 0.8867(3)
H32A H 0.3130 0.0406 0.8948
H32B H 0.9594 0.2724 0.8948
C32A C 0.3332(2) 0.01157(28) 0.8512(3)
C32B C 0.98843(28) 0.32163(19) 0.8512(3)
H33A H 0.3095 -0.0064 0.8354
H33B H 1.0064 0.3159 0.8354
C33A C 0.36633(19) 0.01075(27) 0.8391(3)
C33B C 0.98925(27) 0.35558(19) 0.8391(3)
H34A H 0.3651 -0.0078 0.8143
H34B H 1.0078 0.3729 0.8143
C34A C 0.4044(3) 0.1777(4) 0.9485(4)
C34B C 0.8223(4) 0.2267(2) 0.9485(4)
C35A C 0.43566(18) 0.17046(27) 0.9591(3)
C35B C 0.82954(27) 0.2652(2) 0.9591(3)
C36A C 0.46197(18) 0.17037(27) 0.9200(3)
C36B C 0.82963(27) 0.2916(2) 0.9200(3)
C37A C 0.49286(19) 0.16596(28) 0.9350(3)
C37B C 0.83404(28) 0.3269(2) 0.9350(3)
H35A H 0.5077 0.1625 0.9081
H35B H 0.8375 0.3452 0.9081
C38A C 0.50206(19) 0.16666(36) 0.9907(3)
C38B C 0.83334(36) 0.3354(3) 0.9907(3)
H36A H 0.5261 0.1700 1.0019
H36B H 0.8300 0.3561 1.0019
C39A C 0.47434(19) 0.16224(28) 1.0284(3)
C39B C 0.83776(28) 0.3121(2) 1.0284(3)
H37A H 0.4758 0.1545 1.0642
H37B H 0.8455 0.3213 1.0642
C40A C 0.4446(2) 0.1687(3) 1.0145(3)
C40B C 0.8313(3) 0.2759(2) 1.0145(3)
H38A H 0.4302 0.1720 1.0422
H38B H 0.8280 0.2582 1.0422
C41A C 0.3689(2) 0.1961(4) 0.8897(4)
C41B C 0.8039(4) 0.1728(3) 0.8897(4)
H39A H 0.3505 0.1685 0.8848
H39B H 0.8315 0.1820 0.8848
H40A H 0.3586 0.2062 0.9175
H40B H 0.7938 0.1524 0.9175
C42A C 0.37427(8) 0.21720(14) 0.8365(2)
C42B C 0.78280(14) 0.15707(12) 0.8365(2)
C43A C 0.35776(7) 0.19349(15) 0.7900(3)
C43B C 0.80651(15) 0.16427(13) 0.7900(3)
H41A H 0.3463 0.1665 0.7930
H41B H 0.8335 0.1798 0.7930
C44A C 0.35858(11) 0.21004(19) 0.7405(3)
C44B C 0.78996(19) 0.14854(16) 0.7405(3)
H42A H 0.3474 0.1940 0.7100
H42B H 0.8060 0.1534 0.7100
C45A C 0.3752(2) 0.2494(3) 0.7341(3)
C45B C 0.7506(3) 0.1258(2) 0.7341(3)
H43A H 0.3756 0.2599 0.6996
H43B H 0.7401 0.1157 0.6996
C46A C 0.3915(2) 0.2737(3) 0.7794(3)
C46B C 0.7263(3) 0.1178(2) 0.7794(3)
H44A H 0.4026 0.3006 0.7759
H44B H 0.6994 0.1020 0.7759
C47A C 0.39098(19) 0.25720(27) 0.8295(3)
C47B C 0.74280(27) 0.13378(19) 0.8295(3)
H45A H 0.4022 0.2735 0.8598
H45B H 0.7265 0.1287 0.8598
C48A C 0.5865(3) 0.2890(4) 0.7252(5)
C48B C 0.7110(4) 0.2975(3) 0.7252(5)
C49A C 0.54784(16) 0.29396(21) 0.71186(14)
C49B C 0.70604(21) 0.25388(14) 0.71186(14)
C50A C 0.50736(16) 0.26989(21) 0.72429(13)
C50B C 0.73011(21) 0.23747(14) 0.72429(13)
C51A C 0.4774(2) 0.27800(26) 0.71538(18)
C51B C 0.72200(26) 0.19940(17) 0.71538(18)
H46A H 0.4518 0.2599 0.7251
H46B H 0.7401 0.1919 0.7251
C52A C 0.4863(2) 0.3137(3) 0.6915(3)
C52B C 0.6863(3) 0.1726(2) 0.6915(3)
H47A H 0.4671 0.3202 0.6853
H47B H 0.6798 0.1469 0.6853
C53A C 0.5246(2) 0.3387(3) 0.6776(3)
C53B C 0.6613(3) 0.1859(2) 0.6776(3)
H48A H 0.5313 0.3624 0.6608
H48B H 0.6376 0.1689 0.6608
C54A C 0.5534(3) 0.3294(4) 0.6880(3)
C54B C 0.6706(4) 0.2240(2) 0.6880(3)
H49A H 0.5788 0.3480 0.6786
H49B H 0.6520 0.2308 0.6786
C55A C 0.6060(4) 0.2547(6) 0.7711(7)
C55B C 0.7453(6) 0.3513(4) 0.7711(7)
H50A H 0.6327 0.2759 0.7738
H50B H 0.7241 0.3568 0.7738
H51A H 0.6037 0.2416 0.7363
H51B H 0.7584 0.3621 0.7363
C56A C 0.60049(10) 0.22830(16) 0.8131(3)
C56B C 0.77170(16) 0.37219(13) 0.8131(3)
C57A C 0.58504(9) 0.18860(16) 0.8014(3)
C57B C 0.81140(16) 0.39644(13) 0.8014(3)
H52A H 0.5798 0.1796 0.7652
H52B H 0.8204 0.4002 0.7652
C58A C 0.57787(13) 0.16335(21) 0.8441(3)
C58B C 0.83665(21) 0.41452(16) 0.8441(3)
H53A H 0.5676 0.1370 0.8364
H53B H 0.8630 0.4306 0.8364
C59A C 0.5854(2) 0.1758(3) 0.8986(3)
C59B C 0.8242(3) 0.4096(2) 0.8986(3)
H54A H 0.5802 0.1580 0.9270
H54B H 0.8420 0.4222 0.9270
C60A C 0.6007(2) 0.2149(3) 0.9100(3)
C60B C 0.7851(3) 0.3858(2) 0.9100(3)
H55A H 0.6061 0.2239 0.9462
H55B H 0.7761 0.3822 0.9462
C61A C 0.6077(2) 0.2400(3) 0.8679(3)
C61B C 0.7600(3) 0.3677(2) 0.8679(3)
H56A H 0.6178 0.2662 0.8760
H56B H 0.7338 0.3516 0.8760
O21 O 0.77961(17) 0.4723(3) 0.9070(4)
C62 C 0.7414(3) 0.4677(3) 0.9167(5)
H57 H 0.7284 0.4643 0.8815
H58 H 0.7446 0.4914 0.9334
C63 C 0.7160(3) 0.4338(4) 0.9532(6)
H59 H 0.7114 0.4100 0.9359
H60 H 0.6915 0.4329 0.9589
H61 H 0.7287 0.4368 0.9881
C64 C 0.8019(2) 0.4979(4) 0.8626(5)
H62 H 0.8041 0.5231 0.8686
H63 H 0.7879 0.4874 0.8283
C65 C 0.8424(2) 0.5035(5) 0.8567(7)
H64 H 0.8536 0.5056 0.8926
H65 H 0.8585 0.5268 0.8360
H66 H 0.8410 0.4815 0.8376
O22 O 0.9671(3) 0.6080(2) 0.1303(4)
C66 C 0.9671(4) 0.6270(4) 0.1809(5)
H67 H 0.9574 0.6078 0.2104
H68 H 0.9492 0.6369 0.1771
C67 C 1.0068(4) 0.6602(4) 0.1969(6)
H69 H 1.0231 0.6499 0.2085
H70 H 1.0041 0.6747 0.2266
H71 H 1.0185 0.6771 0.1657
C68 C 0.9310(4) 0.5740(4) 0.1114(6)
H72 H 0.9120 0.5817 0.1020
H73 H 0.9202 0.5547 0.1407
C69 C 0.9397(6) 0.5563(4) 0.0605(6)
H74 H 0.9362 0.5677 0.0276
H75 H 0.9221 0.5286 0.0599
H76 H 0.9661 0.5614 0.0622
loop_
_geom_bond_atom_site_label_1
_geom_bond_atom_site_label_2
_geom_bond_site_symmetry_1
_geom_bond_site_symmetry_2
Tb1 O5 1_555 1_555
Tb2 O8 1_555 1_555
N1 H1 1_555 1_555
N2 H2 1_555 1_555
N3 H3 1_555 1_555
N4 H4 1_555 1_555
N5 O9 1_555 1_555
N6 O12 1_555 1_555
N7 O15 1_555 1_555
N8 O18 1_555 1_555
O1 C2 1_555 1_555
O2 C3 1_555 1_555
O3 C4 1_555 1_555
O4 C5 1_555 1_555
O5 C6 1_555 1_555
O6 C20 1_555 1_555
O7 C34 1_555 1_555
O8 C48 1_555 1_555
O9 Tb1 1_555 1_555
O10 Tb1 1_555 1_555
O11 N5 1_555 1_555
O12 Tb1 1_555 1_555
O13 Tb1 1_555 1_555
O14 N6 1_555 1_555
O15 Tb1 1_555 1_555
O16 Tb1 1_555 1_555
O17 N7 1_555 1_555
O18 Tb2 1_555 1_555
O19 Tb2 1_555 1_555
O20 N8 1_555 1_555
O21 C62 1_555 1_555
O22 C66 1_555 1_555
C1 C2 1_555 1_555
C2 H5 1_555 1_555
H6 C2 1_555 1_555
C3 C1 1_555 1_555
H7 C3 1_555 1_555
H8 C3 1_555 1_555
C4 C1 1_555 1_555
H9 C4 1_555 1_555
H10 C4 1_555 1_555
C5 C1 1_555 1_555
H11 C5 1_555 1_555
H12 C5 1_555 1_555
C6 N1 1_555 1_555
C7 C6 1_555 1_555
C8 O1 1_555 1_555
C9 C8 1_555 1_555
H13 C9 1_555 1_555
C10 C9 1_555 1_555
H14 C10 1_555 1_555
C11 C10 1_555 1_555
H15 C11 1_555 1_555
C12 C7 1_555 1_555
H16 C12 1_555 1_555
C13 N1 1_555 1_555
H17 C13 1_555 1_555
H18 C13 1_555 1_555
C14 C13 1_555 1_555
C15 C14 1_555 1_555
H19 C15 1_555 1_555
C16 C15 1_555 1_555
H20 C16 1_555 1_555
C17 C16 1_555 1_555
H21 C17 1_555 1_555
C18 C17 1_555 1_555
H22 C18 1_555 1_555
C19 C14 1_555 1_555
H23 C19 1_555 1_555
C20 N2 1_555 1_555
C21 C20 1_555 1_555
C22 O2 1_555 1_555
C23 C22 1_555 1_555
H24 C23 1_555 1_555
C24 C23 1_555 1_555
H25 C24 1_555 1_555
C25 C24 1_555 1_555
H26 C25 1_555 1_555
C26 C21 1_555 1_555
H27 C26 1_555 1_555
C27 N2 1_555 1_555
H28 C27 1_555 1_555
H29 C27 1_555 1_555
C28 C27 1_555 1_555
C29 C28 1_555 1_555
H30 C29 1_555 1_555
C30 C29 1_555 1_555
H31 C30 1_555 1_555
C31 C30 1_555 1_555
H32 C31 1_555 1_555
C32 C31 1_555 1_555
H33 C32 1_555 1_555
C33 C28 1_555 1_555
H34 C33 1_555 1_555
C34 N3 1_555 1_555
C35 C34 1_555 1_555
C36 O3 1_555 1_555
C37 C36 1_555 1_555
H35 C37 1_555 1_555
C38 C37 1_555 1_555
H36 C38 1_555 1_555
C39 C38 1_555 1_555
H37 C39 1_555 1_555
C40 C35 1_555 1_555
H38 C40 1_555 1_555
C41 N3 1_555 1_555
H39 C41 1_555 1_555
H40 C41 1_555 1_555
C42 C41 1_555 1_555
C43 C42 1_555 1_555
H41 C43 1_555 1_555
C44 C43 1_555 1_555
H42 C44 1_555 1_555
C45 C44 1_555 1_555
H43 C45 1_555 1_555
C46 C45 1_555 1_555
H44 C46 1_555 1_555
C47 C42 1_555 1_555
H45 C47 1_555 1_555
C48 N4 1_555 1_555
C49 C48 1_555 1_555
C50 O4 1_555 1_555
C51 C50 1_555 1_555
H46 C51 1_555 1_555
C52 C51 1_555 1_555
H47 C52 1_555 1_555
C53 C52 1_555 1_555
H48 C53 1_555 1_555
C54 C49 1_555 1_555
H49 C54 1_555 1_555
C55 N4 1_555 1_555
H50 C55 1_555 1_555
H51 C55 1_555 1_555
C56 C55 1_555 1_555
C57 C56 1_555 1_555
H52 C57 1_555 1_555
C58 C57 1_555 1_555
H53 C58 1_555 1_555
C59 C58 1_555 1_555
H54 C59 1_555 1_555
C60 C59 1_555 1_555
H55 C60 1_555 1_555
C61 C56 1_555 1_555
H56 C61 1_555 1_555
C62 H57 1_555 1_555
H58 C62 1_555 1_555
C63 C62 1_555 1_555
H59 C63 1_555 1_555
H60 C63 1_555 1_555
H61 C63 1_555 1_555
C64 O21 1_555 1_555
H62 C64 1_555 1_555
H63 C64 1_555 1_555
C65 C64 1_555 1_555
H64 C65 1_555 1_555
H65 C65 1_555 1_555
H66 C65 1_555 1_555
C66 H67 1_555 1_555
H68 C66 1_555 1_555
C67 C66 1_555 1_555
H69 C67 1_555 1_555
H70 C67 1_555 1_555
H71 C67 1_555 1_555
C68 O22 1_555 1_555
H72 C68 1_555 1_555
H73 C68 1_555 1_555
C69 C68 1_555 1_555
H74 C69 1_555 1_555
H75 C69 1_555 1_555
H76 C69 1_555 1_555
Tb1A O5A 1_555 1_555
Tb1B O5B 1_555 1_555
Tb1H O6 1_555 1_555
Tb1D O7 1_555 1_555
Tb1F O6A 1_555 1_555
Tb1C O7A 1_555 1_555
Tb1G O6B 1_555 1_555
Tb1E O7B 1_555 1_555
N1A H1A 1_555 1_555
N1B H1B 1_555 1_555
N2A H2A 1_555 1_555
N2B H2B 1_555 1_555
N3A H3A 1_555 1_555
N3B H3B 1_555 1_555
N4A H4A 1_555 1_555
N4B H4B 1_555 1_555
N5A O9A 1_555 1_555
N5B O9B 1_555 1_555
N6A O12A 1_555 1_555
N6B O12B 1_555 1_555
N7A O15A 1_555 1_555
N7B O15B 1_555 1_555
N8A O18A 1_555 1_555
N8B O18B 1_555 1_555
O1A C2A 1_555 1_555
O1B C2B 1_555 1_555
O2A C3A 1_555 1_555
O2B C3B 1_555 1_555
O3A C4A 1_555 1_555
O3B C4B 1_555 1_555
O4A C5A 1_555 1_555
O4B C5B 1_555 1_555
O5A C6A 1_555 1_555
O5B C6B 1_555 1_555
O6A C20A 1_555 1_555
O6B C20B 1_555 1_555
O6M Tb1 1_555 1_555
O6N Tb1A 1_555 1_555
O6L Tb1B 1_555 1_555
O7A C34A 1_555 1_555
O7B C34B 1_555 1_555
O7D Tb1 1_555 1_555
O7C Tb1A 1_555 1_555
O7E Tb1B 1_555 1_555
O8A Tb2 1_555 1_555
O8B Tb2 1_555 1_555
O9A Tb1A 1_555 1_555
O9B Tb1B 1_555 1_555
O10A Tb1A 1_555 1_555
O10B Tb1B 1_555 1_555
O11A N5A 1_555 1_555
O11B N5B 1_555 1_555
O12A Tb1A 1_555 1_555
O12B Tb1B 1_555 1_555
O13A Tb1A 1_555 1_555
O13B Tb1B 1_555 1_555
O14A N6A 1_555 1_555
O14B N6B 1_555 1_555
O15A Tb1A 1_555 1_555
O15B Tb1B 1_555 1_555
O16A Tb1A 1_555 1_555
O16B Tb1B 1_555 1_555
O17A N7A 1_555 1_555
O17B N7B 1_555 1_555
O18A Tb2 1_555 1_555
O18B Tb2 1_555 1_555
O19A Tb2 1_555 1_555
O19B Tb2 1_555 1_555
O20B N8B 1_555 1_555
O20A N8A 1_555 1_555
C1A C2A 1_555 1_555
C1B C2B 1_555 1_555
C2A H5A 1_555 1_555
C2B H5B 1_555 1_555
H6A C2A 1_555 1_555
H6B C2B 1_555 1_555
C3A C1A 1_555 1_555
C3B C1B 1_555 1_555
H7A C3A 1_555 1_555
H7B C3B 1_555 1_555
H8A C3A 1_555 1_555
H8B C3B 1_555 1_555
C4A C1A 1_555 1_555
C4B C1B 1_555 1_555
H9A C4A 1_555 1_555
H9B C4B 1_555 1_555
H10A C4A 1_555 1_555
H10B C4B 1_555 1_555
C5A C1A 1_555 1_555
C5B C1B 1_555 1_555
H11A C5A 1_555 1_555
H11B C5B 1_555 1_555
H12A C5A 1_555 1_555
H12B C5B 1_555 1_555
C6A N1A 1_555 1_555
C6B N1B 1_555 1_555
C7A C6A 1_555 1_555
C7B C6B 1_555 1_555
C8A O1A 1_555 1_555
C8B O1B 1_555 1_555
C9A C8A 1_555 1_555
C9B C8B 1_555 1_555
H13A C9A 1_555 1_555
H13B C9B 1_555 1_555
C10A C9A 1_555 1_555
C10B C9B 1_555 1_555
H14A C10A 1_555 1_555
H14B C10B 1_555 1_555
C11A C10A 1_555 1_555
C11B C10B 1_555 1_555
H15A C11A 1_555 1_555
H15B C11B 1_555 1_555
C12A C7A 1_555 1_555
C12B C7B 1_555 1_555
H16A C12A 1_555 1_555
H16B C12B 1_555 1_555
C13A N1A 1_555 1_555
C13B N1B 1_555 1_555
H17A C13A 1_555 1_555
H17B C13B 1_555 1_555
H18A C13A 1_555 1_555
H18B C13B 1_555 1_555
C14A C13A 1_555 1_555
C14B C13B 1_555 1_555
C15A C14A 1_555 1_555
C15B C14B 1_555 1_555
H19A C15A 1_555 1_555
H19B C15B 1_555 1_555
C16A C15A 1_555 1_555
C16B C15B 1_555 1_555
H20A C16A 1_555 1_555
H20B C16B 1_555 1_555
C17A C16A 1_555 1_555
C17B C16B 1_555 1_555
H21A C17A 1_555 1_555
H21B C17B 1_555 1_555
C18A C17A 1_555 1_555
C18B C17B 1_555 1_555
H22A C18A 1_555 1_555
H22B C18B 1_555 1_555
C19A C14A 1_555 1_555
C19B C14B 1_555 1_555
H23A C19A 1_555 1_555
H23B C19B 1_555 1_555
C20A N2A 1_555 1_555
C20B N2B 1_555 1_555
C21A C20A 1_555 1_555
C21B C20B 1_555 1_555
C22A O2A 1_555 1_555
C22B O2B 1_555 1_555
C23A C22A 1_555 1_555
C23B C22B 1_555 1_555
H24A C23A 1_555 1_555
H24B C23B 1_555 1_555
C24A C23A 1_555 1_555
C24B C23B 1_555 1_555
H25A C24A 1_555 1_555
H25B C24B 1_555 1_555
C25A C24A 1_555 1_555
C25B C24B 1_555 1_555
H26A C25A 1_555 1_555
H26B C25B 1_555 1_555
C26A C21A 1_555 1_555
C26B C21B 1_555 1_555
H27A C26A 1_555 1_555
H27B C26B 1_555 1_555
C27A N2A 1_555 1_555
C27B N2B 1_555 1_555
H28A C27A 1_555 1_555
H28B C27B 1_555 1_555
H29A C27A 1_555 1_555
H29B C27B 1_555 1_555
C28A C27A 1_555 1_555
C28B C27B 1_555 1_555
C29A C28A 1_555 1_555
C29B C28B 1_555 1_555
H30A C29A 1_555 1_555
H30B C29B 1_555 1_555
C30A C29A 1_555 1_555
C30B C29B 1_555 1_555
H31A C30A 1_555 1_555
H31B C30B 1_555 1_555
C31A C30A 1_555 1_555
C31B C30B 1_555 1_555
H32A C31A 1_555 1_555
H32B C31B 1_555 1_555
C32A C31A 1_555 1_555
C32B C31B 1_555 1_555
H33A C32A 1_555 1_555
H33B C32B 1_555 1_555
C33A C28A 1_555 1_555
C33B C28B 1_555 1_555
H34A C33A 1_555 1_555
H34B C33B 1_555 1_555
C34A N3A 1_555 1_555
C34B N3B 1_555 1_555
C35A C34A 1_555 1_555
C35B C34B 1_555 1_555
C36A O3A 1_555 1_555
C36B O3B 1_555 1_555
C37A C36A 1_555 1_555
C37B C36B 1_555 1_555
H35A C37A 1_555 1_555
H35B C37B 1_555 1_555
C38A C37A 1_555 1_555
C38B C37B 1_555 1_555
H36A C38A 1_555 1_555
H36B C38B 1_555 1_555
C39A C38A 1_555 1_555
C39B C38B 1_555 1_555
H37A C39A 1_555 1_555
H37B C39B 1_555 1_555
C40A C35A 1_555 1_555
C40B C35B 1_555 1_555
H38A C40A 1_555 1_555
H38B C40B 1_555 1_555
C41A N3A 1_555 1_555
C41B N3B 1_555 1_555
H39A C41A 1_555 1_555
H39B C41B 1_555 1_555
H40A C41A 1_555 1_555
H40B C41B 1_555 1_555
C42A C41A 1_555 1_555
C42B C41B 1_555 1_555
C43A C42A 1_555 1_555
C43B C42B 1_555 1_555
H41A C43A 1_555 1_555
H41B C43B 1_555 1_555
C44A C43A 1_555 1_555
C44B C43B 1_555 1_555
H42A C44A 1_555 1_555
H42B C44B 1_555 1_555
C45A C44A 1_555 1_555
C45B C44B 1_555 1_555
H43A C45A 1_555 1_555
H43B C45B 1_555 1_555
C46A C45A 1_555 1_555
C46B C45B 1_555 1_555
H44A C46A 1_555 1_555
H44B C46B 1_555 1_555
C47A C42A 1_555 1_555
C47B C42B 1_555 1_555
H45A C47A 1_555 1_555
H45B C47B 1_555 1_555
C48A N4A 1_555 1_555
C48B N4B 1_555 1_555
C49A C48A 1_555 1_555
C49B C48B 1_555 1_555
C50A O4A 1_555 1_555
C50B O4B 1_555 1_555
C51A C50A 1_555 1_555
C51B C50B 1_555 1_555
H46A C51A 1_555 1_555
H46B C51B 1_555 1_555
C52A C51A 1_555 1_555
C52B C51B 1_555 1_555
H47A C52A 1_555 1_555
H47B C52B 1_555 1_555
C53A C52A 1_555 1_555
C53B C52B 1_555 1_555
H48A C53A 1_555 1_555
H48B C53B 1_555 1_555
C54A C49A 1_555 1_555
C54B C49B 1_555 1_555
H49A C54A 1_555 1_555
H49B C54B 1_555 1_555
C55A N4A 1_555 1_555
C55B N4B 1_555 1_555
H50A C55A 1_555 1_555
H50B C55B 1_555 1_555
H51A C55A 1_555 1_555
H51B C55B 1_555 1_555
C56A C55A 1_555 1_555
C56B C55B 1_555 1_555
C57A C56A 1_555 1_555
C57B C56B 1_555 1_555
H52A C57A 1_555 1_555
H52B C57B 1_555 1_555
C58A C57A 1_555 1_555
C58B C57B 1_555 1_555
H53A C58A 1_555 1_555
H53B C58B 1_555 1_555
C59A C58A 1_555 1_555
C59B C58B 1_555 1_555
H54A C59A 1_555 1_555
H54B C59B 1_555 1_555
C60A C59A 1_555 1_555
C60B C59B 1_555 1_555
H55A C60A 1_555 1_555
H55B C60B 1_555 1_555
C61A C56A 1_555 1_555
C61B C56B 1_555 1_555
H56A C61A 1_555 1_555
H56B C61B 1_555 1_555
N5 O10 1_555 1_555
N6 O13 1_555 1_555
N7 O16 1_555 1_555
N8 O19 1_555 1_555
C7 C8 1_555 1_555
C11 C12 1_555 1_555
C18 C19 1_555 1_555
C21 C22 1_555 1_555
C25 C26 1_555 1_555
C32 C33 1_555 1_555
C35 C36 1_555 1_555
C39 C40 1_555 1_555
C46 C47 1_555 1_555
C49 C50 1_555 1_555
C53 C54 1_555 1_555
C60 C61 1_555 1_555
N5A O10A 1_555 1_555
N5B O10B 1_555 1_555
N6A O13A 1_555 1_555
N6B O13B 1_555 1_555
N7A O16A 1_555 1_555
N7B O16B 1_555 1_555
N8A O19A 1_555 1_555
N8B O19B 1_555 1_555
O8A C48A 1_555 1_555
O8B C48B 1_555 1_555
C7A C8A 1_555 1_555
C7B C8B 1_555 1_555
C11A C12A 1_555 1_555
C11B C12B 1_555 1_555
C18A C19A 1_555 1_555
C18B C19B 1_555 1_555
C21A C22A 1_555 1_555
C21B C22B 1_555 1_555
C25A C26A 1_555 1_555
C25B C26B 1_555 1_555
C32A C33A 1_555 1_555
C32B C33B 1_555 1_555
C35A C36A 1_555 1_555
C35B C36B 1_555 1_555
C39A C40A 1_555 1_555
C39B C40B 1_555 1_555
C46A C47A 1_555 1_555
C46B C47B 1_555 1_555
C49A C50A 1_555 1_555
C49B C50B 1_555 1_555
C53A C54A 1_555 1_555
C53B C54B 1_555 1_555
C60A C61A 1_555 1_555
C60B C61B 1_555 1_555

#END
