
#######################################################################
#
#                 Cambridge Crystallographic Data Centre
#                                CCDC 
#
#######################################################################
#
# If this CIF has been generated from an entry in the Cambridge 
# Structural Database, then it will include bibliographic, chemical, 
# crystal, experimental, refinement or atomic coordinate data resulting 
# from the CCDC's data processing and validation procedures.
#
#######################################################################

data_LOQSUG
_symmetry_cell_setting           rhombohedral
_symmetry_space_group_name_H-M   'R 3 c'
_symmetry_Int_Tables_number      161
_space_group_name_Hall           'R 3 -2"c'
loop_
_symmetry_equiv_pos_site_id
_symmetry_equiv_pos_as_xyz
1 x,y,z
2 -y,x-y,z
3 -x+y,-x,z
4 -y,-x,1/2+z
5 -x+y,y,1/2+z
6 x,x-y,1/2+z
7 2/3+x,1/3+y,1/3+z
8 2/3-y,1/3+x-y,1/3+z
9 2/3-x+y,1/3-x,1/3+z
10 2/3-y,1/3-x,5/6+z
11 2/3-x+y,1/3+y,5/6+z
12 2/3+x,1/3+x-y,5/6+z
13 1/3+x,2/3+y,2/3+z
14 1/3-y,2/3+x-y,2/3+z
15 1/3-x+y,2/3-x,2/3+z
16 1/3-y,2/3-x,1/6+z
17 1/3-x+y,2/3+y,1/6+z
18 1/3+x,2/3+x-y,1/6+z
_cell_length_a                   39.386(2)
_cell_length_b                   39.386(2)
_cell_length_c                   24.133(3)
_cell_angle_alpha                90
_cell_angle_beta                 90
_cell_angle_gamma                120
_cell_volume                     32420.9
loop_
_atom_site_label
_atom_site_type_symbol
_atom_site_fract_x
_atom_site_fract_y
_atom_site_fract_z
Er1 Er 0.13370(2) 0.31685(2) 0.46478(5)
Er2 Er 0.3333 0.6667 0.36384(6)
N1 N 0.2463(7) 0.3978(6) 0.3987(10)
H1 H 0.2687 0.4096 0.3823
N2 N 0.4008(5) 0.4524(6) 0.2038(9)
H2 H 0.3825 0.4397 0.2275
N3 N 0.2058(6) 0.4032(5) 0.0952(8)
H3 H 0.2157 0.4238 0.1158
N4 N 0.3141(7) 0.5843(7) 0.2368(10)
H4 H 0.3047 0.5657 0.2128
N5 N 0.1074(6) 0.2571(6) 0.3840(8)
N6 N 0.0711(5) 0.2725(6) 0.5362(8)
N7 N 0.1021(5) 0.3591(6) 0.4152(8)
N8 N 0.3807(7) 0.6458(6) 0.4244(10)
O1 O 0.2623(4) 0.3963(4) 0.2824(7)
O2 O 0.3595(4) 0.4827(5) 0.2569(7)
O3 O 0.2784(5) 0.4552(5) 0.1324(7)
O4 O 0.2659(5) 0.5005(4) 0.2537(7)
O5 O 0.1907(5) 0.3441(4) 0.4141(7)
O6 O 0.4635(4) 0.5025(4) 0.1883(7)
O7 O 0.2065(5) 0.3720(5) 0.0157(7)
O8 O 0.3039(4) 0.6130(4) 0.3058(6)
O9 O 0.1032(5) 0.2865(5) 0.3771(7)
O10 O 0.1309(5) 0.2590(4) 0.4217(6)
O11 O 0.0991(8) 0.2327(5) 0.3465(8)
O12 O 0.0971(4) 0.3058(4) 0.5504(7)
O13 O 0.0732(5) 0.2593(5) 0.4891(7)
O14 O 0.0411(6) 0.2531(7) 0.5657(10)
O15 O 0.0844(5) 0.3350(5) 0.4537(7)
O16 O 0.1365(4) 0.3672(5) 0.4029(7)
O17 O 0.0865(6) 0.3757(7) 0.3910(9)
O18 O 0.3616(5) 0.6257(4) 0.3832(7)
O19 O 0.3796(6) 0.6765(5) 0.4354(9)
O20 O 0.4063(7) 0.6396(6) 0.4452(10)
C1 C 0.2923(6) 0.4590(6) 0.2317(9)
C2 C 0.2846(7) 0.4183(6) 0.2289(9)
H5 H 0.3092 0.4182 0.2262
H6 H 0.2690 0.4052 0.1965
C3 C 0.3203(7) 0.4792(7) 0.2769(10)
H7 H 0.3115 0.4642 0.3109
H8 H 0.3235 0.5049 0.2833
C4 C 0.3071(7) 0.4769(7) 0.1736(10)
H9 H 0.3129 0.5039 0.1734
H10 H 0.3311 0.4767 0.1652
C5 C 0.2567(7) 0.4616(7) 0.2451(11)
H11 H 0.2381 0.4503 0.2150
H12 H 0.2445 0.4463 0.2782
C6 C 0.2211(7) 0.3604(7) 0.3834(11)
C7 C 0.2226(6) 0.3403(6) 0.3316(9)
C8 C 0.2437(6) 0.3552(6) 0.2842(8)
C9 C 0.2484(7) 0.3343(6) 0.2441(10)
H13 H 0.2636 0.3466 0.2130
C10 C 0.2307(7) 0.2958(6) 0.2501(10)
H14 H 0.2354 0.2813 0.2239
C11 C 0.2067(7) 0.2771(7) 0.2918(9)
H15 H 0.1901 0.2500 0.2931
C12 C 0.2092(7) 0.3015(6) 0.3311(10)
H16 H 0.1998 0.2894 0.3653
C13 C 0.2397(7) 0.4167(6) 0.4348(12)
H17 H 0.2374 0.4049 0.4709
H18 H 0.2153 0.4160 0.4266
C14 C 0.2737(6) 0.4595(5) 0.4354(11)
C15 C 0.2700(6) 0.4889(7) 0.4113(12)
H19 H 0.2459 0.4840 0.3974
C16 C 0.3019(7) 0.5254(6) 0.4080(11)
H20 H 0.3018 0.5438 0.3840
C17 C 0.3340(7) 0.5351(6) 0.4395(12)
H21 H 0.3547 0.5608 0.4400
C18 C 0.3359(6) 0.5073(7) 0.4702(12)
H22 H 0.3565 0.5140 0.4948
C19 C 0.3072(6) 0.4695(6) 0.4645(11)
H23 H 0.3104 0.4498 0.4806
C20 C 0.4324(5) 0.4888(6) 0.2108(10)
C21 C 0.4269(7) 0.5118(7) 0.2644(10)
C22 C 0.3939(7) 0.5080(6) 0.2868(9)
C23 C 0.3926(7) 0.5251(7) 0.3340(9)
H24 H 0.3686 0.5207 0.3478
C24 C 0.4259(7) 0.5486(7) 0.3613(11)
H25 H 0.4253 0.5599 0.3949
C25 C 0.4596(7) 0.5556(7) 0.3403(9)
H26 H 0.4834 0.5743 0.3554
C26 C 0.4578(7) 0.5342(7) 0.2957(9)
H27 H 0.4812 0.5354 0.2857
C27 C 0.4038(6) 0.4388(8) 0.1485(10)
H28 H 0.4257 0.4341 0.1465
H29 H 0.4073 0.4580 0.1205
C28 C 0.3645(5) 0.4003(7) 0.1402(12)
C29 C 0.3367(6) 0.3990(7) 0.1057(12)
H30 H 0.3414 0.4215 0.0866
C30 C 0.3022(7) 0.3652(7) 0.0986(12)
H31 H 0.2818 0.3656 0.0796
C31 C 0.2971(6) 0.3309(8) 0.1191(13)
H32 H 0.2738 0.3075 0.1129
C32 C 0.3267(6) 0.3312(7) 0.1490(13)
H33 H 0.3243 0.3077 0.1612
C33 C 0.3591(7) 0.3653(7) 0.1606(11)
H34 H 0.3783 0.3653 0.1831
C34 C 0.2227(7) 0.4003(7) 0.0486(9)
C35 C 0.2648(8) 0.4357(6) 0.0413(7)
C36 C 0.2907(7) 0.4621(6) 0.0790(7)
C37 C 0.3232(8) 0.4947(5) 0.0620(7)
H35 H 0.3382 0.5140 0.0877
C38 C 0.3346(7) 0.5000(6) 0.0077(7)
H36 H 0.3579 0.5219 -0.0036
C39 C 0.3108(8) 0.4723(6) -0.0292(7)
H37 H 0.3189 0.4736 -0.0658
C40 C 0.2755(8) 0.4429(6) -0.0130(7)
H38 H 0.2578 0.4269 -0.0399
C41 C 0.1684(8) 0.3672(6) 0.1073(8)
H39 H 0.1494 0.3623 0.0784
H40 H 0.1723 0.3448 0.1098
C42 C 0.1546(6) 0.3742(7) 0.1617(7)
C43 C 0.1608(6) 0.3576(8) 0.2068(9)
H41 H 0.1743 0.3439 0.2034
C44 C 0.1475(7) 0.3611(8) 0.2567(8)
H42 H 0.1511 0.3489 0.2873
C45 C 0.1287(7) 0.3818(8) 0.2634(8)
H43 H 0.1253 0.3896 0.2983
C46 C 0.1150(6) 0.3910(8) 0.2170(9)
H44 H 0.0959 0.3982 0.2195
C47 C 0.1300(6) 0.3894(7) 0.1674(8)
H45 H 0.1235 0.3988 0.1362
C48 C 0.2929(8) 0.5838(8) 0.2726(11)
C49 C 0.2523(6) 0.5478(6) 0.2893(10)
C50 C 0.2375(6) 0.5090(5) 0.2797(11)
C51 C 0.2001(6) 0.4802(7) 0.2839(11)
H46 H 0.1922 0.4552 0.2706
C52 C 0.1744(7) 0.4883(7) 0.3077(11)
H47 H 0.1487 0.4693 0.3155
C53 C 0.1885(7) 0.5251(6) 0.3188(12)
H48 H 0.1712 0.5319 0.3343
C54 C 0.2244(6) 0.5538(6) 0.3108(10)
H49 H 0.2306 0.5792 0.3203
C55 C 0.3515(8) 0.6121(8) 0.2318(13)
H50 H 0.3651 0.6151 0.2666
H51 H 0.3533 0.6369 0.2227
C56 C 0.3715(8) 0.5997(8) 0.1837(10)
C57 C 0.3957(9) 0.5861(8) 0.2001(9)
H52 H 0.4007 0.5851 0.2375
C58 C 0.4121(8) 0.5742(8) 0.1615(11)
H53 H 0.4246 0.5604 0.1721
C59 C 0.4107(8) 0.5822(9) 0.1077(10)
H54 H 0.4208 0.5726 0.0810
C60 C 0.3944(8) 0.6042(8) 0.0920(9)
H55 H 0.3983 0.6147 0.0565
C61 C 0.3725(8) 0.6106(8) 0.1295(11)
H56 H 0.3582 0.6224 0.1184
Er1A Er 0.68315(2) 0.81685(3) 0.46478(5)
Er1B Er 0.18315(3) 0.86630(2) 0.46478(5)
Er1N Er 0.51648(3) 0.53297(2) 0.13145(5)
Er1D Er 0.18315(3) 0.31685(2) -0.03522(5)
Er1L Er 0.46703(2) 0.98352(2) 0.13145(5)
Er1C Er 0.68315(2) 0.86630(2) -0.03522(5)
Er1M Er 0.01648(2) 0.48352(3) 0.13145(5)
Er1E Er 0.13370(2) 0.81685(3) -0.03522(5)
N1A N 0.6022(6) 0.8485(9) 0.3987(10)
N1B N 0.1515(9) 0.7537(7) 0.3987(10)
H1A H 0.5904 0.8591 0.3823
H1B H 0.1409 0.7313 0.3823
N2A N 0.5476(6) 0.9484(8) 0.2038(9)
N2B N 0.0516(8) 0.5992(5) 0.2038(9)
H2A H 0.5603 0.9428 0.2275
H2B H 0.0572 0.6175 0.2275
N3A N 0.5968(5) 0.8026(8) 0.0952(8)
N3B N 0.1974(8) 0.7942(6) 0.0952(8)
H3A H 0.5762 0.7919 0.1158
H3B H 0.2081 0.7843 0.1158
N4A N 0.4157(7) 0.7298(10) 0.2368(10)
N4B N 0.2702(10) 0.6859(7) 0.2368(10)
H4A H 0.4343 0.7390 0.2128
H4B H 0.2610 0.6953 0.2128
N5A N 0.7429(6) 0.8503(8) 0.3840(8)
N5B N 0.1497(8) 0.8926(6) 0.3840(8)
N6A N 0.7275(6) 0.7986(8) 0.5362(8)
N6B N 0.2014(8) 0.9289(5) 0.5362(8)
N7A N 0.6409(6) 0.7430(8) 0.4152(8)
N7B N 0.2570(8) 0.8979(5) 0.4152(8)
N8A N 0.3542(6) 0.7349(9) 0.4244(10)
N8B N 0.2651(9) 0.6193(7) 0.4244(10)
O1A O 0.6037(4) 0.8660(6) 0.2824(7)
O1B O 0.1340(6) 0.7377(4) 0.2824(7)
O2A O 0.5173(5) 0.8768(6) 0.2569(7)
O2B O 0.1232(6) 0.6405(4) 0.2569(7)
O3A O 0.5448(5) 0.8232(7) 0.1324(7)
O3B O 0.1768(7) 0.7216(5) 0.1324(7)
O4A O 0.4995(4) 0.7654(6) 0.2537(7)
O4B O 0.2346(6) 0.7341(5) 0.2537(7)
O5A O 0.6559(4) 0.8466(6) 0.4141(7)
O5B O 0.1534(6) 0.8093(5) 0.4141(7)
O6A O 0.4975(4) 0.9610(6) 0.1883(7)
O6B O 0.0390(6) 0.5365(4) 0.1883(7)
O6G O 0.1642(4) 0.2943(6) 0.5216(7)
O6H O 0.7057(6) 0.8698(4) 0.5216(7)
O6F O 0.1302(4) 0.8358(4) 0.5216(7)
O7A O 0.6280(5) 0.8345(7) 0.0157(7)
O7B O 0.1655(7) 0.7935(5) 0.0157(7)
O7D O 0.1655(7) 0.3720(5) 0.5157(7)
O7C O 0.6280(5) 0.7935(5) 0.5157(7)
O7E O 0.2065(5) 0.8345(7) 0.5157(7)
O8A O 0.3870(4) 0.6909(6) 0.3058(6)
O8B O 0.3091(6) 0.6961(4) 0.3058(6)
O9A O 0.7135(5) 0.8167(7) 0.3771(7)
O9B O 0.1833(7) 0.8968(5) 0.3771(7)
O10A O 0.7410(4) 0.8719(6) 0.4217(6)
O10B O 0.1281(6) 0.8691(5) 0.4217(6)
O11A O 0.7673(5) 0.8664(9) 0.3465(8)
O11B O 0.1336(9) 0.9009(8) 0.3465(8)
O12A O 0.6942(4) 0.7913(6) 0.5504(7)
O12B O 0.2087(6) 0.9029(4) 0.5504(7)
O13A O 0.7407(5) 0.8139(7) 0.4891(7)
O13B O 0.1861(7) 0.9268(5) 0.4891(7)
O14A O 0.7469(7) 0.7880(9) 0.5657(10)
O14B O 0.2120(9) 0.9589(6) 0.5657(10)
O15A O 0.6650(5) 0.7494(7) 0.4537(7)
O15B O 0.2506(7) 0.9156(5) 0.4537(7)
O16A O 0.6328(5) 0.7693(6) 0.4029(7)
O16B O 0.2307(6) 0.8635(4) 0.4029(7)
O17A O 0.6243(7) 0.7108(9) 0.3910(9)
O17B O 0.2892(9) 0.9135(6) 0.3910(9)
O18A O 0.3743(4) 0.7359(6) 0.3832(7)
O18B O 0.2641(6) 0.6384(5) 0.3832(7)
O19A O 0.3235(5) 0.7031(8) 0.4354(9)
O19B O 0.2969(8) 0.6204(6) 0.4354(9)
O20B O 0.2333(9) 0.5937(7) 0.4452(10)
O20A O 0.3604(6) 0.7667(9) 0.4452(10)
C1A C 0.5410(6) 0.8333(8) 0.2317(9)
C1B C 0.1667(8) 0.7077(6) 0.2317(9)
C2A C 0.5817(6) 0.8663(9) 0.2289(9)
C2B C 0.1337(9) 0.7154(7) 0.2289(9)
H5A H 0.5818 0.8910 0.2262
H5B H 0.1090 0.6908 0.2262
H6A H 0.5948 0.8638 0.1965
H6B H 0.1362 0.7310 0.1965
C3A C 0.5208(7) 0.8411(10) 0.2769(10)
C3B C 0.1589(10) 0.6797(7) 0.2769(10)
H7A H 0.5358 0.8473 0.3109
H7B H 0.1527 0.6885 0.3109
H8A H 0.4951 0.8186 0.2833
H8B H 0.1814 0.6765 0.2833
C4A C 0.5231(7) 0.8302(10) 0.1736(10)
C4B C 0.1698(10) 0.6929(7) 0.1736(10)
H9A H 0.4961 0.8090 0.1734
H9B H 0.1910 0.6871 0.1734
H10A H 0.5233 0.8544 0.1652
H10B H 0.1456 0.6689 0.1652
C5A C 0.5384(7) 0.7951(10) 0.2451(11)
C5B C 0.2049(10) 0.7433(7) 0.2451(11)
H11A H 0.5497 0.7878 0.2150
H11B H 0.2122 0.7619 0.2150
H12A H 0.5537 0.7982 0.2782
H12B H 0.2018 0.7555 0.2782
C6A C 0.6396(7) 0.8607(10) 0.3834(11)
C6B C 0.1393(10) 0.7789(7) 0.3834(11)
C7A C 0.6597(6) 0.8823(8) 0.3316(9)
C7B C 0.1177(8) 0.7774(6) 0.3316(9)
C8A C 0.6448(6) 0.8885(8) 0.2842(8)
C8B C 0.1115(8) 0.7563(6) 0.2842(8)
C9A C 0.6657(6) 0.9141(9) 0.2441(10)
C9B C 0.0859(9) 0.7516(7) 0.2441(10)
H13A H 0.6534 0.9170 0.2130
H13B H 0.0830 0.7364 0.2130
C10A C 0.7042(6) 0.9349(9) 0.2501(10)
C10B C 0.0651(9) 0.7693(7) 0.2501(10)
H14A H 0.7187 0.9541 0.2239
H14B H 0.0459 0.7646 0.2239
C11A C 0.7229(7) 0.9296(10) 0.2918(9)
C11B C 0.0704(10) 0.7933(7) 0.2918(9)
H15A H 0.7500 0.9401 0.2931
H15B H 0.0599 0.8099 0.2931
C12A C 0.6985(6) 0.9077(9) 0.3311(10)
C12B C 0.0923(9) 0.7908(7) 0.3311(10)
H16A H 0.7106 0.9104 0.3653
H16B H 0.0896 0.8002 0.3653
C13A C 0.5833(6) 0.8230(9) 0.4348(12)
C13B C 0.1770(9) 0.7603(7) 0.4348(12)
H17A H 0.5951 0.8325 0.4709
H17B H 0.1675 0.7626 0.4709
H18A H 0.5840 0.7993 0.4266
H18B H 0.2007 0.7847 0.4266
C14A C 0.5405(5) 0.8142(8) 0.4354(11)
C14B C 0.1858(8) 0.7263(6) 0.4354(11)
C15A C 0.5111(7) 0.7811(9) 0.4113(12)
C15B C 0.2189(9) 0.7300(6) 0.4113(12)
H19A H 0.5160 0.7619 0.3974
H19B H 0.2381 0.7541 0.3974
C16A C 0.4746(6) 0.7765(9) 0.4080(11)
C16B C 0.2235(9) 0.6981(7) 0.4080(11)
H20A H 0.4562 0.7580 0.3840
H20B H 0.2420 0.6982 0.3840
C17A C 0.4649(6) 0.7989(9) 0.4395(12)
C17B C 0.2011(9) 0.6660(7) 0.4395(12)
H21A H 0.4392 0.7939 0.4400
H21B H 0.2061 0.6453 0.4400
C18A C 0.4927(7) 0.8286(9) 0.4702(12)
C18B C 0.1714(9) 0.6641(6) 0.4702(12)
H22A H 0.4860 0.8425 0.4948
H22B H 0.1575 0.6435 0.4948
C19A C 0.5305(6) 0.8377(8) 0.4645(11)
C19B C 0.1623(8) 0.6928(6) 0.4645(11)
H23A H 0.5502 0.8606 0.4806
H23B H 0.1394 0.6896 0.4806
C20A C 0.5112(6) 0.9436(8) 0.2108(10)
C20B C 0.0564(8) 0.5676(5) 0.2108(10)
C21A C 0.4882(7) 0.9151(10) 0.2644(10)
C21B C 0.0849(10) 0.5731(7) 0.2644(10)
C22A C 0.4920(6) 0.8859(9) 0.2868(9)
C22B C 0.1141(9) 0.6061(7) 0.2868(9)
C23A C 0.4749(7) 0.8675(10) 0.3340(9)
C23B C 0.1325(10) 0.6074(7) 0.3340(9)
H24A H 0.4793 0.8479 0.3478
H24B H 0.1521 0.6314 0.3478
C24A C 0.4514(7) 0.8773(10) 0.3613(11)
C24B C 0.1227(10) 0.5741(7) 0.3613(11)
H25A H 0.4401 0.8654 0.3949
H25B H 0.1346 0.5747 0.3949
C25A C 0.4444(7) 0.9040(10) 0.3403(9)
C25B C 0.0960(10) 0.5404(7) 0.3403(9)
H26A H 0.4257 0.9091 0.3554
H26B H 0.0909 0.5166 0.3554
C26A C 0.4658(7) 0.9236(10) 0.2957(9)
C26B C 0.0764(10) 0.5422(7) 0.2957(9)
H27A H 0.4646 0.9458 0.2857
H27B H 0.0542 0.5188 0.2857
C27A C 0.5612(8) 0.9650(10) 0.1485(10)
C27B C 0.0350(10) 0.5962(6) 0.1485(10)
H28A H 0.5659 0.9916 0.1465
H28B H 0.0084 0.5743 0.1465
H29A H 0.5420 0.9493 0.1205
H29B H 0.0507 0.5927 0.1205
C28A C 0.5997(7) 0.9642(9) 0.1402(12)
C28B C 0.0358(9) 0.6355(5) 0.1402(12)
C29A C 0.6010(7) 0.9377(9) 0.1057(12)
C29B C 0.0623(9) 0.6633(6) 0.1057(12)
H30A H 0.5785 0.9199 0.0866
H30B H 0.0801 0.6586 0.0866
C30A C 0.6348(7) 0.9370(10) 0.0986(12)
C30B C 0.0630(10) 0.6978(7) 0.0986(12)
H31A H 0.6344 0.9162 0.0796
H31B H 0.0838 0.7182 0.0796
C31A C 0.6691(8) 0.9662(10) 0.1191(13)
C31B C 0.0338(10) 0.7029(6) 0.1191(13)
H32A H 0.6925 0.9663 0.1129
H32B H 0.0337 0.7262 0.1129
C32A C 0.6688(7) 0.9955(9) 0.1490(13)
C32B C 0.0045(9) 0.6733(6) 0.1490(13)
H33A H 0.6923 1.0166 0.1612
H33B H -0.0166 0.6757 0.1612
C33A C 0.6347(7) 0.9938(10) 0.1606(11)
C33B C 0.0062(10) 0.6409(7) 0.1606(11)
H34A H 0.6347 1.0130 0.1831
H34B H -0.0130 0.6217 0.1831
C34A C 0.5997(7) 0.8224(10) 0.0486(9)
C34B C 0.1776(10) 0.7773(7) 0.0486(9)
C35A C 0.5643(6) 0.8291(10) 0.0413(7)
C35B C 0.1709(10) 0.7352(8) 0.0413(7)
C36A C 0.5379(6) 0.8286(9) 0.0790(7)
C36B C 0.1714(9) 0.7093(7) 0.0790(7)
C37A C 0.5053(5) 0.8285(9) 0.0620(7)
C37B C 0.1715(9) 0.6768(8) 0.0620(7)
H35A H 0.4860 0.8242 0.0877
H35B H 0.1758 0.6618 0.0877
C38A C 0.5000(6) 0.8346(9) 0.0077(7)
C38B C 0.1654(9) 0.6654(7) 0.0077(7)
H36A H 0.4781 0.8360 -0.0036
H36B H 0.1640 0.6421 -0.0036
C39A C 0.5277(6) 0.8385(10) -0.0292(7)
C39B C 0.1615(10) 0.6892(8) -0.0292(7)
H37A H 0.5264 0.8453 -0.0658
H37B H 0.1547 0.6811 -0.0658
C40A C 0.5571(6) 0.8326(10) -0.0130(7)
C40B C 0.1674(10) 0.7245(8) -0.0130(7)
H38A H 0.5731 0.8309 -0.0399
H38B H 0.1691 0.7422 -0.0399
C41A C 0.6328(6) 0.8012(10) 0.1073(8)
C41B C 0.1988(10) 0.8316(8) 0.1073(8)
H39A H 0.6377 0.7871 0.0784
H39B H 0.2129 0.8506 0.0784
H40A H 0.6552 0.8275 0.1098
H40B H 0.1725 0.8277 0.1098
C42A C 0.6258(7) 0.7804(9) 0.1617(7)
C42B C 0.2196(9) 0.8454(6) 0.1617(7)
C43A C 0.6424(8) 0.8032(10) 0.2068(9)
C43B C 0.1968(10) 0.8392(6) 0.2068(9)
H41A H 0.6561 0.8304 0.2034
H41B H 0.1696 0.8257 0.2034
C44A C 0.6389(8) 0.7864(11) 0.2567(8)
C44B C 0.2136(11) 0.8525(7) 0.2567(8)
H42A H 0.6511 0.8022 0.2873
H42B H 0.1978 0.8489 0.2873
C45A C 0.6182(8) 0.7469(11) 0.2634(8)
C45B C 0.2531(11) 0.8713(7) 0.2634(8)
H43A H 0.6104 0.7357 0.2983
H43B H 0.2643 0.8747 0.2983
C46A C 0.6090(8) 0.7240(10) 0.2170(9)
C46B C 0.2760(10) 0.8850(6) 0.2170(9)
H44A H 0.6018 0.6977 0.2195
H44B H 0.3023 0.9041 0.2195
C47A C 0.6106(7) 0.7406(9) 0.1674(8)
C47B C 0.2594(9) 0.8700(6) 0.1674(8)
H45A H 0.6012 0.7247 0.1362
H45B H 0.2753 0.8765 0.1362
C48A C 0.4162(8) 0.7091(11) 0.2726(11)
C48B C 0.2909(11) 0.7071(8) 0.2726(11)
C49A C 0.4522(6) 0.7045(8) 0.2893(10)
C49B C 0.2955(8) 0.7477(6) 0.2893(10)
C50A C 0.4910(5) 0.7285(8) 0.2797(11)
C50B C 0.2715(8) 0.7625(6) 0.2797(11)
C51A C 0.5198(7) 0.7199(9) 0.2839(11)
C51B C 0.2801(9) 0.7999(6) 0.2839(11)
H46A H 0.5448 0.7370 0.2706
H46B H 0.2630 0.8078 0.2706
C52A C 0.5117(7) 0.6861(10) 0.3077(11)
C52B C 0.3139(10) 0.8256(7) 0.3077(11)
H47A H 0.5307 0.6794 0.3155
H47B H 0.3206 0.8513 0.3155
C53A C 0.4749(6) 0.6634(9) 0.3188(12)
C53B C 0.3366(9) 0.8115(7) 0.3188(12)
H48A H 0.4681 0.6393 0.3343
H48B H 0.3607 0.8288 0.3343
C54A C 0.4462(6) 0.6706(8) 0.3108(10)
C54B C 0.3294(8) 0.7756(6) 0.3108(10)
H49A H 0.4208 0.6514 0.3203
H49B H 0.3486 0.7694 0.3203
C55A C 0.3879(8) 0.7394(11) 0.2318(13)
C55B C 0.2606(11) 0.6485(8) 0.2318(13)
H50A H 0.3849 0.7500 0.2666
H50B H 0.2500 0.6349 0.2666
H51A H 0.3631 0.7164 0.2227
H51B H 0.2836 0.6467 0.2227
C56A C 0.4003(8) 0.7718(11) 0.1837(10)
C56B C 0.2282(11) 0.6285(8) 0.1837(10)
C57A C 0.4139(8) 0.8096(12) 0.2001(9)
C57B C 0.1904(12) 0.6043(9) 0.2001(9)
H52A H 0.4149 0.8156 0.2375
H52B H 0.1844 0.5993 0.2375
C58A C 0.4258(8) 0.8379(11) 0.1615(11)
C58B C 0.1621(11) 0.5879(8) 0.1615(11)
H53A H 0.4396 0.8642 0.1721
H53B H 0.1358 0.5754 0.1721
C59A C 0.4178(9) 0.8285(12) 0.1077(10)
C59B C 0.1715(12) 0.5893(8) 0.1077(10)
H54A H 0.4274 0.8482 0.0810
H54B H 0.1518 0.5792 0.0810
C60A C 0.3958(8) 0.7902(11) 0.0920(9)
C60B C 0.2098(11) 0.6056(8) 0.0920(9)
H55A H 0.3853 0.7836 0.0565
H55B H 0.2164 0.6017 0.0565
C61A C 0.3894(8) 0.7619(11) 0.1295(11)
C61B C 0.2381(11) 0.6275(8) 0.1295(11)
H56A H 0.3776 0.7358 0.1184
H56B H 0.2642 0.6418 0.1184
O21 O 0.2237(6) 0.5291(7) 0.0927(10)
C62 C 0.2623(8) 0.5331(9) 0.0837(13)
H57 H 0.2591 0.5080 0.0722
H58 H 0.2769 0.5406 0.1181
C63 C 0.2850(7) 0.5637(10) 0.0396(13)
H59 H 0.2912 0.5891 0.0530
H60 H 0.2693 0.5578 0.0067
H61 H 0.3087 0.5636 0.0311
C64 C 0.2045(8) 0.5007(9) 0.1364(12)
H62 H 0.2205 0.5097 0.1696
H63 H 0.2024 0.4759 0.1255
C65 C 0.1639(7) 0.4940(9) 0.1495(13)
H64 H 0.1503 0.4920 0.1155
H65 H 0.1663 0.5156 0.1708
H66 H 0.1496 0.4702 0.1703
loop_
_geom_bond_atom_site_label_1
_geom_bond_atom_site_label_2
_geom_bond_site_symmetry_1
_geom_bond_site_symmetry_2
Er1 O5 1_555 1_555
Er2 O8 1_555 1_555
N1 H1 1_555 1_555
N2 H2 1_555 1_555
N3 H3 1_555 1_555
N4 H4 1_555 1_555
N5 O9 1_555 1_555
N6 O12 1_555 1_555
N7 O15 1_555 1_555
N8 O18 1_555 1_555
O1 C2 1_555 1_555
O2 C3 1_555 1_555
O3 C4 1_555 1_555
O4 C5 1_555 1_555
O5 C6 1_555 1_555
O6 C20 1_555 1_555
O7 C34 1_555 1_555
O8 C48 1_555 1_555
O9 Er1 1_555 1_555
O10 Er1 1_555 1_555
O11 N5 1_555 1_555
O12 Er1 1_555 1_555
O13 Er1 1_555 1_555
O14 N6 1_555 1_555
O15 Er1 1_555 1_555
O16 Er1 1_555 1_555
O17 N7 1_555 1_555
O18 Er2 1_555 1_555
O19 Er2 1_555 1_555
O20 N8 1_555 1_555
O21 C62 1_555 1_555
C1 C2 1_555 1_555
C2 H5 1_555 1_555
H6 C2 1_555 1_555
C3 C1 1_555 1_555
H7 C3 1_555 1_555
H8 C3 1_555 1_555
C4 C1 1_555 1_555
H9 C4 1_555 1_555
H10 C4 1_555 1_555
C5 C1 1_555 1_555
H11 C5 1_555 1_555
H12 C5 1_555 1_555
C6 N1 1_555 1_555
C7 C6 1_555 1_555
C8 O1 1_555 1_555
C9 C8 1_555 1_555
H13 C9 1_555 1_555
C10 C9 1_555 1_555
H14 C10 1_555 1_555
C11 C10 1_555 1_555
H15 C11 1_555 1_555
C12 C7 1_555 1_555
H16 C12 1_555 1_555
C13 N1 1_555 1_555
H17 C13 1_555 1_555
H18 C13 1_555 1_555
C14 C13 1_555 1_555
C15 C14 1_555 1_555
H19 C15 1_555 1_555
C16 C15 1_555 1_555
H20 C16 1_555 1_555
C17 C16 1_555 1_555
H21 C17 1_555 1_555
C18 C17 1_555 1_555
H22 C18 1_555 1_555
C19 C14 1_555 1_555
H23 C19 1_555 1_555
C20 N2 1_555 1_555
C21 C20 1_555 1_555
C22 O2 1_555 1_555
C23 C22 1_555 1_555
H24 C23 1_555 1_555
C24 C23 1_555 1_555
H25 C24 1_555 1_555
C25 C24 1_555 1_555
H26 C25 1_555 1_555
C26 C21 1_555 1_555
H27 C26 1_555 1_555
C27 N2 1_555 1_555
H28 C27 1_555 1_555
H29 C27 1_555 1_555
C28 C27 1_555 1_555
C29 C28 1_555 1_555
H30 C29 1_555 1_555
C30 C29 1_555 1_555
H31 C30 1_555 1_555
C31 C30 1_555 1_555
H32 C31 1_555 1_555
C32 C31 1_555 1_555
H33 C32 1_555 1_555
C33 C28 1_555 1_555
H34 C33 1_555 1_555
C34 N3 1_555 1_555
C35 C34 1_555 1_555
C36 O3 1_555 1_555
C37 C36 1_555 1_555
H35 C37 1_555 1_555
C38 C37 1_555 1_555
H36 C38 1_555 1_555
C39 C38 1_555 1_555
H37 C39 1_555 1_555
C40 C35 1_555 1_555
H38 C40 1_555 1_555
C41 N3 1_555 1_555
H39 C41 1_555 1_555
H40 C41 1_555 1_555
C42 C41 1_555 1_555
C43 C42 1_555 1_555
H41 C43 1_555 1_555
C44 C43 1_555 1_555
H42 C44 1_555 1_555
C45 C44 1_555 1_555
H43 C45 1_555 1_555
C46 C45 1_555 1_555
H44 C46 1_555 1_555
C47 C42 1_555 1_555
H45 C47 1_555 1_555
C48 N4 1_555 1_555
C49 C48 1_555 1_555
C50 O4 1_555 1_555
C51 C50 1_555 1_555
H46 C51 1_555 1_555
C52 C51 1_555 1_555
H47 C52 1_555 1_555
C53 C52 1_555 1_555
H48 C53 1_555 1_555
C54 C49 1_555 1_555
H49 C54 1_555 1_555
C55 N4 1_555 1_555
H50 C55 1_555 1_555
H51 C55 1_555 1_555
C56 C55 1_555 1_555
C57 C56 1_555 1_555
H52 C57 1_555 1_555
C58 C57 1_555 1_555
H53 C58 1_555 1_555
C59 C58 1_555 1_555
H54 C59 1_555 1_555
C60 C59 1_555 1_555
H55 C60 1_555 1_555
C61 C56 1_555 1_555
H56 C61 1_555 1_555
C62 H57 1_555 1_555
H58 C62 1_555 1_555
C63 C62 1_555 1_555
H59 C63 1_555 1_555
H60 C63 1_555 1_555
H61 C63 1_555 1_555
C64 O21 1_555 1_555
H62 C64 1_555 1_555
H63 C64 1_555 1_555
C65 C64 1_555 1_555
H64 C65 1_555 1_555
H65 C65 1_555 1_555
H66 C65 1_555 1_555
Er1A O5A 1_555 1_555
Er1B O5B 1_555 1_555
Er1N O6 1_555 1_555
Er1D O7 1_555 1_555
Er1L O6A 1_555 1_555
Er1C O7A 1_555 1_555
Er1M O6B 1_555 1_555
Er1E O7B 1_555 1_555
N1A H1A 1_555 1_555
N1B H1B 1_555 1_555
N2A H2A 1_555 1_555
N2B H2B 1_555 1_555
N3A H3A 1_555 1_555
N3B H3B 1_555 1_555
N4A H4A 1_555 1_555
N4B H4B 1_555 1_555
N5A O9A 1_555 1_555
N5B O9B 1_555 1_555
N6A O12A 1_555 1_555
N6B O12B 1_555 1_555
N7A O15A 1_555 1_555
N7B O15B 1_555 1_555
N8A O18A 1_555 1_555
N8B O18B 1_555 1_555
O1A C2A 1_555 1_555
O1B C2B 1_555 1_555
O2A C3A 1_555 1_555
O2B C3B 1_555 1_555
O3A C4A 1_555 1_555
O3B C4B 1_555 1_555
O4A C5A 1_555 1_555
O4B C5B 1_555 1_555
O5A C6A 1_555 1_555
O5B C6B 1_555 1_555
O6A C20A 1_555 1_555
O6B C20B 1_555 1_555
O6G Er1 1_555 1_555
O6H Er1A 1_555 1_555
O6F Er1B 1_555 1_555
O7A C34A 1_555 1_555
O7B C34B 1_555 1_555
O7D Er1 1_555 1_555
O7C Er1A 1_555 1_555
O7E Er1B 1_555 1_555
O8A Er2 1_555 1_555
O8B Er2 1_555 1_555
O9A Er1A 1_555 1_555
O9B Er1B 1_555 1_555
O10A Er1A 1_555 1_555
O10B Er1B 1_555 1_555
O11A N5A 1_555 1_555
O11B N5B 1_555 1_555
O12A Er1A 1_555 1_555
O12B Er1B 1_555 1_555
O13A Er1A 1_555 1_555
O13B Er1B 1_555 1_555
O14A N6A 1_555 1_555
O14B N6B 1_555 1_555
O15A Er1A 1_555 1_555
O15B Er1B 1_555 1_555
O16A Er1A 1_555 1_555
O16B Er1B 1_555 1_555
O17A N7A 1_555 1_555
O17B N7B 1_555 1_555
O18A Er2 1_555 1_555
O18B Er2 1_555 1_555
O19A Er2 1_555 1_555
O19B Er2 1_555 1_555
O20B N8B 1_555 1_555
O20A N8A 1_555 1_555
C1A C2A 1_555 1_555
C1B C2B 1_555 1_555
C2A H5A 1_555 1_555
C2B H5B 1_555 1_555
H6A C2A 1_555 1_555
H6B C2B 1_555 1_555
C3A C1A 1_555 1_555
C3B C1B 1_555 1_555
H7A C3A 1_555 1_555
H7B C3B 1_555 1_555
H8A C3A 1_555 1_555
H8B C3B 1_555 1_555
C4A C1A 1_555 1_555
C4B C1B 1_555 1_555
H9A C4A 1_555 1_555
H9B C4B 1_555 1_555
H10A C4A 1_555 1_555
H10B C4B 1_555 1_555
C5A C1A 1_555 1_555
C5B C1B 1_555 1_555
H11A C5A 1_555 1_555
H11B C5B 1_555 1_555
H12A C5A 1_555 1_555
H12B C5B 1_555 1_555
C6A N1A 1_555 1_555
C6B N1B 1_555 1_555
C7A C6A 1_555 1_555
C7B C6B 1_555 1_555
C8A O1A 1_555 1_555
C8B O1B 1_555 1_555
C9A C8A 1_555 1_555
C9B C8B 1_555 1_555
H13A C9A 1_555 1_555
H13B C9B 1_555 1_555
C10A C9A 1_555 1_555
C10B C9B 1_555 1_555
H14A C10A 1_555 1_555
H14B C10B 1_555 1_555
C11A C10A 1_555 1_555
C11B C10B 1_555 1_555
H15A C11A 1_555 1_555
H15B C11B 1_555 1_555
C12A C7A 1_555 1_555
C12B C7B 1_555 1_555
H16A C12A 1_555 1_555
H16B C12B 1_555 1_555
C13A N1A 1_555 1_555
C13B N1B 1_555 1_555
H17A C13A 1_555 1_555
H17B C13B 1_555 1_555
H18A C13A 1_555 1_555
H18B C13B 1_555 1_555
C14A C13A 1_555 1_555
C14B C13B 1_555 1_555
C15A C14A 1_555 1_555
C15B C14B 1_555 1_555
H19A C15A 1_555 1_555
H19B C15B 1_555 1_555
C16A C15A 1_555 1_555
C16B C15B 1_555 1_555
H20A C16A 1_555 1_555
H20B C16B 1_555 1_555
C17A C16A 1_555 1_555
C17B C16B 1_555 1_555
H21A C17A 1_555 1_555
H21B C17B 1_555 1_555
C18A C17A 1_555 1_555
C18B C17B 1_555 1_555
H22A C18A 1_555 1_555
H22B C18B 1_555 1_555
C19A C14A 1_555 1_555
C19B C14B 1_555 1_555
H23A C19A 1_555 1_555
H23B C19B 1_555 1_555
C20A N2A 1_555 1_555
C20B N2B 1_555 1_555
C21A C20A 1_555 1_555
C21B C20B 1_555 1_555
C22A O2A 1_555 1_555
C22B O2B 1_555 1_555
C23A C22A 1_555 1_555
C23B C22B 1_555 1_555
H24A C23A 1_555 1_555
H24B C23B 1_555 1_555
C24A C23A 1_555 1_555
C24B C23B 1_555 1_555
H25A C24A 1_555 1_555
H25B C24B 1_555 1_555
C25A C24A 1_555 1_555
C25B C24B 1_555 1_555
H26A C25A 1_555 1_555
H26B C25B 1_555 1_555
C26A C21A 1_555 1_555
C26B C21B 1_555 1_555
H27A C26A 1_555 1_555
H27B C26B 1_555 1_555
C27A N2A 1_555 1_555
C27B N2B 1_555 1_555
H28A C27A 1_555 1_555
H28B C27B 1_555 1_555
H29A C27A 1_555 1_555
H29B C27B 1_555 1_555
C28A C27A 1_555 1_555
C28B C27B 1_555 1_555
C29A C28A 1_555 1_555
C29B C28B 1_555 1_555
H30A C29A 1_555 1_555
H30B C29B 1_555 1_555
C30A C29A 1_555 1_555
C30B C29B 1_555 1_555
H31A C30A 1_555 1_555
H31B C30B 1_555 1_555
C31A C30A 1_555 1_555
C31B C30B 1_555 1_555
H32A C31A 1_555 1_555
H32B C31B 1_555 1_555
C32A C31A 1_555 1_555
C32B C31B 1_555 1_555
H33A C32A 1_555 1_555
H33B C32B 1_555 1_555
C33A C28A 1_555 1_555
C33B C28B 1_555 1_555
H34A C33A 1_555 1_555
H34B C33B 1_555 1_555
C34A N3A 1_555 1_555
C34B N3B 1_555 1_555
C35A C34A 1_555 1_555
C35B C34B 1_555 1_555
C36A O3A 1_555 1_555
C36B O3B 1_555 1_555
C37A C36A 1_555 1_555
C37B C36B 1_555 1_555
H35A C37A 1_555 1_555
H35B C37B 1_555 1_555
C38A C37A 1_555 1_555
C38B C37B 1_555 1_555
H36A C38A 1_555 1_555
H36B C38B 1_555 1_555
C39A C38A 1_555 1_555
C39B C38B 1_555 1_555
H37A C39A 1_555 1_555
H37B C39B 1_555 1_555
C40A C35A 1_555 1_555
C40B C35B 1_555 1_555
H38A C40A 1_555 1_555
H38B C40B 1_555 1_555
C41A N3A 1_555 1_555
C41B N3B 1_555 1_555
H39A C41A 1_555 1_555
H39B C41B 1_555 1_555
H40A C41A 1_555 1_555
H40B C41B 1_555 1_555
C42A C41A 1_555 1_555
C42B C41B 1_555 1_555
C43A C42A 1_555 1_555
C43B C42B 1_555 1_555
H41A C43A 1_555 1_555
H41B C43B 1_555 1_555
C44A C43A 1_555 1_555
C44B C43B 1_555 1_555
H42A C44A 1_555 1_555
H42B C44B 1_555 1_555
C45A C44A 1_555 1_555
C45B C44B 1_555 1_555
H43A C45A 1_555 1_555
H43B C45B 1_555 1_555
C46A C45A 1_555 1_555
C46B C45B 1_555 1_555
H44A C46A 1_555 1_555
H44B C46B 1_555 1_555
C47A C42A 1_555 1_555
C47B C42B 1_555 1_555
H45A C47A 1_555 1_555
H45B C47B 1_555 1_555
C48A N4A 1_555 1_555
C48B N4B 1_555 1_555
C49A C48A 1_555 1_555
C49B C48B 1_555 1_555
C50A O4A 1_555 1_555
C50B O4B 1_555 1_555
C51A C50A 1_555 1_555
C51B C50B 1_555 1_555
H46A C51A 1_555 1_555
H46B C51B 1_555 1_555
C52A C51A 1_555 1_555
C52B C51B 1_555 1_555
H47A C52A 1_555 1_555
H47B C52B 1_555 1_555
C53A C52A 1_555 1_555
C53B C52B 1_555 1_555
H48A C53A 1_555 1_555
H48B C53B 1_555 1_555
C54A C49A 1_555 1_555
C54B C49B 1_555 1_555
H49A C54A 1_555 1_555
H49B C54B 1_555 1_555
C55A N4A 1_555 1_555
C55B N4B 1_555 1_555
H50A C55A 1_555 1_555
H50B C55B 1_555 1_555
H51A C55A 1_555 1_555
H51B C55B 1_555 1_555
C56A C55A 1_555 1_555
C56B C55B 1_555 1_555
C57A C56A 1_555 1_555
C57B C56B 1_555 1_555
H52A C57A 1_555 1_555
H52B C57B 1_555 1_555
C58A C57A 1_555 1_555
C58B C57B 1_555 1_555
H53A C58A 1_555 1_555
H53B C58B 1_555 1_555
C59A C58A 1_555 1_555
C59B C58B 1_555 1_555
H54A C59A 1_555 1_555
H54B C59B 1_555 1_555
C60A C59A 1_555 1_555
C60B C59B 1_555 1_555
H55A C60A 1_555 1_555
H55B C60B 1_555 1_555
C61A C56A 1_555 1_555
C61B C56B 1_555 1_555
H56A C61A 1_555 1_555
H56B C61B 1_555 1_555
N5 O10 1_555 1_555
N6 O13 1_555 1_555
N7 O16 1_555 1_555
N8 O19 1_555 1_555
C7 C8 1_555 1_555
C11 C12 1_555 1_555
C18 C19 1_555 1_555
C21 C22 1_555 1_555
C25 C26 1_555 1_555
C32 C33 1_555 1_555
C35 C36 1_555 1_555
C39 C40 1_555 1_555
C46 C47 1_555 1_555
C49 C50 1_555 1_555
C53 C54 1_555 1_555
C60 C61 1_555 1_555
N5A O10A 1_555 1_555
N5B O10B 1_555 1_555
N6A O13A 1_555 1_555
N6B O13B 1_555 1_555
N7A O16A 1_555 1_555
N7B O16B 1_555 1_555
N8A O19A 1_555 1_555
N8B O19B 1_555 1_555
O8A C48A 1_555 1_555
O8B C48B 1_555 1_555
C7A C8A 1_555 1_555
C7B C8B 1_555 1_555
C11A C12A 1_555 1_555
C11B C12B 1_555 1_555
C18A C19A 1_555 1_555
C18B C19B 1_555 1_555
C21A C22A 1_555 1_555
C21B C22B 1_555 1_555
C25A C26A 1_555 1_555
C25B C26B 1_555 1_555
C32A C33A 1_555 1_555
C32B C33B 1_555 1_555
C35A C36A 1_555 1_555
C35B C36B 1_555 1_555
C39A C40A 1_555 1_555
C39B C40B 1_555 1_555
C46A C47A 1_555 1_555
C46B C47B 1_555 1_555
C49A C50A 1_555 1_555
C49B C50B 1_555 1_555
C53A C54A 1_555 1_555
C53B C54B 1_555 1_555
C60A C61A 1_555 1_555
C60B C61B 1_555 1_555

#END
