
#######################################################################
#
#                 Cambridge Crystallographic Data Centre
#                                CCDC 
#
#######################################################################
#
# If this CIF has been generated from an entry in the Cambridge 
# Structural Database, then it will include bibliographic, chemical, 
# crystal, experimental, refinement or atomic coordinate data resulting 
# from the CCDC's data processing and validation procedures.
#
#######################################################################

data_LOQSEQ
_symmetry_cell_setting           rhombohedral
_symmetry_space_group_name_H-M   'R 3 c'
_symmetry_Int_Tables_number      161
_space_group_name_Hall           'R 3 -2"c'
loop_
_symmetry_equiv_pos_site_id
_symmetry_equiv_pos_as_xyz
1 x,y,z
2 -y,x-y,z
3 -x+y,-x,z
4 -y,-x,1/2+z
5 -x+y,y,1/2+z
6 x,x-y,1/2+z
7 2/3+x,1/3+y,1/3+z
8 2/3-y,1/3+x-y,1/3+z
9 2/3-x+y,1/3-x,1/3+z
10 2/3-y,1/3-x,5/6+z
11 2/3-x+y,1/3+y,5/6+z
12 2/3+x,1/3+x-y,5/6+z
13 1/3+x,2/3+y,2/3+z
14 1/3-y,2/3+x-y,2/3+z
15 1/3-x+y,2/3-x,2/3+z
16 1/3-y,2/3-x,1/6+z
17 1/3-x+y,2/3+y,1/6+z
18 1/3+x,2/3+x-y,1/6+z
_cell_length_a                   39.597(2)
_cell_length_b                   39.597(2)
_cell_length_c                   24.266(3)
_cell_angle_alpha                90
_cell_angle_beta                 90
_cell_angle_gamma                120
_cell_volume                     32949.8
loop_
_atom_site_label
_atom_site_type_symbol
_atom_site_fract_x
_atom_site_fract_y
_atom_site_fract_z
Pr1 Pr 0.13271(4) 0.31618(4) 0.4657(2)
Pr2 Pr 0.3333 0.6667 0.3673(2)
N1 N 0.2484(7) 0.3961(6) 0.3990(10)
H1 H 0.2733 0.4073 0.3946
N2 N 0.3980(6) 0.4563(6) 0.2126(10)
H2 H 0.3806 0.4428 0.2368
N3 N 0.2075(7) 0.4049(5) 0.0942(9)
H3 H 0.2118 0.4252 0.1127
N4 N 0.3078(6) 0.5845(6) 0.2269(10)
H4 H 0.2966 0.5741 0.1961
N5 N 0.1061(7) 0.2589(7) 0.3827(10)
N6 N 0.0694(6) 0.2754(7) 0.5393(10)
N7 N 0.1046(6) 0.3573(6) 0.4082(10)
N8 N 0.3694(7) 0.6380(6) 0.4258(10)
O1 O 0.2637(5) 0.3974(5) 0.2778(8)
O2 O 0.3581(6) 0.4865(5) 0.2583(9)
O3 O 0.2809(5) 0.4544(5) 0.1323(8)
O4 O 0.2658(5) 0.5016(5) 0.2551(9)
O5 O 0.1912(6) 0.3447(6) 0.4200(9)
O6 O 0.4628(5) 0.5008(5) 0.1937(9)
O7 O 0.2048(5) 0.3732(5) 0.0148(9)
O8 O 0.3068(6) 0.6161(5) 0.3022(9)
O9 O 0.0983(5) 0.2853(5) 0.3810(8)
O10 O 0.1302(6) 0.2594(5) 0.4181(8)
O11 O 0.1029(6) 0.2394(6) 0.3395(9)
O12 O 0.0969(5) 0.3043(5) 0.5619(8)
O13 O 0.0752(5) 0.2588(5) 0.4983(7)
O14 O 0.0378(5) 0.2593(5) 0.5656(8)
O15 O 0.0865(5) 0.3333(5) 0.4443(8)
O16 O 0.1400(5) 0.3707(5) 0.3979(9)
O17 O 0.0900(5) 0.3777(6) 0.3899(10)
O18 O 0.3597(5) 0.6255(5) 0.3788(9)
O19 O 0.3716(6) 0.6705(5) 0.4384(8)
O20 O 0.3932(7) 0.6297(6) 0.4479(10)
C1 C 0.2898(9) 0.4581(9) 0.2310(13)
C2 C 0.2839(7) 0.4188(5) 0.2299(9)
H5 H 0.2691 0.4053 0.1974
H6 H 0.3091 0.4201 0.2278
C3 C 0.3219(6) 0.4806(7) 0.2777(9)
H7 H 0.3238 0.5055 0.2857
H8 H 0.3146 0.4653 0.3113
C4 C 0.3062(7) 0.4807(6) 0.1737(8)
H9 H 0.3054 0.5048 0.1733
H10 H 0.3329 0.4867 0.1678
C5 C 0.2560(6) 0.4632(6) 0.2436(10)
H11 H 0.2383 0.4541 0.2124
H12 H 0.2422 0.4471 0.2750
C6 C 0.2240(6) 0.3582(7) 0.3865(9)
C7 C 0.2257(4) 0.3379(6) 0.3375(8)
C8 C 0.2469(5) 0.3576(5) 0.2927(9)
C9 C 0.2479(5) 0.3372(6) 0.2471(8)
H13 H 0.2628 0.3505 0.2166
C10 C 0.2265(6) 0.2966(6) 0.2468(9)
H14 H 0.2265 0.2828 0.2157
C11 C 0.2056(5) 0.2771(5) 0.2923(10)
H15 H 0.1917 0.2500 0.2926
C12 C 0.2049(5) 0.2980(5) 0.3386(8)
H16 H 0.1905 0.2849 0.3696
C13 C 0.2292(7) 0.4161(6) 0.4203(10)
H17 H 0.2175 0.4059 0.4560
H18 H 0.2094 0.4143 0.3951
C14 C 0.2625(6) 0.4572(6) 0.4247(7)
C15 C 0.2699(7) 0.4924(8) 0.4064(8)
H19 H 0.2511 0.4943 0.3858
C16 C 0.3050(8) 0.5257(6) 0.4181(9)
H20 H 0.3101 0.5499 0.4049
C17 C 0.3321(6) 0.5224(6) 0.4492(10)
H21 H 0.3555 0.5446 0.4581
C18 C 0.3248(7) 0.4865(8) 0.4676(9)
H22 H 0.3437 0.4845 0.4877
C19 C 0.2895(8) 0.4532(6) 0.4563(8)
H23 H 0.2841 0.4290 0.4696
C20 C 0.4281(6) 0.4942(7) 0.2182(9)
C21 C 0.4234(5) 0.5110(6) 0.2714(7)
C22 C 0.3896(5) 0.5066(6) 0.2915(10)
C23 C 0.3869(6) 0.5229(5) 0.3410(10)
H24 H 0.3633 0.5195 0.3538
C24 C 0.4220(5) 0.5449(6) 0.3706(8)
H25 H 0.4215 0.5560 0.4041
C25 C 0.4559(6) 0.5499(6) 0.3510(9)
H26 H 0.4788 0.5651 0.3706
C26 C 0.4572(6) 0.5322(5) 0.3006(9)
H27 H 0.4805 0.5349 0.2878
C27 C 0.4018(6) 0.4440(7) 0.1581(10)
H28 H 0.4247 0.4412 0.1569
H29 H 0.4055 0.4640 0.1318
C28 C 0.3680(6) 0.4073(5) 0.1419(7)
C29 C 0.3430(6) 0.4071(5) 0.1037(7)
H30 H 0.3472 0.4303 0.0881
C30 C 0.3115(7) 0.3726(7) 0.0883(8)
H31 H 0.2946 0.3724 0.0615
C31 C 0.3043(6) 0.3378(7) 0.1119(10)
H32 H 0.2823 0.3145 0.1018
C32 C 0.3298(6) 0.3378(6) 0.1503(10)
H33 H 0.3256 0.3145 0.1659
C33 C 0.3615(6) 0.3727(5) 0.1652(8)
H34 H 0.3787 0.3730 0.1914
C34 C 0.2267(8) 0.4059(6) 0.0472(10)
C35 C 0.2680(8) 0.4391(6) 0.0423(11)
C36 C 0.2908(8) 0.4652(7) 0.0826(9)
C37 C 0.3275(8) 0.4944(7) 0.0680(10)
H35 H 0.3458 0.5085 0.0952
C38 C 0.3375(8) 0.5029(6) 0.0124(11)
H36 H 0.3616 0.5240 0.0028
C39 C 0.3121(7) 0.4805(7) -0.0277(9)
H37 H 0.3176 0.4874 -0.0647
C40 C 0.2777(7) 0.4471(7) -0.0123(10)
H38 H 0.2613 0.4301 -0.0392
C41 C 0.1780(8) 0.3640(5) 0.1095(10)
H39 H 0.1585 0.3517 0.0808
H40 H 0.1903 0.3484 0.1160
C42 C 0.1600(7) 0.3687(4) 0.1618(10)
C43 C 0.1624(6) 0.3643(5) 0.2170(12)
H41 H 0.1791 0.3558 0.2297
C44 C 0.1417(8) 0.3719(6) 0.2538(8)
H42 H 0.1445 0.3694 0.2914
C45 C 0.1155(7) 0.3836(6) 0.2343(11)
H43 H 0.1002 0.3883 0.2588
C46 C 0.1131(6) 0.3881(6) 0.1789(13)
H44 H 0.0964 0.3964 0.1656
C47 C 0.1352(9) 0.3805(6) 0.1423(9)
H45 H 0.1332 0.3834 0.1046
C48 C 0.2874(7) 0.5816(7) 0.2741(8)
C49 C 0.2504(5) 0.5432(6) 0.2839(5)
C50 C 0.2406(7) 0.5044(8) 0.2810(8)
C51 C 0.2033(8) 0.4760(6) 0.2930(9)
H46 H 0.1970 0.4500 0.2912
C52 C 0.1748(6) 0.4846(6) 0.3076(9)
H47 H 0.1496 0.4648 0.3154
C53 C 0.1844(6) 0.5234(7) 0.3106(10)
H48 H 0.1657 0.5300 0.3201
C54 C 0.2228(7) 0.5525(5) 0.2989(8)
H49 H 0.2296 0.5786 0.3013
C55 C 0.3491(6) 0.6059(6) 0.2328(9)
H50 H 0.3557 0.5992 0.2681
H51 H 0.3573 0.6334 0.2338
C56 C 0.3718(4) 0.5998(4) 0.1899(9)
C57 C 0.3934(5) 0.5834(5) 0.2042(9)
H52 H 0.3940 0.5761 0.2405
C58 C 0.4149(6) 0.5777(6) 0.1630(11)
H53 H 0.4298 0.5663 0.1717
C59 C 0.4138(6) 0.5888(5) 0.1103(10)
H54 H 0.4284 0.5853 0.0832
C60 C 0.3913(6) 0.6053(6) 0.0965(8)
H55 H 0.3906 0.6127 0.0603
C61 C 0.3701(6) 0.6108(5) 0.1370(9)
H56 H 0.3549 0.6218 0.1284
Pr1A Pr 0.68382(4) 0.81653(6) 0.4657(2)
Pr1B Pr 0.18347(6) 0.86729(4) 0.4657(2)
Pr1N Pr 0.51680(6) 0.53396(4) 0.1324(2)
Pr1D Pr 0.18347(6) 0.31618(4) -0.0343(2)
Pr1L Pr 0.46604(4) 0.98285(4) 0.1324(2)
Pr1C Pr 0.68382(4) 0.86729(4) -0.0343(2)
Pr1M Pr 0.01715(4) 0.48320(6) 0.1324(2)
Pr1E Pr 0.13271(4) 0.81653(6) -0.0343(2)
N1A N 0.6039(6) 0.8523(9) 0.3990(10)
N1B N 0.1477(9) 0.7516(7) 0.3990(10)
H1A H 0.5927 0.8660 0.3946
H1B H 0.1340 0.7267 0.3946
N2A N 0.5437(6) 0.9417(8) 0.2126(10)
N2B N 0.0583(8) 0.6020(6) 0.2126(10)
H2A H 0.5572 0.9378 0.2368
H2B H 0.0622 0.6194 0.2368
N3A N 0.5951(5) 0.8026(9) 0.0942(9)
N3B N 0.1974(9) 0.7925(7) 0.0942(9)
H3A H 0.5748 0.7866 0.1127
H3B H 0.2134 0.7882 0.1127
N4A N 0.4155(6) 0.7233(8) 0.2269(10)
N4B N 0.2767(8) 0.6922(6) 0.2269(10)
H4A H 0.4259 0.7225 0.1961
H4B H 0.2775 0.7034 0.1961
N5A N 0.7411(7) 0.8472(10) 0.3827(10)
N5B N 0.1528(10) 0.8939(7) 0.3827(10)
N6A N 0.7246(7) 0.7940(9) 0.5393(10)
N6B N 0.2060(9) 0.9306(6) 0.5393(10)
N7A N 0.6427(6) 0.7473(8) 0.4082(10)
N7B N 0.2527(8) 0.8954(6) 0.4082(10)
N8A N 0.3620(6) 0.7314(9) 0.4258(10)
N8B N 0.2686(9) 0.6306(7) 0.4258(10)
O1A O 0.6026(5) 0.8663(7) 0.2778(8)
O1B O 0.1337(7) 0.7363(5) 0.2778(8)
O2A O 0.5135(5) 0.8716(8) 0.2583(9)
O2B O 0.1284(8) 0.6419(6) 0.2583(9)
O3A O 0.5456(5) 0.8265(7) 0.1323(8)
O3B O 0.1735(7) 0.7191(5) 0.1323(8)
O4A O 0.4984(5) 0.7642(7) 0.2551(9)
O4B O 0.2358(7) 0.7342(5) 0.2551(9)
O5A O 0.6553(6) 0.8465(8) 0.4200(9)
O5B O 0.1535(8) 0.8088(6) 0.4200(9)
O6A O 0.4992(5) 0.9620(7) 0.1937(9)
O6B O 0.0380(7) 0.5372(5) 0.1937(9)
O6G O 0.1659(5) 0.2953(7) 0.5270(9)
O6H O 0.7047(7) 0.8705(5) 0.5270(9)
O6F O 0.1295(5) 0.8341(5) 0.5270(9)
O7A O 0.6268(5) 0.8316(7) 0.0148(9)
O7B O 0.1684(7) 0.7952(5) 0.0148(9)
O7D O 0.1684(7) 0.3732(5) 0.5148(9)
O7C O 0.6268(5) 0.7952(5) 0.5148(9)
O7E O 0.2048(5) 0.8316(7) 0.5148(9)
O8A O 0.3839(5) 0.6907(8) 0.3022(9)
O8B O 0.3093(8) 0.6932(6) 0.3022(9)
O9A O 0.7147(5) 0.8130(7) 0.3810(8)
O9B O 0.1870(7) 0.9017(5) 0.3810(8)
O10A O 0.7406(5) 0.8708(8) 0.4181(8)
O10B O 0.1292(8) 0.8698(6) 0.4181(8)
O11A O 0.7606(6) 0.8635(8) 0.3395(9)
O11B O 0.1365(8) 0.8971(6) 0.3395(9)
O12A O 0.6957(5) 0.7926(7) 0.5619(8)
O12B O 0.2074(7) 0.9031(5) 0.5619(8)
O13A O 0.7412(5) 0.8164(7) 0.4983(7)
O13B O 0.1836(7) 0.9248(5) 0.4983(7)
O14A O 0.7407(5) 0.7785(7) 0.5656(8)
O14B O 0.2215(7) 0.9622(5) 0.5656(8)
O15A O 0.6667(5) 0.7532(7) 0.4443(8)
O15B O 0.2468(7) 0.9135(5) 0.4443(8)
O16A O 0.6293(5) 0.7693(7) 0.3979(9)
O16B O 0.2307(7) 0.8600(5) 0.3979(9)
O17A O 0.6223(6) 0.7123(8) 0.3899(10)
O17B O 0.2877(8) 0.9100(5) 0.3899(10)
O18A O 0.3745(5) 0.7342(7) 0.3788(9)
O18B O 0.2658(7) 0.6403(5) 0.3788(9)
O19A O 0.3295(5) 0.7011(8) 0.4384(8)
O19B O 0.2989(8) 0.6284(6) 0.4384(8)
O20B O 0.2365(9) 0.6068(7) 0.4479(10)
O20A O 0.3703(6) 0.7635(9) 0.4479(10)
C1A C 0.5419(9) 0.8317(13) 0.2310(13)
C1B C 0.1683(13) 0.7102(9) 0.2310(13)
C2A C 0.5812(5) 0.8651(9) 0.2299(9)
C2B C 0.1349(9) 0.7161(7) 0.2299(9)
H5A H 0.5947 0.8638 0.1974
H5B H 0.1362 0.7309 0.1974
H6A H 0.5799 0.8890 0.2278
H6B H 0.1110 0.6909 0.2278
C3A C 0.5194(7) 0.8413(9) 0.2777(9)
C3B C 0.1587(9) 0.6781(6) 0.2777(9)
H7A H 0.4945 0.8183 0.2857
H7B H 0.1817 0.6762 0.2857
H8A H 0.5347 0.8493 0.3113
H8B H 0.1507 0.6854 0.3113
C4A C 0.5193(6) 0.8255(9) 0.1737(8)
C4B C 0.1745(9) 0.6938(7) 0.1737(8)
H9A H 0.4952 0.8006 0.1733
H9B H 0.1994 0.6946 0.1733
H10A H 0.5133 0.8462 0.1678
H10B H 0.1538 0.6671 0.1678
C5A C 0.5368(6) 0.7928(8) 0.2436(10)
C5B C 0.2072(8) 0.7440(6) 0.2436(10)
H11A H 0.5459 0.7842 0.2124
H11B H 0.2158 0.7617 0.2124
H12A H 0.5529 0.7951 0.2750
H12B H 0.2049 0.7578 0.2750
C6A C 0.6418(7) 0.8658(9) 0.3865(9)
C6B C 0.1342(9) 0.7760(6) 0.3865(9)
C7A C 0.6621(6) 0.8878(7) 0.3375(8)
C7B C 0.1122(7) 0.7743(4) 0.3375(8)
C8A C 0.6424(5) 0.8893(7) 0.2927(9)
C8B C 0.1107(7) 0.7531(5) 0.2927(9)
C9A C 0.6628(6) 0.9107(8) 0.2471(8)
C9B C 0.0893(8) 0.7521(5) 0.2471(8)
H13A H 0.6495 0.9123 0.2166
H13B H 0.0877 0.7372 0.2166
C10A C 0.7034(6) 0.9299(8) 0.2468(9)
C10B C 0.0701(8) 0.7735(6) 0.2468(9)
H14A H 0.7172 0.9437 0.2157
H14B H 0.0563 0.7735 0.2157
C11A C 0.7229(5) 0.9285(7) 0.2923(10)
C11B C 0.0715(7) 0.7944(5) 0.2923(10)
H15A H 0.7500 0.9417 0.2926
H15B H 0.0583 0.8083 0.2926
C12A C 0.7020(5) 0.9069(7) 0.3386(8)
C12B C 0.0931(7) 0.7951(5) 0.3386(8)
H16A H 0.7151 0.9056 0.3696
H16B H 0.0944 0.8095 0.3696
C13A C 0.5839(6) 0.8131(9) 0.4203(10)
C13B C 0.1869(9) 0.7708(7) 0.4203(10)
H17A H 0.5941 0.8116 0.4560
H17B H 0.1884 0.7825 0.4560
H18A H 0.5857 0.7951 0.3951
H18B H 0.2049 0.7906 0.3951
C14A C 0.5428(6) 0.8053(8) 0.4247(7)
C14B C 0.1947(8) 0.7375(6) 0.4247(7)
C15A C 0.5076(8) 0.7775(11) 0.4064(8)
C15B C 0.2225(11) 0.7301(7) 0.4064(8)
H19A H 0.5057 0.7568 0.3858
H19B H 0.2432 0.7489 0.3858
C16A C 0.4743(6) 0.7793(10) 0.4181(9)
C16B C 0.2207(10) 0.6950(8) 0.4181(9)
H20A H 0.4501 0.7602 0.4049
H20B H 0.2398 0.6899 0.4049
C17A C 0.4776(6) 0.8097(8) 0.4492(10)
C17B C 0.1903(8) 0.6679(6) 0.4492(10)
H21A H 0.4554 0.8109 0.4581
H21B H 0.1891 0.6445 0.4581
C18A C 0.5135(8) 0.8383(11) 0.4676(9)
C18B C 0.1617(11) 0.6752(7) 0.4676(9)
H22A H 0.5155 0.8592 0.4877
H22B H 0.1408 0.6563 0.4877
C19A C 0.5468(6) 0.8363(10) 0.4563(8)
C19B C 0.1637(10) 0.7105(8) 0.4563(8)
H23A H 0.5710 0.8551 0.4696
H23B H 0.1449 0.7159 0.4696
C20A C 0.5058(7) 0.9339(9) 0.2182(9)
C20B C 0.0661(9) 0.5719(6) 0.2182(9)
C21A C 0.4890(6) 0.9124(8) 0.2714(7)
C21B C 0.0876(8) 0.5766(5) 0.2714(7)
C22A C 0.4934(6) 0.8830(8) 0.2915(10)
C22B C 0.1170(8) 0.6104(5) 0.2915(10)
C23A C 0.4771(5) 0.8640(8) 0.3410(10)
C23B C 0.1360(8) 0.6131(6) 0.3410(10)
H24A H 0.4805 0.8438 0.3538
H24B H 0.1562 0.6367 0.3538
C24A C 0.4551(6) 0.8771(8) 0.3706(8)
C24B C 0.1229(8) 0.5780(5) 0.3706(8)
H25A H 0.4440 0.8655 0.4041
H25B H 0.1345 0.5785 0.4041
C25A C 0.4501(6) 0.9060(8) 0.3510(9)
C25B C 0.0940(8) 0.5441(6) 0.3510(9)
H26A H 0.4349 0.9137 0.3706
H26B H 0.0863 0.5212 0.3706
C26A C 0.4678(5) 0.9250(8) 0.3006(9)
C26B C 0.0750(8) 0.5428(6) 0.3006(9)
H27A H 0.4651 0.9456 0.2878
H27B H 0.0544 0.5195 0.2878
C27A C 0.5560(7) 0.9578(9) 0.1581(10)
C27B C 0.0422(9) 0.5982(6) 0.1581(10)
H28A H 0.5588 0.9835 0.1569
H28B H 0.0165 0.5753 0.1569
H29A H 0.5360 0.9415 0.1318
H29B H 0.0585 0.5945 0.1318
C28A C 0.5927(5) 0.9607(8) 0.1419(7)
C28B C 0.0393(8) 0.6320(6) 0.1419(7)
C29A C 0.5929(5) 0.9359(8) 0.1037(7)
C29B C 0.0641(8) 0.6570(6) 0.1037(7)
H30A H 0.5697 0.9169 0.0881
H30B H 0.0831 0.6528 0.0881
C30A C 0.6274(7) 0.9389(10) 0.0883(8)
C30B C 0.0611(10) 0.6885(7) 0.0883(8)
H31A H 0.6276 0.9222 0.0615
H31B H 0.0778 0.7054 0.0615
C31A C 0.6622(7) 0.9665(9) 0.1119(10)
C31B C 0.0335(9) 0.6957(6) 0.1119(10)
H32A H 0.6855 0.9678 0.1018
H32B H 0.0322 0.7177 0.1018
C32A C 0.6622(6) 0.9920(8) 0.1503(10)
C32B C 0.0080(8) 0.6702(6) 0.1503(10)
H33A H 0.6855 1.0111 0.1659
H33B H -0.0111 0.6744 0.1659
C33A C 0.6273(5) 0.9888(8) 0.1652(8)
C33B C 0.0112(8) 0.6385(6) 0.1652(8)
H34A H 0.6270 1.0057 0.1914
H34B H -0.0057 0.6213 0.1914
C34A C 0.5941(6) 0.8208(10) 0.0472(10)
C34B C 0.1792(10) 0.7733(8) 0.0472(10)
C35A C 0.5609(6) 0.8289(10) 0.0423(11)
C35B C 0.1711(10) 0.7320(8) 0.0423(11)
C36A C 0.5348(7) 0.8256(11) 0.0826(9)
C36B C 0.1744(11) 0.7092(8) 0.0826(9)
C37A C 0.5056(7) 0.8331(11) 0.0680(10)
C37B C 0.1669(11) 0.6725(8) 0.0680(10)
H35A H 0.4915 0.8373 0.0952
H35B H 0.1627 0.6542 0.0952
C38A C 0.4971(6) 0.8346(10) 0.0124(11)
C38B C 0.1654(10) 0.6625(8) 0.0124(11)
H36A H 0.4760 0.8376 0.0028
H36B H 0.1624 0.6384 0.0028
C39A C 0.5195(7) 0.8316(10) -0.0277(9)
C39B C 0.1684(10) 0.6879(7) -0.0277(9)
H37A H 0.5126 0.8302 -0.0647
H37B H 0.1698 0.6824 -0.0647
C40A C 0.5529(7) 0.8306(10) -0.0123(10)
C40B C 0.1694(10) 0.7223(7) -0.0123(10)
H38A H 0.5699 0.8312 -0.0392
H38B H 0.1688 0.7387 -0.0392
C41A C 0.6360(5) 0.8140(9) 0.1095(10)
C41B C 0.1860(9) 0.8220(8) 0.1095(10)
H39A H 0.6483 0.8068 0.0808
H39B H 0.1932 0.8415 0.0808
H40A H 0.6516 0.8419 0.1160
H40B H 0.1581 0.8097 0.1160
C42A C 0.6313(4) 0.7913(8) 0.1618(10)
C42B C 0.2087(8) 0.8400(7) 0.1618(10)
C43A C 0.6357(5) 0.7981(8) 0.2170(12)
C43B C 0.2019(8) 0.8376(6) 0.2170(12)
H41A H 0.6442 0.8233 0.2297
H41B H 0.1767 0.8209 0.2297
C44A C 0.6281(6) 0.7698(10) 0.2538(8)
C44B C 0.2302(10) 0.8583(8) 0.2538(8)
H42A H 0.6306 0.7751 0.2914
H42B H 0.2249 0.8555 0.2914
C45A C 0.6164(6) 0.7319(9) 0.2343(11)
C45B C 0.2681(9) 0.8845(7) 0.2343(11)
H43A H 0.6117 0.7119 0.2588
H43B H 0.2881 0.8998 0.2588
C46A C 0.6119(6) 0.7250(8) 0.1789(13)
C46B C 0.2750(8) 0.8869(6) 0.1789(13)
H44A H 0.6036 0.7000 0.1656
H44B H 0.3000 0.9036 0.1656
C47A C 0.6195(6) 0.7547(11) 0.1423(9)
C47B C 0.2453(11) 0.8648(9) 0.1423(9)
H45A H 0.6166 0.7498 0.1046
H45B H 0.2502 0.8668 0.1046
C48A C 0.4184(7) 0.7058(10) 0.2741(8)
C48B C 0.2942(10) 0.7126(7) 0.2741(8)
C49A C 0.4568(6) 0.7072(8) 0.2839(5)
C49B C 0.2928(8) 0.7496(5) 0.2839(5)
C50A C 0.4956(8) 0.7362(11) 0.2810(8)
C50B C 0.2638(11) 0.7594(7) 0.2810(8)
C51A C 0.5240(6) 0.7273(10) 0.2930(9)
C51B C 0.2727(10) 0.7967(8) 0.2930(9)
H46A H 0.5500 0.7470 0.2912
H46B H 0.2530 0.8030 0.2912
C52A C 0.5154(6) 0.6902(8) 0.3076(9)
C52B C 0.3098(8) 0.8252(6) 0.3076(9)
H47A H 0.5352 0.6848 0.3154
H47B H 0.3152 0.8504 0.3154
C53A C 0.4766(7) 0.6610(9) 0.3106(10)
C53B C 0.3390(9) 0.8156(6) 0.3106(10)
H48A H 0.4700 0.6357 0.3201
H48B H 0.3643 0.8343 0.3201
C54A C 0.4475(5) 0.6703(9) 0.2989(8)
C54B C 0.3297(9) 0.7772(7) 0.2989(8)
H49A H 0.4214 0.6510 0.3013
H49B H 0.3490 0.7704 0.3013
C55A C 0.3941(6) 0.7432(8) 0.2328(9)
C55B C 0.2568(8) 0.6509(6) 0.2328(9)
H50A H 0.4008 0.7565 0.2681
H50B H 0.2435 0.6443 0.2681
H51A H 0.3666 0.7239 0.2338
H51B H 0.2761 0.6427 0.2338
C56A C 0.4002(4) 0.7720(6) 0.1899(9)
C56B C 0.2280(6) 0.6282(4) 0.1899(9)
C57A C 0.4166(5) 0.8100(7) 0.2042(9)
C57B C 0.1900(7) 0.6066(5) 0.2042(9)
H52A H 0.4239 0.8179 0.2405
H52B H 0.1821 0.6060 0.2405
C58A C 0.4223(6) 0.8372(8) 0.1630(11)
C58B C 0.1628(8) 0.5851(6) 0.1630(11)
H53A H 0.4337 0.8635 0.1717
H53B H 0.1365 0.5702 0.1717
C59A C 0.4112(5) 0.8250(8) 0.1103(10)
C59B C 0.1750(8) 0.5862(6) 0.1103(10)
H54A H 0.4147 0.8431 0.0832
H54B H 0.1569 0.5716 0.0832
C60A C 0.3947(6) 0.7860(8) 0.0965(8)
C60B C 0.2140(8) 0.6087(6) 0.0965(8)
H55A H 0.3873 0.7779 0.0603
H55B H 0.2221 0.6094 0.0603
C61A C 0.3892(5) 0.7593(8) 0.1370(9)
C61B C 0.2407(8) 0.6299(6) 0.1370(9)
H56A H 0.3782 0.7331 0.1284
H56B H 0.2669 0.6451 0.1284
O21 O 0.2204(5) 0.5271(5) 0.0890(8)
C62 C 0.2601(7) 0.5359(8) 0.0894(12)
H57 H 0.2619 0.5144 0.0734
H58 H 0.2694 0.5393 0.1271
C63 C 0.2857(6) 0.5733(6) 0.0563(11)
H59 H 0.2801 0.5682 0.0177
H60 H 0.3127 0.5819 0.0629
H61 H 0.2802 0.5933 0.0677
C64 C 0.2055(8) 0.4990(8) 0.1349(11)
H62 H 0.2213 0.5103 0.1676
H63 H 0.2062 0.4755 0.1253
C65 C 0.1631(7) 0.4892(8) 0.1454(12)
H64 H 0.1616 0.5126 0.1430
H65 H 0.1551 0.4781 0.1814
H66 H 0.1463 0.4709 0.1182
loop_
_geom_bond_atom_site_label_1
_geom_bond_atom_site_label_2
_geom_bond_site_symmetry_1
_geom_bond_site_symmetry_2
Pr1 O5 1_555 1_555
Pr2 O8 1_555 1_555
N1 H1 1_555 1_555
N2 H2 1_555 1_555
N3 H3 1_555 1_555
N4 H4 1_555 1_555
N5 O9 1_555 1_555
N6 O12 1_555 1_555
N7 O15 1_555 1_555
N8 O18 1_555 1_555
O1 C2 1_555 1_555
O2 C3 1_555 1_555
O3 C4 1_555 1_555
O4 C5 1_555 1_555
O5 C6 1_555 1_555
O6 C20 1_555 1_555
O7 C34 1_555 1_555
O8 C48 1_555 1_555
O9 Pr1 1_555 1_555
O10 Pr1 1_555 1_555
O11 N5 1_555 1_555
O12 Pr1 1_555 1_555
O13 Pr1 1_555 1_555
O14 N6 1_555 1_555
O15 Pr1 1_555 1_555
O16 Pr1 1_555 1_555
O17 N7 1_555 1_555
O18 Pr2 1_555 1_555
O19 Pr2 1_555 1_555
O20 N8 1_555 1_555
O21 C62 1_555 1_555
C1 C2 1_555 1_555
C2 H5 1_555 1_555
H6 C2 1_555 1_555
C3 C1 1_555 1_555
H7 C3 1_555 1_555
H8 C3 1_555 1_555
C4 C1 1_555 1_555
H9 C4 1_555 1_555
H10 C4 1_555 1_555
C5 C1 1_555 1_555
H11 C5 1_555 1_555
H12 C5 1_555 1_555
C6 N1 1_555 1_555
C7 C6 1_555 1_555
C8 O1 1_555 1_555
C9 C8 1_555 1_555
H13 C9 1_555 1_555
C10 C9 1_555 1_555
H14 C10 1_555 1_555
C11 C10 1_555 1_555
H15 C11 1_555 1_555
C12 C7 1_555 1_555
H16 C12 1_555 1_555
C13 N1 1_555 1_555
H17 C13 1_555 1_555
H18 C13 1_555 1_555
C14 C13 1_555 1_555
C15 C14 1_555 1_555
H19 C15 1_555 1_555
C16 C15 1_555 1_555
H20 C16 1_555 1_555
C17 C16 1_555 1_555
H21 C17 1_555 1_555
C18 C17 1_555 1_555
H22 C18 1_555 1_555
C19 C14 1_555 1_555
H23 C19 1_555 1_555
C20 N2 1_555 1_555
C21 C20 1_555 1_555
C22 O2 1_555 1_555
C23 C22 1_555 1_555
H24 C23 1_555 1_555
C24 C23 1_555 1_555
H25 C24 1_555 1_555
C25 C24 1_555 1_555
H26 C25 1_555 1_555
C26 C21 1_555 1_555
H27 C26 1_555 1_555
C27 N2 1_555 1_555
H28 C27 1_555 1_555
H29 C27 1_555 1_555
C28 C27 1_555 1_555
C29 C28 1_555 1_555
H30 C29 1_555 1_555
C30 C29 1_555 1_555
H31 C30 1_555 1_555
C31 C30 1_555 1_555
H32 C31 1_555 1_555
C32 C31 1_555 1_555
H33 C32 1_555 1_555
C33 C28 1_555 1_555
H34 C33 1_555 1_555
C34 N3 1_555 1_555
C35 C34 1_555 1_555
C36 O3 1_555 1_555
C37 C36 1_555 1_555
H35 C37 1_555 1_555
C38 C37 1_555 1_555
H36 C38 1_555 1_555
C39 C38 1_555 1_555
H37 C39 1_555 1_555
C40 C35 1_555 1_555
H38 C40 1_555 1_555
C41 N3 1_555 1_555
H39 C41 1_555 1_555
H40 C41 1_555 1_555
C42 C41 1_555 1_555
C43 C42 1_555 1_555
H41 C43 1_555 1_555
C44 C43 1_555 1_555
H42 C44 1_555 1_555
C45 C44 1_555 1_555
H43 C45 1_555 1_555
C46 C45 1_555 1_555
H44 C46 1_555 1_555
C47 C42 1_555 1_555
H45 C47 1_555 1_555
C48 N4 1_555 1_555
C49 C48 1_555 1_555
C50 O4 1_555 1_555
C51 C50 1_555 1_555
H46 C51 1_555 1_555
C52 C51 1_555 1_555
H47 C52 1_555 1_555
C53 C52 1_555 1_555
H48 C53 1_555 1_555
C54 C49 1_555 1_555
H49 C54 1_555 1_555
C55 N4 1_555 1_555
H50 C55 1_555 1_555
H51 C55 1_555 1_555
C56 C55 1_555 1_555
C57 C56 1_555 1_555
H52 C57 1_555 1_555
C58 C57 1_555 1_555
H53 C58 1_555 1_555
C59 C58 1_555 1_555
H54 C59 1_555 1_555
C60 C59 1_555 1_555
H55 C60 1_555 1_555
C61 C56 1_555 1_555
H56 C61 1_555 1_555
C62 H57 1_555 1_555
H58 C62 1_555 1_555
C63 C62 1_555 1_555
H59 C63 1_555 1_555
H60 C63 1_555 1_555
H61 C63 1_555 1_555
C64 O21 1_555 1_555
H62 C64 1_555 1_555
H63 C64 1_555 1_555
C65 C64 1_555 1_555
H64 C65 1_555 1_555
H65 C65 1_555 1_555
H66 C65 1_555 1_555
Pr1A O5A 1_555 1_555
Pr1B O5B 1_555 1_555
Pr1N O6 1_555 1_555
Pr1D O7 1_555 1_555
Pr1L O6A 1_555 1_555
Pr1C O7A 1_555 1_555
Pr1M O6B 1_555 1_555
Pr1E O7B 1_555 1_555
N1A H1A 1_555 1_555
N1B H1B 1_555 1_555
N2A H2A 1_555 1_555
N2B H2B 1_555 1_555
N3A H3A 1_555 1_555
N3B H3B 1_555 1_555
N4A H4A 1_555 1_555
N4B H4B 1_555 1_555
N5A O9A 1_555 1_555
N5B O9B 1_555 1_555
N6A O12A 1_555 1_555
N6B O12B 1_555 1_555
N7A O15A 1_555 1_555
N7B O15B 1_555 1_555
N8A O18A 1_555 1_555
N8B O18B 1_555 1_555
O1A C2A 1_555 1_555
O1B C2B 1_555 1_555
O2A C3A 1_555 1_555
O2B C3B 1_555 1_555
O3A C4A 1_555 1_555
O3B C4B 1_555 1_555
O4A C5A 1_555 1_555
O4B C5B 1_555 1_555
O5A C6A 1_555 1_555
O5B C6B 1_555 1_555
O6A C20A 1_555 1_555
O6B C20B 1_555 1_555
O6G Pr1 1_555 1_555
O6H Pr1A 1_555 1_555
O6F Pr1B 1_555 1_555
O7A C34A 1_555 1_555
O7B C34B 1_555 1_555
O7D Pr1 1_555 1_555
O7C Pr1A 1_555 1_555
O7E Pr1B 1_555 1_555
O8A Pr2 1_555 1_555
O8B Pr2 1_555 1_555
O9A Pr1A 1_555 1_555
O9B Pr1B 1_555 1_555
O10A Pr1A 1_555 1_555
O10B Pr1B 1_555 1_555
O11A N5A 1_555 1_555
O11B N5B 1_555 1_555
O12A Pr1A 1_555 1_555
O12B Pr1B 1_555 1_555
O13A Pr1A 1_555 1_555
O13B Pr1B 1_555 1_555
O14A N6A 1_555 1_555
O14B N6B 1_555 1_555
O15A Pr1A 1_555 1_555
O15B Pr1B 1_555 1_555
O16A Pr1A 1_555 1_555
O16B Pr1B 1_555 1_555
O17A N7A 1_555 1_555
O17B N7B 1_555 1_555
O18A Pr2 1_555 1_555
O18B Pr2 1_555 1_555
O19A Pr2 1_555 1_555
O19B Pr2 1_555 1_555
O20B N8B 1_555 1_555
O20A N8A 1_555 1_555
C1A C2A 1_555 1_555
C1B C2B 1_555 1_555
C2A H5A 1_555 1_555
C2B H5B 1_555 1_555
H6A C2A 1_555 1_555
H6B C2B 1_555 1_555
C3A C1A 1_555 1_555
C3B C1B 1_555 1_555
H7A C3A 1_555 1_555
H7B C3B 1_555 1_555
H8A C3A 1_555 1_555
H8B C3B 1_555 1_555
C4A C1A 1_555 1_555
C4B C1B 1_555 1_555
H9A C4A 1_555 1_555
H9B C4B 1_555 1_555
H10A C4A 1_555 1_555
H10B C4B 1_555 1_555
C5A C1A 1_555 1_555
C5B C1B 1_555 1_555
H11A C5A 1_555 1_555
H11B C5B 1_555 1_555
H12A C5A 1_555 1_555
H12B C5B 1_555 1_555
C6A N1A 1_555 1_555
C6B N1B 1_555 1_555
C7A C6A 1_555 1_555
C7B C6B 1_555 1_555
C8A O1A 1_555 1_555
C8B O1B 1_555 1_555
C9A C8A 1_555 1_555
C9B C8B 1_555 1_555
H13A C9A 1_555 1_555
H13B C9B 1_555 1_555
C10A C9A 1_555 1_555
C10B C9B 1_555 1_555
H14A C10A 1_555 1_555
H14B C10B 1_555 1_555
C11A C10A 1_555 1_555
C11B C10B 1_555 1_555
H15A C11A 1_555 1_555
H15B C11B 1_555 1_555
C12A C7A 1_555 1_555
C12B C7B 1_555 1_555
H16A C12A 1_555 1_555
H16B C12B 1_555 1_555
C13A N1A 1_555 1_555
C13B N1B 1_555 1_555
H17A C13A 1_555 1_555
H17B C13B 1_555 1_555
H18A C13A 1_555 1_555
H18B C13B 1_555 1_555
C14A C13A 1_555 1_555
C14B C13B 1_555 1_555
C15A C14A 1_555 1_555
C15B C14B 1_555 1_555
H19A C15A 1_555 1_555
H19B C15B 1_555 1_555
C16A C15A 1_555 1_555
C16B C15B 1_555 1_555
H20A C16A 1_555 1_555
H20B C16B 1_555 1_555
C17A C16A 1_555 1_555
C17B C16B 1_555 1_555
H21A C17A 1_555 1_555
H21B C17B 1_555 1_555
C18A C17A 1_555 1_555
C18B C17B 1_555 1_555
H22A C18A 1_555 1_555
H22B C18B 1_555 1_555
C19A C14A 1_555 1_555
C19B C14B 1_555 1_555
H23A C19A 1_555 1_555
H23B C19B 1_555 1_555
C20A N2A 1_555 1_555
C20B N2B 1_555 1_555
C21A C20A 1_555 1_555
C21B C20B 1_555 1_555
C22A O2A 1_555 1_555
C22B O2B 1_555 1_555
C23A C22A 1_555 1_555
C23B C22B 1_555 1_555
H24A C23A 1_555 1_555
H24B C23B 1_555 1_555
C24A C23A 1_555 1_555
C24B C23B 1_555 1_555
H25A C24A 1_555 1_555
H25B C24B 1_555 1_555
C25A C24A 1_555 1_555
C25B C24B 1_555 1_555
H26A C25A 1_555 1_555
H26B C25B 1_555 1_555
C26A C21A 1_555 1_555
C26B C21B 1_555 1_555
H27A C26A 1_555 1_555
H27B C26B 1_555 1_555
C27A N2A 1_555 1_555
C27B N2B 1_555 1_555
H28A C27A 1_555 1_555
H28B C27B 1_555 1_555
H29A C27A 1_555 1_555
H29B C27B 1_555 1_555
C28A C27A 1_555 1_555
C28B C27B 1_555 1_555
C29A C28A 1_555 1_555
C29B C28B 1_555 1_555
H30A C29A 1_555 1_555
H30B C29B 1_555 1_555
C30A C29A 1_555 1_555
C30B C29B 1_555 1_555
H31A C30A 1_555 1_555
H31B C30B 1_555 1_555
C31A C30A 1_555 1_555
C31B C30B 1_555 1_555
H32A C31A 1_555 1_555
H32B C31B 1_555 1_555
C32A C31A 1_555 1_555
C32B C31B 1_555 1_555
H33A C32A 1_555 1_555
H33B C32B 1_555 1_555
C33A C28A 1_555 1_555
C33B C28B 1_555 1_555
H34A C33A 1_555 1_555
H34B C33B 1_555 1_555
C34A N3A 1_555 1_555
C34B N3B 1_555 1_555
C35A C34A 1_555 1_555
C35B C34B 1_555 1_555
C36A O3A 1_555 1_555
C36B O3B 1_555 1_555
C37A C36A 1_555 1_555
C37B C36B 1_555 1_555
H35A C37A 1_555 1_555
H35B C37B 1_555 1_555
C38A C37A 1_555 1_555
C38B C37B 1_555 1_555
H36A C38A 1_555 1_555
H36B C38B 1_555 1_555
C39A C38A 1_555 1_555
C39B C38B 1_555 1_555
H37A C39A 1_555 1_555
H37B C39B 1_555 1_555
C40A C35A 1_555 1_555
C40B C35B 1_555 1_555
H38A C40A 1_555 1_555
H38B C40B 1_555 1_555
C41A N3A 1_555 1_555
C41B N3B 1_555 1_555
H39A C41A 1_555 1_555
H39B C41B 1_555 1_555
H40A C41A 1_555 1_555
H40B C41B 1_555 1_555
C42A C41A 1_555 1_555
C42B C41B 1_555 1_555
C43A C42A 1_555 1_555
C43B C42B 1_555 1_555
H41A C43A 1_555 1_555
H41B C43B 1_555 1_555
C44A C43A 1_555 1_555
C44B C43B 1_555 1_555
H42A C44A 1_555 1_555
H42B C44B 1_555 1_555
C45A C44A 1_555 1_555
C45B C44B 1_555 1_555
H43A C45A 1_555 1_555
H43B C45B 1_555 1_555
C46A C45A 1_555 1_555
C46B C45B 1_555 1_555
H44A C46A 1_555 1_555
H44B C46B 1_555 1_555
C47A C42A 1_555 1_555
C47B C42B 1_555 1_555
H45A C47A 1_555 1_555
H45B C47B 1_555 1_555
C48A N4A 1_555 1_555
C48B N4B 1_555 1_555
C49A C48A 1_555 1_555
C49B C48B 1_555 1_555
C50A O4A 1_555 1_555
C50B O4B 1_555 1_555
C51A C50A 1_555 1_555
C51B C50B 1_555 1_555
H46A C51A 1_555 1_555
H46B C51B 1_555 1_555
C52A C51A 1_555 1_555
C52B C51B 1_555 1_555
H47A C52A 1_555 1_555
H47B C52B 1_555 1_555
C53A C52A 1_555 1_555
C53B C52B 1_555 1_555
H48A C53A 1_555 1_555
H48B C53B 1_555 1_555
C54A C49A 1_555 1_555
C54B C49B 1_555 1_555
H49A C54A 1_555 1_555
H49B C54B 1_555 1_555
C55A N4A 1_555 1_555
C55B N4B 1_555 1_555
H50A C55A 1_555 1_555
H50B C55B 1_555 1_555
H51A C55A 1_555 1_555
H51B C55B 1_555 1_555
C56A C55A 1_555 1_555
C56B C55B 1_555 1_555
C57A C56A 1_555 1_555
C57B C56B 1_555 1_555
H52A C57A 1_555 1_555
H52B C57B 1_555 1_555
C58A C57A 1_555 1_555
C58B C57B 1_555 1_555
H53A C58A 1_555 1_555
H53B C58B 1_555 1_555
C59A C58A 1_555 1_555
C59B C58B 1_555 1_555
H54A C59A 1_555 1_555
H54B C59B 1_555 1_555
C60A C59A 1_555 1_555
C60B C59B 1_555 1_555
H55A C60A 1_555 1_555
H55B C60B 1_555 1_555
C61A C56A 1_555 1_555
C61B C56B 1_555 1_555
H56A C61A 1_555 1_555
H56B C61B 1_555 1_555
N5 O10 1_555 1_555
N6 O13 1_555 1_555
N7 O16 1_555 1_555
N8 O19 1_555 1_555
C7 C8 1_555 1_555
C11 C12 1_555 1_555
C18 C19 1_555 1_555
C21 C22 1_555 1_555
C25 C26 1_555 1_555
C32 C33 1_555 1_555
C35 C36 1_555 1_555
C39 C40 1_555 1_555
C46 C47 1_555 1_555
C49 C50 1_555 1_555
C53 C54 1_555 1_555
C60 C61 1_555 1_555
N5A O10A 1_555 1_555
N5B O10B 1_555 1_555
N6A O13A 1_555 1_555
N6B O13B 1_555 1_555
N7A O16A 1_555 1_555
N7B O16B 1_555 1_555
N8A O19A 1_555 1_555
N8B O19B 1_555 1_555
O8A C48A 1_555 1_555
O8B C48B 1_555 1_555
C7A C8A 1_555 1_555
C7B C8B 1_555 1_555
C11A C12A 1_555 1_555
C11B C12B 1_555 1_555
C18A C19A 1_555 1_555
C18B C19B 1_555 1_555
C21A C22A 1_555 1_555
C21B C22B 1_555 1_555
C25A C26A 1_555 1_555
C25B C26B 1_555 1_555
C32A C33A 1_555 1_555
C32B C33B 1_555 1_555
C35A C36A 1_555 1_555
C35B C36B 1_555 1_555
C39A C40A 1_555 1_555
C39B C40B 1_555 1_555
C46A C47A 1_555 1_555
C46B C47B 1_555 1_555
C49A C50A 1_555 1_555
C49B C50B 1_555 1_555
C53A C54A 1_555 1_555
C53B C54B 1_555 1_555
C60A C61A 1_555 1_555
C60B C61B 1_555 1_555

#END
