
#######################################################################
#
#                 Cambridge Crystallographic Data Centre
#                                CCDC 
#
#######################################################################
#
# If this CIF has been generated from an entry in the Cambridge 
# Structural Database, then it will include bibliographic, chemical, 
# crystal, experimental, refinement or atomic coordinate data resulting 
# from the CCDC's data processing and validation procedures.
#
#######################################################################

data_LOQSIU
_symmetry_cell_setting           rhombohedral
_symmetry_space_group_name_H-M   'R 3 c'
_symmetry_Int_Tables_number      161
_space_group_name_Hall           'R 3 -2"c'
loop_
_symmetry_equiv_pos_site_id
_symmetry_equiv_pos_as_xyz
1 x,y,z
2 -y,x-y,z
3 -x+y,-x,z
4 -y,-x,1/2+z
5 -x+y,y,1/2+z
6 x,x-y,1/2+z
7 2/3+x,1/3+y,1/3+z
8 2/3-y,1/3+x-y,1/3+z
9 2/3-x+y,1/3-x,1/3+z
10 2/3-y,1/3-x,5/6+z
11 2/3-x+y,1/3+y,5/6+z
12 2/3+x,1/3+x-y,5/6+z
13 1/3+x,2/3+y,2/3+z
14 1/3-y,2/3+x-y,2/3+z
15 1/3-x+y,2/3-x,2/3+z
16 1/3-y,2/3-x,1/6+z
17 1/3-x+y,2/3+y,1/6+z
18 1/3+x,2/3+x-y,1/6+z
_cell_length_a                   39.604(9)
_cell_length_b                   39.604(9)
_cell_length_c                   24.300(15)
_cell_angle_alpha                90
_cell_angle_beta                 90
_cell_angle_gamma                120
_cell_volume                     33007.7
loop_
_atom_site_label
_atom_site_type_symbol
_atom_site_fract_x
_atom_site_fract_y
_atom_site_fract_z
Eu1 Eu 0.86575(2) 0.68288(3) 0.53473(6)
Eu2 Eu 0.6667 0.3333 0.63695(7)
N1 N 0.7526(7) 0.6046(7) 0.6060(11)
H1 H 0.7321 0.5942 0.6265
N2 N 0.5991(6) 0.5491(6) 0.7939(10)
H2 H 0.6176 0.5620 0.7708
N3 N 0.7940(7) 0.5945(6) 0.9046(9)
H3 H 0.7873 0.5731 0.8875
N4 N 0.6860(7) 0.4184(6) 0.7638(11)
H4 H 0.6959 0.4385 0.7849
N5 N 0.8886(7) 0.7413(6) 0.6191(8)
N6 N 0.9291(5) 0.7266(6) 0.4626(9)
N7 N 0.8998(5) 0.6413(6) 0.5859(9)
N8 N 0.6214(7) 0.3561(6) 0.5752(9)
O1 O 0.7361(4) 0.6020(4) 0.7189(7)
O2 O 0.6418(4) 0.5182(4) 0.7402(7)
O3 O 0.7209(4) 0.5458(4) 0.8672(7)
O4 O 0.7352(4) 0.4997(4) 0.7450(7)
O5 O 0.8082(5) 0.6557(4) 0.5860(8)
O6 O 0.5385(4) 0.4975(4) 0.8107(7)
O7 O 0.7921(5) 0.6264(5) 0.9806(8)
O8 O 0.6949(4) 0.3871(4) 0.6973(7)
O9 O 0.8958(6) 0.7142(5) 0.6257(8)
O10 O 0.8692(5) 0.7411(5) 0.5785(6)
O11 O 0.8915(7) 0.7629(6) 0.6595(8)
O12 O 0.9030(4) 0.6939(4) 0.4485(7)
O13 O 0.9273(5) 0.7420(5) 0.5063(7)
O14 O 0.9607(6) 0.7424(7) 0.4353(11)
O15 O 0.9170(5) 0.6641(5) 0.5467(8)
O16 O 0.8648(4) 0.6325(5) 0.5972(7)
O17 O 0.9124(6) 0.6202(7) 0.6038(10)
O18 O 0.6412(5) 0.3765(4) 0.6150(7)
O19 O 0.6194(7) 0.3240(5) 0.5661(9)
O20 O 0.6123(8) 0.3717(6) 0.5377(10)
C1 C 0.7076(5) 0.5407(5) 0.7693(9)
C2 C 0.7166(7) 0.5834(6) 0.7718(10)
H5 H 0.6927 0.5842 0.7761
H6 H 0.7336 0.5968 0.8027
C3 C 0.6781(6) 0.5208(6) 0.7239(10)
H7 H 0.6874 0.5356 0.6901
H8 H 0.6742 0.4949 0.7176
C4 C 0.6905(7) 0.5206(7) 0.8214(10)
H9 H 0.6864 0.4944 0.8208
H10 H 0.6657 0.5193 0.8280
C5 C 0.7479(6) 0.5426(6) 0.7593(11)
H11 H 0.7621 0.5600 0.7291
H12 H 0.7640 0.5512 0.7921
C6 C 0.7787(8) 0.6378(7) 0.6150(12)
C7 C 0.7747(7) 0.6607(6) 0.6722(10)
C8 C 0.7526(7) 0.6435(6) 0.7169(8)
C9 C 0.7503(7) 0.6643(5) 0.7582(10)
H13 H 0.7366 0.6520 0.7900
C10 C 0.7682(7) 0.7035(6) 0.7536(10)
H14 H 0.7649 0.7184 0.7804
C11 C 0.7905(8) 0.7202(7) 0.7103(9)
H15 H 0.8054 0.7473 0.7089
C12 C 0.7922(7) 0.6994(6) 0.6683(10)
H16 H 0.8057 0.7119 0.6365
C13 C 0.7557(8) 0.5846(6) 0.5649(14)
H17 H 0.7811 0.5865 0.5669
H18 H 0.7546 0.5965 0.5306
C14 C 0.7245(6) 0.5416(5) 0.5637(12)
C15 C 0.7294(6) 0.5124(7) 0.5867(13)
H19 H 0.7533 0.5180 0.6015
C16 C 0.6988(8) 0.4755(6) 0.5872(13)
H20 H 0.7006 0.4565 0.6073
C17 C 0.6657(7) 0.4657(6) 0.5595(13)
H21 H 0.6448 0.4403 0.5609
C18 C 0.6631(7) 0.4933(7) 0.5296(13)
H22 H 0.6429 0.4864 0.5048
C19 C 0.6906(7) 0.5308(6) 0.5368(12)
H23 H 0.6862 0.5501 0.5227
C20 C 0.5695(6) 0.5126(7) 0.7833(12)
C21 C 0.5742(7) 0.4902(6) 0.7310(10)
C22 C 0.6081(7) 0.4944(6) 0.7102(9)
C23 C 0.6085(7) 0.4761(7) 0.6641(10)
H24 H 0.6320 0.4794 0.6505
C24 C 0.5748(7) 0.4530(7) 0.6377(11)
H25 H 0.5749 0.4411 0.6047
C25 C 0.5422(7) 0.4475(7) 0.6587(10)
H26 H 0.5189 0.4299 0.6419
C26 C 0.5414(6) 0.4663(7) 0.7034(9)
H27 H 0.5176 0.4628 0.7158
C27 C 0.5973(8) 0.5652(9) 0.8477(11)
H28 H 0.5899 0.5455 0.8761
H29 H 0.5781 0.5736 0.8469
C28 C 0.6374(6) 0.5995(8) 0.8597(12)
C29 C 0.6624(6) 0.5978(8) 0.8974(12)
H30 H 0.6564 0.5744 0.9144
C30 C 0.6960(7) 0.6310(8) 0.9092(12)
H31 H 0.7151 0.6296 0.9297
C31 C 0.7024(6) 0.6662(9) 0.8915(13)
H32 H 0.7235 0.6889 0.9052
C32 C 0.6785(6) 0.6684(8) 0.8543(13)
H33 H 0.6837 0.6923 0.8400
C33 C 0.6466(7) 0.6348(7) 0.8383(11)
H34 H 0.6303 0.6359 0.8115
C34 C 0.7754(8) 0.5964(7) 0.9499(10)
C35 C 0.7338(8) 0.5622(6) 0.9596(8)
C36 C 0.7086(7) 0.5359(6) 0.9219(7)
C37 C 0.6733(8) 0.5060(6) 0.9361(7)
H35 H 0.6555 0.4907 0.9091
C38 C 0.6637(8) 0.4983(6) 0.9914(8)
H36 H 0.6422 0.4752 1.0029
C39 C 0.6873(7) 0.5261(6) 1.0278(7)
H37 H 0.6787 0.5245 1.0639
C40 C 0.7221(8) 0.5555(6) 1.0139(7)
H38 H 0.7387 0.5717 1.0412
C41 C 0.8265(8) 0.6322(6) 0.8871(10)
H39 H 0.8171 0.6501 0.8793
H40 H 0.8458 0.6432 0.9162
C42 C 0.8441(7) 0.6259(7) 0.8369(8)
C43 C 0.8378(6) 0.6444(8) 0.7938(11)
H41 H 0.8238 0.6573 0.7992
C44 C 0.8520(7) 0.6439(8) 0.7438(9)
H42 H 0.8487 0.6574 0.7150
C45 C 0.8712(8) 0.6238(9) 0.7347(9)
H43 H 0.8769 0.6198 0.6990
C46 C 0.8822(6) 0.6099(9) 0.7784(11)
H44 H 0.8998 0.6010 0.7739
C47 C 0.8669(7) 0.6093(8) 0.8283(9)
H45 H 0.8720 0.5974 0.8576
C48 C 0.7059(7) 0.4142(7) 0.7268(12)
C49 C 0.7506(6) 0.4548(5) 0.7117(11)
C50 C 0.7632(6) 0.4929(5) 0.7233(11)
C51 C 0.7994(6) 0.5209(6) 0.7129(12)
H46 H 0.8072 0.5470 0.7188
C52 C 0.8243(7) 0.5101(6) 0.6934(12)
H47 H 0.8508 0.5283 0.6926
C53 C 0.8124(6) 0.4742(5) 0.6753(11)
H48 H 0.8281 0.4687 0.6530
C54 C 0.7770(6) 0.4467(6) 0.6903(10)
H49 H 0.7703 0.4208 0.6859
C55 C 0.6477(9) 0.3892(8) 0.7690(14)
H50 H 0.6466 0.3647 0.7775
H51 H 0.6341 0.3861 0.7346
C56 C 0.6280(8) 0.4000(8) 0.8159(10)
C57 C 0.6033(8) 0.4136(8) 0.8005(9)
H52 H 0.6000 0.4172 0.7635
C58 C 0.5842(7) 0.4214(8) 0.8387(12)
H53 H 0.5674 0.4301 0.8277
C59 C 0.5884(8) 0.4172(8) 0.8929(11)
H54 H 0.5766 0.4251 0.9189
C60 C 0.6104(9) 0.4012(8) 0.9090(9)
H55 H 0.6114 0.3954 0.9458
C61 C 0.6305(8) 0.3940(8) 0.8708(12)
H56 H 0.6468 0.3847 0.8822
Eu1A Eu 0.31712(3) 0.18287(4) 0.53473(6)
Eu1B Eu 0.81713(4) 0.13425(2) 0.53473(6)
Eu1C Eu 0.31712(3) 0.13425(2) 1.03473(6)
Eu1D Eu 0.81713(4) 0.68288(3) 1.03473(6)
Eu1E Eu 0.86575(2) 0.18287(4) 1.03473(6)
Eu1F Eu 0.53242(2) 0.01621(3) 0.86806(6)
Eu1G Eu 0.98379(3) 0.51620(4) 0.86806(6)
Eu1H Eu 0.48380(4) 0.46758(2) 0.86806(6)
N1A N 0.3954(7) 0.1480(10) 0.6060(11)
N1B N 0.8520(10) 0.2474(7) 0.6060(11)
H1A H 0.4058 0.1379 0.6265
H1B H 0.8621 0.2679 0.6265
N2A N 0.4509(6) 0.0500(8) 0.7939(10)
N2B N 0.9500(8) 0.4009(6) 0.7939(10)
H2A H 0.4380 0.0556 0.7708
H2B H 0.9444 0.3824 0.7708
N3A N 0.4055(6) 0.1995(9) 0.9046(9)
N3B N 0.8005(9) 0.2060(7) 0.9046(9)
H3A H 0.4269 0.2142 0.8875
H3B H 0.7858 0.2127 0.8875
N4A N 0.5816(6) 0.2676(9) 0.7638(11)
N4B N 0.7324(9) 0.3140(7) 0.7638(11)
H4A H 0.5615 0.2574 0.7849
H4B H 0.7426 0.3041 0.7849
N5A N 0.2587(6) 0.1473(9) 0.6191(8)
N5B N 0.8527(9) 0.1114(7) 0.6191(8)
N6A N 0.2734(6) 0.2025(8) 0.4626(9)
N6B N 0.7975(8) 0.0709(5) 0.4626(9)
N7A N 0.3587(6) 0.2585(8) 0.5859(9)
N7B N 0.7415(8) 0.1002(5) 0.5859(9)
N8A N 0.6439(6) 0.2653(9) 0.5752(9)
N8B N 0.7347(9) 0.3786(7) 0.5752(9)
O1A O 0.3980(4) 0.1341(6) 0.7189(7)
O1B O 0.8659(6) 0.2639(4) 0.7189(7)
O2A O 0.4818(4) 0.1236(6) 0.7402(7)
O2B O 0.8764(6) 0.3582(4) 0.7402(7)
O3A O 0.4542(4) 0.1751(6) 0.8672(7)
O3B O 0.8249(6) 0.2791(4) 0.8672(7)
O4A O 0.5003(4) 0.2355(6) 0.7450(7)
O4B O 0.7645(6) 0.2648(4) 0.7450(7)
O5A O 0.3443(4) 0.1525(6) 0.5860(8)
O5B O 0.8475(6) 0.1918(5) 0.5860(8)
O6A O 0.5025(4) 0.0410(6) 0.8107(7)
O6B O 0.9590(6) 0.4615(4) 0.8107(7)
O6L O 0.8718(4) 0.1642(4) 0.4774(7)
O6M O 0.8358(4) 0.7077(6) 0.4774(7)
O6N O 0.2923(6) 0.1282(4) 0.4774(7)
O7A O 0.3736(5) 0.1657(7) 0.9806(8)
O7B O 0.8343(7) 0.2079(5) 0.9806(8)
O7C O 0.3736(5) 0.2079(5) 0.4806(8)
O7D O 0.8343(7) 0.6264(5) 0.4806(8)
O7E O 0.7921(5) 0.1657(7) 0.4806(8)
O8A O 0.6129(4) 0.3078(6) 0.6973(7)
O8B O 0.6922(6) 0.3051(4) 0.6973(7)
O9A O 0.2858(5) 0.1816(8) 0.6257(8)
O9B O 0.8184(8) 0.1042(6) 0.6257(8)
O10A O 0.2589(5) 0.1281(7) 0.5785(6)
O10B O 0.8719(7) 0.1308(5) 0.5785(6)
O11A O 0.2371(6) 0.1286(9) 0.6595(8)
O11B O 0.8714(9) 0.1085(7) 0.6595(8)
O12A O 0.3061(4) 0.2091(6) 0.4485(7)
O12B O 0.7909(6) 0.0970(4) 0.4485(7)
O13A O 0.2580(5) 0.1853(7) 0.5063(7)
O13B O 0.8147(7) 0.0727(5) 0.5063(7)
O14A O 0.2576(7) 0.2183(9) 0.4353(11)
O14B O 0.7817(9) 0.0393(6) 0.4353(11)
O15A O 0.3359(5) 0.2529(7) 0.5467(8)
O15B O 0.7471(7) 0.0830(5) 0.5467(8)
O16A O 0.3675(5) 0.2323(6) 0.5972(7)
O16B O 0.7677(6) 0.1352(4) 0.5972(7)
O17A O 0.3798(7) 0.2922(9) 0.6038(10)
O17B O 0.7078(9) 0.0876(6) 0.6038(10)
O18A O 0.6235(4) 0.2647(6) 0.6150(7)
O18B O 0.7353(6) 0.3588(5) 0.6150(7)
O19A O 0.6760(5) 0.2954(9) 0.5661(9)
O19B O 0.7046(9) 0.3806(7) 0.5661(9)
O20A O 0.6283(6) 0.2406(10) 0.5377(10)
O20B O 0.7594(10) 0.3877(8) 0.5377(10)
C1A C 0.4593(5) 0.1669(7) 0.7693(9)
C1B C 0.8331(7) 0.2924(5) 0.7693(9)
C2A C 0.4166(6) 0.1332(9) 0.7718(10)
C2B C 0.8668(9) 0.2834(7) 0.7718(10)
H5A H 0.4158 0.1085 0.7761
H5B H 0.8915 0.3073 0.7761
H6A H 0.4032 0.1368 0.8027
H6B H 0.8632 0.2664 0.8027
C3A C 0.4792(6) 0.1573(8) 0.7239(10)
C3B C 0.8427(8) 0.3219(6) 0.7239(10)
H7A H 0.4644 0.1518 0.6901
H7B H 0.8482 0.3126 0.6901
H8A H 0.5051 0.1793 0.7176
H8B H 0.8207 0.3258 0.7176
C4A C 0.4794(7) 0.1699(10) 0.8214(10)
C4B C 0.8301(10) 0.3095(7) 0.8214(10)
H9A H 0.5056 0.1920 0.8208
H9B H 0.8080 0.3136 0.8208
H10A H 0.4807 0.1464 0.8280
H10B H 0.8536 0.3343 0.8280
C5A C 0.4574(6) 0.2053(8) 0.7593(11)
C5B C 0.7947(8) 0.2521(6) 0.7593(11)
H11A H 0.4400 0.2021 0.7291
H11B H 0.7979 0.2379 0.7291
H12A H 0.4488 0.2128 0.7921
H12B H 0.7872 0.2360 0.7921
C6A C 0.3622(7) 0.1409(11) 0.6150(12)
C6B C 0.8591(11) 0.2213(8) 0.6150(12)
C7A C 0.3393(6) 0.1140(9) 0.6722(10)
C7B C 0.8860(9) 0.2253(7) 0.6722(10)
C8A C 0.3565(6) 0.1091(9) 0.7169(8)
C8B C 0.8909(9) 0.2474(7) 0.7169(8)
C9A C 0.3357(5) 0.0860(9) 0.7582(10)
C9B C 0.9140(9) 0.2497(7) 0.7582(10)
H13A H 0.3480 0.0846 0.7900
H13B H 0.9154 0.2634 0.7900
C10A C 0.2965(6) 0.0647(9) 0.7536(10)
C10B C 0.9353(9) 0.2318(7) 0.7536(10)
H14A H 0.2816 0.0465 0.7804
H14B H 0.9535 0.2351 0.7804
C11A C 0.2798(7) 0.0703(11) 0.7103(9)
C11B C 0.9297(11) 0.2095(8) 0.7103(9)
H15A H 0.2527 0.0581 0.7089
H15B H 0.9419 0.1946 0.7089
C12A C 0.3006(6) 0.0928(9) 0.6683(10)
C12B C 0.9072(9) 0.2078(7) 0.6683(10)
H16A H 0.2881 0.0938 0.6365
H16B H 0.9062 0.1943 0.6365
C13A C 0.4154(6) 0.1711(10) 0.5649(14)
C13B C 0.8289(10) 0.2443(8) 0.5649(14)
H17A H 0.4135 0.1946 0.5669
H17B H 0.8054 0.2189 0.5669
H18A H 0.4035 0.1581 0.5306
H18B H 0.8419 0.2454 0.5306
C14A C 0.4584(5) 0.1829(8) 0.5637(12)
C14B C 0.8171(8) 0.2755(6) 0.5637(12)
C15A C 0.4876(7) 0.2170(9) 0.5867(13)
C15B C 0.7830(9) 0.2706(6) 0.5867(13)
H19A H 0.4820 0.2353 0.6015
H19B H 0.7647 0.2467 0.6015
C16A C 0.5245(6) 0.2233(10) 0.5872(13)
C16B C 0.7767(10) 0.3012(8) 0.5872(13)
H20A H 0.5435 0.2441 0.6073
H20B H 0.7559 0.2994 0.6073
C17A C 0.5343(6) 0.2000(9) 0.5595(13)
C17B C 0.8000(9) 0.3343(7) 0.5595(13)
H21A H 0.5597 0.2045 0.5609
H21B H 0.7955 0.3552 0.5609
C18A C 0.5067(7) 0.1698(10) 0.5296(13)
C18B C 0.8302(10) 0.3369(7) 0.5296(13)
H22A H 0.5136 0.1565 0.5048
H22B H 0.8435 0.3571 0.5048
C19A C 0.4692(6) 0.1598(9) 0.5368(12)
C19B C 0.8402(9) 0.3094(7) 0.5368(12)
H23A H 0.4499 0.1361 0.5227
H23B H 0.8639 0.3138 0.5227
C20A C 0.4874(7) 0.0569(9) 0.7833(12)
C20B C 0.9431(9) 0.4305(6) 0.7833(12)
C21A C 0.5098(6) 0.0840(9) 0.7310(10)
C21B C 0.9160(9) 0.4258(7) 0.7310(10)
C22A C 0.5056(6) 0.1137(9) 0.7102(9)
C22B C 0.8863(9) 0.3919(7) 0.7102(9)
C23A C 0.5239(7) 0.1324(10) 0.6641(10)
C23B C 0.8676(10) 0.3915(7) 0.6641(10)
H24A H 0.5206 0.1526 0.6505
H24B H 0.8474 0.3680 0.6505
C24A C 0.5470(7) 0.1218(10) 0.6377(11)
C24B C 0.8782(10) 0.4252(7) 0.6377(11)
H25A H 0.5589 0.1338 0.6047
H25B H 0.8662 0.4251 0.6047
C25A C 0.5525(7) 0.0947(10) 0.6587(10)
C25B C 0.9053(10) 0.4578(7) 0.6587(10)
H26A H 0.5701 0.0890 0.6419
H26B H 0.9110 0.4811 0.6419
C26A C 0.5337(7) 0.0751(9) 0.7034(9)
C26B C 0.9249(9) 0.4586(6) 0.7034(9)
H27A H 0.5372 0.0548 0.7158
H27B H 0.9452 0.4824 0.7158
C27A C 0.4348(9) 0.0321(12) 0.8477(11)
C27B C 0.9679(12) 0.4027(8) 0.8477(11)
H28A H 0.4545 0.0444 0.8761
H28B H 0.9556 0.4101 0.8761
H29A H 0.4264 0.0045 0.8469
H29B H 0.9955 0.4219 0.8469
C28A C 0.4005(8) 0.0379(10) 0.8597(12)
C28B C 0.9621(10) 0.3626(6) 0.8597(12)
C29A C 0.4022(8) 0.0646(10) 0.8974(12)
C29B C 0.9354(10) 0.3376(6) 0.8974(12)
H30A H 0.4256 0.0820 0.9144
H30B H 0.9180 0.3436 0.9144
C30A C 0.3690(8) 0.0650(11) 0.9092(12)
C30B C 0.9350(11) 0.3040(7) 0.9092(12)
H31A H 0.3704 0.0855 0.9297
H31B H 0.9145 0.2849 0.9297
C31A C 0.3338(9) 0.0362(11) 0.8915(13)
C31B C 0.9638(11) 0.2976(6) 0.8915(13)
H32A H 0.3111 0.0346 0.9052
H32B H 0.9654 0.2765 0.9052
C32A C 0.3316(8) 0.0101(10) 0.8543(13)
C32B C 0.9899(10) 0.3215(6) 0.8543(13)
H33A H 0.3077 -0.0086 0.8400
H33B H 1.0086 0.3163 0.8400
C33A C 0.3652(7) 0.0118(10) 0.8383(11)
C33B C 0.9882(10) 0.3534(7) 0.8383(11)
H34A H 0.3641 -0.0056 0.8115
H34B H 1.0056 0.3697 0.8115
C34A C 0.4036(7) 0.1790(11) 0.9499(10)
C34B C 0.8210(11) 0.2246(8) 0.9499(10)
C35A C 0.4378(6) 0.1716(10) 0.9596(8)
C35B C 0.8284(10) 0.2662(8) 0.9596(8)
C36A C 0.4641(6) 0.1727(9) 0.9219(7)
C36B C 0.8273(9) 0.2914(7) 0.9219(7)
C37A C 0.4940(6) 0.1673(10) 0.9361(7)
C37B C 0.8327(10) 0.3267(8) 0.9361(7)
H35A H 0.5093 0.1648 0.9091
H35B H 0.8352 0.3445 0.9091
C38A C 0.5017(6) 0.1654(10) 0.9914(8)
C38B C 0.8346(10) 0.3363(8) 0.9914(8)
H36A H 0.5248 0.1670 1.0029
H36B H 0.8330 0.3578 1.0029
C39A C 0.4739(6) 0.1612(9) 1.0278(7)
C39B C 0.8388(9) 0.3127(7) 1.0278(7)
H37A H 0.4755 0.1542 1.0639
H37B H 0.8458 0.3213 1.0639
C40A C 0.4445(6) 0.1666(10) 1.0139(7)
C40B C 0.8334(10) 0.2779(8) 1.0139(7)
H38A H 0.4283 0.1670 1.0412
H38B H 0.8330 0.2613 1.0412
C41A C 0.3678(6) 0.1943(10) 0.8871(10)
C41B C 0.8057(10) 0.1735(8) 0.8871(10)
H39A H 0.3499 0.1670 0.8793
H39B H 0.8330 0.1829 0.8793
H40A H 0.3568 0.2026 0.9162
H40B H 0.7974 0.1542 0.9162
C42A C 0.3741(7) 0.2182(10) 0.8369(8)
C42B C 0.7818(10) 0.1559(7) 0.8369(8)
C43A C 0.3556(8) 0.1934(10) 0.7938(11)
C43B C 0.8066(10) 0.1622(6) 0.7938(11)
H41A H 0.3427 0.1665 0.7992
H41B H 0.8335 0.1762 0.7992
C44A C 0.3561(8) 0.2081(11) 0.7438(9)
C44B C 0.7919(11) 0.1480(7) 0.7438(9)
H42A H 0.3426 0.1913 0.7150
H42B H 0.8087 0.1513 0.7150
C45A C 0.3762(9) 0.2474(12) 0.7347(9)
C45B C 0.7526(12) 0.1288(8) 0.7347(9)
H43A H 0.3802 0.2571 0.6990
H43B H 0.7429 0.1231 0.6990
C46A C 0.3901(9) 0.2723(11) 0.7784(11)
C46B C 0.7277(11) 0.1178(6) 0.7784(11)
H44A H 0.3990 0.2988 0.7739
H44B H 0.7012 0.1002 0.7739
C47A C 0.3907(8) 0.2576(11) 0.8283(9)
C47B C 0.7424(11) 0.1331(7) 0.8283(9)
H45A H 0.4026 0.2746 0.8576
H45B H 0.7254 0.1280 0.8576
C48A C 0.5858(7) 0.2917(10) 0.7268(12)
C48B C 0.7083(10) 0.2941(7) 0.7268(12)
C49A C 0.5452(5) 0.2958(8) 0.7117(11)
C49B C 0.7042(8) 0.2494(6) 0.7117(11)
C50A C 0.5071(5) 0.2703(8) 0.7233(11)
C50B C 0.7297(8) 0.2368(6) 0.7233(11)
C51A C 0.4791(6) 0.2785(8) 0.7129(12)
C51B C 0.7215(8) 0.2006(6) 0.7129(12)
H46A H 0.4530 0.2602 0.7188
H46B H 0.7398 0.1928 0.7188
C52A C 0.4899(6) 0.3142(9) 0.6934(12)
C52B C 0.6858(9) 0.1757(7) 0.6934(12)
H47A H 0.4717 0.3225 0.6926
H47B H 0.6775 0.1492 0.6926
C53A C 0.5258(5) 0.3382(8) 0.6753(11)
C53B C 0.6618(8) 0.1876(6) 0.6753(11)
H48A H 0.5313 0.3594 0.6530
H48B H 0.6406 0.1719 0.6530
C54A C 0.5533(6) 0.3303(8) 0.6903(10)
C54B C 0.6697(8) 0.2230(6) 0.6903(10)
H49A H 0.5792 0.3495 0.6859
H49B H 0.6505 0.2297 0.6859
C55A C 0.6108(8) 0.2585(12) 0.7690(14)
C55B C 0.7415(12) 0.3523(9) 0.7690(14)
H50A H 0.6353 0.2819 0.7775
H50B H 0.7181 0.3534 0.7775
H51A H 0.6139 0.2480 0.7346
H51B H 0.7520 0.3659 0.7346
C56A C 0.6000(8) 0.2280(11) 0.8159(10)
C56B C 0.7720(11) 0.3720(8) 0.8159(10)
C57A C 0.5864(8) 0.1897(11) 0.8005(9)
C57B C 0.8103(11) 0.3967(8) 0.8005(9)
H52A H 0.5828 0.1828 0.7635
H52B H 0.8172 0.4000 0.7635
C58A C 0.5786(8) 0.1628(11) 0.8387(12)
C58B C 0.8372(11) 0.4158(7) 0.8387(12)
H53A H 0.5699 0.1373 0.8277
H53B H 0.8627 0.4326 0.8277
C59A C 0.5828(8) 0.1712(11) 0.8929(11)
C59B C 0.8288(11) 0.4116(8) 0.8929(11)
H54A H 0.5749 0.1515 0.9189
H54B H 0.8485 0.4234 0.9189
C60A C 0.5988(8) 0.2092(12) 0.9090(9)
C60B C 0.7908(12) 0.3896(9) 0.9090(9)
H55A H 0.6046 0.2160 0.9458
H55B H 0.7840 0.3886 0.9458
C61A C 0.6060(8) 0.2365(11) 0.8708(12)
C61B C 0.7635(11) 0.3695(8) 0.8708(12)
H56A H 0.6153 0.2621 0.8822
H56B H 0.7379 0.3532 0.8822
O21 O 0.7767(5) 0.4725(6) 0.9088(10)
C62 C 0.7373(7) 0.4651(9) 0.9156(14)
H57 H 0.7241 0.4579 0.8804
H58 H 0.7380 0.4887 0.9282
C63 C 0.7147(7) 0.4324(9) 0.9570(14)
H59 H 0.7093 0.4080 0.9413
H60 H 0.6906 0.4315 0.9659
H61 H 0.7299 0.4373 0.9899
C64 C 0.7966(8) 0.4979(9) 0.8628(12)
H62 H 0.7988 0.5231 0.8689
H63 H 0.7816 0.4868 0.8295
C65 C 0.8370(7) 0.5030(10) 0.8557(15)
H64 H 0.8486 0.5052 0.8912
H65 H 0.8530 0.5262 0.8347
H66 H 0.8350 0.4808 0.8366
O22 O 0.9689(11) 0.6089(9) 0.1296(14)
C66 C 0.9680(12) 0.6271(12) 0.1808(16)
H67 H 0.9648 0.6097 0.2110
H68 H 0.9457 0.6308 0.1807
C67 C 1.0044(11) 0.6658(10) 0.1905(16)
H69 H 1.0250 0.6616 0.2028
H70 H 0.9993 0.6801 0.2181
H71 H 1.0120 0.6805 0.1569
C68 C 0.9363(12) 0.5709(12) 0.115(2)
H72 H 0.9138 0.5735 0.1066
H73 H 0.9297 0.5535 0.1464
C69 C 0.9455(17) 0.5528(11) 0.0656(19)
H74 H 0.9418 0.5635 0.0322
H75 H 0.9284 0.5251 0.0658
H76 H 0.9720 0.5585 0.0678
loop_
_geom_bond_atom_site_label_1
_geom_bond_atom_site_label_2
_geom_bond_site_symmetry_1
_geom_bond_site_symmetry_2
Eu1 O5 1_555 1_555
Eu2 O8 1_555 1_555
N1 H1 1_555 1_555
N2 H2 1_555 1_555
N3 H3 1_555 1_555
N4 H4 1_555 1_555
N5 O9 1_555 1_555
N6 O12 1_555 1_555
N7 O15 1_555 1_555
N8 O18 1_555 1_555
O1 C2 1_555 1_555
O2 C3 1_555 1_555
O3 C4 1_555 1_555
O4 C5 1_555 1_555
O5 C6 1_555 1_555
O6 C20 1_555 1_555
O7 C34 1_555 1_555
O8 C48 1_555 1_555
O9 Eu1 1_555 1_555
O10 Eu1 1_555 1_555
O11 N5 1_555 1_555
O12 Eu1 1_555 1_555
O13 Eu1 1_555 1_555
O14 N6 1_555 1_555
O15 Eu1 1_555 1_555
O16 Eu1 1_555 1_555
O17 N7 1_555 1_555
O18 Eu2 1_555 1_555
O19 Eu2 1_555 1_555
O20 N8 1_555 1_555
O21 C62 1_555 1_555
O22 C66 1_555 1_555
C1 C2 1_555 1_555
C2 H5 1_555 1_555
H6 C2 1_555 1_555
C3 C1 1_555 1_555
H7 C3 1_555 1_555
H8 C3 1_555 1_555
C4 C1 1_555 1_555
H9 C4 1_555 1_555
H10 C4 1_555 1_555
C5 C1 1_555 1_555
H11 C5 1_555 1_555
H12 C5 1_555 1_555
C6 N1 1_555 1_555
C7 C6 1_555 1_555
C8 O1 1_555 1_555
C9 C8 1_555 1_555
H13 C9 1_555 1_555
C10 C9 1_555 1_555
H14 C10 1_555 1_555
C11 C10 1_555 1_555
H15 C11 1_555 1_555
C12 C7 1_555 1_555
H16 C12 1_555 1_555
C13 N1 1_555 1_555
H17 C13 1_555 1_555
H18 C13 1_555 1_555
C14 C13 1_555 1_555
C15 C14 1_555 1_555
H19 C15 1_555 1_555
C16 C15 1_555 1_555
H20 C16 1_555 1_555
C17 C16 1_555 1_555
H21 C17 1_555 1_555
C18 C17 1_555 1_555
H22 C18 1_555 1_555
C19 C14 1_555 1_555
H23 C19 1_555 1_555
C20 N2 1_555 1_555
C21 C20 1_555 1_555
C22 O2 1_555 1_555
C23 C22 1_555 1_555
H24 C23 1_555 1_555
C24 C23 1_555 1_555
H25 C24 1_555 1_555
C25 C24 1_555 1_555
H26 C25 1_555 1_555
C26 C21 1_555 1_555
H27 C26 1_555 1_555
C27 N2 1_555 1_555
H28 C27 1_555 1_555
H29 C27 1_555 1_555
C28 C27 1_555 1_555
C29 C28 1_555 1_555
H30 C29 1_555 1_555
C30 C29 1_555 1_555
H31 C30 1_555 1_555
C31 C30 1_555 1_555
H32 C31 1_555 1_555
C32 C31 1_555 1_555
H33 C32 1_555 1_555
C33 C28 1_555 1_555
H34 C33 1_555 1_555
C34 N3 1_555 1_555
C35 C34 1_555 1_555
C36 O3 1_555 1_555
C37 C36 1_555 1_555
H35 C37 1_555 1_555
C38 C37 1_555 1_555
H36 C38 1_555 1_555
C39 C38 1_555 1_555
H37 C39 1_555 1_555
C40 C35 1_555 1_555
H38 C40 1_555 1_555
C41 N3 1_555 1_555
H39 C41 1_555 1_555
H40 C41 1_555 1_555
C42 C41 1_555 1_555
C43 C42 1_555 1_555
H41 C43 1_555 1_555
C44 C43 1_555 1_555
H42 C44 1_555 1_555
C45 C44 1_555 1_555
H43 C45 1_555 1_555
C46 C45 1_555 1_555
H44 C46 1_555 1_555
C47 C42 1_555 1_555
H45 C47 1_555 1_555
C48 N4 1_555 1_555
C49 C48 1_555 1_555
C50 O4 1_555 1_555
C51 C50 1_555 1_555
H46 C51 1_555 1_555
C52 C51 1_555 1_555
H47 C52 1_555 1_555
C53 C52 1_555 1_555
H48 C53 1_555 1_555
C54 C49 1_555 1_555
H49 C54 1_555 1_555
C55 N4 1_555 1_555
H50 C55 1_555 1_555
H51 C55 1_555 1_555
C56 C55 1_555 1_555
C57 C56 1_555 1_555
H52 C57 1_555 1_555
C58 C57 1_555 1_555
H53 C58 1_555 1_555
C59 C58 1_555 1_555
H54 C59 1_555 1_555
C60 C59 1_555 1_555
H55 C60 1_555 1_555
C61 C56 1_555 1_555
H56 C61 1_555 1_555
C62 H57 1_555 1_555
H58 C62 1_555 1_555
C63 C62 1_555 1_555
H59 C63 1_555 1_555
H60 C63 1_555 1_555
H61 C63 1_555 1_555
C64 O21 1_555 1_555
H62 C64 1_555 1_555
H63 C64 1_555 1_555
C65 C64 1_555 1_555
H64 C65 1_555 1_555
H65 C65 1_555 1_555
H66 C65 1_555 1_555
C66 H67 1_555 1_555
H68 C66 1_555 1_555
C67 C66 1_555 1_555
H69 C67 1_555 1_555
H70 C67 1_555 1_555
H71 C67 1_555 1_555
C68 O22 1_555 1_555
H72 C68 1_555 1_555
H73 C68 1_555 1_555
C69 C68 1_555 1_555
H74 C69 1_555 1_555
H75 C69 1_555 1_555
H76 C69 1_555 1_555
Eu1A O5A 1_555 1_555
Eu1B O5B 1_555 1_555
Eu1C O7A 1_555 1_555
Eu1D O7 1_555 1_555
Eu1E O7B 1_555 1_555
Eu1F O6A 1_555 1_555
Eu1G O6B 1_555 1_555
Eu1H O6 1_555 1_555
N1A H1A 1_555 1_555
N1B H1B 1_555 1_555
N2A H2A 1_555 1_555
N2B H2B 1_555 1_555
N3A H3A 1_555 1_555
N3B H3B 1_555 1_555
N4A H4A 1_555 1_555
N4B H4B 1_555 1_555
N5A O9A 1_555 1_555
N5B O9B 1_555 1_555
N6A O12A 1_555 1_555
N6B O12B 1_555 1_555
N7A O15A 1_555 1_555
N7B O15B 1_555 1_555
N8A O18A 1_555 1_555
N8B O18B 1_555 1_555
O1A C2A 1_555 1_555
O1B C2B 1_555 1_555
O2A C3A 1_555 1_555
O2B C3B 1_555 1_555
O3A C4A 1_555 1_555
O3B C4B 1_555 1_555
O4A C5A 1_555 1_555
O4B C5B 1_555 1_555
O5A C6A 1_555 1_555
O5B C6B 1_555 1_555
O6A C20A 1_555 1_555
O6B C20B 1_555 1_555
O6L Eu1B 1_555 1_555
O6M Eu1 1_555 1_555
O6N Eu1A 1_555 1_555
O7A C34A 1_555 1_555
O7B C34B 1_555 1_555
O7C Eu1A 1_555 1_555
O7D Eu1 1_555 1_555
O7E Eu1B 1_555 1_555
O8A Eu2 1_555 1_555
O8B Eu2 1_555 1_555
O9A Eu1A 1_555 1_555
O9B Eu1B 1_555 1_555
O10A Eu1A 1_555 1_555
O10B Eu1B 1_555 1_555
O11A N5A 1_555 1_555
O11B N5B 1_555 1_555
O12A Eu1A 1_555 1_555
O12B Eu1B 1_555 1_555
O13A Eu1A 1_555 1_555
O13B Eu1B 1_555 1_555
O14A N6A 1_555 1_555
O14B N6B 1_555 1_555
O15A Eu1A 1_555 1_555
O15B Eu1B 1_555 1_555
O16A Eu1A 1_555 1_555
O16B Eu1B 1_555 1_555
O17A N7A 1_555 1_555
O17B N7B 1_555 1_555
O18A Eu2 1_555 1_555
O18B Eu2 1_555 1_555
O19A Eu2 1_555 1_555
O19B Eu2 1_555 1_555
O20A N8A 1_555 1_555
O20B N8B 1_555 1_555
C1A C2A 1_555 1_555
C1B C2B 1_555 1_555
C2A H5A 1_555 1_555
C2B H5B 1_555 1_555
H6A C2A 1_555 1_555
H6B C2B 1_555 1_555
C3A C1A 1_555 1_555
C3B C1B 1_555 1_555
H7A C3A 1_555 1_555
H7B C3B 1_555 1_555
H8A C3A 1_555 1_555
H8B C3B 1_555 1_555
C4A C1A 1_555 1_555
C4B C1B 1_555 1_555
H9A C4A 1_555 1_555
H9B C4B 1_555 1_555
H10A C4A 1_555 1_555
H10B C4B 1_555 1_555
C5A C1A 1_555 1_555
C5B C1B 1_555 1_555
H11A C5A 1_555 1_555
H11B C5B 1_555 1_555
H12A C5A 1_555 1_555
H12B C5B 1_555 1_555
C6A N1A 1_555 1_555
C6B N1B 1_555 1_555
C7A C6A 1_555 1_555
C7B C6B 1_555 1_555
C8A O1A 1_555 1_555
C8B O1B 1_555 1_555
C9A C8A 1_555 1_555
C9B C8B 1_555 1_555
H13A C9A 1_555 1_555
H13B C9B 1_555 1_555
C10A C9A 1_555 1_555
C10B C9B 1_555 1_555
H14A C10A 1_555 1_555
H14B C10B 1_555 1_555
C11A C10A 1_555 1_555
C11B C10B 1_555 1_555
H15A C11A 1_555 1_555
H15B C11B 1_555 1_555
C12A C7A 1_555 1_555
C12B C7B 1_555 1_555
H16A C12A 1_555 1_555
H16B C12B 1_555 1_555
C13A N1A 1_555 1_555
C13B N1B 1_555 1_555
H17A C13A 1_555 1_555
H17B C13B 1_555 1_555
H18A C13A 1_555 1_555
H18B C13B 1_555 1_555
C14A C13A 1_555 1_555
C14B C13B 1_555 1_555
C15A C14A 1_555 1_555
C15B C14B 1_555 1_555
H19A C15A 1_555 1_555
H19B C15B 1_555 1_555
C16A C15A 1_555 1_555
C16B C15B 1_555 1_555
H20A C16A 1_555 1_555
H20B C16B 1_555 1_555
C17A C16A 1_555 1_555
C17B C16B 1_555 1_555
H21A C17A 1_555 1_555
H21B C17B 1_555 1_555
C18A C17A 1_555 1_555
C18B C17B 1_555 1_555
H22A C18A 1_555 1_555
H22B C18B 1_555 1_555
C19A C14A 1_555 1_555
C19B C14B 1_555 1_555
H23A C19A 1_555 1_555
H23B C19B 1_555 1_555
C20A N2A 1_555 1_555
C20B N2B 1_555 1_555
C21A C20A 1_555 1_555
C21B C20B 1_555 1_555
C22A O2A 1_555 1_555
C22B O2B 1_555 1_555
C23A C22A 1_555 1_555
C23B C22B 1_555 1_555
H24A C23A 1_555 1_555
H24B C23B 1_555 1_555
C24A C23A 1_555 1_555
C24B C23B 1_555 1_555
H25A C24A 1_555 1_555
H25B C24B 1_555 1_555
C25A C24A 1_555 1_555
C25B C24B 1_555 1_555
H26A C25A 1_555 1_555
H26B C25B 1_555 1_555
C26A C21A 1_555 1_555
C26B C21B 1_555 1_555
H27A C26A 1_555 1_555
H27B C26B 1_555 1_555
C27A N2A 1_555 1_555
C27B N2B 1_555 1_555
H28A C27A 1_555 1_555
H28B C27B 1_555 1_555
H29A C27A 1_555 1_555
H29B C27B 1_555 1_555
C28A C27A 1_555 1_555
C28B C27B 1_555 1_555
C29A C28A 1_555 1_555
C29B C28B 1_555 1_555
H30A C29A 1_555 1_555
H30B C29B 1_555 1_555
C30A C29A 1_555 1_555
C30B C29B 1_555 1_555
H31A C30A 1_555 1_555
H31B C30B 1_555 1_555
C31A C30A 1_555 1_555
C31B C30B 1_555 1_555
H32A C31A 1_555 1_555
H32B C31B 1_555 1_555
C32A C31A 1_555 1_555
C32B C31B 1_555 1_555
H33A C32A 1_555 1_555
H33B C32B 1_555 1_555
C33A C28A 1_555 1_555
C33B C28B 1_555 1_555
H34A C33A 1_555 1_555
H34B C33B 1_555 1_555
C34A N3A 1_555 1_555
C34B N3B 1_555 1_555
C35A C34A 1_555 1_555
C35B C34B 1_555 1_555
C36A O3A 1_555 1_555
C36B O3B 1_555 1_555
C37A C36A 1_555 1_555
C37B C36B 1_555 1_555
H35A C37A 1_555 1_555
H35B C37B 1_555 1_555
C38A C37A 1_555 1_555
C38B C37B 1_555 1_555
H36A C38A 1_555 1_555
H36B C38B 1_555 1_555
C39A C38A 1_555 1_555
C39B C38B 1_555 1_555
H37A C39A 1_555 1_555
H37B C39B 1_555 1_555
C40A C35A 1_555 1_555
C40B C35B 1_555 1_555
H38A C40A 1_555 1_555
H38B C40B 1_555 1_555
C41A N3A 1_555 1_555
C41B N3B 1_555 1_555
H39A C41A 1_555 1_555
H39B C41B 1_555 1_555
H40A C41A 1_555 1_555
H40B C41B 1_555 1_555
C42A C41A 1_555 1_555
C42B C41B 1_555 1_555
C43A C42A 1_555 1_555
C43B C42B 1_555 1_555
H41A C43A 1_555 1_555
H41B C43B 1_555 1_555
C44A C43A 1_555 1_555
C44B C43B 1_555 1_555
H42A C44A 1_555 1_555
H42B C44B 1_555 1_555
C45A C44A 1_555 1_555
C45B C44B 1_555 1_555
H43A C45A 1_555 1_555
H43B C45B 1_555 1_555
C46A C45A 1_555 1_555
C46B C45B 1_555 1_555
H44A C46A 1_555 1_555
H44B C46B 1_555 1_555
C47A C42A 1_555 1_555
C47B C42B 1_555 1_555
H45A C47A 1_555 1_555
H45B C47B 1_555 1_555
C48A N4A 1_555 1_555
C48B N4B 1_555 1_555
C49A C48A 1_555 1_555
C49B C48B 1_555 1_555
C50A O4A 1_555 1_555
C50B O4B 1_555 1_555
C51A C50A 1_555 1_555
C51B C50B 1_555 1_555
H46A C51A 1_555 1_555
H46B C51B 1_555 1_555
C52A C51A 1_555 1_555
C52B C51B 1_555 1_555
H47A C52A 1_555 1_555
H47B C52B 1_555 1_555
C53A C52A 1_555 1_555
C53B C52B 1_555 1_555
H48A C53A 1_555 1_555
H48B C53B 1_555 1_555
C54A C49A 1_555 1_555
C54B C49B 1_555 1_555
H49A C54A 1_555 1_555
H49B C54B 1_555 1_555
C55A N4A 1_555 1_555
C55B N4B 1_555 1_555
H50A C55A 1_555 1_555
H50B C55B 1_555 1_555
H51A C55A 1_555 1_555
H51B C55B 1_555 1_555
C56A C55A 1_555 1_555
C56B C55B 1_555 1_555
C57A C56A 1_555 1_555
C57B C56B 1_555 1_555
H52A C57A 1_555 1_555
H52B C57B 1_555 1_555
C58A C57A 1_555 1_555
C58B C57B 1_555 1_555
H53A C58A 1_555 1_555
H53B C58B 1_555 1_555
C59A C58A 1_555 1_555
C59B C58B 1_555 1_555
H54A C59A 1_555 1_555
H54B C59B 1_555 1_555
C60A C59A 1_555 1_555
C60B C59B 1_555 1_555
H55A C60A 1_555 1_555
H55B C60B 1_555 1_555
C61A C56A 1_555 1_555
C61B C56B 1_555 1_555
H56A C61A 1_555 1_555
H56B C61B 1_555 1_555
N5 O10 1_555 1_555
N6 O13 1_555 1_555
N7 O16 1_555 1_555
N8 O19 1_555 1_555
C7 C8 1_555 1_555
C11 C12 1_555 1_555
C18 C19 1_555 1_555
C21 C22 1_555 1_555
C25 C26 1_555 1_555
C32 C33 1_555 1_555
C35 C36 1_555 1_555
C39 C40 1_555 1_555
C46 C47 1_555 1_555
C49 C50 1_555 1_555
C53 C54 1_555 1_555
C60 C61 1_555 1_555
N5A O10A 1_555 1_555
N5B O10B 1_555 1_555
N6A O13A 1_555 1_555
N6B O13B 1_555 1_555
N7A O16A 1_555 1_555
N7B O16B 1_555 1_555
N8A O19A 1_555 1_555
N8B O19B 1_555 1_555
O8A C48A 1_555 1_555
O8B C48B 1_555 1_555
C7A C8A 1_555 1_555
C7B C8B 1_555 1_555
C11A C12A 1_555 1_555
C11B C12B 1_555 1_555
C18A C19A 1_555 1_555
C18B C19B 1_555 1_555
C21A C22A 1_555 1_555
C21B C22B 1_555 1_555
C25A C26A 1_555 1_555
C25B C26B 1_555 1_555
C32A C33A 1_555 1_555
C32B C33B 1_555 1_555
C35A C36A 1_555 1_555
C35B C36B 1_555 1_555
C39A C40A 1_555 1_555
C39B C40B 1_555 1_555
C46A C47A 1_555 1_555
C46B C47B 1_555 1_555
C49A C50A 1_555 1_555
C49B C50B 1_555 1_555
C53A C54A 1_555 1_555
C53B C54B 1_555 1_555
C60A C61A 1_555 1_555
C60B C61B 1_555 1_555

#END
