
#######################################################################
#
#                 Cambridge Crystallographic Data Centre
#                                CCDC 
#
#######################################################################
#
# If this CIF has been generated from an entry in the Cambridge 
# Structural Database, then it will include bibliographic, chemical, 
# crystal, experimental, refinement or atomic coordinate data resulting 
# from the CCDC's data processing and validation procedures.
#
#######################################################################

data_LOQVIW
_symmetry_cell_setting           monoclinic
_symmetry_space_group_name_H-M   'P 21/n'
_symmetry_Int_Tables_number      14
_space_group_name_Hall           '-P 2yn'
loop_
_symmetry_equiv_pos_site_id
_symmetry_equiv_pos_as_xyz
1 x,y,z
2 1/2-x,1/2+y,1/2-z
3 -x,-y,-z
4 1/2+x,1/2-y,1/2+z
_cell_length_a                   18.167(3)
_cell_length_b                   5.083(1)
_cell_length_c                   8.658(1)
_cell_angle_alpha                90
_cell_angle_beta                 93.630(2)
_cell_angle_gamma                90
_cell_volume                     797.9
loop_
_atom_site_label
_atom_site_type_symbol
_atom_site_fract_x
_atom_site_fract_y
_atom_site_fract_z
Zn1 Zn -0.1910(1) -1.0645(4) -0.0574(3)
P1 P -0.1545(2) -1.2816(8) -0.4029(5)
P2 P 0.1304(2) -1.4046(8) -0.1303(4)
O1 O -0.1229(4) -1.0909(13) -0.5265(8)
O2 O -0.2137(4) -1.4435(13) -0.4866(8)
O3 O -0.1871(4) -1.1152(14) -0.2784(8)
O4 O 0.1207(4) -1.1703(13) -0.0207(8)
O5 O 0.1636(4) -1.2995(17) -0.2789(8)
O6 O 0.1777(4) -1.6109(13) -0.0545(8)
C1 C -0.0809(4) -1.4811(15) -0.3257(11)
C2 C -0.0136(4) -1.3340(17) -0.2599(12)
C3 C 0.0404(3) -1.5312(15) -0.1912(11)
Zn1B Zn 0.1910(1) -0.9355(4) 0.0574(3)
Zn1B_2 Zn 0.1910(1) -1.9355(4) 0.0574(3)
Zn1A Zn -0.3090(1) -1.5645(4) -0.4426(3)
O6B O -0.1777(4) -1.3891(13) 0.0545(8)
O2A O -0.2863(4) -0.9435(13) -0.0134(8)
O4B O -0.1207(4) -0.8297(13) 0.0207(8)
loop_
_geom_bond_atom_site_label_1
_geom_bond_atom_site_label_2
_geom_bond_site_symmetry_1
_geom_bond_site_symmetry_2
Zn1 O3 1_555 1_555
P1 O1 1_555 1_555
P2 O4 1_555 1_555
O2 P1 1_555 1_555
O3 P1 1_555 1_555
O4 Zn1B 1_555 1_555
O5 P2 1_555 1_555
O6 P2 1_555 1_555
C1 P1 1_555 1_555
C2 C1 1_555 1_555
C3 P2 1_555 1_555
Zn1B_2 O6 1_555 1_555
Zn1A O2 1_555 1_555
O6B Zn1 1_555 1_555
O2A Zn1 1_555 1_555
O4B Zn1 1_555 1_555
C2 C3 1_555 1_555

#END
