
#######################################################################
#
#                 Cambridge Crystallographic Data Centre
#                                CCDC 
#
#######################################################################
#
# If this CIF has been generated from an entry in the Cambridge 
# Structural Database, then it will include bibliographic, chemical, 
# crystal, experimental, refinement or atomic coordinate data resulting 
# from the CCDC's data processing and validation procedures.
#
#######################################################################

data_LOQVIW01
_symmetry_cell_setting           monoclinic
_symmetry_space_group_name_H-M   'P 21/n'
_symmetry_Int_Tables_number      14
_space_group_name_Hall           '-P 2yn'
loop_
_symmetry_equiv_pos_site_id
_symmetry_equiv_pos_as_xyz
1 x,y,z
2 1/2-x,1/2+y,1/2-z
3 -x,-y,-z
4 1/2+x,1/2-y,1/2+z
_cell_length_a                   8.595(7)
_cell_length_b                   5.056(4)
_cell_length_c                   18.096(15)
_cell_angle_alpha                90
_cell_angle_beta                 93.344(9)
_cell_angle_gamma                90
_cell_volume                     785.047
loop_
_atom_site_label
_atom_site_type_symbol
_atom_site_fract_x
_atom_site_fract_y
_atom_site_fract_z
Zn1 Zn 0.56076(3) 0.57088(6) 0.190998(16)
P1 P 0.87445(7) 0.40253(13) 0.62926(4)
P2 P 0.59496(7) 0.26918(13) 0.34456(3)
O1 O 0.5042(2) 0.4372(4) 0.28722(10)
O2 O 0.4766(2) 0.0955(4) 0.38633(11)
H1 H 0.4286 -0.0055 0.3560
O3 O 0.7259(2) 0.2795(4) 0.66447(10)
H2 H 0.6714 0.4015 0.6810
O4 O 0.9812(2) 0.1741(4) 0.61533(10)
O5 O 0.7176(2) 0.1014(4) 0.31236(11)
O6 O 0.9392(2) 0.6132(4) 0.68056(11)
C1 C 0.6724(3) 0.4799(5) 0.41643(14)
H3 H 0.7530 0.5941 0.3960
H4 H 0.5879 0.5966 0.4320
C2 C 0.8088(3) 0.5417(5) 0.54185(14)
H5 H 0.8969 0.6364 0.5209
H6 H 0.7265 0.6735 0.5502
C3 C 0.7445(3) 0.3388(6) 0.48494(14)
H7 H 0.8296 0.2213 0.4704
H8 H 0.6645 0.2283 0.5072
Zn1A Zn 0.93924(3) 0.07088(6) 0.309002(16)
Zn1C Zn 1.06076(3) -0.07088(6) 0.690998(16)
Zn1C_2 Zn 1.06076(3) 0.92912(6) 0.690998(16)
O4C O 0.4812(2) 0.3259(4) 0.11533(10)
O5A O 0.7824(2) 0.6014(4) 0.18764(11)
O6C O 0.4392(2) 0.8868(4) 0.18056(11)
loop_
_geom_bond_atom_site_label_1
_geom_bond_atom_site_label_2
_geom_bond_site_symmetry_1
_geom_bond_site_symmetry_2
Zn1 O1 1_555 1_555
P1 O3 1_555 1_555
P2 O1 1_555 1_555
O2 P2 1_555 1_555
H1 O2 1_555 1_555
O3 H2 1_555 1_555
O4 P1 1_555 1_555
O5 P2 1_555 1_555
O6 P1 1_555 1_555
C1 P2 1_555 1_555
H3 C1 1_555 1_555
H4 C1 1_555 1_555
C2 P1 1_555 1_555
H5 C2 1_555 1_555
H6 C2 1_555 1_555
C3 C1 1_555 1_555
H7 C3 1_555 1_555
H8 C3 1_555 1_555
Zn1A O5 1_555 1_555
Zn1C O4 1_555 1_555
Zn1C_2 O6 1_555 1_555
O4C Zn1 1_555 1_555
O5A Zn1 1_555 1_555
O6C Zn1 1_555 1_555
C2 C3 1_555 1_555

#END
