
#######################################################################
#
#                 Cambridge Crystallographic Data Centre
#                                CCDC 
#
#######################################################################
#
# If this CIF has been generated from an entry in the Cambridge 
# Structural Database, then it will include bibliographic, chemical, 
# crystal, experimental, refinement or atomic coordinate data resulting 
# from the CCDC's data processing and validation procedures.
#
#######################################################################

data_LOQYAS
_symmetry_cell_setting           triclinic
_symmetry_space_group_name_H-M   'P 1'
_symmetry_Int_Tables_number      1
_space_group_name_Hall           'P 1'
loop_
_symmetry_equiv_pos_site_id
_symmetry_equiv_pos_as_xyz
1 x,y,z
_cell_length_a                   13.954(1)
_cell_length_b                   24.637(1)
_cell_length_c                   24.781(1)
_cell_angle_alpha                81.901(3)
_cell_angle_beta                 80.008(3)
_cell_angle_gamma                74.554(3)
_cell_volume                     8046.75
loop_
_atom_site_label
_atom_site_type_symbol
_atom_site_fract_x
_atom_site_fract_y
_atom_site_fract_z
Cu1 Cu 1.06559(9) 0.08771(4) 0.01556(5)
Cl1 Cl 0.6819(4) 0.1818(3) -0.3259(2)
Cl2 Cl 1.0513(3) 0.32335(14) -0.65755(13)
Cl3 Cl 1.5309(7) -0.2571(2) 0.1901(3)
Cl4 Cl 1.3816(3) -0.63644(14) 0.07293(18)
O1 O 1.2547(6) 0.0663(3) -0.4657(3)
O2 O 1.1072(8) 0.0056(4) -0.5109(3)
O3 O 1.4567(10) -0.3913(4) -0.0739(5)
O4 O 1.7178(7) -0.4113(4) -0.0306(6)
O5 O 1.2179(6) 0.1167(3) -0.0187(3)
O6 O 0.9136(7) 0.0573(3) 0.0466(4)
N1 N 1.0565(7) 0.0834(4) -0.0650(4)
N2 N 1.0818(7) 0.0928(3) -0.9052(3)
N3 N 1.1398(7) 0.0049(3) 0.0211(3)
N4 N 1.9850(7) -0.8298(3) 0.0099(3)
N5 N 1.3856(8) 0.1013(4) -0.0441(4)
N6 N 0.7833(10) 0.0180(6) 0.0613(7)
C1 C 0.9717(8) 0.1090(4) -0.0880(5)
H1 H 0.9139 0.1275 -0.0649
C2 C 0.9656(11) 0.1093(5) -0.1411(5)
H2 H 0.9041 0.1261 -0.1552
C3 C 1.0498(12) 0.0850(5) -0.1748(5)
C4 C 1.1351(11) 0.0589(5) -0.1527(5)
H3 H 1.1936 0.0403 -0.1752
C5 C 1.1355(9) 0.0595(5) -0.0983(5)
H4 H 1.1959 0.0418 -0.0835
C6 C 1.0508(11) 0.0866(6) -0.2342(6)
C7 C 1.0603(11) 0.0894(6) -0.2836(7)
C8 C 1.0658(11) 0.0930(5) -0.3431(4)
C9 C 0.9728(9) 0.1171(5) -0.3689(5)
C10 C 0.8852(13) 0.1332(6) -0.3364(5)
H5 H 0.8810 0.1292 -0.2975
C11 C 0.7998(12) 0.1562(8) -0.3628(6)
C12 C 0.8100(13) 0.1604(8) -0.4213(7)
H6 H 0.7523 0.1772 -0.4388
C13 C 0.8976(13) 0.1415(8) -0.4523(7)
H7 H 0.9028 0.1427 -0.4911
C14 C 0.9816(12) 0.1199(6) -0.4249(5)
C15 C 1.0828(11) 0.0998(5) -0.4577(4)
C16 C 1.1646(9) 0.0806(5) -0.4326(5)
C17 C 1.1561(10) 0.0751(5) -0.3751(5)
H8 H 1.2144 0.0586 -0.3579
C18 C 1.3472(11) 0.0475(6) -0.4412(6)
H9 H 1.3507 0.0099 -0.4200
H10 H 1.3492 0.0746 -0.4157
C19 C 1.4366(11) 0.0438(8) -0.4882(7)
H11 H 1.4998 0.0320 -0.4726
H12 H 1.4318 0.0810 -0.5093
H13 H 1.4350 0.0161 -0.5126
C20 C 1.117(2) -0.0903(9) -0.4867(9)
H14 H 1.1244 -0.1259 -0.5022
H15 H 1.0533 -0.0812 -0.4622
H16 H 1.1728 -0.0942 -0.4659
C21 C 1.1193(16) -0.0456(7) -0.5307(7)
H17 H 1.1842 -0.0547 -0.5553
H18 H 1.0650 -0.0428 -0.5527
C22 C 1.0886(9) 0.1035(5) -0.5206(4)
C23 C 1.0812(8) 0.1555(5) -0.5529(5)
C24 C 1.0653(8) 0.2084(6) -0.5291(5)
H19 H 1.0600 0.2080 -0.4903
C25 C 1.0582(9) 0.2570(6) -0.5602(5)
H20 H 1.0499 0.2909 -0.5438
C26 C 1.0628(8) 0.2590(5) -0.6175(5)
C27 C 1.0781(9) 0.2086(6) -0.6418(5)
H21 H 1.0815 0.2097 -0.6805
C28 C 1.0877(8) 0.1590(5) -0.6105(4)
C29 C 1.1018(9) 0.1055(5) -0.6350(4)
C30 C 1.1071(9) 0.0572(6) -0.6024(5)
H22 H 1.1129 0.0235 -0.6187
C31 C 1.1043(10) 0.0538(6) -0.5433(5)
C32 C 1.1039(8) 0.1054(5) -0.6910(5)
C33 C 1.1048(9) 0.1049(5) -0.7423(5)
C34 C 1.0571(8) 0.0551(4) -0.8658(4)
H23 H 1.0310 0.0260 -0.8745
C35 C 1.0689(9) 0.0575(5) -0.8107(5)
H24 H 1.0548 0.0286 -0.7831
C36 C 1.0997(8) 0.1001(4) -0.7968(4)
C37 C 1.1236(8) 0.1403(4) -0.8398(4)
H25 H 1.1462 0.1711 -0.8321
C38 C 1.1143(9) 0.1347(5) -0.8918(5)
H26 H 1.1317 0.1619 -0.9203
C39 C 1.2283(11) -0.0125(5) 0.0392(5)
H27 H 1.2554 0.0139 0.0523
C40 C 1.2824(10) -0.0695(5) 0.0392(5)
H28 H 1.3440 -0.0816 0.0539
C41 C 1.2472(10) -0.1081(5) 0.0182(6)
C42 C 1.1536(11) -0.0899(5) -0.0001(5)
H29 H 1.1247 -0.1152 -0.0134
C43 C 1.1049(9) -0.0335(5) 0.0021(5)
H30 H 1.0417 -0.0207 -0.0109
C44 C 1.2986(12) -0.1660(6) 0.0170(7)
C45 C 1.3476(12) -0.2129(6) 0.0144(7)
C46 C 1.4031(12) -0.2715(5) 0.0124(8)
C47 C 1.4637(12) -0.2990(5) 0.0522(7)
C48 C 1.4725(13) -0.2694(6) 0.0955(7)
H31 H 1.4384 -0.2305 0.0968
C49 C 1.5271(16) -0.2952(8) 0.1336(8)
C50 C 1.5810(19) -0.3516(8) 0.1345(9)
H32 H 1.6198 -0.3690 0.1631
C51 C 1.5759(12) -0.3806(6) 0.0930(7)
H33 H 1.6093 -0.4196 0.0933
C52 C 1.5226(10) -0.3543(4) 0.0499(6)
C53 C 1.5168(9) -0.3857(5) 0.0057(7)
C54 C 1.4577(13) -0.3586(5) -0.0350(8)
C55 C 1.4024(12) -0.3025(5) -0.0303(7)
H34 H 1.3619 -0.2845 -0.0580
C56 C 1.3762(19) -0.3741(9) -0.1043(11)
H35 H 1.3814 -0.3397 -0.1294
H36 H 1.3115 -0.3658 -0.0794
C57 C 1.384(3) -0.4249(16) -0.1379(17)
H37 H 1.3281 -0.4154 -0.1598
H38 H 1.3794 -0.4587 -0.1124
H39 H 1.4477 -0.4323 -0.1625
C58 C 1.5750(10) -0.4453(5) 0.0022(6)
C59 C 1.5336(10) -0.4913(4) 0.0204(5)
C60 C 1.4278(11) -0.4825(5) 0.0397(6)
H40 H 1.3878 -0.4449 0.0420
C61 C 1.3847(10) -0.5245(5) 0.0542(6)
H41 H 1.3142 -0.5174 0.0657
C62 C 1.4441(13) -0.5803(5) 0.0525(6)
C63 C 1.5410(11) -0.5915(5) 0.0341(5)
H42 H 1.5785 -0.6296 0.0320
C64 C 1.5882(9) -0.5483(4) 0.0178(5)
C65 C 1.6942(9) -0.5584(5) -0.0009(5)
C66 C 1.7393(11) -0.5125(5) -0.0153(7)
H43 H 1.8097 -0.5196 -0.0266
C67 C 1.6802(12) -0.4556(4) -0.0130(6)
C68 C 1.7553(9) -0.6148(4) -0.0004(5)
C69 C 1.8001(9) -0.6641(4) -0.0006(5)
C70 C 1.8955(10) -0.8156(4) 0.0406(5)
H44 H 1.8728 -0.8438 0.0659
C71 C 1.8336(9) -0.7602(5) 0.0371(5)
H45 H 1.7698 -0.7515 0.0593
C72 C 1.8653(8) -0.7202(4) 0.0021(4)
C73 C 1.9602(9) -0.7343(4) -0.0290(5)
H46 H 1.9850 -0.7061 -0.0533
C74 C 2.0168(9) -0.7883(4) -0.0242(4)
H47 H 2.0812 -0.7973 -0.0458
C75 C 1.3049(10) 0.1128(5) -0.0076(5)
H48 H 1.3119 0.1186 0.0285
C76 C 1.3775(13) 0.0913(7) -0.1002(7)
H49 H 1.3071 0.0942 -0.1030
H50 H 1.4180 0.0534 -0.1080
H51 H 1.4019 0.1196 -0.1269
C77 C 1.4829(12) 0.0963(7) -0.0286(7)
H52 H 1.4746 0.1039 0.0100
H53 H 1.5151 0.1237 -0.0522
H54 H 1.5248 0.0579 -0.0329
C78 C 0.851(2) 0.0425(10) 0.0401(10)
H55 H 0.8445 0.0518 0.0022
C79 C 0.714(3) 0.0095(18) 0.0347(15)
H56 H 0.7232 0.0257 -0.0037
H57 H 0.6465 0.0278 0.0525
H58 H 0.7200 -0.0312 0.0358
C80 C 0.773(3) -0.0114(16) 0.1109(14)
H59 H 0.8320 -0.0151 0.1288
H60 H 0.7665 -0.0491 0.1065
H61 H 0.7127 0.0085 0.1337
C81 C 1.8570(17) -0.4247(14) -0.0044(14)
H62 H 1.9294 -0.4371 -0.0164
H63 H 1.8358 -0.4530 0.0237
H64 H 1.8416 -0.3884 0.0110
C82 C 1.812(3) -0.4194(15) -0.0444(14)
H65 H 1.8370 -0.4539 -0.0640
H66 H 1.8257 -0.3870 -0.0702
Cu1_2 Cu 1.06559(9) 0.08771(4) -0.98444(5)
Cu1_3 Cu 2.06559(9) -0.91229(4) 0.01556(5)
N2_2 N 1.0818(7) 0.0928(3) 0.0948(3)
N4_2 N 0.9850(7) 0.1702(3) 0.0099(3)
Cu2 Cu 0.27896(9) 0.25402(5) 0.71023(5)
Cl5 Cl -0.0582(3) 0.34273(19) 1.09516(17)
Cl6 Cl 0.3671(3) 0.01512(12) 1.38014(12)
Cl7 Cl 0.0964(7) 0.6081(4) 0.9004(4)
Cl8 Cl -0.0510(6) 0.9823(4) 0.6358(4)
O7 O 0.5044(6) 0.1925(3) 1.1620(3)
O8 O 0.3137(6) 0.3324(3) 1.2276(3)
O9 O -0.2222(16) 0.7305(7) 0.6554(10)
O10 O -0.3474(15) 0.7566(8) 0.7897(8)
O11 O 0.4349(7) 0.2810(4) 0.6872(4)
O12 O 0.1262(7) 0.2233(3) 0.7417(4)
N7 N 0.2936(8) 0.2539(4) 0.7896(4)
N8 N 0.2728(7) 0.2534(4) 1.6293(4)
N9 N 0.2032(8) 0.3371(4) 0.7088(4)
N10 N -0.6441(7) 1.1709(4) 0.7123(4)
N11 N 0.570(2) 0.3181(10) 0.6717(10)
N12 N -0.0401(9) 0.2425(5) 0.7656(5)
C83 C 0.3833(10) 0.2325(5) 0.8088(5)
H67 H 0.4413 0.2187 0.7834
C84 C 0.3928(11) 0.2300(5) 0.8622(6)
H68 H 0.4567 0.2132 0.8736
C85 C 0.3093(10) 0.2519(5) 0.9022(4)
C86 C 0.2167(9) 0.2761(5) 0.8821(5)
H69 H 0.1580 0.2915 0.9063
C87 C 0.2134(9) 0.2771(5) 0.8260(5)
H70 H 0.1517 0.2948 0.8125
C88 C 0.3138(10) 0.2492(5) 0.9585(5)
C89 C 0.3184(9) 0.2478(4) 1.0066(5)
C90 C 0.3207(10) 0.2424(5) 1.0639(5)
C91 C 0.2342(10) 0.2642(4) 1.0981(4)
C92 C 0.1401(10) 0.2909(5) 1.0813(4)
H71 H 0.1337 0.2938 1.0434
C93 C 0.0605(10) 0.3120(5) 1.1164(6)
C94 C 0.0623(10) 0.3080(5) 1.1755(5)
H72 H 0.0033 0.3219 1.2003
C95 C 0.1524(11) 0.2836(4) 1.1938(5)
H73 H 0.1555 0.2813 1.2321
C96 C 0.2423(8) 0.2613(4) 1.1581(4)
C97 C 0.3333(8) 0.2372(4) 1.1768(4)
C98 C 0.4191(9) 0.2149(4) 1.1391(4)
C99 C 0.4120(9) 0.2182(5) 1.0855(4)
H74 H 0.4707 0.2038 1.0608
C100 C 0.5889(10) 0.1645(5) 1.1250(5)
H75 H 0.6080 0.1919 1.0945
H76 H 0.5716 0.1343 1.1091
C101 C 0.6774(9) 0.1387(5) 1.1590(5)
H77 H 0.7360 0.1189 1.1350
H78 H 0.6573 0.1120 1.1892
H79 H 0.6944 0.1691 1.1740
C102 C 0.3379(9) 0.2337(4) 1.2381(4)
C103 C 0.3463(8) 0.1811(4) 1.2717(4)
C104 C 0.3582(8) 0.1303(4) 1.2494(4)
H80 H 0.3645 0.1303 1.2106
C105 C 0.3610(8) 0.0804(4) 1.2823(4)
H81 H 0.3659 0.0468 1.2662
C106 C 0.3566(8) 0.0787(4) 1.3380(4)
C107 C 0.3430(8) 0.1285(4) 1.3634(4)
H82 H 0.3363 0.1276 1.4024
C108 C 0.3396(8) 0.1803(4) 1.3289(4)
C109 C 0.3265(8) 0.2323(4) 1.3530(4)
C110 C 0.3195(9) 0.2823(4) 1.3189(4)
H83 H 0.3114 0.3164 1.3349
C111 C 0.3237(8) 0.2846(4) 1.2619(4)
C112 C 0.3153(8) 0.2353(4) 1.4112(4)
C113 C 0.3009(8) 0.2409(4) 1.4583(4)
C114 C 0.2467(8) 0.2109(4) 1.6112(4)
H84 H 0.2219 0.1839 1.6371
C115 C 0.2553(9) 0.2060(4) 1.5560(4)
H85 H 0.2384 0.1750 1.5445
C116 C 0.2882(8) 0.2454(5) 1.5169(5)
C117 C 0.3103(8) 0.2910(4) 1.5377(5)
H86 H 0.3319 0.3199 1.5129
C118 C 0.3010(9) 0.2935(4) 1.5908(4)
H87 H 0.3148 0.3250 1.6031
C119 C 0.2566(17) 0.4289(6) 1.2040(7)
H88 H 0.2309 0.4665 1.2172
H89 H 0.2058 0.4205 1.1860
H90 H 0.3178 0.4283 1.1776
C120 C 0.2793(11) 0.3867(4) 1.2503(6)
H91 H 0.3324 0.3938 1.2682
H92 H 0.2187 0.3875 1.2780
C121 C 0.1146(10) 0.3549(5) 0.6903(5)
H93 H 0.0904 0.3289 0.6747
C122 C 0.0548(12) 0.4117(5) 0.6931(7)
H94 H -0.0102 0.4224 0.6823
C123 C 0.0931(12) 0.4506(6) 0.7117(6)
C124 C 0.1880(11) 0.4302(5) 0.7279(6)
H95 H 0.2165 0.4561 0.7407
C125 C 0.2425(11) 0.3756(4) 0.7266(5)
H96 H 0.3071 0.3643 0.7379
C126 C 0.0418(12) 0.5075(5) 0.7137(7)
C127 C -0.0046(12) 0.5554(6) 0.7186(8)
C128 C -0.0581(15) 0.6153(8) 0.7213(8)
C129 C 0.0089(14) 0.6148(7) 0.8126(9)
H97 H 0.0319 0.5748 0.8156
C130 C 0.031(2) 0.6395(9) 0.8533(11)
C131 C -0.1497(18) 0.7287(9) 0.7339(12)
C132 C -0.1017(13) 0.7037(8) 0.7738(10)
C133 C -0.1701(18) 0.7095(10) 0.6946(12)
C134 C -0.113(2) 0.6355(10) 0.6878(12)
H98 H -0.1249 0.6152 0.6608
C135 C -0.0902(17) 0.7260(10) 0.8212(10)
H99 H -0.1272 0.7639 0.8256
C136 C -0.223(2) 0.7885(8) 0.7373(18)
C137 C -0.1789(15) 0.8334(7) 0.7106(10)
C138 C -0.085(2) 0.8238(8) 0.6841(9)
H100 H -0.0486 0.7858 0.6804
C139 C -0.032(2) 0.8745(12) 0.6580(11)
H101 H 0.0349 0.8693 0.6389
C140 C -0.0953(18) 0.9249(10) 0.6674(9)
C141 C -0.1970(15) 0.9357(9) 0.6853(8)
H102 H -0.2396 0.9728 0.6812
C142 C -0.2342(15) 0.8897(8) 0.7095(8)
C143 C -0.343(2) 0.8982(12) 0.7357(11)
C144 C -0.381(2) 0.8582(11) 0.7620(10)
H103 H -0.4485 0.8644 0.7802
C145 C -0.3117(17) 0.8027(9) 0.7607(9)
C146 C -0.248(2) 0.7067(14) 0.6131(14)
H104 H -0.2582 0.6688 0.6272
H105 H -0.1909 0.7018 0.5825
C147 C -0.344(3) 0.7443(19) 0.591(2)
H106 H -0.3591 0.7264 0.5613
H107 H -0.3337 0.7817 0.5762
H108 H -0.4009 0.7485 0.6207
C148 C -0.4011(19) 0.9568(11) 0.7361(10)
C149 C -0.4681(18) 1.0008(10) 0.7207(9)
C150 C -0.5579(10) 1.1566(5) 0.6794(5)
H109 H -0.5351 1.1848 0.6540
C151 C -0.5000(12) 1.1012(6) 0.6813(6)
H110 H -0.4368 1.0929 0.6584
C152 C -0.5314(14) 1.0567(8) 0.7158(8)
C153 C -0.6183(11) 1.0760(6) 0.7523(6)
H111 H -0.6390 1.0502 0.7814
C154 C -0.6739(12) 1.1300(6) 0.7478(7)
H112 H -0.7368 1.1395 0.7707
C155 C 0.494(2) 0.3006(10) 0.6654(11)
H113 H 0.4873 0.3070 0.6275
C156 C 0.562(3) 0.3104(15) 0.7414(14)
H114 H 0.5093 0.2909 0.7574
H115 H 0.5457 0.3477 0.7550
H116 H 0.6265 0.2879 0.7521
C157 C 0.650(3) 0.334(2) 0.638(2)
H117 H 0.6365 0.3399 0.5997
H118 H 0.7111 0.3037 0.6413
H119 H 0.6579 0.3688 0.6489
C158 C 0.0439(12) 0.2286(5) 0.7312(6)
H120 H 0.0382 0.2223 0.6951
C159 C -0.0403(13) 0.2527(7) 0.8230(7)
H121 H 0.0291 0.2450 0.8304
H122 H -0.0754 0.2276 0.8483
H123 H -0.0746 0.2922 0.8284
C160 C -0.1424(16) 0.2485(9) 0.7480(9)
H124 H -0.1331 0.2412 0.7093
H125 H -0.1840 0.2870 0.7523
H126 H -0.1757 0.2212 0.7710
C161 C -0.036(2) 0.7014(13) 0.8594(13)
H127 H -0.0361 0.7203 0.8904
C162 C -0.0450(15) 0.6390(9) 0.7645(9)
C163 C -0.412(3) 0.759(4) 0.8304(15)
H128 H -0.4515 0.7311 0.8292
H129 H -0.4591 0.7970 0.8289
C164 C -0.374(5) 0.748(3) 0.8789(11)
H130 H -0.4060 0.7215 0.9039
H131 H -0.3872 0.7836 0.8958
H132 H -0.3014 0.7319 0.8720
Cu2_2 Cu 0.27896(9) 0.25402(5) 1.71023(5)
Cu2_3 Cu -0.72104(9) 1.25402(5) 0.71023(5)
N8_2 N 0.2728(7) 0.2534(4) 0.6293(4)
N10_2 N 0.3559(7) 0.1709(4) 0.7123(4)
Cu3 Cu 0.61606(14) 0.83914(6) 0.31161(9)
Cl9 Cl 0.9325(3) 0.44376(17) 0.2649(2)
Cl10 Cl 0.5593(3) 0.15499(15) 0.53766(13)
O13 O 0.3755(6) 0.3977(3) 0.3696(3)
O14 O 0.5447(7) 0.3367(3) 0.2400(3)
O15 O 0.4885(10) 0.8667(4) 0.2729(6)
O16 O 0.7539(14) 0.8071(4) 0.3432(8)
O17 O 0.7064(13) 0.8316(5) 0.2213(9)
O18 O 0.5270(15) 0.8507(5) 0.3980(6)
N13 N 0.5970(9) 0.7610(4) 0.3172(5)
N14 N 0.6273(8) -0.0819(4) 0.3111(5)
N15 N 0.3382(12) 0.9077(6) 0.2582(6)
N16 N 0.4504(17) 0.8423(10) 0.4814(10)
N17 N 0.716(4) 0.8421(18) 0.130(2)
C165 C 0.999(3) 0.797(3) 0.302(3)
H133 H 0.9685 0.8360 0.2894
H134 H 1.0175 0.7737 0.2708
H135 H 1.0593 0.7950 0.3181
C166 C 0.5088(12) 0.7496(6) 0.3364(6)
H136 H 0.4539 0.7799 0.3478
C167 C 0.4921(11) 0.6965(5) 0.3409(5)
H137 H 0.4279 0.6903 0.3556
C168 C 0.5705(11) 0.6525(6) 0.3235(6)
C169 C 0.6646(14) 0.6620(8) 0.3007(7)
H138 H 0.7189 0.6325 0.2872
C170 C 0.6746(14) 0.7199(7) 0.2987(7)
H139 H 0.7371 0.7283 0.2841
C171 C 0.5596(11) 0.5953(6) 0.3266(6)
C172 C 0.5555(11) 0.5466(6) 0.3325(6)
C173 C 0.5480(9) 0.4897(5) 0.3341(5)
C174 C 0.6419(8) 0.4505(4) 0.3189(5)
C175 C 0.7336(9) 0.4640(5) 0.3008(5)
H140 H 0.7374 0.5022 0.2984
C176 C 0.8146(10) 0.4246(5) 0.2873(5)
C177 C 0.8168(9) 0.3679(5) 0.2885(5)
H141 H 0.8773 0.3407 0.2778
C178 C 0.7305(8) 0.3532(5) 0.3054(4)
H142 H 0.7305 0.3144 0.3080
C179 C 0.6410(8) 0.3922(4) 0.3191(4)
C180 C 0.5454(8) 0.3762(4) 0.3373(4)
C181 C 0.4583(8) 0.4169(4) 0.3535(4)
C182 C 0.4628(9) 0.4736(5) 0.3518(5)
H143 H 0.4035 0.5011 0.3636
C183 C 0.2823(9) 0.4367(5) 0.3953(5)
H144 H 0.2958 0.4506 0.4281
H145 H 0.2595 0.4697 0.3687
C184 C 0.2054(10) 0.4053(5) 0.4111(5)
H146 H 0.1435 0.4300 0.4280
H147 H 0.2285 0.3729 0.4376
H148 H 0.1925 0.3918 0.3784
C185 C 0.6429(13) 0.3051(8) 0.1601(8)
H149 H 0.6400 0.2959 0.1233
H150 H 0.6789 0.2713 0.1810
H151 H 0.6782 0.3351 0.1568
C186 C 0.5488(10) 0.3228(6) 0.1864(5)
H152 H 0.5131 0.2927 0.1883
H153 H 0.5128 0.3565 0.1645
C187 C 0.5471(7) 0.3154(4) 0.3351(4)
C188 C 0.5487(8) 0.2784(4) 0.3828(4)
C189 C 0.5444(8) 0.2953(5) 0.4357(4)
H154 H 0.5391 0.3340 0.4391
C190 C 0.5476(9) 0.2581(5) 0.4817(5)
H155 H 0.5435 0.2710 0.5167
C191 C 0.5569(8) 0.2021(4) 0.4776(4)
C192 C 0.5641(8) 0.1801(5) 0.4289(5)
H156 H 0.5694 0.1410 0.4282
C193 C 0.5636(8) 0.2181(4) 0.3779(4)
C194 C 0.5744(8) 0.2001(4) 0.3270(4)
C195 C 0.5666(8) 0.2390(4) 0.2789(5)
H157 H 0.5707 0.2263 0.2439
C196 C 0.5528(8) 0.2961(4) 0.2841(4)
C197 C 0.5896(8) 0.1418(4) 0.3207(4)
C198 C 0.6056(8) 0.0919(5) 0.3168(5)
C199 C 0.6454(9) -0.0630(5) 0.3544(5)
H158 H 0.6623 -0.0895 0.3851
C200 C 0.6414(9) -0.0077(5) 0.3580(5)
H159 H 0.6535 0.0035 0.3908
C201 C 0.6193(8) 0.0322(4) 0.3133(4)
C202 C 0.6014(9) 0.0132(5) 0.2664(5)
H160 H 0.5880 0.0389 0.2347
C203 C 0.6032(10) -0.0432(5) 0.2662(6)
H161 H 0.5876 -0.0555 0.2349
C204 C 0.4162(17) 0.8941(9) 0.2887(9)
H162 H 0.4075 0.9085 0.3233
C205 C 0.2485(16) 0.9470(9) 0.2825(9)
H163 H 0.1960 0.9542 0.2590
H164 H 0.2646 0.9826 0.2859
H165 H 0.2247 0.9304 0.3191
C206 C 0.338(2) 0.8904(11) 0.2106(11)
H166 H 0.4040 0.8658 0.1987
H167 H 0.3234 0.9232 0.1832
H168 H 0.2865 0.8693 0.2142
C207 C 0.841(3) 0.808(4) 0.333(3)
H169 H 0.8470 0.8430 0.3129
N18 N 0.933(6) 0.776(3) 0.341(3)
C208 C 0.690(5) 0.846(3) 0.174(3)
H170 H 0.6257 0.8723 0.1758
C209 C 0.637(4) 0.8559(19) 0.0916(19)
H171 H 0.6088 0.8969 0.0873
H172 H 0.5839 0.8369 0.1070
H173 H 0.6685 0.8429 0.0556
C210 C 0.434(4) 0.804(2) 0.5269(18)
H174 H 0.3924 0.8251 0.5571
H175 H 0.4988 0.7833 0.5383
H176 H 0.4000 0.7778 0.5173
C211 C 0.513(2) 0.8267(13) 0.4278(12)
H177 H 0.5410 0.7874 0.4247
C212 C 0.949(8) 0.786(11) 0.390(2)
H178 H 0.8966 0.7769 0.4184
H179 H 0.9478 0.8263 0.3887
H180 H 1.0149 0.7629 0.3973
C213 C 0.768(11) 0.792(6) 0.111(6)
H181 H 0.8095 0.7695 0.1387
H182 H 0.8120 0.7990 0.0768
H183 H 0.7213 0.7713 0.1043
C214 C 0.394(3) 0.8959(14) 0.4847(15)
H184 H 0.3590 0.9001 0.5223
H185 H 0.3443 0.9043 0.4591
H186 H 0.4371 0.9223 0.4749
Cu3_2 Cu 0.61606(14) -0.16086(6) 0.31161(9)
N14_2 N 0.6273(8) 0.9181(4) 0.3111(5)
Cl11 Cl 0.9533(4) 0.3133(3) 0.5895(2)
O19 O 0.8753(17) 0.3132(9) 0.5668(9)
O20 O 0.9927(16) 0.2529(9) 0.6002(8)
O21 O 1.020(2) 0.3362(11) 0.5541(11)
O22 O 0.9256(11) 0.3381(6) 0.6384(6)
Cl12 Cl 0.6670(4) 0.2130(3) 0.9480(3)
O23 O 0.7704(13) 0.2122(7) 0.9176(7)
O24 O 0.6079(18) 0.2098(9) 0.9126(9)
O25 O 0.667(2) 0.1706(14) 0.9908(13)
O26 O 0.6223(16) 0.2577(9) 0.9845(9)
Cl13 Cl 1.0074(8) 0.4213(3) 0.8787(5)
O27 O 1.024(2) 0.3926(12) 0.9303(12)
O28 O 1.104(3) 0.4470(14) 0.8561(14)
O29 O 0.917(3) 0.4583(17) 0.8813(15)
O30 O 1.0108(16) 0.3712(10) 0.8526(9)
Cl14 Cl 0.4253(3) 0.02270(15) 0.12867(14)
O31 O 0.4802(13) -0.0088(7) 0.1679(7)
O32 O 0.4314(10) 0.0780(6) 0.1151(6)
O33 O 0.3195(14) 0.0299(7) 0.1483(7)
O34 O 0.4447(9) -0.0063(5) 0.0809(5)
Cl15 Cl 0.4175(7) 0.4302(4) 0.5505(4)
O35 O 0.451(2) 0.3790(15) 0.5275(14)
O36 O 0.3510(15) 0.4232(8) 0.6047(8)
O37 O 0.5040(18) 0.4502(10) 0.5601(10)
O38 O 0.370(3) 0.4842(17) 0.5196(16)
Cl16 Cl 0.3356(6) 0.9230(3) 0.8520(3)
O39 O 0.4065(17) 0.8689(9) 0.8702(9)
O40 O 0.3616(19) 0.9621(11) 0.8760(11)
O41 O 0.314(2) 0.9427(12) 0.7938(12)
O42 O 0.2385(17) 0.9126(9) 0.8684(9)
O43 O -0.068(2) 0.9491(12) 0.9266(12)
N19 N -0.024(3) 0.9374(15) 0.8375(17)
C215 C 0.000(2) 0.9449(12) 0.8808(13)
C216 C -0.094(3) 0.8942(16) 0.8235(16)
C217 C 0.042(3) 0.9329(14) 0.7874(14)
O44 O 0.555(4) 0.667(2) 0.487(2)
N20 N 0.447(4) 0.608(2) 0.4749(17)
C218 C 0.355(3) 0.6035(17) 0.4615(17)
C219 C 0.456(4) 0.659(2) 0.481(2)
C220 C 0.536(7) 0.571(4) 0.476(3)
O45 O 0.894(2) 0.5321(14) 0.5924(12)
N21 N 1.058(2) 0.4995(12) 0.5672(10)
C221 C 0.965(4) 0.491(2) 0.5780(18)
C222 C 1.094(3) 0.5507(15) 0.5726(14)
C223 C 1.143(2) 0.4482(14) 0.5554(13)
O46 O 0.400(3) 0.3881(15) 0.8080(16)
N22 N 0.359(3) 0.3924(14) 0.8983(15)
C224 C 0.322(5) 0.407(2) 0.846(3)
C225 C 0.256(4) 0.4164(19) 0.9402(19)
C226 C 0.460(3) 0.3607(17) 0.9096(16)
N23 N 0.709(3) 0.5808(17) 0.7690(18)
O47 O 0.706(3) 0.5702(15) 0.6765(16)
C227 C 0.752(3) 0.5663(19) 0.816(2)
C228 C 0.614(4) 0.627(2) 0.766(2)
C229 C 0.723(5) 0.556(3) 0.727(3)
O48 O 0.992(2) 0.9308(13) 0.2428(13)
O49 O -0.387(4) 0.940(2) 0.902(2)
O50 O 1.389(3) -0.0880(14) 0.6382(15)
C230 C 1.201(4) -0.082(2) 0.646(2)
C231 C 1.300(4) -0.0837(18) 0.6719(18)
O51 O 0.607(2) 0.5380(12) 0.6004(12)
C232 C 0.529(3) 0.5198(14) 0.6458(14)
C233 C 0.427(5) 0.511(3) 0.688(3)
O52 O 0.125(4) 0.764(2) 0.926(3)
C234 C 0.088(5) 0.751(3) 0.991(3)
C235 C 0.035(8) 0.810(5) 0.993(4)
O53 O 0.690(4) 0.423(2) 0.767(2)
C236 C 0.654(3) 0.4250(17) 0.8330(18)
C237 C 0.727(3) 0.3825(19) 0.8576(18)
O54 O 0.435(4) -0.309(2) 0.654(2)
C238 C 0.418(9) -0.248(5) 0.728(5)
C239 C 0.398(9) -0.281(5) 0.694(4)
O55 O -0.005(7) 0.569(4) 0.419(4)
C240 C -0.074(9) 0.558(5) 0.354(5)
C241 C 0.002(13) 0.554(6) 0.372(5)
O56 O 0.6311(18) 0.4963(10) 0.1719(9)
C242 C 0.707(3) 0.4578(14) 0.1555(12)
C243 C 0.788(2) 0.4904(12) 0.1463(11)
C244 C 0.527(2) 0.4830(10) 0.1852(10)
C245 C 0.435(4) 0.526(2) 0.1950(19)
O57 O 0.248(3) 0.7753(19) 0.8660(18)
O58 O 0.196(3) -0.3079(16) 0.7182(15)
O59 O 0.240(3) 0.6375(19) 0.1127(19)
O60 O 0.085(4) 0.458(2) 0.056(2)
O61 O 0.123(3) 0.5437(17) 0.0918(17)
O62 O 0.435(7) 0.641(4) 0.567(4)
O63 O 0.224(9) 0.759(5) 0.215(5)
O64 O 0.033(8) -0.287(5) 0.549(5)
O65 O 0.160(4) -0.264(2) 0.583(2)
O66 O 0.140(6) 0.759(3) 0.146(3)
O67 O 0.090(5) 0.764(3) 0.076(3)
O68? O 0.8553(9) 1.1974(5) 0.2642(6)
N24? N 0.8330(15) 1.1733(8) 0.3594(8)
C246? C 0.8481(11) 1.2114(6) 0.3096(6)
C247? C 0.8163(8) 1.2147(4) 0.3995(4)
C248? C 0.828(3) 1.1098(19) 0.4151(19)
O69? O 0.772(4) 0.947(2) 0.489(2)
N25? N 0.761(7) 1.007(4) 0.530(4)
C249? C 0.827(5) 0.955(3) 0.475(3)
C250? C 0.790(3) 1.0489(19) 0.4708(19)
C251? C 0.646(6) 1.039(3) 0.574(3)
O70? O 0.151(3) 0.8376(18) 0.3808(17)
N26? N 0.2316(12) 0.7866(7) 0.4077(8)
C252? C 0.260(2) 0.7887(13) 0.3383(14)
C253? C 0.280(2) 0.8323(11) 0.3950(11)
C254? C 0.2193(11) 0.8083(6) 0.3821(6)
C255? C 0.9262(18) 0.9406(9) 0.2112(10)
C256? C 1.030(3) 0.9078(17) 0.1645(17)
O71? O 0.7488(5) 0.5334(3) 0.5976(3)
C257? C 0.7504(7) 0.5066(4) 0.6211(4)
C258? C 0.793(2) 0.4398(12) 0.6549(12)
C259? C -0.445(7) 0.917(4) 0.976(4)
O72? O 0.906(4) 0.669(3) 0.219(2)
C260? C 0.877(7) 0.624(4) 0.204(4)
C261? C 0.838(6) 0.662(4) 0.169(4)
O73? O 1.679(5) 0.067(3) 0.809(3)
C262? C 1.672(3) 0.1087(18) 0.8244(16)
C263? C 1.591(3) 0.1221(16) 0.8115(15)
O74? O 0.865(2) 0.4270(13) 0.4388(13)
C264? C 0.766(3) 0.4288(15) 0.4905(16)
C265? C 0.723(3) 0.3870(16) 0.4596(15)
O75? O 0.885(2) 1.2171(11) 0.2162(12)
O76? O 0.255(6) 0.593(3) 0.431(3)
O77? O 0.771(3) 0.4763(15) 0.5382(15)
C266? C -0.443(10) 0.889(6) 0.954(6)
loop_
_geom_bond_atom_site_label_1
_geom_bond_atom_site_label_2
_geom_bond_site_symmetry_1
_geom_bond_site_symmetry_2
Cu1 O5 1_555 1_555
Cl1 C11 1_555 1_555
Cl2 C26 1_555 1_555
Cl3 C49 1_555 1_555
Cl4 C62 1_555 1_555
O1 C16 1_555 1_555
O2 C21 1_555 1_555
O3 C54 1_555 1_555
O4 C67 1_555 1_555
O5 C75 1_555 1_555
O6 Cu1 1_555 1_555
N1 Cu1 1_555 1_555
N2 C34 1_555 1_555
N3 Cu1 1_555 1_555
N4 C70 1_555 1_555
N5 C75 1_555 1_555
N6 C78 1_555 1_555
C1 N1 1_555 1_555
H1 C1 1_555 1_555
C2 C1 1_555 1_555
H2 C2 1_555 1_555
C3 C2 1_555 1_555
C4 C3 1_555 1_555
H3 C4 1_555 1_555
C5 N1 1_555 1_555
H4 C5 1_555 1_555
C6 C3 1_555 1_555
C7 C6 1_555 1_555
C8 C7 1_555 1_555
C9 C8 1_555 1_555
C10 C9 1_555 1_555
H5 C10 1_555 1_555
C11 C10 1_555 1_555
C12 C11 1_555 1_555
H6 C12 1_555 1_555
C13 C12 1_555 1_555
H7 C13 1_555 1_555
C14 C9 1_555 1_555
C15 C14 1_555 1_555
C16 C15 1_555 1_555
C17 C8 1_555 1_555
H8 C17 1_555 1_555
C18 O1 1_555 1_555
H9 C18 1_555 1_555
H10 C18 1_555 1_555
C19 C18 1_555 1_555
H11 C19 1_555 1_555
H12 C19 1_555 1_555
H13 C19 1_555 1_555
C20 H14 1_555 1_555
H15 C20 1_555 1_555
H16 C20 1_555 1_555
C21 C20 1_555 1_555
H17 C21 1_555 1_555
H18 C21 1_555 1_555
C22 C15 1_555 1_555
C23 C22 1_555 1_555
C24 C23 1_555 1_555
H19 C24 1_555 1_555
C25 C24 1_555 1_555
H20 C25 1_555 1_555
C26 C25 1_555 1_555
C27 C26 1_555 1_555
H21 C27 1_555 1_555
C28 C23 1_555 1_555
C29 C28 1_555 1_555
C30 C29 1_555 1_555
H22 C30 1_555 1_555
C31 O2 1_555 1_555
C32 C29 1_555 1_555
C33 C32 1_555 1_555
C34 H23 1_555 1_555
C35 C34 1_555 1_555
H24 C35 1_555 1_555
C36 C33 1_555 1_555
C37 C36 1_555 1_555
H25 C37 1_555 1_555
C38 N2 1_555 1_555
H26 C38 1_555 1_555
C39 N3 1_555 1_555
H27 C39 1_555 1_555
C40 C39 1_555 1_555
H28 C40 1_555 1_555
C41 C40 1_555 1_555
C42 C41 1_555 1_555
H29 C42 1_555 1_555
C43 N3 1_555 1_555
H30 C43 1_555 1_555
C44 C41 1_555 1_555
C45 C44 1_555 1_555
C46 C45 1_555 1_555
C47 C46 1_555 1_555
C48 C47 1_555 1_555
H31 C48 1_555 1_555
C49 C48 1_555 1_555
C50 C49 1_555 1_555
H32 C50 1_555 1_555
C51 C50 1_555 1_555
H33 C51 1_555 1_555
C52 C47 1_555 1_555
C53 C52 1_555 1_555
C54 C53 1_555 1_555
C55 C46 1_555 1_555
H34 C55 1_555 1_555
C56 O3 1_555 1_555
H35 C56 1_555 1_555
H36 C56 1_555 1_555
C57 C56 1_555 1_555
H37 C57 1_555 1_555
H38 C57 1_555 1_555
H39 C57 1_555 1_555
C58 C53 1_555 1_555
C59 C58 1_555 1_555
C60 C59 1_555 1_555
H40 C60 1_555 1_555
C61 C60 1_555 1_555
H41 C61 1_555 1_555
C62 C61 1_555 1_555
C63 C62 1_555 1_555
H42 C63 1_555 1_555
C64 C59 1_555 1_555
C65 C64 1_555 1_555
C66 C65 1_555 1_555
H43 C66 1_555 1_555
C67 C58 1_555 1_555
C68 C65 1_555 1_555
C69 C68 1_555 1_555
C70 H44 1_555 1_555
C71 C70 1_555 1_555
H45 C71 1_555 1_555
C72 C69 1_555 1_555
C73 C72 1_555 1_555
H46 C73 1_555 1_555
C74 N4 1_555 1_555
H47 C74 1_555 1_555
C75 H48 1_555 1_555
C76 N5 1_555 1_555
H49 C76 1_555 1_555
H50 C76 1_555 1_555
H51 C76 1_555 1_555
C77 N5 1_555 1_555
H52 C77 1_555 1_555
H53 C77 1_555 1_555
H54 C77 1_555 1_555
C78 O6 1_555 1_555
H55 C78 1_555 1_555
C79 N6 1_555 1_555
H56 C79 1_555 1_555
H57 C79 1_555 1_555
H58 C79 1_555 1_555
C80 N6 1_555 1_555
H59 C80 1_555 1_555
H60 C80 1_555 1_555
H61 C80 1_555 1_555
C81 H62 1_555 1_555
H63 C81 1_555 1_555
H64 C81 1_555 1_555
C82 O4 1_555 1_555
H65 C82 1_555 1_555
H66 C82 1_555 1_555
Cu2 O11 1_555 1_555
Cl5 C93 1_555 1_555
Cl6 C106 1_555 1_555
Cl7 C130 1_555 1_555
Cl8 C140 1_555 1_555
O7 C98 1_555 1_555
O8 C111 1_555 1_555
O9 C133 1_555 1_555
O10 C145 1_555 1_555
O11 C155 1_555 1_555
O12 Cu2 1_555 1_555
N7 Cu2 1_555 1_555
N8 C114 1_555 1_555
N9 Cu2 1_555 1_555
N10 C150 1_555 1_555
N11 C155 1_555 1_555
N12 C158 1_555 1_555
C83 N7 1_555 1_555
H67 C83 1_555 1_555
C84 C83 1_555 1_555
H68 C84 1_555 1_555
C85 C84 1_555 1_555
C86 C85 1_555 1_555
H69 C86 1_555 1_555
C87 N7 1_555 1_555
H70 C87 1_555 1_555
C88 C85 1_555 1_555
C89 C88 1_555 1_555
C90 C89 1_555 1_555
C91 C90 1_555 1_555
C92 C91 1_555 1_555
H71 C92 1_555 1_555
C93 C92 1_555 1_555
C94 C93 1_555 1_555
H72 C94 1_555 1_555
C95 C94 1_555 1_555
H73 C95 1_555 1_555
C96 C91 1_555 1_555
C97 C96 1_555 1_555
C98 C97 1_555 1_555
C99 C90 1_555 1_555
H74 C99 1_555 1_555
C100 O7 1_555 1_555
H75 C100 1_555 1_555
H76 C100 1_555 1_555
C101 C100 1_555 1_555
H77 C101 1_555 1_555
H78 C101 1_555 1_555
H79 C101 1_555 1_555
C102 C97 1_555 1_555
C103 C102 1_555 1_555
C104 C103 1_555 1_555
H80 C104 1_555 1_555
C105 C104 1_555 1_555
H81 C105 1_555 1_555
C106 C105 1_555 1_555
C107 C106 1_555 1_555
H82 C107 1_555 1_555
C108 C103 1_555 1_555
C109 C108 1_555 1_555
C110 C109 1_555 1_555
H83 C110 1_555 1_555
C111 C102 1_555 1_555
C112 C109 1_555 1_555
C113 C112 1_555 1_555
C114 H84 1_555 1_555
C115 C114 1_555 1_555
H85 C115 1_555 1_555
C116 C113 1_555 1_555
C117 C116 1_555 1_555
H86 C117 1_555 1_555
C118 N8 1_555 1_555
H87 C118 1_555 1_555
C119 H88 1_555 1_555
H89 C119 1_555 1_555
H90 C119 1_555 1_555
C120 O8 1_555 1_555
H91 C120 1_555 1_555
H92 C120 1_555 1_555
C121 N9 1_555 1_555
H93 C121 1_555 1_555
C122 C121 1_555 1_555
H94 C122 1_555 1_555
C123 C122 1_555 1_555
C124 C123 1_555 1_555
H95 C124 1_555 1_555
C125 N9 1_555 1_555
H96 C125 1_555 1_555
C126 C123 1_555 1_555
C127 C126 1_555 1_555
C128 C127 1_555 1_555
C129 H97 1_555 1_555
C130 C129 1_555 1_555
C131 C132 1_555 1_555
C132 C135 1_555 1_555
C133 C131 1_555 1_555
C134 C128 1_555 1_555
H98 C134 1_555 1_555
C135 H99 1_555 1_555
C136 C131 1_555 1_555
C137 C136 1_555 1_555
C138 C137 1_555 1_555
H100 C138 1_555 1_555
C139 C138 1_555 1_555
H101 C139 1_555 1_555
C140 C139 1_555 1_555
C141 C140 1_555 1_555
H102 C141 1_555 1_555
C142 C137 1_555 1_555
C143 C142 1_555 1_555
C144 C143 1_555 1_555
H103 C144 1_555 1_555
C145 C136 1_555 1_555
C146 O9 1_555 1_555
H104 C146 1_555 1_555
H105 C146 1_555 1_555
C147 C146 1_555 1_555
H106 C147 1_555 1_555
H107 C147 1_555 1_555
H108 C147 1_555 1_555
C148 C143 1_555 1_555
C149 C148 1_555 1_555
C150 H109 1_555 1_555
C151 C150 1_555 1_555
H110 C151 1_555 1_555
C152 C149 1_555 1_555
C153 C152 1_555 1_555
H111 C153 1_555 1_555
C154 N10 1_555 1_555
H112 C154 1_555 1_555
C155 H113 1_555 1_555
C156 N11 1_555 1_555
H114 C156 1_555 1_555
H115 C156 1_555 1_555
H116 C156 1_555 1_555
C157 N11 1_555 1_555
H117 C157 1_555 1_555
H118 C157 1_555 1_555
H119 C157 1_555 1_555
C158 O12 1_555 1_555
H120 C158 1_555 1_555
C159 N12 1_555 1_555
H121 C159 1_555 1_555
H122 C159 1_555 1_555
H123 C159 1_555 1_555
C160 N12 1_555 1_555
H124 C160 1_555 1_555
H125 C160 1_555 1_555
H126 C160 1_555 1_555
C161 C130 1_555 1_555
H127 C161 1_555 1_555
C162 C128 1_555 1_555
C163 O10 1_555 1_555
H128 C163 1_555 1_555
H129 C163 1_555 1_555
C164 C163 1_555 1_555
H130 C164 1_555 1_555
H131 C164 1_555 1_555
H132 C164 1_555 1_555
Cu3 O15 1_555 1_555
Cl9 C176 1_555 1_555
Cl10 C191 1_555 1_555
O13 C181 1_555 1_555
O14 C186 1_555 1_555
O15 C204 1_555 1_555
O16 Cu3 1_555 1_555
O17 Cu3 1_555 1_555
O18 Cu3 1_555 1_555
N13 Cu3 1_555 1_555
N14 C199 1_555 1_555
N15 C204 1_555 1_555
N16 C210 1_555 1_555
N17 C208 1_555 1_555
C165 H133 1_555 1_555
H134 C165 1_555 1_555
H135 C165 1_555 1_555
C166 N13 1_555 1_555
H136 C166 1_555 1_555
C167 C166 1_555 1_555
H137 C167 1_555 1_555
C168 C167 1_555 1_555
C169 C168 1_555 1_555
H138 C169 1_555 1_555
C170 N13 1_555 1_555
H139 C170 1_555 1_555
C171 C168 1_555 1_555
C172 C171 1_555 1_555
C173 C172 1_555 1_555
C174 C173 1_555 1_555
C175 C174 1_555 1_555
H140 C175 1_555 1_555
C176 C175 1_555 1_555
C177 C176 1_555 1_555
H141 C177 1_555 1_555
C178 C177 1_555 1_555
H142 C178 1_555 1_555
C179 C174 1_555 1_555
C180 C179 1_555 1_555
C181 C180 1_555 1_555
C182 C173 1_555 1_555
H143 C182 1_555 1_555
C183 O13 1_555 1_555
H144 C183 1_555 1_555
H145 C183 1_555 1_555
C184 C183 1_555 1_555
H146 C184 1_555 1_555
H147 C184 1_555 1_555
H148 C184 1_555 1_555
C185 H149 1_555 1_555
H150 C185 1_555 1_555
H151 C185 1_555 1_555
C186 C185 1_555 1_555
H152 C186 1_555 1_555
H153 C186 1_555 1_555
C187 C180 1_555 1_555
C188 C187 1_555 1_555
C189 C188 1_555 1_555
H154 C189 1_555 1_555
C190 C189 1_555 1_555
H155 C190 1_555 1_555
C191 C190 1_555 1_555
C192 C191 1_555 1_555
H156 C192 1_555 1_555
C193 C188 1_555 1_555
C194 C193 1_555 1_555
C195 C194 1_555 1_555
H157 C195 1_555 1_555
C196 O14 1_555 1_555
C197 C194 1_555 1_555
C198 C197 1_555 1_555
C199 H158 1_555 1_555
C200 C199 1_555 1_555
H159 C200 1_555 1_555
C201 C198 1_555 1_555
C202 C201 1_555 1_555
H160 C202 1_555 1_555
C203 N14 1_555 1_555
H161 C203 1_555 1_555
C204 H162 1_555 1_555
C205 N15 1_555 1_555
H163 C205 1_555 1_555
H164 C205 1_555 1_555
H165 C205 1_555 1_555
C206 N15 1_555 1_555
H166 C206 1_555 1_555
H167 C206 1_555 1_555
H168 C206 1_555 1_555
C207 O16 1_555 1_555
H169 C207 1_555 1_555
N18 C165 1_555 1_555
C208 O17 1_555 1_555
H170 C208 1_555 1_555
C209 N17 1_555 1_555
H171 C209 1_555 1_555
H172 C209 1_555 1_555
H173 C209 1_555 1_555
C210 H174 1_555 1_555
H175 C210 1_555 1_555
H176 C210 1_555 1_555
C211 O18 1_555 1_555
H177 C211 1_555 1_555
C212 N18 1_555 1_555
H178 C212 1_555 1_555
H179 C212 1_555 1_555
H180 C212 1_555 1_555
C213 N17 1_555 1_555
H181 C213 1_555 1_555
H182 C213 1_555 1_555
H183 C213 1_555 1_555
C214 N16 1_555 1_555
H184 C214 1_555 1_555
H185 C214 1_555 1_555
H186 C214 1_555 1_555
Cl11 O19 1_555 1_555
O20 Cl11 1_555 1_555
O21 Cl11 1_555 1_555
O22 Cl11 1_555 1_555
Cl12 O23 1_555 1_555
O24 Cl12 1_555 1_555
O25 Cl12 1_555 1_555
O26 Cl12 1_555 1_555
Cl13 O27 1_555 1_555
O28 Cl13 1_555 1_555
O29 Cl13 1_555 1_555
O30 Cl13 1_555 1_555
Cl14 O31 1_555 1_555
O32 Cl14 1_555 1_555
O33 Cl14 1_555 1_555
O34 Cl14 1_555 1_555
Cl15 O35 1_555 1_555
O36 Cl15 1_555 1_555
O37 Cl15 1_555 1_555
O38 Cl15 1_555 1_555
Cl16 O39 1_555 1_555
O40 Cl16 1_555 1_555
O41 Cl16 1_555 1_555
O42 Cl16 1_555 1_555
O43 C215 1_555 1_555
N19 C215 1_555 1_555
C216 N19 1_555 1_555
C217 N19 1_555 1_555
O44 C219 1_555 1_555
N20 C218 1_555 1_555
C219 N20 1_555 1_555
C220 N20 1_555 1_555
O45 C221 1_555 1_555
N21 C221 1_555 1_555
C222 N21 1_555 1_555
C223 N21 1_555 1_555
O46 C224 1_555 1_555
N22 C224 1_555 1_555
C225 N22 1_555 1_555
C226 N22 1_555 1_555
N23 C227 1_555 1_555
O47 C229 1_555 1_555
C228 N23 1_555 1_555
C229 N23 1_555 1_555
O50 C231 1_555 1_555
C230 C231 1_555 1_555
O51 C232 1_555 1_555
C232 C233 1_555 1_555
O52 C234 1_555 1_555
C234 C235 1_555 1_555
O53 C236 1_555 1_555
C236 C237 1_555 1_555
O54 C239 1_555 1_555
C238 C239 1_555 1_555
O55 C241 1_555 1_555
C240 C241 1_555 1_555
O56 C242 1_555 1_555
C242 C243 1_555 1_555
C244 O56 1_555 1_555
C245 C244 1_555 1_555
Cu1_2 N2 1_555 1_555
Cu1_3 N4 1_555 1_555
N2_2 Cu1 1_555 1_555
N4_2 Cu1 1_555 1_555
Cu2_2 N8 1_555 1_555
Cu2_3 N10 1_555 1_555
N8_2 Cu2 1_555 1_555
N10_2 Cu2 1_555 1_555
Cu3_2 N14 1_555 1_555
N14_2 Cu3 1_555 1_555
C4 C5 1_555 1_555
C13 C14 1_555 1_555
C16 C17 1_555 1_555
C22 C31 1_555 1_555
C27 C28 1_555 1_555
C30 C31 1_555 1_555
C35 C36 1_555 1_555
C37 C38 1_555 1_555
C42 C43 1_555 1_555
C51 C52 1_555 1_555
C54 C55 1_555 1_555
C63 C64 1_555 1_555
C66 C67 1_555 1_555
C71 C72 1_555 1_555
C73 C74 1_555 1_555
C81 C82 1_555 1_555
C86 C87 1_555 1_555
C95 C96 1_555 1_555
C98 C99 1_555 1_555
C107 C108 1_555 1_555
C110 C111 1_555 1_555
C115 C116 1_555 1_555
C117 C118 1_555 1_555
C119 C120 1_555 1_555
C124 C125 1_555 1_555
C129 C162 1_555 1_555
C132 C162 1_555 1_555
C133 C134 1_555 1_555
C135 C161 1_555 1_555
C141 C142 1_555 1_555
C144 C145 1_555 1_555
C151 C152 1_555 1_555
C153 C154 1_555 1_555
N16 C211 1_555 1_555
C169 C170 1_555 1_555
C178 C179 1_555 1_555
C181 C182 1_555 1_555
C187 C196 1_555 1_555
C192 C193 1_555 1_555
C195 C196 1_555 1_555
C200 C201 1_555 1_555
C202 C203 1_555 1_555
C207 N18 1_555 1_555

#END
