
#######################################################################
#
#                 Cambridge Crystallographic Data Centre
#                                CCDC 
#
#######################################################################
#
# If this CIF has been generated from an entry in the Cambridge 
# Structural Database, then it will include bibliographic, chemical, 
# crystal, experimental, refinement or atomic coordinate data resulting 
# from the CCDC's data processing and validation procedures.
#
#######################################################################

data_LOQYOH
_symmetry_cell_setting           monoclinic
_symmetry_space_group_name_H-M   'P 21/c'
_symmetry_Int_Tables_number      14
_space_group_name_Hall           '-P 2ybc'
loop_
_symmetry_equiv_pos_site_id
_symmetry_equiv_pos_as_xyz
1 x,y,z
2 -x,1/2+y,1/2-z
3 -x,-y,-z
4 x,1/2-y,1/2+z
_cell_length_a                   12.1050(9)
_cell_length_b                   14.6503(12)
_cell_length_c                   13.5713(14)
_cell_angle_alpha                90
_cell_angle_beta                 100.729(9)
_cell_angle_gamma                90
_cell_volume                     2364.69
loop_
_atom_site_label
_atom_site_type_symbol
_atom_site_fract_x
_atom_site_fract_y
_atom_site_fract_z
Ni1 Ni -0.25182(5) 0.99279(5) 0.52267(5)
O1 O -0.1793(3) 0.9117(2) 0.4406(2)
O2 O -0.3002(3) 0.7968(3) 0.3962(3)
O3 O 0.1432(3) 0.7628(2) 0.5332(2)
O4 O 0.3472(3) 0.6088(2) 0.8918(2)
O5 O 0.6636(3) 0.5836(2) 1.0989(2)
O6 O 0.7810(3) 0.7004(3) 1.1381(3)
N1 N -0.0230(3) 0.8427(3) 0.3541(3)
N2 N 0.1082(3) 0.9485(3) 0.3975(3)
N3 N 0.3538(3) 0.5695(3) 1.0835(3)
N4 N 0.4890(3) 0.6686(3) 1.1426(3)
C1 C -0.2084(4) 0.8330(4) 0.4053(3)
C2 C -0.1136(4) 0.7808(3) 0.3679(4)
H1 H -0.0840 0.7340 0.4162
H2 H -0.1438 0.7510 0.3048
C3 C -0.0257(4) 0.8966(3) 0.2707(3)
C4 C -0.0939(4) 0.8941(4) 0.1755(3)
H3 H -0.1475 0.8487 0.1571
C5 C -0.0772(4) 0.9622(4) 0.1112(4)
H4 H -0.1206 0.9628 0.0470
C6 C 0.0031(5) 1.0313(5) 0.1383(4)
H5 H 0.0096 1.0777 0.0929
C7 C 0.0728(5) 1.0313(4) 0.2315(4)
H6 H 0.1284 1.0753 0.2489
C8 C 0.0562(4) 0.9632(4) 0.2979(3)
C9 C 0.0560(3) 0.8782(3) 0.4283(3)
C10 C 0.0792(4) 0.8439(3) 0.5327(3)
H7 H 0.1210 0.8890 0.5769
H8 H 0.0094 0.8313 0.5553
C11 C 0.1932(4) 0.7297(4) 0.6260(3)
C12 C 0.2608(5) 0.6530(4) 0.6257(4)
H9 H 0.2698 0.6275 0.5649
C13 C 0.3142(5) 0.6148(4) 0.7135(4)
H10 H 0.3598 0.5638 0.7130
C14 C 0.2994(4) 0.6530(4) 0.8028(4)
C15 C 0.2333(4) 0.7280(4) 0.8042(4)
H11 H 0.2250 0.7530 0.8653
C16 C 0.1784(4) 0.7675(4) 0.7160(3)
H12 H 0.1326 0.8183 0.7173
C17 C 0.4291(4) 0.6608(4) 0.9572(4)
H13 H 0.4129 0.7254 0.9487
H14 H 0.5034 0.6494 0.9428
C18 C 0.4239(4) 0.6319(3) 1.0614(3)
C19 C 0.3778(4) 0.5630(3) 1.1886(3)
C20 C 0.3302(5) 0.5109(4) 1.2539(4)
H15 H 0.2717 0.4707 1.2306
C21 C 0.3720(5) 0.5201(4) 1.3551(4)
H16 H 0.3410 0.4856 1.4007
C22 C 0.4600(5) 0.5804(4) 1.3905(4)
H17 H 0.4870 0.5844 1.4592
C23 C 0.5071(4) 0.6332(4) 1.3270(4)
H18 H 0.5655 0.6735 1.3504
C24 C 0.4636(4) 0.6238(3) 1.2257(3)
C25 C 0.5898(4) 0.7233(3) 1.1425(4)
H19 H 0.6100 0.7546 1.2064
H20 H 0.5740 0.7693 1.0903
C26 C 0.6890(4) 0.6645(4) 1.1249(3)
Ni1A Ni 0.25182(5) 0.49279(5) 0.97733(5)
Ni1B Ni 0.25182(5) 1.00721(5) 0.47733(5)
Ni1C Ni 0.74818(5) 0.50721(5) 1.02267(5)
O4A O -0.3472(3) 1.1088(2) 0.6082(2)
O5C O -0.3364(3) 0.9164(2) 0.5989(2)
N2B N -0.1082(3) 1.0515(3) 0.6025(3)
N3A N -0.3538(3) 1.0695(3) 0.4165(3)
loop_
_geom_bond_atom_site_label_1
_geom_bond_atom_site_label_2
_geom_bond_site_symmetry_1
_geom_bond_site_symmetry_2
Ni1 O1 1_555 1_555
O1 C1 1_555 1_555
O2 C1 1_555 1_555
O3 C10 1_555 1_555
O4 C14 1_555 1_555
O5 C26 1_555 1_555
O6 C26 1_555 1_555
N1 C2 1_555 1_555
N2 C8 1_555 1_555
N3 C18 1_555 1_555
N4 C18 1_555 1_555
C1 C2 1_555 1_555
C2 H1 1_555 1_555
H2 C2 1_555 1_555
C3 N1 1_555 1_555
C4 C3 1_555 1_555
H3 C4 1_555 1_555
C5 C4 1_555 1_555
H4 C5 1_555 1_555
C6 C5 1_555 1_555
H5 C6 1_555 1_555
C7 C6 1_555 1_555
H6 C7 1_555 1_555
C8 C3 1_555 1_555
C9 N1 1_555 1_555
C10 C9 1_555 1_555
H7 C10 1_555 1_555
H8 C10 1_555 1_555
C11 O3 1_555 1_555
C12 C11 1_555 1_555
H9 C12 1_555 1_555
C13 C12 1_555 1_555
H10 C13 1_555 1_555
C14 C13 1_555 1_555
C15 C14 1_555 1_555
H11 C15 1_555 1_555
C16 C11 1_555 1_555
H12 C16 1_555 1_555
C17 O4 1_555 1_555
H13 C17 1_555 1_555
H14 C17 1_555 1_555
C18 C17 1_555 1_555
C19 N3 1_555 1_555
C20 C19 1_555 1_555
H15 C20 1_555 1_555
C21 C20 1_555 1_555
H16 C21 1_555 1_555
C22 C21 1_555 1_555
H17 C22 1_555 1_555
C23 C22 1_555 1_555
H18 C23 1_555 1_555
C24 N4 1_555 1_555
C25 N4 1_555 1_555
H19 C25 1_555 1_555
H20 C25 1_555 1_555
C26 C25 1_555 1_555
Ni1A O4 1_555 1_555
Ni1B N2 1_555 1_555
Ni1C O5 1_555 1_555
O4A Ni1 1_555 1_555
O5C Ni1 1_555 1_555
N2B Ni1 1_555 1_555
N3A Ni1 1_555 1_555
N2 C9 1_555 1_555
N3 Ni1A 1_555 1_555
C7 C8 1_555 1_555
C15 C16 1_555 1_555
C19 C24 1_555 1_555
C23 C24 1_555 1_555

#END
