
#######################################################################
#
#                 Cambridge Crystallographic Data Centre
#                                CCDC 
#
#######################################################################
#
# If this CIF has been generated from an entry in the Cambridge 
# Structural Database, then it will include bibliographic, chemical, 
# crystal, experimental, refinement or atomic coordinate data resulting 
# from the CCDC's data processing and validation procedures.
#
#######################################################################

data_LOQYEW
_symmetry_cell_setting           monoclinic
_symmetry_space_group_name_H-M   'C 2'
_symmetry_Int_Tables_number      5
_space_group_name_Hall           'C 2y'
loop_
_symmetry_equiv_pos_site_id
_symmetry_equiv_pos_as_xyz
1 x,y,z
2 -x,y,-z
3 1/2+x,1/2+y,z
4 1/2-x,1/2+y,-z
_cell_length_a                   45.8522(6)
_cell_length_b                   18.7196(3)
_cell_length_c                   34.03470(10)
_cell_angle_alpha                90
_cell_angle_beta                 111.2480(10)
_cell_angle_gamma                90
_cell_volume                     27227.3
loop_
_atom_site_label
_atom_site_type_symbol
_atom_site_fract_x
_atom_site_fract_y
_atom_site_fract_z
Cu1 Cu 0.56904(3) 0.79647(11) -0.30876(4)
Cu2 Cu 0.83435(3) 1.00486(10) 1.20335(4)
Cu3 Cu 0.64893(6) 1.13074(17) 0.42809(5)
O1 O 0.5423(2) 0.8944(4) -0.3474(3)
C1 C 0.5226(4) 0.8874(11) -0.3795(5)
N1 N 0.5127(3) 0.9456(8) -0.4073(4)
C2 C 0.4846(5) 0.9344(13) -0.4470(6)
C3 C 0.5177(4) 1.0178(10) -0.3907(6)
O2 O 0.84885(19) 0.8902(4) 1.2007(3)
C4 C 0.8646(7) 0.8515(14) 1.2289(8)
N2 N 0.8670(9) 0.7777(15) 1.2264(11)
C5 C 0.8604(14) 0.760(3) 1.1794(12)
C6 C 0.8958(10) 0.739(2) 1.2507(13)
O3 O 0.6956(3) 1.1310(8) 0.4380(4)
C7 C 0.7016(3) 1.0642(8) 0.4381(4)
N3 N 0.7326(4) 1.0488(9) 0.4481(5)
C8 C 0.7502(4) 0.9827(9) 0.4536(6)
C9 C 0.7501(5) 1.1119(10) 0.4510(7)
O4 O 0.6395(3) 1.0277(6) 0.4296(3)
C10 C 0.6301(3) 0.9687(8) 0.4270(4)
N4 N 0.6234(3) 0.9000(8) 0.4257(4)
C11 C 0.6510(5) 0.8545(11) 0.4365(7)
C12 C 0.5935(5) 0.8605(13) 0.4096(8)
O5 O 0.6724(7) 1.2277(13) 0.4329(10)
C13 C 0.6557(4) 1.2749(9) 0.4226(5)
N5 N 0.6622(5) 1.3493(10) 0.4300(8)
C14 C 0.6955(6) 1.3631(15) 0.4534(9)
C15 C 0.6446(6) 1.4105(13) 0.4085(9)
Cl1 Cl 0.8186(2) 1.2091(5) 1.1779(3)
O6 O 0.81900(18) 1.1382(4) 1.2082(2)
O7 O 0.8514(3) 1.2389(8) 1.1840(5)
O8 O 0.8008(5) 1.2598(10) 1.1921(6)
O9 O 0.8067(6) 1.1852(13) 1.1308(6)
O10 O 0.6027(5) 1.1257(12) 0.4171(7)
C16 C 0.5978(4) 1.1895(10) 0.4178(5)
C17 C 0.5632(5) 1.2141(15) 0.4041(10)
O11 O 0.5668(2) 0.7433(8) -0.3605(3)
O12 O 0.85136(15) 1.0108(4) 1.26609(19)
O13 O 0.6000(2) 0.6864(5) -0.2723(3)
Cl2 Cl 0.43422(19) 0.3246(4) -0.3086(3)
Cl3 Cl 0.20627(10) 0.4782(3) -0.46451(11)
Cl4 Cl 0.49820(11) 1.1467(3) -0.10650(12)
Cl5 Cl 0.72229(10) 1.1484(3) 0.17162(13)
Cl6 Cl 0.59325(9) 1.0463(3) 0.69083(13)
Cl7 Cl 0.74486(19) 1.3230(4) 0.9539(2)
Cl8 Cl 1.06168(13) 0.9500(3) 1.18614(17)
Cl9 Cl 1.17505(10) 1.4384(2) 1.35192(13)
O14 O 0.32013(19) 0.6591(5) -0.3024(3)
O15 O 0.33105(17) 0.5034(5) -0.2259(2)
O16 O 0.63075(17) 0.8877(4) 0.05072(19)
O17 O 0.55409(14) 0.9500(4) 0.07075(17)
O18 O 0.77669(19) 1.1278(6) 0.7946(2)
O19 O 0.75181(16) 0.9593(5) 0.8296(2)
O20 O 1.03566(13) 1.3791(3) 1.18824(19)
O21 O 1.07655(14) 1.2813(4) 1.11870(18)
C18 C 1.06074(10) 1.2708(3) 1.19043(18)
C19 C 1.03410(13) 1.3082(2) 1.19066(19)
C20 C 1.00744(11) 1.2702(3) 1.19026(19)
H1 H 0.9895 1.2954 1.1904
C21 C 1.00742(10) 1.1949(3) 1.18964(19)
C22 C 1.03406(13) 1.1576(2) 1.18942(19)
C23 C 1.06073(10) 1.1955(3) 1.18982(18)
C24 C 1.08669(18) 1.1562(5) 1.1906(3)
H2 H 1.1048 1.1819 1.1916
C25 C 1.0880(2) 1.0839(6) 1.1900(3)
H3 H 1.1059 1.0599 1.1889
C26 C 1.0621(3) 1.0461(5) 1.1911(4)
C27 C 1.0343(2) 1.0832(5) 1.1880(3)
H4 H 1.0159 1.0572 1.1849
C28 C 1.08877(10) 1.3150(3) 1.19076(16)
C29 C 1.09698(12) 1.3151(3) 1.15464(13)
C30 C 1.12559(13) 1.3454(3) 1.15648(14)
H5 H 1.1311 1.3455 1.1321
C31 C 1.14599(10) 1.3757(3) 1.19443(17)
C32 C 1.13778(11) 1.3756(3) 1.23054(14)
C33 C 1.10917(11) 1.3452(3) 1.22871(14)
C34 C 1.10112(19) 1.3450(5) 1.2656(3)
H6 H 1.0817 1.3262 1.2647
C35 C 1.1222(2) 1.3727(6) 1.3023(3)
H7 H 1.1166 1.3726 1.3267
C36 C 1.1510(2) 1.4009(7) 1.3059(3)
C37 C 1.15868(18) 1.4027(5) 1.2695(3)
H8 H 1.1782 1.4224 1.2709
C38 C 0.74034(14) 1.0822(4) 0.83931(16)
C39 C 0.75015(16) 1.0131(4) 0.8550(2)
C40 C 0.76083(18) 1.0001(4) 0.8988(2)
H9 H 0.7674 0.9535 0.9094
C41 C 0.76171(18) 1.0562(5) 0.92682(16)
C42 C 0.75191(18) 1.1253(4) 0.9111(2)
C43 C 0.74122(17) 1.1383(4) 0.8673(2)
C44 C 0.7301(3) 1.2036(7) 0.8501(4)
H10 H 0.7218 1.2087 0.8203
C45 C 0.7306(3) 1.2636(7) 0.8758(4)
H11 H 0.7223 1.3088 0.8645
C46 C 0.7445(5) 1.2508(8) 0.9196(5)
C47 C 0.7517(4) 1.1833(8) 0.9374(3)
H12 H 0.7565 1.1763 0.9667
C48 C 0.72748(16) 1.0879(5) 0.79196(15)
C49 C 0.74790(13) 1.1125(6) 0.7723(2)
C50 C 0.73634(16) 1.1264(6) 0.7286(2)
H13 H 0.7501 1.1429 0.7154
C51 C 0.70437(17) 1.1159(6) 0.70460(15)
C52 C 0.68395(13) 1.0913(5) 0.72425(19)
C53 C 0.69551(15) 1.0774(5) 0.7679(2)
C54 C 0.6757(2) 1.0551(6) 0.7873(3)
H14 H 0.6835 1.0479 0.8169
C55 C 0.6434(2) 1.0426(6) 0.7635(3)
H15 H 0.6297 1.0282 0.7773
C56 C 0.6321(2) 1.0516(8) 0.7194(3)
C57 C 0.6521(2) 1.0785(7) 0.7009(3)
H16 H 0.6441 1.0886 0.6715
C58 C 0.60340(14) 0.9987(4) 0.07558(15)
C59 C 0.58093(12) 0.9856(4) 0.09407(18)
C60 C 0.58685(14) 1.0066(4) 0.13604(18)
H17 H 0.5717 0.9977 0.1485
C61 C 0.61524(16) 1.0407(4) 0.15953(15)
C62 C 0.63771(13) 1.0539(4) 0.14104(19)
C63 C 0.63179(14) 1.0329(4) 0.09906(19)
C64 C 0.6538(2) 1.0476(6) 0.0799(3)
H18 H 0.6494 1.0347 0.0513
C65 C 0.6819(2) 1.0807(7) 0.1027(4)
H19 H 0.6969 1.0897 0.0900
C66 C 0.6880(2) 1.1006(7) 0.1443(3)
C67 C 0.6653(2) 1.0896(7) 0.1630(3)
H20 H 0.6690 1.1068 0.1907
C68 C 0.59487(14) 0.9805(3) 0.02982(13)
C69 C 0.61152(13) 0.9251(3) 0.01922(16)
C70 C 0.60551(14) 0.9088(3) -0.02346(18)
H21 H 0.6167 0.8715 -0.0306
C71 C 0.58285(15) 0.9480(4) -0.05555(13)
C72 C 0.56620(15) 1.0034(4) -0.04495(16)
C73 C 0.57221(15) 1.0197(3) -0.00227(18)
C74 C 0.5546(2) 1.0731(5) 0.0070(3)
H22 H 0.5582 1.0837 0.0357
C75 C 0.5323(3) 1.1108(6) -0.0240(3)
H23 H 0.5207 1.1470 -0.0166
C76 C 0.5264(2) 1.0959(6) -0.0674(3)
C77 C 0.5441(2) 1.0419(5) -0.0774(3)
H24 H 0.5411 1.0319 -0.1060
C78 C 0.93130(11) 1.0992(4) 1.1973(2)
C79 C 0.93265(11) 1.0411(4) 1.2243(2)
H25 H 0.9523 1.0213 1.2410
C80 C 0.90483(14) 1.0125(3) 1.2264(2)
H26 H 0.9057 0.9734 1.2446
N6 N 0.87565(11) 1.0419(3) 1.20158(18)
C81 C 0.87430(11) 1.0999(4) 1.1746(2)
H27 H 0.8546 1.1198 1.1578
C82 C 0.90213(14) 1.1286(4) 1.1724(2)
H28 H 0.9012 1.1677 1.1543
C83 C 0.95543(19) 1.1378(6) 1.1912(3)
C84 C 0.9793(2) 1.1620(6) 1.1913(3)
C85 C 1.1763(2) 1.4015(6) 1.1967(3)
C86 C 1.2014(2) 1.4126(7) 1.1988(3)
C87 C 1.23255(13) 1.4323(5) 1.2012(3)
C88 C 1.24824(16) 1.4897(4) 1.2270(2)
H29 H 1.2387 1.5145 1.2435
C89 C 1.27815(15) 1.5104(4) 1.2283(2)
H30 H 1.2887 1.5491 1.2457
N7 N 0.79235(12) 0.9736(4) 1.2038(2)
C90 C 0.77666(16) 0.9161(4) 1.1780(3)
H31 H 0.7862 0.8913 1.1615
C91 C 1.24675(16) 1.3955(4) 1.1767(3)
H32 H 1.2362 1.3567 1.1593
C92 C 0.3587(3) 0.4169(7) -0.2958(4)
H33 H 0.3397 0.3991 -0.2945
C93 C 0.3814(3) 0.3713(7) -0.2989(5)
H34 H 0.3783 0.3211 -0.2987
C94 C 0.33991(14) 0.5365(5) -0.2964(3)
C95 C 0.34279(16) 0.6107(4) -0.3011(2)
C96 C 0.3704(2) 0.6388(4) -0.3041(3)
H35 H 0.3724 0.6888 -0.3073
C97 C 0.39520(15) 0.5927(5) -0.3024(3)
C98 C 0.39232(16) 0.5185(5) -0.2976(3)
C99 C 0.36467(19) 0.4904(4) -0.2947(3)
C100 C 0.4085(4) 0.3972(9) -0.3024(8)
C101 C 0.4161(3) 0.4712(9) -0.2974(7)
H36 H 0.4364 0.4879 -0.2941
C102 C 0.25043(14) 0.4673(5) -0.3031(2)
C103 C 0.27530(18) 0.4717(5) -0.26387(19)
H37 H 0.2720 0.4589 -0.2388
C104 C 0.30505(15) 0.4951(6) -0.26186(18)
C105 C 0.30992(14) 0.5140(6) -0.2991(2)
C106 C 0.28505(18) 0.5096(5) -0.33836(19)
C107 C 0.25530(15) 0.4863(5) -0.34037(18)
C108 C 0.2302(3) 0.4796(7) -0.3800(3)
H38 H 0.2108 0.4602 -0.3810
C109 C 0.2337(3) 0.5009(8) -0.4170(3)
C110 C 0.2626(3) 0.5312(9) -0.4150(4)
H39 H 0.2648 0.5515 -0.4393
C111 C 0.2879(2) 0.5308(7) -0.3764(3)
H40 H 0.3079 0.5454 -0.3759
C112 C 0.7917(2) 1.0255(5) 1.05195(16)
C113 C 0.7798(2) 1.0667(5) 1.0775(2)
H41 H 0.7635 1.1002 1.0649
C114 C 0.79212(18) 1.0581(4) 1.1216(2)
H42 H 0.7841 1.0859 1.1388
N8 N 0.81631(15) 1.0084(4) 1.14026(15)
C115 C 0.82819(16) 0.9673(4) 1.1147(2)
H43 H 0.8445 0.9338 1.1273
C116 C 0.8159(2) 0.9758(5) 1.0706(2)
H44 H 0.8239 0.9481 1.0534
C117 C 0.7724(3) 1.0389(9) 0.9714(4)
C118 C 0.7786(4) 1.0202(10) 1.0069(3)
C119 C 0.6791(2) 1.1347(7) 0.57885(16)
C120 C 0.6498(2) 1.1073(7) 0.5528(2)
H45 H 0.6359 1.0881 0.5650
C121 C 0.6412(2) 1.1085(6) 0.5086(2)
H46 H 0.6215 1.0900 0.4911
N9 N 0.6618(2) 1.1370(6) 0.49046(16)
C122 C 0.6911(2) 1.1644(7) 0.5165(2)
H47 H 0.7050 1.1836 0.5043
C123 C 0.6997(2) 1.1632(7) 0.5607(2)
H48 H 0.7195 1.1817 0.5782
C124 C 0.6960(3) 1.1205(8) 0.6607(3)
C125 C 0.6874(3) 1.1355(8) 0.6238(3)
C126 C 0.6313(2) 1.0893(5) 0.28057(15)
C127 C 0.65991(18) 1.1196(6) 0.3069(2)
H49 H 0.6755 1.1313 0.2957
C128 C 0.66530(19) 1.1324(6) 0.3498(2)
H50 H 0.6845 1.1528 0.3675
N10 N 0.6421(2) 1.1150(6) 0.36635(16)
C129 C 0.61357(19) 1.0847(6) 0.3400(2)
H51 H 0.5980 1.0730 0.3512
C130 C 0.60818(17) 1.0719(5) 0.2972(2)
H52 H 0.5889 1.0515 0.2794
C131 C 0.4479(3) 0.6600(10) -0.2995(5)
C132 C 0.6222(3) 1.0606(8) 0.2027(3)
C133 C 0.6267(3) 1.0736(8) 0.2385(3)
C134 C 0.5764(3) 0.9156(7) -0.1329(3)
C135 C 0.5768(2) 0.9352(6) -0.0983(3)
C136 C 0.57440(15) 0.8917(5) -0.17455(17)
C137 C 0.58126(16) 0.8194(4) -0.17898(16)
H53 H 0.5864 0.7880 -0.1555
C138 C 0.58047(17) 0.7936(4) -0.2183(2)
H54 H 0.5851 0.7449 -0.2213
N11 N 0.57282(14) 0.8401(5) -0.25314(15)
C139 C 0.56596(15) 0.9124(4) -0.24871(19)
H55 H 0.5608 0.9438 -0.2722
C140 C 0.56675(17) 0.9382(4) -0.2094(2)
H56 H 0.5621 0.9869 -0.2064
C141 C 0.4244(3) 0.6277(11) -0.3022(5)
C142 C 0.47579(14) 0.6862(6) -0.3044(2)
C143 C 0.47955(14) 0.7610(5) -0.3021(2)
H57 H 0.4638 0.7905 -0.2987
C144 C 0.50671(17) 0.7922(4) -0.3050(2)
H58 H 0.5092 0.8426 -0.3035
N12 N 0.53012(12) 0.7484(4) -0.31014(19)
C145 C 0.52636(15) 0.6736(4) -0.3124(2)
H59 H 0.5421 0.6442 -0.3159
C146 C 0.49920(19) 0.6425(4) -0.3095(2)
H60 H 0.4967 0.5921 -0.3111
C147 C 0.2211(3) 0.4427(8) -0.3020(3)
C148 C 0.1975(2) 0.4192(7) -0.3003(3)
C149 C 0.16760(13) 0.3946(5) -0.3020(2)
C150 C 0.16461(12) 0.3635(5) -0.26596(17)
H61 H 0.1823 0.3601 -0.2405
C151 C 0.13535(15) 0.3373(4) -0.26761(15)
H62 H 0.1333 0.3163 -0.2433
N13 N 0.60907(12) 0.8424(4) -0.30534(17)
C152 C 0.61205(13) 0.8735(4) -0.34141(14)
H63 H 0.5943 0.8769 -0.3668
C153 C 0.14131(16) 0.3997(4) -0.33975(17)
H64 H 0.1433 0.4207 -0.3641
C154 C 0.3169(4) 0.7249(8) -0.3242(6)
H65 H 0.3226 0.7174 -0.3493
H66 H 0.3320 0.7596 -0.3056
C155 C 0.2830(5) 0.7580(12) -0.3387(7)
H67 H 0.2823 0.8020 -0.3547
H68 H 0.2777 0.7689 -0.3139
H69 H 0.2679 0.7237 -0.3567
C156 C 0.3607(4) 0.4665(9) -0.1516(5)
H70 H 0.3584 0.4390 -0.1284
H71 H 0.3671 0.5154 -0.1421
H72 H 0.3766 0.4440 -0.1606
C157 C 0.3296(3) 0.4681(7) -0.1885(4)
H73 H 0.3222 0.4185 -0.1959
H74 H 0.3140 0.4931 -0.1795
C158 C 0.6509(3) 0.8367(7) 0.0413(4)
H75 H 0.6602 0.8590 0.0223
H76 H 0.6383 0.7953 0.0265
C159 C 0.6771(3) 0.8109(7) 0.0816(4)
H77 H 0.6880 0.7705 0.0748
H78 H 0.6681 0.7958 0.1023
H79 H 0.6920 0.8499 0.0934
C160 C 0.5032(2) 0.9047(6) 0.0570(3)
H80 H 0.4863 0.9003 0.0681
H81 H 0.5102 0.8570 0.0525
H82 H 0.4956 0.9307 0.0302
C161 C 0.5305(2) 0.9453(7) 0.0886(3)
H83 H 0.5238 0.9936 0.0935
H84 H 0.5386 0.9195 0.1158
C162 C 0.7963(3) 1.1705(6) 0.7800(4)
H85 H 0.7848 1.2140 0.7665
H86 H 0.8016 1.1435 0.7585
C163 C 0.8269(3) 1.1923(8) 0.8165(4)
H87 H 0.8395 1.2225 0.8053
H88 H 0.8388 1.1494 0.8292
H89 H 0.8217 1.2189 0.8379
C164 C 0.7575(5) 0.8277(9) 0.8135(6)
H90 H 0.7617 0.7814 0.8279
H91 H 0.7732 0.8369 0.8008
H92 H 0.7366 0.8271 0.7914
C165 C 0.7590(3) 0.8884(7) 0.8463(4)
H93 H 0.7444 0.8759 0.8606
H94 H 0.7804 0.8888 0.8680
C166 C 1.0116(3) 1.4231(5) 1.1930(4)
H95 H 1.0074 1.4071 1.2182
H96 H 0.9921 1.4162 1.1681
C167 C 1.0195(3) 1.5014(6) 1.1974(3)
H97 H 1.0022 1.5281 1.2010
H98 H 1.0228 1.5183 1.1721
H99 H 1.0386 1.5089 1.2221
C168 C 1.0592(4) 1.2565(10) 1.0417(5)
H100 H 1.0667 1.2544 1.0182
H101 H 1.0439 1.2952 1.0369
H102 H 1.0492 1.2110 1.0437
C169 C 1.0871(3) 1.2703(7) 1.0832(3)
H103 H 1.1016 1.2291 1.0893
H104 H 1.0987 1.3132 1.0799
C89B C 0.77815(15) 1.0104(4) 1.2283(2)
N7B N 1.29235(12) 1.4736(4) 1.2038(2)
C90B C 1.27666(16) 1.4161(4) 1.1780(3)
C91B C 0.74675(16) 0.8955(4) 1.1767(3)
C151B C 0.63535(15) 0.8373(4) -0.26761(15)
N13B N 0.10907(12) 0.3424(4) -0.30534(17)
C152B C 0.11205(13) 0.3735(4) -0.34141(14)
C153B C 0.64131(16) 0.8997(4) -0.33975(17)
loop_
_geom_bond_atom_site_label_1
_geom_bond_atom_site_label_2
_geom_bond_site_symmetry_1
_geom_bond_site_symmetry_2
Cu1 O1 1_555 1_555
Cu2 O2 1_555 1_555
Cu3 O3 1_555 1_555
O1 C1 1_555 1_555
C1 N1 1_555 1_555
N1 C2 1_555 1_555
C3 N1 1_555 1_555
O2 C4 1_555 1_555
C4 N2 1_555 1_555
N2 C5 1_555 1_555
C6 N2 1_555 1_555
O3 C7 1_555 1_555
C7 N3 1_555 1_555
N3 C8 1_555 1_555
C9 N3 1_555 1_555
O4 Cu3 1_555 1_555
C10 O4 1_555 1_555
N4 C10 1_555 1_555
C11 N4 1_555 1_555
C12 N4 1_555 1_555
O5 Cu3 1_555 1_555
C13 O5 1_555 1_555
N5 C13 1_555 1_555
C14 N5 1_555 1_555
C15 N5 1_555 1_555
Cl1 O6 1_555 1_555
O6 Cu2 1_555 1_555
O7 Cl1 1_555 1_555
O8 Cl1 1_555 1_555
O9 Cl1 1_555 1_555
O10 Cu3 1_555 1_555
C16 O10 1_555 1_555
C17 C16 1_555 1_555
O11 Cu1 1_555 1_555
O12 Cu2 1_555 1_555
O13 Cu1 1_555 1_555
Cl2 C100 1_555 1_555
Cl3 C109 1_555 1_555
Cl4 C76 1_555 1_555
Cl5 C66 1_555 1_555
Cl6 C56 1_555 1_555
Cl7 C46 1_555 1_555
Cl8 C26 1_555 1_555
Cl9 C36 1_555 1_555
O14 C95 1_555 1_555
O15 C104 1_555 1_555
O16 C69 1_555 1_555
O17 C59 1_555 1_555
O18 C49 1_555 1_555
O19 C39 1_555 1_555
O20 C19 1_555 1_555
O21 C29 1_555 1_555
C18 C19 1_555 1_555
C19 C20 1_555 1_555
C20 H1 1_555 1_555
C21 C20 1_555 1_555
C22 C21 1_555 1_555
C23 C18 1_555 1_555
C24 C23 1_555 1_555
H2 C24 1_555 1_555
C25 C24 1_555 1_555
H3 C25 1_555 1_555
C26 C25 1_555 1_555
C27 C22 1_555 1_555
H4 C27 1_555 1_555
C28 C18 1_555 1_555
C29 C28 1_555 1_555
C30 C29 1_555 1_555
H5 C30 1_555 1_555
C31 C30 1_555 1_555
C32 C31 1_555 1_555
C33 C28 1_555 1_555
C34 C33 1_555 1_555
H6 C34 1_555 1_555
C35 C34 1_555 1_555
H7 C35 1_555 1_555
C36 C35 1_555 1_555
C37 C32 1_555 1_555
H8 C37 1_555 1_555
C38 C39 1_555 1_555
C39 C40 1_555 1_555
C40 H9 1_555 1_555
C41 C40 1_555 1_555
C42 C41 1_555 1_555
C43 C38 1_555 1_555
C44 C43 1_555 1_555
H10 C44 1_555 1_555
C45 C44 1_555 1_555
H11 C45 1_555 1_555
C46 C45 1_555 1_555
C47 C42 1_555 1_555
H12 C47 1_555 1_555
C48 C38 1_555 1_555
C49 C48 1_555 1_555
C50 C49 1_555 1_555
H13 C50 1_555 1_555
C51 C50 1_555 1_555
C52 C51 1_555 1_555
C53 C48 1_555 1_555
C54 C53 1_555 1_555
H14 C54 1_555 1_555
C55 C54 1_555 1_555
H15 C55 1_555 1_555
C56 C55 1_555 1_555
C57 C52 1_555 1_555
H16 C57 1_555 1_555
C58 C59 1_555 1_555
C59 C60 1_555 1_555
C60 H17 1_555 1_555
C61 C60 1_555 1_555
C62 C61 1_555 1_555
C63 C58 1_555 1_555
C64 C63 1_555 1_555
H18 C64 1_555 1_555
C65 C64 1_555 1_555
H19 C65 1_555 1_555
C66 C65 1_555 1_555
C67 C62 1_555 1_555
H20 C67 1_555 1_555
C68 C58 1_555 1_555
C69 C68 1_555 1_555
C70 C69 1_555 1_555
H21 C70 1_555 1_555
C71 C70 1_555 1_555
C72 C71 1_555 1_555
C73 C68 1_555 1_555
C74 C73 1_555 1_555
H22 C74 1_555 1_555
C75 C74 1_555 1_555
H23 C75 1_555 1_555
C76 C75 1_555 1_555
C77 C72 1_555 1_555
H24 C77 1_555 1_555
C78 C79 1_555 1_555
C79 H25 1_555 1_555
C80 C79 1_555 1_555
H26 C80 1_555 1_555
N6 Cu2 1_555 1_555
C81 N6 1_555 1_555
H27 C81 1_555 1_555
C82 C78 1_555 1_555
H28 C82 1_555 1_555
C83 C78 1_555 1_555
C84 C21 1_555 1_555
C85 C31 1_555 1_555
C86 C85 1_555 1_555
C87 C86 1_555 1_555
C88 C87 1_555 1_555
H29 C88 1_555 1_555
C89 C88 1_555 1_555
H30 C89 1_555 1_555
N7 Cu2 1_555 1_555
C90 N7 1_555 1_555
H31 C90 1_555 1_555
C91 C87 1_555 1_555
H32 C91 1_555 1_555
C92 H33 1_555 1_555
C93 C92 1_555 1_555
H34 C93 1_555 1_555
C94 C95 1_555 1_555
C95 C96 1_555 1_555
C96 H35 1_555 1_555
C97 C96 1_555 1_555
C98 C97 1_555 1_555
C99 C92 1_555 1_555
C100 C93 1_555 1_555
C101 C98 1_555 1_555
H36 C101 1_555 1_555
C102 C103 1_555 1_555
C103 H37 1_555 1_555
C104 C103 1_555 1_555
C105 C94 1_555 1_555
C106 C105 1_555 1_555
C107 C102 1_555 1_555
C108 C107 1_555 1_555
H38 C108 1_555 1_555
C109 C108 1_555 1_555
C110 C109 1_555 1_555
H39 C110 1_555 1_555
C111 C106 1_555 1_555
H40 C111 1_555 1_555
C112 C113 1_555 1_555
C113 H41 1_555 1_555
C114 C113 1_555 1_555
H42 C114 1_555 1_555
N8 Cu2 1_555 1_555
C115 N8 1_555 1_555
H43 C115 1_555 1_555
C116 C112 1_555 1_555
H44 C116 1_555 1_555
C117 C41 1_555 1_555
C118 C112 1_555 1_555
C119 C120 1_555 1_555
C120 H45 1_555 1_555
C121 C120 1_555 1_555
H46 C121 1_555 1_555
N9 Cu3 1_555 1_555
C122 N9 1_555 1_555
H47 C122 1_555 1_555
C123 C119 1_555 1_555
H48 C123 1_555 1_555
C124 C51 1_555 1_555
C125 C119 1_555 1_555
C126 C127 1_555 1_555
C127 H49 1_555 1_555
C128 C127 1_555 1_555
H50 C128 1_555 1_555
N10 Cu3 1_555 1_555
C129 N10 1_555 1_555
H51 C129 1_555 1_555
C130 C126 1_555 1_555
H52 C130 1_555 1_555
C131 C141 1_555 1_555
C132 C61 1_555 1_555
C133 C126 1_555 1_555
C134 C135 1_555 1_555
C135 C71 1_555 1_555
C136 C134 1_555 1_555
C137 C136 1_555 1_555
H53 C137 1_555 1_555
C138 C137 1_555 1_555
H54 C138 1_555 1_555
N11 Cu1 1_555 1_555
C139 N11 1_555 1_555
H55 C139 1_555 1_555
C140 C136 1_555 1_555
H56 C140 1_555 1_555
C141 C97 1_555 1_555
C142 C131 1_555 1_555
C143 C142 1_555 1_555
H57 C143 1_555 1_555
C144 C143 1_555 1_555
H58 C144 1_555 1_555
N12 Cu1 1_555 1_555
C145 N12 1_555 1_555
H59 C145 1_555 1_555
C146 C142 1_555 1_555
H60 C146 1_555 1_555
C147 C102 1_555 1_555
C148 C147 1_555 1_555
C149 C148 1_555 1_555
C150 C149 1_555 1_555
H61 C150 1_555 1_555
C151 C150 1_555 1_555
H62 C151 1_555 1_555
N13 Cu1 1_555 1_555
C152 N13 1_555 1_555
H63 C152 1_555 1_555
C153 C149 1_555 1_555
H64 C153 1_555 1_555
C154 O14 1_555 1_555
H65 C154 1_555 1_555
H66 C154 1_555 1_555
C155 C154 1_555 1_555
H67 C155 1_555 1_555
H68 C155 1_555 1_555
H69 C155 1_555 1_555
C156 H70 1_555 1_555
H71 C156 1_555 1_555
H72 C156 1_555 1_555
C157 O15 1_555 1_555
H73 C157 1_555 1_555
H74 C157 1_555 1_555
C158 O16 1_555 1_555
H75 C158 1_555 1_555
H76 C158 1_555 1_555
C159 C158 1_555 1_555
H77 C159 1_555 1_555
H78 C159 1_555 1_555
H79 C159 1_555 1_555
C160 H80 1_555 1_555
H81 C160 1_555 1_555
H82 C160 1_555 1_555
C161 O17 1_555 1_555
H83 C161 1_555 1_555
H84 C161 1_555 1_555
C162 O18 1_555 1_555
H85 C162 1_555 1_555
H86 C162 1_555 1_555
C163 C162 1_555 1_555
H87 C163 1_555 1_555
H88 C163 1_555 1_555
H89 C163 1_555 1_555
C164 H90 1_555 1_555
H91 C164 1_555 1_555
H92 C164 1_555 1_555
C165 O19 1_555 1_555
H93 C165 1_555 1_555
H94 C165 1_555 1_555
C166 O20 1_555 1_555
H95 C166 1_555 1_555
H96 C166 1_555 1_555
C167 C166 1_555 1_555
H97 C167 1_555 1_555
H98 C167 1_555 1_555
H99 C167 1_555 1_555
C168 H100 1_555 1_555
H101 C168 1_555 1_555
H102 C168 1_555 1_555
C169 O21 1_555 1_555
H103 C169 1_555 1_555
H104 C169 1_555 1_555
C89B N7 1_555 1_555
N7B C89 1_555 1_555
C90B C91 1_555 1_555
C91B C90 1_555 1_555
C151B N13 1_555 1_555
N13B C151 1_555 1_555
C152B C153 1_555 1_555
C153B C152 1_555 1_555
C22 C23 1_555 1_555
C26 C27 1_555 1_555
C32 C33 1_555 1_555
C36 C37 1_555 1_555
C42 C43 1_555 1_555
C46 C47 1_555 1_555
C52 C53 1_555 1_555
C56 C57 1_555 1_555
C62 C63 1_555 1_555
C66 C67 1_555 1_555
C72 C73 1_555 1_555
C76 C77 1_555 1_555
C80 N6 1_555 1_555
C81 C82 1_555 1_555
C83 C84 1_555 1_555
C94 C99 1_555 1_555
C98 C99 1_555 1_555
C100 C101 1_555 1_555
C104 C105 1_555 1_555
C106 C107 1_555 1_555
C110 C111 1_555 1_555
C114 N8 1_555 1_555
C115 C116 1_555 1_555
C117 C118 1_555 1_555
C121 N9 1_555 1_555
C122 C123 1_555 1_555
C124 C125 1_555 1_555
C128 N10 1_555 1_555
C129 C130 1_555 1_555
C132 C133 1_555 1_555
C138 N11 1_555 1_555
C139 C140 1_555 1_555
C144 N12 1_555 1_555
C145 C146 1_555 1_555
C156 C157 1_555 1_555
C160 C161 1_555 1_555
C164 C165 1_555 1_555
C168 C169 1_555 1_555
N7B C90B 1_555 1_555
N13B C152B 1_555 1_555

#END
