
#######################################################################
#
#                 Cambridge Crystallographic Data Centre
#                                CCDC 
#
#######################################################################
#
# If this CIF has been generated from an entry in the Cambridge 
# Structural Database, then it will include bibliographic, chemical, 
# crystal, experimental, refinement or atomic coordinate data resulting 
# from the CCDC's data processing and validation procedures.
#
#######################################################################

data_LORDON
_symmetry_cell_setting           monoclinic
_symmetry_space_group_name_H-M   'P 21/c'
_symmetry_Int_Tables_number      14
_space_group_name_Hall           '-P 2ybc'
loop_
_symmetry_equiv_pos_site_id
_symmetry_equiv_pos_as_xyz
1 x,y,z
2 -x,1/2+y,1/2-z
3 -x,-y,-z
4 x,1/2-y,1/2+z
_cell_length_a                   10.6999(5)
_cell_length_b                   9.4421(4)
_cell_length_c                   11.2283(5)
_cell_angle_alpha                90
_cell_angle_beta                 108.9350(10)
_cell_angle_gamma                90
_cell_volume                     1073
loop_
_atom_site_label
_atom_site_type_symbol
_atom_site_fract_x
_atom_site_fract_y
_atom_site_fract_z
Cd1 Cd 0.224201(9) 0.153852(9) -0.322449(8)
C1 C 0.08056(14) -0.03696(14) -0.22638(13)
N1 N 0.01918(15) -0.15005(11) -0.06087(14)
H1 H 0.095(3) -0.119(3) -0.008(3)
O1 O 0.17379(10) 0.02069(11) -0.14244(10)
C2 C -0.01491(14) -0.13149(14) -0.18476(13)
O2 O 0.05550(12) -0.02083(12) -0.34253(10)
N2 N -0.06230(12) -0.23187(13) -0.01093(11)
H2 H -0.087(3) -0.182(2) 0.040(2)
H3 H -0.015(2) -0.295(3) 0.044(2)
O3 O -0.11570(11) -0.18173(12) -0.26260(10)
C3 C 0.45031(17) 0.33203(15) -0.20794(17)
N3 N 0.62681(12) 0.44749(13) -0.04564(12)
H4 H 0.592(3) 0.406(3) 0.016(3)
C4 C 0.57268(13) 0.42814(14) -0.16853(12)
O4 O 0.38241(12) 0.33264(11) -0.32204(11)
N4 N 0.73446(13) 0.54113(14) -0.00168(12)
H5 H 0.717(2) 0.608(2) 0.046(2)
H6 H 0.805(3) 0.479(3) 0.041(3)
O5 O 0.42396(11) 0.26148(11) -0.12405(11)
O6 O 0.61219(10) 0.48453(12) -0.24889(10)
Cd1A Cd -0.224201(9) -0.346148(9) -0.177551(8)
Cd1A_2 Cd 0.775799(9) 0.653852(9) -0.177551(8)
N2A N 0.06230(12) 0.26813(13) -0.48907(11)
O3A O 0.11570(11) 0.31827(12) -0.23740(10)
N4A N 0.26554(13) 0.04113(14) -0.49832(12)
O6A O 0.38781(10) -0.01547(12) -0.25111(10)
N5 N 0.44093(12) -0.01927(14) 0.01315(11)
H7 H 0.3747(19) -0.0204(19) -0.0567(19)
H8 H 0.466(2) -0.113(3) 0.050(2)
H9 H 0.430(2) 0.050(2) 0.077(2)
N5B N 0.55907(12) 0.01927(14) -0.01315(11)
H7B H 0.6253(19) 0.0204(19) 0.0567(19)
H8B H 0.534(2) 0.113(3) -0.050(2)
H9B H 0.570(2) -0.050(2) -0.077(2)
N6 N 0.27260(15) 0.65170(12) -0.26861(14)
O7 O 0.38275(15) 0.65039(13) -0.18369(14)
O8 O 0.16761(17) 0.65294(13) -0.24308(18)
O9 O 0.27017(16) 0.65231(14) -0.38109(15)
loop_
_geom_bond_atom_site_label_1
_geom_bond_atom_site_label_2
_geom_bond_site_symmetry_1
_geom_bond_site_symmetry_2
Cd1 O1 1_555 1_555
C1 O1 1_555 1_555
N1 H1 1_555 1_555
C2 C1 1_555 1_555
O2 Cd1 1_555 1_555
N2 N1 1_555 1_555
H2 N2 1_555 1_555
H3 N2 1_555 1_555
O3 C2 1_555 1_555
C3 C4 1_555 1_555
N3 H4 1_555 1_555
C4 N3 1_555 1_555
O4 Cd1 1_555 1_555
N4 N3 1_555 1_555
H5 N4 1_555 1_555
H6 N4 1_555 1_555
O5 Cd1 1_555 1_555
O6 C4 1_555 1_555
N5 H7 1_555 1_555
H8 N5 1_555 1_555
H9 N5 1_555 1_555
N6 O7 1_555 1_555
O8 N6 1_555 1_555
O9 N6 1_555 1_555
Cd1A N2 1_555 1_555
Cd1A_2 N4 1_555 1_555
N2A Cd1 1_555 1_555
O3A Cd1 1_555 1_555
N4A Cd1 1_555 1_555
O6A Cd1 1_555 1_555
N5B N5 1_555 1_555
H7B N5B 1_555 1_555
H8B N5B 1_555 1_555
H9B N5B 1_555 1_555
C1 O2 1_555 1_555
N1 C2 1_555 1_555
O3 Cd1A 1_555 1_555
C3 O4 1_555 1_555
C3 O5 1_555 1_555
O6 Cd1A_2 1_555 1_555

#END
