
#######################################################################
#
#                 Cambridge Crystallographic Data Centre
#                                CCDC 
#
#######################################################################
#
# If this CIF has been generated from an entry in the Cambridge 
# Structural Database, then it will include bibliographic, chemical, 
# crystal, experimental, refinement or atomic coordinate data resulting 
# from the CCDC's data processing and validation procedures.
#
#######################################################################

data_LORFUT
_symmetry_cell_setting           orthorhombic
_symmetry_space_group_name_H-M   'P m n a'
_symmetry_Int_Tables_number      53
_space_group_name_Hall           '-P 2ac 2'
loop_
_symmetry_equiv_pos_site_id
_symmetry_equiv_pos_as_xyz
1 x,y,z
2 1/2-x,-y,1/2+z
3 x,-y,-z
4 1/2-x,y,1/2-z
5 -x,-y,-z
6 1/2+x,y,1/2-z
7 -x,y,z
8 1/2+x,-y,1/2+z
_cell_length_a                   7.833(2)
_cell_length_b                   5.535(1)
_cell_length_c                   10.759(2)
_cell_angle_alpha                90
_cell_angle_beta                 90
_cell_angle_gamma                90
_cell_volume                     466.463
loop_
_atom_site_label
_atom_site_type_symbol
_atom_site_fract_x
_atom_site_fract_y
_atom_site_fract_z
Hg1 Hg 0.0000 0.000 0.0000
C1 C 0.3457(8) -0.311(1) 0.1159(6)
N1 N 0.2218(8) -0.229(1) 0.0802(6)
C2 C 0.0000 -0.391(2) -0.2603(9)
N2 N 0.0000 -0.230(2) -0.1924(9)
C3 C 0.5000 -0.409(2) 0.1555(8)
N1B N 0.2218(8) 0.229(1) -0.0802(6)
N1D N -0.2218(8) 0.229(1) -0.0802(6)
N1F N -0.2218(8) -0.229(1) 0.0802(6)
N2B N 0.0000 0.230(2) 0.1924(9)
C3A C 0.0000 -0.591(2) -0.3445(8)
C1F C 0.6543(8) -0.311(1) 0.1159(6)
C2A C 0.5000 -0.609(2) 0.2397(9)
N1F_2 N 0.7782(8) -0.229(1) 0.0802(6)
N2A N 0.5000 -0.770(2) 0.3076(9)
C1A C 0.1543(8) -0.689(1) -0.3841(6)
C1G C -0.1543(8) -0.689(1) -0.3841(6)
Hg1A Hg 0.5000 -1.000 0.5000
Hg1_2 Hg 1.0000 0.000 0.0000
N1A N 0.2782(8) -0.771(1) -0.4198(6)
N1G N -0.2782(8) -0.771(1) -0.4198(6)
Hg1A_2 Hg 0.5000 -1.000 -0.5000
Hg1A_3 Hg -0.5000 -1.000 -0.5000
loop_
_geom_bond_atom_site_label_1
_geom_bond_atom_site_label_2
_geom_bond_site_symmetry_1
_geom_bond_site_symmetry_2
Hg1 N1 1_555 1_555
C1 N1 1_555 1_555
C2 N2 1_555 1_555
N2 Hg1 1_555 1_555
C3 C1 1_555 1_555
N1B Hg1 1_555 1_555
N1D Hg1 1_555 1_555
N1F Hg1 1_555 1_555
N2B Hg1 1_555 1_555
C3A C2 1_555 1_555
C1F C3 1_555 1_555
C2A C3 1_555 1_555
N1F_2 C1F 1_555 1_555
N2A C2A 1_555 1_555
C1A C3A 1_555 1_555
C1G C3A 1_555 1_555
Hg1A N2A 1_555 1_555
Hg1_2 N1F_2 1_555 1_555
N1A C1A 1_555 1_555
N1G C1G 1_555 1_555
Hg1A_2 N1A 1_555 1_555
Hg1A_3 N1G 1_555 1_555

#END
