
#######################################################################
#
#                 Cambridge Crystallographic Data Centre
#                                CCDC 
#
#######################################################################
#
# If this CIF has been generated from an entry in the Cambridge 
# Structural Database, then it will include bibliographic, chemical, 
# crystal, experimental, refinement or atomic coordinate data resulting 
# from the CCDC's data processing and validation procedures.
#
#######################################################################

data_LORFED
_symmetry_cell_setting           orthorhombic
_symmetry_space_group_name_H-M   'P m n a'
_symmetry_Int_Tables_number      53
_space_group_name_Hall           '-P 2ac 2'
loop_
_symmetry_equiv_pos_site_id
_symmetry_equiv_pos_as_xyz
1 x,y,z
2 1/2-x,-y,1/2+z
3 x,-y,-z
4 1/2-x,y,1/2-z
5 -x,-y,-z
6 1/2+x,y,1/2-z
7 -x,y,z
8 1/2+x,-y,1/2+z
_cell_length_a                   7.330(1)
_cell_length_b                   5.545(1)
_cell_length_c                   10.743(2)
_cell_angle_alpha                90
_cell_angle_beta                 90
_cell_angle_gamma                90
_cell_volume                     436.648
loop_
_atom_site_label
_atom_site_type_symbol
_atom_site_fract_x
_atom_site_fract_y
_atom_site_fract_z
Cr1 Cr 0.0000 0.0000 0.0000
C1 C 0.3371(5) -0.3023(6) 0.1108(3)
N1 N 0.2072(4) -0.2126(6) 0.0730(3)
C2 C 0.0000 -0.394(1) -0.2656(5)
N2 N 0.0000 -0.236(1) -0.1956(5)
C3 C 0.5000 -0.408(1) 0.1519(5)
N1B N 0.2072(4) 0.2126(6) -0.0730(3)
N1D N -0.2072(4) 0.2126(6) -0.0730(3)
N1F N -0.2072(4) -0.2126(6) 0.0730(3)
N2B N 0.0000 0.236(1) 0.1956(5)
C3A C 0.0000 -0.592(1) -0.3481(5)
C1F C 0.6629(5) -0.3023(6) 0.1108(3)
C2A C 0.5000 -0.606(1) 0.2344(5)
C1A C 0.1629(5) -0.6977(6) -0.3892(3)
C1G C -0.1629(5) -0.6977(6) -0.3892(3)
N1A N 0.2928(4) -0.7874(6) -0.4270(3)
N1G N -0.2928(4) -0.7874(6) -0.4270(3)
Cr1A Cr 0.5000 -1.0000 -0.5000
Cr1A_2 Cr -0.5000 -1.0000 -0.5000
N2A N 0.5000 -0.764(1) 0.3044(5)
N1F_2 N 0.7928(4) -0.2126(6) 0.0730(3)
Cr1_2 Cr 1.0000 0.0000 0.0000
Cr1A_3 Cr 0.5000 -1.0000 0.5000
loop_
_geom_bond_atom_site_label_1
_geom_bond_atom_site_label_2
_geom_bond_site_symmetry_1
_geom_bond_site_symmetry_2
Cr1 N1 1_555 1_555
C1 N1 1_555 1_555
C2 N2 1_555 1_555
N2 Cr1 1_555 1_555
C3 C1 1_555 1_555
N1B Cr1 1_555 1_555
N1D Cr1 1_555 1_555
N1F Cr1 1_555 1_555
N2B Cr1 1_555 1_555
C3A C2 1_555 1_555
C1F C3 1_555 1_555
C2A C3 1_555 1_555
C1A C3A 1_555 1_555
C1G C3A 1_555 1_555
N1A C1A 1_555 1_555
N1G C1G 1_555 1_555
Cr1A N1A 1_555 1_555
Cr1A_2 N1G 1_555 1_555
N2A C2A 1_555 1_555
N1F_2 C1F 1_555 1_555
Cr1_2 N1F_2 1_555 1_555
Cr1A_3 N2A 1_555 1_555

#END
