
#######################################################################
#
#                 Cambridge Crystallographic Data Centre
#                                CCDC 
#
#######################################################################
#
# If this CIF has been generated from an entry in the Cambridge 
# Structural Database, then it will include bibliographic, chemical, 
# crystal, experimental, refinement or atomic coordinate data resulting 
# from the CCDC's data processing and validation procedures.
#
#######################################################################

data_LORFED02
_symmetry_cell_setting           orthorhombic
_symmetry_space_group_name_H-M   'P m n a'
_symmetry_Int_Tables_number      53
_space_group_name_Hall           '-P 2ac 2'
loop_
_symmetry_equiv_pos_site_id
_symmetry_equiv_pos_as_xyz
1 x,y,z
2 1/2-x,-y,1/2+z
3 x,-y,-z
4 1/2-x,y,1/2-z
5 -x,-y,-z
6 1/2+x,y,1/2-z
7 -x,y,z
8 1/2+x,-y,1/2+z
_cell_length_a                   7.3130(6)
_cell_length_b                   5.4534(5)
_cell_length_c                   10.6394(9)
_cell_angle_alpha                90
_cell_angle_beta                 90
_cell_angle_gamma                90
_cell_volume                     424.307
loop_
_atom_site_label
_atom_site_type_symbol
_atom_site_fract_x
_atom_site_fract_y
_atom_site_fract_z
Cr1 Cr 0.00000 0.00000 0.5000
N1 N 0.20600(42) 0.21424(45) 0.42661(23)
N2 N 0.00000 0.23100(90) 0.69536(32)
C1 C 0.33823(65) 0.30334(63) 0.38920(37)
C2 C 0.00000 0.39197(93) 0.76437(53)
C3 C 0.5000 0.4074(11) 0.34726
N1B N 0.20600(42) -0.21424(45) 0.57339(23)
N1D N -0.20600(42) -0.21424(45) 0.57339(23)
N1F N -0.20600(42) 0.21424(45) 0.42661(23)
N2B N 0.00000 -0.23100(90) 0.30464(32)
C3A C 0.0000 0.5926(11) 0.84726
C1F C 0.66177(65) 0.30334(63) 0.38920(37)
C2A C 0.50000 0.60803(93) 0.26437(53)
N1F_2 N 0.79400(42) 0.21424(45) 0.42661(23)
N2A N 0.50000 0.76900(90) 0.19536(32)
C1A C 0.16177(65) 0.69666(63) 0.88920(37)
C1G C -0.16177(65) 0.69666(63) 0.88920(37)
N1A N 0.29400(42) 0.78576(45) 0.92661(23)
N1G N -0.29400(42) 0.78576(45) 0.92661(23)
Cr1_2 Cr 1.00000 0.00000 0.5000
Cr1A Cr 0.50000 1.00000 1.0000
Cr1A_2 Cr 0.50000 1.00000 0.0000
Cr1A_3 Cr -0.50000 1.00000 1.0000
loop_
_geom_bond_atom_site_label_1
_geom_bond_atom_site_label_2
_geom_bond_site_symmetry_1
_geom_bond_site_symmetry_2
Cr1 N1 1_555 1_555
N1 C1 1_555 1_555
N2 Cr1 1_555 1_555
C1 C3 1_555 1_555
C2 N2 1_555 1_555
C3 C1F 1_555 1_555
N1B Cr1 1_555 1_555
N1D Cr1 1_555 1_555
N1F Cr1 1_555 1_555
N2B Cr1 1_555 1_555
C3A C2 1_555 1_555
C1F N1F_2 1_555 1_555
C2A C3 1_555 1_555
N1F_2 Cr1_2 1_555 1_555
N2A C2A 1_555 1_555
C1A C3A 1_555 1_555
C1G C3A 1_555 1_555
N1A C1A 1_555 1_555
N1G C1G 1_555 1_555
Cr1A N1A 1_555 1_555
Cr1A_2 N2A 1_555 1_555
Cr1A_3 N1G 1_555 1_555

#END
