
#######################################################################
#
#                 Cambridge Crystallographic Data Centre
#                                CCDC 
#
#######################################################################
#
# If this CIF has been generated from an entry in the Cambridge 
# Structural Database, then it will include bibliographic, chemical, 
# crystal, experimental, refinement or atomic coordinate data resulting 
# from the CCDC's data processing and validation procedures.
#
#######################################################################

data_LORGEE
_symmetry_cell_setting           monoclinic
_symmetry_space_group_name_H-M   'P 21/n'
_symmetry_Int_Tables_number      14
_space_group_name_Hall           '-P 2yn'
loop_
_symmetry_equiv_pos_site_id
_symmetry_equiv_pos_as_xyz
1 x,y,z
2 1/2-x,1/2+y,1/2-z
3 -x,-y,-z
4 1/2+x,1/2-y,1/2+z
_cell_length_a                   6.819(2)
_cell_length_b                   9.677(3)
_cell_length_c                   11.805(4)
_cell_angle_alpha                90
_cell_angle_beta                 97.81(3)
_cell_angle_gamma                90
_cell_volume                     771.756
loop_
_atom_site_label
_atom_site_type_symbol
_atom_site_fract_x
_atom_site_fract_y
_atom_site_fract_z
Co1 Co 0.0000 0.0000 0.0000
C1 C 0.2310(4) -0.0807(3) 0.3813(3)
C2 C 0.1674(4) -0.0732(3) 0.2630(3)
N1 N 0.1150(3) -0.0626(3) 0.1670(2)
C3 C 0.2956(4) -0.2071(3) 0.4309(3)
N2 N 0.1526(3) 0.1886(3) 0.0308(2)
C4 C 0.2164(4) 0.0388(3) 0.4474(3)
N3 N 0.2012(4) 0.1379(3) 0.4995(2)
O1 O 0.2367(3) -0.0870(2) -0.0630(2)
C5 C 0.3541(4) -0.0356(3) -0.1459(3)
C6 C 0.3250(5) -0.1197(4) -0.2543(3)
H1 H 0.2594(9) -0.1631(9) -0.0473(9)
H2 H 0.3123(4) 0.0701(3) -0.1661(3)
H3 H 0.5084(4) -0.0395(3) -0.1100(3)
H4 H 0.4156(5) -0.0779(4) -0.3143(3)
H5 H 0.1712(5) -0.1160(4) -0.2912(3)
H6 H 0.3673(5) -0.2256(4) -0.2351(3)
N1B N -0.1150(3) 0.0626(3) -0.1670(2)
N2B N -0.1526(3) -0.1886(3) -0.0308(2)
O1B O -0.2367(3) 0.0870(2) 0.0630(2)
N2A N 0.3474(3) -0.3114(3) 0.4692(2)
C3A C 0.2044(4) 0.2929(3) 0.0691(3)
C5B C -0.3541(4) 0.0356(3) 0.1459(3)
H1B H -0.2594(9) 0.1631(9) 0.0473(9)
C6B C -0.3250(5) 0.1197(4) 0.2543(3)
H2B H -0.3123(4) -0.0701(3) 0.1661(3)
H3B H -0.5084(4) 0.0395(3) 0.1100(3)
H4B H -0.4156(5) 0.0779(4) 0.3143(3)
H5B H -0.1712(5) 0.1160(4) 0.2912(3)
H6B H -0.3673(5) 0.2256(4) 0.2351(3)
Co1A Co 0.5000 -0.5000 0.5000
C1A C 0.2690(4) 0.4193(3) 0.1187(3)
C2A C 0.3326(4) 0.4268(3) 0.2370(3)
C4A C 0.2836(4) 0.5388(3) 0.0526(3)
N1A N 0.3850(3) 0.4374(3) 0.3330(2)
N3A N 0.2988(4) 0.6379(3) 0.0005(2)
Co1A_2 Co 0.5000 0.5000 0.5000
loop_
_geom_bond_atom_site_label_1
_geom_bond_atom_site_label_2
_geom_bond_site_symmetry_1
_geom_bond_site_symmetry_2
Co1 N1 1_555 1_555
C1 C2 1_555 1_555
C2 N1 1_555 1_555
C3 C1 1_555 1_555
N2 Co1 1_555 1_555
C4 C1 1_555 1_555
N3 C4 1_555 1_555
O1 Co1 1_555 1_555
C5 O1 1_555 1_555
C6 C5 1_555 1_555
H1 O1 1_555 1_555
H2 C5 1_555 1_555
H3 C5 1_555 1_555
H4 C6 1_555 1_555
H5 C6 1_555 1_555
H6 C6 1_555 1_555
N1B Co1 1_555 1_555
N2B Co1 1_555 1_555
O1B Co1 1_555 1_555
N2A C3 1_555 1_555
C3A N2 1_555 1_555
C5B O1B 1_555 1_555
H1B O1B 1_555 1_555
C6B C5B 1_555 1_555
H2B C5B 1_555 1_555
H3B C5B 1_555 1_555
H4B C6B 1_555 1_555
H5B C6B 1_555 1_555
H6B C6B 1_555 1_555
Co1A N2A 1_555 1_555
C1A C3A 1_555 1_555
C2A C1A 1_555 1_555
C4A C1A 1_555 1_555
N1A C2A 1_555 1_555
N3A C4A 1_555 1_555
Co1A_2 N1A 1_555 1_555

#END
