
#######################################################################
#
#                 Cambridge Crystallographic Data Centre
#                                CCDC 
#
#######################################################################
#
# If this CIF has been generated from an entry in the Cambridge 
# Structural Database, then it will include bibliographic, chemical, 
# crystal, experimental, refinement or atomic coordinate data resulting 
# from the CCDC's data processing and validation procedures.
#
#######################################################################

data_LORGAA03
_symmetry_cell_setting           orthorhombic
_symmetry_space_group_name_H-M   'P m n a'
_symmetry_Int_Tables_number      53
_space_group_name_Hall           '-P 2ac 2'
loop_
_symmetry_equiv_pos_site_id
_symmetry_equiv_pos_as_xyz
1 x,y,z
2 -x,y,z
3 1/2+x,-y,1/2+z
4 1/2+x,y,1/2-z
5 -x,-y,-z
6 x,-y,-z
7 1/2-x,y,1/2-z
8 1/2-x,-y,1/2+z
_cell_length_a                   7.538(2)
_cell_length_b                   5.298(2)
_cell_length_c                   10.500(2)
_cell_angle_alpha                90
_cell_angle_beta                 90
_cell_angle_gamma                90
_cell_volume                     419.331
loop_
_atom_site_label
_atom_site_type_symbol
_atom_site_fract_x
_atom_site_fract_y
_atom_site_fract_z
Co1 Co 0.5000 0.0000 0.5000
N1 N 0.5000 0.229(1) 0.3251(5)
N2 N 0.2128(5) 0.7789(7) 0.0778(3)
C1 C 0.5000 0.385(1) 0.2492(6)
C2 C 0.5000 0.580(1) 0.1590(6)
C3 C 0.3403(6) 0.6893(8) 0.1154(4)
C3A C 0.6597(6) 0.6893(8) 0.1154(4)
N2A N 0.7872(5) 0.7789(7) 0.0778(3)
N1D N 0.5000 -0.229(1) 0.6749(5)
N2D N 0.7872(5) -0.7789(7) 0.9222(3)
C1D C 0.5000 -0.385(1) 0.7508(6)
C2D C 0.5000 -0.580(1) 0.8410(6)
C3D C 0.6597(6) -0.6893(8) 0.8846(4)
C3E C 0.3403(6) -0.6893(8) 0.8846(4)
N2E N 0.2128(5) -0.7789(7) 0.9222(3)
N2B N 0.7128(5) 0.2211(7) 0.5778(3)
N2C N 0.7128(5) -0.2211(7) 0.4222(3)
N2F N 0.2872(5) -0.2211(7) 0.4222(3)
N2G N 0.2872(5) 0.2211(7) 0.5778(3)
Co1B Co 0.0000 1.0000 0.0000
Co1B_2 Co 1.0000 1.0000 0.0000
Co1B_3 Co 1.0000 -1.0000 1.0000
Co1B_4 Co 0.0000 -1.0000 1.0000
loop_
_geom_bond_atom_site_label_1
_geom_bond_atom_site_label_2
_geom_bond_site_symmetry_1
_geom_bond_site_symmetry_2
Co1 N1 1_555 1_555
N1 C1 1_555 1_555
N2 C3 1_555 1_555
C1 C2 1_555 1_555
C2 C3 1_555 1_555
C3A C2 1_555 1_555
N2A C3A 1_555 1_555
N1D Co1 1_555 1_555
N2D C3D 1_555 1_555
C1D N1D 1_555 1_555
C2D C1D 1_555 1_555
C3D C2D 1_555 1_555
C3E C2D 1_555 1_555
N2E C3E 1_555 1_555
N2B Co1 1_555 1_555
N2C Co1 1_555 1_555
N2F Co1 1_555 1_555
N2G Co1 1_555 1_555
Co1B N2 1_555 1_555
Co1B_2 N2A 1_555 1_555
Co1B_3 N2D 1_555 1_555
Co1B_4 N2E 1_555 1_555

#END
