
#######################################################################
#
#                 Cambridge Crystallographic Data Centre
#                                CCDC 
#
#######################################################################
#
# If this CIF has been generated from an entry in the Cambridge 
# Structural Database, then it will include bibliographic, chemical, 
# crystal, experimental, refinement or atomic coordinate data resulting 
# from the CCDC's data processing and validation procedures.
#
#######################################################################

data_LORGAA04
_symmetry_cell_setting           orthorhombic
_symmetry_space_group_name_H-M   'P m n a'
_symmetry_Int_Tables_number      53
_space_group_name_Hall           '-P 2ac 2'
loop_
_symmetry_equiv_pos_site_id
_symmetry_equiv_pos_as_xyz
1 x,y,z
2 -x,y,z
3 1/2+x,-y,1/2+z
4 1/2+x,y,1/2-z
5 -x,-y,-z
6 x,-y,-z
7 1/2-x,y,1/2-z
8 1/2-x,-y,1/2+z
_cell_length_a                   7.475(2)
_cell_length_b                   5.251(1)
_cell_length_c                   10.446(2)
_cell_angle_alpha                90
_cell_angle_beta                 90
_cell_angle_gamma                90
_cell_volume                     410.018
loop_
_atom_site_label
_atom_site_type_symbol
_atom_site_fract_x
_atom_site_fract_y
_atom_site_fract_z
Co1 Co 0.5000 0.0000 0.5000
N1 N 0.5000 -0.229(1) 0.6710(6)
N2 N 0.2115(5) -0.7795(8) 0.9238(4)
C1 C 0.3385(6) -0.6915(9) 0.8845(4)
C2 C 0.5000 -0.380(1) 0.7495(6)
C3 C 0.5000 -0.582(1) 0.8402(6)
C1A C 0.6615(6) -0.6915(9) 0.8845(4)
N2A N 0.7885(5) -0.7795(8) 0.9238(4)
N1D N 0.5000 0.229(1) 0.3290(6)
N2D N 0.7885(5) 0.7795(8) 0.0762(4)
C1D C 0.6615(6) 0.6915(9) 0.1155(4)
C2D C 0.5000 0.380(1) 0.2505(6)
C3D C 0.5000 0.582(1) 0.1598(6)
C1E C 0.3385(6) 0.6915(9) 0.1155(4)
N2E N 0.2115(5) 0.7795(8) 0.0762(4)
N2B N 0.7115(5) -0.2205(8) 0.4238(4)
N2C N 0.7115(5) 0.2205(8) 0.5762(4)
N2F N 0.2885(5) 0.2205(8) 0.5762(4)
N2G N 0.2885(5) -0.2205(8) 0.4238(4)
Co1B Co 0.0000 -1.0000 1.0000
Co1B_2 Co 1.0000 -1.0000 1.0000
Co1B_3 Co 1.0000 1.0000 0.0000
Co1B_4 Co 0.0000 1.0000 0.0000
loop_
_geom_bond_atom_site_label_1
_geom_bond_atom_site_label_2
_geom_bond_site_symmetry_1
_geom_bond_site_symmetry_2
Co1 N1 1_555 1_555
N1 C2 1_555 1_555
N2 C1 1_555 1_555
C1 C3 1_555 1_555
C2 C3 1_555 1_555
C3 C1A 1_555 1_555
C1A N2A 1_555 1_555
N2A Co1B_2 1_555 1_555
N1D Co1 1_555 1_555
N2D C1D 1_555 1_555
C1D C3D 1_555 1_555
C2D N1D 1_555 1_555
C3D C2D 1_555 1_555
C1E C3D 1_555 1_555
N2E C1E 1_555 1_555
N2B Co1 1_555 1_555
N2C Co1 1_555 1_555
N2F Co1 1_555 1_555
N2G Co1 1_555 1_555
Co1B N2 1_555 1_555
Co1B_3 N2D 1_555 1_555
Co1B_4 N2E 1_555 1_555

#END
