
#######################################################################
#
#                 Cambridge Crystallographic Data Centre
#                                CCDC 
#
#######################################################################
#
# If this CIF has been generated from an entry in the Cambridge 
# Structural Database, then it will include bibliographic, chemical, 
# crystal, experimental, refinement or atomic coordinate data resulting 
# from the CCDC's data processing and validation procedures.
#
#######################################################################

data_LORGAA05
_symmetry_cell_setting           orthorhombic
_symmetry_space_group_name_H-M   'P m n a'
_symmetry_Int_Tables_number      53
_space_group_name_Hall           '-P 2ac 2'
loop_
_symmetry_equiv_pos_site_id
_symmetry_equiv_pos_as_xyz
1 x,y,z
2 -x,y,z
3 1/2+x,-y,1/2+z
4 1/2+x,y,1/2-z
5 -x,-y,-z
6 x,-y,-z
7 1/2-x,y,1/2-z
8 1/2-x,-y,1/2+z
_cell_length_a                   7.477(2)
_cell_length_b                   5.243(2)
_cell_length_c                   10.430(5)
_cell_angle_alpha                90
_cell_angle_beta                 90
_cell_angle_gamma                90
_cell_volume                     408.876
loop_
_atom_site_label
_atom_site_type_symbol
_atom_site_fract_x
_atom_site_fract_y
_atom_site_fract_z
Co1 Co 0.0000 0.0000 1.0000
N1 N 0.0000 -0.229(2) 0.829(1)
N2 N -0.290(1) -0.779(1) 0.5756(9)
C1 C 0.0000 -0.368(3) 0.751(1)
C2 C 0.0000 -0.583(3) 0.660(1)
C3 C -0.163(1) -0.694(2) 0.615(1)
C3A C 0.163(1) -0.694(2) 0.615(1)
N2A N 0.290(1) -0.779(1) 0.5756(9)
N1D N 0.0000 0.229(2) 1.171(1)
N2D N 0.290(1) 0.779(1) 1.4244(9)
C1D C 0.0000 0.368(3) 1.249(1)
C2D C 0.0000 0.583(3) 1.340(1)
C3D C 0.163(1) 0.694(2) 1.385(1)
C3E C -0.163(1) 0.694(2) 1.385(1)
N2E N -0.290(1) 0.779(1) 1.4244(9)
N2B N 0.210(1) -0.221(1) 1.0756(9)
N2C N 0.210(1) 0.221(1) 0.9244(9)
N2F N -0.210(1) 0.221(1) 0.9244(9)
N2G N -0.210(1) -0.221(1) 1.0756(9)
Co1B Co -0.5000 -1.0000 0.5000
Co1B_2 Co 0.5000 -1.0000 0.5000
Co1B_3 Co 0.5000 1.0000 1.5000
Co1B_4 Co -0.5000 1.0000 1.5000
loop_
_geom_bond_atom_site_label_1
_geom_bond_atom_site_label_2
_geom_bond_site_symmetry_1
_geom_bond_site_symmetry_2
Co1 N1 1_555 1_555
N1 C1 1_555 1_555
N2 C3 1_555 1_555
C1 C2 1_555 1_555
C2 C3 1_555 1_555
C3A C2 1_555 1_555
N2A C3A 1_555 1_555
N1D Co1 1_555 1_555
N2D C3D 1_555 1_555
C1D N1D 1_555 1_555
C2D C1D 1_555 1_555
C3D C2D 1_555 1_555
C3E C2D 1_555 1_555
N2E C3E 1_555 1_555
N2B Co1 1_555 1_555
N2C Co1 1_555 1_555
N2F Co1 1_555 1_555
N2G Co1 1_555 1_555
Co1B N2 1_555 1_555
Co1B_2 N2A 1_555 1_555
Co1B_3 N2D 1_555 1_555
Co1B_4 N2E 1_555 1_555

#END
