
#######################################################################
#
#                 Cambridge Crystallographic Data Centre
#                                CCDC 
#
#######################################################################
#
# If this CIF has been generated from an entry in the Cambridge 
# Structural Database, then it will include bibliographic, chemical, 
# crystal, experimental, refinement or atomic coordinate data resulting 
# from the CCDC's data processing and validation procedures.
#
#######################################################################

data_LORHUX
_symmetry_cell_setting           orthorhombic
_symmetry_space_group_name_H-M   'P n m a'
_symmetry_Int_Tables_number      62
_space_group_name_Hall           '-P 2ac 2n'
loop_
_symmetry_equiv_pos_site_id
_symmetry_equiv_pos_as_xyz
1 x,y,z
2 1/2-x,-y,1/2+z
3 -x,1/2+y,-z
4 1/2+x,1/2-y,1/2-z
5 -x,-y,-z
6 1/2+x,y,1/2-z
7 x,1/2-y,z
8 1/2-x,1/2+y,1/2+z
_cell_length_a                   14.9359(7)
_cell_length_b                   6.6886(5)
_cell_length_c                   7.5677(4)
_cell_angle_alpha                90
_cell_angle_beta                 90
_cell_angle_gamma                90
_cell_volume                     756.015
loop_
_atom_site_label
_atom_site_type_symbol
_atom_site_fract_x
_atom_site_fract_y
_atom_site_fract_z
Cd1 Cd 0.40109(2) 0.2500 0.84817(6)
C1 C 0.2892(4) 0.2500 0.5092(8)
C2 C 0.0855(4) 0.2500 0.8861(9)
H1 H 0.0415 0.2500 0.9731
C3 C 0.0940(3) 0.2500 0.4037(8)
O1 O 0.0772(2) 0.0858(5) 0.3331(4)
N1 N 0.0605(3) 0.2500 0.7171(7)
C4 C 0.2157(4) 0.2500 0.6448(8)
C5 C 0.1268(4) 0.2500 0.5940(8)
C6 C 0.1746(4) 0.2500 0.9370(8)
N2 N 0.2399(3) 0.2500 0.8146(7)
O2 O 0.3691(2) 0.2500 0.5585(6)
O3 O 0.3942(3) 0.2500 1.1395(6)
O4 O 0.2640(3) 0.2500 0.3527(6)
H2 H 0.187(4) 0.2500 1.061(9)
H3 H 0.357(5) 0.2500 1.208(11)
O1F O 0.0772(2) 0.4142(5) 0.3331(4)
Cd1A Cd 0.09891(2) -0.2500 0.34817(6)
Cd1A_2 Cd 0.09891(2) 0.7500 0.34817(6)
Cd1C Cd -0.09891(2) 0.2500 0.65183(6)
O1A O 0.4228(2) -0.0858(5) 0.8331(4)
O1G O 0.4228(2) 0.5858(5) 0.8331(4)
N1C N 0.5605(3) 0.2500 0.7829(7)
loop_
_geom_bond_atom_site_label_1
_geom_bond_atom_site_label_2
_geom_bond_site_symmetry_1
_geom_bond_site_symmetry_2
Cd1 N2 1_555 1_555
C1 C4 1_555 1_555
C2 H1 1_555 1_555
C3 O1 1_555 1_555
O1 Cd1A 1_555 1_555
N1 C2 1_555 1_555
C4 C5 1_555 1_555
C5 C3 1_555 1_555
C6 C2 1_555 1_555
N2 C4 1_555 1_555
O2 Cd1 1_555 1_555
O3 Cd1 1_555 1_555
O4 C1 1_555 1_555
H2 C6 1_555 1_555
H3 O3 1_555 1_555
O1F C3 1_555 1_555
Cd1A_2 O1F 1_555 1_555
Cd1C N1 1_555 1_555
O1A Cd1 1_555 1_555
O1G Cd1 1_555 1_555
N1C Cd1 1_555 1_555
C1 O2 1_555 1_555
N1 C5 1_555 1_555
C6 N2 1_555 1_555

#END
