
#######################################################################
#
#                 Cambridge Crystallographic Data Centre
#                                CCDC 
#
#######################################################################
#
# If this CIF has been generated from an entry in the Cambridge 
# Structural Database, then it will include bibliographic, chemical, 
# crystal, experimental, refinement or atomic coordinate data resulting 
# from the CCDC's data processing and validation procedures.
#
#######################################################################

data_LORJUZ
_symmetry_cell_setting           orthorhombic
_symmetry_space_group_name_H-M   'P c a 21'
_symmetry_Int_Tables_number      29
_space_group_name_Hall           'P 2c -2ac'
loop_
_symmetry_equiv_pos_site_id
_symmetry_equiv_pos_as_xyz
1 x,y,z
2 -x,-y,1/2+z
3 1/2+x,-y,z
4 1/2-x,y,1/2+z
_cell_length_a                   15.0919(10)
_cell_length_b                   8.5096(5)
_cell_length_c                   17.6759(12)
_cell_angle_alpha                90
_cell_angle_beta                 90
_cell_angle_gamma                90
_cell_volume                     2270.05
loop_
_atom_site_label
_atom_site_type_symbol
_atom_site_fract_x
_atom_site_fract_y
_atom_site_fract_z
Cu1 Cu 0.60473(5) 0.61698(8) 0.72700(5)
S1 S 0.40668(9) 0.68318(19) 0.83678(8)
S2 S 0.30345(10) 1.3302(2) 0.61834(9)
N1 N 0.5619(3) 0.7785(6) 0.6536(3)
N2 N 0.6382(3) 0.8071(6) 0.7849(3)
O1 O 0.4589(3) 0.6049(5) 0.7799(2)
O2 O 0.3188(2) 0.6191(5) 0.8435(2)
O3 O 0.4515(3) 0.6900(5) 0.9103(2)
O4 O 0.2503(3) 1.4146(5) 0.6729(2)
O5 O 0.3944(3) 1.3842(6) 0.6158(3)
O6 O 0.2643(3) 1.3272(6) 0.5439(2)
O7 O 0.6515(2) 0.4672(5) 0.8031(2)
H1 H 0.6263 0.4742 0.8459
H2 H 0.7051 0.4404 0.8103
O8 O 0.5651(3) 0.4364(5) 0.6665(2)
H3 H 0.5109 0.4211 0.6554
H4 H 0.5950 0.4329 0.6258
C1 C 0.3956(4) 0.8825(8) 0.8084(3)
C2 C 0.4268(4) 0.9971(8) 0.8558(4)
H5 H 0.4532 0.9683 0.9013
C3 C 0.4201(4) 1.1561(8) 0.8373(4)
H6 H 0.4416 1.2315 0.8707
C4 C 0.3824(4) 1.2019(8) 0.7711(4)
H7 H 0.3788 1.3083 0.7593
C5 C 0.3488(3) 1.0893(7) 0.7199(4)
C6 C 0.3549(3) 0.9274(7) 0.7376(3)
C7 C 0.3184(4) 0.8127(8) 0.6882(3)
H8 H 0.3230 0.7064 0.6998
C8 C 0.2770(4) 0.8590(8) 0.6242(3)
H9 H 0.2518 0.7837 0.5927
C9 C 0.2712(4) 1.0171(8) 0.6043(3)
H10 H 0.2421 1.0458 0.5601
C10 C 0.3079(4) 1.1303(8) 0.6492(3)
C11 C 0.5214(4) 0.7537(8) 0.5869(3)
H11 H 0.5128 0.6508 0.5707
C12 C 0.4925(4) 0.8735(8) 0.5422(4)
H12 H 0.4643 0.8520 0.4966
C13 C 0.5054(4) 1.0261(9) 0.5647(4)
H13 H 0.4872 1.1095 0.5344
C14 C 0.5455(4) 1.0523(8) 0.6328(4)
H14 H 0.5538 1.1546 0.6498
C15 C 0.5737(4) 0.9272(7) 0.6766(4)
C16 C 0.6169(4) 0.9442(7) 0.7512(3)
C17 C 0.6321(4) 1.0873(8) 0.7860(4)
H15 H 0.6166 1.1802 0.7617
C18 C 0.6698(4) 1.0917(8) 0.8558(4)
H16 H 0.6800 1.1871 0.8800
C19 C 0.6922(5) 0.9539(9) 0.8896(4)
H17 H 0.7187 0.9545 0.9372
C20 C 0.6757(4) 0.8121(8) 0.8532(4)
H18 H 0.6911 0.7185 0.8769
Cu1B Cu 0.10473(5) 1.38302(8) 0.72700(5)
O4B O 0.7503(3) 0.5854(5) 0.6729(2)
O9 O 0.5888(3) 0.4785(6) 0.9469(2)
H19 H 0.5474 0.5361 0.9298
H20 H 0.5988 0.5056 0.9924
O10 O 0.6436(3) 0.4184(6) 0.5349(2)
H21 H 0.6781 0.4966 0.5294
H22 H 0.6194 0.3984 0.4926
loop_
_geom_bond_atom_site_label_1
_geom_bond_atom_site_label_2
_geom_bond_site_symmetry_1
_geom_bond_site_symmetry_2
Cu1 N1 1_555 1_555
S1 O1 1_555 1_555
S2 O4 1_555 1_555
N1 C11 1_555 1_555
N2 Cu1 1_555 1_555
O1 Cu1 1_555 1_555
O2 S1 1_555 1_555
O3 S1 1_555 1_555
O4 Cu1B 1_555 1_555
O5 S2 1_555 1_555
O6 S2 1_555 1_555
O7 Cu1 1_555 1_555
H1 O7 1_555 1_555
H2 O7 1_555 1_555
O8 Cu1 1_555 1_555
H3 O8 1_555 1_555
H4 O8 1_555 1_555
C1 S1 1_555 1_555
C2 C1 1_555 1_555
H5 C2 1_555 1_555
C3 C2 1_555 1_555
H6 C3 1_555 1_555
C4 C3 1_555 1_555
H7 C4 1_555 1_555
C5 C4 1_555 1_555
C6 C1 1_555 1_555
C7 C6 1_555 1_555
H8 C7 1_555 1_555
C8 C7 1_555 1_555
H9 C8 1_555 1_555
C9 C8 1_555 1_555
H10 C9 1_555 1_555
C10 S2 1_555 1_555
C11 H11 1_555 1_555
C12 C11 1_555 1_555
H12 C12 1_555 1_555
C13 C12 1_555 1_555
H13 C13 1_555 1_555
C14 C13 1_555 1_555
H14 C14 1_555 1_555
C15 N1 1_555 1_555
C16 N2 1_555 1_555
C17 C16 1_555 1_555
H15 C17 1_555 1_555
C18 C17 1_555 1_555
H16 C18 1_555 1_555
C19 C18 1_555 1_555
H17 C19 1_555 1_555
C20 N2 1_555 1_555
H18 C20 1_555 1_555
O9 H19 1_555 1_555
H20 O9 1_555 1_555
O10 H21 1_555 1_555
H22 O10 1_555 1_555
O4B Cu1 1_555 1_555
C5 C6 1_555 1_555
C5 C10 1_555 1_555
C9 C10 1_555 1_555
C14 C15 1_555 1_555
C15 C16 1_555 1_555
C19 C20 1_555 1_555

#END
