
#######################################################################
#
#                 Cambridge Crystallographic Data Centre
#                                CCDC 
#
#######################################################################
#
# If this CIF has been generated from an entry in the Cambridge 
# Structural Database, then it will include bibliographic, chemical, 
# crystal, experimental, refinement or atomic coordinate data resulting 
# from the CCDC's data processing and validation procedures.
#
#######################################################################

data_LORJIN
_symmetry_cell_setting           monoclinic
_symmetry_space_group_name_H-M   'C 2/c'
_symmetry_Int_Tables_number      15
_space_group_name_Hall           '-C 2yn'
loop_
_symmetry_equiv_pos_site_id
_symmetry_equiv_pos_as_xyz
1 x,y,z
2 -x,y,1/2-z
3 1/2+x,1/2+y,z
4 1/2-x,1/2+y,1/2-z
5 -x,-y,-z
6 x,-y,1/2+z
7 1/2-x,1/2-y,-z
8 1/2+x,1/2-y,1/2+z
_cell_length_a                   14.8376(5)
_cell_length_b                   19.6136(8)
_cell_length_c                   9.8090(3)
_cell_angle_alpha                90
_cell_angle_beta                 105.043(4)
_cell_angle_gamma                90
_cell_volume                     2756.78
loop_
_atom_site_label
_atom_site_type_symbol
_atom_site_fract_x
_atom_site_fract_y
_atom_site_fract_z
Cd1 Cd 0.5000 0.12324(2) 0.2500
N1 N 0.37165(19) 0.05779(17) 0.2501(3)
N2 N 0.2722(2) -0.0098(2) 0.3242(4)
N3 N 0.23646(19) 0.00846(18) 0.1880(3)
C1 C 0.2954(2) 0.0487(2) 0.1469(4)
H1 H 0.2849 0.0680 0.0575
C2 C 0.3529(3) 0.0219(3) 0.3560(4)
H2 H 0.3941 0.0195 0.4452
C3 C 0.1466(3) -0.0190(3) 0.1023(4)
H3 H 0.1561 -0.0651 0.0733
H4 H 0.1255 0.0084 0.0177
C4 C 0.0712(2) -0.0194(2) 0.1824(4)
C5 C 0.0345(2) 0.0426(2) 0.2135(4)
C6 C 0.0715(4) 0.1091(2) 0.1721(6)
H5 H 0.0217 0.1417 0.1475
H6 H 0.0967 0.1016 0.0925
H7 H 0.1197 0.1261 0.2500
C7 C 0.0377(2) -0.08121(19) 0.2189(4)
C8 C 0.0820(3) -0.1491(2) 0.1979(6)
H8 H 0.0470 -0.1698 0.1117
H9 H 0.0819 -0.1788 0.2757
H10 H 0.1451 -0.1417 0.1932
C9 C 0.4169(3) 0.1661(2) -0.0125(4)
C10 C 0.3657(3) 0.1900(2) -0.1565(4)
C11 C 0.3782(4) 0.1587(4) -0.2758(5)
H11 H 0.4174 0.1210 -0.2664
C12 C 0.3340(4) 0.1820(3) -0.4089(5)
H12 H 0.3449 0.1603 -0.4874
C13 C 0.2732(2) 0.2373(2) -0.4282(4)
C14 C 0.2567(3) 0.26547(19) -0.3083(4)
H13 H 0.2135 0.3006 -0.3175
C15 C 0.3028(3) 0.2430(2) -0.1740(4)
H14 H 0.2910 0.2639 -0.0952
O1 O 0.4693(2) 0.11478(17) -0.0005(3)
O2 O 0.4056(2) 0.19732(16) 0.0932(3)
N1A N -0.37165(19) 0.05779(17) 0.2499(3)
N2A N -0.2722(2) -0.0098(2) 0.1758(4)
N3A N -0.23646(19) 0.00846(18) 0.3120(3)
C1A C -0.2954(2) 0.0487(2) 0.3531(4)
H1A H -0.2849 0.0680 0.4425
C2A C -0.3529(3) 0.0219(3) 0.1440(4)
H2A H -0.3941 0.0195 0.0548
C3A C -0.1466(3) -0.0190(3) 0.3977(4)
H3A H -0.1561 -0.0651 0.4267
H4A H -0.1255 0.0084 0.4823
C4A C -0.0712(2) -0.0194(2) 0.3176(4)
C5A C -0.0345(2) 0.0426(2) 0.2865(4)
C6A C -0.0715(4) 0.1091(2) 0.3279(6)
H5A H -0.0217 0.1417 0.3525
H6A H -0.0967 0.1016 0.4075
H7A H -0.1197 0.1261 0.2500
C7A C -0.0377(2) -0.08121(19) 0.2811(4)
C8A C -0.0820(3) -0.1491(2) 0.3021(6)
H8A H -0.0470 -0.1698 0.3883
H9A H -0.0819 -0.1788 0.2243
H10A H -0.1451 -0.1417 0.3068
C9F C 0.0831(3) 0.3339(2) -0.9875(4)
C10F C 0.1343(3) 0.3100(2) -0.8435(4)
C11F C 0.1218(4) 0.3413(4) -0.7242(5)
H11F H 0.0826 0.3790 -0.7336
C12F C 0.1660(4) 0.3180(3) -0.5911(5)
H12F H 0.1551 0.3397 -0.5126
C13F C 0.2268(2) 0.2627(2) -0.5718(4)
C14F C 0.2433(3) 0.23453(19) -0.6917(4)
H13F H 0.2865 0.1994 -0.6825
C15F C 0.1972(3) 0.2570(2) -0.8260(4)
H14F H 0.2090 0.2361 -0.9048
O1F O 0.0307(2) 0.38522(17) -0.9995(3)
O2F O 0.0944(2) 0.30268(16) -1.0932(3)
Cd1_2 Cd -0.5000 0.12324(2) 0.2500
Cd1F Cd 0.0000 0.37676(2) -1.2500
N1A_2 N 0.62835(19) 0.05779(17) 0.2499(3)
O1A O 0.5307(2) 0.11478(17) 0.5005(3)
O2A O 0.5944(2) 0.19732(16) 0.4068(3)
loop_
_geom_bond_atom_site_label_1
_geom_bond_atom_site_label_2
_geom_bond_site_symmetry_1
_geom_bond_site_symmetry_2
Cd1 N1 1_555 1_555
N1 C1 1_555 1_555
N2 N3 1_555 1_555
N3 C1 1_555 1_555
C1 H1 1_555 1_555
C2 N1 1_555 1_555
H2 C2 1_555 1_555
C3 N3 1_555 1_555
H3 C3 1_555 1_555
H4 C3 1_555 1_555
C4 C3 1_555 1_555
C5 C4 1_555 1_555
C6 C5 1_555 1_555
H5 C6 1_555 1_555
H6 C6 1_555 1_555
H7 C6 1_555 1_555
C7 C4 1_555 1_555
C8 C7 1_555 1_555
H8 C8 1_555 1_555
H9 C8 1_555 1_555
H10 C8 1_555 1_555
C9 C10 1_555 1_555
C10 C11 1_555 1_555
C11 H11 1_555 1_555
C12 C11 1_555 1_555
H12 C12 1_555 1_555
C13 C12 1_555 1_555
C14 C13 1_555 1_555
H13 C14 1_555 1_555
C15 C10 1_555 1_555
H14 C15 1_555 1_555
O1 Cd1 1_555 1_555
O2 Cd1 1_555 1_555
N1A C1A 1_555 1_555
N2A N3A 1_555 1_555
N3A C1A 1_555 1_555
C1A H1A 1_555 1_555
C2A N1A 1_555 1_555
H2A C2A 1_555 1_555
C3A N3A 1_555 1_555
H3A C3A 1_555 1_555
H4A C3A 1_555 1_555
C4A C3A 1_555 1_555
C5A C5 1_555 1_555
C6A C5A 1_555 1_555
H5A C6A 1_555 1_555
H6A C6A 1_555 1_555
H7A C6A 1_555 1_555
C7A C7 1_555 1_555
C8A C7A 1_555 1_555
H8A C8A 1_555 1_555
H9A C8A 1_555 1_555
H10A C8A 1_555 1_555
C9F C10F 1_555 1_555
C10F C11F 1_555 1_555
C11F H11F 1_555 1_555
C12F C11F 1_555 1_555
H12F C12F 1_555 1_555
C13F C13 1_555 1_555
C14F C13F 1_555 1_555
H13F C14F 1_555 1_555
C15F C10F 1_555 1_555
H14F C15F 1_555 1_555
O1F C9F 1_555 1_555
O2F C9F 1_555 1_555
Cd1_2 N1A 1_555 1_555
Cd1F O1F 1_555 1_555
N1A_2 Cd1 1_555 1_555
O1A Cd1 1_555 1_555
O2A Cd1 1_555 1_555
N2 C2 1_555 1_555
C9 O1 1_555 1_555
C9 O2 1_555 1_555
C14 C15 1_555 1_555
N2A C2A 1_555 1_555
C4A C5A 1_555 1_555
C4A C7A 1_555 1_555
C12F C13F 1_555 1_555
C14F C15F 1_555 1_555
O2F Cd1F 1_555 1_555

#END
