
#######################################################################
#
#                 Cambridge Crystallographic Data Centre
#                                CCDC 
#
#######################################################################
#
# If this CIF has been generated from an entry in the Cambridge 
# Structural Database, then it will include bibliographic, chemical, 
# crystal, experimental, refinement or atomic coordinate data resulting 
# from the CCDC's data processing and validation procedures.
#
#######################################################################

data_LORKAG
_symmetry_cell_setting           triclinic
_symmetry_space_group_name_H-M   'P -1'
_symmetry_Int_Tables_number      2
_space_group_name_Hall           '-P 1'
loop_
_symmetry_equiv_pos_site_id
_symmetry_equiv_pos_as_xyz
1 x,y,z
2 -x,-y,-z
_cell_length_a                   8.3111(5)
_cell_length_b                   12.9128(9)
_cell_length_c                   16.5470(10)
_cell_angle_alpha                68.043(7)
_cell_angle_beta                 75.150(8)
_cell_angle_gamma                72.331(8)
_cell_volume                     1548.69
loop_
_atom_site_label
_atom_site_type_symbol
_atom_site_fract_x
_atom_site_fract_y
_atom_site_fract_z
Pb1 Pb 0.45867(4) 0.58396(3) 0.36180(2)
Pb2 Pb 0.91705(4) 0.58132(4) 0.10543(2)
Pb3 Pb 1.01219(4) 0.39391(3) 0.39585(2)
I1 I 0.61746(9) 0.74834(7) 0.19102(5)
I2 I 0.72127(9) 0.52023(9) -0.00451(6)
I3 I 0.76756(8) 0.36705(6) 0.29428(5)
I4 I 0.74078(8) 0.62163(5) 0.45786(4)
O1 O 0.2342(9) 0.7703(7) 0.3231(5)
O2 O 0.2070(7) 0.6788(5) 0.4658(4)
O3 O -0.0645(8) 0.8323(5) 0.5028(4)
O4 O 1.0670(8) 0.5357(6) 0.2370(4)
O5 O 1.2715(8) 0.5314(6) 0.3000(4)
O6 O 1.1313(8) 0.7070(6) 0.0973(4)
N1 N -0.2520(10) 0.7604(7) 0.6612(5)
N2 N 0.9191(10) 0.7797(8) -0.0194(5)
C1 C 0.1620(12) 0.7618(8) 0.4013(7)
C2 C 0.0188(12) 0.8629(8) 0.4131(7)
H1 H 0.0651 0.9301 0.3989
H2 H -0.0630 0.8819 0.3734
C3 C -0.1928(11) 0.9147(8) 0.5277(7)
C4 C -0.2336(12) 1.0269(9) 0.4780(7)
H3 H -0.1714 1.0532 0.4213
C5 C -0.3712(13) 1.1048(9) 0.5123(8)
H4 H -0.3986 1.1827 0.4784
C6 C -0.4612(14) 1.0674(9) 0.5925(8)
H5 H -0.5501 1.1204 0.6142
C7 C -0.4277(11) 0.9526(8) 0.6450(7)
C8 C -0.5218(13) 0.9086(11) 0.7277(8)
H6 H -0.6147 0.9580 0.7510
C9 C -0.4806(14) 0.7943(11) 0.7755(8)
H7 H -0.5425 0.7642 0.8315
C10 C -0.3443(13) 0.7255(9) 0.7377(7)
H8 H -0.3162 0.6470 0.7701
C11 C -0.2910(11) 0.8730(8) 0.6135(7)
C12 C 1.1898(11) 0.5736(7) 0.2356(5)
C13 C 1.2460(11) 0.6664(8) 0.1583(6)
H9 H 1.2488 0.7293 0.1771
H10 H 1.3617 0.6375 0.1304
C14 C 1.1548(12) 0.8025(8) 0.0251(6)
C15 C 1.2773(13) 0.8581(9) 0.0100(6)
H11 H 1.3616 0.8271 0.0465
C16 C 1.2821(14) 0.9633(9) -0.0605(7)
H12 H 1.3672 1.0025 -0.0697
C17 C 1.1617(13) 1.0062(9) -0.1144(7)
H13 H 1.1619 1.0769 -0.1597
C18 C 1.0382(13) 0.9475(9) -0.1038(6)
C19 C 0.9114(14) 0.9873(11) -0.1582(7)
H14 H 0.9087 1.0565 -0.2054
C20 C 0.7972(16) 0.9275(12) -0.1429(8)
H15 H 0.7125 0.9551 -0.1790
C21 C 0.8001(15) 0.8219(12) -0.0724(8)
H16 H 0.7172 0.7808 -0.0627
C22 C 1.0362(12) 0.8409(9) -0.0335(6)
Pb1_2 Pb 1.45867(4) 0.58396(3) 0.36180(2)
Pb2A Pb 1.08295(4) 0.41868(4) -0.10543(2)
Pb3A Pb -0.01219(4) 0.60609(3) 0.60415(2)
Pb3A_2 Pb 0.98781(4) 0.60609(3) 0.60415(2)
I2A I 1.27873(9) 0.47977(9) 0.00451(6)
I4A I 1.25922(8) 0.37837(5) 0.54214(4)
O2A O 0.7930(7) 0.3212(5) 0.5342(4)
O3A O 1.0645(8) 0.1677(5) 0.4972(4)
O5_2 O 0.2715(8) 0.5314(6) 0.3000(4)
N1A N 1.2520(10) 0.2396(7) 0.3388(5)
loop_
_geom_bond_atom_site_label_1
_geom_bond_atom_site_label_2
_geom_bond_site_symmetry_1
_geom_bond_site_symmetry_2
Pb1 I1 1_555 1_555
Pb2 I1 1_555 1_555
Pb3 I3 1_555 1_555
I2 Pb2 1_555 1_555
I4 Pb1 1_555 1_555
O1 Pb1 1_555 1_555
O2 Pb1 1_555 1_555
O3 C2 1_555 1_555
O4 Pb2 1_555 1_555
O5 C12 1_555 1_555
O6 Pb2 1_555 1_555
N1 C10 1_555 1_555
N2 Pb2 1_555 1_555
C1 O1 1_555 1_555
C2 C1 1_555 1_555
H1 C2 1_555 1_555
H2 C2 1_555 1_555
C3 O3 1_555 1_555
C4 C3 1_555 1_555
H3 C4 1_555 1_555
C5 C4 1_555 1_555
H4 C5 1_555 1_555
C6 C5 1_555 1_555
H5 C6 1_555 1_555
C7 C6 1_555 1_555
C8 C7 1_555 1_555
H6 C8 1_555 1_555
C9 C8 1_555 1_555
H7 C9 1_555 1_555
C10 C9 1_555 1_555
H8 C10 1_555 1_555
C11 N1 1_555 1_555
C12 O4 1_555 1_555
C13 O6 1_555 1_555
H9 C13 1_555 1_555
H10 C13 1_555 1_555
C14 O6 1_555 1_555
C15 C14 1_555 1_555
H11 C15 1_555 1_555
C16 C15 1_555 1_555
H12 C16 1_555 1_555
C17 C16 1_555 1_555
H13 C17 1_555 1_555
C18 C17 1_555 1_555
C19 C18 1_555 1_555
H14 C19 1_555 1_555
C20 C19 1_555 1_555
H15 C20 1_555 1_555
C21 N2 1_555 1_555
H16 C21 1_555 1_555
C22 N2 1_555 1_555
Pb1_2 O5 1_555 1_555
Pb2A I2 1_555 1_555
Pb3A O2 1_555 1_555
Pb3A_2 I4 1_555 1_555
I2A Pb2 1_555 1_555
I4A Pb3 1_555 1_555
O2A Pb3 1_555 1_555
O3A Pb3 1_555 1_555
O5_2 Pb1 1_555 1_555
N1A Pb3 1_555 1_555
Pb3 I4 1_555 1_555
Pb3 O4 1_555 1_555
O2 C1 1_555 1_555
O3 Pb3A 1_555 1_555
N1 Pb3A 1_555 1_555
C3 C11 1_555 1_555
C7 C11 1_555 1_555
C12 C13 1_555 1_555
C14 C22 1_555 1_555
C18 C22 1_555 1_555
C20 C21 1_555 1_555
Pb2A I2A 1_555 1_555
Pb3A_2 I4A 1_555 1_555

#END
