
#######################################################################
#
#                 Cambridge Crystallographic Data Centre
#                                CCDC 
#
#######################################################################
#
# If this CIF has been generated from an entry in the Cambridge 
# Structural Database, then it will include bibliographic, chemical, 
# crystal, experimental, refinement or atomic coordinate data resulting 
# from the CCDC's data processing and validation procedures.
#
#######################################################################

data_LORKEK
_symmetry_cell_setting           monoclinic
_symmetry_space_group_name_H-M   'P 21/n'
_symmetry_Int_Tables_number      14
_space_group_name_Hall           '-P 2yn'
loop_
_symmetry_equiv_pos_site_id
_symmetry_equiv_pos_as_xyz
1 x,y,z
2 1/2-x,1/2+y,1/2-z
3 -x,-y,-z
4 1/2+x,1/2-y,1/2+z
_cell_length_a                   10.0630(4)
_cell_length_b                   16.8373(6)
_cell_length_c                   13.0296(6)
_cell_angle_alpha                90
_cell_angle_beta                 109.821(5)
_cell_angle_gamma                90
_cell_volume                     2076.86
loop_
_atom_site_label
_atom_site_type_symbol
_atom_site_fract_x
_atom_site_fract_y
_atom_site_fract_z
Ba1 Ba 0.47518(4) 0.29114(2) 0.28865(3)
Cd1 Cd 0.63015(4) 0.29895(2) 0.59996(3)
O1 O 0.6609(5) 0.4126(3) 0.7036(3)
O2 O 0.8856(5) 0.3122(3) 0.6161(4)
O3 O 1.3828(5) 0.2938(3) 0.6147(4)
O4 O 0.7523(5) 0.3059(2) 0.7968(4)
O5 O 0.7205(4) 0.3576(3) 0.4707(4)
O6 O 0.9023(5) 0.6846(3) 1.0486(4)
O7 O 1.4253(4) 0.3433(3) 0.4732(4)
O8 O 0.8017(4) 0.6719(2) 0.8710(3)
C1 C 0.9597(6) 0.3738(4) 0.4809(5)
C2 C 0.8480(6) 0.3460(4) 0.5246(5)
C3 C 1.1707(6) 0.4277(4) 0.4064(5)
H1 H 1.2409 0.4454 0.3805
C4 C 0.8148(7) 0.3926(4) 0.9948(5)
H2 H 0.8112 0.3377 1.0011
C5 C 1.0933(6) 0.3417(4) 0.5226(5)
H3 H 1.1127 0.3029 0.5766
C6 C 0.9308(6) 0.4326(4) 0.4015(5)
H4 H 0.8398 0.4527 0.3710
C7 C 0.7764(6) 0.4276(4) 0.8931(5)
C8 C 0.8677(8) 0.5212(4) 1.0789(5)
H5 H 0.8982 0.5521 1.1417
C9 C 0.7856(6) 0.5088(4) 0.8855(5)
H6 H 0.7604 0.5322 0.8169
C10 C 1.0383(7) 0.4608(4) 0.3685(5)
H7 H 1.0208 0.5030 0.3196
C11 C 0.7272(6) 0.3781(3) 0.7923(5)
C12 C 0.8314(6) 0.5565(4) 0.9776(5)
C13 C 1.3446(6) 0.3320(4) 0.5280(5)
C14 C 0.8584(9) 0.4393(4) 1.0865(5)
H8 H 0.8820 0.4157 1.1549
C15 C 1.1994(6) 0.3675(4) 0.4839(5)
C16 C 0.8464(6) 0.6437(4) 0.9663(5)
O9 O 0.5180(6) 0.4563(3) 0.3218(4)
H9 H 0.5548 0.4758 0.3899
H10 H 0.4950 0.4895 0.2642
O10 O 0.7406(8) 0.2628(8) 0.2605(7)
H11 H 0.8201 0.2597 0.3190
H12 H 0.7446 0.2577 0.1929
O11 O 0.5115(13) 0.3661(9) 0.0993(11)
Ba1_2 Ba 1.47518(4) 0.29114(2) 0.28865(3)
Ba1A Ba 1.02482(4) 0.79114(2) 1.21135(3)
Ba1B Ba 0.52482(4) 0.70886(2) 0.71135(3)
Ba1C Ba 0.97518(4) 0.20886(2) 0.78865(3)
Cd1_2 Cd 1.63015(4) 0.29895(2) 0.59996(3)
Cd1A Cd 0.86985(4) 0.79895(2) 0.90004(3)
O2C O 0.3856(5) 0.1878(3) 0.1161(4)
O3_2 O 0.3828(5) 0.2938(3) 0.6147(4)
O4C O 0.2523(5) 0.1941(2) 0.2968(4)
O6A O 0.5977(5) 0.1846(3) 0.4514(4)
O7_2 O 0.4253(4) 0.3433(3) 0.4732(4)
O8A O 0.6983(4) 0.1719(2) 0.6290(3)
O8B O 0.1983(4) 0.3281(2) 0.1290(3)
O12 O 0.4503(15) 0.4276(15) -0.0640(19)
loop_
_geom_bond_atom_site_label_1
_geom_bond_atom_site_label_2
_geom_bond_site_symmetry_1
_geom_bond_site_symmetry_2
Ba1 O5 1_555 1_555
Cd1 O1 1_555 1_555
O1 C11 1_555 1_555
O2 Cd1 1_555 1_555
O3 C13 1_555 1_555
O4 Cd1 1_555 1_555
O5 Cd1 1_555 1_555
O6 C16 1_555 1_555
O7 C13 1_555 1_555
O8 C16 1_555 1_555
C1 C2 1_555 1_555
C2 O2 1_555 1_555
C3 H1 1_555 1_555
C4 H2 1_555 1_555
C5 C1 1_555 1_555
H3 C5 1_555 1_555
C6 C1 1_555 1_555
H4 C6 1_555 1_555
C7 C4 1_555 1_555
C8 H5 1_555 1_555
C9 C7 1_555 1_555
H6 C9 1_555 1_555
C10 C3 1_555 1_555
H7 C10 1_555 1_555
C11 O4 1_555 1_555
C12 C8 1_555 1_555
C13 C15 1_555 1_555
C14 C4 1_555 1_555
H8 C14 1_555 1_555
C15 C3 1_555 1_555
C16 C12 1_555 1_555
O9 Ba1 1_555 1_555
H9 O9 1_555 1_555
H10 O9 1_555 1_555
O10 Ba1 1_555 1_555
H11 O10 1_555 1_555
H12 O10 1_555 1_555
O11 Ba1 1_555 1_555
Ba1_2 O7 1_555 1_555
Ba1A O6 1_555 1_555
Ba1B O8 1_555 1_555
Ba1C O2 1_555 1_555
Cd1_2 O3 1_555 1_555
Cd1A O6 1_555 1_555
O2C Ba1 1_555 1_555
O3_2 Cd1 1_555 1_555
O4C Ba1 1_555 1_555
O6A Ba1 1_555 1_555
O7_2 Ba1 1_555 1_555
O8A Cd1 1_555 1_555
O8B Ba1 1_555 1_555
Cd1 O6A 1_555 1_555
Cd1 O7_2 1_555 1_555
O4 Ba1C 1_555 1_555
O5 C2 1_555 1_555
O7 Cd1_2 1_555 1_555
O8 Cd1A 1_555 1_555
C5 C15 1_555 1_555
C6 C10 1_555 1_555
C7 C11 1_555 1_555
C8 C14 1_555 1_555
C9 C12 1_555 1_555
Ba1C O8A 1_555 1_555

#END
