
#######################################################################
#
#                 Cambridge Crystallographic Data Centre
#                                CCDC 
#
#######################################################################
#
# If this CIF has been generated from an entry in the Cambridge 
# Structural Database, then it will include bibliographic, chemical, 
# crystal, experimental, refinement or atomic coordinate data resulting 
# from the CCDC's data processing and validation procedures.
#
#######################################################################

data_LORLEL
_symmetry_cell_setting           monoclinic
_symmetry_space_group_name_H-M   'C 2'
_symmetry_Int_Tables_number      5
_space_group_name_Hall           'C 2y'
loop_
_symmetry_equiv_pos_site_id
_symmetry_equiv_pos_as_xyz
1 x,y,z
2 -x,y,-z
3 1/2+x,1/2+y,z
4 1/2-x,1/2+y,-z
_cell_length_a                   18.7440(15)
_cell_length_b                   12.8376(10)
_cell_length_c                   13.7650(11)
_cell_angle_alpha                90
_cell_angle_beta                 119.9530(10)
_cell_angle_gamma                90
_cell_volume                     2869.85
loop_
_atom_site_label
_atom_site_type_symbol
_atom_site_fract_x
_atom_site_fract_y
_atom_site_fract_z
Cd1 Cd -0.5000 0.29340(5) 0.0000
S1 S -0.60359(13) 0.32071(17) 0.16738(17)
C1 C -0.5621(5) 0.2552(7) 0.2989(7)
C2 C -0.5329(5) 0.3105(9) 0.3966(6)
C3 C -0.5000 0.2540(9) 0.5000
C4 C -0.5000 0.1475(10) 0.5000
C5 C -0.5300(6) 0.0915(8) 0.3951(8)
C6 C -0.5612(6) 0.1453(8) 0.2971(8)
C7 C -0.4327(9) 0.4905(11) 0.1629(13)
C8 C -0.3924(9) 0.5733(12) 0.2137(14)
C9 C -0.3148(9) 0.5988(10) 0.2205(11)
C10 C -0.2906(8) 0.5327(11) 0.1680(12)
C11 C -0.3377(8) 0.4456(10) 0.1121(10)
C12 C -0.2634(8) 0.6967(9) 0.2869(11)
C13 C -0.3096(5) 0.7956(14) 0.2210(7)
C14 C -0.2624(8) 0.8952(10) 0.2750(11)
C15 C -0.3100(8) 0.9875(9) 0.2200(11)
C16 C -0.3734(8) 1.0176(11) 0.2321(11)
C17 C -0.4213(10) 1.1055(11) 0.1692(14)
C18 C -0.3446(8) 1.1300(10) 0.0870(11)
C19 C -0.2926(9) 1.0471(10) 0.1458(11)
N1 N -0.4093(7) 0.4258(8) 0.1071(9)
N2 N -0.4062(6) 1.1609(8) 0.1010(9)
O1 O -0.5478(3) 0.2889(9) 0.1261(4)
O2 O -0.6004(5) 0.4318(6) 0.1901(6)
O3 O -0.6852(4) 0.2796(10) 0.0973(5)
S1A S -0.39641(13) 0.32071(17) 0.83262(17)
C1A C -0.4379(5) 0.2552(7) 0.7011(7)
C2A C -0.4671(5) 0.3105(9) 0.6034(6)
C5A C -0.4700(6) 0.0915(8) 0.6049(8)
C6A C -0.4388(6) 0.1453(8) 0.7029(8)
O1A O -0.4522(3) 0.2889(9) 0.8739(4)
O2A O -0.3996(5) 0.4318(6) 0.8099(6)
O3A O -0.3148(4) 0.2796(10) 0.9027(5)
C7A C -0.5673(9) 0.4905(11) -0.1629(13)
C8A C -0.6076(9) 0.5733(12) -0.2137(14)
C9A C -0.6852(9) 0.5988(10) -0.2205(11)
C10A C -0.7094(8) 0.5327(11) -0.1680(12)
C11A C -0.6623(8) 0.4456(10) -0.1121(10)
C12A C -0.7366(8) 0.6967(9) -0.2869(11)
C13A C -0.6904(5) 0.7956(14) -0.2210(7)
C14A C -0.7376(8) 0.8952(10) -0.2750(11)
C15A C -0.6900(8) 0.9875(9) -0.2200(11)
C16A C -0.6266(8) 1.0176(11) -0.2321(11)
C17A C -0.5787(10) 1.1055(11) -0.1692(14)
C18A C -0.6554(8) 1.1300(10) -0.0870(11)
C19A C -0.7074(9) 1.0471(10) -0.1458(11)
N1A N -0.5907(7) 0.4258(8) -0.1071(9)
N2A N -0.5938(6) 1.1609(8) -0.1010(9)
Cd1_2 Cd -0.5000 0.29340(5) 1.0000
Cd1_3 Cd -0.5000 1.29340(5) 0.0000
N2_2 N -0.4062(6) 0.1609(8) 0.1010(9)
N2A_2 N -0.5938(6) 0.1609(8) -0.1010(9)
O1A_2 O -0.4522(3) 0.2889(9) -0.1261(4)
C20 C -0.3426(9) 0.9558(14) -0.4694(13)
C21 C -0.2181(10) 1.0012(12) -0.4710(12)
C22 C -0.2314(7) 0.8337(11) -0.4258(10)
C23 C -0.2771(13) 0.756(2) -0.4036(17)
N3 N -0.2551(10) 0.935(2) -0.4548(11)
O4 O -0.1465(8) 0.8198(12) -0.3983(12)
O5 O -0.0384(18) 0.358(2) 0.308(2)
O6 O -0.0968(12) 0.242(3) 0.143(2)
loop_
_geom_bond_atom_site_label_1
_geom_bond_atom_site_label_2
_geom_bond_site_symmetry_1
_geom_bond_site_symmetry_2
Cd1 N1 1_555 1_555
S1 C1 1_555 1_555
C1 C2 1_555 1_555
C2 C3 1_555 1_555
C3 C4 1_555 1_555
C4 C5 1_555 1_555
C5 C6 1_555 1_555
C6 C1 1_555 1_555
C7 C8 1_555 1_555
C8 C9 1_555 1_555
C9 C10 1_555 1_555
C10 C11 1_555 1_555
C11 N1 1_555 1_555
C12 C9 1_555 1_555
C13 C12 1_555 1_555
C14 C13 1_555 1_555
C15 C14 1_555 1_555
C16 C15 1_555 1_555
C17 C16 1_555 1_555
C18 C19 1_555 1_555
C19 C15 1_555 1_555
N1 C7 1_555 1_555
N2 C17 1_555 1_555
O1 Cd1 1_555 1_555
O2 S1 1_555 1_555
O3 S1 1_555 1_555
C20 N3 1_555 1_555
C21 N3 1_555 1_555
C22 C23 1_555 1_555
N3 C22 1_555 1_555
O4 C22 1_555 1_555
S1A C1A 1_555 1_555
C1A C2A 1_555 1_555
C2A C3 1_555 1_555
C5A C4 1_555 1_555
C6A C1A 1_555 1_555
O1A S1A 1_555 1_555
O2A S1A 1_555 1_555
O3A S1A 1_555 1_555
C7A C8A 1_555 1_555
C8A C9A 1_555 1_555
C9A C10A 1_555 1_555
C10A C11A 1_555 1_555
C11A N1A 1_555 1_555
C12A C9A 1_555 1_555
C13A C12A 1_555 1_555
C14A C13A 1_555 1_555
C15A C14A 1_555 1_555
C16A C15A 1_555 1_555
C17A C16A 1_555 1_555
C18A C19A 1_555 1_555
C19A C15A 1_555 1_555
N1A Cd1 1_555 1_555
N2A C17A 1_555 1_555
Cd1_2 O1A 1_555 1_555
Cd1_3 N2 1_555 1_555
N2_2 Cd1 1_555 1_555
N2A_2 Cd1 1_555 1_555
O1A_2 Cd1 1_555 1_555
S1 O1 1_555 1_555
C18 N2 1_555 1_555
C5A C6A 1_555 1_555
C7A N1A 1_555 1_555
C18A N2A 1_555 1_555
N2A Cd1_3 1_555 1_555

#END
