
#######################################################################
#
#                 Cambridge Crystallographic Data Centre
#                                CCDC 
#
#######################################################################
#
# If this CIF has been generated from an entry in the Cambridge 
# Structural Database, then it will include bibliographic, chemical, 
# crystal, experimental, refinement or atomic coordinate data resulting 
# from the CCDC's data processing and validation procedures.
#
#######################################################################

data_LORLAG
_symmetry_cell_setting           monoclinic
_symmetry_space_group_name_H-M   'P 21/n'
_symmetry_Int_Tables_number      14
_space_group_name_Hall           '-P 2yn'
loop_
_symmetry_equiv_pos_site_id
_symmetry_equiv_pos_as_xyz
1 x,y,z
2 1/2-x,1/2+y,1/2-z
3 -x,-y,-z
4 1/2+x,1/2-y,1/2+z
_cell_length_a                   10.0365(11)
_cell_length_b                   8.8416(9)
_cell_length_c                   24.652(3)
_cell_angle_alpha                90
_cell_angle_beta                 101.2411(17)
_cell_angle_gamma                90
_cell_volume                     2145.62
loop_
_atom_site_label
_atom_site_type_symbol
_atom_site_fract_x
_atom_site_fract_y
_atom_site_fract_z
Cd1 Cd 0.679943(15) 0.437296(17) 0.238567(6)
S1 S 0.79825(7) 0.39419(8) 0.15532(3)
S2 S 0.69873(6) 0.40068(7) 0.34425(2)
O1 O 0.69016(15) 0.16182(18) 0.24225(7)
O2 O 0.52612(19) -0.0004(2) 0.21747(8)
O3 O 0.48703(16) 0.2425(2) 0.21162(7)
N1 N 0.7414(2) 0.5295(3) 0.05847(9)
H1 H 0.691(3) 0.581(3) 0.0370(12)
N2 N 0.5897(2) 0.5794(2) 0.11344(8)
H2 H 0.556(3) 0.629(3) 0.0900(12)
N3 N 0.55025(18) 0.5779(2) 0.16333(7)
N4 N 0.50341(18) 0.5905(2) 0.26357(7)
N5 N 0.48566(19) 0.5928(2) 0.31714(8)
H3 H 0.437(3) 0.656(3) 0.3280(12)
N6 N 0.5621(2) 0.5507(2) 0.40821(8)
H4 H 0.500(3) 0.604(3) 0.4129(12)
N7 N 0.56433(19) 0.1318(2) 0.22361(8)
C1 C 0.8620(3) 0.4625(4) 0.04351(12)
H5 H 0.8742 0.5027 0.0086
H6 H 0.8511 0.3548 0.0406
H7 H 0.9401 0.4860 0.0714
C2 C 0.7052(2) 0.5075(3) 0.10693(9)
C3 C 0.4444(2) 0.6535(2) 0.16930(9)
C4 C 0.3579(2) 0.7414(3) 0.12345(10)
H8 H 0.3223 0.6724 0.0936
H9 H 0.4148 0.8144 0.1094
C5 C 0.2388(2) 0.8255(3) 0.14028(10)
H10 H 0.2703 0.9215 0.1571
H11 H 0.1699 0.8460 0.1076
C6 C 0.1774(2) 0.7323(3) 0.18096(11)
H12 H 0.1527 0.6329 0.1656
H13 H 0.0958 0.7813 0.1879
C7 C 0.2809(2) 0.7169(3) 0.23512(10)
H14 H 0.2981 0.8157 0.2521
H15 H 0.2436 0.6526 0.2604
C8 C 0.4126(2) 0.6504(2) 0.22568(9)
C9 C 0.5779(2) 0.5225(2) 0.35718(9)
C10 C 0.6442(3) 0.4826(4) 0.45709(11)
H16 H 0.6244 0.5304 0.4896
H17 H 0.7387 0.4958 0.4561
H18 H 0.6239 0.3766 0.4579
Cd1A Cd 0.820057(15) -0.062704(17) 0.261433(6)
O1A O 0.80984(15) 0.66182(18) 0.25775(7)
O4 O 0.2831(2) 0.4033(2) 0.07672(9)
O5 O 0.1521(2) 0.2105(3) 0.06073(10)
O6 O 0.1674(2) 0.3286(2) 0.13759(8)
N8 N 0.2015(2) 0.3148(2) 0.09195(9)
N9 N 0.4994(3) 0.2447(3) -0.00946(11)
C11 C 0.4942(3) 0.1355(4) 0.08697(12)
H19 H 0.4130 0.0768 0.0853
H20 H 0.4954 0.2166 0.1130
H21 H 0.5721 0.0721 0.0986
C12 C 0.4971(3) 0.1974(3) 0.03269(11)
loop_
_geom_bond_atom_site_label_1
_geom_bond_atom_site_label_2
_geom_bond_site_symmetry_1
_geom_bond_site_symmetry_2
Cd1 S1 1_555 1_555
S1 C2 1_555 1_555
S2 Cd1 1_555 1_555
O1 Cd1 1_555 1_555
O2 N7 1_555 1_555
O3 Cd1 1_555 1_555
O4 N8 1_555 1_555
O5 N8 1_555 1_555
O6 N8 1_555 1_555
N1 H1 1_555 1_555
N2 H2 1_555 1_555
N3 Cd1 1_555 1_555
N4 Cd1 1_555 1_555
N5 N4 1_555 1_555
H3 N5 1_555 1_555
N6 H4 1_555 1_555
N7 O1 1_555 1_555
N9 C12 1_555 1_555
C1 N1 1_555 1_555
H5 C1 1_555 1_555
H6 C1 1_555 1_555
H7 C1 1_555 1_555
C2 N1 1_555 1_555
C3 N3 1_555 1_555
C4 C3 1_555 1_555
H8 C4 1_555 1_555
H9 C4 1_555 1_555
C5 C4 1_555 1_555
H10 C5 1_555 1_555
H11 C5 1_555 1_555
C6 C5 1_555 1_555
H12 C6 1_555 1_555
H13 C6 1_555 1_555
C7 C6 1_555 1_555
H14 C7 1_555 1_555
H15 C7 1_555 1_555
C8 N4 1_555 1_555
C9 S2 1_555 1_555
C10 N6 1_555 1_555
H16 C10 1_555 1_555
H17 C10 1_555 1_555
H18 C10 1_555 1_555
C11 H19 1_555 1_555
H20 C11 1_555 1_555
H21 C11 1_555 1_555
C12 C11 1_555 1_555
Cd1A O1 1_555 1_555
O1A Cd1 1_555 1_555
O3 N7 1_555 1_555
N2 N3 1_555 1_555
N2 C2 1_555 1_555
N5 C9 1_555 1_555
N6 C9 1_555 1_555
C3 C8 1_555 1_555
C7 C8 1_555 1_555

#END
