
#######################################################################
#
#                 Cambridge Crystallographic Data Centre
#                                CCDC 
#
#######################################################################
#
# If this CIF has been generated from an entry in the Cambridge 
# Structural Database, then it will include bibliographic, chemical, 
# crystal, experimental, refinement or atomic coordinate data resulting 
# from the CCDC's data processing and validation procedures.
#
#######################################################################

data_LORLUB
_symmetry_cell_setting           monoclinic
_symmetry_space_group_name_H-M   'C 2/c'
_symmetry_Int_Tables_number      15
_space_group_name_Hall           '-C 2yn'
loop_
_symmetry_equiv_pos_site_id
_symmetry_equiv_pos_as_xyz
1 x,y,z
2 -x,y,1/2-z
3 1/2+x,1/2+y,z
4 1/2-x,1/2+y,1/2-z
5 -x,-y,-z
6 x,-y,1/2+z
7 1/2-x,1/2-y,-z
8 1/2+x,1/2-y,1/2+z
_cell_length_a                   34.108(9)
_cell_length_b                   6.9589(18)
_cell_length_c                   28.698(7)
_cell_angle_alpha                90
_cell_angle_beta                 113.931(3)
_cell_angle_gamma                90
_cell_volume                     6226.03
loop_
_atom_site_label
_atom_site_type_symbol
_atom_site_fract_x
_atom_site_fract_y
_atom_site_fract_z
Cu1 Cu 0.247170(13) -0.20160(6) 0.320759(14)
O1 O 0.21877(7) -0.4421(3) 0.28922(8)
H1 H 0.2323 -0.4948 0.2749
H2 H 0.1893 -0.4302 0.2630
O2 O 0.22903(7) -0.0553(3) 0.25648(8)
O3 O 0.19455(8) 0.1787(3) 0.20318(9)
O4 O 0.19981(9) 0.0902(4) 0.38319(10)
O5 O 0.15781(10) -0.2092(4) 0.36838(10)
N1 N 0.26086(9) -0.3126(4) 0.39038(10)
N2 N 0.28545(8) 0.0101(4) 0.36188(9)
N3 N 0.16882(9) -0.0603(4) 0.29784(10)
H3 H 0.1697 -0.1748 0.2871
S1 S 0.16403(3) -0.02336(13) 0.35112(3)
C1 C 0.24673(12) -0.4726(5) 0.40291(13)
H4 H 0.2284 -0.5513 0.3771
C2 C 0.25834(12) -0.5280(5) 0.45361(13)
H5 H 0.2475 -0.6407 0.4612
C3 C 0.28575(11) -0.4154(5) 0.49188(13)
H6 H 0.2940 -0.4522 0.5257
C4 C 0.30163(11) -0.2432(5) 0.48016(12)
C5 C 0.33039(11) -0.1129(5) 0.51672(13)
H7 H 0.3402 -0.1415 0.5513
C6 C 0.34350(11) 0.0501(5) 0.50216(13)
H8 H 0.3621 0.1318 0.5269
C7 C 0.32938(11) 0.1006(5) 0.44935(12)
C8 C 0.34123(11) 0.2689(5) 0.43140(13)
H9 H 0.3596 0.3569 0.4542
C9 C 0.32547(11) 0.3028(5) 0.37991(13)
H10 H 0.3333 0.4133 0.3676
C10 C 0.29753(11) 0.1700(5) 0.34612(13)
H11 H 0.2870 0.1945 0.3113
C11 C 0.30132(10) -0.0241(5) 0.41303(12)
C12 C 0.28767(10) -0.1985(5) 0.42820(12)
C13 C 0.19977(11) 0.0747(5) 0.24000(12)
C14 C 0.17155(12) 0.1085(5) 0.26864(13)
H12 H 0.1829 0.2160 0.2918
H13 H 0.1429 0.1427 0.2445
C15 C 0.11752(14) 0.1138(7) 0.33870(17)
C16 C 0.12065(15) 0.3051(7) 0.35170(18)
H14 H 0.1472 0.3658 0.3647
C17 C 0.08421(15) 0.4056(8) 0.34537(19)
H15 H 0.0864 0.5346 0.3545
C18 C 0.04460(16) 0.3198(7) 0.32584(19)
C19 C 0.04173(16) 0.1289(8) 0.31204(19)
H16 H 0.0151 0.0689 0.2987
C20 C 0.07806(14) 0.0253(7) 0.31777(18)
H17 H 0.0758 -0.1025 0.3076
C21 C 0.0045(2) 0.4283(10) 0.3210(3)
H18 H 0.0059 0.4570 0.3544
H19 H -0.0203 0.3507 0.3029
H20 H 0.0026 0.5459 0.3027
Cu1C Cu 0.252830(13) 0.29840(6) 0.179241(14)
O3C O 0.30545(8) -0.3213(3) 0.29682(9)
O6 O 0.10209(13) 0.7847(5) 0.21244(13)
O7 O 0.14204(11) 0.5273(5) 0.22551(13)
O8 O 0.07419(9) 0.4622(4) 0.03716(10)
O9 O 0.11852(9) 0.1760(4) 0.07406(11)
N4 N 0.11030(10) 0.4169(5) 0.13034(12)
H21 H 0.1347 0.3771 0.1521
S2 S 0.08841(3) 0.31640(13) 0.07548(3)
C22 C 0.11326(12) 0.6354(6) 0.19862(15)
C23 C 0.08879(12) 0.5751(6) 0.14321(15)
H22 H 0.0599 0.5365 0.1378
H23 H 0.0867 0.6835 0.1211
C24 C 0.04201(13) 0.1969(6) 0.07340(15)
C25 C 0.00255(13) 0.2382(6) 0.03524(16)
H24 H 0.0000 0.3327 0.0112
C26 C -0.03310(14) 0.1382(6) 0.03295(17)
H25 H -0.0598 0.1685 0.0075
C27 C -0.03038(13) -0.0046(6) 0.06713(16)
C28 C 0.00968(13) -0.0411(6) 0.10613(16)
H26 H 0.0122 -0.1339 0.1305
C29 C 0.04563(13) 0.0576(6) 0.10923(16)
H27 H 0.0722 0.0306 0.1353
C30 C -0.06972(17) -0.1168(9) 0.0629(2)
H28 H -0.0834 -0.0525 0.0820
H29 H -0.0613 -0.2437 0.0764
H30 H -0.0894 -0.1253 0.0278
loop_
_geom_bond_atom_site_label_1
_geom_bond_atom_site_label_2
_geom_bond_site_symmetry_1
_geom_bond_site_symmetry_2
Cu1 O1 1_555 1_555
O1 H1 1_555 1_555
H2 O1 1_555 1_555
O2 Cu1 1_555 1_555
O3 C13 1_555 1_555
O4 S1 1_555 1_555
O5 S1 1_555 1_555
N1 Cu1 1_555 1_555
N2 Cu1 1_555 1_555
N3 Cu1 1_555 1_555
H3 N3 1_555 1_555
S1 N3 1_555 1_555
C1 N1 1_555 1_555
H4 C1 1_555 1_555
C2 C1 1_555 1_555
H5 C2 1_555 1_555
C3 C2 1_555 1_555
H6 C3 1_555 1_555
C4 C3 1_555 1_555
C5 C4 1_555 1_555
H7 C5 1_555 1_555
C6 C5 1_555 1_555
H8 C6 1_555 1_555
C7 C6 1_555 1_555
C8 C7 1_555 1_555
H9 C8 1_555 1_555
C9 C8 1_555 1_555
H10 C9 1_555 1_555
C10 N2 1_555 1_555
H11 C10 1_555 1_555
C11 N2 1_555 1_555
C12 N1 1_555 1_555
C13 O2 1_555 1_555
C14 N3 1_555 1_555
H12 C14 1_555 1_555
H13 C14 1_555 1_555
C15 S1 1_555 1_555
C16 C15 1_555 1_555
H14 C16 1_555 1_555
C17 C16 1_555 1_555
H15 C17 1_555 1_555
C18 C17 1_555 1_555
C19 C18 1_555 1_555
H16 C19 1_555 1_555
C20 C15 1_555 1_555
H17 C20 1_555 1_555
C21 C18 1_555 1_555
H18 C21 1_555 1_555
H19 C21 1_555 1_555
H20 C21 1_555 1_555
O6 C22 1_555 1_555
O7 C22 1_555 1_555
O8 S2 1_555 1_555
O9 S2 1_555 1_555
N4 H21 1_555 1_555
S2 N4 1_555 1_555
C22 C23 1_555 1_555
C23 N4 1_555 1_555
H22 C23 1_555 1_555
H23 C23 1_555 1_555
C24 S2 1_555 1_555
C25 C24 1_555 1_555
H24 C25 1_555 1_555
C26 C25 1_555 1_555
H25 C26 1_555 1_555
C27 C26 1_555 1_555
C28 C27 1_555 1_555
H26 C28 1_555 1_555
C29 C24 1_555 1_555
H27 C29 1_555 1_555
C30 C27 1_555 1_555
H28 C30 1_555 1_555
H29 C30 1_555 1_555
H30 C30 1_555 1_555
Cu1C O3 1_555 1_555
O3C Cu1 1_555 1_555
C4 C12 1_555 1_555
C7 C11 1_555 1_555
C9 C10 1_555 1_555
C11 C12 1_555 1_555
C13 C14 1_555 1_555
C19 C20 1_555 1_555
C28 C29 1_555 1_555

#END
