
#######################################################################
#
#                 Cambridge Crystallographic Data Centre
#                                CCDC 
#
#######################################################################
#
# If this CIF has been generated from an entry in the Cambridge 
# Structural Database, then it will include bibliographic, chemical, 
# crystal, experimental, refinement or atomic coordinate data resulting 
# from the CCDC's data processing and validation procedures.
#
#######################################################################

data_LORMIQ
_symmetry_cell_setting           monoclinic
_symmetry_space_group_name_H-M   'P 21/c'
_symmetry_Int_Tables_number      14
_space_group_name_Hall           '-P 2ybc'
loop_
_symmetry_equiv_pos_site_id
_symmetry_equiv_pos_as_xyz
1 x,y,z
2 -x,1/2+y,1/2-z
3 -x,-y,-z
4 x,1/2-y,1/2+z
_cell_length_a                   14.2595(2)
_cell_length_b                   10.8867(2)
_cell_length_c                   18.2700(3)
_cell_angle_alpha                90
_cell_angle_beta                 129.6930(10)
_cell_angle_gamma                90
_cell_volume                     2182.4
loop_
_atom_site_label
_atom_site_type_symbol
_atom_site_fract_x
_atom_site_fract_y
_atom_site_fract_z
Cd1 Cd 0.044594(19) 0.61051(2) 0.896770(15)
O1 O 0.1889(2) 0.4465(3) 0.96008(16)
O2 O 0.1981(2) 0.5483(2) 1.06790(17)
O3 O 0.06731(19) 0.3228(2) 1.05704(16)
O4 O 0.1680(2) 0.3134(3) 1.21004(17)
O5 O -0.0674(2) 0.4207(2) 0.86747(16)
H1 H -0.0407 0.3710 0.9129
H2 H -0.1328 0.4046 0.8119
N1 N 0.1810(2) 0.7699(2) 0.93395(18)
N2 N 0.0112(2) 0.5844(2) 0.75569(17)
C1 C 0.3133(3) 0.3628(3) 1.1147(2)
C2 C 0.2822(3) 0.2921(3) 1.1584(2)
C3 C 0.3623(3) 0.1997(3) 1.2226(2)
H3 H 0.3408 0.1516 1.2519
C4 C 0.4702(3) 0.1796(4) 1.2424(2)
H4 H 0.5196 0.1151 1.2824
C5 C 0.5086(3) 0.2545(3) 1.2035(2)
C6 C 0.4294(3) 0.3478(3) 1.1379(2)
C7 C 0.4704(3) 0.4244(4) 1.1009(3)
H5 H 0.4191 0.4848 1.0567
C8 C 0.5842(4) 0.4104(4) 1.1293(3)
H6 H 0.6103 0.4622 1.1050
C9 C 0.6620(3) 0.3197(4) 1.1942(3)
H7 H 0.7397 0.3117 1.2132
C10 C 0.6257(3) 0.2432(4) 1.2300(3)
H8 H 0.6784 0.1821 1.2726
C11 C 0.2272(3) 0.4593(3) 1.0428(2)
C12 C 0.1648(3) 0.3112(3) 1.1406(2)
C13 C 0.2756(3) 0.7982(4) 1.0242(2)
H9 H 0.2815 0.7598 1.0725
C14 C 0.3641(3) 0.8809(4) 1.0490(3)
H10 H 0.4287 0.8963 1.1128
C15 C 0.3578(3) 0.9417(3) 0.9794(3)
C16 C 0.2596(3) 0.9136(3) 0.8864(3)
H11 H 0.2507 0.9519 0.8368
C17 C 0.1749(3) 0.8291(3) 0.8669(2)
H12 H 0.1095 0.8121 0.8036
C18 C 0.4542(3) 1.0303(4) 1.0024(3)
H13 H 0.4963 1.0631 1.0658
H14 H 0.4157 1.0984 0.9579
C19 C 0.0789(3) 0.5023(3) 0.7540(2)
H15 H 0.1397 0.4612 0.8100
C20 C 0.0629(3) 0.4754(4) 0.6734(2)
H16 H 0.1125 0.4175 0.6755
C21 C -0.0272(4) 0.5346(4) 0.5885(2)
C22 C -0.0948(3) 0.6217(3) 0.5907(2)
H17 H -0.1544 0.6656 0.5360
C23 C -0.0740(3) 0.6439(3) 0.6743(2)
H18 H -0.1213 0.7028 0.6742
C24 C -0.0522(4) 0.4977(5) 0.4975(3)
H19 H -0.0845 0.4147 0.4811
H20 H -0.1146 0.5515 0.4467
N1B N 0.8190(2) 1.2301(2) 1.06605(18)
C13B C 0.7244(3) 1.2018(4) 0.9758(2)
H9B H 0.7185 1.2402 0.9275
C14B C 0.6359(3) 1.1191(4) 0.9510(3)
H10B H 0.5713 1.1037 0.8872
C15B C 0.6422(3) 1.0583(3) 1.0206(3)
C16B C 0.7404(3) 1.0864(3) 1.1136(3)
H11B H 0.7493 1.0481 1.1632
C17B C 0.8251(3) 1.1709(3) 1.1331(2)
H12B H 0.8905 1.1879 1.1964
C18B C 0.5458(3) 0.9697(4) 0.9976(3)
H13B H 0.5037 0.9369 0.9342
H14B H 0.5843 0.9016 1.0421
N2B N -0.0112(2) 0.4156(2) 0.24431(17)
C19B C -0.0789(3) 0.4977(3) 0.2460(2)
H15B H -0.1397 0.5388 0.1900
C20B C -0.0629(3) 0.5246(4) 0.3266(2)
H16B H -0.1125 0.5825 0.3245
C21B C 0.0272(4) 0.4654(4) 0.4115(2)
C22B C 0.0948(3) 0.3783(3) 0.4093(2)
H17B H 0.1544 0.3344 0.4640
C23B C 0.0740(3) 0.3561(3) 0.3257(2)
H18B H 0.1213 0.2972 0.3258
C24B C 0.0522(4) 0.5023(5) 0.5025(3)
H19B H 0.0845 0.5853 0.5189
H20B H 0.1146 0.4485 0.5533
Cd1B Cd -0.044594(19) 0.38949(2) 0.103230(15)
O1B O -0.1889(2) 0.5535(3) 0.03992(16)
O2B O -0.1981(2) 0.4517(2) -0.06790(17)
O3B O -0.06731(19) 0.6772(2) -0.05704(16)
O4B O -0.1680(2) 0.6866(3) -0.21004(17)
O5B O 0.0674(2) 0.5793(2) 0.13253(16)
H1B H 0.0407 0.6290 0.0871
H2B H 0.1328 0.5954 0.1881
C1B C -0.3133(3) 0.6372(3) -0.1147(2)
C2B C -0.2822(3) 0.7079(3) -0.1584(2)
C3B C -0.3623(3) 0.8003(3) -0.2226(2)
H3B H -0.3408 0.8484 -0.2519
C4B C -0.4702(3) 0.8204(4) -0.2424(2)
H4B H -0.5196 0.8849 -0.2824
C5B C -0.5086(3) 0.7455(3) -0.2035(2)
C6B C -0.4294(3) 0.6522(3) -0.1379(2)
C7B C -0.4704(3) 0.5756(4) -0.1009(3)
H5B H -0.4191 0.5152 -0.0567
C8B C -0.5842(4) 0.5896(4) -0.1293(3)
H6B H -0.6103 0.5378 -0.1050
C9B C -0.6620(3) 0.6803(4) -0.1942(3)
H7B H -0.7397 0.6883 -0.2132
C10B C -0.6257(3) 0.7568(4) -0.2300(3)
H8B H -0.6784 0.8179 -0.2726
C11B C -0.2272(3) 0.5407(3) -0.0428(2)
C12B C -0.1648(3) 0.6888(3) -0.1406(2)
Cd1_2 Cd 0.044594(19) 0.61051(2) -0.103230(15)
Cd1B_2 Cd -0.044594(19) 0.38949(2) 1.103230(15)
Cd1B_3 Cd 0.955406(19) 1.38949(2) 1.103230(15)
O3_2 O 0.06731(19) 0.3228(2) 0.05704(16)
O3B_2 O -0.06731(19) 0.6772(2) 0.94296(16)
O4_2 O 0.1680(2) 0.3134(3) 0.21004(17)
O4B_2 O -0.1680(2) 0.6866(3) 0.78996(17)
N1B_2 N -0.1810(2) 0.2301(2) 0.06605(18)
loop_
_geom_bond_atom_site_label_1
_geom_bond_atom_site_label_2
_geom_bond_site_symmetry_1
_geom_bond_site_symmetry_2
Cd1 O1 1_555 1_555
O1 C11 1_555 1_555
O2 Cd1 1_555 1_555
O3 C12 1_555 1_555
O4 C12 1_555 1_555
O5 Cd1 1_555 1_555
H1 O5 1_555 1_555
H2 O5 1_555 1_555
N1 Cd1 1_555 1_555
N2 Cd1 1_555 1_555
C1 C2 1_555 1_555
C2 C3 1_555 1_555
C3 H3 1_555 1_555
C4 C3 1_555 1_555
H4 C4 1_555 1_555
C5 C4 1_555 1_555
C6 C1 1_555 1_555
C7 C6 1_555 1_555
H5 C7 1_555 1_555
C8 C7 1_555 1_555
H6 C8 1_555 1_555
C9 C8 1_555 1_555
H7 C9 1_555 1_555
C10 C5 1_555 1_555
H8 C10 1_555 1_555
C11 O2 1_555 1_555
C12 C2 1_555 1_555
C13 N1 1_555 1_555
H9 C13 1_555 1_555
C14 C13 1_555 1_555
H10 C14 1_555 1_555
C15 C14 1_555 1_555
C16 C15 1_555 1_555
H11 C16 1_555 1_555
C17 N1 1_555 1_555
H12 C17 1_555 1_555
C18 C15 1_555 1_555
H13 C18 1_555 1_555
H14 C18 1_555 1_555
C19 N2 1_555 1_555
H15 C19 1_555 1_555
C20 C19 1_555 1_555
H16 C20 1_555 1_555
C21 C20 1_555 1_555
C22 C21 1_555 1_555
H17 C22 1_555 1_555
C23 N2 1_555 1_555
H18 C23 1_555 1_555
C24 C21 1_555 1_555
H19 C24 1_555 1_555
H20 C24 1_555 1_555
N1B C13B 1_555 1_555
C13B H9B 1_555 1_555
C14B C13B 1_555 1_555
H10B C14B 1_555 1_555
C15B C14B 1_555 1_555
C16B C15B 1_555 1_555
H11B C16B 1_555 1_555
C17B N1B 1_555 1_555
H12B C17B 1_555 1_555
C18B C18 1_555 1_555
H13B C18B 1_555 1_555
H14B C18B 1_555 1_555
N2B C19B 1_555 1_555
C19B H15B 1_555 1_555
C20B C19B 1_555 1_555
H16B C20B 1_555 1_555
C21B C20B 1_555 1_555
C22B C21B 1_555 1_555
H17B C22B 1_555 1_555
C23B N2B 1_555 1_555
H18B C23B 1_555 1_555
C24B C24 1_555 1_555
H19B C24B 1_555 1_555
H20B C24B 1_555 1_555
Cd1B N2B 1_555 1_555
O1B Cd1B 1_555 1_555
O2B Cd1B 1_555 1_555
O3B C12B 1_555 1_555
O4B C12B 1_555 1_555
O5B Cd1B 1_555 1_555
H1B O5B 1_555 1_555
H2B O5B 1_555 1_555
C1B C2B 1_555 1_555
C2B C3B 1_555 1_555
C3B H3B 1_555 1_555
C4B C3B 1_555 1_555
H4B C4B 1_555 1_555
C5B C4B 1_555 1_555
C6B C1B 1_555 1_555
C7B C6B 1_555 1_555
H5B C7B 1_555 1_555
C8B C7B 1_555 1_555
H6B C8B 1_555 1_555
C9B C8B 1_555 1_555
H7B C9B 1_555 1_555
C10B C5B 1_555 1_555
H8B C10B 1_555 1_555
C11B O1B 1_555 1_555
C12B C2B 1_555 1_555
Cd1_2 O3B 1_555 1_555
Cd1B_2 O3 1_555 1_555
Cd1B_3 N1B 1_555 1_555
O3_2 Cd1B 1_555 1_555
O3B_2 Cd1 1_555 1_555
O4_2 Cd1B 1_555 1_555
O4B_2 Cd1 1_555 1_555
N1B_2 Cd1B 1_555 1_555
O4 Cd1B_2 1_555 1_555
C1 C11 1_555 1_555
C5 C6 1_555 1_555
C9 C10 1_555 1_555
C16 C17 1_555 1_555
C22 C23 1_555 1_555
C15B C18B 1_555 1_555
C16B C17B 1_555 1_555
C21B C24B 1_555 1_555
C22B C23B 1_555 1_555
O2B C11B 1_555 1_555
O4B Cd1_2 1_555 1_555
C1B C11B 1_555 1_555
C5B C6B 1_555 1_555
C9B C10B 1_555 1_555

#END
