
#######################################################################
#
#                 Cambridge Crystallographic Data Centre
#                                CCDC 
#
#######################################################################
#
# If this CIF has been generated from an entry in the Cambridge 
# Structural Database, then it will include bibliographic, chemical, 
# crystal, experimental, refinement or atomic coordinate data resulting 
# from the CCDC's data processing and validation procedures.
#
#######################################################################

data_LORQIU
_symmetry_cell_setting           triclinic
_symmetry_space_group_name_H-M   'P -1'
_symmetry_Int_Tables_number      2
_space_group_name_Hall           '-P 1'
loop_
_symmetry_equiv_pos_site_id
_symmetry_equiv_pos_as_xyz
1 x,y,z
2 -x,-y,-z
_cell_length_a                   9.08(3)
_cell_length_b                   12.01(4)
_cell_length_c                   18.10(10)
_cell_angle_alpha                82.90(3)
_cell_angle_beta                 86.40(3)
_cell_angle_gamma                70.90(2)
_cell_volume                     1850.33
loop_
_atom_site_label
_atom_site_type_symbol
_atom_site_fract_x
_atom_site_fract_y
_atom_site_fract_z
In1 In 0.26970(5) 0.29697(4) 0.36401(2)
O1 O 0.2973(5) 0.2671(4) 0.8182(2)
O2 O 0.2074(5) -0.0470(3) 1.1242(2)
O3 O 0.6117(5) 0.2671(4) 1.0800(2)
O4 O 0.3888(5) 0.2823(4) 0.4701(2)
O5 O 0.1339(5) 0.3605(3) 0.4730(2)
O6 O 0.3127(5) -0.5536(4) 1.3058(2)
O7 O 0.2576(5) -0.4391(4) 1.3994(2)
O8 O 1.2018(5) 0.2644(4) 1.2509(2)
O9 O 1.0178(5) 0.3607(4) 1.3266(2)
O10 O 0.5058(5) 0.1897(4) 0.3270(2)
O11 O 0.2369(5) 0.1344(4) 0.4105(2)
O12 O 0.2300(6) -0.0478(4) 0.4101(3)
N1 N 0.7346(6) 0.0429(5) 0.3522(3)
C1 C 0.2287(7) 0.2484(5) 0.9439(3)
C2 C 0.2238(7) 0.1338(5) 0.9664(3)
C3 C 0.3014(7) 0.0716(5) 1.0315(3)
C4 C 0.3750(7) 0.1256(5) 1.0754(3)
C5 C 0.3728(7) 0.2410(5) 1.0541(3)
C6 C 0.3034(7) 0.3018(5) 0.9876(3)
C7 C 0.1392(8) 0.0776(6) 0.9203(3)
H1 H 0.1469 -0.0003 0.9436
H2 H 0.1858 0.0722 0.8712
H3 H 0.0315 0.1255 0.9170
C8 C 0.4562(7) 0.0565(5) 1.1463(3)
H4 H 0.4456 -0.0211 1.1527
H5 H 0.4092 0.0977 1.1884
H6 H 0.5647 0.0494 1.1425
C9 C 0.3184(8) 0.4223(6) 0.9608(4)
H7 H 0.2642 0.4528 0.9150
H8 H 0.4265 0.4150 0.9527
H9 H 0.2739 0.4757 0.9977
C10 C 0.1675(8) 0.3112(6) 0.8687(3)
H10 H 0.0775 0.2915 0.8559
H11 H 0.1389 0.3965 0.8683
C11 C 0.2782(8) 0.2866(6) 0.7433(3)
C12 C 0.1382(7) 0.3538(6) 0.7092(3)
H12 H 0.0500 0.3898 0.7373
C13 C 0.1346(7) 0.3652(5) 0.6314(3)
H13 H 0.0421 0.4083 0.6076
C14 C 0.2669(7) 0.3131(5) 0.5890(3)
C15 C 0.4056(7) 0.2476(6) 0.6246(3)
H14 H 0.4946 0.2122 0.5967
C16 C 0.4099(8) 0.2358(6) 0.7010(4)
H15 H 0.5027 0.1930 0.7247
C17 C 0.2605(8) 0.3211(6) 0.5069(3)
C18 C 0.3021(8) -0.0530(5) 1.0567(3)
H16 H 0.2591 -0.0831 1.0188
H17 H 0.4077 -0.1051 1.0662
C19 C 0.2277(7) -0.1496(6) 1.1708(4)
C20 C 0.2874(8) -0.2623(6) 1.1475(4)
H18 H 0.3171 -0.2722 1.0980
C21 C 0.3014(7) -0.3601(6) 1.2003(4)
H19 H 0.3395 -0.4358 1.1852
C22 C 0.2602(7) -0.3475(6) 1.2749(3)
C23 C 0.2017(7) -0.2338(5) 1.2961(3)
H20 H 0.1741 -0.2236 1.3458
C24 C 0.1836(7) -0.1358(6) 1.2450(3)
H21 H 0.1420 -0.0602 1.2601
C25 C 0.2782(7) -0.4533(6) 1.3324(4)
C26 C 0.4482(7) 0.2990(6) 1.1033(3)
H22 H 0.3996 0.3844 1.0970
H23 H 0.4380 0.2704 1.1552
C27 C 0.7126(7) 0.2888(5) 1.1254(3)
C28 C 0.6675(7) 0.3490(5) 1.1887(3)
H24 H 0.5626 0.3803 1.2020
C29 C 0.7812(7) 0.3611(5) 1.2311(3)
H25 H 0.7515 0.4038 1.2721
C30 C 0.9371(7) 0.3118(5) 1.2146(3)
C31 C 0.9819(8) 0.2527(6) 1.1509(3)
H26 H 1.0871 0.2203 1.1384
C32 C 0.8702(7) 0.2425(6) 1.1065(3)
H27 H 0.9002 0.2044 1.0636
C33 C 1.0576(7) 0.3145(6) 1.2657(3)
C34 C 0.6003(8) 0.1151(6) 0.3719(4)
H28 H 0.5720 0.1117 0.4222
C35 C 0.8397(8) -0.0393(6) 0.4069(4)
H29 H 0.9324 -0.0846 0.3820
H30 H 0.7889 -0.0919 0.4329
H31 H 0.8668 0.0044 0.4418
C36 C 0.7839(9) 0.0382(7) 0.2747(4)
H32 H 0.8856 -0.0195 0.2711
H33 H 0.7877 0.1146 0.2536
H34 H 0.7112 0.0164 0.2481
C37 C 0.2573(9) 0.0420(7) 0.3816(4)
H35 H 0.3459 0.0209 0.3342
In1_2 In 0.26970(5) -0.70303(4) 1.36401(2)
In1_3 In 1.26970(5) 0.29697(4) 1.36401(2)
O6_2 O 0.3127(5) 0.4464(4) 0.3058(2)
O8_2 O 0.2018(5) 0.2644(4) 0.2509(2)
O9_2 O 0.0178(5) 0.3607(4) 0.3266(2)
N2 N 0.8084(6) 0.3691(5) 0.4569(3)
C38 C 0.8645(9) 0.2377(6) 0.4698(4)
H36 H 0.9708 0.2107 0.4852
H37 H 0.8581 0.2056 0.4245
H38 H 0.8009 0.2117 0.5079
C39 C 0.6465(7) 0.4150(6) 0.4333(4)
H39 H 0.6141 0.5000 0.4256
H40 H 0.5811 0.3904 0.4711
H41 H 0.6381 0.3846 0.3876
H42 H 0.8353 0.3972 0.5021
H43 H 0.8789 0.4002 0.4277
loop_
_geom_bond_atom_site_label_1
_geom_bond_atom_site_label_2
_geom_bond_site_symmetry_1
_geom_bond_site_symmetry_2
In1 O4 1_555 1_555
O1 C10 1_555 1_555
O2 C18 1_555 1_555
O3 C26 1_555 1_555
O4 C17 1_555 1_555
O5 In1 1_555 1_555
O6 C25 1_555 1_555
O7 C25 1_555 1_555
O8 C33 1_555 1_555
O9 C33 1_555 1_555
O10 In1 1_555 1_555
O11 In1 1_555 1_555
O12 C37 1_555 1_555
N1 C34 1_555 1_555
C1 C2 1_555 1_555
C2 C3 1_555 1_555
C3 C4 1_555 1_555
C4 C5 1_555 1_555
C5 C6 1_555 1_555
C6 C1 1_555 1_555
C7 C2 1_555 1_555
H1 C7 1_555 1_555
H2 C7 1_555 1_555
H3 C7 1_555 1_555
C8 C4 1_555 1_555
H4 C8 1_555 1_555
H5 C8 1_555 1_555
H6 C8 1_555 1_555
C9 C6 1_555 1_555
H7 C9 1_555 1_555
H8 C9 1_555 1_555
H9 C9 1_555 1_555
C10 C1 1_555 1_555
H10 C10 1_555 1_555
H11 C10 1_555 1_555
C11 O1 1_555 1_555
C12 C11 1_555 1_555
H12 C12 1_555 1_555
C13 C12 1_555 1_555
H13 C13 1_555 1_555
C14 C13 1_555 1_555
C15 C14 1_555 1_555
H14 C15 1_555 1_555
C16 C11 1_555 1_555
H15 C16 1_555 1_555
C17 O5 1_555 1_555
C18 C3 1_555 1_555
H16 C18 1_555 1_555
H17 C18 1_555 1_555
C19 O2 1_555 1_555
C20 C19 1_555 1_555
H18 C20 1_555 1_555
C21 C20 1_555 1_555
H19 C21 1_555 1_555
C22 C21 1_555 1_555
C23 C22 1_555 1_555
H20 C23 1_555 1_555
C24 C19 1_555 1_555
H21 C24 1_555 1_555
C25 C22 1_555 1_555
C26 C5 1_555 1_555
H22 C26 1_555 1_555
H23 C26 1_555 1_555
C27 O3 1_555 1_555
C28 C27 1_555 1_555
H24 C28 1_555 1_555
C29 C28 1_555 1_555
H25 C29 1_555 1_555
C30 C29 1_555 1_555
C31 C30 1_555 1_555
H26 C31 1_555 1_555
C32 C27 1_555 1_555
H27 C32 1_555 1_555
C33 C30 1_555 1_555
C34 O10 1_555 1_555
H28 C34 1_555 1_555
C35 N1 1_555 1_555
H29 C35 1_555 1_555
H30 C35 1_555 1_555
H31 C35 1_555 1_555
C36 N1 1_555 1_555
H32 C36 1_555 1_555
H33 C36 1_555 1_555
H34 C36 1_555 1_555
C37 O11 1_555 1_555
H35 C37 1_555 1_555
N2 C38 1_555 1_555
C38 H36 1_555 1_555
H37 C38 1_555 1_555
H38 C38 1_555 1_555
C39 N2 1_555 1_555
H39 C39 1_555 1_555
H40 C39 1_555 1_555
H41 C39 1_555 1_555
H42 N2 1_555 1_555
H43 N2 1_555 1_555
In1_2 O6 1_555 1_555
In1_3 O8 1_555 1_555
O6_2 In1 1_555 1_555
O8_2 In1 1_555 1_555
O9_2 In1 1_555 1_555
O9 In1_3 1_555 1_555
C14 C17 1_555 1_555
C15 C16 1_555 1_555
C23 C24 1_555 1_555
C31 C32 1_555 1_555

#END
