
#######################################################################
#
#                 Cambridge Crystallographic Data Centre
#                                CCDC 
#
#######################################################################
#
# If this CIF has been generated from an entry in the Cambridge 
# Structural Database, then it will include bibliographic, chemical, 
# crystal, experimental, refinement or atomic coordinate data resulting 
# from the CCDC's data processing and validation procedures.
#
#######################################################################

data_LORSOB
_symmetry_cell_setting           triclinic
_symmetry_space_group_name_H-M   'P -1'
_symmetry_Int_Tables_number      2
_space_group_name_Hall           '-P 1'
loop_
_symmetry_equiv_pos_site_id
_symmetry_equiv_pos_as_xyz
1 x,y,z
2 -x,-y,-z
_cell_length_a                   6.9999(3)
_cell_length_b                   9.3318(4)
_cell_length_c                   14.2802(12)
_cell_angle_alpha                85.341(11)
_cell_angle_beta                 84.805(11)
_cell_angle_gamma                75.127(9)
_cell_volume                     896.221
loop_
_atom_site_label
_atom_site_type_symbol
_atom_site_fract_x
_atom_site_fract_y
_atom_site_fract_z
Mo1 Mo 0.33538(6) 0.54735(4) 0.61500(3)
Mo2 Mo 0.79610(6) 0.81367(4) 0.48598(3)
Co1 Co 0.68397(10) 0.19728(7) 0.57378(4)
Co2 Co 0.86114(10) 0.47543(7) 0.59389(4)
O1 O 0.2773(6) 0.5535(4) 0.7330(3)
O2 O 0.5847(5) 0.4294(4) 0.5963(2)
O3 O 0.3270(5) 0.7300(4) 0.5719(2)
O4 O 0.1535(5) 0.4816(4) 0.5605(2)
O5 O 0.7736(5) 0.7030(4) 0.5898(2)
O6 O 0.3970(5) 0.1776(4) 0.5879(2)
O7 O 0.7780(6) -0.0088(4) 0.5193(3)
O8 O 0.9617(5) 0.2480(3) 0.5747(2)
N1 N 0.5513(8) 0.1973(6) 1.1134(3)
N2 N 0.6639(8) 0.1031(6) 1.0506(3)
N3 N 0.7329(6) 0.1025(5) 0.7129(3)
N4 N 0.4518(8) 0.2915(6) 0.9757(3)
H1 H 0.3906 0.3476 0.9313
N5 N 0.1353(7) 0.5373(5) 1.2593(3)
C1 C 0.5990(9) 0.1645(7) 0.9688(4)
C2 C 0.6923(9) 0.0950(6) 0.8813(4)
C3 C 0.8400(10) -0.0338(7) 0.8856(4)
H2 H 0.8754 -0.0804 0.9438
C4 C 0.9360(10) -0.0945(7) 0.8045(4)
H3 H 1.0364 -0.1818 0.8068
C5 C 0.8790(8) -0.0221(6) 0.7191(4)
H4 H 0.9448 -0.0615 0.6638
C6 C 0.6391(8) 0.1609(6) 0.7930(4)
H5 H 0.5367 0.2469 0.7893
C7 C 0.4259(9) 0.3077(7) 1.0677(4)
C8 C 0.2820(9) 0.4300(6) 1.1144(4)
C9 C 0.1630(10) 0.5483(7) 1.0643(4)
H6 H 0.1746 0.5543 0.9988
C10 C 0.0288(10) 0.6556(7) 1.1124(4)
H7 H -0.0559 0.7331 1.0799
C11 C 0.0197(9) 0.6480(7) 1.2098(4)
H8 H -0.0700 0.7227 1.2419
C12 C 0.2626(8) 0.4286(6) 1.2117(4)
H9 H 0.3405 0.3494 1.2459
Mo2A Mo 0.20390(6) 0.18633(4) 0.51402(3)
Mo2_2 Mo 0.79610(6) -0.18633(4) 0.48598(3)
Mo2A_2 Mo 1.20390(6) 0.18633(4) 0.51402(3)
Co1A Co 0.31603(10) 0.80272(7) 0.42622(4)
Co2_2 Co -0.13886(10) 0.47543(7) 0.59389(4)
Co2A Co 0.13886(10) 0.52457(7) 0.40611(4)
Co2A_2 Co 0.13886(10) 0.52457(7) 1.40611(4)
O3A O 0.6730(5) 0.2700(4) 0.4281(2)
O4_2 O 1.1535(5) 0.4816(4) 0.5605(2)
O4A O 0.8465(5) 0.5184(4) 0.4395(2)
O6A O 0.6030(5) 0.8224(4) 0.4121(2)
O7_2 O 0.7780(6) 0.9912(4) 0.5193(3)
O8A O 1.0383(5) 0.7520(3) 0.4253(2)
N5A N 0.8647(7) 0.4627(5) 0.7407(3)
O9 O 0.6090(8) 0.0907(5) 0.2937(3)
H10 H 0.6079 0.1456 0.3385
H11 H 0.5831 0.0125 0.3205
loop_
_geom_bond_atom_site_label_1
_geom_bond_atom_site_label_2
_geom_bond_site_symmetry_1
_geom_bond_site_symmetry_2
Mo1 O1 1_555 1_555
Mo2 O5 1_555 1_555
Co1 O2 1_555 1_555
Co2 O2 1_555 1_555
O2 Mo1 1_555 1_555
O3 Mo1 1_555 1_555
O4 Mo1 1_555 1_555
O5 Co2 1_555 1_555
O6 Co1 1_555 1_555
O7 Co1 1_555 1_555
O8 Co1 1_555 1_555
N1 N2 1_555 1_555
N2 C1 1_555 1_555
N3 Co1 1_555 1_555
N4 H1 1_555 1_555
N5 C11 1_555 1_555
C1 N4 1_555 1_555
C2 C1 1_555 1_555
C3 C2 1_555 1_555
H2 C3 1_555 1_555
C4 C3 1_555 1_555
H3 C4 1_555 1_555
C5 N3 1_555 1_555
H4 C5 1_555 1_555
C6 N3 1_555 1_555
H5 C6 1_555 1_555
C7 N1 1_555 1_555
C8 C7 1_555 1_555
C9 C8 1_555 1_555
H6 C9 1_555 1_555
C10 C9 1_555 1_555
H7 C10 1_555 1_555
C11 C10 1_555 1_555
H8 C11 1_555 1_555
C12 N5 1_555 1_555
H9 C12 1_555 1_555
O9 H10 1_555 1_555
H11 O9 1_555 1_555
Mo2A O6 1_555 1_555
Mo2_2 O7 1_555 1_555
Mo2A_2 O8 1_555 1_555
Co1A O3 1_555 1_555
Co2_2 O4 1_555 1_555
Co2A O4 1_555 1_555
Co2A_2 N5 1_555 1_555
O3A Co1 1_555 1_555
O4_2 Co2 1_555 1_555
O4A Co2 1_555 1_555
O6A Mo2 1_555 1_555
O7_2 Mo2 1_555 1_555
O8A Mo2 1_555 1_555
N5A Co2 1_555 1_555
Co2 O8 1_555 1_555
N4 C7 1_555 1_555
C2 C6 1_555 1_555
C4 C5 1_555 1_555
C8 C12 1_555 1_555
Co1A O6A 1_555 1_555

#END
