
#######################################################################
#
#                 Cambridge Crystallographic Data Centre
#                                CCDC 
#
#######################################################################
#
# If this CIF has been generated from an entry in the Cambridge 
# Structural Database, then it will include bibliographic, chemical, 
# crystal, experimental, refinement or atomic coordinate data resulting 
# from the CCDC's data processing and validation procedures.
#
#######################################################################

data_LORSIV
_symmetry_cell_setting           monoclinic
_symmetry_space_group_name_H-M   'C 2/c'
_symmetry_Int_Tables_number      15
_space_group_name_Hall           '-C 2yn'
loop_
_symmetry_equiv_pos_site_id
_symmetry_equiv_pos_as_xyz
1 x,y,z
2 1/2+x,1/2+y,z
3 -x,y,1/2-z
4 1/2-x,1/2+y,1/2-z
5 -x,-y,-z
6 1/2-x,1/2-y,-z
7 x,-y,1/2+z
8 1/2+x,1/2-y,1/2+z
_cell_length_a                   25.023(5)
_cell_length_b                   9.3994(19)
_cell_length_c                   18.229(4)
_cell_angle_alpha                90
_cell_angle_beta                 114.13(3)
_cell_angle_gamma                90
_cell_volume                     3912.84
loop_
_atom_site_label
_atom_site_type_symbol
_atom_site_fract_x
_atom_site_fract_y
_atom_site_fract_z
O2 O 0.9471(15) 0.061(3) 0.2613(15)
Ho1 Ho 0.923904(18) 0.39931(4) 0.44997(3)
N1 N 0.8197(5) 0.4134(11) 0.4471(8)
N2 N 0.8370(4) 0.3439(11) 0.3155(6)
C1 C 0.8112(7) 0.450(2) 0.5125(11)
H1 H 0.8439 0.4766 0.5579
C2 C 0.7579(8) 0.451(2) 0.5179(14)
H2 H 0.7550 0.4755 0.5655
C3 C 0.7078(9) 0.4135(18) 0.4483(15)
H3 H 0.6704 0.4151 0.4474
C4 C 0.7170(7) 0.3764(19) 0.3853(17)
H4 H 0.6849 0.3504 0.3390
C5 C 0.7726(6) 0.3735(14) 0.3832(12)
C6 C 0.7827(5) 0.3348(13) 0.3107(8)
C7 C 0.7382(6) 0.278(2) 0.2383(12)
H5 H 0.7002 0.2665 0.2347
C8 C 0.7503(8) 0.241(2) 0.1768(11)
H6 H 0.7212 0.2046 0.1303
C9 C 0.8068(8) 0.258(2) 0.1818(10)
H7 H 0.8166 0.2346 0.1394
C10 C 0.8480(6) 0.3128(18) 0.2537(9)
H8 H 0.8858 0.3279 0.2577
O3 O 0.9308(4) 0.1558(9) 0.4104(5)
O4 O 0.9112(4) 0.1850(9) 0.5152(6)
C11 C 0.9207(5) 0.1060(9) 0.4671(7)
C12 C 0.9219(5) -0.0519(10) 0.4768(6)
C13 C 0.9283(5) -0.1368(11) 0.4133(6)
H9 H 0.9642 -0.1091 0.4089
H10 H 0.8960 -0.1152 0.3625
C14 C 0.9296(4) -0.2944(12) 0.4274(6)
C15 C 0.9191(8) -0.1104(13) 0.5413(9)
H11 H 0.9213 -0.2087 0.5476
H12 H 0.9151 -0.0531 0.5804
O5 O 0.9784(3) -0.3555(8) 0.4715(4)
O6 O 0.8837(4) -0.3705(8) 0.3958(6)
O7 O 0.9683(3) 0.4257(8) 0.3623(5)
O8 O 1.0590(3) 0.5139(9) 0.4245(4)
C16 C 1.0154(4) 0.4730(12) 0.3633(6)
C17 C 1.0256(4) 0.476(2) 0.2882(5)
C18 C 1.0794(5) 0.478(3) 0.2917(13)
Ho1_2 Ho 0.923904(18) 1.39931(4) 0.44997(3)
Ho1_3 Ho 0.923904(18) -0.60069(4) 0.44997(3)
Ho1D Ho 1.076096(18) -0.39931(4) 0.55003(3)
Ho1D_2 Ho 1.076096(18) 0.60069(4) 0.55003(3)
Ho1B Ho 1.076096(18) 0.39931(4) 0.05003(3)
Ho1F Ho 0.923904(18) 0.60069(4) -0.05003(3)
N1_2 N 0.8197(5) 1.4134(11) 0.4471(8)
N2_2 N 0.8370(4) 1.3439(11) 0.3155(6)
C1_2 C 0.8112(7) 1.450(2) 0.5125(11)
H1_2 H 0.8439 1.4766 0.5579
C2_2 C 0.7579(8) 1.451(2) 0.5179(14)
H2_2 H 0.7550 1.4755 0.5655
C3_2 C 0.7078(9) 1.4135(18) 0.4483(15)
H3_2 H 0.6704 1.4151 0.4474
C4_2 C 0.7170(7) 1.3764(19) 0.3853(17)
H4_2 H 0.6849 1.3504 0.3390
C5_2 C 0.7726(6) 1.3735(14) 0.3832(12)
C6_2 C 0.7827(5) 1.3348(13) 0.3107(8)
C7_2 C 0.7382(6) 1.278(2) 0.2383(12)
H5_2 H 0.7002 1.2665 0.2347
C8_2 C 0.7503(8) 1.241(2) 0.1768(11)
H6_2 H 0.7212 1.2046 0.1303
C9_2 C 0.8068(8) 1.258(2) 0.1818(10)
H7_2 H 0.8166 1.2346 0.1394
C10_2 C 0.8480(6) 1.3128(18) 0.2537(9)
H8_2 H 0.8858 1.3279 0.2577
O3_2 O 0.9308(4) 1.1558(9) 0.4104(5)
O4_2 O 0.9112(4) 1.1850(9) 0.5152(6)
C11_2 C 0.9207(5) 1.1060(9) 0.4671(7)
C12_2 C 0.9219(5) 0.9481(10) 0.4768(6)
C13_2 C 0.9283(5) 0.8632(11) 0.4133(6)
H9_2 H 0.9642 0.8909 0.4089
H10_2 H 0.8960 0.8848 0.3625
C14_2 C 0.9296(4) 0.7056(12) 0.4274(6)
C15_2 C 0.9191(8) 0.8896(13) 0.5413(9)
H11_2 H 0.9213 0.7913 0.5476
H12_2 H 0.9151 0.9469 0.5804
O5_2 O 0.9784(3) 0.6445(8) 0.4715(4)
O5D O 1.0216(3) 0.3555(8) 0.5285(4)
O5_3 O 0.9784(3) 1.6445(8) 0.4715(4)
O5D_2 O 1.0216(3) 1.3555(8) 0.5285(4)
O6_2 O 0.8837(4) 0.6295(8) 0.3958(6)
O6_3 O 0.8837(4) 1.6295(8) 0.3958(6)
O7B O 1.0317(3) 0.4257(8) 0.1377(5)
O7_2 O 0.9683(3) 1.4257(8) 0.3623(5)
O8B O 0.9410(3) 0.5139(9) 0.0755(4)
O8D O 0.9410(3) 0.4861(9) 0.5755(4)
O8D_2 O 0.9410(3) 1.4861(9) 0.5755(4)
C16B C 0.9846(4) 0.4730(12) 0.1367(6)
C17B C 0.9744(4) 0.476(2) 0.2118(5)
C18B C 0.9206(5) 0.478(3) 0.2083(13)
O1 O 0.9281(14) 0.187(5) 0.6855(17)
loop_
_geom_bond_atom_site_label_1
_geom_bond_atom_site_label_2
_geom_bond_site_symmetry_1
_geom_bond_site_symmetry_2
Ho1 N1 1_555 1_555
N1 C1 1_555 1_555
N2 Ho1 1_555 1_555
C1 H1 1_555 1_555
C2 C1 1_555 1_555
H2 C2 1_555 1_555
C3 C2 1_555 1_555
H3 C3 1_555 1_555
C4 C3 1_555 1_555
H4 C4 1_555 1_555
C5 N1 1_555 1_555
C6 N2 1_555 1_555
C7 C6 1_555 1_555
H5 C7 1_555 1_555
C8 C7 1_555 1_555
H6 C8 1_555 1_555
C9 C8 1_555 1_555
H7 C9 1_555 1_555
C10 N2 1_555 1_555
H8 C10 1_555 1_555
O3 Ho1 1_555 1_555
O4 Ho1 1_555 1_555
C11 O3 1_555 1_555
C12 C11 1_555 1_555
C13 C12 1_555 1_555
H9 C13 1_555 1_555
H10 C13 1_555 1_555
C14 C13 1_555 1_555
C15 C12 1_555 1_555
H11 C15 1_555 1_555
H12 C15 1_555 1_555
O5 C14 1_555 1_555
O6 C14 1_555 1_555
O7 Ho1 1_555 1_555
O8 C16 1_555 1_555
C16 O7 1_555 1_555
C17 C16 1_555 1_555
C18 C17 1_555 1_555
Ho1_2 N1_2 1_555 1_555
Ho1_3 O5 1_555 1_555
Ho1D O5 1_555 1_555
Ho1D_2 O8 1_555 1_555
Ho1B O7B 1_555 1_555
Ho1F O8B 1_555 1_555
N1_2 C1_2 1_555 1_555
N2_2 Ho1_2 1_555 1_555
C1_2 H1_2 1_555 1_555
C2_2 C1_2 1_555 1_555
H2_2 C2_2 1_555 1_555
C3_2 C2_2 1_555 1_555
H3_2 C3_2 1_555 1_555
C4_2 C3_2 1_555 1_555
H4_2 C4_2 1_555 1_555
C5_2 N1_2 1_555 1_555
C6_2 N2_2 1_555 1_555
C7_2 C6_2 1_555 1_555
H5_2 C7_2 1_555 1_555
C8_2 C7_2 1_555 1_555
H6_2 C8_2 1_555 1_555
C9_2 C8_2 1_555 1_555
H7_2 C9_2 1_555 1_555
C10_2 N2_2 1_555 1_555
H8_2 C10_2 1_555 1_555
O3_2 Ho1_2 1_555 1_555
O4_2 Ho1_2 1_555 1_555
C11_2 O3_2 1_555 1_555
C12_2 C11_2 1_555 1_555
C13_2 C12_2 1_555 1_555
H9_2 C13_2 1_555 1_555
H10_2 C13_2 1_555 1_555
C14_2 C13_2 1_555 1_555
C15_2 C12_2 1_555 1_555
H11_2 C15_2 1_555 1_555
H12_2 C15_2 1_555 1_555
O5_2 Ho1 1_555 1_555
O5D Ho1 1_555 1_555
O5_3 Ho1_2 1_555 1_555
O5D_2 Ho1_2 1_555 1_555
O6_2 Ho1 1_555 1_555
O6_3 Ho1_2 1_555 1_555
O7B C16B 1_555 1_555
O7_2 Ho1_2 1_555 1_555
O8B C16B 1_555 1_555
O8D Ho1 1_555 1_555
O8D_2 Ho1_2 1_555 1_555
C16B C17B 1_555 1_555
C17B C17 1_555 1_555
C18B C17B 1_555 1_555
C4 C5 1_555 1_555
C5 C6 1_555 1_555
C9 C10 1_555 1_555
O4 C11 1_555 1_555
O6 Ho1_3 1_555 1_555
Ho1D_2 O5_2 1_555 1_555
Ho1D_2 O5D 1_555 1_555
C4_2 C5_2 1_555 1_555
C5_2 C6_2 1_555 1_555
C9_2 C10_2 1_555 1_555
O4_2 C11_2 1_555 1_555
C14_2 O5_2 1_555 1_555
C14_2 O6_2 1_555 1_555

#END
