
#######################################################################
#
#                 Cambridge Crystallographic Data Centre
#                                CCDC 
#
#######################################################################
#
# If this CIF has been generated from an entry in the Cambridge 
# Structural Database, then it will include bibliographic, chemical, 
# crystal, experimental, refinement or atomic coordinate data resulting 
# from the CCDC's data processing and validation procedures.
#
#######################################################################

data_LORTUJ
_symmetry_cell_setting           monoclinic
_symmetry_space_group_name_H-M   'P 21/c'
_symmetry_Int_Tables_number      14
_space_group_name_Hall           '-P 2ybc'
loop_
_symmetry_equiv_pos_site_id
_symmetry_equiv_pos_as_xyz
1 x,y,z
2 -x,1/2+y,1/2-z
3 -x,-y,-z
4 x,1/2-y,1/2+z
_cell_length_a                   7.8978(4)
_cell_length_b                   19.3282(11)
_cell_length_c                   16.4646(8)
_cell_angle_alpha                90
_cell_angle_beta                 92.812(4)
_cell_angle_gamma                90
_cell_volume                     2510.3
loop_
_atom_site_label
_atom_site_type_symbol
_atom_site_fract_x
_atom_site_fract_y
_atom_site_fract_z
C1 C -0.5891(9) 0.5009(4) 0.6136(4)
H1 H -0.6076 0.4620 0.5811
C2 C -0.6342(10) 0.5664(5) 0.5812(5)
H2 H -0.6760 0.5712 0.5277
C3 C -0.6144(10) 0.6224(5) 0.6310(6)
H3 H -0.6460 0.6658 0.6113
C4 C -0.5489(9) 0.6166(3) 0.7099(5)
C5 C -0.5251(11) 0.6728(4) 0.7662(6)
H4 H -0.5568 0.7172 0.7499
C6 C -0.4579(12) 0.6628(4) 0.8422(6)
H5 H -0.4429 0.7004 0.8771
C7 C -0.4092(10) 0.5951(4) 0.8700(5)
C8 C -0.3324(13) 0.5833(5) 0.9460(6)
H6 H -0.3108 0.6198 0.9818
C9 C -0.2890(13) 0.5176(5) 0.9673(5)
H7 H -0.2388 0.5085 1.0184
C10 C -0.3201(9) 0.4639(4) 0.9123(4)
H8 H -0.2911 0.4190 0.9281
C11 C -0.4307(8) 0.5387(3) 0.8174(4)
C12 C -0.5044(7) 0.5489(3) 0.7366(4)
C13 C -0.2749(8) 0.3419(3) 0.6430(4)
C14 C -0.1346(7) 0.3158(3) 0.5940(3)
C15 C -0.1710(7) 0.2767(3) 0.5260(3)
H9 H -0.2832 0.2660 0.5111
C16 C -0.0391(7) 0.2523(3) 0.4779(3)
C17 C -0.0744(7) 0.2112(3) 0.4069(3)
H10 H -0.1858 0.2003 0.3910
C18 C 0.0558(7) 0.1880(3) 0.3625(3)
H11 H 0.0321 0.1609 0.3166
C19 C 0.2248(7) 0.2042(3) 0.3850(3)
C20 C 0.2588(7) 0.2451(3) 0.4511(3)
H12 H 0.3707 0.2572 0.4646
C21 C 0.1302(7) 0.2697(3) 0.4998(3)
C22 C 0.1641(7) 0.3093(3) 0.5706(3)
H13 H 0.2755 0.3204 0.5863
C23 C 0.0362(7) 0.3315(3) 0.6163(3)
H14 H 0.0614 0.3574 0.6629
C24 C 0.3686(8) 0.1754(3) 0.3381(4)
N1 N -0.5219(6) 0.4922(3) 0.6878(3)
N2 N -0.3887(6) 0.4740(3) 0.8391(3)
O1 O 0.5155(5) 0.1841(2) 0.3619(2)
O2 O 0.3270(5) 0.1377(2) 0.2765(2)
O3 O -0.2349(5) 0.3670(2) 0.7130(2)
O4 O -0.4233(5) 0.3407(2) 0.6161(3)
Zn1 Zn -0.45277(9) 0.40132(3) 0.74901(4)
O1C O -0.4845(5) 0.3159(2) 0.8619(2)
O2C O -0.6730(5) 0.3623(2) 0.7765(2)
Zn1C Zn 0.54723(9) 0.09868(3) 0.24901(4)
C25 C 0.0700(16) 0.5975(10) 0.8402(9)
H15 H 0.1063 0.6103 0.8926
C26 C 0.0865(15) 0.5327(7) 0.8176(9)
H16 H 0.1388 0.5002 0.8521
C27 C 0.0255(13) 0.5150(5) 0.7430(8)
H17 H 0.0318 0.4690 0.7272
C28 C -0.0465(12) 0.5623(7) 0.6887(7)
C29 C -0.0551(15) 0.6254(8) 0.7139(9)
H18 H -0.1028 0.6577 0.6776
C30 C -0.0020(19) 0.6485(7) 0.7866(11)
H19 H -0.0112 0.6947 0.8016
C31 C -0.1082(14) 0.5414(6) 0.6047(7)
H20 H -0.0919 0.4925 0.5979
H21 H -0.0455 0.5660 0.5654
H22 H -0.2265 0.5522 0.5970
loop_
_geom_bond_atom_site_label_1
_geom_bond_atom_site_label_2
_geom_bond_site_symmetry_1
_geom_bond_site_symmetry_2
C1 H1 1_555 1_555
C2 C1 1_555 1_555
H2 C2 1_555 1_555
C3 C2 1_555 1_555
H3 C3 1_555 1_555
C4 C3 1_555 1_555
C5 C4 1_555 1_555
H4 C5 1_555 1_555
C6 C5 1_555 1_555
H5 C6 1_555 1_555
C7 C6 1_555 1_555
C8 C7 1_555 1_555
H6 C8 1_555 1_555
C9 C8 1_555 1_555
H7 C9 1_555 1_555
C10 C9 1_555 1_555
H8 C10 1_555 1_555
C11 C7 1_555 1_555
C12 C4 1_555 1_555
C13 C14 1_555 1_555
C14 C15 1_555 1_555
C15 H9 1_555 1_555
C16 C15 1_555 1_555
C17 C16 1_555 1_555
H10 C17 1_555 1_555
C18 C17 1_555 1_555
H11 C18 1_555 1_555
C19 C18 1_555 1_555
C20 C19 1_555 1_555
H12 C20 1_555 1_555
C21 C16 1_555 1_555
C22 C21 1_555 1_555
H13 C22 1_555 1_555
C23 C14 1_555 1_555
H14 C23 1_555 1_555
C24 C19 1_555 1_555
N1 C1 1_555 1_555
N2 C10 1_555 1_555
O1 C24 1_555 1_555
O2 C24 1_555 1_555
O3 C13 1_555 1_555
O4 C13 1_555 1_555
Zn1 N1 1_555 1_555
C25 H15 1_555 1_555
C26 C25 1_555 1_555
H16 C26 1_555 1_555
C27 C26 1_555 1_555
H17 C27 1_555 1_555
C28 C27 1_555 1_555
C29 C28 1_555 1_555
H18 C29 1_555 1_555
C30 C25 1_555 1_555
H19 C30 1_555 1_555
C31 C28 1_555 1_555
H20 C31 1_555 1_555
H21 C31 1_555 1_555
H22 C31 1_555 1_555
O1C Zn1 1_555 1_555
O2C Zn1 1_555 1_555
Zn1C O1 1_555 1_555
C11 C12 1_555 1_555
C11 N2 1_555 1_555
C12 N1 1_555 1_555
C20 C21 1_555 1_555
C22 C23 1_555 1_555
N2 Zn1 1_555 1_555
O2 Zn1C 1_555 1_555
O3 Zn1 1_555 1_555
O4 Zn1 1_555 1_555
C29 C30 1_555 1_555

#END
