
#######################################################################
#
#                 Cambridge Crystallographic Data Centre
#                                CCDC 
#
#######################################################################
#
# If this CIF has been generated from an entry in the Cambridge 
# Structural Database, then it will include bibliographic, chemical, 
# crystal, experimental, refinement or atomic coordinate data resulting 
# from the CCDC's data processing and validation procedures.
#
#######################################################################

data_LORTIW
_symmetry_cell_setting           monoclinic
_symmetry_space_group_name_H-M   'P 21/c'
_symmetry_Int_Tables_number      14
_space_group_name_Hall           '-P 2ybc'
loop_
_symmetry_equiv_pos_site_id
_symmetry_equiv_pos_as_xyz
1 x,y,z
2 -x,1/2+y,1/2-z
3 -x,-y,-z
4 x,1/2-y,1/2+z
_cell_length_a                   11.0295(2)
_cell_length_b                   13.8207(2)
_cell_length_c                   14.1529(3)
_cell_angle_alpha                90
_cell_angle_beta                 90.2383(7)
_cell_angle_gamma                90
_cell_volume                     2157.38
loop_
_atom_site_label
_atom_site_type_symbol
_atom_site_fract_x
_atom_site_fract_y
_atom_site_fract_z
Zn1 Zn 0.0000 0.5000 0.5000
C1 C -0.21505(19) 0.63951(14) 0.47345(14)
C2 C -0.2546(2) 0.72216(15) 0.41873(15)
H1 H -0.3292 0.7558 0.4253
C3 C -0.16555(19) 0.74265(15) 0.35657(15)
H2 H -0.1661 0.7930 0.3109
C4 C -0.06888(19) 0.67337(14) 0.37269(14)
C5 C 0.04325(18) 0.67082(14) 0.32510(14)
C6 C 0.13771(19) 0.60363(14) 0.33994(14)
C7 C 0.24989(19) 0.60068(15) 0.28690(15)
H3 H 0.2738 0.6439 0.2383
C8 C 0.3139(2) 0.52414(15) 0.32026(15)
H4 H 0.3907 0.5026 0.2985
C9 C 0.24303(18) 0.48127(14) 0.39555(14)
C10 C -0.27971(18) 0.59806(14) 0.54874(14)
N1 N -0.10274(15) 0.61094(12) 0.44339(12)
N2 N 0.13679(15) 0.53132(12) 0.40536(12)
C11 C 0.06132(18) 0.74640(15) 0.25129(14)
C12 C 0.07091(19) 0.72181(15) 0.15608(14)
H5 H 0.0736 0.6558 0.1376
C13 C 0.07647(19) 0.79411(15) 0.08886(15)
H6 H 0.0824 0.7760 0.0243
N3 N 0.07393(16) 0.88808(13) 0.11004(12)
C14 C 0.07074(19) 0.91193(15) 0.20145(15)
H7 H 0.0723 0.9786 0.2177
C15 C 0.0654(2) 0.84467(15) 0.27368(15)
H8 H 0.0644 0.8651 0.3378
C16 C -0.39785(19) 0.64513(14) 0.57358(15)
C17 C -0.5027(2) 0.63113(18) 0.52095(17)
H9 H -0.5020 0.5901 0.4671
C18 C -0.6086(2) 0.67765(19) 0.54764(18)
H10 H -0.6795 0.6663 0.5110
N4 N -0.61716(18) 0.73716(15) 0.62114(14)
C19 C -0.5162(2) 0.75032(19) 0.67130(18)
H11 H -0.5196 0.7924 0.7243
C20 C -0.4062(2) 0.70637(18) 0.65094(18)
H12 H -0.3372 0.7181 0.6897
Zn1C Zn 0.0000 1.0000 0.0000
Zn1C_2 Zn 0.0000 0.0000 1.0000
C1B C 0.21505(19) 0.36049(14) 0.52655(14)
C2B C 0.2546(2) 0.27784(15) 0.58127(15)
H1B H 0.3292 0.2442 0.5747
C3B C 0.16555(19) 0.25735(15) 0.64343(15)
H2B H 0.1661 0.2070 0.6891
C4B C 0.06888(19) 0.32663(14) 0.62731(14)
C5B C -0.04325(18) 0.32918(14) 0.67490(14)
C6B C -0.13771(19) 0.39637(14) 0.66006(14)
C7B C -0.24989(19) 0.39932(15) 0.71310(15)
H3B H -0.2738 0.3561 0.7617
C8B C -0.3139(2) 0.47586(15) 0.67974(15)
H4B H -0.3907 0.4974 0.7015
C9B C -0.24303(18) 0.51873(14) 0.60445(14)
C10B C 0.27971(18) 0.40194(14) 0.45126(14)
N1B N 0.10274(15) 0.38906(12) 0.55661(12)
N2B N -0.13679(15) 0.46868(12) 0.59464(12)
C11B C -0.06132(18) 0.25360(15) 0.74871(14)
C12B C -0.07091(19) 0.27819(15) 0.84392(14)
H5B H -0.0736 0.3442 0.8624
C13B C -0.07647(19) 0.20589(15) 0.91114(15)
H6B H -0.0824 0.2240 0.9757
N3B N -0.07393(16) 0.11192(13) 0.88996(12)
N3C N 0.07393(16) 0.61192(13) 0.61004(12)
N3A N -0.07393(16) 0.38808(13) 0.38996(12)
C14B C -0.07074(19) 0.08807(15) 0.79855(15)
H7B H -0.0723 0.0214 0.7823
C15B C -0.0654(2) 0.15533(15) 0.72632(15)
H8B H -0.0644 0.1349 0.6622
C16B C 0.39785(19) 0.35487(14) 0.42642(15)
C17B C 0.5027(2) 0.36887(18) 0.47905(17)
H9B H 0.5020 0.4099 0.5329
C18B C 0.6086(2) 0.32235(19) 0.45236(18)
H10B H 0.6795 0.3337 0.4890
N4B N 0.61716(18) 0.26284(15) 0.37886(14)
C19B C 0.5162(2) 0.24968(19) 0.32870(18)
H11B H 0.5196 0.2076 0.2757
C20B C 0.4062(2) 0.29363(18) 0.34906(18)
H12B H 0.3372 0.2819 0.3103
Cl1 Cl 0.65049(6) 0.52317(5) 0.26423(5)
Cl2 Cl 0.53532(13) 0.38155(10) 0.11492(8)
C21 C 0.7049(2) 0.51767(18) 0.14968(19)
C22 C 0.6557(3) 0.4547(2) 0.0851(2)
C23 C 0.7026(4) 0.4503(3) -0.0060(2)
H13 H 0.6690 0.4063 -0.0506
C24 C 0.7973(3) 0.5093(2) -0.0316(2)
H14 H 0.8291 0.5064 -0.0938
C25 C 0.8460(3) 0.5727(2) 0.0336(2)
H15 H 0.9114 0.6135 0.0159
C26 C 0.8011(2) 0.57769(19) 0.12369(18)
H16 H 0.8352 0.6216 0.1681
loop_
_geom_bond_atom_site_label_1
_geom_bond_atom_site_label_2
_geom_bond_site_symmetry_1
_geom_bond_site_symmetry_2
Zn1 N1 1_555 1_555
C1 C2 1_555 1_555
C2 H1 1_555 1_555
C3 C2 1_555 1_555
H2 C3 1_555 1_555
C4 C3 1_555 1_555
C5 C4 1_555 1_555
C6 C5 1_555 1_555
C7 C6 1_555 1_555
H3 C7 1_555 1_555
C8 C7 1_555 1_555
H4 C8 1_555 1_555
C9 C8 1_555 1_555
C10 C1 1_555 1_555
N1 C1 1_555 1_555
N2 Zn1 1_555 1_555
C11 C5 1_555 1_555
C12 C11 1_555 1_555
H5 C12 1_555 1_555
C13 C12 1_555 1_555
H6 C13 1_555 1_555
N3 C13 1_555 1_555
C14 N3 1_555 1_555
H7 C14 1_555 1_555
C15 C11 1_555 1_555
H8 C15 1_555 1_555
C16 C10 1_555 1_555
C17 C16 1_555 1_555
H9 C17 1_555 1_555
C18 C17 1_555 1_555
H10 C18 1_555 1_555
N4 C18 1_555 1_555
C19 N4 1_555 1_555
H11 C19 1_555 1_555
C20 C16 1_555 1_555
H12 C20 1_555 1_555
Cl1 C21 1_555 1_555
Cl2 C22 1_555 1_555
C21 C22 1_555 1_555
C22 C23 1_555 1_555
C23 H13 1_555 1_555
C24 C23 1_555 1_555
H14 C24 1_555 1_555
C25 C24 1_555 1_555
H15 C25 1_555 1_555
C26 C21 1_555 1_555
H16 C26 1_555 1_555
Zn1C N3 1_555 1_555
Zn1C_2 N3B 1_555 1_555
C1B C2B 1_555 1_555
C2B H1B 1_555 1_555
C3B C2B 1_555 1_555
H2B C3B 1_555 1_555
C4B C3B 1_555 1_555
C5B C4B 1_555 1_555
C6B C5B 1_555 1_555
C7B C6B 1_555 1_555
H3B C7B 1_555 1_555
C8B C7B 1_555 1_555
H4B C8B 1_555 1_555
C9B C10 1_555 1_555
C10B C9 1_555 1_555
N1B Zn1 1_555 1_555
N2B Zn1 1_555 1_555
C11B C5B 1_555 1_555
C12B C11B 1_555 1_555
H5B C12B 1_555 1_555
C13B C12B 1_555 1_555
H6B C13B 1_555 1_555
N3B C13B 1_555 1_555
N3C Zn1 1_555 1_555
N3A Zn1 1_555 1_555
C14B N3B 1_555 1_555
H7B C14B 1_555 1_555
C15B C11B 1_555 1_555
H8B C15B 1_555 1_555
C16B C10B 1_555 1_555
C17B C16B 1_555 1_555
H9B C17B 1_555 1_555
C18B C17B 1_555 1_555
H10B C18B 1_555 1_555
N4B C18B 1_555 1_555
C19B N4B 1_555 1_555
H11B C19B 1_555 1_555
C20B C16B 1_555 1_555
H12B C20B 1_555 1_555
C4 N1 1_555 1_555
C6 N2 1_555 1_555
C9 N2 1_555 1_555
C14 C15 1_555 1_555
C19 C20 1_555 1_555
C25 C26 1_555 1_555
C1B C10B 1_555 1_555
C1B N1B 1_555 1_555
C4B N1B 1_555 1_555
C6B N2B 1_555 1_555
C8B C9B 1_555 1_555
C9B N2B 1_555 1_555
C14B C15B 1_555 1_555
C19B C20B 1_555 1_555

#END
