
#######################################################################
#
#                 Cambridge Crystallographic Data Centre
#                                CCDC 
#
#######################################################################
#
# If this CIF has been generated from an entry in the Cambridge 
# Structural Database, then it will include bibliographic, chemical, 
# crystal, experimental, refinement or atomic coordinate data resulting 
# from the CCDC's data processing and validation procedures.
#
#######################################################################

data_LORTIX
_symmetry_cell_setting           orthorhombic
_symmetry_space_group_name_H-M   'P n a 21'
_symmetry_Int_Tables_number      33
_space_group_name_Hall           'P 2c -2n'
loop_
_symmetry_equiv_pos_site_id
_symmetry_equiv_pos_as_xyz
1 x,y,z
2 -x,-y,1/2+z
3 1/2-x,1/2+y,1/2+z
4 1/2+x,1/2-y,z
_cell_length_a                   15.422(3)
_cell_length_b                   22.456(5)
_cell_length_c                   7.5597(15)
_cell_angle_alpha                90
_cell_angle_beta                 90
_cell_angle_gamma                90
_cell_volume                     2618.05
loop_
_atom_site_label
_atom_site_type_symbol
_atom_site_fract_x
_atom_site_fract_y
_atom_site_fract_z
C1 C 0.1212(9) -0.0038(7) 0.522(2)
H1 H 0.0844 0.0284 0.5024
C2 C 0.0941(10) -0.0614(7) 0.472(2)
H2 H 0.0404 -0.0676 0.4191
C3 C 0.1493(12) -0.1077(6) 0.505(2)
H3 H 0.1334 -0.1459 0.4697
C4 C 0.2291(9) -0.0994(6) 0.5895(18)
C5 C 0.2530(8) -0.0412(5) 0.6295(14)
C6 C 0.2880(12) -0.1467(7) 0.630(2)
H4 H 0.2714 -0.1858 0.6069
C7 C 0.3650(11) -0.1366(6) 0.6990(19)
H5 H 0.4024 -0.1684 0.7187
C8 C 0.3914(9) -0.0789(6) 0.7431(17)
C9 C 0.3332(7) -0.0304(5) 0.7053(12)
C10 C 0.4750(11) -0.0623(9) 0.8181(19)
H6 H 0.5168 -0.0913 0.8397
C11 C 0.4918(10) -0.0049(8) 0.8562(19)
H7 H 0.5444 0.0055 0.9078
C12 C 0.4299(9) 0.0395(7) 0.8182(18)
H8 H 0.4428 0.0787 0.8473
C13 C 0.3426(9) 0.1576(6) 0.4735(17)
C14 C 0.3864(9) 0.1955(5) 0.3394(13)
C15 C 0.3649(6) 0.1856(4) 0.160(2)
H9 H 0.3219 0.1583 0.1305
C16 C 0.4085(9) 0.2170(6) 0.0237(19)
H10 H 0.3938 0.2110 -0.0942
C17 C 0.4762(7) 0.2585(4) 0.0709(15)
C18 C 0.4934(7) 0.2679(6) 0.2512(18)
C19 C 0.4479(8) 0.2369(5) 0.3818(17)
H11 H 0.4598 0.2446 0.5003
C20 C 0.5624(8) 0.3091(5) 0.3043(14)
H12 H 0.5740 0.3167 0.4229
C21 C 0.6100(6) 0.3367(4) 0.1690(17)
H13 H 0.6571 0.3607 0.1977
C22 C 0.5878(7) 0.3286(5) -0.0061(15)
C23 C 0.5232(8) 0.2903(5) -0.0551(18)
H14 H 0.5104 0.2854 -0.1745
C24 C 0.6384(8) 0.3589(6) -0.148(2)
N1 N 0.1985(6) 0.0055(5) 0.5952(16)
N2 N 0.3540(6) 0.0276(4) 0.7425(13)
O1 O 0.2823(6) 0.1198(4) 0.4334(12)
O2 O 0.3640(6) 0.1630(4) 0.6393(14)
O3 O 0.6134(5) 0.3643(4) -0.3099(12)
O4 O 0.7124(6) 0.3805(4) -0.1009(12)
Zn1 Zn 0.25417(8) 0.08683(5) 0.6682(3)
O3C O 0.1134(5) 0.1357(4) 0.6901(12)
O4C O 0.2124(6) 0.1195(4) 0.8991(12)
Zn1C Zn 0.75417(8) 0.41317(5) -0.3318(3)
C25 C 0.7452(8) 0.1129(5) 0.6190(14)
C26 C 0.8285(8) 0.1238(6) 0.540(2)
H15 H 0.8448 0.1624 0.5103
C27 C 0.8823(10) 0.0787(8) 0.508(2)
H16 H 0.9367 0.0872 0.4618
C28 C 0.8616(9) 0.0199(6) 0.542(2)
H17 H 0.9014 -0.0103 0.5199
C29 C 0.7816(10) 0.0074(7) 0.607(2)
H18 H 0.7654 -0.0320 0.6247
C30 C 0.7221(8) 0.0540(6) 0.6481(19)
H19 H 0.6678 0.0449 0.6945
C31 C 0.6004(9) 0.1457(6) 0.701(2)
H20 H 0.5694 0.1820 0.7230
H21 H 0.5993 0.1214 0.8057
H22 H 0.5735 0.1246 0.6053
C32 C 0.7122(9) 0.2198(5) 0.624(2)
H23 H 0.6648 0.2450 0.6575
H24 H 0.7243 0.2252 0.5000
H25 H 0.7626 0.2299 0.6916
N3 N 0.6897(7) 0.1594(4) 0.6554(18)
loop_
_geom_bond_atom_site_label_1
_geom_bond_atom_site_label_2
_geom_bond_site_symmetry_1
_geom_bond_site_symmetry_2
C1 H1 1_555 1_555
C2 C1 1_555 1_555
H2 C2 1_555 1_555
C3 C2 1_555 1_555
H3 C3 1_555 1_555
C4 C3 1_555 1_555
C5 C4 1_555 1_555
C6 C4 1_555 1_555
H4 C6 1_555 1_555
C7 C6 1_555 1_555
H5 C7 1_555 1_555
C8 C7 1_555 1_555
C9 C5 1_555 1_555
C10 C8 1_555 1_555
H6 C10 1_555 1_555
C11 C10 1_555 1_555
H7 C11 1_555 1_555
C12 C11 1_555 1_555
H8 C12 1_555 1_555
C13 C14 1_555 1_555
C14 C15 1_555 1_555
C15 H9 1_555 1_555
C16 C15 1_555 1_555
H10 C16 1_555 1_555
C17 C16 1_555 1_555
C18 C17 1_555 1_555
C19 C14 1_555 1_555
H11 C19 1_555 1_555
C20 C18 1_555 1_555
H12 C20 1_555 1_555
C21 C20 1_555 1_555
H13 C21 1_555 1_555
C22 C21 1_555 1_555
C23 C17 1_555 1_555
H14 C23 1_555 1_555
C24 C22 1_555 1_555
N1 C1 1_555 1_555
N2 C9 1_555 1_555
O1 C13 1_555 1_555
O2 C13 1_555 1_555
O3 C24 1_555 1_555
O4 C24 1_555 1_555
Zn1 N1 1_555 1_555
C25 C26 1_555 1_555
C26 H15 1_555 1_555
C27 C26 1_555 1_555
H16 C27 1_555 1_555
C28 C27 1_555 1_555
H17 C28 1_555 1_555
C29 C28 1_555 1_555
H18 C29 1_555 1_555
C30 C25 1_555 1_555
H19 C30 1_555 1_555
C31 H20 1_555 1_555
H21 C31 1_555 1_555
H22 C31 1_555 1_555
C32 H23 1_555 1_555
H24 C32 1_555 1_555
H25 C32 1_555 1_555
N3 C25 1_555 1_555
O3C Zn1 1_555 1_555
O4C Zn1 1_555 1_555
Zn1C O3 1_555 1_555
C5 N1 1_555 1_555
C8 C9 1_555 1_555
C12 N2 1_555 1_555
C18 C19 1_555 1_555
C22 C23 1_555 1_555
N2 Zn1 1_555 1_555
O1 Zn1 1_555 1_555
O2 Zn1 1_555 1_555
O4 Zn1C 1_555 1_555
C29 C30 1_555 1_555
C31 N3 1_555 1_555
C32 N3 1_555 1_555

#END
