
#######################################################################
#
#                 Cambridge Crystallographic Data Centre
#                                CCDC 
#
#######################################################################
#
# If this CIF has been generated from an entry in the Cambridge 
# Structural Database, then it will include bibliographic, chemical, 
# crystal, experimental, refinement or atomic coordinate data resulting 
# from the CCDC's data processing and validation procedures.
#
#######################################################################

data_LORTAP
_symmetry_cell_setting           monoclinic
_symmetry_space_group_name_H-M   'P 2/n'
_symmetry_Int_Tables_number      13
_space_group_name_Hall           '-P 2yac'
loop_
_symmetry_equiv_pos_site_id
_symmetry_equiv_pos_as_xyz
1 x,y,z
2 1/2-x,y,1/2-z
3 -x,-y,-z
4 1/2+x,-y,1/2+z
_cell_length_a                   14.7676(6)
_cell_length_b                   9.8557(4)
_cell_length_c                   16.6713(6)
_cell_angle_alpha                90
_cell_angle_beta                 95.332(2)
_cell_angle_gamma                90
_cell_volume                     2415.93
loop_
_atom_site_label
_atom_site_type_symbol
_atom_site_fract_x
_atom_site_fract_y
_atom_site_fract_z
C1 C 0.57384(18) 0.0586(3) 0.19754(19)
H1 H 0.5447 0.1420 0.1906
C2 C 0.5247(2) -0.0586(3) 0.1796(2)
H2 H 0.4638 -0.0535 0.1598
C3 C 0.5654(2) -0.1806(4) 0.1910(3)
H3 H 0.5325 -0.2596 0.1792
C4 C 0.6571(2) -0.1885(3) 0.2206(2)
C5 C 0.70290(17) -0.0650(2) 0.23593(16)
C6 C 0.7069(3) -0.3150(3) 0.2360(3)
H4 H 0.6771 -0.3972 0.2259
C7 C 0.61635(14) 0.3963(2) 0.41686(13)
C8 C 0.66836(14) 0.3406(2) 0.35131(13)
C9 C 0.64279(14) 0.3610(2) 0.49788(13)
H5 H 0.6947 0.3088 0.5101
C10 C 0.54079(14) 0.4752(2) 0.39853(13)
H6 H 0.5246 0.5002 0.3453
C11 C 0.48734(14) 0.5189(2) 0.45937(13)
C12 C 0.59310(14) 0.4025(2) 0.55836(14)
H7 H 0.6118 0.3795 0.6114
N1 N 0.66107(13) 0.05616(19) 0.22430(12)
O1 O 0.74107(11) 0.27451(16) 0.37075(9)
O2 O 0.63910(10) 0.35717(16) 0.27884(9)
Zn1 Zn 0.7500 0.22231(3) 0.2500
C1A C 0.92616(18) 0.0586(3) 0.30246(19)
H1A H 0.9553 0.1420 0.3094
C2A C 0.9753(2) -0.0586(3) 0.3204(2)
H2A H 1.0362 -0.0535 0.3402
C3A C 0.9346(2) -0.1806(4) 0.3090(3)
H3A H 0.9675 -0.2596 0.3208
C4A C 0.8429(2) -0.1885(3) 0.2794(2)
C5A C 0.79710(17) -0.0650(2) 0.26407(16)
C6A C 0.7931(3) -0.3150(3) 0.2640(3)
H4A H 0.8229 -0.3972 0.2741
N1A N 0.83893(13) 0.05616(19) 0.27570(12)
C7B C 0.38365(14) 0.6037(2) 0.58314(13)
C8B C 0.33164(14) 0.6594(2) 0.64869(13)
C9B C 0.35721(14) 0.6390(2) 0.50212(13)
H5B H 0.3053 0.6912 0.4899
C10B C 0.45921(14) 0.5248(2) 0.60147(13)
H6B H 0.4754 0.4998 0.6547
C11B C 0.51266(14) 0.4811(2) 0.54063(13)
C12B C 0.40690(14) 0.5975(2) 0.44164(14)
H7B H 0.3882 0.6205 0.3886
O1B O 0.25893(11) 0.72549(16) 0.62925(9)
O2B O 0.36090(10) 0.64283(16) 0.72116(9)
O1A O 0.75893(11) 0.27451(16) 0.12925(9)
O2A O 0.86090(10) 0.35717(16) 0.22116(9)
Zn1B Zn 0.2500 0.77769(3) 0.7500
C13 C 0.14792(14) 0.6469(2) 0.33086(13)
C14 C 0.08867(14) 0.5739(2) 0.38517(13)
C15 C 0.09409(14) 0.6056(2) 0.46614(13)
H8 H 0.1381 0.6663 0.4876
C16 C 0.03344(14) 0.5465(2) 0.51633(13)
C17 C 0.02296(14) 0.4798(2) 0.35258(13)
H9 H 0.0209 0.4563 0.2984
C18 C 0.03735(15) 0.5768(2) 0.60009(13)
H10 H 0.0816 0.6360 0.6228
C19 C 0.4072(2) 0.9414(3) 0.3428(2)
H11 H 0.4338 0.8581 0.3565
C20 C 0.29181(19) 1.0649(3) 0.27470(18)
C21 C 0.4498(3) 1.0593(4) 0.3733(3)
H12 H 0.5031 1.0540 0.4075
C22 C 0.4130(3) 1.1807(4) 0.3527(3)
H13 H 0.4410 1.2599 0.3725
C23 C 0.3323(3) 1.1876(3) 0.3013(3)
C24 C 0.2885(3) 1.3140(3) 0.2738(3)
H14 H 0.3152 1.3963 0.2901
N2 N 0.33104(15) 0.9435(2) 0.29565(14)
O3 O 0.20556(11) 0.73187(17) 0.36097(10)
O4 O 0.13827(11) 0.62549(16) 0.25653(10)
Zn2 Zn 0.2500 0.77949(3) 0.2500
C13B C -0.14792(14) 0.3531(2) 0.66914(13)
C14B C -0.08867(14) 0.4261(2) 0.61483(13)
C15B C -0.09409(14) 0.3944(2) 0.53386(13)
H8B H -0.1381 0.3337 0.5124
C16B C -0.03344(14) 0.4535(2) 0.48367(13)
C17B C -0.02296(14) 0.5202(2) 0.64742(13)
H9B H -0.0209 0.5437 0.7016
C18B C -0.03735(15) 0.4232(2) 0.39991(13)
H10B H -0.0816 0.3640 0.3772
O3B O -0.20556(11) 0.26813(17) 0.63903(10)
O4B O -0.13827(11) 0.37451(16) 0.74347(10)
C19A C 0.0928(2) 0.9414(3) 0.1572(2)
H11A H 0.0662 0.8581 0.1435
C20A C 0.20819(19) 1.0649(3) 0.22530(18)
C21A C 0.0502(3) 1.0593(4) 0.1267(3)
H12A H -0.0031 1.0540 0.0925
C22A C 0.0870(3) 1.1807(4) 0.1473(3)
H13A H 0.0590 1.2599 0.1275
C23A C 0.1677(3) 1.1876(3) 0.1987(3)
C24A C 0.2115(3) 1.3140(3) 0.2262(3)
H14A H 0.1848 1.3963 0.2099
N2A N 0.16896(15) 0.9435(2) 0.20435(14)
O3A O 0.29444(11) 0.73187(17) 0.13903(10)
O4A O 0.36173(11) 0.62549(16) 0.24347(10)
Zn2B Zn -0.2500 0.22051(3) 0.7500
C25 C 0.8218(4) 0.7649(4) 0.5269(3)
H15 H 0.8696 0.8240 0.5487
H16 H 0.8453 0.7033 0.4894
H17 H 0.7985 0.7145 0.5698
C26 C 0.7616(3) 0.9844(5) 0.4888(3)
H18 H 0.8192 1.0061 0.5174
H19 H 0.7136 1.0247 0.5158
H20 H 0.7596 1.0190 0.4348
C27 C 0.6745(4) 0.7781(5) 0.4545(3)
N3 N 0.7503(2) 0.8440(4) 0.4864(2)
O5 O 0.6119(3) 0.8573(5) 0.4160(3)
loop_
_geom_bond_atom_site_label_1
_geom_bond_atom_site_label_2
_geom_bond_site_symmetry_1
_geom_bond_site_symmetry_2
C1 H1 1_555 1_555
C2 C1 1_555 1_555
H2 C2 1_555 1_555
C3 C2 1_555 1_555
H3 C3 1_555 1_555
C4 C3 1_555 1_555
C5 C4 1_555 1_555
C6 C4 1_555 1_555
H4 C6 1_555 1_555
C7 C8 1_555 1_555
C8 O1 1_555 1_555
C9 C7 1_555 1_555
H5 C9 1_555 1_555
C10 C7 1_555 1_555
H6 C10 1_555 1_555
C11 C10 1_555 1_555
C12 C9 1_555 1_555
H7 C12 1_555 1_555
N1 C1 1_555 1_555
O1 Zn1 1_555 1_555
O2 C8 1_555 1_555
Zn1 N1 1_555 1_555
C13 C14 1_555 1_555
C14 C15 1_555 1_555
C15 H8 1_555 1_555
C16 C15 1_555 1_555
C17 C14 1_555 1_555
H9 C17 1_555 1_555
C18 C16 1_555 1_555
H10 C18 1_555 1_555
C19 H11 1_555 1_555
C20 C23 1_555 1_555
C21 C19 1_555 1_555
H12 C21 1_555 1_555
C22 C21 1_555 1_555
H13 C22 1_555 1_555
C23 C22 1_555 1_555
C24 C23 1_555 1_555
H14 C24 1_555 1_555
N2 C19 1_555 1_555
O3 C13 1_555 1_555
O4 C13 1_555 1_555
Zn2 N2 1_555 1_555
C25 H15 1_555 1_555
H16 C25 1_555 1_555
H17 C25 1_555 1_555
C26 H18 1_555 1_555
H19 C26 1_555 1_555
H20 C26 1_555 1_555
C27 N3 1_555 1_555
N3 C25 1_555 1_555
O5 C27 1_555 1_555
C1A H1A 1_555 1_555
C2A C1A 1_555 1_555
H2A C2A 1_555 1_555
C3A C2A 1_555 1_555
H3A C3A 1_555 1_555
C4A C3A 1_555 1_555
C5A C5 1_555 1_555
C6A C6 1_555 1_555
H4A C6A 1_555 1_555
N1A Zn1 1_555 1_555
C7B C8B 1_555 1_555
C8B O1B 1_555 1_555
C9B C7B 1_555 1_555
H5B C9B 1_555 1_555
C10B C7B 1_555 1_555
H6B C10B 1_555 1_555
C11B C11 1_555 1_555
C12B C11 1_555 1_555
H7B C12B 1_555 1_555
O1B Zn1B 1_555 1_555
O2B C8B 1_555 1_555
O1A Zn1 1_555 1_555
O2A Zn1 1_555 1_555
Zn1B O2B 1_555 1_555
C13B C14B 1_555 1_555
C14B C15B 1_555 1_555
C15B H8B 1_555 1_555
C16B C16 1_555 1_555
C17B C18 1_555 1_555
H9B C17B 1_555 1_555
C18B C17 1_555 1_555
H10B C18B 1_555 1_555
O3B C13B 1_555 1_555
O4B C13B 1_555 1_555
C19A H11A 1_555 1_555
C20A C20 1_555 1_555
C21A C19A 1_555 1_555
H12A C21A 1_555 1_555
C22A C21A 1_555 1_555
H13A C22A 1_555 1_555
C23A C20A 1_555 1_555
C24A C24 1_555 1_555
H14A C24A 1_555 1_555
N2A Zn2 1_555 1_555
O3A Zn2 1_555 1_555
O4A Zn2 1_555 1_555
Zn2B O3B 1_555 1_555
C5 N1 1_555 1_555
C12 C11B 1_555 1_555
O2 Zn1 1_555 1_555
C20 N2 1_555 1_555
O3 Zn2 1_555 1_555
O4 Zn2 1_555 1_555
C26 N3 1_555 1_555
C1A N1A 1_555 1_555
C4A C5A 1_555 1_555
C4A C6A 1_555 1_555
C5A N1A 1_555 1_555
C9B C12B 1_555 1_555
C10B C11B 1_555 1_555
C14B C17B 1_555 1_555
C15B C16B 1_555 1_555
C16B C18B 1_555 1_555
O4B Zn2B 1_555 1_555
C19A N2A 1_555 1_555
C20A N2A 1_555 1_555
C22A C23A 1_555 1_555
C23A C24A 1_555 1_555

#END
