
#######################################################################
#
#                 Cambridge Crystallographic Data Centre
#                                CCDC 
#
#######################################################################
#
# If this CIF has been generated from an entry in the Cambridge 
# Structural Database, then it will include bibliographic, chemical, 
# crystal, experimental, refinement or atomic coordinate data resulting 
# from the CCDC's data processing and validation procedures.
#
#######################################################################

data_LOSCON
_symmetry_cell_setting           monoclinic
_symmetry_space_group_name_H-M   'P 21'
_symmetry_Int_Tables_number      4
_space_group_name_Hall           'P 2yb'
loop_
_symmetry_equiv_pos_site_id
_symmetry_equiv_pos_as_xyz
1 x,y,z
2 -x,1/2+y,-z
_cell_length_a                   22.7600(9)
_cell_length_b                   25.2630(11)
_cell_length_c                   24.1460(11)
_cell_angle_alpha                90
_cell_angle_beta                 116.121(8)
_cell_angle_gamma                90
_cell_volume                     12465.6
loop_
_atom_site_label
_atom_site_type_symbol
_atom_site_fract_x
_atom_site_fract_y
_atom_site_fract_z
C1 C 0.3492(4) 0.0690(4) 0.8155(3)
C2 C -0.6369(4) -0.4368(4) 0.2858(3)
C3 C 1.1488(4) 0.4740(4) 1.1608(4)
C4 C 0.1388(4) -0.0238(4) 0.6982(3)
C5 C 0.2597(4) 0.0213(4) 0.6656(4)
C6 C 0.2231(4) 0.0214(5) -0.1455(4)
C7 C 0.2256(4) -0.0286(4) -0.0542(4)
H1 H 0.2402 -0.0595 -0.0670
C8 C 1.2304(5) 0.4710(4) 1.4662(4)
H2 H 1.2367 0.4393 1.4893
C9 C 1.2286(4) 0.5156(4) 1.3790(4)
C10 C 0.2502(4) 0.0626(4) 0.5096(4)
H3 H 0.2300 0.0895 0.4797
C11 C -0.5746(4) -0.4082(4) 0.3211(4)
C12 C 1.2389(4) 0.4695(4) 1.4124(3)
H4 H 1.2514 0.4378 1.3993
C13 C 1.2741(4) 0.5237(4) 2.1288(4)
C14 C 0.2428(4) 0.0607(4) 0.5649(3)
H5 H 0.2174 0.0874 0.5720
C15 C 1.2557(4) 0.5681(4) 2.0285(4)
H6 H 1.2255 0.5921 2.0324
C16 C 0.2138(4) 0.0173(4) -0.0889(4)
C17 C 0.3004(6) 0.0292(5) 0.4435(4)
C18 C 0.3049(5) -0.0181(4) 0.5968(3)
H7 H 0.3216 -0.0470 0.6246
C19 C 1.3134(4) 0.5376(4) 1.9721(4)
C20 C 1.2861(4) 0.5297(4) 2.0735(3)
C21 C 0.4136(4) 0.0982(5) 0.8508(4)
C22 C 0.2701(4) 0.0230(4) 0.6074(4)
C23 C 0.6386(4) 0.1667(4) 0.8795(5)
H8 H 0.5993 0.1499 0.8516
C24 C 0.0145(5) -0.0287(5) 0.6307(4)
H9 H 0.0092 0.0044 0.6466
C25 C 0.5272(4) 0.1563(4) 0.9133(4)
C26 C 0.1919(5) 0.0635(5) -0.0704(4)
H10 H 0.1813 0.0944 -0.0953
C27 C 0.4686(4) 0.1821(4) 0.8895(4)
H11 H 0.4675 0.2192 0.8957
C28 C 0.3143(5) -0.0146(5) 0.5418(4)
H12 H 0.3402 -0.0403 0.5342
C29 C -0.5151(4) -0.4352(4) 0.3430(4)
H13 H -0.5146 -0.4718 0.3342
C30 C 0.7474(4) 0.1933(4) 0.9050(5)
C31 C 1.2053(6) 0.5208(4) 1.5443(4)
C32 C 1.2051(4) 0.5617(5) 1.4526(4)
H14 H 1.1949 0.5942 1.4661
C33 C 1.3268(4) 0.4939(4) 2.0661(4)
H15 H 1.3469 0.4668 2.0959
C34 C 1.0269(4) 0.4722(4) 1.0968(4)
H16 H 1.0248 0.5081 1.1076
C35 C 1.2690(4) 0.5715(4) 1.9786(4)
H17 H 1.2475 0.5976 1.9480
C36 C 0.4714(4) 0.0741(4) 0.8727(4)
H18 H 0.4728 0.0369 0.8672
C37 C 1.2941(5) 0.5026(4) 1.8664(4)
C38 C 0.2868(5) 0.0246(4) 0.5013(4)
C39 C 0.7539(5) 0.2150(4) 0.9600(5)
C40 C 0.2007(5) 0.0151(5) 0.0214(4)
C41 C 0.6884(4) 0.1699(4) 0.8647(4)
H19 H 0.6838 0.1563 0.8263
C42 C 1.3233(5) 0.5426(4) 1.9161(4)
C43 C -0.5735(5) -0.3536(4) 0.3320(4)
H20 H -0.6137 -0.3347 0.3157
C44 C -0.3459(5) -0.3376(4) 0.3533(4)
H21 H -0.3856 -0.3523 0.3233
C45 C 0.2333(5) -0.0071(5) 0.1297(5)
C46 C -0.3416(4) -0.3211(4) 0.4114(4)
C47 C -0.2307(4) -0.2947(4) 0.4374(4)
C48 C 0.4100(4) 0.1548(4) 0.8560(4)
H22 H 0.3693 0.1730 0.8373
C49 C 0.0759(5) -0.0520(5) 0.6485(4)
C50 C 1.0856(5) 0.4461(5) 1.1172(4)
C51 C -0.2366(4) -0.3118(4) 0.3815(4)
C52 C -0.3957(4) -0.3259(4) 0.4279(4)
C53 C -0.2822(4) -0.2977(4) 0.4520(4)
C54 C 0.9080(4) 0.3660(4) 1.0023(4)
C55 C -0.2758(5) -0.2765(4) 0.5111(4)
H23 H -0.2355 -0.2619 0.5401
C56 C -0.5167(5) -0.3268(4) 0.3654(4)
H24 H -0.5182 -0.2898 0.3718
C57 C 0.1868(6) 0.0141(5) 0.0777(5)
C58 C -0.4575(5) -0.3523(4) 0.3899(4)
C59 C -0.2957(5) -0.3327(4) 0.3411(4)
H25 H -0.3003 -0.3443 0.3019
C60 C 0.2872(5) -0.0060(5) 0.3447(4)
C61 C 0.7027(5) 0.2136(4) 0.9746(4)
C62 C 0.2161(4) -0.0300(5) -0.0002(4)
H26 H 0.2206 -0.0625 0.0211
C63 C -0.1663(4) -0.2682(4) 0.4828(4)
C64 C 1.3500(5) 0.4535(4) 1.7124(5)
C65 C 1.2116(4) 0.5609(5) 1.3968(4)
H27 H 1.2041 0.5921 1.3726
C66 C 1.3389(4) 0.4975(4) 2.0136(4)
H28 H 1.3652 0.4714 2.0071
C67 C 1.2564(6) 0.4989(5) 1.6000(5)
C68 C -0.0322(5) -0.1058(4) 0.5592(4)
C69 C 1.2129(5) 0.5172(5) 1.4879(4)
C70 C 1.3613(5) 0.5795(4) 1.9125(4)
H29 H 1.3817 0.6034 1.9459
C71 C 0.2079(6) -0.0890(6) 0.3514(6)
H30 H 0.1826 -0.1175 0.3550
C72 C 1.2375(4) 0.5133(5) 1.3196(4)
C73 C 0.7038(5) 0.2382(4) 1.0312(4)
H31 H 0.7424 0.2560 1.0587
C74 C 0.5889(4) 0.1853(4) 0.9530(4)
C75 C 0.1858(5) 0.0631(6) -0.0150(5)
H32 H 0.1720 0.0940 -0.0016
C76 C 0.2722(5) -0.0113(5) 0.3955(5)
C77 C 0.3310(6) 0.0690(6) 0.4358(5)
H33 H 0.3434 0.0962 0.4660
C78 C -0.0908(5) -0.1311(4) 0.5147(5)
C79 C -0.1012(4) -0.1868(4) 0.5213(4)
C80 C 0.9696(5) 0.4436(4) 1.0590(4)
H34 H 0.9286 0.4610 1.0447
C81 C 0.2997(6) -0.0203(6) 0.1384(5)
H35 H 0.3108 -0.0140 0.1054
C82 C 0.1303(5) 0.0323(5) 0.0754(5)
H36 H 0.0985 0.0489 0.0393
C83 C -0.1362(4) -0.1056(4) 0.4652(4)
H37 H -0.1303 -0.0693 0.4588
C84 C -0.1560(4) -0.2142(4) 0.4778(4)
C85 C 0.3475(6) -0.0418(5) 0.1933(6)
H38 H 0.3892 -0.0516 0.1966
C86 C 0.9141(5) 0.2501(5) 1.0962(5)
H39 H 0.9427 0.2351 1.1349
C87 C 1.2442(7) 0.4977(5) 1.6551(5)
C88 C 1.3070(5) 0.5078(4) 1.8156(4)
C89 C -0.0403(5) -0.0584(4) 0.5866(5)
H40 H -0.0833 -0.0458 0.5755
C90 C 1.2756(6) 0.4699(5) 1.7640(5)
C91 C -0.3285(5) -0.2782(4) 0.5236(4)
H41 H -0.3256 -0.2621 0.5603
C92 C -0.2038(4) -0.1839(4) 0.4262(4)
H42 H -0.2419 -0.2003 0.3957
C93 C 0.6422(5) 0.1872(4) 0.9349(4)
C94 C 0.9706(5) 0.3935(4) 1.0425(4)
C95 C 0.8167(4) 0.2421(4) 1.0008(4)
C96 C 0.6543(5) 0.2364(4) 1.0450(4)
H43 H 0.6583 0.2533 1.0816
C97 C 1.0892(4) 0.3948(4) 1.0995(4)
H44 H 1.1304 0.3781 1.1112
C98 C 0.0856(5) -0.1005(5) 0.6213(5)
H45 H 0.1279 -0.1153 0.6340
C99 C 1.2906(6) 0.4713(5) 1.7111(4)
C100 C -0.3908(5) -0.3048(4) 0.4811(5)
H46 H -0.4265 -0.3068 0.4914
C101 C 1.3184(5) 0.4787(4) 1.6067(4)
H47 H 1.3276 0.4804 1.5720
C102 C 1.2268(6) 0.4273(6) 1.8206(6)
H48 H 1.2026 0.3983 1.8249
C103 C 0.9295(5) 0.2946(4) 1.0817(5)
H49 H 0.9664 0.3131 1.1111
C104 C 0.2693(6) -0.0382(5) 0.2377(5)
C105 C 0.8341(4) 0.2903(4) 0.9838(4)
C106 C 0.8921(4) 0.3175(4) 1.0216(4)
C107 C 0.7926(4) 0.3128(4) 0.9242(4)
H50 H 0.7539 0.2950 0.8968
C108 C -0.0664(5) -0.2701(5) 0.5790(5)
H51 H -0.0363 -0.2888 0.6143
C109 C 1.3658(6) 0.4569(5) 1.6611(5)
H52 H 1.4066 0.4449 1.6641
C110 C -0.0571(5) -0.2184(5) 0.5714(5)
H53 H -0.0188 -0.2018 0.6013
C111 C 0.2225(7) -0.0112(5) 0.1835(5)
C112 C 0.5291(4) 0.1013(4) 0.9028(4)
H54 H 0.5698 0.0834 0.9165
C113 C -0.1922(5) -0.1325(4) 0.4231(4)
H55 H -0.2240 -0.1126 0.3901
C114 C 1.3497(5) 0.5482(5) 1.8147(5)
H56 H 1.3618 0.5493 1.7817
C115 C 0.0320(4) -0.1235(5) 0.5775(5)
H57 H 0.0382 -0.1540 0.5575
C116 C -0.1240(5) -0.2974(6) 0.5316(5)
C117 C 1.1530(6) 0.5397(5) 1.5469(5)
H58 H 1.1197 0.5535 1.5098
C118 C 0.3485(7) 0.0765(8) 0.3858(6)
H59 H 0.3732 0.1060 0.3835
C119 C 0.5938(5) 0.2098(4) 1.0063(4)
H60 H 0.5584 0.2091 1.0170
C120 C -0.4553(5) -0.4084(5) 0.3784(5)
H61 H -0.4148 -0.4268 0.3941
C121 C 0.3325(8) -0.0484(6) 0.2421(6)
C122 C 0.2344(6) -0.0509(5) 0.3980(5)
H62 H 0.2251 -0.0532 0.4327
C123 C 0.3261(7) 0.0370(7) 0.3412(6)
H63 H 0.3371 0.0386 0.3076
C124 C 1.2364(6) 0.4312(6) 1.7682(6)
C125 C 0.1632(6) 0.0056(5) 0.1778(5)
H64 H 0.1537 0.0021 0.2122
C126 C 1.2531(5) 0.4664(6) 1.8692(5)
H65 H 1.2412 0.4663 1.9023
C127 C 0.1201(6) 0.0258(5) 0.1284(6)
H66 H 0.0797 0.0370 0.1272
C128 C 1.0345(5) 0.3694(5) 1.0660(4)
H67 H 1.0373 0.3332 1.0568
C129 C 1.1422(7) 0.5415(6) 1.5965(7)
H68 H 1.1052 0.5599 1.5953
C130 C 0.2582(6) -0.0435(5) 0.2946(4)
C131 C 0.8098(5) 0.3591(5) 0.9083(5)
H69 H 0.7814 0.3748 0.8700
C132 C 0.2197(7) -0.0842(6) 0.2991(7)
C133 C 0.8557(5) 0.2208(4) 1.0573(5)
C134 C 1.1901(8) 0.5136(7) 1.6562(7)
H70 H 1.1810 0.5084 1.6907
C135 C 1.3733(6) 0.5849(5) 1.8587(5)
H71 H 1.3975 0.6141 1.8548
C136 C 0.8693(5) 0.3857(5) 0.9469(5)
H72 H 0.8812 0.4174 0.9331
O1 O 0.2899(3) -0.0166(3) 0.7050(3)
O2 O 0.2229(2) 0.0573(2) 0.6693(2)
O3 O 0.3524(2) 0.0203(3) 0.8224(2)
O4 O 0.2981(3) 0.0969(2) 0.7856(2)
O5 O 0.2495(3) -0.0202(3) -0.1562(2)
O6 O 0.2061(3) 0.0623(3) -0.1775(2)
O7 O 0.1894(3) -0.0529(3) 0.7202(2)
O8 O 0.1322(3) 0.0231(3) 0.7060(2)
O9 O 0.1650(3) 0.1436(3) 0.7233(3)
O10 O -0.1342(4) -0.3484(4) 0.5373(3)
O11 O -0.1837(3) -0.3050(3) 0.3685(3)
O12 O 0.8419(4) 0.1729(4) 1.0723(4)
O13 O 0.8002(4) 0.1940(3) 0.8921(3)
O14 O 1.1991(3) 0.4452(3) 1.1844(2)
O15 O 1.1437(3) 0.5223(3) 1.1695(2)
O16 O 0.3811(5) -0.0729(5) 0.2931(5)
O17 O -0.6347(3) -0.4860(3) 0.2890(2)
O18 O -0.6857(3) -0.4082(3) 0.2557(2)
O19 O 1.2616(3) 0.4731(3) 1.3076(3)
O20 O 1.2195(3) 0.5566(3) 1.2891(3)
O21 O 1.3005(2) 0.4856(3) 2.1661(2)
O22 O 1.2361(3) 0.5591(3) 2.1358(2)
O23 O 1.3303(3) 0.3947(3) 1.2596(3)
O24 O 1.1839(4) 0.6424(3) 1.1947(3)
O25 O 1.2149(5) 0.3958(4) 1.7227(4)
O26 O 1.3966(4) 0.4338(3) 1.7690(3)
O27 O 0.3252(3) -0.0980(3) 0.8094(3)
O28 O 0.1932(6) -0.1176(5) 0.2505(4)
Cu1 Cu 0.27485(5) -0.02405(5) 0.77578(5)
Cu2 Cu 0.21138(5) 0.06542(5) 0.74416(5)
Cu3 Cu 1.22452(5) 0.56329(5) 1.21037(4)
Cu4 Cu 1.28576(5) 0.47241(5) 1.23933(5)
O5_2 O 0.2495(3) -0.0202(3) 0.8438(2)
O6_2 O 0.2061(3) 0.0623(3) 0.8225(2)
O17_2 O 1.3653(3) 0.5140(3) 1.2890(2)
O18_2 O 1.3143(3) 0.5918(3) 1.2557(2)
O21_2 O 1.3005(2) 0.4856(3) 1.1661(2)
O22_2 O 1.2361(3) 0.5591(3) 1.1358(2)
Cu1_2 Cu 0.27485(5) -0.02405(5) -0.22422(5)
Cu2_2 Cu 0.21138(5) 0.06542(5) -0.25584(5)
Cu3_2 Cu -0.77548(5) -0.43671(5) 0.21037(4)
Cu3_3 Cu 1.22452(5) 0.56329(5) 2.21037(4)
Cu4_2 Cu -0.71424(5) -0.52759(5) 0.23933(5)
Cu4_3 Cu 1.28576(5) 0.47241(5) 2.23933(5)
loop_
_geom_bond_atom_site_label_1
_geom_bond_atom_site_label_2
_geom_bond_site_symmetry_1
_geom_bond_site_symmetry_2
C1 C21 1_555 1_555
C2 C11 1_555 1_555
C3 C50 1_555 1_555
C4 C49 1_555 1_555
C5 C22 1_555 1_555
C6 C16 1_555 1_555
C7 H1 1_555 1_555
C8 H2 1_555 1_555
C9 C12 1_555 1_555
C10 H3 1_555 1_555
C11 C29 1_555 1_555
C12 C8 1_555 1_555
H4 C12 1_555 1_555
C13 C20 1_555 1_555
C14 C10 1_555 1_555
H5 C14 1_555 1_555
C15 H6 1_555 1_555
C16 C7 1_555 1_555
C17 C38 1_555 1_555
C18 H7 1_555 1_555
C19 C35 1_555 1_555
C20 C15 1_555 1_555
C21 C36 1_555 1_555
C22 C14 1_555 1_555
C23 H8 1_555 1_555
C24 H9 1_555 1_555
C25 C27 1_555 1_555
C26 C16 1_555 1_555
H10 C26 1_555 1_555
C27 H11 1_555 1_555
C28 C18 1_555 1_555
H12 C28 1_555 1_555
C29 H13 1_555 1_555
C30 C39 1_555 1_555
C31 C67 1_555 1_555
C32 H14 1_555 1_555
C33 C20 1_555 1_555
H15 C33 1_555 1_555
C34 H16 1_555 1_555
C35 C15 1_555 1_555
H17 C35 1_555 1_555
C36 H18 1_555 1_555
C37 C42 1_555 1_555
C38 C10 1_555 1_555
C39 C61 1_555 1_555
C40 C57 1_555 1_555
C41 C23 1_555 1_555
H19 C41 1_555 1_555
C42 C19 1_555 1_555
C43 C11 1_555 1_555
H20 C43 1_555 1_555
C44 H21 1_555 1_555
C45 C57 1_555 1_555
C46 C44 1_555 1_555
C47 C51 1_555 1_555
C48 C21 1_555 1_555
H22 C48 1_555 1_555
C49 C24 1_555 1_555
C50 C34 1_555 1_555
C51 C59 1_555 1_555
C52 C46 1_555 1_555
C53 C46 1_555 1_555
C54 C94 1_555 1_555
C55 C53 1_555 1_555
H23 C55 1_555 1_555
C56 C43 1_555 1_555
H24 C56 1_555 1_555
C57 C82 1_555 1_555
C58 C52 1_555 1_555
C59 C44 1_555 1_555
H25 C59 1_555 1_555
C60 C76 1_555 1_555
C61 C73 1_555 1_555
C62 C7 1_555 1_555
H26 C62 1_555 1_555
C63 C47 1_555 1_555
C64 C99 1_555 1_555
C65 C9 1_555 1_555
H27 C65 1_555 1_555
C66 C19 1_555 1_555
H28 C66 1_555 1_555
C67 C87 1_555 1_555
C68 C78 1_555 1_555
C69 C8 1_555 1_555
C70 C42 1_555 1_555
H29 C70 1_555 1_555
C71 H30 1_555 1_555
C72 C9 1_555 1_555
C73 H31 1_555 1_555
C74 C25 1_555 1_555
C75 C26 1_555 1_555
H32 C75 1_555 1_555
C76 C17 1_555 1_555
C77 C17 1_555 1_555
H33 C77 1_555 1_555
C78 C79 1_555 1_555
C79 C84 1_555 1_555
C80 C34 1_555 1_555
H34 C80 1_555 1_555
C81 C45 1_555 1_555
H35 C81 1_555 1_555
C82 H36 1_555 1_555
C83 C78 1_555 1_555
H37 C83 1_555 1_555
C84 C63 1_555 1_555
C85 C81 1_555 1_555
H38 C85 1_555 1_555
C86 H39 1_555 1_555
C87 C99 1_555 1_555
C88 C37 1_555 1_555
C89 C24 1_555 1_555
H40 C89 1_555 1_555
C90 C88 1_555 1_555
C91 C55 1_555 1_555
H41 C91 1_555 1_555
C92 C84 1_555 1_555
H42 C92 1_555 1_555
C93 C23 1_555 1_555
C94 C80 1_555 1_555
C95 C39 1_555 1_555
C96 C73 1_555 1_555
H43 C96 1_555 1_555
C97 C50 1_555 1_555
H44 C97 1_555 1_555
C98 C49 1_555 1_555
H45 C98 1_555 1_555
C99 C90 1_555 1_555
C100 C52 1_555 1_555
H46 C100 1_555 1_555
C101 C67 1_555 1_555
H47 C101 1_555 1_555
C102 H48 1_555 1_555
C103 C86 1_555 1_555
H49 C103 1_555 1_555
C104 C111 1_555 1_555
C105 C95 1_555 1_555
C106 C54 1_555 1_555
C107 C105 1_555 1_555
H50 C107 1_555 1_555
C108 H51 1_555 1_555
C109 C64 1_555 1_555
H52 C109 1_555 1_555
C110 C79 1_555 1_555
H53 C110 1_555 1_555
C111 C45 1_555 1_555
C112 C25 1_555 1_555
H54 C112 1_555 1_555
C113 C83 1_555 1_555
H55 C113 1_555 1_555
C114 C88 1_555 1_555
H56 C114 1_555 1_555
C115 C68 1_555 1_555
H57 C115 1_555 1_555
C116 C63 1_555 1_555
C117 C31 1_555 1_555
H58 C117 1_555 1_555
C118 C77 1_555 1_555
H59 C118 1_555 1_555
C119 C74 1_555 1_555
H60 C119 1_555 1_555
C120 C29 1_555 1_555
H61 C120 1_555 1_555
C121 C85 1_555 1_555
C122 C71 1_555 1_555
H62 C122 1_555 1_555
C123 C60 1_555 1_555
H63 C123 1_555 1_555
C124 C90 1_555 1_555
C125 C111 1_555 1_555
H64 C125 1_555 1_555
C126 C37 1_555 1_555
H65 C126 1_555 1_555
C127 C82 1_555 1_555
H66 C127 1_555 1_555
C128 C94 1_555 1_555
H67 C128 1_555 1_555
C129 C117 1_555 1_555
H68 C129 1_555 1_555
C130 C60 1_555 1_555
C131 C107 1_555 1_555
H69 C131 1_555 1_555
C132 C71 1_555 1_555
C133 C86 1_555 1_555
C134 C87 1_555 1_555
H70 C134 1_555 1_555
C135 C70 1_555 1_555
H71 C135 1_555 1_555
C136 C54 1_555 1_555
H72 C136 1_555 1_555
O1 C5 1_555 1_555
O2 C5 1_555 1_555
O3 C1 1_555 1_555
O4 C1 1_555 1_555
O5 C6 1_555 1_555
O6 C6 1_555 1_555
O7 C4 1_555 1_555
O8 C4 1_555 1_555
O9 Cu2 1_555 1_555
O10 C116 1_555 1_555
O11 C51 1_555 1_555
O12 C133 1_555 1_555
O13 C30 1_555 1_555
O14 C3 1_555 1_555
O15 C3 1_555 1_555
O16 C121 1_555 1_555
O17 C2 1_555 1_555
O18 C2 1_555 1_555
O19 C72 1_555 1_555
O20 C72 1_555 1_555
O21 C13 1_555 1_555
O22 C13 1_555 1_555
O23 Cu4 1_555 1_555
O24 Cu3 1_555 1_555
O25 C124 1_555 1_555
O26 C64 1_555 1_555
O27 Cu1 1_555 1_555
O28 C132 1_555 1_555
Cu1 O1 1_555 1_555
Cu2 O2 1_555 1_555
Cu3 O15 1_555 1_555
Cu4 O14 1_555 1_555
O5_2 Cu1 1_555 1_555
O6_2 Cu2 1_555 1_555
O17_2 Cu4 1_555 1_555
O18_2 Cu3 1_555 1_555
O21_2 Cu4 1_555 1_555
O22_2 Cu3 1_555 1_555
Cu1_2 O5 1_555 1_555
Cu2_2 O6 1_555 1_555
Cu3_2 O18 1_555 1_555
Cu3_3 O22 1_555 1_555
Cu4_2 O17 1_555 1_555
Cu4_3 O21 1_555 1_555
C18 C22 1_555 1_555
C27 C48 1_555 1_555
C28 C38 1_555 1_555
C30 C41 1_555 1_555
C31 C69 1_555 1_555
C32 C65 1_555 1_555
C32 C69 1_555 1_555
C33 C66 1_555 1_555
C36 C112 1_555 1_555
C40 C62 1_555 1_555
C40 C75 1_555 1_555
C47 C53 1_555 1_555
C56 C58 1_555 1_555
C58 C120 1_555 1_555
C61 C93 1_555 1_555
C68 C89 1_555 1_555
C74 C93 1_555 1_555
C76 C122 1_555 1_555
C91 C100 1_555 1_555
C92 C113 1_555 1_555
C95 C133 1_555 1_555
C96 C119 1_555 1_555
C97 C128 1_555 1_555
C98 C115 1_555 1_555
C101 C109 1_555 1_555
C102 C124 1_555 1_555
C102 C126 1_555 1_555
C103 C106 1_555 1_555
C104 C121 1_555 1_555
C104 C130 1_555 1_555
C105 C106 1_555 1_555
C108 C110 1_555 1_555
C108 C116 1_555 1_555
C114 C135 1_555 1_555
C118 C123 1_555 1_555
C125 C127 1_555 1_555
C129 C134 1_555 1_555
C130 C132 1_555 1_555
C131 C136 1_555 1_555
O3 Cu1 1_555 1_555
O4 Cu2 1_555 1_555
O7 Cu1 1_555 1_555
O8 Cu2 1_555 1_555
O19 Cu4 1_555 1_555
O20 Cu3 1_555 1_555
Cu1 Cu2 1_555 1_555
Cu3 Cu4 1_555 1_555
Cu1_2 Cu2_2 1_555 1_555
Cu3_2 Cu4_2 1_555 1_555
Cu3_3 Cu4_3 1_555 1_555

#END
