
#######################################################################
#
#                 Cambridge Crystallographic Data Centre
#                                CCDC 
#
#######################################################################
#
# If this CIF has been generated from an entry in the Cambridge 
# Structural Database, then it will include bibliographic, chemical, 
# crystal, experimental, refinement or atomic coordinate data resulting 
# from the CCDC's data processing and validation procedures.
#
#######################################################################

data_LOSCUT
_symmetry_cell_setting           tetragonal
_symmetry_space_group_name_H-M   'P 43 21 2'
_symmetry_Int_Tables_number      96
_space_group_name_Hall           'P 4nw 2abw'
loop_
_symmetry_equiv_pos_site_id
_symmetry_equiv_pos_as_xyz
1 x,y,z
2 1/2-y,1/2+x,3/4+z
3 1/2+y,1/2-x,1/4+z
4 1/2+x,1/2-y,1/4-z
5 1/2-x,1/2+y,3/4-z
6 -x,-y,1/2+z
7 y,x,-z
8 -y,-x,1/2-z
_cell_length_a                   24.3004(5)
_cell_length_b                   24.3004(5)
_cell_length_c                   17.1699(5)
_cell_angle_alpha                90
_cell_angle_beta                 90
_cell_angle_gamma                90
_cell_volume                     10139
loop_
_atom_site_label
_atom_site_type_symbol
_atom_site_fract_x
_atom_site_fract_y
_atom_site_fract_z
C1 C 0.75426(17) 0.5902(2) 0.0066(3)
C2 C 0.78394(18) 0.5812(3) -0.0611(3)
H1 H 0.7658 0.5745 -0.1078
C3 C 0.69274(16) 0.58984(16) 0.0044(2)
C4 C 1.1030(4) 0.4895(8) -0.2181(11)
H2 H 1.0731 0.4774 -0.2503
H3 H 1.1361 0.4911 -0.2486
H4 H 1.1079 0.4642 -0.1758
O1 O 1.50867(13) 0.58502(17) 0.0627(2)
O2 O 0.66800(12) 0.59730(13) 0.06736(17)
O3 O 0.67054(12) 0.58197(14) -0.06166(18)
O4 O 0.58580(17) 0.59186(16) 0.2009(2)
O5 O 1.0904(2) 0.5453(4) -0.1866(5)
C5 C 0.9310(2) 0.5854(3) 0.0152(3)
C6 C 0.9514(2) 0.5484(3) 0.0670(4)
H5 H 0.9276 0.5305 0.1010
C7 C 1.0080(2) 0.5370(3) 0.0698(5)
H6 H 1.0217 0.5129 0.1071
C8 C 1.0426(2) 0.5609(3) 0.0187(4)
H7 H 1.0795 0.5510 0.0180
C9 C 1.0230(2) 0.6002(3) -0.0327(3)
C10 C 1.0600(2) 0.6256(3) -0.0879(4)
C11 C 1.0400(3) 0.6641(4) -0.1378(4)
C12 C 0.9843(3) 0.6803(4) -0.1344(4)
H8 H 0.9724 0.7098 -0.1645
C13 C 0.94792(19) 0.6539(3) -0.0885(3)
H9 H 0.9106 0.6621 -0.0922
C14 C 0.96645(19) 0.6135(2) -0.0339(3)
C15 C 0.86932(19) 0.5905(2) 0.0117(3)
C16 C 0.8394(2) 0.5987(2) 0.0790(3)
H10 H 0.8574 0.6043 0.1261
C17 C 0.78219(18) 0.5985(2) 0.0765(3)
H11 H 0.7623 0.6040 0.1221
C18 C 0.8419(2) 0.5821(3) -0.0584(3)
H12 H 0.8620 0.5771 -0.1040
C19 C 1.0551(6) 0.7285(12) -0.2404(11)
H13 H 1.0845 0.7434 -0.2712
H14 H 1.0288 0.7108 -0.2738
H15 H 1.0373 0.7577 -0.2123
C20 C 1.2158(2) 0.6139(2) -0.0489(3)
C21 C 1.2543(2) 0.6380(3) -0.0014(4)
C22 C 1.2381(3) 0.6798(5) 0.0485(6)
H16 H 1.2645 0.6970 0.0793
C23 C 1.1822(3) 0.6976(5) 0.0542(6)
H17 H 1.1712 0.7232 0.0914
C24 C 1.1459(2) 0.6756(3) 0.0033(4)
H18 H 1.1107 0.6906 0.0007
C25 C 1.1583(2) 0.6328(3) -0.0443(3)
C26 C 1.1182(2) 0.6092(3) -0.0915(4)
C27 C 1.1307(2) 0.5663(4) -0.1398(6)
C28 C 1.2255(2) 0.5714(3) -0.0978(4)
H19 H 1.2611 0.5575 -0.0997
C29 C 1.1871(3) 0.5475(4) -0.1446(7)
H20 H 1.1969 0.5195 -0.1789
C30 C 1.3138(2) 0.6224(3) -0.0019(4)
C31 C 1.3425(2) 0.6241(3) -0.0732(4)
H21 H 1.3243 0.6330 -0.1193
C32 C 1.3991(2) 0.6122(3) -0.0732(3)
H22 H 1.4185 0.6113 -0.1199
C33 C 1.42557(19) 0.6020(3) -0.0049(4)
C34 C 1.3959(3) 0.5992(4) 0.0661(4)
H23 H 1.4136 0.5898 0.1123
C35 C 1.3413(2) 0.6104(4) 0.0656(4)
H24 H 1.3219 0.6100 0.1123
C36 C 1.48640(18) 0.5934(2) -0.0027(3)
O6 O 1.51045(12) 0.59511(17) -0.0686(2)
O7 O 1.0774(2) 0.6882(4) -0.1849(3)
Cu1 Cu 0.58821(2) 0.59079(2) 0.07624(3)
O1_2 O 0.50867(13) 0.58502(17) 0.0627(2)
O3F O 0.58197(14) 0.67054(12) 0.06166(18)
O6F O 0.59511(17) 0.51045(12) 0.0686(2)
Cu1_2 Cu 1.58821(2) 0.59079(2) 0.07624(3)
Cu1F Cu 0.59079(2) 0.58821(2) -0.07624(3)
Cu1F_2 Cu 1.59079(2) 0.58821(2) -0.07624(3)
loop_
_geom_bond_atom_site_label_1
_geom_bond_atom_site_label_2
_geom_bond_site_symmetry_1
_geom_bond_site_symmetry_2
C1 C2 1_555 1_555
C2 H1 1_555 1_555
C3 C1 1_555 1_555
C4 H2 1_555 1_555
H3 C4 1_555 1_555
H4 C4 1_555 1_555
O1 C36 1_555 1_555
O2 C3 1_555 1_555
O3 C3 1_555 1_555
O4 Cu1 1_555 1_555
O5 C4 1_555 1_555
C5 C6 1_555 1_555
C6 H5 1_555 1_555
C7 C6 1_555 1_555
H6 C7 1_555 1_555
C8 C7 1_555 1_555
H7 C8 1_555 1_555
C9 C8 1_555 1_555
C10 C9 1_555 1_555
C11 C10 1_555 1_555
C12 C11 1_555 1_555
H8 C12 1_555 1_555
C13 C12 1_555 1_555
H9 C13 1_555 1_555
C14 C5 1_555 1_555
C15 C5 1_555 1_555
C16 C15 1_555 1_555
H10 C16 1_555 1_555
C17 C1 1_555 1_555
H11 C17 1_555 1_555
C18 C2 1_555 1_555
H12 C18 1_555 1_555
C19 H13 1_555 1_555
H14 C19 1_555 1_555
H15 C19 1_555 1_555
C20 C21 1_555 1_555
C21 C22 1_555 1_555
C22 H16 1_555 1_555
C23 C22 1_555 1_555
H17 C23 1_555 1_555
C24 C23 1_555 1_555
H18 C24 1_555 1_555
C25 C20 1_555 1_555
C26 C10 1_555 1_555
C27 O5 1_555 1_555
C28 C20 1_555 1_555
H19 C28 1_555 1_555
C29 C27 1_555 1_555
H20 C29 1_555 1_555
C30 C21 1_555 1_555
C31 C30 1_555 1_555
H21 C31 1_555 1_555
C32 C31 1_555 1_555
H22 C32 1_555 1_555
C33 C32 1_555 1_555
C34 C33 1_555 1_555
H23 C34 1_555 1_555
C35 C30 1_555 1_555
H24 C35 1_555 1_555
C36 C33 1_555 1_555
O6 C36 1_555 1_555
O7 C11 1_555 1_555
Cu1 O2 1_555 1_555
O1_2 Cu1 1_555 1_555
O3F Cu1 1_555 1_555
O6F Cu1 1_555 1_555
Cu1_2 O1 1_555 1_555
Cu1F O3 1_555 1_555
Cu1F_2 O6 1_555 1_555
C9 C14 1_555 1_555
C13 C14 1_555 1_555
C15 C18 1_555 1_555
C16 C17 1_555 1_555
C19 O7 1_555 1_555
C24 C25 1_555 1_555
C25 C26 1_555 1_555
C26 C27 1_555 1_555
C28 C29 1_555 1_555
C34 C35 1_555 1_555
Cu1 Cu1F 1_555 1_555
Cu1_2 Cu1F_2 1_555 1_555

#END
