
#######################################################################
#
#                 Cambridge Crystallographic Data Centre
#                                CCDC 
#
#######################################################################
#
# If this CIF has been generated from an entry in the Cambridge 
# Structural Database, then it will include bibliographic, chemical, 
# crystal, experimental, refinement or atomic coordinate data resulting 
# from the CCDC's data processing and validation procedures.
#
#######################################################################

data_LOSFOQ
_symmetry_cell_setting           orthorhombic
_symmetry_space_group_name_H-M   'P n a 21'
_symmetry_Int_Tables_number      33
_space_group_name_Hall           'P 2c -2n'
loop_
_symmetry_equiv_pos_site_id
_symmetry_equiv_pos_as_xyz
1 x,y,z
2 -x,-y,1/2+z
3 1/2+x,1/2-y,z
4 1/2-x,1/2+y,1/2+z
_cell_length_a                   12.9012(13)
_cell_length_b                   14.0247(14)
_cell_length_c                   7.0282(7)
_cell_angle_alpha                90
_cell_angle_beta                 90
_cell_angle_gamma                90
_cell_volume                     1271.65
loop_
_atom_site_label
_atom_site_type_symbol
_atom_site_fract_x
_atom_site_fract_y
_atom_site_fract_z
C1 C 0.6444(4) 0.9157(4) 0.7961(9)
H1 H 0.7111 0.8935 0.8203
C2 C 0.5345(4) 1.0400(3) 0.7322(10)
H2 H 0.5239 1.1047 0.7109
C3 C 0.4486(4) 0.9789(3) 0.7322(10)
H3 H 0.3822 1.0032 0.7145
C4 C 0.5638(4) 0.8516(4) 0.7971(8)
H4 H 0.5763 0.7876 0.8234
C5 C 0.4633(3) 0.8827(3) 0.7587(10)
C6 C 0.3761(3) 0.8101(3) 0.7564(9)
H5 H 0.3844 0.7695 0.6458
H6 H 0.3820 0.7702 0.8686
C7 C 0.2708(3) 0.8530(3) 0.7521(10)
Cd1 Cd 0.23318(2) 0.88372(2) 1.24899(6)
Cd2 Cd 0.00878(2) 1.01072(2) 1.49730(9)
H7 H 0.137(5) 1.037(4) 1.209(9)
N1 N 0.6309(3) 1.0092(2) 0.7614(8)
N2 N 0.2184(3) 0.8760(3) 0.5959(8)
N3 N 0.2141(4) 0.8728(3) 0.9100(8)
N4 N 0.1267(3) 0.9100(3) 0.6572(6)
N5 N 0.1247(3) 0.9079(3) 0.8424(6)
O1 O 0.3537(2) 0.7680(2) 1.2578(6)
O2 O 0.3778(4) 0.6259(3) 1.0771(6)
O3 O 0.4394(3) 0.6370(2) 1.4006(5)
O4 O 0.25533(19) 0.62729(17) 1.3391(5)
O5 O 0.11081(19) 0.76326(17) 1.2515(5)
H8 H 0.0603 0.7671 1.3288
H9 H 0.1556 0.7279 1.3112
O6 O 0.1058(2) 0.9965(2) 1.2352(7)
S1 S 0.35425(8) 0.66329(7) 1.26955(19)
Cd1_2 Cd 0.23318(2) 0.88372(2) 0.24899(6)
Cd1A Cd 0.76682(2) 1.11628(2) 0.74899(6)
Cd2_2 Cd 0.00878(2) 1.01072(2) 0.49730(9)
Cd2A Cd -0.00878(2) 0.98928(2) 0.99730(9)
Cd2B Cd 0.50878(2) 0.48928(2) 1.49730(9)
Cd2C Cd 0.49122(2) 0.51072(2) 0.99730(9)
N1A N 0.3691(3) 0.9908(2) 1.2614(8)
N2_2 N 0.2184(3) 0.8760(3) 1.5959(8)
N4_2 N 0.1267(3) 0.9100(3) 1.6572(6)
N5A N -0.1247(3) 1.0921(3) 1.3424(6)
O2C O 0.1222(4) 1.1259(3) 1.5771(6)
O3B O -0.0606(3) 0.8630(2) 1.4006(5)
O6A O -0.1058(2) 1.0035(2) 1.7352(7)
loop_
_geom_bond_atom_site_label_1
_geom_bond_atom_site_label_2
_geom_bond_site_symmetry_1
_geom_bond_site_symmetry_2
C1 H1 1_555 1_555
C2 H2 1_555 1_555
C3 C2 1_555 1_555
H3 C3 1_555 1_555
C4 C1 1_555 1_555
H4 C4 1_555 1_555
C5 C3 1_555 1_555
C6 C5 1_555 1_555
H5 C6 1_555 1_555
H6 C6 1_555 1_555
C7 C6 1_555 1_555
Cd1 N3 1_555 1_555
Cd2 O6 1_555 1_555
H7 O6 1_555 1_555
N1 C1 1_555 1_555
N2 C7 1_555 1_555
N3 C7 1_555 1_555
N4 N2 1_555 1_555
N5 N3 1_555 1_555
O1 Cd1 1_555 1_555
O2 S1 1_555 1_555
O3 S1 1_555 1_555
O4 S1 1_555 1_555
O5 Cd1 1_555 1_555
H8 O5 1_555 1_555
H9 O5 1_555 1_555
O6 Cd1 1_555 1_555
S1 O1 1_555 1_555
Cd1_2 N2 1_555 1_555
Cd1A N1 1_555 1_555
Cd2_2 N4 1_555 1_555
Cd2A N5 1_555 1_555
Cd2B O3 1_555 1_555
Cd2C O2 1_555 1_555
N1A Cd1 1_555 1_555
N2_2 Cd1 1_555 1_555
N4_2 Cd2 1_555 1_555
N5A Cd2 1_555 1_555
O2C Cd2 1_555 1_555
O3B Cd2 1_555 1_555
O6A Cd2 1_555 1_555
C2 N1 1_555 1_555
C4 C5 1_555 1_555
N4 N5 1_555 1_555
O6 Cd2A 1_555 1_555
N2_2 N4_2 1_555 1_555

#END
