
#######################################################################
#
#                 Cambridge Crystallographic Data Centre
#                                CCDC 
#
#######################################################################
#
# If this CIF has been generated from an entry in the Cambridge 
# Structural Database, then it will include bibliographic, chemical, 
# crystal, experimental, refinement or atomic coordinate data resulting 
# from the CCDC's data processing and validation procedures.
#
#######################################################################

data_LOSGOR02
_symmetry_cell_setting           monoclinic
_symmetry_space_group_name_H-M   'P 21'
_symmetry_Int_Tables_number      4
_space_group_name_Hall           'P 2yb'
loop_
_symmetry_equiv_pos_site_id
_symmetry_equiv_pos_as_xyz
1 x,y,z
2 -x,1/2+y,-z
_cell_length_a                   8.3796(11)
_cell_length_b                   5.7173(7)
_cell_length_c                   9.3378(11)
_cell_angle_alpha                90
_cell_angle_beta                 115.194(3)
_cell_angle_gamma                90
_cell_volume                     404.805
loop_
_atom_site_label
_atom_site_type_symbol
_atom_site_fract_x
_atom_site_fract_y
_atom_site_fract_z
Cu1 Cu 0.09265(4) 0.49016(16) 0.12380(3)
N1 N 0.3704(3) 0.4838(10) 0.1914(2)
C1 C 0.4867(4) 0.6119(5) 0.3085(3)
H1 H 0.4437 0.7116 0.3626
C2 C 0.4345(5) 0.3404(6) 0.1157(4)
H2 H 0.3561 0.2449 0.0363
C3 C 0.7266(4) 0.4636(11) 0.2701(3)
H3 H 0.8463 0.4587 0.2942
C4 C 0.6663(4) 0.6068(5) 0.3550(3)
C5 C 0.6093(5) 0.3274(7) 0.1495(4)
H4 H 0.6486 0.2286 0.0921
C6 C 0.8625(6) 0.5939(8) 0.6413(5)
C7 C 0.7917(4) 0.7428(5) 0.4958(3)
H5 H 0.8886 0.8003 0.4749
H6 H 0.7309 0.8768 0.5130
N2 N 0.9316(5) 0.6793(5) 0.7889(4)
N3 N 0.8665(5) 0.3624(6) 0.6421(4)
N4 N 0.9784(2) 0.4896(9) 0.88341(18)
N5 N 0.9392(5) 0.3015(6) 0.7952(4)
Cu1_2 Cu 1.09265(4) 0.49016(16) 1.12380(3)
Cu1A Cu 0.90735(4) -0.00984(16) 0.87620(3)
Cu1A_2 Cu 0.90735(4) 0.99016(16) 0.87620(3)
N2A N 0.0684(5) 0.1793(5) 0.2111(4)
N4_2 N -0.0216(2) 0.4896(9) -0.11659(18)
N5A N 0.0608(5) 0.8015(6) 0.2048(4)
loop_
_geom_bond_atom_site_label_1
_geom_bond_atom_site_label_2
_geom_bond_site_symmetry_1
_geom_bond_site_symmetry_2
Cu1 N1 1_555 1_555
N1 C1 1_555 1_555
C1 H1 1_555 1_555
C2 N1 1_555 1_555
H2 C2 1_555 1_555
C3 H3 1_555 1_555
C4 C1 1_555 1_555
C5 C2 1_555 1_555
H4 C5 1_555 1_555
C6 C7 1_555 1_555
C7 C4 1_555 1_555
H5 C7 1_555 1_555
H6 C7 1_555 1_555
N2 C6 1_555 1_555
N3 C6 1_555 1_555
N4 N2 1_555 1_555
N5 N3 1_555 1_555
Cu1_2 N4 1_555 1_555
Cu1A N5 1_555 1_555
Cu1A_2 N2 1_555 1_555
N2A Cu1 1_555 1_555
N4_2 Cu1 1_555 1_555
N5A Cu1 1_555 1_555
C3 C4 1_555 1_555
C3 C5 1_555 1_555
N4 N5 1_555 1_555

#END
