
#######################################################################
#
#                 Cambridge Crystallographic Data Centre
#                                CCDC 
#
#######################################################################
#
# If this CIF has been generated from an entry in the Cambridge 
# Structural Database, then it will include bibliographic, chemical, 
# crystal, experimental, refinement or atomic coordinate data resulting 
# from the CCDC's data processing and validation procedures.
#
#######################################################################

data_LOSGIL
_symmetry_cell_setting           monoclinic
_symmetry_space_group_name_H-M   'C c'
_symmetry_Int_Tables_number      9
_space_group_name_Hall           'C -2yc'
loop_
_symmetry_equiv_pos_site_id
_symmetry_equiv_pos_as_xyz
1 x,y,z
2 x,-y,1/2+z
3 1/2+x,1/2+y,z
4 1/2+x,1/2-y,1/2+z
_cell_length_a                   7.1396(2)
_cell_length_b                   15.8266(3)
_cell_length_c                   8.6026(2)
_cell_angle_alpha                90
_cell_angle_beta                 100.4640(10)
_cell_angle_gamma                90
_cell_volume                     955.89
loop_
_atom_site_label
_atom_site_type_symbol
_atom_site_fract_x
_atom_site_fract_y
_atom_site_fract_z
C1 C 0.9752(4) 0.73648(14) 0.5677(2)
Cl1 Cl 1.43003(11) 0.40462(5) 0.21140(9)
N1 N 0.8542(3) 0.80046(11) 0.5459(2)
Zn1 Zn 1.22008(3) 0.357228(12) 0.34704(3)
C2 C 1.0267(4) 0.68284(15) 0.4392(3)
H1 H 1.1629 0.6866 0.4421
H2 H 0.9629 0.7045 0.3378
N2 N 0.8462(3) 0.83181(14) 0.6919(2)
C3 C 0.9723(3) 0.59049(14) 0.4531(2)
N3 N 0.9583(3) 0.78807(13) 0.7967(2)
C4 C 1.0864(3) 0.52810(13) 0.4069(2)
H3 H 1.1940 0.5443 0.3676
N4 N 1.0420(3) 0.72708(12) 0.7214(2)
C5 C 0.8928(4) 0.42232(17) 0.4741(3)
H4 H 0.8662 0.3651 0.4821
N5 N 1.0494(3) 0.44550(12) 0.4162(2)
C6 C 0.7726(4) 0.48045(18) 0.5214(4)
H5 H 0.6658 0.4629 0.5604
C7 C 0.8120(4) 0.56566(17) 0.5103(3)
H6 H 0.7311 0.6059 0.5411
N1B N 1.3542(3) 0.30046(11) 0.5459(2)
Zn1A Zn 1.22008(3) 0.642772(12) 0.84704(3)
Zn1B Zn 0.72008(3) 0.857228(12) 0.34704(3)
N4A N 1.0420(3) 0.27292(12) 0.2214(2)
loop_
_geom_bond_atom_site_label_1
_geom_bond_atom_site_label_2
_geom_bond_site_symmetry_1
_geom_bond_site_symmetry_2
C1 N1 1_555 1_555
Cl1 Zn1 1_555 1_555
N1 N2 1_555 1_555
Zn1 N5 1_555 1_555
C2 C1 1_555 1_555
H1 C2 1_555 1_555
H2 C2 1_555 1_555
N2 N3 1_555 1_555
C3 C2 1_555 1_555
N3 N4 1_555 1_555
C4 C3 1_555 1_555
H3 C4 1_555 1_555
N4 C1 1_555 1_555
C5 H4 1_555 1_555
N5 C4 1_555 1_555
C6 C5 1_555 1_555
H5 C6 1_555 1_555
C7 C3 1_555 1_555
H6 C7 1_555 1_555
N1B Zn1 1_555 1_555
Zn1A N4 1_555 1_555
Zn1B N1 1_555 1_555
N4A Zn1 1_555 1_555
C5 N5 1_555 1_555
C6 C7 1_555 1_555

#END
