
#######################################################################
#
#                 Cambridge Crystallographic Data Centre
#                                CCDC 
#
#######################################################################
#
# If this CIF has been generated from an entry in the Cambridge 
# Structural Database, then it will include bibliographic, chemical, 
# crystal, experimental, refinement or atomic coordinate data resulting 
# from the CCDC's data processing and validation procedures.
#
#######################################################################

data_LOSGAD
_symmetry_cell_setting           monoclinic
_symmetry_space_group_name_H-M   'P 21/n'
_symmetry_Int_Tables_number      14
_space_group_name_Hall           '-P 2yn'
loop_
_symmetry_equiv_pos_site_id
_symmetry_equiv_pos_as_xyz
1 x,y,z
2 1/2-x,1/2+y,1/2-z
3 -x,-y,-z
4 1/2+x,1/2-y,1/2+z
_cell_length_a                   8.8772(7)
_cell_length_b                   9.1848(7)
_cell_length_c                   12.0335(10)
_cell_angle_alpha                90
_cell_angle_beta                 94.2840(10)
_cell_angle_gamma                90
_cell_volume                     978.414
loop_
_atom_site_label
_atom_site_type_symbol
_atom_site_fract_x
_atom_site_fract_y
_atom_site_fract_z
Zn1 Zn 0.16451(7) 0.26622(8) 0.58952(6)
C1 C 0.2059(6) 0.5347(6) 0.7386(5)
C2 C 0.0407(6) 0.5660(7) 0.7462(5)
H1 H 0.0301 0.6666 0.7686
H2 H -0.0100 0.5557 0.6723
C3 C 0.0283(7) 0.3632(7) 0.8913(5)
H3 H 0.1304 0.3425 0.8880
C4 C -0.0391(6) 0.4715(6) 0.8251(5)
N1 N 0.2588(5) 0.4332(5) 0.6742(4)
N2 N 0.4122(6) 0.4407(6) 0.6892(4)
C5 C -0.0577(7) 0.2854(7) 0.9629(5)
H4 H -0.0117 0.2114 1.0060
C6 C -0.1920(7) 0.4967(8) 0.8339(6)
H5 H -0.2427 0.5670 0.7898
C7 C -0.2676(7) 0.4163(8) 0.9089(6)
H6 H -0.3694 0.4360 0.9152
N3 N -0.2035(5) 0.3130(6) 0.9720(4)
N4 N 0.3198(5) 0.6047(5) 0.7931(4)
N5 N 0.4481(6) 0.5428(6) 0.7604(5)
Cl1 Cl -0.0740(3) 0.2883(3) 0.5241(2)
Zn1A Zn 0.33549(7) 0.76622(8) 0.91048(6)
Zn1C Zn -0.33549(7) 0.23378(8) 1.08952(6)
N3C N 0.2965(5) 0.1870(6) 0.4720(4)
N4A N 0.1802(5) 0.1047(5) 0.7069(4)
loop_
_geom_bond_atom_site_label_1
_geom_bond_atom_site_label_2
_geom_bond_site_symmetry_1
_geom_bond_site_symmetry_2
Zn1 N1 1_555 1_555
C1 C2 1_555 1_555
C2 H1 1_555 1_555
H2 C2 1_555 1_555
C3 H3 1_555 1_555
C4 C2 1_555 1_555
N1 C1 1_555 1_555
N2 N1 1_555 1_555
C5 C3 1_555 1_555
H4 C5 1_555 1_555
C6 C4 1_555 1_555
H5 C6 1_555 1_555
C7 C6 1_555 1_555
H6 C7 1_555 1_555
N3 C5 1_555 1_555
N4 C1 1_555 1_555
N5 N2 1_555 1_555
Cl1 Zn1 1_555 1_555
Zn1A N4 1_555 1_555
Zn1C N3 1_555 1_555
N3C Zn1 1_555 1_555
N4A Zn1 1_555 1_555
C3 C4 1_555 1_555
C7 N3 1_555 1_555
N4 N5 1_555 1_555

#END
