
#######################################################################
#
#                 Cambridge Crystallographic Data Centre
#                                CCDC 
#
#######################################################################
#
# If this CIF has been generated from an entry in the Cambridge 
# Structural Database, then it will include bibliographic, chemical, 
# crystal, experimental, refinement or atomic coordinate data resulting 
# from the CCDC's data processing and validation procedures.
#
#######################################################################

data_LOSGOR
_symmetry_cell_setting           monoclinic
_symmetry_space_group_name_H-M   'P 21'
_symmetry_Int_Tables_number      4
_space_group_name_Hall           'P 2yb'
loop_
_symmetry_equiv_pos_site_id
_symmetry_equiv_pos_as_xyz
1 x,y,z
2 -x,1/2+y,-z
_cell_length_a                   8.394(3)
_cell_length_b                   5.7287(18)
_cell_length_c                   9.350(3)
_cell_angle_alpha                90
_cell_angle_beta                 115.074(4)
_cell_angle_gamma                90
_cell_volume                     407.24
loop_
_atom_site_label
_atom_site_type_symbol
_atom_site_fract_x
_atom_site_fract_y
_atom_site_fract_z
Cu1 Cu -0.40711(7) 0.1448(3) 0.62377(6)
N1 N -0.1302(4) 0.1355(17) 0.6910(4)
C1 C -0.0127(7) 0.2677(9) 0.8095(6)
H1 H -0.0556 0.3678 0.8633
C2 C 0.2259(6) 0.1194(19) 0.7708(6)
H2 H 0.3454 0.1142 0.7953
C3 C 0.1081(8) -0.0188(13) 0.6481(7)
H3 H 0.1473 -0.1152 0.5896
C4 C -0.0657(8) -0.0080(11) 0.6168(7)
H4 H -0.1434 -0.1062 0.5395
C5 C 0.1660(6) 0.2619(9) 0.8546(6)
C6 C 0.2906(7) 0.3965(9) 0.9949(6)
H5 H 0.2298 0.5298 1.0123
H6 H 0.3870 0.4545 0.9736
C7 C 0.3632(9) 0.2472(13) 1.1420(9)
N2 N 0.3668(9) 0.0158(12) 1.1400(8)
N3 N 0.4304(7) 0.3348(9) 1.2890(7)
N4 N 0.4409(8) -0.0427(11) 1.2945(8)
N5 N 0.4800(4) 0.1435(16) 1.3831(3)
Cu1_2 Cu 0.59289(7) 0.1448(3) 1.62377(6)
Cu1A Cu 0.40711(7) -0.3552(3) 1.37623(6)
Cu1A_2 Cu 0.40711(7) 0.6448(3) 1.37623(6)
N3A N -0.4304(7) -0.1652(9) 0.7110(7)
N4A N -0.4409(8) 0.4573(11) 0.7055(8)
N5_2 N -0.5200(4) 0.1435(16) 0.3831(3)
loop_
_geom_bond_atom_site_label_1
_geom_bond_atom_site_label_2
_geom_bond_site_symmetry_1
_geom_bond_site_symmetry_2
Cu1 N1 1_555 1_555
N1 C1 1_555 1_555
C1 H1 1_555 1_555
C2 H2 1_555 1_555
C3 C2 1_555 1_555
H3 C3 1_555 1_555
C4 N1 1_555 1_555
H4 C4 1_555 1_555
C5 C1 1_555 1_555
C6 C5 1_555 1_555
H5 C6 1_555 1_555
H6 C6 1_555 1_555
C7 C6 1_555 1_555
N2 C7 1_555 1_555
N3 C7 1_555 1_555
N4 N2 1_555 1_555
N5 N3 1_555 1_555
Cu1_2 N5 1_555 1_555
Cu1A N4 1_555 1_555
Cu1A_2 N3 1_555 1_555
N3A Cu1 1_555 1_555
N4A Cu1 1_555 1_555
N5_2 Cu1 1_555 1_555
C2 C5 1_555 1_555
C3 C4 1_555 1_555
N4 N5 1_555 1_555

#END
