
#######################################################################
#
#                 Cambridge Crystallographic Data Centre
#                                CCDC 
#
#######################################################################
#
# If this CIF has been generated from an entry in the Cambridge 
# Structural Database, then it will include bibliographic, chemical, 
# crystal, experimental, refinement or atomic coordinate data resulting 
# from the CCDC's data processing and validation procedures.
#
#######################################################################

data_LOSQUH
_symmetry_cell_setting           monoclinic
_symmetry_space_group_name_H-M   'C 2/c'
_symmetry_Int_Tables_number      15
_space_group_name_Hall           '-C 2yn'
loop_
_symmetry_equiv_pos_site_id
_symmetry_equiv_pos_as_xyz
1 x,y,z
2 -x,y,1/2-z
3 1/2+x,1/2+y,z
4 1/2-x,1/2+y,1/2-z
5 -x,-y,-z
6 x,-y,1/2+z
7 1/2-x,1/2-y,-z
8 1/2+x,1/2-y,1/2+z
_cell_length_a                   25.893(5)
_cell_length_b                   16.974(5)
_cell_length_c                   13.924(5)
_cell_angle_alpha                90
_cell_angle_beta                 110.486(5)
_cell_angle_gamma                90
_cell_volume                     5732.68
loop_
_atom_site_label
_atom_site_type_symbol
_atom_site_fract_x
_atom_site_fract_y
_atom_site_fract_z
Ni1 Ni -0.333897(12) 0.256849(18) -0.39869(2)
O1 O -0.38148(11) -0.04441(14) -0.78882(19)
O2 O -0.38520(8) 0.20355(13) -0.33278(15)
N1 N -0.33169(8) 0.14997(13) -0.47775(16)
C1 C -0.29836(12) 0.09049(17) -0.4319(2)
H1 H -0.2759 0.0959 -0.3636
O3 O -0.39856(12) 0.56091(15) -0.0943(2)
O4 O -0.40079(9) 0.29371(13) -0.51905(15)
N2 N -0.40442(11) 0.06921(14) -0.73104(18)
H2 H -0.4264 0.1088 -0.7487
C2 C -0.29609(14) 0.02140(19) -0.4824(3)
H3 H -0.2719 -0.0183 -0.4483
O5 O -0.00462(8) 0.25856(13) -0.07402(14)
O6 O -0.28668(8) 0.31416(12) -0.47173(17)
N3 N -0.33623(9) 0.36531(13) -0.32123(16)
C3 C -0.32962(14) 0.01090(18) -0.5835(2)
H4 H -0.3283 -0.0352 -0.6186
O7 O 0.00709(7) 0.25806(14) 0.09107(14)
N4 N -0.41452(10) 0.44252(14) -0.17030(19)
H5 H -0.4345 0.4008 -0.1789
C4 C -0.36532(12) 0.07153(16) -0.6308(2)
C5 C -0.36403(11) 0.14003(15) -0.57573(19)
H6 H -0.3869 0.1814 -0.6087
O8 O -0.26634(7) 0.22914(12) -0.27388(14)
C6 C -0.41171(14) 0.01286(18) -0.8028(2)
O9 O -0.19589(8) 0.24069(16) -0.33098(15)
C7 C -0.46027(14) 0.02674(18) -0.9009(2)
H7 H -0.4724 0.0814 -0.9008
C8 C -0.44359(16) 0.0153(3) -0.9937(3)
C9 C -0.50807(16) -0.0269(3) -0.9061(3)
C10 C -0.30586(12) 0.42808(18) -0.3271(2)
H8 H -0.2827 0.4239 -0.3650
C11 C -0.30774(13) 0.49830(19) -0.2789(2)
H9 H -0.2858 0.5402 -0.2843
C12 C -0.34196(13) 0.50719(18) -0.2226(2)
H10 H -0.3433 0.5543 -0.1894
C13 C -0.37434(11) 0.44295(16) -0.2175(2)
C14 C -0.36951(11) 0.37368(16) -0.2672(2)
H11 H -0.3908 0.3307 -0.2626
C15 C -0.42514(13) 0.50020(18) -0.1133(2)
C16 C -0.47126(13) 0.48255(18) -0.0720(2)
H12 H -0.4917 0.4362 -0.1077
C17 C -0.44569(14) 0.4640(2) 0.0414(3)
C18 C -0.51081(15) 0.5515(2) -0.0897(3)
C19 C -0.21589(11) 0.23823(16) -0.2613(2)
C20 C -0.17712(11) 0.24897(17) -0.1520(2)
C21 C -0.19801(12) 0.2632(2) -0.0741(2)
H13 H -0.2360 0.2648 -0.0896
C22 C -0.16304(12) 0.2750(3) 0.0262(2)
H14 H -0.1774 0.2829 0.0781
C23 C -0.10619(12) 0.2749(2) 0.0484(2)
H15 H -0.0825 0.2845 0.1150
C24 C -0.08475(10) 0.26047(17) -0.0278(2)
C25 C -0.12016(10) 0.24849(16) -0.1279(2)
H16 H -0.1057 0.2400 -0.1794
C26 C -0.02294(10) 0.25888(16) -0.0022(2)
H17 H -0.2921(14) 0.304(2) -0.533(3)
H18 H -0.4898(14) 0.600(2) -0.059(3)
H19 H -0.2546(17) 0.295(2) -0.443(3)
H20 H -0.4241(15) 0.514(2) 0.070(3)
H21 H -0.4952(15) -0.079(2) -0.905(3)
H22 H -0.4212(16) 0.421(2) 0.052(3)
H23 H -0.5187(17) -0.019(2) -0.847(3)
H24 H -0.4335(15) -0.037(2) -0.990(3)
H25 H -0.4125(19) 0.051(3) -0.986(3)
H26 H -0.5266(16) 0.561(2) -0.162(3)
H27 H -0.4166(16) 0.213(2) -0.359(3)
H28 H -0.3825(14) 0.155(2) -0.320(3)
H29 H -0.4293(16) 0.277(2) -0.533(3)
H30 H -0.4006(15) 0.340(2) -0.538(3)
O1D O -0.61852(11) 0.04441(14) -1.21118(19)
N1D N -0.66831(8) -0.14997(13) -1.52225(16)
C1D C -0.70164(12) -0.09049(17) -1.5681(2)
H1D H -0.7241 -0.0959 -1.6364
N2D N -0.59558(11) -0.06921(14) -1.26896(18)
H2D H -0.5736 -0.1088 -1.2513
C2D C -0.70391(14) -0.02140(19) -1.5176(3)
H3D H -0.7281 0.0183 -1.5517
C3D C -0.67038(14) -0.01090(18) -1.4165(2)
H4D H -0.6717 0.0352 -1.3814
C4D C -0.63468(12) -0.07153(16) -1.3692(2)
C5D C -0.63597(11) -0.14003(15) -1.42427(19)
H6D H -0.6131 -0.1814 -1.3913
C6D C -0.58829(14) -0.01286(18) -1.1972(2)
C7D C -0.53973(14) -0.02674(18) -1.0991(2)
H7D H -0.5276 -0.0814 -1.0992
C8D C -0.55641(16) -0.0153(3) -1.0063(3)
C9D C -0.49193(16) 0.0269(3) -1.0939(3)
H21D H -0.5048(15) 0.079(2) -1.095(3)
H23D H -0.4813(17) 0.019(2) -1.153(3)
H24D H -0.5665(15) 0.037(2) -1.010(3)
H25D H -0.5875(19) -0.051(3) -1.014(3)
O3D O -0.60144(12) 0.43909(15) 0.0943(2)
N3D N -0.66377(9) 0.63469(13) 0.32123(16)
N4D N -0.58548(10) 0.55748(14) 0.17030(19)
H5D H -0.5655 0.5992 0.1789
C10D C -0.69414(12) 0.57192(18) 0.3271(2)
H8D H -0.7173 0.5761 0.3650
C11D C -0.69226(13) 0.50170(19) 0.2789(2)
H9D H -0.7142 0.4598 0.2843
C12D C -0.65804(13) 0.49281(18) 0.2226(2)
H10D H -0.6567 0.4457 0.1894
C13D C -0.62566(11) 0.55705(16) 0.2175(2)
C14D C -0.63049(11) 0.62632(16) 0.2672(2)
H11D H -0.6092 0.6693 0.2626
C15D C -0.57486(13) 0.49980(18) 0.1133(2)
C16D C -0.52874(13) 0.51745(18) 0.0720(2)
H12D H -0.5083 0.5638 0.1077
C17D C -0.55431(14) 0.5360(2) -0.0414(3)
C18D C -0.48919(15) 0.4485(2) 0.0897(3)
H18D H -0.5102(14) 0.400(2) 0.059(3)
H20D H -0.5759(15) 0.486(2) -0.070(3)
H22D H -0.5788(16) 0.579(2) -0.052(3)
H26D H -0.4734(16) 0.439(2) 0.162(3)
Ni1D Ni -0.666103(12) -0.256849(18) -1.60131(2)
O2D O -0.61480(8) -0.20355(13) -1.66722(15)
O4D O -0.59921(9) -0.29371(13) -1.48095(15)
O5D O -0.99538(8) -0.25856(13) -1.92598(14)
O6D O -0.71332(8) -0.31416(12) -1.52827(17)
O7D O -1.00709(7) -0.25806(14) -2.09107(14)
O8D O -0.73366(7) -0.22914(12) -1.72612(14)
O9D O -0.80411(8) -0.24069(16) -1.66902(15)
C19D C -0.78411(11) -0.23823(16) -1.7387(2)
C20D C -0.82288(11) -0.24897(17) -1.8480(2)
C21D C -0.80199(12) -0.2632(2) -1.9259(2)
H13D H -0.7640 -0.2648 -1.9104
C22D C -0.83696(12) -0.2750(3) -2.0262(2)
H14D H -0.8226 -0.2829 -2.0781
C23D C -0.89381(12) -0.2749(2) -2.0484(2)
H15D H -0.9175 -0.2845 -2.1150
C24D C -0.91525(10) -0.26047(17) -1.9722(2)
C25D C -0.87984(10) -0.24849(16) -1.8721(2)
H16D H -0.8943 -0.2400 -1.8206
C26D C -0.97706(10) -0.25888(16) -1.9978(2)
H17D H -0.7079(14) -0.304(2) -1.467(3)
H19D H -0.7454(17) -0.295(2) -1.557(3)
H27D H -0.5834(16) -0.213(2) -1.641(3)
H28D H -0.6175(14) -0.155(2) -1.680(3)
H29D H -0.5707(16) -0.277(2) -1.467(3)
H30D H -0.5994(15) -0.340(2) -1.462(3)
Ni1D_2 Ni -0.666103(12) 0.743151(18) 0.39869(2)
N3D_2 N -0.66377(9) -0.36531(13) -1.67877(16)
O10 O 0.0000 0.32461(18) -0.2500
O11 O 0.0000 0.17570(16) -0.7500
loop_
_geom_bond_atom_site_label_1
_geom_bond_atom_site_label_2
_geom_bond_site_symmetry_1
_geom_bond_site_symmetry_2
Ni1 O2 1_555 1_555
O1 C6 1_555 1_555
O2 H27 1_555 1_555
N1 Ni1 1_555 1_555
C1 N1 1_555 1_555
H1 C1 1_555 1_555
O3 C15 1_555 1_555
O4 Ni1 1_555 1_555
N2 H2 1_555 1_555
C2 C1 1_555 1_555
H3 C2 1_555 1_555
O5 C26 1_555 1_555
O6 Ni1 1_555 1_555
N3 Ni1 1_555 1_555
C3 C2 1_555 1_555
H4 C3 1_555 1_555
O7 C26 1_555 1_555
N4 H5 1_555 1_555
C4 N2 1_555 1_555
C5 N1 1_555 1_555
H6 C5 1_555 1_555
O8 Ni1 1_555 1_555
C6 N2 1_555 1_555
O9 C19 1_555 1_555
C7 C6 1_555 1_555
H7 C7 1_555 1_555
C8 C7 1_555 1_555
C9 C7 1_555 1_555
C10 N3 1_555 1_555
H8 C10 1_555 1_555
C11 C10 1_555 1_555
H9 C11 1_555 1_555
C12 C11 1_555 1_555
H10 C12 1_555 1_555
C13 N4 1_555 1_555
C14 N3 1_555 1_555
H11 C14 1_555 1_555
C15 N4 1_555 1_555
C16 C15 1_555 1_555
H12 C16 1_555 1_555
C17 C16 1_555 1_555
C18 C16 1_555 1_555
C19 O8 1_555 1_555
C20 C19 1_555 1_555
C21 C20 1_555 1_555
H13 C21 1_555 1_555
C22 C21 1_555 1_555
H14 C22 1_555 1_555
C23 C22 1_555 1_555
H15 C23 1_555 1_555
C24 C23 1_555 1_555
C25 C20 1_555 1_555
H16 C25 1_555 1_555
C26 C24 1_555 1_555
H17 O6 1_555 1_555
H18 C18 1_555 1_555
H19 O6 1_555 1_555
H20 C17 1_555 1_555
H21 C9 1_555 1_555
H22 C17 1_555 1_555
H23 C9 1_555 1_555
H24 C8 1_555 1_555
H25 C8 1_555 1_555
H26 C18 1_555 1_555
H28 O2 1_555 1_555
H29 O4 1_555 1_555
H30 O4 1_555 1_555
O1D C6D 1_555 1_555
N1D C1D 1_555 1_555
C1D H1D 1_555 1_555
N2D H2D 1_555 1_555
C2D C1D 1_555 1_555
H3D C2D 1_555 1_555
C3D C2D 1_555 1_555
H4D C3D 1_555 1_555
C4D N2D 1_555 1_555
C5D N1D 1_555 1_555
H6D C5D 1_555 1_555
C6D N2D 1_555 1_555
C7D C6D 1_555 1_555
H7D C7D 1_555 1_555
C8D C9 1_555 1_555
C9D C8 1_555 1_555
H21D C9D 1_555 1_555
H23D C9D 1_555 1_555
H24D C8D 1_555 1_555
H25D C8D 1_555 1_555
O3D C15D 1_555 1_555
N3D C10D 1_555 1_555
N4D H5D 1_555 1_555
C10D H8D 1_555 1_555
C11D C10D 1_555 1_555
H9D C11D 1_555 1_555
C12D C11D 1_555 1_555
H10D C12D 1_555 1_555
C13D N4D 1_555 1_555
C14D N3D 1_555 1_555
H11D C14D 1_555 1_555
C15D N4D 1_555 1_555
C16D C15D 1_555 1_555
H12D C16D 1_555 1_555
C17D C18 1_555 1_555
C18D C17 1_555 1_555
H18D C18D 1_555 1_555
H20D C17D 1_555 1_555
H22D C17D 1_555 1_555
H26D C18D 1_555 1_555
Ni1D N1D 1_555 1_555
O2D Ni1D 1_555 1_555
O4D Ni1D 1_555 1_555
O5D C26D 1_555 1_555
O6D Ni1D 1_555 1_555
O7D C26D 1_555 1_555
O8D Ni1D 1_555 1_555
O9D C19D 1_555 1_555
C19D O8D 1_555 1_555
C20D C19D 1_555 1_555
C21D C20D 1_555 1_555
H13D C21D 1_555 1_555
C22D C21D 1_555 1_555
H14D C22D 1_555 1_555
C23D C22D 1_555 1_555
H15D C23D 1_555 1_555
C24D C23D 1_555 1_555
C25D C20D 1_555 1_555
H16D C25D 1_555 1_555
C26D C24D 1_555 1_555
H17D O6D 1_555 1_555
H19D O6D 1_555 1_555
H27D O2D 1_555 1_555
H28D O2D 1_555 1_555
H29D O4D 1_555 1_555
H30D O4D 1_555 1_555
Ni1D_2 N3D 1_555 1_555
N3D_2 Ni1D 1_555 1_555
C3 C4 1_555 1_555
C4 C5 1_555 1_555
C12 C13 1_555 1_555
C13 C14 1_555 1_555
C24 C25 1_555 1_555
C3D C4D 1_555 1_555
C4D C5D 1_555 1_555
C7D C8D 1_555 1_555
C7D C9D 1_555 1_555
C12D C13D 1_555 1_555
C13D C14D 1_555 1_555
C16D C17D 1_555 1_555
C16D C18D 1_555 1_555
C24D C25D 1_555 1_555

#END
