
#######################################################################
#
#                 Cambridge Crystallographic Data Centre
#                                CCDC 
#
#######################################################################
#
# If this CIF has been generated from an entry in the Cambridge 
# Structural Database, then it will include bibliographic, chemical, 
# crystal, experimental, refinement or atomic coordinate data resulting 
# from the CCDC's data processing and validation procedures.
#
#######################################################################

data_LOTDON
_symmetry_cell_setting           monoclinic
_symmetry_space_group_name_H-M   'C 2/c'
_symmetry_Int_Tables_number      15
_space_group_name_Hall           '-C 2yn'
loop_
_symmetry_equiv_pos_site_id
_symmetry_equiv_pos_as_xyz
1 x,y,z
2 1/2+x,1/2+y,z
3 x,-y,1/2+z
4 1/2+x,1/2-y,1/2+z
5 -x,-y,-z
6 1/2-x,1/2-y,-z
7 -x,y,1/2-z
8 1/2-x,1/2+y,1/2-z
_cell_length_a                   21.4960(15)
_cell_length_b                   7.4979(6)
_cell_length_c                   9.0475(5)
_cell_angle_alpha                90.00
_cell_angle_beta                 108.901(5)
_cell_angle_gamma                90.00
_cell_volume                     1379.6
loop_
_atom_site_label
_atom_site_type_symbol
_atom_site_fract_x
_atom_site_fract_y
_atom_site_fract_z
Fe1 Fe 0.522448(12) 0.29760(4) 0.95956(3)
O1 O 0.43426(7) 0.2019(2) 0.9824(2)
O2 O 0.5000 0.1009(3) 0.7500
O3 O 0.42734(7) -0.0791(2) 0.8978(2)
O4 O 0.04259(7) 0.0185(2) 0.6489(2)
O5 O 0.09502(6) -0.1105(2) 0.8774(2)
C1 C 0.09465(9) -0.0182(3) 0.7616(2)
C2 C 0.15914(9) 0.0449(3) 0.7480(2)
H1 H 0.15572(9) 0.1719(3) 0.7263(2)
H2 H 0.16579(9) -0.0138(3) 0.6587(2)
C3 C 0.21986(9) 0.0129(3) 0.8899(2)
H3 H 0.21974(9) -0.1097(3) 0.9241(2)
H4 H 0.21797(9) 0.0899(3) 0.9746(2)
C4 C 0.28365(9) 0.0487(3) 0.8552(2)
H5 H 0.28260(9) 0.1691(3) 0.8151(2)
H6 H 0.28670(9) -0.0330(3) 0.7747(2)
C5 C 0.40693(9) 0.0523(3) 0.9590(2)
C6 C 0.34455(9) 0.0272(3) 0.9996(2)
H7 H 0.34318(9) 0.1143(3) 1.0778(2)
H8 H 0.34449(9) -0.0907(3) 1.0436(2)
H9 H 0.4718(14) 0.0308(41) 0.7775(36)
H9F H 0.5282(14) 0.0308(41) 0.7225(36)
O1D O 0.56574(7) -0.2019(2) 1.0176(2)
O3D O 0.57266(7) 0.0791(2) 1.1022(2)
O4D O 0.95741(7) -0.0185(2) 1.3511(2)
O5D O 0.90498(6) 0.1105(2) 1.1226(2)
C1D C 0.90535(9) 0.0182(3) 1.2384(2)
C2D C 0.84086(9) -0.0449(3) 1.2520(2)
H1D H 0.84428(9) -0.1719(3) 1.2737(2)
H2D H 0.83421(9) 0.0138(3) 1.3413(2)
C3D C 0.78014(9) -0.0129(3) 1.1101(2)
H3D H 0.78026(9) 0.1097(3) 1.0759(2)
H4D H 0.78203(9) -0.0899(3) 1.0254(2)
C4D C 0.71635(9) -0.0487(3) 1.1448(2)
H5D H 0.71740(9) -0.1691(3) 1.1849(2)
H6D H 0.71330(9) 0.0330(3) 1.2253(2)
C5D C 0.59307(9) -0.0523(3) 1.0410(2)
C6D C 0.65545(9) -0.0272(3) 1.0004(2)
H7D H 0.65682(9) -0.1143(3) 0.9222(2)
H8D H 0.65551(9) 0.0907(3) 0.9564(2)
Fe1D Fe 0.477552(12) -0.29760(4) 1.04044(3)
O4C O 0.54259(7) 0.4815(2) 1.1489(2)
O4G O 0.45741(7) 0.5185(2) 0.8511(2)
O5A O 0.59502(6) 0.3895(2) 0.8774(2)
Fe1F Fe 0.477552(12) 0.29760(4) 0.54044(3)
Fe1C Fe 0.022448(12) 0.20240(4) 0.45956(3)
Fe1G Fe -0.022448(12) -0.20240(4) 0.54044(3)
Fe1A Fe 0.022448(12) -0.20240(4) 0.95956(3)
Fe1C_2 Fe 1.022448(12) 0.20240(4) 1.45956(3)
Fe1G_2 Fe 0.977552(12) -0.20240(4) 1.54044(3)
Fe1E Fe 0.977552(12) 0.20240(4) 1.04044(3)
O2B O 0.5000 -0.1009(3) 1.2500
O4C_2 O 0.54259(7) -0.5185(2) 1.1489(2)
O4G_2 O 0.45741(7) -0.4815(2) 0.8511(2)
O5E O 0.40498(6) -0.3895(2) 1.1226(2)
H9B H 0.4718(14) -0.0308(41) 1.2775(36)
H9D H 0.5282(14) -0.0308(41) 1.2225(36)
loop_
_geom_bond_atom_site_label_1
_geom_bond_atom_site_label_2
_geom_bond_site_symmetry_1
_geom_bond_site_symmetry_2
Fe1 O1 1_555 1_555
O1 C5 1_555 1_555
O2 Fe1 1_555 1_555
O3 C5 1_555 1_555
O4 C1 1_555 1_555
O5 C1 1_555 1_555
C1 C2 1_555 1_555
C2 H1 1_555 1_555
H2 C2 1_555 1_555
C3 C2 1_555 1_555
H3 C3 1_555 1_555
H4 C3 1_555 1_555
C4 C3 1_555 1_555
H5 C4 1_555 1_555
H6 C4 1_555 1_555
C5 C6 1_555 1_555
C6 C4 1_555 1_555
H7 C6 1_555 1_555
H8 C6 1_555 1_555
H9 O2 1_555 1_555
H9F O2 1_555 1_555
O1D C5D 1_555 1_555
O3D Fe1 1_555 1_555
O4D C1D 1_555 1_555
O5D C1D 1_555 1_555
C1D C2D 1_555 1_555
C2D H1D 1_555 1_555
H2D C2D 1_555 1_555
C3D C2D 1_555 1_555
H3D C3D 1_555 1_555
H4D C3D 1_555 1_555
C4D C3D 1_555 1_555
H5D C4D 1_555 1_555
H6D C4D 1_555 1_555
C5D O3D 1_555 1_555
C6D C4D 1_555 1_555
H7D C6D 1_555 1_555
H8D C6D 1_555 1_555
Fe1D O3 1_555 1_555
O4C Fe1 1_555 1_555
O4G Fe1 1_555 1_555
O5A Fe1 1_555 1_555
Fe1F O2 1_555 1_555
Fe1C O4 1_555 1_555
Fe1G O4 1_555 1_555
Fe1A O5 1_555 1_555
Fe1C_2 O4D 1_555 1_555
Fe1G_2 O4D 1_555 1_555
Fe1E O5D 1_555 1_555
O2B Fe1D 1_555 1_555
O4C_2 Fe1D 1_555 1_555
O4G_2 Fe1D 1_555 1_555
O5E Fe1D 1_555 1_555
H9B O2B 1_555 1_555
H9D O2B 1_555 1_555
O1D Fe1D 1_555 1_555
C5D C6D 1_555 1_555

#END
