
#######################################################################
#
#                 Cambridge Crystallographic Data Centre
#                                CCDC 
#
#######################################################################
#
# If this CIF has been generated from an entry in the Cambridge 
# Structural Database, then it will include bibliographic, chemical, 
# crystal, experimental, refinement or atomic coordinate data resulting 
# from the CCDC's data processing and validation procedures.
#
#######################################################################

data_LOTJUB
_symmetry_cell_setting           monoclinic
_symmetry_space_group_name_H-M   'C 2/c'
_symmetry_Int_Tables_number      15
_space_group_name_Hall           '-C 2yn'
loop_
_symmetry_equiv_pos_site_id
_symmetry_equiv_pos_as_xyz
1 x,y,z
2 -x,y,1/2-z
3 1/2+x,1/2+y,z
4 1/2-x,1/2+y,1/2-z
5 -x,-y,-z
6 x,-y,1/2+z
7 1/2-x,1/2-y,-z
8 1/2+x,1/2-y,1/2+z
_cell_length_a                   23.812(5)
_cell_length_b                   8.4110(15)
_cell_length_c                   10.8594(19)
_cell_angle_alpha                90
_cell_angle_beta                 111.132(4)
_cell_angle_gamma                90
_cell_volume                     2028.69
loop_
_atom_site_label
_atom_site_type_symbol
_atom_site_fract_x
_atom_site_fract_y
_atom_site_fract_z
Eu1 Eu 0.0000 -0.06096(5) -0.2500
O1 O 0.06183(17) -0.1171(5) -0.0333(4)
O2 O 0.07393(17) -0.0058(5) 0.1600(4)
O3 O 0.03788(17) 0.2016(5) -0.1545(4)
N1 N 0.3954(2) 0.0041(6) 0.3445(5)
N2 N 0.3797(2) 0.0198(5) 0.2112(5)
N3 N 0.4403(2) -0.1837(5) 0.2642(5)
C1 C 0.0917(3) -0.0420(6) 0.0683(6)
C2 C 0.1553(2) 0.0077(7) 0.0865(6)
C3 C 0.1844(3) -0.0576(7) 0.0076(6)
H1 H 0.1646 -0.1311 -0.0575
C4 C 0.2428(3) -0.0130(7) 0.0262(7)
H2 H 0.2622 -0.0592 -0.0255
C5 C 0.2729(3) 0.0982(7) 0.1193(6)
C6 C 0.2442(2) 0.1657(7) 0.1956(6)
H3 H 0.2638 0.2421 0.2583
C7 C 0.1856(3) 0.1202(8) 0.1792(6)
H4 H 0.1667 0.1663 0.2317
C8 C 0.3372(2) 0.1428(7) 0.1379(6)
H5 H 0.3405 0.1574 0.0522
H6 H 0.3474 0.2427 0.1854
C9 C 0.4066(3) -0.0916(6) 0.1665(6)
H7 H 0.4025 -0.1037 0.0785
C10 C 0.4314(3) -0.1205(8) 0.3694(6)
H8 H 0.4494 -0.1618 0.4540
C11 C 0.0000 0.2725(12) -0.2500
O3A O -0.03788(17) 0.2016(5) -0.3455(4)
O1A O -0.06183(17) -0.1171(5) -0.4667(4)
O2A O -0.07393(17) -0.0058(5) -0.6600(4)
N1A N -0.3954(2) 0.0041(6) -0.8445(5)
N2A N -0.3797(2) 0.0198(5) -0.7112(5)
N3A N -0.4403(2) -0.1837(5) -0.7642(5)
C1A C -0.0917(3) -0.0420(6) -0.5683(6)
C2A C -0.1553(2) 0.0077(7) -0.5865(6)
C3A C -0.1844(3) -0.0576(7) -0.5076(6)
H1A H -0.1646 -0.1311 -0.4425
C4A C -0.2428(3) -0.0130(7) -0.5262(7)
H2A H -0.2622 -0.0592 -0.4745
C5A C -0.2729(3) 0.0982(7) -0.6193(6)
C6A C -0.2442(2) 0.1657(7) -0.6956(6)
H3A H -0.2638 0.2421 -0.7583
C7A C -0.1856(3) 0.1202(8) -0.6792(6)
H4A H -0.1667 0.1663 -0.7317
C8A C -0.3372(2) 0.1428(7) -0.6379(6)
H5A H -0.3405 0.1574 -0.5522
H6A H -0.3474 0.2427 -0.6854
C9A C -0.4066(3) -0.0916(6) -0.6665(6)
H7A H -0.4025 -0.1037 -0.5785
C10A C -0.4314(3) -0.1205(8) -0.8694(6)
H8A H -0.4494 -0.1618 -0.9540
Eu1D Eu 0.0000 0.06096(5) -0.7500
Eu1D_2 Eu 0.0000 0.06096(5) 0.2500
Eu1F Eu -0.5000 -0.43904(5) -0.7500
Eu1F_2 Eu 0.5000 -0.43904(5) 0.2500
O2D O -0.07393(17) 0.0058(5) -0.1600(4)
O2E O 0.07393(17) 0.0058(5) -0.3400(4)
N3F N 0.0597(2) -0.3163(5) -0.2642(5)
N3G N -0.0597(2) -0.3163(5) -0.2358(5)
loop_
_geom_bond_atom_site_label_1
_geom_bond_atom_site_label_2
_geom_bond_site_symmetry_1
_geom_bond_site_symmetry_2
Eu1 O1 1_555 1_555
O1 C1 1_555 1_555
O2 C1 1_555 1_555
O3 Eu1 1_555 1_555
N1 N2 1_555 1_555
N2 C8 1_555 1_555
N3 C9 1_555 1_555
C1 C2 1_555 1_555
C2 C3 1_555 1_555
C3 H1 1_555 1_555
C4 C3 1_555 1_555
H2 C4 1_555 1_555
C5 C4 1_555 1_555
C6 C5 1_555 1_555
H3 C6 1_555 1_555
C7 C2 1_555 1_555
H4 C7 1_555 1_555
C8 C5 1_555 1_555
H5 C8 1_555 1_555
H6 C8 1_555 1_555
C9 N2 1_555 1_555
H7 C9 1_555 1_555
C10 N1 1_555 1_555
H8 C10 1_555 1_555
C11 O3 1_555 1_555
O3A Eu1 1_555 1_555
O1A Eu1 1_555 1_555
O2A C1A 1_555 1_555
N1A N2A 1_555 1_555
N2A C8A 1_555 1_555
N3A C9A 1_555 1_555
C1A O1A 1_555 1_555
C2A C1A 1_555 1_555
C3A C2A 1_555 1_555
H1A C3A 1_555 1_555
C4A C3A 1_555 1_555
H2A C4A 1_555 1_555
C5A C4A 1_555 1_555
C6A C5A 1_555 1_555
H3A C6A 1_555 1_555
C7A C2A 1_555 1_555
H4A C7A 1_555 1_555
C8A C5A 1_555 1_555
H5A C8A 1_555 1_555
H6A C8A 1_555 1_555
C9A N2A 1_555 1_555
H7A C9A 1_555 1_555
C10A N1A 1_555 1_555
H8A C10A 1_555 1_555
Eu1D O2A 1_555 1_555
Eu1D_2 O2 1_555 1_555
Eu1F N3A 1_555 1_555
Eu1F_2 N3 1_555 1_555
O2D Eu1 1_555 1_555
O2E Eu1 1_555 1_555
N3F Eu1 1_555 1_555
N3G Eu1 1_555 1_555
N3 C10 1_555 1_555
C6 C7 1_555 1_555
C11 O3A 1_555 1_555
N3A C10A 1_555 1_555
C6A C7A 1_555 1_555

#END
