
#######################################################################
#
#                 Cambridge Crystallographic Data Centre
#                                CCDC 
#
#######################################################################
#
# If this CIF has been generated from an entry in the Cambridge 
# Structural Database, then it will include bibliographic, chemical, 
# crystal, experimental, refinement or atomic coordinate data resulting 
# from the CCDC's data processing and validation procedures.
#
#######################################################################

data_LOTKIQ
_symmetry_cell_setting           monoclinic
_symmetry_space_group_name_H-M   'P 21/c'
_symmetry_Int_Tables_number      14
_space_group_name_Hall           '-P 2ybc'
loop_
_symmetry_equiv_pos_site_id
_symmetry_equiv_pos_as_xyz
1 x,y,z
2 -x,1/2+y,1/2-z
3 -x,-y,-z
4 x,1/2-y,1/2+z
_cell_length_a                   17.931(4)
_cell_length_b                   8.4694(19)
_cell_length_c                   26.347(6)
_cell_angle_alpha                90
_cell_angle_beta                 93.148(3)
_cell_angle_gamma                90
_cell_volume                     3995.14
loop_
_atom_site_label
_atom_site_type_symbol
_atom_site_fract_x
_atom_site_fract_y
_atom_site_fract_z
C1 C 0.6182(4) -0.2690(9) 0.7250(2)
C2 C 0.6718(4) -0.3475(9) 0.6920(2)
C3 C 0.7476(4) -0.3206(11) 0.7008(3)
H1 H 0.7643 -0.2495 0.7258
C4 C 0.7986(4) -0.3992(13) 0.6724(3)
H2 H 0.8495 -0.3828 0.6791
C5 C 0.7748(5) -0.5014(11) 0.6343(3)
C6 C 0.6986(4) -0.5252(11) 0.6245(3)
H3 H 0.6822 -0.5930 0.5984
C7 C 0.6469(4) -0.4490(11) 0.6531(3)
H4 H 0.5960 -0.4655 0.6464
C8 C 0.8269(5) -0.5910(16) 0.6016(4)
H5 H 0.8063 -0.6953 0.5949
H6 H 0.8289 -0.5370 0.5692
C9 C 0.9644(7) -0.5396(15) 0.6086(6)
H7 H 0.9646 -0.4653 0.5826
C10 C 1.0015(4) -0.6936(10) 0.6671(3)
C11 C 1.0418(4) -0.7872(14) 0.7022(4)
H8 H 1.0935 -0.7771 0.7062
C12 C 1.0049(8) -0.8957(13) 0.7315(3)
H9 H 1.0319 -0.9583 0.7550
C13 C 0.9277(8) -0.9106(12) 0.7256(3)
H10 H 0.9031 -0.9832 0.7452
C14 C 0.8874(4) -0.8171(13) 0.6905(3)
H11 H 0.8358 -0.8271 0.6866
C15 C 0.9243(4) -0.7086(10) 0.6613(2)
C16 C 0.5262(4) 0.3508(10) 1.1550(2)
C17 C 0.5496(4) 0.3550(9) 1.1011(2)
C18 C 0.5902(6) 0.4815(11) 1.0842(3)
H12 H 0.6030 0.5635 1.1065
C19 C 0.6125(6) 0.4889(11) 1.0344(3)
H13 H 0.6413 0.5731 1.0241
C20 C 0.5915(4) 0.3700(9) 1.0004(2)
C21 C 0.5489(4) 0.2462(9) 1.0168(2)
H14 H 0.5334 0.1673 0.9941
C22 C 0.5291(4) 0.2386(9) 1.0670(2)
H15 H 0.5015 0.1530 1.0776
C23 C 0.6143(5) 0.3858(10) 0.9458(2)
H16 H 0.5823 0.4632 0.9283
H17 H 0.6652 0.4247 0.9460
C24 C 0.5649(4) 0.2100(9) 0.8752(2)
H18 H 0.5316 0.2837 0.8609
C25 C 0.6504(3) 0.1039(5) 0.92676(17)
C26 C 0.7046(3) 0.0599(7) 0.96379(17)
H19 H 0.7193 0.1301 0.9896
C27 C 0.7370(3) -0.0890(8) 0.9623(2)
H20 H 0.7733 -0.1184 0.9870
C28 C 0.7152(3) -0.1940(6) 0.9237(2)
H21 H 0.7368 -0.2936 0.9227
C29 C 0.6609(3) -0.1500(6) 0.88667(18)
H22 H 0.6463 -0.2202 0.8609
C30 C 0.6285(2) -0.0011(6) 0.88820(15)
C31 C 0.6358(4) 0.2988(10) 0.7717(2)
C32 C 0.7110(4) 0.3149(10) 0.7990(3)
C33 C 0.7544(4) 0.1823(12) 0.8081(4)
H23 H 0.7369 0.0839 0.7973
C34 C 0.8236(5) 0.1955(15) 0.8332(5)
H24 H 0.8533 0.1064 0.8386
C35 C 0.8492(5) 0.3437(15) 0.8505(4)
C36 C 0.8051(5) 0.4748(13) 0.8427(4)
H25 H 0.8214 0.5729 0.8547
C37 C 0.7359(4) 0.4598(11) 0.8169(3)
H26 H 0.7059 0.5485 0.8115
C38 C 0.9267(5) 0.3540(17) 0.8769(4)
H27 H 0.9590 0.2727 0.8643
H28 H 0.9489 0.4563 0.8710
C39 C 0.8873(5) 0.3919(9) 1.0071(4)
C40 C 0.8770(6) 0.4882(13) 1.0488(3)
H29 H 0.8617 0.4444 1.0789
C41 C 0.8894(5) 0.6497(12) 1.0456(3)
H30 H 0.8825 0.7141 1.0735
C42 C 0.9122(5) 0.7151(9) 1.0006(4)
H31 H 0.9205 0.8232 0.9984
C43 C 0.9226(5) 0.6189(13) 0.9588(3)
H32 H 0.9378 0.6626 0.9287
C44 C 0.9101(4) 0.4573(12) 0.9621(3)
N1 N 0.9016(4) -0.6077(11) 0.6233(3)
N2 N 1.0252(5) -0.5862(15) 0.6337(5)
N3 N 0.6095(3) 0.2372(7) 0.91770(18)
N4 N 0.5743(3) 0.0675(8) 0.85654(19)
O1 O 0.6410(3) -0.1743(6) 0.75826(17)
O2 O 0.5472(2) -0.2964(6) 0.71762(15)
O3 O 0.5274(3) 0.4785(6) 1.17870(16)
O4 O 0.5056(3) 0.2198(6) 1.17199(16)
O5 O 0.6162(3) 0.1642(7) 0.75717(18)
O6 O 0.5971(3) 0.4201(7) 0.76612(17)
Eu1 Eu 0.524843(17) -0.03081(4) 0.767276(10)
C45 C 0.9022(7) 0.1969(16) 0.9541(4)
H33 H 0.9026 0.0980 0.9387
N5 N 0.9169(5) 0.3322(14) 0.9285(4)
N6 N 0.8873(7) 0.2164(15) 1.0026(4)
O2A O 0.4528(2) 0.2036(6) 0.78238(15)
O3C O 0.5274(3) 0.0215(6) 0.67870(16)
O4B O 0.4944(3) -0.2198(6) 0.82801(16)
O6A O 0.4029(3) -0.0799(7) 0.73388(17)
Eu1A Eu 0.475157(17) -0.53081(4) 0.732724(10)
Eu1A_2 Eu 0.475157(17) 0.46919(4) 0.732724(10)
Eu1B Eu 0.475157(17) 0.03081(4) 1.232724(10)
Eu1C Eu 0.524843(17) 0.53081(4) 1.267276(10)
loop_
_geom_bond_atom_site_label_1
_geom_bond_atom_site_label_2
_geom_bond_site_symmetry_1
_geom_bond_site_symmetry_2
C1 C2 1_555 1_555
C2 C3 1_555 1_555
C3 H1 1_555 1_555
C4 C3 1_555 1_555
H2 C4 1_555 1_555
C5 C4 1_555 1_555
C6 C5 1_555 1_555
H3 C6 1_555 1_555
C7 C2 1_555 1_555
H4 C7 1_555 1_555
C8 C5 1_555 1_555
H5 C8 1_555 1_555
H6 C8 1_555 1_555
C9 H7 1_555 1_555
C10 C11 1_555 1_555
C11 H8 1_555 1_555
C12 C11 1_555 1_555
H9 C12 1_555 1_555
C13 C12 1_555 1_555
H10 C13 1_555 1_555
C14 C13 1_555 1_555
H11 C14 1_555 1_555
C15 C10 1_555 1_555
C16 C17 1_555 1_555
C17 C18 1_555 1_555
C18 H12 1_555 1_555
C19 C18 1_555 1_555
H13 C19 1_555 1_555
C20 C19 1_555 1_555
C21 C20 1_555 1_555
H14 C21 1_555 1_555
C22 C17 1_555 1_555
H15 C22 1_555 1_555
C23 C20 1_555 1_555
H16 C23 1_555 1_555
H17 C23 1_555 1_555
C24 H18 1_555 1_555
C25 C26 1_555 1_555
C26 H19 1_555 1_555
C27 C26 1_555 1_555
H20 C27 1_555 1_555
C28 C27 1_555 1_555
H21 C28 1_555 1_555
C29 C28 1_555 1_555
H22 C29 1_555 1_555
C30 C25 1_555 1_555
C31 C32 1_555 1_555
C32 C33 1_555 1_555
C33 H23 1_555 1_555
C34 C33 1_555 1_555
H24 C34 1_555 1_555
C35 C34 1_555 1_555
C36 C35 1_555 1_555
H25 C36 1_555 1_555
C37 C32 1_555 1_555
H26 C37 1_555 1_555
C38 C35 1_555 1_555
H27 C38 1_555 1_555
H28 C38 1_555 1_555
C39 C40 1_555 1_555
C40 H29 1_555 1_555
C41 C40 1_555 1_555
H30 C41 1_555 1_555
C42 C41 1_555 1_555
H31 C42 1_555 1_555
C43 C42 1_555 1_555
H32 C43 1_555 1_555
C44 C39 1_555 1_555
N1 C8 1_555 1_555
N2 C9 1_555 1_555
N3 C23 1_555 1_555
N4 C24 1_555 1_555
O1 C1 1_555 1_555
O2 C1 1_555 1_555
O3 C16 1_555 1_555
O4 C16 1_555 1_555
O5 C31 1_555 1_555
O6 C31 1_555 1_555
Eu1 N4 1_555 1_555
C45 H33 1_555 1_555
N5 C38 1_555 1_555
N6 C39 1_555 1_555
O2A Eu1 1_555 1_555
O3C Eu1 1_555 1_555
O4B Eu1 1_555 1_555
O6A Eu1 1_555 1_555
Eu1A O2 1_555 1_555
Eu1A_2 O6 1_555 1_555
Eu1B O4 1_555 1_555
Eu1C O3 1_555 1_555
C6 C7 1_555 1_555
C9 N1 1_555 1_555
C10 N2 1_555 1_555
C14 C15 1_555 1_555
C15 N1 1_555 1_555
C21 C22 1_555 1_555
C24 N3 1_555 1_555
C25 N3 1_555 1_555
C29 C30 1_555 1_555
C30 N4 1_555 1_555
C36 C37 1_555 1_555
C43 C44 1_555 1_555
C44 N5 1_555 1_555
O1 Eu1 1_555 1_555
O2 Eu1 1_555 1_555
O5 Eu1 1_555 1_555
C45 N5 1_555 1_555
C45 N6 1_555 1_555
O2A Eu1A_2 1_555 1_555

#END
