
#######################################################################
#
#                 Cambridge Crystallographic Data Centre
#                                CCDC 
#
#######################################################################
#
# If this CIF has been generated from an entry in the Cambridge 
# Structural Database, then it will include bibliographic, chemical, 
# crystal, experimental, refinement or atomic coordinate data resulting 
# from the CCDC's data processing and validation procedures.
#
#######################################################################

data_LOTKAI
_symmetry_cell_setting           monoclinic
_symmetry_space_group_name_H-M   'P 21/c'
_symmetry_Int_Tables_number      14
_space_group_name_Hall           '-P 2ybc'
loop_
_symmetry_equiv_pos_site_id
_symmetry_equiv_pos_as_xyz
1 x,y,z
2 -x,1/2+y,1/2-z
3 -x,-y,-z
4 x,1/2-y,1/2+z
_cell_length_a                   10.7880(12)
_cell_length_b                   25.337(3)
_cell_length_c                   9.4619(10)
_cell_angle_alpha                90
_cell_angle_beta                 97.0260(10)
_cell_angle_gamma                90
_cell_volume                     2566.85
loop_
_atom_site_label
_atom_site_type_symbol
_atom_site_fract_x
_atom_site_fract_y
_atom_site_fract_z
Ag1 Ag -0.03404(3) 0.456608(13) 0.36264(4)
C1 C -0.0380(3) 0.54926(13) 0.1188(4)
C2 C -0.1524(4) 0.53956(16) 0.0382(4)
H1 H -0.2062 0.5136 0.0642
C3 C -0.1827(4) 0.57003(19) -0.0816(4)
H2 H -0.2588 0.5648 -0.1374
C4 C -0.1015(5) 0.60826(19) -0.1202(5)
H3 H -0.1248 0.6278 -0.2024
C5 C 0.0117(4) 0.61858(16) -0.0427(4)
H4 H 0.0651 0.6444 -0.0702
C6 C 0.0425(3) 0.58840(13) 0.0794(4)
C7 C 0.1253(4) 0.54881(14) 0.2733(4)
H5 H 0.1821 0.5401 0.3519
C8 C 0.2556(3) 0.62268(14) 0.1922(4)
H6 H 0.2467 0.6500 0.2621
H7 H 0.2609 0.6396 0.1012
C9 C 0.3736(3) 0.59173(13) 0.2359(4)
C10 C 0.4335(3) 0.59201(14) 0.3736(4)
H8 H 0.4033 0.6132 0.4419
C11 C 0.5377(3) 0.56115(14) 0.4109(4)
H9 H 0.5782 0.5627 0.5034
C12 C 0.5829(3) 0.52794(13) 0.3131(4)
C13 C 0.5232(4) 0.52812(17) 0.1750(4)
H10 H 0.5523 0.5064 0.1070
C14 C 0.4204(4) 0.56028(17) 0.1365(4)
H11 H 0.3829 0.5606 0.0427
C15 C 0.6965(3) 0.49402(14) 0.3503(4)
C16 C -0.0579(3) 0.34186(13) 0.5023(4)
C17 C -0.1709(4) 0.32750(15) 0.4266(4)
H12 H -0.2075 0.3476 0.3504
C18 C -0.2269(4) 0.28215(16) 0.4692(5)
H13 H -0.3021 0.2711 0.4195
C19 C -0.1735(4) 0.25263(15) 0.5845(5)
H14 H -0.2146 0.2225 0.6105
C20 C -0.0626(4) 0.26643(14) 0.6610(4)
H15 H -0.0277 0.2466 0.7385
C21 C -0.0047(3) 0.31147(13) 0.6175(4)
C22 C 0.1114(3) 0.38096(13) 0.5879(4)
H16 H 0.1765 0.4052 0.6018
C23 C 0.1917(4) 0.32297(16) 0.7952(4)
H17 H 0.1442 0.3124 0.8711
H18 H 0.2411 0.3536 0.8278
C24 C 0.2788(3) 0.27848(14) 0.7664(4)
C25 C 0.2673(4) 0.22887(17) 0.8221(5)
H19 H 0.2031 0.2221 0.8768
C26 C 0.3495(4) 0.18873(16) 0.7984(4)
H20 H 0.3415 0.1558 0.8397
C27 C 0.4429(3) 0.19712(14) 0.7143(4)
C28 C 0.4553(4) 0.24669(16) 0.6596(5)
H21 H 0.5187 0.2533 0.6036
C29 C 0.3749(4) 0.28688(17) 0.6865(5)
H22 H 0.3861 0.3203 0.6496
C30 C 0.5347(4) 0.15498(15) 0.6880(4)
N1 N 0.0184(3) 0.52476(11) 0.2422(3)
N2 N 0.1459(3) 0.58764(11) 0.1807(3)
N3 N 0.1044(3) 0.33789(11) 0.6697(3)
N4 N 0.0170(3) 0.38551(11) 0.4859(3)
O1 O 0.7077(2) 0.45297(10) 0.2761(3)
O2 O 0.7750(2) 0.50872(10) 0.4491(3)
O3 O 0.6156(3) 0.16152(11) 0.6126(3)
O4 O 0.5197(3) 0.11062(11) 0.7556(3)
H23 H 0.579(5) 0.086(2) 0.754(6)
Ag1_2 Ag 0.96596(3) 0.456608(13) 0.36264(4)
O2_2 O -0.2250(2) 0.50872(10) 0.4491(3)
loop_
_geom_bond_atom_site_label_1
_geom_bond_atom_site_label_2
_geom_bond_site_symmetry_1
_geom_bond_site_symmetry_2
Ag1 N1 1_555 1_555
C1 C2 1_555 1_555
C2 H1 1_555 1_555
C3 C2 1_555 1_555
H2 C3 1_555 1_555
C4 C3 1_555 1_555
H3 C4 1_555 1_555
C5 C4 1_555 1_555
H4 C5 1_555 1_555
C6 C1 1_555 1_555
C7 H5 1_555 1_555
C8 H6 1_555 1_555
H7 C8 1_555 1_555
C9 C8 1_555 1_555
C10 C9 1_555 1_555
H8 C10 1_555 1_555
C11 C10 1_555 1_555
H9 C11 1_555 1_555
C12 C11 1_555 1_555
C13 C12 1_555 1_555
H10 C13 1_555 1_555
C14 C9 1_555 1_555
H11 C14 1_555 1_555
C15 C12 1_555 1_555
C16 C17 1_555 1_555
C17 H12 1_555 1_555
C18 C17 1_555 1_555
H13 C18 1_555 1_555
C19 C18 1_555 1_555
H14 C19 1_555 1_555
C20 C19 1_555 1_555
H15 C20 1_555 1_555
C21 C16 1_555 1_555
C22 H16 1_555 1_555
C23 H17 1_555 1_555
H18 C23 1_555 1_555
C24 C23 1_555 1_555
C25 C24 1_555 1_555
H19 C25 1_555 1_555
C26 C25 1_555 1_555
H20 C26 1_555 1_555
C27 C26 1_555 1_555
C28 C27 1_555 1_555
H21 C28 1_555 1_555
C29 C24 1_555 1_555
H22 C29 1_555 1_555
C30 C27 1_555 1_555
N1 C1 1_555 1_555
N2 C6 1_555 1_555
N3 C21 1_555 1_555
N4 Ag1 1_555 1_555
O1 C15 1_555 1_555
O2 C15 1_555 1_555
O3 C30 1_555 1_555
O4 C30 1_555 1_555
H23 O4 1_555 1_555
Ag1_2 O2 1_555 1_555
O2_2 Ag1 1_555 1_555
C5 C6 1_555 1_555
C7 N1 1_555 1_555
C7 N2 1_555 1_555
C8 N2 1_555 1_555
C13 C14 1_555 1_555
C16 N4 1_555 1_555
C20 C21 1_555 1_555
C22 N3 1_555 1_555
C22 N4 1_555 1_555
C23 N3 1_555 1_555
C28 C29 1_555 1_555

#END
