
#######################################################################
#
#                 Cambridge Crystallographic Data Centre
#                                CCDC 
#
#######################################################################
#
# If this CIF has been generated from an entry in the Cambridge 
# Structural Database, then it will include bibliographic, chemical, 
# crystal, experimental, refinement or atomic coordinate data resulting 
# from the CCDC's data processing and validation procedures.
#
#######################################################################

data_LOTKEM
_symmetry_cell_setting           monoclinic
_symmetry_space_group_name_H-M   'P 21/n'
_symmetry_Int_Tables_number      14
_space_group_name_Hall           '-P 2yn'
loop_
_symmetry_equiv_pos_site_id
_symmetry_equiv_pos_as_xyz
1 x,y,z
2 1/2-x,1/2+y,1/2-z
3 -x,-y,-z
4 1/2+x,1/2-y,1/2+z
_cell_length_a                   14.578(3)
_cell_length_b                   5.8741(14)
_cell_length_c                   15.358(4)
_cell_angle_alpha                90
_cell_angle_beta                 96.230(3)
_cell_angle_gamma                90
_cell_volume                     1307.38
loop_
_atom_site_label
_atom_site_type_symbol
_atom_site_fract_x
_atom_site_fract_y
_atom_site_fract_z
Cu1 Cu 0.0000 1.0000 1.0000
C1 C 0.43508(15) 0.5940(4) 0.64867(13)
C2 C 0.40196(13) 0.5688(4) 0.73774(13)
C3 C 0.42009(14) 0.3705(4) 0.78572(13)
H1 H 0.4542 0.2546 0.7634
C4 C 0.38791(15) 0.3448(4) 0.86616(14)
H2 H 0.4009 0.2115 0.8978
C5 C 0.33642(14) 0.5141(3) 0.90081(13)
C6 C 0.31748(16) 0.7104(4) 0.85273(14)
H3 H 0.2827 0.8253 0.8748
C7 C 0.35008(16) 0.7371(4) 0.77164(14)
H4 H 0.3368 0.8700 0.7398
C8 C 0.19859(14) 0.9584(4) 1.08659(12)
C9 C 0.27597(14) 0.8239(4) 1.07732(13)
C10 C 0.36161(16) 0.8700(5) 1.12151(16)
H5 H 0.4128 0.7793 1.1152
C11 C 0.36690(18) 1.0584(6) 1.17545(18)
H6 H 0.4234 1.0963 1.2060
C12 C 0.29024(18) 1.1938(5) 1.18563(15)
H7 H 0.2969 1.3184 1.2232
C13 C 0.20512(16) 1.1481(4) 1.14171(13)
H8 H 0.1542 1.2392 1.1484
C14 C 0.15509(14) 0.6873(4) 0.99614(13)
H9 H 0.1187 0.5944 0.9574
C15 C 0.29904(18) 0.4655(4) 0.98710(15)
H10 H 0.2605 0.3307 0.9803
H11 H 0.3504 0.4314 1.0307
N1 N 0.12361(11) 0.8686(3) 1.03364(10)
N2 N 0.24539(12) 0.6505(3) 1.01979(11)
O1 O 0.48411(10) 0.4336(3) 0.62326(9)
O2 O 0.41172(14) 0.7628(3) 0.60343(11)
C1B C -0.43508(15) 1.4060(4) 1.35133(13)
C2B C -0.40196(13) 1.4312(4) 1.26226(13)
C3B C -0.42009(14) 1.6295(4) 1.21428(13)
H1B H -0.4542 1.7454 1.2366
C4B C -0.38791(15) 1.6552(4) 1.13384(14)
H2B H -0.4009 1.7885 1.1022
C5B C -0.33642(14) 1.4859(3) 1.09919(13)
C6B C -0.31748(16) 1.2896(4) 1.14727(14)
H3B H -0.2827 1.1747 1.1252
C7B C -0.35008(16) 1.2629(4) 1.22836(14)
H4B H -0.3368 1.1300 1.2602
C8B C -0.19859(14) 1.0416(4) 0.91341(12)
C9B C -0.27597(14) 1.1761(4) 0.92268(13)
C10B C -0.36161(16) 1.1300(5) 0.87849(16)
H5B H -0.4128 1.2207 0.8848
C11B C -0.36690(18) 0.9416(6) 0.82455(18)
H6B H -0.4234 0.9037 0.7940
C12B C -0.29024(18) 0.8062(5) 0.81437(15)
H7B H -0.2969 0.6816 0.7768
C13B C -0.20512(16) 0.8519(4) 0.85829(13)
H8B H -0.1542 0.7608 0.8516
C14B C -0.15509(14) 1.3127(4) 1.00386(13)
H9B H -0.1187 1.4056 1.0426
C15B C -0.29904(18) 1.5345(4) 1.01290(15)
H10B H -0.2605 1.6693 1.0197
H11B H -0.3504 1.5686 0.9693
N1B N -0.12361(11) 1.1314(3) 0.96636(10)
N2B N -0.24539(12) 1.3495(3) 0.98021(11)
O1B O -0.48411(10) 1.5664(3) 1.37674(9)
O2B O -0.41172(14) 1.2372(3) 1.39657(11)
Cu1A Cu -0.5000 1.5000 1.5000
Cu1A_2 Cu 0.5000 0.5000 0.5000
O1A O 0.01589(10) 0.9336(3) 0.87674(9)
O1C O -0.01589(10) 1.0664(3) 1.12326(9)
O2A O 0.08828(14) 1.2628(3) 0.89657(11)
O2C O -0.08828(14) 0.7372(3) 1.10343(11)
loop_
_geom_bond_atom_site_label_1
_geom_bond_atom_site_label_2
_geom_bond_site_symmetry_1
_geom_bond_site_symmetry_2
Cu1 N1 1_555 1_555
C1 C2 1_555 1_555
C2 C3 1_555 1_555
C3 H1 1_555 1_555
C4 C3 1_555 1_555
H2 C4 1_555 1_555
C5 C4 1_555 1_555
C6 C5 1_555 1_555
H3 C6 1_555 1_555
C7 C2 1_555 1_555
H4 C7 1_555 1_555
C8 C9 1_555 1_555
C9 C10 1_555 1_555
C10 H5 1_555 1_555
C11 C10 1_555 1_555
H6 C11 1_555 1_555
C12 C11 1_555 1_555
H7 C12 1_555 1_555
C13 C8 1_555 1_555
H8 C13 1_555 1_555
C14 H9 1_555 1_555
C15 C5 1_555 1_555
H10 C15 1_555 1_555
H11 C15 1_555 1_555
N1 C8 1_555 1_555
N2 C9 1_555 1_555
O1 C1 1_555 1_555
O2 C1 1_555 1_555
C1B C2B 1_555 1_555
C2B C3B 1_555 1_555
C3B H1B 1_555 1_555
C4B C3B 1_555 1_555
H2B C4B 1_555 1_555
C5B C4B 1_555 1_555
C6B C5B 1_555 1_555
H3B C6B 1_555 1_555
C7B C2B 1_555 1_555
H4B C7B 1_555 1_555
C8B C9B 1_555 1_555
C9B C10B 1_555 1_555
C10B H5B 1_555 1_555
C11B C10B 1_555 1_555
H6B C11B 1_555 1_555
C12B C11B 1_555 1_555
H7B C12B 1_555 1_555
C13B C8B 1_555 1_555
H8B C13B 1_555 1_555
C14B H9B 1_555 1_555
C15B C5B 1_555 1_555
H10B C15B 1_555 1_555
H11B C15B 1_555 1_555
N1B Cu1 1_555 1_555
N2B C9B 1_555 1_555
O1B C1B 1_555 1_555
O2B C1B 1_555 1_555
Cu1A O1B 1_555 1_555
Cu1A_2 O1 1_555 1_555
O1A Cu1 1_555 1_555
O1C Cu1 1_555 1_555
O2A Cu1 1_555 1_555
O2C Cu1 1_555 1_555
C6 C7 1_555 1_555
C12 C13 1_555 1_555
C14 N1 1_555 1_555
C14 N2 1_555 1_555
C15 N2 1_555 1_555
O2 Cu1A_2 1_555 1_555
C6B C7B 1_555 1_555
C8B N1B 1_555 1_555
C12B C13B 1_555 1_555
C14B N1B 1_555 1_555
C14B N2B 1_555 1_555
C15B N2B 1_555 1_555
O2B Cu1A 1_555 1_555

#END
