
#######################################################################
#
#                 Cambridge Crystallographic Data Centre
#                                CCDC 
#
#######################################################################
#
# If this CIF has been generated from an entry in the Cambridge 
# Structural Database, then it will include bibliographic, chemical, 
# crystal, experimental, refinement or atomic coordinate data resulting 
# from the CCDC's data processing and validation procedures.
#
#######################################################################

data_LOTLIP
_symmetry_cell_setting           triclinic
_symmetry_space_group_name_H-M   'P -1'
_symmetry_Int_Tables_number      2
_space_group_name_Hall           '-P 1'
loop_
_symmetry_equiv_pos_site_id
_symmetry_equiv_pos_as_xyz
1 x,y,z
2 -x,-y,-z
_cell_length_a                   9.2898(11)
_cell_length_b                   9.3648(11)
_cell_length_c                   16.2293(19)
_cell_angle_alpha                83.472(2)
_cell_angle_beta                 89.786(2)
_cell_angle_gamma                75.586(2)
_cell_volume                     1358.15
loop_
_atom_site_label
_atom_site_type_symbol
_atom_site_fract_x
_atom_site_fract_y
_atom_site_fract_z
Ag1 Ag 0.02489(4) 0.62662(4) 0.23846(2)
Ag2 Ag 0.36847(4) 0.22604(5) 0.44158(3)
Ag3 Ag 0.52183(4) 0.65617(5) 0.23999(2)
S1 S 0.27406(12) 0.68149(12) 0.17154(7)
S2 S 0.11486(12) 0.40868(11) 0.34534(7)
N1 N -0.0368(4) 0.8755(4) 0.1836(2)
N2 N 0.1566(4) 0.1723(4) 0.4923(2)
N3 N -0.2268(5) 0.5875(5) 0.1217(3)
N4 N 0.5733(5) 0.3393(5) 0.3270(3)
N5 N 0.5238(4) 0.1261(4) 0.6341(2)
O1 O 0.2208(4) 0.3809(3) 0.17306(19)
O2 O -0.1051(5) 0.5430(5) 0.0935(3)
O3 O -0.3415(5) 0.5818(6) 0.0867(3)
O4 O -0.2362(4) 0.6400(5) 0.1906(3)
O5 O 0.4708(4) 0.4407(5) 0.3483(3)
O6 O 0.6622(5) 0.3688(5) 0.2755(3)
O7 O 0.5815(5) 0.2101(5) 0.3570(3)
O8 O 0.6107(5) 0.0794(5) 0.6926(3)
O9 O 0.4206(4) 0.2351(4) 0.6399(3)
O10 O 0.5400(4) 0.0725(4) 0.5687(2)
C1 C -0.1724(6) 0.9541(6) 0.1964(3)
H1 H -0.241(8) 0.895(8) 0.222(4)
C2 C -0.2278(8) 1.1029(7) 0.1637(4)
H2 H -0.316(7) 1.152(8) 0.188(4)
C3 C -0.1412(8) 1.1704(6) 0.1147(4)
H3 H -0.172(5) 1.269(6) 0.099(3)
C4 C 0.0035(6) 1.0909(5) 0.0969(3)
C5 C 0.0941(9) 1.1540(6) 0.0437(4)
H4 H 0.061(6) 1.263(7) 0.014(3)
C6 C 0.2311(9) 1.0757(7) 0.0286(4)
H5 H 0.289(6) 1.124(7) -0.006(4)
C7 C 0.2888(7) 0.9280(7) 0.0687(3)
H6 H 0.388(6) 0.872(6) 0.063(3)
C8 C 0.2018(5) 0.8623(5) 0.1196(3)
C9 C 0.0531(5) 0.9411(5) 0.1344(3)
C10 C 0.1811(6) 0.0590(5) 0.5510(3)
H7 H 0.281(5) 0.000(5) 0.554(3)
C11 C 0.0751(6) 0.0289(6) 0.6067(3)
H8 H 0.103(5) -0.065(5) 0.650(3)
C12 C -0.0608(6) 0.1237(6) 0.6034(3)
H9 H -0.132(5) 0.116(5) 0.641(3)
C13 C -0.0945(5) 0.2470(5) 0.5421(3)
C14 C -0.2365(5) 0.3498(6) 0.5354(3)
H10 H -0.303(5) 0.340(5) 0.571(3)
C15 C -0.2658(5) 0.4640(6) 0.4737(3)
H11 H -0.352(6) 0.520(6) 0.467(3)
C16 C -0.1574(5) 0.4808(5) 0.4150(3)
H12 H -0.183(4) 0.560(5) 0.375(3)
C17 C -0.0210(4) 0.3850(4) 0.4200(3)
C18 C 0.0160(5) 0.2663(4) 0.4854(2)
C19 C 0.1207(6) 0.2562(5) 0.2835(3)
H13 H 0.130(4) 0.176(5) 0.323(3)
H14 H 0.024(6) 0.278(6) 0.247(3)
C20 C 0.2477(6) 0.2462(5) 0.2262(3)
H15 H 0.342(5) 0.232(4) 0.256(3)
H16 H 0.275(7) 0.170(8) 0.194(4)
C21 C 0.3407(6) 0.4048(5) 0.1250(3)
H17 H 0.435(4) 0.381(4) 0.164(2)
H18 H 0.346(5) 0.350(5) 0.081(3)
C22 C 0.2981(6) 0.5649(5) 0.0866(3)
H19 H 0.208(5) 0.589(5) 0.053(3)
H20 H 0.383(6) 0.588(6) 0.052(3)
O4_2 O 0.7638(4) 0.6400(5) 0.1906(3)
O9A O 0.5794(4) 0.7649(4) 0.3601(3)
Ag3_2 Ag -0.47817(4) 0.65617(5) 0.23999(2)
Ag3A Ag 0.47817(4) 0.34383(5) 0.76001(2)
loop_
_geom_bond_atom_site_label_1
_geom_bond_atom_site_label_2
_geom_bond_site_symmetry_1
_geom_bond_site_symmetry_2
Ag1 S1 1_555 1_555
Ag2 S2 1_555 1_555
Ag3 S1 1_555 1_555
S1 C8 1_555 1_555
S2 Ag1 1_555 1_555
N1 Ag1 1_555 1_555
N2 Ag2 1_555 1_555
N3 O2 1_555 1_555
N4 O5 1_555 1_555
N5 O8 1_555 1_555
O1 C20 1_555 1_555
O3 N3 1_555 1_555
O4 Ag1 1_555 1_555
O5 Ag3 1_555 1_555
O6 N4 1_555 1_555
O7 Ag2 1_555 1_555
O9 N5 1_555 1_555
O10 Ag2 1_555 1_555
C1 N1 1_555 1_555
H1 C1 1_555 1_555
C2 C1 1_555 1_555
H2 C2 1_555 1_555
C3 C2 1_555 1_555
H3 C3 1_555 1_555
C4 C3 1_555 1_555
C5 C4 1_555 1_555
H4 C5 1_555 1_555
C6 C5 1_555 1_555
H5 C6 1_555 1_555
C7 C6 1_555 1_555
H6 C7 1_555 1_555
C8 C7 1_555 1_555
C9 N1 1_555 1_555
C10 N2 1_555 1_555
H7 C10 1_555 1_555
C11 C10 1_555 1_555
H8 C11 1_555 1_555
C12 C11 1_555 1_555
H9 C12 1_555 1_555
C13 C12 1_555 1_555
C14 C13 1_555 1_555
H10 C14 1_555 1_555
C15 C14 1_555 1_555
H11 C15 1_555 1_555
C16 C15 1_555 1_555
H12 C16 1_555 1_555
C17 S2 1_555 1_555
C18 N2 1_555 1_555
C19 S2 1_555 1_555
H13 C19 1_555 1_555
H14 C19 1_555 1_555
C20 C19 1_555 1_555
H15 C20 1_555 1_555
H16 C20 1_555 1_555
C21 O1 1_555 1_555
H17 C21 1_555 1_555
H18 C21 1_555 1_555
C22 S1 1_555 1_555
H19 C22 1_555 1_555
H20 C22 1_555 1_555
O4_2 Ag3 1_555 1_555
O9A Ag3 1_555 1_555
Ag3_2 O4 1_555 1_555
Ag3A O9 1_555 1_555
N3 O4 1_555 1_555
N4 O7 1_555 1_555
N5 O10 1_555 1_555
C4 C9 1_555 1_555
C8 C9 1_555 1_555
C13 C18 1_555 1_555
C16 C17 1_555 1_555
C17 C18 1_555 1_555
C21 C22 1_555 1_555

#END
