
#######################################################################
#
#                 Cambridge Crystallographic Data Centre
#                                CCDC 
#
#######################################################################
#
# If this CIF has been generated from an entry in the Cambridge 
# Structural Database, then it will include bibliographic, chemical, 
# crystal, experimental, refinement or atomic coordinate data resulting 
# from the CCDC's data processing and validation procedures.
#
#######################################################################

data_LOTMOY04
_symmetry_cell_setting           monoclinic
_symmetry_space_group_name_H-M   'P 21/n'
_symmetry_Int_Tables_number      14
_space_group_name_Hall           '-P 2yn'
loop_
_symmetry_equiv_pos_site_id
_symmetry_equiv_pos_as_xyz
1 x,y,z
2 1/2-x,1/2+y,1/2-z
3 -x,-y,-z
4 1/2+x,1/2-y,1/2+z
_cell_length_a                   9.37870(10)
_cell_length_b                   15.9582(2)
_cell_length_c                   22.5721(4)
_cell_angle_alpha                90
_cell_angle_beta                 93.0504(5)
_cell_angle_gamma                90
_cell_volume                     3373.52
loop_
_atom_site_label
_atom_site_type_symbol
_atom_site_fract_x
_atom_site_fract_y
_atom_site_fract_z
Cu1 Cu 0.54891(3) 0.66248(2) 0.245092(17)
Cu2 Cu 0.05090(3) 0.50304(2) 0.247159(17)
O1 O 0.4253(2) 0.56211(14) 0.19021(10)
O2 O 0.3793(2) 0.64587(13) 0.29329(10)
O3 O 0.2157(2) 0.49897(13) 0.19702(10)
O4 O 0.1664(2) 0.58524(12) 0.29383(9)
O5 O 0.4508(2) 0.75285(12) 0.19898(9)
O6 O 0.6100(2) 0.78004(13) 0.30139(9)
O7 O 0.3920(2) 0.88733(12) 0.19664(10)
O8 O 0.5479(2) 0.91345(13) 0.29949(10)
O9 O 0.7170(2) 0.66753(13) 0.19633(10)
O10 O 0.6639(2) 0.57960(12) 0.29149(9)
O11 O 0.9264(2) 0.60425(13) 0.18947(10)
O12 O 0.8773(2) 0.52048(14) 0.29276(10)
C1 C 0.3133(3) 0.54948(17) 0.21461(14)
C2 C 0.2847(3) 0.59799(17) 0.27211(13)
C3 C 0.4547(3) 0.82644(18) 0.21939(13)
C4 C 0.5460(3) 0.84077(18) 0.27813(13)
C5 C 0.8133(3) 0.61728(17) 0.21326(14)
C6 C 0.7836(3) 0.56798(17) 0.27051(13)
Cu2_2 Cu 1.05090(3) 0.50304(2) 0.247159(17)
Cu2A Cu 0.44910(3) 1.00304(2) 0.252841(17)
O7A O 0.1080(2) 0.38733(12) 0.30336(10)
O8A O -0.0479(2) 0.41345(13) 0.20051(10)
O11_2 O -0.0736(2) 0.60425(13) 0.18947(10)
O12_2 O -0.1227(2) 0.52048(14) 0.29276(10)
N1 N 0.9569(5) 0.8716(4) 0.1466(2)
H1 H 0.9863 0.8225 0.1297
C7 C 0.8150(6) 0.8963(4) 0.1149(3)
H2 H 0.7674 0.9370 0.1397
H3 H 0.8354 0.9245 0.0778
C8 C 0.7170(8) 0.8282(5) 0.1014(5)
H4 H 0.6926 0.8014 0.1386
H5 H 0.7652 0.7863 0.0778
C9 C 0.5845(9) 0.8542(7) 0.0688(5)
H6 H 0.5213 0.8063 0.0636
H7 H 0.6068 0.8758 0.0302
H8 H 0.5380 0.8974 0.0909
C10 C 1.0705(7) 0.9362(4) 0.1376(3)
H9 H 1.0320 0.9920 0.1453
H10 H 1.1511 0.9263 0.1662
C11 C 1.1226(14) 0.9341(8) 0.0764(5)
H11 H 1.0411 0.9381 0.0475
H12 H 1.1710 0.8807 0.0700
C12 C 1.2247(13) 1.0056(8) 0.0667(6)
H13 H 1.2526 1.0049 0.0260
H14 H 1.3087 0.9993 0.0933
H15 H 1.1781 1.0583 0.0747
C13 C 0.9395(7) 0.8541(5) 0.2112(2)
H16 H 0.9203 0.9073 0.2310
H17 H 0.8554 0.8184 0.2146
C14 C 1.0626(10) 0.8133(5) 0.2433(4)
H18 H 1.1478 0.8486 0.2413
H19 H 1.0822 0.7591 0.2250
C15 C 1.026(2) 0.8009(13) 0.3075(5)
H20 H 1.1003 0.7678 0.3279
H21 H 0.9355 0.7721 0.3088
H22 H 1.0198 0.8551 0.3267
O13 O 0.0256(4) 0.7130(2) 0.10323(17)
O14 O 0.2267(7) 0.7404(4) 0.1087(2)
O15 O 0.0980(7) 0.5823(5) 0.0910(3)
N2 N 0.6610(9) 0.8146(6) 0.4235(8)
H23 H 0.6487 0.8131 0.3828
C16 C 0.6942(13) 0.9041(5) 0.4416(6)
H24 H 0.6102 0.9389 0.4319
H25 H 0.7135 0.9062 0.4846
C17 C 0.8186(18) 0.9397(9) 0.4120(9)
H26 H 0.7998 0.9369 0.3689
H27 H 0.9029 0.9052 0.4220
C18 C 0.851(3) 1.0289(11) 0.4292(9)
H28 H 0.9341 1.0480 0.4093
H29 H 0.8700 1.0323 0.4718
H30 H 0.7698 1.0641 0.4177
C19 C 0.5253(8) 0.7849(7) 0.4486(4)
H31 H 0.5154 0.7249 0.4404
H32 H 0.5345 0.7916 0.4918
C20 C 0.3924(11) 0.8270(14) 0.4267(9)
H33 H 0.3862 0.8252 0.3833
H34 H 0.3962 0.8860 0.4388
C21 C 0.2610(12) 0.7877(13) 0.4495(8)
H35 H 0.1782 0.8214 0.4377
H36 H 0.2703 0.7844 0.4925
H37 H 0.2493 0.7317 0.4332
C22 C 0.7856(10) 0.7579(6) 0.4415(5)
H38 H 0.8733 0.7837 0.4283
H39 H 0.7939 0.7550 0.4849
C23 C 0.7769(16) 0.6723(7) 0.4182(7)
H40 H 0.7587 0.6755 0.3751
H41 H 0.6943 0.6448 0.4346
C24 C 0.9035(19) 0.6184(9) 0.4305(13)
H42 H 0.8837 0.5624 0.4155
H43 H 0.9252 0.6159 0.4730
H44 H 0.9845 0.6416 0.4111
N3? N 1.0248(10) 0.8619(7) 0.1472(4)
H45? H 1.1021 0.8288 0.1399
C25? C 0.8972(9) 0.8251(6) 0.1153(4)
H46? H 0.8893 0.7663 0.1271
H47? H 0.9117 0.8264 0.0727
C26? C 0.7605(11) 0.8681(9) 0.1262(8)
H48? H 0.7717 0.9287 0.1213
H49? H 0.7341 0.8573 0.1669
C27? C 0.6427(14) 0.8356(15) 0.0822(8)
H50? H 0.5563 0.8680 0.0864
H51? H 0.6239 0.7771 0.0905
H52? H 0.6735 0.8412 0.0421
C28? C 1.053(2) 0.9494(9) 0.1229(7)
H53? H 0.9615 0.9741 0.1087
H54? H 1.0925 0.9846 0.1553
C29? C 1.150(3) 0.9507(14) 0.0746(12)
H55? H 1.1055 0.9217 0.0402
H56? H 1.2376 0.9204 0.0870
C30? C 1.188(2) 1.0379(14) 0.0572(12)
H57? H 1.2349 1.0365 0.0199
H58? H 1.2515 1.0624 0.0877
H59? H 1.1016 1.0713 0.0525
C31? C 1.0186(16) 0.8712(8) 0.2136(4)
H60? H 1.0961 0.9081 0.2283
H61? H 0.9280 0.8977 0.2226
C32? C 1.031(3) 0.7906(10) 0.2447(7)
H62? H 0.9392 0.7615 0.2398
H63? H 1.1020 0.7564 0.2254
C33? C 1.072(4) 0.795(2) 0.3082(7)
H64? H 1.1663 0.7712 0.3154
H65? H 1.0037 0.7632 0.3302
H66? H 1.0718 0.8528 0.3210
N4? N 0.6682(13) 0.8216(8) 0.4247(13)
H67? H 0.6587 0.8196 0.3839
C34? C 0.7883(15) 0.8817(9) 0.4409(9)
H68? H 0.8065 0.8798 0.4841
H69? H 0.8746 0.8613 0.4230
C35? C 0.767(3) 0.9681(10) 0.4237(15)
H70? H 0.6736 0.9860 0.4366
H71? H 0.7634 0.9710 0.3803
C36? C 0.876(6) 1.0291(19) 0.447(2)
C37? C 0.5275(11) 0.8505(9) 0.4463(6)
H72? H 0.5358 0.8545 0.4897
H73? H 0.5075 0.9069 0.4308
C38? C 0.4038(16) 0.7947(18) 0.429(2)
H74? H 0.3949 0.7898 0.3855
H75? H 0.4210 0.7386 0.4454
C39? C 0.2679(19) 0.829(4) 0.451(3)
C40? C 0.7044(17) 0.7339(8) 0.4460(9)
H76? H 0.7162 0.7346 0.4894
H77? H 0.6239 0.6969 0.4350
C41? C 0.8347(16) 0.6985(11) 0.4220(13)
H78? H 0.9182 0.7256 0.4417
H79? H 0.8351 0.7117 0.3796
C42? C 0.848(4) 0.6064(14) 0.430(2)
N5? N 0.639(3) 0.828(2) 0.4156(18)
H80? H 0.6671 0.8256 0.3772
C43? C 0.666(4) 0.917(2) 0.434(2)
H81? H 0.5829 0.9508 0.4217
H82? H 0.6754 0.9189 0.4778
C44? C 0.796(4) 0.955(2) 0.4103(13)
H83? H 0.7859 0.9540 0.3669
H84? H 0.8790 0.9207 0.4226
C45? C 0.821(3) 1.043(2) 0.431(3)
H85? H 0.9130 1.0617 0.4187
H86? H 0.8185 1.0452 0.4736
H87? H 0.7464 1.0788 0.4131
C46? C 0.484(3) 0.805(3) 0.4112(18)
H88? H 0.4420 0.8280 0.3739
H89? H 0.4762 0.7442 0.4090
C47? C 0.398(4) 0.835(5) 0.460(2)
H90? H 0.4242 0.8935 0.4692
H91? H 0.4227 0.8016 0.4956
C48? C 0.242(3) 0.830(5) 0.447(3)
H92? H 0.1936 0.8235 0.4831
H93? H 0.2210 0.7827 0.4208
H94? H 0.2096 0.8813 0.4269
C49? C 0.732(5) 0.766(2) 0.449(2)
H95? H 0.8315 0.7842 0.4471
H96? H 0.7082 0.7667 0.4905
C50? C 0.721(5) 0.679(2) 0.427(2)
H97? H 0.7201 0.6795 0.3838
H98? H 0.6303 0.6554 0.4386
C51? C 0.838(7) 0.623(3) 0.450(2)
H99? H 0.8176 0.5657 0.4367
H100? H 0.8454 0.6246 0.4926
H101? H 0.9276 0.6408 0.4342
O16? O 0.3177(5) 0.6861(3) 0.09593(19)
O17? O 0.201(9) 0.5186(18) 0.0842(14)
loop_
_geom_bond_atom_site_label_1
_geom_bond_atom_site_label_2
_geom_bond_site_symmetry_1
_geom_bond_site_symmetry_2
Cu1 O1 1_555 1_555
Cu2 O3 1_555 1_555
O1 C1 1_555 1_555
O2 Cu1 1_555 1_555
O3 C1 1_555 1_555
O4 Cu2 1_555 1_555
O5 Cu1 1_555 1_555
O6 Cu1 1_555 1_555
O7 C3 1_555 1_555
O8 C4 1_555 1_555
O9 Cu1 1_555 1_555
O10 Cu1 1_555 1_555
O11 C5 1_555 1_555
O12 C6 1_555 1_555
C1 C2 1_555 1_555
C2 O2 1_555 1_555
C3 O5 1_555 1_555
C4 O6 1_555 1_555
C5 O9 1_555 1_555
C6 O10 1_555 1_555
N1 H1 1_555 1_555
C7 N1 1_555 1_555
H2 C7 1_555 1_555
H3 C7 1_555 1_555
C8 C7 1_555 1_555
H4 C8 1_555 1_555
H5 C8 1_555 1_555
C9 C8 1_555 1_555
H6 C9 1_555 1_555
H7 C9 1_555 1_555
H8 C9 1_555 1_555
C10 N1 1_555 1_555
H9 C10 1_555 1_555
H10 C10 1_555 1_555
C11 C10 1_555 1_555
H11 C11 1_555 1_555
H12 C11 1_555 1_555
C12 C11 1_555 1_555
H13 C12 1_555 1_555
H14 C12 1_555 1_555
H15 C12 1_555 1_555
C13 N1 1_555 1_555
H16 C13 1_555 1_555
H17 C13 1_555 1_555
C14 C13 1_555 1_555
H18 C14 1_555 1_555
H19 C14 1_555 1_555
C15 C14 1_555 1_555
H20 C15 1_555 1_555
H21 C15 1_555 1_555
H22 C15 1_555 1_555
N2 H23 1_555 1_555
C16 N2 1_555 1_555
H24 C16 1_555 1_555
H25 C16 1_555 1_555
C17 C16 1_555 1_555
H26 C17 1_555 1_555
H27 C17 1_555 1_555
C18 C17 1_555 1_555
H28 C18 1_555 1_555
H29 C18 1_555 1_555
H30 C18 1_555 1_555
C19 N2 1_555 1_555
H31 C19 1_555 1_555
H32 C19 1_555 1_555
C20 C19 1_555 1_555
H33 C20 1_555 1_555
H34 C20 1_555 1_555
C21 C20 1_555 1_555
H35 C21 1_555 1_555
H36 C21 1_555 1_555
H37 C21 1_555 1_555
C22 N2 1_555 1_555
H38 C22 1_555 1_555
H39 C22 1_555 1_555
C23 C22 1_555 1_555
H40 C23 1_555 1_555
H41 C23 1_555 1_555
C24 C23 1_555 1_555
H42 C24 1_555 1_555
H43 C24 1_555 1_555
H44 C24 1_555 1_555
Cu2_2 O11 1_555 1_555
Cu2A O7 1_555 1_555
O7A Cu2 1_555 1_555
O8A Cu2 1_555 1_555
O11_2 Cu2 1_555 1_555
O12_2 Cu2 1_555 1_555
O4 C2 1_555 1_555
O8 Cu2A 1_555 1_555
O12 Cu2_2 1_555 1_555
C3 C4 1_555 1_555
C5 C6 1_555 1_555

#END
