
#######################################################################
#
#                 Cambridge Crystallographic Data Centre
#                                CCDC 
#
#######################################################################
#
# If this CIF has been generated from an entry in the Cambridge 
# Structural Database, then it will include bibliographic, chemical, 
# crystal, experimental, refinement or atomic coordinate data resulting 
# from the CCDC's data processing and validation procedures.
#
#######################################################################

data_LOTMOY01
_symmetry_cell_setting           monoclinic
_symmetry_space_group_name_H-M   'P 21/n'
_symmetry_Int_Tables_number      14
_space_group_name_Hall           '-P 2yn'
loop_
_symmetry_equiv_pos_site_id
_symmetry_equiv_pos_as_xyz
1 x,y,z
2 1/2-x,1/2+y,1/2-z
3 -x,-y,-z
4 1/2+x,1/2-y,1/2+z
_cell_length_a                   9.3963(2)
_cell_length_b                   15.7906(2)
_cell_length_c                   22.1918(4)
_cell_angle_alpha                90
_cell_angle_beta                 93.2854(6)
_cell_angle_gamma                90
_cell_volume                     3287.26
loop_
_atom_site_label
_atom_site_type_symbol
_atom_site_fract_x
_atom_site_fract_y
_atom_site_fract_z
Cu1 Cu 0.55626(3) 0.66290(2) 0.244356(16)
Cu2 Cu 0.05932(3) 0.50449(2) 0.250287(16)
O1 O 0.4338(2) 0.55912(12) 0.19128(9)
O2 O 0.38876(18) 0.64923(11) 0.29446(8)
O3 O 0.22386(19) 0.49627(11) 0.19990(9)
O4 O 0.17618(18) 0.58813(11) 0.29651(8)
O5 O 0.45607(18) 0.75163(11) 0.19560(9)
O6 O 0.6174(2) 0.78296(12) 0.29932(10)
O7 O 0.39042(19) 0.88721(11) 0.19237(9)
O8 O 0.5436(2) 0.91626(12) 0.29786(10)
O9 O 0.7238(2) 0.66744(13) 0.19512(11)
O10 O 0.67201(18) 0.58169(12) 0.29343(9)
O11 O 0.93766(19) 0.60683(12) 0.19095(10)
O12 O 0.88752(19) 0.52394(12) 0.29640(10)
C1 C 0.3219(3) 0.54735(15) 0.21645(12)
C2 C 0.2943(2) 0.60026(15) 0.27373(11)
C3 C 0.4565(2) 0.82668(16) 0.21615(13)
C4 C 0.5473(3) 0.84326(17) 0.27609(14)
C5 C 0.8215(3) 0.61829(16) 0.21422(14)
C6 C 0.7926(3) 0.57034(17) 0.27276(14)
Cu2_2 Cu 1.05932(3) 0.50449(2) 0.250287(16)
Cu2A Cu 0.44068(3) 1.00449(2) 0.249713(16)
O7A O 0.10958(19) 0.38721(11) 0.30763(9)
O8A O -0.0436(2) 0.41626(12) 0.20214(10)
O11_2 O -0.06234(19) 0.60683(12) 0.19095(10)
O12_2 O -0.11248(19) 0.52394(12) 0.29640(10)
N1 N 0.9525(5) 0.8755(3) 0.14428(19)
H1 H 0.9857 0.8251 0.1287
C7 C 0.8130(6) 0.8996(4) 0.1111(2)
H2 H 0.7671 0.9449 0.1339
H3 H 0.8334 0.9229 0.0711
C8 C 0.7111(7) 0.8275(5) 0.1024(3)
H4 H 0.6871 0.8053 0.1423
H5 H 0.7570 0.7814 0.0803
C9 C 0.5764(7) 0.8545(6) 0.0675(4)
H6 H 0.5120 0.8059 0.0623
H7 H 0.5998 0.8759 0.0278
H8 H 0.5297 0.8994 0.0897
C10 C 1.0606(14) 0.9431(9) 0.1378(5)
H9 H 1.1436 0.9324 0.1663
H10 H 1.0192 0.9986 0.1481
C11 C 1.1095(19) 0.9462(8) 0.0742(6)
H11 H 1.0274 0.9400 0.0445
H12 H 1.1785 0.9003 0.0676
C12 C 1.1794(9) 1.0325(4) 0.0679(3)
H13 H 1.2117 1.0388 0.0270
H14 H 1.2613 1.0371 0.0972
H15 H 1.1103 1.0771 0.0757
C13 C 0.9315(8) 0.8647(5) 0.2114(3)
H16 H 0.9232 0.9212 0.2302
H17 H 0.8413 0.8338 0.2166
C14 C 1.0516(10) 0.8175(7) 0.2429(4)
H18 H 1.1423 0.8474 0.2370
H19 H 1.0581 0.7602 0.2252
C15 C 1.0293(17) 0.8101(9) 0.3101(4)
H20 H 1.1075 0.7773 0.3297
H21 H 0.9386 0.7815 0.3159
H22 H 1.0275 0.8668 0.3280
N4 N 0.6717(7) 0.8196(4) 0.4283(6)
H67 H 0.6637 0.8171 0.3863
C34 C 0.7933(6) 0.8780(3) 0.4458(3)
H68 H 0.7997 0.8836 0.4903
H69 H 0.8829 0.8514 0.4339
C35 C 0.7833(14) 0.9645(6) 0.4189(8)
H70 H 0.6977 0.9937 0.4327
H71 H 0.7735 0.9601 0.3743
C36 C 0.9171(8) 1.0162(4) 0.4376(3)
C37 C 0.5340(5) 0.8547(4) 0.4492(3)
H72 H 0.5159 0.9102 0.4295
H73 H 0.5454 0.8648 0.4933
C38 C 0.4055(8) 0.7989(8) 0.4365(9)
H74 H 0.4150 0.7464 0.4608
H75 H 0.3981 0.7830 0.3933
C39 C 0.2713(8) 0.8474(6) 0.4527(4)
C40 C 0.7013(6) 0.7316(4) 0.4512(3)
H76 H 0.6173 0.6956 0.4406
H77 H 0.7138 0.7335 0.4958
C41 C 0.8328(8) 0.6906(4) 0.4264(5)
H78 H 0.9200 0.7188 0.4435
H79 H 0.8298 0.6969 0.3819
C42 C 0.8358(11) 0.5959(5) 0.4432(5)
O13 O 0.0228(4) 0.7135(2) 0.10361(16)
O14 O 0.2245(4) 0.7386(3) 0.11134(18)
O16 O 0.1087(5) 0.5763(3) 0.0910(2)
N2? N 1.0065(6) 0.8456(4) 0.1503(2)
H23? H 1.0793 0.8071 0.1445
C16? C 0.8855(6) 0.8172(4) 0.1085(3)
H24? H 0.9148 0.8210 0.0665
H25? H 0.8647 0.7570 0.1169
C17? C 0.7530(8) 0.8677(6) 0.1141(4)
H26? H 0.7716 0.9277 0.1042
H27? H 0.7238 0.8652 0.1562
C18? C 0.6329(10) 0.8333(9) 0.0715(5)
H28? H 0.5462 0.8666 0.0761
H29? H 0.6148 0.7740 0.0813
H30? H 0.6609 0.8375 0.0297
C19? C 1.066(2) 0.9296(10) 0.1336(6)
H31? H 1.1411 0.9465 0.1645
H32? H 0.9897 0.9727 0.1332
C20? C 1.129(2) 0.9276(10) 0.0726(8)
H33? H 1.0505 0.9309 0.0410
H34? H 1.1778 0.8726 0.0679
C21? C 1.2350(10) 0.9986(6) 0.0619(4)
H35? H 1.2760 0.9903 0.0227
H36? H 1.3113 0.9977 0.0939
H37? H 1.1857 1.0532 0.0622
C22? C 0.9718(9) 0.8341(6) 0.2146(3)
H38? H 0.9396 0.8889 0.2306
H39? H 0.8917 0.7935 0.2163
C23? C 1.0926(12) 0.8029(9) 0.2534(5)
H40? H 1.1701 0.8455 0.2545
H41? H 1.1295 0.7501 0.2360
C24? C 1.051(2) 0.7856(9) 0.3173(5)
H42? H 1.1347 0.7656 0.3417
H43? H 0.9765 0.7422 0.3166
H44? H 1.0153 0.8378 0.3349
N3? N 0.6661(11) 0.8100(7) 0.4195(10)
H45? H 0.6566 0.8084 0.3776
C25? C 0.6882(10) 0.9009(6) 0.4389(5)
H46? H 0.7019 0.9032 0.4834
H47? H 0.6017 0.9340 0.4269
C26? C 0.8154(17) 0.9408(8) 0.4114(11)
H48? H 0.8065 0.9342 0.3670
H49? H 0.9036 0.9115 0.4265
C27? C 0.826(2) 1.0350(9) 0.4275(13)
H50? H 0.9088 1.0598 0.4093
H51? H 0.8358 1.0414 0.4714
H52? H 0.7391 1.0641 0.4119
C28? C 0.5334(8) 0.7724(6) 0.4438(4)
H53? H 0.5236 0.7132 0.4294
H54? H 0.5453 0.7708 0.4884
C29? C 0.3982(12) 0.8194(15) 0.4261(14)
H55? H 0.3886 0.8252 0.3816
H56? H 0.4027 0.8770 0.4438
C30? C 0.2686(10) 0.7728(10) 0.4480(6)
H57? H 0.1821 0.8052 0.4368
H58? H 0.2784 0.7667 0.4920
H59? H 0.2619 0.7167 0.4292
C31? C 0.7939(10) 0.7564(6) 0.4399(4)
H60? H 0.8807 0.7817 0.4242
H61? H 0.8048 0.7575 0.4845
C32? C 0.7818(15) 0.6659(8) 0.4192(7)
H62? H 0.7511 0.6649 0.3758
H63? H 0.7074 0.6372 0.4415
C33? C 0.9199(13) 0.6175(7) 0.4285(5)
H64? H 0.9061 0.5593 0.4141
H65? H 0.9496 0.6169 0.4716
H66? H 0.9937 0.6450 0.4059
N5? N 0.6250(12) 0.8489(8) 0.4041(7)
H80? H 0.6489 0.8457 0.3641
C43? C 0.6519(15) 0.9386(9) 0.4234(7)
H81? H 0.6477 0.9424 0.4678
H82? H 0.5755 0.9750 0.4050
C44? C 0.795(3) 0.9714(14) 0.4055(19)
H83? H 0.7993 0.9687 0.3610
H84? H 0.8720 0.9352 0.4236
C45? C 0.817(3) 1.0620(12) 0.4266(17)
H85? H 0.9101 1.0823 0.4146
H86? H 0.8145 1.0644 0.4706
H87? H 0.7416 1.0979 0.4081
C46? C 0.4703(12) 0.8262(11) 0.4043(6)
H88? H 0.4567 0.7695 0.3859
H89? H 0.4152 0.8671 0.3784
C47? C 0.4097(17) 0.825(2) 0.4657(8)
H90? H 0.4271 0.8806 0.4858
H91? H 0.4570 0.7808 0.4910
C48? C 0.2488(17) 0.8081(19) 0.4587(12)
H92? H 0.2113 0.8005 0.4986
H93? H 0.2316 0.7566 0.4347
H94? H 0.2009 0.8561 0.4382
C49? C 0.7200(16) 0.7872(10) 0.4382(9)
H95? H 0.8204 0.8037 0.4334
H96? H 0.7023 0.7913 0.4816
C50? C 0.701(2) 0.6972(9) 0.4186(9)
H97? H 0.6912 0.6951 0.3740
H98? H 0.6108 0.6754 0.4340
C51? C 0.822(3) 0.6398(13) 0.4406(10)
H99? H 0.8015 0.5816 0.4276
H100? H 0.8329 0.6419 0.4847
H101? H 0.9106 0.6589 0.4236
O15? O 0.3090(4) 0.6823(3) 0.09338(18)
O17? O 0.138(2) 0.5311(11) 0.0834(9)
loop_
_geom_bond_atom_site_label_1
_geom_bond_atom_site_label_2
_geom_bond_site_symmetry_1
_geom_bond_site_symmetry_2
Cu1 O1 1_555 1_555
Cu2 O3 1_555 1_555
O1 C1 1_555 1_555
O2 Cu1 1_555 1_555
O3 C1 1_555 1_555
O4 Cu2 1_555 1_555
O5 Cu1 1_555 1_555
O6 Cu1 1_555 1_555
O7 C3 1_555 1_555
O8 C4 1_555 1_555
O9 Cu1 1_555 1_555
O10 Cu1 1_555 1_555
O11 C5 1_555 1_555
O12 C6 1_555 1_555
C1 C2 1_555 1_555
C2 O2 1_555 1_555
C3 O5 1_555 1_555
C4 O6 1_555 1_555
C5 O9 1_555 1_555
C6 O10 1_555 1_555
N1 H1 1_555 1_555
C7 N1 1_555 1_555
H2 C7 1_555 1_555
H3 C7 1_555 1_555
C8 C7 1_555 1_555
H4 C8 1_555 1_555
H5 C8 1_555 1_555
C9 C8 1_555 1_555
H6 C9 1_555 1_555
H7 C9 1_555 1_555
H8 C9 1_555 1_555
C10 N1 1_555 1_555
H9 C10 1_555 1_555
H10 C10 1_555 1_555
C11 C10 1_555 1_555
H11 C11 1_555 1_555
H12 C11 1_555 1_555
C12 C11 1_555 1_555
H13 C12 1_555 1_555
H14 C12 1_555 1_555
H15 C12 1_555 1_555
C13 N1 1_555 1_555
H16 C13 1_555 1_555
H17 C13 1_555 1_555
C14 C13 1_555 1_555
H18 C14 1_555 1_555
H19 C14 1_555 1_555
C15 C14 1_555 1_555
H20 C15 1_555 1_555
H21 C15 1_555 1_555
H22 C15 1_555 1_555
N4 H67 1_555 1_555
C34 N4 1_555 1_555
H68 C34 1_555 1_555
H69 C34 1_555 1_555
C35 C34 1_555 1_555
H70 C35 1_555 1_555
H71 C35 1_555 1_555
C36 C35 1_555 1_555
C37 N4 1_555 1_555
H72 C37 1_555 1_555
H73 C37 1_555 1_555
C38 C37 1_555 1_555
H74 C38 1_555 1_555
H75 C38 1_555 1_555
C39 C38 1_555 1_555
C40 N4 1_555 1_555
H76 C40 1_555 1_555
H77 C40 1_555 1_555
C41 C40 1_555 1_555
H78 C41 1_555 1_555
H79 C41 1_555 1_555
C42 C41 1_555 1_555
Cu2_2 O11 1_555 1_555
Cu2A O7 1_555 1_555
O7A Cu2 1_555 1_555
O8A Cu2 1_555 1_555
O11_2 Cu2 1_555 1_555
O12_2 Cu2 1_555 1_555
O4 C2 1_555 1_555
O8 Cu2A 1_555 1_555
O12 Cu2_2 1_555 1_555
C3 C4 1_555 1_555
C5 C6 1_555 1_555

#END
