
#######################################################################
#
#                 Cambridge Crystallographic Data Centre
#                                CCDC 
#
#######################################################################
#
# If this CIF has been generated from an entry in the Cambridge 
# Structural Database, then it will include bibliographic, chemical, 
# crystal, experimental, refinement or atomic coordinate data resulting 
# from the CCDC's data processing and validation procedures.
#
#######################################################################

data_LOTMOY
_symmetry_cell_setting           monoclinic
_symmetry_space_group_name_H-M   'P 21/n'
_symmetry_Int_Tables_number      14
_space_group_name_Hall           '-P 2yn'
loop_
_symmetry_equiv_pos_site_id
_symmetry_equiv_pos_as_xyz
1 x,y,z
2 1/2-x,1/2+y,1/2-z
3 -x,-y,-z
4 1/2+x,1/2-y,1/2+z
_cell_length_a                   9.36960(10)
_cell_length_b                   16.0340(2)
_cell_length_c                   22.7991(4)
_cell_angle_alpha                90
_cell_angle_beta                 92.9561(5)
_cell_angle_gamma                90
_cell_volume                     3420.6
loop_
_atom_site_label
_atom_site_type_symbol
_atom_site_fract_x
_atom_site_fract_y
_atom_site_fract_z
Cu1 Cu 0.54594(4) 0.66665(3) 0.24510(2)
Cu2 Cu 0.04787(4) 0.50612(3) 0.24709(2)
O1 O 0.4220(3) 0.56723(17) 0.19041(13)
O2 O 0.3750(2) 0.64980(16) 0.29249(12)
O3 O 0.2133(3) 0.50355(16) 0.19745(13)
O4 O 0.1631(2) 0.58810(16) 0.29339(11)
O5 O 0.4500(3) 0.75686(15) 0.19937(11)
O6 O 0.6071(3) 0.78307(16) 0.30109(12)
O7 O 0.3934(3) 0.89108(16) 0.19690(11)
O8 O 0.5495(3) 0.91577(16) 0.29881(12)
O9 O 0.7148(3) 0.67129(15) 0.19677(12)
O10 O 0.6607(2) 0.58365(16) 0.29097(12)
O11 O 0.9236(3) 0.60694(16) 0.18980(12)
O12 O 0.8729(3) 0.52332(17) 0.29155(12)
C1 C 0.3103(4) 0.5535(2) 0.21458(17)
C2 C 0.2810(4) 0.6012(2) 0.27143(17)
C3 C 0.4549(3) 0.8305(2) 0.21969(16)
C4 C 0.5457(3) 0.8439(2) 0.27772(17)
C5 C 0.8107(4) 0.6203(2) 0.21333(17)
C6 C 0.7796(4) 0.5712(2) 0.27032(16)
Cu2_2 Cu 1.04787(4) 0.50612(3) 0.24709(2)
Cu2A Cu 0.45213(4) 1.00612(3) 0.25291(2)
O7A O 0.1066(3) 0.39108(16) 0.30310(11)
O8A O -0.0495(3) 0.41577(16) 0.20119(12)
O11_2 O -0.0764(3) 0.60694(16) 0.18980(12)
O12_2 O -0.1271(3) 0.52332(17) 0.29155(12)
N1 N 0.9691(5) 0.8712(3) 0.14685(18)
H1 H 1.0003 0.8231 0.1307
C7 C 0.8091(9) 0.8940(7) 0.1205(5)
H2 H 0.7629 0.9247 0.1509
H3 H 0.8207 0.9328 0.0884
C8 C 0.7238(12) 0.8410(8) 0.1023(5)
H4 H 0.6999 0.8095 0.1368
H5 H 0.7789 0.8035 0.0789
C9 C 0.5977(10) 0.8516(7) 0.0709(4)
H6 H 0.5464 0.7998 0.0692
H7 H 0.6161 0.8695 0.0318
H8 H 0.5417 0.8930 0.0896
C10 C 1.0649(6) 0.9413(4) 0.1337(3)
H9 H 1.0107 0.9926 0.1363
H10 H 1.1406 0.9432 0.1643
C11 C 1.1290(8) 0.9409(5) 0.0792(3)
H11 H 1.0553 0.9322 0.0483
H12 H 1.1946 0.8942 0.0783
C12 C 1.2081(10) 1.0189(6) 0.0664(3)
H13 H 1.2351 1.0181 0.0264
H14 H 1.2922 1.0226 0.0922
H15 H 1.1478 1.0662 0.0725
C13 C 0.9627(10) 0.8621(5) 0.2123(3)
H16 H 0.9743 0.9175 0.2290
H17 H 0.8666 0.8442 0.2199
C14 C 1.0505(7) 0.8129(5) 0.2426(2)
H18 H 1.1466 0.8303 0.2344
H19 H 1.0378 0.7574 0.2261
C15 C 1.0472(9) 0.8041(5) 0.3057(3)
H20 H 1.1267 0.7707 0.3199
H21 H 0.9596 0.7776 0.3154
H22 H 1.0531 0.8582 0.3237
N2 N 0.6572(5) 0.8197(3) 0.4221(2)
H23 H 0.6486 0.8183 0.3821
C16 C 0.7076(14) 0.9021(6) 0.4402(4)
H24 H 0.6233 0.9369 0.4421
H25 H 0.7467 0.8962 0.4802
C17 C 0.8014(10) 0.9459(6) 0.4121(4)
H26 H 0.7626 0.9516 0.3720
H27 H 0.8860 0.9113 0.4103
C18 C 0.8540(11) 1.0331(6) 0.4312(4)
H28 H 0.9363 1.0477 0.4100
H29 H 0.8792 1.0328 0.4726
H30 H 0.7795 1.0731 0.4230
C19 C 0.5174(11) 0.8101(10) 0.4444(4)
H31 H 0.5222 0.7555 0.4626
H32 H 0.5186 0.8493 0.4768
C20 C 0.3976(10) 0.8137(9) 0.4250(5)
H33 H 0.3960 0.7748 0.3924
H34 H 0.3918 0.8686 0.4072
C21 C 0.2566(10) 0.8029(9) 0.4490(4)
H35 H 0.1913 0.8430 0.4315
H36 H 0.2640 0.8111 0.4908
H37 H 0.2221 0.7477 0.4405
C22 C 0.7544(12) 0.7523(6) 0.4423(3)
H38 H 0.8452 0.7799 0.4507
H39 H 0.7205 0.7362 0.4802
C23 C 0.7872(14) 0.6840(8) 0.4185(4)
H40 H 0.8153 0.7011 0.3800
H41 H 0.6955 0.6567 0.4116
C24 C 0.8786(11) 0.6181(6) 0.4321(4)
H42 H 0.8414 0.5681 0.4139
H43 H 0.8867 0.6106 0.4739
H44 H 0.9712 0.6299 0.4179
O13 O 0.0249(5) 0.7146(3) 0.1038(2)
O14 O 0.2251(12) 0.7435(6) 0.1085(4)
O15 O 0.0942(11) 0.5856(9) 0.0913(4)
H45? H 1.0431 0.8345 0.1464
C25? C 0.894(2) 0.8253(11) 0.1157(9)
H46? H 0.9037 0.7699 0.1325
H47? H 0.9371 0.8232 0.0779
H48? H 0.6912 0.7972 0.1277
H49? H 0.7172 0.8909 0.1261
O16? O 0.3200(6) 0.6899(4) 0.0965(2)
O17? O 0.230(8) 0.514(3) 0.0792(13)
loop_
_geom_bond_atom_site_label_1
_geom_bond_atom_site_label_2
_geom_bond_site_symmetry_1
_geom_bond_site_symmetry_2
Cu1 O1 1_555 1_555
Cu2 O3 1_555 1_555
O1 C1 1_555 1_555
O2 Cu1 1_555 1_555
O3 C1 1_555 1_555
O4 Cu2 1_555 1_555
O5 Cu1 1_555 1_555
O6 Cu1 1_555 1_555
O7 C3 1_555 1_555
O8 C4 1_555 1_555
O9 Cu1 1_555 1_555
O10 Cu1 1_555 1_555
O11 C5 1_555 1_555
O12 C6 1_555 1_555
C1 C2 1_555 1_555
C2 O2 1_555 1_555
C3 O5 1_555 1_555
C4 O6 1_555 1_555
C5 O9 1_555 1_555
C6 O10 1_555 1_555
N1 H1 1_555 1_555
C7 N1 1_555 1_555
H2 C7 1_555 1_555
H3 C7 1_555 1_555
C8 C7 1_555 1_555
H4 C8 1_555 1_555
H5 C8 1_555 1_555
C9 C8 1_555 1_555
H6 C9 1_555 1_555
H7 C9 1_555 1_555
H8 C9 1_555 1_555
C10 N1 1_555 1_555
H9 C10 1_555 1_555
H10 C10 1_555 1_555
C11 C10 1_555 1_555
H11 C11 1_555 1_555
H12 C11 1_555 1_555
C12 C11 1_555 1_555
H13 C12 1_555 1_555
H14 C12 1_555 1_555
H15 C12 1_555 1_555
C13 N1 1_555 1_555
H16 C13 1_555 1_555
H17 C13 1_555 1_555
C14 C13 1_555 1_555
H18 C14 1_555 1_555
H19 C14 1_555 1_555
C15 C14 1_555 1_555
H20 C15 1_555 1_555
H21 C15 1_555 1_555
H22 C15 1_555 1_555
N2 H23 1_555 1_555
C16 N2 1_555 1_555
H24 C16 1_555 1_555
H25 C16 1_555 1_555
C17 C16 1_555 1_555
H26 C17 1_555 1_555
H27 C17 1_555 1_555
C18 C17 1_555 1_555
H28 C18 1_555 1_555
H29 C18 1_555 1_555
H30 C18 1_555 1_555
C19 N2 1_555 1_555
H31 C19 1_555 1_555
H32 C19 1_555 1_555
C20 C19 1_555 1_555
H33 C20 1_555 1_555
H34 C20 1_555 1_555
C21 C20 1_555 1_555
H35 C21 1_555 1_555
H36 C21 1_555 1_555
H37 C21 1_555 1_555
C22 N2 1_555 1_555
H38 C22 1_555 1_555
H39 C22 1_555 1_555
C23 C22 1_555 1_555
H40 C23 1_555 1_555
H41 C23 1_555 1_555
C24 C23 1_555 1_555
H42 C24 1_555 1_555
H43 C24 1_555 1_555
H44 C24 1_555 1_555
Cu2_2 O11 1_555 1_555
Cu2A O7 1_555 1_555
O7A Cu2 1_555 1_555
O8A Cu2 1_555 1_555
O11_2 Cu2 1_555 1_555
O12_2 Cu2 1_555 1_555
O4 C2 1_555 1_555
O8 Cu2A 1_555 1_555
O12 Cu2_2 1_555 1_555
C3 C4 1_555 1_555
C5 C6 1_555 1_555

#END
