
#######################################################################
#
#                 Cambridge Crystallographic Data Centre
#                                CCDC 
#
#######################################################################
#
# If this CIF has been generated from an entry in the Cambridge 
# Structural Database, then it will include bibliographic, chemical, 
# crystal, experimental, refinement or atomic coordinate data resulting 
# from the CCDC's data processing and validation procedures.
#
#######################################################################

data_LOTMOY02
_symmetry_cell_setting           monoclinic
_symmetry_space_group_name_H-M   'P 21/n'
_symmetry_Int_Tables_number      14
_space_group_name_Hall           '-P 2yn'
loop_
_symmetry_equiv_pos_site_id
_symmetry_equiv_pos_as_xyz
1 x,y,z
2 1/2-x,1/2+y,1/2-z
3 -x,-y,-z
4 1/2+x,1/2-y,1/2+z
_cell_length_a                   9.3957(2)
_cell_length_b                   15.8261(2)
_cell_length_c                   22.2735(4)
_cell_angle_alpha                90
_cell_angle_beta                 93.3334(6)
_cell_angle_gamma                90
_cell_volume                     3306.41
loop_
_atom_site_label
_atom_site_type_symbol
_atom_site_fract_x
_atom_site_fract_y
_atom_site_fract_z
Cu1 Cu 0.55454(3) 0.66232(2) 0.244586(17)
Cu2 Cu 0.05730(3) 0.50378(2) 0.249369(18)
O1 O 0.4314(2) 0.55963(13) 0.19104(10)
O2 O 0.3868(2) 0.64790(12) 0.29416(9)
O3 O 0.2218(2) 0.49664(12) 0.19900(10)
O4 O 0.1737(2) 0.58707(12) 0.29565(9)
O5 O 0.4547(2) 0.75156(12) 0.19657(10)
O6 O 0.6158(2) 0.78192(13) 0.29990(11)
O7 O 0.3906(2) 0.88687(12) 0.19348(10)
O8 O 0.5452(2) 0.91525(13) 0.29845(11)
O9 O 0.7216(2) 0.66711(14) 0.19533(11)
O10 O 0.6705(2) 0.58058(13) 0.29307(10)
O11 O 0.9346(2) 0.60588(13) 0.19045(11)
O12 O 0.8853(2) 0.52256(13) 0.29542(10)
C1 C 0.3197(3) 0.54759(17) 0.21594(13)
C2 C 0.2923(3) 0.59948(17) 0.27316(13)
C3 C 0.4561(3) 0.82618(18) 0.21698(14)
C4 C 0.5470(3) 0.84211(19) 0.27666(15)
C5 C 0.8191(3) 0.61782(17) 0.21402(15)
C6 C 0.7909(3) 0.56933(18) 0.27221(15)
Cu2_2 Cu 1.05730(3) 0.50378(2) 0.249369(18)
Cu2A Cu 0.44270(3) 1.00378(2) 0.250631(18)
O7A O 0.1094(2) 0.38687(12) 0.30652(10)
O8A O -0.0452(2) 0.41525(13) 0.20155(11)
O11_2 O -0.0654(2) 0.60588(13) 0.19045(11)
O12_2 O -0.1147(2) 0.52256(13) 0.29542(10)
N1 N 0.9535(5) 0.8749(3) 0.1443(2)
H1 H 0.9821 0.8233 0.1289
C7 C 0.8133(6) 0.8990(4) 0.1115(3)
H2 H 0.7676 0.9439 0.1346
H3 H 0.8334 0.9228 0.0718
C8 C 0.7117(7) 0.8281(5) 0.1023(4)
H4 H 0.6880 0.8054 0.1419
H5 H 0.7575 0.7823 0.0800
C9 C 0.5772(8) 0.8547(5) 0.0680(4)
H6 H 0.5131 0.8061 0.0628
H7 H 0.6001 0.8763 0.0285
H8 H 0.5305 0.8992 0.0903
C10 C 1.0687(11) 0.9379(7) 0.1345(4)
H9 H 1.1460 0.9306 0.1662
H10 H 1.0294 0.9955 0.1385
C11 C 1.1307(15) 0.9299(7) 0.0737(6)
H11 H 1.0526 0.9301 0.0419
H12 H 1.1822 0.8755 0.0715
C12 C 1.2321(9) 1.0020(6) 0.0632(4)
H13 H 1.2597 1.0005 0.0214
H14 H 1.3173 0.9963 0.0904
H15 H 1.1849 1.0558 0.0708
C13 C 0.9328(8) 0.8629(5) 0.2106(3)
H16 H 0.9245 0.9190 0.2297
H17 H 0.8423 0.8322 0.2153
C14 C 1.0513(11) 0.8153(8) 0.2421(4)
H18 H 1.1427 0.8437 0.2350
H19 H 1.0551 0.7576 0.2250
C15 C 1.035(2) 0.8091(10) 0.3084(5)
H20 H 1.1128 0.7752 0.3269
H21 H 0.9434 0.7822 0.3156
H22 H 1.0373 0.8659 0.3260
N2 N 0.6713(8) 0.8194(5) 0.4277(8)
H23 H 0.6628 0.8167 0.3859
C16 C 0.7943(7) 0.8776(4) 0.4451(3)
H24 H 0.8026 0.8824 0.4894
H25 H 0.8833 0.8514 0.4323
C17 C 0.7831(15) 0.9643(7) 0.4191(10)
H26 H 0.6983 0.9931 0.4338
H27 H 0.7713 0.9607 0.3747
C18 C 0.9173(10) 1.0155(5) 0.4371(4)
C19 C 0.5337(6) 0.8538(4) 0.4488(3)
H28 H 0.5156 0.9095 0.4297
H29 H 0.5452 0.8630 0.4928
C20 C 0.4052(9) 0.7987(10) 0.4358(11)
H30 H 0.4148 0.7458 0.4594
H31 H 0.3976 0.7836 0.3926
C21 C 0.2717(9) 0.8463(8) 0.4523(5)
C22 C 0.7020(8) 0.7318(5) 0.4509(4)
H32 H 0.6177 0.6958 0.4410
H33 H 0.7159 0.7342 0.4952
C23 C 0.8316(9) 0.6904(5) 0.4260(6)
H34 H 0.9195 0.7179 0.4432
H35 H 0.8285 0.6972 0.3818
C24 C 0.8336(14) 0.5962(5) 0.4422(6)
O13 O 0.0234(4) 0.7130(2) 0.10342(17)
O14 O 0.2250(5) 0.7389(3) 0.1111(2)
O15 O 0.1063(6) 0.5775(4) 0.0905(2)
N3? N 1.0093(8) 0.8476(5) 0.1501(3)
H36? H 1.0857 0.8121 0.1435
C25? C 0.8877(7) 0.8184(5) 0.1096(3)
H37? H 0.8684 0.7583 0.1183
H38? H 0.9152 0.8222 0.0675
C26? C 0.7535(9) 0.8683(7) 0.1159(5)
H39? H 0.7699 0.9282 0.1056
H40? H 0.7253 0.8657 0.1580
C27? C 0.6348(11) 0.8316(10) 0.0739(6)
H41? H 0.5471 0.8642 0.0778
H42? H 0.6183 0.7725 0.0846
H43? H 0.6630 0.8347 0.0323
C28? C 1.057(2) 0.9355(10) 0.1371(6)
H44? H 1.1366 0.9506 0.1661
H45? H 0.9772 0.9749 0.1436
C29? C 1.104(2) 0.9478(9) 0.0745(7)
H46? H 1.0207 0.9427 0.0454
H47? H 1.1730 0.9029 0.0653
C30? C 1.1730(10) 1.0335(6) 0.0674(5)
H48? H 1.2221 1.0348 0.0298
H49? H 1.2420 1.0436 0.1014
H50? H 1.0995 1.0775 0.0665
C31? C 0.9757(12) 0.8368(8) 0.2152(4)
H51? H 0.9497 0.8926 0.2313
H52? H 0.8913 0.7996 0.2169
C32? C 1.0902(16) 0.8017(13) 0.2539(6)
H53? H 1.1716 0.8415 0.2555
H54? H 1.1226 0.7482 0.2360
C33? C 1.049(3) 0.7844(12) 0.3168(5)
H55? H 1.1325 0.7650 0.3413
H56? H 0.9749 0.7406 0.3159
H57? H 1.0118 0.8363 0.3341
N4? N 0.6662(11) 0.8115(7) 0.4209(11)
H58? H 0.6560 0.8104 0.3792
C34? C 0.6891(12) 0.9023(6) 0.4398(5)
H59? H 0.6021 0.9352 0.4283
H60? H 0.7043 0.9049 0.4841
C35? C 0.815(2) 0.9423(9) 0.4116(12)
H61? H 0.8016 0.9385 0.3673
H62? H 0.9028 0.9112 0.4244
C36? C 0.830(2) 1.0338(9) 0.4300(12)
H63? H 0.9132 1.0583 0.4118
H64? H 0.8431 1.0376 0.4739
H65? H 0.7442 1.0650 0.4163
C37? C 0.5331(8) 0.7752(7) 0.4443(5)
H66? H 0.5240 0.7159 0.4304
H67? H 0.5439 0.7742 0.4888
C38? C 0.3982(12) 0.8206(16) 0.4260(15)
H68? H 0.3885 0.8246 0.3816
H69? H 0.4027 0.8787 0.4424
C39? C 0.2688(11) 0.7761(12) 0.4484(7)
H70? H 0.1830 0.8090 0.4372
H71? H 0.2792 0.7706 0.4922
H72? H 0.2605 0.7198 0.4302
C40? C 0.7937(11) 0.7573(6) 0.4398(5)
H73? H 0.8800 0.7829 0.4239
H74? H 0.8062 0.7576 0.4842
C41? C 0.7830(16) 0.6681(8) 0.4189(8)
H75? H 0.7546 0.6679 0.3754
H76? H 0.7063 0.6399 0.4401
C42? C 0.9168(14) 0.6176(9) 0.4287(6)
H77? H 0.9001 0.5598 0.4142
H78? H 0.9452 0.6162 0.4718
H79? H 0.9928 0.6436 0.4067
N5? N 0.6251(16) 0.8449(11) 0.4051(8)
H80? H 0.6488 0.8422 0.3651
C43? C 0.652(2) 0.9350(11) 0.4244(11)
H81? H 0.6476 0.9389 0.4686
H82? H 0.5763 0.9715 0.4058
C44? C 0.795(4) 0.9672(18) 0.407(3)
H83? H 0.8720 0.9327 0.4270
H84? H 0.8021 0.9614 0.3630
C45? C 0.816(3) 1.0583(13) 0.4246(18)
H85? H 0.9088 1.0779 0.4123
H86? H 0.8121 1.0638 0.4683
H87? H 0.7402 1.0925 0.4046
C46? C 0.4707(16) 0.8229(16) 0.4047(8)
H88? H 0.4574 0.7659 0.3869
H89? H 0.4169 0.8633 0.3781
C47? C 0.407(2) 0.823(3) 0.4649(10)
H90? H 0.4261 0.8782 0.4852
H91? H 0.4500 0.7781 0.4906
C48? C 0.247(2) 0.810(3) 0.4567(18)
H92? H 0.2069 0.8023 0.4961
H93? H 0.2274 0.7589 0.4322
H94? H 0.2022 0.8587 0.4364
C49? C 0.721(2) 0.7836(12) 0.4382(12)
H95? H 0.7049 0.7880 0.4816
H96? H 0.8210 0.8004 0.4328
C50? C 0.703(3) 0.6935(11) 0.4197(12)
H97? H 0.6909 0.6906 0.3753
H98? H 0.6152 0.6709 0.4362
C51? C 0.827(5) 0.6386(18) 0.4406(17)
H99? H 0.8087 0.5801 0.4280
H100? H 0.8404 0.6412 0.4845
H101? H 0.9141 0.6589 0.4227
O16? O 0.3113(5) 0.6825(3) 0.09408(19)
O17? O 0.140(4) 0.5273(16) 0.0869(13)
loop_
_geom_bond_atom_site_label_1
_geom_bond_atom_site_label_2
_geom_bond_site_symmetry_1
_geom_bond_site_symmetry_2
Cu1 O1 1_555 1_555
Cu2 O3 1_555 1_555
O1 C1 1_555 1_555
O2 Cu1 1_555 1_555
O3 C1 1_555 1_555
O4 Cu2 1_555 1_555
O5 Cu1 1_555 1_555
O6 Cu1 1_555 1_555
O7 C3 1_555 1_555
O8 C4 1_555 1_555
O9 Cu1 1_555 1_555
O10 Cu1 1_555 1_555
O11 C5 1_555 1_555
O12 C6 1_555 1_555
C1 C2 1_555 1_555
C2 O2 1_555 1_555
C3 O5 1_555 1_555
C4 O6 1_555 1_555
C5 O9 1_555 1_555
C6 O10 1_555 1_555
N1 H1 1_555 1_555
C7 N1 1_555 1_555
H2 C7 1_555 1_555
H3 C7 1_555 1_555
C8 C7 1_555 1_555
H4 C8 1_555 1_555
H5 C8 1_555 1_555
C9 C8 1_555 1_555
H6 C9 1_555 1_555
H7 C9 1_555 1_555
H8 C9 1_555 1_555
C10 N1 1_555 1_555
H9 C10 1_555 1_555
H10 C10 1_555 1_555
C11 C10 1_555 1_555
H11 C11 1_555 1_555
H12 C11 1_555 1_555
C12 C11 1_555 1_555
H13 C12 1_555 1_555
H14 C12 1_555 1_555
H15 C12 1_555 1_555
C13 N1 1_555 1_555
H16 C13 1_555 1_555
H17 C13 1_555 1_555
C14 C13 1_555 1_555
H18 C14 1_555 1_555
H19 C14 1_555 1_555
C15 C14 1_555 1_555
H20 C15 1_555 1_555
H21 C15 1_555 1_555
H22 C15 1_555 1_555
N2 H23 1_555 1_555
C16 N2 1_555 1_555
H24 C16 1_555 1_555
H25 C16 1_555 1_555
C17 C16 1_555 1_555
H26 C17 1_555 1_555
H27 C17 1_555 1_555
C18 C17 1_555 1_555
C19 N2 1_555 1_555
H28 C19 1_555 1_555
H29 C19 1_555 1_555
C20 C19 1_555 1_555
H30 C20 1_555 1_555
H31 C20 1_555 1_555
C21 C20 1_555 1_555
C22 N2 1_555 1_555
H32 C22 1_555 1_555
H33 C22 1_555 1_555
C23 C22 1_555 1_555
H34 C23 1_555 1_555
H35 C23 1_555 1_555
C24 C23 1_555 1_555
Cu2_2 O11 1_555 1_555
Cu2A O7 1_555 1_555
O7A Cu2 1_555 1_555
O8A Cu2 1_555 1_555
O11_2 Cu2 1_555 1_555
O12_2 Cu2 1_555 1_555
O4 C2 1_555 1_555
O8 Cu2A 1_555 1_555
O12 Cu2_2 1_555 1_555
C3 C4 1_555 1_555
C5 C6 1_555 1_555

#END
