
#######################################################################
#
#                 Cambridge Crystallographic Data Centre
#                                CCDC 
#
#######################################################################
#
# If this CIF has been generated from an entry in the Cambridge 
# Structural Database, then it will include bibliographic, chemical, 
# crystal, experimental, refinement or atomic coordinate data resulting 
# from the CCDC's data processing and validation procedures.
#
#######################################################################

data_LOTNUD
_symmetry_cell_setting           monoclinic
_symmetry_space_group_name_H-M   'C c'
_symmetry_Int_Tables_number      9
_space_group_name_Hall           'C -2yc'
loop_
_symmetry_equiv_pos_site_id
_symmetry_equiv_pos_as_xyz
1 x,y,z
2 x,-y,1/2+z
3 1/2+x,1/2+y,z
4 1/2+x,1/2-y,1/2+z
_cell_length_a                   13.6359(18)
_cell_length_b                   24.875(3)
_cell_length_c                   15.217(2)
_cell_angle_alpha                90
_cell_angle_beta                 99.604(2)
_cell_angle_gamma                90
_cell_volume                     5089.16
loop_
_atom_site_label
_atom_site_type_symbol
_atom_site_fract_x
_atom_site_fract_y
_atom_site_fract_z
Ni1 Ni -0.61663(17) 0.50044(3) 0.37996(16)
O1 O -0.5259(8) 0.5050(4) 0.2773(7)
O2 O -0.7112(9) 0.4997(3) 0.4737(8)
N1 N -0.5306(7) 0.5590(4) 0.4519(7)
C1 C -0.5020(10) 0.6043(5) 0.4037(9)
H1 H -0.5102 0.6024 0.3405
C2 C -0.4628(9) 0.6507(5) 0.4459(8)
H2 H -0.4469 0.6809 0.4127
C3 C -0.4471(10) 0.6518(6) 0.5406(10)
C4 C -0.4736(10) 0.6059(6) 0.5897(10)
H3 H -0.4661 0.6048 0.6529
C5 C -0.5101(11) 0.5648(5) 0.5367(9)
H4 H -0.5235 0.5336 0.5687
C6 C -0.4089(9) 0.7009(5) 0.5862(9)
C7 C -0.4705(10) 0.7424(5) 0.5983(10)
C8 C -0.4330(10) 0.7937(5) 0.6411(8)
C9 C -0.3339(10) 0.7972(5) 0.6672(9)
C10 C -0.2630(9) 0.7559(5) 0.6550(8)
C11 C -0.3031(10) 0.7100(5) 0.6126(9)
C12 C -0.5741(10) 0.7390(6) 0.5750(9)
H5 H -0.6037 0.7069 0.5494
C13 C -0.6326(11) 0.7817(6) 0.5887(11)
H6 H -0.7021 0.7791 0.5680
C14 C -0.5962(10) 0.8281(5) 0.6309(9)
H7 H -0.6411 0.8555 0.6420
C15 C -0.4998(10) 0.8352(5) 0.6563(10)
H8 H -0.4753 0.8677 0.6845
C16 C -0.2318(9) 0.6671(5) 0.6033(8)
H9 H -0.2562 0.6340 0.5771
C17 C -0.1295(11) 0.6728(6) 0.6314(12)
H10 H -0.0852 0.6445 0.6228
C18 C -0.0919(8) 0.7226(4) 0.6738(7)
H11 H -0.0228 0.7273 0.6943
C19 C -0.1562(10) 0.7613(5) 0.6836(10)
H12 H -0.1313 0.7941 0.7106
N2 N -0.1999(8) 0.9381(4) 0.8075(7)
C20 C -0.2149(9) 0.9394(5) 0.7169(8)
H13 H -0.1949 0.9690 0.6847
C21 C -0.2634(10) 0.8927(5) 0.6728(9)
H14 H -0.2772 0.8926 0.6095
C22 C -0.2904(9) 0.8486(5) 0.7173(9)
C23 C -0.2765(10) 0.8533(5) 0.8067(9)
H15 H -0.2974 0.8252 0.8416
C24 C -0.2320(10) 0.8991(6) 0.8486(9)
H16 H -0.2251 0.9013 0.9117
C25 C -0.1800(9) 0.1460(5) 0.7299(8)
H17 H -0.1381 0.1738 0.7149
C26 C -0.1371(10) 0.0978(5) 0.7693(10)
H18 H -0.0674 0.0921 0.7748
N3 N -0.5415(8) 0.4400(4) 0.4549(7)
C27 C -0.4400(10) 0.4332(6) 0.4751(9)
H19 H -0.3986 0.4613 0.4601
C28 C -0.3966(10) 0.3896(5) 0.5142(9)
H20 H -0.3263 0.3858 0.5227
C29 C -0.4572(10) 0.3484(6) 0.5435(9)
C30 C -0.5587(11) 0.3559(6) 0.5330(9)
H21 H -0.6007 0.3318 0.5577
C31 C -0.5939(9) 0.3982(6) 0.4869(8)
H22 H -0.6644 0.4007 0.4735
C32 C -0.4094(9) 0.2997(5) 0.5899(8)
C33 C -0.4230(9) 0.2468(5) 0.5431(8)
C34 C -0.3783(8) 0.1981(5) 0.5859(8)
C35 C -0.3282(10) 0.2041(5) 0.6725(9)
C36 C -0.3163(9) 0.2496(5) 0.7211(8)
C37 C -0.3556(10) 0.2979(5) 0.6781(8)
C38 C -0.4719(10) 0.2443(6) 0.4474(8)
H23 H -0.4922 0.2767 0.4164
C39 C -0.4876(11) 0.1967(6) 0.4047(10)
H24 H -0.5246 0.1948 0.3460
C40 C -0.4462(11) 0.1484(6) 0.4512(11)
H25 H -0.4567 0.1144 0.4230
C41 C -0.3956(9) 0.1517(6) 0.5303(10)
H26 H -0.3661 0.1192 0.5547
C42 C -0.3430(10) 0.3492(5) 0.7229(8)
H27 H -0.3703 0.3811 0.6946
C43 C -0.2885(9) 0.3503(5) 0.8106(8)
H28 H -0.2787 0.3830 0.8431
C44 C -0.2497(10) 0.3024(5) 0.8476(9)
H29 H -0.2145 0.3029 0.9070
C45 C -0.2593(11) 0.2549(6) 0.8034(9)
H30 H -0.2253 0.2243 0.8306
N4 N -0.1924(8) 0.0615(4) 0.7977(7)
C46 C -0.2886(10) 0.0672(5) 0.7858(9)
H31 H -0.3276 0.0403 0.8077
C47 C -0.3373(10) 0.1127(5) 0.7408(10)
H32 H -0.4078 0.1145 0.7305
C48 C -0.2847(8) 0.1529(5) 0.7128(8)
N5 N -0.4458(6) 0.5086(4) 0.2633(5)
O3 O -0.3704(7) 0.5196(5) 0.3365(8)
O4 O -0.4218(14) 0.5263(6) 0.2025(8)
N6 N -0.8124(19) 0.5142(5) 0.4731(17)
O5 O -0.8177(7) 0.5177(4) 0.5567(8)
O10 O -0.8168(10) 0.4545(5) 0.4683(9)
N2C N -0.6999(8) 0.5619(4) 0.3075(7)
N4C N -0.6924(8) 0.4385(4) 0.2977(7)
Ni1C Ni -0.11663(17) 0.99956(3) 0.87996(16)
Ni1C_2 Ni -0.11663(17) -0.00044(3) 0.87996(16)
N7 N -0.3042(16) 0.3511(11) 0.3257(12)
O6 O -0.3524(16) 0.3936(9) 0.2949(12)
O7 O -0.3336(16) 0.3055(8) 0.3247(10)
C49 C -0.2036(8) 0.3637(6) 0.3556(7)
C50 C -0.1447(12) 0.3179(3) 0.3693(9)
H33 H -0.1739 0.2833 0.3583
C51 C -0.0430(11) 0.3226(5) 0.3991(9)
H34 H -0.0027 0.2912 0.4085
C52 C -0.0002(9) 0.3731(7) 0.4152(8)
H35 H 0.0693 0.3763 0.4356
C53 C -0.0591(14) 0.4189(4) 0.4015(10)
H36 H -0.0299 0.4534 0.4125
C54 C -0.1608(13) 0.4142(4) 0.3717(9)
H37 H -0.2010 0.4455 0.3624
N8 N 1.3151(8) -0.0372(6) -0.0024(9)
O8 O 1.3645(8) -0.0569(5) -0.0587(7)
O9 O 1.2188(8) -0.0403(4) -0.0256(7)
C55 C 1.3580(7) -0.0136(4) 0.0747(6)
C56 C 1.2992(6) 0.0046(3) 0.1349(7)
H38 H 1.2289 0.0014 0.1212
C57 C 1.3433(9) 0.0274(3) 0.2152(7)
H39 H 1.3032 0.0399 0.2563
C58 C 1.4462(9) 0.0320(4) 0.2353(6)
H40 H 1.4764 0.0476 0.2902
C59 C 1.5050(6) 0.0138(3) 0.1751(7)
H41 H 1.5753 0.0169 0.1888
C60 C 1.4609(6) -0.0090(3) 0.0948(7)
H42 H 1.5011 -0.0215 0.0536
loop_
_geom_bond_atom_site_label_1
_geom_bond_atom_site_label_2
_geom_bond_site_symmetry_1
_geom_bond_site_symmetry_2
Ni1 O1 1_555 1_555
O1 N5 1_555 1_555
O2 Ni1 1_555 1_555
N1 Ni1 1_555 1_555
C1 N1 1_555 1_555
H1 C1 1_555 1_555
C2 C1 1_555 1_555
H2 C2 1_555 1_555
C3 C2 1_555 1_555
C4 C3 1_555 1_555
H3 C4 1_555 1_555
C5 N1 1_555 1_555
H4 C5 1_555 1_555
C6 C3 1_555 1_555
C7 C6 1_555 1_555
C8 C7 1_555 1_555
C9 C8 1_555 1_555
C10 C9 1_555 1_555
C11 C6 1_555 1_555
C12 C7 1_555 1_555
H5 C12 1_555 1_555
C13 C12 1_555 1_555
H6 C13 1_555 1_555
C14 C13 1_555 1_555
H7 C14 1_555 1_555
C15 C8 1_555 1_555
H8 C15 1_555 1_555
C16 C11 1_555 1_555
H9 C16 1_555 1_555
C17 C16 1_555 1_555
H10 C17 1_555 1_555
C18 C17 1_555 1_555
H11 C18 1_555 1_555
C19 C10 1_555 1_555
H12 C19 1_555 1_555
N2 C20 1_555 1_555
C20 H13 1_555 1_555
C21 C20 1_555 1_555
H14 C21 1_555 1_555
C22 C9 1_555 1_555
C23 C22 1_555 1_555
H15 C23 1_555 1_555
C24 N2 1_555 1_555
H16 C24 1_555 1_555
C25 H17 1_555 1_555
C26 C25 1_555 1_555
H18 C26 1_555 1_555
N3 Ni1 1_555 1_555
C27 N3 1_555 1_555
H19 C27 1_555 1_555
C28 C27 1_555 1_555
H20 C28 1_555 1_555
C29 C28 1_555 1_555
C30 C29 1_555 1_555
H21 C30 1_555 1_555
C31 N3 1_555 1_555
H22 C31 1_555 1_555
C32 C29 1_555 1_555
C33 C32 1_555 1_555
C34 C33 1_555 1_555
C35 C34 1_555 1_555
C36 C35 1_555 1_555
C37 C32 1_555 1_555
C38 C33 1_555 1_555
H23 C38 1_555 1_555
C39 C38 1_555 1_555
H24 C39 1_555 1_555
C40 C39 1_555 1_555
H25 C40 1_555 1_555
C41 C34 1_555 1_555
H26 C41 1_555 1_555
C42 C37 1_555 1_555
H27 C42 1_555 1_555
C43 C42 1_555 1_555
H28 C43 1_555 1_555
C44 C43 1_555 1_555
H29 C44 1_555 1_555
C45 C36 1_555 1_555
H30 C45 1_555 1_555
N4 C26 1_555 1_555
C46 N4 1_555 1_555
H31 C46 1_555 1_555
C47 C46 1_555 1_555
H32 C47 1_555 1_555
C48 C25 1_555 1_555
N5 O3 1_555 1_555
O4 N5 1_555 1_555
N6 O2 1_555 1_555
O5 N6 1_555 1_555
N7 O6 1_555 1_555
O7 N7 1_555 1_555
C49 N7 1_555 1_555
C50 C49 1_555 1_555
H33 C50 1_555 1_555
C51 C50 1_555 1_555
H34 C51 1_555 1_555
C52 C51 1_555 1_555
H35 C52 1_555 1_555
C53 C52 1_555 1_555
H36 C53 1_555 1_555
C54 C49 1_555 1_555
H37 C54 1_555 1_555
N8 O8 1_555 1_555
O9 N8 1_555 1_555
C55 N8 1_555 1_555
C56 C55 1_555 1_555
H38 C56 1_555 1_555
C57 C56 1_555 1_555
H39 C57 1_555 1_555
C58 C57 1_555 1_555
H40 C58 1_555 1_555
C59 C58 1_555 1_555
H41 C59 1_555 1_555
C60 C55 1_555 1_555
H42 C60 1_555 1_555
O10 N6 1_555 1_555
N2C Ni1 1_555 1_555
N4C Ni1 1_555 1_555
Ni1C N2 1_555 1_555
Ni1C_2 N4 1_555 1_555
C4 C5 1_555 1_555
C10 C11 1_555 1_555
C14 C15 1_555 1_555
C18 C19 1_555 1_555
C21 C22 1_555 1_555
C23 C24 1_555 1_555
C30 C31 1_555 1_555
C35 C48 1_555 1_555
C36 C37 1_555 1_555
C40 C41 1_555 1_555
C44 C45 1_555 1_555
C47 C48 1_555 1_555
C53 C54 1_555 1_555
C59 C60 1_555 1_555

#END
