
#######################################################################
#
#                 Cambridge Crystallographic Data Centre
#                                CCDC 
#
#######################################################################
#
# If this CIF has been generated from an entry in the Cambridge 
# Structural Database, then it will include bibliographic, chemical, 
# crystal, experimental, refinement or atomic coordinate data resulting 
# from the CCDC's data processing and validation procedures.
#
#######################################################################

data_LOTNUD01
_symmetry_cell_setting           monoclinic
_symmetry_space_group_name_H-M   'C 2/c'
_symmetry_Int_Tables_number      15
_space_group_name_Hall           '-C 2yn'
loop_
_symmetry_equiv_pos_site_id
_symmetry_equiv_pos_as_xyz
1 x,y,z
2 x,-y,1/2+z
3 1/2+x,1/2+y,z
4 1/2+x,1/2-y,1/2+z
5 -x,-y,-z
6 -x,y,1/2-z
7 1/2-x,1/2-y,-z
8 1/2-x,1/2+y,1/2-z
_cell_length_a                   13.6359
_cell_length_b                   24.875
_cell_length_c                   15.217
_cell_angle_alpha                90
_cell_angle_beta                 99.604
_cell_angle_gamma                90
_cell_volume                     5089.16
loop_
_atom_site_label
_atom_site_type_symbol
_atom_site_fract_x
_atom_site_fract_y
_atom_site_fract_z
Ni1 Ni 0.0000 0.0004 0.7500
N1 N 0.0846 0.0604 0.8222
C1 C 0.1150 0.1026 0.7776
C2 C 0.1568 0.1487 0.8196
C3 C 0.1716 0.1516 0.9117
C4 C 0.1449 0.1066 0.9585
C5 C 0.1024 0.0627 0.9099
C6 C 0.2125 0.2018 0.9595
C7 C 0.1462 0.2432 0.9717
C8 C 0.3150 0.2082 0.9857
C9 C 0.0410 0.2388 0.9457
C10 C -0.0204 0.2795 0.9575
C11 C 0.0166 0.3276 0.9998
C12 C 0.3840 0.1660 0.9735
N2 N 0.0754 -0.0607 0.8286
C13 C 0.1743 -0.0670 0.8447
C14 C 0.2203 -0.1115 0.8867
C15 C 0.1637 -0.1522 0.9154
C16 C 0.0606 -0.1450 0.9016
C17 C 0.0216 -0.0998 0.8588
C18 C 0.2094 -0.2022 0.9587
C19 C 0.1966 -0.2514 0.9110
C20 C 0.2614 -0.2001 1.0461
C21 C 0.1437 -0.2553 0.8220
C22 C 0.1310 -0.3028 0.7786
C23 C 0.1711 -0.3509 0.8203
C24 C 0.2763 -0.1513 1.0963
C8F C 0.1850 0.2918 1.0143
C6F C 0.2875 0.2982 1.0405
C3F C 0.3284 0.3484 1.0883
C2F C 0.3432 0.3513 1.1804
C1F C 0.3850 0.3974 1.2224
N1F N 0.4154 0.4396 1.1778
C5F C 0.3976 0.4373 1.0901
C4F C 0.3551 0.3934 1.0415
C7F C 0.3538 0.2568 1.0283
C11F C 0.4834 0.1724 1.0002
C10F C 0.5204 0.2205 1.0425
C9F C 0.4590 0.2612 1.0543
C12F C 0.1160 0.3340 1.0265
C20F C 0.2386 -0.2999 0.9539
C18F C 0.2906 -0.2978 1.0413
C15F C 0.3363 -0.3478 1.0846
C14F C 0.2797 -0.3885 1.1133
C13F C 0.3257 -0.4330 1.1553
N2F N 0.4246 -0.4393 1.1714
C17F C 0.4784 -0.4002 1.1412
C16F C 0.4394 -0.3550 1.0984
C19F C 0.3034 -0.2486 1.0890
C23F C 0.3289 -0.1491 1.1797
C22F C 0.3690 -0.1972 1.2214
C21F C 0.3563 -0.2447 1.1780
C24F C 0.2237 -0.3487 0.9037
N1E N -0.0846 0.0604 0.6778
N2E N -0.0754 -0.0607 0.6714
Ni1C Ni 0.5000 0.4996 1.2500
Ni1C_2 Ni 0.5000 -0.5004 1.2500
loop_
_geom_bond_atom_site_label_1
_geom_bond_atom_site_label_2
_geom_bond_site_symmetry_1
_geom_bond_site_symmetry_2
Ni1 N1 1_555 1_555
N1 C1 1_555 1_555
C1 C2 1_555 1_555
C2 C3 1_555 1_555
C3 C4 1_555 1_555
C4 C5 1_555 1_555
C5 N1 1_555 1_555
C6 C3 1_555 1_555
C7 C6 1_555 1_555
C8 C6 1_555 1_555
C9 C7 1_555 1_555
C10 C9 1_555 1_555
C11 C10 1_555 1_555
C12 C8 1_555 1_555
N2 Ni1 1_555 1_555
C13 N2 1_555 1_555
C14 C13 1_555 1_555
C15 C14 1_555 1_555
C16 C15 1_555 1_555
C17 N2 1_555 1_555
C18 C15 1_555 1_555
C19 C18 1_555 1_555
C20 C18 1_555 1_555
C21 C19 1_555 1_555
C22 C21 1_555 1_555
C23 C22 1_555 1_555
C24 C20 1_555 1_555
C8F C7 1_555 1_555
C6F C8F 1_555 1_555
C3F C6F 1_555 1_555
C2F C3F 1_555 1_555
C1F C2F 1_555 1_555
N1F C1F 1_555 1_555
C5F N1F 1_555 1_555
C4F C3F 1_555 1_555
C7F C8 1_555 1_555
C11F C12 1_555 1_555
C10F C11F 1_555 1_555
C9F C7F 1_555 1_555
C12F C11 1_555 1_555
C20F C19 1_555 1_555
C18F C20F 1_555 1_555
C15F C18F 1_555 1_555
C14F C15F 1_555 1_555
C13F C14F 1_555 1_555
N2F C13F 1_555 1_555
C17F N2F 1_555 1_555
C16F C15F 1_555 1_555
C19F C20 1_555 1_555
C23F C24 1_555 1_555
C22F C23F 1_555 1_555
C21F C19F 1_555 1_555
C24F C23 1_555 1_555
N1E Ni1 1_555 1_555
N2E Ni1 1_555 1_555
Ni1C N1F 1_555 1_555
Ni1C_2 N2F 1_555 1_555
C16 C17 1_555 1_555
C8F C12F 1_555 1_555
C6F C7F 1_555 1_555
C5F C4F 1_555 1_555
C10F C9F 1_555 1_555
C20F C24F 1_555 1_555
C18F C19F 1_555 1_555
C17F C16F 1_555 1_555
C22F C21F 1_555 1_555

#END
