
#######################################################################
#
#                 Cambridge Crystallographic Data Centre
#                                CCDC 
#
#######################################################################
#
# If this CIF has been generated from an entry in the Cambridge 
# Structural Database, then it will include bibliographic, chemical, 
# crystal, experimental, refinement or atomic coordinate data resulting 
# from the CCDC's data processing and validation procedures.
#
#######################################################################

data_LOTPOB
_symmetry_cell_setting           monoclinic
_symmetry_space_group_name_H-M   'C 2/m'
_symmetry_Int_Tables_number      12
_space_group_name_Hall           '-C 2y'
loop_
_symmetry_equiv_pos_site_id
_symmetry_equiv_pos_as_xyz
1 x,y,z
2 -x,y,-z
3 1/2+x,1/2+y,z
4 1/2-x,1/2+y,-z
5 -x,-y,-z
6 x,-y,z
7 1/2-x,1/2-y,-z
8 1/2+x,1/2-y,z
_cell_length_a                   22.726(4)
_cell_length_b                   15.455(3)
_cell_length_c                   12.036(2)
_cell_angle_alpha                90
_cell_angle_beta                 115.17(3)
_cell_angle_gamma                90
_cell_volume                     3826.02
loop_
_atom_site_label
_atom_site_type_symbol
_atom_site_fract_x
_atom_site_fract_y
_atom_site_fract_z
N3 N -0.499(4) 0.0000 0.202(6)
C12 C -0.501(2) 0.074(3) 0.378(4)
H9 H -0.5013 0.1268 0.4155
C13 C -0.502(2) 0.0000 0.436(4)
C14 C -0.500(3) 0.075(4) 0.263(4)
H10 H -0.5003 0.1281 0.2262
N3A N -0.501(4) 0.0000 0.798(6)
C12A C -0.499(2) 0.074(3) 0.622(4)
H9A H -0.4987 0.1268 0.5845
C13A C -0.498(2) 0.0000 0.564(4)
C14A C -0.500(3) 0.075(4) 0.737(4)
H10A H -0.4997 0.1281 0.7738
C12D C -0.499(2) -0.074(3) 0.622(4)
H9D H -0.4987 -0.1268 0.5845
C14D C -0.500(3) -0.075(4) 0.737(4)
H10D H -0.4997 -0.1281 0.7738
C12E C -0.501(2) -0.074(3) 0.378(4)
H9E H -0.5013 -0.1268 0.4155
C14E C -0.500(3) -0.075(4) 0.263(4)
H10E H -0.5003 -0.1281 0.2262
Cu1 Cu -0.6952(3) -1.0000 0.8635(4)
O1 O -0.5846(14) -1.0000 0.929(3)
N1 N -0.7154(8) -0.9096(9) 0.7300(13)
C1 C -0.6653(6) -0.8738(12) 0.7079(15)
H1 H -0.6226 -0.8911 0.7543
C2 C -0.6790(7) -0.8119(12) 0.6164(16)
H2 H -0.6455 -0.7879 0.6016
C3 C -0.7428(8) -0.7859(10) 0.5470(13)
C4 C -0.7929(6) -0.8218(12) 0.5691(15)
H3 H -0.8356 -0.8044 0.5226
C5 C -0.7792(7) -0.8836(11) 0.6606(16)
H4 H -0.8127 -0.9076 0.6754
C6 C -0.6770(10) -0.8263(9) 0.9974(14)
H5 H -0.6806 -0.7993 0.9257
C7 C -0.6665(11) -0.7772(7) 1.1009(18)
H6 H -0.6631 -0.7173 1.0984
C8 C -0.6611(10) -0.8175(11) 1.2080(14)
H7 H -0.6541 -0.7847 1.2772
C9 C -0.6663(9) -0.9070(11) 1.2116(12)
C10 C -0.6768(9) -0.9561(7) 1.1081(14)
C11 C -0.6634(16) -0.959(2) 1.317(2)
H8 H -0.6615 -0.9308 1.3862
N2 N -0.6822(8) -0.9158(9) 1.0010(11)
W1 W -1.14646(6) -1.11431(7) 0.83420(11)
W2 W -1.02112(7) -1.11607(10) 0.73013(13)
W3 W -1.0000 -1.23045(9) 1.0000
W4 W -0.87596(8) -1.0000 0.89152(15)
P1 P -1.0000 -1.0000 1.0000
O2 O -1.075(2) -1.0000 0.962(4)
O3 O -0.988(2) -1.0000 0.883(4)
O4 O -1.0258(15) -1.080(2) 0.930(3)
O5 O -1.171(3) -1.0000 0.781(4)
O6 O -0.8154(13) -1.0000 0.842(3)
O7 O -1.2152(10) -1.1702(15) 0.7559(19)
O8 O -1.0000 -1.338(2) 1.0000
O9 O -0.9308(11) -1.0854(15) 0.794(2)
O10 O -1.153(2) -1.0852(15) 0.984(2)
O11 O -1.0422(15) -1.0000 0.667(3)
O12 O -1.1057(10) -1.119(2) 0.725(3)
O13 O -1.0887(12) -1.203(2) 0.927(3)
O14 O -0.9977(10) -1.207(2) 0.846(2)
O15 O -1.0335(16) -1.173(2) 0.594(4)
N1F N -0.7846(8) -0.5904(9) 0.2700(13)
C1F C -0.8347(6) -0.6262(12) 0.2921(15)
H1F H -0.8774 -0.6089 0.2457
C2F C -0.8210(7) -0.6881(12) 0.3836(16)
H2F H -0.8545 -0.7121 0.3984
C3F C -0.7572(8) -0.7141(10) 0.4530(13)
C4F C -0.7071(6) -0.6782(12) 0.4309(15)
H3F H -0.6644 -0.6956 0.4774
C5F C -0.7208(7) -0.6164(11) 0.3394(16)
H4F H -0.6873 -0.5924 0.3246
C6E C -0.6770(10) -1.1737(9) 0.9974(14)
H5E H -0.6806 -1.2007 0.9257
C7E C -0.6665(11) -1.2228(7) 1.1009(18)
H6E H -0.6631 -1.2827 1.0984
C8E C -0.6611(10) -1.1825(11) 1.2080(14)
H7E H -0.6541 -1.2153 1.2772
C9E C -0.6663(9) -1.0930(11) 1.2116(12)
C10E C -0.6768(9) -1.0439(7) 1.1081(14)
C11E C -0.6634(16) -1.041(2) 1.317(2)
H8E H -0.6615 -1.0692 1.3862
N2E N -0.6822(8) -1.0842(9) 1.0010(11)
O2A O -0.925(2) -1.0000 1.038(4)
O3A O -1.012(2) -1.0000 1.117(4)
O4A O -0.9742(15) -1.080(2) 1.070(3)
O4D O -0.9742(15) -0.920(2) 1.070(3)
O4E O -1.0258(15) -0.920(2) 0.930(3)
Cu1A Cu -1.3048(3) -1.0000 1.1365(4)
O1A O -1.4154(14) -1.0000 1.071(3)
N1A N -1.2846(8) -0.9096(9) 1.2700(13)
C1A C -1.3347(6) -0.8738(12) 1.2921(15)
H1A H -1.3774 -0.8911 1.2457
C2A C -1.3210(7) -0.8119(12) 1.3836(16)
H2A H -1.3545 -0.7879 1.3984
C3A C -1.2572(8) -0.7859(10) 1.4530(13)
C4A C -1.2071(6) -0.8218(12) 1.4309(15)
H3A H -1.1644 -0.8044 1.4774
C5A C -1.2208(7) -0.8836(11) 1.3394(16)
H4A H -1.1873 -0.9076 1.3246
C6A C -1.3230(10) -0.8263(9) 1.0026(14)
H5A H -1.3194 -0.7993 1.0743
C7A C -1.3335(11) -0.7772(7) 0.8991(18)
H6A H -1.3369 -0.7173 0.9016
C8A C -1.3389(10) -0.8175(11) 0.7920(14)
H7A H -1.3459 -0.7847 0.7228
C9A C -1.3337(9) -0.9070(11) 0.7884(12)
C10A C -1.3232(9) -0.9561(7) 0.8919(14)
C11A C -1.3366(16) -0.959(2) 0.683(2)
H8A H -1.3385 -0.9308 0.6138
N2A N -1.3178(8) -0.9158(9) 0.9990(11)
W1A W -0.85354(6) -1.11431(7) 1.16580(11)
W2A W -0.97888(7) -1.11607(10) 1.26987(13)
W4A W -1.12404(8) -1.0000 1.10848(15)
O5A O -0.829(3) -1.0000 1.219(4)
O6A O -1.1846(13) -1.0000 1.158(3)
O7A O -0.7848(10) -1.1702(15) 1.2441(19)
O9A O -1.0692(11) -1.0854(15) 1.206(2)
O10A O -0.847(2) -1.0852(15) 1.016(2)
O11A O -0.9578(15) -1.0000 1.333(3)
O12A O -0.8943(10) -1.119(2) 1.275(3)
O13A O -0.9113(12) -1.203(2) 1.073(3)
O14A O -1.0023(10) -1.207(2) 1.154(2)
O15A O -0.9665(16) -1.173(2) 1.406(4)
N1G N -1.2154(8) -0.5904(9) 1.7300(13)
C1G C -1.1653(6) -0.6262(12) 1.7079(15)
H1G H -1.1226 -0.6089 1.7543
C2G C -1.1790(7) -0.6881(12) 1.6164(16)
H2G H -1.1455 -0.7121 1.6016
C3G C -1.2428(8) -0.7141(10) 1.5470(13)
C4G C -1.2929(6) -0.6782(12) 1.5691(15)
H3G H -1.3356 -0.6956 1.5226
C5G C -1.2792(7) -0.6164(11) 1.6606(16)
H4G H -1.3127 -0.5924 1.6754
C6D C -1.3230(10) -1.1737(9) 1.0026(14)
H5D H -1.3194 -1.2007 1.0743
C7D C -1.3335(11) -1.2228(7) 0.8991(18)
H6D H -1.3369 -1.2827 0.9016
C8D C -1.3389(10) -1.1825(11) 0.7920(14)
H7D H -1.3459 -1.2153 0.7228
C9D C -1.3337(9) -1.0930(11) 0.7884(12)
C10D C -1.3232(9) -1.0439(7) 0.8919(14)
C11D C -1.3366(16) -1.041(2) 0.683(2)
H8D H -1.3385 -1.0692 0.6138
N2D N -1.3178(8) -1.0842(9) 0.9990(11)
W1D W -0.85354(6) -0.88569(7) 1.16580(11)
W2D W -0.97888(7) -0.88393(10) 1.26987(13)
W3D W -1.0000 -0.76955(9) 1.0000
O7D O -0.7848(10) -0.8298(15) 1.2441(19)
O8D O -1.0000 -0.662(2) 1.0000
O9D O -1.0692(11) -0.9146(15) 1.206(2)
O10D O -0.847(2) -0.9148(15) 1.016(2)
O12D O -0.8943(10) -0.881(2) 1.275(3)
O13D O -0.9113(12) -0.797(2) 1.073(3)
O14D O -1.0023(10) -0.793(2) 1.154(2)
O15D O -0.9665(16) -0.827(2) 1.406(4)
W1E W -1.14646(6) -0.88569(7) 0.83420(11)
W2E W -1.02112(7) -0.88393(10) 0.73013(13)
O7E O -1.2152(10) -0.8298(15) 0.7559(19)
O9E O -0.9308(11) -0.9146(15) 0.794(2)
O10E O -1.153(2) -0.9148(15) 0.984(2)
O12E O -1.1057(10) -0.881(2) 0.725(3)
O13E O -1.0887(12) -0.797(2) 0.927(3)
O14E O -0.9977(10) -0.793(2) 0.846(2)
O15E O -1.0335(16) -0.827(2) 0.594(4)
Cu1B Cu -1.1952(3) -0.5000 1.8635(4)
Cu1C Cu -0.8048(3) -0.5000 0.1365(4)
N1D N -1.2846(8) -1.0904(9) 1.2700(13)
N1E N -0.7154(8) -1.0904(9) 0.7300(13)
loop_
_geom_bond_atom_site_label_1
_geom_bond_atom_site_label_2
_geom_bond_site_symmetry_1
_geom_bond_site_symmetry_2
Cu1 O1 1_555 1_555
N1 Cu1 1_555 1_555
C1 N1 1_555 1_555
H1 C1 1_555 1_555
C2 C1 1_555 1_555
H2 C2 1_555 1_555
C3 C2 1_555 1_555
C4 C3 1_555 1_555
H3 C4 1_555 1_555
C5 N1 1_555 1_555
H4 C5 1_555 1_555
C6 H5 1_555 1_555
C7 C6 1_555 1_555
H6 C7 1_555 1_555
C8 C7 1_555 1_555
H7 C8 1_555 1_555
C9 C8 1_555 1_555
C10 C9 1_555 1_555
C11 C9 1_555 1_555
H8 C11 1_555 1_555
N2 Cu1 1_555 1_555
W1 O2 1_555 1_555
W2 O3 1_555 1_555
W3 O4 1_555 1_555
W4 O6 1_555 1_555
P1 O2 1_555 1_555
O2 O3A 1_555 1_555
O3 P1 1_555 1_555
O4 P1 1_555 1_555
O5 W1 1_555 1_555
O6 Cu1 1_555 1_555
O7 W1 1_555 1_555
O8 W3 1_555 1_555
O9 W2 1_555 1_555
O10 W1 1_555 1_555
O11 W2 1_555 1_555
O12 W1 1_555 1_555
O13 W1 1_555 1_555
O14 W2 1_555 1_555
O15 W2 1_555 1_555
N3 C14 1_555 1_555
C12 H9 1_555 1_555
C13 C12 1_555 1_555
C14 C12 1_555 1_555
H10 C14 1_555 1_555
N1F C1F 1_555 1_555
C1F H1F 1_555 1_555
C2F C1F 1_555 1_555
H2F C2F 1_555 1_555
C3F C3 1_555 1_555
C4F C3F 1_555 1_555
H3F C4F 1_555 1_555
C5F N1F 1_555 1_555
H4F C5F 1_555 1_555
C6E H5E 1_555 1_555
C7E C6E 1_555 1_555
H6E C7E 1_555 1_555
C8E C7E 1_555 1_555
H7E C8E 1_555 1_555
C9E C8E 1_555 1_555
C10E C10 1_555 1_555
C11E C11 1_555 1_555
H8E C11E 1_555 1_555
N2E Cu1 1_555 1_555
O2A W4 1_555 1_555
O3A P1 1_555 1_555
O4A W3 1_555 1_555
O4D P1 1_555 1_555
O4E P1 1_555 1_555
Cu1A O1A 1_555 1_555
N1A Cu1A 1_555 1_555
C1A N1A 1_555 1_555
H1A C1A 1_555 1_555
C2A C1A 1_555 1_555
H2A C2A 1_555 1_555
C3A C2A 1_555 1_555
C4A C3A 1_555 1_555
H3A C4A 1_555 1_555
C5A N1A 1_555 1_555
H4A C5A 1_555 1_555
C6A H5A 1_555 1_555
C7A C6A 1_555 1_555
H6A C7A 1_555 1_555
C8A C7A 1_555 1_555
H7A C8A 1_555 1_555
C9A C8A 1_555 1_555
C10A C9A 1_555 1_555
C11A C9A 1_555 1_555
H8A C11A 1_555 1_555
N2A Cu1A 1_555 1_555
W1A O2A 1_555 1_555
W2A O3A 1_555 1_555
W4A O2 1_555 1_555
O5A W1A 1_555 1_555
O6A Cu1A 1_555 1_555
O7A W1A 1_555 1_555
O9A W2A 1_555 1_555
O10A W4 1_555 1_555
O11A W2A 1_555 1_555
O12A W1A 1_555 1_555
O13A W3 1_555 1_555
O14A W3 1_555 1_555
O15A W2A 1_555 1_555
N1G C1G 1_555 1_555
C1G H1G 1_555 1_555
C2G C1G 1_555 1_555
H2G C2G 1_555 1_555
C3G C3A 1_555 1_555
C4G C3G 1_555 1_555
H3G C4G 1_555 1_555
C5G N1G 1_555 1_555
H4G C5G 1_555 1_555
C6D H5D 1_555 1_555
C7D C6D 1_555 1_555
H6D C7D 1_555 1_555
C8D C7D 1_555 1_555
H7D C8D 1_555 1_555
C9D C8D 1_555 1_555
C10D C10A 1_555 1_555
C11D C11A 1_555 1_555
H8D C11D 1_555 1_555
N2D Cu1A 1_555 1_555
W1D O2A 1_555 1_555
W2D O3A 1_555 1_555
W3D O4D 1_555 1_555
O7D W1D 1_555 1_555
O8D W3D 1_555 1_555
O9D W4A 1_555 1_555
O10D W4 1_555 1_555
O12D W1D 1_555 1_555
O13D W1D 1_555 1_555
O14D W2D 1_555 1_555
O15D W2D 1_555 1_555
W1E O2 1_555 1_555
W2E O3 1_555 1_555
O7E W1E 1_555 1_555
O9E W4 1_555 1_555
O10E W4A 1_555 1_555
O12E W1E 1_555 1_555
O13E W3D 1_555 1_555
O14E W3D 1_555 1_555
O15E W2E 1_555 1_555
Cu1B N1G 1_555 1_555
Cu1C N1F 1_555 1_555
N1D Cu1A 1_555 1_555
N1E Cu1 1_555 1_555
N3A C14A 1_555 1_555
C12A H9A 1_555 1_555
C13A C13 1_555 1_555
C14A C12A 1_555 1_555
H10A C14A 1_555 1_555
C12D C13A 1_555 1_555
H9D C12D 1_555 1_555
C14D N3A 1_555 1_555
H10D C14D 1_555 1_555
C12E C13 1_555 1_555
H9E C12E 1_555 1_555
C14E N3 1_555 1_555
H10E C14E 1_555 1_555
C4 C5 1_555 1_555
C6 N2 1_555 1_555
C10 N2 1_555 1_555
W2 O12 1_555 1_555
W3 O13 1_555 1_555
W3 O14 1_555 1_555
W4 O9 1_555 1_555
P1 O2A 1_555 1_555
P1 O4A 1_555 1_555
O3 O4 1_555 1_555
O3 O2A 1_555 1_555
O3 O4E 1_555 1_555
O4 O4A 1_555 1_555
O5 W1E 1_555 1_555
O10 W4A 1_555 1_555
O11 W2E 1_555 1_555
C2F C3F 1_555 1_555
C4F C5F 1_555 1_555
C6E N2E 1_555 1_555
C9E C10E 1_555 1_555
C9E C11E 1_555 1_555
C10E N2E 1_555 1_555
O3A O4A 1_555 1_555
O3A O4D 1_555 1_555
O4D O4E 1_555 1_555
O4E W3D 1_555 1_555
C4A C5A 1_555 1_555
C6A N2A 1_555 1_555
C10A N2A 1_555 1_555
W1A O10A 1_555 1_555
W1A O13A 1_555 1_555
W2A O12A 1_555 1_555
W2A O14A 1_555 1_555
W4A O6A 1_555 1_555
W4A O9A 1_555 1_555
O5A W1D 1_555 1_555
O11A W2D 1_555 1_555
C2G C3G 1_555 1_555
C4G C5G 1_555 1_555
C6D N2D 1_555 1_555
C9D C10D 1_555 1_555
C9D C11D 1_555 1_555
C10D N2D 1_555 1_555
W1D O10D 1_555 1_555
W2D O9D 1_555 1_555
W2D O12D 1_555 1_555
W3D O13D 1_555 1_555
W3D O14D 1_555 1_555
W1E O10E 1_555 1_555
W1E O13E 1_555 1_555
W2E O9E 1_555 1_555
W2E O12E 1_555 1_555
W2E O14E 1_555 1_555
C12A C13A 1_555 1_555
C12D C14D 1_555 1_555
C12E C14E 1_555 1_555

#END
