
#######################################################################
#
#                 Cambridge Crystallographic Data Centre
#                                CCDC 
#
#######################################################################
#
# If this CIF has been generated from an entry in the Cambridge 
# Structural Database, then it will include bibliographic, chemical, 
# crystal, experimental, refinement or atomic coordinate data resulting 
# from the CCDC's data processing and validation procedures.
#
#######################################################################

data_LOTPUF
_symmetry_cell_setting           monoclinic
_symmetry_space_group_name_H-M   'P 21/c'
_symmetry_Int_Tables_number      14
_space_group_name_Hall           '-P 2ybc'
loop_
_symmetry_equiv_pos_site_id
_symmetry_equiv_pos_as_xyz
1 x,y,z
2 x,1/2-y,1/2+z
3 -x,-y,-z
4 -x,1/2+y,1/2-z
_cell_length_a                   12.9406(13)
_cell_length_b                   19.0638(19)
_cell_length_c                   13.2244(14)
_cell_angle_alpha                90
_cell_angle_beta                 107.734(2)
_cell_angle_gamma                90
_cell_volume                     3107.39
loop_
_atom_site_label
_atom_site_type_symbol
_atom_site_fract_x
_atom_site_fract_y
_atom_site_fract_z
Cu1 Cu -0.970730(17) 1.143580(12) -1.256580(18)
N1 N -1.07551(14) 1.04801(10) -1.16327(15)
O1 O -1.13233(14) 1.02427(9) -1.11213(15)
O2 O -1.02938(12) 1.01058(8) -1.21343(12)
O3 O -1.06116(11) 1.11490(8) -1.16444(11)
N2 N -0.85331(14) 1.13062(12) -1.39178(15)
O4 O -0.88767(11) 1.18260(8) -1.34876(11)
O5 O -0.86952(13) 1.07053(9) -1.36172(15)
O6 O -0.80645(15) 1.14137(12) -1.45749(16)
O7 O -1.00736(11) 1.25554(7) -1.21809(11)
H1 H -0.9790 1.2945 -1.2481
C1 C -1.0352(2) 1.27590(13) -1.1265(2)
H2 H -1.1040 1.2539 -1.1278
H3 H -1.0426 1.3270 -1.1256
H4 H -0.9781 1.2608 -1.0627
N3 N -0.10246(12) 1.13354(8) -0.38576(12)
C3 C -0.12538(15) 1.07351(10) -0.44109(16)
H9 H -0.0786 1.0345 -0.4172
C4 C -0.21335(15) 1.06552(10) -0.53090(16)
H10 H -0.2265 1.0217 -0.5669
C5 C -0.28242(14) 1.12189(10) -0.56830(15)
C6 C -0.25932(14) 1.18385(10) -0.51022(15)
H11 H -0.3050 1.2236 -0.5323
C7 C -0.17044(15) 1.18794(10) -0.42069(15)
H12 H -0.1566 1.2308 -0.3822
C8 C -0.37671(14) 1.11819(9) -0.66689(15)
C9 C -0.35985(14) 1.11701(10) -0.76678(15)
C10 C -0.45084(14) 1.12133(9) -0.86161(15)
C11 C -0.55711(14) 1.12428(9) -0.85348(15)
C12 C -0.57394(14) 1.12204(10) -0.75351(15)
C13 C -0.48281(14) 1.11901(10) -0.65842(15)
C14 C -0.50311(16) 1.11499(11) -0.55831(16)
H13 H -0.4436 1.1126 -0.4951
C15 C -0.60585(17) 1.11456(13) -0.55157(18)
H14 H -0.6174 1.1112 -0.4841
C16 C -0.69556(16) 1.11904(12) -0.64464(18)
H15 H -0.7670 1.1195 -0.6391
C17 C -0.68080(15) 1.12276(11) -0.74195(17)
H16 H -0.7422 1.1259 -0.8034
C18 C -0.25335(15) 1.11282(11) -0.77906(17)
H17 H -0.1918 1.1089 -0.7178
C19 C -0.23920(16) 1.11433(11) -0.87657(18)
H18 H -0.1679 1.1117 -0.8823
C20 C -0.32847(16) 1.11970(11) -0.96960(17)
H19 H -0.3171 1.1212 -1.0372
C21 C -0.43092(16) 1.12272(10) -0.96204(16)
H20 H -0.4906 1.1258 -1.0251
N4 N -0.83361(11) 1.13732(8) -1.13242(12)
C22 C -0.79704(16) 1.07584(11) -1.08742(16)
H21 H -0.8342 1.0344 -1.1182
C23 C -0.70759(16) 1.06951(10) -0.99805(17)
H22 H -0.6847 1.0246 -0.9687
C24 C -0.65179(14) 1.12884(9) -0.95174(14)
C25 C -0.68817(16) 1.19267(11) -1.00016(17)
H23 H -0.6513 1.2348 -0.9722
C26 C -0.77818(16) 1.19467(11) -1.08920(17)
H24 H -0.8017 1.2388 -1.1212
Cu1_2 Cu 0.029270(17) 1.143580(12) -0.256580(18)
N3_2 N -1.10246(12) 1.13354(8) -1.38576(12)
O8 O 0.95069(12) 0.63247(7) 0.30756(12)
H5 H 0.9615 0.5864 0.2939
C2 C 0.96302(19) 0.64415(12) 0.41603(18)
H6 H 1.0404 0.6446 0.4562
H7 H 0.9267 0.6066 0.4428
H8 H 0.9306 0.6894 0.4244
C27 C 0.4322(5) 0.8058(2) 0.2603(3)
H25 H 0.4039 0.7601 0.2628
C28 C 0.3722(3) 0.86443(19) 0.2667(2)
H26 H 0.3017 0.8593 0.2738
C29 C 0.4136(2) 0.92973(14) 0.2630(2)
H27 H 0.3725 0.9702 0.2676
C30 C 0.5154(2) 0.93617(14) 0.2526(2)
H28 H 0.5450 0.9815 0.2501
C31 C 0.5742(3) 0.87892(19) 0.2459(2)
H29 H 0.6444 0.8840 0.2380
C32 C 0.5333(5) 0.8150(2) 0.2503(3)
H30 H 0.5756 0.7750 0.2463
loop_
_geom_bond_atom_site_label_1
_geom_bond_atom_site_label_2
_geom_bond_site_symmetry_1
_geom_bond_site_symmetry_2
Cu1 O3 1_555 1_555
N1 O1 1_555 1_555
O2 N1 1_555 1_555
O3 N1 1_555 1_555
N2 O4 1_555 1_555
O4 Cu1 1_555 1_555
O5 Cu1 1_555 1_555
O6 N2 1_555 1_555
O7 Cu1 1_555 1_555
H1 O7 1_555 1_555
C1 O7 1_555 1_555
H2 C1 1_555 1_555
H3 C1 1_555 1_555
H4 C1 1_555 1_555
O8 H5 1_555 1_555
C2 O8 1_555 1_555
H6 C2 1_555 1_555
H7 C2 1_555 1_555
H8 C2 1_555 1_555
N3 C3 1_555 1_555
C3 H9 1_555 1_555
C4 C3 1_555 1_555
H10 C4 1_555 1_555
C5 C4 1_555 1_555
C6 C5 1_555 1_555
H11 C6 1_555 1_555
C7 N3 1_555 1_555
H12 C7 1_555 1_555
C8 C5 1_555 1_555
C9 C8 1_555 1_555
C10 C9 1_555 1_555
C11 C10 1_555 1_555
C12 C11 1_555 1_555
C13 C8 1_555 1_555
C14 C13 1_555 1_555
H13 C14 1_555 1_555
C15 C14 1_555 1_555
H14 C15 1_555 1_555
C16 C15 1_555 1_555
H15 C16 1_555 1_555
C17 C12 1_555 1_555
H16 C17 1_555 1_555
C18 C9 1_555 1_555
H17 C18 1_555 1_555
C19 C18 1_555 1_555
H18 C19 1_555 1_555
C20 C19 1_555 1_555
H19 C20 1_555 1_555
C21 C10 1_555 1_555
H20 C21 1_555 1_555
N4 Cu1 1_555 1_555
C22 N4 1_555 1_555
H21 C22 1_555 1_555
C23 C22 1_555 1_555
H22 C23 1_555 1_555
C24 C11 1_555 1_555
C25 C24 1_555 1_555
H23 C25 1_555 1_555
C26 N4 1_555 1_555
H24 C26 1_555 1_555
C27 H25 1_555 1_555
C28 C27 1_555 1_555
H26 C28 1_555 1_555
C29 C28 1_555 1_555
H27 C29 1_555 1_555
C30 C29 1_555 1_555
H28 C30 1_555 1_555
C31 C30 1_555 1_555
H29 C31 1_555 1_555
C32 C27 1_555 1_555
H30 C32 1_555 1_555
Cu1_2 N3 1_555 1_555
N3_2 Cu1 1_555 1_555
N2 O5 1_555 1_555
C6 C7 1_555 1_555
C12 C13 1_555 1_555
C16 C17 1_555 1_555
C20 C21 1_555 1_555
C23 C24 1_555 1_555
C25 C26 1_555 1_555
C31 C32 1_555 1_555

#END
