
#######################################################################
#
#                 Cambridge Crystallographic Data Centre
#                                CCDC 
#
#######################################################################
#
# If this CIF has been generated from an entry in the Cambridge 
# Structural Database, then it will include bibliographic, chemical, 
# crystal, experimental, refinement or atomic coordinate data resulting 
# from the CCDC's data processing and validation procedures.
#
#######################################################################

data_LOTPOZ
_symmetry_cell_setting           orthorhombic
_symmetry_space_group_name_H-M   'I b a 2'
_symmetry_Int_Tables_number      45
_space_group_name_Hall           'I 2 -2c'
loop_
_symmetry_equiv_pos_site_id
_symmetry_equiv_pos_as_xyz
1 x,y,z
2 -x,-y,z
3 1/2+x,1/2-y,z
4 1/2-x,1/2+y,z
5 1/2+x,1/2+y,1/2+z
6 1/2-x,1/2-y,1/2+z
7 x,-y,1/2+z
8 -x,y,1/2+z
_cell_length_a                   9.905(2)
_cell_length_b                   18.973(5)
_cell_length_c                   23.009(6)
_cell_angle_alpha                90
_cell_angle_beta                 90
_cell_angle_gamma                90
_cell_volume                     4324.03
loop_
_atom_site_label
_atom_site_type_symbol
_atom_site_fract_x
_atom_site_fract_y
_atom_site_fract_z
Ni1 Ni 0.0000 0.0000 0.05104(16)
O6 O -0.1776(6) 0.0558(3) 0.0476(5)
H1 H -0.1739 0.0925 0.0505
H2 H -0.2805 0.0448 0.0494
N3 N 0.0734(10) 0.0679(5) 0.1206(3)
C1 C 0.2022(10) 0.0970(6) 0.1191(4)
H3 H 0.2623 0.0851 0.0885
C2 C 0.2430(9) 0.1434(6) 0.1624(5)
H4 H 0.3311 0.1632 0.1614
C3 C 0.1551(10) 0.1607(5) 0.2073(4)
C4 C 0.0263(9) 0.1317(6) 0.2088(3)
H5 H -0.0338 0.1436 0.2394
C5 C -0.0146(8) 0.0853(6) 0.1655(3)
H6 H -0.1026 0.0655 0.1665
C6 C 0.2084(10) 0.2031(5) 0.2555(4)
C7 C 0.1900(13) 0.2754(5) 0.2499(4)
C8 C 0.2319(14) 0.3205(4) 0.2939(4)
C9 C 0.2921(12) 0.2933(4) 0.3437(4)
C10 C 0.3104(10) 0.2210(4) 0.3493(4)
C11 C 0.2686(9) 0.1759(4) 0.3053(4)
C12 C 0.1271(19) 0.3050(9) 0.2029(6)
H7 H 0.0895 0.2738 0.1749
C13 C 0.1131(19) 0.3795(9) 0.1923(7)
H8 H 0.0742 0.3991 0.1582
C14 C 0.1645(18) 0.4204(9) 0.2393(8)
H9 H 0.1648 0.4703 0.2355
C15 C 0.2109(17) 0.3933(8) 0.2870(8)
H10 H 0.2316 0.4238 0.3185
C16 C 0.2825(19) 0.0984(7) 0.3158(7)
H11 H 0.2463 0.0652 0.2892
C17 C 0.3537(17) 0.0752(9) 0.3684(7)
H12 H 0.3867 0.0284 0.3721
C18 C 0.371(2) 0.1247(11) 0.4129(8)
H13 H 0.3910 0.1067 0.4505
C19 C 0.3634(19) 0.1886(11) 0.4083(7)
H14 H 0.3889 0.2184 0.4396
N4 N -0.0739(8) -0.0681(4) -0.0145(2)
C20 C -0.2114(7) -0.0773(5) -0.0238(4)
H15 H -0.2749 -0.0562 0.0018
C21 C -0.2561(8) -0.1175(6) -0.0705(5)
H16 H -0.3501 -0.1238 -0.0768
C22 C 0.3368(11) 0.3516(5) 0.3921(4)
C23 C 0.4743(10) 0.3609(6) 0.4014(3)
H17 H 0.5378 0.3398 0.3758
C24 C 0.0190(7) -0.0990(5) -0.0519(3)
H18 H 0.1130 -0.0927 -0.0455
O6A O 0.1776(6) -0.0558(3) 0.0476(5)
N3A N -0.0734(10) -0.0679(5) 0.1206(3)
N4A N 0.0739(8) 0.0681(4) -0.0145(2)
C22D C -0.1632(11) -0.1484(5) -0.1079(4)
C21D C 0.2439(8) 0.3825(6) 0.4295(5)
C24D C 0.5190(7) 0.4010(5) 0.4481(3)
C23D C -0.0257(10) -0.1391(6) -0.0986(3)
H1A H 0.1739 -0.0925 0.0505
H2A H 0.2805 -0.0448 0.0494
C9D C -0.2079(12) -0.2067(4) -0.1563(4)
C20D C 0.2886(7) 0.4227(5) 0.4762(4)
H16D H 0.1499 0.3762 0.4232
N4D N 0.4261(8) 0.4319(4) 0.4855(2)
H18D H 0.6130 0.4073 0.4545
H17D H 0.0378 -0.1602 -0.1242
C8D C -0.2681(14) -0.1795(4) -0.2061(4)
C10D C -0.1896(10) -0.2790(4) -0.1507(4)
H15D H 0.2251 0.4438 0.5018
Ni1D Ni 0.5000 0.5000 0.55104(16)
C7D C -0.3100(13) -0.2246(5) -0.2501(4)
C15D C -0.2891(17) -0.1067(8) -0.2130(8)
C11D C -0.2314(9) -0.3241(4) -0.1947(4)
C19D C -0.1366(19) -0.3114(11) -0.0917(7)
C6D C -0.2916(10) -0.2969(5) -0.2445(4)
C12D C -0.3729(19) -0.1950(9) -0.2971(6)
C14D C -0.3355(18) -0.0796(9) -0.2607(8)
H10D H -0.2684 -0.0762 -0.1815
C16D C -0.2175(19) -0.4016(7) -0.1842(7)
C18D C -0.129(2) -0.3753(11) -0.0871(8)
H14D H -0.1111 -0.2816 -0.0604
C3D C -0.3449(10) -0.3393(5) -0.2927(4)
H7D H -0.4105 -0.2262 -0.3251
C13D C -0.3869(19) -0.1205(9) -0.3077(7)
H9D H -0.3352 -0.0297 -0.2645
H11D H -0.2537 -0.4348 -0.2108
C17D C -0.1463(17) -0.4248(9) -0.1316(7)
H13D H -0.1090 -0.3933 -0.0495
C2D C -0.2570(9) -0.3566(6) -0.3376(5)
C4D C -0.4737(9) -0.3683(6) -0.2912(3)
H8D H -0.4258 -0.1009 -0.3418
H12D H -0.1133 -0.4716 -0.1279
C1D C -0.2978(10) -0.4030(6) -0.3809(4)
H4D H -0.1689 -0.3368 -0.3386
H5D H -0.5338 -0.3564 -0.2606
C5D C -0.5146(8) -0.4147(6) -0.3345(3)
N3D N -0.4266(10) -0.4321(5) -0.3794(3)
H3D H -0.2377 -0.4149 -0.4115
H6D H -0.6026 -0.4345 -0.3335
Ni1D_2 Ni -0.5000 -0.5000 -0.44896(16)
N1 N 0.5000 0.0000 0.0259(7)
O1 O 0.3957(12) -0.0035(9) -0.0006(6)
O2 O 0.5000 0.0000 0.0708(10)
O1A O 0.6043(12) 0.0035(9) -0.0006(6)
N2 N -0.072(2) 0.2413(8) 0.0481(15)
O3 O 0.057(2) 0.2170(9) 0.0502(15)
O4 O -0.045(2) 0.3051(7) 0.0551(18)
O5 O -0.1772(17) 0.2005(6) 0.0422(8)
loop_
_geom_bond_atom_site_label_1
_geom_bond_atom_site_label_2
_geom_bond_site_symmetry_1
_geom_bond_site_symmetry_2
Ni1 O6 1_555 1_555
N1 O1 1_555 1_555
O2 N1 1_555 1_555
N2 O3 1_555 1_555
O4 N2 1_555 1_555
O5 N2 1_555 1_555
O6 H1 1_555 1_555
H2 O6 1_555 1_555
N3 Ni1 1_555 1_555
C1 N3 1_555 1_555
H3 C1 1_555 1_555
C2 C1 1_555 1_555
H4 C2 1_555 1_555
C3 C2 1_555 1_555
C4 C3 1_555 1_555
H5 C4 1_555 1_555
C5 N3 1_555 1_555
H6 C5 1_555 1_555
C6 C3 1_555 1_555
C7 C6 1_555 1_555
C8 C7 1_555 1_555
C9 C8 1_555 1_555
C10 C9 1_555 1_555
C11 C6 1_555 1_555
C12 C7 1_555 1_555
H7 C12 1_555 1_555
C13 C12 1_555 1_555
H8 C13 1_555 1_555
C14 C13 1_555 1_555
H9 C14 1_555 1_555
C15 C8 1_555 1_555
H10 C15 1_555 1_555
C16 C11 1_555 1_555
H11 C16 1_555 1_555
C17 C16 1_555 1_555
H12 C17 1_555 1_555
C18 C17 1_555 1_555
H13 C18 1_555 1_555
C19 C10 1_555 1_555
H14 C19 1_555 1_555
N4 Ni1 1_555 1_555
C20 N4 1_555 1_555
H15 C20 1_555 1_555
C21 C20 1_555 1_555
H16 C21 1_555 1_555
C22 C9 1_555 1_555
C23 C22 1_555 1_555
H17 C23 1_555 1_555
C24 N4 1_555 1_555
H18 C24 1_555 1_555
O6A Ni1 1_555 1_555
N3A Ni1 1_555 1_555
N4A Ni1 1_555 1_555
O1A N1 1_555 1_555
C22D C21 1_555 1_555
C21D C22 1_555 1_555
C24D C23 1_555 1_555
C23D C24 1_555 1_555
H1A O6A 1_555 1_555
H2A O6A 1_555 1_555
C9D C22D 1_555 1_555
C20D C21D 1_555 1_555
H16D C21D 1_555 1_555
N4D C24D 1_555 1_555
H18D C24D 1_555 1_555
H17D C23D 1_555 1_555
C8D C9D 1_555 1_555
C10D C9D 1_555 1_555
H15D C20D 1_555 1_555
Ni1D N4D 1_555 1_555
C7D C8D 1_555 1_555
C15D C8D 1_555 1_555
C11D C10D 1_555 1_555
C19D C10D 1_555 1_555
C6D C7D 1_555 1_555
C12D C7D 1_555 1_555
C14D C15D 1_555 1_555
H10D C15D 1_555 1_555
C16D C11D 1_555 1_555
C18D C19D 1_555 1_555
H14D C19D 1_555 1_555
C3D C6D 1_555 1_555
H7D C12D 1_555 1_555
C13D C12D 1_555 1_555
H9D C14D 1_555 1_555
H11D C16D 1_555 1_555
C17D C16D 1_555 1_555
H13D C18D 1_555 1_555
C2D C3D 1_555 1_555
C4D C3D 1_555 1_555
H8D C13D 1_555 1_555
H12D C17D 1_555 1_555
C1D C2D 1_555 1_555
H4D C2D 1_555 1_555
H5D C4D 1_555 1_555
C5D C4D 1_555 1_555
N3D C1D 1_555 1_555
H3D C1D 1_555 1_555
H6D C5D 1_555 1_555
Ni1D_2 N3D 1_555 1_555
C4 C5 1_555 1_555
C10 C11 1_555 1_555
C14 C15 1_555 1_555
C18 C19 1_555 1_555
C22D C23D 1_555 1_555
C20D N4D 1_555 1_555
C11D C6D 1_555 1_555
C14D C13D 1_555 1_555
C18D C17D 1_555 1_555
C5D N3D 1_555 1_555

#END
