
#######################################################################
#
#                 Cambridge Crystallographic Data Centre
#                                CCDC 
#
#######################################################################
#
# If this CIF has been generated from an entry in the Cambridge 
# Structural Database, then it will include bibliographic, chemical, 
# crystal, experimental, refinement or atomic coordinate data resulting 
# from the CCDC's data processing and validation procedures.
#
#######################################################################

data_LOTPAN
_symmetry_cell_setting           triclinic
_symmetry_space_group_name_H-M   'P -1'
_symmetry_Int_Tables_number      2
_space_group_name_Hall           '-P 1'
loop_
_symmetry_equiv_pos_site_id
_symmetry_equiv_pos_as_xyz
1 x,y,z
2 -x,-y,-z
_cell_length_a                   10.882(2)
_cell_length_b                   11.587(2)
_cell_length_c                   13.273(3)
_cell_angle_alpha                113.30(3)
_cell_angle_beta                 96.32(3)
_cell_angle_gamma                95.46(3)
_cell_volume                     1510.02
loop_
_atom_site_label
_atom_site_type_symbol
_atom_site_fract_x
_atom_site_fract_y
_atom_site_fract_z
Cu1 Cu -1.4846(2) 0.7256(4) -0.1304(3)
N1 N -1.6553(16) 0.7309(17) -0.1288(15)
C1 C -1.701(2) 0.835(2) -0.064(2)
H1 H -1.6448 0.9075 -0.0193
C2 C -1.827(2) 0.838(2) -0.062(2)
H2 H -1.8538 0.9110 -0.0137
C3 C -1.9138(18) 0.7349(18) -0.1297(17)
C4 C -1.8682(17) 0.6285(19) -0.1963(17)
H3 H -1.9238 0.5563 -0.2436
C5 C -1.7419(18) 0.628(2) -0.194(2)
H4 H -1.7144 0.5535 -0.2385
C6 C -2.0470(17) 0.736(2) -0.1285(19)
C7 C -2.1394(17) 0.6520(19) -0.219(2)
H5 H -2.1137 0.5954 -0.2824
C8 C -2.0955(18) 0.820(2) -0.0399(19)
H6 H -2.0414 0.8819 0.0203
C9 C -2.2248(19) 0.811(3) -0.040(2)
H7 H -2.2534 0.8609 0.0242
C10 C -2.265(2) 0.652(3) -0.216(2)
H8 H -2.3220 0.5924 -0.2757
N2 N -2.3077(15) 0.7373(18) -0.1274(18)
Cu1_2 Cu -2.4846(2) 0.7256(4) -0.1304(3)
N2_2 N -1.3077(15) 0.7373(18) -0.1274(18)
Cu2 Cu -1.5000 0.5000 0.0000
N3 N -1.3236(19) 0.500(3) 0.010(2)
C11 C -1.280(2) 0.398(2) -0.062(2)
H9 H -1.3366 0.3273 -0.1109
C12 C -1.152(2) 0.398(2) -0.062(2)
H10 H -1.1245 0.3257 -0.1106
C13 C -1.0696(17) 0.497(2) 0.0025(18)
C14 C -1.113(3) 0.607(3) 0.079(3)
H11 H -1.0593 0.6799 0.1282
C15 C -1.240(2) 0.596(2) 0.073(2)
H12 H -1.2698 0.6661 0.1212
N3A N -0.6764(19) 0.500(3) -0.010(2)
C11A C -0.720(2) 0.602(2) 0.062(2)
H9A H -0.6634 0.6727 0.1109
C12A C -0.848(2) 0.602(2) 0.062(2)
H10A H -0.8755 0.6743 0.1106
C13A C -0.9304(17) 0.503(2) -0.0025(18)
C14A C -0.887(3) 0.393(3) -0.079(3)
H11A H -0.9407 0.3201 -0.1282
C15A C -0.760(2) 0.404(2) -0.073(2)
H12A H -0.7302 0.3339 -0.1212
Cu2_2 Cu -0.5000 0.5000 0.0000
N3A_2 N -1.6764(19) 0.500(3) -0.010(2)
N4 N -0.983(4) 0.572(5) 0.533(5)
C16 C -0.996(5) 0.712(5) 0.577(5)
C17 C -1.133(5) 0.721(4) 0.549(5)
N5 N -1.204(4) 0.587(4) 0.488(3)
C18 C -1.111(4) 0.495(3) 0.478(4)
N4A N -1.017(4) 0.428(5) 0.467(5)
C16A C -1.004(5) 0.288(5) 0.423(5)
C17A C -0.867(5) 0.279(4) 0.451(5)
N5A N -0.796(4) 0.413(4) 0.512(3)
C18A C -0.889(4) 0.505(3) 0.522(4)
W1 W -1.77017(7) 0.76784(9) 0.39947(8)
W2 W -1.21067(7) 0.92003(8) 0.41455(8)
W3 W -1.74448(7) 1.01494(8) 0.30891(7)
W4 W -1.45494(9) 0.93546(8) 0.22535(7)
W5 W -1.52683(10) 0.75198(10) 0.59084(9)
W6 W -1.47998(10) 0.68838(9) 0.31748(8)
Si1 Si -1.5000 1.0000 0.5000
O1 O -1.562(2) 0.846(2) 0.463(2)
O2 O -1.638(2) 0.981(2) 0.463(2)
O3 O -1.424(2) 0.921(2) 0.398(2)
O4 O -1.541(2) 1.035(2) 0.395(2)
O5 O -1.688(2) 0.734(3) 0.5176(16)
O6 O -1.289(3) 0.939(3) 0.289(2)
O7 O -1.075(2) 0.883(2) 0.3710(18)
O8 O -1.8937(16) 0.6576(14) 0.3506(14)
O9 O -1.863(2) 1.017(2) 0.2161(16)
O10 O -1.7918(18) 0.8556(14) 0.3053(14)
O11 O -1.4303(16) 1.1128(16) 0.287(2)
O12 O -1.4366(14) 0.901(2) 0.0913(14)
O13 O -1.305(3) 0.757(3) 0.360(2)
O14 O -1.485(2) 0.766(2) 0.215(2)
O15 O -1.627(2) 0.9398(15) 0.217(2)
O16 O -1.472(2) 0.666(2) 0.450(2)
O17 O -1.4737(13) 0.5408(13) 0.2274(13)
O18 O -1.5396(16) 0.6348(17) 0.6344(18)
O19 O -1.189(2) 0.9168(15) 0.5595(15)
O20 O -1.8240(17) 0.9028(16) 0.5146(13)
O21 O -1.6373(19) 1.175(2) 0.3558(18)
O22 O -1.662(3) 0.677(3) 0.310(3)
O1A O -1.438(2) 1.154(2) 0.537(2)
O2A O -1.362(2) 1.019(2) 0.537(2)
O3A O -1.576(2) 1.079(2) 0.602(2)
O4A O -1.459(2) 0.965(2) 0.605(2)
W1A W -1.22983(7) 1.23216(9) 0.60053(8)
W2A W -1.78933(7) 1.07997(8) 0.58545(8)
W3A W -1.25552(7) 0.98506(8) 0.69109(7)
W4A W -1.54506(9) 1.06454(8) 0.77465(7)
W5A W -1.47317(10) 1.24802(10) 0.40916(9)
W6A W -1.52002(10) 1.31162(9) 0.68252(8)
O5A O -1.312(2) 1.266(3) 0.4824(16)
O6A O -1.711(3) 1.061(3) 0.711(2)
O7A O -1.925(2) 1.117(2) 0.6290(18)
O8A O -1.1063(16) 1.3424(14) 0.6494(14)
O9A O -1.137(2) 0.983(2) 0.7839(16)
O10A O -1.2082(18) 1.1444(14) 0.6947(14)
O11A O -1.5697(16) 0.8872(16) 0.713(2)
O12A O -1.5634(14) 1.099(2) 0.9087(14)
O13A O -1.695(3) 1.243(3) 0.640(2)
O14A O -1.515(2) 1.234(2) 0.785(2)
O15A O -1.373(2) 1.0602(15) 0.783(2)
O16A O -1.528(2) 1.334(2) 0.550(2)
O17A O -1.5263(13) 1.4592(13) 0.7726(13)
O18A O -1.4604(16) 1.3652(17) 0.3656(18)
O19A O -1.811(2) 1.0832(15) 0.4405(15)
O20A O -1.1760(17) 1.0972(16) 0.4854(13)
O21A O -1.3627(19) 0.825(2) 0.6442(18)
O22A O -1.338(3) 1.323(3) 0.690(3)
loop_
_geom_bond_atom_site_label_1
_geom_bond_atom_site_label_2
_geom_bond_site_symmetry_1
_geom_bond_site_symmetry_2
W1 O1 1_555 1_555
W2 O3 1_555 1_555
W3 O2 1_555 1_555
W4 O3 1_555 1_555
W5 O1 1_555 1_555
W6 O1 1_555 1_555
Si1 O1 1_555 1_555
O2 Si1 1_555 1_555
O3 W6 1_555 1_555
O4 W3 1_555 1_555
O5 W1 1_555 1_555
O6 W2 1_555 1_555
O7 W2 1_555 1_555
O8 W1 1_555 1_555
O9 W3 1_555 1_555
O10 W1 1_555 1_555
O11 W4 1_555 1_555
O12 W4 1_555 1_555
O13 W2 1_555 1_555
O14 W4 1_555 1_555
O15 W3 1_555 1_555
O16 W5 1_555 1_555
O17 W6 1_555 1_555
O18 W5 1_555 1_555
O19 W2 1_555 1_555
O20 W1 1_555 1_555
O21 W3 1_555 1_555
O22 W1 1_555 1_555
Cu1 N1 1_555 1_555
N1 C1 1_555 1_555
C1 H1 1_555 1_555
C2 C1 1_555 1_555
H2 C2 1_555 1_555
C3 C2 1_555 1_555
C4 C3 1_555 1_555
H3 C4 1_555 1_555
C5 N1 1_555 1_555
H4 C5 1_555 1_555
C6 C3 1_555 1_555
C7 C6 1_555 1_555
H5 C7 1_555 1_555
C8 C6 1_555 1_555
H6 C8 1_555 1_555
C9 C8 1_555 1_555
H7 C9 1_555 1_555
C10 C7 1_555 1_555
H8 C10 1_555 1_555
N2 C9 1_555 1_555
Cu2 N3 1_555 1_555
N3 C11 1_555 1_555
C11 H9 1_555 1_555
C12 C11 1_555 1_555
H10 C12 1_555 1_555
C13 C12 1_555 1_555
C14 C13 1_555 1_555
H11 C14 1_555 1_555
C15 N3 1_555 1_555
H12 C15 1_555 1_555
N4 C16 1_555 1_555
C16 C17 1_555 1_555
C17 N5 1_555 1_555
N5 C18 1_555 1_555
C18 N4 1_555 1_555
O1A Si1 1_555 1_555
O2A W2 1_555 1_555
O3A Si1 1_555 1_555
O4A W5 1_555 1_555
W1A O1A 1_555 1_555
W2A O2 1_555 1_555
W3A O19 1_555 1_555
W4A O3A 1_555 1_555
W5A O4 1_555 1_555
W6A O1A 1_555 1_555
O5A W1A 1_555 1_555
O6A W2A 1_555 1_555
O7A W2A 1_555 1_555
O8A W1A 1_555 1_555
O9A W3A 1_555 1_555
O10A W1A 1_555 1_555
O11A W5 1_555 1_555
O12A W4A 1_555 1_555
O13A W2A 1_555 1_555
O14A W4A 1_555 1_555
O15A W3A 1_555 1_555
O16A W5A 1_555 1_555
O17A W6A 1_555 1_555
O18A W5A 1_555 1_555
O19A W3 1_555 1_555
O20A W2 1_555 1_555
O21A W5 1_555 1_555
O22A W1A 1_555 1_555
Cu1_2 N2 1_555 1_555
N2_2 Cu1 1_555 1_555
N3A C11A 1_555 1_555
C11A H9A 1_555 1_555
C12A C11A 1_555 1_555
H10A C12A 1_555 1_555
C13A C13 1_555 1_555
C14A C13A 1_555 1_555
H11A C14A 1_555 1_555
C15A N3A 1_555 1_555
H12A C15A 1_555 1_555
Cu2_2 N3A 1_555 1_555
N3A_2 Cu2 1_555 1_555
N4A N4 1_555 1_555
C16A N4A 1_555 1_555
C17A C16A 1_555 1_555
N5A C17A 1_555 1_555
C18A N4 1_555 1_555
W3 O10 1_555 1_555
W4 O4 1_555 1_555
W4 O6 1_555 1_555
W4 O15 1_555 1_555
W5 O5 1_555 1_555
W6 O13 1_555 1_555
W6 O14 1_555 1_555
W6 O16 1_555 1_555
W6 O22 1_555 1_555
Si1 O3 1_555 1_555
Si1 O4 1_555 1_555
Si1 O2A 1_555 1_555
Si1 O4A 1_555 1_555
O2 O4 1_555 1_555
O2 O3A 1_555 1_555
O3 O2A 1_555 1_555
O11 W5A 1_555 1_555
O20 W2A 1_555 1_555
O21 W5A 1_555 1_555
C4 C5 1_555 1_555
C10 N2 1_555 1_555
C14 C15 1_555 1_555
C18 N4A 1_555 1_555
O1A W5A 1_555 1_555
O2A O4A 1_555 1_555
O2A W3A 1_555 1_555
O3A W2A 1_555 1_555
O3A W6A 1_555 1_555
O4A W3A 1_555 1_555
O4A W4A 1_555 1_555
W1A O20A 1_555 1_555
W2A O19A 1_555 1_555
W3A O10A 1_555 1_555
W3A O21A 1_555 1_555
W4A O6A 1_555 1_555
W4A O11A 1_555 1_555
W4A O15A 1_555 1_555
W5A O5A 1_555 1_555
W6A O13A 1_555 1_555
W6A O14A 1_555 1_555
W6A O16A 1_555 1_555
W6A O22A 1_555 1_555
C12A C13A 1_555 1_555
C14A C15A 1_555 1_555
N4A C18A 1_555 1_555
N5A C18A 1_555 1_555

#END
