
#######################################################################
#
#                 Cambridge Crystallographic Data Centre
#                                CCDC 
#
#######################################################################
#
# If this CIF has been generated from an entry in the Cambridge 
# Structural Database, then it will include bibliographic, chemical, 
# crystal, experimental, refinement or atomic coordinate data resulting 
# from the CCDC's data processing and validation procedures.
#
#######################################################################

data_LOTPIV
_symmetry_cell_setting           monoclinic
_symmetry_space_group_name_H-M   'P 21/c'
_symmetry_Int_Tables_number      14
_space_group_name_Hall           '-P 2ybc'
loop_
_symmetry_equiv_pos_site_id
_symmetry_equiv_pos_as_xyz
1 x,y,z
2 -x,1/2+y,1/2-z
3 -x,-y,-z
4 x,1/2-y,1/2+z
_cell_length_a                   10.8252(14)
_cell_length_b                   10.8613(14)
_cell_length_c                   23.243(3)
_cell_angle_alpha                90
_cell_angle_beta                 104.379(5)
_cell_angle_gamma                90
_cell_volume                     2647.21
loop_
_atom_site_label
_atom_site_type_symbol
_atom_site_fract_x
_atom_site_fract_y
_atom_site_fract_z
Mo1 Mo 0.95517(9) 0.31331(7) -0.04214(4)
Mo2 Mo 0.98293(8) -0.09313(9) 0.14352(3)
Mo3 Mo 0.70897(6) 0.03507(8) 0.04377(3)
Mo4 Mo 1.28283(6) -0.09341(8) 0.10660(3)
Mo5 Mo 0.97556(7) 0.22629(6) 0.10691(3)
Mo6 Mo 1.25398(6) 0.21281(6) 0.05116(3)
Cu1 Cu 0.99899(9) 0.09534(15) 0.27086(6)
P1 P 1.0000 0.0000 0.0000
O1 O 0.9860(10) -0.2431(12) 0.1083(5)
O2 O 1.1373(8) 0.0232(8) 0.0190(4)
O3 O 0.9589(8) -0.1234(8) -0.0218(4)
O4 O 0.8116(9) -0.0650(8) 0.1091(4)
O5 O 1.0007(9) 0.0862(9) 0.1536(4)
O6 O 0.7968(9) 0.1683(9) 0.0789(4)
O7 O 1.2049(10) -0.2519(11) 0.0774(5)
O8 O 0.9324(8) 0.0388(8) 0.0505(4)
O9 O 1.3696(9) 0.3138(9) 0.0789(3)
O10 O 0.9564(6) 0.3338(8) 0.1545(3)
O11 O 0.5769(8) 0.0446(8) 0.0663(4)
O12 O 1.1377(8) 0.3051(8) -0.0031(3)
O13 O 1.4150(8) -0.1412(7) 0.1539(3)
O14 O 1.3116(8) 0.1288(7) -0.0041(3)
O15 O 0.9397(8) 0.4584(7) -0.0624(3)
O16 O 0.9248(6) 0.3153(7) 0.0321(3)
O17 O 1.3337(7) -0.1015(6) 0.0312(3)
O18 O 1.3066(8) 0.0738(7) 0.1051(3)
O19 O 1.1408(7) 0.2442(7) 0.1056(3)
O20 O 0.9823(6) -0.1326(6) 0.2128(2)
O21 O 1.1671(9) -0.0837(11) 0.1520(5)
O22 O 1.0626(8) -0.0970(8) 0.0527(4)
N1 N 0.8216(6) 0.0834(8) 0.2653(3)
N2 N 0.1771(6) 0.0982(8) 0.2771(3)
C1 C 0.7324(8) 0.1354(10) 0.2210(4)
H1 H 0.7581 0.1734 0.1901
C2 C 0.6045(7) 0.1340(9) 0.2200(4)
H2 H 0.5452 0.1686 0.1881
C3 C 0.5644(6) 0.0810(7) 0.2665(3)
C4 C 0.4298(6) 0.0864(7) 0.2696(3)
C5 C 0.3563(7) 0.1899(8) 0.2514(4)
H3 H 0.3901 0.2571 0.2358
C6 C 0.2313(7) 0.1923(9) 0.2565(4)
H4 H 0.1834 0.2632 0.2450
C7 C 0.2473(8) -0.0019(10) 0.2934(5)
H5 H 0.2099 -0.0692 0.3071
C8 C 0.3738(8) -0.0113(9) 0.2909(4)
H6 H 0.4199 -0.0827 0.3035
C9 C 0.6571(7) 0.0232(8) 0.3110(3)
H7 H 0.6341 -0.0168 0.3422
C10 C 0.7821(7) 0.0259(9) 0.3084(4)
H8 H 0.8423 -0.0140 0.3381
O2B O 0.8627(8) -0.0232(8) -0.0190(4)
O3B O 1.0411(8) 0.1234(8) 0.0218(4)
O8B O 1.0676(8) -0.0388(8) -0.0505(4)
O22B O 0.9374(8) 0.0970(8) -0.0527(4)
Mo1B Mo 1.04483(9) -0.31331(7) 0.04214(4)
Mo2B Mo 1.01707(8) 0.09313(9) -0.14352(3)
Mo3B Mo 1.29103(6) -0.03507(8) -0.04377(3)
Mo4B Mo 0.71717(6) 0.09341(8) -0.10660(3)
Mo5B Mo 1.02444(7) -0.22629(6) -0.10691(3)
Mo6B Mo 0.74602(6) -0.21281(6) -0.05116(3)
Cu1B Cu 1.00101(9) -0.09534(15) -0.27086(6)
O1B O 1.0140(10) 0.2431(12) -0.1083(5)
O4B O 1.1884(9) 0.0650(8) -0.1091(4)
O5B O 0.9993(9) -0.0862(9) -0.1536(4)
O6B O 1.2032(9) -0.1683(9) -0.0789(4)
O7B O 0.7951(10) 0.2519(11) -0.0774(5)
O9B O 0.6304(9) -0.3138(9) -0.0789(3)
O10B O 1.0436(6) -0.3338(8) -0.1545(3)
O11B O 1.4231(8) -0.0446(8) -0.0663(4)
O12B O 0.8623(8) -0.3051(8) 0.0031(3)
O13B O 0.5850(8) 0.1412(7) -0.1539(3)
O14B O 0.6884(8) -0.1288(7) 0.0041(3)
O15B O 1.0603(8) -0.4584(7) 0.0624(3)
O16B O 1.0752(6) -0.3153(7) -0.0321(3)
O17B O 0.6663(7) 0.1015(6) -0.0312(3)
O18B O 0.6934(8) -0.0738(7) -0.1051(3)
O19B O 0.8592(7) -0.2442(7) -0.1056(3)
O20B O 1.0177(6) 0.1326(6) -0.2128(2)
O21B O 0.8329(9) 0.0837(11) -0.1520(5)
N1B N 1.1784(6) -0.0834(8) -0.2653(3)
N2B N 1.8229(6) -0.0982(8) -0.2771(3)
C1B C 1.2676(8) -0.1354(10) -0.2210(4)
H1B H 1.2419 -0.1734 -0.1901
C2B C 1.3955(7) -0.1340(9) -0.2200(4)
H2B H 1.4548 -0.1686 -0.1881
C3B C 1.4356(6) -0.0810(7) -0.2665(3)
C4B C 1.5702(6) -0.0864(7) -0.2696(3)
C5B C 1.6437(7) -0.1899(8) -0.2514(4)
H3B H 1.6099 -0.2571 -0.2358
C6B C 1.7687(7) -0.1923(9) -0.2565(4)
H4B H 1.8166 -0.2632 -0.2450
C7B C 1.7527(8) 0.0019(10) -0.2934(5)
H5B H 1.7901 0.0692 -0.3071
C8B C 1.6262(8) 0.0113(9) -0.2909(4)
H6B H 1.5801 0.0827 -0.3035
C9B C 1.3429(7) -0.0232(8) -0.3110(3)
H7B H 1.3659 0.0168 -0.3422
C10B C 1.2179(7) -0.0259(9) -0.3084(4)
H8B H 1.1577 0.0140 -0.3381
Cu1_2 Cu -0.00101(9) 0.09534(15) 0.27086(6)
Cu1B_2 Cu 2.00101(9) -0.09534(15) -0.27086(6)
N2_2 N 1.1771(6) 0.0982(8) 0.2771(3)
N2B_2 N 0.8229(6) -0.0982(8) -0.2771(3)
C11 C 1.3549(15) 0.5628(13) -0.0188(7)
N3 N 1.3101(12) 0.4672(16) -0.0583(8)
C12 C 1.3919(16) 0.3730(15) -0.0654(8)
C13 C 1.5185(15) 0.3744(15) -0.0331(9)
C14 C 1.5634(13) 0.4699(17) 0.0063(9)
C15 C 1.4815(16) 0.5641(13) 0.0135(7)
N4 N 1.359(2) 0.2686(17) -0.1034(10)
C11B C 1.6451(15) 0.4372(13) 0.0188(7)
N3B N 1.6899(12) 0.5328(16) 0.0583(8)
C12B C 1.6081(16) 0.6270(15) 0.0654(8)
C13B C 1.4815(15) 0.6256(15) 0.0331(9)
C14B C 1.4366(13) 0.5301(17) -0.0063(9)
C15B C 1.5185(16) 0.4359(13) -0.0135(7)
N4B N 1.641(2) 0.7314(17) 0.1034(10)
loop_
_geom_bond_atom_site_label_1
_geom_bond_atom_site_label_2
_geom_bond_site_symmetry_1
_geom_bond_site_symmetry_2
Mo1 O12 1_555 1_555
Mo2 O1 1_555 1_555
Mo3 O4 1_555 1_555
Mo4 O2 1_555 1_555
Mo5 O5 1_555 1_555
Mo6 O2 1_555 1_555
Cu1 O5 1_555 1_555
P1 O2 1_555 1_555
O1 Mo1B 1_555 1_555
O2 O3B 1_555 1_555
O3 P1 1_555 1_555
O4 Mo2 1_555 1_555
O5 Mo2 1_555 1_555
O6 Mo3 1_555 1_555
O7 Mo4 1_555 1_555
O8 Mo2 1_555 1_555
O9 Mo6 1_555 1_555
O10 Mo5 1_555 1_555
O11 Mo3 1_555 1_555
O12 Mo6 1_555 1_555
O13 Mo4 1_555 1_555
O14 Mo6 1_555 1_555
O15 Mo1 1_555 1_555
O16 Mo1 1_555 1_555
O17 Mo4 1_555 1_555
O18 Mo4 1_555 1_555
O19 Mo5 1_555 1_555
O20 Mo2 1_555 1_555
O21 Mo2 1_555 1_555
O22 Mo2 1_555 1_555
N1 Cu1 1_555 1_555
N2 C6 1_555 1_555
C1 N1 1_555 1_555
H1 C1 1_555 1_555
C2 C1 1_555 1_555
H2 C2 1_555 1_555
C3 C2 1_555 1_555
C4 C3 1_555 1_555
C5 C4 1_555 1_555
H3 C5 1_555 1_555
C6 C5 1_555 1_555
H4 C6 1_555 1_555
C7 N2 1_555 1_555
H5 C7 1_555 1_555
C8 C4 1_555 1_555
H6 C8 1_555 1_555
C9 C3 1_555 1_555
H7 C9 1_555 1_555
C10 N1 1_555 1_555
H8 C10 1_555 1_555
C11 N3 1_555 1_555
N3 C12 1_555 1_555
C12 C13 1_555 1_555
C13 C14 1_555 1_555
C14 C15 1_555 1_555
C15 C11 1_555 1_555
N4 C12 1_555 1_555
O2B Mo3 1_555 1_555
O3B Mo1 1_555 1_555
O8B P1 1_555 1_555
O22B Mo1 1_555 1_555
Mo1B O3 1_555 1_555
Mo2B O8B 1_555 1_555
Mo3B O2 1_555 1_555
Mo4B O2B 1_555 1_555
Mo5B O3 1_555 1_555
Mo6B O3 1_555 1_555
Cu1B O5B 1_555 1_555
O1B Mo1 1_555 1_555
O4B Mo2B 1_555 1_555
O5B Mo2B 1_555 1_555
O6B Mo3B 1_555 1_555
O7B Mo1 1_555 1_555
O9B Mo6B 1_555 1_555
O10B Mo5B 1_555 1_555
O11B Mo3B 1_555 1_555
O12B Mo1B 1_555 1_555
O13B Mo4B 1_555 1_555
O14B Mo3 1_555 1_555
O15B Mo1B 1_555 1_555
O16B Mo1B 1_555 1_555
O17B Mo3 1_555 1_555
O18B Mo4B 1_555 1_555
O19B Mo5B 1_555 1_555
O20B Mo2B 1_555 1_555
O21B Mo2B 1_555 1_555
N1B Cu1B 1_555 1_555
N2B C6B 1_555 1_555
C1B N1B 1_555 1_555
H1B C1B 1_555 1_555
C2B C1B 1_555 1_555
H2B C2B 1_555 1_555
C3B C2B 1_555 1_555
C4B C3B 1_555 1_555
C5B C4B 1_555 1_555
H3B C5B 1_555 1_555
C6B C5B 1_555 1_555
H4B C6B 1_555 1_555
C7B N2B 1_555 1_555
H5B C7B 1_555 1_555
C8B C4B 1_555 1_555
H6B C8B 1_555 1_555
C9B C3B 1_555 1_555
H7B C9B 1_555 1_555
C10B N1B 1_555 1_555
H8B C10B 1_555 1_555
Cu1_2 N2 1_555 1_555
Cu1B_2 N2B 1_555 1_555
N2_2 Cu1 1_555 1_555
N2B_2 Cu1B 1_555 1_555
C11B C13 1_555 1_555
N3B C14 1_555 1_555
C12B C15 1_555 1_555
C13B C11 1_555 1_555
C14B C11 1_555 1_555
C15B C12 1_555 1_555
N4B C12B 1_555 1_555
Mo3 O8 1_555 1_555
Mo4 O21 1_555 1_555
Mo4 O22 1_555 1_555
Mo5 O6 1_555 1_555
Mo5 O8 1_555 1_555
Mo5 O16 1_555 1_555
Mo5 O3B 1_555 1_555
Mo6 O18 1_555 1_555
Mo6 O19 1_555 1_555
Mo6 O3B 1_555 1_555
P1 O8 1_555 1_555
P1 O22 1_555 1_555
P1 O2B 1_555 1_555
P1 O3B 1_555 1_555
P1 O22B 1_555 1_555
O2 O8B 1_555 1_555
O3 O2B 1_555 1_555
O3 O8B 1_555 1_555
O7 Mo1B 1_555 1_555
O8 O2B 1_555 1_555
O8 O3B 1_555 1_555
O14 Mo3B 1_555 1_555
O17 Mo3B 1_555 1_555
O22 Mo1B 1_555 1_555
C7 C8 1_555 1_555
C9 C10 1_555 1_555
N3 C14B 1_555 1_555
C13 C15B 1_555 1_555
C14 C11B 1_555 1_555
C14 C15B 1_555 1_555
C15 C13B 1_555 1_555
C15 C14B 1_555 1_555
O2B Mo6B 1_555 1_555
O8B Mo3B 1_555 1_555
O8B Mo5B 1_555 1_555
O22B Mo2B 1_555 1_555
O22B Mo4B 1_555 1_555
Mo2B O1B 1_555 1_555
Mo3B O4B 1_555 1_555
Mo4B O7B 1_555 1_555
Mo4B O17B 1_555 1_555
Mo4B O21B 1_555 1_555
Mo5B O5B 1_555 1_555
Mo5B O6B 1_555 1_555
Mo5B O16B 1_555 1_555
Mo6B O12B 1_555 1_555
Mo6B O14B 1_555 1_555
Mo6B O18B 1_555 1_555
Mo6B O19B 1_555 1_555
C7B C8B 1_555 1_555
C9B C10B 1_555 1_555
C11B N3B 1_555 1_555
C11B C15B 1_555 1_555
N3B C12B 1_555 1_555
C12B C13B 1_555 1_555
C13B C14B 1_555 1_555
C14B C15B 1_555 1_555

#END
