
#######################################################################
#
#                 Cambridge Crystallographic Data Centre
#                                CCDC 
#
#######################################################################
#
# If this CIF has been generated from an entry in the Cambridge 
# Structural Database, then it will include bibliographic, chemical, 
# crystal, experimental, refinement or atomic coordinate data resulting 
# from the CCDC's data processing and validation procedures.
#
#######################################################################

data_LOTPIT
_symmetry_cell_setting           monoclinic
_symmetry_space_group_name_H-M   'C 2/c'
_symmetry_Int_Tables_number      15
_space_group_name_Hall           '-C 2yn'
loop_
_symmetry_equiv_pos_site_id
_symmetry_equiv_pos_as_xyz
1 x,y,z
2 1/2+x,1/2+y,z
3 x,-y,1/2+z
4 1/2+x,1/2-y,1/2+z
5 -x,-y,-z
6 1/2-x,1/2-y,-z
7 -x,y,1/2-z
8 1/2-x,1/2+y,1/2-z
_cell_length_a                   13.7922(15)
_cell_length_b                   24.529(3)
_cell_length_c                   15.5154(17)
_cell_angle_alpha                90
_cell_angle_beta                 101.439(2)
_cell_angle_gamma                90
_cell_volume                     5144.73
loop_
_atom_site_label
_atom_site_type_symbol
_atom_site_fract_x
_atom_site_fract_y
_atom_site_fract_z
N4 N 0.2896(11) -0.3423(6) 0.8341(7)
C25 C 0.1017(7) -0.3613(4) 0.7800(5)
C26 C 0.0512(7) -0.4106(4) 0.7659(6)
H17 H 0.0860 -0.4440 0.7779
C27 C 0.0506(6) -0.3162(4) 0.7648(5)
H18 H 0.0842 -0.2823 0.7744
C28 C 0.2037(15) -0.3526(7) 0.8112(8)
C26F C -0.0512(7) -0.4106(4) 0.7341(6)
C27F C -0.0506(6) -0.3162(4) 0.7352(5)
C25F C -0.1017(7) -0.3613(4) 0.7200(5)
H17F H -0.0860 -0.4440 0.7221
H18F H -0.0842 -0.2823 0.7256
C28F C -0.2037(15) -0.3526(7) 0.6888(8)
N4F N -0.2896(11) -0.3423(6) 0.6659(7)
Cu1 Cu 0.0000 0.00002(3) 0.7500
O1 O -0.1049(3) -0.0016(2) 0.8563(3)
O2 O -0.2446(8) -0.0131(3) 0.8264(7)
O3 O -0.1969(4) -0.0216(2) 0.9454(3)
N1 N -0.1827(5) 0.0091(5) 0.8758(4)
N2 N 0.0837(3) -0.05905(15) 0.8197(2)
N3 N 0.0743(3) 0.05951(15) 0.8258(2)
C1 C 0.1189(3) -0.10047(18) 0.7776(3)
H1 H 0.1133 -0.0980 0.7157
C2 C 0.1725(3) 0.06609(19) 0.8371(3)
H2 H 0.2110 0.0395 0.8145
C3 C 0.1625(3) -0.14618(18) 0.8203(3)
H3 H 0.1862 -0.1744 0.7880
C4 C 0.2187(4) 0.11123(19) 0.8813(3)
H4 H 0.2885 0.1149 0.8889
C5 C 0.1713(3) -0.15061(19) 0.9100(3)
C6 C 0.1651(4) 0.15088(19) 0.9145(3)
C7 C 0.1385(4) -0.1073(2) 0.9530(3)
H5 H 0.1458 -0.1082 1.0152
C8 C 0.0633(4) 0.1427(2) 0.9029(3)
H6 H 0.0230 0.1685 0.9253
C9 C 0.0954(3) -0.0627(2) 0.9070(3)
H7 H 0.0731 -0.0335 0.9384
C10 C 0.0217(4) 0.0973(2) 0.8592(3)
H8 H -0.0477 0.0924 0.8521
C11 C 0.2121(3) -0.20167(19) 0.9569(3)
C12 C 0.2101(3) 0.20137(18) 0.9578(3)
C13 C 0.1467(3) -0.24235(18) 0.9730(3)
C14 C 0.1969(3) 0.25140(19) 0.9119(3)
C15 C 0.3144(3) -0.20856(19) 0.9835(3)
C16 C 0.2629(3) 0.19957(19) 1.0457(3)
C17 C 0.0421(3) -0.2374(2) 0.9468(3)
H9 H 0.0151 -0.2051 0.9180
C18 C 0.1450(4) 0.2546(2) 0.8222(3)
H10 H 0.1197 0.2223 0.7921
C19 C -0.0202(4) -0.2776(2) 0.9616(3)
H11 H -0.0896 -0.2732 0.9430
C20 C 0.1318(4) 0.3033(2) 0.7798(3)
H12 H 0.0960 0.3049 0.7208
C21 C 0.0181(4) -0.3259(2) 1.0046(3)
H13 H -0.0258 -0.3538 1.0151
C22 C 0.1705(4) 0.3516(2) 0.8223(3)
H14 H 0.1601 0.3854 0.7918
C23 C 0.3833(4) -0.1671(2) 0.9689(3)
H15 H 0.3590 -0.1343 0.9401
C24 C 0.2778(4) 0.1496(2) 1.0942(3)
H16 H 0.2508 0.1167 1.0671
O1F O 0.1049(3) -0.0016(2) 0.6437(3)
N2F N -0.0837(3) -0.05905(15) 0.6803(2)
N3F N -0.0743(3) 0.05951(15) 0.6742(2)
C15E C 0.1856(3) -0.29144(19) 1.0165(3)
C16E C 0.2371(3) 0.30043(19) 0.9543(3)
C13E C 0.3533(3) -0.25765(18) 1.0270(3)
C14E C 0.3031(3) 0.24860(19) 1.0881(3)
C23E C 0.1167(4) -0.3329(2) 1.0311(3)
C24E C 0.2222(4) 0.3504(2) 0.9058(3)
C21E C 0.4819(4) -0.1741(2) 0.9954(3)
C22E C 0.3295(4) 0.1484(2) 1.1777(3)
N1F N 0.1827(5) 0.0091(5) 0.6242(4)
C11E C 0.2879(3) -0.29833(19) 1.0431(3)
C12E C 0.2899(3) 0.29863(18) 1.0422(3)
C17E C 0.4579(3) -0.2626(2) 1.0532(3)
C18E C 0.3550(4) 0.2454(2) 1.1778(3)
H15E H 0.1410 -0.3657 1.0599
H16E H 0.2492 0.3833 0.9329
C19E C 0.5202(4) -0.2224(2) 1.0384(3)
H13E H 0.5258 -0.1462 0.9849
C20E C 0.3682(4) 0.1967(2) 1.2202(3)
H14E H 0.3399 0.1146 1.2082
O2F O 0.2446(8) -0.0131(3) 0.6736(7)
O3F O 0.1969(4) -0.0216(2) 0.5546(3)
C5E C 0.3287(3) -0.34939(19) 1.0900(3)
C6E C 0.3349(4) 0.34912(19) 1.0855(3)
H9E H 0.4849 -0.2949 1.0820
H10E H 0.3803 0.2777 1.2079
H11E H 0.5896 -0.2268 1.0570
H12E H 0.4040 0.1951 1.2792
C3E C 0.3375(3) -0.35382(18) 1.1797(3)
C7E C 0.3615(4) -0.3927(2) 1.0470(3)
C4E C 0.2813(4) 0.38877(19) 1.1187(3)
C8E C 0.4367(4) 0.3573(2) 1.0971(3)
C1E C 0.3811(3) -0.39953(18) 1.2224(3)
H3E H 0.3138 -0.3256 1.2120
H5E H 0.3542 -0.3918 0.9848
C9E C 0.4046(3) -0.4373(2) 1.0930(3)
C2E C 0.3275(3) 0.43391(19) 1.1629(3)
H4E H 0.2115 0.3851 1.1111
H6E H 0.4770 0.3315 1.0747
C10E C 0.4783(4) 0.4027(2) 1.1408(3)
N2E N 0.4163(3) -0.44095(15) 1.1803(2)
H1E H 0.3867 -0.4020 1.2843
H7E H 0.4269 -0.4665 1.0616
N3E N 0.4257(3) 0.44049(15) 1.1742(2)
H2E H 0.2890 0.4605 1.1855
H8E H 0.5477 0.4076 1.1479
Cu1C Cu 0.5000 -0.50002(3) 1.2500
Cu1C_2 Cu 0.5000 0.49998(3) 1.2500
N5? N -0.3598(17) -0.0400(6) 0.6760(10)
C29? C -0.4096(10) -0.0274(3) 0.6156(6)
C30? C -0.5128(18) -0.0331(7) 0.6162(11)
C31? C -0.4746(9) -0.0061(5) 0.5312(8)
C32? C -0.5736(5) -0.0073(3) 0.5296(6)
C33? C -0.6261(12) 0.0121(6) 0.4509(14)
loop_
_geom_bond_atom_site_label_1
_geom_bond_atom_site_label_2
_geom_bond_site_symmetry_1
_geom_bond_site_symmetry_2
Cu1 O1 1_555 1_555
O1 N1 1_555 1_555
O2 N1 1_555 1_555
O3 N1 1_555 1_555
N2 Cu1 1_555 1_555
N3 Cu1 1_555 1_555
C1 N2 1_555 1_555
H1 C1 1_555 1_555
C2 N3 1_555 1_555
H2 C2 1_555 1_555
C3 C1 1_555 1_555
H3 C3 1_555 1_555
C4 C2 1_555 1_555
H4 C4 1_555 1_555
C5 C3 1_555 1_555
C6 C4 1_555 1_555
C7 C5 1_555 1_555
H5 C7 1_555 1_555
C8 C6 1_555 1_555
H6 C8 1_555 1_555
C9 N2 1_555 1_555
H7 C9 1_555 1_555
C10 N3 1_555 1_555
H8 C10 1_555 1_555
C11 C5 1_555 1_555
C12 C6 1_555 1_555
C13 C11 1_555 1_555
C14 C12 1_555 1_555
C15 C11 1_555 1_555
C16 C12 1_555 1_555
C17 C13 1_555 1_555
H9 C17 1_555 1_555
C18 C14 1_555 1_555
H10 C18 1_555 1_555
C19 C17 1_555 1_555
H11 C19 1_555 1_555
C20 C18 1_555 1_555
H12 C20 1_555 1_555
C21 C19 1_555 1_555
H13 C21 1_555 1_555
C22 C20 1_555 1_555
H14 C22 1_555 1_555
C23 C15 1_555 1_555
H15 C23 1_555 1_555
C24 C16 1_555 1_555
H16 C24 1_555 1_555
N4 C28 1_555 1_555
C25 C26 1_555 1_555
C26 H17 1_555 1_555
C27 C25 1_555 1_555
H18 C27 1_555 1_555
C28 C25 1_555 1_555
O1F Cu1 1_555 1_555
N2F Cu1 1_555 1_555
N3F Cu1 1_555 1_555
C15E C13 1_555 1_555
C16E C14 1_555 1_555
C13E C15 1_555 1_555
C14E C16 1_555 1_555
C23E C21 1_555 1_555
C24E C22 1_555 1_555
C21E C23 1_555 1_555
C22E C24 1_555 1_555
C26F C26 1_555 1_555
C27F C27 1_555 1_555
N1F O1F 1_555 1_555
C11E C15E 1_555 1_555
C12E C16E 1_555 1_555
C17E C13E 1_555 1_555
C18E C14E 1_555 1_555
H15E C23E 1_555 1_555
H16E C24E 1_555 1_555
C19E C21E 1_555 1_555
H13E C21E 1_555 1_555
C20E C22E 1_555 1_555
H14E C22E 1_555 1_555
C25F C26F 1_555 1_555
H17F C26F 1_555 1_555
H18F C27F 1_555 1_555
O2F N1F 1_555 1_555
O3F N1F 1_555 1_555
C5E C11E 1_555 1_555
C6E C12E 1_555 1_555
H9E C17E 1_555 1_555
H10E C18E 1_555 1_555
H11E C19E 1_555 1_555
H12E C20E 1_555 1_555
C28F C25F 1_555 1_555
C3E C5E 1_555 1_555
C7E C5E 1_555 1_555
C4E C6E 1_555 1_555
C8E C6E 1_555 1_555
N4F C28F 1_555 1_555
C1E C3E 1_555 1_555
H3E C3E 1_555 1_555
H5E C7E 1_555 1_555
C9E C7E 1_555 1_555
C2E C4E 1_555 1_555
H4E C4E 1_555 1_555
H6E C8E 1_555 1_555
C10E C8E 1_555 1_555
N2E C1E 1_555 1_555
H1E C1E 1_555 1_555
H7E C9E 1_555 1_555
N3E C2E 1_555 1_555
H2E C2E 1_555 1_555
H8E C10E 1_555 1_555
Cu1C N2E 1_555 1_555
Cu1C_2 N3E 1_555 1_555
C7 C9 1_555 1_555
C8 C10 1_555 1_555
C15E C23E 1_555 1_555
C16E C24E 1_555 1_555
C13E C11E 1_555 1_555
C14E C12E 1_555 1_555
C27F C25F 1_555 1_555
C17E C19E 1_555 1_555
C18E C20E 1_555 1_555
C9E N2E 1_555 1_555
C10E N3E 1_555 1_555

#END
