
#######################################################################
#
#                 Cambridge Crystallographic Data Centre
#                                CCDC 
#
#######################################################################
#
# If this CIF has been generated from an entry in the Cambridge 
# Structural Database, then it will include bibliographic, chemical, 
# crystal, experimental, refinement or atomic coordinate data resulting 
# from the CCDC's data processing and validation procedures.
#
#######################################################################

data_LOTQIU
_symmetry_cell_setting           monoclinic
_symmetry_space_group_name_H-M   'P 21/c'
_symmetry_Int_Tables_number      14
_space_group_name_Hall           '-P 2ybc'
loop_
_symmetry_equiv_pos_site_id
_symmetry_equiv_pos_as_xyz
1 x,y,z
2 x,1/2-y,1/2+z
3 -x,-y,-z
4 -x,1/2+y,1/2-z
_cell_length_a                   3.8969(1)
_cell_length_b                   18.5279(9)
_cell_length_c                   9.9978(5)
_cell_angle_alpha                90
_cell_angle_beta                 92.039(3)
_cell_angle_gamma                90
_cell_volume                     721.398
loop_
_atom_site_label
_atom_site_type_symbol
_atom_site_fract_x
_atom_site_fract_y
_atom_site_fract_z
Cu1 Cu 0.12216(8) 0.139188(16) 0.28700(3)
N1 N 0.3705(6) 0.13946(12) 0.1256(2)
N2 N 0.6595(6) 0.15706(11) -0.0863(2)
N3 N 0.9117(6) 0.27160(12) -0.1588(2)
N4 N 0.0673(5) 0.05512(10) 0.41063(19)
C1 C 0.5079(6) 0.15106(12) 0.0280(2)
C2 C 0.7890(6) 0.21960(13) -0.1196(2)
C3 C -0.0841(6) -0.00676(12) 0.3674(2)
C4 C -0.1727(6) -0.01396(13) 0.2209(2)
H1 H -0.4228 -0.0148 0.2070
H2 H -0.0754 -0.0589 0.1872
H3 H -0.0777 0.0271 0.1728
C5 C 0.1537(6) 0.06179(12) 0.5420(2)
C6 C 0.3214(7) 0.13097(13) 0.5869(2)
H4 H 0.4509 0.1512 0.5135
H5 H 0.4779 0.1214 0.6637
H6 H 0.1449 0.1654 0.6128
C5B C -0.1537(6) -0.06179(12) 0.4580(2)
N4B N -0.0673(5) -0.05512(10) 0.58937(19)
C3B C 0.0841(6) 0.00676(12) 0.6326(2)
C4B C 0.1727(6) 0.01396(13) 0.7791(2)
H1B H 0.4228 0.0148 0.7930
H2B H 0.0754 0.0589 0.8128
H3B H 0.0777 -0.0271 0.8272
C6B C -0.3214(7) -0.13097(13) 0.4131(2)
H4B H -0.4509 -0.1512 0.4865
H5B H -0.4779 -0.1214 0.3363
H6B H -0.1449 -0.1654 0.3872
N1A N -0.6295(6) 0.36054(12) 0.6256(2)
N2A N -0.3405(6) 0.34294(11) 0.4137(2)
N3A N -0.0883(6) 0.22840(12) 0.3412(2)
C1A C -0.4921(6) 0.34894(12) 0.5280(2)
C2A C -0.2110(6) 0.28040(13) 0.3804(2)
Cu1A Cu -0.87784(8) 0.360812(16) 0.78700(3)
Cu1A_2 Cu 1.12216(8) 0.360812(16) -0.21300(3)
Cu1B Cu -0.12216(8) -0.139188(16) 0.71300(3)
N3_2 N -1.0883(6) 0.27160(12) 0.8412(2)
N4A N -0.9327(5) 0.44488(10) 0.91063(19)
loop_
_geom_bond_atom_site_label_1
_geom_bond_atom_site_label_2
_geom_bond_site_symmetry_1
_geom_bond_site_symmetry_2
Cu1 N1 1_555 1_555
N1 C1 1_555 1_555
N2 C1 1_555 1_555
N3 C2 1_555 1_555
N4 Cu1 1_555 1_555
C2 N2 1_555 1_555
C3 N4 1_555 1_555
C4 C3 1_555 1_555
H1 C4 1_555 1_555
H2 C4 1_555 1_555
H3 C4 1_555 1_555
C5 N4 1_555 1_555
C6 C5 1_555 1_555
H4 C6 1_555 1_555
H5 C6 1_555 1_555
H6 C6 1_555 1_555
C5B C3 1_555 1_555
N4B C5B 1_555 1_555
C3B C5 1_555 1_555
C4B C3B 1_555 1_555
H1B C4B 1_555 1_555
H2B C4B 1_555 1_555
H3B C4B 1_555 1_555
C6B C5B 1_555 1_555
H4B C6B 1_555 1_555
H5B C6B 1_555 1_555
H6B C6B 1_555 1_555
N1A C1A 1_555 1_555
N2A C1A 1_555 1_555
N3A Cu1 1_555 1_555
C2A N2A 1_555 1_555
Cu1A N1A 1_555 1_555
Cu1A_2 N3 1_555 1_555
Cu1B N4B 1_555 1_555
N3_2 Cu1A 1_555 1_555
N4A Cu1A 1_555 1_555
N4B C3B 1_555 1_555
N3A C2A 1_555 1_555

#END
