
#######################################################################
#
#                 Cambridge Crystallographic Data Centre
#                                CCDC 
#
#######################################################################
#
# If this CIF has been generated from an entry in the Cambridge 
# Structural Database, then it will include bibliographic, chemical, 
# crystal, experimental, refinement or atomic coordinate data resulting 
# from the CCDC's data processing and validation procedures.
#
#######################################################################

data_LOTQUG
_symmetry_cell_setting           triclinic
_symmetry_space_group_name_H-M   'P -1'
_symmetry_Int_Tables_number      2
_space_group_name_Hall           '-P 1'
loop_
_symmetry_equiv_pos_site_id
_symmetry_equiv_pos_as_xyz
1 x,y,z
2 -x,-y,-z
_cell_length_a                   8.2104(3)
_cell_length_b                   10.0447(3)
_cell_length_c                   13.9494(4)
_cell_angle_alpha                98.995(2)
_cell_angle_beta                 93.178(2)
_cell_angle_gamma                101.633(2)
_cell_volume                     1108.43
loop_
_atom_site_label
_atom_site_type_symbol
_atom_site_fract_x
_atom_site_fract_y
_atom_site_fract_z
Cu1 Cu -1.17525(3) -0.80825(3) -0.600605(19)
Cu2 Cu -0.59356(3) -1.26825(3) -0.864030(19)
N1 N -0.7078(2) -0.9280(2) -0.65870(14)
C1 C -0.8467(3) -0.8842(2) -0.65963(15)
N2 N -0.9634(2) -0.83642(19) -0.65386(14)
C2 C -0.6898(3) -1.0321(2) -0.72300(16)
N3 N -0.6615(2) -1.1234(2) -0.77519(15)
N4 N -1.5616(3) -0.6367(2) -0.7369(2)
C3 C -1.4324(3) -0.6708(2) -0.69487(17)
N5 N -1.3283(2) -0.7113(2) -0.65815(14)
C4 C -1.5432(3) -0.5203(2) -0.77021(16)
N6 N -0.5452(3) -1.4231(2) -0.80355(14)
N7 N -1.0959(2) -0.70805(18) -0.45898(13)
C5 C -1.1261(3) -0.5844(2) -0.42211(16)
H1 H -1.1905 -0.5424 -0.4622
C6 C -1.0686(3) -0.5151(2) -0.32924(15)
H2 H -1.0941 -0.4281 -0.3064
C7 C -0.9726(2) -0.5743(2) -0.26913(15)
C8 C -0.9406(3) -0.7028(2) -0.30717(16)
H3 H -0.8754 -0.7468 -0.2691
C9 C -1.0048(3) -0.7651(2) -0.40067(16)
H4 H -0.9834 -0.8531 -0.4250
C10 C -0.7873(3) -0.2963(2) -0.05566(16)
H5 H -0.7617 -0.1983 -0.0413
C11 C -0.8642(3) -0.3590(2) -0.14682(15)
H6 H -0.8911 -0.3048 -0.1930
C12 C -0.9020(2) -0.5028(2) -0.17018(15)
C13 C -0.8651(3) -0.5752(2) -0.09691(15)
H7 H -0.8930 -0.6732 -0.1083
C14 C -0.7883(3) -0.5042(2) -0.00823(16)
H8 H -0.7634 -0.5558 0.0401
N8 N -0.7466(2) -1.36556(17) -0.98620(13)
N9 N -0.3839(2) -1.16348(18) -0.92010(13)
C15 C -0.3492(3) -1.1876(2) -1.01304(16)
H9 H -0.4305 -1.2509 -1.0582
C16 C -0.2039(3) -1.1270(2) -1.04754(16)
H10 H -0.1879 -1.1479 -1.1147
C17 C -0.0794(3) -1.0343(2) -0.98359(15)
C18 C -0.1153(3) -1.0092(2) -0.88641(15)
H11 H -0.0353 -0.9479 -0.8394
C19 C -0.2657(3) -1.0725(2) -0.85819(16)
H12 H -0.2873 -1.0512 -0.7919
N10 N -1.2995(2) -0.99776(19) -0.58594(14)
C20 C -1.3711(3) -1.1025(2) -0.57422(15)
C21 C -1.4630(3) -1.2363(2) -0.56009(18)
H13 H -1.5256 -1.2249 -0.5026
H14 H -1.3847 -1.2959 -0.5504
H15 H -1.5409 -1.2785 -0.6177
N6_2 N -1.5452(3) -0.4231(2) -0.80355(14)
C4_2 C -0.5432(3) -1.5203(2) -0.77021(16)
N8_2 N -0.7466(2) -0.36556(17) 0.01380(13)
C10_2 C -0.7873(3) -1.2963(2) -1.05566(16)
C14_2 C -0.7883(3) -1.5042(2) -1.00823(16)
C17A C 0.0794(3) -0.9657(2) -1.01641(15)
Cu2_2 Cu -1.59356(3) -0.26825(3) -0.864030(19)
N4_2 N -0.5616(3) -1.6367(2) -0.7369(2)
Cu2_3 Cu -0.59356(3) -0.26825(3) 0.135970(19)
H5_2 H -0.7617 -1.1983 -1.0413
C11_2 C -0.8642(3) -1.3590(2) -1.14682(15)
C13_2 C -0.8651(3) -1.5752(2) -1.09691(15)
H8_2 H -0.7634 -1.5558 -0.9599
C16A C 0.2039(3) -0.8730(2) -0.95246(16)
C18A C 0.1153(3) -0.9908(2) -1.11359(15)
N3_2 N -1.6615(2) -0.1234(2) -0.77519(15)
N8_3 N -1.7466(2) -0.36556(17) -0.98620(13)
N9_2 N -1.3839(2) -0.16348(18) -0.92010(13)
C3_2 C -0.4324(3) -1.6708(2) -0.69487(17)
H6_2 H -0.8911 -1.3048 -1.1930
C12_2 C -0.9020(2) -1.5028(2) -1.17018(15)
H7_2 H -0.8930 -1.6732 -1.1083
C15A C 0.3492(3) -0.8124(2) -0.98696(16)
H10A H 0.1879 -0.8521 -0.8853
H11A H 0.0353 -1.0521 -1.1606
C19A C 0.2657(3) -0.9275(2) -1.14181(16)
C2_2 C -1.6898(3) -0.0321(2) -0.72300(16)
N5_2 N -0.3283(2) -1.7113(2) -0.65815(14)
C7_2 C -0.9726(2) -1.5743(2) -1.26913(15)
N9A N 0.3839(2) -0.83652(18) -1.07990(13)
H9A H 0.4305 -0.7491 -0.9418
H12A H 0.2873 -0.9488 -1.2081
N1_2 N -1.7078(2) 0.0720(2) -0.65870(14)
Cu1_2 Cu -0.17525(3) -1.80825(3) -0.600605(19)
C6_2 C -1.0686(3) -1.5151(2) -1.32924(15)
C8_2 C -0.9406(3) -1.7028(2) -1.30717(16)
Cu2A Cu 0.59356(3) -0.73175(3) -1.135970(19)
C1_2 C -1.8467(3) 0.1158(2) -0.65963(15)
N2_2 N 0.0366(2) -1.83642(19) -0.65386(14)
N7_2 N -0.0959(2) -1.70805(18) -0.45898(13)
N10_2 N -0.2995(2) -1.99776(19) -0.58594(14)
C5_2 C -1.1261(3) -1.5844(2) -1.42211(16)
H2_2 H -1.0941 -1.4281 -1.3064
H3_2 H -0.8754 -1.7468 -1.2691
C9_2 C -1.0048(3) -1.7651(2) -1.40067(16)
N2_3 N -1.9634(2) 0.16358(19) -0.65386(14)
C20_2 C -0.3711(3) -2.1025(2) -0.57422(15)
N7_3 N -1.0959(2) -1.70805(18) -1.45898(13)
H1_2 H -1.1905 -1.5424 -1.4622
H4_2 H -0.9834 -1.8531 -1.4250
Cu1_3 Cu -2.17525(3) 0.19175(3) -0.600605(19)
C21_2 C -0.4630(3) -2.2363(2) -0.56009(18)
Cu1_4 Cu -1.17525(3) -1.80825(3) -1.600605(19)
H13_2 H -0.5256 -2.2249 -0.5026
H14_2 H -0.3847 -2.2959 -0.5504
H15_2 H -0.5409 -2.2785 -0.6177
loop_
_geom_bond_atom_site_label_1
_geom_bond_atom_site_label_2
_geom_bond_site_symmetry_1
_geom_bond_site_symmetry_2
Cu1 N2 1_555 1_555
Cu2 N3 1_555 1_555
N1 C1 1_555 1_555
C1 N2 1_555 1_555
C2 N1 1_555 1_555
N3 C2 1_555 1_555
N4 C3 1_555 1_555
C3 N5 1_555 1_555
N5 Cu1 1_555 1_555
C4 N4 1_555 1_555
N6 Cu2 1_555 1_555
N7 Cu1 1_555 1_555
C5 N7 1_555 1_555
H1 C5 1_555 1_555
C6 C5 1_555 1_555
H2 C6 1_555 1_555
C7 C6 1_555 1_555
C8 C7 1_555 1_555
H3 C8 1_555 1_555
C9 N7 1_555 1_555
H4 C9 1_555 1_555
C10 H5 1_555 1_555
C11 C10 1_555 1_555
H6 C11 1_555 1_555
C12 C7 1_555 1_555
C13 C12 1_555 1_555
H7 C13 1_555 1_555
C14 C13 1_555 1_555
H8 C14 1_555 1_555
N8 Cu2 1_555 1_555
N9 Cu2 1_555 1_555
C15 N9 1_555 1_555
H9 C15 1_555 1_555
C16 C15 1_555 1_555
H10 C16 1_555 1_555
C17 C16 1_555 1_555
C18 C17 1_555 1_555
H11 C18 1_555 1_555
C19 N9 1_555 1_555
H12 C19 1_555 1_555
N10 Cu1 1_555 1_555
C20 N10 1_555 1_555
C21 C20 1_555 1_555
H13 C21 1_555 1_555
H14 C21 1_555 1_555
H15 C21 1_555 1_555
N6_2 C4 1_555 1_555
C4_2 N6 1_555 1_555
N8_2 C10 1_555 1_555
C10_2 N8 1_555 1_555
C14_2 N8 1_555 1_555
C17A C17 1_555 1_555
Cu2_2 N6_2 1_555 1_555
N4_2 C4_2 1_555 1_555
Cu2_3 N8_2 1_555 1_555
H5_2 C10_2 1_555 1_555
C11_2 C10_2 1_555 1_555
C13_2 C14_2 1_555 1_555
H8_2 C14_2 1_555 1_555
C16A C17A 1_555 1_555
C18A C17A 1_555 1_555
N3_2 Cu2_2 1_555 1_555
N8_3 Cu2_2 1_555 1_555
N9_2 Cu2_2 1_555 1_555
C3_2 N4_2 1_555 1_555
H6_2 C11_2 1_555 1_555
C12_2 C11_2 1_555 1_555
H7_2 C13_2 1_555 1_555
C15A C16A 1_555 1_555
H10A C16A 1_555 1_555
H11A C18A 1_555 1_555
C19A C18A 1_555 1_555
C2_2 N3_2 1_555 1_555
N5_2 C3_2 1_555 1_555
C7_2 C12_2 1_555 1_555
N9A C15A 1_555 1_555
H9A C15A 1_555 1_555
H12A C19A 1_555 1_555
N1_2 C2_2 1_555 1_555
Cu1_2 N5_2 1_555 1_555
C6_2 C7_2 1_555 1_555
C8_2 C7_2 1_555 1_555
Cu2A N9A 1_555 1_555
C1_2 N1_2 1_555 1_555
N2_2 Cu1_2 1_555 1_555
N7_2 Cu1_2 1_555 1_555
N10_2 Cu1_2 1_555 1_555
C5_2 C6_2 1_555 1_555
H2_2 C6_2 1_555 1_555
H3_2 C8_2 1_555 1_555
C9_2 C8_2 1_555 1_555
N2_3 C1_2 1_555 1_555
C20_2 N10_2 1_555 1_555
N7_3 C5_2 1_555 1_555
H1_2 C5_2 1_555 1_555
H4_2 C9_2 1_555 1_555
Cu1_3 N2_3 1_555 1_555
C21_2 C20_2 1_555 1_555
Cu1_4 N7_3 1_555 1_555
H13_2 C21_2 1_555 1_555
H14_2 C21_2 1_555 1_555
H15_2 C21_2 1_555 1_555
C8 C9 1_555 1_555
C11 C12 1_555 1_555
C14 N8_2 1_555 1_555
C18 C19 1_555 1_555
C13_2 C12_2 1_555 1_555
C19A N9A 1_555 1_555
C9_2 N7_3 1_555 1_555

#END
