
#######################################################################
#
#                 Cambridge Crystallographic Data Centre
#                                CCDC 
#
#######################################################################
#
# If this CIF has been generated from an entry in the Cambridge 
# Structural Database, then it will include bibliographic, chemical, 
# crystal, experimental, refinement or atomic coordinate data resulting 
# from the CCDC's data processing and validation procedures.
#
#######################################################################

data_LOTRER
_symmetry_cell_setting           monoclinic
_symmetry_space_group_name_H-M   'C c'
_symmetry_Int_Tables_number      9
_space_group_name_Hall           'C -2yc'
loop_
_symmetry_equiv_pos_site_id
_symmetry_equiv_pos_as_xyz
1 x,y,z
2 x,-y,1/2+z
3 1/2+x,1/2+y,z
4 1/2+x,1/2-y,1/2+z
_cell_length_a                   12.2904(3)
_cell_length_b                   44.6752(13)
_cell_length_c                   14.6413(3)
_cell_angle_alpha                90
_cell_angle_beta                 93.004(2)
_cell_angle_gamma                90
_cell_volume                     8028.14
loop_
_atom_site_label
_atom_site_type_symbol
_atom_site_fract_x
_atom_site_fract_y
_atom_site_fract_z
Cu1 Cu 0.11257(5) -0.146559(15) -0.27975(4)
Cu2 Cu 0.14955(5) -0.307473(14) -0.01847(4)
Cu3 Cu 0.11526(5) -0.474020(15) -0.22992(4)
Cu4 Cu 0.16421(5) 0.014110(14) -0.00244(4)
Cu5 Cu 0.09890(5) 0.180660(14) -0.24769(4)
Cu6 Cu 0.66115(5) -0.146670(15) -1.05365(4)
N1 N 0.0894(5) -0.17965(12) -0.1972(3)
C1 C 0.0636(5) -0.19868(13) -0.1505(3)
N2 N 0.0273(5) -0.21894(12) -0.0962(3)
C2 C 0.0717(5) -0.24493(13) -0.0871(3)
N3 N 0.1039(5) -0.26862(12) -0.0742(3)
N4 N 0.1767(4) -0.34102(10) -0.0974(3)
C3 C 0.2001(5) -0.36214(13) -0.1386(3)
N5 N 0.2382(5) -0.38382(11) -0.1875(3)
C4 C 0.1981(5) -0.41070(14) -0.1795(3)
N6 N 0.1720(6) -0.43551(12) -0.1769(4)
N7 N 0.1520(5) -0.10874(12) -0.2127(3)
C5 C 0.1926(5) -0.08693(14) -0.1857(3)
N8 N 0.2481(5) -0.06390(14) -0.1599(4)
C6 C 0.2071(5) -0.04126(14) -0.1178(3)
N9 N 0.1830(5) -0.02022(11) -0.0783(3)
N10 N 0.1246(5) 0.05178(11) -0.0735(4)
C7 C 0.0795(5) 0.07262(12) -0.1016(3)
N11 N 0.0163(5) 0.09437(11) -0.1327(3)
C8 C 0.0562(5) 0.12004(12) -0.1596(3)
N12 N 0.0797(5) 0.14284(10) -0.1857(4)
N13 N 0.6414(5) -0.28226(12) -1.1745(3)
C9 C 0.6853(5) -0.25964(12) -1.1602(3)
N14 N 0.7454(5) -0.23636(13) -1.1466(4)
C10 C 0.7069(5) -0.20984(14) -1.1284(3)
N15 N 0.6837(5) -0.18517(12) -1.1110(3)
N16 N 0.6075(5) -0.10873(13) -1.1146(4)
C11 C 0.5752(5) -0.08436(15) -1.1101(3)
N17 N 0.5302(5) -0.05849(13) -1.0981(4)
C12 C 0.5654(5) -0.03322(14) -1.1332(3)
N18 N 0.5893(4) -0.01016(12) -1.1606(3)
N19 N -0.0421(4) -0.13791(12) -0.3454(3)
C13 C -0.1305(5) -0.13829(13) -0.2954(3)
H1 H -0.1275 -0.1502 -0.2417
C14 C -0.2241(5) -0.12292(12) -0.3156(3)
H2 H -0.2825 -0.1234 -0.2757
C15 C -0.2323(5) -0.10619(12) -0.3973(3)
C16 C -0.1449(5) -0.10757(12) -0.4539(4)
H3 H -0.1487 -0.0978 -0.5116
C17 C -0.0530(5) -0.12320(12) -0.4253(3)
H4 H 0.0063 -0.1236 -0.4644
C18 C -0.3271(5) -0.08730(12) -0.4224(4)
H5 H -0.3334 -0.0806 -0.4840
C19 C -0.6704(5) -0.03911(13) -0.3629(4)
H6 H -0.7283 -0.0380 -0.3225
C20 C -0.5813(5) -0.05633(12) -0.3357(3)
H7 H -0.5783 -0.0663 -0.2782
C21 C -0.4966(5) -0.05886(12) -0.3934(3)
C22 C -0.5033(5) -0.04199(13) -0.4734(4)
H8 H -0.4453 -0.0422 -0.5139
C23 C -0.5961(5) -0.02486(11) -0.4933(4)
H9 H -0.5988 -0.0131 -0.5473
C24 C -0.4043(5) -0.07862(12) -0.3691(4)
H10 H -0.3996 -0.0860 -0.3081
N20 N -0.6819(4) -0.02405(10) -0.4405(3)
N21 N 1.4646(4) -0.03768(11) -0.7961(3)
C25 C 1.3760(6) -0.04257(16) -0.7469(4)
H11 H 1.3801 -0.0373 -0.6839
C26 C 1.2812(6) -0.05465(17) -0.7830(4)
H12 H 1.2203 -0.0566 -0.7461
C27 C 1.2734(5) -0.06415(12) -0.8734(3)
C28 C 1.3635(5) -0.05830(12) -0.9254(4)
H13 H 1.3612 -0.0634 -0.9885
C29 C 1.4549(5) -0.04529(12) -0.8854(4)
H14 H 1.5146 -0.0414 -0.9224
C30 C 1.1785(5) -0.07927(12) -0.9153(3)
H15 H 1.1806 -0.0839 -0.9786
C31 C 0.8177(5) -0.12487(12) -0.9022(3)
H16 H 0.7587 -0.1290 -0.8647
C32 C 0.9076(5) -0.11033(12) -0.8636(3)
H17 H 0.9094 -0.1049 -0.8009
C33 C 0.9945(5) -0.10361(12) -0.9148(3)
C34 C 0.9867(6) -0.11222(18) -1.0072(4)
H18 H 1.0432 -0.1077 -1.0469
C35 C 0.8936(6) -0.1275(2) -1.0387(5)
H19 H 0.8901 -0.1343 -1.1003
C36 C 1.0897(5) -0.08723(12) -0.8745(3)
H20 H 1.0867 -0.0818 -0.8119
N22 N 0.8092(4) -0.13333(13) -0.9883(3)
N23 N 0.3023(4) -0.30004(11) 0.0528(3)
C37 C 0.3121(5) -0.28871(13) 0.1363(4)
H21 H 0.2514 -0.2900 0.1737
C38 C 0.4069(5) -0.27497(12) 0.1723(3)
H22 H 0.4100 -0.2675 0.2331
C39 C 0.4968(5) -0.27227(13) 0.1190(3)
C40 C 0.4877(5) -0.28530(17) 0.0336(4)
H23 H 0.5476 -0.2847 -0.0048
C41 C 0.3908(5) -0.29949(18) 0.0031(5)
H24 H 0.3878 -0.3091 -0.0550
C42 C 0.5920(6) -0.25534(13) 0.1543(3)
H25 H 0.5959 -0.2503 0.2175
C43 C 0.8615(6) -0.19530(18) 0.2424(4)
H26 H 0.8630 -0.1849 0.2990
C44 C 0.7714(6) -0.21231(17) 0.2172(4)
H27 H 0.7127 -0.2134 0.2567
C45 C 0.7649(5) -0.22784(13) 0.1357(3)
C46 C 0.8509(5) -0.22283(13) 0.0794(3)
H28 H 0.8484 -0.2312 0.0197
C47 C 0.9389(5) -0.20597(13) 0.1088(4)
H29 H 0.9967 -0.2036 0.0689
C48 C 0.6738(5) -0.24646(13) 0.1041(3)
H30 H 0.6722 -0.2529 0.0422
N24 N 0.9478(4) -0.19286(12) 0.1896(3)
N25 N 0.0503(4) -0.31283(11) 0.0881(3)
C49 C 0.0164(6) -0.28897(14) 0.1344(4)
H31 H 0.0307 -0.2696 0.1110
C50 C -0.0376(6) -0.29106(15) 0.2134(4)
H32 H -0.0611 -0.2735 0.2434
C51 C -0.0580(5) -0.32008(14) 0.2501(4)
C52 C -0.0237(5) -0.34450(14) 0.2002(4)
H33 H -0.0367 -0.3643 0.2210
C53 C 0.0294(5) -0.34009(12) 0.1205(4)
H34 H 0.0518 -0.3571 0.0873
C54 C -0.1124(5) -0.32510(13) 0.3361(4)
H35 H -0.1278 -0.3452 0.3523
C55 C -0.2676(5) -0.28961(13) 0.6149(4)
H36 H -0.2805 -0.2725 0.6512
C56 C -0.2169(5) -0.28554(13) 0.5345(4)
H37 H -0.1950 -0.2660 0.5176
C57 C -0.1974(5) -0.30931(13) 0.4782(4)
C58 C -0.2301(5) -0.33726(15) 0.5071(4)
H38 H -0.2185 -0.3545 0.4710
C59 C -0.2797(5) -0.33963(13) 0.5887(5)
H39 H -0.3014 -0.3590 0.6069
C60 C -0.1413(5) -0.30386(14) 0.3919(4)
H40 H -0.1253 -0.2837 0.3764
N26 N -0.3001(4) -0.31643(10) 0.6455(3)
N27 N 0.0643(4) 0.01780(10) 0.1043(3)
C61 C 0.0411(5) -0.00596(12) 0.1583(4)
H41 H 0.0624 -0.0254 0.1396
C62 C -0.0114(5) -0.00329(13) 0.2384(4)
H42 H -0.0250 -0.0206 0.2737
C63 C -0.0448(5) 0.02457(14) 0.2677(4)
C64 C -0.0213(5) 0.04910(13) 0.2115(4)
H43 H -0.0435 0.0687 0.2276
C65 C 0.0336(5) 0.04464(12) 0.1337(4)
H44 H 0.0509 0.0617 0.0985
C66 C -0.0989(6) 0.02963(15) 0.3528(4)
H45 H -0.1130 0.0498 0.3690
C67 C -0.2669(5) -0.00704(12) 0.6279(4)
H46 H -0.2884 -0.0241 0.6612
C68 C -0.2167(5) -0.01114(13) 0.5477(4)
H47 H -0.2035 -0.0309 0.5270
C69 C -0.1843(5) 0.01328(12) 0.4956(4)
C70 C -0.2044(5) 0.04155(13) 0.5307(4)
H48 H -0.1835 0.0590 0.4990
C71 C -0.2545(5) 0.04381(12) 0.6115(4)
H49 H -0.2675 0.0633 0.6347
C72 C -0.1301(5) 0.00830(14) 0.4098(4)
H50 H -0.1161 -0.0119 0.3933
N28 N -0.2868(4) 0.02003(10) 0.6606(3)
N29 N 0.5622(4) -0.14903(10) -0.9445(3)
C73 C 0.5431(5) -0.17548(13) -0.9024(4)
H51 H 0.5653 -0.1933 -0.9316
C74 C 0.4944(5) -0.17822(14) -0.8212(4)
H52 H 0.4839 -0.1975 -0.7957
C75 C 0.4608(5) -0.15326(15) -0.7765(4)
C76 C 0.4804(6) -0.12561(15) -0.8186(4)
H53 H 0.4594 -0.1075 -0.7902
C77 C 0.5297(5) -0.12457(13) -0.9006(4)
H54 H 0.5414 -0.1056 -0.9275
C78 C 0.4079(5) -0.15736(15) -0.6898(4)
H55 H 0.3970 -0.1774 -0.6704
C79 C 0.2383(5) -0.16935(13) -0.4347(4)
H56 H 0.2196 -0.1885 -0.4122
C80 C 0.2908(5) -0.16779(16) -0.5170(4)
H57 H 0.3065 -0.1855 -0.5500
C81 C 0.3198(5) -0.13947(14) -0.5498(4)
C82 C 0.2962(5) -0.11514(14) -0.4982(4)
H58 H 0.3156 -0.0957 -0.5176
C83 C 0.2448(6) -0.11886(14) -0.4187(4)
H59 H 0.2304 -0.1015 -0.3839
C84 C 0.3744(5) -0.13618(15) -0.6367(4)
H60 H 0.3865 -0.1162 -0.6563
N30 N 0.2132(5) -0.14539(11) -0.3863(4)
N18B N 0.0893(4) -0.51016(12) -0.1606(3)
N21C N -0.0354(4) -0.46232(11) -0.2961(3)
N28B N 0.2132(4) -0.47997(10) -0.3394(3)
N20A N 0.3181(4) 0.02405(10) 0.0595(3)
N13B N 0.1414(5) 0.21774(12) -0.1745(3)
N24A N -0.0522(4) 0.19286(12) -0.3104(3)
N26B N 0.1999(4) 0.18357(10) -0.3545(3)
Cu5B Cu 0.59890(5) -0.319340(14) -1.24769(4)
Cu3B Cu 0.61526(5) 0.025980(15) -1.22992(4)
Cu4A Cu -0.83579(5) -0.014110(14) -0.50244(4)
Cu3C Cu 1.61526(5) -0.025980(15) -0.72992(4)
Cu5A Cu 1.09890(5) -0.180660(14) 0.25231(4)
Cu5B_2 Cu -0.40110(5) -0.319340(14) 0.75231(4)
Cu3B_2 Cu -0.38474(5) 0.025980(15) 0.77008(4)
loop_
_geom_bond_atom_site_label_1
_geom_bond_atom_site_label_2
_geom_bond_site_symmetry_1
_geom_bond_site_symmetry_2
Cu1 N1 1_555 1_555
Cu2 N3 1_555 1_555
Cu3 N6 1_555 1_555
Cu4 N9 1_555 1_555
Cu5 N12 1_555 1_555
Cu6 N15 1_555 1_555
N1 C1 1_555 1_555
C1 N2 1_555 1_555
N2 C2 1_555 1_555
C2 N3 1_555 1_555
N4 Cu2 1_555 1_555
C3 N4 1_555 1_555
N5 C3 1_555 1_555
C4 N5 1_555 1_555
N6 C4 1_555 1_555
N7 Cu1 1_555 1_555
C5 N7 1_555 1_555
N8 C5 1_555 1_555
C6 N8 1_555 1_555
N9 C6 1_555 1_555
N10 Cu4 1_555 1_555
C7 N10 1_555 1_555
N11 C7 1_555 1_555
C8 N11 1_555 1_555
N12 C8 1_555 1_555
N13 C9 1_555 1_555
C9 N14 1_555 1_555
N14 C10 1_555 1_555
C10 N15 1_555 1_555
N16 Cu6 1_555 1_555
C11 N16 1_555 1_555
N17 C11 1_555 1_555
C12 N17 1_555 1_555
N18 C12 1_555 1_555
N19 Cu1 1_555 1_555
C13 N19 1_555 1_555
H1 C13 1_555 1_555
C14 C13 1_555 1_555
H2 C14 1_555 1_555
C15 C14 1_555 1_555
C16 C15 1_555 1_555
H3 C16 1_555 1_555
C17 N19 1_555 1_555
H4 C17 1_555 1_555
C18 C15 1_555 1_555
H5 C18 1_555 1_555
C19 H6 1_555 1_555
C20 C19 1_555 1_555
H7 C20 1_555 1_555
C21 C20 1_555 1_555
C22 C21 1_555 1_555
H8 C22 1_555 1_555
C23 C22 1_555 1_555
H9 C23 1_555 1_555
C24 C18 1_555 1_555
H10 C24 1_555 1_555
N20 C19 1_555 1_555
N21 C25 1_555 1_555
C25 H11 1_555 1_555
C26 C25 1_555 1_555
H12 C26 1_555 1_555
C27 C26 1_555 1_555
C28 C27 1_555 1_555
H13 C28 1_555 1_555
C29 N21 1_555 1_555
H14 C29 1_555 1_555
C30 C27 1_555 1_555
H15 C30 1_555 1_555
C31 H16 1_555 1_555
C32 C31 1_555 1_555
H17 C32 1_555 1_555
C33 C32 1_555 1_555
C34 C33 1_555 1_555
H18 C34 1_555 1_555
C35 C34 1_555 1_555
H19 C35 1_555 1_555
C36 C30 1_555 1_555
H20 C36 1_555 1_555
N22 Cu6 1_555 1_555
N23 Cu2 1_555 1_555
C37 N23 1_555 1_555
H21 C37 1_555 1_555
C38 C37 1_555 1_555
H22 C38 1_555 1_555
C39 C38 1_555 1_555
C40 C39 1_555 1_555
H23 C40 1_555 1_555
C41 N23 1_555 1_555
H24 C41 1_555 1_555
C42 C39 1_555 1_555
H25 C42 1_555 1_555
C43 H26 1_555 1_555
C44 C43 1_555 1_555
H27 C44 1_555 1_555
C45 C44 1_555 1_555
C46 C45 1_555 1_555
H28 C46 1_555 1_555
C47 C46 1_555 1_555
H29 C47 1_555 1_555
C48 C42 1_555 1_555
H30 C48 1_555 1_555
N24 C43 1_555 1_555
N25 Cu2 1_555 1_555
C49 N25 1_555 1_555
H31 C49 1_555 1_555
C50 C49 1_555 1_555
H32 C50 1_555 1_555
C51 C50 1_555 1_555
C52 C51 1_555 1_555
H33 C52 1_555 1_555
C53 N25 1_555 1_555
H34 C53 1_555 1_555
C54 C51 1_555 1_555
H35 C54 1_555 1_555
C55 H36 1_555 1_555
C56 C55 1_555 1_555
H37 C56 1_555 1_555
C57 C56 1_555 1_555
C58 C57 1_555 1_555
H38 C58 1_555 1_555
C59 C58 1_555 1_555
H39 C59 1_555 1_555
C60 C54 1_555 1_555
H40 C60 1_555 1_555
N26 C55 1_555 1_555
N27 Cu4 1_555 1_555
C61 N27 1_555 1_555
H41 C61 1_555 1_555
C62 C61 1_555 1_555
H42 C62 1_555 1_555
C63 C62 1_555 1_555
C64 C63 1_555 1_555
H43 C64 1_555 1_555
C65 N27 1_555 1_555
H44 C65 1_555 1_555
C66 C63 1_555 1_555
H45 C66 1_555 1_555
C67 H46 1_555 1_555
C68 C67 1_555 1_555
H47 C68 1_555 1_555
C69 C68 1_555 1_555
C70 C69 1_555 1_555
H48 C70 1_555 1_555
C71 C70 1_555 1_555
H49 C71 1_555 1_555
C72 C66 1_555 1_555
H50 C72 1_555 1_555
N28 C67 1_555 1_555
N29 Cu6 1_555 1_555
C73 N29 1_555 1_555
H51 C73 1_555 1_555
C74 C73 1_555 1_555
H52 C74 1_555 1_555
C75 C74 1_555 1_555
C76 C75 1_555 1_555
H53 C76 1_555 1_555
C77 N29 1_555 1_555
H54 C77 1_555 1_555
C78 C75 1_555 1_555
H55 C78 1_555 1_555
C79 H56 1_555 1_555
C80 C79 1_555 1_555
H57 C80 1_555 1_555
C81 C80 1_555 1_555
C82 C81 1_555 1_555
H58 C82 1_555 1_555
C83 C82 1_555 1_555
H59 C83 1_555 1_555
C84 C78 1_555 1_555
H60 C84 1_555 1_555
N30 Cu1 1_555 1_555
N18B Cu3 1_555 1_555
N21C Cu3 1_555 1_555
N28B Cu3 1_555 1_555
N20A Cu4 1_555 1_555
N13B Cu5 1_555 1_555
N24A Cu5 1_555 1_555
N26B Cu5 1_555 1_555
Cu5B N13 1_555 1_555
Cu3B N18 1_555 1_555
Cu4A N20 1_555 1_555
Cu3C N21 1_555 1_555
Cu5A N24 1_555 1_555
Cu5B_2 N26 1_555 1_555
Cu3B_2 N28 1_555 1_555
C16 C17 1_555 1_555
C21 C24 1_555 1_555
C23 N20 1_555 1_555
C28 C29 1_555 1_555
C31 N22 1_555 1_555
C33 C36 1_555 1_555
C35 N22 1_555 1_555
C40 C41 1_555 1_555
C45 C48 1_555 1_555
C47 N24 1_555 1_555
C52 C53 1_555 1_555
C57 C60 1_555 1_555
C59 N26 1_555 1_555
C64 C65 1_555 1_555
C69 C72 1_555 1_555
C71 N28 1_555 1_555
C76 C77 1_555 1_555
C79 N30 1_555 1_555
C81 C84 1_555 1_555
C83 N30 1_555 1_555

#END
