
#######################################################################
#
#                 Cambridge Crystallographic Data Centre
#                                CCDC 
#
#######################################################################
#
# If this CIF has been generated from an entry in the Cambridge 
# Structural Database, then it will include bibliographic, chemical, 
# crystal, experimental, refinement or atomic coordinate data resulting 
# from the CCDC's data processing and validation procedures.
#
#######################################################################

data_LOTWOG
_symmetry_cell_setting           monoclinic
_symmetry_space_group_name_H-M   'C 2'
_symmetry_Int_Tables_number      5
_space_group_name_Hall           'C 2y'
loop_
_symmetry_equiv_pos_site_id
_symmetry_equiv_pos_as_xyz
1 x,y,z
2 -x,y,-z
3 1/2+x,1/2+y,z
4 1/2-x,1/2+y,-z
_cell_length_a                   21.5620(10)
_cell_length_b                   13.5010(10)
_cell_length_c                   15.0410(10)
_cell_angle_alpha                90.00
_cell_angle_beta                 122.070(10)
_cell_angle_gamma                90.00
_cell_volume                     3710.4
loop_
_atom_site_label
_atom_site_type_symbol
_atom_site_fract_x
_atom_site_fract_y
_atom_site_fract_z
O17 O -0.5000 0.1528(2) 0.0000
H44 H -0.4727(19) 0.1181(30) 0.0510(25)
H44A H -0.5273(19) 0.1181(30) -0.0510(25)
K1 K -0.18200(3) -1.15677(4) -0.04444(5)
K2 K 0.0000 -0.69719(5) 0.0000
K3 K 0.0000 -1.01796(6) 0.0000
C1 C -0.11221(14) -0.5108(2) -0.2152(2)
C2 C -0.11127(12) -0.8900(2) 0.0580(2)
C3 C -0.09979(13) -0.5321(2) -0.3025(2)
C4 C -0.10245(11) -0.8599(2) 0.1613(2)
C5 C -0.0801(2) -0.4534(2) -0.3434(2)
C6 C -0.08036(14) -0.9331(2) 0.2383(2)
C7 C -0.0655(2) -0.4673(2) -0.4210(3)
C8 C -0.0656(2) -0.9118(2) 0.3379(2)
C9 C -0.0707(2) -0.5614(3) -0.4600(3)
C10 C -0.0740(2) -0.8156(2) 0.3608(2)
C11 C -0.0893(2) -0.6408(2) -0.4219(2)
C12 C -0.09713(14) -0.7413(2) 0.2863(2)
C13 C -0.10446(13) -0.6285(2) -0.3427(2)
C14 C -0.11262(12) -0.7620(2) 0.1849(2)
C15 C -0.11151(13) -0.8087(2) -0.3185(2)
H1 H -0.05953(13) -0.8155(2) -0.2989(2)
C16 C -0.12632(13) -0.5858(2) 0.1358(2)
C17 C -0.14517(13) -0.9397(2) -0.4398(2)
C18 C -0.16196(14) -0.4504(2) 0.1959(2)
C19 C -0.16289(13) -1.0080(2) -0.3757(2)
C20 C -0.18203(13) -0.3862(2) 0.1009(2)
C21 C -0.11490(13) -0.9822(2) -0.2609(2)
C22 C -0.13588(13) -0.4154(2) 0.0567(2)
C23 C -0.12480(12) -0.8730(2) -0.2463(2)
C24 C -0.13886(13) -0.5270(2) 0.0404(2)
C25 C -0.19445(14) -1.1340(2) -0.4992(2)
C26 C -0.21073(15) -0.2554(2) 0.1772(2)
C27 C -0.1776(2) -1.2391(2) -0.5103(2)
C28 C -0.1920(2) -0.1500(2) 0.2127(2)
C29 C -0.1912(2) -0.9703(2) -0.5538(2)
C30 C -0.2070(2) -0.4177(2) 0.2407(2)
C31 C -0.0060(2) -1.1984(2) 0.1885(2)
H2 H -0.0174(11) -1.1395(7) 0.2153(5)
H3 H 0.0471(2) -1.2080(17) 0.2271(3)
H4 H -0.0292(9) -1.2566(10) 0.1977(3)
C32 C -0.2431(2) -1.2377(3) -0.2989(4)
N1 N -0.12653(12) -0.7082(2) -0.3084(2)
N2 N -0.14086(12) -0.6884(2) 0.1081(2)
O1 O -0.10946(12) -0.42208(15) -0.1857(2)
O2 O -0.11550(11) -0.97973(14) 0.0368(2)
O3 O -0.12386(13) -0.5826(2) -0.1724(2)
O4 O -0.11185(10) -0.82093(13) -0.00057(13)
O5 O -0.16045(9) -0.84009(13) -0.42623(12)
O6 O -0.17761(9) -0.55181(13) 0.16339(13)
O7 O -0.13137(10) -1.03850(14) -0.19599(14)
O8 O -0.16310(10) -0.3639(2) -0.03961(14)
O9 O -0.07523(9) -0.84472(14) -0.14008(12)
O10 O -0.08498(10) -0.55709(14) 0.0193(2)
O11 O -0.15042(9) -1.10830(12) -0.39128(12)
O12 O -0.17003(9) -0.28426(13) 0.13113(14)
O13 O -0.17702(11) -1.07284(14) -0.55989(13)
O14 O -0.19180(11) -0.31442(14) 0.2660(2)
O15 O -0.03322(11) -1.1853(2) 0.0789(2)
O16 O -0.16891(12) -1.2331(2) -0.2158(2)
H5 H -0.0717(19) -0.3955(30) -0.3081(26)
H6 H -0.0757(16) -1.0022(25) 0.2198(23)
H7 H -0.0514(20) -0.4139(30) -0.4526(29)
H8 H -0.0499(21) -0.9679(30) 0.3916(31)
H9 H -0.0551(18) -0.5804(27) -0.5135(26)
H10 H -0.0659(21) -0.8014(29) 0.4374(32)
H11 H -0.0954(18) -0.6980(28) -0.4444(25)
H12 H -0.1070(18) -0.6646(29) 0.3028(26)
H13 H -0.1366(20) -0.6821(30) -0.2589(29)
H14 H -0.1400(20) -0.7063(28) 0.0523(29)
H15 H -0.0734(13) -0.5736(19) 0.1984(19)
H16 H -0.0961(17) -0.9463(24) -0.4201(23)
H17 H -0.1094(18) -0.4453(25) 0.2529(24)
H18 H -0.2121(15) -1.0007(20) -0.4002(20)
H19 H -0.2337(15) -0.3975(20) 0.0438(20)
H20 H -0.0677(19) -0.9918(24) -0.2417(25)
H21 H -0.0873(16) -0.3985(20) 0.1041(21)
H22 H -0.1362(19) -1.0897(29) -0.2133(28)
H23 H -0.1471(21) -0.3894(31) -0.0691(28)
H24 H -0.1762(14) -0.8670(23) -0.2673(19)
H25 H -0.1868(17) -0.5426(25) -0.0153(25)
H26 H -0.0957(20) -0.8495(34) -0.1050(29)
H28 H -0.2495(14) -1.1232(19) -0.5228(19)
H29 H -0.2607(16) -0.2643(24) 0.1282(22)
H30 H -0.1258(20) -1.2417(27) -0.4786(27)
H31 H -0.2011(18) -1.2583(28) -0.5878(27)
H32 H -0.1940(23) -1.2796(36) -0.4772(34)
H33 H -0.1409(21) -0.1466(29) 0.2694(28)
H34 H -0.1994(17) -0.1063(24) 0.1586(25)
H35 H -0.2252(25) -0.1178(36) 0.2362(35)
H36 H -0.2388(18) -0.9576(24) -0.5802(24)
H37 H -0.2594(17) -0.4333(23) 0.1900(22)
H38 H -0.1902(16) -0.4537(24) 0.3125(24)
H39 H -0.0285(19) -1.2425(30) 0.0507(27)
H40 H -0.2440(20) -1.2561(33) -0.3663(32)
H41 H -0.2633(30) -1.1622(47) -0.3125(42)
H42 H -0.2723(33) -1.2787(46) -0.2807(45)
H43 H -0.1443(26) -1.2864(38) -0.2086(36)
H45 H -0.1721(18) -0.9395(26) -0.6005(26)
C1A C 0.11221(14) -0.5108(2) 0.2152(2)
C3A C 0.09979(13) -0.5321(2) 0.3025(2)
C5A C 0.0801(2) -0.4534(2) 0.3434(2)
C7A C 0.0655(2) -0.4673(2) 0.4210(3)
C9A C 0.0707(2) -0.5614(3) 0.4600(3)
C11A C 0.0893(2) -0.6408(2) 0.4219(2)
C13A C 0.10446(13) -0.6285(2) 0.3427(2)
C15A C 0.11151(13) -0.8087(2) 0.3185(2)
H1A H 0.05953(13) -0.8155(2) 0.2989(2)
C17A C 0.14517(13) -0.9397(2) 0.4398(2)
C19A C 0.16289(13) -1.0080(2) 0.3757(2)
C21A C 0.11490(13) -0.9822(2) 0.2609(2)
C23A C 0.12480(12) -0.8730(2) 0.2463(2)
C25A C 0.19445(14) -1.1340(2) 0.4992(2)
C27A C 0.1776(2) -1.2391(2) 0.5103(2)
C29A C 0.1912(2) -0.9703(2) 0.5538(2)
N1A N 0.12653(12) -0.7082(2) 0.3084(2)
O1A O 0.10946(12) -0.42208(15) 0.1857(2)
O3A O 0.12386(13) -0.5826(2) 0.1724(2)
O5A O 0.16045(9) -0.84009(13) 0.42623(12)
O7A O 0.13137(10) -1.03850(14) 0.19599(14)
O9A O 0.07523(9) -0.84472(14) 0.14008(12)
O11A O 0.15042(9) -1.10830(12) 0.39128(12)
O13A O 0.17702(11) -1.07284(14) 0.55989(13)
H5A H 0.0717(19) -0.3955(30) 0.3081(26)
H7A H 0.0514(20) -0.4139(30) 0.4526(29)
H9A H 0.0551(18) -0.5804(27) 0.5135(26)
H11A H 0.0954(18) -0.6980(28) 0.4444(25)
H13A H 0.1366(20) -0.6821(30) 0.2589(29)
H16A H 0.0961(17) -0.9463(24) 0.4201(23)
H18A H 0.2121(15) -1.0007(20) 0.4002(20)
H20A H 0.0677(19) -0.9918(24) 0.2417(25)
H22A H 0.1362(19) -1.0897(29) 0.2133(28)
H24A H 0.1762(14) -0.8670(23) 0.2673(19)
H26A H 0.0957(20) -0.8495(34) 0.1050(29)
H28A H 0.2495(14) -1.1232(19) 0.5228(19)
H30A H 0.1258(20) -1.2417(27) 0.4786(27)
H31A H 0.2011(18) -1.2583(28) 0.5878(27)
H32A H 0.1940(23) -1.2796(36) 0.4772(34)
H36A H 0.2388(18) -0.9576(24) 0.5802(24)
H45A H 0.1721(18) -0.9395(26) 0.6005(26)
C2A C 0.11127(12) -0.8900(2) -0.0580(2)
C4A C 0.10245(11) -0.8599(2) -0.1613(2)
C6A C 0.08036(14) -0.9331(2) -0.2383(2)
C8A C 0.0656(2) -0.9118(2) -0.3379(2)
C10A C 0.0740(2) -0.8156(2) -0.3608(2)
C12A C 0.09713(14) -0.7413(2) -0.2863(2)
C14A C 0.11262(12) -0.7620(2) -0.1849(2)
C16A C 0.12632(13) -0.5858(2) -0.1358(2)
C18A C 0.16196(14) -0.4504(2) -0.1959(2)
C20A C 0.18203(13) -0.3862(2) -0.1009(2)
C22A C 0.13588(13) -0.4154(2) -0.0567(2)
C24A C 0.13886(13) -0.5270(2) -0.0404(2)
C26A C 0.21073(15) -0.2554(2) -0.1772(2)
C28A C 0.1920(2) -0.1500(2) -0.2127(2)
C30A C 0.2070(2) -0.4177(2) -0.2407(2)
N2A N 0.14086(12) -0.6884(2) -0.1081(2)
O2A O 0.11550(11) -0.97973(14) -0.0368(2)
O4A O 0.11185(10) -0.82093(13) 0.00057(13)
O6A O 0.17761(9) -0.55181(13) -0.16339(13)
O8A O 0.16310(10) -0.3639(2) 0.03961(14)
O10A O 0.08498(10) -0.55709(14) -0.0193(2)
O12A O 0.17003(9) -0.28426(13) -0.13113(14)
O14A O 0.19180(11) -0.31442(14) -0.2660(2)
H6A H 0.0757(16) -1.0022(25) -0.2198(23)
H8A H 0.0499(21) -0.9679(30) -0.3916(31)
H10A H 0.0659(21) -0.8014(29) -0.4374(32)
H12A H 0.1070(18) -0.6646(29) -0.3028(26)
H14A H 0.1400(20) -0.7063(28) -0.0523(29)
H15A H 0.0734(13) -0.5736(19) -0.1984(19)
H17A H 0.1094(18) -0.4453(25) -0.2529(24)
H19A H 0.2337(15) -0.3975(20) -0.0438(20)
H21A H 0.0873(16) -0.3985(20) -0.1041(21)
H23A H 0.1471(21) -0.3894(31) 0.0691(28)
H25A H 0.1868(17) -0.5426(25) 0.0153(25)
H29A H 0.2607(16) -0.2643(24) -0.1282(22)
H33A H 0.1409(21) -0.1466(29) -0.2694(28)
H34A H 0.1994(17) -0.1063(24) -0.1586(25)
H35A H 0.2252(25) -0.1178(36) -0.2362(35)
H37A H 0.2594(17) -0.4333(23) -0.1900(22)
H38A H 0.1902(16) -0.4537(24) -0.3125(24)
K1A K 0.18200(3) -1.15677(4) 0.04444(5)
C31A C 0.0060(2) -1.1984(2) -0.1885(2)
H2A H 0.0174(11) -1.1395(7) -0.2153(5)
H3A H -0.0471(2) -1.2080(17) -0.2271(3)
H4A H 0.0292(9) -1.2566(10) -0.1977(3)
O15A O 0.03322(11) -1.1853(2) -0.0789(2)
H39A H 0.0285(19) -1.2425(30) -0.0507(27)
C32A C 0.2431(2) -1.2377(3) 0.2989(4)
O16A O 0.16891(12) -1.2331(2) 0.2158(2)
H40A H 0.2440(20) -1.2561(33) 0.3663(32)
H41A H 0.2633(30) -1.1622(47) 0.3125(42)
H42A H 0.2723(33) -1.2787(46) 0.2807(45)
H43A H 0.1443(26) -1.2864(38) 0.2086(36)
O6C O -0.32239(9) -1.05181(13) -0.16339(13)
O8_2 O -0.16310(10) -1.3639(2) -0.03961(14)
O12_2 O -0.17003(9) -1.28426(13) 0.13113(14)
K1C K -0.31800(3) -0.65677(4) 0.04444(5)
K1_2 K -0.18200(3) -0.15677(4) -0.04444(5)
K1B K 0.31800(3) -0.65677(4) -0.04444(5)
K1A_2 K 0.18200(3) -0.15677(4) 0.04444(5)
O6B O 0.32239(9) -1.05181(13) 0.16339(13)
O8A_2 O 0.16310(10) -1.3639(2) 0.03961(14)
O12A_2 O 0.17003(9) -1.28426(13) -0.13113(14)
H23_2 H -0.1471(21) -1.3894(31) -0.0691(28)
H23A_2 H 0.1471(21) -1.3894(31) 0.0691(28)
H27? H -0.1036(20) -0.5581(31) -0.0478(31)
C33? C -0.5000 -0.6845(5) -0.5000
H46? H -0.4592(34) -0.7013(7) -0.4294(25)
H47? H -0.5378(14) -0.6494(37) -0.4949(65)
H48? H -0.4823(49) -0.6420(32) -0.5348(41)
O18? O -0.5304(5) -0.7739(9) -0.5599(9)
H49? H -0.4995(41) -0.8007(79) -0.570(14)
loop_
_geom_bond_atom_site_label_1
_geom_bond_atom_site_label_2
_geom_bond_site_symmetry_1
_geom_bond_site_symmetry_2
K1 O2 1_555 1_555
K2 O3 1_555 1_555
K3 O2 1_555 1_555
C1 C3 1_555 1_555
C2 C4 1_555 1_555
C3 C5 1_555 1_555
C4 C6 1_555 1_555
C5 C7 1_555 1_555
C6 C8 1_555 1_555
C7 C9 1_555 1_555
C8 C10 1_555 1_555
C9 C11 1_555 1_555
C10 C12 1_555 1_555
C11 C13 1_555 1_555
C12 C14 1_555 1_555
C13 C3 1_555 1_555
C14 C4 1_555 1_555
C15 H1 1_555 1_555
C16 C24 1_555 1_555
C17 C19 1_555 1_555
C18 C20 1_555 1_555
C19 C21 1_555 1_555
C20 C22 1_555 1_555
C21 C23 1_555 1_555
C22 C24 1_555 1_555
C23 C15 1_555 1_555
C24 O10 1_555 1_555
C25 C27 1_555 1_555
C26 C28 1_555 1_555
C27 H30 1_555 1_555
C28 H33 1_555 1_555
C29 C17 1_555 1_555
C30 C18 1_555 1_555
C31 H2 1_555 1_555
H3 C31 1_555 1_555
H4 C31 1_555 1_555
C32 O16 1_555 1_555
N1 C13 1_555 1_555
N2 C14 1_555 1_555
O1 C1 1_555 1_555
O2 C2 1_555 1_555
O3 C1 1_555 1_555
O4 K2 1_555 1_555
O5 C15 1_555 1_555
O6 C16 1_555 1_555
O7 K3 1_555 1_555
O8 C22 1_555 1_555
O9 K2 1_555 1_555
O10 K2 1_555 1_555
O11 C19 1_555 1_555
O12 C20 1_555 1_555
O13 C25 1_555 1_555
O14 C26 1_555 1_555
O15 K1 1_555 1_555
O16 K1 1_555 1_555
O17 H44 1_555 1_555
H5 C5 1_555 1_555
H6 C6 1_555 1_555
H7 C7 1_555 1_555
H8 C8 1_555 1_555
H9 C9 1_555 1_555
H10 C10 1_555 1_555
H11 C11 1_555 1_555
H12 C12 1_555 1_555
H13 N1 1_555 1_555
H14 N2 1_555 1_555
H15 C16 1_555 1_555
H16 C17 1_555 1_555
H17 C18 1_555 1_555
H18 C19 1_555 1_555
H19 C20 1_555 1_555
H20 C21 1_555 1_555
H21 C22 1_555 1_555
H22 O7 1_555 1_555
H23 O8 1_555 1_555
H24 C23 1_555 1_555
H25 C24 1_555 1_555
H26 O9 1_555 1_555
H28 C25 1_555 1_555
H29 C26 1_555 1_555
H31 C27 1_555 1_555
H32 C27 1_555 1_555
H34 C28 1_555 1_555
H35 C28 1_555 1_555
H36 C29 1_555 1_555
H37 C30 1_555 1_555
H38 C30 1_555 1_555
H39 O15 1_555 1_555
H40 C32 1_555 1_555
H41 C32 1_555 1_555
H42 C32 1_555 1_555
H43 O16 1_555 1_555
H45 C29 1_555 1_555
H44A O17 1_555 1_555
C1A C3A 1_555 1_555
C3A C5A 1_555 1_555
C5A C7A 1_555 1_555
C7A C9A 1_555 1_555
C9A C11A 1_555 1_555
C11A C13A 1_555 1_555
C13A C3A 1_555 1_555
C15A H1A 1_555 1_555
C17A C19A 1_555 1_555
C19A C21A 1_555 1_555
C21A C23A 1_555 1_555
C23A C15A 1_555 1_555
C25A C27A 1_555 1_555
C27A H30A 1_555 1_555
C29A C17A 1_555 1_555
N1A C13A 1_555 1_555
O1A C1A 1_555 1_555
O3A K2 1_555 1_555
O5A C15A 1_555 1_555
O7A K3 1_555 1_555
O9A K2 1_555 1_555
O11A C19A 1_555 1_555
O13A C25A 1_555 1_555
H5A C5A 1_555 1_555
H7A C7A 1_555 1_555
H9A C9A 1_555 1_555
H11A C11A 1_555 1_555
H13A N1A 1_555 1_555
H16A C17A 1_555 1_555
H18A C19A 1_555 1_555
H20A C21A 1_555 1_555
H22A O7A 1_555 1_555
H24A C23A 1_555 1_555
H26A O9A 1_555 1_555
H28A C25A 1_555 1_555
H31A C27A 1_555 1_555
H32A C27A 1_555 1_555
H36A C29A 1_555 1_555
H45A C29A 1_555 1_555
C2A C4A 1_555 1_555
C4A C6A 1_555 1_555
C6A C8A 1_555 1_555
C8A C10A 1_555 1_555
C10A C12A 1_555 1_555
C12A C14A 1_555 1_555
C14A C4A 1_555 1_555
C16A C24A 1_555 1_555
C18A C20A 1_555 1_555
C20A C22A 1_555 1_555
C22A C24A 1_555 1_555
C24A O10A 1_555 1_555
C26A C28A 1_555 1_555
C28A H33A 1_555 1_555
C30A C18A 1_555 1_555
N2A C14A 1_555 1_555
O2A K3 1_555 1_555
O4A K2 1_555 1_555
O6A C16A 1_555 1_555
O8A C22A 1_555 1_555
O10A K2 1_555 1_555
O12A C20A 1_555 1_555
O14A C26A 1_555 1_555
H6A C6A 1_555 1_555
H8A C8A 1_555 1_555
H10A C10A 1_555 1_555
H12A C12A 1_555 1_555
H14A N2A 1_555 1_555
H15A C16A 1_555 1_555
H17A C18A 1_555 1_555
H19A C20A 1_555 1_555
H21A C22A 1_555 1_555
H23A O8A 1_555 1_555
H25A C24A 1_555 1_555
H29A C26A 1_555 1_555
H34A C28A 1_555 1_555
H35A C28A 1_555 1_555
H37A C30A 1_555 1_555
H38A C30A 1_555 1_555
K1A O2A 1_555 1_555
C31A H2A 1_555 1_555
H3A C31A 1_555 1_555
H4A C31A 1_555 1_555
O15A K3 1_555 1_555
H39A O15A 1_555 1_555
C32A O16A 1_555 1_555
O16A K1A 1_555 1_555
H40A C32A 1_555 1_555
H41A C32A 1_555 1_555
H42A C32A 1_555 1_555
H43A O16A 1_555 1_555
O6C K1 1_555 1_555
O8_2 K1 1_555 1_555
O12_2 K1 1_555 1_555
K1C O6 1_555 1_555
K1_2 O8 1_555 1_555
K1B O6A 1_555 1_555
K1A_2 O8A 1_555 1_555
O6B K1A 1_555 1_555
O8A_2 K1A 1_555 1_555
O12A_2 K1A 1_555 1_555
H23_2 O8_2 1_555 1_555
H23A_2 O8A_2 1_555 1_555
K3 O9 1_555 1_555
K3 O9A 1_555 1_555
K3 O15 1_555 1_555
C2 O4 1_555 1_555
C15 N1 1_555 1_555
C16 N2 1_555 1_555
C17 O5 1_555 1_555
C18 O6 1_555 1_555
C21 O7 1_555 1_555
C23 O9 1_555 1_555
C25 O11 1_555 1_555
C26 O12 1_555 1_555
C29 O13 1_555 1_555
C30 O14 1_555 1_555
C31 O15 1_555 1_555
O12 K1_2 1_555 1_555
C1A O3A 1_555 1_555
C15A N1A 1_555 1_555
C17A O5A 1_555 1_555
C21A O7A 1_555 1_555
C23A O9A 1_555 1_555
C25A O11A 1_555 1_555
C29A O13A 1_555 1_555
C2A O2A 1_555 1_555
C2A O4A 1_555 1_555
C16A N2A 1_555 1_555
C18A O6A 1_555 1_555
C26A O12A 1_555 1_555
C30A O14A 1_555 1_555
O12A K1A_2 1_555 1_555
K1A O15A 1_555 1_555
C31A O15A 1_555 1_555

#END
