
#######################################################################
#
#                 Cambridge Crystallographic Data Centre
#                                CCDC 
#
#######################################################################
#
# If this CIF has been generated from an entry in the Cambridge 
# Structural Database, then it will include bibliographic, chemical, 
# crystal, experimental, refinement or atomic coordinate data resulting 
# from the CCDC's data processing and validation procedures.
#
#######################################################################

data_LOTXOH
_symmetry_cell_setting           triclinic
_symmetry_space_group_name_H-M   'P -1'
_symmetry_Int_Tables_number      2
_space_group_name_Hall           '-P 1'
loop_
_symmetry_equiv_pos_site_id
_symmetry_equiv_pos_as_xyz
1 x,y,z
2 -x,-y,-z
_cell_length_a                   9.187(2)
_cell_length_b                   10.276(2)
_cell_length_c                   10.976(2)
_cell_angle_alpha                67.89(3)
_cell_angle_beta                 68.19(3)
_cell_angle_gamma                65.69(3)
_cell_volume                     845.602
loop_
_atom_site_label
_atom_site_type_symbol
_atom_site_fract_x
_atom_site_fract_y
_atom_site_fract_z
Zn1 Zn 0.12037(4) 0.38499(3) 0.14717(3)
O1 O 0.0663(3) 0.6032(2) 0.1162(2)
O2 O -0.0012(3) 0.6889(2) -0.0811(2)
N1 N 0.3223(3) 0.3700(3) -0.0329(2)
N2 N 0.9191(3) 0.3824(3) -0.6669(3)
C1 C 0.0644(4) 0.8804(3) 0.0996(3)
H1 H 0.1092 0.7976 0.1683
O3 O 0.2714(3) 0.3080(2) 0.2714(2)
C2 C 0.0249(3) 0.7053(3) 0.0154(3)
C3 C 0.6932(4) 0.3682(3) -0.4104(3)
C4 C 0.5701(4) 0.3641(3) -0.2770(3)
C5 C 0.0118(3) 0.8579(3) 0.0079(3)
C6 C 0.4122(4) 0.0823(3) 0.4018(3)
C7 C 0.3147(4) 0.1699(3) 0.2970(3)
C8 C -0.0534(4) 0.9774(3) -0.0921(3)
C9 C 0.3908(4) 0.4780(4) -0.0969(4)
H2 H 0.3534 0.5583 -0.0568
C10 C 0.3837(4) 0.2556(3) -0.0866(3)
H3 H 0.3404 0.1742 -0.0395
C11 C 0.5115(4) 0.4803(4) -0.2172(4)
H4 H 0.5554 0.5616 -0.2604
O4 O 0.2803(5) 0.1070(3) 0.2423(3)
C12 C 0.5700(6) -0.0128(6) 0.3689(5)
C13 C 0.5050(4) 0.2487(4) -0.2062(4)
H5 H 0.5454 0.1636 -0.2404
C14 C 0.8754(7) 0.4791(5) -0.5996(4)
H6 H 0.9227 0.5582 -0.6414
C15 C 0.7660(7) 0.4756(5) -0.4732(5)
H7 H 0.7408 0.5500 -0.4291
C16 C 0.8497(6) 0.2775(5) -0.6066(4)
H8 H 0.8758 0.2059 -0.6540
C17 C 0.7410(7) 0.2658(5) -0.4801(5)
H9 H 0.6982 0.1838 -0.4395
C18 C 0.3444(6) 0.0959(6) 0.5292(5)
C8A C 0.0534(4) 1.0226(3) 0.0921(3)
C5A C -0.0118(3) 1.1421(3) -0.0079(3)
C1A C -0.0644(4) 1.1196(3) -0.0996(3)
H1A H -0.1092 1.2024 -0.1683
C2A C -0.0249(3) 1.2947(3) -0.0154(3)
O1A O -0.0663(3) 1.3968(2) -0.1162(2)
O2A O 0.0012(3) 1.3111(2) 0.0811(2)
C18A C 0.6556(6) -0.0959(6) 0.4708(5)
C6A C 0.5878(4) -0.0823(3) 0.5982(3)
C7A C 0.6853(4) -0.1699(3) 0.7030(3)
O3A O 0.7286(3) -0.3080(2) 0.7286(2)
O4A O 0.7197(5) -0.1070(3) 0.7577(3)
C12A C 0.4300(6) 0.0128(6) 0.6311(5)
N1_2 N -0.6777(3) 0.3700(3) 0.9671(2)
N2_2 N -0.0809(3) 0.3824(3) 0.3331(3)
C3_2 C -0.3068(4) 0.3682(3) 0.5896(3)
C4_2 C -0.4299(4) 0.3641(3) 0.7230(3)
C9_2 C -0.6092(4) 0.4780(4) 0.9031(4)
H2_2 H -0.6466 0.5583 0.9432
C10_2 C -0.6163(4) 0.2556(3) 0.9134(3)
H3_2 H -0.6596 0.1742 0.9605
C11_2 C -0.4885(4) 0.4803(4) 0.7828(4)
H4_2 H -0.4446 0.5616 0.7396
C13_2 C -0.4950(4) 0.2487(4) 0.7938(4)
H5_2 H -0.4546 0.1636 0.7596
C14_2 C -0.1246(7) 0.4791(5) 0.4004(4)
H6_2 H -0.0773 0.5582 0.3586
C15_2 C -0.2340(7) 0.4756(5) 0.5268(5)
H7_2 H -0.2592 0.5500 0.5709
C16_2 C -0.1503(6) 0.2775(5) 0.3934(4)
H8_2 H -0.1242 0.2059 0.3460
C17_2 C -0.2590(7) 0.2658(5) 0.5199(5)
H9_2 H -0.3018 0.1838 0.5605
Zn1A Zn -0.12037(4) 1.61501(3) -0.14717(3)
O2A_2 O 0.0012(3) 0.3111(2) 0.0811(2)
Zn1A_2 Zn -0.12037(4) 0.61501(3) -0.14717(3)
Zn1_2 Zn 1.12037(4) 0.38499(3) -0.85283(3)
Zn1_3 Zn 0.12037(4) 1.38499(3) 0.14717(3)
Zn1A_3 Zn 0.87963(4) -0.38499(3) 0.85283(3)
Zn1_4 Zn -0.87963(4) 0.38499(3) 1.14717(3)
O2_2 O -0.0012(3) 1.6889(2) -0.0811(2)
N1A N -0.3223(3) 1.6300(3) 0.0329(2)
N2A N 0.0809(3) 1.6176(3) -0.3331(3)
O3A_2 O -0.2714(3) 1.6920(2) -0.2714(2)
loop_
_geom_bond_atom_site_label_1
_geom_bond_atom_site_label_2
_geom_bond_site_symmetry_1
_geom_bond_site_symmetry_2
Zn1 O1 1_555 1_555
O1 C2 1_555 1_555
O2 C2 1_555 1_555
N1 Zn1 1_555 1_555
N2 C14 1_555 1_555
C1 H1 1_555 1_555
O3 Zn1 1_555 1_555
C2 C5 1_555 1_555
C3 C4 1_555 1_555
C4 C11 1_555 1_555
C5 C1 1_555 1_555
C6 C7 1_555 1_555
C7 O3 1_555 1_555
C8 C5 1_555 1_555
C9 N1 1_555 1_555
H2 C9 1_555 1_555
C10 N1 1_555 1_555
H3 C10 1_555 1_555
C11 C9 1_555 1_555
H4 C11 1_555 1_555
O4 C7 1_555 1_555
C12 C6 1_555 1_555
C13 C4 1_555 1_555
H5 C13 1_555 1_555
C14 H6 1_555 1_555
C15 C3 1_555 1_555
H7 C15 1_555 1_555
C16 N2 1_555 1_555
H8 C16 1_555 1_555
C17 C3 1_555 1_555
H9 C17 1_555 1_555
C18 C6 1_555 1_555
C8A C1 1_555 1_555
C5A C8A 1_555 1_555
C1A C8 1_555 1_555
H1A C1A 1_555 1_555
C2A C5A 1_555 1_555
O1A C2A 1_555 1_555
O2A C2A 1_555 1_555
C18A C12 1_555 1_555
C6A C18A 1_555 1_555
C7A C6A 1_555 1_555
O3A C7A 1_555 1_555
O4A C7A 1_555 1_555
C12A C18 1_555 1_555
N1_2 C9_2 1_555 1_555
N2_2 Zn1 1_555 1_555
C3_2 C4_2 1_555 1_555
C4_2 C11_2 1_555 1_555
C9_2 H2_2 1_555 1_555
C10_2 N1_2 1_555 1_555
H3_2 C10_2 1_555 1_555
C11_2 C9_2 1_555 1_555
H4_2 C11_2 1_555 1_555
C13_2 C4_2 1_555 1_555
H5_2 C13_2 1_555 1_555
C14_2 N2_2 1_555 1_555
H6_2 C14_2 1_555 1_555
C15_2 C3_2 1_555 1_555
H7_2 C15_2 1_555 1_555
C16_2 N2_2 1_555 1_555
H8_2 C16_2 1_555 1_555
C17_2 C3_2 1_555 1_555
H9_2 C17_2 1_555 1_555
Zn1A O1A 1_555 1_555
O2A_2 Zn1 1_555 1_555
Zn1A_2 O2 1_555 1_555
Zn1_2 N2 1_555 1_555
Zn1_3 O2A 1_555 1_555
Zn1A_3 O3A 1_555 1_555
Zn1_4 N1_2 1_555 1_555
O2_2 Zn1A 1_555 1_555
N1A Zn1A 1_555 1_555
N2A Zn1A 1_555 1_555
O3A_2 Zn1A 1_555 1_555
C10 C13 1_555 1_555
C14 C15 1_555 1_555
C16 C17 1_555 1_555
C5A C1A 1_555 1_555
C6A C12A 1_555 1_555
C10_2 C13_2 1_555 1_555
C14_2 C15_2 1_555 1_555
C16_2 C17_2 1_555 1_555

#END
