
#######################################################################
#
#                 Cambridge Crystallographic Data Centre
#                                CCDC 
#
#######################################################################
#
# If this CIF has been generated from an entry in the Cambridge 
# Structural Database, then it will include bibliographic, chemical, 
# crystal, experimental, refinement or atomic coordinate data resulting 
# from the CCDC's data processing and validation procedures.
#
#######################################################################

data_LOVFOT
_symmetry_cell_setting           monoclinic
_symmetry_space_group_name_H-M   'C 2/c'
_symmetry_Int_Tables_number      15
_space_group_name_Hall           '-C 2yn'
loop_
_symmetry_equiv_pos_site_id
_symmetry_equiv_pos_as_xyz
1 x,y,z
2 -x,y,1/2-z
3 1/2+x,1/2+y,z
4 1/2-x,1/2+y,1/2-z
5 -x,-y,-z
6 x,-y,1/2+z
7 1/2-x,1/2-y,-z
8 1/2+x,1/2-y,1/2+z
_cell_length_a                   17.897(3)
_cell_length_b                   17.983(3)
_cell_length_c                   14.680(3)
_cell_angle_alpha                90
_cell_angle_beta                 127.56
_cell_angle_gamma                90
_cell_volume                     3745.29
loop_
_atom_site_label
_atom_site_type_symbol
_atom_site_fract_x
_atom_site_fract_y
_atom_site_fract_z
Cu1 Cu 1.04753(2) 0.11810(2) 1.05768(3)
N1 N 0.17412(16) 0.14497(14) 0.1627(2)
N2 N 0.20784(18) 0.16217(15) 0.2720(2)
N3 N 0.92345(16) 0.08893(14) 0.9438(2)
N4 N 0.85897(17) 0.08382(15) 0.9644(2)
C1 C 0.2316(2) 0.1500(2) 0.0485(3)
H1 H 0.1960 0.1042 0.0109
H2 H 0.2930 0.1468 0.0638
H3 H 0.1965 0.1926 -0.0017
C2 C 0.24576(18) 0.15962(17) 0.1579(3)
C3 C 0.32363(19) 0.18643(16) 0.2643(3)
C4 C 0.2967(2) 0.18625(17) 0.3352(3)
C5 C 0.3488(2) 0.2079(2) 0.4589(3)
H4 H 0.3038 0.2148 0.4754
H5 H 0.3832 0.2543 0.4738
H6 H 0.3936 0.1685 0.5083
C6 C 0.9271(2) 0.0651(2) 0.7823(3)
H7 H 0.9942 0.0758 0.8414
H8 H 0.8998 0.1026 0.7214
H9 H 0.9201 0.0158 0.7497
C7 C 0.87758(19) 0.06698(17) 0.8345(2)
C8 C 0.78440(18) 0.04748(16) 0.7856(2)
C9 C 0.77564(19) 0.05926(17) 0.8715(2)
C10 C 0.6949(2) 0.0485(2) 0.8750(3)
H10 H 0.7152 0.0595 0.9524
H11 H 0.6731 -0.0031 0.8552
H12 H 0.6434 0.0820 0.8196
C11 C 0.71303(18) 0.01577(17) 0.6692(2)
H13 H 0.6791 -0.0243 0.6766
H14 H 0.7471 -0.0077 0.6431
C12 C 0.63985(18) 0.06871(16) 0.5751(2)
C13 C 0.6368(2) 0.14379(17) 0.5925(3)
H15 H 0.6826 0.1650 0.6659
C14 C 0.57071(18) 0.03984(17) 0.4656(2)
H16 H 0.5712 -0.0117 0.4517
C15 C 0.50188(19) 0.08484(17) 0.3775(3)
H17 H 0.4562 0.0639 0.3038
C16 C 0.5667(2) 0.18849(18) 0.5026(3)
H18 H 0.5661 0.2401 0.5160
C17 C 0.49851(19) 0.16030(17) 0.3951(3)
C18 C 0.41951(19) 0.20864(18) 0.2991(3)
H19 H 0.4320 0.2612 0.3247
H20 H 0.4189 0.2050 0.2314
H21 H 0.178(2) 0.1631(18) 0.292(3)
H22 H 0.876(2) 0.0947(17) 1.030(3)
S1 S 1.0000 0.15677(7) 1.2500
O1 O 1.00810(16) 0.19924(16) 1.1724(2)
O2 O 0.91446(16) 0.10961(14) 1.1807(2)
O1A O 0.99190(16) 0.19924(16) 1.3276(2)
O2A O 1.08554(16) 0.10961(14) 1.3193(2)
Cu1A Cu 0.95247(2) 0.11810(2) 1.44232(3)
N1A N 1.82588(16) 0.14497(14) 2.3373(2)
N2A N 1.79216(18) 0.16217(15) 2.2280(2)
N3A N 1.07655(16) 0.08893(14) 1.5562(2)
N4A N 1.14103(17) 0.08382(15) 1.5356(2)
C1A C 1.7684(2) 0.1500(2) 2.4515(3)
H1A H 1.8040 0.1042 2.4891
H2A H 1.7070 0.1468 2.4362
H3A H 1.8035 0.1926 2.5017
C2A C 1.75424(18) 0.15962(17) 2.3421(3)
C3A C 1.67637(19) 0.18643(16) 2.2357(3)
C4A C 1.7033(2) 0.18625(17) 2.1648(3)
C5A C 1.6512(2) 0.2079(2) 2.0411(3)
H4A H 1.6962 0.2148 2.0246
H5A H 1.6168 0.2543 2.0262
H6A H 1.6064 0.1685 1.9917
C6A C 1.0729(2) 0.0651(2) 1.7177(3)
H7A H 1.0058 0.0758 1.6586
H8A H 1.1002 0.1026 1.7786
H9A H 1.0799 0.0158 1.7503
C7A C 1.12242(19) 0.06698(17) 1.6655(2)
C8A C 1.21560(18) 0.04748(16) 1.7144(2)
C9A C 1.22436(19) 0.05926(17) 1.6285(2)
C10A C 1.3051(2) 0.0485(2) 1.6250(3)
H10A H 1.2848 0.0595 1.5476
H11A H 1.3269 -0.0031 1.6448
H12A H 1.3566 0.0820 1.6804
C11A C 1.28697(18) 0.01577(17) 1.8308(2)
H13A H 1.3209 -0.0243 1.8234
H14A H 1.2529 -0.0077 1.8569
C12A C 1.36015(18) 0.06871(16) 1.9249(2)
C13A C 1.3632(2) 0.14379(17) 1.9075(3)
H15A H 1.3174 0.1650 1.8341
C14A C 1.42929(18) 0.03984(17) 2.0344(2)
H16A H 1.4288 -0.0117 2.0483
C15A C 1.49812(19) 0.08484(17) 2.1225(3)
H17A H 1.5438 0.0639 2.1962
C16A C 1.4333(2) 0.18849(18) 1.9974(3)
H18A H 1.4339 0.2401 1.9840
C17A C 1.50149(19) 0.16030(17) 2.1049(3)
C18A C 1.58049(19) 0.20864(18) 2.2009(3)
H19A H 1.5680 0.2612 2.1753
H20A H 1.5811 0.2050 2.2686
H21A H 1.822(2) 0.1631(18) 2.208(3)
H22A H 1.124(2) 0.0947(17) 1.470(3)
Cu1_2 Cu 0.04753(2) 0.11810(2) 0.05768(3)
Cu1A_2 Cu 1.95247(2) 0.11810(2) 2.44232(3)
N1_2 N 1.17412(16) 0.14497(14) 1.1627(2)
N1A_2 N 0.82588(16) 0.14497(14) 1.3373(2)
O3 O 0.0000 0.3473(3) 0.2500
loop_
_geom_bond_atom_site_label_1
_geom_bond_atom_site_label_2
_geom_bond_site_symmetry_1
_geom_bond_site_symmetry_2
Cu1 N3 1_555 1_555
N1 N2 1_555 1_555
N2 C4 1_555 1_555
N3 N4 1_555 1_555
N4 C9 1_555 1_555
C1 H1 1_555 1_555
H2 C1 1_555 1_555
H3 C1 1_555 1_555
C2 N1 1_555 1_555
C3 C2 1_555 1_555
C4 C3 1_555 1_555
C5 C4 1_555 1_555
H4 C5 1_555 1_555
H5 C5 1_555 1_555
H6 C5 1_555 1_555
C6 H7 1_555 1_555
H8 C6 1_555 1_555
H9 C6 1_555 1_555
C7 N3 1_555 1_555
C8 C7 1_555 1_555
C9 C8 1_555 1_555
C10 C9 1_555 1_555
H10 C10 1_555 1_555
H11 C10 1_555 1_555
H12 C10 1_555 1_555
C11 C8 1_555 1_555
H13 C11 1_555 1_555
H14 C11 1_555 1_555
C12 C11 1_555 1_555
C13 C12 1_555 1_555
H15 C13 1_555 1_555
C14 C12 1_555 1_555
H16 C14 1_555 1_555
C15 C14 1_555 1_555
H17 C15 1_555 1_555
C16 C13 1_555 1_555
H18 C16 1_555 1_555
C17 C15 1_555 1_555
C18 C3 1_555 1_555
H19 C18 1_555 1_555
H20 C18 1_555 1_555
H21 N2 1_555 1_555
H22 N4 1_555 1_555
S1 O1 1_555 1_555
O1 Cu1 1_555 1_555
O2 S1 1_555 1_555
O1A S1 1_555 1_555
O2A S1 1_555 1_555
Cu1A O1A 1_555 1_555
N1A N2A 1_555 1_555
N2A C4A 1_555 1_555
N3A Cu1A 1_555 1_555
N4A N3A 1_555 1_555
C1A H1A 1_555 1_555
H2A C1A 1_555 1_555
H3A C1A 1_555 1_555
C2A N1A 1_555 1_555
C3A C2A 1_555 1_555
C4A C3A 1_555 1_555
C5A C4A 1_555 1_555
H4A C5A 1_555 1_555
H5A C5A 1_555 1_555
H6A C5A 1_555 1_555
C6A H7A 1_555 1_555
H8A C6A 1_555 1_555
H9A C6A 1_555 1_555
C7A N3A 1_555 1_555
C8A C7A 1_555 1_555
C9A N4A 1_555 1_555
C10A C9A 1_555 1_555
H10A C10A 1_555 1_555
H11A C10A 1_555 1_555
H12A C10A 1_555 1_555
C11A C8A 1_555 1_555
H13A C11A 1_555 1_555
H14A C11A 1_555 1_555
C12A C11A 1_555 1_555
C13A C12A 1_555 1_555
H15A C13A 1_555 1_555
C14A C12A 1_555 1_555
H16A C14A 1_555 1_555
C15A C14A 1_555 1_555
H17A C15A 1_555 1_555
C16A C13A 1_555 1_555
H18A C16A 1_555 1_555
C17A C15A 1_555 1_555
C18A C3A 1_555 1_555
H19A C18A 1_555 1_555
H20A C18A 1_555 1_555
H21A N2A 1_555 1_555
H22A N4A 1_555 1_555
Cu1_2 N1 1_555 1_555
Cu1A_2 N1A 1_555 1_555
N1_2 Cu1 1_555 1_555
N1A_2 Cu1A 1_555 1_555
C1 C2 1_555 1_555
C6 C7 1_555 1_555
C16 C17 1_555 1_555
C17 C18 1_555 1_555
C1A C2A 1_555 1_555
C6A C7A 1_555 1_555
C8A C9A 1_555 1_555
C16A C17A 1_555 1_555
C17A C18A 1_555 1_555

#END
