
#######################################################################
#
#                 Cambridge Crystallographic Data Centre
#                                CCDC 
#
#######################################################################
#
# If this CIF has been generated from an entry in the Cambridge 
# Structural Database, then it will include bibliographic, chemical, 
# crystal, experimental, refinement or atomic coordinate data resulting 
# from the CCDC's data processing and validation procedures.
#
#######################################################################

data_LOVGUA
_symmetry_cell_setting           tetragonal
_symmetry_space_group_name_H-M   'I 41/a'
_symmetry_Int_Tables_number      88
_space_group_name_Hall           '-I 4ad'
loop_
_symmetry_equiv_pos_site_id
_symmetry_equiv_pos_as_xyz
1 x,y,z
2 1/2-x,-y,1/2+z
3 3/4-y,1/4+x,1/4+z
4 3/4+y,3/4-x,3/4+z
5 1/2+x,1/2+y,1/2+z
6 -x,1/2-y,z
7 1/4-y,3/4+x,3/4+z
8 1/4+y,1/4-x,1/4+z
9 -x,-y,-z
10 1/2+x,y,1/2-z
11 1/4+y,3/4-x,3/4-z
12 1/4-y,1/4+x,1/4-z
13 1/2-x,1/2-y,1/2-z
14 x,1/2+y,-z
15 3/4+y,1/4-x,1/4-z
16 3/4-y,3/4+x,3/4-z
_cell_length_a                   15.4451(4)
_cell_length_b                   15.4451(4)
_cell_length_c                   17.1881(9)
_cell_angle_alpha                90
_cell_angle_beta                 90
_cell_angle_gamma                90
_cell_volume                     4100.24
loop_
_atom_site_label
_atom_site_type_symbol
_atom_site_fract_x
_atom_site_fract_y
_atom_site_fract_z
I1 I 0.445798(12) 0.618903(12) 1.027477(11)
Cu1 Cu 0.58195(2) 0.71751(2) 1.07231(2)
N1 N 0.68042(16) 0.67230(16) 1.00761(15)
N2 N 0.67016(17) 0.60369(17) 0.95897(15)
C1 C 0.7996(2) 0.7677(2) 1.0479(2)
H1 H 0.7527 0.7954 1.0772
H2 H 0.8255 0.8099 1.0122
H3 H 0.8439 0.7468 1.0842
C2 C 0.76424(19) 0.69325(19) 1.00254(18)
C3 C 0.80738(19) 0.63812(19) 0.95002(17)
C4 C 0.74478(19) 0.58115(19) 0.92354(17)
C5 C 0.7501(2) 0.5088(2) 0.86686(19)
H4 H 0.6916 0.4878 0.8552
H5 H 0.7845 0.4616 0.8891
H6 H 0.7775 0.5292 0.8189
C6 C 0.9008(2) 0.6387(2) 0.92592(19)
H7 H 0.9265 0.6953 0.9399
H8 H 0.9042 0.6325 0.8687
C7 C 0.95352(18) 0.5671(2) 0.96361(18)
C8 C 0.96478(19) 0.4878(2) 0.92732(19)
H9 H 0.9404 0.4787 0.8772
C9 C 0.9890(2) 0.5786(2) 1.03738(19)
H10 H 0.9815 0.6322 1.0637
H11 H 0.618(2) 0.574(2) 0.956(2)
N1H N 1.31958(16) 0.32770(16) 0.99239(15)
N2H N 1.32984(17) 0.39631(17) 1.04103(15)
C1H C 1.2004(2) 0.2323(2) 0.9521(2)
H1H H 1.2473 0.2046 0.9228
H2H H 1.1745 0.1901 0.9878
H3H H 1.1561 0.2532 0.9158
C2H C 1.23576(19) 0.30675(19) 0.99746(18)
C3H C 1.19262(19) 0.36188(19) 1.04998(17)
C4H C 1.25522(19) 0.41885(19) 1.07646(17)
C5H C 1.2499(2) 0.4912(2) 1.13314(19)
H4H H 1.3084 0.5122 1.1448
H5H H 1.2155 0.5384 1.1109
H6H H 1.2225 0.4708 1.1811
C6H C 1.0992(2) 0.3613(2) 1.07408(19)
H7H H 1.0735 0.3047 1.0601
H8H H 1.0958 0.3675 1.1313
C7H C 1.04648(18) 0.4329(2) 1.03639(18)
C8H C 1.03522(19) 0.5122(2) 1.07268(19)
H9H H 1.0596 0.5213 1.1228
C9H C 1.0110(2) 0.4214(2) 0.96262(19)
H10H H 1.0185 0.3678 0.9363
H11H H 1.382(2) 0.426(2) 1.044(2)
I1E I 0.554202(12) 0.881097(12) 1.027477(11)
Cu1E Cu 0.41805(2) 0.78249(2) 1.07231(2)
I1K I 0.631097(12) 0.695798(12) 1.222523(11)
I1N I 0.368903(12) 0.804202(12) 1.222523(11)
Cu1H Cu 1.41805(2) 0.28249(2) 0.92769(2)
Cu1K Cu 0.53249(2) 0.83195(2) 1.17769(2)
Cu1N Cu 0.46751(2) 0.66805(2) 1.17769(2)
N1E N 0.31958(16) 0.82770(16) 1.00761(15)
loop_
_geom_bond_atom_site_label_1
_geom_bond_atom_site_label_2
_geom_bond_site_symmetry_1
_geom_bond_site_symmetry_2
I1 Cu1 1_555 1_555
Cu1 N1 1_555 1_555
N1 N2 1_555 1_555
N2 C4 1_555 1_555
C1 H1 1_555 1_555
H2 C1 1_555 1_555
H3 C1 1_555 1_555
C2 N1 1_555 1_555
C3 C2 1_555 1_555
C4 C3 1_555 1_555
C5 C4 1_555 1_555
H4 C5 1_555 1_555
H5 C5 1_555 1_555
H6 C5 1_555 1_555
C6 C3 1_555 1_555
H7 C6 1_555 1_555
H8 C6 1_555 1_555
C7 C6 1_555 1_555
C8 C7 1_555 1_555
H9 C8 1_555 1_555
C9 C7 1_555 1_555
H10 C9 1_555 1_555
H11 N2 1_555 1_555
N1H N2H 1_555 1_555
N2H C4H 1_555 1_555
C1H H1H 1_555 1_555
H2H C1H 1_555 1_555
H3H C1H 1_555 1_555
C2H N1H 1_555 1_555
C3H C2H 1_555 1_555
C4H C3H 1_555 1_555
C5H C4H 1_555 1_555
H4H C5H 1_555 1_555
H5H C5H 1_555 1_555
H6H C5H 1_555 1_555
C6H C3H 1_555 1_555
H7H C6H 1_555 1_555
H8H C6H 1_555 1_555
C7H C6H 1_555 1_555
C8H C9 1_555 1_555
H9H C8H 1_555 1_555
C9H C8 1_555 1_555
H10H C9H 1_555 1_555
H11H N2H 1_555 1_555
I1E Cu1 1_555 1_555
Cu1E I1 1_555 1_555
I1K Cu1 1_555 1_555
I1N Cu1E 1_555 1_555
Cu1H N1H 1_555 1_555
Cu1K I1E 1_555 1_555
Cu1N I1 1_555 1_555
N1E Cu1E 1_555 1_555
C1 C2 1_555 1_555
C1H C2H 1_555 1_555
C7H C8H 1_555 1_555
C7H C9H 1_555 1_555
I1E Cu1E 1_555 1_555
I1K Cu1K 1_555 1_555
I1K Cu1N 1_555 1_555
I1N Cu1K 1_555 1_555
I1N Cu1N 1_555 1_555

#END
