
#######################################################################
#
#                 Cambridge Crystallographic Data Centre
#                                CCDC 
#
#######################################################################
#
# If this CIF has been generated from an entry in the Cambridge 
# Structural Database, then it will include bibliographic, chemical, 
# crystal, experimental, refinement or atomic coordinate data resulting 
# from the CCDC's data processing and validation procedures.
#
#######################################################################

data_LOVGAG
_symmetry_cell_setting           triclinic
_symmetry_space_group_name_H-M   'P -1'
_symmetry_Int_Tables_number      2
_space_group_name_Hall           '-P 1'
loop_
_symmetry_equiv_pos_site_id
_symmetry_equiv_pos_as_xyz
1 x,y,z
2 -x,-y,-z
_cell_length_a                   4.5776(6)
_cell_length_b                   9.2930(11)
_cell_length_c                   11.9874(14)
_cell_angle_alpha                82.200(2)
_cell_angle_beta                 84.840(2)
_cell_angle_gamma                76.620(2)
_cell_volume                     490.601
loop_
_atom_site_label
_atom_site_type_symbol
_atom_site_fract_x
_atom_site_fract_y
_atom_site_fract_z
Br1 Br 0.44757(10) -0.18763(5) 0.61178(4)
Cu1 Cu 0.63928(13) 0.02497(6) 0.58295(5)
N1 N 0.8203(8) 0.1456(4) 0.6624(3)
N2 N 0.9510(8) 0.2542(4) 0.6085(3)
C1 C 0.7198(12) 0.0433(5) 0.8576(4)
C2 C 0.8355(9) 0.1514(4) 0.7720(3)
C3 C 0.9791(8) 0.2648(4) 0.7887(3)
C4 C 1.0533(9) 0.3272(4) 0.6814(3)
C5 C 1.2055(10) 0.4512(5) 0.6420(4)
C6 C 1.0328(9) 0.3111(5) 0.8989(3)
C7 C 0.7565(8) 0.4088(4) 0.9515(3)
C8 C 0.6196(9) 0.5447(4) 0.8942(3)
C9 C 0.6336(9) 0.3657(4) 1.0582(3)
H1 H 0.694(11) 0.567(5) 0.831(4)
H2 H 0.717(10) 0.270(5) 1.099(4)
H3 H 0.963(11) 0.257(6) 0.546(5)
H4 H 0.83(2) -0.015(11) 0.850(8)
H5 H 1.363(14) 0.446(7) 0.692(5)
H6 H 1.107(11) 0.216(5) 0.961(4)
H7 H 0.512(15) 0.050(7) 0.841(5)
H8 H 1.088(12) 0.543(6) 0.637(4)
H9 H 1.155(14) 0.357(7) 0.884(5)
H10 H 0.665(16) 0.084(8) 0.920(6)
H11 H 1.310(12) 0.427(6) 0.576(5)
N1A N 0.1797(8) 0.8544(4) 1.3376(3)
N2A N 0.0490(8) 0.7458(4) 1.3915(3)
C1A C 0.2802(12) 0.9567(5) 1.1424(4)
C2A C 0.1645(9) 0.8486(4) 1.2280(3)
C3A C 0.0209(8) 0.7352(4) 1.2113(3)
C4A C -0.0533(9) 0.6728(4) 1.3186(3)
C5A C -0.2055(10) 0.5488(5) 1.3580(4)
C6A C -0.0328(9) 0.6889(5) 1.1011(3)
C7A C 0.2435(8) 0.5912(4) 1.0485(3)
C8A C 0.3804(9) 0.4553(4) 1.1058(3)
C9A C 0.3664(9) 0.6343(4) 0.9418(3)
H1A H 0.306(11) 0.433(5) 1.169(4)
H2A H 0.283(10) 0.730(5) 0.901(4)
H3A H 0.037(11) 0.743(6) 1.454(5)
H4A H 0.17(2) 1.015(11) 1.150(8)
H5A H -0.363(14) 0.554(7) 1.308(5)
H6A H -0.107(11) 0.784(5) 1.039(4)
H7A H 0.488(15) 0.950(7) 1.159(5)
H8A H -0.088(12) 0.457(6) 1.363(4)
H9A H -0.155(14) 0.643(7) 1.116(5)
H10A H 0.335(16) 0.916(8) 1.080(6)
H11A H -0.310(12) 0.573(6) 1.424(5)
Br1A Br 0.55243(10) 0.18763(5) 0.38822(4)
Cu1A Cu 0.36072(13) -0.02497(6) 0.41705(5)
Cu1A_2 Cu 0.36072(13) 0.97503(6) 1.41705(5)
N1A_2 N 0.1797(8) -0.1456(4) 0.3376(3)
loop_
_geom_bond_atom_site_label_1
_geom_bond_atom_site_label_2
_geom_bond_site_symmetry_1
_geom_bond_site_symmetry_2
Br1 Cu1 1_555 1_555
Cu1 N1 1_555 1_555
N1 N2 1_555 1_555
N2 C4 1_555 1_555
C1 C2 1_555 1_555
C2 N1 1_555 1_555
C3 C2 1_555 1_555
C4 C3 1_555 1_555
C5 C4 1_555 1_555
C6 C3 1_555 1_555
C7 C6 1_555 1_555
C8 C7 1_555 1_555
C9 C7 1_555 1_555
H1 C8 1_555 1_555
H2 C9 1_555 1_555
H3 N2 1_555 1_555
H4 C1 1_555 1_555
H5 C5 1_555 1_555
H6 C6 1_555 1_555
H7 C1 1_555 1_555
H8 C5 1_555 1_555
H9 C6 1_555 1_555
H10 C1 1_555 1_555
H11 C5 1_555 1_555
N1A N2A 1_555 1_555
N2A C4A 1_555 1_555
C1A C2A 1_555 1_555
C2A N1A 1_555 1_555
C3A C2A 1_555 1_555
C4A C3A 1_555 1_555
C5A C4A 1_555 1_555
C6A C3A 1_555 1_555
C7A C6A 1_555 1_555
C8A C9 1_555 1_555
C9A C8 1_555 1_555
H1A C8A 1_555 1_555
H2A C9A 1_555 1_555
H3A N2A 1_555 1_555
H4A C1A 1_555 1_555
H5A C5A 1_555 1_555
H6A C6A 1_555 1_555
H7A C1A 1_555 1_555
H8A C5A 1_555 1_555
H9A C6A 1_555 1_555
H10A C1A 1_555 1_555
H11A C5A 1_555 1_555
Br1A Cu1 1_555 1_555
Cu1A Br1 1_555 1_555
Cu1A_2 N1A 1_555 1_555
N1A_2 Cu1A 1_555 1_555
C7A C8A 1_555 1_555
C7A C9A 1_555 1_555
Br1A Cu1A 1_555 1_555

#END
