
#######################################################################
#
#                 Cambridge Crystallographic Data Centre
#                                CCDC 
#
#######################################################################
#
# If this CIF has been generated from an entry in the Cambridge 
# Structural Database, then it will include bibliographic, chemical, 
# crystal, experimental, refinement or atomic coordinate data resulting 
# from the CCDC's data processing and validation procedures.
#
#######################################################################

data_LOVGEK
_symmetry_cell_setting           monoclinic
_symmetry_space_group_name_H-M   'P 21/n'
_symmetry_Int_Tables_number      14
_space_group_name_Hall           '-P 2yn'
loop_
_symmetry_equiv_pos_site_id
_symmetry_equiv_pos_as_xyz
1 x,y,z
2 1/2-x,1/2+y,1/2-z
3 -x,-y,-z
4 1/2+x,1/2-y,1/2+z
_cell_length_a                   12.8466(5)
_cell_length_b                   14.4677(6)
_cell_length_c                   14.4823(6)
_cell_angle_alpha                90
_cell_angle_beta                 94.3750(10)
_cell_angle_gamma                90
_cell_volume                     2683.85
loop_
_atom_site_label
_atom_site_type_symbol
_atom_site_fract_x
_atom_site_fract_y
_atom_site_fract_z
Cu1 Cu 0.063285(15) 0.763810(14) 1.085899(12)
Cl1 Cl 0.11583(3) 0.92382(3) 1.07369(3)
Cl2 Cl -0.08698(3) 0.69083(3) 1.12235(3)
O1 O 0.21163(9) 0.70134(9) 1.05001(8)
N1 N 0.01108(11) 0.76444(9) 0.95401(9)
N2 N -0.02469(11) 0.84208(10) 0.90966(9)
N3 N 0.13857(10) 0.83582(10) 0.26703(9)
N4 N 0.11730(11) 0.75831(9) 0.21694(9)
N5 N 0.33642(11) 0.68934(10) 0.94664(9)
C1 C 0.01443(15) 0.59691(12) 0.92025(12)
H1 H 0.0537 0.5953 0.9810
H2 H 0.0574 0.5711 0.8734
H3 H -0.0495 0.5602 0.9224
C2 C -0.01342(12) 0.69429(11) 0.89583(10)
C3 C -0.06527(12) 0.72794(11) 0.81407(10)
C4 C -0.07067(11) 0.82281(11) 0.82506(10)
C5 C -0.11276(13) 0.89507(11) 0.75942(11)
H4 H -0.1444 0.9446 0.7939
H5 H -0.1657 0.8677 0.7153
H6 H -0.0559 0.9205 0.7258
C6 C -0.10001(12) 0.67497(11) 0.72838(10)
H7 H -0.1647 0.7034 0.6997
H8 H -0.1169 0.6109 0.7460
C7 C -0.01925(12) 0.67194(10) 0.65718(10)
C8 C 0.07642(12) 0.71636(11) 0.67104(11)
H9 H 0.0930 0.7488 0.7273
C9 C -0.04095(12) 0.62447(11) 0.57351(10)
H10 H -0.1057 0.5932 0.5624
C10 C 0.14863(12) 0.71422(11) 0.60407(11)
H11 H 0.2135 0.7453 0.6153
C11 C 0.03088(12) 0.62254(11) 0.50681(10)
H12 H 0.0144 0.5903 0.4504
C12 C 0.12727(12) 0.66741(11) 0.52124(10)
C13 C 0.20645(12) 0.66620(11) 0.44884(10)
H13 H 0.2733 0.6916 0.4764
H14 H 0.2190 0.6014 0.4308
C14 C 0.17226(12) 0.72102(11) 0.36344(10)
C15 C 0.20411(14) 0.89019(12) 0.42392(11)
H15 H 0.2184 0.9476 0.3912
H16 H 0.2671 0.8708 0.4614
H17 H 0.1474 0.9006 0.4643
C16 C 0.17287(12) 0.81660(11) 0.35525(10)
C17 C 0.13633(12) 0.68769(11) 0.27568(10)
C18 C 0.11868(13) 0.58993(11) 0.24535(11)
H18 H 0.0446 0.5746 0.2471
H19 H 0.1604 0.5486 0.2870
H20 H 0.1394 0.5825 0.1821
C19 C 0.24696(13) 0.71948(12) 0.97430(11)
H21 H 0.2060 0.7583 0.9330
C20 C 0.40790(14) 0.63304(12) 1.00625(12)
H22 H 0.4695 0.6698 1.0267
H23 H 0.4295 0.5790 0.9717
H24 H 0.3727 0.6126 1.0604
C21 C 0.37133(14) 0.71381(13) 0.85623(12)
H25 H 0.3146 0.7451 0.8194
H26 H 0.3911 0.6576 0.8241
H27 H 0.4317 0.7552 0.8645
H28 H -0.0128(16) 0.8938(15) 0.9353(14)
H29 H 0.1308(16) 0.8849(16) 0.2378(15)
Cu1_2 Cu 0.063285(15) 0.763810(14) 0.085899(12)
N4_2 N 0.11730(11) 0.75831(9) 1.21694(9)
O2 O 0.40404(10) 0.47016(9) 0.84625(9)
N6 N 0.28621(11) 0.48284(10) 0.72096(10)
C22 C 0.31761(14) 0.45625(12) 0.80720(12)
H30 H 0.2686 0.4238 0.8409
C23 C 0.35514(14) 0.53298(13) 0.66374(12)
H31 H 0.3300 0.5966 0.6551
H32 H 0.3560 0.5025 0.6033
H33 H 0.4259 0.5336 0.6942
C24 C 0.18076(15) 0.46523(14) 0.68121(15)
H34 H 0.1431 0.4282 0.7245
H35 H 0.1837 0.4315 0.6228
H36 H 0.1444 0.5241 0.6695
loop_
_geom_bond_atom_site_label_1
_geom_bond_atom_site_label_2
_geom_bond_site_symmetry_1
_geom_bond_site_symmetry_2
Cu1 Cl1 1_555 1_555
Cl2 Cu1 1_555 1_555
O1 Cu1 1_555 1_555
N1 Cu1 1_555 1_555
N2 N1 1_555 1_555
N3 N4 1_555 1_555
N4 C17 1_555 1_555
N5 C19 1_555 1_555
C1 H1 1_555 1_555
H2 C1 1_555 1_555
H3 C1 1_555 1_555
C2 N1 1_555 1_555
C3 C2 1_555 1_555
C4 N2 1_555 1_555
C5 C4 1_555 1_555
H4 C5 1_555 1_555
H5 C5 1_555 1_555
H6 C5 1_555 1_555
C6 C3 1_555 1_555
H7 C6 1_555 1_555
H8 C6 1_555 1_555
C7 C6 1_555 1_555
C8 C7 1_555 1_555
H9 C8 1_555 1_555
C9 C7 1_555 1_555
H10 C9 1_555 1_555
C10 C8 1_555 1_555
H11 C10 1_555 1_555
C11 C9 1_555 1_555
H12 C11 1_555 1_555
C12 C10 1_555 1_555
C13 C12 1_555 1_555
H13 C13 1_555 1_555
H14 C13 1_555 1_555
C14 C13 1_555 1_555
C15 H15 1_555 1_555
H16 C15 1_555 1_555
H17 C15 1_555 1_555
C16 N3 1_555 1_555
C17 C14 1_555 1_555
C18 C17 1_555 1_555
H18 C18 1_555 1_555
H19 C18 1_555 1_555
H20 C18 1_555 1_555
C19 O1 1_555 1_555
H21 C19 1_555 1_555
C20 N5 1_555 1_555
H22 C20 1_555 1_555
H23 C20 1_555 1_555
H24 C20 1_555 1_555
C21 N5 1_555 1_555
H25 C21 1_555 1_555
H26 C21 1_555 1_555
H27 C21 1_555 1_555
H28 N2 1_555 1_555
H29 N3 1_555 1_555
O2 C22 1_555 1_555
N6 C22 1_555 1_555
C22 H30 1_555 1_555
C23 N6 1_555 1_555
H31 C23 1_555 1_555
H32 C23 1_555 1_555
H33 C23 1_555 1_555
C24 N6 1_555 1_555
H34 C24 1_555 1_555
H35 C24 1_555 1_555
H36 C24 1_555 1_555
Cu1_2 N4 1_555 1_555
N4_2 Cu1 1_555 1_555
C1 C2 1_555 1_555
C3 C4 1_555 1_555
C11 C12 1_555 1_555
C14 C16 1_555 1_555
C15 C16 1_555 1_555

#END
