
#######################################################################
#
#                 Cambridge Crystallographic Data Centre
#                                CCDC 
#
#######################################################################
#
# If this CIF has been generated from an entry in the Cambridge 
# Structural Database, then it will include bibliographic, chemical, 
# crystal, experimental, refinement or atomic coordinate data resulting 
# from the CCDC's data processing and validation procedures.
#
#######################################################################

data_LOVHUB
_symmetry_cell_setting           monoclinic
_symmetry_space_group_name_H-M   'P 21/c'
_symmetry_Int_Tables_number      14
_space_group_name_Hall           '-P 2ybc'
loop_
_symmetry_equiv_pos_site_id
_symmetry_equiv_pos_as_xyz
1 x,y,z
2 -x,1/2+y,1/2-z
3 -x,-y,-z
4 x,1/2-y,1/2+z
_cell_length_a                   10.7835(6)
_cell_length_b                   46.051(3)
_cell_length_c                   20.4102(9)
_cell_angle_alpha                90
_cell_angle_beta                 121.094(2)
_cell_angle_gamma                90
_cell_volume                     8679.26
loop_
_atom_site_label
_atom_site_type_symbol
_atom_site_fract_x
_atom_site_fract_y
_atom_site_fract_z
Cd1 Cd 0.30837(3) -0.017530(7) 0.240380(18)
Cd2 Cd 1.35647(3) 0.183140(7) -0.199979(18)
Cd3 Cd 0.75154(3) 0.151412(6) 0.297693(17)
O1 O 1.5016(3) 0.18237(7) -0.26491(18)
O2 O 1.5569(3) 0.15523(6) -0.16419(16)
O3 O 0.4849(3) 0.15022(7) 0.23912(17)
O4 O 0.6243(3) 0.17798(6) 0.33742(17)
O5 O 0.7353(4) 0.10320(7) 0.36271(19)
O6 O 0.7297(4) 0.10673(6) 0.25383(19)
O7 O 0.4524(3) 0.01304(6) 0.22197(18)
O8 O 0.5827(3) -0.01922(7) 0.31066(18)
N1 N 1.1625(4) 0.16164(8) -0.3024(2)
N2 N 0.9616(4) 0.15193(9) -0.4123(2)
N3 N 1.3364(4) 0.16880(8) -0.0963(2)
N4 N 1.3323(4) 0.17333(8) 0.0112(2)
N5 N 0.7176(4) 0.18584(8) 0.08440(19)
N6 N 0.7353(4) 0.17554(7) 0.19505(19)
N7 N 0.1943(4) 0.15362(8) -0.49512(19)
N8 N 0.2968(4) -0.00450(8) 0.3448(2)
N9 N 0.2940(4) -0.00465(11) 0.4525(2)
N10 N 0.1005(4) 0.00362(7) 0.1410(2)
N11 N -0.1199(4) 0.01000(8) 0.0391(2)
C1 C 0.6510(5) 0.22492(9) 0.2128(3)
H1 H 0.6574 0.2208 0.2591
C2 C 1.2783(5) 0.11212(10) -0.2884(3)
H2 H 1.3630 0.1160 -0.2423
C3 C 0.1560(4) 0.18206(10) -0.4918(2)
C4 C 0.1804(5) 0.05616(10) 0.1480(3)
H3 H 0.2743 0.0537 0.1891
C5 C 0.5710(5) 0.00088(9) 0.2674(2)
C6 C 1.5830(5) 0.16484(9) -0.2143(2)
C7 C 0.7517(4) 0.16531(9) 0.1389(2)
C8 C 0.7098(4) 0.09290(9) 0.3013(3)
C9 C 1.1695(4) 0.13290(10) -0.3237(2)
C10 C 0.2654(5) -0.01975(11) 0.3897(3)
C11 C 1.1608(4) 0.18450(9) 0.0554(2)
C12 C 0.5010(5) 0.16771(9) 0.2888(2)
C13 C 0.0841(4) 0.14181(9) -0.5602(2)
C14 C 1.0359(5) 0.17192(11) -0.3574(3)
C15 C 1.1284(5) 0.19926(9) 0.1035(2)
H4 H 1.2008 0.2097 0.1444
C16 C 1.3065(4) 0.18601(9) -0.0549(3)
C17 C 0.0844(5) 0.03268(10) 0.1186(3)
C18 C 0.4555(4) 0.14515(9) -0.4486(2)
C19 C 1.7746(4) 0.12681(9) -0.1905(2)
C20 C 0.3703(4) 0.17667(8) 0.2933(2)
C21 C 0.6949(4) 0.15207(10) -0.4656(2)
C22 C 0.6454(5) 0.06275(8) 0.2774(3)
H5 H 0.5532 0.0644 0.2298
H6 H 0.6257 0.0555 0.3157
C23 C 0.8816(4) 0.18305(9) 0.0329(2)
C24 C 1.3138(5) 0.18609(10) 0.0711(3)
H7 H 1.3432 0.2063 0.0774
H8 H 1.3778 0.1762 0.1190
C25 C 0.3947(5) 0.04653(11) 0.3602(3)
H9 H 0.3975 0.0466 0.3154
C26 C 0.9906(5) 0.19880(10) 0.0922(2)
H10 H 0.9711 0.2092 0.1249
C27 C 1.3772(5) 0.14508(10) 0.0106(2)
C28 C 0.8548(5) 0.04752(9) 0.2611(3)
H11 H 0.8794 0.0670 0.2626
C29 C 0.5849(4) 0.13113(9) -0.3999(2)
H12 H 0.5921 0.1193 -0.3611
C30 C 1.7993(5) 0.17578(10) -0.2232(3)
H13 H 1.7627 0.1945 -0.2373
C31 C 0.3488(4) 0.20483(9) 0.3100(2)
C32 C 0.0185(5) 0.18610(9) -0.5571(2)
C33 C 1.0436(5) 0.12643(10) -0.3922(3)
C34 C 0.2683(5) 0.15543(10) 0.2793(3)
H14 H 0.2810 0.1368 0.2664
C35 C -0.0240(4) -0.00912(10) 0.0918(2)
C36 C 0.1252(5) 0.18909(11) 0.3003(3)
H15 H 0.0437 0.1934 0.3030
C37 C 1.4239(6) 0.11677(11) -0.0730(3)
H16 H 1.4307 0.1149 -0.1164
C38 C 0.7890(5) -0.01007(9) 0.2587(3)
H17 H 0.7674 -0.0297 0.2583
C39 C -0.0496(5) 0.21264(9) -0.5699(3)
H18 H -0.1416 0.2157 -0.6123
C40 C 1.3804(5) 0.14260(10) -0.0567(2)
C41 C 1.7201(4) 0.15501(9) -0.2097(2)
C42 C -0.5057(5) -0.01376(10) -0.0608(2)
H19 H -0.5103 -0.0232 -0.1024
C43 C 0.9144(5) 0.16759(10) -0.0141(2)
H20 H 0.8432 0.1564 -0.0536
C44 C 0.3474(5) 0.02237(11) 0.3807(3)
C45 C 1.9052(5) 0.12054(10) -0.1857(3)
H21 H 1.9412 0.1017 -0.1739
C46 C 0.0781(5) -0.02352(13) 0.5403(3)
H22 H 0.1306 -0.0397 0.5683
C47 C 0.0242(6) 0.23479(11) -0.5173(3)
H23 H -0.0181 0.2531 -0.5257
C48 C 0.4478(5) 0.16277(11) -0.5046(3)
H24 H 0.3619 0.1724 -0.5378
C49 C 1.0525(5) 0.16850(11) -0.0031(3)
H25 H 1.0722 0.1582 -0.0359
C50 C 0.3293(4) 0.13998(11) -0.4371(3)
H26 H 0.3137 0.1192 -0.4374
H27 H 0.3544 0.1473 -0.3872
C51 C -0.2627(5) 0.00321(11) -0.0279(3)
H28 H -0.2566 -0.0152 -0.0491
H29 H -0.2869 0.0180 -0.0666
C52 C 0.7365(4) 0.04034(9) 0.2664(2)
C53 C 0.6781(4) 0.21104(10) 0.1061(2)
C54 C 0.6885(4) 0.20423(9) 0.1757(2)
C55 C 0.7273(5) 0.18239(11) 0.0155(2)
H30 H 0.6729 0.1978 -0.0203
H31 H 0.6832 0.1641 -0.0089
C56 C 1.2487(5) 0.21612(10) -0.0756(3)
H32 H 1.2292 0.2206 -0.1260
H33 H 1.3189 0.2295 -0.0394
H34 H 1.1609 0.2176 -0.0746
C57 C 1.9303(5) 0.16902(11) -0.2159(3)
H35 H 1.9832 0.1832 -0.2233
C58 C 0.6314(5) 0.23801(11) 0.0715(3)
H36 H 0.6248 0.2425 0.0253
C59 C 0.7027(4) 0.01079(9) 0.2658(2)
C60 C 0.8168(4) 0.15549(12) -0.4811(3)
H37 H 0.8048 0.1412 -0.5189
H38 H 0.8105 0.1746 -0.5025
C61 C 0.3452(5) 0.02228(13) 0.4483(3)
C62 C 0.1585(6) 0.23012(12) -0.4530(3)
H39 H 0.2034 0.2453 -0.4186
C63 C 1.4546(7) 0.09700(12) 0.0440(3)
H40 H 1.4790 0.0812 0.0769
C64 C 0.2241(5) 0.21038(10) 0.3122(3)
H41 H 0.2071 0.2292 0.3222
C65 C 0.1297(5) -0.00707(12) 0.5041(3)
C66 C 1.9821(5) 0.14115(11) -0.1978(3)
H42 H 2.0695 0.1363 -0.1938
C67 C -0.0605(5) -0.03998(10) 0.0922(3)
H43 H 0.0053 -0.0483 0.1414
H44 H -0.0529 -0.0503 0.0535
H45 H -0.1577 -0.0415 0.0820
C68 C -0.1042(6) 0.06412(11) 0.0232(3)
H46 H -0.1980 0.0669 -0.0177
C69 C 0.9379(5) 0.02643(11) 0.2536(3)
H47 H 1.0165 0.0318 0.2493
C70 C 0.6043(5) 0.25151(10) 0.1780(3)
H48 H 0.5780 0.2656 0.2012
C71 C 1.4170(6) 0.12294(11) 0.0634(3)
H49 H 1.4185 0.1253 0.1090
C72 C -0.6219(5) -0.01531(11) -0.0500(2)
H50 H -0.7041 -0.0257 -0.0842
C73 C 0.1487(5) 0.16159(12) 0.2843(3)
H51 H 0.0834 0.1469 0.2767
C74 C 0.7027(4) 0.13452(10) -0.4082(2)
H52 H 0.7888 0.1249 -0.3750
C75 C 0.2287(5) 0.20360(11) -0.4381(3)
H53 H 0.3192 0.2005 -0.3946
C76 C 0.5674(5) 0.16632(11) -0.5120(3)
H54 H 0.5610 0.1787 -0.5496
C77 C -0.0546(5) 0.03694(10) 0.0560(3)
C78 C 1.2566(6) 0.08578(11) -0.3236(3)
H55 H 1.3285 0.0717 -0.3014
C79 C -0.3837(4) 0.00150(9) -0.0110(2)
C80 C 1.1298(6) 0.07959(12) -0.3917(3)
H56 H 1.1182 0.0613 -0.4136
C81 C 1.0209(5) 0.09968(12) -0.4278(3)
H57 H 0.9363 0.0956 -0.4738
C82 C 0.1320(6) 0.08293(11) 0.1144(3)
H58 H 0.1946 0.0987 0.1325
C83 C 0.0900(5) 0.11186(9) -0.5848(3)
H59 H 0.0052 0.1082 -0.6339
H60 H 0.0937 0.0983 -0.5481
H61 H 0.1748 0.1097 -0.5884
C84 C 1.4568(6) 0.09382(11) -0.0229(3)
H62 H 1.4810 0.0759 -0.0343
C85 C -0.0505(5) -0.01684(13) 0.5364(3)
H63 H -0.0837 -0.0285 0.5613
C86 C 0.2058(5) -0.04952(11) 0.3746(3)
H64 H 0.1937 -0.0564 0.3272
H65 H 0.1137 -0.0494 0.3713
H66 H 0.2713 -0.0621 0.4154
C87 C 0.2749(5) -0.01426(14) 0.5150(3)
H67 H 0.3495 -0.0054 0.5622
H68 H 0.2887 -0.0351 0.5206
C88 C 0.5954(6) 0.25789(11) 0.1098(3)
H69 H 0.5640 0.2763 0.0887
C89 C 0.3910(6) 0.04618(17) 0.4974(4)
H70 H 0.3914 0.0460 0.5431
C90 C 0.4375(6) 0.07046(13) 0.4062(5)
H71 H 0.4678 0.0871 0.3926
C91 C -0.0080(7) 0.08658(12) 0.0543(3)
H72 H -0.0382 0.1051 0.0340
C92 C 0.4352(7) 0.06982(17) 0.4745(5)
H73 H 0.4652 0.0862 0.5054
C93 C 0.7988(5) 0.13602(9) 0.1335(3)
H74 H 0.8161 0.1248 0.1770
H75 H 0.8865 0.1372 0.1322
H76 H 0.7248 0.1268 0.0875
C94 C 0.9807(5) 0.20163(11) -0.3608(3)
H77 H 1.0472 0.2120 -0.3150
H78 H 0.8879 0.2006 -0.3651
H79 H 0.9713 0.2116 -0.4044
C95 C 0.9045(5) -0.00220(11) 0.2525(3)
H80 H 0.9605 -0.0164 0.2475
C96 C 0.4575(5) 0.22850(9) 0.3256(3)
H81 H 0.5399 0.2253 0.3767
H82 H 0.4915 0.2258 0.2904
C97 C 0.4132(5) 0.25981(9) 0.3205(3)
O9 O 0.2960(3) 0.26838(7) 0.26450(19)
O10 O 0.4982(4) 0.27631(6) 0.37181(19)
C98 C 1.6959(6) 0.10364(9) -0.1734(3)
H83 H 1.7346 0.1038 -0.1187
H84 H 1.5950 0.1094 -0.1979
C99 C 1.6997(5) 0.07286(9) -0.1965(3)
O11 O 1.6797(4) 0.05344(7) -0.16121(18)
O12 O 1.7176(4) 0.06746(7) -0.2509(2)
N12 N -0.0242(3) 0.16028(7) -0.59885(19)
N8B N -0.2968(4) 0.00450(8) 0.6552(2)
N9B N -0.2940(4) 0.00465(11) 0.5475(2)
C10B C -0.2654(5) 0.01975(11) 0.6103(3)
C25B C -0.3947(5) -0.04653(11) 0.6398(3)
H9B H -0.3975 -0.0466 0.6846
C44B C -0.3474(5) -0.02237(11) 0.6193(3)
C46B C -0.0781(5) 0.02352(13) 0.4597(3)
H22B H -0.1306 0.0397 0.4317
C61B C -0.3452(5) -0.02228(13) 0.5517(3)
C65B C -0.1297(5) 0.00707(12) 0.4959(3)
C85B C 0.0505(5) 0.01684(13) 0.4636(3)
H63B H 0.0837 0.0285 0.4387
C86B C -0.2058(5) 0.04952(11) 0.6254(3)
H64B H -0.1937 0.0564 0.6728
H65B H -0.1137 0.0494 0.6287
H66B H -0.2713 0.0621 0.5846
C87B C -0.2749(5) 0.01426(14) 0.4850(3)
H67B H -0.3495 0.0054 0.4378
H68B H -0.2887 0.0351 0.4794
C89B C -0.3910(6) -0.04618(17) 0.5026(4)
H70B H -0.3914 -0.0460 0.4569
C90B C -0.4375(6) -0.07046(13) 0.5938(5)
H71B H -0.4678 -0.0871 0.6074
C92B C -0.4352(7) -0.06982(17) 0.5255(5)
H73B H -0.4652 -0.0862 0.4946
N10B N -1.1005(4) -0.00362(7) -0.1410(2)
N11B N -0.8801(4) -0.01000(8) -0.0391(2)
C4B C -1.1804(5) -0.05616(10) -0.1480(3)
H3B H -1.2743 -0.0537 -0.1891
C17B C -1.0844(5) -0.03268(10) -0.1186(3)
C35B C -0.9760(4) 0.00912(10) -0.0918(2)
C42B C -0.4943(5) 0.01376(10) 0.0608(2)
H19B H -0.4897 0.0232 0.1024
C51B C -0.7373(5) -0.00321(11) 0.0279(3)
H28B H -0.7434 0.0152 0.0491
H29B H -0.7131 -0.0180 0.0666
C67B C -0.9395(5) 0.03998(10) -0.0922(3)
H43B H -1.0053 0.0483 -0.1414
H44B H -0.9471 0.0503 -0.0535
H45B H -0.8423 0.0415 -0.0820
C68B C -0.8958(6) -0.06412(11) -0.0232(3)
H46B H -0.8020 -0.0669 0.0177
C72B C -0.3781(5) 0.01531(11) 0.0500(2)
H50B H -0.2959 0.0257 0.0842
C77B C -0.9454(5) -0.03694(10) -0.0560(3)
C79B C -0.6163(4) -0.00150(9) 0.0110(2)
C82B C -1.1320(6) -0.08293(11) -0.1144(3)
H58B H -1.1946 -0.0987 -0.1325
C91B C -0.9920(7) -0.08658(12) -0.0543(3)
H72B H -0.9618 -0.1051 -0.0340
Cd1B Cd -1.30837(3) 0.017530(7) -0.240380(18)
Cd2B Cd -2.35647(3) -0.183140(7) 0.199979(18)
Cd3B Cd -1.75154(3) -0.151412(6) -0.297693(17)
O1B O -2.5016(3) -0.18237(7) 0.26491(18)
O2B O -2.5569(3) -0.15523(6) 0.16419(16)
O3B O -1.4849(3) -0.15022(7) -0.23912(17)
O4B O -1.6243(3) -0.17798(6) -0.33742(17)
O5B O -1.7353(4) -0.10320(7) -0.36271(19)
O6B O -1.7297(4) -0.10673(6) -0.25383(19)
O7B O -1.4524(3) -0.01304(6) -0.22197(18)
O8B O -1.5827(3) 0.01922(7) -0.31066(18)
N1B N -2.1625(4) -0.16164(8) 0.3024(2)
N2B N -1.9616(4) -0.15193(9) 0.4123(2)
N3B N -2.3364(4) -0.16880(8) 0.0963(2)
N4B N -2.3323(4) -0.17333(8) -0.0112(2)
N5B N -1.7176(4) -0.18584(8) -0.08440(19)
N6B N -1.7353(4) -0.17554(7) -0.19505(19)
N7B N -1.1943(4) -0.15362(8) 0.49512(19)
C1B C -1.6510(5) -0.22492(9) -0.2128(3)
H1B H -1.6574 -0.2208 -0.2591
C2B C -2.2783(5) -0.11212(10) 0.2884(3)
H2B H -2.3630 -0.1160 0.2423
C3B C -1.1560(4) -0.18206(10) 0.4918(2)
C5B C -1.5710(5) -0.00088(9) -0.2674(2)
C6B C -2.5830(5) -0.16484(9) 0.2143(2)
C7B C -1.7517(4) -0.16531(9) -0.1389(2)
C8B C -1.7098(4) -0.09290(9) -0.3013(3)
C9B C -2.1695(4) -0.13290(10) 0.3237(2)
C11B C -2.1608(4) -0.18450(9) -0.0554(2)
C12B C -1.5010(5) -0.16771(9) -0.2888(2)
C13B C -1.0841(4) -0.14181(9) 0.5602(2)
C14B C -2.0359(5) -0.17192(11) 0.3574(3)
C15B C -2.1284(5) -0.19926(9) -0.1035(2)
H4B H -2.2008 -0.2097 -0.1444
C16B C -2.3065(4) -0.18601(9) 0.0549(3)
C18B C -1.4555(4) -0.14515(9) 0.4486(2)
C19B C -2.7746(4) -0.12681(9) 0.1905(2)
C20B C -1.3703(4) -0.17667(8) -0.2933(2)
C21B C -1.6949(4) -0.15207(10) 0.4656(2)
C22B C -1.6454(5) -0.06275(8) -0.2774(3)
H5B H -1.5532 -0.0644 -0.2298
H6B H -1.6257 -0.0555 -0.3157
C23B C -1.8816(4) -0.18305(9) -0.0329(2)
C24B C -2.3138(5) -0.18609(10) -0.0711(3)
H7B H -2.3432 -0.2063 -0.0774
H8B H -2.3778 -0.1762 -0.1190
C26B C -1.9906(5) -0.19880(10) -0.0922(2)
H10B H -1.9711 -0.2092 -0.1249
C27B C -2.3772(5) -0.14508(10) -0.0106(2)
C28B C -1.8548(5) -0.04752(9) -0.2611(3)
H11B H -1.8794 -0.0670 -0.2626
C29B C -1.5849(4) -0.13113(9) 0.3999(2)
H12B H -1.5921 -0.1193 0.3611
C30B C -2.7993(5) -0.17578(10) 0.2232(3)
H13B H -2.7627 -0.1945 0.2373
C31B C -1.3488(4) -0.20483(9) -0.3100(2)
C32B C -1.0185(5) -0.18610(9) 0.5571(2)
C33B C -2.0436(5) -0.12643(10) 0.3922(3)
C34B C -1.2683(5) -0.15543(10) -0.2793(3)
H14B H -1.2810 -0.1368 -0.2664
C36B C -1.1252(5) -0.18909(11) -0.3003(3)
H15B H -1.0437 -0.1934 -0.3030
C37B C -2.4239(6) -0.11677(11) 0.0730(3)
H16B H -2.4307 -0.1149 0.1164
C38B C -1.7890(5) 0.01007(9) -0.2587(3)
H17B H -1.7674 0.0297 -0.2583
C39B C -0.9504(5) -0.21264(9) 0.5699(3)
H18B H -0.8584 -0.2157 0.6123
C40B C -2.3804(5) -0.14260(10) 0.0567(2)
C41B C -2.7201(4) -0.15501(9) 0.2097(2)
C43B C -1.9144(5) -0.16759(10) 0.0141(2)
H20B H -1.8432 -0.1564 0.0536
C45B C -2.9052(5) -0.12054(10) 0.1857(3)
H21B H -2.9412 -0.1017 0.1739
C47B C -1.0242(6) -0.23479(11) 0.5173(3)
H23B H -0.9819 -0.2531 0.5257
C48B C -1.4478(5) -0.16277(11) 0.5046(3)
H24B H -1.3619 -0.1724 0.5378
C49B C -2.0525(5) -0.16850(11) 0.0031(3)
H25B H -2.0722 -0.1582 0.0359
C50B C -1.3293(4) -0.13998(11) 0.4371(3)
H26B H -1.3137 -0.1192 0.4374
H27B H -1.3544 -0.1473 0.3872
C52B C -1.7365(4) -0.04034(9) -0.2664(2)
C53B C -1.6781(4) -0.21104(10) -0.1061(2)
C54B C -1.6885(4) -0.20423(9) -0.1757(2)
C55B C -1.7273(5) -0.18239(11) -0.0155(2)
H30B H -1.6729 -0.1978 0.0203
H31B H -1.6832 -0.1641 0.0089
C56B C -2.2487(5) -0.21612(10) 0.0756(3)
H32B H -2.2292 -0.2206 0.1260
H33B H -2.3189 -0.2295 0.0394
H34B H -2.1609 -0.2176 0.0746
C57B C -2.9303(5) -0.16902(11) 0.2159(3)
H35B H -2.9832 -0.1832 0.2233
C58B C -1.6314(5) -0.23801(11) -0.0715(3)
H36B H -1.6248 -0.2425 -0.0253
C59B C -1.7027(4) -0.01079(9) -0.2658(2)
C60B C -1.8168(4) -0.15549(12) 0.4811(3)
H37B H -1.8048 -0.1412 0.5189
H38B H -1.8105 -0.1746 0.5025
C62B C -1.1585(6) -0.23012(12) 0.4530(3)
H39B H -1.2034 -0.2453 0.4186
C63B C -2.4546(7) -0.09700(12) -0.0440(3)
H40B H -2.4790 -0.0812 -0.0769
C64B C -1.2241(5) -0.21038(10) -0.3122(3)
H41B H -1.2071 -0.2292 -0.3222
C66B C -2.9821(5) -0.14115(11) 0.1978(3)
H42B H -3.0695 -0.1363 0.1938
C69B C -1.9379(5) -0.02643(11) -0.2536(3)
H47B H -2.0165 -0.0318 -0.2493
C70B C -1.6043(5) -0.25151(10) -0.1780(3)
H48B H -1.5780 -0.2656 -0.2012
C71B C -2.4170(6) -0.12294(11) -0.0634(3)
H49B H -2.4185 -0.1253 -0.1090
C73B C -1.1487(5) -0.16159(12) -0.2843(3)
H51B H -1.0834 -0.1469 -0.2767
C74B C -1.7027(4) -0.13452(10) 0.4082(2)
H52B H -1.7888 -0.1249 0.3750
C75B C -1.2287(5) -0.20360(11) 0.4381(3)
H53B H -1.3192 -0.2005 0.3946
C76B C -1.5674(5) -0.16632(11) 0.5120(3)
H54B H -1.5610 -0.1787 0.5496
C78B C -2.2566(6) -0.08578(11) 0.3236(3)
H55B H -2.3285 -0.0717 0.3014
C80B C -2.1298(6) -0.07959(12) 0.3917(3)
H56B H -2.1182 -0.0613 0.4136
C81B C -2.0209(5) -0.09968(12) 0.4278(3)
H57B H -1.9363 -0.0956 0.4738
C83B C -1.0900(5) -0.11186(9) 0.5848(3)
H59B H -1.0052 -0.1082 0.6339
H60B H -1.0937 -0.0983 0.5481
H61B H -1.1748 -0.1097 0.5884
C84B C -2.4568(6) -0.09382(11) 0.0229(3)
H62B H -2.4810 -0.0759 0.0343
C88B C -1.5954(6) -0.25789(11) -0.1098(3)
H69B H -1.5640 -0.2763 -0.0887
C93B C -1.7988(5) -0.13602(9) -0.1335(3)
H74B H -1.8161 -0.1248 -0.1770
H75B H -1.8865 -0.1372 -0.1322
H76B H -1.7248 -0.1268 -0.0875
C94B C -1.9807(5) -0.20163(11) 0.3608(3)
H77B H -2.0472 -0.2120 0.3150
H78B H -1.8879 -0.2006 0.3651
H79B H -1.9713 -0.2116 0.4044
C95B C -1.9045(5) 0.00220(11) -0.2525(3)
H80B H -1.9605 0.0164 -0.2475
C96B C -1.4575(5) -0.22850(9) -0.3256(3)
H81B H -1.5399 -0.2253 -0.3767
H82B H -1.4915 -0.2258 -0.2904
C97B C -1.4132(5) -0.25981(9) -0.3205(3)
O9B O -1.2960(3) -0.26838(7) -0.26450(19)
O10B O -1.4982(4) -0.27631(6) -0.37181(19)
C98B C -2.6959(6) -0.10364(9) 0.1734(3)
H83B H -2.7346 -0.1038 0.1187
H84B H -2.5950 -0.1094 0.1979
C99B C -2.6997(5) -0.07286(9) 0.1965(3)
O11B O -2.6797(4) -0.05344(7) 0.16121(18)
O12B O -2.7176(4) -0.06746(7) 0.2509(2)
N12B N -0.9758(3) -0.16028(7) 0.59885(19)
Cd1_2 Cd -2.69163(3) -0.017530(7) 0.240380(18)
Cd1B_2 Cd -0.30837(3) 0.017530(7) 0.759620(18)
Cd1B_3 Cd 1.69163(3) 0.017530(7) -0.240380(18)
Cd2A Cd -1.35647(3) -0.316860(7) -0.300021(18)
Cd2C Cd 0.35647(3) 0.316860(7) 0.300021(18)
Cd3_2 Cd -0.24846(3) 0.151412(6) -0.702307(17)
Cd3B_2 Cd -0.75154(3) -0.151412(6) 0.702307(17)
N8B_2 N -1.2968(4) 0.00450(8) -0.3448(2)
O9A O -2.2960(3) -0.23162(7) 0.23550(19)
O9C O 1.2960(3) 0.23162(7) -0.23550(19)
O10A O -2.4982(4) -0.22369(6) 0.12819(19)
O10C O 1.4982(4) 0.22369(6) -0.12819(19)
O11_2 O -1.3203(4) 0.05344(7) -0.16121(18)
O11B_2 O 0.3203(4) -0.05344(7) 0.16121(18)
O12_2 O -1.2824(4) 0.06746(7) -0.2509(2)
O12B_2 O 0.2824(4) -0.06746(7) 0.2509(2)
N12_2 N 0.9758(3) 0.16028(7) 0.40115(19)
N12B_2 N -1.9758(3) -0.16028(7) -0.40115(19)
loop_
_geom_bond_atom_site_label_1
_geom_bond_atom_site_label_2
_geom_bond_site_symmetry_1
_geom_bond_site_symmetry_2
Cd1 O7 1_555 1_555
Cd2 O1 1_555 1_555
Cd3 O3 1_555 1_555
O1 C6 1_555 1_555
O2 Cd2 1_555 1_555
O3 C12 1_555 1_555
O4 Cd3 1_555 1_555
O5 Cd3 1_555 1_555
O6 Cd3 1_555 1_555
O7 C5 1_555 1_555
O8 Cd1 1_555 1_555
N1 Cd2 1_555 1_555
N2 C14 1_555 1_555
N3 Cd2 1_555 1_555
N4 C16 1_555 1_555
N5 C7 1_555 1_555
N6 Cd3 1_555 1_555
N7 C3 1_555 1_555
N8 Cd1 1_555 1_555
N9 C10 1_555 1_555
N10 Cd1 1_555 1_555
N11 C35 1_555 1_555
C1 H1 1_555 1_555
C2 H2 1_555 1_555
C3 C32 1_555 1_555
C4 H3 1_555 1_555
C5 O8 1_555 1_555
C6 O2 1_555 1_555
C7 N6 1_555 1_555
C8 O5 1_555 1_555
C9 N1 1_555 1_555
C10 N8 1_555 1_555
C11 C15 1_555 1_555
C12 O4 1_555 1_555
C13 N7 1_555 1_555
C14 N1 1_555 1_555
C15 H4 1_555 1_555
C16 N3 1_555 1_555
C17 N10 1_555 1_555
C18 C29 1_555 1_555
C19 C41 1_555 1_555
C20 C12 1_555 1_555
C21 C60 1_555 1_555
C22 C8 1_555 1_555
H5 C22 1_555 1_555
H6 C22 1_555 1_555
C23 C26 1_555 1_555
C24 N4 1_555 1_555
H7 C24 1_555 1_555
H8 C24 1_555 1_555
C25 H9 1_555 1_555
C26 C15 1_555 1_555
H10 C26 1_555 1_555
C27 N4 1_555 1_555
C28 H11 1_555 1_555
C29 H12 1_555 1_555
C30 H13 1_555 1_555
C31 C20 1_555 1_555
C32 C39 1_555 1_555
C33 N2 1_555 1_555
C34 C20 1_555 1_555
H14 C34 1_555 1_555
C35 N10 1_555 1_555
C36 H15 1_555 1_555
C37 H16 1_555 1_555
C38 H17 1_555 1_555
C39 H18 1_555 1_555
C40 N3 1_555 1_555
C41 C6 1_555 1_555
C42 H19 1_555 1_555
C43 C23 1_555 1_555
H20 C43 1_555 1_555
C44 N8 1_555 1_555
C45 C19 1_555 1_555
H21 C45 1_555 1_555
C46 H22 1_555 1_555
C47 C39 1_555 1_555
H23 C47 1_555 1_555
C48 C18 1_555 1_555
H24 C48 1_555 1_555
C49 C11 1_555 1_555
H25 C49 1_555 1_555
C50 N7 1_555 1_555
H26 C50 1_555 1_555
H27 C50 1_555 1_555
C51 N11 1_555 1_555
H28 C51 1_555 1_555
H29 C51 1_555 1_555
C52 C22 1_555 1_555
C53 N5 1_555 1_555
C54 N6 1_555 1_555
C55 N5 1_555 1_555
H30 C55 1_555 1_555
H31 C55 1_555 1_555
C56 C16 1_555 1_555
H32 C56 1_555 1_555
H33 C56 1_555 1_555
H34 C56 1_555 1_555
C57 C30 1_555 1_555
H35 C57 1_555 1_555
C58 C53 1_555 1_555
H36 C58 1_555 1_555
C59 C5 1_555 1_555
C60 N2 1_555 1_555
H37 C60 1_555 1_555
H38 C60 1_555 1_555
C61 N9 1_555 1_555
C62 C47 1_555 1_555
H39 C62 1_555 1_555
C63 H40 1_555 1_555
C64 C31 1_555 1_555
H41 C64 1_555 1_555
C65 C46 1_555 1_555
C66 C45 1_555 1_555
H42 C66 1_555 1_555
C67 C35 1_555 1_555
H43 C67 1_555 1_555
H44 C67 1_555 1_555
H45 C67 1_555 1_555
C68 H46 1_555 1_555
C69 C28 1_555 1_555
H47 C69 1_555 1_555
C70 C1 1_555 1_555
H48 C70 1_555 1_555
C71 C27 1_555 1_555
H49 C71 1_555 1_555
C72 C42 1_555 1_555
H50 C72 1_555 1_555
C73 C34 1_555 1_555
H51 C73 1_555 1_555
C74 C21 1_555 1_555
H52 C74 1_555 1_555
C75 C3 1_555 1_555
H53 C75 1_555 1_555
C76 C21 1_555 1_555
H54 C76 1_555 1_555
C77 N11 1_555 1_555
C78 C2 1_555 1_555
H55 C78 1_555 1_555
C79 C42 1_555 1_555
C80 C78 1_555 1_555
H56 C80 1_555 1_555
C81 C33 1_555 1_555
H57 C81 1_555 1_555
C82 C4 1_555 1_555
H58 C82 1_555 1_555
C83 C13 1_555 1_555
H59 C83 1_555 1_555
H60 C83 1_555 1_555
H61 C83 1_555 1_555
C84 C37 1_555 1_555
H62 C84 1_555 1_555
C85 C46 1_555 1_555
H63 C85 1_555 1_555
C86 C10 1_555 1_555
H64 C86 1_555 1_555
H65 C86 1_555 1_555
H66 C86 1_555 1_555
C87 N9 1_555 1_555
H67 C87 1_555 1_555
H68 C87 1_555 1_555
C88 C58 1_555 1_555
H69 C88 1_555 1_555
C89 C61 1_555 1_555
H70 C89 1_555 1_555
C90 C25 1_555 1_555
H71 C90 1_555 1_555
C91 C68 1_555 1_555
H72 C91 1_555 1_555
C92 C89 1_555 1_555
H73 C92 1_555 1_555
C93 C7 1_555 1_555
H74 C93 1_555 1_555
H75 C93 1_555 1_555
H76 C93 1_555 1_555
C94 C14 1_555 1_555
H77 C94 1_555 1_555
H78 C94 1_555 1_555
H79 C94 1_555 1_555
C95 C38 1_555 1_555
H80 C95 1_555 1_555
C96 C31 1_555 1_555
H81 C96 1_555 1_555
H82 C96 1_555 1_555
C97 C96 1_555 1_555
O9 C97 1_555 1_555
O10 C97 1_555 1_555
C98 C19 1_555 1_555
H83 C98 1_555 1_555
H84 C98 1_555 1_555
C99 C98 1_555 1_555
O11 C99 1_555 1_555
O12 C99 1_555 1_555
N12 C13 1_555 1_555
N8B C10B 1_555 1_555
N9B C10B 1_555 1_555
C10B C86B 1_555 1_555
C25B H9B 1_555 1_555
C44B N8B 1_555 1_555
C46B H22B 1_555 1_555
C61B N9B 1_555 1_555
C65B C85 1_555 1_555
C85B C65 1_555 1_555
H63B C85B 1_555 1_555
C86B H64B 1_555 1_555
H65B C86B 1_555 1_555
H66B C86B 1_555 1_555
C87B N9B 1_555 1_555
H67B C87B 1_555 1_555
H68B C87B 1_555 1_555
C89B C61B 1_555 1_555
H70B C89B 1_555 1_555
C90B C25B 1_555 1_555
H71B C90B 1_555 1_555
C92B C89B 1_555 1_555
H73B C92B 1_555 1_555
N10B C17B 1_555 1_555
N11B C35B 1_555 1_555
C4B H3B 1_555 1_555
C17B C4B 1_555 1_555
C35B N10B 1_555 1_555
C42B H19B 1_555 1_555
C51B N11B 1_555 1_555
H28B C51B 1_555 1_555
H29B C51B 1_555 1_555
C67B C35B 1_555 1_555
H43B C67B 1_555 1_555
H44B C67B 1_555 1_555
H45B C67B 1_555 1_555
C68B H46B 1_555 1_555
C72B C79 1_555 1_555
H50B C72B 1_555 1_555
C77B N11B 1_555 1_555
C79B C72 1_555 1_555
C82B C4B 1_555 1_555
H58B C82B 1_555 1_555
C91B C68B 1_555 1_555
H72B C91B 1_555 1_555
Cd1B N10B 1_555 1_555
Cd2B O1B 1_555 1_555
Cd3B O3B 1_555 1_555
O1B C6B 1_555 1_555
O2B Cd2B 1_555 1_555
O3B C12B 1_555 1_555
O4B Cd3B 1_555 1_555
O5B Cd3B 1_555 1_555
O6B Cd3B 1_555 1_555
O7B Cd1B 1_555 1_555
O8B Cd1B 1_555 1_555
N1B Cd2B 1_555 1_555
N2B C14B 1_555 1_555
N3B Cd2B 1_555 1_555
N4B C16B 1_555 1_555
N5B C7B 1_555 1_555
N6B Cd3B 1_555 1_555
N7B C3B 1_555 1_555
C1B H1B 1_555 1_555
C2B H2B 1_555 1_555
C3B C32B 1_555 1_555
C5B O7B 1_555 1_555
C6B O2B 1_555 1_555
C7B N6B 1_555 1_555
C8B O5B 1_555 1_555
C9B N1B 1_555 1_555
C11B C15B 1_555 1_555
C12B O4B 1_555 1_555
C13B N7B 1_555 1_555
C14B N1B 1_555 1_555
C15B H4B 1_555 1_555
C16B N3B 1_555 1_555
C18B C29B 1_555 1_555
C19B C41B 1_555 1_555
C20B C12B 1_555 1_555
C21B C60B 1_555 1_555
C22B C8B 1_555 1_555
H5B C22B 1_555 1_555
H6B C22B 1_555 1_555
C23B C26B 1_555 1_555
C24B N4B 1_555 1_555
H7B C24B 1_555 1_555
H8B C24B 1_555 1_555
C26B C15B 1_555 1_555
H10B C26B 1_555 1_555
C27B N4B 1_555 1_555
C28B H11B 1_555 1_555
C29B H12B 1_555 1_555
C30B H13B 1_555 1_555
C31B C20B 1_555 1_555
C32B C39B 1_555 1_555
C33B N2B 1_555 1_555
C34B C20B 1_555 1_555
H14B C34B 1_555 1_555
C36B H15B 1_555 1_555
C37B H16B 1_555 1_555
C38B H17B 1_555 1_555
C39B H18B 1_555 1_555
C40B N3B 1_555 1_555
C41B C6B 1_555 1_555
C43B C23B 1_555 1_555
H20B C43B 1_555 1_555
C45B C19B 1_555 1_555
H21B C45B 1_555 1_555
C47B C39B 1_555 1_555
H23B C47B 1_555 1_555
C48B C18B 1_555 1_555
H24B C48B 1_555 1_555
C49B C11B 1_555 1_555
H25B C49B 1_555 1_555
C50B N7B 1_555 1_555
H26B C50B 1_555 1_555
H27B C50B 1_555 1_555
C52B C22B 1_555 1_555
C53B N5B 1_555 1_555
C54B N6B 1_555 1_555
C55B N5B 1_555 1_555
H30B C55B 1_555 1_555
H31B C55B 1_555 1_555
C56B C16B 1_555 1_555
H32B C56B 1_555 1_555
H33B C56B 1_555 1_555
H34B C56B 1_555 1_555
C57B C30B 1_555 1_555
H35B C57B 1_555 1_555
C58B C53B 1_555 1_555
H36B C58B 1_555 1_555
C59B C5B 1_555 1_555
C60B N2B 1_555 1_555
H37B C60B 1_555 1_555
H38B C60B 1_555 1_555
C62B C47B 1_555 1_555
H39B C62B 1_555 1_555
C63B H40B 1_555 1_555
C64B C31B 1_555 1_555
H41B C64B 1_555 1_555
C66B C45B 1_555 1_555
H42B C66B 1_555 1_555
C69B C28B 1_555 1_555
H47B C69B 1_555 1_555
C70B C1B 1_555 1_555
H48B C70B 1_555 1_555
C71B C27B 1_555 1_555
H49B C71B 1_555 1_555
C73B C34B 1_555 1_555
H51B C73B 1_555 1_555
C74B C21B 1_555 1_555
H52B C74B 1_555 1_555
C75B C3B 1_555 1_555
H53B C75B 1_555 1_555
C76B C21B 1_555 1_555
H54B C76B 1_555 1_555
C78B C2B 1_555 1_555
H55B C78B 1_555 1_555
C80B C78B 1_555 1_555
H56B C80B 1_555 1_555
C81B C33B 1_555 1_555
H57B C81B 1_555 1_555
C83B C13B 1_555 1_555
H59B C83B 1_555 1_555
H60B C83B 1_555 1_555
H61B C83B 1_555 1_555
C84B C37B 1_555 1_555
H62B C84B 1_555 1_555
C88B C58B 1_555 1_555
H69B C88B 1_555 1_555
C93B C7B 1_555 1_555
H74B C93B 1_555 1_555
H75B C93B 1_555 1_555
H76B C93B 1_555 1_555
C94B C14B 1_555 1_555
H77B C94B 1_555 1_555
H78B C94B 1_555 1_555
H79B C94B 1_555 1_555
C95B C38B 1_555 1_555
H80B C95B 1_555 1_555
C96B C31B 1_555 1_555
H81B C96B 1_555 1_555
H82B C96B 1_555 1_555
C97B C96B 1_555 1_555
O9B C97B 1_555 1_555
O10B C97B 1_555 1_555
C98B C19B 1_555 1_555
H83B C98B 1_555 1_555
H84B C98B 1_555 1_555
C99B C98B 1_555 1_555
O11B C99B 1_555 1_555
O12B C99B 1_555 1_555
N12B C13B 1_555 1_555
Cd1_2 O11B 1_555 1_555
Cd1B_2 N8B 1_555 1_555
Cd1B_3 O11 1_555 1_555
Cd2A O9B 1_555 1_555
Cd2C O9 1_555 1_555
Cd3_2 N12 1_555 1_555
Cd3B_2 N12B 1_555 1_555
N8B_2 Cd1B 1_555 1_555
O9A Cd2B 1_555 1_555
O9C Cd2 1_555 1_555
O10A Cd2B 1_555 1_555
O10C Cd2 1_555 1_555
O11_2 Cd1B 1_555 1_555
O11B_2 Cd1 1_555 1_555
O12_2 Cd1B 1_555 1_555
O12B_2 Cd1 1_555 1_555
N12_2 Cd3 1_555 1_555
N12B_2 Cd3B 1_555 1_555
O6 C8 1_555 1_555
C1 C54 1_555 1_555
C2 C9 1_555 1_555
C4 C17 1_555 1_555
C9 C33 1_555 1_555
C11 C24 1_555 1_555
C17 C77 1_555 1_555
C18 C50 1_555 1_555
C23 C55 1_555 1_555
C25 C44 1_555 1_555
C27 C40 1_555 1_555
C28 C52 1_555 1_555
C29 C74 1_555 1_555
C30 C41 1_555 1_555
C32 N12 1_555 1_555
C36 C64 1_555 1_555
C36 C73 1_555 1_555
C37 C40 1_555 1_555
C38 C59 1_555 1_555
C43 C49 1_555 1_555
C44 C61 1_555 1_555
C48 C76 1_555 1_555
C51 C79 1_555 1_555
C52 C59 1_555 1_555
C53 C54 1_555 1_555
C57 C66 1_555 1_555
C62 C75 1_555 1_555
C63 C71 1_555 1_555
C63 C84 1_555 1_555
C65 C87 1_555 1_555
C68 C77 1_555 1_555
C69 C95 1_555 1_555
C70 C88 1_555 1_555
C80 C81 1_555 1_555
C82 C91 1_555 1_555
C90 C92 1_555 1_555
O10 Cd2C 1_555 1_555
O12 Cd1B_3 1_555 1_555
C25B C44B 1_555 1_555
C44B C61B 1_555 1_555
C46B C65B 1_555 1_555
C46B C85B 1_555 1_555
C65B C87B 1_555 1_555
C90B C92B 1_555 1_555
C17B C77B 1_555 1_555
C42B C72B 1_555 1_555
C42B C79B 1_555 1_555
C51B C79B 1_555 1_555
C68B C77B 1_555 1_555
C82B C91B 1_555 1_555
O6B C8B 1_555 1_555
O8B C5B 1_555 1_555
C1B C54B 1_555 1_555
C2B C9B 1_555 1_555
C9B C33B 1_555 1_555
C11B C24B 1_555 1_555
C18B C50B 1_555 1_555
C23B C55B 1_555 1_555
C27B C40B 1_555 1_555
C28B C52B 1_555 1_555
C29B C74B 1_555 1_555
C30B C41B 1_555 1_555
C32B N12B 1_555 1_555
C36B C64B 1_555 1_555
C36B C73B 1_555 1_555
C37B C40B 1_555 1_555
C38B C59B 1_555 1_555
C43B C49B 1_555 1_555
C48B C76B 1_555 1_555
C52B C59B 1_555 1_555
C53B C54B 1_555 1_555
C57B C66B 1_555 1_555
C62B C75B 1_555 1_555
C63B C71B 1_555 1_555
C63B C84B 1_555 1_555
C69B C95B 1_555 1_555
C70B C88B 1_555 1_555
C80B C81B 1_555 1_555
O10B Cd2A 1_555 1_555
O12B Cd1_2 1_555 1_555

#END
