
#######################################################################
#
#                 Cambridge Crystallographic Data Centre
#                                CCDC 
#
#######################################################################
#
# If this CIF has been generated from an entry in the Cambridge 
# Structural Database, then it will include bibliographic, chemical, 
# crystal, experimental, refinement or atomic coordinate data resulting 
# from the CCDC's data processing and validation procedures.
#
#######################################################################

data_LOVQOE
_symmetry_cell_setting           triclinic
_symmetry_space_group_name_H-M   'P -1'
_symmetry_Int_Tables_number      2
_space_group_name_Hall           '-P 1'
loop_
_symmetry_equiv_pos_site_id
_symmetry_equiv_pos_as_xyz
1 x,y,z
2 -x,-y,-z
_cell_length_a                   10.411(2)
_cell_length_b                   14.051(3)
_cell_length_c                   15.034(3)
_cell_angle_alpha                115.27(3)
_cell_angle_beta                 92.53(3)
_cell_angle_gamma                110.65(3)
_cell_volume                     1811.09
loop_
_atom_site_label
_atom_site_type_symbol
_atom_site_fract_x
_atom_site_fract_y
_atom_site_fract_z
Co1 Co 0.40783(4) 0.02398(3) 0.83037(3)
O1 O 0.5162(2) 0.21624(17) 0.87272(14)
O2 O 0.4060(2) 0.14662(16) 0.96636(14)
O3 O 1.34611(19) 0.97554(17) 1.68424(14)
O4 O 1.1725(2) 0.98638(19) 1.75887(15)
O5 O 0.88732(19) 0.77581(17) 1.29213(14)
O6 O 0.6488(2) 0.68092(16) 1.27779(15)
N1 N 0.6808(2) -0.8560(2) 0.18554(16)
N2 N 0.7254(3) -0.5805(2) 0.3898(2)
N3 N 0.8001(3) -0.1188(2) 0.8988(2)
N4 N 0.6099(2) 0.0239(2) 0.83395(17)
C1 C 0.4782(3) 0.2330(2) 0.9538(2)
C2 C 1.1226(3) 0.9043(2) 1.5791(2)
C3 C 1.2166(3) 0.9584(2) 1.6805(2)
C4 C 0.7259(3) -0.6575(2) 0.2965(2)
C5 C 1.0915(3) 0.8176(3) 1.3983(2)
H1 H 1.1261 0.7893 1.3411
C6 C 0.6816(3) -0.7734(2) 0.2730(2)
H2 H 0.6506 -0.7941 0.3219
C7 C 0.9563(3) 0.8135(2) 1.3889(2)
C8 C 0.6101(3) 0.5752(2) 1.1953(2)
C9 C 1.1740(3) 0.8639(3) 1.4929(2)
H3 H 1.2654 0.8682 1.4993
C10 C 0.6468(3) -0.0379(2) 0.8679(2)
H4 H 0.5849 -0.0735 0.8981
C11 C 0.5189(3) 0.3520(2) 1.0366(2)
C12 C 0.7719(3) -0.0532(2) 0.8614(2)
C13 C 0.7258(3) -0.8262(3) 0.1153(2)
H5 H 0.7277 -0.8826 0.0541
C14 C 0.7538(3) 0.7765(2) 1.2777(2)
H6 H 0.7543 0.8468 1.3311
H7 H 0.7327 0.7756 1.2138
C15 C 0.9015(3) 0.8469(3) 1.4732(2)
H8 H 0.8084 0.8385 1.4666
C16 C 0.8900(3) -0.1780(3) 0.8600(2)
H9 H 0.8909 -0.2225 0.8946
H10 H 0.9854 -0.1206 0.8768
C17 C 0.8489(3) -0.2585(2) 0.7469(2)
C18 C 0.6691(3) 0.5545(3) 1.1127(2)
H11 H 0.7409 0.6149 1.1099
C19 C 0.4617(3) 0.3746(3) 1.1207(2)
H12 H 0.3924 0.3138 1.1245
C20 C 0.5048(3) 0.4845(3) 1.1986(2)
H13 H 0.4631 0.4979 1.2537
C21 C 0.7691(3) -0.7150(3) 0.1308(2)
H14 H 0.7990 -0.6973 0.0803
C22 C 0.7918(4) -0.3938(3) 0.5365(2)
C23 C 0.9851(3) 0.8927(3) 1.5672(2)
H15 H 0.9481 0.9164 1.6240
C24 C 0.7686(3) -0.6298(3) 0.2207(2)
H16 H 0.7964 -0.5546 0.2310
C25 C 0.7183(3) -0.2974(3) 0.6862(2)
H17 H 0.6480 -0.2787 0.7156
C26 C 0.8616(3) -0.0012(3) 0.8139(3)
H18 H 0.9460 -0.0093 0.8065
C27 C 0.6911(3) -0.3632(3) 0.5831(3)
H19 H 0.6029 -0.3875 0.5440
C28 C 0.9470(3) -0.2923(3) 0.7001(2)
H20 H 1.0348 -0.2692 0.7391
C29 C 0.8231(4) 0.0622(3) 0.7782(3)
H21 H 0.8818 0.0972 0.7461
C30 C 0.6994(3) 0.0745(3) 0.7894(2)
H22 H 0.6763 0.1189 0.7655
C31 C 0.9192(4) -0.3592(3) 0.5974(3)
H23 H 0.9876 -0.3816 0.5685
C32 C 0.7681(4) -0.4593(3) 0.4239(3)
H24 H 0.8544 -0.4297 0.4038
H25 H 0.6958 -0.4477 0.3922
C33 C 0.6211(3) 0.4436(3) 1.0339(2)
H26 H 0.6593 0.4306 0.9772
H27 H 0.743(4) -0.141(3) 0.935(3)
H28 H 0.692(3) -0.614(3) 0.423(2)
Co1_2 Co 1.40783(4) 1.02398(3) 1.83037(3)
Co1A Co 0.59217(4) -1.02398(3) 0.16963(3)
O3_2 O 0.34611(19) -0.02446(17) 0.68424(14)
O4_2 O 0.1725(2) -0.01362(19) 0.75887(15)
N1A N 0.3192(2) -0.1440(2) 0.81446(16)
C34 C 0.5409(3) 0.8607(3) 0.4747(2)
H29 H 0.6153 0.9335 0.5055
N5 N 0.2774(3) 0.6609(2) 0.2367(2)
N6 N 0.3980(3) 0.6942(2) 0.48583(19)
C35 C 0.3566(3) 0.7057(3) 0.3332(2)
C36 C 0.4677(3) 0.8149(3) 0.3778(2)
H30 H 0.4918 0.8562 0.3421
C37 C 0.3263(3) 0.6494(3) 0.3911(2)
H31 H 0.2521 0.5767 0.3626
C38 C 0.0802(3) 0.5236(3) 0.0901(2)
C39 C 0.5032(3) 0.7979(3) 0.5260(2)
H32 H 0.5538 0.8297 0.5917
C40 C 0.1633(3) 0.5478(3) 0.1879(2)
H33 H 0.1008 0.5416 0.2331
H34 H 0.2011 0.4902 0.1743
C41 C 0.0362(3) 0.4179(3) 0.0056(2)
H35 H 0.0596 0.3610 0.0085
C42 C 0.0418(4) 0.6056(3) 0.0832(2)
H36 H 0.0691 0.6775 0.1395
H37 H 0.317(3) 0.684(3) 0.206(2)
C34A C -0.5409(3) 0.1393(3) -0.4747(2)
H29A H -0.6153 0.0665 -0.5055
N5A N -0.2774(3) 0.3391(2) -0.2367(2)
N6A N -0.3980(3) 0.3058(2) -0.48583(19)
C35A C -0.3566(3) 0.2943(3) -0.3332(2)
C36A C -0.4677(3) 0.1851(3) -0.3778(2)
H30A H -0.4918 0.1438 -0.3421
C37A C -0.3263(3) 0.3506(3) -0.3911(2)
H31A H -0.2521 0.4233 -0.3626
C38A C -0.0802(3) 0.4764(3) -0.0901(2)
C39A C -0.5032(3) 0.2021(3) -0.5260(2)
H32A H -0.5538 0.1703 -0.5917
C40A C -0.1633(3) 0.4522(3) -0.1879(2)
H33A H -0.1008 0.4584 -0.2331
H34A H -0.2011 0.5098 -0.1743
C41A C -0.0362(3) 0.5821(3) -0.0056(2)
H35A H -0.0596 0.6390 -0.0085
C42A C -0.0418(4) 0.3944(3) -0.0832(2)
H36A H -0.0691 0.3225 -0.1395
H37A H -0.317(3) 0.316(3) -0.206(2)
loop_
_geom_bond_atom_site_label_1
_geom_bond_atom_site_label_2
_geom_bond_site_symmetry_1
_geom_bond_site_symmetry_2
Co1 O1 1_555 1_555
O1 C1 1_555 1_555
O2 Co1 1_555 1_555
O3 C3 1_555 1_555
O4 C3 1_555 1_555
O5 C7 1_555 1_555
O6 C8 1_555 1_555
N1 C6 1_555 1_555
N2 C4 1_555 1_555
N3 C12 1_555 1_555
N4 Co1 1_555 1_555
C1 O2 1_555 1_555
C2 C3 1_555 1_555
C4 C6 1_555 1_555
C5 H1 1_555 1_555
C6 H2 1_555 1_555
C7 C5 1_555 1_555
C8 C18 1_555 1_555
C9 C2 1_555 1_555
H3 C9 1_555 1_555
C10 N4 1_555 1_555
H4 C10 1_555 1_555
C11 C1 1_555 1_555
C12 C10 1_555 1_555
C13 N1 1_555 1_555
H5 C13 1_555 1_555
C14 O5 1_555 1_555
H6 C14 1_555 1_555
H7 C14 1_555 1_555
C15 C7 1_555 1_555
H8 C15 1_555 1_555
C16 N3 1_555 1_555
H9 C16 1_555 1_555
H10 C16 1_555 1_555
C17 C16 1_555 1_555
C18 H11 1_555 1_555
C19 C11 1_555 1_555
H12 C19 1_555 1_555
C20 C8 1_555 1_555
H13 C20 1_555 1_555
C21 C13 1_555 1_555
H14 C21 1_555 1_555
C22 C27 1_555 1_555
C23 C2 1_555 1_555
H15 C23 1_555 1_555
C24 C4 1_555 1_555
H16 C24 1_555 1_555
C25 C17 1_555 1_555
H17 C25 1_555 1_555
C26 C12 1_555 1_555
H18 C26 1_555 1_555
C27 C25 1_555 1_555
H19 C27 1_555 1_555
C28 C17 1_555 1_555
H20 C28 1_555 1_555
C29 C26 1_555 1_555
H21 C29 1_555 1_555
C30 N4 1_555 1_555
H22 C30 1_555 1_555
C31 C22 1_555 1_555
H23 C31 1_555 1_555
C32 N2 1_555 1_555
H24 C32 1_555 1_555
H25 C32 1_555 1_555
C33 C11 1_555 1_555
H26 C33 1_555 1_555
H27 N3 1_555 1_555
H28 N2 1_555 1_555
C34 H29 1_555 1_555
N5 C35 1_555 1_555
N6 C37 1_555 1_555
C35 C36 1_555 1_555
C36 C34 1_555 1_555
H30 C36 1_555 1_555
C37 C35 1_555 1_555
H31 C37 1_555 1_555
C38 C40 1_555 1_555
C39 C34 1_555 1_555
H32 C39 1_555 1_555
C40 N5 1_555 1_555
H33 C40 1_555 1_555
H34 C40 1_555 1_555
C41 C38 1_555 1_555
H35 C41 1_555 1_555
C42 C38 1_555 1_555
H36 C42 1_555 1_555
H37 N5 1_555 1_555
Co1_2 O3 1_555 1_555
Co1A N1 1_555 1_555
O3_2 Co1 1_555 1_555
O4_2 Co1 1_555 1_555
N1A Co1 1_555 1_555
C34A H29A 1_555 1_555
N5A C35A 1_555 1_555
N6A C37A 1_555 1_555
C35A C36A 1_555 1_555
C36A C34A 1_555 1_555
H30A C36A 1_555 1_555
C37A C35A 1_555 1_555
H31A C37A 1_555 1_555
C38A C40A 1_555 1_555
C39A C34A 1_555 1_555
H32A C39A 1_555 1_555
C40A N5A 1_555 1_555
H33A C40A 1_555 1_555
H34A C40A 1_555 1_555
C41A C42 1_555 1_555
H35A C41A 1_555 1_555
C42A C41 1_555 1_555
H36A C42A 1_555 1_555
H37A N5A 1_555 1_555
O4 Co1_2 1_555 1_555
O6 C14 1_555 1_555
C5 C9 1_555 1_555
C15 C23 1_555 1_555
C18 C33 1_555 1_555
C19 C20 1_555 1_555
C21 C24 1_555 1_555
C22 C32 1_555 1_555
C28 C31 1_555 1_555
C29 C30 1_555 1_555
N6 C39 1_555 1_555
N6A C39A 1_555 1_555
C38A C41A 1_555 1_555
C38A C42A 1_555 1_555

#END
