
#######################################################################
#
#                 Cambridge Crystallographic Data Centre
#                                CCDC 
#
#######################################################################
#
# If this CIF has been generated from an entry in the Cambridge 
# Structural Database, then it will include bibliographic, chemical, 
# crystal, experimental, refinement or atomic coordinate data resulting 
# from the CCDC's data processing and validation procedures.
#
#######################################################################

data_LOVQUI
_symmetry_cell_setting           monoclinic
_symmetry_space_group_name_H-M   'P 21'
_symmetry_Int_Tables_number      4
_space_group_name_Hall           'P 2yb'
loop_
_symmetry_equiv_pos_site_id
_symmetry_equiv_pos_as_xyz
1 x,y,z
2 -x,1/2+y,-z
_cell_length_a                   10.882(3)
_cell_length_b                   7.473(2)
_cell_length_c                   18.534(4)
_cell_angle_alpha                90
_cell_angle_beta                 90.92(2)
_cell_angle_gamma                90
_cell_volume                     1507.01
loop_
_atom_site_label
_atom_site_type_symbol
_atom_site_fract_x
_atom_site_fract_y
_atom_site_fract_z
Zn1 Zn 0.94701(6) 0.61204(10) 0.23358(3)
N1 N 1.1705(5) 0.2480(8) -0.0146(3)
C1 C 1.1737(9) 0.0877(14) 0.0297(4)
H1 H 1.1485(9) -0.0134(14) 0.0011(4)
H2 H 1.1189(9) 0.1017(14) 0.0694(4)
H3 H 1.2558(9) 0.0688(14) 0.0478(4)
C2 C 1.2024(6) 0.4144(10) 0.0129(3)
N2 N 1.2410(5) 0.4215(8) 0.0809(3)
H4 H 1.2497(5) 0.3233(8) 0.1047(3)
C3 C 1.2697(5) 0.5930(12) 0.1173(3)
H5 H 1.2824(5) 0.6847(12) 0.0804(3)
C4 C 1.1639(7) 0.6504(10) 0.1643(3)
O1 O 1.0955(5) 0.5289(8) 0.1874(3)
O2 O 1.1545(7) 0.8094(10) 0.1787(5)
C5 C 1.3882(6) 0.5732(12) 0.1620(3)
H6 H 1.3911(6) 0.6664(12) 0.1985(3)
H7 H 1.3873(6) 0.4588(12) 0.1867(3)
C6 C 1.5044(7) 0.5851(21) 0.1162(5)
H8 H 1.5015(7) 0.4908(21) 0.0803(5)
H9 H 1.5756(7) 0.5636(21) 0.1472(5)
S1 S 1.5238(3) 0.7941(7) 0.0716(2)
C7 C 1.5380(15) 0.9465(24) 0.1525(11)
H10 H 1.5498(15) 1.0675(24) 0.1366(11)
H11 H 1.6070(15) 0.9102(24) 0.1819(11)
H12 H 1.4643(15) 0.9394(24) 0.1802(11)
N3 N 1.1966(5) 0.5663(8) -0.0241(3)
C8 C 1.1696(6) 0.5597(9) -0.0957(4)
N4 N 1.1642(7) 0.7091(10) -0.1314(3)
H13 H 1.1776(7) 0.8090(10) -0.1096(3)
H14 H 1.1472(7) 0.7082(10) -0.1769(3)
C9 C 1.1466(6) 0.3902(9) -0.1299(3)
N5 N 1.1176(5) 0.3672(8) -0.2001(3)
O3 O 1.1219(6) 0.4972(8) -0.2435(3)
C10 C 1.1478(6) 0.2280(10) -0.0878(3)
O4 O 1.1312(5) 0.0796(7) -0.1138(2)
N6 N 0.8136(5) 0.0078(8) 0.4515(3)
C11 C 0.7728(8) -0.1440(11) 0.4076(4)
H15 H 0.8021(8) -0.2532(11) 0.4290(4)
H16 H 0.8049(8) -0.1327(11) 0.3598(4)
H17 H 0.6846(8) -0.1459(11) 0.4050(4)
C12 C 0.7842(5) 0.1817(10) 0.4336(3)
N7 N 0.7252(5) 0.2064(9) 0.3694(3)
H18 H 0.7188(5) 0.1165(9) 0.3407(3)
C13 C 0.6723(5) 0.3749(10) 0.3465(3)
H19 H 0.6690(5) 0.4497(10) 0.3899(3)
C14 C 0.7482(6) 0.4789(10) 0.2927(3)
O5 O 0.8502(4) 0.4162(7) 0.2730(2)
O6 O 0.7057(5) 0.6267(10) 0.2724(3)
C15 C 0.5389(6) 0.3495(14) 0.3213(4)
H20 H 0.5165(6) 0.4474(14) 0.2893(4)
H21 H 0.5330(6) 0.2394(14) 0.2937(4)
C16 C 0.4470(8) 0.3420(21) 0.3827(6)
H22 H 0.4658(8) 0.2387(21) 0.4126(6)
H23 H 0.3653(8) 0.3248(21) 0.3622(6)
S2 S 0.4457(2) 0.5372(7) 0.43886(15)
C17 C 0.4084(12) 0.7107(26) 0.3748(8)
H24 H 0.4053(12) 0.8239(26) 0.3992(8)
H25 H 0.3299(12) 0.6859(26) 0.3526(8)
H26 H 0.4701(12) 0.7147(26) 0.3384(8)
N8 N 0.8054(5) 0.3236(8) 0.4734(3)
C18 C 0.8608(6) 0.3000(11) 0.5382(4)
N9 N 0.8842(6) 0.4422(8) 0.5762(3)
H27 H 0.8644(6) 0.5460(8) 0.5597(3)
H28 H 0.9195(6) 0.4327(8) 0.6179(3)
C19 C 0.8938(5) 0.1255(11) 0.5644(3)
N10 N 0.9478(5) 0.0785(7) 0.6268(3)
O7 O 0.9785(4) 0.2112(7) 0.6700(2)
C20 C 0.8640(6) -0.0313(10) 0.5197(3)
O8 O 0.8805(6) -0.1844(7) 0.5371(3)
N5A N 0.8824(5) 0.8672(8) 0.2001(3)
O4A O 0.8688(5) 0.5796(7) 0.1138(2)
O7A O 1.0215(4) 0.7112(7) 0.3300(2)
Zn1A Zn 1.05299(6) 0.11204(10) -0.23358(3)
Zn1A_2 Zn 1.05299(6) 0.11204(10) 0.76642(3)
O9 O 1.0785(6) 1.2054(10) 0.3102(3)
H29 H 1.0478(6) 1.2142(10) 0.2697(3)
H30 H 1.0441(6) 1.2747(10) 0.3376(3)
O10 O 1.2422(6) 1.1583(9) 0.1969(3)
H31 H 1.2941(6) 1.0821(9) 0.2065(3)
H32 H 1.2760(6) 1.2480(9) 0.1812(3)
loop_
_geom_bond_atom_site_label_1
_geom_bond_atom_site_label_2
_geom_bond_site_symmetry_1
_geom_bond_site_symmetry_2
Zn1 O1 1_555 1_555
N1 C1 1_555 1_555
C1 H1 1_555 1_555
H2 C1 1_555 1_555
H3 C1 1_555 1_555
C2 N1 1_555 1_555
N2 C2 1_555 1_555
H4 N2 1_555 1_555
C3 N2 1_555 1_555
H5 C3 1_555 1_555
C4 C3 1_555 1_555
O1 C4 1_555 1_555
O2 C4 1_555 1_555
C5 C3 1_555 1_555
H6 C5 1_555 1_555
H7 C5 1_555 1_555
C6 C5 1_555 1_555
H8 C6 1_555 1_555
H9 C6 1_555 1_555
S1 C6 1_555 1_555
C7 S1 1_555 1_555
H10 C7 1_555 1_555
H11 C7 1_555 1_555
H12 C7 1_555 1_555
N3 C2 1_555 1_555
C8 N3 1_555 1_555
N4 C8 1_555 1_555
H13 N4 1_555 1_555
H14 N4 1_555 1_555
C9 C8 1_555 1_555
N5 C9 1_555 1_555
O3 N5 1_555 1_555
C10 N1 1_555 1_555
O4 C10 1_555 1_555
N6 C11 1_555 1_555
C11 H15 1_555 1_555
H16 C11 1_555 1_555
H17 C11 1_555 1_555
C12 N6 1_555 1_555
N7 C12 1_555 1_555
H18 N7 1_555 1_555
C13 N7 1_555 1_555
H19 C13 1_555 1_555
C14 C13 1_555 1_555
O5 Zn1 1_555 1_555
O6 C14 1_555 1_555
C15 C13 1_555 1_555
H20 C15 1_555 1_555
H21 C15 1_555 1_555
C16 C15 1_555 1_555
H22 C16 1_555 1_555
H23 C16 1_555 1_555
S2 C16 1_555 1_555
C17 S2 1_555 1_555
H24 C17 1_555 1_555
H25 C17 1_555 1_555
H26 C17 1_555 1_555
N8 C12 1_555 1_555
C18 N8 1_555 1_555
N9 C18 1_555 1_555
H27 N9 1_555 1_555
H28 N9 1_555 1_555
C19 C18 1_555 1_555
N10 C19 1_555 1_555
O7 N10 1_555 1_555
C20 N6 1_555 1_555
O8 C20 1_555 1_555
O9 H29 1_555 1_555
H30 O9 1_555 1_555
O10 H31 1_555 1_555
H32 O10 1_555 1_555
N5A Zn1 1_555 1_555
O4A Zn1 1_555 1_555
O7A Zn1 1_555 1_555
Zn1A N5 1_555 1_555
Zn1A_2 O7 1_555 1_555
C9 C10 1_555 1_555
O4 Zn1A 1_555 1_555
C14 O5 1_555 1_555
C19 C20 1_555 1_555

#END
