
#######################################################################
#
#                 Cambridge Crystallographic Data Centre
#                                CCDC 
#
#######################################################################
#
# If this CIF has been generated from an entry in the Cambridge 
# Structural Database, then it will include bibliographic, chemical, 
# crystal, experimental, refinement or atomic coordinate data resulting 
# from the CCDC's data processing and validation procedures.
#
#######################################################################

data_LOVQUK
_symmetry_cell_setting           rhombohedral
_symmetry_space_group_name_H-M   'R -3'
_symmetry_Int_Tables_number      148
_space_group_name_Hall           '-R 3'
loop_
_symmetry_equiv_pos_site_id
_symmetry_equiv_pos_as_xyz
1 x,y,z
2 -y,x-y,z
3 -x+y,-x,z
4 2/3+x,1/3+y,1/3+z
5 2/3-y,1/3+x-y,1/3+z
6 2/3-x+y,1/3-x,1/3+z
7 1/3+x,2/3+y,2/3+z
8 1/3-y,2/3+x-y,2/3+z
9 1/3-x+y,2/3-x,2/3+z
10 -x,-y,-z
11 y,-x+y,-z
12 x-y,x,-z
13 1/3-x,2/3-y,2/3-z
14 1/3+y,2/3-x+y,2/3-z
15 1/3+x-y,2/3+x,2/3-z
16 2/3-x,1/3-y,1/3-z
17 2/3+y,1/3-x+y,1/3-z
18 2/3+x-y,1/3+x,1/3-z
_cell_length_a                   24.5589(17)
_cell_length_b                   24.5589(17)
_cell_length_c                   19.3712(13)
_cell_angle_alpha                90
_cell_angle_beta                 90
_cell_angle_gamma                120
_cell_volume                     10118.2
loop_
_atom_site_label
_atom_site_type_symbol
_atom_site_fract_x
_atom_site_fract_y
_atom_site_fract_z
C1 C 0.33807(10) 0.27128(10) 0.19217(12)
C2 C 0.33226(10) 0.32707(10) 0.21296(11)
C3 C 0.36312(11) 0.36180(11) 0.27094(12)
H1 H 0.3879 0.3509 0.2973
C4 C 0.35696(11) 0.41264(11) 0.28942(12)
H2 H 0.3785 0.4365 0.3278
C5 C 0.31937(10) 0.42867(10) 0.25193(11)
H3 H 0.3157 0.4632 0.2646
C6 C 0.28715(9) 0.39266(10) 0.19512(10)
C7 C 0.29429(10) 0.34273(10) 0.17498(11)
H4 H 0.2736 0.3196 0.1359
C8 C 0.23766(11) 0.45349(11) 0.16942(12)
H5 H 0.2336 0.4571 0.2188
H6 H 0.1994 0.4473 0.1476
C9 C 0.29356(10) 0.51871(10) 0.07426(11)
C10 C 0.25637(10) 0.47348(10) 0.02702(11)
H7 H 0.2256 0.4340 0.0421
C11 C 0.33955(11) 0.57770(10) 0.05170(12)
H8 H 0.3644 0.6086 0.0835
C12 C 0.34812(11) 0.59007(11) -0.01775(13)
H9 H 0.3795 0.6293 -0.0328
C13 C 0.31102(11) 0.54524(10) -0.06561(12)
H10 H 0.3170 0.5543 -0.1125
C14 C 0.26466(10) 0.48660(10) -0.04313(11)
C15 C 0.22429(10) 0.43540(11) -0.09363(11)
C16 C 0.26804(10) 0.14609(10) -0.03866(11)
H11 H 0.3044 0.1433 -0.0403
C17 C 0.23849(11) 0.14473(11) -0.10057(11)
C18 C 0.18231(12) 0.14561(12) -0.09623(13)
H12 H 0.1599 0.1431 -0.1360
C19 C 0.16069(12) 0.15027(13) -0.03302(13)
H13 H 0.1233 0.1511 -0.0296
C20 C 0.19358(11) 0.15377(11) 0.02541(12)
H14 H 0.1788 0.1580 0.0681
C21 C 0.24510(15) 0.15433(18) -0.22707(13)
H15 H 0.2432 0.1928 -0.2246
H16 H 0.2034 0.1200 -0.2379
C22 C 0.29038(13) 0.16004(16) -0.28264(13)
C23 C 0.28068(14) 0.10925(16) -0.32124(14)
H17 H 0.2452 0.0702 -0.3135
C24 C 0.34336(15) 0.21761(16) -0.29517(14)
H18 H 0.3504 0.2525 -0.2694
Co1 Co 0.293462(13) 0.155680(13) 0.111509(14)
N1 N 0.24675(8) 0.15115(8) 0.02214(9)
N2 N 0.26531(11) 0.14276(12) -0.16166(10)
H19 H 0.2995 0.1485 -0.1602
O1 O 0.30877(8) 0.24147(8) 0.13966(9)
O2 O 0.23342(8) 0.44835(8) -0.15675(8)
O3 O 0.37117(8) 0.25794(8) 0.22967(9)
O4 O 0.18540(7) 0.38293(7) -0.06901(8)
O5 O 0.24467(7) 0.40107(7) 0.15618(8)
O6 O 0.28896(8) 0.50967(7) 0.14474(8)
C16O C 0.39863(10) 0.18724(10) -0.62801(11)
H11O H 0.3623 0.1900 -0.6264
C17O C 0.42818(11) 0.18860(11) -0.56610(11)
C18O C 0.48436(12) 0.18772(12) -0.57044(13)
H12O H 0.5068 0.1902 -0.5307
C19O C 0.50598(12) 0.18306(13) -0.63365(13)
H13O H 0.5434 0.1822 -0.6371
C20O C 0.47309(11) 0.17956(11) -0.69208(12)
H14O H 0.4879 0.1753 -0.7348
C21O C 0.42157(15) 0.17900(18) -0.43960(13)
H15O H 0.4235 0.1405 -0.4421
H16O H 0.4633 0.2133 -0.4288
C22O C 0.37629(13) 0.17329(16) -0.38403(13)
C23O C 0.38599(14) 0.22408(16) -0.34543(14)
H17O H 0.4215 0.2631 -0.3532
C24O C 0.32331(15) 0.11572(16) -0.37150(14)
H18O H 0.3163 0.0808 -0.3973
N1O N 0.41992(8) 0.18218(8) -0.68881(9)
N2O N 0.40136(11) 0.19057(12) -0.50501(10)
H19O H 0.3672 0.1848 -0.5065
C1J C 0.27128(10) -0.06679(14) -0.19217(12)
C2J C 0.32707(10) -0.00519(14) -0.21296(11)
C3J C 0.36180(11) -0.00132(16) -0.27094(12)
H1J H 0.3509 -0.0370 -0.2973
C4J C 0.41264(11) 0.05568(16) -0.28942(12)
H2J H 0.4365 0.0580 -0.3278
C5J C 0.42867(10) 0.10930(14) -0.25193(11)
H3J H 0.4632 0.1475 -0.2646
C6J C 0.39266(10) 0.10551(13) -0.19512(10)
C7J C 0.34273(10) 0.04844(14) -0.17498(11)
H4J H 0.3196 0.0460 -0.1359
C8J C 0.45349(11) 0.21583(16) -0.16942(12)
H5J H 0.4571 0.2235 -0.2188
H6J H 0.4473 0.2479 -0.1476
C9J C 0.51871(10) 0.22515(14) -0.07426(11)
C10J C 0.47348(10) 0.21711(14) -0.02702(11)
H7J H 0.4340 0.2084 -0.0421
C11J C 0.57770(10) 0.23815(15) -0.05170(12)
H8J H 0.6086 0.2442 -0.0835
C12J C 0.59007(11) 0.24195(16) 0.01775(13)
H9J H 0.6293 0.2498 0.0328
C13J C 0.54524(10) 0.23422(15) 0.06561(12)
H10J H 0.5543 0.2373 0.1125
C14J C 0.48660(10) 0.22194(14) 0.04313(11)
C15J C 0.43540(11) 0.21111(15) 0.09363(11)
Co1J Co 0.155680(13) -0.137782(18) -0.111509(14)
O1J O 0.24147(8) -0.06730(11) -0.13966(9)
O2J O 0.44835(8) 0.21493(11) 0.15675(8)
O3J O 0.25794(8) -0.11323(11) -0.22967(9)
O4J O 0.38293(7) 0.19753(10) 0.06901(8)
O5J O 0.40107(7) 0.15640(10) -0.15618(8)
O6J O 0.50967(7) 0.22071(11) -0.14474(8)
Co1G Co 0.177653(13) -0.195551(18) -0.221824(14)
Co1H Co 0.195551(18) 0.373205(13) -0.221824(14)
Co1K Co 0.137782(18) 0.293462(13) -0.111509(14)
Co1O Co 0.373205(13) 0.177653(13) -0.778176(14)
Co1O_2 Co 0.373205(13) 0.177653(13) 0.221824(14)
N1J N 0.15115(8) -0.09560(11) -0.02214(9)
O2D O 0.21832(8) 0.11840(11) 0.17658(8)
O2N O 0.11840(11) -0.09991(8) -0.17658(8)
O3G O 0.07539(8) -0.22010(11) -0.10366(9)
O3O O 0.29550(8) 0.07539(8) 0.10366(9)
O4B O 0.19753(10) -0.18540(7) -0.06901(8)
loop_
_geom_bond_atom_site_label_1
_geom_bond_atom_site_label_2
_geom_bond_site_symmetry_1
_geom_bond_site_symmetry_2
C1 C2 1_555 1_555
C2 C3 1_555 1_555
C3 H1 1_555 1_555
C4 C3 1_555 1_555
H2 C4 1_555 1_555
C5 C4 1_555 1_555
H3 C5 1_555 1_555
C6 C5 1_555 1_555
C7 C2 1_555 1_555
H4 C7 1_555 1_555
C8 H5 1_555 1_555
H6 C8 1_555 1_555
C9 C10 1_555 1_555
C10 H7 1_555 1_555
C11 C9 1_555 1_555
H8 C11 1_555 1_555
C12 C11 1_555 1_555
H9 C12 1_555 1_555
C13 C12 1_555 1_555
H10 C13 1_555 1_555
C14 C10 1_555 1_555
C15 C14 1_555 1_555
C16 H11 1_555 1_555
C17 C16 1_555 1_555
C18 C17 1_555 1_555
H12 C18 1_555 1_555
C19 C18 1_555 1_555
H13 C19 1_555 1_555
C20 C19 1_555 1_555
H14 C20 1_555 1_555
C21 H15 1_555 1_555
H16 C21 1_555 1_555
C22 C21 1_555 1_555
C23 C22 1_555 1_555
H17 C23 1_555 1_555
C24 C22 1_555 1_555
H18 C24 1_555 1_555
Co1 N1 1_555 1_555
N1 C16 1_555 1_555
N2 C17 1_555 1_555
H19 N2 1_555 1_555
O1 C1 1_555 1_555
O2 C15 1_555 1_555
O3 C1 1_555 1_555
O4 C15 1_555 1_555
O5 C6 1_555 1_555
O6 C8 1_555 1_555
C16O H11O 1_555 1_555
C17O C16O 1_555 1_555
C18O C17O 1_555 1_555
H12O C18O 1_555 1_555
C19O C18O 1_555 1_555
H13O C19O 1_555 1_555
C20O C19O 1_555 1_555
H14O C20O 1_555 1_555
C21O H15O 1_555 1_555
H16O C21O 1_555 1_555
C22O C21O 1_555 1_555
C23O C24 1_555 1_555
H17O C23O 1_555 1_555
C24O C23 1_555 1_555
H18O C24O 1_555 1_555
N1O C16O 1_555 1_555
N2O C17O 1_555 1_555
H19O N2O 1_555 1_555
C1J C2J 1_555 1_555
C2J C3J 1_555 1_555
C3J H1J 1_555 1_555
C4J C3J 1_555 1_555
H2J C4J 1_555 1_555
C5J C4J 1_555 1_555
H3J C5J 1_555 1_555
C6J C5J 1_555 1_555
C7J C2J 1_555 1_555
H4J C7J 1_555 1_555
C8J H5J 1_555 1_555
H6J C8J 1_555 1_555
C9J C10J 1_555 1_555
C10J H7J 1_555 1_555
C11J C9J 1_555 1_555
H8J C11J 1_555 1_555
C12J C11J 1_555 1_555
H9J C12J 1_555 1_555
C13J C12J 1_555 1_555
H10J C13J 1_555 1_555
C14J C10J 1_555 1_555
C15J C14J 1_555 1_555
Co1J O1J 1_555 1_555
O1J C1J 1_555 1_555
O2J C15J 1_555 1_555
O3J C1J 1_555 1_555
O4J Co1 1_555 1_555
O5J C6J 1_555 1_555
O6J C8J 1_555 1_555
Co1G Co1J 1_555 1_555
Co1H O2 1_555 1_555
Co1K O4 1_555 1_555
Co1O N1O 1_555 1_555
Co1O_2 Co1 1_555 1_555
N1J Co1J 1_555 1_555
O2D Co1 1_555 1_555
O2N Co1J 1_555 1_555
O3G Co1J 1_555 1_555
O3O Co1 1_555 1_555
O4B Co1J 1_555 1_555
C6 C7 1_555 1_555
C8 O5 1_555 1_555
C9 O6 1_555 1_555
C13 C14 1_555 1_555
C20 N1 1_555 1_555
C21 N2 1_555 1_555
Co1 O1 1_555 1_555
O3 Co1O_2 1_555 1_555
C20O N1O 1_555 1_555
C21O N2O 1_555 1_555
C22O C23O 1_555 1_555
C22O C24O 1_555 1_555
C6J C7J 1_555 1_555
C8J O5J 1_555 1_555
C9J O6J 1_555 1_555
C13J C14J 1_555 1_555
C15J O4J 1_555 1_555
O2J Co1O_2 1_555 1_555
O3J Co1G 1_555 1_555
Co1H Co1K 1_555 1_555

#END
