
#######################################################################
#
#                 Cambridge Crystallographic Data Centre
#                                CCDC 
#
#######################################################################
#
# If this CIF has been generated from an entry in the Cambridge 
# Structural Database, then it will include bibliographic, chemical, 
# crystal, experimental, refinement or atomic coordinate data resulting 
# from the CCDC's data processing and validation procedures.
#
#######################################################################

data_LOVRAR
_symmetry_cell_setting           triclinic
_symmetry_space_group_name_H-M   'P -1'
_symmetry_Int_Tables_number      2
_space_group_name_Hall           '-P 1'
loop_
_symmetry_equiv_pos_site_id
_symmetry_equiv_pos_as_xyz
1 x,y,z
2 -x,-y,-z
_cell_length_a                   10.0917(19)
_cell_length_b                   15.319(3)
_cell_length_c                   17.538(3)
_cell_angle_alpha                70.053(3)
_cell_angle_beta                 79.573(3)
_cell_angle_gamma                86.827(3)
_cell_volume                     2506.48
loop_
_atom_site_label
_atom_site_type_symbol
_atom_site_fract_x
_atom_site_fract_y
_atom_site_fract_z
Co1 Co 0.44015(7) 1.19178(5) 0.22486(5)
Co2 Co 0.70199(7) 0.51413(5) 0.23121(5)
O1 O 0.1748(4) 0.7982(3) 0.3011(3)
O2 O -0.4348(4) 1.0632(3) 0.2489(3)
O3 O 0.2542(4) 1.1296(3) 0.2606(2)
O4 O -0.0485(4) 0.8515(3) 0.3201(3)
O5 O 0.5385(4) 0.5934(3) 0.2264(3)
O6 O -0.3490(4) 1.2035(3) 0.2073(3)
O7 O 0.3748(5) 1.3281(3) 0.1783(3)
O8 O -0.1748(4) 0.6065(3) 0.2427(3)
O9 O 0.4343(4) 0.4734(3) 0.2222(3)
N1 N 0.4263(5) 1.1907(3) 0.3499(3)
C1 C 0.1812(5) 0.5588(4) 0.2392(3)
N2 N 0.7524(5) 0.4742(3) 0.1295(3)
O10 O -0.0660(4) 0.4769(3) 0.2498(3)
O11 O 0.1323(5) 1.2521(3) 0.2011(3)
N3 N 0.5566(5) -0.1856(3) -0.1043(3)
N4 N 0.6529(5) 0.4192(3) 0.3478(3)
C2 C -0.0679(6) 0.5575(4) 0.2496(4)
N5 N 1.0064(5) 0.3335(4) 0.0534(4)
C3 C 0.4321(6) 0.5503(4) 0.2289(4)
C4 C 0.1486(5) 1.1668(4) 0.2359(4)
C5 C 0.3000(5) 0.5984(4) 0.2429(3)
N6 N 0.7785(6) 0.2005(4) 0.4785(3)
C6 C -0.1974(5) 1.0778(4) 0.2444(3)
C7 C 0.1713(6) 0.7195(4) 0.2798(4)
C8 C -0.3345(5) 1.1169(4) 0.2317(4)
C9 C -0.0907(5) 1.1373(4) 0.2315(4)
H1 H -0.1029 1.2013 0.2121
C10 C 0.0538(5) 1.0054(4) 0.2757(4)
C11 C 0.3131(6) 1.2461(4) 0.4575(4)
C12 C 0.4888(6) 1.1277(4) 0.4052(4)
H2 H 0.5495 1.0875 0.3878
C13 C -0.0540(5) 0.9466(4) 0.2898(4)
C14 C 0.0613(7) 0.8097(5) 0.3582(4)
H3 H 0.0333 0.7495 0.3983
H4 H 0.0875 0.8477 0.3874
C15 C 0.2949(5) 0.6780(4) 0.2626(4)
H5 H 0.3743 0.7047 0.2645
C16 C 0.7193(6) 0.3395(4) 0.3722(4)
H6 H 0.7783 0.3223 0.3326
C17 C 0.3411(6) 1.2489(4) 0.3760(4)
H7 H 0.2983 1.2936 0.3376
C18 C 0.0343(5) 1.1011(4) 0.2479(3)
C19 C 0.0597(5) 0.6007(4) 0.2542(3)
C20 C 0.7048(6) 0.2804(4) 0.4542(4)
C21 C 0.8984(6) 0.3912(4) 0.0525(4)
C22 C 0.0528(6) 0.6809(4) 0.2740(4)
C23 C 0.4665(7) 1.1201(5) 0.4874(4)
H8 H 0.5118 1.0755 0.5243
C24 C 0.9333(6) 0.0805(4) 0.4589(4)
N7 N 0.2224(6) 1.3058(4) 0.4829(3)
C25 C 0.8558(6) 0.4177(4) 0.1220(4)
H9 H 0.9026 0.3944 0.1657
C26 C 0.6227(7) -0.1191(4) -0.0922(4)
H10 H 0.6693 -0.0743 -0.1382
C27 C 0.6843(7) 0.5080(5) 0.0673(4)
H11 H 0.6114 0.5467 0.0722
C28 C -0.1795(5) 0.9829(4) 0.2734(4)
H12 H -0.2513 0.9431 0.2821
C29 C 0.3781(7) 1.1780(4) 0.5139(4)
H13 H 0.3610 1.1724 0.5693
C30 C 0.5643(7) 0.4429(4) 0.4042(4)
H14 H 0.5159 0.4976 0.3877
C31 C 0.5437(7) 0.3887(5) 0.4852(4)
H15 H 0.4811 0.4066 0.5229
C32 C 0.0819(7) 1.4446(5) 0.4629(4)
C33 C 0.6143(7) 0.3081(4) 0.5116(4)
H16 H 0.6019 0.2722 0.5672
C34 C 0.5537(10) -0.1808(6) 0.0525(5)
H17 H 0.5519 -0.1803 0.1055
C35 C 1.0650(7) 0.3039(5) -0.0147(4)
H18 H 1.1567 0.2844 -0.0084
H19 H 1.0699 0.3572 -0.0649
C36 C 0.6257(8) -0.1131(5) -0.0159(4)
C37 C 1.0569(7) 0.0847(5) 0.4795(5)
H20 H 1.0975 0.1424 0.4655
C38 C 0.9926(7) 0.2260(4) -0.0254(4)
C39 C 0.8685(7) 0.1906(5) 0.0218(4)
H21 H 0.8280 0.2146 0.0623
C40 C 0.8264(7) 0.4274(5) -0.0123(4)
H22 H 0.8499 0.4120 -0.0599
C41 C 0.4900(7) -0.2491(5) -0.0394(4)
H23 H 0.4446 -0.2961 -0.0467
N8 N 0.6941(7) -0.0430(5) -0.0059(4)
C42 C 0.8598(8) 0.1663(5) 0.4177(4)
H24 H 0.9242 0.2138 0.3816
H25 H 0.8024 0.1526 0.3844
C43 C 0.8625(8) 0.0835(5) -0.0514(5)
C44 C 0.8048(8) 0.1204(5) 0.0093(5)
H26 H 0.7224 0.0974 0.0418
C45 C 1.0482(8) 0.1885(5) -0.0853(5)
H27 H 1.1302 0.2115 -0.1185
C46 C 0.7200(8) 0.4864(5) -0.0051(5)
H28 H 0.6722 0.5118 -0.0481
C47 C 0.1709(9) 1.3840(6) 0.4226(5)
H29 H 0.1196 1.3615 0.3913
H30 H 0.2457 1.4208 0.3846
C48 C 0.9848(9) 0.1180(5) -0.0967(5)
H31 H 1.0263 0.0931 -0.1364
C49 C 0.7915(11) 0.0128(6) -0.0730(5)
C50 C 0.4861(10) -0.2475(6) 0.0389(5)
H32 H 0.4366 -0.2926 0.0834
C51 C -0.0553(8) 1.4423(6) 0.4708(5)
H33 H -0.0949 1.4030 0.4509
C52 C 0.1351(7) 1.5030(6) 0.4927(6)
H34 H 0.2282 1.5060 0.4882
C53 C 0.8767(7) -0.0055(5) 0.4793(5)
H35 H 0.7935 -0.0109 0.4655
H36 H 0.380(7) 1.359(5) 0.192(4)
N1A N -0.4263(5) 1.8093(3) 0.6501(3)
C11A C -0.3131(6) 1.7539(4) 0.5425(4)
C12A C -0.4888(6) 1.8723(4) 0.5948(4)
H2A H -0.5495 1.9125 0.6122
C17A C -0.3411(6) 1.7511(4) 0.6240(4)
H7A H -0.2983 1.7064 0.6624
C23A C -0.4665(7) 1.8799(5) 0.5126(4)
H8A H -0.5118 1.9245 0.4757
N7A N -0.2224(6) 1.6942(4) 0.5171(3)
C29A C -0.3781(7) 1.8220(4) 0.4861(4)
H13A H -0.3610 1.8276 0.4307
C32A C -0.0819(7) 1.5554(5) 0.5371(4)
C47A C -0.1709(9) 1.6160(6) 0.5774(5)
H29A H -0.1196 1.6385 0.6087
H30A H -0.2457 1.5792 0.6154
C51A C 0.0553(8) 1.5577(6) 0.5292(5)
H33A H 0.0949 1.5970 0.5491
C52A C -0.1351(7) 1.4970(6) 0.5073(6)
H34A H -0.2282 1.4940 0.5118
N4A N 1.3471(5) -0.4192(3) 0.6522(3)
N6A N 1.2215(6) -0.2005(4) 0.5215(3)
C16A C 1.2807(6) -0.3395(4) 0.6278(4)
H6A H 1.2217 -0.3223 0.6674
C20A C 1.2952(6) -0.2804(4) 0.5458(4)
C24A C 1.0667(6) -0.0805(4) 0.5411(4)
C30A C 1.4357(7) -0.4429(4) 0.5958(4)
H14A H 1.4841 -0.4976 0.6123
C31A C 1.4563(7) -0.3887(5) 0.5148(4)
H15A H 1.5189 -0.4066 0.4771
C33A C 1.3857(7) -0.3081(4) 0.4884(4)
H16A H 1.3981 -0.2722 0.4328
C37A C 0.9431(7) -0.0847(5) 0.5205(5)
H20A H 0.9025 -0.1424 0.5345
C42A C 1.1402(8) -0.1663(5) 0.5823(4)
H24A H 1.0758 -0.2138 0.6184
H25A H 1.1976 -0.1526 0.6156
C53A C 1.1233(7) 0.0055(5) 0.5207(5)
H35A H 1.2065 0.0109 0.5345
Co1A Co -0.44015(7) 1.80822(5) 0.77514(5)
Co2A Co -0.70199(7) 2.48587(5) 0.76879(5)
O1A O -0.1748(4) 2.2018(3) 0.6989(3)
O2A O 0.4348(4) 1.9368(3) 0.7511(3)
O3A O -0.2542(4) 1.8704(3) 0.7394(2)
O4A O 0.0485(4) 2.1485(3) 0.6799(3)
O5A O -0.5385(4) 2.4066(3) 0.7736(3)
O6A O 0.3490(4) 1.7965(3) 0.7927(3)
O7A O -0.3748(5) 1.6719(3) 0.8217(3)
O8A O 0.1748(4) 2.3935(3) 0.7573(3)
O9A O -0.4343(4) 2.5266(3) 0.7778(3)
C1A C -0.1812(5) 2.4412(4) 0.7608(3)
N2A N -0.7524(5) 2.5258(3) 0.8705(3)
O10A O 0.0660(4) 2.5231(3) 0.7502(3)
O11A O -0.1323(5) 1.7479(3) 0.7989(3)
N3A N -0.5566(5) 3.1856(3) 1.1043(3)
C2A C 0.0679(6) 2.4425(4) 0.7504(4)
N5A N -1.0064(5) 2.6665(4) 0.9466(4)
C3A C -0.4321(6) 2.4497(4) 0.7711(4)
C4A C -0.1486(5) 1.8332(4) 0.7641(4)
C5A C -0.3000(5) 2.4016(4) 0.7571(3)
C6A C 0.1974(5) 1.9222(4) 0.7556(3)
C7A C -0.1713(6) 2.2805(4) 0.7202(4)
C8A C 0.3345(5) 1.8831(4) 0.7683(4)
C9A C 0.0907(5) 1.8627(4) 0.7685(4)
H1A H 0.1029 1.7987 0.7879
C10A C -0.0538(5) 1.9946(4) 0.7243(4)
C13A C 0.0540(5) 2.0534(4) 0.7102(4)
C14A C -0.0613(7) 2.1903(5) 0.6418(4)
H3A H -0.0333 2.2505 0.6017
H4A H -0.0875 2.1523 0.6126
C15A C -0.2949(5) 2.3220(4) 0.7374(4)
H5A H -0.3743 2.2953 0.7355
C18A C -0.0343(5) 1.8989(4) 0.7521(3)
C19A C -0.0597(5) 2.3993(4) 0.7458(3)
C21A C -0.8984(6) 2.6088(4) 0.9475(4)
C22A C -0.0528(6) 2.3191(4) 0.7260(4)
C25A C -0.8558(6) 2.5823(4) 0.8780(4)
H9A H -0.9026 2.6056 0.8343
C26A C -0.6227(7) 3.1191(4) 1.0922(4)
H10A H -0.6693 3.0743 1.1382
C27A C -0.6843(7) 2.4920(5) 0.9327(4)
H11A H -0.6114 2.4533 0.9278
C28A C 0.1795(5) 2.0171(4) 0.7266(4)
H12A H 0.2513 2.0569 0.7179
C34A C -0.5537(10) 3.1808(6) 0.9475(5)
H17A H -0.5519 3.1803 0.8945
C35A C -1.0650(7) 2.6961(5) 1.0147(4)
H18A H -1.1567 2.7156 1.0084
H19A H -1.0699 2.6428 1.0649
C36A C -0.6257(8) 3.1131(5) 1.0159(4)
C38A C -0.9926(7) 2.7740(4) 1.0254(4)
C39A C -0.8685(7) 2.8094(5) 0.9782(4)
H21A H -0.8280 2.7854 0.9377
C40A C -0.8264(7) 2.5726(5) 1.0123(4)
H22A H -0.8499 2.5880 1.0599
C41A C -0.4900(7) 3.2491(5) 1.0394(4)
H23A H -0.4446 3.2961 1.0467
N8A N -0.6941(7) 3.0430(5) 1.0059(4)
C43A C -0.8625(8) 2.9165(5) 1.0514(5)
C44A C -0.8048(8) 2.8796(5) 0.9907(5)
H26A H -0.7224 2.9026 0.9582
C45A C -1.0482(8) 2.8115(5) 1.0853(5)
H27A H -1.1302 2.7885 1.1185
C46A C -0.7200(8) 2.5136(5) 1.0051(5)
H28A H -0.6722 2.4882 1.0481
C48A C -0.9848(9) 2.8820(5) 1.0967(5)
H31A H -1.0263 2.9069 1.1364
C49A C -0.7915(11) 2.9872(6) 1.0730(5)
C50A C -0.4861(10) 3.2475(6) 0.9611(5)
H32A H -0.4366 3.2926 0.9166
H36A H -0.380(7) 1.641(5) 0.808(4)
Co1_2 Co -0.55985(7) 1.19178(5) 0.22486(5)
Co1_3 Co -0.55985(7) 3.19178(5) 1.22486(5)
Co1A_2 Co 0.55985(7) -0.19178(5) -0.22486(5)
Co1A_3 Co 0.55985(7) 1.80822(5) 0.77514(5)
Co2_2 Co -0.29801(7) 0.51413(5) 0.23121(5)
Co2A_2 Co 0.29801(7) 2.48587(5) 0.76879(5)
Co2A_3 Co 1.29801(7) -0.51413(5) 0.76879(5)
O2_2 O 0.5652(4) 1.0632(3) 0.2489(3)
O2A_2 O -0.5652(4) 1.9368(3) 0.7511(3)
O6_2 O 0.6510(4) 1.2035(3) 0.2073(3)
O6A_2 O -0.6510(4) 1.7965(3) 0.7927(3)
O8_2 O 0.8252(4) 0.6065(3) 0.2427(3)
O8A_2 O -0.8252(4) 2.3935(3) 0.7573(3)
O10_2 O 0.9340(4) 0.4769(3) 0.2498(3)
O10A_2 O -0.9340(4) 2.5231(3) 0.7502(3)
N3_2 N -0.4434(5) 1.8144(3) 0.8957(3)
N3A_2 N 0.4434(5) 1.1856(3) 0.1043(3)
N4A_2 N -0.6529(5) 2.5808(3) 0.6522(3)
O12 O 0.3359(6) 0.9491(5) 0.3656(4)
H37 H 0.389(8) 0.914(6) 0.334(5)
O13 O 0.6670(11) 0.7178(7) 0.3266(8)
O14 O 0.5194(13) 0.8903(9) 0.2316(10)
H38 H 0.610(6) 0.918(4) 0.177(4)
loop_
_geom_bond_atom_site_label_1
_geom_bond_atom_site_label_2
_geom_bond_site_symmetry_1
_geom_bond_site_symmetry_2
Co1 O3 1_555 1_555
Co2 O5 1_555 1_555
O1 C7 1_555 1_555
O2 C8 1_555 1_555
O3 C4 1_555 1_555
O4 C13 1_555 1_555
O5 C3 1_555 1_555
O6 C8 1_555 1_555
O7 Co1 1_555 1_555
O8 C2 1_555 1_555
O9 C3 1_555 1_555
N1 Co1 1_555 1_555
C1 C5 1_555 1_555
N2 Co2 1_555 1_555
O10 C2 1_555 1_555
O11 C4 1_555 1_555
N3 C26 1_555 1_555
N4 Co2 1_555 1_555
C2 C19 1_555 1_555
N5 C21 1_555 1_555
C3 C5 1_555 1_555
C4 C18 1_555 1_555
C5 C15 1_555 1_555
N6 C20 1_555 1_555
C6 C8 1_555 1_555
C7 C15 1_555 1_555
C9 C6 1_555 1_555
H1 C9 1_555 1_555
C10 C13 1_555 1_555
C11 C17 1_555 1_555
C12 N1 1_555 1_555
H2 C12 1_555 1_555
C13 C28 1_555 1_555
C14 O1 1_555 1_555
H3 C14 1_555 1_555
H4 C14 1_555 1_555
C15 H5 1_555 1_555
C16 N4 1_555 1_555
H6 C16 1_555 1_555
C17 N1 1_555 1_555
H7 C17 1_555 1_555
C18 C9 1_555 1_555
C19 C1 1_555 1_555
C20 C16 1_555 1_555
C21 C25 1_555 1_555
C22 C7 1_555 1_555
C23 C12 1_555 1_555
H8 C23 1_555 1_555
C24 C37 1_555 1_555
N7 C11 1_555 1_555
C25 N2 1_555 1_555
H9 C25 1_555 1_555
C26 H10 1_555 1_555
C27 N2 1_555 1_555
H11 C27 1_555 1_555
C28 C6 1_555 1_555
H12 C28 1_555 1_555
C29 C11 1_555 1_555
H13 C29 1_555 1_555
C30 N4 1_555 1_555
H14 C30 1_555 1_555
C31 C30 1_555 1_555
H15 C31 1_555 1_555
C32 C47 1_555 1_555
C33 C20 1_555 1_555
H16 C33 1_555 1_555
C34 H17 1_555 1_555
C35 N5 1_555 1_555
H18 C35 1_555 1_555
H19 C35 1_555 1_555
C36 C26 1_555 1_555
C37 H20 1_555 1_555
C38 C35 1_555 1_555
C39 C38 1_555 1_555
H21 C39 1_555 1_555
C40 C21 1_555 1_555
H22 C40 1_555 1_555
C41 N3 1_555 1_555
H23 C41 1_555 1_555
N8 C36 1_555 1_555
C42 N6 1_555 1_555
H24 C42 1_555 1_555
H25 C42 1_555 1_555
C43 C44 1_555 1_555
C44 C39 1_555 1_555
H26 C44 1_555 1_555
C45 C38 1_555 1_555
H27 C45 1_555 1_555
C46 C27 1_555 1_555
H28 C46 1_555 1_555
C47 N7 1_555 1_555
H29 C47 1_555 1_555
H30 C47 1_555 1_555
C48 C43 1_555 1_555
H31 C48 1_555 1_555
C49 N8 1_555 1_555
C50 C34 1_555 1_555
H32 C50 1_555 1_555
C51 C32 1_555 1_555
H33 C51 1_555 1_555
C52 C32 1_555 1_555
H34 C52 1_555 1_555
C53 C24 1_555 1_555
H35 C53 1_555 1_555
H36 O7 1_555 1_555
O12 H37 1_555 1_555
O14 H38 1_555 1_555
N1A C12A 1_555 1_555
C11A C17A 1_555 1_555
C12A H2A 1_555 1_555
C17A N1A 1_555 1_555
H7A C17A 1_555 1_555
C23A C12A 1_555 1_555
H8A C23A 1_555 1_555
N7A C11A 1_555 1_555
C29A C11A 1_555 1_555
H13A C29A 1_555 1_555
C32A C47A 1_555 1_555
C47A N7A 1_555 1_555
H29A C47A 1_555 1_555
H30A C47A 1_555 1_555
C51A C52 1_555 1_555
H33A C51A 1_555 1_555
C52A C51 1_555 1_555
H34A C52A 1_555 1_555
N4A C16A 1_555 1_555
N6A C20A 1_555 1_555
C16A H6A 1_555 1_555
C20A C16A 1_555 1_555
C24A C37A 1_555 1_555
C30A N4A 1_555 1_555
H14A C30A 1_555 1_555
C31A C30A 1_555 1_555
H15A C31A 1_555 1_555
C33A C20A 1_555 1_555
H16A C33A 1_555 1_555
C37A C53 1_555 1_555
H20A C37A 1_555 1_555
C42A N6A 1_555 1_555
H24A C42A 1_555 1_555
H25A C42A 1_555 1_555
C53A C37 1_555 1_555
H35A C53A 1_555 1_555
Co1A N1A 1_555 1_555
Co2A O5A 1_555 1_555
O1A C7A 1_555 1_555
O2A C8A 1_555 1_555
O3A Co1A 1_555 1_555
O4A C13A 1_555 1_555
O5A C3A 1_555 1_555
O6A C8A 1_555 1_555
O7A Co1A 1_555 1_555
O8A C2A 1_555 1_555
O9A C3A 1_555 1_555
C1A C5A 1_555 1_555
N2A Co2A 1_555 1_555
O10A C2A 1_555 1_555
O11A C4A 1_555 1_555
N3A C26A 1_555 1_555
C2A C19A 1_555 1_555
N5A C21A 1_555 1_555
C3A C5A 1_555 1_555
C4A O3A 1_555 1_555
C5A C15A 1_555 1_555
C6A C8A 1_555 1_555
C7A C15A 1_555 1_555
C9A C6A 1_555 1_555
H1A C9A 1_555 1_555
C10A C13A 1_555 1_555
C13A C28A 1_555 1_555
C14A O1A 1_555 1_555
H3A C14A 1_555 1_555
H4A C14A 1_555 1_555
C15A H5A 1_555 1_555
C18A C4A 1_555 1_555
C19A C1A 1_555 1_555
C21A C25A 1_555 1_555
C22A C7A 1_555 1_555
C25A N2A 1_555 1_555
H9A C25A 1_555 1_555
C26A H10A 1_555 1_555
C27A N2A 1_555 1_555
H11A C27A 1_555 1_555
C28A C6A 1_555 1_555
H12A C28A 1_555 1_555
C34A H17A 1_555 1_555
C35A N5A 1_555 1_555
H18A C35A 1_555 1_555
H19A C35A 1_555 1_555
C36A C26A 1_555 1_555
C38A C35A 1_555 1_555
C39A C38A 1_555 1_555
H21A C39A 1_555 1_555
C40A C21A 1_555 1_555
H22A C40A 1_555 1_555
C41A N3A 1_555 1_555
H23A C41A 1_555 1_555
N8A C36A 1_555 1_555
C43A C44A 1_555 1_555
C44A C39A 1_555 1_555
H26A C44A 1_555 1_555
C45A C38A 1_555 1_555
H27A C45A 1_555 1_555
C46A C27A 1_555 1_555
H28A C46A 1_555 1_555
C48A C43A 1_555 1_555
H31A C48A 1_555 1_555
C49A N8A 1_555 1_555
C50A C34A 1_555 1_555
H32A C50A 1_555 1_555
H36A O7A 1_555 1_555
Co1_2 O2 1_555 1_555
Co1_3 N3A 1_555 1_555
Co1A_2 N3 1_555 1_555
Co1A_3 O2A 1_555 1_555
Co2_2 O8 1_555 1_555
Co2A_2 O8A 1_555 1_555
Co2A_3 N4A 1_555 1_555
O2_2 Co1 1_555 1_555
O2A_2 Co1A 1_555 1_555
O6_2 Co1 1_555 1_555
O6A_2 Co1A 1_555 1_555
O8_2 Co2 1_555 1_555
O8A_2 Co2A 1_555 1_555
O10_2 Co2 1_555 1_555
O10A_2 Co2A 1_555 1_555
N3_2 Co1A 1_555 1_555
N3A_2 Co1 1_555 1_555
N4A_2 Co2A 1_555 1_555
O4 C14 1_555 1_555
O6 Co1_2 1_555 1_555
O10 Co2_2 1_555 1_555
C10 C18 1_555 1_555
C19 C22 1_555 1_555
C23 C29 1_555 1_555
C24 C42 1_555 1_555
C31 C33 1_555 1_555
C34 C36 1_555 1_555
C40 C46 1_555 1_555
C41 C50 1_555 1_555
C43 C49 1_555 1_555
C45 C48 1_555 1_555
C23A C29A 1_555 1_555
C32A C51A 1_555 1_555
C32A C52A 1_555 1_555
C24A C42A 1_555 1_555
C24A C53A 1_555 1_555
C31A C33A 1_555 1_555
O4A C14A 1_555 1_555
O6A Co1A_3 1_555 1_555
O10A Co2A_2 1_555 1_555
C9A C18A 1_555 1_555
C10A C18A 1_555 1_555
C19A C22A 1_555 1_555
C34A C36A 1_555 1_555
C40A C46A 1_555 1_555
C41A C50A 1_555 1_555
C43A C49A 1_555 1_555
C45A C48A 1_555 1_555

#END
