
#######################################################################
#
#                 Cambridge Crystallographic Data Centre
#                                CCDC 
#
#######################################################################
#
# If this CIF has been generated from an entry in the Cambridge 
# Structural Database, then it will include bibliographic, chemical, 
# crystal, experimental, refinement or atomic coordinate data resulting 
# from the CCDC's data processing and validation procedures.
#
#######################################################################

data_LOVRAP
_symmetry_cell_setting           triclinic
_symmetry_space_group_name_H-M   'P 1'
_symmetry_Int_Tables_number      1
_space_group_name_Hall           'P 1'
loop_
_symmetry_equiv_pos_site_id
_symmetry_equiv_pos_as_xyz
1 x,y,z
_cell_length_a                   7.615(2)
_cell_length_b                   10.427(2)
_cell_length_c                   11.129(2)
_cell_angle_alpha                86.29(3)
_cell_angle_beta                 78.87(3)
_cell_angle_gamma                71.13(3)
_cell_volume                     820.439
loop_
_atom_site_label
_atom_site_type_symbol
_atom_site_fract_x
_atom_site_fract_y
_atom_site_fract_z
Cd1 Cd 0.012983(4) -0.002600(4) -0.018390(4)
O1 O 0.1642(6) 0.0781(5) 0.1066(4)
O2 O -0.0992(7) 0.0446(6) 0.2059(5)
O3 O -0.0061(8) 0.7860(5) 0.0668(5)
O4 O 0.4878(9) 0.5397(7) 0.1413(8)
O5 O 0.0554(8) -0.1311(6) -0.2037(5)
O6 O 0.3098(7) -0.1322(5) -0.1318(5)
O7 O 0.9589(8) -0.7567(6) -0.1039(6)
O8 O 0.5865(8) -0.9589(5) -0.0156(6)
N1 N 0.2164(7) 0.2085(4) 0.2976(4)
H7 H 0.3211(7) 0.1635(4) 0.3202(4)
N2 N 0.0269(7) 0.4024(5) 0.2184(5)
N3 N -0.1671(8) 0.5973(6) 0.1464(8)
H8 H -0.2574(8) 0.5628(6) 0.1639(8)
H9 H -0.1873(8) 0.6771(6) 0.1147(8)
N4 N 0.1509(10) 0.7103(6) 0.0915(6)
N5 N 0.3558(7) 0.3742(5) 0.2157(5)
N6 N 0.5216(8) -0.3829(5) -0.2385(5)
H10 H 0.6096(8) -0.3461(5) -0.2527(5)
N7 N 0.7038(8) -0.8934(5) -0.0463(5)
N8 N 0.3181(8) -0.7422(7) -0.0748(7)
H11 H 0.2065(8) -0.6975(7) -0.0873(7)
H12 H 0.3399(8) -0.8217(7) -0.0425(7)
N9 N 0.7384(8) -0.5649(6) -0.1583(6)
N10 N 0.4187(7) -0.5629(5) -0.1565(4)
S1 S -0.2258(6) 0.2511(3) 0.5801(2)
S2 S 0.2368(7) -0.4671(4) -0.4940(3)
C1 C 0.0414(9) 0.0858(5) 0.2023(5)
C2 C 0.0575(8) 0.1524(5) 0.3185(5)
H13 H -0.0586(8) 0.2289(5) 0.3394(5)
C3 C 0.0700(11) 0.0566(6) 0.4307(6)
H14 H 0.1984(11) -0.0043(6) 0.4240(6)
H15 H -0.0114(11) 0.0019(6) 0.4299(6)
C4 C 0.0129(19) 0.1323(10) 0.5532(7)
H16 H 0.1006(19) 0.1815(10) 0.5561(7)
H17 H 0.0249(19) 0.0663(10) 0.6192(7)
C5 C -0.3725(26) 0.1401(20) 0.5953(13)
H18 H -0.5033(26) 0.1940(20) 0.6096(13)
H19 H -0.3472(26) 0.0791(20) 0.6629(13)
H20 H -0.3439(26) 0.0889(20) 0.5213(13)
C6 C 0.1966(8) 0.3310(5) 0.2427(5)
C7 C 0.0031(8) 0.5277(5) 0.1683(5)
C8 C 0.1585(8) 0.5847(5) 0.1385(5)
C9 C 0.3451(10) 0.5036(6) 0.1632(6)
C10 C 0.5367(11) 0.2907(8) 0.2487(9)
H21 H 0.6292(11) 0.3362(8) 0.2236(9)
H22 H 0.5784(11) 0.2047(8) 0.2081(9)
H23 H 0.5203(11) 0.2769(8) 0.3357(9)
C11 C 0.3402(9) -0.3097(5) -0.2755(5)
H24 H 0.2633(9) -0.3704(5) -0.2659(5)
C12 C 0.2304(9) -0.1820(5) -0.1975(5)
C13 C 0.4163(18) -0.3857(11) -0.5033(8)
H25 H 0.5323(18) -0.4543(11) -0.4902(8)
H26 H 0.4394(18) -0.3515(11) -0.5860(8)
C14 C 0.3738(14) -0.2670(7) -0.4128(6)
H27 H 0.2627(14) -0.1950(7) -0.4287(6)
H28 H 0.4789(14) -0.2313(7) -0.4281(6)
C15 C 0.0417(27) -0.3288(21) -0.5351(15)
H29 H -0.0642(27) -0.3601(21) -0.5337(15)
H30 H 0.0789(27) -0.2970(21) -0.6159(15)
H31 H 0.0071(27) -0.2562(21) -0.4776(15)
C16 C 0.6454(8) -0.7635(5) -0.0858(5)
C17 C 0.7949(8) -0.7008(6) -0.1166(6)
C18 C 0.4583(8) -0.6878(6) -0.1059(5)
C19 C 0.8899(13) -0.5019(12) -0.1977(17)
H32 H 1.0025(13) -0.5563(12) -0.1694(17)
H33 H 0.8499(13) -0.4126(12) -0.1636(17)
H34 H 0.9153(13) -0.4962(12) -0.2854(17)
C20 C 0.5563(9) -0.5055(6) -0.1832(6)
O3_2 O -0.0061(8) -0.2140(5) 0.0668(5)
O7_2 O -0.0411(8) 0.2433(6) -0.1039(6)
N7_2 N -0.2962(8) 0.1066(5) -0.0463(5)
Cd1_2 Cd 0.012983(4) 0.997400(4) -0.018390(4)
Cd1_3 Cd 1.012983(4) -1.002600(4) -0.018390(4)
O9 O 0.5620(10) 0.9677(7) 0.3137(7)
H1 H 0.6809(10) 0.9824(7) 0.3108(7)
H2 H 0.4665(10) 1.0295(7) 0.3709(7)
O10 O 0.7148(12) 0.8216(7) 0.7568(8)
H3 H 0.8395(12) 0.7870(7) 0.7758(8)
H4 H 0.6235(12) 0.8406(7) 0.8315(8)
O11 O 0.4697(70) 0.8225(24) 0.1586(76)
H5 H 0.3566(65) 0.8688(54) 0.1239(59)
O12? O 0.4977(65) 0.8153(54) 0.1198(59)
H6? H 0.5710(65) 0.8217(54) 0.0637(59)
loop_
_geom_bond_atom_site_label_1
_geom_bond_atom_site_label_2
_geom_bond_site_symmetry_1
_geom_bond_site_symmetry_2
Cd1 O1 1_555 1_555
O1 C1 1_555 1_555
O2 Cd1 1_555 1_555
O3 N4 1_555 1_555
O4 C9 1_555 1_555
O5 Cd1 1_555 1_555
O6 Cd1 1_555 1_555
O7 C17 1_555 1_555
O8 N7 1_555 1_555
O9 H1 1_555 1_555
H2 O9 1_555 1_555
O10 H3 1_555 1_555
H4 O10 1_555 1_555
O11 H5 1_555 1_555
N1 H7 1_555 1_555
N2 C6 1_555 1_555
N3 H8 1_555 1_555
H9 N3 1_555 1_555
N4 C8 1_555 1_555
N5 C6 1_555 1_555
N6 H10 1_555 1_555
N7 C16 1_555 1_555
N8 H11 1_555 1_555
H12 N8 1_555 1_555
N9 C17 1_555 1_555
N10 C18 1_555 1_555
S1 C4 1_555 1_555
S2 C13 1_555 1_555
C1 O2 1_555 1_555
C2 N1 1_555 1_555
H13 C2 1_555 1_555
C3 C2 1_555 1_555
H14 C3 1_555 1_555
H15 C3 1_555 1_555
C4 C3 1_555 1_555
H16 C4 1_555 1_555
H17 C4 1_555 1_555
C5 S1 1_555 1_555
H18 C5 1_555 1_555
H19 C5 1_555 1_555
H20 C5 1_555 1_555
C6 N1 1_555 1_555
C7 N2 1_555 1_555
C8 C7 1_555 1_555
C9 N5 1_555 1_555
C10 N5 1_555 1_555
H21 C10 1_555 1_555
H22 C10 1_555 1_555
H23 C10 1_555 1_555
C11 N6 1_555 1_555
H24 C11 1_555 1_555
C12 O5 1_555 1_555
C13 H25 1_555 1_555
H26 C13 1_555 1_555
C14 C11 1_555 1_555
H27 C14 1_555 1_555
H28 C14 1_555 1_555
C15 S2 1_555 1_555
H29 C15 1_555 1_555
H30 C15 1_555 1_555
H31 C15 1_555 1_555
C16 C17 1_555 1_555
C18 N8 1_555 1_555
C19 N9 1_555 1_555
H32 C19 1_555 1_555
H33 C19 1_555 1_555
H34 C19 1_555 1_555
C20 N6 1_555 1_555
O3_2 Cd1 1_555 1_555
O7_2 Cd1 1_555 1_555
N7_2 Cd1 1_555 1_555
Cd1_2 O3 1_555 1_555
Cd1_3 O7 1_555 1_555
O6 C12 1_555 1_555
N3 C7 1_555 1_555
N7 Cd1_3 1_555 1_555
N9 C20 1_555 1_555
N10 C20 1_555 1_555
C1 C2 1_555 1_555
C8 C9 1_555 1_555
C11 C12 1_555 1_555
C13 C14 1_555 1_555
C16 C18 1_555 1_555

#END
