
#######################################################################
#
#                 Cambridge Crystallographic Data Centre
#                                CCDC 
#
#######################################################################
#
# If this CIF has been generated from an entry in the Cambridge 
# Structural Database, then it will include bibliographic, chemical, 
# crystal, experimental, refinement or atomic coordinate data resulting 
# from the CCDC's data processing and validation procedures.
#
#######################################################################

data_LOVSOG
_symmetry_cell_setting           monoclinic
_symmetry_space_group_name_H-M   'P 21/c'
_symmetry_Int_Tables_number      14
_space_group_name_Hall           '-P 2ybc'
loop_
_symmetry_equiv_pos_site_id
_symmetry_equiv_pos_as_xyz
1 x,y,z
2 -x,1/2+y,1/2-z
3 -x,-y,-z
4 x,1/2-y,1/2+z
_cell_length_a                   13.187(3)
_cell_length_b                   10.817(2)
_cell_length_c                   12.567(3)
_cell_angle_alpha                90
_cell_angle_beta                 96.40(3)
_cell_angle_gamma                90
_cell_volume                     1781.43
loop_
_atom_site_label
_atom_site_type_symbol
_atom_site_fract_x
_atom_site_fract_y
_atom_site_fract_z
O1 O 0.1759(7) 0.6065(6) 0.1487(6)
H1 H 0.1182 0.6349 0.1229
H2 H 0.2073 0.5788 0.0982
Tb1 Tb 0.43748(2) 0.07780(2) 0.61959(2)
Tb2 Tb 0.45141(2) -0.08622(2) 0.86673(2)
Tb3 Tb 0.44279(2) 0.25454(2) 0.36880(2)
O2 O 0.2791(4) 0.2329(4) 0.4216(4)
O3 O 0.2614(4) 0.1032(4) 0.5556(4)
O4 O 0.2830(4) 0.6419(4) 0.3828(4)
O5 O 0.2499(5) 0.8413(5) 0.4036(6)
O6 O 0.3514(4) 0.0780(3) 0.7755(3)
H3 H 0.3047 0.0810 0.8169
O7 O 0.5382(3) 0.2240(4) 0.5395(3)
H4 H 0.5580 0.2708 0.4916
O8 O 0.4192(4) 0.0701(3) 0.9893(3)
H5 H 0.3945 0.0034 1.0112
O9 O 0.5383(4) 0.0862(4) 0.7918(3)
H6 H 0.5943 0.1024 0.8296
O10 O 0.4170(4) -0.1321(3) 0.6759(3)
H7 H 0.4073 -0.2084 0.6619
O11 O 0.4114(4) 0.2945(4) 0.6872(3)
H8 H 0.4235 0.3495 0.7353
O12 O 0.4213(4) 0.0409(4) 0.4244(3)
H9 H 0.3640 0.0103 0.4002
N1 N 0.1491(5) 0.5873(5) 0.5310(5)
N2 N 0.1739(6) 0.3957(6) 0.5929(5)
N3 N 0.0811(5) 0.2878(5) 0.3907(5)
N4 N 0.0690(6) 0.4743(6) 0.3173(5)
C1 C 0.0982(6) 0.4116(6) 0.4058(5)
C2 C 0.0404(7) 0.2736(7) 0.2880(6)
H10 H 0.0219 0.1992 0.2541
C3 C 0.0316(8) 0.3876(7) 0.2434(6)
H11 H 0.0044 0.4045 0.1734
C4 C 0.2033(7) 0.4796(8) 0.6729(6)
H12 H 0.2293 0.4588 0.7424
C5 C 0.1890(7) 0.5962(7) 0.6360(6)
H13 H 0.2035 0.6687 0.6746
C6 C 0.1417(6) 0.4629(6) 0.5074(5)
C7 C 0.1121(6) 0.1868(6) 0.4632(6)
H14 H 0.0826 0.1103 0.4337
H15 H 0.0859 0.2012 0.5313
C8 C 0.2269(5) 0.1736(5) 0.4815(5)
C9 C 0.1321(6) 0.6939(6) 0.4585(6)
H16 H 0.0798 0.6735 0.4006
H17 H 0.1081 0.7635 0.4974
C10 C 0.2301(7) 0.7304(7) 0.4118(6)
Tb1B Tb 0.56252(2) -0.07780(2) 0.38041(2)
Tb2A Tb 0.54859(2) 0.41378(2) 0.63327(2)
Tb2B Tb 0.54859(2) 0.08622(2) 1.13327(2)
Tb2C Tb 0.45141(2) 0.58622(2) 0.36673(2)
Tb3B Tb 0.55721(2) -0.25454(2) 0.63120(2)
Tb3C Tb 0.44279(2) 0.24546(2) 0.86880(2)
O4C O 0.2830(4) -0.1419(4) 0.8828(4)
O6C O 0.3514(4) 0.4220(3) 0.2755(3)
O7A O 0.4618(3) -0.2760(4) 0.9605(3)
O8B O 0.5808(4) -0.0701(3) 1.0107(3)
O8C O 0.4192(4) 0.4299(3) 0.4893(3)
O9C O 0.5383(4) 0.4138(4) 0.2918(3)
O10B O 0.5830(4) 0.1321(3) 0.3241(3)
O11A O 0.5886(4) -0.2055(4) 0.8128(3)
O11C O 0.4114(4) 0.2055(4) 0.1872(3)
O12B O 0.5787(4) -0.0409(4) 0.5756(3)
loop_
_geom_bond_atom_site_label_1
_geom_bond_atom_site_label_2
_geom_bond_site_symmetry_1
_geom_bond_site_symmetry_2
O1 H1 1_555 1_555
H2 O1 1_555 1_555
Tb1 O3 1_555 1_555
Tb2 O6 1_555 1_555
Tb3 O2 1_555 1_555
O2 C8 1_555 1_555
O3 C8 1_555 1_555
O4 C10 1_555 1_555
O5 C10 1_555 1_555
O6 Tb1 1_555 1_555
H3 O6 1_555 1_555
O7 Tb1 1_555 1_555
H4 O7 1_555 1_555
O8 Tb2 1_555 1_555
H5 O8 1_555 1_555
O9 Tb1 1_555 1_555
H6 O9 1_555 1_555
O10 Tb1 1_555 1_555
H7 O10 1_555 1_555
O11 Tb1 1_555 1_555
H8 O11 1_555 1_555
O12 Tb1 1_555 1_555
H9 O12 1_555 1_555
N1 C5 1_555 1_555
N2 C4 1_555 1_555
N3 C1 1_555 1_555
N4 C1 1_555 1_555
C1 C6 1_555 1_555
C2 N3 1_555 1_555
H10 C2 1_555 1_555
C3 N4 1_555 1_555
H11 C3 1_555 1_555
C4 H12 1_555 1_555
C5 C4 1_555 1_555
H13 C5 1_555 1_555
C6 N1 1_555 1_555
C7 N3 1_555 1_555
H14 C7 1_555 1_555
H15 C7 1_555 1_555
C8 C7 1_555 1_555
C9 N1 1_555 1_555
H16 C9 1_555 1_555
H17 C9 1_555 1_555
C10 C9 1_555 1_555
Tb1B O12 1_555 1_555
Tb2A O7 1_555 1_555
Tb2B O8 1_555 1_555
Tb2C O4 1_555 1_555
Tb3B O10 1_555 1_555
Tb3C O6 1_555 1_555
O4C Tb2 1_555 1_555
O6C Tb3 1_555 1_555
O7A Tb2 1_555 1_555
O8B Tb2 1_555 1_555
O8C Tb3 1_555 1_555
O9C Tb3 1_555 1_555
O10B Tb3 1_555 1_555
O11A Tb2 1_555 1_555
O11C Tb3 1_555 1_555
O12B Tb1 1_555 1_555
Tb2 O9 1_555 1_555
Tb2 O10 1_555 1_555
Tb3 O7 1_555 1_555
Tb3 O12 1_555 1_555
O8 Tb3C 1_555 1_555
O9 Tb3C 1_555 1_555
O11 Tb2A 1_555 1_555
O11 Tb3C 1_555 1_555
N2 C6 1_555 1_555
C2 C3 1_555 1_555
Tb1B O10B 1_555 1_555
Tb1B O12B 1_555 1_555
Tb2A O8C 1_555 1_555
Tb2B O8B 1_555 1_555
Tb2C O6C 1_555 1_555
Tb2C O8C 1_555 1_555
Tb2C O9C 1_555 1_555
Tb3B O11A 1_555 1_555
Tb3B O12B 1_555 1_555

#END
