
#######################################################################
#
#                 Cambridge Crystallographic Data Centre
#                                CCDC 
#
#######################################################################
#
# If this CIF has been generated from an entry in the Cambridge 
# Structural Database, then it will include bibliographic, chemical, 
# crystal, experimental, refinement or atomic coordinate data resulting 
# from the CCDC's data processing and validation procedures.
#
#######################################################################

data_LOVSUK
_symmetry_cell_setting           triclinic
_symmetry_space_group_name_H-M   'P -1'
_symmetry_Int_Tables_number      2
_space_group_name_Hall           '-P 1'
loop_
_symmetry_equiv_pos_site_id
_symmetry_equiv_pos_as_xyz
1 x,y,z
2 -x,-y,-z
_cell_length_a                   5.728(4)
_cell_length_b                   8.023(6)
_cell_length_c                   12.491(6)
_cell_angle_alpha                75.05(6)
_cell_angle_beta                 81.27(5)
_cell_angle_gamma                71.30(6)
_cell_volume                     523.827
loop_
_atom_site_label
_atom_site_type_symbol
_atom_site_fract_x
_atom_site_fract_y
_atom_site_fract_z
Cu1 Cu -0.0726(4) 0.0178(4) 0.1868(3)
Cu2 Cu -0.0268(4) 0.3101(3) 0.2697(2)
S1 S -0.2158(8) 0.0892(7) 0.3866(5)
S2 S 0.1155(8) 0.2444(7) 0.0811(4)
N1 N 0.6141(25) 0.0772(22) 0.1259(13)
N2 N -0.7115(25) 0.2562(19) 0.3315(13)
C1 C -0.5034(36) 0.1861(25) 0.3574(18)
C2 C 0.4113(33) 0.1382(23) 0.1081(16)
N3 N 0.6804(26) -0.4724(18) 0.2425(14)
N4 N 0.2223(25) -0.2055(19) 0.2214(14)
C3 C 0.5873(29) -0.3629(22) 0.3170(16)
C4 C 0.7399(35) -0.3887(28) 0.4082(17)
H1 H 0.726(19) -0.493(11) 0.4646(52)
H2 H 0.684(16) -0.2838(79) 0.4394(74)
H3 H 0.9096(50) -0.407(18) 0.3800(27)
C5 C 0.3608(30) -0.2297(23) 0.3045(17)
H4 H 0.3044(30) -0.1557(23) 0.3551(17)
C6 C 0.3042(31) -0.3077(24) 0.1514(19)
H5 H 0.2097(31) -0.2929(24) 0.0935(19)
C7 C 0.5264(36) -0.4367(24) 0.1609(17)
H6 H 0.5774(36) -0.5060(24) 0.1077(17)
N2_2 N 0.2885(25) 0.2562(19) 0.3315(13)
N1_2 N -0.3859(25) 0.0772(22) 0.1259(13)
Cu2_2 Cu -1.0268(4) 0.3101(3) 0.2697(2)
Cu1_2 Cu 0.9274(4) 0.0178(4) 0.1868(3)
N3_2 N -0.3196(26) 0.5276(18) 0.2425(14)
Cu2_3 Cu 0.9732(4) -0.6899(3) 0.2697(2)
loop_
_geom_bond_atom_site_label_1
_geom_bond_atom_site_label_2
_geom_bond_site_symmetry_1
_geom_bond_site_symmetry_2
Cu1 S1 1_555 1_555
Cu2 S1 1_555 1_555
S1 C1 1_555 1_555
S2 Cu1 1_555 1_555
N1 C2 1_555 1_555
N2 C1 1_555 1_555
C2 S2 1_555 1_555
N3 C3 1_555 1_555
N4 Cu1 1_555 1_555
C3 C4 1_555 1_555
C4 H1 1_555 1_555
H2 C4 1_555 1_555
H3 C4 1_555 1_555
C5 N4 1_555 1_555
H4 C5 1_555 1_555
C6 N4 1_555 1_555
H5 C6 1_555 1_555
C7 N3 1_555 1_555
H6 C7 1_555 1_555
N2_2 Cu2 1_555 1_555
N1_2 Cu1 1_555 1_555
Cu2_2 N2 1_555 1_555
Cu1_2 N1 1_555 1_555
N3_2 Cu2 1_555 1_555
Cu2_3 N3 1_555 1_555
Cu2 S2 1_555 1_555
C3 C5 1_555 1_555
C6 C7 1_555 1_555

#END
