
#######################################################################
#
#                 Cambridge Crystallographic Data Centre
#                                CCDC 
#
#######################################################################
#
# If this CIF has been generated from an entry in the Cambridge 
# Structural Database, then it will include bibliographic, chemical, 
# crystal, experimental, refinement or atomic coordinate data resulting 
# from the CCDC's data processing and validation procedures.
#
#######################################################################

data_LOVSOE
_symmetry_cell_setting           monoclinic
_symmetry_space_group_name_H-M   'C m'
_symmetry_Int_Tables_number      8
_space_group_name_Hall           'C -2y'
loop_
_symmetry_equiv_pos_site_id
_symmetry_equiv_pos_as_xyz
1 x,y,z
2 x,-y,z
3 1/2+x,1/2+y,z
4 1/2+x,1/2-y,z
_cell_length_a                   5.576(3)
_cell_length_b                   19.473(6)
_cell_length_c                   6.039(5)
_cell_angle_alpha                90
_cell_angle_beta                 93.05(6)
_cell_angle_gamma                90
_cell_volume                     654.795
loop_
_atom_site_label
_atom_site_type_symbol
_atom_site_fract_x
_atom_site_fract_y
_atom_site_fract_z
Cu1 Cu 0.3987(4) 0.0000 0.4996(4)
N1 N 0.4995(34) 0.0000 0.1971(35)
S1 S 0.7028(10) 0.0000 -0.2183(10)
C1 C 0.5774(43) 0.0000 0.0307(48)
N2 N -0.1362(24) 0.1938(7) 0.6260(23)
N3 N 0.1820(19) 0.0862(6) 0.5420(21)
C2 C -0.1533(29) 0.1582(7) 0.4456(26)
C3 C -0.3554(31) 0.1735(9) 0.2792(32)
N4 N -0.5057(35) 0.1884(7) 0.1616(37)
C4 C 0.0014(23) 0.1044(7) 0.3991(22)
H1 H -0.0214(23) 0.0807(7) 0.2659(22)
C5 C 0.2042(29) 0.1249(9) 0.7307(28)
H2 H 0.3277(29) 0.1160(9) 0.8364(28)
C6 C 0.0386(31) 0.1787(9) 0.7653(35)
H3 H 0.0573(31) 0.2043(9) 0.8951(35)
N3A N 0.1820(19) -0.0862(6) 0.5420(21)
S1_2 S 0.7028(10) 0.0000 0.7817(10)
C4A C 0.0014(23) -0.1044(7) 0.3991(22)
C5A C 0.2042(29) -0.1249(9) 0.7307(28)
Cu1_2 Cu 0.3987(4) 0.0000 -0.5004(4)
C2A C -0.1533(29) -0.1582(7) 0.4456(26)
H1A H -0.0214(23) -0.0807(7) 0.2659(22)
H2A H 0.3277(29) -0.1160(9) 0.8364(28)
C6A C 0.0386(31) -0.1787(9) 0.7653(35)
N2A N -0.1362(24) -0.1938(7) 0.6260(23)
C3A C -0.3554(31) -0.1735(9) 0.2792(32)
H3A H 0.0573(31) -0.2043(9) 0.8951(35)
N4A N -0.5057(35) -0.1884(7) 0.1616(37)
loop_
_geom_bond_atom_site_label_1
_geom_bond_atom_site_label_2
_geom_bond_site_symmetry_1
_geom_bond_site_symmetry_2
Cu1 N1 1_555 1_555
N1 C1 1_555 1_555
S1 C1 1_555 1_555
N2 C2 1_555 1_555
N3 Cu1 1_555 1_555
C2 C3 1_555 1_555
C3 N4 1_555 1_555
C4 N3 1_555 1_555
H1 C4 1_555 1_555
C5 N3 1_555 1_555
H2 C5 1_555 1_555
C6 N2 1_555 1_555
H3 C6 1_555 1_555
N3A Cu1 1_555 1_555
S1_2 Cu1 1_555 1_555
C4A N3A 1_555 1_555
C5A N3A 1_555 1_555
Cu1_2 S1 1_555 1_555
C2A C4A 1_555 1_555
H1A C4A 1_555 1_555
H2A C5A 1_555 1_555
C6A C5A 1_555 1_555
N2A C2A 1_555 1_555
C3A C2A 1_555 1_555
H3A C6A 1_555 1_555
N4A C3A 1_555 1_555
C2 C4 1_555 1_555
C5 C6 1_555 1_555
C6A N2A 1_555 1_555

#END
