
#######################################################################
#
#                 Cambridge Crystallographic Data Centre
#                                CCDC 
#
#######################################################################
#
# If this CIF has been generated from an entry in the Cambridge 
# Structural Database, then it will include bibliographic, chemical, 
# crystal, experimental, refinement or atomic coordinate data resulting 
# from the CCDC's data processing and validation procedures.
#
#######################################################################

data_LOVTUN
_symmetry_cell_setting           monoclinic
_symmetry_space_group_name_H-M   'P 21/n'
_symmetry_Int_Tables_number      14
_space_group_name_Hall           '-P 2yn'
loop_
_symmetry_equiv_pos_site_id
_symmetry_equiv_pos_as_xyz
1 x,y,z
2 1/2-x,1/2+y,1/2-z
3 -x,-y,-z
4 1/2+x,1/2-y,1/2+z
_cell_length_a                   9.9286(5)
_cell_length_b                   16.0382(10)
_cell_length_c                   10.6658(5)
_cell_angle_alpha                90
_cell_angle_beta                 101.588(4)
_cell_angle_gamma                90
_cell_volume                     1663.77
loop_
_atom_site_label
_atom_site_type_symbol
_atom_site_fract_x
_atom_site_fract_y
_atom_site_fract_z
C1 C 0.2845(4) 0.0403(2) 0.6004(4)
H1 H 0.3504 0.0084 0.6612
H2 H 0.2347 0.0768 0.6477
C2 C 0.3584(4) 0.0915(3) 0.5148(4)
H3 H 0.4027 0.1391 0.5619
H4 H 0.4287 0.0578 0.4882
C3 C 0.3268(4) 0.1750(2) 0.3211(4)
H5 H 0.3863 0.1417 0.2793
H6 H 0.3835 0.2154 0.3754
C4 C 0.2225(5) 0.2208(2) 0.2201(4)
H7 H 0.2704 0.2556 0.1688
H8 H 0.1676 0.1807 0.1638
C5 C 0.3067(3) -0.01471(19) 0.1678(3)
C6 C 0.4048(3) -0.00977(19) 0.0778(3)
C7 C 0.5207(4) -0.0599(2) 0.0963(3)
H9 H 0.5344 -0.0999 0.1608
C8 C 0.3833(4) 0.0503(2) -0.0183(3)
H10 H 0.3054 0.0839 -0.0303
C9 C -0.1090(3) 0.10216(18) 0.2058(3)
C10 C -0.2120(3) 0.16720(18) 0.2255(3)
C11 C -0.2116(4) 0.1964(2) 0.3487(3)
H11 H -0.1518 0.1735 0.4186
C12 C -0.3010(4) 0.2598(2) 0.3665(3)
H12 H -0.3009 0.2793 0.4487
C13 C -0.3902(3) 0.29450(19) 0.2631(3)
C14 C -0.3925(4) 0.2632(2) 0.1403(3)
H13 H -0.4542 0.2848 0.0706
C15 C -0.3028(4) 0.2000(2) 0.1223(3)
H14 H -0.3040 0.1798 0.0404
C16 C -0.4751(3) 0.36934(18) 0.2835(3)
N1 N 0.2582(3) 0.12057(18) 0.4005(3)
O1 O 0.1917(3) -0.01409(17) 0.5209(2)
O2 O 0.1353(4) 0.2711(2) 0.2795(4)
H15 H 0.1459 0.3203 0.2629
O3 O 0.1897(2) 0.02119(14) 0.1385(2)
O4 O 0.3443(3) -0.04867(17) 0.2750(2)
O5 O -0.0987(3) 0.08560(14) 0.0936(2)
O6 O -0.0378(3) 0.06872(14) 0.3064(2)
O7 O -0.5611(3) 0.39508(14) 0.1872(2)
O8 O -0.4525(3) 0.40088(14) 0.3935(2)
Zn1 Zn 0.0000 0.0000 0.0000
Zn2 Zn 0.14573(4) 0.00925(2) 0.32309(3)
H16 H 0.195(6) 0.157(3) 0.434(5)
H17 H 0.124(6) -0.035(3) 0.568(5)
C5B C 0.6933(3) 0.01471(19) -0.1678(3)
C6B C 0.5952(3) 0.00977(19) -0.0778(3)
C7B C 0.4793(4) 0.0599(2) -0.0963(3)
H9B H 0.4656 0.0999 -0.1608
C8B C 0.6167(4) -0.0503(2) 0.0183(3)
H10B H 0.6946 -0.0839 0.0303
O3B O 0.8103(2) -0.02119(14) -0.1385(2)
O4B O 0.6557(3) 0.04867(17) -0.2750(2)
C1B C -0.2845(4) -0.0403(2) -0.6004(4)
H1B H -0.3504 -0.0084 -0.6612
H2B H -0.2347 -0.0768 -0.6477
C2B C -0.3584(4) -0.0915(3) -0.5148(4)
H3B H -0.4027 -0.1391 -0.5619
H4B H -0.4287 -0.0578 -0.4882
C3B C -0.3268(4) -0.1750(2) -0.3211(4)
H5B H -0.3863 -0.1417 -0.2793
H6B H -0.3835 -0.2154 -0.3754
C4B C -0.2225(5) -0.2208(2) -0.2201(4)
H7B H -0.2704 -0.2556 -0.1688
H8B H -0.1676 -0.1807 -0.1638
C9B C 0.1090(3) -0.10216(18) -0.2058(3)
C10B C 0.2120(3) -0.16720(18) -0.2255(3)
C11B C 0.2116(4) -0.1964(2) -0.3487(3)
H11B H 0.1518 -0.1735 -0.4186
C12B C 0.3010(4) -0.2598(2) -0.3665(3)
H12B H 0.3009 -0.2793 -0.4487
C13B C 0.3902(3) -0.29450(19) -0.2631(3)
C14B C 0.3925(4) -0.2632(2) -0.1403(3)
H13B H 0.4542 -0.2848 -0.0706
C15B C 0.3028(4) -0.2000(2) -0.1223(3)
H14B H 0.3040 -0.1798 -0.0404
C16B C 0.4751(3) -0.36934(18) -0.2835(3)
N1B N -0.2582(3) -0.12057(18) -0.4005(3)
O1B O -0.1917(3) 0.01409(17) -0.5209(2)
O2B O -0.1353(4) -0.2711(2) -0.2795(4)
H15B H -0.1459 -0.3203 -0.2629
O5B O 0.0987(3) -0.08560(14) -0.0936(2)
O6B O 0.0378(3) -0.06872(14) -0.3064(2)
O7B O 0.5611(3) -0.39508(14) -0.1872(2)
O8B O 0.4525(3) -0.40088(14) -0.3935(2)
Zn2B Zn -0.14573(4) -0.00925(2) -0.32309(3)
H16B H -0.195(6) -0.157(3) -0.434(5)
H17B H -0.124(6) 0.035(3) -0.568(5)
O3B_2 O -0.1897(2) -0.02119(14) -0.1385(2)
O4B_2 O -0.3443(3) 0.04867(17) -0.2750(2)
O7A O 0.0611(3) -0.10492(14) 0.3128(2)
O7C O -0.0611(3) 0.10492(14) -0.3128(2)
O8A O -0.0475(3) -0.09912(14) 0.1065(2)
O8C O 0.0475(3) 0.09912(14) -0.1065(2)
Zn1_2 Zn 1.0000 0.0000 0.0000
Zn1A Zn -0.5000 0.5000 0.5000
Zn1A_2 Zn 0.5000 -0.5000 -0.5000
Zn2A Zn -0.64573(4) 0.50925(2) 0.17691(3)
Zn2B_2 Zn 0.85427(4) -0.00925(2) -0.32309(3)
Zn2C Zn 0.64573(4) -0.50925(2) -0.17691(3)
loop_
_geom_bond_atom_site_label_1
_geom_bond_atom_site_label_2
_geom_bond_site_symmetry_1
_geom_bond_site_symmetry_2
C1 H1 1_555 1_555
H2 C1 1_555 1_555
C2 C1 1_555 1_555
H3 C2 1_555 1_555
H4 C2 1_555 1_555
C3 H5 1_555 1_555
H6 C3 1_555 1_555
C4 C3 1_555 1_555
H7 C4 1_555 1_555
H8 C4 1_555 1_555
C5 C6 1_555 1_555
C6 C7 1_555 1_555
C7 H9 1_555 1_555
C8 C6 1_555 1_555
H10 C8 1_555 1_555
C9 C10 1_555 1_555
C10 C11 1_555 1_555
C11 H11 1_555 1_555
C12 C11 1_555 1_555
H12 C12 1_555 1_555
C13 C12 1_555 1_555
C14 C13 1_555 1_555
H13 C14 1_555 1_555
C15 C10 1_555 1_555
H14 C15 1_555 1_555
C16 C13 1_555 1_555
N1 C2 1_555 1_555
O1 C1 1_555 1_555
O2 C4 1_555 1_555
H15 O2 1_555 1_555
O3 C5 1_555 1_555
O4 C5 1_555 1_555
O5 C9 1_555 1_555
O6 C9 1_555 1_555
O7 C16 1_555 1_555
O8 C16 1_555 1_555
Zn1 O3 1_555 1_555
Zn2 N1 1_555 1_555
H16 N1 1_555 1_555
H17 O1 1_555 1_555
C5B C6B 1_555 1_555
C6B C7B 1_555 1_555
C7B C8 1_555 1_555
H9B C7B 1_555 1_555
C8B C7 1_555 1_555
H10B C8B 1_555 1_555
O3B C5B 1_555 1_555
O4B C5B 1_555 1_555
C1B H1B 1_555 1_555
H2B C1B 1_555 1_555
C2B C1B 1_555 1_555
H3B C2B 1_555 1_555
H4B C2B 1_555 1_555
C3B H5B 1_555 1_555
H6B C3B 1_555 1_555
C4B C3B 1_555 1_555
H7B C4B 1_555 1_555
H8B C4B 1_555 1_555
C9B C10B 1_555 1_555
C10B C11B 1_555 1_555
C11B H11B 1_555 1_555
C12B C11B 1_555 1_555
H12B C12B 1_555 1_555
C13B C12B 1_555 1_555
C14B C13B 1_555 1_555
H13B C14B 1_555 1_555
C15B C10B 1_555 1_555
H14B C15B 1_555 1_555
C16B C13B 1_555 1_555
N1B C2B 1_555 1_555
O1B C1B 1_555 1_555
O2B C4B 1_555 1_555
H15B O2B 1_555 1_555
O5B Zn1 1_555 1_555
O6B C9B 1_555 1_555
O7B C16B 1_555 1_555
O8B C16B 1_555 1_555
Zn2B N1B 1_555 1_555
H16B N1B 1_555 1_555
H17B O1B 1_555 1_555
O3B_2 Zn1 1_555 1_555
O4B_2 Zn2B 1_555 1_555
O7A Zn2 1_555 1_555
O7C Zn2B 1_555 1_555
O8A Zn1 1_555 1_555
O8C Zn1 1_555 1_555
Zn1_2 O3B 1_555 1_555
Zn1A O8 1_555 1_555
Zn1A_2 O8B 1_555 1_555
Zn2A O7 1_555 1_555
Zn2B_2 O3B 1_555 1_555
Zn2C O7B 1_555 1_555
C3 N1 1_555 1_555
C14 C15 1_555 1_555
O1 Zn2 1_555 1_555
O3 Zn2 1_555 1_555
O4 Zn2 1_555 1_555
O5 Zn1 1_555 1_555
O6 Zn2 1_555 1_555
C6B C8B 1_555 1_555
O4B Zn2B_2 1_555 1_555
C3B N1B 1_555 1_555
C9B O5B 1_555 1_555
C14B C15B 1_555 1_555
O1B Zn2B 1_555 1_555
O6B Zn2B 1_555 1_555
Zn2B O3B_2 1_555 1_555

#END
