
#######################################################################
#
#                 Cambridge Crystallographic Data Centre
#                                CCDC 
#
#######################################################################
#
# If this CIF has been generated from an entry in the Cambridge 
# Structural Database, then it will include bibliographic, chemical, 
# crystal, experimental, refinement or atomic coordinate data resulting 
# from the CCDC's data processing and validation procedures.
#
#######################################################################

data_LOVTAR
_symmetry_cell_setting           orthorhombic
_symmetry_space_group_name_H-M   'A m a 2'
_symmetry_Int_Tables_number      40
_space_group_name_Hall           'A 2 -2a'
loop_
_symmetry_equiv_pos_site_id
_symmetry_equiv_pos_as_xyz
1 x,y,z
2 -x,-y,z
3 1/2+x,-y,z
4 1/2-x,y,z
5 x,1/2+y,1/2+z
6 -x,1/2-y,1/2+z
7 1/2+x,1/2-y,1/2+z
8 1/2-x,1/2+y,1/2+z
_cell_length_a                   17.622(4)
_cell_length_b                   9.022(2)
_cell_length_c                   7.5203(15)
_cell_angle_alpha                90
_cell_angle_beta                 90
_cell_angle_gamma                90
_cell_volume                     1195.62
loop_
_atom_site_label
_atom_site_type_symbol
_atom_site_fract_x
_atom_site_fract_y
_atom_site_fract_z
Cu1 Cu 0.2500 -0.67932(6) -0.51196(5)
S1 S 0.2500 -0.67794(14) -0.8261(2)
N1 N 0.2500 -0.3739(5) -0.9082(6)
C1 C 0.2500 -0.4997(5) -0.8708(6)
N2 N 0.1563(2) -0.5483(3) -0.4326(5)
N3 N 0.06681(15) -0.3668(3) -0.5062(5)
C2 C 0.1181(2) -0.4717(4) -0.5481(5)
H1 H 0.1267(2) -0.4907(4) -0.6679(5)
C3 C 0.0509(2) -0.3277(4) -0.3328(5)
O1 O 0.0050(2) -0.2255(4) -0.3053(4)
H2 H -0.0351(13) -0.2602(7) -0.2692(90)
C4 C 0.0896(2) -0.4151(4) -0.2031(6)
H3 H 0.0804(2) -0.4006(4) -0.0825(6)
C5 C 0.1398(2) -0.5190(4) -0.2575(5)
H4 H 0.1647(2) -0.5743(4) -0.1709(5)
N2C N 0.3437(2) -0.5483(3) -0.4326(5)
N1D N 0.2500 -0.8739(5) -0.4082(6)
C2C C 0.3819(2) -0.4717(4) -0.5481(5)
C5C C 0.3602(2) -0.5190(4) -0.2575(5)
Cu1D Cu 0.2500 -0.17932(6) -1.01196(5)
N3C N 0.43319(15) -0.3668(3) -0.5062(5)
H1C H 0.3733(2) -0.4907(4) -0.6679(5)
C4C C 0.4104(2) -0.4151(4) -0.2031(6)
H4C H 0.3353(2) -0.5743(4) -0.1709(5)
C3C C 0.4491(2) -0.3277(4) -0.3328(5)
H3C H 0.4196(2) -0.4006(4) -0.0825(6)
O1C O 0.4950(2) -0.2255(4) -0.3053(4)
H2C H 0.5351(13) -0.2602(7) -0.2692(90)
loop_
_geom_bond_atom_site_label_1
_geom_bond_atom_site_label_2
_geom_bond_site_symmetry_1
_geom_bond_site_symmetry_2
Cu1 S1 1_555 1_555
S1 C1 1_555 1_555
N1 C1 1_555 1_555
N2 Cu1 1_555 1_555
N3 C2 1_555 1_555
C2 N2 1_555 1_555
H1 C2 1_555 1_555
C3 N3 1_555 1_555
O1 C3 1_555 1_555
H2 O1 1_555 1_555
C4 C3 1_555 1_555
H3 C4 1_555 1_555
C5 N2 1_555 1_555
H4 C5 1_555 1_555
N2C Cu1 1_555 1_555
N1D Cu1 1_555 1_555
C2C N2C 1_555 1_555
C5C N2C 1_555 1_555
Cu1D N1 1_555 1_555
N3C C2C 1_555 1_555
H1C C2C 1_555 1_555
C4C C5C 1_555 1_555
H4C C5C 1_555 1_555
C3C N3C 1_555 1_555
H3C C4C 1_555 1_555
O1C C3C 1_555 1_555
H2C O1C 1_555 1_555
C4 C5 1_555 1_555
C4C C3C 1_555 1_555

#END
