
#######################################################################
#
#                 Cambridge Crystallographic Data Centre
#                                CCDC 
#
#######################################################################
#
# If this CIF has been generated from an entry in the Cambridge 
# Structural Database, then it will include bibliographic, chemical, 
# crystal, experimental, refinement or atomic coordinate data resulting 
# from the CCDC's data processing and validation procedures.
#
#######################################################################

data_LOVTOF
_symmetry_cell_setting           monoclinic
_symmetry_space_group_name_H-M   'P c'
_symmetry_Int_Tables_number      7
_space_group_name_Hall           'P -2yc'
loop_
_symmetry_equiv_pos_site_id
_symmetry_equiv_pos_as_xyz
1 x,y,z
2 x,-y,1/2+z
_cell_length_a                   3.824(2)
_cell_length_b                   8.616(5)
_cell_length_c                   20.919(6)
_cell_angle_alpha                90
_cell_angle_beta                 90.12(5)
_cell_angle_gamma                90
_cell_volume                     689.229
loop_
_atom_site_label
_atom_site_type_symbol
_atom_site_fract_x
_atom_site_fract_y
_atom_site_fract_z
Cu1 Cu -0.4268(9) -0.3237(4) 1.40288(14)
Cu2 Cu -0.9238(10) -0.7359(3) 1.4309(2)
Cu3 Cu 0.0733(10) -0.5560(4) 1.16227(14)
S1 S -0.9266(19) -0.4689(6) 1.4366(3)
S2 S -0.4256(18) 0.1804(7) 1.4898(3)
S3 S -0.4307(23) -0.3911(8) 1.1777(3)
N1 N -0.9255(82) -0.4191(28) 1.5712(12)
N2 N -0.4155(58) -0.1254(20) 1.4471(10)
N3 N -0.4230(66) -0.3416(24) 1.3113(9)
C1 C -0.9250(70) -0.4416(29) 1.5174(13)
C2 C -0.4237(66) -0.0038(28) 1.4637(11)
C3 C -0.4331(76) -0.3661(28) 1.2579(12)
N4 N -0.9248(55) -0.8068(20) 1.3378(8)
N5 N -0.9177(55) -0.7407(25) 1.2270(9)
C4 C -0.9229(85) -0.7040(27) 1.2909(11)
H1 H -0.9253(85) -0.5994(27) 1.3019(11)
C5 C -0.9299(81) -0.8864(30) 1.2103(10)
C6 C -0.881(11) -0.9290(32) 1.1406(13)
H2 H -1.095(23) -0.911(28) 1.1177(27)
H3 H -0.699(47) -0.866(22) 1.1225(35)
H4 H -0.817(67) -1.0365(89) 1.1374(15)
C7 C -0.9294(67) -0.9958(25) 1.2563(13)
H5 H -0.9317(67) -1.0999(25) 1.2445(13)
C8 C -0.9259(70) -0.9582(23) 1.3204(11)
H6 H -0.9242(70) -1.0359(23) 1.3512(11)
S1_2 S 0.0734(19) -0.4689(6) 1.4366(3)
S2_2 S -0.4256(18) -0.8196(7) 1.4898(3)
Cu1_2 Cu -1.4268(9) -0.3237(4) 1.40288(14)
S2_3 S -1.4256(18) -0.8196(7) 1.4898(3)
Cu3_2 Cu -0.9267(10) -0.5560(4) 1.16227(14)
Cu3A Cu -0.9267(10) -0.4440(4) 1.66227(14)
Cu2_2 Cu -0.9238(10) 0.2641(3) 1.4309(2)
Cu2_3 Cu 0.0762(10) 0.2641(3) 1.4309(2)
S3_2 S 0.5693(23) -0.3911(8) 1.1777(3)
N1A N 0.0745(82) -0.5809(28) 1.0712(12)
N5_2 N 0.0823(55) -0.7407(25) 1.2270(9)
loop_
_geom_bond_atom_site_label_1
_geom_bond_atom_site_label_2
_geom_bond_site_symmetry_1
_geom_bond_site_symmetry_2
Cu1 S1 1_555 1_555
Cu2 S1 1_555 1_555
Cu3 S3 1_555 1_555
S1 C1 1_555 1_555
S2 C2 1_555 1_555
S3 C3 1_555 1_555
N1 C1 1_555 1_555
N2 Cu1 1_555 1_555
N3 Cu1 1_555 1_555
C2 N2 1_555 1_555
C3 N3 1_555 1_555
N4 Cu2 1_555 1_555
N5 C4 1_555 1_555
C4 N4 1_555 1_555
H1 C4 1_555 1_555
C5 N5 1_555 1_555
C6 C5 1_555 1_555
H2 C6 1_555 1_555
H3 C6 1_555 1_555
H4 C6 1_555 1_555
C7 C5 1_555 1_555
H5 C7 1_555 1_555
C8 N4 1_555 1_555
H6 C8 1_555 1_555
S1_2 Cu1 1_555 1_555
S2_2 Cu2 1_555 1_555
Cu1_2 S1 1_555 1_555
S2_3 Cu2 1_555 1_555
Cu3_2 S3 1_555 1_555
Cu3A N1 1_555 1_555
Cu2_2 S2 1_555 1_555
Cu2_3 S2 1_555 1_555
S3_2 Cu3 1_555 1_555
N1A Cu3 1_555 1_555
N5_2 Cu3 1_555 1_555
N5 Cu3_2 1_555 1_555
C7 C8 1_555 1_555

#END
