
#######################################################################
#
#                 Cambridge Crystallographic Data Centre
#                                CCDC 
#
#######################################################################
#
# If this CIF has been generated from an entry in the Cambridge 
# Structural Database, then it will include bibliographic, chemical, 
# crystal, experimental, refinement or atomic coordinate data resulting 
# from the CCDC's data processing and validation procedures.
#
#######################################################################

data_LOVZIH
_symmetry_cell_setting           monoclinic
_symmetry_space_group_name_H-M   'C c'
_symmetry_Int_Tables_number      9
_space_group_name_Hall           'C -2yc'
loop_
_symmetry_equiv_pos_site_id
_symmetry_equiv_pos_as_xyz
1 x,y,z
2 x,-y,1/2+z
3 1/2+x,1/2+y,z
4 1/2+x,1/2-y,1/2+z
_cell_length_a                   16.951(2)
_cell_length_b                   20.589(3)
_cell_length_c                   25.375(4)
_cell_angle_alpha                90
_cell_angle_beta                 96.243(2)
_cell_angle_gamma                90
_cell_volume                     8803.46
loop_
_atom_site_label
_atom_site_type_symbol
_atom_site_fract_x
_atom_site_fract_y
_atom_site_fract_z
Zn1 Zn 0.60063(5) 0.25933(4) 0.08208(4)
S1 S 0.58922(12) 0.26737(9) 0.17401(8)
S2 S 0.49165(11) 0.20477(8) 0.03782(7)
S3 S 0.71810(11) 0.20745(8) 0.06683(7)
O1 O 0.6105(4) 0.3511(3) 0.0584(3)
Zn2 Zn 0.64587(5) 0.16704(4) 0.20311(3)
C1 C 0.6622(5) 0.3265(4) 0.1995(3)
Zn3 Zn 0.47471(5) 0.11909(4) 0.09666(3)
C2 C 0.4022(5) 0.2487(4) 0.0400(3)
Zn4 Zn 0.68541(5) 0.09676(4) 0.06873(3)
C3 C 0.7374(5) 0.2230(4) 0.0003(4)
H1 H 0.6147 0.3514 0.0253
H2 H 0.5695 0.3725 0.0644
S4 S 0.78334(11) 0.15942(9) 0.20764(7)
S5 S 0.58915(11) 0.12900(9) 0.27897(7)
S6 S 0.60113(10) 0.09380(8) 0.13662(7)
C4 C 0.7322(6) 0.3338(4) 0.1775(4)
C5 C 0.6470(7) 0.3615(4) 0.2436(4)
S7 S 0.40662(11) 0.14782(8) 0.17010(7)
S8 S 0.41876(11) 0.02483(8) 0.05806(7)
C6 C 0.3338(5) 0.2269(4) 0.0086(4)
C7 C 0.3944(6) 0.3039(4) 0.0717(4)
S9 S 0.60957(11) 0.05558(9) -0.00511(7)
S10 S 0.78438(11) 0.02371(9) 0.09866(8)
C8 C 0.6761(6) 0.2262(5) -0.0418(4)
C9 C 0.8162(6) 0.2296(4) -0.0095(4)
Zn5 Zn 0.81787(5) 0.04785(4) 0.18985(3)
C10 C 0.8188(5) 0.1775(4) 0.2746(3)
Zn6 Zn 0.47002(5) 0.08401(4) 0.23971(3)
C11 C 0.5587(5) 0.1966(4) 0.3142(3)
Zn7 Zn 0.60808(5) -0.01223(4) 0.16911(3)
H3 H 0.7420 0.3084 0.1477
C12 C 0.7908(5) 0.3796(4) 0.1994(4)
C13 C 0.7075(8) 0.4055(5) 0.2664(4)
H4 H 0.5982 0.3568 0.2585
C14 C 0.3085(4) 0.1187(4) 0.1511(3)
Zn8 Zn 0.52907(5) -0.02716(4) 0.02568(3)
C15 C 0.3562(5) 0.0533(4) 0.0009(3)
H5 H 0.3371 0.1897 -0.0132
C16 C 0.2623(6) 0.2583(6) 0.0088(5)
C17 C 0.3220(7) 0.3354(5) 0.0704(4)
H6 H 0.4389 0.3196 0.0941
C18 C 0.6784(4) 0.0186(4) -0.0433(3)
C19 C 0.8658(4) 0.0474(4) 0.0649(3)
H7 H 0.6220 0.2237 -0.0354
C20 C 0.6975(6) 0.2333(5) -0.0939(4)
C21 C 0.8331(6) 0.2397(5) -0.0606(4)
H8 H 0.8577 0.2273 0.0188
S11 S 0.95083(12) 0.02583(12) 0.19897(9)
S12 S 0.72084(11) -0.01215(9) 0.23169(7)
C22 C 0.8936(6) 0.1507(4) 0.2965(4)
C23 C 0.7803(5) 0.2178(4) 0.3062(3)
S13 S 0.48682(11) -0.02025(9) 0.20798(7)
N1 N 0.3997(4) 0.0881(3) 0.3024(3)
C24 C 0.5001(5) 0.2410(4) 0.2949(3)
C25 C 0.5950(6) 0.2071(5) 0.3663(3)
S14 S 0.60370(11) -0.08216(8) 0.09593(7)
H9 H 0.8382 0.3863 0.1833
C26 C 0.7766(7) 0.4136(5) 0.2441(4)
H10 H 0.6993 0.4292 0.2975
C27 C 0.2870(4) 0.0542(4) 0.1596(3)
C28 C 0.2531(5) 0.1604(4) 0.1269(3)
O2 O 0.4927(3) -0.0702(2) -0.0404(2)
C29 C 0.2743(5) 0.0591(4) 0.0072(4)
C30 C 0.3852(5) 0.0658(4) -0.0471(3)
H11 H 0.2173 0.2428 -0.0132
C31 C 0.2547(6) 0.3125(5) 0.0409(4)
H12 H 0.3187 0.3741 0.0904
C32 C 0.6934(5) -0.0492(4) -0.0401(4)
C33 C 0.7144(5) 0.0539(5) -0.0805(4)
C34 C 0.8862(5) 0.0062(4) 0.0233(3)
C35 C 0.9060(5) 0.1047(5) 0.0733(4)
H13 H 0.6574 0.2332 -0.1231
C36 C 0.7761(6) 0.2402(5) -0.1029(4)
H14 H 0.8868 0.2465 -0.0668
C37 C 0.9847(5) 0.0106(4) 0.2658(3)
C38 C 0.7466(5) -0.0974(4) 0.2338(3)
H15 H 0.9226 0.1234 0.2754
C39 C 0.9236(7) 0.1643(5) 0.3485(4)
C40 C 0.8099(6) 0.2339(5) 0.3574(4)
H16 H 0.7306 0.2355 0.2923
C41 C 0.5026(4) -0.0731(3) 0.2635(3)
C42 C 0.3192(5) 0.0975(4) 0.2923(4)
C43 C 0.4307(5) 0.0855(3) 0.3537(3)
H17 H 0.4739 0.2354 0.2601
C44 C 0.4793(6) 0.2928(4) 0.3252(4)
C45 C 0.5711(7) 0.2577(5) 0.3978(4)
H18 H 0.6366 0.1791 0.3803
C46 C 0.5508(5) -0.1504(4) 0.1176(3)
H19 H 0.8155 0.4431 0.2596
H20 H 0.3253 0.0238 0.1744
C47 C 0.2078(5) 0.0351(4) 0.1459(3)
C48 C 0.1769(5) 0.1415(4) 0.1113(4)
H21 H 0.2681 0.2040 0.1208
H22 H 0.2542 0.0490 0.0397
C49 C 0.2236(5) 0.0810(4) -0.0380(4)
C50 C 0.3318(5) 0.0877(4) -0.0894(3)
H23 H 0.4397 0.0597 -0.0512
H24 H 0.2047 0.3328 0.0425
H25 H 0.6694 -0.0756 -0.0157
C51 C 0.7449(6) -0.0761(4) -0.0741(4)
C52 C 0.7629(7) 0.0263(6) -0.1133(4)
H26 H 0.7049 0.0993 -0.0831
H27 H 0.8570 -0.0324 0.0143
C53 C 0.9497(6) 0.0237(5) -0.0037(5)
C54 C 0.9669(5) 0.1213(5) 0.0445(4)
H28 H 0.8914 0.1336 0.0998
H29 H 0.7901 0.2453 -0.1379
C55 C 1.0612(7) 0.0248(6) 0.2851(4)
C56 C 0.9369(6) -0.0187(5) 0.3019(4)
C57 C 0.8096(5) -0.1212(4) 0.2076(3)
C58 C 0.7032(5) -0.1388(4) 0.2634(3)
H30 H 0.9725 0.1457 0.3629
C59 C 0.8823(6) 0.2050(4) 0.3792(3)
H31 H 0.7825 0.2636 0.3776
C60 C 0.4801(6) -0.1382(4) 0.2572(3)
C61 C 0.5302(4) -0.0519(4) 0.3147(3)
H32 H 0.2958 0.0969 0.2565
C62 C 0.2714(5) 0.1078(4) 0.3316(4)
C63 C 0.3842(5) 0.0942(4) 0.3949(3)
H33 H 0.4859 0.0776 0.3617
H34 H 0.4391 0.3220 0.3108
C64 C 0.5153(7) 0.3027(6) 0.3753(5)
H35 H 0.5924 0.2614 0.4339
C65 C 0.5936(5) -0.1992(4) 0.1489(4)
C66 C 0.4685(5) -0.1599(5) 0.1043(4)
H36 H 0.1922 -0.0079 0.1537
C67 C 0.1532(5) 0.0765(5) 0.1218(4)
H37 H 0.1401 0.1711 0.0936
H38 H 0.1683 0.0853 -0.0353
C68 C 0.2515(6) 0.0954(4) -0.0836(4)
H39 H 0.3506 0.0974 -0.1224
H40 H 0.7578 -0.1210 -0.0710
C69 C 0.7763(7) -0.0402(6) -0.1108(4)
H41 H 0.7875 0.0523 -0.1378
H42 H 0.9657 -0.0045 -0.0301
C70 C 0.9894(6) 0.0798(7) 0.0066(5)
H43 H 0.9935 0.1616 0.0508
H44 H 1.0957 0.0429 0.2618
C71 C 1.0902(6) 0.0135(6) 0.3382(5)
C72 C 0.9655(6) -0.0283(5) 0.3532(4)
H45 H 0.8842 -0.0317 0.2899
H46 H 0.8401 -0.0921 0.1890
C73 C 0.8271(5) -0.1863(4) 0.2090(4)
C74 C 0.7204(5) -0.2031(4) 0.2639(4)
H47 H 0.6626 -0.1223 0.2827
H48 H 0.9025 0.2136 0.4150
H49 H 0.4614 -0.1540 0.2229
C75 C 0.4845(6) -0.1801(5) 0.2999(4)
C76 C 0.5325(5) -0.0944(5) 0.3576(3)
H50 H 0.5474 -0.0083 0.3202
H51 H 0.2165 0.1162 0.3229
C77 C 0.3029(5) 0.1059(5) 0.3834(4)
C78 C 0.4222(5) 0.0915(3) 0.4517(3)
H52 H 0.5027 0.3399 0.3948
H53 H 0.6494 -0.1956 0.1578
C79 C 0.5525(6) -0.2515(4) 0.1660(4)
C80 C 0.4306(5) -0.2137(4) 0.1231(4)
H54 H 0.4388 -0.1293 0.0822
H55 H 0.1002 0.0627 0.1121
H56 H 0.2164 0.1111 -0.1126
H57 H 0.8076 -0.0603 -0.1351
H58 H 1.0329 0.0905 -0.0124
H59 H 1.1440 0.0231 0.3502
C81 C 1.0421(6) -0.0110(5) 0.3723(4)
H60 H 0.9322 -0.0475 0.3767
H61 H 0.8698 -0.2030 0.1917
C82 C 0.7812(6) -0.2266(4) 0.2359(4)
H62 H 0.6912 -0.2323 0.2834
H63 H 0.4703 -0.2244 0.2946
C83 C 0.5092(6) -0.1582(5) 0.3492(4)
H64 H 0.5501 -0.0796 0.3923
H65 H 0.2703 0.1125 0.4111
O3 O 0.3801(4) 0.1066(3) 0.4877(2)
H66 H 0.5815 -0.2842 0.1861
C84 C 0.4723(6) -0.2585(4) 0.1555(4)
H67 H 0.3754 -0.2196 0.1135
H68 H 1.0604 -0.0161 0.4088
H69 H 0.7909 -0.2720 0.2356
H70 H 0.5104 -0.1871 0.3785
H71 H 0.4457 -0.2937 0.1702
O2A O 0.4927(3) 0.0702(2) 0.4596(2)
Zn8A Zn 0.52907(5) 0.02716(4) 0.52568(3)
O4 O 0.7613(5) 0.3943(4) 0.0528(3)
H72 H 0.7340 0.3717 0.0294
H73 H 0.7582 0.4342 0.0441
O5 O 0.5261(5) 0.4371(4) 0.1072(4)
H74 H 0.4909 0.4102 0.0947
H75 H 0.5041 0.4726 0.1145
loop_
_geom_bond_atom_site_label_1
_geom_bond_atom_site_label_2
_geom_bond_site_symmetry_1
_geom_bond_site_symmetry_2
Zn1 S1 1_555 1_555
S1 Zn2 1_555 1_555
S2 Zn1 1_555 1_555
S3 Zn1 1_555 1_555
O1 Zn1 1_555 1_555
Zn2 S4 1_555 1_555
C1 S1 1_555 1_555
Zn3 S2 1_555 1_555
C2 S2 1_555 1_555
Zn4 S3 1_555 1_555
C3 S3 1_555 1_555
H1 O1 1_555 1_555
H2 O1 1_555 1_555
S4 Zn5 1_555 1_555
S5 Zn2 1_555 1_555
S6 Zn2 1_555 1_555
C4 C1 1_555 1_555
C5 C1 1_555 1_555
S7 Zn3 1_555 1_555
S8 Zn3 1_555 1_555
C6 C2 1_555 1_555
C7 C2 1_555 1_555
S9 Zn4 1_555 1_555
S10 Zn4 1_555 1_555
C8 C3 1_555 1_555
C9 C3 1_555 1_555
Zn5 S10 1_555 1_555
C10 S4 1_555 1_555
Zn6 S5 1_555 1_555
C11 S5 1_555 1_555
Zn7 S6 1_555 1_555
H3 C4 1_555 1_555
C12 C4 1_555 1_555
C13 C5 1_555 1_555
H4 C5 1_555 1_555
C14 S7 1_555 1_555
Zn8 S8 1_555 1_555
C15 S8 1_555 1_555
H5 C6 1_555 1_555
C16 C6 1_555 1_555
C17 C7 1_555 1_555
H6 C7 1_555 1_555
C18 S9 1_555 1_555
C19 S10 1_555 1_555
H7 C8 1_555 1_555
C20 C8 1_555 1_555
C21 C9 1_555 1_555
H8 C9 1_555 1_555
S11 Zn5 1_555 1_555
S12 Zn5 1_555 1_555
C22 C10 1_555 1_555
C23 C10 1_555 1_555
S13 Zn6 1_555 1_555
N1 Zn6 1_555 1_555
C24 C11 1_555 1_555
C25 C11 1_555 1_555
S14 Zn7 1_555 1_555
H9 C12 1_555 1_555
C26 C12 1_555 1_555
H10 C13 1_555 1_555
C27 C14 1_555 1_555
C28 C14 1_555 1_555
O2 Zn8 1_555 1_555
C29 C15 1_555 1_555
C30 C15 1_555 1_555
H11 C16 1_555 1_555
C31 C16 1_555 1_555
H12 C17 1_555 1_555
C32 C18 1_555 1_555
C33 C18 1_555 1_555
C34 C19 1_555 1_555
C35 C19 1_555 1_555
H13 C20 1_555 1_555
C36 C20 1_555 1_555
H14 C21 1_555 1_555
C37 S11 1_555 1_555
C38 S12 1_555 1_555
H15 C22 1_555 1_555
C39 C22 1_555 1_555
C40 C23 1_555 1_555
H16 C23 1_555 1_555
C41 S13 1_555 1_555
C42 N1 1_555 1_555
C43 N1 1_555 1_555
H17 C24 1_555 1_555
C44 C24 1_555 1_555
C45 C25 1_555 1_555
H18 C25 1_555 1_555
C46 S14 1_555 1_555
H19 C26 1_555 1_555
H20 C27 1_555 1_555
C47 C27 1_555 1_555
C48 C28 1_555 1_555
H21 C28 1_555 1_555
H22 C29 1_555 1_555
C49 C29 1_555 1_555
C50 C30 1_555 1_555
H23 C30 1_555 1_555
H24 C31 1_555 1_555
H25 C32 1_555 1_555
C51 C32 1_555 1_555
C52 C33 1_555 1_555
H26 C33 1_555 1_555
H27 C34 1_555 1_555
C53 C34 1_555 1_555
C54 C35 1_555 1_555
H28 C35 1_555 1_555
H29 C36 1_555 1_555
C55 C37 1_555 1_555
C56 C37 1_555 1_555
C57 C38 1_555 1_555
C58 C38 1_555 1_555
H30 C39 1_555 1_555
C59 C39 1_555 1_555
H31 C40 1_555 1_555
C60 C41 1_555 1_555
C61 C41 1_555 1_555
H32 C42 1_555 1_555
C62 C42 1_555 1_555
C63 C43 1_555 1_555
H33 C43 1_555 1_555
H34 C44 1_555 1_555
C64 C44 1_555 1_555
H35 C45 1_555 1_555
C65 C46 1_555 1_555
C66 C46 1_555 1_555
H36 C47 1_555 1_555
C67 C47 1_555 1_555
H37 C48 1_555 1_555
H38 C49 1_555 1_555
C68 C49 1_555 1_555
H39 C50 1_555 1_555
H40 C51 1_555 1_555
C69 C51 1_555 1_555
H41 C52 1_555 1_555
H42 C53 1_555 1_555
C70 C53 1_555 1_555
H43 C54 1_555 1_555
H44 C55 1_555 1_555
C71 C55 1_555 1_555
C72 C56 1_555 1_555
H45 C56 1_555 1_555
H46 C57 1_555 1_555
C73 C57 1_555 1_555
C74 C58 1_555 1_555
H47 C58 1_555 1_555
H48 C59 1_555 1_555
H49 C60 1_555 1_555
C75 C60 1_555 1_555
C76 C61 1_555 1_555
H50 C61 1_555 1_555
H51 C62 1_555 1_555
C77 C62 1_555 1_555
C78 C63 1_555 1_555
H52 C64 1_555 1_555
H53 C65 1_555 1_555
C79 C65 1_555 1_555
C80 C66 1_555 1_555
H54 C66 1_555 1_555
H55 C67 1_555 1_555
H56 C68 1_555 1_555
H57 C69 1_555 1_555
H58 C70 1_555 1_555
H59 C71 1_555 1_555
C81 C71 1_555 1_555
H60 C72 1_555 1_555
H61 C73 1_555 1_555
C82 C73 1_555 1_555
H62 C74 1_555 1_555
H63 C75 1_555 1_555
C83 C75 1_555 1_555
H64 C76 1_555 1_555
H65 C77 1_555 1_555
O3 C78 1_555 1_555
H66 C79 1_555 1_555
C84 C79 1_555 1_555
H67 C80 1_555 1_555
H68 C81 1_555 1_555
H69 C82 1_555 1_555
H70 C83 1_555 1_555
H71 C84 1_555 1_555
O4 H72 1_555 1_555
H73 O4 1_555 1_555
O5 H74 1_555 1_555
H75 O5 1_555 1_555
O2A C78 1_555 1_555
Zn8A O2A 1_555 1_555
Zn3 S6 1_555 1_555
Zn4 S6 1_555 1_555
S7 Zn6 1_555 1_555
S9 Zn8 1_555 1_555
Zn7 S12 1_555 1_555
Zn7 S13 1_555 1_555
C13 C26 1_555 1_555
Zn8 S14 1_555 1_555
C17 C31 1_555 1_555
C21 C36 1_555 1_555
C40 C59 1_555 1_555
C45 C64 1_555 1_555
C48 C67 1_555 1_555
C50 C68 1_555 1_555
C52 C69 1_555 1_555
C54 C70 1_555 1_555
C63 C77 1_555 1_555
C72 C81 1_555 1_555
C74 C82 1_555 1_555
C76 C83 1_555 1_555
C80 C84 1_555 1_555

#END
