
#######################################################################
#
#                 Cambridge Crystallographic Data Centre
#                                CCDC 
#
#######################################################################
#
# If this CIF has been generated from an entry in the Cambridge 
# Structural Database, then it will include bibliographic, chemical, 
# crystal, experimental, refinement or atomic coordinate data resulting 
# from the CCDC's data processing and validation procedures.
#
#######################################################################

data_LOVZUT
_symmetry_cell_setting           monoclinic
_symmetry_space_group_name_H-M   'P 21/n'
_symmetry_Int_Tables_number      14
_space_group_name_Hall           '-P 2yn'
loop_
_symmetry_equiv_pos_site_id
_symmetry_equiv_pos_as_xyz
1 x,y,z
2 1/2-x,1/2+y,1/2-z
3 -x,-y,-z
4 1/2+x,1/2-y,1/2+z
_cell_length_a                   13.3661(2)
_cell_length_b                   24.0675(3)
_cell_length_c                   19.0210(4)
_cell_angle_alpha                90
_cell_angle_beta                 105.480(2)
_cell_angle_gamma                90
_cell_volume                     5896.87
loop_
_atom_site_label
_atom_site_type_symbol
_atom_site_fract_x
_atom_site_fract_y
_atom_site_fract_z
Zn1 Zn -0.05897(2) 0.312464(13) 0.123499(17)
Zn2 Zn 0.16292(2) 0.203051(13) 0.115300(17)
Zn3 Zn 0.20792(2) 0.320468(12) 0.261545(17)
Zn4 Zn 0.04506(2) 0.206111(12) 0.275630(16)
S1 S -0.19413(6) 0.36204(3) 0.05540(5)
S2 S 0.05945(5) 0.37040(3) 0.20749(4)
S3 S -0.10456(5) 0.23888(3) 0.19644(4)
S4 S 0.00958(5) 0.24903(3) 0.05311(4)
S5 S 0.21894(5) 0.15889(3) 0.02767(4)
S6 S 0.28940(5) 0.26100(3) 0.19807(4)
S7 S 0.13648(5) 0.14968(3) 0.21268(4)
S8 S 0.17872(5) 0.25857(3) 0.34961(4)
N1 N 0.30745(16) 0.37388(9) 0.32913(12)
N2 N 0.01152(16) 0.14730(9) 0.34271(12)
C1 C -0.1961(2) 0.41612(13) 0.11790(18)
C2 C -0.1427(2) 0.46491(13) 0.11722(19)
H1 H -0.1066 0.4702 0.0822
C3 C -0.1422(3) 0.50634(16) 0.1681(3)
H2 H -0.1065 0.5392 0.1661
C4 C -0.1923(4) 0.5000(2) 0.2203(3)
H3 H -0.1898 0.5275 0.2551
C5 C -0.2470(4) 0.4519(3) 0.2209(3)
H4 H -0.2829 0.4471 0.2561
C6 C -0.2498(3) 0.41054(18) 0.1700(3)
H5 H -0.2884 0.3785 0.1710
C7 C 0.1028(2) 0.42309(11) 0.15621(16)
C8 C 0.1113(3) 0.41352(13) 0.08713(19)
H6 H 0.0971 0.3784 0.0665
C9 C 0.1409(3) 0.45626(16) 0.0478(2)
H7 H 0.1469 0.4496 0.0009
C10 C 0.1616(3) 0.50864(15) 0.0781(2)
H8 H 0.1810 0.5373 0.0516
C11 C 0.1534(3) 0.51791(13) 0.1468(2)
H9 H 0.1676 0.5530 0.1674
C12 C 0.1242(3) 0.47558(12) 0.18638(18)
H10 H 0.1188 0.4824 0.2334
C13 C -0.1868(2) 0.26302(11) 0.25015(15)
C14 C -0.2899(2) 0.27377(14) 0.21583(17)
H11 H -0.3151 0.2690 0.1657
C15 C -0.3557(2) 0.29177(15) 0.25676(19)
H12 H -0.4250 0.2989 0.2336
C16 C -0.3199(2) 0.29907(14) 0.33049(18)
H13 H -0.3643 0.3118 0.3572
C17 C -0.2180(2) 0.28746(14) 0.36469(18)
H14 H -0.1935 0.2919 0.4149
C18 C -0.1518(2) 0.26930(13) 0.32499(16)
H15 H -0.0831 0.2612 0.3487
C19 C 0.0365(2) 0.28489(11) -0.02186(15)
C20 C 0.1365(2) 0.29948(12) -0.02316(18)
H16 H 0.1923 0.2915 0.0166
C21 C 0.1530(3) 0.32581(14) -0.0834(2)
H17 H 0.2201 0.3357 -0.0837
C22 C 0.0716(4) 0.33767(14) -0.1430(2)
H18 H 0.0838 0.3548 -0.1837
C23 C -0.0277(4) 0.32395(15) -0.14193(19)
H19 H -0.0832 0.3324 -0.1818
C24 C -0.0456(3) 0.29743(13) -0.08113(17)
H20 H -0.1130 0.2882 -0.0806
C25 C 0.3074(2) 0.10591(11) 0.06796(16)
C26 C 0.3627(2) 0.10548(13) 0.14093(17)
H21 H 0.3530 0.1338 0.1717
C27 C 0.4325(2) 0.06296(14) 0.1682(2)
H22 H 0.4693 0.0632 0.2172
C28 C 0.4480(3) 0.02045(13) 0.1237(2)
H23 H 0.4945 -0.0080 0.1425
C29 C 0.3939(3) 0.02064(13) 0.0510(2)
H24 H 0.4037 -0.0079 0.0206
C30 C 0.3249(2) 0.06316(12) 0.02331(18)
H25 H 0.2896 0.0632 -0.0260
C31 C 0.3595(2) 0.29883(12) 0.14659(15)
C32 C 0.4119(2) 0.26917(14) 0.10430(17)
H26 H 0.4059 0.2307 0.1009
C33 C 0.4730(3) 0.29733(18) 0.06746(19)
H27 H 0.5066 0.2777 0.0384
C34 C 0.4843(3) 0.35396(19) 0.0736(2)
H28 H 0.5271 0.3724 0.0499
C35 C 0.4319(3) 0.38338(17) 0.1150(3)
H29 H 0.4389 0.4218 0.1187
C36 C 0.3690(3) 0.35597(14) 0.1510(2)
H30 H 0.3330 0.3761 0.1781
C37 C 0.0383(2) 0.09742(11) 0.18290(15)
C38 C 0.0532(3) 0.04713(12) 0.21959(18)
H31 H 0.1144 0.0403 0.2555
C39 C -0.0245(3) 0.00683(14) 0.2022(2)
H32 H -0.0150 -0.0271 0.2266
C40 C -0.1148(3) 0.01685(15) 0.1496(2)
H33 H -0.1667 -0.0100 0.1388
C41 C -0.1290(3) 0.06666(14) 0.11231(19)
H34 H -0.1901 0.0732 0.0761
C42 C -0.0525(2) 0.10685(12) 0.12874(16)
H35 H -0.0620 0.1403 0.1034
C43 C 0.1386(2) 0.30023(10) 0.41531(14)
C44 C 0.0604(2) 0.33967(12) 0.39634(16)
H36 H 0.0271 0.3461 0.3475
C45 C 0.0321(2) 0.36938(12) 0.45011(18)
H37 H -0.0217 0.3950 0.4371
C46 C 0.0822(3) 0.36160(13) 0.52258(18)
H38 H 0.0621 0.3815 0.5585
C47 C 0.1623(3) 0.32400(14) 0.54122(17)
H39 H 0.1979 0.3193 0.5900
C48 C 0.1905(2) 0.29310(13) 0.48831(16)
H40 H 0.2444 0.2675 0.5017
C49 C 0.4066(2) 0.36012(12) 0.35745(17)
H41 H 0.4320 0.3281 0.3410
C50 C 0.4728(2) 0.39169(12) 0.41019(17)
H42 H 0.5411 0.3803 0.4293
C51 C 0.4388(2) 0.44021(11) 0.43515(15)
C52 C 0.3355(2) 0.45382(12) 0.40609(16)
H43 H 0.3085 0.4858 0.4214
C53 C 0.2727(2) 0.41982(12) 0.35440(16)
H44 H 0.2031 0.4293 0.3363
C54 C 0.5113(2) 0.47437(11) 0.49028(16)
H45 H 0.5762 0.4597 0.5129
C55 C 0.0912(2) 0.12402(11) 0.39205(15)
H46 H 0.1573 0.1389 0.3984
C56 C 0.0796(2) 0.07913(11) 0.43354(15)
H47 H 0.1370 0.0639 0.4668
C57 C -0.0182(2) 0.05657(11) 0.42572(15)
C58 C -0.1003(2) 0.08103(13) 0.37474(18)
H48 H -0.1673 0.0675 0.3680
C59 C -0.0823(2) 0.12524(13) 0.33433(17)
H49 H -0.1380 0.1405 0.2995
C60 C -0.0380(2) 0.00994(12) 0.47106(16)
H50 H -0.1035 -0.0062 0.4599
N1B N 0.69255(16) 0.62612(9) 0.67087(12)
C49B C 0.5934(2) 0.63988(12) 0.64255(17)
H41B H 0.5680 0.6719 0.6590
C50B C 0.5272(2) 0.60831(12) 0.58981(17)
H42B H 0.4589 0.6197 0.5707
C51B C 0.5612(2) 0.55979(11) 0.56485(15)
C52B C 0.6645(2) 0.54618(12) 0.59391(16)
H43B H 0.6915 0.5142 0.5786
C53B C 0.7273(2) 0.58018(12) 0.64560(16)
H44B H 0.7969 0.5707 0.6637
C54B C 0.4887(2) 0.52563(11) 0.50972(16)
H45B H 0.4238 0.5403 0.4871
N2B N -0.01152(16) -0.14730(9) 0.65729(12)
C55B C -0.0912(2) -0.12402(11) 0.60795(15)
H46B H -0.1573 -0.1389 0.6016
C56B C -0.0796(2) -0.07913(11) 0.56646(15)
H47B H -0.1370 -0.0639 0.5332
C57B C 0.0182(2) -0.05657(11) 0.57428(15)
C58B C 0.1003(2) -0.08103(13) 0.62526(18)
H48B H 0.1673 -0.0675 0.6320
C59B C 0.0823(2) -0.12524(13) 0.66567(17)
H49B H 0.1380 -0.1405 0.7005
C60B C 0.0380(2) -0.00994(12) 0.52894(16)
H50B H 0.1035 0.0062 0.5401
Zn1B Zn 0.05897(2) -0.312464(13) 0.876501(17)
Zn2B Zn -0.16292(2) -0.203051(13) 0.884700(17)
Zn3B Zn -0.20792(2) -0.320468(12) 0.738455(17)
Zn4B Zn -0.04506(2) -0.206111(12) 0.724370(16)
S1B S 0.19413(6) -0.36204(3) 0.94460(5)
S2B S -0.05945(5) -0.37040(3) 0.79251(4)
S3B S 0.10456(5) -0.23888(3) 0.80356(4)
S4B S -0.00958(5) -0.24903(3) 0.94689(4)
S5B S -0.21894(5) -0.15889(3) 0.97233(4)
S6B S -0.28940(5) -0.26100(3) 0.80193(4)
S7B S -0.13648(5) -0.14968(3) 0.78732(4)
S8B S -0.17872(5) -0.25857(3) 0.65039(4)
C1B C 0.1961(2) -0.41612(13) 0.88210(18)
C2B C 0.1427(2) -0.46491(13) 0.88278(19)
H1B H 0.1066 -0.4702 0.9178
C3B C 0.1422(3) -0.50634(16) 0.8319(3)
H2B H 0.1065 -0.5392 0.8339
C4B C 0.1923(4) -0.5000(2) 0.7797(3)
H3B H 0.1898 -0.5275 0.7449
C5B C 0.2470(4) -0.4519(3) 0.7791(3)
H4B H 0.2829 -0.4471 0.7439
C6B C 0.2498(3) -0.41054(18) 0.8300(3)
H5B H 0.2884 -0.3785 0.8290
C7B C -0.1028(2) -0.42309(11) 0.84379(16)
C8B C -0.1113(3) -0.41352(13) 0.91287(19)
H6B H -0.0971 -0.3784 0.9335
C9B C -0.1409(3) -0.45626(16) 0.9522(2)
H7B H -0.1469 -0.4496 0.9991
C10B C -0.1616(3) -0.50864(15) 0.9219(2)
H8B H -0.1810 -0.5373 0.9484
C11B C -0.1534(3) -0.51791(13) 0.8532(2)
H9B H -0.1676 -0.5530 0.8326
C12B C -0.1242(3) -0.47558(12) 0.81362(18)
H10B H -0.1188 -0.4824 0.7666
C13B C 0.1868(2) -0.26302(11) 0.74985(15)
C14B C 0.2899(2) -0.27377(14) 0.78417(17)
H11B H 0.3151 -0.2690 0.8343
C15B C 0.3557(2) -0.29177(15) 0.74324(19)
H12B H 0.4250 -0.2989 0.7664
C16B C 0.3199(2) -0.29907(14) 0.66951(18)
H13B H 0.3643 -0.3118 0.6428
C17B C 0.2180(2) -0.28746(14) 0.63531(18)
H14B H 0.1935 -0.2919 0.5851
C18B C 0.1518(2) -0.26930(13) 0.67501(16)
H15B H 0.0831 -0.2612 0.6513
C19B C -0.0365(2) -0.28489(11) 1.02186(15)
C20B C -0.1365(2) -0.29948(12) 1.02316(18)
H16B H -0.1923 -0.2915 0.9834
C21B C -0.1530(3) -0.32581(14) 1.0834(2)
H17B H -0.2201 -0.3357 1.0837
C22B C -0.0716(4) -0.33767(14) 1.1430(2)
H18B H -0.0838 -0.3548 1.1837
C23B C 0.0277(4) -0.32395(15) 1.14193(19)
H19B H 0.0832 -0.3324 1.1818
C24B C 0.0456(3) -0.29743(13) 1.08113(17)
H20B H 0.1130 -0.2882 1.0806
C25B C -0.3074(2) -0.10591(11) 0.93204(16)
C26B C -0.3627(2) -0.10548(13) 0.85907(17)
H21B H -0.3530 -0.1338 0.8283
C27B C -0.4325(2) -0.06296(14) 0.8318(2)
H22B H -0.4693 -0.0632 0.7828
C28B C -0.4480(3) -0.02045(13) 0.8763(2)
H23B H -0.4945 0.0080 0.8575
C29B C -0.3939(3) -0.02064(13) 0.9490(2)
H24B H -0.4037 0.0079 0.9794
C30B C -0.3249(2) -0.06316(12) 0.97669(18)
H25B H -0.2896 -0.0632 1.0260
C31B C -0.3595(2) -0.29883(12) 0.85341(15)
C32B C -0.4119(2) -0.26917(14) 0.89570(17)
H26B H -0.4059 -0.2307 0.8991
C33B C -0.4730(3) -0.29733(18) 0.93254(19)
H27B H -0.5066 -0.2777 0.9616
C34B C -0.4843(3) -0.35396(19) 0.9264(2)
H28B H -0.5271 -0.3724 0.9501
C35B C -0.4319(3) -0.38338(17) 0.8850(3)
H29B H -0.4389 -0.4218 0.8813
C36B C -0.3690(3) -0.35597(14) 0.8490(2)
H30B H -0.3330 -0.3761 0.8219
C37B C -0.0383(2) -0.09742(11) 0.81710(15)
C38B C -0.0532(3) -0.04713(12) 0.78041(18)
H31B H -0.1144 -0.0403 0.7445
C39B C 0.0245(3) -0.00683(14) 0.7978(2)
H32B H 0.0150 0.0271 0.7734
C40B C 0.1148(3) -0.01685(15) 0.8504(2)
H33B H 0.1667 0.0100 0.8612
C41B C 0.1290(3) -0.06666(14) 0.88769(19)
H34B H 0.1901 -0.0732 0.9239
C42B C 0.0525(2) -0.10685(12) 0.87126(16)
H35B H 0.0620 -0.1403 0.8966
C43B C -0.1386(2) -0.30023(10) 0.58469(14)
C44B C -0.0604(2) -0.33967(12) 0.60366(16)
H36B H -0.0271 -0.3461 0.6525
C45B C -0.0321(2) -0.36938(12) 0.54989(18)
H37B H 0.0217 -0.3950 0.5629
C46B C -0.0822(3) -0.36160(13) 0.47742(18)
H38B H -0.0621 -0.3815 0.4415
C47B C -0.1623(3) -0.32400(14) 0.45878(17)
H39B H -0.1979 -0.3193 0.4100
C48B C -0.1905(2) -0.29310(13) 0.51169(16)
H40B H -0.2444 -0.2675 0.4983
Zn3B_2 Zn 0.79208(2) 0.679532(12) 0.738455(17)
N1B_2 N -0.30745(16) -0.37388(9) 0.67087(12)
loop_
_geom_bond_atom_site_label_1
_geom_bond_atom_site_label_2
_geom_bond_site_symmetry_1
_geom_bond_site_symmetry_2
Zn1 S1 1_555 1_555
Zn2 S4 1_555 1_555
Zn3 S2 1_555 1_555
Zn4 S3 1_555 1_555
S1 C1 1_555 1_555
S2 Zn1 1_555 1_555
S3 Zn1 1_555 1_555
S4 Zn1 1_555 1_555
S5 Zn2 1_555 1_555
S6 Zn2 1_555 1_555
S7 Zn2 1_555 1_555
S8 Zn3 1_555 1_555
N1 Zn3 1_555 1_555
N2 Zn4 1_555 1_555
C1 C2 1_555 1_555
C2 H1 1_555 1_555
C3 C2 1_555 1_555
H2 C3 1_555 1_555
C4 C3 1_555 1_555
H3 C4 1_555 1_555
C5 C4 1_555 1_555
H4 C5 1_555 1_555
C6 C1 1_555 1_555
H5 C6 1_555 1_555
C7 S2 1_555 1_555
C8 C7 1_555 1_555
H6 C8 1_555 1_555
C9 C8 1_555 1_555
H7 C9 1_555 1_555
C10 C9 1_555 1_555
H8 C10 1_555 1_555
C11 C10 1_555 1_555
H9 C11 1_555 1_555
C12 C7 1_555 1_555
H10 C12 1_555 1_555
C13 S3 1_555 1_555
C14 C13 1_555 1_555
H11 C14 1_555 1_555
C15 C14 1_555 1_555
H12 C15 1_555 1_555
C16 C15 1_555 1_555
H13 C16 1_555 1_555
C17 C16 1_555 1_555
H14 C17 1_555 1_555
C18 C13 1_555 1_555
H15 C18 1_555 1_555
C19 S4 1_555 1_555
C20 C19 1_555 1_555
H16 C20 1_555 1_555
C21 C20 1_555 1_555
H17 C21 1_555 1_555
C22 C21 1_555 1_555
H18 C22 1_555 1_555
C23 C22 1_555 1_555
H19 C23 1_555 1_555
C24 C19 1_555 1_555
H20 C24 1_555 1_555
C25 S5 1_555 1_555
C26 C25 1_555 1_555
H21 C26 1_555 1_555
C27 C26 1_555 1_555
H22 C27 1_555 1_555
C28 C27 1_555 1_555
H23 C28 1_555 1_555
C29 C28 1_555 1_555
H24 C29 1_555 1_555
C30 C25 1_555 1_555
H25 C30 1_555 1_555
C31 S6 1_555 1_555
C32 C31 1_555 1_555
H26 C32 1_555 1_555
C33 C32 1_555 1_555
H27 C33 1_555 1_555
C34 C33 1_555 1_555
H28 C34 1_555 1_555
C35 C34 1_555 1_555
H29 C35 1_555 1_555
C36 C31 1_555 1_555
H30 C36 1_555 1_555
C37 S7 1_555 1_555
C38 C37 1_555 1_555
H31 C38 1_555 1_555
C39 C38 1_555 1_555
H32 C39 1_555 1_555
C40 C39 1_555 1_555
H33 C40 1_555 1_555
C41 C40 1_555 1_555
H34 C41 1_555 1_555
C42 C37 1_555 1_555
H35 C42 1_555 1_555
C43 S8 1_555 1_555
C44 C43 1_555 1_555
H36 C44 1_555 1_555
C45 C44 1_555 1_555
H37 C45 1_555 1_555
C46 C45 1_555 1_555
H38 C46 1_555 1_555
C47 C46 1_555 1_555
H39 C47 1_555 1_555
C48 C43 1_555 1_555
H40 C48 1_555 1_555
C49 N1 1_555 1_555
H41 C49 1_555 1_555
C50 C49 1_555 1_555
H42 C50 1_555 1_555
C51 C50 1_555 1_555
C52 C51 1_555 1_555
H43 C52 1_555 1_555
C53 N1 1_555 1_555
H44 C53 1_555 1_555
C54 C51 1_555 1_555
H45 C54 1_555 1_555
C55 N2 1_555 1_555
H46 C55 1_555 1_555
C56 C55 1_555 1_555
H47 C56 1_555 1_555
C57 C56 1_555 1_555
C58 C57 1_555 1_555
H48 C58 1_555 1_555
C59 N2 1_555 1_555
H49 C59 1_555 1_555
C60 C57 1_555 1_555
H50 C60 1_555 1_555
N1B C49B 1_555 1_555
C49B H41B 1_555 1_555
C50B C49B 1_555 1_555
H42B C50B 1_555 1_555
C51B C50B 1_555 1_555
C52B C51B 1_555 1_555
H43B C52B 1_555 1_555
C53B N1B 1_555 1_555
H44B C53B 1_555 1_555
C54B C54 1_555 1_555
H45B C54B 1_555 1_555
N2B C55B 1_555 1_555
C55B H46B 1_555 1_555
C56B C55B 1_555 1_555
H47B C56B 1_555 1_555
C57B C56B 1_555 1_555
C58B C57B 1_555 1_555
H48B C58B 1_555 1_555
C59B N2B 1_555 1_555
H49B C59B 1_555 1_555
C60B C60 1_555 1_555
H50B C60B 1_555 1_555
Zn1B S1B 1_555 1_555
Zn2B S4B 1_555 1_555
Zn3B S2B 1_555 1_555
Zn4B N2B 1_555 1_555
S1B C1B 1_555 1_555
S2B Zn1B 1_555 1_555
S3B Zn1B 1_555 1_555
S4B Zn1B 1_555 1_555
S5B Zn2B 1_555 1_555
S6B Zn2B 1_555 1_555
S7B Zn2B 1_555 1_555
S8B Zn3B 1_555 1_555
C1B C2B 1_555 1_555
C2B H1B 1_555 1_555
C3B C2B 1_555 1_555
H2B C3B 1_555 1_555
C4B C3B 1_555 1_555
H3B C4B 1_555 1_555
C5B C4B 1_555 1_555
H4B C5B 1_555 1_555
C6B C1B 1_555 1_555
H5B C6B 1_555 1_555
C7B S2B 1_555 1_555
C8B C7B 1_555 1_555
H6B C8B 1_555 1_555
C9B C8B 1_555 1_555
H7B C9B 1_555 1_555
C10B C9B 1_555 1_555
H8B C10B 1_555 1_555
C11B C10B 1_555 1_555
H9B C11B 1_555 1_555
C12B C7B 1_555 1_555
H10B C12B 1_555 1_555
C13B S3B 1_555 1_555
C14B C13B 1_555 1_555
H11B C14B 1_555 1_555
C15B C14B 1_555 1_555
H12B C15B 1_555 1_555
C16B C15B 1_555 1_555
H13B C16B 1_555 1_555
C17B C16B 1_555 1_555
H14B C17B 1_555 1_555
C18B C13B 1_555 1_555
H15B C18B 1_555 1_555
C19B S4B 1_555 1_555
C20B C19B 1_555 1_555
H16B C20B 1_555 1_555
C21B C20B 1_555 1_555
H17B C21B 1_555 1_555
C22B C21B 1_555 1_555
H18B C22B 1_555 1_555
C23B C22B 1_555 1_555
H19B C23B 1_555 1_555
C24B C19B 1_555 1_555
H20B C24B 1_555 1_555
C25B S5B 1_555 1_555
C26B C25B 1_555 1_555
H21B C26B 1_555 1_555
C27B C26B 1_555 1_555
H22B C27B 1_555 1_555
C28B C27B 1_555 1_555
H23B C28B 1_555 1_555
C29B C28B 1_555 1_555
H24B C29B 1_555 1_555
C30B C25B 1_555 1_555
H25B C30B 1_555 1_555
C31B S6B 1_555 1_555
C32B C31B 1_555 1_555
H26B C32B 1_555 1_555
C33B C32B 1_555 1_555
H27B C33B 1_555 1_555
C34B C33B 1_555 1_555
H28B C34B 1_555 1_555
C35B C34B 1_555 1_555
H29B C35B 1_555 1_555
C36B C31B 1_555 1_555
H30B C36B 1_555 1_555
C37B S7B 1_555 1_555
C38B C37B 1_555 1_555
H31B C38B 1_555 1_555
C39B C38B 1_555 1_555
H32B C39B 1_555 1_555
C40B C39B 1_555 1_555
H33B C40B 1_555 1_555
C41B C40B 1_555 1_555
H34B C41B 1_555 1_555
C42B C37B 1_555 1_555
H35B C42B 1_555 1_555
C43B S8B 1_555 1_555
C44B C43B 1_555 1_555
H36B C44B 1_555 1_555
C45B C44B 1_555 1_555
H37B C45B 1_555 1_555
C46B C45B 1_555 1_555
H38B C46B 1_555 1_555
C47B C46B 1_555 1_555
H39B C47B 1_555 1_555
C48B C43B 1_555 1_555
H40B C48B 1_555 1_555
Zn3B_2 N1B 1_555 1_555
N1B_2 Zn3B 1_555 1_555
Zn3 S6 1_555 1_555
Zn4 S7 1_555 1_555
Zn4 S8 1_555 1_555
C5 C6 1_555 1_555
C11 C12 1_555 1_555
C17 C18 1_555 1_555
C23 C24 1_555 1_555
C29 C30 1_555 1_555
C35 C36 1_555 1_555
C41 C42 1_555 1_555
C47 C48 1_555 1_555
C52 C53 1_555 1_555
C58 C59 1_555 1_555
C51B C54B 1_555 1_555
C52B C53B 1_555 1_555
C57B C60B 1_555 1_555
C58B C59B 1_555 1_555
Zn3B S6B 1_555 1_555
Zn4B S3B 1_555 1_555
Zn4B S7B 1_555 1_555
Zn4B S8B 1_555 1_555
C5B C6B 1_555 1_555
C11B C12B 1_555 1_555
C17B C18B 1_555 1_555
C23B C24B 1_555 1_555
C29B C30B 1_555 1_555
C35B C36B 1_555 1_555
C41B C42B 1_555 1_555
C47B C48B 1_555 1_555

#END
