
#######################################################################
#
#                 Cambridge Crystallographic Data Centre
#                                CCDC 
#
#######################################################################
#
# If this CIF has been generated from an entry in the Cambridge 
# Structural Database, then it will include bibliographic, chemical, 
# crystal, experimental, refinement or atomic coordinate data resulting 
# from the CCDC's data processing and validation procedures.
#
#######################################################################

data_LOWBAC
_symmetry_cell_setting           monoclinic
_symmetry_space_group_name_H-M   'P 21/c'
_symmetry_Int_Tables_number      14
_space_group_name_Hall           '-P 2ybc'
loop_
_symmetry_equiv_pos_site_id
_symmetry_equiv_pos_as_xyz
1 x,y,z
2 -x,1/2+y,1/2-z
3 -x,-y,-z
4 x,1/2-y,1/2+z
_cell_length_a                   19.3609(10)
_cell_length_b                   31.6252(18)
_cell_length_c                   18.4565(9)
_cell_angle_alpha                90
_cell_angle_beta                 99.136(2)
_cell_angle_gamma                90
_cell_volume                     11157.4
loop_
_atom_site_label
_atom_site_type_symbol
_atom_site_fract_x
_atom_site_fract_y
_atom_site_fract_z
Zn1 Zn 0.04078(3) 0.560999(19) 0.15668(3)
Zn2 Zn 0.03697(3) 0.49348(2) 0.32068(3)
Zn3 Zn -0.13463(3) 0.519057(19) 0.19179(3)
Zn4 Zn -0.03419(3) 0.60768(2) 0.32192(3)
Zn5 Zn 0.48443(3) 0.666552(18) -0.11155(3)
Zn6 Zn 0.60616(3) 0.641133(19) -0.24843(3)
Zn7 Zn 0.62847(3) 0.737406(19) -0.10624(3)
Zn8 Zn 0.48760(3) 0.74074(2) -0.27760(3)
S1 S 0.09125(7) 0.50168(4) 0.21807(7)
S2 S -0.06013(7) 0.52790(4) 0.10007(7)
S3 S 0.03719(7) 0.61991(4) 0.23086(8)
S4 S -0.07719(7) 0.46912(4) 0.27696(7)
S5 S 0.01127(7) 0.54880(5) 0.39639(7)
S6 S -0.24356(7) 0.50252(4) 0.13393(7)
S7 S -0.13807(7) 0.58352(4) 0.25483(7)
S8 S -0.05549(9) 0.66878(5) 0.37790(10)
S9 S 0.51409(7) 0.61525(4) -0.19130(7)
S10 S 0.43004(7) 0.72334(4) -0.17761(8)
S11 S 0.55611(7) 0.70914(4) -0.02730(7)
S12 S 0.68444(8) 0.59500(5) -0.28230(8)
S13 S 0.68199(7) 0.67928(4) -0.15332(7)
S14 S 0.55101(7) 0.69040(4) -0.33562(7)
S15 S 0.58975(7) 0.77445(4) -0.21342(7)
S16 S 0.41589(10) 0.77745(6) -0.36297(9)
N1 N 0.1196(2) 0.57687(15) 0.0995(2)
N2 N 0.4146(2) 0.63630(14) -0.0575(2)
N3 N 0.9058(2) 0.94405(14) 0.1283(2)
N4 N 0.6941(2) 0.77875(15) -0.0422(2)
C1 C 0.1791(3) 0.51940(18) 0.2448(3)
C2 C 0.1952(4) 0.5462(2) 0.3035(4)
H1 H 0.1606 0.5536 0.3324
C3 C 0.2627(4) 0.5624(3) 0.3202(4)
H2 H 0.2743 0.5810 0.3608
C4 C 0.3127(4) 0.5517(2) 0.2782(4)
H3 H 0.3581 0.5637 0.2886
C5 C 0.2974(4) 0.5238(2) 0.2216(4)
H4 H 0.3325 0.5157 0.1938
C6 C 0.2293(3) 0.5069(2) 0.2045(4)
H5 H 0.2183 0.4871 0.1656
C7 C -0.1019(3) 0.55869(17) 0.0245(3)
C8 C -0.0675(3) 0.56435(18) -0.0354(3)
H6 H -0.0215 0.5537 -0.0340
C9 C -0.1000(3) 0.5854(2) -0.0965(3)
H7 H -0.0762 0.5891 -0.1373
C10 C -0.1663(3) 0.6009(2) -0.0995(4)
H8 H -0.1888 0.6149 -0.1423
C11 C -0.2003(4) 0.5960(2) -0.0397(4)
H9 H -0.2462 0.6070 -0.0414
C12 C -0.1683(3) 0.5753(2) 0.0227(3)
H10 H -0.1917 0.5724 0.0639
C13 C -0.0061(3) 0.6589(2) 0.1688(3)
C14 C -0.0707(4) 0.6539(3) 0.1294(4)
H11 H -0.0956 0.6286 0.1347
C15 C -0.1020(5) 0.6849(3) 0.0811(5)
H12 H -0.1478 0.6808 0.0550
C16 C -0.0667(6) 0.7199(4) 0.0723(7)
H13 H -0.0834 0.7389 0.0336
C17 C -0.0065(7) 0.7289(5) 0.1189(7)
H14 H 0.0149 0.7557 0.1159
C18 C 0.0258(6) 0.6986(4) 0.1726(6)
H15 H 0.0657 0.7053 0.2077
C19 C -0.0644(3) 0.42057(19) 0.2319(3)
C20 C -0.0340(4) 0.3865(2) 0.2723(4)
H16 H -0.0206 0.3888 0.3240
C21 C -0.0231(4) 0.3481(3) 0.2359(5)
H17 H -0.0011 0.3250 0.2633
C22 C -0.0435(4) 0.3440(3) 0.1633(4)
H18 H -0.0354 0.3182 0.1399
C23 C -0.0759(4) 0.3769(2) 0.1224(4)
H19 H -0.0917 0.3735 0.0713
C24 C -0.0854(3) 0.4152(2) 0.1568(4)
H20 H -0.1067 0.4382 0.1284
C25 C 0.0895(3) 0.56835(19) 0.4505(3)
C26 C 0.1259(3) 0.6027(2) 0.4269(3)
H21 H 0.1088 0.6163 0.3817
C27 C 0.1870(4) 0.6168(2) 0.4696(4)
H22 H 0.2125 0.6397 0.4534
C28 C 0.2105(4) 0.5971(2) 0.5365(4)
H23 H 0.2535 0.6058 0.5648
C29 C 0.1729(4) 0.5659(2) 0.5617(4)
H24 H 0.1884 0.5538 0.6086
C30 C 0.1117(3) 0.5513(2) 0.5193(3)
H25 H 0.0850 0.5297 0.5376
C31 C -0.2909(3) 0.48921(17) 0.2055(3)
C32 C -0.3394(3) 0.51702(19) 0.2255(3)
H26 H -0.3448 0.5441 0.2029
C33 C -0.3803(3) 0.5064(2) 0.2779(3)
H27 H -0.4123 0.5264 0.2919
C34 C -0.3747(3) 0.46692(19) 0.3098(3)
H28 H -0.4041 0.4591 0.3442
C35 C -0.3255(3) 0.43871(18) 0.2912(3)
H29 H -0.3205 0.4116 0.3137
C36 C -0.2836(3) 0.44982(17) 0.2399(3)
H30 H -0.2496 0.4304 0.2281
C37 C -0.1970(3) 0.57796(17) 0.3192(3)
C38 C -0.2442(3) 0.61047(19) 0.3244(3)
H31 H -0.2431 0.6353 0.2955
C39 C -0.2930(3) 0.6068(2) 0.3719(3)
H32 H -0.3257 0.6289 0.3747
C40 C -0.2939(4) 0.5714(2) 0.4145(4)
H33 H -0.3270 0.5692 0.4473
C41 C -0.2470(3) 0.5392(2) 0.4099(4)
H34 H -0.2479 0.5147 0.4395
C42 C -0.1983(3) 0.54217(19) 0.3622(3)
H35 H -0.1661 0.5198 0.3592
C43 C 0.0220(4) 0.6866(3) 0.4274(5)
C44 C 0.0560(6) 0.7098(4) 0.3797(4)
H36 H 0.0371 0.7112 0.3291
C45 C 0.1178(6) 0.7310(4) 0.4062(7)
H37 H 0.1411 0.7469 0.3736
C46 C 0.1456(5) 0.7290(4) 0.4803(8)
H38 H 0.1878 0.7434 0.4984
C47 C 0.1116(6) 0.7058(4) 0.5280(5)
H39 H 0.1306 0.7044 0.5787
C48 C 0.0498(6) 0.6846(4) 0.5016(5)
H40 H 0.0266 0.6687 0.5342
C49 C 0.8698(3) 0.91887(17) 0.1682(3)
H41 H 0.8710 0.9254 0.2186
C50 C 0.9041(3) 0.93375(18) 0.0574(3)
H42 H 0.9300 0.9506 0.0285
C51 C 0.1394(3) 0.55292(18) 0.0469(3)
H43 H 0.1111 0.5294 0.0293
C52 C 0.1989(3) 0.56069(18) 0.0169(3)
H44 H 0.2107 0.5429 -0.0207
C53 C 0.2415(3) 0.59448(18) 0.0417(3)
C54 C 0.2225(4) 0.6183(2) 0.0981(4)
H45 H 0.2513 0.6410 0.1184
C55 C 0.1615(4) 0.6089(2) 0.1251(4)
H46 H 0.1489 0.6259 0.1633
C56 C 0.3041(3) 0.60647(17) 0.0088(3)
C57 C 0.3059(3) 0.59968(18) -0.0653(3)
H47 H 0.2691 0.5847 -0.0946
C58 C 0.3616(3) 0.61489(17) -0.0958(3)
H48 H 0.3622 0.6099 -0.1464
C59 C 0.4142(3) 0.64145(19) 0.0147(3)
H49 H 0.4524 0.6557 0.0432
C60 C 0.3607(3) 0.62703(19) 0.0492(3)
H50 H 0.3626 0.6311 0.1004
C61 C 0.5434(3) 0.56915(18) -0.1398(3)
C62 C 0.6129(3) 0.5626(2) -0.1112(3)
H51 H 0.6471 0.5829 -0.1192
C63 C 0.6326(4) 0.5262(2) -0.0708(4)
H52 H 0.6801 0.5219 -0.0497
C64 C 0.5830(4) 0.4966(3) -0.0616(4)
H53 H 0.5968 0.4717 -0.0344
C65 C 0.5148(4) 0.5021(3) -0.0906(4)
H54 H 0.4813 0.4810 -0.0841
C66 C 0.4941(3) 0.5388(2) -0.1299(3)
H55 H 0.4463 0.5430 -0.1500
C67 C 0.3453(3) 0.7028(2) -0.2068(4)
C68 C 0.2968(4) 0.7069(3) -0.1586(5)
H56 H 0.3102 0.7210 -0.1131
C69 C 0.2306(6) 0.6911(3) -0.1757(6)
H57 H 0.1979 0.6939 -0.1427
C70 C 0.2138(5) 0.6722(3) -0.2373(5)
H58 H 0.1679 0.6609 -0.2476
C71 C 0.2555(5) 0.6669(3) -0.2895(6)
H59 H 0.2387 0.6534 -0.3348
C72 C 0.3273(4) 0.6831(3) -0.2731(4)
H60 H 0.3595 0.6800 -0.3065
C73 C 0.6137(3) 0.67591(17) 0.0331(3)
C74 C 0.6599(4) 0.6936(2) 0.0892(4)
H61 H 0.6613 0.7234 0.0955
C75 C 0.7047(4) 0.6680(3) 0.1367(4)
H62 H 0.7372 0.6804 0.1746
C76 C 0.7020(4) 0.6251(2) 0.1289(4)
H63 H 0.7322 0.6077 0.1619
C77 C 0.6557(3) 0.6071(2) 0.0736(3)
H64 H 0.6539 0.5773 0.0681
C78 C 0.6117(3) 0.63263(19) 0.0256(3)
H65 H 0.5799 0.6201 -0.0128
C79 C 0.6405(3) 0.55681(18) -0.3427(3)
C80 C 0.5739(3) 0.54139(19) -0.3369(3)
H66 H 0.5495 0.5525 -0.3003
C81 C 0.5430(4) 0.5102(2) -0.3838(3)
H67 H 0.4976 0.5002 -0.3792
C82 C 0.5773(4) 0.4935(2) -0.4369(4)
H68 H 0.5558 0.4724 -0.4696
C83 C 0.6437(4) 0.5081(2) -0.4418(4)
H69 H 0.6684 0.4963 -0.4774
C84 C 0.6744(4) 0.5392(2) -0.3960(3)
H70 H 0.7199 0.5490 -0.4011
C85 C 0.7520(3) 0.70124(17) -0.1933(3)
C86 C 0.8176(3) 0.70412(19) -0.1505(3)
H71 H 0.8250 0.6933 -0.1019
C87 C 0.8727(4) 0.7230(2) -0.1791(4)
H72 H 0.9172 0.7259 -0.1492
C88 C 0.8632(4) 0.7376(2) -0.2503(4)
H73 H 0.9010 0.7500 -0.2697
C89 C 0.7992(4) 0.7340(2) -0.2926(4)
H74 H 0.7927 0.7441 -0.3417
C90 C 0.7429(3) 0.71590(19) -0.2651(3)
H75 H 0.6986 0.7136 -0.2954
C91 C 0.4855(3) 0.66788(16) -0.4035(3)
C92 C 0.4595(3) 0.69253(19) -0.4638(3)
H76 H 0.4780 0.7201 -0.4683
C93 C 0.4072(3) 0.6779(2) -0.5176(3)
H77 H 0.3898 0.6952 -0.5585
C94 C 0.3807(3) 0.6378(2) -0.5111(3)
H78 H 0.3448 0.6274 -0.5478
C95 C 0.4059(3) 0.6129(2) -0.4518(3)
H79 H 0.3873 0.5853 -0.4481
C96 C 0.4577(3) 0.62750(19) -0.3977(3)
H80 H 0.4745 0.6102 -0.3566
C97 C 0.5560(3) 0.8253(2) -0.1993(3)
C98 C 0.5362(4) 0.8371(2) -0.1336(4)
H81 H 0.5403 0.8179 -0.0936
C99 C 0.5099(5) 0.8784(3) -0.1267(5)
H82 H 0.4971 0.8874 -0.0816
C100 C 0.5032(5) 0.9045(3) -0.1844(5)
H83 H 0.4849 0.9320 -0.1793
C101 C 0.5211(5) 0.8936(3) -0.2492(5)
H84 H 0.5146 0.9130 -0.2890
C102 C 0.5495(4) 0.8533(2) -0.2581(4)
H85 H 0.5640 0.8455 -0.3031
C103 C 0.3458(3) 0.79133(19) -0.3157(3)
C104 C 0.2793(4) 0.7756(2) -0.3419(4)
H86 H 0.2721 0.7580 -0.3842
C105 C 0.2234(4) 0.7856(2) -0.3062(4)
H87 H 0.1783 0.7746 -0.3242
C106 C 0.2324(4) 0.8105(2) -0.2468(4)
H88 H 0.1939 0.8169 -0.2225
C107 C 0.2979(4) 0.8268(2) -0.2210(4)
H89 H 0.3043 0.8448 -0.1793
C108 C 0.3542(4) 0.8171(2) -0.2559(3)
H90 H 0.3990 0.8286 -0.2379
C109 C 0.6759(3) 0.80089(17) 0.0145(3)
H91 H 0.6322 0.7951 0.0295
C110 C 0.7181(3) 0.83149(18) 0.0513(3)
H92 H 0.7032 0.8464 0.0907
C111 C 0.7827(3) 0.84050(17) 0.0305(3)
C112 C 0.8016(3) 0.81700(18) -0.0270(3)
H93 H 0.8458 0.8215 -0.0420
C113 C 0.7563(3) 0.78737(18) -0.0620(3)
H94 H 0.7697 0.7723 -0.1021
C114 C 0.8668(3) 0.90004(18) 0.0248(3)
H95 H 0.8676 0.8938 -0.0254
C115 C 0.8278(3) 0.87502(17) 0.0653(3)
C116 C 0.8316(3) 0.88428(18) 0.1399(3)
H96 H 0.8081 0.8670 0.1704
Zn2A Zn 0.96303(3) 0.99348(2) 0.17932(3)
N3A N 0.0942(2) 0.44405(14) 0.3717(2)
loop_
_geom_bond_atom_site_label_1
_geom_bond_atom_site_label_2
_geom_bond_site_symmetry_1
_geom_bond_site_symmetry_2
Zn1 S1 1_555 1_555
Zn2 S1 1_555 1_555
Zn3 S2 1_555 1_555
Zn4 S3 1_555 1_555
Zn5 S9 1_555 1_555
Zn6 S9 1_555 1_555
Zn7 S11 1_555 1_555
Zn8 S10 1_555 1_555
S1 C1 1_555 1_555
S2 Zn1 1_555 1_555
S3 Zn1 1_555 1_555
S4 Zn2 1_555 1_555
S5 Zn2 1_555 1_555
S6 Zn3 1_555 1_555
S7 Zn3 1_555 1_555
S8 Zn4 1_555 1_555
S9 C61 1_555 1_555
S10 Zn5 1_555 1_555
S11 Zn5 1_555 1_555
S12 Zn6 1_555 1_555
S13 Zn6 1_555 1_555
S14 Zn6 1_555 1_555
S15 Zn7 1_555 1_555
S16 Zn8 1_555 1_555
N1 Zn1 1_555 1_555
N2 Zn5 1_555 1_555
N3 C49 1_555 1_555
N4 Zn7 1_555 1_555
C1 C2 1_555 1_555
C2 H1 1_555 1_555
C3 C2 1_555 1_555
H2 C3 1_555 1_555
C4 C3 1_555 1_555
H3 C4 1_555 1_555
C5 C4 1_555 1_555
H4 C5 1_555 1_555
C6 C1 1_555 1_555
H5 C6 1_555 1_555
C7 S2 1_555 1_555
C8 C7 1_555 1_555
H6 C8 1_555 1_555
C9 C8 1_555 1_555
H7 C9 1_555 1_555
C10 C9 1_555 1_555
H8 C10 1_555 1_555
C11 C10 1_555 1_555
H9 C11 1_555 1_555
C12 C7 1_555 1_555
H10 C12 1_555 1_555
C13 S3 1_555 1_555
C14 C13 1_555 1_555
H11 C14 1_555 1_555
C15 C14 1_555 1_555
H12 C15 1_555 1_555
C16 C15 1_555 1_555
H13 C16 1_555 1_555
C17 C16 1_555 1_555
H14 C17 1_555 1_555
C18 C13 1_555 1_555
H15 C18 1_555 1_555
C19 S4 1_555 1_555
C20 C19 1_555 1_555
H16 C20 1_555 1_555
C21 C20 1_555 1_555
H17 C21 1_555 1_555
C22 C21 1_555 1_555
H18 C22 1_555 1_555
C23 C22 1_555 1_555
H19 C23 1_555 1_555
C24 C19 1_555 1_555
H20 C24 1_555 1_555
C25 S5 1_555 1_555
C26 C25 1_555 1_555
H21 C26 1_555 1_555
C27 C26 1_555 1_555
H22 C27 1_555 1_555
C28 C27 1_555 1_555
H23 C28 1_555 1_555
C29 C28 1_555 1_555
H24 C29 1_555 1_555
C30 C25 1_555 1_555
H25 C30 1_555 1_555
C31 S6 1_555 1_555
C32 C31 1_555 1_555
H26 C32 1_555 1_555
C33 C32 1_555 1_555
H27 C33 1_555 1_555
C34 C33 1_555 1_555
H28 C34 1_555 1_555
C35 C34 1_555 1_555
H29 C35 1_555 1_555
C36 C31 1_555 1_555
H30 C36 1_555 1_555
C37 S7 1_555 1_555
C38 C37 1_555 1_555
H31 C38 1_555 1_555
C39 C38 1_555 1_555
H32 C39 1_555 1_555
C40 C39 1_555 1_555
H33 C40 1_555 1_555
C41 C40 1_555 1_555
H34 C41 1_555 1_555
C42 C37 1_555 1_555
H35 C42 1_555 1_555
C43 S8 1_555 1_555
C44 C43 1_555 1_555
H36 C44 1_555 1_555
C45 C44 1_555 1_555
H37 C45 1_555 1_555
C46 C45 1_555 1_555
H38 C46 1_555 1_555
C47 C46 1_555 1_555
H39 C47 1_555 1_555
C48 C43 1_555 1_555
H40 C48 1_555 1_555
C49 H41 1_555 1_555
C50 N3 1_555 1_555
H42 C50 1_555 1_555
C51 N1 1_555 1_555
H43 C51 1_555 1_555
C52 C51 1_555 1_555
H44 C52 1_555 1_555
C53 C52 1_555 1_555
C54 C53 1_555 1_555
H45 C54 1_555 1_555
C55 N1 1_555 1_555
H46 C55 1_555 1_555
C56 C53 1_555 1_555
C57 C56 1_555 1_555
H47 C57 1_555 1_555
C58 N2 1_555 1_555
H48 C58 1_555 1_555
C59 N2 1_555 1_555
H49 C59 1_555 1_555
C60 C56 1_555 1_555
H50 C60 1_555 1_555
C61 C62 1_555 1_555
C62 H51 1_555 1_555
C63 C62 1_555 1_555
H52 C63 1_555 1_555
C64 C63 1_555 1_555
H53 C64 1_555 1_555
C65 C64 1_555 1_555
H54 C65 1_555 1_555
C66 C61 1_555 1_555
H55 C66 1_555 1_555
C67 S10 1_555 1_555
C68 C67 1_555 1_555
H56 C68 1_555 1_555
C69 C68 1_555 1_555
H57 C69 1_555 1_555
C70 C69 1_555 1_555
H58 C70 1_555 1_555
C71 C70 1_555 1_555
H59 C71 1_555 1_555
C72 C67 1_555 1_555
H60 C72 1_555 1_555
C73 S11 1_555 1_555
C74 C73 1_555 1_555
H61 C74 1_555 1_555
C75 C74 1_555 1_555
H62 C75 1_555 1_555
C76 C75 1_555 1_555
H63 C76 1_555 1_555
C77 C76 1_555 1_555
H64 C77 1_555 1_555
C78 C73 1_555 1_555
H65 C78 1_555 1_555
C79 S12 1_555 1_555
C80 C79 1_555 1_555
H66 C80 1_555 1_555
C81 C80 1_555 1_555
H67 C81 1_555 1_555
C82 C81 1_555 1_555
H68 C82 1_555 1_555
C83 C82 1_555 1_555
H69 C83 1_555 1_555
C84 C79 1_555 1_555
H70 C84 1_555 1_555
C85 S13 1_555 1_555
C86 C85 1_555 1_555
H71 C86 1_555 1_555
C87 C86 1_555 1_555
H72 C87 1_555 1_555
C88 C87 1_555 1_555
H73 C88 1_555 1_555
C89 C88 1_555 1_555
H74 C89 1_555 1_555
C90 C85 1_555 1_555
H75 C90 1_555 1_555
C91 S14 1_555 1_555
C92 C91 1_555 1_555
H76 C92 1_555 1_555
C93 C92 1_555 1_555
H77 C93 1_555 1_555
C94 C93 1_555 1_555
H78 C94 1_555 1_555
C95 C94 1_555 1_555
H79 C95 1_555 1_555
C96 C91 1_555 1_555
H80 C96 1_555 1_555
C97 S15 1_555 1_555
C98 C97 1_555 1_555
H81 C98 1_555 1_555
C99 C98 1_555 1_555
H82 C99 1_555 1_555
C100 C99 1_555 1_555
H83 C100 1_555 1_555
C101 C100 1_555 1_555
H84 C101 1_555 1_555
C102 C97 1_555 1_555
H85 C102 1_555 1_555
C103 S16 1_555 1_555
C104 C103 1_555 1_555
H86 C104 1_555 1_555
C105 C104 1_555 1_555
H87 C105 1_555 1_555
C106 C105 1_555 1_555
H88 C106 1_555 1_555
C107 C106 1_555 1_555
H89 C107 1_555 1_555
C108 C103 1_555 1_555
H90 C108 1_555 1_555
C109 N4 1_555 1_555
H91 C109 1_555 1_555
C110 C109 1_555 1_555
H92 C110 1_555 1_555
C111 C110 1_555 1_555
C112 C111 1_555 1_555
H93 C112 1_555 1_555
C113 N4 1_555 1_555
H94 C113 1_555 1_555
C114 C50 1_555 1_555
H95 C114 1_555 1_555
C115 C111 1_555 1_555
C116 C49 1_555 1_555
H96 C116 1_555 1_555
Zn2A N3 1_555 1_555
N3A Zn2 1_555 1_555
Zn3 S4 1_555 1_555
Zn4 S5 1_555 1_555
Zn4 S7 1_555 1_555
Zn7 S13 1_555 1_555
Zn8 S14 1_555 1_555
Zn8 S15 1_555 1_555
C5 C6 1_555 1_555
C11 C12 1_555 1_555
C17 C18 1_555 1_555
C23 C24 1_555 1_555
C29 C30 1_555 1_555
C35 C36 1_555 1_555
C41 C42 1_555 1_555
C47 C48 1_555 1_555
C54 C55 1_555 1_555
C57 C58 1_555 1_555
C59 C60 1_555 1_555
C65 C66 1_555 1_555
C71 C72 1_555 1_555
C77 C78 1_555 1_555
C83 C84 1_555 1_555
C89 C90 1_555 1_555
C95 C96 1_555 1_555
C101 C102 1_555 1_555
C107 C108 1_555 1_555
C112 C113 1_555 1_555
C114 C115 1_555 1_555
C115 C116 1_555 1_555

#END
