
#######################################################################
#
#                 Cambridge Crystallographic Data Centre
#                                CCDC 
#
#######################################################################
#
# If this CIF has been generated from an entry in the Cambridge 
# Structural Database, then it will include bibliographic, chemical, 
# crystal, experimental, refinement or atomic coordinate data resulting 
# from the CCDC's data processing and validation procedures.
#
#######################################################################

data_LOWCEH
_symmetry_cell_setting           monoclinic
_symmetry_space_group_name_H-M   'P 21/m'
_symmetry_Int_Tables_number      11
_space_group_name_Hall           '-P 2yb'
loop_
_symmetry_equiv_pos_site_id
_symmetry_equiv_pos_as_xyz
1 x,y,z
2 -x,1/2+y,-z
3 -x,-y,-z
4 x,1/2-y,z
_cell_length_a                   9.3678(4)
_cell_length_b                   13.6094(6)
_cell_length_c                   10.1421(4)
_cell_angle_alpha                90
_cell_angle_beta                 90.273(2)
_cell_angle_gamma                90
_cell_volume                     1293
loop_
_atom_site_label
_atom_site_type_symbol
_atom_site_fract_x
_atom_site_fract_y
_atom_site_fract_z
Ag1 Ag 1.38016(6) 0.7500 1.13155(6)
N1 N 1.1814(8) 0.7500 0.9943(8)
N2 N 1.2851(8) 0.5880(4) 1.2293(6)
O1 O 1.4839(5) 0.8548(3) 0.9445(5)
N3 N 1.5321(8) 0.7500 1.3091(8)
C1 C 1.1789(8) 0.5592(5) 1.3022(8)
C2 C 1.3638(9) 0.5167(5) 1.1744(7)
C3 C 1.1491(7) 0.4612(5) 1.3268(7)
H1 H 1.1190 0.6077 1.3403
C4 C 1.3349(7) 0.4190(4) 1.1934(6)
H2 H 1.4423 0.5345 1.1206
N4 N 1.2281(5) 0.3913(3) 1.2741(5)
H3 H 1.0712 0.4442 1.3820
C5 C 1.4168(6) 0.3388(4) 1.1301(5)
Co1 Co 1.21231(10) 0.2500 1.28979(10)
N5 N 1.3638(6) 0.2500 1.1698(6)
N6 N 1.0599(7) 0.2500 1.4140(7)
N7 N 1.3312(7) 0.2500 1.4456(7)
N8 N 1.0604(7) 0.2500 1.1623(7)
C6 C 0.9252(8) 0.2500 1.3636(7)
C7 C 1.0961(7) 0.2500 1.5442(8)
C8 C 1.2556(9) 0.2500 1.5587(9)
C9 C 1.4743(9) 0.2500 1.4532(8)
C10 C 0.9287(8) 0.2500 1.2161(8)
C11 C 1.0708(9) 0.2500 1.0315(9)
O2 O 0.8138(6) 0.2500 1.4250(6)
O3 O 1.0180(5) 0.2500 1.6389(5)
C12 C 1.3232(10) 0.2500 1.6797(9)
C13 C 1.5396(10) 0.2500 1.5783(9)
H4 H 1.5304 0.2500 1.3755
C14 C 0.8117(10) 0.2500 1.1385(9)
C15 C 0.9490(9) 0.2500 0.9548(10)
H5 H 1.1621 0.2500 0.9910
H6 H 1.2672 0.2500 1.7575
H7 H 1.6409 0.2500 1.5824
H8 H 0.7205 0.2500 1.1790
H9 H 0.9587 0.2500 0.8616
N2C N 1.2851(8) 0.9120(4) 1.2293(6)
O1C O 1.4839(5) 0.6452(3) 0.9445(5)
O1A O 1.5161(5) 0.3548(3) 1.0555(5)
N4C N 1.2281(5) 0.1087(3) 1.2741(5)
Ag1A Ag 1.61984(6) 0.2500 0.86845(6)
C5C C 1.4168(6) 0.1612(4) 1.1301(5)
C3C C 1.1491(7) 0.0388(5) 1.3268(7)
C4C C 1.3349(7) 0.0810(4) 1.1934(6)
O1B O 1.5161(5) 0.1452(3) 1.0555(5)
C1C C 1.1789(8) -0.0592(5) 1.3022(8)
H3C H 1.0712 0.0558 1.3820
C2C C 1.3638(9) -0.0167(5) 1.1744(7)
H1C H 1.1190 -0.1077 1.3403
N2C_2 N 1.2851(8) -0.0880(4) 1.2293(6)
H2C H 1.4423 -0.0345 1.1206
N3A N 1.4679(8) 0.2500 1.6909(8)
N1A N 0.8186(8) 0.2500 1.0057(8)
Ag1A_2 Ag 0.61984(6) 0.2500 0.86845(6)
Ag1_2 Ag 1.38016(6) -0.2500 1.13155(6)
Ag1A_3 Ag 1.61984(6) 0.2500 1.86845(6)
N9 N 0.6823(11) 1.0161(8) 0.3860(11)
O4 O 0.6046(14) 0.9873(11) 0.4814(12)
O5 O 0.8139(11) 0.9941(9) 0.3752(12)
O6 O 0.6242(13) 1.0722(9) 0.3045(13)
O7 O 0.8342(17) 0.9266(10) 0.0890(13)
H10 H 0.8303 0.9450 0.1686
H11 H 0.9180 0.9454 0.0596
O8? O 0.6637(18) 0.9536(11) 0.4357(14)
H12? H 0.7487 0.9786 0.4272
H13? H 0.6167 0.9802 0.4952
N10? N 0.8265(14) 0.9816(9) 0.1052(12)
O9? O 0.8490(14) 1.0373(9) 0.2017(13)
O10? O 0.7315(12) 0.9171(8) 0.1129(11)
O11? O 0.9032(13) 0.9866(9) 0.0033(13)
loop_
_geom_bond_atom_site_label_1
_geom_bond_atom_site_label_2
_geom_bond_site_symmetry_1
_geom_bond_site_symmetry_2
Ag1 N1 1_555 1_555
N2 Ag1 1_555 1_555
O1 Ag1 1_555 1_555
N3 Ag1 1_555 1_555
C1 N2 1_555 1_555
C2 N2 1_555 1_555
C3 C1 1_555 1_555
H1 C1 1_555 1_555
C4 C2 1_555 1_555
H2 C2 1_555 1_555
N4 C3 1_555 1_555
H3 C3 1_555 1_555
C5 C4 1_555 1_555
Co1 N4 1_555 1_555
N5 C5 1_555 1_555
N6 Co1 1_555 1_555
N7 Co1 1_555 1_555
N8 Co1 1_555 1_555
C6 N6 1_555 1_555
C7 N6 1_555 1_555
C8 N7 1_555 1_555
C9 N7 1_555 1_555
C10 N8 1_555 1_555
C11 N8 1_555 1_555
O2 C6 1_555 1_555
O3 C7 1_555 1_555
C12 C8 1_555 1_555
C13 C9 1_555 1_555
H4 C9 1_555 1_555
C14 C10 1_555 1_555
C15 C11 1_555 1_555
H5 C11 1_555 1_555
H6 C12 1_555 1_555
H7 C13 1_555 1_555
H8 C14 1_555 1_555
H9 C15 1_555 1_555
N9 O4 1_555 1_555
O5 N9 1_555 1_555
O6 N9 1_555 1_555
O7 H10 1_555 1_555
H11 O7 1_555 1_555
N2C Ag1 1_555 1_555
O1C Ag1 1_555 1_555
O1A C5 1_555 1_555
N4C Co1 1_555 1_555
Ag1A O1A 1_555 1_555
C5C N5 1_555 1_555
C3C N4C 1_555 1_555
C4C N4C 1_555 1_555
O1B Ag1A 1_555 1_555
C1C C3C 1_555 1_555
H3C C3C 1_555 1_555
C2C C4C 1_555 1_555
H1C C1C 1_555 1_555
N2C_2 C1C 1_555 1_555
H2C C2C 1_555 1_555
N3A C12 1_555 1_555
N1A C14 1_555 1_555
Ag1A_2 N1A 1_555 1_555
Ag1_2 N2C_2 1_555 1_555
Ag1A_3 N3A 1_555 1_555
C4 N4 1_555 1_555
Co1 N5 1_555 1_555
C6 C10 1_555 1_555
C7 C8 1_555 1_555
C13 N3A 1_555 1_555
C15 N1A 1_555 1_555
C5C C4C 1_555 1_555
C5C O1B 1_555 1_555
C2C N2C_2 1_555 1_555

#END
