
#######################################################################
#
#                 Cambridge Crystallographic Data Centre
#                                CCDC 
#
#######################################################################
#
# If this CIF has been generated from an entry in the Cambridge 
# Structural Database, then it will include bibliographic, chemical, 
# crystal, experimental, refinement or atomic coordinate data resulting 
# from the CCDC's data processing and validation procedures.
#
#######################################################################

data_LOWGIP
_symmetry_cell_setting           monoclinic
_symmetry_space_group_name_H-M   'C 2/c'
_symmetry_Int_Tables_number      15
_space_group_name_Hall           '-C 2yn'
loop_
_symmetry_equiv_pos_site_id
_symmetry_equiv_pos_as_xyz
1 x,y,z
2 -x,y,1/2-z
3 1/2+x,1/2+y,z
4 1/2-x,1/2+y,1/2-z
5 -x,-y,-z
6 x,-y,1/2+z
7 1/2-x,1/2-y,-z
8 1/2+x,1/2-y,1/2+z
_cell_length_a                   16.341(3)
_cell_length_b                   23.109(5)
_cell_length_c                   13.5680(17)
_cell_angle_alpha                90
_cell_angle_beta                 105.248(10)
_cell_angle_gamma                90
_cell_volume                     4943.24
loop_
_atom_site_label
_atom_site_type_symbol
_atom_site_fract_x
_atom_site_fract_y
_atom_site_fract_z
S3 S 0.0395(4) 0.0826(2) 0.2629(5)
O3 O 0.0000 0.1404(4) 0.2500
C15 C 0.0035(9) 0.0439(5) 0.3486(10)
S3A S -0.0395(4) 0.0826(2) 0.2371(5)
C15A C -0.0035(9) 0.0439(5) 0.1514(10)
S4 S 0.5116(4) 0.0513(2) 0.2136(4)
O4 O 0.5000 -0.0062(4) 0.2500
C16 C 0.4166(8) 0.0901(5) 0.1922(11)
S4A S 0.4884(4) 0.0513(2) 0.2864(4)
C16A C 0.5834(8) 0.0901(5) 0.3078(11)
Hg1 Hg 0.0000 0.191216(19) 0.7500
Cl1 Cl 0.11717(14) 0.25838(10) 0.7502(2)
S1 S -0.03800(14) 0.11784(8) 0.60468(13)
S2 S 0.30269(16) 0.51447(10) 0.46505(18)
O1 O -0.0450(3) 0.3762(2) 0.4543(4)
O2 O 0.1853(3) 0.2567(2) 0.3545(3)
N1 N -0.1069(3) 0.1914(2) 0.4516(4)
N2 N 0.0323(3) 0.1880(2) 0.4901(4)
N3 N -0.1109(3) 0.2910(2) 0.3921(4)
N4 N 0.0291(3) 0.2914(2) 0.4568(4)
N5 N 0.1441(4) 0.3429(2) 0.4124(4)
N6 N 0.1790(4) 0.3424(2) 0.2648(4)
N7 N 0.1653(4) 0.4466(2) 0.4352(4)
N8 N 0.2329(4) 0.4382(2) 0.3165(4)
C1 C -0.0376(4) 0.1678(3) 0.5123(4)
C2 C -0.0856(4) 0.2324(3) 0.3787(4)
H1 H -0.1098 0.2207 0.3091
C3 C 0.0115(4) 0.2338(3) 0.4139(4)
H2 H 0.0343 0.2273 0.3565
C4 C -0.1927(5) 0.1790(3) 0.4525(6)
H3 H -0.2276 0.1778 0.3834
H4 H -0.2131 0.2086 0.4896
H5 H -0.1947 0.1423 0.4847
C5 C 0.1176(5) 0.1660(3) 0.5315(6)
H6 H 0.1517 0.1754 0.4860
H7 H 0.1155 0.1247 0.5388
H8 H 0.1419 0.1832 0.5972
C6 C -0.0425(4) 0.3250(3) 0.4375(5)
C7 C -0.1878(4) 0.3176(3) 0.3304(5)
H9 H -0.2318 0.2890 0.3128
H10 H -0.2051 0.3481 0.3685
C8 C 0.1132(4) 0.3168(3) 0.4929(5)
H11 H 0.1122 0.3463 0.5424
H12 H 0.1526 0.2871 0.5241
C9 C 0.1711(4) 0.3082(3) 0.3445(5)
C10 C 0.1208(4) 0.4011(3) 0.3707(5)
H13 H 0.0606 0.4071 0.3483
C11 C 0.1592(4) 0.4020(3) 0.2792(5)
H14 H 0.1245 0.4182 0.2169
C12 C 0.2329(5) 0.4654(3) 0.4053(5)
C13 C 0.1385(6) 0.4686(4) 0.5209(7)
H15 H 0.1455 0.5098 0.5244
H16 H 0.1723 0.4515 0.5829
H17 H 0.0799 0.4592 0.5127
C14 C 0.2928(5) 0.4489(4) 0.2563(6)
H18 H 0.3267 0.4821 0.2829
H19 H 0.2624 0.4558 0.1864
H20 H 0.3289 0.4158 0.2599
S1A S 0.03800(14) 0.11784(8) -0.10468(13)
S2A S -0.30269(16) 0.51447(10) 0.03495(18)
O1A O 0.0450(3) 0.3762(2) 0.0457(4)
O2A O -0.1853(3) 0.2567(2) 0.1455(3)
N1A N 0.1069(3) 0.1914(2) 0.0484(4)
N2A N -0.0323(3) 0.1880(2) 0.0099(4)
N3A N 0.1109(3) 0.2910(2) 0.1079(4)
N4A N -0.0291(3) 0.2914(2) 0.0432(4)
N5A N -0.1441(4) 0.3429(2) 0.0876(4)
N6A N -0.1790(4) 0.3424(2) 0.2352(4)
N7A N -0.1653(4) 0.4466(2) 0.0648(4)
N8A N -0.2329(4) 0.4382(2) 0.1835(4)
C1A C 0.0376(4) 0.1678(3) -0.0123(4)
C2A C 0.0856(4) 0.2324(3) 0.1213(4)
H1A H 0.1098 0.2207 0.1909
C3A C -0.0115(4) 0.2338(3) 0.0861(4)
H2A H -0.0343 0.2273 0.1435
C4A C 0.1927(5) 0.1790(3) 0.0475(6)
H3A H 0.2276 0.1778 0.1166
H4A H 0.2131 0.2086 0.0104
H5A H 0.1947 0.1423 0.0153
C5A C -0.1176(5) 0.1660(3) -0.0315(6)
H6A H -0.1517 0.1754 0.0140
H7A H -0.1155 0.1247 -0.0388
H8A H -0.1419 0.1832 -0.0972
C6A C 0.0425(4) 0.3250(3) 0.0625(5)
C7A C 0.1878(4) 0.3176(3) 0.1696(5)
H9A H 0.2318 0.2890 0.1872
H10A H 0.2051 0.3481 0.1315
C8A C -0.1132(4) 0.3168(3) 0.0071(5)
H11A H -0.1122 0.3463 -0.0424
H12A H -0.1526 0.2871 -0.0241
C9A C -0.1711(4) 0.3082(3) 0.1555(5)
C10A C -0.1208(4) 0.4011(3) 0.1293(5)
H13A H -0.0606 0.4071 0.1517
C11A C -0.1592(4) 0.4020(3) 0.2208(5)
H14A H -0.1245 0.4182 0.2831
C12A C -0.2329(5) 0.4654(3) 0.0947(5)
C13A C -0.1385(6) 0.4686(4) -0.0209(7)
H15A H -0.1455 0.5098 -0.0244
H16A H -0.1723 0.4515 -0.0829
H17A H -0.0799 0.4592 -0.0127
C14A C -0.2928(5) 0.4489(4) 0.2437(6)
H18A H -0.3267 0.4821 0.2171
H19A H -0.2624 0.4558 0.3136
H20A H -0.3289 0.4158 0.2401
Cl1A Cl -0.11717(14) 0.25838(10) 0.7498(2)
Hg1_2 Hg 0.0000 0.191216(19) -0.2500
S1A_2 S 0.03800(14) 0.11784(8) 0.89532(13)
loop_
_geom_bond_atom_site_label_1
_geom_bond_atom_site_label_2
_geom_bond_site_symmetry_1
_geom_bond_site_symmetry_2
Hg1 Cl1 1_555 1_555
S1 Hg1 1_555 1_555
S2 C12 1_555 1_555
O1 C6 1_555 1_555
O2 C9 1_555 1_555
N1 C1 1_555 1_555
N2 C1 1_555 1_555
N3 C2 1_555 1_555
N4 C3 1_555 1_555
N5 C8 1_555 1_555
N6 C9 1_555 1_555
N7 C10 1_555 1_555
N8 C11 1_555 1_555
C1 S1 1_555 1_555
C2 N1 1_555 1_555
H1 C2 1_555 1_555
C3 N2 1_555 1_555
H2 C3 1_555 1_555
C4 N1 1_555 1_555
H3 C4 1_555 1_555
H4 C4 1_555 1_555
H5 C4 1_555 1_555
C5 N2 1_555 1_555
H6 C5 1_555 1_555
H7 C5 1_555 1_555
H8 C5 1_555 1_555
C6 N3 1_555 1_555
C7 N3 1_555 1_555
H9 C7 1_555 1_555
H10 C7 1_555 1_555
C8 N4 1_555 1_555
H11 C8 1_555 1_555
H12 C8 1_555 1_555
C9 N5 1_555 1_555
C10 N5 1_555 1_555
H13 C10 1_555 1_555
C11 N6 1_555 1_555
H14 C11 1_555 1_555
C12 N7 1_555 1_555
C13 N7 1_555 1_555
H15 C13 1_555 1_555
H16 C13 1_555 1_555
H17 C13 1_555 1_555
C14 N8 1_555 1_555
H18 C14 1_555 1_555
H19 C14 1_555 1_555
H20 C14 1_555 1_555
S3 O3 1_555 1_555
O3 S3A 1_555 1_555
C15 S3 1_555 1_555
S4 O4 1_555 1_555
O4 S4A 1_555 1_555
C16 S4 1_555 1_555
S1A C1A 1_555 1_555
S2A C12A 1_555 1_555
O1A C6A 1_555 1_555
O2A C9A 1_555 1_555
N1A C1A 1_555 1_555
N2A C1A 1_555 1_555
N3A C2A 1_555 1_555
N4A C3A 1_555 1_555
N5A C8A 1_555 1_555
N6A C7 1_555 1_555
N7A C10A 1_555 1_555
N8A C11A 1_555 1_555
C2A N1A 1_555 1_555
H1A C2A 1_555 1_555
C3A N2A 1_555 1_555
H2A C3A 1_555 1_555
C4A N1A 1_555 1_555
H3A C4A 1_555 1_555
H4A C4A 1_555 1_555
H5A C4A 1_555 1_555
C5A N2A 1_555 1_555
H6A C5A 1_555 1_555
H7A C5A 1_555 1_555
H8A C5A 1_555 1_555
C6A N3A 1_555 1_555
C7A N6 1_555 1_555
H9A C7A 1_555 1_555
H10A C7A 1_555 1_555
C8A N4A 1_555 1_555
H11A C8A 1_555 1_555
H12A C8A 1_555 1_555
C9A N5A 1_555 1_555
C10A N5A 1_555 1_555
H13A C10A 1_555 1_555
C11A N6A 1_555 1_555
H14A C11A 1_555 1_555
C12A N7A 1_555 1_555
C13A N7A 1_555 1_555
H15A C13A 1_555 1_555
H16A C13A 1_555 1_555
H17A C13A 1_555 1_555
C14A N8A 1_555 1_555
H18A C14A 1_555 1_555
H19A C14A 1_555 1_555
H20A C14A 1_555 1_555
Cl1A Hg1 1_555 1_555
Hg1_2 S1A 1_555 1_555
S1A_2 Hg1 1_555 1_555
S3A S3 1_555 1_555
C15A S3 1_555 1_555
S4A S4 1_555 1_555
C16A S4 1_555 1_555
N4 C6 1_555 1_555
N8 C12 1_555 1_555
C2 C3 1_555 1_555
C10 C11 1_555 1_555
C15 S3A 1_555 1_555
C16 S4A 1_555 1_555
N3A C7A 1_555 1_555
N4A C6A 1_555 1_555
N6A C9A 1_555 1_555
N8A C12A 1_555 1_555
C2A C3A 1_555 1_555
C10A C11A 1_555 1_555
S3A C15A 1_555 1_555
S4A C16A 1_555 1_555

#END
