
#######################################################################
#
#                 Cambridge Crystallographic Data Centre
#                                CCDC 
#
#######################################################################
#
# If this CIF has been generated from an entry in the Cambridge 
# Structural Database, then it will include bibliographic, chemical, 
# crystal, experimental, refinement or atomic coordinate data resulting 
# from the CCDC's data processing and validation procedures.
#
#######################################################################

data_LOWREW
_symmetry_cell_setting           orthorhombic
_symmetry_space_group_name_H-M   'P b c m'
_symmetry_Int_Tables_number      57
_space_group_name_Hall           '-P 2c 2b'
loop_
_symmetry_equiv_pos_site_id
_symmetry_equiv_pos_as_xyz
1 x,y,z
2 -x,-y,1/2+z
3 x,1/2-y,-z
4 -x,1/2+y,1/2-z
5 -x,-y,-z
6 x,y,1/2-z
7 -x,1/2+y,z
8 x,1/2-y,1/2+z
_cell_length_a                   6.0496(5)
_cell_length_b                   6.1407(5)
_cell_length_c                   28.625(3)
_cell_angle_alpha                90
_cell_angle_beta                 90
_cell_angle_gamma                90
_cell_volume                     1063.38
loop_
_atom_site_label
_atom_site_type_symbol
_atom_site_fract_x
_atom_site_fract_y
_atom_site_fract_z
C1 C 0.2499(4) 0.2532(5) 0.57134(9)
C2 C 0.3039(5) 0.1597(5) 0.61847(9)
H1 H 0.2573 0.0086 0.6187
H2 H 0.4633 0.1609 0.6220
C3 C 0.2055(6) 0.2687(5) 0.66044(9)
H3 H 0.0459 0.2556 0.6592
H4 H 0.2421 0.4225 0.6598
C4 C 0.2878(6) 0.1713(6) 0.70549(9)
H5 H 0.4477 0.1829 0.7060
H6 H 0.2512 0.0175 0.7056
C5 C 0.1976(8) 0.2730(8) 0.7500
H7 H 0.0378 0.2592 0.7500
H8 H 0.2327 0.4271 0.7500
K1 K 0.79171(16) 0.2500 0.5000
O1 O 0.3420(4) 0.1516(3) 0.53688(6)
O2 O 0.1296(4) 0.4119(4) 0.56624(7)
C1E C 0.2499(4) 0.2532(5) 0.92866(9)
C2E C 0.3039(5) 0.1597(5) 0.88153(9)
H1E H 0.2573 0.0086 0.8813
H2E H 0.4633 0.1609 0.8780
C3E C 0.2055(6) 0.2687(5) 0.83956(9)
H3E H 0.0459 0.2556 0.8408
H4E H 0.2421 0.4225 0.8402
C4E C 0.2878(6) 0.1713(6) 0.79451(9)
H5E H 0.4477 0.1829 0.7940
H6E H 0.2512 0.0175 0.7944
O1E O 0.3420(4) 0.1516(3) 0.96312(6)
O2E O 0.1296(4) 0.4119(4) 0.93376(7)
K1_2 K -0.20829(16) 0.2500 0.5000
K1A K 0.20829(16) -0.2500 1.0000
K1A_2 K 0.20829(16) 0.7500 1.0000
K1D K 0.20829(16) -0.2500 0.5000
K1D_2 K 0.20829(16) 0.7500 0.5000
K1E K -0.20829(16) 0.2500 1.0000
K1E_2 K 0.79171(16) 0.2500 1.0000
O1B O 0.3420(4) 0.3484(3) 0.46312(6)
O1D O 0.6580(4) -0.1516(3) 0.46312(6)
O1F O 0.6580(4) 0.6516(3) 0.53688(6)
O2_2 O 1.1296(4) 0.4119(4) 0.56624(7)
O2B O 1.1296(4) 0.0881(4) 0.43376(7)
O2D O 0.8704(4) 0.5881(4) 0.43376(7)
O2F O 0.8704(4) -0.0881(4) 0.56624(7)
loop_
_geom_bond_atom_site_label_1
_geom_bond_atom_site_label_2
_geom_bond_site_symmetry_1
_geom_bond_site_symmetry_2
C1 C2 1_555 1_555
C2 H1 1_555 1_555
H2 C2 1_555 1_555
C3 C2 1_555 1_555
H3 C3 1_555 1_555
H4 C3 1_555 1_555
C4 C3 1_555 1_555
H5 C4 1_555 1_555
H6 C4 1_555 1_555
C5 C4 1_555 1_555
H7 C5 1_555 1_555
H8 C5 1_555 1_555
K1 O1 1_555 1_555
O1 C1 1_555 1_555
O2 C1 1_555 1_555
C1E C2E 1_555 1_555
C2E H1E 1_555 1_555
H2E C2E 1_555 1_555
C3E C2E 1_555 1_555
H3E C3E 1_555 1_555
H4E C3E 1_555 1_555
C4E C5 1_555 1_555
H5E C4E 1_555 1_555
H6E C4E 1_555 1_555
O1E C1E 1_555 1_555
O2E C1E 1_555 1_555
K1_2 O2 1_555 1_555
K1A O1E 1_555 1_555
K1A_2 O2E 1_555 1_555
K1D O1 1_555 1_555
K1D_2 O2 1_555 1_555
K1E O2E 1_555 1_555
K1E_2 O1E 1_555 1_555
O1B K1 1_555 1_555
O1D K1 1_555 1_555
O1F K1 1_555 1_555
O2_2 K1 1_555 1_555
O2B K1 1_555 1_555
O2D K1 1_555 1_555
O2F K1 1_555 1_555
C3E C4E 1_555 1_555
K1D O1D 1_555 1_555
K1D_2 O1B 1_555 1_555
K1D_2 O1F 1_555 1_555

#END
