
#######################################################################
#
#                 Cambridge Crystallographic Data Centre
#                                CCDC 
#
#######################################################################
#
# If this CIF has been generated from an entry in the Cambridge 
# Structural Database, then it will include bibliographic, chemical, 
# crystal, experimental, refinement or atomic coordinate data resulting 
# from the CCDC's data processing and validation procedures.
#
#######################################################################

data_LOWRIY
_symmetry_cell_setting           orthorhombic
_symmetry_space_group_name_H-M   'P n a 21'
_symmetry_Int_Tables_number      33
_space_group_name_Hall           'P 2c -2n'
loop_
_symmetry_equiv_pos_site_id
_symmetry_equiv_pos_as_xyz
1 x,y,z
2 -x,-y,1/2+z
3 1/2+x,1/2-y,z
4 1/2-x,1/2+y,1/2+z
_cell_length_a                   14.2862(5)
_cell_length_b                   14.6144(5)
_cell_length_c                   24.8005(7)
_cell_angle_alpha                90
_cell_angle_beta                 90
_cell_angle_gamma                90
_cell_volume                     5177.95
loop_
_atom_site_label
_atom_site_type_symbol
_atom_site_fract_x
_atom_site_fract_y
_atom_site_fract_z
C1 C 0.1568(3) 0.6812(3) 0.3318(2)
C2 C 0.1270(5) 0.5870(3) 0.3135(2)
O1 O 0.0469(3) 0.5611(2) 0.32254(14)
N1 N 0.1910(3) 0.5351(3) 0.2890(2)
H1 H 0.2477(3) 0.5606(3) 0.2838(2)
C3 C 0.1739(5) 0.4428(4) 0.2696(2)
C4 C 0.2560(5) 0.4127(4) 0.2364(3)
H2 H 0.2627(5) 0.4541(4) 0.2066(3)
H3 H 0.3113(5) 0.4152(4) 0.2584(3)
H4 H 0.2477(5) 0.3516(4) 0.2231(3)
C5 C 0.1624(6) 0.3760(4) 0.3165(3)
H5 H 0.2182(6) 0.3772(4) 0.3381(3)
H6 H 0.1099(6) 0.3945(4) 0.3381(3)
H7 H 0.1523(6) 0.3151(4) 0.3033(3)
C6 C 0.0842(6) 0.4389(5) 0.2346(3)
O2 O 0.0343(4) 0.3738(4) 0.2312(2)
O3 O 0.0758(3) 0.5133(3) 0.2045(2)
C7 C -0.0026(6) 0.5201(6) 0.1711(3)
H8 H -0.0006(6) 0.5765(6) 0.1512(3)
H9 H -0.0010(6) 0.4695(6) 0.1464(3)
H10 H -0.0592(6) 0.5176(6) 0.1919(3)
C8 C 0.1667(4) 0.7006(3) 0.3872(2)
C9 C 0.1526(5) 0.6259(4) 0.4296(2)
O4 O 0.0866(3) 0.6344(2) 0.46092(15)
N2 N 0.2145(4) 0.5591(3) 0.4319(2)
H11 H 0.2597(4) 0.5580(3) 0.4066(2)
C10 C 0.2161(6) 0.4872(4) 0.4742(2)
C11 C 0.2777(7) 0.4117(5) 0.4553(3)
H12 H 0.2519(7) 0.3840(5) 0.4235(3)
H13 H 0.3392(7) 0.4347(5) 0.4475(3)
H14 H 0.2816(7) 0.3669(5) 0.4835(3)
C12 C 0.2561(7) 0.5306(5) 0.5258(3)
H15 H 0.2577(7) 0.4858(5) 0.5541(3)
H16 H 0.3187(7) 0.5506(5) 0.5180(3)
H17 H 0.2192(7) 0.5820(5) 0.5372(3)
C13 C 0.1228(7) 0.4535(5) 0.4829(4)
O5 O 0.0899(5) 0.4344(6) 0.5267(3)
O6 O 0.0747(5) 0.4410(3) 0.4383(2)
C14 C -0.0172(8) 0.4104(6) 0.4405(4)
H18 H -0.0417(8) 0.4060(6) 0.4045(4)
H19 H -0.0190(8) 0.3513(6) 0.4573(4)
H20 H -0.0544(8) 0.4526(6) 0.4610(4)
C15 C 0.1842(3) 0.7884(3) 0.4050(2)
C16 C 0.1953(5) 0.8131(3) 0.4648(2)
O7 O 0.1353(3) 0.8574(3) 0.48708(14)
N3 N 0.2756(3) 0.7846(3) 0.4870(2)
H21 H 0.3130(3) 0.7468(3) 0.4682(2)
C17 C 0.3060(5) 0.8149(5) 0.5407(2)
C18 C 0.3868(5) 0.7539(5) 0.5575(3)
H22 H 0.3663(5) 0.6917(5) 0.5613(3)
H23 H 0.4347(5) 0.7572(5) 0.5305(3)
H24 H 0.4113(5) 0.7751(5) 0.5913(3)
C19 C 0.3391(8) 0.9137(5) 0.5376(4)
H25 H 0.2895(8) 0.9543(5) 0.5271(4)
H26 H 0.3642(8) 0.9328(5) 0.5717(4)
H27 H 0.3876(8) 0.9150(5) 0.5108(4)
C20 C 0.2360(6) 0.8061(8) 0.5800(3)
O8 O 0.2174(5) 0.8604(6) 0.6164(2)
O9 O 0.1872(4) 0.7286(5) 0.5769(2)
C21 C 0.1201(7) 0.7188(8) 0.6180(4)
H28 H 0.0957(7) 0.6599(8) 0.6082(4)
H29 H 0.1465(7) 0.7157(8) 0.6536(4)
H30 H 0.0705(7) 0.7631(8) 0.6175(4)
C22 C 0.1935(3) 0.8597(3) 0.3676(2)
C23 C 0.2168(5) 0.9543(4) 0.3871(2)
O10 O 0.2984(3) 0.9708(3) 0.40129(15)
N4 N 0.1484(4) 1.0152(3) 0.3884(2)
H31 H 0.0925(4) 0.9983(3) 0.3749(2)
C24 C 0.1587(5) 1.1084(4) 0.4106(2)
C25 C 0.0765(5) 1.1649(4) 0.3922(3)
H32 H 0.0762(5) 1.1655(4) 0.3535(3)
H33 H 0.0199(5) 1.1370(4) 0.4051(3)
H34 H 0.0804(5) 1.2265(4) 0.4054(3)
C26 C 0.1667(6) 1.1041(5) 0.4718(3)
H35 H 0.2211(6) 1.0689(5) 0.4810(3)
H36 H 0.1724(6) 1.1646(5) 0.4866(3)
H37 H 0.1119(6) 1.0751(5) 0.4863(3)
C27 C 0.2476(5) 1.1534(4) 0.3896(3)
O11 O 0.2975(4) 1.2009(3) 0.4154(2)
O12 O 0.2579(3) 1.1391(3) 0.3363(2)
C28 C 0.3400(6) 1.1745(5) 0.3121(3)
H38 H 0.3395(6) 1.1574(5) 0.2747(3)
H39 H 0.3406(6) 1.2400(5) 0.3150(3)
H40 H 0.3948(6) 1.1498(5) 0.3291(3)
C29 C 0.1854(3) 0.8414(3) 0.3129(2)
C30 C 0.2060(5) 0.9203(3) 0.2747(2)
O13 O 0.2833(3) 0.9545(3) 0.27477(13)
N5 N 0.1325(3) 0.9473(3) 0.2454(2)
H41 H 0.0797(3) 0.9147(3) 0.2503(2)
C31 C 0.1254(4) 1.0231(4) 0.2064(2)
C32 C 0.2144(4) 1.0391(4) 0.1771(2)
H42 H 0.2345(4) 0.9853(4) 0.1582(2)
H43 H 0.2038(4) 1.0877(4) 0.1518(2)
H44 H 0.2619(4) 1.0573(4) 0.2023(2)
C33 C 0.0948(5) 1.1101(4) 0.2361(3)
H45 H 0.1434(5) 1.1303(4) 0.2600(3)
H46 H 0.0807(5) 1.1578(4) 0.2107(3)
H47 H 0.0397(5) 1.0959(4) 0.2566(3)
C34 C 0.0433(5) 0.9973(4) 0.1696(3)
O14 O -0.0172(3) 0.9453(3) 0.1830(2)
O15 O 0.0448(3) 1.0415(3) 0.1236(2)
C35 C -0.0272(5) 1.0230(5) 0.0871(3)
H48 H -0.0204(5) 1.0593(5) 0.0550(3)
H49 H -0.0234(5) 0.9593(5) 0.0779(3)
H50 H -0.0869(5) 1.0354(5) 0.1033(3)
C36 C 0.1690(3) 0.7525(3) 0.2947(2)
C37 C 0.1589(4) 0.7336(3) 0.2343(2)
O16 O 0.0832(3) 0.7144(2) 0.21484(13)
N6 N 0.2384(3) 0.7433(3) 0.2070(2)
H51 H 0.2901(3) 0.7610(3) 0.2249(2)
C38 C 0.2488(4) 0.7241(4) 0.1484(2)
C39 C 0.3386(5) 0.7722(5) 0.1307(2)
H52 H 0.3350(5) 0.8371(5) 0.1363(2)
H53 H 0.3880(5) 0.7472(5) 0.1524(2)
H54 H 0.3511(5) 0.7600(5) 0.0933(2)
C40 C 0.2525(5) 0.6233(4) 0.1394(2)
H55 H 0.1943(5) 0.5952(4) 0.1493(2)
H56 H 0.2652(5) 0.6112(4) 0.1020(2)
H57 H 0.3020(5) 0.5985(4) 0.1611(2)
C41 C 0.1705(4) 0.7722(5) 0.1191(2)
O17 O 0.1475(4) 0.8494(4) 0.1256(2)
O18 O 0.1314(3) 0.7178(3) 0.0827(2)
C42 C 0.0600(6) 0.7611(6) 0.0507(4)
H58 H 0.0369(6) 0.7176(6) 0.0249(4)
H59 H 0.0101(6) 0.7789(6) 0.0744(4)
H60 H 0.0833(6) 0.8140(6) 0.0321(4)
O19 O -0.0651(3) 0.7265(3) 0.4082(2)
O20 O -0.0856(3) 0.7334(3) 0.2717(2)
Na1 Na -0.09977(14) 0.61311(14) 0.33752(9)
Na1B Na 0.40023(14) 0.88689(14) 0.33752(9)
O10B O -0.2016(3) 0.5292(3) 0.40129(15)
O13B O -0.2167(3) 0.5455(3) 0.27477(13)
N7 N -0.0789(3) 0.9282(2) 0.34382(14)
O21 O -0.0044(4) 0.9002(5) 0.3489(5)
O22 O -0.1387(6) 0.8906(5) 0.3204(6)
O23 O -0.0906(7) 1.0126(4) 0.3506(7)
loop_
_geom_bond_atom_site_label_1
_geom_bond_atom_site_label_2
_geom_bond_site_symmetry_1
_geom_bond_site_symmetry_2
C1 C2 1_555 1_555
C2 O1 1_555 1_555
O1 Na1 1_555 1_555
N1 C2 1_555 1_555
H1 N1 1_555 1_555
C3 N1 1_555 1_555
C4 C3 1_555 1_555
H2 C4 1_555 1_555
H3 C4 1_555 1_555
H4 C4 1_555 1_555
C5 C3 1_555 1_555
H5 C5 1_555 1_555
H6 C5 1_555 1_555
H7 C5 1_555 1_555
C6 C3 1_555 1_555
O2 C6 1_555 1_555
O3 C6 1_555 1_555
C7 O3 1_555 1_555
H8 C7 1_555 1_555
H9 C7 1_555 1_555
H10 C7 1_555 1_555
C8 C1 1_555 1_555
C9 C8 1_555 1_555
O4 C9 1_555 1_555
N2 C9 1_555 1_555
H11 N2 1_555 1_555
C10 N2 1_555 1_555
C11 C10 1_555 1_555
H12 C11 1_555 1_555
H13 C11 1_555 1_555
H14 C11 1_555 1_555
C12 C10 1_555 1_555
H15 C12 1_555 1_555
H16 C12 1_555 1_555
H17 C12 1_555 1_555
C13 C10 1_555 1_555
O5 C13 1_555 1_555
O6 C13 1_555 1_555
C14 O6 1_555 1_555
H18 C14 1_555 1_555
H19 C14 1_555 1_555
H20 C14 1_555 1_555
C15 C8 1_555 1_555
C16 C15 1_555 1_555
O7 C16 1_555 1_555
N3 C16 1_555 1_555
H21 N3 1_555 1_555
C17 N3 1_555 1_555
C18 C17 1_555 1_555
H22 C18 1_555 1_555
H23 C18 1_555 1_555
H24 C18 1_555 1_555
C19 C17 1_555 1_555
H25 C19 1_555 1_555
H26 C19 1_555 1_555
H27 C19 1_555 1_555
C20 C17 1_555 1_555
O8 C20 1_555 1_555
O9 C20 1_555 1_555
C21 O9 1_555 1_555
H28 C21 1_555 1_555
H29 C21 1_555 1_555
H30 C21 1_555 1_555
C22 C15 1_555 1_555
C23 C22 1_555 1_555
O10 C23 1_555 1_555
N4 C23 1_555 1_555
H31 N4 1_555 1_555
C24 N4 1_555 1_555
C25 C24 1_555 1_555
H32 C25 1_555 1_555
H33 C25 1_555 1_555
H34 C25 1_555 1_555
C26 C24 1_555 1_555
H35 C26 1_555 1_555
H36 C26 1_555 1_555
H37 C26 1_555 1_555
C27 C24 1_555 1_555
O11 C27 1_555 1_555
O12 C27 1_555 1_555
C28 O12 1_555 1_555
H38 C28 1_555 1_555
H39 C28 1_555 1_555
H40 C28 1_555 1_555
C29 C22 1_555 1_555
C30 C29 1_555 1_555
O13 C30 1_555 1_555
N5 C30 1_555 1_555
H41 N5 1_555 1_555
C31 N5 1_555 1_555
C32 C31 1_555 1_555
H42 C32 1_555 1_555
H43 C32 1_555 1_555
H44 C32 1_555 1_555
C33 C31 1_555 1_555
H45 C33 1_555 1_555
H46 C33 1_555 1_555
H47 C33 1_555 1_555
C34 C31 1_555 1_555
O14 C34 1_555 1_555
O15 C34 1_555 1_555
C35 O15 1_555 1_555
H48 C35 1_555 1_555
H49 C35 1_555 1_555
H50 C35 1_555 1_555
C36 C1 1_555 1_555
C37 C36 1_555 1_555
O16 C37 1_555 1_555
N6 C37 1_555 1_555
H51 N6 1_555 1_555
C38 N6 1_555 1_555
C39 C38 1_555 1_555
H52 C39 1_555 1_555
H53 C39 1_555 1_555
H54 C39 1_555 1_555
C40 C38 1_555 1_555
H55 C40 1_555 1_555
H56 C40 1_555 1_555
H57 C40 1_555 1_555
C41 C38 1_555 1_555
O17 C41 1_555 1_555
O18 C41 1_555 1_555
C42 O18 1_555 1_555
H58 C42 1_555 1_555
H59 C42 1_555 1_555
H60 C42 1_555 1_555
O19 Na1 1_555 1_555
O20 Na1 1_555 1_555
Na1 O10B 1_555 1_555
N7 O21 1_555 1_555
O22 N7 1_555 1_555
O23 N7 1_555 1_555
Na1B O10 1_555 1_555
O13B Na1 1_555 1_555
C29 C36 1_555 1_555
O13 Na1B 1_555 1_555

#END
