
#######################################################################
#
#                 Cambridge Crystallographic Data Centre
#                                CCDC 
#
#######################################################################
#
# If this CIF has been generated from an entry in the Cambridge 
# Structural Database, then it will include bibliographic, chemical, 
# crystal, experimental, refinement or atomic coordinate data resulting 
# from the CCDC's data processing and validation procedures.
#
#######################################################################

data_LOXGIQ
_symmetry_cell_setting           monoclinic
_symmetry_space_group_name_H-M   'C 2/c'
_symmetry_Int_Tables_number      15
_space_group_name_Hall           '-C 2yn'
loop_
_symmetry_equiv_pos_site_id
_symmetry_equiv_pos_as_xyz
1 x,y,z
2 -x,y,1/2-z
3 1/2+x,1/2+y,z
4 1/2-x,1/2+y,1/2-z
5 -x,-y,-z
6 x,-y,1/2+z
7 1/2-x,1/2-y,-z
8 1/2+x,1/2-y,1/2+z
_cell_length_a                   20.080(6)
_cell_length_b                   18.657(5)
_cell_length_c                   13.864(4)
_cell_angle_alpha                90
_cell_angle_beta                 117.570(4)
_cell_angle_gamma                90
_cell_volume                     4604.12
loop_
_atom_site_label
_atom_site_type_symbol
_atom_site_fract_x
_atom_site_fract_y
_atom_site_fract_z
Eu1 Eu 0.150776(19) 0.319520(18) 0.27520(2)
S1 S 0.04644(8) 0.38044(8) -0.60112(10)
S2 S 0.19039(11) 0.22950(10) -0.22385(13)
O1 O -0.0348(2) 0.3832(2) -0.6592(3)
O2 O 0.0812(3) 0.4462(3) -0.6089(4)
O3 O 0.0742(3) 0.3159(3) -0.6323(4)
O4 O 0.1423(4) 0.1694(3) -0.2337(6)
O5 O 0.2349(3) 0.2545(4) -0.1141(4)
O6 O 0.2349(3) 0.2180(3) -0.2808(4)
O7 O 0.1880(4) 0.2155(4) 0.3889(5)
O8 O 0.2574(3) 0.1539(4) 0.5418(4)
N1 N 0.0845(4) 0.2175(3) 0.1495(5)
N2 N 0.1307(3) 0.3320(3) 0.0805(4)
N3 N 0.2004(3) 0.4327(3) 0.2343(4)
C1 C 0.0588(6) 0.1620(5) 0.1862(8)
H1 H 0.0728 0.1596 0.2616
C2 C 0.0133(8) 0.1090(5) 0.1189(10)
H2 H -0.0025 0.0704 0.1481
C3 C -0.0091(9) 0.1123(5) 0.0091(10)
H3 H -0.0430 0.0780 -0.0395
C4 C 0.0193(8) 0.1672(5) -0.0285(9)
H4 H 0.0072 0.1693 -0.1033
C5 C 0.0651(5) 0.2189(4) 0.0428(6)
C6 C 0.0951(4) 0.2797(3) 0.0067(5)
C7 C 0.0880(4) 0.2833(3) -0.0991(5)
H5 H 0.0652 0.2451 -0.1490
C8 C 0.1151(4) 0.3439(3) -0.1304(4)
C9 C 0.1472(3) 0.3973(3) -0.0548(4)
H6 H 0.1640 0.4397 -0.0745
C10 C 0.1555(3) 0.3905(3) 0.0501(4)
C11 C 0.1947(3) 0.4459(3) 0.1338(4)
C12 C 0.2233(4) 0.5070(4) 0.1146(5)
H7 H 0.2182 0.5162 0.0441
C13 C 0.2598(5) 0.5558(5) 0.1976(6)
H8 H 0.2794 0.5988 0.1841
C14 C 0.2676(5) 0.5423(5) 0.2991(7)
H9 H 0.2929 0.5751 0.3572
C15 C 0.2380(5) 0.4802(5) 0.3143(6)
H10 H 0.2441 0.4700 0.3850
C16 C 0.1044(3) 0.3508(3) -0.2442(4)
C17 C 0.1299(4) 0.3013(3) -0.2954(4)
C18 C 0.1117(4) 0.3099(3) -0.4056(5)
H11 H 0.1282 0.2757 -0.4407
C19 C 0.0700(3) 0.3679(3) -0.4619(4)
C20 C 0.0476(4) 0.4191(3) -0.4099(5)
H12 H 0.0191 0.4595 -0.4490
C21 C 0.0670(4) 0.4109(3) -0.3011(5)
H13 H 0.0542 0.4475 -0.2648
C22 C 0.2351(5) 0.2123(5) 0.4818(7)
O7F O 0.3120(4) 0.2845(4) 0.6111(5)
O8F O 0.2426(3) 0.3461(4) 0.4582(4)
C22F C 0.2649(5) 0.2877(5) 0.5182(7)
Eu1A Eu -0.150776(19) 0.319520(18) -0.77520(2)
S1A S -0.04644(8) 0.38044(8) 0.10112(10)
S2A S -0.19039(11) 0.22950(10) -0.27615(13)
O1A O 0.0348(2) 0.3832(2) 0.1592(3)
O2A O -0.0812(3) 0.4462(3) 0.1089(4)
O3A O -0.0742(3) 0.3159(3) 0.1323(4)
O4A O -0.1423(4) 0.1694(3) -0.2663(6)
O5A O -0.2349(3) 0.2545(4) -0.3859(4)
O6A O -0.2349(3) 0.2180(3) -0.2192(4)
N1A N -0.0845(4) 0.2175(3) -0.6495(5)
N2A N -0.1307(3) 0.3320(3) -0.5805(4)
N3A N -0.2004(3) 0.4327(3) -0.7343(4)
C1A C -0.0588(6) 0.1620(5) -0.6862(8)
H1A H -0.0728 0.1596 -0.7616
C2A C -0.0133(8) 0.1090(5) -0.6189(10)
H2A H 0.0025 0.0704 -0.6481
C3A C 0.0091(9) 0.1123(5) -0.5091(10)
H3A H 0.0430 0.0780 -0.4605
C4A C -0.0193(8) 0.1672(5) -0.4715(9)
H4A H -0.0072 0.1693 -0.3967
C5A C -0.0651(5) 0.2189(4) -0.5428(6)
C6A C -0.0951(4) 0.2797(3) -0.5067(5)
C7A C -0.0880(4) 0.2833(3) -0.4009(5)
H5A H -0.0652 0.2451 -0.3510
C8A C -0.1151(4) 0.3439(3) -0.3696(4)
C9A C -0.1472(3) 0.3973(3) -0.4452(4)
H6A H -0.1640 0.4397 -0.4255
C10A C -0.1555(3) 0.3905(3) -0.5501(4)
C11A C -0.1947(3) 0.4459(3) -0.6338(4)
C12A C -0.2233(4) 0.5070(4) -0.6146(5)
H7A H -0.2182 0.5162 -0.5441
C13A C -0.2598(5) 0.5558(5) -0.6976(6)
H8A H -0.2794 0.5988 -0.6841
C14A C -0.2676(5) 0.5423(5) -0.7991(7)
H9A H -0.2929 0.5751 -0.8572
C15A C -0.2380(5) 0.4802(5) -0.8143(6)
H10A H -0.2441 0.4700 -0.8850
C16A C -0.1044(3) 0.3508(3) -0.2558(4)
C17A C -0.1299(4) 0.3013(3) -0.2046(4)
C18A C -0.1117(4) 0.3099(3) -0.0944(5)
H11A H -0.1282 0.2757 -0.0593
C19A C -0.0700(3) 0.3679(3) -0.0381(4)
C20A C -0.0476(4) 0.4191(3) -0.0901(5)
H12A H -0.0191 0.4595 -0.0510
C21A C -0.0670(4) 0.4109(3) -0.1989(5)
H13A H -0.0542 0.4475 -0.2352
Eu1_2 Eu 0.150776(19) 0.319520(18) -0.72480(2)
Eu1A_2 Eu -0.150776(19) 0.319520(18) 0.22480(2)
Eu1F Eu 0.349224(19) 0.180480(18) -0.27520(2)
Eu1F_2 Eu 0.349224(19) 0.180480(18) 0.72480(2)
Eu1G Eu -0.349224(19) 0.180480(18) -0.22480(2)
O3_2 O 0.0742(3) 0.3159(3) 0.3677(4)
O3A_2 O -0.0742(3) 0.3159(3) -0.8677(4)
O6F O 0.2651(3) 0.2820(3) 0.2808(4)
O6G O -0.2651(3) 0.2820(3) -0.7808(4)
O7A O -0.1880(4) 0.2155(4) -0.8889(5)
O8G O -0.2426(3) 0.3461(4) -0.9582(4)
loop_
_geom_bond_atom_site_label_1
_geom_bond_atom_site_label_2
_geom_bond_site_symmetry_1
_geom_bond_site_symmetry_2
Eu1 O7 1_555 1_555
S1 O1 1_555 1_555
S2 O4 1_555 1_555
O1 Eu1A 1_555 1_555
O2 S1 1_555 1_555
O3 S1 1_555 1_555
O5 S2 1_555 1_555
O6 S2 1_555 1_555
O7 C22 1_555 1_555
O8 C22 1_555 1_555
N1 Eu1 1_555 1_555
N2 Eu1 1_555 1_555
N3 Eu1 1_555 1_555
C1 N1 1_555 1_555
H1 C1 1_555 1_555
C2 C1 1_555 1_555
H2 C2 1_555 1_555
C3 C2 1_555 1_555
H3 C3 1_555 1_555
C4 C3 1_555 1_555
H4 C4 1_555 1_555
C5 N1 1_555 1_555
C6 N2 1_555 1_555
C7 C6 1_555 1_555
H5 C7 1_555 1_555
C8 C7 1_555 1_555
C9 C8 1_555 1_555
H6 C9 1_555 1_555
C10 N2 1_555 1_555
C11 N3 1_555 1_555
C12 C11 1_555 1_555
H7 C12 1_555 1_555
C13 C12 1_555 1_555
H8 C13 1_555 1_555
C14 C13 1_555 1_555
H9 C14 1_555 1_555
C15 N3 1_555 1_555
H10 C15 1_555 1_555
C16 C8 1_555 1_555
C17 S2 1_555 1_555
C18 C17 1_555 1_555
H11 C18 1_555 1_555
C19 S1 1_555 1_555
C20 C19 1_555 1_555
H12 C20 1_555 1_555
C21 C16 1_555 1_555
H13 C21 1_555 1_555
C22 C22F 1_555 1_555
O7F C22F 1_555 1_555
O8F Eu1 1_555 1_555
C22F O8F 1_555 1_555
Eu1A N1A 1_555 1_555
S1A O1A 1_555 1_555
S2A O4A 1_555 1_555
O1A Eu1 1_555 1_555
O2A S1A 1_555 1_555
O3A S1A 1_555 1_555
O5A S2A 1_555 1_555
O6A S2A 1_555 1_555
N1A C1A 1_555 1_555
N2A Eu1A 1_555 1_555
N3A Eu1A 1_555 1_555
C1A H1A 1_555 1_555
C2A C1A 1_555 1_555
H2A C2A 1_555 1_555
C3A C2A 1_555 1_555
H3A C3A 1_555 1_555
C4A C3A 1_555 1_555
H4A C4A 1_555 1_555
C5A N1A 1_555 1_555
C6A N2A 1_555 1_555
C7A C6A 1_555 1_555
H5A C7A 1_555 1_555
C8A C7A 1_555 1_555
C9A C8A 1_555 1_555
H6A C9A 1_555 1_555
C10A N2A 1_555 1_555
C11A N3A 1_555 1_555
C12A C11A 1_555 1_555
H7A C12A 1_555 1_555
C13A C12A 1_555 1_555
H8A C13A 1_555 1_555
C14A C13A 1_555 1_555
H9A C14A 1_555 1_555
C15A N3A 1_555 1_555
H10A C15A 1_555 1_555
C16A C8A 1_555 1_555
C17A S2A 1_555 1_555
C18A C17A 1_555 1_555
H11A C18A 1_555 1_555
C19A S1A 1_555 1_555
C20A C19A 1_555 1_555
H12A C20A 1_555 1_555
C21A C16A 1_555 1_555
H13A C21A 1_555 1_555
Eu1_2 O3 1_555 1_555
Eu1A_2 O3A 1_555 1_555
Eu1F O6 1_555 1_555
Eu1F_2 O8 1_555 1_555
Eu1G O6A 1_555 1_555
O3_2 Eu1 1_555 1_555
O3A_2 Eu1A 1_555 1_555
O6F Eu1 1_555 1_555
O6G Eu1A 1_555 1_555
O7A Eu1A 1_555 1_555
O8G Eu1A 1_555 1_555
C4 C5 1_555 1_555
C5 C6 1_555 1_555
C9 C10 1_555 1_555
C10 C11 1_555 1_555
C14 C15 1_555 1_555
C16 C17 1_555 1_555
C18 C19 1_555 1_555
C20 C21 1_555 1_555
O7F Eu1F_2 1_555 1_555
C4A C5A 1_555 1_555
C5A C6A 1_555 1_555
C9A C10A 1_555 1_555
C10A C11A 1_555 1_555
C14A C15A 1_555 1_555
C16A C17A 1_555 1_555
C18A C19A 1_555 1_555
C20A C21A 1_555 1_555

#END
