
#######################################################################
#
#                 Cambridge Crystallographic Data Centre
#                                CCDC 
#
#######################################################################
#
# If this CIF has been generated from an entry in the Cambridge 
# Structural Database, then it will include bibliographic, chemical, 
# crystal, experimental, refinement or atomic coordinate data resulting 
# from the CCDC's data processing and validation procedures.
#
#######################################################################

data_LOXGUC
_symmetry_cell_setting           monoclinic
_symmetry_space_group_name_H-M   'C 2/c'
_symmetry_Int_Tables_number      15
_space_group_name_Hall           '-C 2yn'
loop_
_symmetry_equiv_pos_site_id
_symmetry_equiv_pos_as_xyz
1 x,y,z
2 -x,y,1/2-z
3 1/2+x,1/2+y,z
4 1/2-x,1/2+y,1/2-z
5 -x,-y,-z
6 x,-y,1/2+z
7 1/2-x,1/2-y,-z
8 1/2+x,1/2-y,1/2+z
_cell_length_a                   19.929(7)
_cell_length_b                   18.593(6)
_cell_length_c                   13.833(5)
_cell_angle_alpha                90
_cell_angle_beta                 117.925(4)
_cell_angle_gamma                90
_cell_volume                     4528.85
loop_
_atom_site_label
_atom_site_type_symbol
_atom_site_fract_x
_atom_site_fract_y
_atom_site_fract_z
Tb1 Tb 0.15085(2) 0.31790(2) 0.27446(3)
S1 S 0.04627(10) 0.38172(9) -0.60121(13)
S2 S 0.19002(13) 0.22906(13) -0.22364(17)
O1 O 0.0794(3) 0.4485(3) -0.6090(4)
O2 O 0.0765(4) 0.3191(3) -0.6307(4)
O3 O -0.0365(3) 0.3822(3) -0.6612(4)
O4 O 0.1419(5) 0.1686(5) -0.2365(8)
O5 O 0.2365(4) 0.2206(4) -0.2796(5)
O6 O 0.2357(4) 0.2535(4) -0.1127(5)
O7 O 0.2408(4) 0.3436(4) 0.4562(5)
O8 O 0.3145(5) 0.2872(5) 0.6146(6)
N1 N 0.2014(4) 0.4294(4) 0.2377(5)
N2 N 0.1306(4) 0.3316(3) 0.0815(5)
N3 N 0.0823(4) 0.2166(4) 0.1488(6)
C1 C 0.2393(5) 0.4761(6) 0.3196(8)
H1 H 0.2441 0.4656 0.3898
C2 C 0.2718(6) 0.5392(6) 0.3062(9)
H2 H 0.2998 0.5702 0.3665
C3 C 0.2624(6) 0.5558(5) 0.2022(8)
H3 H 0.2819 0.5995 0.1896
C4 C 0.2241(4) 0.5075(5) 0.1174(7)
H4 H 0.2175 0.5174 0.0461
C5 C 0.1962(4) 0.4456(4) 0.1377(6)
C6 C 0.1563(4) 0.3896(4) 0.0515(5)
C7 C 0.1490(4) 0.3977(4) -0.0528(6)
H5 H 0.1668 0.4400 -0.0719
C8 C 0.1153(4) 0.3428(4) -0.1288(6)
C9 C 0.0881(4) 0.2831(4) -0.0980(6)
H6 H 0.0652 0.2446 -0.1480
C10 C 0.0946(4) 0.2800(4) 0.0069(6)
C11 C 0.0651(6) 0.2188(5) 0.0417(7)
C12 C 0.0174(7) 0.1673(5) -0.0289(10)
H7 H 0.0061 0.1695 -0.1036
C13 C -0.0148(8) 0.1125(6) 0.0037(11)
H8 H -0.0516 0.0805 -0.0470
C14 C 0.0100(8) 0.1079(6) 0.1139(12)
H9 H -0.0043 0.0680 0.1430
C15 C 0.0558(7) 0.1611(6) 0.1831(9)
H10 H 0.0692 0.1583 0.2586
C16 C 0.1047(4) 0.3522(4) -0.2423(5)
C17 C 0.0684(4) 0.3694(4) -0.4627(6)
C18 C 0.0497(5) 0.4209(4) -0.4093(6)
H11 H 0.0247 0.4634 -0.4470
C19 C 0.0670(5) 0.4119(4) -0.2995(6)
H12 H 0.0523 0.4478 -0.2643
C20 C 0.1112(4) 0.3104(4) -0.4053(6)
H13 H 0.1283 0.2766 -0.4404
C21 C 0.1292(4) 0.3011(4) -0.2949(6)
C22 C 0.2658(6) 0.2867(5) 0.5192(9)
O7F O 0.2592(4) 0.1564(4) 0.5438(5)
O8F O 0.1855(5) 0.2128(5) 0.3854(6)
C22F C 0.2342(6) 0.2133(5) 0.4808(9)
Tb1A Tb -0.15085(2) 0.31790(2) -0.77446(3)
S1A S -0.04627(10) 0.38172(9) 0.10121(13)
S2A S -0.19002(13) 0.22906(13) -0.27636(17)
O1A O -0.0794(3) 0.4485(3) 0.1090(4)
O2A O -0.0765(4) 0.3191(3) 0.1307(4)
O3A O 0.0365(3) 0.3822(3) 0.1612(4)
O4A O -0.1419(5) 0.1686(5) -0.2635(8)
O5A O -0.2365(4) 0.2206(4) -0.2204(5)
O6A O -0.2357(4) 0.2535(4) -0.3873(5)
N1A N -0.2014(4) 0.4294(4) -0.7377(5)
N2A N -0.1306(4) 0.3316(3) -0.5815(5)
N3A N -0.0823(4) 0.2166(4) -0.6488(6)
C1A C -0.2393(5) 0.4761(6) -0.8196(8)
H1A H -0.2441 0.4656 -0.8898
C2A C -0.2718(6) 0.5392(6) -0.8062(9)
H2A H -0.2998 0.5702 -0.8665
C3A C -0.2624(6) 0.5558(5) -0.7022(8)
H3A H -0.2819 0.5995 -0.6896
C4A C -0.2241(4) 0.5075(5) -0.6174(7)
H4A H -0.2175 0.5174 -0.5461
C5A C -0.1962(4) 0.4456(4) -0.6377(6)
C6A C -0.1563(4) 0.3896(4) -0.5515(5)
C7A C -0.1490(4) 0.3977(4) -0.4472(6)
H5A H -0.1668 0.4400 -0.4281
C8A C -0.1153(4) 0.3428(4) -0.3712(6)
C9A C -0.0881(4) 0.2831(4) -0.4020(6)
H6A H -0.0652 0.2446 -0.3520
C10A C -0.0946(4) 0.2800(4) -0.5069(6)
C11A C -0.0651(6) 0.2188(5) -0.5417(7)
C12A C -0.0174(7) 0.1673(5) -0.4711(10)
H7A H -0.0061 0.1695 -0.3964
C13A C 0.0148(8) 0.1125(6) -0.5037(11)
H8A H 0.0516 0.0805 -0.4530
C14A C -0.0100(8) 0.1079(6) -0.6139(12)
H9A H 0.0043 0.0680 -0.6430
C15A C -0.0558(7) 0.1611(6) -0.6831(9)
H10A H -0.0692 0.1583 -0.7586
C16A C -0.1047(4) 0.3522(4) -0.2577(5)
C17A C -0.0684(4) 0.3694(4) -0.0373(6)
C18A C -0.0497(5) 0.4209(4) -0.0907(6)
H11A H -0.0247 0.4634 -0.0530
C19A C -0.0670(5) 0.4119(4) -0.2005(6)
H12A H -0.0523 0.4478 -0.2357
C20A C -0.1112(4) 0.3104(4) -0.0947(6)
H13A H -0.1283 0.2766 -0.0596
C21A C -0.1292(4) 0.3011(4) -0.2051(6)
Tb1_2 Tb 0.15085(2) 0.31790(2) -0.72554(3)
Tb1A_2 Tb -0.15085(2) 0.31790(2) 0.22554(3)
Tb1F Tb 0.34915(2) 0.18210(2) -0.27446(3)
Tb1F_2 Tb 0.34915(2) 0.18210(2) 0.72554(3)
Tb1G Tb -0.34915(2) 0.18210(2) -0.22554(3)
O2_2 O 0.0765(4) 0.3191(3) 0.3693(4)
O2A_2 O -0.0765(4) 0.3191(3) -0.8693(4)
O5F O 0.2635(4) 0.2794(4) 0.2796(5)
O5G O -0.2635(4) 0.2794(4) -0.7796(5)
O7A O -0.2408(4) 0.3436(4) -0.9562(5)
O8G O -0.1855(5) 0.2128(5) -0.8854(6)
loop_
_geom_bond_atom_site_label_1
_geom_bond_atom_site_label_2
_geom_bond_site_symmetry_1
_geom_bond_site_symmetry_2
Tb1 O7 1_555 1_555
S1 O1 1_555 1_555
S2 O4 1_555 1_555
O2 S1 1_555 1_555
O3 S1 1_555 1_555
O5 S2 1_555 1_555
O6 S2 1_555 1_555
O7 C22 1_555 1_555
O8 C22 1_555 1_555
N1 Tb1 1_555 1_555
N2 Tb1 1_555 1_555
N3 Tb1 1_555 1_555
C1 N1 1_555 1_555
H1 C1 1_555 1_555
C2 C1 1_555 1_555
H2 C2 1_555 1_555
C3 C2 1_555 1_555
H3 C3 1_555 1_555
C4 C3 1_555 1_555
H4 C4 1_555 1_555
C5 N1 1_555 1_555
C6 N2 1_555 1_555
C7 C6 1_555 1_555
H5 C7 1_555 1_555
C8 C7 1_555 1_555
C9 C8 1_555 1_555
H6 C9 1_555 1_555
C10 N2 1_555 1_555
C11 N3 1_555 1_555
C12 C11 1_555 1_555
H7 C12 1_555 1_555
C13 C12 1_555 1_555
H8 C13 1_555 1_555
C14 C13 1_555 1_555
H9 C14 1_555 1_555
C15 N3 1_555 1_555
H10 C15 1_555 1_555
C16 C8 1_555 1_555
C17 S1 1_555 1_555
C18 C17 1_555 1_555
H11 C18 1_555 1_555
C19 C16 1_555 1_555
H12 C19 1_555 1_555
C20 C17 1_555 1_555
H13 C20 1_555 1_555
C21 S2 1_555 1_555
C22 C22F 1_555 1_555
O7F C22F 1_555 1_555
O8F Tb1 1_555 1_555
C22F O8F 1_555 1_555
Tb1A O3 1_555 1_555
S1A O1A 1_555 1_555
S2A O4A 1_555 1_555
O2A S1A 1_555 1_555
O3A Tb1 1_555 1_555
O5A S2A 1_555 1_555
O6A S2A 1_555 1_555
N1A Tb1A 1_555 1_555
N2A Tb1A 1_555 1_555
N3A Tb1A 1_555 1_555
C1A N1A 1_555 1_555
H1A C1A 1_555 1_555
C2A C1A 1_555 1_555
H2A C2A 1_555 1_555
C3A C2A 1_555 1_555
H3A C3A 1_555 1_555
C4A C3A 1_555 1_555
H4A C4A 1_555 1_555
C5A N1A 1_555 1_555
C6A N2A 1_555 1_555
C7A C6A 1_555 1_555
H5A C7A 1_555 1_555
C8A C7A 1_555 1_555
C9A C8A 1_555 1_555
H6A C9A 1_555 1_555
C10A N2A 1_555 1_555
C11A N3A 1_555 1_555
C12A C11A 1_555 1_555
H7A C12A 1_555 1_555
C13A C12A 1_555 1_555
H8A C13A 1_555 1_555
C14A C13A 1_555 1_555
H9A C14A 1_555 1_555
C15A N3A 1_555 1_555
H10A C15A 1_555 1_555
C16A C8A 1_555 1_555
C17A S1A 1_555 1_555
C18A C17A 1_555 1_555
H11A C18A 1_555 1_555
C19A C16A 1_555 1_555
H12A C19A 1_555 1_555
C20A C17A 1_555 1_555
H13A C20A 1_555 1_555
C21A S2A 1_555 1_555
Tb1_2 O2 1_555 1_555
Tb1A_2 O2A 1_555 1_555
Tb1F O5 1_555 1_555
Tb1F_2 O8 1_555 1_555
Tb1G O5A 1_555 1_555
O2_2 Tb1 1_555 1_555
O2A_2 Tb1A 1_555 1_555
O5F Tb1 1_555 1_555
O5G Tb1A 1_555 1_555
O7A Tb1A 1_555 1_555
O8G Tb1A 1_555 1_555
C4 C5 1_555 1_555
C5 C6 1_555 1_555
C9 C10 1_555 1_555
C10 C11 1_555 1_555
C14 C15 1_555 1_555
C16 C21 1_555 1_555
C18 C19 1_555 1_555
C20 C21 1_555 1_555
O7F Tb1F_2 1_555 1_555
S1A O3A 1_555 1_555
C4A C5A 1_555 1_555
C5A C6A 1_555 1_555
C9A C10A 1_555 1_555
C10A C11A 1_555 1_555
C14A C15A 1_555 1_555
C16A C21A 1_555 1_555
C18A C19A 1_555 1_555
C20A C21A 1_555 1_555

#END
