
#######################################################################
#
#                 Cambridge Crystallographic Data Centre
#                                CCDC 
#
#######################################################################
#
# If this CIF has been generated from an entry in the Cambridge 
# Structural Database, then it will include bibliographic, chemical, 
# crystal, experimental, refinement or atomic coordinate data resulting 
# from the CCDC's data processing and validation procedures.
#
#######################################################################

data_LOXGOW
_symmetry_cell_setting           triclinic
_symmetry_space_group_name_H-M   'P -1'
_symmetry_Int_Tables_number      2
_space_group_name_Hall           '-P 1'
loop_
_symmetry_equiv_pos_site_id
_symmetry_equiv_pos_as_xyz
1 x,y,z
2 -x,-y,-z
_cell_length_a                   10.803(3)
_cell_length_b                   12.027(3)
_cell_length_c                   12.040(3)
_cell_angle_alpha                109.6780(10)
_cell_angle_beta                 103.133(3)
_cell_angle_gamma                109.48
_cell_volume                     1283.08
loop_
_atom_site_label
_atom_site_type_symbol
_atom_site_fract_x
_atom_site_fract_y
_atom_site_fract_z
Tb1 Tb 0.53242(3) 0.96481(2) 0.68224(2)
S1 S 0.33969(16) 1.71558(13) 1.35511(13)
S2 S 0.30474(18) 1.23389(15) 1.24873(16)
O1 O 0.1871(6) 1.6471(5) 1.3002(5)
O2 O 0.4008(5) 1.7588(5) 1.4927(4)
O3 O 0.3978(6) 1.8213(4) 1.3210(5)
O4 O 0.2897(7) 1.2779(5) 1.3687(6)
O5 O 0.1725(5) 1.1472(5) 1.1394(6)
O6 O 0.4089(5) 1.1792(4) 1.2492(5)
O7 O 0.3315(5) 0.9776(6) 0.5806(5)
O8 O 0.3133(5) 1.0337(5) 0.4212(4)
N1 N 0.7735(6) 1.1361(5) 0.8681(5)
N2 N 0.5275(6) 1.1017(5) 0.8921(5)
N3 N 0.3258(6) 0.8572(5) 0.7431(5)
C1 C 0.8963(7) 1.1449(7) 0.8587(7)
H1 H 0.8958 1.0721 0.7980
C2 C 1.0262(8) 1.2575(8) 0.9351(7)
H2 H 1.1105 1.2588 0.9278
C3 C 1.0248(8) 1.3670(7) 1.0218(7)
H3 H 1.1077 1.4458 1.0702
C4 C 0.9007(7) 1.3576(6) 1.0351(6)
H4 H 0.8997 1.4293 1.0960
C5 C 0.7736(7) 1.2405(5) 0.9579(5)
C6 C 0.6365(7) 1.2216(6) 0.9719(5)
C7 C 0.6209(8) 1.3198(6) 1.0637(6)
H5 H 0.6981 1.4018 1.1180
C8 C 0.4914(8) 1.2930(6) 1.0721(6)
C9 C 0.3777(8) 1.1651(6) 0.9900(6)
H6 H 0.2881 1.1442 0.9933
C10 C 0.4013(6) 1.0744(6) 0.9073(6)
C11 C 0.2888(7) 0.9346(6) 0.8245(6)
C12 C 0.1576(7) 0.8882(7) 0.8342(7)
H7 H 0.1350 0.9448 0.8911
C13 C 0.0611(8) 0.7573(7) 0.7587(7)
H8 H -0.0273 0.7244 0.7639
C14 C 0.0976(8) 0.6772(7) 0.6766(7)
H9 H 0.0343 0.5886 0.6245
C15 C 0.2302(8) 0.7296(6) 0.6717(7)
H10 H 0.2546 0.6737 0.6162
C16 C 0.4643(7) 1.3964(6) 1.1553(6)
C17 C 0.3807(7) 1.3809(6) 1.2296(6)
C18 C 0.3500(7) 1.4807(6) 1.2930(6)
H11 H 0.2949 1.4684 1.3409
C19 C 0.4003(7) 1.5993(6) 1.2861(6)
C20 C 0.4894(8) 1.6216(6) 1.2221(6)
H12 H 0.5260 1.7022 1.2199
C21 C 0.5241(9) 1.5232(6) 1.1612(7)
H13 H 0.5889 1.5411 1.1227
C22 C 0.2686(7) 1.0067(6) 0.5018(6)
C23 C 0.1297(7) 1.0050(7) 0.5002(6)
C24 C 0.0552(8) 0.9341(8) 0.5538(7)
H14 H 0.0927 0.8888 0.5889
C25 C -0.0738(8) 0.9303(7) 0.5554(7)
H15 H -0.1220 0.8848 0.5933
O7A O -0.3315(5) 1.0224(6) 0.4194(5)
O8A O -0.3133(5) 0.9663(5) 0.5788(4)
C22A C -0.2686(7) 0.9933(6) 0.4982(6)
C23A C -0.1297(7) 0.9950(7) 0.4998(6)
C24A C -0.0552(8) 1.0659(8) 0.4462(7)
H14A H -0.0927 1.1112 0.4111
C25A C 0.0738(8) 1.0697(7) 0.4446(7)
H15A H 0.1220 1.1152 0.4067
Tb1A Tb -0.53242(3) 1.03519(2) 0.31776(2)
S1A S -0.33969(16) 0.28442(13) -0.35511(13)
S2A S -0.30474(18) 0.76611(15) -0.24873(16)
O1A O -0.1871(6) 0.3529(5) -0.3002(5)
O2A O -0.4008(5) 0.2412(5) -0.4927(4)
O3A O -0.3978(6) 0.1787(4) -0.3210(5)
O4A O -0.2897(7) 0.7221(5) -0.3687(6)
O5A O -0.1725(5) 0.8528(5) -0.1394(6)
O6A O -0.4089(5) 0.8208(4) -0.2492(5)
N1A N -0.7735(6) 0.8639(5) 0.1319(5)
N2A N -0.5275(6) 0.8983(5) 0.1079(5)
N3A N -0.3258(6) 1.1428(5) 0.2569(5)
C1A C -0.8963(7) 0.8551(7) 0.1413(7)
H1A H -0.8958 0.9279 0.2020
C2A C -1.0262(8) 0.7425(8) 0.0649(7)
H2A H -1.1105 0.7412 0.0722
C3A C -1.0248(8) 0.6330(7) -0.0218(7)
H3A H -1.1077 0.5542 -0.0702
C4A C -0.9007(7) 0.6424(6) -0.0351(6)
H4A H -0.8997 0.5707 -0.0960
C5A C -0.7736(7) 0.7595(5) 0.0421(5)
C6A C -0.6365(7) 0.7784(6) 0.0281(5)
C7A C -0.6209(8) 0.6802(6) -0.0637(6)
H5A H -0.6981 0.5982 -0.1180
C8A C -0.4914(8) 0.7070(6) -0.0721(6)
C9A C -0.3777(8) 0.8349(6) 0.0100(6)
H6A H -0.2881 0.8558 0.0067
C10A C -0.4013(6) 0.9256(6) 0.0927(6)
C11A C -0.2888(7) 1.0654(6) 0.1755(6)
C12A C -0.1576(7) 1.1118(7) 0.1658(7)
H7A H -0.1350 1.0552 0.1089
C13A C -0.0611(8) 1.2427(7) 0.2413(7)
H8A H 0.0273 1.2756 0.2361
C14A C -0.0976(8) 1.3228(7) 0.3234(7)
H9A H -0.0343 1.4114 0.3755
C15A C -0.2302(8) 1.2704(6) 0.3283(7)
H10A H -0.2546 1.3263 0.3838
C16A C -0.4643(7) 0.6036(6) -0.1553(6)
C17A C -0.3807(7) 0.6191(6) -0.2296(6)
C18A C -0.3500(7) 0.5193(6) -0.2930(6)
H11A H -0.2949 0.5316 -0.3409
C19A C -0.4003(7) 0.4007(6) -0.2861(6)
C20A C -0.4894(8) 0.3784(6) -0.2221(6)
H12A H -0.5260 0.2978 -0.2199
C21A C -0.5241(9) 0.4768(6) -0.1612(7)
H13A H -0.5889 0.4589 -0.1227
Tb1_2 Tb -0.46758(3) -0.03519(2) -0.31776(2)
Tb1_3 Tb -0.46758(3) 0.96481(2) -0.31776(2)
Tb1_4 Tb -0.46758(3) 0.96481(2) 0.68224(2)
Tb1_5 Tb 0.53242(3) 1.96481(2) 1.68224(2)
Tb1A_2 Tb -0.53242(3) 0.03519(2) -0.68224(2)
Tb1A_3 Tb 0.46758(3) 1.03519(2) 0.31776(2)
Tb1A_4 Tb 0.46758(3) 1.03519(2) 1.31776(2)
Tb1A_5 Tb 0.46758(3) 2.03519(2) 1.31776(2)
O2_2 O 0.4008(5) 0.7588(5) 0.4927(4)
O2A_2 O -0.4008(5) 1.2412(5) 0.5073(4)
O3_2 O -0.6022(6) 0.8213(4) 0.3210(5)
O3A_2 O 0.6022(6) 1.1787(4) 0.6790(5)
O6_2 O -0.5911(5) 1.1792(4) 0.2492(5)
O6A_2 O 0.5911(5) 0.8208(4) 0.7508(5)
O8_2 O -0.6867(5) 1.0337(5) 0.4212(4)
O8A_2 O 0.6867(5) 0.9663(5) 0.5788(4)
O9 O -0.0967(10) 0.6218(9) 0.2779(8)
H16 H -0.1454 0.6262 0.3226
H17 H -0.0566 0.5893 0.3149
O10 O 0.7607(13) 0.5588(12) 0.4426(10)
H18 H 0.7943 0.6313 0.5069
H19 H 0.6726 0.5041 0.4060
loop_
_geom_bond_atom_site_label_1
_geom_bond_atom_site_label_2
_geom_bond_site_symmetry_1
_geom_bond_site_symmetry_2
Tb1 O7 1_555 1_555
S1 O1 1_555 1_555
S2 O4 1_555 1_555
O2 S1 1_555 1_555
O3 S1 1_555 1_555
O5 S2 1_555 1_555
O6 S2 1_555 1_555
O7 C22 1_555 1_555
O8 C22 1_555 1_555
N1 Tb1 1_555 1_555
N2 Tb1 1_555 1_555
N3 Tb1 1_555 1_555
C1 N1 1_555 1_555
H1 C1 1_555 1_555
C2 C1 1_555 1_555
H2 C2 1_555 1_555
C3 C2 1_555 1_555
H3 C3 1_555 1_555
C4 C3 1_555 1_555
H4 C4 1_555 1_555
C5 N1 1_555 1_555
C6 N2 1_555 1_555
C7 C6 1_555 1_555
H5 C7 1_555 1_555
C8 C7 1_555 1_555
C9 C8 1_555 1_555
H6 C9 1_555 1_555
C10 N2 1_555 1_555
C11 N3 1_555 1_555
C12 C11 1_555 1_555
H7 C12 1_555 1_555
C13 C12 1_555 1_555
H8 C13 1_555 1_555
C14 C13 1_555 1_555
H9 C14 1_555 1_555
C15 N3 1_555 1_555
H10 C15 1_555 1_555
C16 C8 1_555 1_555
C17 S2 1_555 1_555
C18 C17 1_555 1_555
H11 C18 1_555 1_555
C19 S1 1_555 1_555
C20 C19 1_555 1_555
H12 C20 1_555 1_555
C21 C16 1_555 1_555
H13 C21 1_555 1_555
C22 C23 1_555 1_555
C23 C24 1_555 1_555
C24 H14 1_555 1_555
C25 C24 1_555 1_555
H15 C25 1_555 1_555
O9 H16 1_555 1_555
H17 O9 1_555 1_555
O10 H18 1_555 1_555
H19 O10 1_555 1_555
O7A C22A 1_555 1_555
O8A C22A 1_555 1_555
C22A C23A 1_555 1_555
C23A C25 1_555 1_555
C24A C23A 1_555 1_555
H14A C24A 1_555 1_555
C25A C23 1_555 1_555
H15A C25A 1_555 1_555
Tb1A O7A 1_555 1_555
S1A O1A 1_555 1_555
S2A O4A 1_555 1_555
O2A S1A 1_555 1_555
O3A S1A 1_555 1_555
O5A S2A 1_555 1_555
O6A S2A 1_555 1_555
N1A Tb1A 1_555 1_555
N2A Tb1A 1_555 1_555
N3A Tb1A 1_555 1_555
C1A N1A 1_555 1_555
H1A C1A 1_555 1_555
C2A C1A 1_555 1_555
H2A C2A 1_555 1_555
C3A C2A 1_555 1_555
H3A C3A 1_555 1_555
C4A C3A 1_555 1_555
H4A C4A 1_555 1_555
C5A N1A 1_555 1_555
C6A N2A 1_555 1_555
C7A C6A 1_555 1_555
H5A C7A 1_555 1_555
C8A C7A 1_555 1_555
C9A C8A 1_555 1_555
H6A C9A 1_555 1_555
C10A N2A 1_555 1_555
C11A N3A 1_555 1_555
C12A C11A 1_555 1_555
H7A C12A 1_555 1_555
C13A C12A 1_555 1_555
H8A C13A 1_555 1_555
C14A C13A 1_555 1_555
H9A C14A 1_555 1_555
C15A N3A 1_555 1_555
H10A C15A 1_555 1_555
C16A C8A 1_555 1_555
C17A S2A 1_555 1_555
C18A C17A 1_555 1_555
H11A C18A 1_555 1_555
C19A S1A 1_555 1_555
C20A C19A 1_555 1_555
H12A C20A 1_555 1_555
C21A C16A 1_555 1_555
H13A C21A 1_555 1_555
Tb1_2 O3A 1_555 1_555
Tb1_3 O6A 1_555 1_555
Tb1_4 O8A 1_555 1_555
Tb1_5 O2 1_555 1_555
Tb1A_2 O2A 1_555 1_555
Tb1A_3 O8 1_555 1_555
Tb1A_4 O6 1_555 1_555
Tb1A_5 O3 1_555 1_555
O2_2 Tb1 1_555 1_555
O2A_2 Tb1A 1_555 1_555
O3_2 Tb1A 1_555 1_555
O3A_2 Tb1 1_555 1_555
O6_2 Tb1A 1_555 1_555
O6A_2 Tb1 1_555 1_555
O8_2 Tb1A 1_555 1_555
O8A_2 Tb1 1_555 1_555
C4 C5 1_555 1_555
C5 C6 1_555 1_555
C9 C10 1_555 1_555
C10 C11 1_555 1_555
C14 C15 1_555 1_555
C16 C17 1_555 1_555
C18 C19 1_555 1_555
C20 C21 1_555 1_555
C24A C25A 1_555 1_555
C4A C5A 1_555 1_555
C5A C6A 1_555 1_555
C9A C10A 1_555 1_555
C10A C11A 1_555 1_555
C14A C15A 1_555 1_555
C16A C17A 1_555 1_555
C18A C19A 1_555 1_555
C20A C21A 1_555 1_555

#END
