
#######################################################################
#
#                 Cambridge Crystallographic Data Centre
#                                CCDC 
#
#######################################################################
#
# If this CIF has been generated from an entry in the Cambridge 
# Structural Database, then it will include bibliographic, chemical, 
# crystal, experimental, refinement or atomic coordinate data resulting 
# from the CCDC's data processing and validation procedures.
#
#######################################################################

data_LOXPIZ
_symmetry_cell_setting           monoclinic
_symmetry_space_group_name_H-M   'P 21/c'
_symmetry_Int_Tables_number      14
_space_group_name_Hall           '-P 2ybc'
loop_
_symmetry_equiv_pos_site_id
_symmetry_equiv_pos_as_xyz
1 x,y,z
2 -x,1/2+y,1/2-z
3 -x,-y,-z
4 x,1/2-y,1/2+z
_cell_length_a                   14.4453(4)
_cell_length_b                   11.1637(2)
_cell_length_c                   16.9059(4)
_cell_angle_alpha                90
_cell_angle_beta                 102.4380(10)
_cell_angle_gamma                90
_cell_volume                     2662.31
loop_
_atom_site_label
_atom_site_type_symbol
_atom_site_fract_x
_atom_site_fract_y
_atom_site_fract_z
Au1 Au 0.004135(10) 0.682745(12) 0.722213(9)
Tl1 Tl 0.045112(11) 0.924819(14) 0.797651(11)
C1 C -0.1382(3) 0.7122(3) 0.6771(2)
C2 C -0.2001(3) 0.7584(3) 0.7226(2)
C3 C -0.2958(3) 0.7772(3) 0.6915(2)
C4 C -0.3333(3) 0.7562(4) 0.6094(3)
C5 C -0.2739(3) 0.7121(3) 0.5611(2)
C6 C -0.1792(3) 0.6879(3) 0.5963(2)
Cl1 Cl -0.15670(7) 0.79124(9) 0.82464(6)
Cl2 Cl -0.37084(8) 0.82420(11) 0.75201(7)
Cl3 Cl -0.45051(7) 0.78462(12) 0.56815(7)
Cl4 Cl -0.31915(8) 0.68627(11) 0.45967(7)
Cl5 Cl -0.11121(7) 0.61828(9) 0.53599(6)
C7 C 0.1472(3) 0.6548(3) 0.7622(2)
C8 C 0.2089(3) 0.6445(4) 0.7100(3)
C9 C 0.3068(3) 0.6354(4) 0.7363(3)
C10 C 0.3453(3) 0.6250(4) 0.8194(3)
C11 C 0.2868(3) 0.6283(4) 0.8735(3)
C12 C 0.1896(3) 0.6482(3) 0.8447(3)
Cl6 Cl 0.16186(8) 0.64862(11) 0.60618(7)
Cl7 Cl 0.38068(9) 0.63963(13) 0.66877(9)
Cl8 Cl 0.46658(8) 0.61176(12) 0.85340(9)
Cl9 Cl 0.33261(8) 0.61014(12) 0.97584(7)
Cl10 Cl 0.12024(8) 0.67497(10) 0.91497(6)
N1 N 0.2373(2) 0.9300(3) 0.8411(2)
C13 C 0.2957(3) 0.9169(4) 0.9143(3)
C14 C 0.3930(3) 0.9212(4) 0.9233(3)
H1 H 0.4323 0.9113 0.9742
C15 C 0.4314(3) 0.9401(4) 0.8568(3)
H2 H 0.4968 0.9436 0.8624
C16 C 0.3718(3) 0.9539(4) 0.7812(3)
H3 H 0.396 0.9665 0.7352
C17 C 0.2749(3) 0.9482(3) 0.7764(3)
C18 C 0.2072(3) 0.9615(4) 0.7009(3)
C19 C 0.1463(3) 0.9720(4) 0.6398(3)
C20 C 0.0732(3) 0.9865(4) 0.5688(2)
C21 C -0.0050(3) 0.9094(4) 0.5549(3)
H4 H -0.0084 0.8485 0.5917
C22 C 0.0770(3) 1.0770(3) 0.5130(3)
H5 H 0.1286 1.1288 0.5214
N1B N -0.2373(2) 1.0700(3) 0.1589(2)
C13B C -0.2957(3) 1.0831(4) 0.0857(3)
C14B C -0.3930(3) 1.0788(4) 0.0767(3)
H1B H -0.4323 1.0887 0.0258
C15B C -0.4314(3) 1.0599(4) 0.1432(3)
H2B H -0.4968 1.0564 0.1376
C16B C -0.3718(3) 1.0461(4) 0.2188(3)
H3B H -0.396 1.0335 0.2648
C17B C -0.2749(3) 1.0518(3) 0.2236(3)
C18B C -0.2072(3) 1.0385(4) 0.2991(3)
C19B C -0.1463(3) 1.0280(4) 0.3602(3)
C20B C -0.0732(3) 1.0135(4) 0.4312(2)
C21B C 0.0050(3) 1.0906(4) 0.4451(3)
H4B H 0.0084 1.1515 0.4083
C22B C -0.0770(3) 0.9230(3) 0.4870(3)
H5B H -0.1286 0.8712 0.4786
Au1B Au -0.004135(10) 1.317255(12) 0.277787(9)
Tl1B Tl -0.045112(11) 1.075181(14) 0.202349(11)
C1B C 0.1382(3) 1.2878(3) 0.3229(2)
C2B C 0.2001(3) 1.2416(3) 0.2774(2)
C3B C 0.2958(3) 1.2228(3) 0.3085(2)
C4B C 0.3333(3) 1.2438(4) 0.3906(3)
C5B C 0.2739(3) 1.2879(3) 0.4389(2)
C6B C 0.1792(3) 1.3121(3) 0.4037(2)
Cl1B Cl 0.15670(7) 1.20876(9) 0.17536(6)
Cl2B Cl 0.37084(8) 1.17580(11) 0.24799(7)
Cl3B Cl 0.45051(7) 1.21538(12) 0.43185(7)
Cl4B Cl 0.31915(8) 1.31373(11) 0.54033(7)
Cl5B Cl 0.11121(7) 1.38172(9) 0.46401(6)
C7B C -0.1472(3) 1.3452(3) 0.2378(2)
C8B C -0.2089(3) 1.3555(4) 0.2900(3)
C9B C -0.3068(3) 1.3646(4) 0.2637(3)
C10B C -0.3453(3) 1.3750(4) 0.1806(3)
C11B C -0.2868(3) 1.3717(4) 0.1265(3)
C12B C -0.1896(3) 1.3518(3) 0.1553(3)
Cl6B Cl -0.16186(8) 1.35138(11) 0.39382(7)
Cl7B Cl -0.38068(9) 1.36037(13) 0.33123(9)
Cl8B Cl -0.46658(8) 1.38824(12) 0.14660(9)
Cl9B Cl -0.33261(8) 1.38986(12) 0.02416(7)
Cl10B Cl -0.12024(8) 1.32503(10) 0.08503(6)
Au1A Au -0.004135(10) 1.182745(12) 0.777787(9)
Au1C Au 0.004135(10) 0.817255(12) 0.222213(9)
Tl1A Tl -0.045112(11) 0.424819(14) 0.702349(11)
Tl1C Tl 0.045112(11) 1.575181(14) 0.297651(11)
loop_
_geom_bond_atom_site_label_1
_geom_bond_atom_site_label_2
_geom_bond_site_symmetry_1
_geom_bond_site_symmetry_2
Au1 Tl1 1_555 1_555
Tl1 N1 1_555 1_555
C1 Au1 1_555 1_555
C2 C1 1_555 1_555
C3 C2 1_555 1_555
C4 C3 1_555 1_555
C5 C4 1_555 1_555
C6 C1 1_555 1_555
Cl1 C2 1_555 1_555
Cl2 C3 1_555 1_555
Cl3 C4 1_555 1_555
Cl4 C5 1_555 1_555
Cl5 C6 1_555 1_555
C7 Au1 1_555 1_555
C8 C7 1_555 1_555
C9 C8 1_555 1_555
C10 C9 1_555 1_555
C11 C10 1_555 1_555
C12 C7 1_555 1_555
Cl6 C8 1_555 1_555
Cl7 C9 1_555 1_555
Cl8 C10 1_555 1_555
Cl9 C11 1_555 1_555
Cl10 C12 1_555 1_555
N1 C13 1_555 1_555
C13 C14 1_555 1_555
C14 H1 1_555 1_555
C15 C14 1_555 1_555
H2 C15 1_555 1_555
C16 C15 1_555 1_555
H3 C16 1_555 1_555
C17 N1 1_555 1_555
C18 C17 1_555 1_555
C19 C18 1_555 1_555
C20 C19 1_555 1_555
C21 C20 1_555 1_555
H4 C21 1_555 1_555
C22 C20 1_555 1_555
H5 C22 1_555 1_555
N1B C13B 1_555 1_555
C13B C14B 1_555 1_555
C14B H1B 1_555 1_555
C15B C14B 1_555 1_555
H2B C15B 1_555 1_555
C16B C15B 1_555 1_555
H3B C16B 1_555 1_555
C17B N1B 1_555 1_555
C18B C17B 1_555 1_555
C19B C18B 1_555 1_555
C20B C19B 1_555 1_555
C21B C22 1_555 1_555
H4B C21B 1_555 1_555
C22B C21 1_555 1_555
H5B C22B 1_555 1_555
Au1B Tl1B 1_555 1_555
Tl1B N1B 1_555 1_555
C1B Au1B 1_555 1_555
C2B C1B 1_555 1_555
C3B C2B 1_555 1_555
C4B C3B 1_555 1_555
C5B C4B 1_555 1_555
C6B C1B 1_555 1_555
Cl1B C2B 1_555 1_555
Cl2B C3B 1_555 1_555
Cl3B C4B 1_555 1_555
Cl4B C5B 1_555 1_555
Cl5B C6B 1_555 1_555
C7B Au1B 1_555 1_555
C8B C7B 1_555 1_555
C9B C8B 1_555 1_555
C10B C9B 1_555 1_555
C11B C10B 1_555 1_555
C12B C7B 1_555 1_555
Cl6B C8B 1_555 1_555
Cl7B C9B 1_555 1_555
Cl8B C10B 1_555 1_555
Cl9B C11B 1_555 1_555
Cl10B C12B 1_555 1_555
Au1A Tl1 1_555 1_555
Au1C Tl1B 1_555 1_555
Tl1A Au1 1_555 1_555
Tl1C Au1B 1_555 1_555
C5 C6 1_555 1_555
C11 C12 1_555 1_555
C16 C17 1_555 1_555
C16B C17B 1_555 1_555
C20B C21B 1_555 1_555
C20B C22B 1_555 1_555
C5B C6B 1_555 1_555
C11B C12B 1_555 1_555

#END
