
#######################################################################
#
#                 Cambridge Crystallographic Data Centre
#                                CCDC 
#
#######################################################################
#
# If this CIF has been generated from an entry in the Cambridge 
# Structural Database, then it will include bibliographic, chemical, 
# crystal, experimental, refinement or atomic coordinate data resulting 
# from the CCDC's data processing and validation procedures.
#
#######################################################################

data_LOXVID02
_symmetry_cell_setting           monoclinic
_symmetry_space_group_name_H-M   'P 21/a'
_symmetry_Int_Tables_number      14
_space_group_name_Hall           '-P 2yab'
loop_
_symmetry_equiv_pos_site_id
_symmetry_equiv_pos_as_xyz
1 x,y,z
2 1/2-x,1/2+y,-z
3 -x,-y,-z
4 1/2+x,1/2-y,z
_cell_length_a                   6.7441(12)
_cell_length_b                   13.452(2)
_cell_length_c                   15.028(2)
_cell_angle_alpha                90
_cell_angle_beta                 97.568(13)
_cell_angle_gamma                90
_cell_volume                     1351.49
loop_
_atom_site_label
_atom_site_type_symbol
_atom_site_fract_x
_atom_site_fract_y
_atom_site_fract_z
Ag1 Ag -0.75358(4) 0.13407(2) -0.237384(15)
N1 N -0.6473(4) 0.1269(2) -0.09406(18)
N2 N -0.2515(5) 0.1612(3) 0.21230(19)
N3 N -0.2091(5) 0.1631(3) 0.30666(19)
N4 N 0.1528(4) 0.1239(2) 0.61831(18)
C1 C -0.4737(5) 0.1720(3) -0.0642(2)
C2 C -0.3947(5) 0.1735(3) 0.0257(2)
C3 C -0.5011(5) 0.1297(2) 0.0888(2)
C4 C -0.6812(6) 0.0827(3) 0.0579(2)
C5 C -0.7476(5) 0.0827(3) -0.0342(2)
C6 C -0.4274(6) 0.1328(3) 0.1852(2)
C7 C -0.0378(6) 0.1299(3) 0.3359(2)
C8 C 0.0270(5) 0.1278(2) 0.4331(2)
C9 C 0.2119(5) 0.0881(3) 0.4678(2)
C10 C 0.2685(5) 0.0871(3) 0.5606(2)
C11 C -0.0257(5) 0.1635(3) 0.5843(2)
C12 C -0.0934(5) 0.1653(3) 0.4938(2)
H1 H -0.407(6) 0.200(3) -0.106(3)
H2 H -0.279(6) 0.203(3) 0.047(3)
H3 H -0.757(5) 0.056(3) 0.095(2)
H4 H -0.881(7) 0.050(3) -0.060(3)
H5 H -0.523(8) 0.121(3) 0.222(3)
H6 H 0.045(6) 0.107(3) 0.301(3)
H7 H 0.301(6) 0.059(3) 0.431(2)
H8 H 0.392(5) 0.064(3) 0.584(2)
H9 H -0.101(5) 0.191(3) 0.625(2)
H10 H -0.230(6) 0.193(3) 0.476(3)
Ag1_2 Ag 0.24642(4) 0.13407(2) 0.762616(15)
N4_2 N -0.8472(4) 0.1239(2) -0.38169(18)
O1 O -0.3716(4) 0.1775(2) -0.26984(16)
O2 O -0.3168(5) 0.0210(2) -0.28296(19)
O3 O -0.1234(4) 0.1086(3) -0.18563(18)
N5 N -0.2685(4) 0.1017(3) -0.24595(17)
loop_
_geom_bond_atom_site_label_1
_geom_bond_atom_site_label_2
_geom_bond_site_symmetry_1
_geom_bond_site_symmetry_2
Ag1 N1 1_555 1_555
O1 N5 1_555 1_555
O2 N5 1_555 1_555
O3 N5 1_555 1_555
N1 C1 1_555 1_555
N2 N3 1_555 1_555
N3 C7 1_555 1_555
N4 C10 1_555 1_555
C1 C2 1_555 1_555
C2 C3 1_555 1_555
C3 C4 1_555 1_555
C4 C5 1_555 1_555
C5 N1 1_555 1_555
C6 N2 1_555 1_555
C7 C8 1_555 1_555
C8 C9 1_555 1_555
C9 C10 1_555 1_555
C10 H8 1_555 1_555
C11 N4 1_555 1_555
C12 C8 1_555 1_555
H1 C1 1_555 1_555
H2 C2 1_555 1_555
H3 C4 1_555 1_555
H4 C5 1_555 1_555
H5 C6 1_555 1_555
H6 C7 1_555 1_555
H7 C9 1_555 1_555
H9 C11 1_555 1_555
H10 C12 1_555 1_555
Ag1_2 N4 1_555 1_555
N4_2 Ag1 1_555 1_555
C3 C6 1_555 1_555
C11 C12 1_555 1_555

#END
