
#######################################################################
#
#                 Cambridge Crystallographic Data Centre
#                                CCDC 
#
#######################################################################
#
# If this CIF has been generated from an entry in the Cambridge 
# Structural Database, then it will include bibliographic, chemical, 
# crystal, experimental, refinement or atomic coordinate data resulting 
# from the CCDC's data processing and validation procedures.
#
#######################################################################

data_LOXVID
_symmetry_cell_setting           monoclinic
_symmetry_space_group_name_H-M   'C 2/c'
_symmetry_Int_Tables_number      15
_space_group_name_Hall           '-C 2yn'
loop_
_symmetry_equiv_pos_site_id
_symmetry_equiv_pos_as_xyz
1 x,y,z
2 1/2+x,1/2+y,z
3 x,-y,1/2+z
4 1/2+x,1/2-y,1/2+z
5 -x,-y,-z
6 1/2-x,1/2-y,-z
7 -x,y,1/2-z
8 1/2-x,1/2+y,1/2-z
_cell_length_a                   15.0530(10)
_cell_length_b                   13.7030(10)
_cell_length_c                   6.7720(10)
_cell_angle_alpha                90
_cell_angle_beta                 97.930(10)
_cell_angle_gamma                90
_cell_volume                     1383.51
loop_
_atom_site_label
_atom_site_type_symbol
_atom_site_fract_x
_atom_site_fract_y
_atom_site_fract_z
N3 N 1.0000 0.1528(11) 0.2500
O1 O 0.9721(8) 0.0724(8) 0.1412(16)
O2 O 0.9708(8) 0.2349(9) 0.1584(19)
O3 O 0.9417(8) 0.1541(13) 0.1121(16)
O1F O 1.0279(8) 0.0724(8) 0.3588(16)
O2F O 1.0292(8) 0.2349(9) 0.3416(19)
O3F O 1.0583(8) 0.1541(13) 0.3879(16)
Ag1 Ag -0.5000 0.38478(5) -0.7500
N1 N -0.6438(3) 0.3769(3) -0.8496(7)
N2 N -0.9531(4) 0.4089(5) -1.2282(10)
C1 C -0.7030(4) 0.3386(5) -0.7436(9)
H1 H -0.6817 0.3105 -0.6212
C2 C -0.7943(4) 0.3380(5) -0.8045(9)
H2 H -0.8330 0.3108 -0.7238
C3 C -0.8277(4) 0.3785(4) -0.9873(9)
C4 C -0.7659(4) 0.4181(5) -1.0979(9)
H3 H -0.7853 0.4459 -1.2216
C5 C -0.6766(4) 0.4165(4) -1.0264(9)
H4 H -0.6366 0.4440 -1.1034
C6 C -0.9241(4) 0.3805(4) -1.0559(10)
H5 H -0.9641 0.3605 -0.9709
N2F N -1.0469(4) 0.4089(5) -1.2718(10)
C6F C -1.0759(4) 0.3805(4) -1.4441(10)
C3F C -1.1723(4) 0.3785(4) -1.5127(9)
C2F C -1.2057(4) 0.3380(5) -1.6955(9)
C1F C -1.2970(4) 0.3386(5) -1.7564(9)
N1F N -1.3562(3) 0.3769(3) -1.6504(7)
C5F C -1.3234(4) 0.4165(4) -1.4736(9)
C4F C -1.2341(4) 0.4181(5) -1.4021(9)
H3F H -1.2147 0.4459 -1.2784
H4F H -1.3634 0.4440 -1.3966
H1F H -1.3183 0.3105 -1.8788
H2F H -1.1670 0.3108 -1.7762
H5F H -1.0359 0.3605 -1.5291
N1F_2 N -0.3562(3) 0.3769(3) -0.6504(7)
Ag1_2 Ag -1.5000 0.38478(5) -1.7500
loop_
_geom_bond_atom_site_label_1
_geom_bond_atom_site_label_2
_geom_bond_site_symmetry_1
_geom_bond_site_symmetry_2
Ag1 N1 1_555 1_555
N1 C1 1_555 1_555
N2 C6 1_555 1_555
C1 H1 1_555 1_555
C2 C1 1_555 1_555
H2 C2 1_555 1_555
C3 C2 1_555 1_555
C4 C3 1_555 1_555
H3 C4 1_555 1_555
C5 N1 1_555 1_555
H4 C5 1_555 1_555
C6 C3 1_555 1_555
H5 C6 1_555 1_555
N3 O1 1_555 1_555
O1 O3 1_555 1_555
O2 N3 1_555 1_555
O3 N3 1_555 1_555
N2F N2 1_555 1_555
C6F N2F 1_555 1_555
C3F C6F 1_555 1_555
C2F C3F 1_555 1_555
C1F C2F 1_555 1_555
N1F C1F 1_555 1_555
C5F N1F 1_555 1_555
C4F C3F 1_555 1_555
H3F C4F 1_555 1_555
H4F C5F 1_555 1_555
H1F C1F 1_555 1_555
H2F C2F 1_555 1_555
H5F C6F 1_555 1_555
O1F N3 1_555 1_555
O2F N3 1_555 1_555
O3F N3 1_555 1_555
N1F_2 Ag1 1_555 1_555
Ag1_2 N1F 1_555 1_555
C4 C5 1_555 1_555
O1 O1F 1_555 1_555
O2 O2F 1_555 1_555
O2 O3 1_555 1_555
C5F C4F 1_555 1_555
O1F O3F 1_555 1_555
O2F O3F 1_555 1_555

#END
