
#######################################################################
#
#                 Cambridge Crystallographic Data Centre
#                                CCDC 
#
#######################################################################
#
# If this CIF has been generated from an entry in the Cambridge 
# Structural Database, then it will include bibliographic, chemical, 
# crystal, experimental, refinement or atomic coordinate data resulting 
# from the CCDC's data processing and validation procedures.
#
#######################################################################

data_LOXVID01
_symmetry_cell_setting           monoclinic
_symmetry_space_group_name_H-M   'P 21/c'
_symmetry_Int_Tables_number      14
_space_group_name_Hall           '-P 2ybc'
loop_
_symmetry_equiv_pos_site_id
_symmetry_equiv_pos_as_xyz
1 x,y,z
2 x,1/2-y,1/2+z
3 -x,-y,-z
4 -x,1/2+y,1/2-z
_cell_length_a                   15.0250(2)
_cell_length_b                   13.4340(3)
_cell_length_c                   6.7420(5)
_cell_angle_alpha                90
_cell_angle_beta                 97.5750(11)
_cell_angle_gamma                90
_cell_volume                     1348.97
loop_
_atom_site_label
_atom_site_type_symbol
_atom_site_fract_x
_atom_site_fract_y
_atom_site_fract_z
Ag1 Ag 0.262926(12) 0.133925(14) 0.74567(2)
N1 N 0.11869(13) 0.12417(14) 0.6519(3)
C1 C 0.08483(16) 0.16330(18) 0.4727(4)
H1 H 0.1252 0.1905 0.3898
C2 C -0.00543(16) 0.16529(18) 0.4060(4)
H2 H -0.0265 0.1923 0.2782
C3 C -0.06622(16) 0.12742(17) 0.5268(4)
C4 C -0.03156(15) 0.08754(19) 0.7108(4)
H3 H -0.0706 0.0609 0.7973
C5 C 0.06074(16) 0.08699(19) 0.7672(4)
H4 H 0.0837 0.0590 0.8930
C6 C -0.16378(16) 0.12943(18) 0.4629(4)
H5 H -0.2042 0.1059 0.5495
N2 N -0.19333(14) 0.16301(18) 0.2904(3)
N3 N -0.28716(15) 0.16197(18) 0.2491(3)
C7 C -0.31464(17) 0.13313(19) 0.0719(4)
H6 H -0.2725 0.1138 -0.0142
C8 C -0.41099(16) 0.12952(18) -0.0005(4)
C9 C -0.47415(16) 0.17436(19) 0.1045(4)
H7 H -0.4556 0.2060 0.2291
C10 C -0.56361(15) 0.17262(19) 0.0264(3)
H8 H -0.6057 0.2050 0.0980
C11 C -0.44216(16) 0.08270(19) -0.1807(4)
H9 H -0.4012 0.0512 -0.2567
C12 C -0.53352(16) 0.08254(19) -0.2483(4)
H10 H -0.5540 0.0497 -0.3706
N4 N -0.59403(13) 0.12682(14) -0.1479(3)
N4_2 N 0.40597(13) 0.12682(14) 0.8521(3)
Ag1_2 Ag -0.737074(12) 0.133925(14) -0.25433(2)
N5 N 0.25438(13) 0.10181(18) 0.2307(3)
O1 O 0.23068(11) 0.17794(13) 0.1279(3)
O2 O 0.31470(13) 0.10837(16) 0.3755(3)
O3 O 0.21689(13) 0.02125(14) 0.1841(3)
loop_
_geom_bond_atom_site_label_1
_geom_bond_atom_site_label_2
_geom_bond_site_symmetry_1
_geom_bond_site_symmetry_2
Ag1 N1 1_555 1_555
N1 C1 1_555 1_555
C1 H1 1_555 1_555
C2 C1 1_555 1_555
H2 C2 1_555 1_555
C3 C2 1_555 1_555
C4 C3 1_555 1_555
H3 C4 1_555 1_555
C5 N1 1_555 1_555
H4 C5 1_555 1_555
C6 C3 1_555 1_555
H5 C6 1_555 1_555
N2 C6 1_555 1_555
N3 N2 1_555 1_555
C7 N3 1_555 1_555
H6 C7 1_555 1_555
C8 C7 1_555 1_555
C9 C8 1_555 1_555
H7 C9 1_555 1_555
C10 C9 1_555 1_555
H8 C10 1_555 1_555
C11 C8 1_555 1_555
H9 C11 1_555 1_555
C12 C11 1_555 1_555
H10 C12 1_555 1_555
N4 C10 1_555 1_555
N5 O1 1_555 1_555
O2 N5 1_555 1_555
O3 N5 1_555 1_555
N4_2 Ag1 1_555 1_555
Ag1_2 N4 1_555 1_555
C4 C5 1_555 1_555
C12 N4 1_555 1_555

#END
