
#######################################################################
#
#                 Cambridge Crystallographic Data Centre
#                                CCDC 
#
#######################################################################
#
# If this CIF has been generated from an entry in the Cambridge 
# Structural Database, then it will include bibliographic, chemical, 
# crystal, experimental, refinement or atomic coordinate data resulting 
# from the CCDC's data processing and validation procedures.
#
#######################################################################

data_LOXWAY
_symmetry_cell_setting           monoclinic
_symmetry_space_group_name_H-M   'C 2/c'
_symmetry_Int_Tables_number      15
_space_group_name_Hall           '-C 2yn'
loop_
_symmetry_equiv_pos_site_id
_symmetry_equiv_pos_as_xyz
1 x,y,z
2 -x,y,1/2-z
3 1/2+x,1/2+y,z
4 1/2-x,1/2+y,1/2-z
5 -x,-y,-z
6 x,-y,1/2+z
7 1/2-x,1/2-y,-z
8 1/2+x,1/2-y,1/2+z
_cell_length_a                   24.241(2)
_cell_length_b                   13.2483(11)
_cell_length_c                   8.5771(7)
_cell_angle_alpha                90
_cell_angle_beta                 90.0800(10)
_cell_angle_gamma                90
_cell_volume                     2754.55
loop_
_atom_site_label
_atom_site_type_symbol
_atom_site_fract_x
_atom_site_fract_y
_atom_site_fract_z
Cu1 Cu 0.704550(10) 0.293969(17) 0.55008(2)
O1 O 0.74691(7) 0.29239(11) 0.74715(17)
O2 O 0.82174(6) 0.65609(11) 0.90560(18)
O3 O 0.74407(7) 0.58189(11) 0.98666(18)
O4 O 0.82564(7) 0.22415(12) 0.66227(17)
N1 N 0.63896(7) 0.37009(13) 0.67506(18)
C1 C 0.82298(9) 0.29036(15) 0.9208(2)
H1 H 0.8635 0.2929 0.9079
H2 H 0.8144 0.2353 0.9950
C2 C 0.81479(9) 0.47888(15) 0.8788(2)
H3 H 0.8553 0.4853 0.8672
H4 H 0.7995 0.4623 0.7749
C3 C 0.79644(8) 0.26691(15) 0.7645(2)
C4 C 0.56137(9) 0.36102(16) 0.8476(2)
H5 H 0.5345 0.3205 0.8983
C5 C 0.79188(8) 0.58020(15) 0.9290(2)
C6 C 0.64131(8) 0.46977(16) 0.7009(2)
H6 H 0.6695 0.5079 0.6514
C7 C 0.80290(9) 0.39100(15) 0.9888(2)
H7 H 0.7627 0.3871 1.0082
H8 H 0.8215 0.4032 1.0899
C8 C 0.59990(9) 0.31750(16) 0.7498(2)
H9 H 0.5986 0.2465 0.7349
C9 C 0.56250(8) 0.46590(16) 0.8711(2)
C10 C 0.52222(9) 0.51984(16) 0.9677(2)
H10 H 0.5287 0.5896 0.9855
C11 C 0.60431(9) 0.51945(16) 0.7969(2)
H11 H 0.6075 0.5902 0.8121
N1D N 0.36104(7) 0.62991(13) 1.32494(18)
C4D C 0.43863(9) 0.63898(16) 1.1524(2)
H5D H 0.4655 0.6795 1.1017
C6D C 0.35869(8) 0.53023(16) 1.2991(2)
H6D H 0.3305 0.4921 1.3486
C8D C 0.40010(9) 0.68250(16) 1.2502(2)
H9D H 0.4014 0.7535 1.2651
C9D C 0.43750(8) 0.53410(16) 1.1289(2)
C10D C 0.47778(9) 0.48016(16) 1.0323(2)
H10D H 0.4713 0.4104 1.0145
C11D C 0.39569(9) 0.48055(16) 1.2031(2)
H11D H 0.3925 0.4098 1.1879
Cu1D Cu 0.295450(10) 0.706031(17) 1.44992(2)
O1D O 0.25309(7) 0.70761(11) 1.25285(17)
O2D O 0.17826(6) 0.34391(11) 1.09440(18)
O3D O 0.25593(7) 0.41811(11) 1.01334(18)
O4D O 0.17436(7) 0.77585(12) 1.33773(17)
C1D C 0.17702(9) 0.70964(15) 1.0792(2)
H1D H 0.1365 0.7071 1.0921
H2D H 0.1856 0.7647 1.0050
C2D C 0.18521(9) 0.52112(15) 1.1212(2)
H3D H 0.1447 0.5147 1.1328
H4D H 0.2005 0.5377 1.2251
C3D C 0.20356(8) 0.73309(15) 1.2355(2)
C5D C 0.20812(8) 0.41980(15) 1.0710(2)
C7D C 0.19710(9) 0.60900(15) 1.0112(2)
H7D H 0.2373 0.6129 0.9918
H8D H 0.1785 0.5968 0.9101
Cu1A Cu 0.295450(10) 0.293969(17) 0.94992(2)
Cu1B Cu 0.204550(10) 0.793969(17) 1.55008(2)
Cu1C Cu 0.795450(10) 0.793969(17) 0.94992(2)
Cu1E Cu 0.704550(10) 0.706031(17) 1.05008(2)
Cu1F Cu 0.795450(10) 0.206031(17) 0.44992(2)
Cu1G Cu 0.204550(10) 0.206031(17) 1.05008(2)
O2C O 0.67826(6) 0.15609(11) 0.59440(18)
O2G O 0.32174(6) 0.84391(11) 1.40560(18)
O3A O 0.25593(7) 0.58189(11) 1.51334(18)
O3E O 0.74407(7) 0.41811(11) 0.48666(18)
O4B O 0.32564(7) 0.72415(12) 1.66227(17)
O4F O 0.67436(7) 0.27585(12) 0.33773(17)
O5 O 0.54603(19) 0.2153(3) 0.4354(6)
O6 O 0.5786(2) 0.0618(4) 0.3774(6)
C12 C 0.5624(2) 0.1408(5) 0.4037(6)
loop_
_geom_bond_atom_site_label_1
_geom_bond_atom_site_label_2
_geom_bond_site_symmetry_1
_geom_bond_site_symmetry_2
Cu1 O1 1_555 1_555
O1 C3 1_555 1_555
O2 C5 1_555 1_555
O3 C5 1_555 1_555
O4 C3 1_555 1_555
N1 Cu1 1_555 1_555
C1 H1 1_555 1_555
H2 C1 1_555 1_555
C2 H3 1_555 1_555
H4 C2 1_555 1_555
C3 C1 1_555 1_555
C4 H5 1_555 1_555
C5 C2 1_555 1_555
C6 N1 1_555 1_555
H6 C6 1_555 1_555
C7 C1 1_555 1_555
H7 C7 1_555 1_555
H8 C7 1_555 1_555
C8 N1 1_555 1_555
H9 C8 1_555 1_555
C9 C4 1_555 1_555
C10 C9 1_555 1_555
H10 C10 1_555 1_555
C11 C6 1_555 1_555
H11 C11 1_555 1_555
O5 C12 1_555 1_555
O6 C12 1_555 1_555
N1D C6D 1_555 1_555
C4D H5D 1_555 1_555
C6D H6D 1_555 1_555
C8D N1D 1_555 1_555
H9D C8D 1_555 1_555
C9D C4D 1_555 1_555
C10D C10 1_555 1_555
H10D C10D 1_555 1_555
C11D C6D 1_555 1_555
H11D C11D 1_555 1_555
Cu1D N1D 1_555 1_555
O1D Cu1D 1_555 1_555
O2D C5D 1_555 1_555
O3D C5D 1_555 1_555
O4D C3D 1_555 1_555
C1D H1D 1_555 1_555
H2D C1D 1_555 1_555
C2D H3D 1_555 1_555
H4D C2D 1_555 1_555
C3D O1D 1_555 1_555
C5D C2D 1_555 1_555
C7D C1D 1_555 1_555
H7D C7D 1_555 1_555
H8D C7D 1_555 1_555
Cu1A O3D 1_555 1_555
Cu1B Cu1D 1_555 1_555
Cu1C O2 1_555 1_555
Cu1E O3 1_555 1_555
Cu1F Cu1 1_555 1_555
Cu1G O2D 1_555 1_555
O2C Cu1 1_555 1_555
O2G Cu1D 1_555 1_555
O3A Cu1D 1_555 1_555
O3E Cu1 1_555 1_555
O4B Cu1D 1_555 1_555
O4F Cu1 1_555 1_555
O4 Cu1F 1_555 1_555
C2 C7 1_555 1_555
C4 C8 1_555 1_555
C9 C11 1_555 1_555
C4D C8D 1_555 1_555
C9D C10D 1_555 1_555
C9D C11D 1_555 1_555
O4D Cu1B 1_555 1_555
C1D C3D 1_555 1_555
C2D C7D 1_555 1_555
Cu1A Cu1G 1_555 1_555
Cu1C Cu1E 1_555 1_555

#END
