
#######################################################################
#
#                 Cambridge Crystallographic Data Centre
#                                CCDC 
#
#######################################################################
#
# If this CIF has been generated from an entry in the Cambridge 
# Structural Database, then it will include bibliographic, chemical, 
# crystal, experimental, refinement or atomic coordinate data resulting 
# from the CCDC's data processing and validation procedures.
#
#######################################################################

data_LOXXED
_symmetry_cell_setting           orthorhombic
_symmetry_space_group_name_H-M   'P 21 21 21'
_symmetry_Int_Tables_number      19
_space_group_name_Hall           'P 2ac 2ab'
loop_
_symmetry_equiv_pos_site_id
_symmetry_equiv_pos_as_xyz
1 x,y,z
2 1/2-x,-y,1/2+z
3 -x,1/2+y,1/2-z
4 1/2+x,1/2-y,-z
_cell_length_a                   8.1018(6)
_cell_length_b                   10.6660(7)
_cell_length_c                   25.2840(16)
_cell_angle_alpha                90
_cell_angle_beta                 90
_cell_angle_gamma                90
_cell_volume                     2184.89
loop_
_atom_site_label
_atom_site_type_symbol
_atom_site_fract_x
_atom_site_fract_y
_atom_site_fract_z
Cu1 Cu 0.96931(7) 0.35048(5) 0.04035(2)
C1 C 1.0594(7) 0.4807(5) -0.0610(2)
H1 H 1.1241 0.4110 -0.0686
C2 C 0.8785(7) 0.5820(5) -0.0048(2)
C3 C 1.0556(8) 0.5783(6) -0.0966(2)
H2 H 1.1130 0.5732 -0.1284
C4 C 0.9659(8) 0.6826(5) -0.0843(2)
H3 H 0.9658 0.7514 -0.1068
C5 C 0.8762(7) 0.6851(5) -0.0386(2)
H4 H 0.8139 0.7554 -0.0300
C6 C 0.7696(6) 0.5704(5) 0.0428(2)
H5 H 0.7612 0.6516 0.0599
H6 H 0.6597 0.5462 0.0315
C7 C 0.9354(7) 0.5364(5) 0.12450(19)
H7 H 0.9773 0.4673 0.1462
C8 C 1.0846(6) 0.6020(5) 0.1019(2)
H8 H 1.1438 0.5453 0.0793
H9 H 1.1552 0.6288 0.1302
H10 H 1.0496 0.6736 0.0818
C9 C 0.8387(7) 0.6214(5) 0.1614(2)
H11 H 0.7951 0.6909 0.1417
H12 H 0.9103 0.6520 0.1887
H13 H 0.7495 0.5751 0.1770
C10 C 0.8903(6) 0.1285(5) 0.1757(2)
C11 C 0.7291(6) 0.3109(4) 0.14556(19)
C12 C 0.6859(6) 0.4077(5) 0.1037(2)
H14 H 0.6295 0.3658 0.0749
H15 H 0.6095 0.4677 0.1189
C13 C 0.6317(7) 0.3034(5) 0.1898(2)
H16 H 0.5472 0.3610 0.1952
C14 C 0.6603(7) 0.2095(5) 0.2262(2)
C15 C 0.8594(7) 0.2255(5) 0.1373(2)
C16 C 0.7866(6) 0.1240(5) 0.2190(2)
H17 H 0.8022 0.0614 0.2441
C17 C 1.0362(8) 0.0397(5) 0.16863(19)
C18 C 1.0281(8) -0.0297(5) 0.11451(19)
H18 H 0.9237 -0.0716 0.1113
H19 H 1.1156 -0.0902 0.1126
H20 H 1.0400 0.0299 0.0863
C19 C 1.0368(8) -0.0636(5) 0.2116(2)
H21 H 1.0574 -0.0263 0.2455
H22 H 1.1218 -0.1235 0.2038
H23 H 0.9316 -0.1050 0.2121
C20 C 1.1976(7) 0.1136(6) 0.1731(3)
H24 H 1.2062 0.1710 0.1440
H25 H 1.2893 0.0566 0.1724
H26 H 1.1986 0.1596 0.2057
N1 N 0.9733(6) 0.4825(4) -0.01582(15)
N2 N 0.8304(5) 0.4776(4) 0.08169(15)
N3 N 0.5612(7) 0.2040(5) 0.27368(18)
O1 O 0.9560(5) 0.2324(3) 0.09610(13)
O2 O 0.5850(5) 0.1169(4) 0.30543(15)
O3 O 0.4579(6) 0.2863(4) 0.28157(15)
O4 O 1.1421(5) 0.2443(4) 0.00730(14)
N4 N 1.2881(7) 0.2741(5) 0.0171(2)
O5 O 1.3057(5) 0.3640(5) 0.0452(2)
loop_
_geom_bond_atom_site_label_1
_geom_bond_atom_site_label_2
_geom_bond_site_symmetry_1
_geom_bond_site_symmetry_2
Cu1 N1 1_555 1_555
C1 H1 1_555 1_555
C2 C5 1_555 1_555
C3 C1 1_555 1_555
H2 C3 1_555 1_555
C4 C3 1_555 1_555
H3 C4 1_555 1_555
C5 C4 1_555 1_555
H4 C5 1_555 1_555
C6 C2 1_555 1_555
H5 C6 1_555 1_555
H6 C6 1_555 1_555
C7 H7 1_555 1_555
C8 C7 1_555 1_555
H8 C8 1_555 1_555
H9 C8 1_555 1_555
H10 C8 1_555 1_555
C9 C7 1_555 1_555
H11 C9 1_555 1_555
H12 C9 1_555 1_555
H13 C9 1_555 1_555
C10 C15 1_555 1_555
C11 C12 1_555 1_555
C12 H14 1_555 1_555
H15 C12 1_555 1_555
C13 C11 1_555 1_555
H16 C13 1_555 1_555
C14 C13 1_555 1_555
C15 C11 1_555 1_555
C16 C10 1_555 1_555
H17 C16 1_555 1_555
C17 C10 1_555 1_555
C18 C17 1_555 1_555
H18 C18 1_555 1_555
H19 C18 1_555 1_555
H20 C18 1_555 1_555
C19 C17 1_555 1_555
H21 C19 1_555 1_555
H22 C19 1_555 1_555
H23 C19 1_555 1_555
C20 C17 1_555 1_555
H24 C20 1_555 1_555
H25 C20 1_555 1_555
H26 C20 1_555 1_555
N1 C1 1_555 1_555
N2 Cu1 1_555 1_555
N3 C14 1_555 1_555
O1 Cu1 1_555 1_555
O2 N3 1_555 1_555
O3 N3 1_555 1_555
O4 Cu1 1_555 1_555
N4 O4 1_555 1_555
O5 N4 1_555 1_555
C2 N1 1_555 1_555
C6 N2 1_555 1_555
C7 N2 1_555 1_555
C12 N2 1_555 1_555
C14 C16 1_555 1_555
C15 O1 1_555 1_555

#END
