
#######################################################################
#
#                 Cambridge Crystallographic Data Centre
#                                CCDC 
#
#######################################################################
#
# If this CIF has been generated from an entry in the Cambridge 
# Structural Database, then it will include bibliographic, chemical, 
# crystal, experimental, refinement or atomic coordinate data resulting 
# from the CCDC's data processing and validation procedures.
#
#######################################################################

data_LOXXOL
_symmetry_cell_setting           orthorhombic
_symmetry_space_group_name_H-M   'P n m a'
_symmetry_Int_Tables_number      62
_space_group_name_Hall           '-P 2ac 2n'
loop_
_symmetry_equiv_pos_site_id
_symmetry_equiv_pos_as_xyz
1 x,y,z
2 1/2+x,y,1/2-z
3 x,1/2-y,z
4 1/2-x,1/2+y,1/2+z
5 -x,-y,-z
6 1/2-x,-y,1/2+z
7 -x,1/2+y,-z
8 1/2+x,1/2-y,1/2-z
_cell_length_a                   10.5315(16)
_cell_length_b                   11.5313(17)
_cell_length_c                   9.0821(13)
_cell_angle_alpha                90
_cell_angle_beta                 90
_cell_angle_gamma                90
_cell_volume                     1102.95
loop_
_atom_site_label
_atom_site_type_symbol
_atom_site_fract_x
_atom_site_fract_y
_atom_site_fract_z
Ag1 Ag 0.88204(6) 0.7500 0.14699(7)
N1 N 0.8851(4) 0.5585(3) 0.1352(4)
C1 C 0.8852(5) 0.3150(4) 0.1322(5)
C2 C 0.8033(5) 0.4977(4) 0.0537(7)
H1 H 0.7450 0.5383 -0.0034
C3 C 0.9667(6) 0.4967(4) 0.2146(7)
H2 H 1.0252 0.5367 0.2720
C4 C 0.9703(5) 0.3776(4) 0.2175(7)
H3 H 1.0293 0.3393 0.2761
C5 C 0.8004(5) 0.3785(4) 0.0490(7)
H4 H 0.7413 0.3408 -0.0101
C1B C 0.8852(5) 0.1850(4) 0.1322(5)
C4B C 0.9703(5) 0.1224(4) 0.2175(7)
C3B C 0.9667(6) 0.0033(4) 0.2146(7)
N1B N 0.8851(4) -0.0585(3) 0.1352(4)
Ag1B Ag 0.88204(6) -0.2500 0.14699(7)
C2B C 0.8033(5) 0.0023(4) 0.0537(7)
H1B H 0.7450 -0.0383 -0.0034
C5B C 0.8004(5) 0.1215(4) 0.0490(7)
H4B H 0.7413 0.1592 -0.0101
H2B H 1.0252 -0.0367 0.2720
H3B H 1.0293 0.1607 0.2761
N1B_2 N 0.8851(4) 0.9415(3) 0.1352(4)
O1 O 1.1243(5) 0.7500 0.2832(7)
N2 N 1.0853(7) 0.7500 0.4128(9)
O2 O 0.9698(5) 0.7500 0.4373(7)
O3 O 1.1628(6) 0.7500 0.5169(7)
loop_
_geom_bond_atom_site_label_1
_geom_bond_atom_site_label_2
_geom_bond_site_symmetry_1
_geom_bond_site_symmetry_2
Ag1 N1 1_555 1_555
N1 C2 1_555 1_555
C1 C4 1_555 1_555
O1 N2 1_555 1_555
N2 O2 1_555 1_555
C2 H1 1_555 1_555
C3 N1 1_555 1_555
H2 C3 1_555 1_555
C4 C3 1_555 1_555
H3 C4 1_555 1_555
C5 C1 1_555 1_555
H4 C5 1_555 1_555
O3 N2 1_555 1_555
C1B C1 1_555 1_555
C4B C1B 1_555 1_555
C3B C4B 1_555 1_555
N1B C3B 1_555 1_555
Ag1B N1B 1_555 1_555
C2B N1B 1_555 1_555
H1B C2B 1_555 1_555
C5B C1B 1_555 1_555
H4B C5B 1_555 1_555
H2B C3B 1_555 1_555
H3B C4B 1_555 1_555
N1B_2 Ag1 1_555 1_555
C2 C5 1_555 1_555
C2B C5B 1_555 1_555

#END
