
#######################################################################
#
#                 Cambridge Crystallographic Data Centre
#                                CCDC 
#
#######################################################################
#
# If this CIF has been generated from an entry in the Cambridge 
# Structural Database, then it will include bibliographic, chemical, 
# crystal, experimental, refinement or atomic coordinate data resulting 
# from the CCDC's data processing and validation procedures.
#
#######################################################################

data_LOXYOO
_symmetry_cell_setting           monoclinic
_symmetry_space_group_name_H-M   'P 21/c'
_symmetry_Int_Tables_number      14
_space_group_name_Hall           '-P 2ybc'
loop_
_symmetry_equiv_pos_site_id
_symmetry_equiv_pos_as_xyz
1 x,y,z
2 -x,1/2+y,1/2-z
3 -x,-y,-z
4 x,1/2-y,1/2+z
_cell_length_a                   8.6768(2)
_cell_length_b                   13.1365(3)
_cell_length_c                   28.1877(9)
_cell_angle_alpha                90
_cell_angle_beta                 92.652(3)
_cell_angle_gamma                90
_cell_volume                     3209.47
loop_
_atom_site_label
_atom_site_type_symbol
_atom_site_fract_x
_atom_site_fract_y
_atom_site_fract_z
Cd1 Cd 0.21899(5) 0.67839(3) 0.262542(17)
O1 O 0.0590(6) 0.4641(4) 0.40483(16)
O2 O -0.0697(7) 0.3302(3) 0.25489(18)
N1 N 0.0581(6) 0.5658(4) 0.34076(18)
N2 N 0.0036(6) 0.4929(3) 0.26324(18)
C1 C 0.0262(7) 0.5901(4) 0.2893(2)
C2 C 0.0208(8) 0.4781(5) 0.3629(2)
C3 C -0.0706(8) 0.3985(5) 0.3338(2)
C4 C -0.0450(7) 0.4038(4) 0.2810(2)
C5 C -0.2444(9) 0.4171(7) 0.3418(3)
H1 H -0.2742 0.4834 0.3293
H2 H -0.2617 0.4148 0.3755
H3 H -0.3056 0.3648 0.3256
C6 C -0.0231(12) 0.2916(6) 0.3517(3)
H4 H -0.0959 0.2417 0.3387
H5 H -0.0231 0.2901 0.3861
H6 H 0.0794 0.2758 0.3415
C7 C -0.1186(7) 0.6569(4) 0.2836(2)
H7 H -0.1411 0.6706 0.2502
H8 H -0.1010 0.7206 0.3004
H9 H -0.2052 0.6216 0.2967
C8 C 0.4414(9) 0.7217(8) 0.2433(5)
H10 H 0.5175 0.6778 0.2591
H11 H 0.4606 0.7917 0.2527
H12 H 0.4485 0.7155 0.2092
C9 C 0.1431(8) 0.6424(5) 0.3682(2)
C10 C 0.0608(9) 0.7196(5) 0.3914(2)
C11 C 0.1466(12) 0.7960(5) 0.4138(3)
H13 H 0.0936 0.8487 0.4287
C12 C 0.3043(13) 0.7990(7) 0.4155(3)
C13 C 0.3809(11) 0.7187(7) 0.3951(3)
H14 H 0.4893 0.7178 0.3969
C14 C 0.3016(10) 0.6393(7) 0.3721(3)
C15 C -0.1119(10) 0.7168(7) 0.3955(3)
H15 H -0.1365 0.7274 0.4283
H16 H -0.1512 0.6511 0.3849
H17 H -0.1591 0.7700 0.3759
C16 C 0.3903(15) 0.8851(8) 0.4404(4)
H18 H 0.3319 0.9476 0.4361
H19 H 0.4906 0.8930 0.4270
H20 H 0.4037 0.8698 0.4740
C17 C 0.3884(10) 0.5491(8) 0.3550(3)
H21 H 0.4134 0.5041 0.3815
H22 H 0.4828 0.5718 0.3412
H23 H 0.3253 0.5130 0.3312
C18 C 0.0324(7) 0.4974(4) 0.2131(2)
C19 C -0.0890(9) 0.5159(5) 0.1796(2)
C20 C -0.0503(10) 0.5303(5) 0.1322(2)
H24 H -0.1292 0.5455 0.1094
C21 C 0.0986(11) 0.5229(6) 0.1182(3)
C22 C 0.2134(10) 0.4961(6) 0.1518(3)
H25 H 0.3149 0.4876 0.1422
C23 C 0.1828(8) 0.4818(5) 0.1989(3)
C24 C -0.2572(9) 0.5127(6) 0.1920(3)
H26 H -0.3062 0.4532 0.1777
H27 H -0.3091 0.5736 0.1801
H28 H -0.2639 0.5094 0.2263
C25 C 0.1331(16) 0.5389(8) 0.0662(3)
H29 H 0.1710 0.6076 0.0618
H30 H 0.0396 0.5288 0.0465
H31 H 0.2108 0.4905 0.0571
C26 C 0.3082(9) 0.4417(7) 0.2328(3)
H32 H 0.3406 0.3750 0.2223
H33 H 0.2691 0.4364 0.2644
H34 H 0.3955 0.4879 0.2334
Cd1A Cd -0.21899(5) 0.17839(3) 0.237458(17)
O2A O 0.0697(7) 0.8302(3) 0.24511(18)
Cl1 Cl -0.2497(7) 0.6996(4) 0.02650(14)
Cl2 Cl -0.4125(5) 0.7373(4) 0.11097(17)
C27 C -0.3311(15) 0.7909(9) 0.0613(4)
H35 H -0.4111 0.8274 0.0424
H36 H -0.2519 0.8403 0.0717
Cl3 Cl 0.2961(7) 0.4832(4) 0.52316(15)
Cl4 Cl 0.2479(6) 0.6977(3) 0.52837(11)
C28 C 0.1731(14) 0.5847(9) 0.5073(4)
H37 H 0.1593 0.5881 0.4726
H38 H 0.0718 0.5733 0.5203
loop_
_geom_bond_atom_site_label_1
_geom_bond_atom_site_label_2
_geom_bond_site_symmetry_1
_geom_bond_site_symmetry_2
Cd1 C1 1_555 1_555
O1 C2 1_555 1_555
O2 C4 1_555 1_555
N1 C1 1_555 1_555
N2 C1 1_555 1_555
C1 C7 1_555 1_555
C2 N1 1_555 1_555
C3 C2 1_555 1_555
C4 N2 1_555 1_555
C5 C3 1_555 1_555
H1 C5 1_555 1_555
H2 C5 1_555 1_555
H3 C5 1_555 1_555
C6 C3 1_555 1_555
H4 C6 1_555 1_555
H5 C6 1_555 1_555
H6 C6 1_555 1_555
C7 H7 1_555 1_555
H8 C7 1_555 1_555
H9 C7 1_555 1_555
C8 Cd1 1_555 1_555
H10 C8 1_555 1_555
H11 C8 1_555 1_555
H12 C8 1_555 1_555
C9 N1 1_555 1_555
C10 C9 1_555 1_555
C11 C10 1_555 1_555
H13 C11 1_555 1_555
C12 C11 1_555 1_555
C13 C12 1_555 1_555
H14 C13 1_555 1_555
C14 C9 1_555 1_555
C15 C10 1_555 1_555
H15 C15 1_555 1_555
H16 C15 1_555 1_555
H17 C15 1_555 1_555
C16 C12 1_555 1_555
H18 C16 1_555 1_555
H19 C16 1_555 1_555
H20 C16 1_555 1_555
C17 C14 1_555 1_555
H21 C17 1_555 1_555
H22 C17 1_555 1_555
H23 C17 1_555 1_555
C18 N2 1_555 1_555
C19 C18 1_555 1_555
C20 C19 1_555 1_555
H24 C20 1_555 1_555
C21 C20 1_555 1_555
C22 C21 1_555 1_555
H25 C22 1_555 1_555
C23 C18 1_555 1_555
C24 C19 1_555 1_555
H26 C24 1_555 1_555
H27 C24 1_555 1_555
H28 C24 1_555 1_555
C25 C21 1_555 1_555
H29 C25 1_555 1_555
H30 C25 1_555 1_555
H31 C25 1_555 1_555
C26 C23 1_555 1_555
H32 C26 1_555 1_555
H33 C26 1_555 1_555
H34 C26 1_555 1_555
Cl1 C27 1_555 1_555
Cl2 C27 1_555 1_555
C27 H35 1_555 1_555
H36 C27 1_555 1_555
Cl3 C28 1_555 1_555
Cl4 C28 1_555 1_555
C28 H37 1_555 1_555
H38 C28 1_555 1_555
Cd1A O2 1_555 1_555
O2A Cd1 1_555 1_555
C3 C4 1_555 1_555
C13 C14 1_555 1_555
C22 C23 1_555 1_555

#END
