
#######################################################################
#
#                 Cambridge Crystallographic Data Centre
#                                CCDC 
#
#######################################################################
#
# If this CIF has been generated from an entry in the Cambridge 
# Structural Database, then it will include bibliographic, chemical, 
# crystal, experimental, refinement or atomic coordinate data resulting 
# from the CCDC's data processing and validation procedures.
#
#######################################################################

data_LOXZAB
_symmetry_cell_setting           monoclinic
_symmetry_space_group_name_H-M   'C 2/c'
_symmetry_Int_Tables_number      15
_space_group_name_Hall           '-C 2yn'
loop_
_symmetry_equiv_pos_site_id
_symmetry_equiv_pos_as_xyz
1 x,y,z
2 -x,y,1/2-z
3 1/2+x,1/2+y,z
4 1/2-x,1/2+y,1/2-z
5 -x,-y,-z
6 x,-y,1/2+z
7 1/2-x,1/2-y,-z
8 1/2+x,1/2-y,1/2+z
_cell_length_a                   29.6835(10)
_cell_length_b                   22.6110(8)
_cell_length_c                   8.2315(2)
_cell_angle_alpha                90
_cell_angle_beta                 92.633(3)
_cell_angle_gamma                90
_cell_volume                     5518.93
loop_
_atom_site_label
_atom_site_type_symbol
_atom_site_fract_x
_atom_site_fract_y
_atom_site_fract_z
N3 N 0.5000 0.8047(2) 0.2500
C28 C 0.47811(17) 0.7730(2) 0.3715(6)
H19 H 0.4591 0.7421 0.3206
H20 H 0.4594 0.8001 0.4322
H21 H 0.5007 0.7547 0.4461
O6 O 0.5006(3) 0.8970(3) 0.3488(11)
C29 C 0.4872(3) 0.8656(4) 0.2546(12)
C28A C 0.52189(17) 0.7730(2) 0.1285(6)
H19A H 0.5409 0.7421 0.1794
H20A H 0.5406 0.8001 0.0678
H21A H 0.4993 0.7547 0.0539
O6A O 0.4994(3) 0.8970(3) 0.1512(11)
C29A C 0.5128(3) 0.8656(4) 0.2454(12)
Ni1 Ni 0.317870(15) 0.90394(2) 0.53504(5)
F1 F 0.46927(7) 0.55200(10) -0.0354(4)
F2 F 0.43871(7) 0.57947(9) 0.1850(3)
F3 F 0.47966(7) 0.64016(9) 0.0560(3)
F4 F 0.45618(7) 0.66047(10) -0.2558(3)
F5 F 0.42521(3) 0.57701(3) -0.31460(11)
F6 F 0.38564(5) 0.65636(3) -0.32546(8)
O1 O 0.33384(3) 0.83514(3) 0.38902(8)
O2 O 0.33331(2) 0.96646(3) 0.36498(9)
H1 H 0.3452 0.9434 0.2886
H2 H 0.3065 0.9741 0.3025
O3 O 0.37546(3) 0.88507(3) 0.21432(8)
O4 O 0.21761(2) 0.47105(3) -0.15015(9)
O5 O 0.25316(2) 0.41231(3) 0.02514(9)
N1 N 0.38366(3) 0.91326(4) 0.62778(11)
N2 N 0.29996(3) 0.84388(3) 0.71234(8)
C1 C 0.28430(3) 0.79013(3) 0.67027(8)
H3 H 0.2869 0.7774 0.5611
C2 C 0.26452(3) 0.75221(3) 0.77857(8)
H4 H 0.2537 0.7146 0.7429
C3 C 0.26053(9) 0.76939(13) 0.9399(3)
C4 C 0.27768(10) 0.82500(13) 0.9825(3)
H5 H 0.2762 0.8386 1.0913
C5 C 0.29676(10) 0.86035(13) 0.8672(4)
H6 H 0.3081 0.8981 0.8995
C6 C 0.40571(11) 0.86554(15) 0.6809(4)
H7 H 0.3897 0.8292 0.6842
C7 C 0.40708(8) 0.96437(10) 0.6243(3)
H8 H 0.3919 0.9992 0.5873
C8 C 0.45272(8) 0.96839(10) 0.6729(3)
H9 H 0.4680 1.0053 0.6693
C9 C 0.47551(11) 0.91802(14) 0.7264(4)
C10 C 0.45085(11) 0.86601(15) 0.7319(4)
H10 H 0.4649 0.8307 0.7706
C11 C 0.35935(10) 0.83854(13) 0.2694(3)
C12 C 0.37042(10) 0.78142(13) 0.1863(3)
C13 C 0.39362(7) 0.78359(10) 0.0436(3)
H11 H 0.4021 0.8209 0.0016
C14 C 0.40450(7) 0.73291(10) -0.0379(3)
H12 H 0.4204 0.7356 -0.1352
C15 C 0.39246(10) 0.67734(13) 0.0208(4)
C16 C 0.36887(10) 0.67508(13) 0.1642(4)
H13 H 0.3602 0.6379 0.2062
C17 C 0.35803(10) 0.72632(13) 0.2455(3)
H14 H 0.3420 0.7239 0.3426
C18 C 0.40615(10) 0.61914(14) -0.0606(4)
C19 C 0.44878(5) 0.59723(7) 0.0361(2)
C20 C 0.41837(5) 0.62838(7) -0.2398(2)
C21 C 0.36705(5) 0.57390(7) -0.0625(2)
C22 C 0.37294(5) 0.51463(7) -0.0206(2)
H15 H 0.4022 0.5002 0.0087
C23 C 0.33627(11) 0.47659(14) -0.0212(4)
H16 H 0.3404 0.4367 0.0125
C24 C 0.29351(10) 0.49643(13) -0.0709(3)
C25 C 0.25307(7) 0.45702(9) -0.0652(2)
C26 C 0.28804(7) 0.55505(9) -0.1196(2)
H17 H 0.2592 0.5687 -0.1575
C27 C 0.32430(10) 0.59355(13) -0.1131(4)
H18 H 0.3199 0.6337 -0.1435
N1A N 0.61634(3) 0.91326(4) 0.87222(11)
C6A C 0.59429(11) 0.86554(15) 0.8191(4)
H7A H 0.6103 0.8292 0.8158
C7A C 0.59292(8) 0.96437(10) 0.8757(3)
H8A H 0.6081 0.9992 0.9127
C8A C 0.54728(8) 0.96839(10) 0.8271(3)
H9A H 0.5320 1.0053 0.8307
C9A C 0.52449(11) 0.91802(14) 0.7736(4)
C10A C 0.54915(11) 0.86601(15) 0.7681(4)
H10A H 0.5351 0.8307 0.7294
N2F N 0.20004(3) 0.65612(3) 1.28766(8)
C1F C 0.21570(3) 0.70987(3) 1.32973(8)
H3F H 0.2131 0.7226 1.4389
C2F C 0.23548(3) 0.74779(3) 1.22143(8)
H4F H 0.2463 0.7854 1.2571
C3F C 0.23947(9) 0.73061(13) 1.0601(3)
C4F C 0.22232(10) 0.67500(13) 1.0175(3)
H5F H 0.2238 0.6614 0.9087
C5F C 0.20324(10) 0.63965(13) 1.1328(4)
H6F H 0.1919 0.6019 1.1005
Ni1A Ni 0.682130(15) 0.90394(2) 0.96496(5)
F1A F 0.53073(7) 0.55200(10) 1.5354(4)
F2A F 0.56129(7) 0.57947(9) 1.3150(3)
F3A F 0.52034(7) 0.64016(9) 1.4440(3)
F4A F 0.54382(7) 0.66047(10) 1.7558(3)
F5A F 0.57479(3) 0.57701(3) 1.81460(11)
F6A F 0.61436(5) 0.65636(3) 1.82546(8)
O1A O 0.66616(3) 0.83514(3) 1.11098(8)
O2A O 0.66669(2) 0.96646(3) 1.13502(9)
H1A H 0.6548 0.9434 1.2114
H2A H 0.6935 0.9741 1.1975
O3A O 0.62454(3) 0.88507(3) 1.28568(8)
O4A O 0.78239(2) 0.47105(3) 1.65015(9)
O5A O 0.74684(2) 0.41231(3) 1.47486(9)
C11A C 0.64065(10) 0.83854(13) 1.2306(3)
C12A C 0.62958(10) 0.78142(13) 1.3137(3)
C13A C 0.60638(7) 0.78359(10) 1.4564(3)
H11A H 0.5979 0.8209 1.4984
C14A C 0.59550(7) 0.73291(10) 1.5379(3)
H12A H 0.5796 0.7356 1.6352
C15A C 0.60754(10) 0.67734(13) 1.4792(4)
C16A C 0.63113(10) 0.67508(13) 1.3358(4)
H13A H 0.6398 0.6379 1.2938
C17A C 0.64197(10) 0.72632(13) 1.2545(3)
H14A H 0.6580 0.7239 1.1574
C18A C 0.59385(10) 0.61914(14) 1.5606(4)
C19A C 0.55122(5) 0.59723(7) 1.4639(2)
C20A C 0.58163(5) 0.62838(7) 1.7398(2)
C21A C 0.63295(5) 0.57390(7) 1.5625(2)
C22A C 0.62706(5) 0.51463(7) 1.5206(2)
H15A H 0.5978 0.5002 1.4913
C23A C 0.66373(11) 0.47659(14) 1.5212(4)
H16A H 0.6596 0.4367 1.4875
C24A C 0.70649(10) 0.49643(13) 1.5709(3)
C25A C 0.74693(7) 0.45702(9) 1.5652(2)
C26A C 0.71196(7) 0.55505(9) 1.6196(2)
H17A H 0.7408 0.5687 1.6575
C27A C 0.67570(10) 0.59355(13) 1.6131(4)
H18A H 0.6801 0.6337 1.6435
Ni1B Ni 0.817870(15) 0.40394(2) 1.53504(5)
Ni1C Ni 0.182130(15) 0.40394(2) -0.03504(5)
Ni1F Ni 0.182130(15) 0.59606(2) 1.46496(5)
O4B O 0.71761(2) 0.97105(3) 0.84985(9)
O4C O 0.28239(2) 0.97105(3) 0.65015(9)
O5B O 0.75316(2) 0.91231(3) 1.02514(9)
O5C O 0.24684(2) 0.91231(3) 0.47486(9)
N2A N 0.70004(3) 0.84388(3) 0.78766(8)
loop_
_geom_bond_atom_site_label_1
_geom_bond_atom_site_label_2
_geom_bond_site_symmetry_1
_geom_bond_site_symmetry_2
Ni1 O1 1_555 1_555
F1 C19 1_555 1_555
F2 C19 1_555 1_555
F3 C19 1_555 1_555
F4 C20 1_555 1_555
F5 C20 1_555 1_555
F6 C20 1_555 1_555
O1 C11 1_555 1_555
O2 Ni1 1_555 1_555
H1 O2 1_555 1_555
H2 O2 1_555 1_555
O3 C11 1_555 1_555
O4 C25 1_555 1_555
O5 C25 1_555 1_555
N1 Ni1 1_555 1_555
N2 Ni1 1_555 1_555
C1 N2 1_555 1_555
H3 C1 1_555 1_555
C2 C1 1_555 1_555
H4 C2 1_555 1_555
C3 C2 1_555 1_555
C4 C3 1_555 1_555
H5 C4 1_555 1_555
C5 N2 1_555 1_555
H6 C5 1_555 1_555
C6 N1 1_555 1_555
H7 C6 1_555 1_555
C7 N1 1_555 1_555
H8 C7 1_555 1_555
C8 C7 1_555 1_555
H9 C8 1_555 1_555
C9 C8 1_555 1_555
C10 C6 1_555 1_555
H10 C10 1_555 1_555
C11 C12 1_555 1_555
C12 C13 1_555 1_555
C13 H11 1_555 1_555
C14 C13 1_555 1_555
H12 C14 1_555 1_555
C15 C14 1_555 1_555
C16 C15 1_555 1_555
H13 C16 1_555 1_555
C17 C12 1_555 1_555
H14 C17 1_555 1_555
C18 C15 1_555 1_555
C19 C18 1_555 1_555
C20 C18 1_555 1_555
C21 C18 1_555 1_555
C22 C21 1_555 1_555
H15 C22 1_555 1_555
C23 C22 1_555 1_555
H16 C23 1_555 1_555
C24 C23 1_555 1_555
C25 C24 1_555 1_555
C26 C24 1_555 1_555
H17 C26 1_555 1_555
C27 C21 1_555 1_555
H18 C27 1_555 1_555
N3 C28 1_555 1_555
C28 H19 1_555 1_555
H20 C28 1_555 1_555
H21 C28 1_555 1_555
O6 C29 1_555 1_555
C29 N3 1_555 1_555
N1A C6A 1_555 1_555
C6A H7A 1_555 1_555
C7A N1A 1_555 1_555
H8A C7A 1_555 1_555
C8A C7A 1_555 1_555
H9A C8A 1_555 1_555
C9A C9 1_555 1_555
C10A C6A 1_555 1_555
H10A C10A 1_555 1_555
N2F C1F 1_555 1_555
C1F H3F 1_555 1_555
C2F C1F 1_555 1_555
H4F C2F 1_555 1_555
C3F C3 1_555 1_555
C4F C3F 1_555 1_555
H5F C4F 1_555 1_555
C5F N2F 1_555 1_555
H6F C5F 1_555 1_555
Ni1A N1A 1_555 1_555
F1A C19A 1_555 1_555
F2A C19A 1_555 1_555
F3A C19A 1_555 1_555
F4A C20A 1_555 1_555
F5A C20A 1_555 1_555
F6A C20A 1_555 1_555
O1A Ni1A 1_555 1_555
O2A Ni1A 1_555 1_555
H1A O2A 1_555 1_555
H2A O2A 1_555 1_555
O3A C11A 1_555 1_555
O4A C25A 1_555 1_555
O5A C25A 1_555 1_555
C11A O1A 1_555 1_555
C12A C11A 1_555 1_555
C13A C12A 1_555 1_555
H11A C13A 1_555 1_555
C14A C13A 1_555 1_555
H12A C14A 1_555 1_555
C15A C14A 1_555 1_555
C16A C15A 1_555 1_555
H13A C16A 1_555 1_555
C17A C12A 1_555 1_555
H14A C17A 1_555 1_555
C18A C15A 1_555 1_555
C19A C18A 1_555 1_555
C20A C18A 1_555 1_555
C21A C18A 1_555 1_555
C22A C21A 1_555 1_555
H15A C22A 1_555 1_555
C23A C22A 1_555 1_555
H16A C23A 1_555 1_555
C24A C23A 1_555 1_555
C25A C24A 1_555 1_555
C26A C24A 1_555 1_555
H17A C26A 1_555 1_555
C27A C21A 1_555 1_555
H18A C27A 1_555 1_555
Ni1B O4A 1_555 1_555
Ni1C O4 1_555 1_555
Ni1F N2F 1_555 1_555
O4B Ni1A 1_555 1_555
O4C Ni1 1_555 1_555
O5B Ni1A 1_555 1_555
O5C Ni1 1_555 1_555
N2A Ni1A 1_555 1_555
C28A N3 1_555 1_555
H19A C28A 1_555 1_555
H20A C28A 1_555 1_555
H21A C28A 1_555 1_555
O6A C29A 1_555 1_555
C29A N3 1_555 1_555
O5 Ni1C 1_555 1_555
C4 C5 1_555 1_555
C9 C10 1_555 1_555
C16 C17 1_555 1_555
C26 C27 1_555 1_555
C8A C9A 1_555 1_555
C9A C10A 1_555 1_555
C2F C3F 1_555 1_555
C4F C5F 1_555 1_555
O5A Ni1B 1_555 1_555
C16A C17A 1_555 1_555
C26A C27A 1_555 1_555

#END
