
#######################################################################
#
#                 Cambridge Crystallographic Data Centre
#                                CCDC 
#
#######################################################################
#
# If this CIF has been generated from an entry in the Cambridge 
# Structural Database, then it will include bibliographic, chemical, 
# crystal, experimental, refinement or atomic coordinate data resulting 
# from the CCDC's data processing and validation procedures.
#
#######################################################################

data_LOXZUV
_symmetry_cell_setting           orthorhombic
_symmetry_space_group_name_H-M   'C 2 2 21'
_symmetry_Int_Tables_number      20
_space_group_name_Hall           'C 2n 2'
loop_
_symmetry_equiv_pos_site_id
_symmetry_equiv_pos_as_xyz
1 x,y,z
2 -x,-y,1/2+z
3 -x,y,1/2-z
4 x,-y,-z
5 1/2+x,1/2+y,z
6 1/2-x,1/2-y,1/2+z
7 1/2-x,1/2+y,1/2-z
8 1/2+x,1/2-y,-z
_cell_length_a                   5.3146(8)
_cell_length_b                   11.9770(18)
_cell_length_c                   19.719(3)
_cell_angle_alpha                90
_cell_angle_beta                 90
_cell_angle_gamma                90
_cell_volume                     1255.17
loop_
_atom_site_label
_atom_site_type_symbol
_atom_site_fract_x
_atom_site_fract_y
_atom_site_fract_z
Cd1 Cd 1.00471(3) 1.0000 0.0000
C1 C 0.6987(4) 0.88422(17) 0.08427(11)
C2 C 0.5203(5) 0.82173(18) 0.12745(12)
H1 H 0.5400 0.7447 0.1299
C3 C 0.3370(4) 0.86618(17) 0.16250(11)
H2 H 0.3155 0.9431 0.1594
C4 C 0.1624(4) 0.80442(17) 0.20638(10)
C5 C 0.0000 0.8612(2) 0.2500
H3 H 0.0000 0.9388 0.2500
C6 C 0.1568(5) 0.68830(19) 0.20671(11)
H4 H 0.2606 0.6488 0.1773
C7 C 0.0000 0.6310(2) 0.2500
H5 H 0.0000 0.5534 0.2500
O1 O 0.8419(3) 0.83060(11) 0.04508(8)
O2 O 0.7089(3) 0.98985(12) 0.08642(7)
O3 O 1.2950(3) 0.89585(13) -0.04899(11)
H6 H 1.434(4) 0.923(2) -0.0641(15)
H7 H 1.321(5) 0.8267(14) -0.0470(16)
C1B C -0.6987(4) 0.88422(17) 0.41573(11)
C2B C -0.5203(5) 0.82173(18) 0.37255(12)
H1B H -0.5400 0.7447 0.3701
C3B C -0.3370(4) 0.86618(17) 0.33750(11)
H2B H -0.3155 0.9431 0.3406
C4B C -0.1624(4) 0.80442(17) 0.29362(10)
C6B C -0.1568(5) 0.68830(19) 0.29329(11)
H4B H -0.2606 0.6488 0.3227
O1B O -0.8419(3) 0.83060(11) 0.45492(8)
O2B O -0.7089(3) 0.98985(12) 0.41358(7)
O3C O 1.2950(3) 1.10415(13) 0.04899(11)
H6C H 1.434(4) 1.077(2) 0.0641(15)
H7C H 1.321(5) 1.1733(14) 0.0470(16)
Cd1A Cd -1.00471(3) 1.0000 0.5000
O1C O 0.8419(3) 1.16940(11) -0.04508(8)
O2C O 0.7089(3) 1.01015(12) -0.08642(7)
loop_
_geom_bond_atom_site_label_1
_geom_bond_atom_site_label_2
_geom_bond_site_symmetry_1
_geom_bond_site_symmetry_2
Cd1 O1 1_555 1_555
C1 C2 1_555 1_555
C2 H1 1_555 1_555
C3 C2 1_555 1_555
H2 C3 1_555 1_555
C4 C3 1_555 1_555
C5 C4 1_555 1_555
H3 C5 1_555 1_555
C6 C4 1_555 1_555
H4 C6 1_555 1_555
C7 C6 1_555 1_555
H5 C7 1_555 1_555
O1 C1 1_555 1_555
O2 Cd1 1_555 1_555
O3 Cd1 1_555 1_555
H6 O3 1_555 1_555
H7 O3 1_555 1_555
C1B C2B 1_555 1_555
C2B H1B 1_555 1_555
C3B C2B 1_555 1_555
H2B C3B 1_555 1_555
C4B C5 1_555 1_555
C6B C7 1_555 1_555
H4B C6B 1_555 1_555
O1B C1B 1_555 1_555
O2B C1B 1_555 1_555
O3C Cd1 1_555 1_555
H6C O3C 1_555 1_555
H7C O3C 1_555 1_555
Cd1A O1B 1_555 1_555
O1C Cd1 1_555 1_555
O2C Cd1 1_555 1_555
C1 O2 1_555 1_555
C3B C4B 1_555 1_555
C4B C6B 1_555 1_555
O2B Cd1A 1_555 1_555

#END
