
#######################################################################
#
#                 Cambridge Crystallographic Data Centre
#                                CCDC 
#
#######################################################################
#
# If this CIF has been generated from an entry in the Cambridge 
# Structural Database, then it will include bibliographic, chemical, 
# crystal, experimental, refinement or atomic coordinate data resulting 
# from the CCDC's data processing and validation procedures.
#
#######################################################################

data_LOXZOP
_symmetry_cell_setting           triclinic
_symmetry_space_group_name_H-M   'P -1'
_symmetry_Int_Tables_number      2
_space_group_name_Hall           '-P 1'
loop_
_symmetry_equiv_pos_site_id
_symmetry_equiv_pos_as_xyz
1 x,y,z
2 -x,-y,-z
_cell_length_a                   6.778(3)
_cell_length_b                   7.572(3)
_cell_length_c                   13.356(5)
_cell_angle_alpha                90.423(6)
_cell_angle_beta                 93.298(7)
_cell_angle_gamma                102.310(6)
_cell_volume                     668.465
loop_
_atom_site_label
_atom_site_type_symbol
_atom_site_fract_x
_atom_site_fract_y
_atom_site_fract_z
Y1 Y 0.29334(8) 0.76591(7) 0.45639(4)
P1 P 0.2451(2) 0.38475(19) 0.61875(11)
S1 S 0.3967(2) 1.07150(19) 0.30800(10)
C1 C 0.2334(9) 0.3909(8) 0.7566(4)
C2 C 0.1858(10) 0.2342(9) 0.8126(5)
H1 H 0.1541 0.1221 0.7798
C3 C 0.1849(10) 0.2425(9) 0.9135(5)
H2 H 0.1550 0.1361 0.9493
C4 C 0.2289(10) 0.4116(9) 0.9657(4)
C5 C 0.2294(11) 0.4319(10) 1.0710(5)
H3 H 0.2013 0.3301 1.1106
C6 C 0.2707(11) 0.5998(10) 1.1147(5)
H4 H 0.2709 0.6118 1.1841
C7 C 0.3126(11) 0.7536(10) 1.0567(5)
H5 H 0.3401 0.8668 1.0883
C8 C 0.3145(11) 0.7429(9) 0.9547(5)
H6 H 0.3411 0.8469 0.9168
C9 C 0.2746(9) 0.5678(9) 0.9077(5)
N1 N 0.2761(8) 0.5495(7) 0.8053(4)
H7 H 0.3062 0.6460 0.7708
O1 O 0.2540(7) 0.5781(5) 0.5889(3)
O2 O 0.4301(6) 0.3140(6) 0.6001(3)
O3 O 0.0509(6) 0.2572(5) 0.5839(3)
O4 O 0.2781(7) 0.8866(6) 0.2882(3)
O5 O 0.4343(6) 1.0808(5) 0.4204(3)
O6 O 0.2896(8) 1.2075(6) 0.2732(3)
O7 O 0.5937(7) 1.0974(6) 0.2610(3)
O8 O 0.1718(7) 0.4791(6) 0.3717(3)
H8 H 0.2213 0.4046 0.3372
H9 H 0.0686 0.4227 0.4016
O9 O 0.1397(6) 0.9151(6) 0.5810(3)
H10 H 0.1042 0.8404 0.6279
H11 H 0.2263 1.0081 0.6050
Y1A Y -0.29334(8) 0.23409(7) 0.54361(4)
Y1A_2 Y 0.70666(8) 0.23409(7) 0.54361(4)
Y1A_3 Y 0.70666(8) 1.23409(7) 0.54361(4)
O2A O 0.5699(6) 0.6860(6) 0.3999(3)
O3A O -0.0509(6) 0.7428(5) 0.4161(3)
O5A O 0.5657(6) 0.9192(5) 0.5796(3)
loop_
_geom_bond_atom_site_label_1
_geom_bond_atom_site_label_2
_geom_bond_site_symmetry_1
_geom_bond_site_symmetry_2
Y1 O1 1_555 1_555
P1 C1 1_555 1_555
S1 O4 1_555 1_555
C1 C2 1_555 1_555
C2 H1 1_555 1_555
C3 C2 1_555 1_555
H2 C3 1_555 1_555
C4 C3 1_555 1_555
C5 C4 1_555 1_555
H3 C5 1_555 1_555
C6 C5 1_555 1_555
H4 C6 1_555 1_555
C7 C6 1_555 1_555
H5 C7 1_555 1_555
C8 C7 1_555 1_555
H6 C8 1_555 1_555
C9 C4 1_555 1_555
N1 C1 1_555 1_555
H7 N1 1_555 1_555
O1 P1 1_555 1_555
O2 P1 1_555 1_555
O3 P1 1_555 1_555
O4 Y1 1_555 1_555
O5 Y1 1_555 1_555
O6 S1 1_555 1_555
O7 S1 1_555 1_555
O8 Y1 1_555 1_555
H8 O8 1_555 1_555
H9 O8 1_555 1_555
O9 Y1 1_555 1_555
H10 O9 1_555 1_555
H11 O9 1_555 1_555
Y1A O3 1_555 1_555
Y1A_2 O2 1_555 1_555
Y1A_3 O5 1_555 1_555
O2A Y1 1_555 1_555
O3A Y1 1_555 1_555
O5A Y1 1_555 1_555
S1 O5 1_555 1_555
C8 C9 1_555 1_555
C9 N1 1_555 1_555
Y1A_3 O5A 1_555 1_555

#END
