
#######################################################################
#
#                 Cambridge Crystallographic Data Centre
#                                CCDC 
#
#######################################################################
#
# If this CIF has been generated from an entry in the Cambridge 
# Structural Database, then it will include bibliographic, chemical, 
# crystal, experimental, refinement or atomic coordinate data resulting 
# from the CCDC's data processing and validation procedures.
#
#######################################################################

data_LOXZEF
_symmetry_cell_setting           triclinic
_symmetry_space_group_name_H-M   'P -1'
_symmetry_Int_Tables_number      2
_space_group_name_Hall           '-P 1'
loop_
_symmetry_equiv_pos_site_id
_symmetry_equiv_pos_as_xyz
1 x,y,z
2 -x,-y,-z
_cell_length_a                   6.792(3)
_cell_length_b                   7.596(4)
_cell_length_c                   13.368(6)
_cell_angle_alpha                90.362(8)
_cell_angle_beta                 93.280(7)
_cell_angle_gamma                102.383(7)
_cell_volume                     672.412
loop_
_atom_site_label
_atom_site_type_symbol
_atom_site_fract_x
_atom_site_fract_y
_atom_site_fract_z
Dy1 Dy 0.29351(3) 0.76583(3) 0.45616(2)
P1 P 0.24451(19) 0.38457(17) 0.61967(10)
S1 S 0.39840(19) 1.07315(17) 0.30765(10)
C1 C 0.2337(8) 0.3912(7) 0.7568(4)
C2 C 0.1858(9) 0.2340(8) 0.8124(5)
H1 H 0.1534 0.1222 0.7797
C3 C 0.1866(9) 0.2440(8) 0.9155(5)
H2 H 0.1578 0.1387 0.9520
C4 C 0.2305(8) 0.4120(8) 0.9656(4)
C5 C 0.2306(10) 0.4311(9) 1.0714(5)
H3 H 0.2023 0.3296 1.1111
C6 C 0.2728(9) 0.6006(10) 1.1148(5)
H4 H 0.2751 0.6129 1.1842
C7 C 0.3120(10) 0.7535(9) 1.0570(5)
H5 H 0.3372 0.8664 1.0884
C8 C 0.3146(9) 0.7428(8) 0.9540(5)
H6 H 0.3425 0.8464 0.9160
C9 C 0.2734(8) 0.5691(8) 0.9079(4)
N1 N 0.2748(7) 0.5493(6) 0.8058(3)
H7 H 0.3043 0.6454 0.7711
O1 O 0.2530(6) 0.5763(5) 0.5892(3)
O2 O 0.4296(5) 0.3142(5) 0.6007(3)
O3 O 0.0506(5) 0.2553(5) 0.5833(3)
O4 O 0.2797(6) 0.8879(5) 0.2881(3)
O5 O 0.4350(6) 1.0821(5) 0.4206(3)
O6 O 0.2932(7) 1.2100(6) 0.2725(4)
O7 O 0.5944(6) 1.0987(5) 0.2608(3)
O8 O 0.1722(6) 0.4777(5) 0.3709(3)
H8 H 0.2218 0.4032 0.3364
H9 H 0.0690 0.4213 0.4008
O9 O 0.1399(6) 0.9148(6) 0.5814(3)
H10 H 0.1044 0.8401 0.6283
H11 H 0.2265 1.0078 0.6054
Dy1A Dy -0.29351(3) 0.23417(3) 0.54384(2)
Dy1A_2 Dy 0.70649(3) 0.23417(3) 0.54384(2)
Dy1A_3 Dy 0.70649(3) 1.23417(3) 0.54384(2)
O2A O 0.5704(5) 0.6858(5) 0.3993(3)
O3A O -0.0506(5) 0.7447(5) 0.4167(3)
O5A O 0.5650(6) 0.9179(5) 0.5794(3)
loop_
_geom_bond_atom_site_label_1
_geom_bond_atom_site_label_2
_geom_bond_site_symmetry_1
_geom_bond_site_symmetry_2
Dy1 O1 1_555 1_555
P1 C1 1_555 1_555
S1 O4 1_555 1_555
C1 C2 1_555 1_555
C2 H1 1_555 1_555
C3 C2 1_555 1_555
H2 C3 1_555 1_555
C4 C3 1_555 1_555
C5 C4 1_555 1_555
H3 C5 1_555 1_555
C6 C5 1_555 1_555
H4 C6 1_555 1_555
C7 C6 1_555 1_555
H5 C7 1_555 1_555
C8 C7 1_555 1_555
H6 C8 1_555 1_555
C9 C4 1_555 1_555
N1 C1 1_555 1_555
H7 N1 1_555 1_555
O1 P1 1_555 1_555
O2 P1 1_555 1_555
O3 P1 1_555 1_555
O4 Dy1 1_555 1_555
O5 Dy1 1_555 1_555
O6 S1 1_555 1_555
O7 S1 1_555 1_555
O8 Dy1 1_555 1_555
H8 O8 1_555 1_555
H9 O8 1_555 1_555
O9 Dy1 1_555 1_555
H10 O9 1_555 1_555
H11 O9 1_555 1_555
Dy1A O3 1_555 1_555
Dy1A_2 O2 1_555 1_555
Dy1A_3 O5 1_555 1_555
O2A Dy1 1_555 1_555
O3A Dy1 1_555 1_555
O5A Dy1 1_555 1_555
S1 O5 1_555 1_555
C8 C9 1_555 1_555
C9 N1 1_555 1_555
Dy1A_3 O5A 1_555 1_555

#END
