
#######################################################################
#
#                 Cambridge Crystallographic Data Centre
#                                CCDC 
#
#######################################################################
#
# If this CIF has been generated from an entry in the Cambridge 
# Structural Database, then it will include bibliographic, chemical, 
# crystal, experimental, refinement or atomic coordinate data resulting 
# from the CCDC's data processing and validation procedures.
#
#######################################################################

data_LOYBAC01
_symmetry_cell_setting           monoclinic
_symmetry_space_group_name_H-M   'P 21/a'
_symmetry_Int_Tables_number      14
_space_group_name_Hall           '-P 2yab'
loop_
_symmetry_equiv_pos_site_id
_symmetry_equiv_pos_as_xyz
1 x,y,z
2 1/2-x,1/2+y,-z
3 -x,-y,-z
4 1/2+x,1/2-y,z
_cell_length_a                   12.953(2)
_cell_length_b                   11.237(2)
_cell_length_c                   14.007(3)
_cell_angle_alpha                90
_cell_angle_beta                 101.86(5)
_cell_angle_gamma                90
_cell_volume                     1995.24
loop_
_atom_site_label
_atom_site_type_symbol
_atom_site_fract_x
_atom_site_fract_y
_atom_site_fract_z
Ce1 Ce 0.35149(4) 0.20664(5) 0.73122(4)
O1 O 0.3760(7) 0.5220(8) 0.5300(6)
O2 O 0.3723(6) 0.4027(6) 0.6547(5)
O3 O 0.3658(6) 0.0087(6) 0.6420(6)
O4 O 0.3735(7) -0.0987(7) 0.5124(6)
O5 O 0.2819(5) 0.0729(6) 0.8480(5)
O6 O 0.2849(6) -0.1047(7) 0.9211(6)
O7 O 0.5465(5) 0.2185(6) 0.7289(5)
O8 O 0.7158(5) 0.1653(6) 0.7815(5)
O9 O 0.1734(6) 0.1528(7) 0.6358(6)
O10 O 0.4399(6) 0.3195(6) 0.8774(5)
N1 N 0.3685(6) 0.2096(9) 0.5464(6)
N2 N 0.4810(6) 0.0512(7) 0.8332(5)
C1 C 0.3712(9) 0.4218(11) 0.5665(9)
C2 C 0.3690(8) 0.3145(10) 0.5021(7)
C3 C 0.3685(10) 0.3229(10) 0.4049(8)
H1 H 0.3724 0.3966 0.3756
C4 C 0.3621(12) 0.2176(12) 0.3504(8)
H2 H 0.3581 0.2203 0.2833
C5 C 0.3618(10) 0.1123(12) 0.3964(8)
H3 H 0.3587 0.0417 0.3611
C6 C 0.3662(8) 0.1087(10) 0.4950(8)
C7 C 0.3703(9) -0.0001(10) 0.5573(9)
C8 C 0.6171(8) 0.1528(10) 0.7742(8)
C9 C 0.5832(7) 0.0476(9) 0.8279(6)
C10 C 0.6475(8) -0.0466(9) 0.8623(7)
H4 H 0.7186 -0.0466 0.8593
C11 C 0.6030(8) -0.1410(10) 0.9014(8)
H5 H 0.6433 -0.2078 0.9232
C12 C 0.5008(8) -0.1366(9) 0.9080(7)
H6 H 0.4705 -0.1996 0.9353
C13 C 0.4430(8) -0.0402(9) 0.8749(7)
C14 C 0.3266(8) -0.0237(10) 0.8819(8)
O8C O 0.2158(5) 0.3347(6) 0.7815(5)
Ce1C Ce 0.85149(4) 0.29336(5) 0.73122(4)
O11 O 0.6499(5) 0.3080(7) 0.9588(5)
O12 O 0.0990(6) -0.0572(7) 0.9683(6)
O13 O 0.3860(8) -0.2736(8) 0.6210(7)
O14 O 0.4188(11) 0.5986(9) 0.7946(8)
loop_
_geom_bond_atom_site_label_1
_geom_bond_atom_site_label_2
_geom_bond_site_symmetry_1
_geom_bond_site_symmetry_2
Ce1 O2 1_555 1_555
O1 C1 1_555 1_555
O2 C1 1_555 1_555
O3 Ce1 1_555 1_555
O4 C7 1_555 1_555
O5 Ce1 1_555 1_555
O6 C14 1_555 1_555
O7 Ce1 1_555 1_555
O8 C8 1_555 1_555
O9 Ce1 1_555 1_555
O10 Ce1 1_555 1_555
N1 Ce1 1_555 1_555
N2 Ce1 1_555 1_555
C1 C2 1_555 1_555
C2 N1 1_555 1_555
C3 C2 1_555 1_555
H1 C3 1_555 1_555
C4 C3 1_555 1_555
H2 C4 1_555 1_555
C5 C4 1_555 1_555
H3 C5 1_555 1_555
C6 N1 1_555 1_555
C7 O3 1_555 1_555
C8 O7 1_555 1_555
C9 N2 1_555 1_555
C10 C9 1_555 1_555
H4 C10 1_555 1_555
C11 C10 1_555 1_555
H5 C11 1_555 1_555
C12 C11 1_555 1_555
H6 C12 1_555 1_555
C13 N2 1_555 1_555
C14 O5 1_555 1_555
O8C Ce1 1_555 1_555
Ce1C O8 1_555 1_555
C5 C6 1_555 1_555
C6 C7 1_555 1_555
C8 C9 1_555 1_555
C12 C13 1_555 1_555
C13 C14 1_555 1_555

#END
