
#######################################################################
#
#                 Cambridge Crystallographic Data Centre
#                                CCDC 
#
#######################################################################
#
# If this CIF has been generated from an entry in the Cambridge 
# Structural Database, then it will include bibliographic, chemical, 
# crystal, experimental, refinement or atomic coordinate data resulting 
# from the CCDC's data processing and validation procedures.
#
#######################################################################

data_LOYBAC03
_symmetry_cell_setting           monoclinic
_symmetry_space_group_name_H-M   'P 21/c'
_symmetry_Int_Tables_number      14
_space_group_name_Hall           '-P 2ybc'
loop_
_symmetry_equiv_pos_site_id
_symmetry_equiv_pos_as_xyz
1 x,y,z
2 -x,1/2+y,1/2-z
3 -x,-y,-z
4 x,1/2-y,1/2+z
_cell_length_a                   14.0273(8)
_cell_length_b                   11.2184(6)
_cell_length_c                   12.9441(8)
_cell_angle_alpha                90
_cell_angle_beta                 102.177(5)
_cell_angle_gamma                90
_cell_volume                     1991.1
loop_
_atom_site_label
_atom_site_type_symbol
_atom_site_fract_x
_atom_site_fract_y
_atom_site_fract_z
Ce1 Ce 0.732141(7) 0.294146(8) 0.350572(7)
O1 O 0.65534(10) 0.09669(13) 0.37063(12)
O2 O 0.63595(12) 0.34648(16) 0.17129(12)
H1 H 0.5916 0.4001 0.1553
H2 H 0.6536 0.3085 0.1169
O3 O 0.52828(12) -0.02153(15) 0.37701(15)
O4 O 0.87760(11) 0.18172(14) 0.43894(11)
H3 H 0.9008 0.1939 0.5154
H4 H 0.9196 0.1379 0.4175
O5 O 0.64447(11) 0.49226(13) 0.36319(12)
O6 O 0.51329(13) 0.60078(15) 0.37197(16)
H5 H 0.5526 0.6575 0.3733
O7 O 0.84970(11) 0.42949(13) 0.28230(11)
O8 O 0.92307(12) 0.60700(13) 0.28435(11)
O9 O 0.78416(11) 0.33504(13) 0.71583(10)
O10 O 0.72974(11) 0.28243(12) 0.54675(11)
N1 N 0.54796(13) 0.29005(15) 0.36717(13)
N2 N 0.83508(11) 0.44979(14) 0.48104(12)
C1 C 0.50220(15) 0.18629(19) 0.36993(18)
C2 C 0.40348(18) 0.1794(3) 0.3696(3)
H6 H 0.3725 0.1044 0.3720
C3 C 0.3509(2) 0.2850(3) 0.3657(4)
H7 H 0.2829 0.2830 0.3643
C4 C 0.39795(19) 0.3927(3) 0.3640(3)
H8 H 0.3634 0.4658 0.3619
C5 C 0.49702(16) 0.3913(2) 0.36549(17)
C6 C 0.56677(15) 0.07806(18) 0.37293(16)
C7 C 0.55789(16) 0.50102(19) 0.36662(17)
C8 C 0.87638(13) 0.54117(16) 0.44052(14)
C9 C 0.91011(14) 0.64157(17) 0.49968(15)
H9 H 0.9367 0.7069 0.4685
C10 C 0.90419(15) 0.64456(17) 0.60536(15)
H10 H 0.9271 0.7121 0.6476
C11 C 0.86444(14) 0.54814(17) 0.64889(14)
H11 H 0.8615 0.5471 0.7215
C12 C 0.82901(13) 0.45305(16) 0.58271(14)
C13 C 0.88348(14) 0.52608(17) 0.32617(14)
C14 C 0.77749(13) 0.34813(16) 0.61901(14)
Ce1C Ce 0.732141(7) 0.205854(8) 0.850572(7)
O9C O 0.78416(11) 0.16496(13) 0.21583(10)
O11 O 0.20160(17) 0.40244(19) 0.0862(2)
H12 H 0.1555 0.4105 0.0238
H13 H 0.2500 0.4513 0.0588
O12 O 0.37671(17) 0.27556(18) 0.1178(3)
H14 H 0.3133 0.2601 0.1117
H15 H 0.3983 0.3520 0.1242
O13 O 0.04092(11) 0.81057(13) 0.35098(11)
H16 H 0.0737 0.8270 0.3058
H17 H 0.0121 0.7499 0.3297
O14 O 0.03258(12) 0.05684(14) 0.40382(12)
H18 H 0.0211 -0.0234 0.4021
H19 H 0.0507 0.0736 0.3478
loop_
_geom_bond_atom_site_label_1
_geom_bond_atom_site_label_2
_geom_bond_site_symmetry_1
_geom_bond_site_symmetry_2
Ce1 O1 1_555 1_555
O1 C6 1_555 1_555
O2 Ce1 1_555 1_555
H1 O2 1_555 1_555
H2 O2 1_555 1_555
O3 C6 1_555 1_555
O4 Ce1 1_555 1_555
H3 O4 1_555 1_555
H4 O4 1_555 1_555
O5 Ce1 1_555 1_555
O6 H5 1_555 1_555
O7 Ce1 1_555 1_555
O8 C13 1_555 1_555
O9 C14 1_555 1_555
O10 Ce1 1_555 1_555
N1 Ce1 1_555 1_555
N2 Ce1 1_555 1_555
C1 N1 1_555 1_555
C2 C1 1_555 1_555
H6 C2 1_555 1_555
C3 C2 1_555 1_555
H7 C3 1_555 1_555
C4 C3 1_555 1_555
H8 C4 1_555 1_555
C5 N1 1_555 1_555
C6 C1 1_555 1_555
C7 O5 1_555 1_555
C8 N2 1_555 1_555
C9 C8 1_555 1_555
H9 C9 1_555 1_555
C10 C9 1_555 1_555
H10 C10 1_555 1_555
C11 C10 1_555 1_555
H11 C11 1_555 1_555
C12 N2 1_555 1_555
C13 O7 1_555 1_555
C14 O10 1_555 1_555
O11 H12 1_555 1_555
H13 O11 1_555 1_555
O12 H14 1_555 1_555
H15 O12 1_555 1_555
O13 H16 1_555 1_555
H17 O13 1_555 1_555
O14 H18 1_555 1_555
H19 O14 1_555 1_555
Ce1C O9 1_555 1_555
O9C Ce1 1_555 1_555
O6 C7 1_555 1_555
C4 C5 1_555 1_555
C5 C7 1_555 1_555
C8 C13 1_555 1_555
C11 C12 1_555 1_555
C12 C14 1_555 1_555

#END
