
#######################################################################
#
#                 Cambridge Crystallographic Data Centre
#                                CCDC 
#
#######################################################################
#
# If this CIF has been generated from an entry in the Cambridge 
# Structural Database, then it will include bibliographic, chemical, 
# crystal, experimental, refinement or atomic coordinate data resulting 
# from the CCDC's data processing and validation procedures.
#
#######################################################################

data_LOYBEI
_symmetry_cell_setting           monoclinic
_symmetry_space_group_name_H-M   'P 21'
_symmetry_Int_Tables_number      4
_space_group_name_Hall           'P 2yb'
loop_
_symmetry_equiv_pos_site_id
_symmetry_equiv_pos_as_xyz
1 x,y,z
2 -x,1/2+y,-z
_cell_length_a                   11.289(2)
_cell_length_b                   8.0295(11)
_cell_length_c                   14.209(4)
_cell_angle_alpha                90
_cell_angle_beta                 101.506(3)
_cell_angle_gamma                90
_cell_volume                     1262.09
loop_
_atom_site_label
_atom_site_type_symbol
_atom_site_fract_x
_atom_site_fract_y
_atom_site_fract_z
Cd1 Cd 1.00577(2) 0.05910(3) 0.964153(19)
Cd2 Cd 0.60870(2) 0.15579(3) 0.921162(19)
C1 C 0.8421(4) 0.2231(5) 0.8257(3)
C2 C 0.7558(3) 0.2851(6) 0.7412(3)
H1 H 0.6779 0.3120 0.7481
C3 C 0.7841(4) 0.3042(5) 0.6566(3)
H2 H 0.8641 0.2869 0.6518
C4 C 0.6976(4) 0.3509(5) 0.5689(3)
C5 C 0.7222(4) 0.3043(6) 0.4803(3)
H3 H 0.7962 0.2555 0.4778
C6 C 0.5891(4) 0.4315(5) 0.5716(3)
H4 H 0.5718 0.4643 0.6302
C7 C 0.5068(4) 0.4628(6) 0.4873(3)
H5 H 0.4356 0.5197 0.4892
C8 C 0.5304(4) 0.4093(6) 0.3995(3)
H6 H 0.4735 0.4274 0.3434
C9 C 0.6381(4) 0.3294(5) 0.3953(3)
C10 C 0.6716(4) 0.2752(6) 0.3047(3)
H7 H 0.7534 0.2598 0.3056
C11 C 0.5964(4) 0.2470(7) 0.2233(3)
H8 H 0.5139 0.2581 0.2213
C12 C 0.6372(4) 0.1980(5) 0.1342(3)
C13 C 0.3939(4) 0.1976(5) 0.7945(3)
C14 C 0.2894(4) 0.2540(7) 0.7202(3)
H9 H 0.2160 0.2718 0.7388
C15 C 0.2946(4) 0.2804(6) 0.6291(3)
H10 H 0.3667 0.2545 0.6102
C16 C 0.1958(3) 0.3472(5) 0.5551(3)
C17 C 0.1945(4) 0.3234(5) 0.4576(3)
H11 H 0.2585 0.2676 0.4393
C18 C 0.0998(4) 0.4353(6) 0.5814(3)
H12 H 0.0995 0.4528 0.6461
C19 C 0.0072(4) 0.4956(6) 0.5132(4)
H13 H -0.0554 0.5545 0.5316
C20 C 0.0059(4) 0.4696(6) 0.4170(3)
H14 H -0.0578 0.5113 0.3713
C21 C 0.0994(4) 0.3812(5) 0.3868(3)
C22 C 0.0855(4) 0.3468(5) 0.2841(3)
H15 H 0.0218 0.4016 0.2446
C23 C 0.1508(4) 0.2486(6) 0.2393(3)
H16 H 0.2239 0.2067 0.2729
C24 C 0.1096(4) 0.2045(4) 0.1367(3)
O1 O 0.7454(3) 0.1892(4) 0.1297(2)
O2 O 0.5516(3) 0.1695(5) 0.0624(2)
O3 O 0.9545(2) 0.2218(4) 0.8263(2)
O4 O 0.8024(2) 0.1622(4) 0.89579(19)
O5 O 1.1675(3) 0.0115(4) 0.8900(3)
H17 H 1.167(5) -0.095(3) 0.883(4)
H18 H 1.241(2) 0.038(7) 0.895(5)
O6 O 0.8850(3) -0.0498(4) 1.0731(2)
H19 H 0.929(3) -0.105(5) 1.120(2)
H20 H 0.857(5) 0.026(5) 1.104(3)
O7 O 0.6570(3) -0.1217(4) 0.9442(3)
H21 H 0.602(4) -0.155(9) 0.972(4)
H22 H 0.720(3) -0.134(7) 0.986(3)
O8 O 0.6270(3) 0.4407(4) 0.9191(3)
H23 H 0.695(3) 0.478(7) 0.917(5)
H24 H 0.577(4) 0.512(6) 0.926(5)
O9 O 0.4944(3) 0.1749(5) 0.7724(2)
O10 O 0.3786(3) 0.1798(5) 0.8790(2)
O11 O 0.1513(3) 0.0738(4) 0.1050(2)
O12 O 0.0282(3) 0.2873(4) 0.0826(2)
Cd1_2 Cd 0.00577(2) 0.05910(3) -0.035847(19)
Cd1A Cd -0.00577(2) 0.55910(3) 0.035847(19)
Cd2_2 Cd 0.60870(2) 0.15579(3) -0.078838(19)
O2_2 O 0.5516(3) 0.1695(5) 1.0624(2)
O11_2 O 1.1513(3) 0.0738(4) 1.1050(2)
O12_2 O 1.0282(3) 0.2873(4) 1.0826(2)
O12A O 0.9718(3) -0.2127(4) 0.9174(2)
loop_
_geom_bond_atom_site_label_1
_geom_bond_atom_site_label_2
_geom_bond_site_symmetry_1
_geom_bond_site_symmetry_2
Cd1 O3 1_555 1_555
Cd2 O4 1_555 1_555
C1 C2 1_555 1_555
C2 H1 1_555 1_555
C3 C2 1_555 1_555
H2 C3 1_555 1_555
C4 C3 1_555 1_555
C5 C4 1_555 1_555
H3 C5 1_555 1_555
C6 C4 1_555 1_555
H4 C6 1_555 1_555
C7 C6 1_555 1_555
H5 C7 1_555 1_555
C8 C7 1_555 1_555
H6 C8 1_555 1_555
C9 C5 1_555 1_555
C10 C9 1_555 1_555
H7 C10 1_555 1_555
C11 C10 1_555 1_555
H8 C11 1_555 1_555
C12 C11 1_555 1_555
C13 C14 1_555 1_555
C14 H9 1_555 1_555
C15 C14 1_555 1_555
H10 C15 1_555 1_555
C16 C15 1_555 1_555
C17 C16 1_555 1_555
H11 C17 1_555 1_555
C18 C16 1_555 1_555
H12 C18 1_555 1_555
C19 C18 1_555 1_555
H13 C19 1_555 1_555
C20 C19 1_555 1_555
H14 C20 1_555 1_555
C21 C17 1_555 1_555
C22 C21 1_555 1_555
H15 C22 1_555 1_555
C23 C22 1_555 1_555
H16 C23 1_555 1_555
C24 C23 1_555 1_555
O1 C12 1_555 1_555
O2 C12 1_555 1_555
O3 C1 1_555 1_555
O4 Cd1 1_555 1_555
O5 Cd1 1_555 1_555
H17 O5 1_555 1_555
H18 O5 1_555 1_555
O6 Cd1 1_555 1_555
H19 O6 1_555 1_555
H20 O6 1_555 1_555
O7 Cd2 1_555 1_555
H21 O7 1_555 1_555
H22 O7 1_555 1_555
O8 Cd2 1_555 1_555
H23 O8 1_555 1_555
H24 O8 1_555 1_555
O9 Cd2 1_555 1_555
O10 Cd2 1_555 1_555
O11 C24 1_555 1_555
O12 C24 1_555 1_555
Cd1_2 O11 1_555 1_555
Cd1A O12 1_555 1_555
Cd2_2 O2 1_555 1_555
O2_2 Cd2 1_555 1_555
O11_2 Cd1 1_555 1_555
O12_2 Cd1 1_555 1_555
O12A Cd1 1_555 1_555
C1 O4 1_555 1_555
C8 C9 1_555 1_555
C13 O9 1_555 1_555
C13 O10 1_555 1_555
C20 C21 1_555 1_555
O12 Cd1_2 1_555 1_555

#END
