
#######################################################################
#
#                 Cambridge Crystallographic Data Centre
#                                CCDC 
#
#######################################################################
#
# If this CIF has been generated from an entry in the Cambridge 
# Structural Database, then it will include bibliographic, chemical, 
# crystal, experimental, refinement or atomic coordinate data resulting 
# from the CCDC's data processing and validation procedures.
#
#######################################################################

data_LOYBAC02
_symmetry_cell_setting           monoclinic
_symmetry_space_group_name_H-M   'P 21/c'
_symmetry_Int_Tables_number      14
_space_group_name_Hall           '-P 2ybc'
loop_
_symmetry_equiv_pos_site_id
_symmetry_equiv_pos_as_xyz
1 x,y,z
2 -x,1/2+y,1/2-z
3 -x,-y,-z
4 x,1/2-y,1/2+z
_cell_length_a                   14.046(1)
_cell_length_b                   11.221(1)
_cell_length_c                   12.961(1)
_cell_angle_alpha                90
_cell_angle_beta                 102.09(1)
_cell_angle_gamma                90
_cell_volume                     1997.48
loop_
_atom_site_label
_atom_site_type_symbol
_atom_site_fract_x
_atom_site_fract_y
_atom_site_fract_z
Ce1 Ce 0.231670(9) 0.206004(11) 0.350930(9)
N1 N 0.04792(16) 0.21061(18) 0.36762(17)
C1 C 0.0022(2) 0.3145(2) 0.3700(2)
C2 C -0.0963(2) 0.3213(3) 0.3692(3)
H1 H -0.126(3) 0.404(3) 0.376(3)
C3 C -0.1490(3) 0.2164(4) 0.3651(4)
H2 H -0.217(3) 0.217(3) 0.360(3)
C4 C -0.1022(2) 0.1089(3) 0.3639(3)
H3 H -0.131(3) 0.032(3) 0.364(3)
C5 C -0.0034(2) 0.1093(3) 0.3659(2)
C6 C 0.06713(19) 0.4227(2) 0.3730(2)
C7 C 0.0573(2) 0.0001(2) 0.3672(2)
O1 O 0.15542(13) 0.40316(16) 0.37087(14)
O2 O 0.02858(14) 0.52216(18) 0.37696(18)
O3 O 0.14377(13) 0.00828(16) 0.36396(15)
O4 O 0.01263(17) -0.09969(19) 0.37274(19)
H4 H 0.058(3) -0.167(4) 0.374(3)
N2 N 0.33439(14) 0.05069(17) 0.48106(15)
C8 C 0.37578(17) -0.0409(2) 0.44065(18)
C9 C 0.40982(18) -0.1408(2) 0.5001(2)
H5 H 0.433(3) -0.204(3) 0.465(3)
C10 C 0.40361(19) -0.1436(2) 0.6052(2)
H6 H 0.420(3) -0.211(3) 0.642(3)
C11 C 0.36393(18) -0.0477(2) 0.64836(19)
H7 H 0.356(3) -0.049(3) 0.718(3)
C12 C 0.32834(16) 0.0470(2) 0.58296(18)
C13 C 0.38298(17) -0.0258(2) 0.32665(19)
C14 C 0.27681(17) 0.1519(2) 0.61888(18)
O5 O 0.34876(13) 0.07050(16) 0.28253(13)
O6 O 0.42280(15) -0.10638(16) 0.28472(14)
O7 O 0.22939(13) 0.21770(15) 0.54703(14)
O8 O 0.28356(13) 0.16525(16) 0.71606(13)
O9 O 0.37672(14) 0.31783(18) 0.43856(15)
H8 H 0.390(3) 0.309(3) 0.497(3)
H9 H 0.423(3) 0.361(3) 0.416(3)
O10 O 0.13565(16) 0.1542(2) 0.17215(15)
H10 H 0.154(3) 0.186(3) 0.119(3)
H11 H 0.092(3) 0.109(4) 0.151(3)
Ce1C Ce 0.231670(9) 0.293996(11) 0.850930(9)
O8C O 0.28356(13) 0.33475(16) 0.21606(13)
O11 O 0.46808(16) -0.05729(19) 0.09682(17)
H12 H 0.451(3) -0.076(3) 0.152(3)
H13 H 0.480(3) 0.014(4) 0.099(3)
O12 O 0.45895(15) 0.30983(18) 0.64884(15)
H14 H 0.496(3) 0.253(4) 0.670(3)
H15 H 0.429(3) 0.328(4) 0.689(3)
O13 O 0.1230(2) -0.2743(2) 0.3826(3)
H16 H 0.186(3) -0.246(4) 0.391(3)
H17 H 0.096(3) -0.343(4) 0.377(3)
O14 O 0.2989(2) -0.4021(3) 0.4152(3)
H18 H 0.264(3) -0.470(4) 0.400(3)
H19 H 0.277(3) -0.404(3) 0.485(3)
loop_
_geom_bond_atom_site_label_1
_geom_bond_atom_site_label_2
_geom_bond_site_symmetry_1
_geom_bond_site_symmetry_2
Ce1 N1 1_555 1_555
N1 C1 1_555 1_555
C1 C2 1_555 1_555
C2 H1 1_555 1_555
C3 C2 1_555 1_555
H2 C3 1_555 1_555
C4 C3 1_555 1_555
H3 C4 1_555 1_555
C5 N1 1_555 1_555
C6 C1 1_555 1_555
C7 C5 1_555 1_555
O1 Ce1 1_555 1_555
O2 C6 1_555 1_555
O3 Ce1 1_555 1_555
O4 C7 1_555 1_555
H4 O4 1_555 1_555
N2 Ce1 1_555 1_555
C8 N2 1_555 1_555
C9 C8 1_555 1_555
H5 C9 1_555 1_555
C10 C9 1_555 1_555
H6 C10 1_555 1_555
C11 C10 1_555 1_555
H7 C11 1_555 1_555
C12 N2 1_555 1_555
C13 C8 1_555 1_555
C14 C12 1_555 1_555
O5 Ce1 1_555 1_555
O6 C13 1_555 1_555
O7 Ce1 1_555 1_555
O8 C14 1_555 1_555
O9 Ce1 1_555 1_555
H8 O9 1_555 1_555
H9 O9 1_555 1_555
O10 Ce1 1_555 1_555
H10 O10 1_555 1_555
H11 O10 1_555 1_555
O11 H12 1_555 1_555
H13 O11 1_555 1_555
O12 H14 1_555 1_555
H15 O12 1_555 1_555
O13 H16 1_555 1_555
H17 O13 1_555 1_555
O14 H18 1_555 1_555
H19 O14 1_555 1_555
Ce1C O8 1_555 1_555
O8C Ce1 1_555 1_555
C4 C5 1_555 1_555
C6 O1 1_555 1_555
C7 O3 1_555 1_555
C11 C12 1_555 1_555
C13 O5 1_555 1_555
C14 O7 1_555 1_555

#END
