
#######################################################################
#
#                 Cambridge Crystallographic Data Centre
#                                CCDC 
#
#######################################################################
#
# If this CIF has been generated from an entry in the Cambridge 
# Structural Database, then it will include bibliographic, chemical, 
# crystal, experimental, refinement or atomic coordinate data resulting 
# from the CCDC's data processing and validation procedures.
#
#######################################################################

data_LOYMET
_symmetry_cell_setting           monoclinic
_symmetry_space_group_name_H-M   'C 2/c'
_symmetry_Int_Tables_number      15
_space_group_name_Hall           '-C 2yn'
loop_
_symmetry_equiv_pos_site_id
_symmetry_equiv_pos_as_xyz
1 x,y,z
2 -x,y,1/2-z
3 1/2+x,1/2+y,z
4 1/2-x,1/2+y,1/2-z
5 -x,-y,-z
6 x,-y,1/2+z
7 1/2-x,1/2-y,-z
8 1/2+x,1/2-y,1/2+z
_cell_length_a                   14.4565(4)
_cell_length_b                   38.2307(8)
_cell_length_c                   10.0080(2)
_cell_angle_alpha                90
_cell_angle_beta                 109.779(3)
_cell_angle_gamma                90
_cell_volume                     5204.93
loop_
_atom_site_label
_atom_site_type_symbol
_atom_site_fract_x
_atom_site_fract_y
_atom_site_fract_z
Zn1 Zn 0.87170(3) 0.171143(11) 0.78638(4)
F1 F 0.27197(13) 0.01420(5) 0.2745(2)
O1 O -0.03949(16) 0.13310(6) -0.0988(2)
C1 C 0.0506(2) 0.14024(8) -0.0604(3)
F2 F 0.40491(14) 0.03729(5) 0.2658(2)
O2 O 0.08580(17) 0.16564(6) -0.1067(2)
C2 C 0.1202(2) 0.11871(8) 0.0566(3)
F3 F 0.40547(14) 0.00878(5) 0.4518(2)
O3 O 0.64682(17) 0.18881(6) 0.7122(2)
C3 C 0.2207(2) 0.12177(8) 0.0851(3)
H1 H 0.2446 0.1357 0.0253
F4 F 0.22407(16) 0.02948(5) 0.5003(2)
O4 O 0.74874(16) 0.14526(6) 0.7120(2)
C4 C 0.2864(2) 0.10454(8) 0.2003(3)
H2 H 0.3551 0.1066 0.2183
F5 F 0.24493(16) 0.08324(5) 0.5702(2)
C5 C 0.2523(2) 0.08429(8) 0.2900(3)
F6 F 0.36157(16) 0.04591(6) 0.6517(2)
C6 C 0.1512(2) 0.08002(8) 0.2571(3)
H3 H 0.1270 0.0654 0.3145
C7 C 0.0860(2) 0.09702(8) 0.1414(3)
H4 H 0.0172 0.0939 0.1197
C8 C 0.3295(2) 0.06537(8) 0.4144(3)
C9 C 0.2892(3) 0.05591(9) 0.5343(4)
C10 C 0.3533(2) 0.03104(9) 0.3518(4)
C11 C 0.4202(2) 0.08881(8) 0.4818(3)
C12 C 0.4045(2) 0.12343(8) 0.5158(3)
H5 H 0.3393 0.1319 0.4933
C13 C 0.4825(2) 0.14527(8) 0.5812(3)
H6 H 0.4700 0.1685 0.6043
C14 C 0.5792(2) 0.13402(8) 0.6141(3)
C15 C 0.5951(2) 0.09975(8) 0.5806(3)
H7 H 0.6605 0.0914 0.6028
C16 C 0.5168(2) 0.07746(8) 0.5151(3)
H8 H 0.5295 0.0542 0.4928
C17 C 0.6640(2) 0.15848(8) 0.6860(3)
C18 C 0.8731(3) 0.23951(9) 0.6259(4)
H9 H 0.8741 0.2243 0.5512
C19 C 0.8708(3) 0.27524(9) 0.6031(4)
H10 H 0.8695 0.2845 0.5144
C20 C 0.8704(3) 0.29701(9) 0.7127(4)
H11 H 0.8703 0.3217 0.7008
N1 N 0.87402(19) 0.22545(7) 0.7487(3)
C21 C 0.8703(2) 0.28313(9) 0.8389(4)
H12 H 0.8690 0.2980 0.9143
C22 C 0.8723(2) 0.24686(8) 0.8550(4)
C23 C 0.8731(2) 0.22931(8) 0.9877(3)
C24 C 0.8734(2) 0.24746(9) 1.1082(4)
H13 H 0.8744 0.2723 1.1094
N2 N 0.87251(19) 0.19414(7) 0.9836(3)
C25 C 0.8723(3) 0.22902(10) 1.2257(4)
H14 H 0.8719 0.2410 1.3088
C26 C 0.8717(3) 0.19287(10) 1.2211(4)
H15 H 0.8711 0.1795 1.3009
C27 C 0.8720(2) 0.17644(9) 1.0976(4)
H16 H 0.8719 0.1516 1.0944
Zn1_2 Zn -0.12830(3) 0.171143(11) -0.21362(4)
Zn1A Zn 0.12830(3) 0.171143(11) -0.28638(4)
O1_2 O 0.96051(16) 0.13310(6) 0.9012(2)
O2A O 0.91420(17) 0.16564(6) 0.6067(2)
O5 O 1.0250(4) -0.02046(14) 0.8352(7)
N3 N 0.9610(5) 0.03122(18) 0.7307(8)
C28 C 0.9663(5) 0.0036(2) 0.8152(9)
H17 H 0.9203 0.0026 0.8640
C29 C 0.8858(6) 0.0563(2) 0.7082(10)
H18 H 0.8406 0.0489 0.7568
H19 H 0.8499 0.0585 0.6062
H20 H 0.9148 0.0789 0.7460
C30 C 1.0300(10) 0.0356(3) 0.6607(17)
H21 H 1.0846 0.0192 0.7001
H22 H 1.0552 0.0596 0.6742
H23 H 0.9983 0.0310 0.5591
O5A O 0.9750(4) -0.02046(14) 0.6648(7)
N3A N 1.0390(5) 0.03122(18) 0.7693(8)
C28A C 1.0337(5) 0.0036(2) 0.6848(9)
H17A H 1.0797 0.0026 0.6360
C29A C 1.1142(6) 0.0563(2) 0.7918(10)
H18A H 1.1594 0.0489 0.7432
H19A H 1.1501 0.0585 0.8938
H20A H 1.0852 0.0789 0.7540
C30A C 0.9700(10) 0.0356(3) 0.8393(17)
H21A H 0.9154 0.0192 0.7999
H22A H 0.9448 0.0596 0.8258
H23A H 1.0017 0.0310 0.9409
loop_
_geom_bond_atom_site_label_1
_geom_bond_atom_site_label_2
_geom_bond_site_symmetry_1
_geom_bond_site_symmetry_2
Zn1 O4 1_555 1_555
F1 C10 1_555 1_555
O1 C1 1_555 1_555
C1 O2 1_555 1_555
F2 C10 1_555 1_555
O2 Zn1A 1_555 1_555
C2 C1 1_555 1_555
F3 C10 1_555 1_555
O3 C17 1_555 1_555
C3 C2 1_555 1_555
H1 C3 1_555 1_555
F4 C9 1_555 1_555
O4 C17 1_555 1_555
C4 C3 1_555 1_555
H2 C4 1_555 1_555
F5 C9 1_555 1_555
C5 C4 1_555 1_555
F6 C9 1_555 1_555
C6 C5 1_555 1_555
H3 C6 1_555 1_555
C7 C2 1_555 1_555
H4 C7 1_555 1_555
C8 C5 1_555 1_555
C9 C8 1_555 1_555
C10 C8 1_555 1_555
C11 C8 1_555 1_555
C12 C11 1_555 1_555
H5 C12 1_555 1_555
C13 C12 1_555 1_555
H6 C13 1_555 1_555
C14 C13 1_555 1_555
C15 C14 1_555 1_555
H7 C15 1_555 1_555
C16 C11 1_555 1_555
H8 C16 1_555 1_555
C17 C14 1_555 1_555
C18 H9 1_555 1_555
C19 C18 1_555 1_555
H10 C19 1_555 1_555
C20 C19 1_555 1_555
H11 C20 1_555 1_555
N1 Zn1 1_555 1_555
C21 C20 1_555 1_555
H12 C21 1_555 1_555
C22 N1 1_555 1_555
C23 C22 1_555 1_555
C24 C23 1_555 1_555
H13 C24 1_555 1_555
N2 Zn1 1_555 1_555
C25 C24 1_555 1_555
H14 C25 1_555 1_555
C26 C25 1_555 1_555
H15 C26 1_555 1_555
C27 N2 1_555 1_555
H16 C27 1_555 1_555
O5 C28 1_555 1_555
N3 C28 1_555 1_555
C28 H17 1_555 1_555
C29 N3 1_555 1_555
H18 C29 1_555 1_555
H19 C29 1_555 1_555
H20 C29 1_555 1_555
C30 N3 1_555 1_555
H21 C30 1_555 1_555
H22 C30 1_555 1_555
H23 C30 1_555 1_555
Zn1_2 O1 1_555 1_555
O1_2 Zn1 1_555 1_555
O2A Zn1 1_555 1_555
O5A C28A 1_555 1_555
N3A C28A 1_555 1_555
C28A H17A 1_555 1_555
C29A N3A 1_555 1_555
H18A C29A 1_555 1_555
H19A C29A 1_555 1_555
H20A C29A 1_555 1_555
C30A N3A 1_555 1_555
H21A C30A 1_555 1_555
H22A C30A 1_555 1_555
H23A C30A 1_555 1_555
C6 C7 1_555 1_555
C15 C16 1_555 1_555
C18 N1 1_555 1_555
C21 C22 1_555 1_555
C23 N2 1_555 1_555
C26 C27 1_555 1_555

#END
