
#######################################################################
#
#                 Cambridge Crystallographic Data Centre
#                                CCDC 
#
#######################################################################
#
# If this CIF has been generated from an entry in the Cambridge 
# Structural Database, then it will include bibliographic, chemical, 
# crystal, experimental, refinement or atomic coordinate data resulting 
# from the CCDC's data processing and validation procedures.
#
#######################################################################

data_LOYNOE
_symmetry_cell_setting           monoclinic
_symmetry_space_group_name_H-M   'P 21/n'
_symmetry_Int_Tables_number      14
_space_group_name_Hall           '-P 2yn'
loop_
_symmetry_equiv_pos_site_id
_symmetry_equiv_pos_as_xyz
1 x,y,z
2 1/2-x,1/2+y,1/2-z
3 -x,-y,-z
4 1/2+x,1/2-y,1/2+z
_cell_length_a                   11.9911(6)
_cell_length_b                   12.5320(8)
_cell_length_c                   16.8368(12)
_cell_angle_alpha                90
_cell_angle_beta                 92.022(5)
_cell_angle_gamma                90
_cell_volume                     2528.53
loop_
_atom_site_label
_atom_site_type_symbol
_atom_site_fract_x
_atom_site_fract_y
_atom_site_fract_z
Zn1 Zn 0.69828(4) 0.76436(4) 0.15272(3)
O1 O 0.3692(2) 0.9782(3) 0.2565(2)
O2 O 0.7293(2) 1.1340(2) 0.2785(2)
N1 N 0.5226(3) 0.8806(3) 0.2341(2)
N2 N 0.7073(3) 0.9617(3) 0.2462(2)
C1 C 0.6441(3) 0.8585(3) 0.2439(2)
C2 C 0.4715(3) 0.9711(3) 0.2567(3)
C3 C 0.5421(3) 1.0704(3) 0.2746(3)
C4 C 0.6673(3) 1.0556(3) 0.2696(3)
C5 C 0.5117(4) 1.1187(4) 0.3543(3)
H1 H 0.5320 1.0687 0.3972
H2 H 0.4313 1.1326 0.3542
H3 H 0.5525 1.1858 0.3626
C6 C 0.5081(4) 1.1509(4) 0.2075(3)
H4 H 0.5514 1.2168 0.2146
H5 H 0.4283 1.1671 0.2101
H6 H 0.5232 1.1195 0.1557
C7 C 0.4529(3) 0.7973(3) 0.1989(3)
C8 C 0.4345(3) 0.8000(3) 0.1163(3)
C9 C 0.3782(3) 0.7157(3) 0.0788(3)
H7 H 0.3692 0.7156 0.0225
C10 C 0.3347(3) 0.6315(3) 0.1223(3)
C11 C 0.3433(3) 0.6372(3) 0.2043(3)
H8 H 0.3084 0.5836 0.2347
C12 C 0.4016(3) 0.7193(3) 0.2440(3)
C13 C 0.4653(4) 0.8958(4) 0.0682(3)
H9 H 0.4460 0.8828 0.0120
H10 H 0.5457 0.9089 0.0746
H11 H 0.4244 0.9583 0.0865
C14 C 0.2786(4) 0.5385(4) 0.0813(3)
H12 H 0.2485 0.4904 0.1211
H13 H 0.3330 0.5000 0.0500
H14 H 0.2177 0.5645 0.0461
C15 C 0.3982(4) 0.7219(4) 0.3340(3)
H15 H 0.4667 0.6902 0.3570
H16 H 0.3336 0.6813 0.3513
H17 H 0.3921 0.7960 0.3520
C16 C 0.8227(3) 0.9560(3) 0.2222(3)
C17 C 0.8421(3) 0.9686(3) 0.1411(3)
C18 C 0.9486(4) 0.9478(4) 0.1142(3)
H18 H 0.9612 0.9523 0.0589
C19 C 1.0370(3) 0.9206(4) 0.1662(3)
C20 C 1.0166(3) 0.9204(3) 0.2468(3)
H19 H 1.0773 0.9071 0.2832
C21 C 0.9115(3) 0.9387(3) 0.2768(3)
C22 C 0.7540(4) 1.0068(4) 0.0820(3)
H20 H 0.6810 1.0052 0.1063
H21 H 0.7526 0.9602 0.0352
H22 H 0.7710 1.0800 0.0659
C23 C 1.1514(4) 0.8960(4) 0.1361(3)
H23 H 1.1924 0.9627 0.1289
H24 H 1.1437 0.8584 0.0852
H25 H 1.1923 0.8510 0.1748
C24 C 0.9012(3) 0.9452(4) 0.3650(3)
H26 H 0.8922 0.8733 0.3867
H27 H 0.8361 0.9887 0.3772
H28 H 0.9687 0.9780 0.3888
C25 C 0.6677(3) 0.7985(3) 0.3223(3)
H29 H 0.6301 0.7282 0.3186
H30 H 0.7489 0.7850 0.3277
C26 C 0.6311(4) 0.8538(4) 0.3972(3)
H31 H 0.6727 0.9206 0.4044
H32 H 0.6460 0.8072 0.4431
H33 H 0.5510 0.8693 0.3924
C27 C 0.7339(4) 0.7182(4) 0.0429(3)
H34 H 0.8065 0.7507 0.0306
H35 H 0.7456 0.6400 0.0447
C28 C 0.6544(4) 0.7408(5) -0.0271(3)
H36 H 0.5802 0.7131 -0.0159
H37 H 0.6818 0.7061 -0.0748
H38 H 0.6498 0.8180 -0.0360
Zn1A Zn 0.80172(4) 1.26436(4) 0.34728(3)
O2A O 0.7707(2) 0.6340(2) 0.2215(2)
loop_
_geom_bond_atom_site_label_1
_geom_bond_atom_site_label_2
_geom_bond_site_symmetry_1
_geom_bond_site_symmetry_2
Zn1 C1 1_555 1_555
O1 C2 1_555 1_555
O2 C4 1_555 1_555
N1 C1 1_555 1_555
N2 C1 1_555 1_555
C1 C25 1_555 1_555
C2 N1 1_555 1_555
C3 C2 1_555 1_555
C4 N2 1_555 1_555
C5 C3 1_555 1_555
H1 C5 1_555 1_555
H2 C5 1_555 1_555
H3 C5 1_555 1_555
C6 C3 1_555 1_555
H4 C6 1_555 1_555
H5 C6 1_555 1_555
H6 C6 1_555 1_555
C7 N1 1_555 1_555
C8 C7 1_555 1_555
C9 C8 1_555 1_555
H7 C9 1_555 1_555
C10 C9 1_555 1_555
C11 C10 1_555 1_555
H8 C11 1_555 1_555
C12 C7 1_555 1_555
C13 C8 1_555 1_555
H9 C13 1_555 1_555
H10 C13 1_555 1_555
H11 C13 1_555 1_555
C14 C10 1_555 1_555
H12 C14 1_555 1_555
H13 C14 1_555 1_555
H14 C14 1_555 1_555
C15 C12 1_555 1_555
H15 C15 1_555 1_555
H16 C15 1_555 1_555
H17 C15 1_555 1_555
C16 N2 1_555 1_555
C17 C16 1_555 1_555
C18 C17 1_555 1_555
H18 C18 1_555 1_555
C19 C18 1_555 1_555
C20 C19 1_555 1_555
H19 C20 1_555 1_555
C21 C16 1_555 1_555
C22 C17 1_555 1_555
H20 C22 1_555 1_555
H21 C22 1_555 1_555
H22 C22 1_555 1_555
C23 C19 1_555 1_555
H23 C23 1_555 1_555
H24 C23 1_555 1_555
H25 C23 1_555 1_555
C24 C21 1_555 1_555
H26 C24 1_555 1_555
H27 C24 1_555 1_555
H28 C24 1_555 1_555
C25 H29 1_555 1_555
H30 C25 1_555 1_555
C26 C25 1_555 1_555
H31 C26 1_555 1_555
H32 C26 1_555 1_555
H33 C26 1_555 1_555
C27 Zn1 1_555 1_555
H34 C27 1_555 1_555
H35 C27 1_555 1_555
C28 C27 1_555 1_555
H36 C28 1_555 1_555
H37 C28 1_555 1_555
H38 C28 1_555 1_555
Zn1A O2 1_555 1_555
O2A Zn1 1_555 1_555
C3 C4 1_555 1_555
C11 C12 1_555 1_555
C20 C21 1_555 1_555

#END
