
#######################################################################
#
#                 Cambridge Crystallographic Data Centre
#                                CCDC 
#
#######################################################################
#
# If this CIF has been generated from an entry in the Cambridge 
# Structural Database, then it will include bibliographic, chemical, 
# crystal, experimental, refinement or atomic coordinate data resulting 
# from the CCDC's data processing and validation procedures.
#
#######################################################################

data_LOYRAU
_symmetry_cell_setting           triclinic
_symmetry_space_group_name_H-M   'P -1'
_symmetry_Int_Tables_number      2
_space_group_name_Hall           '-P 1'
loop_
_symmetry_equiv_pos_site_id
_symmetry_equiv_pos_as_xyz
1 x,y,z
2 -x,-y,-z
_cell_length_a                   6.4888(9)
_cell_length_b                   12.0393(16)
_cell_length_c                   12.8648(17)
_cell_angle_alpha                111.713(2)
_cell_angle_beta                 95.419(3)
_cell_angle_gamma                100.495(3)
_cell_volume                     903.559
loop_
_atom_site_label
_atom_site_type_symbol
_atom_site_fract_x
_atom_site_fract_y
_atom_site_fract_z
Cl1 Cl 0.32242(12) 0.20850(7) 0.11662(8)
Cu1 Cu 0.39313(6) 0.40157(4) 0.13745(3)
S1 S 0.70426(12) 0.51291(7) 0.12965(7)
S2 S 1.16690(12) 0.52591(7) 0.17682(7)
N1 N 0.8358(4) 0.2265(2) 0.0311(2)
N2 N 0.8418(4) 0.2821(2) 0.2140(2)
C1 C 0.8621(4) 0.3192(3) 0.1301(3)
C2 C 0.7877(5) 0.1087(3) 0.0431(3)
H1 H 0.8949 0.0609 0.0159
H2 H 0.6446 0.0590 0.0003
C3 C 0.7969(5) 0.1468(3) 0.1711(2)
H3 H 0.6596 0.1128 0.1881
H4 H 0.9118 0.1195 0.2044
C4 C 0.9102(4) 0.4501(3) 0.1454(2)
C5 C 0.8879(5) 0.2316(3) -0.0752(2)
H5 H 1.0146 0.1977 -0.0922
H6 H 0.9233 0.3184 -0.0668
C6 C 0.7037(5) 0.1591(3) -0.1729(3)
C7 C 0.5127(5) 0.1954(3) -0.1726(3)
H7 H 0.4964 0.2645 -0.1101
C8 C 0.3468(5) 0.1318(3) -0.2623(3)
H8 H 0.2170 0.1578 -0.2618
C9 C 0.3674(6) 0.0309(3) -0.3529(3)
H9 H 0.2521 -0.0125 -0.4147
C10 C 0.5548(6) -0.0072(3) -0.3540(3)
H10 H 0.5693 -0.0770 -0.4164
C11 C 0.7227(5) 0.0568(3) -0.2634(3)
H11 H 0.8518 0.0301 -0.2637
C12 C 0.8235(5) 0.3556(3) 0.3298(2)
H12 H 0.6764 0.3311 0.3418
H13 H 0.8517 0.4434 0.3416
C13 C 0.9785(5) 0.3396(3) 0.4158(3)
C14 C 0.9079(5) 0.2946(3) 0.4943(3)
H14 H 0.7594 0.2721 0.4934
C15 C 1.0507(5) 0.2819(3) 0.5741(3)
H15 H 1.0001 0.2515 0.6277
C16 C 1.2666(5) 0.3136(3) 0.5754(3)
H16 H 1.3652 0.3042 0.6292
C17 C 1.3385(5) 0.3590(3) 0.4977(3)
H17 H 1.4871 0.3820 0.4990
C18 C 1.1956(5) 0.3713(3) 0.4181(3)
H18 H 1.2466 0.4018 0.3646
Cu1_2 Cu 1.39313(6) 0.40157(4) 0.13745(3)
S2_2 S 0.16690(12) 0.52591(7) 0.17682(7)
loop_
_geom_bond_atom_site_label_1
_geom_bond_atom_site_label_2
_geom_bond_site_symmetry_1
_geom_bond_site_symmetry_2
Cl1 Cu1 1_555 1_555
Cu1 S1 1_555 1_555
S1 C4 1_555 1_555
S2 C4 1_555 1_555
N1 C1 1_555 1_555
N2 C1 1_555 1_555
C1 C4 1_555 1_555
C2 N1 1_555 1_555
H1 C2 1_555 1_555
H2 C2 1_555 1_555
C3 N2 1_555 1_555
H3 C3 1_555 1_555
H4 C3 1_555 1_555
C5 N1 1_555 1_555
H5 C5 1_555 1_555
H6 C5 1_555 1_555
C6 C5 1_555 1_555
C7 C6 1_555 1_555
H7 C7 1_555 1_555
C8 C7 1_555 1_555
H8 C8 1_555 1_555
C9 C8 1_555 1_555
H9 C9 1_555 1_555
C10 C9 1_555 1_555
H10 C10 1_555 1_555
C11 C6 1_555 1_555
H11 C11 1_555 1_555
C12 N2 1_555 1_555
H12 C12 1_555 1_555
H13 C12 1_555 1_555
C13 C12 1_555 1_555
C14 C13 1_555 1_555
H14 C14 1_555 1_555
C15 C14 1_555 1_555
H15 C15 1_555 1_555
C16 C15 1_555 1_555
H16 C16 1_555 1_555
C17 C16 1_555 1_555
H17 C17 1_555 1_555
C18 C13 1_555 1_555
H18 C18 1_555 1_555
Cu1_2 S2 1_555 1_555
S2_2 Cu1 1_555 1_555
C2 C3 1_555 1_555
C10 C11 1_555 1_555
C17 C18 1_555 1_555

#END
