
#######################################################################
#
#                 Cambridge Crystallographic Data Centre
#                                CCDC 
#
#######################################################################
#
# If this CIF has been generated from an entry in the Cambridge 
# Structural Database, then it will include bibliographic, chemical, 
# crystal, experimental, refinement or atomic coordinate data resulting 
# from the CCDC's data processing and validation procedures.
#
#######################################################################

data_LOYREY
_symmetry_cell_setting           triclinic
_symmetry_space_group_name_H-M   'P -1'
_symmetry_Int_Tables_number      2
_space_group_name_Hall           '-P 1'
loop_
_symmetry_equiv_pos_site_id
_symmetry_equiv_pos_as_xyz
1 x,y,z
2 -x,-y,-z
_cell_length_a                   6.5715(6)
_cell_length_b                   12.1048(11)
_cell_length_c                   12.8077(11)
_cell_angle_alpha                111.257(2)
_cell_angle_beta                 95.214(2)
_cell_angle_gamma                100.494(2)
_cell_volume                     919.825
loop_
_atom_site_label
_atom_site_type_symbol
_atom_site_fract_x
_atom_site_fract_y
_atom_site_fract_z
Br1 Br 0.32287(2) 0.207224(14) 0.122770(16)
Cu1 Cu 0.39515(3) 0.408517(17) 0.139119(17)
S1 S 0.70675(6) 0.51444(3) 0.13063(3)
S2 S 1.16267(6) 0.52677(3) 0.17380(4)
N1 N 0.8351(2) 0.22911(11) 0.03384(11)
N2 N 0.8461(2) 0.28701(11) 0.21806(11)
C1 C 0.8635(2) 0.32169(13) 0.13245(12)
C2 C 0.7873(3) 0.11266(13) 0.04865(14)
H1 H 0.8904 0.0636 0.0200
H2 H 0.6444 0.0646 0.0088
C3 C 0.8035(3) 0.15260(14) 0.17804(14)
H3 H 0.6707 0.1193 0.1982
H4 H 0.9197 0.1264 0.2103
C4 C 0.9094(2) 0.45118(13) 0.14502(12)
C5 C 0.8853(3) 0.23275(15) -0.07333(13)
H5 H 1.0106 0.1992 -0.0902
H6 H 0.9193 0.3184 -0.0667
C6 C 0.7036(3) 0.16000(14) -0.16993(13)
C7 C 0.5141(3) 0.19557(16) -0.17014(15)
H7 H 0.4980 0.2645 -0.1084
C8 C 0.3481(3) 0.13134(18) -0.25975(16)
H8 H 0.2190 0.1561 -0.2590
C9 C 0.3712(3) 0.03113(19) -0.35028(17)
H9 H 0.2583 -0.0122 -0.4121
C10 C 0.5575(4) -0.00575(18) -0.35080(16)
H10 H 0.5725 -0.0749 -0.4127
C11 C 0.7246(3) 0.05837(16) -0.26040(15)
H11 H 0.8527 0.0324 -0.2608
C12 C 0.8307(3) 0.36178(15) 0.33405(13)
H12 H 0.6855 0.3399 0.3474
H13 H 0.8622 0.4487 0.3446
C13 C 0.9824(3) 0.34371(14) 0.41951(13)
C14 C 0.9096(3) 0.29605(16) 0.49658(15)
H14 H 0.7628 0.2742 0.4956
C15 C 1.0504(3) 0.28020(17) 0.57529(15)
H15 H 0.9996 0.2477 0.6278
C16 C 1.2643(3) 0.31180(16) 0.57692(15)
H16 H 1.3604 0.3005 0.6301
C17 C 1.3379(3) 0.36009(18) 0.50056(15)
H17 H 1.4847 0.3827 0.5022
C18 C 1.1975(3) 0.37536(17) 0.42186(15)
H18 H 1.2487 0.4076 0.3693
Cu1_2 Cu 1.39515(3) 0.408517(17) 0.139119(17)
S2_2 S 0.16267(6) 0.52677(3) 0.17380(4)
loop_
_geom_bond_atom_site_label_1
_geom_bond_atom_site_label_2
_geom_bond_site_symmetry_1
_geom_bond_site_symmetry_2
Br1 Cu1 1_555 1_555
Cu1 S1 1_555 1_555
S1 C4 1_555 1_555
S2 C4 1_555 1_555
N1 C1 1_555 1_555
N2 C1 1_555 1_555
C1 C4 1_555 1_555
C2 N1 1_555 1_555
H1 C2 1_555 1_555
H2 C2 1_555 1_555
C3 N2 1_555 1_555
H3 C3 1_555 1_555
H4 C3 1_555 1_555
C5 N1 1_555 1_555
H5 C5 1_555 1_555
H6 C5 1_555 1_555
C6 C5 1_555 1_555
C7 C6 1_555 1_555
H7 C7 1_555 1_555
C8 C7 1_555 1_555
H8 C8 1_555 1_555
C9 C8 1_555 1_555
H9 C9 1_555 1_555
C10 C9 1_555 1_555
H10 C10 1_555 1_555
C11 C6 1_555 1_555
H11 C11 1_555 1_555
C12 N2 1_555 1_555
H12 C12 1_555 1_555
H13 C12 1_555 1_555
C13 C12 1_555 1_555
C14 C13 1_555 1_555
H14 C14 1_555 1_555
C15 C14 1_555 1_555
H15 C15 1_555 1_555
C16 C15 1_555 1_555
H16 C16 1_555 1_555
C17 C16 1_555 1_555
H17 C17 1_555 1_555
C18 C13 1_555 1_555
H18 C18 1_555 1_555
Cu1_2 S2 1_555 1_555
S2_2 Cu1 1_555 1_555
C2 C3 1_555 1_555
C10 C11 1_555 1_555
C17 C18 1_555 1_555

#END
