
#######################################################################
#
#                 Cambridge Crystallographic Data Centre
#                                CCDC 
#
#######################################################################
#
# If this CIF has been generated from an entry in the Cambridge 
# Structural Database, then it will include bibliographic, chemical, 
# crystal, experimental, refinement or atomic coordinate data resulting 
# from the CCDC's data processing and validation procedures.
#
#######################################################################

data_LOYROG
_symmetry_cell_setting           monoclinic
_symmetry_space_group_name_H-M   'C 2/c'
_symmetry_Int_Tables_number      15
_space_group_name_Hall           '-C 2yn'
loop_
_symmetry_equiv_pos_site_id
_symmetry_equiv_pos_as_xyz
1 x,y,z
2 x,-y,1/2+z
3 1/2+x,1/2+y,z
4 1/2+x,1/2-y,1/2+z
5 -x,-y,-z
6 -x,y,1/2-z
7 1/2-x,1/2-y,-z
8 1/2-x,1/2+y,1/2-z
_cell_length_a                   9.671(14)
_cell_length_b                   18.28(3)
_cell_length_c                   9.898(14)
_cell_angle_alpha                90
_cell_angle_beta                 93.084(10)
_cell_angle_gamma                90
_cell_volume                     1747.29
loop_
_atom_site_label
_atom_site_type_symbol
_atom_site_fract_x
_atom_site_fract_y
_atom_site_fract_z
Cu1 Cu 0.5000 0.54359(4) 0.7500
N1 N 0.6547(6) 0.5463(2) 0.8968(5)
N2 N 0.6684(4) 0.5011(2) 0.9823(4)
N3 N 0.6834(6) 0.4567(2) 1.0658(5)
N4 N 0.5000 0.4343(4) 0.7500
C1 C 0.6168(5) 0.3946(3) 0.7443(5)
H1 H 0.6997 0.4200 0.7391
C2 C 0.6232(5) 0.3195(3) 0.7455(5)
H2 H 0.7084 0.2961 0.7433
C3 C 0.5000 0.2777(4) 0.7500
N5 N 0.5000 0.2035(3) 0.7500
C4 C 0.6288(6) 0.1629(3) 0.7489(7)
H3 H 0.6771 0.1761 0.6703
H4 H 0.6093 0.1114 0.7470
H5 H 0.6853 0.1744 0.8288
N6 N 0.5000 0.6537(3) 0.7500
C5 C 0.5022(5) 0.6928(3) 0.8660(5)
H6 H 0.5039 0.6675 0.9475
C6 C 0.5019(5) 0.7677(3) 0.8701(5)
H7 H 0.5030 0.7915 0.9531
C7 C 0.5000 0.8090(4) 0.7500
N7 N 0.5000 0.8834(3) 0.7500
C8 C 0.5027(7) 0.9244(3) 0.8764(7)
H8 H 0.4263 0.9096 0.9280
H9 H 0.4956 0.9757 0.8570
H10 H 0.5880 0.9148 0.9274
C2E C 0.3768(5) 0.3195(3) 0.7545(5)
C1E C 0.3832(5) 0.3946(3) 0.7557(5)
H1E H 0.3003 0.4200 0.7609
H2E H 0.2916 0.2961 0.7567
C4E C 0.3712(6) 0.1629(3) 0.7511(7)
H3E H 0.3229 0.1761 0.8297
H4E H 0.3907 0.1114 0.7530
H5E H 0.3147 0.1744 0.6712
C6E C 0.4981(5) 0.7677(3) 0.6299(5)
C5E C 0.4978(5) 0.6928(3) 0.6340(5)
H6E H 0.4961 0.6675 0.5525
H7E H 0.4970 0.7915 0.5469
C8E C 0.4973(7) 0.9244(3) 0.6236(7)
H8E H 0.5737 0.9096 0.5720
H9E H 0.5044 0.9757 0.6430
H10E H 0.4120 0.9148 0.5726
N1E N 0.3453(6) 0.5463(2) 0.6032(5)
N2E N 0.3316(4) 0.5011(2) 0.5177(4)
N3E N 0.3166(6) 0.4567(2) 0.4342(5)
N3A N 0.6834(6) 0.5433(2) 0.5658(5)
N3D N 0.3166(6) 0.5433(2) 0.9342(5)
Cu1A Cu 0.5000 0.45641(4) 1.2500
Cu1A_2 Cu 0.5000 0.45641(4) 0.2500
loop_
_geom_bond_atom_site_label_1
_geom_bond_atom_site_label_2
_geom_bond_site_symmetry_1
_geom_bond_site_symmetry_2
Cu1 N1 1_555 1_555
N1 N2 1_555 1_555
N2 N3 1_555 1_555
N3 Cu1A 1_555 1_555
N4 Cu1 1_555 1_555
C1 N4 1_555 1_555
H1 C1 1_555 1_555
C2 C1 1_555 1_555
H2 C2 1_555 1_555
C3 C2 1_555 1_555
N5 C3 1_555 1_555
C4 N5 1_555 1_555
H3 C4 1_555 1_555
H4 C4 1_555 1_555
H5 C4 1_555 1_555
N6 Cu1 1_555 1_555
C5 N6 1_555 1_555
H6 C5 1_555 1_555
C6 C5 1_555 1_555
H7 C6 1_555 1_555
C7 C6 1_555 1_555
N7 C7 1_555 1_555
C8 N7 1_555 1_555
H8 C8 1_555 1_555
H9 C8 1_555 1_555
H10 C8 1_555 1_555
C2E C3 1_555 1_555
C1E N4 1_555 1_555
H1E C1E 1_555 1_555
H2E C2E 1_555 1_555
C4E N5 1_555 1_555
H3E C4E 1_555 1_555
H4E C4E 1_555 1_555
H5E C4E 1_555 1_555
C6E C7 1_555 1_555
C5E N6 1_555 1_555
H6E C5E 1_555 1_555
H7E C6E 1_555 1_555
C8E N7 1_555 1_555
H8E C8E 1_555 1_555
H9E C8E 1_555 1_555
H10E C8E 1_555 1_555
N1E Cu1 1_555 1_555
N2E N1E 1_555 1_555
N3E N2E 1_555 1_555
N3A Cu1 1_555 1_555
N3D Cu1 1_555 1_555
Cu1A_2 N3E 1_555 1_555
C2E C1E 1_555 1_555
C6E C5E 1_555 1_555

#END
