
#######################################################################
#
#                 Cambridge Crystallographic Data Centre
#                                CCDC 
#
#######################################################################
#
# If this CIF has been generated from an entry in the Cambridge 
# Structural Database, then it will include bibliographic, chemical, 
# crystal, experimental, refinement or atomic coordinate data resulting 
# from the CCDC's data processing and validation procedures.
#
#######################################################################

data_LOYTOK
_symmetry_cell_setting           orthorhombic
_symmetry_space_group_name_H-M   'P b c n'
_symmetry_Int_Tables_number      60
_space_group_name_Hall           '-P 2n 2ab'
loop_
_symmetry_equiv_pos_site_id
_symmetry_equiv_pos_as_xyz
1 x,y,z
2 1/2-x,1/2-y,1/2+z
3 1/2+x,1/2-y,-z
4 -x,y,1/2-z
5 -x,-y,-z
6 1/2+x,1/2+y,1/2-z
7 1/2-x,1/2+y,z
8 x,-y,1/2+z
_cell_length_a                   8.22470(10)
_cell_length_b                   33.0397(5)
_cell_length_c                   11.3562(2)
_cell_angle_alpha                90
_cell_angle_beta                 90
_cell_angle_gamma                90
_cell_volume                     3085.95
loop_
_atom_site_label
_atom_site_type_symbol
_atom_site_fract_x
_atom_site_fract_y
_atom_site_fract_z
Cu1 Cu 0.18613(4) 0.369784(8) 0.75297(2)
N1 N 0.0435(3) 0.36796(6) 0.89573(17)
N2 N 0.2099(3) 0.42808(6) 0.80887(18)
N3 N -0.1695(3) 0.31067(6) 0.80214(17)
N4 N 0.3401(3) 0.38160(6) 0.62378(18)
N5 N 0.4621(3) 0.36283(6) 0.61484(17)
N6 N 0.5847(3) 0.34585(7) 0.6021(2)
C1 C 0.2752(4) 0.45938(8) 0.7502(2)
H1 H 0.3088 0.4555 0.6729
C2 C 0.2942(4) 0.49684(9) 0.8004(3)
H2 H 0.3373 0.5182 0.7571
C3 C 0.2481(5) 0.50234(9) 0.9169(3)
H3 H 0.2614 0.5274 0.9529
C4 C 0.1826(4) 0.47041(8) 0.9785(3)
H4 H 0.1522 0.4735 1.0569
C5 C 0.1627(3) 0.43335(8) 0.9213(2)
C6 C 0.0862(3) 0.39811(7) 0.9723(2)
C7 C 0.0513(4) 0.38713(8) 1.0876(2)
H5 H 0.0691 0.4025 1.1549
C8 C -0.0158(3) 0.34844(8) 1.0821(2)
H6 H -0.0511 0.3329 1.1454
C9 C -0.0198(3) 0.33754(7) 0.9634(2)
C10 C -0.1007(3) 0.30347(7) 0.90814(19)
C11 C -0.1080(3) 0.26519(7) 0.9602(2)
H7 H -0.0598 0.2608 1.0332
C12 C -0.1868(3) 0.23399(7) 0.9032(2)
H8 H -0.1953 0.2086 0.9378
C13 C -0.2532(4) 0.24144(7) 0.7932(2)
H9 H -0.3043 0.2208 0.7517
C14 C -0.2425(4) 0.27985(7) 0.7458(2)
H10 H -0.2877 0.2846 0.6720
Cu1C Cu -0.18613(4) 0.369784(8) 0.74703(2)
Cu1C_2 Cu 0.81387(4) 0.369784(8) 0.74703(2)
N1C N -0.0435(3) 0.36796(6) 0.60427(17)
N3C N 0.1695(3) 0.31067(6) 0.69786(17)
N6C N 0.4153(3) 0.34585(7) 0.8979(2)
O1 O 0.5000 0.57754(8) 0.7500
C15 C 0.5573(5) 0.60197(8) 0.6567(3)
H11 H 0.4884 0.5990 0.5879
H12 H 0.6675 0.5945 0.6356
C16 C 0.5517(7) 0.64456(10) 0.7017(4)
H13 H 0.6596 0.6534 0.7247
H14 H 0.5111 0.6627 0.6412
C15C C 0.4427(5) 0.60197(8) 0.8433(3)
H11C H 0.5116 0.5990 0.9121
H12C H 0.3325 0.5945 0.8644
C16C C 0.4483(7) 0.64456(10) 0.7983(4)
H13C H 0.3404 0.6534 0.7753
H14C H 0.4889 0.6627 0.8588
loop_
_geom_bond_atom_site_label_1
_geom_bond_atom_site_label_2
_geom_bond_site_symmetry_1
_geom_bond_site_symmetry_2
Cu1 N1 1_555 1_555
N1 C6 1_555 1_555
N2 Cu1 1_555 1_555
N3 C10 1_555 1_555
N4 Cu1 1_555 1_555
N5 N4 1_555 1_555
N6 N5 1_555 1_555
C1 N2 1_555 1_555
H1 C1 1_555 1_555
C2 C1 1_555 1_555
H2 C2 1_555 1_555
C3 C2 1_555 1_555
H3 C3 1_555 1_555
C4 C3 1_555 1_555
H4 C4 1_555 1_555
C5 N2 1_555 1_555
C6 C5 1_555 1_555
C7 C6 1_555 1_555
H5 C7 1_555 1_555
C8 C7 1_555 1_555
H6 C8 1_555 1_555
C9 N1 1_555 1_555
C10 C9 1_555 1_555
C11 C10 1_555 1_555
H7 C11 1_555 1_555
C12 C11 1_555 1_555
H8 C12 1_555 1_555
C13 C12 1_555 1_555
H9 C13 1_555 1_555
C14 N3 1_555 1_555
H10 C14 1_555 1_555
O1 C15 1_555 1_555
C15 H11 1_555 1_555
H12 C15 1_555 1_555
C16 C15 1_555 1_555
H13 C16 1_555 1_555
H14 C16 1_555 1_555
Cu1C N1 1_555 1_555
Cu1C_2 N6 1_555 1_555
N1C Cu1 1_555 1_555
N3C Cu1 1_555 1_555
N6C Cu1 1_555 1_555
C15C O1 1_555 1_555
H11C C15C 1_555 1_555
H12C C15C 1_555 1_555
C16C C16 1_555 1_555
H13C C16C 1_555 1_555
H14C C16C 1_555 1_555
N3 Cu1C 1_555 1_555
C4 C5 1_555 1_555
C8 C9 1_555 1_555
C13 C14 1_555 1_555
Cu1C N1C 1_555 1_555
C15C C16C 1_555 1_555

#END
