
#######################################################################
#
#                 Cambridge Crystallographic Data Centre
#                                CCDC 
#
#######################################################################
#
# If this CIF has been generated from an entry in the Cambridge 
# Structural Database, then it will include bibliographic, chemical, 
# crystal, experimental, refinement or atomic coordinate data resulting 
# from the CCDC's data processing and validation procedures.
#
#######################################################################

data_LOYZEG
_symmetry_cell_setting           triclinic
_symmetry_space_group_name_H-M   'P -1'
_symmetry_Int_Tables_number      2
_space_group_name_Hall           '-P 1'
loop_
_symmetry_equiv_pos_site_id
_symmetry_equiv_pos_as_xyz
1 x,y,z
2 -x,-y,-z
_cell_length_a                   9.1376(8)
_cell_length_b                   12.1229(11)
_cell_length_c                   13.4135(12)
_cell_angle_alpha                86.649(2)
_cell_angle_beta                 87.233(2)
_cell_angle_gamma                70.502(1)
_cell_volume                     1397.61
loop_
_atom_site_label
_atom_site_type_symbol
_atom_site_fract_x
_atom_site_fract_y
_atom_site_fract_z
Bi1 Bi -0.02065(3) 0.85438(3) 0.09838(2)
Cu1 Cu 0.52249(12) 0.60313(9) 0.35139(8)
O1 O 0.4276(6) 0.5682(5) 0.2330(5)
O2 O 0.2141(7) 0.7270(6) 0.2166(5)
O3 O -0.1075(7) 0.8068(5) -0.0390(5)
O4 O -0.1050(8) 0.6804(7) -0.1528(6)
O5 O -0.3263(7) 0.6866(6) 0.2597(5)
O6 O -0.1276(6) 0.7210(5) 0.1796(5)
O7 O -0.1487(6) 1.0661(5) 0.0272(5)
O8 O -0.3633(8) 1.2232(6) 0.0187(8)
O9 O -0.1198(11) 0.9311(10) 0.2849(8)
O10 O 0.0815(14) 0.9761(9) 0.2612(9)
O11 O -0.0129(14) 0.9629(9) 0.4110(9)
O12 O 0.3405(7) 0.7382(6) 0.3830(5)
H1 H 0.2814 0.7490 0.3347
H2 H 0.3613 0.8003 0.3866
N1 N 0.1397(7) 0.6530(5) 0.0496(5)
N2 N -0.3049(7) 0.9379(6) 0.1230(5)
N3 N 0.6818(8) 0.4442(7) 0.3510(6)
N4 N 0.6224(10) 0.6074(7) 0.4842(6)
N5 N -0.0189(12) 0.9561(7) 0.3127(8)
C1 C 0.3048(9) 0.6303(7) 0.1887(7)
C2 C 0.2644(9) 0.5831(7) 0.0960(6)
C3 C 0.3495(10) 0.4738(7) 0.0625(7)
H3 H 0.4351 0.4253 0.0968
C4 C 0.3037(10) 0.4387(8) -0.0237(7)
H4 H 0.3607 0.3664 -0.0488
C5 C 0.1731(11) 0.5106(8) -0.0730(8)
H5 H 0.1402 0.4873 -0.1303
C6 C 0.0933(9) 0.6189(7) -0.0332(7)
C7 C -0.0498(10) 0.7049(8) -0.0805(7)
C8 C -0.2708(10) 0.7488(7) 0.2063(6)
C9 C -0.3752(9) 0.8694(7) 0.1709(6)
C10 C -0.5334(10) 0.9061(8) 0.1866(8)
H6 H -0.5825 0.8555 0.2149
C11 C -0.6183(10) 1.0219(8) 0.1586(8)
H7 H -0.7254 1.0498 0.1700
C12 C -0.5427(10) 1.0959(8) 0.1137(7)
H8 H -0.5968 1.1741 0.0974
C13 C -0.3843(9) 1.0483(7) 0.0941(7)
C14 C -0.2916(10) 1.1200(8) 0.0438(8)
C15 C 0.7806(10) 0.4208(8) 0.4282(7)
C16 C 0.7088(11) 0.3632(8) 0.2819(8)
H9 H 0.6435 0.3774 0.2281
C17 C 0.8334(13) 0.2577(9) 0.2892(10)
H10 H 0.8496 0.2030 0.2404
C18 C 0.9311(13) 0.2345(10) 0.3673(10)
H11 H 1.0129 0.1639 0.3713
C19 C 0.9094(11) 0.3160(8) 0.4419(8)
C20 C 0.9999(14) 0.3015(12) 0.5285(11)
H12 H 1.0836 0.2329 0.5380
C21 C 0.9679(13) 0.3845(11) 0.5974(9)
H13 H 1.0304 0.3729 0.6524
C22 C 0.8377(13) 0.4900(11) 0.5857(8)
C23 C 0.7957(15) 0.5801(13) 0.6539(9)
H14 H 0.8531 0.5725 0.7108
C24 C 0.6716(16) 0.6783(12) 0.6369(10)
H15 H 0.6435 0.7379 0.6820
C25 C 0.5843(13) 0.6891(10) 0.5484(8)
H16 H 0.4988 0.7559 0.5369
C26 C 0.7464(11) 0.5079(9) 0.5014(7)
Bi1A Bi 0.02065(3) 1.14562(3) -0.09838(2)
Cu1_2 Cu -0.47751(12) 0.60313(9) 0.35139(8)
O5_2 O 0.6737(7) 0.6866(6) 0.2597(5)
O7A O 0.1487(6) 0.9339(5) -0.0272(5)
O13 O 0.3191(12) 0.9533(9) 0.4277(9)
H17 H 0.3448 0.9559 0.4866
H18 H 0.3768 0.9764 0.3871
O14 O 0.3984(18) 0.9817(17) 0.6101(12)
H19 H 0.3147 1.0094 0.6430
H20 H 0.4512 0.9167 0.6362
loop_
_geom_bond_atom_site_label_1
_geom_bond_atom_site_label_2
_geom_bond_site_symmetry_1
_geom_bond_site_symmetry_2
Bi1 O2 1_555 1_555
Cu1 O1 1_555 1_555
O1 C1 1_555 1_555
O2 C1 1_555 1_555
O3 Bi1 1_555 1_555
O4 C7 1_555 1_555
O5 C8 1_555 1_555
O6 Bi1 1_555 1_555
O7 Bi1 1_555 1_555
O8 C14 1_555 1_555
O9 Bi1 1_555 1_555
O10 Bi1 1_555 1_555
O11 N5 1_555 1_555
O12 Cu1 1_555 1_555
H1 O12 1_555 1_555
H2 O12 1_555 1_555
N1 Bi1 1_555 1_555
N2 Bi1 1_555 1_555
N3 Cu1 1_555 1_555
N4 Cu1 1_555 1_555
N5 O9 1_555 1_555
C1 C2 1_555 1_555
C2 N1 1_555 1_555
C3 C2 1_555 1_555
H3 C3 1_555 1_555
C4 C3 1_555 1_555
H4 C4 1_555 1_555
C5 C4 1_555 1_555
H5 C5 1_555 1_555
C6 N1 1_555 1_555
C7 O3 1_555 1_555
C8 O6 1_555 1_555
C9 N2 1_555 1_555
C10 C9 1_555 1_555
H6 C10 1_555 1_555
C11 C10 1_555 1_555
H7 C11 1_555 1_555
C12 C11 1_555 1_555
H8 C12 1_555 1_555
C13 N2 1_555 1_555
C14 O7 1_555 1_555
C15 N3 1_555 1_555
C16 N3 1_555 1_555
H9 C16 1_555 1_555
C17 C16 1_555 1_555
H10 C17 1_555 1_555
C18 C17 1_555 1_555
H11 C18 1_555 1_555
C19 C15 1_555 1_555
C20 C19 1_555 1_555
H12 C20 1_555 1_555
C21 C20 1_555 1_555
H13 C21 1_555 1_555
C22 C21 1_555 1_555
C23 C22 1_555 1_555
H14 C23 1_555 1_555
C24 C23 1_555 1_555
H15 C24 1_555 1_555
C25 N4 1_555 1_555
H16 C25 1_555 1_555
C26 N4 1_555 1_555
O13 H17 1_555 1_555
H18 O13 1_555 1_555
O14 H19 1_555 1_555
H20 O14 1_555 1_555
Bi1A O7 1_555 1_555
Cu1_2 O5 1_555 1_555
O5_2 Cu1 1_555 1_555
O7A Bi1 1_555 1_555
O10 N5 1_555 1_555
C5 C6 1_555 1_555
C6 C7 1_555 1_555
C8 C9 1_555 1_555
C12 C13 1_555 1_555
C13 C14 1_555 1_555
C15 C26 1_555 1_555
C18 C19 1_555 1_555
C22 C26 1_555 1_555
C24 C25 1_555 1_555
Bi1A O7A 1_555 1_555

#END
