
#######################################################################
#
#                 Cambridge Crystallographic Data Centre
#                                CCDC 
#
#######################################################################
#
# If this CIF has been generated from an entry in the Cambridge 
# Structural Database, then it will include bibliographic, chemical, 
# crystal, experimental, refinement or atomic coordinate data resulting 
# from the CCDC's data processing and validation procedures.
#
#######################################################################

data_LOZFOX
_symmetry_cell_setting           monoclinic
_symmetry_space_group_name_H-M   'C 2'
_symmetry_Int_Tables_number      5
_space_group_name_Hall           'C 2y'
loop_
_symmetry_equiv_pos_site_id
_symmetry_equiv_pos_as_xyz
1 x,y,z
2 -x,y,-z
3 1/2+x,1/2+y,z
4 1/2-x,1/2+y,-z
_cell_length_a                   20.7753(17)
_cell_length_b                   10.2481(8)
_cell_length_c                   9.9514(8)
_cell_angle_alpha                90
_cell_angle_beta                 104.1010(10)
_cell_angle_gamma                90
_cell_volume                     2054.88
loop_
_atom_site_label
_atom_site_type_symbol
_atom_site_fract_x
_atom_site_fract_y
_atom_site_fract_z
O1 O 0.91673(8) 0.69310(18) 0.58252(18)
Co1 Co 1.0000 0.64548(3) 0.5000
Co2 Co 1.0000 1.02627(4) 0.0000
N1 N 1.04549(11) 1.1858(2) 0.1222(2)
N2 N 0.95239(10) 0.4872(2) 0.3829(2)
C1 C 0.97573(12) 0.1298(3) 0.4408(3)
H1 H 0.9593 0.0508 0.4004
O2 O 0.83376(7) 0.95412(15) 0.26021(14)
C2 C 0.97428(11) 0.3701(3) 0.4366(2)
C3 C 1.02437(12) 1.3043(3) 0.0667(3)
O3 O 0.93287(8) 0.79181(18) 0.39863(17)
O4 O 0.92401(10) 0.8802(2) -0.06555(19)
C4 C 0.81463(9) 0.9526(2) 0.3855(2)
C5 C 1.04611(13) 1.4234(3) 0.1303(3)
C6 C 0.94896(12) 0.2506(3) 0.3760(2)
O5 O 0.92899(10) 0.9954(2) 0.1169(2)
C7 C 0.84443(9) 0.8689(2) 0.4940(2)
C8 C 0.76027(10) 0.7724(3) 0.1822(2)
H2 H 0.7390 0.7880 0.2529
C9 C 0.84582(10) 0.8272(2) 0.0650(2)
C10 C 0.90109(10) 0.7795(2) 0.4901(2)
C11 C 1.02184(15) 1.5424(3) 0.0641(4)
H3 H 1.0357 1.6213 0.1080
C12 C 0.90328(10) 0.9061(2) 0.0395(2)
C13 C 0.81396(9) 0.8503(2) 0.1715(2)
C14 C 0.89810(12) 0.2570(3) 0.2525(2)
H4 H 0.8800 0.1809 0.2079
C15 C 0.76515(11) 1.0382(3) 0.3992(2)
H5 H 0.7467 1.0954 0.3276
C16 C 0.74304(12) 1.0383(3) 0.5205(3)
H6 H 0.7096 1.0955 0.5296
C17 C 0.77051(12) 0.6464(3) -0.0142(2)
H7 H 0.7569 0.5771 -0.0749
C18 C 0.73847(12) 0.6731(3) 0.0898(2)
H8 H 0.7020 0.6233 0.0970
C19 C 0.82318(12) 0.7248(3) -0.0262(2)
H9 H 0.8440 0.7085 -0.0972
C20 C 1.08887(14) 1.1843(3) 0.2441(3)
H10 H 1.1039 1.1041 0.2833
C21 C 0.82135(11) 0.8717(3) 0.6142(2)
H11 H 0.8406 0.8169 0.6875
C22 C 1.09212(14) 1.4156(3) 0.2613(3)
H12 H 1.1079 1.4915 0.3095
C23 C 0.87577(12) 0.3764(3) 0.1993(2)
H13 H 0.8416 0.3815 0.1193
C24 C 0.77028(12) 0.9546(3) 0.6268(2)
H14 H 0.7546 0.9534 0.7068
C25 C 1.11300(12) 1.2977(4) 0.3163(3)
H15 H 1.1434 1.2924 0.4019
C26 C 0.90409(12) 0.4909(3) 0.2648(3)
H16 H 0.8892 0.5713 0.2259
N1A N 0.95451(11) 1.1858(2) -0.1222(2)
C3A C 0.97563(12) 1.3043(3) -0.0667(3)
C5A C 0.95389(13) 1.4234(3) -0.1303(3)
C11A C 0.97816(15) 1.5424(3) -0.0641(4)
H3A H 0.9643 1.6213 -0.1080
C20A C 0.91113(14) 1.1843(3) -0.2441(3)
H10A H 0.8961 1.1041 -0.2833
C22A C 0.90788(14) 1.4156(3) -0.2613(3)
H12A H 0.8921 1.4915 -0.3095
C25A C 0.88700(12) 1.2977(4) -0.3163(3)
H15A H 0.8566 1.2924 -0.4019
N2A N 1.04761(10) 0.4872(2) 0.6171(2)
C1A C 1.02427(12) 0.1298(3) 0.5592(3)
H1A H 1.0407 0.0508 0.5996
C2A C 1.02572(11) 0.3701(3) 0.5634(2)
C6A C 1.05104(12) 0.2506(3) 0.6240(2)
C14A C 1.10190(12) 0.2570(3) 0.7475(2)
H4A H 1.1200 0.1809 0.7921
C23A C 1.12423(12) 0.3764(3) 0.8007(2)
H13A H 1.1584 0.3815 0.8807
C26A C 1.09591(12) 0.4909(3) 0.7352(3)
H16A H 1.1108 0.5713 0.7741
O1A O 1.08327(8) 0.69310(18) -0.58252(18)
O2A O 1.16624(7) 0.95412(15) -0.26021(14)
O3A O 1.06713(8) 0.79181(18) -0.39863(17)
O4A O 1.07599(10) 0.8802(2) 0.06555(19)
C4A C 1.18537(9) 0.9526(2) -0.3855(2)
O5A O 1.07101(10) 0.9954(2) -0.1169(2)
C7A C 1.15557(9) 0.8689(2) -0.4940(2)
C8A C 1.23973(10) 0.7724(3) -0.1822(2)
H2A H 1.2610 0.7880 -0.2529
C9A C 1.15418(10) 0.8272(2) -0.0650(2)
C10A C 1.09891(10) 0.7795(2) -0.4901(2)
C12A C 1.09672(10) 0.9061(2) -0.0395(2)
C13A C 1.18604(9) 0.8503(2) -0.1715(2)
C15A C 1.23485(11) 1.0382(3) -0.3992(2)
H5A H 1.2533 1.0954 -0.3276
C16A C 1.25696(12) 1.0383(3) -0.5205(3)
H6A H 1.2904 1.0955 -0.5296
C17A C 1.22949(12) 0.6464(3) 0.0142(2)
H7A H 1.2431 0.5771 0.0749
C18A C 1.26153(12) 0.6731(3) -0.0898(2)
H8A H 1.2980 0.6233 -0.0970
C19A C 1.17682(12) 0.7248(3) 0.0262(2)
H9A H 1.1560 0.7085 0.0972
C21A C 1.17865(11) 0.8717(3) -0.6142(2)
H11A H 1.1594 0.8169 -0.6875
C24A C 1.22972(12) 0.9546(3) -0.6268(2)
H14A H 1.2454 0.9534 -0.7068
O1A_2 O 1.08327(8) 0.69310(18) 0.41748(18)
Co1_2 Co 1.0000 0.64548(3) -0.5000
O3A_2 O 1.06713(8) 0.79181(18) 0.60137(17)
loop_
_geom_bond_atom_site_label_1
_geom_bond_atom_site_label_2
_geom_bond_site_symmetry_1
_geom_bond_site_symmetry_2
O1 Co1 1_555 1_555
Co1 N2 1_555 1_555
Co2 N1 1_555 1_555
N1 C3 1_555 1_555
N2 C2 1_555 1_555
C1 H1 1_555 1_555
O2 C4 1_555 1_555
C2 C6 1_555 1_555
C3 C5 1_555 1_555
O3 Co1 1_555 1_555
O4 Co2 1_555 1_555
C4 C7 1_555 1_555
C5 C11 1_555 1_555
C6 C1 1_555 1_555
O5 Co2 1_555 1_555
C7 C10 1_555 1_555
C8 H2 1_555 1_555
C9 C12 1_555 1_555
C10 O1 1_555 1_555
C11 H3 1_555 1_555
C12 O4 1_555 1_555
C13 O2 1_555 1_555
C14 C6 1_555 1_555
H4 C14 1_555 1_555
C15 C4 1_555 1_555
H5 C15 1_555 1_555
C16 C15 1_555 1_555
H6 C16 1_555 1_555
C17 H7 1_555 1_555
C18 C8 1_555 1_555
H8 C18 1_555 1_555
C19 C9 1_555 1_555
H9 C19 1_555 1_555
C20 N1 1_555 1_555
H10 C20 1_555 1_555
C21 C7 1_555 1_555
H11 C21 1_555 1_555
C22 C5 1_555 1_555
H12 C22 1_555 1_555
C23 C14 1_555 1_555
H13 C23 1_555 1_555
C24 C16 1_555 1_555
H14 C24 1_555 1_555
C25 C20 1_555 1_555
H15 C25 1_555 1_555
C26 N2 1_555 1_555
H16 C26 1_555 1_555
N1A Co2 1_555 1_555
C3A C3 1_555 1_555
C5A C3A 1_555 1_555
C11A C11 1_555 1_555
H3A C11A 1_555 1_555
C20A N1A 1_555 1_555
H10A C20A 1_555 1_555
C22A C5A 1_555 1_555
H12A C22A 1_555 1_555
C25A C20A 1_555 1_555
H15A C25A 1_555 1_555
N2A Co1 1_555 1_555
C1A C1 1_555 1_555
H1A C1A 1_555 1_555
C2A C2 1_555 1_555
C6A C1A 1_555 1_555
C14A C6A 1_555 1_555
H4A C14A 1_555 1_555
C23A C14A 1_555 1_555
H13A C23A 1_555 1_555
C26A N2A 1_555 1_555
H16A C26A 1_555 1_555
O1A C10A 1_555 1_555
O2A C4A 1_555 1_555
O3A C10A 1_555 1_555
O4A Co2 1_555 1_555
C4A C7A 1_555 1_555
O5A Co2 1_555 1_555
C7A C10A 1_555 1_555
C8A H2A 1_555 1_555
C9A C12A 1_555 1_555
C12A O4A 1_555 1_555
C13A O2A 1_555 1_555
C15A C4A 1_555 1_555
H5A C15A 1_555 1_555
C16A C15A 1_555 1_555
H6A C16A 1_555 1_555
C17A H7A 1_555 1_555
C18A C8A 1_555 1_555
H8A C18A 1_555 1_555
C19A C9A 1_555 1_555
H9A C19A 1_555 1_555
C21A C7A 1_555 1_555
H11A C21A 1_555 1_555
C24A C16A 1_555 1_555
H14A C24A 1_555 1_555
O1A_2 Co1 1_555 1_555
Co1_2 O1A 1_555 1_555
O3A_2 Co1 1_555 1_555
O3 C10 1_555 1_555
O5 C12 1_555 1_555
C8 C13 1_555 1_555
C9 C13 1_555 1_555
C17 C18 1_555 1_555
C17 C19 1_555 1_555
C21 C24 1_555 1_555
C22 C25 1_555 1_555
C23 C26 1_555 1_555
N1A C3A 1_555 1_555
C5A C11A 1_555 1_555
C22A C25A 1_555 1_555
N2A C2A 1_555 1_555
C2A C6A 1_555 1_555
C23A C26A 1_555 1_555
O3A Co1_2 1_555 1_555
O5A C12A 1_555 1_555
C8A C13A 1_555 1_555
C9A C13A 1_555 1_555
C17A C18A 1_555 1_555
C17A C19A 1_555 1_555
C21A C24A 1_555 1_555

#END
