
#######################################################################
#
#                 Cambridge Crystallographic Data Centre
#                                CCDC 
#
#######################################################################
#
# If this CIF has been generated from an entry in the Cambridge 
# Structural Database, then it will include bibliographic, chemical, 
# crystal, experimental, refinement or atomic coordinate data resulting 
# from the CCDC's data processing and validation procedures.
#
#######################################################################

data_LOZFUD
_symmetry_cell_setting           triclinic
_symmetry_space_group_name_H-M   'P -1'
_symmetry_Int_Tables_number      2
_space_group_name_Hall           '-P 1'
loop_
_symmetry_equiv_pos_site_id
_symmetry_equiv_pos_as_xyz
1 x,y,z
2 -x,-y,-z
_cell_length_a                   8.2104(11)
_cell_length_b                   11.026(2)
_cell_length_c                   11.2571(14)
_cell_angle_alpha                116.098(6)
_cell_angle_beta                 93.817(15)
_cell_angle_gamma                109.619(9)
_cell_volume                     833.934
loop_
_atom_site_label
_atom_site_type_symbol
_atom_site_fract_x
_atom_site_fract_y
_atom_site_fract_z
Ni1 Ni 0.13846(7) 0.59528(6) 0.10737(6)
O1 O 0.9852(4) 0.5566(4) 0.2259(4)
O2 O 0.7577(5) 0.3914(4) 0.0416(4)
O3 O 0.1773(4) 0.4156(4) 0.0643(4)
O4 O -0.0495(4) 0.2560(4) -0.1215(3)
O5 O 0.4346(4) 0.3288(4) 0.0963(4)
N1 N 0.4026(5) 0.7435(4) 0.2441(4)
C1 C 0.8262(6) 0.4618(5) 0.1683(5)
C2 C 0.7145(6) 0.4239(5) 0.2569(5)
C3 C 0.7993(7) 0.4580(6) 0.3856(6)
H1 H 0.9222 0.5134 0.4181
C4 C 0.7065(8) 0.4119(8) 0.4664(7)
H2 H 0.7662 0.4349 0.5517
C5 C 0.5241(9) 0.3313(9) 0.4189(8)
H3 H 0.4607 0.2967 0.4709
C6 C 0.4359(8) 0.3019(7) 0.2956(8)
H4 H 0.3123 0.2508 0.2661
C7 C 0.5289(7) 0.3476(5) 0.2139(6)
C8 C 0.3086(7) 0.1879(5) 0.0039(6)
C9 C 0.3509(9) 0.0691(7) -0.0266(10)
H5 H 0.4611 0.0839 0.0180
C10 C 0.2327(10) -0.0715(7) -0.1221(10)
H6 H 0.2620 -0.1512 -0.1399
C11 C 0.0726(7) -0.0946(6) -0.1909(7)
H7 H -0.0067 -0.1894 -0.2573
C12 C 0.0308(6) 0.0235(5) -0.1607(5)
H8 H -0.0789 0.0076 -0.2070
C13 C 0.1463(5) 0.1672(5) -0.0629(5)
C14 C 0.0890(5) 0.2889(5) -0.0380(5)
C15 C 0.4639(8) 0.8877(7) 0.3077(9)
H9 H 0.3868 0.9307 0.2998
C16 C 0.6369(8) 0.9795(7) 0.3858(9)
H10 H 0.6733 1.0814 0.4274
C17 C 0.7550(6) 0.9233(5) 0.4031(5)
C18 C 0.6928(6) 0.7731(5) 0.3314(6)
H11 H 0.7687 0.7274 0.3342
C19 C 0.5186(6) 0.6885(5) 0.2549(5)
H12 H 0.4806 0.5863 0.2079
C20 C 0.9365(6) 1.0208(5) 0.4905(5)
H13 H 0.9643 1.1217 0.5371
N1A N 1.5974(5) 1.2565(4) 0.7559(4)
C15A C 1.5361(8) 1.1123(7) 0.6923(9)
H9A H 1.6132 1.0693 0.7002
C16A C 1.3631(8) 1.0205(7) 0.6142(9)
H10A H 1.3267 0.9186 0.5726
C17A C 1.2450(6) 1.0767(5) 0.5969(5)
C18A C 1.3072(6) 1.2269(5) 0.6686(6)
H11A H 1.2313 1.2726 0.6658
C19A C 1.4814(6) 1.3115(5) 0.7451(5)
H12A H 1.5194 1.4137 0.7921
C20A C 1.0635(6) 0.9792(5) 0.5095(5)
H13A H 1.0357 0.8783 0.4629
Ni1A Ni -0.13846(7) 0.40472(6) -0.10737(6)
O1A O -0.9852(4) 0.4434(4) -0.2259(4)
O2A O -0.7577(5) 0.6086(4) -0.0416(4)
O3A O -0.1773(4) 0.5844(4) -0.0643(4)
O4A O 0.0495(4) 0.7440(4) 0.1215(3)
O5A O -0.4346(4) 0.6712(4) -0.0963(4)
C1A C -0.8262(6) 0.5382(5) -0.1683(5)
C2A C -0.7145(6) 0.5761(5) -0.2569(5)
C3A C -0.7993(7) 0.5420(6) -0.3856(6)
H1A H -0.9222 0.4866 -0.4181
C4A C -0.7065(8) 0.5881(8) -0.4664(7)
H2A H -0.7662 0.5651 -0.5517
C5A C -0.5241(9) 0.6687(9) -0.4189(8)
H3A H -0.4607 0.7033 -0.4709
C6A C -0.4359(8) 0.6981(7) -0.2956(8)
H4A H -0.3123 0.7492 -0.2661
C7A C -0.5289(7) 0.6524(5) -0.2139(6)
C8A C -0.3086(7) 0.8121(5) -0.0039(6)
C9A C -0.3509(9) 0.9309(7) 0.0266(10)
H5A H -0.4611 0.9161 -0.0180
C10A C -0.2327(10) 1.0715(7) 0.1221(10)
H6A H -0.2620 1.1512 0.1399
C11A C -0.0726(7) 1.0946(6) 0.1909(7)
H7A H 0.0067 1.1894 0.2573
C12A C -0.0308(6) 0.9765(5) 0.1607(5)
H8A H 0.0789 0.9924 0.2070
C13A C -0.1463(5) 0.8328(5) 0.0629(5)
C14A C -0.0890(5) 0.7111(5) 0.0380(5)
Ni1_2 Ni -0.86154(7) 0.59528(6) 0.10737(6)
Ni1_3 Ni 1.13846(7) 0.59528(6) 0.10737(6)
Ni1A_2 Ni -1.13846(7) 0.40472(6) -0.10737(6)
Ni1A_3 Ni 0.86154(7) 0.40472(6) -0.10737(6)
Ni1A_4 Ni 1.86154(7) 1.40472(6) 0.89263(6)
O1_2 O -0.0148(4) 0.5566(4) 0.2259(4)
O1A_2 O 0.0148(4) 0.4434(4) -0.2259(4)
O2_2 O -0.2423(5) 0.3914(4) 0.0416(4)
O2A_2 O 0.2423(5) 0.6086(4) -0.0416(4)
N1A_2 N -0.4026(5) 0.2565(4) -0.2441(4)
loop_
_geom_bond_atom_site_label_1
_geom_bond_atom_site_label_2
_geom_bond_site_symmetry_1
_geom_bond_site_symmetry_2
Ni1 O3 1_555 1_555
O1 C1 1_555 1_555
O2 C1 1_555 1_555
O3 C14 1_555 1_555
O4 C14 1_555 1_555
O5 C7 1_555 1_555
N1 Ni1 1_555 1_555
C1 C2 1_555 1_555
C2 C3 1_555 1_555
C3 H1 1_555 1_555
C4 C3 1_555 1_555
H2 C4 1_555 1_555
C5 C4 1_555 1_555
H3 C5 1_555 1_555
C6 C5 1_555 1_555
H4 C6 1_555 1_555
C7 C2 1_555 1_555
C8 O5 1_555 1_555
C9 C8 1_555 1_555
H5 C9 1_555 1_555
C10 C9 1_555 1_555
H6 C10 1_555 1_555
C11 C10 1_555 1_555
H7 C11 1_555 1_555
C12 C11 1_555 1_555
H8 C12 1_555 1_555
C13 C8 1_555 1_555
C14 C13 1_555 1_555
C15 N1 1_555 1_555
H9 C15 1_555 1_555
C16 C15 1_555 1_555
H10 C16 1_555 1_555
C17 C16 1_555 1_555
C18 C17 1_555 1_555
H11 C18 1_555 1_555
C19 N1 1_555 1_555
H12 C19 1_555 1_555
C20 C17 1_555 1_555
H13 C20 1_555 1_555
N1A C15A 1_555 1_555
C15A H9A 1_555 1_555
C16A C15A 1_555 1_555
H10A C16A 1_555 1_555
C17A C16A 1_555 1_555
C18A C17A 1_555 1_555
H11A C18A 1_555 1_555
C19A N1A 1_555 1_555
H12A C19A 1_555 1_555
C20A C20 1_555 1_555
H13A C20A 1_555 1_555
Ni1A Ni1 1_555 1_555
O1A C1A 1_555 1_555
O2A C1A 1_555 1_555
O3A Ni1A 1_555 1_555
O4A Ni1 1_555 1_555
O5A C7A 1_555 1_555
C1A C2A 1_555 1_555
C2A C3A 1_555 1_555
C3A H1A 1_555 1_555
C4A C3A 1_555 1_555
H2A C4A 1_555 1_555
C5A C4A 1_555 1_555
H3A C5A 1_555 1_555
C6A C5A 1_555 1_555
H4A C6A 1_555 1_555
C7A C2A 1_555 1_555
C8A O5A 1_555 1_555
C9A C8A 1_555 1_555
H5A C9A 1_555 1_555
C10A C9A 1_555 1_555
H6A C10A 1_555 1_555
C11A C10A 1_555 1_555
H7A C11A 1_555 1_555
C12A C11A 1_555 1_555
H8A C12A 1_555 1_555
C13A C8A 1_555 1_555
C14A O3A 1_555 1_555
Ni1_2 O2A 1_555 1_555
Ni1_3 O1 1_555 1_555
Ni1A_2 O1A 1_555 1_555
Ni1A_3 O2 1_555 1_555
Ni1A_4 N1A 1_555 1_555
O1_2 Ni1 1_555 1_555
O1A_2 Ni1A 1_555 1_555
O2_2 Ni1A 1_555 1_555
O2A_2 Ni1 1_555 1_555
N1A_2 Ni1A 1_555 1_555
O4 Ni1A 1_555 1_555
C6 C7 1_555 1_555
C12 C13 1_555 1_555
C18 C19 1_555 1_555
C17A C20A 1_555 1_555
C18A C19A 1_555 1_555
O4A C14A 1_555 1_555
C6A C7A 1_555 1_555
C12A C13A 1_555 1_555
C13A C14A 1_555 1_555
Ni1_2 Ni1A_2 1_555 1_555
Ni1_3 Ni1A_3 1_555 1_555

#END
