
#######################################################################
#
#                 Cambridge Crystallographic Data Centre
#                                CCDC 
#
#######################################################################
#
# If this CIF has been generated from an entry in the Cambridge 
# Structural Database, then it will include bibliographic, chemical, 
# crystal, experimental, refinement or atomic coordinate data resulting 
# from the CCDC's data processing and validation procedures.
#
#######################################################################

data_LOZGAK
_symmetry_cell_setting           monoclinic
_symmetry_space_group_name_H-M   'C 2/c'
_symmetry_Int_Tables_number      15
_space_group_name_Hall           '-C 2yn'
loop_
_symmetry_equiv_pos_site_id
_symmetry_equiv_pos_as_xyz
1 x,y,z
2 -x,y,1/2-z
3 1/2+x,1/2+y,z
4 1/2-x,1/2+y,1/2-z
5 -x,-y,-z
6 x,-y,1/2+z
7 1/2-x,1/2-y,-z
8 1/2+x,1/2-y,1/2+z
_cell_length_a                   36.400(7)
_cell_length_b                   10.400(2)
_cell_length_c                   16.800(3)
_cell_angle_alpha                90
_cell_angle_beta                 102.00(3)
_cell_angle_gamma                90
_cell_volume                     6220.83
loop_
_atom_site_label
_atom_site_type_symbol
_atom_site_fract_x
_atom_site_fract_y
_atom_site_fract_z
Ni1 Ni 0.376268(14) 0.64602(5) 0.23132(3)
O1 O 0.38412(8) 0.4953(3) 0.30746(18)
O2 O 0.37036(12) 0.3416(4) 0.3859(3)
O3 O 0.33484(8) 0.6979(3) 0.29624(18)
O4 O 0.36002(8) 0.8110(3) 0.17139(17)
O5 O 0.34411(11) 1.0160(3) 0.1579(2)
N1 N 0.41769(10) 0.7440(4) 0.3153(2)
N2 N 0.33533(9) 0.5410(3) 0.1498(2)
N3 N 0.41524(10) 0.5950(4) 0.1655(2)
C1 C 0.36151(14) 0.4381(4) 0.3434(3)
C2 C 0.32175(13) 0.4842(4) 0.3339(3)
C3 C 0.29426(16) 0.3961(5) 0.3458(3)
H1 H 0.3013 0.3120 0.3603
C4 C 0.25736(16) 0.4302(6) 0.3367(4)
H2 H 0.2397 0.3693 0.3442
C5 C 0.24644(15) 0.5537(6) 0.3167(3)
H3 H 0.2213 0.5769 0.3110
C6 C 0.27223(12) 0.6434(5) 0.3051(3)
H4 H 0.2649 0.7276 0.2916
C7 C 0.30912(12) 0.6080(4) 0.3135(2)
C8 C 0.33645(11) 0.8205(4) 0.3313(2)
C9 C 0.33261(13) 0.8333(4) 0.4105(3)
H5 H 0.3269 0.7619 0.4390
C10 C 0.33722(15) 0.9513(5) 0.4474(3)
H6 H 0.3352 0.9601 0.5014
C11 C 0.34487(16) 1.0562(5) 0.4043(3)
H7 H 0.3478 1.1368 0.4289
C12 C 0.34829(14) 1.0424(4) 0.3241(3)
H8 H 0.3533 1.1145 0.2954
C13 C 0.34440(11) 0.9233(4) 0.2855(2)
C14 C 0.34954(11) 0.9155(4) 0.1983(3)
C15 C 0.43921(14) 0.8311(6) 0.2900(4)
H9 H 0.4371 0.8424 0.2343
C16 C 0.46455(17) 0.9055(7) 0.3423(5)
H10 H 0.4791 0.9657 0.3218
C17 C 0.46846(18) 0.8906(7) 0.4256(6)
C18 C 0.44644(19) 0.8004(7) 0.4510(4)
H11 H 0.4480 0.7880 0.5064
C19 C 0.42194(15) 0.7272(5) 0.3962(3)
H12 H 0.4079 0.6642 0.4154
C20 C 0.4979(3) 0.9925(11) 0.4612(4)
H13 H 0.5115 1.0389 0.4298
C21 C 0.33967(12) 0.4141(4) 0.1433(3)
H14 H 0.3619 0.3768 0.1711
C22 C 0.31303(12) 0.3361(4) 0.0976(3)
H15 H 0.3172 0.2481 0.0955
C23 C 0.27988(12) 0.3886(4) 0.0548(3)
C24 C 0.27567(13) 0.5201(5) 0.0615(3)
H16 H 0.2539 0.5603 0.0340
C25 C 0.30374(13) 0.5911(5) 0.1087(3)
H17 H 0.3003 0.6794 0.1120
C26 C 0.24992(13) 0.3131(4) 0.0046(3)
H18 H 0.2290 0.3576 -0.0232
C27 C 0.41417(17) 0.6398(8) 0.0924(4)
H19 H 0.3950 0.6962 0.0700
C28 C 0.4408(2) 0.6064(9) 0.0465(4)
H20 H 0.4392 0.6412 -0.0051
C29 C 0.46891(15) 0.5229(7) 0.0776(4)
C30 C 0.46903(18) 0.4756(7) 0.1514(4)
H21 H 0.4875 0.4172 0.1746
C31 C 0.44237(16) 0.5115(7) 0.1935(4)
H22 H 0.4433 0.4754 0.2445
C32 C 0.49861(19) 0.4832(7) 0.0339(4)
H23 H 0.5169 0.4270 0.0611
N1D N 0.58231(10) 1.2560(4) 0.6847(2)
C15D C 0.56079(14) 1.1689(6) 0.7100(4)
H9D H 0.5629 1.1576 0.7657
C16D C 0.53545(17) 1.0945(7) 0.6577(5)
H10D H 0.5209 1.0343 0.6782
C17D C 0.53154(18) 1.1094(7) 0.5744(6)
C18D C 0.55356(19) 1.1996(7) 0.5490(4)
H11D H 0.5520 1.2120 0.4936
C19D C 0.57806(15) 1.2728(5) 0.6038(3)
H12D H 0.5921 1.3358 0.5846
C20D C 0.5021(3) 1.0075(11) 0.5388(4)
H13D H 0.4885 0.9611 0.5702
N2F N 0.16467(9) -0.0410(3) -0.1498(2)
C21F C 0.16033(12) 0.0859(4) -0.1433(3)
H14F H 0.1381 0.1232 -0.1711
C22F C 0.18697(12) 0.1639(4) -0.0976(3)
H15F H 0.1828 0.2519 -0.0955
C23F C 0.22012(12) 0.1114(4) -0.0548(3)
C24F C 0.22433(13) -0.0201(5) -0.0615(3)
H16F H 0.2461 -0.0603 -0.0340
C25F C 0.19626(13) -0.0911(5) -0.1087(3)
H17F H 0.1997 -0.1794 -0.1120
C26F C 0.25008(13) 0.1869(4) -0.0046(3)
H18F H 0.2710 0.1424 0.0232
N3D N 0.58476(10) 0.4050(4) -0.1655(2)
C27D C 0.58583(17) 0.3602(8) -0.0924(4)
H19D H 0.6050 0.3038 -0.0700
C28D C 0.5592(2) 0.3936(9) -0.0465(4)
H20D H 0.5608 0.3588 0.0051
C29D C 0.53109(15) 0.4771(7) -0.0776(4)
C30D C 0.53097(18) 0.5244(7) -0.1514(4)
H21D H 0.5125 0.5828 -0.1746
C31D C 0.55763(16) 0.4885(7) -0.1935(4)
H22D H 0.5567 0.5246 -0.2445
C32D C 0.50139(19) 0.5168(7) -0.0339(4)
H23D H 0.4831 0.5730 -0.0611
Ni1D Ni 0.623732(14) 0.35398(5) -0.23132(3)
O1D O 0.61588(8) 0.5047(3) -0.30746(18)
O2D O 0.62964(12) 0.6584(4) -0.3859(3)
O3D O 0.66516(8) 0.3021(3) -0.29624(18)
O4D O 0.63998(8) 0.1890(3) -0.17139(17)
O5D O 0.65589(11) -0.0160(3) -0.1579(2)
C1D C 0.63849(14) 0.5619(4) -0.3434(3)
C2D C 0.67825(13) 0.5158(4) -0.3339(3)
C3D C 0.70574(16) 0.6039(5) -0.3458(3)
H1D H 0.6987 0.6880 -0.3603
C4D C 0.74264(16) 0.5698(6) -0.3367(4)
H2D H 0.7603 0.6307 -0.3442
C5D C 0.75356(15) 0.4463(6) -0.3167(3)
H3D H 0.7787 0.4231 -0.3110
C6D C 0.72777(12) 0.3566(5) -0.3051(3)
H4D H 0.7351 0.2724 -0.2916
C7D C 0.69088(12) 0.3920(4) -0.3135(2)
C8D C 0.66355(11) 0.1795(4) -0.3313(2)
C9D C 0.66739(13) 0.1667(4) -0.4105(3)
H5D H 0.6731 0.2381 -0.4390
C10D C 0.66278(15) 0.0487(5) -0.4474(3)
H6D H 0.6648 0.0399 -0.5014
C11D C 0.65513(16) -0.0562(5) -0.4043(3)
H7D H 0.6522 -0.1368 -0.4289
C12D C 0.65171(14) -0.0424(4) -0.3241(3)
H8D H 0.6467 -0.1145 -0.2954
C13D C 0.65560(11) 0.0767(4) -0.2855(2)
C14D C 0.65046(11) 0.0845(4) -0.1983(3)
Ni1D_2 Ni 0.623732(14) 1.35398(5) 0.76868(3)
Ni1F Ni 0.123732(14) -0.14602(5) -0.23132(3)
N1D_2 N 0.58231(10) 0.2560(4) -0.3153(2)
N2D N 0.66467(9) 0.4590(3) -0.1498(2)
O6 O 0.4345(2) 0.2369(8) 0.3446(7)
O7 O 0.4661(7) 0.1722(19) 0.222(2)
O8 O 0.4135(7) 0.1565(18) 0.1498(14)
O9 O 0.4154(4) 0.004(3) 0.0988(13)
C33? C 0.4894(3) 0.9523(10) 0.5053(6)
H24? H 0.4871 0.9235 0.5564
loop_
_geom_bond_atom_site_label_1
_geom_bond_atom_site_label_2
_geom_bond_site_symmetry_1
_geom_bond_site_symmetry_2
Ni1 O1 1_555 1_555
O1 C1 1_555 1_555
O2 C1 1_555 1_555
O3 Ni1 1_555 1_555
O4 Ni1 1_555 1_555
O5 C14 1_555 1_555
N1 Ni1 1_555 1_555
N2 Ni1 1_555 1_555
N3 Ni1 1_555 1_555
C1 C2 1_555 1_555
C2 C3 1_555 1_555
C3 H1 1_555 1_555
C4 C3 1_555 1_555
H2 C4 1_555 1_555
C5 C4 1_555 1_555
H3 C5 1_555 1_555
C6 C5 1_555 1_555
H4 C6 1_555 1_555
C7 O3 1_555 1_555
C8 O3 1_555 1_555
C9 C8 1_555 1_555
H5 C9 1_555 1_555
C10 C9 1_555 1_555
H6 C10 1_555 1_555
C11 C10 1_555 1_555
H7 C11 1_555 1_555
C12 C11 1_555 1_555
H8 C12 1_555 1_555
C13 C8 1_555 1_555
C14 O4 1_555 1_555
C15 N1 1_555 1_555
H9 C15 1_555 1_555
C16 C15 1_555 1_555
H10 C16 1_555 1_555
C17 C16 1_555 1_555
C18 C17 1_555 1_555
H11 C18 1_555 1_555
C19 N1 1_555 1_555
H12 C19 1_555 1_555
C20 C17 1_555 1_555
H13 C20 1_555 1_555
C21 N2 1_555 1_555
H14 C21 1_555 1_555
C22 C21 1_555 1_555
H15 C22 1_555 1_555
C23 C22 1_555 1_555
C24 C23 1_555 1_555
H16 C24 1_555 1_555
C25 N2 1_555 1_555
H17 C25 1_555 1_555
C26 C23 1_555 1_555
H18 C26 1_555 1_555
C27 N3 1_555 1_555
H19 C27 1_555 1_555
C28 C27 1_555 1_555
H20 C28 1_555 1_555
C29 C28 1_555 1_555
C30 C29 1_555 1_555
H21 C30 1_555 1_555
C31 N3 1_555 1_555
H22 C31 1_555 1_555
C32 C29 1_555 1_555
H23 C32 1_555 1_555
N1D C15D 1_555 1_555
C15D H9D 1_555 1_555
C16D C15D 1_555 1_555
H10D C16D 1_555 1_555
C17D C16D 1_555 1_555
C18D C17D 1_555 1_555
H11D C18D 1_555 1_555
C19D N1D 1_555 1_555
H12D C19D 1_555 1_555
C20D C20 1_555 1_555
H13D C20D 1_555 1_555
N2F C21F 1_555 1_555
C21F H14F 1_555 1_555
C22F C21F 1_555 1_555
H15F C22F 1_555 1_555
C23F C22F 1_555 1_555
C24F C23F 1_555 1_555
H16F C24F 1_555 1_555
C25F N2F 1_555 1_555
H17F C25F 1_555 1_555
C26F C26 1_555 1_555
H18F C26F 1_555 1_555
N3D C27D 1_555 1_555
C27D H19D 1_555 1_555
C28D C27D 1_555 1_555
H20D C28D 1_555 1_555
C29D C28D 1_555 1_555
C30D C29D 1_555 1_555
H21D C30D 1_555 1_555
C31D N3D 1_555 1_555
H22D C31D 1_555 1_555
C32D C32 1_555 1_555
H23D C32D 1_555 1_555
Ni1D N3D 1_555 1_555
O1D Ni1D 1_555 1_555
O2D C1D 1_555 1_555
O3D Ni1D 1_555 1_555
O4D Ni1D 1_555 1_555
O5D C14D 1_555 1_555
C1D O1D 1_555 1_555
C2D C1D 1_555 1_555
C3D C2D 1_555 1_555
H1D C3D 1_555 1_555
C4D C3D 1_555 1_555
H2D C4D 1_555 1_555
C5D C4D 1_555 1_555
H3D C5D 1_555 1_555
C6D C5D 1_555 1_555
H4D C6D 1_555 1_555
C7D O3D 1_555 1_555
C8D O3D 1_555 1_555
C9D C8D 1_555 1_555
H5D C9D 1_555 1_555
C10D C9D 1_555 1_555
H6D C10D 1_555 1_555
C11D C10D 1_555 1_555
H7D C11D 1_555 1_555
C12D C11D 1_555 1_555
H8D C12D 1_555 1_555
C13D C8D 1_555 1_555
C14D O4D 1_555 1_555
Ni1D_2 N1D 1_555 1_555
Ni1F N2F 1_555 1_555
N1D_2 Ni1D 1_555 1_555
N2D Ni1D 1_555 1_555
C2 C7 1_555 1_555
C6 C7 1_555 1_555
C12 C13 1_555 1_555
C13 C14 1_555 1_555
C18 C19 1_555 1_555
C24 C25 1_555 1_555
C30 C31 1_555 1_555
C17D C20D 1_555 1_555
C18D C19D 1_555 1_555
C23F C26F 1_555 1_555
C24F C25F 1_555 1_555
C29D C32D 1_555 1_555
C30D C31D 1_555 1_555
C2D C7D 1_555 1_555
C6D C7D 1_555 1_555
C12D C13D 1_555 1_555
C13D C14D 1_555 1_555

#END
