
#######################################################################
#
#                 Cambridge Crystallographic Data Centre
#                                CCDC 
#
#######################################################################
#
# If this CIF has been generated from an entry in the Cambridge 
# Structural Database, then it will include bibliographic, chemical, 
# crystal, experimental, refinement or atomic coordinate data resulting 
# from the CCDC's data processing and validation procedures.
#
#######################################################################

data_LOZHUF
_symmetry_cell_setting           triclinic
_symmetry_space_group_name_H-M   'P -1'
_symmetry_Int_Tables_number      2
_space_group_name_Hall           '-P 1'
loop_
_symmetry_equiv_pos_site_id
_symmetry_equiv_pos_as_xyz
1 x,y,z
2 -x,-y,-z
_cell_length_a                   9.655(2)
_cell_length_b                   11.7883(10)
_cell_length_c                   14.5650(15)
_cell_angle_alpha                83.050(8)
_cell_angle_beta                 77.440(13)
_cell_angle_gamma                77.683(12)
_cell_volume                     1575.97
loop_
_atom_site_label
_atom_site_type_symbol
_atom_site_fract_x
_atom_site_fract_y
_atom_site_fract_z
Pr1 Pr 0.29541(3) 0.45748(2) 0.497587(16)
Cl1 Cl 0.2951(2) 0.51385(16) -0.06528(9)
Cl2 Cl 0.4856(2) 0.12524(17) 1.05989(11)
Cl3 Cl 1.0424(2) 0.13881(19) 0.06468(14)
O1 O -0.0831(3) 0.5157(3) 0.37482(19)
O2 O 0.1290(3) 0.4184(3) 0.40473(19)
O3 O 0.5991(3) 0.4312(3) 0.6438(2)
O4 O 0.4023(3) 0.3670(3) 0.6328(2)
O5 O 0.6119(3) 0.3925(3) 0.4420(2)
O6 O 0.4588(3) 0.3100(3) 0.3941(2)
C1 C 0.0481(5) 0.4713(4) 0.3498(3)
C2 C 0.1103(4) 0.4799(3) 0.2456(3)
C3 C 0.0244(5) 0.5374(4) 0.1830(3)
H1 H -0.0723 0.5687 0.2055
C4 C 0.0813(6) 0.5486(4) 0.0873(3)
H2 H 0.0242 0.5888 0.0455
C5 C 0.2226(6) 0.4998(4) 0.0553(3)
C6 C 0.3099(5) 0.4387(5) 0.1156(3)
H3 H 0.4050 0.4039 0.0923
C7 C 0.2531(5) 0.4306(4) 0.2110(3)
H4 H 0.3112 0.3915 0.2527
C8 C 0.5012(4) 0.3746(4) 0.6743(3)
C9 C 0.5022(5) 0.3067(4) 0.7693(3)
C10 C 0.6139(5) 0.3014(4) 0.8160(3)
H5 H 0.6918 0.3365 0.7875
C11 C 0.6106(7) 0.2444(5) 0.9049(4)
H6 H 0.6853 0.2415 0.9366
C12 C 0.4968(7) 0.1926(5) 0.9454(3)
C13 C 0.3851(6) 0.1941(5) 0.9000(4)
H7 H 0.3085 0.1576 0.9286
C14 C 0.3893(5) 0.2505(4) 0.8115(3)
H8 H 0.3155 0.2511 0.7795
C15 C 0.5831(5) 0.3306(4) 0.3864(3)
C16 C 0.6994(5) 0.2815(4) 0.3070(3)
C17 C 0.6634(5) 0.2331(4) 0.2360(3)
H9 H 0.5671 0.2305 0.2383
C18 C 0.7681(7) 0.1883(5) 0.1611(4)
H10 H 0.7435 0.1551 0.1136
C19 C 0.9101(7) 0.1944(5) 0.1589(4)
C20 C 0.9497(6) 0.2412(5) 0.2275(5)
H11 H 1.0460 0.2446 0.2242
C21 C 0.8433(5) 0.2841(4) 0.3028(4)
H12 H 0.8692 0.3149 0.3511
O7 O 0.1219(3) 0.6481(3) 0.4651(2)
H13 H 0.1686 0.6978 0.4394
H14 H 0.0327 0.6500 0.4995
O8 O 0.2212(3) 0.2551(3) 0.5506(2)
C22 C 0.1549(5) 0.2312(4) 0.6304(3)
H15 H 0.1320 0.2885 0.6729
N1 N 0.1136(4) 0.1314(3) 0.6607(3)
C23 C 0.0289(7) 0.1159(5) 0.7557(4)
H16 H 0.0032 0.0404 0.7650
H17 H -0.0574 0.1749 0.7636
H18 H 0.0851 0.1221 0.8011
C24 C 0.1419(6) 0.0375(5) 0.5999(4)
H19 H 0.0999 -0.0262 0.6334
H20 H 0.2444 0.0120 0.5807
H21 H 0.1002 0.0644 0.5452
Pr1A Pr -0.29541(3) 0.54252(2) 0.502413(16)
Pr1A_2 Pr 0.70459(3) 0.54252(2) 0.502413(16)
O1A O 0.0831(3) 0.4843(3) 0.62518(19)
O3A O 0.4009(3) 0.5688(3) 0.3562(2)
O5A O 0.3881(3) 0.6075(3) 0.5580(2)
O9 O 0.1915(5) 0.8608(3) 0.4088(4)
C25 C 0.3110(6) 0.8776(4) 0.4075(4)
H22 H 0.3728 0.8188 0.4356
N2 N 0.3620(5) 0.9714(4) 0.3700(3)
C26 C 0.2715(8) 1.0685(6) 0.3271(6)
H23 H 0.1771 1.0512 0.3326
H24 H 0.3140 1.0813 0.2616
H25 H 0.2635 1.1372 0.3587
C27 C 0.5076(7) 0.9838(7) 0.3675(6)
H26 H 0.5577 0.9151 0.3976
H27 H 0.5060 1.0503 0.4001
H28 H 0.5565 0.9943 0.3031
loop_
_geom_bond_atom_site_label_1
_geom_bond_atom_site_label_2
_geom_bond_site_symmetry_1
_geom_bond_site_symmetry_2
Pr1 O2 1_555 1_555
Cl1 C5 1_555 1_555
Cl2 C12 1_555 1_555
Cl3 C19 1_555 1_555
O1 C1 1_555 1_555
O2 C1 1_555 1_555
O3 C8 1_555 1_555
O4 Pr1 1_555 1_555
O5 Pr1 1_555 1_555
O6 Pr1 1_555 1_555
C1 C2 1_555 1_555
C2 C3 1_555 1_555
C3 H1 1_555 1_555
C4 C3 1_555 1_555
H2 C4 1_555 1_555
C5 C4 1_555 1_555
C6 C5 1_555 1_555
H3 C6 1_555 1_555
C7 C2 1_555 1_555
H4 C7 1_555 1_555
C8 O4 1_555 1_555
C9 C8 1_555 1_555
C10 C9 1_555 1_555
H5 C10 1_555 1_555
C11 C10 1_555 1_555
H6 C11 1_555 1_555
C12 C11 1_555 1_555
C13 C12 1_555 1_555
H7 C13 1_555 1_555
C14 C9 1_555 1_555
H8 C14 1_555 1_555
C15 O5 1_555 1_555
C16 C15 1_555 1_555
C17 C16 1_555 1_555
H9 C17 1_555 1_555
C18 C17 1_555 1_555
H10 C18 1_555 1_555
C19 C18 1_555 1_555
C20 C19 1_555 1_555
H11 C20 1_555 1_555
C21 C16 1_555 1_555
H12 C21 1_555 1_555
O7 Pr1 1_555 1_555
H13 O7 1_555 1_555
H14 O7 1_555 1_555
O8 Pr1 1_555 1_555
C22 O8 1_555 1_555
H15 C22 1_555 1_555
N1 C22 1_555 1_555
C23 N1 1_555 1_555
H16 C23 1_555 1_555
H17 C23 1_555 1_555
H18 C23 1_555 1_555
C24 N1 1_555 1_555
H19 C24 1_555 1_555
H20 C24 1_555 1_555
H21 C24 1_555 1_555
O9 C25 1_555 1_555
C25 H22 1_555 1_555
N2 C25 1_555 1_555
C26 N2 1_555 1_555
H23 C26 1_555 1_555
H24 C26 1_555 1_555
H25 C26 1_555 1_555
C27 N2 1_555 1_555
H26 C27 1_555 1_555
H27 C27 1_555 1_555
H28 C27 1_555 1_555
Pr1A O1 1_555 1_555
Pr1A_2 O3 1_555 1_555
O1A Pr1 1_555 1_555
O3A Pr1 1_555 1_555
O5A Pr1 1_555 1_555
O5 Pr1A_2 1_555 1_555
O6 C15 1_555 1_555
C6 C7 1_555 1_555
C13 C14 1_555 1_555
C20 C21 1_555 1_555
Pr1A_2 O5A 1_555 1_555

#END
