
#######################################################################
#
#                 Cambridge Crystallographic Data Centre
#                                CCDC 
#
#######################################################################
#
# If this CIF has been generated from an entry in the Cambridge 
# Structural Database, then it will include bibliographic, chemical, 
# crystal, experimental, refinement or atomic coordinate data resulting 
# from the CCDC's data processing and validation procedures.
#
#######################################################################

data_LOZJAN
_symmetry_cell_setting           monoclinic
_symmetry_space_group_name_H-M   'P 21/c'
_symmetry_Int_Tables_number      14
_space_group_name_Hall           '-P 2ybc'
loop_
_symmetry_equiv_pos_site_id
_symmetry_equiv_pos_as_xyz
1 x,y,z
2 -x,1/2+y,1/2-z
3 -x,-y,-z
4 x,1/2-y,1/2+z
_cell_length_a                   16.0789(17)
_cell_length_b                   10.3089(11)
_cell_length_c                   20.733(2)
_cell_angle_alpha                90
_cell_angle_beta                 112.167(2)
_cell_angle_gamma                90
_cell_volume                     3182.61
loop_
_atom_site_label
_atom_site_type_symbol
_atom_site_fract_x
_atom_site_fract_y
_atom_site_fract_z
Pr1 Pr 0.504139(8) 0.286180(11) 0.227292(7)
N1 N 0.9660(2) 0.4782(3) 0.56504(16)
O1 O 0.57578(12) 0.60763(15) 0.34187(9)
O2 O 0.56564(11) 0.39207(15) 0.34213(9)
O3 O 1.00809(18) 0.3800(3) 0.57138(18)
O4 O 0.9975(2) 0.5724(3) 0.59775(19)
C1 C 0.60686(16) 0.4966(2) 0.36192(12)
C2 C 0.70117(16) 0.4915(2) 0.41576(12)
C3 C 0.74648(17) 0.3738(2) 0.43266(14)
H1 H 0.7182 0.2980 0.4110
C4 C 0.83351(19) 0.3688(3) 0.48146(15)
H2 H 0.8647 0.2907 0.4926
C5 C 0.87238(18) 0.4824(3) 0.51285(15)
C6 C 0.8298(2) 0.6001(3) 0.49828(16)
H3 H 0.8581 0.6751 0.5211
C7 C 0.74338(18) 0.6041(2) 0.44871(14)
H4 H 0.7133 0.6830 0.4373
N2 N 0.99679(17) 0.5928(3) 0.26218(17)
O5 O 0.58117(11) 0.68217(16) 0.20901(10)
O6 O 0.59035(11) 0.46739(15) 0.21630(10)
O7 O 1.03215(17) 0.4953(3) 0.25367(19)
O8 O 1.03684(17) 0.6924(3) 0.2814(2)
C8 C 0.62333(15) 0.5775(2) 0.21713(13)
C9 C 0.72113(15) 0.5827(2) 0.22691(12)
C10 C 0.76622(17) 0.4693(2) 0.22449(14)
H5 H 0.7357 0.3906 0.2160
C11 C 0.85616(18) 0.4726(3) 0.23458(16)
H6 H 0.8866 0.3971 0.2323
C12 C 0.89937(17) 0.5900(3) 0.24798(16)
C13 C 0.85676(19) 0.7037(3) 0.25008(19)
H7 H 0.8878 0.7820 0.2587
C14 C 0.76625(18) 0.6995(2) 0.23899(17)
H8 H 0.7358 0.7758 0.2397
N3 N 1.04597(18) 0.0211(3) 0.42007(16)
O9 O 0.62284(11) 0.14368(17) 0.30211(10)
O10 O 0.62215(11) -0.07017(17) 0.28954(11)
O11 O 1.08539(15) 0.1155(3) 0.41186(17)
O12 O 1.08279(17) -0.0766(3) 0.44841(19)
C15 C 0.66073(15) 0.0365(2) 0.30802(12)
C16 C 0.76228(15) 0.0343(2) 0.33997(13)
C17 C 0.81094(16) 0.1433(2) 0.33702(15)
H9 H 0.7811 0.2192 0.3170
C18 C 0.90415(17) 0.1396(3) 0.36381(16)
H10 H 0.9374 0.2122 0.3617
C19 C 0.94612(17) 0.0265(3) 0.39339(15)
C20 C 0.90036(18) -0.0820(3) 0.39797(17)
H11 H 0.9308 -0.1570 0.4189
C21 C 0.80735(17) -0.0778(2) 0.37059(15)
H12 H 0.7748 -0.1511 0.3728
N4 N 0.3844(2) 0.5143(3) 0.01566(14)
O13 O 0.43338(14) 0.36099(19) 0.09866(10)
C22 C 0.4302(2) 0.4728(3) 0.07836(16)
H13 H 0.4636 0.5340 0.1108
C23 C 0.3848(4) 0.6486(4) -0.0043(3)
H14 H 0.4219 0.6981 0.0353
H15 H 0.3246 0.6820 -0.0209
H16 H 0.4081 0.6549 -0.0405
C24 C 0.3304(4) 0.4253(5) -0.0364(2)
H17 H 0.3346 0.3404 -0.0163
H18 H 0.3514 0.4222 -0.0740
H19 H 0.2689 0.4536 -0.0537
O14 O 0.60597(14) 0.20273(19) 0.16504(12)
N5 N 0.6595(2) 0.0393(3) 0.11902(16)
C25 C 0.5985(2) 0.0999(3) 0.13576(19)
H20 H 0.5433 0.0586 0.1236
C26 C 0.7477(3) 0.0952(5) 0.1372(3)
H21 H 0.7497 0.1779 0.1590
H22 H 0.7603 0.1063 0.0958
H23 H 0.7917 0.0385 0.1688
C27 C 0.6412(4) -0.0857(4) 0.0840(3)
H24 H 0.5803 -0.1106 0.0751
H25 H 0.6814 -0.1496 0.1130
H26 H 0.6497 -0.0793 0.0407
Pr1A Pr 0.495861(8) -0.213820(11) 0.272708(7)
Pr1A_2 Pr 0.495861(8) 0.786180(11) 0.272708(7)
O1A O 0.42422(12) 0.10763(15) 0.15813(9)
O5A O 0.41883(11) 0.18217(16) 0.29099(10)
O10A O 0.37785(11) 0.42983(17) 0.21046(11)
loop_
_geom_bond_atom_site_label_1
_geom_bond_atom_site_label_2
_geom_bond_site_symmetry_1
_geom_bond_site_symmetry_2
Pr1 O2 1_555 1_555
N1 O3 1_555 1_555
O1 C1 1_555 1_555
O2 C1 1_555 1_555
O4 N1 1_555 1_555
C1 C2 1_555 1_555
C2 C3 1_555 1_555
C3 H1 1_555 1_555
C4 C3 1_555 1_555
H2 C4 1_555 1_555
C5 N1 1_555 1_555
C6 C5 1_555 1_555
H3 C6 1_555 1_555
C7 C2 1_555 1_555
H4 C7 1_555 1_555
N2 O7 1_555 1_555
O5 C8 1_555 1_555
O6 Pr1 1_555 1_555
O8 N2 1_555 1_555
C8 O6 1_555 1_555
C9 C8 1_555 1_555
C10 C9 1_555 1_555
H5 C10 1_555 1_555
C11 C10 1_555 1_555
H6 C11 1_555 1_555
C12 N2 1_555 1_555
C13 C12 1_555 1_555
H7 C13 1_555 1_555
C14 C9 1_555 1_555
H8 C14 1_555 1_555
N3 O11 1_555 1_555
O9 Pr1 1_555 1_555
O10 C15 1_555 1_555
O12 N3 1_555 1_555
C15 O9 1_555 1_555
C16 C15 1_555 1_555
C17 C16 1_555 1_555
H9 C17 1_555 1_555
C18 C17 1_555 1_555
H10 C18 1_555 1_555
C19 N3 1_555 1_555
C20 C19 1_555 1_555
H11 C20 1_555 1_555
C21 C16 1_555 1_555
H12 C21 1_555 1_555
N4 C22 1_555 1_555
O13 Pr1 1_555 1_555
C22 O13 1_555 1_555
H13 C22 1_555 1_555
C23 N4 1_555 1_555
H14 C23 1_555 1_555
H15 C23 1_555 1_555
H16 C23 1_555 1_555
C24 N4 1_555 1_555
H17 C24 1_555 1_555
H18 C24 1_555 1_555
H19 C24 1_555 1_555
O14 Pr1 1_555 1_555
N5 C25 1_555 1_555
C25 O14 1_555 1_555
H20 C25 1_555 1_555
C26 N5 1_555 1_555
H21 C26 1_555 1_555
H22 C26 1_555 1_555
H23 C26 1_555 1_555
C27 N5 1_555 1_555
H24 C27 1_555 1_555
H25 C27 1_555 1_555
H26 C27 1_555 1_555
Pr1A O10 1_555 1_555
Pr1A_2 O1 1_555 1_555
O1A Pr1 1_555 1_555
O5A Pr1 1_555 1_555
O10A Pr1 1_555 1_555
C4 C5 1_555 1_555
C6 C7 1_555 1_555
O5 Pr1A_2 1_555 1_555
C11 C12 1_555 1_555
C13 C14 1_555 1_555
C18 C19 1_555 1_555
C20 C21 1_555 1_555

#END
