
#######################################################################
#
#                 Cambridge Crystallographic Data Centre
#                                CCDC 
#
#######################################################################
#
# If this CIF has been generated from an entry in the Cambridge 
# Structural Database, then it will include bibliographic, chemical, 
# crystal, experimental, refinement or atomic coordinate data resulting 
# from the CCDC's data processing and validation procedures.
#
#######################################################################

data_LOZJER
_symmetry_cell_setting           monoclinic
_symmetry_space_group_name_H-M   'P 21/c'
_symmetry_Int_Tables_number      14
_space_group_name_Hall           '-P 2ybc'
loop_
_symmetry_equiv_pos_site_id
_symmetry_equiv_pos_as_xyz
1 x,y,z
2 -x,1/2+y,1/2-z
3 -x,-y,-z
4 x,1/2-y,1/2+z
_cell_length_a                   15.392(2)
_cell_length_b                   24.995(4)
_cell_length_c                   9.7390(10)
_cell_angle_alpha                90
_cell_angle_beta                 98.130(1)
_cell_angle_gamma                90
_cell_volume                     3709.16
loop_
_atom_site_label
_atom_site_type_symbol
_atom_site_fract_x
_atom_site_fract_y
_atom_site_fract_z
Pr1 Pr 0.599910(10) 0.264690(10) 0.53157(2)
O1 O 0.4807(2) 0.25501(11) 0.3418(3)
O2 O 0.4788(2) 0.20584(12) 0.1505(3)
O3 O 0.0440(2) 0.1997(2) 0.3399(5)
O4 O 0.0562(3) 0.1315(2) 0.2093(5)
O5 O 0.6984(2) 0.21993(12) 0.7073(3)
O6 O 0.7324(2) 0.20714(13) 0.9334(3)
O7 O 1.1325(3) 0.1823(3) 0.6375(5)
O8 O 1.1499(3) 0.1392(2) 0.8270(5)
O9 O 0.6374(2) 0.19022(11) 0.3916(3)
O10 O 0.6784(2) 0.16607(12) 0.1911(3)
O11 O 1.0296(3) 0.0461(2) 0.6046(5)
O12 O 0.9352(3) 0.0102(2) 0.7164(5)
O13 O 0.5598(2) 0.35298(11) 0.4118(3)
O14 O 0.5218(2) 0.18297(12) 0.6039(3)
N1 N 0.0858(3) 0.1709(2) 0.2731(5)
N2 N 1.1055(3) 0.1646(2) 0.7392(5)
N3 N 0.9555(4) 0.0404(2) 0.6290(5)
C1 C 0.4448(2) 0.2243(2) 0.2485(4)
C2 C 0.3498(2) 0.2104(2) 0.2549(4)
C3 C 0.3065(3) 0.2327(2) 0.3548(4)
C4 C 0.2193(3) 0.2205(2) 0.3610(5)
C5 C 0.1786(3) 0.1852(2) 0.2658(5)
C6 C 0.2197(3) 0.1619(2) 0.1654(5)
C7 C 0.3062(3) 0.1751(2) 0.1591(4)
C8 C 0.7514(3) 0.2101(2) 0.8126(4)
C9 C 0.8455(3) 0.2000(2) 0.7941(4)
C10 C 0.8746(3) 0.2117(2) 0.6693(4)
C11 C 0.9601(3) 0.2004(2) 0.6506(4)
C12 C 1.0139(3) 0.1774(2) 0.7572(5)
C13 C 0.9879(3) 0.1653(2) 0.8815(5)
C14 C 0.9030(3) 0.1781(2) 0.9010(4)
C15 C 0.6846(3) 0.1651(2) 0.3195(4)
C16 C 0.7547(3) 0.1305(2) 0.3989(4)
C17 C 0.8349(3) 0.1240(2) 0.3515(4)
C18 C 0.9010(3) 0.0945(2) 0.4266(5)
C19 C 0.8847(3) 0.0710(2) 0.5474(5)
C20 C 0.8055(3) 0.0760(2) 0.5969(5)
C21 C 0.7406(3) 0.1066(2) 0.5223(4)
H1 H 0.3367 0.2567 0.4204
H2 H 0.1889 0.2361 0.4293
H3 H 0.1895 0.1372 0.1015
H4 H 0.3358 0.1600 0.0891
H5 H 0.8357 0.2276 0.5962
H6 H 0.9808 0.2085 0.5656
H7 H 1.0269 0.1485 0.9529
H8 H 0.8842 0.1717 0.9884
H9 H 0.8445 0.1400 0.2665
H10 H 0.9563 0.0905 0.3954
H11 H 0.7957 0.0587 0.6803
H12 H 0.6861 0.1114 0.5557
H13 H 0.5052 0.3653 0.4029
H14 H 0.5992 0.3823 0.4219
H15 H 0.5291 0.1736 0.6946
H16 H 0.5081 0.1525 0.5536
Pr1C Pr 0.599910(10) 0.235310(10) 0.03157(2)
Pr1C_2 Pr 0.599910(10) 0.235310(10) 1.03157(2)
O2C O 0.4788(2) 0.29416(12) 0.6505(3)
O6C O 0.7324(2) 0.29286(13) 0.4334(3)
O10C O 0.6784(2) 0.33393(12) 0.6911(3)
O15 O 0.6725(3) 0.0620(2) -0.0678(5)
N4 N 0.8089(3) 0.0306(2) -0.0028(5)
C22 C 0.7471(4) 0.0673(2) -0.0111(5)
C23 C 0.7901(5) -0.0219(3) -0.0600(9)
C24 C 0.8967(4) 0.0407(3) 0.0648(7)
H17 H 0.7625 0.1009 0.0311
H18 H 0.7706 -0.0446 0.0077
H19 H 0.8417 -0.0366 -0.0882
H20 H 0.7456 -0.0193 -0.1379
H21 H 0.9315 0.0542 -0.0006
H22 H 0.9217 0.0083 0.1031
H23 H 0.8945 0.0663 0.1363
O16 O 0.3951(3) 0.1012(2) 0.8425(5)
N5 N 0.3014(3) 0.0732(2) 0.6580(5)
C25 C 0.3530(4) 0.1078(3) 0.7282(8)
C26 C 0.2881(6) 0.0222(3) 0.7116(8)
C27 C 0.2560(5) 0.0848(4) 0.5212(8)
H24 H 0.3585 0.1417 0.6859
H25 H 0.2395 0.0239 0.7617
H26 H 0.2766 -0.0026 0.6375
H27 H 0.3393 0.0116 0.7717
H28 H 0.2914 0.0747 0.4531
H29 H 0.2024 0.0653 0.5064
H30 H 0.2438 0.1220 0.5135
O17 O 0.4736(4) 0.0948(2) 0.4681(6)
N6 N 0.4710(4) 0.0462(2) 0.2770(5)
C28 C 0.4882(4) 0.0901(2) 0.3526(6)
C29 C 0.4328(7) -0.0008(3) 0.3314(8)
C30 C 0.4880(6) 0.0433(4) 0.1358(8)
H31 H 0.5138 0.1195 0.3115
H32 H 0.4782 -0.0235 0.3744
H33 H 0.3986 -0.0195 0.2578
H34 H 0.3967 0.0100 0.3980
H35 H 0.5458 0.0305 0.1331
H36 H 0.4471 0.0196 0.0850
H37 H 0.4821 0.0779 0.0951
loop_
_geom_bond_atom_site_label_1
_geom_bond_atom_site_label_2
_geom_bond_site_symmetry_1
_geom_bond_site_symmetry_2
Pr1 O1 1_555 1_555
O1 C1 1_555 1_555
O2 C1 1_555 1_555
O3 N1 1_555 1_555
O4 N1 1_555 1_555
O5 Pr1 1_555 1_555
O6 C8 1_555 1_555
O7 N2 1_555 1_555
O8 N2 1_555 1_555
O9 Pr1 1_555 1_555
O10 C15 1_555 1_555
O11 N3 1_555 1_555
O12 N3 1_555 1_555
O13 Pr1 1_555 1_555
O14 Pr1 1_555 1_555
N1 C5 1_555 1_555
N2 C12 1_555 1_555
N3 C19 1_555 1_555
C1 C2 1_555 1_555
C2 C3 1_555 1_555
C3 C4 1_555 1_555
C4 C5 1_555 1_555
C5 C6 1_555 1_555
C6 C7 1_555 1_555
C7 C2 1_555 1_555
C8 O5 1_555 1_555
C9 C8 1_555 1_555
C10 C9 1_555 1_555
C11 C10 1_555 1_555
C12 C11 1_555 1_555
C13 C12 1_555 1_555
C14 C9 1_555 1_555
C15 O9 1_555 1_555
C16 C15 1_555 1_555
C17 C16 1_555 1_555
C18 C17 1_555 1_555
C19 C18 1_555 1_555
C20 C19 1_555 1_555
C21 C16 1_555 1_555
H1 C3 1_555 1_555
H2 C4 1_555 1_555
H3 C6 1_555 1_555
H4 C7 1_555 1_555
H5 C10 1_555 1_555
H6 C11 1_555 1_555
H7 C13 1_555 1_555
H8 C14 1_555 1_555
H9 C17 1_555 1_555
H10 C18 1_555 1_555
H11 C20 1_555 1_555
H12 C21 1_555 1_555
H13 O13 1_555 1_555
H14 O13 1_555 1_555
H15 O14 1_555 1_555
H16 O14 1_555 1_555
O15 C22 1_555 1_555
N4 C22 1_555 1_555
C22 H17 1_555 1_555
C23 N4 1_555 1_555
C24 N4 1_555 1_555
H18 C23 1_555 1_555
H19 C23 1_555 1_555
H20 C23 1_555 1_555
H21 C24 1_555 1_555
H22 C24 1_555 1_555
H23 C24 1_555 1_555
O16 C25 1_555 1_555
N5 C25 1_555 1_555
C25 H24 1_555 1_555
C26 N5 1_555 1_555
C27 N5 1_555 1_555
H25 C26 1_555 1_555
H26 C26 1_555 1_555
H27 C26 1_555 1_555
H28 C27 1_555 1_555
H29 C27 1_555 1_555
H30 C27 1_555 1_555
O17 C28 1_555 1_555
N6 C28 1_555 1_555
C28 H31 1_555 1_555
C29 N6 1_555 1_555
C30 N6 1_555 1_555
H32 C29 1_555 1_555
H33 C29 1_555 1_555
H34 C29 1_555 1_555
H35 C30 1_555 1_555
H36 C30 1_555 1_555
H37 C30 1_555 1_555
Pr1C O2 1_555 1_555
Pr1C_2 O6 1_555 1_555
O2C Pr1 1_555 1_555
O6C Pr1 1_555 1_555
O10C Pr1 1_555 1_555
O10 Pr1C 1_555 1_555
C13 C14 1_555 1_555
C20 C21 1_555 1_555

#END
