
#######################################################################
#
#                 Cambridge Crystallographic Data Centre
#                                CCDC 
#
#######################################################################
#
# If this CIF has been generated from an entry in the Cambridge 
# Structural Database, then it will include bibliographic, chemical, 
# crystal, experimental, refinement or atomic coordinate data resulting 
# from the CCDC's data processing and validation procedures.
#
#######################################################################

data_LOZKUI
_symmetry_cell_setting           monoclinic
_symmetry_space_group_name_H-M   'C 2/c'
_symmetry_Int_Tables_number      15
_space_group_name_Hall           '-C 2yn'
loop_
_symmetry_equiv_pos_site_id
_symmetry_equiv_pos_as_xyz
1 x,y,z
2 -x,y,1/2-z
3 1/2+x,1/2+y,z
4 1/2-x,1/2+y,1/2-z
5 -x,-y,-z
6 x,-y,1/2+z
7 1/2-x,1/2-y,-z
8 1/2+x,1/2-y,1/2+z
_cell_length_a                   22.910(2)
_cell_length_b                   11.83700(11)
_cell_length_c                   16.4409(16)
_cell_angle_alpha                90
_cell_angle_beta                 133.710(2)
_cell_angle_gamma                90
_cell_volume                     3222.84
loop_
_atom_site_label
_atom_site_type_symbol
_atom_site_fract_x
_atom_site_fract_y
_atom_site_fract_z
Co1 Co 0.5000 0.34473(9) 0.2500
N1 N 0.4741(4) 0.4748(5) 0.3137(6)
N2 N 0.3818(5) 0.5932(6) 0.2745(7)
H1 H 0.3364 0.6259 0.2402
N3 N 0.3701(4) 0.3688(5) 0.1090(7)
N4 N 0.2658(5) 0.4885(7) 0.0275(7)
H2 H 0.2370 0.5422 0.0197
N5 N 0.5064(4) 0.2112(4) 0.1629(6)
C1 C 0.3957(5) 0.5091(6) 0.2338(8)
C2 C 0.4545(7) 0.6160(8) 0.3813(10)
H3 H 0.4640 0.6710 0.4296
C3 C 0.5092(6) 0.5446(7) 0.4032(8)
H4 H 0.5635 0.5428 0.4699
C4 C 0.3420(5) 0.4571(6) 0.1253(8)
C5 C 0.2450(7) 0.4179(10) -0.0543(9)
H5 H 0.1964 0.4191 -0.1294
C6 C 0.3047(7) 0.3481(9) -0.0097(10)
H6 H 0.3050 0.2924 -0.0493
C7 C 0.4479(6) 0.1307(7) 0.1036(9)
H7 H 0.4079 0.1318 0.1048
C8 C 0.4446(5) 0.0487(7) 0.0427(9)
H8 H 0.4042 -0.0058 0.0068
C9 C 0.5008(4) 0.0444(5) 0.0328(7)
C10 C 0.5611(5) 0.1280(6) 0.0943(8)
H9 H 0.6013 0.1297 0.0935
C11 C 0.5611(5) 0.2079(5) 0.1562(7)
H10 H 0.6016 0.2623 0.1952
N5D N 0.4936(4) -0.2112(4) -0.1629(6)
C7D C 0.5521(6) -0.1307(7) -0.1036(9)
H7D H 0.5921 -0.1318 -0.1048
C8D C 0.5554(5) -0.0487(7) -0.0427(9)
H8D H 0.5958 0.0058 -0.0068
C9D C 0.4992(4) -0.0444(5) -0.0328(7)
C10D C 0.4389(5) -0.1280(6) -0.0943(8)
H9D H 0.3987 -0.1297 -0.0935
C11D C 0.4389(5) -0.2079(5) -0.1562(7)
H10D H 0.3984 -0.2623 -0.1952
N1A N 0.5259(4) 0.4748(5) 0.1863(6)
N2A N 0.6182(5) 0.5932(6) 0.2255(7)
H1A H 0.6636 0.6259 0.2598
N3A N 0.6299(4) 0.3688(5) 0.3910(7)
N4A N 0.7342(5) 0.4885(7) 0.4725(7)
H2A H 0.7630 0.5422 0.4803
C1A C 0.6043(5) 0.5091(6) 0.2662(8)
C2A C 0.5455(7) 0.6160(8) 0.1187(10)
H3A H 0.5360 0.6710 0.0704
C3A C 0.4908(6) 0.5446(7) 0.0968(8)
H4A H 0.4365 0.5428 0.0301
C4A C 0.6580(5) 0.4571(6) 0.3747(8)
C5A C 0.7550(7) 0.4179(10) 0.5543(9)
H5A H 0.8036 0.4191 0.6294
C6A C 0.6953(7) 0.3481(9) 0.5097(10)
H6A H 0.6950 0.2924 0.5493
Co1D Co 0.5000 -0.34473(9) -0.2500
N5A N 0.4936(4) 0.2112(4) 0.3371(6)
Cl1 Cl 0.2595(4) 0.1561(8) 0.7301(12)
O1 O 0.2565(13) 0.0913(16) 0.798(2)
O2 O 0.1884(12) 0.1333(18) 0.616(2)
O3 O 0.2597(8) 0.2726(15) 0.752(2)
O4 O 0.327(6) 0.133(6) 0.749(10)
O9 O 0.1683(6) 0.3187(8) 0.4686(9)
H11 H 0.1730 0.2474 0.4770
H12 H 0.1892 0.3477 0.5311
O10 O 0.0507(14) 0.3552(15) 0.262(2)
H13 H 0.0827 0.3416 0.3323
H14 H 0.0786 0.3603 0.2459
Cl2? Cl 0.2421(16) 0.198(3) 0.667(4)
O5? O 0.205(5) 0.151(5) 0.701(8)
O6? O 0.202(4) 0.159(6) 0.560(7)
O7? O 0.237(3) 0.316(5) 0.667(7)
O8? O 0.32(2) 0.16(2) 0.74(4)
loop_
_geom_bond_atom_site_label_1
_geom_bond_atom_site_label_2
_geom_bond_site_symmetry_1
_geom_bond_site_symmetry_2
Co1 N1 1_555 1_555
N1 C1 1_555 1_555
N2 H1 1_555 1_555
N3 Co1 1_555 1_555
N4 H2 1_555 1_555
N5 Co1 1_555 1_555
C1 N2 1_555 1_555
C2 N2 1_555 1_555
H3 C2 1_555 1_555
C3 N1 1_555 1_555
H4 C3 1_555 1_555
C4 N3 1_555 1_555
C5 N4 1_555 1_555
H5 C5 1_555 1_555
C6 N3 1_555 1_555
H6 C6 1_555 1_555
C7 N5 1_555 1_555
H7 C7 1_555 1_555
C8 C7 1_555 1_555
H8 C8 1_555 1_555
C9 C8 1_555 1_555
C10 C9 1_555 1_555
H9 C10 1_555 1_555
C11 N5 1_555 1_555
H10 C11 1_555 1_555
Cl1 O1 1_555 1_555
O2 Cl1 1_555 1_555
O3 Cl1 1_555 1_555
O4 Cl1 1_555 1_555
O9 H11 1_555 1_555
H12 O9 1_555 1_555
O10 H13 1_555 1_555
H14 O10 1_555 1_555
N5D C7D 1_555 1_555
C7D H7D 1_555 1_555
C8D C7D 1_555 1_555
H8D C8D 1_555 1_555
C9D C9 1_555 1_555
C10D C9D 1_555 1_555
H9D C10D 1_555 1_555
C11D N5D 1_555 1_555
H10D C11D 1_555 1_555
N1A Co1 1_555 1_555
N2A H1A 1_555 1_555
N3A Co1 1_555 1_555
N4A H2A 1_555 1_555
C1A N1A 1_555 1_555
C2A N2A 1_555 1_555
H3A C2A 1_555 1_555
C3A N1A 1_555 1_555
H4A C3A 1_555 1_555
C4A N3A 1_555 1_555
C5A N4A 1_555 1_555
H5A C5A 1_555 1_555
C6A N3A 1_555 1_555
H6A C6A 1_555 1_555
Co1D N5D 1_555 1_555
N5A Co1 1_555 1_555
N4 C4 1_555 1_555
C1 C4 1_555 1_555
C2 C3 1_555 1_555
C5 C6 1_555 1_555
C10 C11 1_555 1_555
C8D C9D 1_555 1_555
C10D C11D 1_555 1_555
N2A C1A 1_555 1_555
N4A C4A 1_555 1_555
C1A C4A 1_555 1_555
C2A C3A 1_555 1_555
C5A C6A 1_555 1_555

#END
