
#######################################################################
#
#                 Cambridge Crystallographic Data Centre
#                                CCDC 
#
#######################################################################
#
# If this CIF has been generated from an entry in the Cambridge 
# Structural Database, then it will include bibliographic, chemical, 
# crystal, experimental, refinement or atomic coordinate data resulting 
# from the CCDC's data processing and validation procedures.
#
#######################################################################

data_LOZPEX
_symmetry_cell_setting           monoclinic
_symmetry_space_group_name_H-M   'C 2/c'
_symmetry_Int_Tables_number      15
_space_group_name_Hall           '-C 2yn'
loop_
_symmetry_equiv_pos_site_id
_symmetry_equiv_pos_as_xyz
1 x,y,z
2 -x,y,1/2-z
3 1/2+x,1/2+y,z
4 1/2-x,1/2+y,1/2-z
5 -x,-y,-z
6 x,-y,1/2+z
7 1/2-x,1/2-y,-z
8 1/2+x,1/2-y,1/2+z
_cell_length_a                   26.2592(19)
_cell_length_b                   11.5550(9)
_cell_length_c                   19.545(3)
_cell_angle_alpha                90
_cell_angle_beta                 123.4150(10)
_cell_angle_gamma                90
_cell_volume                     4950.16
loop_
_atom_site_label
_atom_site_type_symbol
_atom_site_fract_x
_atom_site_fract_y
_atom_site_fract_z
Cd1 Cd 1.111995(8) 0.252900(14) 1.044410(10)
O1 O 1.09763(9) 0.3329(2) 0.91526(12)
O2 O 1.18628(10) 0.3009(3) 1.02631(13)
O3 O 1.11877(9) 0.57164(16) 0.61214(12)
O4 O 1.03349(9) 0.66849(15) 0.55378(11)
N1 N 1.06257(9) 0.09100(17) 0.97690(11)
N2 N 0.99860(8) -0.02709(16) 0.87743(11)
N3 N 0.74289(9) -0.32724(17) 0.30586(11)
N4 N 0.67838(10) -0.32836(19) 0.17150(11)
C1 C 1.15431(12) 0.3338(2) 0.95378(15)
C2 C 1.18750(12) 0.3789(3) 0.91591(15)
H1 H 1.1921 0.4620 0.9239
H2 H 1.2281 0.3454 0.9450
C3 C 1.15659(11) 0.3537(2) 0.82555(14)
C4 C 1.11330(12) 0.4286(2) 0.76749(14)
H3 H 1.1037 0.4950 0.7850
C5 C 1.08357(11) 0.4083(2) 0.68386(14)
C6 C 1.09789(13) 0.3082(2) 0.65865(16)
H4 H 1.0784 0.2920 0.6031
C7 C 1.14088(15) 0.2328(3) 0.7159(2)
H5 H 1.1500 0.1658 0.6984
C8 C 1.17073(15) 0.2548(2) 0.7990(2)
H6 H 1.2001 0.2036 0.8369
C9 C 1.03841(13) 0.4951(2) 0.62339(16)
H7 H 1.0202 0.5357 0.6483
H8 H 1.0060 0.4539 0.5759
C10 C 1.06582(12) 0.5837(2) 0.59485(13)
C11 C 1.06715(11) -0.0174(2) 1.00884(14)
H9 H 1.0931 -0.0369 1.0639
C12 C 1.02864(11) -0.0917(2) 0.94888(13)
H10 H 1.0234 -0.1699 0.9545
C13 C 1.02085(11) 0.0821(2) 0.89740(14)
H11 H 1.0085 0.1427 0.8602
C14 C 0.95644(10) -0.0703(2) 0.79596(13)
C15 C 0.92426(12) 0.0045(2) 0.73072(15)
H12 H 0.9276 0.0840 0.7397
C16 C 0.88687(11) -0.0384(2) 0.65183(14)
H13 H 0.8652 0.0131 0.6084
C17 C 0.88096(10) -0.1569(2) 0.63603(13)
C18 C 0.91233(15) -0.2299(2) 0.70322(16)
H14 H 0.9082 -0.3095 0.6947
C19 C 0.94963(13) -0.1885(2) 0.78243(14)
H15 H 0.9700 -0.2397 0.8262
C20 C 0.84426(10) -0.2028(2) 0.55093(13)
C21 C 0.79363(11) -0.1434(2) 0.48873(14)
H16 H 0.7820 -0.0746 0.5011
C22 C 0.76020(11) -0.1840(2) 0.40919(14)
H17 H 0.7265 -0.1426 0.3689
C23 C 0.77669(11) -0.2861(2) 0.38901(13)
C24 C 0.82668(12) -0.3474(2) 0.44961(14)
H18 H 0.8382 -0.4161 0.4369
C25 C 0.85942(12) -0.3059(2) 0.52915(14)
H19 H 0.8927 -0.3482 0.5695
C26 C 0.75120(13) -0.4297(2) 0.27772(16)
H20 H 0.7787 -0.4881 0.3090
C27 C 0.71143(12) -0.4287(2) 0.19561(16)
H21 H 0.7071 -0.4878 0.1605
C28 C 0.69904(13) -0.2690(2) 0.23935(16)
H22 H 0.6851 -0.1958 0.2412
Cd1B Cd 0.611995(8) -0.247100(14) 0.044410(10)
Cd1E Cd 1.111995(8) 0.747100(14) 0.544410(10)
O3E O 1.11877(9) 0.42836(16) 1.11214(12)
O4E O 1.03349(9) 0.33151(15) 1.05378(11)
N4B N 1.17838(10) 0.17164(19) 1.17150(11)
O5 O 1.0000 0.2550(2) 0.7500
H23 H 0.974(2) 0.301(4) 0.714(3)
H23A H 1.026(2) 0.301(4) 0.786(3)
loop_
_geom_bond_atom_site_label_1
_geom_bond_atom_site_label_2
_geom_bond_site_symmetry_1
_geom_bond_site_symmetry_2
Cd1 O1 1_555 1_555
O1 C1 1_555 1_555
O2 Cd1 1_555 1_555
O3 C10 1_555 1_555
O4 C10 1_555 1_555
N1 Cd1 1_555 1_555
N2 C12 1_555 1_555
N3 C23 1_555 1_555
N4 C27 1_555 1_555
C1 O2 1_555 1_555
C2 C1 1_555 1_555
H1 C2 1_555 1_555
H2 C2 1_555 1_555
C3 C2 1_555 1_555
C4 C3 1_555 1_555
H3 C4 1_555 1_555
C5 C4 1_555 1_555
C6 C5 1_555 1_555
H4 C6 1_555 1_555
C7 C6 1_555 1_555
H5 C7 1_555 1_555
C8 C3 1_555 1_555
H6 C8 1_555 1_555
C9 C5 1_555 1_555
H7 C9 1_555 1_555
H8 C9 1_555 1_555
C10 C9 1_555 1_555
C11 N1 1_555 1_555
H9 C11 1_555 1_555
C12 C11 1_555 1_555
H10 C12 1_555 1_555
C13 N1 1_555 1_555
H11 C13 1_555 1_555
C14 N2 1_555 1_555
C15 C14 1_555 1_555
H12 C15 1_555 1_555
C16 C15 1_555 1_555
H13 C16 1_555 1_555
C17 C16 1_555 1_555
C18 C17 1_555 1_555
H14 C18 1_555 1_555
C19 C14 1_555 1_555
H15 C19 1_555 1_555
C20 C17 1_555 1_555
C21 C20 1_555 1_555
H16 C21 1_555 1_555
C22 C21 1_555 1_555
H17 C22 1_555 1_555
C23 C22 1_555 1_555
C24 C23 1_555 1_555
H18 C24 1_555 1_555
C25 C20 1_555 1_555
H19 C25 1_555 1_555
C26 N3 1_555 1_555
H20 C26 1_555 1_555
C27 C26 1_555 1_555
H21 C27 1_555 1_555
C28 N3 1_555 1_555
H22 C28 1_555 1_555
O5 H23 1_555 1_555
Cd1B N4 1_555 1_555
Cd1E O3 1_555 1_555
O3E Cd1 1_555 1_555
O4E Cd1 1_555 1_555
N4B Cd1 1_555 1_555
H23A O5 1_555 1_555
O4 Cd1E 1_555 1_555
N2 C13 1_555 1_555
N4 C28 1_555 1_555
C7 C8 1_555 1_555
C18 C19 1_555 1_555
C24 C25 1_555 1_555

#END
