
#######################################################################
#
#                 Cambridge Crystallographic Data Centre
#                                CCDC 
#
#######################################################################
#
# If this CIF has been generated from an entry in the Cambridge 
# Structural Database, then it will include bibliographic, chemical, 
# crystal, experimental, refinement or atomic coordinate data resulting 
# from the CCDC's data processing and validation procedures.
#
#######################################################################

data_LOZQEY
_symmetry_cell_setting           monoclinic
_symmetry_space_group_name_H-M   'P 21'
_symmetry_Int_Tables_number      4
_space_group_name_Hall           'P 2yb'
loop_
_symmetry_equiv_pos_site_id
_symmetry_equiv_pos_as_xyz
1 x,y,z
2 -x,1/2+y,-z
_cell_length_a                   5.03220(10)
_cell_length_b                   13.3747(4)
_cell_length_c                   12.9944(4)
_cell_angle_alpha                90
_cell_angle_beta                 92.987(2)
_cell_angle_gamma                90
_cell_volume                     873.389
loop_
_atom_site_label
_atom_site_type_symbol
_atom_site_fract_x
_atom_site_fract_y
_atom_site_fract_z
Zn1 Zn 0.33025(15) 1.18553(6) 0.40008(6)
Zn2 Zn 0.19523(14) 0.80774(6) 0.94643(6)
O1 O 0.7142(10) 1.2271(4) 0.4063(4)
N1 N 0.8480(9) 1.4274(4) 0.9510(4)
H1 H 0.7212 1.4201 0.9001
H2 H 0.8085 1.4836 0.9851
N2 N 0.3762(9) 1.1201(4) 0.5458(3)
H3 H 0.4228 1.1712 0.5882
H4 H 0.2101 1.1031 0.5614
O2 O 0.2163(12) 0.6848(5) 0.8421(5)
H5 H 0.1035 0.6430 0.8553
H6 H 0.1526 0.6815 0.8004
O3 O 0.3375(10) 0.8972(4) 0.8441(4)
O4 O 0.1779(10) 1.2651(5) 1.0285(4)
O5 O 0.7316(13) 1.0167(5) 0.5289(5)
N3 N 0.4610(11) 1.0000(5) 0.6650(4)
H7 H 0.5476 0.9466 0.6819
C1 C 0.1577(14) 0.9455(6) 0.7937(5)
O6 O -0.0846(10) 0.9309(5) 0.7955(5)
C2 C 0.2549(13) 1.0366(5) 0.7314(5)
H8 H 0.1058 1.0637 0.6886
C3 C 0.3661(13) 1.1168(6) 0.8027(6)
H9 H 0.4162 1.1736 0.7615
H10 H 0.5267 1.0915 0.8381
C4 C 0.1784(15) 1.1532(6) 0.8830(6)
H11 H 0.0291 1.1873 0.8483
H12 H 0.1090 1.0958 0.9185
O7 O 1.2810(14) 1.4798(6) 0.9630(5)
O8 O 0.8779(11) 1.5625(4) 0.6474(5)
C5 C 0.3096(15) 1.2231(6) 0.9617(6)
C6 C 0.7310(14) 1.5052(6) 0.6982(5)
C7 C 0.8560(13) 1.4066(5) 0.7360(5)
H13 H 0.6920 1.4020 0.7602
C8 C 0.7485(14) 1.3276(6) 0.5599(6)
H14 H 0.6051 1.2869 0.5843
H15 H 0.6737 1.3916 0.5386
O9 O 0.2999(13) 1.2390(4) 0.2491(4)
H16 H 0.3663 1.1985 0.2107
H17 H 0.2269 1.2953 0.2361
O10 O 0.4999(11) 1.5250(5) 0.7125(5)
O11 O 1.1062(9) 1.2929(4) 0.4539(4)
O12 O 0.5577(10) 1.2355(5) 0.9551(5)
C9 C 0.9526(15) 1.3443(6) 0.6477(6)
H18 H 1.1065 1.3769 0.6208
H19 H 1.0101 1.2797 0.6745
N4 N 1.0847(12) 1.4285(5) 0.8067(5)
H20 H 1.2519 1.4337 0.7799
C10 C 1.0637(13) 1.4435(6) 0.9086(6)
C11 C 0.5157(14) 1.0496(6) 0.5777(6)
C12 C 0.860(2) 1.2797(10) 0.4653(10)
Zn1_2 Zn 1.33025(15) 1.18553(6) 0.40008(6)
Zn1A Zn 0.66975(15) 1.68553(6) 0.59992(6)
Zn2A Zn -0.19523(14) 1.30774(6) 1.05357(6)
Zn2A_2 Zn 0.80477(14) 1.30774(6) 1.05357(6)
N1A N 0.1520(9) 0.9274(4) 1.0490(4)
O4A O -0.1779(10) 0.7651(5) 0.9715(4)
O8A O 0.1221(11) 1.0625(4) 0.3526(5)
O11_2 O 0.1062(9) 1.2929(4) 0.4539(4)
O12A O 0.4423(10) 0.7355(5) 1.0449(5)
loop_
_geom_bond_atom_site_label_1
_geom_bond_atom_site_label_2
_geom_bond_site_symmetry_1
_geom_bond_site_symmetry_2
Zn1 O1 1_555 1_555
Zn2 O2 1_555 1_555
O1 C12 1_555 1_555
N1 H1 1_555 1_555
H2 N1 1_555 1_555
N2 Zn1 1_555 1_555
H3 N2 1_555 1_555
H4 N2 1_555 1_555
O2 H5 1_555 1_555
H6 O2 1_555 1_555
O3 Zn2 1_555 1_555
O4 C5 1_555 1_555
O5 C11 1_555 1_555
N3 H7 1_555 1_555
C1 O3 1_555 1_555
O6 C1 1_555 1_555
C2 N3 1_555 1_555
H8 C2 1_555 1_555
C3 C2 1_555 1_555
H9 C3 1_555 1_555
H10 C3 1_555 1_555
C4 C3 1_555 1_555
H11 C4 1_555 1_555
H12 C4 1_555 1_555
O7 C10 1_555 1_555
O8 C6 1_555 1_555
C5 C4 1_555 1_555
C6 C7 1_555 1_555
C7 H13 1_555 1_555
C8 H14 1_555 1_555
H15 C8 1_555 1_555
O9 Zn1 1_555 1_555
H16 O9 1_555 1_555
H17 O9 1_555 1_555
O10 C6 1_555 1_555
O11 C12 1_555 1_555
O12 C5 1_555 1_555
C9 C7 1_555 1_555
H18 C9 1_555 1_555
H19 C9 1_555 1_555
N4 C7 1_555 1_555
H20 N4 1_555 1_555
C10 N1 1_555 1_555
C11 N2 1_555 1_555
C12 C8 1_555 1_555
Zn1_2 O11 1_555 1_555
Zn1A O8 1_555 1_555
Zn2A O4 1_555 1_555
Zn2A_2 N1 1_555 1_555
N1A Zn2 1_555 1_555
O4A Zn2 1_555 1_555
O8A Zn1 1_555 1_555
O11_2 Zn1 1_555 1_555
O12A Zn2 1_555 1_555
N3 C11 1_555 1_555
C1 C2 1_555 1_555
C8 C9 1_555 1_555
O12 Zn2A_2 1_555 1_555
N4 C10 1_555 1_555

#END
