
#######################################################################
#
#                 Cambridge Crystallographic Data Centre
#                                CCDC 
#
#######################################################################
#
# If this CIF has been generated from an entry in the Cambridge 
# Structural Database, then it will include bibliographic, chemical, 
# crystal, experimental, refinement or atomic coordinate data resulting 
# from the CCDC's data processing and validation procedures.
#
#######################################################################

data_LOZQOI
_symmetry_cell_setting           triclinic
_symmetry_space_group_name_H-M   'P -1'
_symmetry_Int_Tables_number      2
_space_group_name_Hall           '-P 1'
loop_
_symmetry_equiv_pos_site_id
_symmetry_equiv_pos_as_xyz
1 x,y,z
2 -x,-y,-z
_cell_length_a                   5.5801(5)
_cell_length_b                   7.8427(8)
_cell_length_c                   18.614(2)
_cell_angle_alpha                87.604(2)
_cell_angle_beta                 86.213(2)
_cell_angle_gamma                69.4280(10)
_cell_volume                     760.843
loop_
_atom_site_label
_atom_site_type_symbol
_atom_site_fract_x
_atom_site_fract_y
_atom_site_fract_z
Ag1 Ag -0.1967(3) 0.4082(2) 0.56126(9)
Ag2 Ag 0.4079(4) 0.1803(3) 0.52366(12)
Ag3 Ag -0.6036(4) 0.6464(4) 0.94427(16)
O1 O 0.023(3) 0.493(2) 0.6409(8)
O2 O 0.339(3) 0.482(2) 0.5604(9)
O3 O -0.236(3) 1.103(2) 0.5815(10)
O4 O -0.119(3) 0.817(2) 0.5474(9)
O5 O -0.216(3) 0.569(2) 0.8939(9)
O6 O -0.085(3) 0.334(2) 0.9725(8)
O7 O 0.781(4) -0.051(3) 0.9625(12)
O8 O 1.062(3) -0.081(2) 0.8711(10)
O9 O 0.560(3) 0.4673(19) 0.7161(7)
C1 C 0.197(4) 0.548(3) 0.6134(11)
C2 C -0.094(4) 0.938(3) 0.5832(11)
C3 C 0.249(4) 0.697(3) 0.6511(11)
C4 C 0.123(4) 0.881(3) 0.6332(11)
C5 C 0.191(4) 1.010(3) 0.6688(11)
H1 H 0.1033 1.1329 0.6595
C6 C 0.383(4) 0.962(3) 0.7173(12)
H2 H 0.4318 1.0501 0.7378
C7 C 0.498(4) 0.784(3) 0.7341(11)
H3 H 0.6240 0.7498 0.7677
C8 C 0.432(4) 0.650(3) 0.7018(11)
C9 C -0.050(4) 0.429(3) 0.9171(11)
C10 C 0.855(5) -0.006(3) 0.8992(12)
C11 C 0.212(4) 0.364(3) 0.8775(11)
C12 C 0.403(4) 0.217(3) 0.9042(12)
H4 H 0.3731 0.1581 0.9463
C13 C 0.652(4) 0.154(3) 0.8663(11)
C14 C 0.698(4) 0.240(3) 0.8038(11)
H5 H 0.8568 0.1980 0.7786
C15 C 0.497(4) 0.392(3) 0.7792(11)
C16 C 0.262(4) 0.456(3) 0.8161(11)
H6 H 0.1355 0.5605 0.7999
Ag1_2 Ag -0.1967(3) 1.4082(2) 0.56126(9)
Ag1_3 Ag 0.8033(3) 0.4082(2) 0.56126(9)
Ag1A Ag 0.1967(3) 0.5918(2) 0.43874(9)
Ag2_2 Ag -0.5921(4) 1.1803(3) 0.52366(12)
Ag2A Ag -0.4079(4) 0.8197(3) 0.47634(12)
Ag2A_2 Ag 0.5921(4) -0.1803(3) 0.47634(12)
Ag3_2 Ag 1.3964(4) -0.3536(4) 0.94427(16)
Ag3A Ag -0.3964(4) 0.3536(4) 1.05573(16)
O2_2 O -0.661(3) 0.482(2) 0.5604(9)
O2A O -0.339(3) 0.518(2) 0.4396(9)
O3_2 O -0.236(3) 0.103(2) 0.5815(10)
O3_3 O 0.764(3) 0.103(2) 0.5815(10)
O4A O 0.119(3) 0.183(2) 0.4526(9)
O6A O -0.915(3) 0.666(2) 1.0275(8)
O8_2 O -0.938(3) 0.919(2) 0.8711(10)
loop_
_geom_bond_atom_site_label_1
_geom_bond_atom_site_label_2
_geom_bond_site_symmetry_1
_geom_bond_site_symmetry_2
Ag1 O1 1_555 1_555
Ag2 O2 1_555 1_555
Ag3 O5 1_555 1_555
O1 C1 1_555 1_555
O2 C1 1_555 1_555
O3 C2 1_555 1_555
O4 C2 1_555 1_555
O5 C9 1_555 1_555
O6 C9 1_555 1_555
O7 C10 1_555 1_555
O8 C10 1_555 1_555
O9 C8 1_555 1_555
C1 C3 1_555 1_555
C2 C4 1_555 1_555
C3 C4 1_555 1_555
C4 C5 1_555 1_555
C5 H1 1_555 1_555
C6 C5 1_555 1_555
H2 C6 1_555 1_555
C7 C6 1_555 1_555
H3 C7 1_555 1_555
C8 C3 1_555 1_555
C9 C11 1_555 1_555
C10 C13 1_555 1_555
C11 C12 1_555 1_555
C12 H4 1_555 1_555
C13 C12 1_555 1_555
C14 C13 1_555 1_555
H5 C14 1_555 1_555
C15 O9 1_555 1_555
C16 C11 1_555 1_555
H6 C16 1_555 1_555
Ag1_2 O3 1_555 1_555
Ag1_3 O2 1_555 1_555
Ag1A O2 1_555 1_555
Ag2_2 O3 1_555 1_555
Ag2A O4 1_555 1_555
Ag2A_2 Ag2 1_555 1_555
Ag3_2 O8 1_555 1_555
Ag3A Ag3 1_555 1_555
O2_2 Ag1 1_555 1_555
O2A Ag1 1_555 1_555
O3_2 Ag1 1_555 1_555
O3_3 Ag2 1_555 1_555
O4A Ag2 1_555 1_555
O6A Ag3 1_555 1_555
O8_2 Ag3 1_555 1_555
O6 Ag3A 1_555 1_555
C7 C8 1_555 1_555
C14 C15 1_555 1_555
C15 C16 1_555 1_555
Ag1_3 O3_3 1_555 1_555
Ag2_2 Ag2A 1_555 1_555
Ag2A O2A 1_555 1_555

#END
