
#######################################################################
#
#                 Cambridge Crystallographic Data Centre
#                                CCDC 
#
#######################################################################
#
# If this CIF has been generated from an entry in the Cambridge 
# Structural Database, then it will include bibliographic, chemical, 
# crystal, experimental, refinement or atomic coordinate data resulting 
# from the CCDC's data processing and validation procedures.
#
#######################################################################

data_LOZTEB
_symmetry_cell_setting           triclinic
_symmetry_space_group_name_H-M   'P -1'
_symmetry_Int_Tables_number      2
_space_group_name_Hall           '-P 1'
loop_
_symmetry_equiv_pos_site_id
_symmetry_equiv_pos_as_xyz
1 x,y,z
2 -x,-y,-z
_cell_length_a                   9.3955(5)
_cell_length_b                   13.8663(6)
_cell_length_c                   16.5559(10)
_cell_angle_alpha                85.363(4)
_cell_angle_beta                 76.965(5)
_cell_angle_gamma                72.239(5)
_cell_volume                     2001.01
loop_
_atom_site_label
_atom_site_type_symbol
_atom_site_fract_x
_atom_site_fract_y
_atom_site_fract_z
Tb1 Tb 0.222121(17) 0.535646(11) 0.500700(9)
O1 O 0.3575(3) 0.56456(17) 0.59191(14)
O2 O 0.3026(3) 0.68778(17) 0.45753(15)
O3 O 0.0269(3) 0.65560(17) 0.59009(14)
O4 O 0.0859(3) 0.63002(17) 0.40013(14)
O5 O 0.1596(3) 0.42150(16) 0.61873(14)
O6 O 0.4096(3) 0.49205(17) 0.38054(14)
O7 O 0.3884(2) 0.37061(16) 0.53843(14)
O8 O 0.1240(3) 0.41769(16) 0.44953(14)
C1 C 0.4494(4) 0.5537(2) 0.6386(2)
H1 H 0.2509 0.7368 0.4918
H2 H 0.391(4) 0.672(3) 0.459(2)
H3 H 0.1497 0.6406 0.3566
H4 H 0.0272 0.6875 0.4201
C2 C 0.2855(4) 0.3532(3) 0.5960(2)
C3 C 0.3871(4) 0.6004(2) 0.7231(2)
C4 C 0.3120(4) 0.2505(2) 0.6358(2)
C5 C 0.4798(4) 0.5885(3) 0.7804(2)
C6 C 0.2340(4) 0.6568(3) 0.7449(2)
C7 C 0.2102(4) 0.2299(3) 0.7050(2)
C8 C 0.4409(4) 0.1730(2) 0.6024(2)
C9 C 0.4204(5) 0.6307(3) 0.8585(2)
H5 H 0.5827 0.5519 0.7660
C10 C 0.1749(4) 0.7000(3) 0.8229(2)
H6 H 0.1710 0.6657 0.7071
C11 C 0.2389(4) 0.1344(3) 0.7419(2)
H7 H 0.1218 0.2807 0.7269
C12 C 0.4712(4) 0.0779(3) 0.6377(2)
H8 H 0.5082 0.1859 0.5552
H9 H 0.4822 0.6220 0.8968
C13 C 0.2672(5) 0.6860(3) 0.8784(2)
H10 H 0.0728 0.7382 0.8372
C14 C 0.3704(4) 0.0584(2) 0.7077(2)
H11 H 0.1714 0.1213 0.7889
H12 H 0.5584 0.0269 0.6148
O9 O 0.2026(4) 0.7233(2) 0.95878(16)
O10 O 0.3916(3) -0.03429(17) 0.74800(14)
C15 C 0.2077(5) 0.8180(3) 0.9761(2)
C16 C 0.5162(4) -0.1138(2) 0.7103(2)
C17 C 0.2865(5) 0.8734(3) 0.9217(2)
C18 C 0.1300(5) 0.8546(3) 1.0545(2)
C19 C 0.6552(4) -0.1322(3) 0.7323(2)
C20 C 0.4942(4) -0.1721(3) 0.6535(2)
C21 C 0.2877(5) 0.9662(3) 0.9460(2)
H13 H 0.3384 0.8488 0.8692
C22 C 0.1328(5) 0.9468(3) 1.0777(2)
H14 H 0.0763 0.8170 1.0911
C23 C 0.7785(4) -0.2096(2) 0.6935(2)
H15 H 0.6661 -0.0933 0.7724
C24 C 0.6179(4) -0.2509(3) 0.6155(2)
H16 H 0.3987 -0.1592 0.6407
C25 C 0.2121(5) 1.0035(3) 1.0241(2)
H17 H 0.3403 1.0042 0.9091
H18 H 0.0806 0.9714 1.1302
H19 H 0.8735 -0.2222 0.7069
C26 C 0.7602(4) -0.2688(2) 0.6343(2)
H20 H 0.6047 -0.2916 0.5775
C27 C 0.2101(5) 1.1049(3) 1.0510(3)
C28 C 0.8962(4) -0.3493(2) 0.5890(2)
O11 O 0.1626(3) 1.1338(2) 1.12186(16)
O12 O 0.2641(4) 1.1595(2) 0.98890(18)
H21 H 0.2586 1.2146 1.0062
O6A O 0.5904(3) 0.50795(17) 0.61946(14)
Tb1A Tb 0.777879(17) 0.464354(11) 0.499300(9)
O3_2 O 1.0269(3) -0.34440(17) 0.59009(14)
O8A O 0.8760(3) -0.41769(16) 0.55047(14)
Tb1_2 Tb 1.222121(17) -0.464354(11) 0.500700(9)
Tb1A_2 Tb 0.777879(17) -0.535646(11) 0.499300(9)
O13 O 0.7740(3) 0.3190(2) 0.75338(18)
N1 N 0.5316(4) 0.3349(3) 0.8232(2)
C29 C 0.3702(6) 0.3562(5) 0.8205(3)
H22 H 0.3378 0.2972 0.8384
H23 H 0.3572 0.3739 0.7648
H24 H 0.3097 0.4116 0.8565
C30 C 0.5565(6) 0.3470(5) 0.9044(3)
H25 H 0.4933 0.4121 0.9257
H26 H 0.6621 0.3423 0.9002
H27 H 0.5309 0.2948 0.9411
C31 C 0.6422(5) 0.3245(3) 0.7562(3)
H28 H 0.6157 0.3209 0.7059
O14 O 0.2110(3) 0.8788(2) 0.52789(19)
N2 N 0.0540(4) 1.0208(3) 0.5952(2)
C32 C 0.1281(5) 1.0887(3) 0.5428(3)
H29 H 0.0532 1.1521 0.5364
H30 H 0.1757 1.0588 0.4894
H31 H 0.2042 1.0998 0.5680
C33 C -0.0790(5) 1.0678(4) 0.6600(3)
H32 H -0.0528 1.1118 0.6923
H33 H -0.1094 1.0160 0.6953
H34 H -0.1618 1.1063 0.6349
C34 C 0.1026(5) 0.9222(3) 0.5822(3)
H35 H 0.0505 0.8824 0.6172
O15 O 0.2282(4) 0.3451(2) 0.02975(18)
N3 N 0.1188(4) 0.4644(2) 0.1296(2)
C35 C 0.0565(5) 0.4871(3) 0.2160(3)
H36 H 0.1068 0.5297 0.2339
H37 H 0.0721 0.4253 0.2480
H38 H -0.0511 0.5214 0.2239
C36 C 0.1021(7) 0.5494(3) 0.0717(3)
H39 H -0.0022 0.5741 0.0657
H40 H 0.1678 0.5279 0.0189
H41 H 0.1298 0.6024 0.0924
C37 C 0.1787(5) 0.3697(3) 0.1027(3)
H42 H 0.1833 0.3179 0.1423
loop_
_geom_bond_atom_site_label_1
_geom_bond_atom_site_label_2
_geom_bond_site_symmetry_1
_geom_bond_site_symmetry_2
Tb1 O1 1_555 1_555
O1 C1 1_555 1_555
O2 Tb1 1_555 1_555
O3 Tb1 1_555 1_555
O4 Tb1 1_555 1_555
O5 Tb1 1_555 1_555
O6 Tb1 1_555 1_555
O7 Tb1 1_555 1_555
O8 Tb1 1_555 1_555
C1 C3 1_555 1_555
H1 O2 1_555 1_555
H2 O2 1_555 1_555
H3 O4 1_555 1_555
H4 O4 1_555 1_555
C2 O5 1_555 1_555
C3 C5 1_555 1_555
C4 C2 1_555 1_555
C5 C9 1_555 1_555
C6 C3 1_555 1_555
C7 C4 1_555 1_555
C8 C4 1_555 1_555
C9 H9 1_555 1_555
H5 C5 1_555 1_555
C10 C6 1_555 1_555
H6 C6 1_555 1_555
C11 C7 1_555 1_555
H7 C7 1_555 1_555
C12 C8 1_555 1_555
H8 C8 1_555 1_555
C13 C9 1_555 1_555
H10 C10 1_555 1_555
C14 C11 1_555 1_555
H11 C11 1_555 1_555
H12 C12 1_555 1_555
O9 C13 1_555 1_555
O10 C14 1_555 1_555
C15 O9 1_555 1_555
C16 O10 1_555 1_555
C17 C15 1_555 1_555
C18 C15 1_555 1_555
C19 C16 1_555 1_555
C20 C16 1_555 1_555
C21 C17 1_555 1_555
H13 C17 1_555 1_555
C22 C18 1_555 1_555
H14 C18 1_555 1_555
C23 C19 1_555 1_555
H15 C19 1_555 1_555
C24 C20 1_555 1_555
H16 C20 1_555 1_555
C25 C21 1_555 1_555
H17 C21 1_555 1_555
H18 C22 1_555 1_555
H19 C23 1_555 1_555
C26 C23 1_555 1_555
H20 C24 1_555 1_555
C27 C25 1_555 1_555
C28 C26 1_555 1_555
O11 C27 1_555 1_555
O12 C27 1_555 1_555
H21 O12 1_555 1_555
O13 C31 1_555 1_555
N1 C29 1_555 1_555
C29 H22 1_555 1_555
H23 C29 1_555 1_555
H24 C29 1_555 1_555
C30 N1 1_555 1_555
H25 C30 1_555 1_555
H26 C30 1_555 1_555
H27 C30 1_555 1_555
C31 N1 1_555 1_555
H28 C31 1_555 1_555
O14 C34 1_555 1_555
N2 C32 1_555 1_555
C32 H29 1_555 1_555
H30 C32 1_555 1_555
H31 C32 1_555 1_555
C33 N2 1_555 1_555
H32 C33 1_555 1_555
H33 C33 1_555 1_555
H34 C33 1_555 1_555
C34 N2 1_555 1_555
H35 C34 1_555 1_555
O15 C37 1_555 1_555
N3 C35 1_555 1_555
C35 H36 1_555 1_555
H37 C35 1_555 1_555
H38 C35 1_555 1_555
C36 N3 1_555 1_555
H39 C36 1_555 1_555
H40 C36 1_555 1_555
H41 C36 1_555 1_555
C37 N3 1_555 1_555
H42 C37 1_555 1_555
O6A C1 1_555 1_555
Tb1A O6A 1_555 1_555
O3_2 C28 1_555 1_555
O8A C28 1_555 1_555
Tb1_2 O3_2 1_555 1_555
Tb1A_2 O8A 1_555 1_555
O7 C2 1_555 1_555
C10 C13 1_555 1_555
C12 C14 1_555 1_555
C22 C25 1_555 1_555
C24 C26 1_555 1_555

#END
