
#######################################################################
#
#                 Cambridge Crystallographic Data Centre
#                                CCDC 
#
#######################################################################
#
# If this CIF has been generated from an entry in the Cambridge 
# Structural Database, then it will include bibliographic, chemical, 
# crystal, experimental, refinement or atomic coordinate data resulting 
# from the CCDC's data processing and validation procedures.
#
#######################################################################

data_LOZTOL
_symmetry_cell_setting           monoclinic
_symmetry_space_group_name_H-M   'P 21/c'
_symmetry_Int_Tables_number      14
_space_group_name_Hall           '-P 2ybc'
loop_
_symmetry_equiv_pos_site_id
_symmetry_equiv_pos_as_xyz
1 x,y,z
2 -x,1/2+y,1/2-z
3 -x,-y,-z
4 x,1/2-y,1/2+z
_cell_length_a                   9.3673(4)
_cell_length_b                   27.9636(9)
_cell_length_c                   16.8012(6)
_cell_angle_alpha                90
_cell_angle_beta                 99.382(4)
_cell_angle_gamma                90
_cell_volume                     4342.09
loop_
_atom_site_label
_atom_site_type_symbol
_atom_site_fract_x
_atom_site_fract_y
_atom_site_fract_z
Tb1 Tb 0.20339(3) -0.507460(10) 0.472855(17)
O1 O 0.1702(8) -0.44437(19) 0.5465(4)
O2 O 0.3983(6) -0.56123(19) 0.4994(5)
O3 O -0.0123(8) -0.4719(2) 0.3848(5)
O4 O 0.2163(9) -0.5239(2) 0.3424(4)
O5 O 0.0462(7) -0.57432(18) 0.4370(3)
O6 O 0.3520(6) -0.44975(16) 0.4454(3)
O7 O 0.2270(8) -0.5417(2) 0.5956(3)
C1 C 0.0866(10) -0.4164(2) 0.5677(4)
C2 C 0.5305(8) -0.5767(2) 0.5303(4)
C3 C -0.1307(10) -0.4489(3) 0.3707(5)
H1 H 0.2420 -0.4981 0.3219
H2 H 0.1264 -0.5338 0.3081
C4 C 0.1537(8) -0.3694(2) 0.6028(4)
C5 C 0.5543(7) -0.6295(2) 0.5393(3)
C6 C -0.1693(8) -0.4078(2) 0.3151(4)
C7 C 0.0592(7) -0.3325(2) 0.6096(4)
C8 C 0.3100(8) -0.3616(2) 0.6296(4)
C9 C 0.4319(7) -0.6598(2) 0.5293(4)
C10 C 0.6989(7) -0.6490(2) 0.5555(4)
C11 C -0.0827(9) -0.3995(3) 0.2677(4)
C12 C -0.2826(8) -0.3756(3) 0.3126(4)
C13 C 0.1207(7) -0.2899(2) 0.6438(4)
H3 H -0.0399 -0.3356 0.5925
H4 H 0.3723 -0.3866 0.6224
C14 C 0.3728(8) -0.3188(2) 0.6654(4)
C15 C 0.4514(7) -0.7090(2) 0.5363(3)
H5 H 0.3392 -0.6470 0.5182
H6 H 0.7786 -0.6287 0.5633
C16 C 0.7184(7) -0.6981(2) 0.5593(4)
C17 C -0.1101(8) -0.3596(3) 0.2195(4)
H7 H -0.0037 -0.4192 0.2650
H8 H -0.3492 -0.3820 0.3466
C18 C -0.3078(8) -0.3348(3) 0.2654(4)
C19 C 0.2766(7) -0.2830(2) 0.6719(4)
H9 H 0.0590 -0.2644 0.6489
H10 H 0.4717 -0.3156 0.6831
C20 C 0.5947(7) -0.7279(2) 0.5501(4)
H11 H 0.3719 -0.7293 0.5321
H12 H 0.8109 -0.7113 0.5678
C21 C -0.2199(8) -0.3276(2) 0.2197(4)
H13 H -0.0472 -0.3539 0.1831
H14 H -0.3854 -0.3145 0.2681
O8 O 0.3481(5) -0.24255(15) 0.7146(3)
O9 O 0.6297(5) -0.77596(16) 0.5544(3)
O10 O -0.2456(6) -0.28632(17) 0.1728(3)
C22 C 0.2881(7) -0.1977(2) 0.6881(4)
C23 C 0.5193(8) -0.8107(2) 0.5464(4)
C24 C -0.1851(8) -0.2450(2) 0.2135(4)
C25 C 0.3115(8) -0.1639(2) 0.7475(4)
C26 C 0.2204(8) -0.1860(2) 0.6071(4)
C27 C 0.4575(9) -0.8178(3) 0.6052(5)
C28 C 0.4815(8) -0.8409(2) 0.4808(5)
C29 C -0.0669(9) -0.2440(3) 0.2886(4)
C30 C -0.2456(7) -0.2031(2) 0.1747(4)
H15 H 0.3570 -0.1715 0.7994
C31 C 0.2642(8) -0.1179(2) 0.7268(4)
C32 C 0.1751(7) -0.1389(2) 0.5859(4)
H16 H 0.2063 -0.2099 0.5682
H17 H 0.4751 -0.7988 0.6512
C33 C 0.3589(10) -0.8564(3) 0.5984(4)
C34 C 0.3844(8) -0.8793(2) 0.4747(4)
H18 H 0.5256 -0.8351 0.4360
H19 H -0.0320 -0.2728 0.3118
C35 C -0.0097(9) -0.2008(2) 0.3233(4)
C36 C -0.1893(8) -0.1600(2) 0.2099(4)
H20 H -0.3172 -0.2040 0.1293
H21 H 0.2769 -0.0944 0.7666
C37 C 0.1952(7) -0.1045(2) 0.6454(4)
H22 H 0.1330 -0.1314 0.5334
H23 H 0.3116 -0.8615 0.6421
C38 C 0.3245(7) -0.8877(2) 0.5332(4)
H24 H 0.3657 -0.8977 0.4281
H25 H 0.0628 -0.1999 0.3683
C39 C -0.0708(8) -0.1584(2) 0.2849(4)
H26 H -0.2252 -0.1313 0.1869
C40 C 0.1390(8) -0.0551(2) 0.6235(4)
C41 C 0.2229(8) -0.9305(2) 0.5262(4)
C42 C -0.0097(8) -0.1118(2) 0.3257(4)
O11 O 0.1197(6) -0.02844(16) 0.6759(3)
O12 O 0.1043(5) -0.04011(15) 0.5511(3)
O13 O 0.2039(6) -0.95864(17) 0.4682(3)
O14 O 0.1662(5) -0.93573(16) 0.5796(3)
O15 O -0.0667(7) -0.07337(16) 0.2898(3)
O16 O 0.0918(6) -0.11152(16) 0.3956(3)
Tb2 Tb -0.05521(4) 0.027657(10) 0.585696(18)
O17 O 0.1660(10) -0.0080(3) 0.3171(5)
O18 O 0.3223(7) -0.0504(2) 0.4678(5)
C43 C 0.2739(16) -0.0280(6) 0.2930(11)
H27 H 0.3759 -0.0383 0.4383
H28 H 0.3364 -0.0829 0.4689
N1 N 0.4081(11) -0.0109(4) 0.2999(6)
H29 H 0.2571 -0.0576 0.2681
C44 C 0.4797(12) 0.0182(4) 0.3640(9)
C45 C 0.4976(16) -0.0286(6) 0.2471(11)
H30 H 0.5234 0.0452 0.3419
H31 H 0.4107 0.0293 0.3962
H32 H 0.5531 -0.0002 0.3969
H33 H 0.5721 -0.0482 0.2766
H34 H 0.4409 -0.0473 0.2056
H35 H 0.5411 -0.0023 0.2231
O5B O -0.0462(7) -0.42568(18) 0.5630(3)
O6B O 0.6480(6) -0.55025(16) 0.5546(3)
O7B O -0.2270(8) -0.4583(2) 0.4044(3)
Tb1B Tb -0.20339(3) -0.492540(10) 0.527145(17)
Tb1B_2 Tb 0.79661(3) -0.492540(10) 0.527145(17)
Tb2B Tb 0.05521(4) -0.027657(10) 0.414304(18)
Tb2B_2 Tb 0.05521(4) -1.027657(10) 0.414304(18)
Tb2_2 Tb -0.05521(4) -0.972343(10) 0.585696(18)
O12B O -0.1043(5) 0.04011(15) 0.4489(3)
O11B O -0.1197(6) 0.02844(16) 0.3241(3)
O13_2 O 0.2039(6) 0.04136(17) 0.4682(3)
O14B O -0.1662(5) -0.06427(16) 0.4204(3)
loop_
_geom_bond_atom_site_label_1
_geom_bond_atom_site_label_2
_geom_bond_site_symmetry_1
_geom_bond_site_symmetry_2
Tb1 O1 1_555 1_555
O1 C1 1_555 1_555
O2 Tb1 1_555 1_555
O3 Tb1 1_555 1_555
O4 Tb1 1_555 1_555
O5 Tb1 1_555 1_555
O6 Tb1 1_555 1_555
O7 Tb1 1_555 1_555
C1 C4 1_555 1_555
C2 O2 1_555 1_555
C3 O3 1_555 1_555
H1 O4 1_555 1_555
H2 O4 1_555 1_555
C4 C7 1_555 1_555
C5 C2 1_555 1_555
C6 C3 1_555 1_555
C7 C13 1_555 1_555
C8 C4 1_555 1_555
C9 C5 1_555 1_555
C10 C5 1_555 1_555
C11 C6 1_555 1_555
C12 C6 1_555 1_555
C13 C19 1_555 1_555
H3 C7 1_555 1_555
H4 C8 1_555 1_555
C14 C8 1_555 1_555
C15 C9 1_555 1_555
H5 C9 1_555 1_555
H6 C10 1_555 1_555
C16 C10 1_555 1_555
C17 C11 1_555 1_555
H7 C11 1_555 1_555
H8 C12 1_555 1_555
C18 C12 1_555 1_555
C19 C14 1_555 1_555
H9 C13 1_555 1_555
H10 C14 1_555 1_555
C20 C15 1_555 1_555
H11 C15 1_555 1_555
H12 C16 1_555 1_555
C21 C17 1_555 1_555
H13 C17 1_555 1_555
H14 C18 1_555 1_555
O8 C19 1_555 1_555
O9 C20 1_555 1_555
O10 C21 1_555 1_555
C22 O8 1_555 1_555
C23 O9 1_555 1_555
C24 O10 1_555 1_555
C25 C22 1_555 1_555
C26 C22 1_555 1_555
C27 C23 1_555 1_555
C28 C23 1_555 1_555
C29 C24 1_555 1_555
C30 C24 1_555 1_555
H15 C25 1_555 1_555
C31 C25 1_555 1_555
C32 C26 1_555 1_555
H16 C26 1_555 1_555
H17 C27 1_555 1_555
C33 C27 1_555 1_555
C34 C28 1_555 1_555
H18 C28 1_555 1_555
H19 C29 1_555 1_555
C35 C29 1_555 1_555
C36 C30 1_555 1_555
H20 C30 1_555 1_555
H21 C31 1_555 1_555
C37 C31 1_555 1_555
H22 C32 1_555 1_555
H23 C33 1_555 1_555
C38 C33 1_555 1_555
H24 C34 1_555 1_555
H25 C35 1_555 1_555
C39 C35 1_555 1_555
H26 C36 1_555 1_555
C40 C37 1_555 1_555
C41 C38 1_555 1_555
C42 C39 1_555 1_555
O11 C40 1_555 1_555
O12 C40 1_555 1_555
O13 C41 1_555 1_555
O14 C41 1_555 1_555
O15 C42 1_555 1_555
O16 C42 1_555 1_555
Tb2 O11 1_555 1_555
O17 C43 1_555 1_555
O18 H27 1_555 1_555
C43 N1 1_555 1_555
H28 O18 1_555 1_555
N1 C44 1_555 1_555
H29 C43 1_555 1_555
C44 H30 1_555 1_555
C45 N1 1_555 1_555
H31 C44 1_555 1_555
H32 C44 1_555 1_555
H33 C45 1_555 1_555
H34 C45 1_555 1_555
H35 C45 1_555 1_555
O5B C1 1_555 1_555
O6B C2 1_555 1_555
O7B C3 1_555 1_555
Tb1B O5B 1_555 1_555
Tb1B_2 O6B 1_555 1_555
Tb2B O12 1_555 1_555
Tb2B_2 O13 1_555 1_555
Tb2_2 O14 1_555 1_555
O12B Tb2 1_555 1_555
O11B Tb2B 1_555 1_555
O13_2 Tb2B 1_555 1_555
O14B Tb2B 1_555 1_555
C16 C20 1_555 1_555
C18 C21 1_555 1_555
C32 C37 1_555 1_555
C34 C38 1_555 1_555
C36 C39 1_555 1_555
O12 Tb2 1_555 1_555
O15 Tb2B 1_555 1_555
O16 Tb2B 1_555 1_555
O17 Tb2B 1_555 1_555
O18 Tb2B 1_555 1_555
O7B Tb1B 1_555 1_555
Tb2B O12B 1_555 1_555

#END
