
#######################################################################
#
#                 Cambridge Crystallographic Data Centre
#                                CCDC 
#
#######################################################################
#
# If this CIF has been generated from an entry in the Cambridge 
# Structural Database, then it will include bibliographic, chemical, 
# crystal, experimental, refinement or atomic coordinate data resulting 
# from the CCDC's data processing and validation procedures.
#
#######################################################################

data_LOZTAX
_symmetry_cell_setting           triclinic
_symmetry_space_group_name_H-M   'P -1'
_symmetry_Int_Tables_number      2
_space_group_name_Hall           '-P 1'
loop_
_symmetry_equiv_pos_site_id
_symmetry_equiv_pos_as_xyz
1 x,y,z
2 -x,-y,-z
_cell_length_a                   9.4805(4)
_cell_length_b                   13.8989(7)
_cell_length_c                   16.6460(9)
_cell_angle_alpha                85.350(4)
_cell_angle_beta                 76.570(4)
_cell_angle_gamma                72.158(5)
_cell_volume                     2030.71
loop_
_atom_site_label
_atom_site_type_symbol
_atom_site_fract_x
_atom_site_fract_y
_atom_site_fract_z
Eu1 Eu 0.22137(2) 0.532932(13) 0.001684(11)
O1 O 0.2650(8) 1.1527(4) 0.4961(3)
H1 H 0.3229 1.1764 0.5120
O2 O 0.1555(5) 1.1259(3) 0.6254(2)
O3 O 0.1993(6) 0.7246(3) 0.4551(2)
O4 O 0.3559(3) 0.5610(2) 0.09359(18)
O5 O 0.5870(3) 0.5121(2) 0.11734(16)
O6 O 0.3978(3) -0.0350(2) 0.24790(17)
O7 O 0.8795(3) -0.41626(19) 0.05036(16)
O8 O 1.0268(3) -0.3444(2) 0.09149(18)
O9 O 0.3853(3) 0.36714(19) 0.03941(16)
O10 O 0.1571(3) 0.41642(19) 0.11997(16)
O11 O 0.3072(3) 0.6841(2) -0.04229(19)
H2 H 0.4010 0.6723 -0.0390
H3 H 0.2523 0.7349 -0.0104
O12 O 0.0926(4) 0.6289(3) -0.1011(2)
H4 H 0.1591 0.6409 -0.1445
C1 C 0.2645(7) 0.6875(4) 0.3751(3)
C2 C 0.3849(5) 0.6016(3) 0.2215(2)
C3 C 0.2834(4) 0.3489(3) 0.0974(2)
C4 C 0.1263(7) 0.9428(4) 0.5765(3)
H5 H 0.0710 0.9671 0.6285
C5 C 0.2101(6) 0.9984(4) 0.5265(3)
C6 C 0.2909(7) 0.9612(4) 0.4493(3)
H6 H 0.3475 0.9983 0.4145
C7 C 0.2891(7) 0.8707(4) 0.4233(3)
H7 H 0.3442 0.8464 0.3713
C8 C 0.2057(7) 0.8163(4) 0.4741(3)
C9 C 0.7632(4) -0.2688(3) 0.1339(2)
C10 C 0.2094(7) 1.0985(4) 0.5549(4)
C11 C 0.1758(7) 0.7024(4) 0.3201(4)
H8 H 0.0749 0.7417 0.3339
C12 C 0.2355(6) 0.6589(4) 0.2431(3)
H9 H 0.1737 0.6684 0.2054
C13 C 0.4462(5) 0.5543(3) 0.1377(2)
C14 C 0.4134(8) 0.6324(5) 0.3554(3)
H10 H 0.4740 0.6238 0.3936
C15 C 0.5210(5) -0.1146(3) 0.2099(2)
C16 C 0.4744(6) 0.5890(4) 0.2778(3)
H11 H 0.5762 0.5514 0.2640
C17 C 0.1226(8) 0.8525(4) 0.5517(3)
H12 H 0.0652 0.8157 0.5862
C18 C 0.3740(5) 0.0568(3) 0.2079(2)
C19 C 0.4724(5) 0.0766(3) 0.1376(3)
H13 H 0.5594 0.0261 0.1142
C20 C 0.4405(5) 0.1711(3) 0.1028(3)
H14 H 0.5068 0.1846 0.0557
C21 C 0.3112(4) 0.2472(3) 0.1366(2)
C22 C 0.2136(5) 0.2260(3) 0.2058(3)
H15 H 0.1258 0.2763 0.2285
C23 C 0.2442(5) 0.1312(3) 0.2420(3)
H16 H 0.1778 0.1176 0.2890
C24 C 0.5016(5) -0.1728(3) 0.1541(3)
H17 H 0.4071 -0.1600 0.1412
C25 C 0.6227(5) -0.2509(3) 0.1165(3)
H18 H 0.6091 -0.2917 0.0791
C26 C 0.7809(5) -0.2092(3) 0.1919(3)
H19 H 0.8754 -0.2210 0.2045
C27 C 0.8982(4) -0.3489(3) 0.0891(2)
C28 C 0.6581(5) -0.1325(3) 0.2307(3)
H20 H 0.6686 -0.0935 0.2706
H21 H 0.033(6) 0.621(4) -0.111(3)
Eu1_2 Eu 1.22137(2) -0.467068(13) 0.001684(11)
Eu1A Eu 0.77863(2) -0.532932(13) -0.001684(11)
Eu1A_2 Eu 0.77863(2) 0.467068(13) -0.001684(11)
O5A O 0.4130(3) 0.4879(2) -0.11734(16)
O7A O 0.1205(3) 0.41626(19) -0.05036(16)
O8_2 O 0.0268(3) 0.6556(2) 0.09149(18)
O13 O 0.2156(5) 0.8747(3) 0.0265(4)
C29 C 0.1148(8) 0.9150(6) 0.0812(5)
H22 H 0.0664 0.8737 0.1164
N1 N 0.0643(6) 1.0132(4) 0.0971(3)
C30 C -0.0626(11) 1.0540(8) 0.1642(6)
H23 H -0.1556 1.0665 0.1459
H24 H -0.0558 1.1161 0.1819
H25 H -0.0609 1.0064 0.2094
C31 C 0.1298(9) 1.0803(5) 0.0451(5)
H26 H 0.2183 1.0833 0.0623
H27 H 0.0576 1.1465 0.0484
H28 H 0.1582 1.0571 -0.0108
O14 O 0.2400(8) 0.3351(4) 0.5381(3)
N2 N 0.1266(7) 0.4603(4) 0.6291(3)
C32 C 0.0597(10) 0.4894(5) 0.7129(4)
H29 H 0.1165 0.5266 0.7312
H30 H 0.0609 0.4301 0.7469
H31 H -0.0432 0.5311 0.7170
C33 C 0.1266(16) 0.5399(6) 0.5697(6)
H32 H 0.0343 0.5942 0.5846
H33 H 0.1337 0.5153 0.5163
H34 H 0.2119 0.5640 0.5682
C34 C 0.1805(9) 0.3661(5) 0.6060(4)
H35 H 0.1713 0.3178 0.6473
O15 O 0.2249(6) 0.6866(5) 0.7471(3)
N3 N 0.4508(8) 0.6977(6) 0.6810(4)
C35 C 0.3493(11) 0.6865(6) 0.7444(5)
H36 H 0.3789 0.6771 0.7946
C36 C 0.6161(13) 0.6592(10) 0.6758(7)
H37 H 0.6347 0.6272 0.7272
H38 H 0.6590 0.7144 0.6648
H39 H 0.6620 0.6110 0.6321
C37 C 0.4461(14) 0.6703(10) 0.5986(7)
H40 H 0.5271 0.6856 0.5584
H41 H 0.3505 0.7081 0.5859
H42 H 0.4575 0.5994 0.5977
loop_
_geom_bond_atom_site_label_1
_geom_bond_atom_site_label_2
_geom_bond_site_symmetry_1
_geom_bond_site_symmetry_2
Eu1 O4 1_555 1_555
O1 H1 1_555 1_555
O2 C10 1_555 1_555
O3 C1 1_555 1_555
O4 C13 1_555 1_555
O5 C13 1_555 1_555
O6 C15 1_555 1_555
O7 C27 1_555 1_555
O8 C27 1_555 1_555
O9 Eu1 1_555 1_555
O10 Eu1 1_555 1_555
O11 Eu1 1_555 1_555
H2 O11 1_555 1_555
H3 O11 1_555 1_555
O12 Eu1 1_555 1_555
H4 O12 1_555 1_555
C1 C11 1_555 1_555
C2 C12 1_555 1_555
C3 O9 1_555 1_555
C4 H5 1_555 1_555
C5 C4 1_555 1_555
C6 C5 1_555 1_555
H6 C6 1_555 1_555
C7 C6 1_555 1_555
H7 C7 1_555 1_555
C8 O3 1_555 1_555
C9 C25 1_555 1_555
C10 O1 1_555 1_555
C11 H8 1_555 1_555
C12 C11 1_555 1_555
H9 C12 1_555 1_555
C13 C2 1_555 1_555
C14 C1 1_555 1_555
H10 C14 1_555 1_555
C15 C24 1_555 1_555
C16 C2 1_555 1_555
H11 C16 1_555 1_555
C17 C4 1_555 1_555
H12 C17 1_555 1_555
C18 O6 1_555 1_555
C19 C18 1_555 1_555
H13 C19 1_555 1_555
C20 C19 1_555 1_555
H14 C20 1_555 1_555
C21 C3 1_555 1_555
C22 C21 1_555 1_555
H15 C22 1_555 1_555
C23 C18 1_555 1_555
H16 C23 1_555 1_555
C24 H17 1_555 1_555
C25 C24 1_555 1_555
H18 C25 1_555 1_555
C26 C9 1_555 1_555
H19 C26 1_555 1_555
C27 C9 1_555 1_555
C28 C15 1_555 1_555
H20 C28 1_555 1_555
H21 O12 1_555 1_555
O13 C29 1_555 1_555
C29 H22 1_555 1_555
N1 C29 1_555 1_555
C30 N1 1_555 1_555
H23 C30 1_555 1_555
H24 C30 1_555 1_555
H25 C30 1_555 1_555
C31 N1 1_555 1_555
H26 C31 1_555 1_555
H27 C31 1_555 1_555
H28 C31 1_555 1_555
O14 C34 1_555 1_555
N2 C32 1_555 1_555
C32 H29 1_555 1_555
H30 C32 1_555 1_555
H31 C32 1_555 1_555
C33 N2 1_555 1_555
H32 C33 1_555 1_555
H33 C33 1_555 1_555
H34 C33 1_555 1_555
C34 N2 1_555 1_555
H35 C34 1_555 1_555
O15 C35 1_555 1_555
N3 C35 1_555 1_555
C35 H36 1_555 1_555
C36 N3 1_555 1_555
H37 C36 1_555 1_555
H38 C36 1_555 1_555
H39 C36 1_555 1_555
C37 N3 1_555 1_555
H40 C37 1_555 1_555
H41 C37 1_555 1_555
H42 C37 1_555 1_555
Eu1_2 O8 1_555 1_555
Eu1A O7 1_555 1_555
Eu1A_2 O5 1_555 1_555
O5A Eu1 1_555 1_555
O7A Eu1 1_555 1_555
O8_2 Eu1 1_555 1_555
O10 C3 1_555 1_555
C5 C10 1_555 1_555
C7 C8 1_555 1_555
C8 C17 1_555 1_555
C14 C16 1_555 1_555
C20 C21 1_555 1_555
C22 C23 1_555 1_555
C26 C28 1_555 1_555

#END
