
#######################################################################
#
#                 Cambridge Crystallographic Data Centre
#                                CCDC 
#
#######################################################################
#
# If this CIF has been generated from an entry in the Cambridge 
# Structural Database, then it will include bibliographic, chemical, 
# crystal, experimental, refinement or atomic coordinate data resulting 
# from the CCDC's data processing and validation procedures.
#
#######################################################################

data_LOZVON
_symmetry_cell_setting           monoclinic
_symmetry_space_group_name_H-M   'P 21/c'
_symmetry_Int_Tables_number      14
_space_group_name_Hall           '-P 2ybc'
loop_
_symmetry_equiv_pos_site_id
_symmetry_equiv_pos_as_xyz
1 x,y,z
2 -x,1/2+y,1/2-z
3 -x,-y,-z
4 x,1/2-y,1/2+z
_cell_length_a                   19.048(8)
_cell_length_b                   11.728(5)
_cell_length_c                   12.280(6)
_cell_angle_alpha                90
_cell_angle_beta                 104.772(8)
_cell_angle_gamma                90
_cell_volume                     2652.62
loop_
_atom_site_label
_atom_site_type_symbol
_atom_site_fract_x
_atom_site_fract_y
_atom_site_fract_z
Cu1 Cu 0.72421(4) 0.60755(5) 0.35563(5)
Cu2 Cu 0.71875(4) 0.83376(5) 0.20555(6)
O1 O 0.6624(2) 0.5649(3) 0.2042(3)
O2 O 0.6316(2) 0.9183(3) 0.1201(3)
H1 H 0.6117 0.8945 0.0540
H2 H 0.6175 0.9873 0.1137
O3 O 0.67763(19) 0.7154(3) 0.0994(3)
O4 O 0.5802(2) 0.8257(3) -0.0893(3)
O5 O 0.67241(18) 0.7473(3) -0.1449(3)
O6 O 0.79427(18) 0.7223(3) 0.2792(3)
O7 O 0.9020(2) 0.6449(3) 0.3582(3)
O8 O 0.8387(2) 0.7159(3) 0.0458(3)
O9 O 0.7771(2) 0.8821(3) 0.0156(3)
N1 N 0.7587(2) -0.0335(3) 0.2967(3)
N2 N 0.7775(2) -0.0407(4) 0.4107(4)
H3 H 0.7790 -0.1031 0.4481
N3 N 0.8384(2) 0.4384(4) 0.3686(4)
H4 H 0.8685 0.4934 0.3698
N4 N 0.7664(2) 0.4530(4) 0.3590(4)
C1 C 0.7525(3) 0.1178(5) 0.1532(5)
H5 H 0.7940 0.1604 0.1457
H6 H 0.7103 0.1659 0.1348
H7 H 0.7452 0.0537 0.1030
C2 C 0.7646(3) 0.0769(4) 0.2708(4)
C3 C 0.7854(3) 0.1411(4) 0.3703(4)
C4 C 0.7935(3) 0.0635(4) 0.4575(4)
C5 C 0.8148(3) 0.0781(5) 0.5820(5)
H8 H 0.7730 0.0993 0.6074
H9 H 0.8510 0.1368 0.6018
H10 H 0.8342 0.0078 0.6169
C6 C 0.9333(3) 0.2887(5) 0.3857(5)
H11 H 0.9476 0.3098 0.3189
H12 H 0.9359 0.2074 0.3944
H13 H 0.9654 0.3240 0.4500
C7 C 0.8573(3) 0.3278(4) 0.3761(4)
C8 C 0.7947(3) 0.2668(4) 0.3730(4)
C9 C 0.7394(3) 0.3476(4) 0.3618(4)
C10 C 0.6604(3) 0.3299(5) 0.3529(5)
H14 H 0.6380 0.4020 0.3595
H15 H 0.6548 0.2801 0.4122
H16 H 0.6378 0.2962 0.2813
C11 C 0.6545(3) 0.6164(5) 0.1127(5)
C12 C 0.6110(3) 0.5608(4) 0.0068(4)
C13 C 0.5881(3) 0.4464(5) 0.0104(5)
H17 H 0.6041 0.4040 0.0760
C14 C 0.5421(3) 0.3977(5) -0.0835(5)
H18 H 0.5268 0.3227 -0.0808
C15 C 0.5186(3) 0.4605(5) -0.1817(5)
H19 H 0.4863 0.4281 -0.2438
C16 C 0.5426(3) 0.5703(5) -0.1882(5)
H20 H 0.5274 0.6106 -0.2553
C17 C 0.5894(3) 0.6217(5) -0.0951(4)
C18 C 0.6156(3) 0.7412(5) -0.1075(4)
C19 C 0.8648(3) 0.7227(4) 0.3050(4)
C20 C 0.9010(3) 0.8268(4) 0.2737(4)
C21 C 0.9533(3) 0.8799(5) 0.3593(5)
H21 H 0.9657 0.8479 0.4310
C22 C 0.9871(3) 0.9797(5) 0.3388(5)
H22 H 1.0219 1.0147 0.3961
C23 C 0.9680(3) 1.0263(5) 0.2317(5)
H23 H 0.9902 1.0933 0.2171
C24 C 0.9167(3) 0.9747(5) 0.1467(5)
H24 H 0.9046 1.0076 0.0754
C25 C 0.8820(3) 0.8729(4) 0.1655(4)
C26 C 0.8294(3) 0.8167(4) 0.0688(4)
Cu1C Cu 0.72421(4) 0.89245(5) -0.14437(5)
Cu2_2 Cu 0.71875(4) -0.16624(5) 0.20555(6)
Cu2C Cu 0.71875(4) 0.66624(5) -0.29445(6)
O5C O 0.67241(18) 0.7527(3) 0.3551(3)
O9C O 0.7771(2) 0.6179(3) 0.5156(3)
N1_2 N 0.7587(2) 0.9665(3) 0.2967(3)
O10 O 0.4311(11) 0.8566(14) -0.1026(13)
O11? O 0.4474(16) 0.887(2) -0.0550(18)
loop_
_geom_bond_atom_site_label_1
_geom_bond_atom_site_label_2
_geom_bond_site_symmetry_1
_geom_bond_site_symmetry_2
Cu1 O1 1_555 1_555
Cu2 O2 1_555 1_555
O1 C11 1_555 1_555
O2 H1 1_555 1_555
H2 O2 1_555 1_555
O3 Cu2 1_555 1_555
O4 C18 1_555 1_555
O5 C18 1_555 1_555
O6 Cu1 1_555 1_555
O7 C19 1_555 1_555
O8 C26 1_555 1_555
O9 C26 1_555 1_555
N1 N2 1_555 1_555
N2 H3 1_555 1_555
N3 H4 1_555 1_555
N4 Cu1 1_555 1_555
C1 H5 1_555 1_555
H6 C1 1_555 1_555
H7 C1 1_555 1_555
C2 N1 1_555 1_555
C3 C2 1_555 1_555
C4 N2 1_555 1_555
C5 C4 1_555 1_555
H8 C5 1_555 1_555
H9 C5 1_555 1_555
H10 C5 1_555 1_555
C6 H11 1_555 1_555
H12 C6 1_555 1_555
H13 C6 1_555 1_555
C7 N3 1_555 1_555
C8 C3 1_555 1_555
C9 N4 1_555 1_555
C10 C9 1_555 1_555
H14 C10 1_555 1_555
H15 C10 1_555 1_555
H16 C10 1_555 1_555
C11 O3 1_555 1_555
C12 C11 1_555 1_555
C13 C12 1_555 1_555
H17 C13 1_555 1_555
C14 C13 1_555 1_555
H18 C14 1_555 1_555
C15 C14 1_555 1_555
H19 C15 1_555 1_555
C16 C15 1_555 1_555
H20 C16 1_555 1_555
C17 C12 1_555 1_555
C18 C17 1_555 1_555
C19 O6 1_555 1_555
C20 C19 1_555 1_555
C21 C20 1_555 1_555
H21 C21 1_555 1_555
C22 C21 1_555 1_555
H22 C22 1_555 1_555
C23 C22 1_555 1_555
H23 C23 1_555 1_555
C24 C23 1_555 1_555
H24 C24 1_555 1_555
C25 C20 1_555 1_555
C26 C25 1_555 1_555
Cu1C O5 1_555 1_555
Cu2_2 N1 1_555 1_555
Cu2C O5 1_555 1_555
O5C Cu1 1_555 1_555
O9C Cu1 1_555 1_555
N1_2 Cu2 1_555 1_555
Cu2 O6 1_555 1_555
Cu2 O5C 1_555 1_555
O9 Cu1C 1_555 1_555
N3 N4 1_555 1_555
C1 C2 1_555 1_555
C3 C4 1_555 1_555
C6 C7 1_555 1_555
C7 C8 1_555 1_555
C8 C9 1_555 1_555
C16 C17 1_555 1_555
C24 C25 1_555 1_555

#END
