
#######################################################################
#
#                 Cambridge Crystallographic Data Centre
#                                CCDC 
#
#######################################################################
#
# If this CIF has been generated from an entry in the Cambridge 
# Structural Database, then it will include bibliographic, chemical, 
# crystal, experimental, refinement or atomic coordinate data resulting 
# from the CCDC's data processing and validation procedures.
#
#######################################################################

data_LOZVAZ
_symmetry_cell_setting           monoclinic
_symmetry_space_group_name_H-M   'C 2/c'
_symmetry_Int_Tables_number      15
_space_group_name_Hall           '-C 2yn'
loop_
_symmetry_equiv_pos_site_id
_symmetry_equiv_pos_as_xyz
1 x,y,z
2 -x,y,1/2-z
3 1/2+x,1/2+y,z
4 1/2-x,1/2+y,1/2-z
5 -x,-y,-z
6 x,-y,1/2+z
7 1/2-x,1/2-y,-z
8 1/2+x,1/2-y,1/2+z
_cell_length_a                   22.744(6)
_cell_length_b                   12.830(4)
_cell_length_c                   8.896(3)
_cell_angle_alpha                90
_cell_angle_beta                 93.181(5)
_cell_angle_gamma                90
_cell_volume                     2591.9
loop_
_atom_site_label
_atom_site_type_symbol
_atom_site_fract_x
_atom_site_fract_y
_atom_site_fract_z
Cu1 Cu 0.29895(2) 0.72442(4) 0.43858(6)
O1 O 0.26955(13) 0.5783(2) 0.4441(4)
O2 O 0.25224(12) 0.2579(2) 0.7474(3)
O3 O 0.16944(12) 0.2113(2) 0.8516(3)
N1 N 0.37778(13) 0.6781(2) 0.3311(4)
N2 N 0.37534(14) 0.5876(2) 0.2544(4)
H1 H 0.3434 0.5528 0.2357
C1 C 0.46774(16) 0.6341(3) 0.2590(5)
C2 C 0.22049(18) 0.5574(3) 0.4965(5)
C3 C 0.42838(17) 0.5577(3) 0.2104(5)
C4 C 0.43374(16) 0.7076(3) 0.3333(4)
C5 C 0.45391(19) 0.8046(3) 0.4149(6)
H2 H 0.4464 0.8640 0.3512
H3 H 0.4954 0.7997 0.4409
H4 H 0.4329 0.8120 0.5049
C6 C 0.4363(2) 0.4593(4) 0.1241(6)
H5 H 0.4257 0.4008 0.1842
H6 H 0.4767 0.4529 0.0995
H7 H 0.4115 0.4609 0.0331
C7 C 0.19983(17) 0.4460(3) 0.4898(5)
H8 H 0.2324 0.4013 0.5229
H9 H 0.1891 0.4286 0.3857
C8 C 0.19898(17) 0.2311(3) 0.7393(5)
C9 C 0.16728(17) 0.2243(3) 0.5862(5)
H10 H 0.1474 0.1575 0.5766
H11 H 0.1959 0.2278 0.5094
C10 C 0.12214(17) 0.3116(3) 0.5594(5)
H12 H 0.0905 0.3015 0.6266
H13 H 0.1054 0.3064 0.4570
C11 C 0.14766(18) 0.4218(3) 0.5842(5)
H14 H 0.1168 0.4724 0.5607
H15 H 0.1599 0.4299 0.6897
O4 O 0.18716(12) 0.6246(2) 0.5515(3)
N1A N 0.62222(13) 0.6781(2) 0.1689(4)
N2A N 0.62466(14) 0.5876(2) 0.2456(4)
H1A H 0.6566 0.5528 0.2643
C1A C 0.53226(16) 0.6341(3) 0.2410(5)
C3A C 0.57162(17) 0.5577(3) 0.2896(5)
C4A C 0.56626(16) 0.7076(3) 0.1667(4)
C5A C 0.54609(19) 0.8046(3) 0.0851(6)
H2A H 0.5536 0.8640 0.1488
H3A H 0.5046 0.7997 0.0591
H4A H 0.5671 0.8120 -0.0049
C6A C 0.5637(2) 0.4593(4) 0.3759(6)
H5A H 0.5743 0.4008 0.3158
H6A H 0.5233 0.4529 0.4005
H7A H 0.5885 0.4609 0.4669
Cu1A Cu 0.70105(2) 0.72442(4) 0.06142(6)
O1A O 0.73045(13) 0.5783(2) 0.0559(4)
O2A O 0.74776(12) 0.2579(2) -0.2474(3)
O3A O 0.83056(12) 0.2113(2) -0.3516(3)
C2A C 0.77951(18) 0.5574(3) 0.0035(5)
C7A C 0.80017(17) 0.4460(3) 0.0102(5)
H8A H 0.7676 0.4013 -0.0229
H9A H 0.8109 0.4286 0.1143
C8A C 0.80102(17) 0.2311(3) -0.2393(5)
C9A C 0.83272(17) 0.2243(3) -0.0862(5)
H10A H 0.8526 0.1575 -0.0766
H11A H 0.8041 0.2278 -0.0094
C10A C 0.87786(17) 0.3116(3) -0.0594(5)
H12A H 0.9095 0.3015 -0.1266
H13A H 0.8946 0.3064 0.0430
C11A C 0.85234(18) 0.4218(3) -0.0842(5)
H14A H 0.8832 0.4724 -0.0607
H15A H 0.8401 0.4299 -0.1897
O4A O 0.81284(12) 0.6246(2) -0.0515(3)
Cu1B Cu 0.79895(2) 0.22442(4) -0.56142(6)
Cu1C Cu 0.20105(2) 0.22442(4) 1.06142(6)
Cu1D Cu 0.70105(2) 0.27558(4) -0.43858(6)
Cu1E Cu 0.29895(2) 0.27558(4) 0.93858(6)
Cu1F Cu 0.20105(2) 0.77558(4) 0.56142(6)
Cu1G Cu 0.79895(2) 0.77558(4) -0.06142(6)
O2D O 0.74776(12) 0.7421(2) 0.2526(3)
O2E O 0.25224(12) 0.7421(2) 0.2474(3)
O3B O 0.66944(12) 0.7113(2) -0.1484(3)
O3C O 0.33056(12) 0.7113(2) 0.6484(3)
O4F O 0.31284(12) 0.8754(2) 0.4485(3)
O4G O 0.68716(12) 0.8754(2) 0.0515(3)
loop_
_geom_bond_atom_site_label_1
_geom_bond_atom_site_label_2
_geom_bond_site_symmetry_1
_geom_bond_site_symmetry_2
Cu1 O1 1_555 1_555
O1 C2 1_555 1_555
O2 C8 1_555 1_555
O3 C8 1_555 1_555
N1 Cu1 1_555 1_555
N2 N1 1_555 1_555
H1 N2 1_555 1_555
C1 C3 1_555 1_555
C2 C7 1_555 1_555
C3 N2 1_555 1_555
C4 N1 1_555 1_555
C5 C4 1_555 1_555
H2 C5 1_555 1_555
H3 C5 1_555 1_555
H4 C5 1_555 1_555
C6 C3 1_555 1_555
H5 C6 1_555 1_555
H6 C6 1_555 1_555
H7 C6 1_555 1_555
C7 H8 1_555 1_555
H9 C7 1_555 1_555
C8 C9 1_555 1_555
C9 H10 1_555 1_555
H11 C9 1_555 1_555
C10 C9 1_555 1_555
H12 C10 1_555 1_555
H13 C10 1_555 1_555
C11 C7 1_555 1_555
H14 C11 1_555 1_555
H15 C11 1_555 1_555
O4 C2 1_555 1_555
N1A N2A 1_555 1_555
N2A H1A 1_555 1_555
C1A C1 1_555 1_555
C3A N2A 1_555 1_555
C4A N1A 1_555 1_555
C5A C4A 1_555 1_555
H2A C5A 1_555 1_555
H3A C5A 1_555 1_555
H4A C5A 1_555 1_555
C6A C3A 1_555 1_555
H5A C6A 1_555 1_555
H6A C6A 1_555 1_555
H7A C6A 1_555 1_555
Cu1A N1A 1_555 1_555
O1A Cu1A 1_555 1_555
O2A C8A 1_555 1_555
O3A C8A 1_555 1_555
C2A O1A 1_555 1_555
C7A C2A 1_555 1_555
H8A C7A 1_555 1_555
H9A C7A 1_555 1_555
C8A C9A 1_555 1_555
C9A H10A 1_555 1_555
H11A C9A 1_555 1_555
C10A C9A 1_555 1_555
H12A C10A 1_555 1_555
H13A C10A 1_555 1_555
C11A C7A 1_555 1_555
H14A C11A 1_555 1_555
H15A C11A 1_555 1_555
O4A C2A 1_555 1_555
Cu1B O3A 1_555 1_555
Cu1C O3 1_555 1_555
Cu1D O2A 1_555 1_555
Cu1E O2 1_555 1_555
Cu1F Cu1 1_555 1_555
Cu1G Cu1A 1_555 1_555
O2D Cu1A 1_555 1_555
O2E Cu1 1_555 1_555
O3B Cu1A 1_555 1_555
O3C Cu1 1_555 1_555
O4F Cu1 1_555 1_555
O4G Cu1A 1_555 1_555
C1 C4 1_555 1_555
C10 C11 1_555 1_555
O4 Cu1F 1_555 1_555
C1A C3A 1_555 1_555
C1A C4A 1_555 1_555
C10A C11A 1_555 1_555
O4A Cu1G 1_555 1_555
Cu1B Cu1D 1_555 1_555
Cu1C Cu1E 1_555 1_555

#END
