
#######################################################################
#
#                 Cambridge Crystallographic Data Centre
#                                CCDC 
#
#######################################################################
#
# If this CIF has been generated from an entry in the Cambridge 
# Structural Database, then it will include bibliographic, chemical, 
# crystal, experimental, refinement or atomic coordinate data resulting 
# from the CCDC's data processing and validation procedures.
#
#######################################################################

data_LOZVIH
_symmetry_cell_setting           orthorhombic
_symmetry_space_group_name_H-M   'P b c n'
_symmetry_Int_Tables_number      60
_space_group_name_Hall           '-P 2n 2ab'
loop_
_symmetry_equiv_pos_site_id
_symmetry_equiv_pos_as_xyz
1 x,y,z
2 1/2-x,1/2-y,1/2+z
3 -x,y,1/2-z
4 1/2+x,1/2-y,-z
5 -x,-y,-z
6 1/2+x,1/2+y,1/2-z
7 x,-y,1/2+z
8 1/2-x,1/2+y,z
_cell_length_a                   19.944(4)
_cell_length_b                   14.835(3)
_cell_length_c                   18.434(4)
_cell_angle_alpha                90
_cell_angle_beta                 90
_cell_angle_gamma                90
_cell_volume                     5454.05
loop_
_atom_site_label
_atom_site_type_symbol
_atom_site_fract_x
_atom_site_fract_y
_atom_site_fract_z
Cu1 Cu 0.23533(2) 0.93889(3) 0.25833(2)
O1 O 0.27950(14) 0.8329(2) 0.29829(15)
O2 O 0.37965(17) 0.8932(3) 0.28564(19)
O3 O 0.77320(14) 0.63471(19) 0.29506(15)
O4 O 0.68642(13) 0.54226(18) 0.28060(15)
N1 N 0.25597(17) 1.0068(2) 0.35133(17)
N2 N 0.29400(18) 1.0810(2) 0.34396(17)
H1 H 0.3032 1.1056 0.3029
N3 N 0.27498(16) 1.0805(2) 0.65611(17)
N4 N 0.34054(16) 1.0639(2) 0.64763(17)
H2 H 0.3687 1.0612 0.6829
N5 N 0.14363(16) 0.8616(2) 0.26370(17)
N6 N 0.14099(15) 0.7813(2) 0.22986(17)
H3 H 0.1758 0.7515 0.2163
C1 C 0.2184(3) 0.9103(4) 0.4517(3)
H4 H 0.2408 0.8890 0.4945
H5 H 0.2177 0.8632 0.4159
H6 H 0.1733 0.9271 0.4637
C2 C 0.2546(2) 0.9896(3) 0.4223(2)
C3 C 0.2906(2) 1.0556(3) 0.4599(2)
C4 C 0.3158(2) 1.1122(3) 0.4077(2)
C5 C 0.3584(3) 1.1929(3) 0.4126(3)
H7 H 0.4038 1.1771 0.4009
H8 H 0.3566 1.2165 0.4611
H9 H 0.3426 1.2376 0.3792
C6 C 0.1773(2) 1.0978(4) 0.5774(3)
H10 H 0.1509 1.0601 0.6086
H11 H 0.1663 1.0851 0.5277
H12 H 0.1680 1.1600 0.5877
C7 C 0.2492(2) 1.0795(3) 0.5898(2)
C8 C 0.2991(2) 1.0622(3) 0.5385(2)
C9 C 0.3571(2) 1.0520(3) 0.5776(2)
C10 C 0.4266(2) 1.0309(3) 0.5546(2)
H13 H 0.4449 1.0814 0.5287
H14 H 0.4262 0.9790 0.5235
H15 H 0.4536 1.0187 0.5965
C11 C 0.0632(2) 0.9674(3) 0.3172(3)
H16 H 0.0957 0.9767 0.3548
H17 H 0.0194 0.9613 0.3383
H18 H 0.0636 1.0179 0.2846
C12 C 0.0802(2) 0.8833(3) 0.2761(2)
C13 C 0.03684(19) 0.8173(2) 0.2492(2)
C14 C 0.07802(19) 0.7531(3) 0.2197(2)
C15 C 0.0636(2) 0.6673(3) 0.1805(3)
H19 H 0.0999 0.6539 0.1481
H20 H 0.0228 0.6737 0.1533
H21 H 0.0587 0.6192 0.2150
C16 C 0.3413(3) 0.8352(4) 0.3105(2)
C17 C 0.3699(3) 0.7637(4) 0.3596(3)
H22 H 0.3948 0.7203 0.3309
H23 H 0.3337 0.7320 0.3837
C18 C 0.4162(3) 0.8056(4) 0.4162(3)
H24 H 0.4515 0.8380 0.3913
H25 H 0.3907 0.8491 0.4441
C19 C 0.4477(3) 0.7395(4) 0.4677(3)
H26 H 0.4724 0.7730 0.5041
H27 H 0.4122 0.7069 0.4924
C20 C 0.4939(3) 0.6729(4) 0.4336(4)
H28 H 0.4698 0.6415 0.3956
H29 H 0.5064 0.6287 0.4699
C21 C 0.5570(3) 0.7123(4) 0.4016(3)
H30 H 0.5448 0.7569 0.3655
H31 H 0.5817 0.7431 0.4397
C22 C 0.6020(2) 0.6438(3) 0.3671(3)
H32 H 0.6081 0.5942 0.4009
H33 H 0.5798 0.6199 0.3245
C23 C 0.6692(2) 0.6776(3) 0.3454(2)
H34 H 0.6929 0.6958 0.3889
H35 H 0.6628 0.7312 0.3161
C24 C 0.7132(2) 0.6138(3) 0.3040(2)
N5B N -0.14363(16) 0.8616(2) 0.23630(17)
N6B N -0.14099(15) 0.7813(2) 0.27014(17)
H3B H -0.1758 0.7515 0.2837
C11B C -0.0632(2) 0.9674(3) 0.1828(3)
H16B H -0.0957 0.9767 0.1452
H17B H -0.0194 0.9613 0.1617
H18B H -0.0636 1.0179 0.2154
C12B C -0.0802(2) 0.8833(3) 0.2239(2)
C13B C -0.03684(19) 0.8173(2) 0.2508(2)
C14B C -0.07802(19) 0.7531(3) 0.2803(2)
C15B C -0.0636(2) 0.6673(3) 0.3195(3)
H19B H -0.0999 0.6539 0.3519
H20B H -0.0228 0.6737 0.3467
H21B H -0.0587 0.6192 0.2850
Cu1B Cu -0.23533(2) 0.93889(3) 0.24167(2)
O1B O -0.27950(14) 0.8329(2) 0.20171(15)
O2B O -0.37965(17) 0.8932(3) 0.21436(19)
O3B O -0.77320(14) 0.63471(19) 0.20494(15)
O4B O -0.68642(13) 0.54226(18) 0.21940(15)
N1B N -0.25597(17) 1.0068(2) 0.14867(17)
N2B N -0.29400(18) 1.0810(2) 0.15604(17)
H1B H -0.3032 1.1056 0.1971
N3B N -0.27498(16) 1.0805(2) -0.15611(17)
N4B N -0.34054(16) 1.0639(2) -0.14763(17)
H2B H -0.3687 1.0612 -0.1829
C1B C -0.2184(3) 0.9103(4) 0.0483(3)
H4B H -0.2408 0.8890 0.0055
H5B H -0.2177 0.8632 0.0841
H6B H -0.1733 0.9271 0.0363
C2B C -0.2546(2) 0.9896(3) 0.0777(2)
C3B C -0.2906(2) 1.0556(3) 0.0401(2)
C4B C -0.3158(2) 1.1122(3) 0.0923(2)
C5B C -0.3584(3) 1.1929(3) 0.0874(3)
H7B H -0.4038 1.1771 0.0991
H8B H -0.3566 1.2165 0.0389
H9B H -0.3426 1.2376 0.1208
C6B C -0.1773(2) 1.0978(4) -0.0774(3)
H10B H -0.1509 1.0601 -0.1086
H11B H -0.1663 1.0851 -0.0277
H12B H -0.1680 1.1600 -0.0877
C7B C -0.2492(2) 1.0795(3) -0.0898(2)
C8B C -0.2991(2) 1.0622(3) -0.0385(2)
C9B C -0.3571(2) 1.0520(3) -0.0776(2)
C10B C -0.4266(2) 1.0309(3) -0.0546(2)
H13B H -0.4449 1.0814 -0.0287
H14B H -0.4262 0.9790 -0.0235
H15B H -0.4536 1.0187 -0.0965
C16B C -0.3413(3) 0.8352(4) 0.1895(2)
C17B C -0.3699(3) 0.7637(4) 0.1404(3)
H22B H -0.3948 0.7203 0.1691
H23B H -0.3337 0.7320 0.1163
C18B C -0.4162(3) 0.8056(4) 0.0838(3)
H24B H -0.4515 0.8380 0.1087
H25B H -0.3907 0.8491 0.0559
C19B C -0.4477(3) 0.7395(4) 0.0323(3)
H26B H -0.4724 0.7730 -0.0041
H27B H -0.4122 0.7069 0.0076
C20B C -0.4939(3) 0.6729(4) 0.0664(4)
H28B H -0.4698 0.6415 0.1044
H29B H -0.5064 0.6287 0.0301
C21B C -0.5570(3) 0.7123(4) 0.0984(3)
H30B H -0.5448 0.7569 0.1345
H31B H -0.5817 0.7431 0.0603
C22B C -0.6020(2) 0.6438(3) 0.1329(3)
H32B H -0.6081 0.5942 0.0991
H33B H -0.5798 0.6199 0.1755
C23B C -0.6692(2) 0.6776(3) 0.1546(2)
H34B H -0.6929 0.6958 0.1111
H35B H -0.6628 0.7312 0.1839
C24B C -0.7132(2) 0.6138(3) 0.1960(2)
Cu1D Cu -0.23533(2) 1.06111(3) -0.25833(2)
Cu1E Cu 0.73533(2) 0.43889(3) 0.24167(2)
Cu1F Cu 0.23533(2) 1.06111(3) 0.75833(2)
Cu1G Cu -0.73533(2) 0.43889(3) 0.25833(2)
O4E O 0.18642(13) 1.04226(18) 0.21940(15)
O4G O -0.18642(13) 1.04226(18) 0.28060(15)
N3D N -0.27498(16) 0.9195(2) 0.34389(17)
N3F N 0.27498(16) 0.9195(2) 0.15611(17)
O5 O 0.5000 0.9644(5) 0.2500
H36 H 0.5255 0.9316 0.2242
H36B H 0.4745 0.9316 0.2758
H37? H 0.4619 0.9393 0.2541
loop_
_geom_bond_atom_site_label_1
_geom_bond_atom_site_label_2
_geom_bond_site_symmetry_1
_geom_bond_site_symmetry_2
Cu1 O1 1_555 1_555
O1 C16 1_555 1_555
O2 C16 1_555 1_555
O3 C24 1_555 1_555
O4 C24 1_555 1_555
N1 Cu1 1_555 1_555
N2 N1 1_555 1_555
H1 N2 1_555 1_555
N3 N4 1_555 1_555
N4 H2 1_555 1_555
N5 Cu1 1_555 1_555
N6 N5 1_555 1_555
H3 N6 1_555 1_555
C1 H4 1_555 1_555
H5 C1 1_555 1_555
H6 C1 1_555 1_555
C2 N1 1_555 1_555
C3 C2 1_555 1_555
C4 N2 1_555 1_555
C5 C4 1_555 1_555
H7 C5 1_555 1_555
H8 C5 1_555 1_555
H9 C5 1_555 1_555
C6 H10 1_555 1_555
H11 C6 1_555 1_555
H12 C6 1_555 1_555
C7 N3 1_555 1_555
C8 C3 1_555 1_555
C9 N4 1_555 1_555
C10 C9 1_555 1_555
H13 C10 1_555 1_555
H14 C10 1_555 1_555
H15 C10 1_555 1_555
C11 H16 1_555 1_555
H17 C11 1_555 1_555
H18 C11 1_555 1_555
C12 N5 1_555 1_555
C13 C12 1_555 1_555
C14 N6 1_555 1_555
C15 C14 1_555 1_555
H19 C15 1_555 1_555
H20 C15 1_555 1_555
H21 C15 1_555 1_555
C16 C17 1_555 1_555
C17 H22 1_555 1_555
H23 C17 1_555 1_555
C18 C17 1_555 1_555
H24 C18 1_555 1_555
H25 C18 1_555 1_555
C19 C18 1_555 1_555
H26 C19 1_555 1_555
H27 C19 1_555 1_555
C20 C19 1_555 1_555
H28 C20 1_555 1_555
H29 C20 1_555 1_555
C21 C20 1_555 1_555
H30 C21 1_555 1_555
H31 C21 1_555 1_555
C22 C21 1_555 1_555
H32 C22 1_555 1_555
H33 C22 1_555 1_555
C23 C22 1_555 1_555
H34 C23 1_555 1_555
H35 C23 1_555 1_555
C24 C23 1_555 1_555
O5 H36 1_555 1_555
N5B N6B 1_555 1_555
N6B H3B 1_555 1_555
C11B H16B 1_555 1_555
H17B C11B 1_555 1_555
H18B C11B 1_555 1_555
C12B N5B 1_555 1_555
C13B C13 1_555 1_555
C14B N6B 1_555 1_555
C15B C14B 1_555 1_555
H19B C15B 1_555 1_555
H20B C15B 1_555 1_555
H21B C15B 1_555 1_555
Cu1B N5B 1_555 1_555
O1B Cu1B 1_555 1_555
O2B C16B 1_555 1_555
O3B C24B 1_555 1_555
O4B C24B 1_555 1_555
N1B Cu1B 1_555 1_555
N2B N1B 1_555 1_555
H1B N2B 1_555 1_555
N3B N4B 1_555 1_555
N4B H2B 1_555 1_555
C1B H4B 1_555 1_555
H5B C1B 1_555 1_555
H6B C1B 1_555 1_555
C2B N1B 1_555 1_555
C3B C2B 1_555 1_555
C4B N2B 1_555 1_555
C5B C4B 1_555 1_555
H7B C5B 1_555 1_555
H8B C5B 1_555 1_555
H9B C5B 1_555 1_555
C6B H10B 1_555 1_555
H11B C6B 1_555 1_555
H12B C6B 1_555 1_555
C7B N3B 1_555 1_555
C8B C3B 1_555 1_555
C9B N4B 1_555 1_555
C10B C9B 1_555 1_555
H13B C10B 1_555 1_555
H14B C10B 1_555 1_555
H15B C10B 1_555 1_555
C16B O1B 1_555 1_555
C17B C16B 1_555 1_555
H22B C17B 1_555 1_555
H23B C17B 1_555 1_555
C18B C17B 1_555 1_555
H24B C18B 1_555 1_555
H25B C18B 1_555 1_555
C19B C18B 1_555 1_555
H26B C19B 1_555 1_555
H27B C19B 1_555 1_555
C20B C19B 1_555 1_555
H28B C20B 1_555 1_555
H29B C20B 1_555 1_555
C21B C20B 1_555 1_555
H30B C21B 1_555 1_555
H31B C21B 1_555 1_555
C22B C21B 1_555 1_555
H32B C22B 1_555 1_555
H33B C22B 1_555 1_555
C23B C22B 1_555 1_555
H34B C23B 1_555 1_555
H35B C23B 1_555 1_555
C24B C23B 1_555 1_555
Cu1D N3B 1_555 1_555
Cu1E O4 1_555 1_555
Cu1F N3 1_555 1_555
Cu1G O4B 1_555 1_555
O4E Cu1 1_555 1_555
O4G Cu1B 1_555 1_555
N3D Cu1B 1_555 1_555
N3F Cu1 1_555 1_555
H36B O5 1_555 1_555
C1 C2 1_555 1_555
C3 C4 1_555 1_555
C6 C7 1_555 1_555
C7 C8 1_555 1_555
C8 C9 1_555 1_555
C11 C12 1_555 1_555
C13 C14 1_555 1_555
C11B C12B 1_555 1_555
C12B C13B 1_555 1_555
C13B C14B 1_555 1_555
C1B C2B 1_555 1_555
C3B C4B 1_555 1_555
C6B C7B 1_555 1_555
C7B C8B 1_555 1_555
C8B C9B 1_555 1_555

#END
