
#######################################################################
#
#                 Cambridge Crystallographic Data Centre
#                                CCDC 
#
#######################################################################
#
# If this CIF has been generated from an entry in the Cambridge 
# Structural Database, then it will include bibliographic, chemical, 
# crystal, experimental, refinement or atomic coordinate data resulting 
# from the CCDC's data processing and validation procedures.
#
#######################################################################

data_LOZWEE
_symmetry_cell_setting           triclinic
_symmetry_space_group_name_H-M   'P -1'
_symmetry_Int_Tables_number      2
_space_group_name_Hall           '-P 1'
loop_
_symmetry_equiv_pos_site_id
_symmetry_equiv_pos_as_xyz
1 x,y,z
2 -x,-y,-z
_cell_length_a                   11.5804(16)
_cell_length_b                   11.6236(16)
_cell_length_c                   12.3308(18)
_cell_angle_alpha                113.262(2)
_cell_angle_beta                 114.306(2)
_cell_angle_gamma                96.107(2)
_cell_volume                     1316.06
loop_
_atom_site_label
_atom_site_type_symbol
_atom_site_fract_x
_atom_site_fract_y
_atom_site_fract_z
Cu1 Cu 0.97637(5) 0.86622(5) 0.89115(5)
Cu2 Cu 0.96869(5) 0.85564(6) 1.14319(5)
C1 C 0.8227(5) 0.7175(5) 0.5343(5)
H1 H 0.7871 0.6414 0.5379
H2 H 0.7968 0.6940 0.4418
H3 H 0.7882 0.7862 0.5695
C2 C 0.9704(4) 0.7651(4) 0.6173(4)
C3 C 1.0675(5) 0.7688(4) 0.5760(4)
C4 C 1.1908(5) 0.8194(4) 0.6935(5)
C5 C 1.3298(5) 0.8490(6) 0.7176(5)
H4 H 1.3580 0.7727 0.7095
H5 H 1.3883 0.9219 0.8074
H6 H 1.3330 0.8714 0.6517
C6 C 0.9201(6) 0.4841(5) 0.2943(6)
H7 H 0.8495 0.4786 0.3156
H8 H 0.9914 0.4635 0.3504
H9 H 0.8864 0.4223 0.2003
C7 C 0.9715(5) 0.6208(4) 0.3199(5)
C8 C 1.0403(5) 0.7393(4) 0.4374(4)
C9 C 1.0692(5) 0.8346(4) 0.4004(4)
C10 C 1.1442(5) 0.9788(5) 0.4874(5)
H10 H 1.2322 0.9948 0.4978
H11 H 1.1513 1.0083 0.5751
H12 H 1.0976 1.0262 0.4454
C11 C 1.2241(5) 0.9310(5) 1.1602(5)
C12 C 1.3706(5) 1.0053(7) 1.2436(6)
H13 H 1.3836 1.0964 1.2625
H14 H 1.4131 0.9675 1.1909
C13 C 1.4391(5) 1.0033(6) 1.3776(5)
C14 C 1.4597(5) 0.8898(6) 1.3806(6)
H15 H 1.4319 0.8136 1.2992
C15 C 1.5203(5) 0.8862(6) 1.5009(6)
H16 H 1.5340 0.8085 1.4999
C16 C 0.6840(5) 0.8250(5) 1.0495(6)
C17 C 0.5599(6) 0.7746(6) 1.0558(7)
H17 H 0.5729 0.8308 1.1453
H18 H 0.4830 0.7825 0.9900
C18 C 0.5880(7) 0.6016(7) 1.1271(7)
H19 H 0.6491 0.6683 1.2150
C19 C 0.5300(5) 0.6335(5) 1.0279(6)
C20 C 0.4423(7) 0.5313(7) 0.8999(7)
H20 H 0.4016 0.5497 0.8289
C21 C 0.8170(5) 0.6296(5) 0.8419(5)
C22 C 0.6910(5) 0.5089(5) 0.7499(5)
H21 H 0.7175 0.4301 0.7259
H22 H 0.6469 0.5062 0.8012
C23 C 0.5913(5) 0.5037(5) 0.6208(5)
C24 C 0.5081(6) 0.5780(6) 0.6199(6)
H23 H 0.5124 0.6334 0.7012
C25 C 0.4177(6) 0.5735(5) 0.5018(6)
H24 H 0.3611 0.6243 0.5052
N1 N 1.0329(4) 0.8101(3) 0.7525(4)
N2 N 1.1644(4) 0.8431(4) 0.7954(4)
H25 H 1.2253 0.8759 0.8791
N3 N 0.9579(4) 0.6469(4) 0.2188(4)
H26 H 0.9166 0.5880 0.1343
N4 N 1.0164(4) 0.7763(4) 0.2652(4)
O1 O 1.1575(3) 0.9495(4) 1.2224(3)
O2 O 1.1727(3) 0.8591(3) 1.0334(3)
O3 O 0.7935(4) 0.8286(4) 1.1354(4)
O4 O 0.6691(3) 0.8641(4) 0.9663(4)
O5 O 0.8931(4) 0.6506(3) 0.9585(4)
O6 O 0.8342(3) 0.7007(3) 0.7910(3)
O7 O 0.9239(3) 0.9414(3) 1.0299(3)
H27 H 0.8273 0.9267 0.9856
C11A C 1.7759(5) 1.0690(5) 1.8398(5)
C12A C 1.6294(5) 0.9947(7) 1.7564(6)
H13A H 1.6164 0.9036 1.7375
H14A H 1.5869 1.0325 1.8091
C13A C 1.5609(5) 0.9967(6) 1.6224(5)
C14A C 1.5403(5) 1.1102(6) 1.6194(6)
H15A H 1.5681 1.1864 1.7008
C15A C 1.4797(5) 1.1138(6) 1.4991(6)
H16A H 1.4660 1.1915 1.5001
O1A O 1.8425(3) 1.0505(4) 1.7776(3)
O2A O 1.8273(3) 1.1409(3) 1.9666(3)
C16A C 0.3160(5) 0.1750(5) 0.9505(6)
C17A C 0.4401(6) 0.2254(6) 0.9442(7)
H17A H 0.4271 0.1692 0.8547
H18A H 0.5170 0.2175 1.0100
C18A C 0.4120(7) 0.3984(7) 0.8729(7)
H19A H 0.3509 0.3317 0.7850
C19A C 0.4700(5) 0.3665(5) 0.9721(6)
C20A C 0.5577(7) 0.4687(7) 1.1001(7)
H20A H 0.5984 0.4503 1.1711
O3A O 0.2065(4) 0.1714(4) 0.8646(4)
O4A O 0.3309(3) 0.1359(4) 1.0337(4)
C21A C 0.1830(5) 0.3704(5) 0.1581(5)
C22A C 0.3090(5) 0.4911(5) 0.2501(5)
H21A H 0.2825 0.5699 0.2741
H22A H 0.3531 0.4938 0.1988
C23A C 0.4087(5) 0.4963(5) 0.3792(5)
C24A C 0.4919(6) 0.4220(6) 0.3801(6)
H23A H 0.4876 0.3666 0.2988
C25A C 0.5823(6) 0.4265(5) 0.4982(6)
H24A H 0.6389 0.3757 0.4948
O5A O 0.1069(4) 0.3494(3) 0.0415(4)
O6A O 0.1658(3) 0.2993(3) 0.2090(3)
Cu1A Cu 0.02363(5) 0.13378(5) 0.10885(5)
Cu2A Cu 0.03131(5) 0.14436(6) -0.14319(5)
C1A C 0.1773(5) 0.2825(5) 0.4657(5)
H1A H 0.2129 0.3586 0.4621
H2A H 0.2032 0.3060 0.5582
H3A H 0.2118 0.2138 0.4305
C2A C 0.0296(4) 0.2349(4) 0.3827(4)
C3A C -0.0675(5) 0.2312(4) 0.4240(4)
C4A C -0.1908(5) 0.1806(4) 0.3065(5)
C5A C -0.3298(5) 0.1510(6) 0.2824(5)
H4A H -0.3580 0.2273 0.2905
H5A H -0.3883 0.0781 0.1926
H6A H -0.3330 0.1286 0.3483
C6A C 0.0799(6) 0.5159(5) 0.7057(6)
H7A H 0.1505 0.5214 0.6844
H8A H 0.0086 0.5365 0.6496
H9A H 0.1136 0.5777 0.7997
C7A C 0.0285(5) 0.3792(4) 0.6801(5)
C8A C -0.0403(5) 0.2607(4) 0.5626(4)
C9A C -0.0692(5) 0.1654(4) 0.5996(4)
C10A C -0.1442(5) 0.0212(5) 0.5126(5)
H10A H -0.2322 0.0052 0.5022
H11A H -0.1513 -0.0083 0.4249
H12A H -0.0976 -0.0262 0.5546
N1A N -0.0329(4) 0.1899(3) 0.2475(4)
N2A N -0.1644(4) 0.1569(4) 0.2046(4)
H25A H -0.2253 0.1241 0.1209
N3A N 0.0421(4) 0.3531(4) 0.7812(4)
H26A H 0.0834 0.4120 0.8657
N4A N -0.0164(4) 0.2237(4) 0.7348(4)
O7A O 0.0761(3) 0.0586(3) -0.0299(3)
H27A H 0.1727 0.0733 0.0144
Cu1_2 Cu -0.02363(5) -0.13378(5) -0.10885(5)
Cu1A_2 Cu 1.02363(5) 1.13378(5) 1.10885(5)
Cu1A_3 Cu 2.02363(5) 1.13378(5) 2.10885(5)
Cu2_2 Cu 0.96869(5) 0.85564(6) 0.14319(5)
Cu2A_2 Cu 0.03131(5) 0.14436(6) 0.85681(5)
Cu2A_3 Cu 2.03131(5) 1.14436(6) 1.85681(5)
N4_2 N 1.0164(4) 0.7763(4) 1.2652(4)
N4A_2 N -0.0164(4) 0.2237(4) -0.2652(4)
O1A_2 O -0.1575(3) 0.0505(4) -0.2224(3)
O2A_2 O -0.1727(3) 0.1409(3) -0.0334(3)
O3A_2 O 0.2065(4) 0.1714(4) -0.1354(4)
O7_2 O -0.0761(3) -0.0586(3) 0.0299(3)
O7A_2 O 1.0761(3) 1.0586(3) 0.9701(3)
O8 O 0.8388(7) 0.4008(6) -0.0320(6)
H28 H 0.8284 0.3373 -0.0154
H29 H 0.8894 0.3937 -0.0667
loop_
_geom_bond_atom_site_label_1
_geom_bond_atom_site_label_2
_geom_bond_site_symmetry_1
_geom_bond_site_symmetry_2
Cu1 N1 1_555 1_555
Cu2 O1 1_555 1_555
C1 H1 1_555 1_555
H2 C1 1_555 1_555
H3 C1 1_555 1_555
C2 C1 1_555 1_555
C3 C2 1_555 1_555
C4 C3 1_555 1_555
C5 C4 1_555 1_555
H4 C5 1_555 1_555
H5 C5 1_555 1_555
H6 C5 1_555 1_555
C6 H7 1_555 1_555
H8 C6 1_555 1_555
H9 C6 1_555 1_555
C7 C6 1_555 1_555
C8 C3 1_555 1_555
C9 C8 1_555 1_555
C10 C9 1_555 1_555
H10 C10 1_555 1_555
H11 C10 1_555 1_555
H12 C10 1_555 1_555
C11 C12 1_555 1_555
C12 H13 1_555 1_555
H14 C12 1_555 1_555
C13 C12 1_555 1_555
C14 C13 1_555 1_555
H15 C14 1_555 1_555
C15 C14 1_555 1_555
H16 C15 1_555 1_555
C16 C17 1_555 1_555
C17 H17 1_555 1_555
H18 C17 1_555 1_555
C18 H19 1_555 1_555
C19 C17 1_555 1_555
C20 C19 1_555 1_555
H20 C20 1_555 1_555
C21 C22 1_555 1_555
C22 H21 1_555 1_555
H22 C22 1_555 1_555
C23 C22 1_555 1_555
C24 C23 1_555 1_555
H23 C24 1_555 1_555
C25 C24 1_555 1_555
H24 C25 1_555 1_555
N1 C2 1_555 1_555
N2 C4 1_555 1_555
H25 N2 1_555 1_555
N3 C7 1_555 1_555
H26 N3 1_555 1_555
N4 C9 1_555 1_555
O1 C11 1_555 1_555
O2 Cu1 1_555 1_555
O3 Cu2 1_555 1_555
O4 C16 1_555 1_555
O5 Cu2 1_555 1_555
O6 Cu1 1_555 1_555
O7 Cu1 1_555 1_555
H27 O7 1_555 1_555
O8 H28 1_555 1_555
H29 O8 1_555 1_555
C11A C12A 1_555 1_555
C12A H13A 1_555 1_555
H14A C12A 1_555 1_555
C13A C15 1_555 1_555
C14A C13A 1_555 1_555
H15A C14A 1_555 1_555
C15A C13 1_555 1_555
H16A C15A 1_555 1_555
O1A C11A 1_555 1_555
O2A C11A 1_555 1_555
C16A C17A 1_555 1_555
C17A H17A 1_555 1_555
H18A C17A 1_555 1_555
C18A C20 1_555 1_555
H19A C18A 1_555 1_555
C19A C17A 1_555 1_555
C20A C18 1_555 1_555
H20A C20A 1_555 1_555
O3A C16A 1_555 1_555
O4A C16A 1_555 1_555
C21A C22A 1_555 1_555
C22A H21A 1_555 1_555
H22A C22A 1_555 1_555
C23A C25 1_555 1_555
C24A C23A 1_555 1_555
H23A C24A 1_555 1_555
C25A C23 1_555 1_555
H24A C25A 1_555 1_555
O5A C21A 1_555 1_555
O6A C21A 1_555 1_555
Cu1A O6A 1_555 1_555
Cu2A O5A 1_555 1_555
C1A H1A 1_555 1_555
H2A C1A 1_555 1_555
H3A C1A 1_555 1_555
C2A C1A 1_555 1_555
C3A C2A 1_555 1_555
C4A C3A 1_555 1_555
C5A C4A 1_555 1_555
H4A C5A 1_555 1_555
H5A C5A 1_555 1_555
H6A C5A 1_555 1_555
C6A H7A 1_555 1_555
H8A C6A 1_555 1_555
H9A C6A 1_555 1_555
C7A C6A 1_555 1_555
C8A C3A 1_555 1_555
C9A C8A 1_555 1_555
C10A C9A 1_555 1_555
H10A C10A 1_555 1_555
H11A C10A 1_555 1_555
H12A C10A 1_555 1_555
N1A Cu1A 1_555 1_555
N2A C4A 1_555 1_555
H25A N2A 1_555 1_555
N3A C7A 1_555 1_555
H26A N3A 1_555 1_555
N4A C9A 1_555 1_555
O7A Cu1A 1_555 1_555
H27A O7A 1_555 1_555
Cu1_2 O7A 1_555 1_555
Cu1A_2 O7 1_555 1_555
Cu1A_3 O2A 1_555 1_555
Cu2_2 N4 1_555 1_555
Cu2A_2 O3A 1_555 1_555
Cu2A_3 O1A 1_555 1_555
N4_2 Cu2 1_555 1_555
N4A_2 Cu2A 1_555 1_555
O1A_2 Cu2A 1_555 1_555
O2A_2 Cu1A 1_555 1_555
O3A_2 Cu2A 1_555 1_555
O7_2 Cu1A 1_555 1_555
O7A_2 Cu1 1_555 1_555
Cu2 O7 1_555 1_555
C7 C8 1_555 1_555
C11 O2 1_555 1_555
C16 O3 1_555 1_555
C18 C19 1_555 1_555
C21 O5 1_555 1_555
C21 O6 1_555 1_555
N1 N2 1_555 1_555
N3 N4 1_555 1_555
C12A C13A 1_555 1_555
C14A C15A 1_555 1_555
C18A C19A 1_555 1_555
C19A C20A 1_555 1_555
C22A C23A 1_555 1_555
C24A C25A 1_555 1_555
Cu2A O7A 1_555 1_555
C2A N1A 1_555 1_555
C7A C8A 1_555 1_555
N1A N2A 1_555 1_555
N3A N4A 1_555 1_555
N4A Cu2A_2 1_555 1_555
Cu1_2 O7_2 1_555 1_555
Cu1A_2 O7A_2 1_555 1_555

#END
