
#######################################################################
#
#                 Cambridge Crystallographic Data Centre
#                                CCDC 
#
#######################################################################
#
# If this CIF has been generated from an entry in the Cambridge 
# Structural Database, then it will include bibliographic, chemical, 
# crystal, experimental, refinement or atomic coordinate data resulting 
# from the CCDC's data processing and validation procedures.
#
#######################################################################

data_LOZWAA
_symmetry_cell_setting           triclinic
_symmetry_space_group_name_H-M   'P -1'
_symmetry_Int_Tables_number      2
_space_group_name_Hall           '-P 1'
loop_
_symmetry_equiv_pos_site_id
_symmetry_equiv_pos_as_xyz
1 x,y,z
2 -x,-y,-z
_cell_length_a                   11.141(2)
_cell_length_b                   11.587(2)
_cell_length_c                   12.965(3)
_cell_angle_alpha                108.642(3)
_cell_angle_beta                 100.671(4)
_cell_angle_gamma                91.455(4)
_cell_volume                     1551.98
loop_
_atom_site_label
_atom_site_type_symbol
_atom_site_fract_x
_atom_site_fract_y
_atom_site_fract_z
Cu1 Cu 0.96048(9) 0.97089(8) 1.39030(8)
Cu2 Cu 0.55076(9) 0.58439(9) 0.59648(8)
O1 O 0.1979(5) 1.0324(6) 0.5620(5)
O2 O 0.1329(5) 0.9841(6) 0.3789(5)
O3 O 0.4418(6) 0.6963(6) 0.5482(5)
O4 O 0.3530(6) 0.5513(6) 0.3897(6)
O5 O 0.6665(6) 0.6302(6) 0.5127(5)
O6 O 0.5818(6) 0.4844(6) 0.3530(5)
O7 O 1.0342(7) 0.8479(5) 0.5736(5)
O8 O 0.9779(5) 0.8049(5) 0.3930(4)
N1 N 0.7361(8) 0.7911(8) 0.7429(6)
H1 H 0.7505 0.7935 0.6807
N2 N 0.6552(6) 0.7104(6) 0.7516(5)
N3 N 0.8007(7) 1.0290(7) 1.2066(6)
H2 H 0.7938 1.0943 1.2595
N4 N 0.8660(7) 0.9382(6) 1.2222(5)
C1 C 0.6680(13) 1.0931(12) 1.0609(11)
H3 H 0.5879 1.0847 1.0765
H4 H 0.6613 1.0742 0.9822
H5 H 0.7037 1.1757 1.0987
C2 C 0.7476(10) 1.0071(9) 1.1003(8)
C3 C 0.7780(9) 0.8953(8) 1.0418(7)
C4 C 0.8536(9) 0.8563(8) 1.1235(7)
C5 C 0.9152(11) 0.7417(9) 1.1100(8)
H6 H 1.0007 0.7581 1.1121
H7 H 0.8783 0.6817 1.0399
H8 H 0.9065 0.7112 1.1691
C6 C 0.5787(12) 0.6656(10) 0.9002(8)
H9 H 0.5094 0.7103 0.9168
H10 H 0.6233 0.6540 0.9664
H11 H 0.5508 0.5875 0.8446
C7 C 0.6593(9) 0.7348(8) 0.8583(7)
C8 C 0.7495(9) 0.8341(9) 0.9235(7)
C9 C 0.7921(11) 0.8676(11) 0.8412(8)
C10 C 0.8909(14) 0.9668(16) 0.8572(11)
H12 H 0.9699 0.9365 0.8690
H13 H 0.8854 1.0360 0.9205
H14 H 0.8803 0.9911 0.7921
C11 C 0.2127(8) 1.0099(7) 0.4639(7)
C12 C 0.3456(9) 1.0169(9) 0.4518(8)
H15 H 0.3655 1.0958 0.4451
H16 H 0.3971 1.0139 0.5198
C13 C 0.3788(8) 0.9200(9) 0.3563(8)
C14 C 0.4380(11) 0.9545(12) 0.2829(10)
H17 H 0.4527 1.0371 0.2930
C15 C 0.4752(11) 0.8690(13) 0.1960(9)
H18 H 0.5178 0.8938 0.1504
C16 C 0.4490(13) 0.7487(14) 0.1779(10)
H19 H 0.4699 0.6907 0.1171
C17 C 0.3911(13) 0.7110(11) 0.2495(9)
H20 H 0.3767 0.6280 0.2380
C18 C 0.3550(10) 0.7959(10) 0.3375(9)
C19 C 0.2952(10) 0.7501(10) 0.4163(9)
H21 H 0.2872 0.8192 0.4802
H22 H 0.2136 0.7119 0.3783
C20 C 0.3697(8) 0.6589(8) 0.4558(8)
C21 C 0.6523(8) 0.5773(8) 0.4082(8)
C22 C 0.7293(9) 0.6332(9) 0.3464(9)
H23 H 0.6744 0.6543 0.2891
H24 H 0.7743 0.7083 0.3984
C23 C 0.8186(9) 0.5510(8) 0.2935(7)
C24 C 0.7850(13) 0.4734(11) 0.1865(10)
H25 H 0.7051 0.4700 0.1480
C25 C 0.8680(16) 0.3983(12) 0.1327(11)
H26 H 0.8435 0.3452 0.0602
C26 C 0.9848(14) 0.4058(12) 0.1901(11)
H27 H 1.0415 0.3588 0.1553
C27 C 1.0200(10) 0.4804(9) 0.2966(9)
H28 H 1.1000 0.4817 0.3341
C28 C 0.9401(8) 0.5553(8) 0.3515(7)
C29 C 0.9853(9) 0.6400(8) 0.4660(7)
H29 H 1.0627 0.6145 0.4956
H30 H 0.9277 0.6307 0.5110
C30 C 1.0048(8) 0.7760(7) 0.4808(8)
Cu1_2 Cu -0.03952(9) 0.97089(8) 0.39030(8)
Cu1_3 Cu 0.96048(9) 0.97089(8) 0.39030(8)
Cu1A Cu 0.03952(9) 1.02911(8) 0.60970(8)
Cu1A_2 Cu 1.03952(9) 1.02911(8) 0.60970(8)
Cu2A Cu 0.44924(9) 0.41561(9) 0.40352(8)
O1A O 0.8021(5) 0.9676(6) 1.4380(5)
O2_2 O 1.1329(5) 0.9841(6) 1.3789(5)
O4A O 0.6470(6) 0.4487(6) 0.6103(6)
O6A O 0.4182(6) 0.5156(6) 0.6470(5)
O7A O 0.9658(7) 1.1521(5) 1.4264(5)
O8_2 O 0.9779(5) 0.8049(5) 1.3930(4)
O9 O 0.7411(18) 1.2705(15) 1.3207(15)
H31 H 0.7750 1.2891 1.2738
H32 H 0.6651 1.2794 1.3059
loop_
_geom_bond_atom_site_label_1
_geom_bond_atom_site_label_2
_geom_bond_site_symmetry_1
_geom_bond_site_symmetry_2
Cu1 N4 1_555 1_555
Cu2 O3 1_555 1_555
O1 C11 1_555 1_555
O2 C11 1_555 1_555
O3 C20 1_555 1_555
O4 C20 1_555 1_555
O5 Cu2 1_555 1_555
O6 C21 1_555 1_555
O7 C30 1_555 1_555
O8 C30 1_555 1_555
N1 H1 1_555 1_555
N2 Cu2 1_555 1_555
N3 H2 1_555 1_555
N4 N3 1_555 1_555
C1 H3 1_555 1_555
H4 C1 1_555 1_555
H5 C1 1_555 1_555
C2 N3 1_555 1_555
C3 C2 1_555 1_555
C4 N4 1_555 1_555
C5 C4 1_555 1_555
H6 C5 1_555 1_555
H7 C5 1_555 1_555
H8 C5 1_555 1_555
C6 H9 1_555 1_555
H10 C6 1_555 1_555
H11 C6 1_555 1_555
C7 N2 1_555 1_555
C8 C3 1_555 1_555
C9 N1 1_555 1_555
C10 C9 1_555 1_555
H12 C10 1_555 1_555
H13 C10 1_555 1_555
H14 C10 1_555 1_555
C11 C12 1_555 1_555
C12 H15 1_555 1_555
H16 C12 1_555 1_555
C13 C12 1_555 1_555
C14 C13 1_555 1_555
H17 C14 1_555 1_555
C15 C14 1_555 1_555
H18 C15 1_555 1_555
C16 C15 1_555 1_555
H19 C16 1_555 1_555
C17 C16 1_555 1_555
H20 C17 1_555 1_555
C18 C13 1_555 1_555
C19 C18 1_555 1_555
H21 C19 1_555 1_555
H22 C19 1_555 1_555
C20 C19 1_555 1_555
C21 O5 1_555 1_555
C22 C21 1_555 1_555
H23 C22 1_555 1_555
H24 C22 1_555 1_555
C23 C22 1_555 1_555
C24 C23 1_555 1_555
H25 C24 1_555 1_555
C25 C24 1_555 1_555
H26 C25 1_555 1_555
C26 C25 1_555 1_555
H27 C26 1_555 1_555
C27 C26 1_555 1_555
H28 C27 1_555 1_555
C28 C23 1_555 1_555
C29 C28 1_555 1_555
H29 C29 1_555 1_555
H30 C29 1_555 1_555
C30 C29 1_555 1_555
O9 H31 1_555 1_555
H32 O9 1_555 1_555
Cu1_2 O2 1_555 1_555
Cu1_3 O8 1_555 1_555
Cu1A O1 1_555 1_555
Cu1A_2 O7 1_555 1_555
Cu2A O4 1_555 1_555
O1A Cu1 1_555 1_555
O2_2 Cu1 1_555 1_555
O4A Cu2 1_555 1_555
O6A Cu2 1_555 1_555
O7A Cu1 1_555 1_555
O8_2 Cu1 1_555 1_555
O6 Cu2A 1_555 1_555
N1 N2 1_555 1_555
C1 C2 1_555 1_555
C3 C4 1_555 1_555
C6 C7 1_555 1_555
C7 C8 1_555 1_555
C8 C9 1_555 1_555
C17 C18 1_555 1_555
C27 C28 1_555 1_555

#END
