
#######################################################################
#
#                 Cambridge Crystallographic Data Centre
#                                CCDC 
#
#######################################################################
#
# If this CIF has been generated from an entry in the Cambridge 
# Structural Database, then it will include bibliographic, chemical, 
# crystal, experimental, refinement or atomic coordinate data resulting 
# from the CCDC's data processing and validation procedures.
#
#######################################################################

data_LOZWOO
_symmetry_cell_setting           triclinic
_symmetry_space_group_name_H-M   'P -1'
_symmetry_Int_Tables_number      2
_space_group_name_Hall           '-P 1'
loop_
_symmetry_equiv_pos_site_id
_symmetry_equiv_pos_as_xyz
1 x,y,z
2 -x,-y,-z
_cell_length_a                   8.4765(4)
_cell_length_b                   14.1422(10)
_cell_length_c                   17.0364(10)
_cell_angle_alpha                109.004(3)
_cell_angle_beta                 104.374(2)
_cell_angle_gamma                100.278(2)
_cell_volume                     1794
loop_
_atom_site_label
_atom_site_type_symbol
_atom_site_fract_x
_atom_site_fract_y
_atom_site_fract_z
Cd1 Cd 0.14638(7) 0.84876(5) 0.27192(4)
Cd2 Cd 0.59668(7) 0.89241(5) 0.26695(4)
O1 O 0.1936(8) 0.7078(5) 0.3243(4)
O2 O -0.0649(10) 0.7200(6) 0.2799(5)
O3 O 0.0483(11) 0.7726(6) 0.4815(5)
O4 O -0.1262(11) 0.6890(6) 0.5308(5)
H1 H -0.1054 0.7477 0.5680
O5 O -0.3197(8) 0.2134(5) -0.1923(4)
O6 O -0.0533(8) 0.2946(6) -0.1251(4)
O7 O -0.7266(8) 0.3487(6) -0.0674(5)
H2 H -0.8238 0.3491 -0.0688
O8 O -0.6771(9) 0.4141(6) 0.0783(5)
O9 O -0.0213(8) 0.4822(5) 0.1889(4)
O10 O 0.7393(8) 0.9826(5) -0.2841(4)
O11 O 0.4738(9) 0.9565(5) -0.2809(4)
O12 O 0.4916(10) 0.8522(5) -0.4722(4)
O13 O 0.3931(10) 0.6808(6) -0.5464(4)
H3 H 0.3589 0.6975 -0.5879
O14 O 0.6449(8) 0.8928(5) 0.1434(4)
O15 O 0.9013(8) 0.8932(5) 0.2147(4)
O16 O 1.3424(9) 0.9145(6) 0.0803(4)
H4 H 1.4393 0.9161 0.0797
O17 O 1.2890(10) 0.8593(8) -0.0626(5)
O18 O 0.6564(9) 0.8542(5) -0.1593(4)
O19 O 0.4612(9) 0.9189(5) 0.3832(4)
H5 H 0.4865 0.9826 0.4174
H6 H 0.4818 0.8818 0.4128
O20 O 0.1300(11) 0.9288(6) 0.4160(5)
H7 H 0.1139 0.8825 0.4372
H8 H 0.0451 0.9533 0.4120
O21 O 0.6426(9) 0.7566(6) 0.2965(6)
H9 H 0.7263 0.7403 0.2823
H10 H 0.5552 0.7041 0.2699
O22 O 0.8362(10) 0.9990(6) 0.3879(5)
H11 H 0.8127 1.0191 0.4353
H12 H 0.8862 1.0515 0.3805
C1 C 0.0366(12) 0.6782(7) 0.3122(6)
C2 C -0.0461(14) 0.6931(8) 0.4748(7)
C3 C -0.0636(12) 0.4866(8) 0.2650(6)
C4 C -0.0350(11) 0.5832(7) 0.3276(6)
C5 C -0.0772(12) 0.5886(8) 0.4042(6)
C6 C -0.1495(14) 0.4972(8) 0.4116(7)
H13 H -0.1845 0.5009 0.4598
C7 C -0.1702(15) 0.4016(9) 0.3492(7)
H14 H -0.2104 0.3411 0.3574
C8 C -0.1306(14) 0.3955(8) 0.2729(7)
H15 H -0.1492 0.3312 0.2286
C9 C -0.2027(10) 0.2803(7) -0.1253(5)
C10 C -0.6259(13) 0.3876(7) 0.0149(6)
C11 C -0.1549(12) 0.4348(7) 0.1104(6)
C12 C -0.1149(13) 0.3877(7) 0.0363(6)
H16 H -0.0031 0.3880 0.0410
C13 C -0.2432(12) 0.3390(7) -0.0467(6)
C14 C -0.4093(11) 0.3413(7) -0.0516(6)
H17 H -0.4951 0.3103 -0.1059
C15 C -0.4473(11) 0.3886(7) 0.0225(6)
C16 C -0.3195(13) 0.4346(7) 0.1051(6)
H18 H -0.3459 0.4647 0.1557
C17 C 0.5987(10) 0.9262(7) -0.2913(5)
C18 C 0.4747(12) 0.7654(7) -0.4746(6)
C19 C 0.6319(11) 0.7808(7) -0.2416(6)
C20 C 0.5887(10) 0.8128(7) -0.3112(5)
C21 C 0.5396(11) 0.7371(7) -0.3970(6)
C22 C 0.5497(15) 0.6369(8) -0.4096(7)
H19 H 0.5187 0.5877 -0.4666
C23 C 0.6042(15) 0.6083(9) -0.3403(7)
H20 H 0.6152 0.5415 -0.3501
C24 C 0.6428(13) 0.6806(8) -0.2547(6)
H21 H 0.6755 0.6616 -0.2070
C25 C 0.7955(11) 0.8911(6) 0.1475(5)
C26 C 1.2399(13) 0.8827(8) 0.0000(6)
C27 C 0.7758(12) 0.8588(7) -0.0858(6)
C28 C 0.7257(13) 0.8674(7) -0.0124(6)
H22 H 0.6135 0.8631 -0.0154
C29 C 0.8480(12) 0.8825(6) 0.0654(6)
C30 C 1.0135(11) 0.8937(7) 0.0712(5)
H23 H 1.0954 0.9119 0.1254
C31 C 1.0624(12) 0.8779(7) -0.0053(6)
C32 C 0.9404(12) 0.8617(7) -0.0834(6)
H24 H 0.9696 0.8529 -0.1340
Cd1_2 Cd 1.14638(7) 0.84876(5) 0.27192(4)
Cd1A Cd -0.14638(7) 0.15124(5) -0.27192(4)
Cd1A_2 Cd 0.85362(7) 1.15124(5) -0.27192(4)
Cd2A Cd -0.59668(7) 0.10759(5) -0.26695(4)
Cd2A_2 Cd 0.40332(7) 1.10759(5) -0.26695(4)
O5A O 0.3197(8) 0.7866(5) 0.1923(4)
O6A O 0.0533(8) 0.7054(6) 0.1251(4)
O10A O 0.2607(8) 1.0174(5) 0.2841(4)
O11A O 0.5262(9) 1.0435(5) 0.2809(4)
O15_2 O -0.0987(8) 0.8932(5) 0.2147(4)
O23 O 0.9612(10) 0.8693(6) 0.6601(5)
H25 H 0.9030 0.9056 0.6836
H26 H 1.0442 0.8700 0.7006
O24 O 0.2309(10) 0.8548(6) 0.7691(5)
H27 H 0.3138 0.8888 0.7604
H28 H 0.2612 0.8611 0.8224
O25 O 0.6108(11) 0.4195(6) 0.7602(6)
H29 H 0.6868 0.3918 0.7472
H30 H 0.6546 0.4679 0.8111
loop_
_geom_bond_atom_site_label_1
_geom_bond_atom_site_label_2
_geom_bond_site_symmetry_1
_geom_bond_site_symmetry_2
Cd1 O1 1_555 1_555
Cd2 O14 1_555 1_555
O1 C1 1_555 1_555
O2 Cd1 1_555 1_555
O3 C2 1_555 1_555
O4 H1 1_555 1_555
O5 C9 1_555 1_555
O6 C9 1_555 1_555
O7 H2 1_555 1_555
O8 C10 1_555 1_555
O9 C3 1_555 1_555
O10 C17 1_555 1_555
O11 C17 1_555 1_555
O12 C18 1_555 1_555
O13 H3 1_555 1_555
O14 C25 1_555 1_555
O15 C25 1_555 1_555
O16 H4 1_555 1_555
O17 C26 1_555 1_555
O18 C19 1_555 1_555
O19 Cd1 1_555 1_555
H5 O19 1_555 1_555
H6 O19 1_555 1_555
O20 Cd1 1_555 1_555
H7 O20 1_555 1_555
H8 O20 1_555 1_555
O21 Cd2 1_555 1_555
H9 O21 1_555 1_555
H10 O21 1_555 1_555
O22 Cd2 1_555 1_555
H11 O22 1_555 1_555
H12 O22 1_555 1_555
C1 O2 1_555 1_555
C2 O4 1_555 1_555
C3 C4 1_555 1_555
C4 C1 1_555 1_555
C5 C2 1_555 1_555
C6 C5 1_555 1_555
H13 C6 1_555 1_555
C7 C6 1_555 1_555
H14 C7 1_555 1_555
C8 C3 1_555 1_555
H15 C8 1_555 1_555
C9 C13 1_555 1_555
C10 O7 1_555 1_555
C11 O9 1_555 1_555
C12 C11 1_555 1_555
H16 C12 1_555 1_555
C13 C12 1_555 1_555
C14 C13 1_555 1_555
H17 C14 1_555 1_555
C15 C10 1_555 1_555
C16 C11 1_555 1_555
H18 C16 1_555 1_555
C17 C20 1_555 1_555
C18 O13 1_555 1_555
C19 C20 1_555 1_555
C20 C21 1_555 1_555
C21 C18 1_555 1_555
C22 C21 1_555 1_555
H19 C22 1_555 1_555
C23 C22 1_555 1_555
H20 C23 1_555 1_555
C24 C19 1_555 1_555
H21 C24 1_555 1_555
C25 C29 1_555 1_555
C26 O16 1_555 1_555
C27 O18 1_555 1_555
C28 C27 1_555 1_555
H22 C28 1_555 1_555
C29 C28 1_555 1_555
C30 C29 1_555 1_555
H23 C30 1_555 1_555
C31 C26 1_555 1_555
C32 C27 1_555 1_555
H24 C32 1_555 1_555
O23 H25 1_555 1_555
H26 O23 1_555 1_555
O24 H27 1_555 1_555
H28 O24 1_555 1_555
O25 H29 1_555 1_555
H30 O25 1_555 1_555
Cd1_2 O15 1_555 1_555
Cd1A O5 1_555 1_555
Cd1A_2 O10 1_555 1_555
Cd2A O5 1_555 1_555
Cd2A_2 O11 1_555 1_555
O5A Cd1 1_555 1_555
O6A Cd1 1_555 1_555
O10A Cd1 1_555 1_555
O11A Cd2 1_555 1_555
O15_2 Cd1 1_555 1_555
Cd2 O19 1_555 1_555
Cd2 O5A 1_555 1_555
O6 Cd1A 1_555 1_555
C4 C5 1_555 1_555
C7 C8 1_555 1_555
C14 C15 1_555 1_555
C15 C16 1_555 1_555
C23 C24 1_555 1_555
C30 C31 1_555 1_555
C31 C32 1_555 1_555

#END
