
#######################################################################
#
#                 Cambridge Crystallographic Data Centre
#                                CCDC 
#
#######################################################################
#
# If this CIF has been generated from an entry in the Cambridge 
# Structural Database, then it will include bibliographic, chemical, 
# crystal, experimental, refinement or atomic coordinate data resulting 
# from the CCDC's data processing and validation procedures.
#
#######################################################################

data_LOZXEF
_symmetry_cell_setting           monoclinic
_symmetry_space_group_name_H-M   'P 21/c'
_symmetry_Int_Tables_number      14
_space_group_name_Hall           '-P 2ybc'
loop_
_symmetry_equiv_pos_site_id
_symmetry_equiv_pos_as_xyz
1 x,y,z
2 -x,1/2+y,1/2-z
3 -x,-y,-z
4 x,1/2-y,1/2+z
_cell_length_a                   12.5622(11)
_cell_length_b                   15.1132(12)
_cell_length_c                   9.1671(8)
_cell_angle_alpha                90
_cell_angle_beta                 108.711(2)
_cell_angle_gamma                90
_cell_volume                     1648.44
loop_
_atom_site_label
_atom_site_type_symbol
_atom_site_fract_x
_atom_site_fract_y
_atom_site_fract_z
Pr1 Pr 0.606024(15) 0.086183(13) 0.16553(2)
O1 O 0.4945(2) 0.16800(18) 0.2859(3)
O2 O 0.4509(2) 0.30651(18) 0.2123(3)
O3 O 0.42667(19) 0.42606(16) 0.4599(3)
O4 O 0.2718(2) 0.44975(17) 0.2669(3)
O5 O -0.1960(2) 0.3801(2) 0.6442(3)
O6 O -0.3292(2) 0.41591(18) 0.4319(3)
O7 O -0.2587(2) 0.3826(2) -0.0680(3)
O8 O -0.0817(2) 0.3960(2) -0.0695(3)
H1 H -0.1125 0.3938 -0.1630
O9 O 0.15688(19) 0.37307(17) 0.4824(3)
O10 O 0.6122(2) 0.24712(19) 0.1015(3)
H2 H 0.5668 0.2622 0.1487
H3 H 0.5875 0.2676 0.0104
O11 O 0.5264(3) -0.0155(2) 0.3317(4)
H4 H 0.5534 -0.0676 0.3434
H5 H 0.4648 -0.0168 0.2576
C1 C 0.4345(3) 0.2373(3) 0.2746(4)
C2 C 0.3331(3) 0.3994(2) 0.3663(4)
C3 C 0.3402(3) 0.2314(2) 0.3395(4)
C4 C 0.2929(3) 0.3074(2) 0.3825(4)
C5 C 0.2024(3) 0.2973(2) 0.4365(4)
C6 C 0.1592(3) 0.2150(3) 0.4520(5)
H6 H 0.0993 0.2099 0.4902
C7 C 0.2059(4) 0.1406(3) 0.4102(5)
H7 H 0.1772 0.0849 0.4195
C8 C 0.2953(3) 0.1487(3) 0.3547(5)
H8 H 0.3262 0.0981 0.3268
C9 C -0.2283(3) 0.3978(2) 0.5027(4)
C10 C -0.1573(3) 0.3902(3) -0.0001(5)
C11 C -0.1454(3) 0.3952(2) 0.4143(4)
C12 C -0.1856(3) 0.3985(2) 0.2544(4)
H9 H -0.2623 0.4046 0.2037
C13 C -0.1118(3) 0.3928(3) 0.1702(4)
C14 C 0.0035(3) 0.3860(3) 0.2468(4)
H10 H 0.0538 0.3843 0.1913
C15 C 0.0420(3) 0.3817(2) 0.4052(4)
C16 C -0.0305(3) 0.3868(2) 0.4912(5)
H11 H -0.0031 0.3848 0.5982
Pr1A Pr 0.393976(15) 0.586183(13) 0.33447(2)
Pr1C Pr -0.393976(15) 0.413817(13) -0.33447(2)
Pr1C_2 Pr -0.393976(15) 0.413817(13) 0.66553(2)
Pr1C_3 Pr 0.606024(15) 0.413817(13) 0.66553(2)
O3A O 0.57333(19) -0.07394(16) 0.0401(3)
O3C O 0.42667(19) 0.07394(16) -0.0401(3)
O4A O 0.7282(2) -0.05025(17) 0.2331(3)
O5C O 0.8040(2) 0.1199(2) 0.1442(3)
O6C O 0.6708(2) 0.08409(18) -0.0681(3)
O7C O 0.7413(2) 0.1174(2) 0.4320(3)
loop_
_geom_bond_atom_site_label_1
_geom_bond_atom_site_label_2
_geom_bond_site_symmetry_1
_geom_bond_site_symmetry_2
Pr1 O1 1_555 1_555
O1 C1 1_555 1_555
O2 C1 1_555 1_555
O3 C2 1_555 1_555
O4 C2 1_555 1_555
O5 C9 1_555 1_555
O6 C9 1_555 1_555
O7 C10 1_555 1_555
O8 H1 1_555 1_555
O9 C5 1_555 1_555
O10 Pr1 1_555 1_555
H2 O10 1_555 1_555
H3 O10 1_555 1_555
O11 Pr1 1_555 1_555
H4 O11 1_555 1_555
H5 O11 1_555 1_555
C1 C3 1_555 1_555
C2 C4 1_555 1_555
C3 C4 1_555 1_555
C4 C5 1_555 1_555
C5 C6 1_555 1_555
C6 H6 1_555 1_555
C7 C6 1_555 1_555
H7 C7 1_555 1_555
C8 C3 1_555 1_555
H8 C8 1_555 1_555
C9 C11 1_555 1_555
C10 O8 1_555 1_555
C11 C12 1_555 1_555
C12 H9 1_555 1_555
C13 C10 1_555 1_555
C14 C13 1_555 1_555
H10 C14 1_555 1_555
C15 O9 1_555 1_555
C16 C11 1_555 1_555
H11 C16 1_555 1_555
Pr1A O3 1_555 1_555
Pr1C O7 1_555 1_555
Pr1C_2 O5 1_555 1_555
Pr1C_3 O3 1_555 1_555
O3A Pr1 1_555 1_555
O3C Pr1 1_555 1_555
O4A Pr1 1_555 1_555
O5C Pr1 1_555 1_555
O6C Pr1 1_555 1_555
O7C Pr1 1_555 1_555
O4 Pr1A 1_555 1_555
O6 Pr1C_2 1_555 1_555
C7 C8 1_555 1_555
C12 C13 1_555 1_555
C14 C15 1_555 1_555
C15 C16 1_555 1_555

#END
