
#######################################################################
#
#                 Cambridge Crystallographic Data Centre
#                                CCDC 
#
#######################################################################
#
# If this CIF has been generated from an entry in the Cambridge 
# Structural Database, then it will include bibliographic, chemical, 
# crystal, experimental, refinement or atomic coordinate data resulting 
# from the CCDC's data processing and validation procedures.
#
#######################################################################

data_LOZXOP
_symmetry_cell_setting           monoclinic
_symmetry_space_group_name_H-M   'P 21/c'
_symmetry_Int_Tables_number      14
_space_group_name_Hall           '-P 2ybc'
loop_
_symmetry_equiv_pos_site_id
_symmetry_equiv_pos_as_xyz
1 x,y,z
2 -x,1/2+y,1/2-z
3 -x,-y,-z
4 x,1/2-y,1/2+z
_cell_length_a                   26.635(3)
_cell_length_b                   7.6484(6)
_cell_length_c                   12.8629(11)
_cell_angle_alpha                90
_cell_angle_beta                 103.911(2)
_cell_angle_gamma                90
_cell_volume                     2543.51
loop_
_atom_site_label
_atom_site_type_symbol
_atom_site_fract_x
_atom_site_fract_y
_atom_site_fract_z
Mn1 Mn 0.71334(3) 0.47302(9) 0.16818(7)
Mn2 Mn 0.78398(3) 0.51209(9) 0.46843(6)
O1 O 0.70904(14) 0.4803(4) 0.3308(3)
O2 O 0.70108(13) 0.5064(4) 0.4930(3)
O3 O 0.36458(13) 0.5228(4) -0.0452(3)
O4 O 0.29284(14) 0.5101(4) 0.0090(3)
O5 O 0.82529(14) 0.5279(5) 0.6263(3)
O6 O 0.78657(14) 0.5392(5) 0.7618(3)
O7 O 1.20493(14) 0.5360(5) 0.8061(3)
O8 O 1.16693(14) 0.4965(5) 0.6347(3)
O9 O 0.70717(12) 0.7569(4) 0.1662(3)
H1 H 0.6998 0.8138 0.1077
H2 H 0.7328 0.8066 0.2079
O10 O 0.70623(12) 0.1925(4) 0.1743(3)
H3 H 0.6992 0.1466 0.1123
H4 H 0.7311 0.1353 0.2134
O11 O 0.77995(13) 0.7907(4) 0.4457(3)
H5 H 0.7575 0.8518 0.4663
H6 H 0.7846 0.8350 0.3881
O12 O 0.78994(14) 0.2288(5) 0.4875(3)
H7 H 0.7612 0.1772 0.4640
H8 H 0.8019 0.1957 0.5517
C1 C 0.53879(17) 0.3827(7) 0.3937(4)
C2 C 0.50633(19) 0.4332(7) 0.2967(4)
H9 H 0.5204 0.4902 0.2464
C3 C 0.45404(18) 0.4008(6) 0.2733(4)
C4 C 0.43375(18) 0.3098(7) 0.3471(4)
H10 H 0.3987 0.2834 0.3314
C5 C 0.46520(19) 0.2585(8) 0.4431(5)
H11 H 0.4511 0.1986 0.4923
C6 C 0.5178(2) 0.2948(7) 0.4679(5)
H12 H 0.5388 0.2606 0.5335
C7 C 0.68065(19) 0.4823(6) 0.3953(4)
C8 C 0.62442(19) 0.4547(7) 0.3559(4)
H13 H 0.6095 0.4621 0.2828
C9 C 0.59490(18) 0.4200(6) 0.4222(4)
H14 H 0.6112 0.4187 0.4947
C10 C 0.34239(19) 0.4997(6) 0.0283(5)
C11 C 0.3706(2) 0.4525(7) 0.1376(4)
H15 H 0.3517 0.4198 0.1866
C12 C 0.42167(19) 0.4546(6) 0.1690(4)
H16 H 0.4391 0.4950 0.1192
C13 C 0.96761(18) 0.3812(6) 0.8404(4)
C14 C 1.01327(17) 0.4230(6) 0.8132(4)
H17 H 1.0120 0.4862 0.7508
C15 C 1.06147(18) 0.3726(6) 0.8773(4)
C16 C 1.06216(18) 0.2785(7) 0.9698(4)
H18 H 1.0936 0.2425 1.0133
C17 C 1.0166(2) 0.2375(7) 0.9984(4)
H19 H 1.0177 0.1761 1.0613
C18 C 0.96984(19) 0.2870(7) 0.9344(4)
H20 H 0.9394 0.2576 0.9536
C19 C 0.82549(19) 0.5114(6) 0.7227(5)
C20 C 0.87331(19) 0.4527(6) 0.7979(4)
H21 H 0.8717 0.4223 0.8670
C21 C 0.91815(18) 0.4411(6) 0.7723(4)
H22 H 0.9186 0.4748 0.7031
C22 C 1.1662(2) 0.5045(6) 0.7304(5)
C23 C 1.11537(19) 0.4749(6) 0.7565(5)
H23 H 1.0855 0.4977 0.7036
C24 C 1.11018(17) 0.4188(7) 0.8494(4)
H24 H 1.1403 0.4070 0.9032
Mn1B Mn 0.28666(3) 0.52698(9) -0.16818(7)
Mn1B_2 Mn 1.28666(3) 0.52698(9) 0.83182(7)
Mn2B Mn 1.21602(3) 0.48791(9) 0.53157(6)
O3B O 0.63542(13) 0.4772(4) 0.0452(3)
O4B O 0.70716(14) 0.4899(4) -0.0090(3)
O7B O 0.79507(14) 0.4640(5) 0.1939(3)
O8B O 0.83307(14) 0.5035(5) 0.3653(3)
loop_
_geom_bond_atom_site_label_1
_geom_bond_atom_site_label_2
_geom_bond_site_symmetry_1
_geom_bond_site_symmetry_2
Mn1 O1 1_555 1_555
Mn2 O1 1_555 1_555
O1 C7 1_555 1_555
O2 Mn2 1_555 1_555
O3 C10 1_555 1_555
O4 C10 1_555 1_555
O5 Mn2 1_555 1_555
O6 C19 1_555 1_555
O7 C22 1_555 1_555
O8 C22 1_555 1_555
O9 Mn1 1_555 1_555
H1 O9 1_555 1_555
H2 O9 1_555 1_555
O10 Mn1 1_555 1_555
H3 O10 1_555 1_555
H4 O10 1_555 1_555
O11 Mn2 1_555 1_555
H5 O11 1_555 1_555
H6 O11 1_555 1_555
O12 Mn2 1_555 1_555
H7 O12 1_555 1_555
H8 O12 1_555 1_555
C1 C2 1_555 1_555
C2 H9 1_555 1_555
C3 C2 1_555 1_555
C4 C3 1_555 1_555
H10 C4 1_555 1_555
C5 C4 1_555 1_555
H11 C5 1_555 1_555
C6 C1 1_555 1_555
H12 C6 1_555 1_555
C7 O2 1_555 1_555
C8 C7 1_555 1_555
H13 C8 1_555 1_555
C9 C1 1_555 1_555
H14 C9 1_555 1_555
C10 C11 1_555 1_555
C11 H15 1_555 1_555
C12 C3 1_555 1_555
H16 C12 1_555 1_555
C13 C14 1_555 1_555
C14 H17 1_555 1_555
C15 C14 1_555 1_555
C16 C15 1_555 1_555
H18 C16 1_555 1_555
C17 C16 1_555 1_555
H19 C17 1_555 1_555
C18 C13 1_555 1_555
H20 C18 1_555 1_555
C19 O5 1_555 1_555
C20 C19 1_555 1_555
H21 C20 1_555 1_555
C21 C13 1_555 1_555
H22 C21 1_555 1_555
C22 C23 1_555 1_555
C23 H23 1_555 1_555
C24 C15 1_555 1_555
H24 C24 1_555 1_555
Mn1B O3 1_555 1_555
Mn1B_2 O7 1_555 1_555
Mn2B O8 1_555 1_555
O3B Mn1 1_555 1_555
O4B Mn1 1_555 1_555
O7B Mn1 1_555 1_555
O8B Mn2 1_555 1_555
O4 Mn1B 1_555 1_555
C5 C6 1_555 1_555
C8 C9 1_555 1_555
C11 C12 1_555 1_555
C17 C18 1_555 1_555
C20 C21 1_555 1_555
C23 C24 1_555 1_555

#END
