
#######################################################################
#
#                 Cambridge Crystallographic Data Centre
#                                CCDC 
#
#######################################################################
#
# If this CIF has been generated from an entry in the Cambridge 
# Structural Database, then it will include bibliographic, chemical, 
# crystal, experimental, refinement or atomic coordinate data resulting 
# from the CCDC's data processing and validation procedures.
#
#######################################################################

data_LUBKUQ
_symmetry_cell_setting           triclinic
_symmetry_space_group_name_H-M   'P -1'
_symmetry_Int_Tables_number      2
_space_group_name_Hall           '-P 1'
loop_
_symmetry_equiv_pos_site_id
_symmetry_equiv_pos_as_xyz
1 x,y,z
2 -x,-y,-z
_cell_length_a                   7.033(2)
_cell_length_b                   10.495(4)
_cell_length_c                   10.724(3)
_cell_angle_alpha                108.425(4)
_cell_angle_beta                 92.075(4)
_cell_angle_gamma                102.894(4)
_cell_volume                     727.148
loop_
_atom_site_label
_atom_site_type_symbol
_atom_site_fract_x
_atom_site_fract_y
_atom_site_fract_z
Cu1 Cu 0.07615(10) 0.31887(6) 0.68850(6)
O1 O 0.1914(6) 0.3326(3) 0.5272(3)
O2 O 0.1081(5) 0.1354(3) 0.6658(3)
O3 O -0.0068(7) 0.3367(4) 0.8596(4)
O4 O -0.2261(7) 0.2462(6) 0.5566(5)
N1 N 0.1118(6) 0.5252(4) 0.7451(4)
C1 C 0.2126(7) 0.2381(5) 0.4263(5)
Cu2 Cu 0.0000 0.0000 0.5000
H1 H 0.0458 0.1064 0.7220
Cu3 Cu 0.0000 0.5000 1.0000
H2 H -0.0973 0.2671 0.8580
H3 H -0.2632 0.1980 0.4756
H4 H -0.3271 0.2411 0.5977
N2 N 0.0859(6) 0.5978(4) 0.8729(4)
C2 C 0.1679(7) 0.6157(5) 0.6860(5)
O5 O 0.1726(6) 0.1109(3) 0.4110(3)
C3 C 0.2857(7) 0.2782(5) 0.3105(5)
C4 C 0.1284(8) 0.7280(5) 0.8849(5)
N3 N 0.1819(6) 0.7437(4) 0.7702(4)
H5 H 0.1943 0.5947 0.5984
C5 C 0.2916(7) 0.1777(5) 0.1891(5)
C6 C 0.3439(8) 0.4179(5) 0.3217(5)
H6 H 0.1229 0.7999 0.9612
N4 N 0.2378(7) 0.8670(4) 0.7389(4)
C7 C 0.3558(8) 0.2198(6) 0.0836(5)
C8 C 0.2292(8) 0.0230(5) 0.1615(5)
H7 H 0.3410 0.4852 0.4021
C9 C 0.4054(8) 0.4583(6) 0.2164(6)
H8 H 0.3617 0.9070 0.7780
H9 H 0.1521 0.9167 0.7741
C10 C 0.4109(8) 0.3595(6) 0.0969(6)
H10 H 0.3617 0.1536 0.0032
O6 O 0.0494(6) -0.0357(4) 0.1394(3)
O7 O 0.3645(6) -0.0381(4) 0.1514(4)
H11 H 0.4432 0.5519 0.2259
H12 H 0.4515 0.3863 0.0254
O5A O -0.1726(6) -0.1109(3) 0.5890(3)
O2A O -0.1081(5) -0.1354(3) 0.3342(3)
O3A O 0.0068(7) 0.6633(4) 1.1404(4)
N2A N -0.0859(6) 0.4022(4) 1.1271(4)
C1A C -0.2126(7) -0.2381(5) 0.5737(5)
Cu1A Cu -0.07615(10) -0.31887(6) 0.31150(6)
H1A H -0.0458 -0.1064 0.2780
O1A O -0.1914(6) -0.3326(3) 0.4728(3)
C3A C -0.2857(7) -0.2782(5) 0.6895(5)
O3A_2 O 0.0068(7) -0.3367(4) 0.1404(4)
O4A O 0.2261(7) -0.2462(6) 0.4434(5)
N1A N -0.1118(6) -0.5252(4) 0.2549(4)
C5A C -0.2916(7) -0.1777(5) 0.8109(5)
C6A C -0.3439(8) -0.4179(5) 0.6783(5)
H2A H 0.0973 -0.2671 0.1420
Cu3_2 Cu 0.0000 -0.5000 0.0000
H3A H 0.2632 -0.1980 0.5244
H4A H 0.3271 -0.2411 0.4023
N2A_2 N -0.0859(6) -0.5978(4) 0.1271(4)
C2A C -0.1679(7) -0.6157(5) 0.3140(5)
C7A C -0.3558(8) -0.2198(6) 0.9164(5)
C8A C -0.2292(8) -0.0230(5) 0.8385(5)
H7A H -0.3410 -0.4852 0.5979
C9A C -0.4054(8) -0.4583(6) 0.7836(6)
C4A C -0.1284(8) -0.7280(5) 0.1151(5)
N3A N -0.1819(6) -0.7437(4) 0.2298(4)
H5A H -0.1943 -0.5947 0.4016
C10A C -0.4109(8) -0.3595(6) 0.9031(6)
H10A H -0.3617 -0.1536 0.9968
O6A O -0.0494(6) 0.0357(4) 0.8606(3)
O7A O -0.3645(6) 0.0381(4) 0.8486(4)
H11A H -0.4432 -0.5519 0.7741
H6A H -0.1229 -0.7999 0.0388
N4A N -0.2378(7) -0.8670(4) 0.2611(4)
H12A H -0.4515 -0.3863 0.9746
H8A H -0.3617 -0.9070 0.2220
H9A H -0.1521 -0.9167 0.2259
O8 O 0.5110(7) 0.1968(6) 0.7179(6)
H13 H 0.3964 0.2095 0.7268
H14 H 0.5297 0.1473 0.7642
loop_
_geom_bond_atom_site_label_1
_geom_bond_atom_site_label_2
_geom_bond_site_symmetry_1
_geom_bond_site_symmetry_2
Cu1 O1 1_555 1_555
O1 C1 1_555 1_555
O2 Cu1 1_555 1_555
O3 Cu1 1_555 1_555
O4 Cu1 1_555 1_555
N1 Cu1 1_555 1_555
C1 O5 1_555 1_555
Cu2 O2 1_555 1_555
H1 O2 1_555 1_555
Cu3 O3 1_555 1_555
H2 O3 1_555 1_555
H3 O4 1_555 1_555
H4 O4 1_555 1_555
N2 N1 1_555 1_555
C2 N1 1_555 1_555
O5 Cu2 1_555 1_555
C3 C1 1_555 1_555
C4 N2 1_555 1_555
N3 C2 1_555 1_555
H5 C2 1_555 1_555
C5 C3 1_555 1_555
C6 C3 1_555 1_555
H6 C4 1_555 1_555
N4 N3 1_555 1_555
C7 C5 1_555 1_555
C8 C5 1_555 1_555
H7 C6 1_555 1_555
C9 C6 1_555 1_555
H8 N4 1_555 1_555
H9 N4 1_555 1_555
C10 C7 1_555 1_555
H10 C7 1_555 1_555
O6 C8 1_555 1_555
O7 C8 1_555 1_555
H11 C9 1_555 1_555
H12 C10 1_555 1_555
O8 H13 1_555 1_555
H14 O8 1_555 1_555
O5A Cu2 1_555 1_555
O2A Cu2 1_555 1_555
O3A Cu3 1_555 1_555
N2A Cu3 1_555 1_555
C1A O5A 1_555 1_555
Cu1A O2A 1_555 1_555
H1A O2A 1_555 1_555
O1A C1A 1_555 1_555
C3A C1A 1_555 1_555
O3A_2 Cu1A 1_555 1_555
O4A Cu1A 1_555 1_555
N1A Cu1A 1_555 1_555
C5A C3A 1_555 1_555
C6A C3A 1_555 1_555
H2A O3A_2 1_555 1_555
Cu3_2 O3A_2 1_555 1_555
H3A O4A 1_555 1_555
H4A O4A 1_555 1_555
N2A_2 N1A 1_555 1_555
C2A N1A 1_555 1_555
C7A C5A 1_555 1_555
C8A C5A 1_555 1_555
H7A C6A 1_555 1_555
C9A C6A 1_555 1_555
C4A N2A_2 1_555 1_555
N3A C2A 1_555 1_555
H5A C2A 1_555 1_555
C10A C7A 1_555 1_555
H10A C7A 1_555 1_555
O6A C8A 1_555 1_555
O7A C8A 1_555 1_555
H11A C9A 1_555 1_555
H6A C4A 1_555 1_555
N4A N3A 1_555 1_555
H12A C10A 1_555 1_555
H8A N4A 1_555 1_555
H9A N4A 1_555 1_555
Cu3 N2 1_555 1_555
C4 N3 1_555 1_555
C9 C10 1_555 1_555
Cu1A O1A 1_555 1_555
Cu3_2 N2A_2 1_555 1_555
C9A C10A 1_555 1_555
C4A N3A 1_555 1_555

#END
