
#######################################################################
#
#                 Cambridge Crystallographic Data Centre
#                                CCDC 
#
#######################################################################
#
# If this CIF has been generated from an entry in the Cambridge 
# Structural Database, then it will include bibliographic, chemical, 
# crystal, experimental, refinement or atomic coordinate data resulting 
# from the CCDC's data processing and validation procedures.
#
#######################################################################

data_LUBLUP
_symmetry_cell_setting           monoclinic
_symmetry_space_group_name_H-M   'P 21/c'
_symmetry_Int_Tables_number      14
_space_group_name_Hall           '-P 2ybc'
loop_
_symmetry_equiv_pos_site_id
_symmetry_equiv_pos_as_xyz
1 x,y,z
2 x,1/2-y,1/2+z
3 -x,-y,-z
4 -x,1/2+y,1/2-z
_cell_length_a                   10.38400(10)
_cell_length_b                   15.3770(2)
_cell_length_c                   22.1390(3)
_cell_angle_alpha                90
_cell_angle_beta                 93.2910(9)
_cell_angle_gamma                90
_cell_volume                     3529.21
loop_
_atom_site_label
_atom_site_type_symbol
_atom_site_fract_x
_atom_site_fract_y
_atom_site_fract_z
Ca1 Ca 0.0000 0.5000 0.5000
P1 P 0.28619(6) 0.41791(4) 0.43501(3)
O1 O 0.16819(17) 0.41388(13) 0.46997(8)
O2 O 0.38905(19) 0.34924(13) 0.45854(9)
H1 H 0.465(5) 0.368(3) 0.463(2)
O3 O 0.35323(19) 0.50806(12) 0.43688(9)
P2 P 0.26268(6) 0.87825(5) 0.07266(3)
O4 O 0.14686(17) 0.93519(13) 0.06668(9)
O5 O 0.33262(19) 0.88515(15) 0.13766(9)
H2 H 0.372(4) 0.938(3) 0.1407(19)
O6 O 0.36670(18) 0.89739(14) 0.02739(9)
O7 O -0.0690(2) 0.45241(12) 0.12341(8)
O8 O 0.1187(2) 0.50519(14) 0.05274(10)
H3 H 0.057(5) 0.491(4) 0.063(3)
O9 O 0.3153(2) 0.38175(14) 0.09510(9)
O10 O 0.1396(2) 0.35051(13) 0.17618(9)
H4 H 0.193(4) 0.347(3) 0.1533(19)
C1 C 0.0832(2) 0.38939(16) 0.27412(11)
C2 C -0.0556(2) 0.40005(18) 0.25011(12)
H5 H -0.079(3) 0.359(2) 0.2201(16)
H6 H -0.116(3) 0.384(2) 0.2800(15)
C3 C -0.0802(2) 0.49262(17) 0.22813(12)
C4 C -0.0939(3) 0.55874(19) 0.27050(12)
H7 H -0.091(3) 0.545(2) 0.3114(16)
C5 C -0.1093(3) 0.64484(19) 0.25259(13)
H8 H -0.120(4) 0.685(3) 0.2791(17)
C6 C -0.1090(3) 0.66591(18) 0.19186(12)
H9 H -0.117(3) 0.721(2) 0.1801(14)
C7 C -0.0947(2) 0.60231(17) 0.14820(11)
C8 C -0.0839(3) 0.62833(18) 0.08241(12)
H10 H -0.141(3) 0.677(2) 0.0732(15)
H11 H -0.110(3) 0.587(2) 0.0601(15)
C9 C 0.0538(2) 0.65365(18) 0.07068(11)
C10 C 0.0915(3) 0.74096(17) 0.07452(11)
H12 H 0.021(3) 0.784(2) 0.0814(15)
C11 C 0.2183(2) 0.76628(18) 0.06639(11)
C12 C 0.3092(3) 0.70240(19) 0.05369(12)
H13 H 0.395(3) 0.716(2) 0.0455(15)
C13 C 0.2750(3) 0.61543(19) 0.04938(11)
C14 C 0.3746(3) 0.5458(2) 0.03743(13)
H14 H 0.432(4) 0.567(2) 0.0067(17)
H15 H 0.339(3) 0.498(2) 0.0111(17)
C15 C 0.4417(3) 0.51383(19) 0.09665(13)
C16 C 0.5340(3) 0.5657(2) 0.12730(15)
H16 H 0.561(4) 0.620(3) 0.1086(18)
C17 C 0.5893(3) 0.5415(2) 0.18326(15)
H17 H 0.649(3) 0.577(2) 0.2030(16)
C18 C 0.5517(3) 0.4646(2) 0.20963(13)
H18 H 0.588(4) 0.447(3) 0.2495(18)
C19 C 0.4601(3) 0.41102(18) 0.18091(12)
C20 C 0.4121(3) 0.33098(19) 0.21338(12)
H19 H 0.490(3) 0.302(2) 0.2355(15)
H20 H 0.386(3) 0.281(2) 0.1817(15)
C21 C 0.3080(3) 0.35526(17) 0.25626(12)
C22 C 0.3399(2) 0.36872(17) 0.31764(12)
H21 H 0.432(3) 0.362(2) 0.3343(15)
C23 C 0.2467(2) 0.39418(16) 0.35708(11)
C24 C 0.1185(2) 0.40428(16) 0.33466(11)
H22 H 0.055(3) 0.420(2) 0.3604(16)
C25 C -0.0825(2) 0.51577(17) 0.16727(11)
C26 C 0.1470(3) 0.59150(18) 0.05825(11)
C27 C 0.4080(3) 0.43595(19) 0.12341(12)
C28 C 0.1793(3) 0.36585(16) 0.23498(11)
C29 C 0.3602(5) 0.3199(3) 0.05055(19)
H23 H 0.2936 0.2781 0.0407
H24 H 0.4357 0.2905 0.0671
H25 H 0.3808 0.3506 0.0146
C30 C -0.1903(4) 0.4098(3) 0.10495(19)
H26 H -0.2287 0.3866 0.1399
H27 H -0.1741 0.3633 0.0774
H28 H -0.2478 0.4512 0.0854
O11 O -0.0388(3) 0.38652(16) 0.57053(11)
H29 H -0.096(5) 0.366(3) 0.590(2)
C31 C 0.0371(4) 0.3094(2) 0.57513(17)
H30 H 0.0287 0.2833 0.6141
H31 H 0.1260 0.3237 0.5703
H32 H 0.0080 0.2693 0.5441
P1B P -0.28619(6) 0.58209(4) 0.56499(3)
O1B O -0.16819(17) 0.58612(13) 0.53003(8)
O2B O -0.38905(19) 0.65076(13) 0.54146(9)
H1B H -0.465(5) 0.632(3) 0.537(2)
O3B O -0.35323(19) 0.49194(12) 0.56312(9)
P2B P -0.26268(6) 0.12175(5) 0.92734(3)
O4B O -0.14686(17) 0.06481(13) 0.93332(9)
O5B O -0.33262(19) 0.11485(15) 0.86234(9)
H2B H -0.372(4) 0.062(3) 0.8593(19)
O6B O -0.36670(18) 0.10261(14) 0.97261(9)
O7B O 0.0690(2) 0.54759(12) 0.87659(8)
O8B O -0.1187(2) 0.49481(14) 0.94726(10)
H3B H -0.057(5) 0.509(4) 0.937(3)
O9B O -0.3153(2) 0.61825(14) 0.90490(9)
O10B O -0.1396(2) 0.64949(13) 0.82382(9)
H4B H -0.193(4) 0.653(3) 0.8467(19)
C1B C -0.0832(2) 0.61061(16) 0.72588(11)
C2B C 0.0556(2) 0.59995(18) 0.74989(12)
H5B H 0.079(3) 0.641(2) 0.7799(16)
H6B H 0.116(3) 0.616(2) 0.7200(15)
C3B C 0.0802(2) 0.50738(17) 0.77187(12)
C4B C 0.0939(3) 0.44126(19) 0.72950(12)
H7B H 0.091(3) 0.455(2) 0.6886(16)
C5B C 0.1093(3) 0.35516(19) 0.74741(13)
H8B H 0.120(4) 0.315(3) 0.7209(17)
C6B C 0.1090(3) 0.33409(18) 0.80814(12)
H9B H 0.117(3) 0.279(2) 0.8199(14)
C7B C 0.0947(2) 0.39769(17) 0.85180(11)
C8B C 0.0839(3) 0.37167(18) 0.91759(12)
H10B H 0.141(3) 0.323(2) 0.9268(15)
H11B H 0.110(3) 0.413(2) 0.9399(15)
C9B C -0.0538(2) 0.34635(18) 0.92932(11)
C10B C -0.0915(3) 0.25904(17) 0.92548(11)
H12B H -0.021(3) 0.216(2) 0.9186(15)
C11B C -0.2183(2) 0.23372(18) 0.93361(11)
C12B C -0.3092(3) 0.29760(19) 0.94631(12)
H13B H -0.395(3) 0.284(2) 0.9545(15)
C13B C -0.2750(3) 0.38457(19) 0.95062(11)
C14B C -0.3746(3) 0.4542(2) 0.96257(13)
H14B H -0.432(4) 0.433(2) 0.9933(17)
H15B H -0.339(3) 0.502(2) 0.9889(17)
C15B C -0.4417(3) 0.48617(19) 0.90335(13)
C16B C -0.5340(3) 0.4343(2) 0.87270(15)
H16B H -0.561(4) 0.380(3) 0.8914(18)
C17B C -0.5893(3) 0.4585(2) 0.81674(15)
H17B H -0.649(3) 0.423(2) 0.7970(16)
C18B C -0.5517(3) 0.5354(2) 0.79037(13)
H18B H -0.588(4) 0.553(3) 0.7505(18)
C19B C -0.4601(3) 0.58898(18) 0.81909(12)
C20B C -0.4121(3) 0.66902(19) 0.78662(12)
H19B H -0.490(3) 0.698(2) 0.7645(15)
H20B H -0.386(3) 0.719(2) 0.8183(15)
C21B C -0.3080(3) 0.64474(17) 0.74374(12)
C22B C -0.3399(2) 0.63128(17) 0.68236(12)
H21B H -0.432(3) 0.638(2) 0.6657(15)
C23B C -0.2467(2) 0.60582(16) 0.64292(11)
C24B C -0.1185(2) 0.59572(16) 0.66534(11)
H22B H -0.055(3) 0.580(2) 0.6396(16)
C25B C 0.0825(2) 0.48423(17) 0.83273(11)
C26B C -0.1470(3) 0.40850(18) 0.94175(11)
C27B C -0.4080(3) 0.56405(19) 0.87659(12)
C28B C -0.1793(3) 0.63415(16) 0.76502(11)
C29B C -0.3602(5) 0.6801(3) 0.94945(19)
H23B H -0.2936 0.7219 0.9593
H24B H -0.4357 0.7095 0.9329
H25B H -0.3808 0.6494 0.9854
C30B C 0.1903(4) 0.5902(3) 0.89505(19)
H26B H 0.2287 0.6134 0.8601
H27B H 0.1741 0.6367 0.9226
H28B H 0.2478 0.5488 0.9146
O11B O 0.0388(3) 0.61348(16) 0.42947(11)
H29B H 0.096(5) 0.634(3) 0.410(2)
C31B C -0.0371(4) 0.6906(2) 0.42487(17)
H30B H -0.0287 0.7167 0.3859
H31B H -0.1260 0.6763 0.4297
H32B H -0.0080 0.7307 0.4559
O4A O 0.14686(17) 0.56481(13) 0.56668(9)
O4C O -0.14686(17) 0.43519(13) 0.43332(9)
Ca1A Ca 0.0000 1.0000 0.0000
Ca1A_2 Ca 0.0000 0.0000 1.0000
O12 O 0.4599(2) 0.03341(16) 0.14514(11)
H33 H 0.517(5) 0.045(4) 0.115(3)
C32 C 0.3748(5) 0.1017(3) 0.1266(2)
H34 H 0.3907 0.1185 0.0859
H35 H 0.3889 0.1507 0.1531
H36 H 0.2872 0.0822 0.1282
O13 O 0.7741(5) 0.1846(3) 0.1316(2)
H37 H 0.764(2) 0.1246(17) 0.1571(11)
C33 C 0.6731(14) 0.2310(11) 0.1030(4)
H38 H 0.6942 0.2918 0.1031
H39 H 0.5960 0.2222 0.1242
H40 H 0.6593 0.2111 0.0621
O14 O 0.6650(5) 0.1206(4) 0.22690(18)
H41 H 0.763(3) 0.121(2) 0.2158(15)
C34 C 0.7416(5) 0.1155(5) 0.2809(2)
H42 H 0.6988 0.1445 0.3125
H43 H 0.8232 0.1429 0.2756
H44 H 0.7551 0.0555 0.2916
loop_
_geom_bond_atom_site_label_1
_geom_bond_atom_site_label_2
_geom_bond_site_symmetry_1
_geom_bond_site_symmetry_2
Ca1 O1 1_555 1_555
P1 O1 1_555 1_555
O2 P1 1_555 1_555
H1 O2 1_555 1_555
O3 P1 1_555 1_555
P2 O4 1_555 1_555
O4 Ca1A 1_555 1_555
O5 P2 1_555 1_555
H2 O5 1_555 1_555
O6 P2 1_555 1_555
O7 C25 1_555 1_555
O8 H3 1_555 1_555
O9 C27 1_555 1_555
O10 H4 1_555 1_555
C1 C2 1_555 1_555
C2 H5 1_555 1_555
H6 C2 1_555 1_555
C3 C2 1_555 1_555
C4 C3 1_555 1_555
H7 C4 1_555 1_555
C5 C4 1_555 1_555
H8 C5 1_555 1_555
C6 C5 1_555 1_555
H9 C6 1_555 1_555
C7 C6 1_555 1_555
C8 C7 1_555 1_555
H10 C8 1_555 1_555
H11 C8 1_555 1_555
C9 C8 1_555 1_555
C10 C9 1_555 1_555
H12 C10 1_555 1_555
C11 P2 1_555 1_555
C12 C11 1_555 1_555
H13 C12 1_555 1_555
C13 C12 1_555 1_555
C14 C13 1_555 1_555
H14 C14 1_555 1_555
H15 C14 1_555 1_555
C15 C14 1_555 1_555
C16 C15 1_555 1_555
H16 C16 1_555 1_555
C17 C16 1_555 1_555
H17 C17 1_555 1_555
C18 C17 1_555 1_555
H18 C18 1_555 1_555
C19 C18 1_555 1_555
C20 C19 1_555 1_555
H19 C20 1_555 1_555
H20 C20 1_555 1_555
C21 C20 1_555 1_555
C22 C21 1_555 1_555
H21 C22 1_555 1_555
C23 P1 1_555 1_555
C24 C1 1_555 1_555
H22 C24 1_555 1_555
C25 C3 1_555 1_555
C26 O8 1_555 1_555
C27 C15 1_555 1_555
C28 O10 1_555 1_555
C29 O9 1_555 1_555
H23 C29 1_555 1_555
H24 C29 1_555 1_555
H25 C29 1_555 1_555
C30 O7 1_555 1_555
H26 C30 1_555 1_555
H27 C30 1_555 1_555
H28 C30 1_555 1_555
O11 Ca1 1_555 1_555
H29 O11 1_555 1_555
C31 O11 1_555 1_555
H30 C31 1_555 1_555
H31 C31 1_555 1_555
H32 C31 1_555 1_555
O12 H33 1_555 1_555
C32 O12 1_555 1_555
H34 C32 1_555 1_555
H35 C32 1_555 1_555
H36 C32 1_555 1_555
O13 H37 1_555 1_555
C33 O13 1_555 1_555
H38 C33 1_555 1_555
H39 C33 1_555 1_555
H40 C33 1_555 1_555
O14 H41 1_555 1_555
C34 O14 1_555 1_555
H42 C34 1_555 1_555
H43 C34 1_555 1_555
H44 C34 1_555 1_555
P1B O1B 1_555 1_555
O1B Ca1 1_555 1_555
O2B P1B 1_555 1_555
H1B O2B 1_555 1_555
O3B P1B 1_555 1_555
P2B O4B 1_555 1_555
O4B Ca1A_2 1_555 1_555
O5B P2B 1_555 1_555
H2B O5B 1_555 1_555
O6B P2B 1_555 1_555
O7B C25B 1_555 1_555
O8B H3B 1_555 1_555
O9B C27B 1_555 1_555
O10B H4B 1_555 1_555
C1B C2B 1_555 1_555
C2B H5B 1_555 1_555
H6B C2B 1_555 1_555
C3B C2B 1_555 1_555
C4B C3B 1_555 1_555
H7B C4B 1_555 1_555
C5B C4B 1_555 1_555
H8B C5B 1_555 1_555
C6B C5B 1_555 1_555
H9B C6B 1_555 1_555
C7B C6B 1_555 1_555
C8B C7B 1_555 1_555
H10B C8B 1_555 1_555
H11B C8B 1_555 1_555
C9B C8B 1_555 1_555
C10B C9B 1_555 1_555
H12B C10B 1_555 1_555
C11B P2B 1_555 1_555
C12B C11B 1_555 1_555
H13B C12B 1_555 1_555
C13B C12B 1_555 1_555
C14B C13B 1_555 1_555
H14B C14B 1_555 1_555
H15B C14B 1_555 1_555
C15B C14B 1_555 1_555
C16B C15B 1_555 1_555
H16B C16B 1_555 1_555
C17B C16B 1_555 1_555
H17B C17B 1_555 1_555
C18B C17B 1_555 1_555
H18B C18B 1_555 1_555
C19B C18B 1_555 1_555
C20B C19B 1_555 1_555
H19B C20B 1_555 1_555
H20B C20B 1_555 1_555
C21B C20B 1_555 1_555
C22B C21B 1_555 1_555
H21B C22B 1_555 1_555
C23B P1B 1_555 1_555
C24B C1B 1_555 1_555
H22B C24B 1_555 1_555
C25B C3B 1_555 1_555
C26B O8B 1_555 1_555
C27B C15B 1_555 1_555
C28B O10B 1_555 1_555
C29B O9B 1_555 1_555
H23B C29B 1_555 1_555
H24B C29B 1_555 1_555
H25B C29B 1_555 1_555
C30B O7B 1_555 1_555
H26B C30B 1_555 1_555
H27B C30B 1_555 1_555
H28B C30B 1_555 1_555
O11B Ca1 1_555 1_555
H29B O11B 1_555 1_555
C31B O11B 1_555 1_555
H30B C31B 1_555 1_555
H31B C31B 1_555 1_555
H32B C31B 1_555 1_555
O4A Ca1 1_555 1_555
O4C Ca1 1_555 1_555
C1 C28 1_555 1_555
C7 C25 1_555 1_555
C9 C26 1_555 1_555
C10 C11 1_555 1_555
C13 C26 1_555 1_555
C19 C27 1_555 1_555
C21 C28 1_555 1_555
C22 C23 1_555 1_555
C23 C24 1_555 1_555
C1B C28B 1_555 1_555
C7B C25B 1_555 1_555
C9B C26B 1_555 1_555
C10B C11B 1_555 1_555
C13B C26B 1_555 1_555
C19B C27B 1_555 1_555
C21B C28B 1_555 1_555
C22B C23B 1_555 1_555
C23B C24B 1_555 1_555

#END
