
#######################################################################
#
#                 Cambridge Crystallographic Data Centre
#                                CCDC 
#
#######################################################################
#
# If this CIF has been generated from an entry in the Cambridge 
# Structural Database, then it will include bibliographic, chemical, 
# crystal, experimental, refinement or atomic coordinate data resulting 
# from the CCDC's data processing and validation procedures.
#
#######################################################################

data_LUBLEZ
_symmetry_cell_setting           orthorhombic
_symmetry_space_group_name_H-M   'P 21 21 21'
_symmetry_Int_Tables_number      19
_space_group_name_Hall           'P 2ac 2ab'
loop_
_symmetry_equiv_pos_site_id
_symmetry_equiv_pos_as_xyz
1 x,y,z
2 -x,1/2+y,1/2-z
3 1/2+x,1/2-y,-z
4 1/2-x,-y,1/2+z
_cell_length_a                   8.151(14)
_cell_length_b                   11.539(17)
_cell_length_c                   17.03(2)
_cell_angle_alpha                90
_cell_angle_beta                 90
_cell_angle_gamma                90
_cell_volume                     1601.75
loop_
_atom_site_label
_atom_site_type_symbol
_atom_site_fract_x
_atom_site_fract_y
_atom_site_fract_z
Cu1 Cu 0.21109(9) 0.42324(7) 0.51591(5)
N1 N 0.4428(7) 0.3837(5) 0.5097(4)
N2 N 0.5261(7) 0.3079(5) 0.5348(4)
N3 N 0.6156(9) 0.2381(6) 0.5602(5)
N4 N 0.1352(7) 0.3468(5) 0.6178(4)
C1 C 0.2120(10) 0.2746(6) 0.6649(5)
H1 H 0.3203 0.2553 0.6537
C2 C 0.1378(10) 0.2252(7) 0.7316(5)
H2 H 0.1971 0.1754 0.7638
C3 C -0.0231(11) 0.2510(6) 0.7488(5)
H3 H -0.0755 0.2185 0.7921
C4 C -0.1055(9) 0.3287(7) 0.6982(5)
H4 H -0.2140 0.3491 0.7079
C5 C -0.0249(8) 0.3736(6) 0.6350(4)
C6 C -0.1004(8) 0.4535(6) 0.5794(5)
H5 H -0.2089 0.4770 0.5850
N5 N -0.0113(7) 0.4903(5) 0.5223(4)
C7 C -0.0576(8) 0.5720(6) 0.4625(4)
H6 H -0.0339 0.6502 0.4818
C8 C 0.0530(8) 0.5480(6) 0.3930(4)
H7 H 0.0137 0.4801 0.3651
H8 H 0.0499 0.6133 0.3572
N6 N 0.2255(7) 0.5280(4) 0.4194(4)
C9 C 0.3033(9) 0.6408(6) 0.4427(5)
H9 H 0.4123 0.6266 0.4619
H10 H 0.2391 0.6767 0.4832
H11 H 0.3084 0.6912 0.3979
C10 C 0.3197(10) 0.4767(7) 0.3534(5)
H12 H 0.2733 0.4029 0.3398
H13 H 0.4320 0.4665 0.3689
H14 H 0.3146 0.5274 0.3088
C11 C -0.2382(9) 0.5676(9) 0.4373(5)
H15 H -0.2628 0.4922 0.4166
H16 H -0.2577 0.6251 0.3976
H17 H -0.3070 0.5829 0.4819
N3B N 0.1156(9) 0.2619(6) 0.4398(5)
Cu1B Cu 0.71109(9) 0.07676(7) 0.48409(5)
Cl1 Cl 0.4517(2) 0.60573(15) 0.66770(11)
O1 O 0.5613(8) 0.6456(6) 0.6083(4)
O2 O 0.4467(9) 0.6873(6) 0.7309(5)
O3 O 0.5074(12) 0.4980(6) 0.6958(5)
O4 O 0.2905(7) 0.5915(6) 0.6352(4)
loop_
_geom_bond_atom_site_label_1
_geom_bond_atom_site_label_2
_geom_bond_site_symmetry_1
_geom_bond_site_symmetry_2
Cu1 N1 1_555 1_555
N1 N2 1_555 1_555
N2 N3 1_555 1_555
N3 Cu1B 1_555 1_555
Cl1 O1 1_555 1_555
O2 Cl1 1_555 1_555
O3 Cl1 1_555 1_555
O4 Cl1 1_555 1_555
N4 Cu1 1_555 1_555
C1 N4 1_555 1_555
H1 C1 1_555 1_555
C2 C1 1_555 1_555
H2 C2 1_555 1_555
C3 C2 1_555 1_555
H3 C3 1_555 1_555
C4 C3 1_555 1_555
H4 C4 1_555 1_555
C5 N4 1_555 1_555
C6 C5 1_555 1_555
H5 C6 1_555 1_555
N5 Cu1 1_555 1_555
C7 N5 1_555 1_555
H6 C7 1_555 1_555
C8 C7 1_555 1_555
H7 C8 1_555 1_555
H8 C8 1_555 1_555
N6 Cu1 1_555 1_555
C9 N6 1_555 1_555
H9 C9 1_555 1_555
H10 C9 1_555 1_555
H11 C9 1_555 1_555
C10 N6 1_555 1_555
H12 C10 1_555 1_555
H13 C10 1_555 1_555
H14 C10 1_555 1_555
C11 C7 1_555 1_555
H15 C11 1_555 1_555
H16 C11 1_555 1_555
H17 C11 1_555 1_555
N3B Cu1 1_555 1_555
C4 C5 1_555 1_555
C6 N5 1_555 1_555
C8 N6 1_555 1_555

#END
