
#######################################################################
#
#                 Cambridge Crystallographic Data Centre
#                                CCDC 
#
#######################################################################
#
# If this CIF has been generated from an entry in the Cambridge 
# Structural Database, then it will include bibliographic, chemical, 
# crystal, experimental, refinement or atomic coordinate data resulting 
# from the CCDC's data processing and validation procedures.
#
#######################################################################

data_LUBREH
_symmetry_cell_setting           monoclinic
_symmetry_space_group_name_H-M   'P 21'
_symmetry_Int_Tables_number      4
_space_group_name_Hall           'P 2yb'
loop_
_symmetry_equiv_pos_site_id
_symmetry_equiv_pos_as_xyz
1 x,y,z
2 -x,1/2+y,-z
_cell_length_a                   14.483(2)
_cell_length_b                   10.2508(12)
_cell_length_c                   25.257(5)
_cell_angle_alpha                90
_cell_angle_beta                 92.529(9)
_cell_angle_gamma                90
_cell_volume                     3746.06
loop_
_atom_site_label
_atom_site_type_symbol
_atom_site_fract_x
_atom_site_fract_y
_atom_site_fract_z
Bi1 Bi 0.46796(2) 0.20799(2) 0.519993(13)
O1 O 0.3012(5) 0.2529(6) 0.4820(3)
O2 O 0.3952(4) 0.0102(6) 0.4827(2)
O3 O 0.4175(4) 0.4072(6) 0.5567(3)
O4 O 0.4683(5) 0.3357(7) 0.4428(3)
O5 O 0.5994(5) 0.1273(6) 0.4754(3)
O6 O 0.5966(4) 0.3024(5) 0.5603(2)
O7 O 0.3400(4) 0.1705(6) 0.5905(3)
O8 O 0.5187(4) 0.0579(5) 0.5873(3)
C1 C 0.2434(7) 0.3308(10) 0.4658(4)
S1 S 0.35575(16) -0.0681(2) 0.43940(9)
S2 S 0.36620(16) 0.5298(2) 0.55963(10)
S3 S 0.49320(16) 0.4181(2) 0.39878(9)
C2 C 0.2177(6) 0.4647(10) 0.4848(4)
C3 C 0.1835(8) 0.3077(11) 0.4165(5)
O9 O 0.2573(4) -0.0828(7) 0.4395(3)
C4 C 0.3860(7) 0.0124(8) 0.3801(3)
C5 C 0.2475(7) 0.4962(9) 0.5428(4)
O10 O 0.3635(5) 0.5760(7) 0.6141(3)
O11 O 0.4432(5) 0.3857(7) 0.3505(3)
C6 C 0.6119(6) 0.3920(9) 0.3919(4)
C7 C 0.1152(7) 0.4662(10) 0.4713(5)
C8 C 0.2542(8) 0.5611(10) 0.4413(4)
C9 C 0.1232(8) 0.4310(13) 0.4141(5)
H1 H 0.1454 0.2281 0.4198
H2 H 0.2209 0.3000 0.3848
C10 C 0.3573(6) -0.0532(8) 0.3273(3)
H3 H 0.3584 0.1007 0.3802
H4 H 0.4540 0.0234 0.3813
H5 H 0.2287 0.4216 0.5648
H6 H 0.2111 0.5726 0.5537
C11 C 0.6605(7) 0.4758(9) 0.3527(4)
H7 H 0.6435 0.4043 0.4271
H8 H 0.6206 0.2996 0.3818
C12 C 0.0632(8) 0.3628(13) 0.5033(6)
C13 C 0.0689(8) 0.5964(11) 0.4785(5)
H9 H 0.2518 0.6529 0.4533
H10 H 0.3182 0.5394 0.4324
C14 C 0.1854(8) 0.5363(12) 0.3938(4)
H11 H 0.0629 0.4211 0.3937
C15 C 0.3158(8) -0.1952(10) 0.3273(4)
C16 C 0.4293(7) -0.0611(9) 0.2854(4)
C17 C 0.2809(7) 0.0231(10) 0.2965(4)
C18 C 0.7585(7) 0.4288(11) 0.3369(5)
C19 C 0.6870(7) 0.6133(9) 0.3717(4)
C20 C 0.6092(8) 0.4979(10) 0.2985(4)
H12 H 0.0597 0.3920 0.5401
H13 H 0.0964 0.2796 0.5024
H14 H 0.0006 0.3515 0.4877
H15 H 0.1008 0.6631 0.4584
H16 H 0.0716 0.6196 0.5161
H17 H 0.0042 0.5909 0.4656
H18 H 0.1498 0.6162 0.3845
H19 H 0.2179 0.5062 0.3624
H20 H 0.3504 -0.2518 0.3530
H21 H 0.2499 -0.1939 0.3361
C21 C 0.3272(8) -0.2432(10) 0.2693(4)
C22 C 0.4688(8) 0.0708(11) 0.2692(5)
C23 C 0.3632(8) -0.1225(9) 0.2414(4)
C24 C 0.5127(8) -0.1512(13) 0.3004(5)
O12 O 0.2283(5) 0.1034(7) 0.3137(3)
C25 C 0.2850(8) -0.0206(11) 0.2388(4)
C26 C 0.7564(9) 0.2942(11) 0.3072(5)
C27 C 0.7732(8) 0.5474(11) 0.2991(5)
C28 C 0.8271(8) 0.4201(13) 0.3836(5)
C29 C 0.7600(7) 0.6621(9) 0.3346(4)
C30 C 0.6871(8) 0.5409(10) 0.2614(4)
H22 H 0.5617 0.5668 0.3009
H23 H 0.5792 0.4165 0.2855
H24 H 0.3720 -0.3160 0.2682
H25 H 0.2673 -0.2721 0.2529
H26 H 0.5090 0.1050 0.2981
H27 H 0.4180 0.1322 0.2616
H28 H 0.5046 0.0597 0.2375
H29 H 0.3923 -0.1400 0.2069
H30 H 0.5518 -0.1094 0.3282
H31 H 0.5489 -0.1661 0.2691
H32 H 0.4901 -0.2348 0.3135
H33 H 0.3001 0.0533 0.2154
H34 H 0.2257 -0.0600 0.2259
H35 H 0.8195 0.2690 0.2991
H36 H 0.7187 0.3018 0.2742
H37 H 0.7298 0.2276 0.3298
H38 H 0.8333 0.5466 0.2810
H39 H 0.8298 0.5040 0.4022
H40 H 0.8884 0.3989 0.3709
H41 H 0.8077 0.3518 0.4078
H42 H 0.7376 0.7391 0.3141
H43 H 0.8182 0.6849 0.3545
H44 H 0.6953 0.4763 0.2328
H45 H 0.6733 0.6271 0.2453
O6A O 0.4034(4) -0.1976(5) 0.4397(2)
O5A O 0.4006(5) 0.6273(6) 0.5246(3)
O8A O 0.4813(4) 0.5579(5) 0.4127(3)
Bi1A Bi 0.53204(2) -0.29201(2) 0.480007(13)
Bi1A_2 Bi 0.53204(2) 0.70799(2) 0.480007(13)
O7A O 0.6600(4) 0.6705(6) 0.4095(3)
S4 S 1.10064(15) -0.0425(2) 1.08471(9)
S5 S 0.82215(14) -0.01556(19) 1.00578(8)
O13 O 0.9121(4) -0.2241(5) 1.1087(2)
O14 O 1.0479(4) 0.0373(6) 1.0452(3)
O15 O 1.0251(4) 0.0103(5) 0.9153(2)
O16 O 0.7265(4) -0.0146(6) 0.9879(2)
O17 O 0.8754(4) 0.0882(6) 0.9801(2)
O18 O 0.8667(4) -0.1435(6) 1.0000(2)
C31 C 0.7317(6) -0.1331(10) 1.1918(4)
H46 H 0.7130 -0.1290 1.2294
C32 C 1.2182(6) 0.0044(8) 1.0823(4)
H47 H 1.2204 0.1007 1.0854
H48 H 1.2508 -0.0312 1.1144
C33 C 0.6918(6) -0.1241(9) 1.0982(4)
H49 H 0.6507 -0.0597 1.0798
H50 H 0.6991 -0.2004 1.0747
C34 C 0.8470(6) -0.1781(8) 1.1310(4)
C35 C 1.2744(6) -0.0326(9) 1.0353(4)
O19 O 1.1894(4) 0.1013(6) 0.9692(3)
C36 C 0.8303(6) 0.0297(8) 1.0742(3)
H51 H 0.8965 0.0393 1.0848
H52 H 0.8012 0.1165 1.0777
C37 C 1.2547(6) 0.0361(8) 0.9831(4)
C38 C 0.7714(7) -0.0005(9) 1.1696(4)
C39 C 1.2750(7) -0.1815(9) 1.0208(5)
H53 H 1.2215 -0.2046 0.9969
H54 H 1.2742 -0.2366 1.0530
O20 O 1.0951(4) -0.1806(5) 1.0699(2)
C40 C 0.7865(6) -0.0628(8) 1.1137(3)
C41 C 0.8594(6) 0.0439(8) 1.1980(3)
H55 H 0.8804 0.1252 1.1820
H56 H 0.9069 -0.0233 1.1949
H57 H 0.8481 0.0587 1.2355
C42 C 1.4047(7) -0.0590(11) 0.9885(5)
H58 H 1.4713 -0.0524 0.9801
C43 C 0.8112(6) -0.2296(8) 1.1819(4)
H59 H 0.8593 -0.2268 1.2109
H60 H 0.7880 -0.3201 1.1777
C44 C 1.3809(7) 0.0022(11) 1.0418(4)
C45 C 0.7014(7) 0.1079(9) 1.1677(4)
H61 H 0.7294 0.1871 1.1538
H62 H 0.6808 0.1247 1.2035
H63 H 0.6483 0.0825 1.1446
C46 C 0.6529(6) -0.1657(9) 1.1514(4)
H64 H 0.5963 -0.1159 1.1588
H65 H 0.6385 -0.2601 1.1516
C47 C 1.3959(8) 0.1482(11) 1.0470(5)
H66 H 1.4622 0.1664 1.0513
H67 H 1.3645 0.1806 1.0780
H68 H 1.3705 0.1919 1.0150
C48 C 1.3386(6) 0.0133(9) 0.9495(4)
H69 H 1.3655 0.0968 0.9379
H70 H 1.3223 -0.0408 0.9180
C49 C 1.3689(8) -0.1970(10) 0.9920(5)
H71 H 1.4128 -0.2528 1.0129
H72 H 1.3584 -0.2355 0.9563
O21 O 1.0744(4) -0.0159(6) 1.1372(3)
C50 C 1.4273(8) -0.0615(17) 1.0910(5)
H73 H 1.4928 -0.0374 1.0936
H74 H 1.4216 -0.1566 1.0882
H75 H 1.3970 -0.0314 1.1228
Bi2 Bi 1.01799(2) 0.18715(2) 0.975928(12)
O22 O 0.9520(4) 0.2945(5) 1.0466(2)
S6 S 0.96382(14) 0.37133(19) 1.09641(8)
C51 C 1.0705(6) 0.3186(8) 1.1256(3)
C52 C 1.2022(7) 0.3278(8) 1.1922(4)
C53 C 1.2340(6) 0.3993(10) 1.2425(4)
C54 C 1.0980(6) 0.5059(8) 1.2014(4)
C55 C 1.1571(7) 0.5965(10) 1.1683(4)
H76 H 1.2215 0.5668 1.1704
C56 C 1.0998(5) 0.3607(8) 1.1816(3)
H77 H 1.2549 0.3378 1.2707
H78 H 1.1537 0.6857 1.1820
C57 C 1.1445(7) 0.4695(9) 1.2564(4)
O23 O 1.2488(4) 0.2593(6) 1.1655(3)
H79 H 1.0701 0.2220 1.1250
O24 O 0.8909(4) 0.3460(6) 1.1313(3)
H80 H 1.1339 0.5948 1.1313
H81 H 1.1195 0.3471 1.1020
C58 C 1.0030(7) 0.5670(10) 1.2065(4)
H82 H 1.2841 0.4620 1.2358
H83 H 0.9697 0.5661 1.1719
C59 C 1.0774(7) 0.3659(10) 1.2767(4)
C60 C 1.0503(6) 0.2887(9) 1.2266(4)
H84 H 0.9682 0.5169 1.2320
H85 H 1.0227 0.4071 1.2919
H86 H 1.0717 0.1972 1.2298
H87 H 1.1083 0.3093 1.3038
H88 H 1.0100 0.6572 1.2189
H89 H 1.1544 0.5455 1.2808
H90 H 0.9825 0.2893 1.2199
O13A O 1.0879(4) 0.2759(5) 0.8913(2)
O18A O 1.1333(4) 0.3565(6) 1.0000(2)
O20A O 0.9049(4) 0.3194(5) 0.9301(2)
Bi2A Bi 0.98201(2) -0.31285(2) 1.024072(12)
Bi2A_2 Bi 0.98201(2) 0.68715(2) 1.024072(12)
O15A O 0.9749(4) 0.5103(5) 1.0847(2)
Cl1 Cl 0.4741(3) -0.1603(4) 0.84551(18)
Cl2 Cl 0.5579(3) 0.0950(4) 0.8464(2)
C61 C 0.5708(9) -0.0652(14) 0.8672(7)
H91 H 0.5773 -0.0678 0.9064
H92 H 0.6276 -0.1023 0.8529
Cl3 Cl 1.0402(3) 0.5807(5) 0.64083(19)
Cl4 Cl 0.9795(4) 0.3270(5) 0.6730(2)
C62 C 0.9496(10) 0.4711(15) 0.6468(8)
H93 H 0.9028 0.5115 0.6691
H94 H 0.9200 0.4563 0.6113
loop_
_geom_bond_atom_site_label_1
_geom_bond_atom_site_label_2
_geom_bond_site_symmetry_1
_geom_bond_site_symmetry_2
Bi1 O1 1_555 1_555
O1 C1 1_555 1_555
O2 Bi1 1_555 1_555
O3 Bi1 1_555 1_555
O4 Bi1 1_555 1_555
O5 Bi1 1_555 1_555
O6 Bi1 1_555 1_555
O7 Bi1 1_555 1_555
O8 Bi1 1_555 1_555
C1 C2 1_555 1_555
S1 O2 1_555 1_555
S2 O3 1_555 1_555
S3 O4 1_555 1_555
C2 C5 1_555 1_555
C3 C1 1_555 1_555
O9 S1 1_555 1_555
C4 S1 1_555 1_555
C5 S2 1_555 1_555
O10 S2 1_555 1_555
O11 S3 1_555 1_555
C6 S3 1_555 1_555
C7 C2 1_555 1_555
C8 C2 1_555 1_555
C9 C3 1_555 1_555
H1 C3 1_555 1_555
H2 C3 1_555 1_555
C10 C4 1_555 1_555
H3 C4 1_555 1_555
H4 C4 1_555 1_555
H5 C5 1_555 1_555
H6 C5 1_555 1_555
C11 C6 1_555 1_555
H7 C6 1_555 1_555
H8 C6 1_555 1_555
C12 C7 1_555 1_555
C13 C7 1_555 1_555
H9 C8 1_555 1_555
H10 C8 1_555 1_555
C14 C8 1_555 1_555
H11 C9 1_555 1_555
C15 C10 1_555 1_555
C16 C10 1_555 1_555
C17 C10 1_555 1_555
C18 C11 1_555 1_555
C19 C11 1_555 1_555
C20 C11 1_555 1_555
H12 C12 1_555 1_555
H13 C12 1_555 1_555
H14 C12 1_555 1_555
H15 C13 1_555 1_555
H16 C13 1_555 1_555
H17 C13 1_555 1_555
H18 C14 1_555 1_555
H19 C14 1_555 1_555
H20 C15 1_555 1_555
H21 C15 1_555 1_555
C21 C15 1_555 1_555
C22 C16 1_555 1_555
C23 C16 1_555 1_555
C24 C16 1_555 1_555
O12 C17 1_555 1_555
C25 C17 1_555 1_555
C26 C18 1_555 1_555
C27 C18 1_555 1_555
C28 C18 1_555 1_555
C29 C19 1_555 1_555
C30 C20 1_555 1_555
H22 C20 1_555 1_555
H23 C20 1_555 1_555
H24 C21 1_555 1_555
H25 C21 1_555 1_555
H26 C22 1_555 1_555
H27 C22 1_555 1_555
H28 C22 1_555 1_555
H29 C23 1_555 1_555
H30 C24 1_555 1_555
H31 C24 1_555 1_555
H32 C24 1_555 1_555
H33 C25 1_555 1_555
H34 C25 1_555 1_555
H35 C26 1_555 1_555
H36 C26 1_555 1_555
H37 C26 1_555 1_555
H38 C27 1_555 1_555
H39 C28 1_555 1_555
H40 C28 1_555 1_555
H41 C28 1_555 1_555
H42 C29 1_555 1_555
H43 C29 1_555 1_555
H44 C30 1_555 1_555
H45 C30 1_555 1_555
S4 O14 1_555 1_555
S5 O16 1_555 1_555
O13 C34 1_555 1_555
O14 Bi2 1_555 1_555
O15 Bi2 1_555 1_555
O17 S5 1_555 1_555
O18 S5 1_555 1_555
C31 H46 1_555 1_555
C32 S4 1_555 1_555
H47 C32 1_555 1_555
H48 C32 1_555 1_555
C33 H49 1_555 1_555
H50 C33 1_555 1_555
C34 C40 1_555 1_555
C35 C32 1_555 1_555
O19 C37 1_555 1_555
C36 S5 1_555 1_555
H51 C36 1_555 1_555
H52 C36 1_555 1_555
C37 C35 1_555 1_555
C38 C31 1_555 1_555
C39 C35 1_555 1_555
H53 C39 1_555 1_555
H54 C39 1_555 1_555
O20 S4 1_555 1_555
C40 C33 1_555 1_555
C41 C38 1_555 1_555
H55 C41 1_555 1_555
H56 C41 1_555 1_555
H57 C41 1_555 1_555
C42 H58 1_555 1_555
C43 C31 1_555 1_555
H59 C43 1_555 1_555
H60 C43 1_555 1_555
C44 C35 1_555 1_555
C45 C38 1_555 1_555
H61 C45 1_555 1_555
H62 C45 1_555 1_555
H63 C45 1_555 1_555
C46 C31 1_555 1_555
H64 C46 1_555 1_555
H65 C46 1_555 1_555
C47 C44 1_555 1_555
H66 C47 1_555 1_555
H67 C47 1_555 1_555
H68 C47 1_555 1_555
C48 C37 1_555 1_555
H69 C48 1_555 1_555
H70 C48 1_555 1_555
C49 C39 1_555 1_555
H71 C49 1_555 1_555
H72 C49 1_555 1_555
O21 S4 1_555 1_555
C50 C44 1_555 1_555
H73 C50 1_555 1_555
H74 C50 1_555 1_555
H75 C50 1_555 1_555
Bi2 O17 1_555 1_555
O22 Bi2 1_555 1_555
S6 O22 1_555 1_555
C51 S6 1_555 1_555
C52 C53 1_555 1_555
C53 H77 1_555 1_555
C54 C55 1_555 1_555
C55 H76 1_555 1_555
C56 C51 1_555 1_555
H78 C55 1_555 1_555
C57 C53 1_555 1_555
O23 C52 1_555 1_555
H79 C51 1_555 1_555
O24 S6 1_555 1_555
H80 C55 1_555 1_555
H81 C51 1_555 1_555
C58 C54 1_555 1_555
H82 C53 1_555 1_555
H83 C58 1_555 1_555
C59 C57 1_555 1_555
C60 C56 1_555 1_555
H84 C58 1_555 1_555
H85 C59 1_555 1_555
H86 C60 1_555 1_555
H87 C59 1_555 1_555
H88 C58 1_555 1_555
H89 C57 1_555 1_555
H90 C60 1_555 1_555
Cl1 C61 1_555 1_555
Cl2 C61 1_555 1_555
C61 H91 1_555 1_555
H92 C61 1_555 1_555
Cl3 C62 1_555 1_555
Cl4 C62 1_555 1_555
C62 H93 1_555 1_555
H94 C62 1_555 1_555
O6A S1 1_555 1_555
O5A S2 1_555 1_555
O8A S3 1_555 1_555
Bi1A O6A 1_555 1_555
Bi1A_2 O5A 1_555 1_555
O7A C19 1_555 1_555
O13A Bi2 1_555 1_555
O18A Bi2 1_555 1_555
O20A Bi2 1_555 1_555
Bi2A O13 1_555 1_555
Bi2A_2 O15A 1_555 1_555
O15A S6 1_555 1_555
C7 C9 1_555 1_555
C9 C14 1_555 1_555
C21 C23 1_555 1_555
C23 C25 1_555 1_555
C27 C29 1_555 1_555
C27 C30 1_555 1_555
O18 Bi2A 1_555 1_555
C33 C46 1_555 1_555
C34 C43 1_555 1_555
O19 Bi2 1_555 1_555
C36 C40 1_555 1_555
C38 C40 1_555 1_555
O20 Bi2A 1_555 1_555
C42 C44 1_555 1_555
C42 C48 1_555 1_555
C42 C49 1_555 1_555
C52 C56 1_555 1_555
C54 C56 1_555 1_555
C54 C57 1_555 1_555
C59 C60 1_555 1_555
O8A Bi1A_2 1_555 1_555
Bi1A_2 O7A 1_555 1_555

#END
