
#######################################################################
#
#                 Cambridge Crystallographic Data Centre
#                                CCDC 
#
#######################################################################
#
# If this CIF has been generated from an entry in the Cambridge 
# Structural Database, then it will include bibliographic, chemical, 
# crystal, experimental, refinement or atomic coordinate data resulting 
# from the CCDC's data processing and validation procedures.
#
#######################################################################

data_LUCKEZ
_symmetry_cell_setting           monoclinic
_symmetry_space_group_name_H-M   'C 2/c'
_symmetry_Int_Tables_number      15
_space_group_name_Hall           '-C 2yn'
loop_
_symmetry_equiv_pos_site_id
_symmetry_equiv_pos_as_xyz
1 x,y,z
2 1/2+x,1/2+y,z
3 -x,y,1/2-z
4 1/2-x,1/2+y,1/2-z
5 -x,-y,-z
6 1/2-x,1/2-y,-z
7 x,-y,1/2+z
8 1/2+x,1/2-y,1/2+z
_cell_length_a                   20.076(1)
_cell_length_b                   16.732(1)
_cell_length_c                   29.573(2)
_cell_angle_alpha                90
_cell_angle_beta                 102.519(3)
_cell_angle_gamma                90
_cell_volume                     9697.73
loop_
_atom_site_label
_atom_site_type_symbol
_atom_site_fract_x
_atom_site_fract_y
_atom_site_fract_z
Ni1 Ni 0.17792(4) 0.14145(4) -0.39673(2)
N1 N 0.1649(3) 0.0700(3) -0.4535(2)
N2 N 0.1062(3) 0.0900(3) -0.4865(1)
N3 N 0.1805(2) 0.2345(3) -0.4410(1)
N4 N 0.1259(3) 0.2386(3) -0.4773(1)
N5 N 0.0766(3) 0.1476(3) -0.3993(1)
N6 N 0.0387(2) 0.1713(3) -0.4416(1)
N7 N 0.2966(3) -0.2845(3) -0.1595(2)
N8 N 0.2068(3) 0.0498(3) -0.3520(2)
C1 C 0.1873(3) -0.0002(3) -0.4665(2)
C2 C 0.1457(4) -0.0248(4) -0.5075(2)
C3 C 0.0950(3) 0.0308(4) -0.5195(2)
C4 C 0.0353(4) 0.0334(4) -0.5582(2)
C5 C 0.2184(3) 0.2996(3) -0.4439(2)
C6 C 0.1889(3) 0.3452(3) -0.4811(2)
C7 C 0.1303(3) 0.3048(4) -0.5019(2)
C8 C 0.0735(4) 0.3287(5) -0.5427(2)
C9 C 0.0360(3) 0.1530(3) -0.3692(2)
C10 C -0.0276(3) 0.1805(4) -0.3909(2)
C11 C -0.0245(3) 0.1930(3) -0.4372(2)
C12 C -0.0770(3) 0.2243(4) -0.4766(2)
C13 C 0.2859(3) -0.2361(4) -0.1879(2)
C14 C 0.2232(3) 0.0009(4) -0.3244(2)
C15 C 0.2504(3) -0.0373(4) -0.4397(2)
C16 C 0.2554(3) -0.1211(4) -0.4355(2)
C17 C 0.3114(4) -0.1563(4) -0.4128(2)
C18 C 0.3698(4) -0.1117(5) -0.3917(3)
C19 C 0.3652(4) -0.0287(4) -0.3952(3)
C20 C 0.3065(3) 0.0077(4) -0.4185(2)
C21 C 0.2829(3) 0.3150(3) -0.4092(2)
C22 C 0.3017(4) 0.3961(4) -0.4007(2)
C23 C 0.3611(4) 0.4125(5) -0.3658(3)
C24 C 0.3993(4) 0.3514(5) -0.3420(3)
C25 C 0.3808(4) 0.2736(5) -0.3516(3)
C26 C 0.3222(3) 0.2558(4) -0.3855(2)
C27 C 0.0587(3) 0.1308(4) -0.3196(2)
C28 C 0.0663(4) 0.0513(5) -0.3070(2)
C29 C 0.0864(4) 0.0334(6) -0.2588(3)
C30 C 0.0978(4) 0.0920(8) -0.2270(2)
C31 C 0.0890(4) 0.1704(6) -0.2392(2)
C32 C 0.0704(4) 0.1910(5) -0.2857(2)
C33 C 0.2706(3) -0.1760(4) -0.2230(2)
C34 C 0.2674(3) -0.1971(4) -0.2695(2)
C35 C 0.2516(3) -0.1375(3) -0.3027(2)
C36 C 0.2432(3) -0.0598(4) -0.2901(2)
C37 C 0.2468(4) -0.0389(4) -0.2431(2)
C38 C 0.2623(3) -0.0984(4) -0.2097(2)
B1 B 0.0714(4) 0.1700(4) -0.4842(2)
H1 H 0.0373 0.1800 -0.5118
H2 H 0.1516 -0.0725 -0.5239
H3 H 0.0351 0.0828 -0.5745
H4 H -0.0054 0.0292 -0.5463
H5 H 0.0375 -0.0106 -0.5786
H6 H 0.2053 0.3948 -0.4913
H7 H 0.2164 -0.1518 -0.4505
H8 H 0.3130 -0.2140 -0.4096
H9 H 0.4111 -0.1368 -0.3758
H10 H 0.4039 0.0039 -0.3809
H11 H 0.3046 0.0655 -0.4198
H12 H 0.0859 0.3774 -0.5560
H13 H 0.0320 0.3360 -0.5325
H14 H 0.0677 0.2870 -0.5657
H15 H 0.2757 0.4377 -0.4178
H16 H 0.3720 0.4679 -0.3589
H17 H 0.4418 0.3625 -0.3191
H18 H 0.4071 0.2308 -0.3348
H19 H 0.3103 0.2011 -0.3914
H20 H -0.0667 0.1896 -0.3771
H21 H -0.0625 0.2753 -0.4859
H22 H -0.1195 0.2301 -0.4672
H23 H -0.0825 0.1877 -0.5022
H24 H 0.0601 0.0113 -0.3309
H25 H 0.0887 -0.0241 -0.2498
H26 H 0.1144 0.0772 -0.1953
H27 H 0.0963 0.2098 -0.2145
H28 H 0.0661 0.2482 -0.2952
H29 H 0.2757 -0.2501 -0.2784
H30 H 0.2465 -0.1507 -0.3347
H31 H 0.2388 0.0152 -0.2342
H32 H 0.2687 -0.0854 -0.1779
N7C N 0.2034(3) 0.2155(3) -0.3405(2)
Ni1C Ni 0.32208(4) -0.35855(4) -0.10327(2)
Cl1 Cl 0.0182 0.5517 -0.9501
Cl2 Cl 0.0656 0.6101 -0.8536
C39 C 0.0876 0.5762 -0.9064
Cl3 Cl 0.3606(3) 0.8773(3) -0.7595(2)
Cl4 Cl 0.4727(3) 0.8919(4) -0.6781(2)
C40 C 0.3859 0.9092 -0.7035
Cl5 Cl 0.0705(3) 0.5983(4) -0.7344(2)
C41 C 0.0000 0.558(2) -0.7500
Cl5B Cl -0.0705(3) 0.5983(4) -0.7656(2)
S1 S 0.25567(9) -0.1202(1) -0.62189(5)
F1 F 0.3767(3) -0.1403(3) -0.5685(2)
F2 F 0.2944(3) -0.1872(3) -0.5405(1)
F3 F 0.3106(3) -0.0612(3) -0.5400(1)
O1 O 0.2691(3) -0.1932(3) -0.6436(2)
O2 O 0.2799(3) -0.0496(3) -0.6408(2)
O3 O 0.1899(3) -0.1127(4) -0.6109(2)
C42 C 0.3115(4) -0.1285(4) -0.5651(3)
C43 C 0.6109 0.3774 -0.3895
C44 C 0.5974 0.3592 -0.3818
C45 C 0.5781 0.3156 -0.3687
C46 C 0.5866 0.2704 -0.3435
C47 C 0.5853 0.3233 -0.2967
C48 C 0.5795 0.2686 -0.2837
Cl6? Cl 0.0408 0.4762 -0.8874
Cl7? Cl 0.0723 0.6402 -0.8845
loop_
_geom_bond_atom_site_label_1
_geom_bond_atom_site_label_2
_geom_bond_site_symmetry_1
_geom_bond_site_symmetry_2
Ni1 N1 1_555 1_555
N1 N2 1_555 1_555
N2 C3 1_555 1_555
N3 Ni1 1_555 1_555
N4 N3 1_555 1_555
N5 Ni1 1_555 1_555
N6 N5 1_555 1_555
N7 C13 1_555 1_555
N8 Ni1 1_555 1_555
C1 N1 1_555 1_555
C2 C1 1_555 1_555
C3 C2 1_555 1_555
C4 C3 1_555 1_555
C5 N3 1_555 1_555
C6 C5 1_555 1_555
C7 N4 1_555 1_555
C8 C7 1_555 1_555
C9 N5 1_555 1_555
C10 C9 1_555 1_555
C11 N6 1_555 1_555
C12 C11 1_555 1_555
C13 C33 1_555 1_555
C14 N8 1_555 1_555
C15 C1 1_555 1_555
C16 C15 1_555 1_555
C17 C16 1_555 1_555
C18 C17 1_555 1_555
C19 C18 1_555 1_555
C20 C15 1_555 1_555
C21 C5 1_555 1_555
C22 C21 1_555 1_555
C23 C22 1_555 1_555
C24 C23 1_555 1_555
C25 C24 1_555 1_555
C26 C21 1_555 1_555
C27 C9 1_555 1_555
C28 C27 1_555 1_555
C29 C28 1_555 1_555
C30 C29 1_555 1_555
C31 C30 1_555 1_555
C32 C27 1_555 1_555
C33 C34 1_555 1_555
C34 C35 1_555 1_555
C35 C36 1_555 1_555
C36 C14 1_555 1_555
C37 C36 1_555 1_555
C38 C33 1_555 1_555
B1 N2 1_555 1_555
H1 B1 1_555 1_555
H2 C2 1_555 1_555
H3 C4 1_555 1_555
H4 C4 1_555 1_555
H5 C4 1_555 1_555
H6 C6 1_555 1_555
H7 C16 1_555 1_555
H8 C17 1_555 1_555
H9 C18 1_555 1_555
H10 C19 1_555 1_555
H11 C20 1_555 1_555
H12 C8 1_555 1_555
H13 C8 1_555 1_555
H14 C8 1_555 1_555
H15 C22 1_555 1_555
H16 C23 1_555 1_555
H17 C24 1_555 1_555
H18 C25 1_555 1_555
H19 C26 1_555 1_555
H20 C10 1_555 1_555
H21 C12 1_555 1_555
H22 C12 1_555 1_555
H23 C12 1_555 1_555
H24 C28 1_555 1_555
H25 C29 1_555 1_555
H26 C30 1_555 1_555
H27 C31 1_555 1_555
H28 C32 1_555 1_555
H29 C34 1_555 1_555
H30 C35 1_555 1_555
H31 C37 1_555 1_555
H32 C38 1_555 1_555
Cl1 C39 1_555 1_555
Cl2 C39 1_555 1_555
Cl3 C40 1_555 1_555
Cl4 C40 1_555 1_555
Cl5 C41 1_555 1_555
C41 Cl5B 1_555 1_555
S1 O1 1_555 1_555
F1 C42 1_555 1_555
F2 C42 1_555 1_555
F3 C42 1_555 1_555
O2 S1 1_555 1_555
O3 S1 1_555 1_555
C42 S1 1_555 1_555
C43 C44 1_555 1_555
C44 C45 1_555 1_555
C45 C46 1_555 1_555
C46 C47 1_555 1_555
C47 C48 1_555 1_555
N7C Ni1 1_555 1_555
Ni1C N7 1_555 1_555
N4 B1 1_555 1_555
N6 B1 1_555 1_555
C6 C7 1_555 1_555
C10 C11 1_555 1_555
C19 C20 1_555 1_555
C25 C26 1_555 1_555
C31 C32 1_555 1_555
C37 C38 1_555 1_555

#END
