
#######################################################################
#
#                 Cambridge Crystallographic Data Centre
#                                CCDC 
#
#######################################################################
#
# If this CIF has been generated from an entry in the Cambridge 
# Structural Database, then it will include bibliographic, chemical, 
# crystal, experimental, refinement or atomic coordinate data resulting 
# from the CCDC's data processing and validation procedures.
#
#######################################################################

data_LUCREH
_symmetry_cell_setting           orthorhombic
_symmetry_space_group_name_H-M   'P b c n'
_symmetry_Int_Tables_number      60
_space_group_name_Hall           '-P 2n 2ab'
loop_
_symmetry_equiv_pos_site_id
_symmetry_equiv_pos_as_xyz
1 x,y,z
2 1/2-x,1/2-y,1/2+z
3 1/2+x,1/2-y,-z
4 -x,y,1/2-z
5 -x,-y,-z
6 1/2+x,1/2+y,1/2-z
7 1/2-x,1/2+y,z
8 x,-y,1/2+z
_cell_length_a                   6.730(3)
_cell_length_b                   14.156(6)
_cell_length_c                   7.299(3)
_cell_angle_alpha                90
_cell_angle_beta                 90
_cell_angle_gamma                90
_cell_volume                     695.375
loop_
_atom_site_label
_atom_site_type_symbol
_atom_site_fract_x
_atom_site_fract_y
_atom_site_fract_z
Zn1 Zn 0.0000 0.28840(5) 0.2500
O1 O 0.2682(5) 0.2520(2) 0.4095(4)
N1 N 0.0000 0.1466(3) 0.2500
C1 C 0.2823(6) 0.1660(3) 0.4419(6)
O2 O 0.3938(4) 0.1280(2) 0.5594(4)
C2 C 0.1448(6) 0.1007(3) 0.3365(6)
C3 C 0.1519(6) 0.0026(3) 0.3370(6)
H1 H 0.2553 -0.0296 0.3940
C4 C 0.0000 -0.0457(4) 0.2500
H2 H 0.0000 -0.1114 0.2500
Zn1A Zn 0.5000 0.21160(5) 0.7500
Zn1A_2 Zn -0.5000 0.21160(5) -0.2500
O1C O -0.2682(5) 0.2520(2) 0.0905(4)
C1C C -0.2823(6) 0.1660(3) 0.0581(6)
O2C O -0.3938(4) 0.1280(2) -0.0594(4)
O2A O 0.1062(4) 0.3720(2) 0.0594(4)
O2B O -0.1062(4) 0.3720(2) 0.4406(4)
C2C C -0.1448(6) 0.1007(3) 0.1635(6)
C3C C -0.1519(6) 0.0026(3) 0.1630(6)
H1C H -0.2553 -0.0296 0.1060
loop_
_geom_bond_atom_site_label_1
_geom_bond_atom_site_label_2
_geom_bond_site_symmetry_1
_geom_bond_site_symmetry_2
Zn1 O1 1_555 1_555
O1 C1 1_555 1_555
N1 Zn1 1_555 1_555
C1 O2 1_555 1_555
O2 Zn1A 1_555 1_555
C2 N1 1_555 1_555
C3 C2 1_555 1_555
H1 C3 1_555 1_555
C4 C3 1_555 1_555
H2 C4 1_555 1_555
Zn1A_2 O2C 1_555 1_555
O1C Zn1 1_555 1_555
C1C O1C 1_555 1_555
O2C C1C 1_555 1_555
O2A Zn1 1_555 1_555
O2B Zn1 1_555 1_555
C2C N1 1_555 1_555
C3C C4 1_555 1_555
H1C C3C 1_555 1_555
C1 C2 1_555 1_555
C1C C2C 1_555 1_555
C2C C3C 1_555 1_555

#END
