
#######################################################################
#
#                 Cambridge Crystallographic Data Centre
#                                CCDC 
#
#######################################################################
#
# If this CIF has been generated from an entry in the Cambridge 
# Structural Database, then it will include bibliographic, chemical, 
# crystal, experimental, refinement or atomic coordinate data resulting 
# from the CCDC's data processing and validation procedures.
#
#######################################################################

data_LUCZIS
_symmetry_cell_setting           triclinic
_symmetry_space_group_name_H-M   'P -1'
_symmetry_Int_Tables_number      2
_space_group_name_Hall           '-P 1'
loop_
_symmetry_equiv_pos_site_id
_symmetry_equiv_pos_as_xyz
1 x,y,z
2 -x,-y,-z
_cell_length_a                   7.5320(5)
_cell_length_b                   8.9050(5)
_cell_length_c                   9.7850(6)
_cell_angle_alpha                64.861(4)
_cell_angle_beta                 76.416(3)
_cell_angle_gamma                73.120(3)
_cell_volume                     563.81
loop_
_atom_site_label
_atom_site_type_symbol
_atom_site_fract_x
_atom_site_fract_y
_atom_site_fract_z
Ga1 Ga -0.1690(1) -0.1547(1) -0.2021(1)
Fe1 Fe 0.0000 0.0000 0.0000
N1 N -0.6043(5) 0.0583(4) -0.6248(4)
C1 C -0.1710(6) 0.0404(5) -0.1554(4)
C2 C 0.2766(6) -0.0839(5) 0.0290(5)
C3 C -0.2097(6) 0.2118(5) -0.0203(5)
C4 C -0.0605(6) 0.2517(5) -0.1400(5)
C5 C -0.0376(6) 0.1472(5) -0.2217(5)
C6 C -0.0582(6) 0.2092(6) 0.3375(5)
C7 C 0.2786(6) 0.3375(5) 0.0342(5)
C8 C -0.6084(5) 0.1593(5) -0.5527(4)
C9 C -0.7129(6) 0.3279(5) -0.6012(4)
C10 C -0.7276(6) 0.4316(5) -0.5272(4)
C11 C -0.6326(5) 0.3694(5) -0.3972(4)
C12 C -0.5241(6) 0.2104(5) -0.3490(4)
C13 C -0.4945(5) -0.0991(5) -0.5758(4)
H1 H -0.3760 0.0341 0.0381
H2 H 0.2563 -0.2624 -0.0528
H3 H -0.0106 -0.3333 0.1614
H4 H -0.0529 -0.1477 0.3077
H5 H -0.1573 0.1616 0.3322
H6 H -0.1003 0.3328 0.3049
H7 H -0.0294 0.1602 0.4424
H8 H 0.3446 0.2979 -0.0474
H9 H 0.3668 0.3682 0.0721
H10 H 0.1787 0.4372 -0.0053
H11 H -0.7754 0.3708 -0.6884
H12 H -0.8005 0.5443 -0.5619
H13 H -0.6456 0.4403 -0.3437
H14 H -0.4594 0.1724 -0.2638
C13A C -0.5055(5) 0.0991(5) -0.4242(4)
N1A N -0.3957(5) -0.0583(4) -0.3752(4)
Ga1A Ga -0.8310(1) 0.1547(1) -0.7979(1)
C1A C 0.1710(6) -0.0404(5) 0.1554(4)
Ga1A_2 Ga 0.1690(1) 0.1547(1) 0.2021(1)
N1_2 N 0.3957(5) 0.0583(4) 0.3752(4)
C2A C -0.2766(6) 0.0839(5) -0.0290(5)
C3A C 0.2097(6) -0.2118(5) 0.0203(5)
H1A H 0.3760 -0.0341 -0.0381
C4A C 0.0605(6) -0.2517(5) 0.1400(5)
C5A C 0.0376(6) -0.1472(5) 0.2217(5)
H4A H 0.0529 0.1477 -0.3077
H3A H 0.0106 0.3333 -0.1614
H2A H -0.2563 0.2624 0.0528
C6A C 0.0582(6) -0.2092(6) -0.3375(5)
H5A H 0.1573 -0.1616 -0.3322
H6A H 0.1003 -0.3328 -0.3049
H7A H 0.0294 -0.1602 -0.4424
C7A C -0.2786(6) -0.3375(5) -0.0342(5)
H8A H -0.3446 -0.2979 0.0474
H9A H -0.3668 -0.3682 -0.0721
H10A H -0.1787 -0.4372 0.0053
C8A C -0.3916(5) -0.1593(5) -0.4473(4)
C9A C -0.2871(6) -0.3279(5) -0.3988(4)
C10A C -0.2724(6) -0.4316(5) -0.4728(4)
C11A C -0.3674(5) -0.3694(5) -0.6028(4)
C12A C -0.4759(6) -0.2104(5) -0.6510(4)
H14A H -0.5406 -0.1724 -0.7362
H13A H -0.3544 -0.4403 -0.6563
H12A H -0.1995 -0.5443 -0.4381
H11A H -0.2246 -0.3708 -0.3116
loop_
_geom_bond_atom_site_label_1
_geom_bond_atom_site_label_2
_geom_bond_site_symmetry_1
_geom_bond_site_symmetry_2
Ga1 C1 1_555 1_555
Fe1 C1 1_555 1_555
N1 C8 1_555 1_555
C1 C5 1_555 1_555
C2 Fe1 1_555 1_555
C3 Fe1 1_555 1_555
C4 Fe1 1_555 1_555
C5 Fe1 1_555 1_555
C6 H5 1_555 1_555
C7 H8 1_555 1_555
C8 C9 1_555 1_555
C9 C10 1_555 1_555
C10 C11 1_555 1_555
C11 C12 1_555 1_555
C12 H14 1_555 1_555
C13 N1 1_555 1_555
H1 C2A 1_555 1_555
H2 C3A 1_555 1_555
H3 C4A 1_555 1_555
H4 C5A 1_555 1_555
H6 C6 1_555 1_555
H7 C6 1_555 1_555
H9 C7 1_555 1_555
H10 C7 1_555 1_555
H11 C9 1_555 1_555
H12 C10 1_555 1_555
H13 C11 1_555 1_555
C13A C8 1_555 1_555
N1A Ga1 1_555 1_555
Ga1A N1 1_555 1_555
C1A Fe1 1_555 1_555
Ga1A_2 C6 1_555 1_555
N1_2 Ga1A_2 1_555 1_555
C2A Fe1 1_555 1_555
C3A Fe1 1_555 1_555
H1A C2 1_555 1_555
C4A Fe1 1_555 1_555
C5A Fe1 1_555 1_555
H4A C5 1_555 1_555
H3A C4 1_555 1_555
H2A C3 1_555 1_555
C6A Ga1 1_555 1_555
H5A C6A 1_555 1_555
H6A C6A 1_555 1_555
H7A C6A 1_555 1_555
C7A Ga1 1_555 1_555
H8A C7A 1_555 1_555
H9A C7A 1_555 1_555
H10A C7A 1_555 1_555
C8A C13 1_555 1_555
C9A C8A 1_555 1_555
C10A C9A 1_555 1_555
C11A C10A 1_555 1_555
C12A C13 1_555 1_555
H14A C12A 1_555 1_555
H13A C11A 1_555 1_555
H12A C10A 1_555 1_555
H11A C9A 1_555 1_555
C1 C2A 1_555 1_555
C2 C1A 1_555 1_555
C2 C3A 1_555 1_555
C3 C4 1_555 1_555
C3 C2A 1_555 1_555
C4 C5 1_555 1_555
C7 Ga1A_2 1_555 1_555
C12 C13A 1_555 1_555
C13A N1A 1_555 1_555
N1A C8A 1_555 1_555
C1A Ga1A_2 1_555 1_555
C1A C5A 1_555 1_555
C3A C4A 1_555 1_555
C4A C5A 1_555 1_555
C11A C12A 1_555 1_555

#END
