
#######################################################################
#
#                 Cambridge Crystallographic Data Centre
#                                CCDC 
#
#######################################################################
#
# If this CIF has been generated from an entry in the Cambridge 
# Structural Database, then it will include bibliographic, chemical, 
# crystal, experimental, refinement or atomic coordinate data resulting 
# from the CCDC's data processing and validation procedures.
#
#######################################################################

data_LUDBOC
_symmetry_cell_setting           monoclinic
_symmetry_space_group_name_H-M   'P 21/c'
_symmetry_Int_Tables_number      14
_space_group_name_Hall           '-P 2ybc'
loop_
_symmetry_equiv_pos_site_id
_symmetry_equiv_pos_as_xyz
1 x,y,z
2 -x,1/2+y,1/2-z
3 -x,-y,-z
4 x,1/2-y,1/2+z
_cell_length_a                   6.323216(9)
_cell_length_b                   19.10752(3)
_cell_length_c                   7.930492(13)
_cell_angle_alpha                90
_cell_angle_beta                 96.37339(17)
_cell_angle_gamma                90
_cell_volume                     952.248
loop_
_atom_site_label
_atom_site_type_symbol
_atom_site_fract_x
_atom_site_fract_y
_atom_site_fract_z
Ni1 Ni 0.4759(3) -0.01945(9) 0.8127(2)
Ni2 Ni 0.00000 0.00000 1.00000
S1 S -0.3290(6) 0.2283(2) 0.6854(5)
O1 O 0.2440(11) -0.0097(4) 0.6036(9)
O2 O 0.6674(11) -0.0787(4) 0.6491(9)
O3 O 0.3130(11) 0.0324(4) 0.9824(9)
O4 O -0.3719(14) 0.3827(4) 0.6439(11)
O5 O -0.0787(13) 0.0405(4) 0.7596(10)
O6 O -0.4158(15) 0.0769(4) 0.7361(10)
O7 O -0.0313(12) 0.4022(4) 0.6192(10)
C1 C -0.188(2) 0.3607(7) 0.6353(16)
C2 C -0.127(2) 0.2849(7) 0.6477(16)
C3 C 0.0634(20) 0.2543(6) 0.6390(16)
C4 C 0.054(2) 0.1800(6) 0.6646(15)
C5 C -0.148(2) 0.1583(6) 0.6925(15)
C6 C -0.222(2) 0.0873(8) 0.7331(15)
Ni1B Ni -0.4759(3) 0.01945(9) 1.1873(2)
Ni1B_2 Ni 0.5241(3) 0.01945(9) 1.1873(2)
Ni1A Ni -0.4759(3) 0.48055(9) 0.6873(2)
Ni1_2 Ni -0.5241(3) -0.01945(9) 0.8127(2)
Ni1C Ni 0.4759(3) -0.48055(9) 1.3127(2)
Ni2A Ni 0.00000 0.50000 0.50000
Ni2A_2 Ni 0.00000 -0.50000 1.50000
S1B S 0.3290(6) -0.2283(2) 1.3146(5)
O1B O -0.2440(11) 0.0097(4) 1.3964(9)
O2B O -0.6674(11) 0.0787(4) 1.3509(9)
O3B O -0.3130(11) -0.0324(4) 1.0176(9)
O3B_2 O 0.6870(11) -0.0324(4) 1.0176(9)
O3_2 O -0.6870(11) 0.0324(4) 0.9824(9)
O4B O 0.3719(14) -0.3827(4) 1.3561(11)
O4A O 0.3719(14) -0.1173(4) 0.8561(11)
O4C O -0.3719(14) 0.1173(4) 1.1439(11)
O5B O 0.0787(13) -0.0405(4) 1.2404(10)
O6B O 0.4158(15) -0.0769(4) 1.2639(10)
O6_2 O 0.5842(15) 0.0769(4) 0.7361(10)
O6B_2 O -0.5842(15) -0.0769(4) 1.2639(10)
O7B O 0.0313(12) -0.4022(4) 1.3808(10)
O7A O 0.0313(12) -0.0978(4) 0.8808(10)
O7C O -0.0313(12) 0.0978(4) 1.1192(10)
C1B C 0.188(2) -0.3607(7) 1.3647(16)
C2B C 0.127(2) -0.2849(7) 1.3523(16)
C3B C -0.0634(20) -0.2543(6) 1.3610(16)
C4B C -0.054(2) -0.1800(6) 1.3354(15)
C5B C 0.148(2) -0.1583(6) 1.3075(15)
C6B C 0.222(2) -0.0873(8) 1.2669(15)
loop_
_geom_bond_atom_site_label_1
_geom_bond_atom_site_label_2
_geom_bond_site_symmetry_1
_geom_bond_site_symmetry_2
Ni1 O1 1_555 1_555
Ni2 O3 1_555 1_555
S1 C2 1_555 1_555
O2 Ni1 1_555 1_555
O3 Ni1 1_555 1_555
O4 C1 1_555 1_555
O5 Ni2 1_555 1_555
O6 C6 1_555 1_555
O7 C1 1_555 1_555
C1 C2 1_555 1_555
C2 C3 1_555 1_555
C3 C4 1_555 1_555
C4 C5 1_555 1_555
C5 S1 1_555 1_555
C6 O5 1_555 1_555
Ni1B O1B 1_555 1_555
Ni1B_2 O3 1_555 1_555
Ni1A O4 1_555 1_555
Ni1_2 O6 1_555 1_555
Ni1C O4B 1_555 1_555
Ni2A O7 1_555 1_555
Ni2A_2 O7B 1_555 1_555
S1B C2B 1_555 1_555
O2B Ni1B 1_555 1_555
O3B Ni2 1_555 1_555
O3B_2 Ni1 1_555 1_555
O3_2 Ni1B 1_555 1_555
O4B C1B 1_555 1_555
O4A Ni1 1_555 1_555
O4C Ni1B 1_555 1_555
O5B Ni2 1_555 1_555
O6B Ni1B_2 1_555 1_555
O6_2 Ni1 1_555 1_555
O6B_2 Ni1B 1_555 1_555
O7B C1B 1_555 1_555
O7A Ni2 1_555 1_555
O7C Ni2 1_555 1_555
C1B C2B 1_555 1_555
C2B C3B 1_555 1_555
C3B C4B 1_555 1_555
C4B C5B 1_555 1_555
C5B S1B 1_555 1_555
C6B O5B 1_555 1_555
C5 C6 1_555 1_555
Ni1B O3B 1_555 1_555
Ni1B_2 O3B_2 1_555 1_555
Ni1_2 O3B 1_555 1_555
Ni1_2 O3_2 1_555 1_555
O6B C6B 1_555 1_555
C5B C6B 1_555 1_555

#END
