
#######################################################################
#
#                 Cambridge Crystallographic Data Centre
#                                CCDC 
#
#######################################################################
#
# If this CIF has been generated from an entry in the Cambridge 
# Structural Database, then it will include bibliographic, chemical, 
# crystal, experimental, refinement or atomic coordinate data resulting 
# from the CCDC's data processing and validation procedures.
#
#######################################################################

data_LUDGEY
_symmetry_cell_setting           orthorhombic
_symmetry_space_group_name_H-M   'P 21 21 2'
_symmetry_Int_Tables_number      18
_space_group_name_Hall           'P 2 2ab'
loop_
_symmetry_equiv_pos_site_id
_symmetry_equiv_pos_as_xyz
1 x,y,z
2 -x,-y,z
3 1/2-x,1/2+y,-z
4 1/2+x,1/2-y,-z
_cell_length_a                   14.6035(11)
_cell_length_b                   18.8647(15)
_cell_length_c                   11.0673(9)
_cell_angle_alpha                90
_cell_angle_beta                 90
_cell_angle_gamma                90
_cell_volume                     3048.94
loop_
_atom_site_label
_atom_site_type_symbol
_atom_site_fract_x
_atom_site_fract_y
_atom_site_fract_z
Ni1 Ni 1.0000 1.0000 0.39512(3)
S1 S 0.76899(4) 0.96083(4) 0.36044(6)
O1 O 0.86210(12) 0.93624(9) 0.38322(16)
O2 O 0.75562(13) 1.03356(10) 0.40288(18)
O3 O 0.70112(13) 0.91167(11) 0.40709(18)
O4 O 1.07163(13) 0.90783(9) 0.40843(16)
H1 H 1.0464 0.8761 0.3653
H2 H 1.1292 0.9141 0.4056
N1 N 1.0000 1.0000 0.2147(2)
N2 N 1.0000 1.0000 -0.4239(2)
N3 N 0.72511(17) 0.95892(14) -0.1711(2)
H3 H 0.7109 0.9197 -0.2060
H4 H 0.7334 0.9966 -0.2136
C1 C 0.98005(17) 0.94119(12) 0.1520(2)
H5 H 0.9656 0.9001 0.1943
C2 C 0.98000(17) 0.93911(13) 0.0278(2)
H6 H 0.9666 0.8970 -0.0122
C3 C 1.0000 1.0000 -0.0378(3)
C4 C 1.0000 1.0000 -0.1720(3)
C5 C 0.9531(2) 0.94861(14) -0.2380(2)
H7 H 0.9206 0.9131 -0.1984
C6 C 0.9552(2) 0.95078(14) -0.3617(2)
H8 H 0.9236 0.9160 -0.4042
C7 C 0.75328(17) 0.96260(14) 0.2023(3)
C8 C 0.76809(17) 1.02404(13) 0.1361(3)
H9 H 0.7842 1.0656 0.1762
C9 C 0.75931(18) 1.02463(15) 0.0109(3)
C10 C 0.73450(18) 0.96144(15) -0.0487(3)
C11 C 0.7211(2) 0.90070(16) 0.0191(3)
H10 H 0.7052 0.8588 -0.0200
C12 C 0.7305(2) 0.90066(14) 0.1428(3)
H11 H 0.7216 0.8590 0.1862
C13 C 0.7764(2) 1.09107(14) -0.0605(3)
H12 H 0.7971 1.1279 -0.0072
H13 H 0.7206 1.1057 -0.0991
H14 H 0.8223 1.0821 -0.1207
C1A C 1.01995(17) 1.05881(12) 0.1520(2)
H5A H 1.0344 1.0999 0.1943
C2A C 1.02000(17) 1.06089(13) 0.0278(2)
H6A H 1.0334 1.1030 -0.0122
C5A C 1.0469(2) 1.05139(14) -0.2380(2)
H7A H 1.0794 1.0869 -0.1984
C6A C 1.0448(2) 1.04922(14) -0.3617(2)
H8A H 1.0764 1.0840 -0.4042
S1A S 1.23101(4) 1.03917(4) 0.36044(6)
O1A O 1.13790(12) 1.06376(9) 0.38322(16)
O2A O 1.24438(13) 0.96644(10) 0.40288(18)
O3A O 1.29888(13) 1.08833(11) 0.40709(18)
O4A O 0.92837(13) 1.09217(9) 0.40843(16)
H1A H 0.9536 1.1239 0.3653
H2A H 0.8708 1.0859 0.4056
N3A N 1.27489(17) 1.04108(14) -0.1711(2)
H3A H 1.2891 1.0803 -0.2060
H4A H 1.2666 1.0034 -0.2136
C7A C 1.24672(17) 1.03740(14) 0.2023(3)
C8A C 1.23191(17) 0.97596(13) 0.1361(3)
H9A H 1.2158 0.9344 0.1762
C9A C 1.24069(18) 0.97537(15) 0.0109(3)
C10A C 1.26550(18) 1.03856(15) -0.0487(3)
C11A C 1.2789(2) 1.09930(16) 0.0191(3)
H10A H 1.2948 1.1412 -0.0200
C12A C 1.2695(2) 1.09934(14) 0.1428(3)
H11A H 1.2784 1.1410 0.1862
C13A C 1.2236(2) 0.90893(14) -0.0605(3)
H12A H 1.2029 0.8721 -0.0072
H13A H 1.2794 0.8943 -0.0991
H14A H 1.1777 0.9179 -0.1207
Ni1_2 Ni 1.0000 1.0000 -0.60488(3)
N2_2 N 1.0000 1.0000 0.5761(2)
Ni2 Ni 0.5000 1.0000 0.58858(3)
O5 O 0.57197(13) 0.90895(9) 0.57896(16)
H15 H 0.6215 0.9160 0.5404
H16 H 0.5823 0.8802 0.6366
O6 O 0.35959(13) 0.93384(10) 0.59964(18)
H17 H 0.3704 0.8901 0.5876
H18 H 0.3221 0.9425 0.5428
N4 N 0.5000 1.0000 0.7680(2)
N5 N 0.5000 1.0000 1.4085(2)
C14 C 0.47767(17) 0.94208(13) 0.8312(2)
H19 H 0.4611 0.9013 0.7892
C15 C 0.47808(17) 0.94009(13) 0.9552(2)
H20 H 0.4635 0.8982 0.9952
C16 C 0.5000 1.0000 1.0205(3)
C17 C 0.5000 1.0000 1.1551(3)
C18 C 0.46897(19) 0.94237(14) 1.2214(2)
H21 H 0.4469 0.9025 1.1816
C19 C 0.47064(19) 0.94381(14) 1.3456(2)
H22 H 0.4505 0.9041 1.3876
C14A C 0.52233(17) 1.05792(13) 0.8312(2)
H19A H 0.5389 1.0987 0.7892
C15A C 0.52192(17) 1.05991(13) 0.9552(2)
H20A H 0.5365 1.1018 0.9952
C18A C 0.53103(19) 1.05763(14) 1.2214(2)
H21A H 0.5531 1.0975 1.1816
C19A C 0.52936(19) 1.05619(14) 1.3456(2)
H22A H 0.5495 1.0959 1.3876
O5A O 0.42803(13) 1.09105(9) 0.57896(16)
H15A H 0.3785 1.0840 0.5404
H16A H 0.4177 1.1198 0.6366
O6A O 0.64041(13) 1.06616(10) 0.59964(18)
H17A H 0.6296 1.1099 0.5876
H18A H 0.6779 1.0575 0.5428
Ni2_2 Ni 0.5000 1.0000 1.58858(3)
N5_2 N 0.5000 1.0000 0.4085(2)
S2 S 0.59017(4) 0.74859(4) -0.21305(5)
O7 O 0.61647(14) 0.82174(9) -0.23589(16)
O8 O 0.66831(13) 0.70376(10) -0.19041(18)
O9 O 0.53081(12) 0.72128(10) -0.30879(16)
N6 N 0.36820(17) 0.75492(19) 0.2363(2)
H23 H 0.3095 0.7570 0.2316
H24 H 0.3945 0.7543 0.3059
C20 C 0.52328(15) 0.74852(14) -0.0801(2)
C21 C 0.56582(16) 0.74655(17) 0.0321(2)
H25 H 0.6294 0.7441 0.0355
C22 C 0.51648(16) 0.74810(15) 0.1395(2)
C23 C 0.42019(17) 0.75256(16) 0.1326(2)
C24 C 0.37785(17) 0.7536(2) 0.0204(2)
H26 H 0.3143 0.7555 0.0161
C25 C 0.42826(16) 0.75176(15) -0.0846(2)
H27 H 0.3986 0.7527 -0.1590
C26 C 0.5640(2) 0.7446(2) 0.2599(2)
H28 H 0.6283 0.7368 0.2478
H29 H 0.5389 0.7064 0.3066
H30 H 0.5551 0.7885 0.3023
O10 O 0.39772(16) 0.78984(13) 0.5427(3)
H31 H 0.4401 0.7776 0.5866
C27 C 0.3229(3) 0.7442(2) 0.5601(4)
H32 H 0.3137 0.7372 0.6460
H33 H 0.3369 0.6985 0.5244
C28 C 0.2385(2) 0.7713(3) 0.5070(3)
H34 H 0.2132 0.8072 0.5586
H35 H 0.1953 0.7333 0.4983
H36 H 0.2515 0.7913 0.4291
loop_
_geom_bond_atom_site_label_1
_geom_bond_atom_site_label_2
_geom_bond_site_symmetry_1
_geom_bond_site_symmetry_2
Ni1 O1 1_555 1_555
S1 O1 1_555 1_555
O2 S1 1_555 1_555
O3 S1 1_555 1_555
O4 Ni1 1_555 1_555
H1 O4 1_555 1_555
H2 O4 1_555 1_555
N1 Ni1 1_555 1_555
N2 C6 1_555 1_555
N3 H3 1_555 1_555
H4 N3 1_555 1_555
C1 N1 1_555 1_555
H5 C1 1_555 1_555
C2 C1 1_555 1_555
H6 C2 1_555 1_555
C3 C2 1_555 1_555
C4 C3 1_555 1_555
C5 C4 1_555 1_555
H7 C5 1_555 1_555
C6 C5 1_555 1_555
H8 C6 1_555 1_555
C7 S1 1_555 1_555
C8 C7 1_555 1_555
H9 C8 1_555 1_555
C9 C8 1_555 1_555
C10 N3 1_555 1_555
C11 C10 1_555 1_555
H10 C11 1_555 1_555
C12 C7 1_555 1_555
H11 C12 1_555 1_555
C13 C9 1_555 1_555
H12 C13 1_555 1_555
H13 C13 1_555 1_555
H14 C13 1_555 1_555
Ni2 O5 1_555 1_555
O5 H15 1_555 1_555
H16 O5 1_555 1_555
O6 Ni2 1_555 1_555
H17 O6 1_555 1_555
H18 O6 1_555 1_555
N4 Ni2 1_555 1_555
N5 C19 1_555 1_555
C14 N4 1_555 1_555
H19 C14 1_555 1_555
C15 C14 1_555 1_555
H20 C15 1_555 1_555
C16 C15 1_555 1_555
C17 C16 1_555 1_555
C18 C17 1_555 1_555
H21 C18 1_555 1_555
C19 C18 1_555 1_555
H22 C19 1_555 1_555
S2 O7 1_555 1_555
O8 S2 1_555 1_555
O9 S2 1_555 1_555
N6 H23 1_555 1_555
H24 N6 1_555 1_555
C20 S2 1_555 1_555
C21 C20 1_555 1_555
H25 C21 1_555 1_555
C22 C21 1_555 1_555
C23 N6 1_555 1_555
C24 C23 1_555 1_555
H26 C24 1_555 1_555
C25 C20 1_555 1_555
H27 C25 1_555 1_555
C26 C22 1_555 1_555
H28 C26 1_555 1_555
H29 C26 1_555 1_555
H30 C26 1_555 1_555
O10 H31 1_555 1_555
C27 O10 1_555 1_555
H32 C27 1_555 1_555
H33 C27 1_555 1_555
C28 C27 1_555 1_555
H34 C28 1_555 1_555
H35 C28 1_555 1_555
H36 C28 1_555 1_555
C1A N1 1_555 1_555
H5A C1A 1_555 1_555
C2A C3 1_555 1_555
H6A C2A 1_555 1_555
C5A C4 1_555 1_555
H7A C5A 1_555 1_555
C6A N2 1_555 1_555
H8A C6A 1_555 1_555
S1A O1A 1_555 1_555
O1A Ni1 1_555 1_555
O2A S1A 1_555 1_555
O3A S1A 1_555 1_555
O4A Ni1 1_555 1_555
H1A O4A 1_555 1_555
H2A O4A 1_555 1_555
N3A H3A 1_555 1_555
H4A N3A 1_555 1_555
C7A S1A 1_555 1_555
C8A C7A 1_555 1_555
H9A C8A 1_555 1_555
C9A C8A 1_555 1_555
C10A N3A 1_555 1_555
C11A C10A 1_555 1_555
H10A C11A 1_555 1_555
C12A C7A 1_555 1_555
H11A C12A 1_555 1_555
C13A C9A 1_555 1_555
H12A C13A 1_555 1_555
H13A C13A 1_555 1_555
H14A C13A 1_555 1_555
Ni1_2 N2 1_555 1_555
N2_2 Ni1 1_555 1_555
C14A N4 1_555 1_555
H19A C14A 1_555 1_555
C15A C16 1_555 1_555
H20A C15A 1_555 1_555
C18A C17 1_555 1_555
H21A C18A 1_555 1_555
C19A N5 1_555 1_555
H22A C19A 1_555 1_555
O5A Ni2 1_555 1_555
H15A O5A 1_555 1_555
H16A O5A 1_555 1_555
O6A Ni2 1_555 1_555
H17A O6A 1_555 1_555
H18A O6A 1_555 1_555
Ni2_2 N5 1_555 1_555
N5_2 Ni2 1_555 1_555
C9 C10 1_555 1_555
C11 C12 1_555 1_555
C22 C23 1_555 1_555
C24 C25 1_555 1_555
C1A C2A 1_555 1_555
C5A C6A 1_555 1_555
C9A C10A 1_555 1_555
C11A C12A 1_555 1_555
C14A C15A 1_555 1_555
C18A C19A 1_555 1_555

#END
