
#######################################################################
#
#                 Cambridge Crystallographic Data Centre
#                                CCDC 
#
#######################################################################
#
# If this CIF has been generated from an entry in the Cambridge 
# Structural Database, then it will include bibliographic, chemical, 
# crystal, experimental, refinement or atomic coordinate data resulting 
# from the CCDC's data processing and validation procedures.
#
#######################################################################

data_LUDHUP
_symmetry_cell_setting           orthorhombic
_symmetry_space_group_name_H-M   'P b c a'
_symmetry_Int_Tables_number      61
_space_group_name_Hall           '-P 2ac 2ab'
loop_
_symmetry_equiv_pos_site_id
_symmetry_equiv_pos_as_xyz
1 x,y,z
2 1/2-x,-y,1/2+z
3 -x,1/2+y,1/2-z
4 1/2+x,1/2-y,-z
5 -x,-y,-z
6 1/2+x,y,1/2-z
7 x,1/2-y,1/2+z
8 1/2-x,1/2+y,z
_cell_length_a                   15.9540(19)
_cell_length_b                   7.7489(9)
_cell_length_c                   17.811(2)
_cell_angle_alpha                90
_cell_angle_beta                 90
_cell_angle_gamma                90
_cell_volume                     2201.9
loop_
_atom_site_label
_atom_site_type_symbol
_atom_site_fract_x
_atom_site_fract_y
_atom_site_fract_z
Ca1 Ca 0.72182(3) 0.67050(6) 0.28462(3)
N1 N 1.06325(13) 0.8047(3) 0.48408(12)
O1 O 0.62906(14) 0.5497(3) 0.18770(12)
H1 H 0.6254 0.4428 0.1874
H2 H 0.6453 0.6516 0.1979
O2 O 0.62470(13) 0.7934(2) 0.36969(12)
H3 H 0.5989 0.7555 0.4131
H4 H 0.6285 0.9067 0.3726
O3 O 0.83541(12) 0.6419(2) 0.37658(11)
O4 O 0.82317(11) 0.9085(2) 0.33742(11)
O5 O 1.15682(14) 1.1938(2) 0.31155(12)
O6 O 1.19073(12) 0.9353(2) 0.27323(10)
C1 C 0.98368(16) 0.7722(3) 0.46364(15)
C2 C 0.95188(16) 0.8304(3) 0.39470(14)
C3 C 1.00466(16) 0.9239(3) 0.34810(15)
H5 H 0.9842 0.9691 0.3033
C4 C 1.08755(16) 0.9504(3) 0.36774(15)
C5 C 1.11492(16) 0.8887(3) 0.43695(15)
C6 C 1.20376(17) 0.9110(4) 0.46264(18)
H6 H 1.2114 0.8534 0.5099
H7 H 1.2158 1.0316 0.4684
H8 H 1.2411 0.8621 0.4261
C7 C 0.93169(17) 0.6747(4) 0.51997(15)
H9 H 0.9215 0.5600 0.5018
H10 H 0.8792 0.7330 0.5272
H11 H 0.9612 0.6688 0.5669
C8 C 0.86433(16) 0.7911(3) 0.36905(14)
C9 C 1.14820(16) 1.0343(3) 0.31369(15)
Ca1B Ca 1.27818(3) 1.17050(6) 0.21538(3)
Ca1E Ca 1.22182(3) 0.67050(6) 0.21538(3)
Ca1G Ca 0.77818(3) 1.17050(6) 0.28462(3)
O4G O 0.67683(11) 0.4085(2) 0.33742(11)
O5B O 0.84318(14) 0.6938(2) 0.18845(12)
O6B O 0.80927(12) 0.4353(2) 0.22677(10)
O6E O 0.69073(12) 0.9353(2) 0.22677(10)
loop_
_geom_bond_atom_site_label_1
_geom_bond_atom_site_label_2
_geom_bond_site_symmetry_1
_geom_bond_site_symmetry_2
Ca1 O1 1_555 1_555
N1 C1 1_555 1_555
O1 H1 1_555 1_555
H2 O1 1_555 1_555
O2 Ca1 1_555 1_555
H3 O2 1_555 1_555
H4 O2 1_555 1_555
O3 Ca1 1_555 1_555
O4 Ca1 1_555 1_555
O5 C9 1_555 1_555
O6 C9 1_555 1_555
C1 C2 1_555 1_555
C2 C3 1_555 1_555
C3 H5 1_555 1_555
C4 C3 1_555 1_555
C5 N1 1_555 1_555
C6 C5 1_555 1_555
H6 C6 1_555 1_555
H7 C6 1_555 1_555
H8 C6 1_555 1_555
C7 C1 1_555 1_555
H9 C7 1_555 1_555
H10 C7 1_555 1_555
H11 C7 1_555 1_555
C8 O3 1_555 1_555
C9 C4 1_555 1_555
Ca1B O5 1_555 1_555
Ca1E O6 1_555 1_555
Ca1G O4 1_555 1_555
O4G Ca1 1_555 1_555
O5B Ca1 1_555 1_555
O6B Ca1 1_555 1_555
O6E Ca1 1_555 1_555
O4 C8 1_555 1_555
O6 Ca1B 1_555 1_555
C2 C8 1_555 1_555
C4 C5 1_555 1_555
Ca1G O6E 1_555 1_555

#END
