
#######################################################################
#
#                 Cambridge Crystallographic Data Centre
#                                CCDC 
#
#######################################################################
#
# If this CIF has been generated from an entry in the Cambridge 
# Structural Database, then it will include bibliographic, chemical, 
# crystal, experimental, refinement or atomic coordinate data resulting 
# from the CCDC's data processing and validation procedures.
#
#######################################################################

data_LUDJUR
_symmetry_cell_setting           monoclinic
_symmetry_space_group_name_H-M   'C 2/c'
_symmetry_Int_Tables_number      15
_space_group_name_Hall           '-C 2yn'
loop_
_symmetry_equiv_pos_site_id
_symmetry_equiv_pos_as_xyz
1 x,y,z
2 -x,y,1/2-z
3 1/2+x,1/2+y,z
4 1/2-x,1/2+y,1/2-z
5 -x,-y,-z
6 x,-y,1/2+z
7 1/2-x,1/2-y,-z
8 1/2+x,1/2-y,1/2+z
_cell_length_a                   27.441(6)
_cell_length_b                   7.5685(17)
_cell_length_c                   19.961(5)
_cell_angle_alpha                90
_cell_angle_beta                 111.521(2)
_cell_angle_gamma                90
_cell_volume                     3856.62
loop_
_atom_site_label
_atom_site_type_symbol
_atom_site_fract_x
_atom_site_fract_y
_atom_site_fract_z
Co1 Co 0.234922(18) 0.21174(6) 0.11061(2)
N1 N 0.06595(15) 0.7918(5) -0.12732(19)
N2 N 0.65349(11) 0.2863(4) 0.53980(15)
N3 N 0.31541(11) 0.2095(4) 0.18911(15)
O1 O 0.21342(9) 0.0502(3) 0.17939(11)
H1 H 0.2260 0.0904 0.2221
H2 H 0.2207 -0.0594 0.1831
O2 O 0.26002(9) 0.4009(3) 0.05344(12)
O3 O 0.24159(9) 0.4946(3) -0.05932(12)
O4 O 0.21966(9) 0.4281(3) 0.16310(12)
O5 O 0.24702(11) 0.7061(3) 0.18429(13)
O6 O 0.02357(13) 0.8372(5) -0.12611(17)
O7 O 0.07545(14) 0.7821(5) -0.18220(18)
C1 C 0.34447(15) 0.3563(6) 0.2080(2)
H3 H 0.3289 0.4637 0.1894
C2 C 0.39632(16) 0.3564(6) 0.2535(2)
H4 H 0.4147 0.4623 0.2653
C3 C 0.42089(15) 0.1997(7) 0.2815(2)
C4 C 0.39066(16) 0.0489(6) 0.2642(2)
H5 H 0.4053 -0.0595 0.2831
C5 C 0.33871(15) 0.0580(5) 0.21900(19)
H6 H 0.3190 -0.0454 0.2088
C6 C 0.47834(16) 0.1941(7) 0.3277(2)
H7 H 0.4917 0.0772 0.3242
H8 H 0.4967 0.2777 0.3087
C7 C 0.49030(15) 0.2350(6) 0.4044(2)
H9 H 0.4743 0.1448 0.4241
H10 H 0.4738 0.3466 0.4072
C8 C 0.54751(14) 0.2470(5) 0.4515(2)
C9 C 0.58605(15) 0.2707(5) 0.4232(2)
H11 H 0.5772 0.2734 0.3735
C10 C 0.63764(14) 0.2903(5) 0.46822(19)
H12 H 0.6627 0.3071 0.4476
C11 C 0.61627(14) 0.2643(5) 0.5674(2)
H13 H 0.6263 0.2611 0.6172
C12 C 0.56386(15) 0.2461(5) 0.5260(2)
H14 H 0.5395 0.2332 0.5479
C13 C 0.23442(14) 0.4928(4) -0.00081(18)
C14 C 0.19018(13) 0.6047(4) 0.00434(19)
C15 C 0.15231(15) 0.6619(5) -0.05979(19)
H15 H 0.1566 0.6422 -0.1033
C16 C 0.10793(15) 0.7489(5) -0.0586(2)
C17 C 0.10151(15) 0.7888(5) 0.0041(2)
H16 H 0.0718 0.8486 0.0038
C18 C 0.13999(15) 0.7386(5) 0.0678(2)
H17 H 0.1368 0.7696 0.1111
C19 C 0.18384(13) 0.6422(4) 0.06926(18)
C20 C 0.22087(14) 0.5863(5) 0.14383(18)
Co1F Co 0.265078(18) 0.28826(6) -0.11061(2)
Co1G Co 0.734922(18) 0.28826(6) 0.61061(2)
N2G N 0.15349(11) 0.2137(4) 0.03980(15)
O3F O 0.25841(9) 0.0054(3) 0.05932(12)
loop_
_geom_bond_atom_site_label_1
_geom_bond_atom_site_label_2
_geom_bond_site_symmetry_1
_geom_bond_site_symmetry_2
Co1 N3 1_555 1_555
N1 O6 1_555 1_555
N2 C10 1_555 1_555
N3 C1 1_555 1_555
O1 Co1 1_555 1_555
H1 O1 1_555 1_555
H2 O1 1_555 1_555
O2 Co1 1_555 1_555
O3 C13 1_555 1_555
O4 Co1 1_555 1_555
O5 C20 1_555 1_555
O7 N1 1_555 1_555
C1 H3 1_555 1_555
C2 C1 1_555 1_555
H4 C2 1_555 1_555
C3 C2 1_555 1_555
C4 C3 1_555 1_555
H5 C4 1_555 1_555
C5 N3 1_555 1_555
H6 C5 1_555 1_555
C6 C3 1_555 1_555
H7 C6 1_555 1_555
H8 C6 1_555 1_555
C7 C6 1_555 1_555
H9 C7 1_555 1_555
H10 C7 1_555 1_555
C8 C7 1_555 1_555
C9 C8 1_555 1_555
H11 C9 1_555 1_555
C10 C9 1_555 1_555
H12 C10 1_555 1_555
C11 N2 1_555 1_555
H13 C11 1_555 1_555
C12 C8 1_555 1_555
H14 C12 1_555 1_555
C13 O2 1_555 1_555
C14 C13 1_555 1_555
C15 C14 1_555 1_555
H15 C15 1_555 1_555
C16 N1 1_555 1_555
C17 C16 1_555 1_555
H16 C17 1_555 1_555
C18 C17 1_555 1_555
H17 C18 1_555 1_555
C19 C14 1_555 1_555
C20 O4 1_555 1_555
Co1F O3 1_555 1_555
Co1G N2 1_555 1_555
N2G Co1 1_555 1_555
O3F Co1 1_555 1_555
C4 C5 1_555 1_555
C11 C12 1_555 1_555
C15 C16 1_555 1_555
C18 C19 1_555 1_555
C19 C20 1_555 1_555

#END
