
#######################################################################
#
#                 Cambridge Crystallographic Data Centre
#                                CCDC 
#
#######################################################################
#
# If this CIF has been generated from an entry in the Cambridge 
# Structural Database, then it will include bibliographic, chemical, 
# crystal, experimental, refinement or atomic coordinate data resulting 
# from the CCDC's data processing and validation procedures.
#
#######################################################################

data_LUDMII
_symmetry_cell_setting           monoclinic
_symmetry_space_group_name_H-M   'C 2/c'
_symmetry_Int_Tables_number      15
_space_group_name_Hall           '-C 2yn'
loop_
_symmetry_equiv_pos_site_id
_symmetry_equiv_pos_as_xyz
1 x,y,z
2 -x,y,1/2-z
3 1/2+x,1/2+y,z
4 1/2-x,1/2+y,1/2-z
5 -x,-y,-z
6 x,-y,1/2+z
7 1/2-x,1/2-y,-z
8 1/2+x,1/2-y,1/2+z
_cell_length_a                   26.257(3)
_cell_length_b                   6.7342(7)
_cell_length_c                   21.401(2)
_cell_angle_alpha                90
_cell_angle_beta                 108.8560(10)
_cell_angle_gamma                90
_cell_volume                     3581.04
loop_
_atom_site_label
_atom_site_type_symbol
_atom_site_fract_x
_atom_site_fract_y
_atom_site_fract_z
Co1 Co 1.034035(9) 0.32387(4) 0.338853(12)
Co2 Co 0.724131(9) 0.17856(4) 0.377146(12)
N1 N 1.06830(6) 0.3462(2) 0.44787(7)
N2 N 0.97160(6) 0.2482(2) 0.38285(7)
O1 O 1.11470(5) 0.4409(2) 0.36500(6)
O2 O 1.19160(5) 0.5308(2) 0.44297(6)
O3 O 1.10956(5) 0.3107(2) 0.69117(7)
O4 O 1.19199(5) 0.3165(2) 0.68114(6)
O5 O 0.80138(5) 0.0957(2) 0.43124(7)
O6 O 0.86428(5) 0.0741(2) 0.52973(6)
O7 O 0.87016(5) 0.1669(2) 0.23148(6)
O8 O 0.95461(5) 0.2862(2) 0.25696(6)
O9 O 1.06222(5) 0.0130(2) 0.35188(6)
H1 H 1.0816 -0.0090 0.3911
H2 H 1.0808 -0.0017 0.3325
O10 O 1.00589(6) 0.6298(2) 0.33158(8)
H3 H 0.6509 0.3980 0.3037
H4 H 0.9736 0.6512 0.3158
H5 H 1.0225 0.7307 0.3277
O11 O 0.72805(5) 0.4355(2) 0.43395(6)
H6 H 0.7530 0.4399 0.4671
H7 H 0.7004 0.4430 0.4441
O12 O 0.75198(5) 0.3138(2) 0.30677(6)
H8 H 0.7667 0.4253 0.3083
H9 H 0.7353 0.2904 0.2720
O13 O 0.71899(5) -0.0849(2) 0.32393(7)
H10 H 0.7454 -0.1536 0.3376
H11 H 0.6924 -0.1455 0.3129
O14 O 0.64647(5) 0.2710(2) 0.32009(7)
H12 H 0.6351 0.2248 0.2867
C1 C 1.12019(7) 0.3942(3) 0.47552(9)
C2 C 1.14629(7) 0.3862(3) 0.54336(9)
H13 H 1.1828 0.4144 0.5612
C3 C 1.11598(7) 0.3345(3) 0.58386(9)
C4 C 1.06165(7) 0.2911(3) 0.55510(9)
H14 H 1.0405 0.2600 0.5812
C5 C 1.03928(7) 0.2950(3) 0.48662(9)
C6 C 0.98280(7) 0.2448(3) 0.44907(9)
C7 C 0.94393(7) 0.2000(3) 0.47802(9)
H15 H 0.9527 0.1971 0.5237
C8 C 0.89154(7) 0.1592(3) 0.43771(9)
C9 C 0.87995(7) 0.1657(3) 0.36927(9)
H16 H 0.8453 0.1402 0.3411
C10 C 0.92133(7) 0.2110(3) 0.34415(9)
C11 C 1.14147(7) 0.3196(3) 0.65846(9)
C12 C 0.84869(7) 0.1061(3) 0.46887(9)
C13 C 1.14482(7) 0.4585(3) 0.42412(9)
C14 C 0.91358(7) 0.2220(3) 0.27084(9)
Co1A Co 0.965965(9) 0.32387(4) 0.161147(12)
Co2B Co 1.224131(9) 0.67856(4) 0.377146(12)
O2B O 0.69160(5) 0.0308(2) 0.44297(6)
O8A O 1.04539(5) 0.2862(2) 0.24304(6)
loop_
_geom_bond_atom_site_label_1
_geom_bond_atom_site_label_2
_geom_bond_site_symmetry_1
_geom_bond_site_symmetry_2
Co1 N1 1_555 1_555
Co2 O5 1_555 1_555
N1 C1 1_555 1_555
N2 Co1 1_555 1_555
O1 Co1 1_555 1_555
O2 C13 1_555 1_555
O3 C11 1_555 1_555
O4 C11 1_555 1_555
O5 C12 1_555 1_555
O6 C12 1_555 1_555
O7 C14 1_555 1_555
O8 Co1 1_555 1_555
O9 Co1 1_555 1_555
H1 O9 1_555 1_555
H2 O9 1_555 1_555
O10 Co1 1_555 1_555
H3 O14 1_555 1_555
H4 O10 1_555 1_555
H5 O10 1_555 1_555
O11 Co2 1_555 1_555
H6 O11 1_555 1_555
H7 O11 1_555 1_555
O12 Co2 1_555 1_555
H8 O12 1_555 1_555
H9 O12 1_555 1_555
O13 Co2 1_555 1_555
H10 O13 1_555 1_555
H11 O13 1_555 1_555
O14 Co2 1_555 1_555
H12 O14 1_555 1_555
C1 C2 1_555 1_555
C2 H13 1_555 1_555
C3 C2 1_555 1_555
C4 C3 1_555 1_555
H14 C4 1_555 1_555
C5 N1 1_555 1_555
C6 N2 1_555 1_555
C7 C6 1_555 1_555
H15 C7 1_555 1_555
C8 C7 1_555 1_555
C9 C8 1_555 1_555
H16 C9 1_555 1_555
C10 N2 1_555 1_555
C11 C3 1_555 1_555
C12 C8 1_555 1_555
C13 O1 1_555 1_555
C14 O8 1_555 1_555
Co1A O8 1_555 1_555
Co2B O2 1_555 1_555
O2B Co2 1_555 1_555
O8A Co1 1_555 1_555
C1 C13 1_555 1_555
C4 C5 1_555 1_555
C5 C6 1_555 1_555
C9 C10 1_555 1_555
C10 C14 1_555 1_555
Co1A O8A 1_555 1_555

#END
