
#######################################################################
#
#                 Cambridge Crystallographic Data Centre
#                                CCDC 
#
#######################################################################
#
# If this CIF has been generated from an entry in the Cambridge 
# Structural Database, then it will include bibliographic, chemical, 
# crystal, experimental, refinement or atomic coordinate data resulting 
# from the CCDC's data processing and validation procedures.
#
#######################################################################

data_LUDVIP
_symmetry_cell_setting           monoclinic
_symmetry_space_group_name_H-M   'C 2/c'
_symmetry_Int_Tables_number      15
_space_group_name_Hall           '-C 2yn'
loop_
_symmetry_equiv_pos_site_id
_symmetry_equiv_pos_as_xyz
1 x,y,z
2 1/2+x,1/2+y,z
3 x,-y,1/2+z
4 1/2+x,1/2-y,1/2+z
5 -x,-y,-z
6 1/2-x,1/2-y,-z
7 -x,y,1/2-z
8 1/2-x,1/2+y,1/2-z
_cell_length_a                   27.482(8)
_cell_length_b                   15.096(4)
_cell_length_c                   31.846(9)
_cell_angle_alpha                90
_cell_angle_beta                 94.143(6)
_cell_angle_gamma                90
_cell_volume                     13177.4
loop_
_atom_site_label
_atom_site_type_symbol
_atom_site_fract_x
_atom_site_fract_y
_atom_site_fract_z
I1 I -0.3272(3) 1.7004(7) -0.2673(2)
I3 I -0.21647(3) 1.71353(4) -0.15992(2)
I5 I -0.5072(9) 2.1677(16) 0.1525(3)
I6 I -0.3635(3) 2.2201(4) 0.08345(16)
I8 I -0.74031(3) 1.48118(7) 0.05292(2)
I9 I -0.67451(3) 1.25164(4) -0.01891(3)
Zn1 Zn -0.29310(4) 1.64545(6) -0.19575(3)
Zn2 Zn -0.42823(5) 2.11745(6) 0.11647(3)
Zn3 Zn -0.68991(4) 1.41135(6) -0.00221(3)
C1 C -0.4447(3) 1.7040(5) -0.0575(2)
C2 C -0.4718(3) 1.7949(5) -0.0076(2)
C3 C -0.5081(3) 1.6613(5) -0.0203(2)
N1 N -0.4418(3) 1.7841(4) -0.0376(2)
N2 N -0.5063(3) 1.7373(4) 0.0028(2)
N3 N -0.4770(3) 1.6413(4) -0.04937(19)
N4 N -0.6235(3) 1.4809(4) -0.0002(2)
C4 C -0.6140(4) 1.5524(6) 0.0261(3)
H1 H -0.6341 1.5621 0.0487
C5 C -0.5768(4) 1.6094(6) 0.0206(3)
H2 H -0.5716 1.6582 0.0392
C6 C -0.5464(3) 1.5973(5) -0.0116(2)
C7 C -0.5547(3) 1.5219(5) -0.0375(3)
H3 H -0.5340 1.5089 -0.0594
C8 C -0.5937(4) 1.4676(5) -0.0302(3)
H4 H -0.5994 1.4175 -0.0480
N5 N -0.4482(3) 2.0221(4) 0.0716(2)
C9 C -0.4148(4) 1.9953(6) 0.0463(3)
H5 H -0.3845 2.0257 0.0471
C10 C -0.4225(4) 1.9241(6) 0.0184(3)
H6 H -0.3986 1.9083 -0.0004
C11 C -0.4659(3) 1.8769(5) 0.0190(2)
C12 C -0.4999(3) 1.9048(6) 0.0447(3)
H7 H -0.5300 1.8742 0.0454
C13 C -0.4902(4) 1.9794(6) 0.0704(3)
H8 H -0.5147 1.9998 0.0875
N6 N -0.3439(3) 1.6571(4) -0.1504(2)
C14 C -0.3467(4) 1.7354(6) -0.1308(3)
H9 H -0.3261 1.7821 -0.1389
C15 C -0.3777(4) 1.7517(6) -0.0999(3)
H10 H -0.3767 1.8068 -0.0855
C16 C -0.4102(3) 1.6872(5) -0.0901(3)
C17 C -0.4074(3) 1.6061(5) -0.1097(2)
H11 H -0.4280 1.5588 -0.1024
C18 C -0.3743(3) 1.5937(5) -0.1402(2)
H12 H -0.3734 1.5381 -0.1541
N7 N -0.3015(3) 1.0508(4) -0.20090(19)
N8 N -0.3272(3) 1.1875(4) -0.2328(2)
N9 N -0.2788(3) 1.1864(4) -0.16735(19)
C19 C -0.2799(3) 1.0981(5) -0.1691(2)
C20 C -0.3247(3) 1.0977(5) -0.2317(2)
C21 C -0.3011(3) 1.2273(5) -0.2005(2)
N10 N -0.2174(3) 0.9676(4) -0.0596(2)
C22 C -0.2393(3) 0.9215(5) -0.0900(3)
H13 H -0.2411 0.8590 -0.0869
C23 C -0.2599(3) 0.9592(5) -0.1264(2)
H14 H -0.2754 0.9231 -0.1478
C24 C -0.2578(3) 1.0512(5) -0.1318(2)
C25 C -0.2328(4) 1.0996(5) -0.1001(3)
H15 H -0.2283 1.1616 -0.1030
C26 C -0.2144(4) 1.0559(6) -0.0642(3)
H16 H -0.1991 1.0897 -0.0418
N11 N -0.3928(3) 0.9602(4) -0.3374(2)
C27 C -0.4050(4) 1.0441(5) -0.3293(3)
H17 H -0.4294 1.0723 -0.3473
C28 C -0.3834(4) 1.0917(5) -0.2953(3)
H18 H -0.3920 1.1519 -0.2910
C29 C -0.3493(3) 1.0500(5) -0.2680(2)
C30 C -0.3373(4) 0.9632(5) -0.2760(3)
H19 H -0.3147 0.9323 -0.2573
C31 C -0.3586(4) 0.9217(5) -0.3115(3)
H20 H -0.3485 0.8633 -0.3177
N12 N -0.2905(3) 1.5094(4) -0.20206(19)
C32 C -0.3134(4) 1.4652(5) -0.2343(3)
H21 H -0.3277 1.4979 -0.2575
C33 C -0.3170(3) 1.3750(5) -0.2351(3)
H22 H -0.3339 1.3461 -0.2583
C34 C -0.2960(3) 1.3258(5) -0.2019(2)
C35 C -0.2720(3) 1.3707(5) -0.1687(3)
H23 H -0.2575 1.3390 -0.1453
C36 C -0.2692(4) 1.4607(5) -0.1699(3)
H24 H -0.2517 1.4906 -0.1473
N11B N -0.3928(3) 2.0398(4) 0.1626(2)
N10A N -0.7174(3) 1.4676(4) -0.0596(2)
Zn3A Zn -0.18991(4) 0.91135(6) -0.00221(3)
Zn2B Zn -0.42823(5) 0.88255(6) -0.38353(3)
N13 N -0.4813(7) 1.7861(9) 0.1334(5)
C37 C -0.4478(5) 1.6257(7) 0.1411(3)
C38 C -0.3970(5) 1.6087(14) 0.1434(4)
C39 C -0.3802(6) 1.5222(19) 0.1483(4)
C40 C -0.4131(6) 1.4528(12) 0.1508(4)
C41 C -0.4630(6) 1.4682(8) 0.1488(3)
C42 C -0.4815(4) 1.5552(7) 0.1432(3)
C43 C -0.4687(7) 1.7135(12) 0.1369(5)
N15 N -0.6068(5) 1.3608(9) -0.3680(5)
C48 C -0.6294(9) 1.2020(15) -0.4079(10)
C49 C -0.6063(11) 1.134(2) -0.3801(15)
C50 C -0.6216(11) 1.0364(17) -0.4029(17)
C51 C -0.6517(14) 1.082(4) -0.4482(17)
C52 C -0.680(3) 1.137(5) -0.471(2)
C53 C -0.671(3) 1.234(4) -0.4450(12)
C54 C -0.6169(6) 1.2935(12) -0.3838(5)
I2? I -0.32871(11) 1.70197(14) -0.26665(7)
I4? I -0.4934(3) 0.8079(5) -0.3486(3)
I7? I -0.3799(10) 0.7731(6) -0.4151(4)
N14? N -0.4417(14) 1.320(3) -0.2400(12)
C44? C -0.4749(6) 1.4742(14) -0.2440(4)
C45? C -0.4502(6) 1.5528(15) -0.2404(4)
C46? C -0.4753(6) 1.6303(15) -0.2448(5)
C47? C -0.4555(13) 1.400(3) -0.2410(10)
C55? C -0.5190(16) 1.005(3) -0.2648(14)
C56? C -0.5201(17) 1.154(3) -0.2671(15)
C57? C -0.559(2) 1.094(5) -0.306(2)
C58? C -0.594(2) 0.977(4) -0.3330(17)
loop_
_geom_bond_atom_site_label_1
_geom_bond_atom_site_label_2
_geom_bond_site_symmetry_1
_geom_bond_site_symmetry_2
I1 Zn1 1_555 1_555
I3 Zn1 1_555 1_555
I5 Zn2 1_555 1_555
I6 Zn2 1_555 1_555
I8 Zn3 1_555 1_555
I9 Zn3 1_555 1_555
Zn1 N6 1_555 1_555
Zn2 N5 1_555 1_555
Zn3 N4 1_555 1_555
C1 N1 1_555 1_555
C2 N1 1_555 1_555
C3 N2 1_555 1_555
N2 C2 1_555 1_555
N3 C1 1_555 1_555
N4 C4 1_555 1_555
C4 H1 1_555 1_555
C5 C4 1_555 1_555
H2 C5 1_555 1_555
C6 C3 1_555 1_555
C7 C6 1_555 1_555
H3 C7 1_555 1_555
C8 N4 1_555 1_555
H4 C8 1_555 1_555
N5 C9 1_555 1_555
C9 H5 1_555 1_555
C10 C9 1_555 1_555
H6 C10 1_555 1_555
C11 C2 1_555 1_555
C12 C11 1_555 1_555
H7 C12 1_555 1_555
C13 N5 1_555 1_555
H8 C13 1_555 1_555
N6 C14 1_555 1_555
C14 H9 1_555 1_555
C15 C14 1_555 1_555
H10 C15 1_555 1_555
C16 C1 1_555 1_555
C17 C16 1_555 1_555
H11 C17 1_555 1_555
C18 N6 1_555 1_555
H12 C18 1_555 1_555
N7 C19 1_555 1_555
N8 C20 1_555 1_555
N9 C19 1_555 1_555
C19 C24 1_555 1_555
C20 N7 1_555 1_555
C21 N8 1_555 1_555
N10 C22 1_555 1_555
C22 H13 1_555 1_555
C23 C22 1_555 1_555
H14 C23 1_555 1_555
C24 C23 1_555 1_555
C25 C24 1_555 1_555
H15 C25 1_555 1_555
C26 N10 1_555 1_555
H16 C26 1_555 1_555
N11 C27 1_555 1_555
C27 H17 1_555 1_555
C28 C27 1_555 1_555
H18 C28 1_555 1_555
C29 C20 1_555 1_555
C30 C29 1_555 1_555
H19 C30 1_555 1_555
C31 N11 1_555 1_555
H20 C31 1_555 1_555
N12 Zn1 1_555 1_555
C32 N12 1_555 1_555
H21 C32 1_555 1_555
C33 C32 1_555 1_555
H22 C33 1_555 1_555
C34 C21 1_555 1_555
C35 C34 1_555 1_555
H23 C35 1_555 1_555
C36 N12 1_555 1_555
H24 C36 1_555 1_555
N13 C43 1_555 1_555
C37 C38 1_555 1_555
C38 C39 1_555 1_555
C39 C40 1_555 1_555
C40 C41 1_555 1_555
C41 C42 1_555 1_555
C42 C37 1_555 1_555
C43 C37 1_555 1_555
N15 C54 1_555 1_555
C48 C49 1_555 1_555
C49 C50 1_555 1_555
C50 C51 1_555 1_555
C51 C52 1_555 1_555
C52 C53 1_555 1_555
C53 C48 1_555 1_555
C54 C48 1_555 1_555
N11B Zn2 1_555 1_555
N10A Zn3 1_555 1_555
Zn3A N10 1_555 1_555
Zn2B N11 1_555 1_555
C3 N3 1_555 1_555
C5 C6 1_555 1_555
C7 C8 1_555 1_555
C10 C11 1_555 1_555
C12 C13 1_555 1_555
C15 C16 1_555 1_555
C17 C18 1_555 1_555
N9 C21 1_555 1_555
C25 C26 1_555 1_555
C28 C29 1_555 1_555
C30 C31 1_555 1_555
C33 C34 1_555 1_555
C35 C36 1_555 1_555

#END
