
#######################################################################
#
#                 Cambridge Crystallographic Data Centre
#                                CCDC 
#
#######################################################################
#
# If this CIF has been generated from an entry in the Cambridge 
# Structural Database, then it will include bibliographic, chemical, 
# crystal, experimental, refinement or atomic coordinate data resulting 
# from the CCDC's data processing and validation procedures.
#
#######################################################################

data_LUDVEL
_symmetry_cell_setting           monoclinic
_symmetry_space_group_name_H-M   'C 2/c'
_symmetry_Int_Tables_number      15
_space_group_name_Hall           '-C 2yn'
loop_
_symmetry_equiv_pos_site_id
_symmetry_equiv_pos_as_xyz
1 x,y,z
2 1/2+x,1/2+y,z
3 -x,y,1/2-z
4 1/2-x,1/2+y,1/2-z
5 -x,-y,-z
6 1/2-x,1/2-y,-z
7 x,-y,1/2+z
8 1/2+x,1/2-y,1/2+z
_cell_length_a                   35.487(8)
_cell_length_b                   15.080(4)
_cell_length_c                   31.542(7)
_cell_angle_alpha                90
_cell_angle_beta                 102.107(4)
_cell_angle_gamma                90
_cell_volume                     16504.1
loop_
_atom_site_label
_atom_site_type_symbol
_atom_site_fract_x
_atom_site_fract_y
_atom_site_fract_z
I1 I -0.26258(3) -0.73161(5) -0.19407(3)
I2 I -0.3701(4) -0.6763(4) -0.2961(2)
I3 I -0.47244(2) 0.14493(5) -0.36748(2)
I4 I -0.38225(3) 0.23406(5) -0.43859(3)
I5 I -0.60526(3) -0.27471(5) -0.09839(3)
I6 I -0.64424(2) -0.41838(7) 0.00794(3)
Zn1 Zn -0.32418(3) -0.64431(7) -0.22092(4)
Zn2 Zn -0.41713(3) 0.11525(6) -0.40559(3)
Zn3 Zn -0.62546(3) -0.41586(7) -0.06536(3)
N1 N -0.47744(19) -0.7357(4) -0.0311(2)
N2 N -0.42425(19) -0.7798(4) -0.0617(2)
N3 N -0.46260(19) -0.6558(4) -0.0906(2)
C1 C -0.4836(2) -0.6723(5) -0.0608(2)
C2 C -0.4479(2) -0.7893(5) -0.0342(2)
C3 C -0.4322(2) -0.7094(5) -0.0882(2)
N4 N -0.58084(19) -0.5038(5) -0.0632(2)
C4 C -0.5624(3) -0.5418(7) -0.0272(3)
H1 H -0.5713 -0.5303 -0.0013
C5 C -0.5311(3) -0.5969(6) -0.0245(3)
H2 H -0.5188 -0.6223 0.0025
C6 C -0.5182(2) -0.6143(5) -0.0617(3)
C7 C -0.5379(3) -0.5785(6) -0.1004(3)
H3 H -0.5300 -0.5904 -0.1267
C8 C -0.5691(3) -0.5257(7) -0.0999(3)
H4 H -0.5832 -0.5033 -0.1267
N5 N -0.4309(2) -1.0142(5) 0.0490(2)
C9 C -0.4050(3) -0.9947(7) 0.0248(3)
H5 H -0.3828 -1.0310 0.0266
C10 C -0.4103(3) -0.9223(7) -0.0026(3)
H6 H -0.3919 -0.9097 -0.0197
C11 C -0.4417(2) -0.8685(5) -0.0056(3)
C12 C -0.4687(2) -0.8911(6) 0.0193(3)
H7 H -0.4911 -0.8560 0.0179
C13 C -0.4623(2) -0.9645(5) 0.0458(3)
H8 H -0.4809 -0.9800 0.0623
N6 N -0.3578(2) -0.6596(4) -0.1749(2)
C14 C -0.3927(3) -0.6236(6) -0.1810(3)
H9 H -0.4007 -0.5861 -0.2055
C15 C -0.4177(3) -0.6374(6) -0.1541(3)
H10 H -0.4424 -0.6101 -0.1600
C16 C -0.4069(2) -0.6909(5) -0.1184(3)
C17 C -0.3698(3) -0.7290(6) -0.1109(3)
H11 H -0.3608 -0.7658 -0.0864
C18 C -0.3466(3) -0.7112(6) -0.1404(3)
H12 H -0.3217 -0.7370 -0.1356
C19 C -0.2585(2) -0.1086(5) -0.1992(3)
C20 C -0.3084(2) -0.1002(5) -0.2557(3)
C21 C -0.2927(2) -0.2302(5) -0.2227(3)
N7 N -0.27925(19) -0.0579(4) -0.2291(2)
N8 N -0.31696(18) -0.1852(4) -0.2528(2)
N9 N -0.26314(19) -0.1955(4) -0.1942(2)
N10 N -0.3779(2) 0.0456(4) -0.3597(2)
C22 C -0.3832(4) -0.0401(7) -0.3538(4)
H13 H -0.4037 -0.0692 -0.3730
C23 C -0.3606(4) -0.0896(6) -0.3210(4)
H14 H -0.3646 -0.1516 -0.3190
C24 C -0.3323(2) -0.0476(5) -0.2918(3)
C25 C -0.3268(2) 0.0411(5) -0.2975(3)
H15 H -0.3075 0.0723 -0.2777
C26 C -0.3493(3) 0.0854(5) -0.3322(3)
H16 H -0.3442 0.1462 -0.3366
N11 N -0.3128(2) -0.5095(4) -0.2210(2)
C27 C -0.3379(3) -0.4554(6) -0.2443(3)
H17 H -0.3609 -0.4799 -0.2612
C28 C -0.3326(3) -0.3644(6) -0.2457(3)
H18 H -0.3513 -0.3282 -0.2635
C29 C -0.2997(2) -0.3269(5) -0.2208(3)
C30 C -0.2733(3) -0.3835(6) -0.1957(3)
H19 H -0.2504 -0.3606 -0.1780
C31 C -0.2806(3) -0.4735(6) -0.1967(3)
H20 H -0.2621 -0.5117 -0.1797
N12 N -0.16851(19) 0.0229(5) -0.1103(2)
C32 C -0.1754(3) -0.0618(6) -0.1051(3)
H21 H -0.1603 -0.0923 -0.0811
C33 C -0.2042(3) -0.1085(6) -0.1334(3)
H22 H -0.2084 -0.1698 -0.1292
C34 C -0.2265(2) -0.0628(5) -0.1676(2)
C35 C -0.2188(3) 0.0255(6) -0.1734(3)
H23 H -0.2334 0.0580 -0.1970
C36 C -0.1897(3) 0.0654(6) -0.1444(3)
H24 H -0.1842 0.1261 -0.1486
N12A N -0.66851(19) -0.4771(5) -0.1103(2)
Zn2F Zn -0.41713(3) -1.11525(6) 0.09441(3)
Zn3A Zn -0.12546(3) 0.08414(7) -0.06536(3)
N5F N -0.4309(2) 0.0142(5) -0.4510(2)
C37 C -0.6202(8) 0.0316(12) -0.3669(7)
C38 C -0.5824(6) 0.0615(11) -0.3532(6)
C39 C -0.5714(6) 0.1078(12) -0.3155(6)
C40 C -0.6010(9) 0.1243(13) -0.2924(6)
C41 C -0.6394(8) 0.0928(15) -0.3097(10)
C42 C -0.6490(7) 0.0469(13) -0.3448(7)
C43 C -0.6353(11) -0.019(2) -0.4091(9)
N13 N -0.6514(17) -0.040(7) -0.4493(14)
I7? I -0.3588(13) -0.685(2) -0.2891(13)
C44? C -0.5478(6) -0.2393(12) -0.4241(5)
C45? C -0.5833(6) -0.2805(17) -0.4334(6)
C46? C -0.606(3) -0.370(6) -0.412(2)
C47? C -0.5750(14) -0.390(3) -0.4243(9)
C48? C -0.5292(15) -0.393(2) -0.4080(7)
C49? C -0.5138(7) -0.2862(19) -0.4103(6)
C50? C -0.5476(6) -0.1418(17) -0.4276(8)
N14? N -0.5467(6) -0.0587(16) -0.4286(10)
C51? C -0.5237(4) -0.5888(13) -0.2298(4)
C52? C -0.5244(5) -0.6785(15) -0.2274(5)
C53? C -0.5000 -0.7268(16) -0.2500
C54? C -0.5000 -0.5445(15) -0.2500
C55? C -0.5453(7) -0.5139(15) -0.2124(7)
N15? N -0.5647(6) -0.4488(18) -0.1993(7)
C56? C -0.5586(9) -0.343(2) -0.2040(10)
C57? C -0.5477(12) -0.079(2) -0.2083(13)
C58? C -0.4296(10) -0.377(3) -0.1937(12)
C59? C -0.5772(11) -0.112(3) -0.2567(13)
C60? C -0.5102(17) -0.124(4) -0.1911(18)
C61? C -0.6546(12) -0.222(3) -0.3586(13)
C62? C -0.6431(13) -0.364(3) -0.3608(15)
C63? C -0.6719(12) -0.446(3) -0.3904(13)
C64? C -0.7896(14) -0.201(4) -0.4887(16)
C65? C -0.5766(19) -0.224(5) -0.265(2)
C66? C -0.7574(19) -0.105(4) -0.472(2)
C67? C -0.5457(9) -0.233(2) -0.2083(10)
C68? C -0.293(2) -0.836(5) 0.058(2)
C69? C -0.6818(16) -0.270(3) -0.3858(17)
C70? C -0.2731(14) -0.844(3) -0.0483(15)
C71? C -0.7372(16) -0.524(4) -0.4221(17)
C72? C -0.709(2) -0.034(5) -0.388(2)
C73? C -0.7896(12) -0.526(3) -0.4147(13)
C74? C -0.728(2) -0.344(5) -0.404(2)
C75? C -0.7856(15) -0.315(4) -0.5068(17)
loop_
_geom_bond_atom_site_label_1
_geom_bond_atom_site_label_2
_geom_bond_site_symmetry_1
_geom_bond_site_symmetry_2
I1 Zn1 1_555 1_555
I2 Zn1 1_555 1_555
I3 Zn2 1_555 1_555
I4 Zn2 1_555 1_555
I5 Zn3 1_555 1_555
I6 Zn3 1_555 1_555
Zn1 N6 1_555 1_555
Zn2 N10 1_555 1_555
Zn3 N4 1_555 1_555
N1 C1 1_555 1_555
N2 C2 1_555 1_555
N3 C1 1_555 1_555
C1 C6 1_555 1_555
C2 N1 1_555 1_555
C3 N2 1_555 1_555
N4 C4 1_555 1_555
C4 H1 1_555 1_555
C5 C4 1_555 1_555
H2 C5 1_555 1_555
C6 C5 1_555 1_555
C7 C6 1_555 1_555
H3 C7 1_555 1_555
C8 N4 1_555 1_555
H4 C8 1_555 1_555
N5 C9 1_555 1_555
C9 H5 1_555 1_555
C10 C9 1_555 1_555
H6 C10 1_555 1_555
C11 C2 1_555 1_555
C12 C11 1_555 1_555
H7 C12 1_555 1_555
C13 N5 1_555 1_555
H8 C13 1_555 1_555
N6 C14 1_555 1_555
C14 H9 1_555 1_555
C15 C14 1_555 1_555
H10 C15 1_555 1_555
C16 C3 1_555 1_555
C17 C16 1_555 1_555
H11 C17 1_555 1_555
C18 N6 1_555 1_555
H12 C18 1_555 1_555
C19 N7 1_555 1_555
C20 N7 1_555 1_555
C21 N8 1_555 1_555
N8 C20 1_555 1_555
N9 C19 1_555 1_555
N10 C22 1_555 1_555
C22 H13 1_555 1_555
C23 C22 1_555 1_555
H14 C23 1_555 1_555
C24 C20 1_555 1_555
C25 C24 1_555 1_555
H15 C25 1_555 1_555
C26 N10 1_555 1_555
H16 C26 1_555 1_555
N11 Zn1 1_555 1_555
C27 N11 1_555 1_555
H17 C27 1_555 1_555
C28 C27 1_555 1_555
H18 C28 1_555 1_555
C29 C21 1_555 1_555
C30 C29 1_555 1_555
H19 C30 1_555 1_555
C31 N11 1_555 1_555
H20 C31 1_555 1_555
N12 C32 1_555 1_555
C32 H21 1_555 1_555
C33 C32 1_555 1_555
H22 C33 1_555 1_555
C34 C19 1_555 1_555
C35 C34 1_555 1_555
H23 C35 1_555 1_555
C36 N12 1_555 1_555
H24 C36 1_555 1_555
C37 C38 1_555 1_555
C38 C39 1_555 1_555
C39 C40 1_555 1_555
C40 C41 1_555 1_555
C41 C42 1_555 1_555
C42 C37 1_555 1_555
C43 C37 1_555 1_555
N13 C43 1_555 1_555
N12A Zn3 1_555 1_555
Zn2F N5 1_555 1_555
Zn3A N12 1_555 1_555
N5F Zn2 1_555 1_555
N3 C3 1_555 1_555
C7 C8 1_555 1_555
C10 C11 1_555 1_555
C12 C13 1_555 1_555
C15 C16 1_555 1_555
C17 C18 1_555 1_555
C21 N9 1_555 1_555
C23 C24 1_555 1_555
C25 C26 1_555 1_555
C28 C29 1_555 1_555
C30 C31 1_555 1_555
C33 C34 1_555 1_555
C35 C36 1_555 1_555

#END
