
#######################################################################
#
#                 Cambridge Crystallographic Data Centre
#                                CCDC 
#
#######################################################################
#
# If this CIF has been generated from an entry in the Cambridge 
# Structural Database, then it will include bibliographic, chemical, 
# crystal, experimental, refinement or atomic coordinate data resulting 
# from the CCDC's data processing and validation procedures.
#
#######################################################################

data_LUDVOV
_symmetry_cell_setting           monoclinic
_symmetry_space_group_name_H-M   'C 2/c'
_symmetry_Int_Tables_number      15
_space_group_name_Hall           '-C 2yn'
loop_
_symmetry_equiv_pos_site_id
_symmetry_equiv_pos_as_xyz
1 x,y,z
2 1/2+x,1/2+y,z
3 -x,y,1/2-z
4 1/2-x,1/2+y,1/2-z
5 -x,-y,-z
6 1/2-x,1/2-y,-z
7 x,-y,1/2+z
8 1/2+x,1/2-y,1/2+z
_cell_length_a                   35.316(3)
_cell_length_b                   14.7247(14)
_cell_length_c                   31.766(3)
_cell_angle_alpha                90
_cell_angle_beta                 101.906(2)
_cell_angle_gamma                90
_cell_volume                     16163.5
loop_
_atom_site_label
_atom_site_type_symbol
_atom_site_fract_x
_atom_site_fract_y
_atom_site_fract_z
Zn1 Zn 0.37555(2) 0.09258(6) 0.43489(3)
Zn2 Zn 0.58601(2) -0.62020(5) 0.59489(3)
Zn3 Zn 0.67242(3) -0.15142(5) 0.27190(3)
I1 I 0.354920(19) 0.08869(6) 0.50682(2)
I2 I 0.39256(2) 0.23665(4) 0.39840(3)
I3 I 0.62456(2) -0.73534(4) 0.56265(2)
I4 I 0.52541(7) -0.64943(18) 0.6247(2)
I5 I 0.628254(18) -0.16665(4) 0.197739(17)
I6 I 0.734225(17) -0.24317(4) 0.293355(19)
N1 N 0.57850(16) -0.2764(4) 0.43848(18)
N2 N 0.52751(16) -0.2273(4) 0.47087(18)
N3 N 0.54096(17) -0.1489(4) 0.41077(19)
C1 C 0.55592(19) -0.2837(5) 0.4678(2)
C2 C 0.5208(2) -0.1630(5) 0.4410(2)
C3 C 0.57035(19) -0.2060(5) 0.4116(2)
N4 N 0.57445(17) -0.5131(4) 0.55104(18)
C4 C 0.6008(2) -0.4874(5) 0.5293(3)
H1 H 0.6239 -0.5221 0.5324
C5 C 0.5966(2) -0.4128(6) 0.5023(3)
H2 H 0.6166 -0.3956 0.4880
C6 C 0.56255(19) -0.3638(5) 0.4966(2)
C7 C 0.5344(2) -0.3904(5) 0.5192(2)
H3 H 0.5109 -0.3573 0.5165
C8 C 0.5413(2) -0.4651(5) 0.5454(2)
H4 H 0.5219 -0.4839 0.5603
N5 N 0.42202(17) 0.0067(4) 0.43839(19)
C9 C 0.4388(3) -0.0025(8) 0.4047(3)
H5 H 0.4273 0.0280 0.3788
C10 C 0.4715(3) -0.0529(8) 0.4047(3)
H6 H 0.4833 -0.0535 0.3804
C11 C 0.4867(2) -0.1025(5) 0.4409(2)
C12 C 0.4694(2) -0.0964(6) 0.4753(3)
H7 H 0.4791 -0.1299 0.5007
C13 C 0.4377(2) -0.0416(6) 0.4728(3)
H8 H 0.4263 -0.0380 0.4973
N6 N 0.64059(17) -0.1700(4) 0.31857(19)
C14 C 0.6529(2) -0.2165(5) 0.3549(2)
H9 H 0.6780 -0.2425 0.3596
C15 C 0.6317(2) -0.2290(5) 0.3855(2)
H10 H 0.6422 -0.2620 0.4109
C16 C 0.5946(2) -0.1931(5) 0.3795(2)
C17 C 0.5815(3) -0.1449(7) 0.3420(3)
H11 H 0.5565 -0.1182 0.3366
C18 C 0.6049(2) -0.1359(7) 0.3127(3)
H12 H 0.5952 -0.1036 0.2868
N7 N 0.22085(16) -0.0529(4) 0.27377(18)
N8 N 0.23431(16) -0.1928(4) 0.31170(17)
N9 N 0.18096(16) -0.1806(4) 0.25253(18)
C19 C 0.19111(19) -0.0938(5) 0.2487(2)
C20 C 0.24063(18) -0.1048(5) 0.3058(2)
C21 C 0.20419(19) -0.2276(4) 0.2838(2)
N10 N 0.12291(17) 0.0526(4) 0.14435(18)
C22 C 0.1140(2) -0.0316(5) 0.1535(3)
H13 H 0.0919 -0.0592 0.1361
C23 C 0.1350(2) -0.0807(5) 0.1867(3)
H14 H 0.1276 -0.1410 0.1920
C24 C 0.1675(2) -0.0410(4) 0.2129(2)
C25 C 0.1761(2) 0.0475(5) 0.2044(2)
H15 H 0.1972 0.0778 0.2223
C26 C 0.1537(2) 0.0922(4) 0.1694(2)
H16 H 0.1603 0.1524 0.1630
N11 N 0.33301(17) 0.0275(4) 0.39121(18)
C27 C 0.3156(2) 0.0659(5) 0.3535(2)
H17 H 0.3243 0.1238 0.3463
C28 C 0.2860(2) 0.0249(5) 0.3253(2)
H18 H 0.2743 0.0543 0.2993
C29 C 0.27344(18) -0.0596(4) 0.3351(2)
C30 C 0.2912(2) -0.1006(5) 0.3736(2)
H19 H 0.2836 -0.1594 0.3809
C31 C 0.3202(2) -0.0540(5) 0.4008(3)
H20 H 0.3315 -0.0809 0.4276
N12 N 0.18407(17) -0.5129(4) 0.27957(18)
C32 C 0.2153(2) -0.4782(5) 0.3054(2)
H21 H 0.2334 -0.5185 0.3222
C33 C 0.2224(2) -0.3870(5) 0.3087(2)
H22 H 0.2448 -0.3650 0.3278
C34 C 0.1970(2) -0.3267(4) 0.2843(2)
C35 C 0.1642(2) -0.3630(5) 0.2577(3)
H23 H 0.1458 -0.3243 0.2402
C36 C 0.1585(2) -0.4554(5) 0.2569(3)
H24 H 0.1355 -0.4793 0.2395
Zn2G Zn 0.08601(2) 0.12020(5) 0.09489(3)
N10G N 0.62291(17) -0.5526(4) 0.64435(18)
N12A N 0.68407(17) -0.0129(4) 0.27957(18)
Zn3A Zn 0.17242(3) -0.65142(5) 0.27190(3)
C37 C 0.2741(3) 1.5976(8) 0.0494(3)
H25 H 0.2550 1.6266 0.0282
C38 C 0.3045(3) 1.5513(8) 0.0373(3)
H26 H 0.3061 1.5488 0.0078
C39 C 0.3324(3) 1.5088(8) 0.0682(4)
H27 H 0.3532 1.4772 0.0599
C40 C 0.3300(3) 1.5125(8) 0.1113(4)
H28 H 0.3491 1.4834 0.1325
C41 C 0.2996(3) 1.5587(8) 0.1234(2)
H29 H 0.2980 1.5613 0.1529
C42 C 0.2717(3) 1.6013(7) 0.0925(3)
H30 H 0.2510 1.6329 0.1008
C43 C 0.7428(3) -0.1179(8) 0.4268(4)
H31 H 0.7263 -0.1653 0.4326
C44 C 0.7768(4) -0.1388(6) 0.4133(4)
H32 H 0.7835 -0.2004 0.4097
C45 C 0.8009(2) -0.0695(7) 0.4049(3)
H33 H 0.8241 -0.0838 0.3956
C46 C 0.7911(3) 0.0206(6) 0.4101(3)
H34 H 0.8076 0.0680 0.4043
C47 C 0.7572(3) 0.0415(6) 0.4237(3)
H35 H 0.7505 0.1031 0.4272
C48 C 0.7330(2) -0.0278(9) 0.4321(3)
H36 H 0.7098 -0.0136 0.4414
C49 C 0.3666(7) 1.0938(11) 0.1307(7)
H37 H 0.3625 1.0342 0.1192
C50 C 0.3406(5) 1.1626(17) 0.1149(5)
H38 H 0.3187 1.1500 0.0927
C51 C 0.3465(6) 1.2498(14) 0.1317(7)
H39 H 0.3287 1.2969 0.1209
C52 C 0.3784(7) 1.2683(12) 0.1642(7)
H40 H 0.3825 1.3279 0.1757
C53 C 0.4044(5) 1.1995(19) 0.1799(5)
H41 H 0.4263 1.2121 0.2022
C54 C 0.3985(6) 1.1122(16) 0.1632(7)
H42 H 0.4163 1.0652 0.1739
C55 C 0.7514(8) 0.8304(17) 0.0222(8)
H43 H 0.7528 0.8835 0.0394
C56 C 0.7178(8) 0.7929(19) 0.0053(8)
H44 H 0.6945 0.8240 0.0066
C57 C 0.7839(7) 0.7910(19) 0.0144(8)
H45 H 0.8080 0.8213 0.0224
C57E C 0.7161(7) 0.7090(19) -0.0144(8)
C55E C 0.7486(8) 0.6696(17) -0.0222(8)
H43E H 0.7472 0.6165 -0.0394
C56E C 0.7822(8) 0.7071(19) -0.0053(8)
H44E H 0.8055 0.6760 -0.0066
H45E H 0.6920 0.6787 -0.0224
C58 C 0.4546(7) -0.3754(10) 0.5840(6)
H46 H 0.4532 -0.4398 0.5849
C59 C 0.4242(5) -0.3261(15) 0.5598(5)
H47 H 0.4020 -0.3567 0.5442
C60 C 0.4263(5) -0.2319(15) 0.5584(5)
H48 H 0.4055 -0.1982 0.5418
C61 C 0.4587(7) -0.1871(11) 0.5812(7)
H49 H 0.4601 -0.1227 0.5802
C62 C 0.4891(5) -0.2364(18) 0.6054(6)
H50 H 0.5113 -0.2058 0.6210
C63 C 0.4871(5) -0.3306(18) 0.6068(6)
H51 H 0.5079 -0.3643 0.6234
C64 C 0.5000 -0.190(2) 0.2500
H52 H 0.5000 -0.2544 0.2500
C65 C 0.5199(5) -0.1449(14) 0.2238(6)
H53 H 0.5334 -0.1779 0.2058
C66 C 0.5202(5) -0.0601(14) 0.2236(6)
H54 H 0.5342 -0.0286 0.2056
C67 C 0.5000 -0.011(2) 0.2500
H55 H 0.5000 0.0537 0.2500
C66B C 0.4798(5) -0.0601(14) 0.2764(6)
C65B C 0.4801(5) -0.1449(14) 0.2762(6)
H53B H 0.4666 -0.1779 0.2942
H54B H 0.4658 -0.0286 0.2944
I7? I 0.5264(6) 0.6498(12) 0.1184(14)
C68? C 0.5609(8) 0.544(2) 0.3235(9)
C69? C 0.5820(6) 0.5910(15) 0.2509(7)
C70? C 0.6075(12) 0.606(3) 0.2925(12)
C71? C 0.5671(11) 0.609(3) 0.3136(12)
C72? C 0.5582(17) 0.442(4) 0.267(2)
loop_
_geom_bond_atom_site_label_1
_geom_bond_atom_site_label_2
_geom_bond_site_symmetry_1
_geom_bond_site_symmetry_2
Zn1 I1 1_555 1_555
Zn2 I3 1_555 1_555
Zn3 I5 1_555 1_555
I2 Zn1 1_555 1_555
I4 Zn2 1_555 1_555
I6 Zn3 1_555 1_555
N1 C1 1_555 1_555
N2 C1 1_555 1_555
N3 C2 1_555 1_555
C1 C6 1_555 1_555
C2 N2 1_555 1_555
C3 N1 1_555 1_555
N4 Zn2 1_555 1_555
C4 N4 1_555 1_555
H1 C4 1_555 1_555
C5 C4 1_555 1_555
H2 C5 1_555 1_555
C6 C5 1_555 1_555
C7 C6 1_555 1_555
H3 C7 1_555 1_555
C8 N4 1_555 1_555
H4 C8 1_555 1_555
N5 Zn1 1_555 1_555
C9 N5 1_555 1_555
H5 C9 1_555 1_555
C10 C9 1_555 1_555
H6 C10 1_555 1_555
C11 C2 1_555 1_555
C12 C11 1_555 1_555
H7 C12 1_555 1_555
C13 N5 1_555 1_555
H8 C13 1_555 1_555
N6 Zn3 1_555 1_555
C14 N6 1_555 1_555
H9 C14 1_555 1_555
C15 C14 1_555 1_555
H10 C15 1_555 1_555
C16 C3 1_555 1_555
C17 C16 1_555 1_555
H11 C17 1_555 1_555
C18 N6 1_555 1_555
H12 C18 1_555 1_555
N7 C19 1_555 1_555
N8 C20 1_555 1_555
N9 C19 1_555 1_555
C19 C24 1_555 1_555
C20 N7 1_555 1_555
C21 N8 1_555 1_555
N10 C22 1_555 1_555
C22 H13 1_555 1_555
C23 C22 1_555 1_555
H14 C23 1_555 1_555
C24 C23 1_555 1_555
C25 C24 1_555 1_555
H15 C25 1_555 1_555
C26 N10 1_555 1_555
H16 C26 1_555 1_555
N11 Zn1 1_555 1_555
C27 N11 1_555 1_555
H17 C27 1_555 1_555
C28 C27 1_555 1_555
H18 C28 1_555 1_555
C29 C20 1_555 1_555
C30 C29 1_555 1_555
H19 C30 1_555 1_555
C31 N11 1_555 1_555
H20 C31 1_555 1_555
N12 C32 1_555 1_555
C32 H21 1_555 1_555
C33 C32 1_555 1_555
H22 C33 1_555 1_555
C34 C21 1_555 1_555
C35 C34 1_555 1_555
H23 C35 1_555 1_555
C36 N12 1_555 1_555
H24 C36 1_555 1_555
C37 H25 1_555 1_555
C38 C37 1_555 1_555
H26 C38 1_555 1_555
C39 C38 1_555 1_555
H27 C39 1_555 1_555
C40 C39 1_555 1_555
H28 C40 1_555 1_555
C41 C40 1_555 1_555
H29 C41 1_555 1_555
C42 C37 1_555 1_555
H30 C42 1_555 1_555
C43 H31 1_555 1_555
C44 C43 1_555 1_555
H32 C44 1_555 1_555
C45 C44 1_555 1_555
H33 C45 1_555 1_555
C46 C45 1_555 1_555
H34 C46 1_555 1_555
C47 C46 1_555 1_555
H35 C47 1_555 1_555
C48 C43 1_555 1_555
H36 C48 1_555 1_555
C49 H37 1_555 1_555
C50 C49 1_555 1_555
H38 C50 1_555 1_555
C51 C50 1_555 1_555
H39 C51 1_555 1_555
C52 C51 1_555 1_555
H40 C52 1_555 1_555
C53 C52 1_555 1_555
H41 C53 1_555 1_555
C54 C49 1_555 1_555
H42 C54 1_555 1_555
C55 H43 1_555 1_555
C56 C55 1_555 1_555
H44 C56 1_555 1_555
C57 C55 1_555 1_555
H45 C57 1_555 1_555
C58 H46 1_555 1_555
C59 C58 1_555 1_555
H47 C59 1_555 1_555
C60 C59 1_555 1_555
H48 C60 1_555 1_555
C61 C60 1_555 1_555
H49 C61 1_555 1_555
C62 C61 1_555 1_555
H50 C62 1_555 1_555
C63 C58 1_555 1_555
H51 C63 1_555 1_555
C64 H52 1_555 1_555
C65 C64 1_555 1_555
H53 C65 1_555 1_555
C66 C65 1_555 1_555
H54 C66 1_555 1_555
C67 C66 1_555 1_555
H55 C67 1_555 1_555
Zn2G N10 1_555 1_555
N10G Zn2 1_555 1_555
N12A Zn3 1_555 1_555
Zn3A N12 1_555 1_555
C57E C56 1_555 1_555
C55E C57E 1_555 1_555
H43E C55E 1_555 1_555
C56E C57 1_555 1_555
H44E C56E 1_555 1_555
H45E C57E 1_555 1_555
C66B C67 1_555 1_555
C65B C64 1_555 1_555
H53B C65B 1_555 1_555
H54B C66B 1_555 1_555
N3 C3 1_555 1_555
C7 C8 1_555 1_555
C10 C11 1_555 1_555
C12 C13 1_555 1_555
C15 C16 1_555 1_555
C17 C18 1_555 1_555
N9 C21 1_555 1_555
C25 C26 1_555 1_555
C28 C29 1_555 1_555
C30 C31 1_555 1_555
C33 C34 1_555 1_555
C35 C36 1_555 1_555
C41 C42 1_555 1_555
C47 C48 1_555 1_555
C53 C54 1_555 1_555
C62 C63 1_555 1_555
C55E C56E 1_555 1_555
C66B C65B 1_555 1_555

#END
