
#######################################################################
#
#                 Cambridge Crystallographic Data Centre
#                                CCDC 
#
#######################################################################
#
# If this CIF has been generated from an entry in the Cambridge 
# Structural Database, then it will include bibliographic, chemical, 
# crystal, experimental, refinement or atomic coordinate data resulting 
# from the CCDC's data processing and validation procedures.
#
#######################################################################

data_LUDWEM02
_symmetry_cell_setting           monoclinic
_symmetry_space_group_name_H-M   'P 21'
_symmetry_Int_Tables_number      4
_space_group_name_Hall           'P 2yb'
loop_
_symmetry_equiv_pos_site_id
_symmetry_equiv_pos_as_xyz
1 x,y,z
2 -x,1/2+y,-z
_cell_length_a                   12.7190(5)
_cell_length_b                   29.6449(11)
_cell_length_c                   6.51966(23)
_cell_angle_alpha                90
_cell_angle_beta                 93.066(2)
_cell_angle_gamma                90
_cell_volume                     2454.74
loop_
_atom_site_label
_atom_site_type_symbol
_atom_site_fract_x
_atom_site_fract_y
_atom_site_fract_z
Zn1 Zn -0.23179 0.94823 0.25222
I1 I -0.04779 0.95564 0.42228
I2 I -0.40965 0.94429 0.41344
N1 N -0.23938 1.00245 0.01958
N2 N -0.22446 0.89717 0.02347
C1 C -0.33513 1.00892 -0.09633
C2 C -0.14815 1.01761 -0.04717
C3 C -0.30927 0.88287 -0.06048
C4 C -0.13916 0.88727 -0.06064
C5 C -0.34192 1.03366 -0.29210
C6 C -0.13597 1.04245 -0.24172
C7 C -0.31861 0.85142 -0.25525
C8 C -0.13130 0.85814 -0.25180
C9 C -0.23696 1.05235 -0.36894
C10 C -0.22915 0.84043 -0.33970
C11 C -0.23977 1.07304 -0.52849
C12 C -0.23224 0.82436 -0.51330
N3 N -0.33509 1.08454 -0.60741
N4 N -0.14679 1.08098 -0.60407
N5 N -0.32530 0.80818 -0.58303
N6 N -0.13586 0.81815 -0.59282
C13 C -0.32922 1.10909 -0.78924
C14 C -0.14510 1.10745 -0.79794
C15 C -0.31765 0.78513 -0.74270
C16 C -0.14065 0.79395 -0.76217
N7 N -0.22957 1.12204 -0.90033
C17 C -0.42265 1.12269 -0.87910
C18 C -0.05048 1.11486 -0.88630
N8 N -0.21956 0.77654 -0.85537
C19 C -0.42667 0.77093 -0.87285
C20 C -0.04747 0.78161 -0.83899
C21 C -0.52175 1.09996 -0.80540
C22 C -0.42357 1.14505 -1.06469
C23 C 0.03153 1.08298 -0.84699
C24 C -0.04715 1.14889 -1.04991
C25 C -0.52342 0.77349 -0.79457
C26 C -0.42070 0.75694 -1.07504
C27 C -0.04872 0.74859 -1.01623
C28 C 0.04028 0.81630 -0.81938
C29 C -0.60689 1.10515 -0.92331
C30 C -0.52205 1.14689 -1.17787
C31 C 0.11592 1.08668 -0.96630
C32 C 0.05232 1.14979 -1.16687
C33 C -0.62449 0.76194 -0.94007
C34 C -0.51460 0.74841 -1.19104
C35 C 0.04072 0.75120 -1.15910
C36 C 0.11855 0.81220 -0.97056
N9 N -0.61538 1.12899 -1.11827
N10 N 0.12573 1.12120 -1.12563
N11 N -0.62121 0.75143 -1.11825
N12 N 0.11749 0.77896 -1.13992
Zn2 Zn -0.74767 1.12304 -1.30508
Zn3 Zn -0.75120 0.77544 -1.30628
I3 I -0.77170 1.18656 -1.54943
I4 I -0.70538 1.03680 -1.44747
I5 I -0.77314 0.70830 -1.55436
I6 I -0.71829 0.84554 -1.44949
N10_2 N -0.87427 1.12120 -1.12563
N12_2 N -0.88251 0.77896 -1.13992
Zn2_2 Zn 0.25233 1.12304 -1.30508
Zn3_2 Zn 0.24880 0.77544 -1.30628
loop_
_geom_bond_atom_site_label_1
_geom_bond_atom_site_label_2
_geom_bond_site_symmetry_1
_geom_bond_site_symmetry_2
Zn1 I1 1_555 1_555
I2 Zn1 1_555 1_555
N1 Zn1 1_555 1_555
N2 Zn1 1_555 1_555
C1 N1 1_555 1_555
C2 N1 1_555 1_555
C3 N2 1_555 1_555
C4 N2 1_555 1_555
C5 C1 1_555 1_555
C6 C2 1_555 1_555
C7 C3 1_555 1_555
C8 C4 1_555 1_555
C9 C5 1_555 1_555
C10 C7 1_555 1_555
C11 C9 1_555 1_555
C12 C10 1_555 1_555
N3 C11 1_555 1_555
N4 C11 1_555 1_555
N5 C12 1_555 1_555
N6 C12 1_555 1_555
C13 N3 1_555 1_555
C14 N4 1_555 1_555
C15 N5 1_555 1_555
C16 N6 1_555 1_555
N7 C13 1_555 1_555
C17 C13 1_555 1_555
C18 C14 1_555 1_555
N8 C15 1_555 1_555
C19 C15 1_555 1_555
C20 C16 1_555 1_555
C21 C17 1_555 1_555
C22 C17 1_555 1_555
C23 C18 1_555 1_555
C24 C18 1_555 1_555
C25 C19 1_555 1_555
C26 C19 1_555 1_555
C27 C20 1_555 1_555
C28 C20 1_555 1_555
C29 C21 1_555 1_555
C30 C22 1_555 1_555
C31 C23 1_555 1_555
C32 C24 1_555 1_555
C33 C25 1_555 1_555
C34 C26 1_555 1_555
C35 C27 1_555 1_555
C36 C28 1_555 1_555
N9 C29 1_555 1_555
N10 C31 1_555 1_555
N11 C33 1_555 1_555
N12 C35 1_555 1_555
Zn2 N9 1_555 1_555
Zn3 N11 1_555 1_555
I3 Zn2 1_555 1_555
I4 Zn2 1_555 1_555
I5 Zn3 1_555 1_555
I6 Zn3 1_555 1_555
N10_2 Zn2 1_555 1_555
N12_2 Zn3 1_555 1_555
Zn2_2 N10 1_555 1_555
Zn3_2 N12 1_555 1_555
C6 C9 1_555 1_555
C8 C10 1_555 1_555
C14 N7 1_555 1_555
C16 N8 1_555 1_555
C30 N9 1_555 1_555
C32 N10 1_555 1_555
C34 N11 1_555 1_555
C36 N12 1_555 1_555

#END
