
#######################################################################
#
#                 Cambridge Crystallographic Data Centre
#                                CCDC 
#
#######################################################################
#
# If this CIF has been generated from an entry in the Cambridge 
# Structural Database, then it will include bibliographic, chemical, 
# crystal, experimental, refinement or atomic coordinate data resulting 
# from the CCDC's data processing and validation procedures.
#
#######################################################################

data_LUDWEM01
_symmetry_cell_setting           orthorhombic
_symmetry_space_group_name_H-M   'P c c n'
_symmetry_Int_Tables_number      56
_space_group_name_Hall           '-P 2ab 2ac'
loop_
_symmetry_equiv_pos_site_id
_symmetry_equiv_pos_as_xyz
1 x,y,z
2 1/2-x,1/2-y,z
3 -x,1/2+y,1/2-z
4 1/2+x,-y,1/2-z
5 -x,-y,-z
6 1/2+x,1/2+y,-z
7 x,1/2-y,1/2+z
8 1/2-x,y,1/2+z
_cell_length_a                   30.360(1)
_cell_length_b                   12.7750(4)
_cell_length_c                   13.5826(4)
_cell_angle_alpha                90
_cell_angle_beta                 90
_cell_angle_gamma                90
_cell_volume                     5268
loop_
_atom_site_label
_atom_site_type_symbol
_atom_site_fract_x
_atom_site_fract_y
_atom_site_fract_z
I1 I 0.74694(81) -0.08014(55) 0.33959(53)
I2 I 0.50818(24) -0.7474(16) 1.26799(53)
I3 I 0.64885(25) -0.72476(77) 1.23198(53)
Zn1 Zn 0.75000 -0.25000 0.408(3)
Zn2 Zn 0.57474(67) -0.7432(35) 1.1461(13)
C1 C 0.593(11) -0.143(24) 0.897(33)
C2 C 0.583(12) -0.053(26) 0.945(25)
C3 C 0.61(1) 0.041(29) 0.922(16)
C4 C 0.5966(88) 0.131(18) 0.985(26)
C5 C 0.5499(84) 0.043(31) 1.078(22)
C6 C 0.55(1) -0.055(26) 1.023(28)
C7 C 0.6273(53) -0.228(41) 0.77(1)
C8 C 0.655(6) -0.227(46) 0.6700(99)
C9 C 0.67(1) -0.138(22) 0.630(32)
C10 C 0.666(12) -0.319(23) 0.624(35)
C11 C 0.692(13) -0.317(22) 0.539(33)
C12 C 0.695(11) -0.145(26) 0.543(32)
C13 C 0.5547(77) -0.506(34) 1.083(23)
C14 C 0.56(1) -0.410(27) 1.022(28)
C15 C 0.588(13) -0.404(26) 0.952(23)
C16 C 0.6174(73) -0.490(31) 0.937(17)
C17 C 0.6128(86) -0.579(28) 1.00(3)
C18 C 0.595(11) -0.315(26) 0.901(33)
N1 N 0.6170(73) -0.137(18) 0.802(25)
N2 N 0.5825(41) -0.23(3) 0.9430(84)
N3 N 0.6191(89) -0.318(21) 0.806(25)
N4 N 0.58(1) -0.583(18) 1.073(18)
N5 N 0.7063(43) -0.24(4) 0.50(1)
N6 N 0.5702(82) 0.128(19) 1.056(18)
I1A I 0.75306(81) -0.41986(55) 0.33959(53)
I2A I 0.99182(24) 0.2474(16) 1.26799(53)
I3A I 0.85115(25) 0.22476(77) 1.23198(53)
Zn2A Zn 0.92526(67) 0.2432(35) 1.1461(13)
Zn2_2 Zn 0.57474(67) 0.2568(35) 1.1461(13)
Zn2A_2 Zn 0.92526(67) -0.7568(35) 1.1461(13)
C1A C 0.907(11) -0.357(24) 0.897(33)
C2A C 0.917(12) -0.447(26) 0.945(25)
C3A C 0.89(1) -0.541(29) 0.922(16)
C4A C 0.9034(88) -0.631(18) 0.985(26)
C5A C 0.9501(84) -0.543(31) 1.078(22)
C6A C 0.95(1) -0.445(26) 1.023(28)
C7A C 0.8727(53) -0.272(41) 0.77(1)
C8A C 0.845(6) -0.273(46) 0.6700(99)
C9A C 0.83(1) -0.362(22) 0.630(32)
C10A C 0.834(12) -0.181(23) 0.624(35)
C11A C 0.808(13) -0.183(22) 0.539(33)
C12A C 0.805(11) -0.355(26) 0.543(32)
C13A C 0.9453(77) 0.006(34) 1.083(23)
C14A C 0.94(1) -0.090(27) 1.022(28)
C15A C 0.912(13) -0.096(26) 0.952(23)
C16A C 0.8826(73) -0.010(31) 0.937(17)
C17A C 0.8872(86) 0.079(28) 1.00(3)
C18A C 0.905(11) -0.185(26) 0.901(33)
N1A N 0.8830(73) -0.363(18) 0.802(25)
N2A N 0.9175(41) -0.27(3) 0.9430(84)
N3A N 0.8809(89) -0.182(21) 0.806(25)
N4A N 0.92(1) 0.083(18) 1.073(18)
N5A N 0.7937(43) -0.26(4) 0.50(1)
N6A N 0.9298(82) -0.628(19) 1.056(18)
N6_2 N 0.5702(82) -0.872(19) 1.056(18)
N6A_2 N 0.9298(82) 0.372(19) 1.056(18)
loop_
_geom_bond_atom_site_label_1
_geom_bond_atom_site_label_2
_geom_bond_site_symmetry_1
_geom_bond_site_symmetry_2
I1 Zn1 1_555 1_555
I2 Zn2 1_555 1_555
I3 Zn2 1_555 1_555
Zn1 N5 1_555 1_555
Zn2 N4 1_555 1_555
C1 C2 1_555 1_555
C2 C3 1_555 1_555
C3 C4 1_555 1_555
C4 N6 1_555 1_555
C5 C6 1_555 1_555
C6 C2 1_555 1_555
C7 C8 1_555 1_555
C8 C9 1_555 1_555
C9 C12 1_555 1_555
C10 C8 1_555 1_555
C11 C10 1_555 1_555
C12 N5 1_555 1_555
C13 C14 1_555 1_555
C14 C15 1_555 1_555
C15 C16 1_555 1_555
C16 C17 1_555 1_555
C17 N4 1_555 1_555
C18 C15 1_555 1_555
N1 C1 1_555 1_555
N2 C1 1_555 1_555
N3 C7 1_555 1_555
N4 C13 1_555 1_555
N5 C11 1_555 1_555
N6 C5 1_555 1_555
I1A Zn1 1_555 1_555
I2A Zn2A 1_555 1_555
I3A Zn2A 1_555 1_555
Zn2A N4A 1_555 1_555
Zn2_2 N6 1_555 1_555
Zn2A_2 N6A 1_555 1_555
C1A C2A 1_555 1_555
C2A C3A 1_555 1_555
C3A C4A 1_555 1_555
C4A N6A 1_555 1_555
C5A C6A 1_555 1_555
C6A C2A 1_555 1_555
C7A C8A 1_555 1_555
C8A C9A 1_555 1_555
C9A C12A 1_555 1_555
C10A C8A 1_555 1_555
C11A C10A 1_555 1_555
C12A N5A 1_555 1_555
C13A C14A 1_555 1_555
C14A C15A 1_555 1_555
C15A C16A 1_555 1_555
C16A C17A 1_555 1_555
C17A N4A 1_555 1_555
C18A C15A 1_555 1_555
N1A C1A 1_555 1_555
N2A C1A 1_555 1_555
N3A C7A 1_555 1_555
N4A C13A 1_555 1_555
N5A Zn1 1_555 1_555
N6A C5A 1_555 1_555
N6_2 Zn2 1_555 1_555
N6A_2 Zn2A 1_555 1_555
C7 N1 1_555 1_555
C18 N2 1_555 1_555
C18 N3 1_555 1_555
C7A N1A 1_555 1_555
C11A N5A 1_555 1_555
C18A N2A 1_555 1_555
C18A N3A 1_555 1_555

#END
