
#######################################################################
#
#                 Cambridge Crystallographic Data Centre
#                                CCDC 
#
#######################################################################
#
# If this CIF has been generated from an entry in the Cambridge 
# Structural Database, then it will include bibliographic, chemical, 
# crystal, experimental, refinement or atomic coordinate data resulting 
# from the CCDC's data processing and validation procedures.
#
#######################################################################

data_LUFBAR
_symmetry_cell_setting           triclinic
_symmetry_space_group_name_H-M   'P -1'
_symmetry_Int_Tables_number      2
_space_group_name_Hall           '-P 1'
loop_
_symmetry_equiv_pos_site_id
_symmetry_equiv_pos_as_xyz
1 x,y,z
2 -x,-y,-z
_cell_length_a                   7.9867(16)
_cell_length_b                   8.3516(17)
_cell_length_c                   11.604(2)
_cell_angle_alpha                90.50(3)
_cell_angle_beta                 103.76(3)
_cell_angle_gamma                101.40(3)
_cell_volume                     735.697
loop_
_atom_site_label
_atom_site_type_symbol
_atom_site_fract_x
_atom_site_fract_y
_atom_site_fract_z
Cd1 Cd 0.10045(2) 0.15201(2) 0.15285(2)
N1 N 0.0295(3) 0.3920(2) 0.24312(19)
N2 N -0.0371(3) 0.3821(3) 0.3401(2)
N3 N -0.0839(3) 0.5166(3) 0.36075(19)
N4 N -0.0473(2) 0.6163(2) 0.27628(16)
N5 N 0.1277(2) 0.8638(2) 0.47560(16)
H1 H 0.0908 0.7779 0.5101
N6 N 0.1457(2) 1.0389(2) 0.33447(15)
O1 O 0.1546(2) -0.0858(2) 0.06800(17)
O2 O 0.1912(2) -0.0712(2) -0.11436(15)
O3 O 0.2140(2) 0.3375(3) 0.02322(17)
O4 O 0.3894(3) 0.2954(3) 0.18917(18)
C1 C 0.0214(3) 0.5382(3) 0.2052(2)
H2 H 0.0578 0.5802 0.1392
C2 C -0.0806(3) 0.7819(3) 0.2761(2)
H3 H -0.1908 0.7804 0.2979
H4 H -0.0918 0.8207 0.1966
C3 C 0.0651(3) 0.8965(2) 0.36131(18)
C4 C 0.2621(3) 0.9939(3) 0.52659(19)
C5 C 0.3786(3) 1.0199(3) 0.6386(2)
H5 H 0.3732 0.9440 0.6964
C6 C 0.5016(3) 1.1636(3) 0.6588(2)
H6 H 0.5820 1.1856 0.7323
C7 C 0.5098(3) 1.2781(3) 0.5718(2)
H7 H 0.5939 1.3750 0.5895
C8 C 0.3962(3) 1.2506(3) 0.4605(2)
H8 H 0.4025 1.3264 0.4027
C9 C 0.2711(3) 1.1043(3) 0.43826(18)
C10 C 0.2511(3) -0.0646(3) -0.0043(2)
C11 C 0.4483(3) -0.0306(3) 0.04422(19)
H9 H 0.4795 0.0499 0.1106
H10 H 0.4822 -0.1304 0.0744
C12 C 0.3619(3) 0.3633(3) 0.0935(2)
C13 C 0.5164(4) 0.4767(4) 0.0636(2)
H11 H 0.5468 0.5756 0.1150
H12 H 0.6170 0.4242 0.0805
O1A O 0.8454(2) 0.0858(2) -0.06800(17)
O2A O 0.8088(2) 0.0712(2) 0.11436(15)
C10A C 0.7489(3) 0.0646(3) 0.0043(2)
C11A C 0.5517(3) 0.0306(3) -0.04422(19)
H9A H 0.5205 -0.0499 -0.1106
H10A H 0.5178 0.1304 -0.0744
O3A O 0.7860(2) 0.6625(3) -0.02322(17)
O4A O 0.6106(3) 0.7046(3) -0.18917(18)
C12A C 0.6381(3) 0.6367(3) -0.0935(2)
C13A C 0.4836(4) 0.5233(4) -0.0636(2)
H11A H 0.4532 0.4244 -0.1150
H12A H 0.3830 0.5758 -0.0805
Cd1A Cd -0.10045(2) -0.15201(2) -0.15285(2)
N1A N -0.0295(3) -0.3920(2) -0.24312(19)
N2A N 0.0371(3) -0.3821(3) -0.3401(2)
N3A N 0.0839(3) -0.5166(3) -0.36075(19)
N4A N 0.0473(2) -0.6163(2) -0.27628(16)
N5A N -0.1277(2) -0.8638(2) -0.47560(16)
H1A H -0.0908 -0.7779 -0.5101
N6A N -0.1457(2) -1.0389(2) -0.33447(15)
C1A C -0.0214(3) -0.5382(3) -0.2052(2)
H2A H -0.0578 -0.5802 -0.1392
C2A C 0.0806(3) -0.7819(3) -0.2761(2)
H3A H 0.1908 -0.7804 -0.2979
H4A H 0.0918 -0.8207 -0.1966
C3A C -0.0651(3) -0.8965(2) -0.36131(18)
C4A C -0.2621(3) -0.9939(3) -0.52659(19)
C5A C -0.3786(3) -1.0199(3) -0.6386(2)
H5A H -0.3732 -0.9440 -0.6964
C6A C -0.5016(3) -1.1636(3) -0.6588(2)
H6A H -0.5820 -1.1856 -0.7323
C7A C -0.5098(3) -1.2781(3) -0.5718(2)
H7A H -0.5939 -1.3750 -0.5895
C8A C -0.3962(3) -1.2506(3) -0.4605(2)
H8A H -0.4025 -1.3264 -0.4027
C9A C -0.2711(3) -1.1043(3) -0.43826(18)
Cd1_2 Cd 0.10045(2) 1.15201(2) 0.15285(2)
Cd1_3 Cd 1.10045(2) 0.15201(2) 0.15285(2)
Cd1A_2 Cd -0.10045(2) -1.15201(2) -0.15285(2)
Cd1A_3 Cd 0.89955(2) -0.15201(2) -0.15285(2)
Cd1A_4 Cd 0.89955(2) 0.84799(2) -0.15285(2)
N6_2 N 0.1457(2) 0.0389(2) 0.33447(15)
N6A_2 N -0.1457(2) -0.0389(2) -0.33447(15)
O1A_2 O -0.1546(2) 0.0858(2) -0.06800(17)
O2A_2 O -0.1912(2) 0.0712(2) 0.11436(15)
O3A_2 O -0.2140(2) -0.3375(3) -0.02322(17)
O4A_2 O -0.3894(3) -0.2954(3) -0.18917(18)
loop_
_geom_bond_atom_site_label_1
_geom_bond_atom_site_label_2
_geom_bond_site_symmetry_1
_geom_bond_site_symmetry_2
Cd1 N1 1_555 1_555
N1 N2 1_555 1_555
N2 N3 1_555 1_555
N3 N4 1_555 1_555
N4 C1 1_555 1_555
N5 H1 1_555 1_555
N6 C3 1_555 1_555
O1 Cd1 1_555 1_555
O2 C10 1_555 1_555
O3 Cd1 1_555 1_555
O4 Cd1 1_555 1_555
C1 N1 1_555 1_555
H2 C1 1_555 1_555
C2 N4 1_555 1_555
H3 C2 1_555 1_555
H4 C2 1_555 1_555
C3 N5 1_555 1_555
C4 N5 1_555 1_555
C5 C4 1_555 1_555
H5 C5 1_555 1_555
C6 C5 1_555 1_555
H6 C6 1_555 1_555
C7 C6 1_555 1_555
H7 C7 1_555 1_555
C8 C7 1_555 1_555
H8 C8 1_555 1_555
C9 N6 1_555 1_555
C10 O1 1_555 1_555
C11 C10 1_555 1_555
H9 C11 1_555 1_555
H10 C11 1_555 1_555
C12 O3 1_555 1_555
C13 C12 1_555 1_555
H11 C13 1_555 1_555
H12 C13 1_555 1_555
O1A C10A 1_555 1_555
O2A C10A 1_555 1_555
C10A C11A 1_555 1_555
C11A C11 1_555 1_555
H9A C11A 1_555 1_555
H10A C11A 1_555 1_555
O3A C12A 1_555 1_555
O4A C12A 1_555 1_555
C12A C13A 1_555 1_555
C13A C13 1_555 1_555
H11A C13A 1_555 1_555
H12A C13A 1_555 1_555
Cd1A O2 1_555 1_555
N1A Cd1A 1_555 1_555
N2A N1A 1_555 1_555
N3A N2A 1_555 1_555
N4A N3A 1_555 1_555
N5A H1A 1_555 1_555
N6A C3A 1_555 1_555
C1A N1A 1_555 1_555
H2A C1A 1_555 1_555
C2A N4A 1_555 1_555
H3A C2A 1_555 1_555
H4A C2A 1_555 1_555
C3A N5A 1_555 1_555
C4A N5A 1_555 1_555
C5A C4A 1_555 1_555
H5A C5A 1_555 1_555
C6A C5A 1_555 1_555
H6A C6A 1_555 1_555
C7A C6A 1_555 1_555
H7A C7A 1_555 1_555
C8A C7A 1_555 1_555
H8A C8A 1_555 1_555
C9A N6A 1_555 1_555
Cd1_2 N6 1_555 1_555
Cd1_3 O2A 1_555 1_555
Cd1A_2 N6A 1_555 1_555
Cd1A_3 O1A 1_555 1_555
Cd1A_4 O3A 1_555 1_555
N6_2 Cd1 1_555 1_555
N6A_2 Cd1A 1_555 1_555
O1A_2 Cd1A 1_555 1_555
O2A_2 Cd1 1_555 1_555
O3A_2 Cd1A 1_555 1_555
O4A_2 Cd1A 1_555 1_555
O4 C12 1_555 1_555
C2 C3 1_555 1_555
C4 C9 1_555 1_555
C8 C9 1_555 1_555
O4A Cd1A_4 1_555 1_555
N4A C1A 1_555 1_555
C2A C3A 1_555 1_555
C4A C9A 1_555 1_555
C8A C9A 1_555 1_555

#END
