
#######################################################################
#
#                 Cambridge Crystallographic Data Centre
#                                CCDC 
#
#######################################################################
#
# If this CIF has been generated from an entry in the Cambridge 
# Structural Database, then it will include bibliographic, chemical, 
# crystal, experimental, refinement or atomic coordinate data resulting 
# from the CCDC's data processing and validation procedures.
#
#######################################################################

data_LUFCUK
_symmetry_cell_setting           monoclinic
_symmetry_space_group_name_H-M   'C 2/c'
_symmetry_Int_Tables_number      15
_space_group_name_Hall           '-C 2yn'
loop_
_symmetry_equiv_pos_site_id
_symmetry_equiv_pos_as_xyz
1 x,y,z
2 1/2+x,1/2+y,z
3 x,-y,1/2+z
4 1/2+x,1/2-y,1/2+z
5 -x,-y,-z
6 1/2-x,1/2-y,-z
7 -x,y,1/2-z
8 1/2-x,1/2+y,1/2-z
_cell_length_a                   14.0827(16)
_cell_length_b                   10.9385(13)
_cell_length_c                   12.3648(14)
_cell_angle_alpha                90
_cell_angle_beta                 95.209(2)
_cell_angle_gamma                90
_cell_volume                     1896.85
loop_
_atom_site_label
_atom_site_type_symbol
_atom_site_fract_x
_atom_site_fract_y
_atom_site_fract_z
Cr1 Cr 0.5000 0.43127(4) 0.2500
O1 O 0.59417(11) 0.55921(16) 0.21566(14)
H1 H 0.6175(18) 0.604(2) 0.259(2)
H2 H 0.5753(19) 0.595(3) 0.162(2)
O2 O 0.45690(9) 0.41962(13) 0.09532(10)
O3 O 0.59223(10) 0.30700(13) 0.21414(11)
O4 O 0.48415(12) 0.30833(13) -0.05014(12)
O5 O 0.64540(12) 0.21934(15) 0.06829(13)
C1 C 0.50289(14) 0.34037(19) 0.04403(16)
C2 C 0.58845(15) 0.28202(19) 0.11266(17)
O1F O 0.40583(11) 0.55921(16) 0.28434(14)
H1F H 0.3825(18) 0.604(2) 0.241(2)
H2F H 0.4247(19) 0.595(3) 0.338(2)
O2F O 0.54310(9) 0.41962(13) 0.40468(10)
O3F O 0.40777(10) 0.30700(13) 0.28586(11)
O4F O 0.51585(12) 0.30833(13) 0.55014(12)
O5F O 0.35460(12) 0.21934(15) 0.43171(13)
C1F C 0.49711(14) 0.34037(19) 0.45597(16)
C2F C 0.41155(15) 0.28202(19) 0.38734(17)
Ag1 Ag 0.5000 -0.0088(6) 0.2500
N1 N 0.59048(13) 0.04201(18) 0.41393(14)
N2 N 0.59060(12) 0.04578(16) 0.60474(13)
C3 C 0.55011(14) 0.02380(18) 0.50509(14)
C4 C 0.68173(19) 0.0828(2) 0.6112(2)
H3 H 0.7047(19) 0.095(2) 0.682(2)
C5 C 0.7300(2) 0.0975(3) 0.5220(3)
H4 H 0.795(2) 0.119(3) 0.527(2)
C6 C 0.68147(19) 0.0785(3) 0.4247(3)
H5 H 0.706(2) 0.093(2) 0.358(2)
C3D C 0.44989(14) -0.02380(18) 0.49491(14)
N1D N 0.40952(13) -0.04201(18) 0.58607(14)
C6D C 0.31853(19) -0.0785(3) 0.5753(3)
C5D C 0.2700(2) -0.0975(3) 0.4780(3)
C4D C 0.31827(19) -0.0828(2) 0.3888(2)
N2D N 0.40940(12) -0.04578(16) 0.39526(13)
H3D H 0.2953(19) -0.095(2) 0.318(2)
H4D H 0.205(2) -0.119(3) 0.473(2)
H5D H 0.294(2) -0.093(2) 0.642(2)
N1F N 0.40952(13) 0.04201(18) 0.08607(14)
N2B N 0.59060(12) -0.04578(16) 0.10474(13)
Ag1B Ag 0.5000 0.0088(6) 0.7500
O6 O 0.6664(2) 0.7334(2) 0.34028(16)
H6 H 0.721(3) 0.705(4) 0.362(3)
H7 H 0.637(2) 0.740(3) 0.385(3)
Ag2? Ag 0.471(2) -0.0082(7) 0.2478(11)
loop_
_geom_bond_atom_site_label_1
_geom_bond_atom_site_label_2
_geom_bond_site_symmetry_1
_geom_bond_site_symmetry_2
Cr1 O1 1_555 1_555
O1 H1 1_555 1_555
H2 O1 1_555 1_555
O2 Cr1 1_555 1_555
O3 Cr1 1_555 1_555
O4 C1 1_555 1_555
O5 C2 1_555 1_555
C1 O2 1_555 1_555
C2 O3 1_555 1_555
Ag1 N1 1_555 1_555
N1 C3 1_555 1_555
N2 C3 1_555 1_555
C3 C3D 1_555 1_555
C4 N2 1_555 1_555
H3 C4 1_555 1_555
C5 C4 1_555 1_555
H4 C5 1_555 1_555
C6 N1 1_555 1_555
H5 C6 1_555 1_555
O6 H6 1_555 1_555
H7 O6 1_555 1_555
C3D N1D 1_555 1_555
N1D C6D 1_555 1_555
C6D C5D 1_555 1_555
C5D C4D 1_555 1_555
C4D N2D 1_555 1_555
N2D Ag1 1_555 1_555
H3D C4D 1_555 1_555
H4D C5D 1_555 1_555
H5D C6D 1_555 1_555
O1F Cr1 1_555 1_555
H1F O1F 1_555 1_555
H2F O1F 1_555 1_555
O2F Cr1 1_555 1_555
O3F Cr1 1_555 1_555
O4F C1F 1_555 1_555
O5F C2F 1_555 1_555
C1F O2F 1_555 1_555
C2F O3F 1_555 1_555
N1F Ag1 1_555 1_555
N2B Ag1 1_555 1_555
Ag1B N2 1_555 1_555
C1 C2 1_555 1_555
C5 C6 1_555 1_555
C3D N2D 1_555 1_555
N1D Ag1B 1_555 1_555
C1F C2F 1_555 1_555

#END
