
#######################################################################
#
#                 Cambridge Crystallographic Data Centre
#                                CCDC 
#
#######################################################################
#
# If this CIF has been generated from an entry in the Cambridge 
# Structural Database, then it will include bibliographic, chemical, 
# crystal, experimental, refinement or atomic coordinate data resulting 
# from the CCDC's data processing and validation procedures.
#
#######################################################################

data_LUFFEY
_symmetry_cell_setting           monoclinic
_symmetry_space_group_name_H-M   'C 2/c'
_symmetry_Int_Tables_number      15
_space_group_name_Hall           '-C 2yn'
loop_
_symmetry_equiv_pos_site_id
_symmetry_equiv_pos_as_xyz
1 x,y,z
2 -x,y,1/2-z
3 1/2+x,1/2+y,z
4 1/2-x,1/2+y,1/2-z
5 -x,-y,-z
6 x,-y,1/2+z
7 1/2-x,1/2-y,-z
8 1/2+x,1/2-y,1/2+z
_cell_length_a                   27.257(5)
_cell_length_b                   14.035(2)
_cell_length_c                   21.840(4)
_cell_angle_alpha                90
_cell_angle_beta                 125.981(4)
_cell_angle_gamma                90
_cell_volume                     6760.91
loop_
_atom_site_label
_atom_site_type_symbol
_atom_site_fract_x
_atom_site_fract_y
_atom_site_fract_z
Cu1 Cu 0.0000 0.58343(14) 0.2500
Br1 Br 0.0000 0.41217(13) 0.2500
N1 N 0.0672(4) 0.6372(6) 0.3456(5)
N2 N 0.4635(4) 0.9494(6) 0.9027(4)
C1 C 0.0690(6) 0.7276(10) 0.3632(7)
H1 H 0.0357 0.7672 0.3280
C2 C 0.1178(6) 0.7691(9) 0.4317(7)
H2 H 0.1167 0.8345 0.4420
C3 C 0.1675(5) 0.7126(7) 0.4838(5)
C4 C 0.1644(5) 0.6211(8) 0.4628(6)
H3 H 0.1973 0.5793 0.4950
C5 C 0.1144(6) 0.5877(8) 0.3955(6)
H4 H 0.1143 0.5221 0.3846
C6 C 0.2203(4) 0.7540(8) 0.5557(5)
C7 C 0.2227(5) 0.8520(7) 0.5705(6)
H5 H 0.1912 0.8930 0.5338
C8 C 0.2709(6) 0.8885(7) 0.6382(6)
H6 H 0.2722 0.9551 0.6468
C9 C 0.3176(4) 0.8322(7) 0.6942(5)
C10 C 0.3141(4) 0.7356(6) 0.6781(5)
H7 H 0.3454 0.6949 0.7156
C11 C 0.2675(5) 0.6960(7) 0.6104(6)
H8 H 0.2677 0.6299 0.6012
C12 C 0.3686(5) 0.8729(7) 0.7672(5)
C13 C 0.3862(5) 0.9679(7) 0.7734(5)
H9 H 0.3649 1.0078 0.7300
C14 C 0.4329(5) 1.0038(7) 0.8401(6)
H10 H 0.4443 1.0685 0.8430
C15 C 0.4478(5) 0.8567(8) 0.8970(6)
H11 H 0.4704 0.8173 0.9405
C16 C 0.4016(5) 0.8190(7) 0.8322(6)
H12 H 0.3912 0.7541 0.8309
C17 C 0.5122(5) 0.9904(7) 0.9780(5)
H13 H 0.5465 0.9451 1.0060
H14 H 0.5274 1.0504 0.9709
Cu1D Cu 1.0000 1.41657(14) 1.7500
N1D N 0.9328(4) 1.3628(6) 1.6544(5)
N1A N -0.0672(4) 0.6372(6) 0.1544(5)
N2D N 0.5365(4) 1.0506(6) 1.0973(4)
C1D C 0.9310(6) 1.2724(10) 1.6368(7)
H1D H 0.9643 1.2328 1.6720
C2D C 0.8822(6) 1.2309(9) 1.5683(7)
H2D H 0.8833 1.1655 1.5580
C3D C 0.8325(5) 1.2874(7) 1.5162(5)
C4D C 0.8356(5) 1.3789(8) 1.5372(6)
H3D H 0.8027 1.4207 1.5050
C5D C 0.8856(6) 1.4123(8) 1.6045(6)
H4D H 0.8857 1.4779 1.6154
C6D C 0.7797(4) 1.2460(8) 1.4443(5)
C7D C 0.7773(5) 1.1480(7) 1.4295(6)
H5D H 0.8088 1.1070 1.4662
C8D C 0.7291(6) 1.1115(7) 1.3618(6)
H6D H 0.7278 1.0449 1.3532
C9D C 0.6824(4) 1.1678(7) 1.3058(5)
C10D C 0.6859(4) 1.2644(6) 1.3219(5)
H7D H 0.6546 1.3051 1.2844
C11D C 0.7325(5) 1.3040(7) 1.3896(6)
H8D H 0.7323 1.3701 1.3988
C12D C 0.6314(5) 1.1271(7) 1.2328(5)
C13D C 0.6138(5) 1.0321(7) 1.2266(5)
H9D H 0.6351 0.9922 1.2700
C14D C 0.5671(5) 0.9962(7) 1.1599(6)
H10D H 0.5557 0.9315 1.1570
C15D C 0.5522(5) 1.1433(8) 1.1030(6)
H11D H 0.5296 1.1827 1.0595
C16D C 0.5984(5) 1.1810(7) 1.1678(6)
H12D H 0.6088 1.2459 1.1691
C17D C 0.4878(5) 1.0096(7) 1.0220(5)
H13D H 0.4535 1.0549 0.9940
H14D H 0.4726 0.9496 1.0291
S1 S -0.1399(2) 1.0587(2) -0.1128(3)
O1 O -0.0989(6) 1.1108(9) -0.1198(8)
O2 O -0.1669(6) 1.1187(9) -0.0894(8)
O3 O -0.1113(4) 0.9757(6) -0.0659(5)
O4 O -0.3358(4) 0.9320(5) -0.4200(5)
O5 O -0.4305(5) 0.8062(7) -0.5332(6)
O6 O -0.5460(4) 0.7822(5) -0.5788(5)
O7 O -0.3456(3) 1.0950(4) -0.3728(4)
C18 C -0.2940(5) 1.0426(7) -0.3215(7)
C19 C -0.2488(5) 1.0710(7) -0.2515(8)
H15 H -0.2527 1.1298 -0.2332
C20 C -0.1985(6) 1.0192(8) -0.2066(8)
C21 C -0.1933(6) 0.9312(10) -0.2309(9)
H16 H -0.1583 0.8933 -0.1982
C22 C -0.2376(6) 0.8986(8) -0.3008(8)
H17 H -0.2338 0.8383 -0.3174
C23 C -0.2901(6) 0.9565(8) -0.3493(7)
C24 C -0.3271(6) 0.8457(8) -0.4494(7)
H18 H -0.3227 0.7905 -0.4183
H19 H -0.2895 0.8513 -0.4464
C25 C -0.3786(7) 0.8305(11) -0.5277(8)
H20 H -0.3688 0.7789 -0.5498
H21 H -0.3863 0.8893 -0.5571
C26 C -0.4617(6) 0.7330(9) -0.5742(8)
H22 H -0.4747 0.7448 -0.6265
H23 H -0.4343 0.6771 -0.5548
C27 C -0.5127(8) 0.7090(10) -0.5777(8)
H24 H -0.4996 0.6681 -0.5336
H25 H -0.5396 0.6701 -0.6237
C28 C -0.5975(6) 0.7590(8) -0.5818(7)
H26 H -0.6032 0.6891 -0.5863
H27 H -0.5910 0.7792 -0.5341
C29 C -0.3461(5) 1.1936(7) -0.3522(6)
H28 H -0.3095 1.2272 -0.3405
H29 H -0.3460 1.1958 -0.3068
S1D S -0.8601(2) 0.9413(2) -0.8872(3)
O1D O -0.9011(6) 0.8892(9) -0.8802(8)
O2D O -0.8331(6) 0.8813(9) -0.9106(8)
O3D O -0.8887(4) 1.0243(6) -0.9341(5)
O4D O -0.6642(4) 1.0680(5) -0.5800(5)
O5D O -0.5695(5) 1.1938(7) -0.4668(6)
O6D O -0.4540(4) 1.2178(5) -0.4212(5)
O7D O -0.6544(3) 0.9050(4) -0.6272(4)
C18D C -0.7060(5) 0.9574(7) -0.6785(7)
C19D C -0.7512(5) 0.9290(7) -0.7485(8)
H15D H -0.7473 0.8702 -0.7668
C20D C -0.8015(6) 0.9808(8) -0.7934(8)
C21D C -0.8067(6) 1.0688(10) -0.7691(9)
H16D H -0.8417 1.1067 -0.8018
C22D C -0.7624(6) 1.1014(8) -0.6992(8)
H17D H -0.7662 1.1617 -0.6826
C23D C -0.7099(6) 1.0435(8) -0.6507(7)
C24D C -0.6729(6) 1.1543(8) -0.5506(7)
H18D H -0.6773 1.2095 -0.5817
H19D H -0.7105 1.1487 -0.5536
C25D C -0.6214(7) 1.1695(11) -0.4723(8)
H20D H -0.6312 1.2211 -0.4502
H21D H -0.6137 1.1107 -0.4429
C26D C -0.5383(6) 1.2670(9) -0.4258(8)
H22D H -0.5253 1.2552 -0.3735
H23D H -0.5657 1.3229 -0.4452
C27D C -0.4873(8) 1.2910(10) -0.4223(8)
H24D H -0.5004 1.3319 -0.4664
H25D H -0.4604 1.3299 -0.3763
C28D C -0.4025(6) 1.2410(8) -0.4182(7)
H26D H -0.3968 1.3109 -0.4137
H27D H -0.4090 1.2208 -0.4659
C29D C -0.6539(5) 0.8064(7) -0.6478(6)
H28D H -0.6905 0.7728 -0.6595
H29D H -0.6540 0.8042 -0.6932
O8 O -0.0163(7) 0.9485(12) 0.0883(8)
H30 H -0.0471 0.9726 0.0834
H31 H -0.0035 0.9066 0.0727
O9 O -0.2634(10) 1.1212(16) -0.0785(12)
H32 H -0.2378 1.1103 -0.0881
H33 H -0.3017 1.1157 -0.1039
O10 O -0.3534(11) 1.2496(18) -0.1725(14)
H34 H -0.3462 1.1950 -0.1824
H35 H -0.3781 1.2945 -0.1826
O11 O -0.2032(13) 1.0406(17) 0.0629(14)
H36 H -0.1700 1.0636 0.1003
H37 H -0.2090 1.0720 0.0259
O12 O -0.0911(14) 1.060(2) 0.1934(16)
H38 H -0.0565 1.0842 0.2259
H39 H -0.0824 1.0013 0.1957
loop_
_geom_bond_atom_site_label_1
_geom_bond_atom_site_label_2
_geom_bond_site_symmetry_1
_geom_bond_site_symmetry_2
Cu1 Br1 1_555 1_555
N1 Cu1 1_555 1_555
N2 C14 1_555 1_555
C1 N1 1_555 1_555
H1 C1 1_555 1_555
C2 C1 1_555 1_555
H2 C2 1_555 1_555
C3 C2 1_555 1_555
C4 C3 1_555 1_555
H3 C4 1_555 1_555
C5 N1 1_555 1_555
H4 C5 1_555 1_555
C6 C3 1_555 1_555
C7 C6 1_555 1_555
H5 C7 1_555 1_555
C8 C7 1_555 1_555
H6 C8 1_555 1_555
C9 C8 1_555 1_555
C10 C9 1_555 1_555
H7 C10 1_555 1_555
C11 C6 1_555 1_555
H8 C11 1_555 1_555
C12 C9 1_555 1_555
C13 C12 1_555 1_555
H9 C13 1_555 1_555
C14 C13 1_555 1_555
H10 C14 1_555 1_555
C15 N2 1_555 1_555
H11 C15 1_555 1_555
C16 C12 1_555 1_555
H12 C16 1_555 1_555
C17 N2 1_555 1_555
H13 C17 1_555 1_555
H14 C17 1_555 1_555
S1 O1 1_555 1_555
O2 S1 1_555 1_555
O3 S1 1_555 1_555
O4 C23 1_555 1_555
O5 C25 1_555 1_555
O6 C27 1_555 1_555
O7 C18 1_555 1_555
C18 C19 1_555 1_555
C19 H15 1_555 1_555
C20 S1 1_555 1_555
C21 C20 1_555 1_555
H16 C21 1_555 1_555
C22 C21 1_555 1_555
H17 C22 1_555 1_555
C23 C18 1_555 1_555
C24 O4 1_555 1_555
H18 C24 1_555 1_555
H19 C24 1_555 1_555
C25 C24 1_555 1_555
H20 C25 1_555 1_555
H21 C25 1_555 1_555
C26 O5 1_555 1_555
H22 C26 1_555 1_555
H23 C26 1_555 1_555
C27 C26 1_555 1_555
H24 C27 1_555 1_555
H25 C27 1_555 1_555
C28 O6 1_555 1_555
H26 C28 1_555 1_555
H27 C28 1_555 1_555
C29 O7 1_555 1_555
H28 C29 1_555 1_555
H29 C29 1_555 1_555
O8 H30 1_555 1_555
H31 O8 1_555 1_555
O9 H32 1_555 1_555
H33 O9 1_555 1_555
O10 H34 1_555 1_555
H35 O10 1_555 1_555
O11 H36 1_555 1_555
H37 O11 1_555 1_555
O12 H38 1_555 1_555
H39 O12 1_555 1_555
Cu1D N1D 1_555 1_555
N1D C1D 1_555 1_555
N1A Cu1 1_555 1_555
N2D C14D 1_555 1_555
C1D H1D 1_555 1_555
C2D C1D 1_555 1_555
H2D C2D 1_555 1_555
C3D C2D 1_555 1_555
C4D C3D 1_555 1_555
H3D C4D 1_555 1_555
C5D N1D 1_555 1_555
H4D C5D 1_555 1_555
C6D C3D 1_555 1_555
C7D C6D 1_555 1_555
H5D C7D 1_555 1_555
C8D C7D 1_555 1_555
H6D C8D 1_555 1_555
C9D C8D 1_555 1_555
C10D C9D 1_555 1_555
H7D C10D 1_555 1_555
C11D C6D 1_555 1_555
H8D C11D 1_555 1_555
C12D C9D 1_555 1_555
C13D C12D 1_555 1_555
H9D C13D 1_555 1_555
C14D C13D 1_555 1_555
H10D C14D 1_555 1_555
C15D N2D 1_555 1_555
H11D C15D 1_555 1_555
C16D C12D 1_555 1_555
H12D C16D 1_555 1_555
C17D C17 1_555 1_555
H13D C17D 1_555 1_555
H14D C17D 1_555 1_555
S1D O1D 1_555 1_555
O2D S1D 1_555 1_555
O3D S1D 1_555 1_555
O4D C23D 1_555 1_555
O5D C25D 1_555 1_555
O6D C27D 1_555 1_555
O7D C18D 1_555 1_555
C18D C19D 1_555 1_555
C19D H15D 1_555 1_555
C20D S1D 1_555 1_555
C21D C20D 1_555 1_555
H16D C21D 1_555 1_555
C22D C21D 1_555 1_555
H17D C22D 1_555 1_555
C23D C18D 1_555 1_555
C24D O4D 1_555 1_555
H18D C24D 1_555 1_555
H19D C24D 1_555 1_555
C25D C24D 1_555 1_555
H20D C25D 1_555 1_555
H21D C25D 1_555 1_555
C26D O5D 1_555 1_555
H22D C26D 1_555 1_555
H23D C26D 1_555 1_555
C27D C26D 1_555 1_555
H24D C27D 1_555 1_555
H25D C27D 1_555 1_555
C28D C29 1_555 1_555
H26D C28D 1_555 1_555
H27D C28D 1_555 1_555
C29D C28 1_555 1_555
H28D C29D 1_555 1_555
H29D C29D 1_555 1_555
C4 C5 1_555 1_555
C10 C11 1_555 1_555
C15 C16 1_555 1_555
C19 C20 1_555 1_555
C22 C23 1_555 1_555
N2D C17D 1_555 1_555
C4D C5D 1_555 1_555
C10D C11D 1_555 1_555
C15D C16D 1_555 1_555
O6D C28D 1_555 1_555
O7D C29D 1_555 1_555
C19D C20D 1_555 1_555
C22D C23D 1_555 1_555

#END
