
#######################################################################
#
#                 Cambridge Crystallographic Data Centre
#                                CCDC 
#
#######################################################################
#
# If this CIF has been generated from an entry in the Cambridge 
# Structural Database, then it will include bibliographic, chemical, 
# crystal, experimental, refinement or atomic coordinate data resulting 
# from the CCDC's data processing and validation procedures.
#
#######################################################################

data_LUFHUR
_symmetry_cell_setting           monoclinic
_symmetry_space_group_name_H-M   'C 2/c'
_symmetry_Int_Tables_number      15
_space_group_name_Hall           '-C 2yn'
loop_
_symmetry_equiv_pos_site_id
_symmetry_equiv_pos_as_xyz
1 x,y,z
2 -x,y,1/2-z
3 1/2+x,1/2+y,z
4 1/2-x,1/2+y,1/2-z
5 -x,-y,-z
6 x,-y,1/2+z
7 1/2-x,1/2-y,-z
8 1/2+x,1/2-y,1/2+z
_cell_length_a                   22.524(4)
_cell_length_b                   8.6370(17)
_cell_length_c                   9.758(2)
_cell_angle_alpha                90
_cell_angle_beta                 113.25(3)
_cell_angle_gamma                90
_cell_volume                     1744.16
loop_
_atom_site_label
_atom_site_type_symbol
_atom_site_fract_x
_atom_site_fract_y
_atom_site_fract_z
Zn1 Zn 0.0000 0.45356(8) -0.2500
O1 O 0.01661(12) 0.2792(3) -0.0892(3)
O2 O -0.01607(12) 0.3725(3) 0.0843(3)
N1 N 0.16701(15) 0.1562(4) 0.1559(4)
N2 N 0.10766(15) 0.0978(4) 0.1093(4)
N3 N 0.09749(16) -0.0195(4) 0.0179(4)
N4 N 0.15242(16) -0.0443(4) 0.0017(4)
N5 N 0.39571(14) 0.0569(4) 0.1828(3)
C1 C 0.01665(17) 0.2844(4) 0.0393(4)
C2 C 0.05696(18) 0.1622(5) 0.1501(4)
H1 H 0.0765 0.2084 0.2485
H2 H 0.0288 0.0792 0.1548
C3 C 0.19373(17) 0.0637(4) 0.0870(4)
C4 C 0.26261(18) 0.0690(5) 0.1116(4)
C5 C 0.30409(19) 0.1764(5) 0.2070(5)
H3 H 0.2882 0.2545 0.2489
C6 C 0.36952(19) 0.1660(5) 0.2394(5)
H4 H 0.3969 0.2387 0.3039
C7 C 0.35449(19) -0.0405(5) 0.0838(4)
H5 H 0.3711 -0.1133 0.0382
C8 C 0.28865(19) -0.0382(5) 0.0460(5)
H6 H 0.2620 -0.1084 -0.0232
O1A O -0.01661(12) 0.2792(3) -0.4108(3)
O2A O 0.01607(12) 0.3725(3) -0.5843(3)
N1A N -0.16701(15) 0.1562(4) -0.6559(4)
N2A N -0.10766(15) 0.0978(4) -0.6093(4)
N3A N -0.09749(16) -0.0195(4) -0.5179(4)
N4A N -0.15242(16) -0.0443(4) -0.5017(4)
N5A N -0.39571(14) 0.0569(4) -0.6828(3)
C1A C -0.01665(17) 0.2844(4) -0.5393(4)
C2A C -0.05696(18) 0.1622(5) -0.6501(4)
H1A H -0.0765 0.2084 -0.7485
H2A H -0.0288 0.0792 -0.6548
C3A C -0.19373(17) 0.0637(4) -0.5870(4)
C4A C -0.26261(18) 0.0690(5) -0.6116(4)
C5A C -0.30409(19) 0.1764(5) -0.7070(5)
H3A H -0.2882 0.2545 -0.7489
C6A C -0.36952(19) 0.1660(5) -0.7394(5)
H4A H -0.3969 0.2387 -0.8039
C7A C -0.35449(19) -0.0405(5) -0.5838(4)
H5A H -0.3711 -0.1133 -0.5382
C8A C -0.28865(19) -0.0382(5) -0.5460(5)
H6A H -0.2620 -0.1084 -0.4768
Zn1D Zn 0.0000 0.54644(8) -0.7500
Zn1D_2 Zn 0.0000 0.54644(8) 0.2500
Zn1F Zn -0.5000 0.04644(8) -0.7500
Zn1F_2 Zn 0.5000 0.04644(8) 0.2500
O2D O 0.01607(12) 0.6275(3) -0.0843(3)
O2E O -0.01607(12) 0.6275(3) -0.4157(3)
N5F N 0.10429(14) 0.4431(4) -0.1828(3)
N5G N -0.10429(14) 0.4431(4) -0.3172(3)
loop_
_geom_bond_atom_site_label_1
_geom_bond_atom_site_label_2
_geom_bond_site_symmetry_1
_geom_bond_site_symmetry_2
Zn1 O1 1_555 1_555
O1 C1 1_555 1_555
O2 C1 1_555 1_555
N1 N2 1_555 1_555
N2 N3 1_555 1_555
N3 N4 1_555 1_555
N4 C3 1_555 1_555
N5 C6 1_555 1_555
C1 C2 1_555 1_555
C2 N2 1_555 1_555
H1 C2 1_555 1_555
H2 C2 1_555 1_555
C3 N1 1_555 1_555
C4 C3 1_555 1_555
C5 C4 1_555 1_555
H3 C5 1_555 1_555
C6 C5 1_555 1_555
H4 C6 1_555 1_555
C7 N5 1_555 1_555
H5 C7 1_555 1_555
C8 C4 1_555 1_555
H6 C8 1_555 1_555
O1A Zn1 1_555 1_555
O2A C1A 1_555 1_555
N1A N2A 1_555 1_555
N2A N3A 1_555 1_555
N3A N4A 1_555 1_555
N4A C3A 1_555 1_555
N5A C6A 1_555 1_555
C1A O1A 1_555 1_555
C2A N2A 1_555 1_555
H1A C2A 1_555 1_555
H2A C2A 1_555 1_555
C3A N1A 1_555 1_555
C4A C3A 1_555 1_555
C5A C4A 1_555 1_555
H3A C5A 1_555 1_555
C6A C5A 1_555 1_555
H4A C6A 1_555 1_555
C7A N5A 1_555 1_555
H5A C7A 1_555 1_555
C8A C4A 1_555 1_555
H6A C8A 1_555 1_555
Zn1D O2A 1_555 1_555
Zn1D_2 O2 1_555 1_555
Zn1F N5A 1_555 1_555
Zn1F_2 N5 1_555 1_555
O2D Zn1 1_555 1_555
O2E Zn1 1_555 1_555
N5F Zn1 1_555 1_555
N5G Zn1 1_555 1_555
C7 C8 1_555 1_555
C1A C2A 1_555 1_555
C7A C8A 1_555 1_555

#END
