
#######################################################################
#
#                 Cambridge Crystallographic Data Centre
#                                CCDC 
#
#######################################################################
#
# If this CIF has been generated from an entry in the Cambridge 
# Structural Database, then it will include bibliographic, chemical, 
# crystal, experimental, refinement or atomic coordinate data resulting 
# from the CCDC's data processing and validation procedures.
#
#######################################################################

data_LUFHEB
_symmetry_cell_setting           monoclinic
_symmetry_space_group_name_H-M   'P 21/c'
_symmetry_Int_Tables_number      14
_space_group_name_Hall           '-P 2ybc'
loop_
_symmetry_equiv_pos_site_id
_symmetry_equiv_pos_as_xyz
1 x,y,z
2 -x,1/2+y,1/2-z
3 -x,-y,-z
4 x,1/2-y,1/2+z
_cell_length_a                   6.2351(18)
_cell_length_b                   20.431(6)
_cell_length_c                   14.646(4)
_cell_angle_alpha                90
_cell_angle_beta                 92.264(5)
_cell_angle_gamma                90
_cell_volume                     1864.29
loop_
_atom_site_label
_atom_site_type_symbol
_atom_site_fract_x
_atom_site_fract_y
_atom_site_fract_z
Cd1 Cd 0.24212(4) 0.263167(11) 0.483459(16)
O1 O 0.4772(4) 0.32806(12) 0.40813(16)
O2 O 0.1582(4) 0.31634(12) 0.34061(16)
O3 O 0.3071(4) 0.34838(12) -0.01553(18)
O4 O -0.0305(4) 0.31842(11) -0.0095(2)
N1 N 0.4270(4) 0.27550(14) 0.6238(2)
N2 N 0.0639(4) 0.33867(14) 0.5689(2)
C1 C 0.3422(5) 0.34113(15) 0.3438(2)
C2 C 0.4086(5) 0.38806(14) 0.2706(2)
C3 C 0.6159(5) 0.41421(17) 0.2735(2)
H1 H 0.7143 0.4017 0.3196
C4 C 0.6750(5) 0.45881(17) 0.2077(2)
H2 H 0.8137 0.4756 0.2094
C5 C 0.5273(5) 0.47871(15) 0.1389(2)
H3 H 0.5668 0.5097 0.0962
C6 C 0.3221(4) 0.45241(13) 0.13404(19)
C7 C 0.2645(4) 0.40615(14) 0.19940(19)
H4 H 0.1288 0.3872 0.1954
C8 C 0.1605(4) 0.47572(13) 0.06242(18)
C9 C 0.0498(4) 0.43315(13) 0.00175(18)
C10 C -0.1100(4) 0.45751(14) -0.05829(19)
H5 H -0.1852 0.4286 -0.0967
C11 C 0.1122(5) 0.36145(14) -0.0069(2)
C12 C 0.6098(6) 0.24310(18) 0.6469(3)
H6 H 0.6646 0.2136 0.6055
C13 C 0.7193(7) 0.2524(2) 0.7307(4)
H7 H 0.8465 0.2301 0.7447
C14 C 0.6349(7) 0.2951(2) 0.7921(3)
H8 H 0.7034 0.3014 0.8490
C15 C 0.4478(6) 0.3289(2) 0.7693(3)
H9 H 0.3908 0.3582 0.8104
C16 C 0.3459(5) 0.31830(17) 0.6841(2)
C17 C 0.1452(5) 0.35343(17) 0.6536(2)
C18 C 0.0447(7) 0.3994(2) 0.7068(3)
H10 H 0.1009 0.4089 0.7651
C19 C -0.1375(8) 0.4311(2) 0.6743(4)
H11 H -0.2030 0.4625 0.7096
C20 C -0.2211(7) 0.4157(2) 0.5891(4)
H12 H -0.3449 0.4362 0.5661
C21 C -0.1172(6) 0.3685(2) 0.5372(3)
H13 H -0.1744 0.3575 0.4796
O1B O -0.4772(4) 0.67194(12) -0.40813(16)
O2B O -0.1582(4) 0.68366(12) -0.34061(16)
O3B O -0.3071(4) 0.65162(12) 0.01553(18)
O4B O 0.0305(4) 0.68158(11) 0.0095(2)
C1B C -0.3422(5) 0.65887(15) -0.3438(2)
C2B C -0.4086(5) 0.61194(14) -0.2706(2)
C3B C -0.6159(5) 0.58579(17) -0.2735(2)
H1B H -0.7143 0.5983 -0.3196
C4B C -0.6750(5) 0.54119(17) -0.2077(2)
H2B H -0.8137 0.5244 -0.2094
C5B C -0.5273(5) 0.52129(15) -0.1389(2)
H3B H -0.5668 0.4903 -0.0962
C6B C -0.3221(4) 0.54759(13) -0.13404(19)
C7B C -0.2645(4) 0.59385(14) -0.19940(19)
H4B H -0.1288 0.6128 -0.1954
C8B C -0.1605(4) 0.52428(13) -0.06242(18)
C9B C -0.0498(4) 0.56685(13) -0.00175(18)
C10B C 0.1100(4) 0.54249(14) 0.05829(19)
H5B H 0.1852 0.5714 0.0967
C11B C -0.1122(5) 0.63855(14) 0.0069(2)
Cd1B Cd -0.24212(4) 0.736833(11) -0.483459(16)
N1B N -0.4270(4) 0.72450(14) -0.6238(2)
N2B N -0.0639(4) 0.66133(14) -0.5689(2)
C12B C -0.6098(6) 0.75690(18) -0.6469(3)
H6B H -0.6646 0.7864 -0.6055
C13B C -0.7193(7) 0.7476(2) -0.7307(4)
H7B H -0.8465 0.7699 -0.7447
C14B C -0.6349(7) 0.7049(2) -0.7921(3)
H8B H -0.7034 0.6986 -0.8490
C15B C -0.4478(6) 0.6711(2) -0.7693(3)
H9B H -0.3908 0.6418 -0.8104
C16B C -0.3459(5) 0.68170(17) -0.6841(2)
C17B C -0.1452(5) 0.64657(17) -0.6536(2)
C18B C -0.0447(7) 0.6006(2) -0.7068(3)
H10B H -0.1009 0.5911 -0.7651
C19B C 0.1375(8) 0.5689(2) -0.6743(4)
H11B H 0.2030 0.5375 -0.7096
C20B C 0.2211(7) 0.5843(2) -0.5891(4)
H12B H 0.3449 0.5638 -0.5661
C21B C 0.1172(6) 0.6315(2) -0.5372(3)
H13B H 0.1744 0.6425 -0.4796
Cd1A Cd -0.24212(4) 0.763167(11) 0.016541(16)
Cd1C Cd 0.24212(4) 0.236833(11) -0.016541(16)
O3A O -0.3071(4) 0.84838(12) -0.48447(18)
O3C O 0.3071(4) 0.15162(12) 0.48447(18)
O4A O 0.0305(4) 0.81842(11) -0.4905(2)
O4C O -0.0305(4) 0.18158(11) 0.4905(2)
loop_
_geom_bond_atom_site_label_1
_geom_bond_atom_site_label_2
_geom_bond_site_symmetry_1
_geom_bond_site_symmetry_2
Cd1 O1 1_555 1_555
O1 C1 1_555 1_555
O2 Cd1 1_555 1_555
O3 C11 1_555 1_555
O4 C11 1_555 1_555
N1 Cd1 1_555 1_555
N2 Cd1 1_555 1_555
C1 O2 1_555 1_555
C2 C1 1_555 1_555
C3 C2 1_555 1_555
H1 C3 1_555 1_555
C4 C3 1_555 1_555
H2 C4 1_555 1_555
C5 C4 1_555 1_555
H3 C5 1_555 1_555
C6 C5 1_555 1_555
C7 C2 1_555 1_555
H4 C7 1_555 1_555
C8 C6 1_555 1_555
C9 C8 1_555 1_555
C10 C9 1_555 1_555
H5 C10 1_555 1_555
C11 C9 1_555 1_555
C12 N1 1_555 1_555
H6 C12 1_555 1_555
C13 C12 1_555 1_555
H7 C13 1_555 1_555
C14 C13 1_555 1_555
H8 C14 1_555 1_555
C15 C14 1_555 1_555
H9 C15 1_555 1_555
C16 N1 1_555 1_555
C17 N2 1_555 1_555
C18 C17 1_555 1_555
H10 C18 1_555 1_555
C19 C18 1_555 1_555
H11 C19 1_555 1_555
C20 C19 1_555 1_555
H12 C20 1_555 1_555
C21 N2 1_555 1_555
H13 C21 1_555 1_555
O1B C1B 1_555 1_555
O2B C1B 1_555 1_555
O3B C11B 1_555 1_555
O4B C11B 1_555 1_555
C1B C2B 1_555 1_555
C2B C3B 1_555 1_555
C3B H1B 1_555 1_555
C4B C3B 1_555 1_555
H2B C4B 1_555 1_555
C5B C4B 1_555 1_555
H3B C5B 1_555 1_555
C6B C5B 1_555 1_555
C7B C2B 1_555 1_555
H4B C7B 1_555 1_555
C8B C10 1_555 1_555
C9B C8B 1_555 1_555
C10B C8 1_555 1_555
H5B C10B 1_555 1_555
C11B C9B 1_555 1_555
Cd1B O1B 1_555 1_555
N1B Cd1B 1_555 1_555
N2B Cd1B 1_555 1_555
C12B N1B 1_555 1_555
H6B C12B 1_555 1_555
C13B C12B 1_555 1_555
H7B C13B 1_555 1_555
C14B C13B 1_555 1_555
H8B C14B 1_555 1_555
C15B C14B 1_555 1_555
H9B C15B 1_555 1_555
C16B N1B 1_555 1_555
C17B N2B 1_555 1_555
C18B C17B 1_555 1_555
H10B C18B 1_555 1_555
C19B C18B 1_555 1_555
H11B C19B 1_555 1_555
C20B C19B 1_555 1_555
H12B C20B 1_555 1_555
C21B N2B 1_555 1_555
H13B C21B 1_555 1_555
Cd1A O3B 1_555 1_555
Cd1C O3 1_555 1_555
O3A Cd1B 1_555 1_555
O3C Cd1 1_555 1_555
O4A Cd1B 1_555 1_555
O4C Cd1 1_555 1_555
O4 Cd1C 1_555 1_555
C6 C7 1_555 1_555
C15 C16 1_555 1_555
C16 C17 1_555 1_555
C20 C21 1_555 1_555
O2B Cd1B 1_555 1_555
O4B Cd1A 1_555 1_555
C6B C7B 1_555 1_555
C6B C8B 1_555 1_555
C9B C10B 1_555 1_555
C15B C16B 1_555 1_555
C16B C17B 1_555 1_555
C20B C21B 1_555 1_555

#END
