
#######################################################################
#
#                 Cambridge Crystallographic Data Centre
#                                CCDC 
#
#######################################################################
#
# If this CIF has been generated from an entry in the Cambridge 
# Structural Database, then it will include bibliographic, chemical, 
# crystal, experimental, refinement or atomic coordinate data resulting 
# from the CCDC's data processing and validation procedures.
#
#######################################################################

data_LUFHIF
_symmetry_cell_setting           monoclinic
_symmetry_space_group_name_H-M   'C 2/c'
_symmetry_Int_Tables_number      15
_space_group_name_Hall           '-C 2yn'
loop_
_symmetry_equiv_pos_site_id
_symmetry_equiv_pos_as_xyz
1 x,y,z
2 -x,y,1/2-z
3 1/2+x,1/2+y,z
4 1/2-x,1/2+y,1/2-z
5 -x,-y,-z
6 x,-y,1/2+z
7 1/2-x,1/2-y,-z
8 1/2+x,1/2-y,1/2+z
_cell_length_a                   15.300(3)
_cell_length_b                   12.482(2)
_cell_length_c                   18.020(3)
_cell_angle_alpha                90
_cell_angle_beta                 90.813(3)
_cell_angle_gamma                90
_cell_volume                     3441.02
loop_
_atom_site_label
_atom_site_type_symbol
_atom_site_fract_x
_atom_site_fract_y
_atom_site_fract_z
O1 O 0.70665(17) -0.1498(2) 1.00163(15)
C1 C 0.6852(3) -0.0507(4) 1.0025(2)
C2 C 0.5886(2) -0.0257(3) 0.9973(2)
C3 C 0.5503(3) 0.0336(3) 0.9388(2)
C4 C 0.5382(3) -0.0579(3) 1.0556(2)
H1 H 0.5645 -0.0979 1.0933
C5 C 0.6007(3) 0.0669(3) 0.8724(2)
C6 C 0.6616(3) -0.0027(3) 0.8405(2)
H2 H 0.6697 -0.0708 0.8604
Cd1 Cd 0.83700(2) 0.19522(3) 0.555821(16)
O2 O 0.8044(2) 0.0946(3) 0.65758(17)
N1 N 0.9836(2) 0.2305(3) 0.5850(2)
N2 N 0.9221(2) 0.1297(3) 0.46252(19)
C7 C 1.0440(3) 0.1940(4) 0.5374(3)
C8 C 1.0103(3) 0.1325(4) 0.4721(2)
C9 C 0.8886(3) 0.0804(4) 0.4036(3)
H3 H 0.8281 0.0785 0.3978
C10 C 1.0644(3) 0.0828(4) 0.4206(3)
H4 H 1.1248 0.0837 0.4273
C11 C 1.1320(3) 0.2107(4) 0.5492(3)
H5 H 1.1727 0.1837 0.5162
C12 C 1.0274(3) 0.0322(4) 0.3598(3)
H6 H 1.0627 -0.0015 0.3253
C13 C 0.9389(4) 0.0318(4) 0.3504(3)
H7 H 0.9130 -0.0006 0.3092
C14 C 1.0985(4) 0.3053(5) 0.6589(3)
H8 H 1.1159 0.3432 0.7010
C15 C 1.0117(4) 0.2856(4) 0.6441(3)
H9 H 0.9705 0.3119 0.6769
C16 C 1.1586(4) 0.2677(5) 0.6102(3)
H10 H 1.2178 0.2809 0.6185
O3 O 0.7375(2) 0.0229(2) 1.00950(18)
O4 O 0.7531(2) 0.2567(3) 0.66285(17)
C17 C 0.6386(3) 0.1966(4) 0.7799(2)
H11 H 0.6304 0.2643 0.7593
C18 C 0.7004(3) 0.1289(3) 0.7503(2)
C19 C 0.7094(3) 0.0281(4) 0.7801(2)
H12 H 0.7485 -0.0199 0.7592
C20 C 0.7569(3) 0.1637(4) 0.6862(2)
C21 C 0.5889(3) 0.1654(3) 0.8394(2)
H13 H 0.5467 0.2118 0.8576
O1D O 0.29335(17) 0.1498(2) 0.99837(15)
C1D C 0.3148(3) 0.0507(4) 0.9975(2)
C2D C 0.4114(2) 0.0257(3) 1.0027(2)
C3D C 0.4497(3) -0.0336(3) 1.0612(2)
C4D C 0.4618(3) 0.0579(3) 0.9444(2)
H1D H 0.4355 0.0979 0.9067
C5D C 0.3993(3) -0.0669(3) 1.1276(2)
C6D C 0.3384(3) 0.0027(3) 1.1595(2)
H2D H 0.3303 0.0708 1.1396
O2D O 0.1956(2) -0.0946(3) 1.34242(17)
O3D O 0.2625(2) -0.0229(2) 0.99050(18)
O4D O 0.2469(2) -0.2567(3) 1.33715(17)
C17D C 0.3614(3) -0.1966(4) 1.2201(2)
H11D H 0.3696 -0.2643 1.2407
C18D C 0.2996(3) -0.1289(3) 1.2497(2)
C19D C 0.2906(3) -0.0281(4) 1.2199(2)
H12D H 0.2515 0.0199 1.2408
C20D C 0.2431(3) -0.1637(4) 1.3138(2)
C21D C 0.4111(3) -0.1654(3) 1.1606(2)
H13D H 0.4533 -0.2118 1.1424
Cd1A Cd 0.16300(2) 0.19522(3) 0.944179(16)
N1A N 0.0164(2) 0.2305(3) 0.9150(2)
N2A N 0.0779(2) 0.1297(3) 1.03748(19)
C7A C -0.0440(3) 0.1940(4) 0.9626(3)
C8A C -0.0103(3) 0.1325(4) 1.0279(2)
C9A C 0.1114(3) 0.0804(4) 1.0964(3)
H3A H 0.1719 0.0785 1.1022
C10A C -0.0644(3) 0.0828(4) 1.0794(3)
H4A H -0.1248 0.0837 1.0727
C11A C -0.1320(3) 0.2107(4) 0.9508(3)
H5A H -0.1727 0.1837 0.9838
C12A C -0.0274(3) 0.0322(4) 1.1402(3)
H6A H -0.0627 -0.0015 1.1747
C13A C 0.0611(4) 0.0318(4) 1.1496(3)
H7A H 0.0870 -0.0006 1.1908
C14A C -0.0985(4) 0.3053(5) 0.8411(3)
H8A H -0.1159 0.3432 0.7990
C15A C -0.0117(4) 0.2856(4) 0.8559(3)
H9A H 0.0295 0.3119 0.8231
C16A C -0.1586(4) 0.2677(5) 0.8898(3)
H10A H -0.2178 0.2809 0.8815
O1B O 0.20665(17) 0.3502(2) 1.00163(15)
O1C O 0.79335(17) 0.3502(2) 0.49837(15)
O1E O 0.70665(17) 0.1498(2) 0.50163(15)
Cd1C Cd 0.66300(2) -0.30478(3) 0.944179(16)
Cd1D Cd 0.16300(2) -0.19522(3) 1.444179(16)
Cd1E Cd 0.83700(2) -0.19522(3) 1.055821(16)
Cd1G Cd 0.33700(2) 0.30478(3) 1.055821(16)
O2A O 0.1956(2) 0.0946(3) 0.84242(17)
O4A O 0.2469(2) 0.2567(3) 0.83715(17)
loop_
_geom_bond_atom_site_label_1
_geom_bond_atom_site_label_2
_geom_bond_site_symmetry_1
_geom_bond_site_symmetry_2
O1 C1 1_555 1_555
C1 C2 1_555 1_555
C2 C3 1_555 1_555
C3 C5 1_555 1_555
C4 C2 1_555 1_555
H1 C4 1_555 1_555
C5 C6 1_555 1_555
C6 H2 1_555 1_555
Cd1 O2 1_555 1_555
O2 C20 1_555 1_555
N1 Cd1 1_555 1_555
N2 Cd1 1_555 1_555
C7 N1 1_555 1_555
C8 N2 1_555 1_555
C9 N2 1_555 1_555
H3 C9 1_555 1_555
C10 C8 1_555 1_555
H4 C10 1_555 1_555
C11 C7 1_555 1_555
H5 C11 1_555 1_555
C12 C10 1_555 1_555
H6 C12 1_555 1_555
C13 C9 1_555 1_555
H7 C13 1_555 1_555
C14 H8 1_555 1_555
C15 N1 1_555 1_555
H9 C15 1_555 1_555
C16 C11 1_555 1_555
H10 C16 1_555 1_555
O3 C1 1_555 1_555
O4 Cd1 1_555 1_555
C17 H11 1_555 1_555
C18 C17 1_555 1_555
C19 C6 1_555 1_555
H12 C19 1_555 1_555
C20 O4 1_555 1_555
C21 C5 1_555 1_555
H13 C21 1_555 1_555
O1D C1D 1_555 1_555
C1D C2D 1_555 1_555
C2D C3D 1_555 1_555
C3D C4 1_555 1_555
C4D C3 1_555 1_555
H1D C4D 1_555 1_555
C5D C3D 1_555 1_555
C6D C5D 1_555 1_555
H2D C6D 1_555 1_555
O2D C20D 1_555 1_555
O3D C1D 1_555 1_555
O4D C20D 1_555 1_555
C17D H11D 1_555 1_555
C18D C17D 1_555 1_555
C19D C6D 1_555 1_555
H12D C19D 1_555 1_555
C20D C18D 1_555 1_555
C21D C5D 1_555 1_555
H13D C21D 1_555 1_555
Cd1A O1D 1_555 1_555
N1A Cd1A 1_555 1_555
N2A Cd1A 1_555 1_555
C7A N1A 1_555 1_555
C8A N2A 1_555 1_555
C9A N2A 1_555 1_555
H3A C9A 1_555 1_555
C10A C8A 1_555 1_555
H4A C10A 1_555 1_555
C11A C7A 1_555 1_555
H5A C11A 1_555 1_555
C12A C10A 1_555 1_555
H6A C12A 1_555 1_555
C13A C9A 1_555 1_555
H7A C13A 1_555 1_555
C14A H8A 1_555 1_555
C15A N1A 1_555 1_555
H9A C15A 1_555 1_555
C16A C11A 1_555 1_555
H10A C16A 1_555 1_555
O1B Cd1A 1_555 1_555
O1C Cd1 1_555 1_555
O1E Cd1 1_555 1_555
Cd1C O1 1_555 1_555
Cd1D O2D 1_555 1_555
Cd1E O1 1_555 1_555
Cd1G O1D 1_555 1_555
O2A Cd1A 1_555 1_555
O4A Cd1A 1_555 1_555
C7 C8 1_555 1_555
C12 C13 1_555 1_555
C14 C15 1_555 1_555
C14 C16 1_555 1_555
C17 C21 1_555 1_555
C18 C19 1_555 1_555
C18 C20 1_555 1_555
C2D C4D 1_555 1_555
O4D Cd1D 1_555 1_555
C17D C21D 1_555 1_555
C18D C19D 1_555 1_555
C7A C8A 1_555 1_555
C12A C13A 1_555 1_555
C14A C15A 1_555 1_555
C14A C16A 1_555 1_555
O1B Cd1G 1_555 1_555

#END
