
#######################################################################
#
#                 Cambridge Crystallographic Data Centre
#                                CCDC 
#
#######################################################################
#
# If this CIF has been generated from an entry in the Cambridge 
# Structural Database, then it will include bibliographic, chemical, 
# crystal, experimental, refinement or atomic coordinate data resulting 
# from the CCDC's data processing and validation procedures.
#
#######################################################################

data_LUFJAZ
_symmetry_cell_setting           triclinic
_symmetry_space_group_name_H-M   'P -1'
_symmetry_Int_Tables_number      2
_space_group_name_Hall           '-P 1'
loop_
_symmetry_equiv_pos_site_id
_symmetry_equiv_pos_as_xyz
1 x,y,z
2 -x,-y,-z
_cell_length_a                   9.1851(18)
_cell_length_b                   9.2931(19)
_cell_length_c                   11.060(2)
_cell_angle_alpha                107.50(3)
_cell_angle_beta                 95.43(3)
_cell_angle_gamma                118.39(3)
_cell_volume                     759.654
loop_
_atom_site_label
_atom_site_type_symbol
_atom_site_fract_x
_atom_site_fract_y
_atom_site_fract_z
Zn1 Zn -0.11110(10) 0.02529(11) 0.28677(8)
O1 O -0.0331(7) 0.4201(7) 0.3156(5)
O2 O 0.0207(4) 0.2107(4) 0.2110(3)
O3 O -0.2388(4) -0.1712(4) 0.3652(3)
H1 H -0.2155 -0.1546 0.4462
H2 H -0.2560 -0.2726 0.3200
O4 O -0.0594(4) 0.2229(4) 0.4659(3)
H3 H -0.0695 0.3125 0.4825
H4 H -0.0707 0.1927 0.5314
N1 N 0.3626(7) 0.0235(7) -0.2036(5)
N2 N 0.4262(7) -0.0702(8) -0.2670(6)
N3 N 0.5803(7) -0.0006(8) -0.1922(6)
N4 N 0.6273(8) 0.1375(8) -0.0794(6)
N5 N 0.4778(7) 0.2704(8) 0.0096(6)
N6 N 0.3288(8) 0.4011(8) 0.1030(6)
N7 N 0.1718(8) 0.3705(7) 0.0573(6)
N8 N 0.0854(8) 0.2442(8) -0.0603(6)
N9 N 0.1881(8) 0.1847(8) -0.0987(6)
C1 C 0.4885(9) 0.1468(9) -0.0902(7)
C2 C 0.3363(9) 0.2839(9) 0.0027(7)
C3 C 0.0905(10) 0.4455(10) 0.1393(7)
H5 H -0.0029 0.4374 0.0829
H6 H 0.1743 0.5705 0.1925
C4 C 0.0187(9) 0.3497(10) 0.2313(6)
C5 C 0.7944(4) 0.0230(4) -0.3190(4)
C6 C 0.6936(10) -0.0634(10) -0.2339(8)
H7 H 0.6244 -0.1914 -0.2831
H8 H 0.7741 -0.0389 -0.1560
O5 O 0.8873(6) -0.0358(7) -0.3619(5)
O6 O 0.7760(7) 0.1349(7) -0.3457(5)
Zn1A Zn 0.11110(10) -0.02529(11) -0.28677(8)
Zn1A_2 Zn 1.11110(10) -0.02529(11) -0.28677(8)
N1A N -0.3626(7) -0.0235(7) 0.2036(5)
N9A N -0.1881(8) -0.1847(8) 0.0987(6)
O5A O 0.1127(6) 0.0358(7) 0.3619(5)
O7 O 0.7335(4) 0.4984(4) 0.2402(4)
H9 H 0.6936 0.4523 0.1566
H10 H 0.7878 0.4530 0.2610
O8 O -0.5415(4) -0.2340(4) 0.4059(4)
H11 H -0.5982 -0.1832 0.4165
H12 H -0.5620 -0.2873 0.3231
O9 O 0.3459(4) 0.4971(4) 0.4968(4)
H13 H 0.2811 0.4143 0.4220
H14 H 0.3057 0.5640 0.5181
loop_
_geom_bond_atom_site_label_1
_geom_bond_atom_site_label_2
_geom_bond_site_symmetry_1
_geom_bond_site_symmetry_2
Zn1 O2 1_555 1_555
O1 C4 1_555 1_555
O2 C4 1_555 1_555
O3 Zn1 1_555 1_555
H1 O3 1_555 1_555
H2 O3 1_555 1_555
O4 Zn1 1_555 1_555
H3 O4 1_555 1_555
H4 O4 1_555 1_555
N1 N2 1_555 1_555
N2 N3 1_555 1_555
N3 N4 1_555 1_555
N4 C1 1_555 1_555
N5 C1 1_555 1_555
N6 N7 1_555 1_555
N7 N8 1_555 1_555
N8 N9 1_555 1_555
N9 C2 1_555 1_555
C1 N1 1_555 1_555
C2 N5 1_555 1_555
C3 N7 1_555 1_555
H5 C3 1_555 1_555
H6 C3 1_555 1_555
C4 C3 1_555 1_555
C5 C6 1_555 1_555
C6 N3 1_555 1_555
H7 C6 1_555 1_555
H8 C6 1_555 1_555
O5 C5 1_555 1_555
O6 C5 1_555 1_555
O7 H9 1_555 1_555
H10 O7 1_555 1_555
O8 H11 1_555 1_555
H12 O8 1_555 1_555
O9 H13 1_555 1_555
H14 O9 1_555 1_555
Zn1A N1 1_555 1_555
Zn1A_2 O5 1_555 1_555
N1A Zn1 1_555 1_555
N9A Zn1 1_555 1_555
O5A Zn1 1_555 1_555
N6 C2 1_555 1_555
N9 Zn1A 1_555 1_555

#END
