
#######################################################################
#
#                 Cambridge Crystallographic Data Centre
#                                CCDC 
#
#######################################################################
#
# If this CIF has been generated from an entry in the Cambridge 
# Structural Database, then it will include bibliographic, chemical, 
# crystal, experimental, refinement or atomic coordinate data resulting 
# from the CCDC's data processing and validation procedures.
#
#######################################################################

data_LUFMOO
_symmetry_cell_setting           triclinic
_symmetry_space_group_name_H-M   'P -1'
_symmetry_Int_Tables_number      2
_space_group_name_Hall           '-P 1'
loop_
_symmetry_equiv_pos_site_id
_symmetry_equiv_pos_as_xyz
1 x,y,z
2 -x,-y,-z
_cell_length_a                   11.28(2)
_cell_length_b                   14.758(6)
_cell_length_c                   9.597(3)
_cell_angle_alpha                98.21(3)
_cell_angle_beta                 90.64(6)
_cell_angle_gamma                74.84(4)
_cell_volume                     1525.64
loop_
_atom_site_label
_atom_site_type_symbol
_atom_site_fract_x
_atom_site_fract_y
_atom_site_fract_z
W1 W -0.31594(3) 0.18994(2) -0.29144(3)
Br1 Br -0.30210(8) 0.15466(7) 0.13771(8)
Cu1 Cu -0.15841(8) 0.16957(7) -0.03394(10)
Cu2 Cu -0.45877(9) 0.16763(7) -0.03388(10)
S1 S -0.1452(2) 0.0594(1) -0.2433(2)
S2 S -0.3970(2) 0.0595(1) -0.2441(2)
S3 S -0.4808(2) 0.3011(1) -0.1447(2)
S4 S -0.2291(2) 0.3035(1) -0.1433(2)
N1 N -0.0067(6) -0.1432(5) -0.0426(7)
N2 N -0.3974(6) -0.1413(5) -0.0414(7)
N3 N -0.219(1) 0.4612(8) 0.205(1)
N4 N -0.6008(10) 0.4439(6) 0.2022(10)
C1 C -0.2497(6) -0.0004(5) -0.2002(7)
C2 C -0.2239(6) -0.0755(5) -0.1243(7)
C3 C -0.1028(7) -0.1129(5) -0.0795(8)
C4 C -0.3180(7) -0.1122(5) -0.0795(7)
C5 C -0.3720(7) 0.3496(5) -0.0547(7)
C6 C -0.3923(8) 0.4044(5) 0.0747(8)
C7 C -0.292(1) 0.4361(7) 0.1475(10)
C8 C -0.509(1) 0.4271(6) 0.1458(9)
C9 C -0.2962(8) 0.1240(5) -0.5193(7)
C10 C -0.4173(8) 0.1843(6) -0.4988(7)
C11 C -0.4082(8) 0.2795(5) -0.4701(7)
C12 C -0.2821(8) 0.2769(5) -0.4713(7)
C13 C -0.2130(8) 0.1811(6) -0.5003(7)
C14 C -0.2608(10) 0.0191(6) -0.5725(8)
C15 C -0.5353(10) 0.1575(8) -0.525(1)
C16 C -0.5140(10) 0.3680(7) -0.4569(9)
C17 C -0.230(1) 0.3631(7) -0.4582(10)
C18 C -0.0728(10) 0.1492(7) -0.528(1)
H1 H -0.3337 -0.0042 -0.5774
H2 H -0.2229 0.0082 -0.6661
H3 H -0.2032 -0.0139 -0.5095
H4 H -0.5903 0.1821 -0.4429
H5 H -0.5741 0.1837 -0.6062
H6 H -0.5194 0.0888 -0.5419
H7 H -0.5092 0.4081 -0.3692
H8 H -0.5105 0.4017 -0.5354
H9 H -0.5913 0.3499 -0.4580
H10 H -0.1716 0.3597 -0.3829
H11 H -0.1881 0.3629 -0.5464
H12 H -0.2959 0.4201 -0.4383
H13 H -0.0461 0.0802 -0.5464
H14 H -0.0524 0.1747 -0.6099
H15 H -0.0314 0.1717 -0.4470
Cu2A Cu -0.54123(9) -0.16763(7) 0.03388(10)
N2A N -0.6026(6) 0.1413(5) 0.0414(7)
N1A N 0.0067(6) 0.1432(5) 0.0426(7)
Cu1A Cu 0.15841(8) -0.16957(7) 0.03394(10)
N6 N -0.843(3) 0.232(3) -0.241(4)
C21 C -0.870(3) 0.340(2) -0.042(4)
C22 C -0.857(3) 0.291(3) -0.171(4)
N7 N -0.8768 0.3576 -0.5507
C19 C -0.8640 0.3678 -0.8276
C20 C -0.8667 0.3434 -0.6590
N5? N -0.8632 0.2756 -0.6382
C23? C -0.8699 0.4393 -0.5797
loop_
_geom_bond_atom_site_label_1
_geom_bond_atom_site_label_2
_geom_bond_site_symmetry_1
_geom_bond_site_symmetry_2
W1 S1 1_555 1_555
Br1 Cu1 1_555 1_555
Cu1 S1 1_555 1_555
Cu2 Br1 1_555 1_555
S1 C1 1_555 1_555
S2 W1 1_555 1_555
S3 W1 1_555 1_555
S4 W1 1_555 1_555
N1 C3 1_555 1_555
N2 C4 1_555 1_555
N3 C7 1_555 1_555
N4 C8 1_555 1_555
N6 C22 1_555 1_555
N7 C20 1_555 1_555
C1 S2 1_555 1_555
C2 C1 1_555 1_555
C3 C2 1_555 1_555
C4 C2 1_555 1_555
C5 S3 1_555 1_555
C6 C5 1_555 1_555
C7 C6 1_555 1_555
C8 C6 1_555 1_555
C9 W1 1_555 1_555
C10 W1 1_555 1_555
C11 W1 1_555 1_555
C12 W1 1_555 1_555
C13 W1 1_555 1_555
C14 C9 1_555 1_555
C15 C10 1_555 1_555
C16 C11 1_555 1_555
C17 C12 1_555 1_555
C18 C13 1_555 1_555
C19 C20 1_555 1_555
C21 C22 1_555 1_555
H1 C14 1_555 1_555
H2 C14 1_555 1_555
H3 C14 1_555 1_555
H4 C15 1_555 1_555
H5 C15 1_555 1_555
H6 C15 1_555 1_555
H7 C16 1_555 1_555
H8 C16 1_555 1_555
H9 C16 1_555 1_555
H10 C17 1_555 1_555
H11 C17 1_555 1_555
H12 C17 1_555 1_555
H13 C18 1_555 1_555
H14 C18 1_555 1_555
H15 C18 1_555 1_555
Cu2A N2 1_555 1_555
N2A Cu2 1_555 1_555
N1A Cu1 1_555 1_555
Cu1A N1 1_555 1_555
Cu1 S4 1_555 1_555
Cu2 S2 1_555 1_555
Cu2 S3 1_555 1_555
S4 C5 1_555 1_555
C9 C10 1_555 1_555
C9 C13 1_555 1_555
C10 C11 1_555 1_555
C11 C12 1_555 1_555
C12 C13 1_555 1_555

#END
