
#######################################################################
#
#                 Cambridge Crystallographic Data Centre
#                                CCDC 
#
#######################################################################
#
# If this CIF has been generated from an entry in the Cambridge 
# Structural Database, then it will include bibliographic, chemical, 
# crystal, experimental, refinement or atomic coordinate data resulting 
# from the CCDC's data processing and validation procedures.
#
#######################################################################

data_LUFNAC05
_symmetry_cell_setting           monoclinic
_symmetry_space_group_name_H-M   'C 2/c'
_symmetry_Int_Tables_number      15
_space_group_name_Hall           '-C 2yn'
loop_
_symmetry_equiv_pos_site_id
_symmetry_equiv_pos_as_xyz
1 x,y,z
2 -x,y,1/2-z
3 1/2+x,1/2+y,z
4 1/2-x,1/2+y,1/2-z
5 -x,-y,-z
6 x,-y,1/2+z
7 1/2-x,1/2-y,-z
8 1/2+x,1/2-y,1/2+z
_cell_length_a                   18.343(6)
_cell_length_b                   15.054(4)
_cell_length_c                   16.343(5)
_cell_angle_alpha                90
_cell_angle_beta                 111.808(4)
_cell_angle_gamma                90
_cell_volume                     4189.91
loop_
_atom_site_label
_atom_site_type_symbol
_atom_site_fract_x
_atom_site_fract_y
_atom_site_fract_z
Mn1 Mn 0.27551(7) 0.10879(6) 0.54688(6)
O1 O 0.2863(3) -0.0252(3) 0.1638(3)
O2 O 0.2591(3) 0.0431(3) 0.0360(3)
O3 O 0.2535(3) 0.1330(3) 0.4119(3)
C1 C 0.2250(5) 0.2008(4) 0.2742(4)
O4 O 0.1972(3) 0.2666(3) 0.3914(3)
C2 C 0.2022(4) 0.2800(5) 0.1362(4)
N1 N 0.1828(4) 0.3550(4) 0.0853(4)
H1 H 0.1908 0.3560 0.0366
C3 C 0.2461(5) 0.1267(4) 0.1548(4)
N2 N -0.0959(4) 0.4086(4) 0.0688(4)
C4 C 0.2468(4) 0.1256(4) 0.2406(4)
H2 H 0.2619 0.0746 0.2748
C5 C 0.2658(5) 0.0434(5) 0.1166(4)
C6 C 0.0644(5) 0.4229(4) 0.0963(5)
C7 C 0.2021(4) 0.2779(4) 0.2224(4)
H3 H 0.1867 0.3280 0.2452
C8 C 0.2253(4) 0.2009(4) 0.3661(4)
C9 C 0.1497(5) 0.4318(5) 0.1100(5)
H4 H 0.1559 0.4822 0.0762
H5 H 0.1792 0.4444 0.1717
C10 C 0.2232(5) 0.2023(5) 0.1033(5)
H6 H 0.2218 0.2014 0.0458
O5 O 0.1492(4) 0.1213(5) 0.5232(5)
C11 C 0.0303(6) 0.4756(7) 0.1395(6)
H7 H 0.0601 0.5174 0.1801
C12 C 0.0153(6) 0.3637(6) 0.0350(7)
H8 H 0.0349 0.3280 0.0015
C13 C -0.0490(6) 0.4669(7) 0.1231(6)
H9 H -0.0707 0.5050 0.1526
C14 C -0.0618(6) 0.3587(6) 0.0248(7)
H10 H -0.0932 0.3177 -0.0156
Mn1F Mn 0.22449(7) 0.39121(6) 0.45312(6)
Mn1E Mn 0.27551(7) -0.10879(6) 0.04688(6)
Mn1G Mn -0.22449(7) 0.39121(6) 0.04688(6)
Mn1C Mn 0.22449(7) 0.60879(6) 0.95312(6)
Mn1A Mn 0.72449(7) 0.10879(6) 0.95312(6)
O1F O 0.2137(3) 0.5252(3) 0.8362(3)
O1E O 0.2863(3) 0.0252(3) 0.6638(3)
O1C O 0.2137(3) 0.4748(3) 0.3362(3)
O2F O 0.2409(3) 0.4569(3) 0.9640(3)
O2E O 0.2591(3) -0.0431(3) 0.5360(3)
O2C O 0.2409(3) 0.5431(3) 0.4640(3)
O3F O 0.2465(3) 0.3670(3) 0.5881(3)
C1F C 0.2750(5) 0.2992(4) 0.7258(4)
O4F O 0.3028(3) 0.2334(3) 0.6086(3)
C2F C 0.2978(4) 0.2200(5) 0.8638(4)
N1F N 0.3172(4) 0.1450(4) 0.9147(4)
H1F H 0.3092 0.1440 0.9634
C3F C 0.2539(5) 0.3733(4) 0.8452(4)
N2F N 0.5959(4) 0.0914(4) 0.9312(4)
N2G N 0.4041(4) 0.0914(4) 0.5688(4)
N2A N 0.0959(4) 0.4086(4) 0.4312(4)
C4F C 0.2532(4) 0.3744(4) 0.7594(4)
H2F H 0.2381 0.4254 0.7252
C5F C 0.2342(5) 0.4566(5) 0.8834(4)
C6F C 0.4356(5) 0.0771(4) 0.9037(5)
C7F C 0.2979(4) 0.2221(4) 0.7776(4)
H3F H 0.3133 0.1720 0.7548
C8F C 0.2747(4) 0.2991(4) 0.6339(4)
C9F C 0.3503(5) 0.0682(5) 0.8900(5)
H4F H 0.3441 0.0178 0.9238
H5F H 0.3208 0.0556 0.8283
C10F C 0.2768(5) 0.2977(5) 0.8967(5)
H6F H 0.2782 0.2986 0.9542
O5F O 0.3508(4) 0.3787(5) 0.4768(5)
C11F C 0.4697(6) 0.0244(7) 0.8605(6)
H7F H 0.4399 -0.0174 0.8199
C12F C 0.4847(6) 0.1363(6) 0.9650(7)
H8F H 0.4651 0.1720 0.9985
C13F C 0.5490(6) 0.0331(7) 0.8769(6)
H9F H 0.5707 -0.0050 0.8474
C14F C 0.5618(6) 0.1413(6) 0.9752(7)
H10F H 0.5932 0.1823 1.0156
N3 N 0.1105(7) 0.1536(18) 0.7686(16)
C15 C 0.1141(18) 0.162(3) 0.8521(19)
H11 H 0.1278 0.1119 0.8880
O6 O 0.1002(13) 0.233(3) 0.8849(15)
C16 C 0.0907(15) 0.229(3) 0.709(3)
H12 H 0.0978 0.2133 0.6552
H13 H 0.1242 0.2784 0.7359
H14 H 0.0369 0.2457 0.6954
C17 C 0.1318(19) 0.069(2) 0.740(3)
H15 H 0.1338 0.0763 0.6823
H16 H 0.0932 0.0252 0.7374
H17 H 0.1823 0.0508 0.7806
O7 O -0.0155(13) 0.113(2) 0.4173(13)
O8 O 0.0000 0.135(3) 0.2500
loop_
_geom_bond_atom_site_label_1
_geom_bond_atom_site_label_2
_geom_bond_site_symmetry_1
_geom_bond_site_symmetry_2
Mn1 O3 1_555 1_555
O1 C5 1_555 1_555
O2 C5 1_555 1_555
O3 C8 1_555 1_555
C1 C4 1_555 1_555
O4 C8 1_555 1_555
C2 N1 1_555 1_555
N1 H1 1_555 1_555
C3 C4 1_555 1_555
N2 C13 1_555 1_555
C4 H2 1_555 1_555
C5 C3 1_555 1_555
C6 C9 1_555 1_555
C7 C1 1_555 1_555
H3 C7 1_555 1_555
C8 C1 1_555 1_555
C9 N1 1_555 1_555
H4 C9 1_555 1_555
H5 C9 1_555 1_555
C10 C2 1_555 1_555
H6 C10 1_555 1_555
O5 Mn1 1_555 1_555
C11 C6 1_555 1_555
H7 C11 1_555 1_555
C12 C6 1_555 1_555
H8 C12 1_555 1_555
C13 C11 1_555 1_555
H9 C13 1_555 1_555
C14 N2 1_555 1_555
H10 C14 1_555 1_555
N3 C15 1_555 1_555
C15 H11 1_555 1_555
O6 C15 1_555 1_555
C16 N3 1_555 1_555
H12 C16 1_555 1_555
H13 C16 1_555 1_555
H14 C16 1_555 1_555
C17 N3 1_555 1_555
H15 C17 1_555 1_555
H16 C17 1_555 1_555
H17 C17 1_555 1_555
Mn1F O4 1_555 1_555
Mn1E O1 1_555 1_555
Mn1G N2 1_555 1_555
Mn1C O1F 1_555 1_555
Mn1A N2F 1_555 1_555
O1F C5F 1_555 1_555
O1E Mn1 1_555 1_555
O1C Mn1F 1_555 1_555
O2F Mn1C 1_555 1_555
O2E Mn1 1_555 1_555
O2C Mn1F 1_555 1_555
O3F Mn1F 1_555 1_555
C1F C4F 1_555 1_555
O4F Mn1 1_555 1_555
C2F N1F 1_555 1_555
N1F H1F 1_555 1_555
C3F C4F 1_555 1_555
N2F C13F 1_555 1_555
N2G Mn1 1_555 1_555
N2A Mn1F 1_555 1_555
C4F H2F 1_555 1_555
C5F O2F 1_555 1_555
C6F C9F 1_555 1_555
C7F C1F 1_555 1_555
H3F C7F 1_555 1_555
C8F O3F 1_555 1_555
C9F N1F 1_555 1_555
H4F C9F 1_555 1_555
H5F C9F 1_555 1_555
C10F C2F 1_555 1_555
H6F C10F 1_555 1_555
O5F Mn1F 1_555 1_555
C11F C6F 1_555 1_555
H7F C11F 1_555 1_555
C12F C6F 1_555 1_555
H8F C12F 1_555 1_555
C13F C11F 1_555 1_555
H9F C13F 1_555 1_555
C14F N2F 1_555 1_555
H10F C14F 1_555 1_555
O2 Mn1E 1_555 1_555
C2 C7 1_555 1_555
C3 C10 1_555 1_555
C12 C14 1_555 1_555
C1F C8F 1_555 1_555
O4F C8F 1_555 1_555
C2F C7F 1_555 1_555
C3F C5F 1_555 1_555
C3F C10F 1_555 1_555
C12F C14F 1_555 1_555

#END
