
#######################################################################
#
#                 Cambridge Crystallographic Data Centre
#                                CCDC 
#
#######################################################################
#
# If this CIF has been generated from an entry in the Cambridge 
# Structural Database, then it will include bibliographic, chemical, 
# crystal, experimental, refinement or atomic coordinate data resulting 
# from the CCDC's data processing and validation procedures.
#
#######################################################################

data_LUFNIJ
_symmetry_cell_setting           monoclinic
_symmetry_space_group_name_H-M   'P 21/n'
_symmetry_Int_Tables_number      14
_space_group_name_Hall           '-P 2yn'
loop_
_symmetry_equiv_pos_site_id
_symmetry_equiv_pos_as_xyz
1 x,y,z
2 1/2+x,1/2-y,1/2+z
3 -x,-y,-z
4 1/2-x,1/2+y,1/2-z
_cell_length_a                   11.0400(2)
_cell_length_b                   14.7666(3)
_cell_length_c                   17.1953(2)
_cell_angle_alpha                90
_cell_angle_beta                 92.3252(10)
_cell_angle_gamma                90
_cell_volume                     2800.93
loop_
_atom_site_label
_atom_site_type_symbol
_atom_site_fract_x
_atom_site_fract_y
_atom_site_fract_z
Gd1 Gd -0.282500(8) 0.231300(7) 0.063600(6)
Cr1 Cr -0.77290(3) 0.25971(2) 0.01237(2)
O1 O -0.23929(18) 0.33837(14) -0.03645(12)
O2 O -0.2454(2) 0.14155(16) -0.04823(13)
N1 N -0.48431(18) 0.27951(16) 0.00584(13)
O3 O -0.42035(18) 0.25705(16) 0.16806(12)
C1 C -0.5878(2) 0.27758(16) 0.00045(14)
C2 C 0.0460(2) 0.23945(16) 0.03467(14)
O4 O -0.20794(17) 0.34629(14) 0.13972(12)
O5 O -0.21151(19) 0.12641(16) 0.15199(13)
N2 N -0.0748(2) 0.45877(17) 0.14498(14)
H1 H -0.1191 0.4847 0.1092
O6 O -0.4217(2) 0.09969(15) 0.05762(14)
C3 C -0.1496(2) 0.07732(18) 0.19689(16)
C4 C -0.8143(2) 0.25819(18) -0.10656(15)
C5 C -0.1118(2) 0.37984(18) 0.16937(15)
C6 C -0.7374(2) 0.12188(17) 0.00936(15)
C7 C 0.0624(3) 0.4558(3) 0.31180(19)
H2 H 0.1404 0.4304 0.2997
H3 H 0.0695 0.4795 0.3644
C8 C -0.7946(2) 0.39868(16) 0.01241(14)
N3 N -0.1641(2) 0.0821(2) 0.27224(15)
H4 H -0.2189 0.1188 0.2873
N4 N -0.8425(3) 0.2579(2) -0.17159(14)
C9 C 0.0342(3) 0.5074(2) 0.17245(19)
H5 H 0.0419 0.5620 0.1417
H6 H 0.1044 0.4698 0.1636
N5 N -0.7087(3) 0.04758(17) 0.00765(18)
C10 C 0.0353(3) 0.5330(2) 0.2572(2)
H7 H 0.0954 0.5800 0.2666
H8 H -0.0432 0.5581 0.2686
C11 C -0.0575(4) 0.0145(3) 0.1669(2)
H9 H -0.0632 0.0151 0.1104
H10 H -0.0753 -0.0465 0.1839
C12 C -0.0419(3) 0.3308(2) 0.23230(19)
H11 H 0.0388 0.3185 0.2145
H12 H -0.0809 0.2730 0.2409
N6 N -0.8011(3) 0.47579(17) 0.01016(16)
C13 C -0.7311(2) 0.25968(17) 0.13069(14)
C14 C -0.0973(3) 0.0317(3) 0.3332(2)
H13 H -0.1091 -0.0325 0.3238
H14 H -0.1316 0.0458 0.3828
C15 C -0.0298(3) 0.3808(3) 0.30979(18)
H15 H -0.1081 0.4061 0.3215
H16 H -0.0079 0.3376 0.3504
C16 C 0.0345(4) 0.0504(4) 0.3390(2)
H17 H 0.0665 0.0273 0.3885
H18 H 0.0462 0.1155 0.3393
C17 C 0.0711(4) 0.0385(4) 0.1937(3)
H19 H 0.1265 0.0099 0.1588
H20 H 0.0814 0.1035 0.1890
N7 N -0.7015(3) 0.2589(2) 0.19537(14)
C18 C 0.1066(4) 0.0111(4) 0.2759(3)
H21 H 0.1014 -0.0544 0.2792
H22 H 0.1908 0.0275 0.2859
N8 N -0.05417(19) 0.23020(16) 0.04745(14)
H23 H -0.395(4) 0.254(2) 0.213(2)
H25 H -0.197(4) 0.166(4) -0.077(3)
H26 H -0.485(3) 0.254(2) 0.166(2)
H27 H -0.393(4) 0.051(3) 0.046(2)
H28 H -0.203(4) 0.312(4) -0.072(3)
H29 H -0.229(3) 0.389(3) -0.031(2)
H30 H -0.492(5) 0.104(4) 0.041(3)
H31 H -0.243(4) 0.091(3) -0.047(2)
C2_2 C -0.9540(2) 0.23945(16) 0.03467(14)
Cr1_2 Cr 0.22710(3) 0.25971(2) 0.01237(2)
O7 O -1.1200(2) 0.23998(19) -0.14946(13)
H24 H -1.046(5) 0.239(3) -0.153(3)
H32 H -1.134(6) 0.234(4) -0.194(4)
loop_
_geom_bond_atom_site_label_1
_geom_bond_atom_site_label_2
_geom_bond_site_symmetry_1
_geom_bond_site_symmetry_2
Gd1 O1 1_555 1_555
Cr1 C1 1_555 1_555
O1 H28 1_555 1_555
O2 Gd1 1_555 1_555
N1 Gd1 1_555 1_555
O3 Gd1 1_555 1_555
C1 N1 1_555 1_555
C2 N8 1_555 1_555
O4 Gd1 1_555 1_555
O5 Gd1 1_555 1_555
N2 H1 1_555 1_555
O6 Gd1 1_555 1_555
C3 O5 1_555 1_555
C4 Cr1 1_555 1_555
C5 O4 1_555 1_555
C6 Cr1 1_555 1_555
C7 H2 1_555 1_555
H3 C7 1_555 1_555
C8 Cr1 1_555 1_555
N3 C3 1_555 1_555
H4 N3 1_555 1_555
N4 C4 1_555 1_555
C9 N2 1_555 1_555
H5 C9 1_555 1_555
H6 C9 1_555 1_555
N5 C6 1_555 1_555
C10 C7 1_555 1_555
H7 C10 1_555 1_555
H8 C10 1_555 1_555
C11 C3 1_555 1_555
H9 C11 1_555 1_555
H10 C11 1_555 1_555
C12 C5 1_555 1_555
H11 C12 1_555 1_555
H12 C12 1_555 1_555
N6 C8 1_555 1_555
O7 H24 1_555 1_555
C13 Cr1 1_555 1_555
C14 N3 1_555 1_555
H13 C14 1_555 1_555
H14 C14 1_555 1_555
C15 C7 1_555 1_555
H15 C15 1_555 1_555
H16 C15 1_555 1_555
C16 C14 1_555 1_555
H17 C16 1_555 1_555
H18 C16 1_555 1_555
C17 C11 1_555 1_555
H19 C17 1_555 1_555
H20 C17 1_555 1_555
N7 C13 1_555 1_555
C18 C16 1_555 1_555
H21 C18 1_555 1_555
H22 C18 1_555 1_555
N8 Gd1 1_555 1_555
H23 O3 1_555 1_555
H25 O2 1_555 1_555
H26 O3 1_555 1_555
H27 O6 1_555 1_555
H29 O1 1_555 1_555
H30 O6 1_555 1_555
H31 O2 1_555 1_555
H32 O7 1_555 1_555
C2_2 Cr1 1_555 1_555
Cr1_2 C2 1_555 1_555
N2 C5 1_555 1_555
C9 C10 1_555 1_555
C12 C15 1_555 1_555
C17 C18 1_555 1_555

#END
