
#######################################################################
#
#                 Cambridge Crystallographic Data Centre
#                                CCDC 
#
#######################################################################
#
# If this CIF has been generated from an entry in the Cambridge 
# Structural Database, then it will include bibliographic, chemical, 
# crystal, experimental, refinement or atomic coordinate data resulting 
# from the CCDC's data processing and validation procedures.
#
#######################################################################

data_LUFNOQ
_symmetry_cell_setting           monoclinic
_symmetry_space_group_name_H-M   'C 2/c'
_symmetry_Int_Tables_number      15
_space_group_name_Hall           '-C 2yn'
loop_
_symmetry_equiv_pos_site_id
_symmetry_equiv_pos_as_xyz
1 x,y,z
2 -x,y,1/2-z
3 1/2+x,1/2+y,z
4 1/2-x,1/2+y,1/2-z
5 -x,-y,-z
6 x,-y,1/2+z
7 1/2-x,1/2-y,-z
8 1/2+x,1/2-y,1/2+z
_cell_length_a                   18.237(6)
_cell_length_b                   15.078(3)
_cell_length_c                   16.285(5)
_cell_angle_alpha                90
_cell_angle_beta                 114.835(5)
_cell_angle_gamma                90
_cell_volume                     4063.89
loop_
_atom_site_label
_atom_site_type_symbol
_atom_site_fract_x
_atom_site_fract_y
_atom_site_fract_z
Mn1 Mn 0.77170(6) 0.89003(5) 0.54410(6)
O1 O 1.2566(3) 0.5432(3) 0.5322(3)
O2 O 1.2762(3) 0.4723(3) 0.6577(3)
O3 O 1.2036(3) 0.7682(3) 0.8898(3)
O4 O 1.2495(3) 0.6296(3) 0.9080(3)
N1 N 1.1779(4) 0.8556(3) 0.5783(3)
H1 H 1.1819 0.8564 0.5275
C1 C 1.2246(4) 0.7008(4) 0.7697(4)
C2 C 1.1997(4) 0.7799(4) 0.6311(4)
C3 C 1.2445(4) 0.6259(4) 0.7357(4)
H2 H 1.2602 0.5748 0.7708
C4 C 1.2415(4) 0.6262(4) 0.6492(4)
N2 N 0.9037(3) 0.9063(4) 0.5733(4)
C5 C 1.2203(4) 0.7033(4) 0.5974(4)
H3 H 1.2200 0.7038 0.5401
C6 C 1.2008(4) 0.7778(4) 0.7178(4)
H4 H 1.1858 0.8277 0.7406
C7 C 1.2599(4) 0.5434(4) 0.6104(4)
C8 C 1.1488(4) 0.9324(4) 0.6068(4)
H5 H 1.1514 0.9830 0.5714
H6 H 1.1837 0.9445 0.6697
C9 C 1.0633(4) 0.9218(4) 0.5966(4)
C10 C 1.2265(4) 0.7005(4) 0.8629(4)
C11 C 1.0120(5) 0.8600(6) 0.5388(5)
H7 H 1.0304 0.8211 0.5072
C12 C 1.0314(5) 0.9739(7) 0.6413(6)
H8 H 1.0635 1.0163 0.6821
C13 C 0.9524(4) 0.9643(4) 0.6268(4)
H9 H 0.9324 1.0022 0.6575
C14 C 0.9333(5) 0.8563(4) 0.5281(4)
H10 H 0.8988 0.8160 0.4865
N3 N 0.6345(4) 0.8781(4) 0.4989(4)
C18 C 0.5640(3) 0.8744(3) 0.4664(4)
C19 C 0.4800(4) 0.8747(4) 0.4217(4)
H14 H 0.4492 0.8799 0.4546
C20 C 0.4423(3) 0.8671(3) 0.3288(3)
H15 H 0.4730 0.8618 0.2956
H16 H 0.3862 0.8673 0.2993
Mn1B Mn 1.27170(6) 0.39003(5) 0.54410(6)
Mn1A Mn 1.22830(6) 0.89003(5) 0.95590(6)
Mn1G Mn 1.27170(6) 0.60997(5) 1.04410(6)
O1B O 0.7566(3) 1.0432(3) 0.5322(3)
O2B O 0.7762(3) 0.9723(3) 0.6577(3)
O3A O 0.7964(3) 0.7682(3) 0.6102(3)
O4G O 0.7495(3) 0.8704(3) 0.4080(3)
C15 C 0.8703(5) 0.5672(5) 0.1879(5)
H11 H 0.8972 0.6016 0.1619
H12 H 0.8440 0.5156 0.1593
C16 C 0.8695(4) 0.5928(3) 0.2698(4)
H13 H 0.8424 0.5577 0.2951
C17 C 0.9077(4) 0.6685(4) 0.3141(4)
N4 N 0.9384(4) 0.735(3) 0.348(3)
loop_
_geom_bond_atom_site_label_1
_geom_bond_atom_site_label_2
_geom_bond_site_symmetry_1
_geom_bond_site_symmetry_2
Mn1 N2 1_555 1_555
O1 C7 1_555 1_555
O2 C7 1_555 1_555
O3 C10 1_555 1_555
O4 C10 1_555 1_555
N1 H1 1_555 1_555
C1 C3 1_555 1_555
C2 N1 1_555 1_555
C3 H2 1_555 1_555
C4 C3 1_555 1_555
N2 C13 1_555 1_555
C5 C2 1_555 1_555
H3 C5 1_555 1_555
C6 C1 1_555 1_555
H4 C6 1_555 1_555
C7 C4 1_555 1_555
C8 N1 1_555 1_555
H5 C8 1_555 1_555
H6 C8 1_555 1_555
C9 C8 1_555 1_555
C10 C1 1_555 1_555
C11 C9 1_555 1_555
H7 C11 1_555 1_555
C12 C9 1_555 1_555
H8 C12 1_555 1_555
C13 C12 1_555 1_555
H9 C13 1_555 1_555
C14 N2 1_555 1_555
H10 C14 1_555 1_555
C15 H11 1_555 1_555
H12 C15 1_555 1_555
C16 C15 1_555 1_555
H13 C16 1_555 1_555
C17 C16 1_555 1_555
N3 Mn1 1_555 1_555
C18 N3 1_555 1_555
C19 C18 1_555 1_555
H14 C19 1_555 1_555
C20 C19 1_555 1_555
H15 C20 1_555 1_555
H16 C20 1_555 1_555
N4 C17 1_555 1_555
Mn1B O1 1_555 1_555
Mn1A O3 1_555 1_555
Mn1G O4 1_555 1_555
O1B Mn1 1_555 1_555
O2B Mn1 1_555 1_555
O3A Mn1 1_555 1_555
O4G Mn1 1_555 1_555
O2 Mn1B 1_555 1_555
C2 C6 1_555 1_555
C4 C5 1_555 1_555
C11 C14 1_555 1_555

#END
