
#######################################################################
#
#                 Cambridge Crystallographic Data Centre
#                                CCDC 
#
#######################################################################
#
# If this CIF has been generated from an entry in the Cambridge 
# Structural Database, then it will include bibliographic, chemical, 
# crystal, experimental, refinement or atomic coordinate data resulting 
# from the CCDC's data processing and validation procedures.
#
#######################################################################

data_LUFNAC03
_symmetry_cell_setting           monoclinic
_symmetry_space_group_name_H-M   'C 2/c'
_symmetry_Int_Tables_number      15
_space_group_name_Hall           '-C 2yn'
loop_
_symmetry_equiv_pos_site_id
_symmetry_equiv_pos_as_xyz
1 x,y,z
2 -x,y,1/2-z
3 1/2+x,1/2+y,z
4 1/2-x,1/2+y,1/2-z
5 -x,-y,-z
6 x,-y,1/2+z
7 1/2-x,1/2-y,-z
8 1/2+x,1/2-y,1/2+z
_cell_length_a                   18.408(6)
_cell_length_b                   15.037(5)
_cell_length_c                   16.357(6)
_cell_angle_alpha                90
_cell_angle_beta                 111.575(5)
_cell_angle_gamma                90
_cell_volume                     4210.42
loop_
_atom_site_label
_atom_site_type_symbol
_atom_site_fract_x
_atom_site_fract_y
_atom_site_fract_z
Mn1 Mn 0.27593(5) 0.10845(5) 0.54678(5)
O1 O 0.2874(3) -0.0248(2) 0.1642(2)
O2 O 0.1975(2) 0.2671(2) 0.3921(2)
O3 O 0.2590(3) 0.0433(3) 0.0364(2)
O4 O 0.2529(2) 0.1331(2) 0.4122(2)
C1 C 0.2017(3) 0.2793(4) 0.1364(3)
N1 N -0.0960(3) 0.4089(3) 0.0677(3)
C2 C 0.2249(3) 0.2013(3) 0.2740(3)
N2 N 0.1825(3) 0.3546(3) 0.0851(3)
H1 H 0.1902 0.3558 0.0364
C3 C 0.2473(3) 0.1260(3) 0.2403(3)
H2 H 0.2635 0.0754 0.2748
C4 C 0.2454(3) 0.1268(4) 0.1541(4)
C5 C 0.2655(3) 0.0439(4) 0.1163(3)
C6 C 0.0638(3) 0.4237(3) 0.0965(3)
C7 C 0.2009(3) 0.2777(3) 0.2225(3)
H3 H 0.1845 0.3274 0.2448
C8 C 0.2258(3) 0.2011(3) 0.3672(3)
C9 C 0.2230(3) 0.2033(4) 0.1040(3)
H4 H 0.2223 0.2033 0.0468
C10 C 0.1492(3) 0.4322(3) 0.1115(3)
H5 H 0.1563 0.4835 0.0792
H6 H 0.1779 0.4433 0.1735
O5 O 0.1520(3) 0.1204(4) 0.5272(4)
C11 C 0.0161(4) 0.3647(5) 0.0350(5)
H7 H 0.0363 0.3290 0.0021
C12 C 0.0287(5) 0.4769(5) 0.1394(5)
H8 H 0.0581 0.5187 0.1801
C13 C -0.0493(4) 0.4687(5) 0.1224(5)
H9 H -0.0715 0.5074 0.1509
C14 C -0.0625(4) 0.3600(4) 0.0234(5)
H10 H -0.0938 0.3201 -0.0181
Mn1F Mn 0.22407(5) 0.39155(5) 0.45322(5)
Mn1E Mn 0.27593(5) -0.10845(5) 0.04678(5)
Mn1G Mn -0.22407(5) 0.39155(5) 0.04678(5)
Mn1C Mn 0.22407(5) 0.60845(5) 0.95322(5)
Mn1A Mn 0.72407(5) 0.10845(5) 0.95322(5)
O1F O 0.2126(3) 0.5248(2) 0.8358(2)
O1E O 0.2874(3) 0.0248(2) 0.6642(2)
O1C O 0.2126(3) 0.4752(2) 0.3358(2)
O2F O 0.3025(2) 0.2329(2) 0.6079(2)
O3F O 0.2410(3) 0.4567(3) 0.9636(2)
O3E O 0.2590(3) -0.0433(3) 0.5364(2)
O3C O 0.2410(3) 0.5433(3) 0.4636(2)
O4F O 0.2471(2) 0.3669(2) 0.5878(2)
C1F C 0.2983(3) 0.2207(4) 0.8636(3)
N1F N 0.5960(3) 0.0911(3) 0.9323(3)
N1G N 0.4040(3) 0.0911(3) 0.5677(3)
N1A N 0.0960(3) 0.4089(3) 0.4323(3)
C2F C 0.2751(3) 0.2987(3) 0.7260(3)
N2F N 0.3175(3) 0.1454(3) 0.9149(3)
H1F H 0.3098 0.1442 0.9636
C3F C 0.2527(3) 0.3740(3) 0.7597(3)
H2F H 0.2365 0.4246 0.7252
C4F C 0.2546(3) 0.3732(4) 0.8459(4)
C5F C 0.2345(3) 0.4561(4) 0.8837(3)
C6F C 0.4362(3) 0.0763(3) 0.9035(3)
C7F C 0.2991(3) 0.2223(3) 0.7775(3)
H3F H 0.3155 0.1726 0.7552
C8F C 0.2742(3) 0.2989(3) 0.6328(3)
C9F C 0.2770(3) 0.2967(4) 0.8960(3)
H4F H 0.2777 0.2967 0.9532
C10F C 0.3508(3) 0.0678(3) 0.8885(3)
H5F H 0.3437 0.0165 0.9208
H6F H 0.3221 0.0567 0.8265
O5F O 0.3480(3) 0.3796(4) 0.4728(4)
C11F C 0.4839(4) 0.1353(5) 0.9650(5)
H7F H 0.4637 0.1710 0.9979
C12F C 0.4713(5) 0.0231(5) 0.8606(5)
H8F H 0.4419 -0.0187 0.8199
C13F C 0.5493(4) 0.0313(5) 0.8776(5)
H9F H 0.5715 -0.0074 0.8491
C14F C 0.5625(4) 0.1400(4) 0.9766(5)
H10F H 0.5938 0.1799 1.0181
O6 O -0.0107(12) 0.1246(17) 0.4180(13)
O7 O 0.0000 0.156(2) 0.2500
N3 N 0.3950(6) 0.3306(13) 0.2244(12)
C15 C 0.3932(9) 0.334(2) 0.1428(13)
H11 H 0.3757 0.3874 0.1127
O8 O 0.412(2) 0.276(5) 0.102(3)
C16 C 0.3712(11) 0.405(2) 0.265(3)
H12 H 0.3786 0.3906 0.3250
H13 H 0.3171 0.4184 0.2333
H14 H 0.4022 0.4566 0.2648
C17 C 0.4184(13) 0.248(2) 0.274(3)
H15 H 0.4171 0.2559 0.3321
H16 H 0.4703 0.2321 0.2793
H17 H 0.3829 0.2011 0.2447
loop_
_geom_bond_atom_site_label_1
_geom_bond_atom_site_label_2
_geom_bond_site_symmetry_1
_geom_bond_site_symmetry_2
Mn1 O4 1_555 1_555
O1 C5 1_555 1_555
O2 C8 1_555 1_555
O3 C5 1_555 1_555
O4 C8 1_555 1_555
C1 N2 1_555 1_555
N1 C13 1_555 1_555
C2 C3 1_555 1_555
N2 H1 1_555 1_555
C3 H2 1_555 1_555
C4 C3 1_555 1_555
C5 C4 1_555 1_555
C6 C10 1_555 1_555
C7 C1 1_555 1_555
H3 C7 1_555 1_555
C8 C2 1_555 1_555
C9 C1 1_555 1_555
H4 C9 1_555 1_555
C10 N2 1_555 1_555
H5 C10 1_555 1_555
H6 C10 1_555 1_555
O5 Mn1 1_555 1_555
C11 C6 1_555 1_555
H7 C11 1_555 1_555
C12 C6 1_555 1_555
H8 C12 1_555 1_555
C13 C12 1_555 1_555
H9 C13 1_555 1_555
C14 N1 1_555 1_555
H10 C14 1_555 1_555
N3 C15 1_555 1_555
C15 H11 1_555 1_555
O8 C15 1_555 1_555
C16 N3 1_555 1_555
H12 C16 1_555 1_555
H13 C16 1_555 1_555
H14 C16 1_555 1_555
C17 N3 1_555 1_555
H15 C17 1_555 1_555
H16 C17 1_555 1_555
H17 C17 1_555 1_555
Mn1F O2 1_555 1_555
Mn1E O1 1_555 1_555
Mn1G N1 1_555 1_555
Mn1C O1F 1_555 1_555
Mn1A N1F 1_555 1_555
O1F C5F 1_555 1_555
O1E Mn1 1_555 1_555
O1C Mn1F 1_555 1_555
O2F Mn1 1_555 1_555
O3F Mn1C 1_555 1_555
O3E Mn1 1_555 1_555
O3C Mn1F 1_555 1_555
O4F Mn1F 1_555 1_555
C1F N2F 1_555 1_555
N1F C13F 1_555 1_555
N1G Mn1 1_555 1_555
N1A Mn1F 1_555 1_555
C2F C3F 1_555 1_555
N2F H1F 1_555 1_555
C3F H2F 1_555 1_555
C4F C3F 1_555 1_555
C5F O3F 1_555 1_555
C6F C10F 1_555 1_555
C7F C1F 1_555 1_555
H3F C7F 1_555 1_555
C8F O2F 1_555 1_555
C9F C1F 1_555 1_555
H4F C9F 1_555 1_555
C10F N2F 1_555 1_555
H5F C10F 1_555 1_555
H6F C10F 1_555 1_555
O5F Mn1F 1_555 1_555
C11F C6F 1_555 1_555
H7F C11F 1_555 1_555
C12F C6F 1_555 1_555
H8F C12F 1_555 1_555
C13F C12F 1_555 1_555
H9F C13F 1_555 1_555
C14F N1F 1_555 1_555
H10F C14F 1_555 1_555
O3 Mn1E 1_555 1_555
C2 C7 1_555 1_555
C4 C9 1_555 1_555
C11 C14 1_555 1_555
O4F C8F 1_555 1_555
C2F C7F 1_555 1_555
C2F C8F 1_555 1_555
C4F C5F 1_555 1_555
C4F C9F 1_555 1_555
C11F C14F 1_555 1_555

#END
