
#######################################################################
#
#                 Cambridge Crystallographic Data Centre
#                                CCDC 
#
#######################################################################
#
# If this CIF has been generated from an entry in the Cambridge 
# Structural Database, then it will include bibliographic, chemical, 
# crystal, experimental, refinement or atomic coordinate data resulting 
# from the CCDC's data processing and validation procedures.
#
#######################################################################

data_LUFNAC
_symmetry_cell_setting           monoclinic
_symmetry_space_group_name_H-M   'C 2/c'
_symmetry_Int_Tables_number      15
_space_group_name_Hall           '-C 2yn'
loop_
_symmetry_equiv_pos_site_id
_symmetry_equiv_pos_as_xyz
1 x,y,z
2 -x,y,1/2-z
3 1/2+x,1/2+y,z
4 1/2-x,1/2+y,1/2-z
5 -x,-y,-z
6 x,-y,1/2+z
7 1/2-x,1/2-y,-z
8 1/2+x,1/2-y,1/2+z
_cell_length_a                   18.278(6)
_cell_length_b                   15.032(4)
_cell_length_c                   16.444(5)
_cell_angle_alpha                90
_cell_angle_beta                 112.032(5)
_cell_angle_gamma                90
_cell_volume                     4188.14
loop_
_atom_site_label
_atom_site_type_symbol
_atom_site_fract_x
_atom_site_fract_y
_atom_site_fract_z
Mn1 Mn 0.27202(6) 0.10813(5) 0.04414(5)
O1 O 0.7814(3) 0.5257(2) 0.1607(3)
O2 O 0.7562(3) 0.4557(3) 0.0351(2)
C1 C 0.7278(4) 0.2985(3) 0.2746(3)
O3 O 0.7533(3) 0.3690(2) 0.4109(2)
O4 O 0.7031(3) 0.2322(2) 0.3929(3)
C2 C 0.7033(4) 0.2190(4) 0.1382(4)
C3 C 0.7443(4) 0.3731(4) 0.1534(4)
C4 C 0.7467(4) 0.3739(3) 0.2396(3)
H1 H 0.7610 0.4255 0.2731
N1 N 0.4022(3) 0.0909(3) 0.0705(3)
C5 C 0.7288(4) 0.2985(4) 0.3667(3)
N2 N 0.6830(4) 0.1437(3) 0.0866(3)
H2 H 0.6908 0.1427 0.0382
C6 C 0.7619(4) 0.4554(4) 0.1146(3)
C7 C 0.5636(4) 0.0766(4) 0.0983(4)
C8 C 0.7236(4) 0.2960(4) 0.1045(4)
H3 H 0.7232 0.2955 0.0478
C9 C 0.6490(4) 0.0664(4) 0.1112(4)
H4 H 0.6790 0.0532 0.1725
H5 H 0.6542 0.0159 0.0770
C10 C 0.7036(4) 0.2218(3) 0.2242(4)
H6 H 0.6877 0.1723 0.2472
O5 O 0.1466(5) 0.1182(5) 0.0201(6)
C11 C 0.5156(5) 0.1368(6) 0.0401(6)
H7 H 0.5362 0.1752 0.0098
C12 C 0.5280(6) 0.0225(7) 0.1383(6)
H8 H 0.5575 -0.0207 0.1773
C13 C 0.4364(5) 0.1402(6) 0.0266(6)
H9 H 0.4047 0.1793 -0.0158
C14 C 0.4481(6) 0.0307(7) 0.1219(6)
H10 H 0.4259 -0.0092 0.1492
H18 H 0.106(2) 0.127(3) -0.032(2)
H19 H 0.15(2) 0.057(11) 0.033(16)
Mn1A Mn 0.72798(6) 0.10813(5) 0.45586(5)
Mn1B Mn 0.77202(6) 0.60813(5) 0.04414(5)
Mn1G Mn 0.77202(6) 0.39187(5) 0.54414(5)
Mn1C Mn 0.22798(6) 0.60813(5) 0.45586(5)
Mn1F Mn 0.22798(6) 0.39187(5) -0.04414(5)
O1A O 0.2186(3) 0.5257(2) 0.3393(3)
O1B O 0.2814(3) 0.0257(2) 0.1607(3)
O1C O 0.7186(3) 0.0257(2) 0.3393(3)
O2A O 0.2438(3) 0.4557(3) 0.4649(2)
O2B O 0.2562(3) -0.0443(3) 0.0351(2)
O2C O 0.7438(3) -0.0443(3) 0.4649(2)
C1A C 0.2722(4) 0.2985(3) 0.2254(3)
O3A O 0.2467(3) 0.3690(2) 0.0891(2)
O3G O 0.2533(3) 0.1310(2) -0.0891(2)
O3F O 0.7467(3) 0.1310(2) 0.5891(2)
O4A O 0.2969(3) 0.2322(2) 0.1071(3)
C2A C 0.2967(4) 0.2190(4) 0.3618(4)
C3A C 0.2557(4) 0.3731(4) 0.3466(4)
C4A C 0.2533(4) 0.3739(3) 0.2604(3)
H1A H 0.2390 0.4255 0.2269
N1A N 0.5978(3) 0.0909(3) 0.4295(3)
C5A C 0.2712(4) 0.2985(4) 0.1333(3)
N2A N 0.3170(4) 0.1437(3) 0.4134(3)
H2A H 0.3092 0.1427 0.4618
C6A C 0.2381(4) 0.4554(4) 0.3854(3)
C7A C 0.4364(4) 0.0766(4) 0.4017(4)
C8A C 0.2764(4) 0.2960(4) 0.3955(4)
H3A H 0.2768 0.2955 0.4522
C9A C 0.3510(4) 0.0664(4) 0.3888(4)
H4A H 0.3210 0.0532 0.3275
H5A H 0.3458 0.0159 0.4230
C10A C 0.2964(4) 0.2218(3) 0.2758(4)
H6A H 0.3123 0.1723 0.2528
O5A O 0.8534(5) 0.1182(5) 0.4799(6)
C11A C 0.4844(5) 0.1368(6) 0.4599(6)
H7A H 0.4638 0.1752 0.4902
C12A C 0.4720(6) 0.0225(7) 0.3617(6)
H8A H 0.4425 -0.0207 0.3227
C13A C 0.5636(5) 0.1402(6) 0.4734(6)
H9A H 0.5953 0.1793 0.5158
C14A C 0.5519(6) 0.0307(7) 0.3781(6)
H10A H 0.5741 -0.0092 0.3508
H18A H 0.894(2) 0.127(3) 0.532(2)
H19A H 0.85(2) 0.057(11) 0.467(16)
N3 N 0.1085(7) 0.1585(11) 0.2848(8)
O6 O 0.091(2) 0.2624(19) 0.3748(18)
C15 C 0.120(3) 0.0666(14) 0.265(3)
H11 H 0.1322 0.0314 0.3176
H12 H 0.1626 0.0630 0.2450
H13 H 0.0725 0.0445 0.2209
C16 C 0.1082(12) 0.1831(16) 0.3639(10)
H14 H 0.1204 0.1421 0.4095
C17 C 0.0924(12) 0.223(2) 0.2155(16)
H15 H 0.0955 0.1950 0.1645
H16 H 0.1305 0.2702 0.2344
H17 H 0.0404 0.2471 0.2015
O7 O -0.0184(13) 0.1177(10) -0.0854(13)
O8 O 0.0000 0.138(4) -0.2500
loop_
_geom_bond_atom_site_label_1
_geom_bond_atom_site_label_2
_geom_bond_site_symmetry_1
_geom_bond_site_symmetry_2
Mn1 N1 1_555 1_555
O1 C6 1_555 1_555
O2 C6 1_555 1_555
C1 C4 1_555 1_555
O3 C5 1_555 1_555
O4 C5 1_555 1_555
C2 N2 1_555 1_555
C3 C4 1_555 1_555
C4 H1 1_555 1_555
N1 C13 1_555 1_555
C5 C1 1_555 1_555
N2 H2 1_555 1_555
C6 C3 1_555 1_555
C7 C9 1_555 1_555
C8 C2 1_555 1_555
H3 C8 1_555 1_555
C9 N2 1_555 1_555
H4 C9 1_555 1_555
H5 C9 1_555 1_555
C10 C1 1_555 1_555
H6 C10 1_555 1_555
O5 Mn1 1_555 1_555
C11 C7 1_555 1_555
H7 C11 1_555 1_555
N3 C15 1_555 1_555
C12 C7 1_555 1_555
H8 C12 1_555 1_555
C13 C11 1_555 1_555
H9 C13 1_555 1_555
C14 N1 1_555 1_555
H10 C14 1_555 1_555
O6 C16 1_555 1_555
C15 H11 1_555 1_555
H12 C15 1_555 1_555
H13 C15 1_555 1_555
C16 N3 1_555 1_555
H14 C16 1_555 1_555
C17 N3 1_555 1_555
H15 C17 1_555 1_555
H16 C17 1_555 1_555
H17 C17 1_555 1_555
H18 O5 1_555 1_555
H19 O5 1_555 1_555
Mn1A O4 1_555 1_555
Mn1B O1 1_555 1_555
Mn1G O3 1_555 1_555
Mn1C O1A 1_555 1_555
Mn1F O3A 1_555 1_555
O1A C6A 1_555 1_555
O1B Mn1 1_555 1_555
O1C Mn1A 1_555 1_555
O2A Mn1C 1_555 1_555
O2B Mn1 1_555 1_555
O2C Mn1A 1_555 1_555
C1A C4A 1_555 1_555
O3A C5A 1_555 1_555
O3G Mn1 1_555 1_555
O3F Mn1A 1_555 1_555
O4A Mn1 1_555 1_555
C2A N2A 1_555 1_555
C3A C4A 1_555 1_555
C4A H1A 1_555 1_555
N1A Mn1A 1_555 1_555
C5A C1A 1_555 1_555
N2A H2A 1_555 1_555
C6A O2A 1_555 1_555
C7A C9A 1_555 1_555
C8A C2A 1_555 1_555
H3A C8A 1_555 1_555
C9A N2A 1_555 1_555
H4A C9A 1_555 1_555
H5A C9A 1_555 1_555
C10A C1A 1_555 1_555
H6A C10A 1_555 1_555
O5A Mn1A 1_555 1_555
C11A C7A 1_555 1_555
H7A C11A 1_555 1_555
C12A C7A 1_555 1_555
H8A C12A 1_555 1_555
C13A N1A 1_555 1_555
H9A C13A 1_555 1_555
C14A N1A 1_555 1_555
H10A C14A 1_555 1_555
H18A O5A 1_555 1_555
H19A O5A 1_555 1_555
O2 Mn1B 1_555 1_555
C2 C10 1_555 1_555
C3 C8 1_555 1_555
C12 C14 1_555 1_555
O4A C5A 1_555 1_555
C2A C10A 1_555 1_555
C3A C6A 1_555 1_555
C3A C8A 1_555 1_555
C11A C13A 1_555 1_555
C12A C14A 1_555 1_555

#END
