
#######################################################################
#
#                 Cambridge Crystallographic Data Centre
#                                CCDC 
#
#######################################################################
#
# If this CIF has been generated from an entry in the Cambridge 
# Structural Database, then it will include bibliographic, chemical, 
# crystal, experimental, refinement or atomic coordinate data resulting 
# from the CCDC's data processing and validation procedures.
#
#######################################################################

data_LUFNAC04
_symmetry_cell_setting           monoclinic
_symmetry_space_group_name_H-M   'C 2/c'
_symmetry_Int_Tables_number      15
_space_group_name_Hall           '-C 2yn'
loop_
_symmetry_equiv_pos_site_id
_symmetry_equiv_pos_as_xyz
1 x,y,z
2 -x,y,1/2-z
3 1/2+x,1/2+y,z
4 1/2-x,1/2+y,1/2-z
5 -x,-y,-z
6 x,-y,1/2+z
7 1/2-x,1/2-y,-z
8 1/2+x,1/2-y,1/2+z
_cell_length_a                   18.421(5)
_cell_length_b                   15.029(4)
_cell_length_c                   16.355(5)
_cell_angle_alpha                90
_cell_angle_beta                 111.668(6)
_cell_angle_gamma                90
_cell_volume                     4207.92
loop_
_atom_site_label
_atom_site_type_symbol
_atom_site_fract_x
_atom_site_fract_y
_atom_site_fract_z
Mn1 Mn 0.27585(8) 0.10828(8) 0.54667(7)
O1 O 0.2868(4) -0.0242(4) 0.1638(4)
O2 O 0.2595(4) 0.0444(4) 0.0363(4)
O3 O 0.1971(4) 0.2662(4) 0.3921(3)
O4 O 0.2535(4) 0.1331(4) 0.4124(3)
C1 C 0.2250(5) 0.2018(6) 0.2738(5)
N1 N 0.1823(5) 0.3559(5) 0.0858(5)
H1 H 0.1904 0.3570 0.0372
N2 N -0.0959(4) 0.4094(5) 0.0683(4)
C2 C 0.2018(5) 0.2802(6) 0.1376(5)
C3 C 0.2665(5) 0.0443(6) 0.1167(5)
C4 C 0.2468(5) 0.1263(5) 0.2403(5)
H2 H 0.2616 0.0751 0.2745
C5 C 0.2465(5) 0.1275(6) 0.1552(5)
C6 C 0.2015(5) 0.2786(6) 0.2227(5)
H3 H 0.1856 0.3284 0.2454
C7 C 0.2251(5) 0.2018(5) 0.3665(4)
C8 C 0.2238(6) 0.2031(6) 0.1038(5)
H4 H 0.2231 0.2030 0.0466
C9 C 0.0640(5) 0.4239(6) 0.0962(6)
O5 O 0.1479(5) 0.1212(7) 0.5165(7)
C10 C 0.1488(6) 0.4326(6) 0.1110(6)
H5 H 0.1555 0.4837 0.0781
H6 H 0.1775 0.4444 0.1729
C11 C 0.0151(6) 0.3652(8) 0.0357(8)
H7 H 0.0350 0.3288 0.0030
C12 C 0.0292(7) 0.4759(9) 0.1394(7)
H8 H 0.0587 0.5174 0.1803
C13 C -0.0497(7) 0.4674(9) 0.1229(7)
H9 H -0.0716 0.5054 0.1524
C14 C -0.0626(6) 0.3601(8) 0.0235(8)
H10 H -0.0939 0.3203 -0.0182
Mn1F Mn 0.22415(8) 0.39172(8) 0.45333(7)
Mn1E Mn 0.27585(8) -0.10828(8) 0.04667(7)
Mn1G Mn -0.22415(8) 0.39172(8) 0.04667(7)
Mn1C Mn 0.22415(8) 0.60828(8) 0.95333(7)
Mn1A Mn 0.72415(8) 0.10828(8) 0.95333(7)
O1F O 0.2132(4) 0.5242(4) 0.8362(4)
O1E O 0.2868(4) 0.0242(4) 0.6638(4)
O1C O 0.2132(4) 0.4758(4) 0.3362(4)
O2F O 0.2405(4) 0.4556(4) 0.9637(4)
O2E O 0.2595(4) -0.0444(4) 0.5363(4)
O2C O 0.2405(4) 0.5444(4) 0.4637(4)
O3F O 0.3029(4) 0.2338(4) 0.6079(3)
O4F O 0.2465(4) 0.3669(4) 0.5876(3)
C1F C 0.2750(5) 0.2982(6) 0.7262(5)
N1F N 0.3177(5) 0.1441(5) 0.9142(5)
H1F H 0.3096 0.1430 0.9628
N2F N 0.5959(4) 0.0906(5) 0.9317(4)
N2G N 0.4041(4) 0.0906(5) 0.5683(4)
N2A N 0.0959(4) 0.4094(5) 0.4317(4)
C2F C 0.2982(5) 0.2198(6) 0.8624(5)
C3F C 0.2335(5) 0.4557(6) 0.8833(5)
C4F C 0.2532(5) 0.3737(5) 0.7597(5)
H2F H 0.2384 0.4249 0.7255
C5F C 0.2535(5) 0.3725(6) 0.8448(5)
C6F C 0.2985(5) 0.2214(6) 0.7773(5)
H3F H 0.3144 0.1716 0.7546
C7F C 0.2749(5) 0.2982(5) 0.6335(4)
C8F C 0.2762(6) 0.2969(6) 0.8962(5)
H4F H 0.2769 0.2970 0.9534
C9F C 0.4360(5) 0.0761(6) 0.9038(6)
O5F O 0.3521(5) 0.3788(7) 0.4835(7)
C10F C 0.3512(6) 0.0674(6) 0.8890(6)
H5F H 0.3445 0.0163 0.9219
H6F H 0.3225 0.0556 0.8271
C11F C 0.4849(6) 0.1348(8) 0.9643(8)
H7F H 0.4650 0.1712 0.9970
C12F C 0.4708(7) 0.0241(9) 0.8606(7)
H8F H 0.4413 -0.0174 0.8197
C13F C 0.5497(7) 0.0326(9) 0.8771(7)
H9F H 0.5716 -0.0054 0.8476
C14F C 0.5626(6) 0.1399(8) 0.9765(8)
H10F H 0.5939 0.1797 1.0182
N3 N 0.3929(13) 0.328(2) 0.2398(18)
C15 C 0.3924(14) 0.333(3) 0.158(2)
H11 H 0.3792 0.3869 0.1286
C16 C 0.4136(19) 0.243(3) 0.285(4)
H12 H 0.4115 0.2473 0.3422
H13 H 0.4656 0.2267 0.2897
H14 H 0.3775 0.1982 0.2514
C17 C 0.3714(19) 0.405(3) 0.281(4)
H15 H 0.3744 0.3890 0.3388
H16 H 0.3191 0.4228 0.2460
H17 H 0.4067 0.4531 0.2846
O6 O 0.409(3) 0.269(5) 0.119(3)
O7 O -0.0149(9) 0.1047(11) 0.4156(9)
O8 O 0.0000 0.1340(4) 0.2500
loop_
_geom_bond_atom_site_label_1
_geom_bond_atom_site_label_2
_geom_bond_site_symmetry_1
_geom_bond_site_symmetry_2
Mn1 O4 1_555 1_555
O1 C3 1_555 1_555
O2 C3 1_555 1_555
O3 C7 1_555 1_555
O4 C7 1_555 1_555
C1 C4 1_555 1_555
N1 H1 1_555 1_555
N2 C13 1_555 1_555
C2 N1 1_555 1_555
C3 C5 1_555 1_555
C4 H2 1_555 1_555
C5 C4 1_555 1_555
C6 C1 1_555 1_555
H3 C6 1_555 1_555
C7 C1 1_555 1_555
C8 C2 1_555 1_555
H4 C8 1_555 1_555
C9 C10 1_555 1_555
O5 Mn1 1_555 1_555
C10 N1 1_555 1_555
H5 C10 1_555 1_555
H6 C10 1_555 1_555
C11 C9 1_555 1_555
H7 C11 1_555 1_555
C12 C9 1_555 1_555
H8 C12 1_555 1_555
C13 C12 1_555 1_555
H9 C13 1_555 1_555
C14 N2 1_555 1_555
H10 C14 1_555 1_555
N3 C15 1_555 1_555
C15 H11 1_555 1_555
C16 N3 1_555 1_555
H12 C16 1_555 1_555
H13 C16 1_555 1_555
H14 C16 1_555 1_555
C17 N3 1_555 1_555
H15 C17 1_555 1_555
H16 C17 1_555 1_555
H17 C17 1_555 1_555
O6 C15 1_555 1_555
Mn1F O3 1_555 1_555
Mn1E O1 1_555 1_555
Mn1G N2 1_555 1_555
Mn1C O1F 1_555 1_555
Mn1A N2F 1_555 1_555
O1F C3F 1_555 1_555
O1E Mn1 1_555 1_555
O1C Mn1F 1_555 1_555
O2F Mn1C 1_555 1_555
O2E Mn1 1_555 1_555
O2C Mn1F 1_555 1_555
O3F Mn1 1_555 1_555
O4F Mn1F 1_555 1_555
C1F C4F 1_555 1_555
N1F H1F 1_555 1_555
N2F C13F 1_555 1_555
N2G Mn1 1_555 1_555
N2A Mn1F 1_555 1_555
C2F N1F 1_555 1_555
C3F O2F 1_555 1_555
C4F H2F 1_555 1_555
C5F C3F 1_555 1_555
C6F C1F 1_555 1_555
H3F C6F 1_555 1_555
C7F O3F 1_555 1_555
C8F C2F 1_555 1_555
H4F C8F 1_555 1_555
C9F C10F 1_555 1_555
O5F Mn1F 1_555 1_555
C10F N1F 1_555 1_555
H5F C10F 1_555 1_555
H6F C10F 1_555 1_555
C11F C9F 1_555 1_555
H7F C11F 1_555 1_555
C12F C9F 1_555 1_555
H8F C12F 1_555 1_555
C13F C12F 1_555 1_555
H9F C13F 1_555 1_555
C14F N2F 1_555 1_555
H10F C14F 1_555 1_555
O2 Mn1E 1_555 1_555
C2 C6 1_555 1_555
C5 C8 1_555 1_555
C11 C14 1_555 1_555
O4F C7F 1_555 1_555
C1F C7F 1_555 1_555
C2F C6F 1_555 1_555
C4F C5F 1_555 1_555
C5F C8F 1_555 1_555
C11F C14F 1_555 1_555

#END
