
#######################################################################
#
#                 Cambridge Crystallographic Data Centre
#                                CCDC 
#
#######################################################################
#
# If this CIF has been generated from an entry in the Cambridge 
# Structural Database, then it will include bibliographic, chemical, 
# crystal, experimental, refinement or atomic coordinate data resulting 
# from the CCDC's data processing and validation procedures.
#
#######################################################################

data_LUFNEG
_symmetry_cell_setting           monoclinic
_symmetry_space_group_name_H-M   'P 21/n'
_symmetry_Int_Tables_number      14
_space_group_name_Hall           '-P 2yn'
loop_
_symmetry_equiv_pos_site_id
_symmetry_equiv_pos_as_xyz
1 x,y,z
2 1/2-x,1/2+y,1/2-z
3 -x,-y,-z
4 1/2+x,1/2-y,1/2+z
_cell_length_a                   14.918(5)
_cell_length_b                   15.596(5)
_cell_length_c                   16.442(5)
_cell_angle_alpha                90
_cell_angle_beta                 105.606(5)
_cell_angle_gamma                90
_cell_volume                     3684.39
loop_
_atom_site_label
_atom_site_type_symbol
_atom_site_fract_x
_atom_site_fract_y
_atom_site_fract_z
Mn1 Mn 0.74609(9) 0.06840(6) 0.03709(6)
Mn2 Mn 0.72412(9) 0.35406(6) -0.04599(6)
O1 O 0.7629(4) -0.0651(3) -0.3457(3)
O2 O 0.7379(4) 0.4890(3) 0.3464(3)
O3 O 0.7441(4) 0.4175(3) 0.4633(3)
O4 O 0.7253(4) 0.3305(3) 0.0812(3)
O5 O 0.7454(4) 0.0036(3) -0.4649(3)
O6 O 0.7224(4) 0.0952(3) -0.0932(3)
C1 C 0.7193(5) 0.1635(4) -0.2233(4)
O7 O 0.6932(4) 0.2354(3) -0.1052(3)
C2 C 0.7386(5) 0.0859(4) -0.3446(4)
C3 C 0.7111(6) 0.1658(4) -0.1333(4)
N1 N 1.0712(5) 0.1084(4) 0.4236(4)
C4 C 0.7494(5) 0.0031(4) -0.3875(4)
C5 C 0.7303(5) 0.3356(4) 0.3369(4)
C6 C 0.7266(5) 0.0860(4) -0.2627(4)
H1 H 0.7235 0.0345 -0.2351
C7 C 0.7377(5) 0.4188(4) 0.3853(4)
N2 N 0.7177(5) 0.1030(3) 0.3745(4)
H2 H 0.6844 0.0948 0.4081
O8 O 0.7550(5) 0.1922(3) 0.0898(3)
C8 C 0.7323(5) 0.3364(4) 0.2526(4)
H3 H 0.7351 0.3884 0.2256
N3 N 0.7372(5) 0.3180(3) -0.3881(4)
H4 H 0.7616 0.3180 -0.4297
N4 N 0.4024(5) 0.4296(4) -0.4380(4)
O9 O 0.8775(5) 0.3384(4) -0.0173(4)
C9 C 0.7018(6) 0.3980(4) -0.3649(4)
H5 H 0.7229 0.4042 -0.3040
H6 H 0.7285 0.4448 -0.3895
C10 C 0.7301(5) 0.2604(4) 0.2090(4)
C11 C 0.7211(6) 0.1802(4) 0.3338(4)
C12 C 0.7264(5) 0.1826(4) 0.2491(4)
H7 H 0.7273 0.1316 0.2200
C13 C 0.7407(5) 0.1640(4) -0.3850(4)
H8 H 0.7482 0.1640 -0.4393
C14 C 0.7802(6) 0.0346(4) 0.3589(4)
H9 H 0.7607 0.0190 0.2997
H10 H 0.7733 -0.0157 0.3914
C15 C 0.7201(5) 0.2403(4) -0.2659(4)
H11 H 0.7125 0.2917 -0.2398
C16 C 0.7319(5) 0.2418(4) -0.3469(4)
C17 C 0.5560(7) 0.4827(5) -0.3764(5)
H12 H 0.5932 0.5277 -0.3493
C18 C 0.7362(5) 0.2602(4) 0.1188(4)
C19 C 0.5970(6) 0.4067(4) -0.3920(4)
C20 C 0.7246(5) 0.2590(4) 0.3771(4)
H13 H 0.7229 0.2591 0.4332
C21 C 0.8813(6) 0.0595(4) 0.3814(5)
C22 C 0.9266(6) 0.0925(5) 0.4601(5)
H14 H 0.8944 0.0997 0.5008
C23 C 1.0177(7) 0.1143(5) 0.4777(5)
H15 H 1.0456 0.1350 0.5316
C24 C 0.9329(6) 0.0526(5) 0.3238(5)
H16 H 0.9055 0.0316 0.2699
C25 C 0.4419(7) 0.3564(5) -0.4533(5)
H17 H 0.4036 0.3116 -0.4791
C26 C 1.0247(7) 0.0765(5) 0.3457(5)
H18 H 1.0576 0.0709 0.3054
C27 C 0.4621(7) 0.4919(5) -0.4005(5)
H19 H 0.4373 0.5443 -0.3904
O10 O 0.5992(5) 0.0582(5) 0.0292(5)
C28 C 0.5369(7) 0.3446(5) -0.4325(5)
H20 H 0.5606 0.2931 -0.4462
Mn1A Mn 0.75391(9) 0.56840(6) 0.46291(6)
Mn1C Mn 0.24609(9) 0.43160(6) -0.46291(6)
Mn2A Mn 0.77588(9) -0.14594(6) -0.45401(6)
Mn2C Mn 1.22412(9) 0.14594(6) 0.45401(6)
O1A O 0.7371(4) 0.4349(3) -0.1543(3)
O2A O 0.7621(4) -0.0110(3) 0.1536(3)
O3A O 0.7559(4) -0.0825(3) 0.0367(3)
O5A O 0.7546(4) 0.5036(3) -0.0351(3)
N1C N 0.5712(5) 0.3916(4) -0.0764(4)
N4C N 0.9024(5) 0.0704(4) 0.0620(4)
N5 N 0.4693(6) 0.1491(4) 0.7979(6)
C29 C 0.4626(9) 0.1797(10) 0.8793(8)
H21 H 0.4564 0.2410 0.8778
H22 H 0.5178 0.1638 0.9221
H23 H 0.4093 0.1545 0.8921
O11 O 0.4805(10) 0.0166(7) 0.8469(8)
C31 C 0.4724(9) 0.2037(8) 0.7289(7)
H27 H 0.4649 0.2623 0.7439
H28 H 0.4231 0.1885 0.6802
H29 H 0.5312 0.1971 0.7163
C32 C 0.4774(10) 0.0652(7) 0.7887(9)
H30 H 0.4806 0.0435 0.7369
N6 N 0.5317(7) 0.7724(8) 0.7683(7)
C30 C 0.5195(10) 0.6839(10) 0.7438(15)
H24 H 0.5091 0.6507 0.7896
H25 H 0.5744 0.6634 0.7301
H26 H 0.4669 0.6783 0.6954
O12 O 0.5444(14) 0.818(2) 0.6404(11)
C33 C 0.5299(11) 0.7969(13) 0.8520(9)
H31 H 0.5183 0.7472 0.8821
H32 H 0.4815 0.8383 0.8487
H33 H 0.5888 0.8214 0.8811
C34 C 0.5446(15) 0.8336(15) 0.7150(14)
H34 H 0.5539 0.8898 0.7344
O13 O 0.9604(8) 0.4916(7) 0.0629(9)
loop_
_geom_bond_atom_site_label_1
_geom_bond_atom_site_label_2
_geom_bond_site_symmetry_1
_geom_bond_site_symmetry_2
Mn1 O6 1_555 1_555
Mn2 O4 1_555 1_555
O1 C4 1_555 1_555
O2 C7 1_555 1_555
O3 C7 1_555 1_555
O4 C18 1_555 1_555
O5 C4 1_555 1_555
O6 C3 1_555 1_555
C1 C3 1_555 1_555
O7 Mn2 1_555 1_555
C2 C4 1_555 1_555
C3 O7 1_555 1_555
N1 C23 1_555 1_555
C5 C7 1_555 1_555
C6 C1 1_555 1_555
H1 C6 1_555 1_555
N2 H2 1_555 1_555
O8 Mn1 1_555 1_555
C8 C5 1_555 1_555
H3 C8 1_555 1_555
N3 H4 1_555 1_555
N4 C25 1_555 1_555
O9 Mn2 1_555 1_555
C9 N3 1_555 1_555
H5 C9 1_555 1_555
H6 C9 1_555 1_555
C10 C8 1_555 1_555
C11 N2 1_555 1_555
C12 C10 1_555 1_555
H7 C12 1_555 1_555
C13 C2 1_555 1_555
H8 C13 1_555 1_555
C14 N2 1_555 1_555
H9 C14 1_555 1_555
H10 C14 1_555 1_555
C15 C1 1_555 1_555
H11 C15 1_555 1_555
C16 N3 1_555 1_555
C17 H12 1_555 1_555
C18 O8 1_555 1_555
C19 C9 1_555 1_555
C20 C5 1_555 1_555
H13 C20 1_555 1_555
C21 C14 1_555 1_555
C22 C21 1_555 1_555
H14 C22 1_555 1_555
C23 C22 1_555 1_555
H15 C23 1_555 1_555
N5 C29 1_555 1_555
C24 C21 1_555 1_555
H16 C24 1_555 1_555
C25 H17 1_555 1_555
C26 N1 1_555 1_555
H18 C26 1_555 1_555
C27 N4 1_555 1_555
H19 C27 1_555 1_555
O10 Mn1 1_555 1_555
C28 C19 1_555 1_555
H20 C28 1_555 1_555
N6 C30 1_555 1_555
C29 H21 1_555 1_555
H22 C29 1_555 1_555
H23 C29 1_555 1_555
C30 H24 1_555 1_555
H25 C30 1_555 1_555
H26 C30 1_555 1_555
O11 C32 1_555 1_555
C31 N5 1_555 1_555
H27 C31 1_555 1_555
H28 C31 1_555 1_555
H29 C31 1_555 1_555
O12 C34 1_555 1_555
C32 N5 1_555 1_555
H30 C32 1_555 1_555
C33 N6 1_555 1_555
H31 C33 1_555 1_555
H32 C33 1_555 1_555
H33 C33 1_555 1_555
C34 N6 1_555 1_555
H34 C34 1_555 1_555
Mn1A O2 1_555 1_555
Mn1C N4 1_555 1_555
Mn2A O1 1_555 1_555
Mn2C N1 1_555 1_555
O1A Mn2 1_555 1_555
O2A Mn1 1_555 1_555
O3A Mn1 1_555 1_555
O5A Mn2 1_555 1_555
N1C Mn2 1_555 1_555
N4C Mn1 1_555 1_555
O3 Mn1A 1_555 1_555
O5 Mn2A 1_555 1_555
C2 C6 1_555 1_555
C10 C18 1_555 1_555
C11 C12 1_555 1_555
C11 C20 1_555 1_555
C13 C16 1_555 1_555
C15 C16 1_555 1_555
C17 C19 1_555 1_555
C17 C27 1_555 1_555
C24 C26 1_555 1_555
C25 C28 1_555 1_555

#END
