
#######################################################################
#
#                 Cambridge Crystallographic Data Centre
#                                CCDC 
#
#######################################################################
#
# If this CIF has been generated from an entry in the Cambridge 
# Structural Database, then it will include bibliographic, chemical, 
# crystal, experimental, refinement or atomic coordinate data resulting 
# from the CCDC's data processing and validation procedures.
#
#######################################################################

data_LUFNUW
_symmetry_cell_setting           monoclinic
_symmetry_space_group_name_H-M   'C 2/c'
_symmetry_Int_Tables_number      15
_space_group_name_Hall           '-C 2yn'
loop_
_symmetry_equiv_pos_site_id
_symmetry_equiv_pos_as_xyz
1 x,y,z
2 -x,y,1/2-z
3 1/2+x,1/2+y,z
4 1/2-x,1/2+y,1/2-z
5 -x,-y,-z
6 x,-y,1/2+z
7 1/2-x,1/2-y,-z
8 1/2+x,1/2-y,1/2+z
_cell_length_a                   18.826(7)
_cell_length_b                   14.890(2)
_cell_length_c                   16.288(4)
_cell_angle_alpha                90
_cell_angle_beta                 112.937(6)
_cell_angle_gamma                90
_cell_volume                     4204.84
loop_
_atom_site_label
_atom_site_type_symbol
_atom_site_fract_x
_atom_site_fract_y
_atom_site_fract_z
Mn1 Mn 0.78215(5) 0.11058(5) 0.54989(5)
O1 O 0.7654(2) -0.0435(3) 0.5375(2)
O2 O 0.7910(2) 0.0256(2) 0.6653(2)
C1 C 0.6995(3) -0.2789(3) 0.6340(3)
O3 O 0.6935(2) -0.2627(2) 0.8890(2)
C2 C 0.6983(3) -0.2760(4) 0.7194(4)
H1 H 0.6801 -0.3250 0.7409
C3 C 0.7700(3) -0.0443(3) 0.6173(3)
C4 C 0.7481(3) -0.1266(4) 0.6544(3)
O4 O 0.7574(2) -0.1327(3) 0.9141(2)
N1 N 0.4076(3) -0.4053(3) 0.5722(3)
N2 N 0.6756(3) -0.3540(3) 0.5793(3)
H2 H 0.6788 -0.3540 0.5281
C5 C 0.7493(3) -0.1262(3) 0.7397(3)
H3 H 0.7671 -0.0758 0.7756
C6 C 0.7242(3) -0.2000(4) 0.7721(3)
C7 C 0.7240(3) -0.2026(4) 0.6024(3)
H4 H 0.7241 -0.2031 0.5453
C8 C 0.5624(3) -0.4203(4) 0.5948(3)
C9 C 0.7250(3) -0.1991(3) 0.8651(3)
C10 C 0.6459(3) -0.4310(4) 0.6072(3)
H5 H 0.6768 -0.4425 0.6696
H6 H 0.6504 -0.4828 0.5734
C11 C 0.5142(4) -0.3596(5) 0.5384(5)
H7 H 0.5328 -0.3207 0.5067
C12 C 0.5307(4) -0.4758(5) 0.6387(5)
H8 H 0.5602 -0.5205 0.6766
C13 C 0.4374(4) -0.3550(5) 0.5275(6)
H9 H 0.4054 -0.3142 0.4864
C14 C 0.4554(4) -0.4644(6) 0.6258(5)
H10 H 0.4359 -0.5018 0.6578
N4 N 0.6580(4) 0.1259(5) 0.5239(5)
C19 C 0.4937(4) 0.1646(5) 0.3173(5)
H16 H 0.5452 0.1813 0.3348
H17 H 0.4582 0.1799 0.2609
C20 C 0.4705(12) 0.1180(17) 0.3742(14)
H18 H 0.4186 0.1029 0.3538
C21 C 0.5948(10) 0.1105(13) 0.4925(13)
C22 C 0.5187(16) 0.090(3) 0.4631(16)
H19 H 0.4983 0.1160 0.5040
H20 H 0.5141 0.0251 0.4664
Mn1C Mn 0.71785(5) -0.38942(5) 0.95011(5)
Mn1E Mn 0.78215(5) -0.11058(5) 1.04989(5)
Mn1B Mn 0.28215(5) -0.38942(5) 0.54989(5)
O3C O 0.8065(2) 0.2373(2) 0.6110(2)
O4E O 0.7574(2) 0.1327(3) 0.4141(2)
N1B N 0.9076(3) 0.0947(3) 0.5722(3)
C15 C 0.6282(11) 0.9232(16) 0.3391(14)
H11 H 0.6791 0.9341 0.3846
H12 H 0.5947 0.9728 0.3388
C16 C 0.5981(10) 0.841(2) 0.3543(12)
C17 C 0.6316(9) 0.9125(12) 0.2534(15)
H13 H 0.6535 0.9593 0.2336
C18 C 0.6061(10) 0.841(2) 0.1980(11)
H14 H 0.5837 0.7921 0.2148
H15 H 0.6110 0.8402 0.1434
N3 N 0.571(2) 0.773(3) 0.362(2)
loop_
_geom_bond_atom_site_label_1
_geom_bond_atom_site_label_2
_geom_bond_site_symmetry_1
_geom_bond_site_symmetry_2
Mn1 O1 1_555 1_555
O1 C3 1_555 1_555
O2 Mn1 1_555 1_555
C1 C2 1_555 1_555
O3 C9 1_555 1_555
C2 H1 1_555 1_555
C3 O2 1_555 1_555
C4 C3 1_555 1_555
O4 C9 1_555 1_555
N1 C13 1_555 1_555
N2 C1 1_555 1_555
H2 N2 1_555 1_555
C5 C4 1_555 1_555
H3 C5 1_555 1_555
C6 C2 1_555 1_555
C7 C1 1_555 1_555
H4 C7 1_555 1_555
C8 C10 1_555 1_555
C9 C6 1_555 1_555
C10 N2 1_555 1_555
H5 C10 1_555 1_555
H6 C10 1_555 1_555
C11 C8 1_555 1_555
H7 C11 1_555 1_555
C12 C8 1_555 1_555
H8 C12 1_555 1_555
C13 C11 1_555 1_555
H9 C13 1_555 1_555
C14 N1 1_555 1_555
H10 C14 1_555 1_555
C15 H11 1_555 1_555
H12 C15 1_555 1_555
C16 C15 1_555 1_555
C17 C15 1_555 1_555
H13 C17 1_555 1_555
C18 C17 1_555 1_555
H14 C18 1_555 1_555
H15 C18 1_555 1_555
N3 C16 1_555 1_555
N4 Mn1 1_555 1_555
C19 H16 1_555 1_555
H17 C19 1_555 1_555
C20 C19 1_555 1_555
H18 C20 1_555 1_555
C21 N4 1_555 1_555
C22 C20 1_555 1_555
H19 C22 1_555 1_555
H20 C22 1_555 1_555
Mn1C O3 1_555 1_555
Mn1E O4 1_555 1_555
Mn1B N1 1_555 1_555
O3C Mn1 1_555 1_555
O4E Mn1 1_555 1_555
N1B Mn1 1_555 1_555
C4 C7 1_555 1_555
C5 C6 1_555 1_555
C12 C14 1_555 1_555
C21 C22 1_555 1_555

#END
