
#######################################################################
#
#                 Cambridge Crystallographic Data Centre
#                                CCDC 
#
#######################################################################
#
# If this CIF has been generated from an entry in the Cambridge 
# Structural Database, then it will include bibliographic, chemical, 
# crystal, experimental, refinement or atomic coordinate data resulting 
# from the CCDC's data processing and validation procedures.
#
#######################################################################

data_LUFPAE
_symmetry_cell_setting           monoclinic
_symmetry_space_group_name_H-M   'C 2/c'
_symmetry_Int_Tables_number      15
_space_group_name_Hall           '-C 2yn'
loop_
_symmetry_equiv_pos_site_id
_symmetry_equiv_pos_as_xyz
1 x,y,z
2 -x,y,1/2-z
3 1/2+x,1/2+y,z
4 1/2-x,1/2+y,1/2-z
5 -x,-y,-z
6 x,-y,1/2+z
7 1/2-x,1/2-y,-z
8 1/2+x,1/2-y,1/2+z
_cell_length_a                   18.874(6)
_cell_length_b                   14.891(5)
_cell_length_c                   16.299(4)
_cell_angle_alpha                90
_cell_angle_beta                 114.015(2)
_cell_angle_gamma                90
_cell_volume                     4184.35
loop_
_atom_site_label
_atom_site_type_symbol
_atom_site_fract_x
_atom_site_fract_y
_atom_site_fract_z
Mn1 Mn 0.28026(6) 0.10870(6) 0.54824(6)
O1 O 0.7866(3) 0.5247(3) 0.6630(3)
O2 O 0.7644(3) 0.4537(3) 0.5368(3)
O3 O 0.7552(3) 0.3676(3) 0.9112(3)
O4 O 0.6980(3) 0.2345(3) 0.8898(3)
C1 C 0.6969(4) 0.2229(4) 0.7172(4)
H1 H 0.6781 0.1745 0.7383
N1 N 0.6730(4) 0.1445(4) 0.5772(4)
H2 H 0.6761 0.1440 0.5260
C2 C 0.7465(4) 0.3709(4) 0.6522(4)
C3 C 0.7686(4) 0.4539(4) 0.6156(4)
C4 C 0.7497(4) 0.3727(4) 0.7392(4)
H3 H 0.7682 0.4231 0.7753
C5 C 0.6971(4) 0.2197(4) 0.6319(4)
N2 N 0.4060(4) 0.0943(3) 0.5728(4)
C6 C 0.7219(4) 0.2950(5) 0.6008(4)
H4 H 0.7218 0.2940 0.5437
C7 C 0.7249(4) 0.2984(4) 0.7706(4)
C8 C 0.7262(4) 0.2994(4) 0.8646(4)
C9 C 0.6428(4) 0.0672(4) 0.6053(5)
H5 H 0.6750 0.0552 0.6680
H6 H 0.6460 0.0155 0.5708
C10 C 0.5600(4) 0.0781(4) 0.5942(4)
C11 C 0.5110(5) 0.1407(5) 0.5390(6)
H7 H 0.5286 0.1801 0.5071
C12 C 0.5298(5) 0.0217(5) 0.6388(5)
H8 H 0.5606 -0.0226 0.6768
N3 N 0.1540(4) 0.1185(4) 0.5137(4)
C13 C 0.4367(5) 0.1457(5) 0.5307(6)
H9 H 0.4050 0.1889 0.4919
C14 C 0.4529(5) 0.0319(6) 0.6263(5)
H10 H 0.4332 -0.0068 0.6567
C19 C 0.0135(3) 0.1024(3) 0.4901(3)
H16 H 0.0002 0.0866 0.5371
C20 C 0.0901(4) 0.1129(4) 0.5024(4)
C21 C -0.0438(4) 0.1173(4) 0.4015(4)
H17 H -0.0954 0.1059 0.3902
C22 C -0.026(4) 0.149(4) 0.3281(14)
H18 H -0.0727 0.1544 0.2746
H19 H 0.0087 0.1077 0.3178
H20 H -0.0011 0.2071 0.3432
Mn1B Mn 0.78026(6) 0.60870(6) 0.54824(6)
Mn1G Mn 0.78026(6) 0.39130(6) 1.04824(6)
Mn1A Mn 0.71974(6) 0.10870(6) 0.95176(6)
O1B O 0.2866(3) 0.0247(3) 0.6630(3)
O2B O 0.2644(3) -0.0463(3) 0.5368(3)
O3G O 0.2552(3) 0.1324(3) 0.4112(3)
O4A O 0.3020(3) 0.2345(3) 0.6102(3)
C15 C 0.1438(5) 0.0554(5) 0.8098(5)
H11 H 0.1717 0.0034 0.8343
C16 C 0.1451(5) 0.0907(5) 0.7291(5)
H12 H 0.1729 0.0612 0.7014
C17 C 0.1005(5) 0.0979(5) 0.8545(5)
H13 H 0.1073 0.0640 0.9073
H14 H 0.0469 0.0996 0.8147
H15 H 0.1197 0.1577 0.8713
C18 C 0.1053(4) 0.1684(4) 0.6919(4)
N4 N 0.0728(5) 0.2333(5) 0.6641(5)
loop_
_geom_bond_atom_site_label_1
_geom_bond_atom_site_label_2
_geom_bond_site_symmetry_1
_geom_bond_site_symmetry_2
Mn1 N2 1_555 1_555
O1 C3 1_555 1_555
O2 C3 1_555 1_555
O3 C8 1_555 1_555
O4 C8 1_555 1_555
C1 H1 1_555 1_555
N1 H2 1_555 1_555
C2 C3 1_555 1_555
C4 C2 1_555 1_555
H3 C4 1_555 1_555
C5 C1 1_555 1_555
N2 C13 1_555 1_555
C6 C2 1_555 1_555
H4 C6 1_555 1_555
C7 C1 1_555 1_555
C8 C7 1_555 1_555
C9 N1 1_555 1_555
H5 C9 1_555 1_555
H6 C9 1_555 1_555
C10 C9 1_555 1_555
C11 C10 1_555 1_555
H7 C11 1_555 1_555
C12 C10 1_555 1_555
H8 C12 1_555 1_555
N3 Mn1 1_555 1_555
C13 C11 1_555 1_555
H9 C13 1_555 1_555
C14 N2 1_555 1_555
H10 C14 1_555 1_555
C15 H11 1_555 1_555
C16 C15 1_555 1_555
H12 C16 1_555 1_555
C17 C15 1_555 1_555
H13 C17 1_555 1_555
H14 C17 1_555 1_555
H15 C17 1_555 1_555
C18 C16 1_555 1_555
N4 C18 1_555 1_555
C19 H16 1_555 1_555
C20 N3 1_555 1_555
C21 C19 1_555 1_555
H17 C21 1_555 1_555
C22 C21 1_555 1_555
H18 C22 1_555 1_555
H19 C22 1_555 1_555
H20 C22 1_555 1_555
Mn1B O1 1_555 1_555
Mn1G O3 1_555 1_555
Mn1A O4 1_555 1_555
O1B Mn1 1_555 1_555
O2B Mn1 1_555 1_555
O3G Mn1 1_555 1_555
O4A Mn1 1_555 1_555
O2 Mn1B 1_555 1_555
N1 C5 1_555 1_555
C4 C7 1_555 1_555
C5 C6 1_555 1_555
C12 C14 1_555 1_555
C19 C20 1_555 1_555

#END
