
#######################################################################
#
#                 Cambridge Crystallographic Data Centre
#                                CCDC 
#
#######################################################################
#
# If this CIF has been generated from an entry in the Cambridge 
# Structural Database, then it will include bibliographic, chemical, 
# crystal, experimental, refinement or atomic coordinate data resulting 
# from the CCDC's data processing and validation procedures.
#
#######################################################################

data_LUFPAD
_symmetry_cell_setting           triclinic
_symmetry_space_group_name_H-M   'P 1'
_symmetry_Int_Tables_number      1
_space_group_name_Hall           'P 1'
loop_
_symmetry_equiv_pos_site_id
_symmetry_equiv_pos_as_xyz
1 x,y,z
_cell_length_a                   9.0917(8)
_cell_length_b                   12.6682(12)
_cell_length_c                   14.9606(14)
_cell_angle_alpha                99.107(11)
_cell_angle_beta                 93.897(11)
_cell_angle_gamma                109.239(11)
_cell_volume                     1592.97
loop_
_atom_site_label
_atom_site_type_symbol
_atom_site_fract_x
_atom_site_fract_y
_atom_site_fract_z
Fe1 Fe -0.6902(3) -0.93496(18) -1.11968(14)
Fe2 Fe -0.1923(3) -0.93373(19) -0.61721(16)
Ni1 Ni -0.26641(9) -1.00073(7) -0.93541(6)
Ni2 Ni -0.6918(2) -0.93692(15) -0.61970(13)
Ni3 Ni -1.10632(9) -0.85600(7) -1.29881(5)
N1 N -0.0768(9) -0.8736(6) -0.9716(5)
H1 H 0.0154 -0.8865 -0.9584
H2 H -0.0917 -0.8741 -1.0331
N2 N -0.3212(10) -0.8588(7) -0.8719(6)
H3 H -0.4275 -0.8732 -0.8822
H4 H -0.2912 -0.8439 -0.8099
N3 N -0.4436(11) -1.1255(7) -0.8873(6)
H5 H -0.4450 -1.1020 -0.8260
H6 H -0.5401 -1.1356 -0.9177
N4 N -0.2114(10) -1.1437(7) -0.9916(6)
H7 H -0.1878 -1.1395 -1.0501
H8 H -0.1256 -1.1466 -0.9571
N5 N -0.7330(10) -0.8273(6) -0.7004(6)
H9 H -0.7408 -0.8586 -0.7611
H10 H -0.8260 -0.8164 -0.6900
N6 N -0.5291(10) -0.7856(7) -0.5454(6)
H11 H -0.5360 -0.7827 -0.4841
H12 H -0.4291 -0.7825 -0.5553
N7 N -0.8610(10) -1.0882(6) -0.6938(6)
H13 H -0.9537 -1.0762 -0.7077
H14 H -0.8268 -1.1108 -0.7476
N8 N -0.6468(9) -1.0510(6) -0.5415(5)
H15 H -0.5403 -1.0357 -0.5307
H16 H -0.6841 -1.0421 -0.4862
N9 N -0.9259(10) -0.7423(7) -1.3513(6)
H17 H -0.8348 -0.7579 -1.3412
H18 H -0.9513 -0.7518 -1.4133
N10 N -1.1411(11) -0.7077(7) -1.2407(6)
H19 H -1.2468 -0.7190 -1.2450
H20 H -1.1003 -0.6870 -1.1800
N11 N -1.2881(10) -0.9745(7) -1.2531(6)
H21 H -1.2945 -0.9483 -1.1930
H22 H -1.3819 -0.9852 -1.2870
N12 N -1.0685(10) -1.0033(7) -1.3607(6)
H23 H -1.0563 -1.0008 -1.4210
H24 H -0.9778 -1.0068 -1.3321
N13 N -0.4241(10) -1.0114(7) -1.0477(6)
N14 N -0.1149(10) -0.9875(7) -0.8129(6)
N15 N -1.2645(11) -0.8762(8) -1.4227(7)
N16 N -0.5230(10) -0.9616(7) -0.7059(6)
N17 N -0.6856(11) -1.0144(8) -1.3269(6)
N18 N -0.9479(11) -1.1636(9) -1.1109(6)
N19 N -0.9502(10) -0.8476(7) -1.1852(5)
N20 N -0.7047(12) -0.8636(9) -0.9139(7)
N21 N -0.4313(11) -0.7131(8) -1.1438(6)
N22 N -0.3126(14) -1.1901(9) -0.6106(8)
N23 N -0.0646(15) -0.6769(9) -0.6292(8)
N24 N 0.1355(10) -0.9136(7) -0.5354(6)
C1 C -0.2334(8) -0.7600(5) -0.9126(5)
H25 H -0.2850 -0.7721 -0.9764
C2 C -0.2338(14) -0.6468(9) -0.8618(8)
H26 H -0.3433 -0.6474 -0.8650
H27 H -0.1936 -0.6370 -0.7968
C3 C -0.1353(10) -0.5476(8) -0.8999(7)
H28 H -0.1329 -0.4755 -0.8617
H29 H -0.1827 -0.5517 -0.9625
C4 C 0.0331(9) -0.5484(5) -0.9021(5)
H30 H 0.0844 -0.5354 -0.8389
H31 H 0.0941 -0.4854 -0.9310
C5 C 0.0345(12) -0.6627(8) -0.9558(6)
H32 H -0.0039 -0.6712 -1.0209
H33 H 0.1433 -0.6634 -0.9515
C6 C -0.0687(7) -0.7606(5) -0.9177(5)
H34 H -0.0203 -0.7541 -0.8541
C7 C -0.4133(9) -1.2331(6) -0.9022(5)
H35 H -0.3283 -1.2261 -0.8532
C8 C -0.5524(13) -1.3343(9) -0.8945(9)
H36 H -0.6431 -1.3386 -0.9372
H37 H -0.5810 -1.3245 -0.8318
C9 C -0.5183(11) -1.4471(8) -0.9163(7)
H38 H -0.4381 -1.4478 -0.8684
H39 H -0.6154 -1.5123 -0.9164
C10 C -0.4600(10) -1.4593(5) -1.0084(5)
H40 H -0.5447 -1.4667 -1.0567
H41 H -0.4334 -1.5296 -1.0196
C11 C -0.3162(15) -1.3577(8) -1.0136(7)
H42 H -0.2846 -1.3670 -1.0756
H43 H -0.2281 -1.3550 -0.9696
C12 C -0.3476(9) -1.2452(6) -0.9924(4)
H44 H -0.4299 -1.2476 -1.0414
C13 C -0.6013(8) -0.7165(5) -0.6774(4)
H45 H -0.5083 -0.7269 -0.7046
C14 C -0.6374(13) -0.6197(8) -0.7148(7)
H46 H -0.6555 -0.6387 -0.7824
H47 H -0.7342 -0.6119 -0.6928
C15 C -0.5017(11) -0.5078(6) -0.6838(5)
H48 H -0.4091 -0.5125 -0.7132
H49 H -0.5309 -0.4458 -0.7039
C16 C -0.4581(10) -0.4793(6) -0.5807(5)
H50 H -0.3635 -0.4097 -0.5643
H51 H -0.5449 -0.4631 -0.5517
C17 C -0.4259(12) -0.5753(8) -0.5442(7)
H52 H -0.3292 -0.5837 -0.5660
H53 H -0.4076 -0.5559 -0.4767
C18 C -0.5602(8) -0.6869(5) -0.5739(4)
H54 H -0.6543 -0.6790 -0.5466
C19 C -0.8866(8) -1.1772(6) -0.6380(5)
H55 H -0.9466 -1.1578 -0.5881
C20 C -0.9822(13) -1.2972(8) -0.6892(8)
H56 H -1.0887 -1.3001 -0.7116
H57 H -0.9313 -1.3166 -0.7428
C21 C -0.9954(10) -1.3843(7) -0.6280(7)
H58 H -1.0553 -1.3693 -0.5776
H59 H -1.0537 -1.4617 -0.6637
C22 C -0.8344(11) -1.3790(6) -0.5888(6)
H60 H -0.7767 -1.3988 -0.6388
H61 H -0.8457 -1.4348 -0.5480
C23 C -0.7422(14) -1.2589(9) -0.5351(7)
H62 H -0.7965 -1.2421 -0.4823
H63 H -0.6364 -1.2557 -0.5110
C24 C -0.7258(7) -1.1696(5) -0.5925(4)
H64 H -0.6619 -1.1837 -0.6419
C25 C -0.8991(8) -0.6224(6) -1.3080(5)
H65 H -0.8369 -0.6077 -1.2468
C26 C -0.8106(15) -0.5325(9) -1.3577(8)
H66 H -0.7043 -0.5363 -1.3624
H67 H -0.8653 -0.5480 -1.4205
C27 C -0.7958(11) -0.4158(9) -1.3117(9)
H68 H -0.7411 -0.3600 -1.3486
H69 H -0.7322 -0.3968 -1.2512
C28 C -0.9582(10) -0.4077(6) -1.2998(7)
H70 H -0.9459 -0.3305 -1.2669
H71 H -1.0187 -0.4205 -1.3605
C29 C -1.0480(14) -0.4959(9) -1.2463(7)
H72 H -0.9937 -0.4780 -1.1832
H73 H -1.1550 -0.4929 -1.2429
C30 C -1.0593(8) -0.6145(5) -1.2914(5)
H74 H -1.1228 -0.6320 -1.3526
C31 C -1.2027(9) -1.1059(6) -1.3549(4)
H75 H -1.2895 -1.1128 -1.4027
C32 C -1.1689(13) -1.2143(9) -1.3722(8)
H76 H -1.0726 -1.2054 -1.3322
H77 H -1.1485 -1.2296 -1.4363
C33 C -1.3038(10) -1.3164(7) -1.3551(6)
H78 H -1.3943 -1.3349 -1.4027
H79 H -1.2698 -1.3835 -1.3595
C34 C -1.3545(8) -1.2923(5) -1.2621(4)
H80 H -1.4471 -1.3574 -1.2553
H81 H -1.2686 -1.2839 -1.2142
C35 C -1.3953(12) -1.1855(8) -1.2496(5)
H82 H -1.4253 -1.1710 -1.1876
H83 H -1.4868 -1.1964 -1.2944
C36 C -1.2591(8) -1.0833(5) -1.2619(4)
H84 H -1.1704 -1.0726 -1.2140
C37 C -0.1351(12) -0.9661(9) -0.7362(8)
C38 C -0.5272(12) -0.9879(8) -1.0796(7)
C39 C -1.2441(12) -0.8967(8) -1.4966(7)
C40 C -0.3994(14) -0.9506(8) -0.6763(6)
C41 C -0.6854(12) -0.9878(9) -1.2487(7)
C42 C -0.8495(13) -1.0763(11) -1.1166(7)
C43 C -0.8509(12) -0.8767(8) -1.1576(6)
C44 C -0.6942(13) -0.8842(9) -0.9910(8)
C45 C -0.5281(12) -0.7924(9) -1.1304(6)
C46 C -0.2682(15) -1.0920(11) -0.6134(8)
C47 C -0.1146(13) -0.7714(10) -0.6243(7)
C48 C 0.0092(12) -0.9192(7) -0.5624(6)
C39_2 C -0.2441(12) -0.8967(8) -0.4966(7)
N24_2 N -0.8645(10) -0.9136(7) -0.5354(6)
Ni2_2 Ni 0.3082(2) -0.93692(15) -0.61970(13)
Fe2_2 Fe -1.1923(3) -0.93373(19) -1.61721(16)
O1 O -0.8101(10) -1.1267(7) -0.9073(6)
O2 O -0.5935(9) -0.7621(7) -0.3420(5)
loop_
_geom_bond_atom_site_label_1
_geom_bond_atom_site_label_2
_geom_bond_site_symmetry_1
_geom_bond_site_symmetry_2
Fe1 C38 1_555 1_555
Fe2 C37 1_555 1_555
Ni1 N1 1_555 1_555
Ni2 N5 1_555 1_555
Ni3 N9 1_555 1_555
N1 H1 1_555 1_555
H2 N1 1_555 1_555
N2 Ni1 1_555 1_555
H3 N2 1_555 1_555
H4 N2 1_555 1_555
N3 Ni1 1_555 1_555
H5 N3 1_555 1_555
H6 N3 1_555 1_555
N4 Ni1 1_555 1_555
H7 N4 1_555 1_555
H8 N4 1_555 1_555
N5 H9 1_555 1_555
H10 N5 1_555 1_555
N6 Ni2 1_555 1_555
H11 N6 1_555 1_555
H12 N6 1_555 1_555
N7 Ni2 1_555 1_555
H13 N7 1_555 1_555
H14 N7 1_555 1_555
N8 Ni2 1_555 1_555
H15 N8 1_555 1_555
H16 N8 1_555 1_555
N9 H17 1_555 1_555
H18 N9 1_555 1_555
N10 Ni3 1_555 1_555
H19 N10 1_555 1_555
H20 N10 1_555 1_555
N11 Ni3 1_555 1_555
H21 N11 1_555 1_555
H22 N11 1_555 1_555
N12 Ni3 1_555 1_555
H23 N12 1_555 1_555
H24 N12 1_555 1_555
N13 Ni1 1_555 1_555
N14 Ni1 1_555 1_555
N15 Ni3 1_555 1_555
N16 Ni2 1_555 1_555
N17 C41 1_555 1_555
N18 C42 1_555 1_555
N19 Ni3 1_555 1_555
N20 C44 1_555 1_555
N21 C45 1_555 1_555
N22 C46 1_555 1_555
N23 C47 1_555 1_555
N24 C48 1_555 1_555
C1 N2 1_555 1_555
H25 C1 1_555 1_555
C2 C1 1_555 1_555
H26 C2 1_555 1_555
H27 C2 1_555 1_555
C3 C2 1_555 1_555
H28 C3 1_555 1_555
H29 C3 1_555 1_555
C4 C3 1_555 1_555
H30 C4 1_555 1_555
H31 C4 1_555 1_555
C5 C4 1_555 1_555
H32 C5 1_555 1_555
H33 C5 1_555 1_555
C6 N1 1_555 1_555
H34 C6 1_555 1_555
C7 N3 1_555 1_555
H35 C7 1_555 1_555
C8 C7 1_555 1_555
H36 C8 1_555 1_555
H37 C8 1_555 1_555
C9 C8 1_555 1_555
H38 C9 1_555 1_555
H39 C9 1_555 1_555
C10 C9 1_555 1_555
H40 C10 1_555 1_555
H41 C10 1_555 1_555
C11 C10 1_555 1_555
H42 C11 1_555 1_555
H43 C11 1_555 1_555
C12 N4 1_555 1_555
H44 C12 1_555 1_555
C13 N5 1_555 1_555
H45 C13 1_555 1_555
C14 C13 1_555 1_555
H46 C14 1_555 1_555
H47 C14 1_555 1_555
C15 C14 1_555 1_555
H48 C15 1_555 1_555
H49 C15 1_555 1_555
C16 C15 1_555 1_555
H50 C16 1_555 1_555
H51 C16 1_555 1_555
C17 C16 1_555 1_555
H52 C17 1_555 1_555
H53 C17 1_555 1_555
C18 N6 1_555 1_555
H54 C18 1_555 1_555
C19 N7 1_555 1_555
H55 C19 1_555 1_555
C20 C19 1_555 1_555
H56 C20 1_555 1_555
H57 C20 1_555 1_555
C21 C20 1_555 1_555
H58 C21 1_555 1_555
H59 C21 1_555 1_555
C22 C21 1_555 1_555
H60 C22 1_555 1_555
H61 C22 1_555 1_555
C23 C22 1_555 1_555
H62 C23 1_555 1_555
H63 C23 1_555 1_555
C24 N8 1_555 1_555
H64 C24 1_555 1_555
C25 N9 1_555 1_555
H65 C25 1_555 1_555
C26 C25 1_555 1_555
H66 C26 1_555 1_555
H67 C26 1_555 1_555
C27 C26 1_555 1_555
H68 C27 1_555 1_555
H69 C27 1_555 1_555
C28 C27 1_555 1_555
H70 C28 1_555 1_555
H71 C28 1_555 1_555
C29 C28 1_555 1_555
H72 C29 1_555 1_555
H73 C29 1_555 1_555
C30 N10 1_555 1_555
H74 C30 1_555 1_555
C31 N12 1_555 1_555
H75 C31 1_555 1_555
C32 C31 1_555 1_555
H76 C32 1_555 1_555
H77 C32 1_555 1_555
C33 C32 1_555 1_555
H78 C33 1_555 1_555
H79 C33 1_555 1_555
C34 C33 1_555 1_555
H80 C34 1_555 1_555
H81 C34 1_555 1_555
C35 C34 1_555 1_555
H82 C35 1_555 1_555
H83 C35 1_555 1_555
C36 N11 1_555 1_555
H84 C36 1_555 1_555
C37 N14 1_555 1_555
C38 N13 1_555 1_555
C39 N15 1_555 1_555
C40 Fe2 1_555 1_555
C41 Fe1 1_555 1_555
C42 Fe1 1_555 1_555
C43 Fe1 1_555 1_555
C44 Fe1 1_555 1_555
C45 Fe1 1_555 1_555
C46 Fe2 1_555 1_555
C47 Fe2 1_555 1_555
C48 Fe2 1_555 1_555
C39_2 Fe2 1_555 1_555
N24_2 Ni2 1_555 1_555
Ni2_2 N24 1_555 1_555
Fe2_2 C39 1_555 1_555
N16 C40 1_555 1_555
N19 C43 1_555 1_555
C1 C6 1_555 1_555
C5 C6 1_555 1_555
C7 C12 1_555 1_555
C11 C12 1_555 1_555
C13 C18 1_555 1_555
C17 C18 1_555 1_555
C19 C24 1_555 1_555
C23 C24 1_555 1_555
C25 C30 1_555 1_555
C29 C30 1_555 1_555
C31 C36 1_555 1_555
C35 C36 1_555 1_555

#END
