
#######################################################################
#
#                 Cambridge Crystallographic Data Centre
#                                CCDC 
#
#######################################################################
#
# If this CIF has been generated from an entry in the Cambridge 
# Structural Database, then it will include bibliographic, chemical, 
# crystal, experimental, refinement or atomic coordinate data resulting 
# from the CCDC's data processing and validation procedures.
#
#######################################################################

data_LUFPOT
_symmetry_cell_setting           monoclinic
_symmetry_space_group_name_H-M   'P 21/c'
_symmetry_Int_Tables_number      14
_space_group_name_Hall           '-P 2ybc'
loop_
_symmetry_equiv_pos_site_id
_symmetry_equiv_pos_as_xyz
1 x,y,z
2 -x,1/2+y,1/2-z
3 -x,-y,-z
4 x,1/2-y,1/2+z
_cell_length_a                   11.3642(13)
_cell_length_b                   10.8066(12)
_cell_length_c                   17.0884(19)
_cell_angle_alpha                90
_cell_angle_beta                 99.153(2)
_cell_angle_gamma                90
_cell_volume                     2071.88
loop_
_atom_site_label
_atom_site_type_symbol
_atom_site_fract_x
_atom_site_fract_y
_atom_site_fract_z
Cd1 Cd 0.14684(2) 0.36821(3) 0.993403(18)
O1 O 0.3046(3) 0.2675(3) 0.93891(19)
O2 O 0.2338(3) 0.1694(3) 1.03416(19)
O3 O 1.0269(3) 0.3945(3) 1.0904(2)
O4 O 0.8365(3) 0.4551(3) 1.0735(2)
N1 N -0.0104(3) 0.2690(3) 0.9189(2)
N2 N -0.7041(3) 0.0487(3) 0.5877(2)
C1 C 0.3058(3) 0.1799(4) 0.9866(3)
C2 C 0.4044(4) 0.0833(4) 0.9895(2)
C3 C 0.5155(4) 0.1171(4) 1.0296(3)
H1 H 0.5253 0.1969 1.0500
C4 C 0.6140(4) 0.0370(4) 1.0412(2)
C5 C 0.7309(3) 0.0827(4) 1.0847(2)
C6 C 0.7674(4) 0.2044(4) 1.0735(3)
H2 H 0.7163 0.2576 1.0416
C7 C 0.8773(4) 0.2470(4) 1.1087(2)
C8 C 0.9562(4) 0.1674(5) 1.1557(3)
H3 H 1.0328 0.1933 1.1766
C9 C 0.9175(4) 0.0479(4) 1.1707(3)
H4 H 0.9662 -0.0034 1.2056
C10 C 0.8087(4) 0.0059(4) 1.1344(3)
H5 H 0.7862 -0.0751 1.1430
C11 C 0.9187(4) 0.3751(4) 1.0894(3)
C12 C -0.0833(5) 0.3197(5) 0.8582(3)
H6 H -0.0656 0.3986 0.8417
C13 C -0.1822(5) 0.2619(4) 0.8193(3)
H7 H -0.2257 0.2982 0.7744
C14 C -0.2181(4) 0.1492(4) 0.8462(3)
C15 C -0.1411(4) 0.0951(4) 0.9083(3)
H8 H -0.1580 0.0170 0.9265
C16 C -0.0413(4) 0.1560(4) 0.9426(3)
H9 H 0.0080 0.1180 0.9844
C17 C -0.3312(4) 0.0838(5) 0.8102(3)
H10 H -0.3773 0.1384 0.7719
H11 H -0.3784 0.0670 0.8516
C18 C -0.3090(4) -0.0378(5) 0.7691(3)
H12 H -0.2807 -0.0196 0.7197
H13 H -0.2470 -0.0837 0.8025
C19 C -0.4209(5) -0.1182(4) 0.7517(3)
H14 H -0.4000 -0.1965 0.7297
H15 H -0.4494 -0.1357 0.8011
C20 C -0.5200(4) -0.0591(4) 0.6949(3)
C21 C -0.6054(4) 0.0152(5) 0.7201(3)
H16 H -0.6025 0.0309 0.7739
C22 C -0.6947(4) 0.0660(5) 0.6660(3)
H17 H -0.7515 0.1149 0.6848
C23 C -0.6193(4) -0.0207(5) 0.5632(3)
H18 H -0.6227 -0.0329 0.5090
C24 C -0.5279(4) -0.0746(5) 0.6136(3)
H19 H -0.4712 -0.1216 0.5934
O1B O 0.6954(3) -0.2675(3) 1.06109(19)
O2B O 0.7662(3) -0.1694(3) 0.96584(19)
O3B O -0.0269(3) -0.3945(3) 0.9096(2)
O4B O 0.1635(3) -0.4551(3) 0.9265(2)
C1B C 0.6942(3) -0.1799(4) 1.0134(3)
C2B C 0.5956(4) -0.0833(4) 1.0105(2)
C3B C 0.4845(4) -0.1171(4) 0.9704(3)
H1B H 0.4747 -0.1969 0.9500
C4B C 0.3860(4) -0.0370(4) 0.9588(2)
C5B C 0.2691(3) -0.0827(4) 0.9153(2)
C6B C 0.2326(4) -0.2044(4) 0.9265(3)
H2B H 0.2837 -0.2576 0.9584
C7B C 0.1227(4) -0.2470(4) 0.8913(2)
C8B C 0.0438(4) -0.1674(5) 0.8443(3)
H3B H -0.0328 -0.1933 0.8234
C9B C 0.0825(4) -0.0479(4) 0.8293(3)
H4B H 0.0338 0.0034 0.7944
C10B C 0.1913(4) -0.0059(4) 0.8656(3)
H5B H 0.2138 0.0751 0.8570
C11B C 0.0813(4) -0.3751(4) 0.9106(3)
Cd1B Cd -0.14684(2) -0.36821(3) 1.006597(18)
N1B N 0.0104(3) -0.2690(3) 1.0811(2)
N2B N 0.7041(3) -0.0487(3) 1.4123(2)
C12B C 0.0833(5) -0.3197(5) 1.1418(3)
H6B H 0.0656 -0.3986 1.1583
C13B C 0.1822(5) -0.2619(4) 1.1807(3)
H7B H 0.2257 -0.2982 1.2256
C14B C 0.2181(4) -0.1492(4) 1.1538(3)
C15B C 0.1411(4) -0.0951(4) 1.0917(3)
H8B H 0.1580 -0.0170 1.0735
C16B C 0.0413(4) -0.1560(4) 1.0574(3)
H9B H -0.0080 -0.1180 1.0156
C17B C 0.3312(4) -0.0838(5) 1.1898(3)
H10B H 0.3773 -0.1384 1.2281
H11B H 0.3784 -0.0670 1.1484
C18B C 0.3090(4) 0.0378(5) 1.2309(3)
H12B H 0.2807 0.0196 1.2803
H13B H 0.2470 0.0837 1.1975
C19B C 0.4209(5) 0.1182(4) 1.2483(3)
H14B H 0.4000 0.1965 1.2703
H15B H 0.4494 0.1357 1.1989
C20B C 0.5200(4) 0.0591(4) 1.3051(3)
C21B C 0.6054(4) -0.0152(5) 1.2799(3)
H16B H 0.6025 -0.0309 1.2261
C22B C 0.6947(4) -0.0660(5) 1.3340(3)
H17B H 0.7515 -0.1149 1.3152
C23B C 0.6193(4) 0.0207(5) 1.4368(3)
H18B H 0.6227 0.0329 1.4910
C24B C 0.5279(4) 0.0746(5) 1.3864(3)
H19B H 0.4712 0.1216 1.4066
Cd1_2 Cd 0.14684(2) -0.63179(3) 0.993403(18)
Cd1_3 Cd 1.14684(2) 0.36821(3) 0.993403(18)
Cd1A Cd 0.85316(2) -0.13179(3) 1.506597(18)
Cd1B_2 Cd 0.85316(2) -0.36821(3) 1.006597(18)
Cd1B_3 Cd 0.85316(2) 0.63179(3) 1.006597(18)
Cd1C Cd -0.85316(2) 0.13179(3) 0.493403(18)
O1B_2 O -0.3046(3) -0.2675(3) 1.06109(19)
O2B_2 O -0.2338(3) -0.1694(3) 0.96584(19)
O3_2 O 0.0269(3) 0.3945(3) 1.0904(2)
O4_2 O -0.1635(3) -0.5449(3) 1.0735(2)
O4B_2 O 0.1635(3) 0.5449(3) 0.9265(2)
N2A N -0.2959(3) -0.4513(3) 0.9123(2)
N2C N 0.2959(3) 0.4513(3) 1.0877(2)
loop_
_geom_bond_atom_site_label_1
_geom_bond_atom_site_label_2
_geom_bond_site_symmetry_1
_geom_bond_site_symmetry_2
Cd1 O1 1_555 1_555
O1 C1 1_555 1_555
O2 Cd1 1_555 1_555
O3 C11 1_555 1_555
O4 C11 1_555 1_555
N1 Cd1 1_555 1_555
N2 C22 1_555 1_555
C1 O2 1_555 1_555
C2 C1 1_555 1_555
C3 C2 1_555 1_555
H1 C3 1_555 1_555
C4 C3 1_555 1_555
C5 C4 1_555 1_555
C6 C5 1_555 1_555
H2 C6 1_555 1_555
C7 C6 1_555 1_555
C8 C7 1_555 1_555
H3 C8 1_555 1_555
C9 C8 1_555 1_555
H4 C9 1_555 1_555
C10 C5 1_555 1_555
H5 C10 1_555 1_555
C11 C7 1_555 1_555
C12 N1 1_555 1_555
H6 C12 1_555 1_555
C13 C12 1_555 1_555
H7 C13 1_555 1_555
C14 C13 1_555 1_555
C15 C14 1_555 1_555
H8 C15 1_555 1_555
C16 N1 1_555 1_555
H9 C16 1_555 1_555
C17 C14 1_555 1_555
H10 C17 1_555 1_555
H11 C17 1_555 1_555
C18 C17 1_555 1_555
H12 C18 1_555 1_555
H13 C18 1_555 1_555
C19 C18 1_555 1_555
H14 C19 1_555 1_555
H15 C19 1_555 1_555
C20 C19 1_555 1_555
C21 C20 1_555 1_555
H16 C21 1_555 1_555
C22 C21 1_555 1_555
H17 C22 1_555 1_555
C23 N2 1_555 1_555
H18 C23 1_555 1_555
C24 C20 1_555 1_555
H19 C24 1_555 1_555
O1B C1B 1_555 1_555
O2B C1B 1_555 1_555
O3B C11B 1_555 1_555
O4B C11B 1_555 1_555
C1B C2B 1_555 1_555
C2B C4 1_555 1_555
C3B C2B 1_555 1_555
H1B C3B 1_555 1_555
C4B C2 1_555 1_555
C5B C4B 1_555 1_555
C6B C5B 1_555 1_555
H2B C6B 1_555 1_555
C7B C6B 1_555 1_555
C8B C7B 1_555 1_555
H3B C8B 1_555 1_555
C9B C8B 1_555 1_555
H4B C9B 1_555 1_555
C10B C5B 1_555 1_555
H5B C10B 1_555 1_555
C11B C7B 1_555 1_555
Cd1B O3B 1_555 1_555
N1B Cd1B 1_555 1_555
N2B C22B 1_555 1_555
C12B N1B 1_555 1_555
H6B C12B 1_555 1_555
C13B C12B 1_555 1_555
H7B C13B 1_555 1_555
C14B C13B 1_555 1_555
C15B C14B 1_555 1_555
H8B C15B 1_555 1_555
C16B N1B 1_555 1_555
H9B C16B 1_555 1_555
C17B C14B 1_555 1_555
H10B C17B 1_555 1_555
H11B C17B 1_555 1_555
C18B C17B 1_555 1_555
H12B C18B 1_555 1_555
H13B C18B 1_555 1_555
C19B C18B 1_555 1_555
H14B C19B 1_555 1_555
H15B C19B 1_555 1_555
C20B C19B 1_555 1_555
C21B C20B 1_555 1_555
H16B C21B 1_555 1_555
C22B C21B 1_555 1_555
H17B C22B 1_555 1_555
C23B N2B 1_555 1_555
H18B C23B 1_555 1_555
C24B C20B 1_555 1_555
H19B C24B 1_555 1_555
Cd1_2 O4B 1_555 1_555
Cd1_3 O3 1_555 1_555
Cd1A N2B 1_555 1_555
Cd1B_2 O1B 1_555 1_555
Cd1B_3 O4 1_555 1_555
Cd1C N2 1_555 1_555
O1B_2 Cd1B 1_555 1_555
O2B_2 Cd1B 1_555 1_555
O3_2 Cd1 1_555 1_555
O4_2 Cd1B 1_555 1_555
O4B_2 Cd1 1_555 1_555
N2A Cd1B 1_555 1_555
N2C Cd1 1_555 1_555
C9 C10 1_555 1_555
C15 C16 1_555 1_555
C23 C24 1_555 1_555
O2B Cd1B_2 1_555 1_555
C3B C4B 1_555 1_555
C9B C10B 1_555 1_555
C15B C16B 1_555 1_555
C23B C24B 1_555 1_555

#END
