
#######################################################################
#
#                 Cambridge Crystallographic Data Centre
#                                CCDC 
#
#######################################################################
#
# If this CIF has been generated from an entry in the Cambridge 
# Structural Database, then it will include bibliographic, chemical, 
# crystal, experimental, refinement or atomic coordinate data resulting 
# from the CCDC's data processing and validation procedures.
#
#######################################################################

data_LUFYUH
_symmetry_cell_setting           orthorhombic
_symmetry_space_group_name_H-M   'C m c a'
_symmetry_Int_Tables_number      64
_space_group_name_Hall           '-C 2ac 2'
loop_
_symmetry_equiv_pos_site_id
_symmetry_equiv_pos_as_xyz
1 x,y,z
2 -x,1/2-y,1/2+z
3 x,-y,-z
4 -x,1/2+y,1/2-z
5 1/2+x,1/2+y,z
6 1/2-x,-y,1/2+z
7 1/2+x,1/2-y,-z
8 1/2-x,y,1/2-z
9 -x,-y,-z
10 x,1/2+y,1/2-z
11 -x,y,z
12 x,1/2-y,1/2+z
13 1/2-x,1/2-y,-z
14 1/2+x,y,1/2-z
15 1/2-x,1/2+y,z
16 1/2+x,-y,1/2+z
_cell_length_a                   30.6672(13)
_cell_length_b                   14.4533(5)
_cell_length_c                   17.3796(6)
_cell_angle_alpha                90
_cell_angle_beta                 90
_cell_angle_gamma                90
_cell_volume                     7703.37
loop_
_atom_site_label
_atom_site_type_symbol
_atom_site_fract_x
_atom_site_fract_y
_atom_site_fract_z
Ba1 Ba 0.2500 0.32468(4) 0.2500
Fe1 Fe 0.0000 0.0000 0.5000
S1 S 0.13781(6) 0.13793(15) 0.11574(12)
O1 O 0.17691(18) 0.3824(3) 0.1693(3)
N1 N 0.2247(2) 0.1725(4) 0.1519(4)
C1 C 0.1290(3) 0.3344(5) 0.2690(5)
H1 H 0.1024 0.3516 0.2981
H2 H 0.1223 0.2781 0.2388
H3 H 0.257(3) 0.562(4) 0.215(4)
S2 S 0.0000 -0.2270(4) 0.2933(3)
O2 O 0.26044(18) 0.3978(4) 0.1029(3)
N2 N 0.1644(2) 0.3138(4) 0.3236(4)
C2 C 0.1406(3) 0.4129(6) 0.2140(6)
H4 H 0.1156 0.4273 0.1801
H5 H 0.1484 0.4693 0.2433
O3 O 0.2500 0.5138(5) 0.2500
N3 N 0.05172(18) 0.0864(4) 0.4456(4)
C3 C 0.1849(3) 0.4381(5) 0.1035(5)
H6 H 0.1937 0.5012 0.1192
H7 H 0.1582 0.4428 0.0716
N4 N 0.0000 -0.0895(6) 0.4047(6)
C4 C 0.2210(3) 0.3926(6) 0.0582(5)
H8 H 0.2136 0.3272 0.0478
H9 H 0.2250 0.4247 0.0084
C5 C 0.2984(3) 0.3721(6) 0.0594(5)
H10 H 0.3019 0.4146 0.0151
H11 H 0.2948 0.3085 0.0392
C6 C 0.1624(3) 0.3766(6) 0.3912(5)
H12 H 0.1587 0.4409 0.3728
H13 H 0.1365 0.3605 0.4224
C7 C 0.1651(2) 0.2146(5) 0.3435(4)
H14 H 0.1895 0.2039 0.3798
H15 H 0.1715 0.1790 0.2962
C8 C 0.1238(2) 0.1755(5) 0.3792(4)
C9 C 0.1157(2) 0.1797(5) 0.4577(4)
H16 H 0.1349 0.2129 0.4907
C10 C 0.0797(2) 0.1351(5) 0.4875(4)
H17 H 0.0745 0.1395 0.5413
C11 C 0.0585(2) 0.0850(5) 0.3687(4)
H18 H 0.0385 0.0524 0.3370
C12 C 0.0935(2) 0.1290(5) 0.3344(4)
H19 H 0.0967 0.1273 0.2801
C13 C 0.1885(2) 0.1583(4) 0.1372(4)
C14 C 0.0000 -0.1463(9) 0.3581(7)
Ba1H Ba -0.2500 -0.32468(4) 0.7500
Fe1E Fe 0.5000 0.0000 0.0000
Fe1E_2 Fe -0.5000 0.0000 1.0000
S1G S 0.36219(6) 0.13793(15) 0.38426(12)
S1H S -0.13781(6) -0.13793(15) 0.88426(12)
S1O S -0.36219(6) -0.13793(15) 0.61574(12)
O1G O 0.32309(18) 0.3824(3) 0.3307(3)
O1H O -0.17691(18) -0.3824(3) 0.8307(3)
O1O O -0.32309(18) -0.3824(3) 0.6693(3)
N1G N 0.2753(2) 0.1725(4) 0.3481(4)
N1H N -0.2247(2) -0.1725(4) 0.8481(4)
N1O N -0.2753(2) -0.1725(4) 0.6519(4)
C1G C 0.3710(3) 0.3344(5) 0.2310(5)
C1H C -0.1290(3) -0.3344(5) 0.7310(5)
C1O C -0.3710(3) -0.3344(5) 0.7690(5)
H1G H 0.3976 0.3516 0.2019
H1H H -0.1024 -0.3516 0.7019
H1O H -0.3976 -0.3516 0.7981
H2G H 0.3777 0.2781 0.2612
H2H H -0.1223 -0.2781 0.7612
H2O H -0.3777 -0.2781 0.7388
H3G H 0.243(3) 0.562(4) 0.285(4)
H3H H -0.257(3) -0.562(4) 0.785(4)
H3O H -0.243(3) -0.562(4) 0.715(4)
S2B S 0.0000 0.2270(4) 0.7067(3)
O2G O 0.23956(18) 0.3978(4) 0.3971(3)
O2H O -0.26044(18) -0.3978(4) 0.8971(3)
O2O O -0.23956(18) -0.3978(4) 0.6029(3)
N2G N 0.3356(2) 0.3138(4) 0.1764(4)
N2H N -0.1644(2) -0.3138(4) 0.6764(4)
N2O N -0.3356(2) -0.3138(4) 0.8236(4)
C2G C 0.3594(3) 0.4129(6) 0.2860(6)
C2H C -0.1406(3) -0.4129(6) 0.7860(6)
C2O C -0.3594(3) -0.4129(6) 0.7140(6)
H4G H 0.3844 0.4273 0.3199
H4H H -0.1156 -0.4273 0.8199
H4O H -0.3844 -0.4273 0.6801
H5G H 0.3516 0.4693 0.2567
H5H H -0.1484 -0.4693 0.7567
H5O H -0.3516 -0.4693 0.7433
O3H O -0.2500 -0.5138(5) 0.7500
N3G N 0.44828(18) 0.0864(4) 0.0544(4)
N3H N -0.05172(18) -0.0864(4) 0.5544(4)
N3O N -0.44828(18) -0.0864(4) 0.9456(4)
N3B N 0.05172(18) -0.0864(4) 0.5544(4)
N3J N -0.05172(18) 0.0864(4) 0.4456(4)
C3G C 0.3151(3) 0.4381(5) 0.3965(5)
C3H C -0.1849(3) -0.4381(5) 0.8965(5)
C3O C -0.3151(3) -0.4381(5) 0.6035(5)
H6G H 0.3063 0.5012 0.3808
H6H H -0.1937 -0.5012 0.8808
H6O H -0.3063 -0.5012 0.6192
H7G H 0.3418 0.4428 0.4284
H7H H -0.1582 -0.4428 0.9284
H7O H -0.3418 -0.4428 0.5716
N4B N 0.0000 0.0895(6) 0.5953(6)
C4G C 0.2790(3) 0.3926(6) 0.4418(5)
C4H C -0.2210(3) -0.3926(6) 0.9418(5)
C4O C -0.2790(3) -0.3926(6) 0.5582(5)
H8G H 0.2864 0.3272 0.4522
H8H H -0.2136 -0.3272 0.9522
H8O H -0.2864 -0.3272 0.5478
H9G H 0.2750 0.4247 0.4916
H9H H -0.2250 -0.4247 0.9916
H9O H -0.2750 -0.4247 0.5084
C5G C 0.2016(3) 0.3721(6) 0.4406(5)
C5H C -0.2984(3) -0.3721(6) 0.9406(5)
C5O C -0.2016(3) -0.3721(6) 0.5594(5)
H10G H 0.1981 0.4146 0.4849
H10H H -0.3019 -0.4146 0.9849
H10O H -0.1981 -0.4146 0.5151
H11G H 0.2052 0.3085 0.4608
H11H H -0.2948 -0.3085 0.9608
H11O H -0.2052 -0.3085 0.5392
C6G C 0.3376(3) 0.3766(6) 0.1088(5)
C6H C -0.1624(3) -0.3766(6) 0.6088(5)
C6O C -0.3376(3) -0.3766(6) 0.8912(5)
H12G H 0.3413 0.4409 0.1272
H12H H -0.1587 -0.4409 0.6272
H12O H -0.3413 -0.4409 0.8728
H13G H 0.3635 0.3605 0.0776
H13H H -0.1365 -0.3605 0.5776
H13O H -0.3635 -0.3605 0.9224
C7G C 0.3349(2) 0.2146(5) 0.1565(4)
C7H C -0.1651(2) -0.2146(5) 0.6565(4)
C7O C -0.3349(2) -0.2146(5) 0.8435(4)
H14G H 0.3105 0.2039 0.1202
H14H H -0.1895 -0.2039 0.6202
H14O H -0.3105 -0.2039 0.8798
H15G H 0.3285 0.1790 0.2038
H15H H -0.1715 -0.1790 0.7038
H15O H -0.3285 -0.1790 0.7962
C8G C 0.3762(2) 0.1755(5) 0.1208(4)
C8H C -0.1238(2) -0.1755(5) 0.6208(4)
C8O C -0.3762(2) -0.1755(5) 0.8792(4)
C9G C 0.3843(2) 0.1797(5) 0.0423(4)
C9H C -0.1157(2) -0.1797(5) 0.5423(4)
C9O C -0.3843(2) -0.1797(5) 0.9577(4)
H16G H 0.3651 0.2129 0.0093
H16H H -0.1349 -0.2129 0.5093
H16O H -0.3651 -0.2129 0.9907
C10G C 0.4203(2) 0.1351(5) 0.0125(4)
C10H C -0.0797(2) -0.1351(5) 0.5125(4)
C10O C -0.4203(2) -0.1351(5) 0.9875(4)
H17G H 0.4255 0.1395 -0.0413
H17H H -0.0745 -0.1395 0.4587
H17O H -0.4255 -0.1395 1.0413
C11G C 0.4415(2) 0.0850(5) 0.1313(4)
C11H C -0.0585(2) -0.0850(5) 0.6313(4)
C11O C -0.4415(2) -0.0850(5) 0.8687(4)
H18G H 0.4615 0.0524 0.1630
H18H H -0.0385 -0.0524 0.6630
H18O H -0.4615 -0.0524 0.8370
C12G C 0.4065(2) 0.1290(5) 0.1656(4)
C12H C -0.0935(2) -0.1290(5) 0.6656(4)
C12O C -0.4065(2) -0.1290(5) 0.8344(4)
H19G H 0.4033 0.1273 0.2199
H19H H -0.0967 -0.1273 0.7199
H19O H -0.4033 -0.1273 0.7801
C13G C 0.3115(2) 0.1583(4) 0.3628(4)
C13H C -0.1885(2) -0.1583(4) 0.8628(4)
C13O C -0.3115(2) -0.1583(4) 0.6372(4)
C14B C 0.0000 0.1463(9) 0.6419(7)
Cl1 Cl 0.04548(18) 0.4945(6) 0.3694(7)
Cl2 Cl 0.0000 0.3468(11) 0.4439(10)
C15 C 0.0000 0.436(4) 0.367(3)
H20 H 0.0000 0.4016 0.3172
Cl1J Cl -0.04548(18) 0.4945(6) 0.3694(7)
loop_
_geom_bond_atom_site_label_1
_geom_bond_atom_site_label_2
_geom_bond_site_symmetry_1
_geom_bond_site_symmetry_2
Ba1 O1 1_555 1_555
Fe1 N3 1_555 1_555
S1 C13 1_555 1_555
O1 C2 1_555 1_555
N1 Ba1 1_555 1_555
C1 H1 1_555 1_555
H2 C1 1_555 1_555
H3 O3 1_555 1_555
S2 C14 1_555 1_555
O2 Ba1 1_555 1_555
N2 Ba1 1_555 1_555
C2 C1 1_555 1_555
H4 C2 1_555 1_555
H5 C2 1_555 1_555
O3 Ba1 1_555 1_555
N3 C10 1_555 1_555
C3 O1 1_555 1_555
H6 C3 1_555 1_555
H7 C3 1_555 1_555
N4 Fe1 1_555 1_555
C4 O2 1_555 1_555
H8 C4 1_555 1_555
H9 C4 1_555 1_555
C5 O2 1_555 1_555
H10 C5 1_555 1_555
H11 C5 1_555 1_555
C6 N2 1_555 1_555
H12 C6 1_555 1_555
H13 C6 1_555 1_555
C7 N2 1_555 1_555
H14 C7 1_555 1_555
H15 C7 1_555 1_555
C8 C7 1_555 1_555
C9 C8 1_555 1_555
H16 C9 1_555 1_555
C10 C9 1_555 1_555
H17 C10 1_555 1_555
C11 N3 1_555 1_555
H18 C11 1_555 1_555
C12 C8 1_555 1_555
H19 C12 1_555 1_555
C13 N1 1_555 1_555
C14 N4 1_555 1_555
Cl1 C15 1_555 1_555
Cl2 C15 1_555 1_555
C15 H20 1_555 1_555
Ba1H O1H 1_555 1_555
Fe1E N3G 1_555 1_555
Fe1E_2 N3O 1_555 1_555
S1G C13G 1_555 1_555
S1H C13H 1_555 1_555
S1O C13O 1_555 1_555
O1G Ba1 1_555 1_555
O1H C2H 1_555 1_555
O1O Ba1H 1_555 1_555
N1G Ba1 1_555 1_555
N1H Ba1H 1_555 1_555
N1O Ba1H 1_555 1_555
C1G H1G 1_555 1_555
C1H H1H 1_555 1_555
C1O H1O 1_555 1_555
H2G C1G 1_555 1_555
H2H C1H 1_555 1_555
H2O C1O 1_555 1_555
H3G O3 1_555 1_555
H3H O3H 1_555 1_555
H3O O3H 1_555 1_555
S2B C14B 1_555 1_555
O2G Ba1 1_555 1_555
O2H Ba1H 1_555 1_555
O2O Ba1H 1_555 1_555
N2G Ba1 1_555 1_555
N2H Ba1H 1_555 1_555
N2O Ba1H 1_555 1_555
C2G O1G 1_555 1_555
C2H C1H 1_555 1_555
C2O O1O 1_555 1_555
H4G C2G 1_555 1_555
H4H C2H 1_555 1_555
H4O C2O 1_555 1_555
H5G C2G 1_555 1_555
H5H C2H 1_555 1_555
H5O C2O 1_555 1_555
O3H Ba1H 1_555 1_555
N3G C10G 1_555 1_555
N3H Fe1 1_555 1_555
N3O C10O 1_555 1_555
N3B Fe1 1_555 1_555
N3J Fe1 1_555 1_555
C3G O1G 1_555 1_555
C3H O1H 1_555 1_555
C3O O1O 1_555 1_555
H6G C3G 1_555 1_555
H6H C3H 1_555 1_555
H6O C3O 1_555 1_555
H7G C3G 1_555 1_555
H7H C3H 1_555 1_555
H7O C3O 1_555 1_555
N4B Fe1 1_555 1_555
C4G O2G 1_555 1_555
C4H O2H 1_555 1_555
C4O O2O 1_555 1_555
H8G C4G 1_555 1_555
H8H C4H 1_555 1_555
H8O C4O 1_555 1_555
H9G C4G 1_555 1_555
H9H C4H 1_555 1_555
H9O C4O 1_555 1_555
C5G C6 1_555 1_555
C5H O2H 1_555 1_555
C5O O2O 1_555 1_555
H10G C5G 1_555 1_555
H10H C5H 1_555 1_555
H10O C5O 1_555 1_555
H11G C5G 1_555 1_555
H11H C5H 1_555 1_555
H11O C5O 1_555 1_555
C6G C5 1_555 1_555
C6H N2H 1_555 1_555
C6O N2O 1_555 1_555
H12G C6G 1_555 1_555
H12H C6H 1_555 1_555
H12O C6O 1_555 1_555
H13G C6G 1_555 1_555
H13H C6H 1_555 1_555
H13O C6O 1_555 1_555
C7G N2G 1_555 1_555
C7H N2H 1_555 1_555
C7O N2O 1_555 1_555
H14G C7G 1_555 1_555
H14H C7H 1_555 1_555
H14O C7O 1_555 1_555
H15G C7G 1_555 1_555
H15H C7H 1_555 1_555
H15O C7O 1_555 1_555
C8G C7G 1_555 1_555
C8H C7H 1_555 1_555
C8O C7O 1_555 1_555
C9G C8G 1_555 1_555
C9H C8H 1_555 1_555
C9O C8O 1_555 1_555
H16G C9G 1_555 1_555
H16H C9H 1_555 1_555
H16O C9O 1_555 1_555
C10G C9G 1_555 1_555
C10H N3H 1_555 1_555
C10O C9O 1_555 1_555
H17G C10G 1_555 1_555
H17H C10H 1_555 1_555
H17O C10O 1_555 1_555
C11G N3G 1_555 1_555
C11H N3H 1_555 1_555
C11O N3O 1_555 1_555
H18G C11G 1_555 1_555
H18H C11H 1_555 1_555
H18O C11O 1_555 1_555
C12G C8G 1_555 1_555
C12H C8H 1_555 1_555
C12O C8O 1_555 1_555
H19G C12G 1_555 1_555
H19H C12H 1_555 1_555
H19O C12O 1_555 1_555
C13G N1G 1_555 1_555
C13H N1H 1_555 1_555
C13O N1O 1_555 1_555
C14B N4B 1_555 1_555
Cl1J C15 1_555 1_555
C1 N2 1_555 1_555
C3 C4 1_555 1_555
C11 C12 1_555 1_555
C1G N2G 1_555 1_555
C1G C2G 1_555 1_555
C1H N2H 1_555 1_555
C1O N2O 1_555 1_555
C1O C2O 1_555 1_555
O2G C5G 1_555 1_555
N2G C6G 1_555 1_555
C3G C4G 1_555 1_555
C3H C4H 1_555 1_555
C3O C4O 1_555 1_555
C5H C6O 1_555 1_555
C5O C6H 1_555 1_555
C9H C10H 1_555 1_555
C11G C12G 1_555 1_555
C11H C12H 1_555 1_555
C11O C12O 1_555 1_555

#END
