
#######################################################################
#
#                 Cambridge Crystallographic Data Centre
#                                CCDC 
#
#######################################################################
#
# If this CIF has been generated from an entry in the Cambridge 
# Structural Database, then it will include bibliographic, chemical, 
# crystal, experimental, refinement or atomic coordinate data resulting 
# from the CCDC's data processing and validation procedures.
#
#######################################################################

data_LUFYOB
_symmetry_cell_setting           triclinic
_symmetry_space_group_name_H-M   'P -1'
_symmetry_Int_Tables_number      2
_space_group_name_Hall           '-P 1'
loop_
_symmetry_equiv_pos_site_id
_symmetry_equiv_pos_as_xyz
1 x,y,z
2 -x,-y,-z
_cell_length_a                   9.8825(8)
_cell_length_b                   10.0056(8)
_cell_length_c                   10.1091(6)
_cell_angle_alpha                103.378(1)
_cell_angle_beta                 94.538(1)
_cell_angle_gamma                96.319(1)
_cell_volume                     960.889
loop_
_atom_site_label
_atom_site_type_symbol
_atom_site_fract_x
_atom_site_fract_y
_atom_site_fract_z
Fe1 Fe 0.5000 0.5000 0.5000
S1 S 0.30948(7) 0.55546(6) 0.05202(6)
O1 O 0.34357(17) 1.06187(16) 1.03464(16)
N1 N 0.1752(2) 1.1083(2) 0.8050(2)
C1 C 0.3463(3) 1.0806(3) 1.1790(2)
H1 H 0.2993 1.1609 1.2179
H2 H 0.4421 1.0985 1.2220
H3 H 0.155(3) 1.115(3) 0.717(3)
S2 S 0.10697(6) 0.15048(6) 0.50090(6)
O2 O -0.13571(17) 1.06578(17) 0.85037(17)
N2 N 0.37437(19) 0.65722(19) 0.60078(19)
C2 C 0.3719(3) 1.1868(3) 0.9939(3)
H4 H 0.4714 1.2197 1.0114
H5 H 0.3231 1.2589 1.0470
N3 N 0.4202(2) 0.5192(2) 0.3028(2)
C3 C 0.3257(2) 1.1614(3) 0.8441(3)
H6 H 0.3797 1.0933 0.7926
H7 H 0.3461 1.2490 0.8156
N4 N 0.3380(2) 0.3398(2) 0.4997(2)
C4 C 0.0866(3) 1.2026(3) 0.8865(3)
H8 H 0.1268 1.2999 0.8965
H9 H 0.0874 1.1856 0.9792
C5 C -0.0605(3) 1.1838(3) 0.8233(3)
H10 H -0.1033 1.2673 0.8613
H11 H -0.0626 1.1726 0.7232
C6 C -0.2752(3) 1.0482(3) 0.7942(3)
H12 H -0.2806 1.0408 0.6945
H13 H -0.3197 1.1290 0.8369
C7 C 0.1333(2) 0.9588(2) 0.8073(2)
H14 H 0.1355 0.9525 0.9037
H15 H 0.0377 0.9302 0.7647
C8 C 0.2224(2) 0.8585(2) 0.7345(2)
C9 C 0.2628(3) 0.8587(3) 0.6059(3)
H16 H 0.2381 0.9271 0.5605
C10 C 0.3396(3) 0.7581(2) 0.5441(2)
H17 H 0.3687 0.7613 0.4574
C11 C 0.3339(2) 0.6564(2) 0.7249(2)
H18 H 0.3568 0.5847 0.7665
C12 C 0.2605(2) 0.7554(2) 0.7947(3)
H19 H 0.2364 0.7526 0.8833
C13 C 0.3763(2) 0.5351(2) 0.1987(2)
C14 C 0.2434(2) 0.2616(2) 0.5016(2)
Fe1_2 Fe -0.5000 1.5000 1.5000
S1A S 0.69052(7) 0.44454(6) 0.94798(6)
O1A O -0.34357(17) 0.93813(16) 0.96536(16)
N1A N -0.1752(2) 0.8917(2) 1.1950(2)
C1A C -0.3463(3) 0.9194(3) 0.8210(2)
H1A H -0.2993 0.8391 0.7821
H2A H -0.4421 0.9015 0.7780
H3A H -0.155(3) 0.885(3) 1.283(3)
S2A S 0.89303(6) 0.84952(6) 0.49910(6)
O2A O 0.13571(17) 0.93422(17) 1.14963(17)
N2A N -0.37437(19) 1.34278(19) 1.39922(19)
N2A_2 N 0.62563(19) 0.34278(19) 0.39922(19)
C2A C -0.3719(3) 0.8132(3) 1.0061(3)
H4A H -0.4714 0.7803 0.9886
H5A H -0.3231 0.7411 0.9530
N3A N 0.5798(2) 0.4808(2) 0.6972(2)
C3A C -0.3257(2) 0.8386(3) 1.1559(3)
H6A H -0.3797 0.9067 1.2074
H7A H -0.3461 0.7510 1.1844
N4A N 0.6620(2) 0.6602(2) 0.5003(2)
C4A C -0.0866(3) 0.7974(3) 1.1135(3)
H8A H -0.1268 0.7001 1.1035
H9A H -0.0874 0.8144 1.0208
C5A C 0.0605(3) 0.8162(3) 1.1767(3)
H10A H 0.1033 0.7327 1.1387
H11A H 0.0626 0.8274 1.2768
C6A C 0.2752(3) 0.9518(3) 1.2058(3)
H12A H 0.2806 0.9592 1.3055
H13A H 0.3197 0.8710 1.1631
C7A C -0.1333(2) 1.0412(2) 1.1927(2)
H14A H -0.1355 1.0475 1.0963
H15A H -0.0377 1.0698 1.2353
C8A C -0.2224(2) 1.1415(2) 1.2655(2)
C9A C -0.2628(3) 1.1413(3) 1.3941(3)
H16A H -0.2381 1.0729 1.4395
C10A C -0.3396(3) 1.2419(2) 1.4559(2)
H17A H -0.3687 1.2387 1.5426
C11A C -0.3339(2) 1.3436(2) 1.2751(2)
H18A H -0.3568 1.4153 1.2335
C12A C -0.2605(2) 1.2446(2) 1.2053(3)
H19A H -0.2364 1.2474 1.1167
C13A C 0.6237(2) 0.4649(2) 0.8013(2)
C14A C 0.7566(2) 0.7384(2) 0.4984(2)
O3 O 0.0196(4) 0.4308(6) 0.1624(5)
H20 H 0.0825 0.4712 0.1290
C15 C 0.0402(4) 0.4751(5) 0.3076(5)
H21 H -0.0294 0.4230 0.3467
H22 H 0.0329 0.5743 0.3360
H23 H 0.1315 0.4583 0.3401
loop_
_geom_bond_atom_site_label_1
_geom_bond_atom_site_label_2
_geom_bond_site_symmetry_1
_geom_bond_site_symmetry_2
Fe1 N2 1_555 1_555
S1 C13 1_555 1_555
O1 C1 1_555 1_555
N1 H3 1_555 1_555
C1 H1 1_555 1_555
H2 C1 1_555 1_555
S2 C14 1_555 1_555
O2 C5 1_555 1_555
N2 C10 1_555 1_555
C2 O1 1_555 1_555
H4 C2 1_555 1_555
H5 C2 1_555 1_555
N3 Fe1 1_555 1_555
C3 N1 1_555 1_555
H6 C3 1_555 1_555
H7 C3 1_555 1_555
N4 Fe1 1_555 1_555
C4 N1 1_555 1_555
H8 C4 1_555 1_555
H9 C4 1_555 1_555
C5 C4 1_555 1_555
H10 C5 1_555 1_555
H11 C5 1_555 1_555
C6 O2 1_555 1_555
H12 C6 1_555 1_555
H13 C6 1_555 1_555
C7 N1 1_555 1_555
H14 C7 1_555 1_555
H15 C7 1_555 1_555
C8 C7 1_555 1_555
C9 C8 1_555 1_555
H16 C9 1_555 1_555
C10 C9 1_555 1_555
H17 C10 1_555 1_555
C11 N2 1_555 1_555
H18 C11 1_555 1_555
C12 C8 1_555 1_555
H19 C12 1_555 1_555
C13 N3 1_555 1_555
C14 N4 1_555 1_555
O3 H20 1_555 1_555
C15 O3 1_555 1_555
H21 C15 1_555 1_555
H22 C15 1_555 1_555
H23 C15 1_555 1_555
Fe1_2 N2A 1_555 1_555
S1A C13A 1_555 1_555
O1A C1A 1_555 1_555
N1A H3A 1_555 1_555
C1A C6 1_555 1_555
H1A C1A 1_555 1_555
H2A C1A 1_555 1_555
S2A C14A 1_555 1_555
O2A C5A 1_555 1_555
N2A C10A 1_555 1_555
N2A_2 Fe1 1_555 1_555
C2A O1A 1_555 1_555
H4A C2A 1_555 1_555
H5A C2A 1_555 1_555
N3A Fe1 1_555 1_555
C3A N1A 1_555 1_555
H6A C3A 1_555 1_555
H7A C3A 1_555 1_555
N4A Fe1 1_555 1_555
C4A N1A 1_555 1_555
H8A C4A 1_555 1_555
H9A C4A 1_555 1_555
C5A C4A 1_555 1_555
H10A C5A 1_555 1_555
H11A C5A 1_555 1_555
C6A C1 1_555 1_555
H12A C6A 1_555 1_555
H13A C6A 1_555 1_555
C7A N1A 1_555 1_555
H14A C7A 1_555 1_555
H15A C7A 1_555 1_555
C8A C7A 1_555 1_555
C9A C8A 1_555 1_555
H16A C9A 1_555 1_555
C10A C9A 1_555 1_555
H17A C10A 1_555 1_555
C11A N2A 1_555 1_555
H18A C11A 1_555 1_555
C12A C8A 1_555 1_555
H19A C12A 1_555 1_555
C13A N3A 1_555 1_555
C14A N4A 1_555 1_555
C2 C3 1_555 1_555
C11 C12 1_555 1_555
O2A C6A 1_555 1_555
C2A C3A 1_555 1_555
C11A C12A 1_555 1_555

#END
