
#######################################################################
#
#                 Cambridge Crystallographic Data Centre
#                                CCDC 
#
#######################################################################
#
# If this CIF has been generated from an entry in the Cambridge 
# Structural Database, then it will include bibliographic, chemical, 
# crystal, experimental, refinement or atomic coordinate data resulting 
# from the CCDC's data processing and validation procedures.
#
#######################################################################

data_LUFZES
_symmetry_cell_setting           triclinic
_symmetry_space_group_name_H-M   'P -1'
_symmetry_Int_Tables_number      2
_space_group_name_Hall           '-P 1'
loop_
_symmetry_equiv_pos_site_id
_symmetry_equiv_pos_as_xyz
1 x,y,z
2 -x,-y,-z
_cell_length_a                   9.4628(1)
_cell_length_b                   9.9583(1)
_cell_length_c                   10.5733(2)
_cell_angle_alpha                104.956(1)
_cell_angle_beta                 112.965(1)
_cell_angle_gamma                101.559(1)
_cell_volume                     834.006
loop_
_atom_site_label
_atom_site_type_symbol
_atom_site_fract_x
_atom_site_fract_y
_atom_site_fract_z
Co1 Co 0.5000 0.0000 0.0000
K1 K 1.5000 0.5000 1.0000
Cl1 Cl 0.39939(8) -0.22001(6) 0.04452(6)
O1 O 1.1931(2) 0.4134(2) 0.9925(2)
N1 N 1.2006(3) 0.4049(2) 0.7152(2)
C1 C 1.1766(3) 0.3448(3) 1.0907(3)
H1 H 1.1689 0.2403 1.0531
H2 H 1.0760 0.3475 1.0981
O2 O 1.5317(2) 0.5759(2) 0.77200(19)
N2 N 0.7215(3) 0.0734(2) 0.2052(2)
C2 C 1.0475(3) 0.3571(3) 0.8559(3)
H3 H 0.9566 0.3757 0.8734
H4 H 1.0189 0.2492 0.8082
O3 O 0.3932(2) 0.1150(2) 0.1109(2)
C3 C 1.0741(3) 0.4329(3) 0.7561(3)
H5 H 0.9699 0.3998 0.6644
H6 H 1.1047 0.5407 0.8064
C4 C 1.2389(3) 0.5066(3) 0.6447(3)
H7 H 1.2506 0.6070 0.7037
H8 H 1.1457 0.4759 0.5452
C5 C 1.3922(3) 0.5141(3) 0.6287(3)
H9 H 1.3853 0.4137 0.5748
H10 H 1.4028 0.5759 0.5709
C6 C 1.3229(3) 0.4265(3) 1.2402(3)
H11 H 1.3142 0.3796 1.3100
H12 H 1.3278 0.5300 1.2792
C7 C 1.1609(3) 0.2473(3) 0.6269(3)
H13 H 1.1486 0.1878 0.6863
H14 H 1.2542 0.2371 0.6092
C8 C 1.0074(3) 0.1832(3) 0.4785(3)
C9 C 0.8547(3) 0.1252(3) 0.4667(3)
H15 H 0.8447 0.1221 0.5520
C10 C 0.7163(3) 0.0718(3) 0.3301(3)
H16 H 0.6131 0.0322 0.3247
C11 C 0.8691(3) 0.1265(3) 0.2158(3)
H17 H 0.8756 0.1271 0.1285
C12 C 1.0129(3) 0.1808(3) 0.3479(3)
H18 H 1.1148 0.2161 0.3494
H19 H 0.374(5) 0.117(4) 0.187(3)
H20 H 0.408(5) 0.212(2) 0.135(4)
Co1_2 Co 2.5000 1.0000 2.0000
K1_2 K 0.5000 -0.5000 0.0000
K1_3 K 0.5000 0.5000 0.0000
Cl1A Cl 0.60061(8) 0.22001(6) -0.04452(6)
Cl1_2 Cl 1.39939(8) 0.77999(6) 1.04452(6)
Cl1A_2 Cl 1.60061(8) 0.22001(6) 0.95548(6)
O1A O 1.8069(2) 0.5866(2) 1.0075(2)
N1A N 1.7994(3) 0.5951(2) 1.2848(2)
C1A C 1.8234(3) 0.6552(3) 0.9093(3)
H1A H 1.8311 0.7597 0.9469
H2A H 1.9240 0.6525 0.9019
O2A O 1.4683(2) 0.4241(2) 1.22800(19)
N2A N 2.2785(3) 0.9266(2) 1.7948(2)
N2A_2 N 0.2785(3) -0.0734(2) -0.2052(2)
C2A C 1.9525(3) 0.6429(3) 1.1441(3)
H3A H 2.0434 0.6243 1.1266
H4A H 1.9811 0.7508 1.1918
O3A O 0.6068(2) -0.1150(2) -0.1109(2)
C3A C 1.9259(3) 0.5671(3) 1.2439(3)
H5A H 2.0301 0.6002 1.3356
H6A H 1.8953 0.4593 1.1936
C4A C 1.7611(3) 0.4934(3) 1.3553(3)
H7A H 1.7494 0.3930 1.2963
H8A H 1.8543 0.5241 1.4548
C5A C 1.6078(3) 0.4859(3) 1.3713(3)
H9A H 1.6147 0.5863 1.4252
H10A H 1.5972 0.4241 1.4291
C6A C 1.6771(3) 0.5735(3) 0.7598(3)
H11A H 1.6858 0.6204 0.6900
H12A H 1.6722 0.4700 0.7208
C7A C 1.8391(3) 0.7527(3) 1.3731(3)
H13A H 1.8514 0.8122 1.3137
H14A H 1.7458 0.7629 1.3908
C8A C 1.9926(3) 0.8168(3) 1.5215(3)
C9A C 2.1453(3) 0.8748(3) 1.5333(3)
H15A H 2.1553 0.8779 1.4480
C10A C 2.2837(3) 0.9282(3) 1.6699(3)
H16A H 2.3869 0.9678 1.6753
C11A C 2.1309(3) 0.8735(3) 1.7842(3)
H17A H 2.1244 0.8729 1.8715
C12A C 1.9871(3) 0.8192(3) 1.6521(3)
H18A H 1.8852 0.7839 1.6506
H19A H 0.626(5) -0.117(4) -0.187(3)
H20A H 0.592(5) -0.212(2) -0.135(4)
Cl2 Cl 0.36808(15) 0.11968(14) 0.38995(14)
O4 O 1.6138(8) 0.2014(6) 0.6520(6)
H21 H 1.639(4) 0.218(4) 0.752(2)
H22 H 1.581(3) 0.102(2) 0.648(4)
O5? O 1.6778(6) 0.1773(7) 0.6853(6)
loop_
_geom_bond_atom_site_label_1
_geom_bond_atom_site_label_2
_geom_bond_site_symmetry_1
_geom_bond_site_symmetry_2
Co1 Cl1 1_555 1_555
K1 O1 1_555 1_555
Cl1 K1_2 1_555 1_555
O1 C1 1_555 1_555
N1 K1 1_555 1_555
C1 H1 1_555 1_555
H2 C1 1_555 1_555
O2 K1 1_555 1_555
N2 Co1 1_555 1_555
C2 O1 1_555 1_555
H3 C2 1_555 1_555
H4 C2 1_555 1_555
O3 Co1 1_555 1_555
C3 N1 1_555 1_555
H5 C3 1_555 1_555
H6 C3 1_555 1_555
O4 H21 1_555 1_555
C4 N1 1_555 1_555
H7 C4 1_555 1_555
H8 C4 1_555 1_555
C5 O2 1_555 1_555
H9 C5 1_555 1_555
H10 C5 1_555 1_555
C6 C1 1_555 1_555
H11 C6 1_555 1_555
H12 C6 1_555 1_555
C7 N1 1_555 1_555
H13 C7 1_555 1_555
H14 C7 1_555 1_555
C8 C7 1_555 1_555
C9 C8 1_555 1_555
H15 C9 1_555 1_555
C10 N2 1_555 1_555
H16 C10 1_555 1_555
C11 N2 1_555 1_555
H17 C11 1_555 1_555
C12 C8 1_555 1_555
H18 C12 1_555 1_555
H19 O3 1_555 1_555
H20 O3 1_555 1_555
H22 O4 1_555 1_555
Co1_2 N2A 1_555 1_555
K1_3 Cl1A 1_555 1_555
Cl1A Co1 1_555 1_555
Cl1_2 K1 1_555 1_555
Cl1A_2 K1 1_555 1_555
O1A K1 1_555 1_555
N1A K1 1_555 1_555
C1A O1A 1_555 1_555
H1A C1A 1_555 1_555
H2A C1A 1_555 1_555
O2A K1 1_555 1_555
N2A C10A 1_555 1_555
N2A_2 Co1 1_555 1_555
C2A O1A 1_555 1_555
H3A C2A 1_555 1_555
H4A C2A 1_555 1_555
O3A Co1 1_555 1_555
C3A N1A 1_555 1_555
H5A C3A 1_555 1_555
H6A C3A 1_555 1_555
C4A N1A 1_555 1_555
H7A C4A 1_555 1_555
H8A C4A 1_555 1_555
C5A O2A 1_555 1_555
H9A C5A 1_555 1_555
H10A C5A 1_555 1_555
C6A O2 1_555 1_555
H11A C6A 1_555 1_555
H12A C6A 1_555 1_555
C7A N1A 1_555 1_555
H13A C7A 1_555 1_555
H14A C7A 1_555 1_555
C8A C7A 1_555 1_555
C9A C8A 1_555 1_555
H15A C9A 1_555 1_555
C10A C9A 1_555 1_555
H16A C10A 1_555 1_555
C11A N2A 1_555 1_555
H17A C11A 1_555 1_555
C12A C8A 1_555 1_555
H18A C12A 1_555 1_555
H19A O3A 1_555 1_555
H20A O3A 1_555 1_555
C2 C3 1_555 1_555
C4 C5 1_555 1_555
C6 O2A 1_555 1_555
C9 C10 1_555 1_555
C11 C12 1_555 1_555
C1A C6A 1_555 1_555
C2A C3A 1_555 1_555
C4A C5A 1_555 1_555
C11A C12A 1_555 1_555

#END
