
#######################################################################
#
#                 Cambridge Crystallographic Data Centre
#                                CCDC 
#
#######################################################################
#
# If this CIF has been generated from an entry in the Cambridge 
# Structural Database, then it will include bibliographic, chemical, 
# crystal, experimental, refinement or atomic coordinate data resulting 
# from the CCDC's data processing and validation procedures.
#
#######################################################################

data_LUFZIW
_symmetry_cell_setting           monoclinic
_symmetry_space_group_name_H-M   'P 21/n'
_symmetry_Int_Tables_number      14
_space_group_name_Hall           '-P 2yn'
loop_
_symmetry_equiv_pos_site_id
_symmetry_equiv_pos_as_xyz
1 x,y,z
2 1/2-x,1/2+y,1/2-z
3 -x,-y,-z
4 1/2+x,1/2-y,1/2+z
_cell_length_a                   9.1581(4)
_cell_length_b                   18.2060(7)
_cell_length_c                   10.1529(4)
_cell_angle_alpha                90
_cell_angle_beta                 115.964(1)
_cell_angle_gamma                90
_cell_volume                     1521.96
loop_
_atom_site_label
_atom_site_type_symbol
_atom_site_fract_x
_atom_site_fract_y
_atom_site_fract_z
Co1 Co 0.0000 0.0000 0.0000
S1 S -0.00554(11) 0.16195(5) -0.37070(10)
O1 O 0.0423(3) 0.48890(12) 0.8193(2)
N1 N 0.0539(3) 0.36982(14) 0.3133(3)
C1 C 0.0417(4) 0.61791(18) 0.8450(4)
H1 H -0.0336 0.6151 0.8911
H2 H 0.1134 0.6609 0.8873
H3 H 0.308(6) -0.041(3) 0.100(5)
H4 H 0.298(5) 0.025(2) 0.059(5)
O2 O -0.0587(3) 0.37095(12) 0.6166(2)
N2 N 0.0402(3) 0.10778(13) 0.1038(3)
C2 C 0.1444(4) 0.54977(18) 0.8839(4)
H5 H 0.2280 0.5535 0.8471
H6 H 0.2001 0.5438 0.9916
O3 O 0.2467(3) -0.00561(13) 0.0419(3)
N3 N -0.0446(3) 0.05116(14) -0.1989(3)
C3 C 0.1303(4) 0.42170(18) 0.8532(4)
H7 H 0.1784 0.4126 0.9601
H8 H 0.2193 0.4241 0.8230
C4 C 0.0155(4) 0.36151(18) 0.7732(4)
H9 H 0.0746 0.3142 0.7978
H10 H -0.0708 0.3591 0.8068
C5 C 0.0513(4) 0.36029(19) 0.5549(4)
H11 H 0.1132 0.3143 0.5924
H12 H 0.1291 0.4017 0.5811
C6 C -0.0474(4) 0.35605(18) 0.3892(4)
H13 H -0.0973 0.3067 0.3621
H14 H -0.1360 0.3927 0.3574
C7 C 0.1801(4) 0.31385(16) 0.3410(4)
H15 H 0.2315 0.3025 0.4470
H16 H 0.2649 0.3355 0.3173
C8 C 0.1252(4) 0.24198(16) 0.2574(3)
C9 C 0.0602(4) 0.18433(17) 0.3032(3)
H17 H 0.0426 0.1894 0.3883
C10 C 0.0209(4) 0.11908(16) 0.2248(3)
H18 H -0.0223 0.0802 0.2594
C11 C 0.1008(4) 0.16461(16) 0.0576(3)
H19 H 0.1147 0.1585 -0.0292
C12 C 0.1435(4) 0.23101(17) 0.1302(3)
H20 H 0.1855 0.2693 0.0930
C13 C -0.0293(4) 0.09562(16) -0.2729(3)
Co1_2 Co 0.0000 1.0000 1.0000
S1B S 0.00554(11) -0.16195(5) 0.37070(10)
O1B O -0.0423(3) 0.51110(12) 0.1807(2)
N1B N -0.0539(3) 0.63018(14) 0.6867(3)
C1B C -0.0417(4) 0.38209(18) 0.1550(4)
H1B H 0.0336 0.3849 0.1089
H2B H -0.1134 0.3391 0.1127
H3B H -0.308(6) 0.041(3) -0.100(5)
H4B H -0.298(5) -0.025(2) -0.059(5)
O2B O 0.0587(3) 0.62905(12) 0.3834(2)
N2B N -0.0402(3) 0.89222(13) 0.8962(3)
N2B_2 N -0.0402(3) -0.10778(13) -0.1038(3)
C2B C -0.1444(4) 0.45023(18) 0.1161(4)
H5B H -0.2280 0.4465 0.1529
H6B H -0.2001 0.4562 0.0084
O3B O -0.2467(3) 0.00561(13) -0.0419(3)
N3B N 0.0446(3) -0.05116(14) 0.1989(3)
C3B C -0.1303(4) 0.57830(18) 0.1468(4)
H7B H -0.1784 0.5874 0.0399
H8B H -0.2193 0.5759 0.1770
C4B C -0.0155(4) 0.63849(18) 0.2268(4)
H9B H -0.0746 0.6858 0.2022
H10B H 0.0708 0.6409 0.1932
C5B C -0.0513(4) 0.63971(19) 0.4451(4)
H11B H -0.1132 0.6857 0.4076
H12B H -0.1291 0.5983 0.4189
C6B C 0.0474(4) 0.64395(18) 0.6108(4)
H13B H 0.0973 0.6933 0.6379
H14B H 0.1360 0.6073 0.6426
C7B C -0.1801(4) 0.68615(16) 0.6590(4)
H15B H -0.2315 0.6975 0.5530
H16B H -0.2649 0.6645 0.6827
C8B C -0.1252(4) 0.75802(16) 0.7426(3)
C9B C -0.0602(4) 0.81567(17) 0.6968(3)
H17B H -0.0426 0.8106 0.6117
C10B C -0.0209(4) 0.88092(16) 0.7752(3)
H18B H 0.0223 0.9198 0.7406
C11B C -0.1008(4) 0.83539(16) 0.9424(3)
H19B H -0.1147 0.8415 1.0292
C12B C -0.1435(4) 0.76899(17) 0.8698(3)
H20B H -0.1855 0.7307 0.9070
C13B C 0.0293(4) -0.09562(16) 0.2729(3)
loop_
_geom_bond_atom_site_label_1
_geom_bond_atom_site_label_2
_geom_bond_site_symmetry_1
_geom_bond_site_symmetry_2
Co1 N2 1_555 1_555
S1 C13 1_555 1_555
O1 C2 1_555 1_555
N1 C6 1_555 1_555
C1 H1 1_555 1_555
H2 C1 1_555 1_555
H3 O3 1_555 1_555
H4 O3 1_555 1_555
O2 C4 1_555 1_555
N2 C10 1_555 1_555
C2 C1 1_555 1_555
H5 C2 1_555 1_555
H6 C2 1_555 1_555
O3 Co1 1_555 1_555
N3 Co1 1_555 1_555
C3 O1 1_555 1_555
H7 C3 1_555 1_555
H8 C3 1_555 1_555
C4 C3 1_555 1_555
H9 C4 1_555 1_555
H10 C4 1_555 1_555
C5 O2 1_555 1_555
H11 C5 1_555 1_555
H12 C5 1_555 1_555
C6 C5 1_555 1_555
H13 C6 1_555 1_555
H14 C6 1_555 1_555
C7 N1 1_555 1_555
H15 C7 1_555 1_555
H16 C7 1_555 1_555
C8 C7 1_555 1_555
C9 C8 1_555 1_555
H17 C9 1_555 1_555
C10 C9 1_555 1_555
H18 C10 1_555 1_555
C11 N2 1_555 1_555
H19 C11 1_555 1_555
C12 C8 1_555 1_555
H20 C12 1_555 1_555
C13 N3 1_555 1_555
Co1_2 N2B 1_555 1_555
S1B C13B 1_555 1_555
O1B C2B 1_555 1_555
N1B C1 1_555 1_555
C1B N1 1_555 1_555
H1B C1B 1_555 1_555
H2B C1B 1_555 1_555
H3B O3B 1_555 1_555
H4B O3B 1_555 1_555
O2B C4B 1_555 1_555
N2B C10B 1_555 1_555
N2B_2 Co1 1_555 1_555
C2B C1B 1_555 1_555
H5B C2B 1_555 1_555
H6B C2B 1_555 1_555
O3B Co1 1_555 1_555
N3B Co1 1_555 1_555
C3B O1B 1_555 1_555
H7B C3B 1_555 1_555
H8B C3B 1_555 1_555
C4B C3B 1_555 1_555
H9B C4B 1_555 1_555
H10B C4B 1_555 1_555
C5B O2B 1_555 1_555
H11B C5B 1_555 1_555
H12B C5B 1_555 1_555
C6B N1B 1_555 1_555
H13B C6B 1_555 1_555
H14B C6B 1_555 1_555
C7B N1B 1_555 1_555
H15B C7B 1_555 1_555
H16B C7B 1_555 1_555
C8B C7B 1_555 1_555
C9B C8B 1_555 1_555
H17B C9B 1_555 1_555
C10B C9B 1_555 1_555
H18B C10B 1_555 1_555
C11B N2B 1_555 1_555
H19B C11B 1_555 1_555
C12B C8B 1_555 1_555
H20B C12B 1_555 1_555
C13B N3B 1_555 1_555
C11 C12 1_555 1_555
C5B C6B 1_555 1_555
C11B C12B 1_555 1_555

#END
