
#######################################################################
#
#                 Cambridge Crystallographic Data Centre
#                                CCDC 
#
#######################################################################
#
# If this CIF has been generated from an entry in the Cambridge 
# Structural Database, then it will include bibliographic, chemical, 
# crystal, experimental, refinement or atomic coordinate data resulting 
# from the CCDC's data processing and validation procedures.
#
#######################################################################

data_LUGLUU
_symmetry_cell_setting           monoclinic
_symmetry_space_group_name_H-M   'P c'
_symmetry_Int_Tables_number      7
_space_group_name_Hall           'P -2yc'
loop_
_symmetry_equiv_pos_site_id
_symmetry_equiv_pos_as_xyz
1 x,y,z
2 x,-y,1/2+z
_cell_length_a                   6.7191(5)
_cell_length_b                   14.0805(11)
_cell_length_c                   9.0468(7)
_cell_angle_alpha                90
_cell_angle_beta                 90.600(2)
_cell_angle_gamma                90
_cell_volume                     855.855
loop_
_atom_site_label
_atom_site_type_symbol
_atom_site_fract_x
_atom_site_fract_y
_atom_site_fract_z
Zn1 Zn 0.95011(6) 0.30809(3) 0.31765(6)
Zn2 Zn 1.45735(6) 0.20502(3) 0.86319(5)
Cl1 Cl 0.6498(2) 0.31946(9) 0.40725(19)
Cl2 Cl 1.6301(2) 0.32637(12) 0.9542(2)
N1 N 1.1514(6) 0.2588(2) 0.4689(4)
N2 N 1.1390(6) 0.0954(2) 0.0302(5)
C1 C 1.2160(6) 0.2894(2) 0.5981(5)
N3 N 1.2344(6) 0.1713(2) 0.4501(5)
N4 N 1.1569(5) 0.2475(3) 0.0746(5)
N5 N 1.0127(5) 0.2130(2) 0.1565(4)
C2 C 0.8696(6) 0.0491(3) 0.1962(5)
N6 N 1.3420(6) 0.1518(2) 0.5645(5)
C3 C 1.0056(6) 0.1197(3) 0.1300(5)
N7 N 1.3330(6) 0.2259(2) 0.6611(4)
C4 C 1.1622(7) 0.3840(3) 0.6580(5)
C5 C 1.2954(8) 0.4561(3) 0.6659(9)
H1 H 1.4270 0.4463 0.6388
C6 C 0.9736(9) 0.4032(4) 0.6995(9)
H2 H 0.8771 0.3559 0.6938
C7 C 0.7027(8) 0.0723(3) 0.2737(7)
H3 H 0.6674 0.1355 0.2879
C8 C 0.9237(9) 0.4920(3) 0.7501(9)
H4 H 0.7942 0.5027 0.7815
N8 N 1.0509(6) 0.5620(2) 0.7556(5)
C9 C 1.2341(7) 0.5445(3) 0.7147(9)
H5 H 1.3268 0.5936 0.7187
N9 N 1.2315(6) 0.1768(2) -0.0006(5)
C10 C 0.5875(8) -0.0003(3) 0.3305(7)
H6 H 0.4742 0.0156 0.3832
N10 N 0.6315(5) -0.0913(3) 0.3132(5)
C11 C 0.7927(9) -0.1116(3) 0.2393(8)
H7 H 0.8264 -0.1751 0.2271
C12 C 0.9134(8) -0.0444(4) 0.1796(8)
H8 H 1.0258 -0.0626 0.1275
N8A N 1.0509(6) 0.4380(2) 0.2556(5)
N9_2 N 1.2315(6) 0.1768(2) 0.9994(5)
N10A N 1.6315(5) 0.0913(3) 0.8132(5)
Zn1A Zn 0.95011(6) 0.69191(3) 0.81765(6)
Zn2_2 Zn 1.45735(6) 0.20502(3) -0.13681(5)
Zn2A Zn 0.45735(6) -0.20502(3) 0.36319(5)
loop_
_geom_bond_atom_site_label_1
_geom_bond_atom_site_label_2
_geom_bond_site_symmetry_1
_geom_bond_site_symmetry_2
Zn1 Cl1 1_555 1_555
Zn2 Cl2 1_555 1_555
N1 Zn1 1_555 1_555
N2 C3 1_555 1_555
C1 N1 1_555 1_555
N3 N1 1_555 1_555
N4 N5 1_555 1_555
N5 Zn1 1_555 1_555
C2 C3 1_555 1_555
N6 N3 1_555 1_555
C3 N5 1_555 1_555
N7 Zn2 1_555 1_555
C4 C1 1_555 1_555
C5 C4 1_555 1_555
H1 C5 1_555 1_555
C6 C4 1_555 1_555
H2 C6 1_555 1_555
C7 C2 1_555 1_555
H3 C7 1_555 1_555
C8 C6 1_555 1_555
H4 C8 1_555 1_555
N8 C8 1_555 1_555
C9 C5 1_555 1_555
H5 C9 1_555 1_555
N9 N2 1_555 1_555
C10 C7 1_555 1_555
H6 C10 1_555 1_555
N10 C10 1_555 1_555
C11 N10 1_555 1_555
H7 C11 1_555 1_555
C12 C2 1_555 1_555
H8 C12 1_555 1_555
N8A Zn1 1_555 1_555
N9_2 Zn2 1_555 1_555
N10A Zn2 1_555 1_555
Zn1A N8 1_555 1_555
Zn2_2 N9 1_555 1_555
Zn2A N10 1_555 1_555
C1 N7 1_555 1_555
N4 N9 1_555 1_555
N6 N7 1_555 1_555
N8 C9 1_555 1_555
C11 C12 1_555 1_555

#END
