
#######################################################################
#
#                 Cambridge Crystallographic Data Centre
#                                CCDC 
#
#######################################################################
#
# If this CIF has been generated from an entry in the Cambridge 
# Structural Database, then it will include bibliographic, chemical, 
# crystal, experimental, refinement or atomic coordinate data resulting 
# from the CCDC's data processing and validation procedures.
#
#######################################################################

data_LUGLII
_symmetry_cell_setting           orthorhombic
_symmetry_space_group_name_H-M   'F d d 2'
_symmetry_Int_Tables_number      43
_space_group_name_Hall           'F 2 -2d'
loop_
_symmetry_equiv_pos_site_id
_symmetry_equiv_pos_as_xyz
1 x,y,z
2 -x,-y,z
3 1/4+x,1/4-y,1/4+z
4 1/4-x,1/4+y,1/4+z
5 x,1/2+y,1/2+z
6 -x,1/2-y,1/2+z
7 1/4+x,3/4-y,3/4+z
8 1/4-x,3/4+y,3/4+z
9 1/2+x,y,1/2+z
10 1/2-x,-y,1/2+z
11 3/4+x,1/4-y,3/4+z
12 3/4-x,1/4+y,3/4+z
13 1/2+x,1/2+y,z
14 1/2-x,1/2-y,z
15 3/4+x,3/4-y,1/4+z
16 3/4-x,3/4+y,1/4+z
_cell_length_a                   19.595(4)
_cell_length_b                   40.930(8)
_cell_length_c                   3.5085(7)
_cell_angle_alpha                90
_cell_angle_beta                 90
_cell_angle_gamma                90
_cell_volume                     2813.9
loop_
_atom_site_label
_atom_site_type_symbol
_atom_site_fract_x
_atom_site_fract_y
_atom_site_fract_z
Zn1 Zn 0.06743(3) 0.044342(14) 0.37942(16)
O1 O 0.04559(16) 0.06366(8) -0.1202(12)
N1 N 0.16908(19) 0.06446(10) 0.3726(15)
C1 C 0.2246(2) 0.04899(12) 0.2415(15)
H1 H 0.2200 0.0277 0.1532
C2 C 0.1760(2) 0.09558(13) 0.4875(14)
H2 H 0.1379 0.1066 0.5786
C3 C 0.2888(2) 0.06346(11) 0.2320(14)
C4 C 0.3472(2) 0.04394(11) 0.1007(15)
C5 C 0.2948(2) 0.09565(12) 0.3462(18)
H3 H 0.3368 0.1063 0.3362
N2 N 0.4076(2) 0.05616(10) -0.0053(13)
N3 N 0.34558(19) 0.01144(10) 0.0760(14)
N4 N 0.44540(18) 0.02993(10) -0.0981(16)
C6 C 0.2377(3) 0.11166(13) 0.4748(17)
H4 H 0.2406 0.1333 0.5531
N5 N 0.4076(2) 0.00369(10) -0.0479(13)
H5 H 0.010(3) 0.0674(14) -0.08(2)
O1_2 O 0.04559(16) 0.06366(8) 0.8798(12)
N4H N -0.05460(18) 0.02993(10) 0.4019(16)
N5I N 0.0924(2) -0.00369(10) 0.4521(13)
Zn1_2 Zn 0.06743(3) 0.044342(14) -0.62058(16)
Zn1H Zn 0.56743(3) 0.044342(14) -0.12058(16)
Zn1I Zn 0.43257(3) -0.044342(14) -0.12058(16)
H5_2 H 0.010(3) 0.0674(14) 0.92(2)
loop_
_geom_bond_atom_site_label_1
_geom_bond_atom_site_label_2
_geom_bond_site_symmetry_1
_geom_bond_site_symmetry_2
Zn1 O1 1_555 1_555
O1 H5 1_555 1_555
N1 Zn1 1_555 1_555
C1 N1 1_555 1_555
H1 C1 1_555 1_555
C2 N1 1_555 1_555
H2 C2 1_555 1_555
C3 C1 1_555 1_555
C4 C3 1_555 1_555
C5 C3 1_555 1_555
H3 C5 1_555 1_555
N2 C4 1_555 1_555
N3 C4 1_555 1_555
N4 N2 1_555 1_555
C6 C2 1_555 1_555
H4 C6 1_555 1_555
N5 N3 1_555 1_555
O1_2 Zn1 1_555 1_555
N4H Zn1 1_555 1_555
N5I Zn1 1_555 1_555
Zn1_2 O1 1_555 1_555
Zn1H N4 1_555 1_555
Zn1I N5 1_555 1_555
H5_2 O1_2 1_555 1_555
C5 C6 1_555 1_555
N4 N5 1_555 1_555

#END
