
#######################################################################
#
#                 Cambridge Crystallographic Data Centre
#                                CCDC 
#
#######################################################################
#
# If this CIF has been generated from an entry in the Cambridge 
# Structural Database, then it will include bibliographic, chemical, 
# crystal, experimental, refinement or atomic coordinate data resulting 
# from the CCDC's data processing and validation procedures.
#
#######################################################################

data_LUGPOT
_symmetry_cell_setting           triclinic
_symmetry_space_group_name_H-M   'P -1'
_symmetry_Int_Tables_number      2
_space_group_name_Hall           '-P 1'
loop_
_symmetry_equiv_pos_site_id
_symmetry_equiv_pos_as_xyz
1 x,y,z
2 -x,-y,-z
_cell_length_a                   8.6192(13)
_cell_length_b                   8.9562(14)
_cell_length_c                   11.3603(18)
_cell_angle_alpha                92.791(2)
_cell_angle_beta                 110.264(2)
_cell_angle_gamma                91.498(2)
_cell_volume                     820.842
loop_
_atom_site_label
_atom_site_type_symbol
_atom_site_fract_x
_atom_site_fract_y
_atom_site_fract_z
Co1 Co 0.5000 0.5000 0.5000
C1 C 0.3057(3) 0.7571(3) 0.4242(3)
C2 C 0.2300(3) 0.6862(3) 0.5113(3)
C3 C 0.1052(4) 0.7505(3) 0.5418(3)
H1 H 0.0589 0.8370 0.5051
C4 C 0.0494(4) 0.6844(3) 0.6284(3)
H2 H -0.0342 0.7270 0.6511
C5 C 0.1183(3) 0.5551(3) 0.6807(2)
C6 C 0.2423(3) 0.4958(3) 0.6419(3)
H3 H 0.2879 0.4073 0.6749
C7 C 0.0634(3) 0.4821(3) 0.7786(3)
N1 N 0.2986(3) 0.5600(2) 0.5597(2)
O1 O 0.4265(2) 0.6928(2) 0.40825(19)
O2 O 0.2483(3) 0.8739(2) 0.3755(2)
O3 O 0.1365(3) 0.3691(2) 0.8260(2)
O4 O -0.0488(3) 0.5418(2) 0.8073(2)
O5 O 0.3449(3) 0.3752(3) 0.3439(2)
H8 H 0.245(4) 0.394(4) 0.300(3)
H9 H 0.365(5) 0.297(5) 0.324(4)
C1A C 0.6943(3) 0.2429(3) 0.5758(3)
C2A C 0.7700(3) 0.3138(3) 0.4887(3)
C3A C 0.8948(4) 0.2495(3) 0.4582(3)
H1A H 0.9411 0.1630 0.4949
C4A C 0.9506(4) 0.3156(3) 0.3716(3)
H2A H 1.0342 0.2730 0.3489
C5A C 0.8817(3) 0.4449(3) 0.3193(2)
C6A C 0.7577(3) 0.5042(3) 0.3581(3)
H3A H 0.7121 0.5927 0.3251
C7A C 0.9366(3) 0.5179(3) 0.2214(3)
N1A N 0.7014(3) 0.4400(2) 0.4403(2)
O1A O 0.5735(2) 0.3072(2) 0.59175(19)
O2A O 0.7517(3) 0.1261(2) 0.6245(2)
O3A O 0.8635(3) 0.6309(2) 0.1740(2)
O4A O 1.0488(3) 0.4582(2) 0.1927(2)
O5A O 0.6551(3) 0.6248(3) 0.6561(2)
H8A H 0.755(4) 0.606(4) 0.700(3)
H9A H 0.635(5) 0.703(5) 0.676(4)
Co2 Co 0.0000 1.0000 1.0000
C8 C 0.3072(4) 0.7169(3) 1.1088(3)
H4 H 0.2540 0.7256 1.1672
C9 C 0.3798(4) 0.5867(3) 1.0938(3)
H5 H 0.3747 0.5072 1.1422
C10 C 0.4603(3) 0.5710(3) 1.0083(3)
C11 C 0.4617(4) 0.6915(3) 0.9371(3)
H6 H 0.5133 0.6847 0.8775
C12 C 0.3876(4) 0.8214(3) 0.9533(3)
H7 H 0.3894 0.9017 0.9048
N2 N 0.3131(3) 0.8324(2) 1.0385(2)
O6 O 0.2499(2) 0.9624(2) 1.05750(19)
O7 O 0.0735(3) 1.2307(3) 1.0172(3)
H10 H 0.081(5) 1.274(4) 0.961(4)
H11 H 0.060(5) 1.279(4) 1.061(4)
O8 O -0.0131(3) 0.9777(2) 0.8124(2)
H12 H -0.084(5) 1.014(5) 0.756(4)
H13 H 0.066(4) 1.012(4) 0.801(4)
Co2_2 Co 1.0000 0.0000 1.0000
C8A C 0.6928(4) 0.2831(3) 0.8912(3)
H4A H 0.7460 0.2744 0.8328
C9A C 0.6202(4) 0.4133(3) 0.9062(3)
H5A H 0.6253 0.4928 0.8578
C10A C 0.5397(3) 0.4290(3) 0.9917(3)
C11A C 0.5383(4) 0.3085(3) 1.0629(3)
H6A H 0.4867 0.3153 1.1225
C12A C 0.6124(4) 0.1786(3) 1.0467(3)
H7A H 0.6106 0.0983 1.0952
N2A N 0.6869(3) 0.1676(2) 0.9615(2)
O6A O 0.7501(2) 0.0376(2) 0.94250(19)
O6A_2 O -0.2499(2) 1.0376(2) 0.94250(19)
O7A O -0.0735(3) 0.7693(3) 0.9828(3)
H10A H -0.081(5) 0.726(4) 1.039(4)
H11A H -0.060(5) 0.721(4) 0.939(4)
O8A O 0.0131(3) 1.0223(2) 1.1876(2)
H12A H 0.084(5) 0.986(5) 1.244(4)
H13A H -0.066(4) 0.988(4) 1.199(4)
O9 O 0.2588(4) 0.1025(3) 0.7812(3)
H14 H 0.236(5) 0.096(4) 0.699(3)
H15 H 0.227(5) 0.185(4) 0.784(4)
O10 O 0.4432(4) 0.1149(3) 0.2772(3)
H16 H 0.484(5) 0.054(5) 0.318(4)
H17 H 0.377(5) 0.081(4) 0.215(4)
O11 O 0.6896(6) 0.8958(4) 0.4409(4)
H18 H 0.616(7) 0.824(7) 0.440(6)
H19 H 0.720(7) 0.968(7) 0.505(6)
loop_
_geom_bond_atom_site_label_1
_geom_bond_atom_site_label_2
_geom_bond_site_symmetry_1
_geom_bond_site_symmetry_2
Co1 N1 1_555 1_555
Co2 O6 1_555 1_555
C1 C2 1_555 1_555
C2 C3 1_555 1_555
C3 H1 1_555 1_555
C4 C3 1_555 1_555
H2 C4 1_555 1_555
C5 C4 1_555 1_555
C6 C5 1_555 1_555
H3 C6 1_555 1_555
C7 C5 1_555 1_555
C8 H4 1_555 1_555
C9 C8 1_555 1_555
H5 C9 1_555 1_555
C10 C9 1_555 1_555
C11 C10 1_555 1_555
H6 C11 1_555 1_555
C12 C11 1_555 1_555
H7 C12 1_555 1_555
N1 C2 1_555 1_555
N2 C8 1_555 1_555
O1 Co1 1_555 1_555
O2 C1 1_555 1_555
O3 C7 1_555 1_555
O4 C7 1_555 1_555
O5 Co1 1_555 1_555
H8 O5 1_555 1_555
H9 O5 1_555 1_555
O6 N2 1_555 1_555
O7 Co2 1_555 1_555
H10 O7 1_555 1_555
H11 O7 1_555 1_555
O8 Co2 1_555 1_555
H12 O8 1_555 1_555
H13 O8 1_555 1_555
O9 H14 1_555 1_555
H15 O9 1_555 1_555
O10 H16 1_555 1_555
H17 O10 1_555 1_555
O11 H18 1_555 1_555
H19 O11 1_555 1_555
Co2_2 O6A 1_555 1_555
C1A C2A 1_555 1_555
C2A C3A 1_555 1_555
C3A H1A 1_555 1_555
C4A C3A 1_555 1_555
H2A C4A 1_555 1_555
C5A C4A 1_555 1_555
C6A C5A 1_555 1_555
H3A C6A 1_555 1_555
C7A C5A 1_555 1_555
C8A H4A 1_555 1_555
C9A C8A 1_555 1_555
H5A C9A 1_555 1_555
C10A C10 1_555 1_555
C11A C10A 1_555 1_555
H6A C11A 1_555 1_555
C12A C11A 1_555 1_555
H7A C12A 1_555 1_555
N1A Co1 1_555 1_555
N2A C8A 1_555 1_555
O1A Co1 1_555 1_555
O2A C1A 1_555 1_555
O3A C7A 1_555 1_555
O4A C7A 1_555 1_555
O5A Co1 1_555 1_555
H8A O5A 1_555 1_555
H9A O5A 1_555 1_555
O6A N2A 1_555 1_555
O6A_2 Co2 1_555 1_555
O7A Co2 1_555 1_555
H10A O7A 1_555 1_555
H11A O7A 1_555 1_555
O8A Co2 1_555 1_555
H12A O8A 1_555 1_555
H13A O8A 1_555 1_555
C1 O1 1_555 1_555
C6 N1 1_555 1_555
C12 N2 1_555 1_555
C1A O1A 1_555 1_555
C2A N1A 1_555 1_555
C6A N1A 1_555 1_555
C9A C10A 1_555 1_555
C12A N2A 1_555 1_555

#END
