
#######################################################################
#
#                 Cambridge Crystallographic Data Centre
#                                CCDC 
#
#######################################################################
#
# If this CIF has been generated from an entry in the Cambridge 
# Structural Database, then it will include bibliographic, chemical, 
# crystal, experimental, refinement or atomic coordinate data resulting 
# from the CCDC's data processing and validation procedures.
#
#######################################################################

data_LUGPUZ
_symmetry_cell_setting           triclinic
_symmetry_space_group_name_H-M   'P -1'
_symmetry_Int_Tables_number      2
_space_group_name_Hall           '-P 1'
loop_
_symmetry_equiv_pos_site_id
_symmetry_equiv_pos_as_xyz
1 x,y,z
2 -x,-y,-z
_cell_length_a                   10.491(2)
_cell_length_b                   13.504(3)
_cell_length_c                   13.728(3)
_cell_angle_alpha                105.923(3)
_cell_angle_beta                 90.982(2)
_cell_angle_gamma                111.032(3)
_cell_volume                     1731.1
loop_
_atom_site_label
_atom_site_type_symbol
_atom_site_fract_x
_atom_site_fract_y
_atom_site_fract_z
Cu1 Cu 0.43511(6) 0.26044(6) -0.10336(5)
Gd1 Gd 0.30016(2) 0.68166(2) 0.469130(18)
C1 C 0.3963(5) 0.4348(4) 0.0703(4)
H1 H 0.4913 0.4724 0.0818
C2 C 0.3160(5) 0.4759(4) 0.1359(4)
C3 C 0.3818(5) 0.5807(4) 0.2246(4)
C4 C 0.1744(6) 0.4183(5) 0.1176(5)
H2 H 0.1183 0.4431 0.1614
C5 C 0.1163(6) 0.3243(5) 0.0348(4)
H3 H 0.0215 0.2856 0.0216
C6 C 0.2032(5) 0.2893(4) -0.0279(4)
C7 C 0.1550(6) 0.1851(5) -0.1180(4)
C8 C 0.7028(5) 0.2945(5) -0.0469(4)
C9 C 0.6485(5) 0.1845(4) -0.1320(4)
C10 C 0.7260(5) 0.1220(5) -0.1669(4)
H4 H 0.8179 0.1467 -0.1402
C11 C 0.6643(6) 0.0214(5) -0.2430(4)
H5 H 0.7142 -0.0228 -0.2677
C12 C 0.5278(6) -0.0127(4) -0.2818(4)
C13 C 0.4565(6) -0.1213(5) -0.3640(4)
C14 C 0.4560(5) 0.0558(4) -0.2426(4)
H6 H 0.3644 0.0340 -0.2685
C15 C 0.0640(6) 0.8170(5) 0.6511(4)
H7 H 0.1109 0.8016 0.6995
C16 C 0.0247(7) 0.9061(5) 0.6802(5)
H8 H 0.0477 0.9526 0.7471
C17 C -0.0501(8) 0.9261(6) 0.6083(6)
H9 H -0.0784 0.9859 0.6263
C18 C -0.0814(7) 0.8550(6) 0.5092(6)
H10 H -0.1348 0.8649 0.4607
C19 C -0.0345(6) 0.7708(5) 0.4828(5)
C20 C -0.0609(6) 0.6965(5) 0.3768(5)
C21 C -0.1930(7) 0.6358(6) 0.3247(6)
H11 H -0.2699 0.6382 0.3565
C22 C -0.2070(8) 0.5716(7) 0.2243(6)
H12 H -0.2944 0.5283 0.1887
C23 C -0.0939(9) 0.5715(6) 0.1773(5)
H13 H -0.1041 0.5287 0.1096
C24 C 0.0356(7) 0.6347(5) 0.2300(4)
H14 H 0.1130 0.6357 0.1977
N1 N 0.5163(4) 0.1516(4) -0.1689(3)
N2 N 0.3410(4) 0.3420(4) -0.0095(3)
N4 N 0.0502(5) 0.6948(4) 0.3279(3)
N5 N 0.0358(5) 0.7515(4) 0.5539(4)
O1 O 0.6148(4) 0.3390(3) -0.0218(3)
O2 O 0.8228(4) 0.3323(4) -0.0084(3)
O3 O 0.5131(4) -0.1887(3) -0.3881(3)
O4 O 0.3386(4) -0.1397(3) -0.4078(3)
O5 O 0.2489(4) 0.1647(4) -0.1668(3)
O6 O 0.0318(4) 0.1259(4) -0.1365(4)
O7 O 0.3074(4) 0.5944(3) 0.2932(3)
O8 O 0.5011(4) 0.6453(3) 0.2236(3)
O9 O 0.1762(4) 0.7561(3) 0.3768(3)
O10 O 0.0752(4) 0.6654(3) 0.5279(3)
O11 O 0.2799(5) 0.6143(4) 0.6171(3)
H18 H 0.253(8) 0.646(6) 0.668(4)
H19 H 0.333(7) 0.593(6) 0.642(5)
O12 O 0.4735(5) 0.6014(4) 0.4631(3)
H20 H 0.529(6) 0.614(6) 0.512(4)
H21 H 0.478(8) 0.549(4) 0.418(4)
O13 O 0.4819(4) 0.8082(4) 0.4028(3)
H22 H 0.494(7) 0.766(5) 0.351(4)
H23 H 0.557(4) 0.849(5) 0.435(5)
O14 O 0.1362(5) 0.4920(4) 0.4075(4)
H24 H 0.078(6) 0.455(5) 0.437(6)
H25 H 0.193(6) 0.462(6) 0.400(6)
Cu1A Cu 0.56489(6) 0.73956(6) 0.10336(5)
Cu1_2 Cu 0.43511(6) 1.26044(6) 0.89664(5)
Gd1A Gd 0.69984(2) 0.31834(2) -0.469130(18)
Gd1_2 Gd 0.30016(2) -0.31834(2) -0.530870(18)
C1A C 0.6037(5) 0.5652(4) -0.0703(4)
H1A H 0.5087 0.5276 -0.0818
C2A C 0.6840(5) 0.5241(4) -0.1359(4)
C3A C 0.6182(5) 0.4193(4) -0.2246(4)
C4A C 0.8256(6) 0.5817(5) -0.1176(5)
H2A H 0.8817 0.5569 -0.1614
C5A C 0.8837(6) 0.6757(5) -0.0348(4)
H3A H 0.9785 0.7144 -0.0216
C6A C 0.7968(5) 0.7107(4) 0.0279(4)
C7A C 0.8450(6) 0.8149(5) 0.1180(4)
C8_2 C 0.7028(5) 1.2945(5) 0.9531(4)
C9_2 C 0.6485(5) 1.1845(4) 0.8680(4)
C10_2 C 0.7260(5) 1.1220(5) 0.8331(4)
H4_2 H 0.8179 1.1467 0.8598
C11_2 C 0.6643(6) 1.0214(5) 0.7570(4)
H5_2 H 0.7142 0.9772 0.7323
C12_2 C 0.5278(6) 0.9873(4) 0.7182(4)
C13_2 C 0.4565(6) 0.8787(5) 0.6360(4)
C14_2 C 0.4560(5) 1.0558(4) 0.7574(4)
H6_2 H 0.3644 1.0340 0.7315
C15A C 0.9360(6) 0.1830(5) -0.6511(4)
H7A H 0.8891 0.1984 -0.6995
C16A C 0.9753(7) 0.0939(5) -0.6802(5)
H8A H 0.9523 0.0474 -0.7471
C17A C 1.0501(8) 0.0739(6) -0.6083(6)
H9A H 1.0784 0.0141 -0.6263
C18A C 1.0814(7) 0.1450(6) -0.5092(6)
H10A H 1.1348 0.1351 -0.4607
C19A C 1.0345(6) 0.2292(5) -0.4828(5)
C20A C 1.0609(6) 0.3035(5) -0.3768(5)
C21A C 1.1930(7) 0.3642(6) -0.3247(6)
H11A H 1.2699 0.3618 -0.3565
C22A C 1.2070(8) 0.4284(7) -0.2243(6)
H12A H 1.2944 0.4717 -0.1887
C23A C 1.0939(9) 0.4285(6) -0.1773(5)
H13A H 1.1041 0.4713 -0.1096
C24A C 0.9644(7) 0.3653(5) -0.2300(4)
H14A H 0.8870 0.3643 -0.1977
N1_2 N 0.5163(4) 1.1516(4) 0.8311(3)
N1A N 0.4837(4) 0.8484(4) 0.1689(3)
N2A N 0.6590(4) 0.6580(4) 0.0095(3)
N4A N 0.9498(5) 0.3052(4) -0.3279(3)
N5A N 0.9642(5) 0.2485(4) -0.5539(4)
O1_2 O 0.6148(4) 1.3390(3) 0.9782(3)
O1A O 0.3852(4) 0.6610(3) 0.0218(3)
O2_2 O 0.8228(4) 1.3323(4) 0.9916(3)
O3_2 O 0.5131(4) 0.8113(3) 0.6119(3)
O3A O 0.4869(4) 0.1887(3) -0.6119(3)
O4_2 O 0.3386(4) 0.8603(3) 0.5922(3)
O4A O 0.6614(4) 0.1397(3) -0.5922(3)
O5A O 0.7511(4) 0.8353(4) 0.1668(3)
O6A O 0.9682(4) 0.8741(4) 0.1365(4)
O7A O 0.6926(4) 0.4056(3) -0.2932(3)
O8A O 0.4989(4) 0.3547(3) -0.2236(3)
O9A O 0.8238(4) 0.2439(3) -0.3768(3)
O10A O 0.9248(4) 0.3346(3) -0.5279(3)
O11A O 0.7201(5) 0.3857(4) -0.6171(3)
H18A H 0.747(8) 0.354(6) -0.668(4)
H19A H 0.667(7) 0.407(6) -0.642(5)
O12A O 0.5265(5) 0.3986(4) -0.4631(3)
H20A H 0.471(6) 0.386(6) -0.512(4)
H21A H 0.522(8) 0.451(4) -0.418(4)
O13A O 0.5181(4) 0.1918(4) -0.4028(3)
H22A H 0.506(7) 0.234(5) -0.351(4)
H23A H 0.443(4) 0.151(5) -0.435(5)
O14A O 0.8638(5) 0.5080(4) -0.4075(4)
H24A H 0.922(6) 0.545(5) -0.437(6)
H25A H 0.807(6) 0.538(6) -0.400(6)
Cu2 Cu 0.0000 0.0000 0.0000
C25 C 0.2318(6) -0.0383(5) -0.0538(4)
C26 C 0.2818(5) 0.0667(5) 0.0364(4)
C27 C 0.4186(6) 0.1285(5) 0.0758(4)
H15 H 0.4881 0.1080 0.0466
C28 C 0.4492(6) 0.2211(5) 0.1592(4)
H16 H 0.5406 0.2657 0.1853
C29 C 0.3435(6) 0.2483(4) 0.2047(4)
C30 C 0.3689(6) 0.3464(5) 0.2987(4)
C31 C 0.2098(5) 0.1834(5) 0.1603(4)
H17 H 0.1383 0.2015 0.1890
N3 N 0.1798(4) 0.0952(4) 0.0773(3)
O15 O 0.4859(4) 0.4174(4) 0.3252(4)
O16 O 0.2655(6) 0.3469(4) 0.3420(4)
O17 O 0.1010(4) -0.0801(3) -0.0808(3)
O18 O 0.3142(4) -0.0759(4) -0.0942(3)
C25A C -0.2318(6) 0.0383(5) 0.0538(4)
C26A C -0.2818(5) -0.0667(5) -0.0364(4)
C27A C -0.4186(6) -0.1285(5) -0.0758(4)
H15A H -0.4881 -0.1080 -0.0466
C28A C -0.4492(6) -0.2211(5) -0.1592(4)
H16A H -0.5406 -0.2657 -0.1853
C29A C -0.3435(6) -0.2483(4) -0.2047(4)
C30A C -0.3689(6) -0.3464(5) -0.2987(4)
C31A C -0.2098(5) -0.1834(5) -0.1603(4)
H17A H -0.1383 -0.2015 -0.1890
N3A N -0.1798(4) -0.0952(4) -0.0773(3)
O15A O -0.4859(4) -0.4174(4) -0.3252(4)
O16A O -0.2655(6) -0.3469(4) -0.3420(4)
O17A O -0.1010(4) 0.0801(3) 0.0808(3)
O18A O -0.3142(4) 0.0759(4) 0.0942(3)
O19 O 0.8089(6) 0.3028(5) 0.1983(4)
H26 H 0.758(9) 0.240(3) 0.165(6)
H27 H 0.835(10) 0.336(6) 0.156(5)
O20 O 0.7137(6) -0.0022(4) 0.5001(5)
H28 H 0.734(11) 0.041(6) 0.558(3)
H29 H 0.701(11) 0.035(7) 0.464(5)
loop_
_geom_bond_atom_site_label_1
_geom_bond_atom_site_label_2
_geom_bond_site_symmetry_1
_geom_bond_site_symmetry_2
Cu1 N1 1_555 1_555
Cu2 N3 1_555 1_555
Gd1 O7 1_555 1_555
C1 H1 1_555 1_555
C2 C1 1_555 1_555
C3 C2 1_555 1_555
C4 C2 1_555 1_555
H2 C4 1_555 1_555
C5 C4 1_555 1_555
H3 C5 1_555 1_555
C6 C5 1_555 1_555
C7 C6 1_555 1_555
C8 C9 1_555 1_555
C9 C10 1_555 1_555
C10 H4 1_555 1_555
C11 C10 1_555 1_555
H5 C11 1_555 1_555
C12 C11 1_555 1_555
C13 C12 1_555 1_555
C14 C12 1_555 1_555
H6 C14 1_555 1_555
C15 H7 1_555 1_555
C16 C15 1_555 1_555
H8 C16 1_555 1_555
C17 C16 1_555 1_555
H9 C17 1_555 1_555
C18 C17 1_555 1_555
H10 C18 1_555 1_555
C19 C18 1_555 1_555
C20 C19 1_555 1_555
C21 C20 1_555 1_555
H11 C21 1_555 1_555
C22 C21 1_555 1_555
H12 C22 1_555 1_555
C23 C22 1_555 1_555
H13 C23 1_555 1_555
C24 C23 1_555 1_555
H14 C24 1_555 1_555
C25 C26 1_555 1_555
C26 C27 1_555 1_555
C27 H15 1_555 1_555
C28 C27 1_555 1_555
H16 C28 1_555 1_555
C29 C28 1_555 1_555
C30 C29 1_555 1_555
C31 C29 1_555 1_555
H17 C31 1_555 1_555
N1 C9 1_555 1_555
N2 Cu1 1_555 1_555
N3 C26 1_555 1_555
N4 C20 1_555 1_555
N5 C15 1_555 1_555
O1 Cu1 1_555 1_555
O2 C8 1_555 1_555
O3 C13 1_555 1_555
O4 C13 1_555 1_555
O5 Cu1 1_555 1_555
O6 C7 1_555 1_555
O7 C3 1_555 1_555
O8 C3 1_555 1_555
O9 Gd1 1_555 1_555
O10 Gd1 1_555 1_555
O11 Gd1 1_555 1_555
H18 O11 1_555 1_555
H19 O11 1_555 1_555
O12 Gd1 1_555 1_555
H20 O12 1_555 1_555
H21 O12 1_555 1_555
O13 Gd1 1_555 1_555
H22 O13 1_555 1_555
H23 O13 1_555 1_555
O14 Gd1 1_555 1_555
H24 O14 1_555 1_555
H25 O14 1_555 1_555
O15 C30 1_555 1_555
O16 C30 1_555 1_555
O17 Cu2 1_555 1_555
O18 C25 1_555 1_555
O19 H26 1_555 1_555
H27 O19 1_555 1_555
O20 H28 1_555 1_555
H29 O20 1_555 1_555
Cu1A O8 1_555 1_555
Cu1_2 N1_2 1_555 1_555
Gd1A O3A 1_555 1_555
Gd1_2 O3 1_555 1_555
C1A H1A 1_555 1_555
C2A C1A 1_555 1_555
C3A C2A 1_555 1_555
C4A C2A 1_555 1_555
H2A C4A 1_555 1_555
C5A C4A 1_555 1_555
H3A C5A 1_555 1_555
C6A C5A 1_555 1_555
C7A C6A 1_555 1_555
C8_2 C9_2 1_555 1_555
C9_2 C10_2 1_555 1_555
C10_2 H4_2 1_555 1_555
C11_2 C10_2 1_555 1_555
H5_2 C11_2 1_555 1_555
C12_2 C11_2 1_555 1_555
C13_2 C12_2 1_555 1_555
C14_2 C12_2 1_555 1_555
H6_2 C14_2 1_555 1_555
C15A H7A 1_555 1_555
C16A C15A 1_555 1_555
H8A C16A 1_555 1_555
C17A C16A 1_555 1_555
H9A C17A 1_555 1_555
C18A C17A 1_555 1_555
H10A C18A 1_555 1_555
C19A C18A 1_555 1_555
C20A C19A 1_555 1_555
C21A C20A 1_555 1_555
H11A C21A 1_555 1_555
C22A C21A 1_555 1_555
H12A C22A 1_555 1_555
C23A C22A 1_555 1_555
H13A C23A 1_555 1_555
C24A C23A 1_555 1_555
H14A C24A 1_555 1_555
C25A C26A 1_555 1_555
C26A C27A 1_555 1_555
C27A H15A 1_555 1_555
C28A C27A 1_555 1_555
H16A C28A 1_555 1_555
C29A C28A 1_555 1_555
C30A C29A 1_555 1_555
C31A C29A 1_555 1_555
H17A C31A 1_555 1_555
N1_2 C9_2 1_555 1_555
N1A Cu1A 1_555 1_555
N2A Cu1A 1_555 1_555
N3A Cu2 1_555 1_555
N4A C20A 1_555 1_555
N5A C15A 1_555 1_555
O1_2 Cu1_2 1_555 1_555
O1A Cu1A 1_555 1_555
O2_2 C8_2 1_555 1_555
O3_2 Gd1 1_555 1_555
O4_2 Gd1 1_555 1_555
O4A Gd1A 1_555 1_555
O5A Cu1A 1_555 1_555
O6A C7A 1_555 1_555
O7A Gd1A 1_555 1_555
O8A Cu1 1_555 1_555
O9A Gd1A 1_555 1_555
O10A Gd1A 1_555 1_555
O11A Gd1A 1_555 1_555
H18A O11A 1_555 1_555
H19A O11A 1_555 1_555
O12A Gd1A 1_555 1_555
H20A O12A 1_555 1_555
H21A O12A 1_555 1_555
O13A Gd1A 1_555 1_555
H22A O13A 1_555 1_555
H23A O13A 1_555 1_555
O14A Gd1A 1_555 1_555
H24A O14A 1_555 1_555
H25A O14A 1_555 1_555
O15A C30A 1_555 1_555
O16A C30A 1_555 1_555
O17A Cu2 1_555 1_555
O18A C25A 1_555 1_555
C1 N2 1_555 1_555
C6 N2 1_555 1_555
C7 O5 1_555 1_555
C8 O1 1_555 1_555
C14 N1 1_555 1_555
C19 N5 1_555 1_555
C24 N4 1_555 1_555
C25 O17 1_555 1_555
C31 N3 1_555 1_555
N4 O9 1_555 1_555
N5 O10 1_555 1_555
O4 Gd1_2 1_555 1_555
C1A N2A 1_555 1_555
C3A O7A 1_555 1_555
C3A O8A 1_555 1_555
C6A N2A 1_555 1_555
C7A O5A 1_555 1_555
C8_2 O1_2 1_555 1_555
C13_2 O3_2 1_555 1_555
C13_2 O4_2 1_555 1_555
C14_2 N1_2 1_555 1_555
C19A N5A 1_555 1_555
C24A N4A 1_555 1_555
C25A O17A 1_555 1_555
C26A N3A 1_555 1_555
C31A N3A 1_555 1_555
N4A O9A 1_555 1_555
N5A O10A 1_555 1_555

#END
