
#######################################################################
#
#                 Cambridge Crystallographic Data Centre
#                                CCDC 
#
#######################################################################
#
# If this CIF has been generated from an entry in the Cambridge 
# Structural Database, then it will include bibliographic, chemical, 
# crystal, experimental, refinement or atomic coordinate data resulting 
# from the CCDC's data processing and validation procedures.
#
#######################################################################

data_LUGSAI
_symmetry_cell_setting           triclinic
_symmetry_space_group_name_H-M   'P -1'
_symmetry_Int_Tables_number      2
_space_group_name_Hall           '-P 1'
loop_
_symmetry_equiv_pos_site_id
_symmetry_equiv_pos_as_xyz
1 x,y,z
2 -x,-y,-z
_cell_length_a                   9.945(4)
_cell_length_b                   12.940(5)
_cell_length_c                   13.988(5)
_cell_angle_alpha                81.803(15)
_cell_angle_beta                 77.321(13)
_cell_angle_gamma                80.559(17)
_cell_volume                     1721.75
loop_
_atom_site_label
_atom_site_type_symbol
_atom_site_fract_x
_atom_site_fract_y
_atom_site_fract_z
Ag1 Ag 0.24574(10) -0.53581(8) 0.54294(6)
Fe1 Fe 0.5000 0.0000 0.5000
Fe2 Fe 0.07016(14) -0.74225(12) 0.12551(10)
N1 N 0.4248(8) -0.2723(7) 0.3732(6)
N2 N 0.3974(9) -0.3444(7) 0.4508(5)
N3 N 0.3177(8) -0.4069(7) 0.4284(5)
N4 N 0.1033(10) -0.6393(7) 0.5156(6)
N5 N 0.0594(10) -0.6241(8) 0.4300(6)
N6 N -0.0136(8) -0.7021(7) 0.4294(5)
N7 N 0.6805(7) 0.6321(6) 1.1623(5)
N8 N 0.7224(9) 0.6412(7) 1.2442(6)
N9 N 0.6923(8) 0.5596(6) 1.3090(5)
C1 C 0.3701(10) -0.0036(9) 0.4059(7)
C2 C 0.2980(10) 0.0471(10) 0.4900(8)
C3 C 0.3071(9) -0.0227(9) 0.5746(7)
C4 C 0.3817(11) -0.1192(9) 0.5466(7)
C5 C 0.4226(9) -0.1084(8) 0.4437(6)
C6 C 0.5094(11) -0.1915(9) 0.3812(7)
C7 C 0.3623(10) -0.2855(8) 0.2970(6)
C8 C 0.3592(10) -0.2300(9) 0.2044(7)
C9 C 0.2857(10) -0.2736(9) 0.1505(7)
C10 C 0.2170(10) -0.3618(10) 0.1850(7)
C11 C 0.2212(10) -0.4134(9) 0.2767(7)
C12 C 0.2951(10) -0.3734(8) 0.3358(7)
C13 C 0.0581(9) -0.7304(8) 0.5704(7)
C14 C 0.0731(10) -0.7787(9) 0.6631(7)
C15 C 0.0095(10) -0.8671(9) 0.6975(7)
C16 C -0.0628(10) -0.9076(9) 0.6364(8)
C17 C -0.0795(10) -0.8607(9) 0.5461(7)
C18 C -0.0163(10) -0.7719(9) 0.5135(6)
C19 C -0.0700(11) -0.7070(10) 0.3442(7)
C20 C 0.0189(10) -0.7786(9) 0.2725(7)
C21 C -0.0283(11) -0.8510(9) 0.2244(7)
C22 C 0.0901(13) -0.9018(10) 0.1611(8)
C23 C 0.2087(12) -0.8642(10) 0.1723(7)
C24 C 0.1685(10) -0.7870(9) 0.2410(7)
C25 C 0.1252(13) -0.6003(9) 0.0568(8)
C26 C -0.0219(12) -0.5907(11) 0.0975(9)
C27 C -0.0795(12) -0.6601(13) 0.0549(8)
C28 C 0.0270(11) -0.7129(10) -0.0111(7)
C29 C 0.1535(10) -0.6774(9) -0.0098(7)
C30 C 0.7080(11) 0.7093(9) 1.0746(7)
C31 C 0.6226(9) 0.5393(8) 1.1735(7)
C32 C 0.5694(11) 0.4898(10) 1.1076(7)
C33 C 0.5263(12) 0.3962(11) 1.1450(8)
C34 C 0.5254(11) 0.3516(10) 1.2436(8)
C35 C 0.5761(10) 0.4010(9) 1.3061(7)
C36 C 0.6319(9) 0.4952(8) 1.2664(7)
H1 H 0.3809 0.0255 0.3388
H2 H 0.2540 0.1181 0.4883
H3 H 0.2681 -0.0071 0.6402
H4 H 0.4033 -0.1803 0.5899
H5 H 0.5858 -0.2243 0.4102
H6 H 0.5430 -0.1589 0.3170
H7 H 0.4031 -0.1688 0.1810
H8 H 0.2808 -0.2405 0.0859
H9 H 0.1671 -0.3867 0.1443
H10 H 0.1779 -0.4749 0.3000
H11 H 0.1242 -0.7515 0.7015
H12 H 0.0128 -0.9013 0.7619
H13 H -0.0992 -0.9720 0.6599
H14 H -0.1316 -0.8870 0.5077
H15 H -0.1590 -0.7297 0.3653
H16 H -0.0796 -0.6379 0.3104
H17 H -0.1222 -0.8620 0.2310
H18 H 0.0883 -0.9517 0.1178
H19 H 0.3005 -0.8839 0.1373
H20 H 0.2284 -0.7484 0.2618
H21 H 0.1911 -0.5633 0.0724
H22 H -0.0709 -0.5460 0.1457
H23 H -0.1745 -0.6705 0.0698
H24 H 0.0159 -0.7644 -0.0497
H25 H 0.7064 0.7767 1.0948
H26 H 0.6373 0.7127 1.0379
H27 H 0.5680 0.5202 1.0418
H28 H 0.4935 0.3586 1.1031
H29 H 0.4883 0.2875 1.2671
H30 H 0.5753 0.3725 1.3726
Ag1A Ag 0.75426(10) 0.53581(8) 0.45706(6)
Ag1A_2 Ag 0.75426(10) 0.53581(8) 1.45706(6)
Ag1_2 Ag 0.24574(10) -0.53581(8) -0.45706(6)
Fe2A Fe 0.92984(14) 0.74225(12) 0.87449(10)
N1A N 0.5752(8) 0.2723(7) 0.6268(6)
N2A N 0.6026(9) 0.3444(7) 0.5492(5)
N3A N 0.6823(8) 0.4069(7) 0.5716(5)
N4A N 0.8967(10) 0.6393(7) 0.4844(6)
N5A N 0.9406(10) 0.6241(8) 0.5700(6)
N6A N 1.0136(8) 0.7021(7) 0.5706(5)
N7A N 0.3195(7) -0.6321(6) -0.1623(5)
N8A N 0.2776(9) -0.6412(7) -0.2442(6)
N9A N 0.3077(8) -0.5596(6) 0.6910(5)
N9_2 N 0.6923(8) 0.5596(6) 0.3090(5)
N9A_2 N 0.3077(8) -0.5596(6) -0.3090(5)
C1A C 0.6299(10) 0.0036(9) 0.5941(7)
C2A C 0.7020(10) -0.0471(10) 0.5100(8)
C3A C 0.6929(9) 0.0227(9) 0.4254(7)
C4A C 0.6183(11) 0.1192(9) 0.4534(7)
C5A C 0.5774(9) 0.1084(8) 0.5563(6)
C6A C 0.4906(11) 0.1915(9) 0.6188(7)
C7A C 0.6377(10) 0.2855(8) 0.7030(6)
C8A C 0.6408(10) 0.2300(9) 0.7956(7)
C9A C 0.7143(10) 0.2736(9) 0.8495(7)
C10A C 0.7830(10) 0.3618(10) 0.8150(7)
C11A C 0.7788(10) 0.4134(9) 0.7233(7)
C12A C 0.7049(10) 0.3734(8) 0.6642(7)
C13A C 0.9419(9) 0.7304(8) 0.4296(7)
C14A C 0.9269(10) 0.7787(9) 0.3369(7)
C15A C 0.9905(10) 0.8671(9) 0.3025(7)
C16A C 1.0628(10) 0.9076(9) 0.3636(8)
C17A C 1.0795(10) 0.8607(9) 0.4539(7)
C18A C 1.0163(10) 0.7719(9) 0.4865(6)
C19A C 1.0700(11) 0.7070(10) 0.6558(7)
C20A C 0.9811(10) 0.7786(9) 0.7275(7)
C21A C 1.0283(11) 0.8510(9) 0.7756(7)
C22A C 0.9099(13) 0.9018(10) 0.8389(8)
C23A C 0.7913(12) 0.8642(10) 0.8277(7)
C24A C 0.8315(10) 0.7870(9) 0.7590(7)
C25A C 0.8748(13) 0.6003(9) 0.9432(8)
C26A C 1.0219(12) 0.5907(11) 0.9025(9)
C27A C 1.0795(12) 0.6601(13) 0.9451(8)
C28A C 0.9730(11) 0.7129(10) 1.0111(7)
C29A C 0.8465(10) 0.6774(9) 1.0098(7)
C30A C 0.2920(11) -0.7093(9) -0.0746(7)
C31A C 0.3774(9) -0.5393(8) -0.1735(7)
C32A C 0.4306(11) -0.4898(10) -0.1076(7)
C33A C 0.4737(12) -0.3962(11) -0.1450(8)
C34A C 0.4746(11) -0.3516(10) -0.2436(8)
C35A C 0.4239(10) -0.4010(9) -0.3061(7)
C36A C 0.3681(9) -0.4952(8) -0.2664(7)
H1A H 0.6191 -0.0255 0.6612
H2A H 0.7460 -0.1181 0.5117
H3A H 0.7319 0.0071 0.3598
H4A H 0.5967 0.1803 0.4101
H5A H 0.4142 0.2243 0.5898
H6A H 0.4570 0.1589 0.6830
H7A H 0.5969 0.1688 0.8190
H8A H 0.7192 0.2405 0.9141
H9A H 0.8329 0.3867 0.8557
H10A H 0.8221 0.4749 0.7000
H11A H 0.8758 0.7515 0.2985
H12A H 0.9872 0.9013 0.2381
H13A H 1.0992 0.9720 0.3401
H14A H 1.1316 0.8870 0.4923
H15A H 1.1590 0.7297 0.6347
H16A H 1.0796 0.6379 0.6896
H17A H 1.1222 0.8620 0.7690
H18A H 0.9117 0.9517 0.8822
H19A H 0.6995 0.8839 0.8627
H20A H 0.7716 0.7484 0.7382
H21A H 0.8089 0.5633 0.9276
H22A H 1.0709 0.5460 0.8543
H23A H 1.1745 0.6705 0.9302
H24A H 0.9841 0.7644 1.0497
H25A H 0.2936 -0.7767 -0.0948
H26A H 0.3627 -0.7127 -0.0379
H27A H 0.4320 -0.5202 -0.0418
H28A H 0.5065 -0.3586 -0.1031
H29A H 0.5117 -0.2875 -0.2671
H30A H 0.4247 -0.3725 -0.3726
P1 P 0.6577(3) -0.9533(2) 0.1118(2)
F1 F 0.6788(9) -1.0160(9) 0.0209(5)
F2 F 0.7558(9) -1.0452(9) 0.1614(7)
F3 F 0.5287(8) -1.0139(7) 0.1646(5)
F4 F 0.6348(10) -0.8937(8) 0.2068(5)
F5 F 0.5565(8) -0.8619(6) 0.0659(5)
F6 F 0.7856(9) -0.8931(9) 0.0619(6)
loop_
_geom_bond_atom_site_label_1
_geom_bond_atom_site_label_2
_geom_bond_site_symmetry_1
_geom_bond_site_symmetry_2
Ag1 N3 1_555 1_555
Fe1 C1 1_555 1_555
Fe2 C20 1_555 1_555
P1 F1 1_555 1_555
F2 P1 1_555 1_555
F3 P1 1_555 1_555
F4 P1 1_555 1_555
F5 P1 1_555 1_555
F6 P1 1_555 1_555
N1 N2 1_555 1_555
N2 N3 1_555 1_555
N3 C12 1_555 1_555
N4 Ag1 1_555 1_555
N5 N4 1_555 1_555
N6 N5 1_555 1_555
N7 N8 1_555 1_555
N8 N9 1_555 1_555
N9 C36 1_555 1_555
C1 C2 1_555 1_555
C2 Fe1 1_555 1_555
C3 Fe1 1_555 1_555
C4 Fe1 1_555 1_555
C5 Fe1 1_555 1_555
C6 N1 1_555 1_555
C7 N1 1_555 1_555
C8 C7 1_555 1_555
C9 C8 1_555 1_555
C10 C9 1_555 1_555
C11 C10 1_555 1_555
C12 C7 1_555 1_555
C13 N4 1_555 1_555
C14 C13 1_555 1_555
C15 C14 1_555 1_555
C16 C15 1_555 1_555
C17 C16 1_555 1_555
C18 N6 1_555 1_555
C19 N6 1_555 1_555
C20 C19 1_555 1_555
C21 Fe2 1_555 1_555
C22 Fe2 1_555 1_555
C23 Fe2 1_555 1_555
C24 Fe2 1_555 1_555
C25 Fe2 1_555 1_555
C26 Fe2 1_555 1_555
C27 Fe2 1_555 1_555
C28 Fe2 1_555 1_555
C29 Fe2 1_555 1_555
C30 N7 1_555 1_555
C31 N7 1_555 1_555
C32 C31 1_555 1_555
C33 C32 1_555 1_555
C34 C33 1_555 1_555
C35 C34 1_555 1_555
C36 C31 1_555 1_555
H1 C1 1_555 1_555
H2 C2 1_555 1_555
H3 C3 1_555 1_555
H4 C4 1_555 1_555
H5 C6 1_555 1_555
H6 C6 1_555 1_555
H7 C8 1_555 1_555
H8 C9 1_555 1_555
H9 C10 1_555 1_555
H10 C11 1_555 1_555
H11 C14 1_555 1_555
H12 C15 1_555 1_555
H13 C16 1_555 1_555
H14 C17 1_555 1_555
H15 C19 1_555 1_555
H16 C19 1_555 1_555
H17 C21 1_555 1_555
H18 C22 1_555 1_555
H19 C23 1_555 1_555
H20 C24 1_555 1_555
H21 C25 1_555 1_555
H22 C26 1_555 1_555
H23 C27 1_555 1_555
H24 C28 1_555 1_555
H25 C30 1_555 1_555
H26 C30 1_555 1_555
H27 C32 1_555 1_555
H28 C33 1_555 1_555
H29 C34 1_555 1_555
H30 C35 1_555 1_555
Ag1A N3A 1_555 1_555
Ag1A_2 N9 1_555 1_555
Ag1_2 N9A_2 1_555 1_555
Fe2A C20A 1_555 1_555
N1A N2A 1_555 1_555
N2A N3A 1_555 1_555
N3A C12A 1_555 1_555
N4A Ag1A 1_555 1_555
N5A N4A 1_555 1_555
N6A N5A 1_555 1_555
N7A N8A 1_555 1_555
N8A N9A_2 1_555 1_555
N9A Ag1 1_555 1_555
N9_2 Ag1A 1_555 1_555
N9A_2 C36A 1_555 1_555
C1A Fe1 1_555 1_555
C2A Fe1 1_555 1_555
C3A Fe1 1_555 1_555
C4A Fe1 1_555 1_555
C5A Fe1 1_555 1_555
C6A N1A 1_555 1_555
C7A N1A 1_555 1_555
C8A C7A 1_555 1_555
C9A C8A 1_555 1_555
C10A C9A 1_555 1_555
C11A C10A 1_555 1_555
C12A C7A 1_555 1_555
C13A N4A 1_555 1_555
C14A C13A 1_555 1_555
C15A C14A 1_555 1_555
C16A C15A 1_555 1_555
C17A C16A 1_555 1_555
C18A N6A 1_555 1_555
C19A N6A 1_555 1_555
C20A C19A 1_555 1_555
C21A Fe2A 1_555 1_555
C22A Fe2A 1_555 1_555
C23A Fe2A 1_555 1_555
C24A Fe2A 1_555 1_555
C25A Fe2A 1_555 1_555
C26A Fe2A 1_555 1_555
C27A Fe2A 1_555 1_555
C28A Fe2A 1_555 1_555
C29A C30 1_555 1_555
C30A C29 1_555 1_555
C31A N7A 1_555 1_555
C32A C31A 1_555 1_555
C33A C32A 1_555 1_555
C34A C33A 1_555 1_555
C35A C34A 1_555 1_555
C36A C31A 1_555 1_555
H1A C1A 1_555 1_555
H2A C2A 1_555 1_555
H3A C3A 1_555 1_555
H4A C4A 1_555 1_555
H5A C6A 1_555 1_555
H6A C6A 1_555 1_555
H7A C8A 1_555 1_555
H8A C9A 1_555 1_555
H9A C10A 1_555 1_555
H10A C11A 1_555 1_555
H11A C14A 1_555 1_555
H12A C15A 1_555 1_555
H13A C16A 1_555 1_555
H14A C17A 1_555 1_555
H15A C19A 1_555 1_555
H16A C19A 1_555 1_555
H17A C21A 1_555 1_555
H18A C22A 1_555 1_555
H19A C23A 1_555 1_555
H20A C24A 1_555 1_555
H21A C25A 1_555 1_555
H22A C26A 1_555 1_555
H23A C27A 1_555 1_555
H24A C28A 1_555 1_555
H25A C30A 1_555 1_555
H26A C30A 1_555 1_555
H27A C32A 1_555 1_555
H28A C33A 1_555 1_555
H29A C34A 1_555 1_555
H30A C35A 1_555 1_555
C1 C5 1_555 1_555
C2 C3 1_555 1_555
C3 C4 1_555 1_555
C4 C5 1_555 1_555
C5 C6 1_555 1_555
C11 C12 1_555 1_555
C13 C18 1_555 1_555
C17 C18 1_555 1_555
C20 C21 1_555 1_555
C20 C24 1_555 1_555
C21 C22 1_555 1_555
C22 C23 1_555 1_555
C23 C24 1_555 1_555
C25 C26 1_555 1_555
C25 C29 1_555 1_555
C26 C27 1_555 1_555
C27 C28 1_555 1_555
C28 C29 1_555 1_555
C35 C36 1_555 1_555
Fe2A C29A 1_555 1_555
N7A C30A 1_555 1_555
C1A C2A 1_555 1_555
C1A C5A 1_555 1_555
C2A C3A 1_555 1_555
C3A C4A 1_555 1_555
C4A C5A 1_555 1_555
C5A C6A 1_555 1_555
C11A C12A 1_555 1_555
C13A C18A 1_555 1_555
C17A C18A 1_555 1_555
C20A C21A 1_555 1_555
C20A C24A 1_555 1_555
C21A C22A 1_555 1_555
C22A C23A 1_555 1_555
C23A C24A 1_555 1_555
C25A C26A 1_555 1_555
C25A C29A 1_555 1_555
C26A C27A 1_555 1_555
C27A C28A 1_555 1_555
C28A C29A 1_555 1_555
C35A C36A 1_555 1_555

#END
