
#######################################################################
#
#                 Cambridge Crystallographic Data Centre
#                                CCDC 
#
#######################################################################
#
# If this CIF has been generated from an entry in the Cambridge 
# Structural Database, then it will include bibliographic, chemical, 
# crystal, experimental, refinement or atomic coordinate data resulting 
# from the CCDC's data processing and validation procedures.
#
#######################################################################

data_LUGTOX
_symmetry_cell_setting           monoclinic
_symmetry_space_group_name_H-M   'P 21/c'
_symmetry_Int_Tables_number      14
_space_group_name_Hall           '-P 2ybc'
loop_
_symmetry_equiv_pos_site_id
_symmetry_equiv_pos_as_xyz
1 x,y,z
2 -x,1/2+y,1/2-z
3 -x,-y,-z
4 x,1/2-y,1/2+z
_cell_length_a                   11.8326(4)
_cell_length_b                   8.2663(3)
_cell_length_c                   8.0851(7)
_cell_angle_alpha                90
_cell_angle_beta                 91.930(2)
_cell_angle_gamma                90
_cell_volume                     790.37
loop_
_atom_site_label
_atom_site_type_symbol
_atom_site_fract_x
_atom_site_fract_y
_atom_site_fract_z
Ni1 Ni 0.0000 0.5000 0.0000
N1 N -0.07841(18) 0.7266(2) 0.2844(3)
N2 N 0.13661(18) 0.6642(2) -0.0131(3)
N3 N -0.0544(2) 0.6066(3) 0.2178(3)
C1 C 0.2011(2) 0.9378(3) -0.0220(3)
H1 H 0.1868 1.0464 -0.0011
O1 O 0.4708(2) 0.9695(2) -0.2113(3)
C2 C 0.3879(2) 1.0138(3) -0.1404(4)
C3 C 0.2360(2) 0.6200(3) -0.0739(4)
H2 H 0.2491 0.5105 -0.0915
C4 C 0.3011(2) 0.8921(3) -0.0892(3)
C5 C 0.3694(3) 1.1876(3) -0.1018(5)
H3 H 0.4309 1.2504 -0.1421
H4 H 0.3656 1.2012 0.0157
H5 H 0.2998 1.2231 -0.1543
C6 C 0.1216(2) 0.8220(3) 0.0144(3)
H6 H 0.0544 0.8554 0.0602
C7 C 0.3196(2) 0.7277(3) -0.1116(4)
H7 H 0.3878 0.6911 -0.1516
N4 N -0.1056(2) 0.8418(3) 0.3595(3)
Ni1A Ni 0.0000 0.0000 -0.5000
Ni1A_2 Ni 0.0000 1.0000 0.5000
N1B N 0.07841(18) 0.2734(2) -0.2844(3)
N2B N -0.13661(18) 0.3358(2) 0.0131(3)
N3B N 0.0544(2) 0.3934(3) -0.2178(3)
C1B C -0.2011(2) 0.0622(3) 0.0220(3)
H1B H -0.1868 -0.0464 0.0011
O1B O -0.4708(2) 0.0305(2) 0.2113(3)
C2B C -0.3879(2) -0.0138(3) 0.1404(4)
C3B C -0.2360(2) 0.3800(3) 0.0739(4)
H2B H -0.2491 0.4895 0.0915
C4B C -0.3011(2) 0.1079(3) 0.0892(3)
C5B C -0.3694(3) -0.1876(3) 0.1018(5)
H3B H -0.4309 -0.2504 0.1421
H4B H -0.3656 -0.2012 -0.0157
H5B H -0.2998 -0.2231 0.1543
C6B C -0.1216(2) 0.1780(3) -0.0144(3)
H6B H -0.0544 0.1446 -0.0602
C7B C -0.3196(2) 0.2723(3) 0.1116(4)
H7B H -0.3878 0.3089 0.1516
N4B N 0.1056(2) 0.1582(3) -0.3595(3)
N4A N 0.1056(2) 0.3418(3) 0.1405(3)
N4C N -0.1056(2) 0.6582(3) -0.1405(3)
loop_
_geom_bond_atom_site_label_1
_geom_bond_atom_site_label_2
_geom_bond_site_symmetry_1
_geom_bond_site_symmetry_2
Ni1 N2 1_555 1_555
N1 N3 1_555 1_555
N2 C3 1_555 1_555
N3 Ni1 1_555 1_555
C1 H1 1_555 1_555
O1 C2 1_555 1_555
C2 C4 1_555 1_555
C3 H2 1_555 1_555
C4 C1 1_555 1_555
C5 C2 1_555 1_555
H3 C5 1_555 1_555
H4 C5 1_555 1_555
H5 C5 1_555 1_555
C6 N2 1_555 1_555
H6 C6 1_555 1_555
C7 C3 1_555 1_555
H7 C7 1_555 1_555
N4 N1 1_555 1_555
Ni1A N4B 1_555 1_555
Ni1A_2 N4 1_555 1_555
N1B N3B 1_555 1_555
N2B Ni1 1_555 1_555
N3B Ni1 1_555 1_555
C1B H1B 1_555 1_555
O1B C2B 1_555 1_555
C2B C4B 1_555 1_555
C3B N2B 1_555 1_555
H2B C3B 1_555 1_555
C4B C1B 1_555 1_555
C5B C2B 1_555 1_555
H3B C5B 1_555 1_555
H4B C5B 1_555 1_555
H5B C5B 1_555 1_555
C6B N2B 1_555 1_555
H6B C6B 1_555 1_555
C7B C3B 1_555 1_555
H7B C7B 1_555 1_555
N4B N1B 1_555 1_555
N4A Ni1 1_555 1_555
N4C Ni1 1_555 1_555
C1 C6 1_555 1_555
C4 C7 1_555 1_555
C1B C6B 1_555 1_555
C4B C7B 1_555 1_555

#END
