
#######################################################################
#
#                 Cambridge Crystallographic Data Centre
#                                CCDC 
#
#######################################################################
#
# If this CIF has been generated from an entry in the Cambridge 
# Structural Database, then it will include bibliographic, chemical, 
# crystal, experimental, refinement or atomic coordinate data resulting 
# from the CCDC's data processing and validation procedures.
#
#######################################################################

data_LUGTUD
_symmetry_cell_setting           triclinic
_symmetry_space_group_name_H-M   'P -1'
_symmetry_Int_Tables_number      2
_space_group_name_Hall           '-P 1'
loop_
_symmetry_equiv_pos_site_id
_symmetry_equiv_pos_as_xyz
1 x,y,z
2 -x,-y,-z
_cell_length_a                   6.5631(13)
_cell_length_b                   9.0899(18)
_cell_length_c                   9.4638(19)
_cell_angle_alpha                74.70(3)
_cell_angle_beta                 87.86(3)
_cell_angle_gamma                70.23(3)
_cell_volume                     511.643
loop_
_atom_site_label
_atom_site_type_symbol
_atom_site_fract_x
_atom_site_fract_y
_atom_site_fract_z
Ni1 Ni 0.0000 0.0000 0.0000
Ni2 Ni 0.5000 0.0000 -0.5000
N1 N 0.2321(3) 0.1119(2) -0.7859(2)
N2 N 0.1926(3) 0.1142(2) -0.2880(2)
N3 N 0.5879(3) -0.3879(2) 0.1300(2)
N4 N 0.6347(3) -0.8216(2) 0.4881(2)
N5 N 0.2711(3) -0.2100(2) 0.0650(2)
N6 N 0.3717(3) 0.1186(2) -0.7168(2)
N7 N 0.7819(3) -0.6394(2) 0.4087(2)
N8 N 0.7172(3) -0.6309(3) 0.5437(2)
C1 C 0.4788(3) -0.2311(3) 0.0791(2)
H1 H 0.538(3) -0.153(3) 0.062(2)
C2 C 0.8212(3) -0.4755(3) 0.1623(3)
H2 H 0.887(4) -0.400(3) 0.112(3)
H3 H 0.855(3) -0.565(3) 0.125(2)
N9 N 0.6284(3) -0.7404(3) 0.5910(2)
N10 N 0.2148(3) 0.1329(3) -0.4145(2)
N11 N 0.4455(3) -0.4685(2) 0.1478(2)
N12 N 0.2555(3) -0.3604(2) 0.1091(2)
N13 N 0.1732(3) 0.1018(2) -0.1609(2)
C3 C 0.7313(4) -0.7573(3) 0.3778(3)
H4 H 0.757(4) -0.784(3) 0.291(3)
C4 C 0.8868(4) -0.5279(3) 0.3232(3)
H5 H 0.838(4) -0.434(3) 0.368(3)
H6 H 1.039(4) -0.580(3) 0.334(2)
N14 N 0.0874(3) 0.1159(3) -0.8575(2)
Ni1_2 Ni 0.0000 0.0000 -1.0000
Ni2_2 Ni -0.5000 0.0000 -0.5000
Ni2_3 Ni -0.5000 0.0000 0.5000
Ni2_4 Ni -0.5000 1.0000 -0.5000
Ni2_5 Ni 0.5000 -1.0000 0.5000
N1A N -0.2321(3) -0.1119(2) -0.2141(2)
N2A N -0.1926(3) -0.1142(2) 0.2880(2)
N3A N -0.5879(3) 0.3879(2) -0.1300(2)
N4A N -0.6347(3) 0.8216(2) -0.4881(2)
N4_2 N 0.6347(3) 0.1784(2) -0.5119(2)
N4A_2 N 0.3653(3) -0.1784(2) -0.4881(2)
N5A N -0.2711(3) 0.2100(2) -0.0650(2)
N6A N -0.3717(3) -0.1186(2) -0.2832(2)
N6A_2 N 0.6283(3) -0.1186(2) -0.2832(2)
N7A N -0.7819(3) 0.6394(2) -0.4087(2)
N8A N -0.7172(3) 0.6309(3) -0.5437(2)
C1A C -0.4788(3) 0.2311(3) -0.0791(2)
H1A H -0.538(3) 0.153(3) -0.062(2)
C2A C -0.8212(3) 0.4755(3) -0.1623(3)
H2A H -0.887(4) 0.400(3) -0.112(3)
H3A H -0.855(3) 0.565(3) -0.125(2)
N9A N -0.6284(3) 0.7404(3) -0.5910(2)
N10A N -0.2148(3) -0.1329(3) 0.4145(2)
N10A_2 N 0.7852(3) -0.1329(3) -0.5855(2)
N11A N -0.4455(3) 0.4685(2) -0.1478(2)
N12A N -0.2555(3) 0.3604(2) -0.1091(2)
N13A N -0.1732(3) -0.1018(2) 0.1609(2)
C3A C -0.7313(4) 0.7573(3) -0.3778(3)
H4A H -0.757(4) 0.784(3) -0.291(3)
C4A C -0.8868(4) 0.5279(3) -0.3232(3)
H5A H -0.838(4) 0.434(3) -0.368(3)
H6A H -1.039(4) 0.580(3) -0.334(2)
N14A N -0.0874(3) -0.1159(3) -0.1425(2)
N14_2 N 0.0874(3) 0.1159(3) 0.1425(2)
loop_
_geom_bond_atom_site_label_1
_geom_bond_atom_site_label_2
_geom_bond_site_symmetry_1
_geom_bond_site_symmetry_2
Ni1 N5 1_555 1_555
Ni2 N6 1_555 1_555
N1 N6 1_555 1_555
N2 N10 1_555 1_555
N3 C1 1_555 1_555
N4 N9 1_555 1_555
N5 C1 1_555 1_555
N7 N8 1_555 1_555
N8 N9 1_555 1_555
C1 H1 1_555 1_555
C2 N3 1_555 1_555
H2 C2 1_555 1_555
H3 C2 1_555 1_555
N10 Ni2 1_555 1_555
N11 N3 1_555 1_555
N12 N5 1_555 1_555
N13 Ni1 1_555 1_555
C3 N4 1_555 1_555
H4 C3 1_555 1_555
C4 N7 1_555 1_555
H5 C4 1_555 1_555
H6 C4 1_555 1_555
N14 N1 1_555 1_555
Ni1_2 N14 1_555 1_555
Ni2_2 N6A 1_555 1_555
Ni2_3 N10A 1_555 1_555
Ni2_4 N4A 1_555 1_555
Ni2_5 N4 1_555 1_555
N1A N6A 1_555 1_555
N2A N10A 1_555 1_555
N3A C1A 1_555 1_555
N4A N9A 1_555 1_555
N4_2 Ni2 1_555 1_555
N4A_2 Ni2 1_555 1_555
N5A Ni1 1_555 1_555
N6A_2 Ni2 1_555 1_555
N7A N8A 1_555 1_555
N8A N9A 1_555 1_555
C1A N5A 1_555 1_555
H1A C1A 1_555 1_555
C2A N3A 1_555 1_555
H2A C2A 1_555 1_555
H3A C2A 1_555 1_555
N10A_2 Ni2 1_555 1_555
N11A N3A 1_555 1_555
N12A N5A 1_555 1_555
N13A Ni1 1_555 1_555
C3A N4A 1_555 1_555
H4A C3A 1_555 1_555
C4A N7A 1_555 1_555
H5A C4A 1_555 1_555
H6A C4A 1_555 1_555
N14A Ni1 1_555 1_555
N14_2 Ni1 1_555 1_555
N2 N13 1_555 1_555
N7 C3 1_555 1_555
C2 C4 1_555 1_555
N11 N12 1_555 1_555
N1A N14A 1_555 1_555
N2A N13A 1_555 1_555
N7A C3A 1_555 1_555
C2A C4A 1_555 1_555
N11A N12A 1_555 1_555

#END
