
#######################################################################
#
#                 Cambridge Crystallographic Data Centre
#                                CCDC 
#
#######################################################################
#
# If this CIF has been generated from an entry in the Cambridge 
# Structural Database, then it will include bibliographic, chemical, 
# crystal, experimental, refinement or atomic coordinate data resulting 
# from the CCDC's data processing and validation procedures.
#
#######################################################################

data_LUGVOZ
_symmetry_cell_setting           monoclinic
_symmetry_space_group_name_H-M   'P 21/c'
_symmetry_Int_Tables_number      14
_space_group_name_Hall           '-P 2ybc'
loop_
_symmetry_equiv_pos_site_id
_symmetry_equiv_pos_as_xyz
1 x,y,z
2 -x,1/2+y,1/2-z
3 -x,-y,-z
4 x,1/2-y,1/2+z
_cell_length_a                   10.2433(2)
_cell_length_b                   6.57520(10)
_cell_length_c                   24.5222(6)
_cell_angle_alpha                90
_cell_angle_beta                 91.982(2)
_cell_angle_gamma                90
_cell_volume                     1650.62
loop_
_atom_site_label
_atom_site_type_symbol
_atom_site_fract_x
_atom_site_fract_y
_atom_site_fract_z
Co1 Co 0.47782(4) 0.90319(7) 0.327702(18)
Co2 Co 1.0000 1.5000 0.5000
Co3 Co 0.84821(4) 0.99854(6) 0.500282(17)
C1 C 0.7640(3) 0.9788(5) 0.32033(13)
C2 C 0.8510(3) 1.2855(5) 0.40657(12)
C3 C 1.2560(3) 1.0479(5) 0.31909(13)
C4 C 0.8792(3) 1.1216(5) 0.31207(12)
H1 H 0.8741 1.1624 0.2736
C5 C 1.0099(3) 1.0122(5) 0.32067(13)
H2 H 1.0157 0.9576 0.3574
H3 H 1.0137 0.8990 0.2954
C6 C 1.1206(3) 1.3455(5) 0.34764(12)
H4 H 1.1899 1.4366 0.3359
C7 C 1.1259(3) 1.1527(5) 0.31215(13)
H5 H 1.1188 1.1982 0.2741
C8 C 0.8706(3) 1.3193(5) 0.34553(12)
H6 H 0.7938 1.3937 0.3313
C9 C 0.9898(3) 1.4553(5) 0.33660(13)
H7 H 0.9855 1.5727 0.3604
H8 H 0.9864 1.5041 0.2992
C10 C 1.1451(3) 1.3047(5) 0.40820(13)
O1 O 1.35875(19) 1.1608(3) 0.31983(9)
O2 O 0.5628(2) 0.6215(3) 0.34603(10)
H9 H 0.6422 0.6296 0.3435
H10 H 0.5469 0.5294 0.3212
O3 O 0.4724(2) 0.8477(3) 0.24243(9)
H11 H 0.5438 0.8021 0.2310
H12 H 0.4178 0.7588 0.2309
O4 O 1.2692(2) 0.8594(3) 0.32254(10)
O5 O 0.4895(2) 0.9542(4) 0.41282(9)
H13 H 0.4894 1.0778 0.4203
H14 H 0.5525 0.9024 0.4266
O6 O 1.1438(2) 1.4561(3) 0.44043(9)
O7 O 0.6995(2) 0.7712(3) 0.47080(9)
H15 H 0.6401 0.8298 0.4540
H16 H 0.6794 0.7057 0.4937
O8 O 1.1642(2) 1.1249(3) 0.42342(9)
O9 O 0.7045(2) 1.2169(3) 0.52639(9)
H17 H 0.6532 1.1733 0.5502
H18 H 0.7405 1.3161 0.5395
O10 O 1.00232(19) 1.1985(3) 0.52290(9)
H19 H 1.0141 1.2066 0.5559
O12 O 0.8519(2) 1.4412(3) 0.43732(9)
O13 O 0.8356(2) 1.1063(3) 0.42258(9)
O14 O 0.6497(2) 1.0594(3) 0.31650(9)
O15 O 0.7824(2) 0.7963(3) 0.32811(11)
Co1B Co 1.52218(4) 2.09681(7) 0.672298(18)
Co1_2 Co 1.47782(4) 0.90319(7) 0.327702(18)
Co1B_2 Co 0.52218(4) 2.09681(7) 0.672298(18)
Co3B Co 1.15179(4) 2.00146(6) 0.499718(17)
Co3B_2 Co 1.15179(4) 1.00146(6) 0.499718(17)
Co3_2 Co 0.84821(4) 1.99854(6) 0.500282(17)
C1B C 1.2360(3) 2.0212(5) 0.67967(13)
C2B C 1.1490(3) 1.7145(5) 0.59343(12)
C3B C 0.7440(3) 1.9521(5) 0.68091(13)
C4B C 1.1208(3) 1.8784(5) 0.68793(12)
H1B H 1.1259 1.8376 0.7264
C5B C 0.9901(3) 1.9878(5) 0.67933(13)
H2B H 0.9843 2.0424 0.6426
H3B H 0.9863 2.1010 0.7046
C6B C 0.8794(3) 1.6545(5) 0.65236(12)
H4B H 0.8101 1.5634 0.6641
C7B C 0.8741(3) 1.8473(5) 0.68785(13)
H5B H 0.8812 1.8018 0.7259
C8B C 1.1294(3) 1.6807(5) 0.65447(12)
H6B H 1.2062 1.6063 0.6687
C9B C 1.0102(3) 1.5447(5) 0.66340(13)
H7B H 1.0145 1.4273 0.6396
H8B H 1.0136 1.4959 0.7008
C10B C 0.8549(3) 1.6953(5) 0.59180(13)
O1B O 0.64125(19) 1.8392(3) 0.68017(9)
O1_2 O 0.35875(19) 1.1608(3) 0.31983(9)
O1B_2 O 1.64125(19) 1.8392(3) 0.68017(9)
O2B O 1.4372(2) 2.3785(3) 0.65397(10)
H9B H 1.3578 2.3704 0.6565
H10B H 1.4531 2.4706 0.6788
O3B O 1.5276(2) 2.1523(3) 0.75757(9)
H11B H 1.4562 2.1979 0.7690
H12B H 1.5822 2.2412 0.7691
O4B O 0.7308(2) 2.1406(3) 0.67746(10)
O4_2 O 0.2692(2) 0.8594(3) 0.32254(10)
O4B_2 O 1.7308(2) 2.1406(3) 0.67746(10)
O5B O 1.5105(2) 2.0458(4) 0.58718(9)
H13B H 1.5106 1.9222 0.5797
H14B H 1.4475 2.0976 0.5734
O6B O 0.8562(2) 1.5439(3) 0.55957(9)
O7B O 1.3005(2) 2.2288(3) 0.52920(9)
H15B H 1.3599 2.1702 0.5460
H16B H 1.3206 2.2943 0.5063
O8B O 0.8358(2) 1.8751(3) 0.57658(9)
O8B_2 O 0.8358(2) 0.8751(3) 0.57658(9)
O8_2 O 1.1642(2) 2.1249(3) 0.42342(9)
O9B O 1.2955(2) 1.7831(3) 0.47361(9)
H17B H 1.3468 1.8267 0.4498
H18B H 1.2595 1.6839 0.4605
O10B O 0.99768(19) 1.8015(3) 0.47710(9)
O10B_2 O 0.99768(19) 0.8015(3) 0.47710(9)
O10_2 O 1.00232(19) 2.1985(3) 0.52290(9)
H19B H 0.9859 1.7934 0.4441
H19B_2 H 0.9859 0.7934 0.4441
H19_2 H 1.0141 2.2066 0.5559
O12B O 1.1481(2) 1.5588(3) 0.56268(9)
O13B O 1.1644(2) 1.8937(3) 0.57742(9)
O14B O 1.3503(2) 1.9406(3) 0.68350(9)
O15B O 1.2176(2) 2.2037(3) 0.67189(11)
O11 O 0.5044(3) 1.3500(4) 0.44457(14)
H20 H 0.5124 1.4175 0.4177
H21 H 0.5649 1.3593 0.4663
loop_
_geom_bond_atom_site_label_1
_geom_bond_atom_site_label_2
_geom_bond_site_symmetry_1
_geom_bond_site_symmetry_2
Co1 O2 1_555 1_555
Co2 O6 1_555 1_555
Co3 O7 1_555 1_555
C1 C4 1_555 1_555
C2 C8 1_555 1_555
C3 C7 1_555 1_555
C4 H1 1_555 1_555
C5 C4 1_555 1_555
H2 C5 1_555 1_555
H3 C5 1_555 1_555
C6 H4 1_555 1_555
C7 C5 1_555 1_555
H5 C7 1_555 1_555
C8 C4 1_555 1_555
H6 C8 1_555 1_555
C9 C6 1_555 1_555
H7 C9 1_555 1_555
H8 C9 1_555 1_555
C10 C6 1_555 1_555
O1 C3 1_555 1_555
O2 H9 1_555 1_555
H10 O2 1_555 1_555
O3 Co1 1_555 1_555
H11 O3 1_555 1_555
H12 O3 1_555 1_555
O4 C3 1_555 1_555
O5 Co1 1_555 1_555
H13 O5 1_555 1_555
H14 O5 1_555 1_555
O6 C10 1_555 1_555
O7 H15 1_555 1_555
H16 O7 1_555 1_555
O8 C10 1_555 1_555
O9 Co3 1_555 1_555
H17 O9 1_555 1_555
H18 O9 1_555 1_555
O10 Co2 1_555 1_555
H19 O10 1_555 1_555
O11 H20 1_555 1_555
H21 O11 1_555 1_555
O12 Co2 1_555 1_555
O13 Co3 1_555 1_555
O14 Co1 1_555 1_555
O15 C1 1_555 1_555
Co1B O1B_2 1_555 1_555
Co1_2 O1 1_555 1_555
Co1B_2 O1B 1_555 1_555
Co3B O7B 1_555 1_555
Co3B_2 O8 1_555 1_555
Co3_2 O8B 1_555 1_555
C1B C4B 1_555 1_555
C2B C8B 1_555 1_555
C3B C7B 1_555 1_555
C4B H1B 1_555 1_555
C5B C4B 1_555 1_555
H2B C5B 1_555 1_555
H3B C5B 1_555 1_555
C6B H4B 1_555 1_555
C7B C5B 1_555 1_555
H5B C7B 1_555 1_555
C8B C4B 1_555 1_555
H6B C8B 1_555 1_555
C9B C6B 1_555 1_555
H7B C9B 1_555 1_555
H8B C9B 1_555 1_555
C10B C6B 1_555 1_555
O1B C3B 1_555 1_555
O1_2 Co1 1_555 1_555
O2B Co1B 1_555 1_555
H9B O2B 1_555 1_555
H10B O2B 1_555 1_555
O3B Co1B 1_555 1_555
H11B O3B 1_555 1_555
H12B O3B 1_555 1_555
O4B Co1B_2 1_555 1_555
O4_2 Co1 1_555 1_555
O4B_2 Co1B 1_555 1_555
O5B Co1B 1_555 1_555
H13B O5B 1_555 1_555
H14B O5B 1_555 1_555
O6B Co2 1_555 1_555
O7B H15B 1_555 1_555
H16B O7B 1_555 1_555
O8B C10B 1_555 1_555
O8B_2 Co3 1_555 1_555
O8_2 Co3B 1_555 1_555
O9B Co3B 1_555 1_555
H17B O9B 1_555 1_555
H18B O9B 1_555 1_555
O10B Co2 1_555 1_555
O10B_2 Co3 1_555 1_555
O10_2 Co3B 1_555 1_555
H19B O10B 1_555 1_555
H19B_2 O10B_2 1_555 1_555
H19_2 O10_2 1_555 1_555
O12B Co2 1_555 1_555
O13B Co3B 1_555 1_555
O14B Co1B 1_555 1_555
O15B C1B 1_555 1_555
Co3 O10 1_555 1_555
C1 O14 1_555 1_555
C2 O12 1_555 1_555
C2 O13 1_555 1_555
C6 C7 1_555 1_555
C8 C9 1_555 1_555
O4 Co1_2 1_555 1_555
O10 Co3B_2 1_555 1_555
Co3B O10B 1_555 1_555
Co3B_2 O10B_2 1_555 1_555
Co3_2 O10B 1_555 1_555
Co3_2 O10_2 1_555 1_555
C1B O14B 1_555 1_555
C2B O12B 1_555 1_555
C2B O13B 1_555 1_555
C3B O4B 1_555 1_555
C6B C7B 1_555 1_555
C8B C9B 1_555 1_555
C10B O6B 1_555 1_555

#END
