
#######################################################################
#
#                 Cambridge Crystallographic Data Centre
#                                CCDC 
#
#######################################################################
#
# If this CIF has been generated from an entry in the Cambridge 
# Structural Database, then it will include bibliographic, chemical, 
# crystal, experimental, refinement or atomic coordinate data resulting 
# from the CCDC's data processing and validation procedures.
#
#######################################################################

data_LUGVUF
_symmetry_cell_setting           monoclinic
_symmetry_space_group_name_H-M   'P 21/n'
_symmetry_Int_Tables_number      14
_space_group_name_Hall           '-P 2yn'
loop_
_symmetry_equiv_pos_site_id
_symmetry_equiv_pos_as_xyz
1 x,y,z
2 1/2-x,1/2+y,1/2-z
3 -x,-y,-z
4 1/2+x,1/2-y,1/2+z
_cell_length_a                   9.0159(6)
_cell_length_b                   8.4164(5)
_cell_length_c                   19.0635(12)
_cell_angle_alpha                90
_cell_angle_beta                 102.9120(10)
_cell_angle_gamma                90
_cell_volume                     1409.99
loop_
_atom_site_label
_atom_site_type_symbol
_atom_site_fract_x
_atom_site_fract_y
_atom_site_fract_z
Zn1 Zn 0.80460(3) 0.89052(4) 0.126762(15)
Zn2 Zn 0.74877(4) 0.72318(4) 0.494090(16)
C1 C 1.2431(3) 0.6421(4) 0.46983(14)
C2 C 1.2491(3) 0.7568(3) 0.40905(14)
H1 H 1.3256 0.8370 0.4292
C3 C 1.0998(3) 0.8485(3) 0.37894(14)
H2 H 1.1235 0.9426 0.3542
H3 H 1.0578 0.8833 0.4190
C4 C 0.9785(3) 0.7529(3) 0.32710(13)
H4 H 0.9029 0.8302 0.3030
C5 C 1.3060(3) 0.6749(3) 0.34744(13)
H5 H 1.3279 0.7613 0.3168
C6 C 1.1843(3) 0.5731(3) 0.29888(13)
H6 H 1.2247 0.5275 0.2603
H7 H 1.1540 0.4870 0.3265
C7 C 1.0466(3) 0.6782(3) 0.26753(13)
H8 H 1.0866 0.7672 0.2442
C8 C 0.8932(3) 0.6365(4) 0.36472(14)
C9 C 1.4570(3) 0.5940(4) 0.37648(14)
C10 C 0.9275(3) 0.5989(4) 0.20846(14)
O1 O 0.9431(2) 0.4596(3) 0.19107(10)
O2 O 0.7003(3) 0.9502(3) 0.44983(11)
H9 H 0.6571 0.9422 0.4073
H10 H 0.7490 1.0370 0.4543
O3 O 0.8153(2) 0.6850(2) 0.17648(10)
O4 O 0.6295(3) 0.7973(3) 0.57343(11)
H11 H 0.6005 0.7190 0.5922
H12 H 0.5630 0.8602 0.5634
O5 O 0.9463(2) 0.7879(3) 0.56361(10)
H13 H 0.9354 0.7816 0.6051
H14 H 1.0279 0.7628 0.5572
O6 O 0.8961(2) 0.6563(3) 0.42984(10)
O8 O 0.8193(2) 0.5262(3) 0.32733(10)
O9 O 1.2556(2) 0.4982(2) 0.45977(10)
O10 O 1.2312(2) 0.7048(2) 0.52995(9)
O11 O 1.5554(2) 0.6719(3) 0.41807(12)
O12 O 1.4804(2) 0.4550(3) 0.35548(10)
Zn1A Zn 0.69540(3) 0.39052(4) 0.373238(15)
Zn1C Zn 1.30460(3) 0.60948(4) 0.626762(15)
Zn1A_2 Zn 1.69540(3) 0.39052(4) 0.373238(15)
Zn2B Zn 1.25123(4) 0.27682(4) 0.505910(16)
Zn2_2 Zn 1.74877(4) 0.72318(4) 0.494090(16)
O8A O 0.6807(2) 1.0262(3) 0.17267(10)
O9B O 0.7444(2) 0.5018(2) 0.54023(10)
O10C O 0.7312(2) 0.7952(2) 0.02995(9)
O11_2 O 0.5554(2) 0.6719(3) 0.41807(12)
O12A O 1.0196(2) 0.9550(3) 0.14452(10)
O7 O 0.5188(2) 0.6959(3) 0.21055(11)
H15 H 0.5259 0.7758 0.2366
H16 H 0.6078 0.6663 0.2146
loop_
_geom_bond_atom_site_label_1
_geom_bond_atom_site_label_2
_geom_bond_site_symmetry_1
_geom_bond_site_symmetry_2
Zn1 O3 1_555 1_555
Zn2 O2 1_555 1_555
C1 C2 1_555 1_555
C2 H1 1_555 1_555
C3 C2 1_555 1_555
H2 C3 1_555 1_555
H3 C3 1_555 1_555
C4 C3 1_555 1_555
H4 C4 1_555 1_555
C5 C2 1_555 1_555
H5 C5 1_555 1_555
C6 C5 1_555 1_555
H6 C6 1_555 1_555
H7 C6 1_555 1_555
C7 C4 1_555 1_555
H8 C7 1_555 1_555
C8 C4 1_555 1_555
C9 C5 1_555 1_555
C10 C7 1_555 1_555
O1 C10 1_555 1_555
O2 H9 1_555 1_555
H10 O2 1_555 1_555
O3 C10 1_555 1_555
O4 Zn2 1_555 1_555
H11 O4 1_555 1_555
H12 O4 1_555 1_555
O5 Zn2 1_555 1_555
H13 O5 1_555 1_555
H14 O5 1_555 1_555
O6 Zn2 1_555 1_555
O7 H15 1_555 1_555
H16 O7 1_555 1_555
O8 C8 1_555 1_555
O9 C1 1_555 1_555
O10 C1 1_555 1_555
O11 C9 1_555 1_555
O12 C9 1_555 1_555
Zn1A O8 1_555 1_555
Zn1C O10 1_555 1_555
Zn1A_2 O12 1_555 1_555
Zn2B O9 1_555 1_555
Zn2_2 O11 1_555 1_555
O8A Zn1 1_555 1_555
O9B Zn2 1_555 1_555
O10C Zn1 1_555 1_555
O11_2 Zn2 1_555 1_555
O12A Zn1 1_555 1_555
C6 C7 1_555 1_555
C8 O6 1_555 1_555

#END
