
#######################################################################
#
#                 Cambridge Crystallographic Data Centre
#                                CCDC 
#
#######################################################################
#
# If this CIF has been generated from an entry in the Cambridge 
# Structural Database, then it will include bibliographic, chemical, 
# crystal, experimental, refinement or atomic coordinate data resulting 
# from the CCDC's data processing and validation procedures.
#
#######################################################################

data_LUGWAM
_symmetry_cell_setting           triclinic
_symmetry_space_group_name_H-M   'P -1'
_symmetry_Int_Tables_number      2
_space_group_name_Hall           '-P 1'
loop_
_symmetry_equiv_pos_site_id
_symmetry_equiv_pos_as_xyz
1 x,y,z
2 -x,-y,-z
_cell_length_a                   8.713(3)
_cell_length_b                   9.671(3)
_cell_length_c                   11.321(4)
_cell_angle_alpha                86.07(3)
_cell_angle_beta                 82.97(2)
_cell_angle_gamma                64.81(2)
_cell_volume                     856.594
loop_
_atom_site_label
_atom_site_type_symbol
_atom_site_fract_x
_atom_site_fract_y
_atom_site_fract_z
Cd1 Cd 0.31417(14) 0.94760(13) 0.02209(9)
Cd2 Cd 0.32138(15) 0.78759(13) 0.48291(9)
C1 C 0.9975(17) 0.3737(17) 0.1739(13)
H1 H 1.0754 0.4176 0.1382
C2 C 0.628(2) 0.7504(19) 0.0790(14)
C3 C 0.9829(18) 0.4007(17) 0.3046(11)
H2 H 1.0987 0.3449 0.3279
C4 C 0.7861(18) 0.6423(16) 0.1365(12)
H3 H 0.8811 0.6562 0.0898
C5 C 0.9356(19) 0.5690(18) 0.3268(13)
H4 H 0.9924 0.5982 0.3775
H5 H 1.014(17) 0.56(3) 0.259(6)
C6 C 0.8764(18) 0.3358(18) 0.3819(13)
C7 C 0.7846(17) 0.6910(17) 0.2590(12)
H6 H 0.8021 0.7849 0.2507
C8 C 0.613(2) 0.7289(19) 0.3367(13)
C9 C 1.081(2) 0.2127(18) 0.1362(14)
C10 C 0.8265(16) 0.4757(17) 0.1246(12)
H7 H 0.8330 0.4533 0.0414
H8 H 0.7359 0.4538 0.1679
O1 O 0.5745(13) 0.8286(13) 0.4175(9)
O2 O 0.2157(13) 1.0458(12) 0.5244(8)
H9 H 0.2935 1.0657 0.5401
H10 H 0.1436 1.0737 0.5859
O3 O 0.5174(13) 0.6716(12) 0.3187(9)
O4 O 0.5289(13) 0.6227(12) 0.6069(9)
H11 H 0.5577 0.6737 0.6466
H12 H 0.6223 0.5492 0.5817
O5 O 0.5788(12) 0.8900(11) 0.0965(8)
O6 O 0.1069(11) 0.9027(11) 0.3524(8)
H13 H 0.1425 0.8644 0.2866
H14 H 0.0697 0.9980 0.3402
O7 O 0.5519(13) 0.6995(12) 0.0218(10)
O8 O 0.2516(15) 0.9160(15) -0.1590(9)
H15 H 0.3337 0.9029 -0.2082
H16 H 0.2477 0.8290 -0.1510
O9 O 0.7911(12) 0.3953(12) 0.4796(8)
O10 O 0.1771(12) 0.8056(12) 0.1162(8)
H17 H 0.2465 0.7169 0.1245
H18 H 0.0965 0.7979 0.0858
O11 O 0.8648(13) 0.2192(13) 0.3467(9)
O12 O 1.0327(13) 0.1651(11) 0.0550(9)
O13 O 1.2213(14) 0.1202(13) 0.1813(10)
Cd1A Cd 0.68583(14) 1.05240(13) -0.02209(9)
Cd1_2 Cd 1.31417(14) -0.05240(13) 0.02209(9)
Cd2A Cd 0.67862(15) 0.21241(13) 0.51709(9)
O5A O 0.4212(12) 1.1100(11) -0.0965(8)
O9A O 0.2089(12) 0.6047(12) 0.5204(8)
O11A O 0.1352(13) 0.7808(13) 0.6533(9)
O12_2 O 0.0327(13) 1.1651(11) 0.0550(9)
O13_2 O 0.2213(14) 1.1202(13) 0.1813(10)
O14 O 0.3488(13) 0.5080(12) 0.1633(9)
H19 H 0.4409 0.5126 0.1761
H20 H 0.3864 0.4238 0.1271
O15 O 1.4578(14) 0.1283(13) 0.3039(9)
H21 H 1.3735 0.1317 0.2706
H22 H 1.4937 0.0397 0.3356
loop_
_geom_bond_atom_site_label_1
_geom_bond_atom_site_label_2
_geom_bond_site_symmetry_1
_geom_bond_site_symmetry_2
Cd1 O5 1_555 1_555
Cd2 O1 1_555 1_555
C1 H1 1_555 1_555
C2 C4 1_555 1_555
C3 C1 1_555 1_555
H2 C3 1_555 1_555
C4 H3 1_555 1_555
C5 C3 1_555 1_555
H4 C5 1_555 1_555
H5 C5 1_555 1_555
C6 C3 1_555 1_555
C7 C4 1_555 1_555
H6 C7 1_555 1_555
C8 C7 1_555 1_555
C9 C1 1_555 1_555
C10 C1 1_555 1_555
H7 C10 1_555 1_555
H8 C10 1_555 1_555
O1 C8 1_555 1_555
O2 Cd2 1_555 1_555
H9 O2 1_555 1_555
H10 O2 1_555 1_555
O3 Cd2 1_555 1_555
O4 Cd2 1_555 1_555
H11 O4 1_555 1_555
H12 O4 1_555 1_555
O5 C2 1_555 1_555
O6 Cd2 1_555 1_555
H13 O6 1_555 1_555
H14 O6 1_555 1_555
O7 Cd1 1_555 1_555
O8 Cd1 1_555 1_555
H15 O8 1_555 1_555
H16 O8 1_555 1_555
O9 C6 1_555 1_555
O10 Cd1 1_555 1_555
H17 O10 1_555 1_555
H18 O10 1_555 1_555
O11 C6 1_555 1_555
O12 C9 1_555 1_555
O13 C9 1_555 1_555
O14 H19 1_555 1_555
H20 O14 1_555 1_555
O15 H21 1_555 1_555
H22 O15 1_555 1_555
Cd1A O5 1_555 1_555
Cd1_2 O12 1_555 1_555
Cd2A O9 1_555 1_555
O5A Cd1 1_555 1_555
O9A Cd2 1_555 1_555
O11A Cd2 1_555 1_555
O12_2 Cd1 1_555 1_555
O13_2 Cd1 1_555 1_555
C2 O7 1_555 1_555
C4 C10 1_555 1_555
C5 C7 1_555 1_555
C8 O3 1_555 1_555
O11 Cd2A 1_555 1_555
O13 Cd1_2 1_555 1_555
Cd1A O5A 1_555 1_555

#END
