
#######################################################################
#
#                 Cambridge Crystallographic Data Centre
#                                CCDC 
#
#######################################################################
#
# If this CIF has been generated from an entry in the Cambridge 
# Structural Database, then it will include bibliographic, chemical, 
# crystal, experimental, refinement or atomic coordinate data resulting 
# from the CCDC's data processing and validation procedures.
#
#######################################################################

data_LUHDAV
_symmetry_cell_setting           monoclinic
_symmetry_space_group_name_H-M   'P 21/c'
_symmetry_Int_Tables_number      14
_space_group_name_Hall           '-P 2ybc'
loop_
_symmetry_equiv_pos_site_id
_symmetry_equiv_pos_as_xyz
1 x,y,z
2 -x,1/2+y,1/2-z
3 -x,-y,-z
4 x,1/2-y,1/2+z
_cell_length_a                   15.2677(3)
_cell_length_b                   11.0804(2)
_cell_length_c                   8.55999(16)
_cell_angle_alpha                90
_cell_angle_beta                 102.5875(18)
_cell_angle_gamma                90
_cell_volume                     1413.31
loop_
_atom_site_label
_atom_site_type_symbol
_atom_site_fract_x
_atom_site_fract_y
_atom_site_fract_z
Tb1 Tb 0.295283(11) 0.563321(17) 0.494159(19)
O1 O 0.26876(15) 0.6812(3) 0.2627(3)
O2 O 0.18807(16) 0.7941(3) 0.0680(3)
O3 O -0.14540(16) 0.6951(3) -0.0889(3)
O4 O -0.20023(19) 0.5689(3) 0.0685(3)
O5 O 0.42462(17) 0.5772(2) 0.3535(3)
O6 O 0.57369(16) 0.5579(2) 0.3891(3)
O7 O 0.38036(17) 0.7505(3) 0.5609(3)
H1 H 0.4371(7) 0.745(3) 0.584(4)
H2 H 0.3648(18) 0.795(3) 0.631(4)
O8 O 0.28258(18) 0.3855(3) 0.3340(3)
H3 H 0.2355(12) 0.362(3) 0.270(4)
H4 H 0.3248(14) 0.335(2) 0.336(4)
O9 O 0.2220(2) 0.4201(3) 0.6249(3)
H5 H 0.208(3) 0.3495(16) 0.590(3)
H6 H 0.213(3) 0.429(2) 0.718(2)
O10 O 0.3406(2) 0.5886(3) 0.7831(3)
H7 H 0.365(3) 0.536(2) 0.851(2)
H8 H 0.338(3) 0.6539(17) 0.834(3)
N1 N 0.1304(2) 0.5569(3) 0.3042(3)
C1 C 0.1131(2) 0.6436(4) 0.1910(4)
C2 C 0.0288(2) 0.6673(4) 0.1006(4)
H9 H 0.0208 0.7271 0.0226
C3 C -0.0437(2) 0.6021(4) 0.1257(4)
C4 C -0.0269(3) 0.5127(4) 0.2408(4)
H10 H -0.0740 0.4662 0.2610
C5 C 0.0599(2) 0.4921(4) 0.3264(4)
H11 H 0.0697 0.4307 0.4024
C6 C 0.1953(2) 0.7116(4) 0.1707(4)
C7 C -0.1377(3) 0.6249(4) 0.0283(4)
C8 C 0.4997(2) 0.5393(3) 0.4255(4)
O5B O 0.57538(17) 0.4228(2) 0.6465(3)
O6B O 0.42631(16) 0.4421(2) 0.6109(3)
C8B C 0.5003(2) 0.4607(3) 0.5745(4)
Tb1B Tb 0.704717(11) 0.436679(17) 0.505841(19)
O1B O 0.73124(15) 0.3188(3) 0.7373(3)
O2B O 0.81193(16) 0.2059(3) 0.9320(3)
O3B O 1.14540(16) 0.3049(3) 1.0889(3)
O4B O 1.20023(19) 0.4311(3) 0.9315(3)
O7B O 0.61964(17) 0.2495(3) 0.4391(3)
H1B H 0.5629(7) 0.255(3) 0.416(4)
H2B H 0.6352(18) 0.205(3) 0.369(4)
O8B O 0.71742(18) 0.6145(3) 0.6660(3)
H3B H 0.7645(12) 0.638(3) 0.730(4)
H4B H 0.6752(14) 0.665(2) 0.664(4)
O9B O 0.7780(2) 0.5799(3) 0.3751(3)
H5B H 0.792(3) 0.6505(16) 0.410(3)
H6B H 0.787(3) 0.571(2) 0.282(2)
O10B O 0.6594(2) 0.4114(3) 0.2169(3)
H7B H 0.635(3) 0.464(2) 0.149(2)
H8B H 0.662(3) 0.3461(17) 0.166(3)
N1B N 0.8696(2) 0.4431(3) 0.6958(3)
C1B C 0.8869(2) 0.3564(4) 0.8090(4)
C2B C 0.9712(2) 0.3327(4) 0.8994(4)
H9B H 0.9792 0.2729 0.9774
C3B C 1.0437(2) 0.3979(4) 0.8743(4)
C4B C 1.0269(3) 0.4873(4) 0.7592(4)
H10B H 1.0740 0.5338 0.7390
C5B C 0.9401(2) 0.5079(4) 0.6736(4)
H11B H 0.9303 0.5693 0.5976
C6B C 0.8047(2) 0.2884(4) 0.8293(4)
C7B C 1.1377(3) 0.3751(4) 0.9717(4)
Tb1A Tb 0.704717(11) 0.063321(17) 1.005841(19)
Tb1C Tb 0.295283(11) 0.936679(17) -0.005841(19)
O2A O 0.81193(16) 0.2941(3) 0.4320(3)
O2C O 0.18807(16) 0.7059(3) 0.5680(3)
O11 O 0.56591(18) 0.7657(3) 0.6432(3)
H12 H 0.5807 0.8149 0.5777
H13 H 0.5700 0.7986 0.7338
O12 O 0.3775(2) 0.4351(3) 0.0447(3)
H14 H 0.3413 0.3866 0.0742
H15 H 0.4231 0.4476 0.1196
loop_
_geom_bond_atom_site_label_1
_geom_bond_atom_site_label_2
_geom_bond_site_symmetry_1
_geom_bond_site_symmetry_2
Tb1 O1 1_555 1_555
O1 C6 1_555 1_555
O2 C6 1_555 1_555
O3 C7 1_555 1_555
O4 C7 1_555 1_555
O5 Tb1 1_555 1_555
O6 C8 1_555 1_555
O7 Tb1 1_555 1_555
H1 O7 1_555 1_555
H2 O7 1_555 1_555
O8 Tb1 1_555 1_555
H3 O8 1_555 1_555
H4 O8 1_555 1_555
O9 Tb1 1_555 1_555
H5 O9 1_555 1_555
H6 O9 1_555 1_555
O10 Tb1 1_555 1_555
H7 O10 1_555 1_555
H8 O10 1_555 1_555
N1 Tb1 1_555 1_555
C1 N1 1_555 1_555
C2 C1 1_555 1_555
H9 C2 1_555 1_555
C3 C2 1_555 1_555
C4 C3 1_555 1_555
H10 C4 1_555 1_555
C5 N1 1_555 1_555
H11 C5 1_555 1_555
C6 C1 1_555 1_555
C7 C3 1_555 1_555
C8 O5 1_555 1_555
O11 H12 1_555 1_555
H13 O11 1_555 1_555
O12 H14 1_555 1_555
H15 O12 1_555 1_555
O5B C8B 1_555 1_555
O6B Tb1 1_555 1_555
C8B C8 1_555 1_555
Tb1B O6 1_555 1_555
O1B Tb1B 1_555 1_555
O2B C6B 1_555 1_555
O3B C7B 1_555 1_555
O4B C7B 1_555 1_555
O7B Tb1B 1_555 1_555
H1B O7B 1_555 1_555
H2B O7B 1_555 1_555
O8B Tb1B 1_555 1_555
H3B O8B 1_555 1_555
H4B O8B 1_555 1_555
O9B Tb1B 1_555 1_555
H5B O9B 1_555 1_555
H6B O9B 1_555 1_555
O10B Tb1B 1_555 1_555
H7B O10B 1_555 1_555
H8B O10B 1_555 1_555
N1B Tb1B 1_555 1_555
C1B N1B 1_555 1_555
C2B C1B 1_555 1_555
H9B C2B 1_555 1_555
C3B C2B 1_555 1_555
C4B C3B 1_555 1_555
H10B C4B 1_555 1_555
C5B N1B 1_555 1_555
H11B C5B 1_555 1_555
C6B O1B 1_555 1_555
C7B C3B 1_555 1_555
Tb1A O2B 1_555 1_555
Tb1C O2 1_555 1_555
O2A Tb1B 1_555 1_555
O2C Tb1 1_555 1_555
C4 C5 1_555 1_555
O5B Tb1B 1_555 1_555
O6B C8B 1_555 1_555
C1B C6B 1_555 1_555
C4B C5B 1_555 1_555

#END
