
#######################################################################
#
#                 Cambridge Crystallographic Data Centre
#                                CCDC 
#
#######################################################################
#
# If this CIF has been generated from an entry in the Cambridge 
# Structural Database, then it will include bibliographic, chemical, 
# crystal, experimental, refinement or atomic coordinate data resulting 
# from the CCDC's data processing and validation procedures.
#
#######################################################################

data_LUHDEZ
_symmetry_cell_setting           monoclinic
_symmetry_space_group_name_H-M   'P 21/c'
_symmetry_Int_Tables_number      14
_space_group_name_Hall           '-P 2ybc'
loop_
_symmetry_equiv_pos_site_id
_symmetry_equiv_pos_as_xyz
1 x,y,z
2 -x,1/2+y,1/2-z
3 -x,-y,-z
4 x,1/2-y,1/2+z
_cell_length_a                   15.23608(16)
_cell_length_b                   11.04018(10)
_cell_length_c                   8.55721(9)
_cell_angle_alpha                90
_cell_angle_beta                 102.5791(10)
_cell_angle_gamma                90
_cell_volume                     1404.85
loop_
_atom_site_label
_atom_site_type_symbol
_atom_site_fract_x
_atom_site_fract_y
_atom_site_fract_z
Dy1 Dy 0.295520(8) 0.563668(10) 0.994254(14)
O1 O 0.26863(12) 0.68177(17) 0.7639(2)
O2 O 0.18831(12) 0.79439(17) 0.5692(2)
O3 O -0.14591(13) 0.69484(18) 0.4117(2)
O4 O -0.20082(15) 0.5683(2) 0.5686(3)
O5 O 0.42478(13) 0.57828(16) 0.8547(2)
O6 O 0.57389(13) 0.55771(15) 0.8896(2)
O7 O 0.38029(13) 0.75069(19) 1.0610(2)
H1 H 0.3680(16) 0.793(2) 1.137(3)
H2 H 0.4368(7) 0.748(2) 1.077(4)
O8 O 0.34140(18) 0.58844(18) 1.2826(2)
H3 H 0.361(2) 0.5338(17) 1.351(2)
H4 H 0.328(2) 0.6497(18) 1.334(2)
O9 O 0.28288(13) 0.38600(18) 0.8339(2)
H5 H 0.2373(11) 0.363(2) 0.764(3)
H6 H 0.3264(11) 0.340(2) 0.827(3)
O10 O 0.22285(15) 0.42009(18) 1.1249(3)
H7 H 0.1708(10) 0.400(3) 1.075(3)
H8 H 0.2235(19) 0.431(2) 1.2223(14)
N1 N 0.13063(15) 0.55734(17) 0.8051(3)
C1 C 0.11376(17) 0.6436(2) 0.6919(3)
C2 C 0.02902(17) 0.6677(2) 0.6007(3)
H9 H 0.0208 0.7280 0.5230
C3 C -0.04350(18) 0.6014(3) 0.6263(3)
C4 C -0.02686(19) 0.5114(3) 0.7421(3)
H10 H -0.0738 0.4643 0.7621
C5 C 0.05991(18) 0.4923(3) 0.8273(3)
H11 H 0.0699 0.4313 0.9041
C6 C -0.13746(19) 0.6244(3) 0.5289(3)
C7 C 0.19556(17) 0.7129(2) 0.6716(3)
C8 C 0.49992(18) 0.5397(2) 0.9260(3)
O5B O 0.57522(13) 0.42172(16) 1.1453(2)
O6B O 0.42611(13) 0.44229(15) 1.1104(2)
C8B C 0.50008(18) 0.4603(2) 1.0740(3)
Dy1B Dy 0.704480(8) 0.436332(10) 1.005746(14)
O1B O 0.73137(12) 0.31823(17) 1.2361(2)
O2B O 0.81169(12) 0.20561(17) 1.4308(2)
O3B O 1.14591(13) 0.30516(18) 1.5883(2)
O4B O 1.20082(15) 0.4317(2) 1.4314(3)
O7B O 0.61971(13) 0.24931(19) 0.9390(2)
H1B H 0.6320(16) 0.207(2) 0.863(3)
H2B H 0.5632(7) 0.252(2) 0.923(4)
O8B O 0.65860(18) 0.41156(18) 0.7174(2)
H3B H 0.639(2) 0.4662(17) 0.649(2)
H4B H 0.672(2) 0.3503(18) 0.666(2)
O9B O 0.71712(13) 0.61400(18) 1.1661(2)
H5B H 0.7627(11) 0.637(2) 1.236(3)
H6B H 0.6736(11) 0.660(2) 1.173(3)
O10B O 0.77715(15) 0.57991(18) 0.8751(3)
H7B H 0.8292(10) 0.600(3) 0.925(3)
H8B H 0.7765(19) 0.569(2) 0.7777(14)
N1B N 0.86937(15) 0.44266(17) 1.1949(3)
C1B C 0.88624(17) 0.3564(2) 1.3081(3)
C2B C 0.97098(17) 0.3323(2) 1.3993(3)
H9B H 0.9792 0.2720 1.4770
C3B C 1.04350(18) 0.3986(3) 1.3737(3)
C4B C 1.02686(19) 0.4886(3) 1.2579(3)
H10B H 1.0738 0.5357 1.2379
C5B C 0.94009(18) 0.5077(3) 1.1727(3)
H11B H 0.9301 0.5687 1.0959
C6B C 1.13746(19) 0.3756(3) 1.4711(3)
C7B C 0.80444(17) 0.2871(2) 1.3284(3)
Dy1A Dy 0.704480(8) 0.063668(10) 1.505746(14)
Dy1C Dy 0.295520(8) 0.936332(10) 0.494254(14)
O2A O 0.81169(12) 0.29439(17) 0.9308(2)
O2C O 0.18831(12) 0.70561(17) 1.0692(2)
O11 O 0.37872(18) 0.4337(2) 0.5455(3)
H12 H 0.3238(13) 0.418(5) 0.543(6)
H13 H 0.405(3) 0.468(5) 0.631(4)
O12 O 0.43393(15) 0.23490(19) 0.8569(3)
H14 H 0.430(2) 0.194(2) 0.771(2)
H15 H 0.421(3) 0.190(3) 0.930(3)
loop_
_geom_bond_atom_site_label_1
_geom_bond_atom_site_label_2
_geom_bond_site_symmetry_1
_geom_bond_site_symmetry_2
Dy1 O1 1_555 1_555
O1 C7 1_555 1_555
O2 C7 1_555 1_555
O3 C6 1_555 1_555
O4 C6 1_555 1_555
O5 Dy1 1_555 1_555
O6 C8 1_555 1_555
O7 Dy1 1_555 1_555
H1 O7 1_555 1_555
H2 O7 1_555 1_555
O8 Dy1 1_555 1_555
H3 O8 1_555 1_555
H4 O8 1_555 1_555
O9 Dy1 1_555 1_555
H5 O9 1_555 1_555
H6 O9 1_555 1_555
O10 Dy1 1_555 1_555
H7 O10 1_555 1_555
H8 O10 1_555 1_555
N1 Dy1 1_555 1_555
C1 N1 1_555 1_555
C2 C1 1_555 1_555
H9 C2 1_555 1_555
C3 C2 1_555 1_555
C4 C3 1_555 1_555
H10 C4 1_555 1_555
C5 N1 1_555 1_555
H11 C5 1_555 1_555
C6 C3 1_555 1_555
C7 C1 1_555 1_555
C8 O5 1_555 1_555
O11 H12 1_555 1_555
H13 O11 1_555 1_555
O12 H14 1_555 1_555
H15 O12 1_555 1_555
O5B C8B 1_555 1_555
O6B Dy1 1_555 1_555
C8B C8 1_555 1_555
Dy1B O6 1_555 1_555
O1B Dy1B 1_555 1_555
O2B C7B 1_555 1_555
O3B C6B 1_555 1_555
O4B C6B 1_555 1_555
O7B Dy1B 1_555 1_555
H1B O7B 1_555 1_555
H2B O7B 1_555 1_555
O8B Dy1B 1_555 1_555
H3B O8B 1_555 1_555
H4B O8B 1_555 1_555
O9B Dy1B 1_555 1_555
H5B O9B 1_555 1_555
H6B O9B 1_555 1_555
O10B Dy1B 1_555 1_555
H7B O10B 1_555 1_555
H8B O10B 1_555 1_555
N1B Dy1B 1_555 1_555
C1B N1B 1_555 1_555
C2B C1B 1_555 1_555
H9B C2B 1_555 1_555
C3B C2B 1_555 1_555
C4B C3B 1_555 1_555
H10B C4B 1_555 1_555
C5B N1B 1_555 1_555
H11B C5B 1_555 1_555
C6B C3B 1_555 1_555
C7B O1B 1_555 1_555
Dy1A O2B 1_555 1_555
Dy1C O2 1_555 1_555
O2A Dy1B 1_555 1_555
O2C Dy1 1_555 1_555
C4 C5 1_555 1_555
O5B Dy1B 1_555 1_555
O6B C8B 1_555 1_555
C1B C7B 1_555 1_555
C4B C5B 1_555 1_555

#END
