
#######################################################################
#
#                 Cambridge Crystallographic Data Centre
#                                CCDC 
#
#######################################################################
#
# If this CIF has been generated from an entry in the Cambridge 
# Structural Database, then it will include bibliographic, chemical, 
# crystal, experimental, refinement or atomic coordinate data resulting 
# from the CCDC's data processing and validation procedures.
#
#######################################################################

data_LUHQIQ
_symmetry_cell_setting           triclinic
_symmetry_space_group_name_H-M   'P -1'
_symmetry_Int_Tables_number      2
_space_group_name_Hall           '-P 1'
loop_
_symmetry_equiv_pos_site_id
_symmetry_equiv_pos_as_xyz
1 x,y,z
2 -x,-y,-z
_cell_length_a                   9.9533(6)
_cell_length_b                   14.2851(6)
_cell_length_c                   15.2400(10)
_cell_angle_alpha                93.498(4)
_cell_angle_beta                 90.926(5)
_cell_angle_gamma                103.226(4)
_cell_volume                     2104.46
loop_
_atom_site_label
_atom_site_type_symbol
_atom_site_fract_x
_atom_site_fract_y
_atom_site_fract_z
Ag1 Ag 0.61421(6) 0.57581(4) 0.54173(3)
Ag2 Ag 0.09852(7) 0.42744(4) 0.95414(4)
S1 S 0.1655(2) 0.56922(13) 1.06699(12)
P1 P 0.69846(18) 0.74495(12) 0.51208(12)
S2 S 0.34010(19) 0.56878(13) 0.55092(12)
P2 P 0.08873(19) 0.25813(13) 0.97591(12)
C1 C 0.6355(7) 0.8277(5) 0.5887(5)
C2 C 0.0075(8) 0.1769(5) 0.8826(5)
C3 C 1.1015(10) 0.7334(9) 0.5027(7)
H1 H 1.1486 0.6855 0.4890
C4 C 0.2159(8) 0.5260(5) 1.1641(5)
C5 C -0.0076(8) 0.2122(5) 1.0708(5)
C6 C 0.9606(9) 0.8754(6) 0.5436(6)
H2 H 0.9144 0.9238 0.5577
C7 C 0.8862(7) 0.7828(5) 0.5178(5)
C8 C 0.3730(9) 0.4559(6) 1.2453(6)
H3 H 0.4489 0.4281 1.2454
C9 C 0.6463(8) 0.7780(5) 0.4057(5)
C10 C 0.6090(9) 0.9147(6) 0.5659(5)
H4 H 0.6277 0.9356 0.5098
C11 C 0.2907(7) 0.5351(5) 0.6568(5)
C12 C 0.2162(11) 0.5721(6) 0.8002(6)
H5 H 0.1936 0.6177 0.8400
C13 C 1.1731(10) 0.8245(9) 0.5281(7)
H6 H 1.2691 0.8384 0.5316
C14 C -0.1330(8) 0.1440(7) 1.0642(6)
H7 H -0.1682 0.1163 1.0093
C15 C 0.4647(12) 0.7608(8) 0.2959(7)
H8 H 0.3727 0.7372 0.2781
C16 C 0.2486(9) 0.4223(6) 0.7676(5)
H9 H 0.2478 0.3605 0.7838
C17 C 0.2542(8) 0.2290(6) 0.9929(5)
C18 C 0.1484(9) 0.5318(6) 1.2428(5)
H10 H 0.0695 0.5564 1.2443
C19 C 0.1973(10) 0.5016(6) 1.3176(5)
H11 H 0.1505 0.5073 1.3693
C20 C 0.2536(9) 0.6000(5) 0.7179(5)
H12 H 0.2543 0.6623 0.7030
C21 C -0.1063(13) 0.1628(9) 0.7410(7)
H13 H -0.1385 0.1914 0.6943
C22 C 0.3317(8) 0.4863(5) 1.1684(5)
H14 H 0.3814 0.4805 1.1180
C23 C 0.0433(11) 0.2532(6) 1.1536(6)
H15 H 0.1262 0.2994 1.1590
C24 C 0.7360(10) 0.8320(6) 0.3498(6)
H16 H 0.8281 0.8555 0.3672
C25 C 0.6102(15) 0.7980(8) 0.6720(7)
H17 H 0.6300 0.7407 0.6881
C26 C 0.3718(9) 0.2981(9) 0.9772(7)
H18 H 0.3636 0.3581 0.9605
C27 C -0.1146(11) 0.0652(9) 0.7364(7)
H19 H -0.1600 0.0269 0.6884
C28 C 0.2681(11) 0.1404(8) 1.0227(7)
H20 H 0.1909 0.0940 1.0367
C29 C -0.0492(11) 0.2181(7) 0.8166(6)
H21 H -0.0494 0.2832 0.8224
N1 N 0.2098(8) 0.4828(5) 0.8275(4)
C30 C 0.9590(9) 0.7122(6) 0.4973(6)
H22 H 0.9109 0.6499 0.4798
C31 C 0.5103(9) 0.7414(6) 0.3777(6)
H23 H 0.4492 0.7035 0.4140
C32 C 0.5542(10) 0.9702(7) 0.6279(7)
H24 H 0.5351 1.0281 0.6129
C33 C 0.2893(9) 0.4442(6) 0.6843(5)
H25 H 0.3158 0.3984 0.6466
C34 C 0.5285(12) 0.9402(8) 0.7099(8)
H26 H 0.4931 0.9782 0.7511
C35 C -0.2059(10) 0.1171(8) 1.1397(7)
H27 H -0.2893 0.0714 1.1349
C36 C 1.1046(10) 0.8959(8) 0.5486(7)
H28 H 1.1542 0.9580 0.5658
C37 C -0.0300(12) 0.2249(7) 1.2283(7)
H29 H 0.0052 0.2513 1.2836
C38 C 0.5540(17) 0.8554(9) 0.7325(8)
H30 H 0.5341 0.8351 0.7887
C39 C 0.6897(14) 0.8518(8) 0.2669(7)
H31 H 0.7499 0.8896 0.2301
C40 C 0.5120(13) 0.1921(16) 1.0131(9)
H32 H 0.5992 0.1796 1.0195
C41 C 0.0029(11) 0.0798(7) 0.8750(7)
H33 H 0.0405 0.0515 0.9198
C42 C -0.1548(11) 0.1577(9) 1.2209(7)
H34 H -0.2042 0.1401 1.2709
C43 C 0.5545(16) 0.8146(9) 0.2412(7)
H35 H 0.5234 0.8260 0.1859
C44 C -0.0578(11) 0.0238(7) 0.8006(8)
H36 H -0.0593 -0.0416 0.7950
C45 C 0.4001(15) 0.1234(12) 1.0308(8)
H37 H 0.4110 0.0644 1.0486
N2 N 0.3085(7) 0.4645(5) 1.3207(5)
C46 C 0.5010(12) 0.2793(14) 0.9861(9)
H38 H 0.5795 0.3255 0.9738
Ag1A Ag 0.38579(6) 0.42419(4) 0.45827(3)
Ag1A_2 Ag 0.38579(6) 0.42419(4) 1.45827(3)
Ag2A Ag -0.09852(7) 0.57256(4) 1.04586(4)
S1A S -0.1655(2) 0.43078(13) 0.93301(12)
S2A S 0.65990(19) 0.43122(13) 0.44908(12)
N2A N 0.6915(7) 0.5355(5) 0.6793(5)
loop_
_geom_bond_atom_site_label_1
_geom_bond_atom_site_label_2
_geom_bond_site_symmetry_1
_geom_bond_site_symmetry_2
Ag1 P1 1_555 1_555
Ag2 S1 1_555 1_555
S1 C4 1_555 1_555
P1 C1 1_555 1_555
S2 Ag1 1_555 1_555
P2 Ag2 1_555 1_555
C1 C10 1_555 1_555
C2 P2 1_555 1_555
C3 H1 1_555 1_555
C4 C18 1_555 1_555
C5 P2 1_555 1_555
C6 H2 1_555 1_555
C7 P1 1_555 1_555
C8 H3 1_555 1_555
C9 P1 1_555 1_555
C10 H4 1_555 1_555
C11 S2 1_555 1_555
C12 H5 1_555 1_555
C13 C3 1_555 1_555
H6 C13 1_555 1_555
C14 C5 1_555 1_555
H7 C14 1_555 1_555
C15 H8 1_555 1_555
C16 H9 1_555 1_555
C17 P2 1_555 1_555
C18 H10 1_555 1_555
C19 C18 1_555 1_555
H11 C19 1_555 1_555
C20 C11 1_555 1_555
H12 C20 1_555 1_555
C21 H13 1_555 1_555
C22 C4 1_555 1_555
H14 C22 1_555 1_555
C23 C5 1_555 1_555
H15 C23 1_555 1_555
C24 C9 1_555 1_555
H16 C24 1_555 1_555
C25 C1 1_555 1_555
H17 C25 1_555 1_555
C26 C17 1_555 1_555
H18 C26 1_555 1_555
C27 C21 1_555 1_555
H19 C27 1_555 1_555
C28 C17 1_555 1_555
H20 C28 1_555 1_555
C29 C2 1_555 1_555
H21 C29 1_555 1_555
N1 Ag2 1_555 1_555
C30 C3 1_555 1_555
H22 C30 1_555 1_555
C31 C9 1_555 1_555
H23 C31 1_555 1_555
C32 C10 1_555 1_555
H24 C32 1_555 1_555
C33 C11 1_555 1_555
H25 C33 1_555 1_555
C34 C32 1_555 1_555
H26 C34 1_555 1_555
C35 C14 1_555 1_555
H27 C35 1_555 1_555
C36 C6 1_555 1_555
H28 C36 1_555 1_555
C37 C23 1_555 1_555
H29 C37 1_555 1_555
C38 C25 1_555 1_555
H30 C38 1_555 1_555
C39 C24 1_555 1_555
H31 C39 1_555 1_555
C40 H32 1_555 1_555
C41 C2 1_555 1_555
H33 C41 1_555 1_555
C42 C35 1_555 1_555
H34 C42 1_555 1_555
C43 C15 1_555 1_555
H35 C43 1_555 1_555
C44 C27 1_555 1_555
H36 C44 1_555 1_555
C45 C28 1_555 1_555
H37 C45 1_555 1_555
N2 C8 1_555 1_555
C46 C26 1_555 1_555
H38 C46 1_555 1_555
Ag1A S2 1_555 1_555
Ag1A_2 N2 1_555 1_555
Ag2A S1 1_555 1_555
S1A Ag2 1_555 1_555
S2A Ag1 1_555 1_555
N2A Ag1 1_555 1_555
C6 C7 1_555 1_555
C7 C30 1_555 1_555
C8 C22 1_555 1_555
C12 C20 1_555 1_555
C12 N1 1_555 1_555
C13 C36 1_555 1_555
C15 C31 1_555 1_555
C16 N1 1_555 1_555
C16 C33 1_555 1_555
C19 N2 1_555 1_555
C21 C29 1_555 1_555
C34 C38 1_555 1_555
C37 C42 1_555 1_555
C39 C43 1_555 1_555
C40 C45 1_555 1_555
C40 C46 1_555 1_555
C41 C44 1_555 1_555
Ag1A S2A 1_555 1_555
Ag2A S1A 1_555 1_555

#END
