
#######################################################################
#
#                 Cambridge Crystallographic Data Centre
#                                CCDC 
#
#######################################################################
#
# If this CIF has been generated from an entry in the Cambridge 
# Structural Database, then it will include bibliographic, chemical, 
# crystal, experimental, refinement or atomic coordinate data resulting 
# from the CCDC's data processing and validation procedures.
#
#######################################################################

data_LUHTOZ
_symmetry_cell_setting           triclinic
_symmetry_space_group_name_H-M   'P -1'
_symmetry_Int_Tables_number      2
_space_group_name_Hall           '-P 1'
loop_
_symmetry_equiv_pos_site_id
_symmetry_equiv_pos_as_xyz
1 x,y,z
2 -x,-y,-z
_cell_length_a                   11.8729(7)
_cell_length_b                   16.5311(10)
_cell_length_c                   19.4313(12)
_cell_angle_alpha                98.0890(10)
_cell_angle_beta                 107.5170(10)
_cell_angle_gamma                110.1450(10)
_cell_volume                     3284.82
loop_
_atom_site_label
_atom_site_type_symbol
_atom_site_fract_x
_atom_site_fract_y
_atom_site_fract_z
P1 P 0.25254(10) 0.24809(7) 0.74914(6)
Mo1 Mo 0.15987(4) 0.10124(2) 0.85662(2)
O1 O 0.1173(2) 0.24722(18) 0.71516(14)
Ag1 Ag 0.59985(4) 0.15391(3) 0.56629(3)
C1 C 0.7288(6) 0.3579(4) 0.5859(5)
H1 H 0.8042 0.3609 0.6212
N1 N 0.6277(4) 0.2828(3) 0.5449(3)
Mo2 Mo 0.35304(4) 0.38459(2) 0.63514(2)
O2 O 0.3198(2) 0.26238(18) 0.69282(14)
Ag2 Ag 0.5000 0.5000 0.5000
C2 C 0.5440(6) 0.3118(4) 0.5046(3)
H2 H 0.4614 0.2734 0.4706
N2 N 0.7095(4) 0.4281(3) 0.5705(4)
Mo3 Mo 0.07386(3) 0.37270(2) 0.68687(2)
O3 O 0.3328(3) 0.32395(17) 0.82198(14)
Ag3 Ag 0.0000 0.0000 1.0000
C3 C 0.8051(6) 0.5228(5) 0.5935(6)
H3 H 0.8264 0.5363 0.5508
H4 H 0.8838 0.5291 0.6323
N3 N 0.5888(5) 0.3988(3) 0.5174(3)
Mo4 Mo 0.25141(4) 0.15900(2) 0.569678(19)
O4 O 0.2392(2) 0.15818(17) 0.76576(15)
Ag4 Ag 0.07118(6) -0.35265(3) 1.06550(3)
C4 C 0.7607(5) 0.5900(4) 0.6219(4)
N4 N 0.5526(4) 0.0302(3) 0.5971(2)
Mo5 Mo 0.10786(4) 0.01037(2) 0.67495(2)
O5 O 0.5235(3) 0.0679(2) 0.84559(19)
C5 C 0.7992(6) 0.6725(4) 0.6045(4)
H5 H 0.8475 0.6826 0.5743
N5 N 0.5603(5) -0.0928(3) 0.6300(3)
Mo6 Mo 0.26888(4) 0.34625(3) 0.92896(2)
O6 O -0.1854(3) 0.0893(2) 0.51638(17)
C6 C 0.7660(7) 0.7376(4) 0.6319(4)
H6 H 0.7938 0.7925 0.6212
N6 N 0.4640(4) -0.0744(3) 0.6442(3)
Mo7 Mo 0.54248(3) 0.28332(3) 0.71723(2)
O7 O 0.0978(3) 0.0431(2) 0.91101(18)
C7 C 0.6925(7) 0.7232(5) 0.6747(4)
H7 H 0.6689 0.7681 0.6915
N7 N 0.0591(5) -0.2522(3) 1.0106(3)
Mo8 Mo 0.41769(4) 0.11161(3) 0.81002(2)
O8 O 0.0379(3) -0.0964(2) 0.62404(18)
C8 C 0.6530(7) 0.6451(5) 0.6934(4)
H8 H 0.6019 0.6357 0.7221
N8 N 0.0421(5) -0.1257(3) 0.9921(2)
Mo9 Mo 0.40626(4) 0.48360(2) 0.83297(2)
O9 O 0.2469(3) 0.3677(2) 1.00980(17)
C9 C 0.6904(6) 0.5798(5) 0.6689(4)
H9 H 0.6683 0.5274 0.6840
N9 N -0.0204(4) -0.1918(3) 0.9262(2)
Mo10 Mo -0.05101(3) 0.15119(2) 0.59278(2)
O10 O 0.6871(3) 0.2917(2) 0.71675(19)
C10 C 0.6100(5) -0.0282(4) 0.6022(3)
H10 H 0.6790 -0.0226 0.5871
N10 N 0.0398(5) -0.4597(3) 1.1164(3)
Mo11 Mo -0.04793(3) 0.21285(3) 0.76953(2)
O11 O 0.0203(3) 0.4477(2) 0.65575(18)
C11 C 0.4615(5) -0.0010(3) 0.6244(3)
H11 H 0.4045 0.0245 0.6291
N11 N 0.0679(5) -0.5514(3) 1.1869(3)
Mo12 Mo 0.54901(4) 0.35332(3) 0.90948(2)
O12 O 0.7030(3) 0.3916(2) 0.97107(18)
C12 C 0.3903(7) -0.1257(4) 0.6835(4)
H12 H 0.3289 -0.1013 0.6889
H13 H 0.4496 -0.1172 0.7335
N12 N -0.0522(5) -0.5546(3) 1.1693(3)
O13 O -0.1684(3) 0.2003(2) 0.80089(18)
C13 C 0.3176(5) -0.2244(4) 0.6463(3)
O14 O 0.3921(3) 0.4668(2) 0.59291(18)
C14 C 0.2085(8) -0.2565(6) 0.5833(5)
H14 H 0.1810 -0.2171 0.5608
O15 O 0.4967(3) 0.2317(2) 0.88413(16)
C15 C 0.1385(10) -0.3481(7) 0.5526(5)
H15 H 0.0633 -0.3705 0.5097
O16 O 0.4530(3) 0.5948(2) 0.85330(18)
C16 C 0.1815(12) -0.4058(6) 0.5863(6)
H16 H 0.1371 -0.4673 0.5650
O17 O 0.4543(3) 0.3596(2) 0.96750(16)
C17 C 0.2849(10) -0.3739(5) 0.6483(6)
H17 H 0.3108 -0.4130 0.6724
O18 O 0.0150(3) 0.13292(19) 0.80404(16)
C18 C 0.3553(7) -0.2830(4) 0.6778(4)
H18 H 0.4305 -0.2614 0.7205
O19 O 0.3310(3) 0.45682(19) 0.91184(16)
C19 C 0.0874(6) -0.1656(4) 1.0403(3)
H19 H 0.1352 -0.1364 1.0909
O20 O 0.4211(3) 0.45670(19) 0.74232(16)
C20 C -0.0075(5) -0.2657(4) 0.9394(3)
H20 H -0.0413 -0.3198 0.9030
O21 O 0.2368(3) 0.2169(2) 0.91369(16)
C21 C -0.0934(6) -0.1779(4) 0.8570(3)
H21 H -0.1323 -0.2328 0.8168
H22 H -0.0350 -0.1316 0.8433
O22 O -0.1324(3) 0.1490(2) 0.67046(16)
C22 C -0.1976(5) -0.1509(4) 0.8665(3)
O23 O 0.0819(3) 0.16394(19) 0.56027(16)
C23 C -0.2156(6) -0.0811(4) 0.8402(4)
H23 H -0.1642 -0.0512 0.8161
O24 O 0.4849(3) 0.1730(2) 0.74989(17)
C24 C -0.3115(6) -0.0561(5) 0.8501(5)
H24 H -0.3223 -0.0081 0.8336
O25 O 0.5469(3) 0.46860(19) 0.89086(16)
C25 C -0.3889(7) -0.1000(5) 0.8833(5)
H25 H -0.4534 -0.0828 0.8885
O26 O -0.0344(3) 0.32328(19) 0.73505(17)
C26 C -0.3738(7) -0.1695(6) 0.9093(4)
H26 H -0.4260 -0.1986 0.9333
O27 O 0.2852(3) 0.01697(19) 0.73311(16)
C27 C -0.2792(6) -0.1965(5) 0.8996(4)
H27 H -0.2708 -0.2454 0.9155
O28 O 0.2231(3) 0.1055(2) 0.48213(17)
C28 C 0.1191(6) -0.4927(4) 1.1546(4)
H28 H 0.2042 -0.4751 1.1579
O29 O 0.2042(3) 0.0696(2) 0.61459(16)
C29 C -0.0686(6) -0.5007(3) 1.1271(3)
H29 H -0.1445 -0.4926 1.1078
O30 O 0.1040(3) 0.30481(19) 0.85912(16)
C30 C -0.1447(7) -0.6127(4) 1.1970(4)
H30 H -0.2177 -0.5962 1.1890
H31 H -0.1026 -0.6025 1.2506
O31 O 0.3100(3) 0.08380(19) 0.87147(16)
C31 C -0.1937(5) -0.7106(3) 1.1586(3)
O32 O -0.0447(3) 0.2649(2) 0.59854(16)
C32 C -0.2746(6) -0.7470(4) 1.0844(3)
H32 H -0.2996 -0.7103 1.0567
O33 O 0.5796(3) 0.34453(19) 0.81225(16)
C33 C -0.3194(7) -0.8372(5) 1.0502(4)
H33 H -0.3716 -0.8604 0.9995
O34 O 0.4288(3) 0.19489(19) 0.61608(16)
C34 C -0.2870(7) -0.8920(4) 1.0908(4)
H34 H -0.3191 -0.9530 1.0679
O35 O 0.2168(3) 0.44206(19) 0.77086(16)
C35 C -0.2089(6) -0.8588(4) 1.1637(4)
H35 H -0.1865 -0.8967 1.1909
O36 O 0.0765(3) 0.00170(19) 0.76220(16)
C36 C -0.1611(6) -0.7671(4) 1.1990(3)
H36 H -0.1076 -0.7443 1.2495
O37 O -0.0062(3) 0.05856(19) 0.63615(16)
O38 O 0.1947(3) 0.37552(19) 0.63490(16)
O39 O 0.5186(3) 0.3706(2) 0.67090(16)
O40 O 0.2918(3) 0.28299(19) 0.55835(16)
P1A P -0.25254(10) -0.24809(7) 1.25086(6)
Mo1A Mo -0.15987(4) -0.10124(2) 1.14338(2)
O1A O -0.1173(2) -0.24722(18) 1.28484(14)
Mo2A Mo -0.35304(4) -0.38459(2) 1.36486(2)
O2A O -0.3198(2) -0.26238(18) 1.30718(14)
Mo3A Mo -0.07386(3) -0.37270(2) 1.31313(2)
O3A O -0.3328(3) -0.32395(17) 1.17802(14)
Mo4A Mo -0.25141(4) -0.15900(2) 1.430322(19)
O4A O -0.2392(2) -0.15818(17) 1.23424(15)
Ag4A Ag -0.07118(6) 0.35265(3) 0.93450(3)
Mo5A Mo -0.10786(4) -0.01037(2) 1.32505(2)
O5A O -0.5235(3) -0.0679(2) 1.15441(19)
Mo6A Mo -0.26888(4) -0.34625(3) 1.07104(2)
O6A O 0.1854(3) -0.0893(2) 1.48362(17)
Mo7A Mo -0.54248(3) -0.28332(3) 1.28277(2)
O7A O -0.0978(3) -0.0431(2) 1.08899(18)
N7A N -0.0591(5) 0.2522(3) 0.9894(3)
Mo8A Mo -0.41769(4) -0.11161(3) 1.18998(2)
O8A O -0.0379(3) 0.0964(2) 1.37596(18)
N8A N -0.0421(5) 0.1257(3) 1.0079(2)
Mo9A Mo -0.40626(4) -0.48360(2) 1.16703(2)
O9A O -0.2469(3) -0.3677(2) 0.99020(17)
N9A N 0.0204(4) 0.1918(3) 1.0738(2)
Mo10A Mo 0.05101(3) -0.15119(2) 1.40722(2)
O10A O -0.6871(3) -0.2917(2) 1.28325(19)
N10A N -0.0398(5) 0.4597(3) 0.8836(3)
Mo11A Mo 0.04793(3) -0.21285(3) 1.23047(2)
O11A O -0.0203(3) -0.4477(2) 1.34425(18)
N11A N -0.0679(5) 0.5514(3) 0.8131(3)
Mo12A Mo -0.54901(4) -0.35332(3) 1.09052(2)
O12A O -0.7030(3) -0.3916(2) 1.02893(18)
N12A N 0.0522(5) 0.5546(3) 0.8307(3)
O13A O 0.1684(3) -0.2003(2) 1.19911(18)
O14A O -0.3921(3) -0.4668(2) 1.40709(18)
O15A O -0.4967(3) -0.2317(2) 1.11587(16)
O16A O -0.4530(3) -0.5948(2) 1.14670(18)
O17A O -0.4543(3) -0.3596(2) 1.03250(16)
O18A O -0.0150(3) -0.13292(19) 1.19596(16)
O19A O -0.3310(3) -0.45682(19) 1.08816(16)
C19A C -0.0874(6) 0.1656(4) 0.9597(3)
H19A H -0.1352 0.1364 0.9091
O20A O -0.4211(3) -0.45670(19) 1.25768(16)
C20A C 0.0075(5) 0.2657(4) 1.0606(3)
H20A H 0.0413 0.3198 1.0970
O21A O -0.2368(3) -0.2169(2) 1.08631(16)
C21A C 0.0934(6) 0.1779(4) 1.1430(3)
H21A H 0.1323 0.2328 1.1832
H22A H 0.0350 0.1316 1.1567
O22A O 0.1324(3) -0.1490(2) 1.32954(16)
C22A C 0.1976(5) 0.1509(4) 1.1335(3)
O23A O -0.0819(3) -0.16394(19) 1.43973(16)
C23A C 0.2156(6) 0.0811(4) 1.1598(4)
H23A H 0.1642 0.0512 1.1839
O24A O -0.4849(3) -0.1730(2) 1.25011(17)
C24A C 0.3115(6) 0.0561(5) 1.1499(5)
H24A H 0.3223 0.0081 1.1664
O25A O -0.5469(3) -0.46860(19) 1.10914(16)
C25A C 0.3889(7) 0.1000(5) 1.1167(5)
H25A H 0.4534 0.0828 1.1115
O26A O 0.0344(3) -0.32328(19) 1.26495(17)
C26A C 0.3738(7) 0.1695(6) 1.0907(4)
H26A H 0.4260 0.1986 1.0667
O27A O -0.2852(3) -0.01697(19) 1.26689(16)
C27A C 0.2792(6) 0.1965(5) 1.1004(4)
H27A H 0.2708 0.2454 1.0845
O28A O -0.2231(3) -0.1055(2) 1.51787(17)
C28A C -0.1191(6) 0.4927(4) 0.8454(4)
H28A H -0.2042 0.4751 0.8421
O29A O -0.2042(3) -0.0696(2) 1.38541(16)
C29A C 0.0686(6) 0.5007(3) 0.8729(3)
H29A H 0.1445 0.4926 0.8922
O30A O -0.1040(3) -0.30481(19) 1.14088(16)
C30A C 0.1447(7) 0.6127(4) 0.8030(4)
H30A H 0.2177 0.5962 0.8110
H31A H 0.1026 0.6025 0.7494
O31A O -0.3100(3) -0.08380(19) 1.12853(16)
C31A C 0.1937(5) 0.7106(3) 0.8414(3)
O32A O 0.0447(3) -0.2649(2) 1.40146(16)
C32A C 0.2746(6) 0.7470(4) 0.9156(3)
H32A H 0.2996 0.7103 0.9433
O33A O -0.5796(3) -0.34453(19) 1.18775(16)
C33A C 0.3194(7) 0.8372(5) 0.9498(4)
H33A H 0.3716 0.8604 1.0005
O34A O -0.4288(3) -0.19489(19) 1.38392(16)
C34A C 0.2870(7) 0.8920(4) 0.9092(4)
H34A H 0.3191 0.9530 0.9321
O35A O -0.2168(3) -0.44206(19) 1.22914(16)
C35A C 0.2089(6) 0.8588(4) 0.8363(4)
H35A H 0.1865 0.8967 0.8091
O36A O -0.0765(3) -0.00170(19) 1.23780(16)
C36A C 0.1611(6) 0.7671(4) 0.8010(3)
H36A H 0.1076 0.7443 0.7505
O37A O 0.0062(3) -0.05856(19) 1.36385(16)
O38A O -0.1947(3) -0.37552(19) 1.36510(16)
O39A O -0.5186(3) -0.3706(2) 1.32910(16)
O40A O -0.2918(3) -0.28299(19) 1.44165(16)
Ag1A Ag 0.40015(4) 0.84609(3) 0.43371(3)
C1A C 0.2712(6) 0.6421(4) 0.4141(5)
H1A H 0.1958 0.6391 0.3788
N1A N 0.3723(4) 0.7172(3) 0.4551(3)
C2A C 0.4560(6) 0.6882(4) 0.4954(3)
H2A H 0.5386 0.7266 0.5294
N2A N 0.2905(4) 0.5719(3) 0.4295(4)
C3A C 0.1949(6) 0.4772(5) 0.4065(6)
H3A H 0.1736 0.4637 0.4492
H4A H 0.1162 0.4709 0.3677
N3A N 0.4112(5) 0.6012(3) 0.4826(3)
C4A C 0.2393(5) 0.4100(4) 0.3781(4)
N4A N 0.4474(4) 0.9698(3) 0.4029(2)
C5A C 0.2008(6) 0.3275(4) 0.3955(4)
H5A H 0.1525 0.3174 0.4257
N5A N 0.4397(5) 1.0928(3) 0.3700(3)
C6A C 0.2340(7) 0.2624(4) 0.3681(4)
H6A H 0.2062 0.2075 0.3788
N6A N 0.5360(4) 1.0744(3) 0.3558(3)
C7A C 0.3075(7) 0.2768(5) 0.3253(4)
H7A H 0.3311 0.2319 0.3085
C8A C 0.3470(7) 0.3549(5) 0.3066(4)
H8A H 0.3981 0.3643 0.2779
C9A C 0.3096(6) 0.4202(5) 0.3311(4)
H9A H 0.3317 0.4726 0.3160
C10A C 0.3900(5) 1.0282(4) 0.3978(3)
H10A H 0.3210 1.0226 0.4129
C11A C 0.5385(5) 1.0010(3) 0.3756(3)
H11A H 0.5955 0.9755 0.3709
C12A C 0.6097(7) 1.1257(4) 0.3165(4)
H12A H 0.6711 1.1013 0.3111
H13A H 0.5504 1.1172 0.2665
C13A C 0.6824(5) 1.2244(4) 0.3537(3)
C14A C 0.7915(8) 1.2565(6) 0.4167(5)
H14A H 0.8190 1.2171 0.4392
C15A C 0.8615(10) 1.3481(7) 0.4474(5)
H15A H 0.9367 1.3705 0.4903
C16A C 0.8185(12) 1.4058(6) 0.4137(6)
H16A H 0.8629 1.4673 0.4350
C17A C 0.7151(10) 1.3739(5) 0.3517(6)
H17A H 0.6892 1.4130 0.3276
C18A C 0.6447(7) 1.2830(4) 0.3222(4)
H18A H 0.5695 1.2614 0.2795
Ag2_2 Ag -0.5000 -0.5000 1.5000
O14A_2 O 0.6079(3) 0.5332(2) 0.40709(18)
loop_
_geom_bond_atom_site_label_1
_geom_bond_atom_site_label_2
_geom_bond_site_symmetry_1
_geom_bond_site_symmetry_2
P1 O1 1_555 1_555
Mo1 O4 1_555 1_555
O1 Mo3 1_555 1_555
Ag1 N1 1_555 1_555
C1 H1 1_555 1_555
N1 C1 1_555 1_555
Mo2 O2 1_555 1_555
O2 P1 1_555 1_555
Ag2 N3 1_555 1_555
C2 N1 1_555 1_555
H2 C2 1_555 1_555
N2 C1 1_555 1_555
Mo3 O11 1_555 1_555
O3 P1 1_555 1_555
Ag3 O7 1_555 1_555
C3 N2 1_555 1_555
H3 C3 1_555 1_555
H4 C3 1_555 1_555
N3 C2 1_555 1_555
Mo4 O2 1_555 1_555
O4 P1 1_555 1_555
Ag4 N7 1_555 1_555
C4 C3 1_555 1_555
N4 Ag1 1_555 1_555
Mo5 O4 1_555 1_555
O5 Mo8 1_555 1_555
C5 C4 1_555 1_555
H5 C5 1_555 1_555
N5 N6 1_555 1_555
Mo6 O3 1_555 1_555
O6 Mo10 1_555 1_555
C6 C5 1_555 1_555
H6 C6 1_555 1_555
N6 C11 1_555 1_555
Mo7 O2 1_555 1_555
O7 Mo1 1_555 1_555
C7 C6 1_555 1_555
H7 C7 1_555 1_555
N7 C19 1_555 1_555
Mo8 O4 1_555 1_555
O8 Mo5 1_555 1_555
C8 C7 1_555 1_555
H8 C8 1_555 1_555
N8 Ag3 1_555 1_555
Mo9 O3 1_555 1_555
O9 Mo6 1_555 1_555
C9 C4 1_555 1_555
H9 C9 1_555 1_555
N9 N8 1_555 1_555
Mo10 O1 1_555 1_555
O10 Mo7 1_555 1_555
C10 N4 1_555 1_555
H10 C10 1_555 1_555
N10 Ag4 1_555 1_555
Mo11 O1 1_555 1_555
C11 N4 1_555 1_555
H11 C11 1_555 1_555
N11 N12 1_555 1_555
Mo12 O3 1_555 1_555
O12 Mo12 1_555 1_555
C12 N6 1_555 1_555
H12 C12 1_555 1_555
H13 C12 1_555 1_555
N12 C29 1_555 1_555
O13 Mo11 1_555 1_555
C13 C12 1_555 1_555
O14 Mo2 1_555 1_555
C14 C13 1_555 1_555
H14 C14 1_555 1_555
O15 Mo8 1_555 1_555
C15 C14 1_555 1_555
H15 C15 1_555 1_555
O16 Mo9 1_555 1_555
C16 C15 1_555 1_555
H16 C16 1_555 1_555
O17 Mo6 1_555 1_555
C17 C16 1_555 1_555
H17 C17 1_555 1_555
O18 Mo1 1_555 1_555
C18 C13 1_555 1_555
H18 C18 1_555 1_555
O19 Mo6 1_555 1_555
C19 N8 1_555 1_555
H19 C19 1_555 1_555
O20 Mo2 1_555 1_555
C20 N7 1_555 1_555
H20 C20 1_555 1_555
O21 Mo1 1_555 1_555
C21 N9 1_555 1_555
H21 C21 1_555 1_555
H22 C21 1_555 1_555
O22 Mo10 1_555 1_555
C22 C21 1_555 1_555
O23 Mo4 1_555 1_555
C23 C22 1_555 1_555
H23 C23 1_555 1_555
O24 Mo7 1_555 1_555
C24 C23 1_555 1_555
H24 C24 1_555 1_555
O25 Mo9 1_555 1_555
C25 C24 1_555 1_555
H25 C25 1_555 1_555
O26 Mo3 1_555 1_555
C26 C25 1_555 1_555
H26 C26 1_555 1_555
O27 Mo5 1_555 1_555
C27 C22 1_555 1_555
H27 C27 1_555 1_555
O28 Mo4 1_555 1_555
C28 N10 1_555 1_555
H28 C28 1_555 1_555
O29 Mo4 1_555 1_555
C29 N10 1_555 1_555
H29 C29 1_555 1_555
O30 Mo6 1_555 1_555
C30 N12 1_555 1_555
H30 C30 1_555 1_555
H31 C30 1_555 1_555
O31 Mo1 1_555 1_555
C31 C30 1_555 1_555
O32 Mo3 1_555 1_555
C32 C31 1_555 1_555
H32 C32 1_555 1_555
O33 Mo7 1_555 1_555
C33 C32 1_555 1_555
H33 C33 1_555 1_555
O34 Mo4 1_555 1_555
C34 C33 1_555 1_555
H34 C34 1_555 1_555
O35 Mo3 1_555 1_555
C35 C34 1_555 1_555
H35 C35 1_555 1_555
O36 Mo1 1_555 1_555
C36 C31 1_555 1_555
H36 C36 1_555 1_555
O37 Mo5 1_555 1_555
O38 Mo2 1_555 1_555
O39 Mo2 1_555 1_555
O40 Mo2 1_555 1_555
P1A O1A 1_555 1_555
Mo1A O4A 1_555 1_555
O1A Mo3A 1_555 1_555
Mo2A O2A 1_555 1_555
O2A P1A 1_555 1_555
Mo3A O11A 1_555 1_555
O3A P1A 1_555 1_555
Mo4A O2A 1_555 1_555
O4A P1A 1_555 1_555
Ag4A N7A 1_555 1_555
Mo5A O4A 1_555 1_555
O5A Mo8A 1_555 1_555
Mo6A O3A 1_555 1_555
O6A Mo10A 1_555 1_555
Mo7A O2A 1_555 1_555
O7A Ag3 1_555 1_555
N7A C19A 1_555 1_555
Mo8A O4A 1_555 1_555
O8A Mo5A 1_555 1_555
N8A Ag3 1_555 1_555
Mo9A O3A 1_555 1_555
O9A Mo6A 1_555 1_555
N9A N8A 1_555 1_555
Mo10A O1A 1_555 1_555
O10A Mo7A 1_555 1_555
N10A Ag4A 1_555 1_555
Mo11A O1A 1_555 1_555
N11A N12A 1_555 1_555
Mo12A O3A 1_555 1_555
O12A Mo12A 1_555 1_555
N12A C29A 1_555 1_555
O13A Mo11A 1_555 1_555
O14A Mo2A 1_555 1_555
O15A Mo8A 1_555 1_555
O16A Mo9A 1_555 1_555
O17A Mo6A 1_555 1_555
O18A Mo1A 1_555 1_555
O19A Mo6A 1_555 1_555
C19A N8A 1_555 1_555
H19A C19A 1_555 1_555
O20A Mo2A 1_555 1_555
C20A N7A 1_555 1_555
H20A C20A 1_555 1_555
O21A Mo1A 1_555 1_555
C21A N9A 1_555 1_555
H21A C21A 1_555 1_555
H22A C21A 1_555 1_555
O22A Mo10A 1_555 1_555
C22A C21A 1_555 1_555
O23A Mo4A 1_555 1_555
C23A C22A 1_555 1_555
H23A C23A 1_555 1_555
O24A Mo7A 1_555 1_555
C24A C23A 1_555 1_555
H24A C24A 1_555 1_555
O25A Mo9A 1_555 1_555
C25A C24A 1_555 1_555
H25A C25A 1_555 1_555
O26A Mo3A 1_555 1_555
C26A C25A 1_555 1_555
H26A C26A 1_555 1_555
O27A Mo5A 1_555 1_555
C27A C22A 1_555 1_555
H27A C27A 1_555 1_555
O28A Mo4A 1_555 1_555
C28A N10A 1_555 1_555
H28A C28A 1_555 1_555
O29A Mo4A 1_555 1_555
C29A N10A 1_555 1_555
H29A C29A 1_555 1_555
O30A Mo6A 1_555 1_555
C30A N12A 1_555 1_555
H30A C30A 1_555 1_555
H31A C30A 1_555 1_555
O31A Mo1A 1_555 1_555
C31A C30A 1_555 1_555
O32A Mo3A 1_555 1_555
C32A C31A 1_555 1_555
H32A C32A 1_555 1_555
O33A Mo7A 1_555 1_555
C33A C32A 1_555 1_555
H33A C33A 1_555 1_555
O34A Mo4A 1_555 1_555
C34A C33A 1_555 1_555
H34A C34A 1_555 1_555
O35A Mo3A 1_555 1_555
C35A C34A 1_555 1_555
H35A C35A 1_555 1_555
O36A Mo1A 1_555 1_555
C36A C31A 1_555 1_555
H36A C36A 1_555 1_555
O37A Mo5A 1_555 1_555
O38A Mo2A 1_555 1_555
O39A Mo2A 1_555 1_555
O40A Mo2A 1_555 1_555
Ag1A N1A 1_555 1_555
C1A H1A 1_555 1_555
N1A C1A 1_555 1_555
C2A N1A 1_555 1_555
H2A C2A 1_555 1_555
N2A C1A 1_555 1_555
C3A N2A 1_555 1_555
H3A C3A 1_555 1_555
H4A C3A 1_555 1_555
N3A Ag2 1_555 1_555
C4A C3A 1_555 1_555
N4A Ag1A 1_555 1_555
C5A C4A 1_555 1_555
H5A C5A 1_555 1_555
N5A N6A 1_555 1_555
C6A C5A 1_555 1_555
H6A C6A 1_555 1_555
N6A C11A 1_555 1_555
C7A C6A 1_555 1_555
H7A C7A 1_555 1_555
C8A C7A 1_555 1_555
H8A C8A 1_555 1_555
C9A C4A 1_555 1_555
H9A C9A 1_555 1_555
C10A N4A 1_555 1_555
H10A C10A 1_555 1_555
C11A N4A 1_555 1_555
H11A C11A 1_555 1_555
C12A N6A 1_555 1_555
H12A C12A 1_555 1_555
H13A C12A 1_555 1_555
C13A C12A 1_555 1_555
C14A C13A 1_555 1_555
H14A C14A 1_555 1_555
C15A C14A 1_555 1_555
H15A C15A 1_555 1_555
C16A C15A 1_555 1_555
H16A C16A 1_555 1_555
C17A C16A 1_555 1_555
H17A C17A 1_555 1_555
C18A C13A 1_555 1_555
H18A C18A 1_555 1_555
Ag2_2 O14A 1_555 1_555
O14A_2 Ag2 1_555 1_555
Ag2 O14 1_555 1_555
N2 N3 1_555 1_555
Mo3 O38 1_555 1_555
Mo4 O40 1_555 1_555
Mo5 O29 1_555 1_555
Mo5 O36 1_555 1_555
N5 C10 1_555 1_555
Mo6 O21 1_555 1_555
Mo7 O34 1_555 1_555
Mo7 O39 1_555 1_555
Mo8 O24 1_555 1_555
Mo8 O27 1_555 1_555
Mo8 O31 1_555 1_555
C8 C9 1_555 1_555
Mo9 O19 1_555 1_555
Mo9 O20 1_555 1_555
Mo9 O35 1_555 1_555
N9 C20 1_555 1_555
Mo10 O23 1_555 1_555
Mo10 O32 1_555 1_555
Mo10 O37 1_555 1_555
Mo11 O18 1_555 1_555
Mo11 O22 1_555 1_555
Mo11 O26 1_555 1_555
Mo11 O30 1_555 1_555
N11 C28 1_555 1_555
Mo12 O15 1_555 1_555
Mo12 O17 1_555 1_555
Mo12 O25 1_555 1_555
Mo12 O33 1_555 1_555
C17 C18 1_555 1_555
C26 C27 1_555 1_555
C35 C36 1_555 1_555
Mo1A O7A 1_555 1_555
Mo3A O38A 1_555 1_555
Mo4A O40A 1_555 1_555
Mo5A O29A 1_555 1_555
Mo5A O36A 1_555 1_555
Mo6A O21A 1_555 1_555
Mo7A O34A 1_555 1_555
Mo7A O39A 1_555 1_555
Mo8A O24A 1_555 1_555
Mo8A O27A 1_555 1_555
Mo8A O31A 1_555 1_555
Mo9A O19A 1_555 1_555
Mo9A O20A 1_555 1_555
Mo9A O35A 1_555 1_555
N9A C20A 1_555 1_555
Mo10A O23A 1_555 1_555
Mo10A O32A 1_555 1_555
Mo10A O37A 1_555 1_555
Mo11A O18A 1_555 1_555
Mo11A O22A 1_555 1_555
Mo11A O26A 1_555 1_555
Mo11A O30A 1_555 1_555
N11A C28A 1_555 1_555
Mo12A O15A 1_555 1_555
Mo12A O17A 1_555 1_555
Mo12A O25A 1_555 1_555
Mo12A O33A 1_555 1_555
C26A C27A 1_555 1_555
C35A C36A 1_555 1_555
C2A N3A 1_555 1_555
N2A N3A 1_555 1_555
N5A C10A 1_555 1_555
C8A C9A 1_555 1_555
C17A C18A 1_555 1_555

#END
