
#######################################################################
#
#                 Cambridge Crystallographic Data Centre
#                                CCDC 
#
#######################################################################
#
# If this CIF has been generated from an entry in the Cambridge 
# Structural Database, then it will include bibliographic, chemical, 
# crystal, experimental, refinement or atomic coordinate data resulting 
# from the CCDC's data processing and validation procedures.
#
#######################################################################

data_LUHYOD
_symmetry_cell_setting           triclinic
_symmetry_space_group_name_H-M   'P -1'
_symmetry_Int_Tables_number      2
_space_group_name_Hall           '-P 1'
loop_
_symmetry_equiv_pos_site_id
_symmetry_equiv_pos_as_xyz
1 x,y,z
2 -x,-y,-z
_cell_length_a                   8.9565(18)
_cell_length_b                   10.660(2)
_cell_length_c                   15.740(3)
_cell_angle_alpha                82.42(3)
_cell_angle_beta                 87.27(3)
_cell_angle_gamma                79.88(3)
_cell_volume                     1466.03
loop_
_atom_site_label
_atom_site_type_symbol
_atom_site_fract_x
_atom_site_fract_y
_atom_site_fract_z
Co1 Co 0.05210(6) -0.26435(5) -0.25524(3)
O1 O -0.0352(4) -0.3807(3) -0.34316(19)
O2 O -0.0755(4) -0.4112(3) -0.20657(19)
O3 O -0.1907(5) -0.5108(4) -0.2894(3)
O4 O -0.1863(4) -0.1589(3) -0.2777(2)
O5 O -0.2654(7) -0.0776(9) -0.1648(4)
O6 O -0.4228(5) -0.1371(6) -0.2377(4)
N1 N 0.2635(4) -0.3963(3) -0.2402(2)
N2 N 0.4807(4) -0.4727(4) -0.1715(2)
N3 N 0.0915(4) -0.1784(3) -0.1479(2)
N4 N 0.2010(4) -0.0646(3) -0.0668(2)
N5 N 0.1246(4) -0.1294(3) -0.3472(2)
N6 N 0.2305(4) -0.0616(4) -0.4719(2)
N7 N -0.1030(4) -0.4372(3) -0.2806(3)
N8 N -0.2928(5) -0.1304(4) -0.2260(3)
C1 C 0.3092(5) -0.5274(4) -0.2513(3)
C2 C 0.2457(6) -0.6082(5) -0.2966(3)
H1 H 0.1571 -0.5778 -0.3268
C3 C 0.3171(6) -0.7345(5) -0.2957(4)
H2 H 0.2744 -0.7901 -0.3243
C4 C 0.4540(6) -0.7802(5) -0.2522(4)
H3 H 0.5005 -0.8652 -0.2533
C5 C 0.5205(6) -0.7015(5) -0.2079(3)
H4 H 0.6112 -0.7312 -0.1797
C6 C 0.4446(5) -0.5744(4) -0.2077(3)
C7 C 0.3707(5) -0.3715(4) -0.1935(3)
H5 H 0.3703 -0.2907 -0.1772
C8 C 0.6038(5) -0.4756(5) -0.1118(3)
H6 H 0.6201 -0.3886 -0.1093
H7 H 0.6968 -0.5237 -0.1333
C9 C 0.5671(5) -0.5373(5) -0.0213(3)
H8 H 0.5474 -0.6231 -0.0246
H9 H 0.6551 -0.5453 0.0139
C10 C 0.0582(5) -0.2176(4) -0.0621(3)
C11 C -0.0253(5) -0.3117(4) -0.0248(3)
H10 H -0.0695 -0.3603 -0.0582
C12 C -0.0387(6) -0.3289(5) 0.0639(3)
H11 H -0.0929 -0.3907 0.0906
C13 C 0.0269(6) -0.2559(5) 0.1143(3)
H12 H 0.0141 -0.2701 0.1736
C14 C 0.1106(5) -0.1629(4) 0.0791(3)
H13 H 0.1537 -0.1143 0.1131
C15 C 0.1266(4) -0.1464(4) -0.0105(3)
C16 C 0.1761(5) -0.0884(4) -0.1466(3)
H14 H 0.2146 -0.0457 -0.1959
C17 C 0.2971(5) 0.0238(4) -0.0438(3)
H15 H 0.2452 0.0721 0.0003
H16 H 0.3125 0.0845 -0.0937
C18 C 0.4515(5) -0.0468(4) -0.0112(3)
H17 H 0.4366 -0.1067 0.0392
H18 H 0.5035 -0.0956 -0.0549
C19 C 0.0698(5) 0.0021(4) -0.3674(3)
C20 C -0.0320(5) 0.0864(4) -0.3238(3)
H19 H -0.0759 0.0595 -0.2713
C21 C -0.0657(6) 0.2135(5) -0.3625(4)
H20 H -0.1341 0.2725 -0.3352
C22 C 0.0012(7) 0.2543(5) -0.4414(4)
H21 H -0.0229 0.3400 -0.4646
C23 C 0.1013(6) 0.1711(5) -0.4852(3)
H22 H 0.1434 0.1979 -0.5382
C24 C 0.1362(5) 0.0456(4) -0.4465(3)
C25 C 0.2191(5) -0.1601(5) -0.4116(3)
H23 H 0.2725 -0.2427 -0.4144
C26 C 0.3353(6) -0.0644(6) -0.5476(3)
H24 H 0.3744 -0.1528 -0.5559
H25 H 0.2805 -0.0232 -0.5983
C27 C 0.4641(8) 0.0027(11) -0.5363(4)
H26 H 0.5415 -0.0251 -0.5782
H27 H 0.4278 0.0932 -0.5541
Co1A Co 0.94790(6) -0.73565(5) 0.25524(3)
Co1A_2 Co 0.94790(6) 0.26435(5) 0.25524(3)
Co1A_3 Co 0.94790(6) 0.26435(5) -0.74476(3)
O1A O 1.0352(4) -0.6193(3) 0.34316(19)
O2A O 1.0755(4) -0.5888(3) 0.20657(19)
O3A O 1.1907(5) -0.4892(4) 0.2894(3)
O4A O 1.1863(4) -0.8411(3) 0.2777(2)
O5A O 1.2654(7) -0.9224(9) 0.1648(4)
O6A O 1.4228(5) -0.8629(6) 0.2377(4)
N1A N 0.7365(4) -0.6037(3) 0.2402(2)
N2A N 0.5193(4) -0.5273(4) 0.1715(2)
N3A N 0.9085(4) 0.1784(3) 0.1479(2)
N3A_2 N 0.9085(4) -0.8216(3) 0.1479(2)
N4A N 0.7990(4) 0.0646(3) 0.0668(2)
N5A N 0.8754(4) 0.1294(3) -0.6528(2)
N5A_2 N 0.8754(4) -0.8706(3) 0.3472(2)
N6A N 0.7695(4) 0.0616(4) -0.5281(2)
N7A N 1.1030(4) -0.5628(3) 0.2806(3)
N8A N 1.2928(5) -0.8696(4) 0.2260(3)
C1A C 0.6908(5) -0.4726(4) 0.2513(3)
C2A C 0.7543(6) -0.3918(5) 0.2966(3)
H1A H 0.8429 -0.4222 0.3268
C3A C 0.6829(6) -0.2655(5) 0.2957(4)
H2A H 0.7256 -0.2099 0.3243
C4A C 0.5460(6) -0.2198(5) 0.2522(4)
H3A H 0.4995 -0.1348 0.2533
C5A C 0.4795(6) -0.2985(5) 0.2079(3)
H4A H 0.3888 -0.2688 0.1797
C6A C 0.5554(5) -0.4256(4) 0.2077(3)
C7A C 0.6293(5) -0.6285(4) 0.1935(3)
H5A H 0.6297 -0.7093 0.1772
C8A C 0.3962(5) -0.5244(5) 0.1118(3)
H6A H 0.3799 -0.6114 0.1093
H7A H 0.3032 -0.4763 0.1333
C9A C 0.4329(5) -0.4627(5) 0.0213(3)
H8A H 0.4526 -0.3769 0.0246
H9A H 0.3449 -0.4547 -0.0139
C10A C 0.9418(5) 0.2176(4) 0.0621(3)
C11A C 1.0253(5) 0.3117(4) 0.0248(3)
H10A H 1.0695 0.3603 0.0582
C12A C 1.0387(6) 0.3289(5) -0.0639(3)
H11A H 1.0929 0.3907 -0.0906
C13A C 0.9731(6) 0.2559(5) -0.1143(3)
H12A H 0.9859 0.2701 -0.1736
C14A C 0.8894(5) 0.1629(4) -0.0791(3)
H13A H 0.8463 0.1143 -0.1131
C15A C 0.8734(4) 0.1464(4) 0.0105(3)
C16A C 0.8239(5) 0.0884(4) 0.1466(3)
H14A H 0.7854 0.0457 0.1959
C17A C 0.7029(5) -0.0238(4) 0.0438(3)
H15A H 0.7548 -0.0721 -0.0003
H16A H 0.6875 -0.0845 0.0937
C18A C 0.5485(5) 0.0468(4) 0.0112(3)
H17A H 0.5634 0.1067 -0.0392
H18A H 0.4965 0.0956 0.0549
C19A C 0.9302(5) -0.0021(4) -0.6326(3)
C20A C 1.0320(5) -0.0864(4) -0.6762(3)
H19A H 1.0759 -0.0595 -0.7287
C21A C 1.0657(6) -0.2135(5) -0.6375(4)
H20A H 1.1341 -0.2725 -0.6648
C22A C 0.9988(7) -0.2543(5) -0.5586(4)
H21A H 1.0229 -0.3400 -0.5354
C23A C 0.8987(6) -0.1711(5) -0.5148(3)
H22A H 0.8566 -0.1979 -0.4618
C24A C 0.8638(5) -0.0456(4) -0.5535(3)
C25A C 0.7809(5) 0.1601(5) -0.5884(3)
H23A H 0.7275 0.2427 -0.5856
C26A C 0.6647(6) 0.0644(6) -0.4524(3)
H24A H 0.6256 0.1528 -0.4441
H25A H 0.7195 0.0232 -0.4017
C27A C 0.5359(8) -0.0027(11) -0.4637(4)
H26A H 0.4585 0.0251 -0.4218
H27A H 0.5722 -0.0932 -0.4459
O7 O 0.5666(14) -0.3971(15) -0.4321(13)
H28 H 0.6056 -0.4586 -0.4639
H29 H 0.6362 -0.4302 -0.3931
loop_
_geom_bond_atom_site_label_1
_geom_bond_atom_site_label_2
_geom_bond_site_symmetry_1
_geom_bond_site_symmetry_2
Co1 O1 1_555 1_555
O1 N7 1_555 1_555
O2 Co1 1_555 1_555
O3 N7 1_555 1_555
O4 Co1 1_555 1_555
O5 N8 1_555 1_555
O6 N8 1_555 1_555
N1 Co1 1_555 1_555
N2 C6 1_555 1_555
N3 Co1 1_555 1_555
N4 C15 1_555 1_555
N5 Co1 1_555 1_555
N6 C24 1_555 1_555
N7 O2 1_555 1_555
N8 O4 1_555 1_555
C1 N1 1_555 1_555
C2 C1 1_555 1_555
H1 C2 1_555 1_555
C3 C2 1_555 1_555
H2 C3 1_555 1_555
C4 C3 1_555 1_555
H3 C4 1_555 1_555
C5 C4 1_555 1_555
H4 C5 1_555 1_555
C6 C1 1_555 1_555
C7 N1 1_555 1_555
H5 C7 1_555 1_555
C8 N2 1_555 1_555
H6 C8 1_555 1_555
H7 C8 1_555 1_555
C9 C8 1_555 1_555
H8 C9 1_555 1_555
H9 C9 1_555 1_555
C10 N3 1_555 1_555
C11 C10 1_555 1_555
H10 C11 1_555 1_555
C12 C11 1_555 1_555
H11 C12 1_555 1_555
C13 C12 1_555 1_555
H12 C13 1_555 1_555
C14 C13 1_555 1_555
H13 C14 1_555 1_555
C15 C10 1_555 1_555
C16 N3 1_555 1_555
H14 C16 1_555 1_555
C17 N4 1_555 1_555
H15 C17 1_555 1_555
H16 C17 1_555 1_555
C18 C17 1_555 1_555
H17 C18 1_555 1_555
H18 C18 1_555 1_555
C19 N5 1_555 1_555
C20 C19 1_555 1_555
H19 C20 1_555 1_555
C21 C20 1_555 1_555
H20 C21 1_555 1_555
C22 C21 1_555 1_555
H21 C22 1_555 1_555
C23 C22 1_555 1_555
H22 C23 1_555 1_555
C24 C19 1_555 1_555
C25 N5 1_555 1_555
H23 C25 1_555 1_555
C26 N6 1_555 1_555
H24 C26 1_555 1_555
H25 C26 1_555 1_555
C27 C26 1_555 1_555
H26 C27 1_555 1_555
H27 C27 1_555 1_555
O7 H28 1_555 1_555
H29 O7 1_555 1_555
Co1A O1A 1_555 1_555
Co1A_2 N3A 1_555 1_555
Co1A_3 N5A 1_555 1_555
O1A N7A 1_555 1_555
O2A Co1A 1_555 1_555
O3A N7A 1_555 1_555
O4A Co1A 1_555 1_555
O5A N8A 1_555 1_555
O6A N8A 1_555 1_555
N1A Co1A 1_555 1_555
N2A C6A 1_555 1_555
N3A C10A 1_555 1_555
N3A_2 Co1A 1_555 1_555
N4A C15A 1_555 1_555
N5A C19A 1_555 1_555
N5A_2 Co1A 1_555 1_555
N6A C24A 1_555 1_555
N7A O2A 1_555 1_555
N8A O4A 1_555 1_555
C1A N1A 1_555 1_555
C2A C1A 1_555 1_555
H1A C2A 1_555 1_555
C3A C2A 1_555 1_555
H2A C3A 1_555 1_555
C4A C3A 1_555 1_555
H3A C4A 1_555 1_555
C5A C4A 1_555 1_555
H4A C5A 1_555 1_555
C6A C1A 1_555 1_555
C7A N1A 1_555 1_555
H5A C7A 1_555 1_555
C8A N2A 1_555 1_555
H6A C8A 1_555 1_555
H7A C8A 1_555 1_555
C9A C9 1_555 1_555
H8A C9A 1_555 1_555
H9A C9A 1_555 1_555
C10A C11A 1_555 1_555
C11A H10A 1_555 1_555
C12A C11A 1_555 1_555
H11A C12A 1_555 1_555
C13A C12A 1_555 1_555
H12A C13A 1_555 1_555
C14A C13A 1_555 1_555
H13A C14A 1_555 1_555
C15A C10A 1_555 1_555
C16A N3A 1_555 1_555
H14A C16A 1_555 1_555
C17A N4A 1_555 1_555
H15A C17A 1_555 1_555
H16A C17A 1_555 1_555
C18A C18 1_555 1_555
H17A C18A 1_555 1_555
H18A C18A 1_555 1_555
C19A C20A 1_555 1_555
C20A H19A 1_555 1_555
C21A C20A 1_555 1_555
H20A C21A 1_555 1_555
C22A C21A 1_555 1_555
H21A C22A 1_555 1_555
C23A C22A 1_555 1_555
H22A C23A 1_555 1_555
C24A C19A 1_555 1_555
C25A N5A 1_555 1_555
H23A C25A 1_555 1_555
C26A N6A 1_555 1_555
H24A C26A 1_555 1_555
H25A C26A 1_555 1_555
C27A C27 1_555 1_555
H26A C27A 1_555 1_555
H27A C27A 1_555 1_555
N2 C7 1_555 1_555
N4 C16 1_555 1_555
N6 C25 1_555 1_555
C5 C6 1_555 1_555
C14 C15 1_555 1_555
C23 C24 1_555 1_555
N2A C7A 1_555 1_555
N4A C16A 1_555 1_555
N6A C25A 1_555 1_555
C5A C6A 1_555 1_555
C8A C9A 1_555 1_555
C14A C15A 1_555 1_555
C17A C18A 1_555 1_555
C23A C24A 1_555 1_555
C26A C27A 1_555 1_555

#END
