
#######################################################################
#
#                 Cambridge Crystallographic Data Centre
#                                CCDC 
#
#######################################################################
#
# If this CIF has been generated from an entry in the Cambridge 
# Structural Database, then it will include bibliographic, chemical, 
# crystal, experimental, refinement or atomic coordinate data resulting 
# from the CCDC's data processing and validation procedures.
#
#######################################################################

data_LUHYUJ
_symmetry_cell_setting           monoclinic
_symmetry_space_group_name_H-M   'P 21/c'
_symmetry_Int_Tables_number      14
_space_group_name_Hall           '-P 2ybc'
loop_
_symmetry_equiv_pos_site_id
_symmetry_equiv_pos_as_xyz
1 x,y,z
2 -x,1/2+y,1/2-z
3 -x,-y,-z
4 x,1/2-y,1/2+z
_cell_length_a                   7.7464(15)
_cell_length_b                   34.874(7)
_cell_length_c                   10.926(2)
_cell_angle_alpha                90
_cell_angle_beta                 105.67(3)
_cell_angle_gamma                90
_cell_volume                     2841.93
loop_
_atom_site_label
_atom_site_type_symbol
_atom_site_fract_x
_atom_site_fract_y
_atom_site_fract_z
Cd1 Cd -0.25507(4) -0.376660(8) -0.22604(3)
N1 N -0.3872(6) -0.43522(11) -0.2897(4)
N2 N -0.5956(6) -0.47787(13) -0.3888(5)
N3 N 0.6613(5) -0.12276(10) -0.5389(4)
N4 N 0.4876(6) -0.14078(11) -0.4171(4)
N5 N -0.1140(5) -0.31711(10) -0.1979(4)
N6 N 0.0760(5) -0.27004(10) -0.2101(4)
N7 N -1.5499(6) -0.16052(13) 0.0802(5)
N8 N -0.9112(6) -0.09319(12) 0.2720(5)
C1 C -0.3679(7) -0.46839(13) -0.2159(6)
C2 C -0.2545(9) -0.47698(17) -0.0974(7)
H1 H -0.1713 -0.4591 -0.0537
C3 C -0.2680(11) -0.51295(19) -0.0455(8)
H2 H -0.1950 -0.5189 0.0349
C4 C -0.3870(12) -0.5398(2) -0.1106(10)
H3 H -0.3836 -0.5645 -0.0776
C5 C -0.5140(10) -0.53120(18) -0.2258(9)
H4 H -0.6023 -0.5486 -0.2658
C6 C -0.5000(7) -0.49517(15) -0.2764(7)
C7 C -0.5250(7) -0.44208(15) -0.3888(6)
H5 H -0.5696 -0.4242 -0.4526
C8 C -0.7487(7) -0.49349(17) -0.4848(6)
H6 H -0.7252 -0.5203 -0.4985
H7 H -0.7595 -0.4800 -0.5643
C9 C -0.9245(7) -0.4906(2) -0.4514(7)
C10 C 0.7588(7) -0.11813(12) -0.4121(5)
C11 C 0.9323(7) -0.10443(16) -0.3589(5)
H8 H 1.0048 -0.0967 -0.4097
C12 C 0.9923(9) -0.10274(18) -0.2271(6)
H9 H 1.1078 -0.0940 -0.1888
C13 C 0.8818(11) -0.11393(18) -0.1510(6)
H10 H 0.9257 -0.1122 -0.0631
C14 C 0.7105(10) -0.12737(15) -0.2020(6)
H11 H 0.6381 -0.1346 -0.1505
C15 C 0.6497(8) -0.12973(13) -0.3343(5)
C16 C 0.5014(7) -0.13587(13) -0.5354(5)
H12 H 0.4089 -0.1411 -0.6077
C17 C 0.3294(8) -0.15659(17) -0.3830(7)
C18 C -0.1573(6) -0.28440(12) -0.1383(5)
C19 C -1.2892(7) -0.22171(14) 0.4259(6)
H13 H -1.3688 -0.2023 0.4321
C20 C -1.2978(7) -0.25703(14) 0.4792(6)
H14 H -1.3832 -0.2615 0.5232
C21 C -1.1802(7) -0.28640(14) 0.4684(5)
H15 H -1.1918 -0.3102 0.5037
C22 C -1.0488(7) -0.28148(13) 0.4081(5)
H16 H -0.9689 -0.3010 0.4034
C23 C -0.0412(6) -0.25457(12) -0.1465(5)
C24 C -0.9747(7) -0.19316(13) 0.2624(5)
H17 H -0.9167 -0.1767 0.2195
C25 C 0.2323(7) -0.25142(14) -0.2362(6)
H18 H -0.7127 -0.2309 0.2172
H19 H -0.6806 -0.2541 0.3439
C26 C 0.1872(7) -0.21433(15) -0.3122(6)
H20 H -0.8582 -0.3045 0.2367
H21 H -0.9053 -0.2808 0.1097
C27 C 0.3567(8) -0.19842(16) -0.3438(7)
O1 O -1.4222(5) -0.14167(11) 0.0602(4)
O2 O -1.6563(8) -0.1761(2) -0.0067(7)
O3 O -1.5549(6) -0.16355(13) 0.1931(5)
O4 O -1.0181(6) -0.10500(12) 0.1726(4)
O5 O -0.9566(5) -0.09708(11) 0.3744(4)
O6 O -0.7655(6) -0.07834(15) 0.2744(5)
H22 H -0.713(8) -0.3632(16) 0.187(6)
H23 H -0.791(9) -0.3442(18) 0.041(7)
H24 H -0.636(9) -0.2891(18) 0.075(7)
H25 H -1.057(10) -0.532(2) -0.581(8)
H26 H -1.099(11) -0.494(2) -0.629(9)
H27 H -0.530(9) -0.3022(17) 0.240(7)
Cd1C Cd 0.74493(4) -0.123340(8) -0.72604(3)
Cd1B Cd -1.74493(4) -0.623340(8) -0.77396(3)
Cd1C_2 Cd -1.25507(4) -0.123340(8) 0.27396(3)
N1B N -1.6128(6) -0.56478(11) -0.7103(4)
N1C N -1.3872(6) -0.06478(11) 0.2103(4)
N2B N -1.4044(6) -0.52213(13) -0.6112(5)
N3C N -0.3387(5) -0.37724(10) -0.0389(4)
N3_2 N -1.3387(5) -0.12276(10) 0.4611(4)
N4C N -0.5124(6) -0.35922(11) 0.0829(4)
N5C N -1.1140(5) -0.18289(10) 0.3021(4)
N6C N -0.9240(5) -0.22996(10) 0.2899(4)
N7C N -0.5499(6) -0.33948(13) -0.4198(5)
N8C N 0.0888(6) -0.40681(12) -0.2280(5)
C1B C -1.6321(7) -0.53161(13) -0.7841(6)
C2B C -1.7455(9) -0.52302(17) -0.9026(7)
H1B H -1.8287 -0.5409 -0.9463
C3B C -1.7320(11) -0.48705(19) -0.9545(8)
H2B H -1.8050 -0.4811 -1.0349
C4B C -1.6130(12) -0.4602(2) -0.8894(10)
H3B H -1.6164 -0.4355 -0.9224
C5B C -1.4860(10) -0.46880(18) -0.7742(9)
H4B H -1.3977 -0.4514 -0.7342
C6B C -1.5000(7) -0.50483(15) -0.7236(7)
C7B C -1.4750(7) -0.55792(15) -0.6112(6)
H5B H -1.4304 -0.5758 -0.5474
C8B C -1.2513(7) -0.50651(17) -0.5152(6)
H6B H -1.2748 -0.4797 -0.5015
H7B H -1.2405 -0.5200 -0.4357
C9B C -1.0755(7) -0.5094(2) -0.5486(7)
C10C C -0.2412(7) -0.38187(12) 0.0879(5)
C11C C -0.0677(7) -0.39557(16) 0.1411(5)
H8C H 0.0048 -0.4033 0.0903
C12C C -0.0077(9) -0.39726(18) 0.2729(6)
H9C H 0.1078 -0.4060 0.3112
C13C C -0.1182(11) -0.38607(18) 0.3490(6)
H10C H -0.0743 -0.3878 0.4369
C14C C -0.2895(10) -0.37263(15) 0.2980(6)
H11C H -0.3619 -0.3654 0.3495
C15C C -0.3503(8) -0.37027(13) 0.1657(5)
C16C C -0.4986(7) -0.36413(13) -0.0354(5)
H12C H -0.5911 -0.3589 -0.1077
C17C C -0.6706(8) -0.34341(17) 0.1170(7)
C18C C -1.1573(6) -0.21560(12) 0.3617(5)
C19C C -0.2892(7) -0.27829(14) -0.0741(6)
H13C H -0.3688 -0.2977 -0.0679
C20C C -0.2978(7) -0.24297(14) -0.0208(6)
H14C H -0.3832 -0.2385 0.0232
C21C C -0.1802(7) -0.21360(14) -0.0316(5)
H15C H -0.1918 -0.1898 0.0037
C22C C -0.0488(7) -0.21852(13) -0.0919(5)
H16C H 0.0311 -0.1990 -0.0966
C23C C -1.0412(6) -0.24543(12) 0.3535(5)
C24C C 0.0253(7) -0.30684(13) -0.2376(5)
H17C H 0.0833 -0.3233 -0.2805
C25C C -0.7677(7) -0.24858(14) 0.2638(6)
H18C H 0.2873 -0.2691 -0.2828
H19C H 0.3194 -0.2459 -0.1561
C26C C -0.8128(7) -0.28567(15) 0.1878(6)
H20C H 0.1418 -0.1955 -0.2633
H21C H 0.0947 -0.2192 -0.3903
C27C C -0.6433(8) -0.30158(16) 0.1562(7)
O1C O -0.4222(5) -0.35833(11) -0.4398(4)
O2C O -0.6563(8) -0.3239(2) -0.5067(7)
O3C O -0.5549(6) -0.33645(13) -0.3069(5)
O4C O -0.0181(6) -0.39500(12) -0.3274(4)
O5C O 0.0434(5) -0.40292(11) -0.1256(4)
O6C O 0.2345(6) -0.42166(15) -0.2256(5)
H22C H 0.287(8) -0.1368(16) -0.313(6)
H23C H 0.209(9) -0.1558(18) -0.459(7)
H24C H 0.364(9) -0.2109(18) -0.425(7)
H25B H -0.943(10) -0.468(2) -0.419(8)
H26B H -0.901(11) -0.506(2) -0.371(9)
H27C H 0.470(9) -0.1978(17) -0.260(7)
loop_
_geom_bond_atom_site_label_1
_geom_bond_atom_site_label_2
_geom_bond_site_symmetry_1
_geom_bond_site_symmetry_2
Cd1 N1 1_555 1_555
N1 C1 1_555 1_555
N2 C6 1_555 1_555
N3 C10 1_555 1_555
N4 C15 1_555 1_555
N5 Cd1 1_555 1_555
N6 C23 1_555 1_555
N7 O1 1_555 1_555
N8 O4 1_555 1_555
C1 C2 1_555 1_555
C2 H1 1_555 1_555
C3 C2 1_555 1_555
H2 C3 1_555 1_555
C4 C3 1_555 1_555
H3 C4 1_555 1_555
C5 C4 1_555 1_555
H4 C5 1_555 1_555
C6 C1 1_555 1_555
C7 N1 1_555 1_555
H5 C7 1_555 1_555
C8 N2 1_555 1_555
H6 C8 1_555 1_555
H7 C8 1_555 1_555
C9 C8 1_555 1_555
C10 C11 1_555 1_555
C11 H8 1_555 1_555
C12 C11 1_555 1_555
H9 C12 1_555 1_555
C13 C12 1_555 1_555
H10 C13 1_555 1_555
C14 C13 1_555 1_555
H11 C14 1_555 1_555
C15 C10 1_555 1_555
C16 N3 1_555 1_555
H12 C16 1_555 1_555
C17 N4 1_555 1_555
C18 N5 1_555 1_555
C19 H13 1_555 1_555
C20 C19 1_555 1_555
H14 C20 1_555 1_555
C21 C20 1_555 1_555
H15 C21 1_555 1_555
C22 C21 1_555 1_555
H16 C22 1_555 1_555
C23 C18 1_555 1_555
C24 H17 1_555 1_555
C25 N6 1_555 1_555
H18 C25C 1_555 1_555
H19 C25C 1_555 1_555
C26 C25 1_555 1_555
H20 C26C 1_555 1_555
H21 C26C 1_555 1_555
C27 C17 1_555 1_555
O1 Cd1C_2 1_555 1_555
O2 N7 1_555 1_555
O3 N7 1_555 1_555
O4 Cd1C_2 1_555 1_555
O5 N8 1_555 1_555
O6 N8 1_555 1_555
H22 C17C 1_555 1_555
H23 C17C 1_555 1_555
H24 C27C 1_555 1_555
H25 C9B 1_555 1_555
H26 C9B 1_555 1_555
H27 C27C 1_555 1_555
Cd1C N3 1_555 1_555
Cd1B N1B 1_555 1_555
Cd1C_2 O3 1_555 1_555
N1B C1B 1_555 1_555
N1C Cd1C_2 1_555 1_555
N2B C6B 1_555 1_555
N3C Cd1 1_555 1_555
N3_2 Cd1C_2 1_555 1_555
N4C C15C 1_555 1_555
N5C C24 1_555 1_555
N6C C24 1_555 1_555
N7C O1C 1_555 1_555
N8C O4C 1_555 1_555
C1B C2B 1_555 1_555
C2B H1B 1_555 1_555
C3B C2B 1_555 1_555
H2B C3B 1_555 1_555
C4B C3B 1_555 1_555
H3B C4B 1_555 1_555
C5B C4B 1_555 1_555
H4B C5B 1_555 1_555
C6B C1B 1_555 1_555
C7B N1B 1_555 1_555
H5B C7B 1_555 1_555
C8B N2B 1_555 1_555
H6B C8B 1_555 1_555
H7B C8B 1_555 1_555
C9B C9 1_555 1_555
C10C N3C 1_555 1_555
C11C C10C 1_555 1_555
H8C C11C 1_555 1_555
C12C C11C 1_555 1_555
H9C C12C 1_555 1_555
C13C C12C 1_555 1_555
H10C C13C 1_555 1_555
C14C C13C 1_555 1_555
H11C C14C 1_555 1_555
C15C C10C 1_555 1_555
C16C N3C 1_555 1_555
H12C C16C 1_555 1_555
C17C N4C 1_555 1_555
C18C C19 1_555 1_555
C19C C18 1_555 1_555
H13C C19C 1_555 1_555
C20C C19C 1_555 1_555
H14C C20C 1_555 1_555
C21C C20C 1_555 1_555
H15C C21C 1_555 1_555
C22C C23 1_555 1_555
H16C C22C 1_555 1_555
C23C C22 1_555 1_555
C24C N5 1_555 1_555
H17C C24C 1_555 1_555
C25C N6C 1_555 1_555
H18C C25 1_555 1_555
H19C C25 1_555 1_555
C26C C25C 1_555 1_555
H20C C26 1_555 1_555
H21C C26 1_555 1_555
C27C C17C 1_555 1_555
O1C Cd1 1_555 1_555
O2C N7C 1_555 1_555
O3C Cd1 1_555 1_555
O4C Cd1 1_555 1_555
O5C Cd1 1_555 1_555
O6C N8C 1_555 1_555
H22C C17 1_555 1_555
H23C C17 1_555 1_555
H24C C27 1_555 1_555
H25B C9 1_555 1_555
H26B C9 1_555 1_555
H27C C27 1_555 1_555
N2 C7 1_555 1_555
N4 C16 1_555 1_555
N6 C24C 1_555 1_555
C5 C6 1_555 1_555
C14 C15 1_555 1_555
C26 C27 1_555 1_555
O5 Cd1C_2 1_555 1_555
Cd1C_2 N5C 1_555 1_555
N2B C7B 1_555 1_555
N4C C16C 1_555 1_555
N5C C18C 1_555 1_555
N6C C23C 1_555 1_555
N7C O3C 1_555 1_555
N8C O5C 1_555 1_555
C5B C6B 1_555 1_555
C8B C9B 1_555 1_555
C14C C15C 1_555 1_555
C18C C23C 1_555 1_555
C21C C22C 1_555 1_555
C26C C27C 1_555 1_555

#END
