
#######################################################################
#
#                 Cambridge Crystallographic Data Centre
#                                CCDC 
#
#######################################################################
#
# If this CIF has been generated from an entry in the Cambridge 
# Structural Database, then it will include bibliographic, chemical, 
# crystal, experimental, refinement or atomic coordinate data resulting 
# from the CCDC's data processing and validation procedures.
#
#######################################################################

data_LUHYUJ01
_symmetry_cell_setting           monoclinic
_symmetry_space_group_name_H-M   'P 21/c'
_symmetry_Int_Tables_number      14
_space_group_name_Hall           '-P 2ybc'
loop_
_symmetry_equiv_pos_site_id
_symmetry_equiv_pos_as_xyz
1 x,y,z
2 -x,1/2+y,1/2-z
3 -x,-y,-z
4 x,1/2-y,1/2+z
_cell_length_a                   7.7080(15)
_cell_length_b                   34.833(7)
_cell_length_c                   10.862(2)
_cell_angle_alpha                90
_cell_angle_beta                 105.85(3)
_cell_angle_gamma                90
_cell_volume                     2805.49
loop_
_atom_site_label
_atom_site_type_symbol
_atom_site_fract_x
_atom_site_fract_y
_atom_site_fract_z
Cd1 Cd 0.75562(4) 0.123347(7) 0.72541(3)
C1 C 0.6571(6) 0.21565(11) 0.6377(4)
C2 C 0.7869(7) 0.22148(14) 0.5732(5)
H1 H 0.8651 0.2018 0.5659
C3 C 0.7980(7) 0.25734(15) 0.5194(5)
H2 H 0.8848 0.2617 0.4760
C4 C 0.6804(7) 0.28679(13) 0.5299(5)
H3 H 0.6913 0.3106 0.4942
C5 C 0.5493(7) 0.28147(12) 0.5914(4)
H4 H 0.4696 0.3011 0.5965
C6 C 0.5395(6) 0.24556(12) 0.6460(4)
C7 C 0.4749(6) 0.19319(12) 0.7378(4)
H5 H 0.4176 0.1767 0.7816
C8 C 0.2678(7) 0.24887(15) 0.7354(5)
H6 H 0.2121 0.2311 0.7818
H7 H 0.1803 0.2544 0.6544
C9 C 0.3095(7) 0.28541(14) 0.8105(5)
H8 H 0.3551 0.3042 0.7615
H9 H 0.4027 0.2806 0.8893
C10 C 0.1429(8) 0.30143(14) 0.8422(6)
H10 H 0.0394 0.2988 0.7682
H11 H 0.1193 0.2867 0.9117
C11 C 0.1676(8) 0.34348(14) 0.8808(6)
H12 H 0.2732 0.3461 0.9533
H13 H 0.1886 0.3582 0.8104
C12 C -0.0039(7) 0.36452(13) 1.0332(4)
H14 H 0.0898 0.3595 1.1060
C13 C -0.1512(8) 0.37009(12) 0.8329(5)
C14 C -0.2109(10) 0.37294(14) 0.7011(6)
H15 H -0.1379 0.3658 0.6495
C15 C -0.3813(11) 0.38659(18) 0.6496(5)
H16 H -0.4245 0.3886 0.5611
C16 C -0.4944(9) 0.39778(17) 0.7263(5)
H17 H -0.6106 0.4065 0.6878
C17 C -0.4329(7) 0.39573(15) 0.8585(4)
H18 H -0.5048 0.4036 0.9100
C18 C -0.2623(7) 0.38178(12) 0.9106(4)
C19 C 0.8719(6) 0.03187(12) 0.7137(5)
C20 C 0.7524(8) 0.02305(16) 0.5958(6)
H19 H 0.6650 0.0404 0.5531
C21 C 0.7696(11) -0.01280(19) 0.5449(8)
H20 H 0.6946 -0.0191 0.4648
C22 C 0.8923(11) -0.03894(19) 0.6083(9)
H21 H 0.8939 -0.0631 0.5723
C23 C 1.0157(10) -0.03088(16) 0.7251(8)
H22 H 1.1032 -0.0485 0.7663
C24 C 1.0002(7) 0.00500(13) 0.7763(5)
C25 C 1.0243(6) 0.05759(14) 0.8881(5)
H23 H 1.0671 0.0753 0.9534
C26 C 1.2473(7) 0.00644(17) 0.9846(6)
H24 H 1.2231 -0.0203 0.9981
H25 H 1.2594 0.0199 1.0648
C27 C 1.4224(7) 0.00920(16) 0.9497(6)
H26 H 1.4502 0.0360 0.9401
H27 H 1.4097 -0.0034 0.8680
O1 O 0.5208(5) 0.10448(12) 0.8274(3)
O2 O 0.4573(5) 0.09695(11) 0.6252(3)
O3 O 0.2675(5) 0.07873(16) 0.7251(5)
O4 O 1.0530(6) 0.16335(13) 0.8044(4)
O5 O 0.9226(5) 0.14188(12) 0.9385(3)
O6 O 1.1589(8) 0.1764(2) 1.0044(6)
N1 N 0.6145(5) 0.18300(10) 0.6972(3)
N2 N 0.4233(5) 0.23008(10) 0.7094(4)
N3 N 0.0108(6) 0.35935(11) 0.9149(4)
N4 N -0.1610(6) 0.37723(9) 1.0381(4)
N5 N 0.8888(5) 0.06498(10) 0.7870(4)
N6 N 1.0955(5) 0.02219(12) 0.8890(4)
N7 N 0.4106(5) 0.09295(11) 0.7263(4)
N8 N 1.0500(6) 0.16090(13) 0.9178(4)
Cd1C Cd 1.75562(4) 0.376653(7) 0.22541(3)
Cd1C_2 Cd -0.24438(4) 0.376653(7) 1.22541(3)
Cd1B Cd 2.24438(4) -0.123347(7) 1.27459(3)
C1C C 1.6571(6) 0.28435(11) 0.1377(4)
C2C C 1.7869(7) 0.27852(14) 0.0732(5)
H1C H 1.8651 0.2982 0.0659
C3C C 1.7980(7) 0.24266(15) 0.0194(5)
H2C H 1.8848 0.2383 -0.0240
C4C C 1.6804(7) 0.21321(13) 0.0299(5)
H3C H 1.6913 0.1894 -0.0058
C5C C 1.5493(7) 0.21853(12) 0.0914(4)
H4C H 1.4696 0.1989 0.0965
C6C C 1.5395(6) 0.25444(12) 0.1460(4)
C7C C 1.4749(6) 0.30681(12) 0.2378(4)
H5C H 1.4176 0.3233 0.2816
C8C C 1.2678(7) 0.25113(15) 0.2354(5)
H6C H 1.2121 0.2689 0.2818
H7C H 1.1803 0.2456 0.1544
C9C C 1.3095(7) 0.21459(14) 0.3105(5)
H8C H 1.3551 0.1958 0.2615
H9C H 1.4027 0.2194 0.3893
C10C C 1.1429(8) 0.19857(14) 0.3422(6)
H10C H 1.0394 0.2012 0.2682
H11C H 1.1193 0.2133 0.4117
C11C C 1.1676(8) 0.15652(14) 0.3808(6)
H12C H 1.2732 0.1539 0.4533
H13C H 1.1886 0.1418 0.3104
C12C C 0.9961(7) 0.13548(13) 0.5332(4)
H14C H 1.0898 0.1405 0.6060
C13C C 0.8488(8) 0.12991(12) 0.3329(5)
C14C C 0.7891(10) 0.12706(14) 0.2011(6)
H15C H 0.8621 0.1342 0.1495
C15C C 0.6187(11) 0.11341(18) 0.1496(5)
H16C H 0.5755 0.1114 0.0611
C16C C 0.5056(9) 0.10222(17) 0.2263(5)
H17C H 0.3894 0.0935 0.1878
C17C C 0.5671(7) 0.10427(15) 0.3585(4)
H18C H 0.4952 0.0964 0.4100
C18C C 0.7377(7) 0.11822(12) 0.4106(4)
C19B C 2.1281(6) -0.03187(12) 1.2863(5)
C20B C 2.2476(8) -0.02305(16) 1.4042(6)
H19B H 2.3350 -0.0404 1.4469
C21B C 2.2304(11) 0.01280(19) 1.4551(8)
H20B H 2.3054 0.0191 1.5352
C22B C 2.1077(11) 0.03894(19) 1.3917(9)
H21B H 2.1061 0.0631 1.4277
C23B C 1.9843(10) 0.03088(16) 1.2749(8)
H22B H 1.8968 0.0485 1.2337
C24B C 1.9998(7) -0.00500(13) 1.2237(5)
C25B C 1.9757(6) -0.05759(14) 1.1119(5)
H23B H 1.9329 -0.0753 1.0466
C26B C 1.7527(7) -0.00644(17) 1.0154(6)
H24B H 1.7769 0.0203 1.0019
H25B H 1.7406 -0.0199 0.9352
C27B C 1.5776(7) -0.00920(16) 1.0503(6)
H26B H 1.5498 -0.0360 1.0599
H27B H 1.5903 0.0034 1.1320
O1C O 1.5208(5) 0.39552(12) 0.3274(3)
O2C O 1.4573(5) 0.40305(11) 0.1252(3)
O3C O 1.2675(5) 0.42127(16) 0.2251(5)
O4C O 2.0530(6) 0.33665(13) 0.3044(4)
O5C O 1.9226(5) 0.35812(12) 0.4385(3)
O6C O 2.1589(8) 0.3236(2) 0.5044(6)
N1C N 1.6145(5) 0.31700(10) 0.1972(3)
N2C N 1.4233(5) 0.26992(10) 0.2094(4)
N3C N 1.0108(6) 0.14065(11) 0.4149(4)
N4C N 0.8390(6) 0.12277(9) 0.5381(4)
N4_2 N 1.8390(6) 0.37723(9) 0.0381(4)
N5B N 2.1112(5) -0.06498(10) 1.2130(4)
N5C N 1.8888(5) 0.43502(10) 0.2870(4)
N6B N 1.9045(5) -0.02219(12) 1.1110(4)
N7C N 1.4106(5) 0.40705(11) 0.2263(4)
N8C N 2.0500(6) 0.33910(13) 0.4178(4)
loop_
_geom_bond_atom_site_label_1
_geom_bond_atom_site_label_2
_geom_bond_site_symmetry_1
_geom_bond_site_symmetry_2
Cd1 O1 1_555 1_555
C1 C2 1_555 1_555
C2 H1 1_555 1_555
C3 C2 1_555 1_555
H2 C3 1_555 1_555
C4 C3 1_555 1_555
H3 C4 1_555 1_555
C5 C4 1_555 1_555
H4 C5 1_555 1_555
C6 C1 1_555 1_555
C7 H5 1_555 1_555
C8 H6 1_555 1_555
H7 C8 1_555 1_555
C9 C8 1_555 1_555
H8 C9 1_555 1_555
H9 C9 1_555 1_555
C10 C9 1_555 1_555
H10 C10 1_555 1_555
H11 C10 1_555 1_555
C11 C10 1_555 1_555
H12 C11 1_555 1_555
H13 C11 1_555 1_555
C12 H14 1_555 1_555
C13 C14 1_555 1_555
C14 H15 1_555 1_555
C15 C14 1_555 1_555
H16 C15 1_555 1_555
C16 C15 1_555 1_555
H17 C16 1_555 1_555
C17 C16 1_555 1_555
H18 C17 1_555 1_555
C18 C13 1_555 1_555
C19 C20 1_555 1_555
C20 H19 1_555 1_555
C21 C20 1_555 1_555
H20 C21 1_555 1_555
C22 C21 1_555 1_555
H21 C22 1_555 1_555
C23 C22 1_555 1_555
H22 C23 1_555 1_555
C24 C19 1_555 1_555
C25 H23 1_555 1_555
C26 H24 1_555 1_555
H25 C26 1_555 1_555
C27 C26 1_555 1_555
H26 C27 1_555 1_555
H27 C27 1_555 1_555
O1 N7 1_555 1_555
O2 Cd1 1_555 1_555
O3 N7 1_555 1_555
O4 Cd1 1_555 1_555
O5 Cd1 1_555 1_555
O6 N8 1_555 1_555
N1 Cd1 1_555 1_555
N2 C6 1_555 1_555
N3 C11 1_555 1_555
N4 C12 1_555 1_555
N5 Cd1 1_555 1_555
N6 C24 1_555 1_555
N7 O2 1_555 1_555
N8 O4 1_555 1_555
Cd1C O1C 1_555 1_555
Cd1C_2 N4 1_555 1_555
Cd1B N5B 1_555 1_555
C1C C2C 1_555 1_555
C2C H1C 1_555 1_555
C3C C2C 1_555 1_555
H2C C3C 1_555 1_555
C4C C3C 1_555 1_555
H3C C4C 1_555 1_555
C5C C4C 1_555 1_555
H4C C5C 1_555 1_555
C6C C1C 1_555 1_555
C7C H5C 1_555 1_555
C8C H6C 1_555 1_555
H7C C8C 1_555 1_555
C9C C8C 1_555 1_555
H8C C9C 1_555 1_555
H9C C9C 1_555 1_555
C10C C9C 1_555 1_555
H10C C10C 1_555 1_555
H11C C10C 1_555 1_555
C11C C10C 1_555 1_555
H12C C11C 1_555 1_555
H13C C11C 1_555 1_555
C12C H14C 1_555 1_555
C13C C14C 1_555 1_555
C14C H15C 1_555 1_555
C15C C14C 1_555 1_555
H16C C15C 1_555 1_555
C16C C15C 1_555 1_555
H17C C16C 1_555 1_555
C17C C16C 1_555 1_555
H18C C17C 1_555 1_555
C18C C13C 1_555 1_555
C19B C20B 1_555 1_555
C20B H19B 1_555 1_555
C21B C20B 1_555 1_555
H20B C21B 1_555 1_555
C22B C21B 1_555 1_555
H21B C22B 1_555 1_555
C23B C22B 1_555 1_555
H22B C23B 1_555 1_555
C24B C19B 1_555 1_555
C25B H23B 1_555 1_555
C26B H24B 1_555 1_555
H25B C26B 1_555 1_555
C27B C27 1_555 1_555
H26B C27B 1_555 1_555
H27B C27B 1_555 1_555
O1C N7C 1_555 1_555
O2C Cd1C 1_555 1_555
O3C N7C 1_555 1_555
O4C Cd1C 1_555 1_555
O5C Cd1C 1_555 1_555
O6C N8C 1_555 1_555
N1C Cd1C 1_555 1_555
N2C C6C 1_555 1_555
N3C C11C 1_555 1_555
N4C Cd1 1_555 1_555
N4_2 Cd1C 1_555 1_555
N5B C19B 1_555 1_555
N5C Cd1C 1_555 1_555
N6B C24B 1_555 1_555
N7C O2C 1_555 1_555
N8C O4C 1_555 1_555
C1 N1 1_555 1_555
C5 C6 1_555 1_555
C7 N1 1_555 1_555
C7 N2 1_555 1_555
C8 N2 1_555 1_555
C12 N3 1_555 1_555
C13 N3 1_555 1_555
C17 C18 1_555 1_555
C18 N4 1_555 1_555
C19 N5 1_555 1_555
C23 C24 1_555 1_555
C25 N5 1_555 1_555
C25 N6 1_555 1_555
C26 N6 1_555 1_555
O5 N8 1_555 1_555
C1C N1C 1_555 1_555
C5C C6C 1_555 1_555
C7C N1C 1_555 1_555
C7C N2C 1_555 1_555
C8C N2C 1_555 1_555
C12C N3C 1_555 1_555
C12C N4C 1_555 1_555
C13C N3C 1_555 1_555
C17C C18C 1_555 1_555
C18C N4C 1_555 1_555
C23B C24B 1_555 1_555
C25B N5B 1_555 1_555
C25B N6B 1_555 1_555
C26B C27B 1_555 1_555
C26B N6B 1_555 1_555
O5C N8C 1_555 1_555

#END
