
#######################################################################
#
#                 Cambridge Crystallographic Data Centre
#                                CCDC 
#
#######################################################################
#
# If this CIF has been generated from an entry in the Cambridge 
# Structural Database, then it will include bibliographic, chemical, 
# crystal, experimental, refinement or atomic coordinate data resulting 
# from the CCDC's data processing and validation procedures.
#
#######################################################################

data_LUHZIY
_symmetry_cell_setting           orthorhombic
_symmetry_space_group_name_H-M   'P c c n'
_symmetry_Int_Tables_number      56
_space_group_name_Hall           '-P 2ab 2ac'
loop_
_symmetry_equiv_pos_site_id
_symmetry_equiv_pos_as_xyz
1 x,y,z
2 1/2-x,1/2-y,z
3 -x,1/2+y,1/2-z
4 1/2+x,-y,1/2-z
5 -x,-y,-z
6 1/2+x,1/2+y,-z
7 x,1/2-y,1/2+z
8 1/2-x,y,1/2+z
_cell_length_a                   14.6279(5)
_cell_length_b                   6.2607(1)
_cell_length_c                   13.5132(4)
_cell_angle_alpha                90
_cell_angle_beta                 90
_cell_angle_gamma                90
_cell_volume                     1237.55
loop_
_atom_site_label
_atom_site_type_symbol
_atom_site_fract_x
_atom_site_fract_y
_atom_site_fract_z
Ga1 Ga 0.2500 0.2500 0.06020(3)
Na1 Na 0.49413(7) 0.28521(16) 0.22181(9)
Na2 Na 0.2500 0.7500 -0.07930(11)
O1 O 0.32239(11) 0.3989(3) -0.04168(13)
O2 O 0.33033(11) 0.3766(3) 0.16213(13)
O3 O 0.31957(11) -0.0231(3) 0.04763(13)
O4 O 0.44110(13) 0.4383(3) -0.14048(15)
O5 O 0.34830(12) 0.5969(3) 0.28896(14)
O6 O 0.44766(12) -0.0081(3) 0.13785(15)
C1 C 0.39785(18) 0.3433(4) -0.0774(2)
H1 H 0.4232 0.2173 -0.0534
C2 C 0.30033(17) 0.4935(4) 0.2323(2)
H2 H 0.2373 0.5006 0.2411
C3 C 0.39294(17) -0.0979(4) 0.0850(2)
H3 H 0.4061 -0.2394 0.0696
Na1A Na 0.00587(7) 0.21479(16) 0.22181(9)
Na1F Na 0.49413(7) 0.21479(16) -0.27819(9)
Na1D Na 0.50587(7) 0.71479(16) -0.22181(9)
Na1B Na 0.50587(7) 0.78521(16) 0.27819(9)
Na1B_2 Na 0.50587(7) -0.21479(16) 0.27819(9)
Na1G Na 0.00587(7) 0.28521(16) -0.27819(9)
Na1E Na -0.00587(7) -0.21479(16) -0.22181(9)
Na1C Na -0.00587(7) -0.28521(16) 0.27819(9)
Na1C_2 Na -0.00587(7) 0.71479(16) 0.27819(9)
Na2_2 Na 0.2500 -0.2500 -0.07930(11)
Na2F Na 0.2500 0.7500 0.42070(11)
Na2F_2 Na 0.2500 -0.2500 0.42070(11)
O1A O 0.17761(11) 0.1011(3) -0.04168(13)
O1A_2 O 0.17761(11) 1.1011(3) -0.04168(13)
O2A O 0.16967(11) 0.1234(3) 0.16213(13)
O3A O 0.18043(11) 0.5231(3) 0.04763(13)
O3_2 O 0.31957(11) 0.9769(3) 0.04763(13)
O4A O 0.05890(13) 0.0617(3) -0.14048(15)
O4F O 0.44110(13) 0.0617(3) 0.35952(15)
O4D O 0.55890(13) 0.5617(3) 0.14048(15)
O4G O 0.05890(13) 0.4383(3) 0.35952(15)
O4E O -0.05890(13) -0.0617(3) 0.14048(15)
O5A O 0.15170(12) -0.0969(3) 0.28896(14)
O5B O 0.65170(12) 0.0969(3) 0.21104(14)
O5F O 0.34830(12) 0.9031(3) -0.21104(14)
O5G O 0.15170(12) 0.5969(3) -0.21104(14)
O5C O -0.15170(12) 0.4031(3) 0.21104(14)
O6A O 0.05234(12) 0.5081(3) 0.13785(15)
O6B O 0.55234(12) 0.4919(3) 0.36215(15)
O6C O -0.05234(12) 0.0081(3) 0.36215(15)
C1A C 0.10215(18) 0.1567(4) -0.0774(2)
H1A H 0.0768 0.2827 -0.0534
C2A C 0.19967(17) 0.0065(4) 0.2323(2)
H2A H 0.2627 -0.0006 0.2411
C3A C 0.10706(17) 0.5979(4) 0.0850(2)
H3A H 0.0939 0.7394 0.0696
loop_
_geom_bond_atom_site_label_1
_geom_bond_atom_site_label_2
_geom_bond_site_symmetry_1
_geom_bond_site_symmetry_2
Ga1 O1 1_555 1_555
Na1 O2 1_555 1_555
Na2 O1 1_555 1_555
O1 C1 1_555 1_555
O2 Ga1 1_555 1_555
O3 Ga1 1_555 1_555
O4 C1 1_555 1_555
O5 C2 1_555 1_555
O6 Na1 1_555 1_555
C1 H1 1_555 1_555
C2 O2 1_555 1_555
H2 C2 1_555 1_555
C3 O3 1_555 1_555
H3 C3 1_555 1_555
Na1A O2A 1_555 1_555
Na1F O4 1_555 1_555
Na1D O4 1_555 1_555
Na1B O5 1_555 1_555
Na1B_2 O6 1_555 1_555
Na1G O4A 1_555 1_555
Na1E O4A 1_555 1_555
Na1C O4E 1_555 1_555
Na1C_2 O4G 1_555 1_555
Na2_2 O3 1_555 1_555
Na2F O5 1_555 1_555
Na2F_2 O5A 1_555 1_555
O1A Ga1 1_555 1_555
O1A_2 Na2 1_555 1_555
O2A Ga1 1_555 1_555
O3A Ga1 1_555 1_555
O3_2 Na2 1_555 1_555
O4A C1A 1_555 1_555
O4F Na1 1_555 1_555
O4D Na1 1_555 1_555
O4G Na1A 1_555 1_555
O4E Na1A 1_555 1_555
O5A Na1C 1_555 1_555
O5B Na1 1_555 1_555
O5F Na2 1_555 1_555
O5G Na2 1_555 1_555
O5C Na1A 1_555 1_555
O6A Na1A 1_555 1_555
O6B Na1 1_555 1_555
O6C Na1A 1_555 1_555
C1A O1A 1_555 1_555
H1A C1A 1_555 1_555
C2A O2A 1_555 1_555
H2A C2A 1_555 1_555
C3A O3A 1_555 1_555
H3A C3A 1_555 1_555
Na2 O3A 1_555 1_555
O6 C3 1_555 1_555
Na1D O5F 1_555 1_555
Na1B O4D 1_555 1_555
Na1B O6B 1_555 1_555
Na1B_2 O4F 1_555 1_555
Na1C O6C 1_555 1_555
Na1C_2 O6A 1_555 1_555
Na2_2 O1A 1_555 1_555
O5A C2A 1_555 1_555
O6A C3A 1_555 1_555

#END
