
#######################################################################
#
#                 Cambridge Crystallographic Data Centre
#                                CCDC 
#
#######################################################################
#
# If this CIF has been generated from an entry in the Cambridge 
# Structural Database, then it will include bibliographic, chemical, 
# crystal, experimental, refinement or atomic coordinate data resulting 
# from the CCDC's data processing and validation procedures.
#
#######################################################################

data_LUHZOE
_symmetry_cell_setting           orthorhombic
_symmetry_space_group_name_H-M   'P c c n'
_symmetry_Int_Tables_number      56
_space_group_name_Hall           '-P 2ab 2ac'
loop_
_symmetry_equiv_pos_site_id
_symmetry_equiv_pos_as_xyz
1 x,y,z
2 1/2-x,1/2-y,z
3 -x,1/2+y,1/2-z
4 1/2+x,-y,1/2-z
5 -x,-y,-z
6 1/2+x,1/2+y,-z
7 x,1/2-y,1/2+z
8 1/2-x,y,1/2+z
_cell_length_a                   14.6054(5)
_cell_length_b                   6.41600(10)
_cell_length_c                   13.9444(3)
_cell_angle_alpha                90
_cell_angle_beta                 90
_cell_angle_gamma                90
_cell_volume                     1306.71
loop_
_atom_site_label
_atom_site_type_symbol
_atom_site_fract_x
_atom_site_fract_y
_atom_site_fract_z
In1 In 0.2500 0.2500 0.06433(3)
Na1 Na 0.49888(15) 0.2749(2) 0.21949(16)
Na2 Na 0.2500 0.7500 -0.0768(2)
O1 O 0.3290(2) 0.4140(5) -0.0424(2)
O2 O 0.3357(2) 0.3879(5) 0.1731(2)
O3 O 0.3234(2) -0.0383(4) 0.0451(2)
O4 O 0.4423(2) 0.4355(5) -0.1468(3)
O5 O 0.3472(2) 0.6080(5) 0.2952(2)
O6 O 0.4452(2) -0.0136(5) 0.1407(3)
C1 C 0.3966(4) 0.3434(7) -0.0871(4)
H1 H 0.4137 0.2070 -0.0734
C2 C 0.3019(3) 0.5028(7) 0.2388(3)
H2 H 0.2385 0.5075 0.2445
C3 C 0.3951(4) -0.1065(7) 0.0857(3)
H3 H 0.4113 -0.2433 0.0717
Na1A Na 0.00112(15) 0.2251(2) 0.21949(16)
Na1F Na 0.49888(15) 0.2251(2) -0.28051(16)
Na1D Na 0.50112(15) 0.7251(2) -0.21949(16)
Na1B Na 0.50112(15) 0.7749(2) 0.28051(16)
Na1B_2 Na 0.50112(15) -0.2251(2) 0.28051(16)
Na1G Na 0.00112(15) 0.2749(2) -0.28051(16)
Na1E Na -0.00112(15) -0.2251(2) -0.21949(16)
Na1C Na -0.00112(15) -0.2749(2) 0.28051(16)
Na1C_2 Na -0.00112(15) 0.7251(2) 0.28051(16)
Na2_2 Na 0.2500 -0.2500 -0.0768(2)
Na2F Na 0.2500 0.7500 0.4232(2)
Na2F_2 Na 0.2500 -0.2500 0.4232(2)
O1A O 0.1710(2) 0.0860(5) -0.0424(2)
O1A_2 O 0.1710(2) 1.0860(5) -0.0424(2)
O2A O 0.1643(2) 0.1121(5) 0.1731(2)
O3A O 0.1766(2) 0.5383(4) 0.0451(2)
O3_2 O 0.3234(2) 0.9617(4) 0.0451(2)
O4A O 0.0577(2) 0.0645(5) -0.1468(3)
O4F O 0.4423(2) 0.0645(5) 0.3532(3)
O4D O 0.5577(2) 0.5645(5) 0.1468(3)
O4G O 0.0577(2) 0.4355(5) 0.3532(3)
O4E O -0.0577(2) -0.0645(5) 0.1468(3)
O5A O 0.1528(2) -0.1080(5) 0.2952(2)
O5B O 0.6528(2) 0.1080(5) 0.2048(2)
O5F O 0.3472(2) 0.8920(5) -0.2048(2)
O5G O 0.1528(2) 0.6080(5) -0.2048(2)
O5C O -0.1528(2) 0.3920(5) 0.2048(2)
O6A O 0.0548(2) 0.5136(5) 0.1407(3)
O6B O 0.5548(2) 0.4864(5) 0.3593(3)
O6C O -0.0548(2) 0.0136(5) 0.3593(3)
C1A C 0.1034(4) 0.1566(7) -0.0871(4)
H1A H 0.0863 0.2930 -0.0734
C2A C 0.1981(3) -0.0028(7) 0.2388(3)
H2A H 0.2615 -0.0075 0.2445
C3A C 0.1049(4) 0.6065(7) 0.0857(3)
H3A H 0.0887 0.7433 0.0717
loop_
_geom_bond_atom_site_label_1
_geom_bond_atom_site_label_2
_geom_bond_site_symmetry_1
_geom_bond_site_symmetry_2
In1 O1 1_555 1_555
Na1 O2 1_555 1_555
Na2 O1 1_555 1_555
O1 C1 1_555 1_555
O2 In1 1_555 1_555
O3 In1 1_555 1_555
O4 C1 1_555 1_555
O5 C2 1_555 1_555
O6 Na1 1_555 1_555
C1 H1 1_555 1_555
C2 O2 1_555 1_555
H2 C2 1_555 1_555
C3 O3 1_555 1_555
H3 C3 1_555 1_555
Na1A O2A 1_555 1_555
Na1F O4 1_555 1_555
Na1D O4 1_555 1_555
Na1B O5 1_555 1_555
Na1B_2 O6 1_555 1_555
Na1G O4A 1_555 1_555
Na1E O4A 1_555 1_555
Na1C O4E 1_555 1_555
Na1C_2 O4G 1_555 1_555
Na2_2 O3 1_555 1_555
Na2F O5 1_555 1_555
Na2F_2 O5A 1_555 1_555
O1A In1 1_555 1_555
O1A_2 Na2 1_555 1_555
O2A In1 1_555 1_555
O3A In1 1_555 1_555
O3_2 Na2 1_555 1_555
O4A C1A 1_555 1_555
O4F Na1 1_555 1_555
O4D Na1 1_555 1_555
O4G Na1A 1_555 1_555
O4E Na1A 1_555 1_555
O5A Na1C 1_555 1_555
O5B Na1 1_555 1_555
O5F Na2 1_555 1_555
O5G Na2 1_555 1_555
O5C Na1A 1_555 1_555
O6A Na1A 1_555 1_555
O6B Na1 1_555 1_555
O6C Na1A 1_555 1_555
C1A O1A 1_555 1_555
H1A C1A 1_555 1_555
C2A O2A 1_555 1_555
H2A C2A 1_555 1_555
C3A O3A 1_555 1_555
H3A C3A 1_555 1_555
Na2 O3A 1_555 1_555
O6 C3 1_555 1_555
Na1D O5F 1_555 1_555
Na1B O4D 1_555 1_555
Na1B O6B 1_555 1_555
Na1B_2 O4F 1_555 1_555
Na1C O6C 1_555 1_555
Na1C_2 O6A 1_555 1_555
Na2_2 O1A 1_555 1_555
O5A C2A 1_555 1_555
O6A C3A 1_555 1_555

#END
