
#######################################################################
#
#                 Cambridge Crystallographic Data Centre
#                                CCDC 
#
#######################################################################
#
# If this CIF has been generated from an entry in the Cambridge 
# Structural Database, then it will include bibliographic, chemical, 
# crystal, experimental, refinement or atomic coordinate data resulting 
# from the CCDC's data processing and validation procedures.
#
#######################################################################

data_LUJDEB01
_symmetry_cell_setting           monoclinic
_symmetry_space_group_name_H-M   'P 21/c'
_symmetry_Int_Tables_number      14
_space_group_name_Hall           '-P 2ybc'
loop_
_symmetry_equiv_pos_site_id
_symmetry_equiv_pos_as_xyz
1 x,y,z
2 -x,1/2+y,1/2-z
3 -x,-y,-z
4 x,1/2-y,1/2+z
_cell_length_a                   11.7013(18)
_cell_length_b                   17.518(3)
_cell_length_c                   9.1703(14)
_cell_angle_alpha                90
_cell_angle_beta                 98.006(2)
_cell_angle_gamma                90
_cell_volume                     1861.44
loop_
_atom_site_label
_atom_site_type_symbol
_atom_site_fract_x
_atom_site_fract_y
_atom_site_fract_z
Pd1 Pd 0.25546(2) 0.26273(2) 0.77536(2)
O1 O 0.33402(14) 0.17804(9) 0.68737(19)
O2 O 0.33665(14) 0.34277(9) 0.67802(19)
C1 C 0.4639(2) 0.11292(14) 0.5601(3)
H1 H 0.5450 0.1104 0.6043
H2 H 0.4589 0.1113 0.4526
H3 H 0.4219 0.0694 0.5939
C2 C 0.41173(19) 0.18564(14) 0.6053(3)
C3 C 0.4496(2) 0.25733(14) 0.5557(3)
C4 C 0.40840(19) 0.33084(14) 0.5892(3)
C5 C 0.4467(2) 0.40104(14) 0.5170(3)
H4 H 0.3843 0.4190 0.4424
H5 H 0.5148 0.3892 0.4699
H6 H 0.4661 0.4409 0.5912
C6 C 0.5381(2) 0.25422(14) 0.4639(3)
N1 N 0.60989(19) 0.25076(12) 0.3908(3)
O3 O 0.16881(14) 0.18300(9) 0.86636(19)
O4 O 0.18332(14) 0.34772(9) 0.87108(19)
C7 C 0.0315(2) 0.12615(14) 0.9954(3)
H7 H 0.0623 0.0804 0.9534
H8 H -0.0515 0.1299 0.9617
H9 H 0.0448 0.1229 1.1031
C8 C 0.09119(19) 0.19551(14) 0.9464(3)
C9 C 0.0601(2) 0.26938(13) 0.9933(3)
C10 C 0.10973(19) 0.34028(14) 0.9597(3)
C11 C 0.0789(2) 0.41199(14) 1.0329(3)
H10 H 0.1079 0.4560 0.9834
H11 H 0.1137 0.4114 1.1365
H12 H -0.0052 0.4156 1.0269
C12 C -0.0290(2) 0.27219(13) 1.0838(3)
N2 N -0.10104(19) 0.27397(12) 1.1566(3)
Ag1 Ag 0.75328(2) 0.26284(2) 0.27139(3)
O5 O 0.72035(19) 0.40785(12) 0.3077(2)
H13 H 0.732(4) 0.415(3) 0.397(2)
C13 C 0.7700(3) 0.46805(18) 0.2354(4)
H14 H 0.8530 0.4706 0.2705
H15 H 0.7336 0.5164 0.2565
H16 H 0.7580 0.4588 0.1289
N2_2 N 0.89896(19) 0.27397(12) 0.1566(3)
Ag1_2 Ag -0.24672(2) 0.26284(2) 1.27139(3)
Cl1 Cl 0.76758(6) 0.07082(4) 0.22564(8)
O6 O 0.72000(19) 0.12694(12) 0.1187(2)
O7 O 0.6795(2) 0.03189(18) 0.2849(3)
O8 O 0.8091(7) 0.0149(2) 0.1330(8)
O9 O 0.8205(7) 0.1128(4) 0.3539(7)
O10? O 0.8732(9) 0.0291(5) 0.1960(11)
O11? O 0.8619(8) 0.1019(6) 0.3148(12)
loop_
_geom_bond_atom_site_label_1
_geom_bond_atom_site_label_2
_geom_bond_site_symmetry_1
_geom_bond_site_symmetry_2
Pd1 O1 1_555 1_555
O1 C2 1_555 1_555
O2 Pd1 1_555 1_555
C1 H1 1_555 1_555
H2 C1 1_555 1_555
H3 C1 1_555 1_555
C2 C1 1_555 1_555
C3 C2 1_555 1_555
C4 O2 1_555 1_555
C5 C4 1_555 1_555
H4 C5 1_555 1_555
H5 C5 1_555 1_555
H6 C5 1_555 1_555
C6 C3 1_555 1_555
N1 C6 1_555 1_555
O3 Pd1 1_555 1_555
O4 Pd1 1_555 1_555
C7 H7 1_555 1_555
H8 C7 1_555 1_555
H9 C7 1_555 1_555
C8 O3 1_555 1_555
C9 C8 1_555 1_555
C10 O4 1_555 1_555
C11 C10 1_555 1_555
H10 C11 1_555 1_555
H11 C11 1_555 1_555
H12 C11 1_555 1_555
C12 C9 1_555 1_555
N2 C12 1_555 1_555
Ag1 N1 1_555 1_555
O5 Ag1 1_555 1_555
H13 O5 1_555 1_555
C13 O5 1_555 1_555
H14 C13 1_555 1_555
H15 C13 1_555 1_555
H16 C13 1_555 1_555
Cl1 O6 1_555 1_555
O7 Cl1 1_555 1_555
O8 Cl1 1_555 1_555
O9 Cl1 1_555 1_555
N2_2 Ag1 1_555 1_555
Ag1_2 N2 1_555 1_555
C3 C4 1_555 1_555
C7 C8 1_555 1_555
C9 C10 1_555 1_555

#END
