
#######################################################################
#
#                 Cambridge Crystallographic Data Centre
#                                CCDC 
#
#######################################################################
#
# If this CIF has been generated from an entry in the Cambridge 
# Structural Database, then it will include bibliographic, chemical, 
# crystal, experimental, refinement or atomic coordinate data resulting 
# from the CCDC's data processing and validation procedures.
#
#######################################################################

data_LUJDAX
_symmetry_cell_setting           monoclinic
_symmetry_space_group_name_H-M   'C 2/c'
_symmetry_Int_Tables_number      15
_space_group_name_Hall           '-C 2yn'
loop_
_symmetry_equiv_pos_site_id
_symmetry_equiv_pos_as_xyz
1 x,y,z
2 -x,y,1/2-z
3 1/2+x,1/2+y,z
4 1/2-x,1/2+y,1/2-z
5 -x,-y,-z
6 x,-y,1/2+z
7 1/2-x,1/2-y,-z
8 1/2+x,1/2-y,1/2+z
_cell_length_a                   11.9640(16)
_cell_length_b                   17.688(2)
_cell_length_c                   9.1080(11)
_cell_angle_alpha                90
_cell_angle_beta                 96.437(3)
_cell_angle_gamma                90
_cell_volume                     1915.28
loop_
_atom_site_label
_atom_site_type_symbol
_atom_site_fract_x
_atom_site_fract_y
_atom_site_fract_z
B1 B 1.0000 0.3172(6) 0.2500
F1 F 0.9536(5) 0.3634(3) 0.1454(6)
F2 F 1.0710(9) 0.2753(6) 0.1978(12)
F1A F 1.0464(5) 0.3634(3) 0.3546(6)
F2A F 0.9290(9) 0.2753(6) 0.3022(12)
Pd1 Pd 0.5000 0.51102(3) 0.7500
Ag1 Ag 1.0000 0.51364(4) 0.2500
O1 O 0.58206(19) 0.42968(14) 0.6596(3)
O2 O 0.57851(19) 0.59258(14) 0.6539(3)
C1 C 0.7110(4) 0.3685(3) 0.5260(5)
H1 H 0.7914 0.3717 0.5452
H2 H 0.6900 0.3622 0.4218
H3 H 0.6847 0.3261 0.5780
C2 C 0.6597(3) 0.4393(2) 0.5769(4)
C3 C 0.6964(4) 0.5116(3) 0.5323(5)
C4 C 0.6531(3) 0.5832(2) 0.5673(4)
C5 C 0.6920(3) 0.6533(2) 0.4999(5)
H4 H 0.6676 0.6964 0.5518
H5 H 0.6610 0.6557 0.3981
H6 H 0.7726 0.6531 0.5061
C6 C 0.7860(5) 0.5111(3) 0.4411(6)
N1 N 0.8580(3) 0.5104(2) 0.3704(5)
C7 C 0.978(4) 0.7171(9) 0.255(6)
H7 H 0.9957 0.7070 0.3582
H8 H 0.8993 0.7274 0.2334
H9 H 1.0204 0.7602 0.2279
O3 O 1.0058(11) 0.6551(5) 0.1746(10)
H10 H 1.0393 0.6690 0.1056
C7A C 1.022(4) 0.7171(9) 0.245(6)
H7A H 1.0043 0.7070 0.1418
H8A H 1.1007 0.7274 0.2666
H9A H 0.9796 0.7602 0.2721
O3A O 0.9942(11) 0.6551(5) 0.3254(10)
H10A H 0.9607 0.6690 0.3944
O1A O 0.41794(19) 0.42968(14) 0.8404(3)
O2A O 0.42149(19) 0.59258(14) 0.8461(3)
C1A C 0.2890(4) 0.3685(3) 0.9740(5)
H1A H 0.2086 0.3717 0.9548
H2A H 0.3100 0.3622 1.0782
H3A H 0.3153 0.3261 0.9220
C2A C 0.3403(3) 0.4393(2) 0.9231(4)
C3A C 0.3036(4) 0.5116(3) 0.9677(5)
C4A C 0.3469(3) 0.5832(2) 0.9327(4)
C5A C 0.3080(3) 0.6533(2) 1.0001(5)
H4A H 0.3324 0.6964 0.9482
H5A H 0.3390 0.6557 1.1019
H6A H 0.2274 0.6531 0.9939
C6A C 0.2140(5) 0.5111(3) 1.0589(6)
N1A N 0.1420(3) 0.5104(2) 1.1296(5)
Ag1_2 Ag 0.0000 0.51364(4) 1.2500
N1A_2 N 1.1420(3) 0.5104(2) 0.1296(5)
loop_
_geom_bond_atom_site_label_1
_geom_bond_atom_site_label_2
_geom_bond_site_symmetry_1
_geom_bond_site_symmetry_2
Pd1 O1 1_555 1_555
Ag1 N1 1_555 1_555
O1 C2 1_555 1_555
O2 Pd1 1_555 1_555
C1 H1 1_555 1_555
H2 C1 1_555 1_555
H3 C1 1_555 1_555
C2 C1 1_555 1_555
C3 C2 1_555 1_555
C4 O2 1_555 1_555
C5 C4 1_555 1_555
H4 C5 1_555 1_555
H5 C5 1_555 1_555
H6 C5 1_555 1_555
C6 C3 1_555 1_555
N1 C6 1_555 1_555
C7 H7 1_555 1_555
H8 C7 1_555 1_555
H9 C7 1_555 1_555
O3 Ag1 1_555 1_555
H10 O3 1_555 1_555
B1 F1 1_555 1_555
F2 B1 1_555 1_555
C7A H7A 1_555 1_555
H8A C7A 1_555 1_555
H9A C7A 1_555 1_555
O3A Ag1 1_555 1_555
H10A O3A 1_555 1_555
O1A Pd1 1_555 1_555
O2A Pd1 1_555 1_555
C1A H1A 1_555 1_555
H2A C1A 1_555 1_555
H3A C1A 1_555 1_555
C2A O1A 1_555 1_555
C3A C2A 1_555 1_555
C4A O2A 1_555 1_555
C5A C4A 1_555 1_555
H4A C5A 1_555 1_555
H5A C5A 1_555 1_555
H6A C5A 1_555 1_555
C6A C3A 1_555 1_555
N1A C6A 1_555 1_555
Ag1_2 N1A 1_555 1_555
N1A_2 Ag1 1_555 1_555
F1A B1 1_555 1_555
F2A B1 1_555 1_555
C3 C4 1_555 1_555
C7 O3 1_555 1_555
C7A O3A 1_555 1_555
C1A C2A 1_555 1_555
C3A C4A 1_555 1_555

#END
