
#######################################################################
#
#                 Cambridge Crystallographic Data Centre
#                                CCDC 
#
#######################################################################
#
# If this CIF has been generated from an entry in the Cambridge 
# Structural Database, then it will include bibliographic, chemical, 
# crystal, experimental, refinement or atomic coordinate data resulting 
# from the CCDC's data processing and validation procedures.
#
#######################################################################

data_LUJDEB
_symmetry_cell_setting           monoclinic
_symmetry_space_group_name_H-M   'C 2/c'
_symmetry_Int_Tables_number      15
_space_group_name_Hall           '-C 2yn'
loop_
_symmetry_equiv_pos_site_id
_symmetry_equiv_pos_as_xyz
1 x,y,z
2 -x,y,1/2-z
3 1/2+x,1/2+y,z
4 1/2-x,1/2+y,1/2-z
5 -x,-y,-z
6 x,-y,1/2+z
7 1/2-x,1/2-y,-z
8 1/2+x,1/2-y,1/2+z
_cell_length_a                   11.9150(17)
_cell_length_b                   17.722(3)
_cell_length_c                   9.1692(13)
_cell_angle_alpha                90
_cell_angle_beta                 96.440(2)
_cell_angle_gamma                90
_cell_volume                     1923.93
loop_
_atom_site_label
_atom_site_type_symbol
_atom_site_fract_x
_atom_site_fract_y
_atom_site_fract_z
Cl1 Cl 1.0000 0.32016(7) 0.2500
O4 O 0.9548(4) 0.3673(2) 0.1341(4)
O5 O 1.0828(6) 0.2762(5) 0.2007(7)
O4A O 1.0452(4) 0.3673(2) 0.3659(4)
O5A O 0.9172(6) 0.2762(5) 0.2993(7)
Pd1 Pd 0.5000 0.51231(2) 0.7500
Ag1 Ag 1.0000 0.51309(2) 0.2500
O1 O 0.58194(16) 0.43126(11) 0.6584(2)
O2 O 0.57706(14) 0.59382(10) 0.6532(2)
C1 C 0.7120(3) 0.37089(19) 0.5273(4)
H1 H 0.7923 0.3731 0.5529
H2 H 0.6955 0.3663 0.4228
H3 H 0.6820 0.3280 0.5740
C2 C 0.6593(2) 0.44121(16) 0.5774(3)
C3 C 0.6949(4) 0.51297(18) 0.5295(5)
C4 C 0.6506(2) 0.58420(15) 0.5655(3)
C5 C 0.6879(3) 0.65476(17) 0.4960(4)
H4 H 0.6818 0.6966 0.5612
H5 H 0.6408 0.6637 0.4056
H6 H 0.7649 0.6494 0.4764
C6 C 0.7829(4) 0.51333(19) 0.4386(5)
N1 N 0.8547(2) 0.51306(15) 0.3653(4)
C7 C 1.005(4) 0.7172(6) 0.269(6)
H7 H 1.0624 0.7121 0.3506
H8 H 0.9321 0.7203 0.3053
H9 H 1.0177 0.7622 0.2155
O3 O 1.0070(8) 0.6556(3) 0.1788(8)
H10 H 1.0071 0.6698 0.0937
C7A C 0.995(4) 0.7172(6) 0.231(6)
H7A H 0.9376 0.7121 0.1494
H8A H 1.0679 0.7203 0.1947
H9A H 0.9823 0.7622 0.2845
O3A O 0.9930(8) 0.6556(3) 0.3212(8)
H10A H 0.9929 0.6698 0.4063
O1A O 0.41806(16) 0.43126(11) 0.8416(2)
O2A O 0.42294(14) 0.59382(10) 0.8468(2)
C1A C 0.2880(3) 0.37089(19) 0.9727(4)
H1A H 0.2077 0.3731 0.9471
H2A H 0.3045 0.3663 1.0772
H3A H 0.3180 0.3280 0.9260
C2A C 0.3407(2) 0.44121(16) 0.9226(3)
C3A C 0.3051(4) 0.51297(18) 0.9705(5)
C4A C 0.3494(2) 0.58420(15) 0.9345(3)
C5A C 0.3121(3) 0.65476(17) 1.0040(4)
H4A H 0.3182 0.6966 0.9388
H5A H 0.3592 0.6637 1.0944
H6A H 0.2351 0.6494 1.0236
C6A C 0.2171(4) 0.51333(19) 1.0614(5)
N1A N 0.1453(2) 0.51306(15) 1.1347(4)
Ag1_2 Ag 0.0000 0.51309(2) 1.2500
N1A_2 N 1.1453(2) 0.51306(15) 0.1347(4)
loop_
_geom_bond_atom_site_label_1
_geom_bond_atom_site_label_2
_geom_bond_site_symmetry_1
_geom_bond_site_symmetry_2
Pd1 O1 1_555 1_555
Ag1 N1 1_555 1_555
O1 C2 1_555 1_555
O2 Pd1 1_555 1_555
C1 H1 1_555 1_555
H2 C1 1_555 1_555
H3 C1 1_555 1_555
C2 C1 1_555 1_555
C3 C2 1_555 1_555
C4 O2 1_555 1_555
C5 C4 1_555 1_555
H4 C5 1_555 1_555
H5 C5 1_555 1_555
H6 C5 1_555 1_555
C6 C3 1_555 1_555
N1 C6 1_555 1_555
C7 H7 1_555 1_555
H8 C7 1_555 1_555
H9 C7 1_555 1_555
O3 Ag1 1_555 1_555
H10 O3 1_555 1_555
Cl1 O4 1_555 1_555
O5 Cl1 1_555 1_555
C7A H7A 1_555 1_555
H8A C7A 1_555 1_555
H9A C7A 1_555 1_555
O3A Ag1 1_555 1_555
H10A O3A 1_555 1_555
O1A Pd1 1_555 1_555
O2A Pd1 1_555 1_555
C1A H1A 1_555 1_555
H2A C1A 1_555 1_555
H3A C1A 1_555 1_555
C2A O1A 1_555 1_555
C3A C2A 1_555 1_555
C4A O2A 1_555 1_555
C5A C4A 1_555 1_555
H4A C5A 1_555 1_555
H5A C5A 1_555 1_555
H6A C5A 1_555 1_555
C6A C3A 1_555 1_555
N1A C6A 1_555 1_555
Ag1_2 N1A 1_555 1_555
N1A_2 Ag1 1_555 1_555
O4A Cl1 1_555 1_555
O5A Cl1 1_555 1_555
C3 C4 1_555 1_555
C7 O3 1_555 1_555
C7A O3A 1_555 1_555
C1A C2A 1_555 1_555
C3A C4A 1_555 1_555

#END
