
#######################################################################
#
#                 Cambridge Crystallographic Data Centre
#                                CCDC 
#
#######################################################################
#
# If this CIF has been generated from an entry in the Cambridge 
# Structural Database, then it will include bibliographic, chemical, 
# crystal, experimental, refinement or atomic coordinate data resulting 
# from the CCDC's data processing and validation procedures.
#
#######################################################################

data_LUJDAX01
_symmetry_cell_setting           monoclinic
_symmetry_space_group_name_H-M   'P 21/c'
_symmetry_Int_Tables_number      14
_space_group_name_Hall           '-P 2ybc'
loop_
_symmetry_equiv_pos_site_id
_symmetry_equiv_pos_as_xyz
1 x,y,z
2 -x,1/2+y,1/2-z
3 -x,-y,-z
4 x,1/2-y,1/2+z
_cell_length_a                   11.6947(9)
_cell_length_b                   17.3278(14)
_cell_length_c                   9.1324(7)
_cell_angle_alpha                90
_cell_angle_beta                 98.1670(10)
_cell_angle_gamma                90
_cell_volume                     1831.85
loop_
_atom_site_label
_atom_site_type_symbol
_atom_site_fract_x
_atom_site_fract_y
_atom_site_fract_z
Pd1 Pd 0.25885(3) 0.26193(2) 0.79211(4)
O1 O 0.3368(2) 0.17595(16) 0.7048(3)
O2 O 0.3419(2) 0.34231(17) 0.6951(3)
C1 C 0.4657(4) 0.1089(3) 0.5751(5)
H1 H 0.5449 0.1035 0.6259
H2 H 0.4663 0.1097 0.4679
H3 H 0.4190 0.0653 0.6009
C2 C 0.4146(3) 0.1832(2) 0.6223(5)
C3 C 0.4549(4) 0.2557(3) 0.5722(6)
C4 C 0.4140(3) 0.3299(2) 0.6070(5)
C5 C 0.4536(4) 0.4010(3) 0.5356(5)
H4 H 0.3913 0.4202 0.4614
H5 H 0.5212 0.3887 0.4877
H6 H 0.4743 0.4408 0.6111
C6 C 0.5431(4) 0.2516(3) 0.4822(5)
N1 N 0.6153(3) 0.2472(2) 0.4103(5)
O3 O 0.1716(2) 0.18133(16) 0.8833(3)
O4 O 0.1865(2) 0.34804(16) 0.8877(3)
C7 C 0.0333(4) 0.1243(3) 1.0099(5)
H7 H 0.0661 0.0779 0.9709
H8 H -0.0493 0.1273 0.9720
H9 H 0.0436 0.1219 1.1182
C8 C 0.0932(3) 0.1941(2) 0.9621(5)
C9 C 0.0622(4) 0.2686(2) 1.0082(5)
C10 C 0.1128(3) 0.3405(2) 0.9752(5)
C11 C 0.0804(4) 0.4130(2) 1.0483(5)
H10 H 0.1151 0.4574 1.0049
H11 H 0.1087 0.4105 1.1545
H12 H -0.0039 0.4185 1.0334
C12 C -0.0268(4) 0.2722(2) 1.0985(6)
N2 N -0.0990(3) 0.2742(2) 1.1715(5)
Ag1 Ag 0.75732(3) 0.26524(2) 0.29098(5)
O5 O 0.7264(3) 0.4113(2) 0.3177(4)
H13 H 0.731(4) 0.430(3) 0.403(3)
C13 C 0.7746(5) 0.4676(3) 0.2297(7)
H14 H 0.8579 0.4719 0.2626
H15 H 0.7378 0.5177 0.2406
H16 H 0.7613 0.4519 0.1256
N2_2 N 0.9010(3) 0.2742(2) 0.1715(5)
Ag1_2 Ag -0.24268(3) 0.26524(2) 1.29098(5)
B1 B 0.7709(5) 0.0697(3) 0.2188(7)
F1 F 0.6933(3) 0.0350(2) 0.2949(4)
F2 F 0.8034(4) 0.0187(2) 0.1185(5)
F3 F 0.8622(4) 0.0976(2) 0.3135(5)
F4 F 0.7202(3) 0.13205(18) 0.1347(4)
loop_
_geom_bond_atom_site_label_1
_geom_bond_atom_site_label_2
_geom_bond_site_symmetry_1
_geom_bond_site_symmetry_2
Pd1 O1 1_555 1_555
O1 C2 1_555 1_555
O2 Pd1 1_555 1_555
C1 H1 1_555 1_555
H2 C1 1_555 1_555
H3 C1 1_555 1_555
C2 C1 1_555 1_555
C3 C2 1_555 1_555
C4 O2 1_555 1_555
C5 C4 1_555 1_555
H4 C5 1_555 1_555
H5 C5 1_555 1_555
H6 C5 1_555 1_555
C6 C3 1_555 1_555
N1 C6 1_555 1_555
O3 Pd1 1_555 1_555
O4 Pd1 1_555 1_555
C7 H7 1_555 1_555
H8 C7 1_555 1_555
H9 C7 1_555 1_555
C8 O3 1_555 1_555
C9 C8 1_555 1_555
C10 O4 1_555 1_555
C11 C10 1_555 1_555
H10 C11 1_555 1_555
H11 C11 1_555 1_555
H12 C11 1_555 1_555
C12 C9 1_555 1_555
N2 C12 1_555 1_555
Ag1 N1 1_555 1_555
O5 Ag1 1_555 1_555
H13 O5 1_555 1_555
C13 O5 1_555 1_555
H14 C13 1_555 1_555
H15 C13 1_555 1_555
H16 C13 1_555 1_555
B1 F1 1_555 1_555
F2 B1 1_555 1_555
F3 B1 1_555 1_555
F4 B1 1_555 1_555
N2_2 Ag1 1_555 1_555
Ag1_2 N2 1_555 1_555
C3 C4 1_555 1_555
C7 C8 1_555 1_555
C9 C10 1_555 1_555

#END
