
#######################################################################
#
#                 Cambridge Crystallographic Data Centre
#                                CCDC 
#
#######################################################################
#
# If this CIF has been generated from an entry in the Cambridge 
# Structural Database, then it will include bibliographic, chemical, 
# crystal, experimental, refinement or atomic coordinate data resulting 
# from the CCDC's data processing and validation procedures.
#
#######################################################################

data_LUJFAZ
_symmetry_cell_setting           triclinic
_symmetry_space_group_name_H-M   'P -1'
_symmetry_Int_Tables_number      2
_space_group_name_Hall           '-P 1'
loop_
_symmetry_equiv_pos_site_id
_symmetry_equiv_pos_as_xyz
1 x,y,z
2 -x,-y,-z
_cell_length_a                   9.358(4)
_cell_length_b                   10.882(5)
_cell_length_c                   10.968(4)
_cell_angle_alpha                116.299(6)
_cell_angle_beta                 96.468(6)
_cell_angle_gamma                91.599(6)
_cell_volume                     991.129
loop_
_atom_site_label
_atom_site_type_symbol
_atom_site_fract_x
_atom_site_fract_y
_atom_site_fract_z
Pd1 Pd 0.74576(5) 0.49162(5) 0.51702(5)
O1 O 0.6607(5) 0.4902(5) 0.6747(5)
O2 O 0.6477(5) 0.6522(5) 0.5241(5)
C1 C 0.5135(9) 0.5441(8) 0.8437(8)
H1 H 0.4164 0.4971 0.8053
H2 H 0.5079 0.6304 0.9258
H3 H 0.5751 0.4849 0.8682
C2 C 0.5753(8) 0.5741(8) 0.7404(8)
C3 C 0.5329(8) 0.6877(8) 0.7174(8)
C4 C 0.5690(7) 0.7224(8) 0.6142(8)
C5 C 0.5143(9) 0.8448(9) 0.6030(9)
H4 H 0.5518 0.8531 0.5269
H5 H 0.5465 0.9278 0.6888
H6 H 0.4085 0.8339 0.5860
C6 C 0.4431(9) 0.7755(8) 0.8092(9)
N1 N 0.3692(7) 0.8448(7) 0.8856(7)
O3 O 0.8503(5) 0.3348(5) 0.5152(5)
O4 O 0.8252(5) 0.4889(5) 0.3572(5)
C7 C 1.0172(8) 0.1697(8) 0.4621(8)
H7 H 1.1074 0.2145 0.5233
H8 H 1.0390 0.0958 0.3759
H9 H 0.9570 0.1310 0.5064
C8 C 0.9390(7) 0.2720(7) 0.4328(7)
C9 C 0.9645(7) 0.2982(8) 0.3202(8)
C10 C 0.9093(7) 0.4038(8) 0.2892(7)
C11 C 0.9498(9) 0.4178(9) 0.1671(8)
H10 H 0.9153 0.3336 0.0832
H11 H 1.0550 0.4327 0.1764
H12 H 0.9055 0.4963 0.1621
C12 C 1.0568(8) 0.2090(8) 0.2307(8)
N2 N 1.1299(7) 0.1353(7) 0.1599(7)
Ag1 Ag 0.24827(6) 0.97906(6) 1.03177(6)
O5 O 0.1931(7) 0.8538(8) 1.1724(7)
H13 H 0.1000 0.8677 1.2003
C13 C 0.2685(14) 0.7695(16) 1.2176(17)
H14 H 0.2205 0.6760 1.1714
H15 H 0.2705 0.8056 1.3171
H16 H 0.3675 0.7676 1.1962
N2_2 N 0.1299(7) 1.1353(7) 1.1599(7)
Ag1_2 Ag 1.24827(6) -0.02094(6) 0.03177(6)
P1 P 0.2353(2) 1.1748(2) 0.8176(2)
F1 F 0.2130(6) 1.2634(8) 0.9751(6)
F2 F 0.3091(7) 1.3058(7) 0.8178(7)
F3 F 0.2513(7) 1.0859(7) 0.6615(6)
F4 F 0.0797(6) 1.2118(8) 0.7699(7)
F5 F 0.3851(6) 1.1372(6) 0.8678(7)
F6 F 0.1339(12) 1.0608(11) 0.8341(10)
F7? F 0.1907(19) 1.0202(17) 0.7957(16)
loop_
_geom_bond_atom_site_label_1
_geom_bond_atom_site_label_2
_geom_bond_site_symmetry_1
_geom_bond_site_symmetry_2
Pd1 O1 1_555 1_555
O1 C2 1_555 1_555
O2 Pd1 1_555 1_555
C1 H1 1_555 1_555
H2 C1 1_555 1_555
H3 C1 1_555 1_555
C2 C1 1_555 1_555
C3 C2 1_555 1_555
C4 O2 1_555 1_555
C5 C4 1_555 1_555
H4 C5 1_555 1_555
H5 C5 1_555 1_555
H6 C5 1_555 1_555
C6 C3 1_555 1_555
N1 C6 1_555 1_555
O3 Pd1 1_555 1_555
O4 Pd1 1_555 1_555
C7 H7 1_555 1_555
H8 C7 1_555 1_555
H9 C7 1_555 1_555
C8 O3 1_555 1_555
C9 C8 1_555 1_555
C10 O4 1_555 1_555
C11 C10 1_555 1_555
H10 C11 1_555 1_555
H11 C11 1_555 1_555
H12 C11 1_555 1_555
C12 C9 1_555 1_555
N2 C12 1_555 1_555
Ag1 N1 1_555 1_555
O5 Ag1 1_555 1_555
H13 O5 1_555 1_555
C13 O5 1_555 1_555
H14 C13 1_555 1_555
H15 C13 1_555 1_555
H16 C13 1_555 1_555
P1 F1 1_555 1_555
F2 P1 1_555 1_555
F3 P1 1_555 1_555
F4 P1 1_555 1_555
F5 P1 1_555 1_555
F6 P1 1_555 1_555
N2_2 Ag1 1_555 1_555
Ag1_2 N2 1_555 1_555
C3 C4 1_555 1_555
C7 C8 1_555 1_555
C9 C10 1_555 1_555

#END
