
#######################################################################
#
#                 Cambridge Crystallographic Data Centre
#                                CCDC 
#
#######################################################################
#
# If this CIF has been generated from an entry in the Cambridge 
# Structural Database, then it will include bibliographic, chemical, 
# crystal, experimental, refinement or atomic coordinate data resulting 
# from the CCDC's data processing and validation procedures.
#
#######################################################################

data_LUJFED
_symmetry_cell_setting           triclinic
_symmetry_space_group_name_H-M   'P -1'
_symmetry_Int_Tables_number      2
_space_group_name_Hall           '-P 1'
loop_
_symmetry_equiv_pos_site_id
_symmetry_equiv_pos_as_xyz
1 x,y,z
2 -x,-y,-z
_cell_length_a                   9.9183(13)
_cell_length_b                   10.7825(14)
_cell_length_c                   11.6604(15)
_cell_angle_alpha                65.896(2)
_cell_angle_beta                 71.7491(19)
_cell_angle_gamma                88.957(2)
_cell_volume                     1072.33
loop_
_atom_site_label
_atom_site_type_symbol
_atom_site_fract_x
_atom_site_fract_y
_atom_site_fract_z
Ag1 Ag 0.25241(3) 1.00663(3) -0.00117(3)
Pd1 Pd -0.5000 1.0000 0.5000
Pd2 Pd 1.0000 1.0000 -0.5000
O1 O 0.8430(3) 0.8592(2) -0.3563(2)
O2 O 0.8945(2) 1.1546(2) -0.4901(2)
O3 O -0.3882(3) 0.8586(2) 0.4637(2)
O4 O -0.3504(2) 1.1533(2) 0.3655(2)
N1 N 0.4424(3) 1.0312(3) -0.1587(3)
N2 N 0.0665(3) 1.0214(3) 0.1411(3)
C1 C 0.6213(4) 0.7596(4) -0.1890(4)
H1 H 0.5522 0.7424 -0.2269
H2 H 0.5705 0.7756 -0.1104
H3 H 0.6729 0.6800 -0.1631
C2 C 0.7254(4) 0.8831(4) -0.2908(3)
C3 C 0.6878(4) 1.0171(4) -0.3118(3)
C4 C 0.7692(4) 1.1428(4) -0.4108(3)
C5 C 0.7049(4) 1.2733(4) -0.4289(3)
H4 H 0.7760 1.3511 -0.4975
H5 H 0.6753 1.2823 -0.3445
H6 H 0.6215 1.2720 -0.4565
C6 C 0.5510(4) 1.0253(4) -0.2268(4)
C7 C -0.1988(4) 0.7593(4) 0.3705(4)
H7 H -0.1236 0.7420 0.4113
H8 H -0.1572 0.7753 0.2768
H9 H -0.2726 0.6797 0.4180
C8 C -0.2644(4) 0.8829(4) 0.3789(4)
C9 C -0.1851(4) 1.0143(4) 0.2975(3)
C10 C -0.2282(4) 1.1419(4) 0.2954(3)
C11 C -0.1274(4) 1.2708(3) 0.2087(3)
H10 H -0.1715 1.3472 0.2242
H11 H -0.1058 1.2889 0.1150
H12 H -0.0387 1.2611 0.2301
C12 C -0.0451(4) 1.0198(4) 0.2095(4)
S1 S 0.23757(10) 0.67955(10) 0.09885(9)
O5 O 0.1311(3) 0.7633(3) 0.0547(3)
O6 O 0.3389(3) 0.7509(3) 0.1248(2)
O7 O 0.2982(3) 0.5996(3) 0.0275(3)
C13 C 0.1331(4) 0.5512(4) 0.2638(4)
F1 F 0.0707(2) 0.6090(2) 0.3458(2)
F2 F 0.2151(3) 0.4656(2) 0.3197(2)
F3 F 0.0301(3) 0.4801(3) 0.2580(3)
Ag1A Ag -1.25241(3) 0.99337(3) 1.00117(3)
O1A O -1.8430(3) 1.1408(2) 1.3563(2)
O2A O -1.8945(2) 0.8454(2) 1.4901(2)
O3A O -0.6118(3) 1.1414(2) 0.5363(2)
O4A O -0.6496(2) 0.8467(2) 0.6345(2)
N1A N -1.4424(3) 0.9688(3) 1.1587(3)
N2A N -1.0665(3) 0.9786(3) 0.8589(3)
C1A C -1.6213(4) 1.2404(4) 1.1890(4)
H1A H -1.5522 1.2576 1.2269
H2A H -1.5705 1.2244 1.1104
H3A H -1.6729 1.3200 1.1631
C2A C -1.7254(4) 1.1169(4) 1.2908(3)
C3A C -1.6878(4) 0.9829(4) 1.3118(3)
C4A C -1.7692(4) 0.8572(4) 1.4108(3)
C5A C -1.7049(4) 0.7267(4) 1.4289(3)
H4A H -1.7760 0.6489 1.4975
H5A H -1.6753 0.7177 1.3445
H6A H -1.6215 0.7280 1.4565
C6A C -1.5510(4) 0.9747(4) 1.2268(4)
C7A C -0.8012(4) 1.2407(4) 0.6295(4)
H7A H -0.8764 1.2580 0.5887
H8A H -0.8428 1.2247 0.7232
H9A H -0.7274 1.3203 0.5820
C8A C -0.7356(4) 1.1171(4) 0.6211(4)
C9A C -0.8149(4) 0.9857(4) 0.7025(3)
C10A C -0.7718(4) 0.8581(4) 0.7046(3)
C11A C -0.8726(4) 0.7292(3) 0.7913(3)
H10A H -0.8285 0.6528 0.7758
H11A H -0.8942 0.7111 0.8850
H12A H -0.9613 0.7389 0.7699
C12A C -0.9549(4) 0.9802(4) 0.7905(4)
S1A S -1.23757(10) 1.32045(10) 0.90115(9)
O5A O -1.1311(3) 1.2367(3) 0.9453(3)
O6A O -1.3389(3) 1.2491(3) 0.8752(2)
O7A O -1.2982(3) 1.4004(3) 0.9725(3)
C13A C -1.1331(4) 1.4488(4) 0.7362(4)
F1A F -1.0707(2) 1.3910(2) 0.6542(2)
F2A F -1.2151(3) 1.5344(2) 0.6803(2)
F3A F -1.0301(3) 1.5199(3) 0.7420(3)
Pd2_2 Pd -2.0000 1.0000 1.5000
O1A_2 O 1.1570(3) 1.1408(2) -0.6437(2)
O2A_2 O 1.1055(2) 0.8454(2) -0.5099(2)
Cl1 Cl 0.54814(12) 0.49698(12) 0.33500(10)
Cl2 Cl 0.77967(12) 0.65907(11) 0.09022(11)
C14 C 0.6083(4) 0.5664(4) 0.1605(4)
H13 H 0.5404 0.6277 0.1271
H14 H 0.6104 0.4915 0.1319
loop_
_geom_bond_atom_site_label_1
_geom_bond_atom_site_label_2
_geom_bond_site_symmetry_1
_geom_bond_site_symmetry_2
Ag1 N1 1_555 1_555
Pd1 O3 1_555 1_555
Pd2 O1 1_555 1_555
O1 C2 1_555 1_555
O2 Pd2 1_555 1_555
O3 C8 1_555 1_555
O4 Pd1 1_555 1_555
N1 C6 1_555 1_555
N2 Ag1 1_555 1_555
C1 H1 1_555 1_555
H2 C1 1_555 1_555
H3 C1 1_555 1_555
C2 C1 1_555 1_555
C3 C2 1_555 1_555
C4 O2 1_555 1_555
C5 C4 1_555 1_555
H4 C5 1_555 1_555
H5 C5 1_555 1_555
H6 C5 1_555 1_555
C6 C3 1_555 1_555
C7 H7 1_555 1_555
H8 C7 1_555 1_555
H9 C7 1_555 1_555
C8 C7 1_555 1_555
C9 C8 1_555 1_555
C10 O4 1_555 1_555
C11 C10 1_555 1_555
H10 C11 1_555 1_555
H11 C11 1_555 1_555
H12 C11 1_555 1_555
C12 N2 1_555 1_555
S1 O5 1_555 1_555
O5 Ag1 1_555 1_555
O6 S1 1_555 1_555
O7 S1 1_555 1_555
C13 S1 1_555 1_555
F1 C13 1_555 1_555
F2 C13 1_555 1_555
F3 C13 1_555 1_555
Cl1 C14 1_555 1_555
Cl2 C14 1_555 1_555
C14 H13 1_555 1_555
H14 C14 1_555 1_555
Ag1A N1A 1_555 1_555
O1A C2A 1_555 1_555
O2A C4A 1_555 1_555
O3A Pd1 1_555 1_555
O4A Pd1 1_555 1_555
N1A C6A 1_555 1_555
N2A Ag1A 1_555 1_555
C1A H1A 1_555 1_555
H2A C1A 1_555 1_555
H3A C1A 1_555 1_555
C2A C1A 1_555 1_555
C3A C2A 1_555 1_555
C4A C3A 1_555 1_555
C5A C4A 1_555 1_555
H4A C5A 1_555 1_555
H5A C5A 1_555 1_555
H6A C5A 1_555 1_555
C6A C3A 1_555 1_555
C7A H7A 1_555 1_555
H8A C7A 1_555 1_555
H9A C7A 1_555 1_555
C8A O3A 1_555 1_555
C9A C8A 1_555 1_555
C10A O4A 1_555 1_555
C11A C10A 1_555 1_555
H10A C11A 1_555 1_555
H11A C11A 1_555 1_555
H12A C11A 1_555 1_555
C12A N2A 1_555 1_555
S1A O5A 1_555 1_555
O5A Ag1A 1_555 1_555
O6A S1A 1_555 1_555
O7A S1A 1_555 1_555
C13A S1A 1_555 1_555
F1A C13A 1_555 1_555
F2A C13A 1_555 1_555
F3A C13A 1_555 1_555
Pd2_2 O1A 1_555 1_555
O1A_2 Pd2 1_555 1_555
O2A_2 Pd2 1_555 1_555
C3 C4 1_555 1_555
C9 C10 1_555 1_555
C9 C12 1_555 1_555
O2A Pd2_2 1_555 1_555
C7A C8A 1_555 1_555
C9A C10A 1_555 1_555
C9A C12A 1_555 1_555

#END
