
#######################################################################
#
#                 Cambridge Crystallographic Data Centre
#                                CCDC 
#
#######################################################################
#
# If this CIF has been generated from an entry in the Cambridge 
# Structural Database, then it will include bibliographic, chemical, 
# crystal, experimental, refinement or atomic coordinate data resulting 
# from the CCDC's data processing and validation procedures.
#
#######################################################################

data_LUJFIH
_symmetry_cell_setting           monoclinic
_symmetry_space_group_name_H-M   'P 21/c'
_symmetry_Int_Tables_number      14
_space_group_name_Hall           '-P 2ybc'
loop_
_symmetry_equiv_pos_site_id
_symmetry_equiv_pos_as_xyz
1 x,y,z
2 -x,1/2+y,1/2-z
3 -x,-y,-z
4 x,1/2-y,1/2+z
_cell_length_a                   4.6283(8)
_cell_length_b                   25.815(4)
_cell_length_c                   7.8121(13)
_cell_angle_alpha                90
_cell_angle_beta                 105.265(2)
_cell_angle_gamma                90
_cell_volume                     900.455
loop_
_atom_site_label
_atom_site_type_symbol
_atom_site_fract_x
_atom_site_fract_y
_atom_site_fract_z
Pd1 Pd 1.5000 0.0000 0.5000
O1 O 1.3748(3) 0.05489(6) 0.6435(2)
O2 O 1.1858(3) 0.01711(6) 0.2805(2)
C1 C 1.0983(6) 0.12375(9) 0.7166(3)
H1 H 1.2448 0.1187 0.8313
H2 H 0.8956 0.1192 0.7307
H3 H 1.1190 0.1588 0.6731
C2 C 1.1524(5) 0.08490(9) 0.5861(3)
C3 C 0.9592(5) 0.08379(8) 0.4118(3)
C4 C 0.9866(5) 0.05162(8) 0.2703(3)
C5 C 0.7665(5) 0.05733(9) 0.0912(3)
H4 H 0.8277 0.0352 0.0051
H5 H 0.7617 0.0935 0.0528
H6 H 0.5667 0.0470 0.0992
C6 C 0.7171(5) 0.12021(8) 0.3727(3)
N1 N 0.5205(5) 0.14839(8) 0.3393(3)
Ag1 Ag 0.19086(4) 0.20978(2) 0.23924(2)
N2 N -0.2192(5) 0.21589(7) -0.1113(3)
O3 O 0.0185(4) 0.24306(7) -0.0536(2)
O4 O -0.3815(4) 0.22340(7) -0.2630(2)
O5 O -0.2756(4) 0.18217(6) -0.0104(2)
O1B O 1.6252(3) -0.05489(6) 0.3565(2)
O2B O 1.8142(3) -0.01711(6) 0.7195(2)
C1B C 1.9017(6) -0.12375(9) 0.2834(3)
H1B H 1.7552 -0.1187 0.1687
H2B H 2.1044 -0.1192 0.2693
H3B H 1.8810 -0.1588 0.3269
C2B C 1.8476(5) -0.08490(9) 0.4139(3)
C3B C 2.0408(5) -0.08379(8) 0.5882(3)
C4B C 2.0134(5) -0.05162(8) 0.7297(3)
C5B C 2.2335(5) -0.05733(9) 0.9088(3)
H4B H 2.1723 -0.0352 0.9949
H5B H 2.2383 -0.0935 0.9472
H6B H 2.4333 -0.0470 0.9008
C6B C 2.2829(5) -0.12021(8) 0.6273(3)
N1B N 2.4795(5) -0.14839(8) 0.6607(3)
Ag1B Ag 2.80914(4) -0.20978(2) 0.76076(2)
N2B N 3.2192(5) -0.21589(7) 1.1113(3)
O3B O 2.9815(4) -0.24306(7) 1.0536(2)
O4B O 3.3815(4) -0.22340(7) 1.2630(2)
O5B O 3.2756(4) -0.18217(6) 1.0104(2)
Ag1A Ag 2.80914(4) -0.29022(2) 1.26076(2)
Ag1A_2 Ag 3.80914(4) -0.29022(2) 1.26076(2)
Ag1C Ag -0.80914(4) 0.29022(2) -0.26076(2)
Ag1C_2 Ag 0.19086(4) 0.29022(2) -0.26076(2)
O3A O 2.9815(4) -0.25694(7) 0.5536(2)
O3C O 0.0185(4) 0.25694(7) 0.4464(2)
O4A O 2.3815(4) -0.27660(7) 0.7630(2)
O4C O 0.6185(4) 0.27660(7) 0.2370(2)
loop_
_geom_bond_atom_site_label_1
_geom_bond_atom_site_label_2
_geom_bond_site_symmetry_1
_geom_bond_site_symmetry_2
Pd1 O1 1_555 1_555
O1 C2 1_555 1_555
O2 Pd1 1_555 1_555
C1 H1 1_555 1_555
H2 C1 1_555 1_555
H3 C1 1_555 1_555
C2 C1 1_555 1_555
C3 C2 1_555 1_555
C4 O2 1_555 1_555
C5 C4 1_555 1_555
H4 C5 1_555 1_555
H5 C5 1_555 1_555
H6 C5 1_555 1_555
C6 C3 1_555 1_555
N1 C6 1_555 1_555
Ag1 N1 1_555 1_555
N2 O3 1_555 1_555
O3 Ag1 1_555 1_555
O4 N2 1_555 1_555
O5 Ag1 1_555 1_555
O1B Pd1 1_555 1_555
O2B Pd1 1_555 1_555
C1B H1B 1_555 1_555
H2B C1B 1_555 1_555
H3B C1B 1_555 1_555
C2B O1B 1_555 1_555
C3B C2B 1_555 1_555
C4B O2B 1_555 1_555
C5B C4B 1_555 1_555
H4B C5B 1_555 1_555
H5B C5B 1_555 1_555
H6B C5B 1_555 1_555
C6B C3B 1_555 1_555
N1B C6B 1_555 1_555
Ag1B N1B 1_555 1_555
N2B O3B 1_555 1_555
O3B Ag1B 1_555 1_555
O4B N2B 1_555 1_555
O5B Ag1B 1_555 1_555
Ag1A O3B 1_555 1_555
Ag1A_2 O4B 1_555 1_555
Ag1C O4 1_555 1_555
Ag1C_2 O3 1_555 1_555
O3A Ag1B 1_555 1_555
O3C Ag1 1_555 1_555
O4A Ag1B 1_555 1_555
O4C Ag1 1_555 1_555
C3 C4 1_555 1_555
N2 O5 1_555 1_555
C1B C2B 1_555 1_555
C3B C4B 1_555 1_555
N2B O5B 1_555 1_555

#END
