
#######################################################################
#
#                 Cambridge Crystallographic Data Centre
#                                CCDC 
#
#######################################################################
#
# If this CIF has been generated from an entry in the Cambridge 
# Structural Database, then it will include bibliographic, chemical, 
# crystal, experimental, refinement or atomic coordinate data resulting 
# from the CCDC's data processing and validation procedures.
#
#######################################################################

data_LUJLIL
_symmetry_cell_setting           monoclinic
_symmetry_space_group_name_H-M   'P 21/n'
_symmetry_Int_Tables_number      14
_space_group_name_Hall           '-P 2yn'
loop_
_symmetry_equiv_pos_site_id
_symmetry_equiv_pos_as_xyz
1 x,y,z
2 1/2-x,1/2+y,1/2-z
3 -x,-y,-z
4 1/2+x,1/2-y,1/2+z
_cell_length_a                   9.514(2)
_cell_length_b                   10.940(3)
_cell_length_c                   14.296(4)
_cell_angle_alpha                90
_cell_angle_beta                 100.332(3)
_cell_angle_gamma                90
_cell_volume                     1463.85
loop_
_atom_site_label
_atom_site_type_symbol
_atom_site_fract_x
_atom_site_fract_y
_atom_site_fract_z
Ag1 Ag 0.080940(16) -0.647650(13) -0.002200(10)
C1 C 0.13030(19) -0.34180(15) -0.38649(13)
C2 C 0.18807(18) -0.37372(16) -0.46790(13)
C3 C 0.16115(19) -0.29694(17) -0.54831(13)
H1 H 0.2010 -0.3164 -0.6028
C4 C 0.0767(2) -0.19276(18) -0.54862(14)
H2 H 0.0589 -0.1418 -0.6033
C5 C 0.0184(2) -0.16334(17) -0.46881(15)
H3 H -0.0404 -0.0931 -0.4695
C6 C 0.0461(2) -0.23637(17) -0.38829(14)
H4 H 0.0075 -0.2147 -0.3337
N1 N 0.13924(16) -0.55841(14) -0.13411(11)
C7 C 0.1013(2) -0.60686(17) -0.22198(14)
H5 H 0.0708 -0.6897 -0.2270
C8 C 0.10442(19) -0.54258(16) -0.30513(13)
H6 H 0.0799 -0.5818 -0.3651
C9 C 0.14390(18) -0.41972(16) -0.29969(13)
C10 C 0.1851(2) -0.37002(17) -0.20871(14)
H7 H 0.2151 -0.2872 -0.2015
C11 C 0.1823(2) -0.44165(17) -0.12911(13)
H8 H 0.2123 -0.4063 -0.0681
N2 N 0.43862(16) -0.69791(15) -0.48390(11)
C12 C 0.46684(19) -0.62293(17) -0.40769(13)
H9 H 0.5434 -0.6432 -0.3578
C13 C 0.38902(19) -0.51796(16) -0.39922(12)
H10 H 0.4121 -0.4680 -0.3443
C14 C 0.27573(19) -0.48571(16) -0.47227(12)
C15 C 0.24884(19) -0.56220(17) -0.55181(13)
H11 H 0.1749 -0.5427 -0.6036
C16 C 0.3304(2) -0.66652(17) -0.55480(13)
H12 H 0.3095 -0.7182 -0.6089
N3 N 0.21438(19) -0.50238(17) 0.17497(12)
O1 O 0.18709(16) -0.47443(14) 0.08768(10)
O2 O 0.1839(2) -0.60612(17) 0.20007(13)
O3 O 0.2661(3) -0.4229(2) 0.23311(13)
N2C N -0.06138(16) -0.80209(15) 0.01610(11)
Ag1C Ag 0.580940(16) -0.852350(13) -0.502200(10)
loop_
_geom_bond_atom_site_label_1
_geom_bond_atom_site_label_2
_geom_bond_site_symmetry_1
_geom_bond_site_symmetry_2
Ag1 N1 1_555 1_555
C1 C2 1_555 1_555
C2 C3 1_555 1_555
C3 H1 1_555 1_555
C4 C3 1_555 1_555
H2 C4 1_555 1_555
C5 C4 1_555 1_555
H3 C5 1_555 1_555
C6 C1 1_555 1_555
H4 C6 1_555 1_555
N1 C7 1_555 1_555
C7 H5 1_555 1_555
C8 C7 1_555 1_555
H6 C8 1_555 1_555
C9 C1 1_555 1_555
C10 C9 1_555 1_555
H7 C10 1_555 1_555
C11 N1 1_555 1_555
H8 C11 1_555 1_555
N2 C12 1_555 1_555
C12 H9 1_555 1_555
C13 C12 1_555 1_555
H10 C13 1_555 1_555
C14 C2 1_555 1_555
C15 C14 1_555 1_555
H11 C15 1_555 1_555
C16 N2 1_555 1_555
H12 C16 1_555 1_555
N3 O1 1_555 1_555
O1 Ag1 1_555 1_555
O2 N3 1_555 1_555
O3 N3 1_555 1_555
N2C Ag1 1_555 1_555
Ag1C N2 1_555 1_555
C5 C6 1_555 1_555
C8 C9 1_555 1_555
C10 C11 1_555 1_555
C13 C14 1_555 1_555
C15 C16 1_555 1_555

#END
