
#######################################################################
#
#                 Cambridge Crystallographic Data Centre
#                                CCDC 
#
#######################################################################
#
# If this CIF has been generated from an entry in the Cambridge 
# Structural Database, then it will include bibliographic, chemical, 
# crystal, experimental, refinement or atomic coordinate data resulting 
# from the CCDC's data processing and validation procedures.
#
#######################################################################

data_LUJPUB
_symmetry_cell_setting           triclinic
_symmetry_space_group_name_H-M   'P -1'
_symmetry_Int_Tables_number      2
_space_group_name_Hall           '-P 1'
loop_
_symmetry_equiv_pos_site_id
_symmetry_equiv_pos_as_xyz
1 x,y,z
2 -x,-y,-z
_cell_length_a                   9.2611(3)
_cell_length_b                   11.0783(4)
_cell_length_c                   21.3992(8)
_cell_angle_alpha                101.765(1)
_cell_angle_beta                 36.562(1)
_cell_angle_gamma                98.932(1)
_cell_volume                     1280.23
loop_
_atom_site_label
_atom_site_type_symbol
_atom_site_fract_x
_atom_site_fract_y
_atom_site_fract_z
Cl1 Cl 0.1545(2) 0.52269(12) 0.50836(12)
C1 C 0.3474(6) 0.5095(3) 0.5037(3)
C2 C 0.2708(6) 0.5620(3) 0.5923(3)
C3 C 0.0401(7) 0.6212(3) 0.6881(4)
C4 C -0.0237(9) 0.6666(4) 0.7715(4)
C5 C 0.5689(6) 0.4479(3) 0.4119(3)
C6 C 0.6462(9) 0.3948(4) 0.3214(4)
C7 C 0.1345(11) 0.6598(4) 0.7669(4)
H1 H -0.06745 0.62843 0.69295
H2 H -0.17587 0.70323 0.83334
H3 H 0.54232 0.39808 0.32366
H4 H 0.08803 0.69299 0.82484
C6A C 0.3538(9) 0.6052(4) 0.6786(4)
C5A C 0.4311(6) 0.5521(3) 0.5881(3)
C1A C 0.6526(6) 0.4905(3) 0.4963(3)
Cl1A Cl 0.8455(2) 0.47731(12) 0.49164(12)
C2A C 0.7292(6) 0.4380(3) 0.4077(3)
C3A C 0.9599(7) 0.3788(3) 0.3119(4)
C4A C 1.0237(9) 0.3334(4) 0.2285(4)
C7A C 0.8655(11) 0.3402(4) 0.2331(4)
H4A H 0.91197 0.30701 0.17516
H2A H 1.17587 0.29677 0.16666
H1A H 1.06745 0.37157 0.30705
H3A H 0.45768 0.60192 0.67634
Ni1 Ni 1.00000 0.00000 0.00000
Ni2 Ni 1.00000 0.50000 0.00000
S1 S 0.60411(10) 0.39102(5) 0.15306(4)
S2 S 0.63278(10) -0.12846(5) 0.09046(5)
O1 O 0.7798(3) 0.1423(2) 0.50903(14)
O2 O 1.1677(4) 0.1002(3) 0.38778(17)
O3 O 0.8866(3) 0.8215(2) 0.47009(15)
O4 O 1.2563(3) 0.7508(2) 0.35678(15)
N1 N 0.7772(3) 0.15041(16) 0.08628(14)
N2 N 0.7921(3) -0.36075(15) 0.05083(14)
N3 N 0.9364(3) -0.01179(16) 0.11886(14)
N4 N 0.9938(3) 0.58812(15) 0.09964(14)
C8 C 0.7038(3) 0.24925(17) 0.11430(15)
C9 C 0.7266(3) -0.26491(16) 0.06711(15)
C10 C 0.7248(4) 0.0260(2) 0.22065(18)
C11 C 0.6905(4) 0.0460(2) 0.29801(18)
C12 C 0.8804(4) 0.0267(2) 0.27135(17)
C13 C 1.0962(4) -0.0204(2) 0.16662(18)
C14 C 1.1156(4) -0.0375(2) 0.09472(18)
C15 C 0.8514(4) 0.0606(2) 0.35094(19)
C16 C 1.0214(5) 0.0601(3) 0.3346(2)
C17 C 0.9811(5) 0.1040(3) 0.4175(2)
C18 C 0.7910(4) 0.6426(2) 0.19777(17)
C19 C 0.7727(4) 0.6898(2) 0.26885(18)
C20 C 0.9686(4) 0.68114(19) 0.24057(17)
C21 C 1.1808(4) 0.6281(2) 0.13772(18)
C22 C 1.1851(4) 0.5836(2) 0.07131(18)
C23 C 0.9460(4) 0.7271(2) 0.31755(18)
C24 C 1.1067(4) 0.7103(2) 0.30519(18)
C25 C 1.0757(4) 0.7648(2) 0.38398(18)
H5 H 0.59462 0.03958 0.24042
H6 H 0.53982 0.07232 0.36791
H7 H 1.22574 -0.04009 0.14566
H8 H 1.26133 -0.06879 0.02515
H9 H 0.69678 0.08485 0.42000
H10 H 1.17486 0.03053 0.26738
H11 H 0.65693 0.64887 0.21879
H12 H 0.62900 0.72759 0.33586
H13 H 1.31890 0.62269 0.11400
H14 H 1.32884 0.54843 0.00290
H15 H 0.80618 0.77194 0.38070
H16 H 1.24426 0.66222 0.24435
H17 H 1.13080 0.12591 0.43812
H18 H 1.22513 0.78375 0.40467
S2A S 1.36722(10) 0.12846(5) -0.09046(5)
N2A N 1.2079(3) 0.36075(15) -0.05083(14)
C9A C 1.2734(3) 0.26491(16) -0.06711(15)
S1A S 1.39589(10) -0.39102(5) -0.15306(4)
N1A N 1.2228(3) -0.15041(16) -0.08628(14)
C8A C 1.2962(3) -0.24925(17) -0.11430(15)
O1A O 1.2202(3) -0.1423(2) -0.50903(14)
O2A O 0.8323(4) -0.1002(3) -0.38778(17)
N3A N 1.0636(3) 0.01179(16) -0.11886(14)
C10A C 1.2752(4) -0.0260(2) -0.22065(18)
C11A C 1.3095(4) -0.0460(2) -0.29801(18)
C12A C 1.1196(4) -0.0267(2) -0.27135(17)
C13A C 0.9038(4) 0.0204(2) -0.16662(18)
C14A C 0.8844(4) 0.0375(2) -0.09472(18)
C15A C 1.1486(4) -0.0606(2) -0.35094(19)
C16A C 0.9786(5) -0.0601(3) -0.3346(2)
C17A C 1.0189(5) -0.1040(3) -0.4175(2)
H5A H 1.40538 -0.03958 -0.24042
H6A H 1.46018 -0.07232 -0.36791
H7A H 0.77426 0.04009 -0.14566
H8A H 0.73867 0.06879 -0.02515
H9A H 1.30322 -0.08485 -0.42000
H10A H 0.82514 -0.03053 -0.26738
H17A H 0.86920 -0.12591 -0.43812
O3A O 1.1134(3) 0.1785(2) -0.47009(15)
O4A O 0.7437(3) 0.2492(2) -0.35678(15)
N4A N 1.0062(3) 0.41188(15) -0.09964(14)
C18A C 1.2090(4) 0.3574(2) -0.19777(17)
C19A C 1.2273(4) 0.3102(2) -0.26885(18)
C20A C 1.0314(4) 0.31886(19) -0.24057(17)
C21A C 0.8192(4) 0.3719(2) -0.13772(18)
C22A C 0.8149(4) 0.4164(2) -0.07131(18)
C23A C 1.0540(4) 0.2729(2) -0.31755(18)
C24A C 0.8933(4) 0.2897(2) -0.30519(18)
C25A C 0.9243(4) 0.2352(2) -0.38398(18)
H11A H 1.34307 0.35113 -0.21879
H12A H 1.37100 0.27241 -0.33586
H13A H 0.68110 0.37731 -0.11400
H14A H 0.67116 0.45157 -0.00290
H15A H 1.19382 0.22806 -0.38070
H16A H 0.75574 0.33778 -0.24435
H18A H 0.77487 0.21625 -0.40467
S1A_2 S 1.39589(10) 0.60898(5) -0.15306(4)
N2_2 N 0.7921(3) 0.63925(15) 0.05083(14)
Ni2_2 Ni 1.00000 -0.50000 0.00000
loop_
_geom_bond_atom_site_label_1
_geom_bond_atom_site_label_2
_geom_bond_site_symmetry_1
_geom_bond_site_symmetry_2
Cl1 C1 1_555 1_555
C1 C2 1_555 1_555
C2 C3 1_555 1_555
C3 C4 1_555 1_555
C4 C7 1_555 1_555
C5 C1 1_555 1_555
C6 C5 1_555 1_555
C7 H4 1_555 1_555
Ni1 S2 1_555 1_555
Ni2 S1 1_555 1_555
S1 C8 1_555 1_555
S2 C9 1_555 1_555
O1 C17 1_555 1_555
O2 C17 1_555 1_555
O3 C25 1_555 1_555
O4 C25 1_555 1_555
N1 Ni1 1_555 1_555
N2 C9 1_555 1_555
N3 Ni1 1_555 1_555
N4 Ni2 1_555 1_555
C8 N1 1_555 1_555
C10 N3 1_555 1_555
C11 C10 1_555 1_555
C12 C11 1_555 1_555
C13 C12 1_555 1_555
C14 N3 1_555 1_555
C15 C12 1_555 1_555
C16 C15 1_555 1_555
C17 C16 1_555 1_555
C18 N4 1_555 1_555
C19 C18 1_555 1_555
C20 C19 1_555 1_555
C21 C20 1_555 1_555
C22 N4 1_555 1_555
C23 C20 1_555 1_555
C24 C23 1_555 1_555
C25 C24 1_555 1_555
H1 C3 1_555 1_555
H2 C4 1_555 1_555
H3 C6 1_555 1_555
H5 C10 1_555 1_555
H6 C11 1_555 1_555
H7 C13 1_555 1_555
H8 C14 1_555 1_555
H9 C15 1_555 1_555
H10 C16 1_555 1_555
H11 C18 1_555 1_555
H12 C19 1_555 1_555
H13 C21 1_555 1_555
H14 C22 1_555 1_555
H15 C23 1_555 1_555
H16 C24 1_555 1_555
H17 O2 1_555 1_555
H18 O4 1_555 1_555
C6A C7 1_555 1_555
C5A C2 1_555 1_555
C1A C5A 1_555 1_555
Cl1A C1A 1_555 1_555
C2A C5 1_555 1_555
C3A C2A 1_555 1_555
C4A C3A 1_555 1_555
C7A C6 1_555 1_555
H4A C7A 1_555 1_555
H2A C4A 1_555 1_555
H1A C3A 1_555 1_555
H3A C6A 1_555 1_555
S2A Ni1 1_555 1_555
N2A Ni2 1_555 1_555
C9A S2A 1_555 1_555
S1A C8A 1_555 1_555
N1A Ni1 1_555 1_555
C8A N1A 1_555 1_555
O1A C17A 1_555 1_555
O2A C17A 1_555 1_555
N3A Ni1 1_555 1_555
C10A N3A 1_555 1_555
C11A C10A 1_555 1_555
C12A C11A 1_555 1_555
C13A C12A 1_555 1_555
C14A N3A 1_555 1_555
C15A C12A 1_555 1_555
C16A C15A 1_555 1_555
C17A C16A 1_555 1_555
H5A C10A 1_555 1_555
H6A C11A 1_555 1_555
H7A C13A 1_555 1_555
H8A C14A 1_555 1_555
H9A C15A 1_555 1_555
H10A C16A 1_555 1_555
H17A O2A 1_555 1_555
O3A C25A 1_555 1_555
O4A C25A 1_555 1_555
N4A Ni2 1_555 1_555
C18A N4A 1_555 1_555
C19A C18A 1_555 1_555
C20A C19A 1_555 1_555
C21A C20A 1_555 1_555
C22A N4A 1_555 1_555
C23A C20A 1_555 1_555
C24A C23A 1_555 1_555
C25A C24A 1_555 1_555
H11A C18A 1_555 1_555
H12A C19A 1_555 1_555
H13A C21A 1_555 1_555
H14A C22A 1_555 1_555
H15A C23A 1_555 1_555
H16A C24A 1_555 1_555
H18A O4A 1_555 1_555
S1A_2 Ni2 1_555 1_555
N2_2 Ni2 1_555 1_555
Ni2_2 N2 1_555 1_555
C13 C14 1_555 1_555
C21 C22 1_555 1_555
C6A C5A 1_555 1_555
C1A C2A 1_555 1_555
C4A C7A 1_555 1_555
N2A C9A 1_555 1_555
S1A Ni2_2 1_555 1_555
C13A C14A 1_555 1_555
C21A C22A 1_555 1_555

#END
