
#######################################################################
#
#                 Cambridge Crystallographic Data Centre
#                                CCDC 
#
#######################################################################
#
# If this CIF has been generated from an entry in the Cambridge 
# Structural Database, then it will include bibliographic, chemical, 
# crystal, experimental, refinement or atomic coordinate data resulting 
# from the CCDC's data processing and validation procedures.
#
#######################################################################

data_LUJPOV
_symmetry_cell_setting           triclinic
_symmetry_space_group_name_H-M   'P -1'
_symmetry_Int_Tables_number      2
_space_group_name_Hall           '-P 1'
loop_
_symmetry_equiv_pos_site_id
_symmetry_equiv_pos_as_xyz
1 x,y,z
2 -x,-y,-z
_cell_length_a                   7.5146(5)
_cell_length_b                   11.107(1)
_cell_length_c                   16.504(1)
_cell_angle_alpha                102.267(4)
_cell_angle_beta                 52.054(3)
_cell_angle_gamma                96.638(4)
_cell_volume                     1061.28
loop_
_atom_site_label
_atom_site_type_symbol
_atom_site_fract_x
_atom_site_fract_y
_atom_site_fract_z
Ni1 Ni 1.00000 0.00000 0.00000
Ni2 Ni 1.00000 0.50000 0.00000
S1 S 0.63808(10) 0.39418(5) 0.12527(5)
S2 S 1.34175(10) 0.12803(5) -0.05324(6)
O1 O 1.2261(3) 0.7551(2) 0.35398(17)
O2 O 0.8656(4) 0.8172(2) 0.45473(16)
O3 O 0.7249(3) 0.1292(2) 0.50371(15)
O4 O 1.0931(4) 0.0828(3) 0.39999(16)
N1 N 0.7942(3) 0.15134(16) 0.06678(15)
N2 N 1.1925(3) 0.36034(17) -0.02938(16)
N3 N 1.0038(3) 0.59064(17) 0.12542(15)
N4 N 0.9392(3) -0.00049(18) 0.14414(15)
C1 C 0.7282(3) 0.25116(19) 0.09098(17)
C2 C 1.2536(3) 0.26444(18) -0.03856(17)
C3 C 1.1879(4) 0.5810(2) 0.1184(2)
C4 C 1.2050(4) 0.6342(2) 0.1962(2)
C5 C 1.0239(4) 0.7011(2) 0.28661(18)
C6 C 0.8299(4) 0.7112(2) 0.2958(2)
C7 C 0.8276(4) 0.6557(2) 0.21387(19)
C8 C 1.0394(4) 0.7610(3) 0.3709(2)
C9 C 0.7455(4) 0.0406(2) 0.23776(19)
C10 C 0.7226(4) 0.0658(3) 0.32891(19)
C11 C 0.9082(4) 0.0494(2) 0.32410(19)
C12 C 1.1046(4) 0.0011(3) 0.2291(2)
C13 C 1.1125(4) -0.0229(2) 0.14207(19)
C14 C 0.9071(5) 0.0890(3) 0.4162(2)
H1 H 1.31109 0.53595 0.05765
H2 H 1.33700 0.62521 0.18803
H3 H 0.70389 0.75462 0.35629
H4 H 0.69790 0.66356 0.21986
H5 H 0.62057 0.05252 0.24103
H6 H 0.58503 0.09325 0.39244
H7 H 1.22988 -0.01499 0.22424
H8 H 1.24495 -0.05636 0.07854
H9 H 1.21557 0.79113 0.40561
H10 H 1.07580 0.10628 0.45505
S2A S 0.65825(10) -0.12803(5) 0.05324(6)
N2A N 0.8075(3) -0.36034(17) 0.02938(16)
C2A C 0.7464(3) -0.26444(18) 0.03856(17)
S1A S 1.36192(10) -0.39418(5) -0.12527(5)
N1A N 1.2058(3) -0.15134(16) -0.06678(15)
C1A C 1.2718(3) -0.25116(19) -0.09098(17)
O3A O 1.2751(3) -0.1292(2) -0.50371(15)
O4A O 0.9069(4) -0.0828(3) -0.39999(16)
N4A N 1.0608(3) 0.00049(18) -0.14414(15)
C9A C 1.2545(4) -0.0406(2) -0.23776(19)
C10A C 1.2774(4) -0.0658(3) -0.32891(19)
C11A C 1.0918(4) -0.0494(2) -0.32410(19)
C12A C 0.8954(4) -0.0011(3) -0.2291(2)
C13A C 0.8875(4) 0.0229(2) -0.14207(19)
C14A C 1.0929(5) -0.0890(3) -0.4162(2)
H5A H 1.37943 -0.05252 -0.24103
H6A H 1.41497 -0.09325 -0.39244
H7A H 0.77012 0.01499 -0.22424
H8A H 0.75505 0.05636 -0.07854
H10A H 0.92420 -0.10628 -0.45505
O1A O 0.7739(3) 0.2449(2) -0.35398(17)
O2A O 1.1344(4) 0.1828(2) -0.45473(16)
N3A N 0.9962(3) 0.40936(17) -0.12542(15)
C3A C 0.8121(4) 0.4190(2) -0.1184(2)
C4A C 0.7950(4) 0.3658(2) -0.1962(2)
C5A C 0.9761(4) 0.2989(2) -0.28661(18)
C6A C 1.1701(4) 0.2888(2) -0.2958(2)
C7A C 1.1724(4) 0.3443(2) -0.21387(19)
C8A C 0.9606(4) 0.2390(3) -0.3709(2)
H1A H 0.68891 0.46405 -0.05765
H2A H 0.66300 0.37479 -0.18803
H3A H 1.29611 0.24538 -0.35629
H4A H 1.30210 0.33644 -0.21986
H9A H 0.78443 0.20887 -0.40561
S1A_2 S 1.36192(10) 0.60582(5) -0.12527(5)
N2A_2 N 0.8075(3) 0.63966(17) 0.02938(16)
Ni2_2 Ni 1.00000 -0.50000 0.00000
C15 C 0.9816(11) 0.3942(7) 0.3816(6)
C16 C 1.0193(9) 0.3512(5) 0.2907(5)
C17 C 0.8590(10) 0.3609(4) 0.2804(4)
C18 C 0.6579(9) 0.4182(4) 0.3611(4)
C19 C 0.6084(6) 0.4682(4) 0.4571(3)
C20 C 0.7727(10) 0.4536(6) 0.4673(5)
H11 H 1.09205 0.38528 0.38916
H12 H 1.15786 0.31436 0.23404
H13 H 0.88525 0.32789 0.21716
H14 H 0.55008 0.42388 0.35120
H15 H 0.74660 0.48303 0.53096
C19A C 0.3916(6) 0.5318(4) 0.5429(3)
C18A C 0.3421(9) 0.5818(4) 0.6389(4)
C17A C 0.1410(10) 0.6391(4) 0.7196(4)
C16A C -0.0193(9) 0.6488(5) 0.7093(5)
C15A C 0.0184(11) 0.6058(7) 0.6184(6)
C20A C 0.2273(10) 0.5464(6) 0.5327(5)
H15A H 0.25340 0.51697 0.46904
H11A H -0.09205 0.61472 0.61084
H12A H -0.15786 0.68564 0.76596
H13A H 0.11475 0.67211 0.78284
H14A H 0.44992 0.57612 0.64880
loop_
_geom_bond_atom_site_label_1
_geom_bond_atom_site_label_2
_geom_bond_site_symmetry_1
_geom_bond_site_symmetry_2
Ni1 S2 1_555 1_555
Ni2 S1 1_555 1_555
S1 C1 1_555 1_555
S2 C2 1_555 1_555
O1 C8 1_555 1_555
O2 C8 1_555 1_555
O3 C14 1_555 1_555
O4 C14 1_555 1_555
N1 Ni1 1_555 1_555
N2 Ni2 1_555 1_555
N3 Ni2 1_555 1_555
N4 Ni1 1_555 1_555
C1 N1 1_555 1_555
C2 N2 1_555 1_555
C3 N3 1_555 1_555
C4 C3 1_555 1_555
C5 C4 1_555 1_555
C6 C5 1_555 1_555
C7 N3 1_555 1_555
C8 C5 1_555 1_555
C9 N4 1_555 1_555
C10 C9 1_555 1_555
C11 C10 1_555 1_555
C12 C11 1_555 1_555
C13 N4 1_555 1_555
C14 C11 1_555 1_555
C15 C16 1_555 1_555
C16 C17 1_555 1_555
C17 C18 1_555 1_555
C18 C19 1_555 1_555
C19 C20 1_555 1_555
C20 C15 1_555 1_555
H1 C3 1_555 1_555
H2 C4 1_555 1_555
H3 C6 1_555 1_555
H4 C7 1_555 1_555
H5 C9 1_555 1_555
H6 C10 1_555 1_555
H7 C12 1_555 1_555
H8 C13 1_555 1_555
H9 O1 1_555 1_555
H10 O4 1_555 1_555
H11 C15 1_555 1_555
H12 C16 1_555 1_555
H13 C17 1_555 1_555
H14 C18 1_555 1_555
H15 C20 1_555 1_555
C19A C19 1_555 1_555
C18A C19A 1_555 1_555
C17A C18A 1_555 1_555
C16A C17A 1_555 1_555
C15A C16A 1_555 1_555
C20A C19A 1_555 1_555
H15A C20A 1_555 1_555
H11A C15A 1_555 1_555
H12A C16A 1_555 1_555
H13A C17A 1_555 1_555
H14A C18A 1_555 1_555
S2A Ni1 1_555 1_555
N2A C2A 1_555 1_555
C2A S2A 1_555 1_555
S1A C1A 1_555 1_555
N1A Ni1 1_555 1_555
C1A N1A 1_555 1_555
O3A C14A 1_555 1_555
O4A C14A 1_555 1_555
N4A Ni1 1_555 1_555
C9A N4A 1_555 1_555
C10A C9A 1_555 1_555
C11A C10A 1_555 1_555
C12A C11A 1_555 1_555
C13A N4A 1_555 1_555
C14A C11A 1_555 1_555
H5A C9A 1_555 1_555
H6A C10A 1_555 1_555
H7A C12A 1_555 1_555
H8A C13A 1_555 1_555
H10A O4A 1_555 1_555
O1A C8A 1_555 1_555
O2A C8A 1_555 1_555
N3A Ni2 1_555 1_555
C3A N3A 1_555 1_555
C4A C3A 1_555 1_555
C5A C4A 1_555 1_555
C6A C5A 1_555 1_555
C7A N3A 1_555 1_555
C8A C5A 1_555 1_555
H1A C3A 1_555 1_555
H2A C4A 1_555 1_555
H3A C6A 1_555 1_555
H4A C7A 1_555 1_555
H9A O1A 1_555 1_555
S1A_2 Ni2 1_555 1_555
N2A_2 Ni2 1_555 1_555
Ni2_2 N2A 1_555 1_555
C6 C7 1_555 1_555
C12 C13 1_555 1_555
C15A C20A 1_555 1_555
S1A Ni2_2 1_555 1_555
C12A C13A 1_555 1_555
C6A C7A 1_555 1_555

#END
