
#######################################################################
#
#                 Cambridge Crystallographic Data Centre
#                                CCDC 
#
#######################################################################
#
# If this CIF has been generated from an entry in the Cambridge 
# Structural Database, then it will include bibliographic, chemical, 
# crystal, experimental, refinement or atomic coordinate data resulting 
# from the CCDC's data processing and validation procedures.
#
#######################################################################

data_LUJQEN
_symmetry_cell_setting           triclinic
_symmetry_space_group_name_H-M   'P -1'
_symmetry_Int_Tables_number      2
_space_group_name_Hall           '-P 1'
loop_
_symmetry_equiv_pos_site_id
_symmetry_equiv_pos_as_xyz
1 x,y,z
2 -x,-y,-z
_cell_length_a                   9.6710(7)
_cell_length_b                   10.2810(7)
_cell_length_c                   11.1449(7)
_cell_angle_alpha                114.761(4)
_cell_angle_beta                 92.333(4)
_cell_angle_gamma                93.158(4)
_cell_volume                     1002.22
loop_
_atom_site_label
_atom_site_type_symbol
_atom_site_fract_x
_atom_site_fract_y
_atom_site_fract_z
Ni1 Ni 0.27492(6) 1.24897(6) 0.17835(5)
Na1 Na 0.43278(19) 1.50368(19) 0.70519(17)
Na2 Na 0.22948(18) 0.88522(19) 0.12012(17)
O1 O 0.3319(3) 1.1380(3) 0.2839(3)
O2 O 0.3698(3) 1.3194(3) 0.4869(3)
O3 O 0.6158(3) 1.0430(3) 0.2057(3)
O4 O 0.4744(3) 0.8437(3) 0.1355(2)
O5 O 0.1742(3) 0.6675(3) 0.3883(3)
O6 O 0.1796(4) 0.7405(3) 0.2267(3)
O7 O -0.0141(3) 0.9499(3) 0.1514(3)
O8 O -0.1421(4) 0.7744(4) 0.1710(3)
O9 O 0.2241(3) 1.3630(3) 0.0758(3)
H1 H 0.2073 1.3134 -0.0052
H2 H 0.1903 1.4405 0.1094
O10 O 0.0720(3) 1.2336(3) 0.2274(3)
H3 H 0.0483 1.1496 0.2207
H4 H 0.0766 1.2930 0.3078
O11 O 0.3289(3) 1.4453(3) 0.3299(2)
H5 H 0.3389 1.4284 0.3989
H6 H 0.2789 1.5149 0.3436
O12 O 0.4806(3) 1.2426(3) 0.1228(2)
H7 H 0.5224 1.1802 0.1437
H8 H 0.4935 1.2199 0.0407
O13 O 0.2287(3) 1.0526(3) 0.0143(2)
H9 H 0.2833 1.0210 -0.0473
H10 H 0.1522 1.0662 -0.0201
O14 O 0.5479(4) 1.4348(3) 0.8661(3)
H11 H 0.5383 1.3494 0.8626
H12 H 0.6312 1.4667 0.8880
O15 O 0.2117(3) 1.4286(3) 0.7389(3)
H13 H 0.1765 1.3674 0.7682
H14 H 0.1623 1.4095 0.6656
O16 O 0.3032(4) 1.6636(3) 0.6362(3)
H15 H 0.3253 1.7538 0.6814
H16 H 0.3488 1.6346 0.5675
O17 O 0.1449(4) 0.7022(4) -0.0833(4)
H17 H 0.1821 0.6271 -0.1221
H18 H 0.0854 0.7205 -0.1316
C1 C 0.4281(4) 1.1099(4) 0.5822(4)
H23 H 0.3788 1.1847 0.6375
C2 C 0.4419(4) 1.0917(4) 0.4525(4)
C3 C 0.5149(4) 0.9796(4) 0.3683(4)
C4 C 0.3764(4) 1.1917(5) 0.4050(4)
C5 C 0.5369(5) 0.9545(5) 0.2259(4)
C6 C 0.0889(4) 0.9385(5) 0.5576(4)
H24 H 0.1482 0.8973 0.5970
C7 C 0.0691(4) 0.8811(5) 0.4199(4)
C8 C -0.0203(4) 0.9426(4) 0.3637(4)
C9 C 0.1471(5) 0.7529(5) 0.3375(5)
C10 C -0.0607(5) 0.8823(5) 0.2164(4)
Ni1A Ni 0.72508(6) 0.75103(6) 0.82165(5)
Ni1A_2 Ni 0.72508(6) 1.75103(6) 0.82165(5)
Na1A Na 0.56722(19) 0.49632(19) 0.29481(17)
Na1A_2 Na 0.56722(19) 1.49632(19) 0.29481(17)
Na2A Na 0.77052(18) 1.11478(19) 0.87988(17)
Na2A_2 Na -0.22948(18) 1.11478(19) 0.87988(17)
O1A O 0.6681(3) 0.8620(3) 0.7161(3)
O2A O 0.6302(3) 0.6806(3) 0.5131(3)
O3A O 0.3842(3) 0.9570(3) 0.7943(3)
O4A O 0.5256(3) 1.1563(3) 0.8645(2)
O5A O -0.1742(3) 1.3325(3) 0.6117(3)
O6A O -0.1796(4) 1.2595(3) 0.7733(3)
O6A_2 O 0.8204(4) 1.2595(3) 0.7733(3)
O7A O 0.0141(3) 1.0501(3) 0.8486(3)
O7A_2 O 1.0141(3) 1.0501(3) 0.8486(3)
O8A O 0.1421(4) 1.2256(4) 0.8290(3)
O9A O 0.7759(3) 0.6370(3) 0.9242(3)
H1A H 0.7927 0.6866 1.0052
H2A H 0.8097 0.5595 0.8906
O10A O 0.9280(3) 0.7664(3) 0.7726(3)
H3A H 0.9517 0.8504 0.7793
H4A H 0.9234 0.7070 0.6922
O11A O 0.6711(3) 1.5547(3) 0.6701(2)
O11A_2 O 0.6711(3) 0.5547(3) 0.6701(2)
O11_2 O 0.3289(3) 0.4453(3) 0.3299(2)
H5A H 0.6611 1.5716 0.6011
H5A_2 H 0.6611 0.5716 0.6011
H5_2 H 0.3389 0.4284 0.3989
H6A H 0.7211 1.4851 0.6564
H6A_2 H 0.7211 0.4851 0.6564
H6_2 H 0.2789 0.5149 0.3436
O12A O 0.5194(3) 1.7574(3) 0.8772(2)
O12A_2 O 0.5194(3) 0.7574(3) 0.8772(2)
O12_2 O 0.4806(3) 0.2426(3) 0.1228(2)
H7A H 0.4776 1.8198 0.8563
H7A_2 H 0.4776 0.8198 0.8563
H7_2 H 0.5224 0.1802 0.1437
H8A H 0.5065 1.7801 0.9593
H8A_2 H 0.5065 0.7801 0.9593
H8_2 H 0.4935 0.2199 0.0407
O13A O 0.7713(3) 0.9474(3) 0.9857(2)
H9A H 0.7167 0.9790 1.0473
H10A H 0.8478 0.9338 1.0201
O14A O 0.4521(4) 0.5652(3) 0.1339(3)
H11A H 0.4617 0.6506 0.1374
H12A H 0.3688 0.5333 0.1120
O15A O 0.7883(3) 0.5714(3) 0.2611(3)
H13A H 0.8235 0.6326 0.2318
H14A H 0.8377 0.5905 0.3344
O16A O 0.6968(4) 0.3364(3) 0.3638(3)
H15A H 0.6747 0.2462 0.3186
H16A H 0.6512 0.3654 0.4325
O17A O 0.8551(4) 1.2978(4) 1.0833(4)
H17A H 0.8179 1.3729 1.1221
H18A H 0.9146 1.2795 1.1316
C1A C 0.5719(4) 0.8901(4) 0.4178(4)
H23A H 0.6212 0.8153 0.3625
C2A C 0.5581(4) 0.9083(4) 0.5475(4)
C3A C 0.4851(4) 1.0204(4) 0.6317(4)
C4A C 0.6236(4) 0.8083(5) 0.5950(4)
C5A C 0.4631(5) 1.0455(5) 0.7741(4)
C6A C -0.0889(4) 1.0615(5) 0.4424(4)
H24A H -0.1482 1.1027 0.4030
C7A C -0.0691(4) 1.1189(5) 0.5801(4)
C8A C 0.0203(4) 1.0574(4) 0.6363(4)
C9A C -0.1471(5) 1.2471(5) 0.6625(5)
C10A C 0.0607(5) 1.1177(5) 0.7836(4)
O18 O 0.0540(4) 0.3794(4) 0.4967(4)
H19 H 0.0427 0.4539 0.4874
H20 H -0.0222 0.3553 0.5278
O19 O 0.0000 0.5000 0.0000
H21? H 0.0260 0.5817 0.0734
H22? H 0.0732 0.4457 -0.0118
loop_
_geom_bond_atom_site_label_1
_geom_bond_atom_site_label_2
_geom_bond_site_symmetry_1
_geom_bond_site_symmetry_2
Ni1 O1 1_555 1_555
Na1 O2 1_555 1_555
Na2 O1 1_555 1_555
O1 C4 1_555 1_555
O2 C4 1_555 1_555
O3 C5 1_555 1_555
O4 Na2 1_555 1_555
O5 C9 1_555 1_555
O6 Na2 1_555 1_555
O7 Na2 1_555 1_555
O8 C10 1_555 1_555
O9 Ni1 1_555 1_555
H1 O9 1_555 1_555
H2 O9 1_555 1_555
O10 Ni1 1_555 1_555
H3 O10 1_555 1_555
H4 O10 1_555 1_555
O11 Ni1 1_555 1_555
H5 O11 1_555 1_555
H6 O11 1_555 1_555
O12 Ni1 1_555 1_555
H7 O12 1_555 1_555
H8 O12 1_555 1_555
O13 Ni1 1_555 1_555
H9 O13 1_555 1_555
H10 O13 1_555 1_555
O14 Na1 1_555 1_555
H11 O14 1_555 1_555
H12 O14 1_555 1_555
O15 Na1 1_555 1_555
H13 O15 1_555 1_555
H14 O15 1_555 1_555
O16 Na1 1_555 1_555
H15 O16 1_555 1_555
H16 O16 1_555 1_555
O17 Na2 1_555 1_555
H17 O17 1_555 1_555
H18 O17 1_555 1_555
O18 H19 1_555 1_555
H20 O18 1_555 1_555
C1 H23 1_555 1_555
C2 C1 1_555 1_555
C3 C2 1_555 1_555
C4 C2 1_555 1_555
C5 O4 1_555 1_555
C6 H24 1_555 1_555
C7 C6 1_555 1_555
C8 C7 1_555 1_555
C9 O6 1_555 1_555
C10 O7 1_555 1_555
Ni1A O1A 1_555 1_555
Ni1A_2 O11A 1_555 1_555
Na1A O2A 1_555 1_555
Na1A_2 O11 1_555 1_555
Na2A O1A 1_555 1_555
Na2A_2 O6A 1_555 1_555
O1A C4A 1_555 1_555
O2A C4A 1_555 1_555
O3A C5A 1_555 1_555
O4A Na2A 1_555 1_555
O5A C9A 1_555 1_555
O6A C9A 1_555 1_555
O6A_2 Na2A 1_555 1_555
O7A Na2A_2 1_555 1_555
O7A_2 Na2A 1_555 1_555
O8A C10A 1_555 1_555
O9A Ni1A 1_555 1_555
H1A O9A 1_555 1_555
H2A O9A 1_555 1_555
O10A Ni1A 1_555 1_555
H3A O10A 1_555 1_555
H4A O10A 1_555 1_555
O11A Na1 1_555 1_555
O11A_2 Ni1A 1_555 1_555
O11_2 Na1A 1_555 1_555
H5A O11A 1_555 1_555
H5A_2 O11A_2 1_555 1_555
H5_2 O11_2 1_555 1_555
H6A O11A 1_555 1_555
H6A_2 O11A_2 1_555 1_555
H6_2 O11_2 1_555 1_555
O12A Na1 1_555 1_555
O12A_2 Ni1A 1_555 1_555
O12_2 Na1A 1_555 1_555
H7A O12A 1_555 1_555
H7A_2 O12A_2 1_555 1_555
H7_2 O12_2 1_555 1_555
H8A O12A 1_555 1_555
H8A_2 O12A_2 1_555 1_555
H8_2 O12_2 1_555 1_555
O13A Ni1A 1_555 1_555
H9A O13A 1_555 1_555
H10A O13A 1_555 1_555
O14A Na1A 1_555 1_555
H11A O14A 1_555 1_555
H12A O14A 1_555 1_555
O15A Na1A 1_555 1_555
H13A O15A 1_555 1_555
H14A O15A 1_555 1_555
O16A Na1A 1_555 1_555
H15A O16A 1_555 1_555
H16A O16A 1_555 1_555
O17A Na2A 1_555 1_555
H17A O17A 1_555 1_555
H18A O17A 1_555 1_555
C1A C3 1_555 1_555
H23A C1A 1_555 1_555
C2A C1A 1_555 1_555
C3A C1 1_555 1_555
C4A C2A 1_555 1_555
C5A O4A 1_555 1_555
C6A C8 1_555 1_555
H24A C6A 1_555 1_555
C7A C6A 1_555 1_555
C8A C6 1_555 1_555
C9A C7A 1_555 1_555
C10A O7A 1_555 1_555
Na2 O13 1_555 1_555
O12 Na1A_2 1_555 1_555
C3 C5 1_555 1_555
C7 C9 1_555 1_555
C8 C10 1_555 1_555
Ni1A_2 O12A 1_555 1_555
Na2A O13A 1_555 1_555
C2A C3A 1_555 1_555
C3A C5A 1_555 1_555
C7A C8A 1_555 1_555
C8A C10A 1_555 1_555

#END
