
#######################################################################
#
#                 Cambridge Crystallographic Data Centre
#                                CCDC 
#
#######################################################################
#
# If this CIF has been generated from an entry in the Cambridge 
# Structural Database, then it will include bibliographic, chemical, 
# crystal, experimental, refinement or atomic coordinate data resulting 
# from the CCDC's data processing and validation procedures.
#
#######################################################################

data_LUJQEM
_symmetry_cell_setting           monoclinic
_symmetry_space_group_name_H-M   'P 21/c'
_symmetry_Int_Tables_number      14
_space_group_name_Hall           '-P 2ybc'
loop_
_symmetry_equiv_pos_site_id
_symmetry_equiv_pos_as_xyz
1 x,y,z
2 x,1/2-y,1/2+z
3 -x,-y,-z
4 -x,1/2+y,1/2-z
_cell_length_a                   11.569(7)
_cell_length_b                   11.250(7)
_cell_length_c                   13.742(9)
_cell_angle_alpha                90
_cell_angle_beta                 91.620(10)
_cell_angle_gamma                90
_cell_volume                     1787.82
loop_
_atom_site_label
_atom_site_type_symbol
_atom_site_fract_x
_atom_site_fract_y
_atom_site_fract_z
Cu1 Cu 0.22449(3) 0.02998(3) 0.17128(3)
O1 O 0.35395(19) -0.0531(2) 0.24142(17)
O2 O 0.2326(2) 0.0112(2) 0.3528(2)
O3 O 0.6820(2) -0.3247(2) 0.34615(17)
O4 O 0.6621(2) -0.4196(3) 0.4869(2)
N1 N 0.0699(2) 0.1029(2) 0.13602(18)
N2 N 0.1325(2) -0.1207(2) 0.15279(19)
C1 C 0.3218(3) -0.0433(3) 0.3307(2)
C2 C 0.3944(3) -0.1051(3) 0.4090(2)
C3 C 0.3734(3) -0.0815(3) 0.5074(2)
H1 H 0.3140 -0.0264 0.5244
C4 C 0.4399(3) -0.1389(3) 0.5801(2)
H2 H 0.4270 -0.1216 0.6474
C5 C 0.5251(3) -0.2213(3) 0.5551(2)
H3 H 0.5696 -0.2616 0.6050
C6 C 0.5455(3) -0.2449(3) 0.4571(2)
C7 C 0.4812(3) -0.1857(3) 0.3839(2)
H4 H 0.4967 -0.2002 0.3167
C8 C 0.6353(3) -0.3358(3) 0.4296(2)
C9 C 0.0460(3) 0.2202(3) 0.1286(2)
H5 H 0.1077 0.2766 0.1369
C10 C -0.0656(3) 0.2618(3) 0.1084(3)
H6 H -0.0810 0.3455 0.1043
C11 C -0.1545(3) 0.1800(4) 0.0947(3)
H7 H -0.2319 0.2069 0.0804
C12 C -0.1308(3) 0.0582(3) 0.1022(3)
H8 H -0.1910 0.0001 0.0933
C13 C -0.0176(3) 0.0231(3) 0.1228(2)
C14 C 0.0181(3) -0.1042(3) 0.1323(2)
C15 C -0.0566(3) -0.2009(3) 0.1205(3)
H9 H -0.1375 -0.1879 0.1072
C16 C -0.0120(4) -0.3160(3) 0.1276(3)
H10 H -0.0623 -0.3833 0.1194
C17 C 0.1048(4) -0.3323(3) 0.1467(3)
H11 H 0.1370 -0.4109 0.1510
C18 C 0.1750(3) -0.2328(3) 0.1601(2)
H12 H 0.2560 -0.2434 0.1747
O3C O 0.3180(2) 0.1753(2) 0.15385(17)
Cu1C Cu 0.77551(3) -0.47002(3) 0.32872(3)
O5 O 0.4223(2) -0.0144(3) -0.1665(2)
H13 H 0.5031 0.0005 -0.1761
H14 H 0.4060 0.0182 -0.1126
O6 O 0.2502(3) 0.0857(3) 0.7104(3)
H15 H 0.3203 0.0635 0.7434
H16 H 0.2781 0.1486 0.7023
loop_
_geom_bond_atom_site_label_1
_geom_bond_atom_site_label_2
_geom_bond_site_symmetry_1
_geom_bond_site_symmetry_2
Cu1 O1 1_555 1_555
O1 C1 1_555 1_555
O2 C1 1_555 1_555
O3 C8 1_555 1_555
O4 C8 1_555 1_555
N1 Cu1 1_555 1_555
N2 Cu1 1_555 1_555
C1 C2 1_555 1_555
C2 C3 1_555 1_555
C3 H1 1_555 1_555
C4 C3 1_555 1_555
H2 C4 1_555 1_555
C5 C4 1_555 1_555
H3 C5 1_555 1_555
C6 C5 1_555 1_555
C7 C2 1_555 1_555
H4 C7 1_555 1_555
C8 C6 1_555 1_555
C9 N1 1_555 1_555
H5 C9 1_555 1_555
C10 C9 1_555 1_555
H6 C10 1_555 1_555
C11 C10 1_555 1_555
H7 C11 1_555 1_555
C12 C11 1_555 1_555
H8 C12 1_555 1_555
C13 N1 1_555 1_555
C14 N2 1_555 1_555
C15 C14 1_555 1_555
H9 C15 1_555 1_555
C16 C15 1_555 1_555
H10 C16 1_555 1_555
C17 C16 1_555 1_555
H11 C17 1_555 1_555
C18 N2 1_555 1_555
H12 C18 1_555 1_555
O5 H13 1_555 1_555
H14 O5 1_555 1_555
O6 H15 1_555 1_555
H16 O6 1_555 1_555
O3C Cu1 1_555 1_555
Cu1C O3 1_555 1_555
C6 C7 1_555 1_555
C12 C13 1_555 1_555
C13 C14 1_555 1_555
C17 C18 1_555 1_555

#END
