
#######################################################################
#
#                 Cambridge Crystallographic Data Centre
#                                CCDC 
#
#######################################################################
#
# If this CIF has been generated from an entry in the Cambridge 
# Structural Database, then it will include bibliographic, chemical, 
# crystal, experimental, refinement or atomic coordinate data resulting 
# from the CCDC's data processing and validation procedures.
#
#######################################################################

data_LUJQIQ
_symmetry_cell_setting           monoclinic
_symmetry_space_group_name_H-M   'C 2/c'
_symmetry_Int_Tables_number      15
_space_group_name_Hall           '-C 2yn'
loop_
_symmetry_equiv_pos_site_id
_symmetry_equiv_pos_as_xyz
1 x,y,z
2 1/2+x,1/2+y,z
3 x,-y,1/2+z
4 1/2+x,1/2-y,1/2+z
5 -x,-y,-z
6 1/2-x,1/2-y,-z
7 -x,y,1/2-z
8 1/2-x,1/2+y,1/2-z
_cell_length_a                   36.17(3)
_cell_length_b                   6.030(5)
_cell_length_c                   23.886(10)
_cell_angle_alpha                90
_cell_angle_beta                 113.650(10)
_cell_angle_gamma                90
_cell_volume                     4772.11
loop_
_atom_site_label
_atom_site_type_symbol
_atom_site_fract_x
_atom_site_fract_y
_atom_site_fract_z
C1 C 0.36999(15) 0.0763(9) 0.6123(2)
C2 C 0.40615(15) 0.0024(9) 0.6000(2)
C3 C 0.42833(17) -0.1840(11) 0.6286(3)
H1 H 0.4205 -0.2640 0.6569
C4 C 0.46172(18) -0.2573(11) 0.6167(3)
H2 H 0.4765 -0.3877 0.6363
C5 C 0.47318(16) -0.1357(11) 0.5765(2)
C6 C 0.45057(17) 0.0456(10) 0.5463(3)
H3 H 0.4577 0.1224 0.5169
C7 C 0.41752(16) 0.1160(10) 0.5583(3)
H4 H 0.4024 0.2443 0.5378
C8 C 0.53697(16) -0.3262(11) 0.6047(2)
C9 C 0.55960(17) -0.2393(10) 0.6631(3)
H5 H 0.5529 -0.0968 0.6744
C10 C 0.59180(17) -0.3644(9) 0.7047(2)
H6 H 0.6068 -0.3076 0.7449
C11 C 0.60160(15) -0.5695(8) 0.6878(2)
C12 C 0.57951(16) -0.6524(9) 0.6286(2)
H7 H 0.5867 -0.7919 0.6163
C13 C 0.54710(17) -0.5282(11) 0.5875(2)
H8 H 0.5314 -0.5834 0.5472
C14 C 0.63584(15) -0.7095(10) 0.7331(2)
C15 C 0.29453(16) -0.3365(8) 0.5929(2)
H9 H 0.3228 -0.3612 0.6034
C16 C 0.26637(17) -0.4872(9) 0.5541(2)
H10 H 0.2754 -0.6122 0.5381
C17 C 0.22517(18) -0.4564(9) 0.5381(2)
H11 H 0.2060 -0.5597 0.5113
C18 C 0.21203(15) -0.2723(9) 0.5628(2)
C19 C 0.24265(15) -0.1270(8) 0.6021(2)
C20 C 0.16986(16) -0.2226(10) 0.5513(2)
H12 H 0.1492 -0.3176 0.5240
C21 C 0.15998(17) -0.0480(10) 0.5780(3)
H13 H 0.1321 -0.0212 0.5700
C22 C 0.19040(15) 0.0987(9) 0.6194(2)
C23 C 0.23156(15) 0.0591(8) 0.6292(2)
C24 C 0.18297(18) 0.2860(10) 0.6508(3)
H14 H 0.1558 0.3178 0.6459
C25 C 0.21451(18) 0.4167(10) 0.6875(3)
H15 H 0.2096 0.5405 0.7088
C26 C 0.25457(17) 0.3700(8) 0.6942(2)
H16 H 0.2761 0.4664 0.7189
N1 N 0.28338(12) -0.1564(6) 0.61627(17)
N2 N 0.26346(12) 0.1930(7) 0.66642(17)
O1 O 0.34521(11) 0.2140(7) 0.57734(17)
O2 O 0.36602(11) -0.0135(7) 0.65882(17)
O3 O 0.64497(12) -0.8941(6) 0.71717(17)
O4 O 0.65341(11) -0.6339(6) 0.78802(16)
O5 O 0.50513(12) -0.2001(8) 0.56138(17)
Cu1 Cu 0.317838(18) 0.09799(10) 0.66686(3)
Cu1F Cu 0.682162(18) -0.90201(10) 0.83314(3)
O4F O 0.34659(11) 0.3661(6) 0.71198(16)
loop_
_geom_bond_atom_site_label_1
_geom_bond_atom_site_label_2
_geom_bond_site_symmetry_1
_geom_bond_site_symmetry_2
C1 C2 1_555 1_555
C2 C3 1_555 1_555
C3 H1 1_555 1_555
C4 C3 1_555 1_555
H2 C4 1_555 1_555
C5 C4 1_555 1_555
C6 C5 1_555 1_555
H3 C6 1_555 1_555
C7 C2 1_555 1_555
H4 C7 1_555 1_555
C8 C9 1_555 1_555
C9 H5 1_555 1_555
C10 C9 1_555 1_555
H6 C10 1_555 1_555
C11 C10 1_555 1_555
C12 C11 1_555 1_555
H7 C12 1_555 1_555
C13 C8 1_555 1_555
H8 C13 1_555 1_555
C14 C11 1_555 1_555
C15 H9 1_555 1_555
C16 C15 1_555 1_555
H10 C16 1_555 1_555
C17 C16 1_555 1_555
H11 C17 1_555 1_555
C18 C17 1_555 1_555
C19 C18 1_555 1_555
C20 C18 1_555 1_555
H12 C20 1_555 1_555
C21 C20 1_555 1_555
H13 C21 1_555 1_555
C22 C21 1_555 1_555
C23 C19 1_555 1_555
C24 C22 1_555 1_555
H14 C24 1_555 1_555
C25 C24 1_555 1_555
H15 C25 1_555 1_555
C26 C25 1_555 1_555
H16 C26 1_555 1_555
N1 C15 1_555 1_555
N2 C23 1_555 1_555
O1 C1 1_555 1_555
O2 C1 1_555 1_555
O3 C14 1_555 1_555
O4 C14 1_555 1_555
O5 C5 1_555 1_555
Cu1 N1 1_555 1_555
Cu1F O4 1_555 1_555
O4F Cu1 1_555 1_555
C6 C7 1_555 1_555
C8 O5 1_555 1_555
C12 C13 1_555 1_555
C19 N1 1_555 1_555
C22 C23 1_555 1_555
C26 N2 1_555 1_555
N2 Cu1 1_555 1_555
O2 Cu1 1_555 1_555

#END
