
#######################################################################
#
#                 Cambridge Crystallographic Data Centre
#                                CCDC 
#
#######################################################################
#
# If this CIF has been generated from an entry in the Cambridge 
# Structural Database, then it will include bibliographic, chemical, 
# crystal, experimental, refinement or atomic coordinate data resulting 
# from the CCDC's data processing and validation procedures.
#
#######################################################################

data_LUJQAI
_symmetry_cell_setting           triclinic
_symmetry_space_group_name_H-M   'P -1'
_symmetry_Int_Tables_number      2
_space_group_name_Hall           '-P 1'
loop_
_symmetry_equiv_pos_site_id
_symmetry_equiv_pos_as_xyz
1 x,y,z
2 -x,-y,-z
_cell_length_a                   14.383(3)
_cell_length_b                   11.007(2)
_cell_length_c                   23.722(5)
_cell_angle_alpha                78.60(2)
_cell_angle_beta                 38.61(2)
_cell_angle_gamma                109.70(2)
_cell_volume                     1367.36
loop_
_atom_site_label
_atom_site_type_symbol
_atom_site_fract_x
_atom_site_fract_y
_atom_site_fract_z
Ni1 Ni 0.00000 1.00000 0.00000
Ni2 Ni 0.00000 0.50000 0.00000
S1 S 0.39745(19) 0.89193(16) -0.23748(11)
S2 S 0.40268(18) 1.38046(15) -0.20195(11)
O1 O -0.2441(6) 0.7736(5) 0.4282(3)
O2 O 0.1387(6) 0.9491(6) 0.2274(3)
O3 O -0.1506(6) 0.4982(5) 0.3649(3)
O4 O 0.2608(6) 0.7410(5) 0.1428(3)
N1 N 0.2167(6) 0.9960(5) -0.1192(3)
N2 N 0.2231(6) 1.4958(5) -0.0985(3)
N3 N -0.0369(6) 0.9163(5) 0.1115(3)
N4 N 0.0122(6) 0.5392(5) 0.0785(3)
C1 C 0.2928(7) 0.9548(5) -0.1686(4)
C2 C 0.2983(7) 1.4493(5) -0.1417(4)
C3 C -0.2478(7) 0.7952(6) 0.2513(4)
C4 C -0.2649(7) 0.7676(6) 0.3198(4)
C5 C -0.0562(7) 0.8678(6) 0.2408(4)
C6 C 0.1594(7) 0.9844(6) 0.0982(4)
C7 C 0.1612(7) 1.0053(6) 0.0378(4)
C8 C -0.0586(8) 0.8603(6) 0.3057(4)
C9 C -0.1891(7) 0.4410(6) 0.2122(4)
C10 C -0.1881(8) 0.4588(6) 0.2676(4)
C11 C 0.0322(7) 0.5850(6) 0.1810(4)
C12 C 0.2425(7) 0.6890(6) 0.0419(4)
C13 C 0.2250(7) 0.6613(6) -0.0049(4)
C14 C 0.0439(8) 0.6070(7) 0.2358(4)
H1 H -0.38934 0.72641 0.30516
H2 H -0.41450 0.68293 0.41720
H3 H 0.29995 1.04715 0.04419
H4 H 0.30675 1.08483 -0.05839
H5 H -0.33715 0.35648 0.27055
H6 H -0.33222 0.38751 0.36121
H7 H 0.39347 0.77616 -0.01907
H8 H 0.36615 0.73004 -0.09786
H9 H 0.12093 0.93743 0.27125
H10 H 0.25024 0.74298 0.18190
S2A S -0.40268(18) 0.61954(15) 0.20195(11)
N2A N -0.2231(6) 0.5042(5) 0.0985(3)
C2A C -0.2983(7) 0.5507(5) 0.1417(4)
S1A S -0.39745(19) 1.10807(16) 0.23748(11)
N1A N -0.2167(6) 1.0040(5) 0.1192(3)
C1A C -0.2928(7) 1.0452(5) 0.1686(4)
O1A O 0.2441(6) 1.2264(5) -0.4282(3)
O2A O -0.1387(6) 1.0509(6) -0.2274(3)
N3A N 0.0369(6) 1.0837(5) -0.1115(3)
C3A C 0.2478(7) 1.2048(6) -0.2513(4)
C4A C 0.2649(7) 1.2324(6) -0.3198(4)
C5A C 0.0562(7) 1.1322(6) -0.2408(4)
C6A C -0.1594(7) 1.0156(6) -0.0982(4)
C7A C -0.1612(7) 0.9947(6) -0.0378(4)
C8A C 0.0586(8) 1.1397(6) -0.3057(4)
H1A H 0.38934 1.27359 -0.30516
H2A H 0.41450 1.31707 -0.41720
H3A H -0.29995 0.95285 -0.04419
H4A H -0.30675 0.91517 0.05839
H9A H -0.12093 1.06257 -0.27125
O3A O 0.1506(6) 0.5018(5) -0.3649(3)
O4A O -0.2608(6) 0.2590(5) -0.1428(3)
N4A N -0.0122(6) 0.4608(5) -0.0785(3)
C9A C 0.1891(7) 0.5590(6) -0.2122(4)
C10A C 0.1881(8) 0.5412(6) -0.2676(4)
C11A C -0.0322(7) 0.4150(6) -0.1810(4)
C12A C -0.2425(7) 0.3110(6) -0.0419(4)
C13A C -0.2250(7) 0.3387(6) 0.0049(4)
C14A C -0.0439(8) 0.3930(7) -0.2358(4)
H5A H 0.33715 0.64352 -0.27055
H6A H 0.33222 0.61249 -0.36121
H7A H -0.39347 0.22384 0.01907
H8A H -0.36615 0.26996 0.09786
H10A H -0.25024 0.25702 -0.18190
S1A_2 S -0.39745(19) 0.10807(16) 0.23748(11)
N2_2 N 0.2231(6) 0.4958(5) -0.0985(3)
Ni2_2 Ni 0.00000 1.50000 0.00000
C15 C 0.1688(13) 0.3109(9) 0.0827(8)
C16 C -0.0702(15) 0.1889(12) 0.2159(11)
C17 C -0.1591(13) 0.1540(11) 0.3117(8)
C18 C -0.0013(11) 0.2476(9) 0.2776(6)
C19 C -0.0829(16) 0.2209(13) 0.3723(7)
C20 C 0.0648(17) 0.3093(12) 0.3385(8)
C21 C 0.3174(14) 0.4374(10) 0.2009(7)
C22 C 0.4107(9) 0.4685(7) 0.1013(5)
C23 C 0.2488(8) 0.3735(7) 0.1394(5)
C24 C 0.3329(9) 0.4033(7) 0.0412(5)
H11 H 0.22370 0.33303 0.01803
H12 H -0.17556 0.12736 0.24052
H13 H -0.32462 0.06842 0.40207
H14 H -0.24674 0.13822 0.46262
H15 H 0.00362 0.28790 0.40505
H16 H 0.42020 0.50043 0.17798
C22A C 0.5893(9) 0.5315(7) -0.1013(5)
C21A C 0.6826(14) 0.5626(10) -0.2009(7)
C20A C 0.9352(17) 0.6907(12) -0.3385(8)
C19A C 1.0829(16) 0.7791(13) -0.3723(7)
C18A C 1.0013(11) 0.7524(9) -0.2776(6)
C17A C 1.1591(13) 0.8460(11) -0.3117(8)
C16A C 1.0702(15) 0.8111(12) -0.2159(11)
C15A C 0.8312(13) 0.6891(9) -0.0827(8)
C24A C 0.6671(9) 0.5967(7) -0.0412(5)
C23A C 0.7512(8) 0.6265(7) -0.1394(5)
H11A H 0.77630 0.66697 -0.01803
H12A H 1.17556 0.87264 -0.24052
H13A H 1.32462 0.93158 -0.40207
H14A H 1.24674 0.86178 -0.46262
H15A H 0.99638 0.71210 -0.40505
H16A H 0.57980 0.49957 -0.17798
O5 O -0.1403(6) 0.4778(5) 0.4732(3)
O6 O 0.2740(6) 0.7533(6) 0.2456(4)
C25 C 0.0796(9) 0.6101(7) 0.3777(5)
C26 C 0.0949(9) 0.5813(7) 0.4334(5)
H17 H -0.12851 0.50717 0.43185
H18 H 0.25022 0.68676 0.36785
C26A C -0.0949(9) 0.4187(7) 0.5666(5)
C25A C -0.0796(9) 0.3899(7) 0.6223(5)
O5A O 0.1403(6) 0.5222(5) 0.5268(3)
H17A H 0.12851 0.49283 0.56815
O6A O -0.2740(6) 0.2467(6) 0.7544(4)
H18A H -0.25022 0.31324 0.63215
O7 O 0.1564(7) 0.9715(7) 0.3274(4)
O8 O -0.1795(6) 0.8682(5) 0.4995(3)
C27 C 0.0657(9) 1.0062(8) 0.4532(5)
C28 C 0.0131(9) 0.9447(7) 0.4230(5)
H19 H 0.20027 1.05601 0.40177
H20 H -0.19162 0.83985 0.47463
C27A C -0.0657(9) 0.9938(8) 0.5468(5)
C28A C -0.0131(9) 1.0553(7) 0.5770(5)
O7A O -0.1564(7) 1.0285(7) 0.6726(4)
O8A O 0.1795(6) 1.1318(5) 0.5005(3)
H20A H 0.19162 1.16015 0.52537
H19A H -0.20027 0.94399 0.59823
loop_
_geom_bond_atom_site_label_1
_geom_bond_atom_site_label_2
_geom_bond_site_symmetry_1
_geom_bond_site_symmetry_2
Ni1 S2 1_555 1_555
Ni2 S1 1_555 1_555
S1 C1 1_555 1_555
S2 C2 1_555 1_555
O1 C8 1_555 1_555
O2 C8 1_555 1_555
O3 C14 1_555 1_555
O4 C14 1_555 1_555
N1 Ni1 1_555 1_555
N2 C2 1_555 1_555
N3 Ni1 1_555 1_555
N4 Ni2 1_555 1_555
C1 N1 1_555 1_555
C3 N3 1_555 1_555
C4 C3 1_555 1_555
C5 C4 1_555 1_555
C6 C5 1_555 1_555
C7 N3 1_555 1_555
C8 C5 1_555 1_555
C9 N4 1_555 1_555
C10 C9 1_555 1_555
C11 C10 1_555 1_555
C12 C11 1_555 1_555
C13 N4 1_555 1_555
C14 C11 1_555 1_555
C15 C16 1_555 1_555
C16 C17 1_555 1_555
C17 C18 1_555 1_555
C18 C19 1_555 1_555
C19 C20 1_555 1_555
C20 C21 1_555 1_555
C21 C22 1_555 1_555
C22 C23 1_555 1_555
C23 C18 1_555 1_555
C24 C15 1_555 1_555
O5 C25 1_555 1_555
O6 C25 1_555 1_555
C25 C26 1_555 1_555
C26 H18 1_555 1_555
O7 C28 1_555 1_555
O8 C28 1_555 1_555
C27 C28 1_555 1_555
H1 C3 1_555 1_555
H2 C4 1_555 1_555
H3 C6 1_555 1_555
H4 C7 1_555 1_555
H5 C9 1_555 1_555
H6 C10 1_555 1_555
H7 C12 1_555 1_555
H8 C13 1_555 1_555
H9 O2 1_555 1_555
H10 O4 1_555 1_555
H11 C15 1_555 1_555
H12 C16 1_555 1_555
H13 C17 1_555 1_555
H14 C19 1_555 1_555
H15 C20 1_555 1_555
H16 C21 1_555 1_555
H17 O5 1_555 1_555
H19 C27 1_555 1_555
H20 O8 1_555 1_555
C22A C24 1_555 1_555
C21A C22A 1_555 1_555
C20A C21A 1_555 1_555
C19A C20A 1_555 1_555
C18A C19A 1_555 1_555
C17A C18A 1_555 1_555
C16A C17A 1_555 1_555
C15A C16A 1_555 1_555
C24A C22 1_555 1_555
C23A C22A 1_555 1_555
H11A C15A 1_555 1_555
H12A C16A 1_555 1_555
H13A C17A 1_555 1_555
H14A C19A 1_555 1_555
H15A C20A 1_555 1_555
H16A C21A 1_555 1_555
C26A C26 1_555 1_555
C25A C26A 1_555 1_555
O5A C25A 1_555 1_555
H17A O5A 1_555 1_555
O6A C25A 1_555 1_555
H18A C26A 1_555 1_555
C27A C27 1_555 1_555
C28A C27A 1_555 1_555
O7A C28A 1_555 1_555
O8A C28A 1_555 1_555
H20A O8A 1_555 1_555
H19A C27A 1_555 1_555
S2A Ni1 1_555 1_555
N2A Ni2 1_555 1_555
C2A S2A 1_555 1_555
S1A C1A 1_555 1_555
N1A Ni1 1_555 1_555
C1A N1A 1_555 1_555
O1A C8A 1_555 1_555
O2A C8A 1_555 1_555
N3A Ni1 1_555 1_555
C3A N3A 1_555 1_555
C4A C3A 1_555 1_555
C5A C4A 1_555 1_555
C6A C5A 1_555 1_555
C7A N3A 1_555 1_555
C8A C5A 1_555 1_555
H1A C3A 1_555 1_555
H2A C4A 1_555 1_555
H3A C6A 1_555 1_555
H4A C7A 1_555 1_555
H9A O2A 1_555 1_555
O3A C14A 1_555 1_555
O4A C14A 1_555 1_555
N4A Ni2 1_555 1_555
C9A N4A 1_555 1_555
C10A C9A 1_555 1_555
C11A C10A 1_555 1_555
C12A C11A 1_555 1_555
C13A N4A 1_555 1_555
C14A C11A 1_555 1_555
H5A C9A 1_555 1_555
H6A C10A 1_555 1_555
H7A C12A 1_555 1_555
H8A C13A 1_555 1_555
H10A O4A 1_555 1_555
S1A_2 Ni2 1_555 1_555
N2_2 Ni2 1_555 1_555
Ni2_2 N2 1_555 1_555
C6 C7 1_555 1_555
C12 C13 1_555 1_555
C23 C24 1_555 1_555
C18A C23A 1_555 1_555
C15A C24A 1_555 1_555
C24A C23A 1_555 1_555
N2A C2A 1_555 1_555
S1A Ni2_2 1_555 1_555
C6A C7A 1_555 1_555
C12A C13A 1_555 1_555

#END
