
#######################################################################
#
#                 Cambridge Crystallographic Data Centre
#                                CCDC 
#
#######################################################################
#
# If this CIF has been generated from an entry in the Cambridge 
# Structural Database, then it will include bibliographic, chemical, 
# crystal, experimental, refinement or atomic coordinate data resulting 
# from the CCDC's data processing and validation procedures.
#
#######################################################################

data_LUJQUC
_symmetry_cell_setting           monoclinic
_symmetry_space_group_name_H-M   'P 21/c'
_symmetry_Int_Tables_number      14
_space_group_name_Hall           '-P 2ybc'
loop_
_symmetry_equiv_pos_site_id
_symmetry_equiv_pos_as_xyz
1 x,y,z
2 x,1/2-y,1/2+z
3 -x,-y,-z
4 -x,1/2+y,1/2-z
_cell_length_a                   12.380(8)
_cell_length_b                   15.198(10)
_cell_length_c                   11.477(9)
_cell_angle_alpha                90
_cell_angle_beta                 92.320(10)
_cell_angle_gamma                90
_cell_volume                     2157.64
loop_
_atom_site_label
_atom_site_type_symbol
_atom_site_fract_x
_atom_site_fract_y
_atom_site_fract_z
Cu1 Cu 0.38492(5) 0.05975(4) 0.20671(5)
O1 O 0.2621(3) 0.1281(2) 0.1296(3)
O2 O 0.2638(4) -0.0080(3) 0.0591(4)
O3 O -0.5040(3) 0.3292(3) -0.1971(3)
O4 O -0.4951(3) 0.3818(3) -0.3785(3)
O5 O -0.0466(3) 0.1671(3) -0.3327(3)
N1 N 0.3051(3) 0.0221(3) 0.3508(4)
N2 N 0.4838(4) -0.0381(3) 0.2616(4)
C1 C 0.2289(4) 0.0693(4) 0.0567(5)
C2 C 0.1457(4) 0.0959(4) -0.0381(5)
C3 C 0.1072(5) 0.0328(4) -0.1172(5)
H1 H 0.1272 -0.0277 -0.1053
C4 C 0.0393(5) 0.0562(4) -0.2127(5)
H2 H 0.0117 0.0122 -0.2661
C5 C 0.0126(4) 0.1436(4) -0.2289(5)
C6 C 0.0480(5) 0.2083(4) -0.1503(5)
H3 H 0.0273 0.2686 -0.1621
C7 C 0.1145(4) 0.1835(4) -0.0547(5)
H4 H 0.1384 0.2268 0.0015
C8 C -0.1471(4) 0.2086(4) -0.3178(4)
C9 C -0.1786(5) 0.2704(4) -0.4026(5)
H5 H -0.1314 0.2852 -0.4639
C10 C -0.2805(4) 0.3119(3) -0.3957(4)
H6 H -0.3042 0.3542 -0.4534
C11 C -0.3476(4) 0.2909(3) -0.3051(4)
C12 C -0.3149(4) 0.2274(3) -0.2208(4)
H7 H -0.3616 0.2124 -0.1590
C13 C -0.2142(4) 0.1857(3) -0.2278(4)
H8 H -0.1905 0.1427 -0.1711
C14 C -0.4564(4) 0.3353(3) -0.2923(4)
C15 C 0.2118(5) 0.0575(4) 0.3882(6)
H9 H 0.1751 0.1010 0.3406
C16 C 0.1687(6) 0.0318(5) 0.4933(6)
H10 H 0.1036 0.0585 0.5194
C17 C 0.2211(5) -0.0331(5) 0.5611(6)
H11 H 0.1922 -0.0524 0.6332
C18 C 0.3181(5) -0.0690(4) 0.5214(5)
H12 H 0.3561 -0.1134 0.5662
C19 C 0.3574(5) -0.0401(3) 0.4171(4)
C20 C 0.4600(4) -0.0742(3) 0.3669(5)
C21 C 0.5252(4) -0.1398(3) 0.4193(5)
H13 H 0.5088 -0.1627 0.4945
C22 C 0.6141(5) -0.1705(4) 0.3610(6)
H14 H 0.6584 -0.2168 0.3938
C23 C 0.6368(5) -0.1346(4) 0.2523(6)
H15 H 0.6980 -0.1547 0.2110
C24 C 0.5717(5) -0.0682(4) 0.2058(6)
H16 H 0.5886 -0.0429 0.1321
O3A O 0.4960(3) 0.1708(3) 0.3029(3)
O4A O 0.5049(3) 0.1182(3) 0.1215(3)
Cu1A Cu -0.61508(5) 0.44025(4) -0.29329(5)
loop_
_geom_bond_atom_site_label_1
_geom_bond_atom_site_label_2
_geom_bond_site_symmetry_1
_geom_bond_site_symmetry_2
Cu1 O1 1_555 1_555
O1 C1 1_555 1_555
O2 Cu1 1_555 1_555
O3 C14 1_555 1_555
O4 C14 1_555 1_555
O5 C5 1_555 1_555
N1 Cu1 1_555 1_555
N2 Cu1 1_555 1_555
C1 O2 1_555 1_555
C2 C1 1_555 1_555
C3 C2 1_555 1_555
H1 C3 1_555 1_555
C4 C3 1_555 1_555
H2 C4 1_555 1_555
C5 C4 1_555 1_555
C6 C5 1_555 1_555
H3 C6 1_555 1_555
C7 C2 1_555 1_555
H4 C7 1_555 1_555
C8 O5 1_555 1_555
C9 C8 1_555 1_555
H5 C9 1_555 1_555
C10 C9 1_555 1_555
H6 C10 1_555 1_555
C11 C10 1_555 1_555
C12 C11 1_555 1_555
H7 C12 1_555 1_555
C13 C8 1_555 1_555
H8 C13 1_555 1_555
C14 C11 1_555 1_555
C15 N1 1_555 1_555
H9 C15 1_555 1_555
C16 C15 1_555 1_555
H10 C16 1_555 1_555
C17 C16 1_555 1_555
H11 C17 1_555 1_555
C18 C17 1_555 1_555
H12 C18 1_555 1_555
C19 N1 1_555 1_555
C20 N2 1_555 1_555
C21 C20 1_555 1_555
H13 C21 1_555 1_555
C22 C21 1_555 1_555
H14 C22 1_555 1_555
C23 C22 1_555 1_555
H15 C23 1_555 1_555
C24 N2 1_555 1_555
H16 C24 1_555 1_555
O3A Cu1 1_555 1_555
O4A Cu1 1_555 1_555
Cu1A O3 1_555 1_555
O4 Cu1A 1_555 1_555
C6 C7 1_555 1_555
C12 C13 1_555 1_555
C18 C19 1_555 1_555
C19 C20 1_555 1_555
C23 C24 1_555 1_555

#END
