
#######################################################################
#
#                 Cambridge Crystallographic Data Centre
#                                CCDC 
#
#######################################################################
#
# If this CIF has been generated from an entry in the Cambridge 
# Structural Database, then it will include bibliographic, chemical, 
# crystal, experimental, refinement or atomic coordinate data resulting 
# from the CCDC's data processing and validation procedures.
#
#######################################################################

data_LUJQOW
_symmetry_cell_setting           triclinic
_symmetry_space_group_name_H-M   'P -1'
_symmetry_Int_Tables_number      2
_space_group_name_Hall           '-P 1'
loop_
_symmetry_equiv_pos_site_id
_symmetry_equiv_pos_as_xyz
1 x,y,z
2 -x,-y,-z
_cell_length_a                   10.197(8)
_cell_length_b                   11.813(9)
_cell_length_c                   16.378(13)
_cell_angle_alpha                87.010(10)
_cell_angle_beta                 89.720(10)
_cell_angle_gamma                65.940(10)
_cell_volume                     1798.7
loop_
_atom_site_label
_atom_site_type_symbol
_atom_site_fract_x
_atom_site_fract_y
_atom_site_fract_z
Cu1 Cu 0.13981(4) 0.24331(4) 0.03003(2)
Cu2 Cu -0.52120(4) 0.27789(4) 0.53733(2)
O1 O -0.0012(3) 0.3259(3) 0.17059(17)
O2 O 0.0360(3) 0.1641(2) 0.09455(15)
O3 O -0.3332(3) 0.3720(2) 0.41049(16)
O4 O -0.3510(3) 0.2006(2) 0.46848(15)
O5 O -0.3631(4) 0.1866(3) -0.29348(18)
O6 O -0.4362(3) 0.3507(2) -0.38500(14)
O7 O 0.0461(3) 0.1929(3) -0.10844(18)
O8 O -0.0284(3) 0.3597(2) -0.03352(15)
N1 N 0.3311(3) 0.1211(3) 0.08074(17)
N2 N 0.2671(3) 0.3227(3) -0.01965(17)
N3 N -0.7082(3) 0.3269(3) 0.60312(18)
N4 N -0.6172(3) 0.1837(3) 0.47655(18)
C1 C -0.0109(3) 0.2257(3) 0.1593(2)
C2 C -0.0757(3) 0.1667(3) 0.2223(2)
C3 C -0.0517(4) 0.0415(3) 0.2195(2)
H1 H 0.0036 -0.0063 0.1760
C4 C -0.1067(4) -0.0149(3) 0.2791(2)
H2 H -0.0894 -0.1008 0.2763
C5 C -0.1874(4) 0.0534(3) 0.3427(2)
H3 H -0.2238 0.0138 0.3840
C6 C -0.2154(3) 0.1808(3) 0.3463(2)
C7 C -0.1577(4) 0.2359(3) 0.2863(2)
H4 H -0.1737 0.3215 0.2892
C8 C -0.3072(3) 0.2588(3) 0.4130(2)
C9 C -0.3797(4) 0.2934(3) -0.3161(2)
C10 C -0.3288(4) 0.3683(3) -0.26061(19)
C11 C -0.3948(4) 0.4990(3) -0.2644(2)
H5 H -0.4731 0.5424 -0.3022
C12 C -0.3449(4) 0.5647(3) -0.2131(2)
H6 H -0.3908 0.6537 -0.2151
C13 C -0.2295(4) 0.5020(3) -0.1587(2)
H7 H -0.1950 0.5477 -0.1243
C14 C -0.1638(3) 0.3719(3) -0.15419(19)
C15 C -0.2149(3) 0.3056(3) -0.2051(2)
H8 H -0.1714 0.2165 -0.2016
C16 C -0.0393(4) 0.3013(3) -0.0950(2)
C17 C 0.3598(4) 0.0191(4) 0.1302(2)
H9 H 0.2813 -0.0002 0.1485
C18 C 0.4999(5) -0.0588(4) 0.1570(2)
H10 H 0.5164 -0.1323 0.1910
C19 C 0.6144(4) -0.0309(4) 0.1338(2)
H11 H 0.7104 -0.0831 0.1524
C20 C 0.5873(4) 0.0775(4) 0.0821(2)
C21 C 0.4445(4) 0.1498(3) 0.0570(2)
C22 C 0.6986(4) 0.1167(4) 0.0536(3)
H12 H 0.7970 0.0681 0.0697
C23 C 0.6641(4) 0.2232(4) 0.0045(3)
H13 H 0.7387 0.2484 -0.0128
C24 C 0.5176(4) 0.2983(4) -0.0217(2)
C25 C 0.4085(4) 0.2604(3) 0.0040(2)
C26 C 0.4750(4) 0.4077(4) -0.0741(2)
H14 H 0.5447 0.4373 -0.0939
C27 C 0.3319(4) 0.4708(4) -0.0966(3)
H15 H 0.3015 0.5451 -0.1315
C28 C 0.2300(4) 0.4260(3) -0.0685(2)
H16 H 0.1310 0.4711 -0.0846
C29 C -0.7539(5) 0.4063(4) 0.6634(2)
H17 H -0.6880 0.4351 0.6873
C30 C -0.8964(5) 0.4490(4) 0.6926(3)
H18 H -0.9267 0.5074 0.7347
C31 C -0.9911(5) 0.4062(4) 0.6601(3)
H19 H -1.0874 0.4339 0.6799
C32 C -0.9451(4) 0.3206(4) 0.5978(2)
C33 C -0.8034(4) 0.2856(3) 0.5706(2)
C34 C -1.0334(4) 0.2657(4) 0.5610(3)
H20 H -1.1298 0.2879 0.5794
C35 C -0.9824(5) 0.1844(4) 0.5011(3)
H21 H -1.0415 0.1468 0.4795
C36 C -0.8398(4) 0.1525(4) 0.4690(2)
C37 C -0.7517(4) 0.2049(3) 0.5036(2)
C38 C -0.7821(5) 0.0727(4) 0.4043(3)
H22 H -0.8382 0.0351 0.3792
C39 C -0.6466(5) 0.0501(4) 0.3778(3)
H23 H -0.6056 -0.0058 0.3350
C40 C -0.5671(5) 0.1090(4) 0.4140(3)
H24 H -0.4739 0.0955 0.3934
O9 O -0.6433(3) 0.4651(2) 0.46975(16)
H25 H -0.7254 0.4723 0.4532
H26 H -0.5964 0.4758 0.4292
O6_2 O -0.4362(3) 0.3507(2) 0.61500(14)
Cu2_2 Cu -0.52120(4) 0.27789(4) -0.46267(2)
loop_
_geom_bond_atom_site_label_1
_geom_bond_atom_site_label_2
_geom_bond_site_symmetry_1
_geom_bond_site_symmetry_2
Cu1 O2 1_555 1_555
Cu2 O4 1_555 1_555
O1 C1 1_555 1_555
O2 C1 1_555 1_555
O3 C8 1_555 1_555
O4 C8 1_555 1_555
O5 C9 1_555 1_555
O6 C9 1_555 1_555
O7 C16 1_555 1_555
O8 Cu1 1_555 1_555
N1 Cu1 1_555 1_555
N2 Cu1 1_555 1_555
N3 Cu2 1_555 1_555
N4 Cu2 1_555 1_555
C1 C2 1_555 1_555
C2 C3 1_555 1_555
C3 H1 1_555 1_555
C4 C3 1_555 1_555
H2 C4 1_555 1_555
C5 C4 1_555 1_555
H3 C5 1_555 1_555
C6 C5 1_555 1_555
C7 C2 1_555 1_555
H4 C7 1_555 1_555
C8 C6 1_555 1_555
C9 C10 1_555 1_555
C10 C11 1_555 1_555
C11 H5 1_555 1_555
C12 C11 1_555 1_555
H6 C12 1_555 1_555
C13 C12 1_555 1_555
H7 C13 1_555 1_555
C14 C13 1_555 1_555
C15 C10 1_555 1_555
H8 C15 1_555 1_555
C16 O8 1_555 1_555
C17 N1 1_555 1_555
H9 C17 1_555 1_555
C18 C17 1_555 1_555
H10 C18 1_555 1_555
C19 C18 1_555 1_555
H11 C19 1_555 1_555
C20 C19 1_555 1_555
C21 N1 1_555 1_555
C22 C20 1_555 1_555
H12 C22 1_555 1_555
C23 C22 1_555 1_555
H13 C23 1_555 1_555
C24 C23 1_555 1_555
C25 N2 1_555 1_555
C26 C24 1_555 1_555
H14 C26 1_555 1_555
C27 C26 1_555 1_555
H15 C27 1_555 1_555
C28 N2 1_555 1_555
H16 C28 1_555 1_555
C29 N3 1_555 1_555
H17 C29 1_555 1_555
C30 C29 1_555 1_555
H18 C30 1_555 1_555
C31 C30 1_555 1_555
H19 C31 1_555 1_555
C32 C31 1_555 1_555
C33 N3 1_555 1_555
C34 C32 1_555 1_555
H20 C34 1_555 1_555
C35 C34 1_555 1_555
H21 C35 1_555 1_555
C36 C35 1_555 1_555
C37 N4 1_555 1_555
C38 C36 1_555 1_555
H22 C38 1_555 1_555
C39 C38 1_555 1_555
H23 C39 1_555 1_555
C40 N4 1_555 1_555
H24 C40 1_555 1_555
O9 Cu2 1_555 1_555
H25 O9 1_555 1_555
H26 O9 1_555 1_555
O6_2 Cu2 1_555 1_555
Cu2_2 O6 1_555 1_555
C6 C7 1_555 1_555
C14 C15 1_555 1_555
C14 C16 1_555 1_555
C20 C21 1_555 1_555
C21 C25 1_555 1_555
C24 C25 1_555 1_555
C27 C28 1_555 1_555
C32 C33 1_555 1_555
C33 C37 1_555 1_555
C36 C37 1_555 1_555
C39 C40 1_555 1_555

#END
