
#######################################################################
#
#                 Cambridge Crystallographic Data Centre
#                                CCDC 
#
#######################################################################
#
# If this CIF has been generated from an entry in the Cambridge 
# Structural Database, then it will include bibliographic, chemical, 
# crystal, experimental, refinement or atomic coordinate data resulting 
# from the CCDC's data processing and validation procedures.
#
#######################################################################

data_LUJRAJ
_symmetry_cell_setting           monoclinic
_symmetry_space_group_name_H-M   'P 21/n'
_symmetry_Int_Tables_number      14
_space_group_name_Hall           '-P 2yn'
loop_
_symmetry_equiv_pos_site_id
_symmetry_equiv_pos_as_xyz
1 x,y,z
2 1/2+x,1/2-y,1/2+z
3 -x,-y,-z
4 1/2-x,1/2+y,1/2-z
_cell_length_a                   12.558(7)
_cell_length_b                   8.086(7)
_cell_length_c                   24.48(2)
_cell_angle_alpha                90
_cell_angle_beta                 98.07(1)
_cell_angle_gamma                90
_cell_volume                     2461.18
loop_
_atom_site_label
_atom_site_type_symbol
_atom_site_fract_x
_atom_site_fract_y
_atom_site_fract_z
Cu1 Cu 0.33052(5) 0.09919(9) 0.06506(3)
O1 O 0.4580(3) 0.2675(6) 0.14135(18)
O2 O 0.4828(3) 0.0477(5) 0.08866(16)
O3 O 1.2795(3) 0.9697(5) 0.12397(16)
O4 O 1.2865(3) 0.7862(5) 0.05589(16)
O5 O 0.9479(3) 0.0638(5) 0.23257(17)
O6 O 1.1115(3) 0.3029(5) 0.23034(17)
N1 N 0.1760(4) 0.1719(6) 0.03679(19)
N2 N 0.3622(4) 0.2368(6) -0.00060(17)
C1 C 0.5160(5) 0.1510(8) 0.1277(2)
C2 C 0.6304(4) 0.1300(7) 0.1562(2)
C3 C 0.6640(4) 0.2151(8) 0.2054(2)
H1 H 0.6140 0.2848 0.2208
C4 C 0.7708(5) 0.1986(8) 0.2320(2)
H2 H 0.7948 0.2582 0.2654
C5 C 0.8429(4) 0.0941(8) 0.2096(2)
C6 C 0.8091(5) 0.0094(8) 0.1600(3)
H3 H 0.8591 -0.0584 0.1438
C7 C 0.7034(5) 0.0268(8) 0.1344(3)
H4 H 0.6796 -0.0333 0.1011
C8 C 0.9948(5) 0.1553(9) 0.2806(3)
H5 H 1.0563 0.0959 0.2984
H6 H 0.9434 0.1629 0.3060
C9 C 1.0316(5) 0.3282(8) 0.2660(2)
H7 H 0.9718 0.3894 0.2473
H8 H 1.0613 0.3875 0.2986
C10 C 1.1486(5) 0.4373(7) 0.2038(2)
C11 C 1.1294(5) 0.6045(8) 0.2153(2)
H9 H 1.0883 0.6326 0.2442
C12 C 1.1694(5) 0.7276(8) 0.1836(2)
H10 H 1.1589 0.8418 0.1922
C13 C 1.2260(4) 0.6888(7) 0.1397(2)
C14 C 1.2471(5) 0.5198(8) 0.1295(2)
H11 H 1.2866 0.4916 0.0999
C15 C 1.2103(5) 0.3958(8) 0.1618(2)
H12 H 1.2273 0.2819 0.1562
C16 C 1.2659(4) 0.8200(8) 0.1036(2)
C17 C 0.0844(5) 0.1382(8) 0.0569(3)
H13 H 0.0882 0.0736 0.0900
C18 C -0.0159(5) 0.1933(9) 0.0314(3)
H14 H -0.0798 0.1647 0.0467
C19 C -0.0227(5) 0.2879(9) -0.0157(3)
H15 H -0.0911 0.3273 -0.0333
C20 C 0.0720(5) 0.3284(8) -0.0383(3)
C21 C 0.1699(4) 0.2672(7) -0.0102(2)
C22 C 0.0763(7) 0.4303(9) -0.0869(3)
H16 H 0.0103 0.4707 -0.1069
C23 C 0.1710(7) 0.4701(9) -0.1044(3)
H17 H 0.1711 0.5389 -0.1363
C24 C 0.2736(6) 0.4109(8) -0.0763(2)
C25 C 0.2714(5) 0.3075(7) -0.0294(2)
C26 C 0.3763(7) 0.4438(8) -0.0919(3)
H18 H 0.3821 0.5157 -0.1225
C27 C 0.4668(6) 0.3739(8) -0.0629(3)
H19 H 0.5360 0.3973 -0.0734
C28 C 0.4584(5) 0.2681(8) -0.0171(2)
H20 H 0.5218 0.2166 0.0020
O3_2 O 0.2795(3) -0.0303(5) 0.12397(16)
Cu1_2 Cu 1.33052(5) 1.09919(9) 0.06506(3)
loop_
_geom_bond_atom_site_label_1
_geom_bond_atom_site_label_2
_geom_bond_site_symmetry_1
_geom_bond_site_symmetry_2
Cu1 O2 1_555 1_555
O1 C1 1_555 1_555
O2 C1 1_555 1_555
O3 C16 1_555 1_555
O4 C16 1_555 1_555
O5 C5 1_555 1_555
O6 C9 1_555 1_555
N1 Cu1 1_555 1_555
N2 Cu1 1_555 1_555
C1 C2 1_555 1_555
C2 C3 1_555 1_555
C3 H1 1_555 1_555
C4 C3 1_555 1_555
H2 C4 1_555 1_555
C5 C4 1_555 1_555
C6 C5 1_555 1_555
H3 C6 1_555 1_555
C7 C2 1_555 1_555
H4 C7 1_555 1_555
C8 O5 1_555 1_555
H5 C8 1_555 1_555
H6 C8 1_555 1_555
C9 C8 1_555 1_555
H7 C9 1_555 1_555
H8 C9 1_555 1_555
C10 O6 1_555 1_555
C11 C10 1_555 1_555
H9 C11 1_555 1_555
C12 C11 1_555 1_555
H10 C12 1_555 1_555
C13 C12 1_555 1_555
C14 C13 1_555 1_555
H11 C14 1_555 1_555
C15 C10 1_555 1_555
H12 C15 1_555 1_555
C16 C13 1_555 1_555
C17 N1 1_555 1_555
H13 C17 1_555 1_555
C18 C17 1_555 1_555
H14 C18 1_555 1_555
C19 C18 1_555 1_555
H15 C19 1_555 1_555
C20 C19 1_555 1_555
C21 N1 1_555 1_555
C22 C20 1_555 1_555
H16 C22 1_555 1_555
C23 C22 1_555 1_555
H17 C23 1_555 1_555
C24 C23 1_555 1_555
C25 N2 1_555 1_555
C26 C24 1_555 1_555
H18 C26 1_555 1_555
C27 C26 1_555 1_555
H19 C27 1_555 1_555
C28 N2 1_555 1_555
H20 C28 1_555 1_555
O3_2 Cu1 1_555 1_555
Cu1_2 O3 1_555 1_555
C6 C7 1_555 1_555
C14 C15 1_555 1_555
C20 C21 1_555 1_555
C21 C25 1_555 1_555
C24 C25 1_555 1_555
C27 C28 1_555 1_555

#END
