
#######################################################################
#
#                 Cambridge Crystallographic Data Centre
#                                CCDC 
#
#######################################################################
#
# If this CIF has been generated from an entry in the Cambridge 
# Structural Database, then it will include bibliographic, chemical, 
# crystal, experimental, refinement or atomic coordinate data resulting 
# from the CCDC's data processing and validation procedures.
#
#######################################################################

data_LUJSIS
_symmetry_cell_setting           orthorhombic
_symmetry_space_group_name_H-M   'P n n a'
_symmetry_Int_Tables_number      52
_space_group_name_Hall           '-P 2a 2bc'
loop_
_symmetry_equiv_pos_site_id
_symmetry_equiv_pos_as_xyz
1 x,y,z
2 1/2+x,y,-z
3 1/2+x,1/2-y,1/2+z
4 -x,1/2+y,1/2+z
5 -x,-y,-z
6 1/2-x,-y,z
7 1/2-x,1/2+y,1/2-z
8 x,1/2-y,1/2-z
_cell_length_a                   17.4461(22)
_cell_length_b                   9.6788(12)
_cell_length_c                   13.8081(18)
_cell_angle_alpha                90
_cell_angle_beta                 90
_cell_angle_gamma                90
_cell_volume                     2331.6
loop_
_atom_site_label
_atom_site_type_symbol
_atom_site_fract_x
_atom_site_fract_y
_atom_site_fract_z
Ag1 Ag 0.7500 0.5000 0.50058(6)
N1 N 0.6687(3) 0.3292(5) 0.5404(4)
N2 N 0.6485(3) 0.4946(6) 0.3810(4)
C1 C 0.6763(4) 0.2457(8) 0.6166(5)
H1 H 0.7217 0.2518 0.6542
C2 C 0.6211(5) 0.1506(7) 0.6432(5)
H2 H 0.6286 0.0934 0.6983
C3 C 0.5561(5) 0.1396(8) 0.5898(6)
H3 H 0.5173 0.0752 0.6072
C4 C 0.5473(4) 0.2228(8) 0.5105(6)
H4 H 0.5021 0.2174 0.4724
C5 C 0.6049(4) 0.3151(6) 0.4861(5)
C6 C 0.5999(4) 0.3999(7) 0.3987(5)
H5 H 0.5594 0.3839 0.3540
C7 C 0.6463(4) 0.5666(7) 0.2917(5)
C8 C 0.6483(4) 0.4970(8) 0.2042(5)
H6 H 0.6477 0.3989 0.2031
C9 C 0.6513(4) 0.5712(8) 0.1170(5)
H7 H 0.6537 0.5228 0.0572
C10 C 0.6509(4) 0.7122(7) 0.1172(5)
H8 H 0.6516 0.7608 0.0575
C11 C 0.6494(3) 0.7130(7) 0.2945(5)
C11G C 0.6494(3) 0.7870(7) 0.2055(5)
C7G C 0.6463(4) 0.9334(7) 0.2083(5)
N2G N 0.6485(3) 1.0054(6) 0.1190(4)
C6G C 0.5999(4) 1.1001(7) 0.1013(5)
C5G C 0.6049(4) 1.1849(6) 0.0139(5)
N1G N 0.6687(3) 1.1708(5) -0.0404(4)
C1G C 0.6763(4) 1.2543(8) -0.1166(5)
H1G H 0.7217 1.2482 -0.1542
C2G C 0.6211(5) 1.3494(7) -0.1432(5)
H2G H 0.6286 1.4066 -0.1983
C3G C 0.5561(5) 1.3604(8) -0.0898(6)
H3G H 0.5173 1.4248 -0.1072
C4G C 0.5473(4) 1.2772(8) -0.0105(6)
H4G H 0.5021 1.2826 0.0276
H5G H 0.5594 1.1161 0.1460
C8G C 0.6483(4) 1.0030(8) 0.2958(5)
H6G H 0.6477 1.1011 0.2969
C9G C 0.6513(4) 0.9288(8) 0.3830(5)
H7G H 0.6537 0.9772 0.4428
C10G C 0.6509(4) 0.7878(7) 0.3828(5)
H8G H 0.6516 0.7392 0.4425
N1E N 0.8313(3) 0.6708(5) 0.5404(4)
N2E N 0.8515(3) 0.5054(6) 0.3810(4)
Ag1F Ag 0.7500 1.0000 -0.00058(6)
P1 P 0.39322(17) 0.2500 0.2500
F1 F 0.3271(3) 0.1385(5) 0.2499(5)
F2 F 0.4583(4) 0.1476(8) 0.2691(7)
F3 F 0.3891(5) 0.2556(15) 0.3607(5)
F1G F 0.3271(3) 0.3615(5) 0.2501(5)
F2G F 0.4583(4) 0.3524(8) 0.2309(7)
F3G F 0.3891(5) 0.2444(15) 0.1393(5)
loop_
_geom_bond_atom_site_label_1
_geom_bond_atom_site_label_2
_geom_bond_site_symmetry_1
_geom_bond_site_symmetry_2
Ag1 N1 1_555 1_555
P1 F1 1_555 1_555
F2 P1 1_555 1_555
F3 P1 1_555 1_555
N1 C1 1_555 1_555
N2 Ag1 1_555 1_555
C1 H1 1_555 1_555
C2 C1 1_555 1_555
H2 C2 1_555 1_555
C3 C2 1_555 1_555
H3 C3 1_555 1_555
C4 C3 1_555 1_555
H4 C4 1_555 1_555
C5 N1 1_555 1_555
C6 N2 1_555 1_555
H5 C6 1_555 1_555
C7 N2 1_555 1_555
C8 C7 1_555 1_555
H6 C8 1_555 1_555
C9 C8 1_555 1_555
H7 C9 1_555 1_555
C10 C9 1_555 1_555
H8 C10 1_555 1_555
C11 C7 1_555 1_555
F1G P1 1_555 1_555
F2G P1 1_555 1_555
F3G P1 1_555 1_555
C11G C10 1_555 1_555
C7G C11G 1_555 1_555
N2G C7G 1_555 1_555
C6G N2G 1_555 1_555
C5G C6G 1_555 1_555
N1G C5G 1_555 1_555
C1G N1G 1_555 1_555
H1G C1G 1_555 1_555
C2G C1G 1_555 1_555
H2G C2G 1_555 1_555
C3G C2G 1_555 1_555
H3G C3G 1_555 1_555
C4G C5G 1_555 1_555
H4G C4G 1_555 1_555
H5G C6G 1_555 1_555
C8G C7G 1_555 1_555
H6G C8G 1_555 1_555
C9G C8G 1_555 1_555
H7G C9G 1_555 1_555
C10G C11 1_555 1_555
H8G C10G 1_555 1_555
N1E Ag1 1_555 1_555
N2E Ag1 1_555 1_555
Ag1F N2G 1_555 1_555
C4 C5 1_555 1_555
C5 C6 1_555 1_555
C11 C11G 1_555 1_555
N1G Ag1F 1_555 1_555
C3G C4G 1_555 1_555
C9G C10G 1_555 1_555

#END
