
#######################################################################
#
#                 Cambridge Crystallographic Data Centre
#                                CCDC 
#
#######################################################################
#
# If this CIF has been generated from an entry in the Cambridge 
# Structural Database, then it will include bibliographic, chemical, 
# crystal, experimental, refinement or atomic coordinate data resulting 
# from the CCDC's data processing and validation procedures.
#
#######################################################################

data_LUJSUE01
_symmetry_cell_setting           monoclinic
_symmetry_space_group_name_H-M   'P 21/n'
_symmetry_Int_Tables_number      14
_space_group_name_Hall           '-P 2yn'
loop_
_symmetry_equiv_pos_site_id
_symmetry_equiv_pos_as_xyz
1 x,y,z
2 1/2+x,1/2-y,1/2+z
3 -x,-y,-z
4 1/2-x,1/2+y,1/2-z
_cell_length_a                   14.134(3)
_cell_length_b                   9.4785(17)
_cell_length_c                   17.633(3)
_cell_angle_alpha                90
_cell_angle_beta                 94.883(5)
_cell_angle_gamma                90
_cell_volume                     2353.7
loop_
_atom_site_label
_atom_site_type_symbol
_atom_site_fract_x
_atom_site_fract_y
_atom_site_fract_z
Ag1 Ag -0.50172(4) 0.45995(5) -0.76647(2)
N1 N -0.5428(4) 0.6406(5) -0.8460(3)
C1 C -0.6177(5) 0.7243(7) -0.8431(4)
H1 H -0.6568 0.7116 -0.8024
C2 C -0.6420(5) 0.8277(7) -0.8952(4)
H2 H -0.6950 0.8869 -0.8889
C3 C -0.5901(5) 0.8457(7) -0.9561(4)
H3 H -0.6066 0.9157 -0.9935
C4 C -0.5126(5) 0.7583(6) -0.9616(3)
H4 H -0.4746 0.7674 -1.0033
C5 C -0.4906(4) 0.6578(6) -0.9062(3)
C6 C -0.4054(4) 0.5699(6) -0.9094(3)
H5 H -0.3624 0.5879 -0.9468
N2 N -0.3893(3) 0.4698(5) -0.8623(2)
C7 C -0.3020(4) 0.3957(6) -0.8603(3)
C8 C -0.2174(5) 0.4647(7) -0.8635(3)
H6 H -0.2170 0.5641 -0.8703
C9 C -0.1321(5) 0.3909(7) -0.8570(3)
H7 H -0.0739 0.4407 -0.8579
C10 C -0.1312(4) 0.2490(6) -0.8494(3)
H8 H -0.0721 0.2005 -0.8462
C11 C -0.2166(5) 0.1707(6) -0.8461(3)
C12 C -0.3040(4) 0.2450(6) -0.8499(3)
C13 C -0.3885(5) 0.1700(7) -0.8440(3)
H9 H -0.4471 0.2193 -0.8452
C14 C -0.3872(5) 0.0269(7) -0.8364(3)
H10 H -0.4448 -0.0228 -0.8319
C15 C -0.3009(4) -0.0477(7) -0.8353(3)
H11 H -0.3009 -0.1476 -0.8311
C16 C -0.2183(4) 0.0220(6) -0.8400(3)
N3 N -0.1288(3) -0.0478(5) -0.8361(2)
C17 C -0.1156(4) -0.1434(6) -0.8843(3)
H12 H -0.1646 -0.1650 -0.9228
C18 C -0.0256(5) -0.2210(6) -0.8812(3)
C19 C -0.0055(5) -0.3073(6) -0.9405(3)
H13 H -0.0492 -0.3156 -0.9842
C20 C 0.0782(5) -0.3812(7) -0.9359(4)
H14 H 0.0937 -0.4398 -0.9767
C21 C 0.1397(5) -0.3691(7) -0.8709(4)
H15 H 0.1968 -0.4224 -0.8652
C22 C 0.1163(5) -0.2780(7) -0.8147(3)
H16 H 0.1596 -0.2675 -0.7708
N4 N 0.0358(4) -0.2037(5) -0.8186(3)
N3C N -0.3712(3) 0.4522(5) -0.6639(2)
N4C N -0.5358(4) 0.2963(5) -0.6814(3)
Ag1C Ag 0.00172(4) -0.04005(5) -0.73353(2)
S1 S -0.22575(13) 0.22705(18) -0.40422(9)
O1 O -0.2684(3) 0.1575(4) -0.4710(2)
O2 O -0.2103(4) 0.1373(5) -0.3388(2)
O3 O -0.1494(4) 0.3204(5) -0.4151(3)
C23 C -0.3193(6) 0.3441(8) -0.3775(4)
F1 F -0.3948(3) 0.2722(5) -0.3632(3)
F2 F -0.3435(3) 0.4355(5) -0.4325(2)
F3 F -0.2909(3) 0.4199(4) -0.31610(19)
loop_
_geom_bond_atom_site_label_1
_geom_bond_atom_site_label_2
_geom_bond_site_symmetry_1
_geom_bond_site_symmetry_2
Ag1 N1 1_555 1_555
N1 C1 1_555 1_555
C1 H1 1_555 1_555
C2 C1 1_555 1_555
H2 C2 1_555 1_555
C3 C2 1_555 1_555
H3 C3 1_555 1_555
C4 C3 1_555 1_555
H4 C4 1_555 1_555
C5 N1 1_555 1_555
C6 C5 1_555 1_555
H5 C6 1_555 1_555
N2 Ag1 1_555 1_555
C7 N2 1_555 1_555
C8 C7 1_555 1_555
H6 C8 1_555 1_555
C9 C8 1_555 1_555
H7 C9 1_555 1_555
C10 C9 1_555 1_555
H8 C10 1_555 1_555
C11 C10 1_555 1_555
C12 C7 1_555 1_555
C13 C12 1_555 1_555
H9 C13 1_555 1_555
C14 C13 1_555 1_555
H10 C14 1_555 1_555
C15 C14 1_555 1_555
H11 C15 1_555 1_555
C16 C11 1_555 1_555
N3 C16 1_555 1_555
C17 N3 1_555 1_555
H12 C17 1_555 1_555
C18 C17 1_555 1_555
C19 C18 1_555 1_555
H13 C19 1_555 1_555
C20 C19 1_555 1_555
H14 C20 1_555 1_555
C21 C20 1_555 1_555
H15 C21 1_555 1_555
C22 C21 1_555 1_555
H16 C22 1_555 1_555
N4 C18 1_555 1_555
S1 O1 1_555 1_555
O2 S1 1_555 1_555
O3 S1 1_555 1_555
C23 S1 1_555 1_555
F1 C23 1_555 1_555
F2 C23 1_555 1_555
F3 C23 1_555 1_555
N3C Ag1 1_555 1_555
N4C Ag1 1_555 1_555
Ag1C N3 1_555 1_555
C4 C5 1_555 1_555
C6 N2 1_555 1_555
C11 C12 1_555 1_555
C15 C16 1_555 1_555
C22 N4 1_555 1_555
N4 Ag1C 1_555 1_555

#END
