
#######################################################################
#
#                 Cambridge Crystallographic Data Centre
#                                CCDC 
#
#######################################################################
#
# If this CIF has been generated from an entry in the Cambridge 
# Structural Database, then it will include bibliographic, chemical, 
# crystal, experimental, refinement or atomic coordinate data resulting 
# from the CCDC's data processing and validation procedures.
#
#######################################################################

data_LUJTIT
_symmetry_cell_setting           monoclinic
_symmetry_space_group_name_H-M   'P 21/c'
_symmetry_Int_Tables_number      14
_space_group_name_Hall           '-P 2ybc'
loop_
_symmetry_equiv_pos_site_id
_symmetry_equiv_pos_as_xyz
1 x,y,z
2 x,1/2-y,1/2+z
3 -x,-y,-z
4 -x,1/2+y,1/2-z
_cell_length_a                   7.9395(3)
_cell_length_b                   36.786(2)
_cell_length_c                   12.7184(5)
_cell_angle_alpha                90
_cell_angle_beta                 91.804(3)
_cell_angle_gamma                90
_cell_volume                     3712.73
loop_
_atom_site_label
_atom_site_type_symbol
_atom_site_fract_x
_atom_site_fract_y
_atom_site_fract_z
Cu1 Cu 0.0000 0.5000 0.5000
Cu2 Cu 0.5000 0.5000 0.5000
N1 N 0.1562(3) 0.53117(7) 0.5917(2)
N2 N 0.3311(3) 0.53082(8) 0.5966(2)
C1 C 0.3766(5) 0.5564(1) 0.6623(3)
N3 N 0.2435(4) 0.57346(8) 0.7002(2)
C2 C 0.1078(5) 0.5570(1) 0.6544(3)
C3 C 0.2439(5) 0.6070(1) 0.7641(3)
C4 C 0.2815(7) 0.6401(1) 0.7003(4)
C5 C 0.1793(8) 0.6458(1) 0.6024(4)
O2 O 0.2205(4) 0.62070(8) 0.5216(2)
N4 N 0.1364(3) 0.51201(8) 0.3715(2)
N5 N 0.3106(4) 0.51079(8) 0.3680(2)
C6 C 0.3460(5) 0.5187(1) 0.2712(3)
N6 N 0.2054(4) 0.52480(8) 0.2122(2)
C7 C 0.0799(5) 0.5205(1) 0.2781(3)
C8 C 0.1961(5) 0.5361(1) 0.1006(3)
C9 C 0.2423(5) 0.5062(1) 0.0275(3)
C10 C 0.2502(5) 0.5199(1) -0.0832(3)
O3 O 0.2726(4) 0.49242(9) -0.1598(2)
N7 N 0.1996(3) 0.45156(8) 0.5330(2)
N8 N 0.3737(3) 0.45371(7) 0.5331(2)
C11 C 0.4301(5) 0.4207(1) 0.5426(3)
N9 N 0.3056(4) 0.39661(8) 0.5475(3)
C12 C 0.1638(5) 0.4172(1) 0.5430(3)
C13 C 0.3172(8) 0.3564(1) 0.5482(4)
C14 C 0.371(1) 0.3396(2) 0.6400(6)
C15 C 0.2863(7) 0.3441(1) 0.7426(4)
O4 O 0.2668(5) 0.38099(9) 0.7712(3)
H3 H 0.476(3) 0.5612(7) 0.678(2)
H4 H -0.007(3) 0.5632(7) 0.669(2)
H5 H 0.328(4) 0.6042(8) 0.821(2)
H6 H 0.141(4) 0.6083(8) 0.789(2)
H7 H 0.268(4) 0.6609(9) 0.748(2)
H8 H 0.394(4) 0.6385(9) 0.676(3)
H9 H 0.207(5) 0.671(1) 0.577(3)
H10 H 0.057(5) 0.642(1) 0.622(3)
H11 H 0.195(5) 0.631(1) 0.448(3)
H12 H 0.453(4) 0.5202(8) 0.245(2)
H13 H -0.021(3) 0.5231(7) 0.262(2)
H14 H 0.090(4) 0.5449(8) 0.088(2)
H15 H 0.278(4) 0.5551(8) 0.098(2)
H16 H 0.162(4) 0.4870(8) 0.031(2)
H17 H 0.338(4) 0.4984(8) 0.048(2)
H18 H 0.150(4) 0.5308(8) -0.103(2)
H19 H 0.332(4) 0.5378(8) -0.090(2)
H20 H 0.331(4) 0.4691(9) -0.127(2)
H21 H 0.537(4) 0.4149(8) 0.542(2)
H22 H 0.050(4) 0.4078(8) 0.546(2)
H23 H 0.195(4) 0.344(1) 0.548(3)
H24 H 0.380(4) 0.3472(8) 0.483(2)
H25 H 0.379(4) 0.3109(9) 0.629(2)
H26 H 0.513(4) 0.356(1) 0.643(3)
H27 H 0.172(4) 0.3298(9) 0.747(2)
H28 H 0.356(4) 0.3294(9) 0.800(2)
H29 H 0.147(4) 0.3885(8) 0.806(2)
N1B N -0.1562(3) 0.46883(7) 0.4083(2)
N2B N -0.3311(3) 0.46918(8) 0.4034(2)
C1B C -0.3766(5) 0.4436(1) 0.3377(3)
N3B N -0.2435(4) 0.42654(8) 0.2998(2)
C2B C -0.1078(5) 0.4430(1) 0.3456(3)
C3B C -0.2439(5) 0.3930(1) 0.2359(3)
C4B C -0.2815(7) 0.3599(1) 0.2997(4)
C5B C -0.1793(8) 0.3542(1) 0.3976(4)
O2B O -0.2205(4) 0.37930(8) 0.4784(2)
H3B H -0.476(3) 0.4388(7) 0.322(2)
H4B H 0.007(3) 0.4368(7) 0.331(2)
H5B H -0.328(4) 0.3958(8) 0.179(2)
H6B H -0.141(4) 0.3917(8) 0.211(2)
H7B H -0.268(4) 0.3391(9) 0.252(2)
H8B H -0.394(4) 0.3615(9) 0.324(3)
H9B H -0.207(5) 0.329(1) 0.423(3)
H10B H -0.057(5) 0.358(1) 0.378(3)
H11B H -0.195(5) 0.369(1) 0.552(3)
N4B N -0.1364(3) 0.48799(8) 0.6285(2)
N5B N -0.3106(4) 0.48921(8) 0.6320(2)
C6B C -0.3460(5) 0.4813(1) 0.7288(3)
N6B N -0.2054(4) 0.47520(8) 0.7878(2)
C7B C -0.0799(5) 0.4795(1) 0.7219(3)
C8B C -0.1961(5) 0.4639(1) 0.8994(3)
C9B C -0.2423(5) 0.4938(1) 0.9725(3)
C10B C -0.2502(5) 0.4801(1) 1.0832(3)
O3B O -0.2726(4) 0.50758(9) 1.1598(2)
H12B H -0.453(4) 0.4798(8) 0.755(2)
H13B H 0.021(3) 0.4769(7) 0.738(2)
H14B H -0.090(4) 0.4551(8) 0.912(2)
H15B H -0.278(4) 0.4449(8) 0.902(2)
H16B H -0.162(4) 0.5130(8) 0.969(2)
H17B H -0.338(4) 0.5016(8) 0.952(2)
H18B H -0.150(4) 0.4692(8) 1.103(2)
H19B H -0.332(4) 0.4622(8) 1.090(2)
H20B H -0.331(4) 0.5309(9) 1.127(2)
N7B N -0.1996(3) 0.54844(8) 0.4670(2)
N8B N -0.3737(3) 0.54629(7) 0.4669(2)
C11B C -0.4301(5) 0.5793(1) 0.4574(3)
N9B N -0.3056(4) 0.60339(8) 0.4525(3)
C12B C -0.1638(5) 0.5828(1) 0.4570(3)
C13B C -0.3172(8) 0.6436(1) 0.4518(4)
C14B C -0.371(1) 0.6604(2) 0.3600(6)
C15B C -0.2863(7) 0.6559(1) 0.2574(4)
O4B O -0.2668(5) 0.61901(9) 0.2288(3)
H21B H -0.537(4) 0.5851(8) 0.458(2)
H22B H -0.050(4) 0.5922(8) 0.454(2)
H23B H -0.195(4) 0.656(1) 0.452(3)
H24B H -0.380(4) 0.6528(8) 0.517(2)
H25B H -0.379(4) 0.6891(9) 0.371(2)
H26B H -0.513(4) 0.644(1) 0.357(3)
H27B H -0.172(4) 0.6702(9) 0.253(2)
H28B H -0.356(4) 0.6706(9) 0.200(2)
H29B H -0.147(4) 0.6115(8) 0.194(2)
N2B_2 N 0.6689(3) 0.46918(8) 0.4034(2)
N5B_2 N 0.6894(4) 0.48921(8) 0.6320(2)
N8B_2 N 0.6263(3) 0.54629(7) 0.4669(2)
Cu2_2 Cu -0.5000 0.5000 0.5000
O1 O 0.4155(5) 0.43069(9) 0.9095(3)
H1 H 0.372(4) 0.4101(8) 0.866(2)
H2 H 0.378(4) 0.4204(8) 0.980(2)
C16 C 0.1741(5) 0.3556(1) 0.1505(3)
C17 C 0.1932(5) 0.3304(1) 0.2297(3)
C18 C 0.1399(5) 0.2953(1) 0.2147(3)
C19 C 0.0651(6) 0.2845(1) 0.1211(3)
C20 C 0.0487(6) 0.3096(1) 0.0409(3)
C21 C 0.1014(6) 0.3448(1) 0.0547(3)
S1 S 0.2402(1) 0.40154(3) 0.17057(8)
O5 O 0.2632(4) 0.40559(8) 0.2835(2)
O6 O 0.3960(4) 0.40509(9) 0.1151(2)
O7 O 0.1052(4) 0.42353(8) 0.1265(3)
N10 N 0.1667(6) 0.2703(1) 0.3034(3)
O8 O 0.1548(6) 0.2835(1) 0.3920(3)
O9 O 0.2087(8) 0.2398(1) 0.2877(4)
Cl1 Cl -0.0172(2) 0.24147(3) 0.1006(1)
H30 H 0.241(3) 0.3359(8) 0.288(2)
H31 H -0.004(4) 0.3028(9) -0.014(3)
H32 H 0.089(4) 0.3606(9) 0.007(2)
C22 C 0.2831(5) 0.6609(1) 0.1543(3)
C23 C 0.2839(6) 0.6974(1) 0.1786(3)
C24 C 0.3545(6) 0.7217(1) 0.1103(4)
C25 C 0.4261(6) 0.7105(1) 0.0186(4)
C26 C 0.4247(6) 0.6737(1) -0.0053(4)
C27 C 0.3554(6) 0.6493(1) 0.0617(4)
S2 S 0.1916(2) 0.62864(3) 0.23965(9)
O10 O 0.1337(5) 0.64958(8) 0.3286(2)
O11 O 0.3224(4) 0.60277(8) 0.2673(3)
O12 O 0.0550(4) 0.61283(9) 0.1762(3)
N11 N 0.3510(5) 0.7602(1) 0.1454(4)
O13 O 0.2271(6) 0.7700(1) 0.1918(4)
O14 O 0.4611(7) 0.7798(1) 0.1266(6)
Cl2 Cl 0.5117(2) 0.73978(5) -0.0713(1)
H33 H 0.236(4) 0.7051(8) 0.241(2)
H34 H 0.472(4) 0.666(1) -0.068(3)
H35 H 0.350(4) 0.6261(9) 0.046(2)
loop_
_geom_bond_atom_site_label_1
_geom_bond_atom_site_label_2
_geom_bond_site_symmetry_1
_geom_bond_site_symmetry_2
Cu1 N1 1_555 1_555
Cu2 N2 1_555 1_555
O1 H1 1_555 1_555
N1 N2 1_555 1_555
N2 C1 1_555 1_555
C1 N3 1_555 1_555
N3 C2 1_555 1_555
C2 N1 1_555 1_555
C3 N3 1_555 1_555
C4 C3 1_555 1_555
C5 C4 1_555 1_555
O2 C5 1_555 1_555
N4 Cu1 1_555 1_555
N5 Cu2 1_555 1_555
C6 N5 1_555 1_555
N6 C6 1_555 1_555
C7 N4 1_555 1_555
C8 N6 1_555 1_555
C9 C8 1_555 1_555
C10 C9 1_555 1_555
O3 C10 1_555 1_555
N7 Cu1 1_555 1_555
N8 Cu2 1_555 1_555
C11 N8 1_555 1_555
N9 C11 1_555 1_555
C12 N7 1_555 1_555
C13 N9 1_555 1_555
C14 C13 1_555 1_555
C15 C14 1_555 1_555
O4 C15 1_555 1_555
C16 C17 1_555 1_555
C17 C18 1_555 1_555
C18 C19 1_555 1_555
C19 C20 1_555 1_555
C20 C21 1_555 1_555
C21 C16 1_555 1_555
S1 C16 1_555 1_555
O5 S1 1_555 1_555
O6 S1 1_555 1_555
O7 S1 1_555 1_555
N10 C18 1_555 1_555
O8 N10 1_555 1_555
O9 N10 1_555 1_555
Cl1 C19 1_555 1_555
C22 C23 1_555 1_555
C23 C24 1_555 1_555
C24 C25 1_555 1_555
C25 C26 1_555 1_555
C26 C27 1_555 1_555
C27 C22 1_555 1_555
S2 C22 1_555 1_555
O10 S2 1_555 1_555
O11 S2 1_555 1_555
O12 S2 1_555 1_555
N11 C24 1_555 1_555
O13 N11 1_555 1_555
O14 N11 1_555 1_555
Cl2 C25 1_555 1_555
H2 O1 1_555 1_555
H3 C1 1_555 1_555
H4 C2 1_555 1_555
H5 C3 1_555 1_555
H6 C3 1_555 1_555
H7 C4 1_555 1_555
H8 C4 1_555 1_555
H9 C5 1_555 1_555
H10 C5 1_555 1_555
H11 O2 1_555 1_555
H12 C6 1_555 1_555
H13 C7 1_555 1_555
H14 C8 1_555 1_555
H15 C8 1_555 1_555
H16 C9 1_555 1_555
H17 C9 1_555 1_555
H18 C10 1_555 1_555
H19 C10 1_555 1_555
H20 O3 1_555 1_555
H21 C11 1_555 1_555
H22 C12 1_555 1_555
H23 C13 1_555 1_555
H24 C13 1_555 1_555
H25 C14 1_555 1_555
H26 C14 1_555 1_555
H27 C15 1_555 1_555
H28 C15 1_555 1_555
H29 O4 1_555 1_555
H30 C17 1_555 1_555
H31 C20 1_555 1_555
H32 C21 1_555 1_555
H33 C23 1_555 1_555
H34 C26 1_555 1_555
H35 C27 1_555 1_555
N1B Cu1 1_555 1_555
N2B N1B 1_555 1_555
C1B N2B 1_555 1_555
N3B C1B 1_555 1_555
C2B N1B 1_555 1_555
C3B N3B 1_555 1_555
C4B C3B 1_555 1_555
C5B C4B 1_555 1_555
O2B C5B 1_555 1_555
H3B C1B 1_555 1_555
H4B C2B 1_555 1_555
H5B C3B 1_555 1_555
H6B C3B 1_555 1_555
H7B C4B 1_555 1_555
H8B C4B 1_555 1_555
H9B C5B 1_555 1_555
H10B C5B 1_555 1_555
H11B O2B 1_555 1_555
N4B Cu1 1_555 1_555
N5B N4B 1_555 1_555
C6B N5B 1_555 1_555
N6B C6B 1_555 1_555
C7B N4B 1_555 1_555
C8B N6B 1_555 1_555
C9B C8B 1_555 1_555
C10B C9B 1_555 1_555
O3B C10B 1_555 1_555
H12B C6B 1_555 1_555
H13B C7B 1_555 1_555
H14B C8B 1_555 1_555
H15B C8B 1_555 1_555
H16B C9B 1_555 1_555
H17B C9B 1_555 1_555
H18B C10B 1_555 1_555
H19B C10B 1_555 1_555
H20B O3B 1_555 1_555
N7B Cu1 1_555 1_555
N8B N7B 1_555 1_555
C11B N8B 1_555 1_555
N9B C11B 1_555 1_555
C12B N7B 1_555 1_555
C13B N9B 1_555 1_555
C14B C13B 1_555 1_555
C15B C14B 1_555 1_555
O4B C15B 1_555 1_555
H21B C11B 1_555 1_555
H22B C12B 1_555 1_555
H23B C13B 1_555 1_555
H24B C13B 1_555 1_555
H25B C14B 1_555 1_555
H26B C14B 1_555 1_555
H27B C15B 1_555 1_555
H28B C15B 1_555 1_555
H29B O4B 1_555 1_555
N2B_2 Cu2 1_555 1_555
N5B_2 Cu2 1_555 1_555
N8B_2 Cu2 1_555 1_555
Cu2_2 N2B 1_555 1_555
N4 N5 1_555 1_555
N6 C7 1_555 1_555
N7 N8 1_555 1_555
N9 C12 1_555 1_555
N3B C2B 1_555 1_555
N5B Cu2_2 1_555 1_555
N6B C7B 1_555 1_555
N8B Cu2_2 1_555 1_555
N9B C12B 1_555 1_555

#END
