
#######################################################################
#
#                 Cambridge Crystallographic Data Centre
#                                CCDC 
#
#######################################################################
#
# If this CIF has been generated from an entry in the Cambridge 
# Structural Database, then it will include bibliographic, chemical, 
# crystal, experimental, refinement or atomic coordinate data resulting 
# from the CCDC's data processing and validation procedures.
#
#######################################################################

data_LUJYAQ
_symmetry_cell_setting           triclinic
_symmetry_space_group_name_H-M   'P -1'
_symmetry_Int_Tables_number      2
_space_group_name_Hall           '-P 1'
loop_
_symmetry_equiv_pos_site_id
_symmetry_equiv_pos_as_xyz
1 x,y,z
2 -x,-y,-z
_cell_length_a                   7.8824(5)
_cell_length_b                   10.6119(7)
_cell_length_c                   11.3590(7)
_cell_angle_alpha                107.787(1)
_cell_angle_beta                 105.384(1)
_cell_angle_gamma                98.806(1)
_cell_volume                     843.471
loop_
_atom_site_label
_atom_site_type_symbol
_atom_site_fract_x
_atom_site_fract_y
_atom_site_fract_z
Cu1 Cu 1.0338(1) 0.3228(1) 0.6578(1)
V1 V 0.7956(1) 0.5519(1) 0.7990(1)
P1 P 1.2072(1) 0.5377(1) 0.9447(1)
P2 P 1.3687(1) 0.5463(1) 0.6759(1)
O1 O 1.1857(3) 0.4434(3) 0.6109(3)
O2 O 1.1713(4) 0.3961(3) 0.8418(3)
O3 O 0.8373(4) 0.4659(3) 0.6652(3)
O4 O 1.0482(4) 0.6040(3) 0.9193(3)
O5 O 1.2634(4) 0.5356(3) 1.0835(3)
O6 O 0.7977(4) 0.7072(3) 0.8084(3)
O7 O 1.5256(3) 0.4835(3) 0.7123(2)
O8 O 1.3947(4) 0.6225(3) 0.5804(3)
N1 N 0.9322(4) 0.1900(3) 0.4696(3)
N2 N 0.8744(4) 0.1736(3) 0.6834(3)
C1 C 0.9729(5) 0.2011(4) 0.3661(4)
C2 C 0.9051(5) 0.0934(4) 0.2439(4)
C3 C 0.7944(5) -0.0283(4) 0.2287(4)
C4 C 0.7492(5) -0.0431(4) 0.3370(4)
C5 C 0.8224(5) 0.0708(4) 0.4552(4)
C6 C 0.6378(5) -0.1654(4) 0.3349(4)
C7 C 0.6033(5) -0.1717(4) 0.4439(4)
C8 C 0.6789(5) -0.0579(4) 0.5662(4)
C9 C 0.7888(5) 0.0618(4) 0.5714(4)
C10 C 0.6552(5) -0.0598(4) 0.6848(4)
C11 C 0.7414(6) 0.0543(4) 0.7978(4)
C12 C 0.8508(5) 0.1690(4) 0.7938(4)
C13 C 1.4011(5) 0.6528(4) 0.9451(4)
C14 C 1.3774(6) 0.6850(4) 0.8194(4)
O5A O 0.7366(4) 0.4644(3) 0.9165(3)
O7_2 O 0.5256(3) 0.4835(3) 0.7123(2)
V1A V 1.2044(1) 0.4481(1) 1.2010(1)
V1_2 V 1.7956(1) 0.5519(1) 0.7990(1)
loop_
_geom_bond_atom_site_label_1
_geom_bond_atom_site_label_2
_geom_bond_site_symmetry_1
_geom_bond_site_symmetry_2
Cu1 O1 1_555 1_555
V1 O3 1_555 1_555
P1 O2 1_555 1_555
P2 O1 1_555 1_555
O2 Cu1 1_555 1_555
O3 Cu1 1_555 1_555
O4 V1 1_555 1_555
O5 P1 1_555 1_555
O6 V1 1_555 1_555
O7 P2 1_555 1_555
O8 P2 1_555 1_555
N1 Cu1 1_555 1_555
N2 Cu1 1_555 1_555
C1 N1 1_555 1_555
C2 C1 1_555 1_555
C3 C2 1_555 1_555
C4 C3 1_555 1_555
C5 N1 1_555 1_555
C6 C4 1_555 1_555
C7 C6 1_555 1_555
C8 C7 1_555 1_555
C9 N2 1_555 1_555
C10 C8 1_555 1_555
C11 C10 1_555 1_555
C12 N2 1_555 1_555
C13 P1 1_555 1_555
C14 P2 1_555 1_555
O5A V1 1_555 1_555
O7_2 V1 1_555 1_555
V1A O5 1_555 1_555
V1_2 O7 1_555 1_555
P1 O4 1_555 1_555
C4 C5 1_555 1_555
C5 C9 1_555 1_555
C8 C9 1_555 1_555
C11 C12 1_555 1_555
C13 C14 1_555 1_555

#END
