
#######################################################################
#
#                 Cambridge Crystallographic Data Centre
#                                CCDC 
#
#######################################################################
#
# If this CIF has been generated from an entry in the Cambridge 
# Structural Database, then it will include bibliographic, chemical, 
# crystal, experimental, refinement or atomic coordinate data resulting 
# from the CCDC's data processing and validation procedures.
#
#######################################################################

data_LUKBAV
_symmetry_cell_setting           monoclinic
_symmetry_space_group_name_H-M   'P 21/n'
_symmetry_Int_Tables_number      14
_space_group_name_Hall           '-P 2yn'
loop_
_symmetry_equiv_pos_site_id
_symmetry_equiv_pos_as_xyz
1 x,y,z
2 1/2-x,1/2+y,1/2-z
3 -x,-y,-z
4 1/2+x,1/2-y,1/2+z
_cell_length_a                   5.724(2)
_cell_length_b                   31.741(12)
_cell_length_c                   6.199(2)
_cell_angle_alpha                90
_cell_angle_beta                 109.07(5)
_cell_angle_gamma                90
_cell_volume                     1064.46
loop_
_atom_site_label
_atom_site_type_symbol
_atom_site_fract_x
_atom_site_fract_y
_atom_site_fract_z
Na1 Na 0.77435(10) 0.528963(19) 0.08474(10)
O1 O 0.3773(2) 0.58093(3) 0.44221(18)
O2 O 0.7495(2) 0.56590(4) 0.41376(18)
N1 N 0.9506(2) 0.63641(5) 0.6396(2)
H1 H 1.001(4) 0.6621(8) 0.652(4)
H2 H 1.022(4) 0.6209(7) 0.547(4)
C1 C 0.5980(3) 0.58988(5) 0.4568(2)
C2 C 0.6810(3) 0.63505(5) 0.5368(3)
H3 H 0.608(4) 0.6414(6) 0.650(4)
C3 C 0.5723(3) 0.66559(5) 0.3384(3)
C4 C 0.6799(3) 0.67051(5) 0.1678(3)
H4 H 0.8213 0.6543 0.1731
C5 C 0.5818(3) 0.69885(5) -0.0098(3)
H5 H 0.6580 0.7022 -0.1238
C6 C 0.3730(3) 0.72242(5) -0.0219(3)
H6 H 0.3062 0.7418 -0.1434
C7 C 0.2635(3) 0.71731(5) 0.1457(3)
H7 H 0.1199 0.7330 0.1382
C8 C 0.3630(3) 0.68921(5) 0.3249(3)
H8 H 0.2871 0.6861 0.4394
O3 O 1.1851(2) 0.50173(4) 0.2648(2)
H9 H 1.265(5) 0.5229(9) 0.327(4)
H10 H 1.203(4) 0.4849(9) 0.370(4)
O4 O 0.6416(2) 0.45860(4) 0.1449(2)
H11 H 0.762(5) 0.4448(9) 0.099(4)
H12 H 0.650(5) 0.4457(9) 0.275(5)
O5 O 1.0149(2) 0.58555(4) 0.0167(2)
H13 H 1.127(5) 0.5938(9) 0.142(5)
H14 H 1.017(4) 0.6036(8) -0.071(4)
Na1B Na 1.22565(10) 0.471037(19) -0.08474(10)
Na1B_2 Na 0.22565(10) 0.471037(19) -0.08474(10)
O3B O 0.8149(2) 0.49827(4) -0.2648(2)
H9B H 0.735(5) 0.4771(9) -0.327(4)
H10B H 0.797(4) 0.5151(9) -0.370(4)
O4B O 0.3584(2) 0.54140(4) -0.1449(2)
H11B H 0.238(5) 0.5552(9) -0.099(4)
H12B H 0.350(5) 0.5543(9) -0.275(5)
loop_
_geom_bond_atom_site_label_1
_geom_bond_atom_site_label_2
_geom_bond_site_symmetry_1
_geom_bond_site_symmetry_2
Na1 O2 1_555 1_555
O1 C1 1_555 1_555
O2 C1 1_555 1_555
N1 H1 1_555 1_555
H2 N1 1_555 1_555
C1 C2 1_555 1_555
C2 N1 1_555 1_555
H3 C2 1_555 1_555
C3 C2 1_555 1_555
C4 C3 1_555 1_555
H4 C4 1_555 1_555
C5 C4 1_555 1_555
H5 C5 1_555 1_555
C6 C5 1_555 1_555
H6 C6 1_555 1_555
C7 C6 1_555 1_555
H7 C7 1_555 1_555
C8 C3 1_555 1_555
H8 C8 1_555 1_555
O3 Na1 1_555 1_555
H9 O3 1_555 1_555
H10 O3 1_555 1_555
O4 Na1 1_555 1_555
H11 O4 1_555 1_555
H12 O4 1_555 1_555
O5 Na1 1_555 1_555
H13 O5 1_555 1_555
H14 O5 1_555 1_555
Na1B O3 1_555 1_555
Na1B_2 O4 1_555 1_555
O3B Na1 1_555 1_555
H9B O3B 1_555 1_555
H10B O3B 1_555 1_555
O4B Na1 1_555 1_555
H11B O4B 1_555 1_555
H12B O4B 1_555 1_555
C7 C8 1_555 1_555
Na1B O3B 1_555 1_555
Na1B_2 O4B 1_555 1_555

#END
