
#######################################################################
#
#                 Cambridge Crystallographic Data Centre
#                                CCDC 
#
#######################################################################
#
# If this CIF has been generated from an entry in the Cambridge 
# Structural Database, then it will include bibliographic, chemical, 
# crystal, experimental, refinement or atomic coordinate data resulting 
# from the CCDC's data processing and validation procedures.
#
#######################################################################

data_LUKDUS
_symmetry_cell_setting           monoclinic
_symmetry_space_group_name_H-M   'C 2/c'
_symmetry_Int_Tables_number      15
_space_group_name_Hall           '-C 2yn'
loop_
_symmetry_equiv_pos_site_id
_symmetry_equiv_pos_as_xyz
1 x,y,z
2 -x,y,1/2-z
3 1/2+x,1/2+y,z
4 1/2-x,1/2+y,1/2-z
5 -x,-y,-z
6 x,-y,1/2+z
7 1/2-x,1/2-y,-z
8 1/2+x,1/2-y,1/2+z
_cell_length_a                   20.835(4)
_cell_length_b                   11.531(2)
_cell_length_c                   20.278(4)
_cell_angle_alpha                90
_cell_angle_beta                 110.164(3)
_cell_angle_gamma                90
_cell_volume                     4573.17
loop_
_atom_site_label
_atom_site_type_symbol
_atom_site_fract_x
_atom_site_fract_y
_atom_site_fract_z
C1 C 0.0693(2) 0.5534(3) 0.2107(2)
H1 H 0.1063 0.5951 0.2402
C2 C 0.0727(2) 0.4380(3) 0.2095(2)
H2 H 0.1113 0.3985 0.2378
C3 C 0.0180(2) 0.3804(3) 0.1658(2)
C4 C -0.0395(2) 0.4379(3) 0.1257(2)
H3 H -0.0777 0.3982 0.0969
C5 C -0.0383(2) 0.5529(3) 0.1297(2)
H4 H -0.0764 0.5947 0.1024
C6 C 0.0761(2) 0.0889(3) 0.1792(2)
H5 H 0.1167 0.0480 0.1882
C7 C 0.0782(2) 0.1993(3) 0.1760(2)
H6 H 0.1184 0.2385 0.1801
C8 C 0.0178(2) 0.2570(3) 0.1661(2)
C9 C -0.0404(2) 0.1999(3) 0.1579(2)
H7 H -0.0814 0.2388 0.1508
C10 C -0.0367(2) 0.0851(3) 0.1605(2)
H8 H -0.0764 0.0434 0.1549
C11 C 0.1268(2) 0.8358(3) 0.3188(2)
C12 C 0.1510(2) 0.8517(3) 0.3920(2)
C13 C 0.2190(2) 0.8810(3) 0.4268(2)
H9 H 0.2340 0.8895 0.4753
C14 C 0.2665(2) 0.8986(4) 0.3921(2)
C15 C 0.2422(2) 0.8763(3) 0.3206(2)
H10 H 0.2724 0.8815 0.2961
C16 C 0.1742(2) 0.8463(3) 0.2838(2)
C17 C 0.1616(2) 0.8233(3) 0.2101(2)
H11 H 0.1993 0.8222 0.1954
C18 C 0.1041(2) 0.7785(4) 0.0916(2)
H12 H 0.0966 0.6963 0.0817
H13 H 0.1489 0.7984 0.0904
C19 C 0.0492(2) 0.8485(3) 0.0359(2)
H14 H 0.0489 0.9271 0.0528
H15 H 0.0608 0.8522 -0.0064
C20 C -0.0207(2) 0.7982(4) 0.0183(2)
H16 H -0.0195 0.7160 0.0085
H17 H -0.0517 0.8355 -0.0234
C21 C -0.1155(2) 0.8392(3) 0.0653(2)
H18 H -0.1351 0.8403 0.0150
C22 C 0.3399(2) 0.9325(4) 0.4331(2)
H19 H 0.3632 0.9503 0.4010
H20 H 0.3626 0.8694 0.4629
H21 H 0.3402 0.9995 0.4614
Cu1 Cu 0.01463(2) 0.81955(4) 0.18098(2)
N1 N 0.01504(18) 0.6092(3) 0.17110(18)
N2 N 0.01898(17) 0.0283(3) 0.17034(18)
N3 N 0.10141(17) 0.8038(2) 0.16243(17)
N4 N -0.04686(16) 0.8161(3) 0.08124(17)
O1 O 0.06206(14) 0.8099(2) 0.28299(15)
C11A C -0.1268(2) 0.8358(3) 0.1812(2)
C12A C -0.1510(2) 0.8517(3) 0.1080(2)
C13A C -0.2190(2) 0.8810(3) 0.0732(2)
H9A H -0.2340 0.8895 0.0247
C14A C -0.2665(2) 0.8986(4) 0.1079(2)
C15A C -0.2422(2) 0.8763(3) 0.1794(2)
H10A H -0.2724 0.8815 0.2039
C16A C -0.1742(2) 0.8463(3) 0.2162(2)
C17A C -0.1616(2) 0.8233(3) 0.2899(2)
H11A H -0.1993 0.8222 0.3046
C18A C -0.1041(2) 0.7785(4) 0.4084(2)
H12A H -0.0966 0.6963 0.4183
H13A H -0.1489 0.7984 0.4096
C19A C -0.0492(2) 0.8485(3) 0.4641(2)
H14A H -0.0489 0.9271 0.4472
H15A H -0.0608 0.8522 0.5064
C20A C 0.0207(2) 0.7982(4) 0.4817(2)
H16A H 0.0195 0.7160 0.4915
H17A H 0.0517 0.8355 0.5234
C21A C 0.1155(2) 0.8392(3) 0.4347(2)
H18A H 0.1351 0.8403 0.4850
C22A C -0.3399(2) 0.9325(4) 0.0669(2)
H19A H -0.3632 0.9503 0.0990
H20A H -0.3626 0.8694 0.0371
H21A H -0.3402 0.9995 0.0386
N3A N -0.10141(17) 0.8038(2) 0.33757(17)
N4A N 0.04686(16) 0.8161(3) 0.41876(17)
O1A O -0.06206(14) 0.8099(2) 0.21701(15)
C1A C -0.0693(2) 0.5534(3) 0.2893(2)
H1A H -0.1063 0.5951 0.2598
C2A C -0.0727(2) 0.4380(3) 0.2905(2)
H2A H -0.1113 0.3985 0.2622
C3A C -0.0180(2) 0.3804(3) 0.3342(2)
C4A C 0.0395(2) 0.4379(3) 0.3743(2)
H3A H 0.0777 0.3982 0.4031
C5A C 0.0383(2) 0.5529(3) 0.3703(2)
H4A H 0.0764 0.5947 0.3976
C6A C -0.0761(2) 0.0889(3) 0.3208(2)
H5A H -0.1167 0.0480 0.3118
C7A C -0.0782(2) 0.1993(3) 0.3240(2)
H6A H -0.1184 0.2385 0.3199
C8A C -0.0178(2) 0.2570(3) 0.3339(2)
C9A C 0.0404(2) 0.1999(3) 0.3421(2)
H7A H 0.0814 0.2388 0.3492
C10A C 0.0367(2) 0.0851(3) 0.3395(2)
H8A H 0.0764 0.0434 0.3451
Cu1A Cu -0.01463(2) 0.81955(4) 0.31902(2)
N1A N -0.01504(18) 0.6092(3) 0.32890(18)
N2A N -0.01898(17) 0.0283(3) 0.32966(18)
Cu1_2 Cu 0.01463(2) -0.18045(4) 0.18098(2)
Cu1A_2 Cu -0.01463(2) -0.18045(4) 0.31902(2)
N2_2 N 0.01898(17) 1.0283(3) 0.17034(18)
N2A_2 N -0.01898(17) 1.0283(3) 0.32966(18)
Cl1 Cl 0.25441(5) 0.02840(9) 0.13222(6)
O2 O 0.18732(15) 0.0194(3) 0.08545(16)
O3 O 0.25796(15) 0.0604(3) 0.20024(16)
O4 O 0.29779(15) 0.0897(2) 0.10758(16)
O5 O 0.28137(16) -0.0798(3) 0.14567(17)
O6 O 0.7791(6) 0.1507(8) 0.1668(5)
H22 H 0.8049 0.1725 0.1449
H23 H 0.8009 0.1531 0.2108
O7 O 0.5000 0.0000 1.0000
H24? H 0.3252 0.7117 0.0470
H25? H 0.2700 0.7094 -0.0155
O8? O 0.2846(4) 0.7343(7) 0.0261(4)
H26? H 0.5401 0.0215 1.0239
H27? H 0.4843 0.0388 0.9631
loop_
_geom_bond_atom_site_label_1
_geom_bond_atom_site_label_2
_geom_bond_site_symmetry_1
_geom_bond_site_symmetry_2
C1 H1 1_555 1_555
C2 C1 1_555 1_555
H2 C2 1_555 1_555
C3 C2 1_555 1_555
C4 C3 1_555 1_555
H3 C4 1_555 1_555
C5 C4 1_555 1_555
H4 C5 1_555 1_555
C6 H5 1_555 1_555
C7 C6 1_555 1_555
H6 C7 1_555 1_555
C8 C3 1_555 1_555
C9 C8 1_555 1_555
H7 C9 1_555 1_555
C10 C9 1_555 1_555
H8 C10 1_555 1_555
C11 C12 1_555 1_555
C12 C13 1_555 1_555
C13 H9 1_555 1_555
C14 C13 1_555 1_555
C15 C14 1_555 1_555
H10 C15 1_555 1_555
C16 C11 1_555 1_555
C17 C16 1_555 1_555
H11 C17 1_555 1_555
C18 H12 1_555 1_555
H13 C18 1_555 1_555
C19 C18 1_555 1_555
H14 C19 1_555 1_555
H15 C19 1_555 1_555
C20 C19 1_555 1_555
H16 C20 1_555 1_555
H17 C20 1_555 1_555
C21 H18 1_555 1_555
C22 C14 1_555 1_555
H19 C22 1_555 1_555
H20 C22 1_555 1_555
H21 C22 1_555 1_555
Cu1 N1 1_555 1_555
N1 C1 1_555 1_555
N2 C6 1_555 1_555
N3 C17 1_555 1_555
N4 C20 1_555 1_555
O1 C11 1_555 1_555
Cl1 O2 1_555 1_555
O3 Cl1 1_555 1_555
O4 Cl1 1_555 1_555
O5 Cl1 1_555 1_555
O6 H22 1_555 1_555
H23 O6 1_555 1_555
C11A C12A 1_555 1_555
C12A C21 1_555 1_555
C13A C12A 1_555 1_555
H9A C13A 1_555 1_555
C14A C13A 1_555 1_555
C15A C14A 1_555 1_555
H10A C15A 1_555 1_555
C16A C11A 1_555 1_555
C17A C16A 1_555 1_555
H11A C17A 1_555 1_555
C18A H12A 1_555 1_555
H13A C18A 1_555 1_555
C19A C18A 1_555 1_555
H14A C19A 1_555 1_555
H15A C19A 1_555 1_555
C20A C19A 1_555 1_555
H16A C20A 1_555 1_555
H17A C20A 1_555 1_555
C21A C12 1_555 1_555
H18A C21A 1_555 1_555
C22A C14A 1_555 1_555
H19A C22A 1_555 1_555
H20A C22A 1_555 1_555
H21A C22A 1_555 1_555
N3A C17A 1_555 1_555
N4A C20A 1_555 1_555
O1A Cu1 1_555 1_555
C1A H1A 1_555 1_555
C2A C1A 1_555 1_555
H2A C2A 1_555 1_555
C3A C2A 1_555 1_555
C4A C3A 1_555 1_555
H3A C4A 1_555 1_555
C5A C4A 1_555 1_555
H4A C5A 1_555 1_555
C6A H5A 1_555 1_555
C7A C6A 1_555 1_555
H6A C7A 1_555 1_555
C8A C3A 1_555 1_555
C9A C8A 1_555 1_555
H7A C9A 1_555 1_555
C10A C9A 1_555 1_555
H8A C10A 1_555 1_555
Cu1A O1 1_555 1_555
N1A C1A 1_555 1_555
N2A C6A 1_555 1_555
Cu1_2 N2 1_555 1_555
Cu1A_2 N2A 1_555 1_555
N2_2 Cu1 1_555 1_555
N2A_2 Cu1A 1_555 1_555
C5 N1 1_555 1_555
C7 C8 1_555 1_555
C10 N2 1_555 1_555
C15 C16 1_555 1_555
C18 N3 1_555 1_555
C21 N4 1_555 1_555
Cu1 N3 1_555 1_555
Cu1 N4 1_555 1_555
Cu1 O1 1_555 1_555
C11A O1A 1_555 1_555
C15A C16A 1_555 1_555
C18A N3A 1_555 1_555
C21A N4A 1_555 1_555
N3A Cu1A 1_555 1_555
N4A Cu1A 1_555 1_555
O1A Cu1A 1_555 1_555
C5A N1A 1_555 1_555
C7A C8A 1_555 1_555
C10A N2A 1_555 1_555
Cu1A N1A 1_555 1_555

#END
