
#######################################################################
#
#                 Cambridge Crystallographic Data Centre
#                                CCDC 
#
#######################################################################
#
# If this CIF has been generated from an entry in the Cambridge 
# Structural Database, then it will include bibliographic, chemical, 
# crystal, experimental, refinement or atomic coordinate data resulting 
# from the CCDC's data processing and validation procedures.
#
#######################################################################

data_LUKFAA
_symmetry_cell_setting           monoclinic
_symmetry_space_group_name_H-M   'C 2/c'
_symmetry_Int_Tables_number      15
_space_group_name_Hall           '-C 2yn'
loop_
_symmetry_equiv_pos_site_id
_symmetry_equiv_pos_as_xyz
1 x,y,z
2 -x,y,1/2-z
3 1/2+x,1/2+y,z
4 1/2-x,1/2+y,1/2-z
5 -x,-y,-z
6 x,-y,1/2+z
7 1/2-x,1/2-y,-z
8 1/2+x,1/2-y,1/2+z
_cell_length_a                   25.551(11)
_cell_length_b                   12.152(5)
_cell_length_c                   20.498(15)
_cell_angle_alpha                90
_cell_angle_beta                 127.206(5)
_cell_angle_gamma                90
_cell_volume                     5069.15
loop_
_atom_site_label
_atom_site_type_symbol
_atom_site_fract_x
_atom_site_fract_y
_atom_site_fract_z
C1 C 0.5373(2) 0.4357(3) 0.3809(2)
H1 H 0.5747 0.3958 0.4201
C2 C 0.5406(2) 0.5498(3) 0.3879(3)
H2 H 0.5788 0.5847 0.4307
C3 C 0.4852(2) 0.6100(3) 0.3290(3)
C4 C 0.43192(19) 0.5526(3) 0.2685(2)
H3 H 0.3942 0.5903 0.2274
C5 C 0.4328(2) 0.4377(3) 0.2670(2)
H4 H 0.3952 0.4003 0.2254
C6 C 0.5406(2) 0.9039(3) 0.3530(2)
H5 H 0.5784 0.9420 0.3695
C7 C 0.5428(2) 0.7894(3) 0.3580(2)
H6 H 0.5822 0.7527 0.3801
C8 C 0.4867(2) 0.7299(3) 0.3305(2)
C9 C 0.42870(19) 0.7903(3) 0.3017(3)
H7 H 0.3905 0.7542 0.2856
C10 C 0.4303(2) 0.9063(3) 0.2979(2)
H8 H 0.3918 0.9457 0.2760
C11 C 0.37845(17) 0.1537(3) 0.1352(2)
C12 C 0.35436(19) 0.1410(3) 0.0530(2)
C13 C 0.2904(2) 0.1118(3) -0.0066(2)
H9 H 0.2756 0.1012 -0.0602
C14 C 0.24945(18) 0.0987(3) 0.0128(2)
C15 C 0.26669(18) 0.1149(3) 0.0874(2)
H10 H 0.2356 0.1096 0.0971
C16 C 0.33284(18) 0.1405(3) 0.1522(2)
C17 C 0.3465(2) 0.1610(3) 0.2292(2)
H11 H 0.3104 0.1605 0.2299
C18 C 0.3981(2) 0.2063(3) 0.3651(2)
H12 H 0.3563 0.1823 0.3511
H13 H 0.4016 0.2853 0.3739
C19 C 0.4537(2) 0.1489(3) 0.4426(2)
H14 H 0.4436 0.1473 0.4812
H15 H 0.4562 0.0733 0.4294
C20 C 0.5200(2) 0.2022(4) 0.4834(2)
H16 H 0.5508 0.1739 0.5385
H17 H 0.5163 0.2812 0.4867
C21 C 0.6083(2) 0.1543(3) 0.4779(3)
H18 H 0.6306 0.1464 0.5341
Cu1 Cu 0.48564(2) 0.18386(4) 0.31329(3)
F1 F 0.18526(11) 0.06869(18) -0.04840(13)
N1 N 0.48550(17) 0.3806(3) 0.3231(2)
N2 N 0.48533(18) 0.9615(3) 0.3248(2)
N3 N 0.40151(16) 0.1800(3) 0.2970(2)
N4 N 0.54468(16) 0.1771(3) 0.4331(2)
O1 O 0.44073(12) 0.1781(2) 0.19412(16)
C11A C 0.62155(17) 0.1537(3) 0.3648(2)
C12A C 0.64564(19) 0.1410(3) 0.4470(2)
C13A C 0.7096(2) 0.1118(3) 0.5066(2)
H9A H 0.7244 0.1012 0.5602
C14A C 0.75055(18) 0.0987(3) 0.4872(2)
C15A C 0.73331(18) 0.1149(3) 0.4126(2)
H10A H 0.7644 0.1096 0.4029
C16A C 0.66716(18) 0.1405(3) 0.3478(2)
C17A C 0.6535(2) 0.1610(3) 0.2708(2)
H11A H 0.6896 0.1605 0.2701
C18A C 0.6019(2) 0.2063(3) 0.1349(2)
H12A H 0.6437 0.1823 0.1489
H13A H 0.5984 0.2853 0.1261
C19A C 0.5463(2) 0.1489(3) 0.0574(2)
H14A H 0.5564 0.1473 0.0188
H15A H 0.5438 0.0733 0.0706
C20A C 0.4800(2) 0.2022(4) 0.0166(2)
H16A H 0.4492 0.1739 -0.0385
H17A H 0.4837 0.2812 0.0133
C21A C 0.3917(2) 0.1543(3) 0.0221(3)
H18A H 0.3694 0.1464 -0.0341
F1A F 0.81474(11) 0.06869(18) 0.54840(13)
N3A N 0.59849(16) 0.1800(3) 0.2030(2)
N4A N 0.45532(16) 0.1771(3) 0.0669(2)
O1A O 0.55927(12) 0.1781(2) 0.30588(16)
C1A C 0.4627(2) 0.4357(3) 0.1191(2)
H1A H 0.4253 0.3958 0.0799
C2A C 0.4594(2) 0.5498(3) 0.1121(3)
H2A H 0.4212 0.5847 0.0693
C3A C 0.5148(2) 0.6100(3) 0.1710(3)
C4A C 0.56808(19) 0.5526(3) 0.2315(2)
H3A H 0.6058 0.5903 0.2726
C5A C 0.5672(2) 0.4377(3) 0.2330(2)
H4A H 0.6048 0.4003 0.2746
C6A C 0.4594(2) 0.9039(3) 0.1470(2)
H5A H 0.4216 0.9420 0.1305
C7A C 0.4572(2) 0.7894(3) 0.1420(2)
H6A H 0.4178 0.7527 0.1199
C8A C 0.5133(2) 0.7299(3) 0.1695(2)
C9A C 0.57130(19) 0.7903(3) 0.1983(3)
H7A H 0.6095 0.7542 0.2144
C10A C 0.5697(2) 0.9063(3) 0.2021(2)
H8A H 0.6082 0.9457 0.2240
Cu1A Cu 0.51436(2) 0.18386(4) 0.18671(3)
N1A N 0.51450(17) 0.3806(3) 0.1769(2)
N2A N 0.51467(18) 0.9615(3) 0.1752(2)
Cu1_2 Cu 0.48564(2) 1.18386(4) 0.31329(3)
Cu1A_2 Cu 0.51436(2) 1.18386(4) 0.18671(3)
N2_2 N 0.48533(18) -0.0385(3) 0.3248(2)
N2A_2 N 0.51467(18) -0.0385(3) 0.1752(2)
C22 C 0.7573(4) 0.1889(7) 0.1103(5)
H19 H 0.7112 0.1725 0.0774
H20 H 0.7694 0.2324 0.1567
H21 H 0.7820 0.1215 0.1291
C23 C 0.7715(5) 0.2494(7) 0.0622(5)
N5 N 0.7826(3) 0.3006(6) 0.0237(4)
Cl1 Cl 0.23592(5) 0.41293(8) 0.22369(6)
O2 O 0.24919(13) 0.4382(2) 0.29526(16)
O3 O 0.21614(14) 0.3018(2) 0.20734(17)
O4 O 0.18198(14) 0.4696(2) 0.16154(17)
O5 O 0.28625(14) 0.4118(2) 0.21741(16)
O6 O 0.5676(5) 0.4370(8) 0.5656(6)
H22 H 0.6042 0.4685 0.6005
H23 H 0.5371 0.4719 0.5619
loop_
_geom_bond_atom_site_label_1
_geom_bond_atom_site_label_2
_geom_bond_site_symmetry_1
_geom_bond_site_symmetry_2
C1 H1 1_555 1_555
C2 C1 1_555 1_555
H2 C2 1_555 1_555
C3 C2 1_555 1_555
C4 C3 1_555 1_555
H3 C4 1_555 1_555
C5 C4 1_555 1_555
H4 C5 1_555 1_555
C6 H5 1_555 1_555
C7 C6 1_555 1_555
H6 C7 1_555 1_555
C8 C3 1_555 1_555
C9 C8 1_555 1_555
H7 C9 1_555 1_555
C10 C9 1_555 1_555
H8 C10 1_555 1_555
C11 C12 1_555 1_555
C12 C13 1_555 1_555
C13 H9 1_555 1_555
C14 C13 1_555 1_555
C15 C14 1_555 1_555
H10 C15 1_555 1_555
C16 C11 1_555 1_555
C17 C16 1_555 1_555
H11 C17 1_555 1_555
C18 H12 1_555 1_555
H13 C18 1_555 1_555
C19 C18 1_555 1_555
H14 C19 1_555 1_555
H15 C19 1_555 1_555
C20 C19 1_555 1_555
H16 C20 1_555 1_555
H17 C20 1_555 1_555
C21 H18 1_555 1_555
Cu1 N1 1_555 1_555
F1 C14 1_555 1_555
N1 C1 1_555 1_555
N2 C6 1_555 1_555
N3 C17 1_555 1_555
N4 C20 1_555 1_555
O1 C11 1_555 1_555
C22 H19 1_555 1_555
H20 C22 1_555 1_555
H21 C22 1_555 1_555
C23 C22 1_555 1_555
N5 C23 1_555 1_555
Cl1 O2 1_555 1_555
O3 Cl1 1_555 1_555
O4 Cl1 1_555 1_555
O5 Cl1 1_555 1_555
O6 H22 1_555 1_555
H23 O6 1_555 1_555
C11A C12A 1_555 1_555
C12A C21 1_555 1_555
C13A C12A 1_555 1_555
H9A C13A 1_555 1_555
C14A C13A 1_555 1_555
C15A C14A 1_555 1_555
H10A C15A 1_555 1_555
C16A C11A 1_555 1_555
C17A C16A 1_555 1_555
H11A C17A 1_555 1_555
C18A H12A 1_555 1_555
H13A C18A 1_555 1_555
C19A C18A 1_555 1_555
H14A C19A 1_555 1_555
H15A C19A 1_555 1_555
C20A C19A 1_555 1_555
H16A C20A 1_555 1_555
H17A C20A 1_555 1_555
C21A C12 1_555 1_555
H18A C21A 1_555 1_555
F1A C14A 1_555 1_555
N3A C17A 1_555 1_555
N4A C20A 1_555 1_555
O1A Cu1 1_555 1_555
C1A H1A 1_555 1_555
C2A C1A 1_555 1_555
H2A C2A 1_555 1_555
C3A C2A 1_555 1_555
C4A C3A 1_555 1_555
H3A C4A 1_555 1_555
C5A C4A 1_555 1_555
H4A C5A 1_555 1_555
C6A H5A 1_555 1_555
C7A C6A 1_555 1_555
H6A C7A 1_555 1_555
C8A C3A 1_555 1_555
C9A C8A 1_555 1_555
H7A C9A 1_555 1_555
C10A C9A 1_555 1_555
H8A C10A 1_555 1_555
Cu1A O1 1_555 1_555
N1A C1A 1_555 1_555
N2A C6A 1_555 1_555
Cu1_2 N2 1_555 1_555
Cu1A_2 N2A 1_555 1_555
N2_2 Cu1 1_555 1_555
N2A_2 Cu1A 1_555 1_555
C5 N1 1_555 1_555
C7 C8 1_555 1_555
C10 N2 1_555 1_555
C15 C16 1_555 1_555
C18 N3 1_555 1_555
C21 N4 1_555 1_555
Cu1 N3 1_555 1_555
Cu1 N4 1_555 1_555
Cu1 O1 1_555 1_555
C11A O1A 1_555 1_555
C15A C16A 1_555 1_555
C18A N3A 1_555 1_555
C21A N4A 1_555 1_555
N3A Cu1A 1_555 1_555
N4A Cu1A 1_555 1_555
O1A Cu1A 1_555 1_555
C5A N1A 1_555 1_555
C7A C8A 1_555 1_555
C10A N2A 1_555 1_555
Cu1A N1A 1_555 1_555

#END
