
#######################################################################
#
#                 Cambridge Crystallographic Data Centre
#                                CCDC 
#
#######################################################################
#
# If this CIF has been generated from an entry in the Cambridge 
# Structural Database, then it will include bibliographic, chemical, 
# crystal, experimental, refinement or atomic coordinate data resulting 
# from the CCDC's data processing and validation procedures.
#
#######################################################################

data_LUKGUV
_symmetry_cell_setting           monoclinic
_symmetry_space_group_name_H-M   'P 21/n'
_symmetry_Int_Tables_number      14
_space_group_name_Hall           '-P 2yn'
loop_
_symmetry_equiv_pos_site_id
_symmetry_equiv_pos_as_xyz
1 x,y,z
2 1/2-x,1/2+y,1/2-z
3 -x,-y,-z
4 1/2+x,1/2-y,1/2+z
_cell_length_a                   16.224(5)
_cell_length_b                   12.979(4)
_cell_length_c                   16.226(5)
_cell_angle_alpha                90
_cell_angle_beta                 100.056(10)
_cell_angle_gamma                90
_cell_volume                     3364.24
loop_
_atom_site_label
_atom_site_type_symbol
_atom_site_fract_x
_atom_site_fract_y
_atom_site_fract_z
Cd1 Cd 0.34163(4) 0.91413(5) 0.01096(4)
Cd2 Cd 0.59458(4) 0.58953(5) 0.03889(4)
C1 C 0.4025(5) 0.7069(6) -0.1531(5)
C2 C 0.4736(5) 0.8431(7) 0.1305(5)
C3 C 0.5369(5) 0.8026(7) 0.2008(5)
C4 C 0.4609(5) 0.6619(7) -0.0804(5)
C5 C 0.3323(5) 0.8499(7) -0.2301(5)
H1 H 0.3210 0.9201 -0.2341
C6 C 0.3070(5) 0.6809(7) -0.2842(5)
H2 H 0.2803 0.6366 -0.3254
C7 C 0.3892(5) 0.8129(7) -0.1611(5)
C8 C 0.6388(5) 0.8362(7) 0.3268(5)
H3 H 0.6685 0.8827 0.3643
C9 C 0.6513(5) 0.7304(7) 0.3390(5)
C10 C 0.5820(5) 0.8719(7) 0.2584(5)
H4 H 0.5737 0.9424 0.2508
C11 C 0.5503(5) 0.6967(7) 0.2119(5)
C12 C 0.3606(6) 0.6419(7) -0.2153(5)
H5 H 0.3688 0.5711 -0.2104
C13 C 0.6082(5) 0.6614(7) 0.2813(5)
H6 H 0.6177 0.5911 0.2885
C14 C 0.2933(5) 0.7861(7) -0.2912(5)
C15 C 0.2287(5) 0.8293(7) -0.3595(5)
C16 C 0.7136(5) 0.6871(8) 0.4100(5)
O1 O 0.2111(4) 0.9243(4) -0.3567(4)
O2 O 0.7182(4) 0.5898(5) 0.4177(4)
O3 O 0.4634(4) 0.5656(5) -0.0727(4)
O4 O 0.7588(4) 0.7475(5) 0.4582(4)
O5 O 0.4877(4) 0.9293(5) 0.0971(4)
O6 O 0.1919(4) 0.7710(5) -0.4177(4)
O7 O 0.5121(4) 0.7172(5) -0.0334(4)
O8 O 0.4088(4) 0.7941(5) 0.1064(4)
N1 N 0.5132(4) 0.6267(6) 0.1498(4)
H7 H 0.4631 0.6519 0.1259
H8 H 0.5040 0.5670 0.1749
N2 N 0.4232(5) 0.8794(6) -0.0947(5)
H9 H 0.4347 0.9400 -0.1171
H10 H 0.4723 0.8524 -0.0695
O9 O 0.3701(4) 1.0853(5) -0.0173(5)
H11 H 0.3300 1.1232 -0.0079
H12 H 0.3752 1.0909 -0.0684
N3 N 0.2619(4) 0.9669(6) 0.1085(5)
N4 N 0.1643(4) 0.9809(5) 0.4393(4)
N5 N 0.1971(5) 1.0763(6) 0.4365(5)
H13 H 0.2024 1.1191 0.4776
C17 C 0.2206(5) 1.0973(7) 0.3624(6)
C18 C 0.1988(6) 1.0117(8) 0.3133(6)
N6 N 0.1785(5) 0.9525(6) 0.0925(5)
H14 H 0.1509 0.9370 0.0440
C19 C 0.3685(6) 1.0165(8) 0.2311(6)
H15 H 0.3963 0.9536 0.2510
H16 H 0.3668 1.0618 0.2775
H17 H 0.3984 1.0491 0.1922
C20 C 0.2792(6) 0.9923(7) 0.1876(6)
C21 C 0.2077(6) 0.9924(7) 0.2244(6)
C22 C 0.1432(6) 0.9652(8) 0.1612(6)
C23 C 0.0520(6) 0.9587(10) 0.1592(7)
H18 H 0.0235 1.0007 0.1144
H19 H 0.0391 0.9827 0.2114
H20 H 0.0341 0.8885 0.1503
C24 C 0.1648(6) 0.9409(7) 0.3647(6)
C25 C 0.2578(7) 1.1974(7) 0.3439(7)
H21 H 0.3094 1.2079 0.3820
H22 H 0.2683 1.1970 0.2875
H23 H 0.2195 1.2521 0.3503
C26 C 0.1379(7) 0.8308(8) 0.3432(7)
H24 H 0.0796 0.8296 0.3188
H25 H 0.1702 0.8034 0.3041
H26 H 0.1469 0.7898 0.3932
Cd1C Cd 0.84163(4) 0.58587(5) 0.51096(4)
Cd2B Cd 0.40542(4) 0.41047(5) -0.03889(4)
Cd2C Cd 0.09458(4) 0.91047(5) -0.46111(4)
Cd2C_2 Cd 0.09458(4) 0.91047(5) 0.53889(4)
O1C O 0.7111(4) 0.5757(4) 0.1433(4)
O2C O 0.2182(4) 0.9102(5) -0.0823(4)
O3B O 0.5366(4) 0.4344(5) 0.0727(4)
O4C O 0.2588(4) 0.7525(5) -0.0418(4)
O6C O 0.6919(4) 0.7290(5) 0.0823(4)
N4C N 0.6643(4) 0.5191(5) -0.0607(4)
loop_
_geom_bond_atom_site_label_1
_geom_bond_atom_site_label_2
_geom_bond_site_symmetry_1
_geom_bond_site_symmetry_2
Cd1 O5 1_555 1_555
Cd2 O3 1_555 1_555
C1 C4 1_555 1_555
C2 C3 1_555 1_555
C3 C10 1_555 1_555
C4 O3 1_555 1_555
C5 H1 1_555 1_555
C6 H2 1_555 1_555
C7 C1 1_555 1_555
C8 H3 1_555 1_555
C9 C8 1_555 1_555
C10 C8 1_555 1_555
H4 C10 1_555 1_555
C11 C3 1_555 1_555
C12 C1 1_555 1_555
H5 C12 1_555 1_555
C13 C9 1_555 1_555
H6 C13 1_555 1_555
C14 C5 1_555 1_555
C15 C14 1_555 1_555
C16 C9 1_555 1_555
O1 C15 1_555 1_555
O2 C16 1_555 1_555
O3 Cd2B 1_555 1_555
O4 C16 1_555 1_555
O5 C2 1_555 1_555
O6 C15 1_555 1_555
O7 Cd2 1_555 1_555
O8 Cd1 1_555 1_555
N1 Cd2 1_555 1_555
H7 N1 1_555 1_555
H8 N1 1_555 1_555
N2 Cd1 1_555 1_555
H9 N2 1_555 1_555
H10 N2 1_555 1_555
O9 Cd1 1_555 1_555
H11 O9 1_555 1_555
H12 O9 1_555 1_555
N3 Cd1 1_555 1_555
N4 N5 1_555 1_555
N5 H13 1_555 1_555
C17 N5 1_555 1_555
C18 C17 1_555 1_555
N6 N3 1_555 1_555
H14 N6 1_555 1_555
C19 H15 1_555 1_555
H16 C19 1_555 1_555
H17 C19 1_555 1_555
C20 N3 1_555 1_555
C21 C18 1_555 1_555
C22 N6 1_555 1_555
C23 C22 1_555 1_555
H18 C23 1_555 1_555
H19 C23 1_555 1_555
H20 C23 1_555 1_555
C24 N4 1_555 1_555
C25 C17 1_555 1_555
H21 C25 1_555 1_555
H22 C25 1_555 1_555
H23 C25 1_555 1_555
C26 C24 1_555 1_555
H24 C26 1_555 1_555
H25 C26 1_555 1_555
H26 C26 1_555 1_555
Cd1C O2 1_555 1_555
Cd2B O3B 1_555 1_555
Cd2C O1 1_555 1_555
Cd2C_2 N4 1_555 1_555
O1C Cd2 1_555 1_555
O2C Cd1 1_555 1_555
O3B Cd2 1_555 1_555
O4C Cd1 1_555 1_555
O6C Cd2 1_555 1_555
N4C Cd2 1_555 1_555
C2 O8 1_555 1_555
C4 O7 1_555 1_555
C5 C7 1_555 1_555
C6 C12 1_555 1_555
C6 C14 1_555 1_555
C7 N2 1_555 1_555
C11 C13 1_555 1_555
C11 N1 1_555 1_555
O4 Cd1C 1_555 1_555
O6 Cd2C 1_555 1_555
C18 C24 1_555 1_555
C19 C20 1_555 1_555
C20 C21 1_555 1_555
C21 C22 1_555 1_555

#END
