
#######################################################################
#
#                 Cambridge Crystallographic Data Centre
#                                CCDC 
#
#######################################################################
#
# If this CIF has been generated from an entry in the Cambridge 
# Structural Database, then it will include bibliographic, chemical, 
# crystal, experimental, refinement or atomic coordinate data resulting 
# from the CCDC's data processing and validation procedures.
#
#######################################################################

data_LUKGOP
_symmetry_cell_setting           monoclinic
_symmetry_space_group_name_H-M   'P 21/n'
_symmetry_Int_Tables_number      14
_space_group_name_Hall           '-P 2yn'
loop_
_symmetry_equiv_pos_site_id
_symmetry_equiv_pos_as_xyz
1 x,y,z
2 1/2-x,1/2+y,1/2-z
3 -x,-y,-z
4 1/2+x,1/2-y,1/2+z
_cell_length_a                   10.340(5)
_cell_length_b                   12.798(5)
_cell_length_c                   19.845(5)
_cell_angle_alpha                90
_cell_angle_beta                 99.722(5)
_cell_angle_gamma                90
_cell_volume                     2588.4
loop_
_atom_site_label
_atom_site_type_symbol
_atom_site_fract_x
_atom_site_fract_y
_atom_site_fract_z
Cd1 Cd 0.79882(3) 0.07586(2) 0.754736(15)
O1 O 0.7094(3) 0.2157(3) 0.68200(17)
O2 O 0.7152(4) 0.0629(3) 0.63221(17)
O3 O 0.8346(3) -0.1063(3) 0.74872(18)
H1 H 0.7885 -0.1337 0.7109
H2 H 0.8107 -0.1392 0.7842
O4 O 0.3513(4) 0.2587(3) 0.32737(18)
N1 N 1.0130(3) 0.0887(3) 0.73236(19)
N2 N 1.5366(4) -0.0738(3) 0.7336(2)
H3 H 1.5852 -0.1264 0.7276
O5 O 0.3697(3) 0.4173(3) 0.37089(17)
N3 N 1.0449(3) 0.1471(3) 0.6801(2)
H4 H 0.9912 0.1881 0.6550
N4 N 1.5839(3) 0.0182(3) 0.76062(19)
C1 C 1.1244(4) 0.0376(4) 0.7583(2)
C2 C 1.3614(4) 0.0235(4) 0.7345(2)
C3 C 1.1292(5) -0.0364(4) 0.8173(3)
H5 H 1.0829 -0.0065 0.8507
H6 H 1.2189 -0.0486 0.8376
H7 H 1.0888 -0.1013 0.8013
C4 C 0.6027(4) 0.2011(4) 0.5660(2)
C5 C 0.4605(4) 0.2761(4) 0.4431(2)
C6 C 1.4048(4) -0.0740(3) 0.7171(2)
C7 C 0.5561(5) 0.1340(4) 0.5111(3)
H8 H 0.5744 0.0630 0.5156
C8 C 0.6807(4) 0.1573(4) 0.6301(2)
C9 C 1.4793(4) 0.0759(4) 0.7627(2)
C10 C 1.4882(4) 0.1849(4) 0.7895(3)
H9 H 1.5708 0.1945 0.8192
H10 H 1.4179 0.1974 0.8144
H11 H 1.4818 0.2331 0.7520
C11 C 1.2257(4) 0.0629(4) 0.7226(2)
C12 C 1.1724(4) 0.1327(4) 0.6724(2)
C13 C 0.4856(5) 0.1694(4) 0.4519(3)
H12 H 0.4539 0.1227 0.4170
C14 C 0.3891(4) 0.3201(4) 0.3758(2)
C15 C 0.5076(4) 0.3442(4) 0.4967(2)
H13 H 0.4921 0.4156 0.4915
C16 C 0.5769(4) 0.3061(4) 0.5573(2)
H14 H 0.6066 0.3522 0.5928
C17 C 1.2310(5) 0.1857(4) 0.6180(3)
H15 H 1.2611 0.1342 0.5891
H16 H 1.3036 0.2281 0.6386
H17 H 1.1660 0.2291 0.5912
C18 C 1.3281(5) -0.1682(4) 0.6875(3)
H18 H 1.3864 -0.2172 0.6715
H19 H 1.2622 -0.1468 0.6500
H20 H 1.2869 -0.2005 0.7220
Cd1_2 Cd 1.79882(3) 0.07586(2) 0.754736(15)
Cd1C Cd 0.29882(3) 0.42414(2) 0.254736(15)
O4C O 0.8513(4) 0.2413(3) 0.82737(18)
O5C O 0.8697(3) 0.0827(3) 0.87089(17)
N4_2 N 0.5839(3) 0.0182(3) 0.76062(19)
loop_
_geom_bond_atom_site_label_1
_geom_bond_atom_site_label_2
_geom_bond_site_symmetry_1
_geom_bond_site_symmetry_2
Cd1 O1 1_555 1_555
O1 C8 1_555 1_555
O2 Cd1 1_555 1_555
O3 Cd1 1_555 1_555
H1 O3 1_555 1_555
H2 O3 1_555 1_555
O4 C14 1_555 1_555
N1 Cd1 1_555 1_555
N2 H3 1_555 1_555
O5 C14 1_555 1_555
N3 N1 1_555 1_555
H4 N3 1_555 1_555
N4 N2 1_555 1_555
C1 N1 1_555 1_555
C2 C6 1_555 1_555
C3 C1 1_555 1_555
H5 C3 1_555 1_555
H6 C3 1_555 1_555
H7 C3 1_555 1_555
C4 C7 1_555 1_555
C5 C13 1_555 1_555
C6 N2 1_555 1_555
C7 H8 1_555 1_555
C8 O2 1_555 1_555
C9 N4 1_555 1_555
C10 C9 1_555 1_555
H9 C10 1_555 1_555
H10 C10 1_555 1_555
H11 C10 1_555 1_555
C11 C1 1_555 1_555
C12 N3 1_555 1_555
C13 C7 1_555 1_555
H12 C13 1_555 1_555
C14 C5 1_555 1_555
C15 C5 1_555 1_555
H13 C15 1_555 1_555
C16 C4 1_555 1_555
H14 C16 1_555 1_555
C17 C12 1_555 1_555
H15 C17 1_555 1_555
H16 C17 1_555 1_555
H17 C17 1_555 1_555
C18 C6 1_555 1_555
H18 C18 1_555 1_555
H19 C18 1_555 1_555
H20 C18 1_555 1_555
Cd1_2 N4 1_555 1_555
Cd1C O4 1_555 1_555
O4C Cd1 1_555 1_555
O5C Cd1 1_555 1_555
N4_2 Cd1 1_555 1_555
O5 Cd1C 1_555 1_555
C2 C9 1_555 1_555
C2 C11 1_555 1_555
C4 C8 1_555 1_555
C11 C12 1_555 1_555
C15 C16 1_555 1_555

#END
