
#######################################################################
#
#                 Cambridge Crystallographic Data Centre
#                                CCDC 
#
#######################################################################
#
# If this CIF has been generated from an entry in the Cambridge 
# Structural Database, then it will include bibliographic, chemical, 
# crystal, experimental, refinement or atomic coordinate data resulting 
# from the CCDC's data processing and validation procedures.
#
#######################################################################

data_LUKHAC
_symmetry_cell_setting           monoclinic
_symmetry_space_group_name_H-M   'P 21/n'
_symmetry_Int_Tables_number      14
_space_group_name_Hall           '-P 2yn'
loop_
_symmetry_equiv_pos_site_id
_symmetry_equiv_pos_as_xyz
1 x,y,z
2 1/2-x,1/2+y,1/2-z
3 -x,-y,-z
4 1/2+x,1/2-y,1/2+z
_cell_length_a                   11.2182(9)
_cell_length_b                   17.3265(10)
_cell_length_c                   11.2359(8)
_cell_angle_alpha                90
_cell_angle_beta                 116.602(5)
_cell_angle_gamma                90
_cell_volume                     1952.75
loop_
_atom_site_label
_atom_site_type_symbol
_atom_site_fract_x
_atom_site_fract_y
_atom_site_fract_z
Co1 Co 0.37206(6) 0.22279(3) 0.68888(6)
C1 C 0.2380(5) 0.2745(2) 0.8769(4)
C2 C 0.0979(4) 0.0564(2) 0.5497(4)
C3 C 0.2033(4) 0.1175(2) 0.6053(4)
C4 C 0.0005(4) 0.0601(2) 0.4197(4)
H1 H 0.0005 0.1007 0.3657
C5 C 0.1475(5) 0.3318(3) 0.8788(5)
C6 C 0.4250(4) 0.4430(2) 0.5221(4)
C7 C 0.5581(5) 0.4303(2) 0.5552(4)
H2 H 0.5975 0.3834 0.5921
C8 C 0.3675(4) 0.5127(2) 0.4664(4)
H3 H 0.2780 0.5215 0.4431
C9 C 0.3428(5) 0.3804(2) 0.5410(4)
C10 C 0.0969(4) -0.0041(2) 0.6309(4)
H4 H 0.1617 -0.0068 0.7190
C11 C 0.1105(5) 0.3740(2) 0.7644(4)
C12 C 0.1071(5) 0.3420(3) 0.9864(5)
C13 C 0.0199(5) 0.4419(3) 0.7108(5)
H5 H 0.0714 0.4886 0.7361
H6 H -0.0437 0.4421 0.7463
H7 H -0.0263 0.4387 0.6155
C14 C 0.3057(5) 0.2138(3) 0.9770(5)
H8 H 0.3109 0.1674 0.9329
H9 H 0.2563 0.2040 1.0264
H10 H 0.3941 0.2307 1.0366
N1 N 0.2553(4) 0.28161(18) 0.7674(3)
N2 N 0.1763(4) 0.3430(2) 0.7013(4)
H11 H 0.1695 0.3600 0.6266
O1 O 0.3008(3) 0.10968(15) 0.7178(3)
O2 O 0.1944(3) 0.17681(15) 0.5353(3)
O3 O 0.5301(3) 0.22384(16) 0.8725(3)
H12 H 0.5148 0.1936 0.9238
H13 H 0.5411 0.2695 0.9035
O4 O 0.4055(3) 0.32674(16) 0.6206(3)
O5 O 0.2184(3) 0.38488(16) 0.4765(3)
N3 N 0.1084(4) 0.3642(2) 1.1766(4)
H14 H 0.1368 0.3772 1.2587
N4 N -0.0107(4) 0.33250(19) 1.1055(3)
C15 C -0.0135(5) 0.3170(3) 0.9872(5)
C16 C 0.1813(5) 0.3744(3) 1.1085(4)
C17 C -0.1312(5) 0.2814(3) 0.8729(5)
H15 H -0.2067 0.2818 0.8916
H16 H -0.1516 0.3104 0.7933
H17 H -0.1105 0.2291 0.8607
C18 C 0.3144(5) 0.4096(3) 1.1635(5)
H18 H 0.3785 0.3746 1.2256
H19 H 0.3375 0.4204 1.0926
H20 H 0.3143 0.4568 1.2083
C2B C -0.0979(4) -0.0564(2) 0.4503(4)
C3B C -0.2033(4) -0.1175(2) 0.3947(4)
C4B C -0.0005(4) -0.0601(2) 0.5803(4)
H1B H -0.0005 -0.1007 0.6343
C10B C -0.0969(4) 0.0041(2) 0.3691(4)
H4B H -0.1617 0.0068 0.2810
O1B O -0.3008(3) -0.10968(15) 0.2822(3)
O2B O -0.1944(3) -0.17681(15) 0.4647(3)
C6B C 0.5750(4) 0.5570(2) 0.4779(4)
C7B C 0.4419(5) 0.5697(2) 0.4448(4)
H2B H 0.4025 0.6166 0.4079
C8B C 0.6325(4) 0.4873(2) 0.5336(4)
H3B H 0.7220 0.4785 0.5569
C9B C 0.6572(5) 0.6196(2) 0.4590(4)
O4B O 0.5945(3) 0.67326(16) 0.3794(3)
O5B O 0.7816(3) 0.61512(16) 0.5235(3)
Co1B Co -0.37206(6) -0.22279(3) 0.31112(6)
C1B C -0.2380(5) -0.2745(2) 0.1231(4)
C5B C -0.1475(5) -0.3318(3) 0.1212(5)
C11B C -0.1105(5) -0.3740(2) 0.2356(4)
C12B C -0.1071(5) -0.3420(3) 0.0136(5)
C13B C -0.0199(5) -0.4419(3) 0.2892(5)
H5B H -0.0714 -0.4886 0.2639
H6B H 0.0437 -0.4421 0.2537
H7B H 0.0263 -0.4387 0.3845
C14B C -0.3057(5) -0.2138(3) 0.0230(5)
H8B H -0.3109 -0.1674 0.0671
H9B H -0.2563 -0.2040 -0.0264
H10B H -0.3941 -0.2307 -0.0366
N1B N -0.2553(4) -0.28161(18) 0.2326(3)
N2B N -0.1763(4) -0.3430(2) 0.2987(4)
H11B H -0.1695 -0.3600 0.3734
O3B O -0.5301(3) -0.22384(16) 0.1275(3)
H12B H -0.5148 -0.1936 0.0762
H13B H -0.5411 -0.2695 0.0965
N3B N -0.1084(4) -0.3642(2) -0.1766(4)
H14B H -0.1368 -0.3772 -0.2587
N4B N 0.0107(4) -0.33250(19) -0.1055(3)
C15B C 0.0135(5) -0.3170(3) 0.0128(5)
C16B C -0.1813(5) -0.3744(3) -0.1085(4)
C17B C 0.1312(5) -0.2814(3) 0.1271(5)
H15B H 0.2067 -0.2818 0.1084
H16B H 0.1516 -0.3104 0.2067
H17B H 0.1105 -0.2291 0.1393
C18B C -0.3144(5) -0.4096(3) -0.1635(5)
H18B H -0.3785 -0.3746 -0.2256
H19B H -0.3375 -0.4204 -0.0926
H20B H -0.3143 -0.4568 -0.2083
Co1A Co 0.12794(6) -0.27721(3) -0.18888(6)
Co1B_2 Co 0.62794(6) 0.77721(3) 0.31112(6)
Co1C Co -0.12794(6) 0.27721(3) 1.18888(6)
O4B_2 O -0.4055(3) -0.32674(16) 0.3794(3)
N4A N -0.4893(4) -0.16750(19) 0.3945(3)
N4C N 0.4893(4) 0.16750(19) 0.6055(3)
loop_
_geom_bond_atom_site_label_1
_geom_bond_atom_site_label_2
_geom_bond_site_symmetry_1
_geom_bond_site_symmetry_2
Co1 N1 1_555 1_555
C1 C5 1_555 1_555
C2 C3 1_555 1_555
C3 O1 1_555 1_555
C4 C2 1_555 1_555
H1 C4 1_555 1_555
C5 C11 1_555 1_555
C6 C7 1_555 1_555
C7 H2 1_555 1_555
C8 C6 1_555 1_555
H3 C8 1_555 1_555
C9 C6 1_555 1_555
C10 C2 1_555 1_555
H4 C10 1_555 1_555
C11 C13 1_555 1_555
C12 C5 1_555 1_555
C13 H5 1_555 1_555
H6 C13 1_555 1_555
H7 C13 1_555 1_555
C14 C1 1_555 1_555
H8 C14 1_555 1_555
H9 C14 1_555 1_555
H10 C14 1_555 1_555
N1 C1 1_555 1_555
N2 C11 1_555 1_555
H11 N2 1_555 1_555
O1 Co1 1_555 1_555
O2 Co1 1_555 1_555
O3 Co1 1_555 1_555
H12 O3 1_555 1_555
H13 O3 1_555 1_555
O4 Co1 1_555 1_555
O5 C9 1_555 1_555
N3 H14 1_555 1_555
N4 N3 1_555 1_555
C15 C12 1_555 1_555
C16 C12 1_555 1_555
C17 C15 1_555 1_555
H15 C17 1_555 1_555
H16 C17 1_555 1_555
H17 C17 1_555 1_555
C18 C16 1_555 1_555
H18 C18 1_555 1_555
H19 C18 1_555 1_555
H20 C18 1_555 1_555
C2B C3B 1_555 1_555
C3B O1B 1_555 1_555
C4B C10 1_555 1_555
H1B C4B 1_555 1_555
C10B C4 1_555 1_555
H4B C10B 1_555 1_555
O1B Co1B 1_555 1_555
O2B C3B 1_555 1_555
C6B C7B 1_555 1_555
C7B C8 1_555 1_555
H2B C7B 1_555 1_555
C8B C7 1_555 1_555
H3B C8B 1_555 1_555
C9B C6B 1_555 1_555
O4B C9B 1_555 1_555
O5B C9B 1_555 1_555
Co1B O2B 1_555 1_555
C1B C5B 1_555 1_555
C5B C11B 1_555 1_555
C11B C13B 1_555 1_555
C12B C5B 1_555 1_555
C13B H5B 1_555 1_555
H6B C13B 1_555 1_555
H7B C13B 1_555 1_555
C14B C1B 1_555 1_555
H8B C14B 1_555 1_555
H9B C14B 1_555 1_555
H10B C14B 1_555 1_555
N1B Co1B 1_555 1_555
N2B C11B 1_555 1_555
H11B N2B 1_555 1_555
O3B Co1B 1_555 1_555
H12B O3B 1_555 1_555
H13B O3B 1_555 1_555
N3B H14B 1_555 1_555
N4B N3B 1_555 1_555
C15B C12B 1_555 1_555
C16B C12B 1_555 1_555
C17B C15B 1_555 1_555
H15B C17B 1_555 1_555
H16B C17B 1_555 1_555
H17B C17B 1_555 1_555
C18B C16B 1_555 1_555
H18B C18B 1_555 1_555
H19B C18B 1_555 1_555
H20B C18B 1_555 1_555
Co1A N4B 1_555 1_555
Co1B_2 O4B 1_555 1_555
Co1C N4 1_555 1_555
O4B_2 Co1B 1_555 1_555
N4A Co1B 1_555 1_555
N4C Co1 1_555 1_555
C3 O2 1_555 1_555
C9 O4 1_555 1_555
N1 N2 1_555 1_555
N3 C16 1_555 1_555
N4 C15 1_555 1_555
C2B C4B 1_555 1_555
C2B C10B 1_555 1_555
C6B C8B 1_555 1_555
C1B N1B 1_555 1_555
N1B N2B 1_555 1_555
N3B C16B 1_555 1_555
N4B C15B 1_555 1_555

#END
