
#######################################################################
#
#                 Cambridge Crystallographic Data Centre
#                                CCDC 
#
#######################################################################
#
# If this CIF has been generated from an entry in the Cambridge 
# Structural Database, then it will include bibliographic, chemical, 
# crystal, experimental, refinement or atomic coordinate data resulting 
# from the CCDC's data processing and validation procedures.
#
#######################################################################

data_LUKNEK
_symmetry_cell_setting           monoclinic
_symmetry_space_group_name_H-M   'P 21/c'
_symmetry_Int_Tables_number      14
_space_group_name_Hall           '-P 2ybc'
loop_
_symmetry_equiv_pos_site_id
_symmetry_equiv_pos_as_xyz
1 x,y,z
2 x,1/2-y,1/2+z
3 -x,-y,-z
4 -x,1/2+y,1/2-z
_cell_length_a                   12.5560(3)
_cell_length_b                   16.2540(4)
_cell_length_c                   11.5990(3)
_cell_angle_alpha                90
_cell_angle_beta                 107.9320(17)
_cell_angle_gamma                90
_cell_volume                     2252.19
loop_
_atom_site_label
_atom_site_type_symbol
_atom_site_fract_x
_atom_site_fract_y
_atom_site_fract_z
Ag1 Ag 0.006103(15) 0.618776(11) 0.747509(15)
C1 C 0.00714(19) 0.62662(13) 0.3129(2)
C2 C -0.07433(19) 0.66662(14) 0.3523(2)
C3 C -0.06509(19) 0.66405(15) 0.4744(2)
H1 H -0.1185 0.6921 0.4997
N1 N 0.01558(17) 0.62396(12) 0.55823(18)
C4 C 0.0936(2) 0.58563(15) 0.5205(2)
H2 H 0.1506 0.5576 0.5773
C5 C 0.09286(19) 0.58601(14) 0.4005(2)
C6 C -0.1665(2) 0.71700(15) 0.2697(2)
C7 C 0.1834(2) 0.53976(15) 0.3664(2)
O1 O -0.15127(14) 0.75505(11) 0.18337(15)
O2 O 0.15848(14) 0.49120(11) 0.28084(15)
N2 N -0.2609(2) 0.72144(17) 0.2983(2)
N3 N 0.28719(18) 0.55482(16) 0.4345(2)
C8 C 0.00395(19) 0.62755(13) 0.1824(2)
C9 C -0.08088(19) 0.58656(14) 0.0920(2)
C10 C -0.0787(2) 0.58834(15) -0.0265(2)
H3 H -0.1343 0.5600 -0.0847
N4 N -0.00126(17) 0.62845(12) -0.06249(18)
C11 C 0.07807(19) 0.66829(15) 0.0228(2)
H4 H 0.1314 0.6975 -0.0011
C12 C 0.08597(19) 0.66892(14) 0.1451(2)
C13 C -0.16701(19) 0.53432(14) 0.1231(2)
C14 C 0.1785(2) 0.71760(15) 0.2307(2)
O3 O -0.14551(14) 0.50005(10) 0.22191(15)
O4 O 0.16262(14) 0.75470(11) 0.31740(15)
N5 N -0.2636(2) 0.52423(18) 0.0355(2)
N6 N 0.27501(19) 0.71986(16) 0.2056(2)
H7 H -0.269(2) 0.6926(19) 0.360(3)
H8 H -0.312(3) 0.756(2) 0.259(3)
H9 H 0.298(2) 0.5866(18) 0.491(3)
H10 H 0.339(3) 0.5273(19) 0.419(3)
H11 H -0.278(2) 0.5537(18) -0.026(3)
H12 H -0.306(2) 0.4857(18) 0.044(2)
H13 H 0.285(2) 0.6896(18) 0.144(3)
H14 H 0.324(3) 0.748(2) 0.248(3)
O1A O -0.15127(14) 0.74495(11) 0.68337(15)
O2B O -0.15848(14) 0.50880(11) 0.71916(15)
N4_2 N -0.00126(17) 0.62845(12) 0.93751(18)
O3B O 0.14551(14) 0.49995(10) 0.77809(15)
O4A O 0.16262(14) 0.74530(11) 0.81740(15)
Ag1A Ag 0.006103(15) 0.881224(11) 0.247509(15)
Ag1B Ag -0.006103(15) 0.381224(11) 0.252491(15)
Ag1_2 Ag 0.006103(15) 0.618776(11) -0.252491(15)
S1 S 0.48784(5) 0.08601(4) 0.79626(6)
O5 O 0.39439(16) 0.11866(11) 0.69993(18)
O6 O 0.59137(17) 0.12989(12) 0.8174(2)
O7 O 0.46159(14) 0.06357(12) 0.90497(16)
C15 C 0.5141(2) -0.01252(19) 0.7367(2)
F1 F 0.60858(18) -0.04567(12) 0.80739(17)
F2 F 0.43120(19) -0.06421(12) 0.72932(18)
F3 F 0.52312(15) -0.00493(12) 0.62631(15)
O8 O 0.67110(19) 0.15477(13) 0.50800(18)
H15 H 0.608(3) 0.171(2) 0.506(3)
H16 H 0.722(3) 0.180(2) 0.570(3)
O9 O 0.31797(18) 0.33396(14) 0.48909(17)
H17 H 0.262(3) 0.308(3) 0.417(4)
H18 H 0.352(3) 0.367(2) 0.471(3)
O10 O 0.5041(3) 0.2706(2) 0.0764(4)
H5 H 0.4815 0.3074 0.1167
H6 H 0.4526 0.2341 0.0378
O11? O 0.4571(5) 0.3015(5) -0.0020(7)
loop_
_geom_bond_atom_site_label_1
_geom_bond_atom_site_label_2
_geom_bond_site_symmetry_1
_geom_bond_site_symmetry_2
Ag1 N1 1_555 1_555
C1 C2 1_555 1_555
C2 C3 1_555 1_555
C3 H1 1_555 1_555
N1 C3 1_555 1_555
C4 N1 1_555 1_555
H2 C4 1_555 1_555
C5 C1 1_555 1_555
C6 C2 1_555 1_555
C7 C5 1_555 1_555
O1 C6 1_555 1_555
O2 C7 1_555 1_555
N2 C6 1_555 1_555
N3 C7 1_555 1_555
C8 C1 1_555 1_555
C9 C8 1_555 1_555
C10 C9 1_555 1_555
H3 C10 1_555 1_555
N4 C10 1_555 1_555
C11 N4 1_555 1_555
H4 C11 1_555 1_555
C12 C8 1_555 1_555
C13 C9 1_555 1_555
C14 C12 1_555 1_555
O3 C13 1_555 1_555
O4 C14 1_555 1_555
N5 C13 1_555 1_555
N6 C14 1_555 1_555
S1 O5 1_555 1_555
O6 S1 1_555 1_555
O7 S1 1_555 1_555
C15 S1 1_555 1_555
F1 C15 1_555 1_555
F2 C15 1_555 1_555
F3 C15 1_555 1_555
O8 H15 1_555 1_555
O9 H17 1_555 1_555
O10 H5 1_555 1_555
H6 O10 1_555 1_555
H7 N2 1_555 1_555
H8 N2 1_555 1_555
H9 N3 1_555 1_555
H10 N3 1_555 1_555
H11 N5 1_555 1_555
H12 N5 1_555 1_555
H13 N6 1_555 1_555
H14 N6 1_555 1_555
H16 O8 1_555 1_555
H18 O9 1_555 1_555
O1A Ag1 1_555 1_555
O2B Ag1 1_555 1_555
N4_2 Ag1 1_555 1_555
O3B Ag1 1_555 1_555
O4A Ag1 1_555 1_555
Ag1A O1 1_555 1_555
Ag1B O2 1_555 1_555
Ag1_2 N4 1_555 1_555
C4 C5 1_555 1_555
C11 C12 1_555 1_555
O3 Ag1B 1_555 1_555
O4 Ag1A 1_555 1_555

#END
