
#######################################################################
#
#                 Cambridge Crystallographic Data Centre
#                                CCDC 
#
#######################################################################
#
# If this CIF has been generated from an entry in the Cambridge 
# Structural Database, then it will include bibliographic, chemical, 
# crystal, experimental, refinement or atomic coordinate data resulting 
# from the CCDC's data processing and validation procedures.
#
#######################################################################

data_LUKREO
_symmetry_cell_setting           orthorhombic
_symmetry_space_group_name_H-M   'P 21 21 21'
_symmetry_Int_Tables_number      19
_space_group_name_Hall           'P 2ac 2ab'
loop_
_symmetry_equiv_pos_site_id
_symmetry_equiv_pos_as_xyz
1 x,y,z
2 1/2-x,-y,1/2+z
3 -x,1/2+y,1/2-z
4 1/2+x,1/2-y,-z
_cell_length_a                   7.9137(7)
_cell_length_b                   12.7304(11)
_cell_length_c                   27.357(2)
_cell_angle_alpha                90
_cell_angle_beta                 90
_cell_angle_gamma                90
_cell_volume                     2756.07
loop_
_atom_site_label
_atom_site_type_symbol
_atom_site_fract_x
_atom_site_fract_y
_atom_site_fract_z
Mn1 Mn 0.65555(12) 0.74247(8) 0.97713(4)
P1 P 0.4064(2) 0.55152(14) 1.03237(7)
O1 O 0.4789(6) 0.7431(4) 0.91717(16)
O2 O 1.0386(6) 0.3659(4) 1.25124(17)
O3 O 0.5317(5) 0.6018(3) 0.99782(15)
C1 C 0.4501(10) 0.4116(5) 1.1111(3)
O4 O 0.3206(6) 0.4538(4) 1.00706(18)
C2 C 0.5208(9) 0.2512(6) 1.3568(2)
O5 O 0.7816(6) 0.1590(4) 1.17299(17)
C3 C 0.7962(8) 0.3610(5) 1.2000(2)
C4 C 0.6360(10) 0.0979(6) 1.2461(3)
C5 C 1.0421(10) 0.4639(6) 1.1747(2)
C6 C 0.5788(9) 0.2267(5) 1.3098(2)
C7 C 0.5377(9) 0.3697(6) 1.1487(3)
C8 C 0.6714(9) 0.4098(5) 1.3009(3)
C9 C 0.7863(8) 0.4703(5) 1.1262(2)
C10 C 0.9599(9) 0.3964(5) 1.2081(2)
C11 C 0.6909(9) 0.5139(6) 1.0875(2)
C12 C 0.5686(9) 0.1257(6) 1.2910(3)
C13 C 0.7186(9) 0.2810(5) 1.2331(3)
C14 C 0.7117(9) 0.1788(6) 1.2176(3)
C15 C 0.6571(9) 0.3068(5) 1.2810(2)
C16 C 0.5245(9) 0.4888(5) 1.0800(2)
C17 C 0.6171(9) 0.4307(6) 1.3476(3)
C18 C 0.9560(10) 0.4977(6) 1.1346(3)
C19 C 1.2014(10) 0.3163(7) 1.2463(3)
C20 C 0.8195(12) 0.0508(6) 1.1594(3)
C21 C 0.9305(10) 0.0587(6) 1.1135(3)
H1 H 0.8694 0.0969 1.0880
H2 H 0.9581 -0.0120 1.1019
H3 H 1.0350 0.0963 1.1215
C22 C 0.7064(8) 0.3992(5) 1.1592(2)
C23 C 0.5401(8) 0.3497(5) 1.3765(2)
P2 P 0.4827(2) 0.37191(14) 1.43897(7)
O6 O 0.6236(5) 0.3443(3) 1.47297(16)
O7 O 0.3227(6) 0.3132(3) 1.45058(16)
O8 O 0.2738(5) 0.6227(4) 1.05344(16)
O9 O 0.4474(7) 0.4932(4) 1.44408(18)
C24 C 1.1848(13) 0.2073(7) 1.2246(4)
H4 H 1.1197 0.1626 1.2469
H5 H 1.2974 0.1771 1.2198
H6 H 1.1264 0.2117 1.1930
C25 C 0.4986(12) 0.7375(8) 0.8659(3)
H7 H 0.6054 0.7708 0.8565
H8 H 0.4045 0.7741 0.8500
H9 H 0.4994 0.6638 0.8556
H10 H 0.491(7) 0.314(4) 1.1686(19)
H11 H 1.226(10) 0.300(6) 1.288(3)
H12 H 0.992(8) 0.538(5) 1.117(2)
H13 H 0.531(8) 0.079(5) 1.306(2)
H14 H 0.726(7) 0.463(4) 1.2824(19)
H15 H 1.292(8) 0.364(5) 1.224(2)
H16 H 0.339(9) 0.390(5) 1.106(2)
H17 H 0.636(9) 0.500(5) 1.360(2)
H18 H 1.177(11) 0.490(6) 1.187(3)
H19 H 0.470(12) 0.193(7) 1.375(3)
H20 H 0.878(9) 0.027(5) 1.189(3)
H21 H 0.715(10) 0.029(6) 1.146(3)
H22 H 0.744(9) 0.565(5) 1.070(2)
H23 H 0.603(8) 0.037(5) 1.234(2)
H24 H 0.533(9) 0.530(6) 1.449(3)
H25 H 0.261(9) 0.470(6) 0.987(2)
O6A O 0.8764(5) 0.6557(3) 0.97297(16)
O7B O 0.6773(6) 0.8132(3) 1.04942(16)
O8C O 0.7738(5) 0.8773(4) 0.94656(16)
Mn1A Mn 0.84445(12) 0.25753(8) 1.47713(4)
Mn1B Mn 0.34445(12) 0.24247(8) 1.52287(4)
Mn1C Mn 0.15555(12) 0.75753(8) 1.02287(4)
O10 O 0.7372(7) 0.5723(4) 1.46543(19)
C26 C 0.7755(16) 0.6772(9) 1.4860(5)
H26 H 0.8905 0.6774 1.4994
H27 H 0.6948 0.6934 1.5121
H28 H 0.7666 0.7303 1.4602
loop_
_geom_bond_atom_site_label_1
_geom_bond_atom_site_label_2
_geom_bond_site_symmetry_1
_geom_bond_site_symmetry_2
Mn1 O1 1_555 1_555
P1 O3 1_555 1_555
O1 C25 1_555 1_555
O2 C10 1_555 1_555
O3 Mn1 1_555 1_555
C1 C7 1_555 1_555
O4 P1 1_555 1_555
C2 C6 1_555 1_555
O5 C14 1_555 1_555
C3 C10 1_555 1_555
C4 C12 1_555 1_555
C5 C10 1_555 1_555
C6 C12 1_555 1_555
C7 C22 1_555 1_555
C8 C15 1_555 1_555
C9 C11 1_555 1_555
C11 C16 1_555 1_555
C12 H13 1_555 1_555
C13 C3 1_555 1_555
C14 C4 1_555 1_555
C15 C6 1_555 1_555
C16 P1 1_555 1_555
C17 C8 1_555 1_555
C18 C5 1_555 1_555
C19 O2 1_555 1_555
C20 O5 1_555 1_555
C21 C20 1_555 1_555
H1 C21 1_555 1_555
H2 C21 1_555 1_555
H3 C21 1_555 1_555
C22 C3 1_555 1_555
C23 C2 1_555 1_555
P2 C23 1_555 1_555
O6 P2 1_555 1_555
O7 P2 1_555 1_555
O8 P1 1_555 1_555
O9 P2 1_555 1_555
C24 C19 1_555 1_555
H4 C24 1_555 1_555
H5 C24 1_555 1_555
H6 C24 1_555 1_555
C25 H7 1_555 1_555
H8 C25 1_555 1_555
H9 C25 1_555 1_555
H10 C7 1_555 1_555
H11 C19 1_555 1_555
H12 C18 1_555 1_555
H14 C8 1_555 1_555
H15 C19 1_555 1_555
H16 C1 1_555 1_555
H17 C17 1_555 1_555
H18 C5 1_555 1_555
H19 C2 1_555 1_555
H20 C20 1_555 1_555
H21 C20 1_555 1_555
H22 C11 1_555 1_555
H23 C4 1_555 1_555
H24 O9 1_555 1_555
H25 O4 1_555 1_555
O10 C26 1_555 1_555
C26 H26 1_555 1_555
H27 C26 1_555 1_555
H28 C26 1_555 1_555
O6A Mn1 1_555 1_555
O7B Mn1 1_555 1_555
O8C Mn1 1_555 1_555
Mn1A O6 1_555 1_555
Mn1B O7 1_555 1_555
Mn1C O8 1_555 1_555
C1 C16 1_555 1_555
C9 C18 1_555 1_555
C9 C22 1_555 1_555
C13 C14 1_555 1_555
C13 C15 1_555 1_555
C17 C23 1_555 1_555

#END
