
#######################################################################
#
#                 Cambridge Crystallographic Data Centre
#                                CCDC 
#
#######################################################################
#
# If this CIF has been generated from an entry in the Cambridge 
# Structural Database, then it will include bibliographic, chemical, 
# crystal, experimental, refinement or atomic coordinate data resulting 
# from the CCDC's data processing and validation procedures.
#
#######################################################################

data_LUKRUE
_symmetry_cell_setting           orthorhombic
_symmetry_space_group_name_H-M   'P 21 21 21'
_symmetry_Int_Tables_number      19
_space_group_name_Hall           'P 2ac 2ab'
loop_
_symmetry_equiv_pos_site_id
_symmetry_equiv_pos_as_xyz
1 x,y,z
2 1/2-x,-y,1/2+z
3 -x,1/2+y,1/2-z
4 1/2+x,1/2-y,-z
_cell_length_a                   8.2110(6)
_cell_length_b                   13.4308(10)
_cell_length_c                   25.664(2)
_cell_angle_alpha                90
_cell_angle_beta                 90
_cell_angle_gamma                90
_cell_volume                     2830.23
loop_
_atom_site_label
_atom_site_type_symbol
_atom_site_fract_x
_atom_site_fract_y
_atom_site_fract_z
Cu1 Cu 0.84362(8) 0.30980(5) 0.00293(3)
P1 P 1.1350(2) 0.31191(16) 0.07429(7)
O1 O 0.9812(7) 0.3631(4) 0.0566(2)
C1 C 1.1567(8) 0.1793(5) 0.2161(3)
C2 C 1.1193(8) 0.2882(5) 0.1432(3)
C3 C 1.1670(8) 0.1989(6) 0.1618(3)
C4 C 1.0185(9) 0.3076(6) 0.3405(3)
C5 C 1.0949(10) 0.2344(6) 0.3052(3)
C6 C 1.0985(8) 0.2553(5) 0.2506(3)
O2 O 0.7936(9) 0.2025(6) 0.3473(3)
C7 C 1.0599(9) 0.3634(6) 0.1760(3)
C8 C 1.1059(9) 0.3953(5) 0.3574(3)
C9 C 1.2097(10) 0.0872(6) 0.2374(3)
O3 O 1.1520(12) 0.1309(5) 0.3773(2)
C10 C 1.2105(12) 0.0672(7) 0.2916(4)
C11 C 1.0480(9) 0.3426(5) 0.2301(3)
C12 C 0.8628(11) 0.2935(7) 0.3572(4)
C13 C 1.1577(11) 0.1430(6) 0.3245(3)
O4 O 1.2860(8) 0.3831(6) 0.0681(3)
C14 C 1.2576(18) 0.0507(10) 0.3972(5)
C15 C 1.2718(10) 0.4120(6) 0.3442(3)
C16 C 0.677(2) 0.2045(15) 0.3133(7)
C17 C 1.0258(8) 0.4664(5) 0.3901(3)
C18 C 0.8623(10) 0.4520(6) 0.4039(3)
C19 C 1.1123(8) 0.5500(5) 0.4078(3)
C20 C 1.3540(10) 0.4930(6) 0.3623(3)
C21 C 1.2710(9) 0.5652(5) 0.3947(3)
C22 C 0.7810(12) 0.3625(7) 0.3890(3)
P2 P 1.3855(2) 0.66754(15) 0.41901(7)
O5 O 1.2692(8) 0.7350(5) 0.4446(2)
O6 O 1.4603(6) 0.7205(4) 0.36937(18)
O7 O 1.5269(7) 0.6288(4) 0.4501(2)
C23 C 0.666(2) 0.0915(13) 0.2851(6)
O8 O 1.1766(7) 0.2149(4) 0.04713(19)
C24 C 1.3528(13) 0.7739(8) 0.3354(4)
C25 C 1.4687(15) 0.8277(9) 0.2961(4)
C26 C 1.274(2) 0.0674(11) 0.4622(6)
C27 C 1.260(2) 0.5734(14) 0.0620(7)
C28 C 1.273(3) 0.4777(17) 0.0518(8)
O5B O 0.7308(8) 0.2350(5) 0.0554(2)
O7A O 0.9731(7) 0.3712(4) -0.0499(2)
O8C O 0.6766(7) 0.2851(4) -0.04713(19)
Cu1B Cu 1.15638(8) 0.80980(5) 0.49707(3)
Cu1A Cu 1.65638(8) 0.69020(5) 0.50293(3)
Cu1C Cu 1.34362(8) 0.19020(5) -0.00293(3)
loop_
_geom_bond_atom_site_label_1
_geom_bond_atom_site_label_2
_geom_bond_site_symmetry_1
_geom_bond_site_symmetry_2
Cu1 O1 1_555 1_555
P1 O1 1_555 1_555
C1 C3 1_555 1_555
C2 P1 1_555 1_555
C3 C2 1_555 1_555
C4 C5 1_555 1_555
C5 C6 1_555 1_555
C6 C1 1_555 1_555
O2 C12 1_555 1_555
C7 C2 1_555 1_555
C8 C4 1_555 1_555
C9 C1 1_555 1_555
O3 C13 1_555 1_555
C10 C9 1_555 1_555
C11 C6 1_555 1_555
C12 C4 1_555 1_555
C13 C5 1_555 1_555
O4 P1 1_555 1_555
C14 O3 1_555 1_555
C15 C8 1_555 1_555
C16 O2 1_555 1_555
C17 C8 1_555 1_555
C18 C17 1_555 1_555
C19 C17 1_555 1_555
C20 C15 1_555 1_555
C21 C19 1_555 1_555
C22 C12 1_555 1_555
P2 C21 1_555 1_555
O5 P2 1_555 1_555
O6 P2 1_555 1_555
O7 P2 1_555 1_555
C23 C16 1_555 1_555
O8 P1 1_555 1_555
C24 O6 1_555 1_555
C25 C24 1_555 1_555
C26 C14 1_555 1_555
C27 C28 1_555 1_555
C28 O4 1_555 1_555
O5B Cu1 1_555 1_555
O7A Cu1 1_555 1_555
O8C Cu1 1_555 1_555
Cu1B O5 1_555 1_555
Cu1A O7 1_555 1_555
Cu1C O8 1_555 1_555
C7 C11 1_555 1_555
C10 C13 1_555 1_555
C18 C22 1_555 1_555
C20 C21 1_555 1_555

#END
