
#######################################################################
#
#                 Cambridge Crystallographic Data Centre
#                                CCDC 
#
#######################################################################
#
# If this CIF has been generated from an entry in the Cambridge 
# Structural Database, then it will include bibliographic, chemical, 
# crystal, experimental, refinement or atomic coordinate data resulting 
# from the CCDC's data processing and validation procedures.
#
#######################################################################

data_LUKROY
_symmetry_cell_setting           orthorhombic
_symmetry_space_group_name_H-M   'P 21 21 21'
_symmetry_Int_Tables_number      19
_space_group_name_Hall           'P 2ac 2ab'
loop_
_symmetry_equiv_pos_site_id
_symmetry_equiv_pos_as_xyz
1 x,y,z
2 1/2-x,-y,1/2+z
3 -x,1/2+y,1/2-z
4 1/2+x,1/2-y,-z
_cell_length_a                   7.4339(11)
_cell_length_b                   13.421(2)
_cell_length_c                   30.053(4)
_cell_angle_alpha                90
_cell_angle_beta                 90
_cell_angle_gamma                90
_cell_volume                     2998.4
loop_
_atom_site_label
_atom_site_type_symbol
_atom_site_fract_x
_atom_site_fract_y
_atom_site_fract_z
Ni1 Ni 0.75881(9) 0.44468(5) 0.25175(2)
P1 P 0.34978(17) 0.45241(11) 0.30178(4)
O1 O 0.8907(5) 0.5650(3) 0.28113(12)
O2 O 0.3667(5) 0.7072(3) 0.54879(12)
O3 O 0.2421(5) 0.5256(2) 0.27294(11)
O4 O 0.2544(5) 0.3495(2) 0.29723(11)
C1 C 0.5144(8) 0.3071(4) 0.19632(19)
H1 H 0.4149 0.3431 0.2104
H2 H 0.4792 0.2376 0.1914
H3 H 0.5434 0.3384 0.1677
O5 O 0.7102(5) 0.4890(3) 0.49244(12)
O6 O 0.8884(5) 0.3576(3) 0.29980(12)
O7 O 0.9937(6) 0.4225(3) 0.21531(14)
C2 C 0.1487(7) 0.5243(4) 0.57248(17)
H4 H 0.1031 0.5688 0.5506
O8 O 0.5454(5) 0.4487(3) 0.29163(11)
O9 O 0.6703(5) 0.3103(3) 0.22497(11)
C3 C 0.3558(7) 0.5485(4) 0.45018(16)
C4 C 0.0430(8) 0.4998(4) 0.60869(17)
H5 H -0.0734 0.5283 0.6116
C5 C 0.3715(7) 0.4454(4) 0.43726(16)
H6 H 0.3895 0.3960 0.4595
C6 C 0.3768(7) 0.5798(4) 0.49535(17)
C7 C 0.3240(7) 0.4841(4) 0.56732(17)
C8 C 0.3287(7) 0.4895(4) 0.35946(17)
C9 C 0.3042(7) 0.5865(4) 0.37120(19)
H7 H 0.2786 0.6342 0.3487
C10 C 0.4359(7) 0.5075(4) 0.53053(17)
C11 C 0.6667(8) 0.3972(4) 0.56095(17)
H8 H 0.7831 0.3684 0.5586
C12 C 0.3497(8) 0.6798(4) 0.50538(18)
C13 C 0.3071(8) 0.7497(4) 0.47141(18)
H9 H 0.2891 0.8178 0.4788
C14 C 0.3612(7) 0.4180(4) 0.39408(18)
H10 H 0.3759 0.3497 0.3864
C15 C 0.3157(7) 0.6180(4) 0.41605(18)
C16 C 0.3855(7) 0.4162(4) 0.60002(17)
C17 C 0.3156(9) 0.8067(4) 0.5607(2)
C18 C 0.6041(7) 0.4635(4) 0.52760(16)
C19 C 0.3101(10) 0.8146(5) 0.6104(2)
C20 C 0.5592(8) 0.3749(4) 0.59634(18)
H11 H 0.6019 0.3310 0.6188
C21 C 0.2922(8) 0.7193(4) 0.42851(19)
H12 H 0.2652 0.7671 0.4062
C22 C 0.8626(9) 0.4260(5) 0.4809(2)
C23 C 0.8065(12) 0.3247(6) 0.4653(3)
C24 C 0.1069(7) 0.4324(4) 0.64168(16)
C25 C 0.2737(8) 0.3916(4) 0.63691(17)
H13 H 0.3163 0.3458 0.6586
P2 P -0.03844(19) 0.39195(10) 0.68621(5)
O10 O -0.1520(5) 0.4783(2) 0.70108(11)
O11 O -0.1389(5) 0.3022(3) 0.66840(11)
O12 O 0.0887(5) 0.3533(3) 0.72464(11)
C26 C 0.8587(10) 0.3759(5) 0.3465(2)
C27 C 0.8904(9) 0.6627(4) 0.2621(2)
H14 H 0.9342 0.6593 0.2314
H15 H 0.9692 0.7063 0.2796
H16 H 0.7677 0.6894 0.2624
C28 C 0.9944(9) 0.3979(5) 0.16968(19)
H17 H 0.9461 0.3305 0.1657
H18 H 1.1179 0.4005 0.1583
H19 H 0.9197 0.4456 0.1533
H20 H 0.930(10) 0.470(5) 0.457(2)
H21 H 0.417(8) 0.848(4) 0.5488(19)
H22 H 0.187(7) 0.824(4) 0.5481(17)
H23 H 0.938(8) 0.424(4) 0.5051(19)
H24 H 0.745(10) 0.327(5) 0.440(2)
H25 H 0.746(13) 0.289(5) 0.492(3)
H26 H 0.911(10) 0.286(6) 0.454(2)
H27 H 0.432(8) 0.802(4) 0.6239(17)
H28 H 0.269(10) 0.881(5) 0.620(2)
H29 H 0.209(8) 0.768(4) 0.6226(18)
H30 H 0.952(10) 0.344(5) 0.366(2)
H31 H 0.749(11) 0.352(5) 0.352(2)
H32 H 0.889(9) 0.452(5) 0.354(2)
H33 H 1.071(7) 0.450(4) 0.2202(16)
H34 H 0.998(7) 0.550(4) 0.2877(17)
O10A O 0.6520(5) 0.5217(2) 0.20108(11)
Ni1A Ni -0.25881(9) 0.55532(5) 0.75175(2)
loop_
_geom_bond_atom_site_label_1
_geom_bond_atom_site_label_2
_geom_bond_site_symmetry_1
_geom_bond_site_symmetry_2
Ni1 O1 1_555 1_555
P1 O3 1_555 1_555
O1 C27 1_555 1_555
O2 C12 1_555 1_555
O4 P1 1_555 1_555
C1 H1 1_555 1_555
H2 C1 1_555 1_555
H3 C1 1_555 1_555
O5 C18 1_555 1_555
O6 Ni1 1_555 1_555
O7 Ni1 1_555 1_555
C2 H4 1_555 1_555
O8 Ni1 1_555 1_555
O9 Ni1 1_555 1_555
C3 C5 1_555 1_555
C4 C2 1_555 1_555
H5 C4 1_555 1_555
C5 H6 1_555 1_555
C6 C3 1_555 1_555
C7 C2 1_555 1_555
C8 P1 1_555 1_555
C9 C8 1_555 1_555
H7 C9 1_555 1_555
C10 C6 1_555 1_555
C11 H8 1_555 1_555
C12 C6 1_555 1_555
C13 C12 1_555 1_555
H9 C13 1_555 1_555
C14 C5 1_555 1_555
H10 C14 1_555 1_555
C15 C3 1_555 1_555
C16 C7 1_555 1_555
C17 O2 1_555 1_555
C18 C10 1_555 1_555
C19 C17 1_555 1_555
C20 C11 1_555 1_555
H11 C20 1_555 1_555
C21 C13 1_555 1_555
H12 C21 1_555 1_555
C22 O5 1_555 1_555
C23 C22 1_555 1_555
C24 C4 1_555 1_555
C25 C16 1_555 1_555
H13 C25 1_555 1_555
P2 C24 1_555 1_555
O10 P2 1_555 1_555
O11 P2 1_555 1_555
O12 P2 1_555 1_555
C26 O6 1_555 1_555
C27 H14 1_555 1_555
H15 C27 1_555 1_555
H16 C27 1_555 1_555
C28 O7 1_555 1_555
H17 C28 1_555 1_555
H18 C28 1_555 1_555
H19 C28 1_555 1_555
H20 C22 1_555 1_555
H21 C17 1_555 1_555
H22 C17 1_555 1_555
H23 C22 1_555 1_555
H24 C23 1_555 1_555
H25 C23 1_555 1_555
H26 C23 1_555 1_555
H27 C19 1_555 1_555
H28 C19 1_555 1_555
H29 C19 1_555 1_555
H30 C26 1_555 1_555
H31 C26 1_555 1_555
H32 C26 1_555 1_555
H33 O7 1_555 1_555
H34 O1 1_555 1_555
O10A Ni1 1_555 1_555
Ni1A O10 1_555 1_555
P1 O8 1_555 1_555
C1 O9 1_555 1_555
C7 C10 1_555 1_555
C8 C14 1_555 1_555
C9 C15 1_555 1_555
C11 C18 1_555 1_555
C15 C21 1_555 1_555
C16 C20 1_555 1_555
C24 C25 1_555 1_555

#END
