
#######################################################################
#
#                 Cambridge Crystallographic Data Centre
#                                CCDC 
#
#######################################################################
#
# If this CIF has been generated from an entry in the Cambridge 
# Structural Database, then it will include bibliographic, chemical, 
# crystal, experimental, refinement or atomic coordinate data resulting 
# from the CCDC's data processing and validation procedures.
#
#######################################################################

data_LUKSAM
_symmetry_cell_setting           triclinic
_symmetry_space_group_name_H-M   'P -1'
_symmetry_Int_Tables_number      2
_space_group_name_Hall           '-P 1'
loop_
_symmetry_equiv_pos_site_id
_symmetry_equiv_pos_as_xyz
1 x,y,z
2 -x,-y,-z
_cell_length_a                   7.5488(6)
_cell_length_b                   7.8773(6)
_cell_length_c                   9.8732(7)
_cell_angle_alpha                66.533(7)
_cell_angle_beta                 68.459(6)
_cell_angle_gamma                75.623(6)
_cell_volume                     497.329
loop_
_atom_site_label
_atom_site_type_symbol
_atom_site_fract_x
_atom_site_fract_y
_atom_site_fract_z
C1 C 0.2988(2) 0.5846(2) 0.80089(16)
H1 H 0.2781 0.7011 0.7286
C2 C 0.2373(2) 0.5693(2) 0.95555(16)
C3 C 0.2650(3) 0.3955(2) 1.06360(17)
H2 H 0.2260 0.3787 1.1686
C4 C 0.3521(3) 0.2476(2) 1.01115(19)
H3 H 0.3713 0.1289 1.0812
C5 C 0.4106(3) 0.2763(2) 0.85483(19)
H4 H 0.4698 0.1753 0.8216
C6 C 0.1481(2) 0.7443(2) 0.99158(17)
C7 C 0.8758(2) 0.24404(19) 0.50432(15)
C8 C 0.9773(2) 0.04835(19) 0.55957(16)
H5 H 0.8962 -0.0237 0.6583
H6 H 1.0954 0.0547 0.5742
N1 N 0.38568(18) 0.44336(17) 0.74916(14)
N2 N 0.0455(2) 0.7311(2) 1.13610(16)
H7 H -0.0075 0.8303 1.1588
H8 H 0.0319 0.6233 1.2071
O1 O 0.1720(2) 0.89571(16) 0.88538(14)
O2 O 0.69378(14) 0.25809(13) 0.54034(12)
O3 O 0.97233(16) 0.37637(15) 0.42498(15)
Zn1 Zn 0.5000 0.5000 0.5000
O4 O 0.31897(15) 0.32023(16) 0.51393(14)
H9 H 0.214(3) 0.375(3) 0.500(3)
H10 H 0.364(3) 0.249(3) 0.461(3)
C1A C 0.7012(2) 0.4154(2) 0.19911(16)
H1A H 0.7219 0.2989 0.2714
C2A C 0.7627(2) 0.4307(2) 0.04445(16)
C3A C 0.7350(3) 0.6045(2) -0.06360(17)
H2A H 0.7740 0.6213 -0.1686
C4A C 0.6479(3) 0.7524(2) -0.01115(19)
H3A H 0.6287 0.8711 -0.0812
C5A C 0.5894(3) 0.7237(2) 0.14517(19)
H4A H 0.5302 0.8247 0.1784
C6A C 0.8519(2) 0.2557(2) 0.00842(17)
C7A C 1.1242(2) -0.24404(19) 0.49568(15)
C8A C 1.0227(2) -0.04835(19) 0.44043(16)
H5A H 1.1038 0.0237 0.3417
H6A H 0.9046 -0.0547 0.4258
N1A N 0.61432(18) 0.55664(17) 0.25084(14)
N2A N 0.9545(2) 0.2689(2) -0.13610(16)
H7A H 1.0075 0.1697 -0.1588
H8A H 0.9681 0.3767 -0.2071
O1A O 0.8280(2) 0.10429(16) 0.11462(14)
O2A O 1.30622(14) -0.25809(13) 0.45966(12)
O2A_2 O 0.30622(14) 0.74191(13) 0.45966(12)
O3A O 1.02767(16) -0.37637(15) 0.57502(15)
Zn1_2 Zn 1.5000 -0.5000 0.5000
O4A O 0.68103(15) 0.67977(16) 0.48607(14)
H9A H 0.786(3) 0.625(3) 0.500(3)
H10A H 0.636(3) 0.751(3) 0.539(3)
O5 O 0.45449(18) 0.08578(17) 1.33696(14)
H11 H 0.567(2) 0.080(3) 1.280(2)
H12 H 0.418(3) -0.019(3) 1.375(2)
loop_
_geom_bond_atom_site_label_1
_geom_bond_atom_site_label_2
_geom_bond_site_symmetry_1
_geom_bond_site_symmetry_2
C1 H1 1_555 1_555
C2 C1 1_555 1_555
C3 C2 1_555 1_555
H2 C3 1_555 1_555
C4 C3 1_555 1_555
H3 C4 1_555 1_555
C5 C4 1_555 1_555
H4 C5 1_555 1_555
C6 C2 1_555 1_555
C7 C8 1_555 1_555
C8 H5 1_555 1_555
H6 C8 1_555 1_555
N1 C1 1_555 1_555
N2 C6 1_555 1_555
H7 N2 1_555 1_555
H8 N2 1_555 1_555
O1 C6 1_555 1_555
O2 C7 1_555 1_555
O3 C7 1_555 1_555
Zn1 N1 1_555 1_555
O4 Zn1 1_555 1_555
O5 H11 1_555 1_555
H9 O4 1_555 1_555
H10 O4 1_555 1_555
H12 O5 1_555 1_555
C1A H1A 1_555 1_555
C2A C1A 1_555 1_555
C3A C2A 1_555 1_555
H2A C3A 1_555 1_555
C4A C3A 1_555 1_555
H3A C4A 1_555 1_555
C5A C4A 1_555 1_555
H4A C5A 1_555 1_555
C6A C2A 1_555 1_555
C7A C8A 1_555 1_555
C8A C8 1_555 1_555
H5A C8A 1_555 1_555
H6A C8A 1_555 1_555
N1A Zn1 1_555 1_555
N2A C6A 1_555 1_555
H7A N2A 1_555 1_555
H8A N2A 1_555 1_555
O1A C6A 1_555 1_555
O2A C7A 1_555 1_555
O2A_2 Zn1 1_555 1_555
O3A C7A 1_555 1_555
Zn1_2 O2A 1_555 1_555
O4A Zn1 1_555 1_555
H9A O4A 1_555 1_555
H10A O4A 1_555 1_555
C5 N1 1_555 1_555
O2 Zn1 1_555 1_555
C1A N1A 1_555 1_555
C5A N1A 1_555 1_555

#END
