
#######################################################################
#
#                 Cambridge Crystallographic Data Centre
#                                CCDC 
#
#######################################################################
#
# If this CIF has been generated from an entry in the Cambridge 
# Structural Database, then it will include bibliographic, chemical, 
# crystal, experimental, refinement or atomic coordinate data resulting 
# from the CCDC's data processing and validation procedures.
#
#######################################################################

data_LUKTUH
_symmetry_cell_setting           triclinic
_symmetry_space_group_name_H-M   'P -1'
_symmetry_Int_Tables_number      2
_space_group_name_Hall           '-P 1'
loop_
_symmetry_equiv_pos_site_id
_symmetry_equiv_pos_as_xyz
1 x,y,z
2 -x,-y,-z
_cell_length_a                   10.4150(7)
_cell_length_b                   12.1648(9)
_cell_length_c                   13.2585(10)
_cell_angle_alpha                65.342(4)
_cell_angle_beta                 67.456(4)
_cell_angle_gamma                89.465(5)
_cell_volume                     1387.09
loop_
_atom_site_label
_atom_site_type_symbol
_atom_site_fract_x
_atom_site_fract_y
_atom_site_fract_z
C1 C 0.5426(4) 0.1653(4) 0.4300(4)
C2 C 0.8960(4) 0.4790(4) 0.6700(4)
N1 N 0.8581(4) 0.5627(3) 0.6826(3)
N2 N 0.4411(4) 0.1719(4) 0.4158(3)
C3 C 1.1329(6) 0.3369(5) 0.8022(5)
H1 H 1.0562 0.3794 0.8226
H2 H 1.2078 0.3627 0.8172
H3 H 1.1004 0.2499 0.8515
C4 C 1.3101(5) 0.3003(5) 0.6333(6)
H4 H 1.2782 0.2132 0.6821
H5 H 1.3849 0.3262 0.6484
H6 H 1.3443 0.3197 0.5485
C5 C 1.2403(5) 0.5046(4) 0.5896(5)
H7 H 1.2747 0.5241 0.5047
H8 H 1.3153 0.5293 0.6051
H9 H 1.1640 0.5474 0.6103
C6 C 1.1879(5) 0.3668(4) 0.6667(4)
C7 C 1.0663(4) 0.3256(4) 0.6479(3)
C8 C 0.9410(4) 0.3731(4) 0.6534(3)
C9 C 0.8609(4) 0.2946(4) 0.6399(3)
H10 H 0.7719 0.3015 0.6399
N3 N 1.0624(3) 0.2255(3) 0.6305(3)
N4 N 0.9347(3) 0.2068(3) 0.6267(3)
N5 N 0.8957(3) 0.1595(3) 0.4195(3)
C10 C 1.0279(4) 0.2591(5) 0.1666(4)
H11 H 1.0583 0.3235 0.1808
H12 H 1.0611 0.2861 0.0803
H13 H 1.0656 0.1875 0.2010
C11 C 0.8180(5) 0.1233(5) 0.2049(4)
H14 H 0.8594 0.0533 0.2366
H15 H 0.8475 0.1508 0.1189
H16 H 0.7169 0.1009 0.2458
C12 C 0.8085(5) 0.3427(4) 0.1687(4)
H17 H 0.7072 0.3237 0.2040
H18 H 0.8447 0.3694 0.0823
H19 H 0.8373 0.4071 0.1837
C13 C 0.8665(4) 0.2279(4) 0.2265(3)
C14 C 0.8107(4) 0.1843(3) 0.3627(3)
C15 C 0.6689(4) 0.1562(4) 0.4496(4)
C16 C 0.6750(4) 0.1144(3) 0.5612(4)
H20 H 0.5983 0.0894 0.6364
N6 N 0.8105(3) 0.1163(3) 0.5424(3)
K1 K 0.18766(9) 0.19020(8) 0.39046(8)
N7 N 0.7783(3) 0.0051(3) 0.7619(3)
N8 N 0.6986(3) -0.1037(3) 0.7932(3)
N9 N 0.5522(5) -0.1069(4) 1.1811(4)
C17 C 0.7568(4) 0.0186(4) 0.8620(4)
H21 H 0.8000 0.0839 0.8638
C18 C 0.6251(4) -0.1561(4) 0.9149(4)
C19 C 0.6600(4) -0.0805(4) 0.9614(4)
C20 C 0.6023(5) -0.0955(4) 1.0827(4)
C21 C 0.5229(4) -0.2736(4) 0.9810(4)
C22 C 0.5310(5) -0.3306(4) 0.8972(4)
H22 H 0.5182 -0.2720 0.8276
H23 H 0.4581 -0.4020 0.9404
H24 H 0.6217 -0.3540 0.8705
C23 C 0.3729(5) -0.2472(5) 1.0301(4)
H25 H 0.3631 -0.2169 1.0885
H26 H 0.3055 -0.3215 1.0688
H27 H 0.3562 -0.1865 0.9637
C24 C 0.5513(5) -0.3653(4) 1.0888(4)
H28 H 0.6413 -0.3886 1.0583
H29 H 0.4784 -0.4371 1.1359
H30 H 0.5519 -0.3276 1.1394
B1 B 0.8827(5) 0.0864(4) 0.6302(4)
H31 H 0.9626 0.0457 0.6063
N1A N 0.1419(4) 0.4373(3) 0.3174(3)
N5_2 N -0.1043(3) 0.1595(3) 0.4195(3)
K1A K 0.81234(9) 0.80980(8) 0.60954(8)
K1_2 K 1.18766(9) 0.19020(8) 0.39046(8)
K1A_2 K 0.81234(9) -0.19020(8) 0.60954(8)
N8A N 0.3014(3) 0.1037(3) 0.2068(3)
B1_2 B -0.1173(5) 0.0864(4) 0.6302(4)
H31_2 H -0.0374 0.0457 0.6063
loop_
_geom_bond_atom_site_label_1
_geom_bond_atom_site_label_2
_geom_bond_site_symmetry_1
_geom_bond_site_symmetry_2
C1 N2 1_555 1_555
C2 N1 1_555 1_555
N1 K1A 1_555 1_555
N2 K1 1_555 1_555
C3 H1 1_555 1_555
H2 C3 1_555 1_555
H3 C3 1_555 1_555
C4 H4 1_555 1_555
H5 C4 1_555 1_555
H6 C4 1_555 1_555
C5 H7 1_555 1_555
H8 C5 1_555 1_555
H9 C5 1_555 1_555
C6 C3 1_555 1_555
C7 C6 1_555 1_555
C8 C2 1_555 1_555
C9 C8 1_555 1_555
H10 C9 1_555 1_555
N3 C7 1_555 1_555
N4 C9 1_555 1_555
N5 C14 1_555 1_555
C10 H11 1_555 1_555
H12 C10 1_555 1_555
H13 C10 1_555 1_555
C11 H14 1_555 1_555
H15 C11 1_555 1_555
H16 C11 1_555 1_555
C12 H17 1_555 1_555
H18 C12 1_555 1_555
H19 C12 1_555 1_555
C13 C10 1_555 1_555
C14 C13 1_555 1_555
C15 C1 1_555 1_555
C16 C15 1_555 1_555
H20 C16 1_555 1_555
N6 N5 1_555 1_555
K1 N1A 1_555 1_555
N7 N8 1_555 1_555
N8 C18 1_555 1_555
N9 C20 1_555 1_555
C17 N7 1_555 1_555
H21 C17 1_555 1_555
C18 C19 1_555 1_555
C19 C17 1_555 1_555
C20 C19 1_555 1_555
C21 C18 1_555 1_555
C22 C21 1_555 1_555
H22 C22 1_555 1_555
H23 C22 1_555 1_555
H24 C22 1_555 1_555
C23 C21 1_555 1_555
H25 C23 1_555 1_555
H26 C23 1_555 1_555
H27 C23 1_555 1_555
C24 C21 1_555 1_555
H28 C24 1_555 1_555
H29 C24 1_555 1_555
H30 C24 1_555 1_555
B1 N4 1_555 1_555
H31 B1 1_555 1_555
N5_2 K1 1_555 1_555
K1_2 N5 1_555 1_555
K1A_2 N8 1_555 1_555
N8A K1 1_555 1_555
B1_2 K1 1_555 1_555
H31_2 B1_2 1_555 1_555
C4 C6 1_555 1_555
C5 C6 1_555 1_555
C7 C8 1_555 1_555
N3 N4 1_555 1_555
C11 C13 1_555 1_555
C12 C13 1_555 1_555
C14 C15 1_555 1_555
C16 N6 1_555 1_555
N6 B1 1_555 1_555
N7 B1 1_555 1_555
B1 K1_2 1_555 1_555

#END
