
#######################################################################
#
#                 Cambridge Crystallographic Data Centre
#                                CCDC 
#
#######################################################################
#
# If this CIF has been generated from an entry in the Cambridge 
# Structural Database, then it will include bibliographic, chemical, 
# crystal, experimental, refinement or atomic coordinate data resulting 
# from the CCDC's data processing and validation procedures.
#
#######################################################################

data_LUKWOD
_symmetry_cell_setting           monoclinic
_symmetry_space_group_name_H-M   'P 21/n'
_symmetry_Int_Tables_number      14
_space_group_name_Hall           '-P 2yn'
loop_
_symmetry_equiv_pos_site_id
_symmetry_equiv_pos_as_xyz
1 x,y,z
2 1/2+x,1/2-y,1/2+z
3 -x,-y,-z
4 1/2-x,1/2+y,1/2-z
_cell_length_a                   12.9435(6)
_cell_length_b                   20.038(1)
_cell_length_c                   13.7006(6)
_cell_angle_alpha                90
_cell_angle_beta                 91.987(4)
_cell_angle_gamma                90
_cell_volume                     3551.28
loop_
_atom_site_label
_atom_site_type_symbol
_atom_site_fract_x
_atom_site_fract_y
_atom_site_fract_z
Pd1 Pd 0.33596(7) 0.23201(5) 0.12548(8)
K1 K 0.3495(3) 0.0529(1) 0.1217(3)
K2 K 0.3215(2) 0.4030(1) 0.1275(3)
O1 O 0.5426(6) -0.0316(4) 0.1405(6)
O2 O 0.4434(7) 0.1334(5) -0.0077(7)
O3 O 0.4820(6) 0.1302(4) 0.2269(6)
O4 O 0.1998(7) 0.5212(5) 0.1102(6)
O5 O 0.5268(8) 0.4704(5) 0.0866(8)
O6 O 0.5084(7) 0.3396(4) 0.1163(7)
O7 O 0.3471(7) 0.3340(5) 0.2965(6)
O8 O 0.1866(8) -0.0372(5) 0.1600(8)
N1 N 0.6048(10) 0.1860(7) -0.0292(9)
N2 N 0.4978(8) 0.1698(6) 0.3824(9)
N3 N 0.4739(8) 0.2354(7) 0.0569(9)
N4 N 0.4113(6) 0.2300(6) 0.2593(6)
C1 C 0.640(1) 0.1286(7) -0.076(1)
C2 C 0.060(1) 0.0999(8) 0.329(1)
N5 N 0.0812(8) 0.1621(5) 0.2826(8)
C3 C 0.550(1) 0.1094(7) 0.413(1)
C4 C 0.500(1) 0.1810(9) 0.006(1)
O15 O 0.2428(6) 0.1229(4) 0.2545(6)
C5 C 0.178(1) 0.1671(6) 0.2437(9)
C6 C 0.4648(9) 0.1752(7) 0.2836(10)
N6 N 0.1980(6) 0.2253(5) 0.1940(7)
C7 C 0.537(1) 0.2911(8) 0.071(1)
C8 C 0.129(1) 0.2768(9) 0.183(1)
O16 O 0.1482(6) 0.3296(4) 0.1394(6)
C9 C 0.3973(8) 0.2830(7) 0.3216(10)
C10 C 0.6618(9) 0.2419(7) -0.0166(9)
C11 C 0.0311(9) 0.2669(8) 0.2240(9)
C12 C 0.4368(9) 0.2771(7) 0.4215(9)
C13 C 0.640(1) 0.2929(7) 0.030(1)
C14 C 0.0074(10) 0.2111(8) 0.271(1)
C15 C 0.4846(10) 0.2207(8) 0.4469(9)
C16 C 0.132(1) 0.1001(7) -0.164(1)
N7 N 0.1804(8) 0.1631(5) -0.1324(8)
C17 C 0.2166(9) 0.1717(7) -0.0362(9)
O17 O 0.2012(6) 0.1244(4) 0.0226(6)
N8 N 0.2609(6) 0.2302(6) -0.0097(6)
C18 C 0.2729(9) 0.2827(7) -0.0719(9)
O18 O 0.3123(6) 0.3350(4) -0.0446(6)
C19 C 0.2322(9) 0.2733(8) -0.1715(9)
C20 C 0.192(1) 0.2145(7) -0.1955(10)
H1 H 0.6883 0.3289 0.0445
H2 H 0.2366 0.3075 -0.2243
H3 H -0.0185 0.3021 0.2196
H4 H 0.4219 0.3119 0.4861
H5 H 0.7281 0.2417 -0.0525
H6 H 0.1700 0.2078 -0.2627
H7 H -0.0671 0.1972 0.3127
H8 H 0.5105 0.2146 0.5123
H9 H 0.1500 0.0661 -0.1176
H10 H 0.0010 0.1005 0.3663
H11 H 0.5086 0.0795 0.4440
H12 H 0.0587 0.1051 -0.1667
H13 H 0.0550 0.0640 0.2822
H14 H 0.5795 0.0872 0.3557
H15 H 0.1549 0.0876 -0.2262
H16 H 0.1191 0.0873 0.3737
H17 H 0.6103 0.1202 0.4549
H18 H 0.2023 0.5472 0.1667
H19 H 0.5497 0.5016 0.1508
O8C O 0.3134(8) 0.4628(5) 0.3400(8)
K2C K 0.1785(2) -0.0970(1) 0.3725(3)
O9 O 0.6657(7) 0.0711(4) 0.1723(6)
O10 O 0.0333(7) 0.0450(5) 0.0731(7)
H20 H 0.0745 0.0810 0.0409
O11 O 0.4597(7) -0.0569(5) 0.3247(7)
O12 O 0.8468(7) 0.1041(4) 0.1345(7)
H21 H 0.8746 0.0653 0.1693
H22 H 0.8290 0.0915 0.0574
O13 O 0.3359(8) 0.0546(5) 0.5830(8)
O14 O 0.8007(7) 0.0460(5) 0.3537(7)
loop_
_geom_bond_atom_site_label_1
_geom_bond_atom_site_label_2
_geom_bond_site_symmetry_1
_geom_bond_site_symmetry_2
Pd1 K1 1_555 1_555
K1 O1 1_555 1_555
K2 Pd1 1_555 1_555
O2 K1 1_555 1_555
O3 K1 1_555 1_555
O4 K2 1_555 1_555
O5 K2 1_555 1_555
O6 K2 1_555 1_555
O7 K2 1_555 1_555
O8 K1 1_555 1_555
O10 H20 1_555 1_555
O12 H21 1_555 1_555
N1 C1 1_555 1_555
N2 C3 1_555 1_555
N3 Pd1 1_555 1_555
N4 Pd1 1_555 1_555
C2 N5 1_555 1_555
N5 C5 1_555 1_555
C3 H11 1_555 1_555
C4 O2 1_555 1_555
O15 K1 1_555 1_555
C5 O15 1_555 1_555
C6 O3 1_555 1_555
N6 Pd1 1_555 1_555
C7 O6 1_555 1_555
C8 N6 1_555 1_555
O16 K2 1_555 1_555
C9 O7 1_555 1_555
C10 N1 1_555 1_555
C11 C8 1_555 1_555
C12 C9 1_555 1_555
C13 C7 1_555 1_555
C14 N5 1_555 1_555
C15 N2 1_555 1_555
C16 N7 1_555 1_555
N7 C17 1_555 1_555
C17 O17 1_555 1_555
O17 K1 1_555 1_555
N8 Pd1 1_555 1_555
C18 N8 1_555 1_555
O18 K2 1_555 1_555
C19 C18 1_555 1_555
C20 N7 1_555 1_555
H1 C13 1_555 1_555
H2 C19 1_555 1_555
H3 C11 1_555 1_555
H4 C12 1_555 1_555
H5 C10 1_555 1_555
H6 C20 1_555 1_555
H7 C14 1_555 1_555
H8 C15 1_555 1_555
H9 C16 1_555 1_555
H10 C2 1_555 1_555
H12 C16 1_555 1_555
H13 C2 1_555 1_555
H14 C3 1_555 1_555
H15 C16 1_555 1_555
H16 C2 1_555 1_555
H17 C3 1_555 1_555
H18 O4 1_555 1_555
H19 O5 1_555 1_555
H22 O12 1_555 1_555
O8C K2 1_555 1_555
K2C O8 1_555 1_555
N1 C4 1_555 1_555
N2 C6 1_555 1_555
N3 C4 1_555 1_555
N3 C7 1_555 1_555
N4 C6 1_555 1_555
N4 C9 1_555 1_555
C5 N6 1_555 1_555
C8 O16 1_555 1_555
C10 C13 1_555 1_555
C11 C14 1_555 1_555
C12 C15 1_555 1_555
C17 N8 1_555 1_555
C18 O18 1_555 1_555
C19 C20 1_555 1_555

#END
