
#######################################################################
#
#                 Cambridge Crystallographic Data Centre
#                                CCDC 
#
#######################################################################
#
# If this CIF has been generated from an entry in the Cambridge 
# Structural Database, then it will include bibliographic, chemical, 
# crystal, experimental, refinement or atomic coordinate data resulting 
# from the CCDC's data processing and validation procedures.
#
#######################################################################

data_LUKWIX
_symmetry_cell_setting           monoclinic
_symmetry_space_group_name_H-M   'P 21/n'
_symmetry_Int_Tables_number      14
_space_group_name_Hall           '-P 2yn'
loop_
_symmetry_equiv_pos_site_id
_symmetry_equiv_pos_as_xyz
1 x,y,z
2 1/2+x,1/2-y,1/2+z
3 -x,-y,-z
4 1/2-x,1/2+y,1/2-z
_cell_length_a                   13.235(7)
_cell_length_b                   20.482(3)
_cell_length_c                   13.586(3)
_cell_angle_alpha                90
_cell_angle_beta                 90.69(2)
_cell_angle_gamma                90
_cell_volume                     3682.62
loop_
_atom_site_label
_atom_site_type_symbol
_atom_site_fract_x
_atom_site_fract_y
_atom_site_fract_z
Cs1 Cs 0.64519(8) 0.03931(5) 0.90444(7)
Cs2 Cs 0.82248(8) -0.08327(5) 0.60837(8)
Pd1 Pd 0.65926(6) 0.23424(4) 0.89470(6)
O1 O 0.6713(9) 0.0430(7) 0.616(1)
O2 O 0.5122(7) 0.1363(5) 0.8040(6)
O3 O 0.5578(9) 0.1419(6) 1.0382(7)
O4 O 0.8014(7) 0.1305(5) 0.9886(6)
O5 O 0.7439(7) 0.1284(4) 0.7570(6)
O7 O 0.840(1) -0.0419(8) 0.845(1)
O8 O 0.6468(7) 0.3309(5) 0.7137(6)
O9 O 0.4867(8) 0.3397(6) 0.8991(7)
O10 O 0.6757(7) 0.3320(5) 1.0717(6)
O11 O 0.8515(7) 0.3240(5) 0.8824(6)
O12 O 1.053(1) -0.0302(6) 0.570(1)
O13 O 0.638(1) -0.0565(7) 1.106(1)
N1 N 0.4881(8) 0.1688(6) 0.6461(8)
N2 N 0.396(1) 0.1912(8) 1.0625(10)
N3 N 0.8193(9) 0.1658(6) 1.1481(8)
N4 N 0.9089(8) 0.1585(6) 0.7368(8)
N5 N 0.5829(7) 0.2317(5) 0.7616(8)
N6 N 0.5245(7) 0.2399(5) 0.9661(7)
N7 N 0.7303(8) 0.2307(5) 1.0254(8)
N8 N 0.7935(7) 0.2263(5) 0.8251(7)
C1 C 0.436(1) 0.1105(8) 0.627(1)
C2 C 0.368(2) 0.137(1) 1.115(2)
C3 C 0.863(1) 0.101(1) 1.168(1)
C4 C 0.927(1) 0.0974(9) 0.683(1)
C5 C 0.5270(9) 0.1770(7) 0.7434(9)
C6 C 0.496(1) 0.1873(8) 1.0221(10)
C7 C 0.7864(10) 0.1734(7) 1.0535(10)
C8 C 0.8113(9) 0.1694(6) 0.7727(9)
C9 C 0.5978(9) 0.2806(7) 0.6925(8)
C10 C 0.4619(10) 0.2930(9) 0.952(1)
C11 C 0.7222(9) 0.2793(7) 1.0970(9)
C12 C 0.8703(9) 0.2725(7) 0.8408(9)
C13 C 0.558(1) 0.2710(8) 0.5990(9)
C14 C 0.359(1) 0.2916(10) 0.991(1)
C15 C 0.7577(9) 0.2694(7) 1.1905(10)
C16 C 0.9643(9) 0.2574(7) 0.798(1)
C17 C 0.505(1) 0.2144(10) 0.5793(10)
C18 C 0.335(1) 0.240(1) 1.037(2)
C19 C 0.802(1) 0.2135(9) 1.215(1)
C20 C 0.9832(9) 0.2019(8) 0.7510(9)
H1 H 0.5698 0.3038 0.5505
H2 H 0.3092 0.3311 0.9797
H3 H 0.7467 0.3018 1.2396
H4 H 1.0167 0.2902 0.8047
H5 H 0.4757 0.2092 0.5175
H6 H 0.2588 0.2377 1.0401
H7 H 0.8305 0.2055 1.2789
H8 H 1.0507 0.1921 0.7292
Cs1B Cs 0.35481(8) -0.03931(5) 1.09556(7)
Pd1C Pd 0.84074(6) -0.26576(4) 0.60530(6)
O8C O 0.8532(7) -0.1691(5) 0.7863(6)
O9C O 1.0133(8) -0.1603(6) 0.6009(7)
O10C O 0.8243(7) -0.1680(5) 0.4283(6)
O11C O 0.6485(7) -0.1760(5) 0.6176(6)
Cs2C Cs 0.67752(8) 0.41673(5) 0.89163(8)
O6 O 0.6848(10) 0.4505(6) 1.1609(9)
O14 O 0.9728(9) 0.0526(6) 0.9414(10)
O15 O 0.161(1) 0.0901(10) 0.861(1)
O16 O 0.461(1) 0.0654(7) 0.3463(10)
O17 O 0.593(1) 0.0579(8) 0.189(1)
O18 O 0.678(1) 0.051(1) 0.426(1)
loop_
_geom_bond_atom_site_label_1
_geom_bond_atom_site_label_2
_geom_bond_site_symmetry_1
_geom_bond_site_symmetry_2
Cs1 Pd1 1_555 1_555
Cs2 O1 1_555 1_555
Pd1 N5 1_555 1_555
O2 Cs1 1_555 1_555
O3 Cs1 1_555 1_555
O4 Cs1 1_555 1_555
O5 Cs1 1_555 1_555
O7 Cs1 1_555 1_555
O8 C9 1_555 1_555
O9 C10 1_555 1_555
O10 C11 1_555 1_555
O11 C12 1_555 1_555
O12 Cs2 1_555 1_555
O13 Cs1 1_555 1_555
N1 C1 1_555 1_555
N2 C2 1_555 1_555
N3 C3 1_555 1_555
N4 C4 1_555 1_555
N5 C5 1_555 1_555
N6 Pd1 1_555 1_555
N7 Pd1 1_555 1_555
N8 Pd1 1_555 1_555
C5 O2 1_555 1_555
C6 O3 1_555 1_555
C7 O4 1_555 1_555
C8 O5 1_555 1_555
C9 N5 1_555 1_555
C10 N6 1_555 1_555
C11 N7 1_555 1_555
C12 N8 1_555 1_555
C13 C9 1_555 1_555
C14 C10 1_555 1_555
C15 C11 1_555 1_555
C16 C12 1_555 1_555
C17 N1 1_555 1_555
C18 N2 1_555 1_555
C19 N3 1_555 1_555
C20 N4 1_555 1_555
H1 C13 1_555 1_555
H2 C14 1_555 1_555
H3 C15 1_555 1_555
H4 C16 1_555 1_555
H5 C17 1_555 1_555
H6 C18 1_555 1_555
H7 C19 1_555 1_555
H8 C20 1_555 1_555
Cs1B Cs1 1_555 1_555
Pd1C Cs2 1_555 1_555
O8C Cs2 1_555 1_555
O9C Cs2 1_555 1_555
O10C Cs2 1_555 1_555
O11C Cs2 1_555 1_555
Cs2C Pd1 1_555 1_555
Cs2 O7 1_555 1_555
O8 Cs2C 1_555 1_555
O9 Cs2C 1_555 1_555
O10 Cs2C 1_555 1_555
O11 Cs2C 1_555 1_555
N1 C5 1_555 1_555
N2 C6 1_555 1_555
N3 C7 1_555 1_555
N4 C8 1_555 1_555
N6 C6 1_555 1_555
N7 C7 1_555 1_555
N8 C8 1_555 1_555
C13 C17 1_555 1_555
C14 C18 1_555 1_555
C15 C19 1_555 1_555
C16 C20 1_555 1_555

#END
