
#######################################################################
#
#                 Cambridge Crystallographic Data Centre
#                                CCDC 
#
#######################################################################
#
# If this CIF has been generated from an entry in the Cambridge 
# Structural Database, then it will include bibliographic, chemical, 
# crystal, experimental, refinement or atomic coordinate data resulting 
# from the CCDC's data processing and validation procedures.
#
#######################################################################

data_LUKWAR
_symmetry_cell_setting           orthorhombic
_symmetry_space_group_name_H-M   'F d d d'
_symmetry_Int_Tables_number      70
_space_group_name_Hall           '-F 2uv 2vw'
loop_
_symmetry_equiv_pos_site_id
_symmetry_equiv_pos_as_xyz
1 x,y,z
2 3/4-x,3/4-y,z
3 3/4-x,y,3/4-z
4 x,3/4-y,3/4-z
5 x,1/2+y,1/2+z
6 3/4-x,1/4-y,1/2+z
7 3/4-x,1/2+y,1/4-z
8 x,1/4-y,1/4-z
9 1/2+x,y,1/2+z
10 1/4-x,3/4-y,1/2+z
11 1/4-x,y,1/4-z
12 1/2+x,3/4-y,1/4-z
13 1/2+x,1/2+y,z
14 1/4-x,1/4-y,z
15 1/4-x,1/2+y,3/4-z
16 1/2+x,1/4-y,3/4-z
17 -x,-y,-z
18 1/4+x,1/4+y,-z
19 1/4+x,-y,1/4+z
20 -x,1/4+y,1/4+z
21 -x,1/2-y,1/2-z
22 1/4+x,3/4+y,1/2-z
23 1/4+x,1/2-y,3/4+z
24 -x,3/4+y,3/4+z
25 1/2-x,-y,1/2-z
26 3/4+x,1/4+y,1/2-z
27 3/4+x,-y,3/4+z
28 1/2-x,1/4+y,3/4+z
29 1/2-x,1/2-y,-z
30 3/4+x,3/4+y,-z
31 3/4+x,1/2-y,1/4+z
32 1/2-x,3/4+y,1/4+z
_cell_length_a                   14.093(3)
_cell_length_b                   26.670(5)
_cell_length_c                   28.668(6)
_cell_angle_alpha                90
_cell_angle_beta                 90
_cell_angle_gamma                90
_cell_volume                     10775.2
loop_
_atom_site_label
_atom_site_type_symbol
_atom_site_fract_x
_atom_site_fract_y
_atom_site_fract_z
Zn1 Zn 0.3750 0.3750 0.58478(2)
N1 N 0.4557(2) 0.41745(13) 0.62916(12)
O1 O 0.4648(3) 0.3460(2) 0.5415(2)
O2 O 0.4995(3) 0.2951(2) 0.5955(3)
C1 C 0.5141(4) 0.3952(2) 0.6587(2)
H1 H 0.5142 0.3599 0.6598
C2 C 0.5743(3) 0.42058(18) 0.6876(2)
H2 H 0.6143 0.4029 0.7080
C3 C 0.5761(3) 0.47189(17) 0.68664(16)
C4 C 0.5149(3) 0.49539(17) 0.65640(17)
H3 H 0.5140 0.5306 0.6546
C5 C 0.4550(3) 0.46765(16) 0.62876(16)
H4 H 0.4122 0.4844 0.6090
C6 C 0.6421(3) 0.50248(19) 0.71435(17)
H5 H 0.6310 0.5372 0.7160
C7 C 0.7179(3) 0.48392(19) 0.73770(15)
H6 H 0.7287 0.4491 0.7378
C8 C 0.5145(4) 0.3164(4) 0.5515(5)
C9 C 0.5960(3) 0.2942(2) 0.5277(3)
C10 C 0.6589(5) 0.2652(3) 0.5472(4)
H7 H 0.6518 0.2577 0.5790
C11 C 0.6251(8) 0.2994(4) 0.4883(5)
H8 H 0.5880 0.3211 0.4700
C12 C 0.6966(10) 0.2812(6) 0.4669(5)
H9 H 0.7003 0.2893 0.4351
C13 C 0.7531(9) 0.2580(4) 0.4797(7)
N1X N 1.0443(2) 0.58255(13) 0.87084(12)
C1X C 0.9859(4) 0.6048(2) 0.8413(2)
H1X H 0.9858 0.6401 0.8402
C2X C 0.9257(3) 0.57942(18) 0.8124(2)
H2X H 0.8857 0.5971 0.7920
C3X C 0.9239(3) 0.52811(17) 0.81336(16)
C4X C 0.9851(3) 0.50461(17) 0.84360(17)
H3X H 0.9860 0.4694 0.8454
C5X C 1.0450(3) 0.53235(16) 0.87124(16)
H4X H 1.0878 0.5156 0.8910
C6X C 0.8579(3) 0.49752(19) 0.78565(17)
H5X H 0.8690 0.4628 0.7840
C7X C 0.7821(3) 0.51608(19) 0.76230(15)
H6X H 0.7713 0.5509 0.7622
O1BA O 1.0352(3) 0.1540(2) 0.4585(2)
O2BA O 1.0005(3) 0.2049(2) 0.4045(3)
C8BA C 0.9855(4) 0.1836(4) 0.4485(5)
C9BA C 0.9040(3) 0.2058(2) 0.4723(3)
C10BA C 0.8411(5) 0.2348(3) 0.4528(4)
H7BA H 0.8482 0.2423 0.4210
C11BA C 0.8749(8) 0.2006(4) 0.5117(5)
H8BA H 0.9120 0.1789 0.5300
C12BA C 0.8034(10) 0.2188(6) 0.5331(5)
H9BA H 0.7997 0.2107 0.5649
C13BA C 0.7469(9) 0.2420(4) 0.5203(7)
Zn1X Zn 1.1250 0.6250 0.91522(2)
Zn1BA Zn 1.1250 0.1250 0.41522(2)
N1A N 0.2943(2) 0.33255(13) 0.62916(12)
O1A O 0.2852(3) 0.4040(2) 0.5415(2)
loop_
_geom_bond_atom_site_label_1
_geom_bond_atom_site_label_2
_geom_bond_site_symmetry_1
_geom_bond_site_symmetry_2
Zn1 N1 1_555 1_555
N1 C1 1_555 1_555
O1 Zn1 1_555 1_555
O2 C8 1_555 1_555
C1 H1 1_555 1_555
C2 C1 1_555 1_555
H2 C2 1_555 1_555
C3 C2 1_555 1_555
C4 C3 1_555 1_555
H3 C4 1_555 1_555
C5 N1 1_555 1_555
H4 C5 1_555 1_555
C6 C3 1_555 1_555
H5 C6 1_555 1_555
C7 C6 1_555 1_555
H6 C7 1_555 1_555
C8 O1 1_555 1_555
C9 C8 1_555 1_555
C10 C9 1_555 1_555
H7 C10 1_555 1_555
C11 C9 1_555 1_555
H8 C11 1_555 1_555
C12 C11 1_555 1_555
H9 C12 1_555 1_555
C13 C12 1_555 1_555
N1X C1X 1_555 1_555
C1X H1X 1_555 1_555
C2X C1X 1_555 1_555
H2X C2X 1_555 1_555
C3X C2X 1_555 1_555
C4X C3X 1_555 1_555
H3X C4X 1_555 1_555
C5X N1X 1_555 1_555
H4X C5X 1_555 1_555
C6X C3X 1_555 1_555
H5X C6X 1_555 1_555
C7X C7 1_555 1_555
H6X C7X 1_555 1_555
O1BA C8BA 1_555 1_555
O2BA C8BA 1_555 1_555
C8BA C9BA 1_555 1_555
C9BA C10BA 1_555 1_555
C10BA C13 1_555 1_555
H7BA C10BA 1_555 1_555
C11BA C9BA 1_555 1_555
H8BA C11BA 1_555 1_555
C12BA C11BA 1_555 1_555
H9BA C12BA 1_555 1_555
C13BA C10 1_555 1_555
Zn1X N1X 1_555 1_555
Zn1BA O1BA 1_555 1_555
N1A Zn1 1_555 1_555
O1A Zn1 1_555 1_555
C4 C5 1_555 1_555
C13 C13BA 1_555 1_555
C4X C5X 1_555 1_555
C6X C7X 1_555 1_555
C12BA C13BA 1_555 1_555

#END
