
#######################################################################
#
#                 Cambridge Crystallographic Data Centre
#                                CCDC 
#
#######################################################################
#
# If this CIF has been generated from an entry in the Cambridge 
# Structural Database, then it will include bibliographic, chemical, 
# crystal, experimental, refinement or atomic coordinate data resulting 
# from the CCDC's data processing and validation procedures.
#
#######################################################################

data_LUKXAR
_symmetry_cell_setting           orthorhombic
_symmetry_space_group_name_H-M   'P 21 21 21'
_symmetry_Int_Tables_number      19
_space_group_name_Hall           'P 2ac 2ab'
loop_
_symmetry_equiv_pos_site_id
_symmetry_equiv_pos_as_xyz
1 x,y,z
2 1/2-x,-y,1/2+z
3 -x,1/2+y,1/2-z
4 1/2+x,1/2-y,-z
_cell_length_a                   6.7665(7)
_cell_length_b                   12.9047(14)
_cell_length_c                   13.1848(15)
_cell_angle_alpha                90
_cell_angle_beta                 90
_cell_angle_gamma                90
_cell_volume                     1151.29
loop_
_atom_site_label
_atom_site_type_symbol
_atom_site_fract_x
_atom_site_fract_y
_atom_site_fract_z
Ni1 Ni 0.94960(12) -0.11848(5) 0.47983(5)
N1 N 0.9451(8) 0.0305(3) 0.5366(3)
N2 N 1.0430(8) -0.0368(3) 0.3537(3)
O1 O 0.8766(8) -0.2014(4) 0.6070(4)
O2 O 0.6609(7) -0.1045(4) 0.4287(3)
O3 O 1.0639(8) 0.3712(3) 0.7122(3)
O4 O 1.0083(7) 0.4158(3) 0.5525(3)
O5 O 1.0353(7) 0.2467(3) 0.1016(3)
O6 O 1.2565(6) 0.1414(3) 0.0309(3)
C1 C 0.9124(9) 0.0620(4) 0.6327(5)
H1 H 0.8734 0.0129 0.6804
C2 C 0.9341(10) 0.1638(4) 0.6637(4)
H2 H 0.9124 0.1817 0.7311
C3 C 0.9878(9) 0.2384(4) 0.5946(4)
C4 C 1.0168(9) 0.2078(4) 0.4948(4)
H3 H 1.0496 0.2566 0.4457
C5 C 0.9969(7) 0.1044(4) 0.4683(4)
C6 C 1.0377(10) 0.0671(4) 0.3639(4)
C7 C 1.0665(9) 0.1318(4) 0.2827(4)
H4 H 1.0582 0.2032 0.2917
C8 C 1.1079(9) 0.0919(4) 0.1875(4)
C9 C 1.1196(9) -0.0145(5) 0.1770(5)
H5 H 1.1501 -0.0443 0.1147
C10 C 1.0848(9) -0.0752(4) 0.2612(4)
H6 H 1.0905 -0.1468 0.2536
C11 C 1.0227(9) 0.3521(4) 0.6225(4)
C12 C 1.1395(9) 0.1647(4) 0.1000(5)
H7 H 0.762(4) -0.221(5) 0.601(5)
H8 H 0.580(13) -0.151(6) 0.436(8)
H9 H 0.898(10) -0.178(5) 0.664(2)
H10 H 0.596(9) -0.051(3) 0.423(5)
Ni1B Ni 1.05040(12) 0.38152(5) 0.02017(5)
Ni1A Ni 1.55040(12) 0.11848(5) -0.02017(5)
O5B O 0.9647(7) -0.2533(3) 0.3984(3)
O6A O 1.2435(6) -0.1414(3) 0.5309(3)
loop_
_geom_bond_atom_site_label_1
_geom_bond_atom_site_label_2
_geom_bond_site_symmetry_1
_geom_bond_site_symmetry_2
Ni1 N1 1_555 1_555
N1 C1 1_555 1_555
N2 Ni1 1_555 1_555
O1 Ni1 1_555 1_555
O2 Ni1 1_555 1_555
O3 C11 1_555 1_555
O4 C11 1_555 1_555
O5 C12 1_555 1_555
O6 C12 1_555 1_555
C1 H1 1_555 1_555
C2 C1 1_555 1_555
H2 C2 1_555 1_555
C3 C2 1_555 1_555
C4 C3 1_555 1_555
H3 C4 1_555 1_555
C5 N1 1_555 1_555
C6 N2 1_555 1_555
C7 C6 1_555 1_555
H4 C7 1_555 1_555
C8 C7 1_555 1_555
C9 C8 1_555 1_555
H5 C9 1_555 1_555
C10 N2 1_555 1_555
H6 C10 1_555 1_555
C11 C3 1_555 1_555
C12 C8 1_555 1_555
H7 O1 1_555 1_555
H8 O2 1_555 1_555
H9 O1 1_555 1_555
H10 O2 1_555 1_555
Ni1B O5 1_555 1_555
Ni1A O6 1_555 1_555
O5B Ni1 1_555 1_555
O6A Ni1 1_555 1_555
C4 C5 1_555 1_555
C5 C6 1_555 1_555
C9 C10 1_555 1_555

#END
