
#######################################################################
#
#                 Cambridge Crystallographic Data Centre
#                                CCDC 
#
#######################################################################
#
# If this CIF has been generated from an entry in the Cambridge 
# Structural Database, then it will include bibliographic, chemical, 
# crystal, experimental, refinement or atomic coordinate data resulting 
# from the CCDC's data processing and validation procedures.
#
#######################################################################

data_LUKXAS
_symmetry_cell_setting           monoclinic
_symmetry_space_group_name_H-M   'C 2/c'
_symmetry_Int_Tables_number      15
_space_group_name_Hall           '-C 2yn'
loop_
_symmetry_equiv_pos_site_id
_symmetry_equiv_pos_as_xyz
1 x,y,z
2 -x,y,1/2-z
3 1/2+x,1/2+y,z
4 1/2-x,1/2+y,1/2-z
5 -x,-y,-z
6 x,-y,1/2+z
7 1/2-x,1/2-y,-z
8 1/2+x,1/2-y,1/2+z
_cell_length_a                   20.402(5)
_cell_length_b                   7.233(5)
_cell_length_c                   18.215(5)
_cell_angle_alpha                90
_cell_angle_beta                 112.363(5)
_cell_angle_gamma                90
_cell_volume                     2485.79
loop_
_atom_site_label
_atom_site_type_symbol
_atom_site_fract_x
_atom_site_fract_y
_atom_site_fract_z
Cu1 Cu 0.727515(13) 0.09373(4) 0.633084(15)
O1 O 0.81878(9) 0.3242(2) 0.84234(10)
O2 O 0.73495(8) 0.2296(2) 0.72845(10)
O3 O 0.91510(9) 0.1151(3) 0.80281(10)
O4 O 0.82796(8) 0.0562(2) 0.68623(10)
N1 N 0.62716(10) 0.1665(3) 0.57379(11)
N2 N 0.65211(10) 0.0693(3) 0.46695(11)
N3 N 0.71955(10) 0.0406(3) 0.52293(11)
C1 C 0.58417(12) 0.2353(3) 0.60795(14)
H1 H 0.6022 0.2536 0.6626
C2 C 0.51426(12) 0.2794(3) 0.56433(15)
H2 H 0.4854 0.3260 0.5890
C3 C 0.48797(12) 0.2524(3) 0.48262(15)
H3 H 0.4411 0.2818 0.4519
C4 C 0.53174(12) 0.1817(3) 0.44720(14)
H4 H 0.5149 0.1630 0.3926
C5 C 0.60122(12) 0.1395(3) 0.49497(13)
C6 C 0.75805(12) -0.0203(3) 0.48291(14)
C7 C 0.71567(13) -0.0305(3) 0.40160(14)
H5 H 0.7302 -0.0685 0.3614
C8 C 0.64914(13) 0.0257(3) 0.39251(14)
C9 C 0.58441(14) 0.0324(4) 0.31782(14)
H6 H 0.5451 0.0776 0.3294
H7 H 0.5738 -0.0895 0.2956
H8 H 0.5926 0.1135 0.2805
C10 C 0.83442(13) -0.0695(3) 0.52295(15)
H9 H 0.8494 -0.0487 0.5790
H10 H 0.8621 0.0059 0.5022
H11 H 0.8410 -0.1974 0.5135
C11 C 0.85340(12) 0.1269(3) 0.75611(14)
C12 C 0.79857(12) 0.2381(3) 0.77908(13)
Cu1C Cu 0.772485(13) 0.59373(4) 0.866916(15)
O1C O 0.68122(9) -0.1758(2) 0.65766(10)
O5 O 1.0000 -0.1286(4) 0.7500
H12 H 0.975(2) -0.052(5) 0.760(2)
H12A H 1.025(2) -0.052(5) 0.740(2)
loop_
_geom_bond_atom_site_label_1
_geom_bond_atom_site_label_2
_geom_bond_site_symmetry_1
_geom_bond_site_symmetry_2
Cu1 O2 1_555 1_555
O1 C12 1_555 1_555
O2 C12 1_555 1_555
O3 C11 1_555 1_555
O4 Cu1 1_555 1_555
N1 Cu1 1_555 1_555
N2 N3 1_555 1_555
N3 Cu1 1_555 1_555
C1 N1 1_555 1_555
H1 C1 1_555 1_555
C2 C1 1_555 1_555
H2 C2 1_555 1_555
C3 C2 1_555 1_555
H3 C3 1_555 1_555
C4 C3 1_555 1_555
H4 C4 1_555 1_555
C5 N1 1_555 1_555
C6 N3 1_555 1_555
C7 C6 1_555 1_555
H5 C7 1_555 1_555
C8 N2 1_555 1_555
C9 C8 1_555 1_555
H6 C9 1_555 1_555
H7 C9 1_555 1_555
H8 C9 1_555 1_555
C10 C6 1_555 1_555
H9 C10 1_555 1_555
H10 C10 1_555 1_555
H11 C10 1_555 1_555
C11 O4 1_555 1_555
C12 C11 1_555 1_555
O5 H12 1_555 1_555
Cu1C O1 1_555 1_555
O1C Cu1 1_555 1_555
H12A O5 1_555 1_555
N2 C5 1_555 1_555
C4 C5 1_555 1_555
C7 C8 1_555 1_555

#END
