
#######################################################################
#
#                 Cambridge Crystallographic Data Centre
#                                CCDC 
#
#######################################################################
#
# If this CIF has been generated from an entry in the Cambridge 
# Structural Database, then it will include bibliographic, chemical, 
# crystal, experimental, refinement or atomic coordinate data resulting 
# from the CCDC's data processing and validation procedures.
#
#######################################################################

data_LUKYAS
_symmetry_cell_setting           monoclinic
_symmetry_space_group_name_H-M   'C 2/c'
_symmetry_Int_Tables_number      15
_space_group_name_Hall           '-C 2yn'
loop_
_symmetry_equiv_pos_site_id
_symmetry_equiv_pos_as_xyz
1 x,y,z
2 -x,y,1/2-z
3 1/2+x,1/2+y,z
4 1/2-x,1/2+y,1/2-z
5 -x,-y,-z
6 x,-y,1/2+z
7 1/2-x,1/2-y,-z
8 1/2+x,1/2-y,1/2+z
_cell_length_a                   34.165(4)
_cell_length_b                   9.4692(8)
_cell_length_c                   24.575(3)
_cell_angle_alpha                90
_cell_angle_beta                 115.090(5)
_cell_angle_gamma                90
_cell_volume                     7200.21
loop_
_atom_site_label
_atom_site_type_symbol
_atom_site_fract_x
_atom_site_fract_y
_atom_site_fract_z
Hg1 Hg -0.217079(5) 0.969412(19) 0.339982(8)
Cl1 Cl -0.27926(3) 0.97068(12) 0.35363(5)
Cl2 Cl -0.15170(3) 0.97009(11) 0.33344(5)
Hg2 Hg -0.223700(4) 0.485779(19) 0.329913(7)
Hg3 Hg -0.137117(7) 0.44502(3) 0.489859(10)
Er1 Er 0.0000 0.71379(2) 0.2500
Er2 Er 0.0000 1.18117(2) 0.2500
Cl3 Cl -0.17826(4) 0.67159(12) 0.42547(5)
Cl4 Cl -0.19184(3) 0.26807(12) 0.42020(5)
Cl5 Cl -0.24959(3) 0.72315(10) 0.25071(5)
Cl6 Cl -0.06981(4) 0.42792(17) 0.48352(8)
Cl7 Cl -0.15017(4) 0.43438(19) 0.57580(7)
N1 N 0.06628(11) 0.9133(4) 0.02750(17)
N2 N -0.16575(7) 0.4742(3) 0.31679(11)
N3 N 0.21313(7) 0.9773(3) 0.32973(12)
O1 O 0.00209(8) 0.8350(2) 0.16937(11)
O2 O 0.01756(7) 1.0639(2) 0.17865(10)
O3 O -0.03699(7) 0.5590(3) 0.27860(11)
O4 O -0.04862(7) 0.3290(2) 0.25955(11)
O5 O 0.06533(7) 0.8283(2) 0.28652(12)
O6 O 0.06219(7) 1.0555(2) 0.30142(10)
C1 C 0.03640(13) 0.8015(4) 0.08840(19)
H1 H 0.0274 0.7192 0.1003
C2 C 0.05732(14) 0.8050(5) 0.0499(2)
H2 H 0.0654 0.7184 0.0400
C3 C 0.05905(13) 1.0345(5) 0.0436(2)
H3 H 0.0658 1.1139 0.0271
C4 C 0.04201(9) 1.0531(4) 0.08350(14)
H4 H 0.0379 1.1432 0.0952
C5 C 0.03093(10) 0.9354(4) 0.10632(15)
C6 C 0.01321(10) 0.9431(4) 0.15396(16)
C7 C -0.11147(9) 0.5820(3) 0.29530(15)
H5 H -0.0993 0.6645 0.2889
C8 C -0.14640(10) 0.5875(4) 0.30904(17)
H6 H -0.1569 0.6757 0.3131
C9 C -0.14931(10) 0.3484(4) 0.31532(15)
H7 H -0.1621 0.2686 0.3228
C10 C -0.11237(10) 0.3317(4) 0.30249(15)
H8 H -0.1007 0.2434 0.3018
C11 C -0.09511(8) 0.4544(3) 0.29120(14)
C12 C -0.05696(10) 0.4484(4) 0.27602(15)
C13 C 0.15359(9) 0.8371(3) 0.32181(14)
H9 H 0.1419 0.7483 0.3217
C14 C 0.19523(10) 0.8518(4) 0.32903(16)
H10 H 0.2118 0.7710 0.3336
C15 C 0.19034(10) 1.0905(4) 0.32386(15)
H11 H 0.2031 1.1777 0.3246
C16 C 0.14873(10) 1.0875(3) 0.31670(16)
H12 H 0.1334 1.1708 0.3132
C17 C 0.12948(9) 0.9574(3) 0.31477(14)
C18 C 0.08164(10) 0.9456(4) 0.30126(15)
O9 O 0.03626(7) 1.3046(3) 0.34655(13)
O10 O 0.04954(8) 0.5953(3) 0.34294(14)
Hg2A Hg 0.223700(4) 0.485779(19) 0.170087(7)
Hg2B Hg 0.276300(4) 0.985779(19) 0.329913(7)
Hg2C Hg -0.276300(4) 0.985779(19) 0.170087(7)
Hg3A Hg 0.137117(7) 0.44502(3) 0.010141(10)
Er2_2 Er 0.0000 0.18117(2) 0.2500
Cl3A Cl 0.17826(4) 0.67159(12) 0.07453(5)
Cl4A Cl 0.19184(3) 0.26807(12) 0.07980(5)
Cl5A Cl 0.24959(3) 0.72315(10) 0.24929(5)
Cl6A Cl 0.06981(4) 0.42792(17) 0.01648(8)
Cl7A Cl 0.15017(4) 0.43438(19) -0.07580(7)
N1A N -0.06628(11) 0.9133(4) 0.47250(17)
N2A N 0.16575(7) 0.4742(3) 0.18321(11)
N3A N -0.21313(7) 0.9773(3) 0.17027(12)
N3B N -0.28687(7) 0.4773(3) 0.32973(12)
N3C N 0.28687(7) 0.4773(3) 0.17027(12)
O1A O -0.00209(8) 0.8350(2) 0.33063(11)
O2A O -0.01756(7) 1.0639(2) 0.32135(10)
O3A O 0.03699(7) 0.5590(3) 0.22140(11)
O4A O 0.04862(7) 0.3290(2) 0.24045(11)
O4A_2 O 0.04862(7) 1.3290(2) 0.24045(11)
O4_2 O -0.04862(7) 1.3290(2) 0.25955(11)
O5A O -0.06533(7) 0.8283(2) 0.21348(12)
O6A O -0.06219(7) 1.0555(2) 0.19858(10)
C1A C -0.03640(13) 0.8015(4) 0.41160(19)
H1A H -0.0274 0.7192 0.3997
C2A C -0.05732(14) 0.8050(5) 0.4501(2)
H2A H -0.0654 0.7184 0.4600
C3A C -0.05905(13) 1.0345(5) 0.4564(2)
H3A H -0.0658 1.1139 0.4729
C4A C -0.04201(9) 1.0531(4) 0.41650(14)
H4A H -0.0379 1.1432 0.4048
C5A C -0.03093(10) 0.9354(4) 0.39368(15)
C6A C -0.01321(10) 0.9431(4) 0.34604(16)
C7A C 0.11147(9) 0.5820(3) 0.20470(15)
H5A H 0.0993 0.6645 0.2111
C8A C 0.14640(10) 0.5875(4) 0.19096(17)
H6A H 0.1569 0.6757 0.1869
C9A C 0.14931(10) 0.3484(4) 0.18468(15)
H7A H 0.1621 0.2686 0.1772
C10A C 0.11237(10) 0.3317(4) 0.19751(15)
H8A H 0.1007 0.2434 0.1982
C11A C 0.09511(8) 0.4544(3) 0.20880(14)
C12A C 0.05696(10) 0.4484(4) 0.22398(15)
C13A C -0.15359(9) 0.8371(3) 0.17819(14)
H9A H -0.1419 0.7483 0.1783
C14A C -0.19523(10) 0.8518(4) 0.17097(16)
H10A H -0.2118 0.7710 0.1664
C15A C -0.19034(10) 1.0905(4) 0.17614(15)
H11A H -0.2031 1.1777 0.1754
C16A C -0.14873(10) 1.0875(3) 0.18330(16)
H12A H -0.1334 1.1708 0.1868
C17A C -0.12948(9) 0.9574(3) 0.18523(14)
C18A C -0.08164(10) 0.9456(4) 0.19874(15)
O9A O -0.03626(7) 1.3046(3) 0.15345(13)
O10A O -0.04954(8) 0.5953(3) 0.15706(14)
Zn1 Zn 0.2500 0.7500 0.5000
O7 O 0.21816(10) 0.9668(3) 0.47400(13)
O7F O 0.28184(10) 0.5332(3) 0.52600(13)
O8 O -0.00383(15) 1.4044(5) 0.4216(2)
O11 O 0.1055(2) 0.8238(6) -0.0519(3)
C19 C 0.1063(2) 0.9340(8) -0.0447(3)
loop_
_geom_bond_atom_site_label_1
_geom_bond_atom_site_label_2
_geom_bond_site_symmetry_1
_geom_bond_site_symmetry_2
Hg1 Cl1 1_555 1_555
Hg2 Cl3 1_555 1_555
Hg3 Cl3 1_555 1_555
Er1 O1 1_555 1_555
Er2 O2 1_555 1_555
Zn1 O7 1_555 1_555
Cl2 Hg1 1_555 1_555
Cl4 Hg2 1_555 1_555
Cl5 Hg2 1_555 1_555
Cl6 Hg3 1_555 1_555
Cl7 Hg3 1_555 1_555
N1 C2 1_555 1_555
N2 Hg2 1_555 1_555
N3 C14 1_555 1_555
O1 C6 1_555 1_555
O2 C6 1_555 1_555
O3 Er1 1_555 1_555
O4 C12 1_555 1_555
O5 Er1 1_555 1_555
O6 Er2 1_555 1_555
C1 H1 1_555 1_555
C2 C1 1_555 1_555
H2 C2 1_555 1_555
C3 N1 1_555 1_555
H3 C3 1_555 1_555
C4 C3 1_555 1_555
H4 C4 1_555 1_555
C5 C1 1_555 1_555
C6 C5 1_555 1_555
C7 H5 1_555 1_555
C8 N2 1_555 1_555
H6 C8 1_555 1_555
C9 N2 1_555 1_555
H7 C9 1_555 1_555
C10 C9 1_555 1_555
H8 C10 1_555 1_555
C11 C7 1_555 1_555
C12 O3 1_555 1_555
C13 H9 1_555 1_555
C14 C13 1_555 1_555
H10 C14 1_555 1_555
C15 N3 1_555 1_555
H11 C15 1_555 1_555
C16 C15 1_555 1_555
H12 C16 1_555 1_555
C17 C13 1_555 1_555
C18 O5 1_555 1_555
O9 Er2 1_555 1_555
O10 Er1 1_555 1_555
O11 C19 1_555 1_555
Hg2A Cl3A 1_555 1_555
Hg2B N3 1_555 1_555
Hg2C N3A 1_555 1_555
Hg3A Cl3A 1_555 1_555
Er2_2 O4 1_555 1_555
Cl4A Hg2A 1_555 1_555
Cl5A Hg2A 1_555 1_555
Cl6A Hg3A 1_555 1_555
Cl7A Hg3A 1_555 1_555
N1A C2A 1_555 1_555
N2A Hg2A 1_555 1_555
N3A C14A 1_555 1_555
N3B Hg2 1_555 1_555
N3C Hg2A 1_555 1_555
O1A Er1 1_555 1_555
O2A Er2 1_555 1_555
O3A Er1 1_555 1_555
O4A Er2_2 1_555 1_555
O4A_2 Er2 1_555 1_555
O4_2 Er2 1_555 1_555
O5A Er1 1_555 1_555
O6A Er2 1_555 1_555
C1A H1A 1_555 1_555
C2A C1A 1_555 1_555
H2A C2A 1_555 1_555
C3A N1A 1_555 1_555
H3A C3A 1_555 1_555
C4A C3A 1_555 1_555
H4A C4A 1_555 1_555
C5A C1A 1_555 1_555
C6A O1A 1_555 1_555
C7A H5A 1_555 1_555
C8A N2A 1_555 1_555
H6A C8A 1_555 1_555
C9A N2A 1_555 1_555
H7A C9A 1_555 1_555
C10A C9A 1_555 1_555
H8A C10A 1_555 1_555
C11A C7A 1_555 1_555
C12A O3A 1_555 1_555
C13A H9A 1_555 1_555
C14A C13A 1_555 1_555
H10A C14A 1_555 1_555
C15A N3A 1_555 1_555
H11A C15A 1_555 1_555
C16A C15A 1_555 1_555
H12A C16A 1_555 1_555
C17A C13A 1_555 1_555
C18A O5A 1_555 1_555
O7F Zn1 1_555 1_555
O9A Er2 1_555 1_555
O10A Er1 1_555 1_555
Hg3 Cl4 1_555 1_555
O6 C18 1_555 1_555
C4 C5 1_555 1_555
C7 C8 1_555 1_555
C10 C11 1_555 1_555
C11 C12 1_555 1_555
C16 C17 1_555 1_555
C17 C18 1_555 1_555
Hg3A Cl4A 1_555 1_555
O2A C6A 1_555 1_555
O4A C12A 1_555 1_555
O6A C18A 1_555 1_555
C4A C5A 1_555 1_555
C5A C6A 1_555 1_555
C7A C8A 1_555 1_555
C10A C11A 1_555 1_555
C11A C12A 1_555 1_555
C16A C17A 1_555 1_555
C17A C18A 1_555 1_555

#END
