
#######################################################################
#
#                 Cambridge Crystallographic Data Centre
#                                CCDC 
#
#######################################################################
#
# If this CIF has been generated from an entry in the Cambridge 
# Structural Database, then it will include bibliographic, chemical, 
# crystal, experimental, refinement or atomic coordinate data resulting 
# from the CCDC's data processing and validation procedures.
#
#######################################################################

data_LUKYEW
_symmetry_cell_setting           monoclinic
_symmetry_space_group_name_H-M   'P 21'
_symmetry_Int_Tables_number      4
_space_group_name_Hall           'P 2yb'
loop_
_symmetry_equiv_pos_site_id
_symmetry_equiv_pos_as_xyz
1 x,y,z
2 -x,1/2+y,-z
_cell_length_a                   8.0532(16)
_cell_length_b                   7.4430(15)
_cell_length_c                   13.622(3)
_cell_angle_alpha                90
_cell_angle_beta                 99.08(3)
_cell_angle_gamma                90
_cell_volume                     806.271
loop_
_atom_site_label
_atom_site_type_symbol
_atom_site_fract_x
_atom_site_fract_y
_atom_site_fract_z
Cu1 Cu 0.18273(15) 0.21585(15) 0.71461(9)
S1 S -0.2587(4) 0.4323(5) 0.9783(3)
S2 S -0.0397(4) -0.1847(4) 0.8306(2)
N1 N -0.2545(14) -0.0108(16) 0.9607(8)
H1 H -0.3207 0.0300 0.9991
H2 H -0.2459 -0.1248 0.9523
N2 N -0.1590(13) 0.1100(15) 0.9111(9)
N3 N 0.0199(12) 0.1844(15) 0.8108(8)
N4 N -0.0385(14) 0.3455(14) 0.8539(8)
O1 O 0.0736(12) 0.0258(13) 0.6270(7)
O2 O -0.5475(10) 0.1978(15) 0.8792(7)
O3 O -0.6880(9) 0.4081(11) 0.7887(6)
O4 O 0.0063(13) -0.2539(13) 0.5890(7)
C1 C 0.1310(14) -0.1992(19) 0.7576(7)
H3 H 0.2236 -0.1234 0.7870
H4 H 0.1714 -0.3219 0.7576
C2 C -0.1475(16) 0.293(2) 0.9105(10)
C3 C 0.0680(14) -0.1379(16) 0.6496(8)
C4 C -0.5635(12) 0.3470(18) 0.8511(9)
C5 C -0.0542(14) 0.0458(18) 0.8462(11)
C6 C -0.4330(15) 0.497(2) 0.8827(9)
H5 H -0.4904 0.5985 0.9069
H6 H -0.3877 0.5366 0.8245
O5 O 0.3885(11) 0.1811(15) 0.6456(7)
O6 O 0.0499(14) 0.3953(12) 0.6010(7)
N5 N 0.5098(17) 0.1521(18) 0.5076(11)
C7 C 0.3779(16) 0.164(2) 0.5538(10)
H7 H 0.2714 0.1589 0.5158
C8 C 0.6773(19) 0.148(3) 0.5626(13)
H8 H 0.6722 0.1473 0.6325
H9 H 0.7380 0.2520 0.5465
H10 H 0.7337 0.0414 0.5455
C9 C 0.495(3) 0.154(2) 0.4022(12)
H11 H 0.3788 0.1570 0.3732
H12 H 0.5467 0.0476 0.3804
H13 H 0.5512 0.2582 0.3817
Cu1_2 Cu -0.81727(15) 0.21585(15) 0.71461(9)
O3_2 O 0.3120(9) 0.4081(11) 0.7887(6)
loop_
_geom_bond_atom_site_label_1
_geom_bond_atom_site_label_2
_geom_bond_site_symmetry_1
_geom_bond_site_symmetry_2
Cu1 N3 1_555 1_555
S1 C2 1_555 1_555
S2 C1 1_555 1_555
N1 H1 1_555 1_555
H2 N1 1_555 1_555
N2 N1 1_555 1_555
N3 N4 1_555 1_555
N4 C2 1_555 1_555
O1 Cu1 1_555 1_555
O2 C4 1_555 1_555
O3 C4 1_555 1_555
O4 C3 1_555 1_555
C1 H3 1_555 1_555
H4 C1 1_555 1_555
C2 N2 1_555 1_555
C3 O1 1_555 1_555
C4 C6 1_555 1_555
C5 S2 1_555 1_555
C6 S1 1_555 1_555
H5 C6 1_555 1_555
H6 C6 1_555 1_555
O5 Cu1 1_555 1_555
O6 Cu1 1_555 1_555
N5 C7 1_555 1_555
C7 O5 1_555 1_555
H7 C7 1_555 1_555
C8 N5 1_555 1_555
H8 C8 1_555 1_555
H9 C8 1_555 1_555
H10 C8 1_555 1_555
C9 N5 1_555 1_555
H11 C9 1_555 1_555
H12 C9 1_555 1_555
H13 C9 1_555 1_555
Cu1_2 O3 1_555 1_555
O3_2 Cu1 1_555 1_555
N2 C5 1_555 1_555
N3 C5 1_555 1_555
C1 C3 1_555 1_555

#END
