
#######################################################################
#
#                 Cambridge Crystallographic Data Centre
#                                CCDC 
#
#######################################################################
#
# If this CIF has been generated from an entry in the Cambridge 
# Structural Database, then it will include bibliographic, chemical, 
# crystal, experimental, refinement or atomic coordinate data resulting 
# from the CCDC's data processing and validation procedures.
#
#######################################################################

data_LULFUT
_symmetry_cell_setting           monoclinic
_symmetry_space_group_name_H-M   'P 21/c'
_symmetry_Int_Tables_number      14
_space_group_name_Hall           '-P 2ybc'
loop_
_symmetry_equiv_pos_site_id
_symmetry_equiv_pos_as_xyz
1 x,y,z
2 -x,1/2+y,1/2-z
3 -x,-y,-z
4 x,1/2-y,1/2+z
_cell_length_a                   13.173(3)
_cell_length_b                   6.9196(12)
_cell_length_c                   7.6141(12)
_cell_angle_alpha                90
_cell_angle_beta                 91.491(10)
_cell_angle_gamma                90
_cell_volume                     693.805
loop_
_atom_site_label
_atom_site_type_symbol
_atom_site_fract_x
_atom_site_fract_y
_atom_site_fract_z
Br1 Br -0.07675(1) 0.79433(3) 0.27038(2)
Cu1 Cu 0.00000 1.00000 0.50000
Cl1 Cl 0.45235(4) 0.23067(8) 0.41075(7)
N1 N 0.24631(12) 0.6426(2) 0.4960(2)
N2 N 0.28997(13) 0.8117(2) 0.4502(2)
N3 N 0.21890(13) 0.9404(3) 0.4448(2)
N4 N 0.12905(11) 0.8562(2) 0.48658(19)
C1 C 0.14784(15) 0.6726(3) 0.5174(2)
C2 C 0.30750(16) 0.4672(3) 0.5233(3)
C3 C 0.36630(17) 0.4242(3) 0.3611(3)
H1 H 0.1028(17) 0.581(3) 0.550(3)
H2 H 0.2616(17) 0.367(4) 0.551(3)
H3 H 0.3545(17) 0.490(3) 0.625(3)
H4 H 0.4059(18) 0.531(4) 0.329(3)
H5 H 0.3243(19) 0.388(4) 0.266(3)
Br1C Br -0.07675(1) 0.70567(3) 0.77038(2)
Cl1B Cl -0.45235(4) 1.76933(8) 0.58925(7)
N1B N -0.24631(12) 1.3574(2) 0.5040(2)
N2B N -0.28997(13) 1.1883(2) 0.5498(2)
N3B N -0.21890(13) 1.0596(3) 0.5552(2)
N4B N -0.12905(11) 1.1438(2) 0.51342(19)
C1B C -0.14784(15) 1.3274(3) 0.4826(2)
C2B C -0.30750(16) 1.5328(3) 0.4767(3)
C3B C -0.36630(17) 1.5758(3) 0.6389(3)
H1B H -0.1028(17) 1.419(3) 0.450(3)
H2B H -0.2616(17) 1.633(4) 0.449(3)
H3B H -0.3545(17) 1.510(3) 0.375(3)
H4B H -0.4059(18) 1.469(4) 0.671(3)
H5B H -0.3243(19) 1.612(4) 0.734(3)
Cu1C Cu 0.00000 0.50000 0.00000
Br1B Br 0.07675(1) 1.20567(3) 0.72962(2)
Br1A Br 0.07675(1) 1.29433(3) 0.22962(2)
Cu1C_2 Cu 0.00000 0.50000 1.00000
loop_
_geom_bond_atom_site_label_1
_geom_bond_atom_site_label_2
_geom_bond_site_symmetry_1
_geom_bond_site_symmetry_2
Br1 Cu1 1_555 1_555
Cu1 N4 1_555 1_555
Cl1 C3 1_555 1_555
N1 N2 1_555 1_555
N2 N3 1_555 1_555
N3 N4 1_555 1_555
N4 C1 1_555 1_555
C1 N1 1_555 1_555
C2 N1 1_555 1_555
C3 C2 1_555 1_555
H1 C1 1_555 1_555
H2 C2 1_555 1_555
H3 C2 1_555 1_555
H4 C3 1_555 1_555
H5 C3 1_555 1_555
Br1C Cu1 1_555 1_555
Cl1B C3B 1_555 1_555
N1B N2B 1_555 1_555
N2B N3B 1_555 1_555
N3B N4B 1_555 1_555
N4B Cu1 1_555 1_555
C1B N1B 1_555 1_555
C2B N1B 1_555 1_555
C3B C2B 1_555 1_555
H1B C1B 1_555 1_555
H2B C2B 1_555 1_555
H3B C2B 1_555 1_555
H4B C3B 1_555 1_555
H5B C3B 1_555 1_555
Cu1C Br1 1_555 1_555
Br1B Cu1 1_555 1_555
Br1A Cu1 1_555 1_555
Cu1C_2 Br1C 1_555 1_555
N4B C1B 1_555 1_555

#END
