
#######################################################################
#
#                 Cambridge Crystallographic Data Centre
#                                CCDC 
#
#######################################################################
#
# If this CIF has been generated from an entry in the Cambridge 
# Structural Database, then it will include bibliographic, chemical, 
# crystal, experimental, refinement or atomic coordinate data resulting 
# from the CCDC's data processing and validation procedures.
#
#######################################################################

data_LULGEF
_symmetry_cell_setting           monoclinic
_symmetry_space_group_name_H-M   'P 21/c'
_symmetry_Int_Tables_number      14
_space_group_name_Hall           '-P 2ybc'
loop_
_symmetry_equiv_pos_site_id
_symmetry_equiv_pos_as_xyz
1 x,y,z
2 -x,1/2+y,1/2-z
3 -x,-y,-z
4 x,1/2-y,1/2+z
_cell_length_a                   4.965(4)
_cell_length_b                   10.781(9)
_cell_length_c                   10.927(10)
_cell_angle_alpha                90
_cell_angle_beta                 93.461(19)
_cell_angle_gamma                90
_cell_volume                     583.83
loop_
_atom_site_label
_atom_site_type_symbol
_atom_site_fract_x
_atom_site_fract_y
_atom_site_fract_z
Co1 Co 1.5000 0.5000 0.5000
O1 O 1.2947(4) 0.35225(17) 0.42354(18)
N1 N 0.6078(5) 0.1178(2) 0.1688(2)
C1 C 1.0391(5) 0.3710(2) 0.4133(2)
C2 C 0.9018(6) 0.1557(3) 0.3479(3)
H1 H 1.0102 0.1230 0.4124
C3 C 0.8794(5) 0.2835(2) 0.3324(2)
C4 C 0.7614(6) 0.0779(3) 0.2663(3)
H2 H 0.7739 -0.0071 0.2798
C5 C 0.5877(6) 0.2411(3) 0.1545(3)
H3 H 0.4816 0.2714 0.0880
C6 C 0.7161(6) 0.3255(3) 0.2332(3)
H4 H 0.6934 0.4101 0.2198
N2 N 0.9100(4) 0.4613(2) 0.4637(2)
Co1A Co 0.5000 0.0000 0.0000
Co1_2 Co 0.5000 0.5000 0.5000
Co1A_2 Co 1.5000 1.0000 1.0000
O1B O 0.7053(4) 0.64775(17) 0.57646(18)
O1B_2 O 1.7053(4) 0.64775(17) 0.57646(18)
N1B N 1.3922(5) 0.8822(2) 0.8312(2)
N1A N 1.3922(5) 0.6178(2) 0.3312(2)
N1C N 1.6078(5) 0.3822(2) 0.6688(2)
C1B C 0.9609(5) 0.6290(2) 0.5867(2)
C2B C 1.0982(6) 0.8443(3) 0.6521(3)
H1B H 0.9898 0.8770 0.5876
C3B C 1.1206(5) 0.7165(2) 0.6676(2)
C4B C 1.2386(6) 0.9221(3) 0.7337(3)
H2B H 1.2261 1.0071 0.7202
C5B C 1.4123(6) 0.7589(3) 0.8455(3)
H3B H 1.5184 0.7286 0.9120
C6B C 1.2839(6) 0.6745(3) 0.7668(3)
H4B H 1.3066 0.5899 0.7802
N2B N 1.0900(4) 0.5387(2) 0.5363(2)
N2_2 N 1.9100(4) 0.4613(2) 0.4637(2)
loop_
_geom_bond_atom_site_label_1
_geom_bond_atom_site_label_2
_geom_bond_site_symmetry_1
_geom_bond_site_symmetry_2
Co1 O1 1_555 1_555
O1 C1 1_555 1_555
N1 C4 1_555 1_555
C1 C3 1_555 1_555
C2 H1 1_555 1_555
C3 C2 1_555 1_555
C4 C2 1_555 1_555
H2 C4 1_555 1_555
C5 N1 1_555 1_555
H3 C5 1_555 1_555
C6 C3 1_555 1_555
H4 C6 1_555 1_555
N2 C1 1_555 1_555
Co1A N1 1_555 1_555
Co1_2 N2 1_555 1_555
Co1A_2 N1B 1_555 1_555
O1B Co1_2 1_555 1_555
O1B_2 Co1 1_555 1_555
N1B C4B 1_555 1_555
N1A Co1 1_555 1_555
N1C Co1 1_555 1_555
C1B O1B 1_555 1_555
C2B H1B 1_555 1_555
C3B C1B 1_555 1_555
C4B C2B 1_555 1_555
H2B C4B 1_555 1_555
C5B N1B 1_555 1_555
H3B C5B 1_555 1_555
C6B C3B 1_555 1_555
H4B C6B 1_555 1_555
N2B Co1 1_555 1_555
N2_2 Co1 1_555 1_555
C5 C6 1_555 1_555
N2 N2B 1_555 1_555
C1B N2B 1_555 1_555
C2B C3B 1_555 1_555
C5B C6B 1_555 1_555

#END
