
#######################################################################
#
#                 Cambridge Crystallographic Data Centre
#                                CCDC 
#
#######################################################################
#
# If this CIF has been generated from an entry in the Cambridge 
# Structural Database, then it will include bibliographic, chemical, 
# crystal, experimental, refinement or atomic coordinate data resulting 
# from the CCDC's data processing and validation procedures.
#
#######################################################################

data_LULGAB
_symmetry_cell_setting           monoclinic
_symmetry_space_group_name_H-M   'P 21/c'
_symmetry_Int_Tables_number      14
_space_group_name_Hall           '-P 2ybc'
loop_
_symmetry_equiv_pos_site_id
_symmetry_equiv_pos_as_xyz
1 x,y,z
2 -x,1/2+y,1/2-z
3 -x,-y,-z
4 x,1/2-y,1/2+z
_cell_length_a                   4.869(2)
_cell_length_b                   10.819(6)
_cell_length_c                   10.908(5)
_cell_angle_alpha                90
_cell_angle_beta                 94.222(11)
_cell_angle_gamma                90
_cell_volume                     573.049
loop_
_atom_site_label
_atom_site_type_symbol
_atom_site_fract_x
_atom_site_fract_y
_atom_site_fract_z
Ni1 Ni 0.0000 0.5000 0.0000
C1 C -0.5361(5) 0.6262(2) 0.0906(2)
C2 C -0.3864(6) 0.8403(2) 0.1530(2)
H1 H -0.4883 0.8722 0.0847
C3 C -0.3711(5) 0.7132(2) 0.1726(2)
C4 C -0.2477(6) 0.9184(2) 0.2367(2)
H2 H -0.2574 1.0030 0.2215
C5 C -0.0862(6) 0.7574(3) 0.3557(2)
H3 H 0.0155 0.7278 0.4251
C6 C -0.2156(5) 0.6728(2) 0.2758(2)
H4 H -0.1978 0.5886 0.2916
N1 N -0.4053(4) 0.5383(2) 0.03632(18)
N2 N -0.1001(4) 0.8802(2) 0.3382(2)
O1 O -0.7961(3) 0.64278(15) 0.08392(15)
Ni1A Ni 0.0000 1.0000 0.5000
Ni1_2 Ni -1.0000 0.5000 0.0000
Ni1A_2 Ni -1.0000 0.0000 -0.5000
C1B C -0.4639(5) 0.3738(2) -0.0906(2)
C2B C -0.6136(6) 0.1597(2) -0.1530(2)
H1B H -0.5117 0.1278 -0.0847
C3B C -0.6289(5) 0.2868(2) -0.1726(2)
C4B C -0.7523(6) 0.0816(2) -0.2367(2)
H2B H -0.7426 -0.0030 -0.2215
C5B C -0.9138(6) 0.2426(3) -0.3557(2)
H3B H -1.0155 0.2722 -0.4251
C6B C -0.7844(5) 0.3272(2) -0.2758(2)
H4B H -0.8022 0.4114 -0.2916
N1B N -0.5947(4) 0.4617(2) -0.03632(18)
N1B_2 N 0.4053(4) 0.4617(2) -0.03632(18)
N2B N -0.8999(4) 0.1198(2) -0.3382(2)
N2A N 0.1001(4) 0.3802(2) 0.1618(2)
N2C N -0.1001(4) 0.6198(2) -0.1618(2)
O1B O -0.2039(3) 0.35722(15) -0.08392(15)
O1_2 O 0.2039(3) 0.64278(15) 0.08392(15)
loop_
_geom_bond_atom_site_label_1
_geom_bond_atom_site_label_2
_geom_bond_site_symmetry_1
_geom_bond_site_symmetry_2
Ni1 N1 1_555 1_555
C1 C3 1_555 1_555
C2 H1 1_555 1_555
C3 C2 1_555 1_555
C4 C2 1_555 1_555
H2 C4 1_555 1_555
C5 H3 1_555 1_555
C6 C3 1_555 1_555
H4 C6 1_555 1_555
N1 C1 1_555 1_555
N2 C4 1_555 1_555
O1 C1 1_555 1_555
Ni1A N2 1_555 1_555
Ni1_2 O1 1_555 1_555
Ni1A_2 N2B 1_555 1_555
C1B C3B 1_555 1_555
C2B H1B 1_555 1_555
C3B C2B 1_555 1_555
C4B C2B 1_555 1_555
H2B C4B 1_555 1_555
C5B H3B 1_555 1_555
C6B C3B 1_555 1_555
H4B C6B 1_555 1_555
N1B N1 1_555 1_555
N1B_2 Ni1 1_555 1_555
N2B C4B 1_555 1_555
N2A Ni1 1_555 1_555
N2C Ni1 1_555 1_555
O1B Ni1 1_555 1_555
O1_2 Ni1 1_555 1_555
C5 C6 1_555 1_555
C5 N2 1_555 1_555
Ni1_2 N1B 1_555 1_555
C1B N1B 1_555 1_555
C1B O1B 1_555 1_555
C5B C6B 1_555 1_555
C5B N2B 1_555 1_555

#END
