
#######################################################################
#
#                 Cambridge Crystallographic Data Centre
#                                CCDC 
#
#######################################################################
#
# If this CIF has been generated from an entry in the Cambridge 
# Structural Database, then it will include bibliographic, chemical, 
# crystal, experimental, refinement or atomic coordinate data resulting 
# from the CCDC's data processing and validation procedures.
#
#######################################################################

data_LULGAA
_symmetry_cell_setting           monoclinic
_symmetry_space_group_name_H-M   'P 21/c'
_symmetry_Int_Tables_number      14
_space_group_name_Hall           '-P 2ybc'
loop_
_symmetry_equiv_pos_site_id
_symmetry_equiv_pos_as_xyz
1 x,y,z
2 -x,1/2+y,1/2-z
3 -x,-y,-z
4 x,1/2-y,1/2+z
_cell_length_a                   13.883(2)
_cell_length_b                   6.6819(12)
_cell_length_c                   7.2995(12)
_cell_angle_alpha                90
_cell_angle_beta                 98.054(12)
_cell_angle_gamma                90
_cell_volume                     670.458
loop_
_atom_site_label
_atom_site_type_symbol
_atom_site_fract_x
_atom_site_fract_y
_atom_site_fract_z
Cu1 Cu 0.00000 1.00000 0.00000
Cl1 Cl 0.06644(2) 1.20843(5) -0.19858(4)
Cl2 Cl 0.43575(3) 0.19780(6) 0.07386(6)
N1 N 0.23012(9) 0.61415(18) 0.10343(17)
N2 N 0.27401(10) 0.7874(2) 0.1638(2)
N3 N 0.21004(10) 0.9274(2) 0.1301(2)
N4 N 0.12441(9) 0.84752(18) 0.04954(17)
C1 C 0.13837(11) 0.6532(2) 0.0344(2)
C2 C 0.28103(11) 0.4212(2) 0.1247(2)
C3 C 0.37787(12) 0.4378(2) 0.0532(2)
H1 H 0.0982(16) 0.562(3) -0.013(3)
H2 H 0.2413(17) 0.330(4) 0.063(3)
H3 H 0.2899(18) 0.387(4) 0.252(4)
H4 H 0.4201(19) 0.532(4) 0.123(4)
H5 H 0.3683(19) 0.479(3) -0.071(4)
Cl1C Cl 0.06644(2) 1.29157(5) 0.30142(4)
Cl2B Cl -0.43575(3) 1.80220(6) -0.07386(6)
N1B N -0.23012(9) 1.38585(18) -0.10343(17)
N2B N -0.27401(10) 1.2126(2) -0.1638(2)
N3B N -0.21004(10) 1.0726(2) -0.1301(2)
N4B N -0.12441(9) 1.15248(18) -0.04954(17)
C1B C -0.13837(11) 1.3468(2) -0.0344(2)
C2B C -0.28103(11) 1.5788(2) -0.1247(2)
C3B C -0.37787(12) 1.5622(2) -0.0532(2)
H1B H -0.0982(16) 1.438(3) 0.013(3)
H2B H -0.2413(17) 1.670(4) -0.063(3)
H3B H -0.2899(18) 1.613(4) -0.252(4)
H4B H -0.4201(19) 1.468(4) -0.123(4)
H5B H -0.3683(19) 1.521(3) 0.071(4)
Cl1B Cl -0.06644(2) 0.79157(5) 0.19858(4)
Cl1A Cl -0.06644(2) 0.70843(5) -0.30142(4)
Cu1C Cu 0.00000 1.50000 -0.50000
Cu1C_2 Cu 0.00000 1.50000 0.50000
loop_
_geom_bond_atom_site_label_1
_geom_bond_atom_site_label_2
_geom_bond_site_symmetry_1
_geom_bond_site_symmetry_2
Cu1 Cl1 1_555 1_555
Cl1 Cu1C 1_555 1_555
Cl2 C3 1_555 1_555
N1 N2 1_555 1_555
N2 N3 1_555 1_555
N3 N4 1_555 1_555
N4 Cu1 1_555 1_555
C1 N1 1_555 1_555
C2 N1 1_555 1_555
C3 C2 1_555 1_555
H1 C1 1_555 1_555
H2 C2 1_555 1_555
H3 C2 1_555 1_555
H4 C3 1_555 1_555
H5 C3 1_555 1_555
Cl1C Cu1 1_555 1_555
Cl2B C3B 1_555 1_555
N1B N2B 1_555 1_555
N2B N3B 1_555 1_555
N3B N4B 1_555 1_555
N4B Cu1 1_555 1_555
C1B N1B 1_555 1_555
C2B N1B 1_555 1_555
C3B C2B 1_555 1_555
H1B C1B 1_555 1_555
H2B C2B 1_555 1_555
H3B C2B 1_555 1_555
H4B C3B 1_555 1_555
H5B C3B 1_555 1_555
Cl1B Cu1 1_555 1_555
Cl1A Cu1 1_555 1_555
Cu1C_2 Cl1C 1_555 1_555
N4 C1 1_555 1_555
N4B C1B 1_555 1_555

#END
