
#######################################################################
#
#                 Cambridge Crystallographic Data Centre
#                                CCDC 
#
#######################################################################
#
# If this CIF has been generated from an entry in the Cambridge 
# Structural Database, then it will include bibliographic, chemical, 
# crystal, experimental, refinement or atomic coordinate data resulting 
# from the CCDC's data processing and validation procedures.
#
#######################################################################

data_LULHUW
_symmetry_cell_setting           monoclinic
_symmetry_space_group_name_H-M   'C 2/c'
_symmetry_Int_Tables_number      15
_space_group_name_Hall           '-C 2yn'
loop_
_symmetry_equiv_pos_site_id
_symmetry_equiv_pos_as_xyz
1 x,y,z
2 -x,y,1/2-z
3 1/2+x,1/2+y,z
4 1/2-x,1/2+y,1/2-z
5 -x,-y,-z
6 x,-y,1/2+z
7 1/2-x,1/2-y,-z
8 1/2+x,1/2-y,1/2+z
_cell_length_a                   19.70(4)
_cell_length_b                   6.929(13)
_cell_length_c                   8.185(15)
_cell_angle_alpha                90
_cell_angle_beta                 109.923(7)
_cell_angle_gamma                90
_cell_volume                     1050.4
loop_
_atom_site_label
_atom_site_type_symbol
_atom_site_fract_x
_atom_site_fract_y
_atom_site_fract_z
Ni1 Ni 0.2500 0.2500 0.0000
O1 O 0.22483(16) 0.0637(5) 0.1713(4)
O2 O 0.16970(16) -0.1478(5) 0.2869(4)
O3 O 0.17816(17) 0.4497(5) 0.0312(4)
C1 C 0.1682(2) -0.0155(7) 0.1803(6)
C2 C 0.0967(2) 0.0509(8) 0.0600(6)
C3 C 0.0354(2) -0.0317(8) 0.0583(6)
C4 C 0.1346(4) 0.5751(11) -0.0959(9)
H1 H 0.0976 0.1609 -0.0118
H2 H 0.0369 -0.1425 0.1483
H3 H 0.2018 0.5272 0.1196
H4 H 0.1603 0.6949 -0.0938
H5 H 0.0905 0.6015 -0.0723
H6 H 0.1228 0.5155 -0.2094
Ni1C Ni 0.2500 -0.2500 0.5000
Ni1B Ni -0.2500 -0.2500 0.0000
Ni1A Ni -0.2500 0.2500 -0.5000
O1D O -0.22483(16) -0.0637(5) -0.1713(4)
O1F O 0.27517(16) 0.4363(5) -0.1713(4)
O2D O -0.16970(16) 0.1478(5) -0.2869(4)
O2C O 0.33030(16) 0.3522(5) 0.2131(4)
O2E O 0.16970(16) 0.1478(5) -0.2131(4)
O3F O 0.32184(17) 0.0503(5) -0.0312(4)
C1D C -0.1682(2) 0.0155(7) -0.1803(6)
C2D C -0.0967(2) -0.0509(8) -0.0600(6)
C3D C -0.0354(2) 0.0317(8) -0.0583(6)
C4F C 0.3654(4) -0.0751(11) 0.0959(9)
H1D H -0.0976 -0.1609 0.0118
H2D H -0.0369 0.1425 -0.1483
H3F H 0.2982 -0.0272 -0.1196
H4F H 0.3397 -0.1949 0.0938
H5F H 0.4095 -0.1015 0.0723
H6F H 0.3772 -0.0155 0.2094
loop_
_geom_bond_atom_site_label_1
_geom_bond_atom_site_label_2
_geom_bond_site_symmetry_1
_geom_bond_site_symmetry_2
Ni1 O1 1_555 1_555
O1 C1 1_555 1_555
O2 C1 1_555 1_555
O3 Ni1 1_555 1_555
C1 C2 1_555 1_555
C2 C3 1_555 1_555
C3 H2 1_555 1_555
C4 O3 1_555 1_555
H1 C2 1_555 1_555
H3 O3 1_555 1_555
H4 C4 1_555 1_555
H5 C4 1_555 1_555
H6 C4 1_555 1_555
Ni1C O2 1_555 1_555
Ni1B O1D 1_555 1_555
Ni1A O2D 1_555 1_555
O1D C1D 1_555 1_555
O1F Ni1 1_555 1_555
O2D C1D 1_555 1_555
O2C Ni1 1_555 1_555
O2E Ni1 1_555 1_555
O3F Ni1 1_555 1_555
C1D C2D 1_555 1_555
C2D C3D 1_555 1_555
C3D C3 1_555 1_555
C4F O3F 1_555 1_555
H1D C2D 1_555 1_555
H2D C3D 1_555 1_555
H3F O3F 1_555 1_555
H4F C4F 1_555 1_555
H5F C4F 1_555 1_555
H6F C4F 1_555 1_555

#END
