
#######################################################################
#
#                 Cambridge Crystallographic Data Centre
#                                CCDC 
#
#######################################################################
#
# If this CIF has been generated from an entry in the Cambridge 
# Structural Database, then it will include bibliographic, chemical, 
# crystal, experimental, refinement or atomic coordinate data resulting 
# from the CCDC's data processing and validation procedures.
#
#######################################################################

data_LULJAE
_symmetry_cell_setting           monoclinic
_symmetry_space_group_name_H-M   'C 2/c'
_symmetry_Int_Tables_number      15
_space_group_name_Hall           '-C 2yn'
loop_
_symmetry_equiv_pos_site_id
_symmetry_equiv_pos_as_xyz
1 x,y,z
2 -x,y,1/2-z
3 1/2+x,1/2+y,z
4 1/2-x,1/2+y,1/2-z
5 -x,-y,-z
6 x,-y,1/2+z
7 1/2-x,1/2-y,-z
8 1/2+x,1/2-y,1/2+z
_cell_length_a                   19.764(5)
_cell_length_b                   7.0368(9)
_cell_length_c                   8.216(2)
_cell_angle_alpha                90
_cell_angle_beta                 110.067(3)
_cell_angle_gamma                90
_cell_volume                     1073.28
loop_
_atom_site_label
_atom_site_type_symbol
_atom_site_fract_x
_atom_site_fract_y
_atom_site_fract_z
Co1 Co 0.2500 0.2500 0.0000
O1 O 0.22389(5) 0.06517(15) 0.17275(13)
O2 O 0.16891(5) -0.14879(15) 0.28340(13)
O3 O 0.17815(5) 0.45280(15) 0.03074(14)
C1 C 0.16783(7) -0.01650(19) 0.17996(16)
C2 C 0.09663(7) 0.0492(2) 0.06022(18)
C3 C 0.03512(7) -0.0301(2) 0.05717(18)
C4 C 0.13444(12) 0.5786(3) -0.0958(3)
H1 H 0.0967(12) 0.153(3) -0.013(3)
H2 H 0.0370(11) -0.137(3) 0.131(3)
H3 H 0.2026(13) 0.504(4) 0.118(4)
H4 H 0.0963(14) 0.635(4) -0.067(3)
H5 H 0.165(2) 0.686(6) -0.113(5)
H6 H 0.1111(16) 0.506(5) -0.203(4)
Co1C Co 0.2500 -0.2500 0.5000
Co1B Co -0.2500 -0.2500 0.0000
Co1A Co -0.2500 0.2500 -0.5000
O1D O -0.22389(5) -0.06517(15) -0.17275(13)
O1F O 0.27611(5) 0.43483(15) -0.17275(13)
O2D O -0.16891(5) 0.14879(15) -0.28340(13)
O2C O 0.33109(5) 0.35121(15) 0.21660(13)
O2E O 0.16891(5) 0.14879(15) -0.21660(13)
O3F O 0.32185(5) 0.04720(15) -0.03074(14)
C1D C -0.16783(7) 0.01650(19) -0.17996(16)
C2D C -0.09663(7) -0.0492(2) -0.06022(18)
C3D C -0.03512(7) 0.0301(2) -0.05717(18)
C4F C 0.36556(12) -0.0786(3) 0.0958(3)
H1D H -0.0967(12) -0.153(3) 0.013(3)
H2D H -0.0370(11) 0.137(3) -0.131(3)
H3F H 0.2974(13) -0.004(4) -0.118(4)
H4F H 0.4037(14) -0.135(4) 0.067(3)
H5F H 0.335(2) -0.186(6) 0.113(5)
H6F H 0.3889(16) -0.006(5) 0.203(4)
loop_
_geom_bond_atom_site_label_1
_geom_bond_atom_site_label_2
_geom_bond_site_symmetry_1
_geom_bond_site_symmetry_2
Co1 O1 1_555 1_555
O1 C1 1_555 1_555
O2 C1 1_555 1_555
O3 Co1 1_555 1_555
C1 C2 1_555 1_555
C2 C3 1_555 1_555
C3 H2 1_555 1_555
C4 O3 1_555 1_555
H1 C2 1_555 1_555
H3 O3 1_555 1_555
H4 C4 1_555 1_555
H5 C4 1_555 1_555
H6 C4 1_555 1_555
Co1C O2 1_555 1_555
Co1B O1D 1_555 1_555
Co1A O2D 1_555 1_555
O1D C1D 1_555 1_555
O1F Co1 1_555 1_555
O2D C1D 1_555 1_555
O2C Co1 1_555 1_555
O2E Co1 1_555 1_555
O3F Co1 1_555 1_555
C1D C2D 1_555 1_555
C2D C3D 1_555 1_555
C3D C3 1_555 1_555
C4F O3F 1_555 1_555
H1D C2D 1_555 1_555
H2D C3D 1_555 1_555
H3F O3F 1_555 1_555
H4F C4F 1_555 1_555
H5F C4F 1_555 1_555
H6F C4F 1_555 1_555

#END
