
#######################################################################
#
#                 Cambridge Crystallographic Data Centre
#                                CCDC 
#
#######################################################################
#
# If this CIF has been generated from an entry in the Cambridge 
# Structural Database, then it will include bibliographic, chemical, 
# crystal, experimental, refinement or atomic coordinate data resulting 
# from the CCDC's data processing and validation procedures.
#
#######################################################################

data_LULLOV
_symmetry_cell_setting           tetragonal
_symmetry_space_group_name_H-M   'I 41/a c d'
_symmetry_Int_Tables_number      142
_space_group_name_Hall           '-I 4bd 2c'
loop_
_symmetry_equiv_pos_site_id
_symmetry_equiv_pos_as_xyz
1 x,y,z
2 -x,1/2-y,z
3 x,-y,1/2-z
4 1/2-x,y,-z
5 1/4-y,1/4-x,1/4-z
6 3/4+y,1/4+x,1/4-z
7 1/4+y,1/4-x,3/4+z
8 1/4-y,3/4+x,1/4+z
9 1/2+x,1/2+y,1/2+z
10 1/2-x,-y,1/2+z
11 1/2+x,1/2-y,-z
12 -x,1/2+y,1/2-z
13 3/4-y,3/4-x,3/4-z
14 1/4+y,3/4+x,3/4-z
15 3/4+y,3/4-x,1/4+z
16 3/4-y,1/4+x,3/4+z
17 -x,-y,-z
18 x,1/2+y,-z
19 -x,y,1/2+z
20 1/2+x,-y,z
21 3/4+y,3/4+x,3/4+z
22 1/4-y,3/4-x,3/4+z
23 3/4-y,3/4+x,1/4-z
24 3/4+y,1/4-x,3/4-z
25 1/2-x,1/2-y,1/2-z
26 1/2+x,y,1/2-z
27 1/2-x,1/2+y,z
28 x,1/2-y,1/2+z
29 1/4+y,1/4+x,1/4+z
30 3/4-y,1/4-x,1/4+z
31 1/4-y,1/4+x,3/4-z
32 1/4+y,3/4-x,1/4-z
_cell_length_a                   22.558(5)
_cell_length_b                   22.558(5)
_cell_length_c                   24.105(5)
_cell_angle_alpha                90
_cell_angle_beta                 90
_cell_angle_gamma                90
_cell_volume                     12266.2
loop_
_atom_site_label
_atom_site_type_symbol
_atom_site_fract_x
_atom_site_fract_y
_atom_site_fract_z
Zn1 Zn 0.16990(2) 0.08010(2) 0.1250
S1 S 0.43476(8) 0.07555(9) 0.34253(8)
S2 S 0.32235(8) 0.07723(8) 0.26616(8)
C1 C 0.3998(3) 0.0849(3) 0.1812(4)
C2 C 0.4984(4) 0.0838(3) 0.2465(3)
O1 O 0.23680(16) 0.07634(16) 0.17911(15)
O2 O 0.29515(19) 0.0812(2) 0.10429(18)
O3 O 0.60556(18) 0.07731(16) 0.31866(17)
C3 C 0.4324(3) 0.0823(3) 0.2339(3)
C4 C 0.3395(3) 0.0813(2) 0.1942(3)
C5 C 0.5018(3) 0.0789(2) 0.3048(2)
C6 C 0.3980(3) 0.0789(3) 0.2807(3)
C7 C 0.2871(3) 0.0800(2) 0.1554(2)
O4 O 0.5480(2) 0.0752(3) 0.39205(19)
C8 C 0.5560(3) 0.0773(3) 0.3408(3)
C9 C 0.4199(3) 0.0895(3) 0.1354(4)
H1 H 0.4624 0.0907 0.1374
H2 H 0.4057 0.1254 0.1187
H3 H 0.4078 0.0562 0.1133
C10 C 0.5373(3) 0.0881(3) 0.2138(3)
H4 H 0.5210 0.0912 0.1771
H5 H 0.5623 0.0537 0.2159
H6 H 0.5603 0.1228 0.2218
K1 K 0.67509(9) 0.0000 0.2500
S1B S 0.43476(8) -0.07555(9) 0.15747(8)
S2B S 0.32235(8) -0.07723(8) 0.23384(8)
C1B C 0.3998(3) -0.0849(3) 0.3188(4)
C2B C 0.4984(4) -0.0838(3) 0.2535(3)
O1B O 0.23680(16) -0.07634(16) 0.32089(15)
O2B O 0.29515(19) -0.0812(2) 0.39571(18)
O3B O 0.60556(18) -0.07731(16) 0.18134(17)
C3B C 0.4324(3) -0.0823(3) 0.2661(3)
C4B C 0.3395(3) -0.0813(2) 0.3058(3)
C5B C 0.5018(3) -0.0789(2) 0.1952(2)
C6B C 0.3980(3) -0.0789(3) 0.2193(3)
C7B C 0.2871(3) -0.0800(2) 0.3446(2)
O4B O 0.5480(2) -0.0752(3) 0.10795(19)
C8B C 0.5560(3) -0.0773(3) 0.1592(3)
C9B C 0.4199(3) -0.0895(3) 0.3646(4)
H1B H 0.4624 -0.0907 0.3626
H2B H 0.4057 -0.1254 0.3813
H3B H 0.4078 -0.0562 0.3867
C10B C 0.5373(3) -0.0881(3) 0.2862(3)
H4B H 0.5210 -0.0912 0.3229
H5B H 0.5623 -0.0537 0.2841
H6B H 0.5603 -0.1228 0.2782
Zn1B Zn 0.16990(2) -0.08010(2) 0.3750
Zn1S Zn 0.66990(2) -0.08010(2) 0.1250
Zn1Y Zn 0.66990(2) 0.08010(2) 0.3750
O1D O 0.17366(16) 0.01320(16) 0.07089(15)
O1S O 0.73680(16) -0.07634(16) 0.17911(15)
O1Y O 0.73680(16) 0.07634(16) 0.32089(15)
O2V O 0.6688(2) 0.04515(19) 0.14571(18)
O2CA O 0.6688(2) -0.04515(19) 0.35429(18)
O3U O 0.17269(16) 0.14444(18) 0.06866(17)
O3Y O 0.10556(18) 0.07731(16) 0.18134(17)
K1S K 0.17509(9) 0.0000 0.2500
K1U K 0.2500 0.07491(9) 0.0000
K1BA K 0.2500 -0.07491(9) 0.5000
loop_
_geom_bond_atom_site_label_1
_geom_bond_atom_site_label_2
_geom_bond_site_symmetry_1
_geom_bond_site_symmetry_2
Zn1 O1 1_555 1_555
S1 C5 1_555 1_555
S2 C4 1_555 1_555
C1 C3 1_555 1_555
C2 C3 1_555 1_555
O1 C7 1_555 1_555
O2 C7 1_555 1_555
O3 C8 1_555 1_555
C3 C6 1_555 1_555
C4 C1 1_555 1_555
C5 C2 1_555 1_555
C6 S1 1_555 1_555
C7 C4 1_555 1_555
O4 C8 1_555 1_555
C8 C5 1_555 1_555
C9 C1 1_555 1_555
H1 C9 1_555 1_555
H2 C9 1_555 1_555
H3 C9 1_555 1_555
C10 C2 1_555 1_555
H4 C10 1_555 1_555
H5 C10 1_555 1_555
H6 C10 1_555 1_555
K1 O3 1_555 1_555
S1B C5B 1_555 1_555
S2B C4B 1_555 1_555
C1B C3B 1_555 1_555
C2B C3B 1_555 1_555
O1B C7B 1_555 1_555
O2B C7B 1_555 1_555
O3B K1 1_555 1_555
C3B C6B 1_555 1_555
C4B C1B 1_555 1_555
C5B C2B 1_555 1_555
C6B S1B 1_555 1_555
C7B C4B 1_555 1_555
O4B C8B 1_555 1_555
C8B O3B 1_555 1_555
C9B C1B 1_555 1_555
H1B C9B 1_555 1_555
H2B C9B 1_555 1_555
H3B C9B 1_555 1_555
C10B C2B 1_555 1_555
H4B C10B 1_555 1_555
H5B C10B 1_555 1_555
H6B C10B 1_555 1_555
Zn1B O1B 1_555 1_555
Zn1S O3B 1_555 1_555
Zn1Y O3 1_555 1_555
O1D Zn1 1_555 1_555
O1S K1 1_555 1_555
O1Y K1 1_555 1_555
O2V K1 1_555 1_555
O2CA K1 1_555 1_555
O3U Zn1 1_555 1_555
O3Y Zn1 1_555 1_555
K1S O1 1_555 1_555
K1U O2 1_555 1_555
K1BA O2B 1_555 1_555
S2 C6 1_555 1_555
S2B C6B 1_555 1_555
O1B K1S 1_555 1_555
C5B C8B 1_555 1_555
Zn1S O1S 1_555 1_555
Zn1Y O1Y 1_555 1_555
O1D K1U 1_555 1_555
O3U K1U 1_555 1_555
O3Y K1S 1_555 1_555

#END
