
#######################################################################
#
#                 Cambridge Crystallographic Data Centre
#                                CCDC 
#
#######################################################################
#
# If this CIF has been generated from an entry in the Cambridge 
# Structural Database, then it will include bibliographic, chemical, 
# crystal, experimental, refinement or atomic coordinate data resulting 
# from the CCDC's data processing and validation procedures.
#
#######################################################################

data_LULRIT
_symmetry_cell_setting           monoclinic
_symmetry_space_group_name_H-M   'P 21/n'
_symmetry_Int_Tables_number      14
_space_group_name_Hall           '-P 2yn'
loop_
_symmetry_equiv_pos_site_id
_symmetry_equiv_pos_as_xyz
1 x,y,z
2 1/2-x,1/2+y,1/2-z
3 -x,-y,-z
4 1/2+x,1/2-y,1/2+z
_cell_length_a                   9.6917(7)
_cell_length_b                   6.9588(6)
_cell_length_c                   11.8878(10)
_cell_angle_alpha                90
_cell_angle_beta                 96.971(9)
_cell_angle_gamma                90
_cell_volume                     795.817
loop_
_atom_site_label
_atom_site_type_symbol
_atom_site_fract_x
_atom_site_fract_y
_atom_site_fract_z
Cu1 Cu -0.33649(4) 0.29747(6) -0.09644(3)
N1 N -0.1302(3) 0.2758(4) -0.0531(2)
C1 C -0.0598(3) 0.2049(5) 0.0430(3)
O1 O -0.1165(3) 0.1375(4) 0.1231(2)
N2 N 0.0848(3) 0.2073(4) 0.0534(2)
H1 H 0.1291 0.1611 0.1167
C2 C 0.1650(3) 0.2749(5) -0.0257(3)
O2 O 0.2929(3) 0.2758(5) -0.0092(2)
C3 C 0.0842(3) 0.3472(5) -0.1266(3)
F1 F 0.1584(2) 0.4170(4) -0.20544(18)
C4 C -0.0579(3) 0.3471(4) -0.1371(3)
C5 C -0.1476(3) 0.4330(4) -0.2366(3)
O3 O -0.2795(2) 0.4147(4) -0.23352(19)
O4 O -0.0949(2) 0.5158(4) -0.3127(2)
N3 N -0.3955(3) 0.2131(5) 0.0481(2)
H2 H -0.4202 0.3172 0.0874
H3 H -0.3241 0.1505 0.0896
H4 H -0.4695 0.1324 0.0343
O5 O -0.5258(2) 0.3976(4) -0.1509(2)
H5 H -0.5747 0.4011 -0.2259
H6 H -0.5940 0.3809 -0.1197
Cu1A Cu -0.16351(4) 0.79747(6) -0.40356(3)
O4A O -0.4051(2) 0.0158(4) -0.1873(2)
loop_
_geom_bond_atom_site_label_1
_geom_bond_atom_site_label_2
_geom_bond_site_symmetry_1
_geom_bond_site_symmetry_2
Cu1 N1 1_555 1_555
N1 C1 1_555 1_555
C1 O1 1_555 1_555
N2 C1 1_555 1_555
H1 N2 1_555 1_555
C2 N2 1_555 1_555
O2 C2 1_555 1_555
C3 C2 1_555 1_555
F1 C3 1_555 1_555
C4 N1 1_555 1_555
C5 C4 1_555 1_555
O3 Cu1 1_555 1_555
O4 C5 1_555 1_555
N3 Cu1 1_555 1_555
H2 N3 1_555 1_555
H3 N3 1_555 1_555
H4 N3 1_555 1_555
O5 Cu1 1_555 1_555
H5 O5 1_555 1_555
H6 O5 1_555 1_555
Cu1A O4 1_555 1_555
O4A Cu1 1_555 1_555
C3 C4 1_555 1_555
C5 O3 1_555 1_555

#END
