
#######################################################################
#
#                 Cambridge Crystallographic Data Centre
#                                CCDC 
#
#######################################################################
#
# If this CIF has been generated from an entry in the Cambridge 
# Structural Database, then it will include bibliographic, chemical, 
# crystal, experimental, refinement or atomic coordinate data resulting 
# from the CCDC's data processing and validation procedures.
#
#######################################################################

data_LULVOE
_symmetry_cell_setting           triclinic
_symmetry_space_group_name_H-M   'P -1'
_symmetry_Int_Tables_number      2
_space_group_name_Hall           '-P 1'
loop_
_symmetry_equiv_pos_site_id
_symmetry_equiv_pos_as_xyz
1 x,y,z
2 -x,-y,-z
_cell_length_a                   3.646(2)
_cell_length_b                   9.715(6)
_cell_length_c                   11.298(6)
_cell_angle_alpha                110.28(5)
_cell_angle_beta                 96.95(4)
_cell_angle_gamma                100.66(4)
_cell_volume                     361.384
loop_
_atom_site_label
_atom_site_type_symbol
_atom_site_fract_x
_atom_site_fract_y
_atom_site_fract_z
Ni1 Ni 0.0000 0.5000 0.5000
N1 N 0.320(2) 0.4270(10) 0.1204(9)
C1 C 0.134(2) 0.2991(11) 0.0147(11)
N2 N 0.191(2) 0.3005(11) -0.0990(9)
H1 H 0.0800 0.2238 -0.1684
H2 H 0.3384 0.3780 -0.1032
N3 N -0.1020(19) 0.1743(9) 0.0165(9)
C2 C -0.154(2) 0.1844(11) 0.1337(10)
C3 C 0.012(2) 0.3119(11) 0.2472(9)
C4 C 0.264(2) 0.4354(11) 0.2363(10)
S1 S 0.4820(6) 0.5854(3) 0.3831(3)
N4 N -0.109(2) 0.2950(10) 0.3508(8)
C5 C -0.342(2) 0.1559(13) 0.3021(11)
H3 H -0.4710 0.1122 0.3514
N5 N -0.371(2) 0.0872(10) 0.1765(9)
H4 H -0.5023 -0.0030 0.1297
Ni1_2 Ni 1.0000 0.5000 0.5000
N1A N 0.680(2) 0.5730(10) 0.8796(9)
C1A C 0.866(2) 0.7009(11) 0.9853(11)
N2A N 0.809(2) 0.6995(11) 1.0990(9)
H1A H 0.9200 0.7762 1.1684
H2A H 0.6616 0.6220 1.1032
N3A N 1.1020(19) 0.8257(9) 0.9835(9)
C2A C 1.154(2) 0.8156(11) 0.8663(10)
C3A C 0.988(2) 0.6881(11) 0.7528(9)
C4A C 0.736(2) 0.5646(11) 0.7637(10)
S1A S 0.5180(6) 0.4146(3) 0.6169(3)
S1_2 S -0.5180(6) 0.5854(3) 0.3831(3)
S1A_2 S -0.4820(6) 0.4146(3) 0.6169(3)
N4A N 1.109(2) 0.7050(10) 0.6492(8)
N4A_2 N 0.109(2) 0.7050(10) 0.6492(8)
C5A C 1.342(2) 0.8441(13) 0.6979(11)
H3A H 1.4710 0.8878 0.6486
N5A N 1.371(2) 0.9128(10) 0.8235(9)
H4A H 1.5023 1.0030 0.8703
O1 O -0.135(3) 0.1000(12) 0.6053(11)
loop_
_geom_bond_atom_site_label_1
_geom_bond_atom_site_label_2
_geom_bond_site_symmetry_1
_geom_bond_site_symmetry_2
Ni1 S1 1_555 1_555
N1 C1 1_555 1_555
C1 N2 1_555 1_555
N2 H1 1_555 1_555
H2 N2 1_555 1_555
N3 C1 1_555 1_555
C2 N3 1_555 1_555
C3 C2 1_555 1_555
C4 N1 1_555 1_555
S1 C4 1_555 1_555
N4 Ni1 1_555 1_555
C5 N4 1_555 1_555
H3 C5 1_555 1_555
N5 C2 1_555 1_555
H4 N5 1_555 1_555
Ni1_2 S1 1_555 1_555
N1A C1A 1_555 1_555
C1A N2A 1_555 1_555
N2A H1A 1_555 1_555
H2A N2A 1_555 1_555
N3A C1A 1_555 1_555
C2A N3A 1_555 1_555
C3A C2A 1_555 1_555
C4A N1A 1_555 1_555
S1A Ni1 1_555 1_555
S1_2 Ni1 1_555 1_555
S1A_2 Ni1 1_555 1_555
N4A Ni1_2 1_555 1_555
N4A_2 Ni1 1_555 1_555
C5A N4A 1_555 1_555
H3A C5A 1_555 1_555
N5A C2A 1_555 1_555
H4A N5A 1_555 1_555
C3 C4 1_555 1_555
C3 N4 1_555 1_555
C5 N5 1_555 1_555
Ni1_2 S1A 1_555 1_555
C3A C4A 1_555 1_555
C3A N4A 1_555 1_555
C4A S1A 1_555 1_555
C5A N5A 1_555 1_555

#END
