
#######################################################################
#
#                 Cambridge Crystallographic Data Centre
#                                CCDC 
#
#######################################################################
#
# If this CIF has been generated from an entry in the Cambridge 
# Structural Database, then it will include bibliographic, chemical, 
# crystal, experimental, refinement or atomic coordinate data resulting 
# from the CCDC's data processing and validation procedures.
#
#######################################################################

data_LULXIB
_symmetry_cell_setting           monoclinic
_symmetry_space_group_name_H-M   'P 21/c'
_symmetry_Int_Tables_number      14
_space_group_name_Hall           '-P 2ybc'
loop_
_symmetry_equiv_pos_site_id
_symmetry_equiv_pos_as_xyz
1 x,y,z
2 -x,1/2+y,1/2-z
3 -x,-y,-z
4 x,1/2-y,1/2+z
_cell_length_a                   9.0776(18)
_cell_length_b                   13.726(3)
_cell_length_c                   18.827(5)
_cell_angle_alpha                90
_cell_angle_beta                 110.96(3)
_cell_angle_gamma                90
_cell_volume                     2190.61
loop_
_atom_site_label
_atom_site_type_symbol
_atom_site_fract_x
_atom_site_fract_y
_atom_site_fract_z
Zn1 Zn 0.59167(3) 0.856312(18) 0.630292(14)
N1 N 0.7077(2) 0.86206(13) 0.74494(10)
N2 N 1.2911(3) 0.85935(16) 1.40497(14)
O1 O 0.57269(19) 0.71718(11) 0.61423(9)
O2 O 0.3225(2) 0.72736(12) 0.53454(11)
O3 O 0.4691(3) 0.55174(13) 0.68481(10)
O4 O 0.6795(2) 0.45680(16) 0.70379(11)
O5 O 0.76206(18) 0.91072(12) 0.60212(8)
O6 O 0.64429(18) 0.85540(11) 0.48362(9)
O7 O 0.65433(19) 1.07966(14) 0.33725(9)
O8 O 0.58409(17) 1.06369(11) 0.43646(8)
C1 C 0.8509(3) 0.90211(17) 0.77478(13)
H1 H 0.8949 0.9313 0.7418
C2 C 0.9367(3) 0.90257(18) 0.85140(14)
H2 H 1.0373 0.9313 0.8697
C3 C 0.8750(3) 0.86071(17) 0.90177(13)
C4 C 0.7268(3) 0.81727(19) 0.87058(13)
H3 H 0.6812 0.7862 0.9022
C5 C 0.6484(3) 0.82027(18) 0.79342(13)
H4 H 0.5479 0.7916 0.7734
C6 C 0.9676(3) 0.86074(19) 0.98297(14)
H5 H 1.0747 0.8774 0.9968
C7 C 0.9183(3) 0.84000(18) 1.03997(14)
H6 H 0.8126 0.8221 1.0292
C8 C 1.0249(3) 0.84462(18) 1.11783(14)
H7 H 1.1318 0.8572 1.1266
C9 C 0.9837(3) 0.83247(19) 1.17847(14)
H8 H 0.8779 0.8174 1.1703
C10 C 1.0932(3) 0.84113(17) 1.25649(14)
C11 C 1.0382(3) 0.83261(19) 1.31684(14)
H9 H 0.9305 0.8212 1.3068
C12 C 1.1400(4) 0.84084(19) 1.39010(15)
H10 H 1.1026 0.8333 1.4303
C13 C 1.3491(3) 0.86959(19) 1.34981(16)
H11 H 1.4568 0.8835 1.3622
C14 C 1.2541(3) 0.86014(19) 1.27566(15)
H12 H 1.2967 0.8664 1.2372
C15 C 0.4352(3) 0.57837(16) 0.45399(13)
H13 H 0.3909 0.6320 0.4226
C16 C 0.4702(3) 0.58614(16) 0.53192(13)
C17 C 0.5358(3) 0.50642(16) 0.57843(13)
C18 C 0.5569(3) 0.50960(17) 0.66098(14)
C19 C 0.4486(3) 0.68469(17) 0.56292(13)
C20 C 1.0283(3) 0.93756(16) 0.56045(12)
H14 H 1.0478 0.8953 0.6021
C21 C 0.8735(3) 0.95526(16) 0.51327(12)
C22 C 0.8455(3) 1.01957(16) 0.45223(12)
C23 C 0.6835(3) 1.05446(16) 0.40404(12)
C24 C 0.7465(2) 0.90284(16) 0.53202(12)
H15 H 0.677(4) 0.455(2) 0.7461(19)
H16 H 1.354(4) 0.867(3) 1.449(2)
O1B O 0.42731(19) 0.28282(11) 0.38577(9)
O2B O 0.6775(2) 0.27264(12) 0.46546(11)
O3B O 0.5309(3) 0.44826(13) 0.31519(10)
O4B O 0.3205(2) 0.54320(16) 0.29621(11)
C15B C 0.5648(3) 0.42163(16) 0.54601(13)
H13B H 0.6091 0.3680 0.5774
C16B C 0.5298(3) 0.41386(16) 0.46808(13)
C17B C 0.4642(3) 0.49358(16) 0.42157(13)
C18B C 0.4431(3) 0.49040(17) 0.33902(14)
C19B C 0.5514(3) 0.31531(17) 0.43708(13)
H15B H 0.323(4) 0.545(2) 0.2539(19)
O5B O 1.23794(18) 1.08928(12) 0.39788(8)
O6B O 1.35571(18) 1.14460(11) 0.51638(9)
O7B O 1.34567(19) 0.92034(14) 0.66275(9)
O8B O 1.41591(17) 0.93631(11) 0.56354(8)
C20B C 0.9717(3) 1.06244(16) 0.43955(12)
H14B H 0.9522 1.1047 0.3979
C21B C 1.1265(3) 1.04474(16) 0.48673(12)
C22B C 1.1545(3) 0.98043(16) 0.54777(12)
C23B C 1.3165(3) 0.94554(16) 0.59596(12)
C24B C 1.2535(2) 1.09716(16) 0.46798(12)
Zn1B Zn 0.40833(3) 0.143688(18) 0.369708(14)
N1B N 0.2923(2) 0.13794(13) 0.25506(10)
N2B N -0.2911(3) 0.14065(16) -0.40497(14)
C1B C 0.1491(3) 0.09789(17) 0.22522(13)
H1B H 0.1051 0.0687 0.2582
C2B C 0.0633(3) 0.09743(18) 0.14860(14)
H2B H -0.0373 0.0687 0.1303
C3B C 0.1250(3) 0.13929(17) 0.09823(13)
C4B C 0.2732(3) 0.18273(19) 0.12942(13)
H3B H 0.3188 0.2138 0.0978
C5B C 0.3516(3) 0.17973(18) 0.20658(13)
H4B H 0.4521 0.2084 0.2266
C6B C 0.0324(3) 0.13926(19) 0.01703(14)
H5B H -0.0747 0.1226 0.0032
C7B C 0.0817(3) 0.16000(18) -0.03997(14)
H6B H 0.1874 0.1779 -0.0292
C8B C -0.0249(3) 0.15538(18) -0.11783(14)
H7B H -0.1318 0.1428 -0.1266
C9B C 0.0163(3) 0.16753(19) -0.17847(14)
H8B H 0.1221 0.1826 -0.1703
C10B C -0.0932(3) 0.15887(17) -0.25649(14)
C11B C -0.0382(3) 0.16739(19) -0.31684(14)
H9B H 0.0695 0.1788 -0.3068
C12B C -0.1400(4) 0.15916(19) -0.39010(15)
H10B H -0.1026 0.1667 -0.4303
C13B C -0.3491(3) 0.13041(19) -0.34981(16)
H11B H -0.4568 0.1165 -0.3622
C14B C -0.2541(3) 0.13986(19) -0.27566(15)
H12B H -0.2967 0.1336 -0.2372
H16B H -0.354(4) 0.133(3) -0.449(2)
Zn1_2 Zn 1.59167(3) 0.856312(18) 0.630292(14)
Zn1B_2 Zn 0.40833(3) 1.143688(18) 0.369708(14)
Zn1B_3 Zn 1.40833(3) 1.143688(18) 0.369708(14)
O5B_2 O 0.23794(18) 0.08928(12) 0.39788(8)
O8_2 O 0.58409(17) 0.06369(11) 0.43646(8)
O8B_2 O 0.41591(17) 0.93631(11) 0.56354(8)
loop_
_geom_bond_atom_site_label_1
_geom_bond_atom_site_label_2
_geom_bond_site_symmetry_1
_geom_bond_site_symmetry_2
Zn1 N1 1_555 1_555
N1 C1 1_555 1_555
N2 C12 1_555 1_555
O1 Zn1 1_555 1_555
O2 C19 1_555 1_555
O3 C18 1_555 1_555
O4 C18 1_555 1_555
O5 Zn1 1_555 1_555
O6 C24 1_555 1_555
O7 C23 1_555 1_555
O8 C23 1_555 1_555
C1 H1 1_555 1_555
C2 C1 1_555 1_555
H2 C2 1_555 1_555
C3 C2 1_555 1_555
C4 C3 1_555 1_555
H3 C4 1_555 1_555
C5 N1 1_555 1_555
H4 C5 1_555 1_555
C6 C3 1_555 1_555
H5 C6 1_555 1_555
C7 C6 1_555 1_555
H6 C7 1_555 1_555
C8 C7 1_555 1_555
H7 C8 1_555 1_555
C9 C8 1_555 1_555
H8 C9 1_555 1_555
C10 C9 1_555 1_555
C11 C10 1_555 1_555
H9 C11 1_555 1_555
C12 C11 1_555 1_555
H10 C12 1_555 1_555
C13 N2 1_555 1_555
H11 C13 1_555 1_555
C14 C10 1_555 1_555
H12 C14 1_555 1_555
C15 H13 1_555 1_555
C16 C15 1_555 1_555
C17 C16 1_555 1_555
C18 C17 1_555 1_555
C19 O1 1_555 1_555
C20 H14 1_555 1_555
C21 C20 1_555 1_555
C22 C21 1_555 1_555
C23 C22 1_555 1_555
C24 O5 1_555 1_555
H15 O4 1_555 1_555
H16 N2 1_555 1_555
O1B C19B 1_555 1_555
O2B C19B 1_555 1_555
O3B C18B 1_555 1_555
O4B C18B 1_555 1_555
C15B C17 1_555 1_555
H13B C15B 1_555 1_555
C16B C15B 1_555 1_555
C17B C15 1_555 1_555
C18B C17B 1_555 1_555
C19B C16B 1_555 1_555
H15B O4B 1_555 1_555
O5B C24B 1_555 1_555
O6B C24B 1_555 1_555
O7B C23B 1_555 1_555
O8B C23B 1_555 1_555
C20B C22 1_555 1_555
H14B C20B 1_555 1_555
C21B C20B 1_555 1_555
C22B C20 1_555 1_555
C23B C22B 1_555 1_555
C24B C21B 1_555 1_555
Zn1B O1B 1_555 1_555
N1B Zn1B 1_555 1_555
N2B C12B 1_555 1_555
C1B N1B 1_555 1_555
H1B C1B 1_555 1_555
C2B C1B 1_555 1_555
H2B C2B 1_555 1_555
C3B C2B 1_555 1_555
C4B C3B 1_555 1_555
H3B C4B 1_555 1_555
C5B N1B 1_555 1_555
H4B C5B 1_555 1_555
C6B C3B 1_555 1_555
H5B C6B 1_555 1_555
C7B C6B 1_555 1_555
H6B C7B 1_555 1_555
C8B C7B 1_555 1_555
H7B C8B 1_555 1_555
C9B C8B 1_555 1_555
H8B C9B 1_555 1_555
C10B C9B 1_555 1_555
C11B C10B 1_555 1_555
H9B C11B 1_555 1_555
C12B C11B 1_555 1_555
H10B C12B 1_555 1_555
C13B N2B 1_555 1_555
H11B C13B 1_555 1_555
C14B C10B 1_555 1_555
H12B C14B 1_555 1_555
H16B N2B 1_555 1_555
Zn1_2 O8B 1_555 1_555
Zn1B_2 O8 1_555 1_555
Zn1B_3 O5B 1_555 1_555
O5B_2 Zn1B 1_555 1_555
O8_2 Zn1B 1_555 1_555
O8B_2 Zn1 1_555 1_555
C4 C5 1_555 1_555
C13 C14 1_555 1_555
C16 C19 1_555 1_555
C21 C24 1_555 1_555
C16B C17B 1_555 1_555
C21B C22B 1_555 1_555
C4B C5B 1_555 1_555
C13B C14B 1_555 1_555

#END
