
#######################################################################
#
#                 Cambridge Crystallographic Data Centre
#                                CCDC 
#
#######################################################################
#
# If this CIF has been generated from an entry in the Cambridge 
# Structural Database, then it will include bibliographic, chemical, 
# crystal, experimental, refinement or atomic coordinate data resulting 
# from the CCDC's data processing and validation procedures.
#
#######################################################################

data_LULZEZ
_symmetry_cell_setting           orthorhombic
_symmetry_space_group_name_H-M   'P n a 21'
_symmetry_Int_Tables_number      33
_space_group_name_Hall           'P 2c -2n'
loop_
_symmetry_equiv_pos_site_id
_symmetry_equiv_pos_as_xyz
1 x,y,z
2 -x,-y,1/2+z
3 1/2+x,1/2-y,z
4 1/2-x,1/2+y,1/2+z
_cell_length_a                   20.5899(8)
_cell_length_b                   17.5243(7)
_cell_length_c                   45.3620(10)
_cell_angle_alpha                90
_cell_angle_beta                 90
_cell_angle_gamma                90
_cell_volume                     16367.7
loop_
_atom_site_label
_atom_site_type_symbol
_atom_site_fract_x
_atom_site_fract_y
_atom_site_fract_z
Nd1 Nd 0.48732(2) 0.49818(2) 0.62446(2)
Nd2 Nd 0.48379(2) 0.50345(2) 0.87488(2)
Na1 Na 0.51772(8) 0.49402(13) 0.74948(9)
Na2 Na 0.50885(14) 0.51256(12) 0.49967(7)
S1 S 0.40277(6) 0.46461(8) 0.69624(3)
S2 S 0.58257(6) 0.55386(8) 0.69198(3)
S3 S 0.39018(6) 0.51288(8) 0.55463(3)
S4 S 0.57964(6) 0.45717(8) 0.55520(3)
S5 S 0.58328(6) 0.44278(8) 0.80929(3)
S6 S 0.40353(6) 0.53278(8) 0.80247(3)
S7 S 0.57050(6) 0.53094(8) 0.94589(3)
S8 S 0.37924(6) 0.50296(7) 0.94265(3)
P1 P 0.37147(6) 0.60283(8) 0.66912(3)
P2 P 0.60779(6) 0.40667(8) 0.67161(3)
P3 P 0.37936(6) 0.37250(8) 0.58349(3)
P4 P 0.58766(6) 0.60873(7) 0.57379(3)
P5 P 0.60868(7) 0.59012(8) 0.82920(4)
P6 P 0.36951(6) 0.39607(8) 0.83052(3)
P7 P 0.55856(6) 0.37927(7) 0.92800(3)
P8 P 0.38698(6) 0.64432(8) 0.91380(3)
O1 O 0.43776(17) 0.4420(2) 0.66947(9)
O2 O 0.43464(18) 0.4417(2) 0.72324(9)
O3 O 0.40562(17) 0.5838(2) 0.64099(9)
O4 O 0.29628(18) 0.6033(2) 0.66172(9)
O5 O 0.38232(18) 0.6875(2) 0.67918(9)
O6 O 0.54091(17) 0.5679(2) 0.66649(9)
O7 O 0.55963(19) 0.5876(2) 0.71918(9)
O8 O 0.57058(17) 0.4190(2) 0.64393(9)
O9 O 0.59723(17) 0.3257(2) 0.68565(9)
O10 O 0.68135(18) 0.4029(2) 0.66279(10)
O11 O 0.42847(16) 0.5422(2) 0.57942(9)
O12 O 0.41159(17) 0.5392(2) 0.52612(9)
O13 O 0.41611(17) 0.3986(2) 0.60999(8)
O14 O 0.30639(17) 0.3622(2) 0.59340(8)
O15 O 0.39718(18) 0.2894(2) 0.57358(9)
O16 O 0.54691(17) 0.4373(2) 0.58272(9)
O17 O 0.55509(18) 0.4176(2) 0.52960(9)
O18 O 0.55700(17) 0.5926(2) 0.60299(9)
O19 O 0.66100(16) 0.6280(2) 0.57969(8)
O20 O 0.56329(16) 0.6852(2) 0.55921(9)
O21 O 0.53878(16) 0.4302(2) 0.83403(9)
O22 O 0.56291(19) 0.4080(2) 0.78193(9)
O23 O 0.57063(18) 0.5777(2) 0.85668(9)
O24 O 0.59891(18) 0.6709(2) 0.81500(10)
O25 O 0.68252(18) 0.5937(2) 0.83854(9)
O26 O 0.43890(18) 0.5524(2) 0.77619(9)
O27 O 0.43514(17) 0.5569(2) 0.82982(9)
O28 O 0.40314(17) 0.4155(2) 0.85864(9)
O29 O 0.29427(18) 0.3970(2) 0.83727(9)
O30 O 0.38021(18) 0.3108(2) 0.82125(9)
O31 O 0.54319(16) 0.5568(2) 0.91784(9)
O32 O 0.55056(17) 0.5752(2) 0.97117(9)
O33 O 0.54783(16) 0.4026(2) 0.89679(9)
O34 O 0.5093(2) 0.3164(2) 0.93872(9)
O35 O 0.62649(17) 0.3378(2) 0.92991(9)
O36 O 0.41688(16) 0.4686(2) 0.91856(9)
O37 O 0.39661(18) 0.4754(2) 0.97170(9)
O38 O 0.42399(17) 0.6127(2) 0.88831(9)
O39 O 0.31882(17) 0.6682(2) 0.90079(9)
O40 O 0.41321(17) 0.7231(2) 0.92499(9)
N1 N 0.3875(2) 0.5508(3) 0.69734(10)
N2 N 0.5950(2) 0.4672(3) 0.69761(11)
N3 N 0.38417(19) 0.4247(3) 0.55462(10)
N4 N 0.57901(19) 0.5448(3) 0.54907(11)
N5 N 0.5972(2) 0.5288(3) 0.80342(12)
N6 N 0.3870(2) 0.4464(3) 0.80202(10)
N7 N 0.5563(2) 0.4456(3) 0.95225(10)
N8 N 0.3795(2) 0.5921(3) 0.94237(11)
C1 C 0.3280(2) 0.4153(3) 0.69522(14)
C2 C 0.2967(3) 0.4012(4) 0.72190(14)
H1 H 0.3155 0.4167 0.7401
C3 C 0.2373(3) 0.3639(4) 0.72122(17)
H2 H 0.2154 0.3527 0.7391
C4 C 0.2098(3) 0.3430(4) 0.69471(18)
H3 H 0.1690 0.3178 0.6945
C5 C 0.2408(3) 0.3581(4) 0.66856(17)
H4 H 0.2208 0.3439 0.6505
C6 C 0.3011(3) 0.3941(3) 0.66825(15)
H5 H 0.3232 0.4040 0.6502
C7 C 0.2495(3) 0.6140(4) 0.68529(14)
H6 H 0.2576 0.6631 0.6954
H7 H 0.2535 0.5723 0.6999
C8 C 0.1826(3) 0.6138(3) 0.67186(14)
C9 C 0.1456(3) 0.5480(4) 0.67201(17)
H8 H 0.1618 0.5030 0.6811
C10 C 0.0847(3) 0.5478(5) 0.6588(2)
H9 H 0.0593 0.5025 0.6588
C11 C 0.0612(3) 0.6125(5) 0.64558(18)
H10 H 0.0197 0.6120 0.6364
C12 C 0.0976(3) 0.6783(5) 0.64560(17)
H11 H 0.0810 0.7232 0.6366
C13 C 0.1586(3) 0.6797(4) 0.65868(15)
H12 H 0.1837 0.7252 0.6586
C14 C 0.4407(3) 0.7117(3) 0.69519(16)
H13 H 0.4733 0.7323 0.6813
H14 H 0.4601 0.6678 0.7057
C15 C 0.4206(3) 0.7717(3) 0.71666(14)
C16 C 0.4260(3) 0.8480(4) 0.70976(18)
H15 H 0.4456 0.8627 0.6917
C17 C 0.4034(4) 0.9034(5) 0.7287(2)
H16 H 0.4060 0.9557 0.7234
C18 C 0.3770(4) 0.8829(7) 0.7554(2)
H17 H 0.3622 0.9211 0.7687
C19 C 0.3719(4) 0.8061(7) 0.76311(18)
H18 H 0.3537 0.7919 0.7816
C20 C 0.3936(3) 0.7504(5) 0.74365(16)
H19 H 0.3900 0.6980 0.7487
C21 C 0.6576(2) 0.5983(3) 0.68371(13)
C22 C 0.6783(3) 0.6011(3) 0.65471(14)
H20 H 0.6516 0.5814 0.6394
C23 C 0.7385(3) 0.6330(3) 0.64813(15)
H21 H 0.7538 0.6338 0.6284
C24 C 0.7760(3) 0.6637(4) 0.67071(16)
H22 H 0.8167 0.6866 0.6663
C25 C 0.7546(3) 0.6610(4) 0.69923(15)
H23 H 0.7806 0.6823 0.7144
C26 C 0.6955(3) 0.6275(3) 0.70632(14)
H24 H 0.6814 0.6247 0.7262
C27 C 0.5340(3) 0.3012(3) 0.69665(16)
H25 H 0.5048 0.2883 0.6800
H26 H 0.5136 0.3424 0.7084
C28 C 0.5459(3) 0.2328(3) 0.71535(14)
C29 C 0.5733(3) 0.2405(4) 0.74311(16)
H27 H 0.5826 0.2898 0.7507
C30 C 0.5875(3) 0.1756(5) 0.76000(17)
H28 H 0.6067 0.1809 0.7789
C31 C 0.5737(3) 0.1057(5) 0.7494(2)
H29 H 0.5837 0.0620 0.7609
C32 C 0.5455(4) 0.0968(4) 0.7222(2)
H30 H 0.5358 0.0471 0.7151
C33 C 0.5312(3) 0.1599(4) 0.70501(17)
H31 H 0.5115 0.1535 0.6862
C34 C 0.7313(3) 0.3883(4) 0.68466(15)
H32 H 0.7255 0.3368 0.6933
H33 H 0.7286 0.4264 0.7007
C35 C 0.7960(3) 0.3937(3) 0.66955(14)
C36 C 0.8281(3) 0.4631(4) 0.66830(16)
H34 H 0.8103 0.5065 0.6779
C37 C 0.8855(3) 0.4690(5) 0.65331(19)
H35 H 0.9076 0.5165 0.6528
C38 C 0.9116(3) 0.4071(5) 0.63900(19)
H36 H 0.9508 0.4124 0.6282
C39 C 0.8807(3) 0.3373(5) 0.64036(18)
H37 H 0.8992 0.2941 0.6309
C40 C 0.8222(3) 0.3303(4) 0.65566(16)
H38 H 0.8006 0.2825 0.6565
C41 C 0.3107(2) 0.5497(3) 0.56018(12)
C42 C 0.2870(3) 0.5556(3) 0.58900(14)
H39 H 0.3142 0.5443 0.6053
C43 C 0.2234(3) 0.5779(3) 0.59339(14)
H40 H 0.2065 0.5815 0.6128
C44 C 0.1845(3) 0.5950(3) 0.56948(15)
H41 H 0.1405 0.6094 0.5727
C45 C 0.2083(3) 0.5914(3) 0.54102(14)
H42 H 0.1814 0.6050 0.5248
C46 C 0.2723(2) 0.5676(3) 0.53618(13)
H43 H 0.2891 0.5638 0.5167
C47 C 0.2572(3) 0.3457(4) 0.57125(14)
H44 H 0.2697 0.3000 0.5598
H45 H 0.2531 0.3893 0.5575
C48 C 0.1934(2) 0.3319(3) 0.58663(12)
C49 C 0.1754(3) 0.2600(3) 0.59560(14)
H46 H 0.2042 0.2183 0.5926
C50 C 0.1160(3) 0.2478(4) 0.60888(15)
H47 H 0.1037 0.1977 0.6147
C51 C 0.0745(3) 0.3082(4) 0.61371(17)
H48 H 0.0339 0.3001 0.6231
C52 C 0.0923(3) 0.3800(4) 0.60479(19)
H49 H 0.0638 0.4218 0.6080
C53 C 0.1514(3) 0.3919(3) 0.59113(17)
H50 H 0.1631 0.4417 0.5848
C54 C 0.4518(3) 0.2722(3) 0.55395(14)
H51 H 0.4832 0.2385 0.5641
H52 H 0.4744 0.3199 0.5484
C55 C 0.4258(2) 0.2334(3) 0.52699(13)
C56 C 0.3964(3) 0.2770(3) 0.50490(13)
H53 H 0.3934 0.3308 0.5071
C57 C 0.3718(3) 0.2430(4) 0.48015(13)
H54 H 0.3516 0.2734 0.4654
C58 C 0.3760(3) 0.1653(4) 0.47636(14)
H55 H 0.3589 0.1417 0.4592
C59 C 0.4056(3) 0.1222(4) 0.49816(15)
H56 H 0.4089 0.0685 0.4958
C60 C 0.4305(2) 0.1560(3) 0.52312(14)
H57 H 0.4510 0.1255 0.5377
C61 C 0.6612(2) 0.4289(3) 0.55994(12)
C62 C 0.6951(3) 0.3966(3) 0.53625(13)
H58 H 0.6744 0.3888 0.5178
C63 C 0.7596(3) 0.3762(3) 0.54040(14)
H59 H 0.7831 0.3532 0.5247
C64 C 0.7901(3) 0.3889(3) 0.56692(14)
H60 H 0.8344 0.3753 0.5693
C65 C 0.7562(2) 0.4216(3) 0.59044(14)
H61 H 0.7775 0.4305 0.6087
C66 C 0.6910(3) 0.4411(3) 0.58696(13)
H62 H 0.6672 0.4625 0.6029
C67 C 0.7062(2) 0.6461(4) 0.55590(13)
H63 H 0.6912 0.6920 0.5451
H64 H 0.7087 0.6030 0.5418
C68 C 0.7714(2) 0.6605(3) 0.56947(13)
C69 C 0.8159(3) 0.6019(4) 0.57216(16)
H65 H 0.8069 0.5533 0.5639
C70 C 0.8743(3) 0.6149(4) 0.58719(19)
H66 H 0.9047 0.5745 0.5892
C71 C 0.8881(3) 0.6848(4) 0.59902(17)
H67 H 0.9277 0.6927 0.6093
C72 C 0.8440(3) 0.7439(4) 0.59581(15)
H68 H 0.8533 0.7928 0.6038
C73 C 0.7859(3) 0.7313(3) 0.58093(14)
H69 H 0.7559 0.7720 0.5786
C74 C 0.4967(3) 0.6929(3) 0.54997(15)
H70 H 0.4675 0.6879 0.5672
H71 H 0.4857 0.6520 0.5357
C75 C 0.4873(3) 0.7695(3) 0.53583(13)
C76 C 0.5364(3) 0.8227(4) 0.53484(17)
H72 H 0.5779 0.8108 0.5428
C77 C 0.5255(4) 0.8941(4) 0.5222(2)
H73 H 0.5595 0.9308 0.5215
C78 C 0.4657(3) 0.9113(4) 0.51073(19)
H74 H 0.4583 0.9598 0.5019
C79 C 0.4166(3) 0.8586(4) 0.51199(17)
H75 H 0.3749 0.8710 0.5044
C80 C 0.4273(3) 0.7878(4) 0.52417(13)
H76 H 0.3933 0.7512 0.5246
C81 C 0.6576(2) 0.3984(3) 0.81961(13)
C82 C 0.6997(3) 0.3748(3) 0.79760(13)
H77 H 0.6881 0.3803 0.7775
C83 C 0.7593(3) 0.3430(3) 0.80534(15)
H78 H 0.7884 0.3255 0.7906
C84 C 0.7755(3) 0.3371(3) 0.83491(14)
H79 H 0.8165 0.3163 0.8403
C85 C 0.7334(3) 0.3610(3) 0.85671(14)
H80 H 0.7454 0.3564 0.8768
C86 C 0.6731(3) 0.3917(3) 0.84920(14)
H81 H 0.6435 0.4077 0.8640
C87 C 0.5360(3) 0.6946(4) 0.80350(17)
H82 H 0.5064 0.7083 0.8199
H83 H 0.5160 0.6527 0.7920
C88 C 0.5475(2) 0.7618(3) 0.78430(14)
C89 C 0.5745(3) 0.7520(4) 0.75641(15)
H84 H 0.5837 0.7019 0.7495
C90 C 0.5881(3) 0.8132(5) 0.73867(17)
H85 H 0.6068 0.8057 0.7198
C91 C 0.5742(4) 0.8864(5) 0.7486(2)
H86 H 0.5842 0.9293 0.7367
C92 C 0.5464(4) 0.8966(4) 0.7753(2)
H87 H 0.5357 0.9467 0.7817
C93 C 0.5333(3) 0.8349(4) 0.79377(16)
H88 H 0.5147 0.8430 0.8127
C94 C 0.7313(3) 0.6110(5) 0.81621(16)
H89 H 0.7249 0.6633 0.8085
H90 H 0.7277 0.5747 0.7996
C95 C 0.7969(3) 0.6042(4) 0.83054(14)
C96 C 0.8221(3) 0.6636(4) 0.84782(15)
H91 H 0.7973 0.7086 0.8509
C97 C 0.8830(3) 0.6569(4) 0.86046(16)
H92 H 0.9001 0.6970 0.8722
C98 C 0.9185(3) 0.5914(4) 0.85586(16)
H93 H 0.9606 0.5870 0.8643
C99 C 0.8947(3) 0.5327(4) 0.83942(18)
H94 H 0.9198 0.4878 0.8366
C100 C 0.8334(3) 0.5390(4) 0.82691(16)
H95 H 0.8164 0.4979 0.8157
C101 C 0.3296(2) 0.5843(3) 0.80061(13)
C102 C 0.3015(3) 0.6120(3) 0.82641(13)
H96 H 0.3220 0.6050 0.8450
C103 C 0.2429(3) 0.6499(4) 0.82414(14)
H97 H 0.2228 0.6694 0.8414
C104 C 0.2129(3) 0.6598(4) 0.79713(15)
H98 H 0.1725 0.6858 0.7960
C105 C 0.2419(3) 0.6318(4) 0.77157(15)
H99 H 0.2217 0.6397 0.7530
C106 C 0.3003(3) 0.5924(4) 0.77329(14)
H100 H 0.3198 0.5714 0.7561
C107 C 0.2480(3) 0.3883(4) 0.81325(15)
H101 H 0.2568 0.3405 0.8023
H102 H 0.2519 0.4316 0.7994
C108 C 0.1811(2) 0.3862(3) 0.82611(14)
C109 C 0.1563(3) 0.3196(4) 0.83820(14)
H103 H 0.1814 0.2741 0.8375
C110 C 0.0954(3) 0.3182(5) 0.85126(17)
H104 H 0.0791 0.2721 0.8595
C111 C 0.0585(3) 0.3840(5) 0.85227(18)
H105 H 0.0168 0.3835 0.8613
C112 C 0.0828(3) 0.4507(5) 0.8401(2)
H106 H 0.0574 0.4959 0.8405
C113 C 0.1433(3) 0.4519(4) 0.82744(18)
H107 H 0.1596 0.4982 0.8195
C114 C 0.4394(3) 0.2854(3) 0.80606(15)
H108 H 0.4700 0.2621 0.8203
H109 H 0.4613 0.3292 0.7965
C115 C 0.4195(3) 0.2285(3) 0.78366(14)
C116 C 0.4277(3) 0.1514(4) 0.78842(17)
H110 H 0.4477 0.1337 0.8060
C117 C 0.4066(3) 0.0997(5) 0.7673(2)
H111 H 0.4143 0.0468 0.7702
C118 C 0.3756(4) 0.1230(6) 0.7427(2)
H112 H 0.3594 0.0864 0.7291
C119 C 0.3675(4) 0.1994(6) 0.73729(18)
H113 H 0.3467 0.2159 0.7197
C120 C 0.3900(3) 0.2532(4) 0.75772(15)
H114 H 0.3851 0.3062 0.7539
C121 C 0.6559(2) 0.5431(3) 0.94224(13)
C122 C 0.6840(3) 0.5344(3) 0.91432(13)
H115 H 0.6580 0.5216 0.8977
C123 C 0.7503(3) 0.5449(3) 0.91136(15)
H116 H 0.7706 0.5389 0.8927
C124 C 0.7868(3) 0.5642(3) 0.93600(15)
H117 H 0.8323 0.5718 0.9340
C125 C 0.7582(3) 0.5726(4) 0.96351(15)
H118 H 0.7842 0.5862 0.9800
C126 C 0.6920(2) 0.5612(3) 0.96706(14)
H119 H 0.6720 0.5657 0.9859
C127 C 0.4524(2) 0.2949(3) 0.92206(14)
H120 H 0.4536 0.3198 0.9025
H121 H 0.4130 0.3126 0.9325
C128 C 0.4498(2) 0.2100(3) 0.91825(12)
C129 C 0.4038(3) 0.1808(3) 0.89839(15)
H122 H 0.3775 0.2147 0.8872
C130 C 0.3966(3) 0.1024(3) 0.89512(15)
H123 H 0.3649 0.0828 0.8819
C131 C 0.4353(3) 0.0528(3) 0.91107(15)
H124 H 0.4307 -0.0007 0.9086
C132 C 0.4808(3) 0.0814(3) 0.93069(15)
H125 H 0.5074 0.0474 0.9417
C133 C 0.4877(2) 0.1603(3) 0.93434(14)
H126 H 0.5186 0.1796 0.9480
C134 C 0.6429(3) 0.2994(4) 0.95764(16)
H127 H 0.6248 0.2471 0.9575
H128 H 0.6233 0.3275 0.9743
C135 C 0.7153(3) 0.2954(3) 0.96177(13)
C136 C 0.7428(3) 0.2276(3) 0.97163(14)
H129 H 0.7164 0.1836 0.9740
C137 C 0.8077(3) 0.2239(4) 0.97798(14)
H130 H 0.8261 0.1772 0.9846
C138 C 0.8467(3) 0.2873(4) 0.97484(14)
H131 H 0.8915 0.2852 0.9799
C139 C 0.8194(3) 0.3541(4) 0.96424(14)
H132 H 0.8464 0.3973 0.9612
C140 C 0.7544(3) 0.3593(3) 0.95810(14)
H133 H 0.7363 0.4060 0.9514
C141 C 0.2978(2) 0.4730(3) 0.93655(12)
C142 C 0.2817(3) 0.4346(3) 0.91139(14)
H134 H 0.3140 0.4232 0.8971
C143 C 0.2172(3) 0.4123(4) 0.90671(15)
H135 H 0.2055 0.3857 0.8893
C144 C 0.1706(2) 0.4292(3) 0.92780(15)
H136 H 0.1269 0.4135 0.9248
C145 C 0.1870(3) 0.4688(3) 0.95299(14)
H137 H 0.1545 0.4810 0.9671
C146 C 0.2514(3) 0.4908(3) 0.95775(13)
H138 H 0.2633 0.5175 0.9752
C147 C 0.2716(3) 0.7053(4) 0.91975(14)
H139 H 0.2827 0.7599 0.9221
H140 H 0.2720 0.6812 0.9395
C148 C 0.2061(2) 0.6977(3) 0.90636(13)
C149 C 0.1803(3) 0.6263(3) 0.90003(13)
H141 H 0.2055 0.5817 0.9033
C150 C 0.1179(3) 0.6198(4) 0.88892(16)
H142 H 0.1007 0.5709 0.8845
C151 C 0.0809(3) 0.6840(4) 0.88425(17)
H143 H 0.0377 0.6791 0.8772
C152 C 0.1063(3) 0.7558(4) 0.88980(16)
H144 H 0.0814 0.8003 0.8859
C153 C 0.1685(3) 0.7619(3) 0.90112(14)
H145 H 0.1858 0.8109 0.9054
C154 C 0.4654(2) 0.7308(3) 0.94664(14)
H146 H 0.5053 0.7500 0.9370
H147 H 0.4751 0.6806 0.9556
C155 C 0.4435(2) 0.7858(3) 0.96992(13)
C156 C 0.4462(3) 0.8637(3) 0.96457(13)
H148 H 0.4628 0.8819 0.9463
C157 C 0.4248(3) 0.9154(3) 0.98575(14)
H149 H 0.4267 0.9686 0.9820
C158 C 0.4009(3) 0.8893(4) 1.01204(15)
H150 H 0.3860 0.9246 1.0264
C159 C 0.3982(3) 0.8116(4) 1.01782(14)
H151 H 0.3821 0.7937 1.0362
C160 C 0.4194(3) 0.7602(3) 0.99662(13)
H152 H 0.4173 0.7069 1.0005
Na2A Na 0.49115(14) 0.48744(12) 0.99967(7)
O32A O 0.44944(17) 0.4248(2) 0.47117(9)
O37A O 0.60339(18) 0.5246(2) 0.47170(9)
N7A N 0.4437(2) 0.5544(3) 0.45225(10)
loop_
_geom_bond_atom_site_label_1
_geom_bond_atom_site_label_2
_geom_bond_site_symmetry_1
_geom_bond_site_symmetry_2
Nd1 O1 1_555 1_555
Nd2 O21 1_555 1_555
Na1 O2 1_555 1_555
Na2 O12 1_555 1_555
S1 O1 1_555 1_555
S2 O6 1_555 1_555
S3 O11 1_555 1_555
S4 O16 1_555 1_555
S5 O21 1_555 1_555
S6 O26 1_555 1_555
S7 O31 1_555 1_555
S8 O36 1_555 1_555
P1 O3 1_555 1_555
P2 O8 1_555 1_555
P3 O13 1_555 1_555
P4 O18 1_555 1_555
P5 O23 1_555 1_555
P6 O28 1_555 1_555
P7 O33 1_555 1_555
P8 O38 1_555 1_555
O2 S1 1_555 1_555
O3 Nd1 1_555 1_555
O4 P1 1_555 1_555
O5 P1 1_555 1_555
O6 Nd1 1_555 1_555
O7 Na1 1_555 1_555
O8 Nd1 1_555 1_555
O9 P2 1_555 1_555
O10 P2 1_555 1_555
O11 Nd1 1_555 1_555
O12 S3 1_555 1_555
O13 Nd1 1_555 1_555
O14 P3 1_555 1_555
O15 P3 1_555 1_555
O16 Nd1 1_555 1_555
O17 Na2 1_555 1_555
O18 Nd1 1_555 1_555
O19 P4 1_555 1_555
O20 P4 1_555 1_555
O22 Na1 1_555 1_555
O23 Nd2 1_555 1_555
O24 P5 1_555 1_555
O25 P5 1_555 1_555
O26 Na1 1_555 1_555
O27 Nd2 1_555 1_555
O28 Nd2 1_555 1_555
O29 P6 1_555 1_555
O30 P6 1_555 1_555
O31 Nd2 1_555 1_555
O32 S7 1_555 1_555
O33 Nd2 1_555 1_555
O34 P7 1_555 1_555
O35 P7 1_555 1_555
O36 Nd2 1_555 1_555
O37 S8 1_555 1_555
O38 Nd2 1_555 1_555
O39 P8 1_555 1_555
O40 P8 1_555 1_555
N1 S1 1_555 1_555
N2 Na1 1_555 1_555
N3 S3 1_555 1_555
N4 Na2 1_555 1_555
N5 Na1 1_555 1_555
N6 S6 1_555 1_555
N7 S7 1_555 1_555
N8 S8 1_555 1_555
C1 S1 1_555 1_555
C2 C1 1_555 1_555
H1 C2 1_555 1_555
C3 C2 1_555 1_555
H2 C3 1_555 1_555
C4 C3 1_555 1_555
H3 C4 1_555 1_555
C5 C4 1_555 1_555
H4 C5 1_555 1_555
C6 C1 1_555 1_555
H5 C6 1_555 1_555
C7 O4 1_555 1_555
H6 C7 1_555 1_555
H7 C7 1_555 1_555
C8 C7 1_555 1_555
C9 C8 1_555 1_555
H8 C9 1_555 1_555
C10 C9 1_555 1_555
H9 C10 1_555 1_555
C11 C10 1_555 1_555
H10 C11 1_555 1_555
C12 C11 1_555 1_555
H11 C12 1_555 1_555
C13 C8 1_555 1_555
H12 C13 1_555 1_555
C14 O5 1_555 1_555
H13 C14 1_555 1_555
H14 C14 1_555 1_555
C15 C14 1_555 1_555
C16 C15 1_555 1_555
H15 C16 1_555 1_555
C17 C16 1_555 1_555
H16 C17 1_555 1_555
C18 C17 1_555 1_555
H17 C18 1_555 1_555
C19 C18 1_555 1_555
H18 C19 1_555 1_555
C20 C15 1_555 1_555
H19 C20 1_555 1_555
C21 S2 1_555 1_555
C22 C21 1_555 1_555
H20 C22 1_555 1_555
C23 C22 1_555 1_555
H21 C23 1_555 1_555
C24 C23 1_555 1_555
H22 C24 1_555 1_555
C25 C24 1_555 1_555
H23 C25 1_555 1_555
C26 C21 1_555 1_555
H24 C26 1_555 1_555
C27 O9 1_555 1_555
H25 C27 1_555 1_555
H26 C27 1_555 1_555
C28 C27 1_555 1_555
C29 C28 1_555 1_555
H27 C29 1_555 1_555
C30 C29 1_555 1_555
H28 C30 1_555 1_555
C31 C30 1_555 1_555
H29 C31 1_555 1_555
C32 C31 1_555 1_555
H30 C32 1_555 1_555
C33 C28 1_555 1_555
H31 C33 1_555 1_555
C34 O10 1_555 1_555
H32 C34 1_555 1_555
H33 C34 1_555 1_555
C35 C34 1_555 1_555
C36 C35 1_555 1_555
H34 C36 1_555 1_555
C37 C36 1_555 1_555
H35 C37 1_555 1_555
C38 C37 1_555 1_555
H36 C38 1_555 1_555
C39 C38 1_555 1_555
H37 C39 1_555 1_555
C40 C35 1_555 1_555
H38 C40 1_555 1_555
C41 S3 1_555 1_555
C42 C41 1_555 1_555
H39 C42 1_555 1_555
C43 C42 1_555 1_555
H40 C43 1_555 1_555
C44 C43 1_555 1_555
H41 C44 1_555 1_555
C45 C44 1_555 1_555
H42 C45 1_555 1_555
C46 C41 1_555 1_555
H43 C46 1_555 1_555
C47 O14 1_555 1_555
H44 C47 1_555 1_555
H45 C47 1_555 1_555
C48 C47 1_555 1_555
C49 C48 1_555 1_555
H46 C49 1_555 1_555
C50 C49 1_555 1_555
H47 C50 1_555 1_555
C51 C50 1_555 1_555
H48 C51 1_555 1_555
C52 C51 1_555 1_555
H49 C52 1_555 1_555
C53 C48 1_555 1_555
H50 C53 1_555 1_555
C54 O15 1_555 1_555
H51 C54 1_555 1_555
H52 C54 1_555 1_555
C55 C54 1_555 1_555
C56 C55 1_555 1_555
H53 C56 1_555 1_555
C57 C56 1_555 1_555
H54 C57 1_555 1_555
C58 C57 1_555 1_555
H55 C58 1_555 1_555
C59 C58 1_555 1_555
H56 C59 1_555 1_555
C60 C55 1_555 1_555
H57 C60 1_555 1_555
C61 S4 1_555 1_555
C62 C61 1_555 1_555
H58 C62 1_555 1_555
C63 C62 1_555 1_555
H59 C63 1_555 1_555
C64 C63 1_555 1_555
H60 C64 1_555 1_555
C65 C64 1_555 1_555
H61 C65 1_555 1_555
C66 C61 1_555 1_555
H62 C66 1_555 1_555
C67 O19 1_555 1_555
H63 C67 1_555 1_555
H64 C67 1_555 1_555
C68 C67 1_555 1_555
C69 C68 1_555 1_555
H65 C69 1_555 1_555
C70 C69 1_555 1_555
H66 C70 1_555 1_555
C71 C70 1_555 1_555
H67 C71 1_555 1_555
C72 C71 1_555 1_555
H68 C72 1_555 1_555
C73 C68 1_555 1_555
H69 C73 1_555 1_555
C74 O20 1_555 1_555
H70 C74 1_555 1_555
H71 C74 1_555 1_555
C75 C74 1_555 1_555
C76 C75 1_555 1_555
H72 C76 1_555 1_555
C77 C76 1_555 1_555
H73 C77 1_555 1_555
C78 C77 1_555 1_555
H74 C78 1_555 1_555
C79 C78 1_555 1_555
H75 C79 1_555 1_555
C80 C75 1_555 1_555
H76 C80 1_555 1_555
C81 S5 1_555 1_555
C82 C81 1_555 1_555
H77 C82 1_555 1_555
C83 C82 1_555 1_555
H78 C83 1_555 1_555
C84 C83 1_555 1_555
H79 C84 1_555 1_555
C85 C84 1_555 1_555
H80 C85 1_555 1_555
C86 C81 1_555 1_555
H81 C86 1_555 1_555
C87 O24 1_555 1_555
H82 C87 1_555 1_555
H83 C87 1_555 1_555
C88 C87 1_555 1_555
C89 C88 1_555 1_555
H84 C89 1_555 1_555
C90 C89 1_555 1_555
H85 C90 1_555 1_555
C91 C90 1_555 1_555
H86 C91 1_555 1_555
C92 C91 1_555 1_555
H87 C92 1_555 1_555
C93 C88 1_555 1_555
H88 C93 1_555 1_555
C94 O25 1_555 1_555
H89 C94 1_555 1_555
H90 C94 1_555 1_555
C95 C94 1_555 1_555
C96 C95 1_555 1_555
H91 C96 1_555 1_555
C97 C96 1_555 1_555
H92 C97 1_555 1_555
C98 C97 1_555 1_555
H93 C98 1_555 1_555
C99 C98 1_555 1_555
H94 C99 1_555 1_555
C100 C95 1_555 1_555
H95 C100 1_555 1_555
C101 S6 1_555 1_555
C102 C101 1_555 1_555
H96 C102 1_555 1_555
C103 C102 1_555 1_555
H97 C103 1_555 1_555
C104 C103 1_555 1_555
H98 C104 1_555 1_555
C105 C104 1_555 1_555
H99 C105 1_555 1_555
C106 C101 1_555 1_555
H100 C106 1_555 1_555
C107 O29 1_555 1_555
H101 C107 1_555 1_555
H102 C107 1_555 1_555
C108 C107 1_555 1_555
C109 C108 1_555 1_555
H103 C109 1_555 1_555
C110 C109 1_555 1_555
H104 C110 1_555 1_555
C111 C110 1_555 1_555
H105 C111 1_555 1_555
C112 C111 1_555 1_555
H106 C112 1_555 1_555
C113 C108 1_555 1_555
H107 C113 1_555 1_555
C114 O30 1_555 1_555
H108 C114 1_555 1_555
H109 C114 1_555 1_555
C115 C114 1_555 1_555
C116 C115 1_555 1_555
H110 C116 1_555 1_555
C117 C116 1_555 1_555
H111 C117 1_555 1_555
C118 C117 1_555 1_555
H112 C118 1_555 1_555
C119 C118 1_555 1_555
H113 C119 1_555 1_555
C120 C115 1_555 1_555
H114 C120 1_555 1_555
C121 S7 1_555 1_555
C122 C121 1_555 1_555
H115 C122 1_555 1_555
C123 C122 1_555 1_555
H116 C123 1_555 1_555
C124 C123 1_555 1_555
H117 C124 1_555 1_555
C125 C124 1_555 1_555
H118 C125 1_555 1_555
C126 C121 1_555 1_555
H119 C126 1_555 1_555
C127 O34 1_555 1_555
H120 C127 1_555 1_555
H121 C127 1_555 1_555
C128 C127 1_555 1_555
C129 C128 1_555 1_555
H122 C129 1_555 1_555
C130 C129 1_555 1_555
H123 C130 1_555 1_555
C131 C130 1_555 1_555
H124 C131 1_555 1_555
C132 C131 1_555 1_555
H125 C132 1_555 1_555
C133 C128 1_555 1_555
H126 C133 1_555 1_555
C134 O35 1_555 1_555
H127 C134 1_555 1_555
H128 C134 1_555 1_555
C135 C134 1_555 1_555
C136 C135 1_555 1_555
H129 C136 1_555 1_555
C137 C136 1_555 1_555
H130 C137 1_555 1_555
C138 C137 1_555 1_555
H131 C138 1_555 1_555
C139 C138 1_555 1_555
H132 C139 1_555 1_555
C140 C135 1_555 1_555
H133 C140 1_555 1_555
C141 S8 1_555 1_555
C142 C141 1_555 1_555
H134 C142 1_555 1_555
C143 C142 1_555 1_555
H135 C143 1_555 1_555
C144 C143 1_555 1_555
H136 C144 1_555 1_555
C145 C144 1_555 1_555
H137 C145 1_555 1_555
C146 C141 1_555 1_555
H138 C146 1_555 1_555
C147 O39 1_555 1_555
H139 C147 1_555 1_555
H140 C147 1_555 1_555
C148 C147 1_555 1_555
C149 C148 1_555 1_555
H141 C149 1_555 1_555
C150 C149 1_555 1_555
H142 C150 1_555 1_555
C151 C150 1_555 1_555
H143 C151 1_555 1_555
C152 C151 1_555 1_555
H144 C152 1_555 1_555
C153 C148 1_555 1_555
H145 C153 1_555 1_555
C154 O40 1_555 1_555
H146 C154 1_555 1_555
H147 C154 1_555 1_555
C155 C154 1_555 1_555
C156 C155 1_555 1_555
H148 C156 1_555 1_555
C157 C156 1_555 1_555
H149 C157 1_555 1_555
C158 C157 1_555 1_555
H150 C158 1_555 1_555
C159 C158 1_555 1_555
H151 C159 1_555 1_555
C160 C155 1_555 1_555
H152 C160 1_555 1_555
Na2A O32 1_555 1_555
O32A Na2 1_555 1_555
O37A Na2 1_555 1_555
N7A Na2 1_555 1_555
S2 O7 1_555 1_555
S2 N2 1_555 1_555
S4 O17 1_555 1_555
S4 N4 1_555 1_555
S5 O22 1_555 1_555
S5 N5 1_555 1_555
S6 O27 1_555 1_555
P1 N1 1_555 1_555
P2 N2 1_555 1_555
P3 N3 1_555 1_555
P4 N4 1_555 1_555
P5 N5 1_555 1_555
P6 N6 1_555 1_555
P7 N7 1_555 1_555
P8 N8 1_555 1_555
O37 Na2A 1_555 1_555
N7 Na2A 1_555 1_555
C5 C6 1_555 1_555
C12 C13 1_555 1_555
C19 C20 1_555 1_555
C25 C26 1_555 1_555
C32 C33 1_555 1_555
C39 C40 1_555 1_555
C45 C46 1_555 1_555
C52 C53 1_555 1_555
C59 C60 1_555 1_555
C65 C66 1_555 1_555
C72 C73 1_555 1_555
C79 C80 1_555 1_555
C85 C86 1_555 1_555
C92 C93 1_555 1_555
C99 C100 1_555 1_555
C105 C106 1_555 1_555
C112 C113 1_555 1_555
C119 C120 1_555 1_555
C125 C126 1_555 1_555
C132 C133 1_555 1_555
C139 C140 1_555 1_555
C145 C146 1_555 1_555
C152 C153 1_555 1_555
C159 C160 1_555 1_555

#END
