
#######################################################################
#
#                 Cambridge Crystallographic Data Centre
#                                CCDC 
#
#######################################################################
#
# If this CIF has been generated from an entry in the Cambridge 
# Structural Database, then it will include bibliographic, chemical, 
# crystal, experimental, refinement or atomic coordinate data resulting 
# from the CCDC's data processing and validation procedures.
#
#######################################################################

data_LULZAV
_symmetry_cell_setting           monoclinic
_symmetry_space_group_name_H-M   'C 2'
_symmetry_Int_Tables_number      5
_space_group_name_Hall           'C 2y'
loop_
_symmetry_equiv_pos_site_id
_symmetry_equiv_pos_as_xyz
1 x,y,z
2 -x,y,-z
3 1/2+x,1/2+y,z
4 1/2-x,1/2+y,-z
_cell_length_a                   24.420(5)
_cell_length_b                   11.284(4)
_cell_length_c                   17.065(4)
_cell_angle_alpha                90
_cell_angle_beta                 134.09(3)
_cell_angle_gamma                90
_cell_volume                     3377.45
loop_
_atom_site_label
_atom_site_type_symbol
_atom_site_fract_x
_atom_site_fract_y
_atom_site_fract_z
Nd1 Nd 0.5000 0.62424(2) 0.5000
Na1 Na 0.5000 1.1245(2) 0.5000
S1 S 0.43005(4) 0.34827(6) 0.32845(6)
P1 P 0.32865(4) 0.44008(7) 0.34137(6)
N1 N 0.36476(16) 0.3370(2) 0.3246(2)
O1 O 0.48107(12) 0.44854(19) 0.39259(17)
O2 O 0.46866(13) 0.2349(2) 0.36065(19)
O3 O 0.37393(12) 0.55085(19) 0.39671(18)
O4 O 0.24555(13) 0.4695(2) 0.22776(19)
O5 O 0.30936(14) 0.3867(2) 0.4048(2)
C1 C 0.2359(2) 0.5284(5) 0.1441(3)
H1 H 0.1815 0.5419 0.0803
H2 H 0.2569 0.4788 0.1231
H3 H 0.2626 0.6046 0.1718
C2 C 0.2739(2) 0.2709(3) 0.3746(3)
H4 H 0.2636 0.2521 0.4194
H5 H 0.3083 0.2112 0.3867
H6 H 0.2260 0.2713 0.2974
C3 C 0.38482(19) 0.3744(3) 0.1922(3)
C4 C 0.39380(17) 0.4807(3) 0.1638(2)
H7 H 0.4292 0.5374 0.2183
C5 C 0.34953(18) 0.5057(3) 0.0515(2)
C6 C 0.35367(18) 0.6182(4) 0.0176(2)
H8 H 0.3887 0.6762 0.0707
C7 C 0.3075(2) 0.6431(4) -0.0910(3)
H9 H 0.3098 0.7188 -0.1131
C8 C 0.2565(2) 0.5563(4) -0.1703(3)
H10 H 0.2248 0.5740 -0.2454
C9 C 0.2521(2) 0.4473(3) -0.1402(3)
H11 H 0.2180 0.3896 -0.1946
C10 C 0.29781(19) 0.4192(3) -0.0287(3)
C11 C 0.2911(2) 0.3097(3) 0.0054(3)
H12 H 0.2567 0.2512 -0.0475
C12 C 0.3332(2) 0.2876(3) 0.1128(3)
H13 H 0.3280 0.2142 0.1344
P2 P 0.48598(4) 0.80677(7) 0.30964(6)
S2 S 0.59802(4) 0.89974(6) 0.52339(6)
O6 O 0.58532(12) 0.80000(19) 0.56384(17)
O7 O 0.60352(13) 1.0133(2) 0.56796(19)
O8 O 0.47692(13) 0.69711(19) 0.34825(17)
O9 O 0.51268(15) 0.7754(2) 0.2499(2)
O10 O 0.40538(13) 0.8611(2) 0.2120(2)
N2 N 0.53935(15) 0.9090(2) 0.3974(2)
C13 C 0.68742(18) 0.8739(3) 0.5674(3)
C14 C 0.72469(17) 0.7686(3) 0.6162(2)
H14 H 0.7045 0.7117 0.6315
C15 C 0.79366(17) 0.7446(3) 0.6437(3)
C16 C 0.83280(17) 0.6353(4) 0.6916(2)
H15 H 0.8132 0.5765 0.7065
C17 C 0.89877(18) 0.6143(5) 0.7164(3)
H16 H 0.9244 0.5407 0.7478
C18 C 0.9288(2) 0.7013(4) 0.6954(3)
H17 H 0.9748 0.6859 0.7135
C19 C 0.8923(2) 0.8079(4) 0.6490(3)
H18 H 0.9131 0.8655 0.6353
C20 C 0.82377(19) 0.8321(3) 0.6217(3)
C21 C 0.78271(19) 0.9402(3) 0.5709(3)
H19 H 0.8021 0.9989 0.5556
C22 C 0.71624(19) 0.9609(3) 0.5439(3)
H20 H 0.6894 1.0332 0.5095
C23 C 0.5861(3) 0.7238(6) 0.3105(4)
H21 H 0.5912 0.6522 0.3477
H22 H 0.6258 0.7808 0.3646
H23 H 0.5917 0.7029 0.2606
C24 C 0.4001(2) 0.9747(3) 0.1681(3)
H24 H 0.3465 0.9937 0.1048
H25 H 0.4277 0.9715 0.1456
H26 H 0.4227 1.0359 0.2240
S1A S 0.56995(4) 0.34827(6) 0.67155(6)
P1A P 0.67135(4) 0.44008(7) 0.65863(6)
N1A N 0.63524(16) 0.3370(2) 0.6754(2)
O1A O 0.51893(12) 0.44854(19) 0.60741(17)
O2A O 0.53134(13) 0.2349(2) 0.63935(19)
O3A O 0.62607(12) 0.55085(19) 0.60329(18)
O4A O 0.75445(13) 0.4695(2) 0.77224(19)
O5A O 0.69064(14) 0.3867(2) 0.5952(2)
C1A C 0.7641(2) 0.5284(5) 0.8559(3)
H1A H 0.8185 0.5419 0.9197
H2A H 0.7431 0.4788 0.8769
H3A H 0.7374 0.6046 0.8282
C2A C 0.7261(2) 0.2709(3) 0.6254(3)
H4A H 0.7364 0.2521 0.5806
H5A H 0.6917 0.2112 0.6133
H6A H 0.7740 0.2713 0.7026
C3A C 0.61518(19) 0.3744(3) 0.8078(3)
C4A C 0.60620(17) 0.4807(3) 0.8362(2)
H7A H 0.5708 0.5374 0.7817
C5A C 0.65047(18) 0.5057(3) 0.9485(2)
C6A C 0.64633(18) 0.6182(4) 0.9824(2)
H8A H 0.6113 0.6762 0.9293
C7A C 0.6925(2) 0.6431(4) 1.0910(3)
H9A H 0.6902 0.7188 1.1131
C8A C 0.7435(2) 0.5563(4) 1.1703(3)
H10A H 0.7752 0.5740 1.2454
C9A C 0.7479(2) 0.4473(3) 1.1402(3)
H11A H 0.7820 0.3896 1.1946
C10A C 0.70219(19) 0.4192(3) 1.0287(3)
C11A C 0.7089(2) 0.3097(3) 0.9946(3)
H12A H 0.7433 0.2512 1.0475
C12A C 0.6668(2) 0.2876(3) 0.8872(3)
H13A H 0.6720 0.2142 0.8656
P2A P 0.51402(4) 0.80677(7) 0.69036(6)
S2A S 0.40198(4) 0.89974(6) 0.47661(6)
O6A O 0.41468(12) 0.80000(19) 0.43616(17)
O7A O 0.39648(13) 1.0133(2) 0.43204(19)
O8A O 0.52308(13) 0.69711(19) 0.65175(17)
O9A O 0.48732(15) 0.7754(2) 0.7501(2)
O10A O 0.59462(13) 0.8611(2) 0.7880(2)
N2A N 0.46065(15) 0.9090(2) 0.6026(2)
C13A C 0.31258(18) 0.8739(3) 0.4326(3)
C14A C 0.27531(17) 0.7686(3) 0.3838(2)
H14A H 0.2955 0.7117 0.3685
C15A C 0.20634(17) 0.7446(3) 0.3563(3)
C16A C 0.16720(17) 0.6353(4) 0.3084(2)
H15A H 0.1868 0.5765 0.2935
C17A C 0.10123(18) 0.6143(5) 0.2836(3)
H16A H 0.0756 0.5407 0.2522
C18A C 0.0712(2) 0.7013(4) 0.3046(3)
H17A H 0.0252 0.6859 0.2865
C19A C 0.1077(2) 0.8079(4) 0.3510(3)
H18A H 0.0869 0.8655 0.3647
C20A C 0.17623(19) 0.8321(3) 0.3783(3)
C21A C 0.21729(19) 0.9402(3) 0.4291(3)
H19A H 0.1979 0.9989 0.4444
C22A C 0.28376(19) 0.9609(3) 0.4561(3)
H20A H 0.3106 1.0332 0.4905
C23A C 0.4139(3) 0.7238(6) 0.6895(4)
H21A H 0.4088 0.6522 0.6523
H22A H 0.3742 0.7808 0.6354
H23A H 0.4083 0.7029 0.7394
C24A C 0.5999(2) 0.9747(3) 0.8319(3)
H24A H 0.6535 0.9937 0.8952
H25A H 0.5723 0.9715 0.8544
H26A H 0.5773 1.0359 0.7760
Na1_2 Na 0.5000 0.1245(2) 0.5000
O2_2 O 0.46866(13) 1.2349(2) 0.36065(19)
O2A_2 O 0.53134(13) 1.2349(2) 0.63935(19)
O11 O 0.46531(18) 0.9534(3) 0.0400(3)
C25 C 0.4657(3) 1.0574(4) -0.0068(4)
H27 H 0.4675 1.1284 0.0290
H28 H 0.4182 1.0609 -0.0854
C26 C 0.4650(3) 0.8517(4) -0.0082(4)
H29 H 0.4180 0.8506 -0.0871
H30 H 0.4653 0.7798 0.0253
O11A O 0.53469(18) 0.9534(3) -0.0400(3)
C25A C 0.5343(3) 1.0574(4) 0.0068(4)
H27A H 0.5325 1.1284 -0.0290
H28A H 0.5818 1.0609 0.0854
C26A C 0.5350(3) 0.8517(4) 0.0082(4)
H29A H 0.5820 0.8506 0.0871
H30A H 0.5347 0.7798 -0.0253
loop_
_geom_bond_atom_site_label_1
_geom_bond_atom_site_label_2
_geom_bond_site_symmetry_1
_geom_bond_site_symmetry_2
Nd1 O1 1_555 1_555
Na1 O7 1_555 1_555
S1 N1 1_555 1_555
P1 N1 1_555 1_555
O1 S1 1_555 1_555
O2 S1 1_555 1_555
O3 Nd1 1_555 1_555
O4 P1 1_555 1_555
O5 P1 1_555 1_555
C1 O4 1_555 1_555
H1 C1 1_555 1_555
H2 C1 1_555 1_555
H3 C1 1_555 1_555
C2 O5 1_555 1_555
H4 C2 1_555 1_555
H5 C2 1_555 1_555
H6 C2 1_555 1_555
C3 S1 1_555 1_555
C4 C3 1_555 1_555
H7 C4 1_555 1_555
C5 C4 1_555 1_555
C6 C5 1_555 1_555
H8 C6 1_555 1_555
C7 C6 1_555 1_555
H9 C7 1_555 1_555
C8 C7 1_555 1_555
H10 C8 1_555 1_555
C9 C8 1_555 1_555
H11 C9 1_555 1_555
C10 C5 1_555 1_555
C11 C10 1_555 1_555
H12 C11 1_555 1_555
C12 C3 1_555 1_555
H13 C12 1_555 1_555
P2 O8 1_555 1_555
S2 O6 1_555 1_555
O6 Nd1 1_555 1_555
O7 S2 1_555 1_555
O8 Nd1 1_555 1_555
O9 P2 1_555 1_555
O10 P2 1_555 1_555
N2 P2 1_555 1_555
C13 S2 1_555 1_555
C14 C13 1_555 1_555
H14 C14 1_555 1_555
C15 C14 1_555 1_555
C16 C15 1_555 1_555
H15 C16 1_555 1_555
C17 C16 1_555 1_555
H16 C17 1_555 1_555
C18 C17 1_555 1_555
H17 C18 1_555 1_555
C19 C18 1_555 1_555
H18 C19 1_555 1_555
C20 C15 1_555 1_555
C21 C20 1_555 1_555
H19 C21 1_555 1_555
C22 C13 1_555 1_555
H20 C22 1_555 1_555
C23 O9 1_555 1_555
H21 C23 1_555 1_555
H22 C23 1_555 1_555
H23 C23 1_555 1_555
C24 O10 1_555 1_555
H24 C24 1_555 1_555
H25 C24 1_555 1_555
H26 C24 1_555 1_555
O11 C25 1_555 1_555
C25 H27 1_555 1_555
H28 C25 1_555 1_555
C26 O11 1_555 1_555
H29 C26 1_555 1_555
H30 C26 1_555 1_555
S1A N1A 1_555 1_555
P1A N1A 1_555 1_555
O1A Nd1 1_555 1_555
O2A S1A 1_555 1_555
O3A Nd1 1_555 1_555
O4A P1A 1_555 1_555
O5A P1A 1_555 1_555
C1A O4A 1_555 1_555
H1A C1A 1_555 1_555
H2A C1A 1_555 1_555
H3A C1A 1_555 1_555
C2A O5A 1_555 1_555
H4A C2A 1_555 1_555
H5A C2A 1_555 1_555
H6A C2A 1_555 1_555
C3A S1A 1_555 1_555
C4A C3A 1_555 1_555
H7A C4A 1_555 1_555
C5A C4A 1_555 1_555
C6A C5A 1_555 1_555
H8A C6A 1_555 1_555
C7A C6A 1_555 1_555
H9A C7A 1_555 1_555
C8A C7A 1_555 1_555
H10A C8A 1_555 1_555
C9A C8A 1_555 1_555
H11A C9A 1_555 1_555
C10A C5A 1_555 1_555
C11A C10A 1_555 1_555
H12A C11A 1_555 1_555
C12A C3A 1_555 1_555
H13A C12A 1_555 1_555
P2A O8A 1_555 1_555
S2A O6A 1_555 1_555
O6A Nd1 1_555 1_555
O7A Na1 1_555 1_555
O8A Nd1 1_555 1_555
O9A P2A 1_555 1_555
O10A P2A 1_555 1_555
N2A P2A 1_555 1_555
C13A S2A 1_555 1_555
C14A C13A 1_555 1_555
H14A C14A 1_555 1_555
C15A C14A 1_555 1_555
C16A C15A 1_555 1_555
H15A C16A 1_555 1_555
C17A C16A 1_555 1_555
H16A C17A 1_555 1_555
C18A C17A 1_555 1_555
H17A C18A 1_555 1_555
C19A C18A 1_555 1_555
H18A C19A 1_555 1_555
C20A C15A 1_555 1_555
C21A C20A 1_555 1_555
H19A C21A 1_555 1_555
C22A C13A 1_555 1_555
H20A C22A 1_555 1_555
C23A O9A 1_555 1_555
H21A C23A 1_555 1_555
H22A C23A 1_555 1_555
H23A C23A 1_555 1_555
C24A O10A 1_555 1_555
H24A C24A 1_555 1_555
H25A C24A 1_555 1_555
H26A C24A 1_555 1_555
Na1_2 O2 1_555 1_555
O2_2 Na1 1_555 1_555
O2A_2 Na1 1_555 1_555
O11A C25A 1_555 1_555
C25A C25 1_555 1_555
H27A C25A 1_555 1_555
H28A C25A 1_555 1_555
C26A C26 1_555 1_555
H29A C26A 1_555 1_555
H30A C26A 1_555 1_555
P1 O3 1_555 1_555
C9 C10 1_555 1_555
C11 C12 1_555 1_555
S2 N2 1_555 1_555
C19 C20 1_555 1_555
C21 C22 1_555 1_555
S1A O1A 1_555 1_555
P1A O3A 1_555 1_555
O2A Na1_2 1_555 1_555
C9A C10A 1_555 1_555
C11A C12A 1_555 1_555
S2A O7A 1_555 1_555
S2A N2A 1_555 1_555
C19A C20A 1_555 1_555
C21A C22A 1_555 1_555
O11A C26A 1_555 1_555

#END
