
#######################################################################
#
#                 Cambridge Crystallographic Data Centre
#                                CCDC 
#
#######################################################################
#
# If this CIF has been generated from an entry in the Cambridge 
# Structural Database, then it will include bibliographic, chemical, 
# crystal, experimental, refinement or atomic coordinate data resulting 
# from the CCDC's data processing and validation procedures.
#
#######################################################################

data_LUMCIH
_symmetry_cell_setting           monoclinic
_symmetry_space_group_name_H-M   'P 21'
_symmetry_Int_Tables_number      4
_space_group_name_Hall           'P 2yb'
loop_
_symmetry_equiv_pos_site_id
_symmetry_equiv_pos_as_xyz
1 x,y,z
2 -x,1/2+y,-z
_cell_length_a                   7.987
_cell_length_b                   16.403
_cell_length_c                   11.515
_cell_angle_alpha                90
_cell_angle_beta                 106.33
_cell_angle_gamma                90
_cell_volume                     1447.73
loop_
_atom_site_label
_atom_site_type_symbol
_atom_site_fract_x
_atom_site_fract_y
_atom_site_fract_z
C1 C 0.9632(6) 0.4943(3) 0.3612(4)
C2 C 1.0465(6) 0.4162(3) 0.3619(5)
H1 H 1.1198 0.3963 0.4340
C3 C 1.0205(6) 0.3716(3) 0.2608(5)
H2 H 1.0758 0.3214 0.2646
C4 C 0.9116(6) 0.3989(3) 0.1489(5)
C5 C 0.8835(7) 0.3495(4) 0.0432(5)
H3 H 0.9413 0.2999 0.0485
C6 C 0.7746(8) 0.3730(4) -0.0654(5)
H4 H 0.7582 0.3400 -0.1333
C7 C 0.6891(8) 0.4468(4) -0.0725(5)
H5 H 0.6140 0.4636 -0.1459
C8 C 0.7139(7) 0.4956(3) 0.0276(4)
H6 H 0.6557 0.5453 0.0192
C9 C 0.8239(6) 0.4740(3) 0.1432(4)
C10 C 0.8501(6) 0.5230(3) 0.2515(4)
C11 C 0.7558(6) 0.5982(3) 0.2426(5)
H7 H 0.6759 0.6088 0.1682
C12 C 0.6539(6) 0.7250(3) 0.2909(4)
H8 H 0.5476 0.7085 0.2291
C13 C 0.6025(6) 0.7544(3) 0.4021(5)
C14 C 0.7376(6) 0.7976(3) 0.2401(4)
H9 H 0.6439 0.8294 0.1858
C15 C 0.8622(7) 0.7710(3) 0.1706(5)
H10 H 0.8950 0.8173 0.1309
H11 H 0.8065 0.7312 0.1111
H12 H 0.9643 0.7476 0.2253
C16 C 0.5560(6) 0.9949(3) 0.6335(4)
C17 C 0.6321(6) 1.0729(3) 0.6281(4)
H13 H 0.6202 1.0971 0.5531
C18 C 0.7210(6) 1.1125(4) 0.7295(5)
H14 H 0.7663 1.1640 0.7228
C19 C 0.7471(6) 1.0774(3) 0.8463(4)
C20 C 0.8419(7) 1.1206(4) 0.9498(5)
H15 H 0.8887 1.1714 0.9409
C21 C 0.8657(8) 1.0893(4) 1.0620(6)
H16 H 0.9228 1.1193 1.1302
C22 C 0.8024(8) 1.0101(4) 1.0739(5)
H17 H 0.8243 0.9864 1.1500
C23 C 0.7088(7) 0.9684(4) 0.9737(4)
H18 H 0.6667 0.9168 0.9833
C24 C 0.6745(6) 1.0015(3) 0.8563(4)
C25 C 0.5720(6) 0.9586(3) 0.7478(4)
C26 C 0.4851(6) 0.8844(3) 0.7610(4)
H19 H 0.4772 0.8731 0.8385
C27 C 0.3323(6) 0.7608(3) 0.7141(4)
H20 H 0.2815 0.7766 0.7790
C28 C 0.1868(6) 0.7301(3) 0.6067(5)
C29 C 0.4612(6) 0.6899(3) 0.7594(4)
H21 H 0.3952 0.6442 0.7795
C30 C 0.6056(8) 0.7100(4) 0.8700(6)
H22 H 0.6800 0.6633 0.8936
H23 H 0.5573 0.7248 0.9345
H24 H 0.6723 0.7548 0.8528
N1 N 0.7678(4) 0.6528(2) 0.3247(4)
N2 N 0.4168(4) 0.8316(2) 0.6795(3)
O1 O 0.9960(4) 0.5351(2) 0.4636(3)
O2 O 0.6893(5) 0.7329(2) 0.5054(3)
O3 O 0.4743(4) 0.8031(2) 0.3799(3)
O4 O 0.8304(4) 0.8493(2) 0.3357(3)
H25 H 0.7693 0.8875 0.3373
O5 O 0.4713(4) 0.9614(2) 0.5305(3)
O6 O 0.1843(4) 0.7525(2) 0.5021(3)
O7 O 0.0788(4) 0.6818(2) 0.6309(3)
O8 O 0.5299(5) 0.6639(3) 0.6636(4)
H26 H 0.6544 0.6703 0.6895
O9 O 0.7626(5) 0.5697(3) 0.6060(4)
H27 H 0.679(6) 0.542(3) 0.558(5)
O10 O 0.1553(4) 0.9001(2) 0.3723(4)
H28 H 0.0776 0.8745 0.3697
H29 H 0.1132 0.9450 0.3821
Zn1 Zn 0.88619(7) 0.63742(3) 0.50194(5)
Zn2 Zn 0.36136(7) 0.84887(3) 0.49659(5)
H30 H 0.816(8) 0.574(5) 0.660(6)
O7_2 O 1.0788(4) 0.6818(2) 0.6309(3)
Zn1_2 Zn -0.11381(7) 0.63742(3) 0.50194(5)
O11 O 0.6821(5) -0.0095(2) 0.3656(3)
H31 H 0.6099 -0.0186 0.4057
H32 H 0.7765 0.0031 0.4183
loop_
_geom_bond_atom_site_label_1
_geom_bond_atom_site_label_2
_geom_bond_site_symmetry_1
_geom_bond_site_symmetry_2
C1 C2 1_555 1_555
C2 H1 1_555 1_555
C3 C2 1_555 1_555
H2 C3 1_555 1_555
C4 C3 1_555 1_555
C5 C4 1_555 1_555
H3 C5 1_555 1_555
C6 C5 1_555 1_555
H4 C6 1_555 1_555
C7 C6 1_555 1_555
H5 C7 1_555 1_555
C8 C7 1_555 1_555
H6 C8 1_555 1_555
C9 C4 1_555 1_555
C10 C1 1_555 1_555
C11 C10 1_555 1_555
H7 C11 1_555 1_555
C12 H8 1_555 1_555
C13 C12 1_555 1_555
C14 C12 1_555 1_555
H9 C14 1_555 1_555
C15 C14 1_555 1_555
H10 C15 1_555 1_555
H11 C15 1_555 1_555
H12 C15 1_555 1_555
C16 C17 1_555 1_555
C17 H13 1_555 1_555
C18 C17 1_555 1_555
H14 C18 1_555 1_555
C19 C18 1_555 1_555
C20 C19 1_555 1_555
H15 C20 1_555 1_555
C21 C20 1_555 1_555
H16 C21 1_555 1_555
C22 C21 1_555 1_555
H17 C22 1_555 1_555
C23 C22 1_555 1_555
H18 C23 1_555 1_555
C24 C19 1_555 1_555
C25 C16 1_555 1_555
C26 C25 1_555 1_555
H19 C26 1_555 1_555
C27 H20 1_555 1_555
C28 C27 1_555 1_555
C29 C27 1_555 1_555
H21 C29 1_555 1_555
C30 C29 1_555 1_555
H22 C30 1_555 1_555
H23 C30 1_555 1_555
H24 C30 1_555 1_555
N1 C11 1_555 1_555
N2 C26 1_555 1_555
O1 C1 1_555 1_555
O2 C13 1_555 1_555
O3 C13 1_555 1_555
O4 C14 1_555 1_555
H25 O4 1_555 1_555
O5 C16 1_555 1_555
O6 C28 1_555 1_555
O7 C28 1_555 1_555
O8 C29 1_555 1_555
H26 O8 1_555 1_555
O9 H27 1_555 1_555
O10 H28 1_555 1_555
H29 O10 1_555 1_555
Zn1 N1 1_555 1_555
Zn2 N2 1_555 1_555
H30 O9 1_555 1_555
O11 H31 1_555 1_555
H32 O11 1_555 1_555
O7_2 Zn1 1_555 1_555
Zn1_2 O7 1_555 1_555
C8 C9 1_555 1_555
C9 C10 1_555 1_555
C12 N1 1_555 1_555
C23 C24 1_555 1_555
C24 C25 1_555 1_555
C27 N2 1_555 1_555
O1 Zn1 1_555 1_555
O2 Zn1 1_555 1_555
O3 Zn2 1_555 1_555
O5 Zn2 1_555 1_555
O6 Zn2 1_555 1_555
O9 Zn1 1_555 1_555
O10 Zn2 1_555 1_555

#END
