
#######################################################################
#
#                 Cambridge Crystallographic Data Centre
#                                CCDC 
#
#######################################################################
#
# If this CIF has been generated from an entry in the Cambridge 
# Structural Database, then it will include bibliographic, chemical, 
# crystal, experimental, refinement or atomic coordinate data resulting 
# from the CCDC's data processing and validation procedures.
#
#######################################################################

data_LUMCED
_symmetry_cell_setting           monoclinic
_symmetry_space_group_name_H-M   'P 21'
_symmetry_Int_Tables_number      4
_space_group_name_Hall           'P 2yb'
loop_
_symmetry_equiv_pos_site_id
_symmetry_equiv_pos_as_xyz
1 x,y,z
2 -x,1/2+y,-z
_cell_length_a                   7.9838(6)
_cell_length_b                   16.3995(12)
_cell_length_c                   11.5133(9)
_cell_angle_alpha                90
_cell_angle_beta                 106.3570(10)
_cell_angle_gamma                90
_cell_volume                     1446.43
loop_
_atom_site_label
_atom_site_type_symbol
_atom_site_fract_x
_atom_site_fract_y
_atom_site_fract_z
Zn1 Zn 0.63846(5) 0.744808(19) 0.00339(3)
Zn2 Zn 0.11383(5) 0.956242(19) -0.00205(3)
O1 O 0.8161(4) 0.84072(16) -0.0031(3)
O2 O 0.9206(3) 0.91171(14) -0.1308(2)
O3 O 0.4678(5) 0.9301(2) -0.1636(3)
O4 O 0.5284(3) 0.63229(14) -0.0303(2)
O5 O 0.8444(3) 0.69373(16) 0.1282(3)
H1 H 0.9438 0.7173 0.1481
H2 H 0.8601 0.6464 0.1030
O6 O 0.0035(3) 1.05957(15) 0.0368(2)
O7 O 0.5252(3) 0.79028(14) 0.1207(2)
O8 O 0.3106(4) 0.86070(14) -0.0048(3)
O9 O 0.2352(3) 1.02487(15) -0.1054(3)
H3 H 0.2712 1.0040 -0.1563
H4 H 0.3321 1.0448 -0.0992
O10 O 0.1709(3) 0.74367(16) 0.1640(2)
N1 N 0.5834(3) 0.76212(15) -0.1790(3)
N2 N 0.2325(3) 0.94046(16) 0.1744(3)
C1 C 0.4439(4) 0.5988(2) -0.1342(3)
C2 C 0.3685(5) 0.5203(2) -0.1277(3)
H5 H 0.3814 0.4960 -0.0528
C3 C 0.2780(5) 0.4812(2) -0.2306(4)
H6 H 0.2310 0.4300 -0.2242
C4 C 0.1594(6) 0.4731(3) -0.4511(4)
H7 H 0.1145 0.4217 -0.4433
C5 C 0.1329(7) 0.5049(3) -0.5626(4)
H8 H 0.0716 0.4757 -0.6306
C6 C 0.1989(6) 0.5824(3) -0.5745(4)
H9 H 0.1805 0.6054 -0.6509
C7 C 0.2910(6) 0.6249(3) -0.4738(4)
H10 H 0.3317 0.6768 -0.4839
C8 C 0.4264(4) 0.63447(19) -0.2480(3)
C9 C 0.3259(4) 0.5928(2) -0.3560(3)
C10 C 0.2535(5) 0.5150(2) -0.3449(4)
C11 C 0.5136(4) 0.7093(2) -0.2616(3)
H11 H 0.5204 0.7210 -0.3392
C12 C 0.6678(4) 0.8331(2) -0.2147(3)
H12 H 0.7188 0.8173 -0.2795
C13 C 0.5374(5) 0.9040(2) -0.2601(3)
H13 H 0.6027 0.9499 -0.2804
C14 C 0.8129(4) 0.86335(19) -0.1062(3)
C15 C 0.3933(6) 0.8840(3) -0.3697(4)
H14 H 0.3177 0.9303 -0.3924
H15 H 0.3280 0.8386 -0.3528
H16 H 0.4412 0.8701 -0.4349
C16 C 0.0373(4) 1.0988(2) 0.1381(3)
C17 C -0.0454(5) 1.1766(2) 0.1384(4)
H17 H -0.1185 1.1963 0.0661
C18 C -0.0214(5) 1.2218(2) 0.2387(4)
H18 H -0.0783 1.2717 0.2338
C19 C 0.1167(5) 1.2447(3) 0.4564(4)
H19 H 0.0589 1.2944 0.4510
C20 C 0.2263(6) 1.2212(3) 0.5640(4)
H20 H 0.2453 1.2551 0.6312
C21 C 0.3098(6) 1.1463(3) 0.5734(4)
H21 H 0.3805 1.1289 0.6480
C22 C 0.2886(6) 1.0978(2) 0.4734(4)
H22 H 0.3503 1.0490 0.4811
C23 C 0.1502(4) 1.0706(2) 0.2493(3)
C24 C 0.0889(5) 1.1955(2) 0.3525(3)
C25 C 0.1758(5) 1.1193(2) 0.3585(3)
C26 C 0.2452(4) 0.9953(2) 0.2576(3)
H23 H 0.3257 0.9846 0.3318
C27 C 0.3468(4) 0.8685(2) 0.2092(3)
H24 H 0.4531 0.8851 0.2709
C28 C 0.2629(4) 0.7959(2) 0.2595(3)
H25 H 0.3565 0.7643 0.3144
C29 C 0.3974(4) 0.8384(2) 0.0983(3)
C30 C 0.1370(5) 0.8223(2) 0.3280(4)
H26 H 0.0892 0.7751 0.3563
H27 H 0.0443 0.8535 0.2756
H28 H 0.1972 0.8552 0.3959
Zn2_2 Zn 1.11383(5) 0.956242(19) -0.00205(3)
O2_2 O -0.0794(3) 0.91171(14) -0.1308(2)
O11 O 0.3172(4) 0.60341(16) 0.1332(3)
H29 H 0.3878 0.6018 0.0912
H30 H 0.2305 0.5876 0.0805
loop_
_geom_bond_atom_site_label_1
_geom_bond_atom_site_label_2
_geom_bond_site_symmetry_1
_geom_bond_site_symmetry_2
Zn1 O1 1_555 1_555
Zn2 O6 1_555 1_555
O1 C14 1_555 1_555
O2 C14 1_555 1_555
O3 C13 1_555 1_555
O4 Zn1 1_555 1_555
O5 Zn1 1_555 1_555
H1 O5 1_555 1_555
H2 O5 1_555 1_555
O6 C16 1_555 1_555
O7 Zn1 1_555 1_555
O8 Zn2 1_555 1_555
O9 Zn2 1_555 1_555
H3 O9 1_555 1_555
H4 O9 1_555 1_555
O10 C28 1_555 1_555
N1 Zn1 1_555 1_555
N2 Zn2 1_555 1_555
C1 O4 1_555 1_555
C2 C1 1_555 1_555
H5 C2 1_555 1_555
C3 C2 1_555 1_555
H6 C3 1_555 1_555
C4 H7 1_555 1_555
C5 C4 1_555 1_555
H8 C5 1_555 1_555
C6 C5 1_555 1_555
H9 C6 1_555 1_555
C7 C6 1_555 1_555
H10 C7 1_555 1_555
C8 C1 1_555 1_555
C9 C7 1_555 1_555
C10 C3 1_555 1_555
C11 N1 1_555 1_555
H11 C11 1_555 1_555
C12 N1 1_555 1_555
H12 C12 1_555 1_555
C13 C12 1_555 1_555
H13 C13 1_555 1_555
C14 C12 1_555 1_555
C15 C13 1_555 1_555
H14 C15 1_555 1_555
H15 C15 1_555 1_555
H16 C15 1_555 1_555
C16 C17 1_555 1_555
C17 H17 1_555 1_555
C18 C17 1_555 1_555
H18 C18 1_555 1_555
C19 H19 1_555 1_555
C20 C19 1_555 1_555
H20 C20 1_555 1_555
C21 C20 1_555 1_555
H21 C21 1_555 1_555
C22 C21 1_555 1_555
H22 C22 1_555 1_555
C23 C16 1_555 1_555
C24 C18 1_555 1_555
C25 C22 1_555 1_555
C26 N2 1_555 1_555
H23 C26 1_555 1_555
C27 N2 1_555 1_555
H24 C27 1_555 1_555
C28 C27 1_555 1_555
H25 C28 1_555 1_555
C29 O7 1_555 1_555
C30 C28 1_555 1_555
H26 C30 1_555 1_555
H27 C30 1_555 1_555
H28 C30 1_555 1_555
O11 H29 1_555 1_555
H30 O11 1_555 1_555
Zn2_2 O2 1_555 1_555
O2_2 Zn2 1_555 1_555
O8 C29 1_555 1_555
C4 C10 1_555 1_555
C8 C9 1_555 1_555
C8 C11 1_555 1_555
C9 C10 1_555 1_555
C19 C24 1_555 1_555
C23 C25 1_555 1_555
C23 C26 1_555 1_555
C24 C25 1_555 1_555
C27 C29 1_555 1_555

#END
