
#######################################################################
#
#                 Cambridge Crystallographic Data Centre
#                                CCDC 
#
#######################################################################
#
# If this CIF has been generated from an entry in the Cambridge 
# Structural Database, then it will include bibliographic, chemical, 
# crystal, experimental, refinement or atomic coordinate data resulting 
# from the CCDC's data processing and validation procedures.
#
#######################################################################

data_LUMFAB
_symmetry_cell_setting           monoclinic
_symmetry_space_group_name_H-M   'P 21/n'
_symmetry_Int_Tables_number      14
_space_group_name_Hall           '-P 2yn'
loop_
_symmetry_equiv_pos_site_id
_symmetry_equiv_pos_as_xyz
1 x,y,z
2 1/2-x,1/2+y,1/2-z
3 -x,-y,-z
4 1/2+x,1/2-y,1/2+z
_cell_length_a                   10.997(4)
_cell_length_b                   7.771(3)
_cell_length_c                   19.421(8)
_cell_angle_alpha                90
_cell_angle_beta                 91.39(2)
_cell_angle_gamma                90
_cell_volume                     1659.19
loop_
_atom_site_label
_atom_site_type_symbol
_atom_site_fract_x
_atom_site_fract_y
_atom_site_fract_z
Zr1 Zr 0.46303(3) 0.26741(4) 0.202617(15)
F1 F 0.37098(17) 0.4493(3) 0.25149(10)
F2 F 0.54479(19) 0.4404(3) 0.14239(10)
F3 F 0.39568(17) 0.0744(2) 0.25772(10)
F4 F 0.56862(18) 0.0902(3) 0.15603(10)
F5 F 0.59519(17) 0.2927(3) 0.27657(10)
F6 F 0.3283(2) 0.2422(3) 0.13253(12)
Cu1 Cu 1.0000 -0.5000 0.0000
Cu2 Cu 1.0000 0.0000 0.0000
N1 N 0.8422(2) -0.3107(4) 0.01501(14)
N2 N 0.8502(2) -0.1355(3) 0.02472(13)
C1 C 0.7467(3) -0.0814(4) 0.04971(16)
N3 N 0.6716(2) -0.2183(3) 0.05659(14)
C2 C 0.7327(3) -0.3570(4) 0.03336(16)
N4 N 0.5498(3) -0.2193(4) 0.07825(15)
N5 N 0.9544(2) -0.6274(3) 0.08591(13)
N6 N 0.9653(2) -0.8047(4) 0.09221(14)
C3 C 0.9301(3) -0.8424(4) 0.15443(16)
N7 N 0.8955(2) -0.6991(4) 0.18751(13)
C4 C 0.9125(3) -0.5668(4) 0.14365(15)
N8 N 0.8537(3) -0.6967(4) 0.25597(14)
N9 N 1.1080(2) -0.3350(3) 0.05960(13)
N10 N 1.1064(2) -0.1582(3) 0.05868(13)
C5 C 1.1905(3) -0.1033(4) 0.10328(16)
N11 N 1.2456(3) -0.2407(3) 0.13238(14)
C6 C 1.1933(3) -0.3827(4) 0.10447(15)
N12 N 1.3456(3) -0.2348(4) 0.17957(15)
H1 H 0.721(4) 0.033(6) 0.058(2)
H2 H 0.704(4) -0.472(6) 0.029(2)
H3 H 0.541(4) -0.120(6) 0.098(2)
H4 H 0.546(4) -0.290(6) 0.106(2)
H5 H 0.926(4) -0.947(6) 0.171(2)
H6 H 0.905(4) -0.454(6) 0.153(2)
H7 H 0.777(4) -0.692(6) 0.255(2)
H8 H 0.882(4) -0.604(6) 0.276(2)
H9 H 1.211(4) 0.018(5) 0.115(2)
H10 H 1.218(4) -0.495(5) 0.116(2)
H11 H 1.338(4) -0.147(6) 0.204(2)
H12 H 1.346(4) -0.339(6) 0.205(2)
Cu2_2 Cu 1.0000 -1.0000 0.0000
N1B N 1.1578(2) -0.6893(4) -0.01501(14)
N2B N 1.1498(2) -0.8645(3) -0.02472(13)
N2B_2 N 1.1498(2) 0.1355(3) -0.02472(13)
C1B C 1.2533(3) -0.9186(4) -0.04971(16)
N3B N 1.3284(2) -0.7817(3) -0.05659(14)
C2B C 1.2673(3) -0.6430(4) -0.03336(16)
N4B N 1.4502(3) -0.7807(4) -0.07825(15)
N5B N 1.0456(2) -0.3726(3) -0.08591(13)
N6B N 1.0347(2) -0.1953(4) -0.09221(14)
N6_2 N 0.9653(2) 0.1953(4) 0.09221(14)
C3B C 1.0699(3) -0.1576(4) -0.15443(16)
N7B N 1.1045(2) -0.3009(4) -0.18751(13)
C4B C 1.0875(3) -0.4332(4) -0.14365(15)
N8B N 1.1463(3) -0.3033(4) -0.25597(14)
N9B N 0.8920(2) -0.6650(3) -0.05960(13)
N10B N 0.8936(2) -0.8418(3) -0.05868(13)
N10B_2 N 0.8936(2) 0.1582(3) -0.05868(13)
C5B C 0.8095(3) -0.8967(4) -0.10328(16)
N11B N 0.7544(3) -0.7593(3) -0.13238(14)
C6B C 0.8067(3) -0.6173(4) -0.10447(15)
N12B N 0.6544(3) -0.7652(4) -0.17957(15)
H1B H 1.279(4) -1.033(6) -0.058(2)
H2B H 1.296(4) -0.528(6) -0.029(2)
H3B H 1.459(4) -0.880(6) -0.098(2)
H4B H 1.454(4) -0.710(6) -0.106(2)
H5B H 1.074(4) -0.053(6) -0.171(2)
H6B H 1.095(4) -0.546(6) -0.153(2)
H7B H 1.223(4) -0.308(6) -0.255(2)
H8B H 1.118(4) -0.396(6) -0.276(2)
H9B H 0.789(4) -1.018(5) -0.115(2)
H10B H 0.782(4) -0.505(5) -0.116(2)
H11B H 0.662(4) -0.853(6) -0.204(2)
H12B H 0.654(4) -0.661(6) -0.205(2)
O1 O 0.6337(2) -0.7256(3) 0.02448(14)
H13 H 0.583(4) -0.742(5) -0.012(3)
H14 H 0.591(4) -0.715(5) 0.065(3)
loop_
_geom_bond_atom_site_label_1
_geom_bond_atom_site_label_2
_geom_bond_site_symmetry_1
_geom_bond_site_symmetry_2
Zr1 F1 1_555 1_555
F2 Zr1 1_555 1_555
F3 Zr1 1_555 1_555
F4 Zr1 1_555 1_555
F5 Zr1 1_555 1_555
F6 Zr1 1_555 1_555
Cu1 N1 1_555 1_555
Cu2 N2 1_555 1_555
N1 N2 1_555 1_555
N2 C1 1_555 1_555
C1 N3 1_555 1_555
N3 C2 1_555 1_555
C2 N1 1_555 1_555
N4 N3 1_555 1_555
N5 Cu1 1_555 1_555
N6 N5 1_555 1_555
C3 N6 1_555 1_555
N7 C3 1_555 1_555
C4 N5 1_555 1_555
N8 N7 1_555 1_555
N9 Cu1 1_555 1_555
N10 Cu2 1_555 1_555
C5 N10 1_555 1_555
N11 C5 1_555 1_555
C6 N9 1_555 1_555
N12 N11 1_555 1_555
H1 C1 1_555 1_555
H2 C2 1_555 1_555
H3 N4 1_555 1_555
H4 N4 1_555 1_555
H5 C3 1_555 1_555
H6 C4 1_555 1_555
H7 N8 1_555 1_555
H8 N8 1_555 1_555
H9 C5 1_555 1_555
H10 C6 1_555 1_555
H11 N12 1_555 1_555
H12 N12 1_555 1_555
O1 H13 1_555 1_555
H14 O1 1_555 1_555
Cu2_2 N6 1_555 1_555
N1B Cu1 1_555 1_555
N2B Cu2_2 1_555 1_555
N2B_2 Cu2 1_555 1_555
C1B N2B 1_555 1_555
N3B C1B 1_555 1_555
C2B N1B 1_555 1_555
N4B N3B 1_555 1_555
N5B Cu1 1_555 1_555
N6B Cu2 1_555 1_555
N6_2 Cu2 1_555 1_555
C3B N6B 1_555 1_555
N7B C3B 1_555 1_555
C4B N5B 1_555 1_555
N8B N7B 1_555 1_555
N9B Cu1 1_555 1_555
N10B Cu2_2 1_555 1_555
N10B_2 Cu2 1_555 1_555
C5B N10B 1_555 1_555
N11B C5B 1_555 1_555
C6B N9B 1_555 1_555
N12B N11B 1_555 1_555
H1B C1B 1_555 1_555
H2B C2B 1_555 1_555
H3B N4B 1_555 1_555
H4B N4B 1_555 1_555
H5B C3B 1_555 1_555
H6B C4B 1_555 1_555
H7B N8B 1_555 1_555
H8B N8B 1_555 1_555
H9B C5B 1_555 1_555
H10B C6B 1_555 1_555
H11B N12B 1_555 1_555
H12B N12B 1_555 1_555
N7 C4 1_555 1_555
N9 N10 1_555 1_555
N11 C6 1_555 1_555
N1B N2B 1_555 1_555
N3B C2B 1_555 1_555
N5B N6B 1_555 1_555
N7B C4B 1_555 1_555
N9B N10B 1_555 1_555
N11B C6B 1_555 1_555

#END
