
#######################################################################
#
#                 Cambridge Crystallographic Data Centre
#                                CCDC 
#
#######################################################################
#
# If this CIF has been generated from an entry in the Cambridge 
# Structural Database, then it will include bibliographic, chemical, 
# crystal, experimental, refinement or atomic coordinate data resulting 
# from the CCDC's data processing and validation procedures.
#
#######################################################################

data_LUMFIJ
_symmetry_cell_setting           orthorhombic
_symmetry_space_group_name_H-M   'P b c a'
_symmetry_Int_Tables_number      61
_space_group_name_Hall           '-P 2ac 2ab'
loop_
_symmetry_equiv_pos_site_id
_symmetry_equiv_pos_as_xyz
1 x,y,z
2 1/2-x,-y,1/2+z
3 1/2+x,1/2-y,-z
4 -x,1/2+y,1/2-z
5 -x,-y,-z
6 1/2+x,y,1/2-z
7 1/2-x,1/2+y,z
8 x,1/2-y,1/2+z
_cell_length_a                   16.1953(5)
_cell_length_b                   14.2737(4)
_cell_length_c                   35.0115(9)
_cell_angle_alpha                90
_cell_angle_beta                 90
_cell_angle_gamma                90
_cell_volume                     8093.5
loop_
_atom_site_label
_atom_site_type_symbol
_atom_site_fract_x
_atom_site_fract_y
_atom_site_fract_z
Fe1 Fe 0.716496(15) -0.153043(16) 0.177524(6)
Fe2 Fe 0.717540(15) -0.187670(16) 0.335290(6)
K1 K 0.62834(3) 0.12300(3) 0.212802(11)
K2 K 0.62635(2) -0.46515(3) 0.298240(11)
O1 O 0.70030(8) -0.24999(9) 0.22187(3)
O2 O 0.67776(9) -0.40279(9) 0.22941(4)
O3 O 0.63290(8) -0.06066(8) 0.19374(4)
O4 O 0.51781(9) -0.03764(9) 0.22704(4)
O5 O 0.77904(8) -0.03952(9) 0.15451(3)
O6 O 0.78117(10) 0.06750(9) 0.10827(4)
O7 O 0.80269(8) -0.24810(9) 0.16314(3)
O8 O 0.89278(9) -0.29727(11) 0.11978(4)
O9 O 0.77790(8) -0.30272(8) 0.35813(3)
O10 O 0.77917(9) -0.40984(9) 0.40465(4)
O11 O 0.80578(8) -0.09596(9) 0.35140(4)
O12 O 0.88898(9) -0.04599(11) 0.39791(4)
O13 O 0.70549(8) -0.08775(8) 0.29151(3)
O14 O 0.67864(9) 0.06359(8) 0.28233(4)
O15 O 0.63249(8) -0.27969(8) 0.31879(4)
O16 O 0.52084(8) -0.30099(9) 0.28289(4)
N1 N 0.59126(9) -0.22791(9) 0.16793(4)
N2 N 0.70308(8) -0.16351(9) 0.11305(4)
N3 N 0.69922(8) -0.17980(9) 0.39904(4)
N4 N 0.59158(9) -0.11156(9) 0.34287(4)
C1 C 0.60801(11) -0.32602(11) 0.17862(5)
H1 H 0.6337 -0.3593 0.1569
H2 H 0.5556 -0.3581 0.1850
C2 C 0.66550(11) -0.32843(12) 0.21284(5)
C3 C 0.53361(11) -0.18394(12) 0.19545(5)
H3 H 0.5301 -0.2232 0.2187
H4 H 0.4778 -0.1806 0.1840
C4 C 0.56144(11) -0.08645(12) 0.20636(5)
C5 C 0.56152(10) -0.21532(12) 0.12786(4)
H5 H 0.5402 -0.1499 0.1254
C6 C 0.49182(11) -0.28220(13) 0.11663(5)
H6 H 0.5099 -0.3476 0.1211
H7 H 0.4431 -0.2701 0.1330
C7 C 0.46729(11) -0.27061(14) 0.07473(5)
H8 H 0.4249 -0.3178 0.0681
H9 H 0.4428 -0.2077 0.0709
C8 C 0.54097(12) -0.28207(14) 0.04840(5)
H10 H 0.5236 -0.2719 0.0216
H11 H 0.5630 -0.3465 0.0506
C9 C 0.60797(11) -0.21182(13) 0.05900(5)
H12 H 0.5869 -0.1473 0.0555
H13 H 0.6563 -0.2203 0.0420
C10 C 0.63414(10) -0.22589(11) 0.10064(4)
H14 H 0.6543 -0.2919 0.1030
C11 C 0.69232(11) -0.06461(12) 0.10091(5)
H15 H 0.6358 -0.0429 0.1070
H16 H 0.7011 -0.0588 0.0730
C12 C 0.75553(12) -0.00621(12) 0.12240(5)
C13 C 0.78269(11) -0.20016(12) 0.09865(5)
H17 H 0.8169 -0.1472 0.0895
H18 H 0.7721 -0.2421 0.0767
C14 C 0.83004(11) -0.25358(12) 0.12894(5)
C15 C 0.68823(11) -0.27901(11) 0.41064(5)
H19 H 0.6323 -0.3011 0.4036
H20 H 0.6948 -0.2853 0.4386
C16 C 0.75348(11) -0.33683(12) 0.39012(5)
C17 C 0.77730(11) -0.14268(12) 0.41546(5)
H21 H 0.8104 -0.1955 0.4256
H22 H 0.7640 -0.1006 0.4371
C18 C 0.82825(11) -0.08946(12) 0.38649(5)
C19 C 0.62952(10) -0.11746(11) 0.41052(4)
H23 H 0.6500 -0.0515 0.4091
C20 C 0.59983(11) -0.13427(12) 0.45138(5)
H24 H 0.5776 -0.1986 0.4537
H25 H 0.6468 -0.1279 0.4693
C21 C 0.53294(12) -0.06347(13) 0.46155(5)
H26 H 0.5140 -0.0742 0.4881
H27 H 0.5557 0.0008 0.4599
C22 C 0.46063(11) -0.07332(13) 0.43427(5)
H28 H 0.4178 -0.0265 0.4408
H29 H 0.4361 -0.1365 0.4370
C23 C 0.48874(11) -0.05874(12) 0.39297(5)
H30 H 0.5080 0.0066 0.3897
H31 H 0.4413 -0.0687 0.3756
C24 C 0.55873(10) -0.12638(11) 0.38218(4)
H32 H 0.5368 -0.1917 0.3838
C25 C 0.60951(11) -0.01310(11) 0.33317(5)
H33 H 0.6348 0.0189 0.3554
H34 H 0.5577 0.0199 0.3266
C26 C 0.66813(10) -0.01036(12) 0.29954(5)
C27 C 0.53609(10) -0.15406(12) 0.31414(5)
H35 H 0.5362 -0.1151 0.2907
H36 H 0.4790 -0.1555 0.3243
C28 C 0.56307(11) -0.25270(12) 0.30425(5)
O17 O 0.79063(8) -0.09780(8) 0.22287(3)
H37 H 0.7620 -0.0927 0.2448
H38 H 0.8052 -0.0386 0.2171
O18 O 0.79045(8) -0.24348(8) 0.28964(3)
H39 H 0.7628 -0.2469 0.2674
H40 H 0.8055 -0.3030 0.2946
O22 O 0.4978(3) -0.4479(3) 0.35470(7)
H47 H 0.5291 -0.4703 0.3739
H48 H 0.4710 -0.3987 0.3650
K1F K 0.87166(3) -0.37700(3) 0.212802(11)
K1C K 0.37166(3) -0.37700(3) 0.287198(11)
K2C K 0.37365(2) 0.03485(3) 0.201760(11)
K2F K 0.87365(2) 0.03485(3) 0.298240(11)
O4C O 0.48219(9) -0.53764(9) 0.27296(4)
O7F O 0.69731(8) 0.25190(9) 0.16314(3)
O11F O 0.69422(8) -0.59596(9) 0.35140(4)
O16C O 0.47916(8) 0.19901(9) 0.21711(4)
O19 O 0.68601(13) 0.22792(12) 0.00163(5)
H41 H 0.6925 0.2905 0.0007
H42 H 0.6349 0.2198 0.0111
O20 O 0.54746(14) 0.18302(13) 0.04443(5)
H43 H 0.5260 0.1260 0.0399
H44 H 0.5699 0.1782 0.0679
O21 O 0.77474(11) 0.07493(11) 0.02794(4)
H45 H 0.7413 0.1224 0.0211
H46 H 0.7746 0.0762 0.0536
O23 O 0.7542(3) -0.0864(2) -0.01389(8)
H49 H 0.7620 -0.0820 -0.0374
H50 H 0.7541 -0.0351 -0.0017
O24 O 0.0744(2) 0.5449(2) 0.03153(9)
H51 H 0.0572 0.4950 0.0453
O25? O 0.0039(4) 0.5040(4) 0.03870(15)
O26? O 0.4770(19) 0.083(2) 0.1410(6)
O27? O 0.8011(6) -0.0892(5) -0.0157(2)
loop_
_geom_bond_atom_site_label_1
_geom_bond_atom_site_label_2
_geom_bond_site_symmetry_1
_geom_bond_site_symmetry_2
Fe1 O1 1_555 1_555
Fe2 O9 1_555 1_555
K1 O3 1_555 1_555
K2 O2 1_555 1_555
O1 C2 1_555 1_555
O2 C2 1_555 1_555
O3 Fe1 1_555 1_555
O4 K1 1_555 1_555
O5 Fe1 1_555 1_555
O6 C12 1_555 1_555
O7 Fe1 1_555 1_555
O8 C14 1_555 1_555
O9 C16 1_555 1_555
O10 C16 1_555 1_555
O11 Fe2 1_555 1_555
O12 C18 1_555 1_555
O13 Fe2 1_555 1_555
O14 K1 1_555 1_555
O15 Fe2 1_555 1_555
O16 K2 1_555 1_555
N1 Fe1 1_555 1_555
N2 Fe1 1_555 1_555
N3 Fe2 1_555 1_555
N4 Fe2 1_555 1_555
C1 N1 1_555 1_555
H1 C1 1_555 1_555
H2 C1 1_555 1_555
C2 C1 1_555 1_555
C3 N1 1_555 1_555
H3 C3 1_555 1_555
H4 C3 1_555 1_555
C4 O3 1_555 1_555
C5 N1 1_555 1_555
H5 C5 1_555 1_555
C6 C5 1_555 1_555
H6 C6 1_555 1_555
H7 C6 1_555 1_555
C7 C6 1_555 1_555
H8 C7 1_555 1_555
H9 C7 1_555 1_555
C8 C7 1_555 1_555
H10 C8 1_555 1_555
H11 C8 1_555 1_555
C9 C8 1_555 1_555
H12 C9 1_555 1_555
H13 C9 1_555 1_555
C10 N2 1_555 1_555
H14 C10 1_555 1_555
C11 N2 1_555 1_555
H15 C11 1_555 1_555
H16 C11 1_555 1_555
C12 O5 1_555 1_555
C13 N2 1_555 1_555
H17 C13 1_555 1_555
H18 C13 1_555 1_555
C14 O7 1_555 1_555
C15 N3 1_555 1_555
H19 C15 1_555 1_555
H20 C15 1_555 1_555
C16 C15 1_555 1_555
C17 N3 1_555 1_555
H21 C17 1_555 1_555
H22 C17 1_555 1_555
C18 O11 1_555 1_555
C19 N3 1_555 1_555
H23 C19 1_555 1_555
C20 C19 1_555 1_555
H24 C20 1_555 1_555
H25 C20 1_555 1_555
C21 C20 1_555 1_555
H26 C21 1_555 1_555
H27 C21 1_555 1_555
C22 C21 1_555 1_555
H28 C22 1_555 1_555
H29 C22 1_555 1_555
C23 C22 1_555 1_555
H30 C23 1_555 1_555
H31 C23 1_555 1_555
C24 N4 1_555 1_555
H32 C24 1_555 1_555
C25 N4 1_555 1_555
H33 C25 1_555 1_555
H34 C25 1_555 1_555
C26 O13 1_555 1_555
C27 N4 1_555 1_555
H35 C27 1_555 1_555
H36 C27 1_555 1_555
C28 O15 1_555 1_555
O17 Fe1 1_555 1_555
H37 O17 1_555 1_555
H38 O17 1_555 1_555
O18 Fe2 1_555 1_555
H39 O18 1_555 1_555
H40 O18 1_555 1_555
O19 H41 1_555 1_555
H42 O19 1_555 1_555
O20 H43 1_555 1_555
H44 O20 1_555 1_555
O21 H45 1_555 1_555
H46 O21 1_555 1_555
O22 K2 1_555 1_555
H47 O22 1_555 1_555
H48 O22 1_555 1_555
O23 H49 1_555 1_555
H50 O23 1_555 1_555
O24 H51 1_555 1_555
K1F O7 1_555 1_555
K1C O16 1_555 1_555
K2C O4 1_555 1_555
K2F O11 1_555 1_555
O4C K2 1_555 1_555
O7F K1 1_555 1_555
O11F K2 1_555 1_555
O16C K1 1_555 1_555
K2 O15 1_555 1_555
O4 C4 1_555 1_555
O14 C26 1_555 1_555
O16 C28 1_555 1_555
C3 C4 1_555 1_555
C5 C10 1_555 1_555
C9 C10 1_555 1_555
C11 C12 1_555 1_555
C13 C14 1_555 1_555
C17 C18 1_555 1_555
C19 C24 1_555 1_555
C23 C24 1_555 1_555
C25 C26 1_555 1_555
C27 C28 1_555 1_555
K1C O4C 1_555 1_555
K2C O16C 1_555 1_555

#END
