
#######################################################################
#
#                 Cambridge Crystallographic Data Centre
#                                CCDC 
#
#######################################################################
#
# If this CIF has been generated from an entry in the Cambridge 
# Structural Database, then it will include bibliographic, chemical, 
# crystal, experimental, refinement or atomic coordinate data resulting 
# from the CCDC's data processing and validation procedures.
#
#######################################################################

data_LUMJIM
_symmetry_cell_setting           monoclinic
_symmetry_space_group_name_H-M   'C 2/m'
_symmetry_Int_Tables_number      12
_space_group_name_Hall           '-C 2y'
loop_
_symmetry_equiv_pos_site_id
_symmetry_equiv_pos_as_xyz
1 x,y,z
2 1/2+x,1/2+y,z
3 x,-y,z
4 1/2+x,1/2-y,z
5 -x,-y,-z
6 1/2-x,1/2-y,-z
7 -x,y,-z
8 1/2-x,1/2+y,-z
_cell_length_a                   7.7025(7)
_cell_length_b                   15.7726(14)
_cell_length_c                   8.2876(8)
_cell_angle_alpha                90
_cell_angle_beta                 114.3020(10)
_cell_angle_gamma                90
_cell_volume                     917.63
loop_
_atom_site_label
_atom_site_type_symbol
_atom_site_fract_x
_atom_site_fract_y
_atom_site_fract_z
I1 I 0.24207(4) 0.31069(2) 0.24654(4)
Cu1 Cu 0.13683(10) 0.31152(4) -0.09809(9)
N1 N 0.2227(6) 0.4241(3) -0.1719(6)
C1 C 0.3070(7) 0.4243(3) -0.2847(7)
H1 H 0.3324 0.3716 -0.3264
C2 C 0.3594(10) 0.5000 -0.3439(11)
C3 C 0.1889(11) 0.5000 -0.1155(11)
H2 H 0.1372 0.5000 -0.0294
C4 C 0.4566(11) 0.5000 -0.4549(10)
C1B C 0.3070(7) 0.5757(3) -0.2847(7)
N1B N 0.2227(6) 0.5759(3) -0.1719(6)
H1B H 0.3324 0.6284 -0.3264
C4D C 0.5434(11) 0.5000 -0.5451(10)
C2D C 0.6406(10) 0.5000 -0.6561(11)
C1D C 0.6930(7) 0.5757(3) -0.7153(7)
N1D N 0.7773(6) 0.5759(3) -0.8281(6)
C3D C 0.8111(11) 0.5000 -0.8845(11)
N1F N 0.7773(6) 0.4241(3) -0.8281(6)
C1F C 0.6930(7) 0.4243(3) -0.7153(7)
H1F H 0.6676 0.3716 -0.6736
H2D H 0.8628 0.5000 -0.9706
H1D H 0.6676 0.6284 -0.6736
I1E I 0.25793(4) 0.18931(2) -0.24654(4)
I1F I -0.24207(4) 0.31069(2) -0.24654(4)
Cu1E Cu 0.36317(10) 0.18848(4) 0.09809(9)
Cu1F Cu -0.13683(10) 0.31152(4) 0.09809(9)
Cu1C Cu -0.36317(10) 0.18848(4) -0.09809(9)
I1C I 0.74207(4) 0.18931(2) 0.24654(4)
Cu1B Cu 0.13683(10) 0.68848(4) -0.09809(9)
Cu1D Cu 0.86317(10) 0.68848(4) -0.90191(9)
Cu1F_2 Cu 0.86317(10) 0.31152(4) -0.90191(9)
Cu1C_2 Cu 0.63683(10) 0.18848(4) -0.09809(9)
N1E N 0.2773(6) 0.0759(3) 0.1719(6)
I1C_2 I -0.25793(4) 0.18931(2) 0.24654(4)
N1F_2 N -0.2227(6) 0.4241(3) 0.1719(6)
I1E_2 I -0.74207(4) 0.18931(2) -0.24654(4)
N1C N -0.2773(6) 0.0759(3) -0.1719(6)
Cu1F_3 Cu 0.86317(10) 0.31152(4) 0.09809(9)
loop_
_geom_bond_atom_site_label_1
_geom_bond_atom_site_label_2
_geom_bond_site_symmetry_1
_geom_bond_site_symmetry_2
I1 Cu1 1_555 1_555
Cu1 N1 1_555 1_555
N1 C1 1_555 1_555
C1 H1 1_555 1_555
C2 C1 1_555 1_555
C3 N1 1_555 1_555
H2 C3 1_555 1_555
C4 C2 1_555 1_555
C1B C2 1_555 1_555
N1B C3 1_555 1_555
H1B C1B 1_555 1_555
C4D C4 1_555 1_555
C2D C4D 1_555 1_555
C1D C2D 1_555 1_555
N1D C1D 1_555 1_555
C3D N1D 1_555 1_555
N1F C3D 1_555 1_555
C1F C2D 1_555 1_555
H1F C1F 1_555 1_555
H2D C3D 1_555 1_555
H1D C1D 1_555 1_555
I1E Cu1 1_555 1_555
I1F Cu1 1_555 1_555
Cu1E I1 1_555 1_555
Cu1F I1 1_555 1_555
Cu1C I1F 1_555 1_555
I1C Cu1E 1_555 1_555
Cu1B N1B 1_555 1_555
Cu1D N1D 1_555 1_555
Cu1F_2 N1F 1_555 1_555
Cu1C_2 I1E 1_555 1_555
N1E Cu1E 1_555 1_555
I1C_2 Cu1F 1_555 1_555
N1F_2 Cu1F 1_555 1_555
I1E_2 Cu1C 1_555 1_555
N1C Cu1C 1_555 1_555
Cu1F_3 I1C 1_555 1_555
C1B N1B 1_555 1_555
N1F C1F 1_555 1_555
I1E Cu1E 1_555 1_555
I1F Cu1F 1_555 1_555
Cu1C I1C_2 1_555 1_555
I1C Cu1C_2 1_555 1_555

#END
