
#######################################################################
#
#                 Cambridge Crystallographic Data Centre
#                                CCDC 
#
#######################################################################
#
# If this CIF has been generated from an entry in the Cambridge 
# Structural Database, then it will include bibliographic, chemical, 
# crystal, experimental, refinement or atomic coordinate data resulting 
# from the CCDC's data processing and validation procedures.
#
#######################################################################

data_LUMJEI
_symmetry_cell_setting           monoclinic
_symmetry_space_group_name_H-M   'P 21/c'
_symmetry_Int_Tables_number      14
_space_group_name_Hall           '-P 2ybc'
loop_
_symmetry_equiv_pos_site_id
_symmetry_equiv_pos_as_xyz
1 x,y,z
2 x,1/2-y,1/2+z
3 -x,-y,-z
4 -x,1/2+y,1/2-z
_cell_length_a                   9.5141(5)
_cell_length_b                   12.7091(7)
_cell_length_c                   16.5108(9)
_cell_angle_alpha                90
_cell_angle_beta                 96.4570(10)
_cell_angle_gamma                90
_cell_volume                     1983.75
loop_
_atom_site_label
_atom_site_type_symbol
_atom_site_fract_x
_atom_site_fract_y
_atom_site_fract_z
Br1 Br 0.84645(4) 0.39265(3) 0.16063(2)
Br2 Br 0.52080(4) 0.32110(3) 0.27700(3)
Br3 Br 0.94577(4) 0.24478(3) 0.38586(2)
Cu1 Cu 0.60051(6) 0.46730(4) 0.20447(3)
Cu2 Cu 1.03537(5) 0.32595(4) 0.26441(3)
Cu3 Cu 0.76157(5) 0.25803(4) 0.27348(3)
N1 N 0.7164(3) 0.5641(2) 0.28841(18)
N2 N 0.8836(3) 0.7039(2) 0.29718(18)
N3 N 1.1666(3) 0.4447(2) 0.30739(17)
N4 N 1.2595(3) 0.6147(2) 0.28503(17)
N5 N 0.5092(4) 0.5496(3) 0.1165(2)
C1 C 0.7715(4) 0.6519(3) 0.2616(2)
H1 H 0.7265 0.6804 0.2122
C2 C 0.7806(4) 0.5239(3) 0.3573(2)
H2 H 0.7435 0.4615 0.3784
C3 C 0.8985(4) 0.5693(3) 0.3995(2)
C4 C 0.9475(4) 0.6619(3) 0.3665(2)
H3 H 1.0281 0.6960 0.3939
C5 C 0.9713(4) 0.5215(3) 0.4705(2)
C6 C 1.1713(4) 0.5349(3) 0.2660(2)
H4 H 1.1056 0.5427 0.2186
C7 C 1.2584(4) 0.4343(3) 0.3756(2)
H5 H 1.2560 0.3724 0.4076
C8 C 1.3568(4) 0.5131(3) 0.3998(2)
C9 C 1.3549(4) 0.6030(3) 0.3517(2)
H6 H 1.4219 0.6572 0.3660
C10 C 1.4577(4) 0.5026(3) 0.4712(2)
C11 C 0.4573(4) 0.6118(4) 0.0737(2)
C12 C 0.3863(4) 0.6923(4) 0.0193(2)
H7 H 0.2908 0.7046 0.0341
H8 H 0.3804 0.6678 -0.0373
H9 H 0.4405 0.7580 0.0249
C5B C 1.0287(4) 0.4785(3) 0.5295(2)
C3B C 1.1015(4) 0.4307(3) 0.6005(2)
C2B C 1.2194(4) 0.4761(3) 0.6427(2)
N1B N 1.2836(3) 0.4359(2) 0.71159(18)
C1B C 1.2285(4) 0.3481(3) 0.7384(2)
N2B N 1.1164(3) 0.2961(2) 0.70282(18)
C4B C 1.0525(4) 0.3381(3) 0.6335(2)
H3B H 0.9719 0.3040 0.6061
H1B H 1.2735 0.3196 0.7878
H2B H 1.2565 0.5385 0.6216
C10B C 1.5423(4) 0.4974(3) 0.5288(2)
C8B C 1.6432(4) 0.4869(3) 0.6002(2)
C7B C 1.7416(4) 0.5657(3) 0.6244(2)
N3B N 1.8334(3) 0.5553(2) 0.69261(17)
C6B C 1.8287(4) 0.4651(3) 0.7340(2)
N4B N 1.7405(3) 0.3853(2) 0.71497(17)
C9B C 1.6451(4) 0.3970(3) 0.6483(2)
H6B H 1.5781 0.3428 0.6340
H4B H 1.8944 0.4573 0.7814
H5B H 1.7440 0.6276 0.5924
Cu1B Cu 1.39949(6) 0.53270(4) 0.79553(3)
Cu2C Cu 0.96463(5) 0.82595(4) 0.23559(3)
Br1B Br 1.15355(4) 0.60735(3) 0.83937(2)
Br2B Br 1.47920(4) 0.67890(3) 0.72300(3)
N5B N 1.4908(4) 0.4504(3) 0.8835(2)
C11B C 1.5427(4) 0.3882(4) 0.9263(2)
C12B C 1.6137(4) 0.3077(4) 0.9807(2)
H7B H 1.7092 0.2954 0.9659
H8B H 1.6196 0.3322 1.0373
H9B H 1.5595 0.2420 0.9751
Br3C Br 1.05423(4) 0.74478(3) 0.11414(2)
Cu3B Cu 1.23843(5) 0.74197(4) 0.72652(3)
N2C N 1.1164(3) 0.2039(2) 0.20282(18)
N4C N 0.7405(3) 0.1147(2) 0.21497(17)
Cu3C Cu 1.23843(5) 0.75803(4) 0.22652(3)
Cu2A Cu 1.03537(5) 0.17405(4) 0.76441(3)
Cu2B Cu 1.96463(5) 0.67405(4) 0.73559(3)
Cu3A Cu 1.76157(5) 0.24197(4) 0.77348(3)
Br1C Br 1.15355(4) 0.89265(3) 0.33937(2)
N3C N 0.8334(3) 0.9447(2) 0.19261(17)
Cu2B_2 Cu 0.96463(5) 0.67405(4) 0.73559(3)
Br3B Br 1.05423(4) 0.75522(3) 0.61414(2)
N4A N 1.2595(3) 0.8853(2) 0.78503(17)
N6 N 0.6831(5) 0.7527(4) 0.4619(3)
C13 C 0.7458(5) 0.8280(5) 0.4614(3)
C14 C 0.8291(5) 0.9233(4) 0.4618(3)
H10 H 0.8356 0.9556 0.5160
H11 H 0.7839 0.9726 0.4213
H12 H 0.9243 0.9063 0.4485
loop_
_geom_bond_atom_site_label_1
_geom_bond_atom_site_label_2
_geom_bond_site_symmetry_1
_geom_bond_site_symmetry_2
Br1 Cu1 1_555 1_555
Br2 Cu1 1_555 1_555
Br3 Cu2 1_555 1_555
Cu1 N1 1_555 1_555
Cu2 Br1 1_555 1_555
Cu3 Br1 1_555 1_555
N1 C1 1_555 1_555
N2 C1 1_555 1_555
N3 Cu2 1_555 1_555
N4 C6 1_555 1_555
N5 Cu1 1_555 1_555
N6 C13 1_555 1_555
C1 H1 1_555 1_555
C2 N1 1_555 1_555
H2 C2 1_555 1_555
C3 C2 1_555 1_555
C4 N2 1_555 1_555
H3 C4 1_555 1_555
C5 C3 1_555 1_555
C6 N3 1_555 1_555
H4 C6 1_555 1_555
C7 N3 1_555 1_555
H5 C7 1_555 1_555
C8 C7 1_555 1_555
C9 N4 1_555 1_555
H6 C9 1_555 1_555
C10 C8 1_555 1_555
C11 N5 1_555 1_555
C12 C11 1_555 1_555
H7 C12 1_555 1_555
H8 C12 1_555 1_555
H9 C12 1_555 1_555
C13 C14 1_555 1_555
C14 H10 1_555 1_555
H11 C14 1_555 1_555
H12 C14 1_555 1_555
C5B C5 1_555 1_555
C3B C5B 1_555 1_555
C2B C3B 1_555 1_555
N1B C2B 1_555 1_555
C1B N1B 1_555 1_555
N2B C1B 1_555 1_555
C4B C3B 1_555 1_555
H3B C4B 1_555 1_555
H1B C1B 1_555 1_555
H2B C2B 1_555 1_555
C10B C10 1_555 1_555
C8B C10B 1_555 1_555
C7B C8B 1_555 1_555
N3B C7B 1_555 1_555
C6B N3B 1_555 1_555
N4B C6B 1_555 1_555
C9B C8B 1_555 1_555
H6B C9B 1_555 1_555
H4B C6B 1_555 1_555
H5B C7B 1_555 1_555
Cu1B N1B 1_555 1_555
Cu2C N2 1_555 1_555
Br1B Cu1B 1_555 1_555
Br2B Cu1B 1_555 1_555
N5B Cu1B 1_555 1_555
C11B N5B 1_555 1_555
C12B C11B 1_555 1_555
H7B C12B 1_555 1_555
H8B C12B 1_555 1_555
H9B C12B 1_555 1_555
Br3C Cu2C 1_555 1_555
Cu3B Br1B 1_555 1_555
N2C Cu2 1_555 1_555
N4C Cu3 1_555 1_555
Cu3C N4 1_555 1_555
Cu2A N2B 1_555 1_555
Cu2B N3B 1_555 1_555
Cu3A N4B 1_555 1_555
Br1C Cu2C 1_555 1_555
N3C Cu2C 1_555 1_555
Cu2B_2 Br1B 1_555 1_555
Br3B Cu3B 1_555 1_555
N4A Cu3B 1_555 1_555
Br2 Cu3 1_555 1_555
Br3 Cu3 1_555 1_555
C3 C4 1_555 1_555
C8 C9 1_555 1_555
N2B C4B 1_555 1_555
N4B C9B 1_555 1_555
Br2B Cu3B 1_555 1_555
Br3C Cu3C 1_555 1_555
Cu3C Br1C 1_555 1_555
Cu2B_2 Br3B 1_555 1_555

#END
