
#######################################################################
#
#                 Cambridge Crystallographic Data Centre
#                                CCDC 
#
#######################################################################
#
# If this CIF has been generated from an entry in the Cambridge 
# Structural Database, then it will include bibliographic, chemical, 
# crystal, experimental, refinement or atomic coordinate data resulting 
# from the CCDC's data processing and validation procedures.
#
#######################################################################

data_LUMLIQ
_symmetry_cell_setting           monoclinic
_symmetry_space_group_name_H-M   'P 21/c'
_symmetry_Int_Tables_number      14
_space_group_name_Hall           '-P 2ybc'
loop_
_symmetry_equiv_pos_site_id
_symmetry_equiv_pos_as_xyz
1 x,y,z
2 -x,1/2+y,1/2-z
3 -x,-y,-z
4 x,1/2-y,1/2+z
_cell_length_a                   10.6186(4)
_cell_length_b                   15.7795(7)
_cell_length_c                   14.1620(6)
_cell_angle_alpha                90
_cell_angle_beta                 130.430(2)
_cell_angle_gamma                90
_cell_volume                     1806.27
loop_
_atom_site_label
_atom_site_type_symbol
_atom_site_fract_x
_atom_site_fract_y
_atom_site_fract_z
C1 C -0.0059(11) 0.4445(6) 0.3841(9)
H1 H -0.0086 0.4219 0.4434
C2 C 0.0859(9) 0.4897(6) 0.2962(7)
C3 C -0.0862(9) 0.4943(6) 0.2120(7)
C4 C 0.2157(10) 0.5115(6) 0.2903(7)
C5 C -0.2158(10) 0.5241(6) 0.0816(8)
C6 C 0.4806(12) 0.2463(6) 0.5835(8)
H2 H 0.4520 0.2417 0.5062
C7 C 0.5240(11) 0.2988(5) 0.7418(8)
C8 C 0.5593(12) 0.2126(5) 0.7615(8)
C9 C 0.5259(13) 0.3632(6) 0.8178(9)
C10 C 0.6132(13) 0.1578(6) 0.8637(9)
N1 N 0.1341(9) 0.4583(5) 0.4056(6)
N2 N -0.1414(9) 0.4656(5) 0.2710(7)
N3 N 0.4727(9) 0.3191(5) 0.6278(7)
N4 N 0.5335(9) 0.1808(4) 0.6612(6)
O1 O 0.1849(9) 0.5418(6) 0.1959(6)
O2 O 0.3627(7) 0.4972(5) 0.3885(6)
O3 O -0.1860(9) 0.5396(6) 0.0120(7)
O4 O -0.3564(7) 0.5331(4) 0.0483(5)
O5 O 0.4645(9) 0.4344(4) 0.7666(6)
O6 O 0.5819(14) 0.3446(5) 0.9249(8)
O7 O 0.6410(13) 0.1896(5) 0.9601(7)
H3 H 0.6234 0.2407 0.9505
O8 O 0.6286(9) 0.0810(4) 0.8559(6)
Cd1 Cd 0.40641(7) 0.45657(4) 0.57049(5)
Cd2 Cd 0.0000 0.5000 0.0000
Cd3 Cd 0.42036(7) 0.54315(4) 0.84355(5)
O9 O -0.013(2) 0.6470(10) -0.0680(15)
H4 H -0.0934 0.6697 -0.0709
H5 H -0.0041 0.6752 -0.1221
C1B C 0.0059(11) 0.5555(6) -0.3841(9)
H1B H 0.0086 0.5781 -0.4434
C2B C -0.0859(9) 0.5103(6) -0.2962(7)
C3B C 0.0862(9) 0.5057(6) -0.2120(7)
C4B C -0.2157(10) 0.4885(6) -0.2903(7)
C5B C 0.2158(10) 0.4759(6) -0.0816(8)
C6B C -0.4806(12) 0.7537(6) -0.5835(8)
H2B H -0.4520 0.7583 -0.5062
C7B C -0.5240(11) 0.7012(5) -0.7418(8)
C8B C -0.5593(12) 0.7874(5) -0.7615(8)
C9B C -0.5259(13) 0.6368(6) -0.8178(9)
C10B C -0.6132(13) 0.8422(6) -0.8637(9)
N1B N -0.1341(9) 0.5417(5) -0.4056(6)
N2B N 0.1414(9) 0.5344(5) -0.2710(7)
N3B N -0.4727(9) 0.6809(5) -0.6278(7)
N4B N -0.5335(9) 0.8192(4) -0.6612(6)
O1B O -0.1849(9) 0.4582(6) -0.1959(6)
O2B O -0.3627(7) 0.5028(5) -0.3885(6)
O3B O 0.1860(9) 0.4604(6) -0.0120(7)
O4B O 0.3564(7) 0.4669(4) -0.0483(5)
O5B O -0.4645(9) 0.5656(4) -0.7666(6)
O6B O -0.5819(14) 0.6554(5) -0.9249(8)
O7B O -0.6410(13) 0.8104(5) -0.9601(7)
H3B H -0.6234 0.7593 -0.9505
O8B O -0.6286(9) 0.9190(4) -0.8559(6)
Cd1B Cd -0.40641(7) 0.54343(4) -0.57049(5)
Cd3B Cd -0.42036(7) 0.45685(4) -0.84355(5)
O9B O 0.013(2) 0.3530(10) 0.0680(15)
H4B H 0.0934 0.3303 0.0709
H5B H 0.0041 0.3248 0.1221
N2_2 N -0.1414(9) 0.4656(5) -0.7290(7)
N2B_2 N 0.1414(9) 0.5344(5) 0.7290(7)
N4A N 0.4665(9) 0.6808(4) 0.8388(6)
N4C N -0.4665(9) 0.3192(4) -0.8388(6)
O2_2 O -0.6373(7) 0.4972(5) -0.6115(6)
O2B_2 O 0.6373(7) 0.5028(5) 0.6115(6)
O4_2 O -0.3564(7) 0.5331(4) -0.9517(5)
O4_3 O 0.6436(7) 0.5331(4) 1.0483(5)
O4B_2 O -0.6436(7) 0.4669(4) -1.0483(5)
O4B_3 O 0.3564(7) 0.4669(4) 0.9517(5)
O8A O 0.3714(9) 0.5810(4) 0.6441(6)
O8C O -0.3714(9) 0.4190(4) -0.6441(6)
Cd1_2 Cd -0.59359(7) 0.45657(4) -0.42951(5)
Cd1A Cd 0.59359(7) -0.04343(4) 0.92951(5)
Cd1B_2 Cd 0.59359(7) 0.54343(4) 0.42951(5)
Cd1C Cd -0.59359(7) 1.04343(4) -0.92951(5)
Cd3_2 Cd -0.57964(7) 0.54315(4) -0.15645(5)
Cd3_3 Cd 0.42036(7) 0.54315(4) -0.15645(5)
Cd3A Cd 0.57964(7) 0.04315(4) 0.65645(5)
Cd3B_2 Cd -0.42036(7) 0.45685(4) 0.15645(5)
Cd3B_3 Cd 0.57964(7) 0.45685(4) 0.15645(5)
Cd3C Cd -0.57964(7) 0.95685(4) -0.65645(5)
O10 O -0.075(2) 0.7633(11) -0.1789(17)
H6 H -0.1388 0.7945 -0.1768
H7 H -0.0648 0.7957 -0.2226
loop_
_geom_bond_atom_site_label_1
_geom_bond_atom_site_label_2
_geom_bond_site_symmetry_1
_geom_bond_site_symmetry_2
C1 H1 1_555 1_555
C2 C3 1_555 1_555
C3 C5 1_555 1_555
C4 C2 1_555 1_555
C5 O3 1_555 1_555
C6 H2 1_555 1_555
C7 C8 1_555 1_555
C8 C10 1_555 1_555
C9 C7 1_555 1_555
C10 O7 1_555 1_555
N1 C1 1_555 1_555
N2 C1 1_555 1_555
N3 C6 1_555 1_555
N4 C6 1_555 1_555
O1 C4 1_555 1_555
O2 C4 1_555 1_555
O3 Cd2 1_555 1_555
O4 C5 1_555 1_555
O5 C9 1_555 1_555
O6 C9 1_555 1_555
O7 H3 1_555 1_555
O8 C10 1_555 1_555
Cd1 N1 1_555 1_555
Cd2 O1 1_555 1_555
Cd3 O5 1_555 1_555
O9 Cd2 1_555 1_555
H4 O9 1_555 1_555
H5 O9 1_555 1_555
O10 H6 1_555 1_555
H7 O10 1_555 1_555
C1B H1B 1_555 1_555
C2B C3B 1_555 1_555
C3B C5B 1_555 1_555
C4B C2B 1_555 1_555
C5B O3B 1_555 1_555
C6B H2B 1_555 1_555
C7B C8B 1_555 1_555
C8B C10B 1_555 1_555
C9B C7B 1_555 1_555
C10B O7B 1_555 1_555
N1B C1B 1_555 1_555
N2B C1B 1_555 1_555
N3B C6B 1_555 1_555
N4B C6B 1_555 1_555
O1B Cd2 1_555 1_555
O2B C4B 1_555 1_555
O3B Cd2 1_555 1_555
O4B C5B 1_555 1_555
O5B C9B 1_555 1_555
O6B C9B 1_555 1_555
O7B H3B 1_555 1_555
O8B C10B 1_555 1_555
Cd1B N1B 1_555 1_555
Cd3B O5B 1_555 1_555
O9B Cd2 1_555 1_555
H4B O9B 1_555 1_555
H5B O9B 1_555 1_555
N2_2 Cd3B 1_555 1_555
N2B_2 Cd3 1_555 1_555
N4A Cd3 1_555 1_555
N4C Cd3B 1_555 1_555
O2_2 Cd1B 1_555 1_555
O2B_2 Cd1 1_555 1_555
O4_2 Cd3B 1_555 1_555
O4_3 Cd3 1_555 1_555
O4B_2 Cd3B 1_555 1_555
O4B_3 Cd3 1_555 1_555
O8A Cd1 1_555 1_555
O8C Cd1B 1_555 1_555
Cd1_2 O2B 1_555 1_555
Cd1A O8 1_555 1_555
Cd1B_2 O2 1_555 1_555
Cd1C O8B 1_555 1_555
Cd3_2 O4 1_555 1_555
Cd3_3 N2B 1_555 1_555
Cd3A N4 1_555 1_555
Cd3B_2 N2 1_555 1_555
Cd3B_3 O4B 1_555 1_555
Cd3C N4B 1_555 1_555
C2 N1 1_555 1_555
C3 N2 1_555 1_555
C7 N3 1_555 1_555
C8 N4 1_555 1_555
N3 Cd1 1_555 1_555
O2 Cd1 1_555 1_555
O4 Cd3B_2 1_555 1_555
O5 Cd1 1_555 1_555
O8 Cd3A 1_555 1_555
Cd3 O8A 1_555 1_555
C2B N1B 1_555 1_555
C3B N2B 1_555 1_555
C4B O1B 1_555 1_555
C7B N3B 1_555 1_555
C8B N4B 1_555 1_555
N3B Cd1B 1_555 1_555
O2B Cd1B 1_555 1_555
O4B Cd3_3 1_555 1_555
O5B Cd1B 1_555 1_555
O8B Cd3C 1_555 1_555
Cd3B O8C 1_555 1_555
O2_2 Cd1_2 1_555 1_555
O2B_2 Cd1B_2 1_555 1_555

#END
