
#######################################################################
#
#                 Cambridge Crystallographic Data Centre
#                                CCDC 
#
#######################################################################
#
# If this CIF has been generated from an entry in the Cambridge 
# Structural Database, then it will include bibliographic, chemical, 
# crystal, experimental, refinement or atomic coordinate data resulting 
# from the CCDC's data processing and validation procedures.
#
#######################################################################

data_LUMLEM
_symmetry_cell_setting           triclinic
_symmetry_space_group_name_H-M   'P -1'
_symmetry_Int_Tables_number      2
_space_group_name_Hall           '-P 1'
loop_
_symmetry_equiv_pos_site_id
_symmetry_equiv_pos_as_xyz
1 x,y,z
2 -x,-y,-z
_cell_length_a                   10.4173(7)
_cell_length_b                   10.6423(7)
_cell_length_c                   13.2837(8)
_cell_angle_alpha                89.346(5)
_cell_angle_beta                 83.442(5)
_cell_angle_gamma                69.158(5)
_cell_volume                     1366.64
loop_
_atom_site_label
_atom_site_type_symbol
_atom_site_fract_x
_atom_site_fract_y
_atom_site_fract_z
C1 C 0.5364(4) 0.7664(3) 0.7660(2)
H1 H 0.5880 0.7247 0.8177
C2 C 0.4023(3) 0.9179(3) 0.6799(2)
C3 C 0.4452(3) 0.7965(3) 0.6274(2)
C4 C 0.3126(4) 1.0535(3) 0.6574(2)
C5 C 0.4065(3) 0.7570(3) 0.5321(2)
C6 C 0.8873(3) 0.3583(4) 0.4590(2)
H2 H 0.8926 0.2730 0.4798
C7 C 0.9332(4) 0.5181(4) 0.3769(3)
H3 H 0.9744 0.5643 0.3321
C8 C 0.8216(4) 0.5724(4) 0.4453(2)
H4 H 0.7715 0.6639 0.4558
C9 C 1.0942(3) 0.2795(5) 0.3282(3)
H5 H 1.1699 0.2489 0.3695
H6 H 1.1244 0.3192 0.2683
C10 C 1.0591(3) 0.1615(4) 0.2970(2)
C11 C 0.9712(3) 0.1710(4) 0.2225(2)
C12 C 0.9369(4) 0.0607(4) 0.2004(3)
H7 H 0.8768 0.0673 0.1522
C13 C 0.9906(5) -0.0584(5) 0.2488(4)
H8 H 0.9674 -0.1321 0.2332
C14 C 1.0783(6) -0.0679(5) 0.3202(4)
H9 H 1.1161 -0.1487 0.3524
C15 C 1.1107(5) 0.0408(5) 0.3445(3)
H10 H 1.1689 0.0332 0.3942
C16 C 0.4880(3) 0.2935(3) 0.7376(2)
H11 H 0.4245 0.3009 0.6919
C17 C 0.6025(3) 0.2325(3) 0.8646(2)
C18 C 0.6488(3) 0.3231(3) 0.8103(2)
C19 C 0.6457(3) 0.1553(3) 0.9556(2)
C20 C 0.7589(3) 0.3758(3) 0.8221(2)
C21 C 1.1186(4) 0.1875(4) 0.0224(2)
H12 H 1.1027 0.1072 0.0182
C22 C 1.2074(4) 0.3401(4) -0.0010(3)
H13 H 1.2657 0.3851 -0.0260
C23 C 1.0981(4) 0.3894(4) 0.0700(3)
H14 H 1.0676 0.4732 0.1031
C24 C 0.9244(3) 0.2930(4) 0.1592(2)
H15 H 0.8475 0.2923 0.1246
H16 H 0.8935 0.3737 0.2022
N1 N 0.5311(3) 0.7007(2) 0.68253(18)
N2 N 0.4609(3) 0.8973(2) 0.76822(17)
N3 N 0.7932(3) 0.4708(3) 0.49743(19)
N4 N 0.9746(3) 0.3819(3) 0.38585(19)
N5 N 0.5750(3) 0.3607(2) 0.72966(18)
N6 N 0.5010(3) 0.2147(3) 0.81733(18)
N7 N 1.2197(3) 0.2125(3) -0.0310(2)
N8 N 1.0406(3) 0.2929(3) 0.0840(2)
O1 O 0.2834(2) 1.14722(19) 0.71867(14)
O2 O 0.2634(3) 1.0709(2) 0.5698(2)
H17 H 0.2918 0.9991 0.5376
O3 O 0.3233(3) 0.8449(2) 0.4849(2)
O4 O 0.4587(2) 0.6348(2) 0.50542(16)
O5 O 0.5815(3) 0.0786(2) 0.98517(16)
O6 O 0.7427(3) 0.1690(3) 0.99736(18)
O7 O 0.8260(3) 0.3385(3) 0.90197(19)
H18 H 0.7949 0.2884 0.9356
O8 O 0.7875(3) 0.4492(2) 0.76005(18)
Cd1 Cd 0.61447(2) 0.491055(19) 0.612004(14)
Cd2 Cd 0.40537(2) 0.06766(2) 0.878549(14)
N2_2 N 0.4609(3) -0.1027(2) 0.76822(17)
N7_2 N 0.2197(3) 0.2125(3) 0.9690(2)
O1_2 O 0.2834(2) 0.14722(19) 0.71867(14)
O4A O 0.5413(2) 0.3652(2) 0.49458(16)
O5A O 0.4185(3) -0.0786(2) 1.01483(16)
Cd1A Cd 0.38553(2) 0.508945(19) 0.387996(14)
Cd2_2 Cd 0.40537(2) 1.06766(2) 0.878549(14)
Cd2_3 Cd 1.40537(2) 0.06766(2) -0.121451(14)
Cd2A Cd 0.59463(2) -0.06766(2) 1.121451(14)
loop_
_geom_bond_atom_site_label_1
_geom_bond_atom_site_label_2
_geom_bond_site_symmetry_1
_geom_bond_site_symmetry_2
C1 H1 1_555 1_555
C2 C3 1_555 1_555
C3 C5 1_555 1_555
C4 C2 1_555 1_555
C5 O3 1_555 1_555
C6 H2 1_555 1_555
C7 H3 1_555 1_555
C8 C7 1_555 1_555
H4 C8 1_555 1_555
C9 H5 1_555 1_555
H6 C9 1_555 1_555
C10 C9 1_555 1_555
C11 C10 1_555 1_555
C12 C11 1_555 1_555
H7 C12 1_555 1_555
C13 C12 1_555 1_555
H8 C13 1_555 1_555
C14 C13 1_555 1_555
H9 C14 1_555 1_555
C15 C10 1_555 1_555
H10 C15 1_555 1_555
C16 H11 1_555 1_555
C17 C18 1_555 1_555
C18 C20 1_555 1_555
C19 C17 1_555 1_555
C20 O7 1_555 1_555
C21 H12 1_555 1_555
C22 H13 1_555 1_555
C23 C22 1_555 1_555
H14 C23 1_555 1_555
C24 C11 1_555 1_555
H15 C24 1_555 1_555
H16 C24 1_555 1_555
N1 C1 1_555 1_555
N2 C1 1_555 1_555
N3 C6 1_555 1_555
N4 C6 1_555 1_555
N5 C16 1_555 1_555
N6 C16 1_555 1_555
N7 C21 1_555 1_555
N8 C21 1_555 1_555
O1 C4 1_555 1_555
O2 C4 1_555 1_555
H17 O2 1_555 1_555
O4 C5 1_555 1_555
O5 C19 1_555 1_555
O6 C19 1_555 1_555
O7 H18 1_555 1_555
O8 C20 1_555 1_555
Cd1 N1 1_555 1_555
Cd2 N6 1_555 1_555
N2_2 Cd2 1_555 1_555
N7_2 Cd2 1_555 1_555
O1_2 Cd2 1_555 1_555
O4A Cd1 1_555 1_555
O5A Cd2 1_555 1_555
Cd1A O4 1_555 1_555
Cd2_2 N2 1_555 1_555
Cd2_3 N7 1_555 1_555
Cd2A O5 1_555 1_555
C2 N2 1_555 1_555
C3 N1 1_555 1_555
C7 N4 1_555 1_555
C8 N3 1_555 1_555
C9 N4 1_555 1_555
C14 C15 1_555 1_555
C17 N6 1_555 1_555
C18 N5 1_555 1_555
C22 N7 1_555 1_555
C23 N8 1_555 1_555
C24 N8 1_555 1_555
N3 Cd1 1_555 1_555
N5 Cd1 1_555 1_555
O1 Cd2_2 1_555 1_555
O4 Cd1 1_555 1_555
O5 Cd2 1_555 1_555
O8 Cd1 1_555 1_555
O4A Cd1A 1_555 1_555
O5A Cd2A 1_555 1_555

#END
