
#######################################################################
#
#                 Cambridge Crystallographic Data Centre
#                                CCDC 
#
#######################################################################
#
# If this CIF has been generated from an entry in the Cambridge 
# Structural Database, then it will include bibliographic, chemical, 
# crystal, experimental, refinement or atomic coordinate data resulting 
# from the CCDC's data processing and validation procedures.
#
#######################################################################

data_LUMPAL
_symmetry_cell_setting           monoclinic
_symmetry_space_group_name_H-M   'C 2/c'
_symmetry_Int_Tables_number      15
_space_group_name_Hall           '-C 2yn'
loop_
_symmetry_equiv_pos_site_id
_symmetry_equiv_pos_as_xyz
1 x,y,z
2 -x,y,1/2-z
3 1/2+x,1/2+y,z
4 1/2-x,1/2+y,1/2-z
5 -x,-y,-z
6 x,-y,1/2+z
7 1/2-x,1/2-y,-z
8 1/2+x,1/2-y,1/2+z
_cell_length_a                   26.532(5)
_cell_length_b                   8.8959(18)
_cell_length_c                   14.081(3)
_cell_angle_alpha                90
_cell_angle_beta                 108.46(3)
_cell_angle_gamma                90
_cell_volume                     3152.47
loop_
_atom_site_label
_atom_site_type_symbol
_atom_site_fract_x
_atom_site_fract_y
_atom_site_fract_z
Ag1 Ag 0.132257(7) 0.67096(2) 0.072723(15)
C1 C 0.04434(8) 0.4192(2) 0.02765(17)
H1 H 0.0749 0.3603 0.0468
C2 C -0.00477(9) 0.3491(2) 0.00348(17)
C3 C 0.23298(9) 0.6071(2) 0.00362(16)
C4 C 0.27799(9) 0.6404(3) -0.02200(17)
H2 H 0.2971 0.5615 -0.0371
C5 C 0.21551(10) 0.4479(3) 0.00888(19)
H3 H 0.1839 0.4470 0.0280
H4 H 0.2431 0.3935 0.0575
H5 H 0.2084 0.4012 -0.0555
C6 C -0.00890(11) 0.1817(3) 0.0065(3)
H6 H -0.0457 0.1531 -0.0125
H7 H 0.0072 0.1379 -0.0391
H8 H 0.0091 0.1467 0.0732
N1 N 0.17036(8) 0.5635(2) 0.24108(16)
H9 H 0.1656(11) 0.641(3) 0.274(2)
H10 H 0.2027(12) 0.547(3) 0.246(2)
N2 N 0.20478(7) 0.7188(2) 0.02598(14)
N3 N 0.04944(7) 0.5689(2) 0.02447(14)
C7 C 0.14063(9) 0.1611(2) 0.25979(16)
C8 C 0.09428(10) 0.1680(3) 0.28583(19)
H11 H 0.0771 0.0806 0.2948
C9 C 0.07443(10) 0.3075(3) 0.29810(19)
H12 H 0.0436 0.3125 0.3161
C10 C 0.09854(9) 0.4402(3) 0.28466(16)
C11 C 0.14562(8) 0.4314(2) 0.25918(15)
C12 C 0.16637(9) 0.2917(2) 0.24711(16)
H13 H 0.1976 0.2859 0.2305
C13 C 0.07550(11) 0.5911(3) 0.2965(2)
H14 H 0.0437 0.5770 0.3140
H15 H 0.0673 0.6456 0.2347
H16 H 0.1009 0.6468 0.3485
O1 O 0.13008(7) -0.06532(18) 0.14046(13)
O2 O 0.21884(7) 0.0064(2) 0.23777(16)
O3 O 0.16160(9) -0.1145(2) 0.31819(14)
S1 S 0.16517(2) -0.01669(6) 0.23842(4)
Ag1_2 Ag 0.132257(7) 1.67096(2) 0.072723(15)
Ag1_3 Ag 0.132257(7) -0.32904(2) 0.072723(15)
Ag1D Ag -0.132257(7) 0.32904(2) -0.072723(15)
Ag1F Ag 0.367743(7) 0.82904(2) -0.072723(15)
C1D C -0.04434(8) 0.5808(2) -0.02765(17)
H1D H -0.0749 0.6397 -0.0468
C2D C 0.00477(9) 0.6509(2) -0.00348(17)
C3F C 0.26702(9) 0.8929(2) -0.00362(16)
C4F C 0.22201(9) 0.8596(3) 0.02200(17)
H2F H 0.2029 0.9385 0.0371
C5F C 0.28449(10) 1.0521(3) -0.00888(19)
H3F H 0.3161 1.0530 -0.0280
H4F H 0.2569 1.1065 -0.0575
H5F H 0.2916 1.0988 0.0555
C6D C 0.00890(11) 0.8183(3) -0.0065(3)
H6D H 0.0457 0.8469 0.0125
H7D H -0.0072 0.8621 0.0391
H8D H -0.0091 0.8533 -0.0732
N1_2 N 0.17036(8) 1.5635(2) 0.24108(16)
H9_2 H 0.1656(11) 1.641(3) 0.274(2)
H10_2 H 0.2027(12) 1.547(3) 0.246(2)
N2F N 0.29522(7) 0.7812(2) -0.02598(14)
N2_2 N 0.20478(7) 1.7188(2) 0.02598(14)
N3D N -0.04944(7) 0.4311(2) -0.02447(14)
N3_2 N 0.04944(7) 1.5689(2) 0.02447(14)
C7_2 C 0.14063(9) 1.1611(2) 0.25979(16)
C8_2 C 0.09428(10) 1.1680(3) 0.28583(19)
H11_2 H 0.0771 1.0806 0.2948
C9_2 C 0.07443(10) 1.3075(3) 0.29810(19)
H12_2 H 0.0436 1.3125 0.3161
C10_2 C 0.09854(9) 1.4402(3) 0.28466(16)
C11_2 C 0.14562(8) 1.4314(2) 0.25918(15)
C12_2 C 0.16637(9) 1.2917(2) 0.24711(16)
H13_2 H 0.1976 1.2859 0.2305
C13_2 C 0.07550(11) 1.5911(3) 0.2965(2)
H14_2 H 0.0437 1.5770 0.3140
H15_2 H 0.0673 1.6456 0.2347
H16_2 H 0.1009 1.6468 0.3485
O1_2 O 0.13008(7) 0.93468(18) 0.14046(13)
O1_3 O 0.13008(7) 1.93468(18) 0.14046(13)
O2_2 O 0.21884(7) 1.0064(2) 0.23777(16)
O3_2 O 0.16160(9) 0.8855(2) 0.31819(14)
S1_2 S 0.16517(2) 0.98331(6) 0.23842(4)
O4 O 0.11417(16) 1.8568(3) 0.4774(2)
H17 H 0.126(2) 1.891(6) 0.433(3)
H18 H 0.123(2) 1.928(4) 0.520(3)
loop_
_geom_bond_atom_site_label_1
_geom_bond_atom_site_label_2
_geom_bond_site_symmetry_1
_geom_bond_site_symmetry_2
Ag1 N1 1_555 1_555
C1 H1 1_555 1_555
C2 C1 1_555 1_555
C3 C4 1_555 1_555
C4 H2 1_555 1_555
C5 C3 1_555 1_555
H3 C5 1_555 1_555
H4 C5 1_555 1_555
H5 C5 1_555 1_555
C6 C2 1_555 1_555
H6 C6 1_555 1_555
H7 C6 1_555 1_555
H8 C6 1_555 1_555
N1 H9 1_555 1_555
H10 N1 1_555 1_555
N2 Ag1 1_555 1_555
N3 Ag1 1_555 1_555
C7 C8 1_555 1_555
C8 H11 1_555 1_555
C9 C8 1_555 1_555
H12 C9 1_555 1_555
C10 C9 1_555 1_555
C11 N1 1_555 1_555
C12 C7 1_555 1_555
H13 C12 1_555 1_555
C13 C10 1_555 1_555
H14 C13 1_555 1_555
H15 C13 1_555 1_555
H16 C13 1_555 1_555
O1 S1 1_555 1_555
O2 S1 1_555 1_555
O3 S1 1_555 1_555
S1 C7 1_555 1_555
O4 H17 1_555 1_555
H18 O4 1_555 1_555
Ag1_2 N1_2 1_555 1_555
Ag1_3 O1 1_555 1_555
Ag1D N3D 1_555 1_555
Ag1F N2F 1_555 1_555
C1D H1D 1_555 1_555
C2D N3 1_555 1_555
C3F C4F 1_555 1_555
C4F N2 1_555 1_555
H2F C4F 1_555 1_555
C5F C3F 1_555 1_555
H3F C5F 1_555 1_555
H4F C5F 1_555 1_555
H5F C5F 1_555 1_555
C6D C2D 1_555 1_555
H6D C6D 1_555 1_555
H7D C6D 1_555 1_555
H8D C6D 1_555 1_555
N1_2 H9_2 1_555 1_555
H10_2 N1_2 1_555 1_555
N2F C4 1_555 1_555
N2_2 Ag1_2 1_555 1_555
N3D C2 1_555 1_555
N3_2 Ag1_2 1_555 1_555
C7_2 C8_2 1_555 1_555
C8_2 H11_2 1_555 1_555
C9_2 C8_2 1_555 1_555
H12_2 C9_2 1_555 1_555
C10_2 C9_2 1_555 1_555
C11_2 N1_2 1_555 1_555
C12_2 C7_2 1_555 1_555
H13_2 C12_2 1_555 1_555
C13_2 C10_2 1_555 1_555
H14_2 C13_2 1_555 1_555
H15_2 C13_2 1_555 1_555
H16_2 C13_2 1_555 1_555
O1_2 Ag1 1_555 1_555
O1_3 Ag1_2 1_555 1_555
O2_2 S1_2 1_555 1_555
O3_2 S1_2 1_555 1_555
S1_2 C7_2 1_555 1_555
C1 N3 1_555 1_555
C3 N2 1_555 1_555
C10 C11 1_555 1_555
C11 C12 1_555 1_555
C1D C2D 1_555 1_555
C1D N3D 1_555 1_555
C3F N2F 1_555 1_555
C10_2 C11_2 1_555 1_555
C11_2 C12_2 1_555 1_555
O1_2 S1_2 1_555 1_555

#END
