
#######################################################################
#
#                 Cambridge Crystallographic Data Centre
#                                CCDC 
#
#######################################################################
#
# If this CIF has been generated from an entry in the Cambridge 
# Structural Database, then it will include bibliographic, chemical, 
# crystal, experimental, refinement or atomic coordinate data resulting 
# from the CCDC's data processing and validation procedures.
#
#######################################################################

data_LUMPUF
_symmetry_cell_setting           orthorhombic
_symmetry_space_group_name_H-M   'P n a 21'
_symmetry_Int_Tables_number      33
_space_group_name_Hall           'P 2c -2n'
loop_
_symmetry_equiv_pos_site_id
_symmetry_equiv_pos_as_xyz
1 x,y,z
2 -x,-y,1/2+z
3 1/2-x,1/2+y,1/2+z
4 1/2+x,1/2-y,z
_cell_length_a                   14.092(3)
_cell_length_b                   11.078(2)
_cell_length_c                   10.092(2)
_cell_angle_alpha                90
_cell_angle_beta                 90
_cell_angle_gamma                90
_cell_volume                     1575.47
loop_
_atom_site_label
_atom_site_type_symbol
_atom_site_fract_x
_atom_site_fract_y
_atom_site_fract_z
Ag1 Ag 0.457980(10) 0.191397(18) 0.12649(3)
S1 S 0.43798(4) 0.12140(6) 0.46507(6)
O1 O 0.44901(13) 0.2294(2) 0.3838(2)
O2 O 0.42718(14) 0.1480(2) 0.60456(17)
N1 N 0.61227(13) 0.21850(17) 0.1078(2)
C1 C 0.23380(18) -0.0321(2) 0.2375(2)
C2 C 0.65532(15) 0.2604(2) -0.0005(2)
C3 C 0.75483(15) 0.2761(2) -0.0025(2)
O3 O 0.51234(15) 0.0339(2) 0.43779(18)
C4 C 0.32267(17) 0.0037(2) 0.2846(2)
C5 C 0.2219(2) -0.0884(3) 0.1020(2)
H1 H 0.2826 -0.0935 0.0591
H2 H 0.1800 -0.0396 0.0496
H3 H 0.1957 -0.1679 0.1113
N2 N 0.40384(17) -0.0047(2) 0.2043(2)
H4 H 0.4542(13) -0.015(2) 0.252(2)
H5 H 0.4070(10) -0.050(3) 0.141(3)
C6 C 0.16057(17) 0.0323(2) 0.4449(2)
C7 C 0.32958(16) 0.0562(2) 0.4109(2)
C8 C 0.15461(19) -0.0155(2) 0.3185(2)
H6 H 0.0953 -0.0376 0.2862
C9 C 0.24957(16) 0.0680(2) 0.4896(2)
H7 H 0.2555 0.1004 0.5741
C10 C 0.5951(2) 0.2921(3) -0.1175(3)
H8 H 0.5298 0.2753 -0.0976
H9 H 0.6146 0.2450 -0.1926
H10 H 0.6023 0.3764 -0.1373
C11 C 0.66575(18) 0.1889(2) 0.2124(3)
H11 H 0.6368 0.1584 0.2881
C12 C 0.80485(19) 0.3288(2) -0.1204(3)
H12 H 0.8718 0.3320 -0.1033
H13 H 0.7815 0.4089 -0.1366
H14 H 0.7932 0.2792 -0.1968
C13 C 0.0747(2) 0.0443(3) 0.5323(3)
H15 H 0.0197 0.0155 0.4859
H16 H 0.0658 0.1276 0.5556
H17 H 0.0837 -0.0025 0.6114
C14 C 0.76280(18) 0.2029(2) 0.2102(2)
H18 H 0.7983 0.1815 0.2842
N3 N 0.80685(12) 0.24702(17) 0.1028(2)
Ag1C Ag 0.957980(10) 0.308603(18) 0.12649(3)
N3C N 0.30685(12) 0.25298(17) 0.1028(2)
loop_
_geom_bond_atom_site_label_1
_geom_bond_atom_site_label_2
_geom_bond_site_symmetry_1
_geom_bond_site_symmetry_2
Ag1 O1 1_555 1_555
S1 O1 1_555 1_555
O2 S1 1_555 1_555
N1 Ag1 1_555 1_555
C1 C4 1_555 1_555
C2 N1 1_555 1_555
C3 C2 1_555 1_555
O3 S1 1_555 1_555
C4 N2 1_555 1_555
C5 C1 1_555 1_555
H1 C5 1_555 1_555
H2 C5 1_555 1_555
H3 C5 1_555 1_555
N2 Ag1 1_555 1_555
H4 N2 1_555 1_555
H5 N2 1_555 1_555
C6 C8 1_555 1_555
C7 S1 1_555 1_555
C8 C1 1_555 1_555
H6 C8 1_555 1_555
C9 C6 1_555 1_555
H7 C9 1_555 1_555
C10 C2 1_555 1_555
H8 C10 1_555 1_555
H9 C10 1_555 1_555
H10 C10 1_555 1_555
C11 N1 1_555 1_555
H11 C11 1_555 1_555
C12 C3 1_555 1_555
H12 C12 1_555 1_555
H13 C12 1_555 1_555
H14 C12 1_555 1_555
C13 C6 1_555 1_555
H15 C13 1_555 1_555
H16 C13 1_555 1_555
H17 C13 1_555 1_555
C14 C11 1_555 1_555
H18 C14 1_555 1_555
N3 C3 1_555 1_555
Ag1C N3 1_555 1_555
N3C Ag1 1_555 1_555
C4 C7 1_555 1_555
C7 C9 1_555 1_555
C14 N3 1_555 1_555

#END
