
#######################################################################
#
#                 Cambridge Crystallographic Data Centre
#                                CCDC 
#
#######################################################################
#
# If this CIF has been generated from an entry in the Cambridge 
# Structural Database, then it will include bibliographic, chemical, 
# crystal, experimental, refinement or atomic coordinate data resulting 
# from the CCDC's data processing and validation procedures.
#
#######################################################################

data_LUMPOZ
_symmetry_cell_setting           monoclinic
_symmetry_space_group_name_H-M   'C 2/c'
_symmetry_Int_Tables_number      15
_space_group_name_Hall           '-C 2yn'
loop_
_symmetry_equiv_pos_site_id
_symmetry_equiv_pos_as_xyz
1 x,y,z
2 -x,y,1/2-z
3 1/2+x,1/2+y,z
4 1/2-x,1/2+y,1/2-z
5 -x,-y,-z
6 x,-y,1/2+z
7 1/2-x,1/2-y,-z
8 1/2+x,1/2-y,1/2+z
_cell_length_a                   23.209(5)
_cell_length_b                   7.8185(16)
_cell_length_c                   15.131(3)
_cell_angle_alpha                90
_cell_angle_beta                 92.82(3)
_cell_angle_gamma                90
_cell_volume                     2742.34
loop_
_atom_site_label
_atom_site_type_symbol
_atom_site_fract_x
_atom_site_fract_y
_atom_site_fract_z
Ag1 Ag 0.145662(14) 0.21790(4) 0.67128(2)
O1 O 0.20298(13) -0.2420(4) 0.6734(2)
N1 N 0.20936(14) 0.2380(4) 0.5644(2)
N2 N 0.05248(13) 0.2004(4) 0.7094(2)
O2 O 0.10169(15) -0.3090(6) 0.6537(2)
O3 O 0.16491(17) -0.4938(4) 0.7412(3)
C1 C 0.02593(15) 0.0551(5) 0.7295(3)
H1 H 0.0427 -0.0487 0.7154
C2 C 0.02588(16) 0.3458(5) 0.7298(3)
H2 H 0.0429 0.4497 0.7164
C3 C 0.21488(19) 0.3779(5) 0.5161(3)
H3 H 0.1907 0.4703 0.5253
C4 C 0.2447(2) 0.1091(5) 0.5474(3)
H4 H 0.2420 0.0077 0.5791
C5 C 0.0292(2) -0.2865(8) 0.9850(4)
H5 H 0.0193 -0.2126 1.0326
H6 H 0.0442 -0.3923 1.0089
H7 H -0.0045 -0.3090 0.9476
S1 S 0.15273(4) -0.31887(13) 0.71058(7)
C6 C 0.13636(16) -0.2061(5) 0.8080(3)
C7 C 0.09598(18) -0.2821(5) 0.8594(3)
H8 H 0.0830 -0.3914 0.8445
N3 N 0.19697(15) 0.0435(5) 0.7791(3)
H9 H 0.217(2) -0.039(7) 0.743(3)
H10 H 0.220(3) 0.108(8) 0.797(4)
C8 C 0.15758(15) -0.0432(5) 0.8311(2)
C9 C 0.1567(3) 0.2176(6) 0.9295(3)
H11 H 0.1850 0.2537 0.8893
H12 H 0.1734 0.2174 0.9888
H13 H 0.1245 0.2950 0.9258
C10 C 0.07394(18) -0.2022(6) 0.9323(3)
C11 C 0.13627(18) 0.0396(5) 0.9052(3)
C12 C 0.09533(18) -0.0405(6) 0.9538(3)
H14 H 0.0815 0.0157 1.0026
Ag1F Ag 0.354338(14) 0.28210(4) 0.32872(2)
Ag1_2 Ag 0.145662(14) -0.78210(4) 0.67128(2)
Ag1A Ag -0.145662(14) 0.21790(4) 0.82872(2)
Ag1F_2 Ag 0.354338(14) 1.28210(4) 0.32872(2)
O1F O 0.29702(13) 0.7420(4) 0.3266(2)
N1F N 0.29064(14) 0.2620(4) 0.4356(2)
N2A N -0.05248(13) 0.2004(4) 0.7906(2)
N2F N 0.44752(13) 0.2996(4) 0.2906(2)
O2F O 0.39831(15) 0.8090(6) 0.3463(2)
O3_2 O 0.16491(17) 0.5062(4) 0.7412(3)
O3F O 0.33509(17) -0.0062(4) 0.2588(3)
O3F_2 O 0.33509(17) 0.9938(4) 0.2588(3)
C1A C -0.02593(15) 0.0551(5) 0.7705(3)
H1A H -0.0427 -0.0487 0.7846
C2A C -0.02588(16) 0.3458(5) 0.7702(3)
H2A H -0.0429 0.4497 0.7836
C3F C 0.28512(19) 0.1221(5) 0.4839(3)
H3F H 0.3093 0.0297 0.4747
C4F C 0.2553(2) 0.3909(5) 0.4526(3)
H4F H 0.2580 0.4923 0.4209
C5F C 0.4708(2) 0.7865(8) 0.0150(4)
H5F H 0.4807 0.7126 -0.0326
H6F H 0.4558 0.8923 -0.0089
H7F H 0.5045 0.8090 0.0524
S1F S 0.34727(4) 0.81887(13) 0.28942(7)
C6F C 0.36364(16) 0.7061(5) 0.1920(3)
C7F C 0.40402(18) 0.7821(5) 0.1406(3)
H8F H 0.4170 0.8914 0.1555
N3F N 0.30303(15) 0.4565(5) 0.2209(3)
H9F H 0.283(2) 0.539(7) 0.257(3)
H10F H 0.280(3) 0.392(8) 0.203(4)
C8F C 0.34242(15) 0.5432(5) 0.1689(2)
C9F C 0.3433(3) 0.2824(6) 0.0705(3)
H11F H 0.3150 0.2463 0.1107
H12F H 0.3266 0.2826 0.0112
H13F H 0.3755 0.2050 0.0742
C10F C 0.42606(18) 0.7022(6) 0.0677(3)
C11F C 0.36373(18) 0.4604(5) 0.0948(3)
C12F C 0.40467(18) 0.5405(6) 0.0462(3)
H14F H 0.4185 0.4843 -0.0026
loop_
_geom_bond_atom_site_label_1
_geom_bond_atom_site_label_2
_geom_bond_site_symmetry_1
_geom_bond_site_symmetry_2
Ag1 N1 1_555 1_555
O1 S1 1_555 1_555
N1 C3 1_555 1_555
N2 Ag1 1_555 1_555
O2 S1 1_555 1_555
O3 S1 1_555 1_555
C1 N2 1_555 1_555
H1 C1 1_555 1_555
C2 N2 1_555 1_555
H2 C2 1_555 1_555
C3 H3 1_555 1_555
C4 N1 1_555 1_555
H4 C4 1_555 1_555
C5 H5 1_555 1_555
H6 C5 1_555 1_555
H7 C5 1_555 1_555
S1 C6 1_555 1_555
C6 C7 1_555 1_555
C7 H8 1_555 1_555
N3 Ag1 1_555 1_555
H9 N3 1_555 1_555
H10 N3 1_555 1_555
C8 C6 1_555 1_555
C9 H11 1_555 1_555
H12 C9 1_555 1_555
H13 C9 1_555 1_555
C10 C5 1_555 1_555
C11 C8 1_555 1_555
C12 C10 1_555 1_555
H14 C12 1_555 1_555
Ag1F N1F 1_555 1_555
Ag1_2 O3 1_555 1_555
Ag1A N2A 1_555 1_555
Ag1F_2 O3F_2 1_555 1_555
O1F S1F 1_555 1_555
N1F C3F 1_555 1_555
N2A C1A 1_555 1_555
N2F Ag1F 1_555 1_555
O2F S1F 1_555 1_555
O3_2 Ag1 1_555 1_555
O3F Ag1F 1_555 1_555
O3F_2 S1F 1_555 1_555
C1A C1 1_555 1_555
H1A C1A 1_555 1_555
C2A C2 1_555 1_555
H2A C2A 1_555 1_555
C3F C4 1_555 1_555
H3F C3F 1_555 1_555
C4F C3 1_555 1_555
H4F C4F 1_555 1_555
C5F H5F 1_555 1_555
H6F C5F 1_555 1_555
H7F C5F 1_555 1_555
S1F C6F 1_555 1_555
C6F C7F 1_555 1_555
C7F H8F 1_555 1_555
N3F Ag1F 1_555 1_555
H9F N3F 1_555 1_555
H10F N3F 1_555 1_555
C8F C6F 1_555 1_555
C9F H11F 1_555 1_555
H12F C9F 1_555 1_555
H13F C9F 1_555 1_555
C10F C5F 1_555 1_555
C11F C8F 1_555 1_555
C12F C10F 1_555 1_555
H14F C12F 1_555 1_555
C7 C10 1_555 1_555
N3 C8 1_555 1_555
C9 C11 1_555 1_555
C11 C12 1_555 1_555
N1F C4F 1_555 1_555
N2A C2A 1_555 1_555
C7F C10F 1_555 1_555
N3F C8F 1_555 1_555
C9F C11F 1_555 1_555
C11F C12F 1_555 1_555

#END
