
#######################################################################
#
#                 Cambridge Crystallographic Data Centre
#                                CCDC 
#
#######################################################################
#
# If this CIF has been generated from an entry in the Cambridge 
# Structural Database, then it will include bibliographic, chemical, 
# crystal, experimental, refinement or atomic coordinate data resulting 
# from the CCDC's data processing and validation procedures.
#
#######################################################################

data_LUMQAM
_symmetry_cell_setting           orthorhombic
_symmetry_space_group_name_H-M   'P n a 21'
_symmetry_Int_Tables_number      33
_space_group_name_Hall           'P 2c -2n'
loop_
_symmetry_equiv_pos_site_id
_symmetry_equiv_pos_as_xyz
1 x,y,z
2 -x,-y,1/2+z
3 1/2-x,1/2+y,1/2+z
4 1/2+x,1/2-y,z
_cell_length_a                   14.223(3)
_cell_length_b                   8.5662(17)
_cell_length_c                   12.881(3)
_cell_angle_alpha                90
_cell_angle_beta                 90
_cell_angle_gamma                90
_cell_volume                     1569.38
loop_
_atom_site_label
_atom_site_type_symbol
_atom_site_fract_x
_atom_site_fract_y
_atom_site_fract_z
Ag1 Ag -0.516780(12) -0.16307(3) -0.29967(3)
S1 S -0.43334(5) -0.08664(9) 0.00273(6)
O1 O -0.50774(16) 0.0286(3) 0.0179(2)
N1 N -0.66961(13) -0.2338(3) -0.2975(3)
O2 O -0.38567(19) -0.1240(4) 0.0984(2)
N2 N -0.86311(16) -0.2635(3) -0.3165(2)
O3 O -0.46663(18) -0.2211(3) -0.0550(2)
N3 N -0.47344(18) 0.0776(4) -0.2015(2)
H1 H -0.507(4) 0.062(7) -0.147(5)
H2 H -0.500(3) 0.170(6) -0.230(3)
C1 C -0.3792(2) 0.0813(3) -0.1698(2)
C2 C -0.7272(2) -0.1762(4) -0.2258(3)
C3 C -0.2554(2) 0.0037(4) -0.0517(3)
H3 H -0.2375 -0.0447 0.0098
C4 C -0.2172(2) 0.1438(4) -0.2045(3)
H4 H -0.1724 0.1895 -0.2475
C5 C -0.8051(2) -0.3225(4) -0.3864(3)
H5 H -0.8304 -0.3740 -0.4436
C6 C -0.1871(2) 0.0705(4) -0.1149(3)
C7 C -0.7075(2) -0.3107(4) -0.3780(2)
C8 C -0.8240(2) -0.1917(4) -0.2360(3)
H6 H -0.8628 -0.1504 -0.1848
C9 C -0.34941(19) 0.0076(3) -0.0785(2)
C10 C -0.3106(3) 0.1523(4) -0.2332(3)
C11 C -0.6429(3) -0.3810(5) -0.4566(3)
H7 H -0.5789 -0.3606 -0.4372
H8 H -0.6552 -0.3358 -0.5235
H9 H -0.6531 -0.4917 -0.4597
C12 C -0.6863(3) -0.0982(6) -0.1333(3)
H10 H -0.6190 -0.0974 -0.1390
H11 H -0.7044 -0.1539 -0.0718
H12 H -0.7090 0.0072 -0.1294
C13 C -0.0845(2) 0.0625(5) -0.0855(4)
H13 H -0.0780 0.0074 -0.0211
H14 H -0.0601 0.1664 -0.0780
H15 H -0.0503 0.0088 -0.1389
C14 C -0.3389(3) 0.2365(6) -0.3307(3)
H16 H -0.4059 0.2313 -0.3388
H17 H -0.3091 0.1883 -0.3894
H18 H -0.3197 0.3437 -0.3263
Ag1C Ag -1.016780(12) -0.33693(3) -0.29967(3)
Ag1A Ag -0.483220(12) 0.16307(3) 0.20033(3)
O1A O -0.49226(16) -0.0286(3) -0.4821(2)
N2C N -0.36311(16) -0.2365(3) -0.3165(2)
loop_
_geom_bond_atom_site_label_1
_geom_bond_atom_site_label_2
_geom_bond_site_symmetry_1
_geom_bond_site_symmetry_2
Ag1 N1 1_555 1_555
S1 O1 1_555 1_555
O1 Ag1A 1_555 1_555
N1 C2 1_555 1_555
O2 S1 1_555 1_555
N2 C5 1_555 1_555
O3 S1 1_555 1_555
N3 Ag1 1_555 1_555
H1 N3 1_555 1_555
H2 N3 1_555 1_555
C1 N3 1_555 1_555
C2 C8 1_555 1_555
C3 H3 1_555 1_555
C4 H4 1_555 1_555
C5 H5 1_555 1_555
C6 C3 1_555 1_555
C7 N1 1_555 1_555
C8 N2 1_555 1_555
H6 C8 1_555 1_555
C9 S1 1_555 1_555
C10 C1 1_555 1_555
C11 C7 1_555 1_555
H7 C11 1_555 1_555
H8 C11 1_555 1_555
H9 C11 1_555 1_555
C12 C2 1_555 1_555
H10 C12 1_555 1_555
H11 C12 1_555 1_555
H12 C12 1_555 1_555
C13 C6 1_555 1_555
H13 C13 1_555 1_555
H14 C13 1_555 1_555
H15 C13 1_555 1_555
C14 C10 1_555 1_555
H16 C14 1_555 1_555
H17 C14 1_555 1_555
H18 C14 1_555 1_555
Ag1C N2 1_555 1_555
O1A Ag1 1_555 1_555
N2C Ag1 1_555 1_555
C1 C9 1_555 1_555
C3 C9 1_555 1_555
C4 C6 1_555 1_555
C4 C10 1_555 1_555
C5 C7 1_555 1_555

#END
