
#######################################################################
#
#                 Cambridge Crystallographic Data Centre
#                                CCDC 
#
#######################################################################
#
# If this CIF has been generated from an entry in the Cambridge 
# Structural Database, then it will include bibliographic, chemical, 
# crystal, experimental, refinement or atomic coordinate data resulting 
# from the CCDC's data processing and validation procedures.
#
#######################################################################

data_LUMQIU
_symmetry_cell_setting           monoclinic
_symmetry_space_group_name_H-M   'C 2/c'
_symmetry_Int_Tables_number      15
_space_group_name_Hall           '-C 2yn'
loop_
_symmetry_equiv_pos_site_id
_symmetry_equiv_pos_as_xyz
1 x,y,z
2 -x,y,1/2-z
3 1/2+x,1/2+y,z
4 1/2-x,1/2+y,1/2-z
5 -x,-y,-z
6 x,-y,1/2+z
7 1/2-x,1/2-y,-z
8 1/2+x,1/2-y,1/2+z
_cell_length_a                   24.041(5)
_cell_length_b                   10.974(2)
_cell_length_c                   15.315(3)
_cell_angle_alpha                90
_cell_angle_beta                 122.99(3)
_cell_angle_gamma                90
_cell_volume                     3389.03
loop_
_atom_site_label
_atom_site_type_symbol
_atom_site_fract_x
_atom_site_fract_y
_atom_site_fract_z
Ag1 Ag 0.668403(13) 0.12018(3) 0.11936(3)
S1 S 0.73066(4) -0.20598(8) 0.14340(7)
O1 O 0.72367(14) -0.3196(3) 0.0904(2)
O2 O 0.70863(16) -0.1015(2) 0.0755(2)
O3 O 0.79671(13) -0.1902(3) 0.2360(2)
N1 N 0.55935(13) 0.0581(3) 0.0362(2)
N2 N 0.71841(13) 0.2026(3) 0.0456(2)
N3 N 0.71123(17) -0.0125(3) 0.2638(3)
H1 H 0.7203(13) 0.041(3) 0.310(3)
H2 H 0.7507(10) -0.035(4) 0.285(3)
C1 C 0.76751(17) 0.1428(3) 0.0473(3)
H3 H 0.7806 0.0674 0.0801
C2 C 0.59235(18) -0.3269(4) 0.1942(3)
C3 C 0.63791(17) -0.3177(3) 0.1659(3)
H4 H 0.6425 -0.3822 0.1309
C4 C 0.58584(19) -0.2263(4) 0.2431(3)
H5 H 0.5541 -0.2291 0.2599
C5 C 0.67669(16) -0.2151(3) 0.1885(2)
C6 C 0.54656(16) -0.0509(3) -0.0080(3)
H6 H 0.5789 -0.0883 -0.0143
C7 C 0.6241(2) -0.1224(3) 0.2680(3)
C8 C 0.6144(3) -0.0159(4) 0.3206(4)
H7 H 0.6449 0.0479 0.3314
H8 H 0.6225 -0.0415 0.3864
H9 H 0.5698 0.0136 0.2773
C9 C 0.67156(17) -0.1173(3) 0.2424(3)
C10 C 0.5517(2) -0.4394(4) 0.1715(4)
H10 H 0.5232 -0.4295 0.1968
H11 H 0.5805 -0.5078 0.2054
H12 H 0.5253 -0.4531 0.0977
C11 C 0.51282(17) 0.1116(3) 0.0451(3)
C12 C 0.70054(16) 0.3111(3) -0.0022(3)
C13 C 0.6450(2) 0.3774(4) -0.0068(4)
H13 H 0.6292 0.3308 0.0286
H14 H 0.6095 0.3886 -0.0782
H15 H 0.6603 0.4554 0.0262
C14 C 0.5252(2) 0.2347(4) 0.0933(4)
H16 H 0.5687 0.2618 0.1142
H17 H 0.5221 0.2307 0.1532
H18 H 0.4927 0.2909 0.0437
Ag1C Ag 0.831597(13) 0.62018(3) 0.38064(3)
Ag1C_2 Ag 0.831597(13) -0.37982(3) 0.38064(3)
Ag1D Ag 0.331597(13) -0.12018(3) -0.11936(3)
Ag1F Ag 0.831597(13) 0.37982(3) -0.11936(3)
S1C S 0.76934(4) 0.29402(8) 0.35660(7)
O1C O 0.77633(14) 0.1804(3) 0.4096(2)
O2C O 0.79137(16) 0.3985(2) 0.4245(2)
O3C O 0.70329(13) 0.3098(3) 0.2640(2)
O3_2 O 0.79671(13) 0.8098(3) 0.2360(2)
N1D N 0.44065(13) -0.0581(3) -0.0362(2)
N1C N 0.94065(13) 0.5581(3) 0.4638(2)
N2F N 0.78159(13) 0.2974(3) -0.0456(2)
N2C N 0.78159(13) 0.7026(3) 0.4544(2)
N3C N 0.78877(17) 0.4875(3) 0.2362(3)
H1C H 0.7797(13) 0.541(3) 0.190(3)
H2C H 0.7493(10) 0.465(4) 0.215(3)
C1F C 0.73249(17) 0.3572(3) -0.0473(3)
H3F H 0.7194 0.4326 -0.0801
C2C C 0.90765(18) 0.1731(4) 0.3058(3)
C3C C 0.86209(17) 0.1823(3) 0.3341(3)
H4C H 0.8575 0.1178 0.3691
C4C C 0.91416(19) 0.2737(4) 0.2569(3)
H5C H 0.9459 0.2709 0.2401
C5C C 0.82331(16) 0.2849(3) 0.3115(2)
C6D C 0.45344(16) 0.0509(3) 0.0080(3)
H6D H 0.4211 0.0883 0.0143
C7C C 0.8759(2) 0.3776(3) 0.2320(3)
C8C C 0.8856(3) 0.4841(4) 0.1794(4)
H7C H 0.8551 0.5479 0.1686
H8C H 0.8775 0.4585 0.1136
H9C H 0.9302 0.5136 0.2227
C9C C 0.82844(17) 0.3827(3) 0.2576(3)
C10C C 0.9483(2) 0.0606(4) 0.3285(4)
H10C H 0.9768 0.0705 0.3032
H11C H 0.9195 -0.0078 0.2946
H12C H 0.9747 0.0469 0.4023
C11D C 0.48718(17) -0.1116(3) -0.0451(3)
C12F C 0.79946(16) 0.1889(3) 0.0022(3)
C13F C 0.8550(2) 0.1226(4) 0.0068(4)
H13F H 0.8708 0.1692 -0.0286
H14F H 0.8905 0.1114 0.0782
H15F H 0.8397 0.0446 -0.0262
C14D C 0.4748(2) -0.2347(4) -0.0933(4)
H16D H 0.4313 -0.2618 -0.1142
H17D H 0.4779 -0.2307 -0.1532
H18D H 0.5073 -0.2909 -0.0437
O4 O 0.6240(2) -0.3286(6) -0.1305(4)
H19 H 0.647(4) -0.291(8) -0.072(4)
H20 H 0.646(4) -0.323(10) -0.161(6)
loop_
_geom_bond_atom_site_label_1
_geom_bond_atom_site_label_2
_geom_bond_site_symmetry_1
_geom_bond_site_symmetry_2
Ag1 O2 1_555 1_555
S1 O1 1_555 1_555
O2 S1 1_555 1_555
O3 S1 1_555 1_555
N1 Ag1 1_555 1_555
N2 Ag1 1_555 1_555
N3 Ag1 1_555 1_555
H1 N3 1_555 1_555
H2 N3 1_555 1_555
C1 N2 1_555 1_555
H3 C1 1_555 1_555
C2 C3 1_555 1_555
C3 H4 1_555 1_555
C4 C2 1_555 1_555
H5 C4 1_555 1_555
C5 S1 1_555 1_555
C6 N1 1_555 1_555
H6 C6 1_555 1_555
C7 C4 1_555 1_555
C8 C7 1_555 1_555
H7 C8 1_555 1_555
H8 C8 1_555 1_555
H9 C8 1_555 1_555
C9 N3 1_555 1_555
C10 C2 1_555 1_555
H10 C10 1_555 1_555
H11 C10 1_555 1_555
H12 C10 1_555 1_555
C11 N1 1_555 1_555
C12 N2 1_555 1_555
C13 C12 1_555 1_555
H13 C13 1_555 1_555
H14 C13 1_555 1_555
H15 C13 1_555 1_555
C14 C11 1_555 1_555
H16 C14 1_555 1_555
H17 C14 1_555 1_555
H18 C14 1_555 1_555
O4 H19 1_555 1_555
H20 O4 1_555 1_555
Ag1C O2C 1_555 1_555
Ag1C_2 O3 1_555 1_555
Ag1D N1D 1_555 1_555
Ag1F N2F 1_555 1_555
S1C O1C 1_555 1_555
O2C S1C 1_555 1_555
O3C Ag1 1_555 1_555
O3_2 Ag1C 1_555 1_555
N1D C6D 1_555 1_555
N1C Ag1C 1_555 1_555
N2F C1F 1_555 1_555
N2C Ag1C 1_555 1_555
N3C Ag1C 1_555 1_555
H1C N3C 1_555 1_555
H2C N3C 1_555 1_555
C1F C12 1_555 1_555
H3F C1F 1_555 1_555
C2C C3C 1_555 1_555
C3C H4C 1_555 1_555
C4C C2C 1_555 1_555
H5C C4C 1_555 1_555
C5C S1C 1_555 1_555
C6D C11 1_555 1_555
H6D C6D 1_555 1_555
C7C C4C 1_555 1_555
C8C C7C 1_555 1_555
H7C C8C 1_555 1_555
H8C C8C 1_555 1_555
H9C C8C 1_555 1_555
C9C N3C 1_555 1_555
C10C C2C 1_555 1_555
H10C C10C 1_555 1_555
H11C C10C 1_555 1_555
H12C C10C 1_555 1_555
C11D C6 1_555 1_555
C12F C1 1_555 1_555
C13F C12F 1_555 1_555
H13F C13F 1_555 1_555
H14F C13F 1_555 1_555
H15F C13F 1_555 1_555
C14D C11D 1_555 1_555
H16D C14D 1_555 1_555
H17D C14D 1_555 1_555
H18D C14D 1_555 1_555
C3 C5 1_555 1_555
C5 C9 1_555 1_555
C7 C9 1_555 1_555
S1C O3C 1_555 1_555
N1D C11D 1_555 1_555
N2F C12F 1_555 1_555
C3C C5C 1_555 1_555
C5C C9C 1_555 1_555
C7C C9C 1_555 1_555

#END
