
#######################################################################
#
#                 Cambridge Crystallographic Data Centre
#                                CCDC 
#
#######################################################################
#
# If this CIF has been generated from an entry in the Cambridge 
# Structural Database, then it will include bibliographic, chemical, 
# crystal, experimental, refinement or atomic coordinate data resulting 
# from the CCDC's data processing and validation procedures.
#
#######################################################################

data_LUMQEQ
_symmetry_cell_setting           orthorhombic
_symmetry_space_group_name_H-M   'P n a 21'
_symmetry_Int_Tables_number      33
_space_group_name_Hall           'P 2c -2n'
loop_
_symmetry_equiv_pos_site_id
_symmetry_equiv_pos_as_xyz
1 x,y,z
2 -x,-y,1/2+z
3 1/2-x,1/2+y,1/2+z
4 1/2+x,1/2-y,z
_cell_length_a                   14.2740(2)
_cell_length_b                   8.2430(2)
_cell_length_c                   12.6120(4)
_cell_angle_alpha                90
_cell_angle_beta                 90
_cell_angle_gamma                90
_cell_volume                     1483.94
loop_
_atom_site_label
_atom_site_type_symbol
_atom_site_fract_x
_atom_site_fract_y
_atom_site_fract_z
Ag1 Ag 0.493057(10) 0.31070(2) 0.67460(3)
C1 C 0.36865(15) 0.5184(3) 0.88796(16)
C2 C 0.27610(16) 0.5151(3) 0.91981(19)
H1 H 0.2602 0.4605 0.9818
C3 C 0.20611(18) 0.5914(3) 0.8616(2)
C4 C 0.23388(19) 0.6770(3) 0.7717(2)
H2 H 0.1885 0.7313 0.7324
C5 C 0.3267(2) 0.6847(3) 0.73833(19)
C6 C 0.39519(16) 0.6007(2) 0.79488(16)
C7 C 0.10455(19) 0.5789(4) 0.8956(3)
H3 H 0.0659 0.6382 0.8469
H4 H 0.0976 0.6234 0.9655
H5 H 0.0858 0.4670 0.8961
C8 C 0.3528(3) 0.7793(4) 0.6405(2)
H6 H 0.4192 0.7725 0.6295
H7 H 0.3351 0.8908 0.6495
H8 H 0.3208 0.7349 0.5802
C9 C 0.28571(17) 0.3361(3) 0.5955(2)
H9 H 0.3150 0.3924 0.5409
C10 C 0.29362(19) 0.1870(3) 0.7462(2)
H10 H 0.3281 0.1369 0.7995
C11 C 0.19747(19) 0.1795(3) 0.7491(2)
H11 H 0.1683 0.1242 0.8043
C12 C 0.18841(16) 0.3305(3) 0.59733(18)
C13 C 0.1317(2) 0.4145(4) 0.5143(3)
H12 H 0.0663 0.3986 0.5285
H13 H 0.1468 0.3705 0.4459
H14 H 0.1456 0.5284 0.5152
N1 N 0.48679(15) 0.5887(3) 0.75732(17)
H15 H 0.5136(12) 0.646(5) 0.714(3)
H16 H 0.5237(19) 0.586(4) 0.811(2)
N2 N 0.33859(12) 0.2648(2) 0.6682(2)
N3 N 0.14475(11) 0.2501(2) 0.67414(19)
O1 O 0.40715(15) 0.3511(3) 1.05594(13)
O2 O 0.48081(15) 0.2734(3) 0.89177(18)
O3 O 0.52943(15) 0.5191(3) 0.98172(16)
S1 S 0.45293(4) 0.40617(6) 0.96054(4)
Ag1C Ag -0.006943(10) 0.18930(2) 0.67460(3)
N3C N 0.64475(11) 0.2499(2) 0.67414(19)
loop_
_geom_bond_atom_site_label_1
_geom_bond_atom_site_label_2
_geom_bond_site_symmetry_1
_geom_bond_site_symmetry_2
Ag1 N1 1_555 1_555
C1 C2 1_555 1_555
C2 H1 1_555 1_555
C3 C2 1_555 1_555
C4 C3 1_555 1_555
H2 C4 1_555 1_555
C5 C4 1_555 1_555
C6 C1 1_555 1_555
C7 C3 1_555 1_555
H3 C7 1_555 1_555
H4 C7 1_555 1_555
H5 C7 1_555 1_555
C8 C5 1_555 1_555
H6 C8 1_555 1_555
H7 C8 1_555 1_555
H8 C8 1_555 1_555
C9 H9 1_555 1_555
C10 H10 1_555 1_555
C11 C10 1_555 1_555
H11 C11 1_555 1_555
C12 C9 1_555 1_555
C13 C12 1_555 1_555
H12 C13 1_555 1_555
H13 C13 1_555 1_555
H14 C13 1_555 1_555
N1 C6 1_555 1_555
H15 N1 1_555 1_555
H16 N1 1_555 1_555
N2 Ag1 1_555 1_555
N3 C11 1_555 1_555
O1 S1 1_555 1_555
O2 Ag1 1_555 1_555
O3 S1 1_555 1_555
S1 C1 1_555 1_555
Ag1C N3 1_555 1_555
N3C Ag1 1_555 1_555
C5 C6 1_555 1_555
C9 N2 1_555 1_555
C10 N2 1_555 1_555
C12 N3 1_555 1_555
O2 S1 1_555 1_555

#END
