
#######################################################################
#
#                 Cambridge Crystallographic Data Centre
#                                CCDC 
#
#######################################################################
#
# If this CIF has been generated from an entry in the Cambridge 
# Structural Database, then it will include bibliographic, chemical, 
# crystal, experimental, refinement or atomic coordinate data resulting 
# from the CCDC's data processing and validation procedures.
#
#######################################################################

data_LUMQOB
_symmetry_cell_setting           rhombohedral
_symmetry_space_group_name_H-M   'R -3'
_symmetry_Int_Tables_number      148
_space_group_name_Hall           '-R 3'
loop_
_symmetry_equiv_pos_site_id
_symmetry_equiv_pos_as_xyz
1 x,y,z
2 -y,x-y,z
3 -x+y,-x,z
4 2/3+x,1/3+y,1/3+z
5 2/3-y,1/3+x-y,1/3+z
6 2/3-x+y,1/3-x,1/3+z
7 1/3+x,2/3+y,2/3+z
8 1/3-y,2/3+x-y,2/3+z
9 1/3-x+y,2/3-x,2/3+z
10 -x,-y,-z
11 y,-x+y,-z
12 x-y,x,-z
13 1/3-x,2/3-y,2/3-z
14 1/3+y,2/3-x+y,2/3-z
15 1/3+x-y,2/3+x,2/3-z
16 2/3-x,1/3-y,1/3-z
17 2/3+y,1/3-x+y,1/3-z
18 2/3+x-y,1/3+x,1/3-z
_cell_length_a                   26.861(3)
_cell_length_b                   26.861(3)
_cell_length_c                   7.0282(15)
_cell_angle_alpha                90
_cell_angle_beta                 90
_cell_angle_gamma                120
_cell_volume                     4391.56
loop_
_atom_site_label
_atom_site_type_symbol
_atom_site_fract_x
_atom_site_fract_y
_atom_site_fract_z
Cu1 Cu 0.456900(19) 1.012217(19) 0.90457(6)
Cl1 Cl 0.43863(6) 0.78895(6) 0.28119(19)
O1 O 0.48793(10) 0.96099(11) 0.8778(3)
N1 N 0.42709(13) 0.99801(12) 0.6497(4)
C1 C 0.44606(15) 0.92148(15) 0.5725(5)
C2 C 0.43583(16) 0.88056(16) 0.4281(5)
H1 H 0.4201 0.8825 0.3124
O2 O 0.42974(12) 1.06646(12) 0.9127(4)
C3 C 0.40493(17) 1.03576(17) 0.5922(5)
H2 H 0.3656 1.0128 0.5480
H3 H 0.4279 1.0604 0.4886
C4 C 0.42646(15) 0.96167(15) 0.5304(5)
H4 H 0.4125 0.9610 0.4088
C5 C 0.40713(16) 1.07209(16) 0.7600(5)
C6 C 0.47144(18) 0.83428(18) 0.6333(6)
H5 H 0.4785 0.8042 0.6558
C7 C 0.44903(18) 0.83824(18) 0.4588(6)
C8 C 0.48322(18) 0.87489(17) 0.7726(6)
H6 H 0.4983 0.8720 0.8884
C9 C 0.47284(14) 0.92027(15) 0.7426(5)
O3 O 0.38689(13) 1.10410(13) 0.7465(4)
Cu1G Cu 0.321116(19) 1.111350(27) 0.57124(6)
Cu1I Cu 0.543100(19) 0.987783(19) 1.09543(6)
O1I O 0.51207(10) 1.03901(11) 1.1222(3)
O3E O 0.38388(18) 0.94644(13) 1.0798(4)
loop_
_geom_bond_atom_site_label_1
_geom_bond_atom_site_label_2
_geom_bond_site_symmetry_1
_geom_bond_site_symmetry_2
Cu1 O1 1_555 1_555
Cl1 C7 1_555 1_555
O1 C9 1_555 1_555
N1 Cu1 1_555 1_555
C1 C2 1_555 1_555
C2 H1 1_555 1_555
O2 Cu1 1_555 1_555
C3 N1 1_555 1_555
H2 C3 1_555 1_555
H3 C3 1_555 1_555
C4 N1 1_555 1_555
H4 C4 1_555 1_555
C5 O2 1_555 1_555
C6 H5 1_555 1_555
C7 C2 1_555 1_555
C8 C6 1_555 1_555
H6 C8 1_555 1_555
C9 C1 1_555 1_555
O3 C5 1_555 1_555
Cu1G O3 1_555 1_555
Cu1I O1 1_555 1_555
O1I Cu1 1_555 1_555
O3E Cu1 1_555 1_555
C1 C4 1_555 1_555
C3 C5 1_555 1_555
C6 C7 1_555 1_555
C8 C9 1_555 1_555
Cu1I O1I 1_555 1_555

#END
