
#######################################################################
#
#                 Cambridge Crystallographic Data Centre
#                                CCDC 
#
#######################################################################
#
# If this CIF has been generated from an entry in the Cambridge 
# Structural Database, then it will include bibliographic, chemical, 
# crystal, experimental, refinement or atomic coordinate data resulting 
# from the CCDC's data processing and validation procedures.
#
#######################################################################

data_LUMSIX
_symmetry_cell_setting           triclinic
_symmetry_space_group_name_H-M   'P -1'
_symmetry_Int_Tables_number      2
_space_group_name_Hall           '-P 1'
loop_
_symmetry_equiv_pos_site_id
_symmetry_equiv_pos_as_xyz
1 x,y,z
2 -x,-y,-z
_cell_length_a                   9.416(10)
_cell_length_b                   13.109(13)
_cell_length_c                   14.79(2)
_cell_angle_alpha                107.65(3)
_cell_angle_beta                 100.19(3)
_cell_angle_gamma                106.91(2)
_cell_volume                     1592.52
loop_
_atom_site_label
_atom_site_type_symbol
_atom_site_fract_x
_atom_site_fract_y
_atom_site_fract_z
C1 C 0.8219(16) 0.7154(13) 0.4264(10)
C2 C 0.835(2) 0.6096(16) 0.4129(12)
H1 H 0.7761 0.5615 0.4386
C3 C 0.8844(19) 0.7747(16) 0.3700(12)
H2 H 0.8596 0.8378 0.3678
C4 C 0.8427(18) 0.8654(14) 0.6154(11)
C5 C 0.798(2) 0.8990(15) 0.7015(15)
H3 H 0.6942 0.8643 0.6968
C6 C 0.621(3) 1.0204(18) 0.426(2)
H4 H 0.6612 1.1003 0.4477
C7 C 0.628(2) 0.8449(14) 0.4486(14)
C8 C 0.695(2) 0.9652(17) 0.4812(15)
H5 H 0.7832 1.0078 0.5354
C9 C 0.258(2) 0.6793(14) 0.5752(12)
H6 H 0.2250 0.6584 0.5069
C10 C 0.1694(19) 0.7098(15) 0.6303(12)
H7 H 0.0776 0.7148 0.6000
C11 C 0.209(2) 0.7342(16) 0.7298(15)
C12 C 0.341(3) 0.7324(14) 0.7677(16)
H8 H 0.3729 0.7513 0.8358
C13 C 0.4390(19) 0.7049(13) 0.7159(14)
H9 H 0.5330 0.7047 0.7482
C14 C 0.936(2) 0.5722(14) 0.3604(16)
H10 H 0.9611 0.5089 0.3615
C15 C 0.9984(19) 0.9192(15) 0.6241(12)
H11 H 1.0362 0.9037 0.5695
C16 C 1.091(3) 0.9932(17) 0.7130(19)
H12 H 1.1962 1.0244 0.7198
C17 C 1.045(2) 1.0253(15) 0.7914(12)
H13 H 1.1132 1.0816 0.8510
C18 C 0.882(3) 0.9689(19) 0.7815(14)
H14 H 0.8432 0.9863 0.8356
C19 C 0.981(2) 0.7428(18) 0.3179(13)
H15 H 1.0356 0.7932 0.2924
C20 C 1.000(3) 0.6452(18) 0.3025(14)
H16 H 1.0507 0.6199 0.2570
C21 C 0.101(2) 0.7615(13) 0.7915(14)
H17 H 0.0019 0.7552 0.7611
C22 C 0.500(3) 0.792(2) 0.361(2)
H18 H 0.4544 0.7119 0.3343
C23 C 0.444(3) 0.850(3) 0.3153(19)
H19 H 0.3606 0.8098 0.2581
C24 C 0.504(4) 0.966(2) 0.349(2)
H20 H 0.4597 1.0050 0.3170
C25 C 0.034(3) 0.750(2) 1.0068(18)
H21 H 0.1381 0.7839 1.0515
H22 H -0.0369 0.7622 1.0459
C26 C -0.006(3) 0.627(2) 0.9560(15)
H23 H 0.0648 0.6172 0.9167
H24 H -0.1095 0.5958 0.9104
C27 C -0.002(3) 0.560(2) 1.0186(19)
H25 H -0.0912 0.5548 1.0433
H26 H 0.0891 0.6063 1.0755
N1 N 0.3989(16) 0.6783(11) 0.6183(11)
N2 N 0.1474(18) 0.7918(14) 0.8817(13)
C28 C 0.023(2) 0.8051(18) 0.9352(16)
H27 H 0.0404 0.8801 0.9663
H28 H -0.0721 0.7713 0.8912
P1 P 0.7010(5) 0.7595(4) 0.5016(3)
Cu1 Cu 0.5289(2) 0.62451(16) 0.52979(15)
I1 I 0.31873(14) 0.46604(10) 0.36564(9)
C9A C -0.258(2) 0.3207(14) 1.4248(12)
H6A H -0.2250 0.3416 1.4931
C10A C -0.1694(19) 0.2902(15) 1.3697(12)
H7A H -0.0776 0.2852 1.4000
C11A C -0.209(2) 0.2658(16) 1.2702(15)
C12A C -0.341(3) 0.2676(14) 1.2323(16)
H8A H -0.3729 0.2487 1.1642
C13A C -0.4390(19) 0.2951(13) 1.2841(14)
H9A H -0.5330 0.2953 1.2518
C21A C -0.101(2) 0.2385(13) 1.2085(14)
H17A H -0.0019 0.2448 1.2389
C25A C -0.034(3) 0.250(2) 0.9932(18)
H21A H -0.1381 0.2161 0.9485
H22A H 0.0369 0.2378 0.9541
C26A C 0.006(3) 0.373(2) 1.0440(15)
H23A H -0.0648 0.3828 1.0833
H24A H 0.1095 0.4042 1.0896
C27A C 0.002(3) 0.440(2) 0.9814(19)
H25A H 0.0912 0.4452 0.9567
H26A H -0.0891 0.3937 0.9245
N1A N -0.3989(16) 0.3217(11) 1.3817(11)
N2A N -0.1474(18) 0.2082(14) 1.1183(13)
C28A C -0.023(2) 0.1949(18) 1.0648(16)
H27A H -0.0404 0.1199 1.0337
H28A H 0.0721 0.2287 1.1088
C1A C -0.8219(16) 0.2846(13) 1.5736(10)
C2A C -0.835(2) 0.3904(16) 1.5871(12)
H1A H -0.7761 0.4385 1.5614
C3A C -0.8844(19) 0.2253(16) 1.6300(12)
H2A H -0.8596 0.1622 1.6322
C4A C -0.8427(18) 0.1346(14) 1.3846(11)
C5A C -0.798(2) 0.1010(15) 1.2985(15)
H3A H -0.6942 0.1357 1.3032
C6A C -0.621(3) -0.0204(18) 1.574(2)
H4A H -0.6612 -0.1003 1.5523
C7A C -0.628(2) 0.1551(14) 1.5514(14)
C8A C -0.695(2) 0.0348(17) 1.5188(15)
H5A H -0.7832 -0.0078 1.4646
C14A C -0.936(2) 0.4278(14) 1.6396(16)
H10A H -0.9611 0.4911 1.6385
C15A C -0.9984(19) 0.0808(15) 1.3759(12)
H11A H -1.0362 0.0963 1.4305
C16A C -1.091(3) 0.0068(17) 1.2870(19)
H12A H -1.1962 -0.0244 1.2802
C17A C -1.045(2) -0.0253(15) 1.2086(12)
H13A H -1.1132 -0.0816 1.1490
C18A C -0.882(3) 0.0311(19) 1.2185(14)
H14A H -0.8432 0.0137 1.1644
C19A C -0.981(2) 0.2572(18) 1.6821(13)
H15A H -1.0356 0.2068 1.7076
C20A C -1.000(3) 0.3548(18) 1.6975(14)
H16A H -1.0507 0.3801 1.7430
C22A C -0.500(3) 0.208(2) 1.639(2)
H18A H -0.4544 0.2881 1.6657
C23A C -0.444(3) 0.150(3) 1.6847(19)
H19A H -0.3606 0.1902 1.7419
C24A C -0.504(4) 0.034(2) 1.651(2)
H20A H -0.4597 -0.0050 1.6830
P1A P -0.7010(5) 0.2405(4) 1.4984(3)
Cu1A Cu -0.5289(2) 0.37549(16) 1.47021(15)
I1A I -0.31873(14) 0.53396(10) 1.63436(9)
Cu1_2 Cu -0.4711(2) 0.62451(16) 1.52979(15)
Cu1A_2 Cu 0.4711(2) 0.37549(16) 0.47021(15)
I1_2 I -0.68127(14) 0.46604(10) 1.36564(9)
I1A_2 I 0.68127(14) 0.53396(10) 0.63436(9)
O1 O 0.633(4) 0.875(4) -0.002(3)
loop_
_geom_bond_atom_site_label_1
_geom_bond_atom_site_label_2
_geom_bond_site_symmetry_1
_geom_bond_site_symmetry_2
C1 C2 1_555 1_555
C2 H1 1_555 1_555
C3 C1 1_555 1_555
H2 C3 1_555 1_555
C4 C5 1_555 1_555
C5 H3 1_555 1_555
C6 H4 1_555 1_555
C7 C8 1_555 1_555
C8 C6 1_555 1_555
H5 C8 1_555 1_555
C9 H6 1_555 1_555
C10 C9 1_555 1_555
H7 C10 1_555 1_555
C11 C10 1_555 1_555
C12 C11 1_555 1_555
H8 C12 1_555 1_555
C13 C12 1_555 1_555
H9 C13 1_555 1_555
C14 C2 1_555 1_555
H10 C14 1_555 1_555
C15 C4 1_555 1_555
H11 C15 1_555 1_555
C16 C15 1_555 1_555
H12 C16 1_555 1_555
C17 C16 1_555 1_555
H13 C17 1_555 1_555
C18 C5 1_555 1_555
H14 C18 1_555 1_555
C19 C3 1_555 1_555
H15 C19 1_555 1_555
C20 C14 1_555 1_555
H16 C20 1_555 1_555
C21 C11 1_555 1_555
H17 C21 1_555 1_555
C22 C7 1_555 1_555
H18 C22 1_555 1_555
C23 C22 1_555 1_555
H19 C23 1_555 1_555
C24 C6 1_555 1_555
H20 C24 1_555 1_555
C25 H21 1_555 1_555
H22 C25 1_555 1_555
C26 C25 1_555 1_555
H23 C26 1_555 1_555
H24 C26 1_555 1_555
C27 C26 1_555 1_555
H25 C27 1_555 1_555
H26 C27 1_555 1_555
N1 C9 1_555 1_555
N2 C21 1_555 1_555
C28 C25 1_555 1_555
H27 C28 1_555 1_555
H28 C28 1_555 1_555
P1 C1 1_555 1_555
Cu1 N1 1_555 1_555
I1 Cu1 1_555 1_555
C9A H6A 1_555 1_555
C10A C9A 1_555 1_555
H7A C10A 1_555 1_555
C11A C10A 1_555 1_555
C12A C11A 1_555 1_555
H8A C12A 1_555 1_555
C13A C12A 1_555 1_555
H9A C13A 1_555 1_555
C21A C11A 1_555 1_555
H17A C21A 1_555 1_555
C25A H21A 1_555 1_555
H22A C25A 1_555 1_555
C26A C25A 1_555 1_555
H23A C26A 1_555 1_555
H24A C26A 1_555 1_555
C27A C27 1_555 1_555
H25A C27A 1_555 1_555
H26A C27A 1_555 1_555
N1A C9A 1_555 1_555
N2A C21A 1_555 1_555
C28A C25A 1_555 1_555
H27A C28A 1_555 1_555
H28A C28A 1_555 1_555
C1A C2A 1_555 1_555
C2A H1A 1_555 1_555
C3A C1A 1_555 1_555
H2A C3A 1_555 1_555
C4A C5A 1_555 1_555
C5A H3A 1_555 1_555
C6A H4A 1_555 1_555
C7A C8A 1_555 1_555
C8A C6A 1_555 1_555
H5A C8A 1_555 1_555
C14A C2A 1_555 1_555
H10A C14A 1_555 1_555
C15A C4A 1_555 1_555
H11A C15A 1_555 1_555
C16A C15A 1_555 1_555
H12A C16A 1_555 1_555
C17A C16A 1_555 1_555
H13A C17A 1_555 1_555
C18A C5A 1_555 1_555
H14A C18A 1_555 1_555
C19A C3A 1_555 1_555
H15A C19A 1_555 1_555
C20A C14A 1_555 1_555
H16A C20A 1_555 1_555
C22A C7A 1_555 1_555
H18A C22A 1_555 1_555
C23A C22A 1_555 1_555
H19A C23A 1_555 1_555
C24A C6A 1_555 1_555
H20A C24A 1_555 1_555
P1A C1A 1_555 1_555
Cu1A N1A 1_555 1_555
I1A Cu1A 1_555 1_555
Cu1_2 I1A 1_555 1_555
Cu1A_2 I1 1_555 1_555
I1_2 Cu1A 1_555 1_555
I1A_2 Cu1 1_555 1_555
C4 P1 1_555 1_555
C7 P1 1_555 1_555
C13 N1 1_555 1_555
C17 C18 1_555 1_555
C19 C20 1_555 1_555
C23 C24 1_555 1_555
N2 C28 1_555 1_555
P1 Cu1 1_555 1_555
C13A N1A 1_555 1_555
C26A C27A 1_555 1_555
N2A C28A 1_555 1_555
C4A P1A 1_555 1_555
C7A P1A 1_555 1_555
C17A C18A 1_555 1_555
C19A C20A 1_555 1_555
C23A C24A 1_555 1_555
P1A Cu1A 1_555 1_555
Cu1_2 I1_2 1_555 1_555
Cu1A_2 I1A_2 1_555 1_555

#END
