
#######################################################################
#
#                 Cambridge Crystallographic Data Centre
#                                CCDC 
#
#######################################################################
#
# If this CIF has been generated from an entry in the Cambridge 
# Structural Database, then it will include bibliographic, chemical, 
# crystal, experimental, refinement or atomic coordinate data resulting 
# from the CCDC's data processing and validation procedures.
#
#######################################################################

data_LUMYUP
_symmetry_cell_setting           monoclinic
_symmetry_space_group_name_H-M   'C 2/c'
_symmetry_Int_Tables_number      15
_space_group_name_Hall           '-C 2yn'
loop_
_symmetry_equiv_pos_site_id
_symmetry_equiv_pos_as_xyz
1 x,y,z
2 -x,y,1/2-z
3 1/2+x,1/2+y,z
4 1/2-x,1/2+y,1/2-z
5 -x,-y,-z
6 x,-y,1/2+z
7 1/2-x,1/2-y,-z
8 1/2+x,1/2-y,1/2+z
_cell_length_a                   24.225(5)
_cell_length_b                   9.6254(19)
_cell_length_c                   16.370(3)
_cell_angle_alpha                90
_cell_angle_beta                 118.54(3)
_cell_angle_gamma                90
_cell_volume                     3353.24
loop_
_atom_site_label
_atom_site_type_symbol
_atom_site_fract_x
_atom_site_fract_y
_atom_site_fract_z
Cu1 Cu 0.04177(3) 0.38001(6) 0.37793(4)
Cu2 Cu 0.04178(3) 0.18003(6) 0.03391(4)
N1 N 0.13637(18) 0.0155(4) 0.5255(3)
N2 N 0.07839(18) 0.0027(4) 0.5174(3)
N3 N 0.04587(18) 0.1161(4) 0.4808(3)
N4 N 0.08105(18) 0.2062(4) 0.4632(3)
N5 N 0.14096(19) 0.2142(4) 0.2440(3)
N6 N 0.08322(18) 0.2375(4) 0.1744(3)
N7 N 0.04843(18) 0.2956(4) 0.2062(3)
N8 N 0.08235(18) 0.3099(4) 0.2987(3)
N9 N 0.0406(2) 0.4388(6) -0.0749(3)
C1 C 0.2513(2) 0.3018(5) 0.4226(3)
H1 H 0.2521 0.3366 0.3701
C2 C 0.1946(2) 0.2544(5) 0.4143(3)
C3 C 0.1928(2) 0.2010(5) 0.4928(3)
C4 C 0.1363(2) 0.1417(5) 0.4914(3)
C5 C 0.1389(2) 0.2581(5) 0.3201(3)
C6 C 0.0394(2) 0.3361(5) -0.0421(3)
N1F N 0.36363(18) 0.4845(4) 0.4745(3)
N2F N 0.42161(18) 0.4973(4) 0.4826(3)
N3F N 0.45413(18) 0.3839(4) 0.5192(3)
N4F N 0.41895(18) 0.2938(4) 0.5368(3)
N5F N 0.35904(19) 0.2858(4) 0.7560(3)
N6F N 0.41678(18) 0.2625(4) 0.8256(3)
N7F N 0.45157(18) 0.2044(4) 0.7938(3)
N8F N 0.41765(18) 0.1901(4) 0.7013(3)
C1F C 0.2487(2) 0.1982(5) 0.5774(3)
H1F H 0.2479 0.1634 0.6299
C2F C 0.3054(2) 0.2456(5) 0.5857(3)
C3F C 0.3072(2) 0.2990(5) 0.5072(3)
C4F C 0.3637(2) 0.3583(5) 0.5086(3)
C5F C 0.3611(2) 0.2419(5) 0.6799(3)
Cu1A Cu -0.04177(3) 0.38001(6) 0.12207(4)
Cu2A Cu -0.04178(3) 0.18003(6) 0.46609(4)
N9A N -0.0406(2) 0.4388(6) 0.5749(3)
C6A C -0.0394(2) 0.3361(5) 0.5421(3)
Cu1D Cu -0.04177(3) 0.61999(6) 0.62207(4)
Cu1E Cu 0.04177(3) 0.61999(6) -0.12207(4)
Cu1F Cu 0.45823(3) 0.11999(6) 0.62207(4)
Cu1G Cu 0.54177(3) 0.11999(6) 0.87793(4)
Cu2C Cu 0.45822(3) 0.68003(6) 0.46609(4)
Cu2E Cu 0.04178(3) -0.18003(6) 0.53391(4)
Cu2F Cu 0.45822(3) 0.31997(6) 0.96609(4)
Cu2G Cu 0.54178(3) 0.31997(6) 0.53391(4)
N2D N -0.07839(18) -0.0027(4) 0.4826(3)
N2E N 0.07839(18) -0.0027(4) 0.0174(3)
N3A N -0.04587(18) 0.1161(4) 0.0192(3)
N4A N -0.08105(18) 0.2062(4) 0.0368(3)
N6A N -0.08322(18) 0.2375(4) 0.3256(3)
N7A N -0.04843(18) 0.2956(4) 0.2938(3)
N8A N -0.08235(18) 0.3099(4) 0.2013(3)
N9D N -0.0406(2) 0.5612(6) 0.0749(3)
N9E N 0.0406(2) 0.5612(6) 0.4251(3)
O1 O 0.2820(3) 0.3196(8) 0.8429(5)
N10 N 0.1588(3) 0.2687(7) 0.7893(5)
H2 H 0.2009 0.2752 0.8103
C7 C 0.1424(7) 0.4287(12) 0.6582(8)
H3 H 0.1332 0.5045 0.6879
H4 H 0.1196 0.4407 0.5920
H5 H 0.1867 0.4269 0.6782
C8 C 0.1249(7) 0.3057(17) 0.6819(10)
H6 H 0.1328 0.2309 0.6490
H7 H 0.0799 0.3086 0.6598
C9 C 0.1842(6) 0.3649(14) 0.9446(9)
H8 H 0.1815 0.2731 0.9654
H9 H 0.1692 0.4313 0.9732
H10 H 0.2272 0.3852 0.9616
C10 C 0.1425(6) 0.3732(15) 0.8348(10)
H11 H 0.0986 0.3634 0.8184
H12 H 0.1479 0.4637 0.8135
C11 C 0.0734(6) 0.1003(13) 0.7610(10)
H13 H 0.0585 0.1757 0.7836
H14 H 0.0693 0.0147 0.7877
H15 H 0.0489 0.0955 0.6945
C12 C 0.1443(6) 0.1249(11) 0.7889(11)
H16 H 0.1705 0.0865 0.8503
H17 H 0.1540 0.0761 0.7455
loop_
_geom_bond_atom_site_label_1
_geom_bond_atom_site_label_2
_geom_bond_site_symmetry_1
_geom_bond_site_symmetry_2
Cu1 N4 1_555 1_555
Cu2 N6 1_555 1_555
N1 N2 1_555 1_555
N2 N3 1_555 1_555
N3 N4 1_555 1_555
N4 C4 1_555 1_555
N5 N6 1_555 1_555
N6 N7 1_555 1_555
N7 N8 1_555 1_555
N8 Cu1 1_555 1_555
N9 C6 1_555 1_555
C1 H1 1_555 1_555
C2 C1 1_555 1_555
C3 C2 1_555 1_555
C4 N1 1_555 1_555
C5 N5 1_555 1_555
C6 Cu2 1_555 1_555
N10 H2 1_555 1_555
C7 H3 1_555 1_555
H4 C7 1_555 1_555
H5 C7 1_555 1_555
C8 N10 1_555 1_555
H6 C8 1_555 1_555
H7 C8 1_555 1_555
C9 H8 1_555 1_555
H9 C9 1_555 1_555
H10 C9 1_555 1_555
C10 N10 1_555 1_555
H11 C10 1_555 1_555
H12 C10 1_555 1_555
C11 H13 1_555 1_555
H14 C11 1_555 1_555
H15 C11 1_555 1_555
C12 N10 1_555 1_555
H16 C12 1_555 1_555
H17 C12 1_555 1_555
N1F N2F 1_555 1_555
N2F N3F 1_555 1_555
N3F N4F 1_555 1_555
N4F C4F 1_555 1_555
N5F N6F 1_555 1_555
N6F N7F 1_555 1_555
N7F N8F 1_555 1_555
N8F C5F 1_555 1_555
C1F C3 1_555 1_555
H1F C1F 1_555 1_555
C2F C1F 1_555 1_555
C3F C1 1_555 1_555
C4F N1F 1_555 1_555
C5F N5F 1_555 1_555
Cu1A N7 1_555 1_555
Cu2A N3 1_555 1_555
N9A C6A 1_555 1_555
C6A Cu2A 1_555 1_555
Cu1D N9A 1_555 1_555
Cu1E N9 1_555 1_555
Cu1F N4F 1_555 1_555
Cu1G N7F 1_555 1_555
Cu2C N2F 1_555 1_555
Cu2E N2 1_555 1_555
Cu2F N6F 1_555 1_555
Cu2G N3F 1_555 1_555
N2D Cu2A 1_555 1_555
N2E Cu2 1_555 1_555
N3A Cu2 1_555 1_555
N4A Cu1A 1_555 1_555
N6A Cu2A 1_555 1_555
N7A Cu1 1_555 1_555
N8A Cu1A 1_555 1_555
N9D Cu1A 1_555 1_555
N9E Cu1 1_555 1_555
N8 C5 1_555 1_555
C2 C5 1_555 1_555
C3 C4 1_555 1_555
C7 C8 1_555 1_555
C9 C10 1_555 1_555
C11 C12 1_555 1_555
N8F Cu1F 1_555 1_555
C2F C3F 1_555 1_555
C2F C5F 1_555 1_555
C3F C4F 1_555 1_555
N3A N4A 1_555 1_555
N6A N7A 1_555 1_555
N7A N8A 1_555 1_555

#END
