
#######################################################################
#
#                 Cambridge Crystallographic Data Centre
#                                CCDC 
#
#######################################################################
#
# If this CIF has been generated from an entry in the Cambridge 
# Structural Database, then it will include bibliographic, chemical, 
# crystal, experimental, refinement or atomic coordinate data resulting 
# from the CCDC's data processing and validation procedures.
#
#######################################################################

data_LUNCUT
_symmetry_cell_setting           triclinic
_symmetry_space_group_name_H-M   'P -1'
_symmetry_Int_Tables_number      2
_space_group_name_Hall           '-P 1'
loop_
_symmetry_equiv_pos_site_id
_symmetry_equiv_pos_as_xyz
1 x,y,z
2 -x,-y,-z
_cell_length_a                   12.245(4)
_cell_length_b                   14.439(5)
_cell_length_c                   14.821(5)
_cell_angle_alpha                87.581(5)
_cell_angle_beta                 85.595(5)
_cell_angle_gamma                70.548(5)
_cell_volume                     2463.18
loop_
_atom_site_label
_atom_site_type_symbol
_atom_site_fract_x
_atom_site_fract_y
_atom_site_fract_z
Co1 Co 0.26951(3) 0.80898(3) 1.39333(2)
O11 O 0.14683(16) 0.74186(15) 1.38578(14)
H5 H 0.0839 0.7776 1.3641
H6 H 0.1611 0.6801 1.3859
O12 O 0.41537(15) 0.67872(14) 1.39046(13)
H7 H 0.4093 0.6245 1.3756
H8 H 0.4794 0.6881 1.3756
O13 O 0.38856(15) 0.88293(14) 1.39733(12)
H9 H 0.3691 0.9391 1.3712
H10 H 0.4537 0.8417 1.3799
O14 O 0.13507(16) 0.94782(14) 1.41063(13)
H11 H 0.0677 0.9436 1.4088
H12 H 0.1463 0.9789 1.4545
N7 N 0.25533(19) 0.79055(17) 1.53856(14)
N8 N 0.0734(2) 0.84271(19) 1.85698(15)
N9 N 0.0730(2) 0.8515(2) 1.94936(15)
N10 N 0.25368(18) 0.79085(16) 1.89438(14)
N11 N 0.3771(2) 0.75536(19) 1.89486(16)
H15 H 0.4083 0.6980 1.8660
H16 H 0.4077 0.8014 1.8737
N12 N 0.2632(2) 0.82455(18) 2.24519(15)
C13 C 0.2157(2) 0.79419(19) 1.72720(17)
C14 C 0.1290(3) 0.8001(3) 1.6706(2)
H25 H 0.0552 0.8046 1.6951
C15 C 0.1512(3) 0.7991(3) 1.5787(2)
H26 H 0.0906 0.8048 1.5424
C16 C 0.3394(2) 0.7811(2) 1.59326(18)
H27 H 0.4134 0.7729 1.5669
C17 C 0.3248(2) 0.7825(2) 1.68633(19)
H28 H 0.3872 0.7758 1.7211
C18 C 0.1830(2) 0.8068(2) 1.82492(17)
C19 C 0.1814(2) 0.8204(2) 1.97032(17)
C20 C 0.2160(2) 0.8211(2) 2.06347(18)
C21 C 0.3092(3) 0.7498(2) 2.0991(2)
H29 H 0.3577 0.6994 2.0630
C22 C 0.3296(3) 0.7544(3) 2.1889(2)
H30 H 0.3931 0.7061 2.2118
C23 C 0.1753(3) 0.8951(2) 2.20879(18)
H31 H 0.1297 0.9461 2.2455
C24 C 0.1489(3) 0.8960(2) 2.11990(18)
H32 H 0.0866 0.9464 2.0980
Co1_2 Co 0.26951(3) 0.80898(3) 2.39333(2)
N12_2 N 0.2632(2) 0.82455(18) 1.24519(15)
Co2 Co 0.20509(3) 0.27309(3) -0.77576(2)
O1 O 0.33181(18) 0.04812(18) -0.6998(2)
O2 O 0.37564(15) 0.17068(14) -0.77197(12)
O3 O 0.95678(16) -0.14760(15) -0.68777(14)
O4 O 0.90952(17) -0.04599(18) -0.57294(16)
O5 O 0.0090(2) 0.47980(18) -0.68027(19)
O6 O 0.03428(16) 0.35830(16) -0.77622(14)
O7 O -0.53356(19) 0.40839(18) -0.78521(18)
O8 O -0.5851(2) 0.50944(19) -0.6694(2)
O9 O 0.13688(17) 0.15705(16) -0.76494(16)
H1 H 0.1884 0.1047 -0.7479
H2 H 0.0920 0.1513 -0.8037
O10 O 0.25412(18) 0.40114(16) -0.79292(14)
H3 H 0.3240 0.3988 -0.7899
H4 H 0.2017 0.4487 -0.7670
N1 N 0.2232(2) 0.26751(18) -0.91963(15)
N2 N 0.3931(2) 0.2515(2) -1.23992(15)
N3 N 0.3893(2) 0.2559(2) -1.33239(15)
N4 N 0.21182(18) 0.28927(16) -1.27404(14)
N5 N 0.09013(19) 0.31915(19) -1.26067(16)
H13 H 0.0663 0.2720 -1.2816
H14 H 0.0587 0.3779 -1.2881
N6 N 0.21595(19) 0.28259(17) -1.63150(14)
C1 C 0.2569(2) 0.2729(2) -1.10773(18)
C2 C 0.3476(3) 0.2616(3) -1.05281(19)
H17 H 0.4214 0.2553 -1.0784
C3 C 0.3276(3) 0.2597(3) -0.96069(19)
H18 H 0.3890 0.2528 -0.9249
C4 C 0.1370(2) 0.2777(2) -0.97236(19)
H19 H 0.0645 0.2824 -0.9449
C5 C 0.1491(2) 0.2816(2) -1.06558(18)
H20 H 0.0857 0.2899 -1.0997
C6 C 0.2851(2) 0.2722(2) -1.20582(18)
C7 C 0.2799(2) 0.2784(2) -1.35252(18)
C8 C 0.2487(2) 0.2860(2) -1.44664(17)
C9 C 0.3272(3) 0.3025(3) -1.51298(19)
H21 H 0.3924 0.3155 -1.4966
C10 C 0.3082(2) 0.2996(3) -1.60247(19)
H22 H 0.3624 0.3101 -1.6455
C11 C 0.1387(2) 0.2709(2) -1.56787(19)
H23 H 0.0725 0.2611 -1.5862
C12 C 0.1511(3) 0.2722(2) -1.47627(19)
H24 H 0.0940 0.2639 -1.4347
C25 C 0.4021(2) 0.0900(2) -0.7304(2)
C26 C 0.5279(2) 0.0404(2) -0.71158(19)
C27 C 0.5573(2) 0.0265(2) -0.6240(2)
H33 H 0.4993 0.0428 -0.5773
C28 C 0.6741(2) -0.0121(2) -0.6035(2)
H34 H 0.6922 -0.0198 -0.5432
C29 C 0.7618(2) -0.03867(19) -0.67025(19)
C30 C 0.8852(2) -0.0797(2) -0.6420(2)
C31 C 0.7349(2) -0.02778(19) -0.76333(19)
C32 C 0.8202(2) -0.0516(2) -0.8371(2)
H35 H 0.8983 -0.0756 -0.8254
C33 C 0.7902(3) -0.0400(2) -0.9244(2)
H36 H 0.8478 -0.0558 -0.9714
C34 C 0.6731(3) -0.0044(2) -0.9441(2)
H37 H 0.6533 0.0015 -1.0039
C35 C 0.5882(3) 0.0215(2) -0.8759(2)
H38 H 0.5108 0.0457 -0.8897
C36 C 0.6161(2) 0.01193(19) -0.78428(19)
C37 C -0.0275(3) 0.4310(2) -0.7305(2)
C38 C -0.1576(2) 0.4553(2) -0.7350(2)
C39 C -0.2243(3) 0.4633(2) -0.6559(2)
H39 H -0.1922 0.4639 -0.6012
C40 C -0.3416(3) 0.4705(2) -0.6569(2)
H40 H -0.3857 0.4748 -0.6023
C41 C -0.3923(2) 0.4713(2) -0.7358(2)
C42 C -0.5138(3) 0.4639(2) -0.7309(3)
C43 C -0.3285(2) 0.4722(2) -0.8207(2)
C44 C -0.3782(3) 0.4853(3) -0.9050(3)
H41 H -0.4564 0.4925 -0.9065
C45 C -0.3153(3) 0.4876(3) -0.9839(3)
H42 H -0.3504 0.4961 -1.0386
C46 C -0.1967(3) 0.4771(3) -0.9831(3)
H43 H -0.1534 0.4786 -1.0372
C47 C -0.1456(3) 0.4647(2) -0.9034(2)
H44 H -0.0672 0.4575 -0.9037
C48 C -0.2085(2) 0.4627(2) -0.8199(2)
Co2_2 Co 0.20509(3) 0.27309(3) -1.77576(2)
N6_2 N 0.21595(19) 0.28259(17) -0.63150(14)
O15 O 0.1842(3) 0.5514(2) 0.3772(4)
H45 H 0.1514 0.5153 0.3543
H46 H 0.2564 0.5262 0.3847
O16 O 0.0625(11) 0.5121(12) 0.4851(10)
loop_
_geom_bond_atom_site_label_1
_geom_bond_atom_site_label_2
_geom_bond_site_symmetry_1
_geom_bond_site_symmetry_2
Co1 O11 1_555 1_555
Co2 O2 1_555 1_555
O1 C25 1_555 1_555
O2 C25 1_555 1_555
O3 C30 1_555 1_555
O4 C30 1_555 1_555
O5 C37 1_555 1_555
O6 Co2 1_555 1_555
O7 C42 1_555 1_555
O8 C42 1_555 1_555
O9 Co2 1_555 1_555
H1 O9 1_555 1_555
H2 O9 1_555 1_555
O10 Co2 1_555 1_555
H3 O10 1_555 1_555
H4 O10 1_555 1_555
O11 H5 1_555 1_555
H6 O11 1_555 1_555
O12 Co1 1_555 1_555
H7 O12 1_555 1_555
H8 O12 1_555 1_555
O13 Co1 1_555 1_555
H9 O13 1_555 1_555
H10 O13 1_555 1_555
O14 Co1 1_555 1_555
H11 O14 1_555 1_555
H12 O14 1_555 1_555
N1 Co2 1_555 1_555
N2 N3 1_555 1_555
N3 C7 1_555 1_555
N4 N5 1_555 1_555
N5 H13 1_555 1_555
H14 N5 1_555 1_555
N6 C10 1_555 1_555
N7 Co1 1_555 1_555
N8 N9 1_555 1_555
N9 C19 1_555 1_555
N10 N11 1_555 1_555
N11 H15 1_555 1_555
H16 N11 1_555 1_555
N12 C22 1_555 1_555
C1 C2 1_555 1_555
C2 H17 1_555 1_555
C3 N1 1_555 1_555
H18 C3 1_555 1_555
C4 N1 1_555 1_555
H19 C4 1_555 1_555
C5 C1 1_555 1_555
H20 C5 1_555 1_555
C6 N2 1_555 1_555
C7 N4 1_555 1_555
C8 C7 1_555 1_555
C9 C8 1_555 1_555
H21 C9 1_555 1_555
C10 C9 1_555 1_555
H22 C10 1_555 1_555
C11 N6 1_555 1_555
H23 C11 1_555 1_555
C12 C8 1_555 1_555
H24 C12 1_555 1_555
C13 C14 1_555 1_555
C14 H25 1_555 1_555
C15 N7 1_555 1_555
H26 C15 1_555 1_555
C16 N7 1_555 1_555
H27 C16 1_555 1_555
C17 C13 1_555 1_555
H28 C17 1_555 1_555
C18 N8 1_555 1_555
C19 N10 1_555 1_555
C20 C19 1_555 1_555
C21 C20 1_555 1_555
H29 C21 1_555 1_555
C22 C21 1_555 1_555
H30 C22 1_555 1_555
C23 N12 1_555 1_555
H31 C23 1_555 1_555
C24 C20 1_555 1_555
H32 C24 1_555 1_555
C25 C26 1_555 1_555
C26 C27 1_555 1_555
C27 H33 1_555 1_555
C28 C27 1_555 1_555
H34 C28 1_555 1_555
C29 C28 1_555 1_555
C30 C29 1_555 1_555
C31 C29 1_555 1_555
C32 C31 1_555 1_555
H35 C32 1_555 1_555
C33 C32 1_555 1_555
H36 C33 1_555 1_555
C34 C33 1_555 1_555
H37 C34 1_555 1_555
C35 C34 1_555 1_555
H38 C35 1_555 1_555
C36 C26 1_555 1_555
C37 O6 1_555 1_555
C38 C37 1_555 1_555
C39 C38 1_555 1_555
H39 C39 1_555 1_555
C40 C39 1_555 1_555
H40 C40 1_555 1_555
C41 C40 1_555 1_555
C42 C41 1_555 1_555
C43 C41 1_555 1_555
C44 C43 1_555 1_555
H41 C44 1_555 1_555
C45 C44 1_555 1_555
H42 C45 1_555 1_555
C46 C45 1_555 1_555
H43 C46 1_555 1_555
C47 C46 1_555 1_555
H44 C47 1_555 1_555
C48 C38 1_555 1_555
O15 H45 1_555 1_555
H46 O15 1_555 1_555
Co1_2 N12 1_555 1_555
Co2_2 N6 1_555 1_555
N6_2 Co2 1_555 1_555
N12_2 Co1 1_555 1_555
N4 C6 1_555 1_555
N10 C18 1_555 1_555
C1 C6 1_555 1_555
C2 C3 1_555 1_555
C4 C5 1_555 1_555
C11 C12 1_555 1_555
C13 C18 1_555 1_555
C14 C15 1_555 1_555
C16 C17 1_555 1_555
C23 C24 1_555 1_555
C31 C36 1_555 1_555
C35 C36 1_555 1_555
C43 C48 1_555 1_555
C47 C48 1_555 1_555

#END
