
#######################################################################
#
#                 Cambridge Crystallographic Data Centre
#                                CCDC 
#
#######################################################################
#
# If this CIF has been generated from an entry in the Cambridge 
# Structural Database, then it will include bibliographic, chemical, 
# crystal, experimental, refinement or atomic coordinate data resulting 
# from the CCDC's data processing and validation procedures.
#
#######################################################################

data_LUNDAA
_symmetry_cell_setting           triclinic
_symmetry_space_group_name_H-M   'P -1'
_symmetry_Int_Tables_number      2
_space_group_name_Hall           '-P 1'
loop_
_symmetry_equiv_pos_site_id
_symmetry_equiv_pos_as_xyz
1 x,y,z
2 -x,-y,-z
_cell_length_a                   12.2639(4)
_cell_length_b                   14.4397(5)
_cell_length_c                   14.8293(5)
_cell_angle_alpha                87.633(1)
_cell_angle_beta                 85.596(1)
_cell_angle_gamma                70.426(1)
_cell_volume                     2466.67
loop_
_atom_site_label
_atom_site_type_symbol
_atom_site_fract_x
_atom_site_fract_y
_atom_site_fract_z
Zn1 Zn 0.26912(2) 0.80796(2) -0.605573(19)
O11 O 0.14547(16) 0.74105(14) -0.61288(13)
H5 H 0.1635 0.6802 -0.6235
H6 H 0.0848 0.7796 -0.6356
O12 O 0.13500(15) 0.94751(14) -0.58784(12)
H7 H 0.1483 0.9767 -0.5435
H8 H 0.0672 0.9442 -0.5887
O13 O 0.38757(15) 0.88378(13) -0.60162(12)
H9 H 0.4552 0.8448 -0.6164
H10 H 0.3641 0.9376 -0.6314
O14 O 0.41526(15) 0.67865(14) -0.60883(12)
H11 H 0.4101 0.6239 -0.6230
H12 H 0.4791 0.6882 -0.6234
N7 N 0.2630(2) 0.82382(18) -0.75466(14)
N8 N 0.0728(2) 0.85165(19) -1.04997(15)
N9 N 0.0734(2) 0.84293(18) -1.14262(14)
N10 N 0.25345(18) 0.79073(16) -1.10482(13)
N11 N 0.37625(19) 0.75536(18) -1.10456(15)
H15 H 0.4125 0.6968 -1.1306
H16 H 0.4050 0.8023 -1.1260
N12 N 0.25453(19) 0.78987(17) -1.46000(14)
C13 C 0.2159(2) 0.8206(2) -0.93567(17)
C14 C 0.3088(3) 0.7491(2) -0.90033(19)
H25 H 0.3573 0.6986 -0.9364
C15 C 0.3290(3) 0.7535(2) -0.81043(19)
H26 H 0.3920 0.7047 -0.7875
C16 C 0.1754(3) 0.8947(2) -0.79053(18)
H27 H 0.1301 0.9457 -0.7536
C17 C 0.1487(2) 0.8962(2) -0.87929(17)
H28 H 0.0867 0.9469 -0.9012
C18 C 0.1814(2) 0.8203(2) -1.02872(17)
C19 C 0.1823(2) 0.80761(19) -1.17445(17)
C20 C 0.2152(2) 0.79408(19) -1.27183(16)
C21 C 0.1286(3) 0.7989(3) -1.32809(19)
H29 H 0.0551 0.8031 -1.3035
C22 C 0.1510(3) 0.7976(3) -1.41998(19)
H30 H 0.0907 0.8022 -1.4563
C23 C 0.3386(2) 0.7819(2) -1.40592(18)
H31 H 0.4122 0.7746 -1.4324
C24 C 0.3234(2) 0.7839(2) -1.31266(17)
H32 H 0.3853 0.7783 -1.2779
Zn1_2 Zn 0.26912(2) 0.80796(2) -1.605573(19)
N12_2 N 0.25453(19) 0.78987(17) -0.46000(14)
Zn2 Zn 0.20398(3) 0.27356(2) 1.222894(19)
O1 O 0.03281(16) 0.35674(16) 1.22474(14)
O2 O 0.0078(2) 0.47825(17) 1.32028(18)
O3 O -0.53389(18) 0.40873(17) 1.21475(17)
O4 O -0.58537(19) 0.51000(18) 1.33039(19)
O5 O 0.33235(18) 0.04772(18) 1.29854(19)
O6 O 0.37696(15) 0.16977(13) 1.22646(12)
O7 O 0.90932(17) -0.04478(17) 1.42566(15)
O8 O 0.95660(15) -0.14805(14) 1.31197(13)
O9 O 0.13717(17) 0.15535(16) 1.23207(16)
H1 H 0.0885 0.1437 1.2004
H2 H 0.1927 0.1062 1.2495
O10 O 0.25260(18) 0.40356(15) 1.20572(13)
H3 H 0.3209 0.4060 1.2051
H4 H 0.1987 0.4498 1.2321
N1 N 0.21775(18) 0.28193(17) 1.36777(14)
N2 N 0.3906(2) 0.25650(19) 1.66655(15)
N3 N 0.3941(2) 0.2522(2) 1.75918(15)
N4 N 0.21342(18) 0.28954(15) 1.72482(14)
N5 N 0.09198(18) 0.31924(18) 1.73850(15)
H13 H 0.0652 0.3765 1.7076
H14 H 0.0671 0.2722 1.7187
N6 N 0.22507(19) 0.26850(17) 2.07960(14)
C1 C 0.2506(2) 0.28598(19) 1.55232(17)
C2 C 0.3284(2) 0.3026(2) 1.48602(18)
H17 H 0.3933 0.3158 1.5024
C3 C 0.3098(3) 0.2996(2) 1.39668(19)
H18 H 0.3638 0.3105 1.3537
C4 C 0.1414(2) 0.2695(2) 1.43094(18)
H19 H 0.0757 0.2591 1.4125
C5 C 0.1535(2) 0.2712(2) 1.52275(19)
H20 H 0.0969 0.2624 1.5643
C6 C 0.2817(2) 0.2786(2) 1.64665(17)
C7 C 0.2870(2) 0.2729(2) 1.79303(17)
C8 C 0.2585(2) 0.27349(19) 1.89141(17)
C9 C 0.1512(2) 0.2816(2) 1.93348(18)
H21 H 0.0882 0.2893 1.8993
C10 C 0.1385(2) 0.2780(2) 2.02671(18)
H22 H 0.0661 0.2824 2.0540
C11 C 0.3285(3) 0.2613(2) 2.03844(19)
H23 H 0.3897 0.2548 2.0742
C12 C 0.3488(2) 0.2631(2) 1.94642(19)
H24 H 0.4224 0.2575 1.9209
C25 C -0.1582(2) 0.4545(2) 1.2651(2)
C26 C -0.2253(3) 0.4629(2) 1.3437(2)
H33 H -0.1932 0.4637 1.3984
C27 C -0.3422(3) 0.4703(2) 1.3435(2)
H34 H -0.3860 0.4745 1.3981
C28 C -0.3930(2) 0.4714(2) 1.2639(2)
C29 C -0.3289(2) 0.4717(2) 1.1799(2)
C30 C -0.3782(3) 0.4845(2) 1.0946(2)
H35 H -0.4562 0.4914 1.0926
C31 C -0.3148(3) 0.4870(3) 1.0164(3)
H36 H -0.3498 0.4961 0.9617
C32 C -0.1965(3) 0.4759(3) 1.0170(2)
H37 H -0.1530 0.4767 0.9629
C33 C -0.1461(3) 0.4640(2) 1.0970(2)
H38 H -0.0679 0.4569 1.0968
C34 C -0.2089(2) 0.46212(19) 1.1802(2)
C35 C -0.0284(2) 0.4295(2) 1.2699(2)
C36 C -0.5140(3) 0.4643(2) 1.2690(2)
C37 C 0.5285(2) 0.03948(19) 1.28695(18)
C38 C 0.5578(2) 0.0259(2) 1.37491(19)
H39 H 0.4998 0.0425 1.4215
C39 C 0.6742(2) -0.0126(2) 1.39561(18)
H40 H 0.6922 -0.0204 1.4559
C40 C 0.7621(2) -0.03915(19) 1.32893(18)
C41 C 0.7350(2) -0.02836(18) 1.23567(18)
C42 C 0.8206(2) -0.0524(2) 1.16222(19)
H41 H 0.8986 -0.0768 1.1740
C43 C 0.7905(3) -0.0403(2) 1.0749(2)
H42 H 0.8481 -0.0557 1.0279
C44 C 0.6737(3) -0.0049(2) 1.0552(2)
H43 H 0.6540 0.0014 0.9954
C45 C 0.5890(3) 0.0203(2) 1.12315(19)
H44 H 0.5118 0.0439 1.1092
C46 C 0.6164(2) 0.01126(19) 1.21535(18)
C47 C 0.4027(2) 0.0890(2) 1.26830(19)
C48 C 0.8850(2) -0.0795(2) 1.35717(19)
Zn2_2 Zn 0.20398(3) 0.27356(2) 2.222894(19)
N6_2 N 0.22507(19) 0.26850(17) 1.07960(14)
O15 O 0.1842(3) 0.5496(2) 0.3762(4)
H45 H 0.2501 0.5147 0.3936
H46 H 0.1812 0.5676 0.3208
O16 O 0.0618(9) 0.5119(10) 0.4843(8)
loop_
_geom_bond_atom_site_label_1
_geom_bond_atom_site_label_2
_geom_bond_site_symmetry_1
_geom_bond_site_symmetry_2
Zn1 O11 1_555 1_555
Zn2 O1 1_555 1_555
O1 C35 1_555 1_555
O2 C35 1_555 1_555
O3 C36 1_555 1_555
O4 C36 1_555 1_555
O5 C47 1_555 1_555
O6 Zn2 1_555 1_555
O7 C48 1_555 1_555
O8 C48 1_555 1_555
O9 Zn2 1_555 1_555
H1 O9 1_555 1_555
H2 O9 1_555 1_555
O10 Zn2 1_555 1_555
H3 O10 1_555 1_555
H4 O10 1_555 1_555
O11 H5 1_555 1_555
H6 O11 1_555 1_555
O12 Zn1 1_555 1_555
H7 O12 1_555 1_555
H8 O12 1_555 1_555
O13 Zn1 1_555 1_555
H9 O13 1_555 1_555
H10 O13 1_555 1_555
O14 Zn1 1_555 1_555
H11 O14 1_555 1_555
H12 O14 1_555 1_555
N1 Zn2 1_555 1_555
N2 N3 1_555 1_555
N3 C7 1_555 1_555
N4 N5 1_555 1_555
N5 H13 1_555 1_555
H14 N5 1_555 1_555
N6 C10 1_555 1_555
N7 Zn1 1_555 1_555
N8 N9 1_555 1_555
N9 C19 1_555 1_555
N10 N11 1_555 1_555
N11 H15 1_555 1_555
H16 N11 1_555 1_555
N12 C22 1_555 1_555
C1 C2 1_555 1_555
C2 H17 1_555 1_555
C3 N1 1_555 1_555
H18 C3 1_555 1_555
C4 N1 1_555 1_555
H19 C4 1_555 1_555
C5 C1 1_555 1_555
H20 C5 1_555 1_555
C6 N2 1_555 1_555
C7 N4 1_555 1_555
C8 C7 1_555 1_555
C9 C8 1_555 1_555
H21 C9 1_555 1_555
C10 C9 1_555 1_555
H22 C10 1_555 1_555
C11 N6 1_555 1_555
H23 C11 1_555 1_555
C12 C8 1_555 1_555
H24 C12 1_555 1_555
C13 C14 1_555 1_555
C14 H25 1_555 1_555
C15 N7 1_555 1_555
H26 C15 1_555 1_555
C16 N7 1_555 1_555
H27 C16 1_555 1_555
C17 C13 1_555 1_555
H28 C17 1_555 1_555
C18 N8 1_555 1_555
C19 N10 1_555 1_555
C20 C19 1_555 1_555
C21 C20 1_555 1_555
H29 C21 1_555 1_555
C22 C21 1_555 1_555
H30 C22 1_555 1_555
C23 N12 1_555 1_555
H31 C23 1_555 1_555
C24 C20 1_555 1_555
H32 C24 1_555 1_555
C25 C26 1_555 1_555
C26 H33 1_555 1_555
C27 C26 1_555 1_555
H34 C27 1_555 1_555
C28 C27 1_555 1_555
C29 C28 1_555 1_555
C30 C29 1_555 1_555
H35 C30 1_555 1_555
C31 C30 1_555 1_555
H36 C31 1_555 1_555
C32 C31 1_555 1_555
H37 C32 1_555 1_555
C33 C32 1_555 1_555
H38 C33 1_555 1_555
C34 C25 1_555 1_555
C35 C25 1_555 1_555
C36 C28 1_555 1_555
C37 C38 1_555 1_555
C38 H39 1_555 1_555
C39 C38 1_555 1_555
H40 C39 1_555 1_555
C40 C39 1_555 1_555
C41 C40 1_555 1_555
C42 C41 1_555 1_555
H41 C42 1_555 1_555
C43 C42 1_555 1_555
H42 C43 1_555 1_555
C44 C43 1_555 1_555
H43 C44 1_555 1_555
C45 C44 1_555 1_555
H44 C45 1_555 1_555
C46 C37 1_555 1_555
C47 O6 1_555 1_555
C48 C40 1_555 1_555
O15 H45 1_555 1_555
H46 O15 1_555 1_555
Zn1_2 N12 1_555 1_555
Zn2_2 N6 1_555 1_555
N6_2 Zn2 1_555 1_555
N12_2 Zn1 1_555 1_555
N4 C6 1_555 1_555
N10 C18 1_555 1_555
C1 C6 1_555 1_555
C2 C3 1_555 1_555
C4 C5 1_555 1_555
C11 C12 1_555 1_555
C13 C18 1_555 1_555
C14 C15 1_555 1_555
C16 C17 1_555 1_555
C23 C24 1_555 1_555
C29 C34 1_555 1_555
C33 C34 1_555 1_555
C37 C47 1_555 1_555
C41 C46 1_555 1_555
C45 C46 1_555 1_555

#END
