
#######################################################################
#
#                 Cambridge Crystallographic Data Centre
#                                CCDC 
#
#######################################################################
#
# If this CIF has been generated from an entry in the Cambridge 
# Structural Database, then it will include bibliographic, chemical, 
# crystal, experimental, refinement or atomic coordinate data resulting 
# from the CCDC's data processing and validation procedures.
#
#######################################################################

data_LUNDEE
_symmetry_cell_setting           triclinic
_symmetry_space_group_name_H-M   'P -1'
_symmetry_Int_Tables_number      2
_space_group_name_Hall           '-P 1'
loop_
_symmetry_equiv_pos_site_id
_symmetry_equiv_pos_as_xyz
1 x,y,z
2 -x,-y,-z
_cell_length_a                   12.042(2)
_cell_length_b                   13.406(2)
_cell_length_c                   19.474(3)
_cell_angle_alpha                92.830(2)
_cell_angle_beta                 92.253(3)
_cell_angle_gamma                107.732(2)
_cell_volume                     2985.89
loop_
_atom_site_label
_atom_site_type_symbol
_atom_site_fract_x
_atom_site_fract_y
_atom_site_fract_z
Cd1 Cd 0.91172(6) 0.21565(5) 0.86593(4)
Cd2 Cd 0.45024(6) 0.74652(5) 0.62618(3)
O1 O 0.8399(6) 0.2911(6) 0.7733(4)
O2 O 0.8033(6) 0.3443(5) 0.8770(4)
O3 O 0.5656(7) 0.7040(7) 0.7100(4)
O4 O 0.5437(10) 0.5992(7) 0.6191(4)
O5 O 1.3907(7) -0.1754(6) 0.7254(4)
O6 O 1.3348(6) -0.1358(5) 0.6236(4)
O7 O 1.0073(8) 0.1516(7) 0.7839(4)
O8 O 1.0393(10) 0.0909(9) 0.8811(5)
O9 O 0.9199(7) 0.2023(6) 0.9824(4)
O10 O 0.4540(6) 0.7197(5) 0.5095(3)
N1 N 1.0659(8) 0.3750(8) 0.8802(4)
N2 N 1.2520(9) 0.7695(7) 0.9397(5)
N3 N 1.3396(9) 0.8641(7) 0.9342(6)
N4 N 1.3821(8) 0.7388(6) 0.8756(4)
N5 N 1.4363(9) 0.6828(7) 0.8335(5)
H1 H 1.4740 0.6495 0.8596
H2 H 1.3825 0.6362 0.8059
N6 N 1.7324(7) 1.0775(7) 0.8624(5)
N7 N 0.2662(9) 0.6181(7) 0.6235(5)
N8 N -0.1604(8) 0.3942(7) 0.5713(5)
N9 N -0.2500(8) 0.3006(7) 0.5676(5)
N10 N -0.0972(7) 0.2803(6) 0.6196(4)
N11 N -0.0203(8) 0.2346(8) 0.6539(5)
H3 H -0.0507 0.2096 0.6928
H4 H -0.0118 0.1824 0.6268
N12 N -0.4001(7) -0.0862(6) 0.6157(4)
C1 C 1.2072(9) 0.5837(8) 0.8944(5)
C2 C 1.1582(9) 0.5361(8) 0.9514(5)
H5 H 1.1703 0.5719 0.9945
C3 C 1.0891(9) 0.4310(8) 0.9417(6)
H6 H 1.0568 0.3974 0.9801
C4 C 1.1121(9) 0.4267(8) 0.8294(6)
H7 H 1.0964 0.3908 0.7862
C5 C 1.1843(11) 0.5322(8) 0.8318(6)
H8 H 1.2143 0.5643 0.7923
C6 C 1.2787(9) 0.6971(8) 0.9031(5)
C7 C 1.4180(10) 0.8441(8) 0.8963(6)
C8 C 1.5271(10) 0.9212(8) 0.8818(6)
C9 C 1.5285(11) 1.0215(10) 0.8758(10)
H9 H 1.4597 1.0390 0.8784
C10 C 1.6334(11) 1.0988(10) 0.8658(10)
H10 H 1.6331 1.1675 0.8614
C11 C 1.7290(10) 0.9878(10) 0.8683(7)
H11 H 1.8003 0.9744 0.8675
C12 C 1.6333(10) 0.9025(9) 0.8760(7)
H12 H 1.6395 0.8351 0.8773
C13 C 0.7506(8) 0.4266(7) 0.7796(5)
C14 C 0.6688(10) 0.3902(9) 0.7279(6)
H13 H 0.6468 0.3197 0.7129
C15 C 0.6165(11) 0.4574(9) 0.6964(6)
H14 H 0.5596 0.4300 0.6610
C16 C 0.6464(9) 0.5630(8) 0.7160(5)
C17 C 0.7339(9) 0.6037(8) 0.7699(6)
C18 C 0.7719(12) 0.7106(9) 0.7929(7)
H15 H 0.7364 0.7562 0.7737
C19 C 0.8599(15) 0.7485(10) 0.8426(10)
H16 H 0.8843 0.8194 0.8569
C20 C 0.9134(15) 0.6807(10) 0.8721(10)
H17 H 0.9752 0.7073 0.9048
C21 C 0.8761(12) 0.5764(8) 0.8538(7)
H18 H 0.9105 0.5322 0.8756
C22 C 0.7862(9) 0.5336(8) 0.8022(5)
C23 C 0.8024(8) 0.3487(7) 0.8133(6)
C24 C 0.5828(8) 0.6271(8) 0.6806(5)
C25 C 1.3389(8) -0.1283(7) 0.6887(6)
C26 C 1.2761(9) -0.0603(8) 0.7243(5)
C27 C 1.2048(11) -0.1028(9) 0.7747(6)
H19 H 1.2017 -0.1689 0.7886
C28 C 1.1350(11) -0.0475(9) 0.8061(6)
H20 H 1.0863 -0.0778 0.8403
C29 C 1.1387(9) 0.0506(9) 0.7866(5)
C30 C 1.2181(9) 0.1000(8) 0.7364(5)
C31 C 1.2320(10) 0.2023(8) 0.7170(6)
H21 H 1.1859 0.2397 0.7360
C32 C 1.3111(11) 0.2480(9) 0.6712(7)
H22 H 1.3201 0.3167 0.6604
C33 C 1.3797(12) 0.1917(9) 0.6397(7)
H23 H 1.4333 0.2228 0.6080
C34 C 1.3662(10) 0.0907(9) 0.6567(6)
H24 H 1.4106 0.0532 0.6358
C35 C 1.2869(9) 0.0427(8) 0.7050(5)
C36 C 1.0557(9) 0.1015(8) 0.8191(5)
C37 C 0.0462(9) 0.4598(7) 0.6117(5)
C38 C 0.1448(10) 0.4403(8) 0.6292(8)
H25 H 0.1452 0.3736 0.6399
C39 C 0.2498(8) 0.5256(8) 0.6311(6)
H26 H 0.3174 0.5075 0.6397
C40 C 0.1635(11) 0.6384(10) 0.6094(10)
H27 H 0.1666 0.7079 0.6047
C41 C 0.0561(12) 0.5635(9) 0.6018(10)
H28 H -0.0099 0.5824 0.5900
C42 C -0.0692(9) 0.3808(8) 0.6019(5)
C43 C -0.2095(9) 0.2322(7) 0.5978(5)
C44 C -0.2761(8) 0.1208(7) 0.6042(5)
C45 C -0.2858(9) 0.0753(8) 0.6672(5)
H29 H -0.2496 0.1134 0.7075
C46 C -0.3517(9) -0.0291(8) 0.6675(6)
H30 H -0.3606 -0.0590 0.7098
C47 C -0.3940(9) -0.0434(7) 0.5532(5)
H31 H -0.4326 -0.0850 0.5146
C48 C -0.3316(9) 0.0604(8) 0.5463(5)
H32 H -0.3271 0.0888 0.5035
Cd1_2 Cd 1.91172(6) 1.21565(5) 0.86593(4)
Cd2_2 Cd 1.45024(6) -0.25348(5) 0.62618(3)
Cd2_3 Cd -0.54976(6) -0.25348(5) 0.62618(3)
O5_2 O 0.3907(7) 0.8246(6) 0.7254(4)
O6_2 O 0.3348(6) 0.8642(5) 0.6236(4)
N6_2 N 0.7324(7) 0.0775(7) 0.8624(5)
N12_2 N 0.5999(7) 0.9138(6) 0.6157(4)
O11 O 1.048(3) 0.878(3) 0.4766(15)
N14 N 0.9448(15) 0.8643(14) 0.5723(10)
C52 C 1.040(3) 0.883(3) 0.5453(18)
H40 H 1.1078 0.9004 0.5736
C53 C 0.842(2) 0.827(3) 0.5259(18)
H41 H 0.8091 0.8832 0.5195
H42 H 0.7853 0.7700 0.5451
H43 H 0.8628 0.8037 0.4823
C54 C 0.921(4) 0.881(4) 0.6350(19)
H44 H 0.8979 0.8158 0.6568
H45 H 0.8576 0.9111 0.6353
H46 H 0.9881 0.9286 0.6597
O12 O 0.4412(15) 0.3349(16) 1.0403(13)
N13 N 0.4371(10) 0.3497(14) 0.9344(8)
C49 C 0.5623(13) 0.389(4) 0.9452(16)
H33 H 0.5976 0.3849 0.9022
H34 H 0.5879 0.3469 0.9772
H35 H 0.5850 0.4603 0.9635
C50 C 0.3680(17) 0.3093(16) 0.9913(10)
H36 H 0.2887 0.2731 0.9911
C51 C 0.385(2) 0.335(2) 0.8666(9)
H37 H 0.4182 0.3969 0.8426
H38 H 0.3020 0.3228 0.8685
H39 H 0.3985 0.2759 0.8428
O13 O 0.5725(8) 0.5912(7) 0.4552(5)
O14 O 0.7456(11) 0.5655(10) 0.5451(7)
O15 O 0.850(4) 0.9962(16) 0.0215(10)
loop_
_geom_bond_atom_site_label_1
_geom_bond_atom_site_label_2
_geom_bond_site_symmetry_1
_geom_bond_site_symmetry_2
Cd1 O1 1_555 1_555
Cd2 O3 1_555 1_555
O1 C23 1_555 1_555
O2 Cd1 1_555 1_555
O3 C24 1_555 1_555
O4 Cd2 1_555 1_555
O5 C25 1_555 1_555
O6 C25 1_555 1_555
O7 Cd1 1_555 1_555
O8 Cd1 1_555 1_555
O9 Cd1 1_555 1_555
O10 Cd2 1_555 1_555
O11 C52 1_555 1_555
O12 C50 1_555 1_555
N1 Cd1 1_555 1_555
N2 N3 1_555 1_555
N3 C7 1_555 1_555
N4 N5 1_555 1_555
N5 H1 1_555 1_555
H2 N5 1_555 1_555
N6 C10 1_555 1_555
N7 Cd2 1_555 1_555
N8 N9 1_555 1_555
N9 C43 1_555 1_555
N10 N11 1_555 1_555
N11 H3 1_555 1_555
H4 N11 1_555 1_555
N12 C46 1_555 1_555
N13 C49 1_555 1_555
N14 C52 1_555 1_555
C1 C2 1_555 1_555
C2 H5 1_555 1_555
C3 N1 1_555 1_555
H6 C3 1_555 1_555
C4 N1 1_555 1_555
H7 C4 1_555 1_555
C5 C1 1_555 1_555
H8 C5 1_555 1_555
C6 N2 1_555 1_555
C7 N4 1_555 1_555
C8 C7 1_555 1_555
C9 C8 1_555 1_555
H9 C9 1_555 1_555
C10 C9 1_555 1_555
H10 C10 1_555 1_555
C11 N6 1_555 1_555
H11 C11 1_555 1_555
C12 C8 1_555 1_555
H12 C12 1_555 1_555
C13 C14 1_555 1_555
C14 H13 1_555 1_555
C15 C14 1_555 1_555
H14 C15 1_555 1_555
C16 C15 1_555 1_555
C17 C16 1_555 1_555
C18 C17 1_555 1_555
H15 C18 1_555 1_555
C19 C18 1_555 1_555
H16 C19 1_555 1_555
C20 C19 1_555 1_555
H17 C20 1_555 1_555
C21 C20 1_555 1_555
H18 C21 1_555 1_555
C22 C13 1_555 1_555
C23 O2 1_555 1_555
C24 O4 1_555 1_555
C25 C26 1_555 1_555
C26 C27 1_555 1_555
C27 H19 1_555 1_555
C28 C27 1_555 1_555
H20 C28 1_555 1_555
C29 C28 1_555 1_555
C30 C29 1_555 1_555
C31 C30 1_555 1_555
H21 C31 1_555 1_555
C32 C31 1_555 1_555
H22 C32 1_555 1_555
C33 C32 1_555 1_555
H23 C33 1_555 1_555
C34 C33 1_555 1_555
H24 C34 1_555 1_555
C35 C26 1_555 1_555
C36 O7 1_555 1_555
C37 C38 1_555 1_555
C38 H25 1_555 1_555
C39 N7 1_555 1_555
H26 C39 1_555 1_555
C40 N7 1_555 1_555
H27 C40 1_555 1_555
C41 C37 1_555 1_555
H28 C41 1_555 1_555
C42 N8 1_555 1_555
C43 N10 1_555 1_555
C44 C43 1_555 1_555
C45 C44 1_555 1_555
H29 C45 1_555 1_555
C46 C45 1_555 1_555
H30 C46 1_555 1_555
C47 N12 1_555 1_555
H31 C47 1_555 1_555
C48 C44 1_555 1_555
H32 C48 1_555 1_555
C49 H33 1_555 1_555
H34 C49 1_555 1_555
H35 C49 1_555 1_555
C50 N13 1_555 1_555
H36 C50 1_555 1_555
C51 N13 1_555 1_555
H37 C51 1_555 1_555
H38 C51 1_555 1_555
H39 C51 1_555 1_555
C52 H40 1_555 1_555
C53 N14 1_555 1_555
H41 C53 1_555 1_555
H42 C53 1_555 1_555
H43 C53 1_555 1_555
C54 N14 1_555 1_555
H44 C54 1_555 1_555
H45 C54 1_555 1_555
H46 C54 1_555 1_555
Cd1_2 N6 1_555 1_555
Cd2_2 O5 1_555 1_555
Cd2_3 N12 1_555 1_555
O5_2 Cd2 1_555 1_555
O6_2 Cd2 1_555 1_555
N6_2 Cd1 1_555 1_555
N12_2 Cd2 1_555 1_555
O6 Cd2_2 1_555 1_555
O8 C36 1_555 1_555
N4 C6 1_555 1_555
N10 C42 1_555 1_555
C1 C6 1_555 1_555
C2 C3 1_555 1_555
C4 C5 1_555 1_555
C11 C12 1_555 1_555
C13 C23 1_555 1_555
C16 C24 1_555 1_555
C17 C22 1_555 1_555
C21 C22 1_555 1_555
C29 C36 1_555 1_555
C30 C35 1_555 1_555
C34 C35 1_555 1_555
C37 C42 1_555 1_555
C38 C39 1_555 1_555
C40 C41 1_555 1_555
C47 C48 1_555 1_555

#END
