
#######################################################################
#
#                 Cambridge Crystallographic Data Centre
#                                CCDC 
#
#######################################################################
#
# If this CIF has been generated from an entry in the Cambridge 
# Structural Database, then it will include bibliographic, chemical, 
# crystal, experimental, refinement or atomic coordinate data resulting 
# from the CCDC's data processing and validation procedures.
#
#######################################################################

data_LUNDOP
_symmetry_cell_setting           orthorhombic
_symmetry_space_group_name_H-M   'P 21 21 21'
_symmetry_Int_Tables_number      19
_space_group_name_Hall           'P 2ac 2ab'
loop_
_symmetry_equiv_pos_site_id
_symmetry_equiv_pos_as_xyz
1 x,y,z
2 1/2-x,-y,1/2+z
3 -x,1/2+y,1/2-z
4 1/2+x,1/2-y,-z
_cell_length_a                   5.2793(14)
_cell_length_b                   7.967(2)
_cell_length_c                   20.909(6)
_cell_angle_alpha                90
_cell_angle_beta                 90
_cell_angle_gamma                90
_cell_volume                     879.436
loop_
_atom_site_label
_atom_site_type_symbol
_atom_site_fract_x
_atom_site_fract_y
_atom_site_fract_z
Cu1 Cu 0.99279(9) 0.52906(6) 1.02374(2)
Cl1 Cl 0.7472(2) 0.73450(13) 1.06648(5)
O1 O 1.2171(5) 0.3668(3) 0.98257(13)
O2 O 1.2528(6) 0.1872(4) 0.90326(14)
O3 O 0.4301(8) 0.4615(9) 0.7106(2)
O4 O 0.8147(7) 0.5628(5) 0.71446(16)
H1 H 0.7803 0.5963 0.6784
O5 O 1.2387(7) 0.5529(5) 1.09376(16)
N1 N 0.7672(7) 0.4836(4) 0.95041(15)
H2 H 0.6192 0.4424 0.9648
H3 H 0.7348 0.5804 0.9298
C1 C 1.1366(8) 0.3017(5) 0.9314(2)
C2 C 0.8822(9) 0.3618(5) 0.90501(19)
H4 H 0.7699 0.2640 0.9032
C3 C 0.8994(8) 0.4334(6) 0.8369(2)
H5 H 0.9895 0.5395 0.8377
H6 H 0.9928 0.3564 0.8098
C4 C 0.6358(10) 0.4596(7) 0.8100(2)
H7 H 0.5358 0.3606 0.8195
H8 H 0.5588 0.5532 0.8324
C5 C 0.6178(9) 0.4931(7) 0.7394(2)
Cu1C Cu 1.49279(9) -0.02906(6) 0.97626(2)
O2C O 0.7528(6) 0.3128(4) 1.09674(14)
loop_
_geom_bond_atom_site_label_1
_geom_bond_atom_site_label_2
_geom_bond_site_symmetry_1
_geom_bond_site_symmetry_2
Cu1 Cl1 1_555 1_555
O1 Cu1 1_555 1_555
O2 C1 1_555 1_555
O3 C5 1_555 1_555
O4 H1 1_555 1_555
O5 Cu1 1_555 1_555
N1 Cu1 1_555 1_555
H2 N1 1_555 1_555
H3 N1 1_555 1_555
C1 O1 1_555 1_555
C2 N1 1_555 1_555
H4 C2 1_555 1_555
C3 C2 1_555 1_555
H5 C3 1_555 1_555
H6 C3 1_555 1_555
C4 C3 1_555 1_555
H7 C4 1_555 1_555
H8 C4 1_555 1_555
C5 O4 1_555 1_555
Cu1C O2 1_555 1_555
O2C Cu1 1_555 1_555
C1 C2 1_555 1_555
C4 C5 1_555 1_555

#END
