
#######################################################################
#
#                 Cambridge Crystallographic Data Centre
#                                CCDC 
#
#######################################################################
#
# If this CIF has been generated from an entry in the Cambridge 
# Structural Database, then it will include bibliographic, chemical, 
# crystal, experimental, refinement or atomic coordinate data resulting 
# from the CCDC's data processing and validation procedures.
#
#######################################################################

data_LUNHUZ
_symmetry_cell_setting           cubic
_symmetry_space_group_name_H-M   'F d -3'
_symmetry_Int_Tables_number      203
_space_group_name_Hall           '-F 2uv 2vw 3'
loop_
_symmetry_equiv_pos_site_id
_symmetry_equiv_pos_as_xyz
1 x,y,z
2 1/4-x,1/4-y,z
3 1/4-x,y,1/4-z
4 x,1/4-y,1/4-z
5 z,x,y
6 z,1/4-x,1/4-y
7 1/4-z,1/4-x,y
8 1/4-z,x,1/4-y
9 y,z,x
10 1/4-y,z,1/4-x
11 y,1/4-z,1/4-x
12 1/4-y,1/4-z,x
13 x,1/2+y,1/2+z
14 1/4-x,3/4-y,1/2+z
15 1/4-x,1/2+y,3/4-z
16 x,3/4-y,3/4-z
17 z,1/2+x,1/2+y
18 z,3/4-x,3/4-y
19 1/4-z,3/4-x,1/2+y
20 1/4-z,1/2+x,3/4-y
21 y,1/2+z,1/2+x
22 1/4-y,1/2+z,3/4-x
23 y,3/4-z,3/4-x
24 1/4-y,3/4-z,1/2+x
25 1/2+x,y,1/2+z
26 3/4-x,1/4-y,1/2+z
27 3/4-x,y,3/4-z
28 1/2+x,1/4-y,3/4-z
29 1/2+z,x,1/2+y
30 1/2+z,1/4-x,3/4-y
31 3/4-z,1/4-x,1/2+y
32 3/4-z,x,3/4-y
33 1/2+y,z,1/2+x
34 3/4-y,z,3/4-x
35 1/2+y,1/4-z,3/4-x
36 3/4-y,1/4-z,1/2+x
37 1/2+x,1/2+y,z
38 3/4-x,3/4-y,z
39 3/4-x,1/2+y,1/4-z
40 1/2+x,3/4-y,1/4-z
41 1/2+z,1/2+x,y
42 1/2+z,3/4-x,1/4-y
43 3/4-z,3/4-x,y
44 3/4-z,1/2+x,1/4-y
45 1/2+y,1/2+z,x
46 3/4-y,1/2+z,1/4-x
47 1/2+y,3/4-z,1/4-x
48 3/4-y,3/4-z,x
49 -x,-y,-z
50 3/4+x,3/4+y,-z
51 3/4+x,-y,3/4+z
52 -x,3/4+y,3/4+z
53 -z,-x,-y
54 -z,3/4+x,3/4+y
55 3/4+z,3/4+x,-y
56 3/4+z,-x,3/4+y
57 -y,-z,-x
58 3/4+y,-z,3/4+x
59 -y,3/4+z,3/4+x
60 3/4+y,3/4+z,-x
61 -x,1/2-y,1/2-z
62 3/4+x,1/4+y,1/2-z
63 3/4+x,1/2-y,1/4+z
64 -x,1/4+y,1/4+z
65 -z,1/2-x,1/2-y
66 -z,1/4+x,1/4+y
67 3/4+z,1/4+x,1/2-y
68 3/4+z,1/2-x,1/4+y
69 -y,1/2-z,1/2-x
70 3/4+y,1/2-z,1/4+x
71 -y,1/4+z,1/4+x
72 3/4+y,1/4+z,1/2-x
73 1/2-x,-y,1/2-z
74 1/4+x,3/4+y,1/2-z
75 1/4+x,-y,1/4+z
76 1/2-x,3/4+y,1/4+z
77 1/2-z,-x,1/2-y
78 1/2-z,3/4+x,1/4+y
79 1/4+z,3/4+x,1/2-y
80 1/4+z,-x,1/4+y
81 1/2-y,-z,1/2-x
82 1/4+y,-z,1/4+x
83 1/2-y,3/4+z,1/4+x
84 1/4+y,3/4+z,1/2-x
85 1/2-x,1/2-y,-z
86 1/4+x,1/4+y,-z
87 1/4+x,1/2-y,3/4+z
88 1/2-x,1/4+y,3/4+z
89 1/2-z,1/2-x,-y
90 1/2-z,1/4+x,3/4+y
91 1/4+z,1/4+x,-y
92 1/4+z,1/2-x,3/4+y
93 1/2-y,1/2-z,-x
94 1/4+y,1/2-z,3/4+x
95 1/2-y,1/4+z,3/4+x
96 1/4+y,1/4+z,-x
_cell_length_a                   51.1237(12)
_cell_length_b                   51.1237(12)
_cell_length_c                   51.1237(12)
_cell_angle_alpha                90
_cell_angle_beta                 90
_cell_angle_gamma                90
_cell_volume                     133619
loop_
_atom_site_label
_atom_site_type_symbol
_atom_site_fract_x
_atom_site_fract_y
_atom_site_fract_z
O1 O 0.3750 0.8750 0.3750
Zn1 Zn 0.35328(6) 0.89672(6) 0.39672(6)
O2 O -0.1250 0.8750 0.3750
Zn2 Zn -0.10308(6) 0.85308(6) 0.35308(6)
Zn3 Zn 0.12515(12) 0.8707(3) 0.3676(2)
C1 C 0.19180(17) 0.8750 0.3750
N1 N 0.15345(16) 0.90295(13) 0.36333(9)
C2 C 0.18070(16) 0.89800(13) 0.36536(9)
C3 C 0.19420(15) 0.92041(14) 0.35608(11)
H1 H 0.2123 0.9224 0.3552
C4 C 0.17530(17) 0.93921(13) 0.34831(12)
H2 H 0.1788 0.9557 0.3415
C5 C 0.15012(16) 0.92842(14) 0.35280(10)
C6 C 0.12509(2) 0.93859(18) 0.34860(13)
N2 N 0.09672(16) 0.90283(15) 0.36341(11)
C7 C 0.10020(17) 0.92829(15) 0.35290(13)
C8 C 0.07508(18) 0.93922(14) 0.34841(14)
H3 H 0.0717 0.9557 0.3416
C9 C 0.05607(16) 0.92052(14) 0.35614(14)
H4 H 0.0380 0.9226 0.3553
C10 C 0.06945(16) 0.89803(13) 0.36542(12)
C11 C 0.05843(18) 0.8750 0.3750
C12 C 0.22105(14) 0.8750 0.3750
C13 C 0.23475(14) 0.8903(3) 0.3928(3)
H5 H 0.2257 0.9005 0.4048
C14 C 0.26193(14) 0.8902(3) 0.3927(3)
H6 H 0.2711 0.9004 0.4047
C15 C 0.27540(14) 0.87485(5) 0.37484(5)
C16 C 0.3048(2) 0.8750 0.3750
O3 O 0.31699(14) 0.8893(2) 0.3907(2)
C17 C 0.02908(15) 0.8750 0.3750
C18 C 0.01559(15) 0.8629(4) 0.3548(2)
H7 H 0.0247 0.8548 0.3413
C19 C -0.01159(15) 0.8628(4) 0.3547(2)
H8 H -0.0206 0.8547 0.3411
C20 C -0.02527(15) 0.87492(5) 0.37491(5)
C21 C -0.0547(2) 0.8750 0.3750
O4 O -0.06687(15) 0.8608(3) 0.3591(3)
C22 C 0.12508(3) 0.96565(19) 0.33741(16)
C23 C 0.12800(7) 0.9693(2) 0.31065(17)
C24 C 0.12800(7) 0.9944(2) 0.30028(19)
H9 H 0.1300 0.9969 0.2824
C25 C 0.12507(4) 1.0159(2) 0.3167(2)
C26 C 0.12215(8) 1.01224(19) 0.3435(2)
H10 H 0.1202 1.0266 0.3544
C27 C 0.12216(7) 0.9871(2) 0.35383(18)
C28 C 0.13117(14) 0.9460(2) 0.29282(16)
H11 H 0.1329 0.9519 0.2751
H12 H 0.1161 0.9349 0.2943
H13 H 0.1465 0.9364 0.2978
C29 C 0.12506(4) 1.0432(2) 0.3054(3)
H14 H 0.1272 1.0423 0.2868
H15 H 0.1392 1.0531 0.3129
H16 H 0.1087 1.0516 0.3094
C30 C 0.11899(14) 0.9832(2) 0.38291(18)
H17 H 0.1172 0.9998 0.3913
H18 H 0.1341 0.9743 0.3897
H19 H 0.1037 0.9728 0.3862
N1O N 0.15345(16) 0.84705(13) 0.38667(9)
C2O C 0.18070(16) 0.85200(13) 0.38464(9)
C3O C 0.19420(15) 0.82959(14) 0.39392(11)
H1O H 0.2123 0.8276 0.3948
C4O C 0.17530(17) 0.81079(13) 0.40169(12)
H2O H 0.1788 0.7943 0.4085
C5O C 0.15012(16) 0.82158(14) 0.39720(10)
C6O C 0.12509(2) 0.81141(18) 0.40140(13)
N2O N 0.09672(16) 0.84717(15) 0.38659(11)
C7O C 0.10020(17) 0.82171(15) 0.39710(13)
C8O C 0.07508(18) 0.81078(14) 0.40159(14)
H3O H 0.0717 0.7943 0.4084
C9O C 0.05607(16) 0.82948(14) 0.39386(14)
H4O H 0.0380 0.8274 0.3947
C10O C 0.06945(16) 0.85197(13) 0.38458(12)
C13O C 0.23475(14) 0.8597(3) 0.3572(3)
H5O H 0.2257 0.8495 0.3452
C14O C 0.26193(14) 0.8598(3) 0.3573(3)
H6O H 0.2711 0.8496 0.3453
O3O O 0.31699(14) 0.8607(2) 0.3593(2)
C18O C 0.01559(15) 0.8871(4) 0.3952(2)
H7O H 0.0247 0.8952 0.4087
C19O C -0.01159(15) 0.8872(4) 0.3953(2)
H8O H -0.0206 0.8953 0.4089
O4O O -0.06687(15) 0.8892(3) 0.3909(3)
C22O C 0.12508(3) 0.78435(19) 0.41259(16)
C23O C 0.12800(7) 0.7807(2) 0.43935(17)
C24O C 0.12800(7) 0.7556(2) 0.44972(19)
H9O H 0.1300 0.7531 0.4676
C25O C 0.12507(4) 0.7341(2) 0.4333(2)
C26O C 0.12215(8) 0.73776(19) 0.4065(2)
H10O H 0.1202 0.7234 0.3956
C27O C 0.12216(7) 0.7629(2) 0.39617(18)
C28O C 0.13117(14) 0.8040(2) 0.45718(16)
H11O H 0.1329 0.7981 0.4749
H12O H 0.1161 0.8151 0.4557
H13O H 0.1465 0.8136 0.4522
C29O C 0.12506(4) 0.7068(2) 0.4446(3)
H14O H 0.1272 0.7077 0.4632
H15O H 0.1392 0.6969 0.4371
H16O H 0.1087 0.6984 0.4406
C30O C 0.11899(14) 0.7668(2) 0.36709(18)
H17O H 0.1172 0.7502 0.3587
H18O H 0.1341 0.7757 0.3603
H19O H 0.1037 0.7772 0.3638
Zn1E Zn 0.39672(6) 0.89672(6) 0.35328(6)
Zn3E Zn 0.3676(2) 1.12485(12) 0.3793(3)
C1E C 0.3750 1.05820(17) 0.3750
N1E N 0.36333(9) 1.09655(16) 0.34705(13)
C2E C 0.36536(9) 1.06930(16) 0.35200(13)
C3E C 0.35608(11) 1.05580(15) 0.32959(14)
H1E H 0.3552 1.0377 0.3276
C4E C 0.34831(12) 1.07470(17) 0.31079(13)
H2E H 0.3415 1.0712 0.2943
C5E C 0.35280(10) 1.09988(16) 0.32158(14)
C6E C 0.34860(13) 1.12491(2) 0.31141(18)
N2E N 0.36341(11) 1.15328(16) 0.34717(15)
C7E C 0.35290(13) 1.14980(17) 0.32171(15)
C8E C 0.34841(14) 1.17492(18) 0.31078(14)
H3E H 0.3416 1.1783 0.2943
C9E C 0.35614(14) 1.19393(16) 0.32948(14)
H4E H 0.3553 1.2120 0.3274
C10E C 0.36542(12) 1.18055(16) 0.35197(13)
C11E C 0.3750 1.19157(18) 0.3750
C12E C 0.3750 1.02895(14) 0.3750
C13E C 0.3928(3) 1.01525(14) 0.3597(3)
H5E H 0.4048 1.0243 0.3495
C14E C 0.3927(3) 0.98807(14) 0.3598(3)
H6E H 0.4047 0.9789 0.3496
C15E C 0.37484(5) 0.97460(14) 0.37515(5)
C16E C 0.3750 0.9452(2) 0.3750
O3E O 0.3907(2) 0.93301(14) 0.3607(2)
C17E C 0.3750 1.22092(15) 0.3750
C18E C 0.3548(2) 1.23441(15) 0.3871(4)
H7E H 0.3413 1.2253 0.3952
C19E C 0.3547(2) 1.26159(15) 0.3872(4)
H8E H 0.3411 1.2706 0.3953
C20E C 0.37491(5) 1.27527(15) 0.37508(5)
C21E C 0.3750 1.3047(2) 0.3750
O4E O 0.3591(3) 1.31687(15) 0.3892(3)
C22E C 0.33741(16) 1.12492(3) 0.28435(19)
C23E C 0.31065(17) 1.12200(7) 0.2807(2)
C24E C 0.30028(19) 1.12200(7) 0.2556(2)
H9E H 0.2824 1.1200 0.2531
C25E C 0.3167(2) 1.12493(4) 0.2341(2)
C26E C 0.3435(2) 1.12785(8) 0.23776(19)
H10E H 0.3544 1.1298 0.2234
C27E C 0.35383(18) 1.12784(7) 0.2629(2)
C28E C 0.29282(16) 1.11883(14) 0.3040(2)
H11E H 0.2751 1.1171 0.2981
H12E H 0.2943 1.1339 0.3151
H13E H 0.2978 1.1035 0.3136
C29E C 0.3054(3) 1.12494(4) 0.2068(2)
H14E H 0.2868 1.1228 0.2077
H15E H 0.3129 1.1108 0.1969
H16E H 0.3094 1.1413 0.1984
C30E C 0.38291(18) 1.13101(14) 0.2668(2)
H17E H 0.3913 1.1328 0.2502
H18E H 0.3897 1.1159 0.2757
H19E H 0.3862 1.1463 0.2772
N1DA N 0.38667(9) 1.09655(16) 0.40295(13)
C2DA C 0.38464(9) 1.06930(16) 0.39800(13)
C3DA C 0.39392(11) 1.05580(15) 0.42041(14)
H1DA H 0.3948 1.0377 0.4224
C4DA C 0.40169(12) 1.07470(17) 0.43921(13)
H2DA H 0.4085 1.0712 0.4557
C5DA C 0.39720(10) 1.09988(16) 0.42842(14)
C6DA C 0.40140(13) 1.12491(2) 0.43859(18)
N2DA N 0.38659(11) 1.15328(16) 0.40283(15)
C7DA C 0.39710(13) 1.14980(17) 0.42829(15)
C8DA C 0.40159(14) 1.17492(18) 0.43922(14)
H3DA H 0.4084 1.1783 0.4557
C9DA C 0.39386(14) 1.19393(16) 0.42052(14)
H4DA H 0.3947 1.2120 0.4226
C10DA C 0.38458(12) 1.18055(16) 0.39803(13)
C13DA C 0.3572(3) 1.01525(14) 0.3903(3)
H5DA H 0.3452 1.0243 0.4005
C14DA C 0.3573(3) 0.98807(14) 0.3902(3)
H6DA H 0.3453 0.9789 0.4004
O3DA O 0.3593(2) 0.93301(14) 0.3893(2)
C18DA C 0.3952(2) 1.23441(15) 0.3629(4)
H7DA H 0.4087 1.2253 0.3548
C19DA C 0.3953(2) 1.26159(15) 0.3628(4)
H8DA H 0.4089 1.2706 0.3547
O4DA O 0.3909(3) 1.31687(15) 0.3608(3)
C22DA C 0.41259(16) 1.12492(3) 0.46565(19)
C23DA C 0.43935(17) 1.12200(7) 0.4693(2)
C24DA C 0.44972(19) 1.12200(7) 0.4944(2)
H9DA H 0.4676 1.1200 0.4969
C25DA C 0.4333(2) 1.12493(4) 0.5159(2)
C26DA C 0.4065(2) 1.12785(8) 0.51224(19)
H10DA H 0.3956 1.1298 0.5266
C27DA C 0.39617(18) 1.12784(7) 0.4871(2)
C28DA C 0.45718(16) 1.11883(14) 0.4460(2)
H11DA H 0.4749 1.1171 0.4519
H12DA H 0.4557 1.1339 0.4349
H13DA H 0.4522 1.1035 0.4364
C29DA C 0.4446(3) 1.12494(4) 0.5432(2)
H14DA H 0.4632 1.1228 0.5423
H15DA H 0.4371 1.1108 0.5531
H16DA H 0.4406 1.1413 0.5516
C30DA C 0.36709(18) 1.13101(14) 0.4832(2)
H17DA H 0.3587 1.1328 0.4998
H18DA H 0.3603 1.1159 0.4743
H19DA H 0.3638 1.1463 0.4728
Zn2G Zn -0.10308(6) 0.89692(6) 0.39692(6)
Zn3G Zn -0.1176(2) 1.12515(12) 0.3793(3)
C1G C -0.1250 1.19180(17) 0.3750
N1G N -0.11333(9) 1.15345(16) 0.34705(13)
C2G C -0.11536(9) 1.18070(16) 0.35200(13)
C3G C -0.10608(11) 1.19420(15) 0.32959(14)
H1G H -0.1052 1.2123 0.3276
C4G C -0.09831(12) 1.17530(17) 0.31079(13)
H2G H -0.0915 1.1788 0.2943
C5G C -0.10280(10) 1.15012(16) 0.32158(14)
C6G C -0.09860(13) 1.12509(2) 0.31141(18)
N2G N -0.11341(11) 1.09672(16) 0.34717(15)
C7G C -0.10290(13) 1.10020(17) 0.32171(15)
C8G C -0.09841(14) 1.07508(18) 0.31078(14)
H3G H -0.0916 1.0717 0.2943
C9G C -0.10614(14) 1.05607(16) 0.32948(14)
H4G H -0.1053 1.0380 0.3274
C10G C -0.11542(12) 1.06945(16) 0.35197(13)
C11G C -0.1250 1.05843(18) 0.3750
C12G C -0.1250 1.22105(14) 0.3750
C13G C -0.1428(3) 1.23475(14) 0.3597(3)
H5G H -0.1548 1.2257 0.3495
C14G C -0.1427(3) 1.26193(14) 0.3598(3)
H6G H -0.1547 1.2711 0.3496
C15G C -0.12484(5) 1.27540(14) 0.37515(5)
C16G C -0.1250 1.3048(2) 0.3750
O3G O -0.1407(2) 1.31699(14) 0.3607(2)
C17G C -0.1250 1.02908(15) 0.3750
C18G C -0.1048(2) 1.01559(15) 0.3871(4)
H7G H -0.0913 1.0247 0.3952
C19G C -0.1047(2) 0.98841(15) 0.3872(4)
H8G H -0.0911 0.9794 0.3953
C20G C -0.12491(5) 0.97473(15) 0.37508(5)
C21G C -0.1250 0.9453(2) 0.3750
O4G O -0.1091(3) 0.93313(15) 0.3892(3)
C22G C -0.08741(16) 1.12508(3) 0.28435(19)
C23G C -0.06065(17) 1.12800(7) 0.2807(2)
C24G C -0.05028(19) 1.12800(7) 0.2556(2)
H9G H -0.0324 1.1300 0.2531
C25G C -0.0667(2) 1.12507(4) 0.2341(2)
C26G C -0.0935(2) 1.12215(8) 0.23776(19)
H10G H -0.1044 1.1202 0.2234
C27G C -0.10383(18) 1.12216(7) 0.2629(2)
C28G C -0.04282(16) 1.13117(14) 0.3040(2)
H11G H -0.0251 1.1329 0.2981
H12G H -0.0443 1.1161 0.3151
H13G H -0.0478 1.1465 0.3136
C29G C -0.0554(3) 1.12506(4) 0.2068(2)
H14G H -0.0368 1.1272 0.2077
H15G H -0.0629 1.1392 0.1969
H16G H -0.0594 1.1087 0.1984
C30G C -0.13291(18) 1.11899(14) 0.2668(2)
H17G H -0.1413 1.1172 0.2502
H18G H -0.1397 1.1341 0.2757
H19G H -0.1362 1.1037 0.2772
N1BA N -0.13667(9) 1.15345(16) 0.40295(13)
C2BA C -0.13464(9) 1.18070(16) 0.39800(13)
C3BA C -0.14392(11) 1.19420(15) 0.42041(14)
H1BA H -0.1448 1.2123 0.4224
C4BA C -0.15169(12) 1.17530(17) 0.43921(13)
H2BA H -0.1585 1.1788 0.4557
C5BA C -0.14720(10) 1.15012(16) 0.42842(14)
C6BA C -0.15140(13) 1.12509(2) 0.43859(18)
N2BA N -0.13659(11) 1.09672(16) 0.40283(15)
C7BA C -0.14710(13) 1.10020(17) 0.42829(15)
C8BA C -0.15159(14) 1.07508(18) 0.43922(14)
H3BA H -0.1584 1.0717 0.4557
C9BA C -0.14386(14) 1.05607(16) 0.42052(14)
H4BA H -0.1447 1.0380 0.4226
C10BA C -0.13458(12) 1.06945(16) 0.39803(13)
C13BA C -0.1072(3) 1.23475(14) 0.3903(3)
H5BA H -0.0952 1.2257 0.4005
C14BA C -0.1073(3) 1.26193(14) 0.3902(3)
H6BA H -0.0953 1.2711 0.4004
O3BA O -0.1093(2) 1.31699(14) 0.3893(2)
C18BA C -0.1452(2) 1.01559(15) 0.3629(4)
H7BA H -0.1587 1.0247 0.3548
C19BA C -0.1453(2) 0.98841(15) 0.3628(4)
H8BA H -0.1589 0.9794 0.3547
O4BA O -0.1409(3) 0.93313(15) 0.3608(3)
C22BA C -0.16259(16) 1.12508(3) 0.46565(19)
C23BA C -0.18935(17) 1.12800(7) 0.4693(2)
C24BA C -0.19972(19) 1.12800(7) 0.4944(2)
H9BA H -0.2176 1.1300 0.4969
C25BA C -0.1833(2) 1.12507(4) 0.5159(2)
C26BA C -0.1565(2) 1.12215(8) 0.51224(19)
H10BA H -0.1456 1.1202 0.5266
C27BA C -0.14617(18) 1.12216(7) 0.4871(2)
C28BA C -0.20718(16) 1.13117(14) 0.4460(2)
H11BA H -0.2249 1.1329 0.4519
H12BA H -0.2057 1.1161 0.4349
H13BA H -0.2022 1.1465 0.4364
C29BA C -0.1946(3) 1.12506(4) 0.5432(2)
H14BA H -0.2132 1.1272 0.5423
H15BA H -0.1871 1.1392 0.5531
H16BA H -0.1906 1.1087 0.5516
C30BA C -0.11709(18) 1.11899(14) 0.4832(2)
H17BA H -0.1087 1.1172 0.4998
H18BA H -0.1103 1.1341 0.4743
H19BA H -0.1138 1.1037 0.4728
Zn2J Zn -0.14692(6) 0.89692(6) 0.35308(6)
Zn3J Zn -0.1293(3) 0.8824(2) 0.12485(12)
C1J C -0.1250 0.8750 0.05820(17)
N1J N -0.09705(13) 0.88667(9) 0.09655(16)
C2J C -0.10200(13) 0.88464(9) 0.06930(16)
C3J C -0.07959(14) 0.89392(11) 0.05580(15)
H1J H -0.0776 0.8948 0.0377
C4J C -0.06079(13) 0.90169(12) 0.07470(17)
H2J H -0.0443 0.9085 0.0712
C5J C -0.07158(14) 0.89720(10) 0.09988(16)
C6J C -0.06141(18) 0.90140(13) 0.12491(2)
N2J N -0.09717(15) 0.88659(11) 0.15328(16)
C7J C -0.07171(15) 0.89710(13) 0.14980(17)
C8J C -0.06078(14) 0.90159(14) 0.17492(18)
H3J H -0.0443 0.9084 0.1783
C9J C -0.07948(14) 0.89386(14) 0.19393(16)
H4J H -0.0774 0.8947 0.2120
C10J C -0.10197(13) 0.88458(12) 0.18055(16)
C11J C -0.1250 0.8750 0.19157(18)
C12J C -0.1250 0.8750 0.02895(14)
C13J C -0.1097(3) 0.8572(3) 0.01525(14)
H5J H -0.0995 0.8452 0.0243
C14J C -0.1098(3) 0.8573(3) -0.01193(14)
H6J H -0.0996 0.8453 -0.0211
C15J C -0.12515(5) 0.87516(5) -0.02540(14)
C16J C -0.1250 0.8750 -0.0548(2)
O3J O -0.1107(2) 0.8593(2) -0.06699(14)
C17J C -0.1250 0.8750 0.22092(15)
C18J C -0.1371(4) 0.8952(2) 0.23441(15)
H7J H -0.1452 0.9087 0.2253
C19J C -0.1372(4) 0.8953(2) 0.26159(15)
H8J H -0.1453 0.9089 0.2706
C20J C -0.12508(5) 0.87509(5) 0.27527(15)
C21J C -0.1250 0.8750 0.3047(2)
O4J O -0.1392(3) 0.8909(3) 0.31687(15)
C22J C -0.03435(19) 0.91259(16) 0.12492(3)
C23J C -0.0307(2) 0.93935(17) 0.12200(7)
C24J C -0.0056(2) 0.94972(19) 0.12200(7)
H9J H -0.0031 0.9676 0.1200
C25J C 0.0159(2) 0.9333(2) 0.12493(4)
C26J C 0.01224(19) 0.9065(2) 0.12785(8)
H10J H 0.0266 0.8956 0.1298
C27J C -0.0129(2) 0.89617(18) 0.12784(7)
C28J C -0.0540(2) 0.95718(16) 0.11883(14)
H11J H -0.0481 0.9749 0.1171
H12J H -0.0651 0.9557 0.1339
H13J H -0.0636 0.9522 0.1035
C29J C 0.0432(2) 0.9446(3) 0.12494(4)
H14J H 0.0423 0.9632 0.1228
H15J H 0.0531 0.9371 0.1108
H16J H 0.0516 0.9406 0.1413
C30J C -0.0168(2) 0.86709(18) 0.13101(14)
H17J H -0.0002 0.8587 0.1328
H18J H -0.0257 0.8603 0.1159
H19J H -0.0272 0.8638 0.1463
N1SA N -0.15295(13) 0.86333(9) 0.09655(16)
C2SA C -0.14800(13) 0.86536(9) 0.06930(16)
C3SA C -0.17041(14) 0.85608(11) 0.05580(15)
H1SA H -0.1724 0.8552 0.0377
C4SA C -0.18921(13) 0.84831(12) 0.07470(17)
H2SA H -0.2057 0.8415 0.0712
C5SA C -0.17842(14) 0.85280(10) 0.09988(16)
C6SA C -0.18859(18) 0.84860(13) 0.12491(2)
N2SA N -0.15283(15) 0.86341(11) 0.15328(16)
C7SA C -0.17829(15) 0.85290(13) 0.14980(17)
C8SA C -0.18922(14) 0.84841(14) 0.17492(18)
H3SA H -0.2057 0.8416 0.1783
C9SA C -0.17052(14) 0.85614(14) 0.19393(16)
H4SA H -0.1726 0.8553 0.2120
C10SA C -0.14803(13) 0.86542(12) 0.18055(16)
C13SA C -0.1403(3) 0.8928(3) 0.01525(14)
H5SA H -0.1505 0.9048 0.0243
C14SA C -0.1402(3) 0.8927(3) -0.01193(14)
H6SA H -0.1504 0.9047 -0.0211
O3SA O -0.1393(2) 0.8907(2) -0.06699(14)
C18SA C -0.1129(4) 0.8548(2) 0.23441(15)
H7SA H -0.1048 0.8413 0.2253
C19SA C -0.1128(4) 0.8547(2) 0.26159(15)
H8SA H -0.1047 0.8411 0.2706
O4SA O -0.1108(3) 0.8591(3) 0.31687(15)
C22SA C -0.21565(19) 0.83741(16) 0.12492(3)
C23SA C -0.2193(2) 0.81065(17) 0.12200(7)
C24SA C -0.2444(2) 0.80028(19) 0.12200(7)
H9SA H -0.2469 0.7824 0.1200
C25SA C -0.2659(2) 0.8167(2) 0.12493(4)
C26SA C -0.26224(19) 0.8435(2) 0.12785(8)
H10SA H -0.2766 0.8544 0.1298
C27SA C -0.2371(2) 0.85383(18) 0.12784(7)
C28SA C -0.1960(2) 0.79282(16) 0.11883(14)
H11SA H -0.2019 0.7751 0.1171
H12SA H -0.1849 0.7943 0.1339
H13SA H -0.1864 0.7978 0.1035
C29SA C -0.2932(2) 0.8054(3) 0.12494(4)
H14SA H -0.2923 0.7868 0.1228
H15SA H -0.3031 0.8129 0.1108
H16SA H -0.3016 0.8094 0.1413
C30SA C -0.2332(2) 0.88291(18) 0.13101(14)
H17SA H -0.2498 0.8913 0.1328
H18SA H -0.2243 0.8897 0.1159
H19SA H -0.2228 0.8862 0.1463
Zn1K Zn 0.35328(6) 0.85328(6) 0.35328(6)
Zn3K Zn 0.3793(3) 0.8824(2) 0.12515(12)
C1K C 0.3750 0.8750 0.19180(17)
N1K N 0.34705(13) 0.88667(9) 0.15345(16)
C2K C 0.35200(13) 0.88464(9) 0.18070(16)
C3K C 0.32959(14) 0.89392(11) 0.19420(15)
H1K H 0.3276 0.8948 0.2123
C4K C 0.31079(13) 0.90169(12) 0.17530(17)
H2K H 0.2943 0.9085 0.1788
C5K C 0.32158(14) 0.89720(10) 0.15012(16)
C6K C 0.31141(18) 0.90140(13) 0.12509(2)
N2K N 0.34717(15) 0.88659(11) 0.09672(16)
C7K C 0.32171(15) 0.89710(13) 0.10020(17)
C8K C 0.31078(14) 0.90159(14) 0.07508(18)
H3K H 0.2943 0.9084 0.0717
C9K C 0.32948(14) 0.89386(14) 0.05607(16)
H4K H 0.3274 0.8947 0.0380
C10K C 0.35197(13) 0.88458(12) 0.06945(16)
C11K C 0.3750 0.8750 0.05843(18)
C12K C 0.3750 0.8750 0.22105(14)
C13K C 0.3597(3) 0.8572(3) 0.23475(14)
H5K H 0.3495 0.8452 0.2257
C14K C 0.3598(3) 0.8573(3) 0.26193(14)
H6K H 0.3496 0.8453 0.2711
C15K C 0.37515(5) 0.87516(5) 0.27540(14)
C16K C 0.3750 0.8750 0.3048(2)
O3K O 0.3607(2) 0.8593(2) 0.31699(14)
C17K C 0.3750 0.8750 0.02908(15)
C18K C 0.3871(4) 0.8952(2) 0.01559(15)
H7K H 0.3952 0.9087 0.0247
C19K C 0.3872(4) 0.8953(2) -0.01159(15)
H8K H 0.3953 0.9089 -0.0206
C20K C 0.37508(5) 0.87509(5) -0.02527(15)
C21K C 0.3750 0.8750 -0.0547(2)
O4K O 0.3892(3) 0.8909(3) -0.06687(15)
C22K C 0.28435(19) 0.91259(16) 0.12508(3)
C23K C 0.2807(2) 0.93935(17) 0.12800(7)
C24K C 0.2556(2) 0.94972(19) 0.12800(7)
H9K H 0.2531 0.9676 0.1300
C25K C 0.2341(2) 0.9333(2) 0.12507(4)
C26K C 0.23776(19) 0.9065(2) 0.12215(8)
H10K H 0.2234 0.8956 0.1202
C27K C 0.2629(2) 0.89617(18) 0.12216(7)
C28K C 0.3040(2) 0.95718(16) 0.13117(14)
H11K H 0.2981 0.9749 0.1329
H12K H 0.3151 0.9557 0.1161
H13K H 0.3136 0.9522 0.1465
C29K C 0.2068(2) 0.9446(3) 0.12506(4)
H14K H 0.2077 0.9632 0.1272
H15K H 0.1969 0.9371 0.1392
H16K H 0.1984 0.9406 0.1087
C30K C 0.2668(2) 0.86709(18) 0.11899(14)
H17K H 0.2502 0.8587 0.1172
H18K H 0.2757 0.8603 0.1341
H19K H 0.2772 0.8638 0.1037
N1RA N 0.40295(13) 0.86333(9) 0.15345(16)
C2RA C 0.39800(13) 0.86536(9) 0.18070(16)
C3RA C 0.42041(14) 0.85608(11) 0.19420(15)
H1RA H 0.4224 0.8552 0.2123
C4RA C 0.43921(13) 0.84831(12) 0.17530(17)
H2RA H 0.4557 0.8415 0.1788
C5RA C 0.42842(14) 0.85280(10) 0.15012(16)
C6RA C 0.43859(18) 0.84860(13) 0.12509(2)
N2RA N 0.40283(15) 0.86341(11) 0.09672(16)
C7RA C 0.42829(15) 0.85290(13) 0.10020(17)
C8RA C 0.43922(14) 0.84841(14) 0.07508(18)
H3RA H 0.4557 0.8416 0.0717
C9RA C 0.42052(14) 0.85614(14) 0.05607(16)
H4RA H 0.4226 0.8553 0.0380
C10RA C 0.39803(13) 0.86542(12) 0.06945(16)
C13RA C 0.3903(3) 0.8928(3) 0.23475(14)
H5RA H 0.4005 0.9048 0.2257
C14RA C 0.3902(3) 0.8927(3) 0.26193(14)
H6RA H 0.4004 0.9047 0.2711
O3RA O 0.3893(2) 0.8907(2) 0.31699(14)
C18RA C 0.3629(4) 0.8548(2) 0.01559(15)
H7RA H 0.3548 0.8413 0.0247
C19RA C 0.3628(4) 0.8547(2) -0.01159(15)
H8RA H 0.3547 0.8411 -0.0206
O4RA O 0.3608(3) 0.8591(3) -0.06687(15)
C22RA C 0.46565(19) 0.83741(16) 0.12508(3)
C23RA C 0.4693(2) 0.81065(17) 0.12800(7)
C24RA C 0.4944(2) 0.80028(19) 0.12800(7)
H9RA H 0.4969 0.7824 0.1300
C25RA C 0.5159(2) 0.8167(2) 0.12507(4)
C26RA C 0.51224(19) 0.8435(2) 0.12215(8)
H10RA H 0.5266 0.8544 0.1202
C27RA C 0.4871(2) 0.85383(18) 0.12216(7)
C28RA C 0.4460(2) 0.79282(16) 0.13117(14)
H11RA H 0.4519 0.7751 0.1329
H12RA H 0.4349 0.7943 0.1161
H13RA H 0.4364 0.7978 0.1465
C29RA C 0.5432(2) 0.8054(3) 0.12506(4)
H14RA H 0.5423 0.7868 0.1272
H15RA H 0.5531 0.8129 0.1392
H16RA H 0.5516 0.8094 0.1087
C30RA C 0.4832(2) 0.88291(18) 0.11899(14)
H17RA H 0.4998 0.8913 0.1172
H18RA H 0.4743 0.8897 0.1341
H19RA H 0.4728 0.8862 0.1037
Zn3O Zn 0.12515(12) 0.8793(3) 0.3824(2)
Zn1P Zn 0.39672(6) 0.85328(6) 0.39672(6)
Zn2A Zn 0.35308(6) 0.39692(6) 0.35308(6)
Zn3P Zn 0.3676(2) 0.62515(12) 0.3707(3)
C1P C 0.3750 0.69180(17) 0.3750
N1P N 0.36333(9) 0.65345(16) 0.40295(13)
C2P C 0.36536(9) 0.68070(16) 0.39800(13)
C3P C 0.35608(11) 0.69420(15) 0.42041(14)
H1P H 0.3552 0.7123 0.4224
C4P C 0.34831(12) 0.67530(17) 0.43921(13)
H2P H 0.3415 0.6788 0.4557
C5P C 0.35280(10) 0.65012(16) 0.42842(14)
C6P C 0.34860(13) 0.62509(2) 0.43859(18)
N2P N 0.36341(11) 0.59672(16) 0.40283(15)
C7P C 0.35290(13) 0.60020(17) 0.42829(15)
C8P C 0.34841(14) 0.57508(18) 0.43922(14)
H3P H 0.3416 0.5717 0.4557
C9P C 0.35614(14) 0.55607(16) 0.42052(14)
H4P H 0.3553 0.5380 0.4226
C10P C 0.36542(12) 0.56945(16) 0.39803(13)
C11P C 0.3750 0.55843(18) 0.3750
C12P C 0.3750 0.72105(14) 0.3750
C13P C 0.3928(3) 0.73475(14) 0.3903(3)
H5P H 0.4048 0.7257 0.4005
C14P C 0.3927(3) 0.76193(14) 0.3902(3)
H6P H 0.4047 0.7711 0.4004
C15P C 0.37484(5) 0.77540(14) 0.37485(5)
C16P C 0.3750 0.8048(2) 0.3750
O3P O 0.3907(2) 0.81699(14) 0.3893(2)
C17P C 0.3750 0.52908(15) 0.3750
C18P C 0.3548(2) 0.51559(15) 0.3629(4)
H7P H 0.3413 0.5247 0.3548
C19P C 0.3547(2) 0.48841(15) 0.3628(4)
H8P H 0.3411 0.4794 0.3547
C20P C 0.37491(5) 0.47473(15) 0.37492(5)
C21P C 0.3750 0.4453(2) 0.3750
O4P O 0.3591(3) 0.43313(15) 0.3608(3)
C22P C 0.33741(16) 0.62508(3) 0.46565(19)
C23P C 0.31065(17) 0.62800(7) 0.4693(2)
C24P C 0.30028(19) 0.62800(7) 0.4944(2)
H9P H 0.2824 0.6300 0.4969
C25P C 0.3167(2) 0.62507(4) 0.5159(2)
C26P C 0.3435(2) 0.62215(8) 0.51224(19)
H10P H 0.3544 0.6202 0.5266
C27P C 0.35383(18) 0.62216(7) 0.4871(2)
C28P C 0.29282(16) 0.63117(14) 0.4460(2)
H11P H 0.2751 0.6329 0.4519
H12P H 0.2943 0.6161 0.4349
H13P H 0.2978 0.6465 0.4364
C29P C 0.3054(3) 0.62506(4) 0.5432(2)
H14P H 0.2868 0.6272 0.5423
H15P H 0.3129 0.6392 0.5531
H16P H 0.3094 0.6087 0.5516
C30P C 0.38291(18) 0.61899(14) 0.4832(2)
H17P H 0.3913 0.6172 0.4998
H18P H 0.3897 0.6341 0.4743
H19P H 0.3862 0.6037 0.4728
N1QA N 0.38667(9) 0.65345(16) 0.34705(13)
C2QA C 0.38464(9) 0.68070(16) 0.35200(13)
C3QA C 0.39392(11) 0.69420(15) 0.32959(14)
H1QA H 0.3948 0.7123 0.3276
C4QA C 0.40169(12) 0.67530(17) 0.31079(13)
H2QA H 0.4085 0.6788 0.2943
C5QA C 0.39720(10) 0.65012(16) 0.32158(14)
C6QA C 0.40140(13) 0.62509(2) 0.31141(18)
N2QA N 0.38659(11) 0.59672(16) 0.34717(15)
C7QA C 0.39710(13) 0.60020(17) 0.32171(15)
C8QA C 0.40159(14) 0.57508(18) 0.31078(14)
H3QA H 0.4084 0.5717 0.2943
C9QA C 0.39386(14) 0.55607(16) 0.32948(14)
H4QA H 0.3947 0.5380 0.3274
C10QA C 0.38458(12) 0.56945(16) 0.35197(13)
C13QA C 0.3572(3) 0.73475(14) 0.3597(3)
H5QA H 0.3452 0.7257 0.3495
C14QA C 0.3573(3) 0.76193(14) 0.3598(3)
H6QA H 0.3453 0.7711 0.3496
O3QA O 0.3593(2) 0.81699(14) 0.3607(2)
C18QA C 0.3952(2) 0.51559(15) 0.3871(4)
H7QA H 0.4087 0.5247 0.3952
C19QA C 0.3953(2) 0.48841(15) 0.3872(4)
H8QA H 0.4089 0.4794 0.3953
O4QA O 0.3909(3) 0.43313(15) 0.3892(3)
C22QA C 0.41259(16) 0.62508(3) 0.28435(19)
C23QA C 0.43935(17) 0.62800(7) 0.2807(2)
C24QA C 0.44972(19) 0.62800(7) 0.2556(2)
H9QA H 0.4676 0.6300 0.2531
C25QA C 0.4333(2) 0.62507(4) 0.2341(2)
C26QA C 0.4065(2) 0.62215(8) 0.23776(19)
H10QA H 0.3956 0.6202 0.2234
C27QA C 0.39617(18) 0.62216(7) 0.2629(2)
C28QA C 0.45718(16) 0.63117(14) 0.3040(2)
H11QA H 0.4749 0.6329 0.2981
H12QA H 0.4557 0.6161 0.3151
H13QA H 0.4522 0.6465 0.3136
C29QA C 0.4446(3) 0.62506(4) 0.2068(2)
H14QA H 0.4632 0.6272 0.2077
H15QA H 0.4371 0.6392 0.1969
H16QA H 0.4406 0.6087 0.1984
C30QA C 0.36709(18) 0.61899(14) 0.2668(2)
H17QA H 0.3587 0.6172 0.2502
H18QA H 0.3603 0.6341 0.2757
H19QA H 0.3638 0.6037 0.2772
Zn3DA Zn 0.3824(2) 1.12485(12) 0.3707(3)
Zn3BA Zn -0.1324(2) 1.12515(12) 0.3707(3)
Zn3SA Zn -0.1207(3) 0.8676(2) 0.12485(12)
Zn3RA Zn 0.3707(3) 0.8676(2) 0.12515(12)
Zn3QA Zn 0.3824(2) 0.62515(12) 0.3793(3)
Zn1A Zn -0.10328(6) 1.35328(6) 0.39672(6)
Zn1F Zn -0.14672(6) 0.89672(6) -0.10328(6)
Zn1G Zn -0.14672(6) 1.35328(6) 0.35328(6)
Zn1J Zn -0.10328(6) 0.85328(6) -0.10328(6)
O2A O 0.3750 0.3750 0.3750
Zn2B Zn 0.35308(6) 0.85308(6) -0.10308(6)
Zn2E Zn 0.35308(6) 1.35308(6) 0.39692(6)
Zn2I Zn 0.39692(6) 1.35308(6) 0.35308(6)
Zn2K Zn 0.39692(6) 0.89692(6) -0.10308(6)
Zn2T Zn -0.14692(6) 0.85308(6) 0.39692(6)
Zn2W Zn 0.39692(6) 0.39692(6) 0.39692(6)
O3U O 0.3607(2) 0.8907(2) 0.43301(14)
O3Z O 0.43301(14) 0.8893(2) 0.3593(2)
O3HA O 0.3893(2) 0.8593(2) 0.43301(14)
O3KA O 0.43301(14) 0.8607(2) 0.3907(2)
O4A O 0.31687(15) 0.3892(3) 0.3591(3)
O4R O -0.1091(3) 0.81687(15) 0.3608(3)
O4IA O -0.1108(3) 0.8909(3) 0.43313(15)
O4KA O -0.18313(15) 0.8892(3) 0.3591(3)
O4TA O 0.3608(3) 0.3909(3) 0.31687(15)
loop_
_geom_bond_atom_site_label_1
_geom_bond_atom_site_label_2
_geom_bond_site_symmetry_1
_geom_bond_site_symmetry_2
O1 Zn1 1_555 1_555
Zn1 O3 1_555 1_555
O2 Zn2 1_555 1_555
Zn2 O4 1_555 1_555
Zn3 N1 1_555 1_555
C1 C2 1_555 1_555
N1 C2 1_555 1_555
C2 C3 1_555 1_555
C3 H1 1_555 1_555
C4 C3 1_555 1_555
H2 C4 1_555 1_555
C5 N1 1_555 1_555
C6 C5 1_555 1_555
N2 Zn3 1_555 1_555
C7 C6 1_555 1_555
C8 C7 1_555 1_555
H3 C8 1_555 1_555
C9 C8 1_555 1_555
H4 C9 1_555 1_555
C10 N2 1_555 1_555
C11 C10 1_555 1_555
C12 C1 1_555 1_555
C13 C12 1_555 1_555
H5 C13 1_555 1_555
C14 C13 1_555 1_555
H6 C14 1_555 1_555
C15 C14 1_555 1_555
C16 C15 1_555 1_555
O3 C16 1_555 1_555
C17 C11 1_555 1_555
C18 C17 1_555 1_555
H7 C18 1_555 1_555
C19 C18 1_555 1_555
H8 C19 1_555 1_555
C20 C19 1_555 1_555
C21 C20 1_555 1_555
O4 C21 1_555 1_555
C22 C6 1_555 1_555
C23 C22 1_555 1_555
C24 C23 1_555 1_555
H9 C24 1_555 1_555
C25 C24 1_555 1_555
C26 C25 1_555 1_555
H10 C26 1_555 1_555
C27 C22 1_555 1_555
C28 C23 1_555 1_555
H11 C28 1_555 1_555
H12 C28 1_555 1_555
H13 C28 1_555 1_555
C29 C25 1_555 1_555
H14 C29 1_555 1_555
H15 C29 1_555 1_555
H16 C29 1_555 1_555
C30 C27 1_555 1_555
H17 C30 1_555 1_555
H18 C30 1_555 1_555
H19 C30 1_555 1_555
N1O Zn3 1_555 1_555
C2O C1 1_555 1_555
C3O C2O 1_555 1_555
H1O C3O 1_555 1_555
C4O C3O 1_555 1_555
H2O C4O 1_555 1_555
C5O N1O 1_555 1_555
C6O C5O 1_555 1_555
N2O Zn3 1_555 1_555
C7O C6O 1_555 1_555
C8O C7O 1_555 1_555
H3O C8O 1_555 1_555
C9O C8O 1_555 1_555
H4O C9O 1_555 1_555
C10O C11 1_555 1_555
C13O C12 1_555 1_555
H5O C13O 1_555 1_555
C14O C15 1_555 1_555
H6O C14O 1_555 1_555
O3O C16 1_555 1_555
C18O C17 1_555 1_555
H7O C18O 1_555 1_555
C19O C20 1_555 1_555
H8O C19O 1_555 1_555
O4O C21 1_555 1_555
C22O C6O 1_555 1_555
C23O C22O 1_555 1_555
C24O C23O 1_555 1_555
H9O C24O 1_555 1_555
C25O C24O 1_555 1_555
C26O C25O 1_555 1_555
H10O C26O 1_555 1_555
C27O C22O 1_555 1_555
C28O C23O 1_555 1_555
H11O C28O 1_555 1_555
H12O C28O 1_555 1_555
H13O C28O 1_555 1_555
C29O C25O 1_555 1_555
H14O C29O 1_555 1_555
H15O C29O 1_555 1_555
H16O C29O 1_555 1_555
C30O C27O 1_555 1_555
H17O C30O 1_555 1_555
H18O C30O 1_555 1_555
H19O C30O 1_555 1_555
Zn1E O1 1_555 1_555
Zn3E N1E 1_555 1_555
C1E C2E 1_555 1_555
N1E C2E 1_555 1_555
C2E C3E 1_555 1_555
C3E H1E 1_555 1_555
C4E C3E 1_555 1_555
H2E C4E 1_555 1_555
C5E N1E 1_555 1_555
C6E C5E 1_555 1_555
N2E Zn3E 1_555 1_555
C7E C6E 1_555 1_555
C8E C7E 1_555 1_555
H3E C8E 1_555 1_555
C9E C8E 1_555 1_555
H4E C9E 1_555 1_555
C10E N2E 1_555 1_555
C11E C10E 1_555 1_555
C12E C1E 1_555 1_555
C13E C12E 1_555 1_555
H5E C13E 1_555 1_555
C14E C13E 1_555 1_555
H6E C14E 1_555 1_555
C15E C14E 1_555 1_555
C16E C15E 1_555 1_555
O3E Zn1E 1_555 1_555
C17E C11E 1_555 1_555
C18E C17E 1_555 1_555
H7E C18E 1_555 1_555
C19E C18E 1_555 1_555
H8E C19E 1_555 1_555
C20E C19E 1_555 1_555
C21E C20E 1_555 1_555
O4E C21E 1_555 1_555
C22E C6E 1_555 1_555
C23E C22E 1_555 1_555
C24E C23E 1_555 1_555
H9E C24E 1_555 1_555
C25E C24E 1_555 1_555
C26E C25E 1_555 1_555
H10E C26E 1_555 1_555
C27E C22E 1_555 1_555
C28E C23E 1_555 1_555
H11E C28E 1_555 1_555
H12E C28E 1_555 1_555
H13E C28E 1_555 1_555
C29E C25E 1_555 1_555
H14E C29E 1_555 1_555
H15E C29E 1_555 1_555
H16E C29E 1_555 1_555
C30E C27E 1_555 1_555
H17E C30E 1_555 1_555
H18E C30E 1_555 1_555
H19E C30E 1_555 1_555
N1DA Zn3E 1_555 1_555
C2DA C1E 1_555 1_555
C3DA C2DA 1_555 1_555
H1DA C3DA 1_555 1_555
C4DA C3DA 1_555 1_555
H2DA C4DA 1_555 1_555
C5DA N1DA 1_555 1_555
C6DA C5DA 1_555 1_555
N2DA Zn3E 1_555 1_555
C7DA C6DA 1_555 1_555
C8DA C7DA 1_555 1_555
H3DA C8DA 1_555 1_555
C9DA C8DA 1_555 1_555
H4DA C9DA 1_555 1_555
C10DA C11E 1_555 1_555
C13DA C12E 1_555 1_555
H5DA C13DA 1_555 1_555
C14DA C15E 1_555 1_555
H6DA C14DA 1_555 1_555
O3DA Zn1 1_555 1_555
C18DA C17E 1_555 1_555
H7DA C18DA 1_555 1_555
C19DA C20E 1_555 1_555
H8DA C19DA 1_555 1_555
O4DA C21E 1_555 1_555
C22DA C6DA 1_555 1_555
C23DA C22DA 1_555 1_555
C24DA C23DA 1_555 1_555
H9DA C24DA 1_555 1_555
C25DA C24DA 1_555 1_555
C26DA C25DA 1_555 1_555
H10DA C26DA 1_555 1_555
C27DA C22DA 1_555 1_555
C28DA C23DA 1_555 1_555
H11DA C28DA 1_555 1_555
H12DA C28DA 1_555 1_555
H13DA C28DA 1_555 1_555
C29DA C25DA 1_555 1_555
H14DA C29DA 1_555 1_555
H15DA C29DA 1_555 1_555
H16DA C29DA 1_555 1_555
C30DA C27DA 1_555 1_555
H17DA C30DA 1_555 1_555
H18DA C30DA 1_555 1_555
H19DA C30DA 1_555 1_555
Zn2G O2 1_555 1_555
Zn3G N1G 1_555 1_555
C1G C2G 1_555 1_555
N1G C2G 1_555 1_555
C2G C3G 1_555 1_555
C3G H1G 1_555 1_555
C4G C3G 1_555 1_555
H2G C4G 1_555 1_555
C5G N1G 1_555 1_555
C6G C5G 1_555 1_555
N2G Zn3G 1_555 1_555
C7G C6G 1_555 1_555
C8G C7G 1_555 1_555
H3G C8G 1_555 1_555
C9G C8G 1_555 1_555
H4G C9G 1_555 1_555
C10G N2G 1_555 1_555
C11G C10G 1_555 1_555
C12G C1G 1_555 1_555
C13G C12G 1_555 1_555
H5G C13G 1_555 1_555
C14G C13G 1_555 1_555
H6G C14G 1_555 1_555
C15G C14G 1_555 1_555
C16G C15G 1_555 1_555
O3G C16G 1_555 1_555
C17G C11G 1_555 1_555
C18G C17G 1_555 1_555
H7G C18G 1_555 1_555
C19G C18G 1_555 1_555
H8G C19G 1_555 1_555
C20G C19G 1_555 1_555
C21G C20G 1_555 1_555
O4G Zn2G 1_555 1_555
C22G C6G 1_555 1_555
C23G C22G 1_555 1_555
C24G C23G 1_555 1_555
H9G C24G 1_555 1_555
C25G C24G 1_555 1_555
C26G C25G 1_555 1_555
H10G C26G 1_555 1_555
C27G C22G 1_555 1_555
C28G C23G 1_555 1_555
H11G C28G 1_555 1_555
H12G C28G 1_555 1_555
H13G C28G 1_555 1_555
C29G C25G 1_555 1_555
H14G C29G 1_555 1_555
H15G C29G 1_555 1_555
H16G C29G 1_555 1_555
C30G C27G 1_555 1_555
H17G C30G 1_555 1_555
H18G C30G 1_555 1_555
H19G C30G 1_555 1_555
N1BA Zn3G 1_555 1_555
C2BA C1G 1_555 1_555
C3BA C2BA 1_555 1_555
H1BA C3BA 1_555 1_555
C4BA C3BA 1_555 1_555
H2BA C4BA 1_555 1_555
C5BA N1BA 1_555 1_555
C6BA C5BA 1_555 1_555
N2BA Zn3G 1_555 1_555
C7BA C6BA 1_555 1_555
C8BA C7BA 1_555 1_555
H3BA C8BA 1_555 1_555
C9BA C8BA 1_555 1_555
H4BA C9BA 1_555 1_555
C10BA C11G 1_555 1_555
C13BA C12G 1_555 1_555
H5BA C13BA 1_555 1_555
C14BA C15G 1_555 1_555
H6BA C14BA 1_555 1_555
O3BA C16G 1_555 1_555
C18BA C17G 1_555 1_555
H7BA C18BA 1_555 1_555
C19BA C20G 1_555 1_555
H8BA C19BA 1_555 1_555
O4BA C21G 1_555 1_555
C22BA C6BA 1_555 1_555
C23BA C22BA 1_555 1_555
C24BA C23BA 1_555 1_555
H9BA C24BA 1_555 1_555
C25BA C24BA 1_555 1_555
C26BA C25BA 1_555 1_555
H10BA C26BA 1_555 1_555
C27BA C22BA 1_555 1_555
C28BA C23BA 1_555 1_555
H11BA C28BA 1_555 1_555
H12BA C28BA 1_555 1_555
H13BA C28BA 1_555 1_555
C29BA C25BA 1_555 1_555
H14BA C29BA 1_555 1_555
H15BA C29BA 1_555 1_555
H16BA C29BA 1_555 1_555
C30BA C27BA 1_555 1_555
H17BA C30BA 1_555 1_555
H18BA C30BA 1_555 1_555
H19BA C30BA 1_555 1_555
Zn2J O2 1_555 1_555
Zn3J N1J 1_555 1_555
C1J C2J 1_555 1_555
N1J C2J 1_555 1_555
C2J C3J 1_555 1_555
C3J H1J 1_555 1_555
C4J C3J 1_555 1_555
H2J C4J 1_555 1_555
C5J N1J 1_555 1_555
C6J C5J 1_555 1_555
N2J Zn3J 1_555 1_555
C7J C6J 1_555 1_555
C8J C7J 1_555 1_555
H3J C8J 1_555 1_555
C9J C8J 1_555 1_555
H4J C9J 1_555 1_555
C10J N2J 1_555 1_555
C11J C10J 1_555 1_555
C12J C1J 1_555 1_555
C13J C12J 1_555 1_555
H5J C13J 1_555 1_555
C14J C13J 1_555 1_555
H6J C14J 1_555 1_555
C15J C14J 1_555 1_555
C16J C15J 1_555 1_555
O3J C16J 1_555 1_555
C17J C11J 1_555 1_555
C18J C17J 1_555 1_555
H7J C18J 1_555 1_555
C19J C18J 1_555 1_555
H8J C19J 1_555 1_555
C20J C19J 1_555 1_555
C21J C20J 1_555 1_555
O4J Zn2J 1_555 1_555
C22J C6J 1_555 1_555
C23J C22J 1_555 1_555
C24J C23J 1_555 1_555
H9J C24J 1_555 1_555
C25J C24J 1_555 1_555
C26J C25J 1_555 1_555
H10J C26J 1_555 1_555
C27J C22J 1_555 1_555
C28J C23J 1_555 1_555
H11J C28J 1_555 1_555
H12J C28J 1_555 1_555
H13J C28J 1_555 1_555
C29J C25J 1_555 1_555
H14J C29J 1_555 1_555
H15J C29J 1_555 1_555
H16J C29J 1_555 1_555
C30J C27J 1_555 1_555
H17J C30J 1_555 1_555
H18J C30J 1_555 1_555
H19J C30J 1_555 1_555
N1SA Zn3J 1_555 1_555
C2SA C1J 1_555 1_555
C3SA C2SA 1_555 1_555
H1SA C3SA 1_555 1_555
C4SA C3SA 1_555 1_555
H2SA C4SA 1_555 1_555
C5SA N1SA 1_555 1_555
C6SA C5SA 1_555 1_555
N2SA Zn3J 1_555 1_555
C7SA C6SA 1_555 1_555
C8SA C7SA 1_555 1_555
H3SA C8SA 1_555 1_555
C9SA C8SA 1_555 1_555
H4SA C9SA 1_555 1_555
C10SA C11J 1_555 1_555
C13SA C12J 1_555 1_555
H5SA C13SA 1_555 1_555
C14SA C15J 1_555 1_555
H6SA C14SA 1_555 1_555
O3SA C16J 1_555 1_555
C18SA C17J 1_555 1_555
H7SA C18SA 1_555 1_555
C19SA C20J 1_555 1_555
H8SA C19SA 1_555 1_555
O4SA Zn2 1_555 1_555
C22SA C6SA 1_555 1_555
C23SA C22SA 1_555 1_555
C24SA C23SA 1_555 1_555
H9SA C24SA 1_555 1_555
C25SA C24SA 1_555 1_555
C26SA C25SA 1_555 1_555
H10SA C26SA 1_555 1_555
C27SA C22SA 1_555 1_555
C28SA C23SA 1_555 1_555
H11SA C28SA 1_555 1_555
H12SA C28SA 1_555 1_555
H13SA C28SA 1_555 1_555
C29SA C25SA 1_555 1_555
H14SA C29SA 1_555 1_555
H15SA C29SA 1_555 1_555
H16SA C29SA 1_555 1_555
C30SA C27SA 1_555 1_555
H17SA C30SA 1_555 1_555
H18SA C30SA 1_555 1_555
H19SA C30SA 1_555 1_555
Zn1K O1 1_555 1_555
Zn3K N1K 1_555 1_555
C1K C2K 1_555 1_555
N1K C2K 1_555 1_555
C2K C3K 1_555 1_555
C3K H1K 1_555 1_555
C4K C3K 1_555 1_555
H2K C4K 1_555 1_555
C5K N1K 1_555 1_555
C6K C5K 1_555 1_555
N2K Zn3K 1_555 1_555
C7K C6K 1_555 1_555
C8K C7K 1_555 1_555
H3K C8K 1_555 1_555
C9K C8K 1_555 1_555
H4K C9K 1_555 1_555
C10K N2K 1_555 1_555
C11K C10K 1_555 1_555
C12K C1K 1_555 1_555
C13K C12K 1_555 1_555
H5K C13K 1_555 1_555
C14K C13K 1_555 1_555
H6K C14K 1_555 1_555
C15K C14K 1_555 1_555
C16K C15K 1_555 1_555
O3K Zn1K 1_555 1_555
C17K C11K 1_555 1_555
C18K C17K 1_555 1_555
H7K C18K 1_555 1_555
C19K C18K 1_555 1_555
H8K C19K 1_555 1_555
C20K C19K 1_555 1_555
C21K C20K 1_555 1_555
O4K C21K 1_555 1_555
C22K C6K 1_555 1_555
C23K C22K 1_555 1_555
C24K C23K 1_555 1_555
H9K C24K 1_555 1_555
C25K C24K 1_555 1_555
C26K C25K 1_555 1_555
H10K C26K 1_555 1_555
C27K C22K 1_555 1_555
C28K C23K 1_555 1_555
H11K C28K 1_555 1_555
H12K C28K 1_555 1_555
H13K C28K 1_555 1_555
C29K C25K 1_555 1_555
H14K C29K 1_555 1_555
H15K C29K 1_555 1_555
H16K C29K 1_555 1_555
C30K C27K 1_555 1_555
H17K C30K 1_555 1_555
H18K C30K 1_555 1_555
H19K C30K 1_555 1_555
N1RA Zn3K 1_555 1_555
C2RA C1K 1_555 1_555
C3RA C2RA 1_555 1_555
H1RA C3RA 1_555 1_555
C4RA C3RA 1_555 1_555
H2RA C4RA 1_555 1_555
C5RA N1RA 1_555 1_555
C6RA C5RA 1_555 1_555
N2RA Zn3K 1_555 1_555
C7RA C6RA 1_555 1_555
C8RA C7RA 1_555 1_555
H3RA C8RA 1_555 1_555
C9RA C8RA 1_555 1_555
H4RA C9RA 1_555 1_555
C10RA C11K 1_555 1_555
C13RA C12K 1_555 1_555
H5RA C13RA 1_555 1_555
C14RA C15K 1_555 1_555
H6RA C14RA 1_555 1_555
O3RA Zn1E 1_555 1_555
C18RA C17K 1_555 1_555
H7RA C18RA 1_555 1_555
C19RA C20K 1_555 1_555
H8RA C19RA 1_555 1_555
O4RA C21K 1_555 1_555
C22RA C6RA 1_555 1_555
C23RA C22RA 1_555 1_555
C24RA C23RA 1_555 1_555
H9RA C24RA 1_555 1_555
C25RA C24RA 1_555 1_555
C26RA C25RA 1_555 1_555
H10RA C26RA 1_555 1_555
C27RA C22RA 1_555 1_555
C28RA C23RA 1_555 1_555
H11RA C28RA 1_555 1_555
H12RA C28RA 1_555 1_555
H13RA C28RA 1_555 1_555
C29RA C25RA 1_555 1_555
H14RA C29RA 1_555 1_555
H15RA C29RA 1_555 1_555
H16RA C29RA 1_555 1_555
C30RA C27RA 1_555 1_555
H17RA C30RA 1_555 1_555
H18RA C30RA 1_555 1_555
H19RA C30RA 1_555 1_555
Zn3O Zn3 1_555 1_555
Zn1P O1 1_555 1_555
Zn2A O4P 1_555 1_555
Zn3P N1P 1_555 1_555
C1P C2P 1_555 1_555
N1P C2P 1_555 1_555
C2P C3P 1_555 1_555
C3P H1P 1_555 1_555
C4P C3P 1_555 1_555
H2P C4P 1_555 1_555
C5P N1P 1_555 1_555
C6P C5P 1_555 1_555
N2P Zn3P 1_555 1_555
C7P C6P 1_555 1_555
C8P C7P 1_555 1_555
H3P C8P 1_555 1_555
C9P C8P 1_555 1_555
H4P C9P 1_555 1_555
C10P N2P 1_555 1_555
C11P C10P 1_555 1_555
C12P C1P 1_555 1_555
C13P C12P 1_555 1_555
H5P C13P 1_555 1_555
C14P C13P 1_555 1_555
H6P C14P 1_555 1_555
C15P C14P 1_555 1_555
C16P C15P 1_555 1_555
O3P Zn1P 1_555 1_555
C17P C11P 1_555 1_555
C18P C17P 1_555 1_555
H7P C18P 1_555 1_555
C19P C18P 1_555 1_555
H8P C19P 1_555 1_555
C20P C19P 1_555 1_555
C21P C20P 1_555 1_555
O4P C21P 1_555 1_555
C22P C6P 1_555 1_555
C23P C22P 1_555 1_555
C24P C23P 1_555 1_555
H9P C24P 1_555 1_555
C25P C24P 1_555 1_555
C26P C25P 1_555 1_555
H10P C26P 1_555 1_555
C27P C22P 1_555 1_555
C28P C23P 1_555 1_555
H11P C28P 1_555 1_555
H12P C28P 1_555 1_555
H13P C28P 1_555 1_555
C29P C25P 1_555 1_555
H14P C29P 1_555 1_555
H15P C29P 1_555 1_555
H16P C29P 1_555 1_555
C30P C27P 1_555 1_555
H17P C30P 1_555 1_555
H18P C30P 1_555 1_555
H19P C30P 1_555 1_555
N1QA Zn3P 1_555 1_555
C2QA C1P 1_555 1_555
C3QA C2QA 1_555 1_555
H1QA C3QA 1_555 1_555
C4QA C3QA 1_555 1_555
H2QA C4QA 1_555 1_555
C5QA N1QA 1_555 1_555
C6QA C5QA 1_555 1_555
N2QA Zn3P 1_555 1_555
C7QA C6QA 1_555 1_555
C8QA C7QA 1_555 1_555
H3QA C8QA 1_555 1_555
C9QA C8QA 1_555 1_555
H4QA C9QA 1_555 1_555
C10QA C11P 1_555 1_555
C13QA C12P 1_555 1_555
H5QA C13QA 1_555 1_555
C14QA C15P 1_555 1_555
H6QA C14QA 1_555 1_555
O3QA Zn1K 1_555 1_555
C18QA C17P 1_555 1_555
H7QA C18QA 1_555 1_555
C19QA C20P 1_555 1_555
H8QA C19QA 1_555 1_555
O4QA C21P 1_555 1_555
C22QA C6QA 1_555 1_555
C23QA C22QA 1_555 1_555
C24QA C23QA 1_555 1_555
H9QA C24QA 1_555 1_555
C25QA C24QA 1_555 1_555
C26QA C25QA 1_555 1_555
H10QA C26QA 1_555 1_555
C27QA C22QA 1_555 1_555
C28QA C23QA 1_555 1_555
H11QA C28QA 1_555 1_555
H12QA C28QA 1_555 1_555
H13QA C28QA 1_555 1_555
C29QA C25QA 1_555 1_555
H14QA C29QA 1_555 1_555
H15QA C29QA 1_555 1_555
H16QA C29QA 1_555 1_555
C30QA C27QA 1_555 1_555
H17QA C30QA 1_555 1_555
H18QA C30QA 1_555 1_555
H19QA C30QA 1_555 1_555
Zn3DA Zn3E 1_555 1_555
Zn3BA Zn3G 1_555 1_555
Zn3SA Zn3J 1_555 1_555
Zn3RA Zn3K 1_555 1_555
Zn3QA Zn3P 1_555 1_555
Zn1A O3BA 1_555 1_555
Zn1F O3SA 1_555 1_555
Zn1G O3G 1_555 1_555
Zn1J O3J 1_555 1_555
O2A Zn2A 1_555 1_555
Zn2B O4RA 1_555 1_555
Zn2E O4E 1_555 1_555
Zn2I O4DA 1_555 1_555
Zn2K O4K 1_555 1_555
Zn2T O2 1_555 1_555
Zn2W O4QA 1_555 1_555
O3U Zn1 1_555 1_555
O3Z Zn1E 1_555 1_555
O3HA Zn1P 1_555 1_555
O3KA Zn1P 1_555 1_555
O4A Zn2A 1_555 1_555
O4R Zn2 1_555 1_555
O4IA Zn2G 1_555 1_555
O4KA Zn2J 1_555 1_555
O4TA Zn2A 1_555 1_555
N1 Zn3O 1_555 1_555
C4 C5 1_555 1_555
N2 C7 1_555 1_555
N2 Zn3O 1_555 1_555
C9 C10 1_555 1_555
C26 C27 1_555 1_555
N1O C2O 1_555 1_555
N1O Zn3O 1_555 1_555
C4O C5O 1_555 1_555
N2O C7O 1_555 1_555
N2O C10O 1_555 1_555
N2O Zn3O 1_555 1_555
C9O C10O 1_555 1_555
C13O C14O 1_555 1_555
O3O Zn1K 1_555 1_555
C18O C19O 1_555 1_555
O4O Zn2G 1_555 1_555
C26O C27O 1_555 1_555
N1E Zn3DA 1_555 1_555
C4E C5E 1_555 1_555
N2E C7E 1_555 1_555
N2E Zn3DA 1_555 1_555
C9E C10E 1_555 1_555
C16E O3E 1_555 1_555
C16E O3DA 1_555 1_555
C26E C27E 1_555 1_555
N1DA C2DA 1_555 1_555
N1DA Zn3DA 1_555 1_555
C4DA C5DA 1_555 1_555
N2DA C7DA 1_555 1_555
N2DA C10DA 1_555 1_555
N2DA Zn3DA 1_555 1_555
C9DA C10DA 1_555 1_555
C13DA C14DA 1_555 1_555
C18DA C19DA 1_555 1_555
C26DA C27DA 1_555 1_555
N1G Zn3BA 1_555 1_555
C4G C5G 1_555 1_555
N2G C7G 1_555 1_555
N2G Zn3BA 1_555 1_555
C9G C10G 1_555 1_555
C21G O4G 1_555 1_555
C26G C27G 1_555 1_555
N1BA C2BA 1_555 1_555
N1BA Zn3BA 1_555 1_555
C4BA C5BA 1_555 1_555
N2BA C7BA 1_555 1_555
N2BA C10BA 1_555 1_555
N2BA Zn3BA 1_555 1_555
C9BA C10BA 1_555 1_555
C13BA C14BA 1_555 1_555
C18BA C19BA 1_555 1_555
O4BA Zn2J 1_555 1_555
C26BA C27BA 1_555 1_555
N1J Zn3SA 1_555 1_555
C4J C5J 1_555 1_555
N2J C7J 1_555 1_555
N2J Zn3SA 1_555 1_555
C9J C10J 1_555 1_555
C21J O4J 1_555 1_555
C21J O4SA 1_555 1_555
C26J C27J 1_555 1_555
N1SA C2SA 1_555 1_555
N1SA Zn3SA 1_555 1_555
C4SA C5SA 1_555 1_555
N2SA C7SA 1_555 1_555
N2SA C10SA 1_555 1_555
N2SA Zn3SA 1_555 1_555
C9SA C10SA 1_555 1_555
C13SA C14SA 1_555 1_555
C18SA C19SA 1_555 1_555
C26SA C27SA 1_555 1_555
N1K Zn3RA 1_555 1_555
C4K C5K 1_555 1_555
N2K C7K 1_555 1_555
N2K Zn3RA 1_555 1_555
C9K C10K 1_555 1_555
C16K O3K 1_555 1_555
C16K O3RA 1_555 1_555
C26K C27K 1_555 1_555
N1RA C2RA 1_555 1_555
N1RA Zn3RA 1_555 1_555
C4RA C5RA 1_555 1_555
N2RA C7RA 1_555 1_555
N2RA C10RA 1_555 1_555
N2RA Zn3RA 1_555 1_555
C9RA C10RA 1_555 1_555
C13RA C14RA 1_555 1_555
C18RA C19RA 1_555 1_555
C26RA C27RA 1_555 1_555
N1P Zn3QA 1_555 1_555
C4P C5P 1_555 1_555
N2P C7P 1_555 1_555
N2P Zn3QA 1_555 1_555
C9P C10P 1_555 1_555
C16P O3P 1_555 1_555
C16P O3QA 1_555 1_555
C26P C27P 1_555 1_555
N1QA C2QA 1_555 1_555
N1QA Zn3QA 1_555 1_555
C4QA C5QA 1_555 1_555
N2QA C7QA 1_555 1_555
N2QA C10QA 1_555 1_555
N2QA Zn3QA 1_555 1_555
C9QA C10QA 1_555 1_555
C13QA C14QA 1_555 1_555
C18QA C19QA 1_555 1_555
C26QA C27QA 1_555 1_555
O2A Zn2W 1_555 1_555

#END
