
#######################################################################
#
#                 Cambridge Crystallographic Data Centre
#                                CCDC 
#
#######################################################################
#
# If this CIF has been generated from an entry in the Cambridge 
# Structural Database, then it will include bibliographic, chemical, 
# crystal, experimental, refinement or atomic coordinate data resulting 
# from the CCDC's data processing and validation procedures.
#
#######################################################################

data_LUNJIP
_symmetry_cell_setting           monoclinic
_symmetry_space_group_name_H-M   'C 2/m'
_symmetry_Int_Tables_number      12
_space_group_name_Hall           '-C 2y'
loop_
_symmetry_equiv_pos_site_id
_symmetry_equiv_pos_as_xyz
1 x,y,z
2 -x,y,-z
3 1/2+x,1/2+y,z
4 1/2-x,1/2+y,-z
5 -x,-y,-z
6 x,-y,z
7 1/2-x,1/2-y,-z
8 1/2+x,1/2-y,z
_cell_length_a                   9.5335(10)
_cell_length_b                   16.614(2)
_cell_length_c                   6.1915(6)
_cell_angle_alpha                90
_cell_angle_beta                 101.659(3)
_cell_angle_gamma                90
_cell_volume                     960.436
loop_
_atom_site_label
_atom_site_type_symbol
_atom_site_fract_x
_atom_site_fract_y
_atom_site_fract_z
Zn1 Zn 0.5000 0.67327(2) 0.5000
C1 C 0.4533(2) 0.5000 0.3882(4)
N1 N 0.41625(16) 0.57100(9) 0.2979(2)
C2 C 0.3357(2) 0.57075(13) 0.0931(3)
H1 H 0.3068 0.6194 0.0239
C3 C 0.2952(3) 0.5000 -0.0156(5)
H2 H 0.2418 0.5000 -0.1591
C4 C 0.2440(2) 0.72824(11) 0.6085(3)
O1 O 0.34123(18) 0.68067(9) 0.6859(3)
O2 O 0.13689(16) 0.74479(9) 0.6882(2)
C1A C 0.5467(2) 0.5000 0.6118(4)
N1A N 0.58375(16) 0.57100(9) 0.7021(2)
C2A C 0.6643(2) 0.57075(13) 0.9069(3)
H1A H 0.6932 0.6194 0.9761
C3A C 0.7048(3) 0.5000 1.0156(5)
H2A H 0.7582 0.5000 1.1591
N1D N 0.58375(16) 0.42900(9) 0.7021(2)
C2D C 0.6643(2) 0.42925(13) 0.9069(3)
H1D H 0.6932 0.3806 0.9761
N1E N 0.41625(16) 0.42900(9) 0.2979(2)
C2E C 0.3357(2) 0.42925(13) 0.0931(3)
H1E H 0.3068 0.3806 0.0239
C4F C 0.2560(2) 0.77176(11) 0.3915(3)
O1F O 0.15877(18) 0.81933(9) 0.3141(3)
O2F O 0.36311(16) 0.75521(9) 0.3118(2)
C4A C 0.7560(2) 0.72824(11) 0.3915(3)
O1A O 0.65877(18) 0.68067(9) 0.3141(3)
O2A O 0.86311(16) 0.74479(9) 0.3118(2)
C4G C 0.7440(2) 0.77176(11) 0.6085(3)
O1G O 0.84123(18) 0.81933(9) 0.6859(3)
O2G O 0.63689(16) 0.75521(9) 0.6882(2)
Zn1D Zn 0.5000 0.32673(2) 0.5000
Zn1F Zn 0.0000 0.82673(2) 0.5000
Zn1F_2 Zn 1.0000 0.82673(2) 0.5000
O1D O 0.65877(18) 0.31933(9) 0.3141(3)
O1E O 0.34123(18) 0.31933(9) 0.6859(3)
O2B O 0.63689(16) 0.24479(9) 0.6882(2)
O2C O 0.36311(16) 0.24479(9) 0.3118(2)
O3 O 1.0000 0.3434(4) 1.0000
O4 O 0.9176(9) 0.4581(5) 0.6427(13)
O5 O 0.9611(8) 0.3838(4) 0.7795(11)
loop_
_geom_bond_atom_site_label_1
_geom_bond_atom_site_label_2
_geom_bond_site_symmetry_1
_geom_bond_site_symmetry_2
Zn1 N1 1_555 1_555
C1 N1 1_555 1_555
N1 C2 1_555 1_555
C2 H1 1_555 1_555
C3 C2 1_555 1_555
H2 C3 1_555 1_555
C4 O1 1_555 1_555
O1 Zn1 1_555 1_555
O2 C4 1_555 1_555
C1A C1 1_555 1_555
N1A Zn1 1_555 1_555
C2A N1A 1_555 1_555
H1A C2A 1_555 1_555
C3A C2A 1_555 1_555
H2A C3A 1_555 1_555
N1D C1A 1_555 1_555
C2D C3A 1_555 1_555
H1D C2D 1_555 1_555
N1E C1 1_555 1_555
C2E C3 1_555 1_555
H1E C2E 1_555 1_555
C4F C4 1_555 1_555
O1F C4F 1_555 1_555
O2F Zn1 1_555 1_555
C4A O1A 1_555 1_555
O1A Zn1 1_555 1_555
O2A C4A 1_555 1_555
C4G C4A 1_555 1_555
O1G C4G 1_555 1_555
O2G Zn1 1_555 1_555
Zn1D N1D 1_555 1_555
Zn1F O2 1_555 1_555
Zn1F_2 O2A 1_555 1_555
O1D Zn1D 1_555 1_555
O1E Zn1D 1_555 1_555
O2B Zn1D 1_555 1_555
O2C Zn1D 1_555 1_555
C1A N1A 1_555 1_555
N1D C2D 1_555 1_555
N1E C2E 1_555 1_555
N1E Zn1D 1_555 1_555
C4F O2F 1_555 1_555
O1F Zn1F 1_555 1_555
C4G O2G 1_555 1_555
O1G Zn1F_2 1_555 1_555

#END
