
#######################################################################
#
#                 Cambridge Crystallographic Data Centre
#                                CCDC 
#
#######################################################################
#
# If this CIF has been generated from an entry in the Cambridge 
# Structural Database, then it will include bibliographic, chemical, 
# crystal, experimental, refinement or atomic coordinate data resulting 
# from the CCDC's data processing and validation procedures.
#
#######################################################################

data_LUNQES
_symmetry_cell_setting           trigonal
_symmetry_space_group_name_H-M   'P 32 2 1'
_symmetry_Int_Tables_number      154
_space_group_name_Hall           'P 32 2"'
loop_
_symmetry_equiv_pos_site_id
_symmetry_equiv_pos_as_xyz
1 x,y,z
2 -y,x-y,2/3+z
3 -x+y,-x,1/3+z
4 y,x,-z
5 x-y,-y,1/3-z
6 -x,-x+y,2/3-z
_cell_length_a                   11.3994(3)
_cell_length_b                   11.3994(3)
_cell_length_c                   41.5243(12)
_cell_angle_alpha                90
_cell_angle_beta                 90
_cell_angle_gamma                120
_cell_volume                     4673.01
loop_
_atom_site_label
_atom_site_type_symbol
_atom_site_fract_x
_atom_site_fract_y
_atom_site_fract_z
Co1 Co 0.52658(8) 0.52658(8) 0.0000
O1 O 0.6020(4) 0.4324(4) 0.03099(10)
N1 N 0.3359(6) 0.3359(6) 0.0000
O2 O 0.4502(4) 0.5897(5) 0.03674(9)
N2 N 0.7141(5) 0.7141(5) 0.0000
C1 C 0.3300(6) 0.2179(6) 0.00609(15)
C2 C 0.4448(5) 0.5879(5) 0.06705(13)
O3 O 0.6984(4) 0.4366(4) 0.07815(9)
C3 C 0.2117(6) 0.0935(6) 0.00639(15)
H1 H 0.4108 0.2195 0.0104
O4 O 0.5400(4) 0.6066(4) 0.08563(9)
C4 C 0.3113(6) 0.5581(6) 0.08188(14)
Co2 Co 0.61893(7) 0.51295(7) 0.110060(17)
C5 C 0.0895(8) 0.0895(8) 0.0000
H2 H 0.2135 0.0144 0.0107
C6 C 0.2937(6) 0.5518(6) 0.11491(14)
C7 C 0.2050(7) 0.5325(7) 0.06158(14)
N3 N 0.8035(5) 0.7038(5) 0.11112(11)
O5 O 0.5852(6) 0.5603(4) 0.15901(9)
O6 O 0.6927(6) 0.4485(4) 0.15122(9)
N4 N 0.4270(6) 0.3240(5) 0.11286(12)
C8 C -0.0403(7) -0.0403(7) 0.0000
C9 C 0.1675(7) 0.5103(7) 0.12738(13)
H3 H 0.3668 0.5754 0.1286
C10 C 0.0783(9) 0.4936(7) 0.07398(15)
H4 H 0.2189 0.5415 0.0394
C11 C 0.8064(7) 0.8203(7) 0.1151(2)
C12 C 0.9223(6) 0.7079(6) 0.10880(15)
C13 C -0.0713(7) -0.1386(7) 0.02348(15)
C14 C 0.0578(8) 0.4771(7) 0.10703(15)
C15 C 0.1439(6) 0.4987(6) 0.16305(13)
C16 C -0.0333(8) 0.4730(8) 0.05206(19)
H5 H 0.7237 0.8179 0.1165
C17 C 0.9217(8) 0.9443(7) 0.1174(2)
C18 C 1.0458(7) 0.8279(7) 0.10979(17)
H6 H 0.9223 0.6268 0.1064
C19 C -0.1919(7) -0.2562(6) 0.02300(14)
H7 H -0.0089 -0.1237 0.0396
H8 H -0.0286 0.4441 0.1155
N5 N -0.1408(9) 0.3509(7) 0.05130(14)
O7 O -0.0245(7) 0.5705(7) 0.03643(15)
H9 H 0.9175 1.0227 0.1210
C20 C 1.0498(6) 0.9489(6) 0.11394(14)
H10 H 1.1260 0.8260 0.1076
H11 H -0.2104 -0.3190 0.0393
C21 C -0.2661(11) 0.3253(9) 0.03418(19)
C22 C -0.1550(11) 0.2270(9) 0.0651(2)
C23 C 1.1783(7) 1.0793(7) 0.11397(15)
H12 H -0.2465 0.3473 0.0113
C24 C -0.3251(6) 0.4072(6) 0.04866(13)
C25 C -0.3626(12) 0.1720(13) 0.0383(4)
C26 C -0.2712(16) 0.1126(15) 0.0456(4)
H13 H -0.1780 0.2199 0.0878
H14 H -0.0719 0.2240 0.0628
C27 C 1.2723(11) 1.1072(10) 0.0921(2)
C28 C 1.2045(7) 1.1838(7) 0.13633(18)
H15 H -0.4252 0.1545 0.0559
H16 H -0.4141 0.1330 0.0188
H17 H -0.2377 0.0937 0.0259
H18 H -0.3186 0.0301 0.0582
H19 H 1.2564 1.0440 0.0760
C29 C 1.3944(11) 1.2284(10) 0.0924(2)
C30 C 1.3303(7) 1.3036(7) 0.13510(18)
H20 H 1.1397 1.1730 0.1515
H21 H 1.4574 1.2413 0.0765
H22 H 1.3485 1.3717 0.1500
O1C O 0.4324(4) 0.6020(4) -0.03099(10)
O2C O 0.5897(5) 0.4502(4) -0.03674(9)
C1C C 0.2179(6) 0.3300(6) -0.00609(15)
C2C C 0.5879(5) 0.4448(5) -0.06705(13)
C3C C 0.0935(6) 0.2117(6) -0.00639(15)
H1C H 0.2195 0.4108 -0.0104
O3C O 0.4366(4) 0.6984(4) -0.07815(9)
O4C O 0.6066(4) 0.5400(4) -0.08563(9)
C4C C 0.5581(6) 0.3113(6) -0.08188(14)
H2C H 0.0144 0.2135 -0.0107
Co2C Co 0.51295(7) 0.61893(7) -0.110060(17)
C6C C 0.5518(6) 0.2937(6) -0.11491(14)
C7C C 0.5325(7) 0.2050(7) -0.06158(14)
N3C N 0.7038(5) 0.8035(5) -0.11112(11)
O5C O 0.5603(4) 0.5852(6) -0.15901(9)
O6C O 0.4485(4) 0.6927(6) -0.15122(9)
N4C N 0.3240(5) 0.4270(6) -0.11286(12)
C9C C 0.5103(7) 0.1675(7) -0.12738(13)
H3C H 0.5754 0.3668 -0.1286
C10C C 0.4936(7) 0.0783(9) -0.07398(15)
H4C H 0.5415 0.2189 -0.0394
C13C C -0.1386(7) -0.0713(7) -0.02348(15)
C11C C 0.8203(7) 0.8064(7) -0.1151(2)
C12C C 0.7079(6) 0.9223(6) -0.10880(15)
C14C C 0.4771(7) 0.0578(8) -0.10703(15)
C15C C 0.4987(6) 0.1439(6) -0.16305(13)
C16C C 0.4730(8) -0.0333(8) -0.05206(19)
C19C C -0.2562(6) -0.1919(7) -0.02300(14)
H7C H -0.1237 -0.0089 -0.0396
H5C H 0.8179 0.7237 -0.1165
C17C C 0.9443(7) 0.9217(8) -0.1174(2)
C18C C 0.8279(7) 1.0458(7) -0.10979(17)
H6C H 0.6268 0.9223 -0.1064
O5D O 0.0249(7) 0.4397(4) 0.17432(9)
O6D O 0.2442(7) 0.5515(4) 0.18211(9)
H8C H 0.4441 -0.0286 -0.1155
O5A O 0.4397(4) 0.0249(7) -0.17432(9)
O6A O 0.5515(4) 0.2442(7) -0.18211(9)
N5C N 0.3509(7) -0.1408(9) -0.05130(14)
O7C O 0.5705(7) -0.0245(7) -0.03643(15)
N2_2 N -0.2859(5) -0.2859(5) 0.0000
H11C H -0.3190 -0.2104 -0.0393
H9C H 1.0227 0.9175 -0.1210
C20C C 0.9489(6) 1.0498(6) -0.11394(14)
H10C H 0.8260 1.1260 -0.1076
Co2D Co 0.10598(10) 0.48705(7) 0.223273(17)
Co2A Co 0.48705(7) 0.10598(10) -0.223273(17)
C21C C 0.3253(9) -0.2661(11) -0.03418(19)
C22C C 0.2270(9) -0.1550(11) -0.0651(2)
Co1_2 Co -0.47342(8) -0.47342(8) 0.0000
C23C C 1.0793(7) 1.1783(7) -0.11397(15)
H12C H 0.3473 -0.2465 -0.0113
C24C C 0.4072(6) -0.3251(6) -0.04866(13)
C25C C 0.1720(13) -0.3626(12) -0.0383(4)
C26C C 0.1126(15) -0.2712(16) -0.0456(4)
H13C H 0.2199 -0.1780 -0.0878
H14C H 0.2240 -0.0719 -0.0628
C27C C 1.1072(10) 1.2723(11) -0.0921(2)
C28C C 1.1838(7) 1.2045(7) -0.13633(18)
O1_2 O -0.3980(4) 0.4324(4) 0.03099(10)
O3_2 O -0.3016(4) 0.4366(4) 0.07815(9)
O1C_2 O 0.4324(4) -0.3980(4) -0.03099(10)
O3C_2 O 0.4366(4) -0.3016(4) -0.07815(9)
H15C H 0.1545 -0.4252 -0.0559
H16C H 0.1330 -0.4141 -0.0188
H17C H 0.0937 -0.2377 -0.0259
H18C H 0.0301 -0.3186 -0.0582
H19C H 1.0440 1.2564 -0.0760
C29C C 1.2284(10) 1.3944(11) -0.0924(2)
C30C C 1.3036(7) 1.3303(7) -0.13510(18)
H20C H 1.1730 1.1397 -0.1515
Co1_3 Co -0.47342(8) 0.52658(8) 0.0000
Co2_2 Co -0.38107(7) 0.51295(7) 0.110060(17)
Co1_4 Co 0.52658(8) -0.47342(8) 0.0000
Co2C_2 Co 0.51295(7) -0.38107(7) -0.110060(17)
N4_2 N 1.4270(6) 1.3240(5) 0.11286(12)
N4C_2 N 1.3240(5) 1.4270(6) -0.11286(12)
H21C H 1.2413 1.4574 -0.0765
H22C H 1.3717 1.3485 -0.1500
Co2_3 Co 1.61893(7) 1.51295(7) 0.110060(17)
Co2C_3 Co 1.51295(7) 1.61893(7) -0.110060(17)
O8 O -0.1517(12) 0.4739(12) -0.0296(2)
O9 O -0.1674(7) 0.2132(8) -0.04086(16)
O10 O 0.7607(9) 0.2402(8) 0.1563(2)
O11 O 0.6095(18) 0.9694(18) 0.1277(4)
O12? O 1.385(3) 0.885(3) 0.1037(6)
loop_
_geom_bond_atom_site_label_1
_geom_bond_atom_site_label_2
_geom_bond_site_symmetry_1
_geom_bond_site_symmetry_2
Co1 O1 1_555 1_555
N1 Co1 1_555 1_555
O2 Co1 1_555 1_555
N2 Co1 1_555 1_555
C1 N1 1_555 1_555
C2 O2 1_555 1_555
O3 Co2 1_555 1_555
C3 C1 1_555 1_555
H1 C1 1_555 1_555
O4 C2 1_555 1_555
C4 C2 1_555 1_555
Co2 O4 1_555 1_555
C5 C3 1_555 1_555
H2 C3 1_555 1_555
C6 C4 1_555 1_555
C7 C4 1_555 1_555
N3 Co2 1_555 1_555
O5 Co2 1_555 1_555
O6 Co2 1_555 1_555
N4 Co2 1_555 1_555
C8 C5 1_555 1_555
C9 C6 1_555 1_555
H3 C6 1_555 1_555
C10 C7 1_555 1_555
H4 C7 1_555 1_555
C11 N3 1_555 1_555
C12 N3 1_555 1_555
C13 C8 1_555 1_555
C14 C9 1_555 1_555
C15 C9 1_555 1_555
C16 C10 1_555 1_555
H5 C11 1_555 1_555
C17 C11 1_555 1_555
C18 C12 1_555 1_555
H6 C12 1_555 1_555
C19 C13 1_555 1_555
H7 C13 1_555 1_555
H8 C14 1_555 1_555
N5 C16 1_555 1_555
O7 C16 1_555 1_555
H9 C17 1_555 1_555
C20 C17 1_555 1_555
H10 C18 1_555 1_555
H11 C19 1_555 1_555
C21 N5 1_555 1_555
C22 N5 1_555 1_555
C23 C20 1_555 1_555
H12 C21 1_555 1_555
C24 C21 1_555 1_555
C25 C21 1_555 1_555
C26 C22 1_555 1_555
H13 C22 1_555 1_555
H14 C22 1_555 1_555
C27 C23 1_555 1_555
C28 C23 1_555 1_555
H15 C25 1_555 1_555
H16 C25 1_555 1_555
H17 C26 1_555 1_555
H18 C26 1_555 1_555
H19 C27 1_555 1_555
C29 C27 1_555 1_555
C30 C28 1_555 1_555
H20 C28 1_555 1_555
H21 C29 1_555 1_555
H22 C30 1_555 1_555
O1C Co1 1_555 1_555
O2C Co1 1_555 1_555
C1C N1 1_555 1_555
C2C O2C 1_555 1_555
C3C C5 1_555 1_555
H1C C1C 1_555 1_555
O3C Co2C 1_555 1_555
O4C C2C 1_555 1_555
C4C C2C 1_555 1_555
H2C C3C 1_555 1_555
Co2C O4C 1_555 1_555
C6C C4C 1_555 1_555
C7C C4C 1_555 1_555
N3C Co2C 1_555 1_555
O5C Co2C 1_555 1_555
O6C Co2C 1_555 1_555
N4C Co2C 1_555 1_555
C9C C6C 1_555 1_555
H3C C6C 1_555 1_555
C10C C7C 1_555 1_555
H4C C7C 1_555 1_555
C13C C8 1_555 1_555
C11C N3C 1_555 1_555
C12C N3C 1_555 1_555
C14C C9C 1_555 1_555
C15C C9C 1_555 1_555
C16C C10C 1_555 1_555
C19C C13C 1_555 1_555
H7C C13C 1_555 1_555
H5C C11C 1_555 1_555
C17C C11C 1_555 1_555
C18C C12C 1_555 1_555
H6C C12C 1_555 1_555
O5D C15 1_555 1_555
O6D C15 1_555 1_555
H8C C14C 1_555 1_555
O5A C15C 1_555 1_555
O6A C15C 1_555 1_555
N5C C16C 1_555 1_555
O7C C16C 1_555 1_555
N2_2 C19 1_555 1_555
H11C C19C 1_555 1_555
H9C C17C 1_555 1_555
C20C C17C 1_555 1_555
H10C C18C 1_555 1_555
Co2D O5D 1_555 1_555
Co2A O5A 1_555 1_555
C21C N5C 1_555 1_555
C22C N5C 1_555 1_555
Co1_2 N2_2 1_555 1_555
C23C C20C 1_555 1_555
H12C C21C 1_555 1_555
C24C C21C 1_555 1_555
C25C C21C 1_555 1_555
C26C C22C 1_555 1_555
H13C C22C 1_555 1_555
H14C C22C 1_555 1_555
C27C C23C 1_555 1_555
C28C C23C 1_555 1_555
O1_2 C24 1_555 1_555
O3_2 C24 1_555 1_555
O1C_2 C24C 1_555 1_555
O3C_2 C24C 1_555 1_555
H15C C25C 1_555 1_555
H16C C25C 1_555 1_555
H17C C26C 1_555 1_555
H18C C26C 1_555 1_555
H19C C27C 1_555 1_555
C29C C27C 1_555 1_555
C30C C28C 1_555 1_555
H20C C28C 1_555 1_555
Co1_3 O1_2 1_555 1_555
Co2_2 O3_2 1_555 1_555
Co1_4 O1C_2 1_555 1_555
Co2C_2 O3C_2 1_555 1_555
N4_2 C29 1_555 1_555
N4C_2 C29C 1_555 1_555
H21C C29C 1_555 1_555
H22C C30C 1_555 1_555
Co2_3 N4_2 1_555 1_555
Co2C_3 N4C_2 1_555 1_555
C10 C14 1_555 1_555
C18 C20 1_555 1_555
C25 C26 1_555 1_555
C30 N4_2 1_555 1_555
C1C C3C 1_555 1_555
C10C C14C 1_555 1_555
C19C N2_2 1_555 1_555
C18C C20C 1_555 1_555
O6D Co2D 1_555 1_555
O6A Co2A 1_555 1_555
C25C C26C 1_555 1_555
C30C N4C_2 1_555 1_555

#END
