
#######################################################################
#
#                 Cambridge Crystallographic Data Centre
#                                CCDC 
#
#######################################################################
#
# If this CIF has been generated from an entry in the Cambridge 
# Structural Database, then it will include bibliographic, chemical, 
# crystal, experimental, refinement or atomic coordinate data resulting 
# from the CCDC's data processing and validation procedures.
#
#######################################################################

data_LUNQAO
_symmetry_cell_setting           trigonal
_symmetry_space_group_name_H-M   'P 31 2 1'
_symmetry_Int_Tables_number      152
_space_group_name_Hall           'P 31 2"'
loop_
_symmetry_equiv_pos_site_id
_symmetry_equiv_pos_as_xyz
1 x,y,z
2 -y,x-y,1/3+z
3 -x+y,-x,2/3+z
4 y,x,-z
5 -x,-x+y,1/3-z
6 x-y,-y,2/3-z
_cell_length_a                   11.4201(3)
_cell_length_b                   11.4201(3)
_cell_length_c                   41.5158(16)
_cell_angle_alpha                90
_cell_angle_beta                 90
_cell_angle_gamma                120
_cell_volume                     4689.04
loop_
_atom_site_label
_atom_site_type_symbol
_atom_site_fract_x
_atom_site_fract_y
_atom_site_fract_z
Co1 Co 1.0000 0.51843(8) 0.1667
Co2 Co 1.10125(7) 0.61137(7) 0.056702(15)
O1 O 0.2567(4) -0.3104(4) 0.08860(8)
O2 O 0.1668(4) -0.4067(4) 0.13533(9)
O3 O 0.4038(6) -0.0303(5) 0.13051(12)
O4 O 0.5776(4) 0.0210(4) -0.00770(8)
O5 O 0.6867(4) 0.2396(4) -0.01549(8)
O6 O 0.9285(4) 0.5315(4) 0.08125(8)
O7 O 0.8593(4) 0.4398(4) 0.12980(8)
N1 N 0.5041(6) -0.1516(6) 0.11489(13)
N2 N 1.0967(5) 0.7993(5) 0.05588(11)
N3 N 1.0974(6) 1.4175(5) 0.05413(11)
N4 N 1.0000 -0.2934(5) 0.1667
N5 N 1.0000 0.3270(5) 0.1667
C1 C 0.2637(5) -0.3326(5) 0.11777(12)
C2 C 0.4051(7) -0.2727(8) 0.13235(16)
H1 H 0.4030 -0.2507 0.1551
C3 C 0.4635(9) -0.3649(11) 0.1291(3)
H2 H 0.4559 -0.4105 0.1494
H3 H 0.4150 -0.4328 0.1127
C4 C 0.6081(12) -0.2798(14) 0.1199(4)
H4 H 0.6384 -0.3311 0.1072
H5 H 0.6652 -0.2439 0.1388
C5 C 0.6098(8) -0.1678(9) 0.1001(2)
H6 H 0.6966 -0.0852 0.1016
H7 H 0.5897 -0.1937 0.0776
C6 C 0.4889(7) -0.0411(7) 0.11481(15)
C7 C 0.5829(6) 0.0702(6) 0.09238(13)
C8 C 0.5760(6) 0.0524(6) 0.05934(13)
H8 H 0.5201 -0.0329 0.0507
C9 C 0.6520(5) 0.1608(5) 0.03912(12)
C10 C 0.7367(5) 0.2868(6) 0.05169(12)
H9 H 0.7851 0.3600 0.0380
C11 C 0.7503(5) 0.3051(6) 0.08511(12)
C12 C 0.6697(6) 0.1981(6) 0.10522(12)
H10 H 0.6733 0.2113 0.1274
C13 C 0.6391(5) 0.1398(5) 0.00340(12)
C14 C 0.8550(5) 0.4362(5) 0.09983(12)
C15 C 0.9816(7) 0.8002(6) 0.0521(2)
H11 H 0.9015 0.7179 0.0507
C16 C 0.9757(8) 0.9169(7) 0.0502(2)
H12 H 0.8934 0.9131 0.0469
C17 C 1.0938(8) 1.0408(6) 0.05330(15)
C18 C 1.2075(8) 1.0372(7) 0.0574(2)
H13 H 1.2891 1.1176 0.0596
C19 C 1.2058(7) 0.9140(6) 0.05838(18)
H14 H 1.2873 0.9152 0.0610
C20 C 1.0929(7) 1.1698(7) 0.05324(16)
C21 C 1.0184(9) 1.1980(8) 0.0308(2)
H15 H 0.9660 1.1349 0.0152
C22 C 1.0251(8) 1.3230(7) 0.0325(2)
H16 H 0.9757 1.3414 0.0176
C23 C 1.1457(16) 1.3783(11) 0.0757(2)
H17 H 1.1826 1.4344 0.0935
C24 C 1.1496(18) 1.2604(11) 0.0756(3)
H18 H 1.1946 1.2447 0.0922
C25 C 0.9363(10) -0.2636(7) 0.18812(19)
H19 H 0.8910 -0.3264 0.2044
C26 C 0.9308(10) -0.1469(7) 0.1886(2)
H20 H 0.8793 -0.1345 0.2041
C27 C 1.0000 -0.0501(6) 0.1667
C28 C 1.0000 0.0815(7) 0.1667
C29 C 0.8816(7) 0.0855(7) 0.17130(18)
H21 H 0.7998 0.0062 0.1746
C30 C 0.8876(7) 0.2105(6) 0.17092(16)
H22 H 0.8075 0.2118 0.1738
C25D C 1.0637(10) -0.1999(12) 0.14521(19)
H19D H 1.1090 -0.2174 0.1289
C26D C 1.0692(10) -0.0777(12) 0.1447(2)
H20D H 1.1207 -0.0138 0.1292
C29D C 1.1184(7) 0.2039(10) 0.16203(18)
H21D H 1.2002 0.2064 0.1587
C30D C 1.1124(7) 0.3229(9) 0.16241(16)
H22D H 1.1925 0.4043 0.1595
Co2D Co 0.89875(7) 0.51012(10) 0.276631(15)
O1D O 1.7433(4) 0.4329(6) 0.24473(8)
O2D O 1.8332(4) 0.4265(6) 0.19800(9)
O3D O 1.5962(6) 0.5659(8) 0.20282(12)
O4D O 1.4224(4) 0.4434(6) 0.34103(8)
O5D O 1.3133(4) 0.5529(6) 0.34882(8)
O6D O 1.0715(4) 0.6030(6) 0.25208(8)
O7D O 1.1407(4) 0.5805(6) 0.20353(8)
N1D N 1.4959(6) 0.3443(8) 0.21844(13)
N2D N 0.9033(5) 0.7026(7) 0.27745(11)
N3D N 0.9026(6) 1.3201(8) 0.27920(11)
C1D C 1.7363(5) 0.4037(7) 0.21556(12)
C2D C 1.5949(7) 0.3222(11) 0.20098(16)
H1D H 1.5970 0.3463 0.1782
C3D C 1.5365(9) 0.1716(14) 0.2042(3)
H2D H 1.5441 0.1336 0.1839
H3D H 1.5850 0.1522 0.2206
C4D C 1.3919(12) 0.1121(18) 0.2134(4)
H4D H 1.3616 0.0305 0.2261
H5D H 1.3348 0.0909 0.1945
C5D C 1.3902(8) 0.2224(12) 0.2332(2)
H6D H 1.3034 0.2182 0.2317
H7D H 1.4103 0.2166 0.2557
C6D C 1.5111(7) 0.4700(10) 0.21852(15)
C7D C 1.4171(6) 0.4873(8) 0.24095(13)
C8D C 1.4240(6) 0.4764(8) 0.27399(13)
H8D H 1.4799 0.4470 0.2826
C9D C 1.3480(5) 0.5088(7) 0.29421(12)
C10D C 1.2633(5) 0.5501(8) 0.28164(12)
H9D H 1.2149 0.5749 0.2953
C11D C 1.2497(5) 0.5548(8) 0.24822(12)
C12D C 1.3303(6) 0.5284(8) 0.22811(12)
H10D H 1.3267 0.5380 0.2059
C13D C 1.3609(5) 0.5007(7) 0.32993(12)
C14D C 1.1450(5) 0.5812(7) 0.23350(12)
C15D C 1.0184(7) 0.8186(9) 0.2812(2)
H11D H 1.0985 0.8164 0.2826
C16D C 1.0243(8) 0.9412(11) 0.2831(2)
H12D H 1.1066 1.0197 0.2864
C17D C 0.9062(8) 0.9470(10) 0.28003(15)
C18D C 0.7925(8) 0.8297(11) 0.2759(2)
H13D H 0.7109 0.8285 0.2737
C19D C 0.7942(7) 0.7082(9) 0.27495(18)
H14D H 0.7127 0.6279 0.2723
C20D C 0.9071(7) 1.0769(10) 0.28009(16)
C21D C 0.9816(9) 1.1796(12) 0.3025(2)
H15D H 1.0340 1.1689 0.3181
C22D C 0.9749(8) 1.2979(11) 0.3008(2)
H16D H 1.0243 1.3657 0.3157
C23D C 0.8543(16) 1.2326(19) 0.2576(2)
H17D H 0.8174 1.2518 0.2398
C24D C 0.8504(18) 1.1108(21) 0.2577(3)
H18D H 0.8054 1.0501 0.2411
Co1_2 Co 0.0000 -0.48157(8) 0.1667
Co1_3 Co 1.0000 -0.48157(8) 0.1667
Co1_4 Co 2.0000 0.51843(8) 0.1667
Co2_2 Co 0.10125(7) -0.38863(7) 0.056702(15)
Co2_3 Co 1.10125(7) 1.61137(7) 0.056702(15)
Co2A Co 1.38863(7) 0.48988(10) 0.390035(15)
Co2C Co 0.61137(7) 0.10125(7) -0.056702(15)
Co2D_2 Co 0.89875(7) 1.51012(10) 0.276631(15)
Co2D_3 Co 1.89875(7) 0.51012(10) 0.276631(15)
O1_2 O 1.2567(4) 0.6896(4) 0.08860(8)
O1D_2 O 0.7433(4) 0.4329(6) 0.24473(8)
O2_2 O 1.1668(4) 0.5933(4) 0.13533(9)
O2D_2 O 0.8332(4) 0.4265(6) 0.19800(9)
O4A O 0.9790(4) 0.5566(6) 0.32563(8)
O4C O 1.0210(4) 0.5776(4) 0.00770(8)
O5A O 0.7604(4) 0.4471(6) 0.31784(8)
O5C O 1.2396(4) 0.6867(4) 0.01549(8)
N3_2 N 1.0974(6) 0.4175(5) 0.05413(11)
N3D_2 N 0.9026(6) 0.3201(8) 0.27920(11)
N4_2 N 1.0000 0.7066(5) 0.1667
O8 O 0.3875(8) 0.2142(9) 0.1260(2)
O9 O 0.5182(11) -0.2407(10) 0.0116(2)
O10 O 0.6384(19) 0.487(2) 0.1380(4)
O11? O 0.510(3) 0.394(4) 0.0646(10)
O12? O 0.644(3) 0.627(4) 0.0357(6)
loop_
_geom_bond_atom_site_label_1
_geom_bond_atom_site_label_2
_geom_bond_site_symmetry_1
_geom_bond_site_symmetry_2
Co1 O7 1_555 1_555
Co2 O6 1_555 1_555
O1 C1 1_555 1_555
O2 C1 1_555 1_555
O3 C6 1_555 1_555
O4 C13 1_555 1_555
O5 C13 1_555 1_555
O6 C14 1_555 1_555
O7 C14 1_555 1_555
N1 C2 1_555 1_555
N2 Co2 1_555 1_555
N3 C22 1_555 1_555
N4 C25 1_555 1_555
N5 Co1 1_555 1_555
C1 C2 1_555 1_555
C2 H1 1_555 1_555
C3 C2 1_555 1_555
H2 C3 1_555 1_555
H3 C3 1_555 1_555
C4 C3 1_555 1_555
H4 C4 1_555 1_555
H5 C4 1_555 1_555
C5 N1 1_555 1_555
H6 C5 1_555 1_555
H7 C5 1_555 1_555
C6 N1 1_555 1_555
C7 C6 1_555 1_555
C8 C7 1_555 1_555
H8 C8 1_555 1_555
C9 C8 1_555 1_555
C10 C9 1_555 1_555
H9 C10 1_555 1_555
C11 C10 1_555 1_555
C12 C7 1_555 1_555
H10 C12 1_555 1_555
C13 C9 1_555 1_555
C14 C11 1_555 1_555
C15 N2 1_555 1_555
H11 C15 1_555 1_555
C16 C15 1_555 1_555
H12 C16 1_555 1_555
C17 C16 1_555 1_555
C18 C17 1_555 1_555
H13 C18 1_555 1_555
C19 N2 1_555 1_555
H14 C19 1_555 1_555
C20 C17 1_555 1_555
C21 C20 1_555 1_555
H15 C21 1_555 1_555
C22 C21 1_555 1_555
H16 C22 1_555 1_555
C23 N3 1_555 1_555
H17 C23 1_555 1_555
C24 C20 1_555 1_555
H18 C24 1_555 1_555
C25 H19 1_555 1_555
C26 C25 1_555 1_555
H20 C26 1_555 1_555
C27 C26 1_555 1_555
C28 C27 1_555 1_555
C29 C28 1_555 1_555
H21 C29 1_555 1_555
C30 N5 1_555 1_555
H22 C30 1_555 1_555
C25D N4 1_555 1_555
H19D C25D 1_555 1_555
C26D C27 1_555 1_555
H20D C26D 1_555 1_555
C29D C28 1_555 1_555
H21D C29D 1_555 1_555
C30D N5 1_555 1_555
H22D C30D 1_555 1_555
Co2D O6D 1_555 1_555
O1D C1D 1_555 1_555
O2D C1D 1_555 1_555
O3D C6D 1_555 1_555
O4D C13D 1_555 1_555
O5D C13D 1_555 1_555
O6D C14D 1_555 1_555
O7D Co1 1_555 1_555
N1D C2D 1_555 1_555
N2D Co2D 1_555 1_555
N3D C22D 1_555 1_555
C1D C2D 1_555 1_555
C2D H1D 1_555 1_555
C3D C2D 1_555 1_555
H2D C3D 1_555 1_555
H3D C3D 1_555 1_555
C4D C3D 1_555 1_555
H4D C4D 1_555 1_555
H5D C4D 1_555 1_555
C5D N1D 1_555 1_555
H6D C5D 1_555 1_555
H7D C5D 1_555 1_555
C6D N1D 1_555 1_555
C7D C6D 1_555 1_555
C8D C7D 1_555 1_555
H8D C8D 1_555 1_555
C9D C8D 1_555 1_555
C10D C9D 1_555 1_555
H9D C10D 1_555 1_555
C11D C10D 1_555 1_555
C12D C7D 1_555 1_555
H10D C12D 1_555 1_555
C13D C9D 1_555 1_555
C14D O7D 1_555 1_555
C15D N2D 1_555 1_555
H11D C15D 1_555 1_555
C16D C15D 1_555 1_555
H12D C16D 1_555 1_555
C17D C16D 1_555 1_555
C18D C17D 1_555 1_555
H13D C18D 1_555 1_555
C19D N2D 1_555 1_555
H14D C19D 1_555 1_555
C20D C17D 1_555 1_555
C21D C20D 1_555 1_555
H15D C21D 1_555 1_555
C22D C21D 1_555 1_555
H16D C22D 1_555 1_555
C23D N3D 1_555 1_555
H17D C23D 1_555 1_555
C24D C20D 1_555 1_555
H18D C24D 1_555 1_555
Co1_2 O2 1_555 1_555
Co1_3 N4 1_555 1_555
Co1_4 O2D 1_555 1_555
Co2_2 O1 1_555 1_555
Co2_3 N3 1_555 1_555
Co2A O4D 1_555 1_555
Co2C O4 1_555 1_555
Co2D_2 N3D 1_555 1_555
Co2D_3 O1D 1_555 1_555
O1_2 Co2 1_555 1_555
O1D_2 Co2D 1_555 1_555
O2_2 Co1 1_555 1_555
O2D_2 Co1 1_555 1_555
O4A Co2D 1_555 1_555
O4C Co2 1_555 1_555
O5A Co2D 1_555 1_555
O5C Co2 1_555 1_555
N3_2 Co2 1_555 1_555
N3D_2 Co2D 1_555 1_555
N4_2 Co1 1_555 1_555
O5 Co2C 1_555 1_555
C4 C5 1_555 1_555
C11 C12 1_555 1_555
C18 C19 1_555 1_555
C23 C24 1_555 1_555
C29 C30 1_555 1_555
C25D C26D 1_555 1_555
C29D C30D 1_555 1_555
O5D Co2A 1_555 1_555
C4D C5D 1_555 1_555
C11D C12D 1_555 1_555
C11D C14D 1_555 1_555
C18D C19D 1_555 1_555
C23D C24D 1_555 1_555

#END
