
#######################################################################
#
#                 Cambridge Crystallographic Data Centre
#                                CCDC 
#
#######################################################################
#
# If this CIF has been generated from an entry in the Cambridge 
# Structural Database, then it will include bibliographic, chemical, 
# crystal, experimental, refinement or atomic coordinate data resulting 
# from the CCDC's data processing and validation procedures.
#
#######################################################################

data_LUNRET
_symmetry_cell_setting           monoclinic
_symmetry_space_group_name_H-M   'C 2/m'
_symmetry_Int_Tables_number      12
_space_group_name_Hall           '-C 2y'
loop_
_symmetry_equiv_pos_site_id
_symmetry_equiv_pos_as_xyz
1 x,y,z
2 -x,y,-z
3 1/2+x,1/2+y,z
4 1/2-x,1/2+y,-z
5 -x,-y,-z
6 x,-y,z
7 1/2-x,1/2-y,-z
8 1/2+x,1/2-y,z
_cell_length_a                   9.4514(2)
_cell_length_b                   16.7427(4)
_cell_length_c                   6.1969(2)
_cell_angle_alpha                90
_cell_angle_beta                 101.4550(10)
_cell_angle_gamma                90
_cell_volume                     961.077
loop_
_atom_site_label
_atom_site_type_symbol
_atom_site_fract_x
_atom_site_fract_y
_atom_site_fract_z
Co1 Co 0.5000 0.67009(2) 0.5000
C1 C 0.4531(3) 0.5000 0.3892(4)
N1 N 0.41576(17) 0.57079(10) 0.2989(3)
C2 C 0.3353(2) 0.57085(14) 0.0938(3)
H1 H 0.3064 0.6192 0.0249
C3 C 0.2950(4) 0.5000 -0.0158(5)
H2 H 0.2423 0.5000 -0.1595
C4 C 0.2416(2) 0.72762(11) 0.6064(3)
O1 O 0.33683(17) 0.67763(9) 0.6800(3)
O2 O 0.13415(16) 0.74521(10) 0.6859(3)
C1A C 0.5469(3) 0.5000 0.6108(4)
N1A N 0.58424(17) 0.57079(10) 0.7011(3)
C2A C 0.6647(2) 0.57085(14) 0.9062(3)
H1A H 0.6936 0.6192 0.9751
C3A C 0.7050(4) 0.5000 1.0158(5)
H2A H 0.7577 0.5000 1.1595
N1D N 0.58424(17) 0.42921(10) 0.7011(3)
C2D C 0.6647(2) 0.42915(14) 0.9062(3)
H1D H 0.6936 0.3808 0.9751
N1E N 0.41576(17) 0.42921(10) 0.2989(3)
C2E C 0.3353(2) 0.42915(14) 0.0938(3)
H1E H 0.3064 0.3808 0.0249
C4F C 0.2584(2) 0.77238(11) 0.3936(3)
O1F O 0.16317(17) 0.82237(9) 0.3200(3)
O2F O 0.36585(16) 0.75479(10) 0.3141(3)
C4A C 0.7584(2) 0.72762(11) 0.3936(3)
O1A O 0.66317(17) 0.67763(9) 0.3200(3)
O2A O 0.86585(16) 0.74521(10) 0.3141(3)
C4G C 0.7416(2) 0.77238(11) 0.6064(3)
O1G O 0.83683(17) 0.82237(9) 0.6800(3)
O2G O 0.63415(16) 0.75479(10) 0.6859(3)
Co1D Co 0.5000 0.32991(2) 0.5000
Co1F Co 0.0000 0.82991(2) 0.5000
Co1F_2 Co 1.0000 0.82991(2) 0.5000
O1D O 0.66317(17) 0.32237(9) 0.3200(3)
O1E O 0.33683(17) 0.32237(9) 0.6800(3)
O2B O 0.63415(16) 0.24521(10) 0.6859(3)
O2C O 0.36585(16) 0.24521(10) 0.3141(3)
O3 O 1.0000 0.3417(4) 1.0000
O4 O 0.9210(8) 0.4576(5) 0.6479(13)
O5 O 0.9594(7) 0.3828(4) 0.7809(10)
loop_
_geom_bond_atom_site_label_1
_geom_bond_atom_site_label_2
_geom_bond_site_symmetry_1
_geom_bond_site_symmetry_2
Co1 N1 1_555 1_555
C1 N1 1_555 1_555
N1 C2 1_555 1_555
C2 H1 1_555 1_555
C3 C2 1_555 1_555
H2 C3 1_555 1_555
C4 O1 1_555 1_555
O1 Co1 1_555 1_555
O2 C4 1_555 1_555
C1A C1 1_555 1_555
N1A Co1 1_555 1_555
C2A N1A 1_555 1_555
H1A C2A 1_555 1_555
C3A C2A 1_555 1_555
H2A C3A 1_555 1_555
N1D C1A 1_555 1_555
C2D C3A 1_555 1_555
H1D C2D 1_555 1_555
N1E C1 1_555 1_555
C2E C3 1_555 1_555
H1E C2E 1_555 1_555
C4F C4 1_555 1_555
O1F C4F 1_555 1_555
O2F Co1 1_555 1_555
C4A O1A 1_555 1_555
O1A Co1 1_555 1_555
O2A C4A 1_555 1_555
C4G C4A 1_555 1_555
O1G C4G 1_555 1_555
O2G Co1 1_555 1_555
Co1D N1D 1_555 1_555
Co1F O2 1_555 1_555
Co1F_2 O2A 1_555 1_555
O1D Co1D 1_555 1_555
O1E Co1D 1_555 1_555
O2B Co1D 1_555 1_555
O2C Co1D 1_555 1_555
C1A N1A 1_555 1_555
N1D C2D 1_555 1_555
N1E C2E 1_555 1_555
N1E Co1D 1_555 1_555
C4F O2F 1_555 1_555
O1F Co1F 1_555 1_555
C4G O2G 1_555 1_555
O1G Co1F_2 1_555 1_555

#END
