
#######################################################################
#
#                 Cambridge Crystallographic Data Centre
#                                CCDC 
#
#######################################################################
#
# If this CIF has been generated from an entry in the Cambridge 
# Structural Database, then it will include bibliographic, chemical, 
# crystal, experimental, refinement or atomic coordinate data resulting 
# from the CCDC's data processing and validation procedures.
#
#######################################################################

data_LUNRAO02
_symmetry_cell_setting           orthorhombic
_symmetry_space_group_name_H-M   'P b c a'
_symmetry_Int_Tables_number      61
_space_group_name_Hall           '-P 2ac 2ab'
loop_
_symmetry_equiv_pos_site_id
_symmetry_equiv_pos_as_xyz
1 x,y,z
2 1/2-x,-y,1/2+z
3 -x,1/2+y,1/2-z
4 1/2+x,1/2-y,-z
5 -x,-y,-z
6 1/2+x,y,1/2-z
7 x,1/2-y,1/2+z
8 1/2-x,1/2+y,z
_cell_length_a                   7.1353(5)
_cell_length_b                   6.9616(5)
_cell_length_c                   23.7318(18)
_cell_angle_alpha                90
_cell_angle_beta                 90
_cell_angle_gamma                90
_cell_volume                     1178.83
loop_
_atom_site_label
_atom_site_type_symbol
_atom_site_fract_x
_atom_site_fract_y
_atom_site_fract_z
Zn1 Zn -0.09442(4) 0.38502(4) 0.212899(11)
Te1 Te 0.06023(2) 0.258451(19) 0.305803(6)
N1 N 0.0484(3) 0.2567(3) 0.14499(9)
H1 H 0.171(6) 0.257(6) 0.1459(18)
H2 H 0.016(5) 0.133(6) 0.1456(15)
C1 C 0.0034(4) 0.3442(3) 0.09013(10)
H3 H 0.051(4) 0.475(5) 0.0905(14)
H4 H -0.134(5) 0.359(5) 0.0877(16)
C2 C 0.0726(4) 0.2359(3) 0.03812(11)
H5 H 0.041(4) 0.311(5) 0.0062(15)
H6 H 0.215(5) 0.220(4) 0.0412(13)
C3 C -0.0212(3) 0.0424(3) 0.02905(10)
H7 H -0.162(5) 0.057(5) 0.0336(13)
H8 H 0.013(5) -0.044(5) 0.0581(14)
Zn1D Zn 0.09442(4) -0.38502(4) -0.212899(11)
Zn1A Zn -0.40558(4) -0.38502(4) -0.287101(11)
Zn1B Zn 0.09442(4) -0.11498(4) 0.287101(11)
Zn1E Zn 0.40558(4) 0.38502(4) 0.287101(11)
Zn1F Zn -0.09442(4) 0.11498(4) -0.287101(11)
Te1D Te -0.06023(2) -0.258451(19) -0.305803(6)
Te1A Te 0.43977(2) -0.258451(19) -0.194197(6)
Te1B Te -0.06023(2) 0.758451(19) 0.194197(6)
Te1E Te -0.43977(2) 0.258451(19) 0.194197(6)
Te1F Te 0.06023(2) -0.758451(19) -0.194197(6)
N1D N -0.0484(3) -0.2567(3) -0.14499(9)
H1D H -0.171(6) -0.257(6) -0.1459(18)
H2D H -0.016(5) -0.133(6) -0.1456(15)
C1D C -0.0034(4) -0.3442(3) -0.09013(10)
H3D H -0.051(4) -0.475(5) -0.0905(14)
H4D H 0.134(5) -0.359(5) -0.0877(16)
C2D C -0.0726(4) -0.2359(3) -0.03812(11)
H5D H -0.041(4) -0.311(5) -0.0062(15)
H6D H -0.215(5) -0.220(4) -0.0412(13)
C3D C 0.0212(3) -0.0424(3) -0.02905(10)
H7D H 0.162(5) -0.057(5) -0.0336(13)
H8D H -0.013(5) 0.044(5) -0.0581(14)
loop_
_geom_bond_atom_site_label_1
_geom_bond_atom_site_label_2
_geom_bond_site_symmetry_1
_geom_bond_site_symmetry_2
Zn1 Te1 1_555 1_555
Te1 Zn1B 1_555 1_555
N1 Zn1 1_555 1_555
H1 N1 1_555 1_555
H2 N1 1_555 1_555
C1 N1 1_555 1_555
H3 C1 1_555 1_555
H4 C1 1_555 1_555
C2 C1 1_555 1_555
H5 C2 1_555 1_555
H6 C2 1_555 1_555
C3 C2 1_555 1_555
H7 C3 1_555 1_555
H8 C3 1_555 1_555
Zn1D Te1D 1_555 1_555
Zn1A Te1D 1_555 1_555
Zn1E Te1 1_555 1_555
Zn1F Te1D 1_555 1_555
Te1A Zn1D 1_555 1_555
Te1B Zn1 1_555 1_555
Te1E Zn1 1_555 1_555
Te1F Zn1D 1_555 1_555
N1D Zn1D 1_555 1_555
H1D N1D 1_555 1_555
H2D N1D 1_555 1_555
C1D N1D 1_555 1_555
H3D C1D 1_555 1_555
H4D C1D 1_555 1_555
C2D C1D 1_555 1_555
H5D C2D 1_555 1_555
H6D C2D 1_555 1_555
C3D C3 1_555 1_555
H7D C3D 1_555 1_555
H8D C3D 1_555 1_555
C2D C3D 1_555 1_555

#END
