
#######################################################################
#
#                 Cambridge Crystallographic Data Centre
#                                CCDC 
#
#######################################################################
#
# If this CIF has been generated from an entry in the Cambridge 
# Structural Database, then it will include bibliographic, chemical, 
# crystal, experimental, refinement or atomic coordinate data resulting 
# from the CCDC's data processing and validation procedures.
#
#######################################################################

data_LUNRAO01
_symmetry_cell_setting           orthorhombic
_symmetry_space_group_name_H-M   'P 21 21 21'
_symmetry_Int_Tables_number      19
_space_group_name_Hall           'P 2ac 2ab'
loop_
_symmetry_equiv_pos_site_id
_symmetry_equiv_pos_as_xyz
1 x,y,z
2 1/2-x,-y,1/2+z
3 -x,1/2+y,1/2-z
4 1/2+x,1/2-y,-z
_cell_length_a                   7.1091(14)
_cell_length_b                   34.612(7)
_cell_length_c                   25.091(5)
_cell_angle_alpha                90
_cell_angle_beta                 90
_cell_angle_gamma                90
_cell_volume                     6173.9
loop_
_atom_site_label
_atom_site_type_symbol
_atom_site_fract_x
_atom_site_fract_y
_atom_site_fract_z
Zn1 Zn 1.0976(2) 0.02848(3) 0.28313(4)
Zn2 Zn 0.59743(19) 0.03082(3) 0.21249(4)
Zn3 Zn 0.9040(2) 0.13147(3) 0.22303(4)
Zn4 Zn 1.4054(2) 0.12801(3) 0.29373(3)
Zn5 Zn 0.5965(2) 0.23165(3) 0.23126(4)
Zn6 Zn 1.0983(2) 0.22778(3) 0.30166(4)
Zn7 Zn 0.8997(2) 0.16989(4) 0.69427(4)
Zn8 Zn 1.4031(2) 0.16969(3) 0.76366(4)
Zn9 Zn 0.90242(19) -0.06845(3) 0.19628(4)
Zn10 Zn 1.40396(19) -0.07041(3) 0.27051(4)
Te1 Te 0.94134(12) 0.058104(17) 0.198458(18)
Te2 Te 1.44412(12) 0.052350(16) 0.303470(18)
Te3 Te 0.55878(14) 0.157870(18) 0.208746(19)
Te4 Te 1.05952(13) 0.152290(17) 0.313910(19)
Te5 Te 0.94133(13) 0.245310(18) 0.679160(19)
Te6 Te 0.94279(13) 0.256370(19) 0.21574(2)
Te7 Te 0.55560(12) 0.143110(18) 0.675450(19)
Te8 Te 1.05703(13) 0.145330(18) 0.78234(2)
Te9 Te 1.05565(12) -0.046850(17) 0.286750(19)
Te10 Te 0.55544(12) -0.041930(17) 0.183730(19)
N1 N 0.9597(15) 0.0481(2) 0.3527(2)
H1 H 0.9881 0.0732 0.3577
H2 H 0.8347 0.0464 0.3476
C1 C 1.0081(17) 0.0268(3) 0.4009(3)
H3 H 1.1439 0.0242 0.4022
H4 H 0.9559 0.0010 0.3978
C2 C 0.9430(16) 0.0439(2) 0.4534(3)
H5 H 0.9655 0.0253 0.4816
H6 H 0.8086 0.0485 0.4516
C3 C 1.0420(15) 0.0817(2) 0.4674(3)
H7 H 1.1769 0.0774 0.4670
H8 H 1.0134 0.1007 0.4402
N2 N 0.4426(13) 0.06209(19) 0.1562(2)
H9 H 0.3248 0.0526 0.1555
H10 H 0.4352 0.0868 0.1673
C4 C 0.5162(15) 0.0619(3) 0.1021(3)
H11 H 0.4857 0.0372 0.0858
H12 H 0.6522 0.0638 0.1038
C5 C 0.4426(18) 0.0940(3) 0.0664(3)
H13 H 0.4618 0.1187 0.0838
H14 H 0.3085 0.0906 0.0610
C6 C 0.5416(16) 0.0941(3) 0.0125(3)
H15 H 0.6752 0.0980 0.0182
H16 H 0.5253 0.0691 -0.0041
N3 N 1.0502(15) 0.1604(2) 0.1633(2)
H17 H 1.0601 0.1854 0.1728
H18 H 1.1676 0.1507 0.1620
C7 C 0.9705(19) 0.1589(3) 0.1088(3)
H19 H 0.8365 0.1640 0.1109
H20 H 0.9862 0.1329 0.0949
C8 C 1.058(2) 0.1870(3) 0.0703(3)
H21 H 1.1899 0.1806 0.0658
H22 H 1.0515 0.2128 0.0855
C9 C 0.964(2) 0.1872(4) 0.0163(4)
H23 H 0.9764 0.1618 0.0006
H24 H 0.8304 0.1921 0.0213
N4 N 1.5469(16) 0.1501(2) 0.3598(2)
H25 H 1.6714 0.1492 0.3535
H26 H 1.5151 0.1751 0.3638
C10 C 1.5080(17) 0.1296(3) 0.4101(3)
H27 H 1.5678 0.1044 0.4088
H28 H 1.3734 0.1255 0.4130
C11 C 1.5761(19) 0.1508(3) 0.4602(3)
H29 H 1.5561 0.1343 0.4909
H30 H 1.7104 0.1553 0.4571
C12 C 1.4810(15) 0.1886(3) 0.4700(3)
H31 H 1.3463 0.1851 0.4659
H32 H 1.5221 0.2069 0.4433
N5 N 0.9482(17) 0.2410(2) -0.1691(2)
H33 H 0.8306 0.2507 -0.1685
H34 H 0.9392 0.2157 -0.1769
C13 C 1.027(2) 0.2446(3) -0.1156(3)
H35 H 1.0065 0.2707 -0.1027
H36 H 1.1622 0.2405 -0.1174
C14 C 0.941(2) 0.2159(4) -0.0758(3)
H37 H 0.8095 0.2220 -0.0708
H38 H 0.9491 0.1900 -0.0906
C15 C 1.040(2) 0.2166(4) -0.0225(4)
H39 H 1.1727 0.2118 -0.0279
H40 H 1.0268 0.2422 -0.0071
N6 N 1.4526(16) 0.2473(2) 0.6345(3)
H41 H 1.4837 0.2222 0.6322
H42 H 1.3283 0.2487 0.6410
C16 C 1.4919(17) 0.2658(3) 0.5837(3)
H43 H 1.6268 0.2694 0.5807
H44 H 1.4346 0.2912 0.5839
C17 C 1.422(2) 0.2439(3) 0.5334(3)
H45 H 1.2881 0.2395 0.5366
H46 H 1.4432 0.2600 0.5023
C18 C 1.5199(18) 0.2054(3) 0.5251(3)
H47 H 1.4773 0.1873 0.5521
H48 H 1.6545 0.2088 0.5295
N7 N 1.0419(15) 0.1428(2) 0.6312(3)
H49 H 1.1664 0.1443 0.6374
H50 H 1.0103 0.1176 0.6309
C19 C 1.0031(17) 0.1591(3) 0.5787(3)
H51 H 1.0553 0.1849 0.5775
H52 H 0.8678 0.1615 0.5748
C20 C 1.077(2) 0.1370(3) 0.5317(3)
H53 H 1.2110 0.1332 0.5367
H54 H 1.0610 0.1529 0.5001
C21 C 0.9872(14) 0.0979(3) 0.5212(3)
H55 H 1.0254 0.0800 0.5488
H56 H 0.8515 0.1005 0.5228
N8 N 0.5525(14) 0.1449(2) -0.1737(2)
H57 H 0.5614 0.1194 -0.1801
H58 H 0.6701 0.1545 -0.1744
C22 C 0.4809(15) 0.1497(3) -0.1208(3)
H59 H 0.3458 0.1458 -0.1216
H60 H 0.5032 0.1762 -0.1098
C23 C 0.564(2) 0.1230(3) -0.0792(3)
H61 H 0.5567 0.0967 -0.0923
H62 H 0.6963 0.1293 -0.0749
C24 C 0.4707(18) 0.1249(3) -0.0252(3)
H63 H 0.3360 0.1218 -0.0297
H64 H 0.4932 0.1501 -0.0097
N9 N 1.0412(14) -0.0383(2) 0.1352(2)
H65 H 1.0198 -0.0129 0.1397
H66 H 1.1658 -0.0422 0.1388
C25 C 0.9868(16) -0.0489(3) 0.0803(3)
H67 H 0.8506 -0.0484 0.0779
H68 H 1.0268 -0.0753 0.0737
C26 C 1.0670(17) -0.0232(3) 0.0361(4)
H69 H 1.2022 -0.0213 0.0407
H70 H 1.0440 -0.0354 0.0020
C27 C 0.9858(14) 0.0169(2) 0.0348(3)
H71 H 1.0193 0.0300 0.0677
H72 H 0.8498 0.0149 0.0338
N10 N 0.9543(15) 0.0476(2) -0.1626(2)
H73 H 0.8348 0.0561 -0.1632
H74 H 0.9507 0.0217 -0.1659
C28 C 1.0370(16) 0.0571(3) -0.1094(3)
H75 H 1.0106 0.0840 -0.1012
H76 H 1.1725 0.0541 -0.1112
C29 C 0.9603(15) 0.0318(2) -0.0647(3)
H77 H 0.8252 0.0351 -0.0620
H78 H 0.9852 0.0048 -0.0727
C30 C 1.0507(16) 0.0423(3) -0.0126(3)
H79 H 1.0226 0.0691 -0.0047
H80 H 1.1861 0.0399 -0.0163
Zn2_2 Zn 1.59743(19) 0.03082(3) 0.21249(4)
Zn4_2 Zn 0.4054(2) 0.12801(3) 0.29373(3)
Zn5C Zn 1.0965(2) 0.26835(3) 0.76874(4)
Zn5C_2 Zn 1.0965(2) 0.26835(3) -0.23126(4)
Zn6C Zn 0.5983(2) 0.27222(3) 0.69834(4)
Zn6C_2 Zn 1.5983(2) 0.27222(3) 0.69834(4)
Zn8C Zn 0.9031(2) 0.33031(3) 0.23634(4)
Zn8_2 Zn 0.4031(2) 0.16969(3) 0.76366(4)
Zn8_3 Zn 0.4031(2) 0.16969(3) -0.23634(4)
Zn9A Zn 0.59758(19) 0.06845(3) 0.69628(4)
Zn10A Zn 1.09604(19) 0.07041(3) 0.77051(4)
Zn10_2 Zn 0.40396(19) -0.07041(3) 0.27051(4)
Zn10A_2 Zn 1.09604(19) 0.07041(3) -0.22949(4)
Te2_2 Te 0.44412(12) 0.052350(16) 0.303470(18)
Te3_2 Te 1.55878(14) 0.157870(18) 0.208746(19)
Te5C Te 0.44133(13) 0.254690(18) 0.320840(19)
Te5C_2 Te 1.44133(13) 0.254690(18) 0.320840(19)
Te6C Te 1.44279(13) 0.243630(19) 0.78426(2)
Te7_2 Te 1.55560(12) 0.143110(18) 0.675450(19)
Te7A Te 0.94440(12) -0.143110(18) 0.175450(19)
Te8A Te 1.44297(13) -0.145330(18) 0.28234(2)
Te10_2 Te 1.55544(12) -0.041930(17) 0.183730(19)
N5C N 0.4482(17) 0.2590(2) 0.1691(2)
H33C H 0.3306 0.2493 0.1685
H34C H 0.4392 0.2843 0.1769
N6C N 0.9526(16) 0.2527(2) 0.3655(3)
H41C H 0.9837 0.2778 0.3678
H42C H 0.8283 0.2513 0.3590
N8_2 N 1.5525(14) 0.1449(2) 0.8263(2)
H57_2 H 1.5614 0.1194 0.8199
H58_2 H 1.6701 0.1545 0.8256
N10A N 1.5457(15) -0.0476(2) 0.3374(2)
H73A H 1.6652 -0.0561 0.3368
H74A H 1.5493 -0.0217 0.3341
loop_
_geom_bond_atom_site_label_1
_geom_bond_atom_site_label_2
_geom_bond_site_symmetry_1
_geom_bond_site_symmetry_2
Zn1 Te1 1_555 1_555
Zn2 Te1 1_555 1_555
Zn3 Te1 1_555 1_555
Zn4 Te2 1_555 1_555
Zn5 Te3 1_555 1_555
Zn6 Te4 1_555 1_555
Zn7 Te5 1_555 1_555
Zn8 Te8 1_555 1_555
Zn9 Te9 1_555 1_555
Zn10 Te9 1_555 1_555
Te2 Zn1 1_555 1_555
Te3 Zn3 1_555 1_555
Te4 Zn3 1_555 1_555
Te5 Zn5C 1_555 1_555
Te6 Zn5 1_555 1_555
Te7 Zn7 1_555 1_555
Te8 Zn7 1_555 1_555
Te9 Zn1 1_555 1_555
Te10 Zn2 1_555 1_555
N1 Zn1 1_555 1_555
H1 N1 1_555 1_555
H2 N1 1_555 1_555
C1 N1 1_555 1_555
H3 C1 1_555 1_555
H4 C1 1_555 1_555
C2 C1 1_555 1_555
H5 C2 1_555 1_555
H6 C2 1_555 1_555
C3 C2 1_555 1_555
H7 C3 1_555 1_555
H8 C3 1_555 1_555
N2 Zn2 1_555 1_555
H9 N2 1_555 1_555
H10 N2 1_555 1_555
C4 N2 1_555 1_555
H11 C4 1_555 1_555
H12 C4 1_555 1_555
C5 C4 1_555 1_555
H13 C5 1_555 1_555
H14 C5 1_555 1_555
C6 C5 1_555 1_555
H15 C6 1_555 1_555
H16 C6 1_555 1_555
N3 Zn3 1_555 1_555
H17 N3 1_555 1_555
H18 N3 1_555 1_555
C7 N3 1_555 1_555
H19 C7 1_555 1_555
H20 C7 1_555 1_555
C8 C7 1_555 1_555
H21 C8 1_555 1_555
H22 C8 1_555 1_555
C9 C8 1_555 1_555
H23 C9 1_555 1_555
H24 C9 1_555 1_555
N4 Zn4 1_555 1_555
H25 N4 1_555 1_555
H26 N4 1_555 1_555
C10 N4 1_555 1_555
H27 C10 1_555 1_555
H28 C10 1_555 1_555
C11 C10 1_555 1_555
H29 C11 1_555 1_555
H30 C11 1_555 1_555
C12 C11 1_555 1_555
H31 C12 1_555 1_555
H32 C12 1_555 1_555
N5 H33 1_555 1_555
H34 N5 1_555 1_555
C13 N5 1_555 1_555
H35 C13 1_555 1_555
H36 C13 1_555 1_555
C14 C13 1_555 1_555
H37 C14 1_555 1_555
H38 C14 1_555 1_555
C15 C9 1_555 1_555
H39 C15 1_555 1_555
H40 C15 1_555 1_555
N6 H41 1_555 1_555
H42 N6 1_555 1_555
C16 N6 1_555 1_555
H43 C16 1_555 1_555
H44 C16 1_555 1_555
C17 C16 1_555 1_555
H45 C17 1_555 1_555
H46 C17 1_555 1_555
C18 C12 1_555 1_555
H47 C18 1_555 1_555
H48 C18 1_555 1_555
N7 Zn7 1_555 1_555
H49 N7 1_555 1_555
H50 N7 1_555 1_555
C19 N7 1_555 1_555
H51 C19 1_555 1_555
H52 C19 1_555 1_555
C20 C19 1_555 1_555
H53 C20 1_555 1_555
H54 C20 1_555 1_555
C21 C3 1_555 1_555
H55 C21 1_555 1_555
H56 C21 1_555 1_555
N8 H57 1_555 1_555
H58 N8 1_555 1_555
C22 N8 1_555 1_555
H59 C22 1_555 1_555
H60 C22 1_555 1_555
C23 C22 1_555 1_555
H61 C23 1_555 1_555
H62 C23 1_555 1_555
C24 C6 1_555 1_555
H63 C24 1_555 1_555
H64 C24 1_555 1_555
N9 Zn9 1_555 1_555
H65 N9 1_555 1_555
H66 N9 1_555 1_555
C25 N9 1_555 1_555
H67 C25 1_555 1_555
H68 C25 1_555 1_555
C26 C25 1_555 1_555
H69 C26 1_555 1_555
H70 C26 1_555 1_555
C27 C26 1_555 1_555
H71 C27 1_555 1_555
H72 C27 1_555 1_555
N10 H73 1_555 1_555
H74 N10 1_555 1_555
C28 N10 1_555 1_555
H75 C28 1_555 1_555
H76 C28 1_555 1_555
C29 C28 1_555 1_555
H77 C29 1_555 1_555
H78 C29 1_555 1_555
C30 C27 1_555 1_555
H79 C30 1_555 1_555
H80 C30 1_555 1_555
Zn2_2 Te2 1_555 1_555
Zn4_2 Te3 1_555 1_555
Zn5C Te6C 1_555 1_555
Zn5C_2 N5 1_555 1_555
Zn6C Te5 1_555 1_555
Zn6C_2 N6 1_555 1_555
Zn8C Te6 1_555 1_555
Zn8_2 Te7 1_555 1_555
Zn8_3 N8 1_555 1_555
Zn9A Te7 1_555 1_555
Zn10A Te8 1_555 1_555
Zn10_2 Te10 1_555 1_555
Zn10A_2 N10 1_555 1_555
Te2_2 Zn2 1_555 1_555
Te3_2 Zn4 1_555 1_555
Te5C Zn5 1_555 1_555
Te5C_2 Zn6 1_555 1_555
Te6C Zn8 1_555 1_555
Te7_2 Zn8 1_555 1_555
Te7A Zn9 1_555 1_555
Te8A Zn10 1_555 1_555
Te10_2 Zn10 1_555 1_555
N5C Zn5 1_555 1_555
H33C N5C 1_555 1_555
H34C N5C 1_555 1_555
N6C Zn6 1_555 1_555
H41C N6C 1_555 1_555
H42C N6C 1_555 1_555
N8_2 Zn8 1_555 1_555
H57_2 N8_2 1_555 1_555
H58_2 N8_2 1_555 1_555
N10A Zn10 1_555 1_555
H73A N10A 1_555 1_555
H74A N10A 1_555 1_555
Zn4 Te4 1_555 1_555
Zn6 Te6 1_555 1_555
Zn9 Te10 1_555 1_555
C14 C15 1_555 1_555
C17 C18 1_555 1_555
C20 C21 1_555 1_555
C23 C24 1_555 1_555
C29 C30 1_555 1_555
Zn2_2 Te10_2 1_555 1_555
Zn4_2 Te2_2 1_555 1_555
Zn6C_2 Te6C 1_555 1_555

#END
