
#######################################################################
#
#                 Cambridge Crystallographic Data Centre
#                                CCDC 
#
#######################################################################
#
# If this CIF has been generated from an entry in the Cambridge 
# Structural Database, then it will include bibliographic, chemical, 
# crystal, experimental, refinement or atomic coordinate data resulting 
# from the CCDC's data processing and validation procedures.
#
#######################################################################

data_LUNRUJ
_symmetry_cell_setting           rhombohedral
_symmetry_space_group_name_H-M   'R -3 c'
_symmetry_Int_Tables_number      167
_space_group_name_Hall           '-R 3 2"c'
loop_
_symmetry_equiv_pos_site_id
_symmetry_equiv_pos_as_xyz
1 x,y,z
2 -y,x-y,z
3 -x+y,-x,z
4 y,x,1/2-z
5 x-y,-y,1/2-z
6 -x,-x+y,1/2-z
7 2/3+x,1/3+y,1/3+z
8 2/3-y,1/3+x-y,1/3+z
9 2/3-x+y,1/3-x,1/3+z
10 2/3+y,1/3+x,5/6-z
11 2/3+x-y,1/3-y,5/6-z
12 2/3-x,1/3-x+y,5/6-z
13 1/3+x,2/3+y,2/3+z
14 1/3-y,2/3+x-y,2/3+z
15 1/3-x+y,2/3-x,2/3+z
16 1/3+y,2/3+x,1/6-z
17 1/3+x-y,2/3-y,1/6-z
18 1/3-x,2/3-x+y,1/6-z
19 -x,-y,-z
20 y,-x+y,-z
21 x-y,x,-z
22 -y,-x,1/2+z
23 -x+y,y,1/2+z
24 x,x-y,1/2+z
25 1/3-x,2/3-y,2/3-z
26 1/3+y,2/3-x+y,2/3-z
27 1/3+x-y,2/3+x,2/3-z
28 1/3-y,2/3-x,1/6+z
29 1/3-x+y,2/3+y,1/6+z
30 1/3+x,2/3+x-y,1/6+z
31 2/3-x,1/3-y,1/3-z
32 2/3+y,1/3-x+y,1/3-z
33 2/3+x-y,1/3+x,1/3-z
34 2/3-y,1/3-x,5/6+z
35 2/3-x+y,1/3+y,5/6+z
36 2/3+x,1/3+x-y,5/6+z
_cell_length_a                   18.7100(2)
_cell_length_b                   18.7100(2)
_cell_length_c                   40.4095(5)
_cell_angle_alpha                90
_cell_angle_beta                 90
_cell_angle_gamma                120
_cell_volume                     12250.7
loop_
_atom_site_label
_atom_site_type_symbol
_atom_site_fract_x
_atom_site_fract_y
_atom_site_fract_z
Cd1 Cd 0.6667 0.750598(14) 0.5833
N1 N 0.68520(15) 0.76323(16) 0.52613(6)
N2 N 0.72072(14) 0.77368(14) 0.42349(5)
H1 H 0.7598 0.7650 0.4176
O1 O 0.62139(15) 0.79847(18) 0.40344(6)
O2 O 0.56054(11) 0.79340(11) 0.57865(5)
O3 O 0.52547(11) 0.66184(12) 0.57812(5)
O4 O 0.6667 0.62341(19) 0.5833
C1 C 0.63333(19) 0.7705(2) 0.50568(7)
H2 H 0.5892 0.7730 0.5150
C2 C 0.64046(18) 0.7745(2) 0.47180(7)
H3 H 0.6020 0.7791 0.4588
C3 C 0.70617(17) 0.77146(16) 0.45740(6)
C4 C 0.7612(2) 0.7648(2) 0.47849(7)
H4 H 0.8062 0.7627 0.4699
C5 C 0.7489(2) 0.7613(2) 0.51202(7)
H5 H 0.7868 0.7573 0.5257
C6 C 0.68034(18) 0.7880(2) 0.39863(7)
C7 C 0.7159(2) 0.7914(2) 0.36479(7)
H6 H 0.7235 0.7441 0.3622
H7 H 0.7699 0.8407 0.3634
C8 C 0.6627(3) 0.7921(2) 0.33612(9)
H8 H 0.6784 0.7750 0.3160
H9 H 0.6053 0.7522 0.3407
C9 C 0.50683(15) 0.71775(16) 0.57848(6)
C10 C 0.41733(14) 0.69226(15) 0.57866(6)
C11 C 0.39102(15) 0.74995(15) 0.57869(7)
H10 H 0.4299 0.8060 0.5787
H11 H 0.619(3) 0.578(3) 0.5816(13)
N1X N 0.64813(15) 0.90344(16) 0.14054(6)
N2X N 0.61261(14) 0.89299(14) 0.24318(5)
H1X H 0.5735 0.9017 0.2491
O1X O 0.71194(15) 0.86820(18) 0.26323(6)
C1X C 0.70000(19) 0.8962(2) 0.16099(7)
H2X H 0.7441 0.8937 0.1517
C2X C 0.69287(18) 0.8922(2) 0.19487(7)
H3X H 0.7313 0.8876 0.2079
C3X C 0.62716(17) 0.89521(16) 0.20927(6)
C4X C 0.5721(2) 0.9019(2) 0.18818(7)
H4X H 0.5271 0.9040 0.1968
C5X C 0.5844(2) 0.9054(2) 0.15465(7)
H5X H 0.5465 0.9094 0.1410
C6X C 0.65299(18) 0.8787(2) 0.26804(7)
C7X C 0.6174(2) 0.8753(2) 0.30188(7)
H6X H 0.6098 0.9226 0.3045
H7X H 0.5634 0.8260 0.3033
C8X C 0.6706(3) 0.8746(2) 0.33055(9)
H8X H 0.6549 0.8917 0.3507
H9X H 0.7280 0.9145 0.3260
O2A O 0.20660(11) 0.76714(16) 0.57865(5)
O3A O 0.33816(12) 0.86363(16) 0.57812(5)
C9A C 0.28225(16) 0.78908(22) 0.57848(6)
C10A C 0.30774(15) 0.72507(21) 0.57866(6)
C11A C 0.25005(15) 0.64107(21) 0.57869(7)
H10A H 0.1940 0.6239 0.5787
O2B O 0.23286(16) 0.43946(11) 0.57865(5)
O3B O 0.13637(16) 0.47453(11) 0.57812(5)
C9B C 0.21092(22) 0.49317(15) 0.57848(6)
C10B C 0.27493(21) 0.58267(14) 0.57866(6)
C11B C 0.35893(21) 0.60898(15) 0.57869(7)
H10B H 0.3761 0.5701 0.5787
H11Q H 0.714(3) 0.626(4) 0.5851(13)
Cd1A Cd 0.249402(14) 0.916102(14) 0.5833
N1A N 0.23677(16) 0.92197(22) 0.52613(6)
N2A N 0.22632(14) 0.94704(20) 0.42349(5)
H1A H 0.2350 0.9948 0.4176
O1A O 0.20153(18) 0.82292(23) 0.40344(6)
O4A O 0.37659(19) 1.04329(19) 0.5833
C1A C 0.2295(2) 0.86283(28) 0.50568(7)
H2A H 0.2270 0.8162 0.5150
C2A C 0.2255(2) 0.86596(27) 0.47180(7)
H3A H 0.2209 0.8229 0.4588
C3A C 0.22854(16) 0.93471(23) 0.45740(6)
C4A C 0.2352(2) 0.9964(3) 0.47849(7)
H4A H 0.2373 1.0435 0.4699
C5A C 0.2387(2) 0.9876(3) 0.51202(7)
H5A H 0.2427 1.0295 0.5257
C6A C 0.2120(2) 0.89234(27) 0.39863(7)
C7A C 0.2086(2) 0.9245(3) 0.36479(7)
H6A H 0.2559 0.9794 0.3622
H7A H 0.1593 0.9292 0.3634
C8A C 0.2079(2) 0.8706(4) 0.33612(9)
H8A H 0.2250 0.9034 0.3160
H9A H 0.2478 0.8531 0.3407
H11A H 0.422(3) 1.041(4) 0.5816(13)
N1Y N 0.09656(16) 0.74470(22) 0.14054(6)
N2Y N 0.10701(14) 0.71963(20) 0.24318(5)
H1Y H 0.0983 0.6719 0.2491
O1Y O 0.13180(18) 0.84375(23) 0.26323(6)
C1Y C 0.1038(2) 0.80384(28) 0.16099(7)
H2Y H 0.1063 0.8505 0.1517
C2Y C 0.1078(2) 0.80071(27) 0.19487(7)
H3Y H 0.1124 0.8438 0.2079
C3Y C 0.10479(16) 0.73196(23) 0.20927(6)
C4Y C 0.0981(2) 0.6703(3) 0.18818(7)
H4Y H 0.0960 0.6232 0.1968
C5Y C 0.0946(2) 0.6791(3) 0.15465(7)
H5Y H 0.0906 0.6372 0.1410
C6Y C 0.1213(2) 0.77433(27) 0.26804(7)
C7Y C 0.1247(2) 0.7422(3) 0.30188(7)
H6Y H 0.0774 0.6873 0.3045
H7Y H 0.1740 0.7375 0.3033
C8Y C 0.1254(2) 0.7961(4) 0.33055(9)
H8Y H 0.1083 0.7633 0.3507
H9Y H 0.0855 0.8136 0.3260
H11P H 0.374(4) 1.089(3) 0.5851(13)
Cd1B Cd 0.083898(14) 0.3333 0.5833
N1B N 0.07803(22) 0.31480(15) 0.52613(6)
N2B N 0.05296(20) 0.27928(14) 0.42349(5)
H1B H 0.0052 0.2402 0.4176
O1B O 0.17708(23) 0.37861(15) 0.40344(6)
O4B O -0.04329(19) 0.3333 0.5833
C1B C 0.13717(28) 0.36667(19) 0.50568(7)
H2B H 0.1838 0.4108 0.5150
C2B C 0.13404(27) 0.35954(18) 0.47180(7)
H3B H 0.1771 0.3980 0.4588
C3B C 0.06529(23) 0.29383(17) 0.45740(6)
C4B C 0.0036(3) 0.2388(2) 0.47849(7)
H4B H -0.0435 0.1938 0.4699
C5B C 0.0124(3) 0.2511(2) 0.51202(7)
H5B H -0.0295 0.2132 0.5257
C6B C 0.10766(27) 0.31966(18) 0.39863(7)
C7B C 0.0755(3) 0.2841(2) 0.36479(7)
H6B H 0.0206 0.2765 0.3622
H7B H 0.0708 0.2301 0.3634
C8B C 0.1294(4) 0.3373(3) 0.33612(9)
H8B H 0.0966 0.3216 0.3160
H9B H 0.1469 0.3947 0.3407
H11B H -0.041(4) 0.381(3) 0.5816(13)
N1Z N 0.25530(22) 0.35187(15) 0.14054(6)
N2Z N 0.28037(20) 0.38739(14) 0.24318(5)
H1Z H 0.3281 0.4265 0.2491
O1Z O 0.15625(23) 0.28806(15) 0.26323(6)
C1Z C 0.19616(28) 0.30000(19) 0.16099(7)
H2Z H 0.1495 0.2559 0.1517
C2Z C 0.19929(27) 0.30713(18) 0.19487(7)
H3Z H 0.1562 0.2687 0.2079
C3Z C 0.26804(23) 0.37284(17) 0.20927(6)
C4Z C 0.3297(3) 0.4279(2) 0.18818(7)
H4Z H 0.3768 0.4729 0.1968
C5Z C 0.3209(3) 0.4156(2) 0.15465(7)
H5Z H 0.3628 0.4535 0.1410
C6Z C 0.22567(27) 0.34701(18) 0.26804(7)
C7Z C 0.2578(3) 0.3826(2) 0.30188(7)
H6Z H 0.3127 0.3902 0.3045
H7Z H 0.2625 0.4366 0.3033
C8Z C 0.2039(4) 0.3294(3) 0.33055(9)
H8Z H 0.2367 0.3451 0.3507
H9Z H 0.1864 0.2720 0.3260
H11O H -0.089(3) 0.286(3) 0.5851(13)
O2Q O 0.77279(11) 0.89953(16) 0.58802(5)
O3Q O 0.80786(11) 0.80304(16) 0.58855(5)
C9Q C 0.82650(15) 0.87759(22) 0.58819(6)
C10Q C 0.91600(14) 0.94160(21) 0.58801(6)
C11Q C 0.94231(15) 1.02560(21) 0.58798(7)
H10Q H 0.9034 1.0428 0.5880
O2O O 1.12673(11) 1.22721(11) 0.58802(5)
O3O O 0.99517(12) 1.19214(11) 0.58855(5)
C9O C 1.05108(16) 1.17350(15) 0.58819(6)
C10O C 1.02559(15) 1.08400(14) 0.58801(6)
C11O C 1.08328(15) 1.05769(15) 0.58798(7)
H10O H 1.1393 1.0966 0.5880
O2P O 1.10047(16) 0.87327(11) 0.58802(5)
O3P O 1.19696(16) 1.00483(12) 0.58855(5)
C9P C 1.12241(22) 0.94892(16) 0.58819(6)
C10P C 1.05840(21) 0.97441(15) 0.58801(6)
C11P C 0.97440(21) 0.91672(15) 0.58798(7)
H10P H 0.9572 0.8607 0.5880
Cd1A_2 Cd 1.249402(14) 0.916102(14) 0.5833
Cd1B_2 Cd 1.083898(14) 1.3333 0.5833
Cd1U Cd 0.249402(14) 0.3333 0.0833
Cd1V Cd 0.083898(14) 0.750598(14) 0.0833
Cd1W Cd 0.6667 0.916102(14) 0.0833
N1O N 0.09656(16) 0.35187(15) 0.64054(6)
N1P N 0.25530(22) 0.90344(16) 0.64054(6)
N1Q N 0.64813(15) 0.74470(22) 0.64054(6)
O2O_2 O 0.12673(11) 0.22721(11) 0.58802(5)
O2P_2 O 0.10047(16) 0.87327(11) 0.58802(5)
O3O_2 O -0.00483(12) 0.19214(11) 0.58855(5)
O3P_2 O 0.19696(16) 1.00483(12) 0.58855(5)
O5 O 0.4594(9) 0.7535(17) 0.3836(6)
H12 H 0.5113 0.7728 0.3830
H13 H 0.4430 0.7585 0.3646
O6 O 0.377(2) 0.7525(13) 0.3391(6)
H14 H 0.3412 0.7013 0.3379
H15 H 0.3538 0.7785 0.3467
loop_
_geom_bond_atom_site_label_1
_geom_bond_atom_site_label_2
_geom_bond_site_symmetry_1
_geom_bond_site_symmetry_2
Cd1 N1 1_555 1_555
N1 C1 1_555 1_555
N2 H1 1_555 1_555
O1 C6 1_555 1_555
O2 Cd1 1_555 1_555
O3 Cd1 1_555 1_555
O4 Cd1 1_555 1_555
C1 H2 1_555 1_555
C2 C1 1_555 1_555
H3 C2 1_555 1_555
C3 N2 1_555 1_555
C4 C3 1_555 1_555
H4 C4 1_555 1_555
C5 N1 1_555 1_555
H5 C5 1_555 1_555
C6 N2 1_555 1_555
C7 C6 1_555 1_555
H6 C7 1_555 1_555
H7 C7 1_555 1_555
C8 C7 1_555 1_555
H8 C8 1_555 1_555
H9 C8 1_555 1_555
C9 O2 1_555 1_555
C10 C9 1_555 1_555
C11 C10 1_555 1_555
H10 C11 1_555 1_555
H11 O4 1_555 1_555
O5 H12 1_555 1_555
H13 O5 1_555 1_555
O6 H14 1_555 1_555
H15 O6 1_555 1_555
N1X C1X 1_555 1_555
N2X H1X 1_555 1_555
O1X C6X 1_555 1_555
C1X H2X 1_555 1_555
C2X C1X 1_555 1_555
H3X C2X 1_555 1_555
C3X N2X 1_555 1_555
C4X C3X 1_555 1_555
H4X C4X 1_555 1_555
C5X N1X 1_555 1_555
H5X C5X 1_555 1_555
C6X N2X 1_555 1_555
C7X C6X 1_555 1_555
H6X C7X 1_555 1_555
H7X C7X 1_555 1_555
C8X C8 1_555 1_555
H8X C8X 1_555 1_555
H9X C8X 1_555 1_555
O2A C9A 1_555 1_555
O3A C9A 1_555 1_555
C9A C10A 1_555 1_555
C10A C11 1_555 1_555
C11A C10A 1_555 1_555
H10A C11A 1_555 1_555
O2B C9B 1_555 1_555
O3B C9B 1_555 1_555
C9B C10B 1_555 1_555
C10B C11A 1_555 1_555
C11B C10 1_555 1_555
H10B C11B 1_555 1_555
H11Q O4 1_555 1_555
Cd1A O2A 1_555 1_555
N1A Cd1A 1_555 1_555
N2A H1A 1_555 1_555
O1A C6A 1_555 1_555
O4A Cd1A 1_555 1_555
C1A N1A 1_555 1_555
H2A C1A 1_555 1_555
C2A C1A 1_555 1_555
H3A C2A 1_555 1_555
C3A N2A 1_555 1_555
C4A C3A 1_555 1_555
H4A C4A 1_555 1_555
C5A N1A 1_555 1_555
H5A C5A 1_555 1_555
C6A N2A 1_555 1_555
C7A C6A 1_555 1_555
H6A C7A 1_555 1_555
H7A C7A 1_555 1_555
C8A C7A 1_555 1_555
H8A C8A 1_555 1_555
H9A C8A 1_555 1_555
H11A O4A 1_555 1_555
N1Y C1Y 1_555 1_555
N2Y H1Y 1_555 1_555
O1Y C6Y 1_555 1_555
C1Y H2Y 1_555 1_555
C2Y C1Y 1_555 1_555
H3Y C2Y 1_555 1_555
C3Y N2Y 1_555 1_555
C4Y C3Y 1_555 1_555
H4Y C4Y 1_555 1_555
C5Y N1Y 1_555 1_555
H5Y C5Y 1_555 1_555
C6Y N2Y 1_555 1_555
C7Y C6Y 1_555 1_555
H6Y C7Y 1_555 1_555
H7Y C7Y 1_555 1_555
C8Y C8A 1_555 1_555
H8Y C8Y 1_555 1_555
H9Y C8Y 1_555 1_555
H11P O4A 1_555 1_555
Cd1B O2B 1_555 1_555
N1B Cd1B 1_555 1_555
N2B H1B 1_555 1_555
O1B C6B 1_555 1_555
O4B Cd1B 1_555 1_555
C1B N1B 1_555 1_555
H2B C1B 1_555 1_555
C2B C1B 1_555 1_555
H3B C2B 1_555 1_555
C3B N2B 1_555 1_555
C4B C3B 1_555 1_555
H4B C4B 1_555 1_555
C5B N1B 1_555 1_555
H5B C5B 1_555 1_555
C6B N2B 1_555 1_555
C7B C6B 1_555 1_555
H6B C7B 1_555 1_555
H7B C7B 1_555 1_555
C8B C7B 1_555 1_555
H8B C8B 1_555 1_555
H9B C8B 1_555 1_555
H11B O4B 1_555 1_555
N1Z C1Z 1_555 1_555
N2Z H1Z 1_555 1_555
O1Z C6Z 1_555 1_555
C1Z H2Z 1_555 1_555
C2Z C1Z 1_555 1_555
H3Z C2Z 1_555 1_555
C3Z N2Z 1_555 1_555
C4Z C3Z 1_555 1_555
H4Z C4Z 1_555 1_555
C5Z N1Z 1_555 1_555
H5Z C5Z 1_555 1_555
C6Z N2Z 1_555 1_555
C7Z C6Z 1_555 1_555
H6Z C7Z 1_555 1_555
H7Z C7Z 1_555 1_555
C8Z C8B 1_555 1_555
H8Z C8Z 1_555 1_555
H9Z C8Z 1_555 1_555
H11O O4B 1_555 1_555
O2Q Cd1 1_555 1_555
O3Q Cd1 1_555 1_555
C9Q O2Q 1_555 1_555
C10Q C9Q 1_555 1_555
C11Q C10Q 1_555 1_555
H10Q C11Q 1_555 1_555
O2O C9O 1_555 1_555
O3O C9O 1_555 1_555
C9O C10O 1_555 1_555
C10O C11Q 1_555 1_555
C11O C10O 1_555 1_555
H10O C11O 1_555 1_555
O2P C9P 1_555 1_555
O3P C9P 1_555 1_555
C9P C10P 1_555 1_555
C10P C11O 1_555 1_555
C11P C10Q 1_555 1_555
H10P C11P 1_555 1_555
Cd1A_2 O2P 1_555 1_555
Cd1B_2 O2O 1_555 1_555
Cd1U N1Z 1_555 1_555
Cd1V N1Y 1_555 1_555
Cd1W N1X 1_555 1_555
N1O Cd1B 1_555 1_555
N1P Cd1A 1_555 1_555
N1Q Cd1 1_555 1_555
O2O_2 Cd1B 1_555 1_555
O2P_2 Cd1A 1_555 1_555
O3O_2 Cd1B 1_555 1_555
O3P_2 Cd1A 1_555 1_555
O3 C9 1_555 1_555
C2 C3 1_555 1_555
C4 C5 1_555 1_555
C2X C3X 1_555 1_555
C4X C5X 1_555 1_555
C7X C8X 1_555 1_555
O3A Cd1A 1_555 1_555
O3B Cd1B 1_555 1_555
C10B C11B 1_555 1_555
C2A C3A 1_555 1_555
C4A C5A 1_555 1_555
C2Y C3Y 1_555 1_555
C4Y C5Y 1_555 1_555
C7Y C8Y 1_555 1_555
C2B C3B 1_555 1_555
C4B C5B 1_555 1_555
C2Z C3Z 1_555 1_555
C4Z C5Z 1_555 1_555
C7Z C8Z 1_555 1_555
O3Q C9Q 1_555 1_555
O3O Cd1B_2 1_555 1_555
O3P Cd1A_2 1_555 1_555
C10P C11P 1_555 1_555

#END
