
#######################################################################
#
#                 Cambridge Crystallographic Data Centre
#                                CCDC 
#
#######################################################################
#
# If this CIF has been generated from an entry in the Cambridge 
# Structural Database, then it will include bibliographic, chemical, 
# crystal, experimental, refinement or atomic coordinate data resulting 
# from the CCDC's data processing and validation procedures.
#
#######################################################################

data_LUNVUL
_symmetry_cell_setting           orthorhombic
_symmetry_space_group_name_H-M   'P n a 21'
_symmetry_Int_Tables_number      33
_space_group_name_Hall           'P 2c -2n'
loop_
_symmetry_equiv_pos_site_id
_symmetry_equiv_pos_as_xyz
1 x,y,z
2 -x,-y,1/2+z
3 1/2-x,1/2+y,1/2+z
4 1/2+x,1/2-y,z
_cell_length_a                   7.1605(5)
_cell_length_b                   14.1790(10)
_cell_length_c                   9.0770(6)
_cell_angle_alpha                90
_cell_angle_beta                 90
_cell_angle_gamma                90
_cell_volume                     921.576
loop_
_atom_site_label
_atom_site_type_symbol
_atom_site_fract_x
_atom_site_fract_y
_atom_site_fract_z
Ag1 Ag 0.882514(17) 0.346773(9) 1.00000
N1 N 0.4609(2) 0.41373(11) 1.0859(2)
O1 O 0.5248(3) 0.33195(13) 1.0689(3)
O2 O 0.3416(3) 0.44414(12) 0.9994(4)
O3 O 0.5168(3) 0.46408(14) 1.1900(2)
C1 C 0.8657(3) 0.13307(14) 0.4775(2)
N2 N 0.8354(2) 0.20926(10) 0.58232(17)
N3 N 0.8014(2) 0.29809(11) 0.53115(17)
C2 C 0.8049(3) 0.34917(12) 0.6516(2)
N4 N 0.8411(2) 0.29853(11) 0.77633(19)
C3 C 0.8601(3) 0.21039(13) 0.7282(2)
N5 N 0.7007(2) 0.11605(10) 0.38959(17)
N6 N 0.5855(2) 0.04079(11) 0.4145(2)
C4 C 0.4602(3) 0.04931(13) 0.3090(2)
N7 N 0.4893(2) 0.12451(11) 0.21848(17)
C5 C 0.6410(3) 0.16489(12) 0.2730(2)
H1 H 0.971(6) 0.154(2) 0.418(4)
H2 H 0.895(4) 0.080(3) 0.529(4)
H3 H 0.770(5) 0.416(2) 0.653(4)
H4 H 0.880(5) 0.157(2) 0.785(7)
H5 H 0.355(5) 0.006(3) 0.305(4)
H6 H 0.691(5) 0.220(2) 0.243(4)
O1C O 1.0248(3) 0.16805(13) 1.0689(3)
N6B N 0.9145(2) 0.54079(11) 0.9145(2)
N7C N 0.9893(2) 0.37549(11) 1.21848(17)
Ag1C Ag 0.382514(17) 0.153227(9) 1.00000
Ag1B Ag 0.617486(17) -0.153227(9) 0.50000
Ag1C_2 Ag 0.382514(17) 0.153227(9) 0.00000
loop_
_geom_bond_atom_site_label_1
_geom_bond_atom_site_label_2
_geom_bond_site_symmetry_1
_geom_bond_site_symmetry_2
Ag1 O1 1_555 1_555
N1 O1 1_555 1_555
O1 Ag1C 1_555 1_555
O2 N1 1_555 1_555
O3 N1 1_555 1_555
C1 N2 1_555 1_555
N2 N3 1_555 1_555
N3 C2 1_555 1_555
C2 N4 1_555 1_555
N4 Ag1 1_555 1_555
C3 N2 1_555 1_555
N5 C1 1_555 1_555
N6 N5 1_555 1_555
C4 N6 1_555 1_555
N7 C4 1_555 1_555
C5 N5 1_555 1_555
H1 C1 1_555 1_555
H2 C1 1_555 1_555
H3 C2 1_555 1_555
H4 C3 1_555 1_555
H5 C4 1_555 1_555
H6 C5 1_555 1_555
O1C Ag1 1_555 1_555
N6B Ag1 1_555 1_555
N7C Ag1 1_555 1_555
Ag1B N6 1_555 1_555
Ag1C_2 N7 1_555 1_555
N4 C3 1_555 1_555
N7 C5 1_555 1_555

#END
