
#######################################################################
#
#                 Cambridge Crystallographic Data Centre
#                                CCDC 
#
#######################################################################
#
# If this CIF has been generated from an entry in the Cambridge 
# Structural Database, then it will include bibliographic, chemical, 
# crystal, experimental, refinement or atomic coordinate data resulting 
# from the CCDC's data processing and validation procedures.
#
#######################################################################

data_LUNWAS
_symmetry_cell_setting           monoclinic
_symmetry_space_group_name_H-M   'P 21'
_symmetry_Int_Tables_number      4
_space_group_name_Hall           'P 2yb'
loop_
_symmetry_equiv_pos_site_id
_symmetry_equiv_pos_as_xyz
1 x,y,z
2 -x,1/2+y,-z
_cell_length_a                   7.5425(6)
_cell_length_b                   13.1200(10)
_cell_length_c                   9.4021(7)
_cell_angle_alpha                90
_cell_angle_beta                 101.005(2)
_cell_angle_gamma                90
_cell_volume                     913.3
loop_
_atom_site_label
_atom_site_type_symbol
_atom_site_fract_x
_atom_site_fract_y
_atom_site_fract_z
Ag1 Ag 0.68371(5) 1.00000 0.34795(4)
Ag2 Ag 0.57776(6) 1.28699(4) 0.76241(4)
N1 N 0.6428(7) 1.1652(3) 0.5642(5)
O1 O 0.5278(6) 1.1003(4) 0.5168(5)
O2 O 0.7799(6) 1.1655(4) 0.5095(6)
N2 N 0.6841(6) 1.0017(5) 0.0359(5)
O3 O 0.8144(6) 0.9778(4) 0.1340(5)
O4 O 0.5497(8) 1.0288(7) 0.0824(7)
C1 C 0.9498(6) 0.6587(3) 0.7211(5)
N3 N 0.8414(4) 0.7439(4) 0.6566(3)
N4 N 0.7124(5) 0.7861(3) 0.7227(4)
C2 C 0.6488(7) 0.8606(4) 0.6338(5)
N5 N 0.7292(6) 0.8692(3) 0.5160(4)
C3 C 0.8497(6) 0.7942(3) 0.5343(4)
N6 N 0.8609(5) 0.5623(3) 0.6823(4)
N7 N 0.8854(5) 0.5091(3) 0.5626(4)
C4 C 0.7900(6) 0.4258(3) 0.5699(5)
N8 N 0.7069(5) 0.4231(3) 0.6862(4)
C5 C 0.7541(5) 0.5101(3) 0.7537(4)
C6 C 0.0140(6) 1.0083(4) 0.7814(5)
N9 N 0.1310(5) 1.0956(3) 0.8144(4)
N10 N 0.1305(6) 1.1529(3) 0.9352(4)
C7 C 0.2576(6) 1.2202(4) 0.9303(5)
N11 N 0.3407(5) 1.2088(3) 0.8141(4)
C8 C 0.2592(7) 1.1290(4) 0.7455(5)
N12 N 0.1064(5) 0.9158(3) 0.8405(4)
N13 N 0.2338(6) 0.8725(4) 0.7748(4)
C9 C 0.3022(7) 0.8011(4) 0.8696(5)
N14 N 0.2281(6) 0.7979(3) 0.9910(4)
C10 C 0.1053(7) 0.8714(4) 0.9686(5)
H1 H 0.97164 0.66576 0.82341
H2 H 1.06146 0.65924 0.68837
H3 H 0.55492 0.90472 0.65028
H4 H 0.92976 0.77872 0.47049
H5 H 0.78039 0.37256 0.50036
H6 H 0.71780 0.53179 0.84001
H7 H -0.09051 1.01772 0.82225
H8 H -0.02052 1.00164 0.67907
H9 H 0.29003 1.27188 1.00152
H10 H 0.28661 1.09992 0.65980
H11 H 0.39484 0.75600 0.85402
H12 H 0.02828 0.88980 1.03367
N8_2 N 0.7069(5) 1.4231(3) 0.6862(4)
N14A N 0.7719(6) 1.2979(3) 1.0090(4)
Ag2_2 Ag 0.57776(6) 0.28699(4) 0.76241(4)
Ag2A Ag 0.42224(6) 0.78699(4) 1.23759(4)
loop_
_geom_bond_atom_site_label_1
_geom_bond_atom_site_label_2
_geom_bond_site_symmetry_1
_geom_bond_site_symmetry_2
Ag1 O1 1_555 1_555
Ag2 N1 1_555 1_555
N1 O1 1_555 1_555
O2 Ag1 1_555 1_555
N2 O3 1_555 1_555
O3 Ag1 1_555 1_555
O4 Ag1 1_555 1_555
C1 N3 1_555 1_555
N3 N4 1_555 1_555
N4 C2 1_555 1_555
C2 N5 1_555 1_555
N5 Ag1 1_555 1_555
C3 N3 1_555 1_555
N6 C1 1_555 1_555
N7 N6 1_555 1_555
C4 N7 1_555 1_555
N8 C4 1_555 1_555
C5 N6 1_555 1_555
C6 N9 1_555 1_555
N9 N10 1_555 1_555
N10 C7 1_555 1_555
C7 N11 1_555 1_555
N11 Ag2 1_555 1_555
C8 N9 1_555 1_555
N12 C6 1_555 1_555
N13 N12 1_555 1_555
C9 N13 1_555 1_555
N14 C9 1_555 1_555
C10 N12 1_555 1_555
H1 C1 1_555 1_555
H2 C1 1_555 1_555
H3 C2 1_555 1_555
H4 C3 1_555 1_555
H5 C4 1_555 1_555
H6 C5 1_555 1_555
H7 C6 1_555 1_555
H8 C6 1_555 1_555
H9 C7 1_555 1_555
H10 C8 1_555 1_555
H11 C9 1_555 1_555
H12 C10 1_555 1_555
N8_2 Ag2 1_555 1_555
N14A Ag2 1_555 1_555
Ag2_2 N8 1_555 1_555
Ag2A N14 1_555 1_555
N1 O2 1_555 1_555
N2 O4 1_555 1_555
N5 C3 1_555 1_555
N8 C5 1_555 1_555
N11 C8 1_555 1_555
N14 C10 1_555 1_555

#END
