
#######################################################################
#
#                 Cambridge Crystallographic Data Centre
#                                CCDC 
#
#######################################################################
#
# If this CIF has been generated from an entry in the Cambridge 
# Structural Database, then it will include bibliographic, chemical, 
# crystal, experimental, refinement or atomic coordinate data resulting 
# from the CCDC's data processing and validation procedures.
#
#######################################################################

data_LUPCUW
_symmetry_cell_setting           monoclinic
_symmetry_space_group_name_H-M   'P 2/c'
_symmetry_Int_Tables_number      13
_space_group_name_Hall           '-P 2yc'
loop_
_symmetry_equiv_pos_site_id
_symmetry_equiv_pos_as_xyz
1 x,y,z
2 -x,y,1/2-z
3 -x,-y,-z
4 x,-y,1/2+z
_cell_length_a                   7.7158(8)
_cell_length_b                   7.7397(8)
_cell_length_c                   25.946(3)
_cell_angle_alpha                90
_cell_angle_beta                 98.273(2)
_cell_angle_gamma                90
_cell_volume                     1533.32
loop_
_atom_site_label
_atom_site_type_symbol
_atom_site_fract_x
_atom_site_fract_y
_atom_site_fract_z
Zn1 Zn 0.38252(4) -0.13226(4) 0.401679(12)
Cl1 Cl 0.21703(19) 0.55505(13) 0.20357(3)
Cl2 Cl 0.15712(13) -0.32544(15) 0.59301(3)
O1 O 0.3926(3) 0.1666(3) 0.41902(9)
O2 O 0.2908(3) 0.0424(3) 0.34538(9)
O3 O -0.3250(3) -0.1143(3) 0.38516(11)
O4 O -0.4150(3) -0.2140(4) 0.45460(9)
N1 N 0.3334(3) 0.6536(3) 0.35349(9)
N2 N 0.1933(3) -0.1801(3) 0.44898(9)
C1 C 0.3161(4) 0.3459(3) 0.34498(11)
C2 C 0.3461(4) 0.4952(3) 0.37422(11)
H1 H 0.3766 0.4849 0.4101
C3 C 0.2950(4) 0.6680(4) 0.30186(11)
H2 H 0.2877 0.7772 0.2867
C4 C 0.2662(5) 0.5249(4) 0.27079(11)
C5 C 0.2756(5) 0.3619(4) 0.29188(12)
H3 H 0.2551 0.2648 0.2708
C6 C 0.3348(4) 0.1751(4) 0.37190(12)
C7 C -0.1099(4) -0.1981(4) 0.45544(11)
C8 C 0.0259(4) -0.1657(4) 0.42808(11)
H4 H -0.0001 -0.1321 0.3934
C9 C 0.2319(4) -0.2284(3) 0.49887(11)
H5 H 0.3485 -0.2379 0.5138
C10 C 0.1022(4) -0.2641(4) 0.52832(11)
C11 C -0.0716(4) -0.2486(4) 0.50653(12)
H6 H -0.1608 -0.2718 0.5261
C12 C -0.2959(4) -0.1736(4) 0.42938(13)
Zn1_2 Zn -0.61748(4) -0.13226(4) 0.401679(12)
Zn1_3 Zn 0.38252(4) 0.86774(4) 0.401679(12)
O3_2 O 0.6750(3) -0.1143(3) 0.38516(11)
O4_2 O 0.5850(3) -0.2140(4) 0.45460(9)
N1_2 N 0.3334(3) -0.3464(3) 0.35349(9)
O5 O 0.3362(6) 0.0228(5) 0.21698(13)
H7 H 0.3500 0.1287 0.2100
H8 H 0.3464 -0.0495 0.1929
O6 O 0.0000 0.0017(8) 0.2500
H9 H 0.0704 0.0316 0.2292
H9A H -0.0704 0.0316 0.2708
H10? H -0.1023 -0.0288 0.2364
loop_
_geom_bond_atom_site_label_1
_geom_bond_atom_site_label_2
_geom_bond_site_symmetry_1
_geom_bond_site_symmetry_2
Zn1 O1 1_555 1_555
Cl1 C4 1_555 1_555
Cl2 C10 1_555 1_555
O1 C6 1_555 1_555
O2 Zn1 1_555 1_555
O3 C12 1_555 1_555
O4 C12 1_555 1_555
N1 C2 1_555 1_555
N2 Zn1 1_555 1_555
C1 C2 1_555 1_555
C2 H1 1_555 1_555
C3 N1 1_555 1_555
H2 C3 1_555 1_555
C4 C3 1_555 1_555
C5 C1 1_555 1_555
H3 C5 1_555 1_555
C6 O2 1_555 1_555
C7 C8 1_555 1_555
C8 N2 1_555 1_555
H4 C8 1_555 1_555
C9 N2 1_555 1_555
H5 C9 1_555 1_555
C10 C9 1_555 1_555
C11 C7 1_555 1_555
H6 C11 1_555 1_555
C12 C7 1_555 1_555
O5 H7 1_555 1_555
H8 O5 1_555 1_555
O6 H9 1_555 1_555
Zn1_2 O3 1_555 1_555
Zn1_3 N1 1_555 1_555
O3_2 Zn1 1_555 1_555
O4_2 Zn1 1_555 1_555
N1_2 Zn1 1_555 1_555
H9A O6 1_555 1_555
O4 Zn1_2 1_555 1_555
C1 C6 1_555 1_555
C4 C5 1_555 1_555
C10 C11 1_555 1_555

#END
