
#######################################################################
#
#                 Cambridge Crystallographic Data Centre
#                                CCDC 
#
#######################################################################
#
# If this CIF has been generated from an entry in the Cambridge 
# Structural Database, then it will include bibliographic, chemical, 
# crystal, experimental, refinement or atomic coordinate data resulting 
# from the CCDC's data processing and validation procedures.
#
#######################################################################

data_LUPDAD
_symmetry_cell_setting           monoclinic
_symmetry_space_group_name_H-M   'C 2/c'
_symmetry_Int_Tables_number      15
_space_group_name_Hall           '-C 2yn'
loop_
_symmetry_equiv_pos_site_id
_symmetry_equiv_pos_as_xyz
1 x,y,z
2 -x,y,1/2-z
3 1/2+x,1/2+y,z
4 1/2-x,1/2+y,1/2-z
5 -x,-y,-z
6 x,-y,1/2+z
7 1/2-x,1/2-y,-z
8 1/2+x,1/2-y,1/2+z
_cell_length_a                   12.0840(17)
_cell_length_b                   9.8218(14)
_cell_length_c                   11.9104(16)
_cell_angle_alpha                90
_cell_angle_beta                 94.035(3)
_cell_angle_gamma                90
_cell_volume                     1410.1
loop_
_atom_site_label
_atom_site_type_symbol
_atom_site_fract_x
_atom_site_fract_y
_atom_site_fract_z
Zn1 Zn 0.5000 0.40669(9) 0.2500
Cl1 Cl 0.41787(13) 0.09185(17) -0.14836(12)
O1 O 0.1079(4) -0.0502(5) 0.1305(4)
N1 N 0.4094(3) 0.2622(4) 0.1516(4)
C1 C 0.2607(4) 0.1009(6) 0.1354(5)
C2 C 0.2885(5) 0.0645(6) 0.0283(5)
H1 H 0.2477 -0.0029 -0.0141
O2 O 0.1422(4) 0.0677(5) 0.2851(5)
C3 C 0.4366(4) 0.2282(5) 0.0481(4)
H2 H 0.4975 0.2723 0.0172
C4 C 0.3780(5) 0.1302(6) -0.0145(5)
C5 C 0.3234(4) 0.1986(6) 0.1942(5)
H3 H 0.3048 0.2217 0.2680
C6 C 0.1639(5) 0.0363(6) 0.1883(6)
Cl1A Cl 0.58213(13) 0.09185(17) 0.64836(12)
O1A O 0.8921(4) -0.0502(5) 0.3695(4)
N1A N 0.5906(3) 0.2622(4) 0.3484(4)
C1A C 0.7393(4) 0.1009(6) 0.3646(5)
C2A C 0.7115(5) 0.0645(6) 0.4717(5)
H1A H 0.7523 -0.0029 0.5141
O2A O 0.8578(4) 0.0677(5) 0.2149(5)
C3A C 0.5634(4) 0.2282(5) 0.4519(4)
H2A H 0.5025 0.2723 0.4828
C4A C 0.6220(5) 0.1302(6) 0.5145(5)
C5A C 0.6766(4) 0.1986(6) 0.3058(5)
H3A H 0.6952 0.2217 0.2320
C6A C 0.8361(5) 0.0363(6) 0.3117(6)
Zn1B Zn 0.0000 -0.09331(9) 0.2500
Zn1B_2 Zn 1.0000 -0.09331(9) 0.2500
O1B O 0.6079(4) 0.4498(5) 0.1305(4)
O1C O 0.3921(4) 0.4498(5) 0.3695(4)
O2B O 0.6422(4) 0.5677(5) 0.2851(5)
O2C O 0.3578(4) 0.5677(5) 0.2149(5)
O3 O 0.188(3) 0.760(4) 0.956(3)
H4 H 0.2035 0.7017 0.9055
H5 H 0.2483 0.7770 1.0069
loop_
_geom_bond_atom_site_label_1
_geom_bond_atom_site_label_2
_geom_bond_site_symmetry_1
_geom_bond_site_symmetry_2
Zn1 N1 1_555 1_555
Cl1 C4 1_555 1_555
O1 C6 1_555 1_555
N1 C3 1_555 1_555
C1 C2 1_555 1_555
C2 H1 1_555 1_555
O2 C6 1_555 1_555
C3 H2 1_555 1_555
C4 C2 1_555 1_555
C5 N1 1_555 1_555
H3 C5 1_555 1_555
C6 C1 1_555 1_555
O3 H4 1_555 1_555
H5 O3 1_555 1_555
Cl1A C4A 1_555 1_555
O1A C6A 1_555 1_555
N1A Zn1 1_555 1_555
C1A C2A 1_555 1_555
C2A H1A 1_555 1_555
O2A C6A 1_555 1_555
C3A N1A 1_555 1_555
H2A C3A 1_555 1_555
C4A C2A 1_555 1_555
C5A N1A 1_555 1_555
H3A C5A 1_555 1_555
C6A C1A 1_555 1_555
Zn1B O1 1_555 1_555
Zn1B_2 O1A 1_555 1_555
O1B Zn1 1_555 1_555
O1C Zn1 1_555 1_555
O2B Zn1 1_555 1_555
O2C Zn1 1_555 1_555
C1 C5 1_555 1_555
O2 Zn1B 1_555 1_555
C3 C4 1_555 1_555
C1A C5A 1_555 1_555
O2A Zn1B_2 1_555 1_555
C3A C4A 1_555 1_555

#END
