
#######################################################################
#
#                 Cambridge Crystallographic Data Centre
#                                CCDC 
#
#######################################################################
#
# If this CIF has been generated from an entry in the Cambridge 
# Structural Database, then it will include bibliographic, chemical, 
# crystal, experimental, refinement or atomic coordinate data resulting 
# from the CCDC's data processing and validation procedures.
#
#######################################################################

data_LUPJUC
_symmetry_cell_setting           triclinic
_symmetry_space_group_name_H-M   'P -1'
_symmetry_Int_Tables_number      2
_space_group_name_Hall           '-P 1'
loop_
_symmetry_equiv_pos_site_id
_symmetry_equiv_pos_as_xyz
1 x,y,z
2 -x,-y,-z
_cell_length_a                   5.13375(29)
_cell_length_b                   8.13439(42)
_cell_length_c                   12.75120(69)
_cell_angle_alpha                82.6697(36)
_cell_angle_beta                 84.5659(22)
_cell_angle_gamma                74.2572(28)
_cell_volume                     507.319
loop_
_atom_site_label
_atom_site_type_symbol
_atom_site_fract_x
_atom_site_fract_y
_atom_site_fract_z
Mn1 Mn 0.2816(18) -0.0127(14) 0.24507(76)
O1 O 0.5135(55) -0.0869(34) 0.3697(22)
O2 O 0.0168(59) 0.0578(32) 0.1311(21)
S1 S 0.575770 -0.550690 0.139750
C1 C 0.491060 -0.338240 0.168520
N1 N 0.28728 -0.291570 0.238950
C2 C 0.195030 -0.431620 0.273670
C3 C 0.319270 -0.582870 0.231070
N2 N 0.227020 -0.722920 0.265790
C4 C 0.023240 -0.676260 0.336220
S2 S -0.061470 -0.463810 0.364990
C5 C 0.639940 -0.21341 0.115350
O3 O 0.778820 -0.272670 0.027720
O4 O 0.634720 -0.081380 0.147360
C6 C -0.125640 -0.801080 0.389390
O5 O -0.330940 -0.721590 0.453020
O6 O -0.068370 -0.949060 0.376050
Mn1_2 Mn 0.2816(18) -1.0127(14) 0.24507(76)
N2_2 N 0.227020 0.277080 0.265790
O6_2 O -0.068370 0.050940 0.376050
loop_
_geom_bond_atom_site_label_1
_geom_bond_atom_site_label_2
_geom_bond_site_symmetry_1
_geom_bond_site_symmetry_2
Mn1 O1 1_555 1_555
O2 Mn1 1_555 1_555
S1 C1 1_555 1_555
C1 N1 1_555 1_555
N1 Mn1 1_555 1_555
C2 N1 1_555 1_555
C3 S1 1_555 1_555
N2 C3 1_555 1_555
C4 N2 1_555 1_555
S2 C2 1_555 1_555
C5 C1 1_555 1_555
O3 C5 1_555 1_555
O4 Mn1 1_555 1_555
C6 C4 1_555 1_555
O5 C6 1_555 1_555
O6 C6 1_555 1_555
Mn1_2 N2 1_555 1_555
N2_2 Mn1 1_555 1_555
O6_2 Mn1 1_555 1_555
C2 C3 1_555 1_555
C4 S2 1_555 1_555
C5 O4 1_555 1_555
O6 Mn1_2 1_555 1_555

#END
