
#######################################################################
#
#                 Cambridge Crystallographic Data Centre
#                                CCDC 
#
#######################################################################
#
# If this CIF has been generated from an entry in the Cambridge 
# Structural Database, then it will include bibliographic, chemical, 
# crystal, experimental, refinement or atomic coordinate data resulting 
# from the CCDC's data processing and validation procedures.
#
#######################################################################

data_LUPJOW
_symmetry_cell_setting           monoclinic
_symmetry_space_group_name_H-M   'P 21/c'
_symmetry_Int_Tables_number      14
_space_group_name_Hall           '-P 2ybc'
loop_
_symmetry_equiv_pos_site_id
_symmetry_equiv_pos_as_xyz
1 x,y,z
2 -x,1/2+y,1/2-z
3 -x,-y,-z
4 x,1/2-y,1/2+z
_cell_length_a                   8.05068(24)
_cell_length_b                   9.44269(26)
_cell_length_c                   5.58918(17)
_cell_angle_alpha                90
_cell_angle_beta                 99.5503(15)
_cell_angle_gamma                90
_cell_volume                     419.001
loop_
_atom_site_label
_atom_site_type_symbol
_atom_site_fract_x
_atom_site_fract_y
_atom_site_fract_z
Ag1 Ag 0.51005(38) -0.17422(20) 0.00227(62)
S1 S 0.826790 -0.144200 0.833540
C1 C 0.828370 0.006710 0.654710
N1 N 0.932720 0.109170 0.740660
C2 C 0.981500 -0.065680 1.042040
C3 C 0.715770 0.020720 0.415690
O1 O 0.617990 -0.094070 0.372830
O2 O 0.714940 0.119840 0.284160
Ag1B Ag 1.48995(38) 0.17422(20) 1.99773(62)
Ag1B_2 Ag 0.48995(38) 0.17422(20) -0.00227(62)
Ag1_2 Ag 1.51005(38) -0.17422(20) 2.00227(62)
Ag1_3 Ag -0.48995(38) -0.17422(20) -1.99773(62)
Ag1B_3 Ag -0.51005(38) 0.17422(20) -2.00227(62)
S1B S 1.173210 0.144200 1.166460
S1B_2 S 0.173210 0.144200 -0.833540
S1_2 S -0.173210 -0.144200 -1.166460
C1B C 1.171630 -0.006710 1.345290
C1B_2 C 0.171630 -0.006710 -0.654710
C1_2 C -0.171630 0.006710 -1.345290
N1B N 1.067280 -0.109170 1.259340
N1B_2 N 0.067280 -0.109170 -0.740660
N1_2 N -0.067280 0.109170 -1.259340
C2B C 1.018500 0.065680 0.957960
C2B_2 C 0.018500 0.065680 -1.042040
C2_2 C -0.018500 -0.065680 -0.957960
C3B C 1.284230 -0.020720 1.584310
C3B_2 C 0.284230 -0.020720 -0.415690
C3_2 C -0.284230 0.020720 -1.584310
O1B O 1.382010 0.094070 1.627170
O1B_2 O 0.382010 0.094070 -0.372830
O1_2 O -0.382010 -0.094070 -1.627170
O1B_3 O -0.617990 0.094070 -2.372830
O2B O 1.285060 -0.119840 1.715840
O2B_2 O 0.285060 -0.119840 -0.284160
O2_2 O -0.285060 0.119840 -1.715840
O2_3 O 1.714940 0.119840 2.284160
O2B_3 O -0.714940 -0.119840 -2.284160
loop_
_geom_bond_atom_site_label_1
_geom_bond_atom_site_label_2
_geom_bond_site_symmetry_1
_geom_bond_site_symmetry_2
Ag1 O1 1_555 1_555
S1 C1 1_555 1_555
C1 N1 1_555 1_555
N1 C2B 1_555 1_555
C2 S1 1_555 1_555
C3 C1 1_555 1_555
O1 C3 1_555 1_555
O2 C3 1_555 1_555
Ag1B O1B 1_555 1_555
Ag1B_2 O2 1_555 1_555
Ag1_2 O2B 1_555 1_555
Ag1_3 O1_2 1_555 1_555
Ag1B_3 O1B_3 1_555 1_555
S1B C1B 1_555 1_555
S1B_2 C1B_2 1_555 1_555
S1_2 C1_2 1_555 1_555
C1B N1B 1_555 1_555
C1B_2 N1B_2 1_555 1_555
C1_2 N1_2 1_555 1_555
N1B C2 1_555 1_555
N1B_2 C2_2 1_555 1_555
N1_2 C2B_2 1_555 1_555
C2B C2 1_555 1_555
C2B_2 S1B_2 1_555 1_555
C2_2 S1_2 1_555 1_555
C3B C1B 1_555 1_555
C3B_2 C1B_2 1_555 1_555
C3_2 C1_2 1_555 1_555
O1B C3B 1_555 1_555
O1B_2 Ag1B_2 1_555 1_555
O1_2 C3_2 1_555 1_555
O2B C3B 1_555 1_555
O2B_2 Ag1 1_555 1_555
O2_2 Ag1B_3 1_555 1_555
O2_3 Ag1B 1_555 1_555
O2B_3 Ag1_3 1_555 1_555
S1B C2B 1_555 1_555
C2B_2 C2_2 1_555 1_555
C3B_2 O1B_2 1_555 1_555
C3B_2 O2B_2 1_555 1_555
C3_2 O2_2 1_555 1_555

#END
