
#######################################################################
#
#                 Cambridge Crystallographic Data Centre
#                                CCDC 
#
#######################################################################
#
# If this CIF has been generated from an entry in the Cambridge 
# Structural Database, then it will include bibliographic, chemical, 
# crystal, experimental, refinement or atomic coordinate data resulting 
# from the CCDC's data processing and validation procedures.
#
#######################################################################

data_LUPKAJ
_symmetry_cell_setting           triclinic
_symmetry_space_group_name_H-M   'P -1'
_symmetry_Int_Tables_number      2
_space_group_name_Hall           '-P 1'
loop_
_symmetry_equiv_pos_site_id
_symmetry_equiv_pos_as_xyz
1 x,y,z
2 -x,-y,-z
_cell_length_a                   5.20582(38)
_cell_length_b                   6.53002(57)
_cell_length_c                   7.86785(46)
_cell_angle_alpha                88.5886(59)
_cell_angle_beta                 74.2059(44)
_cell_angle_gamma                73.5400(37)
_cell_volume                     246.416
loop_
_atom_site_label
_atom_site_type_symbol
_atom_site_fract_x
_atom_site_fract_y
_atom_site_fract_z
Co1 Co 0.00000 0.00000 0.00000
O1 O -0.3400(17) 0.2200(13) 0.0696(12)
S1 S -0.190765 -0.239670 0.553597
C1 C -0.161715 -0.167574 0.336049
N1 N -0.045520 -0.013348 0.283765
C2 C -0.029270 -0.049560 0.578210
C3 C -0.265728 -0.273541 0.214007
O2 O -0.223524 -0.186720 0.056703
O3 O -0.371160 -0.413898 0.252972
Co1_2 Co 0.00000 0.00000 1.00000
O1A O 0.3400(17) -0.2200(13) -0.0696(12)
S1A S 0.190765 0.239670 0.446403
C1A C 0.161715 0.167574 0.663951
N1A N 0.045520 0.013348 0.716235
N1A_2 N 0.045520 0.013348 -0.283765
C2A C 0.029270 0.049560 0.421790
C3A C 0.265728 0.273541 0.785993
O2A O 0.223524 0.186720 0.943297
O2A_2 O 0.223524 0.186720 -0.056703
O3A O 0.371160 0.413898 0.747028
loop_
_geom_bond_atom_site_label_1
_geom_bond_atom_site_label_2
_geom_bond_site_symmetry_1
_geom_bond_site_symmetry_2
Co1 O1 1_555 1_555
S1 C1 1_555 1_555
C1 N1 1_555 1_555
N1 Co1 1_555 1_555
C2 S1 1_555 1_555
C3 C1 1_555 1_555
O2 Co1 1_555 1_555
O3 C3 1_555 1_555
Co1_2 N1A 1_555 1_555
O1A Co1 1_555 1_555
S1A C1A 1_555 1_555
C1A N1A 1_555 1_555
N1A C2 1_555 1_555
N1A_2 Co1 1_555 1_555
C2A N1 1_555 1_555
C3A C1A 1_555 1_555
O2A Co1_2 1_555 1_555
O2A_2 Co1 1_555 1_555
O3A C3A 1_555 1_555
C2 C2A 1_555 1_555
C3 O2 1_555 1_555
S1A C2A 1_555 1_555
C3A O2A 1_555 1_555

#END
