
#######################################################################
#
#                 Cambridge Crystallographic Data Centre
#                                CCDC 
#
#######################################################################
#
# If this CIF has been generated from an entry in the Cambridge 
# Structural Database, then it will include bibliographic, chemical, 
# crystal, experimental, refinement or atomic coordinate data resulting 
# from the CCDC's data processing and validation procedures.
#
#######################################################################

data_LUPMUE02
_symmetry_cell_setting           triclinic
_symmetry_space_group_name_H-M   'P -1'
_symmetry_Int_Tables_number      2
_space_group_name_Hall           '-P 1'
loop_
_symmetry_equiv_pos_site_id
_symmetry_equiv_pos_as_xyz
1 x,y,z
2 -x,-y,-z
_cell_length_a                   12.278(3)
_cell_length_b                   15.845(3)
_cell_length_c                   15.782(3)
_cell_angle_alpha                84.860(10)
_cell_angle_beta                 87.110(10)
_cell_angle_gamma                74.100(10)
_cell_volume                     2939.89
loop_
_atom_site_label
_atom_site_type_symbol
_atom_site_fract_x
_atom_site_fract_y
_atom_site_fract_z
Cu1 Cu 0.30322(10) 0.29574(7) 0.07274(7)
O1 O 0.0266(6) 0.1809(4) 0.5349(4)
C1 C -0.1568(15) 0.2055(14) 0.4861(12)
F1 F -0.1524(10) 0.1264(8) 0.5084(10)
F2 F -0.1429(10) 0.2099(9) 0.4060(7)
F3 F -0.2570(8) 0.2479(8) 0.4989(8)
C2 C -0.0662(10) 0.2370(8) 0.5286(6)
C3 C -0.0950(13) 0.3195(9) 0.5543(8)
H1 H -0.166(8) 0.357(6) 0.550(5)
C4 C -0.0200(13) 0.3540(7) 0.5936(7)
C5 C -0.066(2) 0.4449(11) 0.6253(16)
F4 F 0.0057(12) 0.4901(7) 0.6099(11)
F5 F -0.1494(11) 0.4934(7) 0.5906(10)
F6 F -0.0788(19) 0.4442(8) 0.7022(8)
O2 O 0.0803(7) 0.3175(4) 0.6099(4)
O3 O 0.2365(6) 0.0701(4) 0.5855(4)
C6 C 0.3856(12) -0.0573(7) 0.5777(7)
F7 F 0.4977(6) -0.0838(4) 0.5746(4)
F8 F 0.3451(7) -0.1091(4) 0.6275(5)
F9 F 0.3582(6) -0.0662(4) 0.5000(4)
C7 C 0.3392(10) 0.0391(5) 0.5984(5)
C8 C 0.4115(10) 0.0806(7) 0.6291(6)
H2 H 0.484(5) 0.048(4) 0.633(3)
C9 C 0.3766(11) 0.1659(7) 0.6530(5)
C10 C 0.4677(13) 0.2012(9) 0.6861(12)
F10 F 0.4441(8) 0.2131(8) 0.7692(7)
F11 F 0.5682(7) 0.1516(6) 0.6918(5)
F12 F 0.4674(11) 0.2741(7) 0.6557(9)
O4 O 0.2820(6) 0.2167(4) 0.6495(4)
Cu2 Cu 0.15696(10) 0.19575(7) 0.58980(7)
O5 O 0.2514(6) 0.4226(4) 0.0472(4)
C11 C 0.1469(15) 0.5688(7) 0.0503(10)
F13 F 0.1891(9) 0.5837(4) -0.0214(6)
F14 F 0.1849(9) 0.6080(5) 0.1035(6)
F15 F 0.0419(8) 0.6130(5) 0.0475(7)
C12 C 0.1647(11) 0.4717(6) 0.0779(7)
C13 C 0.0881(11) 0.4475(8) 0.1341(8)
H3 H 0.030(7) 0.491(5) 0.144(4)
C14 C 0.0950(9) 0.3618(7) 0.1634(6)
C15 C -0.0008(12) 0.3418(8) 0.2210(9)
F16 F -0.0888(6) 0.4087(5) 0.2288(5)
F17 F -0.0299(8) 0.2765(6) 0.2072(7)
F18 F 0.0346(7) 0.3289(6) 0.3010(5)
O6 O 0.1703(5) 0.2954(4) 0.1472(4)
O7 O 0.4405(5) 0.2964(4) 0.0063(3)
C16 C 0.6190(12) 0.2483(8) -0.0553(11)
F19 F 0.6713(9) 0.1819(7) -0.0949(7)
F20 F 0.7003(10) 0.2561(10) -0.0123(6)
F21 F 0.5959(7) 0.3092(6) -0.1074(6)
C17 C 0.5242(9) 0.2306(6) 0.0026(5)
C18 C 0.5385(11) 0.1480(7) 0.0439(7)
H4 H 0.593(6) 0.107(4) 0.038(4)
C19 C 0.4564(10) 0.1270(6) 0.0952(6)
C20 C 0.486(2) 0.0339(7) 0.1442(10)
F22 F 0.4168(12) -0.0067(6) 0.1145(7)
F23 F 0.4505(10) 0.0330(5) 0.2162(5)
F24 F 0.5763(9) -0.0158(6) 0.1286(10)
O8 O 0.3594(6) 0.1738(4) 0.1141(3)
O9 O 0.4200(6) 0.3130(4) 0.1926(4)
N1 N 0.4382(7) 0.3593(5) 0.2511(5)
C21 C 0.5243(9) 0.4130(7) 0.2356(6)
C22 C 0.5007(17) 0.4661(11) 0.1519(8)
H5 H 0.545(9) 0.418(7) 0.115(6)
H6 H 0.574(12) 0.501(9) 0.138(8)
H7 H 0.420(9) 0.511(7) 0.159(6)
C23 C 0.6407(13) 0.3450(11) 0.2313(11)
H8 H 0.6471 0.3150 0.1803
H9 H 0.6481 0.3031 0.2800
H10 H 0.6994 0.3745 0.2310
C24 C 0.5035(11) 0.4643(7) 0.3167(6)
C25 C 0.4168(16) 0.5539(7) 0.3035(9)
H11 H 0.4078 0.5837 0.3549
H12 H 0.3453 0.5458 0.2895
H13 H 0.4426 0.5886 0.2580
C26 C 0.6066(14) 0.4736(13) 0.3579(10)
H14 H 0.5840 0.5074 0.4065
H15 H 0.6482 0.5029 0.3179
H16 H 0.6537 0.4163 0.3759
N2 N 0.4456(8) 0.4074(5) 0.3736(5)
C27 C 0.4046(8) 0.3527(6) 0.3312(6)
C28 C 0.3399(8) 0.2966(5) 0.3671(6)
C29 C 0.2953(10) 0.2910(7) 0.4478(7)
H17 H 0.297(6) 0.316(4) 0.481(3)
N3 N 0.2410(7) 0.2289(5) 0.4624(4)
N4 N 0.2520(6) 0.1941(4) 0.3858(5)
C30 C 0.2021(12) 0.1216(8) 0.3732(8)
H18 H 0.1864 0.0943 0.4275
H19 H 0.2545 0.0788 0.3410
H20 H 0.1330 0.1444 0.3429
C31 C 0.3096(9) 0.2319(6) 0.3291(6)
H21 H 0.305(6) 0.222(4) 0.273(4)
O10 O 0.4264(8) 0.4194(5) 0.4519(5)
O11 O 0.0444(6) 0.1668(4) 0.7208(4)
N5 N 0.0659(7) 0.1022(5) 0.7781(5)
C32 C 0.0131(9) 0.0274(7) 0.7778(6)
C33 C 0.0178(16) -0.0029(11) 0.6881(9)
H22 H 0.079(9) -0.006(6) 0.659(6)
H23 H -0.032(7) 0.050(5) 0.643(5)
H24 H -0.021(9) -0.047(6) 0.704(6)
C34 C -0.1107(12) 0.0643(11) 0.8099(10)
H25 H -0.122(9) 0.077(6) 0.868(6)
H26 H -0.144(8) 0.009(5) 0.818(5)
H27 H -0.143(9) 0.099(7) 0.749(7)
C35 C 0.0875(10) -0.0411(6) 0.8436(6)
C36 C 0.1951(13) -0.0962(9) 0.8009(9)
H28 H 0.220(14) -0.060(10) 0.722(11)
H29 H 0.166(8) -0.144(6) 0.772(6)
H30 H 0.226(7) -0.128(4) 0.839(4)
C37 C 0.0284(15) -0.0960(10) 0.9039(10)
H31 H 0.070(11) -0.132(8) 0.946(7)
H32 H 0.007(8) -0.138(6) 0.878(6)
H33 H -0.052(7) -0.054(5) 0.918(4)
N6 N 0.1294(7) 0.0212(5) 0.8929(5)
O12 O 0.1802(6) -0.0038(4) 0.9633(4)
C38 C 0.1191(8) 0.0995(6) 0.8504(6)
C39 C 0.1593(7) 0.1704(6) 0.8753(5)
C40 C 0.2031(9) 0.1781(7) 0.9533(6)
H34 H 0.212(6) 0.138(4) 0.997(4)
N7 N 0.2314(6) 0.2532(5) 0.9551(4)
N8 N 0.2053(6) 0.2944(4) 0.8762(4)
C41 C 0.2324(12) 0.3785(7) 0.8541(7)
H35 H 0.2630 0.3956 0.9026
H36 H 0.1648 0.4229 0.8374
H37 H 0.2872 0.3720 0.8078
C42 C 0.1622(9) 0.2474(6) 0.8285(6)
H38 H 0.135(6) 0.271(4) 0.774(4)
N7_2 N 0.2314(6) 0.2532(5) -0.0449(4)
Cu1_2 Cu 0.30322(10) 0.29574(7) 1.07274(7)
loop_
_geom_bond_atom_site_label_1
_geom_bond_atom_site_label_2
_geom_bond_site_symmetry_1
_geom_bond_site_symmetry_2
Cu1 O5 1_555 1_555
O1 C2 1_555 1_555
C1 F1 1_555 1_555
F2 C1 1_555 1_555
F3 C1 1_555 1_555
C2 C1 1_555 1_555
C3 C2 1_555 1_555
H1 C3 1_555 1_555
C4 C3 1_555 1_555
C5 C4 1_555 1_555
F4 C5 1_555 1_555
F5 C5 1_555 1_555
F6 C5 1_555 1_555
O2 C4 1_555 1_555
O3 C7 1_555 1_555
C6 F7 1_555 1_555
F8 C6 1_555 1_555
F9 C6 1_555 1_555
C7 C6 1_555 1_555
C8 C7 1_555 1_555
H2 C8 1_555 1_555
C9 C8 1_555 1_555
C10 C9 1_555 1_555
F10 C10 1_555 1_555
F11 C10 1_555 1_555
F12 C10 1_555 1_555
O4 C9 1_555 1_555
Cu2 O1 1_555 1_555
O5 C12 1_555 1_555
C11 F13 1_555 1_555
F14 C11 1_555 1_555
F15 C11 1_555 1_555
C12 C11 1_555 1_555
C13 C12 1_555 1_555
H3 C13 1_555 1_555
C14 C13 1_555 1_555
C15 C14 1_555 1_555
F16 C15 1_555 1_555
F17 C15 1_555 1_555
F18 C15 1_555 1_555
O6 Cu1 1_555 1_555
O7 Cu1 1_555 1_555
C16 F19 1_555 1_555
F20 C16 1_555 1_555
F21 C16 1_555 1_555
C17 O7 1_555 1_555
C18 C17 1_555 1_555
H4 C18 1_555 1_555
C19 C18 1_555 1_555
C20 C19 1_555 1_555
F22 C20 1_555 1_555
F23 C20 1_555 1_555
F24 C20 1_555 1_555
O8 Cu1 1_555 1_555
O9 Cu1 1_555 1_555
N1 O9 1_555 1_555
C21 N1 1_555 1_555
C22 C21 1_555 1_555
H5 C22 1_555 1_555
H6 C22 1_555 1_555
H7 C22 1_555 1_555
C23 C21 1_555 1_555
H8 C23 1_555 1_555
H9 C23 1_555 1_555
H10 C23 1_555 1_555
C24 C21 1_555 1_555
C25 C24 1_555 1_555
H11 C25 1_555 1_555
H12 C25 1_555 1_555
H13 C25 1_555 1_555
C26 C24 1_555 1_555
H14 C26 1_555 1_555
H15 C26 1_555 1_555
H16 C26 1_555 1_555
N2 C24 1_555 1_555
C27 N1 1_555 1_555
C28 C27 1_555 1_555
C29 C28 1_555 1_555
H17 C29 1_555 1_555
N3 Cu2 1_555 1_555
N4 N3 1_555 1_555
C30 N4 1_555 1_555
H18 C30 1_555 1_555
H19 C30 1_555 1_555
H20 C30 1_555 1_555
C31 C28 1_555 1_555
H21 C31 1_555 1_555
O10 N2 1_555 1_555
O11 Cu2 1_555 1_555
N5 O11 1_555 1_555
C32 N5 1_555 1_555
C33 C32 1_555 1_555
H22 C33 1_555 1_555
H23 C33 1_555 1_555
H24 C33 1_555 1_555
C34 C32 1_555 1_555
H25 C34 1_555 1_555
H26 C34 1_555 1_555
H27 C34 1_555 1_555
C35 C32 1_555 1_555
C36 C35 1_555 1_555
H28 C36 1_555 1_555
H29 C36 1_555 1_555
H30 C36 1_555 1_555
C37 C35 1_555 1_555
H31 C37 1_555 1_555
H32 C37 1_555 1_555
H33 C37 1_555 1_555
N6 C35 1_555 1_555
O12 N6 1_555 1_555
C38 N5 1_555 1_555
C39 C38 1_555 1_555
C40 C39 1_555 1_555
H34 C40 1_555 1_555
N7 C40 1_555 1_555
N8 N7 1_555 1_555
C41 N8 1_555 1_555
H35 C41 1_555 1_555
H36 C41 1_555 1_555
H37 C41 1_555 1_555
C42 C39 1_555 1_555
H38 C42 1_555 1_555
N7_2 Cu1 1_555 1_555
Cu1_2 N7 1_555 1_555
O2 Cu2 1_555 1_555
O3 Cu2 1_555 1_555
O4 Cu2 1_555 1_555
C14 O6 1_555 1_555
C16 C17 1_555 1_555
C19 O8 1_555 1_555
N2 C27 1_555 1_555
C29 N3 1_555 1_555
N4 C31 1_555 1_555
N6 C38 1_555 1_555
N8 C42 1_555 1_555

#END
