
#######################################################################
#
#                 Cambridge Crystallographic Data Centre
#                                CCDC 
#
#######################################################################
#
# If this CIF has been generated from an entry in the Cambridge 
# Structural Database, then it will include bibliographic, chemical, 
# crystal, experimental, refinement or atomic coordinate data resulting 
# from the CCDC's data processing and validation procedures.
#
#######################################################################

data_LUPMUE06
_symmetry_cell_setting           triclinic
_symmetry_space_group_name_H-M   'P -1'
_symmetry_Int_Tables_number      2
_space_group_name_Hall           '-P 1'
loop_
_symmetry_equiv_pos_site_id
_symmetry_equiv_pos_as_xyz
1 x,y,z
2 -x,-y,-z
_cell_length_a                   12.022(3)
_cell_length_b                   15.121(4)
_cell_length_c                   15.893(4)
_cell_angle_alpha                81.471(6)
_cell_angle_beta                 76.806(6)
_cell_angle_gamma                85.584(6)
_cell_volume                     2778.94
loop_
_atom_site_label
_atom_site_type_symbol
_atom_site_fract_x
_atom_site_fract_y
_atom_site_fract_z
Cu1 Cu 0.36057(11) -0.09811(10) 0.31255(9)
O1 O 0.2367(7) -0.1677(5) 0.2903(5)
C1 C 0.0572(12) -0.2014(10) 0.2750(9)
F1 F 0.0721(7) -0.2890(5) 0.2780(6)
F2 F 0.0826(8) -0.1672(7) 0.1929(6)
F3 F -0.0548(6) -0.1857(6) 0.3046(6)
C2 C 0.1306(11) -0.1636(8) 0.3262(8)
C3 C 0.0783(9) -0.1371(8) 0.4057(7)
H1 H -0.0029 -0.1340 0.4217
C4 C 0.1405(10) -0.1144(8) 0.4642(8)
C5 C 0.0730(11) -0.1027(10) 0.5562(8)
F4 F -0.0357(6) -0.0754(5) 0.5594(4)
F5 F 0.1182(6) -0.0388(6) 0.5877(5)
F6 F 0.0755(6) -0.1768(6) 0.6102(5)
O2 O 0.2476(6) -0.1086(5) 0.4503(5)
O3 O 0.4404(7) -0.1083(5) 0.1716(5)
C6 C 0.5871(16) -0.1164(14) 0.0493(10)
F7 F 0.6196(11) -0.2007(8) 0.0522(7)
F8 F 0.5087(7) -0.1051(9) 0.0009(6)
F9 F 0.6768(8) -0.0731(8) 0.0038(5)
C7 C 0.5428(10) -0.0925(9) 0.1403(8)
C8 C 0.6185(9) -0.0534(8) 0.1784(7)
H2 H 0.6929 -0.0414 0.1443
C9 C 0.5913(10) -0.0318(8) 0.2611(8)
C10 C 0.6848(11) 0.0066(10) 0.2959(8)
F10 F 0.6959(7) -0.0408(7) 0.3695(6)
F11 F 0.6594(7) 0.0901(6) 0.3080(7)
F12 F 0.7877(6) 0.0046(6) 0.2428(5)
O4 O 0.4957(6) -0.0336(5) 0.3167(5)
O5 O 0.0851(6) 0.3051(5) 0.1907(5)
N1 N 0.0621(7) 0.2460(7) 0.1449(6)
C11 C -0.0284(9) 0.2686(8) 0.0944(8)
C12 C -0.0115(10) 0.3559(8) 0.0372(7)
H3 H -0.0157 0.4039 0.0731
H4 H -0.0713 0.3669 0.0036
H5 H 0.0636 0.3544 -0.0029
C13 C -0.1432(9) 0.2701(8) 0.1613(8)
H6 H -0.1488 0.3223 0.1921
H7 H -0.1477 0.2153 0.2033
H8 H -0.2062 0.2735 0.1310
C14 C -0.0124(10) 0.1834(8) 0.0442(7)
C15 C -0.1203(10) 0.1423(8) 0.0383(8)
H9 H -0.1003 0.0902 0.0068
H10 H -0.1657 0.1865 0.0071
H11 H -0.1649 0.1233 0.0971
C16 C 0.0707(11) 0.1957(9) -0.0441(8)
H12 H 0.0728 0.1424 -0.0729
H13 H 0.1473 0.2046 -0.0360
H14 H 0.0456 0.2482 -0.0804
N2 N 0.0514(8) 0.1176(7) 0.1016(6)
O6 O 0.0636(7) 0.0354(6) 0.0953(5)
C17 C 0.0964(10) 0.1606(8) 0.1544(7)
C18 C 0.1662(9) 0.1197(8) 0.2117(7)
C19 C 0.2161(9) 0.0338(8) 0.2165(7)
H15 H 0.2104 -0.0077 0.1784
N3 N 0.2734(7) 0.0156(6) 0.2808(6)
N4 N 0.2603(7) 0.0948(7) 0.3166(6)
C20 C 0.3100(10) 0.1007(8) 0.3911(7)
H16 H 0.2925 0.1605 0.4090
H17 H 0.3931 0.0902 0.3747
H18 H 0.2778 0.0555 0.4396
C21 C 0.1987(10) 0.1548(8) 0.2765(7)
H19 H 0.1796 0.2139 0.2903
Cu2 Cu 0.19981(12) 0.42588(10) 0.20681(9)
O7 O 0.2444(7) 0.4583(6) 0.0813(5)
C22 C 0.3399(12) 0.4581(10) -0.0638(8)
F13 F 0.2950(14) 0.4072(10) -0.1022(7)
F14 F 0.4398(9) 0.4547(11) -0.1077(7)
F15 F 0.3004(15) 0.5324(9) -0.0800(6)
C23 C 0.3279(11) 0.4218(9) 0.0314(7)
C24 C 0.4080(10) 0.3580(8) 0.0559(8)
H20 H 0.4651 0.3352 0.0115
C25 C 0.4083(10) 0.3261(8) 0.1425(8)
C26 C 0.5020(11) 0.2586(10) 0.1608(9)
F16 F 0.5441(7) 0.2780(7) 0.2257(6)
F17 F 0.4627(6) 0.1758(6) 0.1848(6)
F18 F 0.5906(6) 0.2511(5) 0.0951(5)
O8 O 0.3366(6) 0.3464(5) 0.2088(5)
O9 O 0.0568(6) 0.4982(5) 0.2055(5)
C27 C -0.1271(11) 0.5582(10) 0.2555(9)
F19 F -0.2125(6) 0.5080(6) 0.2514(5)
F20 F -0.1688(7) 0.6067(7) 0.3200(6)
F21 F -0.1074(6) 0.6166(5) 0.1839(5)
C28 C -0.0247(10) 0.5012(8) 0.2704(8)
C29 C -0.0299(10) 0.4517(8) 0.3548(7)
H21 H -0.0989 0.4563 0.3976
C30 C 0.0568(9) 0.3989(7) 0.3778(7)
C31 C 0.0472(13) 0.3560(10) 0.4697(9)
F22 F 0.0928(6) 0.2724(5) 0.4770(4)
F23 F -0.0574(7) 0.3549(6) 0.5181(5)
F24 F 0.1084(8) 0.4027(6) 0.5099(5)
O10 O 0.1522(6) 0.3804(5) 0.3297(5)
O11 O 0.4550(6) -0.2093(5) 0.3356(5)
N5 N 0.4326(7) -0.2686(6) 0.4022(6)
C32 C 0.4832(9) -0.2739(8) 0.4813(7)
C33 C 0.4783(10) -0.1808(7) 0.5114(7)
H22 H 0.3983 -0.1600 0.5295
H23 H 0.5177 -0.1384 0.4631
H24 H 0.5157 -0.1850 0.5606
C34 C 0.6094(9) -0.3054(8) 0.4513(7)
H25 H 0.6130 -0.3643 0.4318
H26 H 0.6479 -0.3095 0.5000
H27 H 0.6476 -0.2623 0.4030
C35 C 0.4078(9) -0.3420(7) 0.5468(7)
C36 C 0.4689(10) -0.4092(8) 0.6038(8)
H28 H 0.5398 -0.4321 0.5681
H29 H 0.4192 -0.4590 0.6304
H30 H 0.4870 -0.3799 0.6498
C37 C 0.3025(9) -0.3014(8) 0.6014(7)
H31 H 0.2676 -0.2547 0.5646
H32 H 0.3237 -0.2752 0.6480
H33 H 0.2477 -0.3480 0.6271
N6 N 0.3668(8) -0.3918(7) 0.4847(6)
O12 O 0.3189(7) -0.4662(5) 0.5095(5)
C38 C 0.3809(9) -0.3445(7) 0.4021(7)
C39 C 0.3457(9) -0.3726(8) 0.3305(7)
C40 C 0.2942(9) -0.4527(7) 0.3258(7)
H34 H 0.2767 -0.4999 0.3727
N7 N 0.2742(8) -0.4530(6) 0.2487(6)
N8 N 0.3151(8) -0.3743(6) 0.2016(6)
C41 C 0.2961(10) -0.3497(8) 0.1126(7)
H35 H 0.3335 -0.2938 0.0861
H36 H 0.2138 -0.3415 0.1149
H37 H 0.3283 -0.3975 0.0774
C42 C 0.3577(9) -0.3254(8) 0.2486(7)
H38 H 0.3903 -0.2686 0.2292
Cu2_2 Cu 0.19981(12) -0.57412(10) 0.20681(9)
N7_2 N 0.2742(8) 0.5470(6) 0.2487(6)
loop_
_geom_bond_atom_site_label_1
_geom_bond_atom_site_label_2
_geom_bond_site_symmetry_1
_geom_bond_site_symmetry_2
Cu1 O1 1_555 1_555
O1 C2 1_555 1_555
C1 F1 1_555 1_555
F2 C1 1_555 1_555
F3 C1 1_555 1_555
C2 C1 1_555 1_555
C3 C2 1_555 1_555
H1 C3 1_555 1_555
C4 C3 1_555 1_555
C5 C4 1_555 1_555
F4 C5 1_555 1_555
F5 C5 1_555 1_555
F6 C5 1_555 1_555
O2 Cu1 1_555 1_555
O3 Cu1 1_555 1_555
C6 F7 1_555 1_555
F8 C6 1_555 1_555
F9 C6 1_555 1_555
C7 O3 1_555 1_555
C8 C7 1_555 1_555
H2 C8 1_555 1_555
C9 C8 1_555 1_555
C10 C9 1_555 1_555
F10 C10 1_555 1_555
F11 C10 1_555 1_555
F12 C10 1_555 1_555
O4 Cu1 1_555 1_555
O5 N1 1_555 1_555
N1 C11 1_555 1_555
C11 C12 1_555 1_555
C12 H3 1_555 1_555
H4 C12 1_555 1_555
H5 C12 1_555 1_555
C13 C11 1_555 1_555
H6 C13 1_555 1_555
H7 C13 1_555 1_555
H8 C13 1_555 1_555
C14 C11 1_555 1_555
C15 C14 1_555 1_555
H9 C15 1_555 1_555
H10 C15 1_555 1_555
H11 C15 1_555 1_555
C16 C14 1_555 1_555
H12 C16 1_555 1_555
H13 C16 1_555 1_555
H14 C16 1_555 1_555
N2 C14 1_555 1_555
O6 N2 1_555 1_555
C17 N1 1_555 1_555
C18 C17 1_555 1_555
C19 C18 1_555 1_555
H15 C19 1_555 1_555
N3 Cu1 1_555 1_555
N4 N3 1_555 1_555
C20 N4 1_555 1_555
H16 C20 1_555 1_555
H17 C20 1_555 1_555
H18 C20 1_555 1_555
C21 C18 1_555 1_555
H19 C21 1_555 1_555
Cu2 O5 1_555 1_555
O7 Cu2 1_555 1_555
C22 F13 1_555 1_555
F14 C22 1_555 1_555
F15 C22 1_555 1_555
C23 O7 1_555 1_555
C24 C23 1_555 1_555
H20 C24 1_555 1_555
C25 C24 1_555 1_555
C26 C25 1_555 1_555
F16 C26 1_555 1_555
F17 C26 1_555 1_555
F18 C26 1_555 1_555
O8 Cu2 1_555 1_555
O9 Cu2 1_555 1_555
C27 F19 1_555 1_555
F20 C27 1_555 1_555
F21 C27 1_555 1_555
C28 O9 1_555 1_555
C29 C28 1_555 1_555
H21 C29 1_555 1_555
C30 C29 1_555 1_555
C31 C30 1_555 1_555
F22 C31 1_555 1_555
F23 C31 1_555 1_555
F24 C31 1_555 1_555
O10 Cu2 1_555 1_555
O11 Cu1 1_555 1_555
N5 O11 1_555 1_555
C32 N5 1_555 1_555
C33 C32 1_555 1_555
H22 C33 1_555 1_555
H23 C33 1_555 1_555
H24 C33 1_555 1_555
C34 C32 1_555 1_555
H25 C34 1_555 1_555
H26 C34 1_555 1_555
H27 C34 1_555 1_555
C35 C32 1_555 1_555
C36 C35 1_555 1_555
H28 C36 1_555 1_555
H29 C36 1_555 1_555
H30 C36 1_555 1_555
C37 C35 1_555 1_555
H31 C37 1_555 1_555
H32 C37 1_555 1_555
H33 C37 1_555 1_555
N6 C35 1_555 1_555
O12 N6 1_555 1_555
C38 N5 1_555 1_555
C39 C38 1_555 1_555
C40 C39 1_555 1_555
H34 C40 1_555 1_555
N7 C40 1_555 1_555
N8 N7 1_555 1_555
C41 N8 1_555 1_555
H35 C41 1_555 1_555
H36 C41 1_555 1_555
H37 C41 1_555 1_555
C42 C39 1_555 1_555
H38 C42 1_555 1_555
Cu2_2 N7 1_555 1_555
N7_2 Cu2 1_555 1_555
C4 O2 1_555 1_555
C6 C7 1_555 1_555
C9 O4 1_555 1_555
N2 C17 1_555 1_555
C19 N3 1_555 1_555
N4 C21 1_555 1_555
C22 C23 1_555 1_555
C25 O8 1_555 1_555
C27 C28 1_555 1_555
C30 O10 1_555 1_555
N6 C38 1_555 1_555
N8 C42 1_555 1_555

#END
