
#######################################################################
#
#                 Cambridge Crystallographic Data Centre
#                                CCDC 
#
#######################################################################
#
# If this CIF has been generated from an entry in the Cambridge 
# Structural Database, then it will include bibliographic, chemical, 
# crystal, experimental, refinement or atomic coordinate data resulting 
# from the CCDC's data processing and validation procedures.
#
#######################################################################

data_LUPNOZ02
_symmetry_cell_setting           monoclinic
_symmetry_space_group_name_H-M   'C 2/c'
_symmetry_Int_Tables_number      15
_space_group_name_Hall           '-C 2yn'
loop_
_symmetry_equiv_pos_site_id
_symmetry_equiv_pos_as_xyz
1 x,y,z
2 1/2+x,1/2+y,z
3 x,-y,1/2+z
4 1/2+x,1/2-y,1/2+z
5 -x,-y,-z
6 1/2-x,1/2-y,-z
7 -x,y,1/2-z
8 1/2-x,1/2+y,1/2-z
_cell_length_a                   29.324(10)
_cell_length_b                   9.438(5)
_cell_length_c                   24.236(8)
_cell_angle_alpha                90
_cell_angle_beta                 121.030(10)
_cell_angle_gamma                90
_cell_volume                     5747.69
loop_
_atom_site_label
_atom_site_type_symbol
_atom_site_fract_x
_atom_site_fract_y
_atom_site_fract_z
Cu1 Cu 1.0000 0.5000 0.5000
O1 O 1.00136(13) 0.5909(4) 0.42699(16)
F1 F 0.98619(17) 0.6700(5) 0.31195(18)
F2 F 1.05453(14) 0.7759(5) 0.38782(19)
F3 F 0.98085(17) 0.8876(5) 0.3323(2)
C1 C 0.98764(18) 0.7150(7) 0.4089(2)
C2 C 0.9628(2) 0.8097(7) 0.4283(3)
H1 H 0.957(2) 0.895(7) 0.416(3)
C3 C 0.95193(19) 0.7738(6) 0.4766(3)
C4 C 0.9279(2) 0.8893(7) 0.4999(3)
F4 F 0.92426(15) 1.0147(4) 0.4750(2)
F5 F 0.88271(17) 0.8492(5) 0.4918(3)
F6 F 0.9593(2) 0.9069(5) 0.5645(2)
O2 O 0.96104(12) 0.6614(4) 0.50643(17)
Cu2 Cu 0.7500 0.7500 0.5000
O3 O 0.76144(12) 0.9160(4) 0.45999(15)
C5 C 0.7749(2) 1.1507(6) 0.4405(2)
F7 F 0.72385(13) 1.1563(4) 0.39438(15)
F8 F 0.80244(16) 1.1306(4) 0.41142(18)
F9 F 0.78729(14) 1.2768(4) 0.46841(16)
C6 C 0.78530(18) 1.0303(6) 0.4876(2)
C7 C 0.8187(2) 1.0589(7) 0.5522(2)
H2 H 0.831(2) 1.145(7) 0.564(3)
C8 C 0.83147(18) 0.9619(6) 0.6019(2)
C9 C 0.8670(3) 1.0158(8) 0.6711(3)
F10 F 0.88655(17) 1.1437(5) 0.67566(16)
F11 F 0.8357(2) 1.0353(6) 0.6975(2)
F12 F 0.9017(2) 0.9273(6) 0.7087(2)
O4 O 0.81686(13) 0.8376(4) 0.59777(15)
O5 O 0.76461(14) 0.5687(5) 0.29120(17)
N1 N 0.80842(16) 0.5019(5) 0.31521(19)
C10 C 1.0020(2) 0.7659(7) 0.3593(3)
C11 C 0.8311(2) 0.4527(6) 0.2751(2)
C12 C 0.7879(2) 0.3871(7) 0.2129(3)
H3 H 0.762(2) 0.451(7) 0.188(3)
H4 H 0.803(2) 0.348(6) 0.189(3)
H5 H 0.768(2) 0.326(6) 0.219(2)
C13 C 0.8543(2) 0.5849(7) 0.2625(3)
H6 H 0.824(2) 0.644(7) 0.238(3)
H7 H 0.880(2) 0.625(6) 0.302(3)
H8 H 0.865(3) 0.574(8) 0.234(4)
C14 C 0.87366(19) 0.3455(6) 0.3231(2)
C15 C 0.9248(2) 0.3399(8) 0.3210(3)
H9 H 0.949(3) 0.275(7) 0.352(3)
H10 H 0.914(2) 0.294(6) 0.278(3)
H11 H 0.943(2) 0.424(8) 0.329(3)
C16 C 0.8523(3) 0.1972(7) 0.3197(3)
H12 H 0.877(3) 0.174(8) 0.357(4)
H13 H 0.823(3) 0.201(8) 0.322(4)
H14 H 0.8469(18) 0.155(5) 0.279(3)
N2 N 0.88450(15) 0.4083(5) 0.38591(18)
O6 O 0.92500(12) 0.3677(4) 0.44060(15)
C17 C 0.84351(18) 0.4829(6) 0.3790(2)
C18 C 0.83648(18) 0.5315(5) 0.4300(2)
C19 C 0.86740(19) 0.4974(6) 0.4944(2)
H15 H 0.898(2) 0.448(6) 0.517(3)
N3 N 0.84609(14) 0.5602(5) 0.52560(18)
C20 C 0.8666(2) 0.5490(7) 0.5949(2)
H16 H 0.866(2) 0.460(7) 0.605(3)
H17 H 0.841(2) 0.584(6) 0.601(3)
C21 C 0.9197(2) 0.6218(9) 0.6342(3)
H18 H 0.932(2) 0.609(6) 0.682(3)
H19 H 0.939(2) 0.586(7) 0.624(3)
H20 H 0.917(3) 0.729(8) 0.624(3)
N4 N 0.80146(14) 0.6344(4) 0.48395(18)
C22 C 0.79581(18) 0.6178(6) 0.4265(2)
H21 H 0.768(2) 0.651(6) 0.393(3)
O1D O 0.99864(13) 0.4091(4) 0.57301(16)
F1D F 1.01381(17) 0.3300(5) 0.68805(18)
F2D F 0.94547(14) 0.2241(5) 0.61218(19)
F3D F 1.01915(17) 0.1124(5) 0.6677(2)
C1D C 1.01236(18) 0.2850(7) 0.5911(2)
C2D C 1.0372(2) 0.1903(7) 0.5717(3)
H1D H 1.043(2) 0.105(7) 0.584(3)
C3D C 1.04807(19) 0.2262(6) 0.5234(3)
C4D C 1.0721(2) 0.1107(7) 0.5001(3)
F4D F 1.07574(15) -0.0147(4) 0.5250(2)
F5D F 1.11729(17) 0.1508(5) 0.5082(3)
F6D F 1.0407(2) 0.0931(5) 0.4355(2)
O2D O 1.03896(12) 0.3386(4) 0.49357(17)
C10D C 0.9980(2) 0.2341(7) 0.6407(3)
O5D O 1.23539(14) 0.4313(5) 0.70880(17)
N1D N 1.19158(16) 0.4981(5) 0.68479(19)
C11D C 1.1689(2) 0.5473(6) 0.7249(2)
C12D C 1.2121(2) 0.6129(7) 0.7871(3)
H3D H 1.238(2) 0.549(7) 0.812(3)
H4D H 1.197(2) 0.652(6) 0.811(3)
H5D H 1.232(2) 0.674(6) 0.781(2)
C13D C 1.1457(2) 0.4151(7) 0.7375(3)
H6D H 1.176(2) 0.356(7) 0.762(3)
H7D H 1.120(2) 0.375(6) 0.698(3)
H8D H 1.135(3) 0.426(8) 0.766(4)
C14D C 1.12634(19) 0.6545(6) 0.6769(2)
C15D C 1.0752(2) 0.6601(8) 0.6790(3)
H9D H 1.051(3) 0.725(7) 0.648(3)
H10D H 1.086(2) 0.706(6) 0.722(3)
H11D H 1.057(2) 0.576(8) 0.671(3)
C16D C 1.1477(3) 0.8028(7) 0.6803(3)
H12D H 1.123(3) 0.826(8) 0.643(4)
H13D H 1.177(3) 0.799(8) 0.678(4)
H14D H 1.1531(18) 0.845(5) 0.721(3)
N2D N 1.11550(15) 0.5917(5) 0.61409(18)
O6D O 1.07500(12) 0.6323(4) 0.55940(15)
C17D C 1.15649(18) 0.5171(6) 0.6210(2)
C18D C 1.16352(18) 0.4685(5) 0.5700(2)
C19D C 1.13260(19) 0.5026(6) 0.5056(2)
H15D H 1.102(2) 0.552(6) 0.483(3)
N3D N 1.15391(14) 0.4398(5) 0.47440(18)
C20D C 1.1334(2) 0.4510(7) 0.4051(2)
H16D H 1.134(2) 0.540(7) 0.395(3)
H17D H 1.159(2) 0.416(6) 0.399(3)
C21D C 1.0803(2) 0.3782(9) 0.3658(3)
H18D H 1.068(2) 0.391(6) 0.318(3)
H19D H 1.061(2) 0.414(7) 0.376(3)
H20D H 1.083(3) 0.271(8) 0.376(3)
N4D N 1.19854(14) 0.3656(4) 0.51605(18)
C22D C 1.20419(18) 0.3822(6) 0.5735(2)
H21D H 1.232(2) 0.349(6) 0.607(3)
O3E O 0.73856(12) 0.5840(4) 0.54001(15)
C5E C 0.7251(2) 0.3493(6) 0.5595(2)
F7E F 0.77615(13) 0.3437(4) 0.60562(15)
F8E F 0.69756(16) 0.3694(4) 0.58858(18)
F9E F 0.71271(14) 0.2232(4) 0.53159(16)
C6E C 0.71470(18) 0.4697(6) 0.5124(2)
C7E C 0.6813(2) 0.4411(7) 0.4478(2)
H2E H 0.669(2) 0.355(7) 0.436(3)
C8E C 0.66853(18) 0.5381(6) 0.3981(2)
C9E C 0.6330(3) 0.4842(8) 0.3289(3)
F10E F 0.61345(17) 0.3563(5) 0.32434(16)
F11E F 0.6643(2) 0.4647(6) 0.3025(2)
F12E F 0.5983(2) 0.5727(6) 0.2913(2)
O4E O 0.68314(13) 0.6624(4) 0.40223(15)
N4E N 0.69854(14) 0.8656(4) 0.51605(18)
Cu2A Cu 1.2500 0.2500 0.5000
loop_
_geom_bond_atom_site_label_1
_geom_bond_atom_site_label_2
_geom_bond_site_symmetry_1
_geom_bond_site_symmetry_2
Cu1 O1 1_555 1_555
O1 C1 1_555 1_555
F1 C10 1_555 1_555
F2 C10 1_555 1_555
F3 C10 1_555 1_555
C1 C2 1_555 1_555
C2 H1 1_555 1_555
C3 C2 1_555 1_555
C4 C3 1_555 1_555
F4 C4 1_555 1_555
F5 C4 1_555 1_555
F6 C4 1_555 1_555
O2 Cu1 1_555 1_555
Cu2 O3 1_555 1_555
O3 C6 1_555 1_555
C5 F7 1_555 1_555
F8 C5 1_555 1_555
F9 C5 1_555 1_555
C6 C5 1_555 1_555
C7 C6 1_555 1_555
H2 C7 1_555 1_555
C8 C7 1_555 1_555
C9 C8 1_555 1_555
F10 C9 1_555 1_555
F11 C9 1_555 1_555
F12 C9 1_555 1_555
O4 Cu2 1_555 1_555
O5 N1 1_555 1_555
N1 C11 1_555 1_555
C10 C1 1_555 1_555
C11 C12 1_555 1_555
C12 H3 1_555 1_555
H4 C12 1_555 1_555
H5 C12 1_555 1_555
C13 C11 1_555 1_555
H6 C13 1_555 1_555
H7 C13 1_555 1_555
H8 C13 1_555 1_555
C14 C11 1_555 1_555
C15 C14 1_555 1_555
H9 C15 1_555 1_555
H10 C15 1_555 1_555
H11 C15 1_555 1_555
C16 C14 1_555 1_555
H12 C16 1_555 1_555
H13 C16 1_555 1_555
H14 C16 1_555 1_555
N2 C14 1_555 1_555
O6 Cu1 1_555 1_555
C17 N1 1_555 1_555
C18 C17 1_555 1_555
C19 C18 1_555 1_555
H15 C19 1_555 1_555
N3 C19 1_555 1_555
C20 N3 1_555 1_555
H16 C20 1_555 1_555
H17 C20 1_555 1_555
C21 C20 1_555 1_555
H18 C21 1_555 1_555
H19 C21 1_555 1_555
H20 C21 1_555 1_555
N4 Cu2 1_555 1_555
C22 C18 1_555 1_555
H21 C22 1_555 1_555
O1D Cu1 1_555 1_555
F1D C10D 1_555 1_555
F2D C10D 1_555 1_555
F3D C10D 1_555 1_555
C1D O1D 1_555 1_555
C2D C1D 1_555 1_555
H1D C2D 1_555 1_555
C3D C2D 1_555 1_555
C4D C3D 1_555 1_555
F4D C4D 1_555 1_555
F5D C4D 1_555 1_555
F6D C4D 1_555 1_555
O2D Cu1 1_555 1_555
C10D C1D 1_555 1_555
O5D N1D 1_555 1_555
N1D C11D 1_555 1_555
C11D C12D 1_555 1_555
C12D H3D 1_555 1_555
H4D C12D 1_555 1_555
H5D C12D 1_555 1_555
C13D C11D 1_555 1_555
H6D C13D 1_555 1_555
H7D C13D 1_555 1_555
H8D C13D 1_555 1_555
C14D C11D 1_555 1_555
C15D C14D 1_555 1_555
H9D C15D 1_555 1_555
H10D C15D 1_555 1_555
H11D C15D 1_555 1_555
C16D C14D 1_555 1_555
H12D C16D 1_555 1_555
H13D C16D 1_555 1_555
H14D C16D 1_555 1_555
N2D C14D 1_555 1_555
O6D Cu1 1_555 1_555
C17D N1D 1_555 1_555
C18D C17D 1_555 1_555
C19D C18D 1_555 1_555
H15D C19D 1_555 1_555
N3D C19D 1_555 1_555
C20D N3D 1_555 1_555
H16D C20D 1_555 1_555
H17D C20D 1_555 1_555
C21D C20D 1_555 1_555
H18D C21D 1_555 1_555
H19D C21D 1_555 1_555
H20D C21D 1_555 1_555
N4D N3D 1_555 1_555
C22D C18D 1_555 1_555
H21D C22D 1_555 1_555
O3E Cu2 1_555 1_555
C5E F7E 1_555 1_555
F8E C5E 1_555 1_555
F9E C5E 1_555 1_555
C6E O3E 1_555 1_555
C7E C6E 1_555 1_555
H2E C7E 1_555 1_555
C8E C7E 1_555 1_555
C9E C8E 1_555 1_555
F10E C9E 1_555 1_555
F11E C9E 1_555 1_555
F12E C9E 1_555 1_555
O4E Cu2 1_555 1_555
N4E Cu2 1_555 1_555
Cu2A N4D 1_555 1_555
C3 O2 1_555 1_555
C8 O4 1_555 1_555
N2 O6 1_555 1_555
N2 C17 1_555 1_555
N3 N4 1_555 1_555
N4 C22 1_555 1_555
C3D O2D 1_555 1_555
N2D C17D 1_555 1_555
N2D O6D 1_555 1_555
N4D C22D 1_555 1_555
C5E C6E 1_555 1_555
C8E O4E 1_555 1_555

#END
