
#######################################################################
#
#                 Cambridge Crystallographic Data Centre
#                                CCDC 
#
#######################################################################
#
# If this CIF has been generated from an entry in the Cambridge 
# Structural Database, then it will include bibliographic, chemical, 
# crystal, experimental, refinement or atomic coordinate data resulting 
# from the CCDC's data processing and validation procedures.
#
#######################################################################

data_LUPNOZ
_symmetry_cell_setting           monoclinic
_symmetry_space_group_name_H-M   'C 2/c'
_symmetry_Int_Tables_number      15
_space_group_name_Hall           '-C 2yn'
loop_
_symmetry_equiv_pos_site_id
_symmetry_equiv_pos_as_xyz
1 x,y,z
2 1/2+x,1/2+y,z
3 x,-y,1/2+z
4 1/2+x,1/2-y,1/2+z
5 -x,-y,-z
6 1/2-x,1/2-y,-z
7 -x,y,1/2-z
8 1/2-x,1/2+y,1/2-z
_cell_length_a                   29.489(9)
_cell_length_b                   9.495(5)
_cell_length_c                   24.382(7)
_cell_angle_alpha                90
_cell_angle_beta                 121.280(10)
_cell_angle_gamma                90
_cell_volume                     5834.55
loop_
_atom_site_label
_atom_site_type_symbol
_atom_site_fract_x
_atom_site_fract_y
_atom_site_fract_z
Cu1 Cu 0.0000 0.0000 0.5000
O1 O 0.00099(13) 0.0915(4) 0.42640(16)
C1 C 0.0010(3) 0.2644(8) 0.3590(3)
F1 F -0.0185(2) 0.3863(6) 0.3338(2)
F2 F -0.0162(2) 0.1737(6) 0.3107(2)
F3 F 0.05300(17) 0.2723(6) 0.3864(2)
C2 C -0.01288(19) 0.2147(7) 0.4083(2)
C3 C -0.0380(2) 0.3079(8) 0.4278(3)
H1 H -0.048(2) 0.388(7) 0.413(3)
C4 C -0.0483(2) 0.2722(6) 0.4759(3)
C5 C -0.0744(3) 0.3834(8) 0.4964(5)
F4 F -0.07346(18) 0.5107(4) 0.4779(2)
F5 F -0.0414(3) 0.4023(6) 0.5636(3)
F6 F -0.1143(2) 0.3472(5) 0.4937(4)
O2 O -0.03919(13) 0.1607(4) 0.50546(17)
Cu2 Cu -0.2500 0.2500 0.5000
O3 O -0.23911(12) 0.4158(3) 0.45945(14)
C6 C -0.2244(2) 0.6465(6) 0.4408(3)
F7 F -0.21333(18) 0.7729(4) 0.46826(18)
F8 F -0.1987(2) 0.6276(5) 0.4115(2)
F9 F -0.27497(16) 0.6549(4) 0.39528(17)
C7 C -0.21461(19) 0.5265(5) 0.4870(2)
C8 C -0.1811(2) 0.5523(7) 0.5519(3)
H2 H -0.1724(19) 0.632(6) 0.559(2)
C9 C -0.16940(19) 0.4574(6) 0.6002(2)
C10 C -0.1322(3) 0.5112(8) 0.6695(3)
F10 F -0.1142(2) 0.6351(5) 0.67575(19)
F11 F -0.0990(3) 0.4240(7) 0.7054(3)
F12 F -0.1607(3) 0.5266(8) 0.6977(3)
O4 O -0.18476(13) 0.3350(4) 0.59589(16)
O5 O -0.23606(15) 0.0618(5) 0.29305(17)
N1 N -0.19199(17) -0.0022(4) 0.31691(18)
C11 C -0.1697(2) -0.0496(6) 0.2772(2)
C12 C -0.2131(3) -0.1165(8) 0.2152(3)
H3 H -0.232(2) -0.198(6) 0.223(2)
H4 H -0.237(3) -0.054(7) 0.191(3)
H5 H -0.195(3) -0.155(7) 0.194(3)
C13 C -0.1478(3) 0.0812(7) 0.2630(3)
H6 H -0.179(2) 0.157(6) 0.243(3)
H7 H -0.118(3) 0.124(7) 0.306(3)
H8 H -0.134(3) 0.046(7) 0.240(3)
C14 C -0.1266(2) -0.1541(6) 0.3246(2)
C15 C -0.0756(3) -0.1583(8) 0.3224(3)
H9 H -0.058(2) -0.067(7) 0.329(3)
H10 H -0.047(3) -0.213(8) 0.351(4)
H11 H -0.0850(19) -0.198(5) 0.284(3)
C16 C -0.1470(3) -0.3020(7) 0.3225(3)
H12 H -0.183(3) -0.307(8) 0.328(4)
H13 H -0.153(2) -0.345(6) 0.287(3)
H14 H -0.123(2) -0.341(6) 0.353(3)
N2 N -0.11532(15) -0.0920(4) 0.38727(17)
O6 O -0.07444(13) -0.1295(4) 0.44189(15)
C17 C -0.15645(18) -0.0182(5) 0.3806(2)
C18 C -0.16350(18) 0.0312(5) 0.4312(2)
C19 C -0.13196(19) -0.0028(5) 0.4958(2)
H15 H -0.104(2) -0.058(6) 0.516(3)
N3 N -0.15342(14) 0.0586(4) 0.52634(17)
C20 C -0.1332(2) 0.0487(7) 0.5955(2)
H16 H -0.130(2) -0.052(7) 0.608(3)
H17 H -0.161(2) 0.096(6) 0.604(2)
C21 C -0.0798(2) 0.1182(10) 0.6348(3)
H18 H -0.0682 0.1124 0.6795
H19 H -0.0824 0.2153 0.6225
H20 H -0.0545 0.0713 0.6274
N4 N -0.19782(15) 0.1336(4) 0.48472(17)
C22 C -0.20384(18) 0.1165(5) 0.4273(2)
H21 H -0.240(2) 0.149(5) 0.390(3)
O1D O -0.00099(13) -0.0915(4) 0.57360(16)
C1D C -0.0010(3) -0.2644(8) 0.6410(3)
F1D F 0.0185(2) -0.3863(6) 0.6662(2)
F2D F 0.0162(2) -0.1737(6) 0.6893(2)
F3D F -0.05300(17) -0.2723(6) 0.6136(2)
C2D C 0.01288(19) -0.2147(7) 0.5917(2)
C3D C 0.0380(2) -0.3079(8) 0.5722(3)
H1D H 0.048(2) -0.388(7) 0.587(3)
C4D C 0.0483(2) -0.2722(6) 0.5241(3)
C5D C 0.0744(3) -0.3834(8) 0.5036(5)
F4D F 0.07346(18) -0.5107(4) 0.5221(2)
F5D F 0.0414(3) -0.4023(6) 0.4364(3)
F6D F 0.1143(2) -0.3472(5) 0.5063(4)
O2D O 0.03919(13) -0.1607(4) 0.49454(17)
O5D O 0.23606(15) -0.0618(5) 0.70695(17)
N1D N 0.19199(17) 0.0022(4) 0.68309(18)
C11D C 0.1697(2) 0.0496(6) 0.7228(2)
C12D C 0.2131(3) 0.1165(8) 0.7848(3)
H3D H 0.232(2) 0.198(6) 0.777(2)
H4D H 0.237(3) 0.054(7) 0.809(3)
H5D H 0.195(3) 0.155(7) 0.806(3)
C13D C 0.1478(3) -0.0812(7) 0.7370(3)
H6D H 0.179(2) -0.157(6) 0.757(3)
H7D H 0.118(3) -0.124(7) 0.694(3)
H8D H 0.134(3) -0.046(7) 0.760(3)
C14D C 0.1266(2) 0.1541(6) 0.6754(2)
C15D C 0.0756(3) 0.1583(8) 0.6776(3)
H9D H 0.058(2) 0.067(7) 0.671(3)
H10D H 0.047(3) 0.213(8) 0.649(4)
H11D H 0.0850(19) 0.198(5) 0.716(3)
C16D C 0.1470(3) 0.3020(7) 0.6775(3)
H12D H 0.183(3) 0.307(8) 0.672(4)
H13D H 0.153(2) 0.345(6) 0.713(3)
H14D H 0.123(2) 0.341(6) 0.647(3)
N2D N 0.11532(15) 0.0920(4) 0.61273(17)
O6D O 0.07444(13) 0.1295(4) 0.55811(15)
C17D C 0.15645(18) 0.0182(5) 0.6194(2)
C18D C 0.16350(18) -0.0312(5) 0.5688(2)
C19D C 0.13196(19) 0.0028(5) 0.5042(2)
H15D H 0.104(2) 0.058(6) 0.484(3)
N3D N 0.15342(14) -0.0586(4) 0.47366(17)
C20D C 0.1332(2) -0.0487(7) 0.4045(2)
H16D H 0.130(2) 0.052(7) 0.392(3)
H17D H 0.161(2) -0.096(6) 0.396(2)
C21D C 0.0798(2) -0.1182(10) 0.3652(3)
H18D H 0.0682 -0.1124 0.3205
H19D H 0.0824 -0.2153 0.3775
H20D H 0.0545 -0.0713 0.3726
N4D N 0.19782(15) -0.1336(4) 0.51528(17)
C22D C 0.20384(18) -0.1165(5) 0.5727(2)
H21D H 0.240(2) -0.149(5) 0.610(3)
O3E O -0.26089(12) 0.0842(3) 0.54055(14)
C6E C -0.2756(2) -0.1465(6) 0.5592(3)
F7E F -0.28667(18) -0.2729(4) 0.53174(18)
F8E F -0.3013(2) -0.1276(5) 0.5885(2)
F9E F -0.22503(16) -0.1549(4) 0.60472(17)
C7E C -0.28539(19) -0.0265(5) 0.5130(2)
C8E C -0.3189(2) -0.0523(7) 0.4481(3)
H2E H -0.3276(19) -0.132(6) 0.441(2)
C9E C -0.33060(19) 0.0426(6) 0.3998(2)
C10E C -0.3678(3) -0.0112(8) 0.3305(3)
F10E F -0.3858(2) -0.1351(5) 0.32425(19)
F11E F -0.4010(3) 0.0760(7) 0.2946(3)
F12E F -0.3393(3) -0.0266(8) 0.3023(3)
O4E O -0.31524(13) 0.1650(4) 0.40411(16)
N4E N -0.30218(15) 0.3664(4) 0.51528(17)
Cu2A Cu 0.2500 -0.2500 0.5000
loop_
_geom_bond_atom_site_label_1
_geom_bond_atom_site_label_2
_geom_bond_site_symmetry_1
_geom_bond_site_symmetry_2
Cu1 O1 1_555 1_555
O1 C2 1_555 1_555
C1 F1 1_555 1_555
F2 C1 1_555 1_555
F3 C1 1_555 1_555
C2 C1 1_555 1_555
C3 C2 1_555 1_555
H1 C3 1_555 1_555
C4 C3 1_555 1_555
C5 C4 1_555 1_555
F4 C5 1_555 1_555
F5 C5 1_555 1_555
F6 C5 1_555 1_555
O2 Cu1 1_555 1_555
Cu2 O3 1_555 1_555
O3 C7 1_555 1_555
C6 F7 1_555 1_555
F8 C6 1_555 1_555
F9 C6 1_555 1_555
C7 C6 1_555 1_555
C8 C7 1_555 1_555
H2 C8 1_555 1_555
C9 C8 1_555 1_555
C10 C9 1_555 1_555
F10 C10 1_555 1_555
F11 C10 1_555 1_555
F12 C10 1_555 1_555
O4 Cu2 1_555 1_555
O5 N1 1_555 1_555
N1 C11 1_555 1_555
C11 C12 1_555 1_555
C12 H3 1_555 1_555
H4 C12 1_555 1_555
H5 C12 1_555 1_555
C13 C11 1_555 1_555
H6 C13 1_555 1_555
H7 C13 1_555 1_555
H8 C13 1_555 1_555
C14 C11 1_555 1_555
C15 C14 1_555 1_555
H9 C15 1_555 1_555
H10 C15 1_555 1_555
H11 C15 1_555 1_555
C16 C14 1_555 1_555
H12 C16 1_555 1_555
H13 C16 1_555 1_555
H14 C16 1_555 1_555
N2 C14 1_555 1_555
O6 Cu1 1_555 1_555
C17 N1 1_555 1_555
C18 C17 1_555 1_555
C19 C18 1_555 1_555
H15 C19 1_555 1_555
N3 C19 1_555 1_555
C20 N3 1_555 1_555
H16 C20 1_555 1_555
H17 C20 1_555 1_555
C21 C20 1_555 1_555
H18 C21 1_555 1_555
H19 C21 1_555 1_555
H20 C21 1_555 1_555
N4 Cu2 1_555 1_555
C22 C18 1_555 1_555
H21 C22 1_555 1_555
O1D Cu1 1_555 1_555
C1D F1D 1_555 1_555
F2D C1D 1_555 1_555
F3D C1D 1_555 1_555
C2D O1D 1_555 1_555
C3D C2D 1_555 1_555
H1D C3D 1_555 1_555
C4D C3D 1_555 1_555
C5D C4D 1_555 1_555
F4D C5D 1_555 1_555
F5D C5D 1_555 1_555
F6D C5D 1_555 1_555
O2D Cu1 1_555 1_555
O5D N1D 1_555 1_555
N1D C11D 1_555 1_555
C11D C12D 1_555 1_555
C12D H3D 1_555 1_555
H4D C12D 1_555 1_555
H5D C12D 1_555 1_555
C13D C11D 1_555 1_555
H6D C13D 1_555 1_555
H7D C13D 1_555 1_555
H8D C13D 1_555 1_555
C14D C11D 1_555 1_555
C15D C14D 1_555 1_555
H9D C15D 1_555 1_555
H10D C15D 1_555 1_555
H11D C15D 1_555 1_555
C16D C14D 1_555 1_555
H12D C16D 1_555 1_555
H13D C16D 1_555 1_555
H14D C16D 1_555 1_555
N2D C14D 1_555 1_555
O6D Cu1 1_555 1_555
C17D N1D 1_555 1_555
C18D C17D 1_555 1_555
C19D C18D 1_555 1_555
H15D C19D 1_555 1_555
N3D C19D 1_555 1_555
C20D N3D 1_555 1_555
H16D C20D 1_555 1_555
H17D C20D 1_555 1_555
C21D C20D 1_555 1_555
H18D C21D 1_555 1_555
H19D C21D 1_555 1_555
H20D C21D 1_555 1_555
N4D N3D 1_555 1_555
C22D C18D 1_555 1_555
H21D C22D 1_555 1_555
O3E Cu2 1_555 1_555
C6E F7E 1_555 1_555
F8E C6E 1_555 1_555
F9E C6E 1_555 1_555
C7E O3E 1_555 1_555
C8E C7E 1_555 1_555
H2E C8E 1_555 1_555
C9E C8E 1_555 1_555
C10E C9E 1_555 1_555
F10E C10E 1_555 1_555
F11E C10E 1_555 1_555
F12E C10E 1_555 1_555
O4E Cu2 1_555 1_555
N4E Cu2 1_555 1_555
Cu2A N4D 1_555 1_555
C4 O2 1_555 1_555
C9 O4 1_555 1_555
N2 O6 1_555 1_555
N2 C17 1_555 1_555
N3 N4 1_555 1_555
N4 C22 1_555 1_555
C1D C2D 1_555 1_555
C4D O2D 1_555 1_555
N2D C17D 1_555 1_555
N2D O6D 1_555 1_555
N4D C22D 1_555 1_555
C6E C7E 1_555 1_555
C9E O4E 1_555 1_555

#END
