
#######################################################################
#
#                 Cambridge Crystallographic Data Centre
#                                CCDC 
#
#######################################################################
#
# If this CIF has been generated from an entry in the Cambridge 
# Structural Database, then it will include bibliographic, chemical, 
# crystal, experimental, refinement or atomic coordinate data resulting 
# from the CCDC's data processing and validation procedures.
#
#######################################################################

data_LUPPIV03
_symmetry_cell_setting           monoclinic
_symmetry_space_group_name_H-M   'P 21/c'
_symmetry_Int_Tables_number      14
_space_group_name_Hall           '-P 2ybc'
loop_
_symmetry_equiv_pos_site_id
_symmetry_equiv_pos_as_xyz
1 x,y,z
2 -x,1/2+y,1/2-z
3 -x,-y,-z
4 x,1/2-y,1/2+z
_cell_length_a                   30.032(6)
_cell_length_b                   9.6811(19)
_cell_length_c                   25.641(5)
_cell_angle_alpha                90
_cell_angle_beta                 127.23(3)
_cell_angle_gamma                90
_cell_volume                     5935.72
loop_
_atom_site_label
_atom_site_type_symbol
_atom_site_fract_x
_atom_site_fract_y
_atom_site_fract_z
Cu1 Cu 0.248307(11) 0.25638(3) 0.001033(13)
O1 O 0.06508(7) 0.56592(18) 0.08644(8)
C1 C 0.12753(13) 0.7227(3) 0.16895(14)
F1 F 0.10977(13) 0.6926(4) 0.20244(11)
F2 F 0.14271(12) 0.8507(2) 0.18012(10)
F3 F 0.17277(11) 0.6519(4) 0.19522(13)
C2 C 0.08403(11) 0.6871(3) 0.09656(13)
C3 C 0.06964(12) 0.7892(3) 0.05063(14)
H1 H 0.0838(11) 0.870(3) 0.0630(13)
C4 C 0.03097(11) 0.7667(3) -0.01629(13)
C5 C 0.01763(12) 0.8876(3) -0.06235(13)
F4 F 0.04050(9) 0.8704(2) -0.09282(10)
F5 F 0.03448(8) 1.00903(17) -0.03168(9)
F6 F -0.03734(7) 0.89948(18) -0.10887(8)
O2 O 0.00458(7) 0.65792(18) -0.04559(8)
Cu2 Cu 0.5000 0.0000 0.0000
O3 O 0.20351(7) 0.40684(18) -0.00052(9)
C6 C 0.17101(13) 0.6255(3) -0.00117(15)
F7 F 0.20683(11) 0.6348(2) 0.06455(11)
F8 F 0.12432(10) 0.5847(2) -0.01449(16)
F9 F 0.16607(9) 0.75446(17) -0.02088(10)
C7 C 0.19378(11) 0.5254(3) -0.02608(13)
C8 C 0.20116(12) 0.5732(3) -0.07131(14)
H2 H 0.1929(12) 0.662(3) -0.0835(14)
C9 C 0.22203(11) 0.4904(3) -0.09682(13)
C10 C 0.23319(13) 0.5589(3) -0.14193(14)
F10 F 0.28810(8) 0.5701(2) -0.11111(10)
F11 F 0.21162(9) 0.6845(2) -0.16223(10)
F12 F 0.21310(10) 0.4829(2) -0.19518(9)
O4 O 0.23410(7) 0.36547(19) -0.08674(9)
O5 O 0.25891(7) 0.14913(19) 0.08696(9)
C11 C 0.26255(14) -0.0375(3) 0.14689(15)
F13 F 0.28087(9) -0.1663(2) 0.16514(10)
F14 F 0.20811(8) -0.0382(2) 0.12003(11)
F15 F 0.28811(11) 0.0379(2) 0.20165(10)
C12 C 0.27163(11) 0.0255(3) 0.09910(13)
C13 C 0.29291(12) -0.0607(3) 0.07454(14)
H3 H 0.2995(13) -0.148(4) 0.0868(15)
C14 C 0.30208(11) -0.0136(3) 0.03087(14)
C15 C 0.32802(13) -0.1155(3) 0.01017(15)
F16 F 0.31542(8) -0.24646(16) 0.01129(10)
F17 F 0.38327(8) -0.1065(2) 0.04968(13)
F18 F 0.31204(12) -0.0905(2) -0.04943(12)
O6 O 0.29372(7) 0.10423(19) 0.00561(9)
Cu3 Cu 0.0000 0.5000 0.0000
O7 O 0.55919(7) 0.06409(17) 0.08894(8)
C16 C 0.63237(12) 0.1946(3) 0.17560(13)
F19 F 0.59510(7) 0.41090(17) -0.02901(8)
F20 F 0.51981(7) 0.47979(17) -0.04497(9)
F21 F 0.51541(8) 0.33871(18) -0.11248(8)
C17 C 0.58928(10) 0.1693(3) 0.10201(12)
C18 C 0.58691(12) 0.2615(3) 0.05924(13)
H4 H 0.6104(13) 0.331(3) 0.0749(15)
C19 C 0.54699(11) 0.2497(3) -0.00855(13)
C20 C 0.54422(11) 0.3698(3) -0.04970(13)
F22 F 0.66461(7) 0.08296(18) 0.20578(8)
F23 F 0.66685(8) 0.29847(19) 0.19030(8)
F24 F 0.60738(8) 0.2187(3) 0.20304(9)
O8 O 0.51178(7) 0.15611(18) -0.04031(8)
O9 O 0.31398(7) 0.38799(18) 0.04750(8)
N1 N 0.36246(9) 0.3622(2) 0.10352(10)
C21 C 0.37859(11) 0.4255(3) 0.16661(12)
C22 C 0.39209(14) 0.5772(3) 0.16449(16)
H5 H 0.3613(14) 0.617(3) 0.1258(17)
H6 H 0.4243(12) 0.590(3) 0.1624(13)
H7 H 0.4017(12) 0.619(3) 0.2010(15)
C23 C 0.33083(13) 0.4149(4) 0.17169(15)
H8 H 0.3006(14) 0.469(4) 0.1389(17)
H9 H 0.3430(12) 0.452(3) 0.2126(16)
H10 H 0.3175(11) 0.326(3) 0.1662(13)
C24 C 0.43104(11) 0.3362(3) 0.21664(12)
C25 C 0.47715(13) 0.4103(3) 0.27891(14)
H11 H 0.5117(15) 0.350(4) 0.3059(17)
H12 H 0.4659(12) 0.429(3) 0.3054(15)
H13 H 0.4874(12) 0.493(3) 0.2685(14)
C26 C 0.41659(14) 0.1978(3) 0.23209(15)
H14 H 0.4482(13) 0.142(3) 0.2551(15)
H15 H 0.3885(14) 0.158(3) 0.1912(17)
H16 H 0.4067(13) 0.213(4) 0.2597(17)
N2 N 0.44978(9) 0.3017(2) 0.17538(10)
O10 O 0.49868(8) 0.2573(2) 0.19965(9)
C27 C 0.40641(10) 0.3058(3) 0.11031(12)
C28 C 0.40802(11) 0.2564(3) 0.05854(13)
C29 C 0.45020(12) 0.1785(3) 0.06359(13)
H17 H 0.4848(11) 0.150(3) 0.1018(13)
N3 N 0.43534(9) 0.1428(2) 0.00510(10)
N4 N 0.38306(9) 0.1982(2) -0.03849(10)
C30 C 0.34990(12) 0.1715(3) -0.10907(13)
H18 H 0.3140(12) 0.209(3) -0.1270(13)
H19 H 0.3448(11) 0.074(3) -0.1159(13)
C31 C 0.37400(12) 0.2356(3) -0.14110(14)
H20 H 0.3483(12) 0.209(3) -0.1869(15)
H21 H 0.4090(12) 0.194(3) -0.1245(13)
C32 C 0.38025(15) 0.3909(3) -0.13291(17)
H22 H 0.3933(12) 0.431(3) -0.1541(14)
H23 H 0.4040(14) 0.413(3) -0.0888(18)
H24 H 0.3446(14) 0.433(3) -0.1518(15)
C33 C 0.36610(12) 0.2664(3) -0.00803(13)
H25 H 0.3332(12) 0.307(3) -0.0310(13)
O11 O 0.18310(7) 0.12389(18) -0.05007(8)
N5 N 0.13671(9) 0.1527(2) -0.10797(10)
C34 C 0.12345(12) 0.0876(3) -0.16927(13)
C35 C 0.10778(14) -0.0624(3) -0.16828(16)
H26 H 0.1384(14) -0.100(3) -0.1298(16)
H27 H 0.0985(12) -0.110(3) -0.2045(15)
H28 H 0.0742(14) -0.072(3) -0.1685(15)
C36 C 0.17322(14) 0.0930(4) -0.17041(16)
H29 H 0.2031(15) 0.046(4) -0.1360(17)
H30 H 0.1855(12) 0.180(4) -0.1687(14)
H31 H 0.1627(13) 0.053(3) -0.2110(16)
C37 C 0.07224(12) 0.1786(3) -0.22173(13)
C38 C 0.02760(15) 0.1051(4) -0.28480(15)
H32 H -0.0026(14) 0.165(4) -0.3115(16)
H33 H 0.0136(13) 0.023(4) -0.2768(15)
H34 H 0.0428(15) 0.080(4) -0.3074(18)
C39 C 0.08864(15) 0.3153(3) -0.23578(16)
H35 H 0.0554(13) 0.375(3) -0.2617(15)
H36 H 0.1010(13) 0.300(3) -0.2596(16)
H37 H 0.1164(15) 0.359(4) -0.1973(18)
N6 N 0.05053(9) 0.2164(2) -0.18386(10)
O12 O 0.00136(8) 0.2626(2) -0.21109(9)
C40 C 0.09138(11) 0.2098(3) -0.11813(12)
C41 C 0.08637(11) 0.2528(3) -0.06833(13)
C42 C 0.04358(11) 0.3311(3) -0.07458(13)
H38 H 0.0113(12) 0.365(3) -0.1116(14)
N7 N 0.05380(9) 0.3491(2) -0.01694(10)
N8 N 0.10325(9) 0.2812(2) 0.02695(10)
C43 C 0.12910(12) 0.2750(3) 0.09745(13)
H39 H 0.1316(11) 0.178(3) 0.1093(13)
H40 H 0.1027(11) 0.316(3) 0.1006(11)
C44 C 0.18519(13) 0.3473(4) 0.13881(15)
H41 H 0.2071(12) 0.309(3) 0.1280(14)
H42 H 0.1809(13) 0.445(4) 0.1283(16)
C45 C 0.21292(17) 0.3283(5) 0.21128(16)
H43 H 0.2477(16) 0.376(4) 0.2384(19)
H44 H 0.2178(14) 0.227(4) 0.2224(16)
H45 H 0.1891(14) 0.358(3) 0.2214(16)
C46 C 0.12340(11) 0.2235(3) -0.00214(13)
H46 H 0.1549(11) 0.175(3) 0.0207(13)
Cu1B Cu 0.751693(11) -0.25638(3) -0.001033(13)
O1B O -0.06508(7) 0.43408(18) -0.08644(8)
C1B C -0.12753(13) 0.2773(3) -0.16895(14)
F1B F -0.10977(13) 0.3074(4) -0.20244(11)
F2B F -0.14271(12) 0.1493(2) -0.18012(10)
F3B F -0.17277(11) 0.3481(4) -0.19522(13)
C2B C -0.08403(11) 0.3129(3) -0.09656(13)
C3B C -0.06964(12) 0.2108(3) -0.05063(14)
H1B H -0.0838(11) 0.130(3) -0.0630(13)
C4B C -0.03097(11) 0.2333(3) 0.01629(13)
C5B C -0.01763(12) 0.1124(3) 0.06235(13)
F4B F -0.04050(9) 0.1296(2) 0.09282(10)
F5B F -0.03448(8) -0.00903(17) 0.03168(9)
F6B F 0.03734(7) 0.10052(18) 0.10887(8)
O2B O -0.00458(7) 0.34208(18) 0.04559(8)
O3B O 0.79649(7) -0.40684(18) 0.00052(9)
C6B C 0.82899(13) -0.6255(3) 0.00117(15)
F7B F 0.79317(11) -0.6348(2) -0.06455(11)
F8B F 0.87568(10) -0.5847(2) 0.01449(16)
F9B F 0.83393(9) -0.75446(17) 0.02088(10)
C7B C 0.80622(11) -0.5254(3) 0.02608(13)
C8B C 0.79884(12) -0.5732(3) 0.07131(14)
H2B H 0.8071(12) -0.662(3) 0.0835(14)
C9B C 0.77797(11) -0.4904(3) 0.09682(13)
C10B C 0.76681(13) -0.5589(3) 0.14193(14)
F10B F 0.71190(8) -0.5701(2) 0.11111(10)
F11B F 0.78838(9) -0.6845(2) 0.16223(10)
F12B F 0.78690(10) -0.4829(2) 0.19518(9)
O4B O 0.76590(7) -0.36547(19) 0.08674(9)
O5B O 0.74109(7) -0.14913(19) -0.08696(9)
C11B C 0.73745(14) 0.0375(3) -0.14689(15)
F13B F 0.71913(9) 0.1663(2) -0.16514(10)
F14B F 0.79189(8) 0.0382(2) -0.12003(11)
F15B F 0.71189(11) -0.0379(2) -0.20165(10)
C12B C 0.72837(11) -0.0255(3) -0.09910(13)
C13B C 0.70709(12) 0.0607(3) -0.07454(14)
H3B H 0.7005(13) 0.148(4) -0.0868(15)
C14B C 0.69792(11) 0.0136(3) -0.03087(14)
C15B C 0.67198(13) 0.1155(3) -0.01017(15)
F16B F 0.68458(8) 0.24646(16) -0.01129(10)
F17B F 0.61673(8) 0.1065(2) -0.04968(13)
F18B F 0.68796(12) 0.0905(2) 0.04943(12)
O6B O 0.70628(7) -0.10423(19) -0.00561(9)
Cu3_2 Cu 1.0000 -0.5000 0.0000
O7B O 0.44081(7) -0.06409(17) -0.08894(8)
C16B C 0.36763(12) -0.1946(3) -0.17560(13)
F19B F 0.40490(7) -0.41090(17) 0.02901(8)
F20B F 0.48019(7) -0.47979(17) 0.04497(9)
F21B F 0.48459(8) -0.33871(18) 0.11248(8)
C17B C 0.41072(10) -0.1693(3) -0.10201(12)
C18B C 0.41309(12) -0.2615(3) -0.05924(13)
H4B H 0.3896(13) -0.331(3) -0.0749(15)
C19B C 0.45301(11) -0.2497(3) 0.00855(13)
C20B C 0.45578(11) -0.3698(3) 0.04970(13)
F22B F 0.33539(7) -0.08296(18) -0.20578(8)
F23B F 0.33315(8) -0.29847(19) -0.19030(8)
F24B F 0.39262(8) -0.2187(3) -0.20304(9)
O8B O 0.48822(7) -0.15611(18) 0.04031(8)
O9B O 0.68602(7) -0.38799(18) -0.04750(8)
N1B N 0.63754(9) -0.3622(2) -0.10352(10)
C21B C 0.62141(11) -0.4255(3) -0.16661(12)
C22B C 0.60791(14) -0.5772(3) -0.16449(16)
H5B H 0.6387(14) -0.617(3) -0.1258(17)
H6B H 0.5757(12) -0.590(3) -0.1624(13)
H7B H 0.5983(12) -0.619(3) -0.2010(15)
C23B C 0.66917(13) -0.4149(4) -0.17169(15)
H8B H 0.6994(14) -0.469(4) -0.1389(17)
H9B H 0.6570(12) -0.452(3) -0.2126(16)
H10B H 0.6825(11) -0.326(3) -0.1662(13)
C24B C 0.56896(11) -0.3362(3) -0.21664(12)
C25B C 0.52285(13) -0.4103(3) -0.27891(14)
H11B H 0.4883(15) -0.350(4) -0.3059(17)
H12B H 0.5341(12) -0.429(3) -0.3054(15)
H13B H 0.5126(12) -0.493(3) -0.2685(14)
C26B C 0.58341(14) -0.1978(3) -0.23209(15)
H14B H 0.5518(13) -0.142(3) -0.2551(15)
H15B H 0.6115(14) -0.158(3) -0.1912(17)
H16B H 0.5933(13) -0.213(4) -0.2597(17)
N2B N 0.55022(9) -0.3017(2) -0.17538(10)
O10B O 0.50132(8) -0.2573(2) -0.19965(9)
C27B C 0.59359(10) -0.3058(3) -0.11031(12)
C28B C 0.59198(11) -0.2564(3) -0.05854(13)
C29B C 0.54980(12) -0.1785(3) -0.06359(13)
H17B H 0.5152(11) -0.150(3) -0.1018(13)
N3B N 0.56466(9) -0.1428(2) -0.00510(10)
N4B N 0.61694(9) -0.1982(2) 0.03849(10)
C30B C 0.65010(12) -0.1715(3) 0.10907(13)
H18B H 0.6860(12) -0.209(3) 0.1270(13)
H19B H 0.6552(11) -0.074(3) 0.1159(13)
C31B C 0.62600(12) -0.2356(3) 0.14110(14)
H20B H 0.6517(12) -0.209(3) 0.1869(15)
H21B H 0.5910(12) -0.194(3) 0.1245(13)
C32B C 0.61975(15) -0.3909(3) 0.13291(17)
H22B H 0.6067(12) -0.431(3) 0.1541(14)
H23B H 0.5960(14) -0.413(3) 0.0888(18)
H24B H 0.6554(14) -0.433(3) 0.1518(15)
C33B C 0.63390(12) -0.2664(3) 0.00803(13)
H25B H 0.6668(12) -0.307(3) 0.0310(13)
O11B O 0.81690(7) -0.12389(18) 0.05007(8)
N5B N 0.86329(9) -0.1527(2) 0.10797(10)
C34B C 0.87655(12) -0.0876(3) 0.16927(13)
C35B C 0.89222(14) 0.0624(3) 0.16828(16)
H26B H 0.8616(14) 0.100(3) 0.1298(16)
H27B H 0.9015(12) 0.110(3) 0.2045(15)
H28B H 0.9258(14) 0.072(3) 0.1685(15)
C36B C 0.82678(14) -0.0930(4) 0.17041(16)
H29B H 0.7969(15) -0.046(4) 0.1360(17)
H30B H 0.8145(12) -0.180(4) 0.1687(14)
H31B H 0.8373(13) -0.053(3) 0.2110(16)
C37B C 0.92776(12) -0.1786(3) 0.22173(13)
C38B C 0.97240(15) -0.1051(4) 0.28480(15)
H32B H 1.0026(14) -0.165(4) 0.3115(16)
H33B H 0.9864(13) -0.023(4) 0.2768(15)
H34B H 0.9572(15) -0.080(4) 0.3074(18)
C39B C 0.91136(15) -0.3153(3) 0.23578(16)
H35B H 0.9446(13) -0.375(3) 0.2617(15)
H36B H 0.8990(13) -0.300(3) 0.2596(16)
H37B H 0.8836(15) -0.359(4) 0.1973(18)
N6B N 0.94947(9) -0.2164(2) 0.18386(10)
O12B O 0.99864(8) -0.2626(2) 0.21109(9)
C40B C 0.90862(11) -0.2098(3) 0.11813(12)
C41B C 0.91363(11) -0.2528(3) 0.06833(13)
C42B C 0.95642(11) -0.3311(3) 0.07458(13)
H38B H 0.9887(12) -0.365(3) 0.1116(14)
N7B N 0.94620(9) -0.3491(2) 0.01694(10)
N7B_2 N -0.05380(9) 0.6509(2) 0.01694(10)
N8B N 0.89675(9) -0.2812(2) -0.02695(10)
C43B C 0.87090(12) -0.2750(3) -0.09745(13)
H39B H 0.8684(11) -0.178(3) -0.1093(13)
H40B H 0.8973(11) -0.316(3) -0.1006(11)
C44B C 0.81481(13) -0.3473(4) -0.13881(15)
H41B H 0.7929(12) -0.309(3) -0.1280(14)
H42B H 0.8191(13) -0.445(4) -0.1283(16)
C45B C 0.78708(17) -0.3283(5) -0.21128(16)
H43B H 0.7523(16) -0.376(4) -0.2384(19)
H44B H 0.7822(14) -0.227(4) -0.2224(16)
H45B H 0.8109(14) -0.358(3) -0.2214(16)
C46B C 0.87660(11) -0.2235(3) 0.00214(13)
H46B H 0.8451(11) -0.175(3) -0.0207(13)
loop_
_geom_bond_atom_site_label_1
_geom_bond_atom_site_label_2
_geom_bond_site_symmetry_1
_geom_bond_site_symmetry_2
Cu1 O3 1_555 1_555
O1 C2 1_555 1_555
C1 F1 1_555 1_555
F2 C1 1_555 1_555
F3 C1 1_555 1_555
C2 C1 1_555 1_555
C3 C2 1_555 1_555
H1 C3 1_555 1_555
C4 C3 1_555 1_555
C5 C4 1_555 1_555
F4 C5 1_555 1_555
F5 C5 1_555 1_555
F6 C5 1_555 1_555
O2 C4 1_555 1_555
Cu2 O7 1_555 1_555
O3 C7 1_555 1_555
C6 F7 1_555 1_555
F8 C6 1_555 1_555
F9 C6 1_555 1_555
C7 C6 1_555 1_555
C8 C7 1_555 1_555
H2 C8 1_555 1_555
C9 C8 1_555 1_555
C10 C9 1_555 1_555
F10 C10 1_555 1_555
F11 C10 1_555 1_555
F12 C10 1_555 1_555
O4 Cu1 1_555 1_555
O5 Cu1 1_555 1_555
C11 F13 1_555 1_555
F14 C11 1_555 1_555
F15 C11 1_555 1_555
C12 O5 1_555 1_555
C13 C12 1_555 1_555
H3 C13 1_555 1_555
C14 C13 1_555 1_555
C15 C14 1_555 1_555
F16 C15 1_555 1_555
F17 C15 1_555 1_555
F18 C15 1_555 1_555
O6 Cu1 1_555 1_555
Cu3 O1 1_555 1_555
O7 C17 1_555 1_555
C16 C17 1_555 1_555
F19 C20 1_555 1_555
F20 C20 1_555 1_555
F21 C20 1_555 1_555
C17 C18 1_555 1_555
C18 H4 1_555 1_555
C19 C18 1_555 1_555
C20 C19 1_555 1_555
F22 C16 1_555 1_555
F23 C16 1_555 1_555
F24 C16 1_555 1_555
O8 Cu2 1_555 1_555
O9 Cu1 1_555 1_555
N1 O9 1_555 1_555
C21 N1 1_555 1_555
C22 C21 1_555 1_555
H5 C22 1_555 1_555
H6 C22 1_555 1_555
H7 C22 1_555 1_555
C23 C21 1_555 1_555
H8 C23 1_555 1_555
H9 C23 1_555 1_555
H10 C23 1_555 1_555
C24 C21 1_555 1_555
C25 C24 1_555 1_555
H11 C25 1_555 1_555
H12 C25 1_555 1_555
H13 C25 1_555 1_555
C26 C24 1_555 1_555
H14 C26 1_555 1_555
H15 C26 1_555 1_555
H16 C26 1_555 1_555
N2 C24 1_555 1_555
O10 N2 1_555 1_555
C27 N1 1_555 1_555
C28 C27 1_555 1_555
C29 C28 1_555 1_555
H17 C29 1_555 1_555
N3 Cu2 1_555 1_555
N4 N3 1_555 1_555
C30 N4 1_555 1_555
H18 C30 1_555 1_555
H19 C30 1_555 1_555
C31 C30 1_555 1_555
H20 C31 1_555 1_555
H21 C31 1_555 1_555
C32 C31 1_555 1_555
H22 C32 1_555 1_555
H23 C32 1_555 1_555
H24 C32 1_555 1_555
C33 C28 1_555 1_555
H25 C33 1_555 1_555
O11 Cu1 1_555 1_555
N5 O11 1_555 1_555
C34 N5 1_555 1_555
C35 C34 1_555 1_555
H26 C35 1_555 1_555
H27 C35 1_555 1_555
H28 C35 1_555 1_555
C36 C34 1_555 1_555
H29 C36 1_555 1_555
H30 C36 1_555 1_555
H31 C36 1_555 1_555
C37 C34 1_555 1_555
C38 C37 1_555 1_555
H32 C38 1_555 1_555
H33 C38 1_555 1_555
H34 C38 1_555 1_555
C39 C37 1_555 1_555
H35 C39 1_555 1_555
H36 C39 1_555 1_555
H37 C39 1_555 1_555
N6 C37 1_555 1_555
O12 N6 1_555 1_555
C40 N5 1_555 1_555
C41 C40 1_555 1_555
C42 C41 1_555 1_555
H38 C42 1_555 1_555
N7 Cu3 1_555 1_555
N8 N7 1_555 1_555
C43 N8 1_555 1_555
H39 C43 1_555 1_555
H40 C43 1_555 1_555
C44 C43 1_555 1_555
H41 C44 1_555 1_555
H42 C44 1_555 1_555
C45 C44 1_555 1_555
H43 C45 1_555 1_555
H44 C45 1_555 1_555
H45 C45 1_555 1_555
C46 C41 1_555 1_555
H46 C46 1_555 1_555
Cu1B O3B 1_555 1_555
O1B Cu3 1_555 1_555
C1B F1B 1_555 1_555
F2B C1B 1_555 1_555
F3B C1B 1_555 1_555
C2B O1B 1_555 1_555
C3B C2B 1_555 1_555
H1B C3B 1_555 1_555
C4B C3B 1_555 1_555
C5B C4B 1_555 1_555
F4B C5B 1_555 1_555
F5B C5B 1_555 1_555
F6B C5B 1_555 1_555
O2B Cu3 1_555 1_555
O3B C7B 1_555 1_555
C6B F7B 1_555 1_555
F8B C6B 1_555 1_555
F9B C6B 1_555 1_555
C7B C6B 1_555 1_555
C8B C7B 1_555 1_555
H2B C8B 1_555 1_555
C9B C8B 1_555 1_555
C10B C9B 1_555 1_555
F10B C10B 1_555 1_555
F11B C10B 1_555 1_555
F12B C10B 1_555 1_555
O4B Cu1B 1_555 1_555
O5B Cu1B 1_555 1_555
C11B F13B 1_555 1_555
F14B C11B 1_555 1_555
F15B C11B 1_555 1_555
C12B O5B 1_555 1_555
C13B C12B 1_555 1_555
H3B C13B 1_555 1_555
C14B C13B 1_555 1_555
C15B C14B 1_555 1_555
F16B C15B 1_555 1_555
F17B C15B 1_555 1_555
F18B C15B 1_555 1_555
O6B Cu1B 1_555 1_555
Cu3_2 N7B 1_555 1_555
O7B Cu2 1_555 1_555
C16B C17B 1_555 1_555
F19B C20B 1_555 1_555
F20B C20B 1_555 1_555
F21B C20B 1_555 1_555
C17B O7B 1_555 1_555
C18B C17B 1_555 1_555
H4B C18B 1_555 1_555
C19B C18B 1_555 1_555
C20B C19B 1_555 1_555
F22B C16B 1_555 1_555
F23B C16B 1_555 1_555
F24B C16B 1_555 1_555
O8B Cu2 1_555 1_555
O9B Cu1B 1_555 1_555
N1B O9B 1_555 1_555
C21B N1B 1_555 1_555
C22B C21B 1_555 1_555
H5B C22B 1_555 1_555
H6B C22B 1_555 1_555
H7B C22B 1_555 1_555
C23B C21B 1_555 1_555
H8B C23B 1_555 1_555
H9B C23B 1_555 1_555
H10B C23B 1_555 1_555
C24B C21B 1_555 1_555
C25B C24B 1_555 1_555
H11B C25B 1_555 1_555
H12B C25B 1_555 1_555
H13B C25B 1_555 1_555
C26B C24B 1_555 1_555
H14B C26B 1_555 1_555
H15B C26B 1_555 1_555
H16B C26B 1_555 1_555
N2B C24B 1_555 1_555
O10B N2B 1_555 1_555
C27B N1B 1_555 1_555
C28B C27B 1_555 1_555
C29B C28B 1_555 1_555
H17B C29B 1_555 1_555
N3B Cu2 1_555 1_555
N4B N3B 1_555 1_555
C30B N4B 1_555 1_555
H18B C30B 1_555 1_555
H19B C30B 1_555 1_555
C31B C30B 1_555 1_555
H20B C31B 1_555 1_555
H21B C31B 1_555 1_555
C32B C31B 1_555 1_555
H22B C32B 1_555 1_555
H23B C32B 1_555 1_555
H24B C32B 1_555 1_555
C33B C28B 1_555 1_555
H25B C33B 1_555 1_555
O11B Cu1B 1_555 1_555
N5B O11B 1_555 1_555
C34B N5B 1_555 1_555
C35B C34B 1_555 1_555
H26B C35B 1_555 1_555
H27B C35B 1_555 1_555
H28B C35B 1_555 1_555
C36B C34B 1_555 1_555
H29B C36B 1_555 1_555
H30B C36B 1_555 1_555
H31B C36B 1_555 1_555
C37B C34B 1_555 1_555
C38B C37B 1_555 1_555
H32B C38B 1_555 1_555
H33B C38B 1_555 1_555
H34B C38B 1_555 1_555
C39B C37B 1_555 1_555
H35B C39B 1_555 1_555
H36B C39B 1_555 1_555
H37B C39B 1_555 1_555
N6B C37B 1_555 1_555
O12B N6B 1_555 1_555
C40B N5B 1_555 1_555
C41B C40B 1_555 1_555
C42B C41B 1_555 1_555
H38B C42B 1_555 1_555
N7B C42B 1_555 1_555
N7B_2 Cu3 1_555 1_555
N8B N7B 1_555 1_555
C43B N8B 1_555 1_555
H39B C43B 1_555 1_555
H40B C43B 1_555 1_555
C44B C43B 1_555 1_555
H41B C44B 1_555 1_555
H42B C44B 1_555 1_555
C45B C44B 1_555 1_555
H43B C45B 1_555 1_555
H44B C45B 1_555 1_555
H45B C45B 1_555 1_555
C46B C41B 1_555 1_555
H46B C46B 1_555 1_555
O2 Cu3 1_555 1_555
C9 O4 1_555 1_555
C11 C12 1_555 1_555
C14 O6 1_555 1_555
C19 O8 1_555 1_555
N2 C27 1_555 1_555
C29 N3 1_555 1_555
N4 C33 1_555 1_555
N6 C40 1_555 1_555
C42 N7 1_555 1_555
N8 C46 1_555 1_555
C1B C2B 1_555 1_555
C4B O2B 1_555 1_555
C9B O4B 1_555 1_555
C11B C12B 1_555 1_555
C14B O6B 1_555 1_555
C19B O8B 1_555 1_555
N2B C27B 1_555 1_555
C29B N3B 1_555 1_555
N4B C33B 1_555 1_555
N6B C40B 1_555 1_555
N8B C46B 1_555 1_555

#END
