
#######################################################################
#
#                 Cambridge Crystallographic Data Centre
#                                CCDC 
#
#######################################################################
#
# If this CIF has been generated from an entry in the Cambridge 
# Structural Database, then it will include bibliographic, chemical, 
# crystal, experimental, refinement or atomic coordinate data resulting 
# from the CCDC's data processing and validation procedures.
#
#######################################################################

data_LUPPIV02
_symmetry_cell_setting           monoclinic
_symmetry_space_group_name_H-M   'P 21/c'
_symmetry_Int_Tables_number      14
_space_group_name_Hall           '-P 2ybc'
loop_
_symmetry_equiv_pos_site_id
_symmetry_equiv_pos_as_xyz
1 x,y,z
2 -x,1/2+y,1/2-z
3 -x,-y,-z
4 x,1/2-y,1/2+z
_cell_length_a                   30.329(5)
_cell_length_b                   9.680(1)
_cell_length_c                   25.720(3)
_cell_angle_alpha                90
_cell_angle_beta                 126.51(1)
_cell_angle_gamma                90
_cell_volume                     6069.14
loop_
_atom_site_label
_atom_site_type_symbol
_atom_site_fract_x
_atom_site_fract_y
_atom_site_fract_z
Cu1 Cu 0.0000 0.0000 0.0000
O1 O -0.05774(15) 0.0643(4) -0.08695(17)
C1 C -0.1285(3) 0.1988(8) -0.1725(3)
F1 F -0.1619(2) 0.2983(6) -0.1863(2)
F2 F -0.1604(2) 0.0880(5) -0.2013(2)
F3 F -0.1049(2) 0.2160(8) -0.2000(2)
C2 C -0.0863(3) 0.1707(6) -0.0996(3)
C3 C -0.0830(3) 0.2633(8) -0.0570(3)
H1 H -0.104(2) 0.322(7) -0.071(3)
C4 C -0.0452(3) 0.2494(7) 0.0091(3)
C5 C -0.0421(3) 0.3687(8) 0.0507(3)
F4 F -0.09188(18) 0.4121(5) 0.0298(2)
F5 F -0.0172(3) 0.3363(5) 0.1106(2)
F6 F -0.0185(2) 0.4783(5) 0.0464(3)
O2 O -0.01097(15) 0.1558(4) 0.04024(18)
Cu2 Cu 0.25182(3) 0.25361(8) -0.00126(3)
O3 O 0.24200(17) 0.1525(5) -0.0811(2)
C6 C 0.2350(4) -0.0294(11) -0.1448(4)
F7 F 0.2109(3) 0.0523(7) -0.1969(3)
F8 F 0.2151(3) -0.1536(6) -0.1655(3)
F9 F 0.2870(2) -0.0333(7) -0.1210(3)
C7 C 0.2275(3) 0.0302(9) -0.0954(3)
C8 C 0.2063(3) -0.0549(9) -0.0724(4)
H2 H 0.196(2) -0.141(6) -0.090(3)
C9 C 0.1991(2) -0.0131(8) -0.0266(3)
C10 C 0.1743(3) -0.1145(8) -0.0052(4)
F10 F 0.1920(4) -0.0969(7) 0.0537(4)
F11 F 0.1219(3) -0.1001(6) -0.0398(4)
F12 F 0.1834(2) -0.2439(5) -0.0108(3)
O4 O 0.21035(17) 0.1021(5) 0.0012(2)
O5 O 0.29307(16) 0.4050(5) -0.0050(2)
C11 C 0.3284(4) 0.6215(9) 0.0008(5)
F13 F 0.3711(3) 0.5861(6) 0.0104(5)
F14 F 0.2941(4) 0.6329(7) -0.0648(3)
F15 F 0.3287(2) 0.7500(5) 0.0155(3)
C12 C 0.3037(2) 0.5208(7) 0.0223(3)
C13 C 0.2974(3) 0.5639(8) 0.0685(3)
H3 H 0.309(2) 0.652(6) 0.084(3)
C14 C 0.2769(2) 0.4784(8) 0.0925(3)
C15 C 0.2684(4) 0.5402(10) 0.1409(4)
F16 F 0.2870(3) 0.4586(7) 0.1903(3)
F17 F 0.2899(3) 0.6616(7) 0.1623(3)
F18 F 0.2155(2) 0.5569(7) 0.1128(3)
O6 O 0.26341(17) 0.3553(5) 0.0790(2)
Cu3 Cu 0.5000 0.5000 0.0000
O7 O 0.43756(15) 0.5688(5) -0.08567(18)
C16 C 0.3765(3) 0.7235(10) -0.1656(4)
F19 F 0.3597(3) 0.8467(7) -0.1772(2)
F20 F 0.3922(3) 0.6968(11) -0.1992(3)
F21 F 0.3337(3) 0.6574(11) -0.1920(4)
C17 C 0.4187(2) 0.6884(7) -0.0942(3)
C18 C 0.4316(3) 0.7869(9) -0.0490(4)
H4 H 0.418(3) 0.853(7) -0.058(3)
C19 C 0.4685(3) 0.7633(7) 0.0165(3)
C20 C 0.4790(4) 0.8812(8) 0.0617(4)
F22 F 0.4601(3) 0.8656(6) 0.0926(3)
F23 F 0.5342(2) 0.8955(6) 0.1088(3)
F24 F 0.4679(2) 1.0042(5) 0.0352(2)
O8 O 0.49475(16) 0.6567(4) 0.04479(18)
O9 O 0.18211(17) 0.3887(4) -0.05110(19)
N1 N 0.1346(2) 0.3639(5) -0.1062(2)
C21 C 0.1192(3) 0.4269(7) -0.1682(3)
C22 C 0.1059(4) 0.5771(8) -0.1669(4)
H5 H 0.069(3) 0.593(7) -0.169(3)
H6 H 0.098(3) 0.619(7) -0.204(3)
H7 H 0.140(3) 0.595(8) -0.125(4)
C23 C 0.1679(3) 0.4128(10) -0.1726(4)
H8 H 0.174(2) 0.319(7) -0.171(3)
H9 H 0.202(4) 0.498(10) -0.144(4)
H10 H 0.159(3) 0.443(7) -0.208(3)
C24 C 0.0691(3) 0.3370(7) -0.2172(3)
C25 C 0.0232(4) 0.4113(10) -0.2782(4)
H11 H 0.013(3) 0.484(8) -0.270(3)
H12 H -0.002(3) 0.353(8) -0.310(4)
H13 H 0.038(4) 0.419(9) -0.308(5)
C26 C 0.0818(4) 0.2003(8) -0.2337(4)
H14 H 0.108(3) 0.152(7) -0.194(3)
H15 H 0.091(3) 0.216(8) -0.263(4)
H16 H 0.048(3) 0.153(8) -0.261(4)
N2 N 0.0497(2) 0.3032(6) -0.1764(2)
O10 O 0.00163(18) 0.2581(5) -0.2001(2)
C27 C 0.0916(2) 0.3059(6) -0.1123(3)
C28 C 0.0903(2) 0.2559(6) -0.0610(3)
C29 C 0.0490(3) 0.1792(7) -0.0654(3)
H17 H 0.016(2) 0.149(6) -0.101(3)
N3 N 0.0632(2) 0.1422(5) -0.0080(2)
N4 N 0.1143(2) 0.1979(5) 0.0346(2)
C30 C 0.1466(3) 0.1707(9) 0.1040(3)
H18 H 0.183(2) 0.190(6) 0.127(2)
H19 H 0.154(3) 0.078(8) 0.115(3)
C31 C 0.1260(3) 0.2335(9) 0.1392(3)
H20 H 0.160(4) 0.249(9) 0.196(4)
H21 H 0.087(4) 0.183(10) 0.129(5)
C32 C 0.1218(6) 0.3867(12) 0.1319(7)
H22 H 0.119(4) 0.412(10) 0.169(5)
H23 H 0.099(4) 0.405(10) 0.091(4)
H24 H 0.154(4) 0.425(10) 0.153(4)
C33 C 0.1312(3) 0.2652(7) 0.0040(3)
H25 H 0.162(2) 0.316(7) 0.027(3)
O11 O 0.32037(17) 0.1155(4) 0.05142(19)
N5 N 0.3657(2) 0.1444(6) 0.1076(2)
C34 C 0.3800(3) 0.0805(7) 0.1702(3)
C35 C 0.3948(4) -0.0681(8) 0.1692(4)
H26 H 0.423(3) -0.076(7) 0.164(3)
H27 H 0.360(4) -0.105(10) 0.119(5)
H28 H 0.406(3) -0.113(8) 0.204(4)
C36 C 0.3301(4) 0.0891(11) 0.1705(4)
H29 H 0.315(2) 0.181(7) 0.167(3)
H30 H 0.336(3) 0.055(8) 0.201(4)
H31 H 0.294(5) 0.030(12) 0.140(5)
C37 C 0.4290(3) 0.1744(7) 0.2193(3)
C38 C 0.4117(4) 0.3087(10) 0.2324(4)
H32 H 0.383(3) 0.367(7) 0.191(3)
H33 H 0.439(2) 0.367(6) 0.255(3)
H34 H 0.403(3) 0.311(7) 0.263(3)
C39 C 0.4736(4) 0.1024(11) 0.2822(4)
H35 H 0.485(2) 0.027(7) 0.275(3)
H36 H 0.459(3) 0.080(9) 0.307(4)
H37 H 0.503(3) 0.163(7) 0.309(3)
N6 N 0.4499(2) 0.2118(6) 0.1813(2)
O12 O 0.4975(2) 0.2616(5) 0.2066(2)
C40 C 0.4091(3) 0.2040(7) 0.1164(3)
C41 C 0.4137(2) 0.2514(6) 0.0666(3)
C42 C 0.4541(3) 0.3338(8) 0.0716(4)
H38 H 0.477(3) 0.360(8) 0.102(3)
N7 N 0.44412(19) 0.3539(5) 0.0148(2)
N8 N 0.39657(19) 0.2843(6) -0.0271(2)
C43 C 0.3716(3) 0.2777(10) -0.0974(3)
H39 H 0.399(3) 0.314(7) -0.102(3)
H40 H 0.369(3) 0.161(8) -0.115(3)
C44 C 0.3178(4) 0.3474(13) -0.1372(4)
H41 H 0.331(4) 0.459(10) -0.117(4)
H42 H 0.293(3) 0.318(9) -0.130(4)
C45 C 0.2893(5) 0.3295(18) -0.2100(5)
H43 H 0.253(4) 0.396(12) -0.241(4)
H44 H 0.295(3) 0.230(8) -0.214(3)
H45 H 0.322(4) 0.372(11) -0.213(5)
C46 C 0.3771(3) 0.2235(7) 0.0013(3)
H46 H 0.349(2) 0.172(6) -0.018(3)
O1B O 0.05774(15) -0.0643(4) 0.08695(17)
C1B C 0.1285(3) -0.1988(8) 0.1725(3)
F1B F 0.1619(2) -0.2983(6) 0.1863(2)
F2B F 0.1604(2) -0.0880(5) 0.2013(2)
F3B F 0.1049(2) -0.2160(8) 0.2000(2)
C2B C 0.0863(3) -0.1707(6) 0.0996(3)
C3B C 0.0830(3) -0.2633(8) 0.0570(3)
H1B H 0.104(2) -0.322(7) 0.071(3)
C4B C 0.0452(3) -0.2494(7) -0.0091(3)
C5B C 0.0421(3) -0.3687(8) -0.0507(3)
F4B F 0.09188(18) -0.4121(5) -0.0298(2)
F5B F 0.0172(3) -0.3363(5) -0.1106(2)
F6B F 0.0185(2) -0.4783(5) -0.0464(3)
O2B O 0.01097(15) -0.1558(4) -0.04024(18)
O9B O -0.18211(17) -0.3887(4) 0.05110(19)
N1B N -0.1346(2) -0.3639(5) 0.1062(2)
C21B C -0.1192(3) -0.4269(7) 0.1682(3)
C22B C -0.1059(4) -0.5771(8) 0.1669(4)
H5B H -0.069(3) -0.593(7) 0.169(3)
H6B H -0.098(3) -0.619(7) 0.204(3)
H7B H -0.140(3) -0.595(8) 0.125(4)
C23B C -0.1679(3) -0.4128(10) 0.1726(4)
H8B H -0.174(2) -0.319(7) 0.171(3)
H9B H -0.202(4) -0.498(10) 0.144(4)
H10B H -0.159(3) -0.443(7) 0.208(3)
C24B C -0.0691(3) -0.3370(7) 0.2172(3)
C25B C -0.0232(4) -0.4113(10) 0.2782(4)
H11B H -0.013(3) -0.484(8) 0.270(3)
H12B H 0.002(3) -0.353(8) 0.310(4)
H13B H -0.038(4) -0.419(9) 0.308(5)
C26B C -0.0818(4) -0.2003(8) 0.2337(4)
H14B H -0.108(3) -0.152(7) 0.194(3)
H15B H -0.091(3) -0.216(8) 0.263(4)
H16B H -0.048(3) -0.153(8) 0.261(4)
N2B N -0.0497(2) -0.3032(6) 0.1764(2)
O10B O -0.00163(18) -0.2581(5) 0.2001(2)
C27B C -0.0916(2) -0.3059(6) 0.1123(3)
C28B C -0.0903(2) -0.2559(6) 0.0610(3)
C29B C -0.0490(3) -0.1792(7) 0.0654(3)
H17B H -0.016(2) -0.149(6) 0.101(3)
N3B N -0.0632(2) -0.1422(5) 0.0080(2)
N4B N -0.1143(2) -0.1979(5) -0.0346(2)
C30B C -0.1466(3) -0.1707(9) -0.1040(3)
H18B H -0.183(2) -0.190(6) -0.127(2)
H19B H -0.154(3) -0.078(8) -0.115(3)
C31B C -0.1260(3) -0.2335(9) -0.1392(3)
H20B H -0.160(4) -0.249(9) -0.196(4)
H21B H -0.087(4) -0.183(10) -0.129(5)
C32B C -0.1218(6) -0.3867(12) -0.1319(7)
H22B H -0.119(4) -0.412(10) -0.169(5)
H23B H -0.099(4) -0.405(10) -0.091(4)
H24B H -0.154(4) -0.425(10) -0.153(4)
C33B C -0.1312(3) -0.2652(7) -0.0040(3)
H25B H -0.162(2) -0.316(7) -0.027(3)
Cu2B Cu -0.25182(3) -0.25361(8) 0.00126(3)
O3B O -0.24200(17) -0.1525(5) 0.0811(2)
C6B C -0.2350(4) 0.0294(11) 0.1448(4)
F7B F -0.2109(3) -0.0523(7) 0.1969(3)
F8B F -0.2151(3) 0.1536(6) 0.1655(3)
F9B F -0.2870(2) 0.0333(7) 0.1210(3)
C7B C -0.2275(3) -0.0302(9) 0.0954(3)
C8B C -0.2063(3) 0.0549(9) 0.0724(4)
H2B H -0.196(2) 0.141(6) 0.090(3)
C9B C -0.1991(2) 0.0131(8) 0.0266(3)
C10B C -0.1743(3) 0.1145(8) 0.0052(4)
F10B F -0.1920(4) 0.0969(7) -0.0537(4)
F11B F -0.1219(3) 0.1001(6) 0.0398(4)
F12B F -0.1834(2) 0.2439(5) 0.0108(3)
O4B O -0.21035(17) -0.1021(5) -0.0012(2)
O5B O -0.29307(16) -0.4050(5) 0.0050(2)
C11B C -0.3284(4) -0.6215(9) -0.0008(5)
F13B F -0.3711(3) -0.5861(6) -0.0104(5)
F14B F -0.2941(4) -0.6329(7) 0.0648(3)
F15B F -0.3287(2) -0.7500(5) -0.0155(3)
C12B C -0.3037(2) -0.5208(7) -0.0223(3)
C13B C -0.2974(3) -0.5639(8) -0.0685(3)
H3B H -0.309(2) -0.652(6) -0.084(3)
C14B C -0.2769(2) -0.4784(8) -0.0925(3)
C15B C -0.2684(4) -0.5402(10) -0.1409(4)
F16B F -0.2870(3) -0.4586(7) -0.1903(3)
F17B F -0.2899(3) -0.6616(7) -0.1623(3)
F18B F -0.2155(2) -0.5569(7) -0.1128(3)
O6B O -0.26341(17) -0.3553(5) -0.0790(2)
O11B O -0.32037(17) -0.1155(4) -0.05142(19)
N5B N -0.3657(2) -0.1444(6) -0.1076(2)
C34B C -0.3800(3) -0.0805(7) -0.1702(3)
C35B C -0.3948(4) 0.0681(8) -0.1692(4)
H26B H -0.423(3) 0.076(7) -0.164(3)
H27B H -0.360(4) 0.105(10) -0.119(5)
H28B H -0.406(3) 0.113(8) -0.204(4)
C36B C -0.3301(4) -0.0891(11) -0.1705(4)
H29B H -0.315(2) -0.181(7) -0.167(3)
H30B H -0.336(3) -0.055(8) -0.201(4)
H31B H -0.294(5) -0.030(12) -0.140(5)
C37B C -0.4290(3) -0.1744(7) -0.2193(3)
C38B C -0.4117(4) -0.3087(10) -0.2324(4)
H32B H -0.383(3) -0.367(7) -0.191(3)
H33B H -0.439(2) -0.367(6) -0.255(3)
H34B H -0.403(3) -0.311(7) -0.263(3)
C39B C -0.4736(4) -0.1024(11) -0.2822(4)
H35B H -0.485(2) -0.027(7) -0.275(3)
H36B H -0.459(3) -0.080(9) -0.307(4)
H37B H -0.503(3) -0.163(7) -0.309(3)
N6B N -0.4499(2) -0.2118(6) -0.1813(2)
O12B O -0.4975(2) -0.2616(5) -0.2066(2)
C40B C -0.4091(3) -0.2040(7) -0.1164(3)
C41B C -0.4137(2) -0.2514(6) -0.0666(3)
C42B C -0.4541(3) -0.3338(8) -0.0716(4)
H38B H -0.477(3) -0.360(8) -0.102(3)
N7B N -0.44412(19) -0.3539(5) -0.0148(2)
N8B N -0.39657(19) -0.2843(6) 0.0271(2)
C43B C -0.3716(3) -0.2777(10) 0.0974(3)
H39B H -0.399(3) -0.314(7) 0.102(3)
H40B H -0.369(3) -0.161(8) 0.115(3)
C44B C -0.3178(4) -0.3474(13) 0.1372(4)
H41B H -0.331(4) -0.459(10) 0.117(4)
H42B H -0.293(3) -0.318(9) 0.130(4)
C45B C -0.2893(5) -0.3295(18) 0.2100(5)
H43B H -0.253(4) -0.396(12) 0.241(4)
H44B H -0.295(3) -0.230(8) 0.214(3)
H45B H -0.322(4) -0.372(11) 0.213(5)
C46B C -0.3771(3) -0.2235(7) -0.0013(3)
H46B H -0.349(2) -0.172(6) 0.018(3)
O7B O 0.56244(15) 0.4312(5) 0.08567(18)
C16B C 0.6235(3) 0.2765(10) 0.1656(4)
F19B F 0.6403(3) 0.1533(7) 0.1772(2)
F20B F 0.6078(3) 0.3032(11) 0.1992(3)
F21B F 0.6663(3) 0.3426(11) 0.1920(4)
C17B C 0.5813(2) 0.3116(7) 0.0942(3)
C18B C 0.5684(3) 0.2131(9) 0.0490(4)
H4B H 0.582(3) 0.147(7) 0.058(3)
C19B C 0.5315(3) 0.2367(7) -0.0165(3)
C20B C 0.5210(4) 0.1188(8) -0.0617(4)
F22B F 0.5399(3) 0.1344(6) -0.0926(3)
F23B F 0.4658(2) 0.1045(6) -0.1088(3)
F24B F 0.5321(2) -0.0042(5) -0.0352(2)
O8B O 0.50525(16) 0.3433(4) -0.04479(18)
N7B_2 N 0.55588(19) 0.6461(5) -0.0148(2)
Cu3_2 Cu -0.5000 -0.5000 0.0000
loop_
_geom_bond_atom_site_label_1
_geom_bond_atom_site_label_2
_geom_bond_site_symmetry_1
_geom_bond_site_symmetry_2
Cu1 O1 1_555 1_555
O1 C2 1_555 1_555
C1 F1 1_555 1_555
F2 C1 1_555 1_555
F3 C1 1_555 1_555
C2 C1 1_555 1_555
C3 C2 1_555 1_555
H1 C3 1_555 1_555
C4 C3 1_555 1_555
C5 C4 1_555 1_555
F4 C5 1_555 1_555
F5 C5 1_555 1_555
F6 C5 1_555 1_555
O2 Cu1 1_555 1_555
Cu2 O3 1_555 1_555
O3 C7 1_555 1_555
C6 F7 1_555 1_555
F8 C6 1_555 1_555
F9 C6 1_555 1_555
C7 C6 1_555 1_555
C8 C7 1_555 1_555
H2 C8 1_555 1_555
C9 C8 1_555 1_555
C10 C9 1_555 1_555
F10 C10 1_555 1_555
F11 C10 1_555 1_555
F12 C10 1_555 1_555
O4 Cu2 1_555 1_555
O5 Cu2 1_555 1_555
C11 F13 1_555 1_555
F14 C11 1_555 1_555
F15 C11 1_555 1_555
C12 O5 1_555 1_555
C13 C12 1_555 1_555
H3 C13 1_555 1_555
C14 C13 1_555 1_555
C15 C14 1_555 1_555
F16 C15 1_555 1_555
F17 C15 1_555 1_555
F18 C15 1_555 1_555
O6 Cu2 1_555 1_555
Cu3 O7 1_555 1_555
O7 C17 1_555 1_555
C16 F19 1_555 1_555
F20 C16 1_555 1_555
F21 C16 1_555 1_555
C17 C16 1_555 1_555
C18 C17 1_555 1_555
H4 C18 1_555 1_555
C19 C18 1_555 1_555
C20 C19 1_555 1_555
F22 C20 1_555 1_555
F23 C20 1_555 1_555
F24 C20 1_555 1_555
O8 Cu3 1_555 1_555
O9 Cu2 1_555 1_555
N1 O9 1_555 1_555
C21 N1 1_555 1_555
C22 C21 1_555 1_555
H5 C22 1_555 1_555
H6 C22 1_555 1_555
H7 C22 1_555 1_555
C23 C21 1_555 1_555
H8 C23 1_555 1_555
H9 C23 1_555 1_555
H10 C23 1_555 1_555
C24 C21 1_555 1_555
C25 C24 1_555 1_555
H11 C25 1_555 1_555
H12 C25 1_555 1_555
H13 C25 1_555 1_555
C26 C24 1_555 1_555
H14 C26 1_555 1_555
H15 C26 1_555 1_555
H16 C26 1_555 1_555
N2 C24 1_555 1_555
O10 N2 1_555 1_555
C27 N1 1_555 1_555
C28 C27 1_555 1_555
C29 C28 1_555 1_555
H17 C29 1_555 1_555
N3 Cu1 1_555 1_555
N4 N3 1_555 1_555
C30 N4 1_555 1_555
H18 C30 1_555 1_555
H19 C30 1_555 1_555
C31 C30 1_555 1_555
H20 C31 1_555 1_555
H21 C31 1_555 1_555
C32 C31 1_555 1_555
H22 C32 1_555 1_555
H23 C32 1_555 1_555
H24 C32 1_555 1_555
C33 C28 1_555 1_555
H25 C33 1_555 1_555
O11 Cu2 1_555 1_555
N5 O11 1_555 1_555
C34 N5 1_555 1_555
C35 C34 1_555 1_555
H26 C35 1_555 1_555
H27 C35 1_555 1_555
H28 C35 1_555 1_555
C36 C34 1_555 1_555
H29 C36 1_555 1_555
H30 C36 1_555 1_555
H31 C36 1_555 1_555
C37 C34 1_555 1_555
C38 C37 1_555 1_555
H32 C38 1_555 1_555
H33 C38 1_555 1_555
H34 C38 1_555 1_555
C39 C37 1_555 1_555
H35 C39 1_555 1_555
H36 C39 1_555 1_555
H37 C39 1_555 1_555
N6 C37 1_555 1_555
O12 N6 1_555 1_555
C40 N5 1_555 1_555
C41 C40 1_555 1_555
C42 C41 1_555 1_555
H38 C42 1_555 1_555
N7 Cu3 1_555 1_555
N8 N7 1_555 1_555
C43 N8 1_555 1_555
H39 C43 1_555 1_555
H40 C43 1_555 1_555
C44 C43 1_555 1_555
H41 C44 1_555 1_555
H42 C44 1_555 1_555
C45 C44 1_555 1_555
H43 C45 1_555 1_555
H44 C45 1_555 1_555
H45 C45 1_555 1_555
C46 C41 1_555 1_555
H46 C46 1_555 1_555
O1B Cu1 1_555 1_555
C1B F1B 1_555 1_555
F2B C1B 1_555 1_555
F3B C1B 1_555 1_555
C2B O1B 1_555 1_555
C3B C2B 1_555 1_555
H1B C3B 1_555 1_555
C4B C3B 1_555 1_555
C5B C4B 1_555 1_555
F4B C5B 1_555 1_555
F5B C5B 1_555 1_555
F6B C5B 1_555 1_555
O2B Cu1 1_555 1_555
O9B N1B 1_555 1_555
N1B C21B 1_555 1_555
C21B C22B 1_555 1_555
C22B H5B 1_555 1_555
H6B C22B 1_555 1_555
H7B C22B 1_555 1_555
C23B C21B 1_555 1_555
H8B C23B 1_555 1_555
H9B C23B 1_555 1_555
H10B C23B 1_555 1_555
C24B C21B 1_555 1_555
C25B C24B 1_555 1_555
H11B C25B 1_555 1_555
H12B C25B 1_555 1_555
H13B C25B 1_555 1_555
C26B C24B 1_555 1_555
H14B C26B 1_555 1_555
H15B C26B 1_555 1_555
H16B C26B 1_555 1_555
N2B C24B 1_555 1_555
O10B N2B 1_555 1_555
C27B N1B 1_555 1_555
C28B C27B 1_555 1_555
C29B C28B 1_555 1_555
H17B C29B 1_555 1_555
N3B Cu1 1_555 1_555
N4B N3B 1_555 1_555
C30B N4B 1_555 1_555
H18B C30B 1_555 1_555
H19B C30B 1_555 1_555
C31B C30B 1_555 1_555
H20B C31B 1_555 1_555
H21B C31B 1_555 1_555
C32B C31B 1_555 1_555
H22B C32B 1_555 1_555
H23B C32B 1_555 1_555
H24B C32B 1_555 1_555
C33B C28B 1_555 1_555
H25B C33B 1_555 1_555
Cu2B O9B 1_555 1_555
O3B Cu2B 1_555 1_555
C6B F7B 1_555 1_555
F8B C6B 1_555 1_555
F9B C6B 1_555 1_555
C7B O3B 1_555 1_555
C8B C7B 1_555 1_555
H2B C8B 1_555 1_555
C9B C8B 1_555 1_555
C10B C9B 1_555 1_555
F10B C10B 1_555 1_555
F11B C10B 1_555 1_555
F12B C10B 1_555 1_555
O4B Cu2B 1_555 1_555
O5B Cu2B 1_555 1_555
C11B F13B 1_555 1_555
F14B C11B 1_555 1_555
F15B C11B 1_555 1_555
C12B O5B 1_555 1_555
C13B C12B 1_555 1_555
H3B C13B 1_555 1_555
C14B C13B 1_555 1_555
C15B C14B 1_555 1_555
F16B C15B 1_555 1_555
F17B C15B 1_555 1_555
F18B C15B 1_555 1_555
O6B Cu2B 1_555 1_555
O11B Cu2B 1_555 1_555
N5B O11B 1_555 1_555
C34B N5B 1_555 1_555
C35B C34B 1_555 1_555
H26B C35B 1_555 1_555
H27B C35B 1_555 1_555
H28B C35B 1_555 1_555
C36B C34B 1_555 1_555
H29B C36B 1_555 1_555
H30B C36B 1_555 1_555
H31B C36B 1_555 1_555
C37B C34B 1_555 1_555
C38B C37B 1_555 1_555
H32B C38B 1_555 1_555
H33B C38B 1_555 1_555
H34B C38B 1_555 1_555
C39B C37B 1_555 1_555
H35B C39B 1_555 1_555
H36B C39B 1_555 1_555
H37B C39B 1_555 1_555
N6B C37B 1_555 1_555
O12B N6B 1_555 1_555
C40B N5B 1_555 1_555
C41B C40B 1_555 1_555
C42B C41B 1_555 1_555
H38B C42B 1_555 1_555
N7B C42B 1_555 1_555
N8B N7B 1_555 1_555
C43B N8B 1_555 1_555
H39B C43B 1_555 1_555
H40B C43B 1_555 1_555
C44B C43B 1_555 1_555
H41B C44B 1_555 1_555
H42B C44B 1_555 1_555
C45B C44B 1_555 1_555
H43B C45B 1_555 1_555
H44B C45B 1_555 1_555
H45B C45B 1_555 1_555
C46B C41B 1_555 1_555
H46B C46B 1_555 1_555
O7B Cu3 1_555 1_555
C16B F19B 1_555 1_555
F20B C16B 1_555 1_555
F21B C16B 1_555 1_555
C17B O7B 1_555 1_555
C18B C17B 1_555 1_555
H4B C18B 1_555 1_555
C19B C18B 1_555 1_555
C20B C19B 1_555 1_555
F22B C20B 1_555 1_555
F23B C20B 1_555 1_555
F24B C20B 1_555 1_555
O8B Cu3 1_555 1_555
N7B_2 Cu3 1_555 1_555
Cu3_2 N7B 1_555 1_555
C4 O2 1_555 1_555
C9 O4 1_555 1_555
C11 C12 1_555 1_555
C14 O6 1_555 1_555
C19 O8 1_555 1_555
N2 C27 1_555 1_555
C29 N3 1_555 1_555
N4 C33 1_555 1_555
N6 C40 1_555 1_555
C42 N7 1_555 1_555
N8 C46 1_555 1_555
C1B C2B 1_555 1_555
C4B O2B 1_555 1_555
N2B C27B 1_555 1_555
C29B N3B 1_555 1_555
N4B C33B 1_555 1_555
C6B C7B 1_555 1_555
C9B O4B 1_555 1_555
C11B C12B 1_555 1_555
C14B O6B 1_555 1_555
N6B C40B 1_555 1_555
N8B C46B 1_555 1_555
C16B C17B 1_555 1_555
C19B O8B 1_555 1_555

#END
