
#######################################################################
#
#                 Cambridge Crystallographic Data Centre
#                                CCDC 
#
#######################################################################
#
# If this CIF has been generated from an entry in the Cambridge 
# Structural Database, then it will include bibliographic, chemical, 
# crystal, experimental, refinement or atomic coordinate data resulting 
# from the CCDC's data processing and validation procedures.
#
#######################################################################

data_LUPPIV05
_symmetry_cell_setting           monoclinic
_symmetry_space_group_name_H-M   'P 21/c'
_symmetry_Int_Tables_number      14
_space_group_name_Hall           '-P 2ybc'
loop_
_symmetry_equiv_pos_site_id
_symmetry_equiv_pos_as_xyz
1 x,y,z
2 -x,1/2+y,1/2-z
3 -x,-y,-z
4 x,1/2-y,1/2+z
_cell_length_a                   30.114(6)
_cell_length_b                   9.6665(19)
_cell_length_c                   25.594(5)
_cell_angle_alpha                90
_cell_angle_beta                 126.81(3)
_cell_angle_gamma                90
_cell_volume                     5964.94
loop_
_atom_site_label
_atom_site_type_symbol
_atom_site_fract_x
_atom_site_fract_y
_atom_site_fract_z
Cu1 Cu 0.0000 0.0000 0.0000
O1 O -0.05860(9) 0.0641(2) -0.08815(10)
C1 C -0.13058(16) 0.1956(4) -0.17363(17)
F1 F -0.16395(12) 0.2987(3) -0.18831(11)
F2 F -0.16237(11) 0.0845(3) -0.20383(11)
F3 F -0.10642(12) 0.2152(4) -0.20189(12)
C2 C -0.08797(14) 0.1700(4) -0.10100(16)
C3 C -0.08546(17) 0.2612(4) -0.05866(18)
H1 H -0.1095(14) 0.325(4) -0.0752(16)
C4 C -0.04625(14) 0.2495(3) 0.00894(16)
C5 C -0.04339(15) 0.3678(4) 0.05024(17)
F4 F -0.09403(9) 0.4107(2) 0.02886(11)
F5 F -0.01705(13) 0.3355(3) 0.11133(11)
F6 F -0.01937(11) 0.4774(3) 0.04570(14)
O2 O -0.01175(9) 0.1558(2) 0.03994(10)
Cu2 Cu 0.251927(14) 0.25527(4) -0.001246(16)
O3 O 0.24162(10) 0.1515(3) -0.08401(12)
C6 C 0.2364(2) -0.0319(5) -0.1459(2)
F7 F 0.21066(16) 0.0465(4) -0.19977(14)
F8 F 0.21766(15) -0.1590(3) -0.16487(15)
F9 F 0.28896(13) -0.0331(4) -0.12108(16)
C7 C 0.22774(15) 0.0296(4) -0.09754(18)
C8 C 0.20676(17) -0.0571(5) -0.0735(2)
H2 H 0.1987(15) -0.147(4) -0.0882(17)
C9 C 0.19865(15) -0.0127(4) -0.02851(19)
C10 C 0.17378(18) -0.1143(4) -0.0072(2)
F10 F 0.18979(19) -0.0930(4) 0.0517(2)
F11 F 0.11999(14) -0.1012(3) -0.0432(2)
F12 F 0.18410(12) -0.2442(2) -0.01096(15)
O4 O 0.20846(10) 0.1035(3) -0.00206(13)
O5 O 0.29487(10) 0.4064(3) -0.00259(12)
C11 C 0.32850(19) 0.6240(4) 0.0006(2)
F13 F 0.37192(16) 0.5857(3) 0.0101(3)
F14 F 0.29357(19) 0.6341(4) -0.06536(18)
F15 F 0.33065(14) 0.7523(3) 0.01748(16)
C12 C 0.30504(14) 0.5231(4) 0.02367(18)
C13 C 0.29844(16) 0.5681(4) 0.06974(19)
H3 H 0.3034(14) 0.661(4) 0.0811(17)
C14 C 0.27752(15) 0.4833(4) 0.09467(18)
C15 C 0.26804(19) 0.5487(5) 0.1415(2)
F16 F 0.28720(16) 0.4699(4) 0.19292(15)
F17 F 0.28967(15) 0.6725(3) 0.16251(16)
F18 F 0.21446(12) 0.5627(4) 0.11258(14)
O6 O 0.26480(10) 0.3603(3) 0.08286(12)
Cu3 Cu 0.5000 0.5000 0.0000
O7 O 0.43635(9) 0.5675(3) -0.08595(11)
C16 C 0.37485(18) 0.7244(5) -0.1670(2)
F19 F 0.35879(17) 0.8490(3) -0.17832(13)
F20 F 0.39124(19) 0.6949(6) -0.20092(15)
F21 F 0.33065(18) 0.6550(6) -0.19329(19)
C17 C 0.41753(14) 0.6873(4) -0.09546(16)
C18 C 0.43106(16) 0.7882(4) -0.04998(18)
H4 H 0.4183(13) 0.873(4) -0.0593(15)
C19 C 0.46878(14) 0.7653(4) 0.01647(16)
C20 C 0.48119(18) 0.8852(4) 0.06171(19)
F22 F 0.45977(14) 0.8671(3) 0.09288(15)
F23 F 0.53592(11) 0.8973(3) 0.10851(13)
F24 F 0.46639(13) 1.0063(3) 0.03309(13)
O8 O 0.49523(9) 0.6572(2) 0.04524(11)
O9 O 0.18378(10) 0.3889(2) -0.04925(11)
N1 N 0.13624(12) 0.3638(3) -0.10468(13)
C21 C 0.12048(16) 0.4268(4) -0.16715(17)
C22 C 0.1077(2) 0.5774(4) -0.1649(2)
H5 H 0.0766(16) 0.597(4) -0.1636(18)
H6 H 0.1003(14) 0.622(4) -0.2002(18)
H7 H 0.1419(18) 0.610(4) -0.124(2)
C23 C 0.16828(19) 0.4142(5) -0.1722(2)
H8 H 0.1837(15) 0.321(4) -0.1632(17)
H9 H 0.201(2) 0.478(6) -0.149(3)
H10 H 0.1590(16) 0.448(4) -0.213(2)
C24 C 0.06881(15) 0.3383(4) -0.21675(16)
C25 C 0.0234(2) 0.4120(5) -0.2788(2)
H11 H 0.0149(16) 0.479(5) -0.2685(19)
H12 H -0.0045(18) 0.354(5) -0.306(2)
H13 H 0.034(2) 0.421(5) -0.313(2)
C26 C 0.0828(2) 0.2008(5) -0.2325(2)
H14 H 0.1105(18) 0.160(5) -0.191(2)
H15 H 0.0947(15) 0.225(4) -0.2611(19)
H16 H 0.055(2) 0.147(5) -0.259(2)
N2 N 0.05004(12) 0.3037(3) -0.17551(13)
O10 O 0.00152(11) 0.2590(3) -0.19944(12)
C27 C 0.09253(14) 0.3080(4) -0.11144(16)
C28 C 0.09119(15) 0.2567(3) -0.05918(16)
C29 C 0.04975(16) 0.1795(4) -0.06413(18)
H17 H 0.0165(13) 0.151(3) -0.0992(16)
N3 N 0.06413(12) 0.1431(3) -0.00618(13)
N4 N 0.11593(11) 0.1973(3) 0.03673(13)
C30 C 0.14860(16) 0.1700(5) 0.10686(17)
H18 H 0.1789(15) 0.206(4) 0.1219(16)
H19 H 0.1517(14) 0.063(4) 0.1135(16)
C31 C 0.12577(17) 0.2347(4) 0.13971(18)
H20 H 0.1552(16) 0.214(4) 0.1895(19)
H21 H 0.0904(15) 0.188(4) 0.1238(16)
C32 C 0.1207(2) 0.3887(5) 0.1326(3)
H22 H 0.1085(15) 0.426(4) 0.1556(18)
H23 H 0.0987(19) 0.421(5) 0.092(2)
H24 H 0.1590(19) 0.429(5) 0.153(2)
C33 C 0.13265(16) 0.2657(4) 0.00637(17)
H25 H 0.1643(14) 0.305(4) 0.0309(16)
O11 O 0.31887(10) 0.1197(3) 0.05079(11)
N5 N 0.36484(13) 0.1486(3) 0.10799(14)
C34 C 0.37849(17) 0.0848(4) 0.16911(17)
C35 C 0.3933(2) -0.0652(5) 0.1682(2)
H26 H 0.4254(19) -0.077(4) 0.169(2)
H27 H 0.3593(19) -0.102(5) 0.125(2)
H28 H 0.4005(17) -0.116(4) 0.203(2)
C36 C 0.3285(2) 0.0903(6) 0.1704(2)
H29 H 0.3146(15) 0.179(5) 0.1650(18)
H30 H 0.3375(16) 0.055(5) 0.211(2)
H31 H 0.296(3) 0.033(7) 0.145(3)
C37 C 0.42796(16) 0.1762(4) 0.22021(16)
C38 C 0.4115(2) 0.3120(5) 0.2343(2)
H32 H 0.3821(19) 0.348(5) 0.192(2)
H33 H 0.4376(19) 0.364(5) 0.260(2)
H34 H 0.3980(16) 0.298(4) 0.261(2)
C39 C 0.4727(2) 0.1035(6) 0.2832(2)
H35 H 0.4858(18) 0.041(5) 0.275(2)
H36 H 0.462(2) 0.091(5) 0.315(3)
H37 H 0.5004(18) 0.166(4) 0.310(2)
N6 N 0.44948(13) 0.2142(3) 0.18210(14)
O12 O 0.49804(11) 0.2622(3) 0.20856(13)
C40 C 0.40921(15) 0.2074(4) 0.11738(16)
C41 C 0.41371(15) 0.2528(4) 0.06707(16)
C42 C 0.45516(15) 0.3325(4) 0.07302(18)
H38 H 0.4863(14) 0.369(3) 0.1060(16)
N7 N 0.44508(11) 0.3515(3) 0.01566(13)
N8 N 0.39673(11) 0.2824(3) -0.02749(13)
C43 C 0.37102(16) 0.2770(5) -0.09782(17)
H39 H 0.3959(14) 0.322(3) -0.1012(15)
H40 H 0.3667(15) 0.177(4) -0.1080(17)
C44 C 0.3161(2) 0.3474(7) -0.1381(2)
H41 H 0.324(2) 0.443(6) -0.131(2)
H42 H 0.2925(17) 0.317(4) -0.1309(19)
C45 C 0.2883(3) 0.3282(10) -0.2106(2)
H43 H 0.256(2) 0.383(6) -0.235(2)
H44 H 0.289(2) 0.236(5) -0.218(2)
H45 H 0.3126(19) 0.357(5) -0.222(2)
C46 C 0.37708(15) 0.2237(4) 0.00158(17)
H46 H 0.3457(15) 0.167(4) -0.0240(17)
O1B O 0.05860(9) -0.0641(2) 0.08815(10)
C1B C 0.13058(16) -0.1956(4) 0.17363(17)
F1B F 0.16395(12) -0.2987(3) 0.18831(11)
F2B F 0.16237(11) -0.0845(3) 0.20383(11)
F3B F 0.10642(12) -0.2152(4) 0.20189(12)
C2B C 0.08797(14) -0.1700(4) 0.10100(16)
C3B C 0.08546(17) -0.2612(4) 0.05866(18)
H1B H 0.1095(14) -0.325(4) 0.0752(16)
C4B C 0.04625(14) -0.2495(3) -0.00894(16)
C5B C 0.04339(15) -0.3678(4) -0.05024(17)
F4B F 0.09403(9) -0.4107(2) -0.02886(11)
F5B F 0.01705(13) -0.3355(3) -0.11133(11)
F6B F 0.01937(11) -0.4774(3) -0.04570(14)
O2B O 0.01175(9) -0.1558(2) -0.03994(10)
Cu2B Cu -0.251927(14) -0.25527(4) 0.001246(16)
O3B O -0.24162(10) -0.1515(3) 0.08401(12)
C6B C -0.2364(2) 0.0319(5) 0.1459(2)
F7B F -0.21066(16) -0.0465(4) 0.19977(14)
F8B F -0.21766(15) 0.1590(3) 0.16487(15)
F9B F -0.28896(13) 0.0331(4) 0.12108(16)
C7B C -0.22774(15) -0.0296(4) 0.09754(18)
C8B C -0.20676(17) 0.0571(5) 0.0735(2)
H2B H -0.1987(15) 0.147(4) 0.0882(17)
C9B C -0.19865(15) 0.0127(4) 0.02851(19)
C10B C -0.17378(18) 0.1143(4) 0.0072(2)
F10B F -0.18979(19) 0.0930(4) -0.0517(2)
F11B F -0.11999(14) 0.1012(3) 0.0432(2)
F12B F -0.18410(12) 0.2442(2) 0.01096(15)
O4B O -0.20846(10) -0.1035(3) 0.00206(13)
O5B O -0.29487(10) -0.4064(3) 0.00259(12)
C11B C -0.32850(19) -0.6240(4) -0.0006(2)
F13B F -0.37192(16) -0.5857(3) -0.0101(3)
F14B F -0.29357(19) -0.6341(4) 0.06536(18)
F15B F -0.33065(14) -0.7523(3) -0.01748(16)
C12B C -0.30504(14) -0.5231(4) -0.02367(18)
C13B C -0.29844(16) -0.5681(4) -0.06974(19)
H3B H -0.3034(14) -0.661(4) -0.0811(17)
C14B C -0.27752(15) -0.4833(4) -0.09467(18)
C15B C -0.26804(19) -0.5487(5) -0.1415(2)
F16B F -0.28720(16) -0.4699(4) -0.19292(15)
F17B F -0.28967(15) -0.6725(3) -0.16251(16)
F18B F -0.21446(12) -0.5627(4) -0.11258(14)
O6B O -0.26480(10) -0.3603(3) -0.08286(12)
Cu3_2 Cu -0.5000 -0.5000 0.0000
O7B O 0.56365(9) 0.4325(3) 0.08595(11)
C16B C 0.62515(18) 0.2756(5) 0.1670(2)
F19B F 0.64121(17) 0.1510(3) 0.17832(13)
F20B F 0.60876(19) 0.3051(6) 0.20092(15)
F21B F 0.66935(18) 0.3450(6) 0.19329(19)
C17B C 0.58247(14) 0.3127(4) 0.09546(16)
C18B C 0.56894(16) 0.2118(4) 0.04998(18)
H4B H 0.5817(13) 0.127(4) 0.0593(15)
C19B C 0.53122(14) 0.2347(4) -0.01647(16)
C20B C 0.51881(18) 0.1148(4) -0.06171(19)
F22B F 0.54023(14) 0.1329(3) -0.09288(15)
F23B F 0.46408(11) 0.1027(3) -0.10851(13)
F24B F 0.53361(13) -0.0063(3) -0.03309(13)
O8B O 0.50477(9) 0.3428(2) -0.04524(11)
O9B O -0.18378(10) -0.3889(2) 0.04925(11)
N1B N -0.13624(12) -0.3638(3) 0.10468(13)
C21B C -0.12048(16) -0.4268(4) 0.16715(17)
C22B C -0.1077(2) -0.5774(4) 0.1649(2)
H5B H -0.0766(16) -0.597(4) 0.1636(18)
H6B H -0.1003(14) -0.622(4) 0.2002(18)
H7B H -0.1419(18) -0.610(4) 0.124(2)
C23B C -0.16828(19) -0.4142(5) 0.1722(2)
H8B H -0.1837(15) -0.321(4) 0.1632(17)
H9B H -0.201(2) -0.478(6) 0.149(3)
H10B H -0.1590(16) -0.448(4) 0.213(2)
C24B C -0.06881(15) -0.3383(4) 0.21675(16)
C25B C -0.0234(2) -0.4120(5) 0.2788(2)
H11B H -0.0149(16) -0.479(5) 0.2685(19)
H12B H 0.0045(18) -0.354(5) 0.306(2)
H13B H -0.034(2) -0.421(5) 0.313(2)
C26B C -0.0828(2) -0.2008(5) 0.2325(2)
H14B H -0.1105(18) -0.160(5) 0.191(2)
H15B H -0.0947(15) -0.225(4) 0.2611(19)
H16B H -0.055(2) -0.147(5) 0.259(2)
N2B N -0.05004(12) -0.3037(3) 0.17551(13)
O10B O -0.00152(11) -0.2590(3) 0.19944(12)
C27B C -0.09253(14) -0.3080(4) 0.11144(16)
C28B C -0.09119(15) -0.2567(3) 0.05918(16)
C29B C -0.04975(16) -0.1795(4) 0.06413(18)
H17B H -0.0165(13) -0.151(3) 0.0992(16)
N3B N -0.06413(12) -0.1431(3) 0.00618(13)
N4B N -0.11593(11) -0.1973(3) -0.03673(13)
C30B C -0.14860(16) -0.1700(5) -0.10686(17)
H18B H -0.1789(15) -0.206(4) -0.1219(16)
H19B H -0.1517(14) -0.063(4) -0.1135(16)
C31B C -0.12577(17) -0.2347(4) -0.13971(18)
H20B H -0.1552(16) -0.214(4) -0.1895(19)
H21B H -0.0904(15) -0.188(4) -0.1238(16)
C32B C -0.1207(2) -0.3887(5) -0.1326(3)
H22B H -0.1085(15) -0.426(4) -0.1556(18)
H23B H -0.0987(19) -0.421(5) -0.092(2)
H24B H -0.1590(19) -0.429(5) -0.153(2)
C33B C -0.13265(16) -0.2657(4) -0.00637(17)
H25B H -0.1643(14) -0.305(4) -0.0309(16)
O11B O -0.31887(10) -0.1197(3) -0.05079(11)
N5B N -0.36484(13) -0.1486(3) -0.10799(14)
C34B C -0.37849(17) -0.0848(4) -0.16911(17)
C35B C -0.3933(2) 0.0652(5) -0.1682(2)
H26B H -0.4254(19) 0.077(4) -0.169(2)
H27B H -0.3593(19) 0.102(5) -0.125(2)
H28B H -0.4005(17) 0.116(4) -0.203(2)
C36B C -0.3285(2) -0.0903(6) -0.1704(2)
H29B H -0.3146(15) -0.179(5) -0.1650(18)
H30B H -0.3375(16) -0.055(5) -0.211(2)
H31B H -0.296(3) -0.033(7) -0.145(3)
C37B C -0.42796(16) -0.1762(4) -0.22021(16)
C38B C -0.4115(2) -0.3120(5) -0.2343(2)
H32B H -0.3821(19) -0.348(5) -0.192(2)
H33B H -0.4376(19) -0.364(5) -0.260(2)
H34B H -0.3980(16) -0.298(4) -0.261(2)
C39B C -0.4727(2) -0.1035(6) -0.2832(2)
H35B H -0.4858(18) -0.041(5) -0.275(2)
H36B H -0.462(2) -0.091(5) -0.315(3)
H37B H -0.5004(18) -0.166(4) -0.310(2)
N6B N -0.44948(13) -0.2142(3) -0.18210(14)
O12B O -0.49804(11) -0.2622(3) -0.20856(13)
C40B C -0.40921(15) -0.2074(4) -0.11738(16)
C41B C -0.41371(15) -0.2528(4) -0.06707(16)
C42B C -0.45516(15) -0.3325(4) -0.07302(18)
H38B H -0.4863(14) -0.369(3) -0.1060(16)
N7B N -0.44508(11) -0.3515(3) -0.01566(13)
N7B_2 N 0.55492(11) 0.6485(3) -0.01566(13)
N8B N -0.39673(11) -0.2824(3) 0.02749(13)
C43B C -0.37102(16) -0.2770(5) 0.09782(17)
H39B H -0.3959(14) -0.322(3) 0.1012(15)
H40B H -0.3667(15) -0.177(4) 0.1080(17)
C44B C -0.3161(2) -0.3474(7) 0.1381(2)
H41B H -0.324(2) -0.443(6) 0.131(2)
H42B H -0.2925(17) -0.317(4) 0.1309(19)
C45B C -0.2883(3) -0.3282(10) 0.2106(2)
H43B H -0.256(2) -0.383(6) 0.235(2)
H44B H -0.289(2) -0.236(5) 0.218(2)
H45B H -0.3126(19) -0.357(5) 0.222(2)
C46B C -0.37708(15) -0.2237(4) -0.00158(17)
H46B H -0.3457(15) -0.167(4) 0.0240(17)
loop_
_geom_bond_atom_site_label_1
_geom_bond_atom_site_label_2
_geom_bond_site_symmetry_1
_geom_bond_site_symmetry_2
Cu1 O1 1_555 1_555
O1 C2 1_555 1_555
C1 F1 1_555 1_555
F2 C1 1_555 1_555
F3 C1 1_555 1_555
C2 C1 1_555 1_555
C3 C2 1_555 1_555
H1 C3 1_555 1_555
C4 C3 1_555 1_555
C5 C4 1_555 1_555
F4 C5 1_555 1_555
F5 C5 1_555 1_555
F6 C5 1_555 1_555
O2 Cu1 1_555 1_555
Cu2 O3 1_555 1_555
O3 C7 1_555 1_555
C6 F7 1_555 1_555
F8 C6 1_555 1_555
F9 C6 1_555 1_555
C7 C6 1_555 1_555
C8 C7 1_555 1_555
H2 C8 1_555 1_555
C9 C8 1_555 1_555
C10 C9 1_555 1_555
F10 C10 1_555 1_555
F11 C10 1_555 1_555
F12 C10 1_555 1_555
O4 Cu2 1_555 1_555
O5 Cu2 1_555 1_555
C11 F13 1_555 1_555
F14 C11 1_555 1_555
F15 C11 1_555 1_555
C12 O5 1_555 1_555
C13 C12 1_555 1_555
H3 C13 1_555 1_555
C14 C13 1_555 1_555
C15 C14 1_555 1_555
F16 C15 1_555 1_555
F17 C15 1_555 1_555
F18 C15 1_555 1_555
O6 Cu2 1_555 1_555
Cu3 O7 1_555 1_555
O7 C17 1_555 1_555
C16 F19 1_555 1_555
F20 C16 1_555 1_555
F21 C16 1_555 1_555
C17 C16 1_555 1_555
C18 C17 1_555 1_555
H4 C18 1_555 1_555
C19 C18 1_555 1_555
C20 C19 1_555 1_555
F22 C20 1_555 1_555
F23 C20 1_555 1_555
F24 C20 1_555 1_555
O8 Cu3 1_555 1_555
O9 Cu2 1_555 1_555
N1 O9 1_555 1_555
C21 N1 1_555 1_555
C22 C21 1_555 1_555
H5 C22 1_555 1_555
H6 C22 1_555 1_555
H7 C22 1_555 1_555
C23 C21 1_555 1_555
H8 C23 1_555 1_555
H9 C23 1_555 1_555
H10 C23 1_555 1_555
C24 C21 1_555 1_555
C25 C24 1_555 1_555
H11 C25 1_555 1_555
H12 C25 1_555 1_555
H13 C25 1_555 1_555
C26 C24 1_555 1_555
H14 C26 1_555 1_555
H15 C26 1_555 1_555
H16 C26 1_555 1_555
N2 C24 1_555 1_555
O10 N2 1_555 1_555
C27 N1 1_555 1_555
C28 C27 1_555 1_555
C29 C28 1_555 1_555
H17 C29 1_555 1_555
N3 Cu1 1_555 1_555
N4 N3 1_555 1_555
C30 N4 1_555 1_555
H18 C30 1_555 1_555
H19 C30 1_555 1_555
C31 C30 1_555 1_555
H20 C31 1_555 1_555
H21 C31 1_555 1_555
C32 C31 1_555 1_555
H22 C32 1_555 1_555
H23 C32 1_555 1_555
H24 C32 1_555 1_555
C33 C28 1_555 1_555
H25 C33 1_555 1_555
O11 Cu2 1_555 1_555
N5 O11 1_555 1_555
C34 N5 1_555 1_555
C35 C34 1_555 1_555
H26 C35 1_555 1_555
H27 C35 1_555 1_555
H28 C35 1_555 1_555
C36 C34 1_555 1_555
H29 C36 1_555 1_555
H30 C36 1_555 1_555
H31 C36 1_555 1_555
C37 C34 1_555 1_555
C38 C37 1_555 1_555
H32 C38 1_555 1_555
H33 C38 1_555 1_555
H34 C38 1_555 1_555
C39 C37 1_555 1_555
H35 C39 1_555 1_555
H36 C39 1_555 1_555
H37 C39 1_555 1_555
N6 C37 1_555 1_555
O12 N6 1_555 1_555
C40 N5 1_555 1_555
C41 C40 1_555 1_555
C42 C41 1_555 1_555
H38 C42 1_555 1_555
N7 Cu3 1_555 1_555
N8 N7 1_555 1_555
C43 N8 1_555 1_555
H39 C43 1_555 1_555
H40 C43 1_555 1_555
C44 C43 1_555 1_555
H41 C44 1_555 1_555
H42 C44 1_555 1_555
C45 C44 1_555 1_555
H43 C45 1_555 1_555
H44 C45 1_555 1_555
H45 C45 1_555 1_555
C46 C41 1_555 1_555
H46 C46 1_555 1_555
O1B Cu1 1_555 1_555
C1B F1B 1_555 1_555
F2B C1B 1_555 1_555
F3B C1B 1_555 1_555
C2B O1B 1_555 1_555
C3B C2B 1_555 1_555
H1B C3B 1_555 1_555
C4B C3B 1_555 1_555
C5B C4B 1_555 1_555
F4B C5B 1_555 1_555
F5B C5B 1_555 1_555
F6B C5B 1_555 1_555
O2B Cu1 1_555 1_555
Cu2B O3B 1_555 1_555
O3B C7B 1_555 1_555
C6B F7B 1_555 1_555
F8B C6B 1_555 1_555
F9B C6B 1_555 1_555
C7B C6B 1_555 1_555
C8B C7B 1_555 1_555
H2B C8B 1_555 1_555
C9B C8B 1_555 1_555
C10B C9B 1_555 1_555
F10B C10B 1_555 1_555
F11B C10B 1_555 1_555
F12B C10B 1_555 1_555
O4B Cu2B 1_555 1_555
O5B Cu2B 1_555 1_555
C11B F13B 1_555 1_555
F14B C11B 1_555 1_555
F15B C11B 1_555 1_555
C12B O5B 1_555 1_555
C13B C12B 1_555 1_555
H3B C13B 1_555 1_555
C14B C13B 1_555 1_555
C15B C14B 1_555 1_555
F16B C15B 1_555 1_555
F17B C15B 1_555 1_555
F18B C15B 1_555 1_555
O6B Cu2B 1_555 1_555
Cu3_2 N7B 1_555 1_555
O7B Cu3 1_555 1_555
C16B F19B 1_555 1_555
F20B C16B 1_555 1_555
F21B C16B 1_555 1_555
C17B O7B 1_555 1_555
C18B C17B 1_555 1_555
H4B C18B 1_555 1_555
C19B C18B 1_555 1_555
C20B C19B 1_555 1_555
F22B C20B 1_555 1_555
F23B C20B 1_555 1_555
F24B C20B 1_555 1_555
O8B Cu3 1_555 1_555
O9B Cu2B 1_555 1_555
N1B O9B 1_555 1_555
C21B N1B 1_555 1_555
C22B C21B 1_555 1_555
H5B C22B 1_555 1_555
H6B C22B 1_555 1_555
H7B C22B 1_555 1_555
C23B C21B 1_555 1_555
H8B C23B 1_555 1_555
H9B C23B 1_555 1_555
H10B C23B 1_555 1_555
C24B C21B 1_555 1_555
C25B C24B 1_555 1_555
H11B C25B 1_555 1_555
H12B C25B 1_555 1_555
H13B C25B 1_555 1_555
C26B C24B 1_555 1_555
H14B C26B 1_555 1_555
H15B C26B 1_555 1_555
H16B C26B 1_555 1_555
N2B C24B 1_555 1_555
O10B N2B 1_555 1_555
C27B N1B 1_555 1_555
C28B C27B 1_555 1_555
C29B C28B 1_555 1_555
H17B C29B 1_555 1_555
N3B Cu1 1_555 1_555
N4B N3B 1_555 1_555
C30B N4B 1_555 1_555
H18B C30B 1_555 1_555
H19B C30B 1_555 1_555
C31B C30B 1_555 1_555
H20B C31B 1_555 1_555
H21B C31B 1_555 1_555
C32B C31B 1_555 1_555
H22B C32B 1_555 1_555
H23B C32B 1_555 1_555
H24B C32B 1_555 1_555
C33B C28B 1_555 1_555
H25B C33B 1_555 1_555
O11B Cu2B 1_555 1_555
N5B O11B 1_555 1_555
C34B N5B 1_555 1_555
C35B C34B 1_555 1_555
H26B C35B 1_555 1_555
H27B C35B 1_555 1_555
H28B C35B 1_555 1_555
C36B C34B 1_555 1_555
H29B C36B 1_555 1_555
H30B C36B 1_555 1_555
H31B C36B 1_555 1_555
C37B C34B 1_555 1_555
C38B C37B 1_555 1_555
H32B C38B 1_555 1_555
H33B C38B 1_555 1_555
H34B C38B 1_555 1_555
C39B C37B 1_555 1_555
H35B C39B 1_555 1_555
H36B C39B 1_555 1_555
H37B C39B 1_555 1_555
N6B C37B 1_555 1_555
O12B N6B 1_555 1_555
C40B N5B 1_555 1_555
C41B C40B 1_555 1_555
C42B C41B 1_555 1_555
H38B C42B 1_555 1_555
N7B C42B 1_555 1_555
N7B_2 Cu3 1_555 1_555
N8B N7B 1_555 1_555
C43B N8B 1_555 1_555
H39B C43B 1_555 1_555
H40B C43B 1_555 1_555
C44B C43B 1_555 1_555
H41B C44B 1_555 1_555
H42B C44B 1_555 1_555
C45B C44B 1_555 1_555
H43B C45B 1_555 1_555
H44B C45B 1_555 1_555
H45B C45B 1_555 1_555
C46B C41B 1_555 1_555
H46B C46B 1_555 1_555
C4 O2 1_555 1_555
C9 O4 1_555 1_555
C11 C12 1_555 1_555
C14 O6 1_555 1_555
C19 O8 1_555 1_555
N2 C27 1_555 1_555
C29 N3 1_555 1_555
N4 C33 1_555 1_555
N6 C40 1_555 1_555
C42 N7 1_555 1_555
N8 C46 1_555 1_555
C1B C2B 1_555 1_555
C4B O2B 1_555 1_555
C9B O4B 1_555 1_555
C11B C12B 1_555 1_555
C14B O6B 1_555 1_555
C16B C17B 1_555 1_555
C19B O8B 1_555 1_555
N2B C27B 1_555 1_555
C29B N3B 1_555 1_555
N4B C33B 1_555 1_555
N6B C40B 1_555 1_555
N8B C46B 1_555 1_555

#END
