
#######################################################################
#
#                 Cambridge Crystallographic Data Centre
#                                CCDC 
#
#######################################################################
#
# If this CIF has been generated from an entry in the Cambridge 
# Structural Database, then it will include bibliographic, chemical, 
# crystal, experimental, refinement or atomic coordinate data resulting 
# from the CCDC's data processing and validation procedures.
#
#######################################################################

data_LUPPIV04
_symmetry_cell_setting           monoclinic
_symmetry_space_group_name_H-M   'P 21/c'
_symmetry_Int_Tables_number      14
_space_group_name_Hall           '-P 2ybc'
loop_
_symmetry_equiv_pos_site_id
_symmetry_equiv_pos_as_xyz
1 x,y,z
2 -x,1/2+y,1/2-z
3 -x,-y,-z
4 x,1/2-y,1/2+z
_cell_length_a                   30.0240(18)
_cell_length_b                   9.6599(5)
_cell_length_c                   25.5727(13)
_cell_angle_alpha                90
_cell_angle_beta                 127.0550(10)
_cell_angle_gamma                90
_cell_volume                     5919.05
loop_
_atom_site_label
_atom_site_type_symbol
_atom_site_fract_x
_atom_site_fract_y
_atom_site_fract_z
Cu1 Cu 0.0000 0.0000 0.0000
O1 O -0.05884(8) 0.0641(2) -0.08865(9)
C1 C -0.13140(13) 0.1951(3) -0.17484(14)
F1 F -0.16553(9) 0.2986(2) -0.18952(9)
F2 F -0.16362(9) 0.0835(2) -0.20507(9)
F3 F -0.10693(9) 0.2170(3) -0.20266(10)
C2 C -0.08879(12) 0.1693(3) -0.10171(14)
C3 C -0.08643(14) 0.2608(3) -0.05924(15)
H1 H -0.1073(13) 0.324(3) -0.0729(15)
C4 C -0.04668(12) 0.2496(3) 0.00879(14)
C5 C -0.04400(13) 0.3687(3) 0.04979(14)
F4 F -0.09470(7) 0.41084(19) 0.02876(9)
F5 F -0.01637(10) 0.3372(2) 0.11185(9)
F6 F -0.01959(8) 0.4783(2) 0.04536(10)
O2 O -0.01192(8) 0.1559(2) 0.04005(9)
Cu2 Cu 0.251811(12) 0.25599(3) -0.001067(14)
O3 O 0.24127(8) 0.1501(2) -0.08565(10)
C6 C 0.23674(17) -0.0354(4) -0.14657(18)
F7 F 0.21137(12) 0.0413(3) -0.20069(11)
F8 F 0.21865(11) -0.1633(2) -0.16484(11)
F9 F 0.29061(10) -0.0353(3) -0.12053(12)
C7 C 0.22809(12) 0.0274(4) -0.09837(15)
C8 C 0.20703(14) -0.0587(4) -0.07398(16)
H2 H 0.1983(13) -0.147(4) -0.0870(15)
C9 C 0.19821(12) -0.0139(3) -0.02992(16)
C10 C 0.17305(14) -0.1150(4) -0.00870(18)
F10 F 0.18873(14) -0.0915(3) 0.05024(14)
F11 F 0.11817(10) -0.1039(3) -0.04687(16)
F12 F 0.18441(9) -0.24506(19) -0.01116(11)
O4 O 0.20718(8) 0.1039(2) -0.00407(10)
O5 O 0.29590(8) 0.4066(2) -0.00064(10)
C11 C 0.32878(15) 0.6249(4) 0.00089(18)
F13 F 0.37413(13) 0.5856(3) 0.0130(2)
F14 F 0.29371(14) 0.6340(3) -0.06469(13)
F15 F 0.33238(11) 0.7536(2) 0.01927(12)
C12 C 0.30569(12) 0.5247(3) 0.02509(15)
C13 C 0.29864(13) 0.5712(4) 0.07069(16)
H3 H 0.3078(13) 0.664(4) 0.0848(15)
C14 C 0.27774(12) 0.4873(4) 0.09581(14)
C15 C 0.26732(15) 0.5543(4) 0.14179(17)
F16 F 0.28705(12) 0.4778(3) 0.19424(11)
F17 F 0.28890(11) 0.6792(3) 0.16240(12)
F18 F 0.21293(9) 0.5665(3) 0.11183(11)
O6 O 0.26544(8) 0.3635(2) 0.08520(10)
Cu3 Cu 0.5000 0.5000 0.0000
O7 O 0.43561(8) 0.5667(2) -0.08625(9)
C16 C 0.37374(14) 0.7233(4) -0.16826(16)
F19 F 0.35794(14) 0.8494(3) -0.17926(11)
F20 F 0.39076(14) 0.6941(4) -0.20156(12)
F21 F 0.32863(13) 0.6535(4) -0.19428(15)
C17 C 0.41667(12) 0.6874(3) -0.09593(14)
C18 C 0.43054(14) 0.7885(4) -0.05055(15)
H4 H 0.4182(12) 0.871(3) -0.0619(14)
C19 C 0.46896(12) 0.7657(3) 0.01649(14)
C20 C 0.48179(14) 0.8865(3) 0.06199(16)
F22 F 0.45953(10) 0.8693(2) 0.09283(11)
F23 F 0.53678(8) 0.8986(2) 0.10882(10)
F24 F 0.46574(10) 1.0076(2) 0.03229(10)
O8 O 0.49537(8) 0.6575(2) 0.04547(9)
O9 O 0.18517(8) 0.3885(2) -0.04797(9)
N1 N 0.13715(10) 0.3629(3) -0.10401(11)
C21 C 0.12121(13) 0.4260(3) -0.16654(14)
C22 C 0.10781(17) 0.5772(4) -0.16439(18)
H5 H 0.0771(13) 0.593(3) -0.1622(14)
H6 H 0.0977(13) 0.624(3) -0.2026(16)
H7 H 0.1388(14) 0.615(3) -0.1251(17)
C23 C 0.16890(15) 0.4141(4) -0.17174(18)
H8 H 0.1809(12) 0.322(4) -0.1641(14)
H9 H 0.1978(16) 0.473(4) -0.1428(19)
H10 H 0.1572(14) 0.451(4) -0.2115(18)
C24 C 0.06890(12) 0.3370(3) -0.21655(13)
C25 C 0.02308(16) 0.4110(4) -0.27874(16)
H11 H 0.0104(14) 0.486(4) -0.2677(16)
H12 H -0.0111(14) 0.346(4) -0.3079(16)
H13 H 0.0340(14) 0.426(4) -0.3058(18)
C26 C 0.08309(17) 0.1987(4) -0.23212(18)
H14 H 0.1124(15) 0.159(4) -0.1910(19)
H15 H 0.0931(13) 0.218(4) -0.2579(17)
H16 H 0.0500(14) 0.141(4) -0.2569(16)
N2 N 0.05025(10) 0.3026(3) -0.17541(11)
O10 O 0.00129(9) 0.2582(2) -0.19962(10)
C27 C 0.09313(12) 0.3071(3) -0.11069(13)
C28 C 0.09171(12) 0.2565(3) -0.05873(13)
C29 C 0.04976(13) 0.1793(3) -0.06387(15)
H17 H 0.0157(13) 0.152(3) -0.1006(15)
N3 N 0.06447(10) 0.1427(3) -0.00547(11)
N4 N 0.11665(9) 0.1979(3) 0.03778(11)
C30 C 0.14940(13) 0.1709(4) 0.10823(14)
H18 H 0.1816(14) 0.212(3) 0.1229(15)
H19 H 0.1518(12) 0.070(3) 0.1125(14)
C31 C 0.12610(14) 0.2356(3) 0.14054(15)
H20 H 0.1523(12) 0.210(3) 0.1879(15)
H21 H 0.0936(13) 0.194(3) 0.1267(15)
C32 C 0.12031(18) 0.3898(4) 0.13279(19)
H22 H 0.1074(12) 0.431(3) 0.1544(14)
H23 H 0.0949(15) 0.418(4) 0.0876(18)
H24 H 0.1559(14) 0.435(3) 0.1512(15)
C33 C 0.13352(13) 0.2661(3) 0.00747(14)
H25 H 0.1652(13) 0.308(3) 0.0299(14)
O11 O 0.31767(8) 0.1221(2) 0.05035(9)
N5 N 0.36384(10) 0.1509(3) 0.10790(11)
C34 C 0.37738(14) 0.0868(3) 0.16919(14)
C35 C 0.39252(17) -0.0636(4) 0.16807(19)
H26 H 0.4245(15) -0.078(4) 0.1671(17)
H27 H 0.3635(16) -0.102(4) 0.1279(19)
H28 H 0.4022(14) -0.113(4) 0.2067(17)
C36 C 0.32768(17) 0.0921(5) 0.17042(19)
H29 H 0.3161(13) 0.178(4) 0.1661(15)
H30 H 0.3374(13) 0.053(4) 0.2085(18)
H31 H 0.2994(17) 0.040(4) 0.139(2)
C37 C 0.42776(13) 0.1776(3) 0.22097(14)
C38 C 0.41127(19) 0.3144(4) 0.23493(19)
H32 H 0.3811(17) 0.354(4) 0.193(2)
H33 H 0.4426(15) 0.369(4) 0.2602(17)
H34 H 0.3985(15) 0.297(4) 0.2587(19)
C39 C 0.47274(18) 0.1045(4) 0.28414(17)
H35 H 0.4896(15) 0.036(4) 0.2765(18)
H36 H 0.4603(15) 0.085(4) 0.3092(19)
H37 H 0.5053(15) 0.167(4) 0.3121(16)
N6 N 0.44923(10) 0.2154(3) 0.18294(11)
O12 O 0.49857(9) 0.2624(2) 0.21008(10)
C40 C 0.40888(12) 0.2089(3) 0.11782(13)
C41 C 0.41376(12) 0.2530(3) 0.06772(14)
C42 C 0.45562(13) 0.3315(3) 0.07378(15)
H38 H 0.4866(13) 0.368(3) 0.1076(15)
N7 N 0.44569(10) 0.3502(3) 0.01638(11)
N8 N 0.39663(9) 0.2818(3) -0.02725(11)
C43 C 0.37076(13) 0.2759(4) -0.09765(15)
H39 H 0.3939(12) 0.318(3) -0.1022(13)
H40 H 0.3677(12) 0.179(4) -0.1100(14)
C44 C 0.31508(15) 0.3477(5) -0.13876(17)
H41 H 0.3212(16) 0.439(4) -0.1265(19)
H42 H 0.2908(14) 0.311(4) -0.1300(16)
C45 C 0.2876(2) 0.3275(7) -0.21092(19)
H43 H 0.2558(17) 0.379(5) -0.234(2)
H44 H 0.2842(16) 0.232(4) -0.2209(18)
H45 H 0.3132(15) 0.355(4) -0.2221(16)
C46 C 0.37670(13) 0.2235(3) 0.00170(14)
H46 H 0.3449(13) 0.168(3) -0.0214(14)
O1B O 0.05884(8) -0.0641(2) 0.08865(9)
C1B C 0.13140(13) -0.1951(3) 0.17484(14)
F1B F 0.16553(9) -0.2986(2) 0.18952(9)
F2B F 0.16362(9) -0.0835(2) 0.20507(9)
F3B F 0.10693(9) -0.2170(3) 0.20266(10)
C2B C 0.08879(12) -0.1693(3) 0.10171(14)
C3B C 0.08643(14) -0.2608(3) 0.05924(15)
H1B H 0.1073(13) -0.324(3) 0.0729(15)
C4B C 0.04668(12) -0.2496(3) -0.00879(14)
C5B C 0.04400(13) -0.3687(3) -0.04979(14)
F4B F 0.09470(7) -0.41084(19) -0.02876(9)
F5B F 0.01637(10) -0.3372(2) -0.11185(9)
F6B F 0.01959(8) -0.4783(2) -0.04536(10)
O2B O 0.01192(8) -0.1559(2) -0.04005(9)
Cu2B Cu -0.251811(12) -0.25599(3) 0.001067(14)
O3B O -0.24127(8) -0.1501(2) 0.08565(10)
C6B C -0.23674(17) 0.0354(4) 0.14657(18)
F7B F -0.21137(12) -0.0413(3) 0.20069(11)
F8B F -0.21865(11) 0.1633(2) 0.16484(11)
F9B F -0.29061(10) 0.0353(3) 0.12053(12)
C7B C -0.22809(12) -0.0274(4) 0.09837(15)
C8B C -0.20703(14) 0.0587(4) 0.07398(16)
H2B H -0.1983(13) 0.147(4) 0.0870(15)
C9B C -0.19821(12) 0.0139(3) 0.02992(16)
C10B C -0.17305(14) 0.1150(4) 0.00870(18)
F10B F -0.18873(14) 0.0915(3) -0.05024(14)
F11B F -0.11817(10) 0.1039(3) 0.04687(16)
F12B F -0.18441(9) 0.24506(19) 0.01116(11)
O4B O -0.20718(8) -0.1039(2) 0.00407(10)
O5B O -0.29590(8) -0.4066(2) 0.00064(10)
C11B C -0.32878(15) -0.6249(4) -0.00089(18)
F13B F -0.37413(13) -0.5856(3) -0.0130(2)
F14B F -0.29371(14) -0.6340(3) 0.06469(13)
F15B F -0.33238(11) -0.7536(2) -0.01927(12)
C12B C -0.30569(12) -0.5247(3) -0.02509(15)
C13B C -0.29864(13) -0.5712(4) -0.07069(16)
H3B H -0.3078(13) -0.664(4) -0.0848(15)
C14B C -0.27774(12) -0.4873(4) -0.09581(14)
C15B C -0.26732(15) -0.5543(4) -0.14179(17)
F16B F -0.28705(12) -0.4778(3) -0.19424(11)
F17B F -0.28890(11) -0.6792(3) -0.16240(12)
F18B F -0.21293(9) -0.5665(3) -0.11183(11)
O6B O -0.26544(8) -0.3635(2) -0.08520(10)
Cu3_2 Cu -0.5000 -0.5000 0.0000
O7B O 0.56439(8) 0.4333(2) 0.08625(9)
C16B C 0.62626(14) 0.2767(4) 0.16826(16)
F19B F 0.64206(14) 0.1506(3) 0.17926(11)
F20B F 0.60924(14) 0.3059(4) 0.20156(12)
F21B F 0.67137(13) 0.3465(4) 0.19428(15)
C17B C 0.58333(12) 0.3126(3) 0.09593(14)
C18B C 0.56946(14) 0.2115(4) 0.05055(15)
H4B H 0.5818(12) 0.129(3) 0.0619(14)
C19B C 0.53104(12) 0.2343(3) -0.01649(14)
C20B C 0.51821(14) 0.1135(3) -0.06199(16)
F22B F 0.54047(10) 0.1307(2) -0.09283(11)
F23B F 0.46322(8) 0.1014(2) -0.10882(10)
F24B F 0.53426(10) -0.0076(2) -0.03229(10)
O8B O 0.50463(8) 0.3425(2) -0.04547(9)
O9B O -0.18517(8) -0.3885(2) 0.04797(9)
N1B N -0.13715(10) -0.3629(3) 0.10401(11)
C21B C -0.12121(13) -0.4260(3) 0.16654(14)
C22B C -0.10781(17) -0.5772(4) 0.16439(18)
H5B H -0.0771(13) -0.593(3) 0.1622(14)
H6B H -0.0977(13) -0.624(3) 0.2026(16)
H7B H -0.1388(14) -0.615(3) 0.1251(17)
C23B C -0.16890(15) -0.4141(4) 0.17174(18)
H8B H -0.1809(12) -0.322(4) 0.1641(14)
H9B H -0.1978(16) -0.473(4) 0.1428(19)
H10B H -0.1572(14) -0.451(4) 0.2115(18)
C24B C -0.06890(12) -0.3370(3) 0.21655(13)
C25B C -0.02308(16) -0.4110(4) 0.27874(16)
H11B H -0.0104(14) -0.486(4) 0.2677(16)
H12B H 0.0111(14) -0.346(4) 0.3079(16)
H13B H -0.0340(14) -0.426(4) 0.3058(18)
C26B C -0.08309(17) -0.1987(4) 0.23212(18)
H14B H -0.1124(15) -0.159(4) 0.1910(19)
H15B H -0.0931(13) -0.218(4) 0.2579(17)
H16B H -0.0500(14) -0.141(4) 0.2569(16)
N2B N -0.05025(10) -0.3026(3) 0.17541(11)
O10B O -0.00129(9) -0.2582(2) 0.19962(10)
C27B C -0.09313(12) -0.3071(3) 0.11069(13)
C28B C -0.09171(12) -0.2565(3) 0.05873(13)
C29B C -0.04976(13) -0.1793(3) 0.06387(15)
H17B H -0.0157(13) -0.152(3) 0.1006(15)
N3B N -0.06447(10) -0.1427(3) 0.00547(11)
N4B N -0.11665(9) -0.1979(3) -0.03778(11)
C30B C -0.14940(13) -0.1709(4) -0.10823(14)
H18B H -0.1816(14) -0.212(3) -0.1229(15)
H19B H -0.1518(12) -0.070(3) -0.1125(14)
C31B C -0.12610(14) -0.2356(3) -0.14054(15)
H20B H -0.1523(12) -0.210(3) -0.1879(15)
H21B H -0.0936(13) -0.194(3) -0.1267(15)
C32B C -0.12031(18) -0.3898(4) -0.13279(19)
H22B H -0.1074(12) -0.431(3) -0.1544(14)
H23B H -0.0949(15) -0.418(4) -0.0876(18)
H24B H -0.1559(14) -0.435(3) -0.1512(15)
C33B C -0.13352(13) -0.2661(3) -0.00747(14)
H25B H -0.1652(13) -0.308(3) -0.0299(14)
O11B O -0.31767(8) -0.1221(2) -0.05035(9)
N5B N -0.36384(10) -0.1509(3) -0.10790(11)
C34B C -0.37738(14) -0.0868(3) -0.16919(14)
C35B C -0.39252(17) 0.0636(4) -0.16807(19)
H26B H -0.4245(15) 0.078(4) -0.1671(17)
H27B H -0.3635(16) 0.102(4) -0.1279(19)
H28B H -0.4022(14) 0.113(4) -0.2067(17)
C36B C -0.32768(17) -0.0921(5) -0.17042(19)
H29B H -0.3161(13) -0.178(4) -0.1661(15)
H30B H -0.3374(13) -0.053(4) -0.2085(18)
H31B H -0.2994(17) -0.040(4) -0.139(2)
C37B C -0.42776(13) -0.1776(3) -0.22097(14)
C38B C -0.41127(19) -0.3144(4) -0.23493(19)
H32B H -0.3811(17) -0.354(4) -0.193(2)
H33B H -0.4426(15) -0.369(4) -0.2602(17)
H34B H -0.3985(15) -0.297(4) -0.2587(19)
C39B C -0.47274(18) -0.1045(4) -0.28414(17)
H35B H -0.4896(15) -0.036(4) -0.2765(18)
H36B H -0.4603(15) -0.085(4) -0.3092(19)
H37B H -0.5053(15) -0.167(4) -0.3121(16)
N6B N -0.44923(10) -0.2154(3) -0.18294(11)
O12B O -0.49857(9) -0.2624(2) -0.21008(10)
C40B C -0.40888(12) -0.2089(3) -0.11782(13)
C41B C -0.41376(12) -0.2530(3) -0.06772(14)
C42B C -0.45562(13) -0.3315(3) -0.07378(15)
H38B H -0.4866(13) -0.368(3) -0.1076(15)
N7B N -0.44569(10) -0.3502(3) -0.01638(11)
N7B_2 N 0.55431(10) 0.6498(3) -0.01638(11)
N8B N -0.39663(9) -0.2818(3) 0.02725(11)
C43B C -0.37076(13) -0.2759(4) 0.09765(15)
H39B H -0.3939(12) -0.318(3) 0.1022(13)
H40B H -0.3677(12) -0.179(4) 0.1100(14)
C44B C -0.31508(15) -0.3477(5) 0.13876(17)
H41B H -0.3212(16) -0.439(4) 0.1265(19)
H42B H -0.2908(14) -0.311(4) 0.1300(16)
C45B C -0.2876(2) -0.3275(7) 0.21092(19)
H43B H -0.2558(17) -0.379(5) 0.234(2)
H44B H -0.2842(16) -0.232(4) 0.2209(18)
H45B H -0.3132(15) -0.355(4) 0.2221(16)
C46B C -0.37670(13) -0.2235(3) -0.00170(14)
H46B H -0.3449(13) -0.168(3) 0.0214(14)
loop_
_geom_bond_atom_site_label_1
_geom_bond_atom_site_label_2
_geom_bond_site_symmetry_1
_geom_bond_site_symmetry_2
Cu1 O1 1_555 1_555
O1 C2 1_555 1_555
C1 F1 1_555 1_555
F2 C1 1_555 1_555
F3 C1 1_555 1_555
C2 C1 1_555 1_555
C3 C2 1_555 1_555
H1 C3 1_555 1_555
C4 C3 1_555 1_555
C5 C4 1_555 1_555
F4 C5 1_555 1_555
F5 C5 1_555 1_555
F6 C5 1_555 1_555
O2 Cu1 1_555 1_555
Cu2 O3 1_555 1_555
O3 C7 1_555 1_555
C6 F7 1_555 1_555
F8 C6 1_555 1_555
F9 C6 1_555 1_555
C7 C6 1_555 1_555
C8 C7 1_555 1_555
H2 C8 1_555 1_555
C9 C8 1_555 1_555
C10 C9 1_555 1_555
F10 C10 1_555 1_555
F11 C10 1_555 1_555
F12 C10 1_555 1_555
O4 Cu2 1_555 1_555
O5 Cu2 1_555 1_555
C11 F13 1_555 1_555
F14 C11 1_555 1_555
F15 C11 1_555 1_555
C12 O5 1_555 1_555
C13 C12 1_555 1_555
H3 C13 1_555 1_555
C14 C13 1_555 1_555
C15 C14 1_555 1_555
F16 C15 1_555 1_555
F17 C15 1_555 1_555
F18 C15 1_555 1_555
O6 Cu2 1_555 1_555
Cu3 O7 1_555 1_555
O7 C17 1_555 1_555
C16 F19 1_555 1_555
F20 C16 1_555 1_555
F21 C16 1_555 1_555
C17 C16 1_555 1_555
C18 C17 1_555 1_555
H4 C18 1_555 1_555
C19 C18 1_555 1_555
C20 C19 1_555 1_555
F22 C20 1_555 1_555
F23 C20 1_555 1_555
F24 C20 1_555 1_555
O8 Cu3 1_555 1_555
O9 Cu2 1_555 1_555
N1 O9 1_555 1_555
C21 N1 1_555 1_555
C22 C21 1_555 1_555
H5 C22 1_555 1_555
H6 C22 1_555 1_555
H7 C22 1_555 1_555
C23 C21 1_555 1_555
H8 C23 1_555 1_555
H9 C23 1_555 1_555
H10 C23 1_555 1_555
C24 C21 1_555 1_555
C25 C24 1_555 1_555
H11 C25 1_555 1_555
H12 C25 1_555 1_555
H13 C25 1_555 1_555
C26 C24 1_555 1_555
H14 C26 1_555 1_555
H15 C26 1_555 1_555
H16 C26 1_555 1_555
N2 C24 1_555 1_555
O10 N2 1_555 1_555
C27 N1 1_555 1_555
C28 C27 1_555 1_555
C29 C28 1_555 1_555
H17 C29 1_555 1_555
N3 Cu1 1_555 1_555
N4 N3 1_555 1_555
C30 N4 1_555 1_555
H18 C30 1_555 1_555
H19 C30 1_555 1_555
C31 C30 1_555 1_555
H20 C31 1_555 1_555
H21 C31 1_555 1_555
C32 C31 1_555 1_555
H22 C32 1_555 1_555
H23 C32 1_555 1_555
H24 C32 1_555 1_555
C33 C28 1_555 1_555
H25 C33 1_555 1_555
O11 Cu2 1_555 1_555
N5 O11 1_555 1_555
C34 N5 1_555 1_555
C35 C34 1_555 1_555
H26 C35 1_555 1_555
H27 C35 1_555 1_555
H28 C35 1_555 1_555
C36 C34 1_555 1_555
H29 C36 1_555 1_555
H30 C36 1_555 1_555
H31 C36 1_555 1_555
C37 C34 1_555 1_555
C38 C37 1_555 1_555
H32 C38 1_555 1_555
H33 C38 1_555 1_555
H34 C38 1_555 1_555
C39 C37 1_555 1_555
H35 C39 1_555 1_555
H36 C39 1_555 1_555
H37 C39 1_555 1_555
N6 C37 1_555 1_555
O12 N6 1_555 1_555
C40 N5 1_555 1_555
C41 C40 1_555 1_555
C42 C41 1_555 1_555
H38 C42 1_555 1_555
N7 Cu3 1_555 1_555
N8 N7 1_555 1_555
C43 N8 1_555 1_555
H39 C43 1_555 1_555
H40 C43 1_555 1_555
C44 C43 1_555 1_555
H41 C44 1_555 1_555
H42 C44 1_555 1_555
C45 C44 1_555 1_555
H43 C45 1_555 1_555
H44 C45 1_555 1_555
H45 C45 1_555 1_555
C46 C41 1_555 1_555
H46 C46 1_555 1_555
O1B Cu1 1_555 1_555
C1B F1B 1_555 1_555
F2B C1B 1_555 1_555
F3B C1B 1_555 1_555
C2B O1B 1_555 1_555
C3B C2B 1_555 1_555
H1B C3B 1_555 1_555
C4B C3B 1_555 1_555
C5B C4B 1_555 1_555
F4B C5B 1_555 1_555
F5B C5B 1_555 1_555
F6B C5B 1_555 1_555
O2B Cu1 1_555 1_555
Cu2B O3B 1_555 1_555
O3B C7B 1_555 1_555
C6B F7B 1_555 1_555
F8B C6B 1_555 1_555
F9B C6B 1_555 1_555
C7B C6B 1_555 1_555
C8B C7B 1_555 1_555
H2B C8B 1_555 1_555
C9B C8B 1_555 1_555
C10B C9B 1_555 1_555
F10B C10B 1_555 1_555
F11B C10B 1_555 1_555
F12B C10B 1_555 1_555
O4B Cu2B 1_555 1_555
O5B Cu2B 1_555 1_555
C11B F13B 1_555 1_555
F14B C11B 1_555 1_555
F15B C11B 1_555 1_555
C12B O5B 1_555 1_555
C13B C12B 1_555 1_555
H3B C13B 1_555 1_555
C14B C13B 1_555 1_555
C15B C14B 1_555 1_555
F16B C15B 1_555 1_555
F17B C15B 1_555 1_555
F18B C15B 1_555 1_555
O6B Cu2B 1_555 1_555
Cu3_2 N7B 1_555 1_555
O7B Cu3 1_555 1_555
C16B F19B 1_555 1_555
F20B C16B 1_555 1_555
F21B C16B 1_555 1_555
C17B O7B 1_555 1_555
C18B C17B 1_555 1_555
H4B C18B 1_555 1_555
C19B C18B 1_555 1_555
C20B C19B 1_555 1_555
F22B C20B 1_555 1_555
F23B C20B 1_555 1_555
F24B C20B 1_555 1_555
O8B Cu3 1_555 1_555
O9B Cu2B 1_555 1_555
N1B O9B 1_555 1_555
C21B N1B 1_555 1_555
C22B C21B 1_555 1_555
H5B C22B 1_555 1_555
H6B C22B 1_555 1_555
H7B C22B 1_555 1_555
C23B C21B 1_555 1_555
H8B C23B 1_555 1_555
H9B C23B 1_555 1_555
H10B C23B 1_555 1_555
C24B C21B 1_555 1_555
C25B C24B 1_555 1_555
H11B C25B 1_555 1_555
H12B C25B 1_555 1_555
H13B C25B 1_555 1_555
C26B C24B 1_555 1_555
H14B C26B 1_555 1_555
H15B C26B 1_555 1_555
H16B C26B 1_555 1_555
N2B C24B 1_555 1_555
O10B N2B 1_555 1_555
C27B N1B 1_555 1_555
C28B C27B 1_555 1_555
C29B C28B 1_555 1_555
H17B C29B 1_555 1_555
N3B Cu1 1_555 1_555
N4B N3B 1_555 1_555
C30B N4B 1_555 1_555
H18B C30B 1_555 1_555
H19B C30B 1_555 1_555
C31B C30B 1_555 1_555
H20B C31B 1_555 1_555
H21B C31B 1_555 1_555
C32B C31B 1_555 1_555
H22B C32B 1_555 1_555
H23B C32B 1_555 1_555
H24B C32B 1_555 1_555
C33B C28B 1_555 1_555
H25B C33B 1_555 1_555
O11B Cu2B 1_555 1_555
N5B O11B 1_555 1_555
C34B N5B 1_555 1_555
C35B C34B 1_555 1_555
H26B C35B 1_555 1_555
H27B C35B 1_555 1_555
H28B C35B 1_555 1_555
C36B C34B 1_555 1_555
H29B C36B 1_555 1_555
H30B C36B 1_555 1_555
H31B C36B 1_555 1_555
C37B C34B 1_555 1_555
C38B C37B 1_555 1_555
H32B C38B 1_555 1_555
H33B C38B 1_555 1_555
H34B C38B 1_555 1_555
C39B C37B 1_555 1_555
H35B C39B 1_555 1_555
H36B C39B 1_555 1_555
H37B C39B 1_555 1_555
N6B C37B 1_555 1_555
O12B N6B 1_555 1_555
C40B N5B 1_555 1_555
C41B C40B 1_555 1_555
C42B C41B 1_555 1_555
H38B C42B 1_555 1_555
N7B C42B 1_555 1_555
N7B_2 Cu3 1_555 1_555
N8B N7B 1_555 1_555
C43B N8B 1_555 1_555
H39B C43B 1_555 1_555
H40B C43B 1_555 1_555
C44B C43B 1_555 1_555
H41B C44B 1_555 1_555
H42B C44B 1_555 1_555
C45B C44B 1_555 1_555
H43B C45B 1_555 1_555
H44B C45B 1_555 1_555
H45B C45B 1_555 1_555
C46B C41B 1_555 1_555
H46B C46B 1_555 1_555
C4 O2 1_555 1_555
C9 O4 1_555 1_555
C11 C12 1_555 1_555
C14 O6 1_555 1_555
C19 O8 1_555 1_555
N2 C27 1_555 1_555
C29 N3 1_555 1_555
N4 C33 1_555 1_555
N6 C40 1_555 1_555
C42 N7 1_555 1_555
N8 C46 1_555 1_555
C1B C2B 1_555 1_555
C4B O2B 1_555 1_555
C9B O4B 1_555 1_555
C11B C12B 1_555 1_555
C14B O6B 1_555 1_555
C16B C17B 1_555 1_555
C19B O8B 1_555 1_555
N2B C27B 1_555 1_555
C29B N3B 1_555 1_555
N4B C33B 1_555 1_555
N6B C40B 1_555 1_555
N8B C46B 1_555 1_555

#END
