
#######################################################################
#
#                 Cambridge Crystallographic Data Centre
#                                CCDC 
#
#######################################################################
#
# If this CIF has been generated from an entry in the Cambridge 
# Structural Database, then it will include bibliographic, chemical, 
# crystal, experimental, refinement or atomic coordinate data resulting 
# from the CCDC's data processing and validation procedures.
#
#######################################################################

data_LUPQES
_symmetry_cell_setting           triclinic
_symmetry_space_group_name_H-M   'P -1'
_symmetry_Int_Tables_number      2
_space_group_name_Hall           '-P 1'
loop_
_symmetry_equiv_pos_site_id
_symmetry_equiv_pos_as_xyz
1 x,y,z
2 -x,-y,-z
_cell_length_a                   7.200(4)
_cell_length_b                   11.245(4)
_cell_length_c                   13.703(5)
_cell_angle_alpha                111.66(2)
_cell_angle_beta                 90.86(2)
_cell_angle_gamma                88.01(2)
_cell_volume                     1030.49
loop_
_atom_site_label
_atom_site_type_symbol
_atom_site_fract_x
_atom_site_fract_y
_atom_site_fract_z
V1 V 0.74980(4) 0.20388(2) 0.26343(2)
Na1 Na 0.74974(9) 0.50071(6) 0.50659(5)
O1 O 0.74187(19) 0.35723(11) 0.32021(9)
O2 O 0.57327(18) 0.15172(12) 0.33828(9)
O3 O 0.49042(17) 0.16954(12) 0.24672(10)
O4 O 1.01212(17) 0.17219(12) 0.24391(10)
O5 O 0.94107(18) 0.15368(12) 0.33638(9)
O6 O 0.7540(2) 0.62385(14) 0.69049(11)
O7 O 0.50389(19) 0.36929(14) 0.51902(13)
O8 O 1.01455(19) 0.36782(14) 0.51622(12)
N1 N 0.75841(19) -0.00331(13) 0.14313(10)
C1 C 0.7675(3) -0.10826(17) 0.16667(15)
C2 C 0.7721(3) -0.22992(19) 0.09165(16)
C3 C 0.7651(3) -0.24358(19) -0.01287(16)
C4 C 0.7557(3) -0.13672(19) -0.03846(14)
C5 C 0.7528(2) -0.01684(16) 0.04179(12)
C6 C 0.7428(2) 0.10432(17) 0.02299(13)
C7 C 0.7369(3) 0.1087(2) -0.07674(16)
C8 C 0.7279(4) 0.2244(2) -0.08807(18)
C9 C 0.7249(4) 0.3351(2) -0.00013(19)
C10 C 0.7314(3) 0.3258(2) 0.09771(17)
N2 N 0.7401(2) 0.21245(14) 0.10934(11)
H1 H 0.776(3) -0.0927(18) 0.2338(17)
H2 H 0.778(3) -0.306(2) 0.1156(17)
H3 H 0.765(4) -0.330(2) -0.0657(19)
H4 H 0.749(3) -0.146(2) -0.1072(19)
H5 H 0.733(4) 0.040(2) -0.132(2)
H6 H 0.720(4) 0.226(2) -0.157(2)
H7 H 0.723(4) 0.421(3) -0.002(2)
H8 H 0.736(3) 0.395(2) 0.1604(18)
H9 H 0.841(4) 0.670(2) 0.7073(18)
H10 H 0.679(4) 0.664(2) 0.6959(19)
H11 H 0.513(4) 0.310(3) 0.471(2)
H12 H 0.493(3) 0.346(2) 0.563(2)
H13 H 0.997(3) 0.305(3) 0.467(2)
H14 H 1.018(4) 0.345(2) 0.562(2)
O7A O 0.49611(19) 0.63071(14) 0.48098(13)
O8A O 0.98545(19) 0.63218(14) 0.48378(12)
Na1A Na 0.25026(9) 0.49929(6) 0.49341(5)
Na1A_2 Na 1.25026(9) 0.49929(6) 0.49341(5)
H11A H 0.487(4) 0.690(3) 0.529(2)
H12A H 0.507(3) 0.654(2) 0.437(2)
H13A H 1.003(3) 0.695(3) 0.533(2)
H14A H 0.982(4) 0.655(2) 0.438(2)
O9 O 0.4242(3) 0.29812(19) 0.69342(14)
H15 H 0.452(5) 0.220(3) 0.667(2)
H16 H 0.318(5) 0.295(3) 0.698(2)
O10 O 0.0358(2) 0.2955(2) 0.69545(15)
H17 H 0.001(4) 0.221(3) 0.671(2)
H18 H -0.039(5) 0.340(3) 0.725(3)
O11 O 0.9325(3) 0.04045(18) 0.60414(18)
H19 H 0.961(4) -0.013(3) 0.628(2)
H20 H 0.916(8) 0.013(5) 0.551(4)
O12 O 0.5488(3) 0.04247(18) 0.6071(2)
H21 H 0.530(4) -0.008(3) 0.632(2)
H22 H 0.566(9) 0.027(6) 0.561(4)
O13 O 0.7318(3) 0.45083(18) 0.78995(14)
H23 H 0.727(4) 0.503(3) 0.761(2)
H24 H 0.648(5) 0.413(3) 0.765(2)
loop_
_geom_bond_atom_site_label_1
_geom_bond_atom_site_label_2
_geom_bond_site_symmetry_1
_geom_bond_site_symmetry_2
V1 O1 1_555 1_555
Na1 O1 1_555 1_555
O2 V1 1_555 1_555
O3 V1 1_555 1_555
O4 V1 1_555 1_555
O5 V1 1_555 1_555
O6 Na1 1_555 1_555
O7 Na1 1_555 1_555
O8 Na1 1_555 1_555
N1 V1 1_555 1_555
C1 N1 1_555 1_555
C2 C1 1_555 1_555
C3 C2 1_555 1_555
C4 C3 1_555 1_555
C5 N1 1_555 1_555
C6 C5 1_555 1_555
C7 C6 1_555 1_555
C8 C7 1_555 1_555
C9 C8 1_555 1_555
C10 C9 1_555 1_555
N2 V1 1_555 1_555
H1 C1 1_555 1_555
H2 C2 1_555 1_555
H3 C3 1_555 1_555
H4 C4 1_555 1_555
H5 C7 1_555 1_555
H6 C8 1_555 1_555
H7 C9 1_555 1_555
H8 C10 1_555 1_555
H9 O6 1_555 1_555
H10 O6 1_555 1_555
H11 O7 1_555 1_555
H12 O7 1_555 1_555
H13 O8 1_555 1_555
H14 O8 1_555 1_555
O9 H15 1_555 1_555
H16 O9 1_555 1_555
O10 H17 1_555 1_555
H18 O10 1_555 1_555
O11 H19 1_555 1_555
H20 O11 1_555 1_555
O12 H21 1_555 1_555
H22 O12 1_555 1_555
O13 H23 1_555 1_555
H24 O13 1_555 1_555
O7A Na1 1_555 1_555
O8A Na1 1_555 1_555
Na1A O7 1_555 1_555
Na1A_2 O8 1_555 1_555
H11A O7A 1_555 1_555
H12A O7A 1_555 1_555
H13A O8A 1_555 1_555
H14A O8A 1_555 1_555
O2 O3 1_555 1_555
O4 O5 1_555 1_555
C4 C5 1_555 1_555
C6 N2 1_555 1_555
C10 N2 1_555 1_555
O7A Na1A 1_555 1_555
O8A Na1A_2 1_555 1_555

#END
