
#######################################################################
#
#                 Cambridge Crystallographic Data Centre
#                                CCDC 
#
#######################################################################
#
# If this CIF has been generated from an entry in the Cambridge 
# Structural Database, then it will include bibliographic, chemical, 
# crystal, experimental, refinement or atomic coordinate data resulting 
# from the CCDC's data processing and validation procedures.
#
#######################################################################

data_LUPTOG
_symmetry_cell_setting           triclinic
_symmetry_space_group_name_H-M   'P -1'
_symmetry_Int_Tables_number      2
_space_group_name_Hall           '-P 1'
loop_
_symmetry_equiv_pos_site_id
_symmetry_equiv_pos_as_xyz
1 x,y,z
2 -x,-y,-z
_cell_length_a                   10.7696(15)
_cell_length_b                   11.4839(16)
_cell_length_c                   13.9827(19)
_cell_angle_alpha                94.670(2)
_cell_angle_beta                 96.556(2)
_cell_angle_gamma                94.331(2)
_cell_volume                     1706.03
loop_
_atom_site_label
_atom_site_type_symbol
_atom_site_fract_x
_atom_site_fract_y
_atom_site_fract_z
Cu1 Cu 0.0000 1.0000 0.0000
Cu2 Cu 0.0000 0.5000 0.5000
C1 C 0.1370(4) 1.2070(3) 0.1110(3)
H1 H 0.1324 1.2359 0.0506
C2 C 0.1968(4) 1.2785(3) 0.1909(3)
H2 H 0.2299 1.3542 0.1841
C3 C 0.2059(4) 1.2345(3) 0.2802(2)
H3 H 0.2462 1.2799 0.3346
C4 C 0.1546(3) 1.1225(3) 0.2880(2)
C5 C 0.0935(3) 1.0587(3) 0.2048(2)
H4 H 0.0560 0.9842 0.2102
C6 C 0.1598(3) 1.0756(3) 0.3821(2)
C7 C 0.1622(3) 0.9580(3) 0.4968(2)
C8 C 0.1637(3) 0.8532(3) 0.5506(2)
C9 C 0.2249(4) 0.8586(3) 0.6423(3)
H5 H 0.2710 0.9271 0.6702
C10 C 0.2171(5) 0.7610(4) 0.6923(3)
H6 H 0.2545 0.7642 0.7559
C11 C 0.1547(4) 0.6598(4) 0.6491(3)
H7 H 0.1549 0.5931 0.6826
C12 C 0.0993(3) 0.7480(3) 0.5124(2)
H8 H 0.0579 0.7435 0.4499
C13 C -0.2031(3) 0.9788(4) 0.0794(2)
C14 C -0.3327(3) 0.9944(4) 0.1080(2)
C15 C -0.3939(4) 1.0938(4) 0.0903(3)
H9 H -0.3563 1.1550 0.0613
C16 C -0.5143(5) 1.0982(6) 0.1181(4)
H10 H -0.5542 1.1662 0.1090
C17 C -0.5770(7) 1.0108(9) 0.1571(4)
H11 H -0.6589 1.0160 0.1710
C18 C -0.5149(5) 0.9161(7) 0.1747(4)
H12 H -0.5537 0.8559 0.2041
C19 C -0.3951(4) 0.9052(4) 0.1504(3)
H13 H -0.3558 0.8376 0.1625
C20 C 0.1519(6) 0.5413(3) 0.3417(3)
C21 C 0.1465(5) 0.5833(3) 0.2404(3)
C22 C 0.0359(6) 0.5935(4) 0.1869(4)
H14 H -0.0389 0.5737 0.2113
C23 C 0.0335(7) 0.6328(6) 0.0968(4)
H15 H -0.0431 0.6414 0.0611
C24 C 0.1400(9) 0.6587(7) 0.0600(5)
H16 H 0.1369 0.6799 -0.0029
C25 C 0.2510(7) 0.6545(5) 0.1121(5)
H17 H 0.3245 0.6779 0.0872
C26 C 0.2567(5) 0.6151(4) 0.2041(4)
H18 H 0.3337 0.6103 0.2405
N1 N 0.0862(2) 1.0991(3) 0.11753(18)
N2 N 0.1605(3) 1.1411(2) 0.46458(19)
N3 N 0.1637(3) 1.0646(2) 0.53725(18)
N4 N 0.1618(2) 0.9602(2) 0.39902(18)
N5 N 0.1771(3) 0.8695(2) 0.33005(18)
H19 H 0.1861 0.8844 0.2718
H20 H 0.1775 0.7987 0.3457
N6 N 0.0936(3) 0.6529(2) 0.56057(19)
O1 O -0.1609(2) 1.0549(2) 0.02730(16)
O2 O -0.1451(2) 0.8961(2) 0.10621(16)
O3 O 0.0447(3) 0.5335(2) 0.37267(16)
O4 O 0.2496(3) 0.5193(3) 0.3855(2)
O5 O -0.1992(3) 0.6023(2) 0.46244(17)
H21 H -0.2156 0.5653 0.5116
H22 H -0.1893 0.6731 0.4856
Cu2_2 Cu 0.0000 1.5000 -0.5000
C1A C -0.1370(4) 0.7930(3) -0.1110(3)
H1A H -0.1324 0.7641 -0.0506
C2A C -0.1968(4) 0.7215(3) -0.1909(3)
H2A H -0.2299 0.6458 -0.1841
C3A C -0.2059(4) 0.7655(3) -0.2802(2)
H3A H -0.2462 0.7201 -0.3346
C4A C -0.1546(3) 0.8775(3) -0.2880(2)
C5A C -0.0935(3) 0.9413(3) -0.2048(2)
H4A H -0.0560 1.0158 -0.2102
C6A C -0.1598(3) 0.9244(3) -0.3821(2)
C7A C -0.1622(3) 1.0420(3) -0.4968(2)
C8A C -0.1637(3) 1.1468(3) -0.5506(2)
C9A C -0.2249(4) 1.1414(3) -0.6423(3)
H5A H -0.2710 1.0729 -0.6702
C10A C -0.2171(5) 1.2390(4) -0.6923(3)
H6A H -0.2545 1.2358 -0.7559
C11A C -0.1547(4) 1.3402(4) -0.6491(3)
H7A H -0.1549 1.4069 -0.6826
C12A C -0.0993(3) 1.2520(3) -0.5124(2)
H8A H -0.0579 1.2565 -0.4499
C13A C 0.2031(3) 1.0212(4) -0.0794(2)
C14A C 0.3327(3) 1.0056(4) -0.1080(2)
C15A C 0.3939(4) 0.9062(4) -0.0903(3)
H9A H 0.3563 0.8450 -0.0613
C16A C 0.5143(5) 0.9018(6) -0.1181(4)
H10A H 0.5542 0.8338 -0.1090
C17A C 0.5770(7) 0.9892(9) -0.1571(4)
H11A H 0.6589 0.9840 -0.1710
C18A C 0.5149(5) 1.0839(7) -0.1747(4)
H12A H 0.5537 1.1441 -0.2041
C19A C 0.3951(4) 1.0948(4) -0.1504(3)
H13A H 0.3558 1.1624 -0.1625
C20A C -0.1519(6) 0.4587(3) 0.6583(3)
C21A C -0.1465(5) 0.4167(3) 0.7596(3)
C22A C -0.0359(6) 0.4065(4) 0.8131(4)
H14A H 0.0389 0.4263 0.7887
C23A C -0.0335(7) 0.3672(6) 0.9032(4)
H15A H 0.0431 0.3586 0.9389
C24A C -0.1400(9) 0.3413(7) 0.9400(5)
H16A H -0.1369 0.3201 1.0029
C25A C -0.2510(7) 0.3455(5) 0.8879(5)
H17A H -0.3245 0.3221 0.9128
C26A C -0.2567(5) 0.3849(4) 0.7959(4)
H18A H -0.3337 0.3897 0.7595
N1A N -0.0862(2) 0.9009(3) -0.11753(18)
N2A N -0.1605(3) 0.8589(2) -0.46458(19)
N3A N -0.1637(3) 0.9354(2) -0.53725(18)
N4A N -0.1618(2) 1.0398(2) -0.39902(18)
N5A N -0.1771(3) 1.1305(2) -0.33005(18)
H19A H -0.1861 1.1156 -0.2718
H20A H -0.1775 1.2013 -0.3457
N6A N -0.0936(3) 1.3471(2) -0.56057(19)
N6A_2 N -0.0936(3) 0.3471(2) 0.43943(19)
O1A O 0.1609(2) 0.9451(2) -0.02730(16)
O2A O 0.1451(2) 1.1039(2) -0.10621(16)
O3A O -0.0447(3) 0.4665(2) 0.62733(16)
O4A O -0.2496(3) 0.4807(3) 0.6145(2)
O5A O 0.1992(3) 0.3977(2) 0.53756(17)
H21A H 0.2156 0.4347 0.4884
H22A H 0.1893 0.3269 0.5144
O6 O -0.0976(2) 0.8180(2) 0.29070(16)
H23 H -0.1129 0.8418 0.2349
H24 H -0.0185 0.8330 0.3020
loop_
_geom_bond_atom_site_label_1
_geom_bond_atom_site_label_2
_geom_bond_site_symmetry_1
_geom_bond_site_symmetry_2
Cu1 N1 1_555 1_555
Cu2 N6 1_555 1_555
C1 H1 1_555 1_555
C2 C1 1_555 1_555
H2 C2 1_555 1_555
C3 C2 1_555 1_555
H3 C3 1_555 1_555
C4 C3 1_555 1_555
C5 C4 1_555 1_555
H4 C5 1_555 1_555
C6 C4 1_555 1_555
C7 C8 1_555 1_555
C8 C9 1_555 1_555
C9 H5 1_555 1_555
C10 C9 1_555 1_555
H6 C10 1_555 1_555
C11 C10 1_555 1_555
H7 C11 1_555 1_555
C12 C8 1_555 1_555
H8 C12 1_555 1_555
C13 C14 1_555 1_555
C14 C15 1_555 1_555
C15 H9 1_555 1_555
C16 C15 1_555 1_555
H10 C16 1_555 1_555
C17 C16 1_555 1_555
H11 C17 1_555 1_555
C18 C17 1_555 1_555
H12 C18 1_555 1_555
C19 C14 1_555 1_555
H13 C19 1_555 1_555
C20 C21 1_555 1_555
C21 C22 1_555 1_555
C22 H14 1_555 1_555
C23 C22 1_555 1_555
H15 C23 1_555 1_555
C24 C23 1_555 1_555
H16 C24 1_555 1_555
C25 C24 1_555 1_555
H17 C25 1_555 1_555
C26 C21 1_555 1_555
H18 C26 1_555 1_555
N1 C1 1_555 1_555
N2 C6 1_555 1_555
N3 C7 1_555 1_555
N4 C6 1_555 1_555
N5 N4 1_555 1_555
H19 N5 1_555 1_555
H20 N5 1_555 1_555
N6 C11 1_555 1_555
O1 Cu1 1_555 1_555
O2 Cu1 1_555 1_555
O3 Cu2 1_555 1_555
O4 C20 1_555 1_555
O5 Cu2 1_555 1_555
O6 H23 1_555 1_555
H21 O5 1_555 1_555
H22 O5 1_555 1_555
H24 O6 1_555 1_555
Cu2_2 N6A 1_555 1_555
C1A H1A 1_555 1_555
C2A C1A 1_555 1_555
H2A C2A 1_555 1_555
C3A C2A 1_555 1_555
H3A C3A 1_555 1_555
C4A C3A 1_555 1_555
C5A C4A 1_555 1_555
H4A C5A 1_555 1_555
C6A C4A 1_555 1_555
C7A C8A 1_555 1_555
C8A C9A 1_555 1_555
C9A H5A 1_555 1_555
C10A C9A 1_555 1_555
H6A C10A 1_555 1_555
C11A C10A 1_555 1_555
H7A C11A 1_555 1_555
C12A C8A 1_555 1_555
H8A C12A 1_555 1_555
C13A C14A 1_555 1_555
C14A C15A 1_555 1_555
C15A H9A 1_555 1_555
C16A C15A 1_555 1_555
H10A C16A 1_555 1_555
C17A C16A 1_555 1_555
H11A C17A 1_555 1_555
C18A C17A 1_555 1_555
H12A C18A 1_555 1_555
C19A C14A 1_555 1_555
H13A C19A 1_555 1_555
C20A C21A 1_555 1_555
C21A C22A 1_555 1_555
C22A H14A 1_555 1_555
C23A C22A 1_555 1_555
H15A C23A 1_555 1_555
C24A C23A 1_555 1_555
H16A C24A 1_555 1_555
C25A C24A 1_555 1_555
H17A C25A 1_555 1_555
C26A C21A 1_555 1_555
H18A C26A 1_555 1_555
N1A Cu1 1_555 1_555
N2A C6A 1_555 1_555
N3A C7A 1_555 1_555
N4A C6A 1_555 1_555
N5A N4A 1_555 1_555
H19A N5A 1_555 1_555
H20A N5A 1_555 1_555
N6A C11A 1_555 1_555
N6A_2 Cu2 1_555 1_555
O1A Cu1 1_555 1_555
O2A Cu1 1_555 1_555
O3A Cu2 1_555 1_555
O4A C20A 1_555 1_555
O5A Cu2 1_555 1_555
H21A O5A 1_555 1_555
H22A O5A 1_555 1_555
C5 N1 1_555 1_555
C7 N4 1_555 1_555
C12 N6 1_555 1_555
C13 O1 1_555 1_555
C13 O2 1_555 1_555
C18 C19 1_555 1_555
C20 O3 1_555 1_555
C25 C26 1_555 1_555
N2 N3 1_555 1_555
C1A N1A 1_555 1_555
C5A N1A 1_555 1_555
C7A N4A 1_555 1_555
C12A N6A 1_555 1_555
C13A O1A 1_555 1_555
C13A O2A 1_555 1_555
C18A C19A 1_555 1_555
C20A O3A 1_555 1_555
C25A C26A 1_555 1_555
N2A N3A 1_555 1_555

#END
