
#######################################################################
#
#                 Cambridge Crystallographic Data Centre
#                                CCDC 
#
#######################################################################
#
# If this CIF has been generated from an entry in the Cambridge 
# Structural Database, then it will include bibliographic, chemical, 
# crystal, experimental, refinement or atomic coordinate data resulting 
# from the CCDC's data processing and validation procedures.
#
#######################################################################

data_LUPTAS
_symmetry_cell_setting           monoclinic
_symmetry_space_group_name_H-M   'P 21/c'
_symmetry_Int_Tables_number      14
_space_group_name_Hall           '-P 2ybc'
loop_
_symmetry_equiv_pos_site_id
_symmetry_equiv_pos_as_xyz
1 x,y,z
2 -x,1/2+y,1/2-z
3 -x,-y,-z
4 x,1/2-y,1/2+z
_cell_length_a                   19.368(3)
_cell_length_b                   10.0848(13)
_cell_length_c                   16.211(2)
_cell_angle_alpha                90
_cell_angle_beta                 114.701(2)
_cell_angle_gamma                90
_cell_volume                     2876.65
loop_
_atom_site_label
_atom_site_type_symbol
_atom_site_fract_x
_atom_site_fract_y
_atom_site_fract_z
Zn1 Zn 0.45316(3) 0.97192(6) 0.31846(4)
Zn2 Zn 0.00990(4) 0.98000(6) 0.66391(5)
O1 O 0.4817(2) 1.0101(3) 0.2147(2)
O2 O 0.5495(2) 1.0689(4) 0.4083(2)
O3 O -0.0845(3) 1.0796(5) 0.5781(3)
N1 N 0.3910(2) 1.1333(4) 0.3357(3)
N2 N 0.0909(3) 1.1168(4) 0.6684(3)
O4 O -0.0617(3) 0.7576(4) 0.6145(3)
N3 N 0.2757(3) 1.0601(4) 0.5883(3)
O5 O 0.3652(2) 1.0328(4) 0.1040(3)
C1 C 0.0197(3) 0.6210(5) 0.4764(4)
H1 H 0.0332 0.7042 0.4599
N4 N 0.3129(2) 1.0660(4) 0.5337(3)
O6 O 0.0412(3) 0.8313(4) 0.6077(3)
C2 C -0.0005(3) 0.6145(5) 0.5487(4)
O7 O 0.3443(2) 0.8892(4) 0.2317(3)
H2 H 0.3056 0.9145 0.2395
N5 N 0.2447(2) 1.2447(4) 0.5114(3)
C3 C 0.4351(3) 1.0266(5) 0.1328(3)
C4 C 0.3566(3) 1.1128(5) 0.3909(3)
H3 H 0.3549 1.0251 0.4113
C5 C -0.0074(4) 0.7404(5) 0.5937(4)
C6 C 0.3232(3) 1.2139(5) 0.4199(3)
C7 C 0.3918(3) 1.2573(5) 0.3053(4)
H4 H 0.4166 1.2732 0.2666
C8 C 0.1855(3) 1.1971(5) 0.6208(3)
C9 C 0.1921(3) 1.3128(6) 0.6687(4)
H5 H 0.2263 1.3805 0.6687
C10 C 0.2336(3) 1.1678(5) 0.5744(4)
C11 C 0.1341(3) 1.1020(5) 0.6217(4)
H6 H 0.1290 1.0228 0.5879
C12 C 0.3238(3) 1.3400(5) 0.3867(4)
H7 H 0.3008 1.4116 0.4039
C13 C 0.3581(3) 1.3612(6) 0.3285(4)
H8 H 0.3582 1.4472 0.3046
C14 C 0.2943(3) 1.1777(5) 0.4866(4)
C15 C 0.0995(3) 1.2284(6) 0.7163(4)
H9 H 0.0709 1.2388 0.7513
C16 C 0.1476(3) 1.3285(6) 0.7171(4)
H10 H 0.1507 1.4077 0.7502
N6 N 0.2105(3) 1.3664(5) 0.4772(4)
H11 H 0.2203 1.4073 0.4353
H12 H 0.1791 1.4022 0.4973
C17 C 0.4689(3) 1.0197(5) 0.0636(3)
C18 C 0.5098(3) 1.1221(5) 0.0453(3)
C19 C 0.5196(3) 1.2560(5) 0.0911(3)
O8 O 0.4941(2) 1.2780(3) 0.1485(2)
O9 O 0.5559(2) 1.3447(4) 0.0697(2)
C20 C -0.0207(3) 0.4927(5) 0.5732(4)
C21 C -0.0392(3) 0.4742(5) 0.6544(4)
O10 O 0.0120(2) 0.5099(4) 0.7302(3)
O11 O -0.0986(3) 0.4238(6) 0.6461(3)
N7 N -0.1925(4) 1.1927(7) 0.5557(8)
C22 C -0.2039(8) 1.2442(11) 0.4681(10)
H13 H -0.1700 1.1984 0.4464
H14 H -0.1927 1.3393 0.4731
H15 H -0.2568 1.2298 0.4250
C23 C -0.1352(4) 1.1193(7) 0.6032(7)
H16 H -0.1303 1.0927 0.6616
C24 C -0.2414(6) 1.2401(11) 0.6075(15)
H17 H -0.2269 1.1891 0.6637
H18 H -0.2954 1.2259 0.5688
H19 H -0.2322 1.3346 0.6221
C25 C 0.4589(3) 0.9001(4) 0.0169(3)
H20 H 0.4300 0.8318 0.0277
H21 H 0.5913 1.0288 0.4263
H22 H 0.5525 1.0962 0.4600
H23 H 0.3507 0.9351 0.1913
Zn1B Zn 0.54684(3) 1.02808(6) -0.31846(4)
Zn1A Zn 0.54684(3) 1.47192(6) 0.18154(4)
Zn1C Zn 0.45316(3) 0.52808(6) -0.18154(4)
Zn2B Zn 0.99010(4) 1.02000(6) -0.66391(5)
Zn2A Zn -0.00990(4) 0.48000(6) 0.83609(5)
Zn2B_2 Zn -0.00990(4) 0.02000(6) 0.33609(5)
Zn2C Zn 0.00990(4) 0.52000(6) 0.16391(5)
O1B O 0.5183(2) 0.9899(3) -0.2147(2)
O2B O 0.4505(2) 0.9311(4) -0.4083(2)
O3B O 1.0845(3) 0.9204(5) -0.5781(3)
N1B N 0.6090(2) 0.8667(4) -0.3357(3)
N2B N 0.9091(3) 0.8832(4) -0.6684(3)
O4B O 0.0617(3) 0.2424(4) 0.3855(3)
N3B N 0.7243(3) 0.9399(4) -0.5883(3)
O5B O 0.6348(2) 0.9672(4) -0.1040(3)
C1B C -0.0197(3) 0.3790(5) 0.5236(4)
H1B H -0.0332 0.2958 0.5401
N4B N 0.6871(2) 0.9340(4) -0.5337(3)
O6B O -0.0412(3) 0.1687(4) 0.3923(3)
O6B_2 O 0.9588(3) 1.1687(4) -0.6077(3)
C2B C 0.0005(3) 0.3855(5) 0.4513(4)
O7B O 0.6557(2) 1.1108(4) -0.2317(3)
H2B H 0.6944 1.0855 -0.2395
N5B N 0.7553(2) 0.7553(4) -0.5114(3)
C3B C 0.5649(3) 0.9734(5) -0.1328(3)
C4B C 0.6434(3) 0.8872(5) -0.3909(3)
H3B H 0.6451 0.9749 -0.4113
C5B C 0.0074(4) 0.2596(5) 0.4063(4)
C6B C 0.6768(3) 0.7861(5) -0.4199(3)
C7B C 0.6082(3) 0.7427(5) -0.3053(4)
H4B H 0.5834 0.7268 -0.2666
C8B C 0.8145(3) 0.8029(5) -0.6208(3)
C9B C 0.8079(3) 0.6872(6) -0.6687(4)
H5B H 0.7737 0.6195 -0.6687
C10B C 0.7664(3) 0.8322(5) -0.5744(4)
C11B C 0.8659(3) 0.8980(5) -0.6217(4)
H6B H 0.8710 0.9772 -0.5879
C12B C 0.6762(3) 0.6600(5) -0.3867(4)
H7B H 0.6992 0.5884 -0.4039
C13B C 0.6419(3) 0.6388(6) -0.3285(4)
H8B H 0.6418 0.5528 -0.3046
C14B C 0.7057(3) 0.8223(5) -0.4866(4)
C15B C 0.9005(3) 0.7716(6) -0.7163(4)
H9B H 0.9291 0.7612 -0.7513
C16B C 0.8524(3) 0.6715(6) -0.7171(4)
H10B H 0.8493 0.5923 -0.7502
N6B N 0.7895(3) 0.6336(5) -0.4772(4)
H11B H 0.7797 0.5927 -0.4353
H12B H 0.8209 0.5978 -0.4973
C17B C 0.5311(3) 0.9803(5) -0.0636(3)
C18B C 0.4902(3) 0.8779(5) -0.0453(3)
C19B C 0.4804(3) 0.7440(5) -0.0911(3)
O8B O 0.5059(2) 0.7220(3) -0.1485(2)
O8A O 0.5059(2) 0.7780(3) 0.3515(2)
O8C O 0.4941(2) 1.2220(3) -0.3515(2)
O9B O 0.4441(2) 0.6553(4) -0.0697(2)
O9A O 0.4441(2) 0.8447(4) 0.4303(2)
O9C O 0.5559(2) 1.1553(4) -0.4303(2)
C20B C 0.0207(3) 0.5073(5) 0.4268(4)
C21B C 0.0392(3) 0.5258(5) 0.3456(4)
O10B O -0.0120(2) 0.4901(4) 0.2698(3)
O10A O -0.0120(2) 1.0099(4) 0.7698(3)
O10C O 1.0120(2) 0.9901(4) -0.7698(3)
O11B O 0.0986(3) 0.5762(6) 0.3539(3)
N7B N 1.1925(4) 0.8073(7) -0.5557(8)
C22B C 1.2039(8) 0.7558(11) -0.4681(10)
H13B H 1.1700 0.8016 -0.4464
H14B H 1.1927 0.6607 -0.4731
H15B H 1.2568 0.7702 -0.4250
C23B C 1.1352(4) 0.8807(7) -0.6032(7)
H16B H 1.1303 0.9073 -0.6616
C24B C 1.2414(6) 0.7599(11) -0.6075(15)
H17B H 1.2269 0.8109 -0.6637
H18B H 1.2954 0.7741 -0.5688
H19B H 1.2322 0.6654 -0.6221
C25B C 0.5411(3) 1.0999(4) -0.0169(3)
H20B H 0.5700 1.1682 -0.0277
H21B H 0.4087 0.9712 -0.4263
H22B H 0.4475 0.9038 -0.4600
H23B H 0.6493 1.0649 -0.1913
H24 H 0.4075 1.5980 0.2372
H25 H 0.3407 1.5776 0.1827
O12 O 0.3654(2) 1.6342(4) 0.2203(3)
loop_
_geom_bond_atom_site_label_1
_geom_bond_atom_site_label_2
_geom_bond_site_symmetry_1
_geom_bond_site_symmetry_2
Zn1 O1 1_555 1_555
Zn2 O3 1_555 1_555
O1 C3 1_555 1_555
O2 Zn1 1_555 1_555
O3 C23 1_555 1_555
N1 Zn1 1_555 1_555
N2 Zn2 1_555 1_555
O4 C5 1_555 1_555
N3 N4 1_555 1_555
O5 C3 1_555 1_555
C1 H1 1_555 1_555
N4 C14 1_555 1_555
O6 Zn2 1_555 1_555
C2 C1 1_555 1_555
O7 Zn1 1_555 1_555
H2 O7 1_555 1_555
N5 C10 1_555 1_555
C3 C17 1_555 1_555
C4 N1 1_555 1_555
H3 C4 1_555 1_555
C5 O6 1_555 1_555
C6 C4 1_555 1_555
C7 N1 1_555 1_555
H4 C7 1_555 1_555
C8 C9 1_555 1_555
C9 H5 1_555 1_555
C10 N3 1_555 1_555
C11 N2 1_555 1_555
H6 C11 1_555 1_555
C12 C6 1_555 1_555
H7 C12 1_555 1_555
C13 C7 1_555 1_555
H8 C13 1_555 1_555
C14 N5 1_555 1_555
C15 N2 1_555 1_555
H9 C15 1_555 1_555
C16 C9 1_555 1_555
H10 C16 1_555 1_555
N6 N5 1_555 1_555
H11 N6 1_555 1_555
H12 N6 1_555 1_555
C17 C18 1_555 1_555
C18 C19 1_555 1_555
C19 O8 1_555 1_555
O8 Zn1A 1_555 1_555
O9 C19 1_555 1_555
C20 C2 1_555 1_555
C21 C20 1_555 1_555
O10 C21 1_555 1_555
O11 C21 1_555 1_555
N7 C22 1_555 1_555
C22 H13 1_555 1_555
H14 C22 1_555 1_555
H15 C22 1_555 1_555
C23 N7 1_555 1_555
H16 C23 1_555 1_555
C24 N7 1_555 1_555
H17 C24 1_555 1_555
H18 C24 1_555 1_555
H19 C24 1_555 1_555
C25 C17 1_555 1_555
H20 C25 1_555 1_555
H21 O2 1_555 1_555
H22 O2 1_555 1_555
H23 O7 1_555 1_555
H24 O12 1_555 1_555
H25 O12 1_555 1_555
Zn1B O1B 1_555 1_555
Zn1A O9 1_555 1_555
Zn1C O8B 1_555 1_555
Zn2B O3B 1_555 1_555
Zn2A O10 1_555 1_555
Zn2B_2 O6B 1_555 1_555
Zn2C O10B 1_555 1_555
O1B C3B 1_555 1_555
O2B Zn1B 1_555 1_555
O3B C23B 1_555 1_555
N1B Zn1B 1_555 1_555
N2B Zn2B 1_555 1_555
O4B C5B 1_555 1_555
N3B N4B 1_555 1_555
O5B C3B 1_555 1_555
C1B C20 1_555 1_555
H1B C1B 1_555 1_555
N4B C14B 1_555 1_555
O6B C5B 1_555 1_555
O6B_2 Zn2B 1_555 1_555
C2B C1B 1_555 1_555
O7B Zn1B 1_555 1_555
H2B O7B 1_555 1_555
N5B C10B 1_555 1_555
C3B C17B 1_555 1_555
C4B N1B 1_555 1_555
H3B C4B 1_555 1_555
C5B C2B 1_555 1_555
C6B C4B 1_555 1_555
C7B N1B 1_555 1_555
H4B C7B 1_555 1_555
C8B C9B 1_555 1_555
C9B H5B 1_555 1_555
C10B N3B 1_555 1_555
C11B N2B 1_555 1_555
H6B C11B 1_555 1_555
C12B C6B 1_555 1_555
H7B C12B 1_555 1_555
C13B C7B 1_555 1_555
H8B C13B 1_555 1_555
C14B N5B 1_555 1_555
C15B N2B 1_555 1_555
H9B C15B 1_555 1_555
C16B C9B 1_555 1_555
H10B C16B 1_555 1_555
N6B N5B 1_555 1_555
H11B N6B 1_555 1_555
H12B N6B 1_555 1_555
C17B C18B 1_555 1_555
C18B C25 1_555 1_555
C19B C18B 1_555 1_555
O8B C19B 1_555 1_555
O8A Zn1 1_555 1_555
O8C Zn1B 1_555 1_555
O9B Zn1C 1_555 1_555
O9A Zn1 1_555 1_555
O9C Zn1B 1_555 1_555
C20B C1 1_555 1_555
C21B C20B 1_555 1_555
O10B C21B 1_555 1_555
O10A Zn2 1_555 1_555
O10C Zn2B 1_555 1_555
O11B C21B 1_555 1_555
N7B C22B 1_555 1_555
C22B H13B 1_555 1_555
H14B C22B 1_555 1_555
H15B C22B 1_555 1_555
C23B N7B 1_555 1_555
H16B C23B 1_555 1_555
C24B N7B 1_555 1_555
H17B C24B 1_555 1_555
H18B C24B 1_555 1_555
H19B C24B 1_555 1_555
C25B C18 1_555 1_555
H20B C25B 1_555 1_555
H21B O2B 1_555 1_555
H22B O2B 1_555 1_555
H23B O7B 1_555 1_555
C2 C5 1_555 1_555
C6 C14 1_555 1_555
C8 C10 1_555 1_555
C8 C11 1_555 1_555
C12 C13 1_555 1_555
C15 C16 1_555 1_555
C2B C20B 1_555 1_555
C6B C14B 1_555 1_555
C8B C10B 1_555 1_555
C8B C11B 1_555 1_555
C12B C13B 1_555 1_555
C15B C16B 1_555 1_555
C17B C25B 1_555 1_555
C19B O9B 1_555 1_555

#END
