
#######################################################################
#
#                 Cambridge Crystallographic Data Centre
#                                CCDC 
#
#######################################################################
#
# If this CIF has been generated from an entry in the Cambridge 
# Structural Database, then it will include bibliographic, chemical, 
# crystal, experimental, refinement or atomic coordinate data resulting 
# from the CCDC's data processing and validation procedures.
#
#######################################################################

data_LUPVAU
_symmetry_cell_setting           monoclinic
_symmetry_space_group_name_H-M   'P 21/n'
_symmetry_Int_Tables_number      14
_space_group_name_Hall           '-P 2yn'
loop_
_symmetry_equiv_pos_site_id
_symmetry_equiv_pos_as_xyz
1 x,y,z
2 1/2-x,1/2+y,1/2-z
3 -x,-y,-z
4 1/2+x,1/2-y,1/2+z
_cell_length_a                   11.508(2)
_cell_length_b                   9.1050(18)
_cell_length_c                   16.633(3)
_cell_angle_alpha                90
_cell_angle_beta                 101.02(3)
_cell_angle_gamma                90
_cell_volume                     1710.67
loop_
_atom_site_label
_atom_site_type_symbol
_atom_site_fract_x
_atom_site_fract_y
_atom_site_fract_z
Ni1 Ni 0.32053(6) 0.48289(6) 0.87898(4)
C1 C 0.5506(4) 0.6712(5) 0.7619(3)
C2 C 0.5145(4) 0.7440(5) 0.6855(3)
C3 C 0.5986(5) 0.7893(6) 0.6422(4)
H1 H 0.5741 0.8386 0.5929
C4 C 0.7179(6) 0.7643(7) 0.6692(4)
H2 H 0.7728 0.7953 0.6384
C5 C 0.7549(5) 0.6912(7) 0.7439(4)
H3 H 0.8349 0.6725 0.7630
C6 C 0.6722(5) 0.6471(6) 0.7887(4)
H4 H 0.6978 0.5998 0.8385
C7 C 0.4635(5) 0.6146(5) 0.8083(3)
C8 C 0.3860(4) 0.7789(5) 0.6490(3)
O1 O 0.4886(3) 0.6039(3) 0.8870(2)
O2 O 0.3638(3) 0.5711(3) 0.77117(19)
O3 O 0.3389(3) 0.7045(4) 0.5873(2)
O4 O 0.3404(3) 0.8863(3) 0.67806(19)
N1 N 0.4123(3) 0.2969(4) 0.8639(2)
C9 C 0.3811(5) 0.2041(6) 0.8032(3)
H5 H 0.3197 0.2219 0.7591
N2 N 0.4457(4) 0.0825(5) 0.8110(3)
H6 H 0.4373 0.0097 0.7775
C10 C 0.5291(5) 0.0938(6) 0.8829(3)
C11 C 0.5067(5) 0.2258(5) 0.9139(3)
H7 H 0.5489 0.2644 0.9626
C12 C 0.6180(5) -0.0231(6) 0.9108(4)
H8 H 0.6667 0.0054 0.9619
H9 H 0.6666 -0.0368 0.8705
H10 H 0.5780 -0.1133 0.9180
N3 N 0.2273(4) 0.6684(4) 0.8986(2)
C13 C 0.2553(5) 0.8078(5) 0.8940(3)
H11 H 0.3293 0.8415 0.8878
N4 N 0.1637(4) 0.8948(4) 0.8994(3)
H12 H 0.1639 0.9892 0.8974
C14 C 0.0686(5) 0.8086(6) 0.9085(3)
C15 C 0.1107(5) 0.6711(6) 0.9082(3)
H13 H 0.0665 0.5875 0.9138
C16 C -0.0508(5) 0.8689(7) 0.9123(4)
H14 H -0.0764 0.9324 0.8662
H15 H -0.0468 0.9236 0.9621
H16 H -0.1061 0.7896 0.9109
O5 O 0.3059(3) 0.4113(3) 0.9962(2)
H17 H 0.377(2) 0.395(5) 1.031(3)
H18 H 0.258(3) 0.329(4) 0.991(3)
Ni1A Ni 0.17947(6) 0.98289(6) 0.62102(4)
O4A O 0.1596(3) 0.3863(3) 0.82194(19)
loop_
_geom_bond_atom_site_label_1
_geom_bond_atom_site_label_2
_geom_bond_site_symmetry_1
_geom_bond_site_symmetry_2
Ni1 O1 1_555 1_555
C1 C2 1_555 1_555
C2 C3 1_555 1_555
C3 H1 1_555 1_555
C4 C3 1_555 1_555
H2 C4 1_555 1_555
C5 C4 1_555 1_555
H3 C5 1_555 1_555
C6 C1 1_555 1_555
H4 C6 1_555 1_555
C7 C1 1_555 1_555
C8 C2 1_555 1_555
O1 C7 1_555 1_555
O2 Ni1 1_555 1_555
O3 C8 1_555 1_555
O4 C8 1_555 1_555
N1 Ni1 1_555 1_555
C9 N1 1_555 1_555
H5 C9 1_555 1_555
N2 C9 1_555 1_555
H6 N2 1_555 1_555
C10 N2 1_555 1_555
C11 N1 1_555 1_555
H7 C11 1_555 1_555
C12 C10 1_555 1_555
H8 C12 1_555 1_555
H9 C12 1_555 1_555
H10 C12 1_555 1_555
N3 Ni1 1_555 1_555
C13 N3 1_555 1_555
H11 C13 1_555 1_555
N4 C13 1_555 1_555
H12 N4 1_555 1_555
C14 N4 1_555 1_555
C15 N3 1_555 1_555
H13 C15 1_555 1_555
C16 C14 1_555 1_555
H14 C16 1_555 1_555
H15 C16 1_555 1_555
H16 C16 1_555 1_555
O5 Ni1 1_555 1_555
H17 O5 1_555 1_555
H18 O5 1_555 1_555
Ni1A O4 1_555 1_555
O4A Ni1 1_555 1_555
C5 C6 1_555 1_555
C7 O2 1_555 1_555
C10 C11 1_555 1_555
C14 C15 1_555 1_555

#END
