
#######################################################################
#
#                 Cambridge Crystallographic Data Centre
#                                CCDC 
#
#######################################################################
#
# If this CIF has been generated from an entry in the Cambridge 
# Structural Database, then it will include bibliographic, chemical, 
# crystal, experimental, refinement or atomic coordinate data resulting 
# from the CCDC's data processing and validation procedures.
#
#######################################################################

data_LUPVEZ
_symmetry_cell_setting           cubic
_symmetry_space_group_name_H-M   'I -4 3 m'
_symmetry_Int_Tables_number      217
_space_group_name_Hall           'I -4 2 3'
loop_
_symmetry_equiv_pos_site_id
_symmetry_equiv_pos_as_xyz
1 x,y,z
2 -x,-y,z
3 -x,y,-z
4 x,-y,-z
5 z,x,y
6 z,-x,-y
7 -z,-x,y
8 -z,x,-y
9 y,z,x
10 -y,z,-x
11 y,-z,-x
12 -y,-z,x
13 y,x,z
14 -y,-x,z
15 y,-x,-z
16 -y,x,-z
17 x,z,y
18 -x,z,-y
19 -x,-z,y
20 x,-z,-y
21 z,y,x
22 z,-y,-x
23 -z,y,-x
24 -z,-y,x
25 1/2+x,1/2+y,1/2+z
26 1/2-x,1/2-y,1/2+z
27 1/2-x,1/2+y,1/2-z
28 1/2+x,1/2-y,1/2-z
29 1/2+z,1/2+x,1/2+y
30 1/2+z,1/2-x,1/2-y
31 1/2-z,1/2-x,1/2+y
32 1/2-z,1/2+x,1/2-y
33 1/2+y,1/2+z,1/2+x
34 1/2-y,1/2+z,1/2-x
35 1/2+y,1/2-z,1/2-x
36 1/2-y,1/2-z,1/2+x
37 1/2+y,1/2+x,1/2+z
38 1/2-y,1/2-x,1/2+z
39 1/2+y,1/2-x,1/2-z
40 1/2-y,1/2+x,1/2-z
41 1/2+x,1/2+z,1/2+y
42 1/2-x,1/2+z,1/2-y
43 1/2-x,1/2-z,1/2+y
44 1/2+x,1/2-z,1/2-y
45 1/2+z,1/2+y,1/2+x
46 1/2+z,1/2-y,1/2-x
47 1/2-z,1/2+y,1/2-x
48 1/2-z,1/2-y,1/2+x
_cell_length_a                   23.290(3)
_cell_length_b                   23.290(3)
_cell_length_c                   23.290(3)
_cell_angle_alpha                90
_cell_angle_beta                 90
_cell_angle_gamma                90
_cell_volume                     12633.1
loop_
_atom_site_label
_atom_site_type_symbol
_atom_site_fract_x
_atom_site_fract_y
_atom_site_fract_z
Ni1 Ni 0.61353(2) 0.28333(2) 0.28333(2)
O1 O 0.57052(8) 0.27336(9) 0.36068(8)
O2 O 0.67310(10) 0.32690(10) 0.32690(10)
N1 N 0.74461(9) 0.25539(9) -0.04350(12)
N2 N 0.65933(9) 0.30020(9) 0.20834(8)
N3 N 0.65657(9) 0.27585(9) 0.15692(9)
C1 C 0.70116(12) 0.22989(13) -0.01713(12)
H1 H 0.6819 0.2007 -0.0363
C2 C 0.68300(13) 0.24450(14) 0.03755(12)
H2 H 0.6526 0.2252 0.0549
C3 C 0.71133(10) 0.28867(10) 0.06570(14)
C4 C 0.69691(11) 0.30309(11) 0.12620(15)
C5 C 0.58776(11) 0.27184(17) 0.41224(11)
C6 C 0.54261(11) 0.26953(19) 0.45739(11)
C7 C 0.48511(14) 0.2682(3) 0.44301(14)
H3 H 0.4745 0.2672 0.4045
O1T O 0.36068(8) 0.27336(9) 0.57052(8)
C5B C 0.41224(11) 0.27184(17) 0.58776(11)
C6B C 0.45739(11) 0.26953(19) 0.54261(11)
C7T C 0.44301(14) 0.2682(3) 0.48511(14)
H3T H 0.4045 0.2672 0.4745
O1V O 0.63932(8) 0.27336(9) 0.42948(8)
C7V C 0.55699(14) 0.2682(3) 0.51489(14)
H3V H 0.5955 0.2672 0.5255
O1B O 0.42948(8) 0.27336(9) 0.63932(8)
C7B C 0.51489(14) 0.2682(3) 0.55699(14)
H3B H 0.5255 0.2672 0.5955
N2M N 0.69980(9) 0.34067(9) 0.20834(8)
N3M N 0.72415(9) 0.34343(9) 0.15692(9)
C1M C 0.77011(13) 0.29884(12) -0.01713(12)
H1M H 0.7993 0.3181 -0.0363
C2M C 0.75550(14) 0.31700(13) 0.03755(12)
H2M H 0.7748 0.3474 0.0549
Ni1B Ni 0.38647(2) 0.28333(2) 0.71667(2)
O2B O 0.32690(10) 0.32690(10) 0.67310(10)
N1B N 0.25539(9) 0.25539(9) 1.04350(12)
N2B N 0.34067(9) 0.30020(9) 0.79166(8)
N3B N 0.34343(9) 0.27585(9) 0.84308(9)
C1B C 0.29884(12) 0.22989(13) 1.01713(12)
H1B H 0.3181 0.2007 1.0363
C2B C 0.31700(13) 0.24450(14) 0.96245(12)
H2B H 0.3474 0.2252 0.9451
C3B C 0.28867(10) 0.28867(10) 0.93430(14)
C4B C 0.30309(11) 0.30309(11) 0.87380(15)
N2N N 0.30020(9) 0.34067(9) 0.79166(8)
N3N N 0.27585(9) 0.34343(9) 0.84308(9)
C1N C 0.22989(13) 0.29884(12) 1.01713(12)
H1N H 0.2007 0.3181 1.0363
C2N C 0.24450(14) 0.31700(13) 0.96245(12)
H2N H 0.2252 0.3474 0.9451
Ni1D Ni 0.28333(2) 0.61353(2) 0.28333(2)
O1D O 0.36068(8) 0.57052(8) 0.27336(9)
N1D N -0.04350(12) 0.74461(9) 0.25539(9)
N2D N 0.20834(8) 0.65933(9) 0.30020(9)
N3D N 0.15692(9) 0.65657(9) 0.27585(9)
C1D C -0.01713(12) 0.70116(12) 0.22989(13)
H1D H -0.0363 0.6819 0.2007
C2D C 0.03755(12) 0.68300(13) 0.24450(14)
H2D H 0.0549 0.6526 0.2252
C3D C 0.06570(14) 0.71133(10) 0.28867(10)
C4D C 0.12620(15) 0.69691(11) 0.30309(11)
C5D C 0.41224(11) 0.58776(11) 0.27184(17)
C6D C 0.45739(11) 0.54261(11) 0.26953(19)
C7D C 0.44301(14) 0.48511(14) 0.2682(3)
H3D H 0.4045 0.4745 0.2672
O1P O 0.57052(8) 0.36068(8) 0.27336(9)
C5F C 0.58776(11) 0.41224(11) 0.27184(17)
C6F C 0.54261(11) 0.45739(11) 0.26953(19)
C7P C 0.48511(14) 0.44301(14) 0.2682(3)
H3P H 0.4745 0.4045 0.2672
O1R O 0.42948(8) 0.63932(8) 0.27336(9)
C7R C 0.51489(14) 0.55699(14) 0.2682(3)
H3R H 0.5255 0.5955 0.2672
O1F O 0.63932(8) 0.42948(8) 0.27336(9)
C7F C 0.55699(14) 0.51489(14) 0.2682(3)
H3F H 0.5955 0.5255 0.2672
N2U N 0.20834(8) 0.69980(9) 0.34067(9)
N3U N 0.15692(9) 0.72415(9) 0.34343(9)
C1U C -0.01713(12) 0.77011(13) 0.29884(12)
H1U H -0.0363 0.7993 0.3181
C2U C 0.03755(12) 0.75550(14) 0.31700(13)
H2U H 0.0549 0.7748 0.3474
Ni1E Ni 0.28333(2) 0.38647(2) 0.71667(2)
O1E O 0.36068(8) 0.42948(8) 0.72664(9)
N1E N -0.04350(12) 0.25539(9) 0.74461(9)
N2E N 0.20834(8) 0.34067(9) 0.69980(9)
N3E N 0.15692(9) 0.34343(9) 0.72415(9)
C1E C -0.01713(12) 0.29884(12) 0.77011(13)
H1E H -0.0363 0.3181 0.7993
C2E C 0.03755(12) 0.31700(13) 0.75550(14)
H2E H 0.0549 0.3474 0.7748
C3E C 0.06570(14) 0.28867(10) 0.71133(10)
C4E C 0.12620(15) 0.30309(11) 0.69691(11)
C5E C 0.41224(11) 0.41224(11) 0.72816(17)
C6E C 0.45739(11) 0.45739(11) 0.73047(19)
C7E C 0.44301(14) 0.51489(14) 0.7318(3)
H3E H 0.4045 0.5255 0.7328
O1S O 0.57052(8) 0.63932(8) 0.72664(9)
C5G C 0.58776(11) 0.58776(11) 0.72816(17)
C6G C 0.54261(11) 0.54261(11) 0.73047(19)
C7S C 0.48511(14) 0.55699(14) 0.7318(3)
H3S H 0.4745 0.5955 0.7328
O1Q O 0.42948(8) 0.36068(8) 0.72664(9)
C7Q C 0.51489(14) 0.44301(14) 0.7318(3)
H3Q H 0.5255 0.4045 0.7328
O1G O 0.63932(8) 0.57052(8) 0.72664(9)
C7G C 0.55699(14) 0.48511(14) 0.7318(3)
H3G H 0.5955 0.4745 0.7328
N2T N 0.20834(8) 0.30020(9) 0.65933(9)
N3T N 0.15692(9) 0.27585(9) 0.65657(9)
C1T C -0.01713(12) 0.22989(13) 0.70116(12)
H1T H -0.0363 0.2007 0.6819
C2T C 0.03755(12) 0.24450(14) 0.68300(13)
H2T H 0.0549 0.2252 0.6526
Ni1F Ni 0.71667(2) 0.38647(2) 0.28333(2)
N1F N 1.04350(12) 0.25539(9) 0.25539(9)
N2F N 0.79166(8) 0.34067(9) 0.30020(9)
N3F N 0.84308(9) 0.34343(9) 0.27585(9)
C1F C 1.01713(12) 0.29884(12) 0.22989(13)
H1F H 1.0363 0.3181 0.2007
C2F C 0.96245(12) 0.31700(13) 0.24450(14)
H2F H 0.9451 0.3474 0.2252
C3F C 0.93430(14) 0.28867(10) 0.28867(10)
C4F C 0.87380(15) 0.30309(11) 0.30309(11)
N2V N 0.79166(8) 0.30020(9) 0.34067(9)
N3V N 0.84308(9) 0.27585(9) 0.34343(9)
C1V C 1.01713(12) 0.22989(13) 0.29884(12)
H1V H 1.0363 0.2007 0.3181
C2V C 0.96245(12) 0.24450(14) 0.31700(13)
H2V H 0.9451 0.2252 0.3474
Ni1G Ni 0.71667(2) 0.61353(2) 0.71667(2)
N1G N 1.04350(12) 0.74461(9) 0.74461(9)
N2G N 0.79166(8) 0.65933(9) 0.69980(9)
N3G N 0.84308(9) 0.65657(9) 0.72415(9)
C1G C 1.01713(12) 0.70116(12) 0.77011(13)
H1G H 1.0363 0.6819 0.7993
C2G C 0.96245(12) 0.68300(13) 0.75550(14)
H2G H 0.9451 0.6526 0.7748
C3G C 0.93430(14) 0.71133(10) 0.71133(10)
C4G C 0.87380(15) 0.69691(11) 0.69691(11)
N2W N 0.79166(8) 0.69980(9) 0.65933(9)
N3W N 0.84308(9) 0.72415(9) 0.65657(9)
C1W C 1.01713(12) 0.77011(13) 0.70116(12)
H1W H 1.0363 0.7993 0.6819
C2W C 0.96245(12) 0.75550(14) 0.68300(13)
H2W H 0.9451 0.7748 0.6526
Ni1A Ni 0.38647(2) 0.71667(2) 0.28333(2)
Ni1C Ni 0.61353(2) 0.71667(2) 0.71667(2)
Ni1H Ni 0.28333(2) 0.28333(2) 0.61353(2)
Ni1I Ni 0.71667(2) 0.28333(2) 0.38647(2)
Ni1J Ni 0.28333(2) 0.71667(2) 0.38647(2)
Ni1K Ni 0.71667(2) 0.71667(2) 0.61353(2)
Ni1X Ni 1.11353(2) 0.78333(2) 0.78333(2)
Ni1Y Ni -0.11353(2) 0.21667(2) 0.78333(2)
Ni1Z Ni -0.11353(2) 0.78333(2) 0.21667(2)
Ni1AA Ni 1.11353(2) 0.21667(2) 0.21667(2)
Ni1HA Ni 0.78333(2) 0.21667(2) -0.11353(2)
Ni1IA Ni 0.21667(2) 0.21667(2) 1.11353(2)
O1L O 0.27336(9) 0.57052(8) 0.36068(8)
O1M O 0.72664(9) 0.42948(8) 0.36068(8)
O1N O 0.27336(9) 0.42948(8) 0.63932(8)
O1O O 0.72664(9) 0.57052(8) 0.63932(8)
O2A O 0.32690(10) 0.67310(10) 0.32690(10)
O2C O 0.67310(10) 0.67310(10) 0.67310(10)
N1BA N 0.45650(12) 0.24461(9) 0.75539(9)
N1EA N 0.54350(12) 0.24461(9) 0.24461(9)
N1FA N 0.75539(9) 0.45650(12) 0.24461(9)
N1GA N 0.24461(9) 0.45650(12) 0.75539(9)
N1HA N 0.75539(9) 0.54350(12) 0.75539(9)
N1IA N 0.24461(9) 0.54350(12) 0.24461(9)
N2L N 0.30020(9) 0.65933(9) 0.20834(8)
N2O N 0.69980(9) 0.65933(9) 0.79166(8)
N2P N 0.65933(9) 0.20834(8) 0.30020(9)
N2Q N 0.34067(9) 0.20834(8) 0.69980(9)
loop_
_geom_bond_atom_site_label_1
_geom_bond_atom_site_label_2
_geom_bond_site_symmetry_1
_geom_bond_site_symmetry_2
Ni1 O1 1_555 1_555
O1 C5 1_555 1_555
O2 Ni1 1_555 1_555
N1 C1 1_555 1_555
N2 Ni1 1_555 1_555
N3 N2 1_555 1_555
C1 H1 1_555 1_555
C2 C1 1_555 1_555
H2 C2 1_555 1_555
C3 C2 1_555 1_555
C4 N3 1_555 1_555
C5 C6 1_555 1_555
C6 C7 1_555 1_555
C7 H3 1_555 1_555
O1T C5B 1_555 1_555
C5B C6B 1_555 1_555
C6B C7T 1_555 1_555
C7T C7 1_555 1_555
H3T C7T 1_555 1_555
O1V C5 1_555 1_555
C7V C6 1_555 1_555
H3V C7V 1_555 1_555
O1B C5B 1_555 1_555
C7B C6B 1_555 1_555
H3B C7B 1_555 1_555
N2M N2 1_555 1_555
N3M C4 1_555 1_555
C1M N1 1_555 1_555
H1M C1M 1_555 1_555
C2M C3 1_555 1_555
H2M C2M 1_555 1_555
Ni1B O1B 1_555 1_555
O2B Ni1B 1_555 1_555
N1B C1B 1_555 1_555
N2B Ni1B 1_555 1_555
N3B N2B 1_555 1_555
C1B H1B 1_555 1_555
C2B C1B 1_555 1_555
H2B C2B 1_555 1_555
C3B C2B 1_555 1_555
C4B N3B 1_555 1_555
N2N N2B 1_555 1_555
N3N C4B 1_555 1_555
C1N N1B 1_555 1_555
H1N C1N 1_555 1_555
C2N C3B 1_555 1_555
H2N C2N 1_555 1_555
Ni1D O1D 1_555 1_555
O1D C5D 1_555 1_555
N1D C1D 1_555 1_555
N2D Ni1D 1_555 1_555
N3D N2D 1_555 1_555
C1D H1D 1_555 1_555
C2D C1D 1_555 1_555
H2D C2D 1_555 1_555
C3D C2D 1_555 1_555
C4D N3D 1_555 1_555
C5D C6D 1_555 1_555
C6D C7D 1_555 1_555
C7D H3D 1_555 1_555
O1P Ni1 1_555 1_555
C5F O1P 1_555 1_555
C6F C5F 1_555 1_555
C7P C7D 1_555 1_555
H3P C7P 1_555 1_555
O1R C5D 1_555 1_555
C7R C6D 1_555 1_555
H3R C7R 1_555 1_555
O1F C5F 1_555 1_555
C7F C6F 1_555 1_555
H3F C7F 1_555 1_555
N2U N2D 1_555 1_555
N3U C4D 1_555 1_555
C1U N1D 1_555 1_555
H1U C1U 1_555 1_555
C2U C3D 1_555 1_555
H2U C2U 1_555 1_555
Ni1E O2B 1_555 1_555
O1E Ni1E 1_555 1_555
N1E C1E 1_555 1_555
N2E Ni1E 1_555 1_555
N3E N2E 1_555 1_555
C1E H1E 1_555 1_555
C2E C1E 1_555 1_555
H2E C2E 1_555 1_555
C3E C2E 1_555 1_555
C4E N3E 1_555 1_555
C5E O1E 1_555 1_555
C6E C5E 1_555 1_555
C7E C6E 1_555 1_555
H3E C7E 1_555 1_555
O1S C5G 1_555 1_555
C5G C6G 1_555 1_555
C6G C7S 1_555 1_555
C7S C7E 1_555 1_555
H3S C7S 1_555 1_555
O1Q Ni1B 1_555 1_555
C7Q C6E 1_555 1_555
H3Q C7Q 1_555 1_555
O1G C5G 1_555 1_555
C7G C6G 1_555 1_555
H3G C7G 1_555 1_555
N2T N2E 1_555 1_555
N3T C4E 1_555 1_555
C1T N1E 1_555 1_555
H1T C1T 1_555 1_555
C2T C3E 1_555 1_555
H2T C2T 1_555 1_555
Ni1F O2 1_555 1_555
N1F C1F 1_555 1_555
N2F Ni1F 1_555 1_555
N3F N2F 1_555 1_555
C1F H1F 1_555 1_555
C2F C1F 1_555 1_555
H2F C2F 1_555 1_555
C3F C2F 1_555 1_555
C4F N3F 1_555 1_555
N2V N2F 1_555 1_555
N3V C4F 1_555 1_555
C1V N1F 1_555 1_555
H1V C1V 1_555 1_555
C2V C3F 1_555 1_555
H2V C2V 1_555 1_555
Ni1G O1G 1_555 1_555
N1G C1G 1_555 1_555
N2G Ni1G 1_555 1_555
N3G N2G 1_555 1_555
C1G H1G 1_555 1_555
C2G C1G 1_555 1_555
H2G C2G 1_555 1_555
C3G C2G 1_555 1_555
C4G N3G 1_555 1_555
N2W N2G 1_555 1_555
N3W C4G 1_555 1_555
C1W N1G 1_555 1_555
H1W C1W 1_555 1_555
C2W C3G 1_555 1_555
H2W C2W 1_555 1_555
Ni1A O1R 1_555 1_555
Ni1C O1S 1_555 1_555
Ni1H O1T 1_555 1_555
Ni1I O2 1_555 1_555
Ni1J N2U 1_555 1_555
Ni1K N2W 1_555 1_555
Ni1X N1G 1_555 1_555
Ni1Y N1E 1_555 1_555
Ni1Z N1D 1_555 1_555
Ni1AA N1F 1_555 1_555
Ni1HA N1 1_555 1_555
Ni1IA N1B 1_555 1_555
O1L Ni1D 1_555 1_555
O1M Ni1F 1_555 1_555
O1N Ni1E 1_555 1_555
O1O Ni1G 1_555 1_555
O2A Ni1D 1_555 1_555
O2C Ni1G 1_555 1_555
N1BA Ni1B 1_555 1_555
N1EA Ni1 1_555 1_555
N1FA Ni1F 1_555 1_555
N1GA Ni1E 1_555 1_555
N1HA Ni1G 1_555 1_555
N1IA Ni1D 1_555 1_555
N2L Ni1D 1_555 1_555
N2O Ni1G 1_555 1_555
N2P Ni1 1_555 1_555
N2Q Ni1B 1_555 1_555
C3 C4 1_555 1_555
O1V Ni1I 1_555 1_555
C7V C7B 1_555 1_555
N2M N3M 1_555 1_555
N2M Ni1F 1_555 1_555
C1M C2M 1_555 1_555
O2B Ni1H 1_555 1_555
C3B C4B 1_555 1_555
N2N N3N 1_555 1_555
N2N Ni1E 1_555 1_555
C1N C2N 1_555 1_555
C3D C4D 1_555 1_555
C6F C7P 1_555 1_555
C7R C7F 1_555 1_555
O1F Ni1F 1_555 1_555
N2U N3U 1_555 1_555
C1U C2U 1_555 1_555
C3E C4E 1_555 1_555
C5E O1Q 1_555 1_555
C7Q C7G 1_555 1_555
N2T N3T 1_555 1_555
N2T Ni1H 1_555 1_555
C1T C2T 1_555 1_555
C3F C4F 1_555 1_555
N2V N3V 1_555 1_555
N2V Ni1I 1_555 1_555
C1V C2V 1_555 1_555
C3G C4G 1_555 1_555
N2W N3W 1_555 1_555
C1W C2W 1_555 1_555
Ni1A O2A 1_555 1_555
Ni1C O2C 1_555 1_555
Ni1J O2A 1_555 1_555
Ni1K O2C 1_555 1_555

#END
