
#######################################################################
#
#                 Cambridge Crystallographic Data Centre
#                                CCDC 
#
#######################################################################
#
# If this CIF has been generated from an entry in the Cambridge 
# Structural Database, then it will include bibliographic, chemical, 
# crystal, experimental, refinement or atomic coordinate data resulting 
# from the CCDC's data processing and validation procedures.
#
#######################################################################

data_LUPYUR
_symmetry_cell_setting           rhombohedral
_symmetry_space_group_name_H-M   'R 3 c'
_symmetry_Int_Tables_number      161
_space_group_name_Hall           'R 3 -2"c'
loop_
_symmetry_equiv_pos_site_id
_symmetry_equiv_pos_as_xyz
1 x,y,z
2 -y,x-y,z
3 -x+y,-x,z
4 -x+y,y,1/2+z
5 x,x-y,1/2+z
6 -y,-x,1/2+z
7 2/3+x,1/3+y,1/3+z
8 2/3-y,1/3+x-y,1/3+z
9 2/3-x+y,1/3-x,1/3+z
10 2/3-x+y,1/3+y,5/6+z
11 2/3+x,1/3+x-y,5/6+z
12 2/3-y,1/3-x,5/6+z
13 1/3+x,2/3+y,2/3+z
14 1/3-y,2/3+x-y,2/3+z
15 1/3-x+y,2/3-x,2/3+z
16 1/3-x+y,2/3+y,1/6+z
17 1/3+x,2/3+x-y,1/6+z
18 1/3-y,2/3-x,1/6+z
_cell_length_a                   22.649(4)
_cell_length_b                   22.649(4)
_cell_length_c                   7.744(1)
_cell_angle_alpha                90
_cell_angle_beta                 90
_cell_angle_gamma                120
_cell_volume                     3440.28
loop_
_atom_site_label
_atom_site_type_symbol
_atom_site_fract_x
_atom_site_fract_y
_atom_site_fract_z
Eu1 Eu 0.0000 0.0000 0.3330(1)
O1 O 0.08047(13) 0.0598(1) 0.5990(4)
O2 O 0.0774(2) 0.1186(2) 0.3785(4)
C1 C 0.1000(2) 0.1171(2) 0.5242(5)
C2 C 0.1505(2) 0.1805(2) 0.6087(5)
C3 C 0.1654(2) 0.2409(2) 0.5491(5)
C4 C 0.2125(2) 0.3083(2) 0.6237(5)
C5 C 0.2077(3) 0.3643(2) 0.5702(6)
C6 C 0.2500(3) 0.4285(2) 0.6415(7)
C7 C 0.2971(3) 0.4381(2) 0.7633(6)
C8 C 0.3032(3) 0.3827(3) 0.8169(7)
C9 C 0.2611(2) 0.3184(2) 0.7491(6)
H1 H 0.1732 0.1780 0.7093
H2 H 0.1430 0.2410 0.4454
H3 H 0.1754 0.3588 0.4843
H4 H 0.2457 0.4662 0.6042
H5 H 0.3256 0.4821 0.8112
H6 H 0.3365 0.3891 0.9007
H7 H 0.2653 0.2808 0.7880
Eu1C Eu 0.0000 0.0000 0.8330(1)
O1A O -0.0598(1) 0.02067(16) 0.5990(4)
O1B O -0.02067(16) -0.08047(13) 0.5990(4)
O1C O -0.02067(16) 0.0598(1) 0.0990(4)
O1D O 0.08047(13) 0.02067(16) 0.0990(4)
O1E O -0.0598(1) -0.08047(13) 0.0990(4)
O2A O -0.1186(2) -0.0412(3) 0.3785(4)
O2B O 0.0412(3) -0.0774(2) 0.3785(4)
C1A C -0.1171(2) -0.0171(3) 0.5242(5)
C1B C 0.0171(3) -0.1000(2) 0.5242(5)
C2A C -0.1805(2) -0.0300(3) 0.6087(5)
C2B C 0.0300(3) -0.1505(2) 0.6087(5)
C3A C -0.2409(2) -0.0755(3) 0.5491(5)
C3B C 0.0755(3) -0.1654(2) 0.5491(5)
C4A C -0.3083(2) -0.0958(3) 0.6237(5)
C4B C 0.0958(3) -0.2125(2) 0.6237(5)
C5A C -0.3643(2) -0.1566(4) 0.5702(6)
C5B C 0.1566(4) -0.2077(3) 0.5702(6)
C6A C -0.4285(2) -0.1785(4) 0.6415(7)
C6B C 0.1785(4) -0.2500(3) 0.6415(7)
C7A C -0.4381(2) -0.1410(4) 0.7633(6)
C7B C 0.1410(4) -0.2971(3) 0.7633(6)
C8A C -0.3827(3) -0.0795(4) 0.8169(7)
C8B C 0.0795(4) -0.3032(3) 0.8169(7)
C9A C -0.3184(2) -0.0573(3) 0.7491(6)
C9B C 0.0573(3) -0.2611(2) 0.7491(6)
H1A H -0.1780 -0.0048 0.7093
H1B H 0.0048 -0.1732 0.7093
H2A H -0.2410 -0.0980 0.4454
H2B H 0.0980 -0.1430 0.4454
H3A H -0.3588 -0.1834 0.4843
H3B H 0.1834 -0.1754 0.4843
H4A H -0.4662 -0.2205 0.6042
H4B H 0.2205 -0.2457 0.6042
H5A H -0.4821 -0.1565 0.8112
H5B H 0.1565 -0.3256 0.8112
H6A H -0.3891 -0.0526 0.9007
H6B H 0.0526 -0.3365 0.9007
H7A H -0.2808 -0.0155 0.7880
H7B H 0.0155 -0.2653 0.7880
loop_
_geom_bond_atom_site_label_1
_geom_bond_atom_site_label_2
_geom_bond_site_symmetry_1
_geom_bond_site_symmetry_2
Eu1 O1 1_555 1_555
O1 C1 1_555 1_555
O2 Eu1 1_555 1_555
C1 O2 1_555 1_555
C2 C1 1_555 1_555
C3 C2 1_555 1_555
C4 C3 1_555 1_555
C5 C4 1_555 1_555
C6 C5 1_555 1_555
C7 C6 1_555 1_555
C8 C7 1_555 1_555
C9 C4 1_555 1_555
H1 C2 1_555 1_555
H2 C3 1_555 1_555
H3 C5 1_555 1_555
H4 C6 1_555 1_555
H5 C7 1_555 1_555
H6 C8 1_555 1_555
H7 C9 1_555 1_555
Eu1C O1 1_555 1_555
O1A Eu1 1_555 1_555
O1B Eu1 1_555 1_555
O1C Eu1 1_555 1_555
O1D Eu1 1_555 1_555
O1E Eu1 1_555 1_555
O2A Eu1 1_555 1_555
O2B Eu1 1_555 1_555
C1A O1A 1_555 1_555
C1B O1B 1_555 1_555
C2A C1A 1_555 1_555
C2B C1B 1_555 1_555
C3A C2A 1_555 1_555
C3B C2B 1_555 1_555
C4A C3A 1_555 1_555
C4B C3B 1_555 1_555
C5A C4A 1_555 1_555
C5B C4B 1_555 1_555
C6A C5A 1_555 1_555
C6B C5B 1_555 1_555
C7A C6A 1_555 1_555
C7B C6B 1_555 1_555
C8A C7A 1_555 1_555
C8B C7B 1_555 1_555
C9A C4A 1_555 1_555
C9B C4B 1_555 1_555
H1A C2A 1_555 1_555
H1B C2B 1_555 1_555
H2A C3A 1_555 1_555
H2B C3B 1_555 1_555
H3A C5A 1_555 1_555
H3B C5B 1_555 1_555
H4A C6A 1_555 1_555
H4B C6B 1_555 1_555
H5A C7A 1_555 1_555
H5B C7B 1_555 1_555
H6A C8A 1_555 1_555
H6B C8B 1_555 1_555
H7A C9A 1_555 1_555
H7B C9B 1_555 1_555
C8 C9 1_555 1_555
Eu1C O1A 1_555 1_555
Eu1C O1B 1_555 1_555
O2A C1A 1_555 1_555
O2B C1B 1_555 1_555
C8A C9A 1_555 1_555
C8B C9B 1_555 1_555

#END
