
#######################################################################
#
#                 Cambridge Crystallographic Data Centre
#                                CCDC 
#
#######################################################################
#
# If this CIF has been generated from an entry in the Cambridge 
# Structural Database, then it will include bibliographic, chemical, 
# crystal, experimental, refinement or atomic coordinate data resulting 
# from the CCDC's data processing and validation procedures.
#
#######################################################################

data_LUPZEC
_symmetry_cell_setting           rhombohedral
_symmetry_space_group_name_H-M   'R 3 c'
_symmetry_Int_Tables_number      161
_space_group_name_Hall           'R 3 -2"c'
loop_
_symmetry_equiv_pos_site_id
_symmetry_equiv_pos_as_xyz
1 x,y,z
2 -y,x-y,z
3 -x+y,-x,z
4 -x+y,y,1/2+z
5 x,x-y,1/2+z
6 -y,-x,1/2+z
7 2/3+x,1/3+y,1/3+z
8 2/3-y,1/3+x-y,1/3+z
9 2/3-x+y,1/3-x,1/3+z
10 2/3-x+y,1/3+y,5/6+z
11 2/3+x,1/3+x-y,5/6+z
12 2/3-y,1/3-x,5/6+z
13 1/3+x,2/3+y,2/3+z
14 1/3-y,2/3+x-y,2/3+z
15 1/3-x+y,2/3-x,2/3+z
16 1/3-x+y,2/3+y,1/6+z
17 1/3+x,2/3+x-y,1/6+z
18 1/3-y,2/3-x,1/6+z
_cell_length_a                   22.654(6)
_cell_length_b                   22.654(6)
_cell_length_c                   7.722(2)
_cell_angle_alpha                90
_cell_angle_beta                 90
_cell_angle_gamma                120
_cell_volume                     3432.02
loop_
_atom_site_label
_atom_site_type_symbol
_atom_site_fract_x
_atom_site_fract_y
_atom_site_fract_z
Gd1 Gd 0.0000 0.0000 0.33577(12)
O1 O -0.02107(12) 0.05908(12) 0.6021(3)
O2 O 0.0410(2) 0.1180(1) 0.3814(3)
C1 C 0.0167(2) 0.1165(2) 0.5279(4)
C2 C 0.0297(2) 0.1802(2) 0.6123(4)
C3 C 0.0755(2) 0.2406(2) 0.5515(4)
C4 C 0.0959(2) 0.3081(2) 0.6262(4)
C5 C 0.1567(2) 0.3639(2) 0.5734(5)
C6 C 0.1791(2) 0.4281(2) 0.6438(6)
C7 C 0.1410(3) 0.4377(2) 0.7662(5)
C8 C 0.0794(2) 0.3826(2) 0.8197(6)
C9 C 0.0568(2) 0.3179(2) 0.7505(5)
H1 H 0.0046 0.1779 0.7131
H2 H 0.0979 0.2406 0.4475
H3 H 0.1834 0.3582 0.4876
H4 H 0.2212 0.4656 0.6068
H5 H 0.1565 0.4817 0.8143
H6 H 0.0525 0.3891 0.9038
H7 H 0.0147 0.2804 0.7879
Gd1C Gd 0.0000 0.0000 0.83577(12)
O1A O -0.05908(12) -0.08015(17) 0.6021(3)
O1B O 0.08015(17) 0.02107(12) 0.6021(3)
O1C O 0.08015(17) 0.05908(12) 0.1021(3)
O1D O -0.02107(12) -0.08015(17) 0.1021(3)
O1E O -0.05908(12) 0.02107(12) 0.1021(3)
O2A O -0.1180(1) -0.0770(2) 0.3814(3)
O2B O 0.0770(2) -0.0410(2) 0.3814(3)
C1A C -0.1165(2) -0.0998(3) 0.5279(4)
C1B C 0.0998(3) -0.0167(2) 0.5279(4)
C2A C -0.1802(2) -0.1505(3) 0.6123(4)
C2B C 0.1505(3) -0.0297(2) 0.6123(4)
C3A C -0.2406(2) -0.1651(3) 0.5515(4)
C3B C 0.1651(3) -0.0755(2) 0.5515(4)
C4A C -0.3081(2) -0.2122(3) 0.6262(4)
C4B C 0.2122(3) -0.0959(2) 0.6262(4)
C5A C -0.3639(2) -0.2072(3) 0.5734(5)
C5B C 0.2072(3) -0.1567(2) 0.5734(5)
C6A C -0.4281(2) -0.2490(3) 0.6438(6)
C6B C 0.2490(3) -0.1791(2) 0.6438(6)
C7A C -0.4377(2) -0.2967(4) 0.7662(5)
C7B C 0.2967(4) -0.1410(3) 0.7662(5)
C8A C -0.3826(2) -0.3032(3) 0.8197(6)
C8B C 0.3032(3) -0.0794(2) 0.8197(6)
C9A C -0.3179(2) -0.2611(3) 0.7505(5)
C9B C 0.2611(3) -0.0568(2) 0.7505(5)
H1A H -0.1779 -0.1733 0.7131
H1B H 0.1733 -0.0046 0.7131
H2A H -0.2406 -0.1427 0.4475
H2B H 0.1427 -0.0979 0.4475
H3A H -0.3582 -0.1748 0.4876
H3B H 0.1748 -0.1834 0.4876
H4A H -0.4656 -0.2444 0.6068
H4B H 0.2444 -0.2212 0.6068
H5A H -0.4817 -0.3252 0.8143
H5B H 0.3252 -0.1565 0.8143
H6A H -0.3891 -0.3366 0.9038
H6B H 0.3366 -0.0525 0.9038
H7A H -0.2804 -0.2657 0.7879
H7B H 0.2657 -0.0147 0.7879
loop_
_geom_bond_atom_site_label_1
_geom_bond_atom_site_label_2
_geom_bond_site_symmetry_1
_geom_bond_site_symmetry_2
Gd1 O1 1_555 1_555
O1 C1 1_555 1_555
O2 Gd1 1_555 1_555
C1 O2 1_555 1_555
C2 C1 1_555 1_555
C3 C2 1_555 1_555
C4 C3 1_555 1_555
C5 C4 1_555 1_555
C6 C5 1_555 1_555
C7 C6 1_555 1_555
C8 C7 1_555 1_555
C9 C4 1_555 1_555
H1 C2 1_555 1_555
H2 C3 1_555 1_555
H3 C5 1_555 1_555
H4 C6 1_555 1_555
H5 C7 1_555 1_555
H6 C8 1_555 1_555
H7 C9 1_555 1_555
Gd1C O1 1_555 1_555
O1A Gd1 1_555 1_555
O1B Gd1 1_555 1_555
O1C Gd1 1_555 1_555
O1D Gd1 1_555 1_555
O1E Gd1 1_555 1_555
O2A Gd1 1_555 1_555
O2B Gd1 1_555 1_555
C1A O1A 1_555 1_555
C1B O1B 1_555 1_555
C2A C1A 1_555 1_555
C2B C1B 1_555 1_555
C3A C2A 1_555 1_555
C3B C2B 1_555 1_555
C4A C3A 1_555 1_555
C4B C3B 1_555 1_555
C5A C4A 1_555 1_555
C5B C4B 1_555 1_555
C6A C5A 1_555 1_555
C6B C5B 1_555 1_555
C7A C6A 1_555 1_555
C7B C6B 1_555 1_555
C8A C7A 1_555 1_555
C8B C7B 1_555 1_555
C9A C4A 1_555 1_555
C9B C4B 1_555 1_555
H1A C2A 1_555 1_555
H1B C2B 1_555 1_555
H2A C3A 1_555 1_555
H2B C3B 1_555 1_555
H3A C5A 1_555 1_555
H3B C5B 1_555 1_555
H4A C6A 1_555 1_555
H4B C6B 1_555 1_555
H5A C7A 1_555 1_555
H5B C7B 1_555 1_555
H6A C8A 1_555 1_555
H6B C8B 1_555 1_555
H7A C9A 1_555 1_555
H7B C9B 1_555 1_555
C8 C9 1_555 1_555
Gd1C O1A 1_555 1_555
Gd1C O1B 1_555 1_555
O2A C1A 1_555 1_555
O2B C1B 1_555 1_555
C8A C9A 1_555 1_555
C8B C9B 1_555 1_555

#END
