
#######################################################################
#
#                 Cambridge Crystallographic Data Centre
#                                CCDC 
#
#######################################################################
#
# If this CIF has been generated from an entry in the Cambridge 
# Structural Database, then it will include bibliographic, chemical, 
# crystal, experimental, refinement or atomic coordinate data resulting 
# from the CCDC's data processing and validation procedures.
#
#######################################################################

data_LUPZUS
_symmetry_cell_setting           monoclinic
_symmetry_space_group_name_H-M   'P 21'
_symmetry_Int_Tables_number      4
_space_group_name_Hall           'P 2yb'
loop_
_symmetry_equiv_pos_site_id
_symmetry_equiv_pos_as_xyz
1 x,y,z
2 -x,1/2+y,-z
_cell_length_a                   11.574(2)
_cell_length_b                   7.848(2)
_cell_length_c                   13.043(3)
_cell_angle_alpha                90
_cell_angle_beta                 94.384(3)
_cell_angle_gamma                90
_cell_volume                     1181.27
loop_
_atom_site_label
_atom_site_type_symbol
_atom_site_fract_x
_atom_site_fract_y
_atom_site_fract_z
Yb1 Yb 0.46113(3) 0.4310(3) 0.52366(2)
O1 O 0.5946(6) 0.3630(9) 0.4174(6)
O2 O 0.6733(6) 0.1033(9) 0.4174(5)
O3 O 0.4586(6) 0.6588(9) 0.4140(5)
O4 O 0.5833(6) 0.7931(9) 0.3254(5)
O5 O 0.6682(6) 0.7920(9) 0.5778(5)
O6 O 0.6017(6) 0.5436(10) 0.6285(6)
C1 C 0.6791(9) 0.262(1) 0.4117(7)
C2 C 0.793(2) 0.340(3) 0.3957(13)
C3 C 0.810(2) 0.508(3) 0.392(1)
C4 C 0.9182(9) 0.596(1) 0.3802(8)
C5 C 1.0262(9) 0.516(1) 0.3844(8)
C6 C 1.1268(9) 0.605(2) 0.3694(9)
C7 C 1.1187(12) 0.780(2) 0.3487(10)
C8 C 1.0143(11) 0.860(2) 0.3443(11)
C9 C 0.9160(11) 0.772(2) 0.3610(10)
C10 C 0.5031(8) 0.6869(12) 0.3269(7)
C11 C 0.4469(9) 0.6107(13) 0.2319(7)
C12 C 0.4734(9) 0.6618(13) 0.1400(8)
C13 C 0.4151(9) 0.6160(13) 0.0404(7)
C14 C 0.3123(10) 0.526(2) 0.0299(8)
C15 C 0.2592(11) 0.492(2) -0.0668(9)
C16 C 0.3069(11) 0.547(2) -0.1537(8)
C17 C 0.4074(12) 0.633(2) -0.1448(8)
C18 C 0.4627(10) 0.671(2) -0.0484(8)
C19 C 0.6669(8) 0.6700(12) 0.6411(7)
C20 C 0.7475(9) 0.6800(12) 0.7342(7)
C21 C 0.7380(9) 0.5806(13) 0.8164(8)
C22 C 0.8094(9) 0.585(1) 0.9124(8)
C23 C 0.9176(9) 0.664(2) 0.9228(8)
C24 C 0.982(2) 0.670(3) 1.0165(12)
C25 C 0.9407(12) 0.594(2) 1.1015(9)
C26 C 0.8367(12) 0.513(2) 1.0944(9)
C27 C 0.7704(11) 0.508(2) 0.9981(9)
H1 H 0.8572 0.2661 0.3876
H2 H 0.7443 0.5773 0.3985
H3 H 1.0309 0.3972 0.3980
H4 H 1.1996 0.5491 0.3730
H5 H 1.1866 0.8431 0.3376
H6 H 1.0098 0.9784 0.3294
H7 H 0.8443 0.8313 0.3596
H8 H 0.3907 0.5234 0.2371
H9 H 0.5376 0.7369 0.1385
H10 H 0.2778 0.4867 0.0894
H11 H 0.1889 0.4288 -0.0729
H12 H 0.2691 0.5257 -0.2197
H13 H 0.4418 0.6682 -0.2051
H14 H 0.5329 0.7340 -0.0437
H15 H 0.8088 0.7606 0.7358
H16 H 0.6778 0.4981 0.8113
H17 H 0.9477 0.7148 0.8643
H18 H 1.0547 0.7265 1.0222
H19 H 0.9852 0.5987 1.1657
H20 H 0.8086 0.4601 1.1531
H21 H 0.6980 0.4507 0.9929
Yb1A Yb 0.53887(3) -0.0690(3) 0.47634(2)
Yb1A_2 Yb 0.53887(3) 0.9310(3) 0.47634(2)
O2A O 0.3267(6) 0.6033(9) 0.5826(5)
O3A O 0.5414(6) 0.1588(9) 0.5860(5)
O4A O 0.4167(6) 0.2931(9) 0.6746(5)
O5A O 0.3318(6) 0.2920(9) 0.4222(5)
loop_
_geom_bond_atom_site_label_1
_geom_bond_atom_site_label_2
_geom_bond_site_symmetry_1
_geom_bond_site_symmetry_2
Yb1 O1 1_555 1_555
O1 C1 1_555 1_555
O2 C1 1_555 1_555
O3 Yb1 1_555 1_555
O4 C10 1_555 1_555
O5 C19 1_555 1_555
O6 Yb1 1_555 1_555
C1 C2 1_555 1_555
C2 C3 1_555 1_555
C3 C4 1_555 1_555
C4 C5 1_555 1_555
C5 C6 1_555 1_555
C6 C7 1_555 1_555
C7 C8 1_555 1_555
C8 C9 1_555 1_555
C9 C4 1_555 1_555
C10 O3 1_555 1_555
C11 C10 1_555 1_555
C12 C11 1_555 1_555
C13 C12 1_555 1_555
C14 C13 1_555 1_555
C15 C14 1_555 1_555
C16 C15 1_555 1_555
C17 C16 1_555 1_555
C18 C13 1_555 1_555
C19 O6 1_555 1_555
C20 C19 1_555 1_555
C21 C20 1_555 1_555
C22 C21 1_555 1_555
C23 C22 1_555 1_555
C24 C23 1_555 1_555
C25 C24 1_555 1_555
C26 C25 1_555 1_555
C27 C22 1_555 1_555
H1 C2 1_555 1_555
H2 C3 1_555 1_555
H3 C5 1_555 1_555
H4 C6 1_555 1_555
H5 C7 1_555 1_555
H6 C8 1_555 1_555
H7 C9 1_555 1_555
H8 C11 1_555 1_555
H9 C12 1_555 1_555
H10 C14 1_555 1_555
H11 C15 1_555 1_555
H12 C16 1_555 1_555
H13 C17 1_555 1_555
H14 C18 1_555 1_555
H15 C20 1_555 1_555
H16 C21 1_555 1_555
H17 C23 1_555 1_555
H18 C24 1_555 1_555
H19 C25 1_555 1_555
H20 C26 1_555 1_555
H21 C27 1_555 1_555
Yb1A O2 1_555 1_555
Yb1A_2 O3 1_555 1_555
O2A Yb1 1_555 1_555
O3A Yb1 1_555 1_555
O4A Yb1 1_555 1_555
O5A Yb1 1_555 1_555
O4 Yb1A_2 1_555 1_555
O5 Yb1A_2 1_555 1_555
C17 C18 1_555 1_555
C26 C27 1_555 1_555
Yb1A O3A 1_555 1_555

#END
