
#######################################################################
#
#                 Cambridge Crystallographic Data Centre
#                                CCDC 
#
#######################################################################
#
# If this CIF has been generated from an entry in the Cambridge 
# Structural Database, then it will include bibliographic, chemical, 
# crystal, experimental, refinement or atomic coordinate data resulting 
# from the CCDC's data processing and validation procedures.
#
#######################################################################

data_LUPZAY
_symmetry_cell_setting           rhombohedral
_symmetry_space_group_name_H-M   'R 3 c'
_symmetry_Int_Tables_number      161
_space_group_name_Hall           'R 3 -2"c'
loop_
_symmetry_equiv_pos_site_id
_symmetry_equiv_pos_as_xyz
1 x,y,z
2 -y,x-y,z
3 -x+y,-x,z
4 -x+y,y,1/2+z
5 x,x-y,1/2+z
6 -y,-x,1/2+z
7 2/3+x,1/3+y,1/3+z
8 2/3-y,1/3+x-y,1/3+z
9 2/3-x+y,1/3-x,1/3+z
10 2/3-x+y,1/3+y,5/6+z
11 2/3+x,1/3+x-y,5/6+z
12 2/3-y,1/3-x,5/6+z
13 1/3+x,2/3+y,2/3+z
14 1/3-y,2/3+x-y,2/3+z
15 1/3-x+y,2/3-x,2/3+z
16 1/3-x+y,2/3+y,1/6+z
17 1/3+x,2/3+x-y,1/6+z
18 1/3-y,2/3-x,1/6+z
_cell_length_a                   22.647(4)
_cell_length_b                   22.647(4)
_cell_length_c                   7.703(1)
_cell_angle_alpha                90
_cell_angle_beta                 90
_cell_angle_gamma                120
_cell_volume                     3421.46
loop_
_atom_site_label
_atom_site_type_symbol
_atom_site_fract_x
_atom_site_fract_y
_atom_site_fract_z
Tb1 Tb 0.0000 0.0000 0.1673(2)
O1 O 0.0800(3) 0.0586(3) 0.4354(7)
O2 O 0.0764(3) 0.1170(3) 0.2144(7)
C1 C 0.0993(4) 0.1160(4) 0.3604(9)
C2 C 0.1505(4) 0.1800(4) 0.4446(10)
C3 C 0.1648(4) 0.2402(4) 0.3833(10)
C4 C 0.2119(4) 0.3077(4) 0.4585(10)
C5 C 0.2068(5) 0.3636(4) 0.4056(12)
C6 C 0.2487(5) 0.4278(5) 0.476(1)
C7 C 0.2967(5) 0.4375(5) 0.5977(12)
C8 C 0.3032(5) 0.3824(5) 0.6510(12)
C9 C 0.2611(4) 0.3178(4) 0.5820(11)
H1 H 0.1736 0.1778 0.5453
H2 H 0.1424 0.2400 0.2790
H3 H 0.1741 0.3578 0.3201
H4 H 0.2441 0.4653 0.4391
H5 H 0.3252 0.4815 0.6454
H6 H 0.3367 0.3889 0.7350
H7 H 0.2658 0.2804 0.6192
Tb1C Tb 0.0000 0.0000 0.6673(2)
O1A O -0.0586(3) 0.0214(4) 0.4354(7)
O1B O -0.0214(4) -0.0800(3) 0.4354(7)
O1C O -0.0214(4) 0.0586(3) -0.0646(7)
O1D O 0.0800(3) 0.0214(4) -0.0646(7)
O1E O -0.0586(3) -0.0800(3) -0.0646(7)
O2A O -0.1170(3) -0.0406(4) 0.2144(7)
O2B O 0.0406(4) -0.0764(3) 0.2144(7)
C1A C -0.1160(4) -0.0167(6) 0.3604(9)
C1B C 0.0167(6) -0.0993(4) 0.3604(9)
C2A C -0.1800(4) -0.0295(6) 0.4446(10)
C2B C 0.0295(6) -0.1505(4) 0.4446(10)
C3A C -0.2402(4) -0.0754(6) 0.3833(10)
C3B C 0.0754(6) -0.1648(4) 0.3833(10)
C4A C -0.3077(4) -0.0958(6) 0.4585(10)
C4B C 0.0958(6) -0.2119(4) 0.4585(10)
C5A C -0.3636(4) -0.1568(6) 0.4056(12)
C5B C 0.1568(6) -0.2068(5) 0.4056(12)
C6A C -0.4278(5) -0.1791(7) 0.476(1)
C6B C 0.1791(7) -0.2487(5) 0.476(1)
C7A C -0.4375(5) -0.1408(7) 0.5977(12)
C7B C 0.1408(7) -0.2967(5) 0.5977(12)
C8A C -0.3824(5) -0.0792(7) 0.6510(12)
C8B C 0.0792(7) -0.3032(5) 0.6510(12)
C9A C -0.3178(4) -0.0567(6) 0.5820(11)
C9B C 0.0567(6) -0.2611(4) 0.5820(11)
H1A H -0.1778 -0.0042 0.5453
H1B H 0.0042 -0.1736 0.5453
H2A H -0.2400 -0.0976 0.2790
H2B H 0.0976 -0.1424 0.2790
H3A H -0.3578 -0.1837 0.3201
H3B H 0.1837 -0.1741 0.3201
H4A H -0.4653 -0.2212 0.4391
H4B H 0.2212 -0.2441 0.4391
H5A H -0.4815 -0.1563 0.6454
H5B H 0.1563 -0.3252 0.6454
H6A H -0.3889 -0.0522 0.7350
H6B H 0.0522 -0.3367 0.7350
H7A H -0.2804 -0.0146 0.6192
H7B H 0.0146 -0.2658 0.6192
loop_
_geom_bond_atom_site_label_1
_geom_bond_atom_site_label_2
_geom_bond_site_symmetry_1
_geom_bond_site_symmetry_2
Tb1 O1 1_555 1_555
O1 C1 1_555 1_555
O2 Tb1 1_555 1_555
C1 O2 1_555 1_555
C2 C1 1_555 1_555
C3 C2 1_555 1_555
C4 C3 1_555 1_555
C5 C4 1_555 1_555
C6 C5 1_555 1_555
C7 C6 1_555 1_555
C8 C7 1_555 1_555
C9 C4 1_555 1_555
H1 C2 1_555 1_555
H2 C3 1_555 1_555
H3 C5 1_555 1_555
H4 C6 1_555 1_555
H5 C7 1_555 1_555
H6 C8 1_555 1_555
H7 C9 1_555 1_555
Tb1C O1 1_555 1_555
O1A Tb1 1_555 1_555
O1B Tb1 1_555 1_555
O1C Tb1 1_555 1_555
O1D Tb1 1_555 1_555
O1E Tb1 1_555 1_555
O2A Tb1 1_555 1_555
O2B Tb1 1_555 1_555
C1A O1A 1_555 1_555
C1B O1B 1_555 1_555
C2A C1A 1_555 1_555
C2B C1B 1_555 1_555
C3A C2A 1_555 1_555
C3B C2B 1_555 1_555
C4A C3A 1_555 1_555
C4B C3B 1_555 1_555
C5A C4A 1_555 1_555
C5B C4B 1_555 1_555
C6A C5A 1_555 1_555
C6B C5B 1_555 1_555
C7A C6A 1_555 1_555
C7B C6B 1_555 1_555
C8A C7A 1_555 1_555
C8B C7B 1_555 1_555
C9A C4A 1_555 1_555
C9B C4B 1_555 1_555
H1A C2A 1_555 1_555
H1B C2B 1_555 1_555
H2A C3A 1_555 1_555
H2B C3B 1_555 1_555
H3A C5A 1_555 1_555
H3B C5B 1_555 1_555
H4A C6A 1_555 1_555
H4B C6B 1_555 1_555
H5A C7A 1_555 1_555
H5B C7B 1_555 1_555
H6A C8A 1_555 1_555
H6B C8B 1_555 1_555
H7A C9A 1_555 1_555
H7B C9B 1_555 1_555
C8 C9 1_555 1_555
Tb1C O1A 1_555 1_555
Tb1C O1B 1_555 1_555
O2A C1A 1_555 1_555
O2B C1B 1_555 1_555
C8A C9A 1_555 1_555
C8B C9B 1_555 1_555

#END
