
#######################################################################
#
#                 Cambridge Crystallographic Data Centre
#                                CCDC 
#
#######################################################################
#
# If this CIF has been generated from an entry in the Cambridge 
# Structural Database, then it will include bibliographic, chemical, 
# crystal, experimental, refinement or atomic coordinate data resulting 
# from the CCDC's data processing and validation procedures.
#
#######################################################################

data_LUQBEG
_symmetry_cell_setting           orthorhombic
_symmetry_space_group_name_H-M   'P 21 21 21'
_symmetry_Int_Tables_number      19
_space_group_name_Hall           'P 2ac 2ab'
loop_
_symmetry_equiv_pos_site_id
_symmetry_equiv_pos_as_xyz
1 x,y,z
2 1/2-x,-y,1/2+z
3 1/2+x,1/2-y,-z
4 -x,1/2+y,1/2-z
_cell_length_a                   19.771(2)
_cell_length_b                   22.179(2)
_cell_length_c                   33.842(4)
_cell_angle_alpha                90
_cell_angle_beta                 90
_cell_angle_gamma                90
_cell_volume                     14839.8
loop_
_atom_site_label
_atom_site_type_symbol
_atom_site_fract_x
_atom_site_fract_y
_atom_site_fract_z
Dy1 Dy 0.001315(16) -0.635925(13) -0.194893(10)
Dy2 Dy -0.018644(18) -0.613326(15) 0.310878(11)
Dy3 Dy -0.011594(19) -0.602415(15) 0.052984(11)
Cu1 Cu 0.03816(6) -0.63607(5) -0.43781(3)
O1 O -0.0426(3) -0.6056(2) -0.41197(17)
C1 C 0.0243(4) -0.6618(3) -0.3187(2)
C2 C 0.0019(5) -0.6674(3) -0.0642(2)
O2 O -0.1382(3) -0.6308(3) 0.31244(18)
O3 O 0.0894(3) -0.6517(2) 0.31891(18)
N1 N -0.0147(3) -0.6846(3) -0.29087(18)
O4 O -0.1112(3) -0.6747(2) -0.19141(18)
O5 O -0.0331(3) -0.6579(2) -0.25860(16)
O6 O 0.0979(3) -0.6410(3) 0.04719(17)
O7 O -0.0455(3) -0.6005(2) -0.13539(15)
N2 N -0.0292(3) -0.5753(3) -0.10311(19)
O8 O -0.0414(3) -0.6488(2) 0.24632(16)
N3 N -0.0126(4) -0.5793(3) -0.5298(2)
O9 O 0.0886(3) -0.5633(3) -0.42694(18)
O10 O 0.0517(3) -0.5613(2) 0.26573(18)
O11 O 0.0629(3) -0.5205(2) 0.06405(17)
O12 O -0.0332(3) -0.7173(2) 0.31855(17)
F1 F 0.1963(3) -0.7251(2) 0.3258(2)
N4 N 0.0062(4) -0.5600(3) -0.04313(19)
O13 O 0.0216(4) -0.5786(3) -0.49809(18)
F2 F 0.2632(3) -0.6502(3) 0.3364(2)
O14 O -0.0706(3) -0.5570(2) -0.21313(17)
O15 O -0.1025(3) -0.6129(2) 0.00705(17)
F3 F 0.2376(3) -0.6432(3) -0.1392(2)
O16 O -0.0767(3) -0.5167(3) 0.0603(2)
O17 O -0.0259(3) -0.7050(2) 0.04229(17)
N5 N 0.0283(4) -0.7029(3) -0.3489(2)
O18 O 0.1002(3) -0.6650(2) -0.22939(17)
F4 F 0.2732(3) -0.6447(3) 0.0466(2)
O19 O 0.0293(3) -0.5691(2) -0.00798(16)
F5 F 0.1733(3) -0.4746(3) -0.4156(2)
F6 F -0.2429(3) -0.5943(3) 0.0058(2)
O20 O 0.0255(3) -0.6109(3) 0.11806(15)
F7 F 0.2193(3) -0.6629(3) 0.27907(18)
O21 O 0.0154(3) -0.7352(2) -0.17809(16)
F8 F -0.2034(3) -0.6102(4) -0.05071(19)
F9 F -0.0056(3) -0.8515(2) -0.1619(2)
F10 F 0.2064(4) -0.7107(3) 0.0663(2)
C3 C 0.0630(4) -0.7638(3) -0.1622(3)
F11 F 0.1784(3) -0.6100(2) -0.09193(18)
F12 F -0.2697(3) -0.6863(3) -0.1763(2)
F13 F 0.2163(3) -0.6996(2) -0.0894(2)
F14 F 0.1900(3) -0.7247(3) -0.2713(2)
F15 F 0.0939(3) -0.4145(2) -0.3983(2)
C4 C 0.2126(5) -0.6643(5) 0.0407(3)
F16 F -0.1920(3) -0.6928(3) 0.1342(2)
O22 O 0.0572(4) -0.6950(3) -0.38177(19)
O23 O -0.0160(3) -0.6988(3) -0.46277(18)
C5 C 0.1058(5) -0.5329(4) 0.3536(3)
C6 C 0.0057(5) -0.4978(3) -0.0598(2)
N6 N -0.0464(4) -0.6018(3) -0.5893(2)
C7 C 0.1578(4) -0.5731(4) 0.3451(3)
H1 H 0.2020 -0.5623 0.3511
F17 F -0.2059(3) -0.7555(2) -0.1999(2)
F18 F 0.0953(4) -0.8629(2) -0.1426(2)
F19 F -0.2484(3) -0.6730(3) 0.0815(2)
C8 C -0.0501(4) -0.7415(3) -0.3035(3)
O24 O 0.1232(3) -0.6739(3) -0.45321(19)
F20 F -0.2560(3) -0.6801(3) -0.0203(3)
O25 O 0.1307(4) -0.5724(4) -0.5506(2)
F21 F 0.1031(3) -0.4398(3) -0.4593(2)
O26 O 0.0381(3) -0.8503(2) -0.0535(2)
O27 O -0.1054(3) -0.6880(3) -0.0884(2)
C9 C -0.1624(4) -0.6048(4) 0.0978(3)
C10 C -0.0219(6) -0.4735(3) -0.1329(3)
H2 H -0.0539 -0.4813 -0.1536
H3 H 0.0223 -0.4858 -0.1413
H4 H -0.0215 -0.4312 -0.1270
C11 C 0.1551(4) -0.6172(4) 0.0467(3)
C12 C 0.0678(5) -0.7316(4) 0.2347(3)
H5 H 0.0913 -0.6971 0.2449
H6 H 0.1001 -0.7605 0.2250
H7 H 0.0414 -0.7496 0.2554
C13 C 0.0285(5) -0.7884(4) -0.0547(3)
F22 F -0.1607(3) -0.4379(3) 0.2958(4)
C14 C 0.1568(4) -0.6406(4) -0.2343(3)
F23 F 0.1835(4) -0.4681(3) 0.3870(2)
F24 F 0.2427(4) -0.7088(4) -0.2180(2)
F25 F -0.2822(3) -0.6562(3) 0.29826(19)
C15 C 0.0079(5) -0.4620(4) 0.2645(3)
H8 H 0.0158 -0.4230 0.2555
C16 C -0.0452(4) -0.7103(4) -0.0767(3)
C17 C -0.0642(4) -0.5630(4) 0.1799(3)
C18 C -0.1339(6) -0.5240(5) -0.6035(3)
H9 H -0.1430 -0.5458 -0.6274
H10 H -0.1011 -0.4931 -0.6087
H11 H -0.1749 -0.5059 -0.5941
C19 C -0.1313(5) -0.5528(4) -0.2209(3)
F26 F -0.1111(3) -0.4026(3) 0.0641(3)
F27 F -0.1212(4) -0.4888(3) -0.3623(3)
F28 F -0.2640(3) -0.6200(3) 0.1342(2)
F29 F 0.2600(3) -0.6541(3) -0.2685(2)
C20 C 0.0618(6) -0.7366(5) 0.1301(3)
H12 H 0.0889 -0.7706 0.1378
H13 H 0.0808 -0.7184 0.1069
H14 H 0.0165 -0.7498 0.1246
C21 C 0.2076(5) -0.6669(4) 0.3172(3)
C22 C -0.0491(4) -0.5517(4) -0.3996(2)
C23 C 0.1901(5) -0.6582(4) -0.1132(3)
C24 C 0.0629(4) -0.5146(4) -0.4164(3)
C25 C 0.1190(4) -0.7410(4) -0.1425(3)
H15 H 0.1523 -0.7675 -0.1338
C26 C -0.1180(5) -0.5396(4) -0.3818(3)
C27 C -0.2173(6) -0.6486(5) 0.1122(3)
C28 C -0.2472(5) -0.6609(6) 0.3312(3)
C29 C -0.0557(5) -0.7844(4) -0.2678(3)
H16 H -0.0881 -0.7687 -0.2494
H17 H -0.0124 -0.7878 -0.2552
H18 H -0.0700 -0.8235 -0.2767
O28 O 0.1318(4) -0.4282(3) -0.3064(3)
C30 C -0.1656(4) -0.6557(4) -0.2048(3)
C31 C 0.1267(4) -0.6791(4) -0.1354(3)
C32 C -0.1305(5) -0.5680(4) 0.1944(3)
F30 F 0.0737(5) -0.8481(3) -0.2029(2)
C33 C -0.0013(5) -0.7619(3) -0.3366(2)
C34 C -0.0980(5) -0.4206(5) 0.2929(4)
F31 F 0.1719(3) -0.5089(5) 0.2500(3)
F32 F -0.0204(5) -0.8282(3) -0.52107(19)
C35 C -0.2253(5) -0.7016(5) -0.2049(4)
F33 F 0.1326(5) -0.4335(3) 0.3376(3)
F34 F -0.2570(3) -0.6083(5) 0.3479(3)
C36 C -0.1060(5) -0.5677(4) -0.5720(3)
C37 C 0.0604(5) -0.6906(4) 0.1636(3)
F35 F -0.0829(4) -0.3934(3) 0.3248(3)
O29 O -0.1521(3) -0.6222(3) 0.2006(2)
C38 C -0.0401(7) -0.5088(4) 0.1660(3)
H19 H 0.0036 -0.5052 0.1562
C39 C -0.1783(4) -0.5463(4) 0.0907(3)
H20 H -0.2206 -0.5323 0.0983
C40 C -0.1501(5) -0.7327(5) 0.3316(3)
H21 H -0.1811 -0.7609 0.3408
C41 C -0.1791(5) -0.5969(5) -0.2201(4)
H22 H -0.2220 -0.5885 -0.2298
C42 C 0.0101(7) -0.7449(4) -0.4798(3)
C43 C 0.1292(5) -0.6642(5) 0.1722(3)
H23 H 0.1468 -0.6457 0.1487
H24 H 0.1592 -0.6956 0.1807
H25 H 0.1253 -0.6344 0.1926
O30 O -0.1063(3) -0.6301(2) 0.09096(17)
N7 N 0.0164(3) -0.6381(3) 0.15190(18)
C44 C -0.0417(5) -0.5084(3) -0.0964(2)
F36 F 0.2090(4) -0.6886(4) 0.0051(2)
C45 C -0.1587(5) -0.6168(5) -0.5620(3)
H26 H -0.1408 -0.6431 -0.5421
H27 H -0.1689 -0.6396 -0.5853
H28 H -0.1993 -0.5981 -0.5523
C46 C 0.0161(5) -0.5521(3) -0.3025(2)
H29 H -0.0276 -0.5590 -0.2934
F37 F -0.1875(6) -0.4415(4) 0.0282(4)
C47 C -0.2142(6) -0.6313(6) 0.2234(4)
H30 H -0.2094 -0.6131 0.2490
H31 H -0.2225 -0.6737 0.2264
H32 H -0.2515 -0.6131 0.2097
C48 C -0.0470(7) -0.7850(4) -0.4973(3)
F38 F 0.2106(4) -0.4399(3) 0.0612(3)
C49 C 0.0571(5) -0.8008(4) -0.3220(3)
H33 H 0.0778 -0.7818 -0.2995
H34 H 0.0899 -0.8052 -0.3427
H35 H 0.0403 -0.8398 -0.3145
C50 C -0.1446(5) -0.6551(4) 0.0024(3)
C51 C -0.0027(5) -0.5058(4) -0.4023(2)
H36 H -0.0156 -0.4673 -0.3946
C52 C 0.1726(5) -0.5574(4) 0.0518(3)
H37 H 0.2177 -0.5460 0.0494
F39 F -0.0955(5) -0.3780(3) 0.2649(3)
C53 C 0.1079(6) -0.4860(5) -0.3124(3)
C54 C -0.1364(5) -0.7145(4) 0.0125(3)
H38 H -0.1705 -0.7418 0.0064
C55 C 0.1244(7) -0.6306(6) -0.5610(3)
C56 C -0.0341(5) -0.7573(4) 0.1941(3)
H39 H -0.0596 -0.7627 0.2180
H40 H -0.0148 -0.7951 0.1862
H41 H -0.0635 -0.7428 0.1736
C57 C 0.0615(5) -0.6864(4) -0.0450(3)
H42 H 0.0914 -0.6577 -0.0352
C58 C 0.1193(5) -0.4893(5) 0.2330(4)
C59 C 0.1248(5) -0.5145(4) 0.0602(3)
C60 C -0.1202(4) -0.7224(5) -0.3176(3)
H43 H -0.1160 -0.6987 -0.3412
H44 H -0.1420 -0.6990 -0.2974
H45 H -0.1468 -0.7577 -0.3232
C61 C 0.1509(6) -0.4517(5) 0.0657(4)
C62 C 0.1087(5) -0.4607(4) -0.4221(3)
C63 C -0.0497(5) -0.4741(4) 0.2849(3)
C64 C -0.1176(6) -0.5009(4) -0.0892(3)
H46 H -0.1297 -0.5204 -0.0649
H47 H -0.1422 -0.5190 -0.1106
H48 H -0.1285 -0.4588 -0.0876
C65 C -0.1592(6) -0.4420(5) 0.0627(5)
C66 C 0.1244(6) -0.4689(4) 0.3687(4)
F40 F -0.2609(3) -0.6978(3) -0.2391(2)
F41 F -0.2067(4) -0.4241(3) 0.0887(3)
C67 C -0.1724(5) -0.6752(5) 0.3233(3)
C68 C -0.2120(4) -0.6340(4) -0.0160(3)
C69 C 0.0425(6) -0.4960(4) -0.3000(3)
H49 H 0.0167 -0.4644 -0.2900
C70 C -0.0307(5) -0.7708(4) -0.0718(3)
H50 H -0.0616 -0.7997 -0.0801
F42 F 0.1124(6) -0.4138(4) 0.0796(4)
F43 F -0.2794(3) -0.7060(4) 0.3503(3)
C71 C -0.0247(7) -0.4539(4) -0.0284(3)
H51 H 0.0056 -0.4507 -0.0063
H52 H -0.0675 -0.4691 -0.0195
H53 H -0.0310 -0.4148 -0.0400
F44 F -0.0811(5) -0.8121(3) -0.4693(2)
C72 C -0.1335(4) -0.5062(4) 0.0722(3)
C73 C 0.0549(4) -0.5062(4) 0.2568(3)
C74 C 0.1458(4) -0.6286(4) 0.3279(3)
F45 F -0.1631(4) -0.5374(5) -0.4083(3)
O31 O 0.0437(3) -0.5415(2) 0.34928(19)
C75 C 0.0770(6) -0.7609(4) -0.4828(3)
H54 H 0.0883 -0.7967 -0.4956
C76 C -0.0079(4) -0.6033(3) -0.0694(2)
F46 F -0.0110(4) -0.8232(2) 0.0374(2)
O32 O 0.0896(3) -0.6383(2) -0.14668(17)
F47 F 0.1028(3) -0.4356(2) -0.2078(2)
F48 F -0.0302(4) -0.8368(2) 0.3013(2)
O33 O -0.0694(3) -0.5215(2) 0.2989(2)
O34 O 0.0659(3) -0.5497(2) -0.20255(19)
F49 F 0.1652(3) -0.4731(3) -0.16268(19)
F50 F -0.1152(4) -0.8528(3) 0.3392(2)
C77 C -0.0214(4) -0.6169(4) 0.1802(2)
F51 F -0.2190(3) -0.4799(3) -0.2264(2)
F52 F -0.0216(4) -0.8215(3) 0.3637(2)
F53 F -0.1182(3) -0.4471(3) -0.2175(3)
O35 O 0.1555(3) -0.6397(4) -0.3401(2)
F54 F -0.0878(5) -0.8103(3) 0.0803(2)
F55 F -0.1361(4) -0.5791(3) -0.3569(3)
C78 C 0.1510(4) -0.4752(4) -0.2013(3)
F56 F -0.1477(5) -0.4851(3) -0.2734(2)
N8 N -0.0146(3) -0.6550(3) 0.21225(18)
F57 F 0.2460(4) -0.7066(4) -0.4777(2)
C79 C 0.0214(4) -0.7122(3) 0.2010(3)
F58 F 0.2087(4) -0.7945(4) -0.4939(2)
F59 F 0.1166(5) -0.5117(6) 0.1972(3)
C80 C 0.0574(5) -0.8321(4) -0.1663(3)
C81 C 0.0534(5) -0.6007(4) -0.3186(3)
C82 C -0.0635(6) -0.8165(4) 0.3329(3)
F60 F -0.1121(5) -0.8368(3) 0.0213(3)
O36 O -0.1948(6) -0.4174(4) 0.1875(3)
C83 C -0.0739(6) -0.8030(4) 0.0422(3)
C84 C 0.1265(4) -0.5406(3) -0.2105(3)
C85 C -0.0831(5) -0.7502(4) 0.3267(3)
F61 F -0.0872(5) -0.7527(3) -0.5196(3)
C86 C -0.0777(5) -0.7353(3) 0.0318(3)
C87 C 0.0765(5) -0.7473(4) -0.0402(3)
H55 H 0.1162 -0.7601 -0.0281
C88 C -0.1722(6) -0.5172(5) 0.1954(4)
H56 H -0.2164 -0.5200 0.2047
F62 F 0.1273(4) -0.4328(3) 0.2279(3)
C89 C 0.0025(5) -0.6100(3) -0.5634(2)
C90 C -0.0373(5) -0.7913(5) -0.3723(3)
H57 H -0.0043 -0.8019 -0.3919
H58 H -0.0691 -0.7633 -0.3833
H59 H -0.0606 -0.8269 -0.3637
C91 C 0.1729(4) -0.5805(4) -0.2257(3)
H60 H 0.2167 -0.5671 -0.2305
C92 C -0.1543(5) -0.7310(5) -0.1048(4)
H61 H -0.1785 -0.7502 -0.0836
H62 H -0.1308 -0.7610 -0.1199
H63 H -0.1857 -0.7100 -0.1215
C93 C -0.0724(5) -0.5388(4) -0.5352(3)
C94 C -0.1545(5) -0.4909(4) -0.2354(4)
C95 C -0.1475(7) -0.4643(5) 0.1830(4)
C96 C -0.0852(7) -0.4578(4) 0.1672(3)
H64 H -0.0715 -0.4207 0.1572
F63 F 0.0813(5) -0.4472(4) 0.3922(4)
C97 C 0.1190(5) -0.5906(4) -0.3297(3)
C98 C -0.0430(6) -0.4752(4) -0.5441(3)
H65 H -0.0098 -0.4781 -0.5647
H66 H -0.0224 -0.4592 -0.5207
H67 H -0.0789 -0.4489 -0.5525
C99 C 0.1805(6) -0.6703(6) -0.5648(3)
H68 H 0.2243 -0.6592 -0.5581
C100 C 0.1478(6) -0.5308(5) -0.3275(3)
H69 H 0.1917 -0.5232 -0.3359
C101 C 0.1640(8) -0.7285(6) -0.5798(3)
C102 C 0.1008(5) -0.8702(5) -0.0377(4)
H70 H 0.0984 -0.8702 -0.0094
H71 H 0.1362 -0.8436 -0.0462
H72 H 0.1101 -0.9103 -0.0469
C103 C -0.1156(5) -0.5371(5) -0.4998(3)
H73 H -0.0914 -0.5183 -0.4785
H74 H -0.1276 -0.5774 -0.4924
H75 H -0.1558 -0.5144 -0.5054
C104 C 0.1026(8) -0.7468(6) -0.5891(4)
H76 H 0.0950 -0.7854 -0.5987
C105 C 0.0514(8) -0.7079(4) -0.5842(3)
H77 H 0.0080 -0.7206 -0.5906
C106 C 0.1258(6) -0.7265(5) -0.4681(3)
C107 C 0.0599(6) -0.6502(5) -0.5701(3)
O37 O -0.0520(3) -0.6264(2) -0.62405(16)
F64 F 0.2133(5) -0.7713(5) -0.4331(2)
C108 C 0.2129(5) -0.6822(4) -0.2478(3)
O38 O 0.2131(5) -0.7737(4) -0.5853(3)
C109 C 0.0779(6) -0.4824(5) -0.0701(3)
H78 H 0.0939 -0.5094 -0.0902
H79 H 0.1058 -0.4863 -0.0470
H80 H 0.0801 -0.4417 -0.0796
C110 C 0.2011(9) -0.7481(7) -0.4679(4)
C111 C 0.2794(8) -0.7539(8) -0.5771(4)
H81 H 0.2886 -0.7585 -0.5494
H82 H 0.2838 -0.7123 -0.5844
H83 H 0.3111 -0.7776 -0.5920
C112 C -0.1763(10) -0.3605(6) 0.1754(5)
H84 H -0.1657 -0.3362 0.1980
H85 H -0.2131 -0.3424 0.1611
H86 H -0.1374 -0.3631 0.1585
F65 F 0.1401(8) -0.4215(7) 0.0281(5)
C113 C 0.1906(7) -0.5519(8) -0.5300(5)
H87 H 0.1926 -0.5705 -0.5044
H88 H 0.1889 -0.5089 -0.5270
H89 H 0.2301 -0.5628 -0.5449
F66 F 0.2043(3) -0.4592(2) -0.2207(2)
C114 C 0.2151(5) -0.6314(6) -0.3637(4)
H90 H 0.2504 -0.6145 -0.3476
H91 H 0.2052 -0.6046 -0.3852
H92 H 0.2295 -0.6697 -0.3739
C115 C 0.2006(6) -0.4159(5) -0.3172(4)
H93 H 0.2305 -0.4346 -0.2985
H94 H 0.2081 -0.3731 -0.3173
H95 H 0.2093 -0.4318 -0.3431
Dy2_2 Dy -0.018644(18) -0.613326(15) -0.689122(11)
O37_2 O -0.0520(3) -0.6264(2) 0.37595(16)
loop_
_geom_bond_atom_site_label_1
_geom_bond_atom_site_label_2
_geom_bond_site_symmetry_1
_geom_bond_site_symmetry_2
Dy1 O4 1_555 1_555
Dy2 O2 1_555 1_555
Dy3 O6 1_555 1_555
Cu1 O1 1_555 1_555
O1 C22 1_555 1_555
C1 N1 1_555 1_555
C2 C16 1_555 1_555
O2 C67 1_555 1_555
O3 Dy2 1_555 1_555
N1 O5 1_555 1_555
O4 C30 1_555 1_555
O5 Dy1 1_555 1_555
O6 C11 1_555 1_555
O7 Dy1 1_555 1_555
N2 O7 1_555 1_555
O8 Dy2 1_555 1_555
N3 O13 1_555 1_555
O9 Cu1 1_555 1_555
O10 Dy2 1_555 1_555
O11 Dy3 1_555 1_555
O12 Dy2 1_555 1_555
F1 C21 1_555 1_555
N4 O19 1_555 1_555
O13 Cu1 1_555 1_555
F2 C21 1_555 1_555
O14 Dy1 1_555 1_555
O15 Dy3 1_555 1_555
F3 C23 1_555 1_555
O16 Dy3 1_555 1_555
O17 Dy3 1_555 1_555
N5 C1 1_555 1_555
O18 Dy1 1_555 1_555
F4 C4 1_555 1_555
O19 Dy3 1_555 1_555
F5 C62 1_555 1_555
F6 C68 1_555 1_555
O20 Dy3 1_555 1_555
F7 C21 1_555 1_555
O21 Dy1 1_555 1_555
F8 C68 1_555 1_555
F9 C80 1_555 1_555
F10 C4 1_555 1_555
C3 O21 1_555 1_555
F11 C23 1_555 1_555
F12 C35 1_555 1_555
F13 C23 1_555 1_555
F14 C108 1_555 1_555
F15 C62 1_555 1_555
C4 C11 1_555 1_555
F16 C27 1_555 1_555
O22 Cu1 1_555 1_555
O23 Cu1 1_555 1_555
C5 C7 1_555 1_555
C6 N4 1_555 1_555
N6 C36 1_555 1_555
C7 H1 1_555 1_555
F17 C35 1_555 1_555
F18 C80 1_555 1_555
F19 C27 1_555 1_555
C8 N1 1_555 1_555
O24 Cu1 1_555 1_555
F20 C68 1_555 1_555
O25 C55 1_555 1_555
F21 C62 1_555 1_555
O26 C13 1_555 1_555
O27 C16 1_555 1_555
C9 C27 1_555 1_555
C10 H2 1_555 1_555
H3 C10 1_555 1_555
H4 C10 1_555 1_555
C11 C52 1_555 1_555
C12 H5 1_555 1_555
H6 C12 1_555 1_555
H7 C12 1_555 1_555
C13 C70 1_555 1_555
F22 C34 1_555 1_555
C14 O18 1_555 1_555
F23 C66 1_555 1_555
F24 C108 1_555 1_555
F25 C28 1_555 1_555
C15 H8 1_555 1_555
C16 C70 1_555 1_555
C17 C32 1_555 1_555
C18 H9 1_555 1_555
H10 C18 1_555 1_555
H11 C18 1_555 1_555
C19 O14 1_555 1_555
F26 C65 1_555 1_555
F27 C26 1_555 1_555
F28 C27 1_555 1_555
F29 C108 1_555 1_555
C20 H12 1_555 1_555
H13 C20 1_555 1_555
H14 C20 1_555 1_555
C21 C74 1_555 1_555
C22 C26 1_555 1_555
C23 C31 1_555 1_555
C24 O9 1_555 1_555
C25 C3 1_555 1_555
H15 C25 1_555 1_555
C26 F45 1_555 1_555
C28 F34 1_555 1_555
C29 C8 1_555 1_555
H16 C29 1_555 1_555
H17 C29 1_555 1_555
H18 C29 1_555 1_555
O28 C53 1_555 1_555
C30 C35 1_555 1_555
C31 C25 1_555 1_555
C32 O29 1_555 1_555
F30 C80 1_555 1_555
C33 N5 1_555 1_555
C34 F35 1_555 1_555
F31 C58 1_555 1_555
F32 C48 1_555 1_555
C35 F40 1_555 1_555
F33 C66 1_555 1_555
C36 C18 1_555 1_555
C37 C20 1_555 1_555
O29 C47 1_555 1_555
C38 C17 1_555 1_555
H19 C38 1_555 1_555
C39 C9 1_555 1_555
H20 C39 1_555 1_555
C40 H21 1_555 1_555
C41 C19 1_555 1_555
H22 C41 1_555 1_555
C42 O23 1_555 1_555
C43 C37 1_555 1_555
H23 C43 1_555 1_555
H24 C43 1_555 1_555
H25 C43 1_555 1_555
O30 Dy3 1_555 1_555
N7 O20 1_555 1_555
C44 N2 1_555 1_555
F36 C4 1_555 1_555
C45 C36 1_555 1_555
H26 C45 1_555 1_555
H27 C45 1_555 1_555
H28 C45 1_555 1_555
C46 H29 1_555 1_555
F37 C65 1_555 1_555
C47 H30 1_555 1_555
H31 C47 1_555 1_555
H32 C47 1_555 1_555
C48 C42 1_555 1_555
F38 C61 1_555 1_555
C49 C33 1_555 1_555
H33 C49 1_555 1_555
H34 C49 1_555 1_555
H35 C49 1_555 1_555
C50 O15 1_555 1_555
C51 C22 1_555 1_555
H36 C51 1_555 1_555
C52 H37 1_555 1_555
F39 C34 1_555 1_555
C53 C69 1_555 1_555
C54 C50 1_555 1_555
H38 C54 1_555 1_555
C55 C99 1_555 1_555
C56 H39 1_555 1_555
H40 C56 1_555 1_555
H41 C56 1_555 1_555
C57 C2 1_555 1_555
H42 C57 1_555 1_555
C58 C73 1_555 1_555
C59 O11 1_555 1_555
C60 C8 1_555 1_555
H43 C60 1_555 1_555
H44 C60 1_555 1_555
H45 C60 1_555 1_555
C61 C59 1_555 1_555
C62 C24 1_555 1_555
C63 C15 1_555 1_555
C64 C44 1_555 1_555
H46 C64 1_555 1_555
H47 C64 1_555 1_555
H48 C64 1_555 1_555
C65 F41 1_555 1_555
C66 C5 1_555 1_555
C67 C28 1_555 1_555
C68 C50 1_555 1_555
C69 C46 1_555 1_555
H49 C69 1_555 1_555
C70 H50 1_555 1_555
F42 C61 1_555 1_555
F43 C28 1_555 1_555
C71 C6 1_555 1_555
H51 C71 1_555 1_555
H52 C71 1_555 1_555
H53 C71 1_555 1_555
F44 C48 1_555 1_555
C72 O16 1_555 1_555
C73 O10 1_555 1_555
C74 O3 1_555 1_555
O31 Dy2 1_555 1_555
C75 C42 1_555 1_555
H54 C75 1_555 1_555
C76 C2 1_555 1_555
F46 C83 1_555 1_555
O32 Dy1 1_555 1_555
F47 C78 1_555 1_555
F48 C82 1_555 1_555
O33 Dy2 1_555 1_555
O34 Dy1 1_555 1_555
F49 C78 1_555 1_555
F50 C82 1_555 1_555
C77 C17 1_555 1_555
F51 C94 1_555 1_555
F52 C82 1_555 1_555
F53 C94 1_555 1_555
O35 C97 1_555 1_555
F54 C83 1_555 1_555
F55 C26 1_555 1_555
C78 C84 1_555 1_555
F56 C94 1_555 1_555
N8 O8 1_555 1_555
F57 C110 1_555 1_555
C79 C12 1_555 1_555
F58 C110 1_555 1_555
F59 C58 1_555 1_555
C80 C3 1_555 1_555
C81 C1 1_555 1_555
C82 C85 1_555 1_555
F60 C83 1_555 1_555
O36 C95 1_555 1_555
C83 C86 1_555 1_555
C84 O34 1_555 1_555
C85 O12 1_555 1_555
F61 C48 1_555 1_555
C86 O17 1_555 1_555
C87 C13 1_555 1_555
H55 C87 1_555 1_555
C88 C32 1_555 1_555
H56 C88 1_555 1_555
F62 C58 1_555 1_555
C89 N3 1_555 1_555
C90 C33 1_555 1_555
H57 C90 1_555 1_555
H58 C90 1_555 1_555
H59 C90 1_555 1_555
C91 C14 1_555 1_555
H60 C91 1_555 1_555
C92 O27 1_555 1_555
H61 C92 1_555 1_555
H62 C92 1_555 1_555
H63 C92 1_555 1_555
C93 N3 1_555 1_555
C94 C19 1_555 1_555
C95 C88 1_555 1_555
C96 C38 1_555 1_555
H64 C96 1_555 1_555
F63 C66 1_555 1_555
C97 C81 1_555 1_555
C98 C93 1_555 1_555
H65 C98 1_555 1_555
H66 C98 1_555 1_555
H67 C98 1_555 1_555
C99 H68 1_555 1_555
C100 C53 1_555 1_555
H69 C100 1_555 1_555
C101 C99 1_555 1_555
C102 O26 1_555 1_555
H70 C102 1_555 1_555
H71 C102 1_555 1_555
H72 C102 1_555 1_555
C103 C93 1_555 1_555
H73 C103 1_555 1_555
H74 C103 1_555 1_555
H75 C103 1_555 1_555
C104 C101 1_555 1_555
H76 C104 1_555 1_555
C105 C104 1_555 1_555
H77 C105 1_555 1_555
C106 O24 1_555 1_555
C107 C55 1_555 1_555
O37 N6 1_555 1_555
F64 C110 1_555 1_555
C108 C14 1_555 1_555
O38 C101 1_555 1_555
C109 C6 1_555 1_555
H78 C109 1_555 1_555
H79 C109 1_555 1_555
H80 C109 1_555 1_555
C110 C106 1_555 1_555
C111 O38 1_555 1_555
H81 C111 1_555 1_555
H82 C111 1_555 1_555
H83 C111 1_555 1_555
C112 O36 1_555 1_555
H84 C112 1_555 1_555
H85 C112 1_555 1_555
H86 C112 1_555 1_555
F65 C61 1_555 1_555
C113 O25 1_555 1_555
H87 C113 1_555 1_555
H88 C113 1_555 1_555
H89 C113 1_555 1_555
F66 C78 1_555 1_555
C114 O35 1_555 1_555
H90 C114 1_555 1_555
H91 C114 1_555 1_555
H92 C114 1_555 1_555
C115 O28 1_555 1_555
H93 C115 1_555 1_555
H94 C115 1_555 1_555
H95 C115 1_555 1_555
Dy2_2 O37 1_555 1_555
O37_2 Dy2 1_555 1_555
N2 C76 1_555 1_555
N4 C76 1_555 1_555
N5 O22 1_555 1_555
C5 O31 1_555 1_555
C6 C44 1_555 1_555
N6 C89 1_555 1_555
C7 C74 1_555 1_555
C8 C33 1_555 1_555
C9 O30 1_555 1_555
C10 C44 1_555 1_555
C15 C73 1_555 1_555
C24 C51 1_555 1_555
C30 C41 1_555 1_555
C31 O32 1_555 1_555
C34 C63 1_555 1_555
C36 C93 1_555 1_555
C37 N7 1_555 1_555
C37 C79 1_555 1_555
C39 C72 1_555 1_555
C40 C67 1_555 1_555
C40 C85 1_555 1_555
N7 C77 1_555 1_555
C46 C81 1_555 1_555
C52 C59 1_555 1_555
C54 C86 1_555 1_555
C56 C79 1_555 1_555
C57 C87 1_555 1_555
C63 O33 1_555 1_555
C65 C72 1_555 1_555
C75 C106 1_555 1_555
C77 N8 1_555 1_555
N8 C79 1_555 1_555
C84 C91 1_555 1_555
C89 C107 1_555 1_555
C95 C96 1_555 1_555
C97 C100 1_555 1_555
C105 C107 1_555 1_555

#END
