
#######################################################################
#
#                 Cambridge Crystallographic Data Centre
#                                CCDC 
#
#######################################################################
#
# If this CIF has been generated from an entry in the Cambridge 
# Structural Database, then it will include bibliographic, chemical, 
# crystal, experimental, refinement or atomic coordinate data resulting 
# from the CCDC's data processing and validation procedures.
#
#######################################################################

data_LUQBEF
_symmetry_cell_setting           monoclinic
_symmetry_space_group_name_H-M   'P 21'
_symmetry_Int_Tables_number      4
_space_group_name_Hall           'P 2yb'
loop_
_symmetry_equiv_pos_site_id
_symmetry_equiv_pos_as_xyz
1 x,y,z
2 -x,1/2+y,-z
_cell_length_a                   11.564(1)
_cell_length_b                   7.8702(9)
_cell_length_c                   13.042(2)
_cell_angle_alpha                90
_cell_angle_beta                 94.280(2)
_cell_angle_gamma                90
_cell_volume                     1183.66
loop_
_atom_site_label
_atom_site_type_symbol
_atom_site_fract_x
_atom_site_fract_y
_atom_site_fract_z
Tm1 Tm -0.539240(10) 0.47211(13) 0.523800(10)
O1 O -0.4058(3) 0.4008(5) 0.4168(3)
O2 O -0.3252(3) 0.1434(5) 0.4176(3)
O3 O -0.5407(3) 0.6994(5) 0.4134(2)
O4 O -0.4165(3) 0.8336(5) 0.3246(3)
O5 O -0.6691(3) 0.3325(5) 0.4218(3)
O6 O -0.6024(3) 0.0838(5) 0.3713(3)
C1 C -0.3203(5) 0.3039(7) 0.4105(4)
C2 C -0.2072(8) 0.3786(12) 0.3947(7)
C3 C -0.1887(8) 0.5451(12) 0.3922(7)
C4 C -0.0815(5) 0.6378(8) 0.3798(4)
C5 C 0.0274(5) 0.5576(8) 0.3838(4)
C6 C 0.1265(5) 0.6455(9) 0.3682(5)
C7 C 0.1211(6) 0.8185(9) 0.3487(6)
C8 C 0.0148(6) 0.8986(9) 0.3438(6)
C9 C -0.0856(6) 0.8130(8) 0.3611(5)
C10 C -0.4967(5) 0.7300(7) 0.3266(4)
C11 C -0.5530(5) 0.6536(8) 0.2318(4)
C12 C -0.5261(5) 0.7027(8) 0.1400(4)
C13 C -0.5844(5) 0.6580(8) 0.0407(4)
C14 C -0.6876(5) 0.5674(8) 0.0299(5)
C15 C -0.7409(6) 0.5341(9) -0.0661(5)
C16 C -0.6922(6) 0.5878(9) -0.1529(5)
C17 C -0.5916(6) 0.6784(10) -0.1441(4)
C18 C -0.5366(5) 0.7135(9) -0.0484(4)
C19 C -0.6669(4) 0.2107(7) 0.3587(4)
C20 C -0.7467(5) 0.2226(7) 0.2649(4)
C21 C -0.7378(5) 0.1234(8) 0.1835(4)
C22 C -0.8106(5) 0.1281(8) 0.0861(4)
C23 C -0.9172(5) 0.2095(9) 0.0764(5)
C24 C -0.9827(8) 0.213(2) -0.0169(6)
C25 C -0.9414(6) 0.1354(10) -0.1013(5)
C26 C -0.8369(7) 0.0555(10) -0.0934(5)
C27 C -0.7698(6) 0.0491(9) 0.0007(5)
H1 H -0.1439 0.3044 0.3858
H2 H -0.2550 0.6138 0.3997
H3 H 0.0322 0.4392 0.3977
H4 H 0.1990 0.5881 0.3706
H5 H 0.1897 0.8811 0.3390
H6 H 0.0108 1.0163 0.3280
H7 H -0.1572 0.8723 0.3604
H8 H -0.6097 0.5673 0.2373
H9 H -0.4610 0.7760 0.1383
H10 H -0.7218 0.5278 0.0894
H11 H -0.8121 0.4734 -0.0720
H12 H -0.7284 0.5621 -0.2188
H13 H -0.5587 0.7178 -0.2043
H14 H -0.4661 0.7758 -0.0435
H15 H -0.8070 0.3049 0.2628
H16 H -0.6780 0.0405 0.1887
H17 H -0.9457 0.2634 0.1346
H18 H -1.0556 0.2695 -0.0226
H19 H -0.9861 0.1376 -0.1654
H20 H -0.8089 0.0032 -0.1523
H21 H -0.6974 -0.0084 0.0059
Tm1A Tm -0.460760(10) -0.02789(13) 0.476200(10)
Tm1A_2 Tm -0.460760(10) 0.97211(13) 0.476200(10)
O2A O -0.6748(3) 0.6434(5) 0.5824(3)
O3A O -0.4593(3) 0.1994(5) 0.5866(2)
O4A O -0.5835(3) 0.3336(5) 0.6754(3)
O6A O -0.3976(3) 0.5838(5) 0.6287(3)
loop_
_geom_bond_atom_site_label_1
_geom_bond_atom_site_label_2
_geom_bond_site_symmetry_1
_geom_bond_site_symmetry_2
Tm1 O1 1_555 1_555
O1 C1 1_555 1_555
O2 C1 1_555 1_555
O3 Tm1 1_555 1_555
O4 C10 1_555 1_555
O5 Tm1 1_555 1_555
O6 C19 1_555 1_555
C1 C2 1_555 1_555
C2 C3 1_555 1_555
C3 C4 1_555 1_555
C4 C5 1_555 1_555
C5 C6 1_555 1_555
C6 C7 1_555 1_555
C7 C8 1_555 1_555
C8 C9 1_555 1_555
C9 C4 1_555 1_555
C10 O3 1_555 1_555
C11 C10 1_555 1_555
C12 C11 1_555 1_555
C13 C12 1_555 1_555
C14 C13 1_555 1_555
C15 C14 1_555 1_555
C16 C15 1_555 1_555
C17 C16 1_555 1_555
C18 C13 1_555 1_555
C19 O5 1_555 1_555
C20 C19 1_555 1_555
C21 C20 1_555 1_555
C22 C21 1_555 1_555
C23 C22 1_555 1_555
C24 C23 1_555 1_555
C25 C24 1_555 1_555
C26 C25 1_555 1_555
C27 C22 1_555 1_555
H1 C2 1_555 1_555
H2 C3 1_555 1_555
H3 C5 1_555 1_555
H4 C6 1_555 1_555
H5 C7 1_555 1_555
H6 C8 1_555 1_555
H7 C9 1_555 1_555
H8 C11 1_555 1_555
H9 C12 1_555 1_555
H10 C14 1_555 1_555
H11 C15 1_555 1_555
H12 C16 1_555 1_555
H13 C17 1_555 1_555
H14 C18 1_555 1_555
H15 C20 1_555 1_555
H16 C21 1_555 1_555
H17 C23 1_555 1_555
H18 C24 1_555 1_555
H19 C25 1_555 1_555
H20 C26 1_555 1_555
H21 C27 1_555 1_555
Tm1A O2 1_555 1_555
Tm1A_2 O3 1_555 1_555
O2A Tm1 1_555 1_555
O3A Tm1 1_555 1_555
O4A Tm1 1_555 1_555
O6A Tm1 1_555 1_555
O4 Tm1A_2 1_555 1_555
O6 Tm1A 1_555 1_555
C17 C18 1_555 1_555
C26 C27 1_555 1_555
Tm1A O3A 1_555 1_555

#END
