
#######################################################################
#
#                 Cambridge Crystallographic Data Centre
#                                CCDC 
#
#######################################################################
#
# If this CIF has been generated from an entry in the Cambridge 
# Structural Database, then it will include bibliographic, chemical, 
# crystal, experimental, refinement or atomic coordinate data resulting 
# from the CCDC's data processing and validation procedures.
#
#######################################################################

data_LUQCUW
_symmetry_cell_setting           triclinic
_symmetry_space_group_name_H-M   'P -1'
_symmetry_Int_Tables_number      2
_space_group_name_Hall           '-P 1'
loop_
_symmetry_equiv_pos_site_id
_symmetry_equiv_pos_as_xyz
1 x,y,z
2 -x,-y,-z
_cell_length_a                   6.2571(14)
_cell_length_b                   8.5580(18)
_cell_length_c                   9.253(2)
_cell_angle_alpha                93.219(3)
_cell_angle_beta                 108.265(3)
_cell_angle_gamma                106.956(3)
_cell_volume                     444.086
loop_
_atom_site_label
_atom_site_type_symbol
_atom_site_fract_x
_atom_site_fract_y
_atom_site_fract_z
Ga1 Ga 0.20853(5) 0.58269(4) 0.80859(3)
P1 P -0.29369(13) 0.51685(11) 0.85895(9)
H1 H -0.345(7) 0.362(2) 0.817(4)
O1 O 0.1583(4) 0.6943(3) 0.6117(3)
O2 O -0.0960(4) 0.6108(3) 0.8017(3)
O3 O -0.2159(4) 0.5527(3) 1.0342(3)
O4 O -0.0119(4) 0.6219(3) 0.3558(3)
O5 O 0.3604(4) 0.7883(3) 0.9250(2)
H2 H 0.4033 0.7797 1.0167
O6 O -0.5115(5) 0.5624(4) 0.7774(3)
C1 C 0.0433(5) 0.5926(4) 0.4899(4)
Ga1A Ga -0.20853(5) 0.41731(4) 0.19141(3)
Ga1A_2 Ga -0.20853(5) 0.41731(4) 1.19141(3)
Ga1_2 Ga -0.79147(5) 0.58269(4) 0.80859(3)
Ga1_3 Ga 1.20853(5) 0.58269(4) 0.80859(3)
Ga1A_3 Ga 0.79147(5) 0.41731(4) 1.19141(3)
P1_2 P 0.70631(13) 0.51685(11) 0.85895(9)
H1_2 H 0.655(7) 0.362(2) 0.817(4)
O1A O -0.1583(4) 0.3057(3) 0.3883(3)
O2_2 O 0.9040(4) 0.6108(3) 0.8017(3)
O2A O 0.0960(4) 0.3892(3) 0.1983(3)
O3_2 O 0.7841(4) 0.5527(3) 1.0342(3)
O3A O 0.2159(4) 0.4473(3) 0.9658(3)
O3_3 O -0.2159(4) 0.5527(3) 0.0342(3)
O4A O 0.0119(4) 0.3781(3) 0.6442(3)
O5A O -0.3604(4) 0.2117(3) 0.0750(2)
H2A H -0.4033 0.2203 -0.0167
O6_2 O 0.4885(5) 0.5624(4) 0.7774(3)
O6A O -0.4885(5) 0.4376(4) 0.2226(3)
C1A C -0.0433(5) 0.4074(4) 0.5101(4)
N1 N -0.0433(6) 0.9455(4) 0.7887(4)
H3 H -0.016(8) 0.859(6) 0.809(5)
C2 C 0.1780(7) 1.0562(5) 0.7728(5)
H4 H 0.3102 1.0704 0.8657
H5 H 0.1604 1.1620 0.7551
H6 H 0.2062 1.0078 0.6874
C3 C -0.2504(9) 0.9219(6) 0.6455(5)
H7 H -0.3920 0.8504 0.6571
H8 H -0.2234 0.8729 0.5597
H9 H -0.2694 1.0272 0.6272
C4 C -0.0932(7) 1.0048(5) 0.9258(4)
H10 H -0.2499 0.9372 0.9217
H11 H -0.0920 1.1182 0.9241
N1A N 0.0433(6) 1.0545(4) 1.2113(4)
H3A H 0.016(8) 1.141(6) 1.191(5)
C2A C -0.1780(7) 0.9438(5) 1.2272(5)
H4A H -0.3102 0.9296 1.1343
H5A H -0.1604 0.8380 1.2449
H6A H -0.2062 0.9922 1.3126
C3A C 0.2504(9) 1.0781(6) 1.3545(5)
H7A H 0.3920 1.1496 1.3429
H8A H 0.2234 1.1271 1.4403
H9A H 0.2694 0.9728 1.3728
C4A C 0.0932(7) 0.9952(5) 1.0742(4)
H10A H 0.2499 1.0628 1.0783
H11A H 0.0920 0.8818 1.0759
loop_
_geom_bond_atom_site_label_1
_geom_bond_atom_site_label_2
_geom_bond_site_symmetry_1
_geom_bond_site_symmetry_2
Ga1 O1 1_555 1_555
P1 H1 1_555 1_555
O1 C1 1_555 1_555
O2 Ga1 1_555 1_555
O3 P1 1_555 1_555
O4 C1 1_555 1_555
O5 Ga1 1_555 1_555
H2 O5 1_555 1_555
O6 P1 1_555 1_555
N1 H3 1_555 1_555
C1 C1A 1_555 1_555
C2 N1 1_555 1_555
H4 C2 1_555 1_555
H5 C2 1_555 1_555
H6 C2 1_555 1_555
C3 N1 1_555 1_555
H7 C3 1_555 1_555
H8 C3 1_555 1_555
H9 C3 1_555 1_555
C4 N1 1_555 1_555
H10 C4 1_555 1_555
H11 C4 1_555 1_555
Ga1A O4 1_555 1_555
Ga1A_2 O3 1_555 1_555
Ga1_2 O6 1_555 1_555
Ga1_3 O2_2 1_555 1_555
Ga1A_3 O3_2 1_555 1_555
P1_2 H1_2 1_555 1_555
O1A Ga1A 1_555 1_555
O2_2 P1_2 1_555 1_555
O2A Ga1A 1_555 1_555
O3_2 P1_2 1_555 1_555
O3A Ga1 1_555 1_555
O3_3 Ga1A 1_555 1_555
O4A Ga1 1_555 1_555
O5A Ga1A 1_555 1_555
H2A O5A 1_555 1_555
O6_2 Ga1 1_555 1_555
O6A Ga1A 1_555 1_555
N1A H3A 1_555 1_555
C1A O1A 1_555 1_555
C2A N1A 1_555 1_555
H4A C2A 1_555 1_555
H5A C2A 1_555 1_555
H6A C2A 1_555 1_555
C3A N1A 1_555 1_555
H7A C3A 1_555 1_555
H8A C3A 1_555 1_555
H9A C3A 1_555 1_555
C4A C4 1_555 1_555
H10A C4A 1_555 1_555
H11A C4A 1_555 1_555
P1 O2 1_555 1_555
P1_2 O6_2 1_555 1_555
O4A C1A 1_555 1_555
N1A C4A 1_555 1_555

#END
