
#######################################################################
#
#                 Cambridge Crystallographic Data Centre
#                                CCDC 
#
#######################################################################
#
# If this CIF has been generated from an entry in the Cambridge 
# Structural Database, then it will include bibliographic, chemical, 
# crystal, experimental, refinement or atomic coordinate data resulting 
# from the CCDC's data processing and validation procedures.
#
#######################################################################

data_LUQCEG
_symmetry_cell_setting           rhombohedral
_symmetry_space_group_name_H-M   'R 3 c'
_symmetry_Int_Tables_number      161
_space_group_name_Hall           'R 3 -2"c'
loop_
_symmetry_equiv_pos_site_id
_symmetry_equiv_pos_as_xyz
1 x,y,z
2 -y,x-y,z
3 -x+y,-x,z
4 -x+y,y,1/2+z
5 x,x-y,1/2+z
6 -y,-x,1/2+z
7 2/3+x,1/3+y,1/3+z
8 2/3-y,1/3+x-y,1/3+z
9 2/3-x+y,1/3-x,1/3+z
10 2/3-x+y,1/3+y,5/6+z
11 2/3+x,1/3+x-y,5/6+z
12 2/3-y,1/3-x,5/6+z
13 1/3+x,2/3+y,2/3+z
14 1/3-y,2/3+x-y,2/3+z
15 1/3-x+y,2/3-x,2/3+z
16 1/3-x+y,2/3+y,1/6+z
17 1/3+x,2/3+x-y,1/6+z
18 1/3-y,2/3-x,1/6+z
_cell_length_a                   22.646(2)
_cell_length_b                   22.646(2)
_cell_length_c                   7.7670(11)
_cell_angle_alpha                90
_cell_angle_beta                 90
_cell_angle_gamma                120
_cell_volume                     3449.59
loop_
_atom_site_label
_atom_site_type_symbol
_atom_site_fract_x
_atom_site_fract_y
_atom_site_fract_z
Sm1 Sm 0.0000 0.0000 -0.00004(13)
O1 O 0.0774(2) 0.1191(1) 0.0455(4)
O2 O 0.08053(12) 0.06021(12) 0.2649(4)
C1 C 0.1000(2) 0.1175(2) 0.1906(5)
C2 C 0.1511(2) 0.1814(2) 0.2755(5)
C3 C 0.1658(2) 0.2417(2) 0.2160(5)
C4 C 0.2128(2) 0.3088(2) 0.2903(5)
C5 C 0.2083(2) 0.3650(2) 0.2381(6)
C6 C 0.2502(3) 0.4291(2) 0.3080(7)
C7 C 0.2974(2) 0.4384(2) 0.4298(6)
C8 C 0.3033(2) 0.3830(2) 0.4830(6)
C9 C 0.2613(2) 0.3186(2) 0.4147(5)
H1 H 0.1740 0.1788 0.3753
H2 H 0.1432 0.2419 0.1130
H3 H 0.1759 0.3596 0.1528
H4 H 0.2461 0.4668 0.2707
H5 H 0.3259 0.4822 0.4779
H6 H 0.3364 0.3893 0.5669
H7 H 0.2655 0.2811 0.4530
Sm1C Sm 0.0000 0.0000 0.49996(13)
O1A O -0.1191(1) -0.0417(2) 0.0455(4)
O1B O 0.0417(2) -0.0774(2) 0.0455(4)
O2A O -0.06021(12) 0.02032(17) 0.2649(4)
O2B O -0.02032(17) -0.08053(12) 0.2649(4)
O2C O -0.02032(17) 0.06021(12) -0.2351(4)
O2D O 0.08053(12) 0.02032(17) -0.2351(4)
O2E O -0.06021(12) -0.08053(12) -0.2351(4)
C1A C -0.1175(2) -0.0175(3) 0.1906(5)
C1B C 0.0175(3) -0.1000(2) 0.1906(5)
C2A C -0.1814(2) -0.0303(3) 0.2755(5)
C2B C 0.0303(3) -0.1511(2) 0.2755(5)
C3A C -0.2417(2) -0.0759(3) 0.2160(5)
C3B C 0.0759(3) -0.1658(2) 0.2160(5)
C4A C -0.3088(2) -0.0960(3) 0.2903(5)
C4B C 0.0960(3) -0.2128(2) 0.2903(5)
C5A C -0.3650(2) -0.1567(3) 0.2381(6)
C5B C 0.1567(3) -0.2083(2) 0.2381(6)
C6A C -0.4291(2) -0.1789(4) 0.3080(7)
C6B C 0.1789(4) -0.2502(3) 0.3080(7)
C7A C -0.4384(2) -0.1410(3) 0.4298(6)
C7B C 0.1410(3) -0.2974(2) 0.4298(6)
C8A C -0.3830(2) -0.0797(3) 0.4830(6)
C8B C 0.0797(3) -0.3033(2) 0.4830(6)
C9A C -0.3186(2) -0.0573(3) 0.4147(5)
C9B C 0.0573(3) -0.2613(2) 0.4147(5)
H1A H -0.1788 -0.0048 0.3753
H1B H 0.0048 -0.1740 0.3753
H2A H -0.2419 -0.0987 0.1130
H2B H 0.0987 -0.1432 0.1130
H3A H -0.3596 -0.1837 0.1528
H3B H 0.1837 -0.1759 0.1528
H4A H -0.4668 -0.2207 0.2707
H4B H 0.2207 -0.2461 0.2707
H5A H -0.4822 -0.1563 0.4779
H5B H 0.1563 -0.3259 0.4779
H6A H -0.3893 -0.0529 0.5669
H6B H 0.0529 -0.3364 0.5669
H7A H -0.2811 -0.0156 0.4530
H7B H 0.0156 -0.2655 0.4530
loop_
_geom_bond_atom_site_label_1
_geom_bond_atom_site_label_2
_geom_bond_site_symmetry_1
_geom_bond_site_symmetry_2
Sm1 O1 1_555 1_555
O1 C1 1_555 1_555
O2 Sm1 1_555 1_555
C1 O2 1_555 1_555
C2 C1 1_555 1_555
C3 C2 1_555 1_555
C4 C3 1_555 1_555
C5 C4 1_555 1_555
C6 C5 1_555 1_555
C7 C6 1_555 1_555
C8 C7 1_555 1_555
C9 C4 1_555 1_555
H1 C2 1_555 1_555
H2 C3 1_555 1_555
H3 C5 1_555 1_555
H4 C6 1_555 1_555
H5 C7 1_555 1_555
H6 C8 1_555 1_555
H7 C9 1_555 1_555
Sm1C O2 1_555 1_555
O1A Sm1 1_555 1_555
O1B Sm1 1_555 1_555
O2A Sm1 1_555 1_555
O2B Sm1 1_555 1_555
O2C Sm1 1_555 1_555
O2D Sm1 1_555 1_555
O2E Sm1 1_555 1_555
C1A O1A 1_555 1_555
C1B O1B 1_555 1_555
C2A C1A 1_555 1_555
C2B C1B 1_555 1_555
C3A C2A 1_555 1_555
C3B C2B 1_555 1_555
C4A C3A 1_555 1_555
C4B C3B 1_555 1_555
C5A C4A 1_555 1_555
C5B C4B 1_555 1_555
C6A C5A 1_555 1_555
C6B C5B 1_555 1_555
C7A C6A 1_555 1_555
C7B C6B 1_555 1_555
C8A C7A 1_555 1_555
C8B C7B 1_555 1_555
C9A C4A 1_555 1_555
C9B C4B 1_555 1_555
H1A C2A 1_555 1_555
H1B C2B 1_555 1_555
H2A C3A 1_555 1_555
H2B C3B 1_555 1_555
H3A C5A 1_555 1_555
H3B C5B 1_555 1_555
H4A C6A 1_555 1_555
H4B C6B 1_555 1_555
H5A C7A 1_555 1_555
H5B C7B 1_555 1_555
H6A C8A 1_555 1_555
H6B C8B 1_555 1_555
H7A C9A 1_555 1_555
H7B C9B 1_555 1_555
C8 C9 1_555 1_555
Sm1C O2A 1_555 1_555
Sm1C O2B 1_555 1_555
O2A C1A 1_555 1_555
O2B C1B 1_555 1_555
C8A C9A 1_555 1_555
C8B C9B 1_555 1_555

#END
