
#######################################################################
#
#                 Cambridge Crystallographic Data Centre
#                                CCDC 
#
#######################################################################
#
# If this CIF has been generated from an entry in the Cambridge 
# Structural Database, then it will include bibliographic, chemical, 
# crystal, experimental, refinement or atomic coordinate data resulting 
# from the CCDC's data processing and validation procedures.
#
#######################################################################

data_LUQDEI
_symmetry_cell_setting           monoclinic
_symmetry_space_group_name_H-M   'P 21/n'
_symmetry_Int_Tables_number      14
_space_group_name_Hall           '-P 2yn'
loop_
_symmetry_equiv_pos_site_id
_symmetry_equiv_pos_as_xyz
1 x,y,z
2 1/2-x,1/2+y,1/2-z
3 -x,-y,-z
4 1/2+x,1/2-y,1/2+z
_cell_length_a                   11.7706(15)
_cell_length_b                   13.4030(17)
_cell_length_c                   8.8830(13)
_cell_angle_alpha                90
_cell_angle_beta                 96.366(18)
_cell_angle_gamma                90
_cell_volume                     1392.75
loop_
_atom_site_label
_atom_site_type_symbol
_atom_site_fract_x
_atom_site_fract_y
_atom_site_fract_z
Cu1 Cu 0.9870(2) -0.05010(19) 1.3235(3)
Cl1 Cl 1.1183(4) -0.0530(3) 1.5323(6)
Cl2 Cl 1.0523(5) -0.2004(3) 1.2363(6)
Br1 Br 0.25239(18) 0.20000(14) 0.6512(2)
O1 O 0.8691(10) -0.0320(7) 1.1531(12)
N1 N 0.7824(12) 0.0610(8) 0.9612(15)
H1 H 0.7756 0.1203 0.9242
N2 N 0.9578(11) 0.1080(9) 1.0883(15)
H2 H 0.9539 0.1677 1.0525
N3 N 0.9475(11) -0.0720(9) 0.8343(15)
C1 C 0.6980(14) -0.0139(15) 0.8997(17)
H3 H 0.6842 -0.0638 0.9762
C2 C 0.8690(15) 0.0448(11) 1.0700(19)
C3 C 0.8515(15) -0.1148(12) 0.8391(19)
C4 C 0.7566(15) -0.0605(9) 0.770(2)
H4 H 0.7042 -0.1045 0.7101
H5 H 0.7815 -0.0089 0.7049
C5 C 0.8448(13) -0.2172(10) 0.9097(18)
H6 H 0.8862 -0.2642 0.8553
H7 H 0.7662 -0.2375 0.9051
H8 H 0.8776 -0.2148 1.0135
C6 C 0.5883(16) 0.0403(11) 0.841(2)
C7 C 0.5180(14) 0.0041(15) 0.7214(16)
H9 H 0.5381 -0.0546 0.6753
C8 C 0.4202(16) 0.0505(11) 0.667(2)
H10 H 0.3739 0.0227 0.5866
C9 C 0.3880(15) 0.1384(14) 0.730(2)
C10 C 0.4554(17) 0.1756(13) 0.853(2)
H11 H 0.4328 0.2323 0.9022
C11 C 0.5571(15) 0.1286(13) 0.903(2)
H12 H 0.6056 0.1575 0.9806
Br1B Br 1.74761(18) -0.20000(14) 1.3488(2)
O1B O 1.1309(10) 0.0320(7) 0.8469(12)
N1B N 1.2176(12) -0.0610(8) 1.0388(15)
H1B H 1.2244 -0.1203 1.0758
N2B N 1.0422(11) -0.1080(9) 0.9117(15)
H2B H 1.0461 -0.1677 0.9475
N3B N 1.0525(11) 0.0720(9) 1.1657(15)
C1B C 1.3020(14) 0.0139(15) 1.1003(17)
H3B H 1.3158 0.0638 1.0238
C2B C 1.1310(15) -0.0448(11) 0.9300(19)
C3B C 1.1485(15) 0.1148(12) 1.1609(19)
C4B C 1.2434(15) 0.0605(9) 1.230(2)
H4B H 1.2958 0.1045 1.2899
H5B H 1.2185 0.0089 1.2951
C5B C 1.1552(13) 0.2172(10) 1.0903(18)
H6B H 1.1138 0.2642 1.1447
H7B H 1.2338 0.2375 1.0949
H8B H 1.1224 0.2148 0.9865
C6B C 1.4117(16) -0.0403(11) 1.159(2)
C7B C 1.4820(14) -0.0041(15) 1.2786(16)
H9B H 1.4619 0.0546 1.3247
C8B C 1.5798(16) -0.0505(11) 1.333(2)
H10B H 1.6261 -0.0227 1.4134
C9B C 1.6120(15) -0.1384(14) 1.270(2)
C10B C 1.5446(17) -0.1756(13) 1.147(2)
H11B H 1.5672 -0.2323 1.0978
C11B C 1.4429(15) -0.1286(13) 1.097(2)
H12B H 1.3944 -0.1575 1.0194
Cu1B Cu 1.0130(2) 0.05010(19) 0.6765(3)
Cl1B Cl 0.8817(4) 0.0530(3) 0.4677(6)
Cl2B Cl 0.9477(5) 0.2004(3) 0.7637(6)
Cu1_2 Cu 0.9870(2) -0.05010(19) 0.3235(3)
Cu1B_2 Cu 1.0130(2) 0.05010(19) 1.6765(3)
Cl1_2 Cl 1.1183(4) -0.0530(3) 0.5323(6)
Cl1B_2 Cl 0.8817(4) 0.0530(3) 1.4677(6)
loop_
_geom_bond_atom_site_label_1
_geom_bond_atom_site_label_2
_geom_bond_site_symmetry_1
_geom_bond_site_symmetry_2
Cu1 Cl1 1_555 1_555
Cl1 Cu1B_2 1_555 1_555
Cl2 Cu1 1_555 1_555
Br1 C9 1_555 1_555
O1 Cu1 1_555 1_555
N1 H1 1_555 1_555
N2 H2 1_555 1_555
N3 C3 1_555 1_555
C1 N1 1_555 1_555
H3 C1 1_555 1_555
C2 O1 1_555 1_555
C3 C4 1_555 1_555
C4 C1 1_555 1_555
H4 C4 1_555 1_555
H5 C4 1_555 1_555
C5 C3 1_555 1_555
H6 C5 1_555 1_555
H7 C5 1_555 1_555
H8 C5 1_555 1_555
C6 C1 1_555 1_555
C7 C6 1_555 1_555
H9 C7 1_555 1_555
C8 C7 1_555 1_555
H10 C8 1_555 1_555
C9 C8 1_555 1_555
C10 C9 1_555 1_555
H11 C10 1_555 1_555
C11 C6 1_555 1_555
H12 C11 1_555 1_555
Br1B C9B 1_555 1_555
O1B C2B 1_555 1_555
N1B H1B 1_555 1_555
N2B N3 1_555 1_555
H2B N2B 1_555 1_555
N3B Cu1 1_555 1_555
C1B N1B 1_555 1_555
H3B C1B 1_555 1_555
C2B N1B 1_555 1_555
C3B N3B 1_555 1_555
C4B C1B 1_555 1_555
H4B C4B 1_555 1_555
H5B C4B 1_555 1_555
C5B C3B 1_555 1_555
H6B C5B 1_555 1_555
H7B C5B 1_555 1_555
H8B C5B 1_555 1_555
C6B C1B 1_555 1_555
C7B C6B 1_555 1_555
H9B C7B 1_555 1_555
C8B C7B 1_555 1_555
H10B C8B 1_555 1_555
C9B C8B 1_555 1_555
C10B C9B 1_555 1_555
H11B C10B 1_555 1_555
C11B C6B 1_555 1_555
H12B C11B 1_555 1_555
Cu1B N3 1_555 1_555
Cl1B Cu1B 1_555 1_555
Cl2B Cu1B 1_555 1_555
Cu1_2 Cl1B 1_555 1_555
Cu1B_2 Cl1B_2 1_555 1_555
Cl1_2 Cu1B 1_555 1_555
Cl1B_2 Cu1 1_555 1_555
N1 C2 1_555 1_555
N2 C2 1_555 1_555
N2 N3B 1_555 1_555
C10 C11 1_555 1_555
O1B Cu1B 1_555 1_555
N2B C2B 1_555 1_555
C3B C4B 1_555 1_555
C10B C11B 1_555 1_555
Cu1_2 Cl1_2 1_555 1_555

#END
