
#######################################################################
#
#                 Cambridge Crystallographic Data Centre
#                                CCDC 
#
#######################################################################
#
# If this CIF has been generated from an entry in the Cambridge 
# Structural Database, then it will include bibliographic, chemical, 
# crystal, experimental, refinement or atomic coordinate data resulting 
# from the CCDC's data processing and validation procedures.
#
#######################################################################

data_LUQFEI
_symmetry_cell_setting           orthorhombic
_symmetry_space_group_name_H-M   'P n a 21'
_symmetry_Int_Tables_number      33
_space_group_name_Hall           'P 2c -2n'
loop_
_symmetry_equiv_pos_site_id
_symmetry_equiv_pos_as_xyz
1 x,y,z
2 -x,-y,1/2+z
3 1/2+x,1/2-y,z
4 1/2-x,1/2+y,1/2+z
_cell_length_a                   12.5277(14)
_cell_length_b                   11.576(2)
_cell_length_c                   11.513(2)
_cell_angle_alpha                90
_cell_angle_beta                 90
_cell_angle_gamma                90
_cell_volume                     1669.62
loop_
_atom_site_label
_atom_site_type_symbol
_atom_site_fract_x
_atom_site_fract_y
_atom_site_fract_z
Mn1 Mn 0.01529(3) 0.10886(3) 0.00226(5)
S1 S 0.07340(6) 0.17885(6) 0.22382(7)
O1 O 0.13083(13) 0.0053(2) -0.0020(3)
O2 O 0.10757(14) 0.2119(2) -0.0774(2)
N1 N -0.0759(2) -0.0103(2) 0.0874(2)
N2 N -0.09670(15) 0.2363(2) 0.0078(2)
N3 N 0.0584(2) -0.0334(2) 0.3390(2)
C1 C 0.1268(2) -0.1086(2) -0.0059(3)
C2 C 0.2145(3) -0.1698(3) -0.0498(3)
H1 H 0.2746(3) -0.1299(3) -0.0750(3)
C3 C 0.2123(3) -0.2888(3) -0.0557(3)
H2 H 0.2704(3) -0.3281(3) -0.0868(3)
C4 C 0.1248(3) -0.3508(3) -0.0159(4)
H3 H 0.1243(3) -0.4311(3) -0.0200(4)
C5 C 0.0399(3) -0.2930(3) 0.0291(3)
H4 H -0.0187(3) -0.3342(3) 0.0563(3)
C6 C 0.0394(2) -0.1721(2) 0.0349(3)
C7 C -0.0526(2) -0.1177(2) 0.0874(3)
H5 H -0.1002(2) -0.1664(2) 0.1254(3)
C8 C -0.1712(2) 0.0222(3) 0.1556(3)
H6 H -0.1486(2) 0.0514(3) 0.2307(3)
H7 H -0.2144(2) -0.0461(3) 0.1689(3)
C9 C -0.2382(2) 0.1128(2) 0.0955(3)
H8 H -0.3062(2) 0.1191(2) 0.1351(3)
H9 H -0.2522(2) 0.0879(2) 0.0164(3)
C10 C -0.1854(2) 0.2309(2) 0.0925(3)
H10 H -0.2384(2) 0.2887(2) 0.0725(3)
H11 H -0.1582(2) 0.2491(2) 0.1693(3)
C11 C -0.0972(2) 0.3249(2) -0.0594(3)
H12 H -0.1576(2) 0.3715(2) -0.0568(3)
C12 C -0.0141(2) 0.3597(3) -0.1384(3)
C13 C -0.0302(3) 0.4603(3) -0.2061(4)
H13 H -0.0963(3) 0.4967(3) -0.2046(4)
C14 C 0.0497(3) 0.5050(3) -0.2739(3)
H14 H 0.0380(3) 0.5708(3) -0.3185(3)
C15 C 0.1487(3) 0.4503(3) -0.2747(3)
H15 H 0.2036(3) 0.4806(3) -0.3198(3)
C16 C 0.1670(2) 0.3520(3) -0.2102(3)
H16 H 0.2338(2) 0.3170(3) -0.2128(3)
C17 C 0.0864(2) 0.3039(2) -0.1405(3)
C18 C 0.0654(2) 0.0538(3) 0.2905(3)
N3A N -0.0584(2) 0.0334(2) -0.1610(2)
Mn1A Mn -0.01529(3) -0.10886(3) 0.50226(5)
loop_
_geom_bond_atom_site_label_1
_geom_bond_atom_site_label_2
_geom_bond_site_symmetry_1
_geom_bond_site_symmetry_2
Mn1 S1 1_555 1_555
S1 C18 1_555 1_555
O1 Mn1 1_555 1_555
O2 Mn1 1_555 1_555
N1 Mn1 1_555 1_555
N2 Mn1 1_555 1_555
N3 C18 1_555 1_555
C1 O1 1_555 1_555
C2 C1 1_555 1_555
H1 C2 1_555 1_555
C3 C2 1_555 1_555
H2 C3 1_555 1_555
C4 C3 1_555 1_555
H3 C4 1_555 1_555
C5 C4 1_555 1_555
H4 C5 1_555 1_555
C6 C1 1_555 1_555
C7 N1 1_555 1_555
H5 C7 1_555 1_555
C8 N1 1_555 1_555
H6 C8 1_555 1_555
H7 C8 1_555 1_555
C9 C8 1_555 1_555
H8 C9 1_555 1_555
H9 C9 1_555 1_555
C10 N2 1_555 1_555
H10 C10 1_555 1_555
H11 C10 1_555 1_555
C11 N2 1_555 1_555
H12 C11 1_555 1_555
C12 C11 1_555 1_555
C13 C12 1_555 1_555
H13 C13 1_555 1_555
C14 C13 1_555 1_555
H14 C14 1_555 1_555
C15 C14 1_555 1_555
H15 C15 1_555 1_555
C16 C15 1_555 1_555
H16 C16 1_555 1_555
C17 O2 1_555 1_555
N3A Mn1 1_555 1_555
Mn1A N3 1_555 1_555
C5 C6 1_555 1_555
C6 C7 1_555 1_555
C9 C10 1_555 1_555
C12 C17 1_555 1_555
C16 C17 1_555 1_555

#END
