
#######################################################################
#
#                 Cambridge Crystallographic Data Centre
#                                CCDC 
#
#######################################################################
#
# If this CIF has been generated from an entry in the Cambridge 
# Structural Database, then it will include bibliographic, chemical, 
# crystal, experimental, refinement or atomic coordinate data resulting 
# from the CCDC's data processing and validation procedures.
#
#######################################################################

data_LUQHAG
_symmetry_cell_setting           tetragonal
_symmetry_space_group_name_H-M   'P -4'
_symmetry_Int_Tables_number      81
_space_group_name_Hall           'P -4'
loop_
_symmetry_equiv_pos_site_id
_symmetry_equiv_pos_as_xyz
1 x,y,z
2 -x,-y,z
3 y,-x,-z
4 -y,x,-z
_cell_length_a                   23.2664(7)
_cell_length_b                   23.2664(7)
_cell_length_c                   11.9890(3)
_cell_angle_alpha                90
_cell_angle_beta                 90
_cell_angle_gamma                90
_cell_volume                     6489.95
loop_
_atom_site_label
_atom_site_type_symbol
_atom_site_fract_x
_atom_site_fract_y
_atom_site_fract_z
Zn1 Zn 0.68254(2) 1.30099(3) 0.98738(5)
Zn2 Zn 0.83398(3) 0.79202(2) 0.48889(5)
O1 O 0.74490(17) 1.35752(18) 1.0090(4)
O2 O 0.67140(16) 1.41540(16) 0.9918(3)
O3 O 0.89674(16) 0.73715(16) 0.5082(4)
O4 O 0.94291(16) 0.81974(16) 0.4915(3)
N1 N 0.72935(18) 1.13100(19) 1.0405(3)
N2 N 0.72129(16) 1.22451(17) 1.0083(4)
N3 N 0.82820(17) 0.92941(18) 0.7103(3)
N4 N 0.8220(2) 0.8511(2) 0.6111(3)
N5 N 0.85164(18) 0.89443(17) 1.2117(3)
N6 N 0.83199(19) 0.8305(2) 1.3393(3)
N7 N 0.33262(18) 1.25098(18) 1.5439(3)
N8 N 0.24086(16) 1.25103(17) 1.5074(4)
N9 N 0.54572(17) 1.31654(19) 1.2081(3)
N10 N 0.62260(18) 1.29779(19) 1.1082(3)
N11 N 0.58700(17) 1.33816(17) 1.7095(3)
N12 N 0.64425(18) 1.3047(2) 1.8370(3)
C1 C 0.76633(19) 1.0327(2) 1.0119(5)
C2 C 0.7836(2) 1.0281(2) 0.9001(4)
C3 C 0.8308(2) 0.9944(2) 0.8728(4)
C4 C 0.8613(2) 0.9648(2) 0.9574(4)
C5 C 0.8451(2) 0.9721(2) 1.0681(4)
C6 C 0.7980(3) 1.0054(2) 1.0974(4)
C7 C 0.4362(2) 1.2762(2) 1.5163(4)
C8 C 0.7150(3) 1.0687(2) 1.0431(4)
H4 H 0.6832 1.0609 0.9904
H5 H 0.7019 1.0580 1.1189
C9 C 0.6998(2) 1.1730(2) 0.9887(4)
H6 H 0.6672 1.1662 0.9430
C10 C 0.7670(2) 1.2146(3) 1.0786(4)
H7 H 0.7911 1.2437 1.1088
C11 C 0.7728(2) 1.1575(3) 1.0987(4)
H8 H 0.8011 1.1395 1.1438
C12 C 0.4441(2) 1.2899(2) 1.4011(4)
C13 C 0.7479(3) 1.0569(3) 0.8107(4)
H9 H 0.7078 1.0595 0.8357
H10 H 0.7498 1.0342 0.7419
H11 H 0.7628 1.0956 0.7966
C14 C 0.4845(2) 1.3317(2) 1.3720(4)
C15 C 0.8499(2) 0.9863(2) 0.7532(4)
H12 H 0.8345 1.0178 0.7064
H13 H 0.8923 0.9873 0.7489
C16 C 0.8531(2) 0.8977(2) 0.6325(4)
H14 H 0.8906 0.9054 0.5973
C17 C 0.7743(2) 0.8551(2) 0.6750(4)
H15 H 0.7433 0.8286 0.6751
C18 C 0.7778(2) 0.9031(3) 0.7389(4)
H16 H 0.7506 0.9159 0.7927
C19 C 0.5193(2) 1.3577(2) 1.4534(4)
C20 C 0.9112(2) 0.9258(2) 0.9267(4)
H17 H 0.9122 0.8930 0.9779
H18 H 0.9473 0.9473 0.9325
H19 H 0.9063 0.9120 0.8501
C21 C 0.5102(2) 1.3441(2) 1.5674(4)
C22 C 0.8818(2) 0.9437(2) 1.1612(4)
H20 H 0.9188 0.9305 1.1293
H21 H 0.8904 0.9725 1.2197
C23 C 0.8612(2) 0.8764(2) 1.3150(4)
H22 H 0.8866 0.8950 1.3655
C24 C 0.7993(3) 0.8188(2) 1.2454(4)
H23 H 0.7720 0.7886 1.2387
C25 C 0.8123(3) 0.8572(3) 1.1653(5)
H24 H 0.7974 0.8584 1.0916
C26 C 0.4692(2) 1.3039(2) 1.5978(4)
C27 C 0.7823(3) 1.0131(3) 1.2187(4)
H25 H 0.8145 1.0007 1.2656
H26 H 0.7483 0.9899 1.2360
H27 H 0.7740 1.0537 1.2332
C28 C 0.7234(2) 1.4075(3) 1.0034(5)
C29 C 0.7634(3) 1.4577(3) 1.0090(6)
H28 H 0.7910 1.4518 1.0697
H29 H 0.7414 1.4929 1.0228
H30 H 0.7841 1.4612 0.9382
C30 C 0.9463(3) 0.7681(3) 0.5035(5)
C31 C 1.0009(3) 0.7362(3) 0.5102(6)
H31 H 0.9980 0.7066 0.5682
H32 H 1.0322 0.7627 0.5287
H33 H 1.0089 0.7179 0.4382
C32 C 0.3939(2) 1.2302(2) 1.5472(5)
H34 H 0.4027 1.2162 1.6233
H35 H 0.3982 1.1975 1.4952
C33 C 0.2901(2) 1.2250(2) 1.4875(4)
H36 H 0.2948 1.1926 1.4402
C34 C 0.2529(3) 1.2954(2) 1.5779(5)
H37 H 0.2257 1.3225 1.6046
C35 C 0.3096(2) 1.2951(3) 1.6041(4)
H38 H 0.3291 1.3202 1.6539
C36 C 0.4096(3) 1.2603(3) 1.3133(5)
H39 H 0.4172 1.2781 1.2408
H40 H 0.3686 1.2636 1.3311
H41 H 0.4204 1.2196 1.3105
C37 C 0.4952(2) 1.3476(2) 1.2501(4)
H42 H 0.4611 1.3375 1.2048
H43 H 0.5016 1.3896 1.2437
C38 C 0.5821(2) 1.3358(2) 1.1302(4)
H44 H 0.5791 1.3723 1.0951
C39 C 0.6118(2) 1.2509(3) 1.1752(4)
H45 H 0.6337 1.2165 1.1771
C40 C 0.5638(2) 1.2623(2) 1.2392(4)
H46 H 0.5468 1.2379 1.2935
C41 C 0.5652(2) 1.4016(2) 1.4203(4)
H47 H 0.5991 1.3967 1.4678
H48 H 0.5499 1.4405 1.4297
H49 H 0.5760 1.3957 1.3421
C42 C 0.5443(2) 1.3758(2) 1.6528(4)
H50 H 0.5647 1.4081 1.6164
H51 H 0.5178 1.3922 1.7092
C43 C 0.6047(2) 1.3434(2) 1.8132(4)
H52 H 0.5907 1.3714 1.8642
C44 C 0.6502(2) 1.2714(3) 1.7458(4)
H53 H 0.6748 1.2390 1.7399
C45 C 0.6155(3) 1.2914(2) 1.6641(4)
H54 H 0.6116 1.2765 1.5907
C46 C 0.4602(2) 1.2925(3) 1.7207(4)
H55 H 0.4694 1.3273 1.7633
H56 H 0.4853 1.2610 1.7446
H57 H 0.4200 1.2819 1.7338
N7_2 N 0.33262(18) 1.25098(18) 0.5439(3)
N8_2 N 0.24086(16) 1.25103(17) 0.5074(4)
N9_2 N 0.54572(17) 1.31654(19) 0.2081(3)
N10_2 N 0.62260(18) 1.29779(19) 0.1082(3)
N11_2 N 0.58700(17) 1.33816(17) 0.7095(3)
N12_2 N 0.64425(18) 1.3047(2) 0.8370(3)
C7_2 C 0.4362(2) 1.2762(2) 0.5163(4)
C12_2 C 0.4441(2) 1.2899(2) 0.4011(4)
C14_2 C 0.4845(2) 1.3317(2) 0.3720(4)
C19_2 C 0.5193(2) 1.3577(2) 0.4534(4)
C21_2 C 0.5102(2) 1.3441(2) 0.5674(4)
C26_2 C 0.4692(2) 1.3039(2) 0.5978(4)
C32_2 C 0.3939(2) 1.2302(2) 0.5472(5)
H34_2 H 0.4027 1.2162 0.6233
H35_2 H 0.3982 1.1975 0.4952
C33_2 C 0.2901(2) 1.2250(2) 0.4875(4)
H36_2 H 0.2948 1.1926 0.4402
C34_2 C 0.2529(3) 1.2954(2) 0.5779(5)
H37_2 H 0.2257 1.3225 0.6046
C35_2 C 0.3096(2) 1.2951(3) 0.6041(4)
H38_2 H 0.3291 1.3202 0.6539
C36_2 C 0.4096(3) 1.2603(3) 0.3133(5)
H39_2 H 0.4172 1.2781 0.2408
H40_2 H 0.3686 1.2636 0.3311
H41_2 H 0.4204 1.2196 0.3105
C37_2 C 0.4952(2) 1.3476(2) 0.2501(4)
H42_2 H 0.4611 1.3375 0.2048
H43_2 H 0.5016 1.3896 0.2437
C38_2 C 0.5821(2) 1.3358(2) 0.1302(4)
H44_2 H 0.5791 1.3723 0.0951
C39_2 C 0.6118(2) 1.2509(3) 0.1752(4)
H45_2 H 0.6337 1.2165 0.1771
C40_2 C 0.5638(2) 1.2623(2) 0.2392(4)
H46_2 H 0.5468 1.2379 0.2935
C41_2 C 0.5652(2) 1.4016(2) 0.4203(4)
H47_2 H 0.5991 1.3967 0.4678
H48_2 H 0.5499 1.4405 0.4297
H49_2 H 0.5760 1.3957 0.3421
C42_2 C 0.5443(2) 1.3758(2) 0.6528(4)
H50_2 H 0.5647 1.4081 0.6164
H51_2 H 0.5178 1.3922 0.7092
C43_2 C 0.6047(2) 1.3434(2) 0.8132(4)
H52_2 H 0.5907 1.3714 0.8642
C44_2 C 0.6502(2) 1.2714(3) 0.7458(4)
H53_2 H 0.6748 1.2390 0.7399
C45_2 C 0.6155(3) 1.2914(2) 0.6641(4)
H54_2 H 0.6116 1.2765 0.5907
C46_2 C 0.4602(2) 1.2925(3) 0.7207(4)
H55_2 H 0.4694 1.3273 0.7633
H56_2 H 0.4853 1.2610 0.7446
H57_2 H 0.4200 1.2819 0.7338
Zn1_2 Zn 0.68254(2) 1.30099(3) -0.01262(5)
Zn2_2 Zn 0.83398(3) 0.79202(2) 1.48889(5)
N1_2 N 0.72935(18) 1.13100(19) 0.0405(3)
N2_2 N 0.72129(16) 1.22451(17) 0.0083(4)
N3_2 N 0.82820(17) 0.92941(18) -0.2897(3)
N4_2 N 0.8220(2) 0.8511(2) -0.3889(3)
N5_2 N 0.85164(18) 0.89443(17) 0.2117(3)
N6_2 N 0.83199(19) 0.8305(2) 0.3393(3)
C1_2 C 0.76633(19) 1.0327(2) 0.0119(5)
C2_2 C 0.7836(2) 1.0281(2) -0.0999(4)
C3_2 C 0.8308(2) 0.9944(2) -0.1272(4)
C4_2 C 0.8613(2) 0.9648(2) -0.0426(4)
C5_2 C 0.8451(2) 0.9721(2) 0.0681(4)
C6_2 C 0.7980(3) 1.0054(2) 0.0974(4)
C8_2 C 0.7150(3) 1.0687(2) 0.0431(4)
H4_2 H 0.6832 1.0609 -0.0096
H5_2 H 0.7019 1.0580 0.1189
C9_2 C 0.6998(2) 1.1730(2) -0.0113(4)
H6_2 H 0.6672 1.1662 -0.0570
C10_2 C 0.7670(2) 1.2146(3) 0.0786(4)
H7_2 H 0.7911 1.2437 0.1088
C11_2 C 0.7728(2) 1.1575(3) 0.0987(4)
H8_2 H 0.8011 1.1395 0.1438
C13_2 C 0.7479(3) 1.0569(3) -0.1893(4)
H9_2 H 0.7078 1.0595 -0.1643
H10_2 H 0.7498 1.0342 -0.2581
H11_2 H 0.7628 1.0956 -0.2034
C15_2 C 0.8499(2) 0.9863(2) -0.2468(4)
H12_2 H 0.8345 1.0178 -0.2936
H13_2 H 0.8923 0.9873 -0.2511
C16_2 C 0.8531(2) 0.8977(2) -0.3675(4)
H14_2 H 0.8906 0.9054 -0.4027
C17_2 C 0.7743(2) 0.8551(2) -0.3250(4)
H15_2 H 0.7433 0.8286 -0.3249
C18_2 C 0.7778(2) 0.9031(3) -0.2611(4)
H16_2 H 0.7506 0.9159 -0.2073
C20_2 C 0.9112(2) 0.9258(2) -0.0733(4)
H17_2 H 0.9122 0.8930 -0.0221
H18_2 H 0.9473 0.9473 -0.0675
H19_2 H 0.9063 0.9120 -0.1499
C22_2 C 0.8818(2) 0.9437(2) 0.1612(4)
H20_2 H 0.9188 0.9305 0.1293
H21_2 H 0.8904 0.9725 0.2197
C23_2 C 0.8612(2) 0.8764(2) 0.3150(4)
H22_2 H 0.8866 0.8950 0.3655
C24_2 C 0.7993(3) 0.8188(2) 0.2454(4)
H23_2 H 0.7720 0.7886 0.2387
C25_2 C 0.8123(3) 0.8572(3) 0.1653(5)
H24_2 H 0.7974 0.8584 0.0916
C27_2 C 0.7823(3) 1.0131(3) 0.2187(4)
H25_2 H 0.8145 1.0007 0.2656
H26_2 H 0.7483 0.9899 0.2360
H27_2 H 0.7740 1.0537 0.2332
O1_2 O 0.74490(17) 1.35752(18) 0.0090(4)
O2_2 O 0.67140(16) 1.41540(16) -0.0082(3)
C28_2 C 0.7234(2) 1.4075(3) 0.0034(5)
C29_2 C 0.7634(3) 1.4577(3) 0.0090(6)
H28_2 H 0.7910 1.4518 0.0697
H29_2 H 0.7414 1.4929 0.0228
H30_2 H 0.7841 1.4612 -0.0618
O3_2 O 0.89674(16) 0.73715(16) 1.5082(4)
O4_2 O 0.94291(16) 0.81974(16) 1.4915(3)
C30_2 C 0.9463(3) 0.7681(3) 1.5035(5)
C31_2 C 1.0009(3) 0.7362(3) 1.5102(6)
H31_2 H 0.9980 0.7066 1.5682
H32_2 H 1.0322 0.7627 1.5287
H33_2 H 1.0089 0.7179 1.4382
N8A N 0.75914(16) 0.74897(17) 0.5074(4)
Zn2A Zn 0.16602(3) 1.20798(2) 1.48889(5)
Zn1_3 Zn 0.68254(2) 1.30099(3) 1.98738(5)
Zn2A_2 Zn 0.16602(3) 1.20798(2) 0.48889(5)
N12_3 N 0.64425(18) 1.3047(2) -0.1630(3)
N4_3 N 0.8220(2) 0.8511(2) 1.6111(3)
N8A_2 N 0.75914(16) 0.74897(17) 1.5074(4)
Zn2_3 Zn 0.83398(3) 0.79202(2) -0.51111(5)
O5 O 0.5000 0.5000 0.1903(6)
H1 H 0.4693 0.4994 0.1364
H2 H 0.5304 0.5008 0.1368
O6 O 1.0000 0.0000 0.3017(8)
H3 H 1.0283 0.0048 0.3632
H3A H 0.9717 -0.0048 0.3632
O7 O 0.4998(2) 0.4034(3) 0.9439(4)
O8 O 0.0917(3) 0.0112(2) 0.4365(5)
O9 O 0.3814(12) 0.0332(12) 1.030(2)
O10 O 0.3220(4) 0.1363(4) 1.0459(15)
O11 O 0.3749(8) 0.0786(6) 0.8261(18)
O12 O 0.3475(4) 0.1746(5) 0.8061(8)
O13 O 0.3391(6) 0.1138(3) 0.3532(11)
O14 O 0.6560(5) -0.0614(6) 1.1637(13)
O15 O 0.4901(5) 0.1514(4) 0.7374(9)
O16 O 0.5865(8) -0.0478(12) 0.530(3)
O17 O 0.4943(5) 0.1441(4) 0.3519(11)
O18 O 0.5855(7) 0.0389(7) 0.2500(15)
O19 O 0.5219(8) 0.0993(6) 0.0848(19)
O20 O 0.5797(7) 0.0183(6) -0.104(3)
O21 O 0.5538(4) 0.1784(3) 0.5178(16)
O22 O 0.6518(6) 0.1340(6) 0.6279(9)
O23 O 0.6000(4) 0.1231(4) 0.8212(8)
O24 O 0.6607(3) 0.1217(2) 0.2968(5)
loop_
_geom_bond_atom_site_label_1
_geom_bond_atom_site_label_2
_geom_bond_site_symmetry_1
_geom_bond_site_symmetry_2
Zn1 O1 1_555 1_555
Zn2 O3 1_555 1_555
O1 C28 1_555 1_555
O2 C28 1_555 1_555
O3 C30 1_555 1_555
O4 C30 1_555 1_555
O5 H1 1_555 1_555
H2 O5 1_555 1_555
O6 H3 1_555 1_555
N1 C8 1_555 1_555
N2 Zn1 1_555 1_555
N3 C15 1_555 1_555
N4 Zn2 1_555 1_555
N5 C22 1_555 1_555
N6 C23 1_555 1_555
N7 C32 1_555 1_555
N8 C33 1_555 1_555
N9 C37 1_555 1_555
N10 Zn1 1_555 1_555
N11 C42 1_555 1_555
N12 C43 1_555 1_555
C1 C2 1_555 1_555
C2 C3 1_555 1_555
C3 C4 1_555 1_555
C4 C5 1_555 1_555
C5 C6 1_555 1_555
C6 C1 1_555 1_555
C7 C12 1_555 1_555
C8 C1 1_555 1_555
H4 C8 1_555 1_555
H5 C8 1_555 1_555
C9 N1 1_555 1_555
H6 C9 1_555 1_555
C10 N2 1_555 1_555
H7 C10 1_555 1_555
C11 N1 1_555 1_555
H8 C11 1_555 1_555
C12 C14 1_555 1_555
C13 C2 1_555 1_555
H9 C13 1_555 1_555
H10 C13 1_555 1_555
H11 C13 1_555 1_555
C14 C19 1_555 1_555
C15 C3 1_555 1_555
H12 C15 1_555 1_555
H13 C15 1_555 1_555
C16 N3 1_555 1_555
H14 C16 1_555 1_555
C17 N4 1_555 1_555
H15 C17 1_555 1_555
C18 N3 1_555 1_555
H16 C18 1_555 1_555
C19 C21 1_555 1_555
C20 C4 1_555 1_555
H17 C20 1_555 1_555
H18 C20 1_555 1_555
H19 C20 1_555 1_555
C21 C26 1_555 1_555
C22 C5 1_555 1_555
H20 C22 1_555 1_555
H21 C22 1_555 1_555
C23 N5 1_555 1_555
H22 C23 1_555 1_555
C24 N6 1_555 1_555
H23 C24 1_555 1_555
C25 N5 1_555 1_555
H24 C25 1_555 1_555
C26 C7 1_555 1_555
C27 C6 1_555 1_555
H25 C27 1_555 1_555
H26 C27 1_555 1_555
H27 C27 1_555 1_555
C28 C29 1_555 1_555
C29 H28 1_555 1_555
H29 C29 1_555 1_555
H30 C29 1_555 1_555
C30 C31 1_555 1_555
C31 H31 1_555 1_555
H32 C31 1_555 1_555
H33 C31 1_555 1_555
C32 C7 1_555 1_555
H34 C32 1_555 1_555
H35 C32 1_555 1_555
C33 N7 1_555 1_555
H36 C33 1_555 1_555
C34 N8 1_555 1_555
H37 C34 1_555 1_555
C35 N7 1_555 1_555
H38 C35 1_555 1_555
C36 C12 1_555 1_555
H39 C36 1_555 1_555
H40 C36 1_555 1_555
H41 C36 1_555 1_555
C37 C14 1_555 1_555
H42 C37 1_555 1_555
H43 C37 1_555 1_555
C38 N9 1_555 1_555
H44 C38 1_555 1_555
C39 N10 1_555 1_555
H45 C39 1_555 1_555
C40 N9 1_555 1_555
H46 C40 1_555 1_555
C41 C19 1_555 1_555
H47 C41 1_555 1_555
H48 C41 1_555 1_555
H49 C41 1_555 1_555
C42 C21 1_555 1_555
H50 C42 1_555 1_555
H51 C42 1_555 1_555
C43 N11 1_555 1_555
H52 C43 1_555 1_555
C44 N12 1_555 1_555
H53 C44 1_555 1_555
C45 N11 1_555 1_555
H54 C45 1_555 1_555
C46 C26 1_555 1_555
H55 C46 1_555 1_555
H56 C46 1_555 1_555
H57 C46 1_555 1_555
H3A O6 1_555 1_555
N7_2 C32_2 1_555 1_555
N8_2 C33_2 1_555 1_555
N9_2 C37_2 1_555 1_555
N10_2 C38_2 1_555 1_555
N11_2 C42_2 1_555 1_555
N12_2 Zn1 1_555 1_555
C7_2 C12_2 1_555 1_555
C12_2 C14_2 1_555 1_555
C14_2 C19_2 1_555 1_555
C19_2 C21_2 1_555 1_555
C21_2 C26_2 1_555 1_555
C26_2 C7_2 1_555 1_555
C32_2 C7_2 1_555 1_555
H34_2 C32_2 1_555 1_555
H35_2 C32_2 1_555 1_555
C33_2 N7_2 1_555 1_555
H36_2 C33_2 1_555 1_555
C34_2 N8_2 1_555 1_555
H37_2 C34_2 1_555 1_555
C35_2 N7_2 1_555 1_555
H38_2 C35_2 1_555 1_555
C36_2 C12_2 1_555 1_555
H39_2 C36_2 1_555 1_555
H40_2 C36_2 1_555 1_555
H41_2 C36_2 1_555 1_555
C37_2 C14_2 1_555 1_555
H42_2 C37_2 1_555 1_555
H43_2 C37_2 1_555 1_555
C38_2 N9_2 1_555 1_555
H44_2 C38_2 1_555 1_555
C39_2 N10_2 1_555 1_555
H45_2 C39_2 1_555 1_555
C40_2 N9_2 1_555 1_555
H46_2 C40_2 1_555 1_555
C41_2 C19_2 1_555 1_555
H47_2 C41_2 1_555 1_555
H48_2 C41_2 1_555 1_555
H49_2 C41_2 1_555 1_555
C42_2 C21_2 1_555 1_555
H50_2 C42_2 1_555 1_555
H51_2 C42_2 1_555 1_555
C43_2 N11_2 1_555 1_555
H52_2 C43_2 1_555 1_555
C44_2 N12_2 1_555 1_555
H53_2 C44_2 1_555 1_555
C45_2 N11_2 1_555 1_555
H54_2 C45_2 1_555 1_555
C46_2 C26_2 1_555 1_555
H55_2 C46_2 1_555 1_555
H56_2 C46_2 1_555 1_555
H57_2 C46_2 1_555 1_555
Zn1_2 N10_2 1_555 1_555
Zn2_2 N6 1_555 1_555
N1_2 C8_2 1_555 1_555
N2_2 Zn1_2 1_555 1_555
N3_2 C15_2 1_555 1_555
N4_2 C16_2 1_555 1_555
N5_2 C22_2 1_555 1_555
N6_2 Zn2 1_555 1_555
C1_2 C2_2 1_555 1_555
C2_2 C3_2 1_555 1_555
C3_2 C4_2 1_555 1_555
C4_2 C5_2 1_555 1_555
C5_2 C6_2 1_555 1_555
C6_2 C1_2 1_555 1_555
C8_2 C1_2 1_555 1_555
H4_2 C8_2 1_555 1_555
H5_2 C8_2 1_555 1_555
C9_2 N1_2 1_555 1_555
H6_2 C9_2 1_555 1_555
C10_2 N2_2 1_555 1_555
H7_2 C10_2 1_555 1_555
C11_2 N1_2 1_555 1_555
H8_2 C11_2 1_555 1_555
C13_2 C2_2 1_555 1_555
H9_2 C13_2 1_555 1_555
H10_2 C13_2 1_555 1_555
H11_2 C13_2 1_555 1_555
C15_2 C3_2 1_555 1_555
H12_2 C15_2 1_555 1_555
H13_2 C15_2 1_555 1_555
C16_2 N3_2 1_555 1_555
H14_2 C16_2 1_555 1_555
C17_2 N4_2 1_555 1_555
H15_2 C17_2 1_555 1_555
C18_2 N3_2 1_555 1_555
H16_2 C18_2 1_555 1_555
C20_2 C4_2 1_555 1_555
H17_2 C20_2 1_555 1_555
H18_2 C20_2 1_555 1_555
H19_2 C20_2 1_555 1_555
C22_2 C5_2 1_555 1_555
H20_2 C22_2 1_555 1_555
H21_2 C22_2 1_555 1_555
C23_2 N5_2 1_555 1_555
H22_2 C23_2 1_555 1_555
C24_2 N6_2 1_555 1_555
H23_2 C24_2 1_555 1_555
C25_2 N5_2 1_555 1_555
H24_2 C25_2 1_555 1_555
C27_2 C6_2 1_555 1_555
H25_2 C27_2 1_555 1_555
H26_2 C27_2 1_555 1_555
H27_2 C27_2 1_555 1_555
O1_2 Zn1_2 1_555 1_555
O2_2 C28_2 1_555 1_555
C28_2 O1_2 1_555 1_555
C29_2 C28_2 1_555 1_555
H28_2 C29_2 1_555 1_555
H29_2 C29_2 1_555 1_555
H30_2 C29_2 1_555 1_555
O3_2 Zn2_2 1_555 1_555
O4_2 C30_2 1_555 1_555
C30_2 O3_2 1_555 1_555
C31_2 C30_2 1_555 1_555
H31_2 C31_2 1_555 1_555
H32_2 C31_2 1_555 1_555
H33_2 C31_2 1_555 1_555
N8A Zn2 1_555 1_555
Zn2A N8 1_555 1_555
Zn1_3 N12 1_555 1_555
Zn2A_2 N8_2 1_555 1_555
N12_3 Zn1_2 1_555 1_555
N4_3 Zn2_2 1_555 1_555
N8A_2 Zn2_2 1_555 1_555
Zn2_3 N4_2 1_555 1_555
N2 C9 1_555 1_555
N4 C16 1_555 1_555
N10 C38 1_555 1_555
C10 C11 1_555 1_555
C17 C18 1_555 1_555
C24 C25 1_555 1_555
C34 C35 1_555 1_555
C39 C40 1_555 1_555
C44 C45 1_555 1_555
N12_2 C43_2 1_555 1_555
C34_2 C35_2 1_555 1_555
C39_2 C40_2 1_555 1_555
C44_2 C45_2 1_555 1_555
N2_2 C9_2 1_555 1_555
N6_2 C23_2 1_555 1_555
C10_2 C11_2 1_555 1_555
C17_2 C18_2 1_555 1_555
C24_2 C25_2 1_555 1_555

#END
