
#######################################################################
#
#                 Cambridge Crystallographic Data Centre
#                                CCDC 
#
#######################################################################
#
# If this CIF has been generated from an entry in the Cambridge 
# Structural Database, then it will include bibliographic, chemical, 
# crystal, experimental, refinement or atomic coordinate data resulting 
# from the CCDC's data processing and validation procedures.
#
#######################################################################

data_LUQHEK
_symmetry_cell_setting           monoclinic
_symmetry_space_group_name_H-M   'C 2'
_symmetry_Int_Tables_number      5
_space_group_name_Hall           'C 2y'
loop_
_symmetry_equiv_pos_site_id
_symmetry_equiv_pos_as_xyz
1 x,y,z
2 -x,y,-z
3 1/2+x,1/2+y,z
4 1/2-x,1/2+y,-z
_cell_length_a                   20.7193(10)
_cell_length_b                   11.5677(8)
_cell_length_c                   12.2944(6)
_cell_angle_alpha                90
_cell_angle_beta                 125.5770(10)
_cell_angle_gamma                90
_cell_volume                     2396.62
loop_
_atom_site_label
_atom_site_type_symbol
_atom_site_fract_x
_atom_site_fract_y
_atom_site_fract_z
Ag1 Ag 0.292830(16) 0.36358(4) 0.04236(3)
N1 N 0.3819(4) 0.2137(5) 0.1314(7)
N2 N 0.4100(7) 0.1846(14) 0.291(3)
N4 N 0.4229(6) 0.1657(10) 0.3763(6)
N6 N 0.2761(3) 0.6245(4) 0.2934(4)
N7 N 0.3076(3) 0.4879(4) 0.2057(5)
N8 N 0.3015(3) 0.6382(4) 0.8032(5)
N9 N 0.3149(3) 0.4795(4) 0.9120(4)
N10 N 0.5325(2) 0.8793(4) 0.7660(4)
N11 N 0.6584(2) 0.8298(4) 0.9154(4)
C1 C 0.2794(3) 0.7737(4) 0.4406(5)
C2 C 0.2552(3) 0.7436(4) 0.5209(5)
C3 C 0.2943(3) 0.7859(4) 0.6497(5)
C4 C 0.3600(2) 0.8566(6) 0.7010(4)
C5 C 0.3874(2) 0.8841(3) 0.6225(5)
C6 C 0.3472(3) 0.8438(4) 0.4921(5)
C7 C 0.2356(4) 0.7265(5) 0.2998(5)
H1 H 0.1810 0.7048 0.2680
H2 H 0.2318 0.7874 0.2398
C8 C 0.2625(3) 0.5773(4) 0.1826(5)
H3 H 0.2238 0.6059 0.0953
C9 C 0.3548(4) 0.4778(5) 0.3417(6)
H4 H 0.3952 0.4214 0.3907
C10 C 0.3357(5) 0.5591(6) 0.3955(6)
H5 H 0.3592 0.5696 0.4881
C11 C 0.1851(4) 0.6615(7) 0.4699(7)
H6 H 0.1386 0.7059 0.4477
H7 H 0.1989 0.6047 0.5395
H8 H 0.1730 0.6213 0.3898
C12 C 0.2682(3) 0.7512(5) 0.7376(6)
H9 H 0.2854 0.8111 0.8070
H10 H 0.2095 0.7471 0.6825
C13 C 0.2702(3) 0.5705(5) 0.8491(5)
H11 H 0.2216 0.5861 0.8377
C14 C 0.3774(4) 0.4901(6) 0.9064(8)
H12 H 0.4192 0.4353 0.9416
C15 C 0.3731(5) 0.5884(6) 0.8446(9)
H13 H 0.4111 0.6177 0.8319
C16 C 0.4060(4) 0.9040(5) 0.8430(5)
H14 H 0.3905 0.9846 0.8407
H15 H 0.4630 0.9003 0.8837
H16 H 0.3940 0.8578 0.8960
C17 C 0.4618(3) 0.9536(4) 0.6792(6)
H17 H 0.4628 0.9855 0.6054
H18 H 0.4628 1.0191 0.7319
C18 C 0.6073(3) 0.9184(4) 0.8575(5)
H19 H 0.6214 0.9976 0.8779
C19 C 0.6122(3) 0.7315(4) 0.8588(5)
H20 H 0.6319 0.6546 0.8819
C20 C 0.5355(3) 0.7599(4) 0.7662(7)
H21 H 0.4924 0.7084 0.7124
C21 C 0.3771(3) 0.8630(9) 0.4066(5)
H22 H 0.3924 0.9442 0.4126
H23 H 0.3351 0.8438 0.3134
H24 H 0.4233 0.8135 0.4387
N9_2 N 0.3149(3) 0.4795(4) -0.0880(4)
N11B N 0.1584(2) 0.3298(4) -0.0846(4)
Ag1_2 Ag 0.292830(16) 0.36358(4) 1.04236(3)
Ag1B Ag 0.792830(16) 0.86358(4) 1.04236(3)
O1 O 0.523(2) 0.474(3) 1.282(4)
N3? N 0.4399(9) 0.2138(12) 0.1074(13)
N5? N 0.5040(8) 0.2173(17) 0.1220(14)
loop_
_geom_bond_atom_site_label_1
_geom_bond_atom_site_label_2
_geom_bond_site_symmetry_1
_geom_bond_site_symmetry_2
Ag1 N1 1_555 1_555
N1 N2 1_555 1_555
N2 N4 1_555 1_555
N6 C7 1_555 1_555
N7 Ag1 1_555 1_555
N8 C12 1_555 1_555
N9 C13 1_555 1_555
N10 C17 1_555 1_555
N11 C18 1_555 1_555
C1 C2 1_555 1_555
C2 C3 1_555 1_555
C3 C4 1_555 1_555
C4 C5 1_555 1_555
C5 C6 1_555 1_555
C6 C1 1_555 1_555
C7 C1 1_555 1_555
H1 C7 1_555 1_555
H2 C7 1_555 1_555
C8 N6 1_555 1_555
H3 C8 1_555 1_555
C9 N7 1_555 1_555
H4 C9 1_555 1_555
C10 N6 1_555 1_555
H5 C10 1_555 1_555
C11 C2 1_555 1_555
H6 C11 1_555 1_555
H7 C11 1_555 1_555
H8 C11 1_555 1_555
C12 C3 1_555 1_555
H9 C12 1_555 1_555
H10 C12 1_555 1_555
C13 N8 1_555 1_555
H11 C13 1_555 1_555
C14 N9 1_555 1_555
H12 C14 1_555 1_555
C15 N8 1_555 1_555
H13 C15 1_555 1_555
C16 C4 1_555 1_555
H14 C16 1_555 1_555
H15 C16 1_555 1_555
H16 C16 1_555 1_555
C17 C5 1_555 1_555
H17 C17 1_555 1_555
H18 C17 1_555 1_555
C18 N10 1_555 1_555
H19 C18 1_555 1_555
C19 N11 1_555 1_555
H20 C19 1_555 1_555
C20 N10 1_555 1_555
H21 C20 1_555 1_555
C21 C6 1_555 1_555
H22 C21 1_555 1_555
H23 C21 1_555 1_555
H24 C21 1_555 1_555
N9_2 Ag1 1_555 1_555
N11B Ag1 1_555 1_555
Ag1_2 N9 1_555 1_555
Ag1B N11 1_555 1_555
N7 C8 1_555 1_555
C9 C10 1_555 1_555
C14 C15 1_555 1_555
C19 C20 1_555 1_555

#END
