
#######################################################################
#
#                 Cambridge Crystallographic Data Centre
#                                CCDC 
#
#######################################################################
#
# If this CIF has been generated from an entry in the Cambridge 
# Structural Database, then it will include bibliographic, chemical, 
# crystal, experimental, refinement or atomic coordinate data resulting 
# from the CCDC's data processing and validation procedures.
#
#######################################################################

data_LUQHEM
_symmetry_cell_setting           triclinic
_symmetry_space_group_name_H-M   'P -1'
_symmetry_Int_Tables_number      2
_space_group_name_Hall           '-P 1'
loop_
_symmetry_equiv_pos_site_id
_symmetry_equiv_pos_as_xyz
1 x,y,z
2 -x,-y,-z
_cell_length_a                   9.4304(18)
_cell_length_b                   16.507(3)
_cell_length_c                   18.079(3)
_cell_angle_alpha                66.416(6)
_cell_angle_beta                 78.330(8)
_cell_angle_gamma                81.019(8)
_cell_volume                     2517.06
loop_
_atom_site_label
_atom_site_type_symbol
_atom_site_fract_x
_atom_site_fract_y
_atom_site_fract_z
K1 K 0.66010(8) 0.24955(5) 0.75745(5)
S1 S 1.06548(10) 0.22351(7) 0.80221(6)
S2 S 1.30173(11) 0.23469(7) 0.67922(6)
F1 F 1.0668(4) 0.1335(2) 0.95745(16)
F2 F 1.0805(4) 0.05237(18) 0.88911(17)
F3 F 1.2666(3) 0.1158(2) 0.88242(19)
F4 F 1.2040(3) 0.33284(18) 0.54201(16)
F5 F 1.1697(3) 0.39626(17) 0.62796(17)
F6 F 1.3827(3) 0.38243(19) 0.56267(18)
O1 O 0.5137(4) 0.32270(19) 0.87376(19)
O2 O 0.6836(3) 0.42889(18) 0.73297(19)
O3 O 0.8276(4) 0.36222(19) 0.61271(17)
O4 O 0.7708(3) 0.19676(19) 0.61980(17)
O5 O 0.7200(4) 0.06858(19) 0.78064(17)
O6 O 0.6206(4) 0.11298(19) 0.92155(17)
O7 O 0.9154(3) 0.2153(3) 0.8104(2)
O8 O 1.1076(4) 0.2968(2) 0.8136(2)
O9 O 1.3880(4) 0.2545(3) 0.7252(2)
O10 O 1.3655(4) 0.1793(3) 0.6357(2)
N1 N 1.1466(4) 0.2039(3) 0.7252(2)
C1 C 0.3720(5) 0.3005(4) 0.9160(4)
C2 C 0.5391(5) 0.4089(3) 0.8609(3)
C3 C 0.6852(5) 0.4290(3) 0.8119(3)
C4 C 0.8076(6) 0.4653(3) 0.6763(3)
C5 C 0.8034(6) 0.4538(3) 0.5991(3)
C6 C 0.8291(6) 0.3453(4) 0.5411(3)
C7 C 0.8766(6) 0.2500(4) 0.5583(3)
C8 C 0.8141(6) 0.1050(3) 0.6420(3)
C9 C 0.7069(6) 0.0539(3) 0.7105(3)
C10 C 0.6322(5) 0.0154(3) 0.8525(3)
C11 C 0.6708(5) 0.0268(3) 0.9246(3)
C12 C 0.6681(6) 0.1299(3) 0.9840(3)
C13 C 1.1238(5) 0.1260(3) 0.8866(3)
C14 C 1.2611(5) 0.3418(3) 0.5987(3)
H1 H 0.2995 0.3418 0.8842
H2 H 0.3594 0.3047 0.9695
H3 H 0.3592 0.2399 0.9233
H4 H 0.5340 0.4142 0.9140
H5 H 0.4639 0.4518 0.8316
H6 H 0.7084 0.4877 0.8066
H7 H 0.7600 0.3837 0.8390
H8 H 0.8975 0.4343 0.6986
H9 H 0.8063 0.5290 0.6658
H10 H 0.7076 0.4775 0.5812
H11 H 0.8792 0.4869 0.5556
H12 H 0.8968 0.3831 0.4952
H13 H 0.7308 0.3595 0.5255
H14 H 0.8867 0.2382 0.5078
H15 H 0.9721 0.2350 0.5774
H16 H 0.9115 0.0918 0.6587
H17 H 0.8194 0.0881 0.5947
H18 H 0.6073 0.0736 0.6970
H19 H 0.7259 -0.0101 0.7207
H20 H 0.6501 -0.0477 0.8592
H21 H 0.5281 0.0341 0.8485
H22 H 0.6255 -0.0177 0.9761
H23 H 0.7775 0.0178 0.9231
H24 H 0.7745 0.1241 0.9766
H25 H 0.6301 0.0871 1.0377
H26 H 0.6322 0.1902 0.9805
K1_2 K 1.66010(8) 0.24955(5) 0.75745(5)
O9_2 O 0.3880(4) 0.2545(3) 0.7252(2)
K2 K 0.21822(9) 0.73110(5) 0.75237(5)
S3 S 0.61896(11) 0.67526(7) 0.80233(7)
S4 S 0.85418(11) 0.73873(7) 0.67968(6)
F7 F 0.4755(5) 0.7384(3) 0.9076(3)
F8 F 0.4613(4) 0.8239(3) 0.7818(3)
F9 F 0.6565(4) 0.8129(3) 0.8297(3)
F10 F 0.7392(5) 0.9026(2) 0.6263(2)
F11 F 0.7663(4) 0.84043(19) 0.54089(17)
F12 F 0.9508(4) 0.8811(3) 0.5636(2)
O11 O 0.1482(4) 0.6228(2) 0.92135(17)
O12 O 0.0815(4) 0.80614(19) 0.86985(18)
O13 O 0.1676(4) 0.92209(19) 0.70485(18)
O14 O 0.3639(4) 0.85369(19) 0.60343(16)
O15 O 0.3392(3) 0.67726(18) 0.62047(16)
O16 O 0.1953(3) 0.55828(18) 0.76708(17)
O17 O 0.4879(4) 0.6398(3) 0.8046(3)
O18 O 0.7124(4) 0.6227(2) 0.8609(2)
O19 O 0.9281(4) 0.7542(3) 0.7332(2)
O20 O 0.9305(4) 0.6839(3) 0.6367(2)
N2 N 0.6927(4) 0.7160(3) 0.7119(2)
C15 C 0.2307(6) 0.5431(4) 0.9632(3)
C16 C 0.0683(6) 0.6636(4) 0.9749(3)
C17 C -0.0172(5) 0.7448(3) 0.9255(3)
C18 C 0.0122(6) 0.8917(3) 0.8319(3)
C19 C 0.1231(6) 0.9499(3) 0.7722(3)
C20 C 0.2727(6) 0.9735(3) 0.6450(3)
C21 C 0.3035(6) 0.9440(3) 0.5752(3)
C22 C 0.4041(6) 0.8228(3) 0.5381(3)
C23 C 0.4570(5) 0.7286(4) 0.5707(3)
C24 C 0.3808(5) 0.5847(3) 0.6527(3)
C25 C 0.2511(6) 0.5361(3) 0.6979(3)
C26 C 0.0644(5) 0.5187(3) 0.8096(3)
C27 C 0.5552(6) 0.7682(4) 0.8275(5)
C28 C 0.8251(6) 0.8465(3) 0.5984(3)
H27 H 0.2854 0.5182 0.9238
H28 H 0.1650 0.5001 1.0037
H29 H 0.2984 0.5560 0.9908
H30 H 0.1356 0.6801 1.0012
H31 H 0.0022 0.6221 1.0182
H32 H -0.0780 0.7290 0.8954
H33 H -0.0819 0.7713 0.9618
H34 H -0.0335 0.9165 0.8736
H35 H -0.0646 0.8880 0.8036
H36 H 0.0815 1.0124 0.7526
H37 H 0.2078 0.9457 0.7985
H38 H 0.3628 0.9663 0.6680
H39 H 0.2365 1.0370 0.6262
H40 H 0.2127 0.9489 0.5536
H41 H 0.3730 0.9820 0.5308
H42 H 0.4813 0.8577 0.4972
H43 H 0.3191 0.8306 0.5108
H44 H 0.4985 0.7090 0.5252
H45 H 0.5343 0.7199 0.6036
H46 H 0.4526 0.5720 0.6898
H47 H 0.4265 0.5650 0.6077
H48 H 0.1762 0.5522 0.6619
H49 H 0.2775 0.4714 0.7156
H50 H 0.0823 0.4540 0.8284
H51 H -0.0088 0.5392 0.7730
H52 H 0.0291 0.5355 0.8568
K2_2 K 1.21822(9) 0.73110(5) 0.75237(5)
O19_2 O -0.0719(4) 0.7542(3) 0.7332(2)
loop_
_geom_bond_atom_site_label_1
_geom_bond_atom_site_label_2
_geom_bond_site_symmetry_1
_geom_bond_site_symmetry_2
K1 O1 1_555 1_555
S1 O7 1_555 1_555
S2 O9 1_555 1_555
F1 C13 1_555 1_555
F2 C13 1_555 1_555
F3 C13 1_555 1_555
F4 C14 1_555 1_555
F5 C14 1_555 1_555
F6 C14 1_555 1_555
O1 C1 1_555 1_555
O2 K1 1_555 1_555
O3 K1 1_555 1_555
O4 K1 1_555 1_555
O5 K1 1_555 1_555
O6 K1 1_555 1_555
O7 K1 1_555 1_555
O8 S1 1_555 1_555
O9 K1_2 1_555 1_555
O10 S2 1_555 1_555
N1 S1 1_555 1_555
C1 H1 1_555 1_555
C2 O1 1_555 1_555
C3 O2 1_555 1_555
C4 O2 1_555 1_555
C5 O3 1_555 1_555
C6 O3 1_555 1_555
C7 O4 1_555 1_555
C8 O4 1_555 1_555
C9 O5 1_555 1_555
C10 O5 1_555 1_555
C11 O6 1_555 1_555
C12 O6 1_555 1_555
C13 S1 1_555 1_555
C14 S2 1_555 1_555
H2 C1 1_555 1_555
H3 C1 1_555 1_555
H4 C2 1_555 1_555
H5 C2 1_555 1_555
H6 C3 1_555 1_555
H7 C3 1_555 1_555
H8 C4 1_555 1_555
H9 C4 1_555 1_555
H10 C5 1_555 1_555
H11 C5 1_555 1_555
H12 C6 1_555 1_555
H13 C6 1_555 1_555
H14 C7 1_555 1_555
H15 C7 1_555 1_555
H16 C8 1_555 1_555
H17 C8 1_555 1_555
H18 C9 1_555 1_555
H19 C9 1_555 1_555
H20 C10 1_555 1_555
H21 C10 1_555 1_555
H22 C11 1_555 1_555
H23 C11 1_555 1_555
H24 C12 1_555 1_555
H25 C12 1_555 1_555
H26 C12 1_555 1_555
K2 F8 1_555 1_555
S3 O17 1_555 1_555
S4 O19 1_555 1_555
F7 C27 1_555 1_555
F8 C27 1_555 1_555
F9 C27 1_555 1_555
F10 C28 1_555 1_555
F11 C28 1_555 1_555
F12 C28 1_555 1_555
O11 K2 1_555 1_555
O12 K2 1_555 1_555
O13 K2 1_555 1_555
O14 K2 1_555 1_555
O15 K2 1_555 1_555
O16 K2 1_555 1_555
O17 K2 1_555 1_555
O18 S3 1_555 1_555
O19 K2_2 1_555 1_555
O20 S4 1_555 1_555
N2 S3 1_555 1_555
C15 O11 1_555 1_555
C16 O11 1_555 1_555
C17 O12 1_555 1_555
C18 O12 1_555 1_555
C19 O13 1_555 1_555
C20 O13 1_555 1_555
C21 O14 1_555 1_555
C22 O14 1_555 1_555
C23 O15 1_555 1_555
C24 O15 1_555 1_555
C25 O16 1_555 1_555
C26 O16 1_555 1_555
C27 S3 1_555 1_555
C28 S4 1_555 1_555
H27 C15 1_555 1_555
H28 C15 1_555 1_555
H29 C15 1_555 1_555
H30 C16 1_555 1_555
H31 C16 1_555 1_555
H32 C17 1_555 1_555
H33 C17 1_555 1_555
H34 C18 1_555 1_555
H35 C18 1_555 1_555
H36 C19 1_555 1_555
H37 C19 1_555 1_555
H38 C20 1_555 1_555
H39 C20 1_555 1_555
H40 C21 1_555 1_555
H41 C21 1_555 1_555
H42 C22 1_555 1_555
H43 C22 1_555 1_555
H44 C23 1_555 1_555
H45 C23 1_555 1_555
H46 C24 1_555 1_555
H47 C24 1_555 1_555
H48 C25 1_555 1_555
H49 C25 1_555 1_555
H50 C26 1_555 1_555
H51 C26 1_555 1_555
H52 C26 1_555 1_555
O9_2 K1 1_555 1_555
O19_2 K2 1_555 1_555
S2 N1 1_555 1_555
C2 C3 1_555 1_555
C4 C5 1_555 1_555
C6 C7 1_555 1_555
C8 C9 1_555 1_555
C10 C11 1_555 1_555
S4 N2 1_555 1_555
C16 C17 1_555 1_555
C18 C19 1_555 1_555
C20 C21 1_555 1_555
C22 C23 1_555 1_555
C24 C25 1_555 1_555

#END
