
#######################################################################
#
#                 Cambridge Crystallographic Data Centre
#                                CCDC 
#
#######################################################################
#
# If this CIF has been generated from an entry in the Cambridge 
# Structural Database, then it will include bibliographic, chemical, 
# crystal, experimental, refinement or atomic coordinate data resulting 
# from the CCDC's data processing and validation procedures.
#
#######################################################################

data_LUQMUH
_symmetry_cell_setting           monoclinic
_symmetry_space_group_name_H-M   'P 21/c'
_symmetry_Int_Tables_number      14
_space_group_name_Hall           '-P 2ybc'
loop_
_symmetry_equiv_pos_site_id
_symmetry_equiv_pos_as_xyz
1 x,y,z
2 -x,1/2+y,1/2-z
3 -x,-y,-z
4 x,1/2-y,1/2+z
_cell_length_a                   12.444(3)
_cell_length_b                   11.648(2)
_cell_length_c                   16.912(3)
_cell_angle_alpha                90
_cell_angle_beta                 107.93(3)
_cell_angle_gamma                90
_cell_volume                     2332.3
loop_
_atom_site_label
_atom_site_type_symbol
_atom_site_fract_x
_atom_site_fract_y
_atom_site_fract_z
N1 N 0.7773(3) 0.6169(3) 0.33438(18)
N2 N 0.6948(3) 0.7520(3) 0.37993(19)
C1 C 0.8989(3) 0.4428(3) 0.1980(2)
C2 C 0.8604(3) 0.3829(4) 0.1209(2)
H1 H 0.9112 0.3395 0.1030
C3 C 0.7515(4) 0.3882(4) 0.0736(3)
H2 H 0.7280 0.3477 0.0238
C4 C 0.6716(3) 0.4551(3) 0.0986(2)
H3 H 0.5973 0.4600 0.0643
C5 C 0.7042(3) 0.5118(3) 0.1730(2)
H4 H 0.6518 0.5553 0.1891
C6 C 0.8175(3) 0.5048(3) 0.2257(2)
C7 C 0.8564(3) 0.5583(3) 0.3030(2)
C8 C 0.9713(3) 0.5551(3) 0.3512(2)
C9 C 1.0154(3) 0.6062(3) 0.4308(2)
H5 H 0.9668 0.6421 0.4552
C10 C 1.1283(3) 0.6030(3) 0.4719(2)
H6 H 1.1560 0.6369 0.5240
C11 C 1.2038(3) 0.5487(3) 0.4360(2)
H7 H 1.2810 0.5491 0.4638
C12 C 1.1637(3) 0.4959(3) 0.3608(2)
H8 H 1.2139 0.4587 0.3384
C13 C 1.0469(3) 0.4966(3) 0.3158(2)
C14 C 0.6924(3) 0.5652(3) 0.3596(2)
H9 H 0.6746 0.4875 0.3572
C15 C 0.6413(3) 0.6504(3) 0.3883(2)
H10 H 0.5812 0.6425 0.4098
C16 C 0.7779(3) 0.7343(3) 0.3461(2)
C17 C 0.6645(4) 0.8663(4) 0.4040(3)
H11 H 0.7317 0.9137 0.4215
H12 H 0.6357 0.8582 0.4509
C18 C 0.5781(4) 0.9244(4) 0.3349(3)
H13 H 0.6058 0.9318 0.2881
H14 H 0.5626 0.9992 0.3526
H15 H 0.5099 0.8797 0.3193
N3 N 1.0096(3) 0.4404(3) 0.24226(19)
Ag1 Ag 0.87766(2) 0.84358(2) 0.304418(18)
N3A N 0.9904(3) 0.9404(3) 0.25774(19)
Ag1A Ag 1.12234(2) 0.34358(2) 0.195582(18)
P1 P 0.51581(9) 0.70442(8) 0.59136(6)
F1 F 0.3896(2) 0.6937(2) 0.59754(16)
F2 F 0.6403(2) 0.7158(3) 0.58419(19)
F3 F 0.5393(3) 0.5744(2) 0.6215(2)
F4 F 0.5601(2) 0.7488(2) 0.68515(14)
F5 F 0.4908(2) 0.8346(2) 0.56104(17)
F6 F 0.4692(2) 0.6629(2) 0.49641(16)
O1 O 0.1171(4) 0.7935(4) 0.6642(3)
C19 C 0.3066(7) 0.7960(5) 0.7522(4)
H16 H 0.2821 0.8036 0.8005
H17 H 0.3779 0.8340 0.7618
H18 H 0.3146 0.7161 0.7412
C20 C 0.2219(5) 0.8490(5) 0.6798(4)
H19 H 0.2136 0.9297 0.6908
H20 H 0.2474 0.8432 0.6312
C21 C 0.0292(6) 0.8454(5) 0.5946(4)
H21 H 0.0451 0.8313 0.5428
H22 H 0.0263 0.9276 0.6025
C22 C -0.0813(5) 0.7910(5) 0.5925(3)
H23 H -0.0804 0.7112 0.5785
H24 H -0.1419 0.8289 0.5515
H25 H -0.0922 0.7983 0.6461
loop_
_geom_bond_atom_site_label_1
_geom_bond_atom_site_label_2
_geom_bond_site_symmetry_1
_geom_bond_site_symmetry_2
N1 C7 1_555 1_555
N2 C15 1_555 1_555
C1 C2 1_555 1_555
C2 H1 1_555 1_555
C3 C2 1_555 1_555
H2 C3 1_555 1_555
C4 C3 1_555 1_555
H3 C4 1_555 1_555
C5 C4 1_555 1_555
H4 C5 1_555 1_555
C6 C1 1_555 1_555
C7 C6 1_555 1_555
C8 C7 1_555 1_555
C9 C8 1_555 1_555
H5 C9 1_555 1_555
C10 C9 1_555 1_555
H6 C10 1_555 1_555
C11 C10 1_555 1_555
H7 C11 1_555 1_555
C12 C11 1_555 1_555
H8 C12 1_555 1_555
C13 C8 1_555 1_555
C14 N1 1_555 1_555
H9 C14 1_555 1_555
C15 C14 1_555 1_555
H10 C15 1_555 1_555
C16 N1 1_555 1_555
C17 N2 1_555 1_555
H11 C17 1_555 1_555
H12 C17 1_555 1_555
C18 C17 1_555 1_555
H13 C18 1_555 1_555
H14 C18 1_555 1_555
H15 C18 1_555 1_555
N3 C1 1_555 1_555
Ag1 C16 1_555 1_555
P1 F1 1_555 1_555
F2 P1 1_555 1_555
F3 P1 1_555 1_555
F4 P1 1_555 1_555
F5 P1 1_555 1_555
F6 P1 1_555 1_555
O1 C20 1_555 1_555
C19 H16 1_555 1_555
H17 C19 1_555 1_555
H18 C19 1_555 1_555
C20 C19 1_555 1_555
H19 C20 1_555 1_555
H20 C20 1_555 1_555
C21 O1 1_555 1_555
H21 C21 1_555 1_555
H22 C21 1_555 1_555
C22 C21 1_555 1_555
H23 C22 1_555 1_555
H24 C22 1_555 1_555
H25 C22 1_555 1_555
N3A Ag1 1_555 1_555
Ag1A N3 1_555 1_555
N2 C16 1_555 1_555
C5 C6 1_555 1_555
C12 C13 1_555 1_555
C13 N3 1_555 1_555

#END
