
#######################################################################
#
#                 Cambridge Crystallographic Data Centre
#                                CCDC 
#
#######################################################################
#
# If this CIF has been generated from an entry in the Cambridge 
# Structural Database, then it will include bibliographic, chemical, 
# crystal, experimental, refinement or atomic coordinate data resulting 
# from the CCDC's data processing and validation procedures.
#
#######################################################################

data_LUQNAN
_symmetry_cell_setting           hexagonal
_symmetry_space_group_name_H-M   'P 63'
_symmetry_Int_Tables_number      173
_space_group_name_Hall           'P 6c'
loop_
_symmetry_equiv_pos_site_id
_symmetry_equiv_pos_as_xyz
1 x,y,z
2 x-y,x,1/2+z
3 -y,x-y,z
4 -x,-y,1/2+z
5 -x+y,-x,z
6 y,-x+y,1/2+z
_cell_length_a                   9.3808(14)
_cell_length_b                   9.3808(14)
_cell_length_c                   15.8006(14)
_cell_angle_alpha                90
_cell_angle_beta                 90
_cell_angle_gamma                120
_cell_volume                     1204.16
loop_
_atom_site_label
_atom_site_type_symbol
_atom_site_fract_x
_atom_site_fract_y
_atom_site_fract_z
O1 O 0.293(6) 0.365(5) 0.379(3)
N1 N 0.6667 0.3333 0.2285(17)
C3 C 0.215(8) 0.292(6) 0.292(3)
C4 C 0.550(7) 0.401(5) 0.2726(18)
C5 C 0.398(6) 0.318(5) 0.274(2)
O1B O 0.635(5) -0.072(8) 0.379(3)
O1D O 1.072(8) 0.707(6) 0.379(3)
C3B C 0.708(6) -0.077(10) 0.292(3)
C3D C 1.077(10) 0.785(8) 0.292(3)
C4B C 0.599(5) 0.149(9) 0.2726(18)
C4D C 0.851(9) 0.450(7) 0.2726(18)
C5B C 0.682(5) 0.080(8) 0.274(2)
C5D C 0.920(8) 0.602(6) 0.274(2)
O6 O 1.0000 0.0000 0.2584(18)
O7 O 0.654(9) 0.269(4) -0.030(2)
O7B O 0.731(4) 0.385(10) -0.030(2)
O7D O 0.615(10) 0.346(9) -0.030(2)
Mn1 Mn 0.0000 0.0000 0.5424(8)
Cr1 Cr -0.3333 -0.6667 0.54365(14)
O2 O -0.3190(13) -0.4836(9) 0.4761(5)
O3 O -0.1853(15) -0.2062(11) 0.4767(11)
O4 O -0.1621(11) -0.4798(7) 0.6138(5)
O5 O -0.0257(13) -0.2079(10) 0.6151(9)
C1 C -0.2185(20) -0.3507(16) 0.5054(10)
C2 C -0.1210(18) -0.3426(14) 0.5824(8)
Cr1B Cr 0.6667 0.3334 0.54365(14)
Cr1D Cr -0.3334 0.3333 0.54365(14)
O2B O 0.4836(9) 0.1646(16) 0.4761(5)
O2D O -0.1646(16) 0.3190(13) 0.4761(5)
O2B_2 O -0.5164(9) -0.8354(16) 0.4761(5)
O2D_2 O -0.1646(16) -0.6810(13) 0.4761(5)
O3B O 0.2062(11) 0.0209(19) 0.4767(11)
O3D O -0.0209(19) 0.1853(15) 0.4767(11)
O4B O 0.4798(7) 0.3177(13) 0.6138(5)
O4D O -0.3177(13) 0.1621(11) 0.6138(5)
O4B_2 O -0.5202(7) -0.6823(13) 0.6138(5)
O4D_2 O -0.3177(13) -0.8379(11) 0.6138(5)
O5B O 0.2079(10) 0.1822(16) 0.6151(9)
O5D O -0.1822(16) 0.0257(13) 0.6151(9)
C1B C 0.3507(16) 0.1322(26) 0.5054(10)
C1D C -0.1322(26) 0.2185(20) 0.5054(10)
C2B C 0.3426(14) 0.2216(23) 0.5824(8)
C2D C -0.2216(23) 0.1210(18) 0.5824(8)
loop_
_geom_bond_atom_site_label_1
_geom_bond_atom_site_label_2
_geom_bond_site_symmetry_1
_geom_bond_site_symmetry_2
Mn1 O3 1_555 1_555
Cr1 O2 1_555 1_555
O1 C3 1_555 1_555
O2 C1 1_555 1_555
O3 C1 1_555 1_555
O4 Cr1 1_555 1_555
O5 Mn1 1_555 1_555
O7 O7B 1_555 1_555
N1 C4 1_555 1_555
C1 C2 1_555 1_555
C2 O4 1_555 1_555
C3 C5 1_555 1_555
C4 C5 1_555 1_555
Cr1B O2B 1_555 1_555
Cr1D O2D 1_555 1_555
O1B C3B 1_555 1_555
O1D C3D 1_555 1_555
O2B C1B 1_555 1_555
O2D C1D 1_555 1_555
O2B_2 Cr1 1_555 1_555
O2D_2 Cr1 1_555 1_555
O3B Mn1 1_555 1_555
O3D Mn1 1_555 1_555
O4B Cr1B 1_555 1_555
O4D Cr1D 1_555 1_555
O4B_2 Cr1 1_555 1_555
O4D_2 Cr1 1_555 1_555
O5B Mn1 1_555 1_555
O5D Mn1 1_555 1_555
O7B O7D 1_555 1_555
O7D O7 1_555 1_555
C1B O3B 1_555 1_555
C1D O3D 1_555 1_555
C2B O4B 1_555 1_555
C2D O4D 1_555 1_555
C3B C5B 1_555 1_555
C3D C5D 1_555 1_555
C4B N1 1_555 1_555
C4D N1 1_555 1_555
C5B C4B 1_555 1_555
C5D C4D 1_555 1_555
O5 C2 1_555 1_555
O5B C2B 1_555 1_555
O5D C2D 1_555 1_555
C1B C2B 1_555 1_555
C1D C2D 1_555 1_555

#END
