
#######################################################################
#
#                 Cambridge Crystallographic Data Centre
#                                CCDC 
#
#######################################################################
#
# If this CIF has been generated from an entry in the Cambridge 
# Structural Database, then it will include bibliographic, chemical, 
# crystal, experimental, refinement or atomic coordinate data resulting 
# from the CCDC's data processing and validation procedures.
#
#######################################################################

data_LUQQOE
_symmetry_cell_setting           monoclinic
_symmetry_space_group_name_H-M   'P 21/n'
_symmetry_Int_Tables_number      14
_space_group_name_Hall           '-P 2yn'
loop_
_symmetry_equiv_pos_site_id
_symmetry_equiv_pos_as_xyz
1 x,y,z
2 1/2-x,1/2+y,1/2-z
3 -x,-y,-z
4 1/2+x,1/2-y,1/2+z
_cell_length_a                   12.6808(7)
_cell_length_b                   16.7088(8)
_cell_length_c                   15.3231(7)
_cell_angle_alpha                90
_cell_angle_beta                 103.387(3)
_cell_angle_gamma                90
_cell_volume                     3158.46
loop_
_atom_site_label
_atom_site_type_symbol
_atom_site_fract_x
_atom_site_fract_y
_atom_site_fract_z
C1 C 0.2538(5) 0.2288(4) 0.3387(4)
C2 C 0.3376(5) 0.2535(3) 0.2861(4)
H1 H 0.4082 0.2344 0.3240
C3 C 0.3541(5) 0.3453(3) 0.2763(4)
H2 H 0.4152 0.3494 0.2453
C4 C 0.2597(5) 0.3881(4) 0.2137(4)
C5 C 0.3950(5) 0.3927(3) 0.3668(4)
C6 C 0.3093(5) 0.4059(4) 0.4204(4)
H3 H 0.2824 0.3540 0.4358
H4 H 0.2490 0.4368 0.3844
H5 H 0.3412 0.4353 0.4755
C7 C 0.4343(6) 0.4748(4) 0.3427(4)
H6 H 0.3738 0.5037 0.3042
H7 H 0.4923 0.4676 0.3108
H8 H 0.4619 0.5056 0.3977
C8 C 0.4924(5) 0.3500(4) 0.4253(4)
H9 H 0.5239 0.3835 0.4773
H10 H 0.5469 0.3403 0.3904
H11 H 0.4691 0.2988 0.4458
C9 C 0.3235(5) 0.2043(4) 0.1963(4)
C10 C 0.2122(6) 0.2120(5) 0.1331(5)
H12 H 0.1991 0.2680 0.1149
H13 H 0.1567 0.1941 0.1639
H14 H 0.2092 0.1787 0.0800
C11 C 0.3404(7) 0.1155(4) 0.2217(5)
H15 H 0.3319 0.0832 0.1671
H16 H 0.2867 0.0987 0.2548
H17 H 0.4135 0.1078 0.2594
C12 C 0.4100(6) 0.2287(4) 0.1475(5)
H18 H 0.4108 0.1905 0.0991
H19 H 0.4810 0.2289 0.1898
H20 H 0.3940 0.2824 0.1222
C13 C 0.3010(6) 0.2585(4) 0.8416(4)
C14 C 0.3556(5) 0.2176(3) 0.7750(4)
H21 H 0.4348 0.2212 0.8038
C15 C 0.3341(5) 0.1263(3) 0.7605(4)
H22 H 0.3822 0.1091 0.7206
C16 C 0.2182(6) 0.1053(4) 0.7079(5)
C17 C 0.3706(5) 0.0738(4) 0.8479(4)
C18 C 0.2962(6) 0.0780(4) 0.9124(5)
H23 H 0.2969 0.1324 0.9363
H24 H 0.2222 0.0639 0.8806
H25 H 0.3213 0.0403 0.9618
C19 C 0.3723(7) -0.0138(4) 0.8172(5)
H26 H 0.2993 -0.0297 0.7849
H27 H 0.4223 -0.0191 0.7773
H28 H 0.3964 -0.0484 0.8696
C20 C 0.4844(6) 0.0958(4) 0.8965(5)
H29 H 0.5132 0.0547 0.9412
H30 H 0.5304 0.0997 0.8533
H31 H 0.4834 0.1475 0.9266
C21 C 0.3421(5) 0.2687(4) 0.6868(4)
C22 C 0.3966(6) 0.2255(4) 0.6210(4)
H32 H 0.4710 0.2113 0.6514
H33 H 0.3559 0.1768 0.5992
H34 H 0.3979 0.2608 0.5702
C23 C 0.4015(6) 0.3479(4) 0.7107(5)
H35 H 0.3683 0.3776 0.7526
H36 H 0.4779 0.3374 0.7387
H37 H 0.3965 0.3796 0.6561
C24 C 0.2247(5) 0.2858(4) 0.6393(4)
H38 H 0.2228 0.3159 0.5841
H39 H 0.1856 0.2352 0.6245
H40 H 0.1901 0.3174 0.6789
Cs1 Cs 0.07223(3) 0.12995(3) 0.45974(3)
Cs2 Cs 0.20114(4) 0.42354(2) -0.05162(3)
O1 O 0.2752(4) 0.1774(3) 0.3967(3)
O2 O 0.1592(4) 0.2619(3) 0.3201(3)
O3 O 0.1642(4) 0.3781(3) 0.2275(3)
O4 O 0.2770(4) 0.4321(3) 0.1533(3)
O5 O 0.3532(4) 0.3030(3) 0.8990(3)
O6 O 0.1979(4) 0.2477(3) 0.8335(3)
O7 O 0.1374(4) 0.1357(3) 0.7330(3)
O8 O 0.2066(4) 0.0578(3) 0.6435(3)
O9 O 0.0376(4) -0.0429(3) 0.4019(3)
O10 O -0.0014(4) 0.5337(3) -0.1228(3)
O11 O -0.0317(5) 0.3932(3) -0.0411(3)
H41 H 0.163(6) 0.308(5) 0.280(5)
H42 H 0.173(7) 0.205(6) 0.794(6)
H43 H 0.006(7) 0.405(6) 0.023(2)
H44 H 0.100(4) -0.057(5) 0.376(5)
H45 H -0.053(6) 0.577(4) -0.150(6)
H46 H -0.105(5) 0.365(6) -0.056(8)
H47 H -0.039(4) 0.484(2) -0.107(3)
H48 H -0.029(4) -0.070(5) 0.370(5)
Cs1C Cs 0.57223(3) 0.37005(3) 0.95974(3)
Cs1B Cs -0.07223(3) -0.12995(3) 0.54026(3)
Cs2_2 Cs 0.20114(4) 0.42354(2) 0.94838(3)
Cs2A Cs 0.29886(4) -0.07646(2) 0.55162(3)
O5C O -0.1468(4) 0.1970(3) 0.3990(3)
O5_2 O 0.3532(4) 0.3030(3) -0.1010(3)
O6_2 O 0.1979(4) 0.2477(3) -0.1665(3)
O8A O 0.2934(4) 0.5578(3) -0.1435(3)
O9B O -0.0376(4) 0.0429(3) 0.5981(3)
H42_2 H 0.173(7) 0.205(6) -0.206(6)
H44B H -0.100(4) 0.057(5) 0.624(5)
H48B H 0.029(4) 0.070(5) 0.630(5)
loop_
_geom_bond_atom_site_label_1
_geom_bond_atom_site_label_2
_geom_bond_site_symmetry_1
_geom_bond_site_symmetry_2
C1 C2 1_555 1_555
C2 H1 1_555 1_555
C3 C2 1_555 1_555
H2 C3 1_555 1_555
C4 C3 1_555 1_555
C5 C3 1_555 1_555
C6 C5 1_555 1_555
H3 C6 1_555 1_555
H4 C6 1_555 1_555
H5 C6 1_555 1_555
C7 C5 1_555 1_555
H6 C7 1_555 1_555
H7 C7 1_555 1_555
H8 C7 1_555 1_555
C8 C5 1_555 1_555
H9 C8 1_555 1_555
H10 C8 1_555 1_555
H11 C8 1_555 1_555
C9 C2 1_555 1_555
C10 C9 1_555 1_555
H12 C10 1_555 1_555
H13 C10 1_555 1_555
H14 C10 1_555 1_555
C11 C9 1_555 1_555
H15 C11 1_555 1_555
H16 C11 1_555 1_555
H17 C11 1_555 1_555
C12 C9 1_555 1_555
H18 C12 1_555 1_555
H19 C12 1_555 1_555
H20 C12 1_555 1_555
C13 C14 1_555 1_555
C14 H21 1_555 1_555
C15 C14 1_555 1_555
H22 C15 1_555 1_555
C16 C15 1_555 1_555
C17 C15 1_555 1_555
C18 C17 1_555 1_555
H23 C18 1_555 1_555
H24 C18 1_555 1_555
H25 C18 1_555 1_555
C19 C17 1_555 1_555
H26 C19 1_555 1_555
H27 C19 1_555 1_555
H28 C19 1_555 1_555
C20 C17 1_555 1_555
H29 C20 1_555 1_555
H30 C20 1_555 1_555
H31 C20 1_555 1_555
C21 C14 1_555 1_555
C22 C21 1_555 1_555
H32 C22 1_555 1_555
H33 C22 1_555 1_555
H34 C22 1_555 1_555
C23 C21 1_555 1_555
H35 C23 1_555 1_555
H36 C23 1_555 1_555
H37 C23 1_555 1_555
C24 C21 1_555 1_555
H38 C24 1_555 1_555
H39 C24 1_555 1_555
H40 C24 1_555 1_555
Cs1 O1 1_555 1_555
Cs2 O4 1_555 1_555
O1 C1 1_555 1_555
O2 C1 1_555 1_555
O3 C4 1_555 1_555
O4 C4 1_555 1_555
O5 C13 1_555 1_555
O6 C13 1_555 1_555
O7 C16 1_555 1_555
O8 C16 1_555 1_555
O9 Cs1 1_555 1_555
O10 Cs2 1_555 1_555
O11 Cs2 1_555 1_555
H41 O2 1_555 1_555
H42 O6 1_555 1_555
H43 O11 1_555 1_555
H44 O9 1_555 1_555
H45 O10 1_555 1_555
H46 O11 1_555 1_555
H47 O10 1_555 1_555
H48 O9 1_555 1_555
Cs1C O5 1_555 1_555
Cs1B O9 1_555 1_555
Cs2_2 O5 1_555 1_555
Cs2A O8 1_555 1_555
O5C Cs1 1_555 1_555
O5_2 Cs2 1_555 1_555
O6_2 Cs2 1_555 1_555
O8A Cs2 1_555 1_555
O9B Cs1 1_555 1_555
H42_2 O6_2 1_555 1_555
H44B O9B 1_555 1_555
H48B O9B 1_555 1_555
Cs1 O2 1_555 1_555
Cs1 O8 1_555 1_555
O6 Cs2_2 1_555 1_555
Cs1B O9B 1_555 1_555

#END
