
#######################################################################
#
#                 Cambridge Crystallographic Data Centre
#                                CCDC 
#
#######################################################################
#
# If this CIF has been generated from an entry in the Cambridge 
# Structural Database, then it will include bibliographic, chemical, 
# crystal, experimental, refinement or atomic coordinate data resulting 
# from the CCDC's data processing and validation procedures.
#
#######################################################################

data_LUQQAR
_symmetry_cell_setting           monoclinic
_symmetry_space_group_name_H-M   'P 21/c'
_symmetry_Int_Tables_number      14
_space_group_name_Hall           '-P 2ybc'
loop_
_symmetry_equiv_pos_site_id
_symmetry_equiv_pos_as_xyz
1 x,y,z
2 -x,1/2+y,1/2-z
3 -x,-y,-z
4 x,1/2-y,1/2+z
_cell_length_a                   16.9161(17)
_cell_length_b                   9.9598(9)
_cell_length_c                   16.8863(15)
_cell_angle_alpha                90
_cell_angle_beta                 99.789(6)
_cell_angle_gamma                90
_cell_volume                     2803.6
loop_
_atom_site_label
_atom_site_type_symbol
_atom_site_fract_x
_atom_site_fract_y
_atom_site_fract_z
C1 C 0.6271(5) 0.2615(7) -0.0789(4)
H1 H 0.6256(5) 0.3535(7) -0.0603(4)
H2 H 0.6156(5) 0.2630(7) -0.1371(4)
C2 C 0.9235(9) 0.1301(16) -0.2027(10)
H3 H 0.9378(9) 0.2186(16) -0.2108(10)
C3 C 0.8712(9) -0.0332(17) -0.1258(10)
H4 H 0.8496(9) -0.0586(17) -0.0809(10)
C4 C 0.9112(12) -0.096(3) -0.2487(14)
H5 H 0.9182(12) -0.162(3) -0.2859(14)
C5 C 0.8131(8) -0.0242(15) 0.2130(10)
H6 H 0.8096(15) 0.041(11) 0.170(6)
H7 H 0.848(2) 0.009(13) 0.260(3)
H8 H 0.834(4) -0.107(3) 0.196(8)
C6 C 0.4003(5) 0.2700(7) 0.1071(4)
H9 H 0.4203(5) 0.3467(7) 0.0811(4)
H10 H 0.3854(5) 0.3021(7) 0.1567(4)
C7 C 0.7118(5) 0.2065(9) -0.0523(6)
H11 H 0.7221(5) 0.2000(9) 0.0058(6)
H12 H 0.7141(5) 0.1163(9) -0.0736(6)
C8 C 0.2025(9) 0.3055(16) -0.0358(10)
H13 H 0.2213(15) 0.260(12) -0.079(4)
H14 H 0.164(4) 0.250(11) -0.015(2)
H15 H 0.178(5) 0.3886(18) -0.055(6)
C9 C 0.9326(12) 0.031(3) -0.2612(13)
H16 H 0.9530(12) 0.054(3) -0.3071(13)
C10 C 0.5879(5) 0.0292(7) 0.2099(4)
H17 H 0.5725(5) -0.0644(7) 0.2116(4)
H18 H 0.5933(5) 0.0642(7) 0.2641(4)
C11 C 0.6686(5) 0.0366(9) 0.1834(6)
H19 H 0.6627(5) 0.0082(9) 0.1278(6)
H20 H 0.6865(5) 0.1293(9) 0.1862(6)
C12 C 0.3269(6) 0.2222(9) 0.0549(6)
H21 H 0.3420(6) 0.1773(9) 0.0087(6)
H22 H 0.3011(6) 0.1564(9) 0.0843(6)
C13 C 0.2670(7) 0.3316(11) 0.0253(8)
H23 H 0.2968(7) 0.4058(11) 0.0076(8)
H24 H 0.2450(7) 0.3633(11) 0.0714(8)
C14 C 0.6901(6) 0.4515(10) 0.1855(6)
H25 H 0.7198(10) 0.407(7) 0.232(2)
H26 H 0.6935(7) 0.400(6) 0.138(2)
H27 H 0.7121(14) 0.5392(11) 0.180(4)
C15 C 0.7315(6) -0.0481(11) 0.2330(7)
H28 H 0.7176(6) -0.1421(11) 0.2242(7)
H29 H 0.7325(6) -0.0285(11) 0.2894(7)
C16 C 0.9016(9) 0.145(2) 0.0443(9)
H30 H 0.958(2) 0.123(16) 0.057(4)
H31 H 0.888(9) 0.206(6) 0.0834(15)
H32 H 0.871(8) 0.064(9) 0.045(3)
C17 C 0.9477(9) 0.3669(17) -0.0679(12)
H33 H 0.984(8) 0.379(12) -0.018(4)
H34 H 0.977(9) 0.349(9) -0.111(8)
H35 H 0.9164(12) 0.447(4) -0.080(11)
C18 C 0.7765(6) 0.2873(10) -0.0779(8)
H36 H 0.7623(6) 0.3015(10) -0.1354(8)
H37 H 0.7765(6) 0.3746(10) -0.0525(8)
C19 C 0.8934(6) 0.0962(13) -0.1335(8)
C20 C 0.8800(12) -0.1287(19) -0.1835(14)
H38 H 0.8640(12) -0.2167(19) -0.1769(14)
O1 O 0.5465(4) 0.5232(5) 0.1235(3)
O2 O 0.5634(3) 0.3310(4) 0.2110(3)
O3 O 0.5562(3) 0.0238(4) -0.0644(3)
O4 O 0.4670(3) 0.2214(4) -0.0860(3)
H39 H 0.4683(16) 0.3036(8) -0.089(5)
O5 O 0.5602(3) 0.1915(4) 0.0469(3)
O6 O 0.5910(4) 0.5520(5) 0.2653(3)
Si1 Si 0.8795(2) 0.2223(4) -0.0575(3)
P1 P 0.54973(12) 0.16915(15) -0.04332(10)
S1 S 0.58964(13) 0.46621(17) 0.19690(11)
Sn1 Sn 0.49512(3) 0.13397(4) 0.13689(3)
O3B O 0.4438(3) -0.0238(4) 0.0644(3)
O6A O 0.4090(4) 0.0520(5) 0.2347(3)
Sn1A Sn 0.50488(3) 0.63397(4) 0.36311(3)
Sn1B Sn 0.50488(3) -0.13397(4) -0.13689(3)
loop_
_geom_bond_atom_site_label_1
_geom_bond_atom_site_label_2
_geom_bond_site_symmetry_1
_geom_bond_site_symmetry_2
C1 H1 1_555 1_555
H2 C1 1_555 1_555
C2 H3 1_555 1_555
C3 H4 1_555 1_555
C4 H5 1_555 1_555
C5 H6 1_555 1_555
H7 C5 1_555 1_555
H8 C5 1_555 1_555
C6 H9 1_555 1_555
H10 C6 1_555 1_555
C7 C1 1_555 1_555
H11 C7 1_555 1_555
H12 C7 1_555 1_555
C8 H13 1_555 1_555
H14 C8 1_555 1_555
H15 C8 1_555 1_555
C9 C2 1_555 1_555
H16 C9 1_555 1_555
C10 H17 1_555 1_555
H18 C10 1_555 1_555
C11 C10 1_555 1_555
H19 C11 1_555 1_555
H20 C11 1_555 1_555
C12 C6 1_555 1_555
H21 C12 1_555 1_555
H22 C12 1_555 1_555
C13 C8 1_555 1_555
H23 C13 1_555 1_555
H24 C13 1_555 1_555
C14 H25 1_555 1_555
H26 C14 1_555 1_555
H27 C14 1_555 1_555
C15 C5 1_555 1_555
H28 C15 1_555 1_555
H29 C15 1_555 1_555
C16 H30 1_555 1_555
H31 C16 1_555 1_555
H32 C16 1_555 1_555
C17 H33 1_555 1_555
H34 C17 1_555 1_555
H35 C17 1_555 1_555
C18 C7 1_555 1_555
H36 C18 1_555 1_555
H37 C18 1_555 1_555
C19 C2 1_555 1_555
C20 C3 1_555 1_555
H38 C20 1_555 1_555
O1 S1 1_555 1_555
O2 S1 1_555 1_555
O3 P1 1_555 1_555
O4 H39 1_555 1_555
O5 P1 1_555 1_555
O6 S1 1_555 1_555
Si1 C16 1_555 1_555
P1 C1 1_555 1_555
S1 C14 1_555 1_555
Sn1 C6 1_555 1_555
O3B Sn1 1_555 1_555
O6A Sn1 1_555 1_555
Sn1A O6 1_555 1_555
Sn1B O3 1_555 1_555
C3 C19 1_555 1_555
C4 C9 1_555 1_555
C4 C20 1_555 1_555
C10 Sn1 1_555 1_555
C11 C15 1_555 1_555
C12 C13 1_555 1_555
C17 Si1 1_555 1_555
C18 Si1 1_555 1_555
C19 Si1 1_555 1_555
O2 Sn1 1_555 1_555
O4 P1 1_555 1_555
O5 Sn1 1_555 1_555

#END
