
#######################################################################
#
#                 Cambridge Crystallographic Data Centre
#                                CCDC 
#
#######################################################################
#
# If this CIF has been generated from an entry in the Cambridge 
# Structural Database, then it will include bibliographic, chemical, 
# crystal, experimental, refinement or atomic coordinate data resulting 
# from the CCDC's data processing and validation procedures.
#
#######################################################################

data_LUQTOG
_symmetry_cell_setting           triclinic
_symmetry_space_group_name_H-M   'P -1'
_symmetry_Int_Tables_number      2
_space_group_name_Hall           '-P 1'
loop_
_symmetry_equiv_pos_site_id
_symmetry_equiv_pos_as_xyz
1 x,y,z
2 -x,-y,-z
_cell_length_a                   11.0764(5)
_cell_length_b                   15.9276(7)
_cell_length_c                   18.2000(7)
_cell_angle_alpha                92.8290(10)
_cell_angle_beta                 94.2690(10)
_cell_angle_gamma                90.3390(10)
_cell_volume                     3197.89
loop_
_atom_site_label
_atom_site_type_symbol
_atom_site_fract_x
_atom_site_fract_y
_atom_site_fract_z
Cu1 Cu 0.43436(7) 0.75777(5) 0.05943(4)
N1 N 0.3713(4) 0.7224(3) 0.1541(2)
C1 C 0.2795(6) 0.6695(4) 0.1614(3)
H1 H 0.2400(6) 0.6444(4) 0.1189(3)
C2 C 0.2406(6) 0.6504(4) 0.2285(4)
H2 H 0.1769(6) 0.6128(4) 0.2316(4)
C3 C 0.2979(7) 0.6881(5) 0.2904(4)
H3 H 0.2733(7) 0.6766(5) 0.3366(4)
C4 C 0.3920(7) 0.7430(4) 0.2844(3)
H4 H 0.4316(7) 0.7685(4) 0.3265(3)
C5 C 0.4279(6) 0.7603(4) 0.2157(3)
C6 C 0.5280(5) 0.8169(4) 0.2028(3)
C7 C 0.5958(7) 0.8630(4) 0.2576(4)
H5 H 0.5782(7) 0.8607(4) 0.3067(4)
C8 C 0.6895(7) 0.9123(4) 0.2386(4)
H6 H 0.7345(7) 0.9447(4) 0.2749(4)
C9 C 0.7167(6) 0.9143(4) 0.1678(4)
H7 H 0.7817(6) 0.9463(4) 0.1549(4)
C10 C 0.6467(6) 0.8681(4) 0.1154(3)
H8 H 0.6649(6) 0.8694(4) 0.0664(3)
N2 N 0.5531(4) 0.8211(3) 0.1316(2)
O1 O 0.5674(4) 0.6408(3) 0.0630(2)
H9 H 0.5991(47) 0.6151(38) 0.0174(18)
H10 H 0.6087(48) 0.6320(38) 0.1115(15)
N3 N 0.4956(4) 0.8109(3) -0.0298(2)
C11 C 0.4618(5) 0.8873(4) -0.0492(3)
H11 H 0.4089(5) 0.9171(4) -0.0206(3)
C12 C 0.5022(6) 0.9244(4) -0.1102(3)
H12 H 0.4763(6) 0.9780(4) -0.1217(3)
C13 C 0.5809(5) 0.8818(4) -0.1539(3)
C14 C 0.6172(5) 0.8044(4) -0.1326(3)
H13 H 0.6717(5) 0.7740(4) -0.1596(3)
C15 C 0.5733(6) 0.7708(4) -0.0709(3)
H14 H 0.5994(6) 0.7179(4) -0.0577(3)
C16 C 0.6209(5) 0.9224(4) -0.2218(3)
H15 H 0.5518(5) 0.9264(4) -0.2575(3)
H16 H 0.6500(5) 0.9790(4) -0.2082(3)
N4 N 0.7158(4) 0.8752(3) -0.2557(3)
H17 H 0.7929(19) 0.8657(26) -0.2274(20)
C17 C 0.7046(5) 0.8439(3) -0.3263(3)
O2 O 0.6149(4) 0.8552(2) -0.3688(2)
C18 C 0.8104(5) 0.7937(4) -0.3496(3)
C19 C 0.8755(5) 0.7411(4) -0.3029(3)
H18 H 0.8581(5) 0.7391(4) -0.2538(3)
C20 C 0.9664(5) 0.6914(4) -0.3296(3)
C21 C 0.9895(6) 0.6933(5) -0.4026(3)
H19 H 1.0471(6) 0.6575(5) -0.4213(3)
C22 C 0.9281(7) 0.7478(5) -0.4484(4)
H20 H 0.9473(7) 0.7504(5) -0.4971(4)
C23 C 0.8398(6) 0.7976(4) -0.4226(3)
H21 H 0.7988(6) 0.8343(4) -0.4537(3)
C24 C 1.0439(6) 0.6349(4) -0.2818(4)
O3 O 1.1456(4) 0.6147(3) -0.2987(2)
N5 N 1.0004(5) 0.6115(3) -0.2193(3)
H22 H 0.9183(26) 0.6220(49) -0.2046(40)
C25 C 1.0676(6) 0.5578(4) -0.1701(3)
H23 H 1.1155(6) 0.5195(4) -0.1989(3)
H24 H 1.0110(6) 0.5243(4) -0.1454(3)
C26 C 1.1512(5) 0.6054(4) -0.1121(3)
C27 C 1.1251(5) 0.6839(4) -0.0836(3)
H25 H 1.0531(5) 0.7097(4) -0.0988(3)
C28 C 1.2063(6) 0.7246(4) -0.0321(3)
H26 H 1.1871(6) 0.7780(4) -0.0136(3)
N6 N 1.3112(5) 0.6907(3) -0.0077(2)
C29 C 1.3352(6) 0.6130(4) -0.0339(4)
H27 H 1.4064(6) 0.5875(4) -0.0166(4)
C30 C 1.2584(6) 0.5695(4) -0.0856(3)
H28 H 1.2785(6) 0.5158(4) -0.1028(3)
Cu2 Cu 0.45318(7) 0.74464(5) -0.42320(4)
N7 N 0.3621(4) 0.7829(3) -0.3370(2)
C31 C 0.2811(5) 0.8449(4) -0.3348(3)
H29 H 0.2668(5) 0.8767(4) -0.3760(3)
C32 C 0.2185(5) 0.8632(4) -0.2737(4)
H30 H 0.1625(5) 0.9064(4) -0.2735(4)
C33 C 0.2404(6) 0.8164(4) -0.2131(3)
H31 H 0.1997(6) 0.8277(4) -0.1709(3)
C34 C 0.3228(6) 0.7531(4) -0.2153(3)
H32 H 0.3387(6) 0.7211(4) -0.1744(3)
C35 C 0.3820(5) 0.7366(3) -0.2779(3)
C36 C 0.4729(5) 0.6701(3) -0.2857(3)
C37 C 0.5003(6) 0.6104(4) -0.2331(3)
H33 H 0.4577(6) 0.6093(4) -0.1910(3)
C38 C 0.5910(7) 0.5534(4) -0.2442(4)
H34 H 0.6081(7) 0.5121(4) -0.2107(4)
C39 C 0.6563(6) 0.5581(4) -0.3057(4)
H35 H 0.7219(6) 0.5231(4) -0.3125(4)
C40 C 0.6221(5) 0.6155(4) -0.3561(3)
H36 H 0.6636(5) 0.6168(4) -0.3986(3)
N8 N 0.5320(4) 0.6702(3) -0.3479(2)
N9 N 0.5340(4) 0.6911(3) -0.5081(3)
C41 C 0.5165(6) 0.6112(5) -0.5315(4)
H37 H 0.4564(6) 0.5804(5) -0.5115(4)
C42 C 0.5824(6) 0.5722(4) -0.5835(3)
H38 H 0.5655(6) 0.5163(4) -0.5981(3)
C43 C 0.6731(5) 0.6140(4) -0.6144(3)
C44 C 0.6862(5) 0.6983(4) -0.5936(3)
H39 H 0.7419(5) 0.7314(4) -0.6151(3)
C45 C 0.6163(6) 0.7331(4) -0.5407(3)
H40 H 0.6278(6) 0.7898(4) -0.5270(3)
C46 C 0.7532(6) 0.5683(4) -0.6660(3)
H41 H 0.8064(6) 0.5317(4) -0.6377(3)
H42 H 0.7029(6) 0.5331(4) -0.7011(3)
N10 N 0.8264(5) 0.6230(3) -0.7063(3)
H43 H 0.9139(11) 0.6247(44) -0.6936(37)
C47 C 0.7878(6) 0.6493(4) -0.7717(3)
O4 O 0.6887(4) 0.6278(3) -0.8025(2)
C48 C 0.8697(5) 0.7078(4) -0.8085(3)
C49 C 0.9443(5) 0.7657(4) -0.7676(3)
H44 H 0.9475(5) 0.7665(4) -0.7164(3)
C50 C 1.0144(5) 0.8226(4) -0.8017(3)
C51 C 1.0080(5) 0.8210(4) -0.8787(3)
H45 H 1.0542(5) 0.8589(4) -0.9023(3)
C52 C 0.9343(6) 0.7642(4) -0.9199(3)
H46 H 0.9304(6) 0.7639(4) -0.9711(3)
C53 C 0.8651(6) 0.7068(4) -0.8850(3)
H47 H 0.8159(6) 0.6678(4) -0.9130(3)
C54 C 1.0994(6) 0.8815(4) -0.7579(3)
O5 O 1.1988(4) 0.8988(3) -0.7805(2)
N11 N 1.0640(5) 0.9136(3) -0.6938(3)
H48 H 0.9882(37) 0.8989(53) -0.6728(41)
C55 C 1.1454(6) 0.9643(4) -0.6440(3)
H49 H 1.0983(6) 1.0033(4) -0.6154(3)
H50 H 1.1972(6) 0.9970(4) -0.6726(3)
C56 C 1.2235(6) 0.9134(3) -0.5919(3)
C57 C 1.1807(6) 0.8392(4) -0.5662(3)
H51 H 1.1032(6) 0.8197(4) -0.5817(3)
C58 C 1.2526(7) 0.7945(4) -0.5178(4)
H52 H 1.2223(7) 0.7445(4) -0.5020(4)
N12 N 1.3635(5) 0.8190(3) -0.4923(2)
C59 C 1.4056(6) 0.8894(4) -0.5180(3)
H53 H 1.4839(6) 0.9070(4) -0.5021(3)
C60 C 1.3392(6) 0.9375(4) -0.5669(3)
H54 H 1.3728(6) 0.9863(4) -0.5831(3)
O18 O 0.2890(4) 0.6213(3) -0.4262(2)
H55 H 0.2522(46) 0.5958(31) -0.4727(15)
H56 H 0.2369(37) 0.6195(35) -0.3850(18)
O19 O 0.3009(4) 0.8865(3) 0.0850(2)
H57 H 0.2644(48) 0.9363(21) 0.0633(30)
H58 H 0.2681(47) 0.8776(37) 0.1326(15)
N6_2 N 0.3112(5) 0.6907(3) -0.0077(2)
Cu1_2 Cu 1.43436(7) 0.75777(5) 0.05943(4)
N12_2 N 0.3635(5) 0.8190(3) -0.4923(2)
Cu2_2 Cu 1.45318(7) 0.74464(5) -0.42320(4)
N13 N 0.7631(8) 0.5758(5) -0.0866(5)
O6 O 0.8116(7) 0.5141(5) -0.1114(5)
O7 O 0.7993(6) 0.6397(5) -0.1106(6)
O8 O 0.6708(7) 0.5677(4) -0.0573(3)
N14 N 0.9796(8) 0.9051(6) -0.1244(5)
O9 O 1.0547(7) 0.9076(5) -0.0748(5)
O10 O 0.8934(8) 0.8684(6) -0.1267(5)
O11 O 1.0008(9) 0.9354(7) -0.1802(7)
N15 N 0.8077(6) 0.9296(4) -0.5873(3)
O12 O 0.8609(4) 0.8642(3) -0.6059(3)
O13 O 0.7079(5) 0.9275(3) -0.5635(3)
O14 O 0.8560(5) 0.9978(3) -0.5974(3)
N16 N 1.1044(7) 0.5799(5) -0.6004(4)
O15 O 1.1958(6) 0.5584(5) -0.5630(3)
O16 O 1.0498(7) 0.6428(5) -0.5877(5)
O17 O 1.0722(5) 0.5420(4) -0.6579(3)
O20 O 1.2130(5) 1.0212(4) 0.0036(3)
H59 H 1.1560(52) 0.9860(38) -0.0284(33)
H60 H 1.1678(57) 1.0565(41) 0.0374(31)
loop_
_geom_bond_atom_site_label_1
_geom_bond_atom_site_label_2
_geom_bond_site_symmetry_1
_geom_bond_site_symmetry_2
Cu1 N1 1_555 1_555
N1 C1 1_555 1_555
C1 H1 1_555 1_555
C2 C1 1_555 1_555
H2 C2 1_555 1_555
C3 C2 1_555 1_555
H3 C3 1_555 1_555
C4 C3 1_555 1_555
H4 C4 1_555 1_555
C5 N1 1_555 1_555
C6 C5 1_555 1_555
C7 C6 1_555 1_555
H5 C7 1_555 1_555
C8 C7 1_555 1_555
H6 C8 1_555 1_555
C9 C8 1_555 1_555
H7 C9 1_555 1_555
C10 C9 1_555 1_555
H8 C10 1_555 1_555
N2 Cu1 1_555 1_555
O1 Cu1 1_555 1_555
H9 O1 1_555 1_555
H10 O1 1_555 1_555
N3 Cu1 1_555 1_555
C11 N3 1_555 1_555
H11 C11 1_555 1_555
C12 C11 1_555 1_555
H12 C12 1_555 1_555
C13 C12 1_555 1_555
C14 C13 1_555 1_555
H13 C14 1_555 1_555
C15 N3 1_555 1_555
H14 C15 1_555 1_555
C16 C13 1_555 1_555
H15 C16 1_555 1_555
H16 C16 1_555 1_555
N4 C16 1_555 1_555
H17 N4 1_555 1_555
C17 N4 1_555 1_555
O2 C17 1_555 1_555
C18 C17 1_555 1_555
C19 C18 1_555 1_555
H18 C19 1_555 1_555
C20 C19 1_555 1_555
C21 C20 1_555 1_555
H19 C21 1_555 1_555
C22 C21 1_555 1_555
H20 C22 1_555 1_555
C23 C18 1_555 1_555
H21 C23 1_555 1_555
C24 C20 1_555 1_555
O3 C24 1_555 1_555
N5 C24 1_555 1_555
H22 N5 1_555 1_555
C25 N5 1_555 1_555
H23 C25 1_555 1_555
H24 C25 1_555 1_555
C26 C25 1_555 1_555
C27 C26 1_555 1_555
H25 C27 1_555 1_555
C28 C27 1_555 1_555
H26 C28 1_555 1_555
N6 C28 1_555 1_555
C29 N6 1_555 1_555
H27 C29 1_555 1_555
C30 C26 1_555 1_555
H28 C30 1_555 1_555
Cu2 O2 1_555 1_555
N7 Cu2 1_555 1_555
C31 N7 1_555 1_555
H29 C31 1_555 1_555
C32 C31 1_555 1_555
H30 C32 1_555 1_555
C33 C32 1_555 1_555
H31 C33 1_555 1_555
C34 C33 1_555 1_555
H32 C34 1_555 1_555
C35 N7 1_555 1_555
C36 C35 1_555 1_555
C37 C36 1_555 1_555
H33 C37 1_555 1_555
C38 C37 1_555 1_555
H34 C38 1_555 1_555
C39 C38 1_555 1_555
H35 C39 1_555 1_555
C40 C39 1_555 1_555
H36 C40 1_555 1_555
N8 Cu2 1_555 1_555
N9 Cu2 1_555 1_555
C41 N9 1_555 1_555
H37 C41 1_555 1_555
C42 C41 1_555 1_555
H38 C42 1_555 1_555
C43 C42 1_555 1_555
C44 C43 1_555 1_555
H39 C44 1_555 1_555
C45 N9 1_555 1_555
H40 C45 1_555 1_555
C46 C43 1_555 1_555
H41 C46 1_555 1_555
H42 C46 1_555 1_555
N10 C46 1_555 1_555
H43 N10 1_555 1_555
C47 N10 1_555 1_555
O4 C47 1_555 1_555
C48 C47 1_555 1_555
C49 C48 1_555 1_555
H44 C49 1_555 1_555
C50 C49 1_555 1_555
C51 C50 1_555 1_555
H45 C51 1_555 1_555
C52 C51 1_555 1_555
H46 C52 1_555 1_555
C53 C48 1_555 1_555
H47 C53 1_555 1_555
C54 C50 1_555 1_555
O5 C54 1_555 1_555
N11 C54 1_555 1_555
H48 N11 1_555 1_555
C55 N11 1_555 1_555
H49 C55 1_555 1_555
H50 C55 1_555 1_555
C56 C55 1_555 1_555
C57 C56 1_555 1_555
H51 C57 1_555 1_555
C58 C57 1_555 1_555
H52 C58 1_555 1_555
N12 C58 1_555 1_555
C59 N12 1_555 1_555
H53 C59 1_555 1_555
C60 C56 1_555 1_555
H54 C60 1_555 1_555
N13 O6 1_555 1_555
O7 N13 1_555 1_555
O8 N13 1_555 1_555
N14 O9 1_555 1_555
O10 N14 1_555 1_555
O11 N14 1_555 1_555
N15 O12 1_555 1_555
O13 N15 1_555 1_555
O14 N15 1_555 1_555
N16 O15 1_555 1_555
O16 N16 1_555 1_555
O17 N16 1_555 1_555
O18 Cu2 1_555 1_555
H55 O18 1_555 1_555
H56 O18 1_555 1_555
O19 Cu1 1_555 1_555
H57 O19 1_555 1_555
H58 O19 1_555 1_555
O20 H59 1_555 1_555
H60 O20 1_555 1_555
N6_2 Cu1 1_555 1_555
Cu1_2 N6 1_555 1_555
N12_2 Cu2 1_555 1_555
Cu2_2 N12 1_555 1_555
C4 C5 1_555 1_555
C6 N2 1_555 1_555
C10 N2 1_555 1_555
C14 C15 1_555 1_555
C22 C23 1_555 1_555
C29 C30 1_555 1_555
C34 C35 1_555 1_555
C36 N8 1_555 1_555
C40 N8 1_555 1_555
C44 C45 1_555 1_555
C52 C53 1_555 1_555
C59 C60 1_555 1_555

#END
