
#######################################################################
#
#                 Cambridge Crystallographic Data Centre
#                                CCDC 
#
#######################################################################
#
# If this CIF has been generated from an entry in the Cambridge 
# Structural Database, then it will include bibliographic, chemical, 
# crystal, experimental, refinement or atomic coordinate data resulting 
# from the CCDC's data processing and validation procedures.
#
#######################################################################

data_LUQXEC
_symmetry_cell_setting           monoclinic
_symmetry_space_group_name_H-M   'P 21/c'
_symmetry_Int_Tables_number      14
_space_group_name_Hall           '-P 2ybc'
loop_
_symmetry_equiv_pos_site_id
_symmetry_equiv_pos_as_xyz
1 x,y,z
2 -x,1/2+y,1/2-z
3 -x,-y,-z
4 x,1/2-y,1/2+z
_cell_length_a                   17.328(14)
_cell_length_b                   12.160(9)
_cell_length_c                   7.253(6)
_cell_angle_alpha                90
_cell_angle_beta                 95.4040(10)
_cell_angle_gamma                90
_cell_volume                     1521.48
loop_
_atom_site_label
_atom_site_type_symbol
_atom_site_fract_x
_atom_site_fract_y
_atom_site_fract_z
Sn1 Sn 0.50281(2) 0.32145(4) 0.19648(6)
S1 S 0.40674(8) 0.28217(13) 0.4616(2)
S2 S 0.55376(10) 0.12347(14) 0.2100(3)
N1 N 0.1309(3) 0.0018(5) 0.2143(8)
N2 N 0.8957(3) 0.1064(5) 0.4469(8)
C1 C 0.3276(3) 0.1911(5) 0.3931(8)
C2 C 0.3363(3) 0.0851(5) 0.3260(8)
H1 H 0.3857 0.0557 0.3222
C3 C 0.2720(4) 0.0235(5) 0.2652(9)
H2 H 0.2784 -0.0469 0.2191
C4 C 0.1977(4) 0.0658(5) 0.2720(8)
C5 C 0.1888(4) 0.1716(5) 0.3437(9)
H3 H 0.1395 0.2003 0.3518
C6 C 0.2529(3) 0.2325(5) 0.4015(8)
H4 H 0.2466 0.303 0.4474
C7 C 0.6555(3) 0.1268(5) 0.2749(8)
C8 C 0.6916(3) 0.2079(5) 0.3888(8)
H5 H 0.6624 0.2656 0.4296
C9 C 0.7705(3) 0.2032(5) 0.4415(8)
H6 H 0.7945 0.2574 0.5172
C10 C 0.8130(3) 0.1165(5) 0.3798(8)
C11 C 0.7790(4) 0.0370(5) 0.2649(9)
H7 H 0.8084 -0.0203 0.2233
C12 C 0.7005(4) 0.0433(5) 0.2120(8)
H8 H 0.6774 -0.0097 0.1324
H9 H 0.927(3) 0.062(3) 0.375(7)
H10 H 0.917(3) 0.179(2) 0.467(8)
H11 H 0.893(3) 0.068(4) 0.565(4)
H12 H 0.141(3) -0.048(4) 0.120(6)
H13 H 0.088(2) 0.046(4) 0.175(7)
Sn1C Sn 0.50281(2) 0.17855(4) 0.69648(6)
S1C S 0.40674(8) 0.21783(13) -0.0384(2)
Cl1 Cl 0.97556(10) 0.33470(13) 0.5736(2)
O1 O -0.0496(3) -0.0978(4) 0.2973(7)
H14 H -0.048(5) -0.167(3) 0.353(9)
H15 H -0.039(5) -0.106(6) 0.174(4)
loop_
_geom_bond_atom_site_label_1
_geom_bond_atom_site_label_2
_geom_bond_site_symmetry_1
_geom_bond_site_symmetry_2
Sn1 S1 1_555 1_555
S1 C1 1_555 1_555
S2 Sn1 1_555 1_555
N1 C4 1_555 1_555
N2 C10 1_555 1_555
C1 C2 1_555 1_555
C2 H1 1_555 1_555
C3 C2 1_555 1_555
H2 C3 1_555 1_555
C4 C3 1_555 1_555
C5 C4 1_555 1_555
H3 C5 1_555 1_555
C6 C1 1_555 1_555
H4 C6 1_555 1_555
C7 S2 1_555 1_555
C8 C7 1_555 1_555
H5 C8 1_555 1_555
C9 C8 1_555 1_555
H6 C9 1_555 1_555
C10 C9 1_555 1_555
C11 C10 1_555 1_555
H7 C11 1_555 1_555
C12 C7 1_555 1_555
H8 C12 1_555 1_555
H9 N2 1_555 1_555
H10 N2 1_555 1_555
H11 N2 1_555 1_555
H12 N1 1_555 1_555
H13 N1 1_555 1_555
O1 H14 1_555 1_555
H15 O1 1_555 1_555
Sn1C S1 1_555 1_555
S1C Sn1 1_555 1_555
C5 C6 1_555 1_555
C11 C12 1_555 1_555

#END
