
#######################################################################
#
#                 Cambridge Crystallographic Data Centre
#                                CCDC 
#
#######################################################################
#
# If this CIF has been generated from an entry in the Cambridge 
# Structural Database, then it will include bibliographic, chemical, 
# crystal, experimental, refinement or atomic coordinate data resulting 
# from the CCDC's data processing and validation procedures.
#
#######################################################################

data_LURCUX
_symmetry_cell_setting           triclinic
_symmetry_space_group_name_H-M   'P -1'
_symmetry_Int_Tables_number      2
_space_group_name_Hall           '-P 1'
loop_
_symmetry_equiv_pos_site_id
_symmetry_equiv_pos_as_xyz
1 x,y,z
2 -x,-y,-z
_cell_length_a                   10.196(2)
_cell_length_b                   10.627(2)
_cell_length_c                   13.624(3)
_cell_angle_alpha                71.10(3)
_cell_angle_beta                 84.47(3)
_cell_angle_gamma                61.52(3)
_cell_volume                     1224.6
loop_
_atom_site_label
_atom_site_type_symbol
_atom_site_fract_x
_atom_site_fract_y
_atom_site_fract_z
Ag1 Ag -0.45562(4) 0.35995(5) 0.22346(3)
Ag2 Ag -0.67286(5) 0.90803(5) -0.13521(3)
C1 C -0.2385(5) 0.1736(6) 0.4357(4)
C2 C -0.3024(6) 0.1541(7) 0.6051(4)
C3 C -0.4497(7) 0.2654(7) 0.5669(4)
H1 H -0.5233 0.2965 0.6125
C4 C -0.4835(6) 0.3279(6) 0.4601(4)
C5 C -0.2578(8) 0.0815(8) 0.7199(4)
H2 H -0.1844 0.1048 0.7370
H3 H -0.2163 -0.0259 0.7375
H4 H -0.3442 0.1194 0.7583
C6 C -0.6376(6) 0.4482(8) 0.4133(5)
H5 H -0.6334 0.5380 0.3710
H6 H -0.7032 0.4701 0.4679
H7 H -0.6746 0.4134 0.3712
C7 C -0.6516(6) 1.0503(6) -0.3720(4)
C8 C -0.8448(6) 1.2303(7) -0.4973(4)
C9 C -0.9363(7) 1.2705(7) -0.4191(5)
H8 H -1.0336 1.3496 -0.4349
C10 C -0.8800(6) 1.1904(7) -0.3164(4)
C11 C -0.9005(7) 1.3036(8) -0.6106(4)
H9 H -0.8187 1.3011 -0.6527
H10 H -0.9426 1.2498 -0.6291
H11 H -0.9758 1.4065 -0.6220
C12 C -0.9744(7) 1.2253(9) -0.2269(5)
H12 H -0.9283 1.2532 -0.1853
H13 H -1.0723 1.3072 -0.2534
H14 H -0.9826 1.1377 -0.1849
C13 C -0.0970(5) 0.4404(5) 0.0447(3)
C14 C -0.1413(5) 0.5591(5) -0.0512(3)
C15 C 0.0440(5) 0.3822(6) 0.0930(3)
H15 H 0.0738 0.3021 0.1548
C16 C -0.2904(5) 0.6266(6) -0.1122(3)
C17 C -0.1997(5) 0.3806(6) 0.1017(3)
N1 N -0.1307(5) 0.1234(6) 0.3722(3)
H16 H -0.1508 0.1586 0.3060
H17 H -0.0415 0.0561 0.3977
N2 N -0.1960(5) 0.1094(5) 0.5396(3)
N3 N -0.3782(5) 0.2799(5) 0.3933(3)
N4 N -0.5077(5) 0.9461(5) -0.3514(4)
H18 H -0.4721 0.8961 -0.2880
H19 H -0.4507 0.9291 -0.4015
N5 N -0.7006(5) 1.1234(5) -0.4750(4)
N6 N -0.7385(5) 1.0746(5) -0.2916(3)
O1 O -0.1483(4) 0.2397(4) 0.1440(3)
O2 O -0.6379(5) 0.7592(6) 0.0250(3)
H20 H -0.6429 0.6812 0.0261
H21 H -0.5514 0.7311 0.0499
O3 O -0.3316(4) 0.4769(5) 0.1080(3)
O5 O -0.3227(4) 0.5370(4) -0.1307(3)
O7 O -0.3661(4) 0.7677(4) -0.1424(3)
Ag1A Ag 0.45562(4) 0.64005(5) -0.22346(3)
Ag1A_2 Ag -0.54438(4) 0.64005(5) -0.22346(3)
Ag1_2 Ag 0.54438(4) 0.35995(5) 0.22346(3)
Ag2A Ag 0.67286(5) 0.09197(5) 0.13521(3)
C1A C 0.2385(5) 0.8264(6) -0.4357(4)
C2A C 0.3024(6) 0.8459(7) -0.6051(4)
C3A C 0.4497(7) 0.7346(7) -0.5669(4)
H1A H 0.5233 0.7035 -0.6125
C4A C 0.4835(6) 0.6721(6) -0.4601(4)
C5A C 0.2578(8) 0.9185(8) -0.7199(4)
H2A H 0.1844 0.8952 -0.7370
H3A H 0.2163 1.0259 -0.7375
H4A H 0.3442 0.8806 -0.7583
C6A C 0.6376(6) 0.5518(8) -0.4133(5)
H5A H 0.6334 0.4620 -0.3710
H6A H 0.7032 0.5299 -0.4679
H7A H 0.6746 0.5866 -0.3712
C7A C 0.6516(6) -0.0503(6) 0.3720(4)
C8A C 0.8448(6) -0.2303(7) 0.4973(4)
C9A C 0.9363(7) -0.2705(7) 0.4191(5)
H8A H 1.0336 -0.3496 0.4349
C10A C 0.8800(6) -0.1904(7) 0.3164(4)
C11A C 0.9005(7) -0.3036(8) 0.6106(4)
H9A H 0.8187 -0.3011 0.6527
H10A H 0.9426 -0.2498 0.6291
H11A H 0.9758 -0.4065 0.6220
C12A C 0.9744(7) -0.2253(9) 0.2269(5)
H12A H 0.9283 -0.2532 0.1853
H13A H 1.0723 -0.3072 0.2534
H14A H 0.9826 -0.1377 0.1849
C13A C 0.0970(5) 0.5596(5) -0.0447(3)
C14A C 0.1413(5) 0.4409(5) 0.0512(3)
C15A C -0.0440(5) 0.6178(6) -0.0930(3)
H15A H -0.0738 0.6979 -0.1548
C16A C 0.2904(5) 0.3734(6) 0.1122(3)
C17A C 0.1997(5) 0.6194(6) -0.1017(3)
N1A N 0.1307(5) 0.8766(6) -0.3722(3)
H16A H 0.1508 0.8414 -0.3060
H17A H 0.0415 0.9439 -0.3977
N2A N 0.1960(5) 0.8906(5) -0.5396(3)
N3A N 0.3782(5) 0.7201(5) -0.3933(3)
N4A N 0.5077(5) 0.0539(5) 0.3514(4)
H18A H 0.4721 0.1039 0.2880
H19A H 0.4507 0.0709 0.4015
N5A N 0.7006(5) -0.1234(5) 0.4750(4)
N6A N 0.7385(5) -0.0746(5) 0.2916(3)
O1A O 0.1483(4) 0.7603(4) -0.1440(3)
O2A O 0.6379(5) 0.2408(6) -0.0250(3)
H20A H 0.6429 0.3188 -0.0261
H21A H 0.5514 0.2689 -0.0499
O3A O 0.3316(4) 0.5231(5) -0.1080(3)
O5A O 0.3227(4) 0.4630(4) 0.1307(3)
O5A_2 O -0.6773(4) 0.4630(4) 0.1307(3)
O5_2 O 0.6773(4) 0.5370(4) -0.1307(3)
O7A O 0.3661(4) 0.2323(4) 0.1424(3)
O4 O -0.3528(10) 0.6927(10) 0.2072(7)
H22 H -0.3182 0.6106 0.1932
H23 H -0.2726 0.6762 0.2350
O6 O -0.3408(6) 0.9026(6) -0.0041(5)
H24 H -0.3434 0.8852 -0.0604
H25 H -0.3497 0.9908 -0.0216
O8 O 0.0782(5) 0.0501(5) 0.0470(3)
H26 H 0.0152 0.0931 0.0864
H27 H 0.0508 0.1097 -0.0150
loop_
_geom_bond_atom_site_label_1
_geom_bond_atom_site_label_2
_geom_bond_site_symmetry_1
_geom_bond_site_symmetry_2
Ag1 N3 1_555 1_555
Ag2 N6 1_555 1_555
C1 N1 1_555 1_555
C2 C3 1_555 1_555
C3 H1 1_555 1_555
C4 C3 1_555 1_555
C5 C2 1_555 1_555
H2 C5 1_555 1_555
H3 C5 1_555 1_555
H4 C5 1_555 1_555
C6 C4 1_555 1_555
H5 C6 1_555 1_555
H6 C6 1_555 1_555
H7 C6 1_555 1_555
C7 N4 1_555 1_555
C8 C9 1_555 1_555
C9 H8 1_555 1_555
C10 C9 1_555 1_555
C11 C8 1_555 1_555
H9 C11 1_555 1_555
H10 C11 1_555 1_555
H11 C11 1_555 1_555
C12 C10 1_555 1_555
H12 C12 1_555 1_555
H13 C12 1_555 1_555
H14 C12 1_555 1_555
C13 C14 1_555 1_555
C14 C16 1_555 1_555
C15 C13 1_555 1_555
H15 C15 1_555 1_555
C16 O5 1_555 1_555
C17 C13 1_555 1_555
N1 H16 1_555 1_555
H17 N1 1_555 1_555
N2 C1 1_555 1_555
N3 C1 1_555 1_555
N4 H18 1_555 1_555
H19 N4 1_555 1_555
N5 C7 1_555 1_555
N6 C7 1_555 1_555
O1 C17 1_555 1_555
O2 Ag2 1_555 1_555
H20 O2 1_555 1_555
H21 O2 1_555 1_555
O3 Ag1 1_555 1_555
O4 H22 1_555 1_555
H23 O4 1_555 1_555
O5 Ag1A_2 1_555 1_555
O6 H24 1_555 1_555
H25 O6 1_555 1_555
O7 Ag2 1_555 1_555
O8 H26 1_555 1_555
H27 O8 1_555 1_555
Ag1A N3A 1_555 1_555
Ag1_2 O5A 1_555 1_555
Ag2A N6A 1_555 1_555
C1A N1A 1_555 1_555
C2A C3A 1_555 1_555
C3A H1A 1_555 1_555
C4A C3A 1_555 1_555
C5A C2A 1_555 1_555
H2A C5A 1_555 1_555
H3A C5A 1_555 1_555
H4A C5A 1_555 1_555
C6A C4A 1_555 1_555
H5A C6A 1_555 1_555
H6A C6A 1_555 1_555
H7A C6A 1_555 1_555
C7A N4A 1_555 1_555
C8A C9A 1_555 1_555
C9A H8A 1_555 1_555
C10A C9A 1_555 1_555
C11A C8A 1_555 1_555
H9A C11A 1_555 1_555
H10A C11A 1_555 1_555
H11A C11A 1_555 1_555
C12A C10A 1_555 1_555
H12A C12A 1_555 1_555
H13A C12A 1_555 1_555
H14A C12A 1_555 1_555
C13A C14A 1_555 1_555
C14A C15 1_555 1_555
C15A C14 1_555 1_555
H15A C15A 1_555 1_555
C16A C14A 1_555 1_555
C17A C13A 1_555 1_555
N1A H16A 1_555 1_555
H17A N1A 1_555 1_555
N2A C1A 1_555 1_555
N3A C1A 1_555 1_555
N4A H18A 1_555 1_555
H19A N4A 1_555 1_555
N5A C7A 1_555 1_555
N6A C7A 1_555 1_555
O1A C17A 1_555 1_555
O2A Ag2A 1_555 1_555
H20A O2A 1_555 1_555
H21A O2A 1_555 1_555
O3A Ag1A 1_555 1_555
O5A C16A 1_555 1_555
O5A_2 Ag1 1_555 1_555
O5_2 Ag1A 1_555 1_555
O7A Ag2A 1_555 1_555
C2 N2 1_555 1_555
C4 N3 1_555 1_555
C8 N5 1_555 1_555
C10 N6 1_555 1_555
C16 O7 1_555 1_555
C17 O3 1_555 1_555
C2A N2A 1_555 1_555
C4A N3A 1_555 1_555
C8A N5A 1_555 1_555
C10A N6A 1_555 1_555
C13A C15A 1_555 1_555
C16A O7A 1_555 1_555
C17A O3A 1_555 1_555

#END
