
#######################################################################
#
#                 Cambridge Crystallographic Data Centre
#                                CCDC 
#
#######################################################################
#
# If this CIF has been generated from an entry in the Cambridge 
# Structural Database, then it will include bibliographic, chemical, 
# crystal, experimental, refinement or atomic coordinate data resulting 
# from the CCDC's data processing and validation procedures.
#
#######################################################################

data_LURCOS
_symmetry_cell_setting           triclinic
_symmetry_space_group_name_H-M   'P -1'
_symmetry_Int_Tables_number      2
_space_group_name_Hall           '-P 1'
loop_
_symmetry_equiv_pos_site_id
_symmetry_equiv_pos_as_xyz
1 x,y,z
2 -x,-y,-z
_cell_length_a                   6.65059(12)
_cell_length_b                   6.89548(17)
_cell_length_c                   18.4951(3)
_cell_angle_alpha                81.5590(12)
_cell_angle_beta                 84.2900(10)
_cell_angle_gamma                84.9750(14)
_cell_volume                     832.518
loop_
_atom_site_label
_atom_site_type_symbol
_atom_site_fract_x
_atom_site_fract_y
_atom_site_fract_z
I1 I 0.45837(8) 0.70603(8) 0.57654(2)
O1 O 0.0940(8) 0.5249(8) 0.9272(3)
O2 O 0.4079(7) 0.5916(8) 0.8820(3)
O3 O 0.7135(7) 0.8149(7) 0.9612(3)
O4 O 0.3236(8) 0.6717(7) 1.0502(3)
C1 C 0.2210(11) 0.5744(11) 0.8731(4)
C2 C 0.1571(11) 0.6182(11) 0.7981(4)
C3 C 0.3017(11) 0.6370(10) 0.7372(4)
C4 C 0.2433(12) 0.6818(11) 0.6677(4)
C5 C 0.0378(12) 0.7123(12) 0.6552(5)
C6 C -0.1116(12) 0.6953(12) 0.7152(4)
C7 C -0.0524(12) 0.6462(12) 0.7861(5)
Li1 Li 0.4252(19) 0.7951(18) 0.9480(7)
Li2 Li 0.174(2) 0.460(2) 1.0259(7)
H1 H 0.44179 0.61779 0.74464
H2 H -0.00214 0.74759 0.60682
H3 H -0.25139 0.71865 0.70777
H4 H -0.15204 0.63233 0.82666
I2 I 0.04111(8) 1.24973(8) 0.57185(3)
O5 O 0.2401(9) 1.0102(8) 0.9209(3)
O6 O -0.0603(8) 1.0862(8) 0.8753(3)
C8 C 0.1295(10) 1.0701(10) 0.8689(3)
C9 C 0.2374(12) 1.1097(10) 0.7928(4)
C10 C 0.1186(11) 1.1586(11) 0.7333(4)
C11 C 0.2127(12) 1.1921(12) 0.6620(4)
C12 C 0.4237(12) 1.1808(13) 0.6508(4)
C13 C 0.5410(13) 1.1313(13) 0.7102(4)
C14 C 0.4411(12) 1.1029(13) 0.7807(4)
H5 H -0.02508 1.16434 0.74075
H6 H 0.4876 1.20499 0.60237
H7 H 0.68462 1.11745 0.70264
H8 H 0.51927 1.07294 0.82169
O1A O -0.0940(8) 0.4751(8) 1.0728(3)
O3A O 0.2865(7) 0.1851(7) 1.0388(3)
Li2A Li -0.174(2) 0.540(2) 0.9741(7)
Li2A_2 Li 0.826(2) 0.540(2) 0.9741(7)
loop_
_geom_bond_atom_site_label_1
_geom_bond_atom_site_label_2
_geom_bond_site_symmetry_1
_geom_bond_site_symmetry_2
I1 C4 1_555 1_555
O1 C1 1_555 1_555
O2 C1 1_555 1_555
O3 Li1 1_555 1_555
O4 Li1 1_555 1_555
C1 C2 1_555 1_555
C2 C3 1_555 1_555
C3 C4 1_555 1_555
C4 C5 1_555 1_555
C5 C6 1_555 1_555
C6 C7 1_555 1_555
C7 C2 1_555 1_555
Li1 O2 1_555 1_555
Li2 O1 1_555 1_555
H1 C3 1_555 1_555
H2 C5 1_555 1_555
H3 C6 1_555 1_555
H4 C7 1_555 1_555
I2 C11 1_555 1_555
O5 Li1 1_555 1_555
O6 C8 1_555 1_555
C8 O5 1_555 1_555
C9 C8 1_555 1_555
C10 C9 1_555 1_555
C11 C10 1_555 1_555
C12 C11 1_555 1_555
C13 C12 1_555 1_555
C14 C9 1_555 1_555
H5 C10 1_555 1_555
H6 C12 1_555 1_555
H7 C13 1_555 1_555
H8 C14 1_555 1_555
O1A Li2 1_555 1_555
O3A Li2 1_555 1_555
Li2A O1 1_555 1_555
Li2A_2 O3 1_555 1_555
O4 Li2 1_555 1_555
C13 C14 1_555 1_555
O1A Li2A 1_555 1_555

#END
