
#######################################################################
#
#                 Cambridge Crystallographic Data Centre
#                                CCDC 
#
#######################################################################
#
# If this CIF has been generated from an entry in the Cambridge 
# Structural Database, then it will include bibliographic, chemical, 
# crystal, experimental, refinement or atomic coordinate data resulting 
# from the CCDC's data processing and validation procedures.
#
#######################################################################

data_LURCOR
_symmetry_cell_setting           triclinic
_symmetry_space_group_name_H-M   'P -1'
_symmetry_Int_Tables_number      2
_space_group_name_Hall           '-P 1'
loop_
_symmetry_equiv_pos_site_id
_symmetry_equiv_pos_as_xyz
1 x,y,z
2 -x,-y,-z
_cell_length_a                   6.8551(14)
_cell_length_b                   10.298(2)
_cell_length_c                   16.242(3)
_cell_angle_alpha                89.25(3)
_cell_angle_beta                 78.22(3)
_cell_angle_gamma                80.89(3)
_cell_volume                     1108.06
loop_
_atom_site_label
_atom_site_type_symbol
_atom_site_fract_x
_atom_site_fract_y
_atom_site_fract_z
Ag1 Ag 0.82175(6) 0.06196(4) 0.30794(2)
Ag2 Ag 0.78211(6) 0.30151(4) 0.21384(2)
Ag3 Ag 0.62406(7) -0.19674(4) 0.67141(2)
Ag4 Ag 1.24537(6) 0.42095(4) 0.14316(2)
C1 C 0.7560(7) 0.4727(5) 0.0403(3)
C2 C 0.5683(7) 0.6765(5) 0.0336(3)
H1 H 0.5150 0.7444 0.0024
C3 C 0.5233(9) 0.6891(5) 0.1197(3)
H2 H 0.4420 0.7634 0.1470
C4 C 0.6034(8) 0.5874(5) 0.1633(3)
H3 H 0.5782 0.5940 0.2217
C5 C 0.7124(6) -0.0974(4) 0.4843(3)
C6 C 0.5947(7) -0.2947(5) 0.5008(3)
H4 H 0.5471 -0.3605 0.5354
C7 C 0.6114(7) -0.3089(5) 0.4162(3)
H5 H 0.5782 -0.3822 0.3927
C8 C 0.6804(7) -0.2084(5) 0.3672(3)
H6 H 0.6908 -0.2138 0.3093
C9 C 1.1374(7) 0.5226(5) 0.3196(3)
C10 C 1.0616(6) 0.5117(4) 0.4129(3)
C11 C 0.9478(6) 0.4140(4) 0.4448(3)
C12 C 1.1095(6) 0.5971(4) 0.4683(3)
H7 H 1.1817 0.6635 0.4469
C13 C 0.8749(7) 0.3261(5) 0.3880(3)
C14 C 0.6925(6) -0.0159(4) 0.0152(3)
H8 H 0.8224 -0.0276 0.0258
C15 C 0.5296(6) 0.0292(4) 0.0799(3)
C16 C 0.6653(6) -0.0437(4) -0.0646(3)
C17 C 0.5697(7) 0.0666(5) 0.1631(3)
C18 C 0.8483(6) -0.0901(4) -0.1328(3)
N1 N 0.8672(6) 0.3648(4) 0.0024(3)
H9 H 0.9121 0.3012 0.0318
H10 H 0.8945 0.3582 -0.0516
N2 N 0.7172(6) 0.4782(4) 0.1253(2)
N3 N 0.6847(6) 0.5719(4) -0.0072(2)
N4 N 0.7608(6) 0.0079(4) 0.5160(2)
H11 H 0.8029 0.0684 0.4832
H12 H 0.7502 0.0159 0.5695
N5 N 0.7322(6) -0.1048(4) 0.3993(2)
N6 N 0.6428(5) -0.1915(4) 0.5370(2)
O2 O 0.7578(5) 0.3819(3) 0.3434(2)
O4 O 0.9312(6) 0.2051(3) 0.3909(2)
O5 O 1.1843(5) 0.4152(3) 0.27763(19)
O6 O 1.1528(7) 0.6323(4) 0.2902(2)
O7 O 0.6853(5) -0.0110(4) 0.1971(2)
O8 O 0.4834(5) 0.1793(3) 0.1918(2)
O9 O 0.8631(5) -0.0368(4) -0.2017(2)
O10 O 0.9738(6) -0.1809(4) -0.1141(2)
Ag1A Ag 1.17825(6) 0.93804(4) 0.69206(2)
Ag1A_2 Ag 1.17825(6) -0.06196(4) -0.30794(2)
Ag1A_3 Ag 0.17825(6) -0.06196(4) -0.30794(2)
Ag1_2 Ag -0.17825(6) 0.06196(4) 0.30794(2)
Ag2A Ag 1.21789(6) 0.69849(4) 0.78616(2)
Ag2A_2 Ag 1.21789(6) -0.30151(4) -0.21384(2)
Ag2A_3 Ag 0.21789(6) -0.30151(4) -0.21384(2)
Ag2_2 Ag -0.21789(6) 0.30151(4) 0.21384(2)
Ag2A_4 Ag 1.21789(6) 0.69849(4) -0.21384(2)
Ag3A Ag 1.37594(7) 0.19674(4) 0.32859(2)
Ag3A_2 Ag 0.37594(7) 0.19674(4) 0.32859(2)
Ag3_2 Ag 0.62406(7) 0.80326(4) 0.67141(2)
Ag3_3 Ag 0.62406(7) -0.19674(4) -0.32859(2)
Ag3A_3 Ag 1.37594(7) 1.19674(4) 0.32859(2)
Ag4A Ag 0.75463(6) 0.57905(4) 0.85684(2)
Ag4A_2 Ag 0.75463(6) 0.57905(4) -0.14316(2)
C1A C 1.2440(7) 0.5273(5) -0.0403(3)
C2A C 1.4317(7) 0.3235(5) -0.0336(3)
H1A H 1.4850 0.2556 -0.0024
C3A C 1.4767(9) 0.3109(5) -0.1197(3)
H2A H 1.5580 0.2366 -0.1470
C4A C 1.3966(8) 0.4126(5) -0.1633(3)
H3A H 1.4218 0.4060 -0.2217
C5A C 1.2876(6) 1.0974(4) 0.5157(3)
C6A C 1.4053(7) 1.2947(5) 0.4992(3)
H4A H 1.4529 1.3605 0.4646
C7A C 1.3886(7) 1.3089(5) 0.5838(3)
H5A H 1.4218 1.3822 0.6073
C8A C 1.3196(7) 1.2084(5) 0.6328(3)
H6A H 1.3092 1.2138 0.6907
C9A C 0.8626(7) 0.4774(5) 0.6804(3)
C10A C 0.9384(6) 0.4883(4) 0.5871(3)
C11A C 1.0522(6) 0.5860(4) 0.5552(3)
C12A C 0.8905(6) 0.4029(4) 0.5317(3)
H7A H 0.8183 0.3365 0.5531
C13A C 1.1251(7) 0.6739(5) 0.6120(3)
C14A C 0.3075(6) 0.0159(4) -0.0152(3)
H8A H 0.1776 0.0276 -0.0258
C15A C 0.4704(6) -0.0292(4) -0.0799(3)
C16A C 0.3347(6) 0.0437(4) 0.0646(3)
C17A C 0.4303(7) -0.0666(5) -0.1631(3)
C18A C 0.1517(6) 0.0901(4) 0.1328(3)
N1A N 1.1328(6) 0.6352(4) -0.0024(3)
H9A H 1.0879 0.6988 -0.0318
H10A H 1.1055 0.6418 0.0516
N2A N 1.2828(6) 0.5218(4) -0.1253(2)
N2A_2 N 1.2828(6) 0.5218(4) 0.8747(2)
N3A N 1.3153(6) 0.4281(4) 0.0072(2)
N3_2 N 0.6847(6) 0.5719(4) 0.9928(2)
N4A N 1.2392(6) 0.9921(4) 0.4840(2)
H11A H 1.1971 0.9316 0.5168
H12A H 1.2498 0.9841 0.4305
N5A N 1.2678(6) 1.1048(4) 0.6007(2)
N6A N 1.3572(5) 1.1915(4) 0.4630(2)
N6A_2 N 1.3572(5) 0.1915(4) 0.4630(2)
O2A O 1.2422(5) 0.6181(3) 0.6566(2)
O4A O 1.0688(6) 0.7949(3) 0.6091(2)
O5A O 0.8157(5) 0.5848(3) 0.72237(19)
O5A_2 O 0.8157(5) -0.4152(3) 0.72237(19)
O6A O 0.8472(7) 0.3677(4) 0.7098(2)
O7A O 0.3147(5) 0.0110(4) -0.1971(2)
O7A_2 O 1.3147(5) 1.0110(4) 0.8029(2)
O8A O 0.5166(5) -0.1793(3) -0.1918(2)
O8A_2 O 0.5166(5) -0.1793(3) 0.8082(2)
O8A_3 O 1.5166(5) 0.8207(3) 0.8082(2)
O8_2 O 1.4834(5) 0.1793(3) 0.1918(2)
O9A O 0.1369(5) 0.0368(4) 0.2017(2)
O9A_2 O 1.1369(5) 0.0368(4) 0.2017(2)
O9_2 O 0.8631(5) 0.9632(4) 0.7983(2)
O10A O 0.0262(6) 0.1809(4) 0.1141(2)
O10A_2 O 1.0262(6) 0.1809(4) 0.1141(2)
O10_2 O 0.9738(6) 0.8191(4) 0.8859(2)
O1 O 0.2648(7) 0.8772(4) 0.3207(3)
H13 H 0.2627 0.9183 0.2751
H14 H 0.2496 0.7982 0.3132
O3 O 0.9822(8) 0.7464(5) 0.1587(3)
H15 H 1.0312 0.7140 0.1999
H16 H 0.9239 0.8257 0.1675
loop_
_geom_bond_atom_site_label_1
_geom_bond_atom_site_label_2
_geom_bond_site_symmetry_1
_geom_bond_site_symmetry_2
Ag1 N5 1_555 1_555
Ag2 N2 1_555 1_555
Ag3 N6 1_555 1_555
Ag4 O5 1_555 1_555
C1 N1 1_555 1_555
C2 H1 1_555 1_555
C3 C2 1_555 1_555
H2 C3 1_555 1_555
C4 C3 1_555 1_555
H3 C4 1_555 1_555
C5 N4 1_555 1_555
C6 H4 1_555 1_555
C7 C6 1_555 1_555
H5 C7 1_555 1_555
C8 C7 1_555 1_555
H6 C8 1_555 1_555
C9 C10 1_555 1_555
C10 C11 1_555 1_555
C11 C13 1_555 1_555
C12 C10 1_555 1_555
H7 C12 1_555 1_555
C13 O2 1_555 1_555
C14 H8 1_555 1_555
C15 C14 1_555 1_555
C16 C14 1_555 1_555
C17 C15 1_555 1_555
C18 C16 1_555 1_555
N1 H9 1_555 1_555
H10 N1 1_555 1_555
N2 C1 1_555 1_555
N3 C1 1_555 1_555
N4 H11 1_555 1_555
H12 N4 1_555 1_555
N5 C5 1_555 1_555
N6 C5 1_555 1_555
O1 H13 1_555 1_555
H14 O1 1_555 1_555
O2 Ag2 1_555 1_555
O3 H15 1_555 1_555
H16 O3 1_555 1_555
O4 Ag1 1_555 1_555
O5 C9 1_555 1_555
O6 C9 1_555 1_555
O7 Ag1 1_555 1_555
O8 Ag2 1_555 1_555
O9 C18 1_555 1_555
O10 C18 1_555 1_555
Ag1A N5A 1_555 1_555
Ag1A_2 O9 1_555 1_555
Ag1A_3 O7A 1_555 1_555
Ag1_2 O9A 1_555 1_555
Ag2A N2A_2 1_555 1_555
Ag2A_2 O10 1_555 1_555
Ag2A_3 O8A 1_555 1_555
Ag2_2 O10A 1_555 1_555
Ag2A_4 N2A 1_555 1_555
Ag3A O5 1_555 1_555
Ag3A_2 O8 1_555 1_555
Ag3_2 O5A 1_555 1_555
Ag3_3 O8A 1_555 1_555
Ag3A_3 N6A 1_555 1_555
Ag4A N3_2 1_555 1_555
Ag4A_2 N3 1_555 1_555
C1A N1A 1_555 1_555
C2A H1A 1_555 1_555
C3A C2A 1_555 1_555
H2A C3A 1_555 1_555
C4A C3A 1_555 1_555
H3A C4A 1_555 1_555
C5A N4A 1_555 1_555
C6A H4A 1_555 1_555
C7A C6A 1_555 1_555
H5A C7A 1_555 1_555
C8A C7A 1_555 1_555
H6A C8A 1_555 1_555
C9A C10A 1_555 1_555
C10A C11A 1_555 1_555
C11A C12 1_555 1_555
C12A C11 1_555 1_555
H7A C12A 1_555 1_555
C13A C11A 1_555 1_555
C14A H8A 1_555 1_555
C15A C16 1_555 1_555
C16A C15 1_555 1_555
C17A C15A 1_555 1_555
C18A C16A 1_555 1_555
N1A H9A 1_555 1_555
H10A N1A 1_555 1_555
N2A C1A 1_555 1_555
N3A Ag4 1_555 1_555
N4A H11A 1_555 1_555
H12A N4A 1_555 1_555
N5A C5A 1_555 1_555
N6A C5A 1_555 1_555
N6A_2 Ag3A 1_555 1_555
O2A Ag2A 1_555 1_555
O4A Ag1A 1_555 1_555
O5A Ag4A 1_555 1_555
O5A_2 Ag3 1_555 1_555
O6A C9A 1_555 1_555
O7A C17A 1_555 1_555
O7A_2 Ag1A 1_555 1_555
O8A C17A 1_555 1_555
O8A_2 Ag3 1_555 1_555
O8A_3 Ag2A 1_555 1_555
O8_2 Ag3A 1_555 1_555
O9A C18A 1_555 1_555
O9A_2 Ag1 1_555 1_555
O9_2 Ag1A 1_555 1_555
O10A C18A 1_555 1_555
O10A_2 Ag2 1_555 1_555
O10_2 Ag2A 1_555 1_555
C2 N3 1_555 1_555
C4 N2 1_555 1_555
C6 N6 1_555 1_555
C8 N5 1_555 1_555
C13 O4 1_555 1_555
C17 O7 1_555 1_555
C17 O8 1_555 1_555
C1A N3A 1_555 1_555
C2A N3A 1_555 1_555
C4A N2A 1_555 1_555
C6A N6A 1_555 1_555
C8A N5A 1_555 1_555
C9A O5A 1_555 1_555
C10A C12A 1_555 1_555
C13A O2A 1_555 1_555
C13A O4A 1_555 1_555
C14A C15A 1_555 1_555
C14A C16A 1_555 1_555

#END
