
#######################################################################
#
#                 Cambridge Crystallographic Data Centre
#                                CCDC 
#
#######################################################################
#
# If this CIF has been generated from an entry in the Cambridge 
# Structural Database, then it will include bibliographic, chemical, 
# crystal, experimental, refinement or atomic coordinate data resulting 
# from the CCDC's data processing and validation procedures.
#
#######################################################################

data_LURDAF
_symmetry_cell_setting           triclinic
_symmetry_space_group_name_H-M   'P -1'
_symmetry_Int_Tables_number      2
_space_group_name_Hall           '-P 1'
loop_
_symmetry_equiv_pos_site_id
_symmetry_equiv_pos_as_xyz
1 x,y,z
2 -x,-y,-z
_cell_length_a                   6.3689
_cell_length_b                   7.4984
_cell_length_c                   18.6977
_cell_angle_alpha                83.8320
_cell_angle_beta                 83.4460
_cell_angle_gamma                84.6060
_cell_volume                     878.942
loop_
_atom_site_label
_atom_site_type_symbol
_atom_site_fract_x
_atom_site_fract_y
_atom_site_fract_z
I1 I 0.45666(11) 0.25356(9) 0.06631(3)
I2 I 0.01306(11) 0.66686(9) 0.08098(3)
K1 K -0.3553(4) 0.2970(3) 0.39021(11)
K2 K 0.1182(4) 0.2415(3) 0.50982(10)
O1 O 0.3380(12) 0.1046(9) 0.3707(3)
O2 O 0.0015(11) 0.0466(8) 0.4024(3)
O3 O 0.2698(10) 0.5317(8) 0.4221(3)
O4 O -0.0445(11) 0.5035(9) 0.3837(4)
O5 O 0.5448(12) 0.1942(9) 0.5339(3)
C1 C 0.1528(16) 0.0840(12) 0.3555(5)
C2 C 0.1120(16) 0.1044(12) 0.2769(5)
C3 C 0.2627(16) 0.1662(13) 0.2229(5)
C4 C 0.2253(18) 0.1829(13) 0.1513(5)
C5 C 0.0271(19) 0.1420(13) 0.1324(5)
C6 C -0.1231(18) 0.0850(13) 0.1864(5)
C7 C -0.0824(17) 0.0641(12) 0.2580(5)
C8 C 0.1434(16) 0.5412(11) 0.3719(4)
C9 C 0.2352(16) 0.6005(12) 0.2959(5)
C10 C 0.1150(17) 0.6034(13) 0.2375(5)
C11 C 0.1926(17) 0.6605(14) 0.1693(5)
C12 C 0.4012(18) 0.7212(12) 0.1552(6)
C13 C 0.5190(19) 0.7175(14) 0.2119(6)
C14 C 0.4375(16) 0.6622(12) 0.2815(5)
H1 H 0.39392 0.1977 0.2355
H2 H -0.0011 0.15389 0.0832
H3 H -0.25733 0.05944 0.17435
H4 H -0.18742 0.02205 0.29452
H5 H -0.02411 0.56432 0.24592
H6 H 0.45605 0.76306 0.10762
H7 H 0.65946 0.7536 0.20336
H8 H 0.52048 0.66618 0.32033
K1_2 K 0.6447(4) 0.2970(3) 0.39021(11)
K2A K -0.1182(4) -0.2415(3) 0.49018(10)
K2A_2 K -0.1182(4) 0.7585(3) 0.49018(10)
O1_2 O -0.6620(12) 0.1046(9) 0.3707(3)
O2A O -0.0015(11) -0.0466(8) 0.5976(3)
O3_2 O -0.7302(10) 0.5317(8) 0.4221(3)
O3A O -0.2698(10) 0.4683(8) 0.5779(3)
O4A O 0.0445(11) 0.4965(9) 0.6163(4)
O5_2 O -0.4552(12) 0.1942(9) 0.5339(3)
loop_
_geom_bond_atom_site_label_1
_geom_bond_atom_site_label_2
_geom_bond_site_symmetry_1
_geom_bond_site_symmetry_2
I1 C4 1_555 1_555
I2 C11 1_555 1_555
K1 O2 1_555 1_555
K2 O1 1_555 1_555
O1 C1 1_555 1_555
O2 K2 1_555 1_555
O3 K2 1_555 1_555
O4 K1 1_555 1_555
O5 K2 1_555 1_555
C1 O2 1_555 1_555
C2 C1 1_555 1_555
C3 C2 1_555 1_555
C4 C3 1_555 1_555
C5 C4 1_555 1_555
C6 C5 1_555 1_555
C7 C2 1_555 1_555
C8 O3 1_555 1_555
C9 C8 1_555 1_555
C10 C9 1_555 1_555
C11 C10 1_555 1_555
C12 C11 1_555 1_555
C13 C12 1_555 1_555
C14 C9 1_555 1_555
H1 C3 1_555 1_555
H2 C5 1_555 1_555
H3 C6 1_555 1_555
H4 C7 1_555 1_555
H5 C10 1_555 1_555
H6 C12 1_555 1_555
H7 C13 1_555 1_555
H8 C14 1_555 1_555
K1_2 O1 1_555 1_555
K2A O2 1_555 1_555
K2A_2 O3 1_555 1_555
O1_2 K1 1_555 1_555
O2A K2 1_555 1_555
O3_2 K1 1_555 1_555
O3A K2 1_555 1_555
O4A K2 1_555 1_555
O5_2 K1 1_555 1_555
K2 O4 1_555 1_555
O3 K1_2 1_555 1_555
O4 C8 1_555 1_555
O4 K2A_2 1_555 1_555
O5 K1_2 1_555 1_555
C6 C7 1_555 1_555
C13 C14 1_555 1_555
K2A O2A 1_555 1_555
K2A_2 O3A 1_555 1_555
K2A_2 O4A 1_555 1_555

#END
