
#######################################################################
#
#                 Cambridge Crystallographic Data Centre
#                                CCDC 
#
#######################################################################
#
# If this CIF has been generated from an entry in the Cambridge 
# Structural Database, then it will include bibliographic, chemical, 
# crystal, experimental, refinement or atomic coordinate data resulting 
# from the CCDC's data processing and validation procedures.
#
#######################################################################

data_LURDEI
_symmetry_cell_setting           triclinic
_symmetry_space_group_name_H-M   'P -1'
_symmetry_Int_Tables_number      2
_space_group_name_Hall           '-P 1'
loop_
_symmetry_equiv_pos_site_id
_symmetry_equiv_pos_as_xyz
1 x,y,z
2 -x,-y,-z
_cell_length_a                   6.9807(14)
_cell_length_b                   9.1849(18)
_cell_length_c                   11.711(2)
_cell_angle_alpha                98.31(3)
_cell_angle_beta                 99.86(3)
_cell_angle_gamma                101.91(3)
_cell_volume                     711.147
loop_
_atom_site_label
_atom_site_type_symbol
_atom_site_fract_x
_atom_site_fract_y
_atom_site_fract_z
Ag1 Ag 0.91275(18) -0.04847(13) 0.26625(9)
Ag2 Ag 0.3895(2) -0.1539(2) -0.33244(11)
C1 C 0.545(3) -0.243(2) -0.0931(15)
H1 H 0.4625 -0.3383 -0.1266
C2 C 1.349(2) 0.2677(15) 0.6273(12)
C3 C 0.687(3) -0.002(2) -0.1043(15)
H2 H 0.7106 0.0763 -0.1464
C4 C 1.5886(19) 0.5034(14) 0.6157(12)
H3 H 1.6468 0.5042 0.6934
C5 C 0.780(2) 0.0185(17) 0.0124(13)
C6 C 1.3346(19) 0.3768(14) 0.4379(13)
C7 C 0.643(2) -0.2190(18) 0.0194(13)
H4 H 0.6289 -0.2989 0.0603
C8 C 1.171(2) 0.2491(16) 0.3721(12)
C9 C 1.4259(19) 0.3809(15) 0.5565(11)
N1 N 0.875(3) 0.151(3) 0.054(2)
H5 H 0.9314 0.1759 0.1278
H6 H 0.8850 0.2175 0.0096
N2 N 0.559(2) -0.138(2) -0.1575(11)
N3 N 0.7624(18) -0.0824(13) 0.0760(10)
O1 O 1.1823(16) 0.1192(11) 0.3882(9)
O3 O 1.0350(16) 0.2749(13) 0.2999(11)
O4 O 0.2473(19) -0.1523(16) -0.5053(11)
H9 H 0.1948 -0.0815 -0.5250
H10 H 0.3047 -0.1813 -0.5599
O5 O 1.1757(15) 0.2495(12) 0.6389(10)
O6 O 1.4668(18) 0.1922(14) 0.6716(12)
Ag1A Ag 2.08725(18) 1.04847(13) 0.73375(9)
Ag1A_2 Ag 1.08725(18) 0.04847(13) 0.73375(9)
Ag1_2 Ag 1.91275(18) 0.95153(13) 0.26625(9)
Ag2A Ag 2.6105(2) 1.1539(2) 1.33244(11)
C1A C 2.455(3) 1.243(2) 1.0931(15)
H1A H 2.5375 1.3383 1.1266
C2A C 1.651(2) 0.7323(15) 0.3727(12)
C3A C 2.313(3) 1.002(2) 1.1043(15)
H2A H 2.2894 0.9237 1.1464
C4A C 1.4114(19) 0.4966(14) 0.3843(12)
H3A H 1.3532 0.4958 0.3066
C5A C 2.220(2) 0.9815(17) 0.9876(13)
C6A C 1.6654(19) 0.6232(14) 0.5621(13)
C7A C 2.357(2) 1.2190(18) 0.9806(13)
H4A H 2.3711 1.2989 0.9397
C8A C 1.829(2) 0.7509(16) 0.6279(12)
C9A C 1.5741(19) 0.6191(15) 0.4435(11)
N1A N 2.125(3) 0.849(3) 0.946(2)
H5A H 2.0686 0.8241 0.8722
H6A H 2.1150 0.7825 0.9904
N2A N 2.441(2) 1.138(2) 1.1575(11)
N3A N 2.2376(18) 1.0824(13) 0.9240(10)
O1A O 1.8177(16) 0.8808(11) 0.6118(9)
O3A O 1.9650(16) 0.7251(13) 0.7001(11)
O4A O 2.7527(19) 1.1523(16) 1.5053(11)
H9A H 2.8052 1.0815 1.5250
H10A H 2.6953 1.1813 1.5599
O5A O 1.8243(15) 0.7505(12) 0.3611(10)
O5A_2 O 0.8243(15) -0.2495(12) 0.3611(10)
O5_2 O 2.1757(15) 1.2495(12) 0.6389(10)
O6A O 1.5332(18) 0.8078(14) 0.3284(12)
O2 O 0.901(2) 0.5026(16) 0.2228(14)
H7 H 0.9430 0.4374 0.2585
H8 H 0.9054 0.5790 0.2745
loop_
_geom_bond_atom_site_label_1
_geom_bond_atom_site_label_2
_geom_bond_site_symmetry_1
_geom_bond_site_symmetry_2
Ag1 N3 1_555 1_555
Ag2 N2 1_555 1_555
C1 H1 1_555 1_555
C2 C9 1_555 1_555
C3 H2 1_555 1_555
C4 H3 1_555 1_555
C5 C3 1_555 1_555
C6 C8 1_555 1_555
C7 C1 1_555 1_555
H4 C7 1_555 1_555
C8 O1 1_555 1_555
C9 C4 1_555 1_555
N1 C5 1_555 1_555
H5 N1 1_555 1_555
H6 N1 1_555 1_555
N2 C1 1_555 1_555
N3 C5 1_555 1_555
O1 Ag1 1_555 1_555
O2 H7 1_555 1_555
H8 O2 1_555 1_555
O3 C8 1_555 1_555
O4 Ag2 1_555 1_555
H9 O4 1_555 1_555
H10 O4 1_555 1_555
O5 C2 1_555 1_555
O6 C2 1_555 1_555
Ag1A N3A 1_555 1_555
Ag1A_2 O5 1_555 1_555
Ag1_2 O5A 1_555 1_555
Ag2A N2A 1_555 1_555
C1A H1A 1_555 1_555
C2A C9A 1_555 1_555
C3A H2A 1_555 1_555
C4A C6 1_555 1_555
H3A C4A 1_555 1_555
C5A C3A 1_555 1_555
C6A C4 1_555 1_555
C7A C1A 1_555 1_555
H4A C7A 1_555 1_555
C8A C6A 1_555 1_555
C9A C4A 1_555 1_555
N1A C5A 1_555 1_555
H5A N1A 1_555 1_555
H6A N1A 1_555 1_555
N2A C1A 1_555 1_555
N3A C5A 1_555 1_555
O1A Ag1A 1_555 1_555
O3A C8A 1_555 1_555
O4A Ag2A 1_555 1_555
H9A O4A 1_555 1_555
H10A O4A 1_555 1_555
O5A C2A 1_555 1_555
O5A_2 Ag1 1_555 1_555
O5_2 Ag1A 1_555 1_555
O6A C2A 1_555 1_555
C3 N2 1_555 1_555
C6 C9 1_555 1_555
C7 N3 1_555 1_555
C3A N2A 1_555 1_555
C6A C9A 1_555 1_555
C7A N3A 1_555 1_555
C8A O1A 1_555 1_555

#END
