
#######################################################################
#
#                 Cambridge Crystallographic Data Centre
#                                CCDC 
#
#######################################################################
#
# If this CIF has been generated from an entry in the Cambridge 
# Structural Database, then it will include bibliographic, chemical, 
# crystal, experimental, refinement or atomic coordinate data resulting 
# from the CCDC's data processing and validation procedures.
#
#######################################################################

data_LURDAE
_symmetry_cell_setting           triclinic
_symmetry_space_group_name_H-M   'P -1'
_symmetry_Int_Tables_number      2
_space_group_name_Hall           '-P 1'
loop_
_symmetry_equiv_pos_site_id
_symmetry_equiv_pos_as_xyz
1 x,y,z
2 -x,-y,-z
_cell_length_a                   6.729(3)
_cell_length_b                   7.1850(17)
_cell_length_c                   12.871(8)
_cell_angle_alpha                95.01(3)
_cell_angle_beta                 94.88(5)
_cell_angle_gamma                103.12(3)
_cell_volume                     600.187
loop_
_atom_site_label
_atom_site_type_symbol
_atom_site_fract_x
_atom_site_fract_y
_atom_site_fract_z
Ag1 Ag 0.2456(2) 0.04989(13) 0.55405(10)
C1 C 0.231(2) -0.3672(18) 0.4515(10)
C2 C 0.233(2) -0.570(2) 0.4543(10)
H1 H 0.2148 -0.6502 0.3917
C3 C 0.314(3) -0.520(2) 0.6319(14)
H2 H 0.3540 -0.5660 0.6937
C4 C 0.310(3) -0.329(2) 0.6325(12)
H3 H 0.3286 -0.2522 0.6962
C5 C 0.105(3) 0.1678(18) 0.9596(12)
H4 H 0.1762 0.2766 0.9328
C6 C 0.022(3) -0.0034(18) 0.8920(11)
C7 C -0.080(2) -0.1741(18) 0.9328(11)
C8 C 0.023(3) 0.0026(17) 0.7749(11)
C9 C -0.156(2) -0.3624(18) 0.8623(11)
N1 N 0.217(2) -0.2937(17) 0.3577(9)
H5 H 0.2390 -0.1714 0.3560
H6 H 0.1865 -0.3697 0.3003
N2 N 0.279(2) -0.2513(14) 0.5424(9)
N3 N 0.259(2) -0.6409(16) 0.5419(10)
O1 O 0.2019(19) 0.0684(15) 0.7450(8)
O3 O -0.134(2) -0.0477(15) 0.7168(8)
O5 O -0.0201(19) -0.4224(15) 0.8155(9)
H11 H 0.0981 -0.3666 0.8460
O6 O -0.330(2) -0.4514(15) 0.8580(10)
Ag1A Ag -0.2456(2) -0.04989(13) 1.44595(10)
Ag1_2 Ag 0.2456(2) -0.95011(13) 0.55405(10)
Ag1A_2 Ag -0.2456(2) 0.95011(13) 1.44595(10)
C1A C -0.231(2) 0.3672(18) 1.5485(10)
C2A C -0.233(2) 0.570(2) 1.5457(10)
H1A H -0.2148 0.6502 1.6083
C3A C -0.314(3) 0.520(2) 1.3681(14)
H2A H -0.3540 0.5660 1.3063
C4A C -0.310(3) 0.329(2) 1.3675(12)
H3A H -0.3286 0.2522 1.3038
C5A C -0.105(3) -0.1678(18) 1.0404(12)
H4A H -0.1762 -0.2766 1.0672
C6A C -0.022(3) 0.0034(18) 1.1080(11)
C7A C 0.080(2) 0.1741(18) 1.0672(11)
C8A C -0.023(3) -0.0026(17) 1.2251(11)
C9A C 0.156(2) 0.3624(18) 1.1377(11)
N1A N -0.217(2) 0.2937(17) 1.6423(9)
H5A H -0.2390 0.1714 1.6440
H6A H -0.1865 0.3697 1.6997
N2A N -0.279(2) 0.2513(14) 1.4576(9)
N3A N -0.259(2) 0.6409(16) 1.4581(10)
N3_2 N 0.259(2) 0.3591(16) 0.5419(10)
N3A_2 N -0.259(2) -0.3591(16) 1.4581(10)
O1A O -0.2019(19) -0.0684(15) 1.2550(8)
O3A O 0.134(2) 0.0477(15) 1.2832(8)
O5A O 0.0201(19) 0.4224(15) 1.1845(9)
H11A H -0.0981 0.3666 1.1540
O6A O 0.330(2) 0.4514(15) 1.1420(10)
O2 O 0.590(2) 0.1515(18) 0.8634(11)
H7 H 0.4729 0.1135 0.8279
H8 H 0.6268 0.2731 0.8649
O4 O 0.622(2) 0.2423(18) 1.0904(10)
H9 H 0.5330 0.3049 1.1057
H10 H 0.6100 0.2162 1.0242
loop_
_geom_bond_atom_site_label_1
_geom_bond_atom_site_label_2
_geom_bond_site_symmetry_1
_geom_bond_site_symmetry_2
Ag1 N2 1_555 1_555
C1 C2 1_555 1_555
C2 H1 1_555 1_555
C3 H2 1_555 1_555
C4 C3 1_555 1_555
H3 C4 1_555 1_555
C5 H4 1_555 1_555
C6 C5 1_555 1_555
C7 C6 1_555 1_555
C8 C6 1_555 1_555
C9 C7 1_555 1_555
N1 C1 1_555 1_555
H5 N1 1_555 1_555
H6 N1 1_555 1_555
N2 C1 1_555 1_555
N3 C2 1_555 1_555
O1 Ag1 1_555 1_555
O2 H7 1_555 1_555
H8 O2 1_555 1_555
O3 C8 1_555 1_555
O4 H9 1_555 1_555
H10 O4 1_555 1_555
O5 C9 1_555 1_555
H11 O5 1_555 1_555
O6 C9 1_555 1_555
Ag1A N2A 1_555 1_555
Ag1_2 N3 1_555 1_555
Ag1A_2 N3A 1_555 1_555
C1A C2A 1_555 1_555
C2A H1A 1_555 1_555
C3A H2A 1_555 1_555
C4A C3A 1_555 1_555
H3A C4A 1_555 1_555
C5A C7 1_555 1_555
H4A C5A 1_555 1_555
C6A C5A 1_555 1_555
C7A C5 1_555 1_555
C8A C6A 1_555 1_555
C9A C7A 1_555 1_555
N1A C1A 1_555 1_555
H5A N1A 1_555 1_555
H6A N1A 1_555 1_555
N2A C1A 1_555 1_555
N3A C2A 1_555 1_555
N3_2 Ag1 1_555 1_555
N3A_2 Ag1A 1_555 1_555
O1A Ag1A 1_555 1_555
O3A C8A 1_555 1_555
O5A C9A 1_555 1_555
H11A O5A 1_555 1_555
O6A C9A 1_555 1_555
C3 N3 1_555 1_555
C4 N2 1_555 1_555
C8 O1 1_555 1_555
C3A N3A 1_555 1_555
C4A N2A 1_555 1_555
C6A C7A 1_555 1_555
C8A O1A 1_555 1_555

#END
