
#######################################################################
#
#                 Cambridge Crystallographic Data Centre
#                                CCDC 
#
#######################################################################
#
# If this CIF has been generated from an entry in the Cambridge 
# Structural Database, then it will include bibliographic, chemical, 
# crystal, experimental, refinement or atomic coordinate data resulting 
# from the CCDC's data processing and validation procedures.
#
#######################################################################

data_LURDIN
_symmetry_cell_setting           monoclinic
_symmetry_space_group_name_H-M   'P 21/c'
_symmetry_Int_Tables_number      14
_space_group_name_Hall           '-P 2ybc'
loop_
_symmetry_equiv_pos_site_id
_symmetry_equiv_pos_as_xyz
1 x,y,z
2 -x,1/2+y,1/2-z
3 -x,-y,-z
4 x,1/2-y,1/2+z
_cell_length_a                   19.6351(3)
_cell_length_b                   4.13863(10)
_cell_length_c                   12.4789(2)
_cell_angle_alpha                90
_cell_angle_beta                 106.5180(10)
_cell_angle_gamma                90
_cell_volume                     972.216
loop_
_atom_site_label
_atom_site_type_symbol
_atom_site_fract_x
_atom_site_fract_y
_atom_site_fract_z
Cs1 Cs 0.40328(4) 0.7196(2) 0.33753(7)
I1 I 0.05926(4) 0.8307(2) -0.13006(7)
O1 O 0.3770(6) 0.214(3) 0.1318(9)
O2 O 0.3307(6) 0.289(2) -0.0531(8)
O3 O 0.4688(5) 0.737(3) 0.1076(8)
C1 C 0.3263(8) 0.284(4) 0.0450(12)
C2 C 0.2556(7) 0.374(4) 0.0639(11)
C3 C 0.2044(7) 0.524(4) -0.0227(11)
C4 C 0.1406(7) 0.613(4) -0.0018(11)
C5 C 0.1273(7) 0.558(4) 0.1003(11)
C6 C 0.1789(7) 0.405(4) 0.1850(12)
C7 C 0.2425(8) 0.314(4) 0.1650(13)
H1 H 0.21253 0.5649 -0.09295
H2 H 0.08357 0.62314 0.11203
H3 H 0.17084 0.36286 0.25529
H4 H 0.27783 0.209 0.22246
Cs1_2 Cs 0.40328(4) -0.2804(2) 0.33753(7)
Cs1A Cs 0.59672(4) 0.2196(2) 0.16247(7)
Cs1A_2 Cs 0.59672(4) 1.2196(2) 0.16247(7)
Cs1C Cs 0.40328(4) -0.2196(2) -0.16247(7)
Cs1C_2 Cs 0.40328(4) 0.7804(2) -0.16247(7)
O1_2 O 0.3770(6) 1.214(3) 0.1318(9)
O2C O 0.3307(6) 0.211(2) 0.4469(8)
O2C_2 O 0.3307(6) 1.211(2) 0.4469(8)
O3A O 0.5312(5) 0.237(3) 0.3924(8)
O3A_2 O 0.5312(5) 1.237(3) 0.3924(8)
O3C O 0.4688(5) 0.763(3) 0.6076(8)
loop_
_geom_bond_atom_site_label_1
_geom_bond_atom_site_label_2
_geom_bond_site_symmetry_1
_geom_bond_site_symmetry_2
Cs1 O1 1_555 1_555
I1 C4 1_555 1_555
O1 C1 1_555 1_555
O2 C1 1_555 1_555
O3 Cs1 1_555 1_555
C1 C2 1_555 1_555
C2 C3 1_555 1_555
C3 C4 1_555 1_555
C4 C5 1_555 1_555
C5 C6 1_555 1_555
C6 C7 1_555 1_555
C7 C2 1_555 1_555
H1 C3 1_555 1_555
H2 C5 1_555 1_555
H3 C6 1_555 1_555
H4 C7 1_555 1_555
Cs1_2 O1 1_555 1_555
Cs1A O3 1_555 1_555
Cs1A_2 O3 1_555 1_555
Cs1C O2 1_555 1_555
Cs1C_2 O2 1_555 1_555
O1_2 Cs1 1_555 1_555
O2C Cs1 1_555 1_555
O2C_2 Cs1 1_555 1_555
O3A Cs1 1_555 1_555
O3A_2 Cs1 1_555 1_555
O3C Cs1 1_555 1_555
O3 Cs1C_2 1_555 1_555
Cs1_2 O2C 1_555 1_555
Cs1_2 O3A 1_555 1_555
Cs1A O3A 1_555 1_555
Cs1A_2 O3A_2 1_555 1_555

#END
