
#######################################################################
#
#                 Cambridge Crystallographic Data Centre
#                                CCDC 
#
#######################################################################
#
# If this CIF has been generated from an entry in the Cambridge 
# Structural Database, then it will include bibliographic, chemical, 
# crystal, experimental, refinement or atomic coordinate data resulting 
# from the CCDC's data processing and validation procedures.
#
#######################################################################

data_LURDOR
_symmetry_cell_setting           monoclinic
_symmetry_space_group_name_H-M   'P 21/n'
_symmetry_Int_Tables_number      14
_space_group_name_Hall           '-P 2yn'
loop_
_symmetry_equiv_pos_site_id
_symmetry_equiv_pos_as_xyz
1 x,y,z
2 1/2+x,1/2-y,1/2+z
3 -x,-y,-z
4 1/2-x,1/2+y,1/2-z
_cell_length_a                   10.45(1)
_cell_length_b                   7.565(7)
_cell_length_c                   15.61(2)
_cell_angle_alpha                90
_cell_angle_beta                 103.45(1)
_cell_angle_gamma                90
_cell_volume                     1200.19
loop_
_atom_site_label
_atom_site_type_symbol
_atom_site_fract_x
_atom_site_fract_y
_atom_site_fract_z
Cu1 Cu 0.7152(1) -0.1389(2) 0.3391(1)
Cu2 Cu 0.5421(1) 0.0512(2) 0.40906(10)
O1 O 0.5738(7) -0.151(1) 0.4924(5)
O2 O 0.7100(8) -0.306(1) 0.4326(6)
O3 O 0.6960(8) 0.194(1) 0.4613(6)
O4 O 0.8349(7) 0.0462(10) 0.4025(5)
O5 O 1.1229(9) -0.833(1) 0.2247(7)
O6 O 0.8853(8) -0.232(1) 0.2830(6)
C1 C 1.058(1) -0.698(2) 0.2263(8)
C2 C 1.101(1) -0.521(2) 0.1982(8)
C3 C 1.041(1) -0.361(2) 0.2151(8)
C4 C 0.928(1) -0.370(2) 0.2620(8)
C5 C 0.875(1) -0.548(2) 0.2813(8)
C6 C 0.938(1) -0.699(2) 0.2643(8)
C7 C 0.647(1) -0.284(2) 0.4904(7)
C8 C 0.659(1) -0.419(2) 0.5612(9)
C9 C 0.808(1) 0.162(1) 0.4511(8)
C10 C 0.919(1) 0.269(2) 0.5033(10)
H1 H 0.6073 -0.3851 0.6012
H2 H 0.6340 -0.5313 0.5379
H3 H 0.7501 -0.4234 0.5938
H4 H 0.9236 0.2525 0.5654
H5 H 1.0000 0.2322 0.4918
H6 H 0.9045 0.3900 0.4897
C5C C 0.625(1) -0.048(2) 0.2187(8)
C6C C 0.562(1) -0.199(2) 0.2357(8)
O1B O 0.4262(7) 0.151(1) 0.5076(5)
C2C C 0.399(1) -0.021(2) 0.3018(8)
C3C C 0.459(1) 0.139(2) 0.2849(8)
Cu2B Cu 0.4579(1) -0.0512(2) 0.59094(10)
Cu2C Cu 0.9579(1) -0.4488(2) 0.09094(10)
Cu1C Cu 0.7848(1) -0.6389(2) 0.1609(1)
loop_
_geom_bond_atom_site_label_1
_geom_bond_atom_site_label_2
_geom_bond_site_symmetry_1
_geom_bond_site_symmetry_2
Cu1 Cu2 1_555 1_555
Cu2 O1 1_555 1_555
O1 C7 1_555 1_555
O2 Cu1 1_555 1_555
O3 Cu2 1_555 1_555
O4 Cu1 1_555 1_555
O5 C1 1_555 1_555
O6 Cu1 1_555 1_555
C1 C2 1_555 1_555
C2 C3 1_555 1_555
C3 C4 1_555 1_555
C4 O6 1_555 1_555
C5 C4 1_555 1_555
C6 C1 1_555 1_555
C7 O2 1_555 1_555
C8 C7 1_555 1_555
C9 O3 1_555 1_555
C10 C9 1_555 1_555
H1 C8 1_555 1_555
H2 C8 1_555 1_555
H3 C8 1_555 1_555
H4 C10 1_555 1_555
H5 C10 1_555 1_555
H6 C10 1_555 1_555
C5C Cu1 1_555 1_555
C6C Cu1 1_555 1_555
O1B Cu2 1_555 1_555
C2C Cu2 1_555 1_555
C3C Cu2 1_555 1_555
Cu2B O1 1_555 1_555
Cu2C C2 1_555 1_555
Cu1C C5 1_555 1_555
O4 C9 1_555 1_555
C3 Cu2C 1_555 1_555
C5 C6 1_555 1_555
C6 Cu1C 1_555 1_555
C5C C6C 1_555 1_555
O1B Cu2B 1_555 1_555
C2C C3C 1_555 1_555
Cu2C Cu1C 1_555 1_555

#END
