
#######################################################################
#
#                 Cambridge Crystallographic Data Centre
#                                CCDC 
#
#######################################################################
#
# If this CIF has been generated from an entry in the Cambridge 
# Structural Database, then it will include bibliographic, chemical, 
# crystal, experimental, refinement or atomic coordinate data resulting 
# from the CCDC's data processing and validation procedures.
#
#######################################################################

data_LURDOR01
_symmetry_cell_setting           monoclinic
_symmetry_space_group_name_H-M   'P 21/n'
_symmetry_Int_Tables_number      14
_space_group_name_Hall           '-P 2yn'
loop_
_symmetry_equiv_pos_site_id
_symmetry_equiv_pos_as_xyz
1 x,y,z
2 1/2+x,1/2-y,1/2+z
3 -x,-y,-z
4 1/2-x,1/2+y,1/2-z
_cell_length_a                   10.403(4)
_cell_length_b                   7.540(2)
_cell_length_c                   15.543(5)
_cell_angle_alpha                90
_cell_angle_beta                 103.661(7)
_cell_angle_gamma                90
_cell_volume                     1184.68
loop_
_atom_site_label
_atom_site_type_symbol
_atom_site_fract_x
_atom_site_fract_y
_atom_site_fract_z
Cu1 Cu 0.28458(4) 0.35994(5) 0.66081(3)
Cu2 Cu 0.45819(4) 0.55049(5) 0.59129(3)
O1 O 0.4264(3) 0.3489(3) 0.5065(2)
O2 O 0.2903(3) 0.1908(3) 0.5668(2)
O3 O 0.3054(3) 0.6933(3) 0.5388(2)
O4 O 0.1635(3) 0.5404(3) 0.5979(2)
O5 O -0.1236(3) -0.3319(4) 0.7762(2)
O6 O 0.1134(3) 0.2687(4) 0.7154(2)
C1 C -0.0582(4) -0.1991(5) 0.7736(2)
C2 C -0.1001(3) -0.0239(5) 0.8026(2)
C3 C -0.0406(4) 0.1325(5) 0.7841(2)
C4 C 0.0703(3) 0.1286(5) 0.7378(2)
C5 C 0.1217(4) -0.0453(5) 0.7189(2)
C6 C 0.0633(4) -0.2033(5) 0.7368(2)
C7 C 0.3541(3) 0.2152(4) 0.5091(2)
C8 C 0.3428(5) 0.0792(5) 0.4367(3)
C9 C 0.1909(4) 0.6600(4) 0.5480(2)
C10 C 0.0793(4) 0.7677(6) 0.4963(3)
H1 H 0.2868 -0.0152 0.4459
H2 H 0.3088 0.1317 0.3809
H3 H 0.4290 0.0312 0.4383
H4 H 0.0345 0.8263 0.5357
H5 H 0.1098 0.8533 0.4616
H6 H 0.0165 0.6917 0.4582
C5C C 0.3783(4) 0.4547(5) 0.7811(2)
C6C C 0.4367(4) 0.2967(5) 0.7632(2)
Cu2B Cu 0.54181(4) 0.44951(5) 0.40871(3)
O1B O 0.5736(3) 0.6511(3) 0.4935(2)
C2C C 0.6001(3) 0.4761(5) 0.6974(2)
C3C C 0.5406(4) 0.6325(5) 0.7159(2)
Cu2C Cu 0.04181(4) 0.05049(5) 0.90871(3)
Cu1C Cu 0.21542(4) -0.14006(5) 0.83919(3)
loop_
_geom_bond_atom_site_label_1
_geom_bond_atom_site_label_2
_geom_bond_site_symmetry_1
_geom_bond_site_symmetry_2
Cu1 Cu2 1_555 1_555
Cu2 O1 1_555 1_555
O1 C7 1_555 1_555
O2 Cu1 1_555 1_555
O3 Cu2 1_555 1_555
O4 Cu1 1_555 1_555
O5 C1 1_555 1_555
O6 Cu1 1_555 1_555
C1 C2 1_555 1_555
C2 C3 1_555 1_555
C3 C4 1_555 1_555
C4 O6 1_555 1_555
C5 C4 1_555 1_555
C6 C1 1_555 1_555
C7 O2 1_555 1_555
C8 C7 1_555 1_555
C9 O3 1_555 1_555
C10 C9 1_555 1_555
H1 C8 1_555 1_555
H2 C8 1_555 1_555
H3 C8 1_555 1_555
H4 C10 1_555 1_555
H5 C10 1_555 1_555
H6 C10 1_555 1_555
C5C Cu1 1_555 1_555
C6C Cu1 1_555 1_555
Cu2B Cu2 1_555 1_555
O1B Cu2 1_555 1_555
C2C Cu2 1_555 1_555
C3C Cu2 1_555 1_555
Cu2C C2 1_555 1_555
Cu1C C5 1_555 1_555
O1 Cu2B 1_555 1_555
O4 C9 1_555 1_555
C3 Cu2C 1_555 1_555
C5 C6 1_555 1_555
C6 Cu1C 1_555 1_555
C5C C6C 1_555 1_555
Cu2B O1B 1_555 1_555
C2C C3C 1_555 1_555
Cu2C Cu1C 1_555 1_555

#END
