
#######################################################################
#
#                 Cambridge Crystallographic Data Centre
#                                CCDC 
#
#######################################################################
#
# If this CIF has been generated from an entry in the Cambridge 
# Structural Database, then it will include bibliographic, chemical, 
# crystal, experimental, refinement or atomic coordinate data resulting 
# from the CCDC's data processing and validation procedures.
#
#######################################################################

data_LURGAH
_symmetry_cell_setting           monoclinic
_symmetry_space_group_name_H-M   'P 21/c'
_symmetry_Int_Tables_number      14
_space_group_name_Hall           '-P 2ybc'
loop_
_symmetry_equiv_pos_site_id
_symmetry_equiv_pos_as_xyz
1 x,y,z
2 -x,1/2+y,1/2-z
3 -x,-y,-z
4 x,1/2-y,1/2+z
_cell_length_a                   3.7268(4)
_cell_length_b                   11.8446(11)
_cell_length_c                   19.9373(17)
_cell_angle_alpha                90
_cell_angle_beta                 93.941(4)
_cell_angle_gamma                90
_cell_volume                     878
loop_
_atom_site_label
_atom_site_type_symbol
_atom_site_fract_x
_atom_site_fract_y
_atom_site_fract_z
Ag1 Ag 0.18877(5) 0.399026(14) 0.488268(8)
O1 O 0.0325(4) 0.35151(14) 0.58762(7)
O2 O -0.2042(4) 0.51918(13) 0.61022(7)
N1 N -0.4230(5) 0.24292(18) 0.94256(10)
C1 C -0.1134(5) 0.42013(17) 0.62489(10)
C2 C -0.1780(5) 0.38269(15) 0.69533(9)
C3 C -0.0951(5) 0.27259(16) 0.71616(10)
H1 H -0.0007 0.2219 0.6864
C4 C -0.1530(5) 0.23858(16) 0.78094(10)
H2 H -0.0979 0.1652 0.7948
C5 C -0.2932(5) 0.31447(16) 0.82494(9)
C6 C -0.3760(5) 0.42469(17) 0.80448(10)
H3 H -0.4684 0.4758 0.8342
C7 C -0.3193(5) 0.45665(15) 0.73996(9)
H4 H -0.3774 0.5297 0.7260
C8 C -0.3644(6) 0.27734(18) 0.89145(10)
Ag1B Ag -0.18877(5) 0.600974(14) 0.511732(8)
Ag1C Ag -0.81123(5) 0.100974(14) 0.988268(8)
O2B O 0.2042(4) 0.48082(13) 0.38978(7)
N1C N 0.5770(5) 0.25708(18) 0.44256(10)
O3 O 0.912(3) 0.4058(9) 0.0571(5)
O4? O 1.377(3) 0.3750(6) 0.0782(4)
loop_
_geom_bond_atom_site_label_1
_geom_bond_atom_site_label_2
_geom_bond_site_symmetry_1
_geom_bond_site_symmetry_2
Ag1 O1 1_555 1_555
O1 C1 1_555 1_555
O2 C1 1_555 1_555
N1 C8 1_555 1_555
C1 C2 1_555 1_555
C2 C3 1_555 1_555
C3 H1 1_555 1_555
C4 C3 1_555 1_555
H2 C4 1_555 1_555
C5 C4 1_555 1_555
C6 C5 1_555 1_555
H3 C6 1_555 1_555
C7 C2 1_555 1_555
H4 C7 1_555 1_555
C8 C5 1_555 1_555
Ag1B Ag1 1_555 1_555
Ag1C N1 1_555 1_555
O2B Ag1 1_555 1_555
N1C Ag1 1_555 1_555
O2 Ag1B 1_555 1_555
C6 C7 1_555 1_555

#END
