
#######################################################################
#
#                 Cambridge Crystallographic Data Centre
#                                CCDC 
#
#######################################################################
#
# If this CIF has been generated from an entry in the Cambridge 
# Structural Database, then it will include bibliographic, chemical, 
# crystal, experimental, refinement or atomic coordinate data resulting 
# from the CCDC's data processing and validation procedures.
#
#######################################################################

data_LURRAS
_symmetry_cell_setting           triclinic
_symmetry_space_group_name_H-M   'P -1'
_symmetry_Int_Tables_number      2
_space_group_name_Hall           '-P 1'
loop_
_symmetry_equiv_pos_site_id
_symmetry_equiv_pos_as_xyz
1 x,y,z
2 -x,-y,-z
_cell_length_a                   7.4228(14)
_cell_length_b                   8.1929(18)
_cell_length_c                   14.838(4)
_cell_angle_alpha                104.299(18)
_cell_angle_beta                 100.577(18)
_cell_angle_gamma                95.938(17)
_cell_volume                     849
loop_
_atom_site_label
_atom_site_type_symbol
_atom_site_fract_x
_atom_site_fract_y
_atom_site_fract_z
C1 C -0.2388(2) 0.2038(2) 0.08618(14)
H1 H -0.351(4) 0.223(3) 0.051(2)
C2 C -0.1976(2) 0.2799(2) 0.18383(14)
H2 H -0.291(4) 0.336(3) 0.212(2)
C3 C -0.0384(2) 0.2614(2) 0.24263(13)
C4 C 0.0958(2) 0.1747(2) 0.20028(12)
C5 C 0.0484(2) 0.0882(2) 0.10107(12)
C6 C -0.1234(2) 0.1012(2) 0.04363(12)
C7 C 0.2770(2) 0.1732(2) 0.25360(13)
C8 C 0.1735(2) -0.0106(2) 0.05780(12)
C9 C 0.3421(2) -0.0171(2) 0.11460(14)
H3 H 0.430(3) -0.080(3) 0.085(2)
C10 C 0.3927(2) 0.0746(2) 0.20998(13)
H4 H 0.516(4) 0.079(4) 0.248(2)
C11 C -0.0318(2) 0.3140(2) 0.34848(13)
C12 C 0.3627(2) 0.2893(2) 0.35103(13)
C13 C -0.0447(3) 0.7880(3) 0.27325(19)
H5 H 0.064(4) 0.840(4) 0.253(3)
H6 H -0.033(6) 0.671(6) 0.287(4)
C14 C -0.2138(4) 0.8040(4) 0.2041(2)
H7 H -0.333(5) 0.765(5) 0.218(4)
H8 H -0.206(6) 0.943(6) 0.207(4)
H9 H -0.193(5) 0.728(5) 0.148(4)
O1 O -0.09622(19) 0.44690(17) 0.38026(10)
O2 O 0.02699(18) 0.21525(17) 0.39687(10)
O3 O 0.34032(19) 0.44393(17) 0.36590(11)
O4 O 0.46083(18) 0.22935(18) 0.40908(10)
O5 O 0.4390(2) 0.8799(2) 0.38937(13)
H10 H 0.406(4) 0.834(4) 0.329(3)
H11 H 0.439(5) 0.976(5) 0.393(3)
O6 O -0.0489(2) 0.8680(2) 0.36953(14)
H12 H -0.026(5) 0.973(5) 0.379(3)
K1 K 0.20122(5) 0.70868(5) 0.47310(3)
K2 K -0.30938(5) 0.67636(5) 0.43536(3)
C1A C 0.2388(2) -0.2038(2) -0.08618(14)
H1A H 0.351(4) -0.223(3) -0.051(2)
C2A C 0.1976(2) -0.2799(2) -0.18383(14)
H2A H 0.291(4) -0.336(3) -0.212(2)
C3A C 0.0384(2) -0.2614(2) -0.24263(13)
C4A C -0.0958(2) -0.1747(2) -0.20028(12)
C5A C -0.0484(2) -0.0882(2) -0.10107(12)
C6A C 0.1234(2) -0.1012(2) -0.04363(12)
C7A C -0.2770(2) -0.1732(2) -0.25360(13)
C8A C -0.1735(2) 0.0106(2) -0.05780(12)
C9A C -0.3421(2) 0.0171(2) -0.11460(14)
H3A H -0.430(3) 0.080(3) -0.085(2)
C10A C -0.3927(2) -0.0746(2) -0.20998(13)
H4A H -0.516(4) -0.079(4) -0.248(2)
C11A C 0.0318(2) -0.3140(2) -0.34848(13)
C12A C -0.3627(2) -0.2893(2) -0.35103(13)
C13A C 0.0447(3) -0.7880(3) -0.27325(19)
H5A H -0.064(4) -0.840(4) -0.253(3)
H6A H 0.033(6) -0.671(6) -0.287(4)
C14A C 0.2138(4) -0.8040(4) -0.2041(2)
H7A H 0.333(5) -0.765(5) -0.218(4)
H8A H 0.206(6) -0.943(6) -0.207(4)
H9A H 0.193(5) -0.728(5) -0.148(4)
O1A O 0.09622(19) -0.44690(17) -0.38026(10)
O1A_2 O 0.09622(19) 0.55310(17) 0.61974(10)
O1_2 O -0.09622(19) -0.55310(17) -0.61974(10)
O2A O -0.02699(18) -0.21525(17) -0.39687(10)
O2A_2 O -0.02699(18) 0.78475(17) 0.60313(10)
O2_2 O 0.02699(18) -0.78475(17) -0.60313(10)
O3A O -0.34032(19) -0.44393(17) -0.36590(11)
O3_2 O -0.65968(19) 0.44393(17) 0.36590(11)
O3A_2 O 0.65968(19) -0.44393(17) -0.36590(11)
O4A O -0.46083(18) -0.22935(18) -0.40908(10)
O4A_2 O 0.53917(18) 0.77065(18) 0.59092(10)
O4A_3 O -0.46083(18) 0.77065(18) 0.59092(10)
O4_2 O -0.53917(18) -0.77065(18) -0.59092(10)
O4_3 O 0.46083(18) -0.77065(18) -0.59092(10)
O5_2 O -0.5610(2) 0.8799(2) 0.38937(13)
O5A O -0.4390(2) -0.8799(2) -0.38937(13)
O5A_2 O 0.5610(2) -0.8799(2) -0.38937(13)
H10_2 H -0.594(4) 0.834(4) 0.329(3)
H10A H -0.406(4) -0.834(4) -0.329(3)
H10A_2 H 0.594(4) -0.834(4) -0.329(3)
H11_2 H -0.561(5) 0.976(5) 0.393(3)
H11A H -0.439(5) -0.976(5) -0.393(3)
H11A_2 H 0.561(5) -0.976(5) -0.393(3)
O6A O 0.0489(2) -0.8680(2) -0.36953(14)
H12A H 0.026(5) -0.973(5) -0.379(3)
K1A K -0.20122(5) -0.70868(5) -0.47310(3)
K1A_2 K -0.20122(5) 0.29132(5) 0.52690(3)
K1A_3 K 0.79878(5) 0.29132(5) 0.52690(3)
K1_2 K 0.20122(5) -0.29132(5) -0.52690(3)
K1_3 K -0.79878(5) -0.29132(5) -0.52690(3)
K1_4 K -0.79878(5) 0.70868(5) 0.47310(3)
K2A K 0.30938(5) -0.67636(5) -0.43536(3)
K2A_2 K 0.30938(5) 0.32364(5) 0.56464(3)
K2_2 K 0.69062(5) 0.67636(5) 0.43536(3)
K2_3 K -0.30938(5) -0.32364(5) -0.56464(3)
K2A_3 K -0.69062(5) -0.67636(5) -0.43536(3)
C15 C 0.2299(7) 0.5537(6) 0.1374(4)
C16 C 0.3310(10) 0.4413(9) 0.0702(5)
O7 O 0.3567(4) 0.6060(3) 0.2286(2)
C17? C 0.3541(11) 0.5000(10) 0.1270(8)
C18? C 0.1601(12) 0.5189(11) 0.0823(8)
loop_
_geom_bond_atom_site_label_1
_geom_bond_atom_site_label_2
_geom_bond_site_symmetry_1
_geom_bond_site_symmetry_2
C1 H1 1_555 1_555
C2 C1 1_555 1_555
H2 C2 1_555 1_555
C3 C2 1_555 1_555
C4 C3 1_555 1_555
C5 C4 1_555 1_555
C6 C1 1_555 1_555
C7 C4 1_555 1_555
C8 C5 1_555 1_555
C9 C8 1_555 1_555
H3 C9 1_555 1_555
C10 C7 1_555 1_555
H4 C10 1_555 1_555
C11 C3 1_555 1_555
C12 C7 1_555 1_555
C13 H5 1_555 1_555
H6 C13 1_555 1_555
C14 C13 1_555 1_555
H7 C14 1_555 1_555
H8 C14 1_555 1_555
H9 C14 1_555 1_555
C15 C16 1_555 1_555
O1 C11 1_555 1_555
O2 C11 1_555 1_555
O3 C12 1_555 1_555
O4 C12 1_555 1_555
O5 H10 1_555 1_555
H11 O5 1_555 1_555
O6 C13 1_555 1_555
H12 O6 1_555 1_555
O7 C15 1_555 1_555
K1 O1 1_555 1_555
K2 O1 1_555 1_555
C1A H1A 1_555 1_555
C2A C1A 1_555 1_555
H2A C2A 1_555 1_555
C3A C2A 1_555 1_555
C4A C3A 1_555 1_555
C5A C4A 1_555 1_555
C6A C8 1_555 1_555
C7A C4A 1_555 1_555
C8A C6 1_555 1_555
C9A C8A 1_555 1_555
H3A C9A 1_555 1_555
C10A C7A 1_555 1_555
H4A C10A 1_555 1_555
C11A C3A 1_555 1_555
C12A C7A 1_555 1_555
C13A H5A 1_555 1_555
H6A C13A 1_555 1_555
C14A C13A 1_555 1_555
H7A C14A 1_555 1_555
H8A C14A 1_555 1_555
H9A C14A 1_555 1_555
O1A C11A 1_555 1_555
O1A_2 K1 1_555 1_555
O1_2 K1A 1_555 1_555
O2A C11A 1_555 1_555
O2A_2 K1 1_555 1_555
O2_2 K1A 1_555 1_555
O3A C12A 1_555 1_555
O3_2 K2 1_555 1_555
O3A_2 K2A 1_555 1_555
O4A C12A 1_555 1_555
O4A_2 K1 1_555 1_555
O4A_3 K2 1_555 1_555
O4_2 K1A 1_555 1_555
O4_3 K2A 1_555 1_555
O5_2 K2 1_555 1_555
O5A H10A 1_555 1_555
O5A_2 H10A_2 1_555 1_555
H10_2 O5_2 1_555 1_555
H11_2 O5_2 1_555 1_555
H11A O5A 1_555 1_555
H11A_2 O5A_2 1_555 1_555
O6A C13A 1_555 1_555
H12A O6A 1_555 1_555
K1A O1A 1_555 1_555
K1A_2 O1 1_555 1_555
K1A_3 O4 1_555 1_555
K1_2 O1A 1_555 1_555
K1_3 O4A 1_555 1_555
K1_4 O3_2 1_555 1_555
K2A O1A 1_555 1_555
K2A_2 O2 1_555 1_555
K2_2 O3 1_555 1_555
K2_3 O1_2 1_555 1_555
K2A_3 O3A 1_555 1_555
C5 C6 1_555 1_555
C9 C10 1_555 1_555
O2 K1A_2 1_555 1_555
O3 K1 1_555 1_555
O4 K2A_2 1_555 1_555
O5 K1 1_555 1_555
O5 K2_2 1_555 1_555
O6 K1 1_555 1_555
O6 K2 1_555 1_555
K2 O2A_2 1_555 1_555
C1A C6A 1_555 1_555
C5A C6A 1_555 1_555
C5A C8A 1_555 1_555
C9A C10A 1_555 1_555
O1A_2 K1A_2 1_555 1_555
O1A_2 K2A_2 1_555 1_555
O1_2 K1_2 1_555 1_555
O2A K1_2 1_555 1_555
O2A K2_3 1_555 1_555
O2_2 K2A 1_555 1_555
O3A K1A 1_555 1_555
O4A K2_3 1_555 1_555
O4A_2 K2_2 1_555 1_555
O4A_3 K1_4 1_555 1_555
O4_2 K2A_3 1_555 1_555
O5_2 K1_4 1_555 1_555
O5A K1A 1_555 1_555
O5A K2A_3 1_555 1_555
O5A_2 K2A 1_555 1_555
O6A K1A 1_555 1_555
O6A K2A 1_555 1_555

#END
