
#######################################################################
#
#                 Cambridge Crystallographic Data Centre
#                                CCDC 
#
#######################################################################
#
# If this CIF has been generated from an entry in the Cambridge 
# Structural Database, then it will include bibliographic, chemical, 
# crystal, experimental, refinement or atomic coordinate data resulting 
# from the CCDC's data processing and validation procedures.
#
#######################################################################

data_LURVEA
_symmetry_cell_setting           monoclinic
_symmetry_space_group_name_H-M   'P 21/c'
_symmetry_Int_Tables_number      14
_space_group_name_Hall           '-P 2ybc'
loop_
_symmetry_equiv_pos_site_id
_symmetry_equiv_pos_as_xyz
1 x,y,z
2 -x,1/2+y,1/2-z
3 -x,-y,-z
4 x,1/2-y,1/2+z
_cell_length_a                   18.7186(8)
_cell_length_b                   22.3796(9)
_cell_length_c                   17.0595(8)
_cell_angle_alpha                90
_cell_angle_beta                 112.811(2)
_cell_angle_gamma                90
_cell_volume                     6587.54
loop_
_atom_site_label
_atom_site_type_symbol
_atom_site_fract_x
_atom_site_fract_y
_atom_site_fract_z
Cu1 Cu 1.01354(2) 0.40493(2) 0.77333(3)
P1 P 0.84280(6) 0.46050(5) 0.69785(6)
O1 O 0.88509(14) 0.40253(11) 0.71466(16)
O2 O 1.00110(15) 0.46938(11) 0.84728(16)
O3 O 1.01857(14) 0.46685(11) 0.69379(16)
N1 N 0.96581(18) 0.45363(14) 0.89995(19)
N2 N 1.01377(18) 0.52462(14) 0.71021(19)
N3 N 1.01867(17) 0.16276(13) 0.35338(19)
N4 N 1.02703(17) 0.34815(13) 0.69051(19)
C1 C 0.7424(2) 0.44709(17) 0.6343(2)
C2 C 0.7208(2) 0.38974(19) 0.6044(3)
H4 H 0.7588 0.3591 0.6176
C3 C 0.6445(3) 0.3769(2) 0.5554(3)
H5 H 0.6302 0.3375 0.5343
C4 C 0.5888(3) 0.4209(2) 0.5367(3)
H6 H 0.5362 0.4118 0.5032
C5 C 0.6094(2) 0.4781(2) 0.5667(3)
H7 H 0.5710 0.5084 0.5541
C6 C 0.6861(2) 0.49145(19) 0.6153(2)
H8 H 0.7003 0.5310 0.6356
C7 C 0.8494(2) 0.49894(18) 0.7950(2)
H9 H 0.8776 0.5370 0.7992
H10 H 0.7963 0.5090 0.7900
C8 C 0.8888(2) 0.46439(18) 0.8753(2)
C9 C 0.8534(3) 0.4461(2) 0.9282(3)
H11 H 0.7993 0.4523 0.9116
C10 C 0.8950(3) 0.4190(2) 1.0051(3)
H12 H 0.8696 0.4056 1.0405
C11 C 0.9741(3) 0.41158(18) 1.0302(3)
H13 H 1.0040 0.3945 1.0839
C12 C 1.0090(2) 0.42930(18) 0.9759(2)
H14 H 1.0633 0.4243 0.9921
C13 C 0.8728(2) 0.51453(17) 0.6370(2)
H15 H 0.8814 0.4926 0.5910
H16 H 0.8289 0.5422 0.6094
C14 C 0.9431(2) 0.55138(17) 0.6825(3)
C15 C 0.9405(3) 0.61202(19) 0.6975(3)
H17 H 0.8918 0.6318 0.6791
C16 C 1.0079(3) 0.6440(2) 0.7389(3)
H18 H 1.0055 0.6857 0.7482
C17 C 1.0783(3) 0.6154(2) 0.7666(3)
H19 H 1.1250 0.6367 0.7958
C18 C 1.0797(2) 0.55534(19) 0.7513(2)
H20 H 1.1280 0.5350 0.7699
C19 C 0.9532(2) 0.18403(17) 0.3590(2)
H21 H 0.9046 0.1722 0.3172
C20 C 0.9541(2) 0.22180(17) 0.4223(2)
H22 H 0.9068 0.2354 0.4242
C21 C 1.0244(2) 0.24026(16) 0.4838(2)
C22 C 1.0923(2) 0.22149(17) 0.4745(2)
H23 H 1.1416 0.2352 0.5127
C23 C 1.0866(2) 0.18325(18) 0.4098(2)
H24 H 1.1329 0.1706 0.4045
C24 C 0.9731(2) 0.30603(16) 0.6573(2)
H25 H 0.9347 0.3007 0.6802
C25 C 0.9712(2) 0.27012(16) 0.5910(2)
H26 H 0.9318 0.2408 0.5686
C26 C 1.0273(2) 0.27711(17) 0.5571(2)
C27 C 1.0839(2) 0.31985(17) 0.5931(2)
H27 H 1.1237 0.3255 0.5723
C28 C 1.0821(2) 0.35432(18) 0.6595(2)
H28 H 1.1215 0.3834 0.6840
Cu1C Cu 1.01354(2) 0.09507(2) 0.27333(3)
N3C N 1.01867(17) 0.33724(13) 0.85338(19)
Cu2 Cu 0.46826(3) 0.40563(2) 0.22534(3)
P2 P 0.64408(6) 0.45930(5) 0.29925(6)
O4 O 0.60068(14) 0.40188(11) 0.28354(16)
O5 O 0.48203(15) 0.46934(12) 0.14931(16)
O6 O 0.47037(15) 0.46761(11) 0.30783(16)
N5 N 0.51742(18) 0.45227(14) 0.0974(2)
N6 N 0.47499(19) 0.52535(14) 0.28937(19)
N7 N 0.46312(18) 0.16282(14) 0.64584(19)
N8 N 0.45750(17) 0.34995(13) 0.31156(19)
C29 C 0.7452(2) 0.44718(18) 0.3600(2)
C30 C 0.8012(2) 0.49120(19) 0.3730(3)
H29 H 0.7865 0.5297 0.3487
C31 C 0.8777(2) 0.4789(2) 0.4210(3)
H30 H 0.9158 0.5090 0.4295
C32 C 0.8994(3) 0.4234(2) 0.4567(3)
H31 H 0.9524 0.4154 0.4900
C33 C 0.8448(3) 0.3795(2) 0.4444(3)
H32 H 0.8603 0.3412 0.4691
C34 C 0.7682(2) 0.39066(19) 0.3967(3)
H33 H 0.7307 0.3601 0.3885
C35 C 0.6359(2) 0.4966(2) 0.2007(2)
H34 H 0.6082 0.5349 0.1963
H35 H 0.6886 0.5059 0.2038
C36 C 0.5943(2) 0.46080(18) 0.1218(3)
C37 C 0.6296(3) 0.4387(2) 0.0696(3)
H36 H 0.6841 0.4424 0.0864
C38 C 0.5861(3) 0.41148(19) -0.0066(3)
H37 H 0.6106 0.3960 -0.0417
C39 C 0.5074(3) 0.40674(18) -0.0314(3)
H38 H 0.4767 0.3892 -0.0846
C40 C 0.4734(2) 0.42759(17) 0.0214(2)
H39 H 0.4188 0.4247 0.0047
C41 C 0.6154(2) 0.51441(18) 0.3605(3)
H40 H 0.6068 0.4930 0.4069
H41 H 0.6597 0.5418 0.3875
C42 C 0.5456(2) 0.55146(18) 0.3149(3)
C43 C 0.5484(3) 0.6118(2) 0.2991(3)
H42 H 0.5970 0.6316 0.3174
C44 C 0.4808(3) 0.6437(2) 0.2567(3)
H43 H 0.4831 0.6851 0.2455
C45 C 0.4111(3) 0.6151(2) 0.2312(3)
H44 H 0.3644 0.6366 0.2024
C46 C 0.4087(3) 0.55521(19) 0.2474(3)
H45 H 0.3604 0.5349 0.2290
C47 C 0.5284(2) 0.18484(17) 0.6418(2)
H46 H 0.5769 0.1730 0.6837
C48 C 0.5274(2) 0.22384(17) 0.5794(2)
H47 H 0.5748 0.2385 0.5788
C49 C 0.4580(2) 0.24182(17) 0.5173(2)
C50 C 0.3905(2) 0.22185(19) 0.5244(3)
H48 H 0.3413 0.2347 0.4849
C51 C 0.3954(2) 0.18314(19) 0.5893(3)
H49 H 0.3488 0.1704 0.5940
C52 C 0.5122(2) 0.30803(16) 0.3464(2)
H50 H 0.5515 0.3030 0.3248
C53 C 0.5133(2) 0.27214(16) 0.4122(2)
H51 H 0.5527 0.2429 0.4352
C54 C 0.4558(2) 0.27902(16) 0.4451(2)
C55 C 0.3991(2) 0.32195(17) 0.4078(2)
H52 H 0.3586 0.3275 0.4275
C56 C 0.4017(2) 0.35639(17) 0.3421(2)
H53 H 0.3628 0.3858 0.3175
Cu2C Cu 0.46826(3) 0.09437(2) 0.72534(3)
N7C N 0.46312(18) 0.33718(14) 0.14584(19)
O7 O 0.8150(2) 0.24074(17) 0.6810(3)
H1 H 0.7923 0.2292 0.6306
C57 C 0.7626(4) 0.2340(4) 0.7267(4)
H54 H 0.7932 0.2314 0.7879
H55 H 0.7317 0.1976 0.7074
H56 H 0.7280 0.2687 0.7150
O8 O 0.3243(2) 0.43272(18) 0.1532(2)
H2 H 0.301(4) 0.408(3) 0.158(4)
H3 H 0.310(3) 0.445(2) 0.099(4)
B1 B 0.2169(4) 0.4487(3) 0.9237(5)
F1 F 0.1697(2) 0.42175(15) 0.8507(2)
F2 F 0.1854(2) 0.43570(18) 0.9838(3)
F3 F 0.29114(18) 0.43501(19) 0.9567(3)
F4 F 0.20941(19) 0.51138(17) 0.9133(3)
B2 B 0.7219(3) 0.2142(3) 0.4543(4)
F5 F 0.69368(17) 0.22528(16) 0.5178(2)
F6 F 0.72906(19) 0.15331(14) 0.4474(3)
F7 F 0.67044(17) 0.23712(14) 0.3767(2)
F8 F 0.79278(17) 0.23999(17) 0.4753(3)
B3 B 0.1909(5) 0.3385(4) 0.2105(6)
F9 F 0.2208(8) 0.3817(6) 0.2725(7)
F10 F 0.1193(3) 0.3543(3) 0.1559(4)
F11 F 0.2429(3) 0.3297(2) 0.1683(3)
F12 F 0.1841(4) 0.2853(2) 0.2458(4)
B4 B 0.2459(5) 0.3599(4) 0.5233(5)
F13 F 0.2863(3) 0.3952(2) 0.4879(4)
F14 F 0.2593(3) 0.3753(2) 0.6058(3)
F15 F 0.2559(4) 0.3000(2) 0.5204(6)
F16 F 0.1667(3) 0.3719(3) 0.4777(4)
B5? B 0.1928(14) 0.3457(10) 0.1869(15)
B6? B 0.2494(11) 0.3461(9) 0.5067(12)
F17? F 0.224(2) 0.3720(17) 0.2659(18)
F18? F 0.1272(9) 0.3167(8) 0.1770(12)
F19? F 0.1779(7) 0.3875(5) 0.1211(8)
F20? F 0.2378(12) 0.3006(7) 0.1796(15)
F21? F 0.3160(7) 0.3767(6) 0.5157(9)
F22? F 0.2765(6) 0.3178(6) 0.5834(7)
F23? F 0.2241(9) 0.3076(6) 0.4409(11)
F24? F 0.1947(7) 0.3853(7) 0.5117(8)
loop_
_geom_bond_atom_site_label_1
_geom_bond_atom_site_label_2
_geom_bond_site_symmetry_1
_geom_bond_site_symmetry_2
Cu1 O1 1_555 1_555
Cu2 O4 1_555 1_555
P1 O1 1_555 1_555
P2 O4 1_555 1_555
O2 Cu1 1_555 1_555
O3 Cu1 1_555 1_555
O5 Cu2 1_555 1_555
O6 Cu2 1_555 1_555
O7 H1 1_555 1_555
O8 H2 1_555 1_555
H3 O8 1_555 1_555
N1 O2 1_555 1_555
N2 O3 1_555 1_555
N3 C19 1_555 1_555
N4 Cu1 1_555 1_555
N5 O5 1_555 1_555
N6 O6 1_555 1_555
N7 C47 1_555 1_555
N8 Cu2 1_555 1_555
C1 P1 1_555 1_555
C2 C1 1_555 1_555
H4 C2 1_555 1_555
C3 C2 1_555 1_555
H5 C3 1_555 1_555
C4 C3 1_555 1_555
H6 C4 1_555 1_555
C5 C4 1_555 1_555
H7 C5 1_555 1_555
C6 C1 1_555 1_555
H8 C6 1_555 1_555
C7 P1 1_555 1_555
H9 C7 1_555 1_555
H10 C7 1_555 1_555
C8 N1 1_555 1_555
C9 C8 1_555 1_555
H11 C9 1_555 1_555
C10 C9 1_555 1_555
H12 C10 1_555 1_555
C11 C10 1_555 1_555
H13 C11 1_555 1_555
C12 N1 1_555 1_555
H14 C12 1_555 1_555
C13 P1 1_555 1_555
H15 C13 1_555 1_555
H16 C13 1_555 1_555
C14 N2 1_555 1_555
C15 C14 1_555 1_555
H17 C15 1_555 1_555
C16 C15 1_555 1_555
H18 C16 1_555 1_555
C17 C16 1_555 1_555
H19 C17 1_555 1_555
C18 N2 1_555 1_555
H20 C18 1_555 1_555
C19 H21 1_555 1_555
C20 C19 1_555 1_555
H22 C20 1_555 1_555
C21 C20 1_555 1_555
C22 C21 1_555 1_555
H23 C22 1_555 1_555
C23 N3 1_555 1_555
H24 C23 1_555 1_555
C24 N4 1_555 1_555
H25 C24 1_555 1_555
C25 C24 1_555 1_555
H26 C25 1_555 1_555
C26 C21 1_555 1_555
C27 C26 1_555 1_555
H27 C27 1_555 1_555
C28 N4 1_555 1_555
H28 C28 1_555 1_555
C29 P2 1_555 1_555
C30 C29 1_555 1_555
H29 C30 1_555 1_555
C31 C30 1_555 1_555
H30 C31 1_555 1_555
C32 C31 1_555 1_555
H31 C32 1_555 1_555
C33 C32 1_555 1_555
H32 C33 1_555 1_555
C34 C29 1_555 1_555
H33 C34 1_555 1_555
C35 P2 1_555 1_555
H34 C35 1_555 1_555
H35 C35 1_555 1_555
C36 N5 1_555 1_555
C37 C36 1_555 1_555
H36 C37 1_555 1_555
C38 C37 1_555 1_555
H37 C38 1_555 1_555
C39 C38 1_555 1_555
H38 C39 1_555 1_555
C40 N5 1_555 1_555
H39 C40 1_555 1_555
C41 P2 1_555 1_555
H40 C41 1_555 1_555
H41 C41 1_555 1_555
C42 N6 1_555 1_555
C43 C42 1_555 1_555
H42 C43 1_555 1_555
C44 C43 1_555 1_555
H43 C44 1_555 1_555
C45 C44 1_555 1_555
H44 C45 1_555 1_555
C46 N6 1_555 1_555
H45 C46 1_555 1_555
C47 H46 1_555 1_555
C48 C47 1_555 1_555
H47 C48 1_555 1_555
C49 C48 1_555 1_555
C50 C49 1_555 1_555
H48 C50 1_555 1_555
C51 N7 1_555 1_555
H49 C51 1_555 1_555
C52 N8 1_555 1_555
H50 C52 1_555 1_555
C53 C52 1_555 1_555
H51 C53 1_555 1_555
C54 C49 1_555 1_555
C55 C54 1_555 1_555
H52 C55 1_555 1_555
C56 N8 1_555 1_555
H53 C56 1_555 1_555
C57 O7 1_555 1_555
H54 C57 1_555 1_555
H55 C57 1_555 1_555
H56 C57 1_555 1_555
B1 F1 1_555 1_555
B2 F5 1_555 1_555
F2 B1 1_555 1_555
F3 B1 1_555 1_555
F4 B1 1_555 1_555
F6 B2 1_555 1_555
F7 B2 1_555 1_555
F8 B2 1_555 1_555
B3 F9 1_555 1_555
F10 B3 1_555 1_555
F11 B3 1_555 1_555
F12 B3 1_555 1_555
B4 F13 1_555 1_555
F14 B4 1_555 1_555
F15 B4 1_555 1_555
F16 B4 1_555 1_555
Cu1C N3 1_555 1_555
Cu2C N7 1_555 1_555
N3C Cu1 1_555 1_555
N7C Cu2 1_555 1_555
C5 C6 1_555 1_555
C7 C8 1_555 1_555
C11 C12 1_555 1_555
C13 C14 1_555 1_555
C17 C18 1_555 1_555
C22 C23 1_555 1_555
C25 C26 1_555 1_555
C27 C28 1_555 1_555
C33 C34 1_555 1_555
C35 C36 1_555 1_555
C39 C40 1_555 1_555
C41 C42 1_555 1_555
C45 C46 1_555 1_555
C50 C51 1_555 1_555
C53 C54 1_555 1_555
C55 C56 1_555 1_555

#END
