
#######################################################################
#
#                 Cambridge Crystallographic Data Centre
#                                CCDC 
#
#######################################################################
#
# If this CIF has been generated from an entry in the Cambridge 
# Structural Database, then it will include bibliographic, chemical, 
# crystal, experimental, refinement or atomic coordinate data resulting 
# from the CCDC's data processing and validation procedures.
#
#######################################################################

data_LURXOM
_symmetry_cell_setting           monoclinic
_symmetry_space_group_name_H-M   'P 21/c'
_symmetry_Int_Tables_number      14
_space_group_name_Hall           '-P 2ybc'
loop_
_symmetry_equiv_pos_site_id
_symmetry_equiv_pos_as_xyz
1 x,y,z
2 -x,1/2+y,1/2-z
3 -x,-y,-z
4 x,1/2-y,1/2+z
_cell_length_a                   6.1149(9)
_cell_length_b                   43.827(6)
_cell_length_c                   7.1914(8)
_cell_angle_alpha                90
_cell_angle_beta                 118.620(9)
_cell_angle_gamma                90
_cell_volume                     1691.8
loop_
_atom_site_label
_atom_site_type_symbol
_atom_site_fract_x
_atom_site_fract_y
_atom_site_fract_z
Sr1 Sr 0.45525(8) 0.361255(10) 0.79734(7)
O1 O 0.7428(7) 0.31946(9) 0.7982(7)
O2 O 1.1095(7) 0.33381(8) 0.8315(7)
O5 O 0.0130(7) 0.38755(10) 0.5399(7)
O6 O 0.4820(8) 0.41319(10) 0.9791(8)
O7 O 0.6136(9) 0.34537(12) 1.2027(7)
O8 O 0.9396(7) 0.37527(9) 1.0342(7)
O9 O 0.5801(7) 0.39988(8) 0.5889(6)
O10 O 0.2827(7) 0.34085(9) 0.4009(7)
N1 N 1.1320(9) 0.21929(11) 0.8230(7)
C1 C 1.0189(9) 0.28063(11) 0.8144(7)
C2 C 0.8485(10) 0.25850(12) 0.7918(9)
H1 H 0.6926 0.2638 0.7747
C3 C 0.9138(11) 0.22856(13) 0.7950(9)
H2 H 0.7958 0.2138 0.7761
C4 C 1.2949(10) 0.24101(12) 0.8426(9)
H3 H 1.4489 0.2350 0.8586
C5 C 1.2473(9) 0.27191(12) 0.8405(8)
H4 H 1.3666 0.2863 0.8562
C6 C 0.9495(8) 0.31402(12) 0.8153(7)
Sr1_2 Sr 1.45525(8) 0.361255(10) 0.79734(7)
O2_2 O 0.1095(7) 0.33381(8) 0.8315(7)
O3 O 0.2298(7) 0.42695(9) 0.1956(7)
O4 O -0.0548(7) 0.43889(10) 0.2865(7)
N2 N 0.2824(8) 0.54123(10) 0.2635(7)
C7 C 0.1748(9) 0.47930(11) 0.2465(7)
C8 C 0.3727(10) 0.48908(12) 0.2182(9)
H5 H 0.4724 0.4753 0.1947
C9 C 0.4160(10) 0.52014(12) 0.2263(9)
H6 H 0.5462 0.5269 0.2045
C10 C 0.0953(11) 0.53140(12) 0.2904(9)
H7 H -0.0005 0.5457 0.3146
C11 C 0.0349(10) 0.50088(13) 0.2842(8)
H8 H -0.0977 0.4949 0.3051
C12 C 0.1122(10) 0.44584(12) 0.2409(8)
loop_
_geom_bond_atom_site_label_1
_geom_bond_atom_site_label_2
_geom_bond_site_symmetry_1
_geom_bond_site_symmetry_2
Sr1 O1 1_555 1_555
O1 C6 1_555 1_555
O2 C6 1_555 1_555
O3 C12 1_555 1_555
O4 C12 1_555 1_555
O5 Sr1 1_555 1_555
O6 Sr1 1_555 1_555
O7 Sr1 1_555 1_555
O8 Sr1 1_555 1_555
O9 Sr1 1_555 1_555
O10 Sr1 1_555 1_555
N1 C3 1_555 1_555
N2 C9 1_555 1_555
C1 C2 1_555 1_555
C2 H1 1_555 1_555
C3 C2 1_555 1_555
H2 C3 1_555 1_555
C4 N1 1_555 1_555
H3 C4 1_555 1_555
C5 C1 1_555 1_555
H4 C5 1_555 1_555
C6 C1 1_555 1_555
C7 C8 1_555 1_555
C8 H5 1_555 1_555
C9 C8 1_555 1_555
H6 C9 1_555 1_555
C10 N2 1_555 1_555
H7 C10 1_555 1_555
C11 C7 1_555 1_555
H8 C11 1_555 1_555
C12 C7 1_555 1_555
Sr1_2 O2 1_555 1_555
O2_2 Sr1 1_555 1_555
C4 C5 1_555 1_555
C10 C11 1_555 1_555

#END
