
#######################################################################
#
#                 Cambridge Crystallographic Data Centre
#                                CCDC 
#
#######################################################################
#
# If this CIF has been generated from an entry in the Cambridge 
# Structural Database, then it will include bibliographic, chemical, 
# crystal, experimental, refinement or atomic coordinate data resulting 
# from the CCDC's data processing and validation procedures.
#
#######################################################################

data_LURXAX
_symmetry_cell_setting           triclinic
_symmetry_space_group_name_H-M   'P -1'
_symmetry_Int_Tables_number      2
_space_group_name_Hall           '-P 1'
loop_
_symmetry_equiv_pos_site_id
_symmetry_equiv_pos_as_xyz
1 x,y,z
2 -x,-y,-z
_cell_length_a                   10.273(2)
_cell_length_b                   11.060(2)
_cell_length_c                   11.617(2)
_cell_angle_alpha                98.28(3)
_cell_angle_beta                 105.54(3)
_cell_angle_gamma                114.37(3)
_cell_volume                     1108.56
loop_
_atom_site_label
_atom_site_type_symbol
_atom_site_fract_x
_atom_site_fract_y
_atom_site_fract_z
Cu1 Cu 0.5000 0.0000 0.5000
Cu2 Cu 0.67340(5) -0.26593(5) 0.81191(5)
N1 N 0.5522(4) -0.1928(3) 0.8838(3)
N2 N 0.7719(4) -0.3400(4) 0.7160(3)
N3 N 0.9380(6) -0.5235(7) 0.4757(5)
N4 N 0.3353(4) -0.1705(4) 0.3594(3)
N5 N -0.0176(4) -0.4928(4) 0.0465(3)
O1 O 0.8271(3) -0.0702(3) 0.8579(3)
O2 O 0.8814(4) 0.1384(3) 0.9653(3)
O3 O 0.5032(4) -0.4463(3) 0.7904(3)
O4 O 0.3303(4) -0.5429(4) 0.8738(4)
O5 O 0.5478(4) -0.2080(5) 0.6371(3)
O6 O 0.4293(4) -0.0786(3) 0.6250(3)
O7 O 0.8140(4) -0.2674(5) 1.0065(4)
H1 H 0.8968(4) -0.1964(5) 1.0366(4)
H2 H 0.7876(68) -0.3291(63) 1.0327(56)
C1 C 0.6662(5) -0.0542(5) 0.9680(4)
H3 H 0.7028(5) -0.0609(5) 1.0517(4)
H4 H 0.6179(5) 0.0048(5) 0.9703(4)
C2 C 0.8030(5) 0.0125(4) 0.9269(4)
C3 C 0.4319(5) -0.4413(5) 0.8636(5)
C4 C 0.4801(5) -0.2971(5) 0.9441(4)
H5 H 0.3911(5) -0.2927(5) 0.9536(4)
H6 H 0.5522(5) -0.2783(5) 1.0263(4)
C5 C 0.4306(5) -0.1890(5) 0.7830(4)
H7 H 0.4046(5) -0.1208(5) 0.8175(4)
H8 H 0.3396(5) -0.2788(5) 0.7529(4)
C6 C 0.4761(5) -0.1542(4) 0.6736(4)
C7 C 0.9188(6) -0.2807(9) 0.7416(6)
H9 H 0.9822(6) -0.2025(9) 0.8100(6)
C8 C 0.9843(8) -0.3310(11) 0.6695(7)
H10 H 1.0901(8) -0.2862(11) 0.6906(7)
C9 C 0.8965(8) -0.4433(7) 0.5700(5)
C10 C 0.7465(10) -0.5039(7) 0.5470(7)
H11 H 0.6808(10) -0.5818(7) 0.4786(7)
C11 C 0.6871(7) -0.4527(6) 0.6229(6)
H12 H 0.5825(7) -0.5006(6) 0.6071(6)
C12 C 0.3699(6) -0.2307(5) 0.2724(4)
C13 C 0.0707(6) -0.3290(5) 0.2445(4)
C14 C 0.1876(6) -0.2219(5) 0.3463(4)
C15 C 0.1081(5) -0.3855(4) 0.1532(4)
C16 C 0.2607(5) -0.3385(5) 0.1688(4)
H13 H -0.0315(61) -0.3605(52) 0.2356(47)
H14 H 0.2860(53) -0.3826(49) 0.1137(45)
H15 H 0.4684(60) -0.1941(51) 0.2820(45)
H16 H 0.1672(58) -0.1782(54) 0.4081(50)
N3A N 1.0620(6) -0.4765(7) 0.5243(5)
C9A C 1.1035(8) -0.5567(7) 0.4300(5)
C8A C 1.0157(8) -0.6690(11) 0.3305(7)
C7A C 1.0812(6) -0.7193(9) 0.2584(6)
N2A N 1.2281(4) -0.6600(4) 0.2840(3)
C11A C 1.3129(7) -0.5473(6) 0.3771(6)
C10A C 1.2535(10) -0.4961(7) 0.4530(7)
H11A H 1.3192(10) -0.4182(7) 0.5214(7)
H12A H 1.4175(7) -0.4994(6) 0.3929(6)
H9A H 1.0178(6) -0.7975(9) 0.1900(6)
H10A H 0.9099(8) -0.7138(11) 0.3094(7)
N5A N 0.0176(4) -0.5072(4) -0.0465(3)
C15A C -0.1081(5) -0.6145(4) -0.1532(4)
C13A C -0.0707(6) -0.6710(5) -0.2445(4)
C14A C -0.1876(6) -0.7781(5) -0.3463(4)
N4A N -0.3353(4) -0.8295(4) -0.3594(3)
C12A C -0.3699(6) -0.7693(5) -0.2724(4)
C16A C -0.2607(5) -0.6615(5) -0.1688(4)
H14A H -0.2860(53) -0.6174(49) -0.1137(45)
H15A H -0.4684(60) -0.8059(51) -0.2820(45)
H16A H -0.1672(58) -0.8218(54) -0.4081(50)
H13A H 0.0315(61) -0.6395(52) -0.2356(47)
N1A N 0.4478(4) 0.1928(3) 0.1162(3)
O1A O 0.1729(3) 0.0702(3) 0.1421(3)
O2A O 0.1186(4) -0.1384(3) 0.0347(3)
O3A O 0.4968(4) 0.4463(3) 0.2096(3)
O4A O 0.6697(4) 0.5429(4) 0.1262(4)
O5A O 0.4522(4) 0.2080(5) 0.3629(3)
O6A O 0.5707(4) 0.0786(3) 0.3750(3)
C1A C 0.3338(5) 0.0542(5) 0.0320(4)
H3A H 0.2972(5) 0.0609(5) -0.0517(4)
H4A H 0.3821(5) -0.0048(5) 0.0297(4)
C2A C 0.1970(5) -0.0125(4) 0.0731(4)
C3A C 0.5681(5) 0.4413(5) 0.1364(5)
C4A C 0.5199(5) 0.2971(5) 0.0559(4)
H5A H 0.6089(5) 0.2927(5) 0.0464(4)
H6A H 0.4478(5) 0.2783(5) -0.0263(4)
C5A C 0.5694(5) 0.1890(5) 0.2170(4)
H7A H 0.5954(5) 0.1208(5) 0.1825(4)
H8A H 0.6604(5) 0.2788(5) 0.2471(4)
C6A C 0.5239(5) 0.1542(4) 0.3264(4)
Cu2A Cu 0.32660(5) 0.26593(5) 0.18809(5)
O7A O 0.1860(4) 0.2674(5) -0.0065(4)
H1A H 0.1032(4) 0.1964(5) -0.0366(4)
H2A H 0.2124(68) 0.3291(63) -0.0327(56)
N4A_2 N 0.6647(4) 0.1705(4) 0.6406(3)
Cu2A_2 Cu 1.32660(5) -0.73407(5) 0.18809(5)
Cu1_2 Cu -0.5000 -1.0000 -0.5000
N2A_2 N 0.2281(4) 0.3400(4) 0.2840(3)
O8 O 0.9997(6) 0.0317(7) 0.7036(5)
O9 O 0.7157(5) -0.0920(4) 0.5037(4)
O10 O 1.2848(9) 0.2017(8) 0.7198(7)
O11? O 1.2072(26) 0.2618(21) 0.6415(18)
O12? O 1.2596(22) -0.0001(24) 0.7391(16)
loop_
_geom_bond_atom_site_label_1
_geom_bond_atom_site_label_2
_geom_bond_site_symmetry_1
_geom_bond_site_symmetry_2
Cu1 N4 1_555 1_555
Cu2 N1 1_555 1_555
N1 C1 1_555 1_555
N2 Cu2 1_555 1_555
N3 C9 1_555 1_555
N4 C12 1_555 1_555
N5 C15 1_555 1_555
O1 Cu2 1_555 1_555
O2 C2 1_555 1_555
O3 Cu2 1_555 1_555
O4 C3 1_555 1_555
O5 Cu2 1_555 1_555
O6 Cu1 1_555 1_555
O7 Cu2 1_555 1_555
H1 O7 1_555 1_555
H2 O7 1_555 1_555
C1 H3 1_555 1_555
H4 C1 1_555 1_555
C2 O1 1_555 1_555
C3 O3 1_555 1_555
C4 N1 1_555 1_555
H5 C4 1_555 1_555
H6 C4 1_555 1_555
C5 N1 1_555 1_555
H7 C5 1_555 1_555
H8 C5 1_555 1_555
C6 O5 1_555 1_555
C7 N2 1_555 1_555
H9 C7 1_555 1_555
C8 C7 1_555 1_555
H10 C8 1_555 1_555
C9 C8 1_555 1_555
C10 C9 1_555 1_555
H11 C10 1_555 1_555
C11 N2 1_555 1_555
H12 C11 1_555 1_555
C12 C16 1_555 1_555
C13 C14 1_555 1_555
C14 N4 1_555 1_555
C15 C13 1_555 1_555
C16 C15 1_555 1_555
H13 C13 1_555 1_555
H14 C16 1_555 1_555
H15 C12 1_555 1_555
H16 C14 1_555 1_555
N3A N3 1_555 1_555
C9A N3A 1_555 1_555
C8A C9A 1_555 1_555
C7A C8A 1_555 1_555
N2A C7A 1_555 1_555
C11A N2A 1_555 1_555
C10A C9A 1_555 1_555
H11A C10A 1_555 1_555
H12A C11A 1_555 1_555
H9A C7A 1_555 1_555
H10A C8A 1_555 1_555
N5A N5 1_555 1_555
C15A N5A 1_555 1_555
C13A C15A 1_555 1_555
C14A C13A 1_555 1_555
N4A C14A 1_555 1_555
C12A N4A 1_555 1_555
C16A C15A 1_555 1_555
H14A C16A 1_555 1_555
H15A C12A 1_555 1_555
H16A C14A 1_555 1_555
H13A C13A 1_555 1_555
N1A C1A 1_555 1_555
O1A C2A 1_555 1_555
O2A C2A 1_555 1_555
O3A C3A 1_555 1_555
O4A C3A 1_555 1_555
O5A C6A 1_555 1_555
O6A Cu1 1_555 1_555
C1A H3A 1_555 1_555
H4A C1A 1_555 1_555
C2A C1A 1_555 1_555
C3A C4A 1_555 1_555
C4A N1A 1_555 1_555
H5A C4A 1_555 1_555
H6A C4A 1_555 1_555
C5A N1A 1_555 1_555
H7A C5A 1_555 1_555
H8A C5A 1_555 1_555
C6A O6A 1_555 1_555
Cu2A N1A 1_555 1_555
O7A Cu2A 1_555 1_555
H1A O7A 1_555 1_555
H2A O7A 1_555 1_555
N4A_2 Cu1 1_555 1_555
Cu2A_2 N2A 1_555 1_555
Cu1_2 N4A 1_555 1_555
N2A_2 Cu2A 1_555 1_555
O6 C6 1_555 1_555
C1 C2 1_555 1_555
C3 C4 1_555 1_555
C5 C6 1_555 1_555
C10 C11 1_555 1_555
C11A C10A 1_555 1_555
C12A C16A 1_555 1_555
O1A Cu2A 1_555 1_555
O3A Cu2A 1_555 1_555
O5A Cu2A 1_555 1_555
C5A C6A 1_555 1_555

#END
