
#######################################################################
#
#                 Cambridge Crystallographic Data Centre
#                                CCDC 
#
#######################################################################
#
# If this CIF has been generated from an entry in the Cambridge 
# Structural Database, then it will include bibliographic, chemical, 
# crystal, experimental, refinement or atomic coordinate data resulting 
# from the CCDC's data processing and validation procedures.
#
#######################################################################

data_LURYAZ
_symmetry_cell_setting           monoclinic
_symmetry_space_group_name_H-M   'C 2/c'
_symmetry_Int_Tables_number      15
_space_group_name_Hall           '-C 2yn'
loop_
_symmetry_equiv_pos_site_id
_symmetry_equiv_pos_as_xyz
1 x,y,z
2 -x,y,1/2-z
3 1/2+x,1/2+y,z
4 1/2-x,1/2+y,1/2-z
5 -x,-y,-z
6 x,-y,1/2+z
7 1/2-x,1/2-y,-z
8 1/2+x,1/2-y,1/2+z
_cell_length_a                   17.585(4)
_cell_length_b                   12.437(3)
_cell_length_c                   7.8626(19)
_cell_angle_alpha                90
_cell_angle_beta                 93.031(3)
_cell_angle_gamma                90
_cell_volume                     1717.18
loop_
_atom_site_label
_atom_site_type_symbol
_atom_site_fract_x
_atom_site_fract_y
_atom_site_fract_z
Sr1 Sr 0.0000 0.04941(3) 1.2500
N1 N -0.1693(3) 0.4053(4) 1.0137(6)
O1 O -0.05424(14) 0.1078(2) 0.9659(3)
O2 O -0.10930(15) 0.0884(2) 0.7095(3)
O5 O 0.10570(14) 0.1590(2) 1.1192(3)
C1 C -0.09968(17) 0.1396(3) 0.8468(4)
C2 C -0.14406(18) 0.2401(3) 0.8699(4)
C3 C -0.2055(2) 0.2635(3) 0.7615(5)
H4 H -0.2179 0.2158 0.6733
C4 C -0.24886(19) 0.3518(3) 0.7759(5)
H5 H -0.2905 0.3643 0.7004
C5 C -0.2311(2) 0.4199(4) 0.8985(6)
H6 H -0.2612 0.4807 0.9090
C6 C -0.1262(2) 0.3127(3) 1.0004(5)
H7 H -0.0856 0.2993 1.0781
H8 H 0.112(2) 0.137(3) 1.018(2)
H9 H 0.1526(9) 0.167(5) 1.145(7)
Sr1D Sr 0.0000 -0.04941(3) 0.7500
Sr1D_2 Sr 0.0000 -0.04941(3) 1.7500
N1A N 0.1693(3) 0.4053(4) 1.4863(6)
O1A O 0.05424(14) 0.1078(2) 1.5341(3)
O1D O 0.05424(14) -0.1078(2) 1.0341(3)
O1E O -0.05424(14) -0.1078(2) 1.4659(3)
O2A O 0.10930(15) 0.0884(2) 1.7905(3)
O2D O 0.10930(15) -0.0884(2) 1.2905(3)
O2E O -0.10930(15) -0.0884(2) 1.2095(3)
O5A O -0.10570(14) 0.1590(2) 1.3808(3)
C1A C 0.09968(17) 0.1396(3) 1.6532(4)
C2A C 0.14406(18) 0.2401(3) 1.6301(4)
C3A C 0.2055(2) 0.2635(3) 1.7385(5)
H4A H 0.2179 0.2158 1.8267
C4A C 0.24886(19) 0.3518(3) 1.7241(5)
H5A H 0.2905 0.3643 1.7996
C5A C 0.2311(2) 0.4199(4) 1.6015(6)
H6A H 0.2612 0.4807 1.5910
C6A C 0.1262(2) 0.3127(3) 1.4996(5)
H7A H 0.0856 0.2993 1.4219
H8A H -0.112(2) 0.137(3) 1.482(2)
H9A H -0.1526(9) 0.167(5) 1.355(7)
O3 O 0.0000 0.5257(5) 0.2500
H1 H 0.0232 0.4856 0.1820
H1A H -0.0232 0.4856 0.3180
O4 O 0.0716(3) 0.3793(3) 0.0428(6)
H2 H 0.0494 0.3958 -0.0523
H3 H 0.0777 0.3116 0.0467
loop_
_geom_bond_atom_site_label_1
_geom_bond_atom_site_label_2
_geom_bond_site_symmetry_1
_geom_bond_site_symmetry_2
Sr1 O1 1_555 1_555
N1 C5 1_555 1_555
O1 C1 1_555 1_555
O2 C1 1_555 1_555
O3 H1 1_555 1_555
O4 H2 1_555 1_555
H3 O4 1_555 1_555
O5 Sr1 1_555 1_555
C1 C2 1_555 1_555
C2 C3 1_555 1_555
C3 H4 1_555 1_555
C4 C3 1_555 1_555
H5 C4 1_555 1_555
C5 C4 1_555 1_555
H6 C5 1_555 1_555
C6 N1 1_555 1_555
H7 C6 1_555 1_555
H8 O5 1_555 1_555
H9 O5 1_555 1_555
Sr1D O1 1_555 1_555
Sr1D_2 O1A 1_555 1_555
N1A C5A 1_555 1_555
O1A Sr1 1_555 1_555
O1D Sr1 1_555 1_555
O1E Sr1 1_555 1_555
O2A Sr1D_2 1_555 1_555
O2D Sr1 1_555 1_555
O2E Sr1 1_555 1_555
H1A O3 1_555 1_555
O5A Sr1 1_555 1_555
C1A O1A 1_555 1_555
C2A C1A 1_555 1_555
C3A C2A 1_555 1_555
H4A C3A 1_555 1_555
C4A C3A 1_555 1_555
H5A C4A 1_555 1_555
C5A C4A 1_555 1_555
H6A C5A 1_555 1_555
C6A N1A 1_555 1_555
H7A C6A 1_555 1_555
H8A O5A 1_555 1_555
H9A O5A 1_555 1_555
O2 Sr1D 1_555 1_555
C2 C6 1_555 1_555
Sr1D O1D 1_555 1_555
Sr1D_2 O1E 1_555 1_555
O2A C1A 1_555 1_555
C2A C6A 1_555 1_555

#END
