
#######################################################################
#
#                 Cambridge Crystallographic Data Centre
#                                CCDC 
#
#######################################################################
#
# If this CIF has been generated from an entry in the Cambridge 
# Structural Database, then it will include bibliographic, chemical, 
# crystal, experimental, refinement or atomic coordinate data resulting 
# from the CCDC's data processing and validation procedures.
#
#######################################################################

data_LUSBUW
_symmetry_cell_setting           monoclinic
_symmetry_space_group_name_H-M   'P 21/c'
_symmetry_Int_Tables_number      14
_space_group_name_Hall           '-P 2ybc'
loop_
_symmetry_equiv_pos_site_id
_symmetry_equiv_pos_as_xyz
1 x,y,z
2 -x,1/2+y,1/2-z
3 -x,-y,-z
4 x,1/2-y,1/2+z
_cell_length_a                   9.7480(6)
_cell_length_b                   21.829(1)
_cell_length_c                   22.292(1)
_cell_angle_alpha                90
_cell_angle_beta                 90.58(2)
_cell_angle_gamma                90
_cell_volume                     4743.25
loop_
_atom_site_label
_atom_site_type_symbol
_atom_site_fract_x
_atom_site_fract_y
_atom_site_fract_z
Eu1 Eu 0.41095(4) 0.14765(2) 0.24655(2)
Eu2 Eu 0.90884(4) 0.12954(2) 0.22574(2)
O1 O 0.7377(5) 0.1097(3) 0.2943(3)
O2 O 0.5264(5) 0.0956(3) 0.3239(3)
O3 O 0.7729(6) 0.1634(3) 0.1467(3)
O4 O 0.5681(6) 0.1873(3) 0.1794(3)
O5 O 0.4902(5) 0.0583(3) 0.1879(3)
O6 O 0.3230(5) 0.1114(3) 0.1465(3)
O7 O 0.2312(5) 0.0786(3) 0.2599(3)
O8 O 0.0207(5) 0.0468(3) 0.2743(3)
O9 O 0.2646(6) 0.2272(3) 0.2220(3)
O10 O 0.0641(5) 0.1986(3) 0.1826(3)
O11 O 1.0058(5) 0.1859(3) 0.3123(3)
O12 O 0.8328(5) 0.2315(3) 0.2676(3)
O13 O 0.2778(5) 0.1774(3) 0.3386(3)
O14 O 0.5499(5) 0.2300(3) 0.2955(3)
O15 O 0.7698(5) 0.0392(3) 0.1876(3)
O16 O 1.0433(5) 0.0781(3) 0.1448(3)
C1 C 0.6562(9) 0.0945(4) 0.3326(4)
C2 C 0.7041(8) 0.0759(4) 0.3931(4)
C3 C 0.615(1) 0.0632(6) 0.4380(6)
C4 C 0.668(1) 0.0500(6) 0.4980(7)
C5 C 0.800(1) 0.0495(6) 0.5068(6)
C6 C 0.887(1) 0.0582(6) 0.4640(6)
C7 C 0.843(1) 0.0727(5) 0.4061(5)
C8 C 0.6558(8) 0.1869(4) 0.1390(4)
C9 C 0.6260(8) 0.2155(4) 0.0809(4)
C10 C 0.491(1) 0.2320(5) 0.0661(5)
C11 C 0.464(1) 0.2577(6) 0.0085(7)
C12 C 0.566(1) 0.2713(6) -0.0291(6)
C13 C 0.694(1) 0.2565(5) -0.0152(5)
C14 C 0.7287(10) 0.2269(5) 0.0398(5)
C15 C 0.4030(9) 0.0652(4) 0.1465(4)
C16 C 0.3877(8) 0.0187(4) 0.0973(4)
C17 C 0.434(1) -0.0399(5) 0.1081(5)
C18 C 0.413(1) -0.0846(6) 0.0592(6)
C19 C 0.354(1) -0.0647(5) 0.0094(5)
C20 C 0.311(1) -0.0089(5) -0.0016(5)
C21 C 0.3281(9) 0.0347(4) 0.0443(5)
C22 C 0.1482(9) 0.0384(4) 0.2762(4)
C23 C 0.1983(8) -0.0222(4) 0.2968(4)
C24 C 0.3380(10) -0.0337(5) 0.2961(5)
C25 C 0.386(1) -0.0934(6) 0.3157(6)
C26 C 0.299(1) -0.1343(6) 0.3337(6)
C27 C 0.163(1) -0.1242(6) 0.3358(6)
C28 C 0.1133(10) -0.0657(5) 0.3173(5)
C29 C 0.1667(9) 0.2331(4) 0.1853(4)
C30 C 0.1727(8) 0.2834(4) 0.1413(4)
C31 C 0.0953(9) 0.2818(5) 0.0898(5)
C32 C 0.098(1) 0.3301(6) 0.0473(6)
C33 C 0.183(1) 0.3786(6) 0.0596(6)
C34 C 0.254(1) 0.3838(6) 0.1110(6)
C35 C 0.253(1) 0.3342(5) 0.1519(5)
C36 C 0.9270(9) 0.2322(4) 0.3057(4)
C37 C 0.9496(8) 0.2870(4) 0.3439(4)
C38 C 0.8892(10) 0.3420(5) 0.3294(5)
C39 C 0.912(1) 0.3929(6) 0.3649(6)
C40 C 0.997(1) 0.3888(7) 0.4145(6)
C41 C 1.061(1) 0.3349(7) 0.4300(6)
C42 C 1.034(1) 0.2824(5) 0.3950(5)
C43 C 0.2633(10) 0.1403(5) 0.3899(5)
C44 C 0.508(1) 0.2882(6) 0.3113(5)
C45 C 0.777(1) -0.0211(6) 0.2078(6)
C46 C 0.9969(10) 0.0776(5) 0.0848(5)
H1 H 0.4195 0.2262 0.0940
H2 H 0.3715 0.2653 -0.0035
H3 H 0.5459 0.2916 -0.0659
H4 H 0.7645 0.2660 -0.0427
H5 H 0.8208 0.2151 0.0481
H6 H 0.5185 0.0629 0.4302
H7 H 0.6070 0.0419 0.5302
H8 H 0.8347 0.0424 0.5462
H9 H 0.9827 0.0547 0.4723
H10 H 0.9076 0.0804 0.3755
H11 H 0.2981 0.0757 0.0381
H12 H 0.2693 0.0017 -0.0389
H13 H 0.3412 -0.0939 -0.0218
H14 H 0.4400 -0.1262 0.0635
H15 H 0.4779 -0.0509 0.1449
H16 H 0.3077 0.3360 0.1873
H17 H 0.3053 0.4199 0.1197
H18 H 0.1908 0.4100 0.0304
H19 H 0.0432 0.3288 0.0118
H20 H 0.0382 0.2474 0.0823
H21 H 0.4007 -0.0032 0.2832
H22 H 0.4816 -0.1026 0.3154
H23 H 0.3324 -0.1733 0.3458
H24 H 0.1025 -0.1551 0.3493
H25 H 0.0178 -0.0574 0.3194
H26 H 1.0737 0.2441 0.4059
H27 H 1.1219 0.3330 0.4635
H28 H 1.0117 0.4241 0.4387
H29 H 0.8693 0.4308 0.3551
H30 H 0.8315 0.3449 0.2949
H31 H 0.5813 0.3093 0.3305
H32 H 0.4801 0.3100 0.2763
H33 H 0.4326 0.2854 0.3380
H34 H 0.2104 0.1614 0.4189
H35 H 0.2185 0.1032 0.3791
H36 H 0.3514 0.1313 0.4063
H37 H 0.9889 0.1185 0.0707
H38 H 1.0606 0.0559 0.0608
H39 H 0.9099 0.0580 0.0825
H40 H 0.7569 -0.0225 0.2494
H41 H 0.7133 -0.0455 0.1862
H42 H 0.8674 -0.0365 0.2017
O8_2 O 1.0207(5) 0.0468(3) 0.2743(3)
O10_2 O 1.0641(5) 0.1986(3) 0.1826(3)
Eu2_2 Eu -0.09116(4) 0.12954(2) 0.22574(2)
loop_
_geom_bond_atom_site_label_1
_geom_bond_atom_site_label_2
_geom_bond_site_symmetry_1
_geom_bond_site_symmetry_2
Eu1 O2 1_555 1_555
Eu2 O1 1_555 1_555
O1 C1 1_555 1_555
O2 C1 1_555 1_555
O3 Eu2 1_555 1_555
O4 Eu1 1_555 1_555
O5 Eu1 1_555 1_555
O6 Eu1 1_555 1_555
O7 Eu1 1_555 1_555
O8 C22 1_555 1_555
O9 Eu1 1_555 1_555
O10 C29 1_555 1_555
O11 Eu2 1_555 1_555
O12 Eu2 1_555 1_555
O13 Eu1 1_555 1_555
O14 Eu1 1_555 1_555
O15 Eu2 1_555 1_555
O16 Eu2 1_555 1_555
C1 C2 1_555 1_555
C2 C3 1_555 1_555
C3 C4 1_555 1_555
C4 C5 1_555 1_555
C5 C6 1_555 1_555
C6 C7 1_555 1_555
C7 C2 1_555 1_555
C8 O3 1_555 1_555
C9 C8 1_555 1_555
C10 C9 1_555 1_555
C11 C10 1_555 1_555
C12 C11 1_555 1_555
C13 C12 1_555 1_555
C14 C9 1_555 1_555
C15 O5 1_555 1_555
C16 C15 1_555 1_555
C17 C16 1_555 1_555
C18 C17 1_555 1_555
C19 C18 1_555 1_555
C20 C19 1_555 1_555
C21 C16 1_555 1_555
C22 O7 1_555 1_555
C23 C22 1_555 1_555
C24 C23 1_555 1_555
C25 C24 1_555 1_555
C26 C25 1_555 1_555
C27 C26 1_555 1_555
C28 C23 1_555 1_555
C29 O9 1_555 1_555
C30 C29 1_555 1_555
C31 C30 1_555 1_555
C32 C31 1_555 1_555
C33 C32 1_555 1_555
C34 C33 1_555 1_555
C35 C30 1_555 1_555
C36 O11 1_555 1_555
C37 C36 1_555 1_555
C38 C37 1_555 1_555
C39 C38 1_555 1_555
C40 C39 1_555 1_555
C41 C40 1_555 1_555
C42 C37 1_555 1_555
C43 O13 1_555 1_555
C44 O14 1_555 1_555
C45 O15 1_555 1_555
C46 O16 1_555 1_555
H1 C10 1_555 1_555
H2 C11 1_555 1_555
H3 C12 1_555 1_555
H4 C13 1_555 1_555
H5 C14 1_555 1_555
H6 C3 1_555 1_555
H7 C4 1_555 1_555
H8 C5 1_555 1_555
H9 C6 1_555 1_555
H10 C7 1_555 1_555
H11 C21 1_555 1_555
H12 C20 1_555 1_555
H13 C19 1_555 1_555
H14 C18 1_555 1_555
H15 C17 1_555 1_555
H16 C35 1_555 1_555
H17 C34 1_555 1_555
H18 C33 1_555 1_555
H19 C32 1_555 1_555
H20 C31 1_555 1_555
H21 C24 1_555 1_555
H22 C25 1_555 1_555
H23 C26 1_555 1_555
H24 C27 1_555 1_555
H25 C28 1_555 1_555
H26 C42 1_555 1_555
H27 C41 1_555 1_555
H28 C40 1_555 1_555
H29 C39 1_555 1_555
H30 C38 1_555 1_555
H31 C44 1_555 1_555
H32 C44 1_555 1_555
H33 C44 1_555 1_555
H34 C43 1_555 1_555
H35 C43 1_555 1_555
H36 C43 1_555 1_555
H37 C46 1_555 1_555
H38 C46 1_555 1_555
H39 C46 1_555 1_555
H40 C45 1_555 1_555
H41 C45 1_555 1_555
H42 C45 1_555 1_555
O8_2 Eu2 1_555 1_555
O10_2 Eu2 1_555 1_555
Eu2_2 O8 1_555 1_555
O4 C8 1_555 1_555
O6 C15 1_555 1_555
O10 Eu2_2 1_555 1_555
O12 C36 1_555 1_555
C13 C14 1_555 1_555
C20 C21 1_555 1_555
C27 C28 1_555 1_555
C34 C35 1_555 1_555
C41 C42 1_555 1_555

#END
