
#######################################################################
#
#                 Cambridge Crystallographic Data Centre
#                                CCDC 
#
#######################################################################
#
# If this CIF has been generated from an entry in the Cambridge 
# Structural Database, then it will include bibliographic, chemical, 
# crystal, experimental, refinement or atomic coordinate data resulting 
# from the CCDC's data processing and validation procedures.
#
#######################################################################

data_LUSCOR07
_symmetry_cell_setting           tetragonal
_symmetry_space_group_name_H-M   'P 42/n'
_symmetry_Int_Tables_number      86
_space_group_name_Hall           'P -4 -1n'
loop_
_symmetry_equiv_pos_site_id
_symmetry_equiv_pos_as_xyz
1 x,y,z
2 -x,-y,z
3 1/2-y,1/2+x,1/2+z
4 1/2+y,1/2-x,1/2+z
5 1/2-x,1/2-y,1/2-z
6 1/2+x,1/2+y,1/2-z
7 y,-x,-z
8 -y,x,-z
_cell_length_a                   20.8918(2)
_cell_length_b                   20.8918(2)
_cell_length_c                   8.9248(2)
_cell_angle_alpha                90
_cell_angle_beta                 90
_cell_angle_gamma                90
_cell_volume                     3895.38
loop_
_atom_site_label
_atom_site_type_symbol
_atom_site_fract_x
_atom_site_fract_y
_atom_site_fract_z
Gd1 Gd 0.736927(12) 0.748723(11) -0.03632(2)
O1 O 0.79378(18) 0.70065(17) -0.2266(3)
O2 O 0.85640(19) 0.6785(2) -0.4154(3)
O3 O 0.66993(19) 0.67478(18) -0.1611(3)
O4 O 0.6942(2) 0.66437(18) -0.4043(3)
O5 O 0.7106(2) 0.66832(18) 0.1308(3)
O6 O 0.7699(2) 0.68765(17) 0.3324(3)
O7 O 0.83771(18) 0.7202(2) 0.0676(3)
N1 N 0.9096(2) 0.7249(2) 0.2572(4)
C1 C 0.8375(2) 0.6674(2) -0.2857(4)
C2 C 0.8646(2) 0.6152(2) -0.1932(4)
C3 C 0.9289(3) 0.6025(3) -0.2085(5)
C4 C 0.9594(3) 0.5622(3) -0.1072(6)
C5 C 0.9242(3) 0.5340(3) 0.0047(5)
C6 C 0.8593(3) 0.5441(2) 0.0156(5)
C7 C 0.8297(2) 0.5863(2) -0.0806(4)
C8 C 0.6699(2) 0.6443(2) -0.2821(4)
C9 C 0.6393(2) 0.5796(2) -0.2845(4)
C10 C 0.6098(2) 0.5565(2) -0.1566(4)
C11 C 0.5799(3) 0.4974(2) -0.1589(5)
C12 C 0.5799(3) 0.4617(3) -0.2871(6)
C13 C 0.6102(3) 0.4837(3) -0.4146(5)
C14 C 0.6398(2) 0.5426(2) -0.4134(4)
C15 C 0.7419(2) 0.6501(2) 0.2453(4)
C16 C 0.7421(2) 0.5805(2) 0.2781(4)
C17 C 0.7789(2) 0.5575(2) 0.3953(4)
C18 C 0.7774(3) 0.4922(2) 0.4276(5)
C19 C 0.7398(3) 0.4519(2) 0.3435(5)
C20 C 0.7036(3) 0.4752(2) 0.2265(5)
C21 C 0.7051(2) 0.5398(2) 0.1932(4)
C22 C 0.8703(2) 0.7508(2) 0.1599(4)
C23 C 0.9451(3) 0.7635(3) 0.3625(6)
C24 C 0.9177(3) 0.6562(3) 0.2641(5)
H1 H 0.9283 0.8063 0.3621
H2 H 0.9894 0.7646 0.3335
H3 H 0.9413 0.7456 0.4611
H4 H 0.8904 0.6359 0.1920
H5 H 0.9615 0.6453 0.2425
H6 H 0.9070 0.6410 0.3626
H7 H 0.9520 0.6209 -0.2866
H8 H 1.0031 0.5544 -0.1151
H9 H 0.9445 0.5077 0.0740
H10 H 0.8355 0.5225 0.0877
H11 H 0.7864 0.5953 -0.0696
H12 H 0.6100 0.5806 -0.0691
H13 H 0.5598 0.4820 -0.0732
H14 H 0.5593 0.4222 -0.2886
H15 H 0.6107 0.4588 -0.5010
H16 H 0.6601 0.5576 -0.4992
H17 H 0.8042 0.5851 0.4515
H18 H 0.8018 0.4759 0.5060
H19 H 0.7388 0.4084 0.3658
H20 H 0.6783 0.4476 0.1702
H21 H 0.6813 0.5557 0.1136
H22 H 0.8666 0.7952 0.1598
Gd1D Gd 0.763073(12) 0.751277(11) -0.46368(2)
Gd1D_2 Gd 0.763073(12) 0.751277(11) 0.53632(2)
O1D O 0.70622(18) 0.79935(17) -0.2734(3)
O2D O 0.64360(19) 0.8215(2) -0.0846(3)
O4D O 0.8058(2) 0.83563(18) -0.0957(3)
O6D O 0.7301(2) 0.81235(17) 0.1676(3)
loop_
_geom_bond_atom_site_label_1
_geom_bond_atom_site_label_2
_geom_bond_site_symmetry_1
_geom_bond_site_symmetry_2
Gd1 O1 1_555 1_555
O1 C1 1_555 1_555
O2 C1 1_555 1_555
O3 Gd1 1_555 1_555
O4 C8 1_555 1_555
O5 Gd1 1_555 1_555
O6 C15 1_555 1_555
O7 Gd1 1_555 1_555
N1 C22 1_555 1_555
C1 C2 1_555 1_555
C2 C3 1_555 1_555
C3 C4 1_555 1_555
C4 C5 1_555 1_555
C5 C6 1_555 1_555
C6 C7 1_555 1_555
C7 C2 1_555 1_555
C8 O3 1_555 1_555
C9 C8 1_555 1_555
C10 C9 1_555 1_555
C11 C10 1_555 1_555
C12 C11 1_555 1_555
C13 C12 1_555 1_555
C14 C9 1_555 1_555
C15 O5 1_555 1_555
C16 C15 1_555 1_555
C17 C16 1_555 1_555
C18 C17 1_555 1_555
C19 C18 1_555 1_555
C20 C19 1_555 1_555
C21 C16 1_555 1_555
C22 O7 1_555 1_555
C23 N1 1_555 1_555
C24 N1 1_555 1_555
H1 C23 1_555 1_555
H2 C23 1_555 1_555
H3 C23 1_555 1_555
H4 C24 1_555 1_555
H5 C24 1_555 1_555
H6 C24 1_555 1_555
H7 C3 1_555 1_555
H8 C4 1_555 1_555
H9 C5 1_555 1_555
H10 C6 1_555 1_555
H11 C7 1_555 1_555
H12 C10 1_555 1_555
H13 C11 1_555 1_555
H14 C12 1_555 1_555
H15 C13 1_555 1_555
H16 C14 1_555 1_555
H17 C17 1_555 1_555
H18 C18 1_555 1_555
H19 C19 1_555 1_555
H20 C20 1_555 1_555
H21 C21 1_555 1_555
H22 C22 1_555 1_555
Gd1D O1 1_555 1_555
Gd1D_2 O6 1_555 1_555
O1D Gd1 1_555 1_555
O2D Gd1 1_555 1_555
O4D Gd1 1_555 1_555
O6D Gd1 1_555 1_555
O2 Gd1D 1_555 1_555
O4 Gd1D 1_555 1_555
C13 C14 1_555 1_555
C20 C21 1_555 1_555
Gd1D O1D 1_555 1_555

#END
