
#######################################################################
#
#                 Cambridge Crystallographic Data Centre
#                                CCDC 
#
#######################################################################
#
# If this CIF has been generated from an entry in the Cambridge 
# Structural Database, then it will include bibliographic, chemical, 
# crystal, experimental, refinement or atomic coordinate data resulting 
# from the CCDC's data processing and validation procedures.
#
#######################################################################

data_LUSCOR09
_symmetry_cell_setting           tetragonal
_symmetry_space_group_name_H-M   'P -4'
_symmetry_Int_Tables_number      81
_space_group_name_Hall           'P -4'
loop_
_symmetry_equiv_pos_site_id
_symmetry_equiv_pos_as_xyz
1 x,y,z
2 y,-x,-z
3 -x,-y,z
4 -y,x,-z
_cell_length_a                   20.0734(2)
_cell_length_b                   20.0734(2)
_cell_length_c                   9.13850(10)
_cell_angle_alpha                90
_cell_angle_beta                 90
_cell_angle_gamma                90
_cell_volume                     3682.28
loop_
_atom_site_label
_atom_site_type_symbol
_atom_site_fract_x
_atom_site_fract_y
_atom_site_fract_z
Gd1 Gd 0.23638(2) 0.27165(2) -0.44345(3)
Gd2 Gd 0.20954(2) 0.27744(2) -0.02790(3)
N1 N 0.3817(5) 0.2695(4) 0.2796(7)
N2 N 0.0641(4) 0.2724(3) -0.7492(7)
O1 O 0.2768(3) 0.2289(3) -0.2003(5)
O2 O 0.3314(3) 0.1973(3) -0.3951(5)
O3 O 0.1535(4) 0.1817(4) -0.1382(6)
O4 O 0.1821(4) 0.1766(3) -0.3750(6)
O5 O 0.2546(3) 0.2148(3) -0.6537(5)
O6 O 0.1982(4) 0.1956(3) -0.8587(6)
O7 O 0.3162(4) 0.2614(3) 0.0786(6)
O8 O 0.1678(3) 0.3212(4) -0.2680(6)
O9 O 0.1175(3) 0.3590(3) -0.0718(6)
O10 O 0.3027(4) 0.3522(4) -0.3369(6)
O11 O 0.2732(3) 0.3690(3) -0.1037(6)
O12 O 0.2416(4) 0.3582(4) -0.6035(6)
O13 O 0.1949(3) 0.3390(3) -0.8189(6)
O14 O 0.1290(4) 0.2768(4) -0.5470(6)
C1 C 0.3173(4) 0.1902(4) -0.2644(6)
C2 C 0.3494(3) 0.1355(3) -0.1806(6)
C3 C 0.3194(3) 0.1075(3) -0.0591(7)
C4 C 0.3520(4) 0.0579(3) 0.0185(7)
C5 C 0.4145(4) 0.0379(4) -0.0250(7)
C6 C 0.4451(4) 0.0658(4) -0.1440(7)
C7 C 0.4121(4) 0.1139(4) -0.2225(7)
C8 C 0.1598(4) 0.1503(3) -0.2605(6)
C9 C 0.1341(3) 0.0810(3) -0.2725(6)
C10 C 0.0993(4) 0.0522(4) -0.1602(7)
C11 C 0.0721(4) -0.0111(4) -0.1774(7)
C12 C 0.0800(4) -0.0434(4) -0.3075(8)
C13 C 0.1150(4) -0.0152(4) -0.4204(8)
C14 C 0.1422(4) 0.0470(4) -0.4017(7)
C15 C 0.2316(4) 0.1762(3) -0.7464(7)
C16 C 0.2372(4) 0.1030(3) -0.7271(6)
C17 C 0.2805(4) 0.0775(4) -0.6245(7)
C18 C 0.2862(4) 0.0090(4) -0.6073(7)
C19 C 0.2475(4) -0.0320(4) -0.6911(8)
C20 C 0.2041(4) -0.0066(4) -0.7938(8)
C21 C 0.1992(4) 0.0611(4) -0.8114(7)
C22 C 0.3420(5) 0.2945(4) 0.1786(8)
C23 C 0.4016(6) 0.3073(6) 0.4077(10)
C24 C 0.4002(7) 0.2004(5) 0.2790(11)
C25 C 0.3058(4) 0.3843(4) -0.2196(6)
C26 C 0.3493(3) 0.4436(3) -0.2130(6)
C27 C 0.3853(4) 0.4618(4) -0.3350(7)
C28 C 0.1325(5) 0.3656(4) -0.2032(6)
C29 C 0.1121(3) 0.4255(3) -0.2890(6)
C30 C 0.1163(4) 0.4239(4) -0.4391(7)
C31 C 0.0957(4) 0.4779(4) -0.5227(7)
C32 C 0.0716(4) 0.5332(4) -0.4542(8)
C33 C 0.0674(4) 0.5358(4) -0.3036(7)
C34 C 0.0881(4) 0.4824(4) -0.2213(7)
C35 C 0.4283(4) 0.5162(4) -0.3272(7)
C36 C 0.4337(4) 0.5509(4) -0.1985(8)
C37 C 0.3975(4) 0.5327(4) -0.0775(8)
C38 C 0.3551(4) 0.4792(4) -0.0847(7)
C39 C 0.2236(5) 0.3771(3) -0.7269(6)
C40 C 0.2390(3) 0.4468(3) -0.7697(6)
C41 C 0.2115(4) 0.4742(4) -0.8937(7)
C42 C 0.2302(4) 0.5380(4) -0.9372(7)
C43 C 0.2759(4) 0.5723(4) -0.8561(8)
C44 C 0.3035(4) 0.5450(4) -0.7319(7)
C45 C 0.2843(4) 0.4826(4) -0.6879(7)
C46 C 0.1044(5) 0.2454(4) -0.6520(7)
C47 C 0.0457(6) 0.3414(4) -0.7415(10)
C48 C 0.0432(6) 0.2365(5) -0.8771(9)
H1 H 0.3895 0.3534 0.3944
H2 H 0.4486 0.3038 0.4215
H3 H 0.3788 0.2902 0.4924
H4 H 0.3785 0.1781 0.1995
H5 H 0.4477 0.1969 0.2678
H6 H 0.3872 0.1804 0.3700
H7 H 0.0649 0.1941 -0.8804
H8 H 0.0544 0.2616 -0.9632
H9 H -0.0042 0.2300 -0.8738
H10 H 0.0660 0.3612 -0.6564
H11 H 0.0614 0.3641 -0.8272
H12 H -0.0016 0.3451 -0.7343
H13 H 0.2776 0.1221 -0.0294
H14 H 0.3318 0.0383 0.0993
H15 H 0.4361 0.0044 0.0269
H16 H 0.4876 0.0521 -0.1715
H17 H 0.4323 0.1324 -0.3048
H18 H 0.0931 0.0752 -0.0729
H19 H 0.0493 -0.0314 -0.1010
H20 H 0.0626 -0.0861 -0.3188
H21 H 0.1208 -0.0380 -0.5080
H22 H 0.1656 0.0667 -0.4780
H23 H 0.3059 0.1061 -0.5670
H24 H 0.3161 -0.0086 -0.5398
H25 H 0.2506 -0.0779 -0.6786
H26 H 0.1783 -0.0351 -0.8503
H27 H 0.1701 0.0785 -0.8806
H28 H 0.3326 0.3399 0.1825
H29 H 0.3813 0.4377 -0.4216
H30 H 0.4531 0.5290 -0.4085
H31 H 0.4618 0.5876 -0.1934
H32 H 0.4014 0.5567 0.0089
H33 H 0.3307 0.4665 -0.0029
H34 H 0.1328 0.3861 -0.4853
H35 H 0.0984 0.4764 -0.6243
H36 H 0.0584 0.5698 -0.5094
H37 H 0.0509 0.5737 -0.2577
H38 H 0.0855 0.4842 -0.1198
H39 H 0.1812 0.4498 -0.9488
H40 H 0.2114 0.5571 -1.0202
H41 H 0.2875 0.6154 -0.8839
H42 H 0.3343 0.5690 -0.6776
H43 H 0.3027 0.4639 -0.6039
H44 H 0.1152 0.2005 -0.6622
Gd2_2 Gd 0.20954(2) 0.27744(2) -1.02790(3)
O6_2 O 0.1982(4) 0.1956(3) 0.1413(6)
O13_2 O 0.1949(3) 0.3390(3) 0.1811(6)
loop_
_geom_bond_atom_site_label_1
_geom_bond_atom_site_label_2
_geom_bond_site_symmetry_1
_geom_bond_site_symmetry_2
Gd1 O1 1_555 1_555
Gd2 O1 1_555 1_555
N1 C22 1_555 1_555
N2 C46 1_555 1_555
O1 C1 1_555 1_555
O2 Gd1 1_555 1_555
O3 Gd2 1_555 1_555
O4 Gd1 1_555 1_555
O5 Gd1 1_555 1_555
O6 C15 1_555 1_555
O7 Gd2 1_555 1_555
O8 Gd1 1_555 1_555
O9 Gd2 1_555 1_555
O10 Gd1 1_555 1_555
O11 Gd2 1_555 1_555
O12 Gd1 1_555 1_555
O13 C39 1_555 1_555
O14 Gd1 1_555 1_555
C1 O2 1_555 1_555
C2 C1 1_555 1_555
C3 C2 1_555 1_555
C4 C3 1_555 1_555
C5 C4 1_555 1_555
C6 C5 1_555 1_555
C7 C2 1_555 1_555
C8 O3 1_555 1_555
C9 C8 1_555 1_555
C10 C9 1_555 1_555
C11 C10 1_555 1_555
C12 C11 1_555 1_555
C13 C12 1_555 1_555
C14 C9 1_555 1_555
C15 O5 1_555 1_555
C16 C15 1_555 1_555
C17 C16 1_555 1_555
C18 C17 1_555 1_555
C19 C18 1_555 1_555
C20 C19 1_555 1_555
C21 C16 1_555 1_555
C22 O7 1_555 1_555
C23 N1 1_555 1_555
C24 N1 1_555 1_555
C25 O10 1_555 1_555
C26 C25 1_555 1_555
C27 C26 1_555 1_555
C28 O8 1_555 1_555
C29 C28 1_555 1_555
C30 C29 1_555 1_555
C31 C30 1_555 1_555
C32 C31 1_555 1_555
C33 C32 1_555 1_555
C34 C29 1_555 1_555
C35 C27 1_555 1_555
C36 C35 1_555 1_555
C37 C36 1_555 1_555
C38 C26 1_555 1_555
C39 O12 1_555 1_555
C40 C39 1_555 1_555
C41 C40 1_555 1_555
C42 C41 1_555 1_555
C43 C42 1_555 1_555
C44 C43 1_555 1_555
C45 C40 1_555 1_555
C46 O14 1_555 1_555
C47 N2 1_555 1_555
C48 N2 1_555 1_555
H1 C23 1_555 1_555
H2 C23 1_555 1_555
H3 C23 1_555 1_555
H4 C24 1_555 1_555
H5 C24 1_555 1_555
H6 C24 1_555 1_555
H7 C48 1_555 1_555
H8 C48 1_555 1_555
H9 C48 1_555 1_555
H10 C47 1_555 1_555
H11 C47 1_555 1_555
H12 C47 1_555 1_555
H13 C3 1_555 1_555
H14 C4 1_555 1_555
H15 C5 1_555 1_555
H16 C6 1_555 1_555
H17 C7 1_555 1_555
H18 C10 1_555 1_555
H19 C11 1_555 1_555
H20 C12 1_555 1_555
H21 C13 1_555 1_555
H22 C14 1_555 1_555
H23 C17 1_555 1_555
H24 C18 1_555 1_555
H25 C19 1_555 1_555
H26 C20 1_555 1_555
H27 C21 1_555 1_555
H28 C22 1_555 1_555
H29 C27 1_555 1_555
H30 C35 1_555 1_555
H31 C36 1_555 1_555
H32 C37 1_555 1_555
H33 C38 1_555 1_555
H34 C30 1_555 1_555
H35 C31 1_555 1_555
H36 C32 1_555 1_555
H37 C33 1_555 1_555
H38 C34 1_555 1_555
H39 C41 1_555 1_555
H40 C42 1_555 1_555
H41 C43 1_555 1_555
H42 C44 1_555 1_555
H43 C45 1_555 1_555
H44 C46 1_555 1_555
Gd2_2 O6 1_555 1_555
O6_2 Gd2 1_555 1_555
O13_2 Gd2 1_555 1_555
Gd2 O8 1_555 1_555
O4 C8 1_555 1_555
O9 C28 1_555 1_555
O11 C25 1_555 1_555
O13 Gd2_2 1_555 1_555
C6 C7 1_555 1_555
C13 C14 1_555 1_555
C20 C21 1_555 1_555
C33 C34 1_555 1_555
C37 C38 1_555 1_555
C44 C45 1_555 1_555

#END
