
#######################################################################
#
#                 Cambridge Crystallographic Data Centre
#                                CCDC 
#
#######################################################################
#
# If this CIF has been generated from an entry in the Cambridge 
# Structural Database, then it will include bibliographic, chemical, 
# crystal, experimental, refinement or atomic coordinate data resulting 
# from the CCDC's data processing and validation procedures.
#
#######################################################################

data_LUSCEH
_symmetry_cell_setting           monoclinic
_symmetry_space_group_name_H-M   'P 21/c'
_symmetry_Int_Tables_number      14
_space_group_name_Hall           '-P 2ybc'
loop_
_symmetry_equiv_pos_site_id
_symmetry_equiv_pos_as_xyz
1 x,y,z
2 -x,1/2+y,1/2-z
3 -x,-y,-z
4 x,1/2-y,1/2+z
_cell_length_a                   9.7180(9)
_cell_length_b                   21.847(1)
_cell_length_c                   22.259(1)
_cell_angle_alpha                90
_cell_angle_beta                 90.53(2)
_cell_angle_gamma                90
_cell_volume                     4725.59
loop_
_atom_site_label
_atom_site_type_symbol
_atom_site_fract_x
_atom_site_fract_y
_atom_site_fract_z
Tb1 Tb 0.41234(8) 0.14825(5) 0.24574(5)
Tb2 Tb 0.91045(8) 0.13101(5) 0.22533(5)
O1 O 0.776(1) 0.1650(6) 0.1476(6)
O2 O 0.570(1) 0.1881(6) 0.1799(6)
O3 O 0.528(1) 0.0981(6) 0.3218(5)
O4 O 0.743(1) 0.1095(7) 0.2937(5)
O5 O 0.4917(10) 0.0597(6) 0.1895(6)
O6 O 0.324(1) 0.1113(6) 0.1472(5)
O7 O 0.268(1) 0.2268(5) 0.2220(6)
O8 O 0.064(1) 0.1990(6) 0.1824(6)
O9 O 1.007(1) 0.1858(6) 0.3100(6)
O10 O 0.837(1) 0.2317(6) 0.2653(6)
O11 O 0.237(1) 0.0800(6) 0.2589(6)
O12 O 0.024(1) 0.0506(6) 0.2726(6)
O13 O 0.282(1) 0.1781(6) 0.3367(6)
O14 O 1.043(1) 0.0794(6) 0.1446(6)
O15 O 0.773(1) 0.0417(7) 0.1883(7)
O16 O 0.549(1) 0.2299(6) 0.2938(6)
C1 C 0.660(2) 0.1885(9) 0.1392(9)
C2 C 0.627(2) 0.2149(8) 0.0800(8)
C3 C 0.495(2) 0.232(1) 0.065(1)
C4 C 0.463(3) 0.255(1) 0.007(2)
C5 C 0.566(3) 0.270(1) -0.029(1)
C6 C 0.698(2) 0.256(1) -0.015(1)
C7 C 0.733(2) 0.226(1) 0.040(1)
C8 C 0.658(2) 0.0964(8) 0.3318(9)
C9 C 0.704(2) 0.0749(9) 0.3918(9)
C10 C 0.615(2) 0.062(1) 0.436(1)
C11 C 0.662(3) 0.047(1) 0.496(1)
C12 C 0.804(3) 0.049(1) 0.506(1)
C13 C 0.887(2) 0.058(1) 0.464(1)
C14 C 0.848(2) 0.075(1) 0.405(1)
C15 C 0.405(2) 0.0662(10) 0.1490(10)
C16 C 0.389(2) 0.0186(10) 0.0982(10)
C17 C 0.438(2) -0.039(1) 0.110(1)
C18 C 0.417(3) -0.083(1) 0.061(1)
C19 C 0.356(2) -0.065(1) 0.011(1)
C20 C 0.314(2) -0.008(1) -0.001(1)
C21 C 0.331(2) 0.035(1) 0.044(1)
C22 C 0.170(2) 0.2321(9) 0.1842(9)
C23 C 0.174(2) 0.2831(9) 0.1410(9)
C24 C 0.095(2) 0.283(1) 0.089(1)
C25 C 0.103(2) 0.328(1) 0.045(1)
C26 C 0.184(2) 0.378(1) 0.057(1)
C27 C 0.258(2) 0.383(1) 0.110(1)
C28 C 0.253(2) 0.333(1) 0.152(1)
C29 C 0.930(2) 0.2324(10) 0.3051(9)
C30 C 0.951(2) 0.2875(10) 0.3425(9)
C31 C 0.888(2) 0.343(1) 0.329(1)
C32 C 0.911(2) 0.393(1) 0.364(1)
C33 C 0.995(2) 0.388(1) 0.414(1)
C34 C 1.063(3) 0.336(1) 0.429(1)
C35 C 1.033(2) 0.285(1) 0.393(1)
C36 C 0.151(2) 0.0411(10) 0.2767(9)
C37 C 0.198(2) -0.0195(9) 0.2980(8)
C38 C 0.108(2) -0.063(1) 0.317(1)
C39 C 0.155(3) -0.121(1) 0.335(1)
C40 C 0.291(3) -0.134(1) 0.335(1)
C41 C 0.384(2) -0.092(1) 0.317(1)
C42 C 0.339(2) -0.032(1) 0.299(1)
C43 C 0.268(2) 0.143(1) 0.388(1)
C44 C 0.995(2) 0.076(1) 0.084(1)
C45 C 0.780(3) -0.019(1) 0.209(1)
C46 C 0.506(2) 0.289(1) 0.309(1)
H1 H 0.4241 0.2291 0.0946
H2 H 0.3699 0.2589 -0.0065
H3 H 0.5468 0.2919 -0.0651
H4 H 0.7691 0.2666 -0.0420
H5 H 0.8245 0.2143 0.0489
H6 H 0.5185 0.0624 0.4276
H7 H 0.5994 0.0356 0.5266
H8 H 0.8390 0.0439 0.5457
H9 H 0.9820 0.0523 0.4719
H10 H 0.9137 0.0858 0.3756
H11 H 0.4822 -0.0496 0.1465
H12 H 0.4472 -0.1240 0.0655
H13 H 0.3396 -0.0958 -0.0184
H14 H 0.2736 0.0018 -0.0388
H15 H 0.3032 0.0766 0.0376
H16 H 0.0332 0.2496 0.0823
H17 H 0.0526 0.3250 0.0087
H18 H 0.1905 0.4096 0.0274
H19 H 0.3101 0.4185 0.1191
H20 H 0.3068 0.3351 0.1878
H21 H 0.8292 0.3469 0.2943
H22 H 0.8685 0.4308 0.3551
H23 H 1.0066 0.4234 0.4386
H24 H 1.1258 0.3339 0.4614
H25 H 1.0721 0.2463 0.4040
H26 H 0.0127 -0.0541 0.3186
H27 H 0.0905 -0.1514 0.3471
H28 H 0.3212 -0.1730 0.3489
H29 H 0.4790 -0.1025 0.3160
H30 H 0.4030 -0.0010 0.2874
H31 H 0.2137 0.1651 0.4164
H32 H 0.2235 0.1058 0.3784
H33 H 0.3559 0.1353 0.4050
H34 H 0.9837 0.1162 0.0687
H35 H 1.0599 0.0544 0.0607
H36 H 0.9091 0.0552 0.0830
H37 H 0.7561 -0.0210 0.2500
H38 H 0.7172 -0.0439 0.1861
H39 H 0.8705 -0.0347 0.2038
H40 H 0.5806 0.3102 0.3279
H41 H 0.4774 0.3101 0.2743
H42 H 0.4320 0.2862 0.3367
O8_2 O 1.064(1) 0.1990(6) 0.1824(6)
O12_2 O 1.024(1) 0.0506(6) 0.2726(6)
Tb2_2 Tb -0.08955(8) 0.13101(5) 0.22533(5)
loop_
_geom_bond_atom_site_label_1
_geom_bond_atom_site_label_2
_geom_bond_site_symmetry_1
_geom_bond_site_symmetry_2
Tb1 O2 1_555 1_555
Tb2 O1 1_555 1_555
O1 C1 1_555 1_555
O2 C1 1_555 1_555
O3 Tb1 1_555 1_555
O4 Tb2 1_555 1_555
O5 Tb1 1_555 1_555
O6 Tb1 1_555 1_555
O7 Tb1 1_555 1_555
O8 C22 1_555 1_555
O9 Tb2 1_555 1_555
O10 Tb2 1_555 1_555
O11 Tb1 1_555 1_555
O12 C36 1_555 1_555
O13 Tb1 1_555 1_555
O14 Tb2 1_555 1_555
O15 Tb2 1_555 1_555
O16 Tb1 1_555 1_555
C1 C2 1_555 1_555
C2 C3 1_555 1_555
C3 C4 1_555 1_555
C4 C5 1_555 1_555
C5 C6 1_555 1_555
C6 C7 1_555 1_555
C7 C2 1_555 1_555
C8 O3 1_555 1_555
C9 C8 1_555 1_555
C10 C9 1_555 1_555
C11 C10 1_555 1_555
C12 C11 1_555 1_555
C13 C12 1_555 1_555
C14 C9 1_555 1_555
C15 O5 1_555 1_555
C16 C15 1_555 1_555
C17 C16 1_555 1_555
C18 C17 1_555 1_555
C19 C18 1_555 1_555
C20 C19 1_555 1_555
C21 C16 1_555 1_555
C22 O7 1_555 1_555
C23 C22 1_555 1_555
C24 C23 1_555 1_555
C25 C24 1_555 1_555
C26 C25 1_555 1_555
C27 C26 1_555 1_555
C28 C23 1_555 1_555
C29 O9 1_555 1_555
C30 C29 1_555 1_555
C31 C30 1_555 1_555
C32 C31 1_555 1_555
C33 C32 1_555 1_555
C34 C33 1_555 1_555
C35 C30 1_555 1_555
C36 O11 1_555 1_555
C37 C36 1_555 1_555
C38 C37 1_555 1_555
C39 C38 1_555 1_555
C40 C39 1_555 1_555
C41 C40 1_555 1_555
C42 C37 1_555 1_555
C43 O13 1_555 1_555
C44 O14 1_555 1_555
C45 O15 1_555 1_555
C46 O16 1_555 1_555
H1 C3 1_555 1_555
H2 C4 1_555 1_555
H3 C5 1_555 1_555
H4 C6 1_555 1_555
H5 C7 1_555 1_555
H6 C10 1_555 1_555
H7 C11 1_555 1_555
H8 C12 1_555 1_555
H9 C13 1_555 1_555
H10 C14 1_555 1_555
H11 C17 1_555 1_555
H12 C18 1_555 1_555
H13 C19 1_555 1_555
H14 C20 1_555 1_555
H15 C21 1_555 1_555
H16 C24 1_555 1_555
H17 C25 1_555 1_555
H18 C26 1_555 1_555
H19 C27 1_555 1_555
H20 C28 1_555 1_555
H21 C31 1_555 1_555
H22 C32 1_555 1_555
H23 C33 1_555 1_555
H24 C34 1_555 1_555
H25 C35 1_555 1_555
H26 C38 1_555 1_555
H27 C39 1_555 1_555
H28 C40 1_555 1_555
H29 C41 1_555 1_555
H30 C42 1_555 1_555
H31 C43 1_555 1_555
H32 C43 1_555 1_555
H33 C43 1_555 1_555
H34 C44 1_555 1_555
H35 C44 1_555 1_555
H36 C44 1_555 1_555
H37 C45 1_555 1_555
H38 C45 1_555 1_555
H39 C45 1_555 1_555
H40 C46 1_555 1_555
H41 C46 1_555 1_555
H42 C46 1_555 1_555
O8_2 Tb2 1_555 1_555
O12_2 Tb2 1_555 1_555
Tb2_2 O8 1_555 1_555
O4 C8 1_555 1_555
O6 C15 1_555 1_555
O10 C29 1_555 1_555
O12 Tb2_2 1_555 1_555
C13 C14 1_555 1_555
C20 C21 1_555 1_555
C27 C28 1_555 1_555
C34 C35 1_555 1_555
C41 C42 1_555 1_555

#END
