
#######################################################################
#
#                 Cambridge Crystallographic Data Centre
#                                CCDC 
#
#######################################################################
#
# If this CIF has been generated from an entry in the Cambridge 
# Structural Database, then it will include bibliographic, chemical, 
# crystal, experimental, refinement or atomic coordinate data resulting 
# from the CCDC's data processing and validation procedures.
#
#######################################################################

data_LUSCAD
_symmetry_cell_setting           monoclinic
_symmetry_space_group_name_H-M   'P 21/c'
_symmetry_Int_Tables_number      14
_space_group_name_Hall           '-P 2ybc'
loop_
_symmetry_equiv_pos_site_id
_symmetry_equiv_pos_as_xyz
1 x,y,z
2 -x,1/2+y,1/2-z
3 -x,-y,-z
4 x,1/2-y,1/2+z
_cell_length_a                   9.7370(8)
_cell_length_b                   21.835(1)
_cell_length_c                   22.276(1)
_cell_angle_alpha                90
_cell_angle_beta                 90.53(2)
_cell_angle_gamma                90
_cell_volume                     4735.84
loop_
_atom_site_label
_atom_site_type_symbol
_atom_site_fract_x
_atom_site_fract_y
_atom_site_fract_z
Gd1 Gd -0.40948(5) 0.63001(3) 0.27454(3)
Gd2 Gd -0.91146(5) 0.64796(3) 0.25384(3)
O1 O -0.5224(7) 0.5476(4) 0.2261(4)
O2 O -0.7342(8) 0.5785(5) 0.2395(4)
O3 O -0.5650(8) 0.6986(4) 0.3175(4)
O4 O -0.7655(8) 0.7260(4) 0.2794(4)
O5 O -0.8231(8) 0.6105(4) 0.3533(4)
O6 O -0.9922(8) 0.5578(4) 0.3115(4)
O7 O -0.0274(8) 0.5956(4) 0.1767(4)
O8 O -0.2388(8) 0.6095(4) 0.2056(4)
O9 O -0.0673(8) 0.6870(4) 0.3202(4)
O10 O -0.2744(9) 0.6637(5) 0.3542(5)
O11 O -0.3332(8) 0.7305(4) 0.2335(4)
O12 O -0.5044(3) 0.6858(2) 0.1878(2)
O13 O -0.7812(7) 0.6771(4) 0.1613(4)
O14 O -1.0457(8) 0.7306(4) 0.2040(4)
O15 O -0.5415(7) 0.5784(4) 0.3554(4)
O16 O -0.2727(8) 0.5391(5) 0.3118(4)
C1 C -0.651(1) 0.5386(6) 0.2243(5)
C2 C -0.701(1) 0.4795(6) 0.2025(5)
C3 C -0.840(1) 0.4665(8) 0.2028(8)
C4 C -0.882(2) 0.410(1) 0.1854(9)
C5 C -0.805(2) 0.367(1) 0.166(1)
C6 C -0.656(2) 0.380(1) 0.164(1)
C7 C -0.608(2) 0.4338(9) 0.1831(8)
C8 C -0.669(1) 0.7328(5) 0.3156(5)
C9 C -0.672(1) 0.7839(6) 0.3600(6)
C10 C -0.755(2) 0.8351(8) 0.3477(8)
C11 C -0.754(2) 0.8847(10) 0.387(1)
C12 C -0.680(2) 0.881(1) 0.441(1)
C13 C -0.594(2) 0.829(1) 0.4524(9)
C14 C -0.590(1) 0.7808(7) 0.4111(7)
C15 C -0.901(2) 0.5639(8) 0.3533(7)
C16 C -0.886(1) 0.5185(7) 0.4010(6)
C17 C -0.828(1) 0.5349(7) 0.4559(7)
C18 C -0.810(2) 0.4939(9) 0.5021(8)
C19 C -0.849(2) 0.436(1) 0.4929(10)
C20 C -0.909(2) 0.416(1) 0.440(1)
C21 C -0.935(2) 0.4585(10) 0.3919(9)
C22 C -0.152(1) 0.5940(5) 0.1676(5)
C23 C -0.204(1) 0.5754(6) 0.1071(6)
C24 C -0.111(2) 0.5607(9) 0.0630(10)
C25 C -0.164(2) 0.549(1) 0.002(1)
C26 C -0.300(2) 0.5466(10) -0.008(1)
C27 C -0.392(2) 0.5573(9) 0.0372(10)
C28 C -0.347(1) 0.5721(8) 0.0939(8)
C29 C -0.159(1) 0.6864(5) 0.3608(6)
C30 C -0.127(1) 0.7161(6) 0.4196(6)
C31 C 0.012(2) 0.7302(8) 0.4365(9)
C32 C 0.043(2) 0.7552(10) 0.492(1)
C33 C -0.064(2) 0.771(1) 0.532(1)
C34 C -0.205(2) 0.7572(10) 0.518(1)
C35 C -0.228(1) 0.7283(8) 0.4603(8)
C36 C -0.423(1) 0.7352(6) 0.1952(6)
C37 C -0.453(1) 0.7891(7) 0.1557(6)
C38 C -0.388(2) 0.8435(9) 0.1717(8)
C39 C -0.407(2) 0.897(1) 0.136(1)
C40 C -0.495(2) 0.893(1) 0.084(1)
C41 C -0.557(2) 0.836(1) 0.069(1)
C42 C -0.536(2) 0.7847(9) 0.1038(9)
C43 C -0.765(1) 0.6381(8) 0.1103(8)
C44 C -1.007(2) 0.7901(10) 0.1882(9)
C45 C -0.498(1) 0.5783(8) 0.4161(8)
C46 C -0.281(2) 0.4774(10) 0.2896(9)
H1 H -0.3715 0.4624 0.2941
H2 H -0.2568 0.4768 0.2483
H3 H -0.2186 0.4522 0.3117
H4 H -0.5614 0.5560 0.4396
H5 H -0.4097 0.5596 0.4192
H6 H -0.4921 0.6193 0.4303
H7 H -0.8523 0.6281 0.0940
H8 H -0.7119 0.6587 0.0808
H9 H -0.7187 0.6016 0.1222
H10 H -0.9789 0.8119 0.2232
H11 H -0.9322 0.7883 0.1609
H12 H -1.0820 0.8105 0.1697
H13 H -0.5759 0.7467 0.0927
H14 H -0.6150 0.8339 0.0346
H15 H -0.5109 0.9285 0.0601
H16 H -0.3634 0.9348 0.1466
H17 H -0.3298 0.8448 0.2063
H18 H -0.0160 0.5581 0.0718
H19 H -0.1021 0.5435 -0.0306
H20 H -0.3339 0.5371 -0.0471
H21 H -0.4873 0.5545 0.0291
H22 H -0.4119 0.5802 0.1245
H23 H -0.5120 0.4415 0.1838
H24 H -0.5949 0.3494 0.1488
H25 H -0.8424 0.3294 0.1526
H26 H -0.9772 0.4008 0.1883
H27 H -0.9045 0.4966 0.2149
H28 H -0.8113 0.8360 0.3127
H29 H -0.8041 0.9209 0.3778
H30 H -0.6870 0.9124 0.4695
H31 H -0.5401 0.8272 0.4880
H32 H -0.5325 0.7465 0.4180
H33 H -0.3190 0.7170 0.4499
H34 H -0.2775 0.7664 0.5449
H35 H -0.0420 0.7908 0.5690
H36 H 0.1366 0.7619 0.5034
H37 H 0.0836 0.7222 0.4090
H38 H -0.8007 0.5762 0.4618
H39 H -0.7704 0.5062 0.5393
H40 H -0.8356 0.4073 0.5242
H41 H -0.9329 0.3745 0.4356
H42 H -0.9813 0.4466 0.3562
O7_2 O -1.0274(8) 0.5956(4) 0.1767(4)
O9_2 O -1.0673(8) 0.6870(4) 0.3202(4)
Gd2_2 Gd 0.08854(5) 0.64796(3) 0.25384(3)
loop_
_geom_bond_atom_site_label_1
_geom_bond_atom_site_label_2
_geom_bond_site_symmetry_1
_geom_bond_site_symmetry_2
Gd1 O1 1_555 1_555
Gd2 O2 1_555 1_555
O1 C1 1_555 1_555
O2 C1 1_555 1_555
O3 Gd1 1_555 1_555
O4 Gd2 1_555 1_555
O5 Gd2 1_555 1_555
O6 Gd2 1_555 1_555
O7 C22 1_555 1_555
O8 Gd1 1_555 1_555
O9 C29 1_555 1_555
O10 Gd1 1_555 1_555
O11 Gd1 1_555 1_555
O12 Gd1 1_555 1_555
O13 Gd2 1_555 1_555
O14 Gd2 1_555 1_555
O15 Gd1 1_555 1_555
O16 Gd1 1_555 1_555
C1 C2 1_555 1_555
C2 C3 1_555 1_555
C3 C4 1_555 1_555
C4 C5 1_555 1_555
C5 C6 1_555 1_555
C6 C7 1_555 1_555
C7 C2 1_555 1_555
C8 O3 1_555 1_555
C9 C8 1_555 1_555
C10 C9 1_555 1_555
C11 C10 1_555 1_555
C12 C11 1_555 1_555
C13 C12 1_555 1_555
C14 C9 1_555 1_555
C15 O5 1_555 1_555
C16 C15 1_555 1_555
C17 C16 1_555 1_555
C18 C17 1_555 1_555
C19 C18 1_555 1_555
C20 C19 1_555 1_555
C21 C16 1_555 1_555
C22 O8 1_555 1_555
C23 C22 1_555 1_555
C24 C23 1_555 1_555
C25 C24 1_555 1_555
C26 C25 1_555 1_555
C27 C26 1_555 1_555
C28 C23 1_555 1_555
C29 O10 1_555 1_555
C30 C29 1_555 1_555
C31 C30 1_555 1_555
C32 C31 1_555 1_555
C33 C32 1_555 1_555
C34 C33 1_555 1_555
C35 C30 1_555 1_555
C36 O11 1_555 1_555
C37 C36 1_555 1_555
C38 C37 1_555 1_555
C39 C38 1_555 1_555
C40 C39 1_555 1_555
C41 C40 1_555 1_555
C42 C37 1_555 1_555
C43 O13 1_555 1_555
C44 O14 1_555 1_555
C45 O15 1_555 1_555
C46 O16 1_555 1_555
H1 C46 1_555 1_555
H2 C46 1_555 1_555
H3 C46 1_555 1_555
H4 C45 1_555 1_555
H5 C45 1_555 1_555
H6 C45 1_555 1_555
H7 C43 1_555 1_555
H8 C43 1_555 1_555
H9 C43 1_555 1_555
H10 C44 1_555 1_555
H11 C44 1_555 1_555
H12 C44 1_555 1_555
H13 C42 1_555 1_555
H14 C41 1_555 1_555
H15 C40 1_555 1_555
H16 C39 1_555 1_555
H17 C38 1_555 1_555
H18 C24 1_555 1_555
H19 C25 1_555 1_555
H20 C26 1_555 1_555
H21 C27 1_555 1_555
H22 C28 1_555 1_555
H23 C7 1_555 1_555
H24 C6 1_555 1_555
H25 C5 1_555 1_555
H26 C4 1_555 1_555
H27 C3 1_555 1_555
H28 C10 1_555 1_555
H29 C11 1_555 1_555
H30 C12 1_555 1_555
H31 C13 1_555 1_555
H32 C14 1_555 1_555
H33 C35 1_555 1_555
H34 C34 1_555 1_555
H35 C33 1_555 1_555
H36 C32 1_555 1_555
H37 C31 1_555 1_555
H38 C17 1_555 1_555
H39 C18 1_555 1_555
H40 C19 1_555 1_555
H41 C20 1_555 1_555
H42 C21 1_555 1_555
O7_2 Gd2 1_555 1_555
O9_2 Gd2 1_555 1_555
Gd2_2 O7 1_555 1_555
O4 C8 1_555 1_555
O6 C15 1_555 1_555
O9 Gd2_2 1_555 1_555
O12 C36 1_555 1_555
C13 C14 1_555 1_555
C20 C21 1_555 1_555
C27 C28 1_555 1_555
C34 C35 1_555 1_555
C41 C42 1_555 1_555

#END
