
#######################################################################
#
#                 Cambridge Crystallographic Data Centre
#                                CCDC 
#
#######################################################################
#
# If this CIF has been generated from an entry in the Cambridge 
# Structural Database, then it will include bibliographic, chemical, 
# crystal, experimental, refinement or atomic coordinate data resulting 
# from the CCDC's data processing and validation procedures.
#
#######################################################################

data_LUSCOR05
_symmetry_cell_setting           tetragonal
_symmetry_space_group_name_H-M   'P 42/n'
_symmetry_Int_Tables_number      86
_space_group_name_Hall           'P -4 -1n'
loop_
_symmetry_equiv_pos_site_id
_symmetry_equiv_pos_as_xyz
1 x,y,z
2 -x,-y,z
3 1/2-y,1/2+x,1/2+z
4 1/2+y,1/2-x,1/2+z
5 1/2-x,1/2-y,1/2-z
6 1/2+x,1/2+y,1/2-z
7 y,-x,-z
8 -y,x,-z
_cell_length_a                   21.3751(2)
_cell_length_b                   21.3751(2)
_cell_length_c                   9.00870(10)
_cell_angle_alpha                90
_cell_angle_beta                 90
_cell_angle_gamma                90
_cell_volume                     4116.03
loop_
_atom_site_label
_atom_site_type_symbol
_atom_site_fract_x
_atom_site_fract_y
_atom_site_fract_z
Gd1 Gd 0.738056(15) 0.749110(13) -0.03713(2)
O1 O 0.79229(19) 0.70026(19) -0.2260(3)
O2 O 0.8538(2) 0.6800(2) -0.4151(3)
O3 O 0.6691(2) 0.6786(2) -0.1597(3)
O4 O 0.6929(2) 0.6681(2) -0.4003(3)
O5 O 0.7142(2) 0.6691(2) 0.1289(3)
O6 O 0.7684(2) 0.68782(19) 0.3348(3)
O7 O 0.8368(2) 0.7213(2) 0.0686(4)
N1 N 0.9090(3) 0.7256(2) 0.2531(4)
C1 C 0.8363(2) 0.6689(2) -0.2854(4)
C2 C 0.8641(2) 0.6179(2) -0.1958(4)
C3 C 0.9261(3) 0.6036(3) -0.2169(6)
C4 C 0.9564(3) 0.5622(3) -0.1229(7)
C5 C 0.9230(3) 0.5331(3) -0.0114(6)
C6 C 0.8605(3) 0.5467(3) 0.0086(5)
C7 C 0.8309(2) 0.5889(2) -0.0830(5)
C8 C 0.6692(3) 0.6483(2) -0.2792(4)
C9 C 0.6391(2) 0.5854(2) -0.2819(4)
C10 C 0.6115(3) 0.5621(3) -0.1538(5)
C11 C 0.5827(3) 0.5038(3) -0.1549(6)
C12 C 0.5817(3) 0.4695(3) -0.2832(7)
C13 C 0.6097(3) 0.4916(3) -0.4104(6)
C14 C 0.6383(3) 0.5492(3) -0.4094(5)
C15 C 0.7428(3) 0.6511(2) 0.2454(4)
C16 C 0.7420(2) 0.5832(2) 0.2777(4)
C17 C 0.7780(3) 0.5602(2) 0.3942(5)
C18 C 0.7771(3) 0.4965(3) 0.4258(6)
C19 C 0.7410(3) 0.4569(3) 0.3420(6)
C20 C 0.7054(3) 0.4799(3) 0.2264(5)
C21 C 0.7065(3) 0.5428(2) 0.1931(5)
C22 C 0.8697(3) 0.7518(3) 0.1583(5)
C23 C 0.9441(4) 0.7631(4) 0.3575(7)
C24 C 0.9162(3) 0.6587(3) 0.2606(6)
H1 H 0.9295 0.8055 0.3532
H2 H 0.9877 0.7619 0.3322
H3 H 0.9381 0.7469 0.4559
H4 H 0.8924 0.6398 0.1824
H5 H 0.9596 0.6479 0.2498
H6 H 0.9010 0.6440 0.3547
H7 H 0.9480 0.6218 -0.2950
H8 H 0.9989 0.5540 -0.1348
H9 H 0.9427 0.5044 0.0503
H10 H 0.8383 0.5273 0.0844
H11 H 0.7887 0.5979 -0.0693
H12 H 0.6124 0.5855 -0.0669
H13 H 0.5641 0.4883 -0.0691
H14 H 0.5619 0.4307 -0.2845
H15 H 0.6093 0.4677 -0.4966
H16 H 0.6573 0.5641 -0.4953
H17 H 0.8025 0.5872 0.4506
H18 H 0.8009 0.4808 0.5037
H19 H 0.7406 0.4143 0.3631
H20 H 0.6806 0.4529 0.1710
H21 H 0.6834 0.5580 0.1135
H22 H 0.8662 0.7952 0.1583
Gd1D Gd 0.761944(15) 0.750890(13) -0.46287(2)
Gd1D_2 Gd 0.761944(15) 0.750890(13) 0.53713(2)
O1D O 0.70771(19) 0.79974(19) -0.2740(3)
O2D O 0.6462(2) 0.8200(2) -0.0849(3)
O4D O 0.8071(2) 0.8319(2) -0.0997(3)
O6D O 0.7316(2) 0.81218(19) 0.1652(3)
loop_
_geom_bond_atom_site_label_1
_geom_bond_atom_site_label_2
_geom_bond_site_symmetry_1
_geom_bond_site_symmetry_2
Gd1 O1 1_555 1_555
O1 C1 1_555 1_555
O2 C1 1_555 1_555
O3 Gd1 1_555 1_555
O4 C8 1_555 1_555
O5 Gd1 1_555 1_555
O6 C15 1_555 1_555
O7 Gd1 1_555 1_555
N1 C22 1_555 1_555
C1 C2 1_555 1_555
C2 C3 1_555 1_555
C3 C4 1_555 1_555
C4 C5 1_555 1_555
C5 C6 1_555 1_555
C6 C7 1_555 1_555
C7 C2 1_555 1_555
C8 O3 1_555 1_555
C9 C8 1_555 1_555
C10 C9 1_555 1_555
C11 C10 1_555 1_555
C12 C11 1_555 1_555
C13 C12 1_555 1_555
C14 C9 1_555 1_555
C15 O5 1_555 1_555
C16 C15 1_555 1_555
C17 C16 1_555 1_555
C18 C17 1_555 1_555
C19 C18 1_555 1_555
C20 C19 1_555 1_555
C21 C16 1_555 1_555
C22 O7 1_555 1_555
C23 N1 1_555 1_555
C24 N1 1_555 1_555
H1 C23 1_555 1_555
H2 C23 1_555 1_555
H3 C23 1_555 1_555
H4 C24 1_555 1_555
H5 C24 1_555 1_555
H6 C24 1_555 1_555
H7 C3 1_555 1_555
H8 C4 1_555 1_555
H9 C5 1_555 1_555
H10 C6 1_555 1_555
H11 C7 1_555 1_555
H12 C10 1_555 1_555
H13 C11 1_555 1_555
H14 C12 1_555 1_555
H15 C13 1_555 1_555
H16 C14 1_555 1_555
H17 C17 1_555 1_555
H18 C18 1_555 1_555
H19 C19 1_555 1_555
H20 C20 1_555 1_555
H21 C21 1_555 1_555
H22 C22 1_555 1_555
Gd1D O1 1_555 1_555
Gd1D_2 O6 1_555 1_555
O1D Gd1 1_555 1_555
O2D Gd1 1_555 1_555
O4D Gd1 1_555 1_555
O6D Gd1 1_555 1_555
O2 Gd1D 1_555 1_555
O4 Gd1D 1_555 1_555
C13 C14 1_555 1_555
C20 C21 1_555 1_555
Gd1D O1D 1_555 1_555

#END
