
#######################################################################
#
#                 Cambridge Crystallographic Data Centre
#                                CCDC 
#
#######################################################################
#
# If this CIF has been generated from an entry in the Cambridge 
# Structural Database, then it will include bibliographic, chemical, 
# crystal, experimental, refinement or atomic coordinate data resulting 
# from the CCDC's data processing and validation procedures.
#
#######################################################################

data_LUSCOR04
_symmetry_cell_setting           tetragonal
_symmetry_space_group_name_H-M   'P 42/n'
_symmetry_Int_Tables_number      86
_space_group_name_Hall           'P -4 -1n'
loop_
_symmetry_equiv_pos_site_id
_symmetry_equiv_pos_as_xyz
1 x,y,z
2 -x,-y,z
3 1/2-y,1/2+x,1/2+z
4 1/2+y,1/2-x,1/2+z
5 1/2-x,1/2-y,1/2-z
6 1/2+x,1/2+y,1/2-z
7 y,-x,-z
8 -y,x,-z
_cell_length_a                   21.5853(2)
_cell_length_b                   21.5853(2)
_cell_length_c                   9.04340(10)
_cell_angle_alpha                90
_cell_angle_beta                 90
_cell_angle_gamma                90
_cell_volume                     4213.55
loop_
_atom_site_label
_atom_site_type_symbol
_atom_site_fract_x
_atom_site_fract_y
_atom_site_fract_z
Gd1 Gd 0.738612(15) 0.749186(12) -0.03743(2)
O1 O 0.79179(18) 0.69977(18) -0.2266(3)
O2 O 0.85248(19) 0.6808(2) -0.4143(3)
O3 O 0.66939(19) 0.6801(2) -0.1590(3)
O4 O 0.6924(2) 0.66948(19) -0.3990(3)
O5 O 0.7158(2) 0.66962(18) 0.1282(3)
O6 O 0.7674(2) 0.68793(18) 0.3352(3)
O7 O 0.83670(19) 0.7223(2) 0.0689(3)
N1 N 0.9084(2) 0.7260(2) 0.2507(4)
C1 C 0.8360(2) 0.6697(2) -0.2855(4)
C2 C 0.8640(2) 0.6190(2) -0.1974(4)
C3 C 0.9257(3) 0.6044(3) -0.2221(5)
C4 C 0.9555(3) 0.5615(3) -0.1320(6)
C5 C 0.9233(3) 0.5337(3) -0.0197(5)
C6 C 0.8616(3) 0.5469(3) 0.0029(5)
C7 C 0.8319(2) 0.5904(2) -0.0847(4)
C8 C 0.6687(2) 0.6500(2) -0.2784(4)
C9 C 0.6393(2) 0.5875(2) -0.2811(4)
C10 C 0.6115(2) 0.5649(2) -0.1533(5)
C11 C 0.5826(3) 0.5073(3) -0.1552(5)
C12 C 0.5816(3) 0.4726(3) -0.2828(6)
C13 C 0.6094(3) 0.4948(3) -0.4100(5)
C14 C 0.6377(3) 0.5522(2) -0.4090(5)
C15 C 0.7430(2) 0.6517(2) 0.2452(4)
C16 C 0.7424(2) 0.5844(2) 0.2779(4)
C17 C 0.7781(2) 0.5614(2) 0.3935(5)
C18 C 0.7774(3) 0.4981(3) 0.4241(5)
C19 C 0.7413(3) 0.4592(2) 0.3410(5)
C20 C 0.7063(3) 0.4815(2) 0.2251(5)
C21 C 0.7072(3) 0.5439(2) 0.1933(5)
C22 C 0.8691(2) 0.7517(3) 0.1579(5)
C23 C 0.9437(4) 0.7634(3) 0.3537(7)
C24 C 0.9152(3) 0.6594(3) 0.2594(5)
H1 H 0.9261 0.8043 0.3572
H2 H 0.9860 0.7658 0.3211
H3 H 0.9421 0.7449 0.4504
H4 H 0.8902 0.6401 0.1849
H5 H 0.9580 0.6485 0.2431
H6 H 0.9027 0.6449 0.3552
H7 H 0.9472 0.6233 -0.2990
H8 H 0.9970 0.5519 -0.1479
H9 H 0.9433 0.5055 0.0419
H10 H 0.8398 0.5266 0.0772
H11 H 0.7906 0.6002 -0.0677
H12 H 0.6123 0.5883 -0.0669
H13 H 0.5639 0.4923 -0.0699
H14 H 0.5621 0.4342 -0.2835
H15 H 0.6090 0.4712 -0.4959
H16 H 0.6558 0.5673 -0.4951
H17 H 0.8022 0.5881 0.4501
H18 H 0.8015 0.4824 0.5007
H19 H 0.7403 0.4171 0.3632
H20 H 0.6822 0.4547 0.1687
H21 H 0.6841 0.5590 0.1145
H22 H 0.8654 0.7947 0.1591
Gd1D Gd 0.761388(15) 0.750814(12) -0.46257(2)
Gd1D_2 Gd 0.761388(15) 0.750814(12) 0.53743(2)
O1D O 0.70821(18) 0.80023(18) -0.2734(3)
O2D O 0.64752(19) 0.8192(2) -0.0857(3)
O4D O 0.8076(2) 0.83052(19) -0.1010(3)
O6D O 0.7326(2) 0.81207(18) 0.1648(3)
loop_
_geom_bond_atom_site_label_1
_geom_bond_atom_site_label_2
_geom_bond_site_symmetry_1
_geom_bond_site_symmetry_2
Gd1 O1 1_555 1_555
O1 C1 1_555 1_555
O2 C1 1_555 1_555
O3 Gd1 1_555 1_555
O4 C8 1_555 1_555
O5 Gd1 1_555 1_555
O6 C15 1_555 1_555
O7 Gd1 1_555 1_555
N1 C22 1_555 1_555
C1 C2 1_555 1_555
C2 C3 1_555 1_555
C3 C4 1_555 1_555
C4 C5 1_555 1_555
C5 C6 1_555 1_555
C6 C7 1_555 1_555
C7 C2 1_555 1_555
C8 O3 1_555 1_555
C9 C8 1_555 1_555
C10 C9 1_555 1_555
C11 C10 1_555 1_555
C12 C11 1_555 1_555
C13 C12 1_555 1_555
C14 C9 1_555 1_555
C15 O5 1_555 1_555
C16 C15 1_555 1_555
C17 C16 1_555 1_555
C18 C17 1_555 1_555
C19 C18 1_555 1_555
C20 C19 1_555 1_555
C21 C16 1_555 1_555
C22 O7 1_555 1_555
C23 N1 1_555 1_555
C24 N1 1_555 1_555
H1 C23 1_555 1_555
H2 C23 1_555 1_555
H3 C23 1_555 1_555
H4 C24 1_555 1_555
H5 C24 1_555 1_555
H6 C24 1_555 1_555
H7 C3 1_555 1_555
H8 C4 1_555 1_555
H9 C5 1_555 1_555
H10 C6 1_555 1_555
H11 C7 1_555 1_555
H12 C10 1_555 1_555
H13 C11 1_555 1_555
H14 C12 1_555 1_555
H15 C13 1_555 1_555
H16 C14 1_555 1_555
H17 C17 1_555 1_555
H18 C18 1_555 1_555
H19 C19 1_555 1_555
H20 C20 1_555 1_555
H21 C21 1_555 1_555
H22 C22 1_555 1_555
Gd1D O1 1_555 1_555
Gd1D_2 O6 1_555 1_555
O1D Gd1 1_555 1_555
O2D Gd1 1_555 1_555
O4D Gd1 1_555 1_555
O6D Gd1 1_555 1_555
O2 Gd1D 1_555 1_555
O4 Gd1D 1_555 1_555
C13 C14 1_555 1_555
C20 C21 1_555 1_555
Gd1D O1D 1_555 1_555

#END
