
#######################################################################
#
#                 Cambridge Crystallographic Data Centre
#                                CCDC 
#
#######################################################################
#
# If this CIF has been generated from an entry in the Cambridge 
# Structural Database, then it will include bibliographic, chemical, 
# crystal, experimental, refinement or atomic coordinate data resulting 
# from the CCDC's data processing and validation procedures.
#
#######################################################################

data_LUSCOR01
_symmetry_cell_setting           tetragonal
_symmetry_space_group_name_H-M   'P 42/n'
_symmetry_Int_Tables_number      86
_space_group_name_Hall           'P -4 -1n'
loop_
_symmetry_equiv_pos_site_id
_symmetry_equiv_pos_as_xyz
1 x,y,z
2 -x,-y,z
3 1/2-y,1/2+x,1/2+z
4 1/2+y,1/2-x,1/2+z
5 1/2-x,1/2-y,1/2-z
6 1/2+x,1/2+y,1/2-z
7 y,-x,-z
8 -y,x,-z
_cell_length_a                   22.4915(6)
_cell_length_b                   22.4915(6)
_cell_length_c                   9.1640(3)
_cell_angle_alpha                90
_cell_angle_beta                 90
_cell_angle_gamma                90
_cell_volume                     4635.77
loop_
_atom_site_label
_atom_site_type_symbol
_atom_site_fract_x
_atom_site_fract_y
_atom_site_fract_z
Gd1 Gd 0.740916(5) 0.749268(5) -0.038648(14)
O1 O 0.79114(9) 0.70018(8) -0.2238(2)
O2 O 0.84603(9) 0.68502(10) -0.4166(2)
O3 O 0.67176(9) 0.68431(9) -0.1550(2)
O4 O 0.69284(10) 0.67454(10) -0.3913(2)
O5 O 0.72120(10) 0.67265(9) 0.1266(2)
O6 O 0.76432(10) 0.68933(8) 0.3398(2)
O7 O 0.83508(10) 0.72439(10) 0.0689(2)
N1 N 0.90662(13) 0.72902(15) 0.2397(3)
C1 C 0.83242(12) 0.67292(12) -0.2881(3)
C2 C 0.86288(13) 0.62354(13) -0.2092(4)
C3 C 0.91878(17) 0.60585(18) -0.2529(4)
C4 C 0.94819(18) 0.5623(2) -0.1769(6)
C5 C 0.92128(19) 0.53470(17) -0.0617(5)
C6 C 0.86613(18) 0.55138(15) -0.0192(4)
C7 C 0.83686(15) 0.59625(13) -0.0919(4)
C8 C 0.67017(13) 0.65707(13) -0.2744(3)
C9 C 0.63883(13) 0.59838(13) -0.2772(4)
C10 C 0.61250(14) 0.57617(14) -0.1524(4)
C11 C 0.58469(18) 0.52170(17) -0.1547(6)
C12 C 0.58220(18) 0.48928(18) -0.2800(6)
C13 C 0.60758(18) 0.51064(17) -0.4057(5)
C14 C 0.63629(16) 0.56489(15) -0.4034(4)
C15 C 0.74342(13) 0.65585(12) 0.2450(3)
C16 C 0.74466(14) 0.58993(12) 0.2741(3)
C17 C 0.77781(17) 0.56765(14) 0.3865(4)
C18 C 0.7781(2) 0.50698(16) 0.4140(5)
C19 C 0.7443(2) 0.46949(16) 0.3321(5)
C20 C 0.7108(2) 0.49107(17) 0.2198(5)
C21 C 0.71144(17) 0.55171(14) 0.1894(4)
C22 C 0.86738(14) 0.75281(16) 0.1499(4)
C23 C 0.9414(2) 0.7659(2) 0.3376(6)
C24 C 0.91294(18) 0.66584(19) 0.2506(5)
H1 H 0.9366 0.6234 -0.3337
H2 H 0.9865 0.5518 -0.2043
H3 H 0.9409 0.5043 -0.0121
H4 H 0.8480 0.5325 0.0593
H5 H 0.7993 0.6081 -0.0615
H6 H 0.6137 0.5980 -0.0663
H7 H 0.5675 0.5070 -0.0699
H8 H 0.5632 0.4525 -0.2799
H9 H 0.6053 0.4888 -0.4919
H10 H 0.6543 0.5790 -0.4881
H11 H 0.8002 0.5931 0.4448
H12 H 0.8014 0.4920 0.4893
H13 H 0.7438 0.4288 0.3530
H14 H 0.6875 0.4653 0.1641
H15 H 0.6897 0.5665 0.1104
H16 H 0.8639 0.7940 0.1482
H17 H 0.9358 0.7526 0.4356
H18 H 0.9829 0.7622 0.3108
H19 H 0.9292 0.8067 0.3279
H20 H 0.9050 0.6534 0.3484
H21 H 0.9528 0.6547 0.2245
H22 H 0.8855 0.6467 0.1860
Gd1D Gd 0.759084(5) 0.750732(5) -0.461352(14)
Gd1D_2 Gd 0.759084(5) 0.750732(5) 0.538648(14)
O1D O 0.70886(9) 0.79982(8) -0.2762(2)
O2D O 0.65397(9) 0.81498(10) -0.0834(2)
O4D O 0.80716(10) 0.82546(10) -0.1087(2)
O6D O 0.73568(10) 0.81067(8) 0.1602(2)
loop_
_geom_bond_atom_site_label_1
_geom_bond_atom_site_label_2
_geom_bond_site_symmetry_1
_geom_bond_site_symmetry_2
Gd1 O1 1_555 1_555
O1 C1 1_555 1_555
O2 C1 1_555 1_555
O3 Gd1 1_555 1_555
O4 C8 1_555 1_555
O5 Gd1 1_555 1_555
O6 C15 1_555 1_555
O7 Gd1 1_555 1_555
N1 C22 1_555 1_555
C1 C2 1_555 1_555
C2 C3 1_555 1_555
C3 C4 1_555 1_555
C4 C5 1_555 1_555
C5 C6 1_555 1_555
C6 C7 1_555 1_555
C7 C2 1_555 1_555
C8 O3 1_555 1_555
C9 C8 1_555 1_555
C10 C9 1_555 1_555
C11 C10 1_555 1_555
C12 C11 1_555 1_555
C13 C12 1_555 1_555
C14 C9 1_555 1_555
C15 O5 1_555 1_555
C16 C15 1_555 1_555
C17 C16 1_555 1_555
C18 C17 1_555 1_555
C19 C18 1_555 1_555
C20 C19 1_555 1_555
C21 C16 1_555 1_555
C22 O7 1_555 1_555
C23 N1 1_555 1_555
C24 N1 1_555 1_555
H1 C3 1_555 1_555
H2 C4 1_555 1_555
H3 C5 1_555 1_555
H4 C6 1_555 1_555
H5 C7 1_555 1_555
H6 C10 1_555 1_555
H7 C11 1_555 1_555
H8 C12 1_555 1_555
H9 C13 1_555 1_555
H10 C14 1_555 1_555
H11 C17 1_555 1_555
H12 C18 1_555 1_555
H13 C19 1_555 1_555
H14 C20 1_555 1_555
H15 C21 1_555 1_555
H16 C22 1_555 1_555
H17 C23 1_555 1_555
H18 C23 1_555 1_555
H19 C23 1_555 1_555
H20 C24 1_555 1_555
H21 C24 1_555 1_555
H22 C24 1_555 1_555
Gd1D O1 1_555 1_555
Gd1D_2 O6 1_555 1_555
O1D Gd1 1_555 1_555
O2D Gd1 1_555 1_555
O4D Gd1 1_555 1_555
O6D Gd1 1_555 1_555
O2 Gd1D 1_555 1_555
O4 Gd1D 1_555 1_555
C13 C14 1_555 1_555
C20 C21 1_555 1_555
Gd1D O1D 1_555 1_555

#END
