
#######################################################################
#
#                 Cambridge Crystallographic Data Centre
#                                CCDC 
#
#######################################################################
#
# If this CIF has been generated from an entry in the Cambridge 
# Structural Database, then it will include bibliographic, chemical, 
# crystal, experimental, refinement or atomic coordinate data resulting 
# from the CCDC's data processing and validation procedures.
#
#######################################################################

data_LUSCOR02
_symmetry_cell_setting           tetragonal
_symmetry_space_group_name_H-M   'P 42/n'
_symmetry_Int_Tables_number      86
_space_group_name_Hall           'P -4 -1n'
loop_
_symmetry_equiv_pos_site_id
_symmetry_equiv_pos_as_xyz
1 x,y,z
2 -x,-y,z
3 1/2-y,1/2+x,1/2+z
4 1/2+y,1/2-x,1/2+z
5 1/2-x,1/2-y,1/2-z
6 1/2+x,1/2+y,1/2-z
7 y,-x,-z
8 -y,x,-z
_cell_length_a                   22.4953(9)
_cell_length_b                   22.4953(9)
_cell_length_c                   9.1830(6)
_cell_angle_alpha                90
_cell_angle_beta                 90
_cell_angle_gamma                90
_cell_volume                     4646.95
loop_
_atom_site_label
_atom_site_type_symbol
_atom_site_fract_x
_atom_site_fract_y
_atom_site_fract_z
Gd1 Gd 0.740795(17) 0.749307(15) -0.03865(3)
O1 O 0.7911(2) 0.7005(2) -0.2241(5)
O2 O 0.8469(3) 0.6849(3) -0.4159(5)
O3 O 0.6716(3) 0.6848(2) -0.1562(5)
O4 O 0.6929(3) 0.6747(3) -0.3918(5)
O5 O 0.7206(3) 0.6727(2) 0.1273(4)
O6 O 0.7642(3) 0.6893(2) 0.3392(5)
O7 O 0.8350(3) 0.7239(3) 0.0681(5)
N1 N 0.9073(3) 0.7292(3) 0.2403(7)
C1 C 0.8331(3) 0.6728(3) -0.2878(5)
C2 C 0.8630(3) 0.6233(3) -0.2088(6)
C3 C 0.9191(3) 0.6062(3) -0.2496(7)
C4 C 0.9494(4) 0.5621(4) -0.1741(9)
C5 C 0.9223(4) 0.5351(3) -0.0588(8)
C6 C 0.8661(4) 0.5515(3) -0.0172(7)
C7 C 0.8368(3) 0.5957(3) -0.0910(6)
C8 C 0.6696(4) 0.6562(3) -0.2732(5)
C9 C 0.6390(3) 0.5974(3) -0.2774(6)
C10 C 0.6126(3) 0.5756(3) -0.1527(7)
C11 C 0.5846(3) 0.5203(4) -0.1538(9)
C12 C 0.5825(4) 0.4882(3) -0.2799(10)
C13 C 0.6081(4) 0.5096(4) -0.4047(9)
C14 C 0.6363(3) 0.5639(3) -0.4045(7)
C15 C 0.7444(3) 0.6547(2) 0.2452(5)
C16 C 0.7444(3) 0.5895(2) 0.2733(6)
C17 C 0.7778(3) 0.5670(3) 0.3858(7)
C18 C 0.7781(4) 0.5062(4) 0.4161(8)
C19 C 0.7443(4) 0.4692(3) 0.3326(9)
C20 C 0.7107(4) 0.4910(3) 0.2201(8)
C21 C 0.7107(3) 0.5513(3) 0.1896(7)
C22 C 0.8683(4) 0.7532(3) 0.1515(8)
C23 C 0.9427(6) 0.7652(5) 0.3378(13)
C24 C 0.9124(5) 0.6659(4) 0.2528(9)
H1 H 0.9250 0.8039 0.3474
H2 H 0.9822 0.7696 0.2982
H3 H 0.9451 0.7466 0.4312
H4 H 0.8874 0.6472 0.1815
H5 H 0.9530 0.6541 0.2365
H6 H 0.9002 0.6535 0.3484
H7 H 0.9372 0.6245 -0.3289
H8 H 0.9876 0.5511 -0.2018
H9 H 0.9422 0.5054 -0.0079
H10 H 0.8479 0.5326 0.0610
H11 H 0.7989 0.6071 -0.0614
H12 H 0.6135 0.5979 -0.0675
H13 H 0.5674 0.5053 -0.0692
H14 H 0.5636 0.4514 -0.2811
H15 H 0.6063 0.4874 -0.4899
H16 H 0.6535 0.5782 -0.4896
H17 H 0.8006 0.5926 0.4425
H18 H 0.8009 0.4912 0.4921
H19 H 0.7441 0.4287 0.3522
H20 H 0.6878 0.4652 0.1642
H21 H 0.6880 0.5660 0.1130
H22 H 0.8652 0.7944 0.1501
Gd1D Gd 0.759205(17) 0.750693(15) -0.46135(3)
Gd1D_2 Gd 0.759205(17) 0.750693(15) 0.53865(3)
O1D O 0.7089(2) 0.7995(2) -0.2759(5)
O2D O 0.6531(3) 0.8151(3) -0.0841(5)
O4D O 0.8071(3) 0.8253(3) -0.1082(5)
O6D O 0.7358(3) 0.8107(2) 0.1608(5)
loop_
_geom_bond_atom_site_label_1
_geom_bond_atom_site_label_2
_geom_bond_site_symmetry_1
_geom_bond_site_symmetry_2
Gd1 O1 1_555 1_555
O1 C1 1_555 1_555
O2 C1 1_555 1_555
O3 Gd1 1_555 1_555
O4 C8 1_555 1_555
O5 Gd1 1_555 1_555
O6 C15 1_555 1_555
O7 Gd1 1_555 1_555
N1 C22 1_555 1_555
C1 C2 1_555 1_555
C2 C3 1_555 1_555
C3 C4 1_555 1_555
C4 C5 1_555 1_555
C5 C6 1_555 1_555
C6 C7 1_555 1_555
C7 C2 1_555 1_555
C8 O3 1_555 1_555
C9 C8 1_555 1_555
C10 C9 1_555 1_555
C11 C10 1_555 1_555
C12 C11 1_555 1_555
C13 C12 1_555 1_555
C14 C9 1_555 1_555
C15 O5 1_555 1_555
C16 C15 1_555 1_555
C17 C16 1_555 1_555
C18 C17 1_555 1_555
C19 C18 1_555 1_555
C20 C19 1_555 1_555
C21 C16 1_555 1_555
C22 O7 1_555 1_555
C23 N1 1_555 1_555
C24 N1 1_555 1_555
H1 C23 1_555 1_555
H2 C23 1_555 1_555
H3 C23 1_555 1_555
H4 C24 1_555 1_555
H5 C24 1_555 1_555
H6 C24 1_555 1_555
H7 C3 1_555 1_555
H8 C4 1_555 1_555
H9 C5 1_555 1_555
H10 C6 1_555 1_555
H11 C7 1_555 1_555
H12 C10 1_555 1_555
H13 C11 1_555 1_555
H14 C12 1_555 1_555
H15 C13 1_555 1_555
H16 C14 1_555 1_555
H17 C17 1_555 1_555
H18 C18 1_555 1_555
H19 C19 1_555 1_555
H20 C20 1_555 1_555
H21 C21 1_555 1_555
H22 C22 1_555 1_555
Gd1D O1 1_555 1_555
Gd1D_2 O6 1_555 1_555
O1D Gd1 1_555 1_555
O2D Gd1 1_555 1_555
O4D Gd1 1_555 1_555
O6D Gd1 1_555 1_555
O2 Gd1D 1_555 1_555
O4 Gd1D 1_555 1_555
C13 C14 1_555 1_555
C20 C21 1_555 1_555
Gd1D O1D 1_555 1_555

#END
