
#######################################################################
#
#                 Cambridge Crystallographic Data Centre
#                                CCDC 
#
#######################################################################
#
# If this CIF has been generated from an entry in the Cambridge 
# Structural Database, then it will include bibliographic, chemical, 
# crystal, experimental, refinement or atomic coordinate data resulting 
# from the CCDC's data processing and validation procedures.
#
#######################################################################

data_LUSCOR
_symmetry_cell_setting           tetragonal
_symmetry_space_group_name_H-M   'P 42/n'
_symmetry_Int_Tables_number      86
_space_group_name_Hall           '-P 4bc'
loop_
_symmetry_equiv_pos_site_id
_symmetry_equiv_pos_as_xyz
1 x,y,z
2 -y,1/2+x,1/2+z
3 1/2+y,-x,1/2+z
4 1/2-x,1/2-y,z
5 -x,-y,-z
6 y,1/2-x,1/2-z
7 1/2-y,x,1/2-z
8 1/2+x,1/2+y,-z
_cell_length_a                   22.583(1)
_cell_length_b                   22.583(1)
_cell_length_c                   9.2090(7)
_cell_angle_alpha                90
_cell_angle_beta                 90
_cell_angle_gamma                90
_cell_volume                     4696.52
loop_
_atom_site_label
_atom_site_type_symbol
_atom_site_fract_x
_atom_site_fract_y
_atom_site_fract_z
Gd1 Gd -0.009068(5) -0.000727(7) 0.21134(1)
O1 O 0.04120(9) -0.04991(9) 0.0269(2)
O2 O 0.09604(9) -0.06464(9) -0.1662(2)
O3 O -0.07814(9) -0.06554(9) 0.0944(2)
O4 O -0.05729(10) -0.07547(9) -0.1415(2)
O5 O -0.02877(10) -0.07756(9) 0.3763(2)
O6 O 0.01452(10) -0.06062(9) 0.5898(2)
O7 O 0.08533(9) -0.02557(10) 0.3184(2)
N1 N 0.1566(1) -0.0204(2) 0.4891(3)
C1 C 0.0829(1) -0.0771(1) -0.0388(4)
C2 C 0.1126(1) -0.1268(1) 0.0404(3)
C3 C 0.1678(2) -0.1440(2) -0.0021(4)
C4 C 0.1981(2) -0.1885(2) 0.0721(5)
C5 C 0.1716(2) -0.2145(2) 0.1881(5)
C6 C 0.1160(2) -0.1983(1) 0.2308(4)
C7 C 0.0868(1) -0.1539(1) 0.1584(3)
C8 C -0.0801(1) -0.0927(2) -0.0241(4)
C9 C -0.1111(1) -0.1518(2) -0.0273(4)
C10 C -0.1371(2) -0.1739(1) 0.0977(4)
C11 C -0.1647(2) -0.2289(2) 0.0949(5)
C12 C -0.1678(2) -0.2609(2) -0.0312(5)
C13 C -0.1420(2) -0.2393(2) -0.1551(4)
C14 C -0.1142(2) -0.1852(2) -0.1529(4)
C15 C -0.0066(1) -0.0946(1) 0.4954(3)
C16 C -0.0053(2) -0.1601(1) 0.5242(4)
C17 C 0.0278(2) -0.1827(1) 0.6367(4)
C18 C 0.0280(2) -0.2428(2) 0.6645(4)
C19 C -0.0052(2) -0.2800(2) 0.5809(5)
C20 C -0.0387(2) -0.2583(2) 0.4706(4)
C21 C -0.0386(2) -0.1986(2) 0.4389(4)
C22 C 0.1176(2) 0.0030(2) 0.3992(4)
C23 C 0.1917(2) 0.0152(2) 0.5878(6)
C24 C 0.1631(2) -0.0837(2) 0.5010(4)
H1 H 0.1147 0.0451 0.3961
H2 H 0.1863 -0.1258 -0.0838
H3 H 0.2366 -0.2003 0.0426
H4 H 0.1920 -0.2447 0.2397
H5 H 0.0977 -0.2179 0.3106
H6 H 0.0486 -0.1418 0.1902
H7 H -0.1361 -0.1515 0.1852
H8 H -0.1815 -0.2443 0.1817
H9 H -0.1881 -0.2977 -0.0326
H10 H -0.1434 -0.2618 -0.2426
H11 H -0.0965 -0.1704 -0.2394
H12 H 0.0508 -0.1569 0.6953
H13 H 0.0513 -0.2581 0.7418
H14 H -0.0048 -0.3214 0.6005
H15 H -0.0626 -0.2847 0.4147
H16 H -0.0609 -0.1837 0.3586
H17 H 0.1659 0.0363 0.6514
H18 H 0.2144 0.0429 0.5333
H19 H 0.2170 -0.0094 0.6423
H20 H 0.1263 -0.1005 0.5317
H21 H 0.1733 -0.0996 0.4088
H22 H 0.1928 -0.0928 0.5695
O1D O -0.04120(9) 0.04991(9) -0.0269(2)
O2D O -0.09604(9) 0.06464(9) 0.1662(2)
O4D O 0.05729(10) 0.07547(9) 0.1415(2)
O6D O -0.01452(10) 0.06062(9) 0.4102(2)
Gd1D Gd 0.009068(5) 0.000727(7) -0.21134(1)
Gd1D_2 Gd 0.009068(5) 0.000727(7) 0.78866(1)
loop_
_geom_bond_atom_site_label_1
_geom_bond_atom_site_label_2
_geom_bond_site_symmetry_1
_geom_bond_site_symmetry_2
Gd1 O1 1_555 1_555
O1 C1 1_555 1_555
O2 C1 1_555 1_555
O3 Gd1 1_555 1_555
O4 C8 1_555 1_555
O5 Gd1 1_555 1_555
O6 C15 1_555 1_555
O7 Gd1 1_555 1_555
N1 C22 1_555 1_555
C1 C2 1_555 1_555
C2 C3 1_555 1_555
C3 C4 1_555 1_555
C4 C5 1_555 1_555
C5 C6 1_555 1_555
C6 C7 1_555 1_555
C7 C2 1_555 1_555
C8 O3 1_555 1_555
C9 C8 1_555 1_555
C10 C9 1_555 1_555
C11 C10 1_555 1_555
C12 C11 1_555 1_555
C13 C12 1_555 1_555
C14 C9 1_555 1_555
C15 O5 1_555 1_555
C16 C15 1_555 1_555
C17 C16 1_555 1_555
C18 C17 1_555 1_555
C19 C18 1_555 1_555
C20 C19 1_555 1_555
C21 C16 1_555 1_555
C22 O7 1_555 1_555
C23 N1 1_555 1_555
C24 N1 1_555 1_555
H1 C22 1_555 1_555
H2 C3 1_555 1_555
H3 C4 1_555 1_555
H4 C5 1_555 1_555
H5 C6 1_555 1_555
H6 C7 1_555 1_555
H7 C10 1_555 1_555
H8 C11 1_555 1_555
H9 C12 1_555 1_555
H10 C13 1_555 1_555
H11 C14 1_555 1_555
H12 C17 1_555 1_555
H13 C18 1_555 1_555
H14 C19 1_555 1_555
H15 C20 1_555 1_555
H16 C21 1_555 1_555
H17 C23 1_555 1_555
H18 C23 1_555 1_555
H19 C23 1_555 1_555
H20 C24 1_555 1_555
H21 C24 1_555 1_555
H22 C24 1_555 1_555
O1D Gd1 1_555 1_555
O2D Gd1 1_555 1_555
O4D Gd1 1_555 1_555
O6D Gd1 1_555 1_555
Gd1D O1 1_555 1_555
Gd1D_2 O6 1_555 1_555
O2 Gd1D 1_555 1_555
O4 Gd1D 1_555 1_555
C13 C14 1_555 1_555
C20 C21 1_555 1_555
O1D Gd1D 1_555 1_555

#END
