
#######################################################################
#
#                 Cambridge Crystallographic Data Centre
#                                CCDC 
#
#######################################################################
#
# If this CIF has been generated from an entry in the Cambridge 
# Structural Database, then it will include bibliographic, chemical, 
# crystal, experimental, refinement or atomic coordinate data resulting 
# from the CCDC's data processing and validation procedures.
#
#######################################################################

data_LUSDAE
_symmetry_cell_setting           triclinic
_symmetry_space_group_name_H-M   'P -1'
_symmetry_Int_Tables_number      2
_space_group_name_Hall           '-P 1'
loop_
_symmetry_equiv_pos_site_id
_symmetry_equiv_pos_as_xyz
1 x,y,z
2 -x,-y,-z
_cell_length_a                   9.4440(9)
_cell_length_b                   12.093(1)
_cell_length_c                   15.624(1)
_cell_angle_alpha                105.63(1)
_cell_angle_beta                 101.86(1)
_cell_angle_gamma                106.95(1)
_cell_volume                     1563.62
loop_
_atom_site_label
_atom_site_type_symbol
_atom_site_fract_x
_atom_site_fract_y
_atom_site_fract_z
Eu1 Eu 0.26410(5) 0.45915(4) 0.48908(3)
F1 F 0.3569(7) 0.4268(6) 1.0199(4)
F2 F 0.3872(8) 0.6123(7) 1.0704(4)
F3 F 0.1759(7) 0.4813(10) 1.0517(4)
F4 F 0.722(2) 0.854(1) 1.1258(8)
F5 F 0.646(1) 0.991(1) 1.0898(8)
F6 F 0.890(1) 0.999(1) 1.1135(7)
F7 F 0.887(2) 0.158(1) 0.841(1)
F8 F 0.693(2) 0.001(1) 0.7849(9)
F9 F 0.697(1) 0.143(1) 0.9038(8)
O1 O 0.0867(5) 0.4392(4) 0.5759(3)
O2 O -0.0593(5) 0.5396(4) 0.6278(3)
O3 O 0.4414(5) 0.5834(4) 0.6392(3)
O4 O 0.6934(5) 0.6506(4) 0.6475(3)
O5 O 0.3131(5) 0.3089(5) 0.5573(3)
O6 O 0.5410(5) 0.3990(4) 0.5427(3)
O7 O 0.0386(6) 0.2445(5) 0.4165(4)
O8 O 0.2301(5) 0.6636(5) 0.5403(4)
C1 C 0.0432(7) 0.4929(6) 0.6402(5)
C2 C 0.1120(7) 0.4994(7) 0.7368(5)
C3 C 0.2036(8) 0.4324(7) 0.7542(5)
C4 C 0.2592(9) 0.4330(8) 0.8435(6)
C5 C 0.2263(8) 0.5008(8) 0.9164(5)
C6 C 0.1394(9) 0.5694(8) 0.9011(5)
C7 C 0.0795(8) 0.5693(7) 0.8119(5)
C8 C 0.281(1) 0.501(1) 1.0120(7)
C9 C 0.5832(8) 0.6449(6) 0.6819(5)
C10 C 0.6261(7) 0.7185(6) 0.7855(4)
C11 C 0.5113(8) 0.7354(7) 0.8235(5)
C12 C 0.5496(8) 0.8054(7) 0.9164(5)
C13 C 0.7005(9) 0.8548(7) 0.9715(5)
C14 C 0.8176(8) 0.8376(7) 0.9349(5)
C15 C 0.7786(8) 0.7688(7) 0.8410(5)
C16 C 0.745(1) 0.937(1) 1.0778(7)
C17 C 0.4560(8) 0.3313(7) 0.5755(5)
C18 C 0.5291(8) 0.2771(6) 0.6405(5)
C19 C 0.6869(9) 0.3237(8) 0.6840(6)
C20 C 0.7540(9) 0.2739(9) 0.7444(6)
C21 C 0.663(1) 0.1765(8) 0.7603(6)
C22 C 0.507(1) 0.1289(8) 0.7186(6)
C23 C 0.4401(9) 0.1793(8) 0.6594(6)
C24 C 0.739(1) 0.119(1) 0.8295(10)
C25 C -0.019(1) 0.1600(9) 0.3252(7)
C26 C 0.3351(10) 0.7859(8) 0.5879(6)
H1 H 0.2287 0.3854 0.7043
H2 H 0.3209 0.3856 0.8542
H3 H 0.1191 0.6185 0.9523
H4 H 0.0170 0.6164 0.8022
H5 H 0.4056 0.6986 0.7855
H6 H 0.4706 0.8192 0.9419
H7 H 0.9229 0.8724 0.9735
H8 H 0.8575 0.7562 0.8150
H9 H 0.7514 0.3912 0.6726
H10 H 0.8632 0.3080 0.7744
H11 H 0.4436 0.0609 0.7299
H12 H 0.3305 0.1459 0.6311
H13 H -0.1038 0.0904 0.3206
H14 H -0.0540 0.1979 0.2836
H15 H 0.0607 0.1341 0.3093
H16 H 0.3939 0.7931 0.6477
H17 H 0.4033 0.8076 0.5531
H18 H 0.2790 0.8397 0.5952
H19 H -0.0298 0.2531 0.4396
H20 H 0.1309 0.6790 0.5405
O2A O 0.0593(5) 0.4604(4) 0.3722(3)
O4A O 0.3066(5) 0.3494(4) 0.3525(3)
O6A O 0.4590(5) 0.6010(4) 0.4573(3)
Eu1A Eu -0.26410(5) 0.54085(4) 0.51092(3)
Eu1A_2 Eu 0.73590(5) 0.54085(4) 0.51092(3)
O9 O -0.005(1) 0.1122(9) 0.5370(8)
C27 C -0.085(2) 0.111(2) 0.604(1)
loop_
_geom_bond_atom_site_label_1
_geom_bond_atom_site_label_2
_geom_bond_site_symmetry_1
_geom_bond_site_symmetry_2
Eu1 O1 1_555 1_555
F1 C8 1_555 1_555
F2 C8 1_555 1_555
F3 C8 1_555 1_555
F4 C16 1_555 1_555
F5 C16 1_555 1_555
F6 C16 1_555 1_555
F7 C24 1_555 1_555
F8 C24 1_555 1_555
F9 C24 1_555 1_555
O1 C1 1_555 1_555
O2 C1 1_555 1_555
O3 Eu1 1_555 1_555
O4 C9 1_555 1_555
O5 Eu1 1_555 1_555
O6 Eu1 1_555 1_555
O7 Eu1 1_555 1_555
O8 Eu1 1_555 1_555
C1 C2 1_555 1_555
C2 C3 1_555 1_555
C3 C4 1_555 1_555
C4 C5 1_555 1_555
C5 C6 1_555 1_555
C6 C7 1_555 1_555
C7 C2 1_555 1_555
C8 C5 1_555 1_555
C9 O3 1_555 1_555
C10 C9 1_555 1_555
C11 C10 1_555 1_555
C12 C11 1_555 1_555
C13 C12 1_555 1_555
C14 C13 1_555 1_555
C15 C10 1_555 1_555
C16 C13 1_555 1_555
C17 O5 1_555 1_555
C18 C17 1_555 1_555
C19 C18 1_555 1_555
C20 C19 1_555 1_555
C21 C20 1_555 1_555
C22 C21 1_555 1_555
C23 C18 1_555 1_555
C24 C21 1_555 1_555
C25 O7 1_555 1_555
C26 O8 1_555 1_555
H1 C3 1_555 1_555
H2 C4 1_555 1_555
H3 C6 1_555 1_555
H4 C7 1_555 1_555
H5 C11 1_555 1_555
H6 C12 1_555 1_555
H7 C14 1_555 1_555
H8 C15 1_555 1_555
H9 C19 1_555 1_555
H10 C20 1_555 1_555
H11 C22 1_555 1_555
H12 C23 1_555 1_555
H13 C25 1_555 1_555
H14 C25 1_555 1_555
H15 C25 1_555 1_555
H16 C26 1_555 1_555
H17 C26 1_555 1_555
H18 C26 1_555 1_555
H19 O7 1_555 1_555
H20 O8 1_555 1_555
O9 C27 1_555 1_555
O2A Eu1 1_555 1_555
O4A Eu1 1_555 1_555
O6A Eu1 1_555 1_555
Eu1A O2 1_555 1_555
Eu1A_2 O4 1_555 1_555
O6 C17 1_555 1_555
O6 Eu1A_2 1_555 1_555
C14 C15 1_555 1_555
C22 C23 1_555 1_555
O6A Eu1A_2 1_555 1_555

#END
