
#######################################################################
#
#                 Cambridge Crystallographic Data Centre
#                                CCDC 
#
#######################################################################
#
# If this CIF has been generated from an entry in the Cambridge 
# Structural Database, then it will include bibliographic, chemical, 
# crystal, experimental, refinement or atomic coordinate data resulting 
# from the CCDC's data processing and validation procedures.
#
#######################################################################

data_LUSDUY
_symmetry_cell_setting           triclinic
_symmetry_space_group_name_H-M   'P -1'
_symmetry_Int_Tables_number      2
_space_group_name_Hall           '-P 1'
loop_
_symmetry_equiv_pos_site_id
_symmetry_equiv_pos_as_xyz
1 x,y,z
2 -x,-y,-z
_cell_length_a                   9.6770(7)
_cell_length_b                   10.6900(9)
_cell_length_c                   15.211(1)
_cell_angle_alpha                88.99(1)
_cell_angle_beta                 88.88(1)
_cell_angle_gamma                97.29(1)
_cell_volume                     1560.2
loop_
_atom_site_label
_atom_site_type_symbol
_atom_site_fract_x
_atom_site_fract_y
_atom_site_fract_z
Tb1 Tb 0.24598(2) 0.02582(2) 0.52291(1)
F1 F 0.9173(6) 0.1287(7) 0.9441(4)
F2 F 0.7208(6) 0.2424(5) 0.9804(4)
F3 F 0.8484(6) 0.1305(6) 1.0768(3)
F4 F 0.2845(7) -0.6272(7) 0.1235(4)
F5 F 0.4680(8) -0.7716(5) 0.1050(4)
F6 F 0.4737(8) -0.5778(5) 0.0793(4)
F7 F 0.291(1) -0.6444(9) 0.8798(8)
F8 F 0.156(1) -0.5195(8) 0.9563(5)
F9 F 0.1529(9) -0.7169(7) 0.9461(5)
O1 O 0.3858(3) -0.0069(4) 0.6473(2)
O2 O 0.6000(4) -0.0607(4) 0.5885(2)
O3 O 0.7471(5) 0.0331(5) 0.9847(2)
O4 O 0.1964(3) -0.1157(3) 0.4067(2)
O5 O 0.3859(3) -0.1942(4) 0.4834(2)
O6 O 0.4550(8) -0.6458(5) 0.2139(4)
O7 O 0.1346(4) -0.1166(4) 0.5932(2)
O8 O -0.0660(4) -0.1583(4) 0.5486(2)
O9 O 0.088(1) -0.5893(7) 0.8409(5)
O10 O 0.3173(4) 0.2306(4) 0.5420(3)
O11 O 0.0757(3) 0.1409(4) 0.6347(2)
C1 C 0.5177(4) -0.0289(5) 0.6526(3)
C2 C 0.5788(4) -0.0134(4) 0.7403(3)
C3 C 0.7211(5) -0.0636(5) 0.7564(3)
C4 C 0.7775(5) -0.0475(6) 0.8377(3)
C5 C 0.6917(5) 0.0209(5) 0.9006(3)
C6 C 0.5500(5) 0.0705(6) 0.8867(3)
C7 C 0.4944(4) 0.0527(5) 0.8065(3)
C8 C 0.8062(8) 0.1322(9) 0.9962(5)
C9 C 0.3038(5) -0.2044(5) 0.4218(3)
C10 C 0.3352(5) -0.3196(5) 0.3657(3)
C11 C 0.3134(6) -0.3080(6) 0.2759(4)
C12 C 0.3500(9) -0.4132(7) 0.2231(4)
C13 C 0.4072(8) -0.5297(6) 0.2614(5)
C14 C 0.4257(8) -0.5460(7) 0.3495(4)
C15 C 0.3902(7) -0.4402(6) 0.4006(4)
C16 C 0.425(1) -0.6564(9) 0.1329(6)
C17 C 0.0410(4) -0.1799(5) 0.5960(3)
C18 C 0.0586(4) -0.2887(5) 0.6603(3)
C19 C 0.1674(7) -0.3068(7) 0.7194(4)
C20 C 0.178(1) -0.4071(9) 0.7832(6)
C21 C 0.0847(9) -0.4866(8) 0.7812(5)
C22 C -0.0203(7) -0.4703(7) 0.7232(5)
C23 C -0.0351(5) -0.3717(6) 0.6630(4)
C24 C 0.150(2) -0.613(1) 0.905(1)
C25 C 0.0780(6) 0.1123(9) 0.7266(4)
C26 C 0.2701(9) 0.3348(9) 0.5936(7)
H1 H 0.7668 -0.1040 0.7111
H2 H 0.8627 -0.0766 0.8533
H3 H 0.5048 0.1110 0.9321
H4 H 0.4078 0.0799 0.7922
H5 H 0.2775 -0.2372 0.2507
H6 H 0.3374 -0.4090 0.1614
H7 H 0.4583 -0.6185 0.3747
H8 H 0.4023 -0.4460 0.4623
H9 H 0.2453 -0.2430 0.7164
H10 H 0.2530 -0.4077 0.8224
H11 H -0.0951 -0.5371 0.7241
H12 H -0.1144 -0.3716 0.6272
H13 H -0.0070 0.1585 0.6110
H14 H 0.0543 0.1820 0.7589
H15 H 0.0127 0.0402 0.7402
H16 H 0.1688 0.0955 0.7418
H17 H 0.3323 0.4099 0.5829
H18 H 0.1791 0.3478 0.5766
H19 H 0.2689 0.3132 0.6546
H20 H 0.3903 0.2221 0.5297
O2A O 0.4000(4) 0.0607(4) 0.4115(2)
O8A O 0.0660(4) 0.1583(4) 0.4514(2)
Tb1A Tb 0.75402(2) -0.02582(2) 0.47709(1)
Tb1A_2 Tb -0.24598(2) -0.02582(2) 0.47709(1)
loop_
_geom_bond_atom_site_label_1
_geom_bond_atom_site_label_2
_geom_bond_site_symmetry_1
_geom_bond_site_symmetry_2
Tb1 O1 1_555 1_555
F1 C8 1_555 1_555
F2 C8 1_555 1_555
F3 C8 1_555 1_555
F4 C16 1_555 1_555
F5 C16 1_555 1_555
F6 C16 1_555 1_555
F7 C24 1_555 1_555
F8 C24 1_555 1_555
F9 C24 1_555 1_555
O1 C1 1_555 1_555
O2 C1 1_555 1_555
O3 C5 1_555 1_555
O4 Tb1 1_555 1_555
O5 Tb1 1_555 1_555
O6 C13 1_555 1_555
O7 Tb1 1_555 1_555
O8 C17 1_555 1_555
O9 C21 1_555 1_555
O10 Tb1 1_555 1_555
O11 Tb1 1_555 1_555
C1 C2 1_555 1_555
C2 C3 1_555 1_555
C3 C4 1_555 1_555
C4 C5 1_555 1_555
C5 C6 1_555 1_555
C6 C7 1_555 1_555
C7 C2 1_555 1_555
C8 O3 1_555 1_555
C9 O4 1_555 1_555
C10 C9 1_555 1_555
C11 C10 1_555 1_555
C12 C11 1_555 1_555
C13 C12 1_555 1_555
C14 C13 1_555 1_555
C15 C10 1_555 1_555
C16 O6 1_555 1_555
C17 O7 1_555 1_555
C18 C17 1_555 1_555
C19 C18 1_555 1_555
C20 C19 1_555 1_555
C21 C20 1_555 1_555
C22 C21 1_555 1_555
C23 C18 1_555 1_555
C24 O9 1_555 1_555
C25 O11 1_555 1_555
C26 O10 1_555 1_555
H1 C3 1_555 1_555
H2 C4 1_555 1_555
H3 C6 1_555 1_555
H4 C7 1_555 1_555
H5 C11 1_555 1_555
H6 C12 1_555 1_555
H7 C14 1_555 1_555
H8 C15 1_555 1_555
H9 C19 1_555 1_555
H10 C20 1_555 1_555
H11 C22 1_555 1_555
H12 C23 1_555 1_555
H13 O11 1_555 1_555
H14 C25 1_555 1_555
H15 C25 1_555 1_555
H16 C25 1_555 1_555
H17 C26 1_555 1_555
H18 C26 1_555 1_555
H19 C26 1_555 1_555
H20 O10 1_555 1_555
O2A Tb1 1_555 1_555
O8A Tb1 1_555 1_555
Tb1A O2 1_555 1_555
Tb1A_2 O8 1_555 1_555
O5 C9 1_555 1_555
C14 C15 1_555 1_555
C22 C23 1_555 1_555

#END
