
#######################################################################
#
#                 Cambridge Crystallographic Data Centre
#                                CCDC 
#
#######################################################################
#
# If this CIF has been generated from an entry in the Cambridge 
# Structural Database, then it will include bibliographic, chemical, 
# crystal, experimental, refinement or atomic coordinate data resulting 
# from the CCDC's data processing and validation procedures.
#
#######################################################################

data_LUSDEI
_symmetry_cell_setting           triclinic
_symmetry_space_group_name_H-M   'P -1'
_symmetry_Int_Tables_number      2
_space_group_name_Hall           '-P 1'
loop_
_symmetry_equiv_pos_site_id
_symmetry_equiv_pos_as_xyz
1 x,y,z
2 -x,-y,-z
_cell_length_a                   9.421(1)
_cell_length_b                   12.127(2)
_cell_length_c                   15.646(2)
_cell_angle_alpha                105.97(1)
_cell_angle_beta                 102.17(2)
_cell_angle_gamma                106.52(1)
_cell_volume                     1564.49
loop_
_atom_site_label
_atom_site_type_symbol
_atom_site_fract_x
_atom_site_fract_y
_atom_site_fract_z
Tb1 Tb 0.26277(2) 0.46051(2) 0.48874(1)
F1 F 0.3609(5) 0.4236(4) 1.0179(2)
F2 F 0.3851(6) 0.6090(5) 1.0709(2)
F3 F 0.1730(5) 0.4732(7) 1.0482(3)
F4 F 0.634(2) 0.927(4) 1.104(1)
F5 F 0.810(4) 1.053(1) 1.0852(9)
F6 F 0.844(5) 0.907(5) 1.1276(9)
F7 F 0.877(2) 0.185(3) 0.871(2)
F8 F 0.724(5) 0.014(2) 0.779(2)
F9 F 0.672(4) 0.120(5) 0.893(3)
O1 O 0.0895(3) 0.4413(3) 0.5754(2)
O2 O -0.0595(3) 0.5394(3) 0.6273(2)
O3 O 0.4420(3) 0.5830(3) 0.6371(2)
O4 O 0.6937(3) 0.6513(3) 0.6451(2)
O5 O 0.3183(3) 0.3132(3) 0.5546(2)
O6 O 0.5511(3) 0.4007(3) 0.5455(2)
O7 O 0.0354(4) 0.2488(3) 0.4171(2)
O8 O 0.2278(3) 0.6638(3) 0.5416(2)
C1 C 0.0442(4) 0.4939(3) 0.6395(2)
C2 C 0.1130(4) 0.4981(4) 0.7367(3)
C3 C 0.2066(5) 0.4318(4) 0.7524(3)
C4 C 0.2603(6) 0.4302(5) 0.8412(3)
C5 C 0.2251(5) 0.4968(5) 0.9141(3)
C6 C 0.1372(6) 0.5668(6) 0.9002(3)
C7 C 0.0793(5) 0.5668(4) 0.8110(3)
C8 C 0.2828(7) 0.4976(8) 1.0125(4)
C9 C 0.5841(4) 0.6448(4) 0.6801(3)
C10 C 0.6272(4) 0.7187(3) 0.7831(2)
C11 C 0.5115(5) 0.7352(4) 0.8217(3)
C12 C 0.5501(5) 0.8037(5) 0.9152(3)
C13 C 0.7033(6) 0.8540(4) 0.9709(3)
C14 C 0.8182(5) 0.8368(5) 0.9336(3)
C15 C 0.7803(5) 0.7695(4) 0.8399(3)
C16 C 0.7451(8) 0.9298(8) 1.0725(4)
C17 C 0.4628(4) 0.3336(4) 0.5757(3)
C18 C 0.5307(4) 0.2781(4) 0.6405(3)
C19 C 0.6885(5) 0.3238(5) 0.6854(4)
C20 C 0.7533(5) 0.2733(6) 0.7461(4)
C21 C 0.6583(6) 0.1764(5) 0.7608(3)
C22 C 0.5002(7) 0.1314(5) 0.7184(4)
C23 C 0.4351(6) 0.1830(5) 0.6591(4)
C24 C 0.7286(10) 0.1176(8) 0.8230(6)
C25 C -0.0218(7) 0.1638(6) 0.3244(4)
C26 C 0.3347(6) 0.7863(5) 0.5881(4)
H1 H 0.2339 0.3873 0.7024
H2 H 0.3221 0.3826 0.8516
H3 H 0.1160 0.6151 0.9515
H4 H 0.0166 0.6139 0.8008
H5 H 0.4054 0.6992 0.7835
H6 H 0.4710 0.8161 0.9412
H7 H 0.9239 0.8714 0.9723
H8 H 0.8602 0.7579 0.8143
H9 H 0.7543 0.3908 0.6749
H10 H 0.8625 0.3059 0.7771
H11 H 0.4351 0.0647 0.7295
H12 H 0.3252 0.1534 0.6313
H13 H -0.1058 0.0939 0.3190
H14 H -0.0573 0.2014 0.2828
H15 H 0.0591 0.1387 0.3089
H16 H 0.3975 0.7940 0.6471
H17 H 0.3992 0.8066 0.5513
H18 H 0.2792 0.8406 0.5971
H19 H 0.0328 0.1957 0.4573
H20 H 0.1404 0.6670 0.5409
O2A O 0.0595(3) 0.4606(3) 0.3727(2)
O4A O 0.3063(3) 0.3487(3) 0.3549(2)
O6A O 0.4489(3) 0.5993(3) 0.4545(2)
Tb1A Tb -0.26277(2) 0.53949(2) 0.51126(1)
Tb1A_2 Tb 0.73723(2) 0.53949(2) 0.51126(1)
O9 O 0.003(1) 0.1157(7) 0.5355(6)
C27 C -0.086(2) 0.111(1) 0.6007(8)
F10? F 0.707(5) 0.859(2) 1.121(1)
F11? F 0.673(5) 1.003(4) 1.090(1)
F12? F 0.897(2) 0.986(3) 1.113(1)
F13? F 0.829(7) 0.076(7) 0.793(4)
F14? F 0.622(3) 0.018(3) 0.823(3)
F15? F 0.792(10) 0.182(3) 0.902(2)
loop_
_geom_bond_atom_site_label_1
_geom_bond_atom_site_label_2
_geom_bond_site_symmetry_1
_geom_bond_site_symmetry_2
Tb1 O1 1_555 1_555
F1 C8 1_555 1_555
F2 C8 1_555 1_555
F3 C8 1_555 1_555
F4 C16 1_555 1_555
F5 C16 1_555 1_555
F6 C16 1_555 1_555
F7 C24 1_555 1_555
F8 C24 1_555 1_555
F9 C24 1_555 1_555
O1 C1 1_555 1_555
O2 C1 1_555 1_555
O3 Tb1 1_555 1_555
O4 C9 1_555 1_555
O5 Tb1 1_555 1_555
O6 C17 1_555 1_555
O7 Tb1 1_555 1_555
O8 Tb1 1_555 1_555
C1 C2 1_555 1_555
C2 C3 1_555 1_555
C3 C4 1_555 1_555
C4 C5 1_555 1_555
C5 C6 1_555 1_555
C6 C7 1_555 1_555
C7 C2 1_555 1_555
C8 C5 1_555 1_555
C9 O3 1_555 1_555
C10 C9 1_555 1_555
C11 C10 1_555 1_555
C12 C11 1_555 1_555
C13 C12 1_555 1_555
C14 C13 1_555 1_555
C15 C10 1_555 1_555
C16 C13 1_555 1_555
C17 O5 1_555 1_555
C18 C17 1_555 1_555
C19 C18 1_555 1_555
C20 C19 1_555 1_555
C21 C20 1_555 1_555
C22 C21 1_555 1_555
C23 C18 1_555 1_555
C24 C21 1_555 1_555
C25 O7 1_555 1_555
C26 O8 1_555 1_555
H1 C3 1_555 1_555
H2 C4 1_555 1_555
H3 C6 1_555 1_555
H4 C7 1_555 1_555
H5 C11 1_555 1_555
H6 C12 1_555 1_555
H7 C14 1_555 1_555
H8 C15 1_555 1_555
H9 C19 1_555 1_555
H10 C20 1_555 1_555
H11 C22 1_555 1_555
H12 C23 1_555 1_555
H13 C25 1_555 1_555
H14 C25 1_555 1_555
H15 C25 1_555 1_555
H16 C26 1_555 1_555
H17 C26 1_555 1_555
H18 C26 1_555 1_555
H19 O7 1_555 1_555
H20 O8 1_555 1_555
O9 C27 1_555 1_555
O2A Tb1 1_555 1_555
O4A Tb1 1_555 1_555
O6A Tb1 1_555 1_555
Tb1A O2 1_555 1_555
Tb1A_2 O4 1_555 1_555
O6 Tb1A_2 1_555 1_555
C14 C15 1_555 1_555
C22 C23 1_555 1_555

#END
