
#######################################################################
#
#                 Cambridge Crystallographic Data Centre
#                                CCDC 
#
#######################################################################
#
# If this CIF has been generated from an entry in the Cambridge 
# Structural Database, then it will include bibliographic, chemical, 
# crystal, experimental, refinement or atomic coordinate data resulting 
# from the CCDC's data processing and validation procedures.
#
#######################################################################

data_LUSDOS
_symmetry_cell_setting           triclinic
_symmetry_space_group_name_H-M   'P -1'
_symmetry_Int_Tables_number      2
_space_group_name_Hall           '-P 1'
loop_
_symmetry_equiv_pos_site_id
_symmetry_equiv_pos_as_xyz
1 x,y,z
2 -x,-y,-z
_cell_length_a                   9.6991(8)
_cell_length_b                   10.7015(9)
_cell_length_c                   15.212(1)
_cell_angle_alpha                88.95(1)
_cell_angle_beta                 88.70(1)
_cell_angle_gamma                77.29(1)
_cell_volume                     1539.7
loop_
_atom_site_label
_atom_site_type_symbol
_atom_site_fract_x
_atom_site_fract_y
_atom_site_fract_z
Gd1 Gd 0.25315(3) 0.47452(3) -0.02306(2)
F1 F 0.3500(8) 0.6317(7) 0.5751(4)
F2 F 0.2221(8) 0.7428(6) 0.4809(5)
F3 F 0.4169(8) 0.6293(8) 0.4434(5)
F4 F 0.2153(10) 1.1265(8) 0.3760(5)
F5 F 0.0325(8) 1.2712(5) 0.3961(4)
F6 F 0.0235(10) 1.0777(6) 0.4200(5)
F7 F 0.203(2) 1.145(1) -0.378(1)
F8 F 0.341(1) 1.0201(10) -0.4558(5)
F9 F 0.346(1) 1.2173(9) -0.4483(6)
O1 O 0.0968(5) 0.4419(5) 0.0887(3)
O2 O -0.1149(4) 0.4932(5) 0.1490(3)
O3 O 0.2487(6) 0.5339(6) 0.4840(3)
O4 O 0.1139(4) 0.6951(5) 0.0171(3)
O5 O 0.3046(4) 0.6156(4) 0.0944(3)
O6 O 0.0461(9) 1.1462(6) 0.2869(5)
O7 O 0.3684(5) 0.6169(5) -0.0931(3)
O8 O 0.5683(5) 0.6613(5) -0.0492(3)
O9 O 0.406(1) 1.0891(10) -0.3404(8)
O10 O 0.4252(4) 0.3583(5) -0.1350(3)
O11 O 0.1792(5) 0.2697(5) -0.0420(3)
C1 C 0.0163(6) 0.4723(6) 0.1529(4)
C2 C 0.0777(6) 0.4870(6) 0.2411(4)
C3 C 0.2200(6) 0.4360(7) 0.2559(4)
C4 C 0.2776(7) 0.4521(7) 0.3370(4)
C5 C 0.1919(7) 0.5212(7) 0.4000(4)
C6 C 0.0510(7) 0.5713(7) 0.3872(4)
C7 C -0.0052(6) 0.5537(7) 0.3070(4)
C8 C 0.307(1) 0.632(1) 0.4951(7)
C9 C 0.1963(7) 0.7044(7) 0.0790(4)
C10 C 0.1637(7) 0.8202(7) 0.1347(4)
C11 C 0.1098(9) 0.9399(8) 0.0993(5)
C12 C 0.075(1) 1.0468(8) 0.1516(6)
C13 C 0.0940(10) 1.0295(8) 0.2400(6)
C14 C 0.149(1) 0.9123(9) 0.2787(5)
C15 C 0.1879(8) 0.8070(7) 0.2244(5)
C16 C 0.070(2) 1.157(1) 0.3665(8)
C17 C 0.4605(6) 0.6823(7) -0.0968(4)
C18 C 0.4426(6) 0.7890(6) -0.1599(4)
C19 C 0.3355(9) 0.8092(9) -0.2195(6)
C20 C 0.320(1) 0.907(1) -0.2814(7)
C21 C 0.414(1) 0.9866(10) -0.2812(7)
C22 C 0.5185(10) 0.9708(9) -0.2220(6)
C23 C 0.5349(7) 0.8717(8) -0.1632(5)
C24 C 0.346(3) 1.120(2) -0.405(1)
C25 C 0.4230(8) 0.387(1) -0.2266(5)
C26 C 0.229(1) 0.1645(10) -0.0938(8)
H1 H 0.0964 0.9491 0.0376
H2 H 0.0391 1.1295 0.1269
H3 H 0.1610 0.9039 0.3405
H4 H 0.2309 0.7257 0.2487
H5 H 0.2781 0.3903 0.2108
H6 H 0.3741 0.4158 0.3484
H7 H -0.0066 0.6171 0.4325
H8 H -0.1026 0.5882 0.2971
H9 H 0.2705 0.7545 -0.2182
H10 H 0.2468 0.9194 -0.3230
H11 H 0.5800 1.0287 -0.2214
H12 H 0.6112 0.8586 -0.1236
H13 H 0.4346 0.4722 -0.2358
H14 H 0.4979 0.3291 -0.2555
H15 H 0.3352 0.3791 -0.2496
H16 H 0.1712 0.1041 -0.0847
H17 H 0.2266 0.1904 -0.1539
H18 H 0.3234 0.1262 -0.0785
H19 H 0.5220 0.3508 -0.1258
H20 H 0.0790 0.2842 -0.0340
O2A O 0.1149(4) 0.5068(5) -0.1490(3)
O8A O 0.4317(5) 0.3387(5) 0.0492(3)
Gd1A Gd -0.25315(3) 0.52548(3) 0.02306(2)
Gd1A_2 Gd 0.74685(3) 0.52548(3) 0.02306(2)
loop_
_geom_bond_atom_site_label_1
_geom_bond_atom_site_label_2
_geom_bond_site_symmetry_1
_geom_bond_site_symmetry_2
Gd1 O1 1_555 1_555
F1 C8 1_555 1_555
F2 C8 1_555 1_555
F3 C8 1_555 1_555
F4 C16 1_555 1_555
F5 C16 1_555 1_555
F6 C16 1_555 1_555
F7 C24 1_555 1_555
F8 C24 1_555 1_555
F9 C24 1_555 1_555
O1 C1 1_555 1_555
O2 C1 1_555 1_555
O3 C5 1_555 1_555
O4 Gd1 1_555 1_555
O5 Gd1 1_555 1_555
O6 C13 1_555 1_555
O7 Gd1 1_555 1_555
O8 C17 1_555 1_555
O9 C21 1_555 1_555
O10 Gd1 1_555 1_555
O11 Gd1 1_555 1_555
C1 C2 1_555 1_555
C2 C3 1_555 1_555
C3 C4 1_555 1_555
C4 C5 1_555 1_555
C5 C6 1_555 1_555
C6 C7 1_555 1_555
C7 C2 1_555 1_555
C8 O3 1_555 1_555
C9 O4 1_555 1_555
C10 C9 1_555 1_555
C11 C10 1_555 1_555
C12 C11 1_555 1_555
C13 C12 1_555 1_555
C14 C13 1_555 1_555
C15 C10 1_555 1_555
C16 O6 1_555 1_555
C17 O7 1_555 1_555
C18 C17 1_555 1_555
C19 C18 1_555 1_555
C20 C19 1_555 1_555
C21 C20 1_555 1_555
C22 C21 1_555 1_555
C23 C18 1_555 1_555
C24 O9 1_555 1_555
C25 O10 1_555 1_555
C26 O11 1_555 1_555
H1 C11 1_555 1_555
H2 C12 1_555 1_555
H3 C14 1_555 1_555
H4 C15 1_555 1_555
H5 C3 1_555 1_555
H6 C4 1_555 1_555
H7 C6 1_555 1_555
H8 C7 1_555 1_555
H9 C19 1_555 1_555
H10 C20 1_555 1_555
H11 C22 1_555 1_555
H12 C23 1_555 1_555
H13 C25 1_555 1_555
H14 C25 1_555 1_555
H15 C25 1_555 1_555
H16 C26 1_555 1_555
H17 C26 1_555 1_555
H18 C26 1_555 1_555
H19 O10 1_555 1_555
H20 O11 1_555 1_555
O2A Gd1 1_555 1_555
O8A Gd1 1_555 1_555
Gd1A O2 1_555 1_555
Gd1A_2 O8 1_555 1_555
O5 C9 1_555 1_555
C14 C15 1_555 1_555
C22 C23 1_555 1_555

#END
