
#######################################################################
#
#                 Cambridge Crystallographic Data Centre
#                                CCDC 
#
#######################################################################
#
# If this CIF has been generated from an entry in the Cambridge 
# Structural Database, then it will include bibliographic, chemical, 
# crystal, experimental, refinement or atomic coordinate data resulting 
# from the CCDC's data processing and validation procedures.
#
#######################################################################

data_LUSFIO
_symmetry_cell_setting           monoclinic
_symmetry_space_group_name_H-M   'P 21/c'
_symmetry_Int_Tables_number      14
_space_group_name_Hall           '-P 2ybc'
loop_
_symmetry_equiv_pos_site_id
_symmetry_equiv_pos_as_xyz
1 x,y,z
2 -x,1/2+y,1/2-z
3 -x,-y,-z
4 x,1/2-y,1/2+z
_cell_length_a                   15.142(1)
_cell_length_b                   15.952(1)
_cell_length_c                   10.6870(7)
_cell_angle_alpha                90
_cell_angle_beta                 97.50(1)
_cell_angle_gamma                90
_cell_volume                     2559.31
loop_
_atom_site_label
_atom_site_type_symbol
_atom_site_fract_x
_atom_site_fract_y
_atom_site_fract_z
Tb1 Tb 0.91687(2) 0.24071(1) 0.19758(2)
O1 O 1.0311(3) 0.2270(3) 0.0805(4)
O2 O 1.0122(3) 0.2212(3) -0.1284(4)
O3 O 1.4241(3) 0.1333(4) -0.0004(5)
O4 O 0.8264(3) 0.2906(3) 0.0255(4)
O5 O 0.8160(3) 0.3101(3) -0.1812(4)
O6 O 0.4172(3) 0.3865(5) -0.1127(5)
O7 O 0.8478(3) 0.3629(2) 0.2986(4)
O8 O 0.9509(3) 0.3979(3) 0.1880(4)
O9 O 0.8981(5) 0.4900(3) 0.3081(6)
O10 O 0.9928(4) 0.1145(3) 0.2758(4)
O11 O 0.8539(4) 0.1223(3) 0.0654(4)
N1 N 0.8985(4) 0.4184(3) 0.2647(5)
C1 C 1.0598(4) 0.2149(3) -0.0232(5)
C2 C 1.1559(4) 0.1921(3) -0.0203(5)
C3 C 1.1943(5) 0.1874(4) -0.1306(6)
C4 C 1.2843(5) 0.1685(5) -0.1286(6)
C5 C 1.3352(4) 0.1520(5) -0.0158(6)
C6 C 1.2960(5) 0.1551(5) 0.0961(6)
C7 C 1.2081(4) 0.1743(4) 0.0927(5)
C8 C 1.4680(5) 0.1237(5) -0.1086(7)
C9 C 1.5649(5) 0.0997(6) -0.0592(8)
C10 C 1.6187(7) 0.0847(8) -0.1637(9)
C11 C 0.7828(4) 0.3074(3) -0.0799(5)
C12 C 0.6860(4) 0.3260(4) -0.0852(5)
C13 C 0.6443(5) 0.3244(5) 0.0214(6)
C14 C 0.5553(5) 0.3434(6) 0.0176(7)
C15 C 0.5042(5) 0.3644(5) -0.0976(7)
C16 C 0.5460(5) 0.3661(6) -0.2058(6)
C17 C 0.6349(5) 0.3467(5) -0.2002(6)
C18 C 0.3727(6) 0.3972(6) -0.0073(8)
C19 C 0.2830(6) 0.4356(7) -0.0497(9)
C20 C 0.2325(7) 0.4522(8) 0.058(1)
C21 C 0.9964(7) 0.0847(5) 0.4006(7)
C22 C 0.8317(7) 0.0395(5) 0.0974(8)
H1 H 1.1587 0.1974 -0.2092
H2 H 1.3101 0.1670 -0.2049
H3 H 1.3311 0.1437 0.1747
H4 H 1.1822 0.1754 0.1690
H5 H 0.6778 0.3097 0.0999
H6 H 0.5283 0.3421 0.0930
H7 H 0.5128 0.3808 -0.2845
H8 H 0.6621 0.3472 -0.2754
H9 H 1.4405 0.0807 -0.1615
H10 H 1.4665 0.1748 -0.1546
H11 H 1.5913 0.1438 -0.0076
H12 H 1.5646 0.0499 -0.0103
H13 H 0.3652 0.3444 0.0311
H14 H 0.4062 0.4332 0.0517
H15 H 0.2913 0.4870 -0.0915
H16 H 0.2495 0.3982 -0.1067
H17 H 1.5938 0.0396 -0.2142
H18 H 1.6185 0.1340 -0.2139
H19 H 1.6781 0.0716 -0.1296
H20 H 0.2655 0.4895 0.1150
H21 H 0.1768 0.4768 0.0267
H22 H 0.2230 0.4010 0.0989
H23 H 0.9376 0.0745 0.4188
H24 H 1.0297 0.0341 0.4090
H25 H 1.0242 0.1254 0.4572
H26 H 0.7879 0.0412 0.1531
H27 H 0.8089 0.0101 0.0227
H28 H 0.8835 0.0120 0.1370
H29 H 1.0311(4) 0.0851(3) 0.2437(5)
H30 H 0.8264(4) 0.1314(3) -0.0028(5)
O2C O 1.0122(3) 0.2788(3) 0.3716(4)
O5C O 0.8160(3) 0.1899(3) 0.3188(4)
Tb1C Tb 0.91687(2) 0.25929(1) -0.30242(2)
loop_
_geom_bond_atom_site_label_1
_geom_bond_atom_site_label_2
_geom_bond_site_symmetry_1
_geom_bond_site_symmetry_2
Tb1 O1 1_555 1_555
O1 C1 1_555 1_555
O2 C1 1_555 1_555
O3 C5 1_555 1_555
O4 Tb1 1_555 1_555
O5 C11 1_555 1_555
O6 C15 1_555 1_555
O7 Tb1 1_555 1_555
O8 Tb1 1_555 1_555
O9 N1 1_555 1_555
O10 Tb1 1_555 1_555
O11 Tb1 1_555 1_555
N1 O7 1_555 1_555
C1 C2 1_555 1_555
C2 C3 1_555 1_555
C3 C4 1_555 1_555
C4 C5 1_555 1_555
C5 C6 1_555 1_555
C6 C7 1_555 1_555
C7 C2 1_555 1_555
C8 O3 1_555 1_555
C9 C8 1_555 1_555
C10 C9 1_555 1_555
C11 O4 1_555 1_555
C12 C11 1_555 1_555
C13 C12 1_555 1_555
C14 C13 1_555 1_555
C15 C14 1_555 1_555
C16 C15 1_555 1_555
C17 C12 1_555 1_555
C18 O6 1_555 1_555
C19 C18 1_555 1_555
C20 C19 1_555 1_555
C21 O10 1_555 1_555
C22 O11 1_555 1_555
H1 C3 1_555 1_555
H2 C4 1_555 1_555
H3 C6 1_555 1_555
H4 C7 1_555 1_555
H5 C13 1_555 1_555
H6 C14 1_555 1_555
H7 C16 1_555 1_555
H8 C17 1_555 1_555
H9 C8 1_555 1_555
H10 C8 1_555 1_555
H11 C9 1_555 1_555
H12 C9 1_555 1_555
H13 C18 1_555 1_555
H14 C18 1_555 1_555
H15 C19 1_555 1_555
H16 C19 1_555 1_555
H17 C10 1_555 1_555
H18 C10 1_555 1_555
H19 C10 1_555 1_555
H20 C20 1_555 1_555
H21 C20 1_555 1_555
H22 C20 1_555 1_555
H23 C21 1_555 1_555
H24 C21 1_555 1_555
H25 C21 1_555 1_555
H26 C22 1_555 1_555
H27 C22 1_555 1_555
H28 C22 1_555 1_555
H29 O10 1_555 1_555
H30 O11 1_555 1_555
O2C Tb1 1_555 1_555
O5C Tb1 1_555 1_555
Tb1C O2 1_555 1_555
O5 Tb1C 1_555 1_555
O8 N1 1_555 1_555
C16 C17 1_555 1_555

#END
