
#######################################################################
#
#                 Cambridge Crystallographic Data Centre
#                                CCDC 
#
#######################################################################
#
# If this CIF has been generated from an entry in the Cambridge 
# Structural Database, then it will include bibliographic, chemical, 
# crystal, experimental, refinement or atomic coordinate data resulting 
# from the CCDC's data processing and validation procedures.
#
#######################################################################

data_LUSHOX01
_symmetry_cell_setting           monoclinic
_symmetry_space_group_name_H-M   'P 21/c'
_symmetry_Int_Tables_number      14
_space_group_name_Hall           '-P 2ybc'
loop_
_symmetry_equiv_pos_site_id
_symmetry_equiv_pos_as_xyz
1 x,y,z
2 -x,1/2+y,1/2-z
3 -x,-y,-z
4 x,1/2-y,1/2+z
_cell_length_a                   13.414(3)
_cell_length_b                   10.162(2)
_cell_length_c                   17.653(4)
_cell_angle_alpha                90
_cell_angle_beta                 90.21(3)
_cell_angle_gamma                90
_cell_volume                     2406.32
loop_
_atom_site_label
_atom_site_type_symbol
_atom_site_fract_x
_atom_site_fract_y
_atom_site_fract_z
Mn1 Mn 0.611127(16) -0.08158(2) 0.532022(12)
Mn2 Mn 0.846502(16) 0.07555(2) 0.515432(12)
O1 O 0.70000(8) 0.02325(11) 0.44564(6)
O2 O 0.54656(8) 0.09710(12) 0.45186(6)
O3 O 0.60797(9) 0.44013(12) 0.11807(7)
O4 O 0.74118(8) 0.31880(12) 0.08729(6)
O5 O 0.68107(9) -0.20917(12) 0.60992(7)
O6 O 0.81936(10) -0.10204(13) 0.57812(7)
O7 O 1.04573(8) -0.35145(12) 0.90670(7)
O8 O 0.91543(8) -0.48501(12) 0.92292(6)
O9 O 0.59692(9) -0.24020(12) 0.45095(7)
O10 O 0.85874(9) 0.26382(11) 0.45487(6)
N1 N 0.52485(12) -0.42055(13) 0.39854(9)
N2 N 0.87037(12) 0.48649(15) 0.45560(9)
C1 C 0.62841(11) 0.08864(14) 0.41728(8)
C2 C 0.63943(11) 0.15253(15) 0.34204(8)
C3 C 0.73280(11) 0.15861(16) 0.30747(8)
H1 H 0.7897 0.1222 0.3318
C4 C 0.55535(10) 0.20565(16) 0.30645(8)
H2 H 0.4916 0.1976 0.3293
C5 C 0.74140(11) 0.21875(16) 0.23693(9)
H3 H 0.8040 0.2202 0.2119
C6 C 0.56537(11) 0.27026(15) 0.23765(8)
H4 H 0.5090 0.3099 0.2142
C7 C 0.65868(11) 0.27663(15) 0.20305(8)
C8 C 0.67051(11) 0.35105(16) 0.12980(8)
C9 C 0.77101(12) -0.17617(15) 0.62130(8)
C10 C 0.82110(11) -0.23126(15) 0.69039(8)
C11 C 0.76410(11) -0.29104(16) 0.74683(8)
H5 H 0.6937 -0.2961 0.7411
C12 C 0.92452(11) -0.22301(16) 0.69916(9)
H6 H 0.9639 -0.1812 0.6616
C13 C 0.80908(11) -0.34307(16) 0.81106(8)
H7 H 0.7695 -0.3828 0.8493
C14 C 0.96934(11) -0.27652(16) 0.76342(9)
H8 H 1.0397 -0.2718 0.7692
C15 C 0.91239(11) -0.33702(15) 0.81951(8)
C16 C 0.96156(11) -0.39582(15) 0.88881(8)
C17 C 0.52398(12) -0.31352(16) 0.44141(9)
H9 H 0.4637 -0.2915 0.4664
C18 C 0.61336(15) -0.4570(2) 0.35575(12)
H10 H 0.6656 -0.3911 0.3640
H11 H 0.5968 -0.4612 0.3017
H12 H 0.6372 -0.5432 0.3728
C19 C 0.43570(15) -0.50042(19) 0.38800(12)
H13 H 0.3823 -0.4670 0.4205
H14 H 0.4504 -0.5919 0.4015
H15 H 0.4144 -0.4961 0.3349
C20 C 0.85199(12) 0.37131(17) 0.48757(9)
H16 H 0.8322 0.3710 0.5392
C21 C 0.9023(2) 0.4942(2) 0.37707(12)
H17 H 0.9048 0.4055 0.3554
H18 H 0.9686 0.5343 0.3747
H19 H 0.8549 0.5480 0.3482
C22 C 0.85952(17) 0.6100(2) 0.49689(12)
H20 H 0.8410 0.5914 0.5495
H21 H 0.8074 0.6635 0.4729
H22 H 0.9228 0.6581 0.4960
Mn1B Mn 0.388873(16) 0.08158(2) 0.467978(12)
Mn1C Mn 0.611127(16) 0.58158(2) 0.032022(12)
Mn2C Mn 0.846502(16) 0.42445(2) 0.015432(12)
Mn2A Mn 1.153498(16) -0.42445(2) 0.984568(12)
Mn2C_2 Mn 0.846502(16) -0.57555(2) 1.015432(12)
O2B O 0.45344(8) -0.09710(12) 0.54814(6)
O3C O 0.60797(9) 0.05987(12) 0.61807(7)
O4C O 0.74118(8) 0.18120(12) 0.58729(6)
O7A O 0.95427(8) 0.14855(12) 0.59330(7)
O8C O 0.91543(8) -0.01499(12) 0.42292(6)
loop_
_geom_bond_atom_site_label_1
_geom_bond_atom_site_label_2
_geom_bond_site_symmetry_1
_geom_bond_site_symmetry_2
Mn1 O1 1_555 1_555
Mn2 O1 1_555 1_555
O1 C1 1_555 1_555
O2 Mn1 1_555 1_555
O3 C8 1_555 1_555
O4 C8 1_555 1_555
O5 Mn1 1_555 1_555
O6 Mn2 1_555 1_555
O7 C16 1_555 1_555
O8 C16 1_555 1_555
O9 Mn1 1_555 1_555
O10 Mn2 1_555 1_555
N1 C17 1_555 1_555
N2 C20 1_555 1_555
C1 O2 1_555 1_555
C2 C1 1_555 1_555
C3 C2 1_555 1_555
H1 C3 1_555 1_555
C4 C2 1_555 1_555
H2 C4 1_555 1_555
C5 C3 1_555 1_555
H3 C5 1_555 1_555
C6 C4 1_555 1_555
H4 C6 1_555 1_555
C7 C5 1_555 1_555
C8 C7 1_555 1_555
C9 O5 1_555 1_555
C10 C9 1_555 1_555
C11 C10 1_555 1_555
H5 C11 1_555 1_555
C12 C10 1_555 1_555
H6 C12 1_555 1_555
C13 C11 1_555 1_555
H7 C13 1_555 1_555
C14 C12 1_555 1_555
H8 C14 1_555 1_555
C15 C13 1_555 1_555
C16 C15 1_555 1_555
C17 O9 1_555 1_555
H9 C17 1_555 1_555
C18 N1 1_555 1_555
H10 C18 1_555 1_555
H11 C18 1_555 1_555
H12 C18 1_555 1_555
C19 N1 1_555 1_555
H13 C19 1_555 1_555
H14 C19 1_555 1_555
H15 C19 1_555 1_555
C20 O10 1_555 1_555
H16 C20 1_555 1_555
C21 N2 1_555 1_555
H17 C21 1_555 1_555
H18 C21 1_555 1_555
H19 C21 1_555 1_555
C22 N2 1_555 1_555
H20 C22 1_555 1_555
H21 C22 1_555 1_555
H22 C22 1_555 1_555
Mn1B O2 1_555 1_555
Mn1C O3 1_555 1_555
Mn2C O4 1_555 1_555
Mn2A O7 1_555 1_555
Mn2C_2 O8 1_555 1_555
O2B Mn1 1_555 1_555
O3C Mn1 1_555 1_555
O4C Mn2 1_555 1_555
O7A Mn2 1_555 1_555
O8C Mn2 1_555 1_555
O6 C9 1_555 1_555
C6 C7 1_555 1_555
C14 C15 1_555 1_555
Mn1B O2B 1_555 1_555

#END
