
#######################################################################
#
#                 Cambridge Crystallographic Data Centre
#                                CCDC 
#
#######################################################################
#
# If this CIF has been generated from an entry in the Cambridge 
# Structural Database, then it will include bibliographic, chemical, 
# crystal, experimental, refinement or atomic coordinate data resulting 
# from the CCDC's data processing and validation procedures.
#
#######################################################################

data_LUSHEN
_symmetry_cell_setting           triclinic
_symmetry_space_group_name_H-M   'P -1'
_symmetry_Int_Tables_number      2
_space_group_name_Hall           '-P 1'
loop_
_symmetry_equiv_pos_site_id
_symmetry_equiv_pos_as_xyz
1 x,y,z
2 -x,-y,-z
_cell_length_a                   7.4362(12)
_cell_length_b                   10.2754(16)
_cell_length_c                   10.923(3)
_cell_angle_alpha                114.436(4)
_cell_angle_beta                 104.890(4)
_cell_angle_gamma                96.042(3)
_cell_volume                     712.804
loop_
_atom_site_label
_atom_site_type_symbol
_atom_site_fract_x
_atom_site_fract_y
_atom_site_fract_z
C1 C -0.2655(6) 0.8136(4) 0.4726(5)
H1 H -0.3401 0.7435 0.3807
C2 C -0.2375(6) 0.9611(5) 0.5078(5)
C3 C -0.1253(6) 1.0611(4) 0.6447(5)
H2 H -0.1037 1.1611 0.6704
C4 C -0.0442(6) 1.0161(4) 0.7446(5)
C5 C -0.0794(6) 0.8661(4) 0.7033(4)
H3 H -0.0286 0.8323 0.7685
C6 C -0.3296(7) 1.0084(5) 0.3986(6)
H4 H -0.2958 1.1139 0.4401
H5 H -0.4663 0.9741 0.3674
H6 H -0.2853 0.9675 0.3186
C7 C 0.0783(7) 1.1237(5) 0.8953(5)
H7 H 0.0888 1.2224 0.9068
H8 H 0.2036 1.1049 0.9145
H9 H 0.0204 1.1125 0.9605
C8 C -0.8144(6) 0.5606(4) 0.2944(4)
C9 C -0.9097(5) 0.5305(4) 0.1418(4)
C10 C -1.1086(5) 0.4992(4) 0.0858(4)
H10 H -1.1822 0.4981 0.1426
C11 C -0.8021(6) 0.5303(4) 0.0542(4)
H11 H -0.6691 0.5501 0.0901
C12 C -0.6296(5) 0.7339(4) 0.7298(4)
C13 C -0.5606(5) 0.8716(4) 0.8714(4)
C14 C -0.4160(5) 0.9859(4) 0.8976(4)
H12 H -0.3589 0.9763 0.8289
C15 C -0.6445(6) 0.8852(4) 0.9744(4)
H13 H -0.7408 0.8084 0.9579
N1 N -0.1864(4) 0.7705(3) 0.5695(3)
O1 O -0.2188(4) 0.6264(3) 0.5307(3)
O2 O -0.9121(4) 0.5963(3) 0.3759(3)
O3 O -0.6445(4) 0.5481(3) 0.3277(3)
O4 O -0.7974(4) 0.6616(3) 0.6951(3)
O5 O -0.5165(4) 0.7039(3) 0.6609(3)
Mn1 Mn -0.5000 0.5000 0.5000
Mn2 Mn 0.0000 0.5000 0.5000
C1A C -0.7345(6) 0.1864(4) 0.5274(5)
H1A H -0.6599 0.2565 0.6193
C2A C -0.7625(6) 0.0389(5) 0.4922(5)
C3A C -0.8747(6) -0.0611(4) 0.3553(5)
H2A H -0.8963 -0.1611 0.3296
C4A C -0.9558(6) -0.0161(4) 0.2554(5)
C5A C -0.9206(6) 0.1339(4) 0.2967(4)
H3A H -0.9714 0.1677 0.2315
C6A C -0.6704(7) -0.0084(5) 0.6014(6)
H4A H -0.7042 -0.1139 0.5599
H5A H -0.5337 0.0259 0.6326
H6A H -0.7147 0.0325 0.6814
C7A C -1.0783(7) -0.1237(5) 0.1047(5)
H7A H -1.0888 -0.2224 0.0932
H8A H -1.2036 -0.1049 0.0855
H9A H -1.0204 -0.1125 0.0395
C8A C -1.1856(6) 0.4394(4) -0.2944(4)
C9A C -1.0903(5) 0.4695(4) -0.1418(4)
C10A C -0.8914(5) 0.5008(4) -0.0858(4)
H10A H -0.8178 0.5019 -0.1426
C11A C -1.1979(6) 0.4697(4) -0.0542(4)
H11A H -1.3309 0.4499 -0.0901
C12A C -0.3704(5) 1.2661(4) 1.2702(4)
C13A C -0.4394(5) 1.1284(4) 1.1286(4)
C14A C -0.5840(5) 1.0141(4) 1.1024(4)
H12A H -0.6411 1.0237 1.1711
C15A C -0.3555(6) 1.1148(4) 1.0256(4)
H13A H -0.2592 1.1916 1.0421
N1A N -0.8136(4) 0.2295(3) 0.4305(3)
O1A O -0.7812(4) 0.3736(3) 0.4693(3)
O1A_2 O 0.2188(4) 0.3736(3) 0.4693(3)
O2A O -1.0879(4) 0.4037(3) -0.3759(3)
O2A_2 O -0.0879(4) 0.4037(3) 0.6241(3)
O2_2 O 0.0879(4) 0.5963(3) 0.3759(3)
O3A O -1.3555(4) 0.4519(3) -0.3277(3)
O3A_2 O -0.3555(4) 0.4519(3) 0.6723(3)
O4A O -0.2026(4) 1.3384(3) 1.3049(3)
O4A_2 O -0.2026(4) 0.3384(3) 0.3049(3)
O4_2 O 0.2026(4) 0.6616(3) 0.6951(3)
O5A O -0.4835(4) 1.2961(3) 1.3391(3)
O5A_2 O -0.4835(4) 0.2961(3) 0.3391(3)
Mn1_2 Mn -1.5000 0.5000 -0.5000
Mn1_3 Mn -0.5000 1.5000 1.5000
Mn2_2 Mn -1.0000 0.5000 0.5000
Mn2_3 Mn -1.0000 0.5000 -0.5000
Mn2_4 Mn 0.0000 1.5000 1.5000
loop_
_geom_bond_atom_site_label_1
_geom_bond_atom_site_label_2
_geom_bond_site_symmetry_1
_geom_bond_site_symmetry_2
C1 H1 1_555 1_555
C2 C1 1_555 1_555
C3 C2 1_555 1_555
H2 C3 1_555 1_555
C4 C3 1_555 1_555
C5 C4 1_555 1_555
H3 C5 1_555 1_555
C6 C2 1_555 1_555
H4 C6 1_555 1_555
H5 C6 1_555 1_555
H6 C6 1_555 1_555
C7 C4 1_555 1_555
H7 C7 1_555 1_555
H8 C7 1_555 1_555
H9 C7 1_555 1_555
C8 C9 1_555 1_555
C9 C10 1_555 1_555
C10 H10 1_555 1_555
C11 C9 1_555 1_555
H11 C11 1_555 1_555
C12 C13 1_555 1_555
C13 C14 1_555 1_555
C14 H12 1_555 1_555
C15 C13 1_555 1_555
H13 C15 1_555 1_555
N1 C1 1_555 1_555
O1 N1 1_555 1_555
O2 C8 1_555 1_555
O3 C8 1_555 1_555
O4 C12 1_555 1_555
O5 C12 1_555 1_555
Mn1 O1 1_555 1_555
Mn2 O1 1_555 1_555
C1A H1A 1_555 1_555
C2A C1A 1_555 1_555
C3A C2A 1_555 1_555
H2A C3A 1_555 1_555
C4A C3A 1_555 1_555
C5A C4A 1_555 1_555
H3A C5A 1_555 1_555
C6A C2A 1_555 1_555
H4A C6A 1_555 1_555
H5A C6A 1_555 1_555
H6A C6A 1_555 1_555
C7A C4A 1_555 1_555
H7A C7A 1_555 1_555
H8A C7A 1_555 1_555
H9A C7A 1_555 1_555
C8A C9A 1_555 1_555
C9A C10A 1_555 1_555
C10A C11 1_555 1_555
H10A C10A 1_555 1_555
C11A C10 1_555 1_555
H11A C11A 1_555 1_555
C12A C13A 1_555 1_555
C13A C14A 1_555 1_555
C14A C15 1_555 1_555
H12A C14A 1_555 1_555
C15A C14 1_555 1_555
H13A C15A 1_555 1_555
N1A C1A 1_555 1_555
O1A Mn1 1_555 1_555
O1A_2 Mn2 1_555 1_555
O2A C8A 1_555 1_555
O2A_2 Mn2 1_555 1_555
O2_2 Mn2 1_555 1_555
O3A C8A 1_555 1_555
O3A_2 Mn1 1_555 1_555
O4A C12A 1_555 1_555
O4A_2 Mn2 1_555 1_555
O4_2 Mn2 1_555 1_555
O5A C12A 1_555 1_555
O5A_2 Mn1 1_555 1_555
Mn1_2 O3A 1_555 1_555
Mn1_3 O5A 1_555 1_555
Mn2_2 O2 1_555 1_555
Mn2_3 O2A 1_555 1_555
Mn2_4 O4A 1_555 1_555
C5 N1 1_555 1_555
O3 Mn1 1_555 1_555
O4 Mn2_2 1_555 1_555
O5 Mn1 1_555 1_555
C5A N1A 1_555 1_555
C9A C11A 1_555 1_555
C13A C15A 1_555 1_555
N1A O1A 1_555 1_555
O1A Mn2_2 1_555 1_555

#END
