
#######################################################################
#
#                 Cambridge Crystallographic Data Centre
#                                CCDC 
#
#######################################################################
#
# If this CIF has been generated from an entry in the Cambridge 
# Structural Database, then it will include bibliographic, chemical, 
# crystal, experimental, refinement or atomic coordinate data resulting 
# from the CCDC's data processing and validation procedures.
#
#######################################################################

data_LUSVUR01
_symmetry_cell_setting           triclinic
_symmetry_space_group_name_H-M   'P -1'
_symmetry_Int_Tables_number      2
_space_group_name_Hall           '-P 1'
loop_
_symmetry_equiv_pos_site_id
_symmetry_equiv_pos_as_xyz
1 x,y,z
2 -x,-y,-z
_cell_length_a                   10.2633(5)
_cell_length_b                   10.4611(5)
_cell_length_c                   15.7171(7)
_cell_angle_alpha                79.8530(10)
_cell_angle_beta                 81.0400(10)
_cell_angle_gamma                87.3630(10)
_cell_volume                     1640.51
loop_
_atom_site_label
_atom_site_type_symbol
_atom_site_fract_x
_atom_site_fract_y
_atom_site_fract_z
C1 C 0.4083(2) 0.7073(2) 0.56156(14)
C2 C 0.3574(2) 0.8251(2) 0.59817(14)
C3 C 0.3458(2) 0.9431(2) 0.54254(15)
H1 H 0.3758 0.9501 0.4816
C4 C 0.2901(2) 1.0505(2) 0.57646(16)
H2 H 0.2825 1.1313 0.5388
C5 C 0.2458(2) 1.0396(2) 0.66490(16)
H3 H 0.2047 1.1124 0.6875
C6 C 0.2607(2) 0.9236(2) 0.72116(15)
H4 H 0.2324 0.9177 0.7822
C7 C 0.3170(2) 0.8167(2) 0.68793(14)
H5 H 0.3282 0.7373 0.7263
C8 C 0.2800(2) 0.4593(2) 0.44715(14)
C9 C 0.1613(2) 0.4257(2) 0.41201(15)
C10 C 0.1553(2) 0.4614(3) 0.32314(17)
H6 H 0.2240 0.5106 0.2860
C11 C 0.0486(3) 0.4247(3) 0.28879(19)
H7 H 0.0448 0.4475 0.2280
C12 C -0.0519(3) 0.3550(3) 0.3436(2)
H8 H -0.1247 0.3298 0.3201
C13 C -0.0475(3) 0.3214(3) 0.4321(2)
H9 H -0.1178 0.2746 0.4693
C14 C 0.0594(2) 0.3560(2) 0.46679(17)
H10 H 0.0631 0.3322 0.5276
C15 C 0.1134(2) 0.0426(2) 1.13009(14)
C16 C 0.1758(2) 0.0752(2) 1.20266(14)
C17 C 0.1219(2) 0.0325(2) 1.28920(15)
H11 H 0.0455 -0.0195 1.3025
C18 C 0.1798(3) 0.0658(3) 1.35640(16)
H12 H 0.1424 0.0370 1.4155
C19 C 0.2914(3) 0.1405(2) 1.33752(16)
H13 H 0.3308 0.1625 1.3837
C20 C 0.3462(3) 0.1837(2) 1.25140(16)
H14 H 0.4229 0.2352 1.2386
C21 C 0.2886(2) 0.1514(2) 1.18410(15)
H15 H 0.3259 0.1812 1.1251
C22 C 0.1386(2) -0.2135(2) 0.98609(14)
C23 C 0.2151(2) -0.3360(2) 0.97383(14)
C24 C 0.1616(2) -0.4563(2) 1.01175(16)
H16 H 0.0780 -0.4606 1.0478
C25 C 0.2297(3) -0.5695(2) 0.99723(19)
H17 H 0.1921 -0.6514 1.0224
C26 C 0.3528(3) -0.5637(3) 0.94600(18)
H18 H 0.3998 -0.6415 0.9363
C27 C 0.4072(3) -0.4442(3) 0.90892(18)
H19 H 0.4918 -0.4401 0.8741
C28 C 0.3386(3) -0.3308(2) 0.92244(17)
H20 H 0.3759 -0.2490 0.8965
C29 C 0.2495(2) 0.3513(2) 0.72490(14)
H21 H 0.2085 0.4209 0.6906
C30 C 0.1769(2) 0.2821(2) 0.79840(13)
H22 H 0.0856 0.3021 0.8120
C31 C 0.3616(2) 0.1634(2) 0.83161(13)
C32 C 0.4347(2) 0.2289(2) 0.75358(14)
C33 C 0.4284(2) 0.0661(2) 0.89375(15)
H23 H 0.3684 0.0432 0.9488
H24 H 0.5084 0.1037 0.9051
H25 H 0.4521 -0.0120 0.8679
C34 C 0.5769(2) 0.1935(2) 0.72772(15)
H26 H 0.6069 0.2358 0.6675
H27 H 0.5865 0.0991 0.7318
H28 H 0.6302 0.2226 0.7670
N1 N 0.37762(18) 0.32186(17) 0.70091(11)
N2 N 0.23216(18) 0.18691(17) 0.85133(11)
O1 O 0.46176(15) 0.72298(14) 0.48247(9)
O2 O 0.39257(15) 0.59941(14) 0.61345(9)
O3 O 0.36239(15) 0.53228(15) 0.39440(10)
O4 O 0.29099(15) 0.40988(15) 0.52551(10)
O5 O 0.01217(15) -0.02852(15) 1.14904(10)
O6 O 0.16712(15) 0.09020(15) 1.05312(9)
O7 O 0.03020(15) -0.22478(14) 1.03828(10)
O8 O 0.18664(15) -0.10799(14) 0.94297(10)
Rh1 Rh 0.462633(16) 0.434882(15) 0.569662(10)
Rh2 Rh 0.083067(16) 0.062541(15) 0.949489(10)
O1A O 0.53824(15) 0.27702(14) 0.51753(9)
O3A O 0.63761(15) 0.46772(15) 0.60560(10)
O5A O -0.01217(15) 0.02852(15) 0.85096(10)
O7A O -0.03020(15) 0.22478(14) 0.96172(10)
Rh1A Rh 0.537367(16) 0.565118(15) 0.430338(10)
Rh2A Rh -0.083067(16) -0.062541(15) 1.050511(10)
loop_
_geom_bond_atom_site_label_1
_geom_bond_atom_site_label_2
_geom_bond_site_symmetry_1
_geom_bond_site_symmetry_2
C1 C2 1_555 1_555
C2 C3 1_555 1_555
C3 H1 1_555 1_555
C4 C3 1_555 1_555
H2 C4 1_555 1_555
C5 C4 1_555 1_555
H3 C5 1_555 1_555
C6 C5 1_555 1_555
H4 C6 1_555 1_555
C7 C2 1_555 1_555
H5 C7 1_555 1_555
C8 C9 1_555 1_555
C9 C10 1_555 1_555
C10 H6 1_555 1_555
C11 C10 1_555 1_555
H7 C11 1_555 1_555
C12 C11 1_555 1_555
H8 C12 1_555 1_555
C13 C12 1_555 1_555
H9 C13 1_555 1_555
C14 C9 1_555 1_555
H10 C14 1_555 1_555
C15 C16 1_555 1_555
C16 C17 1_555 1_555
C17 H11 1_555 1_555
C18 C17 1_555 1_555
H12 C18 1_555 1_555
C19 C18 1_555 1_555
H13 C19 1_555 1_555
C20 C19 1_555 1_555
H14 C20 1_555 1_555
C21 C16 1_555 1_555
H15 C21 1_555 1_555
C22 C23 1_555 1_555
C23 C24 1_555 1_555
C24 H16 1_555 1_555
C25 C24 1_555 1_555
H17 C25 1_555 1_555
C26 C25 1_555 1_555
H18 C26 1_555 1_555
C27 C26 1_555 1_555
H19 C27 1_555 1_555
C28 C23 1_555 1_555
H20 C28 1_555 1_555
C29 H21 1_555 1_555
C30 C29 1_555 1_555
H22 C30 1_555 1_555
C31 C32 1_555 1_555
C32 C34 1_555 1_555
C33 C31 1_555 1_555
H23 C33 1_555 1_555
H24 C33 1_555 1_555
H25 C33 1_555 1_555
C34 H26 1_555 1_555
H27 C34 1_555 1_555
H28 C34 1_555 1_555
N1 C29 1_555 1_555
N2 C30 1_555 1_555
O1 C1 1_555 1_555
O2 C1 1_555 1_555
O3 C8 1_555 1_555
O4 C8 1_555 1_555
O5 C15 1_555 1_555
O6 C15 1_555 1_555
O7 C22 1_555 1_555
O8 C22 1_555 1_555
Rh1 N1 1_555 1_555
Rh2 N2 1_555 1_555
O1A Rh1 1_555 1_555
O3A Rh1 1_555 1_555
O5A Rh2 1_555 1_555
O7A Rh2 1_555 1_555
Rh1A O1 1_555 1_555
Rh2A O5 1_555 1_555
C6 C7 1_555 1_555
C13 C14 1_555 1_555
C20 C21 1_555 1_555
C27 C28 1_555 1_555
C31 N2 1_555 1_555
C32 N1 1_555 1_555
O2 Rh1 1_555 1_555
O3 Rh1A 1_555 1_555
O4 Rh1 1_555 1_555
O6 Rh2 1_555 1_555
O7 Rh2A 1_555 1_555
O8 Rh2 1_555 1_555
Rh1 Rh1A 1_555 1_555
Rh2 Rh2A 1_555 1_555

#END
