
#######################################################################
#
#                 Cambridge Crystallographic Data Centre
#                                CCDC 
#
#######################################################################
#
# If this CIF has been generated from an entry in the Cambridge 
# Structural Database, then it will include bibliographic, chemical, 
# crystal, experimental, refinement or atomic coordinate data resulting 
# from the CCDC's data processing and validation procedures.
#
#######################################################################

data_LUSVUS
_symmetry_cell_setting           triclinic
_symmetry_space_group_name_H-M   'P -1'
_symmetry_Int_Tables_number      2
_space_group_name_Hall           '-P 1'
loop_
_symmetry_equiv_pos_site_id
_symmetry_equiv_pos_as_xyz
1 x,y,z
2 -x,-y,-z
_cell_length_a                   8.908(4)
_cell_length_b                   12.428(5)
_cell_length_c                   32.131(13)
_cell_angle_alpha                93.525(7)
_cell_angle_beta                 95.154(7)
_cell_angle_gamma                92.390(7)
_cell_volume                     3532.1
loop_
_atom_site_label
_atom_site_type_symbol
_atom_site_fract_x
_atom_site_fract_y
_atom_site_fract_z
Cd1 Cd 0.04183(4) 1.22452(4) 0.413039(14)
Cd2 Cd 1.00446(4) 0.80377(4) 0.249547(14)
Cd3 Cd 0.05942(5) 0.27445(4) 0.081291(14)
N1 N -0.3590(6) 1.4312(5) 0.40342(17)
N2 N -0.1765(6) 1.3194(5) 0.41433(17)
N3 N -0.2170(5) 0.9947(4) 0.48115(17)
N4 N -0.0784(5) 1.0875(4) 0.44083(16)
N5 N 1.2606(5) 1.0290(4) 0.17912(16)
N6 N 1.1242(5) 0.9399(4) 0.22000(16)
N7 N -0.5960(6) 1.5983(5) 0.26503(17)
N8 N -0.7774(6) 1.7087(5) 0.24974(18)
N9 N -0.3591(6) 0.4503(5) 0.07270(17)
N10 N -0.1667(6) 0.3507(5) 0.08893(18)
N11 N 1.8239(5) 1.0138(4) 0.13773(18)
N12 N 1.9601(5) 1.1231(4) 0.10291(17)
O1 O 0.1870(5) 1.2947(4) 0.47850(15)
O2 O 0.2104(5) 1.3824(4) 0.42095(16)
O3 O -0.0367(7) 1.2100(4) 0.34203(17)
H1 H -0.007(10) 1.149(3) 0.338(3)
O4 O 0.2608(5) 1.1581(4) 0.39269(15)
O5 O 0.1476(5) 1.0042(4) 0.36750(16)
O6 O 0.7864(5) 0.8750(4) 0.26746(14)
O7 O 0.9011(5) 1.0286(4) 0.29263(16)
O8 O 1.0764(7) 0.8226(4) 0.32136(16)
H2 H 1.069(11) 0.880(4) 0.335(2)
O9 O 0.8350(5) 0.6454(4) 0.24696(16)
O10 O 0.8613(5) 0.7219(4) 0.18709(15)
O11 O 0.2222(5) 0.3216(4) 0.15105(16)
O12 O 0.2356(5) 0.4113(4) 0.09546(16)
O13 O 0.2434(5) 0.1760(4) 0.05102(15)
O14 O 0.2144(7) 0.2008(5) -0.01702(17)
O15 O 0.0033(6) 0.3127(6) 0.01191(17)
H3 H 0.064(6) 0.265(5) 0.009(2)
F1 F 0.7388(5) 1.4056(3) 0.53586(15)
F2 F 0.5070(4) 1.2839(3) 0.50088(15)
F3 F 0.3815(4) 1.1990(3) 0.31230(13)
F4 F 0.6261(4) 1.1509(3) 0.27451(13)
F5 F 0.4205(4) 0.8821(3) 0.38487(13)
F6 F 0.6656(4) 0.8351(3) 0.34727(12)
F7 F 0.3020(4) 0.6203(3) 0.13302(15)
F8 F 0.5418(4) 0.7394(3) 0.16550(14)
F9 F 0.5370(5) 0.3069(3) 0.17524(14)
F10 F 0.7772(4) 0.4272(3) 0.20708(14)
F11 F 0.5195(5) 0.1920(3) -0.03418(15)
F12 F 0.2696(5) -0.0543(4) 0.04501(16)
C1 C -0.1000(9) 1.5169(6) 0.4195(3)
H4 H -0.1045 1.5588 0.3953
H5 H -0.0003 1.4913 0.4246
H6 H -0.1236 1.5611 0.4434
C2 C -0.2122(7) 1.4223(6) 0.4119(2)
C3 C -0.3123(7) 1.2611(6) 0.4063(2)
H7 H -0.3237 1.1863 0.4056
C4 C -0.4247(7) 1.3271(6) 0.3997(2)
H8 H -0.5267 1.3076 0.3938
C5 C -0.4400(8) 1.5288(6) 0.3949(2)
H9 H -0.3944 1.5885 0.4132
H10 H -0.5438 1.5180 0.4013
C6 C -0.4386(9) 1.5580(6) 0.3498(2)
H11 H -0.4858 1.6263 0.3466
H12 H -0.3349 1.5672 0.3432
C7 C 0.6233(7) 1.4540(5) 0.5185(2)
C8 C 0.4995(7) 1.3905(5) 0.4998(2)
C9 C 0.3739(7) 1.4349(5) 0.48086(19)
C10 C 0.2462(7) 1.3654(5) 0.4583(2)
C11 C -0.1183(8) 1.1763(6) 0.5103(2)
H13 H -0.0373 1.2254 0.5049
H14 H -0.0967 1.1484 0.5373
H15 H -0.2106 1.2136 0.5099
C12 C -0.1340(6) 1.0877(5) 0.4782(2)
C13 C -0.4475(7) 1.0105(8) 0.5189(2)
H16 H -0.4939 0.9820 0.5423
H17 H -0.4329 1.0880 0.5245
C14 C -0.2957(7) 0.9636(6) 0.5169(2)
H18 H -0.2332 0.9863 0.5425
H19 H -0.3082 0.8855 0.5157
C15 C -0.2131(7) 0.9340(6) 0.4442(2)
H20 H -0.2600 0.8662 0.4373
C16 C -0.1291(7) 0.9905(5) 0.4198(2)
H21 H -0.1081 0.9681 0.3928
C17 C 0.2539(7) 1.0714(6) 0.3715(2)
C18 C 0.3947(6) 1.0433(5) 0.3504(2)
C19 C 0.4701(7) 0.9508(5) 0.3572(2)
C20 C 0.5948(7) 0.9247(5) 0.3377(2)
C21 C 0.6531(6) 0.9917(5) 0.30949(19)
C22 C 0.5782(7) 1.0842(5) 0.3023(2)
C23 C 0.4527(7) 1.1079(5) 0.3225(2)
C24 C 0.7927(7) 0.9626(6) 0.2878(2)
C25 C 1.1488(7) 0.8507(6) 0.1489(2)
H22 H 1.2334 0.8052 0.1496
H23 H 1.1361 0.8815 0.1222
H24 H 1.0593 0.8087 0.1531
C26 C 1.1765(6) 0.9392(5) 0.1829(2)
C27 C 1.1792(7) 1.0358(5) 0.2409(2)
H25 H 1.1615 1.0592 0.2680
C28 C 1.2625(7) 1.0894(6) 0.2155(2)
H26 H 1.3127 1.1564 0.2219
C29 C 1.3372(6) 1.0610(5) 0.1431(2)
H27 H 1.3600 1.1383 0.1461
H28 H 1.2693 1.0459 0.1179
C30 C 1.4819(7) 1.0039(6) 0.1380(2)
H29 H 1.4579 0.9274 0.1320
H30 H 1.5282 1.0309 0.1143
C31 C 1.5930(8) 1.0188(7) 0.1760(3)
H31 H 1.5481 0.9866 0.1989
H32 H 1.6082 1.0956 0.1834
C32 C -0.8559(9) 1.5122(6) 0.2480(3)
H33 H -0.8481 1.4700 0.2721
H34 H -0.8352 1.4684 0.2237
H35 H -0.9560 1.5378 0.2439
C33 C -0.7429(8) 1.6075(6) 0.2548(2)
C34 C -0.6412(7) 1.7672(6) 0.2577(2)
H36 H -0.6289 1.8416 0.2566
C35 C -0.5288(7) 1.7012(6) 0.2671(2)
H37 H -0.4271 1.7207 0.2737
C36 C -0.5167(8) 1.5022(6) 0.2744(2)
H38 H -0.4128 1.5122 0.2680
H39 H -0.5626 1.4418 0.2565
C37 C -0.5184(9) 1.4751(6) 0.3200(2)
H40 H -0.6223 1.4666 0.3265
H41 H -0.4719 1.4067 0.3236
C38 C 0.7989(7) 0.6574(5) 0.2084(2)
C39 C 0.6673(7) 0.5872(5) 0.1878(2)
C40 C 0.5431(7) 0.6322(5) 0.1680(2)
C41 C 0.4181(7) 0.5702(5) 0.1516(2)
C42 C 0.4110(6) 0.4591(5) 0.1531(2)
C43 C 0.5344(7) 0.4145(5) 0.1722(2)
C44 C 0.6599(7) 0.4762(5) 0.1887(2)
C45 C 0.2777(7) 0.3927(5) 0.1313(2)
C46 C 0.2670(8) 0.1560(6) 0.0141(2)
C47 C 0.3893(7) 0.0760(6) 0.0066(2)
C48 C 0.5055(8) 0.0963(6) -0.0172(2)
C49 C 0.3877(8) -0.0247(6) 0.0235(2)
C50 C -0.1106(8) 0.5444(6) 0.0844(3)
H42 H -0.1621 0.6049 0.0952
H43 H -0.0834 0.5573 0.0568
H44 H -0.0212 0.5347 0.1025
C51 C -0.2095(8) 0.4476(6) 0.0824(2)
C52 C -0.3018(7) 0.2841(6) 0.0833(2)
H45 H -0.3079 0.2102 0.0865
C53 C -0.4185(7) 0.3442(6) 0.0728(2)
H46 H -0.5189 0.3204 0.0668
C54 C -0.4478(8) 0.5393(6) 0.0585(2)
H47 H -0.4042 0.6064 0.0723
H48 H -0.5496 0.5295 0.0665
C55 C -0.4540(9) 0.5473(6) 0.0128(2)
H49 H -0.3519 0.5495 0.0045
H50 H -0.4985 0.6146 0.0058
C56 C 1.9178(7) 1.1878(6) 0.1766(2)
H51 H 1.9953 1.2419 0.1733
H52 H 1.9443 1.1507 0.2014
H53 H 1.8238 1.2215 0.1791
C57 C 1.9026(6) 1.1096(5) 0.1395(2)
C58 C 1.8304(7) 0.9637(6) 0.0981(2)
H54 H 1.7849 0.8977 0.0875
C59 C 1.7462(7) 0.9724(6) 0.1725(2)
H55 H 1.8087 0.9898 0.1986
H56 H 1.7339 0.8945 0.1686
C60 C -0.0396(15) 1.2924(9) 0.3169(3)
H57 H -0.1069 1.2733 0.2923
H58 H 0.0601 1.3077 0.3090
H59 H -0.0740 1.3551 0.3315
C61 C 1.9179(7) 1.0322(6) 0.0782(2)
H60 H 1.9455 1.0187 0.0512
C62 C 1.0816(13) 0.7407(8) 0.3472(3)
H61 H 1.1014 0.7695 0.3757
H62 H 1.1605 0.6943 0.3404
H63 H 0.9867 0.7002 0.3439
C63 C -0.1289(10) 0.3207(9) -0.0129(3)
H64 H -0.1290 0.3896 -0.0248
H65 H -0.2126 0.3139 0.0038
H66 H -0.1375 0.2643 -0.0349
N3A N -0.7830(5) 1.0053(4) 0.51885(17)
N4A N -0.9216(5) 0.9125(4) 0.55917(16)
C11A C -0.8817(8) 0.8237(6) 0.4897(2)
H13A H -0.9627 0.7746 0.4951
H14A H -0.9033 0.8516 0.4627
H15A H -0.7894 0.7864 0.4901
C12A C -0.8660(6) 0.9123(5) 0.5218(2)
C13A C -0.5525(7) 0.9895(8) 0.4811(2)
H16A H -0.5061 1.0180 0.4577
H17A H -0.5671 0.9120 0.4755
C14A C -0.7043(7) 1.0364(6) 0.4831(2)
H18A H -0.7668 1.0137 0.4575
H19A H -0.6918 1.1145 0.4843
C15A C -0.7869(7) 1.0660(6) 0.5558(2)
H20A H -0.7400 1.1338 0.5627
C16A C -0.8709(7) 1.0095(5) 0.5802(2)
H21A H -0.8919 1.0319 0.6072
N9A N -0.6409(6) 0.5497(5) -0.07270(17)
N10A N -0.8333(6) 0.6493(5) -0.08893(18)
C50A C -0.8894(8) 0.4556(6) -0.0844(3)
H42A H -0.8379 0.3951 -0.0952
H43A H -0.9166 0.4427 -0.0568
H44A H -0.9788 0.4653 -0.1025
C51A C -0.7905(8) 0.5524(6) -0.0824(2)
C52A C -0.6982(7) 0.7159(6) -0.0833(2)
H45A H -0.6921 0.7898 -0.0865
C53A C -0.5815(7) 0.6558(6) -0.0728(2)
H46A H -0.4811 0.6796 -0.0668
C54A C -0.5522(8) 0.4607(6) -0.0585(2)
H47A H -0.5958 0.3936 -0.0723
H48A H -0.4504 0.4705 -0.0665
C55A C -0.5460(9) 0.4527(6) -0.0128(2)
H49A H -0.6481 0.4505 -0.0045
H50A H -0.5015 0.3854 -0.0058
O1A O 0.8130(5) 1.7053(4) 0.52150(15)
O2A O 0.7896(5) 1.6176(4) 0.57905(16)
F1A F 0.2612(5) 1.5944(3) 0.46414(15)
F2A F 0.4930(4) 1.7161(3) 0.49912(15)
C7A C 0.3767(7) 1.5460(5) 0.4815(2)
C8A C 0.5005(7) 1.6095(5) 0.5002(2)
C9A C 0.6261(7) 1.5651(5) 0.51914(19)
C10A C 0.7538(7) 1.6346(5) 0.5417(2)
O13A O 0.7566(5) -0.1760(4) -0.05102(15)
O14A O 0.7856(7) -0.2008(5) 0.01702(17)
F11A F 0.4805(5) -0.1920(3) 0.03418(15)
F12A F 0.7304(5) 0.0543(4) -0.04501(16)
C46A C 0.7330(8) -0.1560(6) -0.0141(2)
C47A C 0.6107(7) -0.0760(6) -0.0066(2)
C48A C 0.4945(8) -0.0963(6) 0.0172(2)
C49A C 0.6123(8) 0.0247(6) -0.0235(2)
Cd1A Cd -1.04183(4) -0.22452(4) -0.413039(14)
Cd2A Cd -2.00446(4) 0.19623(4) -0.249547(14)
Cd3A Cd -1.05942(5) 0.72555(4) -0.081291(14)
N1A N -0.6410(6) -0.4312(5) -0.40342(17)
N2A N -0.8235(6) -0.3194(5) -0.41433(17)
N5A N -2.2606(5) -0.0290(4) -0.17912(16)
N6A N -2.1242(5) 0.0601(4) -0.22000(16)
N7A N -0.4040(6) -0.5983(5) -0.26503(17)
N8A N -0.2226(6) -0.7087(5) -0.24974(18)
N11A N -2.8239(5) -0.0138(4) -0.13773(18)
N12A N -2.9601(5) -0.1231(4) -0.10291(17)
O3A O -0.9633(7) -0.2100(4) -0.34203(17)
H1A H -0.993(10) -0.149(3) -0.338(3)
O4A O -1.2608(5) -0.1581(4) -0.39269(15)
O5A O -1.1476(5) -0.0042(4) -0.36750(16)
O6A O -1.7864(5) 0.1250(4) -0.26746(14)
O7A O -1.9011(5) -0.0286(4) -0.29263(16)
O8A O -2.0764(7) 0.1774(4) -0.32136(16)
H2A H -2.069(11) 0.120(4) -0.335(2)
O9A O -1.8350(5) 0.3546(4) -0.24696(16)
O10A O -1.8613(5) 0.2781(4) -0.18709(15)
O11A O -1.2222(5) 0.6784(4) -0.15105(16)
O12A O -1.2356(5) 0.5887(4) -0.09546(16)
O15A O -1.0033(6) 0.6873(6) -0.01191(17)
H3A H -1.064(6) 0.735(5) -0.009(2)
F3A F -1.3815(4) -0.1990(3) -0.31230(13)
F4A F -1.6261(4) -0.1509(3) -0.27451(13)
F5A F -1.4205(4) 0.1179(3) -0.38487(13)
F6A F -1.6656(4) 0.1649(3) -0.34727(12)
F7A F -1.3020(4) 0.3797(3) -0.13302(15)
F8A F -1.5418(4) 0.2606(3) -0.16550(14)
F9A F -1.5370(5) 0.6931(3) -0.17524(14)
F10A F -1.7772(4) 0.5728(3) -0.20708(14)
C1A C -0.9000(9) -0.5169(6) -0.4195(3)
H4A H -0.8955 -0.5588 -0.3953
H5A H -0.9997 -0.4913 -0.4246
H6A H -0.8764 -0.5611 -0.4434
C2A C -0.7878(7) -0.4223(6) -0.4119(2)
C3A C -0.6877(7) -0.2611(6) -0.4063(2)
H7A H -0.6763 -0.1863 -0.4056
C4A C -0.5753(7) -0.3271(6) -0.3997(2)
H8A H -0.4733 -0.3076 -0.3938
C5A C -0.5600(8) -0.5288(6) -0.3949(2)
H9A H -0.6056 -0.5885 -0.4132
H10A H -0.4562 -0.5180 -0.4013
C6A C -0.5614(9) -0.5580(6) -0.3498(2)
H11A H -0.5142 -0.6263 -0.3466
H12A H -0.6651 -0.5672 -0.3432
C17A C -1.2539(7) -0.0714(6) -0.3715(2)
C18A C -1.3947(6) -0.0433(5) -0.3504(2)
C19A C -1.4701(7) 0.0492(5) -0.3572(2)
C20A C -1.5948(7) 0.0753(5) -0.3377(2)
C21A C -1.6531(6) 0.0083(5) -0.30949(19)
C22A C -1.5782(7) -0.0842(5) -0.3023(2)
C23A C -1.4527(7) -0.1079(5) -0.3225(2)
C24A C -1.7927(7) 0.0374(6) -0.2878(2)
C25A C -2.1488(7) 0.1493(6) -0.1489(2)
H22A H -2.2334 0.1948 -0.1496
H23A H -2.1361 0.1185 -0.1222
H24A H -2.0593 0.1913 -0.1531
C26A C -2.1765(6) 0.0608(5) -0.1829(2)
C27A C -2.1792(7) -0.0358(5) -0.2409(2)
H25A H -2.1615 -0.0592 -0.2680
C28A C -2.2625(7) -0.0894(6) -0.2155(2)
H26A H -2.3127 -0.1564 -0.2219
C29A C -2.3372(6) -0.0610(5) -0.1431(2)
H27A H -2.3600 -0.1383 -0.1461
H28A H -2.2693 -0.0459 -0.1179
C30A C -2.4819(7) -0.0039(6) -0.1380(2)
H29A H -2.4579 0.0726 -0.1320
H30A H -2.5282 -0.0309 -0.1143
C31A C -2.5930(8) -0.0188(7) -0.1760(3)
H31A H -2.5481 0.0134 -0.1989
H32A H -2.6082 -0.0956 -0.1834
C32A C -0.1441(9) -0.5122(6) -0.2480(3)
H33A H -0.1519 -0.4700 -0.2721
H34A H -0.1648 -0.4684 -0.2237
H35A H -0.0440 -0.5378 -0.2439
C33A C -0.2571(8) -0.6075(6) -0.2548(2)
C34A C -0.3588(7) -0.7672(6) -0.2577(2)
H36A H -0.3711 -0.8416 -0.2566
C35A C -0.4712(7) -0.7012(6) -0.2671(2)
H37A H -0.5729 -0.7207 -0.2737
C36A C -0.4833(8) -0.5022(6) -0.2744(2)
H38A H -0.5872 -0.5122 -0.2680
H39A H -0.4374 -0.4418 -0.2565
C37A C -0.4816(9) -0.4751(6) -0.3200(2)
H40A H -0.3777 -0.4666 -0.3265
H41A H -0.5281 -0.4067 -0.3236
C38A C -1.7989(7) 0.3426(5) -0.2084(2)
C39A C -1.6673(7) 0.4128(5) -0.1878(2)
C40A C -1.5431(7) 0.3678(5) -0.1680(2)
C41A C -1.4181(7) 0.4298(5) -0.1516(2)
C42A C -1.4110(6) 0.5409(5) -0.1531(2)
C43A C -1.5344(7) 0.5855(5) -0.1722(2)
C44A C -1.6599(7) 0.5238(5) -0.1887(2)
C45A C -1.2777(7) 0.6073(5) -0.1313(2)
C56A C -2.9178(7) -0.1878(6) -0.1766(2)
H51A H -2.9953 -0.2419 -0.1733
H52A H -2.9443 -0.1507 -0.2014
H53A H -2.8238 -0.2215 -0.1791
C57A C -2.9026(6) -0.1096(5) -0.1395(2)
C58A C -2.8304(7) 0.0363(6) -0.0981(2)
H54A H -2.7849 0.1023 -0.0875
C59A C -2.7462(7) 0.0276(6) -0.1725(2)
H55A H -2.8087 0.0102 -0.1986
H56A H -2.7339 0.1055 -0.1686
C60A C -0.9604(15) -0.2924(9) -0.3169(3)
H57A H -0.8931 -0.2733 -0.2923
H58A H -1.0601 -0.3077 -0.3090
H59A H -0.9260 -0.3551 -0.3315
C61A C -2.9179(7) -0.0322(6) -0.0782(2)
H60A H -2.9455 -0.0187 -0.0512
C62A C -2.0816(13) 0.2593(8) -0.3472(3)
H61A H -2.1014 0.2305 -0.3757
H62A H -2.1605 0.3057 -0.3404
H63A H -1.9867 0.2998 -0.3439
C63A C -0.8711(10) 0.6793(9) 0.0129(3)
H64A H -0.8710 0.6104 0.0248
H65A H -0.7874 0.6861 -0.0038
H66A H -0.8625 0.7357 0.0349
Cd1A_2 Cd -1.04183(4) 0.77548(4) 0.586961(14)
Cd1A_3 Cd 0.95817(4) 1.77548(4) 0.586961(14)
Cd2_2 Cd -0.99554(4) 1.80377(4) 0.249547(14)
Cd2A_2 Cd -0.00446(4) -0.80377(4) -0.249547(14)
Cd3_2 Cd 2.05942(5) 1.27445(4) 0.081291(14)
Cd3A_2 Cd -3.05942(5) -0.27445(4) -0.081291(14)
Cd3A_3 Cd 0.94058(5) -0.27445(4) -0.081291(14)
N4A_2 N -0.9216(5) -0.0875(4) -0.44083(16)
N8_2 N 1.2226(6) 0.7087(5) 0.24974(18)
N8A_2 N -2.2226(6) 0.2913(5) -0.24974(18)
N12_2 N -0.0399(5) 0.1231(4) 0.10291(17)
N12A_2 N -0.9601(5) 0.8769(4) -0.10291(17)
O1A_2 O -1.1870(5) -0.2947(4) -0.47850(15)
O2A_2 O -1.2104(5) -0.3824(4) -0.42095(16)
O13A_2 O -1.2434(5) 0.8240(4) -0.05102(15)
loop_
_geom_bond_atom_site_label_1
_geom_bond_atom_site_label_2
_geom_bond_site_symmetry_1
_geom_bond_site_symmetry_2
Cd1 N2 1_555 1_555
Cd2 N6 1_555 1_555
Cd3 N10 1_555 1_555
N1 C2 1_555 1_555
N2 C2 1_555 1_555
N3 C12 1_555 1_555
N4 Cd1 1_555 1_555
N5 C26 1_555 1_555
N6 C26 1_555 1_555
N7 C33 1_555 1_555
N8 C33 1_555 1_555
N9 C51 1_555 1_555
N10 C51 1_555 1_555
N11 C57 1_555 1_555
N12 C57 1_555 1_555
O1 Cd1 1_555 1_555
O2 Cd1 1_555 1_555
O3 Cd1 1_555 1_555
H1 O3 1_555 1_555
O4 Cd1 1_555 1_555
O5 C17 1_555 1_555
O6 Cd2 1_555 1_555
O7 C24 1_555 1_555
O8 Cd2 1_555 1_555
H2 O8 1_555 1_555
O9 Cd2 1_555 1_555
O10 Cd2 1_555 1_555
O11 Cd3 1_555 1_555
O12 Cd3 1_555 1_555
O13 Cd3 1_555 1_555
O14 C46 1_555 1_555
O15 Cd3 1_555 1_555
H3 O15 1_555 1_555
F1 C7 1_555 1_555
F2 C8 1_555 1_555
F3 C23 1_555 1_555
F4 C22 1_555 1_555
F5 C19 1_555 1_555
F6 C20 1_555 1_555
F7 C41 1_555 1_555
F8 C40 1_555 1_555
F9 C43 1_555 1_555
F10 C44 1_555 1_555
F11 C48 1_555 1_555
F12 C49 1_555 1_555
C1 H4 1_555 1_555
H5 C1 1_555 1_555
H6 C1 1_555 1_555
C2 C1 1_555 1_555
C3 N2 1_555 1_555
H7 C3 1_555 1_555
C4 N1 1_555 1_555
H8 C4 1_555 1_555
C5 N1 1_555 1_555
H9 C5 1_555 1_555
H10 C5 1_555 1_555
C6 C5 1_555 1_555
H11 C6 1_555 1_555
H12 C6 1_555 1_555
C7 C8 1_555 1_555
C8 C9 1_555 1_555
C9 C10 1_555 1_555
C10 O1 1_555 1_555
C11 H13 1_555 1_555
H14 C11 1_555 1_555
H15 C11 1_555 1_555
C12 N4 1_555 1_555
C13 H16 1_555 1_555
H17 C13 1_555 1_555
C14 N3 1_555 1_555
H18 C14 1_555 1_555
H19 C14 1_555 1_555
C15 N3 1_555 1_555
H20 C15 1_555 1_555
C16 N4 1_555 1_555
H21 C16 1_555 1_555
C17 O4 1_555 1_555
C18 C17 1_555 1_555
C19 C18 1_555 1_555
C20 C19 1_555 1_555
C21 C20 1_555 1_555
C22 C21 1_555 1_555
C23 C18 1_555 1_555
C24 O6 1_555 1_555
C25 H22 1_555 1_555
H23 C25 1_555 1_555
H24 C25 1_555 1_555
C26 C25 1_555 1_555
C27 N6 1_555 1_555
H25 C27 1_555 1_555
C28 N5 1_555 1_555
H26 C28 1_555 1_555
C29 N5 1_555 1_555
H27 C29 1_555 1_555
H28 C29 1_555 1_555
C30 C29 1_555 1_555
H29 C30 1_555 1_555
H30 C30 1_555 1_555
C31 C30 1_555 1_555
H31 C31 1_555 1_555
H32 C31 1_555 1_555
C32 H33 1_555 1_555
H34 C32 1_555 1_555
H35 C32 1_555 1_555
C33 C32 1_555 1_555
C34 N8 1_555 1_555
H36 C34 1_555 1_555
C35 N7 1_555 1_555
H37 C35 1_555 1_555
C36 N7 1_555 1_555
H38 C36 1_555 1_555
H39 C36 1_555 1_555
C37 C6 1_555 1_555
H40 C37 1_555 1_555
H41 C37 1_555 1_555
C38 O9 1_555 1_555
C39 C38 1_555 1_555
C40 C39 1_555 1_555
C41 C40 1_555 1_555
C42 C41 1_555 1_555
C43 C42 1_555 1_555
C44 C39 1_555 1_555
C45 O11 1_555 1_555
C46 O13 1_555 1_555
C47 C46 1_555 1_555
C48 C47 1_555 1_555
C49 C47 1_555 1_555
C50 H42 1_555 1_555
H43 C50 1_555 1_555
H44 C50 1_555 1_555
C51 C50 1_555 1_555
C52 N10 1_555 1_555
H45 C52 1_555 1_555
C53 N9 1_555 1_555
H46 C53 1_555 1_555
C54 N9 1_555 1_555
H47 C54 1_555 1_555
H48 C54 1_555 1_555
C55 C54 1_555 1_555
H49 C55 1_555 1_555
H50 C55 1_555 1_555
C56 H51 1_555 1_555
H52 C56 1_555 1_555
H53 C56 1_555 1_555
C57 C56 1_555 1_555
C58 N11 1_555 1_555
H54 C58 1_555 1_555
C59 N11 1_555 1_555
H55 C59 1_555 1_555
H56 C59 1_555 1_555
C60 O3 1_555 1_555
H57 C60 1_555 1_555
H58 C60 1_555 1_555
H59 C60 1_555 1_555
C61 N12 1_555 1_555
H60 C61 1_555 1_555
C62 O8 1_555 1_555
H61 C62 1_555 1_555
H62 C62 1_555 1_555
H63 C62 1_555 1_555
C63 O15 1_555 1_555
H64 C63 1_555 1_555
H65 C63 1_555 1_555
H66 C63 1_555 1_555
N3A C12A 1_555 1_555
N4A C12A 1_555 1_555
C11A H13A 1_555 1_555
H14A C11A 1_555 1_555
H15A C11A 1_555 1_555
C12A C11A 1_555 1_555
C13A C13 1_555 1_555
H16A C13A 1_555 1_555
H17A C13A 1_555 1_555
C14A N3A 1_555 1_555
H18A C14A 1_555 1_555
H19A C14A 1_555 1_555
C15A N3A 1_555 1_555
H20A C15A 1_555 1_555
C16A N4A 1_555 1_555
H21A C16A 1_555 1_555
N9A C51A 1_555 1_555
N10A C51A 1_555 1_555
C50A H42A 1_555 1_555
H43A C50A 1_555 1_555
H44A C50A 1_555 1_555
C51A C50A 1_555 1_555
C52A N10A 1_555 1_555
H45A C52A 1_555 1_555
C53A N9A 1_555 1_555
H46A C53A 1_555 1_555
C54A N9A 1_555 1_555
H47A C54A 1_555 1_555
H48A C54A 1_555 1_555
C55A C55 1_555 1_555
H49A C55A 1_555 1_555
H50A C55A 1_555 1_555
O1A C10A 1_555 1_555
O2A C10A 1_555 1_555
F1A C7A 1_555 1_555
F2A C8A 1_555 1_555
C7A C9 1_555 1_555
C8A C7A 1_555 1_555
C9A C7 1_555 1_555
C10A C9A 1_555 1_555
O13A C46A 1_555 1_555
O14A C46A 1_555 1_555
F11A C48A 1_555 1_555
F12A C49A 1_555 1_555
C46A C47A 1_555 1_555
C47A C48A 1_555 1_555
C48A C49 1_555 1_555
C49A C48 1_555 1_555
Cd1A N2A 1_555 1_555
Cd2A N6A 1_555 1_555
Cd3A N10A 1_555 1_555
N1A C2A 1_555 1_555
N2A C2A 1_555 1_555
N5A C26A 1_555 1_555
N6A C26A 1_555 1_555
N7A C33A 1_555 1_555
N8A C33A 1_555 1_555
N11A C57A 1_555 1_555
N12A C57A 1_555 1_555
O3A Cd1A 1_555 1_555
H1A O3A 1_555 1_555
O4A Cd1A 1_555 1_555
O5A C17A 1_555 1_555
O6A Cd2A 1_555 1_555
O7A C24A 1_555 1_555
O8A Cd2A 1_555 1_555
H2A O8A 1_555 1_555
O9A Cd2A 1_555 1_555
O10A Cd2A 1_555 1_555
O11A Cd3A 1_555 1_555
O12A Cd3A 1_555 1_555
O15A Cd3A 1_555 1_555
H3A O15A 1_555 1_555
F3A C23A 1_555 1_555
F4A C22A 1_555 1_555
F5A C19A 1_555 1_555
F6A C20A 1_555 1_555
F7A C41A 1_555 1_555
F8A C40A 1_555 1_555
F9A C43A 1_555 1_555
F10A C44A 1_555 1_555
C1A H4A 1_555 1_555
H5A C1A 1_555 1_555
H6A C1A 1_555 1_555
C2A C1A 1_555 1_555
C3A N2A 1_555 1_555
H7A C3A 1_555 1_555
C4A N1A 1_555 1_555
H8A C4A 1_555 1_555
C5A N1A 1_555 1_555
H9A C5A 1_555 1_555
H10A C5A 1_555 1_555
C6A C5A 1_555 1_555
H11A C6A 1_555 1_555
H12A C6A 1_555 1_555
C17A O4A 1_555 1_555
C18A C17A 1_555 1_555
C19A C18A 1_555 1_555
C20A C19A 1_555 1_555
C21A C20A 1_555 1_555
C22A C21A 1_555 1_555
C23A C18A 1_555 1_555
C24A O6A 1_555 1_555
C25A H22A 1_555 1_555
H23A C25A 1_555 1_555
H24A C25A 1_555 1_555
C26A C25A 1_555 1_555
C27A N6A 1_555 1_555
H25A C27A 1_555 1_555
C28A N5A 1_555 1_555
H26A C28A 1_555 1_555
C29A N5A 1_555 1_555
H27A C29A 1_555 1_555
H28A C29A 1_555 1_555
C30A C29A 1_555 1_555
H29A C30A 1_555 1_555
H30A C30A 1_555 1_555
C31A C30A 1_555 1_555
H31A C31A 1_555 1_555
H32A C31A 1_555 1_555
C32A H33A 1_555 1_555
H34A C32A 1_555 1_555
H35A C32A 1_555 1_555
C33A C32A 1_555 1_555
C34A N8A 1_555 1_555
H36A C34A 1_555 1_555
C35A N7A 1_555 1_555
H37A C35A 1_555 1_555
C36A N7A 1_555 1_555
H38A C36A 1_555 1_555
H39A C36A 1_555 1_555
C37A C6A 1_555 1_555
H40A C37A 1_555 1_555
H41A C37A 1_555 1_555
C38A O9A 1_555 1_555
C39A C38A 1_555 1_555
C40A C39A 1_555 1_555
C41A C40A 1_555 1_555
C42A C41A 1_555 1_555
C43A C42A 1_555 1_555
C44A C39A 1_555 1_555
C45A O11A 1_555 1_555
C56A H51A 1_555 1_555
H52A C56A 1_555 1_555
H53A C56A 1_555 1_555
C57A C56A 1_555 1_555
C58A N11A 1_555 1_555
H54A C58A 1_555 1_555
C59A N11A 1_555 1_555
H55A C59A 1_555 1_555
H56A C59A 1_555 1_555
C60A O3A 1_555 1_555
H57A C60A 1_555 1_555
H58A C60A 1_555 1_555
H59A C60A 1_555 1_555
C61A N12A 1_555 1_555
H60A C61A 1_555 1_555
C62A O8A 1_555 1_555
H61A C62A 1_555 1_555
H62A C62A 1_555 1_555
H63A C62A 1_555 1_555
C63A O15A 1_555 1_555
H64A C63A 1_555 1_555
H65A C63A 1_555 1_555
H66A C63A 1_555 1_555
Cd1A_2 N4A 1_555 1_555
Cd1A_3 O1A 1_555 1_555
Cd2_2 N8 1_555 1_555
Cd2A_2 N8A 1_555 1_555
Cd3_2 N12 1_555 1_555
Cd3A_2 N12A 1_555 1_555
Cd3A_3 O13A 1_555 1_555
N4A_2 Cd1A 1_555 1_555
N8_2 Cd2 1_555 1_555
N8A_2 Cd2A 1_555 1_555
N12_2 Cd3 1_555 1_555
N12A_2 Cd3A 1_555 1_555
O1A_2 Cd1A 1_555 1_555
O2A_2 Cd1A 1_555 1_555
O13A_2 Cd3A 1_555 1_555
O2 C10 1_555 1_555
O10 C38 1_555 1_555
O12 C45 1_555 1_555
C3 C4 1_555 1_555
C11 C12 1_555 1_555
C13 C14 1_555 1_555
C15 C16 1_555 1_555
C21 C24 1_555 1_555
C22 C23 1_555 1_555
C27 C28 1_555 1_555
C31 C59 1_555 1_555
C34 C35 1_555 1_555
C36 C37 1_555 1_555
C42 C45 1_555 1_555
C43 C44 1_555 1_555
C52 C53 1_555 1_555
C58 C61 1_555 1_555
C13A C14A 1_555 1_555
C15A C16A 1_555 1_555
C52A C53A 1_555 1_555
C54A C55A 1_555 1_555
O2A Cd1A_3 1_555 1_555
C8A C9A 1_555 1_555
C47A C49A 1_555 1_555
O10A C38A 1_555 1_555
O12A C45A 1_555 1_555
C3A C4A 1_555 1_555
C21A C24A 1_555 1_555
C22A C23A 1_555 1_555
C27A C28A 1_555 1_555
C31A C59A 1_555 1_555
C34A C35A 1_555 1_555
C36A C37A 1_555 1_555
C42A C45A 1_555 1_555
C43A C44A 1_555 1_555
C58A C61A 1_555 1_555

#END
