
#######################################################################
#
#                 Cambridge Crystallographic Data Centre
#                                CCDC 
#
#######################################################################
#
# If this CIF has been generated from an entry in the Cambridge 
# Structural Database, then it will include bibliographic, chemical, 
# crystal, experimental, refinement or atomic coordinate data resulting 
# from the CCDC's data processing and validation procedures.
#
#######################################################################

data_LUSWOM
_symmetry_cell_setting           triclinic
_symmetry_space_group_name_H-M   'P -1'
_symmetry_Int_Tables_number      2
_space_group_name_Hall           '-P 1'
loop_
_symmetry_equiv_pos_site_id
_symmetry_equiv_pos_as_xyz
1 x,y,z
2 -x,-y,-z
_cell_length_a                   10.484(3)
_cell_length_b                   10.515(3)
_cell_length_c                   15.681(5)
_cell_angle_alpha                81.244(6)
_cell_angle_beta                 82.174(6)
_cell_angle_gamma                88.840(7)
_cell_volume                     1692.6
loop_
_atom_site_label
_atom_site_type_symbol
_atom_site_fract_x
_atom_site_fract_y
_atom_site_fract_z
C1 C 0.4105(4) 0.6983(4) 0.5601(3)
C2 C 0.3583(4) 0.8147(4) 0.5972(3)
C3 C 0.3507(5) 0.9305(4) 0.5445(3)
H1 H 0.3828 0.9383 0.4856
C4 C 0.2954(6) 1.0360(5) 0.5787(4)
H2 H 0.2904 1.1144 0.5427
C5 C 0.2483(5) 1.0249(5) 0.6649(3)
H3 H 0.2093 1.0953 0.6872
C6 C 0.2580(5) 0.9107(5) 0.7189(3)
H4 H 0.2273 0.9044 0.7779
C7 C 0.3136(4) 0.8049(4) 0.6858(3)
H5 H 0.3211 0.7276 0.7225
C8 C 0.7118(4) 0.5438(4) 0.5497(3)
C9 C 0.8318(5) 0.5756(5) 0.5831(4)
C10 C 0.8443(6) 0.5367(6) 0.6690(5)
H6 H 0.7790 0.4879 0.7044
C11 C 0.9524(9) 0.5680(8) 0.7049(6)
H7 H 0.9602 0.5436 0.7635
C12 C 1.0453(9) 0.6364(8) 0.6486(7)
H8 H 1.1179 0.6589 0.6711
C13 C 1.0413(7) 0.6749(7) 0.5625(7)
H9 H 1.1094 0.7189 0.5267
C14 C 0.9280(6) 0.6445(6) 0.5300(5)
H10 H 0.9192 0.6718 0.4718
C15 C 0.1107(4) 0.0421(4) 1.1267(3)
C16 C 0.1760(4) 0.0733(4) 1.1998(3)
C17 C 0.1266(5) 0.0308(5) 1.2846(3)
H11 H 0.0527 -0.0197 1.2972
C18 C 0.1875(6) 0.0633(6) 1.3520(4)
H12 H 0.1536 0.0351 1.4095
C19 C 0.2962(6) 0.1361(6) 1.3341(4)
H13 H 0.3359 0.1580 1.3794
C20 C 0.3471(6) 0.1769(5) 1.2504(4)
H14 H 0.4226 0.2250 1.2385
C21 C 0.2869(5) 0.1470(5) 1.1828(3)
H15 H 0.3212 0.1767 1.1255
C22 C -0.1277(4) 0.2055(4) 1.0116(3)
C23 C -0.2017(5) 0.3278(4) 1.0213(3)
C24 C -0.1519(6) 0.4440(5) 0.9807(4)
H16 H -0.0727 0.4479 0.9455
C25 C -0.2204(7) 0.5568(5) 0.9924(5)
H17 H -0.1863 0.6359 0.9650
C26 C -0.3346(7) 0.5523(6) 1.0425(5)
H18 H -0.3794 0.6280 1.0497
C27 C -0.3855(7) 0.4374(7) 1.0830(5)
H19 H -0.4649 0.4344 1.1180
C28 C -0.3190(6) 0.3255(5) 1.0721(4)
H20 H -0.3543 0.2471 1.0996
C29 C 0.2547(4) 0.3458(4) 0.7263(3)
H21 H 0.2149 0.4100 0.6916
C30 C 0.1841(4) 0.2779(4) 0.7979(3)
H22 H 0.0967 0.2953 0.8098
C31 C 0.3631(4) 0.1670(4) 0.8334(2)
C32 C 0.4354(4) 0.2326(4) 0.7583(3)
C33 C 0.4261(5) 0.0732(5) 0.8965(3)
H23 H 0.3686 0.0538 0.9499
H24 H 0.5039 0.1101 0.9079
H25 H 0.4462 -0.0044 0.8722
C34 C 0.5755(5) 0.2037(5) 0.7337(4)
H26 H 0.6040 0.2465 0.6759
H27 H 0.5869 0.1125 0.7357
H28 H 0.6250 0.2336 0.7739
Cu1 Cu 0.46302(5) 0.42845(4) 0.57536(3)
Cu2 Cu 0.09044(5) 0.06568(4) 0.94524(3)
N1 N 0.3806(3) 0.3217(3) 0.7049(2)
N2 N 0.2372(3) 0.1874(3) 0.8511(2)
O1 O 0.4620(3) 0.7136(3) 0.48234(19)
O2 O 0.3988(3) 0.5925(3) 0.60978(19)
O3 O 0.6329(3) 0.4720(3) 0.6005(2)
O4 O 0.6964(3) 0.5937(3) 0.4735(2)
O5 O 0.0094(3) -0.0251(3) 1.14497(18)
O6 O 0.1612(3) 0.0876(3) 1.05122(18)
O7 O -0.0229(3) 0.2146(3) 0.9609(2)
O8 O -0.1744(3) 0.1033(3) 1.05491(19)
Cu1A Cu 0.53698(5) 0.57155(4) 0.42464(3)
Cu2A Cu -0.09044(5) -0.06568(4) 1.05476(3)
O1A O 0.5380(3) 0.2864(3) 0.51766(19)
O4A O 0.3036(3) 0.4063(3) 0.5265(2)
O5A O -0.0094(3) 0.0251(3) 0.85503(18)
O8A O 0.1744(3) -0.1033(3) 0.94509(19)
loop_
_geom_bond_atom_site_label_1
_geom_bond_atom_site_label_2
_geom_bond_site_symmetry_1
_geom_bond_site_symmetry_2
C1 C2 1_555 1_555
C2 C3 1_555 1_555
C3 H1 1_555 1_555
C4 C3 1_555 1_555
H2 C4 1_555 1_555
C5 C4 1_555 1_555
H3 C5 1_555 1_555
C6 C5 1_555 1_555
H4 C6 1_555 1_555
C7 C2 1_555 1_555
H5 C7 1_555 1_555
C8 C9 1_555 1_555
C9 C10 1_555 1_555
C10 H6 1_555 1_555
C11 C10 1_555 1_555
H7 C11 1_555 1_555
C12 C11 1_555 1_555
H8 C12 1_555 1_555
C13 C12 1_555 1_555
H9 C13 1_555 1_555
C14 C9 1_555 1_555
H10 C14 1_555 1_555
C15 C16 1_555 1_555
C16 C17 1_555 1_555
C17 H11 1_555 1_555
C18 C17 1_555 1_555
H12 C18 1_555 1_555
C19 C18 1_555 1_555
H13 C19 1_555 1_555
C20 C19 1_555 1_555
H14 C20 1_555 1_555
C21 C16 1_555 1_555
H15 C21 1_555 1_555
C22 C23 1_555 1_555
C23 C24 1_555 1_555
C24 H16 1_555 1_555
C25 C24 1_555 1_555
H17 C25 1_555 1_555
C26 C25 1_555 1_555
H18 C26 1_555 1_555
C27 C26 1_555 1_555
H19 C27 1_555 1_555
C28 C23 1_555 1_555
H20 C28 1_555 1_555
C29 H21 1_555 1_555
C30 C29 1_555 1_555
H22 C30 1_555 1_555
C31 C32 1_555 1_555
C32 C34 1_555 1_555
C33 C31 1_555 1_555
H23 C33 1_555 1_555
H24 C33 1_555 1_555
H25 C33 1_555 1_555
C34 H26 1_555 1_555
H27 C34 1_555 1_555
H28 C34 1_555 1_555
Cu1 N1 1_555 1_555
Cu2 N2 1_555 1_555
N1 C29 1_555 1_555
N2 C30 1_555 1_555
O1 C1 1_555 1_555
O2 C1 1_555 1_555
O3 C8 1_555 1_555
O4 C8 1_555 1_555
O5 C15 1_555 1_555
O6 C15 1_555 1_555
O7 C22 1_555 1_555
O8 C22 1_555 1_555
Cu1A Cu1 1_555 1_555
Cu2A Cu2 1_555 1_555
O1A Cu1 1_555 1_555
O4A Cu1 1_555 1_555
O5A Cu2 1_555 1_555
O8A Cu2 1_555 1_555
C6 C7 1_555 1_555
C13 C14 1_555 1_555
C20 C21 1_555 1_555
C27 C28 1_555 1_555
C31 N2 1_555 1_555
C32 N1 1_555 1_555
Cu1 O2 1_555 1_555
Cu1 O3 1_555 1_555
Cu2 O6 1_555 1_555
Cu2 O7 1_555 1_555
O1 Cu1A 1_555 1_555
O4 Cu1A 1_555 1_555
O5 Cu2A 1_555 1_555
O8 Cu2A 1_555 1_555

#END
