
#######################################################################
#
#                 Cambridge Crystallographic Data Centre
#                                CCDC 
#
#######################################################################
#
# If this CIF has been generated from an entry in the Cambridge 
# Structural Database, then it will include bibliographic, chemical, 
# crystal, experimental, refinement or atomic coordinate data resulting 
# from the CCDC's data processing and validation procedures.
#
#######################################################################

data_LUSWOM01
_symmetry_cell_setting           triclinic
_symmetry_space_group_name_H-M   'P -1'
_symmetry_Int_Tables_number      2
_space_group_name_Hall           '-P 1'
loop_
_symmetry_equiv_pos_site_id
_symmetry_equiv_pos_as_xyz
1 x,y,z
2 -x,-y,-z
_cell_length_a                   10.2611(6)
_cell_length_b                   10.4184(6)
_cell_length_c                   15.6335(9)
_cell_angle_alpha                81.1410(10)
_cell_angle_beta                 82.3020(10)
_cell_angle_gamma                87.7220(10)
_cell_volume                     1636.16
loop_
_atom_site_label
_atom_site_type_symbol
_atom_site_fract_x
_atom_site_fract_y
_atom_site_fract_z
C1 C 0.4106(3) 0.7020(2) 0.55997(16)
C2 C 0.3581(2) 0.8203(2) 0.59760(16)
C3 C 0.3476(3) 0.9379(2) 0.54343(17)
H1 H 0.3787 0.9449 0.4829
C4 C 0.2913(3) 1.0457(3) 0.57784(18)
H2 H 0.2844 1.1265 0.5410
C5 C 0.2455(3) 1.0347(3) 0.66604(18)
H3 H 0.2040 1.1075 0.6890
C6 C 0.2593(3) 0.9193(3) 0.72101(18)
H4 H 0.2299 0.9134 0.7817
C7 C 0.3166(3) 0.8119(3) 0.68690(17)
H5 H 0.3276 0.7325 0.7245
C8 C 0.7153(3) 0.5404(2) 0.55158(17)
C9 C 0.8348(3) 0.5722(3) 0.5879(2)
C10 C 0.8424(3) 0.5367(3) 0.6763(2)
H6 H 0.7742 0.4877 0.7124
C11 C 0.9494(4) 0.5725(4) 0.7121(3)
H7 H 0.9543 0.5496 0.7729
C12 C 1.0490(4) 0.6421(4) 0.6587(3)
H8 H 1.1224 0.6669 0.6831
C13 C 1.0433(4) 0.6759(4) 0.5703(3)
H9 H 1.1131 0.7223 0.5341
C14 C 0.9356(3) 0.6420(3) 0.5348(3)
H10 H 0.9305 0.6663 0.4742
C15 C 0.1116(3) 0.0426(2) 1.12759(16)
C16 C 0.1761(3) 0.0755(2) 1.20151(16)
C17 C 0.1244(3) 0.0329(3) 1.28733(17)
H11 H 0.0482 -0.0190 1.2996
C18 C 0.1839(3) 0.0660(3) 1.35538(18)
H12 H 0.1480 0.0372 1.4141
C19 C 0.2953(3) 0.1408(3) 1.33778(18)
H13 H 0.3361 0.1629 1.3845
C20 C 0.3477(3) 0.1838(3) 1.25217(19)
H14 H 0.4243 0.2352 1.2403
C21 C 0.2883(3) 0.1516(3) 1.18395(18)
H15 H 0.3240 0.1814 1.1253
C22 C -0.1336(3) 0.2075(2) 1.01313(15)
C23 C -0.2117(3) 0.3302(2) 1.02572(16)
C24 C -0.1600(3) 0.4498(3) 0.98738(19)
H16 H -0.0770 0.4538 0.9520
C25 C -0.2299(3) 0.5638(3) 1.0010(2)
H17 H -0.1943 0.6457 0.9752
C26 C -0.3508(3) 0.5577(3) 1.0518(2)
H18 H -0.3985 0.6356 1.0608
C27 C -0.4031(3) 0.4388(3) 1.0899(2)
H19 H -0.4865 0.4351 1.1248
C28 C -0.3334(3) 0.3247(3) 1.07679(18)
H20 H -0.3691 0.2430 1.1028
C29 C 0.2513(3) 0.3517(2) 0.72669(16)
H21 H 0.2098 0.4201 0.6920
C30 C 0.1795(3) 0.2841(2) 0.79931(16)
H22 H 0.0886 0.3044 0.8122
C31 C 0.3636(3) 0.1661(2) 0.83326(15)
C32 C 0.4365(3) 0.2307(2) 0.75668(16)
C33 C 0.4303(3) 0.0691(3) 0.89543(17)
H23 H 0.3687 0.0425 0.9482
H24 H 0.5071 0.1087 0.9112
H25 H 0.4587 -0.0071 0.8675
C34 C 0.5784(3) 0.1960(3) 0.73211(19)
H26 H 0.6112 0.2472 0.6759
H27 H 0.5869 0.1033 0.7273
H28 H 0.6298 0.2150 0.7770
Cu1 Cu 0.46098(3) 0.42822(3) 0.574926(19)
Cu2 Cu 0.08966(3) 0.06753(3) 0.945388(18)
N1 N 0.3793(2) 0.32291(19) 0.70397(13)
N2 N 0.2352(2) 0.18986(19) 0.85236(13)
O1 O 0.4635(2) 0.71742(17) 0.48198(12)
O2 O 0.3965(2) 0.59469(18) 0.60965(12)
O3 O 0.6338(2) 0.4671(2) 0.60155(13)
O4 O 0.7023(2) 0.5904(2) 0.47428(13)
O5 O 0.01092(19) -0.02764(18) 1.14554(11)
O6 O 0.16274(19) 0.08880(18) 1.05144(11)
O7 O -0.02777(19) 0.21835(17) 0.96182(12)
O8 O -0.17938(18) 0.10276(16) 1.05604(12)
Cu1A Cu 0.53902(3) 0.57178(3) 0.425074(19)
Cu2A Cu -0.08966(3) -0.06753(3) 1.054612(18)
O1A O 0.5365(2) 0.28258(17) 0.51802(12)
O4A O 0.2977(2) 0.4096(2) 0.52572(13)
O5A O -0.01092(19) 0.02764(18) 0.85446(11)
O8A O 0.17938(18) -0.10276(16) 0.94396(12)
loop_
_geom_bond_atom_site_label_1
_geom_bond_atom_site_label_2
_geom_bond_site_symmetry_1
_geom_bond_site_symmetry_2
C1 C2 1_555 1_555
C2 C3 1_555 1_555
C3 H1 1_555 1_555
C4 C3 1_555 1_555
H2 C4 1_555 1_555
C5 C4 1_555 1_555
H3 C5 1_555 1_555
C6 C5 1_555 1_555
H4 C6 1_555 1_555
C7 C2 1_555 1_555
H5 C7 1_555 1_555
C8 C9 1_555 1_555
C9 C10 1_555 1_555
C10 H6 1_555 1_555
C11 C10 1_555 1_555
H7 C11 1_555 1_555
C12 C11 1_555 1_555
H8 C12 1_555 1_555
C13 C12 1_555 1_555
H9 C13 1_555 1_555
C14 C9 1_555 1_555
H10 C14 1_555 1_555
C15 C16 1_555 1_555
C16 C17 1_555 1_555
C17 H11 1_555 1_555
C18 C17 1_555 1_555
H12 C18 1_555 1_555
C19 C18 1_555 1_555
H13 C19 1_555 1_555
C20 C19 1_555 1_555
H14 C20 1_555 1_555
C21 C16 1_555 1_555
H15 C21 1_555 1_555
C22 C23 1_555 1_555
C23 C24 1_555 1_555
C24 H16 1_555 1_555
C25 C24 1_555 1_555
H17 C25 1_555 1_555
C26 C25 1_555 1_555
H18 C26 1_555 1_555
C27 C26 1_555 1_555
H19 C27 1_555 1_555
C28 C23 1_555 1_555
H20 C28 1_555 1_555
C29 H21 1_555 1_555
C30 C29 1_555 1_555
H22 C30 1_555 1_555
C31 C32 1_555 1_555
C32 C34 1_555 1_555
C33 C31 1_555 1_555
H23 C33 1_555 1_555
H24 C33 1_555 1_555
H25 C33 1_555 1_555
C34 H26 1_555 1_555
H27 C34 1_555 1_555
H28 C34 1_555 1_555
Cu1 N1 1_555 1_555
Cu2 N2 1_555 1_555
N1 C29 1_555 1_555
N2 C30 1_555 1_555
O1 C1 1_555 1_555
O2 C1 1_555 1_555
O3 C8 1_555 1_555
O4 C8 1_555 1_555
O5 C15 1_555 1_555
O6 C15 1_555 1_555
O7 C22 1_555 1_555
O8 C22 1_555 1_555
Cu1A Cu1 1_555 1_555
Cu2A Cu2 1_555 1_555
O1A Cu1 1_555 1_555
O4A Cu1 1_555 1_555
O5A Cu2 1_555 1_555
O8A Cu2 1_555 1_555
C6 C7 1_555 1_555
C13 C14 1_555 1_555
C20 C21 1_555 1_555
C27 C28 1_555 1_555
C31 N2 1_555 1_555
C32 N1 1_555 1_555
Cu1 O2 1_555 1_555
Cu1 O3 1_555 1_555
Cu2 O6 1_555 1_555
Cu2 O7 1_555 1_555
O1 Cu1A 1_555 1_555
O4 Cu1A 1_555 1_555
O5 Cu2A 1_555 1_555
O8 Cu2A 1_555 1_555

#END
