
#######################################################################
#
#                 Cambridge Crystallographic Data Centre
#                                CCDC 
#
#######################################################################
#
# If this CIF has been generated from an entry in the Cambridge 
# Structural Database, then it will include bibliographic, chemical, 
# crystal, experimental, refinement or atomic coordinate data resulting 
# from the CCDC's data processing and validation procedures.
#
#######################################################################

data_LUSXAZ
_symmetry_cell_setting           triclinic
_symmetry_space_group_name_H-M   'P -1'
_symmetry_Int_Tables_number      2
_space_group_name_Hall           '-P 1'
loop_
_symmetry_equiv_pos_site_id
_symmetry_equiv_pos_as_xyz
1 x,y,z
2 -x,-y,-z
_cell_length_a                   10.5149(10)
_cell_length_b                   10.3425(10)
_cell_length_c                   15.5194(15)
_cell_angle_alpha                82.721(2)
_cell_angle_beta                 82.702(2)
_cell_angle_gamma                89.957(2)
_cell_volume                     1660.37
loop_
_atom_site_label
_atom_site_type_symbol
_atom_site_fract_x
_atom_site_fract_y
_atom_site_fract_z
C1 C 0.4095(4) 0.7001(5) 0.5609(3)
C2 C 0.3542(4) 0.8189(5) 0.5978(3)
C3 C 0.3469(4) 0.9355(5) 0.5440(3)
H1 H 0.3821 0.9428 0.4841
C4 C 0.2881(4) 1.0419(5) 0.5777(3)
H2 H 0.2838 1.1222 0.5410
C5 C 0.2358(5) 1.0307(5) 0.6649(3)
H3 H 0.1922 1.1022 0.6874
C6 C 0.2467(5) 0.9157(5) 0.7194(3)
H4 H 0.2132 0.9095 0.7796
C7 C 0.3063(5) 0.8098(5) 0.6867(3)
H5 H 0.3146 0.7312 0.7244
C8 C 0.7079(5) 0.5441(5) 0.5580(3)
C9 C 0.8242(6) 0.5747(6) 0.5963(4)
C10 C 0.8236(7) 0.5495(7) 0.6863(4)
H6 H 0.7496 0.5104 0.7213
C11 C 0.9293(7) 0.5801(7) 0.7265(5)
H7 H 0.9276 0.5646 0.7883
C12 C 1.0354(7) 0.6334(8) 0.6736(5)
H8 H 1.1093 0.6527 0.6993
C13 C 1.0376(7) 0.6599(7) 0.5835(5)
H9 H 1.1119 0.6981 0.5482
C14 C 0.9286(6) 0.6298(6) 0.5447(5)
H10 H 0.9287 0.6479 0.4831
C15 C 0.1143(4) 0.0477(4) 1.1271(3)
C16 C 0.1825(4) 0.0817(5) 1.1995(3)
C17 C 0.1298(5) 0.0502(5) 1.2861(3)
H11 H 0.0488 0.0067 1.2995
C18 C 0.1944(5) 0.0816(5) 1.3533(3)
H12 H 0.1576 0.0591 1.4124
C19 C 0.3125(5) 0.1458(5) 1.3347(3)
H13 H 0.3566 0.1672 1.3809
C20 C 0.3650(5) 0.1781(5) 1.2489(3)
H14 H 0.4456 0.2224 1.2359
C21 C 0.3016(5) 0.1467(5) 1.1813(3)
H15 H 0.3389 0.1693 1.1223
C22 C -0.1253(4) 0.2075(4) 1.0134(3)
C23 C -0.2020(5) 0.3283(5) 1.0242(3)
C24 C -0.1545(5) 0.4486(5) 0.9836(3)
H16 H -0.0736 0.4543 0.9481
C25 C -0.2235(5) 0.5601(5) 0.9940(4)
H17 H -0.1893 0.6423 0.9668
C26 C -0.3424(5) 0.5526(5) 1.0440(4)
H18 H -0.3907 0.6293 1.0502
C27 C -0.3903(5) 0.4340(5) 1.0845(4)
H19 H -0.4717 0.4290 1.1194
C28 C -0.3207(5) 0.3204(5) 1.0751(3)
H20 H -0.3544 0.2384 1.1034
C29 C 0.2513(5) 0.3530(5) 0.7272(3)
H21 H 0.2127 0.4221 0.6937
C30 C 0.1817(5) 0.2880(4) 0.8005(3)
H22 H 0.0950 0.3111 0.8156
C31 C 0.3561(4) 0.1655(4) 0.8308(3)
C32 C 0.4257(5) 0.2281(4) 0.7530(3)
C33 C 0.4191(5) 0.0683(5) 0.8910(3)
H23 H 0.3598 0.0426 0.9444
H24 H 0.4968 0.1074 0.9061
H25 H 0.4418 -0.0087 0.8618
C34 C 0.5596(5) 0.1887(6) 0.7243(3)
H26 H 0.6001 0.2548 0.6781
H27 H 0.5577 0.1046 0.7017
H28 H 0.6087 0.1810 0.7742
Cu1 Cu 0.45723(6) 0.42820(6) 0.57390(3)
Cu2 Cu 0.08775(5) 0.06782(5) 0.94450(3)
N1 N 0.3727(4) 0.3213(4) 0.7016(2)
N2 N 0.2331(4) 0.1919(3) 0.8519(2)
O1 O 0.4670(3) 0.7163(3) 0.48416(19)
O2 O 0.3923(4) 0.5937(3) 0.6099(2)
O3 O 0.6234(4) 0.4720(4) 0.6057(2)
O4 O 0.6989(3) 0.5940(4) 0.4797(2)
O5 O 0.0136(3) -0.0226(3) 1.14608(19)
O6 O 0.1624(3) 0.0923(3) 1.05078(18)
O7 O -0.0225(3) 0.2181(3) 0.9622(2)
O8 O -0.1707(3) 0.1024(3) 1.0572(2)
Cu1A Cu 0.54277(6) 0.57180(6) 0.42610(3)
Cu2A Cu -0.08775(5) -0.06782(5) 1.05550(3)
O1A O 0.5330(3) 0.2837(3) 0.51584(19)
O4A O 0.3011(3) 0.4060(4) 0.5203(2)
O5A O -0.0136(3) 0.0226(3) 0.85392(19)
O8A O 0.1707(3) -0.1024(3) 0.9428(2)
C35 C 0.8793(10) 0.2609(11) 0.7411(6)
O9 O 0.9415(8) 0.2579(8) 0.6760(6)
O10 O 0.8144(7) 0.2644(8) 0.8046(5)
loop_
_geom_bond_atom_site_label_1
_geom_bond_atom_site_label_2
_geom_bond_site_symmetry_1
_geom_bond_site_symmetry_2
C1 C2 1_555 1_555
C2 C3 1_555 1_555
C3 H1 1_555 1_555
C4 C3 1_555 1_555
H2 C4 1_555 1_555
C5 C4 1_555 1_555
H3 C5 1_555 1_555
C6 C5 1_555 1_555
H4 C6 1_555 1_555
C7 C2 1_555 1_555
H5 C7 1_555 1_555
C8 C9 1_555 1_555
C9 C10 1_555 1_555
C10 H6 1_555 1_555
C11 C10 1_555 1_555
H7 C11 1_555 1_555
C12 C11 1_555 1_555
H8 C12 1_555 1_555
C13 C12 1_555 1_555
H9 C13 1_555 1_555
C14 C9 1_555 1_555
H10 C14 1_555 1_555
C15 C16 1_555 1_555
C16 C17 1_555 1_555
C17 H11 1_555 1_555
C18 C17 1_555 1_555
H12 C18 1_555 1_555
C19 C18 1_555 1_555
H13 C19 1_555 1_555
C20 C19 1_555 1_555
H14 C20 1_555 1_555
C21 C16 1_555 1_555
H15 C21 1_555 1_555
C22 C23 1_555 1_555
C23 C24 1_555 1_555
C24 H16 1_555 1_555
C25 C24 1_555 1_555
H17 C25 1_555 1_555
C26 C25 1_555 1_555
H18 C26 1_555 1_555
C27 C26 1_555 1_555
H19 C27 1_555 1_555
C28 C23 1_555 1_555
H20 C28 1_555 1_555
C29 H21 1_555 1_555
C30 C29 1_555 1_555
H22 C30 1_555 1_555
C31 C32 1_555 1_555
C32 C34 1_555 1_555
C33 C31 1_555 1_555
H23 C33 1_555 1_555
H24 C33 1_555 1_555
H25 C33 1_555 1_555
C34 H26 1_555 1_555
H27 C34 1_555 1_555
H28 C34 1_555 1_555
C35 O9 1_555 1_555
Cu1 N1 1_555 1_555
Cu2 N2 1_555 1_555
N1 C29 1_555 1_555
N2 C30 1_555 1_555
O1 C1 1_555 1_555
O2 C1 1_555 1_555
O3 C8 1_555 1_555
O4 C8 1_555 1_555
O5 C15 1_555 1_555
O6 C15 1_555 1_555
O7 C22 1_555 1_555
O8 C22 1_555 1_555
O10 C35 1_555 1_555
Cu1A Cu1 1_555 1_555
Cu2A Cu2 1_555 1_555
O1A Cu1 1_555 1_555
O4A Cu1 1_555 1_555
O5A Cu2 1_555 1_555
O8A Cu2 1_555 1_555
C6 C7 1_555 1_555
C13 C14 1_555 1_555
C20 C21 1_555 1_555
C27 C28 1_555 1_555
C31 N2 1_555 1_555
C32 N1 1_555 1_555
Cu1 O2 1_555 1_555
Cu1 O3 1_555 1_555
Cu2 O6 1_555 1_555
Cu2 O7 1_555 1_555
O1 Cu1A 1_555 1_555
O4 Cu1A 1_555 1_555
O5 Cu2A 1_555 1_555
O8 Cu2A 1_555 1_555

#END
