
#######################################################################
#
#                 Cambridge Crystallographic Data Centre
#                                CCDC 
#
#######################################################################
#
# If this CIF has been generated from an entry in the Cambridge 
# Structural Database, then it will include bibliographic, chemical, 
# crystal, experimental, refinement or atomic coordinate data resulting 
# from the CCDC's data processing and validation procedures.
#
#######################################################################

data_LUSYEF
_symmetry_cell_setting           rhombohedral
_symmetry_space_group_name_H-M   'R -3 m'
_symmetry_Int_Tables_number      166
_space_group_name_Hall           '-R 3 2"'
loop_
_symmetry_equiv_pos_site_id
_symmetry_equiv_pos_as_xyz
1 x,y,z
2 -y,x-y,z
3 -x+y,-x,z
4 y,x,-z
5 x-y,-y,-z
6 -x,-x+y,-z
7 2/3+x,1/3+y,1/3+z
8 2/3-y,1/3+x-y,1/3+z
9 2/3-x+y,1/3-x,1/3+z
10 2/3+y,1/3+x,1/3-z
11 2/3+x-y,1/3-y,1/3-z
12 2/3-x,1/3-x+y,1/3-z
13 1/3+x,2/3+y,2/3+z
14 1/3-y,2/3+x-y,2/3+z
15 1/3-x+y,2/3-x,2/3+z
16 1/3+y,2/3+x,2/3-z
17 1/3+x-y,2/3-y,2/3-z
18 1/3-x,2/3-x+y,2/3-z
19 -x,-y,-z
20 y,-x+y,-z
21 x-y,x,-z
22 -y,-x,z
23 -x+y,y,z
24 x,x-y,z
25 1/3-x,2/3-y,2/3-z
26 1/3+y,2/3-x+y,2/3-z
27 1/3+x-y,2/3+x,2/3-z
28 1/3-y,2/3-x,2/3+z
29 1/3-x+y,2/3+y,2/3+z
30 1/3+x,2/3+x-y,2/3+z
31 2/3-x,1/3-y,1/3-z
32 2/3+y,1/3-x+y,1/3-z
33 2/3+x-y,1/3+x,1/3-z
34 2/3-y,1/3-x,1/3+z
35 2/3-x+y,1/3+y,1/3+z
36 2/3+x,1/3+x-y,1/3+z
_cell_length_a                   18.4284(17)
_cell_length_b                   18.4284(17)
_cell_length_c                   40.081(3)
_cell_angle_alpha                90
_cell_angle_beta                 90
_cell_angle_gamma                120
_cell_volume                     11788.1
loop_
_atom_site_label
_atom_site_type_symbol
_atom_site_fract_x
_atom_site_fract_y
_atom_site_fract_z
Cu1 Cu 0.04881(5) 0.52441(3) 0.02667(2)
O1 O 0.1319(5) 0.5659(2) 0.06878(18)
C1 C -0.1772(3) 0.6457(6) 0.1514(2)
O2 O -0.0276(3) 0.5612(3) 0.04305(10)
O3 O -0.1085(2) 0.5200(3) -0.00193(9)
C2 C -0.1567(4) 0.6865(7) 0.1216(2)
C3 C -0.1254(4) 0.6196(4) 0.07318(15)
H1 H -0.0755 0.6320 0.0837
C4 C -0.1142(5) 0.7715(9) 0.1208(4)
H2 H -0.0998 0.8004 0.1007
C5 C -0.0922(5) 0.8155(9) 0.1521(4)
H3 H -0.0631 0.8738 0.1522
C6 C -0.2205(3) 0.5591(5) 0.02741(18)
H4 H -0.2340 0.5320 0.0069
C7 C -0.1450(3) 0.5786(4) 0.04223(13)
C8 C -0.2203(5) 0.5593(10) 0.1521(3)
H5 H -0.2353 0.5295 0.1322
C9 C -0.1791(3) 0.6418(6) 0.0882(2)
C10 C -0.0903(3) 0.5504(4) 0.02686(13)
C1J C -0.1562(7) 0.6876(6) 0.1819(2)
O2J O 0.0779(4) 0.7721(3) 0.29028(10)
O3J O 0.0382(4) 0.8133(3) 0.33526(9)
C2J C -0.1765(8) 0.6468(7) 0.2117(2)
C3J C -0.0783(6) 0.7137(4) 0.26015(15)
H1J H -0.0408 0.7013 0.2496
C4J C -0.2190(10) 0.5618(9) 0.2125(4)
H2J H -0.2335 0.5329 0.2326
C5J C -0.2410(10) 0.5178(9) 0.1812(4)
H3J H -0.2702 0.4595 0.1811
C6J C -0.1129(6) 0.7742(5) 0.30592(18)
H4J H -0.0993 0.8013 0.3264
C7J C -0.0569(5) 0.7547(4) 0.29110(13)
C8J C -0.1129(11) 0.7740(10) 0.1812(3)
H5J H -0.0981 0.8038 0.2011
C9J C -0.1542(7) 0.6915(6) 0.2451(2)
C10J C 0.0260(5) 0.7829(4) 0.30647(13)
O2V O -0.4112(4) 0.5612(3) 0.04305(10)
O3V O -0.3715(4) 0.5200(3) -0.00193(9)
C3V C -0.2550(6) 0.6196(4) 0.07318(15)
H1V H -0.2925 0.6320 0.0837
C7V C -0.2764(5) 0.5786(4) 0.04223(13)
C10V C -0.3593(5) 0.5504(4) 0.02686(13)
O2DA O -0.3057(3) 0.7721(3) 0.29028(10)
O3DA O -0.2248(2) 0.8133(3) 0.33526(9)
C3DA C -0.2079(4) 0.7137(4) 0.26015(15)
H1DA H -0.2578 0.7013 0.2496
C7DA C -0.1883(3) 0.7547(4) 0.29110(13)
C10DA C -0.2430(3) 0.7829(4) 0.30647(13)
Cu1A Cu -0.52441(3) 0.52440(6) 0.02667(2)
O1A O -0.5659(2) 0.5660(5) 0.06878(18)
Cu1D Cu -0.47560(6) 0.47559(3) -0.02667(2)
Cu1E Cu -0.04881(5) 0.47560(6) -0.02667(2)
Cu1F Cu -0.28452(5) 0.85774(3) 0.36000(2)
Cu1G Cu 0.14226(3) 0.85773(6) 0.36000(2)
Cu1J Cu 0.19107(6) 0.80892(3) 0.30666(2)
Cu1K Cu -0.38214(5) 0.80893(6) 0.30666(2)
O2A O -0.5612(3) 0.4112(4) 0.04305(10)
O2W O -0.0276(3) 0.4112(4) 0.04305(10)
O3D O -0.6285(4) 0.4800(3) 0.00193(9)
O3E O 0.1085(2) 0.6285(4) 0.00193(9)
O3R O 0.1085(2) 0.4800(3) 0.00193(9)
O3S O -0.4800(3) 0.6285(4) 0.00193(9)
loop_
_geom_bond_atom_site_label_1
_geom_bond_atom_site_label_2
_geom_bond_site_symmetry_1
_geom_bond_site_symmetry_2
Cu1 O1 1_555 1_555
C1 C2 1_555 1_555
O2 Cu1 1_555 1_555
O3 C10 1_555 1_555
C2 C4 1_555 1_555
C3 H1 1_555 1_555
C4 H2 1_555 1_555
C5 C4 1_555 1_555
H3 C5 1_555 1_555
C6 H4 1_555 1_555
C7 C3 1_555 1_555
C8 C1 1_555 1_555
H5 C8 1_555 1_555
C9 C2 1_555 1_555
C10 O2 1_555 1_555
C1J C1 1_555 1_555
O2J C10J 1_555 1_555
O3J C10J 1_555 1_555
C2J C1J 1_555 1_555
C3J H1J 1_555 1_555
C4J C2J 1_555 1_555
H2J C4J 1_555 1_555
C5J C8 1_555 1_555
H3J C5J 1_555 1_555
C6J H4J 1_555 1_555
C7J C3J 1_555 1_555
C8J C5 1_555 1_555
H5J C8J 1_555 1_555
C9J C2J 1_555 1_555
C10J C7J 1_555 1_555
O2V C10V 1_555 1_555
O3V C10V 1_555 1_555
C3V C9 1_555 1_555
H1V C3V 1_555 1_555
C7V C6 1_555 1_555
C10V C7V 1_555 1_555
O2DA C10DA 1_555 1_555
O3DA C10DA 1_555 1_555
C3DA C9J 1_555 1_555
H1DA C3DA 1_555 1_555
C7DA C6J 1_555 1_555
C10DA C7DA 1_555 1_555
Cu1A O2V 1_555 1_555
O1A Cu1A 1_555 1_555
Cu1D O3V 1_555 1_555
Cu1E Cu1 1_555 1_555
Cu1F O3DA 1_555 1_555
Cu1G O3J 1_555 1_555
Cu1J O2J 1_555 1_555
Cu1K O2DA 1_555 1_555
O2A Cu1A 1_555 1_555
O2W Cu1 1_555 1_555
O3D Cu1A 1_555 1_555
O3E Cu1 1_555 1_555
O3R Cu1 1_555 1_555
O3S Cu1A 1_555 1_555
O3 Cu1E 1_555 1_555
C3 C9 1_555 1_555
C6 C7 1_555 1_555
C7 C10 1_555 1_555
C1J C8J 1_555 1_555
C3J C9J 1_555 1_555
C4J C5J 1_555 1_555
C6J C7J 1_555 1_555
C3V C7V 1_555 1_555
C3DA C7DA 1_555 1_555
Cu1A Cu1D 1_555 1_555
Cu1F Cu1K 1_555 1_555
Cu1G Cu1J 1_555 1_555

#END
