
#######################################################################
#
#                 Cambridge Crystallographic Data Centre
#                                CCDC 
#
#######################################################################
#
# If this CIF has been generated from an entry in the Cambridge 
# Structural Database, then it will include bibliographic, chemical, 
# crystal, experimental, refinement or atomic coordinate data resulting 
# from the CCDC's data processing and validation procedures.
#
#######################################################################

data_LUTFIQ
_symmetry_cell_setting           monoclinic
_symmetry_space_group_name_H-M   'P 21/n'
_symmetry_Int_Tables_number      14
_space_group_name_Hall           '-P 2yn'
loop_
_symmetry_equiv_pos_site_id
_symmetry_equiv_pos_as_xyz
1 x,y,z
2 1/2-x,1/2+y,1/2-z
3 -x,-y,-z
4 1/2+x,1/2-y,1/2+z
_cell_length_a                   7.1510(1)
_cell_length_b                   22.7160(2)
_cell_length_c                   10.1132(2)
_cell_angle_alpha                90
_cell_angle_beta                 100.7(5)
_cell_angle_gamma                90
_cell_volume                     1614.25
loop_
_atom_site_label
_atom_site_type_symbol
_atom_site_fract_x
_atom_site_fract_y
_atom_site_fract_z
La1 La 0.501(1) 0.0177(1) 0.7551(7)
Na1 Na 0.947(2) -0.0513(4) 1.260(2)
P1 P 0.610(1) -0.1163(5) 0.990(1)
P2 P 0.200(1) -0.0776(5) 0.957(1)
P3 P -0.065(1) -0.3843(5) 1.038(1)
P4 P 0.333(1) -0.4296(5) 1.072(1)
O1 O 0.733(2) -0.1723(7) 0.969(2)
O2 O 0.665(2) -0.0654(8) 0.908(2)
O3 O 0.646(2) -0.100(1) 1.137(1)
O4 O -0.008(1) -0.0999(7) 0.901(2)
O5 O 0.237(2) -0.0221(6) 0.884(2)
O6 O 0.219(2) -0.0646(7) 1.105(1)
O7 O -0.094(2) -0.403(1) 0.893(2)
O8 O -0.182(2) -0.3257(7) 1.049(2)
O9 O -0.137(2) -0.4319(8) 1.120(2)
O10 O 0.545(2) -0.4074(8) 1.094(2)
O11 O 0.276(2) -0.4525(7) 0.931(1)
O12 O 0.316(2) -0.4786(7) 1.171(2)
C1 C 0.362(1) -0.1352(5) 0.927(1)
C2 C 0.308(2) -0.1959(5) 0.973(1)
C3 C 0.318(3) -0.2070(5) 1.109(1)
C4 C 0.272(4) -0.2627(6) 1.151(1)
C5 C 0.246(2) -0.3092(5) 1.060(1)
C6 C 0.243(3) -0.2983(5) 0.925(1)
C7 C 0.292(3) -0.2429(5) 0.884(1)
C8 C 0.183(1) -0.3691(5) 1.105(1)
H1 H 0.3465 -0.1401 0.8331
H2 H 0.3605 -0.1772 1.1769
H3 H 0.2513 -0.2681 1.2444
H4 H 0.2307 -0.3313 0.8675
H5 H 0.3463 -0.2404 0.8046
H6 H 0.2003 -0.3668 1.2047
La1B La 0.499(1) -0.0177(1) 1.2449(7)
La1A La -0.001(1) -0.4823(1) 0.7449(7)
La1C La 0.001(1) -0.5177(1) 1.2551(7)
Na1B Na 0.053(2) 0.0513(4) 0.740(2)
Na1_2 Na -0.053(2) -0.0513(4) 1.260(2)
Na1C Na 0.447(2) -0.4487(4) 0.760(2)
Na1A Na 0.553(2) -0.5513(4) 1.240(2)
O3B O 0.354(2) 0.100(1) 0.863(1)
O5B O 0.763(2) 0.0221(6) 1.116(2)
O6B O 0.781(2) 0.0646(7) 0.895(1)
O6_2 O 1.219(2) -0.0646(7) 1.105(1)
O7A O 0.594(2) 0.097(1) 0.607(2)
O9C O 0.363(2) -0.0681(8) 0.620(2)
O11A O 0.224(2) 0.0475(7) 0.569(1)
O11C O 0.776(2) -0.0475(7) 1.431(1)
O12C O 0.816(2) -0.0214(7) 0.671(2)
O12A O 1.184(2) 0.0214(7) 1.329(2)
loop_
_geom_bond_atom_site_label_1
_geom_bond_atom_site_label_2
_geom_bond_site_symmetry_1
_geom_bond_site_symmetry_2
La1 O2 1_555 1_555
Na1 O3 1_555 1_555
P1 O1 1_555 1_555
P2 O4 1_555 1_555
P3 O7 1_555 1_555
P4 O10 1_555 1_555
O2 P1 1_555 1_555
O3 P1 1_555 1_555
O5 La1 1_555 1_555
O6 P2 1_555 1_555
O7 La1A 1_555 1_555
O8 P3 1_555 1_555
O9 P3 1_555 1_555
O11 P4 1_555 1_555
O12 P4 1_555 1_555
C1 P1 1_555 1_555
C2 C1 1_555 1_555
C3 C2 1_555 1_555
C4 C3 1_555 1_555
C5 C4 1_555 1_555
C6 C5 1_555 1_555
C7 C2 1_555 1_555
C8 P3 1_555 1_555
H1 C1 1_555 1_555
H2 C3 1_555 1_555
H3 C4 1_555 1_555
H4 C6 1_555 1_555
H5 C7 1_555 1_555
H6 C8 1_555 1_555
La1B O3 1_555 1_555
La1A O11 1_555 1_555
La1C O9 1_555 1_555
Na1B O5 1_555 1_555
Na1_2 O6 1_555 1_555
Na1C O11 1_555 1_555
Na1A O12 1_555 1_555
O3B La1 1_555 1_555
O5B Na1 1_555 1_555
O6B La1 1_555 1_555
O6_2 Na1 1_555 1_555
O7A La1 1_555 1_555
O9C La1 1_555 1_555
O11A La1 1_555 1_555
O11C Na1 1_555 1_555
O12C La1 1_555 1_555
O12A Na1 1_555 1_555
P2 O5 1_555 1_555
P2 C1 1_555 1_555
P4 C8 1_555 1_555
O6 La1B 1_555 1_555
O12 La1C 1_555 1_555
C5 C8 1_555 1_555
C6 C7 1_555 1_555
La1B O5B 1_555 1_555
La1B O11C 1_555 1_555
Na1B O3B 1_555 1_555
Na1B O11A 1_555 1_555

#END
