
#######################################################################
#
#                 Cambridge Crystallographic Data Centre
#                                CCDC 
#
#######################################################################
#
# If this CIF has been generated from an entry in the Cambridge 
# Structural Database, then it will include bibliographic, chemical, 
# crystal, experimental, refinement or atomic coordinate data resulting 
# from the CCDC's data processing and validation procedures.
#
#######################################################################

data_LUTJUH
_symmetry_cell_setting           orthorhombic
_symmetry_space_group_name_H-M   'P n n a'
_symmetry_Int_Tables_number      52
_space_group_name_Hall           '-P 2a 2bc'
loop_
_symmetry_equiv_pos_site_id
_symmetry_equiv_pos_as_xyz
1 x,y,z
2 1/2-x,-y,z
3 1/2-x,1/2+y,1/2-z
4 x,1/2-y,1/2-z
5 -x,-y,-z
6 1/2+x,y,-z
7 1/2+x,1/2-y,1/2+z
8 -x,1/2+y,1/2+z
_cell_length_a                   18.134(2)
_cell_length_b                   13.8355(16)
_cell_length_c                   9.3325(10)
_cell_angle_alpha                90
_cell_angle_beta                 90
_cell_angle_gamma                90
_cell_volume                     2341.46
loop_
_atom_site_label
_atom_site_type_symbol
_atom_site_fract_x
_atom_site_fract_y
_atom_site_fract_z
Co1 Co 0.30252(2) 0.2500 0.2500
N1 N 0.24127(11) 0.17889(15) 0.3939(2)
N2 N 0.16289(12) 0.07460(17) 0.4851(3)
O1 O 0.36146(10) 0.35013(13) 0.3401(2)
O2 O 0.41921(12) 0.25346(16) 0.4932(2)
F1 F 0.36160(9) 0.48751(13) 0.60565(19)
F2 F 0.55705(9) 0.35476(13) 0.3407(2)
C1 C 0.40947(15) 0.3309(2) 0.4347(3)
C2 C 0.45706(14) 0.41724(18) 0.4718(3)
C3 C 0.43088(14) 0.4922(2) 0.5526(3)
C4 C 0.52792(15) 0.4268(2) 0.4209(3)
C5 C 0.16402(17) 0.0896(2) 0.2182(3)
H1 H 0.2015 0.1066 0.1500
H2 H 0.1197 0.1249 0.1974
H3 H 0.1543 0.0215 0.2124
C6 C 0.18945(14) 0.11380(19) 0.3634(3)
C7 C 0.24672(16) 0.1809(2) 0.5411(3)
H4 H 0.2789 0.2197 0.5933
C8 C 0.19847(17) 0.1182(3) 0.5972(3)
H5 H 0.1906 0.1065 0.6941
C9 C 0.10590(15) -0.0011(2) 0.4961(4)
H6 H 0.1123 -0.0357 0.5856
H7 H 0.1123 -0.0469 0.4184
C10 C 0.02870(14) 0.0397(2) 0.4900(3)
H8 H 0.0211 0.0711 0.3983
H9 H 0.0228 0.0879 0.5646
N1D N -0.24127(11) -0.17889(15) 0.6061(2)
N2D N -0.16289(12) -0.07460(17) 0.5149(3)
C5D C -0.16402(17) -0.0896(2) 0.7818(3)
H1D H -0.2015 -0.1066 0.8500
H2D H -0.1197 -0.1249 0.8026
H3D H -0.1543 -0.0215 0.7876
C6D C -0.18945(14) -0.11380(19) 0.6366(3)
C7D C -0.24672(16) -0.1809(2) 0.4589(3)
H4D H -0.2789 -0.2197 0.4067
C8D C -0.19847(17) -0.1182(3) 0.4028(3)
H5D H -0.1906 -0.1065 0.3059
C9D C -0.10590(15) 0.0011(2) 0.5039(4)
H6D H -0.1123 0.0357 0.4144
H7D H -0.1123 0.0469 0.5816
C10D C -0.02870(14) -0.0397(2) 0.5100(3)
H8D H -0.0211 -0.0711 0.6017
H9D H -0.0228 -0.0879 0.4354
O1D O 0.63854(10) 0.64987(13) 0.6599(2)
O2D O 0.58079(12) 0.74654(16) 0.5068(2)
F1D F 0.63840(9) 0.51249(13) 0.39435(19)
F2D F 0.44295(9) 0.64524(13) 0.6593(2)
C1D C 0.59053(15) 0.6691(2) 0.5653(3)
C2D C 0.54294(14) 0.58276(18) 0.5282(3)
C3D C 0.56912(14) 0.5078(2) 0.4474(3)
C4D C 0.47208(15) 0.5732(2) 0.5791(3)
Co1D Co -0.30252(2) -0.2500 0.7500
Co1D_2 Co 0.69748(2) 0.7500 0.7500
N1C N 0.24127(11) 0.32111(15) 0.1061(2)
O1C O 0.36146(10) 0.14987(13) 0.1599(2)
O3 O 0.5121(2) 0.2500 0.7500
H10 H 0.4817(19) 0.243(4) 0.685(4)
H10C H 0.4817(19) 0.257(4) 0.815(4)
loop_
_geom_bond_atom_site_label_1
_geom_bond_atom_site_label_2
_geom_bond_site_symmetry_1
_geom_bond_site_symmetry_2
Co1 N1 1_555 1_555
N1 C6 1_555 1_555
N2 C6 1_555 1_555
O1 Co1 1_555 1_555
O2 C1 1_555 1_555
F1 C3 1_555 1_555
F2 C4 1_555 1_555
C1 O1 1_555 1_555
C2 C1 1_555 1_555
C3 C2 1_555 1_555
C4 C2 1_555 1_555
C5 H1 1_555 1_555
H2 C5 1_555 1_555
H3 C5 1_555 1_555
C6 C5 1_555 1_555
C7 N1 1_555 1_555
H4 C7 1_555 1_555
C8 N2 1_555 1_555
H5 C8 1_555 1_555
C9 N2 1_555 1_555
H6 C9 1_555 1_555
H7 C9 1_555 1_555
C10 C9 1_555 1_555
H8 C10 1_555 1_555
H9 C10 1_555 1_555
O3 H10 1_555 1_555
N1D C6D 1_555 1_555
N2D C6D 1_555 1_555
C5D H1D 1_555 1_555
H2D C5D 1_555 1_555
H3D C5D 1_555 1_555
C6D C5D 1_555 1_555
C7D N1D 1_555 1_555
H4D C7D 1_555 1_555
C8D N2D 1_555 1_555
H5D C8D 1_555 1_555
C9D N2D 1_555 1_555
H6D C9D 1_555 1_555
H7D C9D 1_555 1_555
C10D C10 1_555 1_555
H8D C10D 1_555 1_555
H9D C10D 1_555 1_555
O1D C1D 1_555 1_555
O2D C1D 1_555 1_555
F1D C3D 1_555 1_555
F2D C4D 1_555 1_555
C1D C2D 1_555 1_555
C2D C3D 1_555 1_555
C3D C4 1_555 1_555
C4D C3 1_555 1_555
Co1D N1D 1_555 1_555
Co1D_2 O1D 1_555 1_555
N1C Co1 1_555 1_555
O1C Co1 1_555 1_555
H10C O3 1_555 1_555
C7 C8 1_555 1_555
C7D C8D 1_555 1_555
C9D C10D 1_555 1_555
C2D C4D 1_555 1_555

#END
