
#######################################################################
#
#                 Cambridge Crystallographic Data Centre
#                                CCDC 
#
#######################################################################
#
# If this CIF has been generated from an entry in the Cambridge 
# Structural Database, then it will include bibliographic, chemical, 
# crystal, experimental, refinement or atomic coordinate data resulting 
# from the CCDC's data processing and validation procedures.
#
#######################################################################

data_LUTKOC
_symmetry_cell_setting           triclinic
_symmetry_space_group_name_H-M   'P -1'
_symmetry_Int_Tables_number      2
_space_group_name_Hall           '-P 1'
loop_
_symmetry_equiv_pos_site_id
_symmetry_equiv_pos_as_xyz
1 x,y,z
2 -x,-y,-z
_cell_length_a                   9.2303(13)
_cell_length_b                   11.4497(15)
_cell_length_c                   11.7396(15)
_cell_angle_alpha                119.054(2)
_cell_angle_beta                 90.297(2)
_cell_angle_gamma                111.767(2)
_cell_volume                     980.654
loop_
_atom_site_label
_atom_site_type_symbol
_atom_site_fract_x
_atom_site_fract_y
_atom_site_fract_z
Cd1 Cd 0.0000 0.0000 0.5000
O1 O -0.0304(5) 0.1808(4) 0.6818(4)
O2 O 0.1668(6) 0.2321(5) 0.8335(4)
O3 O 0.1982(4) 0.1854(4) 0.4915(4)
O4 O 0.0689(5) 0.2452(5) 0.3832(5)
F1 F 0.2860(4) 0.5514(4) 0.9307(3)
F2 F -0.2374(5) 0.2225(4) 0.8808(4)
F3 F 0.3019(4) 0.5514(4) 0.6681(4)
F4 F 0.4105(5) 0.2309(3) 0.2771(4)
C1 C 0.0578(7) 0.2526(6) 0.7960(5)
C2 C 0.0271(7) 0.3805(6) 0.9010(5)
C3 C 0.1434(7) 0.5237(6) 0.9634(5)
C4 C -0.1181(7) 0.3597(6) 0.9379(5)
C5 C 0.1898(6) 0.2596(6) 0.4444(5)
C6 C 0.3479(6) 0.3858(5) 0.4714(5)
C7 C 0.4525(7) 0.3652(5) 0.3887(5)
C8 C 0.3983(6) 0.5243(6) 0.5841(5)
O5 O 0.1780(4) -0.0084(4) 0.6321(4)
H1 H 0.2262 0.0483 0.7126
H2 H 0.1224 -0.0950 0.6105
O1A O 0.0304(5) 0.8192(4) 1.3182(4)
O2A O -0.1668(6) 0.7679(5) 1.1665(4)
F1A F -0.2860(4) 0.4486(4) 1.0693(3)
F2A F 0.2374(5) 0.7775(4) 1.1192(4)
C1A C -0.0578(7) 0.7474(6) 1.2040(5)
C2A C -0.0271(7) 0.6195(6) 1.0990(5)
C3A C -0.1434(7) 0.4763(6) 1.0366(5)
C4A C 0.1181(7) 0.6403(6) 1.0621(5)
O3A O 0.8018(4) 0.8146(4) 0.5085(4)
O4A O 0.9311(5) 0.7548(5) 0.6168(5)
F3A F 0.6981(4) 0.4486(4) 0.3319(4)
F4A F 0.5895(5) 0.7691(3) 0.7229(4)
C5A C 0.8102(6) 0.7404(6) 0.5556(5)
C6A C 0.6521(6) 0.6142(5) 0.5286(5)
C7A C 0.5475(7) 0.6348(5) 0.6113(5)
C8A C 0.6017(6) 0.4757(6) 0.4159(5)
O5A O -0.1780(4) 0.0084(4) 0.3679(4)
H1A H -0.2262 -0.0483 0.2874
H2A H -0.1224 0.0950 0.3895
Cd1_2 Cd 0.0000 1.0000 1.5000
Cd1_3 Cd 1.0000 1.0000 0.5000
O1A_2 O 0.0304(5) -0.1808(4) 0.3182(4)
O3A_2 O -0.1982(4) -0.1854(4) 0.5085(4)
N1 N 0.2199(7) 0.4343(6) 0.1877(5)
N2 N 0.3814(5) 0.6570(5) 0.3396(5)
C9 C 0.1040(9) 0.5639(8) 0.3753(8)
H3 H 0.0112 0.4707 0.3300
H4 H 0.0771 0.6387 0.3786
H5 H 0.1398 0.5897 0.4648
C10 C 0.2334(7) 0.5525(7) 0.3023(6)
C11 C 0.3635(9) 0.4659(8) 0.1513(7)
H6 H 0.3867 0.4019 0.0750
C12 C 0.4644(8) 0.6038(7) 0.2437(6)
H7 H 0.5698 0.6544 0.2438
C13 C 0.4486(8) 0.8061(6) 0.4617(6)
H8 H 0.5560 0.8296 0.5006
H9 H 0.3838 0.8059 0.5264
C14 C 0.4555(6) 0.9234(6) 0.4358(5)
H10 H 0.3477 0.9080 0.4075
H11 H 0.5109 0.9181 0.3646
N1A N 0.7801(7) 1.5657(6) 0.8123(5)
N2A N 0.6186(5) 1.3430(5) 0.6604(5)
C9A C 0.8960(9) 1.4361(8) 0.6247(8)
H3A H 0.9888 1.5293 0.6700
H4A H 0.9229 1.3613 0.6214
H5A H 0.8602 1.4103 0.5352
C10A C 0.7666(7) 1.4475(7) 0.6977(6)
C11A C 0.6365(9) 1.5341(8) 0.8487(7)
H6A H 0.6133 1.5981 0.9250
C12A C 0.5356(8) 1.3962(7) 0.7563(6)
H7A H 0.4302 1.3456 0.7562
C13A C 0.5514(8) 1.1939(6) 0.5383(6)
H8A H 0.4440 1.1704 0.4994
H9A H 0.6162 1.1941 0.4736
C14A C 0.5445(6) 1.0766(6) 0.5642(5)
H10A H 0.6523 1.0920 0.5925
H11A H 0.4891 1.0819 0.6354
C15 C 0.693(2) 0.058(3) 0.0980(19)
H12 H 0.7221 0.1069 0.1938
H13 H 0.6153 -0.0423 0.0617
H14 H 0.6492 0.1084 0.0739
C16 C 0.839(2) 0.057(2) 0.0432(14)
H15 H 0.8617 -0.0220 0.0368
H16 H 0.8226 0.0419 -0.0456
O6 O 0.9638(11) 0.1892(9) 0.1268(10)
H17 H 1.011(17) 0.188(19) 0.186(13)
loop_
_geom_bond_atom_site_label_1
_geom_bond_atom_site_label_2
_geom_bond_site_symmetry_1
_geom_bond_site_symmetry_2
Cd1 O1 1_555 1_555
O1 C1 1_555 1_555
O2 C1 1_555 1_555
O3 Cd1 1_555 1_555
O4 C5 1_555 1_555
F1 C3 1_555 1_555
F2 C4 1_555 1_555
F3 C8 1_555 1_555
F4 C7 1_555 1_555
C1 C2 1_555 1_555
C2 C3 1_555 1_555
C3 C4A 1_555 1_555
C4 C2 1_555 1_555
C5 O3 1_555 1_555
C6 C5 1_555 1_555
C7 C6 1_555 1_555
C8 C6 1_555 1_555
O5 Cd1 1_555 1_555
H1 O5 1_555 1_555
H2 O5 1_555 1_555
N1 C10 1_555 1_555
N2 C10 1_555 1_555
C9 H3 1_555 1_555
H4 C9 1_555 1_555
H5 C9 1_555 1_555
C10 C9 1_555 1_555
C11 N1 1_555 1_555
H6 C11 1_555 1_555
C12 N2 1_555 1_555
H7 C12 1_555 1_555
C13 N2 1_555 1_555
H8 C13 1_555 1_555
H9 C13 1_555 1_555
C14 C13 1_555 1_555
H10 C14 1_555 1_555
H11 C14 1_555 1_555
C15 H12 1_555 1_555
H13 C15 1_555 1_555
H14 C15 1_555 1_555
C16 C15 1_555 1_555
H15 C16 1_555 1_555
H16 C16 1_555 1_555
O6 C16 1_555 1_555
H17 O6 1_555 1_555
O1A C1A 1_555 1_555
O2A C1A 1_555 1_555
F1A C3A 1_555 1_555
F2A C4A 1_555 1_555
C1A C2A 1_555 1_555
C2A C3A 1_555 1_555
C3A C4 1_555 1_555
C4A C2A 1_555 1_555
O3A C5A 1_555 1_555
O4A C5A 1_555 1_555
F3A C8A 1_555 1_555
F4A C7A 1_555 1_555
C5A C6A 1_555 1_555
C6A C7A 1_555 1_555
C7A C8 1_555 1_555
C8A C7 1_555 1_555
O5A Cd1 1_555 1_555
H1A O5A 1_555 1_555
H2A O5A 1_555 1_555
Cd1_2 O1A 1_555 1_555
Cd1_3 O3A 1_555 1_555
O1A_2 Cd1 1_555 1_555
O3A_2 Cd1 1_555 1_555
N1A C10A 1_555 1_555
N2A C10A 1_555 1_555
C9A H3A 1_555 1_555
H4A C9A 1_555 1_555
H5A C9A 1_555 1_555
C10A C9A 1_555 1_555
C11A N1A 1_555 1_555
H6A C11A 1_555 1_555
C12A N2A 1_555 1_555
H7A C12A 1_555 1_555
C13A N2A 1_555 1_555
H8A C13A 1_555 1_555
H9A C13A 1_555 1_555
C14A C14 1_555 1_555
H10A C14A 1_555 1_555
H11A C14A 1_555 1_555
C11 C12 1_555 1_555
C6A C8A 1_555 1_555
C11A C12A 1_555 1_555
C13A C14A 1_555 1_555

#END
