
#######################################################################
#
#                 Cambridge Crystallographic Data Centre
#                                CCDC 
#
#######################################################################
#
# If this CIF has been generated from an entry in the Cambridge 
# Structural Database, then it will include bibliographic, chemical, 
# crystal, experimental, refinement or atomic coordinate data resulting 
# from the CCDC's data processing and validation procedures.
#
#######################################################################

data_LUTKAO
_symmetry_cell_setting           monoclinic
_symmetry_space_group_name_H-M   'P 21/n'
_symmetry_Int_Tables_number      14
_space_group_name_Hall           '-P 2yn'
loop_
_symmetry_equiv_pos_site_id
_symmetry_equiv_pos_as_xyz
1 x,y,z
2 1/2-x,1/2+y,1/2-z
3 -x,-y,-z
4 1/2+x,1/2-y,1/2+z
_cell_length_a                   20.280(3)
_cell_length_b                   7.5025(12)
_cell_length_c                   20.478(3)
_cell_angle_alpha                90
_cell_angle_beta                 99.022(3)
_cell_angle_gamma                90
_cell_volume                     3077.19
loop_
_atom_site_label
_atom_site_type_symbol
_atom_site_fract_x
_atom_site_fract_y
_atom_site_fract_z
Cd1 Cd 0.21926(5) 0.47766(15) 0.23835(5)
Cd2 Cd 0.74759(5) 1.02980(15) 0.28295(5)
N1 N 0.1262(6) 0.5886(17) 0.1826(6)
N2 N 0.0491(7) 0.6898(18) 0.1055(7)
N3 N 0.8067(6) 0.9331(18) 0.3755(6)
N4 N 0.8867(7) 0.8314(18) 0.4511(7)
O1 O 0.3343(5) 0.4567(15) 0.2806(6)
O2 O 0.3024(5) 0.6982(14) 0.2266(5)
O3 O 0.7570(7) 0.6709(18) -0.1457(5)
O4 O 0.7017(7) 0.9264(17) -0.1642(6)
O5 O 0.7804(5) 0.8199(13) 0.1947(5)
O6 O 0.7132(5) 1.0463(15) 0.1728(5)
O7 O 0.6460(6) 0.9453(19) 0.3023(6)
O8 O 0.6606(6) 0.6937(17) 0.2469(7)
F1 F 0.5345(5) 0.8005(18) 0.1554(5)
F2 F 0.4080(4) 0.7017(16) 0.1470(5)
F3 F 0.4395(5) 0.6052(13) 0.3777(5)
F4 F 0.5663(4) 0.7006(14) 0.3855(5)
F5 F 0.8553(5) 0.8727(17) 0.0915(5)
F6 F 0.8485(5) 0.8221(18) -0.0372(5)
F7 F 0.6140(5) 0.8381(18) -0.0635(4)
F8 F 0.6205(4) 0.8936(15) 0.0652(4)
C1 C 0.1655(9) 0.674(2) 0.0773(8)
H1 H 0.1935 0.7724 0.0941
H2 H 0.1437 0.7012 0.0334
H3 H 0.1922 0.5690 0.0764
C2 C 0.1133(8) 0.643(2) 0.1218(7)
C3 C 0.0668(8) 0.598(2) 0.2082(8)
H4 H 0.0605 0.5679 0.2508
C4 C 0.0194(8) 0.660(2) 0.1589(9)
H5 H -0.0254 0.6786 0.1616
C5 C 0.0128(9) 0.735(2) 0.0404(9)
H6 H 0.0439 0.7844 0.0136
H7 H -0.0199 0.8266 0.0453
C6 C -0.0222(9) 0.578(3) 0.0051(10)
H8 H -0.0447 0.6167 -0.0378
H9 H -0.0561 0.5365 0.0300
C7 C 0.3466(7) 0.5912(19) 0.2579(7)
C8 C 0.4195(7) 0.650(2) 0.2623(8)
C9 C 0.4469(7) 0.7004(18) 0.2067(7)
C10 C 0.5125(8) 0.751(3) 0.2107(8)
C11 C 0.5551(6) 0.750(2) 0.2704(8)
C12 C 0.5279(6) 0.6990(17) 0.3255(7)
C13 C 0.4624(7) 0.648(2) 0.3211(7)
C14 C 0.6267(7) 0.803(2) 0.2729(7)
C15 C 0.9118(8) 0.830(3) 0.3346(9)
H10 H 0.8863 0.8444 0.2913
H11 H 0.9270 0.7085 0.3400
H12 H 0.9496 0.9082 0.3396
C16 C 0.8692(8) 0.872(2) 0.3857(8)
C17 C 0.7850(9) 0.929(2) 0.4348(8)
H13 H 0.7426 0.9624 0.4421
C18 C 0.8342(9) 0.869(3) 0.4815(9)
H14 H 0.8322 0.8554 0.5263
C19 C 0.9517(9) 0.774(2) 0.4853(10)
H15 H 0.9768 0.7214 0.4536
H16 H 0.9454 0.6836 0.5175
C20 C 0.9920(13) 0.928(3) 0.5204(14)
H17 H 0.9673 0.9755 0.5533
H18 H 1.0334 0.8794 0.5438
C21 C 0.7412(7) 0.922(2) 0.1546(6)
C22 C 0.7378(7) 0.8844(18) 0.0827(6)
C23 C 0.6788(7) 0.879(2) 0.0408(7)
C24 C 0.6739(7) 0.847(2) -0.0257(7)
C25 C 0.7306(8) 0.826(2) -0.0547(7)
C26 C 0.7905(8) 0.836(2) -0.0125(8)
C27 C 0.7955(8) 0.864(2) 0.0530(7)
C28 C 0.7277(8) 0.807(2) -0.1288(7)
N1B N -0.1262(6) 0.4114(17) -0.1826(6)
N2B N -0.0491(7) 0.3102(18) -0.1055(7)
C1B C -0.1655(9) 0.326(2) -0.0773(8)
H1B H -0.1935 0.2276 -0.0941
H2B H -0.1437 0.2988 -0.0334
H3B H -0.1922 0.4310 -0.0764
C2B C -0.1133(8) 0.357(2) -0.1218(7)
C3B C -0.0668(8) 0.402(2) -0.2082(8)
H4B H -0.0605 0.4321 -0.2508
C4B C -0.0194(8) 0.340(2) -0.1589(9)
H5B H 0.0254 0.3214 -0.1616
C5B C -0.0128(9) 0.265(2) -0.0404(9)
H6B H -0.0439 0.2156 -0.0136
H7B H 0.0199 0.1734 -0.0453
C6B C 0.0222(9) 0.422(3) -0.0051(10)
H8B H 0.0447 0.3833 0.0378
H9B H 0.0561 0.4635 -0.0300
N3B N 1.1933(6) 1.0669(18) 0.6245(6)
N4B N 1.1133(7) 1.1686(18) 0.5489(7)
C15B C 1.0882(8) 1.170(3) 0.6654(9)
H10B H 1.1137 1.1556 0.7087
H11B H 1.0730 1.2915 0.6600
H12B H 1.0504 1.0918 0.6604
C16B C 1.1308(8) 1.128(2) 0.6143(8)
C17B C 1.2150(9) 1.071(2) 0.5652(8)
H13B H 1.2574 1.0376 0.5579
C18B C 1.1658(9) 1.131(3) 0.5185(9)
H14B H 1.1678 1.1446 0.4737
C19B C 1.0483(9) 1.226(2) 0.5147(10)
H15B H 1.0232 1.2786 0.5464
H16B H 1.0546 1.3164 0.4825
C20B C 1.0080(13) 1.072(3) 0.4796(14)
H17B H 1.0327 1.0245 0.4467
H18B H 0.9666 1.1206 0.4562
Cd1B Cd -0.21926(5) 0.52234(15) -0.23835(5)
Cd2B Cd -0.74759(5) -0.02980(15) -0.28295(5)
O1B O -0.3343(5) 0.5433(15) -0.2806(6)
O2B O -0.3024(5) 0.3018(14) -0.2266(5)
O3B O -0.7570(7) 0.3291(18) 0.1457(5)
O4B O -0.7017(7) 0.0736(17) 0.1642(6)
O5B O -0.7804(5) 0.1801(13) -0.1947(5)
O6B O -0.7132(5) -0.0463(15) -0.1728(5)
O7B O -0.6460(6) 0.0547(19) -0.3023(6)
O8B O -0.6606(6) 0.3063(17) -0.2469(7)
F1B F -0.5345(5) 0.1995(18) -0.1554(5)
F2B F -0.4080(4) 0.2983(16) -0.1470(5)
F3B F -0.4395(5) 0.3948(13) -0.3777(5)
F4B F -0.5663(4) 0.2994(14) -0.3855(5)
F5B F -0.8553(5) 0.1273(17) -0.0915(5)
F6B F -0.8485(5) 0.1779(18) 0.0372(5)
F7B F -0.6140(5) 0.1619(18) 0.0635(4)
F8B F -0.6205(4) 0.1064(15) -0.0652(4)
C7B C -0.3466(7) 0.4088(19) -0.2579(7)
C8B C -0.4195(7) 0.350(2) -0.2623(8)
C9B C -0.4469(7) 0.2996(18) -0.2067(7)
C10B C -0.5125(8) 0.249(3) -0.2107(8)
C11B C -0.5551(6) 0.250(2) -0.2704(8)
C12B C -0.5279(6) 0.3010(17) -0.3255(7)
C13B C -0.4624(7) 0.352(2) -0.3211(7)
C14B C -0.6267(7) 0.197(2) -0.2729(7)
C21B C -0.7412(7) 0.078(2) -0.1546(6)
C22B C -0.7378(7) 0.1156(18) -0.0827(6)
C23B C -0.6788(7) 0.121(2) -0.0408(7)
C24B C -0.6739(7) 0.153(2) 0.0257(7)
C25B C -0.7306(8) 0.174(2) 0.0547(7)
C26B C -0.7905(8) 0.164(2) 0.0125(8)
C27B C -0.7955(8) 0.136(2) -0.0530(7)
C28B C -0.7277(8) 0.193(2) 0.1288(7)
Cd1_2 Cd -0.78074(5) 0.47766(15) 0.23835(5)
Cd1A Cd -0.71926(5) -0.02234(15) 0.26165(5)
Cd1A_2 Cd 0.28074(5) 0.97766(15) 0.26165(5)
Cd1B_2 Cd 0.78074(5) 0.52234(15) -0.23835(5)
Cd1C Cd -0.28074(5) 0.02234(15) -0.26165(5)
Cd1C_2 Cd 0.71926(5) 1.02234(15) -0.26165(5)
Cd2A Cd 0.75241(5) 0.52980(15) 0.21705(5)
Cd2B_2 Cd 1.25241(5) 0.97020(15) 0.71705(5)
Cd2C Cd -0.75241(5) 0.47020(15) -0.21705(5)
N3B_2 N -0.8067(6) 0.0669(18) -0.3755(6)
O2A O 0.1976(5) 0.1982(14) 0.2734(5)
O2C O -0.1976(5) 0.8018(14) -0.2734(5)
O3_2 O -0.2430(7) 0.6709(18) -0.1457(5)
O3B_2 O 0.2430(7) 0.3291(18) 0.1457(5)
O4A O -0.2017(7) 0.4264(17) -0.3358(6)
O4C O 0.2017(7) 0.5736(17) 0.3358(6)
O5A O 0.7196(5) 1.3199(13) 0.3053(5)
O5C O -0.7196(5) -0.3199(13) -0.3053(5)
O8A O 0.8394(6) 1.1937(17) 0.2531(7)
O8C O -0.8394(6) -0.1937(17) -0.2531(7)
loop_
_geom_bond_atom_site_label_1
_geom_bond_atom_site_label_2
_geom_bond_site_symmetry_1
_geom_bond_site_symmetry_2
Cd1 N1 1_555 1_555
Cd2 N3 1_555 1_555
N1 C2 1_555 1_555
N2 C2 1_555 1_555
N3 C16 1_555 1_555
N4 C16 1_555 1_555
O1 Cd1 1_555 1_555
O2 Cd1 1_555 1_555
O3 C28 1_555 1_555
O4 C28 1_555 1_555
O5 Cd2 1_555 1_555
O6 Cd2 1_555 1_555
O7 Cd2 1_555 1_555
O8 C14 1_555 1_555
F1 C10 1_555 1_555
F2 C9 1_555 1_555
F3 C13 1_555 1_555
F4 C12 1_555 1_555
F5 C27 1_555 1_555
F6 C26 1_555 1_555
F7 C24 1_555 1_555
F8 C23 1_555 1_555
C1 H1 1_555 1_555
H2 C1 1_555 1_555
H3 C1 1_555 1_555
C2 C1 1_555 1_555
C3 N1 1_555 1_555
H4 C3 1_555 1_555
C4 N2 1_555 1_555
H5 C4 1_555 1_555
C5 N2 1_555 1_555
H6 C5 1_555 1_555
H7 C5 1_555 1_555
C6 C5 1_555 1_555
H8 C6 1_555 1_555
H9 C6 1_555 1_555
C7 O1 1_555 1_555
C8 C7 1_555 1_555
C9 C8 1_555 1_555
C10 C9 1_555 1_555
C11 C10 1_555 1_555
C12 C11 1_555 1_555
C13 C8 1_555 1_555
C14 O7 1_555 1_555
C15 H10 1_555 1_555
H11 C15 1_555 1_555
H12 C15 1_555 1_555
C16 C15 1_555 1_555
C17 N3 1_555 1_555
H13 C17 1_555 1_555
C18 N4 1_555 1_555
H14 C18 1_555 1_555
C19 N4 1_555 1_555
H15 C19 1_555 1_555
H16 C19 1_555 1_555
C20 C19 1_555 1_555
H17 C20 1_555 1_555
H18 C20 1_555 1_555
C21 O5 1_555 1_555
C22 C21 1_555 1_555
C23 C22 1_555 1_555
C24 C23 1_555 1_555
C25 C24 1_555 1_555
C26 C25 1_555 1_555
C27 C22 1_555 1_555
C28 C25 1_555 1_555
N1B C2B 1_555 1_555
N2B C2B 1_555 1_555
C1B H1B 1_555 1_555
H2B C1B 1_555 1_555
H3B C1B 1_555 1_555
C2B C1B 1_555 1_555
C3B N1B 1_555 1_555
H4B C3B 1_555 1_555
C4B N2B 1_555 1_555
H5B C4B 1_555 1_555
C5B N2B 1_555 1_555
H6B C5B 1_555 1_555
H7B C5B 1_555 1_555
C6B C6 1_555 1_555
H8B C6B 1_555 1_555
H9B C6B 1_555 1_555
N3B C16B 1_555 1_555
N4B C16B 1_555 1_555
C15B H10B 1_555 1_555
H11B C15B 1_555 1_555
H12B C15B 1_555 1_555
C16B C15B 1_555 1_555
C17B N3B 1_555 1_555
H13B C17B 1_555 1_555
C18B N4B 1_555 1_555
H14B C18B 1_555 1_555
C19B N4B 1_555 1_555
H15B C19B 1_555 1_555
H16B C19B 1_555 1_555
C20B C20 1_555 1_555
H17B C20B 1_555 1_555
H18B C20B 1_555 1_555
Cd1B N1B 1_555 1_555
Cd2B O5B 1_555 1_555
O1B Cd1B 1_555 1_555
O2B Cd1B 1_555 1_555
O3B C28B 1_555 1_555
O4B C28B 1_555 1_555
O5B C21B 1_555 1_555
O6B Cd2B 1_555 1_555
O7B Cd2B 1_555 1_555
O8B C14B 1_555 1_555
F1B C10B 1_555 1_555
F2B C9B 1_555 1_555
F3B C13B 1_555 1_555
F4B C12B 1_555 1_555
F5B C27B 1_555 1_555
F6B C26B 1_555 1_555
F7B C24B 1_555 1_555
F8B C23B 1_555 1_555
C7B O1B 1_555 1_555
C8B C7B 1_555 1_555
C9B C8B 1_555 1_555
C10B C9B 1_555 1_555
C11B C10B 1_555 1_555
C12B C11B 1_555 1_555
C13B C8B 1_555 1_555
C14B O7B 1_555 1_555
C21B O6B 1_555 1_555
C22B C21B 1_555 1_555
C23B C22B 1_555 1_555
C24B C23B 1_555 1_555
C25B C24B 1_555 1_555
C26B C25B 1_555 1_555
C27B C22B 1_555 1_555
C28B C25B 1_555 1_555
Cd1_2 O3B 1_555 1_555
Cd1A O4B 1_555 1_555
Cd1A_2 O2 1_555 1_555
Cd1B_2 O3 1_555 1_555
Cd1C O2B 1_555 1_555
Cd1C_2 O4 1_555 1_555
Cd2A O5 1_555 1_555
Cd2B_2 N3B 1_555 1_555
Cd2C O5B 1_555 1_555
N3B_2 Cd2B 1_555 1_555
O2A Cd1 1_555 1_555
O2C Cd1B 1_555 1_555
O3_2 Cd1B 1_555 1_555
O3B_2 Cd1 1_555 1_555
O4A Cd1B 1_555 1_555
O4C Cd1 1_555 1_555
O5A Cd2 1_555 1_555
O5C Cd2B 1_555 1_555
O8A Cd2 1_555 1_555
O8C Cd2B 1_555 1_555
O2 C7 1_555 1_555
O6 C21 1_555 1_555
O8 Cd2A 1_555 1_555
C3 C4 1_555 1_555
C11 C14 1_555 1_555
C12 C13 1_555 1_555
C17 C18 1_555 1_555
C26 C27 1_555 1_555
C3B C4B 1_555 1_555
C5B C6B 1_555 1_555
C17B C18B 1_555 1_555
C19B C20B 1_555 1_555
O2B C7B 1_555 1_555
O8B Cd2C 1_555 1_555
C11B C14B 1_555 1_555
C12B C13B 1_555 1_555
C26B C27B 1_555 1_555

#END
