
#######################################################################
#
#                 Cambridge Crystallographic Data Centre
#                                CCDC 
#
#######################################################################
#
# If this CIF has been generated from an entry in the Cambridge 
# Structural Database, then it will include bibliographic, chemical, 
# crystal, experimental, refinement or atomic coordinate data resulting 
# from the CCDC's data processing and validation procedures.
#
#######################################################################

data_LUTMIW
_symmetry_cell_setting           triclinic
_symmetry_space_group_name_H-M   'P -1'
_symmetry_Int_Tables_number      2
_space_group_name_Hall           '-P 1'
loop_
_symmetry_equiv_pos_site_id
_symmetry_equiv_pos_as_xyz
1 x,y,z
2 -x,-y,-z
_cell_length_a                   11.4299(4)
_cell_length_b                   15.5450(5)
_cell_length_c                   17.8274(6)
_cell_angle_alpha                103.614(5)
_cell_angle_beta                 101.712(5)
_cell_angle_gamma                110.022(5)
_cell_volume                     2749.46
loop_
_atom_site_label
_atom_site_type_symbol
_atom_site_fract_x
_atom_site_fract_y
_atom_site_fract_z
Ag1 Ag 0.17744(6) 0.15429(5) 0.81008(4)
C1 C -0.0009(6) 0.1196(5) 0.5558(4)
C2 C -0.0383(6) 0.0960(5) 0.6232(4)
C3 C -0.0602(6) 0.0070(5) 0.6308(4)
C4 C -0.0464(6) -0.0682(5) 0.5715(4)
C5 C -0.0688(7) -0.1597(5) 0.5786(4)
C6 C -0.0583(7) -0.2321(5) 0.5204(4)
C7 C 0.0250(6) 0.2112(5) 0.5465(4)
C8 C 0.0112(6) 0.0470(5) 0.4957(4)
N1 N -0.0542(5) 0.1670(4) 0.6829(3)
N2 N 0.0237(6) 0.2031(4) 0.7620(4)
C9 C -0.0187(8) 0.2656(6) 0.7993(5)
C10 C -0.1212(7) 0.2704(5) 0.7460(5)
C11 C -0.1410(7) 0.2069(5) 0.6724(5)
N3 N -0.1007(5) -0.0159(4) 0.6972(3)
N4 N -0.0109(6) -0.0109(5) 0.7635(4)
C12 C -0.0813(8) -0.0377(6) 0.8115(5)
C13 C -0.2119(8) -0.0593(6) 0.7780(5)
C14 C -0.2217(7) -0.0448(6) 0.7040(5)
C15 C -0.0814(8) -0.3334(5) 0.5278(4)
C16 C 0.0453(9) -0.3491(6) 0.5290(6)
C17 C -0.193(1) -0.4117(6) 0.4532(6)
C18 C -0.115(1) -0.3423(6) 0.6044(6)
C19 C 0.5622(7) 0.4670(5) 0.8379(4)
C20 C 0.5230(6) 0.4406(5) 0.9014(4)
C21 C 0.4851(6) 0.3434(5) 0.9048(4)
C22 C 0.4485(7) 0.3205(5) 0.9681(4)
C23 C 0.4417(7) 0.3911(5) 1.0340(4)
C24 C 0.5201(6) 0.5123(5) 0.9672(4)
C25 C 0.4005(7) 0.3676(5) 1.0977(4)
C26 C 0.6032(7) 0.5630(5) 0.8379(4)
N5 N 0.4867(6) 0.2709(4) 0.8387(3)
N6 N 0.3730(6) 0.2101(5) 0.7771(4)
C27 C 0.4118(9) 0.1645(6) 0.7205(5)
C28 C 0.5468(9) 0.1951(7) 0.7435(6)
C29 C 0.5924(8) 0.2626(6) 0.8193(5)
N7 N 0.4153(6) 0.2228(4) 0.9705(3)
N8 N 0.2917(6) 0.1523(4) 0.9311(4)
C30 C 0.292(1) 0.0776(6) 0.9540(6)
C31 C 0.412(1) 0.0987(6) 1.0076(6)
C32 C 0.4883(9) 0.1919(6) 1.0175(6)
C33 C 0.6510(7) 0.5875(5) 0.7679(4)
C34 C 0.6877(9) 0.6950(6) 0.7751(5)
C35 C 0.7723(8) 0.5652(6) 0.7701(5)
C36 C 0.5439(9) 0.5241(6) 0.6862(5)
H1 H -0.0917 -0.1730 0.6242
H2 H 0.0197 0.2604 0.5871
H3 H 0.0168 0.3024 0.8556
H4 H -0.1677 0.3094 0.7581
H5 H -0.2046 0.1933 0.6227
H6 H -0.0456 -0.0416 0.8630
H7 H -0.2804 -0.0798 0.8009
H8 H -0.2991 -0.0536 0.6654
H9 H 0.0332 -0.4111 0.5335
H10 H 0.0647 -0.3458 0.4801
H11 H 0.1157 -0.3002 0.5740
H12 H -0.2070 -0.4739 0.4576
H13 H -0.2706 -0.4014 0.4504
H14 H -0.1694 -0.4081 0.4055
H15 H -0.1285 -0.4052 0.6068
H16 H -0.0451 -0.2949 0.6505
H17 H -0.1927 -0.3323 0.6038
H18 H 0.5609 0.4186 0.7934
H19 H 0.3742 0.3025 1.0974
H20 H 0.3538 0.1167 0.6702
H21 H 0.5969 0.1737 0.7132
H22 H 0.6813 0.2973 0.8522
H23 H 0.2189 0.0168 0.9359
H24 H 0.4355 0.0567 1.0324
H25 H 0.5766 0.2283 1.0512
H26 H 0.7166 0.7065 0.7306
H27 H 0.6132 0.7093 0.7746
H28 H 0.7559 0.7352 0.8245
H29 H 0.8044 0.5796 0.7274
H30 H 0.8383 0.6037 0.8207
H31 H 0.7492 0.4984 0.7635
H32 H 0.5743 0.5397 0.6433
H33 H 0.5237 0.4576 0.6793
H34 H 0.4674 0.5359 0.6856
C6A C 0.0583(7) 0.2321(5) 0.4796(4)
C5A C 0.0688(7) 0.1597(5) 0.4214(4)
C4A C 0.0464(6) 0.0682(5) 0.4285(4)
C3A C 0.0602(6) -0.0070(5) 0.3692(4)
C2A C 0.0383(6) -0.0960(5) 0.3768(4)
C1A C 0.0009(6) -0.1196(5) 0.4442(4)
C7A C -0.0250(6) -0.2112(5) 0.4535(4)
C25A C 0.5995(7) 0.6324(5) 0.9023(4)
C23A C 0.5583(7) 0.6089(5) 0.9660(4)
C22A C 0.5515(7) 0.6795(5) 1.0319(4)
C21A C 0.5149(6) 0.6566(5) 1.0952(4)
C20A C 0.4770(6) 0.5594(5) 1.0986(4)
C19A C 0.4378(7) 0.5330(5) 1.1621(4)
C26A C 0.3968(7) 0.4370(5) 1.1621(4)
C24A C 0.4799(6) 0.4877(5) 1.0328(4)
C33A C 0.3490(7) 0.4125(5) 1.2321(4)
C34A C 0.3123(9) 0.3050(6) 1.2249(5)
H26A H 0.2834 0.2935 1.2694
H27A H 0.3868 0.2907 1.2254
H28A H 0.2441 0.2648 1.1755
C35A C 0.2277(8) 0.4348(6) 1.2299(5)
H29A H 0.1956 0.4204 1.2726
H30A H 0.1617 0.3963 1.1793
H31A H 0.2508 0.5016 1.2365
C36A C 0.4561(9) 0.4759(6) 1.3138(5)
H32A H 0.4257 0.4603 1.3567
H33A H 0.4763 0.5424 1.3207
H34A H 0.5326 0.4641 1.3144
H18A H 0.4391 0.5814 1.2066
N5A N 0.5133(6) 0.7291(4) 1.1613(3)
N6A N 0.6270(6) 0.7899(5) 1.2229(4)
Ag1A Ag 0.82256(6) 0.84571(5) 1.18992(4)
N2A N 0.9763(6) 0.7969(4) 1.2380(4)
N4A N 1.0109(6) 1.0109(5) 1.2365(4)
N8A N 0.7083(6) 0.8477(4) 1.0689(4)
N7A N 0.5847(6) 0.7772(4) 1.0295(3)
C32A C 0.5117(9) 0.8081(6) 0.9825(6)
C31A C 0.588(1) 0.9013(6) 0.9924(6)
C30A C 0.708(1) 0.9224(6) 1.0460(6)
H23A H 0.7811 0.9832 1.0641
H24A H 0.5645 0.9433 0.9676
H25A H 0.4234 0.7717 0.9488
C27A C 0.5882(9) 0.8355(6) 1.2795(5)
C28A C 0.4532(9) 0.8049(7) 1.2565(6)
C29A C 0.4076(8) 0.7374(6) 1.1807(5)
H22A H 0.3187 0.7027 1.1478
H21A H 0.4031 0.8263 1.2868
H20A H 0.6462 0.8833 1.3298
H19A H 0.6258 0.6975 0.9026
C8A C -0.0112(6) -0.0470(5) 0.5043(4)
H2A H -0.0197 -0.2604 0.4129
N1A N 0.0542(5) -0.1670(4) 0.3171(3)
N3A N 0.1007(5) 0.0159(4) 0.3028(3)
H1A H 0.0917 0.1730 0.3758
C15A C 0.0814(8) 0.3334(5) 0.4722(4)
C16A C -0.0453(9) 0.3491(6) 0.4710(6)
H9A H -0.0332 0.4111 0.4665
H10A H -0.0647 0.3458 0.5199
H11A H -0.1157 0.3002 0.4260
C17A C 0.193(1) 0.4117(6) 0.5468(6)
H12A H 0.2070 0.4739 0.5424
H13A H 0.2706 0.4014 0.5496
H14A H 0.1694 0.4081 0.5945
C18A C 0.115(1) 0.3423(6) 0.3956(6)
H15A H 0.1285 0.4052 0.3932
H16A H 0.0451 0.2949 0.3495
H17A H 0.1927 0.3323 0.3962
N2A_2 N -0.0237(6) -0.2031(4) 0.2380(4)
C11A C 0.1410(7) -0.2069(5) 0.3276(5)
N4A_2 N 0.0109(6) 0.0109(5) 0.2365(4)
C14A C 0.2217(7) 0.0448(6) 0.2960(5)
Ag1A_2 Ag -0.17744(6) -0.15429(5) 0.18992(4)
C9A C 0.0187(8) -0.2656(6) 0.2007(5)
C10A C 0.1212(7) -0.2704(5) 0.2540(5)
H5A H 0.2046 -0.1933 0.3773
C12A C 0.0813(8) 0.0377(6) 0.1885(5)
C13A C 0.2119(8) 0.0593(6) 0.2220(5)
H8A H 0.2991 0.0536 0.3346
H3A H -0.0168 -0.3024 0.1444
H4A H 0.1677 -0.3094 0.2419
H6A H 0.0456 0.0416 0.1370
H7A H 0.2804 0.0798 0.1991
P1 P 0.0000 0.5000 1.0000
F1 F 0.0777(9) 0.4344(5) 0.9928(5)
F2 F 0.115(1) 0.5811(7) 0.9910(9)
F3 F -0.067(1) 0.4586(9) 0.9085(5)
F1A F -0.0777(9) 0.5656(5) 1.0072(5)
F2A F -0.115(1) 0.4189(7) 1.0090(9)
F3A F 0.067(1) 0.5414(9) 1.0915(5)
P2 P 0.5000 0.0000 0.5000
F4 F 0.579(1) 0.1034(6) 0.5325(8)
F5 F 0.548(1) -0.011(1) 0.5818(6)
F6 F 0.378(1) 0.013(1) 0.506(1)
F4A F 0.421(1) -0.1034(6) 0.4675(8)
F5A F 0.452(1) 0.011(1) 0.4182(6)
F6A F 0.622(1) -0.013(1) 0.494(1)
C37 C 0.161(1) 0.539(1) 0.7887(8)
Cl1 Cl 0.2382(3) 0.4587(3) 0.7868(2)
Cl2 Cl 0.2734(6) 0.6482(4) 0.7766(4)
Cl3 Cl 0.0218(3) 0.4909(3) 0.7044(2)
H35 H 0.1381 0.5502 0.8374
C38 C -0.080(1) 0.2185(7) 1.0202(7)
Cl4 Cl -0.1063(4) 0.2010(3) 1.1096(2)
Cl5 Cl 0.0428(3) 0.1844(3) 0.9985(2)
Cl6 Cl -0.2247(3) 0.1559(3) 0.9386(3)
H36 H -0.0512 0.2860 1.0283
C39 C 0.390(1) 0.9296(9) 0.715(1)
Cl7 Cl 0.4134(5) 0.8260(3) 0.6912(4)
Cl8 Cl 0.2274(4) 0.9151(3) 0.7106(5)
Cl9 Cl 0.4757(6) 0.9942(4) 0.8218(3)
H37 H 0.4170 0.9594 0.6770
C40 C 0.539(1) 0.2781(7) 0.5059(7)
Cl10 Cl 0.5242(7) 0.3425(3) 0.4415(3)
Cl11 Cl 0.4011(3) 0.2530(3) 0.5411(4)
Cl12 Cl 0.6812(3) 0.3446(2) 0.5871(2)
H38 H 0.5430 0.2195 0.4782
loop_
_geom_bond_atom_site_label_1
_geom_bond_atom_site_label_2
_geom_bond_site_symmetry_1
_geom_bond_site_symmetry_2
Ag1 N2 1_555 1_555
C1 C2 1_555 1_555
C2 C3 1_555 1_555
C3 C4 1_555 1_555
C4 C5 1_555 1_555
C5 C6 1_555 1_555
C6 C15 1_555 1_555
C7 C1 1_555 1_555
C8 C1 1_555 1_555
N1 C2 1_555 1_555
N2 N1 1_555 1_555
C9 N2 1_555 1_555
C10 C9 1_555 1_555
C11 N1 1_555 1_555
N3 C3 1_555 1_555
N4 Ag1 1_555 1_555
C12 N4 1_555 1_555
C13 C12 1_555 1_555
C14 N3 1_555 1_555
C15 C16 1_555 1_555
C16 H9 1_555 1_555
C17 C15 1_555 1_555
C18 C15 1_555 1_555
C19 C20 1_555 1_555
C20 C21 1_555 1_555
C21 C22 1_555 1_555
C22 C23 1_555 1_555
C23 C25 1_555 1_555
C24 C20 1_555 1_555
C25 H19 1_555 1_555
C26 C19 1_555 1_555
N5 C21 1_555 1_555
N6 Ag1 1_555 1_555
C27 N6 1_555 1_555
C28 C27 1_555 1_555
C29 N5 1_555 1_555
N7 C22 1_555 1_555
N8 Ag1 1_555 1_555
C30 N8 1_555 1_555
C31 C30 1_555 1_555
C32 N7 1_555 1_555
C33 C26 1_555 1_555
C34 C33 1_555 1_555
C35 C33 1_555 1_555
C36 C33 1_555 1_555
P1 F1 1_555 1_555
F2 P1 1_555 1_555
F3 P1 1_555 1_555
P2 F4 1_555 1_555
F5 P2 1_555 1_555
F6 P2 1_555 1_555
C37 Cl1 1_555 1_555
Cl2 C37 1_555 1_555
Cl3 C37 1_555 1_555
C38 Cl4 1_555 1_555
Cl5 C38 1_555 1_555
Cl6 C38 1_555 1_555
C39 Cl7 1_555 1_555
Cl8 C39 1_555 1_555
Cl9 C39 1_555 1_555
C40 Cl10 1_555 1_555
Cl11 C40 1_555 1_555
Cl12 C40 1_555 1_555
H1 C5 1_555 1_555
H2 C7 1_555 1_555
H3 C9 1_555 1_555
H4 C10 1_555 1_555
H5 C11 1_555 1_555
H6 C12 1_555 1_555
H7 C13 1_555 1_555
H8 C14 1_555 1_555
H10 C16 1_555 1_555
H11 C16 1_555 1_555
H12 C17 1_555 1_555
H13 C17 1_555 1_555
H14 C17 1_555 1_555
H15 C18 1_555 1_555
H16 C18 1_555 1_555
H17 C18 1_555 1_555
H18 C19 1_555 1_555
H20 C27 1_555 1_555
H21 C28 1_555 1_555
H22 C29 1_555 1_555
H23 C30 1_555 1_555
H24 C31 1_555 1_555
H25 C32 1_555 1_555
H26 C34 1_555 1_555
H27 C34 1_555 1_555
H28 C34 1_555 1_555
H29 C35 1_555 1_555
H30 C35 1_555 1_555
H31 C35 1_555 1_555
H32 C36 1_555 1_555
H33 C36 1_555 1_555
H34 C36 1_555 1_555
H35 C37 1_555 1_555
H36 C38 1_555 1_555
H37 C39 1_555 1_555
H38 C40 1_555 1_555
C6A C7 1_555 1_555
C5A C6A 1_555 1_555
C4A C8 1_555 1_555
C3A C4A 1_555 1_555
C2A C3A 1_555 1_555
C1A C2A 1_555 1_555
C7A C6 1_555 1_555
C25A C26 1_555 1_555
C23A C24 1_555 1_555
C22A C23A 1_555 1_555
C21A C22A 1_555 1_555
C20A C21A 1_555 1_555
C19A C20A 1_555 1_555
C26A C25 1_555 1_555
C24A C23 1_555 1_555
C33A C26A 1_555 1_555
C34A C33A 1_555 1_555
H26A C34A 1_555 1_555
H27A C34A 1_555 1_555
H28A C34A 1_555 1_555
C35A C33A 1_555 1_555
H29A C35A 1_555 1_555
H30A C35A 1_555 1_555
H31A C35A 1_555 1_555
C36A C33A 1_555 1_555
H32A C36A 1_555 1_555
H33A C36A 1_555 1_555
H34A C36A 1_555 1_555
H18A C19A 1_555 1_555
N5A C21A 1_555 1_555
N6A N5A 1_555 1_555
Ag1A N6A 1_555 1_555
N2A Ag1A 1_555 1_555
N4A Ag1A 1_555 1_555
N8A Ag1A 1_555 1_555
N7A C22A 1_555 1_555
C32A N7A 1_555 1_555
C31A C32A 1_555 1_555
C30A N8A 1_555 1_555
H23A C30A 1_555 1_555
H24A C31A 1_555 1_555
H25A C32A 1_555 1_555
C27A N6A 1_555 1_555
C28A C27A 1_555 1_555
C29A N5A 1_555 1_555
H22A C29A 1_555 1_555
H21A C28A 1_555 1_555
H20A C27A 1_555 1_555
H19A C25A 1_555 1_555
C8A C4 1_555 1_555
H2A C7A 1_555 1_555
N1A C2A 1_555 1_555
N3A C3A 1_555 1_555
H1A C5A 1_555 1_555
C15A C6A 1_555 1_555
C16A C15A 1_555 1_555
H9A C16A 1_555 1_555
H10A C16A 1_555 1_555
H11A C16A 1_555 1_555
C17A C15A 1_555 1_555
H12A C17A 1_555 1_555
H13A C17A 1_555 1_555
H14A C17A 1_555 1_555
C18A C15A 1_555 1_555
H15A C18A 1_555 1_555
H16A C18A 1_555 1_555
H17A C18A 1_555 1_555
F1A P1 1_555 1_555
F2A P1 1_555 1_555
F3A P1 1_555 1_555
F4A P2 1_555 1_555
F5A P2 1_555 1_555
F6A P2 1_555 1_555
N2A_2 N1A 1_555 1_555
C11A N1A 1_555 1_555
N4A_2 N3A 1_555 1_555
C14A N3A 1_555 1_555
Ag1A_2 N2A_2 1_555 1_555
C9A N2A_2 1_555 1_555
C10A C11A 1_555 1_555
H5A C11A 1_555 1_555
C12A N4A_2 1_555 1_555
C13A C14A 1_555 1_555
H8A C14A 1_555 1_555
H3A C9A 1_555 1_555
H4A C10A 1_555 1_555
H6A C12A 1_555 1_555
H7A C13A 1_555 1_555
C8 C8A 1_555 1_555
C10 C11 1_555 1_555
N3 N4 1_555 1_555
C13 C14 1_555 1_555
C24 C24A 1_555 1_555
N5 N6 1_555 1_555
C28 C29 1_555 1_555
N7 N8 1_555 1_555
C31 C32 1_555 1_555
C5A C4A 1_555 1_555
C1A C7A 1_555 1_555
C1A C8A 1_555 1_555
C25A C23A 1_555 1_555
C20A C24A 1_555 1_555
C19A C26A 1_555 1_555
N8A N7A 1_555 1_555
C31A C30A 1_555 1_555
C28A C29A 1_555 1_555
N4A_2 Ag1A_2 1_555 1_555
C9A C10A 1_555 1_555
C12A C13A 1_555 1_555

#END
