
#######################################################################
#
#                 Cambridge Crystallographic Data Centre
#                                CCDC 
#
#######################################################################
#
# If this CIF has been generated from an entry in the Cambridge 
# Structural Database, then it will include bibliographic, chemical, 
# crystal, experimental, refinement or atomic coordinate data resulting 
# from the CCDC's data processing and validation procedures.
#
#######################################################################

data_LUTMUI
_symmetry_cell_setting           monoclinic
_symmetry_space_group_name_H-M   'C 2/c'
_symmetry_Int_Tables_number      15
_space_group_name_Hall           '-C 2yn'
loop_
_symmetry_equiv_pos_site_id
_symmetry_equiv_pos_as_xyz
1 x,y,z
2 1/2+x,1/2+y,z
3 x,-y,1/2+z
4 1/2+x,1/2-y,1/2+z
5 -x,-y,-z
6 1/2-x,1/2-y,-z
7 -x,y,1/2-z
8 1/2-x,1/2+y,1/2-z
_cell_length_a                   20.040(5)
_cell_length_b                   7.119(2)
_cell_length_c                   24.717(7)
_cell_angle_alpha                90
_cell_angle_beta                 107.652(5)
_cell_angle_gamma                90
_cell_volume                     3360.21
loop_
_atom_site_label
_atom_site_type_symbol
_atom_site_fract_x
_atom_site_fract_y
_atom_site_fract_z
Co1 Co 0.2500 0.7500 0.5000
N1 N 0.1230(3) 0.6765(7) 0.25483(16)
N2 N 0.1327(4) 0.9424(7) 0.2206(2)
N3 N 0.20069(16) 0.9094(5) 0.42491(13)
O1 O 0.1155(3) 0.5505(6) 0.29029(18)
O2 O 0.1543(4) 1.1071(9) 0.2152(2)
O3 O 0.15871(13) 0.7876(4) 0.52490(11)
O4 O 0.17166(13) 0.5391(4) 0.47609(11)
C1 C 0.1102(3) 0.6344(8) 0.1934(2)
C2 C 0.1029(4) 0.8291(9) 0.1685(2)
C3 C 0.1344(3) 0.8561(7) 0.26794(18)
C4 C 0.1523(2) 0.9385(6) 0.32422(17)
C5 C 0.1377(3) 1.1272(7) 0.32968(19)
H1 H 0.1166 1.2009 0.2980
C6 C 0.1557(3) 1.2017(7) 0.3842(2)
H2 H 0.1470 1.3277 0.3894
C7 C 0.1859(2) 1.0916(7) 0.42959(19)
H3 H 0.1970 1.1444 0.4656
C8 C 0.18377(19) 0.8356(6) 0.37269(15)
H4 H 0.1936 0.7096 0.3688
C9 C 0.1757(5) 0.5294(12) 0.1901(4)
H5 H 0.2154 0.6121 0.2013
H6 H 0.1688 0.4877 0.1518
H7 H 0.1840 0.4228 0.2150
C10 C 0.0472(5) 0.5022(11) 0.1736(3)
H8 H 0.0057 0.5670 0.1749
H9 H 0.0547 0.3946 0.1981
H10 H 0.0418 0.4622 0.1354
C11 C 0.0293(5) 0.8901(12) 0.1394(3)
H11 H 0.0006 0.8629 0.1632
H12 H 0.0116 0.8239 0.1041
H13 H 0.0286 1.0227 0.1322
C12 C 0.1457(6) 0.8770(14) 0.1299(4)
H14 H 0.1362 1.0043 0.1170
H15 H 0.1336 0.7937 0.0979
H16 H 0.1945 0.8638 0.1502
C13 C 0.13566(18) 0.6333(6) 0.50075(15)
C14 C 0.06543(18) 0.5632(6) 0.50057(15)
C15 C 0.02131(19) 0.6793(6) 0.51814(16)
H17 H 0.0354 0.8007 0.5303
C16 C 0.04455(19) 0.3850(6) 0.48223(16)
H18 H 0.0743 0.3068 0.4700
N3E N 0.29931(16) 0.5906(5) 0.57509(13)
O3E O 0.34129(13) 0.7124(4) 0.47510(11)
O4E O 0.32834(13) 0.9609(4) 0.52391(11)
C16D C -0.04455(19) 0.6150(6) 0.51777(16)
C15D C -0.02131(19) 0.3207(6) 0.48186(16)
C7E C 0.3141(2) 0.4084(7) 0.57041(19)
C8E C 0.31623(19) 0.6644(6) 0.62731(15)
C14D C -0.06543(18) 0.4368(6) 0.49943(15)
H18D H -0.0743 0.6932 0.5300
H17D H -0.0354 0.1993 0.4697
C6E C 0.3443(3) 0.2983(7) 0.6158(2)
H3E H 0.3030 0.3556 0.5344
C4E C 0.3477(2) 0.5615(6) 0.67578(17)
H4E H 0.3064 0.7904 0.6312
C13D C -0.13566(18) 0.3667(6) 0.49925(15)
C5E C 0.3623(3) 0.3728(7) 0.67032(19)
H2E H 0.3530 0.1723 0.6106
C3E C 0.3656(3) 0.6439(7) 0.73206(18)
O3D O -0.15871(13) 0.2124(4) 0.47510(11)
O4D O -0.17166(13) 0.4609(4) 0.52391(11)
H1E H 0.3834 0.2991 0.7020
N1E N 0.3770(3) 0.8235(7) 0.74517(16)
N2E N 0.3673(4) 0.5576(7) 0.7794(2)
Co1A Co -0.2500 0.2500 0.5000
O1E O 0.3845(3) 0.9495(6) 0.70971(18)
C1E C 0.3898(3) 0.8656(8) 0.8066(2)
O2E O 0.3457(4) 0.3929(9) 0.7848(2)
C2E C 0.3971(4) 0.6709(9) 0.8315(2)
C9E C 0.3243(5) 0.9706(12) 0.8099(4)
C10E C 0.4528(5) 0.9978(11) 0.8264(3)
C11E C 0.4707(5) 0.6099(12) 0.8606(3)
C12E C 0.3543(6) 0.6230(14) 0.8701(4)
H5E H 0.2846 0.8879 0.7987
H6E H 0.3312 1.0123 0.8482
H7E H 0.3160 1.0772 0.7850
H8E H 0.4943 0.9330 0.8251
H9E H 0.4453 1.1054 0.8019
H10E H 0.4582 1.0378 0.8646
H11E H 0.4994 0.6371 0.8368
H12E H 0.4884 0.6761 0.8959
H13E H 0.4714 0.4773 0.8678
H14E H 0.3638 0.4957 0.8830
H15E H 0.3664 0.7063 0.9021
H16E H 0.3055 0.6362 0.8498
loop_
_geom_bond_atom_site_label_1
_geom_bond_atom_site_label_2
_geom_bond_site_symmetry_1
_geom_bond_site_symmetry_2
Co1 N3 1_555 1_555
N1 O1 1_555 1_555
N2 O2 1_555 1_555
N3 C7 1_555 1_555
O3 Co1 1_555 1_555
O4 Co1 1_555 1_555
C1 N1 1_555 1_555
C2 N2 1_555 1_555
C3 N1 1_555 1_555
C4 C3 1_555 1_555
C5 C4 1_555 1_555
H1 C5 1_555 1_555
C6 C5 1_555 1_555
H2 C6 1_555 1_555
C7 C6 1_555 1_555
H3 C7 1_555 1_555
C8 N3 1_555 1_555
H4 C8 1_555 1_555
C9 C1 1_555 1_555
H5 C9 1_555 1_555
H6 C9 1_555 1_555
H7 C9 1_555 1_555
C10 C1 1_555 1_555
H8 C10 1_555 1_555
H9 C10 1_555 1_555
H10 C10 1_555 1_555
C11 C2 1_555 1_555
H11 C11 1_555 1_555
H12 C11 1_555 1_555
H13 C11 1_555 1_555
C12 C2 1_555 1_555
H14 C12 1_555 1_555
H15 C12 1_555 1_555
H16 C12 1_555 1_555
C13 O3 1_555 1_555
C14 C13 1_555 1_555
C15 C14 1_555 1_555
H17 C15 1_555 1_555
C16 C14 1_555 1_555
H18 C16 1_555 1_555
N3E Co1 1_555 1_555
O3E Co1 1_555 1_555
O4E Co1 1_555 1_555
C16D C15 1_555 1_555
C15D C16 1_555 1_555
C7E N3E 1_555 1_555
C8E N3E 1_555 1_555
C14D C16D 1_555 1_555
H18D C16D 1_555 1_555
H17D C15D 1_555 1_555
C6E C7E 1_555 1_555
H3E C7E 1_555 1_555
C4E C8E 1_555 1_555
H4E C8E 1_555 1_555
C13D C14D 1_555 1_555
C5E C6E 1_555 1_555
H2E C6E 1_555 1_555
C3E C4E 1_555 1_555
O3D C13D 1_555 1_555
O4D C13D 1_555 1_555
H1E C5E 1_555 1_555
N1E C3E 1_555 1_555
N2E C3E 1_555 1_555
Co1A O3D 1_555 1_555
O1E N1E 1_555 1_555
C1E N1E 1_555 1_555
O2E N2E 1_555 1_555
C2E N2E 1_555 1_555
C9E C1E 1_555 1_555
C10E C1E 1_555 1_555
C11E C2E 1_555 1_555
C12E C2E 1_555 1_555
H5E C9E 1_555 1_555
H6E C9E 1_555 1_555
H7E C9E 1_555 1_555
H8E C10E 1_555 1_555
H9E C10E 1_555 1_555
H10E C10E 1_555 1_555
H11E C11E 1_555 1_555
H12E C11E 1_555 1_555
H13E C11E 1_555 1_555
H14E C12E 1_555 1_555
H15E C12E 1_555 1_555
H16E C12E 1_555 1_555
N2 C3 1_555 1_555
O4 C13 1_555 1_555
C1 C2 1_555 1_555
C4 C8 1_555 1_555
C15D C14D 1_555 1_555
C4E C5E 1_555 1_555
O4D Co1A 1_555 1_555
C1E C2E 1_555 1_555

#END
