
#######################################################################
#
#                 Cambridge Crystallographic Data Centre
#                                CCDC 
#
#######################################################################
#
# If this CIF has been generated from an entry in the Cambridge 
# Structural Database, then it will include bibliographic, chemical, 
# crystal, experimental, refinement or atomic coordinate data resulting 
# from the CCDC's data processing and validation procedures.
#
#######################################################################

data_LUTPEW
_symmetry_cell_setting           monoclinic
_symmetry_space_group_name_H-M   'C 2/c'
_symmetry_Int_Tables_number      15
_space_group_name_Hall           '-C 2yn'
loop_
_symmetry_equiv_pos_site_id
_symmetry_equiv_pos_as_xyz
1 x,y,z
2 -x,y,1/2-z
3 1/2+x,1/2+y,z
4 1/2-x,1/2+y,1/2-z
5 -x,-y,-z
6 x,-y,1/2+z
7 1/2-x,1/2-y,-z
8 1/2+x,1/2-y,1/2+z
_cell_length_a                   17.751(7)
_cell_length_b                   6.019(2)
_cell_length_c                   23.625(9)
_cell_angle_alpha                90
_cell_angle_beta                 90.990(10)
_cell_angle_gamma                90
_cell_volume                     2523.8
loop_
_atom_site_label
_atom_site_type_symbol
_atom_site_fract_x
_atom_site_fract_y
_atom_site_fract_z
Zn1 Zn 0.5000 0.0269(2) -0.2500
O1 O 0.4660(3) 0.1521(9) -0.1810(2)
O2 O 0.5565(4) 0.4062(10) -0.1829(2)
N1 N 0.3129(4) 0.6156(12) 0.0641(3)
N2 N 0.3004(4) 0.7694(12) 0.1041(3)
N3 N 0.3430(4) 0.9472(13) 0.1012(3)
N4 N 0.3861(4) 0.9156(11) 0.0565(3)
N5 N 0.0923(4) 0.6526(11) 0.2775(2)
H1 H 0.1119 0.5688 0.3045
H2 H 0.0744 0.7833 0.2871
C1 C 0.5019(5) 0.3191(14) -0.1607(3)
C2 C 0.4688(5) 0.4232(13) -0.1084(3)
C3 C 0.4907(5) 0.6290(13) -0.0902(3)
H3 H 0.5294 0.7060 -0.1093
C4 C 0.4568(5) 0.7259(14) -0.0438(3)
H4 H 0.4717 0.8702 -0.0318
C5 C 0.4015(5) 0.6137(14) -0.0152(3)
C6 C 0.3800(5) 0.4024(15) -0.0331(3)
H5 H 0.3426 0.3231 -0.0132
C7 C 0.4129(5) 0.3085(14) -0.0796(3)
H6 H 0.3975 0.1653 -0.0922
C8 C 0.3661(5) 0.7179(14) 0.0348(3)
C9 C 0.2472(5) 0.7365(15) 0.1482(3)
C10 C 0.2038(5) 0.9143(14) 0.1641(3)
H7 H 0.2085 1.0540 0.1458
C11 C 0.1532(5) 0.8854(14) 0.2072(3)
H8 H 0.1221 1.0055 0.2184
C12 C 0.1477(5) 0.6825(15) 0.2342(3)
C13 C 0.1912(4) 0.5038(14) 0.2177(3)
H9 H 0.1863 0.3640 0.2359
C14 C 0.2421(5) 0.5302(14) 0.1742(3)
H10 H 0.2727 0.4098 0.1625
Zn1F Zn 0.0000 0.4731(2) 0.2500
Zn1F_2 Zn 1.0000 0.4731(2) -0.7500
O1A O 0.5340(3) 0.1521(9) -0.3190(2)
O2A O 0.4435(4) 0.4062(10) -0.3171(2)
N1A N 0.6871(4) 0.6156(12) -0.5641(3)
N2A N 0.6996(4) 0.7694(12) -0.6041(3)
N3A N 0.6570(4) 0.9472(13) -0.6012(3)
N4A N 0.6139(4) 0.9156(11) -0.5565(3)
N5A N 0.9077(4) 0.6526(11) -0.7775(2)
N5F N 0.4077(4) -0.1526(11) -0.2775(2)
N5G N 0.5923(4) -0.1526(11) -0.2225(2)
H1A H 0.8881 0.5688 -0.8045
H2A H 0.9256 0.7833 -0.7871
C1A C 0.4981(5) 0.3191(14) -0.3393(3)
C2A C 0.5312(5) 0.4232(13) -0.3916(3)
C3A C 0.5093(5) 0.6290(13) -0.4098(3)
H3A H 0.4706 0.7060 -0.3907
C4A C 0.5432(5) 0.7259(14) -0.4562(3)
H4A H 0.5283 0.8702 -0.4682
C5A C 0.5985(5) 0.6137(14) -0.4848(3)
C6A C 0.6200(5) 0.4024(15) -0.4669(3)
H5A H 0.6574 0.3231 -0.4868
C7A C 0.5871(5) 0.3085(14) -0.4204(3)
H6A H 0.6025 0.1653 -0.4078
C8A C 0.6339(5) 0.7179(14) -0.5348(3)
C9A C 0.7528(5) 0.7365(15) -0.6482(3)
C10A C 0.7962(5) 0.9143(14) -0.6641(3)
H7A H 0.7915 1.0540 -0.6458
C11A C 0.8468(5) 0.8854(14) -0.7072(3)
H8A H 0.8779 1.0055 -0.7184
C12A C 0.8523(5) 0.6825(15) -0.7342(3)
C13A C 0.8088(4) 0.5038(14) -0.7177(3)
H9A H 0.8137 0.3640 -0.7359
C14A C 0.7579(5) 0.5302(14) -0.6742(3)
H10A H 0.7273 0.4098 -0.6625
loop_
_geom_bond_atom_site_label_1
_geom_bond_atom_site_label_2
_geom_bond_site_symmetry_1
_geom_bond_site_symmetry_2
Zn1 O1 1_555 1_555
O1 C1 1_555 1_555
O2 C1 1_555 1_555
N1 N2 1_555 1_555
N2 N3 1_555 1_555
N3 N4 1_555 1_555
N4 C8 1_555 1_555
N5 H1 1_555 1_555
H2 N5 1_555 1_555
C1 C2 1_555 1_555
C2 C3 1_555 1_555
C3 H3 1_555 1_555
C4 C3 1_555 1_555
H4 C4 1_555 1_555
C5 C4 1_555 1_555
C6 C5 1_555 1_555
H5 C6 1_555 1_555
C7 C2 1_555 1_555
H6 C7 1_555 1_555
C8 N1 1_555 1_555
C9 N2 1_555 1_555
C10 C9 1_555 1_555
H7 C10 1_555 1_555
C11 C10 1_555 1_555
H8 C11 1_555 1_555
C12 N5 1_555 1_555
C13 C12 1_555 1_555
H9 C13 1_555 1_555
C14 C9 1_555 1_555
H10 C14 1_555 1_555
Zn1F N5 1_555 1_555
Zn1F_2 N5A 1_555 1_555
O1A Zn1 1_555 1_555
O2A C1A 1_555 1_555
N1A N2A 1_555 1_555
N2A N3A 1_555 1_555
N3A N4A 1_555 1_555
N4A C8A 1_555 1_555
N5A H1A 1_555 1_555
N5F Zn1 1_555 1_555
N5G Zn1 1_555 1_555
H2A N5A 1_555 1_555
C1A O1A 1_555 1_555
C2A C1A 1_555 1_555
C3A C2A 1_555 1_555
H3A C3A 1_555 1_555
C4A C3A 1_555 1_555
H4A C4A 1_555 1_555
C5A C4A 1_555 1_555
C6A C5A 1_555 1_555
H5A C6A 1_555 1_555
C7A C2A 1_555 1_555
H6A C7A 1_555 1_555
C8A N1A 1_555 1_555
C9A N2A 1_555 1_555
C10A C9A 1_555 1_555
H7A C10A 1_555 1_555
C11A C10A 1_555 1_555
H8A C11A 1_555 1_555
C12A N5A 1_555 1_555
C13A C12A 1_555 1_555
H9A C13A 1_555 1_555
C14A C9A 1_555 1_555
H10A C14A 1_555 1_555
C5 C8 1_555 1_555
C6 C7 1_555 1_555
C11 C12 1_555 1_555
C13 C14 1_555 1_555
C5A C8A 1_555 1_555
C6A C7A 1_555 1_555
C11A C12A 1_555 1_555
C13A C14A 1_555 1_555

#END
