
#######################################################################
#
#                 Cambridge Crystallographic Data Centre
#                                CCDC 
#
#######################################################################
#
# If this CIF has been generated from an entry in the Cambridge 
# Structural Database, then it will include bibliographic, chemical, 
# crystal, experimental, refinement or atomic coordinate data resulting 
# from the CCDC's data processing and validation procedures.
#
#######################################################################

data_LUTTEZ
_symmetry_cell_setting           monoclinic
_symmetry_space_group_name_H-M   'P 21/n'
_symmetry_Int_Tables_number      14
_space_group_name_Hall           '-P 2yn'
loop_
_symmetry_equiv_pos_site_id
_symmetry_equiv_pos_as_xyz
1 x,y,z
2 1/2+x,1/2-y,1/2+z
3 -x,-y,-z
4 1/2-x,1/2+y,1/2-z
_cell_length_a                   7.1744(8)
_cell_length_b                   7.2077(9)
_cell_length_c                   11.3320(13)
_cell_angle_alpha                90
_cell_angle_beta                 91.828(10)
_cell_angle_gamma                90
_cell_volume                     585.69
loop_
_atom_site_label
_atom_site_type_symbol
_atom_site_fract_x
_atom_site_fract_y
_atom_site_fract_z
O1 O 0.26940(15) 0.00278(16) 0.61468(10)
O2 O 0.15539(16) 0.12143(18) 0.34412(10)
C1 C 0.1224(2) 0.0015(2) 0.55164(13)
C2 C 0.0703(2) 0.0546(2) 0.42976(14)
C1B C -0.1224(2) -0.0015(2) 0.44836(13)
O1B O -0.26940(15) -0.00278(16) 0.38532(10)
C2B C -0.0703(2) -0.0546(2) 0.57024(14)
O2B O -0.15539(16) -0.12143(18) 0.65588(10)
Co1 Co 0.5000 0.5000 0.5000
O3 O 0.49363(16) 0.70017(17) 0.37036(9)
H1 H 0.4680 0.6761 0.3010
H2 H 0.5629 0.7907 0.3732
O4 O 0.51445(15) 0.70836(16) 0.62665(9)
H3 H 0.4314 0.7865 0.6222
H4 H 0.6157 0.7607 0.6336
N1 N 0.19499(15) 0.5056(2) 0.49999(10)
C3 C 0.1028(2) 0.4788(2) 0.59938(13)
H5 H 0.1700 0.4641 0.6703
C4 C 0.0904(2) 0.5275(2) 0.40069(13)
H6 H 0.1492 0.5476 0.3299
O3B O 0.50637(16) 0.29983(17) 0.62964(9)
H1B H 0.5320 0.3239 0.6990
H2B H 0.4371 0.2093 0.6268
O4B O 0.48555(15) 0.29164(16) 0.37335(9)
H3B H 0.5686 0.2135 0.3778
H4B H 0.3843 0.2393 0.3664
C4B C -0.0904(2) 0.4725(2) 0.59931(13)
N1B N -0.19499(15) 0.4944(2) 0.50001(10)
Co1B Co -0.5000 0.5000 0.5000
C3B C -0.1028(2) 0.5212(2) 0.40062(13)
H5B H -0.1700 0.5359 0.3297
H6B H -0.1492 0.4524 0.6701
N1B_2 N 0.80501(15) 0.4944(2) 0.50001(10)
loop_
_geom_bond_atom_site_label_1
_geom_bond_atom_site_label_2
_geom_bond_site_symmetry_1
_geom_bond_site_symmetry_2
O1 C1 1_555 1_555
O2 C2 1_555 1_555
C1 C2 1_555 1_555
C2 C1B 1_555 1_555
Co1 O3 1_555 1_555
O3 H1 1_555 1_555
H2 O3 1_555 1_555
O4 Co1 1_555 1_555
H3 O4 1_555 1_555
H4 O4 1_555 1_555
N1 Co1 1_555 1_555
C3 N1 1_555 1_555
H5 C3 1_555 1_555
C4 N1 1_555 1_555
H6 C4 1_555 1_555
C1B O1B 1_555 1_555
C2B C1 1_555 1_555
O2B C2B 1_555 1_555
O3B Co1 1_555 1_555
H1B O3B 1_555 1_555
H2B O3B 1_555 1_555
O4B Co1 1_555 1_555
H3B O4B 1_555 1_555
H4B O4B 1_555 1_555
C4B C3 1_555 1_555
N1B C4B 1_555 1_555
Co1B N1B 1_555 1_555
C3B C4 1_555 1_555
H5B C3B 1_555 1_555
H6B C4B 1_555 1_555
N1B_2 Co1 1_555 1_555
C1B C2B 1_555 1_555
N1B C3B 1_555 1_555

#END
