
#######################################################################
#
#                 Cambridge Crystallographic Data Centre
#                                CCDC 
#
#######################################################################
#
# If this CIF has been generated from an entry in the Cambridge 
# Structural Database, then it will include bibliographic, chemical, 
# crystal, experimental, refinement or atomic coordinate data resulting 
# from the CCDC's data processing and validation procedures.
#
#######################################################################

data_LUTTID
_symmetry_cell_setting           monoclinic
_symmetry_space_group_name_H-M   'P 21/n'
_symmetry_Int_Tables_number      14
_space_group_name_Hall           '-P 2yn'
loop_
_symmetry_equiv_pos_site_id
_symmetry_equiv_pos_as_xyz
1 x,y,z
2 1/2+x,1/2-y,1/2+z
3 -x,-y,-z
4 1/2-x,1/2+y,1/2-z
_cell_length_a                   7.0420(8)
_cell_length_b                   11.2465(10)
_cell_length_c                   7.2900(7)
_cell_angle_alpha                90
_cell_angle_beta                 90.689(10)
_cell_angle_gamma                90
_cell_volume                     577.311
loop_
_atom_site_label
_atom_site_type_symbol
_atom_site_fract_x
_atom_site_fract_y
_atom_site_fract_z
O1 O 0.72223(16) 0.39406(11) 1.00566(15)
O2 O 0.84454(17) 0.65844(10) 0.87092(17)
C1 C 0.8741(2) 0.45232(15) 1.00259(18)
C2 C 0.9294(2) 0.57152(13) 0.9415(2)
C1B C 1.1259(2) 0.54768(15) 0.99741(18)
O1B O 1.27777(16) 0.60594(11) 0.99434(15)
C2B C 1.0706(2) 0.42848(13) 1.0585(2)
O2B O 1.15546(17) 0.34156(10) 1.12908(17)
Ni1 Ni 0.5000 0.5000 0.5000
O3 O 0.50660(15) 0.62844(9) 0.29880(14)
H1 H 0.4710 0.6955 0.3262
H2 H 0.4478 0.6093 0.2056
O4 O 0.50827(15) 0.63076(10) 0.69779(14)
H3 H 0.4288 0.6223 0.7781
H4 H 0.6123 0.6395 0.7477
N1 N 0.80165(16) 0.49832(11) 0.49219(17)
C3 C 0.8997(2) 0.59924(13) 0.4724(2)
H5 H 0.8343 0.6700 0.4529
C4 C 0.9033(2) 0.39913(13) 0.5198(2)
H6 H 0.8401 0.3272 0.5341
O3B O 0.49340(15) 0.37156(9) 0.70120(14)
H1B H 0.5290 0.3045 0.6738
H2B H 0.5522 0.3907 0.7944
O4B O 0.49173(15) 0.36924(10) 0.30221(14)
H3B H 0.5712 0.3777 0.2219
H4B H 0.3877 0.3605 0.2523
C4B C 1.0967(2) 0.60087(13) 0.4802(2)
N1B N 1.19835(16) 0.50168(11) 0.50781(17)
Ni1B Ni 1.5000 0.5000 0.5000
C3B C 1.1003(2) 0.40076(13) 0.5276(2)
H5B H 1.1657 0.3300 0.5471
H6B H 1.1599 0.6728 0.4659
N1B_2 N 0.19835(16) 0.50168(11) 0.50781(17)
loop_
_geom_bond_atom_site_label_1
_geom_bond_atom_site_label_2
_geom_bond_site_symmetry_1
_geom_bond_site_symmetry_2
O1 C1 1_555 1_555
O2 C2 1_555 1_555
C1 C2 1_555 1_555
C2 C1B 1_555 1_555
Ni1 O3 1_555 1_555
O3 H1 1_555 1_555
H2 O3 1_555 1_555
O4 Ni1 1_555 1_555
H3 O4 1_555 1_555
H4 O4 1_555 1_555
N1 Ni1 1_555 1_555
C3 N1 1_555 1_555
H5 C3 1_555 1_555
C4 N1 1_555 1_555
H6 C4 1_555 1_555
C1B O1B 1_555 1_555
C2B C1 1_555 1_555
O2B C2B 1_555 1_555
O3B Ni1 1_555 1_555
H1B O3B 1_555 1_555
H2B O3B 1_555 1_555
O4B Ni1 1_555 1_555
H3B O4B 1_555 1_555
H4B O4B 1_555 1_555
C4B C3 1_555 1_555
N1B C4B 1_555 1_555
Ni1B N1B 1_555 1_555
C3B C4 1_555 1_555
H5B C3B 1_555 1_555
H6B C4B 1_555 1_555
N1B_2 Ni1 1_555 1_555
C1B C2B 1_555 1_555
N1B C3B 1_555 1_555

#END
