
#######################################################################
#
#                 Cambridge Crystallographic Data Centre
#                                CCDC 
#
#######################################################################
#
# If this CIF has been generated from an entry in the Cambridge 
# Structural Database, then it will include bibliographic, chemical, 
# crystal, experimental, refinement or atomic coordinate data resulting 
# from the CCDC's data processing and validation procedures.
#
#######################################################################

data_LUTTAV
_symmetry_cell_setting           monoclinic
_symmetry_space_group_name_H-M   'P 21/n'
_symmetry_Int_Tables_number      14
_space_group_name_Hall           '-P 2yn'
loop_
_symmetry_equiv_pos_site_id
_symmetry_equiv_pos_as_xyz
1 x,y,z
2 1/2+x,1/2-y,1/2+z
3 -x,-y,-z
4 1/2-x,1/2+y,1/2-z
_cell_length_a                   7.2471(8)
_cell_length_b                   7.2060(6)
_cell_length_c                   11.3662(9)
_cell_angle_alpha                90
_cell_angle_beta                 92.390(10)
_cell_angle_gamma                90
_cell_volume                     593.056
loop_
_atom_site_label
_atom_site_type_symbol
_atom_site_fract_x
_atom_site_fract_y
_atom_site_fract_z
O1 O 0.26769(15) 0.00657(13) 0.61470(10)
O2 O 0.15164(15) 0.11942(16) 0.34451(9)
C1 C 0.12204(18) 0.00335(18) 0.55165(12)
C2 C 0.06856(19) 0.05388(19) 0.42970(12)
C1B C -0.12204(18) -0.00335(18) 0.44835(12)
O1B O -0.26769(15) -0.00657(13) 0.38530(10)
C2B C -0.06856(19) -0.05388(19) 0.57030(12)
O2B O -0.15164(15) -0.11942(16) 0.65549(9)
Fe1 Fe 0.5000 0.5000 0.5000
O3 O 0.49626(14) 0.69805(15) 0.36828(8)
H1 H 0.4681 0.6775 0.2989
H2 H 0.5667 0.7871 0.3722
O4 O 0.51725(14) 0.71653(14) 0.62651(9)
H3 H 0.4334 0.7930 0.6249
H4 H 0.6171 0.7697 0.6339
N1 N 0.19270(15) 0.50866(15) 0.50096(10)
C3 C 0.10247(18) 0.4783(2) 0.59926(11)
H5 H 0.1695 0.4627 0.6701
C4 C 0.08849(19) 0.5305(2) 0.40178(12)
H6 H 0.1461 0.5521 0.3315
O3B O 0.50374(14) 0.30195(15) 0.63172(8)
H1B H 0.5319 0.3225 0.7011
H2B H 0.4333 0.2129 0.6278
O4B O 0.48275(14) 0.28347(14) 0.37349(9)
H3B H 0.5666 0.2070 0.3751
H4B H 0.3829 0.2303 0.3661
C4B C -0.08849(19) 0.4695(2) 0.59822(12)
N1B N -0.19270(15) 0.49134(15) 0.49904(10)
Fe1B Fe -0.5000 0.5000 0.5000
C3B C -0.10247(18) 0.5217(2) 0.40074(11)
H5B H -0.1695 0.5373 0.3299
H6B H -0.1461 0.4479 0.6685
N1B_2 N 0.80730(15) 0.49134(15) 0.49904(10)
loop_
_geom_bond_atom_site_label_1
_geom_bond_atom_site_label_2
_geom_bond_site_symmetry_1
_geom_bond_site_symmetry_2
O1 C1 1_555 1_555
O2 C2 1_555 1_555
C1 C2 1_555 1_555
C2 C1B 1_555 1_555
Fe1 O3 1_555 1_555
O3 H1 1_555 1_555
H2 O3 1_555 1_555
O4 Fe1 1_555 1_555
H3 O4 1_555 1_555
H4 O4 1_555 1_555
N1 Fe1 1_555 1_555
C3 N1 1_555 1_555
H5 C3 1_555 1_555
C4 N1 1_555 1_555
H6 C4 1_555 1_555
C1B O1B 1_555 1_555
C2B C1 1_555 1_555
O2B C2B 1_555 1_555
O3B Fe1 1_555 1_555
H1B O3B 1_555 1_555
H2B O3B 1_555 1_555
O4B Fe1 1_555 1_555
H3B O4B 1_555 1_555
H4B O4B 1_555 1_555
C4B C3 1_555 1_555
N1B C4B 1_555 1_555
Fe1B N1B 1_555 1_555
C3B C4 1_555 1_555
H5B C3B 1_555 1_555
H6B C4B 1_555 1_555
N1B_2 Fe1 1_555 1_555
C1B C2B 1_555 1_555
N1B C3B 1_555 1_555

#END
