
#######################################################################
#
#                 Cambridge Crystallographic Data Centre
#                                CCDC 
#
#######################################################################
#
# If this CIF has been generated from an entry in the Cambridge 
# Structural Database, then it will include bibliographic, chemical, 
# crystal, experimental, refinement or atomic coordinate data resulting 
# from the CCDC's data processing and validation procedures.
#
#######################################################################

data_LUTTEA
_symmetry_cell_setting           monoclinic
_symmetry_space_group_name_H-M   'P 21/c'
_symmetry_Int_Tables_number      14
_space_group_name_Hall           '-P 2ybc'
loop_
_symmetry_equiv_pos_site_id
_symmetry_equiv_pos_as_xyz
1 x,y,z
2 -x,1/2+y,1/2-z
3 -x,-y,-z
4 x,1/2-y,1/2+z
_cell_length_a                   8.2762(17)
_cell_length_b                   12.727(3)
_cell_length_c                   15.090(3)
_cell_angle_alpha                90
_cell_angle_beta                 90.08(3)
_cell_angle_gamma                90
_cell_volume                     1589.45
loop_
_atom_site_label
_atom_site_type_symbol
_atom_site_fract_x
_atom_site_fract_y
_atom_site_fract_z
Cu1 Cu 0.68636(3) 0.630865(17) 0.831558(14)
Na1 Na 0.32768(10) 0.58110(7) 0.48633(5)
Na2 Na 0.31914(10) 0.70423(6) 0.84792(6)
O1 O 0.53950(15) 0.75699(10) 0.74175(8)
C1 C 0.5275(2) 0.71240(14) 0.65346(11)
H1 H 0.4166 0.7193 0.6314
C2 C 0.6421(2) 0.77759(14) 0.59606(11)
H2 H 0.7503 0.7474 0.6030
C3 C 0.6432(2) 0.88499(13) 0.64286(11)
H3 H 0.7433 0.9232 0.6302
C4 C 0.6377(2) 0.85034(14) 0.74053(11)
H4 H 0.5856 0.9052 0.7760
C5 C 0.5759(2) 0.59726(14) 0.65526(11)
O2 O 0.68306(18) 0.56903(10) 0.71148(9)
O3 O 0.51450(18) 0.53813(11) 0.60001(9)
C6 C 0.6072(2) 0.78278(14) 0.49670(11)
O4 O 0.49526(18) 0.73362(11) 0.46210(9)
O5 O 0.70873(16) 0.84022(11) 0.45613(8)
C7 C 0.4960(2) 0.95373(14) 0.62448(11)
O6 O 0.37196(18) 0.91444(12) 0.59377(11)
O7 O 0.51198(17) 1.04929(10) 0.64833(9)
C8 C 0.8078(2) 0.83040(15) 0.77598(12)
O8 O 0.90009(18) 0.90792(12) 0.77760(11)
O9 O 0.84809(16) 0.73990(11) 0.80210(9)
O10 O 0.9155(2) 0.50263(15) 0.86216(13)
H5 H 0.830(5) 0.463(3) 0.877(3)
H6 H 0.966(4) 0.463(3) 0.824(2)
O11 O 0.2125(2) 0.62810(13) 0.34339(11)
H7 H 0.116(4) 0.627(2) 0.329(2)
H8 H 0.250(4) 0.578(3) 0.323(2)
O12 O 0.1462(3) 0.63032(18) 0.95411(13)
H9 H 0.057(5) 0.620(3) 0.949(3)
H10 H 0.188(6) 0.592(4) 0.991(3)
O13 O 0.1633(3) 0.4320(2) 0.5171(2)
H11 H 0.161(7) 0.432(5) 0.561(4)
H12 H 0.074(5) 0.398(3) 0.493(3)
O14 O 0.1396(2) 0.64026(17) 0.73470(12)
H13 H 0.060(4) 0.660(3) 0.751(2)
H14 H 0.132(4) 0.582(3) 0.732(2)
O15 O 0.1087(3) 0.68099(18) 0.55078(15)
H15 H 0.125(5) 0.689(3) 0.606(3)
H16 H 0.117(5) 0.741(3) 0.535(3)
Cu1C Cu 0.68636(3) 0.869135(17) 0.331558(14)
Cu1A Cu 0.31364(3) 1.130865(17) 0.668442(14)
Na1B Na 0.67232(10) 0.41890(7) 0.51367(5)
Na2C Na 0.31914(10) 0.79577(6) 0.34792(6)
Na2A Na 0.68086(10) 1.20423(6) 0.65208(6)
O3B O 0.48550(18) 0.46187(11) 0.39999(9)
O4C O 0.49526(18) 0.76638(11) 0.96210(9)
O5C O 0.70873(16) 0.65978(11) 0.95613(8)
O7A O 0.48802(17) 0.54929(10) 0.85167(9)
O11C O 0.2125(2) 0.87190(13) 0.84339(11)
H7C H 0.116(4) 0.873(2) 0.829(2)
H8C H 0.250(4) 0.922(3) 0.823(2)
loop_
_geom_bond_atom_site_label_1
_geom_bond_atom_site_label_2
_geom_bond_site_symmetry_1
_geom_bond_site_symmetry_2
Cu1 O1 1_555 1_555
Na1 O3 1_555 1_555
Na2 O1 1_555 1_555
O1 C1 1_555 1_555
C1 H1 1_555 1_555
C2 C1 1_555 1_555
H2 C2 1_555 1_555
C3 C2 1_555 1_555
H3 C3 1_555 1_555
C4 O1 1_555 1_555
H4 C4 1_555 1_555
C5 C1 1_555 1_555
O2 Cu1 1_555 1_555
O3 C5 1_555 1_555
C6 C2 1_555 1_555
O4 Na1 1_555 1_555
O5 C6 1_555 1_555
C7 C3 1_555 1_555
O6 C7 1_555 1_555
O7 C7 1_555 1_555
C8 C4 1_555 1_555
O8 C8 1_555 1_555
O9 Cu1 1_555 1_555
O10 Cu1 1_555 1_555
H5 O10 1_555 1_555
H6 O10 1_555 1_555
O11 Na1 1_555 1_555
H7 O11 1_555 1_555
H8 O11 1_555 1_555
O12 Na2 1_555 1_555
H9 O12 1_555 1_555
H10 O12 1_555 1_555
O13 Na1 1_555 1_555
H11 O13 1_555 1_555
H12 O13 1_555 1_555
O14 Na2 1_555 1_555
H13 O14 1_555 1_555
H14 O14 1_555 1_555
O15 Na1 1_555 1_555
H15 O15 1_555 1_555
H16 O15 1_555 1_555
Cu1C O5 1_555 1_555
Cu1A O7 1_555 1_555
Na1B O3 1_555 1_555
Na2C O4 1_555 1_555
Na2A O7 1_555 1_555
O3B Na1 1_555 1_555
O4C Na2 1_555 1_555
O5C Cu1 1_555 1_555
O7A Cu1 1_555 1_555
O11C Na2 1_555 1_555
H7C O11C 1_555 1_555
H8C O11C 1_555 1_555
Na2 O7A 1_555 1_555
C3 C4 1_555 1_555
C5 O2 1_555 1_555
C6 O4 1_555 1_555
C8 O9 1_555 1_555
O11 Na2C 1_555 1_555
Na1B O3B 1_555 1_555

#END
