
#######################################################################
#
#                 Cambridge Crystallographic Data Centre
#                                CCDC 
#
#######################################################################
#
# If this CIF has been generated from an entry in the Cambridge 
# Structural Database, then it will include bibliographic, chemical, 
# crystal, experimental, refinement or atomic coordinate data resulting 
# from the CCDC's data processing and validation procedures.
#
#######################################################################

data_LUTWAZ
_symmetry_cell_setting           monoclinic
_symmetry_space_group_name_H-M   'P 21/n'
_symmetry_Int_Tables_number      14
_space_group_name_Hall           '-P 2yn'
loop_
_symmetry_equiv_pos_site_id
_symmetry_equiv_pos_as_xyz
1 x,y,z
2 1/2-x,1/2+y,1/2-z
3 -x,-y,-z
4 1/2+x,1/2-y,1/2+z
_cell_length_a                   11.433(5)
_cell_length_b                   19.626(9)
_cell_length_c                   13.639(6)
_cell_angle_alpha                90
_cell_angle_beta                 103.885(8)
_cell_angle_gamma                90
_cell_volume                     2970.95
loop_
_atom_site_label
_atom_site_type_symbol
_atom_site_fract_x
_atom_site_fract_y
_atom_site_fract_z
Zn1 Zn 1.11019(3) 1.086247(18) 0.77915(3)
Cl1 Cl 1.23892(10) 1.10143(7) 0.68389(9)
Cl2 Cl 1.04517(11) 1.17607(5) 0.84974(10)
O1 O 1.1813(2) 1.02052(13) 0.88579(18)
O2 O 0.9699(2) 1.03220(12) 0.70489(17)
P1 P 1.14610(7) 0.95877(4) 0.93732(6)
P2 P 0.89206(7) 0.99748(4) 0.61453(6)
C1 C 1.0029(3) 0.96799(17) 0.9684(3)
H1 H 0.9399 0.9703 0.9065
H2 H 0.9880 0.9282 1.0057
C2 C 0.9740(3) 0.97050(16) 0.5240(2)
H3 H 1.0392 0.9407 0.5572
H4 H 0.9206 0.9444 0.4713
C3 C 1.1347(4) 0.8834(2) 0.8610(3)
C4 C 1.1820(6) 0.8862(3) 0.7771(3)
H5 H 1.2168 0.9258 0.7596
C5 C 1.1752(8) 0.8255(4) 0.7184(4)
H6 H 1.2035 0.8258 0.6599
C6 C 1.1277(8) 0.7665(4) 0.7469(5)
H7 H 1.1260 0.7273 0.7083
C7 C 1.0834(7) 0.7648(3) 0.8307(5)
H8 H 1.0518 0.7246 0.8497
C8 C 1.0856(5) 0.8237(2) 0.8878(4)
H9 H 1.0539 0.8230 0.9445
C9 C 1.2594(3) 0.94448(16) 1.0522(2)
C10 C 1.3671(3) 0.9797(2) 1.0673(3)
H10 H 1.3786 1.0114 1.0198
C11 C 1.4584(4) 0.9676(3) 1.1538(3)
H11 H 1.5307 0.9914 1.1645
C12 C 1.4403(4) 0.9197(2) 1.2236(3)
H12 H 1.5011 0.9111 1.2811
C13 C 1.3350(4) 0.8855(2) 1.2086(3)
H13 H 1.3239 0.8538 1.2562
C14 C 1.2428(3) 0.89714(19) 1.1227(3)
H14 H 1.1707 0.8732 1.1129
C15 C 0.8207(3) 0.92313(16) 0.6509(3)
C16 C 0.8181(5) 0.8609(2) 0.6043(4)
H15 H 0.8529 0.8558 0.5497
C17 C 0.7632(6) 0.8051(2) 0.6389(5)
H16 H 0.7604 0.7633 0.6063
C18 C 0.7145(5) 0.8113(2) 0.7188(4)
H17 H 0.6815 0.7734 0.7430
C19 C 0.7132(4) 0.8733(3) 0.7646(4)
H18 H 0.6768 0.8779 0.8183
C20 C 0.7665(4) 0.9291(2) 0.7307(3)
H19 H 0.7657 0.9711 0.7621
C21 C 0.7740(3) 1.05446(17) 0.5520(3)
C22 C 0.7867(4) 1.1243(2) 0.5718(3)
H20 H 0.8550 1.1405 0.6174
C23 C 0.6987(5) 1.1693(2) 0.5242(4)
H21 H 0.7086 1.2159 0.5355
C24 C 0.5941(5) 1.1439(3) 0.4583(5)
H22 H 0.5317 1.1734 0.4295
C25 C 0.5834(5) 1.0758(3) 0.4363(5)
H23 H 0.5162 1.0598 0.3891
C26 C 0.6726(4) 1.0298(2) 0.4841(4)
H24 H 0.6640 0.9834 0.4706
Zn1B Zn 0.88981(3) 0.913753(18) 1.22085(3)
Zn1B_2 Zn 0.88981(3) 0.913753(18) 0.22085(3)
Cl1B Cl 0.76108(10) 0.89857(7) 1.31611(9)
Cl2B Cl 0.95483(11) 0.82393(5) 1.15026(10)
O1B O 0.8187(2) 0.97948(13) 1.11421(18)
O2B O 1.0301(2) 0.96780(12) 0.29511(17)
O2B_2 O 1.0301(2) 0.96780(12) 1.29511(17)
P1B P 0.85390(7) 1.04123(4) 1.06268(6)
P2B P 1.10794(7) 1.00252(4) 0.38547(6)
C1B C 0.9971(3) 1.03201(17) 1.0316(3)
H1B H 1.0601 1.0297 1.0935
H2B H 1.0120 1.0718 0.9943
C2B C 1.0260(3) 1.02950(16) 0.4760(2)
H3B H 0.9608 1.0593 0.4428
H4B H 1.0794 1.0556 0.5287
C3B C 0.8653(4) 1.1166(2) 1.1390(3)
C4B C 0.8180(6) 1.1138(3) 1.2229(3)
H5B H 0.7832 1.0742 1.2404
C5B C 0.8248(8) 1.1745(4) 1.2816(4)
H6B H 0.7965 1.1742 1.3401
C6B C 0.8723(8) 1.2335(4) 1.2531(5)
H7B H 0.8740 1.2727 1.2917
C7B C 0.9166(7) 1.2352(3) 1.1693(5)
H8B H 0.9482 1.2754 1.1503
C8B C 0.9144(5) 1.1763(2) 1.1122(4)
H9B H 0.9461 1.1770 1.0555
C9B C 0.7406(3) 1.05552(16) 0.9478(2)
C10B C 0.6329(3) 1.0203(2) 0.9327(3)
H10B H 0.6214 0.9886 0.9802
C11B C 0.5416(4) 1.0324(3) 0.8462(3)
H11B H 0.4693 1.0086 0.8355
C12B C 0.5597(4) 1.0803(2) 0.7764(3)
H12B H 0.4989 1.0889 0.7189
C13B C 0.6650(4) 1.1145(2) 0.7914(3)
H13B H 0.6761 1.1462 0.7438
C14B C 0.7572(3) 1.10286(19) 0.8773(3)
H14B H 0.8293 1.1268 0.8871
C15B C 1.1793(3) 1.07687(16) 0.3491(3)
C16B C 1.1819(5) 1.1391(2) 0.3957(4)
H15B H 1.1471 1.1442 0.4503
C17B C 1.2368(6) 1.1949(2) 0.3611(5)
H16B H 1.2396 1.2367 0.3937
C18B C 1.2855(5) 1.1887(2) 0.2812(4)
H17B H 1.3185 1.2266 0.2570
C19B C 1.2868(4) 1.1267(3) 0.2354(4)
H18B H 1.3232 1.1221 0.1817
C20B C 1.2335(4) 1.0709(2) 0.2693(3)
H19B H 1.2343 1.0289 0.2379
C21B C 1.2260(3) 0.94554(17) 0.4480(3)
C22B C 1.2133(4) 0.8757(2) 0.4282(3)
H20B H 1.1450 0.8595 0.3826
C23B C 1.3013(5) 0.8307(2) 0.4758(4)
H21B H 1.2914 0.7841 0.4645
C24B C 1.4059(5) 0.8561(3) 0.5417(5)
H22B H 1.4683 0.8266 0.5705
C25B C 1.4166(5) 0.9242(3) 0.5637(5)
H23B H 1.4838 0.9402 0.6109
C26B C 1.3274(4) 0.9702(2) 0.5159(4)
H24B H 1.3360 1.0166 0.5294
C27 C 0.9765(17) 0.6912(12) 0.5002(13)
H25 H 0.9245 0.6795 0.5454
Cl3 Cl 1.1288(5) 0.6652(3) 0.5155(4)
Cl4 Cl 0.9545(9) 0.7495(4) 0.4219(9)
Cl5 Cl 0.9661(10) 0.6582(11) 0.3836(16)
loop_
_geom_bond_atom_site_label_1
_geom_bond_atom_site_label_2
_geom_bond_site_symmetry_1
_geom_bond_site_symmetry_2
Zn1 Cl1 1_555 1_555
Cl2 Zn1 1_555 1_555
O1 Zn1 1_555 1_555
O2 Zn1 1_555 1_555
P1 O1 1_555 1_555
P2 O2 1_555 1_555
C1 P1 1_555 1_555
H1 C1 1_555 1_555
H2 C1 1_555 1_555
C2 P2 1_555 1_555
H3 C2 1_555 1_555
H4 C2 1_555 1_555
C3 P1 1_555 1_555
C4 C3 1_555 1_555
H5 C4 1_555 1_555
C5 C4 1_555 1_555
H6 C5 1_555 1_555
C6 C5 1_555 1_555
H7 C6 1_555 1_555
C7 C6 1_555 1_555
H8 C7 1_555 1_555
C8 C3 1_555 1_555
H9 C8 1_555 1_555
C9 P1 1_555 1_555
C10 C9 1_555 1_555
H10 C10 1_555 1_555
C11 C10 1_555 1_555
H11 C11 1_555 1_555
C12 C11 1_555 1_555
H12 C12 1_555 1_555
C13 C12 1_555 1_555
H13 C13 1_555 1_555
C14 C9 1_555 1_555
H14 C14 1_555 1_555
C15 P2 1_555 1_555
C16 C15 1_555 1_555
H15 C16 1_555 1_555
C17 C16 1_555 1_555
H16 C17 1_555 1_555
C18 C17 1_555 1_555
H17 C18 1_555 1_555
C19 C18 1_555 1_555
H18 C19 1_555 1_555
C20 C15 1_555 1_555
H19 C20 1_555 1_555
C21 P2 1_555 1_555
C22 C21 1_555 1_555
H20 C22 1_555 1_555
C23 C22 1_555 1_555
H21 C23 1_555 1_555
C24 C23 1_555 1_555
H22 C24 1_555 1_555
C25 C24 1_555 1_555
H23 C25 1_555 1_555
C26 C21 1_555 1_555
H24 C26 1_555 1_555
C27 H25 1_555 1_555
Cl3 C27 1_555 1_555
Cl4 C27 1_555 1_555
Cl5 C27 1_555 1_555
Zn1B Cl1B 1_555 1_555
Zn1B_2 O2B 1_555 1_555
Cl2B Zn1B 1_555 1_555
O1B Zn1B 1_555 1_555
O2B P2B 1_555 1_555
O2B_2 Zn1B 1_555 1_555
P1B O1B 1_555 1_555
P2B C2B 1_555 1_555
C1B C1 1_555 1_555
H1B C1B 1_555 1_555
H2B C1B 1_555 1_555
C2B C2 1_555 1_555
H3B C2B 1_555 1_555
H4B C2B 1_555 1_555
C3B P1B 1_555 1_555
C4B C3B 1_555 1_555
H5B C4B 1_555 1_555
C5B C4B 1_555 1_555
H6B C5B 1_555 1_555
C6B C5B 1_555 1_555
H7B C6B 1_555 1_555
C7B C6B 1_555 1_555
H8B C7B 1_555 1_555
C8B C3B 1_555 1_555
H9B C8B 1_555 1_555
C9B P1B 1_555 1_555
C10B C9B 1_555 1_555
H10B C10B 1_555 1_555
C11B C10B 1_555 1_555
H11B C11B 1_555 1_555
C12B C11B 1_555 1_555
H12B C12B 1_555 1_555
C13B C12B 1_555 1_555
H13B C13B 1_555 1_555
C14B C9B 1_555 1_555
H14B C14B 1_555 1_555
C15B P2B 1_555 1_555
C16B C15B 1_555 1_555
H15B C16B 1_555 1_555
C17B C16B 1_555 1_555
H16B C17B 1_555 1_555
C18B C17B 1_555 1_555
H17B C18B 1_555 1_555
C19B C18B 1_555 1_555
H18B C19B 1_555 1_555
C20B C15B 1_555 1_555
H19B C20B 1_555 1_555
C21B P2B 1_555 1_555
C22B C21B 1_555 1_555
H20B C22B 1_555 1_555
C23B C22B 1_555 1_555
H21B C23B 1_555 1_555
C24B C23B 1_555 1_555
H22B C24B 1_555 1_555
C25B C24B 1_555 1_555
H23B C25B 1_555 1_555
C26B C21B 1_555 1_555
H24B C26B 1_555 1_555
C7 C8 1_555 1_555
C13 C14 1_555 1_555
C19 C20 1_555 1_555
C25 C26 1_555 1_555
P1B C1B 1_555 1_555
C7B C8B 1_555 1_555
C13B C14B 1_555 1_555
C19B C20B 1_555 1_555
C25B C26B 1_555 1_555

#END
