
#######################################################################
#
#                 Cambridge Crystallographic Data Centre
#                                CCDC 
#
#######################################################################
#
# If this CIF has been generated from an entry in the Cambridge 
# Structural Database, then it will include bibliographic, chemical, 
# crystal, experimental, refinement or atomic coordinate data resulting 
# from the CCDC's data processing and validation procedures.
#
#######################################################################

data_LUTXAA
_symmetry_cell_setting           triclinic
_symmetry_space_group_name_H-M   'P -1'
_symmetry_Int_Tables_number      2
_space_group_name_Hall           '-P 1'
loop_
_symmetry_equiv_pos_site_id
_symmetry_equiv_pos_as_xyz
1 x,y,z
2 -x,-y,-z
_cell_length_a                   10.793(12)
_cell_length_b                   11.294(12)
_cell_length_c                   12.675(14)
_cell_angle_alpha                114.908(12)
_cell_angle_beta                 93.643(14)
_cell_angle_gamma                92.890(13)
_cell_volume                     1393.4
loop_
_atom_site_label
_atom_site_type_symbol
_atom_site_fract_x
_atom_site_fract_y
_atom_site_fract_z
Cd1 Cd 0.32755(5) 0.94555(6) 0.15170(5)
O1 O 0.1639(6) 0.8163(6) 0.0368(6)
O2 O 0.3268(7) 0.8512(7) 0.2826(6)
P1 P 0.0252(2) 0.8114(2) 0.0120(2)
P2 P 0.3864(2) 0.8186(2) 0.37474(19)
N1 N 0.2602(8) 1.1571(8) 0.3522(8)
O3 O 0.1779(6) 1.0737(7) 0.2762(7)
O4 O 0.3707(6) 1.1525(7) 0.3242(6)
O5 O 0.2351(8) 1.2353(9) 0.4478(7)
N2 N 0.6463(9) 0.9526(10) -0.0254(9)
S1 S 0.5490(2) 0.8638(3) 0.1270(2)
C1 C -0.0277(8) 0.9711(8) 0.0379(7)
H1 H -0.1177 0.9626 0.0235
H2 H -0.0059 1.0307 0.1193
C2 C 0.5189(8) 0.9309(8) 0.4623(8)
H3 H 0.5584 0.8962 0.5129
H4 H 0.5793 0.9369 0.4109
C3 C -0.0662(9) 0.7565(10) 0.0978(9)
C4 C -0.1299(11) 0.6311(11) 0.0520(11)
H5 H -0.1215 0.5720 -0.0244
C5 C -0.2056(13) 0.5949(14) 0.1205(14)
H6 H -0.2476 0.5117 0.0893
C6 C -0.2188(11) 0.6814(15) 0.2341(13)
H7 H -0.2702 0.6564 0.2787
C7 C -0.1566(12) 0.8044(14) 0.2820(12)
H8 H -0.1661 0.8626 0.3585
C8 C -0.0803(9) 0.8405(11) 0.2158(9)
H9 H -0.0365 0.9228 0.2495
C9 C -0.0226(9) 0.7009(8) -0.1396(8)
C10 C -0.1473(10) 0.6870(10) -0.1859(9)
H10 H -0.2053 0.7386 -0.1404
C11 C -0.1835(11) 0.5955(11) -0.3005(11)
H11 H -0.2657 0.5867 -0.3316
C12 C -0.0976(13) 0.5182(11) -0.3674(10)
H12 H -0.1225 0.4570 -0.4433
C13 C 0.0246(14) 0.5303(12) -0.3233(11)
H13 H 0.0812 0.4763 -0.3687
C14 C 0.0637(10) 0.6246(10) -0.2093(9)
H14 H 0.1470 0.6358 -0.1806
C15 C 0.2766(8) 0.8186(8) 0.4771(8)
C16 C 0.1500(9) 0.8256(10) 0.4483(9)
H15 H 0.1252 0.8317 0.3792
C17 C 0.0631(10) 0.8235(12) 0.5219(11)
H16 H -0.0205 0.8286 0.5027
C18 C 0.0992(10) 0.8136(10) 0.6255(10)
H17 H 0.0398 0.8089 0.6740
C19 C 0.2250(10) 0.8110(11) 0.6554(9)
H18 H 0.2501 0.8076 0.7256
C20 C 0.3121(9) 0.8133(10) 0.5820(9)
H19 H 0.3959 0.8113 0.6028
C21 C 0.4420(8) 0.6569(9) 0.3114(8)
C22 C 0.5073(9) 0.6070(10) 0.3797(10)
H20 H 0.5244 0.6569 0.4598
C23 C 0.5467(12) 0.4812(11) 0.3264(13)
H21 H 0.5912 0.4472 0.3710
C24 C 0.5199(13) 0.4065(11) 0.2073(13)
H22 H 0.5452 0.3221 0.1726
C25 C 0.4557(13) 0.4571(11) 0.1398(11)
H23 H 0.4390 0.4068 0.0598
C26 C 0.4163(11) 0.5813(10) 0.1903(10)
H24 H 0.3732 0.6150 0.1447
C27 C 0.6038(8) 0.9172(9) 0.0379(9)
Cd1A Cd -0.32755(5) 1.05445(6) -0.15170(5)
Cd1A_2 Cd 0.67245(5) 1.05445(6) -0.15170(5)
Cd1A_3 Cd 0.67245(5) 1.05445(6) 0.84830(5)
O1A O -0.1639(6) 1.1837(6) -0.0368(6)
O2A O 0.6732(7) 1.1488(7) 0.7174(6)
O2A_2 O -0.3268(7) 1.1488(7) -0.2826(6)
P1A P -0.0252(2) 1.1886(2) -0.0120(2)
P2A P 0.6136(2) 1.1814(2) 0.62526(19)
N1A N -0.2602(8) 0.8429(8) -0.3522(8)
O3A O -0.1779(6) 0.9263(7) -0.2762(7)
O4A O -0.3707(6) 0.8475(7) -0.3242(6)
O5A O -0.2351(8) 0.7647(9) -0.4478(7)
N2A N 0.3537(9) 1.0474(10) 0.0254(9)
N2_2 N -0.3537(9) 0.9526(10) -0.0254(9)
S1A S 0.4510(2) 1.1362(3) -0.1270(2)
S1A_2 S -0.5490(2) 1.1362(3) -0.1270(2)
C1A C 0.0277(8) 1.0289(8) -0.0379(7)
H1A H 0.1177 1.0374 -0.0235
H2A H 0.0059 0.9693 -0.1193
C2A C 0.4811(8) 1.0691(8) 0.5377(8)
H3A H 0.4416 1.1038 0.4871
H4A H 0.4207 1.0631 0.5891
C3A C 0.0662(9) 1.2435(10) -0.0978(9)
C4A C 0.1299(11) 1.3689(11) -0.0520(11)
H5A H 0.1215 1.4280 0.0244
C5A C 0.2056(13) 1.4051(14) -0.1205(14)
H6A H 0.2476 1.4883 -0.0893
C6A C 0.2188(11) 1.3186(15) -0.2341(13)
H7A H 0.2702 1.3436 -0.2787
C7A C 0.1566(12) 1.1956(14) -0.2820(12)
H8A H 0.1661 1.1374 -0.3585
C8A C 0.0803(9) 1.1595(11) -0.2158(9)
H9A H 0.0365 1.0772 -0.2495
C9A C 0.0226(9) 1.2991(8) 0.1396(8)
C10A C 0.1473(10) 1.3130(10) 0.1859(9)
H10A H 0.2053 1.2614 0.1404
C11A C 0.1835(11) 1.4045(11) 0.3005(11)
H11A H 0.2657 1.4133 0.3316
C12A C 0.0976(13) 1.4818(11) 0.3674(10)
H12A H 0.1225 1.5430 0.4433
C13A C -0.0246(14) 1.4697(12) 0.3233(11)
H13A H -0.0812 1.5237 0.3687
C14A C -0.0637(10) 1.3754(10) 0.2093(9)
H14A H -0.1470 1.3642 0.1806
C15A C 0.7234(8) 1.1814(8) 0.5229(8)
C16A C 0.8500(9) 1.1744(10) 0.5517(9)
H15A H 0.8748 1.1683 0.6208
C17A C 0.9369(10) 1.1765(12) 0.4781(11)
H16A H 1.0205 1.1714 0.4973
C18A C 0.9008(10) 1.1864(10) 0.3745(10)
H17A H 0.9602 1.1911 0.3260
C19A C 0.7750(10) 1.1890(11) 0.3446(9)
H18A H 0.7499 1.1924 0.2744
C20A C 0.6879(9) 1.1867(10) 0.4180(9)
H19A H 0.6041 1.1887 0.3972
C21A C 0.5580(8) 1.3431(9) 0.6886(8)
C22A C 0.4927(9) 1.3930(10) 0.6203(10)
H20A H 0.4756 1.3431 0.5402
C23A C 0.4533(12) 1.5188(11) 0.6736(13)
H21A H 0.4088 1.5528 0.6290
C24A C 0.4801(13) 1.5935(11) 0.7927(13)
H22A H 0.4548 1.6779 0.8274
C25A C 0.5443(13) 1.5429(11) 0.8602(11)
H23A H 0.5610 1.5932 0.9402
C26A C 0.5837(11) 1.4187(10) 0.8097(10)
H24A H 0.6268 1.3850 0.8553
C27A C 0.3962(8) 1.0828(9) -0.0379(9)
loop_
_geom_bond_atom_site_label_1
_geom_bond_atom_site_label_2
_geom_bond_site_symmetry_1
_geom_bond_site_symmetry_2
Cd1 O1 1_555 1_555
O1 P1 1_555 1_555
O2 Cd1 1_555 1_555
P1 C1 1_555 1_555
P2 O2 1_555 1_555
N1 O3 1_555 1_555
O3 Cd1 1_555 1_555
O4 Cd1 1_555 1_555
O5 N1 1_555 1_555
N2 C27 1_555 1_555
S1 Cd1 1_555 1_555
C1 H1 1_555 1_555
H2 C1 1_555 1_555
C2 P2 1_555 1_555
H3 C2 1_555 1_555
H4 C2 1_555 1_555
C3 P1 1_555 1_555
C4 C3 1_555 1_555
H5 C4 1_555 1_555
C5 C4 1_555 1_555
H6 C5 1_555 1_555
C6 C5 1_555 1_555
H7 C6 1_555 1_555
C7 C6 1_555 1_555
H8 C7 1_555 1_555
C8 C3 1_555 1_555
H9 C8 1_555 1_555
C9 P1 1_555 1_555
C10 C9 1_555 1_555
H10 C10 1_555 1_555
C11 C10 1_555 1_555
H11 C11 1_555 1_555
C12 C11 1_555 1_555
H12 C12 1_555 1_555
C13 C12 1_555 1_555
H13 C13 1_555 1_555
C14 C9 1_555 1_555
H14 C14 1_555 1_555
C15 P2 1_555 1_555
C16 C15 1_555 1_555
H15 C16 1_555 1_555
C17 C16 1_555 1_555
H16 C17 1_555 1_555
C18 C17 1_555 1_555
H17 C18 1_555 1_555
C19 C18 1_555 1_555
H18 C19 1_555 1_555
C20 C15 1_555 1_555
H19 C20 1_555 1_555
C21 P2 1_555 1_555
C22 C21 1_555 1_555
H20 C22 1_555 1_555
C23 C22 1_555 1_555
H21 C23 1_555 1_555
C24 C23 1_555 1_555
H22 C24 1_555 1_555
C25 C24 1_555 1_555
H23 C25 1_555 1_555
C26 C21 1_555 1_555
H24 C26 1_555 1_555
C27 S1 1_555 1_555
Cd1A O1A 1_555 1_555
Cd1A_2 N2 1_555 1_555
Cd1A_3 O2A 1_555 1_555
O1A P1A 1_555 1_555
O2A P2A 1_555 1_555
O2A_2 Cd1A 1_555 1_555
P1A C1A 1_555 1_555
P2A C2A 1_555 1_555
N1A O3A 1_555 1_555
O3A Cd1A 1_555 1_555
O4A Cd1A 1_555 1_555
O5A N1A 1_555 1_555
N2A Cd1 1_555 1_555
N2_2 Cd1A 1_555 1_555
S1A Cd1A_2 1_555 1_555
S1A_2 Cd1A 1_555 1_555
C1A C1 1_555 1_555
H1A C1A 1_555 1_555
H2A C1A 1_555 1_555
C2A C2 1_555 1_555
H3A C2A 1_555 1_555
H4A C2A 1_555 1_555
C3A P1A 1_555 1_555
C4A C3A 1_555 1_555
H5A C4A 1_555 1_555
C5A C4A 1_555 1_555
H6A C5A 1_555 1_555
C6A C5A 1_555 1_555
H7A C6A 1_555 1_555
C7A C6A 1_555 1_555
H8A C7A 1_555 1_555
C8A C3A 1_555 1_555
H9A C8A 1_555 1_555
C9A P1A 1_555 1_555
C10A C9A 1_555 1_555
H10A C10A 1_555 1_555
C11A C10A 1_555 1_555
H11A C11A 1_555 1_555
C12A C11A 1_555 1_555
H12A C12A 1_555 1_555
C13A C12A 1_555 1_555
H13A C13A 1_555 1_555
C14A C9A 1_555 1_555
H14A C14A 1_555 1_555
C15A P2A 1_555 1_555
C16A C15A 1_555 1_555
H15A C16A 1_555 1_555
C17A C16A 1_555 1_555
H16A C17A 1_555 1_555
C18A C17A 1_555 1_555
H17A C18A 1_555 1_555
C19A C18A 1_555 1_555
H18A C19A 1_555 1_555
C20A C15A 1_555 1_555
H19A C20A 1_555 1_555
C21A P2A 1_555 1_555
C22A C21A 1_555 1_555
H20A C22A 1_555 1_555
C23A C22A 1_555 1_555
H21A C23A 1_555 1_555
C24A C23A 1_555 1_555
H22A C24A 1_555 1_555
C25A C24A 1_555 1_555
H23A C25A 1_555 1_555
C26A C21A 1_555 1_555
H24A C26A 1_555 1_555
C27A N2A 1_555 1_555
N1 O4 1_555 1_555
C7 C8 1_555 1_555
C13 C14 1_555 1_555
C19 C20 1_555 1_555
C25 C26 1_555 1_555
N1A O4A 1_555 1_555
S1A C27A 1_555 1_555
C7A C8A 1_555 1_555
C13A C14A 1_555 1_555
C19A C20A 1_555 1_555
C25A C26A 1_555 1_555

#END
