
#######################################################################
#
#                 Cambridge Crystallographic Data Centre
#                                CCDC 
#
#######################################################################
#
# If this CIF has been generated from an entry in the Cambridge 
# Structural Database, then it will include bibliographic, chemical, 
# crystal, experimental, refinement or atomic coordinate data resulting 
# from the CCDC's data processing and validation procedures.
#
#######################################################################

data_LUTZUX
_symmetry_cell_setting           triclinic
_symmetry_space_group_name_H-M   'P -1'
_symmetry_Int_Tables_number      2
_space_group_name_Hall           '-P 1'
loop_
_symmetry_equiv_pos_site_id
_symmetry_equiv_pos_as_xyz
1 x,y,z
2 -x,-y,-z
_cell_length_a                   8.9578(3)
_cell_length_b                   10.2101(4)
_cell_length_c                   28.0127(10)
_cell_angle_alpha                91.280(3)
_cell_angle_beta                 97.177(3)
_cell_angle_gamma                98.179(3)
_cell_volume                     2514.01
loop_
_atom_site_label
_atom_site_type_symbol
_atom_site_fract_x
_atom_site_fract_y
_atom_site_fract_z
Eu1 Eu 0.49754(6) 0.15467(5) 0.24216(2)
C1 C 0.4862(14) -0.0152(13) 0.3463(4)
O1 O 0.5530(9) 0.0570(8) 0.3180(3)
O2 O 0.3397(9) -0.0663(8) 0.2487(3)
C2 C 0.5525(15) -0.0029(15) 0.3978(5)
C3 C 0.5900(16) -0.1105(17) 0.4234(5)
H1 H 0.566 -0.1973 0.409
C4 C 0.6623(19) -0.091(2) 0.4698(6)
H2 H 0.692 -0.1645 0.4867
C5 C 0.6926(18) 0.033(2) 0.4923(6)
H3 H 0.7416 0.0435 0.5245
C6 C 0.652(2) 0.141(2) 0.4684(6)
H4 H 0.6702 0.2263 0.4842
C7 C 0.5843(17) 0.1240(18) 0.4203(5)
H5 H 0.5598 0.1985 0.403
C8 C 0.3568(14) -0.1131(13) 0.3309(5)
C9 C 0.2795(15) -0.1830(14) 0.3666(5)
N1 N 0.2155(16) -0.2336(15) 0.3951(5)
C10 C 0.2987(13) -0.1398(12) 0.2810(4)
C11 C 0.1849(14) -0.2598(12) 0.2657(4)
C12 C 0.1959(16) -0.3828(13) 0.2851(5)
H6 H 0.2729 -0.3896 0.3111
C13 C 0.0982(18) -0.4956(14) 0.2676(5)
H7 H 0.1086 -0.579 0.281
C14 C -0.0154(18) -0.4842(15) 0.2301(6)
H8 H -0.0826 -0.561 0.2173
C15 C -0.0323(17) -0.3634(15) 0.2110(5)
H9 H -0.1142 -0.3554 0.1867
C16 C 0.0728(15) -0.2524(12) 0.2279(5)
H10 H 0.0667 -0.1703 0.213
C17 C 0.1666(13) 0.1554(11) 0.2888(4)
O3 O 0.3059(8) 0.1949(8) 0.2897(3)
C18 C 0.1119(13) 0.1468(14) 0.3372(4)
C19 C 0.0048(15) 0.0443(16) 0.3480(5)
H11 H -0.0434 -0.0193 0.3236
C20 C -0.0325(18) 0.0343(19) 0.3944(6)
H12 H -0.1054 -0.0371 0.4017
C21 C 0.0349(18) 0.1266(19) 0.4303(6)
H13 H 0.0079 0.1197 0.462
C22 C 0.143(2) 0.2297(17) 0.4196(5)
H14 H 0.1885 0.2938 0.4441
C23 C 0.1839(16) 0.2405(16) 0.3736(5)
H15 H 0.2597 0.3099 0.3667
C24 C 0.0644(12) 0.1235(11) 0.2450(4)
C25 C -0.0942(12) 0.1129(11) 0.2478(4)
N2 N -0.2236(11) 0.1052(10) 0.2499(4)
C26 C 0.1189(12) 0.1199(11) 0.1990(4)
O4 O 0.2573(9) 0.1475(9) 0.1942(3)
C27 C 0.0131(13) 0.0787(13) 0.1534(4)
C28 C -0.1178(14) -0.0160(14) 0.1510(5)
H16 H -0.152 -0.0521 0.1794
C29 C -0.1957(17) -0.0553(18) 0.1055(6)
H17 H -0.2842 -0.1197 0.1035
C30 C -0.1520(16) -0.0066(16) 0.0645(5)
H18 H -0.21 -0.0352 0.0344
C31 C -0.0186(18) 0.0879(18) 0.0664(5)
H19 H 0.0144 0.1226 0.0377
C32 C 0.0617(15) 0.1280(13) 0.1104(5)
H20 H 0.1519 0.1903 0.112
C33 C 0.4584(12) 0.0342(11) 0.1310(4)
O5 O 0.4990(9) 0.0106(8) 0.1741(3)
C34 C 0.3677(13) -0.0769(12) 0.0996(4)
C35 C 0.4015(15) -0.1132(12) 0.0544(4)
H21 H 0.4899 -0.0698 0.0427
C36 C 0.3065(16) -0.2122(14) 0.0265(5)
H22 H 0.3275 -0.2345 -0.0049
C37 C 0.1790(15) -0.2797(14) 0.0445(5)
H23 H 0.1154 -0.35 0.026
C38 C 0.1471(15) -0.2430(13) 0.0892(5)
H24 H 0.0578 -0.285 0.1008
C39 C 0.2427(14) -0.1464(13) 0.1174(5)
H25 H 0.2234 -0.127 0.1492
C40 C 0.4897(13) 0.1589(11) 0.1113(4)
C41 C 0.4224(16) 0.1815(12) 0.0638(5)
N3 N 0.3603(14) 0.2000(13) 0.0263(4)
C42 C 0.5938(13) 0.2649(12) 0.1370(4)
O6 O 0.6391(10) 0.2651(8) 0.1807(3)
C43 C 0.6598(14) 0.3783(12) 0.1076(4)
C44 C 0.8139(16) 0.3855(13) 0.1019(5)
H26 H 0.8744 0.3266 0.1179
C45 C 0.8768(16) 0.4798(13) 0.0724(5)
H27 H 0.9806 0.4844 0.0677
C46 C 0.7900(18) 0.5666(14) 0.0500(5)
H28 H 0.8347 0.6318 0.0304
C47 C 0.6396(16) 0.5601(13) 0.0557(5)
H29 H 0.5808 0.6212 0.0403
C48 C 0.5716(16) 0.4626(14) 0.0845(5)
H30 H 0.4665 0.4557 0.0878
N4 N 0.6637(12) 0.3444(11) 0.2984(4)
C49 C 0.6555(14) 0.4744(12) 0.2890(5)
C50 C 0.7485(17) 0.5812(12) 0.3163(5)
C51 C 0.8528(17) 0.5472(16) 0.3539(6)
H31 H 0.9195 0.6149 0.3728
C52 C 0.8590(17) 0.4171(15) 0.3634(5)
H32 H 0.9284 0.3941 0.3893
C53 C 0.7609(16) 0.3170(14) 0.3344(5)
H33 H 0.7659 0.2269 0.3412
C54 C 0.738(2) 0.7155(13) 0.3031(6)
H34 H 0.7994 0.7875 0.3215
N5 N 0.4467(13) 0.4031(10) 0.2258(4)
C55 C 0.5503(12) 0.5050(11) 0.2496(4)
C56 C 0.5452(14) 0.6385(12) 0.2376(5)
C57 C 0.443(2) 0.6681(14) 0.1986(6)
H35 H 0.4395 0.7568 0.1895
C58 C 0.3488(17) 0.5642(14) 0.1740(5)
H36 H 0.2794 0.5794 0.1469
C59 C 0.3558(15) 0.4345(12) 0.1894(5)
H37 H 0.2888 0.3646 0.1718
C60 C 0.6445(18) 0.7371(14) 0.2658(6)
H38 H 0.6432 0.8263 0.2571
Eu1_2 Eu -0.50246(6) 0.15467(5) 0.24216(2)
N2_2 N 0.7764(11) 0.1052(10) 0.2499(4)
O7 O 0.974(3) 0.435(3) 0.5118(8)
loop_
_geom_bond_atom_site_label_1
_geom_bond_atom_site_label_2
_geom_bond_site_symmetry_1
_geom_bond_site_symmetry_2
Eu1 O1 1_555 1_555
C1 O1 1_555 1_555
O2 Eu1 1_555 1_555
C2 C1 1_555 1_555
C3 C2 1_555 1_555
H1 C3 1_555 1_555
C4 C3 1_555 1_555
H2 C4 1_555 1_555
C5 C4 1_555 1_555
H3 C5 1_555 1_555
C6 C5 1_555 1_555
H4 C6 1_555 1_555
C7 C2 1_555 1_555
H5 C7 1_555 1_555
C8 C1 1_555 1_555
C9 C8 1_555 1_555
N1 C9 1_555 1_555
C10 O2 1_555 1_555
C11 C10 1_555 1_555
C12 C11 1_555 1_555
H6 C12 1_555 1_555
C13 C12 1_555 1_555
H7 C13 1_555 1_555
C14 C13 1_555 1_555
H8 C14 1_555 1_555
C15 C14 1_555 1_555
H9 C15 1_555 1_555
C16 C11 1_555 1_555
H10 C16 1_555 1_555
C17 O3 1_555 1_555
O3 Eu1 1_555 1_555
C18 C17 1_555 1_555
C19 C18 1_555 1_555
H11 C19 1_555 1_555
C20 C19 1_555 1_555
H12 C20 1_555 1_555
C21 C20 1_555 1_555
H13 C21 1_555 1_555
C22 C21 1_555 1_555
H14 C22 1_555 1_555
C23 C18 1_555 1_555
H15 C23 1_555 1_555
C24 C17 1_555 1_555
C25 C24 1_555 1_555
N2 C25 1_555 1_555
C26 C24 1_555 1_555
O4 Eu1 1_555 1_555
C27 C26 1_555 1_555
C28 C27 1_555 1_555
H16 C28 1_555 1_555
C29 C28 1_555 1_555
H17 C29 1_555 1_555
C30 C29 1_555 1_555
H18 C30 1_555 1_555
C31 C30 1_555 1_555
H19 C31 1_555 1_555
C32 C27 1_555 1_555
H20 C32 1_555 1_555
C33 O5 1_555 1_555
O5 Eu1 1_555 1_555
C34 C33 1_555 1_555
C35 C34 1_555 1_555
H21 C35 1_555 1_555
C36 C35 1_555 1_555
H22 C36 1_555 1_555
C37 C36 1_555 1_555
H23 C37 1_555 1_555
C38 C37 1_555 1_555
H24 C38 1_555 1_555
C39 C34 1_555 1_555
H25 C39 1_555 1_555
C40 C33 1_555 1_555
C41 C40 1_555 1_555
N3 C41 1_555 1_555
C42 C40 1_555 1_555
O6 Eu1 1_555 1_555
C43 C42 1_555 1_555
C44 C43 1_555 1_555
H26 C44 1_555 1_555
C45 C44 1_555 1_555
H27 C45 1_555 1_555
C46 C45 1_555 1_555
H28 C46 1_555 1_555
C47 C46 1_555 1_555
H29 C47 1_555 1_555
C48 C43 1_555 1_555
H30 C48 1_555 1_555
N4 Eu1 1_555 1_555
C49 N4 1_555 1_555
C50 C49 1_555 1_555
C51 C50 1_555 1_555
H31 C51 1_555 1_555
C52 C51 1_555 1_555
H32 C52 1_555 1_555
C53 N4 1_555 1_555
H33 C53 1_555 1_555
C54 C50 1_555 1_555
H34 C54 1_555 1_555
N5 Eu1 1_555 1_555
C55 C49 1_555 1_555
C56 C55 1_555 1_555
C57 C56 1_555 1_555
H35 C57 1_555 1_555
C58 C57 1_555 1_555
H36 C58 1_555 1_555
C59 N5 1_555 1_555
H37 C59 1_555 1_555
C60 C54 1_555 1_555
H38 C60 1_555 1_555
Eu1_2 N2 1_555 1_555
N2_2 Eu1 1_555 1_555
C6 C7 1_555 1_555
C8 C10 1_555 1_555
C15 C16 1_555 1_555
C22 C23 1_555 1_555
C26 O4 1_555 1_555
C31 C32 1_555 1_555
C38 C39 1_555 1_555
C42 O6 1_555 1_555
C47 C48 1_555 1_555
C52 C53 1_555 1_555
N5 C55 1_555 1_555
C56 C60 1_555 1_555
C58 C59 1_555 1_555

#END
