
#######################################################################
#
#                 Cambridge Crystallographic Data Centre
#                                CCDC 
#
#######################################################################
#
# If this CIF has been generated from an entry in the Cambridge 
# Structural Database, then it will include bibliographic, chemical, 
# crystal, experimental, refinement or atomic coordinate data resulting 
# from the CCDC's data processing and validation procedures.
#
#######################################################################

data_LUVKET01
_symmetry_cell_setting           triclinic
_symmetry_space_group_name_H-M   'P -1'
_symmetry_Int_Tables_number      2
_space_group_name_Hall           '-P 1'
loop_
_symmetry_equiv_pos_site_id
_symmetry_equiv_pos_as_xyz
1 x,y,z
2 -x,-y,-z
_cell_length_a                   3.98700(10)
_cell_length_b                   9.3096(3)
_cell_length_c                   14.0166(4)
_cell_angle_alpha                82.6450(10)
_cell_angle_beta                 87.2350(10)
_cell_angle_gamma                88.4050(10)
_cell_volume                     515.255
loop_
_atom_site_label
_atom_site_type_symbol
_atom_site_fract_x
_atom_site_fract_y
_atom_site_fract_z
Hg1 Hg 0.94262(5) 1.22645(2) 0.304790(13)
Br1 Br 0.31858(12) 1.17715(6) 0.44107(3)
Br2 Br 0.59423(12) 1.34378(5) 0.17460(3)
Br3 Br 1.26540(14) 0.57706(6) 0.38471(4)
Br4 Br 0.71239(13) 0.78232(6) 0.02654(3)
N1 N 0.9715(11) 0.9802(5) 0.2579(3)
C1 C 1.1045(13) 0.7295(6) 0.2953(3)
C2 C 0.8708(12) 0.8155(6) 0.1462(3)
C3 C 0.8628(13) 0.9540(6) 0.1729(3)
H1 H 0.7782 1.0324 0.1299
C4 C 1.0919(13) 0.8698(5) 0.3183(3)
H2 H 1.1704 0.8883 0.3784
C5 C 0.9959(13) 0.6985(6) 0.2081(3)
H3 H 1.0057 0.6029 0.1911
Hg1_2 Hg -0.05738(5) 1.22645(2) 0.304790(13)
Br1_2 Br 1.31858(12) 1.17715(6) 0.44107(3)
Br2_2 Br 1.59423(12) 1.34378(5) 0.17460(3)
loop_
_geom_bond_atom_site_label_1
_geom_bond_atom_site_label_2
_geom_bond_site_symmetry_1
_geom_bond_site_symmetry_2
Hg1 Br1 1_555 1_555
Br1 Hg1_2 1_555 1_555
Br2 Hg1 1_555 1_555
Br3 C1 1_555 1_555
Br4 C2 1_555 1_555
N1 Hg1 1_555 1_555
C1 C4 1_555 1_555
C2 C3 1_555 1_555
C3 N1 1_555 1_555
H1 C3 1_555 1_555
C4 N1 1_555 1_555
H2 C4 1_555 1_555
C5 C1 1_555 1_555
H3 C5 1_555 1_555
Hg1_2 Br2 1_555 1_555
Br1_2 Hg1 1_555 1_555
Br2_2 Hg1 1_555 1_555
C2 C5 1_555 1_555

#END
