
#######################################################################
#
#                 Cambridge Crystallographic Data Centre
#                                CCDC 
#
#######################################################################
#
# If this CIF has been generated from an entry in the Cambridge 
# Structural Database, then it will include bibliographic, chemical, 
# crystal, experimental, refinement or atomic coordinate data resulting 
# from the CCDC's data processing and validation procedures.
#
#######################################################################

data_LUVLUJ
_symmetry_cell_setting           monoclinic
_symmetry_space_group_name_H-M   'C 2/m'
_symmetry_Int_Tables_number      12
_space_group_name_Hall           '-C 2y'
loop_
_symmetry_equiv_pos_site_id
_symmetry_equiv_pos_as_xyz
1 x,y,z
2 1/2+x,1/2+y,z
3 -x,y,-z
4 1/2-x,1/2+y,-z
5 -x,-y,-z
6 1/2-x,1/2-y,-z
7 x,-y,z
8 1/2+x,1/2-y,z
_cell_length_a                   15.3759(3)
_cell_length_b                   18.8359(6)
_cell_length_c                   14.1292(2)
_cell_angle_alpha                90
_cell_angle_beta                 90.324(2)
_cell_angle_gamma                90
_cell_volume                     4092.02
loop_
_atom_site_label
_atom_site_type_symbol
_atom_site_fract_x
_atom_site_fract_y
_atom_site_fract_z
Cu1 Cu 0.16884(6) 0.27839(5) -0.13074(7)
O1 O 0.2009(4) 0.1897(3) -0.1947(4)
O2 O 0.1875(4) 0.1282(3) -0.0615(4)
O3 O 0.291(2) 0.0000 -0.4978(15)
O4 O 0.177(2) 0.0607(10) -0.5053(9)
O5 O 0.1411(4) -0.3681(3) -0.0683(4)
O6 O 0.0975(4) -0.3104(3) 0.0601(4)
O7 O -0.1286(7) -0.5000 0.2545(8)
O8 O -0.0252(7) -0.5632(5) 0.3409(6)
O9 O 0.0458(4) 0.2488(4) -0.1379(5)
O10 O 0.1709(5) 0.3338(4) -0.2711(5)
O11 O 0.2919(4) 0.2945(3) -0.0925(4)
C1 C 0.1974(5) 0.1324(4) -0.1487(6)
C2 C 0.2025(5) 0.0643(4) -0.2036(5)
C3 C 0.2059(6) 0.0641(4) -0.3012(6)
H1 H 0.2078 0.1066 -0.3345
C4 C 0.2065(11) 0.0000 -0.3488(8)
C5 C 0.1999(7) 0.0000 -0.1562(8)
H2 H 0.1962 0.0000 -0.0906
C6 C 0.1114(5) -0.3663(4) 0.0148(6)
C7 C 0.0901(5) -0.4360(4) 0.0609(5)
C8 C 0.0480(5) -0.4361(4) 0.1477(6)
H3 H 0.0355 -0.3935 0.1779
C9 C 0.0248(7) -0.5000 0.1891(8)
C10 C 0.1098(7) -0.5000 0.0164(8)
H4 H 0.1360 -0.5000 -0.0428
S1 S 0.2070(6) 0.0000 -0.4756(3)
S2 S -0.0416(2) -0.5000 0.2904(2)
C3F C 0.2059(6) -0.0641(4) -0.3012(6)
C2F C 0.2025(5) -0.0643(4) -0.2036(5)
C1F C 0.1974(5) -0.1324(4) -0.1487(6)
O1F O 0.2009(4) -0.1897(3) -0.1947(4)
Cu1F Cu 0.16884(6) -0.27839(5) -0.13074(7)
O5F O 0.1411(4) 0.3681(3) -0.0683(4)
C8F C 0.0480(5) -0.5639(4) 0.1477(6)
C7F C 0.0901(5) -0.5640(4) 0.0609(5)
C6F C 0.1114(5) -0.6337(4) 0.0148(6)
O5F_2 O 0.1411(4) -0.6319(3) -0.0683(4)
Cu1_2 Cu 0.16884(6) -0.72161(5) -0.13074(7)
O6F O 0.0975(4) -0.6896(3) 0.0601(4)
H3F H 0.0355 -0.6065 0.1779
O8F O -0.0252(7) -0.4368(5) 0.3409(6)
O9F O 0.0458(4) -0.2488(4) -0.1379(5)
O10F O 0.1709(5) -0.3338(4) -0.2711(5)
O11F O 0.2919(4) -0.2945(3) -0.0925(4)
O2F O 0.1875(4) -0.1282(3) -0.0615(4)
H1F H 0.2078 -0.1066 -0.3345
O4F O 0.177(2) -0.0607(10) -0.5053(9)
O12 O -0.0168(6) 0.2024(5) -0.3012(7)
O13 O -0.1642(9) 0.2813(7) -0.3300(8)
O14 O 0.0908(13) 0.6218(9) 0.4672(12)
O15 O 0.1003(15) 0.2469(14) -0.4334(13)
O16 O 0.229(4) 0.193(2) -0.540(3)
O17 O 0.0000 0.117(2) -0.5000
N1 N 0.0646(5) 0.0643(4) 0.2314(5)
C11 C 0.1562(6) 0.0655(5) 0.2522(7)
H5 H 0.1652 0.0670 0.3202
H6 H 0.1822 0.1076 0.2250
C12 C 0.1836(8) 0.0000 0.1044(9)
H7 H 0.2101 0.0417 0.0765
C13 C 0.0511(6) 0.0636(5) 0.1282(6)
H8 H 0.0759 0.1061 0.1007
H9 H -0.0107 0.0633 0.1142
C14 C 0.0259(8) 0.0000 0.2713(9)
H10 H 0.0341 0.0000 0.3394
H11 H -0.0362 0.0000 0.2585
N2 N 0.1993(7) 0.0000 0.2119(8)
N3 N 0.0924(7) 0.0000 0.0856(7)
H7F H 0.2101 -0.0417 0.0765
C11F C 0.1562(6) -0.0655(5) 0.2522(7)
N1F N 0.0646(5) -0.0643(4) 0.2314(5)
C13F C 0.0511(6) -0.0636(5) 0.1282(6)
H8F H 0.0759 -0.1061 0.1007
H9F H -0.0107 -0.0633 0.1142
H5F H 0.1652 -0.0670 0.3202
H6F H 0.1822 -0.1076 0.2250
loop_
_geom_bond_atom_site_label_1
_geom_bond_atom_site_label_2
_geom_bond_site_symmetry_1
_geom_bond_site_symmetry_2
Cu1 O1 1_555 1_555
O1 C1 1_555 1_555
O2 C1 1_555 1_555
O3 S1 1_555 1_555
O4 S1 1_555 1_555
O5 C6 1_555 1_555
O6 C6 1_555 1_555
O7 S2 1_555 1_555
O8 S2 1_555 1_555
O9 Cu1 1_555 1_555
O10 Cu1 1_555 1_555
O11 Cu1 1_555 1_555
C1 C2 1_555 1_555
C2 C3 1_555 1_555
C3 H1 1_555 1_555
C4 C3 1_555 1_555
C5 C2 1_555 1_555
H2 C5 1_555 1_555
C6 C7 1_555 1_555
C7 C8 1_555 1_555
C8 H3 1_555 1_555
C9 C8 1_555 1_555
C10 C7 1_555 1_555
H4 C10 1_555 1_555
S1 C4 1_555 1_555
S2 C9 1_555 1_555
N1 C11 1_555 1_555
C11 H5 1_555 1_555
H6 C11 1_555 1_555
C12 H7 1_555 1_555
C13 N1 1_555 1_555
H8 C13 1_555 1_555
H9 C13 1_555 1_555
C14 N1 1_555 1_555
H10 C14 1_555 1_555
H11 C14 1_555 1_555
N2 C11 1_555 1_555
N3 C12 1_555 1_555
C3F C4 1_555 1_555
C2F C5 1_555 1_555
C1F C2F 1_555 1_555
O1F C1F 1_555 1_555
Cu1F O5 1_555 1_555
O5F Cu1 1_555 1_555
C8F C9 1_555 1_555
C7F C10 1_555 1_555
C6F C7F 1_555 1_555
O5F_2 C6F 1_555 1_555
Cu1_2 O5F_2 1_555 1_555
O6F C6F 1_555 1_555
H3F C8F 1_555 1_555
O8F S2 1_555 1_555
O9F Cu1F 1_555 1_555
O10F Cu1F 1_555 1_555
O11F Cu1F 1_555 1_555
O2F C1F 1_555 1_555
H1F C3F 1_555 1_555
O4F S1 1_555 1_555
H7F C12 1_555 1_555
C11F N2 1_555 1_555
N1F C14 1_555 1_555
C13F N3 1_555 1_555
H8F C13F 1_555 1_555
H9F C13F 1_555 1_555
H5F C11F 1_555 1_555
H6F C11F 1_555 1_555
C12 N2 1_555 1_555
C13 N3 1_555 1_555
C3F C2F 1_555 1_555
O1F Cu1F 1_555 1_555
C8F C7F 1_555 1_555
C11F N1F 1_555 1_555
N1F C13F 1_555 1_555

#END
