
#######################################################################
#
#                 Cambridge Crystallographic Data Centre
#                                CCDC 
#
#######################################################################
#
# If this CIF has been generated from an entry in the Cambridge 
# Structural Database, then it will include bibliographic, chemical, 
# crystal, experimental, refinement or atomic coordinate data resulting 
# from the CCDC's data processing and validation procedures.
#
#######################################################################

data_LUVWUU
_symmetry_cell_setting           rhombohedral
_symmetry_space_group_name_H-M   'R -3'
_symmetry_Int_Tables_number      148
_space_group_name_Hall           '-R 3'
loop_
_symmetry_equiv_pos_site_id
_symmetry_equiv_pos_as_xyz
1 x,y,z
2 -y,x-y,z
3 -x+y,-x,z
4 2/3+x,1/3+y,1/3+z
5 2/3-y,1/3+x-y,1/3+z
6 2/3-x+y,1/3-x,1/3+z
7 1/3+x,2/3+y,2/3+z
8 2/3+y,1/3-x+y,1/3-z
9 2/3+x-y,1/3+x,1/3-z
10 -x,-y,-z
11 y,-x+y,-z
12 x-y,x,-z
13 1/3-x,2/3-y,2/3-z
14 1/3+y,2/3-x+y,2/3-z
15 1/3+x-y,2/3+x,2/3-z
16 2/3-x,1/3-y,1/3-z
17 1/3-y,2/3+x-y,2/3+z
18 1/3-x+y,2/3-x,2/3+z
_cell_length_a                   31.3014(18)
_cell_length_b                   31.3014(18)
_cell_length_c                   12.7921(11)
_cell_angle_alpha                90
_cell_angle_beta                 90
_cell_angle_gamma                120.00
_cell_volume                     10854.3
loop_
_atom_site_label
_atom_site_type_symbol
_atom_site_fract_x
_atom_site_fract_y
_atom_site_fract_z
Ag1 Ag 0.132685(19) 0.538318(17) 0.14092(4)
C1 C 0.12263(17) 0.62202(15) 0.3043(4)
C2 C 0.0705(3) 0.5562(2) 0.4366(5)
H1 H 0.0664 0.5762 0.4870
C3 C 0.0534(3) 0.5067(2) 0.4442(6)
H2 H 0.0355 0.4855 0.5006
C4 C 0.0677(2) 0.49418(19) 0.3517(5)
H3 H 0.0603 0.4617 0.3343
C5 C 0.1025(2) 0.61448(19) 0.0333(4)
H4 H 0.1066 0.6061 -0.0359
C6 C 0.0729(2) 0.63491(19) 0.0604(5)
H5 H 0.0537 0.6425 0.0147
C7 C 0.07757(18) 0.64144(18) 0.1650(4)
H6 H 0.0620 0.6546 0.2076
C8 C 0.2522(2) 0.6797(2) 0.2814(6)
H7 H 0.2835 0.7047 0.2569
C9 C 0.2452(2) 0.6412(2) 0.3486(6)
H8 H 0.2698 0.6357 0.3786
C10 C 0.1954(2) 0.6137(2) 0.3615(5)
H9 H 0.1784 0.5847 0.4026
C11 C 0.11331(19) 0.65514(17) 0.3780(4)
H10 H 0.0774 0.6420 0.3848
H11 H 0.1266 0.6551 0.4482
C12 C 0.1274(2) 0.73387(17) 0.4130(4)
H12 H 0.1434 0.7351 0.4807
H13 H 0.0916 0.7193 0.4252
C13 C 0.14847(17) 0.78519(17) 0.3693(4)
C14 C 0.17161(19) 0.82479(17) 0.4390(4)
H14 H 0.1747 0.8191 0.5108
C15 C 0.14312(18) 0.79354(17) 0.2656(4)
H15 H 0.1267 0.7664 0.2192
N1 N 0.12392(17) 0.60852(15) 0.1166(4)
N2 N 0.10867(14) 0.62561(13) 0.1980(3)
N3 N 0.09410(15) 0.57132(14) 0.3447(3)
N4 N 0.09276(17) 0.53293(14) 0.2912(4)
N5 N 0.20955(16) 0.67649(16) 0.2563(4)
N6 N 0.17465(15) 0.63518(14) 0.3053(3)
O2 O 0.13600(13) 0.70367(11) 0.3395(3)
C15L C 0.19021(18) 0.87313(17) 0.4011(4)
C13L C 0.18486(17) 0.88148(17) 0.2974(4)
C12L C 0.2059(2) 0.93280(17) 0.2537(4)
H12L H 0.1899 0.9316 0.1860
H13L H 0.2417 0.9474 0.2415
O2L O 0.19733(13) 0.96300(11) 0.3272(3)
C11L C 0.22002(19) 1.01153(17) 0.2887(4)
C1L C 0.21070(17) 1.04465(15) 0.3624(4)
N2L N 0.22466(14) 1.04106(13) 0.4687(3)
C7L C 0.25576(18) 1.02523(18) 0.5017(4)
C6L C 0.2604(2) 1.03176(19) 0.6063(5)
C5L C 0.2308(2) 1.05219(19) 0.6334(4)
H4L H 0.2267 1.0606 0.7026
N1L N 0.20941(17) 1.05815(15) 0.5501(4)
H5L H 0.2796 1.0242 0.6520
H6L H 0.2713 1.0121 0.4591
N3L N 0.23923(15) 1.09535(14) 0.3220(3)
C2L C 0.2628(3) 1.1105(2) 0.2301(5)
H1L H 0.2669 1.0905 0.1797
C3L C 0.2799(3) 1.1600(2) 0.2225(6)
H2L H 0.2978 1.1812 0.1661
C4L C 0.2656(2) 1.17249(19) 0.3150(5)
H3L H 0.2730 1.2050 0.3324
N4L N 0.24057(17) 1.13374(14) 0.3755(4)
N6L N 0.15868(15) 1.03149(14) 0.3614(3)
C10L C 0.1379(2) 1.0530(2) 0.3052(5)
C9L C 0.0881(2) 1.0255(2) 0.3181(6)
C8L C 0.0811(2) 0.9870(2) 0.3853(6)
H7L H 0.0498 0.9620 0.4098
N5L N 0.12378(16) 0.99018(16) 0.4104(4)
H8L H 0.0635 1.0310 0.2881
H9L H 0.1549 1.0820 0.2641
H10L H 0.2559 1.0247 0.2819
H11L H 0.2067 1.0116 0.2185
C14L C 0.16172(19) 0.84188(17) 0.2277(4)
H14L H 0.1586 0.8476 0.1559
H15L H 0.2066 0.9003 0.4475
C1H C 0.16728(23) 0.45596(17) 0.0290(4)
C2H C 0.1810(4) 0.4038(3) -0.1033(5)
H1H H 0.1569 0.3997 -0.1537
C3H C 0.2134(4) 0.3867(3) -0.1109(6)
H2H H 0.2167 0.3688 -0.1673
C4H C 0.24019(28) 0.4010(2) -0.0184(5)
H3H H 0.2653 0.3936 -0.0010
C5H C 0.15469(28) 0.4358(2) 0.3000(4)
H4H H 0.1672 0.4399 0.3692
C6H C 0.10466(28) 0.4062(2) 0.2729(5)
H5H H 0.0779 0.3870 0.3186
C7H C 0.10280(25) 0.41090(18) 0.1683(4)
H6H H 0.0741 0.3953 0.1257
C8H C 0.2392(3) 0.5855(2) 0.0519(6)
H7H H 0.2455 0.6168 0.0764
C9H C 0.2707(3) 0.5785(2) -0.0153(6)
H8H H 0.3008 0.6031 -0.0453
C10H C 0.2484(3) 0.5287(2) -0.0282(5)
H9H H 0.2604 0.5117 -0.0693
C11H C 0.12484(25) 0.44664(19) -0.0447(4)
H10H H 0.1021 0.4107 -0.0515
H11H H 0.1382 0.4599 -0.1149
C12H C 0.06020(26) 0.4607(2) -0.0797(4)
H12H H 0.0750 0.4767 -0.1474
H13H H 0.0390 0.4249 -0.0919
C13H C 0.02995(24) 0.48180(17) -0.0360(4)
C14H C 0.01349(25) 0.50494(19) -0.1057(4)
H14H H 0.0223 0.5080 -0.1775
C15H C 0.01625(25) 0.47645(18) 0.0677(4)
H15H H 0.0270 0.4600 0.1141
N1H N 0.18207(23) 0.45725(17) 0.2167(4)
N2H N 0.14973(19) 0.44200(14) 0.1353(3)
N3H N 0.18945(21) 0.42743(15) -0.0114(3)
N4H N 0.22650(22) 0.42609(17) 0.0421(4)
N5H N 0.19973(23) 0.54288(16) 0.0770(4)
N6H N 0.20614(21) 0.50798(15) 0.0280(3)
O2H O 0.09900(17) 0.46933(13) -0.0062(3)
C15Q C -0.01625(25) 0.52355(18) -0.0677(4)
C13Q C -0.02995(24) 0.51820(17) 0.0360(4)
C12Q C -0.06020(26) 0.5393(2) 0.0797(4)
H12Q H -0.0750 0.5233 0.1474
H13Q H -0.0390 0.5751 0.0919
O2Q O -0.09900(17) 0.53067(13) 0.0062(3)
C11Q C -0.12484(25) 0.55336(19) 0.0447(4)
C1Q C -0.16728(23) 0.54404(17) -0.0290(4)
N2Q N -0.14973(19) 0.55800(14) -0.1353(3)
C7Q C -0.10280(25) 0.58910(18) -0.1683(4)
C6Q C -0.10466(28) 0.5938(2) -0.2729(5)
C5Q C -0.15469(28) 0.5642(2) -0.3000(4)
H4Q H -0.1672 0.5601 -0.3692
N1Q N -0.18207(23) 0.54275(17) -0.2167(4)
H5Q H -0.0779 0.6130 -0.3186
H6Q H -0.0741 0.6047 -0.1257
N3Q N -0.18945(21) 0.57257(15) 0.0114(3)
C2Q C -0.1810(4) 0.5962(3) 0.1033(5)
H1Q H -0.1569 0.6003 0.1537
C3Q C -0.2134(4) 0.6133(3) 0.1109(6)
H2Q H -0.2167 0.6312 0.1673
C4Q C -0.24019(28) 0.5990(2) 0.0184(5)
H3Q H -0.2653 0.6064 0.0010
N4Q N -0.22650(22) 0.57391(17) -0.0421(4)
N6Q N -0.20614(21) 0.49202(15) -0.0280(3)
C10Q C -0.2484(3) 0.4713(2) 0.0282(5)
C9Q C -0.2707(3) 0.4215(2) 0.0153(6)
C8Q C -0.2392(3) 0.4145(2) -0.0519(6)
H7Q H -0.2455 0.3832 -0.0764
N5Q N -0.19973(23) 0.45712(16) -0.0770(4)
H8Q H -0.3008 0.3969 0.0453
H9Q H -0.2604 0.4883 0.0693
H10Q H -0.1021 0.5893 0.0515
H11Q H -0.1382 0.5401 0.1149
C14Q C -0.01349(25) 0.49506(19) 0.1057(4)
H14Q H -0.0223 0.4920 0.1775
H15Q H -0.0270 0.5400 -0.1141
Ag1L Ag 0.200648(19) 1.128349(17) 0.52575(4)
Ag1H Ag 0.261034(25) 0.466018(19) 0.19241(4)
Ag1Q Ag -0.261034(25) 0.533982(19) -0.19241(4)
Ag1G Ag 0.204985(17) 0.738966(25) 0.19241(4)
Ag1D Ag 0.128349(17) 0.927700(25) 0.47425(4)
C1E C 0.16606(23) 1.21070(17) 0.6376(4)
C2E C 0.1524(4) 1.2628(3) 0.7699(5)
H1E H 0.1765 1.2669 0.8203
C3E C 0.1200(4) 1.2799(3) 0.7775(6)
H2E H 0.1167 1.2978 0.8339
C4E C 0.09315(28) 1.2656(2) 0.6850(5)
H3E H 0.0681 1.2730 0.6676
C5E C 0.17865(28) 1.2308(2) 0.3666(4)
H4E H 0.1662 1.2267 0.2974
C6E C 0.22868(28) 1.2604(2) 0.3937(5)
H5E H 0.2555 1.2796 0.3480
C7E C 0.23054(25) 1.25576(18) 0.4983(4)
H6E H 0.2593 1.2713 0.5409
C8E C 0.0942(3) 1.0811(2) 0.6147(6)
H7E H 0.0879 1.0498 0.5902
C9E C 0.0627(3) 1.0881(2) 0.6819(6)
H8E H 0.0326 1.0635 0.7119
C10E C 0.0850(3) 1.1379(2) 0.6948(5)
H9E H 0.0730 1.1549 0.7359
C11E C 0.20850(25) 1.22002(19) 0.7113(4)
H10E H 0.2313 1.2559 0.7181
H11E H 0.1952 1.2067 0.7815
C12E C 0.27314(26) 1.2059(2) 0.7463(4)
H12E H 0.2584 1.1899 0.8140
H13E H 0.2944 1.2417 0.7585
C13E C 0.30339(24) 1.18486(17) 0.7026(4)
C14E C 0.31985(25) 1.16172(19) 0.7723(4)
H14E H 0.3111 1.1586 0.8441
C15E C 0.31709(25) 1.19021(18) 0.5989(4)
H15E H 0.3064 1.2066 0.5525
N1E N 0.15127(23) 1.20941(17) 0.4499(4)
N2E N 0.18361(19) 1.22466(14) 0.5313(3)
N3E N 0.14389(21) 1.23923(15) 0.6780(3)
N4E N 0.10684(22) 1.24057(17) 0.6245(4)
N5E N 0.13361(23) 1.12378(16) 0.5896(4)
N6E N 0.12720(21) 1.15868(15) 0.6386(3)
O2E O 0.23434(17) 1.19733(13) 0.6728(3)
C15K C 0.34958(25) 1.14312(18) 0.7344(4)
C13K C 0.36328(24) 1.14847(17) 0.6307(4)
C12K C 0.39353(26) 1.1274(2) 0.5870(4)
H12K H 0.4083 1.1434 0.5193
H13K H 0.3723 1.0916 0.5748
O2K O 0.43233(17) 1.13600(13) 0.6605(3)
C11K C 0.45817(25) 1.11331(19) 0.6220(4)
C1K C 0.50061(23) 1.12263(17) 0.6957(4)
N2K N 0.48306(19) 1.10867(14) 0.8020(3)
C7K C 0.43613(25) 1.07757(18) 0.8350(4)
C6K C 0.43799(28) 1.0729(2) 0.9396(5)
C5K C 0.48802(28) 1.1025(2) 0.9667(4)
H4K H 0.5005 1.1066 1.0359
N1K N 0.51540(23) 1.12392(17) 0.8834(4)
H5K H 0.4112 1.0537 0.9853
H6K H 0.4074 1.0620 0.7924
N3K N 0.52278(21) 1.09410(15) 0.6553(3)
C2K C 0.5143(4) 1.0705(3) 0.5634(5)
H1K H 0.4902 1.0664 0.5130
C3K C 0.5467(4) 1.0534(3) 0.5558(6)
H2K H 0.5500 1.0355 0.4994
C4K C 0.57352(28) 1.0677(2) 0.6483(5)
H3K H 0.5986 1.0603 0.6657
N4K N 0.55983(22) 1.09276(17) 0.7088(4)
N6K N 0.53947(21) 1.17465(15) 0.6947(3)
C10K C 0.5817(3) 1.1954(2) 0.6385(5)
C9K C 0.6040(3) 1.2452(2) 0.6514(6)
C8K C 0.5725(3) 1.2522(2) 0.7186(6)
H7K H 0.5788 1.2835 0.7431
N5K N 0.53306(23) 1.20955(16) 0.7437(4)
H8K H 0.6341 1.2698 0.6214
H9K H 0.5937 1.1784 0.5974
H10K H 0.4354 1.0774 0.6152
H11K H 0.4715 1.1266 0.5518
C14K C 0.34682(25) 1.17161(19) 0.5610(4)
H14K H 0.3556 1.1747 0.4892
H15K H 0.3603 1.1267 0.7808
Ag1I Ag -0.132685(19) 0.461682(17) -0.14092(4)
N5A N 0.32351(16) 0.53306(23) 0.2563(4)
O2A O 0.29633(11) 0.43233(17) 0.3395(3)
N5J N -0.32351(16) 0.46694(23) -0.2563(4)
O2J O -0.29633(11) 0.56767(17) -0.3395(3)
N1G N 0.27519(15) 0.81793(23) 0.2167(4)
N4G N 0.19960(14) 0.77350(22) 0.0421(4)
N1D N 0.05815(15) 0.84873(23) 0.4499(4)
N4D N 0.13374(14) 0.89316(22) 0.6245(4)
Ag1E Ag 0.072300(25) 1.200648(19) 0.47425(4)
Ag1F Ag 0.466018(19) 1.204985(17) 0.80759(4)
Ag1K Ag 0.594367(25) 1.132685(19) 0.85908(4)
O1 O 0.0980(3) 0.1807(3) 0.0194(6)
C16 C 0.0930(5) 0.1652(4) 0.1154(14)
C17 C 0.0632(8) 0.1753(7) 0.1765(15)
H16 H 0.0821 0.2091 0.2030
H17 H 0.0508 0.1522 0.2354
H18 H 0.0353 0.1717 0.1348
C18 C 0.1113(5) 0.1375(4) 0.1630(10)
H19 H 0.1029 0.1337 0.2376
H20 H 0.1472 0.1544 0.1548
H21 H 0.0965 0.1049 0.1302
Sb2 Sb 0.06240(9) 0.67096(9) 0.71915(18)
F1 F 0.0610(4) 0.7084(3) 0.8308(7)
F2 F 0.0067(3) 0.6170(3) 0.7732(6)
F3 F 0.0663(4) 0.6352(4) 0.6091(6)
F4 F 0.1120(4) 0.7290(4) 0.6691(7)
F5 F 0.1010(4) 0.6582(5) 0.8037(7)
F6 F 0.0184(4) 0.6863(3) 0.6570(7)
Sb3 Sb 0.0000 0.0000 0.0000
F7 F -0.0097(10) 0.0514(7) 0.0361(14)
F7A F -0.0514(7) -0.0611(12) 0.0361(14)
F7B F 0.0611(12) 0.0097(10) 0.0361(14)
F7I F 0.0097(10) -0.0514(7) -0.0361(14)
F7J F 0.0514(7) 0.0611(12) -0.0361(14)
F7K F -0.0611(12) -0.0097(10) -0.0361(14)
Sb1? Sb 0.05970(12) 0.66494(13) 0.7133(3)
F8? F 0.0000 0.0000 0.1406(11)
loop_
_geom_bond_atom_site_label_1
_geom_bond_atom_site_label_2
_geom_bond_site_symmetry_1
_geom_bond_site_symmetry_2
Ag1 N1 1_555 1_555
C1 C11 1_555 1_555
C2 H1 1_555 1_555
C3 C2 1_555 1_555
H2 C3 1_555 1_555
C4 C3 1_555 1_555
H3 C4 1_555 1_555
C5 H4 1_555 1_555
C6 C5 1_555 1_555
H5 C6 1_555 1_555
C7 C6 1_555 1_555
H6 C7 1_555 1_555
C8 H7 1_555 1_555
C9 C8 1_555 1_555
H8 C9 1_555 1_555
C10 C9 1_555 1_555
H9 C10 1_555 1_555
C11 H10 1_555 1_555
H11 C11 1_555 1_555
C12 H12 1_555 1_555
H13 C12 1_555 1_555
C13 C12 1_555 1_555
C14 C13 1_555 1_555
H14 C14 1_555 1_555
C15 C13 1_555 1_555
H15 C15 1_555 1_555
O1 C16 1_555 1_555
C16 C17 1_555 1_555
C17 H16 1_555 1_555
H17 C17 1_555 1_555
H18 C17 1_555 1_555
C18 C16 1_555 1_555
H19 C18 1_555 1_555
H20 C18 1_555 1_555
H21 C18 1_555 1_555
N1 C5 1_555 1_555
N2 C1 1_555 1_555
N3 C1 1_555 1_555
N4 Ag1 1_555 1_555
N5 C8 1_555 1_555
N6 C1 1_555 1_555
O2 C11 1_555 1_555
Sb2 F1 1_555 1_555
F2 Sb2 1_555 1_555
F3 Sb2 1_555 1_555
F4 Sb2 1_555 1_555
F5 Sb2 1_555 1_555
F6 Sb2 1_555 1_555
Sb3 F7 1_555 1_555
C15L C14 1_555 1_555
C13L C15L 1_555 1_555
C12L C13L 1_555 1_555
H12L C12L 1_555 1_555
H13L C12L 1_555 1_555
O2L C12L 1_555 1_555
C11L O2L 1_555 1_555
C1L C11L 1_555 1_555
N2L C1L 1_555 1_555
C7L N2L 1_555 1_555
C6L C7L 1_555 1_555
C5L C6L 1_555 1_555
H4L C5L 1_555 1_555
N1L N2L 1_555 1_555
H5L C6L 1_555 1_555
H6L C7L 1_555 1_555
N3L C1L 1_555 1_555
C2L N3L 1_555 1_555
H1L C2L 1_555 1_555
C3L C2L 1_555 1_555
H2L C3L 1_555 1_555
C4L C3L 1_555 1_555
H3L C4L 1_555 1_555
N4L N3L 1_555 1_555
N6L C1L 1_555 1_555
C10L N6L 1_555 1_555
C9L C10L 1_555 1_555
C8L C9L 1_555 1_555
H7L C8L 1_555 1_555
N5L N6L 1_555 1_555
H8L C9L 1_555 1_555
H9L C10L 1_555 1_555
H10L C11L 1_555 1_555
H11L C11L 1_555 1_555
C14L C15 1_555 1_555
H14L C14L 1_555 1_555
H15L C15L 1_555 1_555
F7A Sb3 1_555 1_555
F7B Sb3 1_555 1_555
F7I Sb3 1_555 1_555
F7J Sb3 1_555 1_555
F7K Sb3 1_555 1_555
C1H C11H 1_555 1_555
C2H H1H 1_555 1_555
C3H C2H 1_555 1_555
H2H C3H 1_555 1_555
C4H C3H 1_555 1_555
H3H C4H 1_555 1_555
C5H H4H 1_555 1_555
C6H C5H 1_555 1_555
H5H C6H 1_555 1_555
C7H C6H 1_555 1_555
H6H C7H 1_555 1_555
C8H H7H 1_555 1_555
C9H C8H 1_555 1_555
H8H C9H 1_555 1_555
C10H C9H 1_555 1_555
H9H C10H 1_555 1_555
C11H H10H 1_555 1_555
H11H C11H 1_555 1_555
C12H H12H 1_555 1_555
H13H C12H 1_555 1_555
C13H C12H 1_555 1_555
C14H C13H 1_555 1_555
H14H C14H 1_555 1_555
C15H C13H 1_555 1_555
H15H C15H 1_555 1_555
N1H C5H 1_555 1_555
N2H C1H 1_555 1_555
N3H C1H 1_555 1_555
N4H C4H 1_555 1_555
N5H Ag1 1_555 1_555
N6H C1H 1_555 1_555
O2H Ag1 1_555 1_555
C15Q C14H 1_555 1_555
C13Q C15Q 1_555 1_555
C12Q C13Q 1_555 1_555
H12Q C12Q 1_555 1_555
H13Q C12Q 1_555 1_555
O2Q C12Q 1_555 1_555
C11Q O2Q 1_555 1_555
C1Q C11Q 1_555 1_555
N2Q C1Q 1_555 1_555
C7Q N2Q 1_555 1_555
C6Q C7Q 1_555 1_555
C5Q C6Q 1_555 1_555
H4Q C5Q 1_555 1_555
N1Q N2Q 1_555 1_555
H5Q C6Q 1_555 1_555
H6Q C7Q 1_555 1_555
N3Q C1Q 1_555 1_555
C2Q N3Q 1_555 1_555
H1Q C2Q 1_555 1_555
C3Q C2Q 1_555 1_555
H2Q C3Q 1_555 1_555
C4Q C3Q 1_555 1_555
H3Q C4Q 1_555 1_555
N4Q N3Q 1_555 1_555
N6Q C1Q 1_555 1_555
C10Q N6Q 1_555 1_555
C9Q C10Q 1_555 1_555
C8Q C9Q 1_555 1_555
H7Q C8Q 1_555 1_555
N5Q N6Q 1_555 1_555
H8Q C9Q 1_555 1_555
H9Q C10Q 1_555 1_555
H10Q C11Q 1_555 1_555
H11Q C11Q 1_555 1_555
C14Q C15H 1_555 1_555
H14Q C14Q 1_555 1_555
H15Q C15Q 1_555 1_555
Ag1L N1L 1_555 1_555
Ag1H N1H 1_555 1_555
Ag1Q N1Q 1_555 1_555
Ag1G N5 1_555 1_555
Ag1D O2L 1_555 1_555
C1E C11E 1_555 1_555
C2E H1E 1_555 1_555
C3E C2E 1_555 1_555
H2E C3E 1_555 1_555
C4E C3E 1_555 1_555
H3E C4E 1_555 1_555
C5E H4E 1_555 1_555
C6E C5E 1_555 1_555
H5E C6E 1_555 1_555
C7E C6E 1_555 1_555
H6E C7E 1_555 1_555
C8E H7E 1_555 1_555
C9E C8E 1_555 1_555
H8E C9E 1_555 1_555
C10E C9E 1_555 1_555
H9E C10E 1_555 1_555
C11E H10E 1_555 1_555
H11E C11E 1_555 1_555
C12E H12E 1_555 1_555
H13E C12E 1_555 1_555
C13E C12E 1_555 1_555
C14E C13E 1_555 1_555
H14E C14E 1_555 1_555
C15E C13E 1_555 1_555
H15E C15E 1_555 1_555
N1E C5E 1_555 1_555
N2E C1E 1_555 1_555
N3E C1E 1_555 1_555
N4E C4E 1_555 1_555
N5E Ag1L 1_555 1_555
N6E C1E 1_555 1_555
O2E Ag1L 1_555 1_555
C15K C14E 1_555 1_555
C13K C15K 1_555 1_555
C12K C13K 1_555 1_555
H12K C12K 1_555 1_555
H13K C12K 1_555 1_555
O2K C12K 1_555 1_555
C11K O2K 1_555 1_555
C1K C11K 1_555 1_555
N2K C1K 1_555 1_555
C7K N2K 1_555 1_555
C6K C7K 1_555 1_555
C5K C6K 1_555 1_555
H4K C5K 1_555 1_555
N1K N2K 1_555 1_555
H5K C6K 1_555 1_555
H6K C7K 1_555 1_555
N3K C1K 1_555 1_555
C2K N3K 1_555 1_555
H1K C2K 1_555 1_555
C3K C2K 1_555 1_555
H2K C3K 1_555 1_555
C4K C3K 1_555 1_555
H3K C4K 1_555 1_555
N4K N3K 1_555 1_555
N6K C1K 1_555 1_555
C10K N6K 1_555 1_555
C9K C10K 1_555 1_555
C8K C9K 1_555 1_555
H7K C8K 1_555 1_555
N5K N6K 1_555 1_555
H8K C9K 1_555 1_555
H9K C10K 1_555 1_555
H10K C11K 1_555 1_555
H11K C11K 1_555 1_555
C14K C15E 1_555 1_555
H14K C14K 1_555 1_555
H15K C15K 1_555 1_555
Ag1I O2Q 1_555 1_555
N5A Ag1H 1_555 1_555
O2A Ag1H 1_555 1_555
N5J Ag1Q 1_555 1_555
O2J Ag1Q 1_555 1_555
N1G Ag1G 1_555 1_555
N4G Ag1G 1_555 1_555
N1D Ag1D 1_555 1_555
N4D Ag1D 1_555 1_555
Ag1E N1E 1_555 1_555
Ag1F O2K 1_555 1_555
Ag1K N1K 1_555 1_555
C2 N3 1_555 1_555
C4 N4 1_555 1_555
C7 N2 1_555 1_555
C10 N6 1_555 1_555
C12 O2 1_555 1_555
N1 N2 1_555 1_555
N3 N4 1_555 1_555
N5 N6 1_555 1_555
O2 Ag1G 1_555 1_555
C13L C14L 1_555 1_555
C5L N1L 1_555 1_555
C4L N4L 1_555 1_555
N4L Ag1L 1_555 1_555
C8L N5L 1_555 1_555
N5L Ag1D 1_555 1_555
C2H N3H 1_555 1_555
C7H N2H 1_555 1_555
C8H N5H 1_555 1_555
C10H N6H 1_555 1_555
C11H O2H 1_555 1_555
C12H O2H 1_555 1_555
N1H N2H 1_555 1_555
N3H N4H 1_555 1_555
N4H Ag1H 1_555 1_555
N5H N6H 1_555 1_555
C13Q C14Q 1_555 1_555
C5Q N1Q 1_555 1_555
C4Q N4Q 1_555 1_555
N4Q Ag1Q 1_555 1_555
C8Q N5Q 1_555 1_555
N5Q Ag1I 1_555 1_555
C2E N3E 1_555 1_555
C7E N2E 1_555 1_555
C8E N5E 1_555 1_555
C10E N6E 1_555 1_555
C11E O2E 1_555 1_555
C12E O2E 1_555 1_555
N1E N2E 1_555 1_555
N3E N4E 1_555 1_555
N4E Ag1E 1_555 1_555
N5E N6E 1_555 1_555
C13K C14K 1_555 1_555
C5K N1K 1_555 1_555
C4K N4K 1_555 1_555
N4K Ag1K 1_555 1_555
C8K N5K 1_555 1_555
N5K Ag1F 1_555 1_555

#END
