
#######################################################################
#
#                 Cambridge Crystallographic Data Centre
#                                CCDC 
#
#######################################################################
#
# If this CIF has been generated from an entry in the Cambridge 
# Structural Database, then it will include bibliographic, chemical, 
# crystal, experimental, refinement or atomic coordinate data resulting 
# from the CCDC's data processing and validation procedures.
#
#######################################################################

data_LUVXAB
_symmetry_cell_setting           triclinic
_symmetry_space_group_name_H-M   'P -1'
_symmetry_Int_Tables_number      2
_space_group_name_Hall           '-P 1'
loop_
_symmetry_equiv_pos_site_id
_symmetry_equiv_pos_as_xyz
1 x,y,z
2 -x,-y,-z
_cell_length_a                   10.4341(6)
_cell_length_b                   15.4008(9)
_cell_length_c                   15.8447(9)
_cell_angle_alpha                77.7240(10)
_cell_angle_beta                 77.4120(10)
_cell_angle_gamma                78.3260(10)
_cell_volume                     2395.41
loop_
_atom_site_label
_atom_site_type_symbol
_atom_site_fract_x
_atom_site_fract_y
_atom_site_fract_z
Sb1 Sb 0.08637(4) 0.18092(2) 0.82242(2)
F1 F 0.2287(3) 0.1748(2) 0.7283(2)
F2 F 0.1546(5) 0.0655(2) 0.8731(2)
F3 F -0.0078(3) 0.1293(2) 0.7634(2)
F4 F -0.0565(5) 0.1832(3) 0.9163(2)
F5 F 0.0188(3) 0.29549(18) 0.7721(2)
F6 F 0.1881(4) 0.2318(3) 0.8775(3)
Sb2 Sb 0.67360(3) 0.342534(18) 0.681440(18)
F7 F 0.7612(3) 0.23979(17) 0.63550(18)
F8 F 0.7064(3) 0.28813(19) 0.79268(16)
F9 F 0.5129(2) 0.2986(2) 0.70512(19)
F10 F 0.5873(3) 0.44625(18) 0.72669(18)
F11 F 0.6381(3) 0.39829(18) 0.57007(17)
F12 F 0.8325(2) 0.38890(19) 0.65411(16)
N15 N 0.4925(14) 0.0756(9) 1.0744(8)
C39 C 0.509(3) 0.0990(14) 1.0033(10)
C40 C 0.515(2) 0.1526(13) 0.9159(10)
Ag1 Ag 0.35699(3) 0.28417(2) 0.29998(2)
Ag2 Ag 0.88261(3) 0.24019(2) 0.28091(2)
C1 C 0.6238(3) 0.1015(2) 0.3172(2)
C2 C 0.7421(3) 0.0255(2) 0.3269(2)
H1 H 0.7572 -0.0106 0.2797
H2 H 0.8238 0.0505 0.3229
C3 C 0.8269(3) -0.0880(2) 0.4367(2)
H3 H 0.8781 -0.1172 0.3869
H4 H 0.7975 -0.1360 0.4853
C4 C 0.9165(3) -0.0400(2) 0.4664(2)
C5 C 0.8656(3) 0.0308(2) 0.5126(2)
H5 H 0.7727 0.0528 0.5210
C6 C 1.0529(3) -0.0698(2) 0.4533(2)
H6 H 1.0905 -0.1170 0.4209
C7 C 0.7250(4) 0.1384(3) 0.1565(2)
H7 H 0.7808 0.0825 0.1495
C8 C 0.7060(4) 0.2113(3) 0.0922(2)
H8 H 0.7459 0.2173 0.0318
C9 C 0.6148(4) 0.2757(3) 0.1346(2)
H9 H 0.5830 0.3343 0.1058
C10 C 0.4912(4) -0.0163(2) 0.3105(2)
H10 H 0.5606 -0.0666 0.3059
C11 C 0.3633(4) -0.0132(3) 0.3038(2)
H11 H 0.3242 -0.0605 0.2951
C12 C 0.3011(4) 0.0744(3) 0.3125(2)
H12 H 0.2098 0.0963 0.3104
C13 C 0.5249(3) 0.1448(2) 0.4663(2)
H13 H 0.4590 0.1068 0.4860
C14 C 0.5565(4) 0.1994(2) 0.5131(2)
H14 H 0.5169 0.2083 0.5712
C15 C 0.6598(4) 0.2398(2) 0.4572(2)
H15 H 0.7020 0.2819 0.4723
C16 C 0.0396(4) 0.4341(3) 0.3812(2)
H16 H 0.0527 0.4948 0.3735
C17 C 0.0049(4) 0.3796(3) 0.4588(3)
H17 H -0.0100 0.3936 0.5161
C18 C -0.0041(4) 0.2995(3) 0.4366(2)
H18 H -0.0273 0.2484 0.4784
C19 C -0.1412(4) 0.5396(3) 0.1938(2)
H19 H -0.1009 0.5922 0.1792
C20 C -0.2732(4) 0.5370(3) 0.2059(3)
H20 H -0.3432 0.5869 0.2007
C21 C -0.2846(4) 0.4466(3) 0.2275(3)
H21 H -0.3666 0.4246 0.2395
C22 C 0.0930(4) 0.3415(3) 0.0958(2)
H22 H 0.0174 0.3708 0.0705
C23 C 0.1963(4) 0.2817(3) 0.0609(3)
H23 H 0.2058 0.2596 0.0079
C24 C 0.2840(4) 0.2602(3) 0.1193(3)
H24 H 0.3656 0.2196 0.1117
N1 N 0.3437(4) 0.3576(2) 0.4064(3)
C25 C 0.3316(4) 0.3827(3) 0.4686(3)
C26 C 0.3153(6) 0.4136(4) 0.5515(3)
H25 H 0.2320 0.4562 0.5601
H26 H 0.3903 0.4434 0.5505
H27 H 0.3127 0.3619 0.5998
N2 N 1.0108(3) 0.1330(2) 0.2107(2)
C27 C 1.0733(4) 0.0894(3) 0.1632(3)
C28 C 1.1552(6) 0.0337(4) 0.1012(4)
H28 H 1.1180 0.0466 0.0473
H29 H 1.1566 -0.0300 0.1275
H30 H 1.2462 0.0472 0.0871
C29 C 0.0574(3) 0.4220(2) 0.2232(2)
C30 C 0.1400(3) 0.4983(2) 0.1952(2)
H31 H 0.0998 0.5478 0.2286
H32 H 0.2321 0.4761 0.2058
C31 C 0.2341(4) 0.5888(3) 0.0651(2)
H33 H 0.2386 0.6258 0.1081
H34 H 0.2022 0.6301 0.0142
C32 C 0.3713(4) 0.5406(2) 0.0348(2)
C33 C 0.3893(4) 0.4723(3) -0.0135(2)
H35 H 0.3130 0.4532 -0.0243
C34 C 0.4832(4) 0.5672(3) 0.0485(2)
H36 H 0.4732 0.6129 0.0838
N3 N 0.5786(3) 0.2457(2) 0.2187(2)
N4 N 0.6498(3) 0.16023(18) 0.23222(17)
N5 N 0.3841(3) 0.1233(2) 0.3240(2)
N6 N 0.5023(3) 0.06519(19) 0.32494(18)
N7 N 0.6915(3) 0.21213(19) 0.38050(19)
N8 N 0.6050(3) 0.15457(18) 0.38652(17)
N9 N 0.0230(3) 0.3013(2) 0.3506(2)
N10 N 0.0521(3) 0.38597(18) 0.31660(18)
N11 N -0.1664(3) 0.3945(2) 0.2294(2)
N12 N -0.0776(3) 0.45366(19) 0.20617(19)
N13 N 0.2404(3) 0.3031(2) 0.1871(2)
N14 N 0.1190(3) 0.35082(19) 0.17299(18)
O1 O 0.7109(2) -0.02872(15) 0.40982(15)
O2 O 0.1398(2) 0.52861(16) 0.10492(15)
C6A C 0.9471(3) 0.0698(2) 0.5467(2)
C4A C 1.0835(3) 0.0400(2) 0.5336(2)
C3A C 1.1731(3) 0.0880(2) 0.5633(2)
H3A H 1.1219 0.1172 0.6131
H4A H 1.2025 0.1360 0.5147
O1A O 1.2891(2) 0.02872(15) 0.59018(15)
C2A C 1.2579(3) -0.0255(2) 0.6731(2)
C1A C 1.3762(3) -0.1015(2) 0.6828(2)
N4A N 1.3502(3) -0.16023(18) 0.76778(17)
C7A C 1.2750(4) -0.1384(3) 0.8435(2)
H7A H 1.2192 -0.0825 0.8505
C8A C 1.2940(4) -0.2113(3) 0.9078(2)
H8A H 1.2541 -0.2173 0.9682
C9A C 1.3852(4) -0.2757(3) 0.8654(2)
H9A H 1.4170 -0.3343 0.8942
N3A N 1.4214(3) -0.2457(2) 0.7813(2)
N6A N 1.4977(3) -0.06519(19) 0.67506(18)
C10A C 1.5088(4) 0.0163(2) 0.6895(2)
H10A H 1.4394 0.0666 0.6941
C11A C 1.6367(4) 0.0132(3) 0.6962(2)
H11A H 1.6758 0.0605 0.7049
C12A C 1.6989(4) -0.0744(3) 0.6875(2)
H12A H 1.7902 -0.0963 0.6896
N5A N 1.6159(3) -0.1233(2) 0.6760(2)
N8A N 1.3950(3) -0.15457(18) 0.61348(17)
C13A C 1.4751(3) -0.1448(2) 0.5337(2)
H13A H 1.5410 -0.1068 0.5140
C14A C 1.4435(4) -0.1994(2) 0.4869(2)
H14A H 1.4831 -0.2083 0.4288
C15A C 1.3402(4) -0.2398(2) 0.5428(2)
H15A H 1.2980 -0.2819 0.5277
N7A N 1.3085(3) -0.21213(19) 0.61950(19)
H1A H 1.2428 0.0106 0.7203
H2A H 1.1762 -0.0505 0.6771
C5A C 1.1344(3) -0.0308(2) 0.4874(2)
H5A H 1.2273 -0.0528 0.4790
H6A H 0.9095 0.1170 0.5791
C34A C 0.5168(4) 0.4328(3) -0.0485(2)
C32A C 0.6287(4) 0.4594(2) -0.0348(2)
C31A C 0.7659(4) 0.4112(3) -0.0651(2)
H33A H 0.7614 0.3742 -0.1081
H34A H 0.7978 0.3699 -0.0142
O2A O 0.8602(2) 0.47139(16) -0.10492(15)
C30A C 0.8600(3) 0.5017(2) -0.1952(2)
C29A C 0.9426(3) 0.5780(2) -0.2232(2)
N10A N 0.9479(3) 0.61403(18) -0.31660(18)
C16A C 0.9604(4) 0.5659(3) -0.3812(2)
H16A H 0.9473 0.5052 -0.3735
C17A C 0.9951(4) 0.6204(3) -0.4588(3)
H17A H 1.0100 0.6064 -0.5161
C18A C 1.0041(4) 0.7005(3) -0.4366(2)
H18A H 1.0273 0.7516 -0.4784
N9A N 0.9770(3) 0.6987(2) -0.3506(2)
N12A N 1.0776(3) 0.54634(19) -0.20617(19)
C19A C 1.1412(4) 0.4604(3) -0.1938(2)
H19A H 1.1009 0.4078 -0.1792
C20A C 1.2732(4) 0.4630(3) -0.2059(3)
H20A H 1.3432 0.4131 -0.2007
C21A C 1.2846(4) 0.5534(3) -0.2275(3)
H21A H 1.3666 0.5754 -0.2395
N11A N 1.1664(3) 0.6055(2) -0.2294(2)
N14A N 0.8810(3) 0.64918(19) -0.17299(18)
C22A C 0.9070(4) 0.6585(3) -0.0958(2)
H22A H 0.9826 0.6292 -0.0705
C23A C 0.8037(4) 0.7183(3) -0.0609(3)
H23A H 0.7942 0.7404 -0.0079
C24A C 0.7160(4) 0.7398(3) -0.1193(3)
H24A H 0.6344 0.7804 -0.1117
N13A N 0.7596(3) 0.6969(2) -0.1871(2)
H31A H 0.9002 0.4522 -0.2286
H32A H 0.7679 0.5239 -0.2058
C33A C 0.6107(4) 0.5277(3) 0.0135(2)
H35A H 0.6870 0.5468 0.0243
H36A H 0.5268 0.3871 -0.0838
Ag1A Ag 1.64301(3) -0.28417(2) 0.70002(2)
Ag2A Ag 1.11739(3) -0.24019(2) 0.71909(2)
N1A N 1.6563(4) -0.3576(2) 0.5936(3)
C25A C 1.6684(4) -0.3827(3) 0.5314(3)
C26A C 1.6847(6) -0.4136(4) 0.4485(3)
H25A H 1.7680 -0.4562 0.4399
H26A H 1.6097 -0.4434 0.4495
H27A H 1.6873 -0.3619 0.4002
N2A N 0.9892(3) -0.1330(2) 0.7893(2)
C27A C 0.9267(4) -0.0894(3) 0.8368(3)
C28A C 0.8448(6) -0.0337(4) 0.8988(4)
H28A H 0.8820 -0.0466 0.9527
H29A H 0.8434 0.0300 0.8725
H30A H 0.7538 -0.0472 0.9129
N9_2 N 1.0230(3) 0.3013(2) 0.3506(2)
N11_2 N 0.8336(3) 0.3945(2) 0.2294(2)
Ag2_2 Ag -0.11739(3) 0.24019(2) 0.28091(2)
Ag2A_2 Ag 1.11739(3) 0.75981(2) -0.28091(2)
Ag1A_2 Ag 0.64301(3) 0.71583(2) -0.29998(2)
N13A_2 N 1.7596(3) -0.3031(2) 0.8129(2)
N9A_2 N 0.9770(3) -0.3013(2) 0.6494(2)
N11A_2 N 1.1664(3) -0.3945(2) 0.7706(2)
O3? O 0.5000 0.0000 1.0000
C35? C 0.479(3) 0.0463(13) 0.9185(12)
H37? H 0.5355 0.0109 0.8746
H38? H 0.3853 0.0456 0.9155
C36? C 0.5003(14) 0.1337(8) 0.8906(8)
H39? H 0.5395 0.1516 0.9338
H40? H 0.4154 0.1733 0.8842
H41? H 0.5613 0.1386 0.8338
O4? O 0.5000 0.0000 1.0000
C37? C 0.501(2) 0.1008(10) 0.9789(12)
H42? H 0.4221 0.1319 1.0146
H43? H 0.5816 0.1134 0.9945
C38? C 0.5003(14) 0.1337(8) 0.8906(8)
H44? H 0.5912 0.1395 0.8597
H45? H 0.4434 0.1928 0.8838
H46? H 0.4657 0.0920 0.8658
H47? H 0.4953 0.1179 0.8765
H48? H 0.6040 0.1684 0.8942
H49? H 0.4490 0.2078 0.9180
loop_
_geom_bond_atom_site_label_1
_geom_bond_atom_site_label_2
_geom_bond_site_symmetry_1
_geom_bond_site_symmetry_2
Ag1 N1 1_555 1_555
Ag2 N2 1_555 1_555
C1 C2 1_555 1_555
C2 H1 1_555 1_555
H2 C2 1_555 1_555
C3 H3 1_555 1_555
H4 C3 1_555 1_555
C4 C3 1_555 1_555
C5 C4 1_555 1_555
H5 C5 1_555 1_555
C6 C4 1_555 1_555
H6 C6 1_555 1_555
C7 H7 1_555 1_555
C8 C7 1_555 1_555
H8 C8 1_555 1_555
C9 C8 1_555 1_555
H9 C9 1_555 1_555
C10 H10 1_555 1_555
C11 C10 1_555 1_555
H11 C11 1_555 1_555
C12 C11 1_555 1_555
H12 C12 1_555 1_555
C13 H13 1_555 1_555
C14 C13 1_555 1_555
H14 C14 1_555 1_555
C15 C14 1_555 1_555
H15 C15 1_555 1_555
C16 H16 1_555 1_555
C17 C16 1_555 1_555
H17 C17 1_555 1_555
C18 C17 1_555 1_555
H18 C18 1_555 1_555
C19 H19 1_555 1_555
C20 C19 1_555 1_555
H20 C20 1_555 1_555
C21 C20 1_555 1_555
H21 C21 1_555 1_555
C22 H22 1_555 1_555
C23 C22 1_555 1_555
H23 C23 1_555 1_555
C24 C23 1_555 1_555
H24 C24 1_555 1_555
N1 C25 1_555 1_555
C25 C26 1_555 1_555
C26 H25 1_555 1_555
H26 C26 1_555 1_555
H27 C26 1_555 1_555
N2 C27 1_555 1_555
C27 C28 1_555 1_555
C28 H28 1_555 1_555
H29 C28 1_555 1_555
H30 C28 1_555 1_555
C29 C30 1_555 1_555
C30 H31 1_555 1_555
H32 C30 1_555 1_555
C31 H33 1_555 1_555
H34 C31 1_555 1_555
C32 C31 1_555 1_555
C33 C32 1_555 1_555
H35 C33 1_555 1_555
C34 C32 1_555 1_555
H36 C34 1_555 1_555
N3 Ag1 1_555 1_555
N4 C1 1_555 1_555
N5 Ag1 1_555 1_555
N6 C1 1_555 1_555
N7 Ag2 1_555 1_555
N8 C1 1_555 1_555
N9 C18 1_555 1_555
N10 C16 1_555 1_555
N11 C21 1_555 1_555
N12 C19 1_555 1_555
N13 Ag1 1_555 1_555
N14 C22 1_555 1_555
O1 C2 1_555 1_555
O2 C30 1_555 1_555
Sb1 F1 1_555 1_555
F2 Sb1 1_555 1_555
F3 Sb1 1_555 1_555
F4 Sb1 1_555 1_555
F5 Sb1 1_555 1_555
F6 Sb1 1_555 1_555
Sb2 F7 1_555 1_555
F8 Sb2 1_555 1_555
F9 Sb2 1_555 1_555
F10 Sb2 1_555 1_555
F11 Sb2 1_555 1_555
F12 Sb2 1_555 1_555
N15 C39 1_555 1_555
C39 C40 1_555 1_555
C6A C5 1_555 1_555
C4A C6A 1_555 1_555
C3A C4A 1_555 1_555
H3A C3A 1_555 1_555
H4A C3A 1_555 1_555
O1A C3A 1_555 1_555
C2A O1A 1_555 1_555
C1A C2A 1_555 1_555
N4A C1A 1_555 1_555
C7A N4A 1_555 1_555
H7A C7A 1_555 1_555
C8A C7A 1_555 1_555
H8A C8A 1_555 1_555
C9A C8A 1_555 1_555
H9A C9A 1_555 1_555
N3A N4A 1_555 1_555
N6A C1A 1_555 1_555
C10A N6A 1_555 1_555
H10A C10A 1_555 1_555
C11A C10A 1_555 1_555
H11A C11A 1_555 1_555
C12A C11A 1_555 1_555
H12A C12A 1_555 1_555
N5A N6A 1_555 1_555
N8A C1A 1_555 1_555
C13A N8A 1_555 1_555
H13A C13A 1_555 1_555
C14A C13A 1_555 1_555
H14A C14A 1_555 1_555
C15A C14A 1_555 1_555
H15A C15A 1_555 1_555
N7A N8A 1_555 1_555
H1A C2A 1_555 1_555
H2A C2A 1_555 1_555
C5A C6 1_555 1_555
H5A C5A 1_555 1_555
H6A C6A 1_555 1_555
C34A C33 1_555 1_555
C32A C34A 1_555 1_555
C31A C32A 1_555 1_555
H33A C31A 1_555 1_555
H34A C31A 1_555 1_555
O2A C31A 1_555 1_555
C30A O2A 1_555 1_555
C29A C30A 1_555 1_555
N10A C29A 1_555 1_555
C16A N10A 1_555 1_555
H16A C16A 1_555 1_555
C17A C16A 1_555 1_555
H17A C17A 1_555 1_555
C18A C17A 1_555 1_555
H18A C18A 1_555 1_555
N9A N10A 1_555 1_555
N12A C29A 1_555 1_555
C19A N12A 1_555 1_555
H19A C19A 1_555 1_555
C20A C19A 1_555 1_555
H20A C20A 1_555 1_555
C21A C20A 1_555 1_555
H21A C21A 1_555 1_555
N11A N12A 1_555 1_555
N14A C29A 1_555 1_555
C22A N14A 1_555 1_555
H22A C22A 1_555 1_555
C23A C22A 1_555 1_555
H23A C23A 1_555 1_555
C24A C23A 1_555 1_555
H24A C24A 1_555 1_555
N13A N14A 1_555 1_555
H31A C30A 1_555 1_555
H32A C30A 1_555 1_555
C33A C34 1_555 1_555
H35A C33A 1_555 1_555
H36A C34A 1_555 1_555
Ag1A N3A 1_555 1_555
Ag2A N7A 1_555 1_555
N1A Ag1A 1_555 1_555
C25A N1A 1_555 1_555
C26A C25A 1_555 1_555
H25A C26A 1_555 1_555
H26A C26A 1_555 1_555
H27A C26A 1_555 1_555
N2A Ag2A 1_555 1_555
C27A N2A 1_555 1_555
C28A C27A 1_555 1_555
H28A C28A 1_555 1_555
H29A C28A 1_555 1_555
H30A C28A 1_555 1_555
N9_2 Ag2 1_555 1_555
N11_2 Ag2 1_555 1_555
Ag2_2 N9 1_555 1_555
Ag2A_2 N9A 1_555 1_555
Ag1A_2 N13A 1_555 1_555
N13A_2 Ag1A 1_555 1_555
N9A_2 Ag2A 1_555 1_555
N11A_2 Ag2A 1_555 1_555
C3 O1 1_555 1_555
C7 N4 1_555 1_555
C9 N3 1_555 1_555
C10 N6 1_555 1_555
C12 N5 1_555 1_555
C13 N8 1_555 1_555
C15 N7 1_555 1_555
C24 N13 1_555 1_555
C29 N10 1_555 1_555
C29 N12 1_555 1_555
C29 N14 1_555 1_555
C31 O2 1_555 1_555
N3 N4 1_555 1_555
N5 N6 1_555 1_555
N7 N8 1_555 1_555
N9 N10 1_555 1_555
N11 N12 1_555 1_555
N11 Ag2_2 1_555 1_555
N13 N14 1_555 1_555
C4A C5A 1_555 1_555
C9A N3A 1_555 1_555
C12A N5A 1_555 1_555
N5A Ag1A 1_555 1_555
C15A N7A 1_555 1_555
C32A C33A 1_555 1_555
C18A N9A 1_555 1_555
C21A N11A 1_555 1_555
N11A Ag2A_2 1_555 1_555
C24A N13A 1_555 1_555

#END
