
#######################################################################
#
#                 Cambridge Crystallographic Data Centre
#                                CCDC 
#
#######################################################################
#
# If this CIF has been generated from an entry in the Cambridge 
# Structural Database, then it will include bibliographic, chemical, 
# crystal, experimental, refinement or atomic coordinate data resulting 
# from the CCDC's data processing and validation procedures.
#
#######################################################################

data_LUVZEH
_symmetry_cell_setting           triclinic
_symmetry_space_group_name_H-M   'P -1'
_symmetry_Int_Tables_number      2
_space_group_name_Hall           '-P 1'
loop_
_symmetry_equiv_pos_site_id
_symmetry_equiv_pos_as_xyz
1 x,y,z
2 -x,-y,-z
_cell_length_a                   11.0577(4)
_cell_length_b                   13.9358(12)
_cell_length_c                   14.3642(10)
_cell_angle_alpha                99.538(3)
_cell_angle_beta                 109.125(3)
_cell_angle_gamma                108.798(2)
_cell_volume                     1886.51
loop_
_atom_site_label
_atom_site_type_symbol
_atom_site_fract_x
_atom_site_fract_y
_atom_site_fract_z
Ag1 Ag 0.88276(2) 0.23667(2) 0.211736(18)
Ag2 Ag 0.77963(2) 0.077070(19) -0.345040(18)
N1 N 0.6409(2) 0.16262(17) 0.11476(17)
N2 N 0.7943(2) 0.31954(18) 0.31888(18)
N3 N 1.0536(2) 0.17131(18) 0.26953(18)
N4 N 1.0549(3) 0.3168(2) 0.1504(2)
N5 N 0.7041(2) 0.07849(19) -0.22289(18)
N6 N 1.2372(3) 0.4260(2) 0.6514(3)
N7 N 0.8820(2) 0.09750(17) 0.54841(18)
N8 N 0.6914(4) 0.4126(3) -0.0967(3)
C1 C 0.5720(3) 0.1822(2) 0.1842(2)
H3 H 0.5736 0.1340 0.2277
H4 H 0.4731 0.1672 0.1425
C2 C 0.6478(3) 0.2980(2) 0.2534(2)
H5 H 0.6466 0.3463 0.2100
H6 H 0.5992 0.3114 0.2978
C3 C 1.1390(3) 0.1847(3) 0.2086(2)
H7 H 1.0847 0.1322 0.1389
H8 H 1.2238 0.1724 0.2429
C4 C 1.1810(3) 0.2968(3) 0.1997(3)
H9 H 1.2395 0.3490 0.2693
H10 H 1.2370 0.3057 0.1578
C5 C 0.5630(3) 0.1261(2) 0.0184(2)
H11 H 0.4662 0.1107 -0.0024
C6 C 0.6136(3) 0.1059(2) -0.0637(2)
C7 C 0.5380(3) 0.1094(2) -0.1613(2)
H12 H 0.4541 0.1203 -0.1751
C8 C 0.5869(3) 0.0969(2) -0.2376(2)
H13 H 0.5363 0.1014 -0.3032
C9 C 0.7743(3) 0.0712(2) -0.1294(2)
H14 H 0.8549 0.0564 -0.1187
C10 C 0.7333(3) 0.0846(2) -0.0483(2)
H15 H 0.7854 0.0794 0.0166
C11 C 0.8289(3) 0.3441(2) 0.4163(2)
H16 H 0.7587 0.3455 0.4402
C12 C 0.9708(3) 0.3705(2) 0.4948(2)
C13 C 0.9879(3) 0.3708(2) 0.5950(3)
H17 H 0.9092 0.3525 0.6122
C14 C 1.1211(4) 0.3981(3) 0.6700(3)
H18 H 1.1305 0.3970 0.7380
C15 C 1.2195(3) 0.4255(2) 0.5554(3)
H19 H 1.3004 0.4450 0.5409
C16 C 1.0910(3) 0.3984(2) 0.4744(3)
H20 H 1.0850 0.3989 0.4070
C17 C 1.0907(3) 0.1365(2) 0.3456(2)
H21 H 1.1698 0.1192 0.3593
C18 C 1.0153(3) 0.1219(2) 0.4139(2)
C19 C 1.0912(3) 0.1393(2) 0.5182(2)
H22 H 1.1894 0.1592 0.5449
C20 C 1.0220(3) 0.1274(2) 0.5825(2)
H23 H 1.0749 0.1408 0.6539
C21 C 0.8073(3) 0.0799(2) 0.4468(2)
H24 H 0.7091 0.0596 0.4223
C22 C 0.8694(3) 0.0905(2) 0.3773(2)
H25 H 0.8144 0.0769 0.3062
C23 C 1.0388(3) 0.3428(2) 0.0690(2)
H26 H 1.1077 0.3478 0.0420
C24 C 0.9174(3) 0.3662(2) 0.0125(3)
C25 C 0.8398(4) 0.3995(3) 0.0615(3)
H27 H 0.8622 0.4064 0.1327
C26 C 0.7300(4) 0.4222(3) 0.0037(4)
H28 H 0.6797 0.4460 0.0378
C27 C 0.7659(5) 0.3796(3) -0.1431(4)
H29 H 0.7397 0.3718 -0.2148
C28 C 0.8785(4) 0.3564(3) -0.0921(3)
H30 H 0.9280 0.3344 -0.1280
N7_2 N 0.8820(2) 0.09750(17) -0.45159(18)
Ag2_2 Ag 0.77963(2) 0.077070(19) 0.654960(18)
S1 S 0.52596(8) 0.18893(6) 0.50439(6)
F1 F 0.6236(3) 0.39740(17) 0.5511(2)
F2 F 0.4867(3) 0.3333(2) 0.62114(19)
F3 F 0.4014(3) 0.3188(2) 0.4609(2)
O1 O 0.6583(2) 0.2101(2) 0.5867(2)
O2 O 0.5249(3) 0.1759(2) 0.4033(2)
O3 O 0.4046(2) 0.11370(19) 0.50920(19)
C29 C 0.5084(4) 0.3161(3) 0.5356(3)
S2 S 0.16354(8) 0.12533(7) 0.88979(6)
F4 F 0.3062(2) 0.2572(2) 0.81634(19)
F5 F 0.4102(3) 0.28716(18) 0.9804(2)
F6 F 0.2356(3) 0.3309(2) 0.9201(3)
O4 O 0.2326(2) 0.05717(19) 0.8669(2)
O5 O 0.1557(3) 0.1361(2) 0.9883(2)
O6 O 0.0362(2) 0.1078(3) 0.8048(2)
C30 C 0.2859(4) 0.2574(3) 0.9034(3)
O7 O 0.4885(5) 0.4728(3) 0.1786(4)
H1 H 0.573(7) 0.521(6) 0.183(6)
H2 H 0.442(7) 0.525(6) 0.165(5)
loop_
_geom_bond_atom_site_label_1
_geom_bond_atom_site_label_2
_geom_bond_site_symmetry_1
_geom_bond_site_symmetry_2
Ag1 N1 1_555 1_555
Ag2 N5 1_555 1_555
S1 O1 1_555 1_555
S2 O4 1_555 1_555
F1 C29 1_555 1_555
F2 C29 1_555 1_555
F3 C29 1_555 1_555
F4 C30 1_555 1_555
F5 C30 1_555 1_555
F6 C30 1_555 1_555
O2 S1 1_555 1_555
O3 S1 1_555 1_555
O5 S2 1_555 1_555
O6 S2 1_555 1_555
O7 H1 1_555 1_555
H2 O7 1_555 1_555
N1 C1 1_555 1_555
N2 Ag1 1_555 1_555
N3 Ag1 1_555 1_555
N4 Ag1 1_555 1_555
N5 C8 1_555 1_555
N6 C14 1_555 1_555
N7 C20 1_555 1_555
N8 C26 1_555 1_555
C1 H3 1_555 1_555
H4 C1 1_555 1_555
C2 N2 1_555 1_555
H5 C2 1_555 1_555
H6 C2 1_555 1_555
C3 N3 1_555 1_555
H7 C3 1_555 1_555
H8 C3 1_555 1_555
C4 N4 1_555 1_555
H9 C4 1_555 1_555
H10 C4 1_555 1_555
C5 N1 1_555 1_555
H11 C5 1_555 1_555
C6 C5 1_555 1_555
C7 C6 1_555 1_555
H12 C7 1_555 1_555
C8 C7 1_555 1_555
H13 C8 1_555 1_555
C9 N5 1_555 1_555
H14 C9 1_555 1_555
C10 C6 1_555 1_555
H15 C10 1_555 1_555
C11 N2 1_555 1_555
H16 C11 1_555 1_555
C12 C11 1_555 1_555
C13 C12 1_555 1_555
H17 C13 1_555 1_555
C14 C13 1_555 1_555
H18 C14 1_555 1_555
C15 N6 1_555 1_555
H19 C15 1_555 1_555
C16 C12 1_555 1_555
H20 C16 1_555 1_555
C17 N3 1_555 1_555
H21 C17 1_555 1_555
C18 C17 1_555 1_555
C19 C18 1_555 1_555
H22 C19 1_555 1_555
C20 C19 1_555 1_555
H23 C20 1_555 1_555
C21 N7 1_555 1_555
H24 C21 1_555 1_555
C22 C18 1_555 1_555
H25 C22 1_555 1_555
C23 N4 1_555 1_555
H26 C23 1_555 1_555
C24 C23 1_555 1_555
C25 C24 1_555 1_555
H27 C25 1_555 1_555
C26 C25 1_555 1_555
H28 C26 1_555 1_555
C27 N8 1_555 1_555
H29 C27 1_555 1_555
C28 C24 1_555 1_555
H30 C28 1_555 1_555
C29 S1 1_555 1_555
C30 S2 1_555 1_555
N7_2 Ag2 1_555 1_555
Ag2_2 N7 1_555 1_555
C1 C2 1_555 1_555
C3 C4 1_555 1_555
C9 C10 1_555 1_555
C15 C16 1_555 1_555
C21 C22 1_555 1_555
C27 C28 1_555 1_555

#END
