
#######################################################################
#
#                 Cambridge Crystallographic Data Centre
#                                CCDC 
#
#######################################################################
#
# If this CIF has been generated from an entry in the Cambridge 
# Structural Database, then it will include bibliographic, chemical, 
# crystal, experimental, refinement or atomic coordinate data resulting 
# from the CCDC's data processing and validation procedures.
#
#######################################################################

data_LUVZIL
_symmetry_cell_setting           monoclinic
_symmetry_space_group_name_H-M   'C c'
_symmetry_Int_Tables_number      9
_space_group_name_Hall           'C -2yc'
loop_
_symmetry_equiv_pos_site_id
_symmetry_equiv_pos_as_xyz
1 x,y,z
2 x,-y,1/2+z
3 1/2+x,1/2+y,z
4 1/2+x,1/2-y,1/2+z
_cell_length_a                   26.2730(13)
_cell_length_b                   10.1924(3)
_cell_length_c                   14.3278(8)
_cell_angle_alpha                90
_cell_angle_beta                 119.5780(10)
_cell_angle_gamma                90
_cell_volume                     3336.78
loop_
_atom_site_label
_atom_site_type_symbol
_atom_site_fract_x
_atom_site_fract_y
_atom_site_fract_z
Ag1 Ag -0.335280(15) -0.17777(3) 0.40482(3)
Ag2 Ag -0.138550(16) -0.40526(4) 0.22447(3)
Ag3 Ag -0.037050(18) 0.04173(5) 0.55610(3)
N5 N -0.32380(17) 0.0154(3) 0.3203(3)
N6 N -0.1945(2) -0.2518(4) 0.2259(4)
N7 N -0.35356(16) 0.0014(3) 0.4869(3)
N8 N -0.4788(2) -0.3023(5) 0.5686(4)
N9 N -0.27978(16) -0.3697(4) 0.4547(3)
N10 N -0.09823(18) -0.1090(4) 0.5387(4)
N11 N -0.40481(17) -0.3518(4) 0.3200(3)
N12 N -0.57356(18) -0.0551(4) 0.2605(4)
C1 C -0.3480(2) 0.1300(4) 0.3485(4)
H1 H -0.3912 0.1310 0.3034
H2 H -0.3325 0.2120 0.3349
C2 C -0.3314(2) 0.1226(4) 0.4645(4)
H3 H -0.2882 0.1254 0.5095
H4 H -0.3477 0.1993 0.4833
C3 C -0.3184(2) -0.4822(4) 0.4360(4)
H5 H -0.3303 -0.4845 0.4916
H6 H -0.2973 -0.5646 0.4409
C4 C -0.3725(2) -0.4714(4) 0.3251(4)
H7 H -0.3607 -0.4684 0.2695
H8 H -0.3979 -0.5490 0.3115
C5 C -0.2880(2) 0.0423(4) 0.2871(3)
H9 H -0.2806 0.1316 0.2789
C6 C -0.2580(2) -0.0607(4) 0.2610(3)
C7 C -0.2060(2) -0.0289(5) 0.2630(4)
H10 H -0.1915 0.0585 0.2759
C8 C -0.1760(2) -0.1288(5) 0.2458(5)
H11 H -0.1401 -0.1081 0.2484
C9 C -0.2457(2) -0.2830(5) 0.2202(4)
H12 H -0.2592 -0.3711 0.2051
C10 C -0.2790(2) -0.1903(4) 0.2357(4)
H13 H -0.3156 -0.2134 0.2294
C11 C -0.3882(2) 0.0154(4) 0.5254(4)
H14 H -0.3955 0.1013 0.5418
C12 C -0.4167(2) -0.0949(4) 0.5450(3)
C13 C -0.4706(2) -0.0731(5) 0.5407(4)
H15 H -0.4866 0.0128 0.5296
C14 C -0.4996(2) -0.1767(5) 0.5525(4)
H16 H -0.5360 -0.1609 0.5495
C15 C -0.4267(2) -0.3215(5) 0.5749(4)
H17 H -0.4111 -0.4079 0.5875
C16 C -0.39514(19) -0.2219(5) 0.5639(4)
H18 H -0.3583 -0.2400 0.5693
C17 C -0.2274(2) -0.3975(4) 0.4816(4)
H19 H -0.2160 -0.4869 0.4875
C18 C -0.18366(19) -0.2941(4) 0.5040(4)
C19 C -0.1875(2) -0.1687(4) 0.5348(4)
H20 H -0.2195 -0.1441 0.5444
C20 C -0.1442(2) -0.0778(5) 0.5519(4)
H21 H -0.1471 0.0087 0.5736
C21 C -0.0937(2) -0.2326(6) 0.5112(4)
H22 H -0.0607 -0.2555 0.5040
C22 C -0.1347(2) -0.3272(5) 0.4932(4)
H23 H -0.1302 -0.4137 0.4737
C23 C -0.45771(19) -0.3675(4) 0.2957(4)
H24 H -0.4731 -0.4540 0.2840
C24 C -0.49719(19) -0.2547(4) 0.2846(4)
C25 C -0.4864(2) -0.1285(5) 0.2631(4)
H25 H -0.4530 -0.1092 0.2565
C26 C -0.5258(2) -0.0315(5) 0.2517(4)
H26 H -0.5188 0.0555 0.2370
C27 C -0.5833(2) -0.1773(5) 0.2817(4)
H27 H -0.6168 -0.1942 0.2887
C28 C -0.5462(2) -0.2797(5) 0.2938(4)
H28 H -0.5542 -0.3659 0.3083
N12B N -0.07356(18) -0.5551(4) 0.2605(4)
Ag2B Ag -0.638550(16) 0.09474(4) 0.22447(3)
Ag3B Ag -0.537050(18) -0.45827(5) 0.55610(3)
N8B N 0.0212(2) 0.1977(5) 0.5686(4)
O1 O -0.2421(2) -0.7303(4) 0.1876(4)
O2 O -0.2898(2) -0.5927(5) 0.2269(6)
O3 O -0.19758(19) -0.5623(4) 0.2896(5)
N1 N -0.2433(2) -0.6287(4) 0.2330(5)
O4 O -0.6377(2) -0.3048(4) 0.4480(3)
O5 O -0.62385(18) -0.1500(4) 0.5604(4)
O6 O -0.70708(19) -0.2440(5) 0.4759(4)
N2 N -0.65688(19) -0.2360(4) 0.4940(4)
O7 O -0.4426(6) -0.6833(11) 0.5703(10)
O9 O -0.4614(7) -0.7157(14) 0.3904(12)
O11 O -0.5020(13) -0.589(3) 0.430(2)
N3 N -0.4655(5) -0.6747(8) 0.4725(11)
O13 O -0.0558(3) -0.8498(8) 0.7132(7)
O8? O -0.4275(10) -0.625(3) 0.459(2)
O10? O -0.4970(8) -0.7729(14) 0.4204(16)
O12? O -0.5180(13) -0.5841(19) 0.400(3)
N4? N -0.4776(9) -0.6620(18) 0.428(2)
loop_
_geom_bond_atom_site_label_1
_geom_bond_atom_site_label_2
_geom_bond_site_symmetry_1
_geom_bond_site_symmetry_2
Ag1 N5 1_555 1_555
Ag2 N6 1_555 1_555
Ag3 N10 1_555 1_555
O1 N1 1_555 1_555
O2 N1 1_555 1_555
O3 N1 1_555 1_555
O4 N2 1_555 1_555
O5 N2 1_555 1_555
O6 N2 1_555 1_555
O7 N3 1_555 1_555
O9 N3 1_555 1_555
O11 N3 1_555 1_555
N5 C1 1_555 1_555
N6 C8 1_555 1_555
N7 Ag1 1_555 1_555
N8 C14 1_555 1_555
N9 Ag1 1_555 1_555
N10 C20 1_555 1_555
N11 Ag1 1_555 1_555
N12 C26 1_555 1_555
C1 H1 1_555 1_555
H2 C1 1_555 1_555
C2 N7 1_555 1_555
H3 C2 1_555 1_555
H4 C2 1_555 1_555
C3 N9 1_555 1_555
H5 C3 1_555 1_555
H6 C3 1_555 1_555
C4 N11 1_555 1_555
H7 C4 1_555 1_555
H8 C4 1_555 1_555
C5 N5 1_555 1_555
H9 C5 1_555 1_555
C6 C5 1_555 1_555
C7 C6 1_555 1_555
H10 C7 1_555 1_555
C8 C7 1_555 1_555
H11 C8 1_555 1_555
C9 N6 1_555 1_555
H12 C9 1_555 1_555
C10 C6 1_555 1_555
H13 C10 1_555 1_555
C11 N7 1_555 1_555
H14 C11 1_555 1_555
C12 C11 1_555 1_555
C13 C12 1_555 1_555
H15 C13 1_555 1_555
C14 C13 1_555 1_555
H16 C14 1_555 1_555
C15 N8 1_555 1_555
H17 C15 1_555 1_555
C16 C12 1_555 1_555
H18 C16 1_555 1_555
C17 N9 1_555 1_555
H19 C17 1_555 1_555
C18 C17 1_555 1_555
C19 C18 1_555 1_555
H20 C19 1_555 1_555
C20 C19 1_555 1_555
H21 C20 1_555 1_555
C21 N10 1_555 1_555
H22 C21 1_555 1_555
C22 C18 1_555 1_555
H23 C22 1_555 1_555
C23 N11 1_555 1_555
H24 C23 1_555 1_555
C24 C23 1_555 1_555
C25 C24 1_555 1_555
H25 C25 1_555 1_555
C26 C25 1_555 1_555
H26 C26 1_555 1_555
C27 N12 1_555 1_555
H27 C27 1_555 1_555
C28 C24 1_555 1_555
H28 C28 1_555 1_555
N12B Ag2 1_555 1_555
Ag2B N12 1_555 1_555
Ag3B N8 1_555 1_555
N8B Ag3 1_555 1_555
C1 C2 1_555 1_555
C3 C4 1_555 1_555
C9 C10 1_555 1_555
C15 C16 1_555 1_555
C21 C22 1_555 1_555
C27 C28 1_555 1_555

#END
