
#######################################################################
#
#                 Cambridge Crystallographic Data Centre
#                                CCDC 
#
#######################################################################
#
# If this CIF has been generated from an entry in the Cambridge 
# Structural Database, then it will include bibliographic, chemical, 
# crystal, experimental, refinement or atomic coordinate data resulting 
# from the CCDC's data processing and validation procedures.
#
#######################################################################

data_LUVZUX
_symmetry_cell_setting           tetragonal
_symmetry_space_group_name_H-M   'I 4'
_symmetry_Int_Tables_number      79
_space_group_name_Hall           'I 4'
loop_
_symmetry_equiv_pos_site_id
_symmetry_equiv_pos_as_xyz
1 x,y,z
2 -x,-y,z
3 -y,x,z
4 y,-x,z
5 1/2+x,1/2+y,1/2+z
6 1/2-x,1/2-y,1/2+z
7 1/2-y,1/2+x,1/2+z
8 1/2+y,1/2-x,1/2+z
_cell_length_a                   11.3350(9)
_cell_length_b                   11.3350(9)
_cell_length_c                   13.0035(7)
_cell_angle_alpha                90
_cell_angle_beta                 90
_cell_angle_gamma                90
_cell_volume                     1670.72
loop_
_atom_site_label
_atom_site_type_symbol
_atom_site_fract_x
_atom_site_fract_y
_atom_site_fract_z
Co1 Co 0.0000 0.0000 -0.00016(2)
S1 S 0.0000 0.0000 0.37272(8)
S2 S 0.0000 0.0000 -0.36905(12)
N1 N 0.0000 0.0000 0.1575(3)
N2 N 0.0000 0.0000 -0.1580(4)
N3 N 0.39301(17) 0.07587(18) 0.24661(16)
N4 N 0.16093(13) 0.10518(13) 0.00006(17)
C1 C 0.0000 0.0000 0.2471(4)
C2 C 0.0000 0.0000 -0.2448(4)
C3 C 0.4748(2) 0.0618(2) 0.3315(2)
H1 H 0.4334 0.0766 0.3973
H2 H 0.5395 0.1199 0.3251
C4 C 0.4188(2) 0.1445(2) 0.17459(19)
H3 H 0.4906 0.1875 0.1776
C5 C 0.3400(2) 0.1602(2) 0.08502(18)
C6 C 0.23858(19) 0.0938(2) 0.07672(18)
H4 H 0.2230 0.0366 0.1284
C7 C 0.1850(2) 0.1851(2) -0.07350(19)
H5 H 0.1309 0.1939 -0.1287
C8 C 0.2844(2) 0.2544(2) -0.0724(2)
H6 H 0.2984 0.3102 -0.1255
C9 C 0.3634(2) 0.2414(2) 0.0077(2)
H7 H 0.4333 0.2876 0.0098
C3A C 0.5252(2) -0.0618(2) 0.3315(2)
N3A N 0.60699(17) -0.07587(18) 0.24661(16)
C4A C 0.5812(2) -0.1445(2) 0.17459(19)
H3A H 0.5094 -0.1875 0.1776
C5A C 0.6600(2) -0.1602(2) 0.08502(18)
C6A C 0.76142(19) -0.0938(2) 0.07672(18)
N4A N 0.83907(13) -0.10518(13) 0.00006(17)
C7A C 0.8150(2) -0.1851(2) -0.07350(19)
H5A H 0.8691 -0.1939 -0.1287
C8A C 0.7156(2) -0.2544(2) -0.0724(2)
H6A H 0.7016 -0.3102 -0.1255
C9A C 0.6366(2) -0.2414(2) 0.0077(2)
H7A H 0.5667 -0.2876 0.0098
H4A H 0.7770 -0.0366 0.1284
H1A H 0.5666 -0.0766 0.3973
H2A H 0.4605 -0.1199 0.3251
N3A_2 N -0.39301(17) -0.07587(18) 0.24661(16)
N4A_2 N -0.16093(13) -0.10518(13) 0.00006(17)
C3A_2 C -0.4748(2) -0.0618(2) 0.3315(2)
H1A_2 H -0.4334 -0.0766 0.3973
H2A_2 H -0.5395 -0.1199 0.3251
C4A_2 C -0.4188(2) -0.1445(2) 0.17459(19)
H3A_2 H -0.4906 -0.1875 0.1776
C5A_2 C -0.3400(2) -0.1602(2) 0.08502(18)
C6A_2 C -0.23858(19) -0.0938(2) 0.07672(18)
H4A_2 H -0.2230 -0.0366 0.1284
C7A_2 C -0.1850(2) -0.1851(2) -0.07350(19)
H5A_2 H -0.1309 -0.1939 -0.1287
C8A_2 C -0.2844(2) -0.2544(2) -0.0724(2)
H6A_2 H -0.2984 -0.3102 -0.1255
C9A_2 C -0.3634(2) -0.2414(2) 0.0077(2)
H7A_2 H -0.4333 -0.2876 0.0098
C3_2 C -0.5252(2) 0.0618(2) 0.3315(2)
N3_2 N -0.60699(17) 0.07587(18) 0.24661(16)
C4_2 C -0.5812(2) 0.1445(2) 0.17459(19)
H3_2 H -0.5094 0.1875 0.1776
C5_2 C -0.6600(2) 0.1602(2) 0.08502(18)
C6_2 C -0.76142(19) 0.0938(2) 0.07672(18)
N4_2 N -0.83907(13) 0.10518(13) 0.00006(17)
C7_2 C -0.8150(2) 0.1851(2) -0.07350(19)
H5_2 H -0.8691 0.1939 -0.1287
C8_2 C -0.7156(2) 0.2544(2) -0.0724(2)
H6_2 H -0.7016 0.3102 -0.1255
C9_2 C -0.6366(2) 0.2414(2) 0.0077(2)
H7_2 H -0.5667 0.2876 0.0098
H4_2 H -0.7770 0.0366 0.1284
H1_2 H -0.5666 0.0766 0.3973
H2_2 H -0.4605 0.1199 0.3251
N4B N -0.10518(13) 0.16093(13) 0.00006(17)
N4C N 0.10518(13) -0.16093(13) 0.00006(17)
Co1_2 Co 1.0000 0.0000 -0.00016(2)
Co1_3 Co -1.0000 0.0000 -0.00016(2)
loop_
_geom_bond_atom_site_label_1
_geom_bond_atom_site_label_2
_geom_bond_site_symmetry_1
_geom_bond_site_symmetry_2
Co1 N1 1_555 1_555
S1 C1 1_555 1_555
S2 C2 1_555 1_555
N1 C1 1_555 1_555
N2 Co1 1_555 1_555
N3 C3 1_555 1_555
N4 Co1 1_555 1_555
C2 N2 1_555 1_555
C3 H1 1_555 1_555
H2 C3 1_555 1_555
C4 N3 1_555 1_555
H3 C4 1_555 1_555
C5 C4 1_555 1_555
C6 N4 1_555 1_555
H4 C6 1_555 1_555
C7 N4 1_555 1_555
H5 C7 1_555 1_555
C8 C7 1_555 1_555
H6 C8 1_555 1_555
C9 C5 1_555 1_555
H7 C9 1_555 1_555
C3A C3 1_555 1_555
N3A C3A 1_555 1_555
C4A N3A 1_555 1_555
H3A C4A 1_555 1_555
C5A C4A 1_555 1_555
C6A C5A 1_555 1_555
N4A C6A 1_555 1_555
C7A N4A 1_555 1_555
H5A C7A 1_555 1_555
C8A C7A 1_555 1_555
H6A C8A 1_555 1_555
C9A C5A 1_555 1_555
H7A C9A 1_555 1_555
H4A C6A 1_555 1_555
H1A C3A 1_555 1_555
H2A C3A 1_555 1_555
N3A_2 C3A_2 1_555 1_555
N4A_2 Co1 1_555 1_555
C3A_2 H1A_2 1_555 1_555
H2A_2 C3A_2 1_555 1_555
C4A_2 N3A_2 1_555 1_555
H3A_2 C4A_2 1_555 1_555
C5A_2 C4A_2 1_555 1_555
C6A_2 N4A_2 1_555 1_555
H4A_2 C6A_2 1_555 1_555
C7A_2 N4A_2 1_555 1_555
H5A_2 C7A_2 1_555 1_555
C8A_2 C7A_2 1_555 1_555
H6A_2 C8A_2 1_555 1_555
C9A_2 C5A_2 1_555 1_555
H7A_2 C9A_2 1_555 1_555
C3_2 C3A_2 1_555 1_555
N3_2 C3_2 1_555 1_555
C4_2 N3_2 1_555 1_555
H3_2 C4_2 1_555 1_555
C5_2 C4_2 1_555 1_555
C6_2 C5_2 1_555 1_555
N4_2 C6_2 1_555 1_555
C7_2 N4_2 1_555 1_555
H5_2 C7_2 1_555 1_555
C8_2 C7_2 1_555 1_555
H6_2 C8_2 1_555 1_555
C9_2 C5_2 1_555 1_555
H7_2 C9_2 1_555 1_555
H4_2 C6_2 1_555 1_555
H1_2 C3_2 1_555 1_555
H2_2 C3_2 1_555 1_555
N4B Co1 1_555 1_555
N4C Co1 1_555 1_555
Co1_2 N4A 1_555 1_555
Co1_3 N4_2 1_555 1_555
C5 C6 1_555 1_555
C8 C9 1_555 1_555
C8A C9A 1_555 1_555
C5A_2 C6A_2 1_555 1_555
C8A_2 C9A_2 1_555 1_555
C8_2 C9_2 1_555 1_555

#END
