
#######################################################################
#
#                 Cambridge Crystallographic Data Centre
#                                CCDC 
#
#######################################################################
#
# If this CIF has been generated from an entry in the Cambridge 
# Structural Database, then it will include bibliographic, chemical, 
# crystal, experimental, refinement or atomic coordinate data resulting 
# from the CCDC's data processing and validation procedures.
#
#######################################################################

data_LUWCAI
_symmetry_cell_setting           triclinic
_symmetry_space_group_name_H-M   'P -1'
_symmetry_Int_Tables_number      2
_space_group_name_Hall           '-P 1'
loop_
_symmetry_equiv_pos_site_id
_symmetry_equiv_pos_as_xyz
1 x,y,z
2 -x,-y,-z
_cell_length_a                   9.7851(3)
_cell_length_b                   9.8986(3)
_cell_length_c                   10.7420(3)
_cell_angle_alpha                73.7900(15)
_cell_angle_beta                 71.6838(14)
_cell_angle_gamma                79.3001(13)
_cell_volume                     942.987
loop_
_atom_site_label
_atom_site_type_symbol
_atom_site_fract_x
_atom_site_fract_y
_atom_site_fract_z
Fe1 Fe 0.00000 0.00000 0.00000
Fe2 Fe -0.14078(4) 0.37441(4) 0.22905(4)
Fe3 Fe 0.37769(4) -0.09670(4) 0.24490(4)
P1 P 0.06011(8) 0.07087(8) 0.26101(8)
P2 P -0.06026(8) 0.34616(8) -0.08176(8)
P3 P -0.39350(8) 0.63163(8) 0.17673(8)
P4 P 0.36104(8) -0.10483(8) -0.06647(8)
O1 O 0.0402(2) -0.0113(2) 0.1683(2)
O2 O 0.0230(2) 0.2314(2) 0.2139(2)
O3 O 0.2176(2) 0.0510(2) 0.2664(2)
O4 O -0.0411(2) 0.0133(2) 0.4023(2)
O5 O 0.0415(2) 0.2099(2) -0.0720(2)
O6 O -0.1654(2) 0.3646(2) 0.0541(2)
O7 O 0.0193(2) 0.4741(2) -0.1529(2)
O8 O -0.1659(2) 0.3451(2) -0.1677(2)
O9 O -0.3169(2) 0.5098(2) 0.2564(2)
O10 O -0.4774(2) 0.7343(2) 0.2602(2)
O11 O -0.4940(2) 0.5688(2) 0.1229(2)
O12 O -0.2881(2) 0.7092(2) 0.0426(2)
O13 O 0.2111(2) -0.0520(2) -0.0847(2)
O14 O 0.3737(2) -0.1075(2) 0.0701(2)
O15 O 0.4745(2) -0.0282(2) -0.1843(2)
O16 O 0.3998(2) -0.2653(2) -0.0793(2)
O17 O -0.2848(2) 0.2230(2) 0.3410(2)
O18 O -0.3823(2) 0.1086(2) 0.5547(2)
O19 O -0.1404(2) 0.3645(2) 0.4260(2)
O20 O -0.2266(2) 0.2429(2) 0.6397(2)
C1 C -0.3024(3) 0.1947(3) 0.4661(3)
C2 C -0.2153(3) 0.2751(3) 0.5158(3)
Fe2A Fe 0.14078(4) -0.37441(4) -0.22905(4)
Fe2A_2 Fe 0.14078(4) 0.62559(4) -0.22905(4)
Fe2_2 Fe -0.14078(4) -0.62559(4) 0.22905(4)
Fe2_3 Fe 0.85922(4) -0.62559(4) 0.22905(4)
Fe2A_3 Fe 0.14078(4) -0.37441(4) 0.77095(4)
Fe3A Fe -0.37769(4) 0.09670(4) -0.24490(4)
Fe3_2 Fe -0.62231(4) 0.90330(4) 0.24490(4)
Fe3A_2 Fe 0.62231(4) 0.09670(4) -0.24490(4)
Fe3A_3 Fe -0.37769(4) 0.09670(4) 0.75510(4)
Fe3_3 Fe -0.62231(4) -0.09670(4) 0.24490(4)
P1A P -0.06011(8) -0.07087(8) -0.26101(8)
P2A P 0.06026(8) -0.34616(8) 0.08176(8)
P3_2 P 0.60650(8) -0.36837(8) 0.17673(8)
P4A P -0.36104(8) 0.10483(8) 0.06647(8)
O1A O -0.0402(2) 0.0113(2) -0.1683(2)
O2A O -0.0230(2) -0.2314(2) -0.2139(2)
O3A O -0.2176(2) -0.0510(2) -0.2664(2)
O4A O 0.0411(2) -0.0133(2) -0.4023(2)
O5A O -0.0415(2) -0.2099(2) 0.0720(2)
O6A O 0.1654(2) -0.3646(2) -0.0541(2)
O7A O -0.0193(2) -0.4741(2) 0.1529(2)
O7A_2 O -0.0193(2) 0.5259(2) 0.1529(2)
O7_2 O 0.0193(2) -0.5259(2) -0.1529(2)
O8A O 0.1659(2) -0.3451(2) 0.1677(2)
O9_2 O 0.6831(2) -0.4902(2) 0.2564(2)
O9A O 0.3169(2) -0.5098(2) -0.2564(2)
O10_2 O 0.5226(2) -0.2657(2) 0.2602(2)
O10A O -0.5226(2) 0.2657(2) -0.2602(2)
O11_2 O 0.5060(2) -0.4312(2) 0.1229(2)
O12_2 O 0.7119(2) -0.2908(2) 0.0426(2)
O13A O -0.2111(2) 0.0520(2) 0.0847(2)
O14A O -0.3737(2) 0.1075(2) -0.0701(2)
O15A O -0.4745(2) 0.0282(2) 0.1843(2)
O15A_2 O 0.5255(2) 0.0282(2) 0.1843(2)
O15_2 O -0.5255(2) -0.0282(2) -0.1843(2)
O16A O -0.3998(2) 0.2653(2) 0.0793(2)
O17A O 0.2848(2) -0.2230(2) 0.6590(2)
O17A_2 O 0.2848(2) -0.2230(2) -0.3410(2)
O18A O 0.3823(2) -0.1086(2) 0.4453(2)
O18_2 O -0.3823(2) 0.1086(2) -0.4453(2)
O19A O 0.1404(2) -0.3645(2) 0.5740(2)
O19A_2 O 0.1404(2) -0.3645(2) -0.4260(2)
O20A O 0.2266(2) -0.2429(2) 0.3603(2)
O20_2 O -0.2266(2) 0.2429(2) -0.3603(2)
C1A C 0.3024(3) -0.1947(3) 0.5339(3)
C2A C 0.2153(3) -0.2751(3) 0.4842(3)
N1 N 0.7364(3) 0.8941(3) 0.3656(3)
N2 N 0.7016(3) 0.6580(3) 0.7860(3)
C3 C 0.7749(4) 0.7402(4) 0.4039(4)
C4 C 0.8008(4) 0.6905(4) 0.5396(4)
C5 C 0.6679(4) 0.7049(4) 0.6513(4)
H1 H 0.721 0.918 0.287
H2 H 0.659 0.918 0.424
H3 H 0.806 0.936 0.364
H4 H 0.624 0.667 0.850
H5 H 0.738 0.571 0.798
H6 H 0.763 0.710 0.786
H7 H 0.696 0.694 0.405
H8 H 0.861 0.715 0.338
H9 H 0.870 0.746 0.542
H10 H 0.840 0.593 0.553
H11 H 0.627 0.802 0.638
H12 H 0.599 0.647 0.651
loop_
_geom_bond_atom_site_label_1
_geom_bond_atom_site_label_2
_geom_bond_site_symmetry_1
_geom_bond_site_symmetry_2
Fe1 O1 1_555 1_555
Fe2 O2 1_555 1_555
Fe3 O3 1_555 1_555
P1 O1 1_555 1_555
P2 O5 1_555 1_555
P3 O9 1_555 1_555
P4 O13 1_555 1_555
O2 P1 1_555 1_555
O3 P1 1_555 1_555
O4 P1 1_555 1_555
O5 Fe1 1_555 1_555
O6 Fe2 1_555 1_555
O7 P2 1_555 1_555
O8 P2 1_555 1_555
O9 Fe2 1_555 1_555
O10 P3 1_555 1_555
O11 P3 1_555 1_555
O12 P3 1_555 1_555
O13 Fe1 1_555 1_555
O14 Fe3 1_555 1_555
O15 P4 1_555 1_555
O16 P4 1_555 1_555
O17 Fe2 1_555 1_555
O18 C1 1_555 1_555
O19 Fe2 1_555 1_555
O20 C2 1_555 1_555
C1 O17 1_555 1_555
C2 O19 1_555 1_555
N1 C3 1_555 1_555
N2 C5 1_555 1_555
C3 C4 1_555 1_555
C4 C5 1_555 1_555
C5 H11 1_555 1_555
H1 N1 1_555 1_555
H2 N1 1_555 1_555
H3 N1 1_555 1_555
H4 N2 1_555 1_555
H5 N2 1_555 1_555
H6 N2 1_555 1_555
H7 C3 1_555 1_555
H8 C3 1_555 1_555
H9 C4 1_555 1_555
H10 C4 1_555 1_555
H12 C5 1_555 1_555
Fe2A O2A 1_555 1_555
Fe2A_2 O7 1_555 1_555
Fe2_2 O7A 1_555 1_555
Fe2_3 O9_2 1_555 1_555
Fe2A_3 O17A 1_555 1_555
Fe3A O3A 1_555 1_555
Fe3_2 O10 1_555 1_555
Fe3A_2 O15 1_555 1_555
Fe3A_3 O18 1_555 1_555
Fe3_3 O15A 1_555 1_555
P1A O1A 1_555 1_555
P2A O5A 1_555 1_555
P3_2 O9_2 1_555 1_555
P4A O13A 1_555 1_555
O1A Fe1 1_555 1_555
O2A P1A 1_555 1_555
O3A P1A 1_555 1_555
O4A P1A 1_555 1_555
O5A Fe1 1_555 1_555
O6A Fe2A 1_555 1_555
O7A P2A 1_555 1_555
O7A_2 Fe2 1_555 1_555
O7_2 Fe2A 1_555 1_555
O8A P2A 1_555 1_555
O9A Fe2A 1_555 1_555
O10_2 Fe3 1_555 1_555
O10A Fe3A 1_555 1_555
O11_2 P3_2 1_555 1_555
O12_2 P3_2 1_555 1_555
O13A Fe1 1_555 1_555
O14A Fe3A 1_555 1_555
O15A P4A 1_555 1_555
O15A_2 Fe3 1_555 1_555
O15_2 Fe3A 1_555 1_555
O16A P4A 1_555 1_555
O17A C1A 1_555 1_555
O17A_2 Fe2A 1_555 1_555
O18A Fe3 1_555 1_555
O18_2 Fe3A 1_555 1_555
O19A Fe2A_3 1_555 1_555
O19A_2 Fe2A 1_555 1_555
O20A Fe3 1_555 1_555
O20_2 Fe3A 1_555 1_555
C1A O18A 1_555 1_555
C2A O19A 1_555 1_555
P2 O6 1_555 1_555
P4 O14 1_555 1_555
O20 Fe3A_3 1_555 1_555
C1 C2 1_555 1_555
P2A O6A 1_555 1_555
P3_2 O10_2 1_555 1_555
P4A O14A 1_555 1_555
O20A C2A 1_555 1_555
C1A C2A 1_555 1_555

#END
