
#######################################################################
#
#                 Cambridge Crystallographic Data Centre
#                                CCDC 
#
#######################################################################
#
# If this CIF has been generated from an entry in the Cambridge 
# Structural Database, then it will include bibliographic, chemical, 
# crystal, experimental, refinement or atomic coordinate data resulting 
# from the CCDC's data processing and validation procedures.
#
#######################################################################

data_LUWCEL
_symmetry_cell_setting           triclinic
_symmetry_space_group_name_H-M   'P -1'
_symmetry_Int_Tables_number      2
_space_group_name_Hall           '-P 1'
loop_
_symmetry_equiv_pos_site_id
_symmetry_equiv_pos_as_xyz
1 x,y,z
2 -x,-y,-z
_cell_length_a                   8.2080(10)
_cell_length_b                   8.4130(10)
_cell_length_c                   10.5780(10)
_cell_angle_alpha                74.580(10)
_cell_angle_beta                 84.600(10)
_cell_angle_gamma                73.450(10)
_cell_volume                     674.852
loop_
_atom_site_label
_atom_site_type_symbol
_atom_site_fract_x
_atom_site_fract_y
_atom_site_fract_z
Mn1 Mn 0.74207(3) 0.54075(3) 0.87621(2)
N1 N 0.6671(2) 0.3586(2) 0.77415(15)
N2 N 0.79738(19) 0.62472(19) 0.65492(14)
C1 C 0.6039(3) 0.2278(3) 0.8311(2)
C2 C 0.5706(3) 0.1180(3) 0.7642(2)
C3 C 0.5984(3) 0.1502(3) 0.6320(2)
C4 C 0.6612(2) 0.2889(3) 0.5665(2)
C5 C 0.6905(3) 0.3331(3) 0.4269(2)
C6 C 0.7517(3) 0.4663(3) 0.3677(2)
C7 C 0.7894(2) 0.5708(3) 0.44167(18)
C8 C 0.8535(3) 0.7119(3) 0.38401(19)
C9 C 0.8847(3) 0.8068(3) 0.4608(2)
C10 C 0.8560(3) 0.7579(2) 0.5965(2)
C11 C 0.7627(2) 0.5320(2) 0.57883(17)
C12 C 0.6962(2) 0.3891(2) 0.64269(18)
O1 O 0.49773(16) 0.73077(17) 0.83715(13)
O2 O 0.32808(16) 0.56436(16) 0.92893(12)
C13 C 0.3550(2) 0.7074(2) 0.87617(16)
C14 C 0.2106(2) 0.8660(2) 0.8560(2)
C15 C 0.0492(2) 0.8790(2) 0.89363(19)
C16 C -0.0329(2) 0.7396(2) 0.96396(17)
O3 O 0.01157(17) 0.65279(18) 1.07646(13)
O4 O -0.15081(18) 0.73180(18) 0.90069(15)
H1 H 0.575(3) 0.209(3) 0.924(2)
H2 H 0.529(4) 0.030(4) 0.811(3)
H3 H 0.573(4) 0.077(4) 0.583(3)
H4 H 0.665(3) 0.261(3) 0.381(2)
H5 H 0.773(3) 0.492(3) 0.276(3)
H6 H 0.878(3) 0.737(3) 0.292(3)
H7 H 0.927(3) 0.897(3) 0.427(3)
H8 H 0.879(3) 0.821(3) 0.653(2)
H9 H 0.244(3) 0.963(3) 0.814(2)
H10 H -0.031(3) 0.984(3) 0.875(3)
O2A O 0.67192(16) 0.43564(16) 1.07107(12)
O3A O 0.98843(17) 0.34721(18) 0.92354(13)
O4_2 O 0.84919(18) 0.73180(18) 0.90069(15)
Mn1A Mn 0.25793(3) 0.45925(3) 1.12379(2)
Mn1_2 Mn -0.25793(3) 0.54075(3) 0.87621(2)
loop_
_geom_bond_atom_site_label_1
_geom_bond_atom_site_label_2
_geom_bond_site_symmetry_1
_geom_bond_site_symmetry_2
Mn1 N1 1_555 1_555
N1 C1 1_555 1_555
N2 Mn1 1_555 1_555
C1 C2 1_555 1_555
C2 C3 1_555 1_555
C3 C4 1_555 1_555
C4 C5 1_555 1_555
C5 C6 1_555 1_555
C6 C7 1_555 1_555
C7 C8 1_555 1_555
C8 C9 1_555 1_555
C9 C10 1_555 1_555
C10 N2 1_555 1_555
C11 N2 1_555 1_555
C12 N1 1_555 1_555
O1 Mn1 1_555 1_555
O2 C13 1_555 1_555
C13 O1 1_555 1_555
C14 C13 1_555 1_555
C15 C14 1_555 1_555
C16 C15 1_555 1_555
O3 C16 1_555 1_555
O4 C16 1_555 1_555
H1 C1 1_555 1_555
H2 C2 1_555 1_555
H3 C3 1_555 1_555
H4 C5 1_555 1_555
H5 C6 1_555 1_555
H6 C8 1_555 1_555
H7 C9 1_555 1_555
H8 C10 1_555 1_555
H9 C14 1_555 1_555
H10 C15 1_555 1_555
O2A Mn1 1_555 1_555
O3A Mn1 1_555 1_555
O4_2 Mn1 1_555 1_555
Mn1A O2 1_555 1_555
Mn1_2 O4 1_555 1_555
C4 C12 1_555 1_555
C7 C11 1_555 1_555
C11 C12 1_555 1_555
O3 Mn1A 1_555 1_555

#END
