
#######################################################################
#
#                 Cambridge Crystallographic Data Centre
#                                CCDC 
#
#######################################################################
#
# If this CIF has been generated from an entry in the Cambridge 
# Structural Database, then it will include bibliographic, chemical, 
# crystal, experimental, refinement or atomic coordinate data resulting 
# from the CCDC's data processing and validation procedures.
#
#######################################################################

data_LUWCEL01
_symmetry_cell_setting           triclinic
_symmetry_space_group_name_H-M   'P -1'
_symmetry_Int_Tables_number      2
_space_group_name_Hall           '-P 1'
loop_
_symmetry_equiv_pos_site_id
_symmetry_equiv_pos_as_xyz
1 x,y,z
2 -x,-y,-z
_cell_length_a                   8.2130(8)
_cell_length_b                   8.4237(8)
_cell_length_c                   10.5907(10)
_cell_angle_alpha                74.579(2)
_cell_angle_beta                 84.621(2)
_cell_angle_gamma                73.462(2)
_cell_volume                     676.977
loop_
_atom_site_label
_atom_site_type_symbol
_atom_site_fract_x
_atom_site_fract_y
_atom_site_fract_z
Mn1 Mn 0.24210(5) 0.54072(5) -0.12379(4)
O1 O 0.1716(2) 0.4355(2) 0.07118(17)
O2 O 0.0021(2) 0.2692(2) 0.16301(18)
O3 O 0.4883(2) 0.3473(3) -0.07670(18)
O4 O 0.6503(3) 0.2684(3) 0.0993(2)
N1 N 0.1677(3) 0.3584(3) -0.2260(2)
N2 N 0.2982(3) 0.6253(3) -0.3455(2)
C1 C 0.1042(4) 0.2276(4) -0.1689(3)
H1 H 0.0803 0.2076 -0.0794
C2 C 0.0715(4) 0.1183(4) -0.2361(3)
H2 H 0.0317 0.0252 -0.1916
C3 C 0.0990(4) 0.1507(4) -0.3679(3)
H3 H 0.0761 0.0803 -0.4144
C4 C 0.1615(4) 0.2891(4) -0.4338(3)
C5 C 0.1899(4) 0.3331(5) -0.5722(3)
H4 H 0.1650 0.2678 -0.6223
C6 C 0.2514(4) 0.4654(5) -0.6317(3)
H5 H 0.2695 0.4900 -0.7220
C7 C 0.2899(4) 0.5704(4) -0.5580(3)
C8 C 0.3536(4) 0.7109(4) -0.6160(3)
H6 H 0.3745 0.7395 -0.7059
C9 C 0.3849(4) 0.8058(4) -0.5389(3)
H7 H 0.4248 0.9011 -0.5761
C10 C 0.3563(4) 0.7578(4) -0.4037(3)
H8 H 0.3793 0.8225 -0.3524
C11 C 0.1970(3) 0.3892(3) -0.3575(3)
C12 C 0.2629(3) 0.5316(4) -0.4214(3)
C13 C 0.1447(3) 0.2925(3) 0.1240(2)
C14 C 0.2892(4) 0.1343(4) 0.1439(3)
H9 H 0.2635 0.0328 0.1878
C15 C 0.4506(4) 0.1219(4) 0.1062(3)
H10 H 0.5232 0.0118 0.1264
C16 C 0.5319(3) 0.2604(3) 0.0357(3)
O2A O -0.0021(2) 0.7308(2) -0.16301(18)
Mn1A Mn -0.24210(5) 0.45928(5) 0.12379(4)
O4A O 0.3497(3) 0.7316(3) -0.0993(2)
Mn1A_2 Mn 0.75790(5) 0.45928(5) 0.12379(4)
loop_
_geom_bond_atom_site_label_1
_geom_bond_atom_site_label_2
_geom_bond_site_symmetry_1
_geom_bond_site_symmetry_2
Mn1 O1 1_555 1_555
O1 C13 1_555 1_555
O2 C13 1_555 1_555
O3 Mn1 1_555 1_555
O4 C16 1_555 1_555
N1 Mn1 1_555 1_555
N2 Mn1 1_555 1_555
C1 N1 1_555 1_555
H1 C1 1_555 1_555
C2 C1 1_555 1_555
H2 C2 1_555 1_555
C3 C2 1_555 1_555
H3 C3 1_555 1_555
C4 C3 1_555 1_555
C5 C4 1_555 1_555
H4 C5 1_555 1_555
C6 C5 1_555 1_555
H5 C6 1_555 1_555
C7 C6 1_555 1_555
C8 C7 1_555 1_555
H6 C8 1_555 1_555
C9 C8 1_555 1_555
H7 C9 1_555 1_555
C10 N2 1_555 1_555
H8 C10 1_555 1_555
C11 N1 1_555 1_555
C12 N2 1_555 1_555
C13 C14 1_555 1_555
C14 H9 1_555 1_555
C15 C14 1_555 1_555
H10 C15 1_555 1_555
C16 O3 1_555 1_555
O2A Mn1 1_555 1_555
Mn1A O2 1_555 1_555
O4A Mn1 1_555 1_555
Mn1A_2 O4 1_555 1_555
C4 C11 1_555 1_555
C7 C12 1_555 1_555
C9 C10 1_555 1_555
C11 C12 1_555 1_555
C15 C16 1_555 1_555

#END
