
#######################################################################
#
#                 Cambridge Crystallographic Data Centre
#                                CCDC 
#
#######################################################################
#
# If this CIF has been generated from an entry in the Cambridge 
# Structural Database, then it will include bibliographic, chemical, 
# crystal, experimental, refinement or atomic coordinate data resulting 
# from the CCDC's data processing and validation procedures.
#
#######################################################################

data_LUWHAO
_symmetry_cell_setting           monoclinic
_symmetry_space_group_name_H-M   'P 21/n'
_symmetry_Int_Tables_number      14
_space_group_name_Hall           '-P 2yn'
loop_
_symmetry_equiv_pos_site_id
_symmetry_equiv_pos_as_xyz
1 x,y,z
2 1/2-x,1/2+y,1/2-z
3 -x,-y,-z
4 1/2+x,1/2-y,1/2+z
_cell_length_a                   9.0974(2)
_cell_length_b                   20.2078(5)
_cell_length_c                   22.1236(6)
_cell_angle_alpha                90
_cell_angle_beta                 98.2340(6)
_cell_angle_gamma                90
_cell_volume                     4025.24
loop_
_atom_site_label
_atom_site_type_symbol
_atom_site_fract_x
_atom_site_fract_y
_atom_site_fract_z
Cu1 Cu 1.21873(3) 0.24980(2) 0.11338(2)
Cu2 Cu 1.27719(3) 0.23945(2) 0.00045(2)
Cu3 Cu 1.11129(3) 0.34397(2) 0.02989(2)
Cu4 Cu 1.40224(3) 0.34241(2) 0.06998(2)
I1 I 0.99741(2) 0.22131(2) 0.02368(2)
I2 I 1.49709(2) 0.21858(2) 0.09121(2)
I3 I 1.30744(2) 0.35968(2) -0.04955(2)
I4 I 1.20615(2) 0.37426(2) 0.14671(2)
S1 S 1.19322(5) 0.18762(2) 0.19821(2)
S2 S -0.21592(5) 0.32930(2) 0.41803(2)
O1 O 0.76134(17) 0.34992(8) 0.22018(7)
O2 O 0.73254(17) 0.12823(8) 0.25735(7)
O3 O 0.25411(18) 0.39947(7) 0.36247(7)
O4 O 0.22002(16) 0.17744(7) 0.39615(7)
N1 N 0.77291(19) 0.23613(9) 0.22860(8)
N2 N 0.20951(18) 0.29142(8) 0.38818(8)
N3 N 0.9438(2) 0.40415(9) 0.00117(9)
N4 N 1.5684(2) 0.40510(10) 0.09501(9)
C1 C 1.2649(3) 0.06991(11) 0.15165(10)
H1 H 1.2321 0.0281 0.1305
H2 H 1.3084 0.0983 0.1223
C2 C 1.3827(3) 0.05463(11) 0.20545(11)
H3 H 1.4260 0.0966 0.2229
H4 H 1.4633 0.0287 0.1911
C3 C 1.3199(3) 0.01577(11) 0.25511(11)
H5 H 1.2929 -0.0293 0.2399
H6 H 1.3973 0.0114 0.2912
C4 C 1.1835(3) 0.04896(11) 0.27433(10)
H7 H 1.1400 0.0196 0.3029
H8 H 1.2137 0.0907 0.2961
C5 C 1.0671(2) 0.06398(11) 0.21970(10)
H9 H 0.9840 0.0885 0.2336
H10 H 1.0272 0.0219 0.2013
C6 C 1.1304(2) 0.10486(10) 0.17123(10)
H11 H 1.0523 0.1098 0.1348
C7 C 1.0402(2) 0.21897(11) 0.23412(9)
H12 H 1.0279 0.1901 0.2692
H13 H 1.0665 0.2637 0.2504
C8 C 0.8921(2) 0.22301(12) 0.19235(9)
H14 H 0.8957 0.2589 0.1621
H15 H 0.8726 0.1808 0.1699
C9 C 0.7143(2) 0.29857(11) 0.23722(9)
C10 C 0.5903(2) 0.28773(10) 0.27365(9)
C11 C 0.5860(2) 0.22083(10) 0.28719(9)
C12 C 0.7021(2) 0.18652(11) 0.25737(9)
C13 C 0.4961(2) 0.33332(11) 0.29428(9)
H16 H 0.4990 0.3791 0.2848
C14 C 0.3969(2) 0.30713(10) 0.32987(9)
C15 C 0.3920(2) 0.23996(10) 0.34321(9)
C16 C 0.4870(2) 0.19413(10) 0.32281(9)
H17 H 0.4847 0.1484 0.3324
C17 C 0.2674(2) 0.22857(10) 0.37932(9)
C18 C 0.2821(2) 0.34115(10) 0.36049(9)
C19 C 0.0880(2) 0.30383(11) 0.42310(9)
H18 H 0.1048 0.3464 0.4452
H19 H 0.0847 0.2682 0.4536
C20 C -0.0585(2) 0.30636(10) 0.38065(9)
H20 H -0.0779 0.2623 0.3615
H21 H -0.0497 0.3386 0.3477
C21 C -0.1761(2) 0.41536(10) 0.44006(9)
H22 H -0.0775 0.4176 0.4666
C22 C -0.2968(2) 0.43778(11) 0.47681(10)
H23 H -0.2929 0.4103 0.5140
H24 H -0.3955 0.4315 0.4521
C23 C -0.2766(3) 0.51085(11) 0.49503(10)
H25 H -0.3587 0.5248 0.5170
H26 H -0.1821 0.5164 0.5230
C24 C -0.2746(3) 0.55420(12) 0.43928(11)
H27 H -0.2565 0.6007 0.4523
H28 H -0.3727 0.5521 0.4133
C25 C -0.1547(3) 0.53213(11) 0.40246(12)
H29 H -0.0560 0.5391 0.4269
H30 H -0.1600 0.5595 0.3651
C26 C -0.1721(3) 0.45894(11) 0.38436(11)
H31 H -0.2651 0.4529 0.3557
H32 H -0.0882 0.4454 0.3632
C27 C 0.8381(3) 0.43063(10) -0.01920(10)
C28 C 0.7021(3) 0.46413(11) -0.04533(10)
H33 H 0.6194 0.4326 -0.0497
H34 H 0.7140 0.4820 -0.0855
H35 H 0.6813 0.5004 -0.0184
C29 C 1.6662(3) 0.43589(12) 0.11667(11)
C30 C 1.7940(3) 0.47433(13) 0.14455(13)
H36 H 1.8773 0.4445 0.1577
H37 H 1.7680 0.4984 0.1800
H38 H 1.8225 0.5059 0.1147
Cu2C Cu -0.22281(3) 0.26055(2) 0.50045(2)
S2C S 1.28408(5) 0.17070(2) -0.08197(2)
loop_
_geom_bond_atom_site_label_1
_geom_bond_atom_site_label_2
_geom_bond_site_symmetry_1
_geom_bond_site_symmetry_2
Cu1 I1 1_555 1_555
Cu2 I1 1_555 1_555
Cu3 I1 1_555 1_555
Cu4 I2 1_555 1_555
I2 Cu1 1_555 1_555
I3 Cu2 1_555 1_555
I4 Cu1 1_555 1_555
S1 Cu1 1_555 1_555
S2 C20 1_555 1_555
O1 C9 1_555 1_555
O2 C12 1_555 1_555
O3 C18 1_555 1_555
O4 C17 1_555 1_555
N1 C8 1_555 1_555
N2 C17 1_555 1_555
N3 Cu3 1_555 1_555
N4 Cu4 1_555 1_555
C1 H1 1_555 1_555
H2 C1 1_555 1_555
C2 C1 1_555 1_555
H3 C2 1_555 1_555
H4 C2 1_555 1_555
C3 C2 1_555 1_555
H5 C3 1_555 1_555
H6 C3 1_555 1_555
C4 C3 1_555 1_555
H7 C4 1_555 1_555
H8 C4 1_555 1_555
C5 C4 1_555 1_555
H9 C5 1_555 1_555
H10 C5 1_555 1_555
C6 S1 1_555 1_555
H11 C6 1_555 1_555
C7 S1 1_555 1_555
H12 C7 1_555 1_555
H13 C7 1_555 1_555
C8 C7 1_555 1_555
H14 C8 1_555 1_555
H15 C8 1_555 1_555
C9 N1 1_555 1_555
C10 C9 1_555 1_555
C11 C10 1_555 1_555
C12 N1 1_555 1_555
C13 C10 1_555 1_555
H16 C13 1_555 1_555
C14 C13 1_555 1_555
C15 C14 1_555 1_555
C16 C11 1_555 1_555
H17 C16 1_555 1_555
C17 C15 1_555 1_555
C18 N2 1_555 1_555
C19 N2 1_555 1_555
H18 C19 1_555 1_555
H19 C19 1_555 1_555
C20 C19 1_555 1_555
H20 C20 1_555 1_555
H21 C20 1_555 1_555
C21 S2 1_555 1_555
H22 C21 1_555 1_555
C22 C21 1_555 1_555
H23 C22 1_555 1_555
H24 C22 1_555 1_555
C23 C22 1_555 1_555
H25 C23 1_555 1_555
H26 C23 1_555 1_555
C24 C23 1_555 1_555
H27 C24 1_555 1_555
H28 C24 1_555 1_555
C25 C24 1_555 1_555
H29 C25 1_555 1_555
H30 C25 1_555 1_555
C26 C21 1_555 1_555
H31 C26 1_555 1_555
H32 C26 1_555 1_555
C27 N3 1_555 1_555
C28 C27 1_555 1_555
H33 C28 1_555 1_555
H34 C28 1_555 1_555
H35 C28 1_555 1_555
C29 N4 1_555 1_555
C30 C29 1_555 1_555
H36 C30 1_555 1_555
H37 C30 1_555 1_555
H38 C30 1_555 1_555
Cu2C S2 1_555 1_555
S2C Cu2 1_555 1_555
Cu2 I2 1_555 1_555
Cu3 I3 1_555 1_555
Cu3 I4 1_555 1_555
Cu4 I3 1_555 1_555
Cu4 I4 1_555 1_555
C1 C6 1_555 1_555
C5 C6 1_555 1_555
C11 C12 1_555 1_555
C14 C18 1_555 1_555
C15 C16 1_555 1_555
C25 C26 1_555 1_555

#END
