
#######################################################################
#
#                 Cambridge Crystallographic Data Centre
#                                CCDC 
#
#######################################################################
#
# If this CIF has been generated from an entry in the Cambridge 
# Structural Database, then it will include bibliographic, chemical, 
# crystal, experimental, refinement or atomic coordinate data resulting 
# from the CCDC's data processing and validation procedures.
#
#######################################################################

data_LUWMEX
_symmetry_cell_setting           monoclinic
_symmetry_space_group_name_H-M   'C 2/c'
_symmetry_Int_Tables_number      15
_space_group_name_Hall           '-C 2yn'
loop_
_symmetry_equiv_pos_site_id
_symmetry_equiv_pos_as_xyz
1 x,y,z
2 -x,y,1/2-z
3 1/2+x,1/2+y,z
4 1/2-x,1/2+y,1/2-z
5 -x,-y,-z
6 x,-y,1/2+z
7 1/2-x,1/2-y,-z
8 1/2+x,1/2-y,1/2+z
_cell_length_a                   24.795(7)
_cell_length_b                   13.651(4)
_cell_length_c                   14.936(5)
_cell_angle_alpha                90
_cell_angle_beta                 97.077(4)
_cell_angle_gamma                90
_cell_volume                     5016.97
loop_
_atom_site_label
_atom_site_type_symbol
_atom_site_fract_x
_atom_site_fract_y
_atom_site_fract_z
La1 La 0.830914(10) 0.21018(2) 0.530285(19)
C1 C 1.0700(2) 0.7217(5) 0.5416(4)
C2 C 1.0197(2) 0.6888(5) 0.5814(4)
C3 C 0.9863(3) 0.7547(6) 0.6174(6)
H1 H 0.9962 0.8202 0.6233
C4 C 0.9372(3) 0.7230(5) 0.6451(6)
H2 H 0.9141 0.7684 0.6669
C5 C 0.9227(2) 0.6252(4) 0.6405(4)
C6 C 0.9576(2) 0.5607(5) 0.6071(4)
H3 H 0.9483 0.4947 0.6032
C7 C 1.0063(2) 0.5906(5) 0.5787(4)
H4 H 1.0297 0.5448 0.5581
C8 C 0.8684(2) 0.5946(4) 0.6654(4)
C9 C 0.8458(2) 0.6405(5) 0.7356(4)
H5 H 0.8665 0.6859 0.7714
C10 C 0.7931(2) 0.6204(4) 0.7537(4)
C11 C 0.7628(2) 0.5520(4) 0.7013(4)
H6 H 0.7272 0.5394 0.7116
C12 C 0.7848(2) 0.5018(4) 0.6334(4)
C13 C 0.8377(2) 0.5216(4) 0.6164(4)
H7 H 0.8528 0.4864 0.5723
C14 C 0.7499(2) 0.4285(4) 0.5766(4)
C15 C 0.7716(2) 0.6718(5) 0.8315(4)
O1 O 1.08265(18) 0.8115(4) 0.5470(4)
O2 O 1.09742(16) 0.6613(4) 0.5038(3)
O3 O 0.77297(14) 0.3579(3) 0.5416(3)
O4 O 0.70008(15) 0.4395(3) 0.5660(3)
O5 O 0.72369(15) 0.6500(4) 0.8478(3)
O6 O 0.80241(17) 0.7315(3) 0.8754(3)
O7 O 0.8771(3) 0.2725(6) 0.6790(5)
N1 N 0.8894(5) 0.3507(10) 0.8168(7)
C16 C 0.8560(5) 0.3105(9) 0.7457(7)
H8 H 0.8185 0.3108 0.7458
C17 C 0.8669(6) 0.4019(13) 0.8870(10)
H9 H 0.8683 0.4711 0.8763
H10 H 0.8876 0.3868 0.9440
H11 H 0.8298 0.3821 0.8880
C18 C 0.9465(5) 0.3517(14) 0.8206(11)
H12 H 0.9593 0.2864 0.8124
H13 H 0.9621 0.3762 0.8783
H14 H 0.9568 0.3933 0.7738
O8 O 0.8815(3) 0.0625(6) 0.6079(5)
H15 H 0.8556 0.0210 0.5638
H16 H 0.9072 0.1014 0.6196
La1C La 0.669086(10) 0.71018(2) 0.969715(19)
La1D La 1.169086(10) 0.78982(2) 0.469715(19)
La1E La 0.830914(10) 0.78982(2) 1.030285(19)
La1F La 0.669086(10) 0.28982(2) 0.469715(19)
O1D O 0.91735(18) 0.1885(4) 0.4530(4)
O2D O 0.90258(16) 0.3387(4) 0.4962(3)
O3F O 0.72703(14) 0.1421(3) 0.4584(3)
O4F O 0.79992(15) 0.0605(3) 0.4340(3)
O5C O 0.77631(15) 0.1500(4) 0.6522(3)
O6E O 0.80241(17) 0.2685(3) 0.3754(3)
loop_
_geom_bond_atom_site_label_1
_geom_bond_atom_site_label_2
_geom_bond_site_symmetry_1
_geom_bond_site_symmetry_2
La1 O3 1_555 1_555
C1 C2 1_555 1_555
C2 C3 1_555 1_555
C3 H1 1_555 1_555
C4 C3 1_555 1_555
H2 C4 1_555 1_555
C5 C4 1_555 1_555
C6 C5 1_555 1_555
H3 C6 1_555 1_555
C7 C2 1_555 1_555
H4 C7 1_555 1_555
C8 C5 1_555 1_555
C9 C8 1_555 1_555
H5 C9 1_555 1_555
C10 C9 1_555 1_555
C11 C10 1_555 1_555
H6 C11 1_555 1_555
C12 C11 1_555 1_555
C13 C8 1_555 1_555
H7 C13 1_555 1_555
C14 C12 1_555 1_555
C15 C10 1_555 1_555
O1 C1 1_555 1_555
O2 C1 1_555 1_555
O3 C14 1_555 1_555
O4 C14 1_555 1_555
O5 C15 1_555 1_555
O6 C15 1_555 1_555
O7 La1 1_555 1_555
N1 C16 1_555 1_555
C16 O7 1_555 1_555
H8 C16 1_555 1_555
C17 N1 1_555 1_555
H9 C17 1_555 1_555
H10 C17 1_555 1_555
H11 C17 1_555 1_555
C18 N1 1_555 1_555
H12 C18 1_555 1_555
H13 C18 1_555 1_555
H14 C18 1_555 1_555
O8 La1 1_555 1_555
H15 O8 1_555 1_555
H16 O8 1_555 1_555
La1C O5 1_555 1_555
La1D O1 1_555 1_555
La1E O6 1_555 1_555
La1F O3 1_555 1_555
O1D La1 1_555 1_555
O2D La1 1_555 1_555
O3F La1 1_555 1_555
O4F La1 1_555 1_555
O5C La1 1_555 1_555
O6E La1 1_555 1_555
C6 C7 1_555 1_555
C12 C13 1_555 1_555
O2 La1D 1_555 1_555
O4 La1F 1_555 1_555
La1F O3F 1_555 1_555

#END
