
#######################################################################
#
#                 Cambridge Crystallographic Data Centre
#                                CCDC 
#
#######################################################################
#
# If this CIF has been generated from an entry in the Cambridge 
# Structural Database, then it will include bibliographic, chemical, 
# crystal, experimental, refinement or atomic coordinate data resulting 
# from the CCDC's data processing and validation procedures.
#
#######################################################################

data_LUWMIB
_symmetry_cell_setting           monoclinic
_symmetry_space_group_name_H-M   'C 2/c'
_symmetry_Int_Tables_number      15
_space_group_name_Hall           '-C 2yn'
loop_
_symmetry_equiv_pos_site_id
_symmetry_equiv_pos_as_xyz
1 x,y,z
2 -x,y,1/2-z
3 1/2+x,1/2+y,z
4 1/2-x,1/2+y,1/2-z
5 -x,-y,-z
6 x,-y,1/2+z
7 1/2-x,1/2-y,-z
8 1/2+x,1/2-y,1/2+z
_cell_length_a                   24.591(5)
_cell_length_b                   13.804(5)
_cell_length_c                   14.752(5)
_cell_angle_alpha                90
_cell_angle_beta                 97.135(5)
_cell_angle_gamma                90
_cell_volume                     4968.85
loop_
_atom_site_label
_atom_site_type_symbol
_atom_site_fract_x
_atom_site_fract_y
_atom_site_fract_z
Ce1 Ce 1.169058(6) 0.211311(11) 0.470515(10)
O1 O 1.08331(10) 0.19207(18) 0.5477(2)
O2 O 1.09818(9) 0.33939(18) 0.50276(18)
O3 O 1.12411(16) 0.2731(3) 0.3204(2)
O4 O 1.11705(15) 0.0691(3) 0.3947(3)
O5 O 1.27416(8) 0.14510(14) 0.54327(14)
O6 O 1.19978(8) 0.06529(15) 0.56730(16)
O7 O 1.22329(8) 0.14813(18) 0.34954(15)
O8 O 1.19820(9) 0.27110(16) 0.62413(15)
C1 C 1.1399(5) 0.3047(7) 0.2549(5)
H1 H 1.1387 0.0350 0.3672
H2 H 1.1045 0.0349 0.4353
C2 C 1.24966(12) 0.4246(2) 0.42165(19)
H3 H 1.1775 0.2995 0.2528
N1 N 1.1114(4) 0.3475(7) 0.1823(4)
C3 C 1.21510(11) 0.4980(2) 0.3653(2)
C4 C 1.0536(5) 0.3469(13) 0.1796(8)
C5 C 1.1381(7) 0.3981(9) 0.1109(6)
C6 C 1.16221(12) 0.5185(2) 0.3822(2)
C7 C 1.23778(11) 0.5484(2) 0.2969(2)
H4 H 1.0423 0.2877 0.2058
H5 H 1.0370 0.3516 0.1173
H6 H 1.0424 0.4010 0.2137
H7 H 1.1297 0.4660 0.1118
H8 H 1.1249 0.3718 0.0520
H9 H 1.1771 0.3893 0.1225
C8 C 1.13181(12) 0.5911(2) 0.3336(2)
H10 H 1.1468 0.4835 0.4265
C9 C 1.20689(12) 0.6160(2) 0.2443(2)
H11 H 1.2738 0.5364 0.2869
C10 C 1.07719(12) 0.6225(2) 0.3587(2)
C11 C 1.15436(12) 0.6376(2) 0.2636(2)
C12 C 1.22888(12) 0.6688(2) 0.1665(2)
C13 C 1.04164(13) 0.5574(2) 0.3911(2)
C14 C 1.06245(16) 0.7190(3) 0.3545(3)
H12 H 1.1339 0.6843 0.2290
H13 H 1.0502 0.4918 0.3935
C15 C 0.99300(12) 0.5893(2) 0.4202(2)
H14 H 1.0856 0.7638 0.3320
C16 C 1.01392(15) 0.7504(3) 0.3831(3)
C17 C 0.97938(12) 0.6858(2) 0.4183(2)
H15 H 0.9693 0.5445 0.4412
H16 H 1.0046 0.8156 0.3785
C18 C 0.92922(13) 0.7193(2) 0.4578(2)
O5F O 1.22584(8) 0.35490(14) 0.45673(14)
Ce1F Ce 1.330942(6) 0.288689(11) 0.529485(10)
O6F O 1.30022(8) 0.43471(15) 0.43270(16)
O8E O 1.19820(9) 0.72890(16) 0.12413(15)
O7C O 1.27671(8) 0.64813(18) 0.15046(15)
Ce1E Ce 1.169058(6) 0.788689(11) -0.029485(10)
Ce1C Ce 1.330942(6) 0.711311(11) 0.029485(10)
O1D O 0.91669(10) 0.80793(18) 0.4523(2)
O2D O 0.90182(9) 0.66061(18) 0.49724(18)
Ce1D Ce 0.830942(6) 0.788689(11) 0.529485(10)
loop_
_geom_bond_atom_site_label_1
_geom_bond_atom_site_label_2
_geom_bond_site_symmetry_1
_geom_bond_site_symmetry_2
Ce1 O1 1_555 1_555
O2 Ce1 1_555 1_555
O3 Ce1 1_555 1_555
O4 Ce1 1_555 1_555
O5 Ce1 1_555 1_555
O6 Ce1 1_555 1_555
O7 Ce1 1_555 1_555
O8 Ce1 1_555 1_555
C1 O3 1_555 1_555
H1 O4 1_555 1_555
H2 O4 1_555 1_555
C2 C3 1_555 1_555
H3 C1 1_555 1_555
N1 C1 1_555 1_555
C3 C6 1_555 1_555
C4 N1 1_555 1_555
C5 N1 1_555 1_555
C6 C8 1_555 1_555
C7 C3 1_555 1_555
H4 C4 1_555 1_555
H5 C4 1_555 1_555
H6 C4 1_555 1_555
H7 C5 1_555 1_555
H8 C5 1_555 1_555
H9 C5 1_555 1_555
C8 C10 1_555 1_555
H10 C6 1_555 1_555
C9 C7 1_555 1_555
H11 C7 1_555 1_555
C10 C13 1_555 1_555
C11 C8 1_555 1_555
C12 C9 1_555 1_555
C13 H13 1_555 1_555
C14 C10 1_555 1_555
H12 C11 1_555 1_555
C15 C13 1_555 1_555
H14 C14 1_555 1_555
C16 C14 1_555 1_555
C17 C15 1_555 1_555
H15 C15 1_555 1_555
H16 C16 1_555 1_555
C18 C17 1_555 1_555
O5F Ce1 1_555 1_555
Ce1F O5 1_555 1_555
O6F C2 1_555 1_555
O8E C12 1_555 1_555
O7C C12 1_555 1_555
Ce1E O8E 1_555 1_555
Ce1C O7C 1_555 1_555
O1D C18 1_555 1_555
O2D C18 1_555 1_555
Ce1D O1D 1_555 1_555
C2 O5F 1_555 1_555
C9 C11 1_555 1_555
C16 C17 1_555 1_555
O5F Ce1F 1_555 1_555
Ce1F O6F 1_555 1_555
O2D Ce1D 1_555 1_555

#END
