
#######################################################################
#
#                 Cambridge Crystallographic Data Centre
#                                CCDC 
#
#######################################################################
#
# If this CIF has been generated from an entry in the Cambridge 
# Structural Database, then it will include bibliographic, chemical, 
# crystal, experimental, refinement or atomic coordinate data resulting 
# from the CCDC's data processing and validation procedures.
#
#######################################################################

data_LUWNOG
_symmetry_cell_setting           monoclinic
_symmetry_space_group_name_H-M   'P 21'
_symmetry_Int_Tables_number      4
_space_group_name_Hall           'P 2yb'
loop_
_symmetry_equiv_pos_site_id
_symmetry_equiv_pos_as_xyz
1 x,y,z
2 -x,1/2+y,-z
_cell_length_a                   9.7386(1)
_cell_length_b                   14.9887(2)
_cell_length_c                   20.7791(3)
_cell_angle_alpha                90
_cell_angle_beta                 90.0068(4)
_cell_angle_gamma                90
_cell_volume                     3033.1
loop_
_atom_site_label
_atom_site_type_symbol
_atom_site_fract_x
_atom_site_fract_y
_atom_site_fract_z
In1 In 0.7626(1) 0.4130(1) 0.4517(1)
In2 In 0.2626(1) 0.4169(1) 0.2968(1)
C1 C 0.5732(5) 0.4751(3) 0.3826(2)
C2 C 0.5467(4) 0.4036(4) 0.3397(2)
C3 C 0.4476(5) 0.3481(3) 0.3680(3)
C4 C 0.4143(5) 0.3838(3) 0.4293(2)
C5 C 0.4876(5) 0.4619(3) 0.4369(2)
C6 C 1.0736(5) 0.3564(4) 0.3688(2)
C7 C 0.9902(5) 0.3665(3) 0.3122(2)
C8 C 0.9149(5) 0.4444(3) 0.3196(2)
C9 C 0.9463(5) 0.4829(3) 0.3808(2)
C10 C 1.0450(4) 0.4277(3) 0.4103(2)
C11 C 0.7891(5) 0.5223(4) 0.5198(2)
C12 C 0.7527(6) 0.5194(4) 0.5902(3)
C13 C 0.7765(7) 0.6079(5) 0.6246(4)
C14 C 0.8519(7) 0.4506(4) 0.6236(3)
C15 C 0.6114(6) 0.4846(4) 0.6033(3)
C16 C 0.7627(5) 0.2730(4) 0.4295(2)
C17 C 0.7765(4) 0.2057(4) 0.4837(3)
C18 C 0.6537(6) 0.2143(4) 0.5296(3)
C19 C 0.9113(5) 0.2197(4) 0.5204(3)
C20 C 0.7781(4) 0.1107(4) 0.4557(3)
C21 C 0.2622(5) 0.5574(3) 0.3201(2)
C22 C 0.2681(5) 0.6262(4) 0.2649(3)
C23 C 0.2588(6) 0.7201(4) 0.2948(3)
C24 C 0.4061(5) 0.6183(4) 0.2302(3)
C25 C 0.1480(6) 0.6132(4) 0.2194(3)
C26 C 0.2838(4) 0.3058(3) 0.2291(2)
C27 C 0.2532(6) 0.3181(4) 0.1564(3)
C28 C 0.1076(5) 0.3484(3) 0.1455(2)
C29 C 0.3560(5) 0.3829(3) 0.1267(2)
C30 C 0.2720(5) 0.2253(4) 0.1238(3)
H1 H 0.6230(40) 0.5270(19) 0.3650(19)
H2 H 0.5887 0.3948 0.2989
H3 H 0.4170(50) 0.2879(15) 0.3530(20)
H4 H 0.3525 0.3585 0.4597
H5 H 0.4817 0.5007 0.4729
H6 H 1.1170(40) 0.2969(15) 0.3649(19)
H7 H 0.9872 0.3271 0.2764
H8 H 0.8526 0.4683 0.2890
H9 H 0.9170(50) 0.5430(1) 0.3960(20)
H10 H 1.0853 0.4371 0.4513
H11 H 0.8876 0.5386 0.5179
H12 H 0.7380 0.5735 0.5016
H13 H 0.7191 0.6541 0.6049
H14 H 0.8734 0.6247 0.6208
H15 H 0.7523 0.6016 0.6701
H16 H 0.8218 0.3897 0.6137
H17 H 0.8500 0.4597 0.6703
H18 H 0.9456 0.4594 0.6076
H19 H 0.5433 0.5252 0.5846
H20 H 0.5969 0.4805 0.6499
H21 H 0.6013 0.4253 0.5839
H22 H 0.6762 0.2597 0.4064
H23 H 0.8388 0.2621 0.3988
H24 H 0.6604 0.2707 0.5533
H25 H 0.6541 0.1644 0.5600
H26 H 0.5682 0.2134 0.5047
H27 H 0.9102 0.2783 0.5412
H28 H 0.9885 0.2164 0.4903
H29 H 0.9212 0.1731 0.5532
H30 H 0.6951 0.1012 0.4299
H31 H 0.7806 0.0672 0.4909
H32 H 0.8594 0.1031 0.4285
H33 H 0.1783 0.5696 0.3455
H34 H 0.3416 0.5688 0.3487
H35 H 0.2519 0.7647 0.2605
H36 H 0.3413 0.7316 0.3206
H37 H 0.1775 0.7236 0.3224
H38 H 0.4124 0.6644 0.1969
H39 H 0.4134 0.5593 0.2102
H40 H 0.4809 0.6262 0.2612
H41 H 0.1492 0.6600 0.1865
H42 H 0.0618 0.6166 0.2437
H43 H 0.1552 0.5547 0.1987
H44 H 0.3794 0.2839 0.2327
H45 H 0.2236 0.2572 0.2448
H46 H 0.0923 0.3577 0.0993
H47 H 0.0917 0.4045 0.1686
H48 H 0.0440 0.3028 0.1614
H49 H 0.3450 0.3832 0.0798
H50 H 0.4496 0.3642 0.1376
H51 H 0.3395 0.4431 0.1435
H52 H 0.2551 0.2308 0.0775
H53 H 0.2068 0.1827 0.1424
H54 H 0.3659 0.2041 0.1310
C6_2 C 0.0736(5) 0.3564(4) 0.3688(2)
In2_2 In 1.2626(1) 0.4169(1) 0.2968(1)
H6_2 H 0.1170(40) 0.2969(15) 0.3649(19)
In3 In 0.2043(1) 0.9200(1) 0.0456(1)
In4 In 0.7067(1) 0.9259(1) 0.2034(1)
C31 C 0.4095(5) 0.9955(3) 0.0971(2)
C32 C 0.5035(4) 0.9275(3) 0.0826(2)
C33 C 0.5096(5) 0.8689(3) 0.1348(2)
C34 C 0.4134(4) 0.9005(3) 0.1824(2)
C35 C 0.3554(4) 0.9789(3) 0.1598(2)
C36 C -0.0891(5) 0.8505(3) 0.1526(2)
C37 C -0.1431(4) 0.8693(3) 0.0894(2)
C38 C -0.0853(4) 0.9479(3) 0.0679(2)
C39 C 0.0113(5) 0.9791(4) 0.1151(3)
C40 C 0.0064(4) 0.9183(3) 0.1674(2)
C41 C 0.1613(4) 1.0177(3) -0.0297(2)
C42 C 0.2511(6) 1.0326(3) -0.0891(2)
C43 C 0.3993(5) 1.0516(4) -0.0694(2)
C44 C 0.2487(6) 0.9519(3) -0.1322(2)
C45 C 0.1948(7) 1.1125(5) -0.1277(3)
C46 C 0.2112(4) 0.7817(4) 0.0700(2)
C47 C 0.2364(5) 0.7150(4) 0.0155(3)
C48 C 0.1189(5) 0.7192(4) -0.0326(2)
C49 C 0.2440(5) 0.6200(4) 0.0437(3)
C50 C 0.3732(5) 0.7355(3) -0.0186(3)
C51 C 0.7103(4) 1.0662(3) 0.1791(3)
C52 C 0.7290(5) 1.1325(4) 0.2354(3)
C53 C 0.6146(5) 1.1181(4) 0.2844(2)
C54 C 0.8687(5) 1.1213(3) 0.2662(3)
C55 C 0.7170(4) 1.2280(4) 0.2087(3)
C56 C 0.6624(4) 0.8278(3) 0.2779(2)
C57 C 0.7550(6) 0.8093(4) 0.3364(3)
C58 C 0.8971(5) 0.7819(4) 0.3162(2)
C59 C 0.6936(8) 0.7328(5) 0.3758(4)
C60 C 0.7639(5) 0.8932(4) 0.3793(3)
H55 H 0.3980(50) 1.0513(16) 0.0715(17)
H56 H 0.5545 0.9223 0.0438
H57 H 0.5480(50) 0.8072(14) 0.1400(20)
H58 H 0.3934 0.8725 0.2223
H59 H 0.2911 1.0152 0.1821
H60 H -0.0950(50) 0.7903(14) 0.1729(18)
H61 H -0.2073 0.8337 0.0665
H62 H -0.1059 0.9768 0.0283
H63 H 0.0550(40) 1.0377(17) 0.1258(19)
H64 H 0.0586 0.9225 0.2059
H65 H 0.0682 1.0037 -0.0460
H66 H 0.1544 1.0762 -0.0079
H67 H 0.4546 1.0629 -0.1080
H68 H 0.4366 0.9999 -0.0464
H69 H 0.4020 1.1040 -0.0413
H70 H 0.1538 0.9391 -0.1450
H71 H 0.2866 0.9005 -0.1091
H72 H 0.3040 0.9636 -0.1707
H73 H 0.0977 1.1024 -0.1376
H74 H 0.2467 1.1187 -0.1678
H75 H 0.2042 1.1671 -0.1021
H76 H 0.2843 0.7733 0.1025
H77 H 0.1230 0.7660 0.0908
H78 H 0.1209 0.7767 -0.0550
H79 H 0.0313 0.7127 -0.0099
H80 H 0.1288 0.6708 -0.0640
H81 H 0.3153 0.6178 0.0770
H82 H 0.2664 0.5776 0.0094
H83 H 0.1551 0.6042 0.0627
H84 H 0.3656 0.7922 -0.0418
H85 H 0.3943 0.6876 -0.0492
H86 H 0.4469 0.7397 0.0134
H87 H 0.7857 1.0762 0.1480
H88 H 0.6232 1.0809 0.1569
H89 H 0.6242 1.1614 0.3195
H90 H 0.6207 1.0575 0.3019
H91 H 0.5253 1.1262 0.2635
H92 H 0.8773 1.1625 0.3026
H93 H 0.9403 1.1344 0.2344
H94 H 0.8790 1.0598 0.2815
H95 H 0.7291 1.2710 0.2438
H96 H 0.6262 1.2362 0.1892
H97 H 0.7881 1.2377 0.1761
H98 H 0.5710 0.8436 0.2954
H99 H 0.6511 0.7700 0.2555
H100 H 0.9524 0.7691 0.3545
H101 H 0.9399 0.8303 0.2917
H102 H 0.8916 0.7283 0.2893
H103 H 0.7596 0.7139 0.4086
H104 H 0.6729 0.6825 0.3472
H105 H 0.6089 0.7531 0.3966
H106 H 0.8297 0.8827 0.4142
H107 H 0.6733 0.9060 0.3977
H108 H 0.7943 0.9441 0.3534
C36_2 C 0.9109(5) 0.8505(3) 0.1526(2)
In4_2 In -0.2933(1) 0.9259(1) 0.2034(1)
H60_2 H 0.9050(50) 0.7903(14) 0.1729(18)
loop_
_geom_bond_atom_site_label_1
_geom_bond_atom_site_label_2
_geom_bond_site_symmetry_1
_geom_bond_site_symmetry_2
In1 C1 1_555 1_555
In2 C3 1_555 1_555
In3 C31 1_555 1_555
In4 C33 1_555 1_555
C1 C2 1_555 1_555
C2 C3 1_555 1_555
C3 C4 1_555 1_555
C4 C5 1_555 1_555
C5 C1 1_555 1_555
C6 C7 1_555 1_555
C7 C8 1_555 1_555
C8 C9 1_555 1_555
C9 In1 1_555 1_555
C10 C6 1_555 1_555
C11 In1 1_555 1_555
C12 C11 1_555 1_555
C13 C12 1_555 1_555
C14 C12 1_555 1_555
C15 C12 1_555 1_555
C16 In1 1_555 1_555
C17 C16 1_555 1_555
C18 C17 1_555 1_555
C19 C17 1_555 1_555
C20 C17 1_555 1_555
C21 In2 1_555 1_555
C22 C21 1_555 1_555
C23 C22 1_555 1_555
C24 C22 1_555 1_555
C25 C22 1_555 1_555
C26 In2 1_555 1_555
C27 C26 1_555 1_555
C28 C27 1_555 1_555
C29 C27 1_555 1_555
C30 C27 1_555 1_555
C31 C32 1_555 1_555
C32 C33 1_555 1_555
C33 C34 1_555 1_555
C34 C35 1_555 1_555
C35 C31 1_555 1_555
C36 C37 1_555 1_555
C37 C38 1_555 1_555
C38 C39 1_555 1_555
C39 In3 1_555 1_555
C40 C36 1_555 1_555
C41 In3 1_555 1_555
C42 C41 1_555 1_555
C43 C42 1_555 1_555
C44 C42 1_555 1_555
C45 C42 1_555 1_555
C46 In3 1_555 1_555
C47 C46 1_555 1_555
C48 C47 1_555 1_555
C49 C47 1_555 1_555
C50 C47 1_555 1_555
C51 In4 1_555 1_555
C52 C51 1_555 1_555
C53 C52 1_555 1_555
C54 C52 1_555 1_555
C55 C52 1_555 1_555
C56 In4 1_555 1_555
C57 C56 1_555 1_555
C58 C57 1_555 1_555
C59 C57 1_555 1_555
C60 C57 1_555 1_555
H1 C1 1_555 1_555
H2 C2 1_555 1_555
H3 C3 1_555 1_555
H4 C4 1_555 1_555
H5 C5 1_555 1_555
H6 C6 1_555 1_555
H7 C7 1_555 1_555
H8 C8 1_555 1_555
H9 C9 1_555 1_555
H10 C10 1_555 1_555
H11 C11 1_555 1_555
H12 C11 1_555 1_555
H13 C13 1_555 1_555
H14 C13 1_555 1_555
H15 C13 1_555 1_555
H16 C14 1_555 1_555
H17 C14 1_555 1_555
H18 C14 1_555 1_555
H19 C15 1_555 1_555
H20 C15 1_555 1_555
H21 C15 1_555 1_555
H22 C16 1_555 1_555
H23 C16 1_555 1_555
H24 C18 1_555 1_555
H25 C18 1_555 1_555
H26 C18 1_555 1_555
H27 C19 1_555 1_555
H28 C19 1_555 1_555
H29 C19 1_555 1_555
H30 C20 1_555 1_555
H31 C20 1_555 1_555
H32 C20 1_555 1_555
H33 C21 1_555 1_555
H34 C21 1_555 1_555
H35 C23 1_555 1_555
H36 C23 1_555 1_555
H37 C23 1_555 1_555
H38 C24 1_555 1_555
H39 C24 1_555 1_555
H40 C24 1_555 1_555
H41 C25 1_555 1_555
H42 C25 1_555 1_555
H43 C25 1_555 1_555
H44 C26 1_555 1_555
H45 C26 1_555 1_555
H46 C28 1_555 1_555
H47 C28 1_555 1_555
H48 C28 1_555 1_555
H49 C29 1_555 1_555
H50 C29 1_555 1_555
H51 C29 1_555 1_555
H52 C30 1_555 1_555
H53 C30 1_555 1_555
H54 C30 1_555 1_555
H55 C31 1_555 1_555
H56 C32 1_555 1_555
H57 C33 1_555 1_555
H58 C34 1_555 1_555
H59 C35 1_555 1_555
H60 C36 1_555 1_555
H61 C37 1_555 1_555
H62 C38 1_555 1_555
H63 C39 1_555 1_555
H64 C40 1_555 1_555
H65 C41 1_555 1_555
H66 C41 1_555 1_555
H67 C43 1_555 1_555
H68 C43 1_555 1_555
H69 C43 1_555 1_555
H70 C44 1_555 1_555
H71 C44 1_555 1_555
H72 C44 1_555 1_555
H73 C45 1_555 1_555
H74 C45 1_555 1_555
H75 C45 1_555 1_555
H76 C46 1_555 1_555
H77 C46 1_555 1_555
H78 C48 1_555 1_555
H79 C48 1_555 1_555
H80 C48 1_555 1_555
H81 C49 1_555 1_555
H82 C49 1_555 1_555
H83 C49 1_555 1_555
H84 C50 1_555 1_555
H85 C50 1_555 1_555
H86 C50 1_555 1_555
H87 C51 1_555 1_555
H88 C51 1_555 1_555
H89 C53 1_555 1_555
H90 C53 1_555 1_555
H91 C53 1_555 1_555
H92 C54 1_555 1_555
H93 C54 1_555 1_555
H94 C54 1_555 1_555
H95 C55 1_555 1_555
H96 C55 1_555 1_555
H97 C55 1_555 1_555
H98 C56 1_555 1_555
H99 C56 1_555 1_555
H100 C58 1_555 1_555
H101 C58 1_555 1_555
H102 C58 1_555 1_555
H103 C59 1_555 1_555
H104 C59 1_555 1_555
H105 C59 1_555 1_555
H106 C60 1_555 1_555
H107 C60 1_555 1_555
H108 C60 1_555 1_555
C6_2 In2 1_555 1_555
C36_2 In4 1_555 1_555
In2_2 C6 1_555 1_555
In4_2 C36 1_555 1_555
H6_2 C6_2 1_555 1_555
H60_2 C36_2 1_555 1_555
C9 C10 1_555 1_555
C39 C40 1_555 1_555

#END
