
#######################################################################
#
#                 Cambridge Crystallographic Data Centre
#                                CCDC 
#
#######################################################################
#
# If this CIF has been generated from an entry in the Cambridge 
# Structural Database, then it will include bibliographic, chemical, 
# crystal, experimental, refinement or atomic coordinate data resulting 
# from the CCDC's data processing and validation procedures.
#
#######################################################################

data_LUWNOI
_symmetry_cell_setting           monoclinic
_symmetry_space_group_name_H-M   'P 21/c'
_symmetry_Int_Tables_number      14
_space_group_name_Hall           '-P 2ybc'
loop_
_symmetry_equiv_pos_site_id
_symmetry_equiv_pos_as_xyz
1 x,y,z
2 -x,1/2+y,1/2-z
3 -x,-y,-z
4 x,1/2-y,1/2+z
_cell_length_a                   12.7500(3)
_cell_length_b                   9.8040(3)
_cell_length_c                   14.3030(4)
_cell_angle_alpha                90
_cell_angle_beta                 122.5490(10)
_cell_angle_gamma                90
_cell_volume                     1507.07
loop_
_atom_site_label
_atom_site_type_symbol
_atom_site_fract_x
_atom_site_fract_y
_atom_site_fract_z
C1 C 0.1639(2) 0.9074(2) 0.25859(19)
C2 C 0.2155(2) 1.0275(2) 0.33344(19)
C3 C 0.3416(2) 1.0437(3) 0.4112(2)
H1 H 0.3953 0.9743 0.4186
C4 C 0.3107(3) 1.2513(3) 0.4633(2)
H2 H 0.3427 1.3284 0.5079
C5 C 0.1847(3) 1.2450(3) 0.3885(2)
H3 H 0.1334 1.3161 0.3829
C6 C 0.1358(2) 1.1321(3) 0.3222(2)
H4 H 0.0507 1.1255 0.2705
C7 C 0.2595(2) 0.5771(2) 0.2562(2)
C8 C 0.2034(2) 0.4485(2) 0.1936(2)
C9 C 0.0748(3) 0.4341(3) 0.1258(2)
H5 H 0.0232 0.5062 0.1177
C10 C 0.0241(3) 0.3138(3) 0.0708(2)
H6 H -0.062 0.3073 0.0254
C11 C 0.2165(2) 0.2190(3) 0.1438(2)
H7 H 0.2661 0.1453 0.1508
C12 C 0.2740(3) 0.3378(3) 0.2005(2)
H8 H 0.3604 0.343 0.2433
C13 C 0.3975(3) 0.5850(3) 0.3384(3)
H9 H 0.4169 0.6674 0.3809
H10 H 0.4398 0.5849 0.2995
H11 H 0.424 0.5078 0.3872
N1 N 0.1724(2) 0.9345(2) 0.0211(2)
N2 N 0.3903(2) 1.1534(2) 0.47599(19)
N3 N 0.2301(2) 0.7920(2) 0.29620(18)
H12 H 0.303(3) 0.789(3) 0.365(2)
N4 N 0.1823(2) 0.6735(2) 0.23371(17)
N5 N 0.09269(19) 0.2052(2) 0.07924(16)
C14 C 0.2556(3) 0.8662(3) 0.0435(2)
O1 O 0.06597(16) 0.91555(18) 0.16637(14)
S1 S 0.37452(8) 0.76493(10) 0.07577(7)
Mn1 Mn 0.000 1 0.000
C1B C -0.1639(2) 0.0926(2) -0.25859(19)
C2B C -0.2155(2) -0.0275(2) -0.33344(19)
C3B C -0.3416(2) -0.0437(3) -0.4112(2)
H1B H -0.3953 0.0257 -0.4186
C4B C -0.3107(3) -0.2513(3) -0.4633(2)
H2B H -0.3427 -0.3284 -0.5079
C5B C -0.1847(3) -0.2450(3) -0.3885(2)
H3B H -0.1334 -0.3161 -0.3829
C6B C -0.1358(2) -0.1321(3) -0.3222(2)
H4B H -0.0507 -0.1255 -0.2705
C7B C -0.2595(2) 0.4229(2) -0.2562(2)
C8B C -0.2034(2) 0.5515(2) -0.1936(2)
C9B C -0.0748(3) 0.5659(3) -0.1258(2)
H5B H -0.0232 0.4938 -0.1177
C10B C -0.0241(3) 0.6862(3) -0.0708(2)
H6B H 0.062 0.6927 -0.0254
C11B C -0.2165(2) 0.7810(3) -0.1438(2)
H7B H -0.2661 0.8547 -0.1508
C12B C -0.2740(3) 0.6622(3) -0.2005(2)
H8B H -0.3604 0.657 -0.2433
C13B C -0.3975(3) 0.4150(3) -0.3384(3)
H9B H -0.4169 0.3326 -0.3809
H10B H -0.4398 0.4151 -0.2995
H11B H -0.424 0.4922 -0.3872
N2B N -0.3903(2) -0.1534(2) -0.47599(19)
N3B N -0.2301(2) 0.2080(2) -0.29620(18)
H12B H -0.303(3) 0.211(3) -0.365(2)
N4B N -0.1823(2) 0.3265(2) -0.23371(17)
N5B N -0.09269(19) 0.7948(2) -0.07924(16)
O1B O -0.06597(16) 0.08445(18) -0.16637(14)
N1B N -0.1724(2) 1.0655(2) -0.0211(2)
C14B C -0.2556(3) 1.1338(3) -0.0435(2)
S1B S -0.37452(8) 1.23507(10) -0.07577(7)
N5_2 N 0.09269(19) 1.2052(2) 0.07924(16)
O1B_2 O -0.06597(16) 1.08445(18) -0.16637(14)
Mn1_2 Mn 0.000 0 0.000
loop_
_geom_bond_atom_site_label_1
_geom_bond_atom_site_label_2
_geom_bond_site_symmetry_1
_geom_bond_site_symmetry_2
C1 C2 1_555 1_555
C2 C3 1_555 1_555
C3 H1 1_555 1_555
C4 H2 1_555 1_555
C5 C4 1_555 1_555
H3 C5 1_555 1_555
C6 C2 1_555 1_555
H4 C6 1_555 1_555
C7 C8 1_555 1_555
C8 C9 1_555 1_555
C9 H5 1_555 1_555
C10 C9 1_555 1_555
H6 C10 1_555 1_555
C11 H7 1_555 1_555
C12 C8 1_555 1_555
H8 C12 1_555 1_555
C13 C7 1_555 1_555
H9 C13 1_555 1_555
H10 C13 1_555 1_555
H11 C13 1_555 1_555
N1 C14 1_555 1_555
N2 C3 1_555 1_555
N3 C1 1_555 1_555
H12 N3 1_555 1_555
N4 C7 1_555 1_555
N5 C10 1_555 1_555
C14 S1 1_555 1_555
O1 C1 1_555 1_555
Mn1 N1 1_555 1_555
C1B C2B 1_555 1_555
C2B C3B 1_555 1_555
C3B H1B 1_555 1_555
C4B H2B 1_555 1_555
C5B C4B 1_555 1_555
H3B C5B 1_555 1_555
C6B C2B 1_555 1_555
H4B C6B 1_555 1_555
C7B C8B 1_555 1_555
C8B C9B 1_555 1_555
C9B H5B 1_555 1_555
C10B C9B 1_555 1_555
H6B C10B 1_555 1_555
C11B H7B 1_555 1_555
C12B C8B 1_555 1_555
H8B C12B 1_555 1_555
C13B C7B 1_555 1_555
H9B C13B 1_555 1_555
H10B C13B 1_555 1_555
H11B C13B 1_555 1_555
N2B C3B 1_555 1_555
N3B C1B 1_555 1_555
H12B N3B 1_555 1_555
N4B C7B 1_555 1_555
N5B Mn1 1_555 1_555
O1B C1B 1_555 1_555
N1B Mn1 1_555 1_555
C14B N1B 1_555 1_555
S1B C14B 1_555 1_555
N5_2 Mn1 1_555 1_555
O1B_2 Mn1 1_555 1_555
Mn1_2 N5 1_555 1_555
C4 N2 1_555 1_555
C5 C6 1_555 1_555
C11 C12 1_555 1_555
C11 N5 1_555 1_555
N3 N4 1_555 1_555
O1 Mn1 1_555 1_555
C4B N2B 1_555 1_555
C5B C6B 1_555 1_555
C10B N5B 1_555 1_555
C11B C12B 1_555 1_555
C11B N5B 1_555 1_555
N3B N4B 1_555 1_555
O1B Mn1_2 1_555 1_555

#END
