
#######################################################################
#
#                 Cambridge Crystallographic Data Centre
#                                CCDC 
#
#######################################################################
#
# If this CIF has been generated from an entry in the Cambridge 
# Structural Database, then it will include bibliographic, chemical, 
# crystal, experimental, refinement or atomic coordinate data resulting 
# from the CCDC's data processing and validation procedures.
#
#######################################################################

data_LUWQIF
_symmetry_cell_setting           monoclinic
_symmetry_space_group_name_H-M   'P 21/c'
_symmetry_Int_Tables_number      14
_space_group_name_Hall           '-P 2ybc'
loop_
_symmetry_equiv_pos_site_id
_symmetry_equiv_pos_as_xyz
1 x,y,z
2 -x,1/2+y,1/2-z
3 -x,-y,-z
4 x,1/2-y,1/2+z
_cell_length_a                   10.850(4)
_cell_length_b                   8.263(3)
_cell_length_c                   15.645(6)
_cell_angle_alpha                90
_cell_angle_beta                 91.995(4)
_cell_angle_gamma                90
_cell_volume                     1401.78
loop_
_atom_site_label
_atom_site_type_symbol
_atom_site_fract_x
_atom_site_fract_y
_atom_site_fract_z
Mn1 Mn 0.01286(3) 0.05073(4) 0.11013(2)
C1 C -0.2389(2) 0.0244(3) 0.16084(15)
C2 C 0.2688(2) 0.0356(3) 0.05500(16)
C3 C -0.0900(2) -0.1689(3) 0.23955(15)
C4 C -0.2129(2) -0.0941(3) 0.22273(15)
C5 C 0.2545(2) 0.1909(3) 0.01333(15)
C6 C 0.1978(2) -0.1975(3) 0.13030(18)
H1 H 0.2840 -0.2174 0.1451
H2 H 0.1701 -0.2778 0.0887
C7 C -0.3593(2) 0.0837(3) 0.15132(18)
H3 H -0.3774 0.1613 0.1097
C8 C 0.1379(2) 0.2589(3) -0.00595(15)
C9 C -0.4515(2) 0.0295(3) 0.2023(2)
H4 H -0.5311 0.0700 0.1947
C10 C -0.3088(3) -0.1453(4) 0.27381(19)
H5 H -0.2925 -0.2232 0.3156
C11 C 0.1322(3) 0.4064(3) -0.04943(18)
H6 H 0.0559 0.4520 -0.0638
C12 C 0.3607(3) 0.2720(4) -0.01290(19)
H7 H 0.4378 0.2254 -0.0026
C13 C 0.1214(2) -0.2073(4) 0.20946(18)
H8 H 0.1074 -0.3196 0.2244
H9 H 0.1646 -0.1551 0.2572
C14 C -0.4259(3) -0.0846(4) 0.2643(2)
H10 H -0.4876 -0.1203 0.2996
C15 C 0.2382(3) 0.4851(4) -0.0713(2)
H11 H 0.2328 0.5850 -0.0986
C16 C 0.3522(3) 0.4179(5) -0.0532(2)
H12 H 0.4233 0.4721 -0.0685
O1 O -0.15547(14) 0.08827(19) 0.11034(10)
O2 O 0.03329(15) 0.1840(2) 0.01290(11)
N1 N 0.18196(18) -0.0343(2) 0.09488(12)
N2 N 0.00342(17) -0.1262(2) 0.19124(12)
O3 O -0.07868(17) -0.2712(2) 0.29885(12)
Mn1A Mn -0.01286(3) -0.44927(4) 0.38987(2)
O3A O 0.07868(17) 0.2288(2) 0.20115(12)
loop_
_geom_bond_atom_site_label_1
_geom_bond_atom_site_label_2
_geom_bond_site_symmetry_1
_geom_bond_site_symmetry_2
Mn1 O1 1_555 1_555
C1 C4 1_555 1_555
C2 C5 1_555 1_555
C3 C4 1_555 1_555
C4 C10 1_555 1_555
C5 C8 1_555 1_555
C6 H1 1_555 1_555
H2 C6 1_555 1_555
C7 C1 1_555 1_555
H3 C7 1_555 1_555
C8 C11 1_555 1_555
C9 C7 1_555 1_555
H4 C9 1_555 1_555
C10 H5 1_555 1_555
C11 H6 1_555 1_555
C12 C5 1_555 1_555
H7 C12 1_555 1_555
C13 C6 1_555 1_555
H8 C13 1_555 1_555
H9 C13 1_555 1_555
C14 C9 1_555 1_555
H10 C14 1_555 1_555
C15 C11 1_555 1_555
H11 C15 1_555 1_555
C16 C12 1_555 1_555
H12 C16 1_555 1_555
O1 C1 1_555 1_555
O2 Mn1 1_555 1_555
N1 Mn1 1_555 1_555
N2 Mn1 1_555 1_555
O3 C3 1_555 1_555
Mn1A O3 1_555 1_555
O3A Mn1 1_555 1_555
C2 N1 1_555 1_555
C3 N2 1_555 1_555
C6 N1 1_555 1_555
C8 O2 1_555 1_555
C10 C14 1_555 1_555
C13 N2 1_555 1_555
C15 C16 1_555 1_555

#END
