
#######################################################################
#
#                 Cambridge Crystallographic Data Centre
#                                CCDC 
#
#######################################################################
#
# If this CIF has been generated from an entry in the Cambridge 
# Structural Database, then it will include bibliographic, chemical, 
# crystal, experimental, refinement or atomic coordinate data resulting 
# from the CCDC's data processing and validation procedures.
#
#######################################################################

data_LUWSOL
_symmetry_cell_setting           orthorhombic
_symmetry_space_group_name_H-M   'P n a 21'
_symmetry_Int_Tables_number      33
_space_group_name_Hall           'P 2c -2n'
loop_
_symmetry_equiv_pos_site_id
_symmetry_equiv_pos_as_xyz
1 x,y,z
2 -x,-y,1/2+z
3 1/2+x,1/2-y,z
4 1/2-x,1/2+y,1/2+z
_cell_length_a                   15.716(2)
_cell_length_b                   11.7920(16)
_cell_length_c                   7.6030(10)
_cell_angle_alpha                90
_cell_angle_beta                 90
_cell_angle_gamma                90
_cell_volume                     1409.01
loop_
_atom_site_label
_atom_site_type_symbol
_atom_site_fract_x
_atom_site_fract_y
_atom_site_fract_z
Zn1 Zn 0.96440(3) 0.73377(5) 0.83923(9)
S1 S 1.05401(9) 0.76061(13) 1.0776(2)
N1 N 1.0654(3) 0.6455(4) 0.7214(6)
N2 N 1.1432(3) 0.6771(5) 0.8041(6)
H1 H 1.185(3) 0.640(5) 0.751(9)
N3 N 1.2198(3) 0.7235(4) 1.0466(8)
H2 H 1.268(3) 0.712(6) 0.987(9)
O1 O 0.9439(2) 0.8554(4) 0.6741(6)
O2 O 0.8111(2) 0.8873(4) 0.7616(6)
O3 O 0.6314(2) 1.1367(4) 0.3901(6)
O4 O 0.6427(3) 1.1175(4) 0.0990(6)
C1 C 1.1439(4) 0.7160(5) 0.9693(8)
C2 C 1.0534(4) 0.5211(5) 0.7404(8)
H3 H 1.1008 0.4814 0.6835
H4 H 0.9998 0.4987 0.6846
H5 H 1.0518 0.5013 0.8655
C3 C 1.0709(4) 0.6768(6) 0.5320(8)
H6 H 1.1179 0.6353 0.4769
H7 H 1.0811 0.7585 0.5213
H8 H 1.0174 0.6573 0.4731
C4 C 1.23690(17) 0.7732(2) 1.2148(4)
H9 H 1.2982 0.7705 1.2383
H10 H 1.2065 0.7309 1.3062
H11 H 1.2177 0.8523 1.2151
C5 C 0.86936(17) 0.8932(2) 0.6513(4)
C6 C 0.85071(17) 0.9447(2) 0.4723(4)
C7 C 0.90840(17) 0.9345(2) 0.3338(4)
H12 H 0.9621 0.8996 0.3527
C8 C 0.8875(4) 0.9750(5) 0.1704(8)
H13 H 0.9263 0.9662 0.0755
C9 C 0.8097(4) 1.0291(5) 0.1424(8)
H14 H 0.7956 1.0568 0.0288
C10 C 0.7532(3) 1.0424(5) 0.2808(8)
C11 C 0.7743(3) 1.0007(5) 0.4435(8)
H15 H 0.7358 1.0104 0.5386
C12 C 0.6691(4) 1.1028(4) 0.2497(9)
O3C O 0.8686(2) 0.6367(4) 0.8901(6)
Zn1C Zn 0.53560(3) 1.23377(5) 0.33923(9)
loop_
_geom_bond_atom_site_label_1
_geom_bond_atom_site_label_2
_geom_bond_site_symmetry_1
_geom_bond_site_symmetry_2
Zn1 S1 1_555 1_555
S1 C1 1_555 1_555
N1 Zn1 1_555 1_555
N2 N1 1_555 1_555
H1 N2 1_555 1_555
N3 H2 1_555 1_555
O1 Zn1 1_555 1_555
O2 C5 1_555 1_555
O3 C12 1_555 1_555
O4 C12 1_555 1_555
C1 N2 1_555 1_555
C2 N1 1_555 1_555
H3 C2 1_555 1_555
H4 C2 1_555 1_555
H5 C2 1_555 1_555
C3 N1 1_555 1_555
H6 C3 1_555 1_555
H7 C3 1_555 1_555
H8 C3 1_555 1_555
C4 N3 1_555 1_555
H9 C4 1_555 1_555
H10 C4 1_555 1_555
H11 C4 1_555 1_555
C5 O1 1_555 1_555
C6 C5 1_555 1_555
C7 C6 1_555 1_555
H12 C7 1_555 1_555
C8 C7 1_555 1_555
H13 C8 1_555 1_555
C9 C8 1_555 1_555
H14 C9 1_555 1_555
C10 C9 1_555 1_555
C11 C6 1_555 1_555
H15 C11 1_555 1_555
C12 C10 1_555 1_555
O3C Zn1 1_555 1_555
Zn1C O3 1_555 1_555
N3 C1 1_555 1_555
C10 C11 1_555 1_555

#END
