
#######################################################################
#
#                 Cambridge Crystallographic Data Centre
#                                CCDC 
#
#######################################################################
#
# If this CIF has been generated from an entry in the Cambridge 
# Structural Database, then it will include bibliographic, chemical, 
# crystal, experimental, refinement or atomic coordinate data resulting 
# from the CCDC's data processing and validation procedures.
#
#######################################################################

data_LUWSUR
_symmetry_cell_setting           monoclinic
_symmetry_space_group_name_H-M   'P 21/c'
_symmetry_Int_Tables_number      14
_space_group_name_Hall           '-P 2ybc'
loop_
_symmetry_equiv_pos_site_id
_symmetry_equiv_pos_as_xyz
1 x,y,z
2 x,1/2-y,1/2+z
3 -x,-y,-z
4 -x,1/2+y,1/2-z
_cell_length_a                   8.4880(10)
_cell_length_b                   14.444(2)
_cell_length_c                   13.675(2)
_cell_angle_alpha                90
_cell_angle_beta                 104.920(10)
_cell_angle_gamma                90
_cell_volume                     1620.04
loop_
_atom_site_label
_atom_site_type_symbol
_atom_site_fract_x
_atom_site_fract_y
_atom_site_fract_z
Zn1 Zn 0.17453(3) 0.21038(2) 0.29987(2)
S1 S 0.03592(9) 0.12122(7) 0.39248(6)
O1 O 0.3107(2) 0.32772(12) 0.28908(14)
O2 O 0.3670(2) 0.26795(13) 0.44069(15)
O3 O 0.6244(2) 0.60706(13) 0.22184(15)
O4 O 0.8463(2) 0.64414(13) 0.33598(15)
N1 N -0.0613(2) 0.28032(14) 0.24483(18)
N2 N -0.1855(3) 0.21810(17) 0.25589(18)
H3 H -0.276(3) 0.2367(19) 0.232(2)
N3 N -0.2845(3) 0.10955(19) 0.34401(19)
H4 H -0.371(4) 0.128(2) 0.313(2)
C1 C -0.1563(3) 0.1524(2) 0.32686(19)
C2 C -0.0700(4) 0.3646(2) 0.3039(3)
H5 H 0.0134 0.4072 0.2971
H6 H -0.0540 0.3486 0.3739
H7 H -0.1750 0.3930 0.2793
C3 C -0.0897(4) 0.3022(2) 0.1367(3)
H8 H -0.0079 0.3448 0.1274
H9 H -0.1955 0.3298 0.1124
H10 H -0.0843 0.2464 0.0996
C4 C -0.2757(4) 0.0314(3) 0.4116(3)
H11 H -0.2406 -0.0225 0.3820
H12 H -0.3813 0.0203 0.4225
H13 H -0.1993 0.0447 0.4751
C5 C 0.3963(3) 0.32603(17) 0.3807(2)
C6 C 0.5318(3) 0.39464(15) 0.41340(18)
C7 C 0.5572(3) 0.46278(16) 0.34782(18)
H14 H 0.4890 0.4665 0.2827
C8 C 0.6846(3) 0.52576(15) 0.37915(18)
C9 C 0.7860(3) 0.51917(17) 0.47573(19)
H15 H 0.8716 0.5609 0.4967
C10 C 0.7615(3) 0.45131(19) 0.5412(2)
H16 H 0.8307 0.4471 0.6060
C11 C 0.6340(3) 0.38967(17) 0.51025(19)
H17 H 0.6165 0.3445 0.5547
C12 C 0.7181(3) 0.59673(16) 0.3080(2)
O3C O 0.3756(2) 0.10706(13) 0.27816(15)
O4C O 0.1537(2) 0.14414(13) 0.16402(15)
Zn1C Zn 0.82547(3) 0.71038(2) 0.20013(2)
O5 O -0.4981(3) 0.28844(19) 0.1482(2)
H1 H -0.548(4) 0.269(3) 0.098(3)
H2 H -0.555(4) 0.308(2) 0.179(3)
loop_
_geom_bond_atom_site_label_1
_geom_bond_atom_site_label_2
_geom_bond_site_symmetry_1
_geom_bond_site_symmetry_2
Zn1 S1 1_555 1_555
S1 C1 1_555 1_555
O1 Zn1 1_555 1_555
O2 Zn1 1_555 1_555
O3 C12 1_555 1_555
O4 C12 1_555 1_555
O5 H1 1_555 1_555
H2 O5 1_555 1_555
N1 Zn1 1_555 1_555
N2 N1 1_555 1_555
H3 N2 1_555 1_555
N3 H4 1_555 1_555
C1 N2 1_555 1_555
C2 N1 1_555 1_555
H5 C2 1_555 1_555
H6 C2 1_555 1_555
H7 C2 1_555 1_555
C3 N1 1_555 1_555
H8 C3 1_555 1_555
H9 C3 1_555 1_555
H10 C3 1_555 1_555
C4 N3 1_555 1_555
H11 C4 1_555 1_555
H12 C4 1_555 1_555
H13 C4 1_555 1_555
C5 O1 1_555 1_555
C6 C5 1_555 1_555
C7 C6 1_555 1_555
H14 C7 1_555 1_555
C8 C7 1_555 1_555
C9 C8 1_555 1_555
H15 C9 1_555 1_555
C10 C9 1_555 1_555
H16 C10 1_555 1_555
C11 C6 1_555 1_555
H17 C11 1_555 1_555
C12 C8 1_555 1_555
O3C Zn1 1_555 1_555
O4C Zn1 1_555 1_555
Zn1C O3 1_555 1_555
O2 C5 1_555 1_555
O4 Zn1C 1_555 1_555
N3 C1 1_555 1_555
C10 C11 1_555 1_555

#END
