
#######################################################################
#
#                 Cambridge Crystallographic Data Centre
#                                CCDC 
#
#######################################################################
#
# If this CIF has been generated from an entry in the Cambridge 
# Structural Database, then it will include bibliographic, chemical, 
# crystal, experimental, refinement or atomic coordinate data resulting 
# from the CCDC's data processing and validation procedures.
#
#######################################################################

data_LUWTAY
_symmetry_cell_setting           monoclinic
_symmetry_space_group_name_H-M   'C 2'
_symmetry_Int_Tables_number      5
_space_group_name_Hall           'C 2y'
loop_
_symmetry_equiv_pos_site_id
_symmetry_equiv_pos_as_xyz
1 x,y,z
2 -x,y,-z
3 1/2+x,1/2+y,z
4 1/2-x,1/2+y,-z
_cell_length_a                   26.6250(4)
_cell_length_b                   7.53500(10)
_cell_length_c                   18.6840(4)
_cell_angle_alpha                90
_cell_angle_beta                 103.7490(7)
_cell_angle_gamma                90
_cell_volume                     3640.97
loop_
_atom_site_label
_atom_site_type_symbol
_atom_site_fract_x
_atom_site_fract_y
_atom_site_fract_z
Zn1 Zn 0.863449(11) 0.8790 0.537818(16)
Zn2 Zn 0.865254(12) 0.87659(6) 1.028175(16)
S1 S 0.77839(3) 0.81397(13) 0.54582(5)
S2 S 0.78002(3) 0.81042(14) 0.96496(5)
O1 O 0.90857(8) 0.9235(3) 0.63601(12)
O2 O 0.86687(9) 1.1792(3) 0.62067(12)
O3 O 0.90972(9) 0.9198(3) 0.95889(12)
O4 O 0.86994(9) 1.1773(3) 0.95187(13)
O5 O 0.85281(10) 1.0314(4) 0.11738(14)
O6 O 0.92211(9) 0.8675(4) 0.13854(13)
O7 O 0.92271(8) 0.8737(4) 0.46945(12)
O8 O 0.85252(9) 1.0350(3) 0.44345(13)
N1 N 0.87320(10) 0.5936(3) 0.54742(14)
N2 N 0.83833(10) 0.5277(4) 0.58939(15)
H1 H 0.8423(13) 0.417(3) 0.599(2)
N3 N 0.75885(10) 0.5293(4) 0.61530(16)
H2 H 0.7279(8) 0.583(4) 0.6072(18)
N4 N 0.87573(10) 0.5921(3) 1.02624(14)
N5 N 0.83980(10) 0.5230(4) 0.96250(15)
H3 H 0.8440(15) 0.411(3) 0.952(2)
N6 N 0.75698(11) 0.5122(4) 0.89139(16)
H4 H 0.7266(10) 0.566(6) 0.883(3)
C1 C 0.79335(11) 0.6096(4) 0.58541(16)
C2 C 0.92660(12) 0.5525(4) 0.5877(2)
H5 H 0.9312 0.4235 0.5914
H6 H 0.9332 0.6039 0.6372
H7 H 0.9509 0.6028 0.5612
C3 C 0.86041(14) 0.5062(5) 0.47393(19)
H8 H 0.8246 0.5341 0.4486
H9 H 0.8643 0.3774 0.4802
H10 H 0.8838 0.5495 0.4445
C4 C 0.76619(12) 0.3532(5) 0.64905(19)
H11 H 0.7962 0.3551 0.6912
H12 H 0.7720 0.2665 0.6127
H13 H 0.7353 0.3200 0.6658
C5 C 0.89798(11) 1.0749(4) 0.66011(17)
C6 C 0.92586(12) 1.1170(4) 0.73862(17)
H14 H 0.9586(8) 1.085(4) 0.7411(19)
C7 C 0.92386(12) 1.3133(5) 0.76160(16)
H15 H 0.9572 1.3728 0.7629
H16 H 0.8961 1.3772 0.7264
C8 C 0.91296(13) 1.3109(5) 0.83866(16)
H17 H 0.9347 1.3996 0.8710
H18 H 0.8762 1.3383 0.8357
C9 C 0.92607(12) 1.1240(4) 0.86852(16)
C10 C 0.90681(12) 1.0042(4) 0.79780(17)
C11 C 0.84755(13) 0.9904(5) 0.77816(18)
H19 H 0.8362 0.9333 0.8187
H20 H 0.8361 0.9195 0.7333
H21 H 0.8325 1.1095 0.7700
C12 C 0.92974(15) 0.8170(5) 0.80488(18)
H22 H 0.9166 0.7520 0.7588
H23 H 0.9198 0.7547 0.8454
H24 H 0.9675 0.8246 0.8149
C13 C 0.79396(12) 0.6009(4) 0.93881(17)
C14 C 0.92867(12) 0.5526(5) 1.01997(19)
H25 H 0.9347 0.6085 0.9754
H26 H 0.9331 0.4239 1.0171
H27 H 0.9535 0.5992 1.0632
C15 C 0.86550(15) 0.5021(5) 1.09204(19)
H28 H 0.8693 0.3736 1.0873
H29 H 0.8302 0.5292 1.0959
H30 H 0.8902 0.5442 1.1364
C16 C 0.76183(12) 0.3282(5) 0.86927(19)
H31 H 0.7746 0.2550 0.9132
H32 H 0.7862 0.3219 0.8374
H33 H 0.7280 0.2842 0.8424
C17 C 0.89508(13) 0.9822(5) 0.15956(18)
C18 C 0.89969(12) 1.0739(4) 0.93032(16)
C19 C 0.88570(15) 1.2340(5) 0.24855(19)
H34 H 0.8521 1.2432 0.2121
H35 H 0.9068 1.3394 0.2435
C20 C 0.87736(16) 1.2229(5) 0.32725(19)
H36 H 0.8408 1.1951 0.3260
H37 H 0.8866 1.3367 0.3536
C21 C 0.91338(12) 1.0719(4) 0.36567(17)
C22 C 0.89533(12) 0.9878(4) 0.42947(18)
C23 C 0.91131(12) 0.9364(4) 0.30082(17)
C24 C 0.85967(11) 0.8362(5) 0.28381(17)
H38 H 0.8564 0.7692 0.3274
H39 H 0.8585 0.7541 0.2428
H40 H 0.8311 0.9212 0.2704
C25 C 0.95520(13) 0.8011(5) 0.31568(19)
H41 H 0.9524 0.7255 0.2722
H42 H 0.9529 0.7275 0.3580
H43 H 0.9885 0.8633 0.3263
C26 C 0.91376(12) 1.0641(4) 0.23591(17)
H44 H 0.9509 1.0961 0.2415
C27 C 0.98443(12) 1.1075(5) 0.89949(18)
H45 H 1.0022 1.1219 0.8595
H46 H 0.9924 0.9903 0.9221
H47 H 0.9961 1.1996 0.9367
C28 C 0.96823(14) 1.1456(5) 0.39665(19)
H48 H 0.9670 1.2384 0.4329
H49 H 0.9815 1.1957 0.3564
H50 H 0.9910 1.0495 0.4203
O5_2 O 0.85281(10) 1.0314(4) 1.11738(14)
O6_2 O 0.92211(9) 0.8675(4) 1.13854(13)
Zn2_2 Zn 0.865254(12) 0.87659(6) 0.028175(16)
loop_
_geom_bond_atom_site_label_1
_geom_bond_atom_site_label_2
_geom_bond_site_symmetry_1
_geom_bond_site_symmetry_2
Zn1 S1 1_555 1_555
Zn2 S2 1_555 1_555
S1 C1 1_555 1_555
S2 C13 1_555 1_555
O1 Zn1 1_555 1_555
O2 C5 1_555 1_555
O3 Zn2 1_555 1_555
O4 C18 1_555 1_555
O5 C17 1_555 1_555
O6 C17 1_555 1_555
O7 Zn1 1_555 1_555
O8 Zn1 1_555 1_555
N1 Zn1 1_555 1_555
N2 N1 1_555 1_555
H1 N2 1_555 1_555
N3 H2 1_555 1_555
N4 Zn2 1_555 1_555
N5 N4 1_555 1_555
H3 N5 1_555 1_555
N6 H4 1_555 1_555
C1 N2 1_555 1_555
C2 N1 1_555 1_555
H5 C2 1_555 1_555
H6 C2 1_555 1_555
H7 C2 1_555 1_555
C3 N1 1_555 1_555
H8 C3 1_555 1_555
H9 C3 1_555 1_555
H10 C3 1_555 1_555
C4 N3 1_555 1_555
H11 C4 1_555 1_555
H12 C4 1_555 1_555
H13 C4 1_555 1_555
C5 O1 1_555 1_555
C6 C5 1_555 1_555
H14 C6 1_555 1_555
C7 C6 1_555 1_555
H15 C7 1_555 1_555
H16 C7 1_555 1_555
C8 C7 1_555 1_555
H17 C8 1_555 1_555
H18 C8 1_555 1_555
C9 C8 1_555 1_555
C10 C6 1_555 1_555
C11 C10 1_555 1_555
H19 C11 1_555 1_555
H20 C11 1_555 1_555
H21 C11 1_555 1_555
C12 C10 1_555 1_555
H22 C12 1_555 1_555
H23 C12 1_555 1_555
H24 C12 1_555 1_555
C13 N5 1_555 1_555
C14 N4 1_555 1_555
H25 C14 1_555 1_555
H26 C14 1_555 1_555
H27 C14 1_555 1_555
C15 N4 1_555 1_555
H28 C15 1_555 1_555
H29 C15 1_555 1_555
H30 C15 1_555 1_555
C16 N6 1_555 1_555
H31 C16 1_555 1_555
H32 C16 1_555 1_555
H33 C16 1_555 1_555
C17 C26 1_555 1_555
C18 O3 1_555 1_555
C19 H34 1_555 1_555
H35 C19 1_555 1_555
C20 C19 1_555 1_555
H36 C20 1_555 1_555
H37 C20 1_555 1_555
C21 C20 1_555 1_555
C22 O7 1_555 1_555
C23 C21 1_555 1_555
C24 C23 1_555 1_555
H38 C24 1_555 1_555
H39 C24 1_555 1_555
H40 C24 1_555 1_555
C25 C23 1_555 1_555
H41 C25 1_555 1_555
H42 C25 1_555 1_555
H43 C25 1_555 1_555
C26 C19 1_555 1_555
H44 C26 1_555 1_555
C27 C9 1_555 1_555
H45 C27 1_555 1_555
H46 C27 1_555 1_555
H47 C27 1_555 1_555
C28 C21 1_555 1_555
H48 C28 1_555 1_555
H49 C28 1_555 1_555
H50 C28 1_555 1_555
O5_2 Zn2 1_555 1_555
O6_2 Zn2 1_555 1_555
Zn2_2 O5 1_555 1_555
O6 Zn2_2 1_555 1_555
O8 C22 1_555 1_555
N3 C1 1_555 1_555
N6 C13 1_555 1_555
C9 C10 1_555 1_555
C9 C18 1_555 1_555
C21 C22 1_555 1_555
C23 C26 1_555 1_555

#END
