
#######################################################################
#
#                 Cambridge Crystallographic Data Centre
#                                CCDC 
#
#######################################################################
#
# If this CIF has been generated from an entry in the Cambridge 
# Structural Database, then it will include bibliographic, chemical, 
# crystal, experimental, refinement or atomic coordinate data resulting 
# from the CCDC's data processing and validation procedures.
#
#######################################################################

data_LUWXUW
_symmetry_cell_setting           triclinic
_symmetry_space_group_name_H-M   'P -1'
_symmetry_Int_Tables_number      2
_space_group_name_Hall           '-P 1'
loop_
_symmetry_equiv_pos_site_id
_symmetry_equiv_pos_as_xyz
1 x,y,z
2 -x,-y,-z
_cell_length_a                   6.4827(13)
_cell_length_b                   9.982(2)
_cell_length_c                   10.693(2)
_cell_angle_alpha                107.11(3)
_cell_angle_beta                 103.28(3)
_cell_angle_gamma                102.43(3)
_cell_volume                     613.165
loop_
_atom_site_label
_atom_site_type_symbol
_atom_site_fract_x
_atom_site_fract_y
_atom_site_fract_z
V1 V 0.34567(7) 0.34249(4) 0.45630(4)
O1 O 0.3011(3) 0.49425(18) 0.43809(17)
O2 O 0.2106(4) 0.2631(2) 0.1279(2)
O3 O 0.4670(3) 0.26170(19) 0.30976(17)
O4 O 0.1054(3) 0.21888(19) 0.39600(18)
N1 N 0.5427(3) 0.2368(2) 0.5737(2)
N2 N 0.3030(3) 0.4009(2) 0.6567(2)
C1 C 0.5241(4) 0.2470(3) 0.6994(2)
C2 C 0.6411(5) 0.1852(3) 0.7816(3)
H1 H 0.6258 0.1931 0.8676
C3 C 0.7806(5) 0.1115(3) 0.7319(3)
H2 H 0.8574 0.0667 0.7833
C4 C 0.8047(4) 0.1053(3) 0.6050(3)
H3 H 0.9009 0.0585 0.5714
C5 C 0.6841(4) 0.1693(3) 0.5289(3)
H4 H 0.7014 0.1655 0.4441
C6 C 0.3793(4) 0.3348(3) 0.7446(2)
C7 C 0.3232(4) 0.3500(3) 0.8644(3)
H5 H 0.3750 0.3023 0.9221
C8 C 0.1889(5) 0.4371(3) 0.8973(3)
H6 H 0.1509 0.4492 0.9777
C9 C 0.1118(5) 0.5060(3) 0.8093(3)
H7 H 0.0219 0.5651 0.8297
C10 C 0.1722(4) 0.4848(3) 0.6894(3)
H8 H 0.1201 0.5304 0.6298
C11 C 0.4378(4) 0.1078(3) 0.0865(2)
C12 C 0.6520(4) 0.0978(3) 0.1250(2)
H9 H 0.7546 0.1634 0.2086
C13 C 0.2870(4) 0.0098(3) -0.0390(2)
H10 H 0.1436 0.0163 -0.0657
C14 C 0.3617(4) 0.2207(3) 0.1782(2)
C13A C 0.7130(4) -0.0098(3) 0.0390(2)
C11A C 0.5622(4) -0.1078(3) -0.0865(2)
C12A C 0.3480(4) -0.0978(3) -0.1250(2)
H9A H 0.2454 -0.1634 -0.2086
C14A C 0.6383(4) -0.2207(3) -0.1782(2)
O2A O 0.7894(4) -0.2631(2) -0.1279(2)
O3A O 0.5330(3) -0.26170(19) -0.30976(17)
H10A H 0.8564 -0.0163 0.0657
O1A O 0.6989(3) 0.50575(18) 0.56191(17)
V1A V 0.65433(7) 0.65751(4) 0.54370(4)
O4A O 0.8946(3) 0.78112(19) 0.60400(18)
N1A N 0.4573(3) 0.7632(2) 0.4263(2)
N2A N 0.6970(3) 0.5991(2) 0.3433(2)
C1A C 0.4759(4) 0.7530(3) 0.3006(2)
C2A C 0.3589(5) 0.8148(3) 0.2184(3)
H1A H 0.3742 0.8069 0.1324
C3A C 0.2194(5) 0.8885(3) 0.2681(3)
H2A H 0.1426 0.9333 0.2167
C4A C 0.1953(4) 0.8947(3) 0.3950(3)
H3A H 0.0991 0.9415 0.4286
C5A C 0.3159(4) 0.8307(3) 0.4711(3)
H4A H 0.2986 0.8345 0.5559
C6A C 0.6207(4) 0.6652(3) 0.2554(2)
C7A C 0.6768(4) 0.6500(3) 0.1356(3)
H5A H 0.6250 0.6977 0.0779
C8A C 0.8111(5) 0.5629(3) 0.1027(3)
H6A H 0.8491 0.5508 0.0223
C9A C 0.8882(5) 0.4940(3) 0.1907(3)
H7A H 0.9781 0.4349 0.1703
C10A C 0.8278(4) 0.5152(3) 0.3106(3)
H8A H 0.8799 0.4696 0.3702
V1A_2 V 0.65433(7) -0.34249(4) -0.45630(4)
O3A_2 O 0.5330(3) 0.73830(19) 0.69024(17)
loop_
_geom_bond_atom_site_label_1
_geom_bond_atom_site_label_2
_geom_bond_site_symmetry_1
_geom_bond_site_symmetry_2
V1 O1 1_555 1_555
O1 V1A 1_555 1_555
O2 C14 1_555 1_555
O3 V1 1_555 1_555
O4 V1 1_555 1_555
N1 V1 1_555 1_555
N2 V1 1_555 1_555
C1 N1 1_555 1_555
C2 C1 1_555 1_555
H1 C2 1_555 1_555
C3 C2 1_555 1_555
H2 C3 1_555 1_555
C4 C3 1_555 1_555
H3 C4 1_555 1_555
C5 N1 1_555 1_555
H4 C5 1_555 1_555
C6 N2 1_555 1_555
C7 C6 1_555 1_555
H5 C7 1_555 1_555
C8 C7 1_555 1_555
H6 C8 1_555 1_555
C9 C8 1_555 1_555
H7 C9 1_555 1_555
C10 N2 1_555 1_555
H8 C10 1_555 1_555
C11 C12 1_555 1_555
C12 H9 1_555 1_555
C13 C11 1_555 1_555
H10 C13 1_555 1_555
C14 O3 1_555 1_555
C13A C12 1_555 1_555
C11A C13A 1_555 1_555
C12A C13 1_555 1_555
H9A C12A 1_555 1_555
C14A C11A 1_555 1_555
O2A C14A 1_555 1_555
O3A C14A 1_555 1_555
H10A C13A 1_555 1_555
O1A V1 1_555 1_555
V1A O1A 1_555 1_555
O4A V1A 1_555 1_555
N1A V1A 1_555 1_555
N2A V1A 1_555 1_555
C1A N1A 1_555 1_555
C2A C1A 1_555 1_555
H1A C2A 1_555 1_555
C3A C2A 1_555 1_555
H2A C3A 1_555 1_555
C4A C3A 1_555 1_555
H3A C4A 1_555 1_555
C5A N1A 1_555 1_555
H4A C5A 1_555 1_555
C6A N2A 1_555 1_555
C7A C6A 1_555 1_555
H5A C7A 1_555 1_555
C8A C7A 1_555 1_555
H6A C8A 1_555 1_555
C9A C8A 1_555 1_555
H7A C9A 1_555 1_555
C10A N2A 1_555 1_555
H8A C10A 1_555 1_555
V1A_2 O3A 1_555 1_555
O3A_2 V1A 1_555 1_555
C1 C6 1_555 1_555
C4 C5 1_555 1_555
C9 C10 1_555 1_555
C11 C14 1_555 1_555
C11A C12A 1_555 1_555
C1A C6A 1_555 1_555
C4A C5A 1_555 1_555
C9A C10A 1_555 1_555

#END
