
#######################################################################
#
#                 Cambridge Crystallographic Data Centre
#                                CCDC 
#
#######################################################################
#
# If this CIF has been generated from an entry in the Cambridge 
# Structural Database, then it will include bibliographic, chemical, 
# crystal, experimental, refinement or atomic coordinate data resulting 
# from the CCDC's data processing and validation procedures.
#
#######################################################################

data_LUWYIM
_symmetry_cell_setting           monoclinic
_symmetry_space_group_name_H-M   'C 2/c'
_symmetry_Int_Tables_number      15
_space_group_name_Hall           '-C 2yn'
loop_
_symmetry_equiv_pos_site_id
_symmetry_equiv_pos_as_xyz
1 x,y,z
2 -x,y,1/2-z
3 1/2+x,1/2+y,z
4 1/2-x,1/2+y,1/2-z
5 -x,-y,-z
6 x,-y,1/2+z
7 1/2-x,1/2-y,-z
8 1/2+x,1/2-y,1/2+z
_cell_length_a                   15.3097(16)
_cell_length_b                   15.5312(16)
_cell_length_c                   19.187(2)
_cell_angle_alpha                90
_cell_angle_beta                 110.860(2)
_cell_angle_gamma                90
_cell_volume                     4263.21
loop_
_atom_site_label
_atom_site_type_symbol
_atom_site_fract_x
_atom_site_fract_y
_atom_site_fract_z
Pb1 Pb 0.417890(13) 0.131902(11) 0.303570(10)
S1 S 0.49821(11) 0.78480(9) 0.38923(9)
O1 O 0.2970(2) 0.1444(2) 0.35906(18)
O2 O 0.4269(2) 0.0852(2) 0.4352(2)
O3 O 0.2880(2) -0.0634(2) 0.68919(19)
O4 O 0.3972(2) -0.0976(2) 0.6427(2)
N1 N 0.4850(3) 0.2698(2) 0.3759(2)
N2 N 0.3551(3) 0.2719(2) 0.2361(2)
N3 N 0.4840(3) 0.5870(3) 0.3676(2)
N4 N 0.3785(3) 0.5883(2) 0.2511(2)
H1 H 0.3410 0.6076 0.2091
C1 C 0.2943(4) 0.2721(3) 0.1665(3)
H2 H 0.2713 0.2195 0.1443
C2 C 0.2631(4) 0.3464(3) 0.1253(3)
H3 H 0.2212 0.3435 0.0764
C3 C 0.2949(4) 0.4236(3) 0.1576(3)
H4 H 0.2743 0.4742 0.1309
C4 C 0.3581(3) 0.4273(3) 0.2305(2)
C5 C 0.3964(3) 0.5040(3) 0.2709(3)
C6 C 0.4612(3) 0.5043(3) 0.3424(3)
C7 C 0.4949(3) 0.4246(3) 0.3812(3)
C8 C 0.5595(3) 0.4199(3) 0.4539(3)
H5 H 0.5844 0.4697 0.4804
C9 C 0.5856(4) 0.3403(4) 0.4856(3)
H6 H 0.6287 0.3359 0.5340
C10 C 0.5477(4) 0.2665(3) 0.4456(3)
H7 H 0.5663 0.2130 0.4677
C11 C 0.4580(3) 0.3471(3) 0.3437(3)
C12 C 0.3889(3) 0.3482(3) 0.2687(3)
C13 C 0.4321(3) 0.6366(3) 0.3113(3)
C14 C 0.4296(3) 0.7296(3) 0.3113(3)
C15 C 0.4560(4) 0.8808(3) 0.3489(4)
H8 H 0.4738 0.9338 0.3722
C16 C 0.3936(5) 0.8711(4) 0.2790(4)
H9 H 0.3641 0.9172 0.2488
C17 C 0.3774(4) 0.7847(3) 0.2562(3)
H10 H 0.3364 0.7671 0.2098
C18 C 0.3289(3) -0.0527(3) 0.6428(3)
C19 C 0.2943(3) 0.0172(3) 0.5856(2)
C20 C 0.2210(3) 0.0706(3) 0.5859(3)
H11 H 0.1954 0.0636 0.6228
C21 C 0.1860(4) 0.1331(3) 0.5327(3)
H12 H 0.1371 0.1680 0.5337
C22 C 0.3337(3) 0.0305(3) 0.5315(2)
H13 H 0.3836 -0.0035 0.5313
C23 C 0.2235(3) 0.1443(3) 0.4775(3)
H14 H 0.1983 0.1851 0.4403
C24 C 0.2995(3) 0.0940(3) 0.4779(2)
C25 C 0.3442(3) 0.1081(3) 0.4203(3)
Pb1E Pb 0.417890(13) -0.131902(11) 0.803570(10)
Pb1D Pb 0.582110(13) -0.131902(11) 0.696430(10)
O3E O 0.2880(2) 0.0634(2) 0.18919(19)
O4D O 0.6028(2) 0.0976(2) 0.3573(2)
loop_
_geom_bond_atom_site_label_1
_geom_bond_atom_site_label_2
_geom_bond_site_symmetry_1
_geom_bond_site_symmetry_2
Pb1 O1 1_555 1_555
S1 C14 1_555 1_555
O1 C25 1_555 1_555
O2 Pb1 1_555 1_555
O3 C18 1_555 1_555
O4 C18 1_555 1_555
N1 Pb1 1_555 1_555
N2 Pb1 1_555 1_555
N3 C6 1_555 1_555
N4 H1 1_555 1_555
C1 N2 1_555 1_555
H2 C1 1_555 1_555
C2 C1 1_555 1_555
H3 C2 1_555 1_555
C3 C2 1_555 1_555
H4 C3 1_555 1_555
C4 C3 1_555 1_555
C5 N4 1_555 1_555
C6 C5 1_555 1_555
C7 C6 1_555 1_555
C8 C7 1_555 1_555
H5 C8 1_555 1_555
C9 C8 1_555 1_555
H6 C9 1_555 1_555
C10 N1 1_555 1_555
H7 C10 1_555 1_555
C11 N1 1_555 1_555
C12 N2 1_555 1_555
C13 N3 1_555 1_555
C14 C13 1_555 1_555
C15 S1 1_555 1_555
H8 C15 1_555 1_555
C16 C15 1_555 1_555
H9 C16 1_555 1_555
C17 C14 1_555 1_555
H10 C17 1_555 1_555
C18 C19 1_555 1_555
C19 C20 1_555 1_555
C20 H11 1_555 1_555
C21 C20 1_555 1_555
H12 C21 1_555 1_555
C22 C19 1_555 1_555
H13 C22 1_555 1_555
C23 C21 1_555 1_555
H14 C23 1_555 1_555
C24 C22 1_555 1_555
C25 O2 1_555 1_555
Pb1E O3 1_555 1_555
Pb1D O4 1_555 1_555
O3E Pb1 1_555 1_555
O4D Pb1 1_555 1_555
N4 C13 1_555 1_555
C4 C5 1_555 1_555
C4 C12 1_555 1_555
C7 C11 1_555 1_555
C9 C10 1_555 1_555
C11 C12 1_555 1_555
C16 C17 1_555 1_555
C23 C24 1_555 1_555
C24 C25 1_555 1_555

#END
