
#######################################################################
#
#                 Cambridge Crystallographic Data Centre
#                                CCDC 
#
#######################################################################
#
# If this CIF has been generated from an entry in the Cambridge 
# Structural Database, then it will include bibliographic, chemical, 
# crystal, experimental, refinement or atomic coordinate data resulting 
# from the CCDC's data processing and validation procedures.
#
#######################################################################

data_LUWYEI
_symmetry_cell_setting           triclinic
_symmetry_space_group_name_H-M   'P -1'
_symmetry_Int_Tables_number      2
_space_group_name_Hall           '-P 1'
loop_
_symmetry_equiv_pos_site_id
_symmetry_equiv_pos_as_xyz
1 x,y,z
2 -x,-y,-z
_cell_length_a                   6.012(3)
_cell_length_b                   7.530(4)
_cell_length_c                   16.565(8)
_cell_angle_alpha                92.049(6)
_cell_angle_beta                 98.436(6)
_cell_angle_gamma                96.988(5)
_cell_volume                     735.181
loop_
_atom_site_label
_atom_site_type_symbol
_atom_site_fract_x
_atom_site_fract_y
_atom_site_fract_z
C1 C 0.9694(8) 0.2178(6) 0.1802(3)
C2 C 0.8893(8) 0.1350(6) 0.2485(3)
C3 C 1.0246(8) 0.1500(7) 0.3234(3)
C4 C 1.2397(8) 0.2375(7) 0.3305(3)
C5 C 1.3250(8) 0.3106(7) 0.2601(3)
C6 C 1.1875(7) 0.3045(6) 0.1857(3)
C7 C 0.8073(8) 0.1848(6) 0.1006(3)
C8 C 1.2801(8) 0.3591(6) 0.1099(3)
Cd1 Cd 0.50992(6) -0.24392(5) 0.04640(2)
F1 F 0.6789(4) 0.0509(3) 0.24450(15)
F2 F 0.9487(4) 0.0857(4) 0.38998(16)
F3 F 1.3863(5) 0.2569(4) 0.40377(17)
F4 F 1.5385(5) 0.3968(4) 0.27183(16)
O1 O 0.6950(5) 0.0438(4) 0.07274(19)
O2 O 0.7882(5) 0.3328(4) 0.0624(2)
O3 O 1.2841(5) 0.2416(5) 0.0574(2)
O4 O 1.3558(5) 0.5264(4) 0.11434(19)
O5 O 0.2522(5) -0.1124(4) 0.10926(19)
H8 H 0.3129 -0.0740 0.1573
H9 H 0.2101 -0.0255 0.0821
O6 O 0.8410(6) -0.3220(5) 0.1175(2)
H10 H 0.8301 -0.4353 0.1197
H11 H 0.8624 -0.2740 0.1657
C1A C 0.0306(8) -0.2178(6) -0.1802(3)
C2A C 0.1107(8) -0.1350(6) -0.2485(3)
C3A C -0.0246(8) -0.1500(7) -0.3234(3)
C4A C -0.2397(8) -0.2375(7) -0.3305(3)
C5A C -0.3250(8) -0.3106(7) -0.2601(3)
C6A C -0.1875(7) -0.3045(6) -0.1857(3)
C7A C 0.1927(8) -0.1848(6) -0.1006(3)
C8A C -0.2801(8) -0.3591(6) -0.1099(3)
Cd1A Cd 0.49008(6) 0.24392(5) -0.04640(2)
Cd1_2 Cd -0.49008(6) -0.24392(5) 0.04640(2)
Cd1_3 Cd 1.50992(6) 0.75608(5) 0.04640(2)
Cd1A_2 Cd -0.50992(6) -0.75608(5) -0.04640(2)
Cd1A_3 Cd 1.49008(6) 0.24392(5) -0.04640(2)
F1A F 0.3211(4) -0.0509(3) -0.24450(15)
F2A F 0.0513(4) -0.0857(4) -0.38998(16)
F3A F -0.3863(5) -0.2569(4) -0.40377(17)
F4A F -0.5385(5) -0.3968(4) -0.27183(16)
O1A O 0.3050(5) -0.0438(4) -0.07274(19)
O2A O 0.2118(5) -0.3328(4) -0.0624(2)
O3A O -0.2841(5) -0.2416(5) -0.0574(2)
O3_2 O 0.2841(5) 0.2416(5) 0.0574(2)
O3A_2 O 0.7159(5) -0.2416(5) -0.0574(2)
O4A O -0.3558(5) -0.5264(4) -0.11434(19)
O4_2 O 0.3558(5) -0.4736(4) 0.11434(19)
O4A_2 O 0.6442(5) 0.4736(4) -0.11434(19)
O5A O 0.7478(5) 0.1124(4) -0.10926(19)
H8A H 0.6871 0.0740 -0.1573
H9A H 0.7899 0.0255 -0.0821
O6A O 0.1590(6) 0.3220(5) -0.1175(2)
H10A H 0.1699 0.4353 -0.1197
H11A H 0.1376 0.2740 -0.1657
C9 C 0.1632(8) 0.6846(7) 0.4436(3)
H1 H 0.1689 0.7938 0.4760
H2 H 0.2345 0.5986 0.4763
H3 H 0.0079 0.6378 0.4242
C10 C 0.5323(8) 0.7482(6) 0.3924(3)
H4 H 0.5967 0.7229 0.3442
H5 H 0.5803 0.6693 0.4339
H6 H 0.5823 0.8702 0.4119
C11 C 0.1665(7) 0.7256(6) 0.2977(3)
H7 H 0.2476 0.7445 0.2544
N1 N 0.2840(6) 0.7209(5) 0.3728(2)
O7 O -0.0430(6) 0.7063(5) 0.28240(19)
loop_
_geom_bond_atom_site_label_1
_geom_bond_atom_site_label_2
_geom_bond_site_symmetry_1
_geom_bond_site_symmetry_2
C1 C2 1_555 1_555
C2 C3 1_555 1_555
C3 C4 1_555 1_555
C4 C5 1_555 1_555
C5 C6 1_555 1_555
C6 C1 1_555 1_555
C7 C1 1_555 1_555
C8 C6 1_555 1_555
C9 H1 1_555 1_555
H2 C9 1_555 1_555
H3 C9 1_555 1_555
C10 H4 1_555 1_555
H5 C10 1_555 1_555
H6 C10 1_555 1_555
C11 H7 1_555 1_555
Cd1 O1 1_555 1_555
F1 C2 1_555 1_555
F2 C3 1_555 1_555
F3 C4 1_555 1_555
F4 C5 1_555 1_555
N1 C9 1_555 1_555
O1 C7 1_555 1_555
O2 C7 1_555 1_555
O3 C8 1_555 1_555
O4 C8 1_555 1_555
O5 Cd1 1_555 1_555
H8 O5 1_555 1_555
H9 O5 1_555 1_555
O6 Cd1 1_555 1_555
H10 O6 1_555 1_555
H11 O6 1_555 1_555
O7 C11 1_555 1_555
C1A C2A 1_555 1_555
C2A C3A 1_555 1_555
C3A C4A 1_555 1_555
C4A C5A 1_555 1_555
C5A C6A 1_555 1_555
C6A C1A 1_555 1_555
C7A C1A 1_555 1_555
C8A C6A 1_555 1_555
Cd1A O1 1_555 1_555
Cd1_2 O3A 1_555 1_555
Cd1_3 O4 1_555 1_555
Cd1A_2 O4A 1_555 1_555
Cd1A_3 O3 1_555 1_555
F1A C2A 1_555 1_555
F2A C3A 1_555 1_555
F3A C4A 1_555 1_555
F4A C5A 1_555 1_555
O1A Cd1 1_555 1_555
O2A Cd1 1_555 1_555
O3A C8A 1_555 1_555
O3_2 Cd1A 1_555 1_555
O3A_2 Cd1 1_555 1_555
O4A C8A 1_555 1_555
O4_2 Cd1 1_555 1_555
O4A_2 Cd1A 1_555 1_555
O5A Cd1A 1_555 1_555
H8A O5A 1_555 1_555
H9A O5A 1_555 1_555
O6A Cd1A 1_555 1_555
H10A O6A 1_555 1_555
H11A O6A 1_555 1_555
C10 N1 1_555 1_555
C11 N1 1_555 1_555
O2 Cd1A 1_555 1_555
C7A O1A 1_555 1_555
C7A O2A 1_555 1_555
Cd1A O1A 1_555 1_555

#END
