
#######################################################################
#
#                 Cambridge Crystallographic Data Centre
#                                CCDC 
#
#######################################################################
#
# If this CIF has been generated from an entry in the Cambridge 
# Structural Database, then it will include bibliographic, chemical, 
# crystal, experimental, refinement or atomic coordinate data resulting 
# from the CCDC's data processing and validation procedures.
#
#######################################################################

data_LUWYOS
_symmetry_cell_setting           triclinic
_symmetry_space_group_name_H-M   'P -1'
_symmetry_Int_Tables_number      2
_space_group_name_Hall           '-P 1'
loop_
_symmetry_equiv_pos_site_id
_symmetry_equiv_pos_as_xyz
1 x,y,z
2 -x,-y,-z
_cell_length_a                   6.805(3)
_cell_length_b                   8.748(4)
_cell_length_c                   13.949(5)
_cell_angle_alpha                101.914(11)
_cell_angle_beta                 99.713(9)
_cell_angle_gamma                101.683(5)
_cell_volume                     776.225
loop_
_atom_site_label
_atom_site_type_symbol
_atom_site_fract_x
_atom_site_fract_y
_atom_site_fract_z
Pb1 Pb 0.79537(14) -0.44619(11) 0.08651(7)
O1 O 0.549(3) -0.644(2) 0.1514(15)
O2 O 0.090(3) -1.186(2) 0.1256(15)
O3 O 0.432(3) -0.730(2) -0.0132(15)
O4 O 0.047(3) -1.303(2) -0.0361(14)
N1 N 0.885(4) -0.113(3) 0.6068(16)
N2 N 1.201(3) -0.279(3) 0.6114(17)
N3 N 0.721(3) -0.288(2) 0.2448(15)
N4 N 1.030(3) -0.442(2) 0.2503(15)
C1 C 1.121(4) -0.359(3) 0.430(2)
C2 C 1.000(4) -0.364(3) 0.338(2)
C3 C 0.836(4) -0.280(3) 0.336(2)
C4 C 0.567(4) -0.210(3) 0.242(2)
H1 H 0.4854 -0.2158 0.1800
C5 C 0.801(4) -0.197(3) 0.427(2)
C6 C 0.922(4) -0.196(3) 0.521(2)
C7 C 1.080(4) -0.279(3) 0.522(2)
C8 C 1.283(4) -0.441(3) 0.429(2)
H2 H 1.3665 -0.4425 0.4884
C9 C 1.179(4) -0.517(3) 0.249(2)
H3 H 1.1973 -0.5702 0.1876
C10 C 1.002(4) -0.116(3) 0.692(2)
H4 H 0.9808 -0.0610 0.7525
C11 C 0.528(4) -0.122(3) 0.3301(19)
H5 H 0.4258 -0.0650 0.3255
C12 C 1.156(4) -0.200(3) 0.693(2)
H6 H 1.2311 -0.2010 0.7552
C13 C 1.312(4) -0.518(3) 0.337(2)
H7 H 1.4185 -0.5704 0.3343
C14 C 0.634(4) -0.118(3) 0.419(2)
H8 H 0.6018 -0.0650 0.4771
C15 C 0.446(4) -0.744(3) 0.0746(19)
C16 C 0.329(4) -0.899(3) 0.0920(19)
H9 H 0.3269 -0.9011 0.1602
C17 C 0.234(4) -1.028(3) 0.020(2)
H10 H 0.2374 -1.0244 -0.0480
C18 C 0.118(4) -1.183(3) 0.038(2)
Pb1_2 Pb -0.20463(14) -1.44619(11) 0.08651(7)
Pb1A Pb 0.20463(14) -0.55381(11) -0.08651(7)
Pb1A_2 Pb 0.20463(14) -1.55381(11) -0.08651(7)
O2_2 O 1.090(3) -0.186(2) 0.1256(15)
O3A O 0.568(3) -0.270(2) 0.0132(15)
O4A O 0.953(3) -0.697(2) 0.0361(14)
loop_
_geom_bond_atom_site_label_1
_geom_bond_atom_site_label_2
_geom_bond_site_symmetry_1
_geom_bond_site_symmetry_2
Pb1 O1 1_555 1_555
O1 C15 1_555 1_555
O2 C18 1_555 1_555
O3 C15 1_555 1_555
O4 C18 1_555 1_555
N1 C6 1_555 1_555
N2 C7 1_555 1_555
N3 Pb1 1_555 1_555
N4 Pb1 1_555 1_555
C1 C2 1_555 1_555
C2 N4 1_555 1_555
C3 N3 1_555 1_555
C4 N3 1_555 1_555
H1 C4 1_555 1_555
C5 C3 1_555 1_555
C6 C5 1_555 1_555
C7 C1 1_555 1_555
C8 C1 1_555 1_555
H2 C8 1_555 1_555
C9 N4 1_555 1_555
H3 C9 1_555 1_555
C10 N1 1_555 1_555
H4 C10 1_555 1_555
C11 C4 1_555 1_555
H5 C11 1_555 1_555
C12 N2 1_555 1_555
H6 C12 1_555 1_555
C13 C8 1_555 1_555
H7 C13 1_555 1_555
C14 C5 1_555 1_555
H8 C14 1_555 1_555
C15 C16 1_555 1_555
C16 H9 1_555 1_555
C17 C16 1_555 1_555
H10 C17 1_555 1_555
C18 C17 1_555 1_555
Pb1_2 O2 1_555 1_555
Pb1A O3 1_555 1_555
Pb1A_2 O4 1_555 1_555
O2_2 Pb1 1_555 1_555
O3A Pb1 1_555 1_555
O4A Pb1 1_555 1_555
C2 C3 1_555 1_555
C6 C7 1_555 1_555
C9 C13 1_555 1_555
C10 C12 1_555 1_555
C11 C14 1_555 1_555

#END
