
#######################################################################
#
#                 Cambridge Crystallographic Data Centre
#                                CCDC 
#
#######################################################################
#
# If this CIF has been generated from an entry in the Cambridge 
# Structural Database, then it will include bibliographic, chemical, 
# crystal, experimental, refinement or atomic coordinate data resulting 
# from the CCDC's data processing and validation procedures.
#
#######################################################################

data_LUWZEJ
_symmetry_cell_setting           triclinic
_symmetry_space_group_name_H-M   'P -1'
_symmetry_Int_Tables_number      2
_space_group_name_Hall           '-P 1'
loop_
_symmetry_equiv_pos_site_id
_symmetry_equiv_pos_as_xyz
1 x,y,z
2 -x,-y,-z
_cell_length_a                   9.6367(5)
_cell_length_b                   12.1550(7)
_cell_length_c                   13.0771(7)
_cell_angle_alpha                71.5900(10)
_cell_angle_beta                 76.4630(10)
_cell_angle_gamma                68.6900(10)
_cell_volume                     1341.62
loop_
_atom_site_label
_atom_site_type_symbol
_atom_site_fract_x
_atom_site_fract_y
_atom_site_fract_z
Cd1 Cd 0.76711(7) 0.75270(6) 0.86678(5)
Cd2 Cd 0.0000 0.5000 1.0000
Cu1 Cu 0.78498(12) 0.79595(10) 0.42670(8)
S1 S 0.5078(3) 0.7640(2) 1.09272(19)
O1 O 0.9187(7) 0.7045(7) 0.7129(5)
O2 O 0.6186(7) 0.8099(6) 0.7318(5)
O3 O 0.5619(9) 0.8181(8) 0.9802(7)
O4 O 0.3983(10) 0.8563(9) 1.1413(9)
O5 O 0.6279(12) 0.6879(9) 1.1559(9)
O6 O 0.0495(8) 0.8336(6) 0.9179(6)
O7 O -0.0258(8) 0.6745(6) 0.9636(6)
O8 O 0.1763(7) 0.4527(6) 1.0683(6)
O9 O 0.8054(8) 0.9365(6) 0.8230(6)
H1 H 0.8914 0.9250 0.8383
H2 H 0.7304 0.9813 0.8560
O10 O 0.1640(17) 0.5265(16) 0.8344(12)
H3 H 0.1692 0.5203 0.7705
H4 H 0.2438 0.4919 0.8641
N1 N 0.9129(8) 0.6950(7) 0.5400(6)
N2 N 0.6257(8) 0.8091(7) 0.5536(6)
N3 N 0.6372(9) 0.8932(7) 0.3226(6)
N4 N 0.9695(10) 0.7987(8) 0.3180(7)
C1 C 0.8532(10) 0.7260(8) 0.6332(7)
C2 C 0.6846(10) 0.7894(8) 0.6425(7)
C3 C 0.4705(10) 0.8345(8) 0.5560(7)
C4 C 0.3740(12) 0.8074(10) 0.6506(8)
H5 H 0.4104 0.7767 0.7173
C5 C 0.2246(12) 0.8251(12) 0.6473(10)
H6 H 0.1626 0.8052 0.7116
C6 C 0.1668(12) 0.8714(12) 0.5509(10)
H7 H 0.0661 0.8840 0.5496
C7 C 0.2599(12) 0.8994(11) 0.4555(10)
H8 H 0.2209 0.9314 0.3898
C8 C 0.4114(11) 0.8804(9) 0.4561(8)
C9 C 0.4966(11) 0.9117(9) 0.3486(8)
H9 H 0.4397 0.9506 0.2913
C10 C 0.6763(13) 0.9489(10) 0.2052(8)
H10 H 0.6659 1.0338 0.1958
H11 H 0.6051 0.9471 0.1647
C11 C 0.8334(14) 0.8858(11) 0.1582(8)
H12 H 0.8486 0.9243 0.0810
H13 H 0.8433 0.8013 0.1661
C12 C 0.9549(13) 0.8894(11) 0.2120(9)
H14 H 1.0502 0.8729 0.1650
H15 H 0.9301 0.9704 0.2223
C13 C 1.1014(12) 0.7271(11) 0.3327(9)
H16 H 1.1768 0.7392 0.2753
C14 C 1.1498(11) 0.6295(10) 0.4269(9)
C15 C 1.2958(13) 0.5499(12) 0.4154(10)
H17 H 1.3569 0.5623 0.3490
C16 C 1.3511(13) 0.4539(12) 0.4999(12)
H18 H 1.4487 0.4016 0.4907
C17 C 1.2625(14) 0.4353(12) 0.5978(12)
H19 H 1.2992 0.3705 0.6557
C18 C 1.1151(13) 0.5152(10) 0.6100(10)
H20 H 1.0538 0.5008 0.6759
C19 C 1.0596(11) 0.6129(9) 0.5281(8)
C20 C 0.4115(10) 0.6695(8) 1.0835(7)
C21 C 0.2865(10) 0.7233(8) 1.0294(7)
H21 H 0.2581 0.8068 0.9970
C22 C 0.2026(10) 0.6542(9) 1.0226(7)
C23 C 0.2462(10) 0.5280(8) 1.0706(7)
C24 C 0.3750(11) 0.4753(8) 1.1242(8)
H22 H 0.4061 0.3915 1.1551
C25 C 0.4563(10) 0.5447(8) 1.1320(8)
H23 H 0.5397 0.5086 1.1692
C26 C 0.0682(10) 0.7248(8) 0.9633(7)
Cd1A Cd -0.76711(7) 0.24730(6) 1.13322(5)
Cd1_2 Cd -0.23289(7) 0.75270(6) 0.86678(5)
Cd1A_2 Cd 0.23289(7) 0.24730(6) 1.13322(5)
Cu1A Cu -0.78498(12) 0.20405(10) 1.57330(8)
S1A S -0.5078(3) 0.2360(2) 0.90728(19)
O1A O -0.9187(7) 0.2955(7) 1.2871(5)
O2A O -0.6186(7) 0.1901(6) 1.2682(5)
O3A O -0.5619(9) 0.1819(8) 1.0198(7)
O4A O -0.3983(10) 0.1437(9) 0.8587(9)
O5A O -0.6279(12) 0.3121(9) 0.8441(9)
O6A O -0.0495(8) 0.1664(6) 1.0821(6)
O7A O 0.0258(8) 0.3255(6) 1.0364(6)
O7_2 O 0.9742(8) 0.6745(6) 0.9636(6)
O7A_2 O -0.9742(8) 0.3255(6) 1.0364(6)
O8A O -0.1763(7) 0.5473(6) 0.9317(6)
O8A_2 O 0.8237(7) 0.5473(6) 0.9317(6)
O8_2 O -0.8237(7) 0.4527(6) 1.0683(6)
O9A O -0.8054(8) 0.0635(6) 1.1770(6)
H1A H -0.8914 0.0750 1.1617
H2A H -0.7304 0.0187 1.1440
O10A O -0.1640(17) 0.4735(16) 1.1656(12)
H3A H -0.1692 0.4797 1.2295
H4A H -0.2438 0.5081 1.1359
N1A N -0.9129(8) 0.3050(7) 1.4600(6)
N2A N -0.6257(8) 0.1909(7) 1.4464(6)
N3A N -0.6372(9) 0.1068(7) 1.6774(6)
N4A N -0.9695(10) 0.2013(8) 1.6820(7)
C1A C -0.8532(10) 0.2740(8) 1.3668(7)
C2A C -0.6846(10) 0.2106(8) 1.3575(7)
C3A C -0.4705(10) 0.1655(8) 1.4440(7)
C4A C -0.3740(12) 0.1926(10) 1.3494(8)
H5A H -0.4104 0.2233 1.2827
C5A C -0.2246(12) 0.1749(12) 1.3527(10)
H6A H -0.1626 0.1948 1.2884
C6A C -0.1668(12) 0.1286(12) 1.4491(10)
H7A H -0.0661 0.1160 1.4504
C7A C -0.2599(12) 0.1006(11) 1.5445(10)
H8A H -0.2209 0.0686 1.6102
C8A C -0.4114(11) 0.1196(9) 1.5439(8)
C9A C -0.4966(11) 0.0883(9) 1.6514(8)
H9A H -0.4397 0.0494 1.7087
C10A C -0.6763(13) 0.0511(10) 1.7948(8)
H10A H -0.6659 -0.0338 1.8042
H11A H -0.6051 0.0529 1.8353
C11A C -0.8334(14) 0.1142(11) 1.8418(8)
H12A H -0.8486 0.0757 1.9190
H13A H -0.8433 0.1987 1.8339
C12A C -0.9549(13) 0.1106(11) 1.7880(9)
H14A H -1.0502 0.1271 1.8350
H15A H -0.9301 0.0296 1.7777
C13A C -1.1014(12) 0.2729(11) 1.6673(9)
H16A H -1.1768 0.2608 1.7247
C14A C -1.1498(11) 0.3705(10) 1.5731(9)
C15A C -1.2958(13) 0.4501(12) 1.5846(10)
H17A H -1.3569 0.4377 1.6510
C16A C -1.3511(13) 0.5461(12) 1.5001(12)
H18A H -1.4487 0.5984 1.5093
C17A C -1.2625(14) 0.5647(12) 1.4022(12)
H19A H -1.2992 0.6295 1.3443
C18A C -1.1151(13) 0.4848(10) 1.3900(10)
H20A H -1.0538 0.4992 1.3241
C19A C -1.0596(11) 0.3871(9) 1.4719(8)
C20A C -0.4115(10) 0.3305(8) 0.9165(7)
C21A C -0.2865(10) 0.2767(8) 0.9706(7)
H21A H -0.2581 0.1932 1.0030
C22A C -0.2026(10) 0.3458(9) 0.9774(7)
C23A C -0.2462(10) 0.4720(8) 0.9294(7)
C24A C -0.3750(11) 0.5247(8) 0.8758(8)
H22A H -0.4061 0.6085 0.8449
C25A C -0.4563(10) 0.4553(8) 0.8680(8)
H23A H -0.5397 0.4914 0.8308
C26A C -0.0682(10) 0.2752(8) 1.0367(7)
loop_
_geom_bond_atom_site_label_1
_geom_bond_atom_site_label_2
_geom_bond_site_symmetry_1
_geom_bond_site_symmetry_2
Cd1 O1 1_555 1_555
Cd2 O7 1_555 1_555
Cu1 N1 1_555 1_555
S1 O3 1_555 1_555
O1 C1 1_555 1_555
O2 Cd1 1_555 1_555
O3 Cd1 1_555 1_555
O4 S1 1_555 1_555
O5 S1 1_555 1_555
O6 C26 1_555 1_555
O7 C26 1_555 1_555
O8 Cd2 1_555 1_555
O9 Cd1 1_555 1_555
H1 O9 1_555 1_555
H2 O9 1_555 1_555
O10 Cd2 1_555 1_555
H3 O10 1_555 1_555
H4 O10 1_555 1_555
N1 C1 1_555 1_555
N2 Cu1 1_555 1_555
N3 Cu1 1_555 1_555
N4 Cu1 1_555 1_555
C1 C2 1_555 1_555
C2 O2 1_555 1_555
C3 N2 1_555 1_555
C4 C3 1_555 1_555
H5 C4 1_555 1_555
C5 C4 1_555 1_555
H6 C5 1_555 1_555
C6 C5 1_555 1_555
H7 C6 1_555 1_555
C7 C6 1_555 1_555
H8 C7 1_555 1_555
C8 C3 1_555 1_555
C9 N3 1_555 1_555
H9 C9 1_555 1_555
C10 N3 1_555 1_555
H10 C10 1_555 1_555
H11 C10 1_555 1_555
C11 C10 1_555 1_555
H12 C11 1_555 1_555
H13 C11 1_555 1_555
C12 N4 1_555 1_555
H14 C12 1_555 1_555
H15 C12 1_555 1_555
C13 N4 1_555 1_555
H16 C13 1_555 1_555
C14 C13 1_555 1_555
C15 C14 1_555 1_555
H17 C15 1_555 1_555
C16 C15 1_555 1_555
H18 C16 1_555 1_555
C17 C16 1_555 1_555
H19 C17 1_555 1_555
C18 C17 1_555 1_555
H20 C18 1_555 1_555
C19 N1 1_555 1_555
C20 S1 1_555 1_555
C21 C20 1_555 1_555
H21 C21 1_555 1_555
C22 C21 1_555 1_555
C23 O8 1_555 1_555
C24 C23 1_555 1_555
H22 C24 1_555 1_555
C25 C20 1_555 1_555
H23 C25 1_555 1_555
C26 C22 1_555 1_555
Cd1A O1A 1_555 1_555
Cd1_2 O7 1_555 1_555
Cd1A_2 O8 1_555 1_555
Cu1A N1A 1_555 1_555
S1A O3A 1_555 1_555
O1A C1A 1_555 1_555
O2A Cd1A 1_555 1_555
O3A Cd1A 1_555 1_555
O4A S1A 1_555 1_555
O5A S1A 1_555 1_555
O6A C26A 1_555 1_555
O7A Cd2 1_555 1_555
O7_2 Cd1 1_555 1_555
O7A_2 Cd1A 1_555 1_555
O8A Cd2 1_555 1_555
O8A_2 Cd1 1_555 1_555
O8_2 Cd1A 1_555 1_555
O9A Cd1A 1_555 1_555
H1A O9A 1_555 1_555
H2A O9A 1_555 1_555
O10A Cd2 1_555 1_555
H3A O10A 1_555 1_555
H4A O10A 1_555 1_555
N1A C1A 1_555 1_555
N2A Cu1A 1_555 1_555
N3A Cu1A 1_555 1_555
N4A Cu1A 1_555 1_555
C1A C2A 1_555 1_555
C2A O2A 1_555 1_555
C3A N2A 1_555 1_555
C4A C3A 1_555 1_555
H5A C4A 1_555 1_555
C5A C4A 1_555 1_555
H6A C5A 1_555 1_555
C6A C5A 1_555 1_555
H7A C6A 1_555 1_555
C7A C6A 1_555 1_555
H8A C7A 1_555 1_555
C8A C3A 1_555 1_555
C9A N3A 1_555 1_555
H9A C9A 1_555 1_555
C10A N3A 1_555 1_555
H10A C10A 1_555 1_555
H11A C10A 1_555 1_555
C11A C10A 1_555 1_555
H12A C11A 1_555 1_555
H13A C11A 1_555 1_555
C12A N4A 1_555 1_555
H14A C12A 1_555 1_555
H15A C12A 1_555 1_555
C13A N4A 1_555 1_555
H16A C13A 1_555 1_555
C14A C13A 1_555 1_555
C15A C14A 1_555 1_555
H17A C15A 1_555 1_555
C16A C15A 1_555 1_555
H18A C16A 1_555 1_555
C17A C16A 1_555 1_555
H19A C17A 1_555 1_555
C18A C17A 1_555 1_555
H20A C18A 1_555 1_555
C19A N1A 1_555 1_555
C20A S1A 1_555 1_555
C21A C20A 1_555 1_555
H21A C21A 1_555 1_555
C22A C21A 1_555 1_555
C23A O8A 1_555 1_555
C24A C23A 1_555 1_555
H22A C24A 1_555 1_555
C25A C20A 1_555 1_555
H23A C25A 1_555 1_555
C26A O7A 1_555 1_555
N2 C2 1_555 1_555
C7 C8 1_555 1_555
C8 C9 1_555 1_555
C11 C12 1_555 1_555
C14 C19 1_555 1_555
C18 C19 1_555 1_555
C22 C23 1_555 1_555
C24 C25 1_555 1_555
Cd1_2 O8A 1_555 1_555
Cd1A_2 O7A 1_555 1_555
N2A C2A 1_555 1_555
C7A C8A 1_555 1_555
C8A C9A 1_555 1_555
C11A C12A 1_555 1_555
C14A C19A 1_555 1_555
C18A C19A 1_555 1_555
C22A C23A 1_555 1_555
C22A C26A 1_555 1_555
C24A C25A 1_555 1_555

#END
