
#######################################################################
#
#                 Cambridge Crystallographic Data Centre
#                                CCDC 
#
#######################################################################
#
# If this CIF has been generated from an entry in the Cambridge 
# Structural Database, then it will include bibliographic, chemical, 
# crystal, experimental, refinement or atomic coordinate data resulting 
# from the CCDC's data processing and validation procedures.
#
#######################################################################

data_LUWZUZ01
_symmetry_cell_setting           monoclinic
_symmetry_space_group_name_H-M   'C 2/c'
_symmetry_Int_Tables_number      15
_space_group_name_Hall           '-C 2yn'
loop_
_symmetry_equiv_pos_site_id
_symmetry_equiv_pos_as_xyz
1 x,y,z
2 -x,y,1/2-z
3 1/2+x,1/2+y,z
4 1/2-x,1/2+y,1/2-z
5 -x,-y,-z
6 x,-y,1/2+z
7 1/2-x,1/2-y,-z
8 1/2+x,1/2-y,1/2+z
_cell_length_a                   11.876(3)
_cell_length_b                   15.462(3)
_cell_length_c                   21.545(5)
_cell_angle_alpha                90
_cell_angle_beta                 94.873(5)
_cell_angle_gamma                90
_cell_volume                     3941.94
loop_
_atom_site_label
_atom_site_type_symbol
_atom_site_fract_x
_atom_site_fract_y
_atom_site_fract_z
Co1 Co 0.36347(4) 0.67860(3) 0.78479(2)
O1 O 0.3463(2) 0.59421(16) 0.71103(10)
O2 O 0.5099(2) 0.60399(18) 0.66653(11)
O3 O 0.3716(2) 0.75737(19) 0.86347(11)
O4 O 0.5333(3) 0.8295(2) 0.85688(12)
O5 O 0.5000 0.7533(2) 0.7500
H1 H 0.5318 0.7904 0.7833
N1 N 0.2371(3) 0.3906(2) 0.33241(13)
N2 N 0.7375(3) 0.7391(2) 1.23424(13)
C1 C 0.4080(3) 0.5847(2) 0.66657(16)
C2 C 0.3524(3) 0.5474(2) 0.60663(15)
C3 C 0.2537(3) 0.4998(2) 0.60446(16)
H2 H 0.2205 0.4885 0.6412
C4 C 0.2032(3) 0.4685(2) 0.54840(16)
H3 H 0.1374 0.4359 0.5480
C5 C 0.2510(3) 0.4859(2) 0.49259(16)
C6 C 0.2007(3) 0.4538(2) 0.43141(16)
C7 C 0.0867(3) 0.4571(3) 0.4127(2)
H4 H 0.0354 0.4781 0.4393
C8 C 0.0504(4) 0.4287(3) 0.3536(2)
H5 H -0.0258 0.4313 0.3397
C9 C 0.1266(3) 0.3967(3) 0.31568(19)
H6 H 0.1003 0.3782 0.2760
C10 C 0.2710(3) 0.4195(2) 0.38942(16)
H7 H 0.3478 0.4163 0.4019
C11 C 0.3495(3) 0.5334(3) 0.49543(17)
H8 H 0.3827 0.5455 0.4588
C12 C 0.4001(3) 0.5635(2) 0.55114(16)
H9 H 0.4670 0.5949 0.5516
C13 C 0.4912(3) 0.7817(2) 0.95608(16)
C14 C 0.4204(3) 0.7392(3) 0.99368(17)
H10 H 0.3477 0.7246 0.9777
C15 C 0.4556(3) 0.7180(3) 1.05494(17)
H11 H 0.4066 0.6896 1.0795
C16 C 0.5642(3) 0.7393(3) 1.07957(16)
C17 C 0.6097(3) 0.7107(2) 1.14279(16)
C18 C 0.5862(4) 0.6308(3) 1.16687(18)
H12 H 0.5343 0.5943 1.1453
C19 C 0.6402(4) 0.6051(3) 1.22344(19)
H13 H 0.6270 0.5505 1.2395
C20 C 0.7130(4) 0.6611(3) 1.25530(18)
H14 H 0.7471 0.6438 1.2937
C21 C 0.6849(3) 0.7630(3) 1.17879(16)
H15 H 0.6999 0.8178 1.1637
C22 C 0.6330(3) 0.7859(3) 1.04285(17)
H16 H 0.7042 0.8032 1.0595
C23 C 0.5979(3) 0.8071(3) 0.98184(17)
H17 H 0.6454 0.8384 0.9580
C24 C 0.4632(4) 0.7926(3) 0.88644(17)
Co1A Co 0.63653(4) 0.67860(3) 0.71521(2)
Co1E Co 0.36347(4) 0.32140(3) 0.28479(2)
Co1G Co 0.86347(4) 0.82140(3) 1.28479(2)
Co1D Co 0.63653(4) 0.32140(3) 1.21521(2)
Co1G_2 Co -0.13653(4) 0.82140(3) 0.28479(2)
O1A O 0.6537(2) 0.59421(16) 0.78897(10)
O2A O 0.4901(2) 0.60399(18) 0.83347(11)
O3G O -0.1284(2) 0.74263(19) 0.36347(11)
O3A O 0.6284(2) 0.75737(19) 0.63653(11)
O4G O 0.0333(3) 0.6705(2) 0.35688(12)
H1A H 0.4682 0.7904 0.7167
N1A N 0.7629(3) 0.3906(2) 1.16759(13)
N1E N 0.2371(3) 0.6094(2) 0.83241(13)
N1D N 0.7629(3) 0.6094(2) 0.66759(13)
N2G N 0.2375(3) 0.7609(2) 0.73424(13)
N2F N 0.7625(3) 0.7609(2) 0.76576(13)
C1A C 0.5920(3) 0.5847(2) 0.83343(16)
C2A C 0.6476(3) 0.5474(2) 0.89337(15)
C3A C 0.7463(3) 0.4998(2) 0.89554(16)
H2A H 0.7795 0.4885 0.8588
C4A C 0.7968(3) 0.4685(2) 0.95160(16)
H3A H 0.8626 0.4359 0.9520
C5A C 0.7490(3) 0.4859(2) 1.00741(16)
C6A C 0.7993(3) 0.4538(2) 1.06859(16)
C7A C 0.9133(3) 0.4571(3) 1.0873(2)
H4A H 0.9646 0.4781 1.0607
C8A C 0.9496(4) 0.4287(3) 1.1464(2)
H5A H 1.0258 0.4313 1.1603
C9A C 0.8734(3) 0.3967(3) 1.18432(19)
H6A H 0.8997 0.3782 1.2240
C10A C 0.7290(3) 0.4195(2) 1.11058(16)
H7A H 0.6522 0.4163 1.0981
C11A C 0.6505(3) 0.5334(3) 1.00457(17)
H8A H 0.6173 0.5455 1.0412
C12A C 0.5999(3) 0.5635(2) 0.94886(16)
H9A H 0.5330 0.5949 0.9484
C13G C -0.0088(3) 0.7183(2) 0.45608(16)
C14G C -0.0796(3) 0.7608(3) 0.49368(17)
H10G H -0.1523 0.7754 0.4777
C15G C -0.0444(3) 0.7820(3) 0.55494(17)
H11G H -0.0934 0.8104 0.5795
C16G C 0.0642(3) 0.7607(3) 0.57957(16)
C17G C 0.1097(3) 0.7893(2) 0.64279(16)
C18G C 0.0862(4) 0.8692(3) 0.66687(18)
H12G H 0.0343 0.9057 0.6453
C19G C 0.1402(4) 0.8949(3) 0.72344(19)
H13G H 0.1270 0.9495 0.7395
C20G C 0.2130(4) 0.8389(3) 0.75530(18)
H14G H 0.2471 0.8562 0.7937
C21G C 0.1849(3) 0.7370(3) 0.67879(16)
H15G H 0.1999 0.6822 0.6637
C22G C 0.1330(3) 0.7141(3) 0.54285(17)
H16G H 0.2042 0.6968 0.5595
C23G C 0.0979(3) 0.6929(3) 0.48184(17)
H17G H 0.1454 0.6616 0.4580
C24G C -0.0368(4) 0.7074(3) 0.38644(17)
loop_
_geom_bond_atom_site_label_1
_geom_bond_atom_site_label_2
_geom_bond_site_symmetry_1
_geom_bond_site_symmetry_2
Co1 O1 1_555 1_555
O1 C1 1_555 1_555
O2 C1 1_555 1_555
O3 Co1 1_555 1_555
O4 C24 1_555 1_555
O5 Co1 1_555 1_555
H1 O5 1_555 1_555
N1 C9 1_555 1_555
N2 C20 1_555 1_555
C1 C2 1_555 1_555
C2 C3 1_555 1_555
C3 H2 1_555 1_555
C4 C3 1_555 1_555
H3 C4 1_555 1_555
C5 C4 1_555 1_555
C6 C5 1_555 1_555
C7 C6 1_555 1_555
H4 C7 1_555 1_555
C8 C7 1_555 1_555
H5 C8 1_555 1_555
C9 C8 1_555 1_555
H6 C9 1_555 1_555
C10 N1 1_555 1_555
H7 C10 1_555 1_555
C11 C5 1_555 1_555
H8 C11 1_555 1_555
C12 C2 1_555 1_555
H9 C12 1_555 1_555
C13 C14 1_555 1_555
C14 H10 1_555 1_555
C15 C14 1_555 1_555
H11 C15 1_555 1_555
C16 C15 1_555 1_555
C17 C16 1_555 1_555
C18 C17 1_555 1_555
H12 C18 1_555 1_555
C19 C18 1_555 1_555
H13 C19 1_555 1_555
C20 C19 1_555 1_555
H14 C20 1_555 1_555
C21 N2 1_555 1_555
H15 C21 1_555 1_555
C22 C16 1_555 1_555
H16 C22 1_555 1_555
C23 C13 1_555 1_555
H17 C23 1_555 1_555
C24 O3 1_555 1_555
Co1A O2 1_555 1_555
Co1E N1 1_555 1_555
Co1G N2 1_555 1_555
Co1D N1A 1_555 1_555
Co1G_2 O3G 1_555 1_555
O1A Co1A 1_555 1_555
O2A Co1 1_555 1_555
O3G C24G 1_555 1_555
O3A Co1A 1_555 1_555
O4G C24G 1_555 1_555
H1A O5 1_555 1_555
N1A C9A 1_555 1_555
N1E Co1 1_555 1_555
N1D Co1A 1_555 1_555
N2G Co1 1_555 1_555
N2F Co1A 1_555 1_555
C1A O1A 1_555 1_555
C2A C1A 1_555 1_555
C3A C2A 1_555 1_555
H2A C3A 1_555 1_555
C4A C3A 1_555 1_555
H3A C4A 1_555 1_555
C5A C4A 1_555 1_555
C6A C5A 1_555 1_555
C7A C6A 1_555 1_555
H4A C7A 1_555 1_555
C8A C7A 1_555 1_555
H5A C8A 1_555 1_555
C9A C8A 1_555 1_555
H6A C9A 1_555 1_555
C10A N1A 1_555 1_555
H7A C10A 1_555 1_555
C11A C5A 1_555 1_555
H8A C11A 1_555 1_555
C12A C2A 1_555 1_555
H9A C12A 1_555 1_555
C13G C14G 1_555 1_555
C14G H10G 1_555 1_555
C15G C14G 1_555 1_555
H11G C15G 1_555 1_555
C16G C15G 1_555 1_555
C17G C16G 1_555 1_555
C18G C17G 1_555 1_555
H12G C18G 1_555 1_555
C19G C18G 1_555 1_555
H13G C19G 1_555 1_555
C20G N2G 1_555 1_555
H14G C20G 1_555 1_555
C21G N2G 1_555 1_555
H15G C21G 1_555 1_555
C22G C16G 1_555 1_555
H16G C22G 1_555 1_555
C23G C13G 1_555 1_555
H17G C23G 1_555 1_555
C24G C13G 1_555 1_555
O5 Co1A 1_555 1_555
C6 C10 1_555 1_555
C11 C12 1_555 1_555
C13 C24 1_555 1_555
C17 C21 1_555 1_555
C22 C23 1_555 1_555
O2A C1A 1_555 1_555
C6A C10A 1_555 1_555
C11A C12A 1_555 1_555
C17G C21G 1_555 1_555
C19G C20G 1_555 1_555
C22G C23G 1_555 1_555

#END
