
#######################################################################
#
#                 Cambridge Crystallographic Data Centre
#                                CCDC 
#
#######################################################################
#
# If this CIF has been generated from an entry in the Cambridge 
# Structural Database, then it will include bibliographic, chemical, 
# crystal, experimental, refinement or atomic coordinate data resulting 
# from the CCDC's data processing and validation procedures.
#
#######################################################################

data_LUWZUZ02
_symmetry_cell_setting           monoclinic
_symmetry_space_group_name_H-M   'C 2/c'
_symmetry_Int_Tables_number      15
_space_group_name_Hall           '-C 2yn'
loop_
_symmetry_equiv_pos_site_id
_symmetry_equiv_pos_as_xyz
1 x,y,z
2 -x,y,1/2-z
3 1/2+x,1/2+y,z
4 1/2-x,1/2+y,1/2-z
5 -x,-y,-z
6 x,-y,1/2+z
7 1/2-x,1/2-y,-z
8 1/2+x,1/2-y,1/2+z
_cell_length_a                   11.8597(11)
_cell_length_b                   15.4517(15)
_cell_length_c                   21.521(2)
_cell_angle_alpha                90
_cell_angle_beta                 94.868(1)
_cell_angle_gamma                90
_cell_volume                     3929.55
loop_
_atom_site_label
_atom_site_type_symbol
_atom_site_fract_x
_atom_site_fract_y
_atom_site_fract_z
Co1 Co 0.36347(2) 0.178677(18) 0.284771(11)
C1 C 0.4632(2) 0.29172(15) 0.38654(9)
C2 C 0.49136(18) 0.28147(13) 0.45613(9)
C3 C 0.5973(2) 0.30661(14) 0.48183(10)
H1 H 0.6449 0.3377 0.4579
C4 C 0.63316(19) 0.28575(15) 0.54296(9)
H2 H 0.7046 0.3030 0.5596
C5 C 0.56391(18) 0.23956(14) 0.57961(9)
C6 C 0.45483(19) 0.21797(15) 0.55501(9)
H3 H 0.4058 0.1895 0.5797
C7 C 0.41953(19) 0.23893(15) 0.49376(9)
H4 H 0.3468 0.2243 0.4777
C8 C 0.60982(18) 0.21058(14) 0.64286(9)
C9 C 0.68541(18) 0.26266(14) 0.67871(9)
H5 H 0.7011 0.3171 0.6632
C10 C 0.7137(2) 0.16109(15) 0.75548(10)
H6 H 0.7490 0.1436 0.7937
C11 C 0.6396(2) 0.10485(17) 0.72354(11)
H7 H 0.6257 0.0506 0.7399
C12 C 0.5861(2) 0.13018(15) 0.66681(10)
H8 H 0.5348 0.0935 0.6450
C13 C 0.59193(17) 0.08483(13) 0.33368(9)
C14 C 0.64758(16) 0.04765(13) 0.39344(8)
C15 C 0.74706(18) 0.00016(13) 0.39547(9)
H9 H 0.7808 -0.0106 0.3588
C16 C 0.79693(18) -0.03153(13) 0.45150(9)
H10 H 0.8627 -0.0643 0.4519
C17 C 0.74896(17) -0.01451(13) 0.50721(9)
C18 C 0.65043(18) 0.03388(14) 0.50487(9)
H11 H 0.6180 0.0466 0.5417
C19 C 0.59938(18) 0.06355(14) 0.44872(9)
H12 H 0.5320 0.0945 0.4481
C20 C 0.79934(17) -0.04627(13) 0.56868(9)
C21 C 0.9133(2) -0.04295(18) 0.58724(12)
H13 H 0.9645 -0.0222 0.5604
C22 C 0.9504(2) -0.0711(2) 0.64663(12)
H14 H 1.0268 -0.0683 0.6604
C23 C 0.8736(2) -0.10308(17) 0.68493(10)
H15 H 0.8996 -0.1213 0.7248
C24 C 0.72884(18) -0.08040(14) 0.61042(9)
H16 H 0.6520 -0.0835 0.5978
O1 O 0.37187(13) 0.25757(11) 0.36360(6)
O2 O 0.53327(18) 0.32960(12) 0.35662(7)
O3 O 0.48970(12) 0.10406(11) 0.33349(7)
O4 O 0.65379(12) 0.09425(9) 0.28916(6)
O5 O 0.5000 0.25312(14) 0.2500
H17 H 0.514(2) 0.2859(16) 0.2818(10)
N1 N 0.73726(15) 0.23982(11) 0.73405(7)
N2 N 0.76289(15) -0.10927(12) 0.66755(7)
Co1G Co -0.13653(2) 0.321323(18) -0.215229(11)
Co1A Co 0.63653(2) 0.178677(18) 0.215229(11)
Co1G_2 Co 0.86347(2) 0.321323(18) 0.784771(11)
Co1D Co 0.63653(2) -0.178677(18) 0.715229(11)
Co1E Co 0.36347(2) -0.178677(18) -0.215229(11)
C1G C -0.0368(2) 0.20828(15) -0.11346(9)
C2G C -0.00864(18) 0.21853(13) -0.04387(9)
C3G C 0.0973(2) 0.19339(14) -0.01817(10)
H1G H 0.1449 0.1623 -0.0421
C4G C 0.13316(19) 0.21425(15) 0.04296(9)
H2G H 0.2046 0.1970 0.0596
C5G C 0.06391(18) 0.26044(14) 0.07961(9)
C6G C -0.04517(19) 0.28203(15) 0.05501(9)
H3G H -0.0942 0.3105 0.0797
C7G C -0.08047(19) 0.26107(15) -0.00624(9)
H4G H -0.1532 0.2757 -0.0223
C8G C 0.10982(18) 0.28942(14) 0.14286(9)
C9G C 0.18541(18) 0.23734(14) 0.17871(9)
H5G H 0.2011 0.1829 0.1632
C10G C 0.2137(2) 0.33891(15) 0.25548(10)
H6G H 0.2490 0.3564 0.2937
C11G C 0.1396(2) 0.39515(17) 0.22354(11)
H7G H 0.1257 0.4494 0.2399
C12G C 0.0861(2) 0.36982(15) 0.16681(10)
H8G H 0.0348 0.4065 0.1450
C13A C 0.40807(17) 0.08483(13) 0.16632(9)
C14A C 0.35242(16) 0.04765(13) 0.10656(8)
C15A C 0.25294(18) 0.00016(13) 0.10453(9)
H9A H 0.2192 -0.0106 0.1412
C16A C 0.20307(18) -0.03153(13) 0.04850(9)
H10A H 0.1373 -0.0643 0.0481
C17A C 0.25104(17) -0.01451(13) -0.00721(9)
C18A C 0.34957(18) 0.03388(14) -0.00487(9)
H11A H 0.3820 0.0466 -0.0417
C19A C 0.40062(18) 0.06355(14) 0.05128(9)
H12A H 0.4680 0.0945 0.0519
C20A C 0.20066(17) -0.04627(13) -0.06868(9)
C21A C 0.0867(2) -0.04295(18) -0.08724(12)
H13A H 0.0355 -0.0222 -0.0604
C22A C 0.0496(2) -0.0711(2) -0.14663(12)
H14A H -0.0268 -0.0683 -0.1604
C23A C 0.1264(2) -0.10308(17) -0.18493(10)
H15A H 0.1004 -0.1213 -0.2248
C24A C 0.27116(18) -0.08040(14) -0.11042(9)
H16A H 0.3480 -0.0835 -0.0978
O1G O -0.12813(13) 0.24243(11) -0.13640(6)
O2G O 0.03327(18) 0.17040(12) -0.14338(7)
O3A O 0.51030(12) 0.10406(11) 0.16651(7)
O3G O -0.01030(12) 0.39594(11) -0.16651(7)
O4A O 0.34621(12) 0.09425(9) 0.21084(6)
O4F O -0.15379(12) 0.40575(9) -0.28916(6)
O5F O 0.0000 0.24688(14) -0.2500
H17A H 0.486(2) 0.2859(16) 0.2182(10)
H17G H 0.014(2) 0.2141(16) -0.2182(10)
H17F H -0.014(2) 0.2141(16) -0.2818(10)
N1G N 0.23726(15) 0.26018(11) 0.23405(7)
N1_2 N -0.26274(15) 0.23982(11) -0.26595(7)
N2A N 0.23711(15) -0.10927(12) -0.16755(7)
N2D N 0.23711(15) 0.10927(12) 0.33245(7)
N2C N -0.26289(15) 0.39073(12) -0.16755(7)
loop_
_geom_bond_atom_site_label_1
_geom_bond_atom_site_label_2
_geom_bond_site_symmetry_1
_geom_bond_site_symmetry_2
Co1 O1 1_555 1_555
C1 C2 1_555 1_555
C2 C3 1_555 1_555
C3 H1 1_555 1_555
C4 C3 1_555 1_555
H2 C4 1_555 1_555
C5 C4 1_555 1_555
C6 C5 1_555 1_555
H3 C6 1_555 1_555
C7 C2 1_555 1_555
H4 C7 1_555 1_555
C8 C5 1_555 1_555
C9 C8 1_555 1_555
H5 C9 1_555 1_555
C10 H6 1_555 1_555
C11 C10 1_555 1_555
H7 C11 1_555 1_555
C12 C8 1_555 1_555
H8 C12 1_555 1_555
C13 C14 1_555 1_555
C14 C15 1_555 1_555
C15 H9 1_555 1_555
C16 C15 1_555 1_555
H10 C16 1_555 1_555
C17 C16 1_555 1_555
C18 C17 1_555 1_555
H11 C18 1_555 1_555
C19 C14 1_555 1_555
H12 C19 1_555 1_555
C20 C17 1_555 1_555
C21 C20 1_555 1_555
H13 C21 1_555 1_555
C22 C21 1_555 1_555
H14 C22 1_555 1_555
C23 C22 1_555 1_555
H15 C23 1_555 1_555
C24 C20 1_555 1_555
H16 C24 1_555 1_555
O1 C1 1_555 1_555
O2 C1 1_555 1_555
O3 Co1 1_555 1_555
O4 C13 1_555 1_555
O5 Co1 1_555 1_555
H17 O5 1_555 1_555
N1 C9 1_555 1_555
N2 C23 1_555 1_555
Co1G O1G 1_555 1_555
Co1A O4 1_555 1_555
Co1G_2 N1 1_555 1_555
Co1D N2 1_555 1_555
Co1E N2A 1_555 1_555
C1G C2G 1_555 1_555
C2G C3G 1_555 1_555
C3G H1G 1_555 1_555
C4G C3G 1_555 1_555
H2G C4G 1_555 1_555
C5G C4G 1_555 1_555
C6G C5G 1_555 1_555
H3G C6G 1_555 1_555
C7G C2G 1_555 1_555
H4G C7G 1_555 1_555
C8G C5G 1_555 1_555
C9G C8G 1_555 1_555
H5G C9G 1_555 1_555
C10G H6G 1_555 1_555
C11G C10G 1_555 1_555
H7G C11G 1_555 1_555
C12G C8G 1_555 1_555
H8G C12G 1_555 1_555
C13A C14A 1_555 1_555
C14A C15A 1_555 1_555
C15A H9A 1_555 1_555
C16A C15A 1_555 1_555
H10A C16A 1_555 1_555
C17A C16A 1_555 1_555
C18A C17A 1_555 1_555
H11A C18A 1_555 1_555
C19A C14A 1_555 1_555
H12A C19A 1_555 1_555
C20A C17A 1_555 1_555
C21A C20A 1_555 1_555
H13A C21A 1_555 1_555
C22A C21A 1_555 1_555
H14A C22A 1_555 1_555
C23A C22A 1_555 1_555
H15A C23A 1_555 1_555
C24A C20A 1_555 1_555
H16A C24A 1_555 1_555
O1G C1G 1_555 1_555
O2G C1G 1_555 1_555
O3A Co1A 1_555 1_555
O3G Co1G 1_555 1_555
O4A Co1 1_555 1_555
O4F Co1G 1_555 1_555
O5F Co1G 1_555 1_555
H17A O5 1_555 1_555
H17G O5F 1_555 1_555
H17F O5F 1_555 1_555
N1G Co1 1_555 1_555
N1_2 Co1G 1_555 1_555
N2A C23A 1_555 1_555
N2D Co1 1_555 1_555
N2C Co1G 1_555 1_555
C6 C7 1_555 1_555
C10 N1 1_555 1_555
C11 C12 1_555 1_555
C13 O3 1_555 1_555
C18 C19 1_555 1_555
C24 N2 1_555 1_555
O5 Co1A 1_555 1_555
C6G C7G 1_555 1_555
C9G N1G 1_555 1_555
C10G N1G 1_555 1_555
C11G C12G 1_555 1_555
C13A O3A 1_555 1_555
C13A O4A 1_555 1_555
C18A C19A 1_555 1_555
C24A N2A 1_555 1_555

#END
