
#######################################################################
#
#                 Cambridge Crystallographic Data Centre
#                                CCDC 
#
#######################################################################
#
# If this CIF has been generated from an entry in the Cambridge 
# Structural Database, then it will include bibliographic, chemical, 
# crystal, experimental, refinement or atomic coordinate data resulting 
# from the CCDC's data processing and validation procedures.
#
#######################################################################

data_LUWZUZ
_symmetry_cell_setting           monoclinic
_symmetry_space_group_name_H-M   'C 2/c'
_symmetry_Int_Tables_number      15
_space_group_name_Hall           '-C 2yn'
loop_
_symmetry_equiv_pos_site_id
_symmetry_equiv_pos_as_xyz
1 x,y,z
2 -x,y,1/2-z
3 1/2+x,1/2+y,z
4 1/2-x,1/2+y,1/2-z
5 -x,-y,-z
6 x,-y,1/2+z
7 1/2-x,1/2-y,-z
8 1/2+x,1/2-y,1/2+z
_cell_length_a                   11.858(5)
_cell_length_b                   15.441(5)
_cell_length_c                   21.515(5)
_cell_angle_alpha                90
_cell_angle_beta                 94.823(5)
_cell_angle_gamma                90
_cell_volume                     3925.43
loop_
_atom_site_label
_atom_site_type_symbol
_atom_site_fract_x
_atom_site_fract_y
_atom_site_fract_z
Co1 Co 0.63657(3) 0.17863(3) 0.715160(17)
O1 O 0.65378(17) 0.09406(14) 0.78898(9)
O2 O 0.48966(18) 0.10440(16) 0.83344(10)
O3 O 0.5000 0.2532(2) 0.7500
H1 H 0.4820 0.2827 0.7187
C1 C 0.7992(3) -0.0464(2) 1.06847(13)
N1 N 0.7627(2) -0.10898(17) 1.16732(11)
O4 O 0.4670(2) 0.32995(18) 0.64342(10)
C2 C 0.7492(2) -0.0148(2) 1.00724(13)
O5 O 0.62826(19) 0.25756(15) 0.63644(9)
C3 C 0.6479(2) 0.04749(19) 0.89311(13)
C4 C 0.3905(3) 0.2109(2) 0.35711(14)
N2 N 0.2627(2) 0.23986(18) 0.26591(11)
C5 C 0.7471(3) -0.0001(2) 0.89534(13)
H2 H 0.7809 -0.0112 0.8587
C6 C 0.5086(3) 0.2817(2) 0.54390(14)
C7 C 0.5918(3) 0.0853(2) 0.83343(13)
C8 C 0.3670(3) 0.2858(2) 0.45720(14)
H3 H 0.2956 0.3031 0.4407
C9 C 0.6502(3) 0.0339(2) 1.00478(14)
H4 H 0.6176 0.0465 1.0416
C10 C 0.4359(3) 0.2396(2) 0.42024(14)
C11 C 0.7290(3) -0.0804(2) 1.11058(13)
H5 H 0.6521 -0.0835 1.0981
C12 C 0.5994(3) 0.0638(2) 0.94890(13)
H6 H 0.5323 0.0951 0.9483
C13 C 0.8732(3) -0.1034(2) 1.18469(15)
H7 H 0.8993 -0.1221 1.2244
C14 C 0.3147(3) 0.2627(2) 0.32107(14)
H8 H 0.2989 0.3172 0.3364
C15 C 0.4140(3) 0.1306(2) 0.33305(15)
H9 H 0.4655 0.0939 0.3548
C16 C 0.4027(3) 0.3067(2) 0.51854(14)
H10 H 0.3551 0.3376 0.5426
C17 C 0.2860(3) 0.1612(2) 0.24473(15)
H11 H 0.2503 0.1435 0.2067
C18 C 0.3606(3) 0.1051(2) 0.27654(16)
H12 H 0.3747 0.0508 0.2602
C19 C 0.7966(3) -0.0313(2) 0.95160(13)
H13 H 0.8627 -0.0639 0.9521
C20 C 0.5370(3) 0.2919(2) 0.61317(15)
C21 C 0.9130(3) -0.0430(2) 1.08731(16)
H14 H 0.9643 -0.0218 1.0606
C22 C 0.9497(3) -0.0712(3) 1.14619(18)
H15 H 1.0261 -0.0685 1.1599
C23 C 0.5802(3) 0.2388(2) 0.50621(14)
H16 H 0.6529 0.2239 0.5222
C24 C 0.5444(3) 0.2181(2) 0.44506(14)
H17 H 0.5933 0.1896 0.4204
Co1A Co 0.36343(3) 0.17863(3) 0.784840(17)
Co1E Co 0.63657(3) -0.17863(3) 1.215160(17)
Co1G Co 0.13657(3) 0.32137(3) 0.215160(17)
Co1D Co 0.36343(3) -0.17863(3) 0.284840(17)
Co1G_2 Co 1.13657(3) 0.32137(3) 1.215160(17)
O1A O 0.34622(17) 0.09406(14) 0.71102(9)
O2A O 0.51034(18) 0.10440(16) 0.66656(10)
H1A H 0.5180 0.2827 0.7813
C1A C 0.2008(3) -0.0464(2) 0.43153(13)
N1A N 0.2373(2) -0.10898(17) 0.33268(11)
N1E N 0.7627(2) 0.10898(17) 0.66732(11)
N1D N 0.2373(2) 0.10898(17) 0.83268(11)
O4G O 0.9670(2) 0.17005(18) 1.14342(10)
C2A C 0.2508(2) -0.0148(2) 0.49276(13)
O5G O 1.12826(19) 0.24244(15) 1.13644(9)
O5A O 0.37174(19) 0.25756(15) 0.86356(9)
C3A C 0.3521(2) 0.04749(19) 0.60689(13)
C4G C 0.8905(3) 0.2891(2) 0.85711(14)
N2G N 0.7627(2) 0.26014(18) 0.76591(11)
N2F N 0.2373(2) 0.26014(18) 0.73409(11)
C5A C 0.2529(3) -0.0001(2) 0.60466(13)
H2A H 0.2191 -0.0112 0.6413
C6G C 1.0086(3) 0.2183(2) 1.04390(14)
C7A C 0.4082(3) 0.0853(2) 0.66657(13)
C8G C 0.8670(3) 0.2142(2) 0.95720(14)
H3G H 0.7956 0.1969 0.9407
C9A C 0.3498(3) 0.0339(2) 0.49522(14)
H4A H 0.3824 0.0465 0.4584
C10G C 0.9359(3) 0.2604(2) 0.92024(14)
C11A C 0.2710(3) -0.0804(2) 0.38942(13)
H5A H 0.3479 -0.0835 0.4019
C12A C 0.4006(3) 0.0638(2) 0.55110(13)
H6A H 0.4677 0.0951 0.5517
C13A C 0.1268(3) -0.1034(2) 0.31531(15)
H7A H 0.1007 -0.1221 0.2756
C14G C 0.8147(3) 0.2373(2) 0.82107(14)
H8G H 0.7989 0.1828 0.8364
C15G C 0.9140(3) 0.3694(2) 0.83305(15)
H9G H 0.9655 0.4061 0.8548
C16G C 0.9027(3) 0.1933(2) 1.01854(14)
H10G H 0.8551 0.1624 1.0426
C17G C 0.7860(3) 0.3388(2) 0.74473(15)
H11G H 0.7503 0.3565 0.7067
C18G C 0.8606(3) 0.3949(2) 0.77654(16)
H12G H 0.8747 0.4492 0.7602
C19A C 0.2034(3) -0.0313(2) 0.54840(13)
H13A H 0.1373 -0.0639 0.5479
C20G C 1.0370(3) 0.2081(2) 1.11317(15)
C21A C 0.0870(3) -0.0430(2) 0.41269(16)
H14A H 0.0357 -0.0218 0.4394
C22A C 0.0503(3) -0.0712(3) 0.35381(18)
H15A H -0.0261 -0.0685 0.3401
C23G C 1.0802(3) 0.2612(2) 1.00621(14)
H16G H 1.1529 0.2761 1.0222
C24G C 1.0444(3) 0.2819(2) 0.94506(14)
H17G H 1.0933 0.3104 0.9204
loop_
_geom_bond_atom_site_label_1
_geom_bond_atom_site_label_2
_geom_bond_site_symmetry_1
_geom_bond_site_symmetry_2
Co1 O1 1_555 1_555
O1 C7 1_555 1_555
O2 C7 1_555 1_555
O3 Co1 1_555 1_555
H1 O3 1_555 1_555
C1 C2 1_555 1_555
N1 C11 1_555 1_555
O4 C20 1_555 1_555
C2 C9 1_555 1_555
O5 Co1 1_555 1_555
C3 C5 1_555 1_555
C4 C10 1_555 1_555
N2 C14 1_555 1_555
C5 H2 1_555 1_555
C6 C16 1_555 1_555
C7 C3 1_555 1_555
C8 H3 1_555 1_555
C9 H4 1_555 1_555
C10 C8 1_555 1_555
C11 C1 1_555 1_555
H5 C11 1_555 1_555
C12 C3 1_555 1_555
H6 C12 1_555 1_555
C13 N1 1_555 1_555
H7 C13 1_555 1_555
C14 C4 1_555 1_555
H8 C14 1_555 1_555
C15 C4 1_555 1_555
H9 C15 1_555 1_555
C16 C8 1_555 1_555
H10 C16 1_555 1_555
C17 N2 1_555 1_555
H11 C17 1_555 1_555
C18 C15 1_555 1_555
H12 C18 1_555 1_555
C19 C2 1_555 1_555
H13 C19 1_555 1_555
C20 O5 1_555 1_555
C21 C1 1_555 1_555
H14 C21 1_555 1_555
C22 C13 1_555 1_555
H15 C22 1_555 1_555
C23 C6 1_555 1_555
H16 C23 1_555 1_555
C24 C10 1_555 1_555
H17 C24 1_555 1_555
Co1A O2 1_555 1_555
Co1E N1 1_555 1_555
Co1G N2 1_555 1_555
Co1D N1A 1_555 1_555
Co1G_2 O5G 1_555 1_555
O1A Co1A 1_555 1_555
O2A Co1 1_555 1_555
H1A O3 1_555 1_555
C1A C2A 1_555 1_555
N1A C11A 1_555 1_555
N1E Co1 1_555 1_555
N1D Co1A 1_555 1_555
O4G C20G 1_555 1_555
C2A C9A 1_555 1_555
O5G C20G 1_555 1_555
O5A Co1A 1_555 1_555
C3A C5A 1_555 1_555
C4G C10G 1_555 1_555
N2G Co1 1_555 1_555
N2F Co1A 1_555 1_555
C5A H2A 1_555 1_555
C6G C16G 1_555 1_555
C7A O1A 1_555 1_555
C8G H3G 1_555 1_555
C9A H4A 1_555 1_555
C10G C8G 1_555 1_555
C11A C1A 1_555 1_555
H5A C11A 1_555 1_555
C12A C3A 1_555 1_555
H6A C12A 1_555 1_555
C13A N1A 1_555 1_555
H7A C13A 1_555 1_555
C14G C4G 1_555 1_555
H8G C14G 1_555 1_555
C15G C4G 1_555 1_555
H9G C15G 1_555 1_555
C16G C8G 1_555 1_555
H10G C16G 1_555 1_555
C17G N2G 1_555 1_555
H11G C17G 1_555 1_555
C18G C15G 1_555 1_555
H12G C18G 1_555 1_555
C19A C2A 1_555 1_555
H13A C19A 1_555 1_555
C20G C6G 1_555 1_555
C21A C1A 1_555 1_555
H14A C21A 1_555 1_555
C22A C13A 1_555 1_555
H15A C22A 1_555 1_555
C23G C6G 1_555 1_555
H16G C23G 1_555 1_555
C24G C10G 1_555 1_555
H17G C24G 1_555 1_555
O3 Co1A 1_555 1_555
C5 C19 1_555 1_555
C6 C20 1_555 1_555
C9 C12 1_555 1_555
C17 C18 1_555 1_555
C21 C22 1_555 1_555
C23 C24 1_555 1_555
O2A C7A 1_555 1_555
C3A C7A 1_555 1_555
N2G C14G 1_555 1_555
C5A C19A 1_555 1_555
C9A C12A 1_555 1_555
C17G C18G 1_555 1_555
C21A C22A 1_555 1_555
C23G C24G 1_555 1_555

#END
