
#######################################################################
#
#                 Cambridge Crystallographic Data Centre
#                                CCDC 
#
#######################################################################
#
# If this CIF has been generated from an entry in the Cambridge 
# Structural Database, then it will include bibliographic, chemical, 
# crystal, experimental, refinement or atomic coordinate data resulting 
# from the CCDC's data processing and validation procedures.
#
#######################################################################

data_LUXDEO
_symmetry_cell_setting           tetragonal
_symmetry_space_group_name_H-M   'P 43 21 2'
_symmetry_Int_Tables_number      96
_space_group_name_Hall           'P 4nw 2abw'
loop_
_symmetry_equiv_pos_site_id
_symmetry_equiv_pos_as_xyz
1 x,y,z
2 -x,-y,1/2+z
3 1/2-y,1/2+x,3/4+z
4 1/2+y,1/2-x,1/4+z
5 1/2-x,1/2+y,3/4-z
6 1/2+x,1/2-y,1/4-z
7 y,x,-z
8 -y,-x,1/2-z
_cell_length_a                   12.3808(4)
_cell_length_b                   12.3808(4)
_cell_length_c                   32.558(2)
_cell_angle_alpha                90
_cell_angle_beta                 90
_cell_angle_gamma                90
_cell_volume                     4990.63
loop_
_atom_site_label
_atom_site_type_symbol
_atom_site_fract_x
_atom_site_fract_y
_atom_site_fract_z
Ag1 Ag 0.50714(3) 0.77499(3) 0.395571(12)
C1 C 0.2676(5) 0.7686(5) 0.59304(17)
C2 C 0.3674(5) 0.9218(5) 0.56386(19)
H1 H 0.3483 0.9918 0.5511
H2 H 0.4242 0.8874 0.5469
C3 C 0.4455(5) 0.8334(5) 0.6203(2)
H3 H 0.4772 0.8394 0.6481
H4 H 0.5007 0.8036 0.6014
C4 C 0.6650(5) 0.3605(4) 0.35444(18)
H5 H 0.6381 0.2881 0.3466
H6 H 0.6821 0.4005 0.3289
C5 C 0.5782(5) 0.4197(5) 0.37767(19)
C6 C 0.5701(5) 0.5311(4) 0.37514(15)
H7 H 0.6163 0.5667 0.3562
C7 C 0.4372(5) 0.5442(5) 0.42368(15)
C8 C 0.4385(5) 0.4328(5) 0.42912(19)
H8 H 0.3928 0.3995 0.4489
C9 C 0.5094(5) 0.3695(5) 0.40457(19)
H9 H 0.5091 0.2930 0.4068
C10 C 0.3706(5) 0.6159(5) 0.44974(15)
C11 C 0.3288(6) 0.7900(5) 0.46882(18)
H10 H 0.3387 0.8653 0.4647
C12 C 0.2580(5) 0.7583(5) 0.49917(16)
C13 C 0.2427(5) 0.6482(5) 0.50309(19)
H11 H 0.1937 0.6216 0.5231
C14 C 0.2960(5) 0.5781(5) 0.47899(16)
H12 H 0.2833 0.5027 0.4817
C15 C 0.2100(5) 0.8424(5) 0.52834(17)
H13 H 0.2078 0.9134 0.5144
H14 H 0.1349 0.8217 0.5352
C16 C 0.5007(5) 1.0250(6) 0.6075(2)
C17 C 0.5909(7) 1.0019(6) 0.5753(4)
H15 H 0.6252 0.9325 0.5815
H16 H 0.6452 1.0595 0.5764
H17 H 0.5591 0.9993 0.5477
C18 C 0.4460(6) 1.1346(6) 0.5983(3)
H18 H 0.4989 1.1929 0.6014
H19 H 0.3863 1.1460 0.6176
H20 H 0.4180 1.1345 0.5702
C19 C 0.5446(6) 1.0274(6) 0.6517(2)
H21 H 0.5870 0.9619 0.6569
H22 H 0.4841 1.0307 0.6711
H23 H 0.5906 1.0911 0.6553
N1 N 0.2717(4) 0.8518(4) 0.56546(13)
N2 N 0.4083(4) 0.9401(4) 0.60572(16)
N3 N 0.3486(4) 0.7633(4) 0.62099(14)
N4 N 0.5031(4) 0.5926(4) 0.39702(12)
N5 N 0.3843(4) 0.7231(4) 0.44491(14)
O1 O 0.1929(3) 0.7047(3) 0.59330(12)
Ag1F Ag 0.77499(3) 0.50714(3) 0.604429(12)
Ag1C Ag 0.27499(3) 0.99286(3) 0.645571(12)
Ag1D Ag 0.99286(3) 0.27499(3) 0.354429(12)
C1F C 0.7686(5) 0.2676(5) 0.40696(17)
C2F C 0.9218(5) 0.3674(5) 0.43614(19)
H1F H 0.9918 0.3483 0.4489
H2F H 0.8874 0.4242 0.4531
C3F C 0.8334(5) 0.4455(5) 0.3797(2)
H3F H 0.8394 0.4772 0.3519
H4F H 0.8036 0.5007 0.3986
C4F C 0.3605(4) 0.6650(5) 0.64556(18)
H5F H 0.2881 0.6381 0.6534
H6F H 0.4005 0.6821 0.6711
C5F C 0.4197(5) 0.5782(5) 0.62233(19)
C6F C 0.5311(4) 0.5701(5) 0.62486(15)
H7F H 0.5667 0.6163 0.6438
C7F C 0.5442(5) 0.4372(5) 0.57632(15)
C8F C 0.4328(5) 0.4385(5) 0.57088(19)
H8F H 0.3995 0.3928 0.5511
C9F C 0.3695(5) 0.5094(5) 0.59543(19)
H9F H 0.2930 0.5091 0.5932
C10F C 0.6159(5) 0.3706(5) 0.55026(15)
C11F C 0.7900(5) 0.3288(6) 0.53118(18)
H10F H 0.8653 0.3387 0.5353
C12F C 0.7583(5) 0.2580(5) 0.50083(16)
C13F C 0.6482(5) 0.2427(5) 0.49691(19)
H11F H 0.6216 0.1937 0.4769
C14F C 0.5781(5) 0.2960(5) 0.52101(16)
H12F H 0.5027 0.2833 0.5183
C15F C 0.8424(5) 0.2100(5) 0.47166(17)
H13F H 0.9134 0.2078 0.4856
H14F H 0.8217 0.1349 0.4648
C16F C 1.0250(6) 0.5007(5) 0.3925(2)
C17F C 1.0019(6) 0.5909(7) 0.4247(4)
H15F H 0.9325 0.6252 0.4185
H16F H 1.0595 0.6452 0.4236
H17F H 0.9993 0.5591 0.4523
C18F C 1.1346(6) 0.4460(6) 0.4017(3)
H18F H 1.1929 0.4989 0.3986
H19F H 1.1460 0.3863 0.3824
H20F H 1.1345 0.4180 0.4298
C19F C 1.0274(6) 0.5446(6) 0.3483(2)
H21F H 0.9619 0.5870 0.3431
H22F H 1.0307 0.4841 0.3289
H23F H 1.0911 0.5906 0.3447
N1F N 0.8518(4) 0.2717(4) 0.43454(13)
N2F N 0.9401(4) 0.4083(4) 0.39428(16)
N2B N 0.5599(4) 0.9083(4) 0.35572(16)
N2E N 0.9083(4) 0.5599(4) 0.64428(16)
N3F N 0.7633(4) 0.3486(4) 0.37901(14)
N4F N 0.5926(4) 0.5031(4) 0.60298(12)
N5F N 0.7231(4) 0.3843(4) 0.55509(14)
O1F O 0.7047(3) 0.1929(3) 0.40670(12)
loop_
_geom_bond_atom_site_label_1
_geom_bond_atom_site_label_2
_geom_bond_site_symmetry_1
_geom_bond_site_symmetry_2
Ag1 N4 1_555 1_555
C1 N1 1_555 1_555
C2 H1 1_555 1_555
H2 C2 1_555 1_555
C3 H3 1_555 1_555
H4 C3 1_555 1_555
C4 H5 1_555 1_555
H6 C4 1_555 1_555
C5 C4 1_555 1_555
C6 C5 1_555 1_555
H7 C6 1_555 1_555
C7 C8 1_555 1_555
C8 H8 1_555 1_555
C9 C5 1_555 1_555
H9 C9 1_555 1_555
C10 C7 1_555 1_555
C11 H10 1_555 1_555
C12 C11 1_555 1_555
C13 C12 1_555 1_555
H11 C13 1_555 1_555
C14 C10 1_555 1_555
H12 C14 1_555 1_555
C15 C12 1_555 1_555
H13 C15 1_555 1_555
H14 C15 1_555 1_555
C16 C17 1_555 1_555
C17 H15 1_555 1_555
H16 C17 1_555 1_555
H17 C17 1_555 1_555
C18 C16 1_555 1_555
H18 C18 1_555 1_555
H19 C18 1_555 1_555
H20 C18 1_555 1_555
C19 C16 1_555 1_555
H21 C19 1_555 1_555
H22 C19 1_555 1_555
H23 C19 1_555 1_555
N1 C2 1_555 1_555
N2 C2 1_555 1_555
N3 C1 1_555 1_555
N4 C6 1_555 1_555
N5 Ag1 1_555 1_555
O1 C1 1_555 1_555
Ag1F N2E 1_555 1_555
Ag1C N2 1_555 1_555
Ag1D N2F 1_555 1_555
C1F N1F 1_555 1_555
C2F H1F 1_555 1_555
H2F C2F 1_555 1_555
C3F H3F 1_555 1_555
H4F C3F 1_555 1_555
C4F N3 1_555 1_555
H5F C4F 1_555 1_555
H6F C4F 1_555 1_555
C5F C4F 1_555 1_555
C6F C5F 1_555 1_555
H7F C6F 1_555 1_555
C7F C8F 1_555 1_555
C8F H8F 1_555 1_555
C9F C5F 1_555 1_555
H9F C9F 1_555 1_555
C10F C7F 1_555 1_555
C11F H10F 1_555 1_555
C12F C11F 1_555 1_555
C13F C12F 1_555 1_555
H11F C13F 1_555 1_555
C14F C10F 1_555 1_555
H12F C14F 1_555 1_555
C15F C12F 1_555 1_555
H13F C15F 1_555 1_555
H14F C15F 1_555 1_555
C16F C17F 1_555 1_555
C17F H15F 1_555 1_555
H16F C17F 1_555 1_555
H17F C17F 1_555 1_555
C18F C16F 1_555 1_555
H18F C18F 1_555 1_555
H19F C18F 1_555 1_555
H20F C18F 1_555 1_555
C19F C16F 1_555 1_555
H21F C19F 1_555 1_555
H22F C19F 1_555 1_555
H23F C19F 1_555 1_555
N1F C2F 1_555 1_555
N2F C2F 1_555 1_555
N2B Ag1 1_555 1_555
N3F C4 1_555 1_555
N4F Ag1F 1_555 1_555
N5F Ag1F 1_555 1_555
O1F C1F 1_555 1_555
C3 N2 1_555 1_555
C3 N3 1_555 1_555
C7 N4 1_555 1_555
C8 C9 1_555 1_555
C10 N5 1_555 1_555
C11 N5 1_555 1_555
C13 C14 1_555 1_555
C15 N1 1_555 1_555
C16 N2 1_555 1_555
C1F N3F 1_555 1_555
C3F N2F 1_555 1_555
C3F N3F 1_555 1_555
C6F N4F 1_555 1_555
C7F N4F 1_555 1_555
C8F C9F 1_555 1_555
C10F N5F 1_555 1_555
C11F N5F 1_555 1_555
C13F C14F 1_555 1_555
C15F N1F 1_555 1_555
C16F N2F 1_555 1_555

#END
