
#######################################################################
#
#                 Cambridge Crystallographic Data Centre
#                                CCDC 
#
#######################################################################
#
# If this CIF has been generated from an entry in the Cambridge 
# Structural Database, then it will include bibliographic, chemical, 
# crystal, experimental, refinement or atomic coordinate data resulting 
# from the CCDC's data processing and validation procedures.
#
#######################################################################

data_LUXDUE
_symmetry_cell_setting           cubic
_symmetry_space_group_name_H-M   'F m -3'
_symmetry_Int_Tables_number      202
_space_group_name_Hall           '-F 2 2 3'
loop_
_symmetry_equiv_pos_site_id
_symmetry_equiv_pos_as_xyz
1 x,y,z
2 -x,-y,z
3 -x,y,-z
4 x,-y,-z
5 z,x,y
6 z,-x,-y
7 -z,-x,y
8 -z,x,-y
9 y,z,x
10 -y,z,-x
11 y,-z,-x
12 -y,-z,x
13 x,1/2+y,1/2+z
14 -x,1/2-y,1/2+z
15 -x,1/2+y,1/2-z
16 x,1/2-y,1/2-z
17 z,1/2+x,1/2+y
18 z,1/2-x,1/2-y
19 -z,1/2-x,1/2+y
20 -z,1/2+x,1/2-y
21 y,1/2+z,1/2+x
22 -y,1/2+z,1/2-x
23 y,1/2-z,1/2-x
24 -y,1/2-z,1/2+x
25 1/2+x,y,1/2+z
26 1/2-x,-y,1/2+z
27 1/2-x,y,1/2-z
28 1/2+x,-y,1/2-z
29 1/2+z,x,1/2+y
30 1/2+z,-x,1/2-y
31 1/2-z,-x,1/2+y
32 1/2-z,x,1/2-y
33 1/2+y,z,1/2+x
34 1/2-y,z,1/2-x
35 1/2+y,-z,1/2-x
36 1/2-y,-z,1/2+x
37 1/2+x,1/2+y,z
38 1/2-x,1/2-y,z
39 1/2-x,1/2+y,-z
40 1/2+x,1/2-y,-z
41 1/2+z,1/2+x,y
42 1/2+z,1/2-x,-y
43 1/2-z,1/2-x,y
44 1/2-z,1/2+x,-y
45 1/2+y,1/2+z,x
46 1/2-y,1/2+z,-x
47 1/2+y,1/2-z,-x
48 1/2-y,1/2-z,x
49 -x,-y,-z
50 x,y,-z
51 x,-y,z
52 -x,y,z
53 -z,-x,-y
54 -z,x,y
55 z,x,-y
56 z,-x,y
57 -y,-z,-x
58 y,-z,x
59 -y,z,x
60 y,z,-x
61 -x,1/2-y,1/2-z
62 x,1/2+y,1/2-z
63 x,1/2-y,1/2+z
64 -x,1/2+y,1/2+z
65 -z,1/2-x,1/2-y
66 -z,1/2+x,1/2+y
67 z,1/2+x,1/2-y
68 z,1/2-x,1/2+y
69 -y,1/2-z,1/2-x
70 y,1/2-z,1/2+x
71 -y,1/2+z,1/2+x
72 y,1/2+z,1/2-x
73 1/2-x,-y,1/2-z
74 1/2+x,y,1/2-z
75 1/2+x,-y,1/2+z
76 1/2-x,y,1/2+z
77 1/2-z,-x,1/2-y
78 1/2-z,x,1/2+y
79 1/2+z,x,1/2-y
80 1/2+z,-x,1/2+y
81 1/2-y,-z,1/2-x
82 1/2+y,-z,1/2+x
83 1/2-y,z,1/2+x
84 1/2+y,z,1/2-x
85 1/2-x,1/2-y,-z
86 1/2+x,1/2+y,-z
87 1/2+x,1/2-y,z
88 1/2-x,1/2+y,z
89 1/2-z,1/2-x,-y
90 1/2-z,1/2+x,y
91 1/2+z,1/2+x,-y
92 1/2+z,1/2-x,y
93 1/2-y,1/2-z,-x
94 1/2+y,1/2-z,x
95 1/2-y,1/2+z,x
96 1/2+y,1/2+z,-x
_cell_length_a                   25.976(5)
_cell_length_b                   25.976(5)
_cell_length_c                   25.976(5)
_cell_angle_alpha                90
_cell_angle_beta                 90
_cell_angle_gamma                90
_cell_volume                     17527.4
loop_
_atom_site_label
_atom_site_type_symbol
_atom_site_fract_x
_atom_site_fract_y
_atom_site_fract_z
O1 O 0.0000 0.5000 0.5000
O2 O 0.061(10) 0.5000 1.0000
O3 O 0.3488(3) 0.6116(2) 0.7990(3)
Zn1 Zn 0.37885(3) 0.62115(3) 0.87885(3)
Zn2 Zn 0.2500 0.5000 0.7500
N2 N 0.3689(3) 0.5430(3) 0.8717(3)
C2 C 0.3790 0.5000(5) 0.8977(5)
H3 H 0.3922 0.5000 0.9319
C3 C 0.3484(3) 0.5266(4) 0.8260(3)
C4 C 0.3344(4) 0.5675(4) 0.7902(4)
O4 O 0.3077(3) 0.5552(3) 0.7526(4)
O5 O 0.2336(7) 0.5000 0.8287(7)
O3XA O 0.3488(3) 0.3884(2) 0.7990(3)
O3Z O 0.1512(3) 0.6116(2) 0.7010(3)
O3TB O 0.1512(3) 0.3884(2) 0.7010(3)
O3W O 0.3884(2) 0.7010(3) 0.8488(3)
O3QB O 0.6116(2) 0.7010(3) 0.8488(3)
O3CA O 0.2990(3) 0.6512(3) 0.8884(2)
O3AC O 0.2990(3) 0.6512(3) 1.1116(2)
O3RB O 0.3884(2) 0.2990(3) 0.8488(3)
O3T O 0.6116(2) 0.2990(3) 0.8488(3)
O3ZB O 0.2990(3) 0.3488(3) 0.8884(2)
O3BA O 0.2990(3) 0.3488(3) 1.1116(2)
O3TA O 0.1116(2) 0.7010(3) 0.6512(3)
O3NC O -0.1116(2) 0.7010(3) 0.6512(3)
O3F O 0.2010(3) 0.6512(3) 0.6116(2)
O3ZA O 0.2010(3) 0.6512(3) 0.3884(2)
O3QC O 0.1116(2) 0.2990(3) 0.6512(3)
O3SA O -0.1116(2) 0.2990(3) 0.6512(3)
O3AB O 0.2010(3) 0.3488(3) 0.6116(2)
O3G O 0.2010(3) 0.3488(3) 0.3884(2)
O3I O 0.3884(2) 0.7990(3) 0.6512(3)
O3GB O 0.6116(2) 0.7990(3) 0.6512(3)
O3S O 0.2010(3) 0.8488(3) 0.8884(2)
O3MB O 0.2010(3) 0.8488(3) 1.1116(2)
O3XB O 0.7010(3) 0.6512(3) 0.8884(2)
O3YA O 0.6512(3) 0.6116(2) 0.7990(3)
O3WA O 0.3488(3) 0.6116(2) 1.2010(3)
O3PB O 0.3884(2) 0.7010(3) 1.1512(3)
O3EA O 0.7010(3) 0.3488(3) 0.8884(2)
O3A O 0.6512(3) 0.3884(2) 0.7990(3)
O3C O 0.3488(3) 0.3884(2) 1.2010(3)
O3U O 0.3884(2) 0.2990(3) 1.1512(3)
Zn1XA Zn 0.37885(3) 0.37885(3) 0.87885(3)
Zn1F Zn 0.12115(3) 0.62115(3) 0.62115(3)
Zn1AB Zn 0.12115(3) 0.37885(3) 0.62115(3)
Zn1YA Zn 0.62115(3) 0.62115(3) 0.87885(3)
Zn1WA Zn 0.37885(3) 0.62115(3) 1.12115(3)
Zn1A Zn 0.62115(3) 0.37885(3) 0.87885(3)
Zn1C Zn 0.37885(3) 0.37885(3) 1.12115(3)
Zn1CB Zn -0.12115(3) 0.62115(3) 0.62115(3)
Zn1ZA Zn 0.12115(3) 0.62115(3) 0.37885(3)
Zn1D Zn -0.12115(3) 0.37885(3) 0.62115(3)
Zn1G Zn 0.12115(3) 0.37885(3) 0.37885(3)
Zn1I Zn 0.37885(3) 0.87885(3) 0.62115(3)
Zn1GB Zn 0.62115(3) 0.87885(3) 0.62115(3)
Zn1S Zn 0.12115(3) 0.87885(3) 0.87885(3)
Zn1MB Zn 0.12115(3) 0.87885(3) 1.12115(3)
Zn2I Zn 0.5000 0.7500 0.7500
Zn2S Zn 0.2500 0.7500 1.0000
Zn2J Zn 0.5000 0.2500 0.7500
Zn2R Zn 0.2500 0.2500 1.0000
Zn2FA Zn 0.0000 0.7500 0.7500
Zn2F Zn 0.2500 0.7500 0.5000
Zn2IA Zn 0.0000 0.2500 0.7500
Zn2G Zn 0.2500 0.2500 0.5000
N2XA N 0.3689(3) 0.4570(3) 0.8717(3)
N2Z N 0.1311(3) 0.5430(3) 0.6283(3)
N2TB N 0.1311(3) 0.4570(3) 0.6283(3)
N2W N 0.4570(3) 0.6283(3) 0.8689(3)
N2QB N 0.5430(3) 0.6283(3) 0.8689(3)
N2CA N 0.3717(3) 0.6311(3) 0.9570(3)
N2AC N 0.3717(3) 0.6311(3) 1.0430(3)
N2RB N 0.4570(3) 0.3717(3) 0.8689(3)
N2T N 0.5430(3) 0.3717(3) 0.8689(3)
N2ZB N 0.3717(3) 0.3689(3) 0.9570(3)
N2BA N 0.3717(3) 0.3689(3) 1.0430(3)
N2TA N 0.0430(3) 0.6283(3) 0.6311(3)
N2NC N -0.0430(3) 0.6283(3) 0.6311(3)
N2F N 0.1283(3) 0.6311(3) 0.5430(3)
N2ZA N 0.1283(3) 0.6311(3) 0.4570(3)
N2QC N 0.0430(3) 0.3717(3) 0.6311(3)
N2SA N -0.0430(3) 0.3717(3) 0.6311(3)
N2AB N 0.1283(3) 0.3689(3) 0.5430(3)
N2G N 0.1283(3) 0.3689(3) 0.4570(3)
N2I N 0.4570(3) 0.8717(3) 0.6311(3)
N2GB N 0.5430(3) 0.8717(3) 0.6311(3)
N2S N 0.1283(3) 0.8689(3) 0.9570(3)
N2MB N 0.1283(3) 0.8689(3) 1.0430(3)
N2XB N 0.6283(3) 0.6311(3) 0.9570(3)
N2YA N 0.6311(3) 0.5430(3) 0.8717(3)
N2WA N 0.3689(3) 0.5430(3) 1.1283(3)
N2PB N 0.4570(3) 0.6283(3) 1.1311(3)
N2EA N 0.6283(3) 0.3689(3) 0.9570(3)
N2A N 0.6311(3) 0.4570(3) 0.8717(3)
N2C N 0.3689(3) 0.4570(3) 1.1283(3)
N2U N 0.4570(3) 0.3717(3) 1.1311(3)
C2Z C 0.1210 0.5000(5) 0.6023(5)
C2W C 0.5000(5) 0.6023(5) 0.8790
C2CA C 0.3977(5) 0.6210 1.0000(5)
C2T C 0.5000(5) 0.3977(5) 0.8790
C2BA C 0.3977(5) 0.3790 1.0000(5)
C2TA C 0.0000(5) 0.6023(5) 0.6210
C2F C 0.1023(5) 0.6210 0.5000(5)
C2SA C 0.0000(5) 0.3977(5) 0.6210
C2G C 0.1023(5) 0.3790 0.5000(5)
C2I C 0.5000(5) 0.8977(5) 0.6210
C2S C 0.1023(5) 0.8790 1.0000(5)
H3Z H 0.1078 0.5000 0.5681
H3W H 0.5000 0.5681 0.8922
H3CA H 0.4319 0.6078 1.0000
H3T H 0.5000 0.4319 0.8922
H3BA H 0.4319 0.3922 1.0000
H3TA H 0.0000 0.5681 0.6078
H3F H 0.0681 0.6078 0.5000
H3SA H 0.0000 0.4319 0.6078
H3G H 0.0681 0.3922 0.5000
H3I H 0.5000 0.9319 0.6078
H3S H 0.0681 0.8922 1.0000
C3XA C 0.3484(3) 0.4734(4) 0.8260(3)
C3Z C 0.1516(3) 0.5266(4) 0.6740(3)
C3TB C 0.1516(3) 0.4734(4) 0.6740(3)
C3W C 0.4734(4) 0.6740(3) 0.8484(3)
C3QB C 0.5266(4) 0.6740(3) 0.8484(3)
C3CA C 0.3260(3) 0.6516(3) 0.9734(4)
C3AC C 0.3260(3) 0.6516(3) 1.0266(4)
C3RB C 0.4734(4) 0.3260(3) 0.8484(3)
C3T C 0.5266(4) 0.3260(3) 0.8484(3)
C3ZB C 0.3260(3) 0.3484(3) 0.9734(4)
C3BA C 0.3260(3) 0.3484(3) 1.0266(4)
C3TA C 0.0266(4) 0.6740(3) 0.6516(3)
C3NC C -0.0266(4) 0.6740(3) 0.6516(3)
C3F C 0.1740(3) 0.6516(3) 0.5266(4)
C3ZA C 0.1740(3) 0.6516(3) 0.4734(4)
C3QC C 0.0266(4) 0.3260(3) 0.6516(3)
C3SA C -0.0266(4) 0.3260(3) 0.6516(3)
C3AB C 0.1740(3) 0.3484(3) 0.5266(4)
C3G C 0.1740(3) 0.3484(3) 0.4734(4)
C3I C 0.4734(4) 0.8260(3) 0.6516(3)
C3GB C 0.5266(4) 0.8260(3) 0.6516(3)
C3S C 0.1740(3) 0.8484(3) 0.9734(4)
C3MB C 0.1740(3) 0.8484(3) 1.0266(4)
C4XA C 0.3344(4) 0.4325(4) 0.7902(4)
C4Z C 0.1656(4) 0.5675(4) 0.7098(4)
C4TB C 0.1656(4) 0.4325(4) 0.7098(4)
C4W C 0.4325(4) 0.7098(4) 0.8344(4)
C4QB C 0.5675(4) 0.7098(4) 0.8344(4)
C4CA C 0.2902(4) 0.6656(4) 0.9325(4)
C4AC C 0.2902(4) 0.6656(4) 1.0675(4)
C4RB C 0.4325(4) 0.2902(4) 0.8344(4)
C4T C 0.5675(4) 0.2902(4) 0.8344(4)
C4ZB C 0.2902(4) 0.3344(4) 0.9325(4)
C4BA C 0.2902(4) 0.3344(4) 1.0675(4)
C4TA C 0.0675(4) 0.7098(4) 0.6656(4)
C4NC C -0.0675(4) 0.7098(4) 0.6656(4)
C4F C 0.2098(4) 0.6656(4) 0.5675(4)
C4ZA C 0.2098(4) 0.6656(4) 0.4325(4)
C4QC C 0.0675(4) 0.2902(4) 0.6656(4)
C4SA C -0.0675(4) 0.2902(4) 0.6656(4)
C4AB C 0.2098(4) 0.3344(4) 0.5675(4)
C4G C 0.2098(4) 0.3344(4) 0.4325(4)
C4I C 0.4325(4) 0.7902(4) 0.6656(4)
C4GB C 0.5675(4) 0.7902(4) 0.6656(4)
C4S C 0.2098(4) 0.8344(4) 0.9325(4)
C4MB C 0.2098(4) 0.8344(4) 1.0675(4)
O4XA O 0.3077(3) 0.4448(3) 0.7526(4)
O4Z O 0.1923(3) 0.5552(3) 0.7474(4)
O4TB O 0.1923(3) 0.4448(3) 0.7474(4)
O4W O 0.4448(3) 0.7474(4) 0.8077(3)
O4QB O 0.5552(3) 0.7474(4) 0.8077(3)
O4CA O 0.2526(4) 0.6923(3) 0.9448(3)
O4AC O 0.2526(4) 0.6923(3) 1.0552(3)
O4RB O 0.4448(3) 0.2526(4) 0.8077(3)
O4T O 0.5552(3) 0.2526(4) 0.8077(3)
O4ZB O 0.2526(4) 0.3077(3) 0.9448(3)
O4BA O 0.2526(4) 0.3077(3) 1.0552(3)
O4TA O 0.0552(3) 0.7474(4) 0.6923(3)
O4NC O -0.0552(3) 0.7474(4) 0.6923(3)
O4F O 0.2474(4) 0.6923(3) 0.5552(3)
O4ZA O 0.2474(4) 0.6923(3) 0.4448(3)
O4QC O 0.0552(3) 0.2526(4) 0.6923(3)
O4SA O -0.0552(3) 0.2526(4) 0.6923(3)
O4AB O 0.2474(4) 0.3077(3) 0.5552(3)
O4G O 0.2474(4) 0.3077(3) 0.4448(3)
O4I O 0.4448(3) 0.7526(4) 0.6923(3)
O4GB O 0.5552(3) 0.7526(4) 0.6923(3)
O4S O 0.2474(4) 0.8077(3) 0.9448(3)
O4MB O 0.2474(4) 0.8077(3) 1.0552(3)
O4DB O 0.4448(3) 0.2474(4) 0.6923(3)
O4J O 0.5552(3) 0.2474(4) 0.6923(3)
O4LB O 0.2474(4) 0.1923(3) 0.9448(3)
O4R O 0.2474(4) 0.1923(3) 1.0552(3)
O4FA O 0.0552(3) 0.7526(4) 0.8077(3)
O4DC O -0.0552(3) 0.7526(4) 0.8077(3)
O5Z O 0.2664(7) 0.5000 0.6713(7)
O5W O 0.5000 0.6713(7) 0.7336(7)
O5I O 0.5000 0.8287(7) 0.7664(7)
O5CA O 0.3287(7) 0.7664(7) 1.0000
O5S O 0.1713(7) 0.7336(7) 1.0000
O5T O 0.5000 0.3287(7) 0.7336(7)
O5J O 0.5000 0.1713(7) 0.7664(7)
O5BA O 0.3287(7) 0.2336(7) 1.0000
O5R O 0.1713(7) 0.2664(7) 1.0000
O5TA O 0.0000 0.6713(7) 0.7664(7)
O5FA O 0.0000 0.8287(7) 0.7336(7)
N1 N 0.1876(3) 0.2803(3) 0.1487(3)
H1 H 0.1651 0.2551 0.1477
H2 H 0.2120 0.2822 0.1252
C1 C 0.1849(4) 0.3151(4) 0.1849(4)
N1UA N 0.2197(3) 0.3513(3) 0.1876(3)
N1Q N 0.1487(3) 0.3124(3) 0.2197(3)
H1UA H 0.2449 0.3523 0.1651
H1Q H 0.1477 0.3349 0.2449
H2UA H 0.2178 0.3748 0.2120
H2Q H 0.1252 0.2880 0.2178
N3? N 0.196(2) 0.5000 0.908(2)
N4? N 0.206(5) 0.465(5) 0.897(5)
C5? C 0.195(2) 0.5000 0.853(4)
C6? C 0.212(6) 0.474(6) 0.845(7)
C7? C 0.232(4) 0.521(3) 0.869(4)
C8? C 0.237(5) 0.538(5) 0.933(5)
C9? C 0.134(7) 0.514(7) 0.929(7)
C10? C 0.1824 0.5645 0.9268
C11? C 0.243(4) 0.5000 0.926(4)
C12? C 0.221(6) 0.457(5) 0.904(6)
C13? C 0.136(6) 0.550(6) 0.943(6)
O6? O 0.022(3) 0.522(3) 0.978(3)
loop_
_geom_bond_atom_site_label_1
_geom_bond_atom_site_label_2
_geom_bond_site_symmetry_1
_geom_bond_site_symmetry_2
N1 H1 1_555 1_555
H2 N1 1_555 1_555
C1 N1 1_555 1_555
O3 Zn1 1_555 1_555
Zn1 N2 1_555 1_555
Zn2 O4 1_555 1_555
N2 C2 1_555 1_555
C2 H3 1_555 1_555
C3 N2 1_555 1_555
C4 O3 1_555 1_555
O4 C4 1_555 1_555
O5 Zn2 1_555 1_555
N1UA C1 1_555 1_555
N1Q C1 1_555 1_555
H1UA N1UA 1_555 1_555
H1Q N1Q 1_555 1_555
H2UA N1UA 1_555 1_555
H2Q N1Q 1_555 1_555
O3XA Zn1XA 1_555 1_555
O3Z Zn1F 1_555 1_555
O3TB Zn1AB 1_555 1_555
O3W Zn1 1_555 1_555
O3QB Zn1YA 1_555 1_555
O3CA Zn1 1_555 1_555
O3AC Zn1WA 1_555 1_555
O3RB Zn1XA 1_555 1_555
O3T Zn1A 1_555 1_555
O3ZB Zn1XA 1_555 1_555
O3BA Zn1C 1_555 1_555
O3TA Zn1F 1_555 1_555
O3NC Zn1CB 1_555 1_555
O3F Zn1F 1_555 1_555
O3ZA Zn1ZA 1_555 1_555
O3QC Zn1AB 1_555 1_555
O3SA Zn1D 1_555 1_555
O3AB Zn1AB 1_555 1_555
O3G Zn1G 1_555 1_555
O3I Zn1I 1_555 1_555
O3GB Zn1GB 1_555 1_555
O3S Zn1S 1_555 1_555
O3MB Zn1MB 1_555 1_555
O3XB Zn1YA 1_555 1_555
O3YA Zn1YA 1_555 1_555
O3WA Zn1WA 1_555 1_555
O3PB Zn1WA 1_555 1_555
O3EA Zn1A 1_555 1_555
O3A Zn1A 1_555 1_555
O3C Zn1C 1_555 1_555
O3U Zn1C 1_555 1_555
Zn1XA N2XA 1_555 1_555
Zn1F N2Z 1_555 1_555
Zn1AB N2TB 1_555 1_555
Zn1YA N2QB 1_555 1_555
Zn1WA N2AC 1_555 1_555
Zn1A N2T 1_555 1_555
Zn1C N2BA 1_555 1_555
Zn1CB N2NC 1_555 1_555
Zn1ZA N2ZA 1_555 1_555
Zn1D N2SA 1_555 1_555
Zn1G N2G 1_555 1_555
Zn1I N2I 1_555 1_555
Zn1GB N2GB 1_555 1_555
Zn1S N2S 1_555 1_555
Zn1MB N2MB 1_555 1_555
Zn2I O4W 1_555 1_555
Zn2S O4CA 1_555 1_555
Zn2J O4RB 1_555 1_555
Zn2R O4ZB 1_555 1_555
Zn2FA O4TA 1_555 1_555
Zn2F O4F 1_555 1_555
Zn2IA O4QC 1_555 1_555
Zn2G O4AB 1_555 1_555
N2XA C2 1_555 1_555
N2Z C2Z 1_555 1_555
N2TB C2Z 1_555 1_555
N2W Zn1 1_555 1_555
N2QB C2W 1_555 1_555
N2CA Zn1 1_555 1_555
N2AC C2CA 1_555 1_555
N2RB Zn1XA 1_555 1_555
N2T C2T 1_555 1_555
N2ZB Zn1XA 1_555 1_555
N2BA C2BA 1_555 1_555
N2TA Zn1F 1_555 1_555
N2NC C2TA 1_555 1_555
N2F Zn1F 1_555 1_555
N2ZA C2F 1_555 1_555
N2QC Zn1AB 1_555 1_555
N2SA C2SA 1_555 1_555
N2AB Zn1AB 1_555 1_555
N2G C2G 1_555 1_555
N2I C2I 1_555 1_555
N2GB C2I 1_555 1_555
N2S C2S 1_555 1_555
N2MB C2S 1_555 1_555
N2XB Zn1YA 1_555 1_555
N2YA Zn1YA 1_555 1_555
N2WA Zn1WA 1_555 1_555
N2PB Zn1WA 1_555 1_555
N2EA Zn1A 1_555 1_555
N2A Zn1A 1_555 1_555
N2C Zn1C 1_555 1_555
N2U Zn1C 1_555 1_555
C2Z H3Z 1_555 1_555
C2W N2W 1_555 1_555
C2CA N2CA 1_555 1_555
C2T N2RB 1_555 1_555
C2BA N2ZB 1_555 1_555
C2TA N2TA 1_555 1_555
C2F N2F 1_555 1_555
C2SA N2QC 1_555 1_555
C2G N2AB 1_555 1_555
C2I H3I 1_555 1_555
C2S H3S 1_555 1_555
H3W C2W 1_555 1_555
H3CA C2CA 1_555 1_555
H3T C2T 1_555 1_555
H3BA C2BA 1_555 1_555
H3TA C2TA 1_555 1_555
H3F C2F 1_555 1_555
H3SA C2SA 1_555 1_555
H3G C2G 1_555 1_555
C3XA C3 1_555 1_555
C3Z N2Z 1_555 1_555
C3TB N2TB 1_555 1_555
C3W N2W 1_555 1_555
C3QB N2QB 1_555 1_555
C3CA N2CA 1_555 1_555
C3AC N2AC 1_555 1_555
C3RB N2RB 1_555 1_555
C3T N2T 1_555 1_555
C3ZB N2ZB 1_555 1_555
C3BA N2BA 1_555 1_555
C3TA N2TA 1_555 1_555
C3NC N2NC 1_555 1_555
C3F N2F 1_555 1_555
C3ZA N2ZA 1_555 1_555
C3QC N2QC 1_555 1_555
C3SA N2SA 1_555 1_555
C3AB N2AB 1_555 1_555
C3G N2G 1_555 1_555
C3I N2I 1_555 1_555
C3GB N2GB 1_555 1_555
C3S N2S 1_555 1_555
C3MB N2MB 1_555 1_555
C4XA O3XA 1_555 1_555
C4Z O3Z 1_555 1_555
C4TB O3TB 1_555 1_555
C4W O3W 1_555 1_555
C4QB O3QB 1_555 1_555
C4CA O3CA 1_555 1_555
C4AC O3AC 1_555 1_555
C4RB O3RB 1_555 1_555
C4T O3T 1_555 1_555
C4ZB O3ZB 1_555 1_555
C4BA O3BA 1_555 1_555
C4TA O3TA 1_555 1_555
C4NC O3NC 1_555 1_555
C4F O3F 1_555 1_555
C4ZA O3ZA 1_555 1_555
C4QC O3QC 1_555 1_555
C4SA O3SA 1_555 1_555
C4AB O3AB 1_555 1_555
C4G O3G 1_555 1_555
C4I O3I 1_555 1_555
C4GB O3GB 1_555 1_555
C4S O3S 1_555 1_555
C4MB O3MB 1_555 1_555
O4XA Zn2 1_555 1_555
O4Z Zn2 1_555 1_555
O4TB Zn2 1_555 1_555
O4W C4W 1_555 1_555
O4QB Zn2I 1_555 1_555
O4CA C4CA 1_555 1_555
O4AC Zn2S 1_555 1_555
O4RB C4RB 1_555 1_555
O4T Zn2J 1_555 1_555
O4ZB C4ZB 1_555 1_555
O4BA Zn2R 1_555 1_555
O4TA C4TA 1_555 1_555
O4NC Zn2FA 1_555 1_555
O4F C4F 1_555 1_555
O4ZA Zn2F 1_555 1_555
O4QC C4QC 1_555 1_555
O4SA Zn2IA 1_555 1_555
O4AB C4AB 1_555 1_555
O4G Zn2G 1_555 1_555
O4I Zn2I 1_555 1_555
O4GB Zn2I 1_555 1_555
O4S Zn2S 1_555 1_555
O4MB Zn2S 1_555 1_555
O4DB Zn2J 1_555 1_555
O4J Zn2J 1_555 1_555
O4LB Zn2R 1_555 1_555
O4R Zn2R 1_555 1_555
O4FA Zn2FA 1_555 1_555
O4DC Zn2FA 1_555 1_555
O5Z Zn2 1_555 1_555
O5W Zn2I 1_555 1_555
O5I Zn2I 1_555 1_555
O5CA Zn2S 1_555 1_555
O5S Zn2S 1_555 1_555
O5T Zn2J 1_555 1_555
O5J Zn2J 1_555 1_555
O5BA Zn2R 1_555 1_555
O5R Zn2R 1_555 1_555
O5TA Zn2FA 1_555 1_555
O5FA Zn2FA 1_555 1_555
C3 C4 1_555 1_555
N2XA C3XA 1_555 1_555
C3XA C4XA 1_555 1_555
C3Z C3TB 1_555 1_555
C3Z C4Z 1_555 1_555
C3TB C4TB 1_555 1_555
C3W C3QB 1_555 1_555
C3W C4W 1_555 1_555
C3QB C4QB 1_555 1_555
C3CA C3AC 1_555 1_555
C3CA C4CA 1_555 1_555
C3AC C4AC 1_555 1_555
C3RB C3T 1_555 1_555
C3RB C4RB 1_555 1_555
C3T C4T 1_555 1_555
C3ZB C3BA 1_555 1_555
C3ZB C4ZB 1_555 1_555
C3BA C4BA 1_555 1_555
C3TA C3NC 1_555 1_555
C3TA C4TA 1_555 1_555
C3NC C4NC 1_555 1_555
C3F C3ZA 1_555 1_555
C3F C4F 1_555 1_555
C3ZA C4ZA 1_555 1_555
C3QC C3SA 1_555 1_555
C3QC C4QC 1_555 1_555
C3SA C4SA 1_555 1_555
C3AB C3G 1_555 1_555
C3AB C4AB 1_555 1_555
C3G C4G 1_555 1_555
C3I C3GB 1_555 1_555
C3I C4I 1_555 1_555
C3GB C4GB 1_555 1_555
C3S C3MB 1_555 1_555
C3S C4S 1_555 1_555
C3MB C4MB 1_555 1_555
C4XA O4XA 1_555 1_555
C4Z O4Z 1_555 1_555
C4TB O4TB 1_555 1_555
C4QB O4QB 1_555 1_555
C4AC O4AC 1_555 1_555
C4T O4T 1_555 1_555
C4BA O4BA 1_555 1_555
C4NC O4NC 1_555 1_555
C4ZA O4ZA 1_555 1_555
C4SA O4SA 1_555 1_555
C4G O4G 1_555 1_555
C4I O4I 1_555 1_555
C4GB O4GB 1_555 1_555
C4S O4S 1_555 1_555
C4MB O4MB 1_555 1_555

#END
