
#######################################################################
#
#                 Cambridge Crystallographic Data Centre
#                                CCDC 
#
#######################################################################
#
# If this CIF has been generated from an entry in the Cambridge 
# Structural Database, then it will include bibliographic, chemical, 
# crystal, experimental, refinement or atomic coordinate data resulting 
# from the CCDC's data processing and validation procedures.
#
#######################################################################

data_LUXFEQ
_symmetry_cell_setting           rhombohedral
_symmetry_space_group_name_H-M   'R -3 m'
_symmetry_Int_Tables_number      166
_space_group_name_Hall           '-R 3 2"'
loop_
_symmetry_equiv_pos_site_id
_symmetry_equiv_pos_as_xyz
1 x,y,z
2 -y,x-y,z
3 -x+y,-x,z
4 y,x,-z
5 x-y,-y,-z
6 -x,-x+y,-z
7 2/3+x,1/3+y,1/3+z
8 2/3-y,1/3+x-y,1/3+z
9 2/3-x+y,1/3-x,1/3+z
10 2/3+y,1/3+x,1/3-z
11 2/3+x-y,1/3-y,1/3-z
12 2/3-x,1/3-x+y,1/3-z
13 1/3+x,2/3+y,2/3+z
14 1/3-y,2/3+x-y,2/3+z
15 1/3-x+y,2/3-x,2/3+z
16 1/3+y,2/3+x,2/3-z
17 1/3+x-y,2/3-y,2/3-z
18 1/3-x,2/3-x+y,2/3-z
19 -x,-y,-z
20 y,-x+y,-z
21 x-y,x,-z
22 -y,-x,z
23 -x+y,y,z
24 x,x-y,z
25 1/3-x,2/3-y,2/3-z
26 1/3+y,2/3-x+y,2/3-z
27 1/3+x-y,2/3+x,2/3-z
28 1/3-y,2/3-x,2/3+z
29 1/3-x+y,2/3+y,2/3+z
30 1/3+x,2/3+x-y,2/3+z
31 2/3-x,1/3-y,1/3-z
32 2/3+y,1/3-x+y,1/3-z
33 2/3+x-y,1/3+x,1/3-z
34 2/3-y,1/3-x,1/3+z
35 2/3-x+y,1/3+y,1/3+z
36 2/3+x,1/3+x-y,1/3+z
_cell_length_a                   40.637(5)
_cell_length_b                   40.637(5)
_cell_length_c                   39.063(7)
_cell_angle_alpha                90
_cell_angle_beta                 90
_cell_angle_gamma                120
_cell_volume                     55865
loop_
_atom_site_label
_atom_site_type_symbol
_atom_site_fract_x
_atom_site_fract_y
_atom_site_fract_z
O1 O 0.8777(11) 0.1223(11) 0.0652(19)
C5 C 0.863(3) 0.087(3) 0.047(3)
H5 H 0.8628 0.0953 0.0233
H6 H 0.8360 0.0740 0.0542
C5U C 0.913(3) 0.137(3) 0.047(3)
H5U H 0.9047 0.1372 0.0233
H6U H 0.9260 0.1640 0.0542
C6 C 0.951(3) 0.132(3) 0.039(3)
H7 H 0.9690 0.1528 0.0246
H8 H 0.9636 0.1328 0.0611
H9 H 0.9429 0.1077 0.0280
O2 O 0.7527(10) -0.1236(5) 0.2253(9)
O3 O 0.8912(12) -0.0544(6) 0.0824(11)
O4 O 0.8333 0.1667 0.1667
O5 O 0.2548(19) 0.3465(19) 0.2851(17)
O6 O 0.6665(19) -0.1667(9) 0.1465(16)
O7 O 0.776(2) 0.0000 0.0000
O8 O 0.2663(18) 0.3603(18) 0.4840(16)
O9 O 0.8930(7) 0.1070(7) 0.2477(13)
O10 O 1.0000 0.0000 0.061(6)
O11 O 0.7052(10) 0.0386(10) 0.1667
O12 O 0.671(2) -0.027(2) 0.1934(18)
Cd1 Cd 0.65113(3) 0.51350(3) 0.48295(3)
Cd2 Cd 0.57231(4) 0.59041(4) 0.38568(3)
C7 C 0.5624(3) 0.4376(3) 0.4862(6)
H10 H 0.5498 0.4502 0.4949
N3 N 0.6001(4) 0.4553(4) 0.4793(3)
C8 C 0.6055(4) 0.4274(5) 0.4674(4)
C9 C 0.6433(6) 0.4383(6) 0.4567(5)
O13 O 0.6706(4) 0.4718(4) 0.4587(4)
O14 O 0.6502(4) 0.4118(4) 0.4450(4)
C10 C 0.6004(5) 0.5449(5) 0.4402(5)
H11 H 0.5761 0.5261 0.4482
N4 N 0.6317(4) 0.5464(4) 0.4494(3)
C11 C 0.6606(5) 0.5764(5) 0.4317(5)
C12 C 0.6430(6) 0.5923(5) 0.4127(4)
N5 N 0.6055(4) 0.5724(4) 0.4182(4)
C13 C 0.6594(7) 0.6247(7) 0.3892(5)
O15 O 0.6348(4) 0.6282(3) 0.3713(3)
O16 O 0.6939(4) 0.6489(6) 0.3866(3)
O17 O 0.7032(3) 0.5599(4) 0.4553(4)
C14 C 0.6996(5) 0.5831(7) 0.4362(5)
O18 O 0.7265(4) 0.6097(5) 0.4220(5)
C15 C 0.6095(5) 0.5374(5) 0.5446(5)
H12 H 0.5883 0.5342 0.5316
N6 N 0.6164(4) 0.5506(4) 0.5769(4)
N7 N 0.6356(4) 0.5293(4) 0.5326(4)
C16 C 0.6485(5) 0.5510(5) 0.5875(5)
C17 C 0.6603(5) 0.5382(5) 0.5594(5)
C18 C 0.6931(5) 0.5318(6) 0.5523(7)
C19 C 0.6633(6) 0.5625(7) 0.6213(6)
O19 O 0.6969(4) 0.5217(4) 0.5251(3)
O20 O 0.7148(4) 0.5400(5) 0.5808(4)
O21 O 0.6464(4) 0.5741(4) 0.6414(3)
O22 O 0.6934(5) 0.5619(4) 0.6294(3)
C20 C 0.4908(3) 0.5092(3) 0.3953(7)
H13 H 0.4890 0.5110 0.4194
C21 C 0.5377(7) 0.5485(10) 0.3173(5)
C22 C 0.5106(4) 0.5238(4) 0.3453(5)
N8 N 0.5194(4) 0.5351(4) 0.3772(3)
O23 O 0.5654(4) 0.5775(6) 0.3242(3)
O24 O 0.5270(3) 0.5340(4) 0.2857(3)
Na1 Na 0.6183(2) 0.6474(3) 0.32020(17)
Na2 Na 0.7520(2) 0.6712(4) 0.4087(2)
O25 O 0.6667(5) 0.7112 0.3333
O26 O 0.5784(6) 0.6427(9) 0.2728(5)
O27 O 0.753(3) 0.675(3) 0.470(2)
Cd1U Cd 0.48650(3) 0.34887(3) 0.48295(3)
Cd1Q Cd 0.68220(3) 0.52904(4) 0.18372(3)
Cd1C Cd 0.51350(3) 0.65113(3) 0.51705(3)
Cd1H Cd 0.52904(4) 0.68220(3) 0.81628(3)
Cd1M Cd 0.81983(3) 0.80430(4) 0.14962(3)
Cd1Y Cd 0.84683(3) 0.52904(4) 0.18372(3)
Cd1R Cd 0.34887(3) 0.48650(3) 0.51705(3)
Cd2C Cd 0.59041(4) 0.57231(4) 0.61432(3)
Cd2Q Cd 0.76102(4) 0.68477(6) 0.28099(3)
Cd2U Cd 0.40959(4) 0.42769(4) 0.38568(3)
Cd2H Cd 0.68477(6) 0.76102(4) 0.71901(3)
Cd2R Cd 0.42769(4) 0.40959(4) 0.61432(3)
Cd2Y Cd 0.92374(4) 0.68477(6) 0.28099(3)
Cd2M Cd 0.74292(4) 0.64857(6) 0.05235(3)
Cd2J Cd 0.64857(6) 0.74292(4) 0.94765(3)
C7Q C 0.7709(3) 0.5419(4) 0.1805(6)
C7C C 0.4376(3) 0.5624(3) 0.5138(6)
H10Q H 0.7835 0.5671 0.1718
H10C H 0.4502 0.5498 0.5051
N3U N 0.5447(4) 0.3999(4) 0.4793(3)
N3Q N 0.7332(4) 0.5219(6) 0.1874(3)
N3Y N 0.7886(4) 0.5219(6) 0.1874(3)
N3C N 0.4553(4) 0.6001(4) 0.5207(3)
N3R N 0.3999(4) 0.5447(4) 0.5207(3)
N3H N 0.5219(6) 0.7332(4) 0.8126(3)
N3M N 0.8780(4) 0.8115(6) 0.1460(3)
C8U C 0.5726(5) 0.3945(4) 0.4674(4)
C8Q C 0.7278(4) 0.4886(6) 0.1993(4)
C8Y C 0.7607(5) 0.4886(6) 0.1993(4)
C8C C 0.4274(5) 0.6055(4) 0.5326(4)
C8R C 0.3945(4) 0.5726(5) 0.5326(4)
C9U C 0.5617(6) 0.3567(6) 0.4567(5)
C9Q C 0.6900(6) 0.4617(8) 0.2100(5)
C9Y C 0.7716(6) 0.4617(8) 0.2100(5)
C9C C 0.4383(6) 0.6433(6) 0.5433(5)
C9R C 0.3567(6) 0.5617(6) 0.5433(5)
O13U O 0.5282(4) 0.3294(4) 0.4587(4)
O13Q O 0.6627(4) 0.4679(6) 0.2080(4)
O13Y O 0.8051(4) 0.4679(6) 0.2080(4)
O13C O 0.4718(4) 0.6706(4) 0.5413(4)
O13R O 0.3294(4) 0.5282(4) 0.5413(4)
O13H O 0.4679(6) 0.6627(4) 0.7920(4)
O13M O 0.8615(4) 0.8655(6) 0.1254(4)
O14U O 0.5882(4) 0.3498(4) 0.4450(4)
O14Q O 0.6831(4) 0.4283(6) 0.2217(4)
O14Y O 0.7451(4) 0.4283(6) 0.2217(4)
O14C O 0.4118(4) 0.6502(4) 0.5550(4)
O14R O 0.3498(4) 0.5882(4) 0.5550(4)
C10Q C 0.7329(5) 0.6112(7) 0.2265(5)
C10U C 0.4551(5) 0.3996(5) 0.4402(5)
C10C C 0.5449(5) 0.6004(5) 0.5598(5)
C10H C 0.6112(7) 0.7329(5) 0.7735(5)
C10M C 0.7884(5) 0.7222(7) 0.1069(5)
H11Q H 0.7572 0.6167 0.2185
H11U H 0.4739 0.4239 0.4482
H11C H 0.5261 0.5761 0.5518
H11H H 0.6167 0.7572 0.7815
H11M H 0.8072 0.7167 0.1149
N4Q N 0.7016(4) 0.5814(6) 0.2173(3)
N4U N 0.4536(4) 0.3683(4) 0.4494(3)
N4C N 0.5464(4) 0.6317(4) 0.5506(3)
N4H N 0.5814(6) 0.7016(4) 0.7827(3)
N4M N 0.7869(4) 0.7520(6) 0.1161(3)
C11Q C 0.6727(5) 0.5825(7) 0.2350(5)
C11U C 0.4236(5) 0.3394(5) 0.4317(5)
C11C C 0.5764(5) 0.6606(5) 0.5683(5)
C11H C 0.5825(7) 0.6727(5) 0.7650(5)
C11M C 0.7569(5) 0.7509(7) 0.0984(5)
C12Q C 0.6903(6) 0.6160(8) 0.2540(4)
C12U C 0.4077(5) 0.3570(6) 0.4127(4)
C12C C 0.5923(5) 0.6430(6) 0.5873(4)
C12H C 0.6160(8) 0.6903(6) 0.7460(4)
C12M C 0.7410(5) 0.7174(8) 0.0794(4)
N5Q N 0.7278(4) 0.6336(6) 0.2485(4)
N5U N 0.4276(4) 0.3945(4) 0.4182(4)
N5C N 0.5724(4) 0.6055(4) 0.5818(4)
N5H N 0.6336(6) 0.7278(4) 0.7515(4)
N5M N 0.7609(4) 0.6998(6) 0.0849(4)
N5R N 0.3945(4) 0.4276(4) 0.5818(4)
C13Q C 0.6739(7) 0.6320(10) 0.2775(5)
C13U C 0.3753(7) 0.3406(7) 0.3892(5)
C13C C 0.6247(7) 0.6594(7) 0.6108(5)
C13H C 0.6320(10) 0.6739(7) 0.7225(5)
C13M C 0.7086(7) 0.7014(10) 0.0559(5)
O15Q O 0.6985(4) 0.6601(5) 0.2954(3)
O15U O 0.3718(3) 0.3652(4) 0.3713(3)
O15C O 0.6282(3) 0.6348(4) 0.6287(3)
O15H O 0.6601(5) 0.6985(4) 0.7046(3)
O15M O 0.7051(3) 0.6733(5) 0.0380(3)
O15R O 0.3652(4) 0.3718(3) 0.6287(3)
O15Z O 0.3399(5) 0.3015(4) 0.2954(3)
O16Q O 0.6394(4) 0.6217(7) 0.2801(3)
O16U O 0.3511(6) 0.3061(4) 0.3866(3)
O16C O 0.6489(6) 0.6939(4) 0.6134(3)
O16H O 0.6217(7) 0.6394(4) 0.7199(3)
O16M O 0.6844(6) 0.7117(7) 0.0533(3)
O16Z O 0.3783(7) 0.3606(4) 0.2801(3)
O17Q O 0.6301(3) 0.5234(5) 0.2114(4)
O17U O 0.4401(4) 0.2968(3) 0.4553(4)
O17C O 0.5599(4) 0.7032(3) 0.5447(4)
O17H O 0.5234(5) 0.6301(3) 0.7886(4)
O17M O 0.7734(4) 0.8100(5) 0.1220(4)
C14Q C 0.6337(5) 0.5502(9) 0.2305(5)
C14U C 0.4169(7) 0.3004(5) 0.4362(5)
C14C C 0.5831(7) 0.6996(5) 0.5638(5)
C14H C 0.5502(9) 0.6337(5) 0.7695(5)
C14M C 0.7502(7) 0.7832(9) 0.1029(5)
O18Q O 0.6068(4) 0.5499(6) 0.2447(5)
O18U O 0.3903(5) 0.2735(4) 0.4220(5)
O18C O 0.6097(5) 0.7265(4) 0.5780(5)
O18H O 0.5499(6) 0.6068(4) 0.7553(5)
O18M O 0.7236(5) 0.7835(6) 0.0887(5)
O18Z O 0.4501(6) 0.3932(4) 0.2447(5)
C15C C 0.5374(5) 0.6095(5) 0.4554(5)
C15U C 0.4626(5) 0.3905(5) 0.5446(5)
C15M C 0.7959(5) 0.7388(7) 0.2113(5)
C15Q C 0.7238(5) 0.5946(7) 0.1221(5)
C15H C 0.5946(7) 0.7238(5) 0.8779(5)
H12C H 0.5342 0.5883 0.4684
H12U H 0.4658 0.4117 0.5316
H12M H 0.7991 0.7208 0.1983
H12Q H 0.7450 0.6126 0.1351
H12H H 0.6126 0.7450 0.8649
N6C N 0.5506(4) 0.6164(4) 0.4231(4)
N6U N 0.4494(4) 0.3836(4) 0.5769(4)
N6M N 0.7827(4) 0.7325(6) 0.2436(4)
N6Q N 0.7169(4) 0.6009(6) 0.0898(4)
N6H N 0.6009(6) 0.7169(4) 0.9102(4)
N6R N 0.3836(4) 0.4494(4) 0.4231(4)
N6J N 0.7325(6) 0.7827(4) 0.7564(4)
N7C N 0.5293(4) 0.6356(4) 0.4674(4)
N7U N 0.4707(4) 0.3644(4) 0.5326(4)
N7M N 0.8040(4) 0.7730(6) 0.1993(4)
N7Q N 0.6977(4) 0.5604(6) 0.1341(4)
N7H N 0.5604(6) 0.6977(4) 0.8659(4)
C16C C 0.5510(5) 0.6485(5) 0.4125(5)
C16U C 0.4490(5) 0.3515(5) 0.5875(5)
C16M C 0.7823(5) 0.7642(7) 0.2542(5)
C16Q C 0.6848(5) 0.5692(7) 0.0792(5)
C16H C 0.5692(7) 0.6848(5) 0.9208(5)
C17C C 0.5382(5) 0.6603(5) 0.4406(5)
C17U C 0.4618(5) 0.3397(5) 0.5594(5)
C17M C 0.7951(5) 0.7888(7) 0.2261(5)
C17Q C 0.6730(5) 0.5446(7) 0.1073(5)
C17H C 0.5446(7) 0.6730(5) 0.8927(5)
C18C C 0.5318(6) 0.6931(5) 0.4477(7)
C18U C 0.4682(6) 0.3069(5) 0.5523(7)
C18M C 0.8015(6) 0.8280(8) 0.2190(7)
C18Q C 0.6402(5) 0.5054(8) 0.1144(7)
C18H C 0.5054(8) 0.6402(5) 0.8856(7)
C19C C 0.5625(7) 0.6633(6) 0.3787(6)
C19U C 0.4375(7) 0.3367(6) 0.6213(6)
C19M C 0.7708(7) 0.7675(9) 0.2880(6)
C19Q C 0.6700(6) 0.5659(9) 0.0454(6)
C19H C 0.5659(9) 0.6700(6) 0.9546(6)
O19C O 0.5217(4) 0.6969(4) 0.4749(3)
O19U O 0.4783(4) 0.3031(4) 0.5251(3)
O19M O 0.8116(4) 0.8419(6) 0.1918(3)
O19Q O 0.6364(4) 0.4915(6) 0.1416(3)
O19H O 0.4915(6) 0.6364(4) 0.8584(3)
O20C O 0.5400(5) 0.7148(4) 0.4192(4)
O20U O 0.4600(5) 0.2852(4) 0.5808(4)
O20M O 0.7933(5) 0.8415(6) 0.2475(4)
O20Q O 0.6185(4) 0.4919(6) 0.0859(4)
O20H O 0.4919(6) 0.6185(4) 0.9141(4)
O21C O 0.5741(4) 0.6464(4) 0.3586(3)
O21U O 0.4259(4) 0.3536(4) 0.6414(3)
O21M O 0.7592(4) 0.7390(6) 0.3081(3)
O21Q O 0.6869(4) 0.5944(6) 0.0253(3)
O21H O 0.5944(6) 0.6869(4) 0.9747(3)
O21R O 0.3536(4) 0.4259(4) 0.3586(3)
O21J O 0.7390(6) 0.7592(4) 0.6919(3)
O21BA O 0.2610(6) 0.2408(4) 0.3081(3)
O22C O 0.5619(4) 0.6934(5) 0.3706(3)
O22U O 0.4381(4) 0.3066(5) 0.6294(3)
O22M O 0.7714(4) 0.7982(6) 0.2961(3)
O22Q O 0.6399(5) 0.5352(6) 0.0373(3)
O22H O 0.5352(6) 0.6399(5) 0.9627(3)
C20Q C 0.8425(3) 0.6851(4) 0.2714(7)
C20C C 0.5092(3) 0.4908(3) 0.6047(7)
H13Q H 0.8443 0.6887 0.2473
H13C H 0.5110 0.4890 0.5806
C21U C 0.4515(10) 0.4623(7) 0.3173(5)
C21Q C 0.7956(7) 0.6775(12) 0.3494(5)
C21Y C 0.8818(10) 0.6775(12) 0.3494(5)
C21C C 0.5485(10) 0.5377(7) 0.6827(5)
C21R C 0.4623(7) 0.4515(10) 0.6827(5)
C22U C 0.4762(4) 0.4894(4) 0.3453(5)
C22Q C 0.8227(4) 0.6799(6) 0.3214(5)
C22Y C 0.8571(4) 0.6799(6) 0.3214(5)
C22C C 0.5238(4) 0.5106(4) 0.6547(5)
C22R C 0.4894(4) 0.4762(4) 0.6547(5)
N8U N 0.4649(4) 0.4806(4) 0.3772(3)
N8Q N 0.8139(4) 0.6824(6) 0.2895(3)
N8Y N 0.8684(4) 0.6824(6) 0.2895(3)
N8C N 0.5351(4) 0.5194(4) 0.6228(3)
N8R N 0.4806(4) 0.4649(4) 0.6228(3)
N8H N 0.6824(6) 0.8139(4) 0.7105(3)
O23U O 0.4225(6) 0.4346(4) 0.3242(3)
O23Q O 0.7679(4) 0.6788(7) 0.3425(3)
O23Y O 0.9108(6) 0.6788(7) 0.3425(3)
O23C O 0.5775(6) 0.5654(4) 0.6758(3)
O23R O 0.4346(4) 0.4225(6) 0.6758(3)
O23H O 0.6788(7) 0.7679(4) 0.6575(3)
O23Z O 0.3212(7) 0.2321(4) 0.3425(3)
O24U O 0.4660(4) 0.4730(3) 0.2857(3)
O24Q O 0.8063(3) 0.6737(5) 0.3810(3)
O24Y O 0.8673(4) 0.6737(5) 0.3810(3)
O24C O 0.5340(4) 0.5270(3) 0.7143(3)
O24R O 0.4730(3) 0.4660(4) 0.7143(3)
O24Z O 0.3263(5) 0.1937(3) 0.3810(3)
O24H O 0.6737(5) 0.8063(3) 0.6190(3)
Na1Q Na 0.7150(2) 0.6958(4) 0.34647(17)
Na1C Na 0.6474(3) 0.6183(2) 0.67980(17)
Na1U Na 0.3526(3) 0.3817(2) 0.32020(17)
Na1H Na 0.6958(4) 0.7150(2) 0.65353(17)
Na1Z Na 0.3042(4) 0.2850(2) 0.34647(17)
Na1Y Na 0.9807(3) 0.6958(4) 0.34647(17)
Na1R Na 0.3817(2) 0.3526(3) 0.67980(17)
Na1M Na 0.6859(3) 0.6376(4) -0.01313(17)
Na1J Na 0.6376(4) 0.6859(3) 1.01313(17)
Na1J_2 Na 0.6376(4) 0.6859(3) 0.01313(17)
Na2Q Na 0.5813(2) 0.5859(4) 0.2580(2)
Na2U Na 0.3288(4) 0.2480(2) 0.4087(2)
Na2C Na 0.6712(4) 0.7520(2) 0.5913(2)
Na2H Na 0.5859(4) 0.5813(2) 0.7420(2)
Na2Z Na 0.4141(4) 0.4187(2) 0.2580(2)
Na2V Na 0.9192(4) 0.6712(4) 0.4087(2)
Na2IA Na 0.4187(2) 0.4141(4) 0.7420(2)
Na2M Na 0.6621(4) 0.7475(4) 0.0754(2)
O25C O 0.7112 0.6667(5) 0.6667
O25U O 0.2888 0.3333(5) 0.3333
O26Q O 0.7549(6) 0.7310(11) 0.3939(5)
O26C O 0.6427(9) 0.5784(6) 0.7272(5)
O26U O 0.3573(9) 0.4216(6) 0.2728(5)
O26H O 0.7310(11) 0.7549(6) 0.6061(5)
O26Z O 0.2690(11) 0.2451(6) 0.3939(5)
O27Q O 0.580(3) 0.589(4) 0.197(2)
O27U O 0.325(3) 0.247(3) 0.470(2)
O27C O 0.675(3) 0.753(3) 0.530(2)
O27H O 0.589(4) 0.580(3) 0.803(2)
O27Z O 0.411(4) 0.420(3) 0.197(2)
C1 C 0.7439(10) -0.1280(5) 0.0957(9)
H1 H 0.7408 -0.1521 0.0864
C2 C 0.8110(11) -0.0945(5) 0.1095(9)
H2 H 0.8354 -0.0710 0.1048
C3 C 0.8062(10) -0.0969(5) 0.1430(9)
C4 C 0.7395(10) -0.1302(5) 0.1329(9)
H3 H 0.7332 -0.1561 0.1400
N1 N 0.7706(9) -0.1039(10) 0.1533(8)
H4 H 0.7707 -0.0812 0.1535
N2 N 0.7854(10) -0.0942(9) 0.0890(9)
H1W H 0.7408 -0.1071 0.0864
H2W H 0.8354 -0.0936 0.1048
H3W H 0.7332 -0.1107 0.1400
N1W N 0.7706(9) -0.1255(13) 0.1533(8)
H4W H 0.7707 -0.1481 0.1535
N2W N 0.7854(10) -0.1204(13) 0.0890(9)
H14? H 0.6153 0.3847 0.4446
H15? H 0.5608 0.7108 0.3913
H16? H 0.4978 0.5023 0.2922
H17? H 0.7249 -0.1229 0.0849
H18? H 0.8143 -0.1161 0.1023
H19? H 0.8258 -0.0728 0.1535
H20? H 0.8102 -0.1175 0.1516
H21? H 0.7173 -0.1274 0.1385
H22? H 0.7666 -0.1206 0.1755
H23? H 0.7920 -0.0954 0.0667
H24? H 0.7857 -0.0716 0.0918
O28? O 0.6825(13) 0.1525(13) -0.1511(11)
O29? O 0.8209(7) 0.1791(7) 0.1479(13)
O30? O 0.626(3) 0.008(3) 0.096(2)
O31? O 0.598(3) 0.018(3) 0.086(3)
O32? O 0.881(3) 0.087(3) 0.302(3)
O33? O 0.706(3) 0.009(3) 0.189(2)
O34? O 0.836(6) -0.082(3) 0.329(5)
O35? O 0.589(4) -0.2055(19) 0.111(4)
O36? O 0.574(3) -0.2132(16) 0.081(3)
O37? O 0.201(3) 0.316(3) 0.282(3)
loop_
_geom_bond_atom_site_label_1
_geom_bond_atom_site_label_2
_geom_bond_site_symmetry_1
_geom_bond_site_symmetry_2
C1 H1 1_555 1_555
C2 H2 1_555 1_555
C3 C2 1_555 1_555
C4 C1 1_555 1_555
H3 C4 1_555 1_555
N1 C3 1_555 1_555
H4 N1 1_555 1_555
N2 C1 1_555 1_555
O1 C5 1_555 1_555
C5 H5 1_555 1_555
H6 C5 1_555 1_555
C6 H7 1_555 1_555
H8 C6 1_555 1_555
H9 C6 1_555 1_555
Cd1 N3 1_555 1_555
Cd2 N5 1_555 1_555
C7 H10 1_555 1_555
N3 C7 1_555 1_555
C8 N3 1_555 1_555
C9 C8 1_555 1_555
O13 Cd1 1_555 1_555
O14 C9 1_555 1_555
C10 H11 1_555 1_555
N4 Cd1 1_555 1_555
C11 N4 1_555 1_555
C12 C11 1_555 1_555
N5 C10 1_555 1_555
C13 C12 1_555 1_555
O15 Cd2 1_555 1_555
O16 C13 1_555 1_555
O17 Cd1 1_555 1_555
C14 C11 1_555 1_555
O18 C14 1_555 1_555
C15 H12 1_555 1_555
N6 C15 1_555 1_555
N7 Cd1 1_555 1_555
C16 N6 1_555 1_555
C17 N7 1_555 1_555
C18 C17 1_555 1_555
C19 C16 1_555 1_555
O19 Cd1 1_555 1_555
O20 C18 1_555 1_555
O21 C19 1_555 1_555
O22 C19 1_555 1_555
C20 H13 1_555 1_555
C21 C22 1_555 1_555
C22 N8 1_555 1_555
N8 Cd2 1_555 1_555
O23 Cd2 1_555 1_555
O24 C21 1_555 1_555
Na1 O15 1_555 1_555
Na2 O16 1_555 1_555
O25 Na1 1_555 1_555
O26 Na1 1_555 1_555
O27 Na2 1_555 1_555
H1W C1 1_555 1_555
H2W C2 1_555 1_555
H3W C4 1_555 1_555
N1W C3 1_555 1_555
H4W N1W 1_555 1_555
N2W C1 1_555 1_555
C5U O1 1_555 1_555
H5U C5U 1_555 1_555
H6U C5U 1_555 1_555
Cd1U N3U 1_555 1_555
Cd1Q N3Q 1_555 1_555
Cd1C N3C 1_555 1_555
Cd1H N3H 1_555 1_555
Cd1M N3M 1_555 1_555
Cd1Y N3Y 1_555 1_555
Cd1R N3R 1_555 1_555
Cd2C N6 1_555 1_555
Cd2Q N5Q 1_555 1_555
Cd2U N5U 1_555 1_555
Cd2H N5H 1_555 1_555
Cd2R N5R 1_555 1_555
Cd2Y N8Y 1_555 1_555
Cd2M N5M 1_555 1_555
Cd2J N6H 1_555 1_555
C7Q H10Q 1_555 1_555
C7C H10C 1_555 1_555
N3U C7 1_555 1_555
N3Q C7Q 1_555 1_555
N3Y C7Q 1_555 1_555
N3C C7C 1_555 1_555
N3R C7C 1_555 1_555
C8U C8 1_555 1_555
C8Q N3Q 1_555 1_555
C8Y N3Y 1_555 1_555
C8C N3C 1_555 1_555
C8R N3R 1_555 1_555
C9U C8U 1_555 1_555
C9Q C8Q 1_555 1_555
C9Y C8Y 1_555 1_555
C9C C8C 1_555 1_555
C9R C8R 1_555 1_555
O13U Cd1U 1_555 1_555
O13Q Cd1Q 1_555 1_555
O13Y Cd1Y 1_555 1_555
O13C Cd1C 1_555 1_555
O13R Cd1R 1_555 1_555
O13H Cd1H 1_555 1_555
O13M Cd1M 1_555 1_555
O14U C9U 1_555 1_555
O14Q C9Q 1_555 1_555
O14Y C9Y 1_555 1_555
O14C C9C 1_555 1_555
O14R C9R 1_555 1_555
C10Q H11Q 1_555 1_555
C10U H11U 1_555 1_555
C10C H11C 1_555 1_555
C10H H11H 1_555 1_555
C10M H11M 1_555 1_555
N4Q Cd1Q 1_555 1_555
N4U Cd1U 1_555 1_555
N4C Cd1C 1_555 1_555
N4H Cd1H 1_555 1_555
N4M Cd1M 1_555 1_555
C11Q N4Q 1_555 1_555
C11U N4U 1_555 1_555
C11C N4C 1_555 1_555
C11H N4H 1_555 1_555
C11M N4M 1_555 1_555
C12Q C11Q 1_555 1_555
C12U C11U 1_555 1_555
C12C C11C 1_555 1_555
C12H C11H 1_555 1_555
C12M C11M 1_555 1_555
N5Q C10Q 1_555 1_555
N5U C10U 1_555 1_555
N5C Cd2C 1_555 1_555
N5H C10H 1_555 1_555
N5M C10M 1_555 1_555
C13Q C12Q 1_555 1_555
C13U C12U 1_555 1_555
C13C C12C 1_555 1_555
C13H C12H 1_555 1_555
C13M C12M 1_555 1_555
O15Q Cd2Q 1_555 1_555
O15U Cd2U 1_555 1_555
O15C Cd2C 1_555 1_555
O15H Cd2H 1_555 1_555
O15M Cd2M 1_555 1_555
O15R Cd2R 1_555 1_555
O15Z Na1Z 1_555 1_555
O16Q Na1 1_555 1_555
O16U C13U 1_555 1_555
O16C C13C 1_555 1_555
O16H C13H 1_555 1_555
O16M C13M 1_555 1_555
O16Z Na1U 1_555 1_555
O17Q Cd1Q 1_555 1_555
O17U Cd1U 1_555 1_555
O17C Cd1C 1_555 1_555
O17H Cd1H 1_555 1_555
O17M Cd1M 1_555 1_555
C14Q C11Q 1_555 1_555
C14U C11U 1_555 1_555
C14C C11C 1_555 1_555
C14H C11H 1_555 1_555
C14M C11M 1_555 1_555
O18Q C14Q 1_555 1_555
O18U C14U 1_555 1_555
O18C C14C 1_555 1_555
O18H C14H 1_555 1_555
O18M C14M 1_555 1_555
O18Z Na2Z 1_555 1_555
C15C H12C 1_555 1_555
C15U H12U 1_555 1_555
C15M H12M 1_555 1_555
C15Q H12Q 1_555 1_555
C15H H12H 1_555 1_555
N6C Cd2 1_555 1_555
N6U Cd2R 1_555 1_555
N6M Cd2Q 1_555 1_555
N6Q Cd2M 1_555 1_555
N6H C15H 1_555 1_555
N6R Cd2U 1_555 1_555
N6J Cd2H 1_555 1_555
N7C Cd1C 1_555 1_555
N7U Cd1U 1_555 1_555
N7M Cd1M 1_555 1_555
N7Q Cd1Q 1_555 1_555
N7H Cd1H 1_555 1_555
C16C N6C 1_555 1_555
C16U N6U 1_555 1_555
C16M N6M 1_555 1_555
C16Q N6Q 1_555 1_555
C16H N6H 1_555 1_555
C17C N7C 1_555 1_555
C17U N7U 1_555 1_555
C17M N7M 1_555 1_555
C17Q N7Q 1_555 1_555
C17H N7H 1_555 1_555
C18C C17C 1_555 1_555
C18U C17U 1_555 1_555
C18M C17M 1_555 1_555
C18Q C17Q 1_555 1_555
C18H C17H 1_555 1_555
C19C C16C 1_555 1_555
C19U C16U 1_555 1_555
C19M C16M 1_555 1_555
C19Q C16Q 1_555 1_555
C19H C16H 1_555 1_555
O19C Cd1C 1_555 1_555
O19U Cd1U 1_555 1_555
O19M Cd1M 1_555 1_555
O19Q Cd1Q 1_555 1_555
O19H Cd1H 1_555 1_555
O20C C18C 1_555 1_555
O20U C18U 1_555 1_555
O20M C18M 1_555 1_555
O20Q C18Q 1_555 1_555
O20H C18H 1_555 1_555
O21C Cd2 1_555 1_555
O21U Cd2R 1_555 1_555
O21M Cd2Q 1_555 1_555
O21Q Cd2M 1_555 1_555
O21H Cd2J 1_555 1_555
O21R Cd2U 1_555 1_555
O21J Cd2H 1_555 1_555
O21BA Na1Z 1_555 1_555
O22C C19C 1_555 1_555
O22U C19U 1_555 1_555
O22M C19M 1_555 1_555
O22Q C19Q 1_555 1_555
O22H C19H 1_555 1_555
C20Q H13Q 1_555 1_555
C20C H13C 1_555 1_555
C21U C22U 1_555 1_555
C21Q C22Q 1_555 1_555
C21Y C22Y 1_555 1_555
C21C C22C 1_555 1_555
C21R C22R 1_555 1_555
C22U C22 1_555 1_555
C22Q C22Y 1_555 1_555
C22Y N8Y 1_555 1_555
C22C C22R 1_555 1_555
C22R N8R 1_555 1_555
N8U C20 1_555 1_555
N8Q Cd2Q 1_555 1_555
N8Y C20Q 1_555 1_555
N8C Cd2C 1_555 1_555
N8R Cd2R 1_555 1_555
N8H Cd2H 1_555 1_555
O23U Cd2U 1_555 1_555
O23Q Na2 1_555 1_555
O23Y Cd2Y 1_555 1_555
O23C Cd2C 1_555 1_555
O23R Cd2R 1_555 1_555
O23H Cd2H 1_555 1_555
O23Z Na1Z 1_555 1_555
O24U C21U 1_555 1_555
O24Q Na2 1_555 1_555
O24Y C21Y 1_555 1_555
O24C C21C 1_555 1_555
O24R C21R 1_555 1_555
O24Z Na2U 1_555 1_555
O24H Na2C 1_555 1_555
Na1Q O16 1_555 1_555
Na1C O21 1_555 1_555
Na1U O15U 1_555 1_555
Na1H O15H 1_555 1_555
Na1Z O16U 1_555 1_555
Na1Y O23Y 1_555 1_555
Na1R O15R 1_555 1_555
Na1M O15M 1_555 1_555
Na1J O21H 1_555 1_555
Na1J_2 O16M 1_555 1_555
Na2Q O23 1_555 1_555
Na2U O16U 1_555 1_555
Na2C O16C 1_555 1_555
Na2H O16H 1_555 1_555
Na2Z O16Z 1_555 1_555
Na2V O23Y 1_555 1_555
Na2IA O23R 1_555 1_555
Na2M O16M 1_555 1_555
O25C Na1C 1_555 1_555
O25U Na1U 1_555 1_555
O26Q Na2 1_555 1_555
O26C Na1C 1_555 1_555
O26U Na1U 1_555 1_555
O26H Na1H 1_555 1_555
O26Z Na1Z 1_555 1_555
O27Q Na2Q 1_555 1_555
O27U Na2U 1_555 1_555
O27C Na2C 1_555 1_555
O27H Na2H 1_555 1_555
O27Z Na2Z 1_555 1_555
C2 N2 1_555 1_555
C2 N2W 1_555 1_555
C4 N1 1_555 1_555
C4 N1W 1_555 1_555
N1 N1W 1_555 1_555
N2 N2W 1_555 1_555
C9 O13 1_555 1_555
C10 N4 1_555 1_555
C12 N5 1_555 1_555
C13 O15 1_555 1_555
O17 C14 1_555 1_555
O18 Na2 1_555 1_555
C15 N7 1_555 1_555
C16 C17 1_555 1_555
C18 O19 1_555 1_555
O21 Cd2C 1_555 1_555
C20 N8 1_555 1_555
C21 O23 1_555 1_555
O23 Na1 1_555 1_555
O24 Na2Q 1_555 1_555
Na1 O21C 1_555 1_555
O25 Na1Q 1_555 1_555
O26 Na2Q 1_555 1_555
Cd2Q O23Q 1_555 1_555
Cd2U N8U 1_555 1_555
N3U C8U 1_555 1_555
C8Q C8Y 1_555 1_555
C8C C8R 1_555 1_555
C9U O13U 1_555 1_555
C9Q O13Q 1_555 1_555
C9Y O13Y 1_555 1_555
C9C O13C 1_555 1_555
C9R O13R 1_555 1_555
C10Q N4Q 1_555 1_555
C10U N4U 1_555 1_555
C10C N4C 1_555 1_555
C10C N5C 1_555 1_555
C10H N4H 1_555 1_555
C10M N4M 1_555 1_555
C12Q N5Q 1_555 1_555
C12U N5U 1_555 1_555
C12C N5C 1_555 1_555
C12H N5H 1_555 1_555
C12M N5M 1_555 1_555
C13Q O15Q 1_555 1_555
C13Q O16Q 1_555 1_555
C13U O15U 1_555 1_555
C13C O15C 1_555 1_555
C13H O15H 1_555 1_555
C13M O15M 1_555 1_555
O15Q Na1Q 1_555 1_555
O15C Na1C 1_555 1_555
O16Q Na2Q 1_555 1_555
O16C Na1H 1_555 1_555
O16H Na1C 1_555 1_555
O17Q C14Q 1_555 1_555
O17U C14U 1_555 1_555
O17C C14C 1_555 1_555
O17H C14H 1_555 1_555
O17M C14M 1_555 1_555
O18Q Na2Q 1_555 1_555
O18U Na2U 1_555 1_555
O18C Na2C 1_555 1_555
O18H Na2H 1_555 1_555
O18M Na2M 1_555 1_555
C15C N6C 1_555 1_555
C15C N7C 1_555 1_555
C15U N6U 1_555 1_555
C15U N7U 1_555 1_555
C15M N6M 1_555 1_555
C15M N7M 1_555 1_555
C15Q N6Q 1_555 1_555
C15Q N7Q 1_555 1_555
C15H N7H 1_555 1_555
C16C C17C 1_555 1_555
C16U C17U 1_555 1_555
C16M C17M 1_555 1_555
C16Q C17Q 1_555 1_555
C16H C17H 1_555 1_555
C18C O19C 1_555 1_555
C18U O19U 1_555 1_555
C18M O19M 1_555 1_555
C18Q O19Q 1_555 1_555
C18H O19H 1_555 1_555
C19C O21C 1_555 1_555
C19U O21U 1_555 1_555
C19M O21M 1_555 1_555
C19Q O21Q 1_555 1_555
C19H O21H 1_555 1_555
O21U Na1R 1_555 1_555
O21M Na1Q 1_555 1_555
O21Q Na1M 1_555 1_555
O21R Na1U 1_555 1_555
O21J Na1H 1_555 1_555
C20Q N8Q 1_555 1_555
C20C N8C 1_555 1_555
C20C N8R 1_555 1_555
C21U O23U 1_555 1_555
C21Q O23Q 1_555 1_555
C21Q O24Q 1_555 1_555
C21Y O23Y 1_555 1_555
C21C O23C 1_555 1_555
C21R O23R 1_555 1_555
C22U N8U 1_555 1_555
C22Q N8Q 1_555 1_555
C22C N8C 1_555 1_555
O23U Na1U 1_555 1_555
O23U Na2Z 1_555 1_555
O23Q Na1Q 1_555 1_555
O23C Na1C 1_555 1_555
O23C Na2H 1_555 1_555
O23R Na1R 1_555 1_555
O23H Na1H 1_555 1_555
O23H Na2C 1_555 1_555
O23Z Na2U 1_555 1_555
O24U Na2Z 1_555 1_555
O24Y Na2V 1_555 1_555
O24C Na2H 1_555 1_555
O24R Na2IA 1_555 1_555
Na1Q O26Q 1_555 1_555
Na1H O25C 1_555 1_555
Na1Z O25U 1_555 1_555
Na2U O26Z 1_555 1_555
Na2C O26H 1_555 1_555
Na2H O26C 1_555 1_555
Na2Z O26U 1_555 1_555

#END
