
#######################################################################
#
#                 Cambridge Crystallographic Data Centre
#                                CCDC 
#
#######################################################################
#
# If this CIF has been generated from an entry in the Cambridge 
# Structural Database, then it will include bibliographic, chemical, 
# crystal, experimental, refinement or atomic coordinate data resulting 
# from the CCDC's data processing and validation procedures.
#
#######################################################################

data_LUXLUM
_symmetry_cell_setting           cubic
_symmetry_space_group_name_H-M   'I m -3'
_symmetry_Int_Tables_number      204
_space_group_name_Hall           '-I 2 2 3'
loop_
_symmetry_equiv_pos_site_id
_symmetry_equiv_pos_as_xyz
1 x,y,z
2 -x,-y,z
3 -x,y,-z
4 x,-y,-z
5 z,x,y
6 z,-x,-y
7 -z,-x,y
8 -z,x,-y
9 y,z,x
10 -y,z,-x
11 y,-z,-x
12 -y,-z,x
13 1/2+x,1/2+y,1/2+z
14 1/2-x,1/2-y,1/2+z
15 1/2-x,1/2+y,1/2-z
16 1/2+x,1/2-y,1/2-z
17 1/2+z,1/2+x,1/2+y
18 1/2+z,1/2-x,1/2-y
19 1/2-z,1/2-x,1/2+y
20 1/2-z,1/2+x,1/2-y
21 1/2+y,1/2+z,1/2+x
22 1/2-y,1/2+z,1/2-x
23 1/2+y,1/2-z,1/2-x
24 1/2-y,1/2-z,1/2+x
25 -x,-y,-z
26 x,y,-z
27 x,-y,z
28 -x,y,z
29 -z,-x,-y
30 -z,x,y
31 z,x,-y
32 z,-x,y
33 -y,-z,-x
34 y,-z,x
35 -y,z,x
36 y,z,-x
37 1/2-x,1/2-y,1/2-z
38 1/2+x,1/2+y,1/2-z
39 1/2+x,1/2-y,1/2+z
40 1/2-x,1/2+y,1/2+z
41 1/2-z,1/2-x,1/2-y
42 1/2-z,1/2+x,1/2+y
43 1/2+z,1/2+x,1/2-y
44 1/2+z,1/2-x,1/2+y
45 1/2-y,1/2-z,1/2-x
46 1/2+y,1/2-z,1/2+x
47 1/2-y,1/2+z,1/2+x
48 1/2+y,1/2+z,1/2-x
_cell_length_a                   23.1603(12)
_cell_length_b                   23.1603(12)
_cell_length_c                   23.1603(12)
_cell_angle_alpha                90
_cell_angle_beta                 90
_cell_angle_gamma                90
_cell_volume                     12423.2
loop_
_atom_site_label
_atom_site_type_symbol
_atom_site_fract_x
_atom_site_fract_y
_atom_site_fract_z
Co1 Co 0.2500 -0.2500 -0.7500
O9 O 0.1758(4) -0.2759(3) -0.7912(3)
N1 N 0.1747(4) -0.2783(4) -0.8493(3)
C1 C 0.2117(5) -0.3157(4) -0.8767(4)
H1 H 0.2372 -0.3389 -0.8560
C2 C 0.2095(4) -0.3174(5) -0.9357(4)
H2 H 0.2343 -0.3421 -0.9554
C3 C 0.1704(4) -0.2825(4) -0.9679(4)
C4 C 0.1351(7) -0.2490(6) -0.9374(6)
H3 H 0.1083 -0.2263 -0.9568
C5 C 0.1367(5) -0.2468(5) -0.8769(5)
H4 H 0.1112 -0.2233 -0.8567
Co1M Co 0.2500 -0.2500 -1.2500
Co1O Co -0.2500 -0.2500 -0.7500
Co1N Co 0.2500 0.2500 -0.7500
O9Y O 0.1758(4) -0.2759(3) -1.2088(3)
O9E O 0.2088(3) -0.1758(4) -0.7241(3)
O9BA O -0.2088(3) -0.1758(4) -0.7241(3)
O9K O 0.2759(3) -0.2088(3) -0.8242(4)
O9HA O 0.2759(3) 0.2088(3) -0.8242(4)
O9JA O 0.3242(4) -0.2241(3) -0.7088(3)
O9OA O 0.2912(3) -0.3242(4) -0.7759(3)
O9UA O 0.2241(3) -0.2912(3) -0.6758(4)
N1Y N 0.1747(4) -0.2783(4) -1.1507(3)
N1E N 0.1507(3) -0.1747(4) -0.7217(4)
N1BA N -0.1507(3) -0.1747(4) -0.7217(4)
N1K N 0.2783(4) -0.1507(3) -0.8253(4)
N1HA N 0.2783(4) 0.1507(3) -0.8253(4)
C1Y C 0.2117(5) -0.3157(4) -1.1233(4)
C1E C 0.1233(4) -0.2117(5) -0.6843(4)
C1BA C -0.1233(4) -0.2117(5) -0.6843(4)
C1K C 0.3157(4) -0.1233(4) -0.7883(5)
C1HA C 0.3157(4) 0.1233(4) -0.7883(5)
H1Y H 0.2372 -0.3389 -1.1440
H1E H 0.1440 -0.2372 -0.6611
H1BA H -0.1440 -0.2372 -0.6611
H1K H 0.3389 -0.1440 -0.7628
H1HA H 0.3389 0.1440 -0.7628
C2Y C 0.2095(4) -0.3174(5) -1.0643(4)
C2E C 0.0643(4) -0.2095(4) -0.6826(5)
C2BA C -0.0643(4) -0.2095(4) -0.6826(5)
C2K C 0.3174(5) -0.0643(4) -0.7905(4)
C2HA C 0.3174(5) 0.0643(4) -0.7905(4)
H2Y H 0.2343 -0.3421 -1.0446
H2E H 0.0446 -0.2343 -0.6579
H2BA H -0.0446 -0.2343 -0.6579
H2K H 0.3421 -0.0446 -0.7657
H2HA H 0.3421 0.0446 -0.7657
C3Y C 0.1704(4) -0.2825(4) -1.0321(4)
C3E C 0.0321(4) -0.1704(4) -0.7175(4)
C3BA C -0.0321(4) -0.1704(4) -0.7175(4)
C3K C 0.2825(4) -0.0321(4) -0.8296(4)
C3HA C 0.2825(4) 0.0321(4) -0.8296(4)
C4Y C 0.1351(7) -0.2490(6) -1.0626(6)
C4E C 0.0626(6) -0.1351(7) -0.7510(6)
C4BA C -0.0626(6) -0.1351(7) -0.7510(6)
C4K C 0.2490(6) -0.0626(6) -0.8649(7)
C4HA C 0.2490(6) 0.0626(6) -0.8649(7)
H3Y H 0.1083 -0.2263 -1.0432
H3E H 0.0432 -0.1083 -0.7737
H3BA H -0.0432 -0.1083 -0.7737
H3K H 0.2263 -0.0432 -0.8917
H3HA H 0.2263 0.0432 -0.8917
C5Y C 0.1367(5) -0.2468(5) -1.1231(5)
C5E C 0.1231(5) -0.1367(5) -0.7532(5)
C5BA C -0.1231(5) -0.1367(5) -0.7532(5)
C5K C 0.2468(5) -0.1231(5) -0.8633(5)
C5HA C 0.2468(5) 0.1231(5) -0.8633(5)
H4Y H 0.1112 -0.2233 -1.1433
H4E H 0.1433 -0.1112 -0.7767
H4BA H -0.1433 -0.1112 -0.7767
H4K H 0.2233 -0.1433 -0.8888
H4HA H 0.2233 0.1433 -0.8888
N2 N 0.5000 0.2389(8) 0.3285(11)
C6 C 0.5000 0.1984(8) 0.2921(9)
C7 C 0.5000 0.1543(14) 0.2492(11)
H7 H 0.4743 0.1649 0.2185
H7AA H 0.5257 0.1649 0.2185
O10 O 0.0000 -0.1644(11) -0.1021(16)
O11 O 0.1006(6) 0.1006(6) 0.1006(6)
O12 O 0.0000 0.0000 0.0000
W1 W 0.576515(19) 0.10865(2) 0.076887(19)
W2 W 0.65335(3) 0.0000 0.0000
W3 W 0.5000 0.0000 0.15426(4)
P1 P 0.5000 0.0000 0.0000
O1 O 0.5000 0.0412(8) 0.0553(7)
O2 O 0.7265(8) 0.0000 0.0000
O3 O 0.6106(5) 0.1615(5) 0.1124(5)
O4 O 0.5000 0.0000 0.2279(7)
O5 O 0.6373(6) 0.0562(5) 0.0557(4)
O6 O 0.5558(5) 0.0540(6) 0.1352(6)
O7 O 0.5808(7) 0.1361(7) 0.0000
O8 O 0.5000 0.1252(11) 0.0672(11)
W1C W 0.576515(19) -0.10865(2) -0.076887(19)
W1Y W 0.576515(19) 0.10865(2) -0.076887(19)
W1Z W 0.576515(19) -0.10865(2) 0.076887(19)
W1B W 0.423485(19) 0.10865(2) -0.076887(19)
W1A W 0.423485(19) -0.10865(2) 0.076887(19)
W1AA W 0.423485(19) 0.10865(2) 0.076887(19)
W1X W 0.423485(19) -0.10865(2) -0.076887(19)
W2A W 0.34665(3) 0.0000 0.0000
W3B W 0.5000 0.0000 -0.15426(4)
O1C O 0.5000 -0.0412(8) -0.0553(7)
O1B O 0.5000 0.0412(8) -0.0553(7)
O1A O 0.5000 -0.0412(8) 0.0553(7)
O2A O 0.2735(8) 0.0000 0.0000
O3C O 0.6106(5) -0.1615(5) -0.1124(5)
O3Y O 0.6106(5) 0.1615(5) -0.1124(5)
O3Z O 0.6106(5) -0.1615(5) 0.1124(5)
O3B O 0.3894(5) 0.1615(5) -0.1124(5)
O3A O 0.3894(5) -0.1615(5) 0.1124(5)
O3AA O 0.3894(5) 0.1615(5) 0.1124(5)
O3X O 0.3894(5) -0.1615(5) -0.1124(5)
O4B O 0.5000 0.0000 -0.2279(7)
O5C O 0.6373(6) -0.0562(5) -0.0557(4)
O5Y O 0.6373(6) 0.0562(5) -0.0557(4)
O5Z O 0.6373(6) -0.0562(5) 0.0557(4)
O5B O 0.3627(6) 0.0562(5) -0.0557(4)
O5A O 0.3627(6) -0.0562(5) 0.0557(4)
O5AA O 0.3627(6) 0.0562(5) 0.0557(4)
O5X O 0.3627(6) -0.0562(5) -0.0557(4)
O6C O 0.5558(5) -0.0540(6) -0.1352(6)
O6Y O 0.5558(5) 0.0540(6) -0.1352(6)
O6Z O 0.5558(5) -0.0540(6) 0.1352(6)
O6A O 0.4442(5) -0.0540(6) 0.1352(6)
O6AA O 0.4442(5) 0.0540(6) 0.1352(6)
O6B O 0.4442(5) 0.0540(6) -0.1352(6)
O6X O 0.4442(5) -0.0540(6) -0.1352(6)
O7C O 0.5808(7) -0.1361(7) 0.0000
O7B O 0.4192(7) 0.1361(7) 0.0000
O7A O 0.4192(7) -0.1361(7) 0.0000
O8C O 0.5000 -0.1252(11) -0.0672(11)
O8B O 0.5000 0.1252(11) -0.0672(11)
O8A O 0.5000 -0.1252(11) 0.0672(11)
H5? H 0.5384 0.1496 0.2343
H6? H 0.4873 0.1186 0.2661
O13? O 0.4488(8) 0.0344(9) 0.0000
O14? O 0.5000 0.1488(9) 0.0910(9)
loop_
_geom_bond_atom_site_label_1
_geom_bond_atom_site_label_2
_geom_bond_site_symmetry_1
_geom_bond_site_symmetry_2
W1 O1 1_555 1_555
W2 O2 1_555 1_555
W3 O1 1_555 1_555
P1 O1 1_555 1_555
O1 W1AA 1_555 1_555
O3 W1 1_555 1_555
O4 W3 1_555 1_555
O5 W1 1_555 1_555
O6 W1 1_555 1_555
O7 W1 1_555 1_555
O8 W1 1_555 1_555
Co1 O9 1_555 1_555
O9 N1 1_555 1_555
N1 C1 1_555 1_555
C1 H1 1_555 1_555
C2 C1 1_555 1_555
H2 C2 1_555 1_555
C3 C2 1_555 1_555
C4 C3 1_555 1_555
H3 C4 1_555 1_555
C5 N1 1_555 1_555
H4 C5 1_555 1_555
N2 C6 1_555 1_555
C6 C7 1_555 1_555
C7 H7 1_555 1_555
W1C O1C 1_555 1_555
W1Y O7 1_555 1_555
W1Z O1A 1_555 1_555
W1B O1B 1_555 1_555
W1A O1A 1_555 1_555
W1AA O8 1_555 1_555
W1X O1C 1_555 1_555
W2A O2A 1_555 1_555
W3B O1C 1_555 1_555
O1C P1 1_555 1_555
O1B P1 1_555 1_555
O1A W3 1_555 1_555
O3C W1C 1_555 1_555
O3Y W1Y 1_555 1_555
O3Z W1Z 1_555 1_555
O3B W1B 1_555 1_555
O3A W1A 1_555 1_555
O3AA W1AA 1_555 1_555
O3X W1X 1_555 1_555
O4B W3B 1_555 1_555
O5C W2 1_555 1_555
O5Y W2 1_555 1_555
O5Z W2 1_555 1_555
O5B W1B 1_555 1_555
O5A W1A 1_555 1_555
O5AA W1AA 1_555 1_555
O5X W1X 1_555 1_555
O6C W1C 1_555 1_555
O6Y W1Y 1_555 1_555
O6Z W3 1_555 1_555
O6A W3 1_555 1_555
O6AA W3 1_555 1_555
O6B W1B 1_555 1_555
O6X W1X 1_555 1_555
O7C W1C 1_555 1_555
O7B W1B 1_555 1_555
O7A W1A 1_555 1_555
O8C W1C 1_555 1_555
O8B W1Y 1_555 1_555
O8A W1Z 1_555 1_555
Co1M O9Y 1_555 1_555
Co1O O9BA 1_555 1_555
Co1N O9HA 1_555 1_555
O9Y N1Y 1_555 1_555
O9E Co1 1_555 1_555
O9BA N1BA 1_555 1_555
O9K Co1 1_555 1_555
O9HA N1HA 1_555 1_555
O9JA Co1 1_555 1_555
O9OA Co1 1_555 1_555
O9UA Co1 1_555 1_555
N1Y C1Y 1_555 1_555
N1E O9E 1_555 1_555
N1BA C1BA 1_555 1_555
N1K O9K 1_555 1_555
N1HA C1HA 1_555 1_555
C1Y H1Y 1_555 1_555
C1E N1E 1_555 1_555
C1BA H1BA 1_555 1_555
C1K N1K 1_555 1_555
C1HA H1HA 1_555 1_555
H1E C1E 1_555 1_555
H1K C1K 1_555 1_555
C2Y C1Y 1_555 1_555
C2E C1E 1_555 1_555
C2BA C1BA 1_555 1_555
C2K C1K 1_555 1_555
C2HA C1HA 1_555 1_555
H2Y C2Y 1_555 1_555
H2E C2E 1_555 1_555
H2BA C2BA 1_555 1_555
H2K C2K 1_555 1_555
H2HA C2HA 1_555 1_555
C3Y C3 1_555 1_555
C3E C2E 1_555 1_555
C3BA C2BA 1_555 1_555
C3K C2K 1_555 1_555
C3HA C2HA 1_555 1_555
C4Y C3Y 1_555 1_555
C4E C3E 1_555 1_555
C4BA C3BA 1_555 1_555
C4K C3K 1_555 1_555
C4HA C3HA 1_555 1_555
H3Y C4Y 1_555 1_555
H3E C4E 1_555 1_555
H3BA C4BA 1_555 1_555
H3K C4K 1_555 1_555
H3HA C4HA 1_555 1_555
C5Y N1Y 1_555 1_555
C5E N1E 1_555 1_555
C5BA N1BA 1_555 1_555
C5K N1K 1_555 1_555
C5HA N1HA 1_555 1_555
H4Y C5Y 1_555 1_555
H4E C5E 1_555 1_555
H4BA C5BA 1_555 1_555
H4K C5K 1_555 1_555
H4HA C5HA 1_555 1_555
H7AA C7 1_555 1_555
W2 O5 1_555 1_555
W3 O6 1_555 1_555
P1 O1A 1_555 1_555
C4 C5 1_555 1_555
W1C O5C 1_555 1_555
W1Y O1B 1_555 1_555
W1Y O5Y 1_555 1_555
W1Z O5Z 1_555 1_555
W1Z O6Z 1_555 1_555
W1Z O7C 1_555 1_555
W1B O8B 1_555 1_555
W1A O6A 1_555 1_555
W1A O8A 1_555 1_555
W1AA O6AA 1_555 1_555
W1AA O7B 1_555 1_555
W1X O7A 1_555 1_555
W1X O8C 1_555 1_555
W2A O5B 1_555 1_555
W2A O5A 1_555 1_555
W2A O5AA 1_555 1_555
W2A O5X 1_555 1_555
W3B O1B 1_555 1_555
W3B O6C 1_555 1_555
W3B O6Y 1_555 1_555
W3B O6B 1_555 1_555
W3B O6X 1_555 1_555
C2Y C3Y 1_555 1_555
C3E C3BA 1_555 1_555
C3K C3HA 1_555 1_555
C4Y C5Y 1_555 1_555
C4E C5E 1_555 1_555
C4BA C5BA 1_555 1_555
C4K C5K 1_555 1_555
C4HA C5HA 1_555 1_555

#END
