
#######################################################################
#
#                 Cambridge Crystallographic Data Centre
#                                CCDC 
#
#######################################################################
#
# If this CIF has been generated from an entry in the Cambridge 
# Structural Database, then it will include bibliographic, chemical, 
# crystal, experimental, refinement or atomic coordinate data resulting 
# from the CCDC's data processing and validation procedures.
#
#######################################################################

data_LUXLIA
_symmetry_cell_setting           cubic
_symmetry_space_group_name_H-M   'I m -3'
_symmetry_Int_Tables_number      204
_space_group_name_Hall           '-I 2 2 3'
loop_
_symmetry_equiv_pos_site_id
_symmetry_equiv_pos_as_xyz
1 x,y,z
2 -x,-y,z
3 -x,y,-z
4 x,-y,-z
5 z,x,y
6 z,-x,-y
7 -z,-x,y
8 -z,x,-y
9 y,z,x
10 -y,z,-x
11 y,-z,-x
12 -y,-z,x
13 1/2+x,1/2+y,1/2+z
14 1/2-x,1/2-y,1/2+z
15 1/2-x,1/2+y,1/2-z
16 1/2+x,1/2-y,1/2-z
17 1/2+z,1/2+x,1/2+y
18 1/2+z,1/2-x,1/2-y
19 1/2-z,1/2-x,1/2+y
20 1/2-z,1/2+x,1/2-y
21 1/2+y,1/2+z,1/2+x
22 1/2-y,1/2+z,1/2-x
23 1/2+y,1/2-z,1/2-x
24 1/2-y,1/2-z,1/2+x
25 -x,-y,-z
26 x,y,-z
27 x,-y,z
28 -x,y,z
29 -z,-x,-y
30 -z,x,y
31 z,x,-y
32 z,-x,y
33 -y,-z,-x
34 y,-z,x
35 -y,z,x
36 y,z,-x
37 1/2-x,1/2-y,1/2-z
38 1/2+x,1/2+y,1/2-z
39 1/2+x,1/2-y,1/2+z
40 1/2-x,1/2+y,1/2+z
41 1/2-z,1/2-x,1/2-y
42 1/2-z,1/2+x,1/2+y
43 1/2+z,1/2+x,1/2-y
44 1/2+z,1/2-x,1/2+y
45 1/2-y,1/2-z,1/2-x
46 1/2+y,1/2-z,1/2+x
47 1/2-y,1/2+z,1/2+x
48 1/2+y,1/2+z,1/2-x
_cell_length_a                   23.1704(11)
_cell_length_b                   23.1704(11)
_cell_length_c                   23.1704(11)
_cell_angle_alpha                90
_cell_angle_beta                 90
_cell_angle_gamma                90
_cell_volume                     12439.4
loop_
_atom_site_label
_atom_site_type_symbol
_atom_site_fract_x
_atom_site_fract_y
_atom_site_fract_z
Co1 Co 0.2500 -0.2500 -0.2500
N1 N 0.32260(10) -0.34867(10) -0.22018(11)
C1 C 0.36143(12) -0.37911(13) -0.25413(14)
H1 H 0.3855 -0.3592 -0.2808
C2 C 0.36490(13) -0.43710(13) -0.24916(13)
H2 H 0.3937 -0.4572 -0.2702
C3 C 0.32785(11) -0.46770(12) -0.21442(11)
C4 C 0.28910(12) -0.43818(10) -0.18234(12)
H3 H 0.2616 -0.4583 -0.1595
C5 C 0.28972(13) -0.37736(10) -0.18299(13)
H4 H 0.2663 -0.3566 -0.1565
O14 O 0.32405(8) -0.29029(8) -0.22292(8)
C3Z C 0.32785(11) -0.53230(12) -0.21442(11)
O14F O 0.22292(8) -0.32405(8) -0.29029(8)
O14I O 0.29029(8) -0.22292(8) -0.32405(8)
O14JA O 0.17595(8) -0.20971(8) -0.27708(8)
O14PA O 0.27708(8) -0.17595(8) -0.20971(8)
O14SA O 0.20971(8) -0.27708(8) -0.17595(8)
N2 N 0.17174(15) 0.26549(16) 1.0000
C6 C 0.20841(18) 0.29962(18) 1.0000
C7 C 0.25319(18) 0.34806(19) 1.0000
H7 H 0.2842 0.3386 1.0271
H7Y H 0.2842 0.3386 0.9729
O15 O 0.16572(12) 0.0000 0.10267(12)
Mo1 Mo 0.34720(2) 0.0000 0.0000
Mo2 Mo 0.423593(13) 0.076982(12) 0.107924(13)
Mo3 Mo 0.5000 0.15318(2) 0.0000
P1 P 0.5000 0.0000 0.0000
O1 O 0.2771(2) 0.0000 0.0000
O2 O 0.38722(8) 0.11239(8) 0.16013(8)
O3 O 0.5000 0.22539(18) 0.0000
O4 O 0.37395(17) 0.05866(17) 0.05460(17)
O5 O 0.5000 0.0670(2) 0.1189(2)
O6 O 0.4309(2) 0.0000 0.1287(2)
O7 O 0.44124(17) 0.15041(18) 0.07145(17)
O8 O 0.4439(2) 0.0000 0.0349(2)
Mo2AA Mo 0.576407(13) 0.076982(12) 0.107924(13)
Mo2Z Mo 0.423593(13) -0.076982(12) 0.107924(13)
O4C O 0.37395(17) -0.05866(17) -0.05460(17)
O4Y O 0.37395(17) 0.05866(17) -0.05460(17)
O4Z O 0.37395(17) -0.05866(17) 0.05460(17)
O7B O 0.55876(17) 0.15041(18) -0.07145(17)
O7Y O 0.44124(17) 0.15041(18) -0.07145(17)
O7AA O 0.55876(17) 0.15041(18) 0.07145(17)
O8C O 0.4439(2) 0.0000 -0.0349(2)
O8A O 0.5561(2) 0.0000 0.0349(2)
O8B O 0.5561(2) 0.0000 -0.0349(2)
O9? O 0.5000 0.0555(2) 0.0412(2)
O10? O 0.35031(18) 0.05550(17) 0.06305(17)
O11? O 0.44343(17) 0.12789(17) 0.04332(17)
O12? O 0.4148(3) 0.0000 0.1459(3)
O13? O 0.5000 0.0906(2) 0.1456(2)
H5? H 0.2348 0.3843 1.0117
H6? H 0.2693 0.3524 0.9611
O16? O 0.10075(9) 0.10075(9) 0.10075(9)
O17? O 0.1501(2) 0.0281(2) 0.0000
K1? K 0.03420(16) 0.03420(16) 0.03420(16)
O18? O 0.03420(16) 0.03420(16) 0.03420(16)
loop_
_geom_bond_atom_site_label_1
_geom_bond_atom_site_label_2
_geom_bond_site_symmetry_1
_geom_bond_site_symmetry_2
Mo1 O1 1_555 1_555
Mo2 O2 1_555 1_555
Mo3 O3 1_555 1_555
P1 O8 1_555 1_555
O4 Mo1 1_555 1_555
O5 Mo2 1_555 1_555
O6 Mo2 1_555 1_555
O7 Mo2 1_555 1_555
O8 Mo1 1_555 1_555
Co1 O14 1_555 1_555
N1 C1 1_555 1_555
C1 H1 1_555 1_555
C2 C1 1_555 1_555
H2 C2 1_555 1_555
C3 C2 1_555 1_555
C4 C3 1_555 1_555
H3 C4 1_555 1_555
C5 N1 1_555 1_555
H4 C5 1_555 1_555
O14 N1 1_555 1_555
N2 C6 1_555 1_555
C6 C7 1_555 1_555
C7 H7 1_555 1_555
Mo2AA O5 1_555 1_555
Mo2Z O6 1_555 1_555
O4C Mo1 1_555 1_555
O4Y Mo1 1_555 1_555
O4Z Mo1 1_555 1_555
O7B Mo3 1_555 1_555
O7Y Mo3 1_555 1_555
O7AA Mo3 1_555 1_555
O8C Mo1 1_555 1_555
O8A P1 1_555 1_555
O8B P1 1_555 1_555
C3Z C3 1_555 1_555
O14F Co1 1_555 1_555
O14I Co1 1_555 1_555
O14JA Co1 1_555 1_555
O14PA Co1 1_555 1_555
O14SA Co1 1_555 1_555
H7Y C7 1_555 1_555
Mo2 O4 1_555 1_555
Mo3 O7 1_555 1_555
P1 O8C 1_555 1_555
O8 O8C 1_555 1_555
C4 C5 1_555 1_555
Mo2AA O7AA 1_555 1_555
Mo2Z O4Z 1_555 1_555
O8A O8B 1_555 1_555

#END
