
#######################################################################
#
#                 Cambridge Crystallographic Data Centre
#                                CCDC 
#
#######################################################################
#
# If this CIF has been generated from an entry in the Cambridge 
# Structural Database, then it will include bibliographic, chemical, 
# crystal, experimental, refinement or atomic coordinate data resulting 
# from the CCDC's data processing and validation procedures.
#
#######################################################################

data_LUXMOG
_symmetry_cell_setting           rhombohedral
_symmetry_space_group_name_H-M   'R 3 2'
_symmetry_Int_Tables_number      155
_space_group_name_Hall           'R 3 2"'
loop_
_symmetry_equiv_pos_site_id
_symmetry_equiv_pos_as_xyz
1 x,y,z
2 -y,x-y,z
3 -x+y,-x,z
4 y,x,-z
5 x-y,-y,-z
6 -x,-x+y,-z
7 2/3+x,1/3+y,1/3+z
8 2/3-y,1/3+x-y,1/3+z
9 2/3-x+y,1/3-x,1/3+z
10 2/3+y,1/3+x,1/3-z
11 2/3+x-y,1/3-y,1/3-z
12 2/3-x,1/3-x+y,1/3-z
13 1/3+x,2/3+y,2/3+z
14 1/3-y,2/3+x-y,2/3+z
15 1/3-x+y,2/3-x,2/3+z
16 1/3+y,2/3+x,2/3-z
17 1/3+x-y,2/3-y,2/3-z
18 1/3-x,2/3-x+y,2/3-z
_cell_length_a                   15.9466(2)
_cell_length_b                   15.9466(2)
_cell_length_c                   25.4083(5)
_cell_angle_alpha                90
_cell_angle_beta                 90
_cell_angle_gamma                120.00
_cell_volume                     5595.55
loop_
_atom_site_label
_atom_site_type_symbol
_atom_site_fract_x
_atom_site_fract_y
_atom_site_fract_z
I1 I 0.70119(7) 0.03452(7) 0.1667
I2 I 0.3333 0.03421(12) 0.1667
Cr1 Cr 0.6667 0.3333 0.11185(8)
C1 C 0.6025(11) 0.2076(5) 0.0652(3)
N1 N 0.5710(10) 0.1356(5) 0.0431(3)
N2 N 0.7221(9) 0.2661(10) 0.1598(3)
H1 H 0.6807(25) 0.1916(44) 0.1540(4)
H2 H 0.7922(40) 0.2877(14) 0.1473(8)
C2 C 0.7251(12) 0.2856(12) 0.2179(3)
H3 H 0.7581(12) 0.2552(12) 0.2352(3)
C3 C 0.7708(6) 0.3860(14) 0.2355(4)
H4 H 0.8362(6) 0.4210(14) 0.2217(4)
H5 H 0.7752(6) 0.3874(14) 0.2736(4)
Ni1 Ni 0.5001(2) 0.0000 0.0000
N3 N 0.5920(13) -0.0319(14) 0.0393(6)
N5 N 0.3810(8) -0.0451(8) 0.0486(4)
C4 C 0.3012(9) -0.0476(9) 0.0146(5)
C5 C 0.6767(10) -0.0032(14) -0.0072(6)
C7 C 0.3588(14) -0.1587(13) 0.0692(7)
C9 C 0.4574(16) -0.1487(15) 0.0955(9)
C11 C 0.5408(14) -0.1298(14) 0.0609(7)
C1A C 0.7924(5) 0.3949(12) 0.0652(3)
C1B C 0.6051(12) 0.3975(11) 0.0652(3)
N2A N 0.7339(10) 0.4560(13) 0.1598(3)
N2B N 0.5440(13) 0.2779(9) 0.1598(3)
C3B C 0.6152(15) 0.2292(6) 0.2355(4)
C2A C 0.7144(12) 0.4395(17) 0.2179(3)
N3D N 0.6239(19) 0.0319(14) -0.0393(6)
N5D N 0.4261(11) 0.0451(8) -0.0486(4)
N1D N 0.4354(11) -0.1356(5) -0.0431(3)
C5D C 0.6799(17) 0.0032(14) 0.0072(6)
C4D C 0.3488(13) 0.0476(9) -0.0146(5)
N4? N 0.5434(10) -0.0713(10) 0.0561(5)
C6? C 0.6185(12) -0.0854(12) 0.0280(6)
C8? C 0.3290(15) -0.1326(14) 0.0775(7)
C10? C 0.4058(12) -0.1397(12) 0.1116(7)
C12? C 0.4817(20) -0.1494(17) 0.0830(9)
loop_
_geom_bond_atom_site_label_1
_geom_bond_atom_site_label_2
_geom_bond_site_symmetry_1
_geom_bond_site_symmetry_2
Cr1 C1 1_555 1_555
C1 N1 1_555 1_555
N1 Ni1 1_555 1_555
N2 Cr1 1_555 1_555
H1 N2 1_555 1_555
H2 N2 1_555 1_555
C2 N2 1_555 1_555
H3 C2 1_555 1_555
C3 C2 1_555 1_555
H4 C3 1_555 1_555
H5 C3 1_555 1_555
Ni1 N3 1_555 1_555
N3 C5 1_555 1_555
N5 Ni1 1_555 1_555
C4 N5 1_555 1_555
C5 N3D 1_555 1_555
C7 N5 1_555 1_555
C9 C7 1_555 1_555
C11 N3 1_555 1_555
C1A Cr1 1_555 1_555
C1B Cr1 1_555 1_555
N2A Cr1 1_555 1_555
N2B Cr1 1_555 1_555
C3B C2 1_555 1_555
C2A C3 1_555 1_555
N3D Ni1 1_555 1_555
N5D Ni1 1_555 1_555
N1D Ni1 1_555 1_555
C5D N3 1_555 1_555
C4D C4 1_555 1_555
C5 C5D 1_555 1_555
C9 C11 1_555 1_555
N2A C2A 1_555 1_555
N3D C5D 1_555 1_555
N5D C4D 1_555 1_555

#END
