
#######################################################################
#
#                 Cambridge Crystallographic Data Centre
#                                CCDC 
#
#######################################################################
#
# If this CIF has been generated from an entry in the Cambridge 
# Structural Database, then it will include bibliographic, chemical, 
# crystal, experimental, refinement or atomic coordinate data resulting 
# from the CCDC's data processing and validation procedures.
#
#######################################################################

data_LUXMUM
_symmetry_cell_setting           rhombohedral
_symmetry_space_group_name_H-M   'R -3'
_symmetry_Int_Tables_number      148
_space_group_name_Hall           '-R 3'
loop_
_symmetry_equiv_pos_site_id
_symmetry_equiv_pos_as_xyz
1 x,y,z
2 -y,x-y,z
3 -x+y,-x,z
4 2/3+x,1/3+y,1/3+z
5 2/3-y,1/3+x-y,1/3+z
6 2/3-x+y,1/3-x,1/3+z
7 1/3+x,2/3+y,2/3+z
8 2/3+y,1/3-x+y,1/3-z
9 2/3+x-y,1/3+x,1/3-z
10 -x,-y,-z
11 y,-x+y,-z
12 x-y,x,-z
13 1/3-x,2/3-y,2/3-z
14 1/3+y,2/3-x+y,2/3-z
15 1/3+x-y,2/3+x,2/3-z
16 2/3-x,1/3-y,1/3-z
17 1/3-y,2/3+x-y,2/3+z
18 1/3-x+y,2/3-x,2/3+z
_cell_length_a                   15.8616(2)
_cell_length_b                   15.8616(2)
_cell_length_c                   25.0846(5)
_cell_angle_alpha                90
_cell_angle_beta                 90
_cell_angle_gamma                120.00
_cell_volume                     5465.52
loop_
_atom_site_label
_atom_site_type_symbol
_atom_site_fract_x
_atom_site_fract_y
_atom_site_fract_z
Cr1 Cr 0.6667 0.3333 0.04255(2)
C1 C 0.73555(15) 0.28336(15) 0.09309(8)
N1 N 0.77270(14) 0.25864(14) 0.12364(8)
N2 N 0.78896(13) 0.40194(13) -0.00581(7)
H1 H 0.82105(13) 0.46561(13) 0.00265(7)
H2 H 0.82824(13) 0.37810(13) 0.00248(7)
C2 C 0.7741(2) 0.3939(2) -0.06473(8)
H3 H 0.8379(2) 0.4298(2) -0.08205(8)
C3 C 0.7262(2) 0.2871(2) -0.08177(9)
H4 H 0.7299(2) 0.2842(2) -0.12027(9)
H5 H 0.7627(2) 0.2588(2) -0.06665(9)
Cu1 Cu 0.8333 0.1667 0.1667
N3 N 0.94569(13) 0.21988(14) 0.11414(7)
H6 H 0.93293(13) 0.25289(14) 0.08870(7)
N4 N 0.74322(13) 0.05078(13) 0.12039(7)
H7 H 0.71662(13) 0.07264(13) 0.09570(7)
C4 C 0.9625(2) 0.1476(2) 0.08622(9)
H8 H 0.9805(2) 0.1138(2) 0.11204(9)
H9 H 1.0162(2) 0.1809(2) 0.06148(9)
C5 C 0.8723(2) 0.0734(2) 0.05579(9)
H10 H 0.8498(2) 0.1082(2) 0.03350(9)
H11 H 0.8905(2) 0.0364(2) 0.03245(9)
C6 C 0.7887(2) 0.0029(2) 0.09099(9)
H12 H 0.7397(2) -0.0487(2) 0.06903(9)
H13 H 0.8126(2) -0.0264(2) 0.11633(9)
C7 C 1.0331(2) 0.2923(2) 0.14335(10)
H14 H 1.0833(2) 0.3346(2) 0.11845(10)
H15 H 1.0585(2) 0.2596(2) 0.16524(10)
C8 C 0.6634(2) -0.0178(2) 0.15531(10)
H16 H 0.6086(2) -0.0640(2) 0.13402(10)
H17 H 0.6850(2) -0.0536(2) 0.17734(10)
C2B C 0.6198(3) 0.2259(2) -0.06473(8)
N2B N 0.61298(18) 0.21104(13) -0.00581(7)
H1B H 0.64456(18) 0.17895(13) 0.00265(7)
H2B H 0.54986(18) 0.17176(13) 0.00248(7)
H3B H 0.5919(3) 0.1621(2) -0.08205(8)
C3B C 0.5609(3) 0.2738(2) -0.08177(9)
C2A C 0.6061(2) 0.3802(3) -0.06473(8)
N2A N 0.59806(13) 0.38702(18) -0.00581(7)
H1A H 0.53439(13) 0.35544(18) 0.00265(7)
H2A H 0.62190(13) 0.45014(18) 0.00248(7)
H3A H 0.5702(2) 0.4081(3) -0.08205(8)
C3A C 0.7129(2) 0.4391(3) -0.08177(9)
H4A H 0.7158(2) 0.4457(3) -0.12027(9)
H5A H 0.7412(2) 0.5039(3) -0.06665(9)
H4B H 0.5543(3) 0.2701(2) -0.12027(9)
H5B H 0.4961(3) 0.2373(2) -0.06665(9)
C7O C 0.6336(2) 0.0410(2) 0.18998(10)
N3O N 0.72098(13) 0.11345(14) 0.21919(7)
H6O H 0.73374(13) 0.08044(14) 0.24463(7)
C4O C 0.7042(2) 0.1857(2) 0.24711(9)
H8O H 0.6862(2) 0.2195(2) 0.22129(9)
H9O H 0.6505(2) 0.1524(2) 0.27185(9)
C5O C 0.7944(2) 0.2599(2) 0.27754(9)
H10O H 0.8169(2) 0.2251(2) 0.29983(9)
H11O H 0.7762(2) 0.2969(2) 0.30088(9)
C6O C 0.8780(2) 0.3304(2) 0.24234(9)
N4O N 0.92345(13) 0.28255(13) 0.21294(7)
H7O H 0.95005(13) 0.26069(13) 0.23763(7)
C8O C 1.0033(2) 0.3511(2) 0.17802(10)
H16O H 1.0581(2) 0.3973(2) 0.19931(10)
H17O H 0.9817(2) 0.3869(2) 0.15599(10)
H12O H 0.9270(2) 0.3820(2) 0.26430(9)
H13O H 0.8541(2) 0.3597(2) 0.21700(9)
H14O H 0.5834(2) -0.0013(2) 0.21488(10)
H15O H 0.6082(2) 0.0737(2) 0.16809(10)
C1A C 0.71664(15) 0.45219(21) 0.09309(8)
N1A N 0.74136(14) 0.51406(20) 0.12364(8)
C1B C 0.54781(21) 0.26445(15) 0.09309(8)
N1B N 0.48594(20) 0.22730(14) 0.12364(8)
Cu1A Cu 0.8333 0.6666 0.1667
Cu1B Cu 0.3334 0.1667 0.1667
C1O C 0.93112(15) 0.04997(15) 0.24024(8)
N1O N 0.89397(14) 0.07469(14) 0.20969(8)
C1G C 0.95003(15) 0.88114(21) 0.24024(8)
N1G N 0.92531(14) 0.81927(20) 0.20969(8)
N3A N 0.78012(14) 0.72581(19) 0.11414(7)
H6A H 0.74711(14) 0.68004(19) 0.08870(7)
N4A N 0.94922(13) 0.69244(18) 0.12039(7)
H7A H 0.92736(13) 0.64398(18) 0.09570(7)
C4A C 0.8524(2) 0.8149(3) 0.08622(9)
H8A H 0.8862(2) 0.8667(3) 0.11204(9)
H9A H 0.8191(2) 0.8353(3) 0.06148(9)
C5A C 0.9266(2) 0.7989(3) 0.05579(9)
H10A H 0.8918(2) 0.7416(3) 0.03350(9)
H11A H 0.9636(2) 0.8541(3) 0.03245(9)
C6A C 0.9971(2) 0.7858(3) 0.09099(9)
H12A H 1.0487(2) 0.7884(3) 0.06903(9)
H13A H 1.0264(2) 0.8390(3) 0.11633(9)
C7A C 0.7077(2) 0.7408(3) 0.14335(10)
H14A H 0.6654(2) 0.7487(3) 0.11845(10)
H15A H 0.7404(2) 0.7989(3) 0.16524(10)
C8A C 1.0178(2) 0.6812(3) 0.15531(10)
H16A H 1.0640(2) 0.6726(3) 0.13402(10)
H17A H 1.0536(2) 0.7386(3) 0.17734(10)
C7G C 0.9590(2) 0.5925(3) 0.18998(10)
N3G N 0.88655(14) 0.60752(19) 0.21919(7)
H6G H 0.91956(14) 0.65329(19) 0.24463(7)
C4G C 0.8143(2) 0.5184(3) 0.24711(9)
H8G H 0.7805(2) 0.4666(3) 0.22129(9)
H9G H 0.8476(2) 0.4980(3) 0.27185(9)
C5G C 0.7401(2) 0.5344(3) 0.27754(9)
H10G H 0.7749(2) 0.5917(3) 0.29983(9)
H11G H 0.7031(2) 0.4792(3) 0.30088(9)
C6G C 0.6696(2) 0.5475(3) 0.24234(9)
N4G N 0.71745(13) 0.64089(18) 0.21294(7)
H7G H 0.73931(13) 0.68935(18) 0.23763(7)
C8G C 0.6489(2) 0.6521(3) 0.17802(10)
H16G H 0.6027(2) 0.6607(3) 0.19931(10)
H17G H 0.6131(2) 0.5947(3) 0.15599(10)
H12G H 0.6180(2) 0.5449(3) 0.26430(9)
H13G H 0.6403(2) 0.4943(3) 0.21700(9)
H14G H 1.0013(2) 0.5846(3) 0.21488(10)
H15G H 0.9263(2) 0.5344(3) 0.16809(10)
C1H C 0.11886(21) 0.06888(15) 0.24024(8)
N1H N 0.18073(20) 0.10603(14) 0.20969(8)
N3B N 0.27419(19) 0.05431(13) 0.11414(7)
H6B H 0.31996(19) 0.06707(13) 0.08870(7)
N4B N 0.30756(18) 0.25678(13) 0.12039(7)
H7B H 0.35602(18) 0.28338(13) 0.09570(7)
C4B C 0.1851(3) 0.0375(2) 0.08622(9)
H8B H 0.1333(3) 0.0195(2) 0.11204(9)
H9B H 0.1647(3) -0.0162(2) 0.06148(9)
C5B C 0.2011(3) 0.1277(2) 0.05579(9)
H10B H 0.2584(3) 0.1502(2) 0.03350(9)
H11B H 0.1459(3) 0.1095(2) 0.03245(9)
C6B C 0.2142(3) 0.2113(2) 0.09099(9)
H12B H 0.2116(3) 0.2603(2) 0.06903(9)
H13B H 0.1610(3) 0.1874(2) 0.11633(9)
C7B C 0.2592(3) -0.0331(2) 0.14335(10)
H14B H 0.2513(3) -0.0833(2) 0.11845(10)
H15B H 0.2011(3) -0.0585(2) 0.16524(10)
C8B C 0.3188(3) 0.3366(2) 0.15531(10)
H16B H 0.3274(3) 0.3914(2) 0.13402(10)
H17B H 0.2614(3) 0.3150(2) 0.17734(10)
C7H C 0.4075(3) 0.3664(2) 0.18998(10)
N3H N 0.39248(19) 0.27902(13) 0.21919(7)
H6H H 0.34671(19) 0.26626(13) 0.24463(7)
C4H C 0.4816(3) 0.2958(2) 0.24711(9)
H8H H 0.5334(3) 0.3138(2) 0.22129(9)
H9H H 0.5020(3) 0.3495(2) 0.27185(9)
C5H C 0.4656(3) 0.2056(2) 0.27754(9)
H10H H 0.4083(3) 0.1831(2) 0.29983(9)
H11H H 0.5208(3) 0.2238(2) 0.30088(9)
C6H C 0.4525(3) 0.1220(2) 0.24234(9)
N4H N 0.35911(18) 0.07655(13) 0.21294(7)
H7H H 0.31065(18) 0.04995(13) 0.23763(7)
C8H C 0.3479(3) -0.0033(2) 0.17802(10)
H16H H 0.3393(3) -0.0581(2) 0.19931(10)
H17H H 0.4053(3) 0.0183(2) 0.15599(10)
H12H H 0.4551(3) 0.0730(2) 0.26430(9)
H13H H 0.5057(3) 0.1459(2) 0.21700(9)
H14H H 0.4154(3) 0.4166(2) 0.21488(10)
H15H H 0.4656(3) 0.3918(2) 0.16809(10)
Cr1O Cr 1.0000 0.0000 0.29078(2)
N2O N 0.87771(13) -0.06861(13) 0.33914(7)
H1O H 0.84562(13) -0.13228(13) 0.33068(7)
H2O H 0.83843(13) -0.04477(13) 0.33085(7)
C2O C 0.8926(2) -0.0606(2) 0.39806(8)
H3O H 0.8288(2) -0.0965(2) 0.41538(8)
C3O C 0.9405(2) 0.0462(2) 0.41510(9)
H4O H 0.9368(2) 0.0491(2) 0.45360(9)
H5O H 0.9040(2) 0.0745(2) 0.39998(9)
C2H C 1.0469(3) 0.1074(2) 0.39806(8)
N2H N 1.05369(18) 0.12229(13) 0.33914(7)
H1H H 1.02211(18) 0.15438(13) 0.33068(7)
H2H H 1.11681(18) 0.16157(13) 0.33085(7)
H3H H 1.0748(3) 0.1712(2) 0.41538(8)
C3H C 1.1058(3) 0.0595(2) 0.41510(9)
C2G C 1.0606(2) -0.0469(3) 0.39806(8)
N2G N 1.06861(13) -0.05369(18) 0.33914(7)
H1G H 1.13228(13) -0.02211(18) 0.33068(7)
H2G H 1.04477(13) -0.11681(18) 0.33085(7)
H3G H 1.0965(2) -0.0748(3) 0.41538(8)
C3G C 0.9538(2) -0.1058(3) 0.41510(9)
H4G H 0.9509(2) -0.1124(3) 0.45360(9)
H5G H 0.9255(2) -0.1706(3) 0.39998(9)
H4H H 1.1124(3) 0.0632(2) 0.45360(9)
H5H H 1.1706(3) 0.0960(2) 0.39998(9)
Cr1G Cr 1.0000 0.9999 0.29078(2)
Cr1G_2 Cr -0.0000 -0.0001 0.29078(2)
C1G_2 C 0.95003(15) -0.11886(21) 0.24024(8)
C1H_2 C 1.11886(21) 0.06888(15) 0.24024(8)
N5 N 0.62460(13) 0.62251(13) -0.00178(8)
O1 O 0.61780(13) 0.69128(13) 0.01759(8)
O2 O 0.57619(12) 0.57873(13) -0.04208(7)
O3 O 0.68160(13) 0.59850(13) 0.01869(8)
loop_
_geom_bond_atom_site_label_1
_geom_bond_atom_site_label_2
_geom_bond_site_symmetry_1
_geom_bond_site_symmetry_2
Cr1 C1 1_555 1_555
C1 N1 1_555 1_555
N1 Cu1 1_555 1_555
N2 Cr1 1_555 1_555
H1 N2 1_555 1_555
H2 N2 1_555 1_555
C2 N2 1_555 1_555
H3 C2 1_555 1_555
C3 C2 1_555 1_555
H4 C3 1_555 1_555
H5 C3 1_555 1_555
Cu1 N3 1_555 1_555
N3 H6 1_555 1_555
N4 Cu1 1_555 1_555
H7 N4 1_555 1_555
C4 N3 1_555 1_555
H8 C4 1_555 1_555
H9 C4 1_555 1_555
C5 C4 1_555 1_555
H10 C5 1_555 1_555
H11 C5 1_555 1_555
C6 N4 1_555 1_555
H12 C6 1_555 1_555
H13 C6 1_555 1_555
C7 N3 1_555 1_555
H14 C7 1_555 1_555
H15 C7 1_555 1_555
C8 N4 1_555 1_555
H16 C8 1_555 1_555
H17 C8 1_555 1_555
N5 O1 1_555 1_555
O2 N5 1_555 1_555
O3 N5 1_555 1_555
C2B C3 1_555 1_555
N2B Cr1 1_555 1_555
H1B N2B 1_555 1_555
H2B N2B 1_555 1_555
H3B C2B 1_555 1_555
C3B C2B 1_555 1_555
C2A C3B 1_555 1_555
N2A Cr1 1_555 1_555
H1A N2A 1_555 1_555
H2A N2A 1_555 1_555
H3A C2A 1_555 1_555
C3A C2 1_555 1_555
H4A C3A 1_555 1_555
H5A C3A 1_555 1_555
H4B C3B 1_555 1_555
H5B C3B 1_555 1_555
C7O C8 1_555 1_555
N3O Cu1 1_555 1_555
H6O N3O 1_555 1_555
C4O N3O 1_555 1_555
H8O C4O 1_555 1_555
H9O C4O 1_555 1_555
C5O C4O 1_555 1_555
H10O C5O 1_555 1_555
H11O C5O 1_555 1_555
C6O C5O 1_555 1_555
N4O Cu1 1_555 1_555
H7O N4O 1_555 1_555
C8O C7 1_555 1_555
H16O C8O 1_555 1_555
H17O C8O 1_555 1_555
H12O C6O 1_555 1_555
H13O C6O 1_555 1_555
H14O C7O 1_555 1_555
H15O C7O 1_555 1_555
C1A Cr1 1_555 1_555
N1A C1A 1_555 1_555
C1B Cr1 1_555 1_555
N1B C1B 1_555 1_555
Cu1A N1A 1_555 1_555
Cu1B N1B 1_555 1_555
C1O N1O 1_555 1_555
N1O Cu1 1_555 1_555
C1G N1G 1_555 1_555
N1G Cu1A 1_555 1_555
N3A Cu1A 1_555 1_555
H6A N3A 1_555 1_555
N4A Cu1A 1_555 1_555
H7A N4A 1_555 1_555
C4A N3A 1_555 1_555
H8A C4A 1_555 1_555
H9A C4A 1_555 1_555
C5A C4A 1_555 1_555
H10A C5A 1_555 1_555
H11A C5A 1_555 1_555
C6A N4A 1_555 1_555
H12A C6A 1_555 1_555
H13A C6A 1_555 1_555
C7A N3A 1_555 1_555
H14A C7A 1_555 1_555
H15A C7A 1_555 1_555
C8A N4A 1_555 1_555
H16A C8A 1_555 1_555
H17A C8A 1_555 1_555
C7G C8A 1_555 1_555
N3G Cu1A 1_555 1_555
H6G N3G 1_555 1_555
C4G N3G 1_555 1_555
H8G C4G 1_555 1_555
H9G C4G 1_555 1_555
C5G C4G 1_555 1_555
H10G C5G 1_555 1_555
H11G C5G 1_555 1_555
C6G C5G 1_555 1_555
N4G Cu1A 1_555 1_555
H7G N4G 1_555 1_555
C8G C7A 1_555 1_555
H16G C8G 1_555 1_555
H17G C8G 1_555 1_555
H12G C6G 1_555 1_555
H13G C6G 1_555 1_555
H14G C7G 1_555 1_555
H15G C7G 1_555 1_555
C1H N1H 1_555 1_555
N1H Cu1B 1_555 1_555
N3B Cu1B 1_555 1_555
H6B N3B 1_555 1_555
N4B Cu1B 1_555 1_555
H7B N4B 1_555 1_555
C4B N3B 1_555 1_555
H8B C4B 1_555 1_555
H9B C4B 1_555 1_555
C5B C4B 1_555 1_555
H10B C5B 1_555 1_555
H11B C5B 1_555 1_555
C6B N4B 1_555 1_555
H12B C6B 1_555 1_555
H13B C6B 1_555 1_555
C7B N3B 1_555 1_555
H14B C7B 1_555 1_555
H15B C7B 1_555 1_555
C8B N4B 1_555 1_555
H16B C8B 1_555 1_555
H17B C8B 1_555 1_555
C7H C8B 1_555 1_555
N3H Cu1B 1_555 1_555
H6H N3H 1_555 1_555
C4H N3H 1_555 1_555
H8H C4H 1_555 1_555
H9H C4H 1_555 1_555
C5H C4H 1_555 1_555
H10H C5H 1_555 1_555
H11H C5H 1_555 1_555
C6H C5H 1_555 1_555
N4H Cu1B 1_555 1_555
H7H N4H 1_555 1_555
C8H C7B 1_555 1_555
H16H C8H 1_555 1_555
H17H C8H 1_555 1_555
H12H C6H 1_555 1_555
H13H C6H 1_555 1_555
H14H C7H 1_555 1_555
H15H C7H 1_555 1_555
Cr1O C1O 1_555 1_555
N2O Cr1O 1_555 1_555
H1O N2O 1_555 1_555
H2O N2O 1_555 1_555
C2O N2O 1_555 1_555
H3O C2O 1_555 1_555
C3O C2O 1_555 1_555
H4O C3O 1_555 1_555
H5O C3O 1_555 1_555
C2H C3O 1_555 1_555
N2H Cr1O 1_555 1_555
H1H N2H 1_555 1_555
H2H N2H 1_555 1_555
H3H C2H 1_555 1_555
C3H C2H 1_555 1_555
C2G C3H 1_555 1_555
N2G Cr1O 1_555 1_555
H1G N2G 1_555 1_555
H2G N2G 1_555 1_555
H3G C2G 1_555 1_555
C3G C2O 1_555 1_555
H4G C3G 1_555 1_555
H5G C3G 1_555 1_555
H4H C3H 1_555 1_555
H5H C3H 1_555 1_555
Cr1G C1G 1_555 1_555
Cr1G_2 C1H 1_555 1_555
C1G_2 Cr1O 1_555 1_555
C1H_2 Cr1O 1_555 1_555
C5 C6 1_555 1_555
C2B N2B 1_555 1_555
C2A N2A 1_555 1_555
C2A C3A 1_555 1_555
C7O N3O 1_555 1_555
C6O N4O 1_555 1_555
N4O C8O 1_555 1_555
C5A C6A 1_555 1_555
C7G N3G 1_555 1_555
C6G N4G 1_555 1_555
N4G C8G 1_555 1_555
C5B C6B 1_555 1_555
C7H N3H 1_555 1_555
C6H N4H 1_555 1_555
N4H C8H 1_555 1_555
C2H N2H 1_555 1_555
C2G N2G 1_555 1_555
C2G C3G 1_555 1_555

#END
