
#######################################################################
#
#                 Cambridge Crystallographic Data Centre
#                                CCDC 
#
#######################################################################
#
# If this CIF has been generated from an entry in the Cambridge 
# Structural Database, then it will include bibliographic, chemical, 
# crystal, experimental, refinement or atomic coordinate data resulting 
# from the CCDC's data processing and validation procedures.
#
#######################################################################

data_LUXMIA
_symmetry_cell_setting           orthorhombic
_symmetry_space_group_name_H-M   'P n m a'
_symmetry_Int_Tables_number      62
_space_group_name_Hall           '-P 2ac 2n'
loop_
_symmetry_equiv_pos_site_id
_symmetry_equiv_pos_as_xyz
1 x,y,z
2 1/2+x,y,1/2-z
3 x,1/2-y,z
4 1/2-x,1/2+y,1/2+z
5 -x,-y,-z
6 1/2-x,-y,1/2+z
7 -x,1/2+y,-z
8 1/2+x,1/2-y,1/2-z
_cell_length_a                   20.832(3)
_cell_length_b                   16.324(2)
_cell_length_c                   9.7340(14)
_cell_angle_alpha                90
_cell_angle_beta                 90
_cell_angle_gamma                90
_cell_volume                     3310.16
loop_
_atom_site_label
_atom_site_type_symbol
_atom_site_fract_x
_atom_site_fract_y
_atom_site_fract_z
Cr1 Cr 0.34875(6) 0.2500 0.55309(13)
C1 C 0.4045(3) 0.1552(3) 0.4766(6)
N1 N 0.4349(2) 0.0973(3) 0.4600(5)
C2 C 0.4133(4) 0.2500 0.7140(9)
N2 N 0.4554(4) 0.2500 0.7899(10)
N3 N 0.2908(2) 0.1619(3) 0.6440(5)
H1 H 0.2995(5) 0.1201(20) 0.6125(15)
H2 H 0.2994(5) 0.1599(3) 0.7209(37)
N4 N 0.2903(3) 0.2500 0.3806(7)
H3 H 0.2988(6) 0.2895(24) 0.3356(30)
H4 H 0.2988(6) 0.2105(24) 0.3356(30)
C3 C 0.2198(3) 0.1721(3) 0.6331(6)
H5 H 0.1991(3) 0.1255(3) 0.6785(6)
C4 C 0.1994(3) 0.1729(3) 0.4808(6)
H6 H 0.2184(3) 0.1261(3) 0.4348(6)
H7 H 0.1532(3) 0.1673(3) 0.4754(6)
C5 C 0.2192(4) 0.2500 0.4067(8)
H8 H 0.1977(4) 0.2500 0.3171(8)
C6 C 0.1992(4) 0.2500 0.7051(9)
H9 H 0.1528(4) 0.2500 0.7132(9)
H10 H 0.2168(4) 0.2500 0.7973(9)
Ni1 Ni 0.5000 0.0000 0.5000
N5 N 0.4894(2) -0.0496(3) 0.3065(5)
H11 H 0.5205(21) -0.0900(28) 0.2970(8)
N6 N 0.4235(2) -0.0765(3) 0.5527(6)
H12 H 0.3940(26) -0.0511(22) 0.5522(6)
C7 C 0.4262(3) -0.0912(4) 0.3060(7)
H13 H 0.4239(3) -0.1296(4) 0.2301(7)
H14 H 0.3921(3) -0.0512(4) 0.2949(7)
C8 C 0.4181(3) -0.1355(4) 0.4386(8)
H15 H 0.3765(3) -0.1620(4) 0.4413(8)
H16 H 0.4509(3) -0.1773(4) 0.4475(8)
C9 C 0.4286(3) -0.1138(4) 0.6898(7)
H17 H 0.4652(3) -0.1506(4) 0.6914(7)
H18 H 0.3904(3) -0.1460(4) 0.7078(7)
C10 C 0.4365(3) -0.0496(5) 0.8027(8)
H19 H 0.4287(3) -0.0757(5) 0.8906(8)
H20 H 0.4038(3) -0.0080(5) 0.7902(8)
C11 C 0.4974(3) 0.0072(4) 0.1919(8)
H21 H 0.4638(3) 0.0483(4) 0.1951(8)
H22 H 0.4933(3) -0.0225(4) 0.1060(8)
C4B C 0.1994(3) 0.3271(3) 0.4808(6)
C3B C 0.2198(3) 0.3279(3) 0.6331(6)
N3B N 0.2908(2) 0.3381(3) 0.6440(5)
H1B H 0.2995(5) 0.3799(20) 0.6125(15)
H2B H 0.2994(5) 0.3401(3) 0.7209(37)
H5B H 0.1991(3) 0.3745(3) 0.6785(6)
H6B H 0.2184(3) 0.3739(3) 0.4348(6)
H7B H 0.1532(3) 0.3327(3) 0.4754(6)
C11D C 0.5026(3) -0.0072(4) 0.8081(8)
N5D N 0.5106(2) 0.0496(3) 0.6935(5)
H11D H 0.4795(21) 0.0900(28) 0.7030(8)
C7D C 0.5738(3) 0.0912(4) 0.6940(7)
H13D H 0.5761(3) 0.1296(4) 0.7699(7)
H14D H 0.6079(3) 0.0512(4) 0.7051(7)
C8D C 0.5819(3) 0.1355(4) 0.5614(8)
N6D N 0.5765(2) 0.0765(3) 0.4473(6)
H12D H 0.6060(26) 0.0511(22) 0.4478(6)
C9D C 0.5714(3) 0.1138(4) 0.3102(7)
H17D H 0.5348(3) 0.1506(4) 0.3086(7)
H18D H 0.6096(3) 0.1460(4) 0.2922(7)
C10D C 0.5635(3) 0.0496(5) 0.1973(8)
H19D H 0.5713(3) 0.0757(5) 0.1094(8)
H20D H 0.5962(3) 0.0080(5) 0.2098(8)
H15D H 0.6235(3) 0.1620(4) 0.5587(8)
H16D H 0.5491(3) 0.1773(4) 0.5525(8)
H21D H 0.5362(3) -0.0483(4) 0.8049(8)
H22D H 0.5067(3) 0.0225(4) 0.8940(8)
C1B C 0.4045(3) 0.3448(3) 0.4766(6)
N1B N 0.4349(2) 0.4027(3) 0.4600(5)
N1D N 0.5651(2) -0.0973(3) 0.5400(5)
Ni1B Ni 0.5000 0.5000 0.5000
P1 P 0.27592(9) 0.08471(10) 0.0572(2)
F1 F 0.2290(2) 0.1567(3) 0.0978(6)
F2 F 0.3245(3) 0.0138(3) 0.0307(7)
F3 F 0.2278(3) 0.0247(4) 0.1287(8)
F4 F 0.3235(3) 0.1471(4) -0.0247(7)
F5 F 0.3130(3) 0.1044(5) 0.1894(8)
F6 F 0.2358(4) 0.0715(4) -0.0801(7)
O1 O 0.5405(5) 0.2500 1.0233(10)
O2 O 0.4181(5) 0.2500 0.1584(11)
F7? F 0.2222(8) 0.0183(10) 0.0430(20)
F8? F 0.3335(7) 0.1501(9) 0.0973(17)
F9? F 0.2735(18) 0.0565(20) 0.2100(26)
F10? F 0.2768(18) 0.1166(19) -0.0828(27)
loop_
_geom_bond_atom_site_label_1
_geom_bond_atom_site_label_2
_geom_bond_site_symmetry_1
_geom_bond_site_symmetry_2
Cr1 C1 1_555 1_555
C1 N1 1_555 1_555
N1 Ni1 1_555 1_555
C2 Cr1 1_555 1_555
N2 C2 1_555 1_555
N3 Cr1 1_555 1_555
H1 N3 1_555 1_555
H2 N3 1_555 1_555
N4 Cr1 1_555 1_555
H3 N4 1_555 1_555
H4 N4 1_555 1_555
C3 N3 1_555 1_555
H5 C3 1_555 1_555
C4 C3 1_555 1_555
H6 C4 1_555 1_555
H7 C4 1_555 1_555
C5 N4 1_555 1_555
H8 C5 1_555 1_555
C6 C3 1_555 1_555
H9 C6 1_555 1_555
H10 C6 1_555 1_555
Ni1 N5 1_555 1_555
N5 H11 1_555 1_555
N6 Ni1 1_555 1_555
H12 N6 1_555 1_555
C7 N5 1_555 1_555
H13 C7 1_555 1_555
H14 C7 1_555 1_555
C8 N6 1_555 1_555
H15 C8 1_555 1_555
H16 C8 1_555 1_555
C9 N6 1_555 1_555
H17 C9 1_555 1_555
H18 C9 1_555 1_555
C10 C9 1_555 1_555
H19 C10 1_555 1_555
H20 C10 1_555 1_555
C11 N5 1_555 1_555
H21 C11 1_555 1_555
H22 C11 1_555 1_555
P1 F1 1_555 1_555
F2 P1 1_555 1_555
F3 P1 1_555 1_555
F4 P1 1_555 1_555
F5 P1 1_555 1_555
F6 P1 1_555 1_555
C4B C5 1_555 1_555
C3B C6 1_555 1_555
N3B Cr1 1_555 1_555
H1B N3B 1_555 1_555
H2B N3B 1_555 1_555
H5B C3B 1_555 1_555
H6B C4B 1_555 1_555
H7B C4B 1_555 1_555
C11D C10 1_555 1_555
N5D Ni1 1_555 1_555
H11D N5D 1_555 1_555
C7D N5D 1_555 1_555
H13D C7D 1_555 1_555
H14D C7D 1_555 1_555
C8D C7D 1_555 1_555
N6D Ni1 1_555 1_555
H12D N6D 1_555 1_555
C9D N6D 1_555 1_555
H17D C9D 1_555 1_555
H18D C9D 1_555 1_555
C10D C11 1_555 1_555
H19D C10D 1_555 1_555
H20D C10D 1_555 1_555
H15D C8D 1_555 1_555
H16D C8D 1_555 1_555
H21D C11D 1_555 1_555
H22D C11D 1_555 1_555
C1B Cr1 1_555 1_555
N1B C1B 1_555 1_555
N1D Ni1 1_555 1_555
Ni1B N1B 1_555 1_555
C4 C5 1_555 1_555
C7 C8 1_555 1_555
C4B C3B 1_555 1_555
C3B N3B 1_555 1_555
C11D N5D 1_555 1_555
C8D N6D 1_555 1_555
C9D C10D 1_555 1_555

#END
