
#######################################################################
#
#                 Cambridge Crystallographic Data Centre
#                                CCDC 
#
#######################################################################
#
# If this CIF has been generated from an entry in the Cambridge 
# Structural Database, then it will include bibliographic, chemical, 
# crystal, experimental, refinement or atomic coordinate data resulting 
# from the CCDC's data processing and validation procedures.
#
#######################################################################

data_LUXPOJ
_symmetry_cell_setting           orthorhombic
_symmetry_space_group_name_H-M   'P b c a'
_symmetry_Int_Tables_number      61
_space_group_name_Hall           '-P 2ac 2ab'
loop_
_symmetry_equiv_pos_site_id
_symmetry_equiv_pos_as_xyz
1 x,y,z
2 1/2+x,y,1/2-z
3 x,1/2-y,1/2+z
4 1/2-x,1/2+y,z
5 -x,-y,-z
6 1/2-x,-y,1/2+z
7 -x,1/2+y,1/2-z
8 1/2+x,1/2-y,-z
_cell_length_a                   13.5580(3)
_cell_length_b                   5.92100(10)
_cell_length_c                   18.1520(5)
_cell_angle_alpha                90
_cell_angle_beta                 90
_cell_angle_gamma                90
_cell_volume                     1457.19
loop_
_atom_site_label
_atom_site_type_symbol
_atom_site_fract_x
_atom_site_fract_y
_atom_site_fract_z
Tl1 Tl 0.152599(15) 0.02382(4) 0.483483(12)
O1 O 0.1495(3) 0.3903(8) 0.5786(3)
O2 O 0.0087(3) 0.2377(7) 0.5415(2)
C1 C 0.0569(4) 0.3835(9) 0.5769(3)
C2 C -0.0002(4) 0.5580(9) 0.6204(3)
C3 C -0.0980(4) 0.5130(9) 0.6395(3)
H1 H -0.1279 0.3772 0.6228
C4 C -0.1526(4) 0.6622(11) 0.6821(3)
H2 H -0.2194 0.6296 0.6937
C5 C -0.1094(4) 0.8577(10) 0.7077(3)
H3 H -0.1454 0.9571 0.7388
C6 C -0.0126(4) 0.9093(10) 0.6880(3)
H4 H 0.0161 1.0471 0.7041
C7 C 0.0421(4) 0.7629(9) 0.6453(3)
N1 N 0.1376(3) 0.8236(9) 0.6251(3)
H5 H 0.1623 0.9537 0.6396
H6 H 0.1734 0.7318 0.5978
O2D O -0.0087(3) -0.2377(7) 0.4585(2)
N1_2 N 0.1376(3) -0.1764(9) 0.6251(3)
Tl1D Tl -0.152599(15) -0.02382(4) 0.516517(12)
Tl1_2 Tl 0.152599(15) 1.02382(4) 0.483483(12)
H5_2 H 0.1623 -0.0463 0.6396
H6_2 H 0.1734 -0.2682 0.5978
loop_
_geom_bond_atom_site_label_1
_geom_bond_atom_site_label_2
_geom_bond_site_symmetry_1
_geom_bond_site_symmetry_2
Tl1 O1 1_555 1_555
O1 C1 1_555 1_555
O2 Tl1 1_555 1_555
C1 O2 1_555 1_555
C2 C1 1_555 1_555
C3 C2 1_555 1_555
H1 C3 1_555 1_555
C4 C3 1_555 1_555
H2 C4 1_555 1_555
C5 C4 1_555 1_555
H3 C5 1_555 1_555
C6 C5 1_555 1_555
H4 C6 1_555 1_555
C7 C2 1_555 1_555
N1 C7 1_555 1_555
H5 N1 1_555 1_555
H6 N1 1_555 1_555
O2D Tl1 1_555 1_555
N1_2 Tl1 1_555 1_555
Tl1D O2 1_555 1_555
Tl1_2 N1 1_555 1_555
H5_2 N1_2 1_555 1_555
H6_2 N1_2 1_555 1_555
C6 C7 1_555 1_555
O2D Tl1D 1_555 1_555

#END
