
#######################################################################
#
#                 Cambridge Crystallographic Data Centre
#                                CCDC 
#
#######################################################################
#
# If this CIF has been generated from an entry in the Cambridge 
# Structural Database, then it will include bibliographic, chemical, 
# crystal, experimental, refinement or atomic coordinate data resulting 
# from the CCDC's data processing and validation procedures.
#
#######################################################################

data_LUXPUP
_symmetry_cell_setting           monoclinic
_symmetry_space_group_name_H-M   'C 2/c'
_symmetry_Int_Tables_number      15
_space_group_name_Hall           '-C 2yn'
loop_
_symmetry_equiv_pos_site_id
_symmetry_equiv_pos_as_xyz
1 x,y,z
2 1/2+x,1/2+y,z
3 x,-y,1/2+z
4 1/2+x,1/2-y,1/2+z
5 -x,-y,-z
6 1/2-x,1/2-y,-z
7 -x,y,1/2-z
8 1/2-x,1/2+y,1/2-z
_cell_length_a                   21.8600(16)
_cell_length_b                   7.8832(7)
_cell_length_c                   9.7819(8)
_cell_angle_alpha                90
_cell_angle_beta                 101.012(5)
_cell_angle_gamma                90
_cell_volume                     1654.64
loop_
_atom_site_label
_atom_site_type_symbol
_atom_site_fract_x
_atom_site_fract_y
_atom_site_fract_z
Tl1 Tl -0.013474(15) 0.25466(5) -0.06020(4)
O1 O -0.0797(3) 0.1330(9) -0.3121(8)
C1 C -0.2197(5) -0.2497(16) -0.6929(12)
H1 H -0.2321 -0.3611 -0.7335
H2 H -0.1985 -0.1858 -0.7561
H3 H -0.2568 -0.1873 -0.6789
C2 C -0.1508(5) -0.1314(14) -0.4739(12)
C3 C -0.1764(4) -0.2727(14) -0.5558(11)
N1 N -0.1693(4) 0.0292(12) -0.5197(9)
H4 H -0.1549 0.1183 -0.4694
H5 H -0.1954 0.0428 -0.5993
O2 O -0.0453(3) -0.0489(9) -0.1403(7)
C4 C -0.0977(5) -0.3248(15) -0.2964(11)
H6 H -0.0726 -0.3436 -0.2070
C5 C -0.1087(4) -0.1577(14) -0.3465(10)
C6 C -0.0760(4) -0.0171(13) -0.2605(11)
C7 C -0.1231(5) -0.4626(15) -0.3769(12)
H7 H -0.1139 -0.5757 -0.3462
C8 C -0.1619(5) -0.4297(14) -0.5018(12)
H8 H -0.1801 -0.5243 -0.5547
O1F O 0.0797(3) 0.1330(9) -0.1879(8)
O2D O 0.0453(3) 0.0489(9) 0.1403(7)
Tl1F Tl 0.013474(15) 0.25466(5) -0.43980(4)
Tl1D Tl 0.013474(15) -0.25466(5) 0.06020(4)
loop_
_geom_bond_atom_site_label_1
_geom_bond_atom_site_label_2
_geom_bond_site_symmetry_1
_geom_bond_site_symmetry_2
Tl1 O1 1_555 1_555
O1 C6 1_555 1_555
C1 H1 1_555 1_555
H2 C1 1_555 1_555
H3 C1 1_555 1_555
C2 C3 1_555 1_555
C3 C1 1_555 1_555
N1 C2 1_555 1_555
H4 N1 1_555 1_555
H5 N1 1_555 1_555
O2 Tl1 1_555 1_555
C4 H6 1_555 1_555
C5 C2 1_555 1_555
C6 O2 1_555 1_555
C7 C4 1_555 1_555
H7 C7 1_555 1_555
C8 C3 1_555 1_555
H8 C8 1_555 1_555
O1F Tl1 1_555 1_555
O2D Tl1 1_555 1_555
Tl1F O1 1_555 1_555
Tl1D O2 1_555 1_555
C4 C5 1_555 1_555
C5 C6 1_555 1_555
C7 C8 1_555 1_555
O1F Tl1F 1_555 1_555
O2D Tl1D 1_555 1_555

#END
