
#######################################################################
#
#                 Cambridge Crystallographic Data Centre
#                                CCDC 
#
#######################################################################
#
# If this CIF has been generated from an entry in the Cambridge 
# Structural Database, then it will include bibliographic, chemical, 
# crystal, experimental, refinement or atomic coordinate data resulting 
# from the CCDC's data processing and validation procedures.
#
#######################################################################

data_LUXQAY
_symmetry_cell_setting           monoclinic
_symmetry_space_group_name_H-M   'C 2/c'
_symmetry_Int_Tables_number      15
_space_group_name_Hall           '-C 2yn'
loop_
_symmetry_equiv_pos_site_id
_symmetry_equiv_pos_as_xyz
1 x,y,z
2 -x,y,1/2-z
3 1/2+x,1/2+y,z
4 1/2-x,1/2+y,1/2-z
5 -x,-y,-z
6 x,-y,1/2+z
7 1/2-x,1/2-y,-z
8 1/2+x,1/2-y,1/2+z
_cell_length_a                   23.4386(8)
_cell_length_b                   11.3279(4)
_cell_length_c                   9.3973(3)
_cell_angle_alpha                90
_cell_angle_beta                 92.048(2)
_cell_angle_gamma                90
_cell_volume                     2493.48
loop_
_atom_site_label
_atom_site_type_symbol
_atom_site_fract_x
_atom_site_fract_y
_atom_site_fract_z
C1 C 0.4379(4) -0.1976(6) 0.0007(7)
H1 H 0.4636 -0.2535 -0.0309
C2 C 0.4572(3) -0.0986(5) 0.0739(7)
H2 H 0.4961 -0.0882 0.0928
C3 C 0.4188(2) -0.0150(4) 0.1193(6)
H3 H 0.4321 0.0509 0.1694
C4 C 0.3808(4) -0.2122(5) -0.0247(7)
H4 H 0.3676 -0.2791 -0.0727
C5 C 0.3425(3) -0.1292(4) 0.0197(6)
H5 H 0.3036 -0.1411 0.0017
C6 C 0.3608(2) -0.0282(4) 0.0909(5)
N1 N 0.27099(16) 0.0264(3) 0.2076(4)
C7 C 0.31947(18) 0.0591(3) 0.1377(5)
Cu1 Cu 0.24886(2) 0.37553(4) 0.23570(7)
N2 N 0.27120(16) 0.2227(3) 0.1932(4)
C8 C 0.31945(19) 0.1836(3) 0.1291(5)
C9 C 0.3713(2) 0.3736(4) 0.1171(5)
H6 H 0.3552 0.3960 0.2020
C10 C 0.35892(19) 0.2628(3) 0.0597(5)
C11 C 0.3838(2) 0.2327(4) -0.0679(5)
H7 H 0.3763 0.1594 -0.1089
C12 C 0.4195(2) 0.3108(5) -0.1336(5)
H8 H 0.4362 0.2891 -0.2180
C13 C 0.4074(2) 0.4509(4) 0.0494(6)
H9 H 0.4157 0.5242 0.0898
C14 C 0.4306(2) 0.4197(5) -0.0765(6)
H10 H 0.4539 0.4724 -0.1232
C15 C 0.2444(2) 0.1256(4) 0.2378(6)
H11 H 0.2103 0.1279 0.2855
N1C N 0.22901(16) 0.5264(3) 0.2924(4)
Cu1C Cu 0.25114(2) -0.12447(4) 0.26430(7)
loop_
_geom_bond_atom_site_label_1
_geom_bond_atom_site_label_2
_geom_bond_site_symmetry_1
_geom_bond_site_symmetry_2
C1 H1 1_555 1_555
C2 C1 1_555 1_555
H2 C2 1_555 1_555
C3 C2 1_555 1_555
H3 C3 1_555 1_555
C4 C1 1_555 1_555
H4 C4 1_555 1_555
C5 C4 1_555 1_555
H5 C5 1_555 1_555
C6 C3 1_555 1_555
N1 C7 1_555 1_555
C7 C6 1_555 1_555
Cu1 N2 1_555 1_555
N2 C8 1_555 1_555
C8 C7 1_555 1_555
C9 H6 1_555 1_555
C10 C8 1_555 1_555
C11 C10 1_555 1_555
H7 C11 1_555 1_555
C12 C11 1_555 1_555
H8 C12 1_555 1_555
C13 C9 1_555 1_555
H9 C13 1_555 1_555
C14 C12 1_555 1_555
H10 C14 1_555 1_555
C15 N1 1_555 1_555
H11 C15 1_555 1_555
N1C Cu1 1_555 1_555
Cu1C N1 1_555 1_555
C5 C6 1_555 1_555
N2 C15 1_555 1_555
C9 C10 1_555 1_555
C13 C14 1_555 1_555

#END
