
#######################################################################
#
#                 Cambridge Crystallographic Data Centre
#                                CCDC 
#
#######################################################################
#
# If this CIF has been generated from an entry in the Cambridge 
# Structural Database, then it will include bibliographic, chemical, 
# crystal, experimental, refinement or atomic coordinate data resulting 
# from the CCDC's data processing and validation procedures.
#
#######################################################################

data_LUXQIE
_symmetry_cell_setting           monoclinic
_symmetry_space_group_name_H-M   'C 2/c'
_symmetry_Int_Tables_number      15
_space_group_name_Hall           '-C 2yn'
loop_
_symmetry_equiv_pos_site_id
_symmetry_equiv_pos_as_xyz
1 x,y,z
2 1/2+x,1/2+y,z
3 x,-y,1/2+z
4 1/2+x,1/2-y,1/2+z
5 -x,-y,-z
6 1/2-x,1/2-y,-z
7 -x,y,1/2-z
8 1/2-x,1/2+y,1/2-z
_cell_length_a                   20.1767(10)
_cell_length_b                   7.3226(4)
_cell_length_c                   11.4156(6)
_cell_angle_alpha                90
_cell_angle_beta                 103.584(3)
_cell_angle_gamma                90
_cell_volume                     1639.43
loop_
_atom_site_label
_atom_site_type_symbol
_atom_site_fract_x
_atom_site_fract_y
_atom_site_fract_z
Tl1 Tl 0.018397(12) 0.25602(2) 0.588578(18)
O1 O 0.0553(2) -0.0955(5) 0.6653(3)
O2 O 0.0810(2) 0.1270(5) 0.8003(3)
C1 C 0.1473(3) -0.1223(7) 0.9804(5)
H1 H 0.1490 0.0038 1.0004
C2 C 0.0812(3) -0.0401(7) 0.7717(5)
C3 C 0.1774(3) -0.4330(7) 1.0389(5)
C4 C 0.2147(3) -0.5704(8) 1.1299(6)
H2 H 0.2370 -0.5070 1.2043
H3 H 0.2491 -0.6336 1.0969
H4 H 0.1821 -0.6596 1.1473
C5 C 0.1105(3) -0.3633(8) 0.8385(5)
C6 C 0.1419(3) -0.4893(7) 0.9245(5)
H5 H 0.1393 -0.6157 0.9053
C7 C 0.1134(3) -0.1760(8) 0.8649(5)
C8 C 0.1787(4) -0.2473(6) 1.0675(6)
H6 H 0.2009 -0.2067 1.1460
O3 O 0.0770(2) -0.4265(5) 0.7294(3)
H7 H 0.0623 -0.3380 0.6839
O2F O -0.0810(2) 0.1270(5) 0.6997(3)
O3_2 O 0.0770(2) 0.5735(5) 0.7294(3)
Tl1F Tl -0.018397(12) 0.25602(2) 0.911422(18)
Tl1_2 Tl 0.018397(12) -0.74398(2) 0.588578(18)
H7_2 H 0.0623 0.6620 0.6839
loop_
_geom_bond_atom_site_label_1
_geom_bond_atom_site_label_2
_geom_bond_site_symmetry_1
_geom_bond_site_symmetry_2
Tl1 O1 1_555 1_555
O1 C2 1_555 1_555
O2 Tl1 1_555 1_555
C1 H1 1_555 1_555
C2 O2 1_555 1_555
C3 C4 1_555 1_555
C4 H2 1_555 1_555
H3 C4 1_555 1_555
H4 C4 1_555 1_555
C5 C6 1_555 1_555
C6 C3 1_555 1_555
H5 C6 1_555 1_555
C7 C1 1_555 1_555
C8 C1 1_555 1_555
H6 C8 1_555 1_555
O3 C5 1_555 1_555
H7 O3 1_555 1_555
O2F Tl1 1_555 1_555
O3_2 Tl1 1_555 1_555
Tl1F O2 1_555 1_555
Tl1_2 O3 1_555 1_555
H7_2 O3_2 1_555 1_555
C2 C7 1_555 1_555
C3 C8 1_555 1_555
C5 C7 1_555 1_555
O2F Tl1F 1_555 1_555

#END
