
#######################################################################
#
#                 Cambridge Crystallographic Data Centre
#                                CCDC 
#
#######################################################################
#
# If this CIF has been generated from an entry in the Cambridge 
# Structural Database, then it will include bibliographic, chemical, 
# crystal, experimental, refinement or atomic coordinate data resulting 
# from the CCDC's data processing and validation procedures.
#
#######################################################################

data_LUXQAW
_symmetry_cell_setting           monoclinic
_symmetry_space_group_name_H-M   'C 2/c'
_symmetry_Int_Tables_number      15
_space_group_name_Hall           '-C 2yn'
loop_
_symmetry_equiv_pos_site_id
_symmetry_equiv_pos_as_xyz
1 x,y,z
2 1/2+x,1/2+y,z
3 x,-y,1/2+z
4 1/2+x,1/2-y,1/2+z
5 -x,-y,-z
6 1/2-x,1/2-y,-z
7 -x,y,1/2-z
8 1/2-x,1/2+y,1/2-z
_cell_length_a                   23.0796(8)
_cell_length_b                   6.9008(2)
_cell_length_c                   23.5642(10)
_cell_angle_alpha                90
_cell_angle_beta                 101.0990(10)
_cell_angle_gamma                90
_cell_volume                     3682.82
loop_
_atom_site_label
_atom_site_type_symbol
_atom_site_fract_x
_atom_site_fract_y
_atom_site_fract_z
Tl1 Tl 0.30647(3) -0.42604(8) 0.40070(3)
Tl2 Tl 0.30790(2) 0.02641(8) 0.49955(2)
O1 O 0.3611(4) -0.0946(16) 0.4128(4)
O2 O 0.2995(5) -0.1168(17) 0.3282(4)
N1 N 0.2908(6) 0.176(2) 0.2557(6)
H1 H 0.2761 0.0636 0.2635
H2 H 0.2754 0.2381 0.2237
C1 C 0.3628(6) 0.158(2) 0.3443(6)
C2 C 0.3366(6) 0.252(2) 0.2925(6)
C3 C 0.3624(7) 0.430(2) 0.2796(7)
H3 H 0.3465 0.4937 0.2442
C4 C 0.4095(8) 0.514(3) 0.3163(8)
C5 C 0.4338(6) 0.422(2) 0.3654(6)
H4 H 0.4670 0.4782 0.3901
C6 C 0.4114(6) 0.245(3) 0.3811(6)
H5 H 0.4289 0.1840 0.4163
C7 C 0.3383(7) -0.032(2) 0.3620(6)
C8 C 0.4363(8) 0.696(3) 0.2982(9)
H6 H 0.4695 0.7356 0.3285
H7 H 0.4066 0.7995 0.2922
H8 H 0.4504 0.6730 0.2621
O3 O 0.2191(5) -0.1876(17) 0.4303(5)
O4 O 0.1451(5) -0.2003(17) 0.4781(5)
C9 C 0.1485(6) 0.063(2) 0.4165(6)
N2 N 0.0686(6) 0.077(3) 0.4660(7)
H9 H 0.0808 -0.0328 0.4830
H10 H 0.0370 0.1350 0.4737
C10 C 0.0979(6) 0.156(2) 0.4286(6)
C11 C 0.0797(8) 0.334(3) 0.4000(7)
H11 H 0.0454 0.3967 0.4078
C12 C 0.1101(8) 0.416(2) 0.3615(7)
C13 C 0.1591(8) 0.327(3) 0.3506(7)
H12 H 0.1804 0.3867 0.3245
C14 C 0.1788(7) 0.157(2) 0.3755(6)
H13 H 0.2129 0.0978 0.3661
C15 C 0.1726(6) -0.118(2) 0.4418(6)
C16 C 0.0858(10) 0.606(3) 0.3330(11)
H14 H 0.0505 0.6442 0.3478
H15 H 0.1158 0.7077 0.3419
H16 H 0.0753 0.5882 0.2910
O4E O 0.3549(5) -0.2997(17) 0.5219(5)
Tl2E Tl 0.19210(2) -0.52641(8) 0.50045(2)
O5 O 0.4667(5) -0.173(2) 0.4858(6)
loop_
_geom_bond_atom_site_label_1
_geom_bond_atom_site_label_2
_geom_bond_site_symmetry_1
_geom_bond_site_symmetry_2
Tl1 O1 1_555 1_555
Tl2 O1 1_555 1_555
O1 C7 1_555 1_555
O2 Tl1 1_555 1_555
N1 H1 1_555 1_555
H2 N1 1_555 1_555
C1 C2 1_555 1_555
C2 N1 1_555 1_555
C3 C2 1_555 1_555
H3 C3 1_555 1_555
C4 C3 1_555 1_555
C5 C4 1_555 1_555
H4 C5 1_555 1_555
C6 C1 1_555 1_555
H5 C6 1_555 1_555
C7 O2 1_555 1_555
C8 C4 1_555 1_555
H6 C8 1_555 1_555
H7 C8 1_555 1_555
H8 C8 1_555 1_555
O3 Tl1 1_555 1_555
O4 C15 1_555 1_555
C9 C10 1_555 1_555
N2 H9 1_555 1_555
H10 N2 1_555 1_555
C10 N2 1_555 1_555
C11 C10 1_555 1_555
H11 C11 1_555 1_555
C12 C11 1_555 1_555
C13 C12 1_555 1_555
H12 C13 1_555 1_555
C14 C9 1_555 1_555
H13 C14 1_555 1_555
C15 O3 1_555 1_555
C16 C12 1_555 1_555
H14 C16 1_555 1_555
H15 C16 1_555 1_555
H16 C16 1_555 1_555
O4E Tl2 1_555 1_555
Tl2E O4 1_555 1_555
Tl2 O3 1_555 1_555
C1 C7 1_555 1_555
C5 C6 1_555 1_555
C9 C15 1_555 1_555
C13 C14 1_555 1_555

#END
