
#######################################################################
#
#                 Cambridge Crystallographic Data Centre
#                                CCDC 
#
#######################################################################
#
# If this CIF has been generated from an entry in the Cambridge 
# Structural Database, then it will include bibliographic, chemical, 
# crystal, experimental, refinement or atomic coordinate data resulting 
# from the CCDC's data processing and validation procedures.
#
#######################################################################

data_LUXRAZ
_symmetry_cell_setting           monoclinic
_symmetry_space_group_name_H-M   'C 2/c'
_symmetry_Int_Tables_number      15
_space_group_name_Hall           '-C 2yn'
loop_
_symmetry_equiv_pos_site_id
_symmetry_equiv_pos_as_xyz
1 x,y,z
2 -x,y,1/2-z
3 1/2+x,1/2+y,z
4 1/2-x,1/2+y,1/2-z
5 -x,-y,-z
6 x,-y,1/2+z
7 1/2-x,1/2-y,-z
8 1/2+x,1/2-y,1/2+z
_cell_length_a                   15.442(4)
_cell_length_b                   14.808(3)
_cell_length_c                   25.994(3)
_cell_angle_alpha                90
_cell_angle_beta                 106.150(6)
_cell_angle_gamma                90
_cell_volume                     5709.36
loop_
_atom_site_label
_atom_site_type_symbol
_atom_site_fract_x
_atom_site_fract_y
_atom_site_fract_z
Mn1 Mn 0.62136(3) 0.48931(3) 0.521256(16)
O1 O 0.82135(19) 0.46983(16) 0.57143(10)
O2 O 0.98406(14) 0.92348(13) 0.53117(8)
N1 N 0.61486(16) 0.60260(15) 0.94964(9)
O3 O 1.11536(14) 0.86362(14) 0.56873(8)
N2 N 0.62606(16) 0.71014(15) 0.76884(9)
C1 C 0.62743(19) 0.75912(18) 0.81265(10)
O4 O 0.73264(14) 0.55518(15) 0.50892(9)
C2 C 0.62430(18) 0.70617(17) 0.86074(11)
C3 C 0.62672(19) 0.69669(18) 0.67699(10)
C4 C 0.6503(2) 0.74164(19) 0.91260(11)
H1 H 0.6711 0.8007 0.9185
N3 N 0.62732(16) 0.58297(16) 0.59083(9)
C5 C 0.96765(19) 0.60451(18) 0.56273(10)
C6 C 0.98331(18) 0.77048(18) 0.56080(10)
C7 C 0.6070(2) 0.7292(2) 0.62486(11)
H2 H 0.5934 0.7899 0.6178
C8 C 0.6255(2) 0.75456(19) 0.72383(11)
C9 C 0.6446(2) 0.68780(19) 0.95494(11)
H3 H 0.6626 0.7123 0.9892
C10 C 0.5898(2) 0.56922(19) 0.89972(12)
H4 H 0.5691 0.5100 0.8949
C11 C 0.6252(2) 0.99927(19) 0.76451(11)
C12 C 0.8387(2) 0.7011(2) 0.55120(12)
H5 H 0.7774 0.7082 0.5474
C13 C 0.87370(19) 0.61591(19) 0.55330(11)
C14 C 0.6269(2) 1.1868(2) 0.76433(13)
C15 C 0.6266(2) 0.89948(19) 0.76605(11)
C16 C 0.6300(2) 0.85266(19) 0.81301(11)
H6 H 0.6340 0.8841 0.8446
C17 C 1.03206(19) 0.85723(18) 0.55449(10)
C18 C 1.02466(18) 0.68327(19) 0.56671(10)
C19 C 0.6240(2) 0.84803(19) 0.72071(11)
H7 H 0.6212 0.8764 0.6884
N4 N 0.6315(3) 1.2822(2) 0.76620(14)
C20 C 0.5930(2) 0.61824(19) 0.85518(11)
H8 H 0.5742 0.5921 0.8214
C21 C 0.6474(2) 0.6062(2) 0.68431(11)
H9 H 0.6614 0.5812 0.7185
C22 C 0.6471(2) 1.0471(2) 0.72390(12)
H10 H 0.6609 1.0157 0.6962
C23 C 0.6078(2) 0.6708(2) 0.58366(12)
H11 H 0.5941 0.6937 0.5490
C24 C 0.6022(2) 1.0484(2) 0.80450(12)
H12 H 0.5866 1.0178 0.8319
C25 C 0.6488(2) 1.1401(2) 0.72376(13)
H13 H 0.6645 1.1711 0.6966
C26 C 0.8060(2) 0.5382(2) 0.54444(12)
C27 C 0.8930(2) 0.77765(19) 0.55472(11)
H14 H 0.8670 0.8346 0.5529
C28 C 0.6475(2) 0.5525(2) 0.64075(12)
H15 H 0.6624 0.4918 0.6468
C29 C 0.6022(2) 1.1410(2) 0.80427(13)
H16 H 0.5856 1.1727 0.8309
C30 C 1.1177(2) 0.6689(2) 0.57448(13)
H17 H 1.1558 0.7185 0.5776
C31 C 1.0079(2) 0.5176(2) 0.56622(13)
H18 H 0.9721 0.4665 0.5637
C32 C 1.0980(2) 0.5079(2) 0.57320(14)
H19 H 1.1229 0.4505 0.5751
C33 C 1.1533(2) 0.5841(2) 0.57756(15)
H20 H 1.2149 0.5768 0.5826
C34 C 0.6282(8) 1.4214(4) 0.7410(4)
H21 H 0.6246 1.4724 0.7196
C35 C 0.6583(4) 1.3337(3) 0.8116(2)
H22 H 0.6770 1.3140 0.8470
N5 N 0.6513(7) 1.4209(3) 0.7931(4)
C36 C 0.6109(6) 1.3391(4) 0.7236(3)
H23 H 0.5883 1.3221 0.6879
Mn1B Mn 1.12136(3) 0.98931(3) 0.521256(16)
Mn1E Mn 0.62136(3) 0.51069(3) 1.021256(16)
Mn1F Mn 0.87864(3) 1.01069(3) 0.478744(16)
O2B O 0.48406(14) 0.42348(13) 0.53117(8)
O2F O 0.51594(14) 0.57652(13) 0.46883(8)
N1E N 0.61486(16) 0.39740(15) 0.44964(9)
O3B O 0.61536(14) 0.36362(14) 0.56873(8)
loop_
_geom_bond_atom_site_label_1
_geom_bond_atom_site_label_2
_geom_bond_site_symmetry_1
_geom_bond_site_symmetry_2
Mn1 O4 1_555 1_555
O1 C26 1_555 1_555
O2 C17 1_555 1_555
N1 C9 1_555 1_555
O3 C17 1_555 1_555
N2 C1 1_555 1_555
C1 C2 1_555 1_555
O4 C26 1_555 1_555
C2 C4 1_555 1_555
C3 C7 1_555 1_555
C4 H1 1_555 1_555
N3 Mn1 1_555 1_555
C5 C13 1_555 1_555
C6 C17 1_555 1_555
C7 H2 1_555 1_555
C8 N2 1_555 1_555
C9 C4 1_555 1_555
H3 C9 1_555 1_555
C10 N1 1_555 1_555
H4 C10 1_555 1_555
C11 C15 1_555 1_555
C12 H5 1_555 1_555
C13 C12 1_555 1_555
C14 N4 1_555 1_555
C15 C16 1_555 1_555
C16 C1 1_555 1_555
H6 C16 1_555 1_555
C18 C5 1_555 1_555
C19 C8 1_555 1_555
H7 C19 1_555 1_555
N4 C35 1_555 1_555
C20 C2 1_555 1_555
H8 C20 1_555 1_555
C21 C3 1_555 1_555
H9 C21 1_555 1_555
C22 C11 1_555 1_555
H10 C22 1_555 1_555
C23 N3 1_555 1_555
H11 C23 1_555 1_555
C24 C11 1_555 1_555
H12 C24 1_555 1_555
C25 C14 1_555 1_555
H13 C25 1_555 1_555
C26 C13 1_555 1_555
C27 C6 1_555 1_555
H14 C27 1_555 1_555
C28 N3 1_555 1_555
H15 C28 1_555 1_555
C29 C14 1_555 1_555
H16 C29 1_555 1_555
C30 C18 1_555 1_555
H17 C30 1_555 1_555
C31 C5 1_555 1_555
H18 C31 1_555 1_555
C32 C31 1_555 1_555
H19 C32 1_555 1_555
C33 C30 1_555 1_555
H20 C33 1_555 1_555
C34 H21 1_555 1_555
C35 H22 1_555 1_555
N5 C34 1_555 1_555
C36 N4 1_555 1_555
H23 C36 1_555 1_555
Mn1B O2 1_555 1_555
Mn1E N1 1_555 1_555
Mn1F O2 1_555 1_555
O2B Mn1 1_555 1_555
O2F Mn1 1_555 1_555
N1E Mn1 1_555 1_555
O3B Mn1 1_555 1_555
O3 Mn1B 1_555 1_555
C3 C8 1_555 1_555
C6 C18 1_555 1_555
C7 C23 1_555 1_555
C10 C20 1_555 1_555
C12 C27 1_555 1_555
C15 C19 1_555 1_555
C21 C28 1_555 1_555
C22 C25 1_555 1_555
C24 C29 1_555 1_555
C32 C33 1_555 1_555
C34 C36 1_555 1_555
C35 N5 1_555 1_555

#END
