
#######################################################################
#
#                 Cambridge Crystallographic Data Centre
#                                CCDC 
#
#######################################################################
#
# If this CIF has been generated from an entry in the Cambridge 
# Structural Database, then it will include bibliographic, chemical, 
# crystal, experimental, refinement or atomic coordinate data resulting 
# from the CCDC's data processing and validation procedures.
#
#######################################################################

data_LUXSII
_symmetry_cell_setting           monoclinic
_symmetry_space_group_name_H-M   'P 21/n'
_symmetry_Int_Tables_number      14
_space_group_name_Hall           '-P 2yn'
loop_
_symmetry_equiv_pos_site_id
_symmetry_equiv_pos_as_xyz
1 x,y,z
2 1/2-x,1/2+y,1/2-z
3 -x,-y,-z
4 1/2+x,1/2-y,1/2+z
_cell_length_a                   7.7424(4)
_cell_length_b                   10.7388(4)
_cell_length_c                   10.3885(6)
_cell_angle_alpha                90
_cell_angle_beta                 102.965(5)
_cell_angle_gamma                90
_cell_volume                     841.723
loop_
_atom_site_label
_atom_site_type_symbol
_atom_site_fract_x
_atom_site_fract_y
_atom_site_fract_z
C1 C -0.0869(2) -0.06581(18) 0.28135(18)
C2 C 0.0838(2) -0.22055(18) 0.33592(17)
C3 C 0.1714(3) -0.32511(19) 0.41390(19)
C4 C 0.2125(2) -0.20852(18) 0.11927(18)
C5 C 0.1077(2) -0.17545(17) 0.21608(17)
C6 C -0.3097(3) 0.0271(2) 0.3740(2)
H1 H -0.3598 0.1092 0.3793
H2 H -0.2350 0.0073 0.4597
C7 C -0.4563(3) -0.0671(2) 0.3395(2)
H3 H -0.4065 -0.1485 0.3353
H4 H -0.5312 -0.0467 0.2553
H5 H -0.5250 -0.0663 0.4058
Co1 Co 0.0000 0.0000 0.0000
N1 N -0.0042(2) -0.07544(15) 0.18162(15)
N2 N -0.0421(2) -0.14991(16) 0.37790(15)
N3 N 0.0885(3) -0.3745(2) 0.5040(2)
H6 H -0.045(4) -0.349(3) 0.492(3)
H7 H 0.151(4) -0.451(3) 0.568(3)
N4 N 0.3175(2) -0.30743(17) 0.13695(17)
H8 H 0.337(3) -0.347(3) 0.215(3)
H9 H 0.372(4) -0.323(3) 0.082(3)
O1 O 0.3132(2) -0.36869(15) 0.39966(15)
O2 O 0.19821(18) -0.14052(13) 0.01879(13)
O3 O -0.2042(2) 0.02750(14) 0.27557(15)
C1B C 0.0869(2) 0.06581(18) -0.28135(18)
C2B C -0.0838(2) 0.22055(18) -0.33592(17)
C3B C -0.1714(3) 0.32511(19) -0.41390(19)
C4B C -0.2125(2) 0.20852(18) -0.11927(18)
C5B C -0.1077(2) 0.17545(17) -0.21608(17)
C6B C 0.3097(3) -0.0271(2) -0.3740(2)
H1B H 0.3598 -0.1092 -0.3793
H2B H 0.2350 -0.0073 -0.4597
C7B C 0.4563(3) 0.0671(2) -0.3395(2)
H3B H 0.4065 0.1485 -0.3353
H4B H 0.5312 0.0467 -0.2553
H5B H 0.5250 0.0663 -0.4058
N1B N 0.0042(2) 0.07544(15) -0.18162(15)
N2B N 0.0421(2) 0.14991(16) -0.37790(15)
N3B N -0.0885(3) 0.3745(2) -0.5040(2)
H6B H 0.045(4) 0.349(3) -0.492(3)
H7B H -0.151(4) 0.451(3) -0.568(3)
N4B N -0.3175(2) 0.30743(17) -0.13695(17)
H8B H -0.337(3) 0.347(3) -0.215(3)
H9B H -0.372(4) 0.323(3) -0.082(3)
O1B O -0.3132(2) 0.36869(15) -0.39966(15)
O2B O -0.19821(18) 0.14052(13) -0.01879(13)
O3B O 0.2042(2) -0.02750(14) -0.27557(15)
Co1A Co -0.5000 0.5000 -0.5000
Co1A_2 Co 0.5000 -0.5000 0.5000
O1A O 0.1868(2) 0.13131(15) 0.10034(15)
O1C O -0.1868(2) -0.13131(15) -0.10034(15)
loop_
_geom_bond_atom_site_label_1
_geom_bond_atom_site_label_2
_geom_bond_site_symmetry_1
_geom_bond_site_symmetry_2
C1 N1 1_555 1_555
C2 C3 1_555 1_555
C3 N3 1_555 1_555
C4 C5 1_555 1_555
C5 C2 1_555 1_555
C6 H1 1_555 1_555
H2 C6 1_555 1_555
C7 C6 1_555 1_555
H3 C7 1_555 1_555
H4 C7 1_555 1_555
H5 C7 1_555 1_555
Co1 N1 1_555 1_555
N1 C5 1_555 1_555
N2 C1 1_555 1_555
N3 H6 1_555 1_555
H7 N3 1_555 1_555
N4 C4 1_555 1_555
H8 N4 1_555 1_555
H9 N4 1_555 1_555
O1 C3 1_555 1_555
O2 C4 1_555 1_555
O3 C1 1_555 1_555
C1B N1B 1_555 1_555
C2B C3B 1_555 1_555
C3B N3B 1_555 1_555
C4B C5B 1_555 1_555
C5B C2B 1_555 1_555
C6B H1B 1_555 1_555
H2B C6B 1_555 1_555
C7B C6B 1_555 1_555
H3B C7B 1_555 1_555
H4B C7B 1_555 1_555
H5B C7B 1_555 1_555
N1B Co1 1_555 1_555
N2B C1B 1_555 1_555
N3B H6B 1_555 1_555
H7B N3B 1_555 1_555
N4B C4B 1_555 1_555
H8B N4B 1_555 1_555
H9B N4B 1_555 1_555
O1B C3B 1_555 1_555
O2B Co1 1_555 1_555
O3B C1B 1_555 1_555
Co1A O1B 1_555 1_555
Co1A_2 O1 1_555 1_555
O1A Co1 1_555 1_555
O1C Co1 1_555 1_555
C2 N2 1_555 1_555
C6 O3 1_555 1_555
Co1 O2 1_555 1_555
C2B N2B 1_555 1_555
C4B O2B 1_555 1_555
C5B N1B 1_555 1_555
C6B O3B 1_555 1_555

#END
