
#######################################################################
#
#                 Cambridge Crystallographic Data Centre
#                                CCDC 
#
#######################################################################
#
# If this CIF has been generated from an entry in the Cambridge 
# Structural Database, then it will include bibliographic, chemical, 
# crystal, experimental, refinement or atomic coordinate data resulting 
# from the CCDC's data processing and validation procedures.
#
#######################################################################

data_LUXXUY
_symmetry_cell_setting           monoclinic
_symmetry_space_group_name_H-M   'P 21/a'
_symmetry_Int_Tables_number      14
_space_group_name_Hall           '-P 2yab'
loop_
_symmetry_equiv_pos_site_id
_symmetry_equiv_pos_as_xyz
1 x,y,z
2 1/2-x,1/2+y,-z
3 -x,-y,-z
4 1/2+x,1/2-y,z
_cell_length_a                   7.873(3)
_cell_length_b                   26.978(10)
_cell_length_c                   10.642(4)
_cell_angle_alpha                90
_cell_angle_beta                 109.945(4)
_cell_angle_gamma                90
_cell_volume                     2124.76
loop_
_atom_site_label
_atom_site_type_symbol
_atom_site_fract_x
_atom_site_fract_y
_atom_site_fract_z
Pb1 Pb 0.88183(9) 0.39667(3) 0.38547(9)
Au1 Au 0.37044(11) 0.37633(3) -0.08330(10)
Au2 Au 0.90860(11) 0.54974(3) 0.04358(10)
Cl1 Cl 0.7270(11) 0.2682(3) 0.9089(8)
N1 N 0.769(2) 0.4504(6) 0.5451(18)
N2 N 0.7740(19) 0.3496(6) 0.5570(18)
N3 N 0.852(2) 0.3020(6) 0.3593(18)
N4 N 0.576(2) 0.3857(7) 0.222(2)
N5 N 1.188(3) 0.3697(8) 0.609(2)
N6 N 0.797(2) 0.4862(7) 0.242(2)
N7 N 0.993(3) 0.3823(8) 0.155(2)
C1 C 0.503(3) 0.3808(8) 0.110(2)
C2 C 1.255(3) 0.3712(8) 0.720(3)
C3 C 0.844(2) 0.5090(7) 0.175(2)
C4 C 1.032(3) 0.4074(8) 0.088(2)
C5 C 0.756(3) 0.4994(8) 0.533(2)
C6 C 0.692(3) 0.5294(9) 0.613(3)
C7 C 0.645(3) 0.5069(8) 0.713(2)
C8 C 0.658(3) 0.4575(9) 0.726(3)
C9 C 0.726(2) 0.4288(7) 0.647(2)
C10 C 0.744(2) 0.3747(7) 0.660(2)
C11 C 0.730(3) 0.3506(8) 0.765(3)
C12 C 0.744(3) 0.3002(9) 0.774(3)
C13 C 0.777(3) 0.2744(8) 0.672(2)
C14 C 0.790(2) 0.3001(7) 0.563(2)
C15 C 0.819(2) 0.2738(7) 0.449(2)
C16 C 0.818(2) 0.2224(7) 0.445(2)
C17 C 0.843(3) 0.2002(9) 0.334(2)
C18 C 0.869(3) 0.2297(8) 0.240(3)
C19 C 0.867(3) 0.2807(9) 0.246(3)
H1 H 0.8097 0.5147 0.4777
H2 H 0.6708 0.5628 0.5919
H3 H 0.6059 0.5260 0.7702
H4 H 0.6259 0.4416 0.7920
H5 H 0.7080 0.3686 0.8325
H6 H 0.7960 0.2404 0.6779
H7 H 0.8047 0.2036 0.5146
H8 H 0.8400 0.1659 0.3241
H9 H 0.8952 0.2140 0.1705
H10 H 0.8665 0.2987 0.1713
Au1_2 Au 1.37044(11) 0.37633(3) 0.91670(10)
Au2B Au 1.09140(11) 0.45026(3) -0.04358(10)
C2_2 C 0.255(3) 0.3712(8) -0.280(3)
C4B C 0.968(3) 0.5926(8) -0.088(2)
loop_
_geom_bond_atom_site_label_1
_geom_bond_atom_site_label_2
_geom_bond_site_symmetry_1
_geom_bond_site_symmetry_2
Pb1 N1 1_555 1_555
Au1 C1 1_555 1_555
Au2 C3 1_555 1_555
Cl1 C12 1_555 1_555
N1 C5 1_555 1_555
N2 Pb1 1_555 1_555
N3 Pb1 1_555 1_555
N4 Pb1 1_555 1_555
N5 Pb1 1_555 1_555
N6 Pb1 1_555 1_555
N7 Pb1 1_555 1_555
C1 N4 1_555 1_555
C2 N5 1_555 1_555
C3 N6 1_555 1_555
C4 N7 1_555 1_555
C5 C6 1_555 1_555
C6 C7 1_555 1_555
C7 C8 1_555 1_555
C8 C9 1_555 1_555
C9 N1 1_555 1_555
C10 N2 1_555 1_555
C11 C10 1_555 1_555
C12 C11 1_555 1_555
C13 C12 1_555 1_555
C14 N2 1_555 1_555
C15 N3 1_555 1_555
C16 C15 1_555 1_555
C17 C16 1_555 1_555
C18 C17 1_555 1_555
C19 N3 1_555 1_555
H1 C5 1_555 1_555
H2 C6 1_555 1_555
H3 C7 1_555 1_555
H4 C8 1_555 1_555
H5 C11 1_555 1_555
H6 C13 1_555 1_555
H7 C16 1_555 1_555
H8 C17 1_555 1_555
H9 C18 1_555 1_555
H10 C19 1_555 1_555
Au1_2 C2 1_555 1_555
Au2B C4 1_555 1_555
C2_2 Au1 1_555 1_555
C4B Au2 1_555 1_555
C9 C10 1_555 1_555
C13 C14 1_555 1_555
C14 C15 1_555 1_555
C18 C19 1_555 1_555

#END
