
#######################################################################
#
#                 Cambridge Crystallographic Data Centre
#                                CCDC 
#
#######################################################################
#
# If this CIF has been generated from an entry in the Cambridge 
# Structural Database, then it will include bibliographic, chemical, 
# crystal, experimental, refinement or atomic coordinate data resulting 
# from the CCDC's data processing and validation procedures.
#
#######################################################################

data_LUXYIN
_symmetry_cell_setting           monoclinic
_symmetry_space_group_name_H-M   'P 21/c'
_symmetry_Int_Tables_number      14
_space_group_name_Hall           '-P 2ybc'
loop_
_symmetry_equiv_pos_site_id
_symmetry_equiv_pos_as_xyz
1 x,y,z
2 -x,1/2+y,1/2-z
3 -x,-y,-z
4 x,1/2-y,1/2+z
_cell_length_a                   9.4193(15)
_cell_length_b                   25.448(4)
_cell_length_c                   9.8955(16)
_cell_angle_alpha                90
_cell_angle_beta                 113.855(2)
_cell_angle_gamma                90
_cell_volume                     2169.34
loop_
_atom_site_label
_atom_site_type_symbol
_atom_site_fract_x
_atom_site_fract_y
_atom_site_fract_z
Mn1 Mn -0.15104(8) 0.61263(3) -0.23107(8)
Au1 Au 0.32852(2) 0.612664(9) 0.28006(2)
Au2 Au -0.40486(3) 0.457317(9) -0.05856(3)
Br1 Br 0.31169(8) 0.75198(3) -0.48947(8)
N1 N 0.0092(5) 0.55436(18) -0.2781(5)
N2 N 0.0008(5) 0.65693(17) -0.3150(5)
N3 N -0.2015(5) 0.69929(17) -0.2257(4)
N4 N 0.0127(5) 0.61963(19) 0.0070(5)
N5 N -0.3490(6) 0.60934(19) -0.4522(5)
N6 N -0.2757(6) 0.5544(2) -0.1650(6)
N7 N -0.4849(8) 0.3520(3) 0.0554(8)
C1 C 0.1248(6) 0.6171(2) 0.1103(6)
C2 C -0.4683(6) 0.6102(2) -0.5492(6)
C3 C -0.3287(7) 0.5201(2) -0.1283(7)
C4 C -0.4620(7) 0.3913(3) 0.0119(7)
C5 C 0.0118(7) 0.5030(2) -0.2501(7)
C6 C 0.1104(8) 0.4680(3) -0.2782(7)
C7 C 0.2097(8) 0.4875(3) -0.3341(7)
C8 C 0.2120(7) 0.5408(3) -0.3592(7)
C9 C 0.1105(6) 0.5736(2) -0.3305(6)
C10 C 0.1051(6) 0.6316(2) -0.3526(6)
C11 C 0.2008(7) 0.6585(3) -0.4055(6)
C12 C 0.1847(7) 0.7121(3) -0.4206(6)
C13 C 0.0792(6) 0.7384(2) -0.3822(6)
C14 C -0.0098(6) 0.7093(2) -0.3269(5)
C15 C -0.1246(6) 0.7338(2) -0.2764(6)
C16 C -0.1483(7) 0.7873(2) -0.2760(7)
C17 C -0.2524(8) 0.8067(2) -0.2219(7)
C18 C -0.3290(7) 0.7724(2) -0.1693(7)
C19 C -0.3012(7) 0.7193(2) -0.1746(6)
H1 H -0.0557 0.4899 -0.2082
H2 H 0.1085 0.4317 -0.2583
H3 H 0.2772 0.4650 -0.3554
H4 H 0.2814 0.5553 -0.3964
H5 H 0.2752 0.6406 -0.4305
H6 H 0.0681 0.7754 -0.3932
H7 H -0.0943 0.8110 -0.3116
H8 H -0.2713 0.8429 -0.2226
H9 H -0.3997 0.7844 -0.1308
H10 H -0.3534 0.6951 -0.1403
Au1_2 Au -0.67148(2) 0.612664(9) -0.71994(2)
C2_2 C 0.5317(6) 0.6102(2) 0.4508(6)
loop_
_geom_bond_atom_site_label_1
_geom_bond_atom_site_label_2
_geom_bond_site_symmetry_1
_geom_bond_site_symmetry_2
Mn1 N1 1_555 1_555
Au1 C1 1_555 1_555
Au2 C3 1_555 1_555
Br1 C12 1_555 1_555
N1 C5 1_555 1_555
N2 Mn1 1_555 1_555
N3 Mn1 1_555 1_555
N4 Mn1 1_555 1_555
N5 Mn1 1_555 1_555
N6 Mn1 1_555 1_555
N7 C4 1_555 1_555
C1 N4 1_555 1_555
C2 N5 1_555 1_555
C3 N6 1_555 1_555
C4 Au2 1_555 1_555
C5 C6 1_555 1_555
C6 C7 1_555 1_555
C7 C8 1_555 1_555
C8 C9 1_555 1_555
C9 N1 1_555 1_555
C10 N2 1_555 1_555
C11 C10 1_555 1_555
C12 C11 1_555 1_555
C13 C12 1_555 1_555
C14 N2 1_555 1_555
C15 N3 1_555 1_555
C16 C15 1_555 1_555
C17 C16 1_555 1_555
C18 C17 1_555 1_555
C19 N3 1_555 1_555
H1 C5 1_555 1_555
H2 C6 1_555 1_555
H3 C7 1_555 1_555
H4 C8 1_555 1_555
H5 C11 1_555 1_555
H6 C13 1_555 1_555
H7 C16 1_555 1_555
H8 C17 1_555 1_555
H9 C18 1_555 1_555
H10 C19 1_555 1_555
Au1_2 C2 1_555 1_555
C2_2 Au1 1_555 1_555
C9 C10 1_555 1_555
C13 C14 1_555 1_555
C14 C15 1_555 1_555
C18 C19 1_555 1_555

#END
