
#######################################################################
#
#                 Cambridge Crystallographic Data Centre
#                                CCDC 
#
#######################################################################
#
# If this CIF has been generated from an entry in the Cambridge 
# Structural Database, then it will include bibliographic, chemical, 
# crystal, experimental, refinement or atomic coordinate data resulting 
# from the CCDC's data processing and validation procedures.
#
#######################################################################

data_LUXYEJ
_symmetry_cell_setting           monoclinic
_symmetry_space_group_name_H-M   'P 21/c'
_symmetry_Int_Tables_number      14
_space_group_name_Hall           '-P 2ybc'
loop_
_symmetry_equiv_pos_site_id
_symmetry_equiv_pos_as_xyz
1 x,y,z
2 -x,1/2+y,1/2-z
3 -x,-y,-z
4 x,1/2-y,1/2+z
_cell_length_a                   13.607(3)
_cell_length_b                   10.612(2)
_cell_length_c                   32.640(7)
_cell_angle_alpha                90
_cell_angle_beta                 98.573(3)
_cell_angle_gamma                90
_cell_volume                     4660.47
loop_
_atom_site_label
_atom_site_type_symbol
_atom_site_fract_x
_atom_site_fract_y
_atom_site_fract_z
Au1 Au 0.13614(5) 0.31168(5) 0.575279(19)
Au2 Au -0.23673(5) -0.21716(7) 0.50547(2)
Mn1 Mn 0.13536(15) -0.18588(17) 0.57278(6)
Cl1 Cl 0.6308(3) -0.1844(5) 0.59933(15)
N1 N 0.1901(8) -0.2122(10) 0.6410(3)
N2 N 0.2999(8) -0.1806(9) 0.5816(4)
N3 N 0.1839(9) -0.1508(10) 0.5109(3)
N7 N 0.1266(10) 0.0203(11) 0.5834(4)
N8 N 0.1369(9) 0.6043(11) 0.5682(4)
N9 N -0.0218(10) -0.1916(12) 0.5538(5)
N10 N -0.4480(13) -0.242(3) 0.4559(7)
C1 C 0.1312(11) 0.1266(12) 0.5815(5)
C2 C 0.1338(11) 0.4950(13) 0.5696(5)
C3 C -0.1006(11) -0.2026(15) 0.5376(6)
C4 C -0.3737(14) -0.233(2) 0.4736(6)
C9 C 0.1330(11) -0.2289(14) 0.6698(5)
C10 C 0.1674(12) -0.2425(14) 0.7107(5)
C11 C 0.2654(13) -0.2431(14) 0.7233(5)
C12 C 0.3267(11) -0.2295(13) 0.6944(4)
C13 C 0.2890(10) -0.2113(11) 0.6527(4)
C14 C 0.3496(10) -0.1956(11) 0.6202(4)
C15 C 0.4528(11) -0.1942(14) 0.6274(5)
C16 C 0.5014(11) -0.1805(14) 0.5931(5)
C17 C 0.4522(12) -0.1647(15) 0.5537(6)
C18 C 0.3483(11) -0.1632(12) 0.5486(4)
C19 C 0.2817(11) -0.1447(13) 0.5081(5)
C20 C 0.3186(14) -0.1263(15) 0.4713(5)
C21 C 0.2509(13) -0.1108(17) 0.4350(5)
C22 C 0.1503(13) -0.1152(17) 0.4369(5)
C23 C 0.1206(11) -0.1355(14) 0.4750(5)
H3 H 0.0635 -0.2317 0.6603
H4 H 0.1242 -0.2484 0.7310
H5 H 0.2945 -0.2564 0.7512
H6 H 0.3966 -0.2307 0.7030
H7 H 0.4890 -0.2051 0.6544
H8 H 0.4872 -0.1556 0.5308
H9 H 0.3879 -0.1267 0.4701
H10 H 0.2752 -0.0935 0.4097
H11 H 0.1026 -0.1089 0.4126
H12 H 0.0517 -0.1359 0.4771
Mn1_2 Mn 0.13536(15) 0.81412(17) 0.57278(6)
N8_2 N 0.1369(9) -0.3957(11) 0.5682(4)
Au3 Au 0.14934(5) -0.00270(5) 0.324283(19)
Au4 Au -0.21683(5) -0.42237(6) 0.26339(2)
Mn2 Mn 0.15343(16) -0.50685(17) 0.32518(7)
Cl2 Cl 0.6457(3) -0.4563(6) 0.35807(19)
N4 N 0.2017(9) -0.4842(11) 0.3930(4)
N5 N 0.3177(10) -0.5107(10) 0.3373(4)
N6 N 0.2103(10) -0.5497(10) 0.2647(4)
N11 N 0.1655(10) -0.2949(11) 0.3190(4)
N12 N 0.1345(10) 0.2869(12) 0.3332(5)
N13 N -0.0016(11) -0.4790(12) 0.3052(5)
N14 N -0.4330(12) -0.3657(17) 0.2234(5)
C5 C 0.1588(12) -0.1880(13) 0.3194(5)
C6 C 0.1394(11) 0.1819(15) 0.3298(5)
C7 C -0.0811(13) -0.4570(16) 0.2889(6)
C8 C -0.3521(13) -0.3896(19) 0.2381(6)
C24 C 0.1361(15) -0.4775(14) 0.4200(6)
C25 C 0.1683(17) -0.4621(15) 0.4633(6)
C26 C 0.2662(18) -0.4549(17) 0.4772(6)
C27 C 0.3357(14) -0.4616(16) 0.4482(6)
C28 C 0.2981(12) -0.4765(12) 0.4068(4)
C29 C 0.3639(10) -0.4849(12) 0.3746(4)
C30 C 0.4653(14) -0.4651(15) 0.3829(6)
C31 C 0.5190(12) -0.4786(14) 0.3491(6)
C32 C 0.4710(12) -0.5069(14) 0.3102(6)
C33 C 0.3699(11) -0.5212(13) 0.3050(4)
C34 C 0.3071(12) -0.5498(12) 0.2643(5)
C35 C 0.3490(14) -0.5782(15) 0.2286(5)
C36 C 0.286(2) -0.6020(18) 0.1919(6)
C37 C 0.1865(17) -0.6046(17) 0.1936(5)
C38 C 0.1499(15) -0.5779(14) 0.2298(5)
H13 H 0.0674 -0.4823 0.4092
H14 H 0.1230 -0.4590 0.4828
H15 H 0.2903 -0.4431 0.5058
H16 H 0.4047 -0.4559 0.4583
H17 H 0.4977 -0.4451 0.4099
H18 H 0.5076 -0.5173 0.2878
H19 H 0.4189 -0.5766 0.2289
H20 H 0.3134 -0.6238 0.1678
H21 H 0.1439 -0.6219 0.1685
H22 H 0.0803 -0.5793 0.2302
Mn2_2 Mn 0.15343(16) 0.49315(17) 0.32518(7)
N12_2 N 0.1345(10) -0.7131(12) 0.3332(5)
O1 O -0.561(3) -0.149(3) 0.3464(11)
H1 H -0.5290 -0.1515 0.3725
H2 H -0.5536 -0.0732 0.3352
H23? H -0.4781 -0.1382 0.3918
H24? H -0.5016 -0.0629 0.3538
O2? O -0.476(4) -0.136(4) 0.3644(14)
loop_
_geom_bond_atom_site_label_1
_geom_bond_atom_site_label_2
_geom_bond_site_symmetry_1
_geom_bond_site_symmetry_2
Au1 C1 1_555 1_555
Au2 C3 1_555 1_555
Au3 C5 1_555 1_555
Au4 C7 1_555 1_555
Mn1 N1 1_555 1_555
Mn2 N4 1_555 1_555
Cl1 C16 1_555 1_555
Cl2 C31 1_555 1_555
O1 H1 1_555 1_555
N1 C9 1_555 1_555
N2 Mn1 1_555 1_555
N3 Mn1 1_555 1_555
N4 C24 1_555 1_555
N5 Mn2 1_555 1_555
N6 Mn2 1_555 1_555
N7 Mn1 1_555 1_555
N8 C2 1_555 1_555
N9 Mn1 1_555 1_555
N10 C4 1_555 1_555
N11 Mn2 1_555 1_555
N12 C6 1_555 1_555
N13 Mn2 1_555 1_555
N14 C8 1_555 1_555
C1 N7 1_555 1_555
C2 Au1 1_555 1_555
C3 N9 1_555 1_555
C4 Au2 1_555 1_555
C5 N11 1_555 1_555
C6 Au3 1_555 1_555
C7 N13 1_555 1_555
C8 Au4 1_555 1_555
C9 C10 1_555 1_555
C10 C11 1_555 1_555
C11 C12 1_555 1_555
C12 C13 1_555 1_555
C13 N1 1_555 1_555
C14 N2 1_555 1_555
C15 C14 1_555 1_555
C16 C15 1_555 1_555
C17 C16 1_555 1_555
C18 N2 1_555 1_555
C19 N3 1_555 1_555
C20 C19 1_555 1_555
C21 C20 1_555 1_555
C22 C21 1_555 1_555
C23 N3 1_555 1_555
C24 C25 1_555 1_555
C25 C26 1_555 1_555
C26 C27 1_555 1_555
C27 C28 1_555 1_555
C28 N4 1_555 1_555
C29 N5 1_555 1_555
C30 C29 1_555 1_555
C31 C30 1_555 1_555
C32 C31 1_555 1_555
C33 N5 1_555 1_555
C34 N6 1_555 1_555
C35 C34 1_555 1_555
C36 C35 1_555 1_555
C37 C36 1_555 1_555
C38 N6 1_555 1_555
H2 O1 1_555 1_555
H3 C9 1_555 1_555
H4 C10 1_555 1_555
H5 C11 1_555 1_555
H6 C12 1_555 1_555
H7 C15 1_555 1_555
H8 C17 1_555 1_555
H9 C20 1_555 1_555
H10 C21 1_555 1_555
H11 C22 1_555 1_555
H12 C23 1_555 1_555
H13 C24 1_555 1_555
H14 C25 1_555 1_555
H15 C26 1_555 1_555
H16 C27 1_555 1_555
H17 C30 1_555 1_555
H18 C32 1_555 1_555
H19 C35 1_555 1_555
H20 C36 1_555 1_555
H21 C37 1_555 1_555
H22 C38 1_555 1_555
Mn1_2 N8 1_555 1_555
Mn2_2 N12 1_555 1_555
N8_2 Mn1 1_555 1_555
N12_2 Mn2 1_555 1_555
C13 C14 1_555 1_555
C17 C18 1_555 1_555
C18 C19 1_555 1_555
C22 C23 1_555 1_555
C28 C29 1_555 1_555
C32 C33 1_555 1_555
C33 C34 1_555 1_555
C37 C38 1_555 1_555

#END
