
#######################################################################
#
#                 Cambridge Crystallographic Data Centre
#                                CCDC 
#
#######################################################################
#
# If this CIF has been generated from an entry in the Cambridge 
# Structural Database, then it will include bibliographic, chemical, 
# crystal, experimental, refinement or atomic coordinate data resulting 
# from the CCDC's data processing and validation procedures.
#
#######################################################################

data_LUYCEN
_symmetry_cell_setting           monoclinic
_symmetry_space_group_name_H-M   'P 21/n'
_symmetry_Int_Tables_number      14
_space_group_name_Hall           '-P 2yn'
loop_
_symmetry_equiv_pos_site_id
_symmetry_equiv_pos_as_xyz
1 x,y,z
2 1/2+x,1/2-y,1/2+z
3 -x,-y,-z
4 1/2-x,1/2+y,1/2-z
_cell_length_a                   6.654(2)
_cell_length_b                   15.034(2)
_cell_length_c                   16.878(4)
_cell_angle_alpha                90
_cell_angle_beta                 97.90(3)
_cell_angle_gamma                90
_cell_volume                     1672.39
loop_
_atom_site_label
_atom_site_type_symbol
_atom_site_fract_x
_atom_site_fract_y
_atom_site_fract_z
C1 C 0.0717(10) 0.2910(4) 0.4389(4)
H1 H 0.0356 0.337 0.471
C2 C 0.0681(11) 0.3071(4) 0.3595(4)
H2 H 0.0324 0.3629 0.3384
C3 C 0.1174(10) 0.2404(5) 0.3111(4)
H3 H 0.1165 0.2501 0.2566
C4 C 0.1686(10) 0.1581(4) 0.3443(3)
H4 H 0.2023 0.1115 0.3124
C5 C 0.1694(9) 0.1460(4) 0.4252(3)
C6 C 0.2204(9) 0.0605(4) 0.4652(3)
H5 H 0.2558 0.0108 0.4375
C7 C 0.2501(9) 0.0000(4) 0.6644(3)
C8 C 0.2840(9) -0.0773(4) 0.7203(3)
C9 C 0.3610(9) -0.1587(4) 0.6999(3)
H6 H 0.3986 -0.1678 0.6494
C10 C 0.3802(9) -0.2259(4) 0.7563(3)
H7 H 0.4364 -0.2797 0.7434
C11 C 0.2471(10) -0.1382(4) 0.8463(3)
H8 H 0.2057 -0.1314 0.8964
C12 C 0.2285(11) -0.0680(4) 0.7956(3)
H9 H 0.1786 -0.0141 0.8114
N1 N 0.1238(7) 0.2134(3) 0.4735(3)
N2 N 0.2135(8) 0.0587(3) 0.5391(3)
N3 N 0.2592(7) -0.0138(3) 0.5862(3)
H10 H 0.2913 -0.0644 0.5675
N4 N 0.3222(8) -0.2170(3) 0.8279(3)
O1 O 0.2083(7) 0.0734(2) 0.6897(2)
O2 O 0.5024(6) 0.1862(3) 0.6134(2)
O3 O 0.8521(7) 0.1580(3) 0.6066(2)
O4 O 0.7026(8) 0.2965(3) 0.5572(3)
O5 O 0.6160(6) 0.1607(3) 0.4860(2)
S1 S 0.6662(2) 0.20193(10) 0.56502(9)
Zn1 Zn 0.15563(12) 0.17763(4) 0.59604(4)
N4C N 0.1778(8) 0.2830(3) 0.6721(3)
O3_2 O -0.1479(7) 0.1580(3) 0.6066(2)
Zn1C Zn 0.34437(12) -0.32237(4) 0.90396(4)
Zn1_2 Zn 1.15563(12) 0.17763(4) 0.59604(4)
O6 O 0.2829(10) -0.0394(4) 0.2764(3)
H11 H 0.1761 -0.0209 0.2269
H12 H 0.39 -0.0205 0.2908
O7 O 0.7392(10) 0.4719(4) 0.6157(4)
H13 H 0.7124 0.3992 0.6177
H14 H 0.7985 0.4918 0.5633
O8 O 0.0884(11) 0.1076(5) 0.9081(4)
H15 H 0.0877 0.0626 0.94
H16 H 0.0418 0.1355 0.8868
O9 O 0.00000 0.50000 0.50000
H17 H 0.1105 0.5005 0.5228
H17B H -0.1105 0.4995 0.4772
loop_
_geom_bond_atom_site_label_1
_geom_bond_atom_site_label_2
_geom_bond_site_symmetry_1
_geom_bond_site_symmetry_2
C1 H1 1_555 1_555
C2 C1 1_555 1_555
H2 C2 1_555 1_555
C3 C2 1_555 1_555
H3 C3 1_555 1_555
C4 C3 1_555 1_555
H4 C4 1_555 1_555
C5 C4 1_555 1_555
C6 C5 1_555 1_555
H5 C6 1_555 1_555
C7 C8 1_555 1_555
C8 C9 1_555 1_555
C9 H6 1_555 1_555
C10 C9 1_555 1_555
H7 C10 1_555 1_555
C11 H8 1_555 1_555
C12 C8 1_555 1_555
H9 C12 1_555 1_555
N1 C1 1_555 1_555
N2 C6 1_555 1_555
N3 C7 1_555 1_555
H10 N3 1_555 1_555
N4 C10 1_555 1_555
O1 C7 1_555 1_555
O2 S1 1_555 1_555
O3 S1 1_555 1_555
O4 S1 1_555 1_555
O5 S1 1_555 1_555
O6 H11 1_555 1_555
H12 O6 1_555 1_555
O7 H13 1_555 1_555
H14 O7 1_555 1_555
O8 H15 1_555 1_555
H16 O8 1_555 1_555
O9 H17 1_555 1_555
Zn1 N1 1_555 1_555
H17B O9 1_555 1_555
N4C Zn1 1_555 1_555
O3_2 Zn1 1_555 1_555
Zn1C N4 1_555 1_555
Zn1_2 O3 1_555 1_555
C5 N1 1_555 1_555
C11 N4 1_555 1_555
C11 C12 1_555 1_555
N2 N3 1_555 1_555
N2 Zn1 1_555 1_555
O1 Zn1 1_555 1_555
O2 Zn1 1_555 1_555

#END
