
#######################################################################
#
#                 Cambridge Crystallographic Data Centre
#                                CCDC 
#
#######################################################################
#
# If this CIF has been generated from an entry in the Cambridge 
# Structural Database, then it will include bibliographic, chemical, 
# crystal, experimental, refinement or atomic coordinate data resulting 
# from the CCDC's data processing and validation procedures.
#
#######################################################################

data_LUYFIW
_symmetry_cell_setting           orthorhombic
_symmetry_space_group_name_H-M   'P c c n'
_symmetry_Int_Tables_number      56
_space_group_name_Hall           '-P 2ab 2ac'
loop_
_symmetry_equiv_pos_site_id
_symmetry_equiv_pos_as_xyz
1 x,y,z
2 1/2-x,1/2-y,z
3 1/2+x,-y,1/2-z
4 -x,1/2+y,1/2-z
5 -x,-y,-z
6 1/2+x,1/2+y,-z
7 1/2-x,y,1/2+z
8 x,1/2-y,1/2+z
_cell_length_a                   22.471(4)
_cell_length_b                   8.7703(17)
_cell_length_c                   19.775(3)
_cell_angle_alpha                90
_cell_angle_beta                 90
_cell_angle_gamma                90
_cell_volume                     3897.21
loop_
_atom_site_label
_atom_site_type_symbol
_atom_site_fract_x
_atom_site_fract_y
_atom_site_fract_z
Zn1 Zn 0.21398(3) -0.57919(8) -0.04170(3)
O1 O 0.2500 -0.7500 -0.0847(3)
O2 O 0.0845(2) -0.6794(8) -0.0311(2)
O3 O 0.1629(2) -0.6416(6) 0.0333(2)
N1 N 0.1930(3) -0.4294(7) -0.1106(3)
N2 N 0.1468(2) -0.3868(6) -0.1265(3)
N3 N 0.1027(3) -0.3290(9) -0.1431(4)
N4 N -0.03210(19) -0.9741(5) 0.2837(2)
N5 N -0.2212(2) -0.5289(6) 0.4862(3)
C1 C 0.1110(2) -0.6937(7) 0.0226(3)
C2 C 0.0833(2) -0.7791(6) 0.0796(3)
C3 C 0.1092(2) -0.7872(7) 0.1431(3)
H1 H 0.1438 -0.7326 0.1518
C4 C 0.0312(3) -0.8616(8) 0.0692(3)
H2 H 0.0127 -0.8577 0.0271
C5 C 0.0841(3) -0.8756(7) 0.1936(3)
H3 H 0.1021 -0.8795 0.2359
C6 C 0.0064(3) -0.9491(8) 0.1197(3)
H4 H -0.0286 -1.0026 0.1114
C7 C 0.0328(2) -0.9581(6) 0.1822(3)
C8 C 0.0073(3) -1.0587(6) 0.2365(3)
H5 H -0.0152 -1.1404 0.2156
H6 H 0.0396 -1.1044 0.2619
C9 C -0.0129(3) -0.9346(7) 0.3455(3)
H7 H 0.0245 -0.9657 0.3598
C10 C -0.0871(3) -0.9337(7) 0.2631(3)
H8 H -0.1002 -0.9632 0.2205
C11 C -0.0481(2) -0.8486(7) 0.3879(3)
H9 H -0.0340 -0.8204 0.4303
C12 C -0.1234(2) -0.8514(7) 0.3032(3)
H10 H -0.1613 -0.8261 0.2879
C13 C -0.1050(2) -0.8036(6) 0.3672(3)
C14 C -0.1440(2) -0.7061(6) 0.4090(3)
C15 C -0.1393(3) -0.7014(8) 0.4788(3)
H11 H -0.1104 -0.7582 0.5010
C16 C -0.1877(3) -0.6173(7) 0.3796(3)
H12 H -0.1915 -0.6150 0.3328
C17 C -0.1783(3) -0.6111(8) 0.5150(3)
H13 H -0.1745 -0.6076 0.5618
C18 C -0.2253(3) -0.5330(8) 0.4189(3)
H14 H -0.2550 -0.4761 0.3979
Zn1A Zn 0.28602(3) -0.92081(8) -0.04170(3)
O2A O 0.4155(2) -0.8206(8) -0.0311(2)
O3A O 0.3371(2) -0.8584(6) 0.0333(2)
N1A N 0.3070(3) -1.0706(7) -0.1106(3)
N2A N 0.3532(2) -1.1132(6) -0.1265(3)
N3A N 0.3973(3) -1.1710(9) -0.1431(4)
N4A N 0.53210(19) -0.5259(5) 0.2837(2)
N5A N 0.7212(2) -0.9711(6) 0.4862(3)
C1A C 0.3890(2) -0.8063(7) 0.0226(3)
C2A C 0.4167(2) -0.7209(6) 0.0796(3)
C3A C 0.3908(2) -0.7128(7) 0.1431(3)
H1A H 0.3562 -0.7674 0.1518
C4A C 0.4688(3) -0.6384(8) 0.0692(3)
H2A H 0.4873 -0.6423 0.0271
C5A C 0.4159(3) -0.6244(7) 0.1936(3)
H3A H 0.3979 -0.6205 0.2359
C6A C 0.4936(3) -0.5509(8) 0.1197(3)
H4A H 0.5286 -0.4974 0.1114
C7A C 0.4672(2) -0.5419(6) 0.1822(3)
C8A C 0.4927(3) -0.4413(6) 0.2365(3)
H5A H 0.5152 -0.3596 0.2156
H6A H 0.4604 -0.3956 0.2619
C9A C 0.5129(3) -0.5654(7) 0.3455(3)
H7A H 0.4755 -0.5343 0.3598
C10A C 0.5871(3) -0.5663(7) 0.2631(3)
H8A H 0.6002 -0.5368 0.2205
C11A C 0.5481(2) -0.6514(7) 0.3879(3)
H9A H 0.5340 -0.6796 0.4303
C12A C 0.6234(2) -0.6486(7) 0.3032(3)
H10A H 0.6613 -0.6739 0.2879
C13A C 0.6050(2) -0.6964(6) 0.3672(3)
C14A C 0.6440(2) -0.7939(6) 0.4090(3)
C15A C 0.6393(3) -0.7986(8) 0.4788(3)
H11A H 0.6104 -0.7418 0.5010
C16A C 0.6877(3) -0.8827(7) 0.3796(3)
H12A H 0.6915 -0.8850 0.3328
C17A C 0.6783(3) -0.8889(8) 0.5150(3)
H13A H 0.6745 -0.8924 0.5618
C18A C 0.7253(3) -0.9670(8) 0.4189(3)
H14A H 0.7550 -1.0239 0.3979
Zn1B Zn -0.28602(3) -0.42081(8) 0.54170(3)
Zn1C Zn 0.78602(3) -1.07919(8) 0.54170(3)
N5B N 0.2788(2) -0.4711(6) 0.0138(3)
N5C N 0.2212(2) -1.0289(6) 0.0138(3)
O4 O -0.2386(6) -0.1732(13) 0.2451(7)
O5 O -0.1133(3) -0.1949(9) 0.1536(3)
O6 O -0.2500 -0.7500 0.2269(8)
loop_
_geom_bond_atom_site_label_1
_geom_bond_atom_site_label_2
_geom_bond_site_symmetry_1
_geom_bond_site_symmetry_2
Zn1 O1 1_555 1_555
O1 Zn1A 1_555 1_555
O2 C1 1_555 1_555
O3 Zn1 1_555 1_555
N1 Zn1 1_555 1_555
N2 N1 1_555 1_555
N3 N2 1_555 1_555
N4 C8 1_555 1_555
N5 C17 1_555 1_555
C1 O3 1_555 1_555
C2 C1 1_555 1_555
C3 C2 1_555 1_555
H1 C3 1_555 1_555
C4 C2 1_555 1_555
H2 C4 1_555 1_555
C5 C3 1_555 1_555
H3 C5 1_555 1_555
C6 C4 1_555 1_555
H4 C6 1_555 1_555
C7 C5 1_555 1_555
C8 C7 1_555 1_555
H5 C8 1_555 1_555
H6 C8 1_555 1_555
C9 N4 1_555 1_555
H7 C9 1_555 1_555
C10 N4 1_555 1_555
H8 C10 1_555 1_555
C11 C9 1_555 1_555
H9 C11 1_555 1_555
C12 C10 1_555 1_555
H10 C12 1_555 1_555
C13 C11 1_555 1_555
C14 C13 1_555 1_555
C15 C14 1_555 1_555
H11 C15 1_555 1_555
C16 C14 1_555 1_555
H12 C16 1_555 1_555
C17 C15 1_555 1_555
H13 C17 1_555 1_555
C18 N5 1_555 1_555
H14 C18 1_555 1_555
Zn1A O3A 1_555 1_555
O2A C1A 1_555 1_555
O3A C1A 1_555 1_555
N1A Zn1A 1_555 1_555
N2A N1A 1_555 1_555
N3A N2A 1_555 1_555
N4A C8A 1_555 1_555
N5A C17A 1_555 1_555
C1A C2A 1_555 1_555
C2A C3A 1_555 1_555
C3A H1A 1_555 1_555
C4A C2A 1_555 1_555
H2A C4A 1_555 1_555
C5A C3A 1_555 1_555
H3A C5A 1_555 1_555
C6A C4A 1_555 1_555
H4A C6A 1_555 1_555
C7A C5A 1_555 1_555
C8A C7A 1_555 1_555
H5A C8A 1_555 1_555
H6A C8A 1_555 1_555
C9A N4A 1_555 1_555
H7A C9A 1_555 1_555
C10A N4A 1_555 1_555
H8A C10A 1_555 1_555
C11A C9A 1_555 1_555
H9A C11A 1_555 1_555
C12A C10A 1_555 1_555
H10A C12A 1_555 1_555
C13A C11A 1_555 1_555
C14A C13A 1_555 1_555
C15A C14A 1_555 1_555
H11A C15A 1_555 1_555
C16A C14A 1_555 1_555
H12A C16A 1_555 1_555
C17A C15A 1_555 1_555
H13A C17A 1_555 1_555
C18A N5A 1_555 1_555
H14A C18A 1_555 1_555
Zn1B N5 1_555 1_555
Zn1C N5A 1_555 1_555
N5B Zn1 1_555 1_555
N5C Zn1A 1_555 1_555
C6 C7 1_555 1_555
C12 C13 1_555 1_555
C16 C18 1_555 1_555
C6A C7A 1_555 1_555
C12A C13A 1_555 1_555
C16A C18A 1_555 1_555

#END
