
#######################################################################
#
#                 Cambridge Crystallographic Data Centre
#                                CCDC 
#
#######################################################################
#
# If this CIF has been generated from an entry in the Cambridge 
# Structural Database, then it will include bibliographic, chemical, 
# crystal, experimental, refinement or atomic coordinate data resulting 
# from the CCDC's data processing and validation procedures.
#
#######################################################################

data_LUYGAP
_symmetry_cell_setting           monoclinic
_symmetry_space_group_name_H-M   'P 21/n'
_symmetry_Int_Tables_number      14
_space_group_name_Hall           '-P 2yn'
loop_
_symmetry_equiv_pos_site_id
_symmetry_equiv_pos_as_xyz
1 x,y,z
2 1/2-x,1/2+y,1/2-z
3 -x,-y,-z
4 1/2+x,1/2-y,1/2+z
_cell_length_a                   8.2415(8)
_cell_length_b                   14.9167(15)
_cell_length_c                   20.773(2)
_cell_angle_alpha                90
_cell_angle_beta                 98.860(2)
_cell_angle_gamma                90
_cell_volume                     2523.28
loop_
_atom_site_label
_atom_site_type_symbol
_atom_site_fract_x
_atom_site_fract_y
_atom_site_fract_z
Sm1 Sm 0.54219(2) 0.612384(11) 0.050559(9)
S1 S 1.00803(12) 1.12697(6) 0.29982(5)
N1 N 0.7612(4) 0.72798(19) 0.09615(16)
N2 N 0.4573(4) 0.78307(19) 0.03937(15)
N3 N 0.8647(4) 1.03903(19) 0.16572(15)
H1 H 0.9663 1.0414 0.1830
N4 N 0.6070(4) 1.0816(2) 0.13335(16)
O1 O 1.0974(3) 1.17062(17) 0.35777(12)
O2 O 0.8805(3) 1.07110(16) 0.31956(13)
O3 O 1.1169(3) 1.08040(18) 0.26275(13)
O4 O 0.5628(3) 0.53351(16) -0.06151(12)
O5 O 0.6557(3) 0.66978(16) -0.04259(13)
O6 O 1.2828(3) 0.60992(15) -0.01094(13)
O7 O 1.2171(3) 0.48032(15) -0.06208(12)
C1 C 0.9101(5) 0.7009(3) 0.1212(2)
H2 H 0.9336 0.6401 0.1195
C2 C 1.0337(5) 0.7578(3) 0.1499(3)
H3 H 1.1375 0.7359 0.1662
C3 C 0.9987(5) 0.8467(3) 0.1535(2)
H4 H 1.0788 0.8863 0.1728
C4 C 0.8426(5) 0.8783(2) 0.12821(19)
C5 C 0.7862(5) 0.9678(2) 0.13380(18)
C6 C 0.6278(5) 0.9950(2) 0.11341(18)
C7 C 0.5101(5) 0.9350(2) 0.07850(18)
C8 C 0.3502(5) 0.9592(3) 0.0518(2)
H5 H 0.3140 1.0177 0.0556
C9 C 0.2475(5) 0.8962(2) 0.0201(2)
H6 H 0.1406 0.9110 0.0019
C10 C 0.3064(5) 0.8090(3) 0.01551(19)
H7 H 0.2349 0.7664 -0.0057
C11 C 0.5603(4) 0.8458(2) 0.07087(17)
C12 C 0.7257(4) 0.8166(2) 0.09812(18)
C13 C 0.7522(5) 1.1054(2) 0.16499(19)
C14 C 0.7905(5) 1.1953(2) 0.19403(18)
C15 C 0.7027(5) 1.2666(2) 0.1627(2)
H8 H 0.6222 1.2556 0.1270
C16 C 0.7343(5) 1.3544(3) 0.1841(2)
H9 H 0.6724 1.4013 0.1636
C17 C 0.8550(5) 1.3715(2) 0.2349(2)
H10 H 0.8794 1.4305 0.2474
C18 C 0.9424(5) 1.3016(2) 0.26835(19)
H11 H 1.0236 1.3137 0.3036
C19 C 0.9080(5) 1.2131(2) 0.24889(18)
C20 C 0.6443(4) 0.6006(2) -0.07745(18)
C21 C 0.7335(4) 0.5931(2) -0.13473(18)
H12 H 0.7553 0.6525 -0.1504
H13 H 0.6660 0.5611 -0.1697
C22 C 0.8965(4) 0.5426(2) -0.11471(18)
H14 H 0.8744 0.4851 -0.0961
H15 H 0.9474 0.5316 -0.1531
C23 C 1.0138(4) 0.5957(2) -0.0654(2)
H16 H 1.0249 0.6551 -0.0832
H17 H 0.9631 0.6028 -0.0265
C24 C 1.1834(4) 0.5585(2) -0.04502(17)
Sm1_2 Sm 1.54219(2) 0.612384(11) 0.050559(9)
Sm1A Sm 0.95781(2) 1.112384(11) 0.449441(9)
Sm1B Sm 0.45781(2) 0.387616(11) -0.050559(9)
Sm1B_2 Sm 1.45781(2) 0.387616(11) -0.050559(9)
O1A O 0.4026(3) 0.67062(17) 0.14223(12)
O2A O 0.6195(3) 0.57110(16) 0.18044(13)
O4B O 0.4372(3) 0.46649(16) 0.06151(12)
O6_2 O 0.2828(3) 0.60992(15) -0.01094(13)
O7B O 0.7829(3) 0.51968(15) 0.06208(12)
O8 O 0.8759(5) 0.8266(3) 0.9493(2)
O9 O 0.3050(7) 0.1472(5) 0.1700(3)
loop_
_geom_bond_atom_site_label_1
_geom_bond_atom_site_label_2
_geom_bond_site_symmetry_1
_geom_bond_site_symmetry_2
Sm1 N1 1_555 1_555
S1 O1 1_555 1_555
N1 C1 1_555 1_555
N2 Sm1 1_555 1_555
N3 H1 1_555 1_555
N4 C6 1_555 1_555
O1 Sm1A 1_555 1_555
O2 S1 1_555 1_555
O3 S1 1_555 1_555
O4 Sm1 1_555 1_555
O5 Sm1 1_555 1_555
O6 C24 1_555 1_555
O7 C24 1_555 1_555
C1 H2 1_555 1_555
C2 C1 1_555 1_555
H3 C2 1_555 1_555
C3 C2 1_555 1_555
H4 C3 1_555 1_555
C4 C3 1_555 1_555
C5 N3 1_555 1_555
C6 C5 1_555 1_555
C7 C6 1_555 1_555
C8 C7 1_555 1_555
H5 C8 1_555 1_555
C9 C8 1_555 1_555
H6 C9 1_555 1_555
C10 N2 1_555 1_555
H7 C10 1_555 1_555
C11 N2 1_555 1_555
C12 N1 1_555 1_555
C13 N3 1_555 1_555
C14 C13 1_555 1_555
C15 C14 1_555 1_555
H8 C15 1_555 1_555
C16 C15 1_555 1_555
H9 C16 1_555 1_555
C17 C16 1_555 1_555
H10 C17 1_555 1_555
C18 C17 1_555 1_555
H11 C18 1_555 1_555
C19 S1 1_555 1_555
C20 O4 1_555 1_555
C21 C20 1_555 1_555
H12 C21 1_555 1_555
H13 C21 1_555 1_555
C22 C21 1_555 1_555
H14 C22 1_555 1_555
H15 C22 1_555 1_555
C23 C22 1_555 1_555
H16 C23 1_555 1_555
H17 C23 1_555 1_555
C24 C23 1_555 1_555
Sm1_2 O6 1_555 1_555
Sm1A O2 1_555 1_555
Sm1B O4 1_555 1_555
Sm1B_2 O7 1_555 1_555
O1A Sm1 1_555 1_555
O2A Sm1 1_555 1_555
O4B Sm1 1_555 1_555
O6_2 Sm1 1_555 1_555
O7B Sm1 1_555 1_555
N4 C13 1_555 1_555
O5 C20 1_555 1_555
C4 C5 1_555 1_555
C4 C12 1_555 1_555
C7 C11 1_555 1_555
C9 C10 1_555 1_555
C11 C12 1_555 1_555
C14 C19 1_555 1_555
C18 C19 1_555 1_555
Sm1B O4B 1_555 1_555

#END
