
#######################################################################
#
#                 Cambridge Crystallographic Data Centre
#                                CCDC 
#
#######################################################################
#
# If this CIF has been generated from an entry in the Cambridge 
# Structural Database, then it will include bibliographic, chemical, 
# crystal, experimental, refinement or atomic coordinate data resulting 
# from the CCDC's data processing and validation procedures.
#
#######################################################################

data_LUYGUJ
_symmetry_cell_setting           triclinic
_symmetry_space_group_name_H-M   'P -1'
_symmetry_Int_Tables_number      2
_space_group_name_Hall           '-P 1'
loop_
_symmetry_equiv_pos_site_id
_symmetry_equiv_pos_as_xyz
1 x,y,z
2 -x,-y,-z
_cell_length_a                   9.0064(9)
_cell_length_b                   9.0831(10)
_cell_length_c                   14.4399(14)
_cell_angle_alpha                95.147(2)
_cell_angle_beta                 91.280(2)
_cell_angle_gamma                99.0760(10)
_cell_volume                     1160.98
loop_
_atom_site_label
_atom_site_type_symbol
_atom_site_fract_x
_atom_site_fract_y
_atom_site_fract_z
Sm1 Sm -0.051354(19) 0.933908(19) 0.851179(12)
S1 S 0.45908(10) 1.08143(10) 0.23349(6)
N1 N 0.0726(3) 0.8805(3) 0.69328(19)
N2 N -0.0418(3) 1.1355(3) 0.7322(2)
N3 N 0.3235(3) 1.1246(3) 0.4341(2)
H1 H 0.3757 1.0623 0.4077
N4 N 0.2255(3) 1.3335(3) 0.4643(2)
O1 O 0.2979(3) 1.0494(3) 0.21011(18)
O2 O 0.4971(3) 0.9996(3) 0.31045(17)
O3 O 0.5500(3) 1.0609(3) 0.15386(18)
O4 O -0.1687(3) 0.6748(3) 0.81055(17)
O5 O -0.2160(3) 0.7746(3) 0.94812(17)
O6 O -0.0970(3) 0.1088(3) 0.96989(18)
O7 O -0.1276(3) 0.2257(3) 1.10606(17)
C1 C 0.1220(4) 0.7520(4) 0.6722(2)
H2 H 0.0976 0.6757 0.7107
C2 C 0.2088(4) 0.7249(4) 0.5953(2)
H3 H 0.2393 0.6322 0.5829
C3 C 0.2480(4) 0.8358(4) 0.5389(2)
H4 H 0.3076 0.8206 0.4883
C4 C 0.1973(4) 0.9735(4) 0.5582(2)
C5 C 0.2293(4) 1.1001(4) 0.5062(2)
C6 C 0.1695(4) 1.2305(4) 0.5235(2)
C7 C 0.0705(4) 1.2459(4) 0.5986(2)
C8 C -0.0029(4) 1.3692(4) 0.6177(2)
H5 H 0.0092 1.4474 0.5797
C9 C -0.0929(4) 1.3740(4) 0.6926(3)
H6 H -0.1428 1.4550 0.7066
C10 C -0.1077(4) 1.2549(4) 0.7473(3)
H7 H -0.1685 1.2595 0.7984
C11 C 0.0456(4) 1.1276(4) 0.6559(2)
C12 C 0.1080(4) 0.9910(4) 0.6362(2)
C13 C 0.3189(4) 1.2674(4) 0.4119(2)
C14 C 0.4220(4) 1.3455(4) 0.3468(2)
C15 C 0.4536(4) 1.4993(4) 0.3652(3)
H8 H 0.4058 1.5449 0.4137
C16 C 0.5538(4) 1.5879(5) 0.3141(3)
H9 H 0.5709 1.6915 0.3270
C17 C 0.6281(4) 1.5201(5) 0.2436(3)
H10 H 0.6980 1.5776 0.2097
C18 C 0.5980(4) 1.3671(4) 0.2240(2)
H11 H 0.6487 1.3225 0.1766
C19 C 0.4941(4) 1.2772(4) 0.2729(2)
C20 C -0.2292(4) 0.6635(4) 0.8880(3)
C21 C -0.3133(4) 0.5148(4) 0.9099(3)
H12 H -0.3469 0.4535 0.8526
H13 H -0.4011 0.5300 0.9449
C22 C -0.2108(4) 0.4352(4) 0.9667(3)
H14 H -0.1890 0.4906 1.0274
H15 H -0.1163 0.4349 0.9357
C23 C -0.2801(4) 0.2738(4) 0.9796(2)
H16 H -0.3649 0.2732 1.0200
H17 H -0.3161 0.2212 0.9200
C24 C -0.1633(4) 0.1973(4) 1.0219(2)
O8 O 0.1997(3) 1.0980(3) 0.87080(19)
H18 H 0.220(5) 1.146(4) 0.9223(18)
H19 H 0.267(4) 1.051(4) 0.856(3)
Sm1_2 Sm -0.051354(19) -0.066092(19) 0.851179(12)
Sm1A Sm 0.051354(19) 0.066092(19) 1.148821(12)
Sm1A_2 Sm 0.051354(19) 1.066092(19) 0.148821(12)
O1A O -0.2979(3) 0.9506(3) 0.78989(18)
O6_2 O -0.0970(3) 1.1088(3) 0.96989(18)
O6A O 0.0970(3) 0.8912(3) 1.03011(18)
O7A O 0.1276(3) 0.7743(3) 0.89394(17)
loop_
_geom_bond_atom_site_label_1
_geom_bond_atom_site_label_2
_geom_bond_site_symmetry_1
_geom_bond_site_symmetry_2
Sm1 N1 1_555 1_555
S1 O1 1_555 1_555
N1 C1 1_555 1_555
N2 Sm1 1_555 1_555
N3 H1 1_555 1_555
N4 C6 1_555 1_555
O1 Sm1A_2 1_555 1_555
O2 S1 1_555 1_555
O3 S1 1_555 1_555
O4 Sm1 1_555 1_555
O5 Sm1 1_555 1_555
O6 C24 1_555 1_555
O7 C24 1_555 1_555
C1 H2 1_555 1_555
C2 C1 1_555 1_555
H3 C2 1_555 1_555
C3 C2 1_555 1_555
H4 C3 1_555 1_555
C4 C3 1_555 1_555
C5 N3 1_555 1_555
C6 C5 1_555 1_555
C7 C6 1_555 1_555
C8 C7 1_555 1_555
H5 C8 1_555 1_555
C9 C8 1_555 1_555
H6 C9 1_555 1_555
C10 N2 1_555 1_555
H7 C10 1_555 1_555
C11 N2 1_555 1_555
C12 N1 1_555 1_555
C13 N3 1_555 1_555
C14 C13 1_555 1_555
C15 C14 1_555 1_555
H8 C15 1_555 1_555
C16 C15 1_555 1_555
H9 C16 1_555 1_555
C17 C16 1_555 1_555
H10 C17 1_555 1_555
C18 C17 1_555 1_555
H11 C18 1_555 1_555
C19 S1 1_555 1_555
C20 O4 1_555 1_555
C21 C20 1_555 1_555
H12 C21 1_555 1_555
H13 C21 1_555 1_555
C22 C21 1_555 1_555
H14 C22 1_555 1_555
H15 C22 1_555 1_555
C23 C22 1_555 1_555
H16 C23 1_555 1_555
H17 C23 1_555 1_555
C24 C23 1_555 1_555
O8 Sm1 1_555 1_555
H18 O8 1_555 1_555
H19 O8 1_555 1_555
Sm1_2 O6 1_555 1_555
Sm1A O6 1_555 1_555
O1A Sm1 1_555 1_555
O6_2 Sm1 1_555 1_555
O6A Sm1 1_555 1_555
O7A Sm1 1_555 1_555
N4 C13 1_555 1_555
O5 C20 1_555 1_555
O7 Sm1A 1_555 1_555
C4 C5 1_555 1_555
C4 C12 1_555 1_555
C7 C11 1_555 1_555
C9 C10 1_555 1_555
C11 C12 1_555 1_555
C14 C19 1_555 1_555
C18 C19 1_555 1_555

#END
