
#######################################################################
#
#                 Cambridge Crystallographic Data Centre
#                                CCDC 
#
#######################################################################
#
# If this CIF has been generated from an entry in the Cambridge 
# Structural Database, then it will include bibliographic, chemical, 
# crystal, experimental, refinement or atomic coordinate data resulting 
# from the CCDC's data processing and validation procedures.
#
#######################################################################

data_LUYGOD
_symmetry_cell_setting           triclinic
_symmetry_space_group_name_H-M   'P -1'
_symmetry_Int_Tables_number      2
_space_group_name_Hall           '-P 1'
loop_
_symmetry_equiv_pos_site_id
_symmetry_equiv_pos_as_xyz
1 x,y,z
2 -x,-y,-z
_cell_length_a                   9.0700(11)
_cell_length_b                   9.0825(11)
_cell_length_c                   14.4882(17)
_cell_angle_alpha                95.756(2)
_cell_angle_beta                 91.454(2)
_cell_angle_gamma                99.401(2)
_cell_volume                     1170.49
loop_
_atom_site_label
_atom_site_type_symbol
_atom_site_fract_x
_atom_site_fract_y
_atom_site_fract_z
Pr1 Pr 0.54960(2) 0.56720(2) 0.647206(14)
S1 S 0.04190(11) 0.41905(11) 1.26622(7)
N1 N 0.4237(4) 0.6202(3) 0.8087(2)
N2 N 0.5382(4) 0.3652(4) 0.7690(2)
N3 N 0.1767(4) 0.3757(4) 1.0663(2)
H1 H 0.1249 0.4380 1.0927
N4 N 0.2752(4) 0.1670(4) 1.0352(2)
O1 O 0.2022(3) 0.4530(3) 1.2905(2)
O2 O -0.0478(3) 0.4397(3) 1.3455(2)
O3 O 0.0046(3) 0.5000(3) 1.18946(19)
O4 O 0.6732(3) 0.8306(3) 0.68923(19)
O5 O 0.7215(3) 0.7300(3) 0.55178(19)
O6 O 0.5947(3) 1.3906(3) 0.52152(19)
O7 O 0.6310(3) 1.2652(3) 0.38919(18)
C1 C 0.3741(4) 0.7492(4) 0.8298(3)
H2 H 0.3976 0.8256 0.7918
C2 C 0.2884(4) 0.7741(4) 0.9064(3)
H3 H 0.2571 0.8663 0.9194
C3 C 0.2506(4) 0.6635(4) 0.9622(3)
H4 H 0.1921 0.6787 1.0130
C4 C 0.3005(4) 0.5268(4) 0.9423(2)
C5 C 0.2704(4) 0.4003(4) 0.9944(2)
C6 C 0.3293(4) 0.2710(4) 0.9768(3)
C7 C 0.4282(4) 0.2560(4) 0.9020(2)
C8 C 0.4996(5) 0.1316(4) 0.8824(3)
H5 H 0.4864 0.0532 0.9196
C9 C 0.5894(5) 0.1267(5) 0.8075(3)
H6 H 0.6393 0.0461 0.7934
C10 C 0.6033(5) 0.2459(5) 0.7534(3)
H7 H 0.6631 0.2412 0.7024
C11 C 0.4514(4) 0.3720(4) 0.8444(2)
C12 C 0.3901(4) 0.5094(4) 0.8651(2)
C13 C 0.1812(4) 0.2333(4) 1.0878(3)
C14 C 0.0803(4) 0.1558(4) 1.1518(3)
C15 C 0.0492(5) -0.0002(5) 1.1335(3)
H8 H 0.0978 -0.0464 1.0859
C16 C -0.0513(5) -0.0891(5) 1.1837(3)
H9 H -0.0690 -0.1929 1.1701
C17 C -0.1246(5) -0.0216(5) 1.2539(3)
H10 H -0.1943 -0.0795 1.2870
C18 C -0.0945(4) 0.1324(5) 1.2751(3)
H11 H -0.1439 0.1769 1.3230
C19 C 0.0080(4) 0.2224(4) 1.2262(3)
C20 C 0.7339(5) 0.8416(5) 0.6127(3)
C21 C 0.8148(5) 0.9917(5) 0.5911(3)
H12 H 0.9038 0.9784 0.5577
H13 H 0.8457 1.0551 0.6485
C22 C 0.7131(5) 1.0667(4) 0.5328(3)
H14 H 0.6183 1.0660 0.5624
H15 H 0.6934 1.0093 0.4723
C23 C 0.7808(4) 1.2285(4) 0.5198(3)
H16 H 0.8137 1.2839 0.5795
H17 H 0.8667 1.2298 0.4812
C24 C 0.6633(4) 1.3001(4) 0.4743(3)
O8 O 0.2931(3) 0.4001(3) 0.6290(2)
H18 H 0.226(4) 0.451(5) 0.636(3)
H19 H 0.261(5) 0.348(4) 0.581(2)
Pr1_2 Pr 0.54960(2) 1.56720(2) 0.647206(14)
Pr1A Pr 0.45040(2) 0.43280(2) 1.352794(14)
Pr1A_2 Pr 0.45040(2) 1.43280(2) 0.352794(14)
O1A O 0.7978(3) 0.5470(3) 0.7095(2)
O6_2 O 0.5947(3) 0.3906(3) 0.52152(19)
O6A O 0.4053(3) 0.6094(3) 0.47848(19)
O7A O 0.3690(3) 0.7348(3) 0.61081(18)
loop_
_geom_bond_atom_site_label_1
_geom_bond_atom_site_label_2
_geom_bond_site_symmetry_1
_geom_bond_site_symmetry_2
Pr1 N1 1_555 1_555
S1 O1 1_555 1_555
N1 C1 1_555 1_555
N2 Pr1 1_555 1_555
N3 H1 1_555 1_555
N4 C6 1_555 1_555
O1 Pr1A 1_555 1_555
O2 S1 1_555 1_555
O3 S1 1_555 1_555
O4 Pr1 1_555 1_555
O5 Pr1 1_555 1_555
O6 C24 1_555 1_555
O7 C24 1_555 1_555
C1 H2 1_555 1_555
C2 C1 1_555 1_555
H3 C2 1_555 1_555
C3 C2 1_555 1_555
H4 C3 1_555 1_555
C4 C3 1_555 1_555
C5 N3 1_555 1_555
C6 C5 1_555 1_555
C7 C6 1_555 1_555
C8 C7 1_555 1_555
H5 C8 1_555 1_555
C9 C8 1_555 1_555
H6 C9 1_555 1_555
C10 N2 1_555 1_555
H7 C10 1_555 1_555
C11 N2 1_555 1_555
C12 N1 1_555 1_555
C13 N3 1_555 1_555
C14 C13 1_555 1_555
C15 C14 1_555 1_555
H8 C15 1_555 1_555
C16 C15 1_555 1_555
H9 C16 1_555 1_555
C17 C16 1_555 1_555
H10 C17 1_555 1_555
C18 C17 1_555 1_555
H11 C18 1_555 1_555
C19 S1 1_555 1_555
C20 O4 1_555 1_555
C21 C20 1_555 1_555
H12 C21 1_555 1_555
H13 C21 1_555 1_555
C22 C21 1_555 1_555
H14 C22 1_555 1_555
H15 C22 1_555 1_555
C23 C22 1_555 1_555
H16 C23 1_555 1_555
H17 C23 1_555 1_555
C24 C23 1_555 1_555
O8 Pr1 1_555 1_555
H18 O8 1_555 1_555
H19 O8 1_555 1_555
Pr1_2 O6 1_555 1_555
Pr1A_2 O6 1_555 1_555
O1A Pr1 1_555 1_555
O6_2 Pr1 1_555 1_555
O6A Pr1 1_555 1_555
O7A Pr1 1_555 1_555
N4 C13 1_555 1_555
O5 C20 1_555 1_555
O7 Pr1A_2 1_555 1_555
C4 C5 1_555 1_555
C4 C12 1_555 1_555
C7 C11 1_555 1_555
C9 C10 1_555 1_555
C11 C12 1_555 1_555
C14 C19 1_555 1_555
C18 C19 1_555 1_555

#END
