
#######################################################################
#
#                 Cambridge Crystallographic Data Centre
#                                CCDC 
#
#######################################################################
#
# If this CIF has been generated from an entry in the Cambridge 
# Structural Database, then it will include bibliographic, chemical, 
# crystal, experimental, refinement or atomic coordinate data resulting 
# from the CCDC's data processing and validation procedures.
#
#######################################################################

data_LUYHES
_symmetry_cell_setting           triclinic
_symmetry_space_group_name_H-M   'P -1'
_symmetry_Int_Tables_number      2
_space_group_name_Hall           '-P 1'
loop_
_symmetry_equiv_pos_site_id
_symmetry_equiv_pos_as_xyz
1 x,y,z
2 -x,-y,-z
_cell_length_a                   10.221(1)
_cell_length_b                   10.335(1)
_cell_length_c                   10.200(1)
_cell_angle_alpha                96.77(1)
_cell_angle_beta                 113.739(8)
_cell_angle_gamma                85.52(1)
_cell_volume                     978.867
loop_
_atom_site_label
_atom_site_type_symbol
_atom_site_fract_x
_atom_site_fract_y
_atom_site_fract_z
Br1 Br 0.19150(5) 0.48260(5) 0.53468(5)
Br2 Br 0.64532(5) 0.19146(5) 1.30528(5)
Mn1 Mn 0.67992(6) 0.23316(6) 0.80393(7)
O1 O 0.6618(3) 0.1957(3) 1.0099(3)
O2 O 0.4675(3) -0.0593(3) 1.2354(3)
O3 O 0.4796(3) 0.3278(3) 0.6708(3)
O4 O 0.2760(3) 0.6526(3) 0.3537(3)
N1 N 0.7359(4) 0.4301(3) 0.9532(4)
N2 N 0.9175(3) 0.2378(3) 0.9365(4)
N3 N 0.7921(3) 0.0667(3) 0.7134(4)
C1 C 0.4863(4) -0.0244(4) 1.1303(4)
C2 C 0.5863(4) 0.1079(4) 1.0130(4)
C3 C 0.5644(4) 0.0814(4) 1.1323(4)
C4 C 0.4804(4) 0.4098(4) 0.5894(4)
C5 C 0.3665(4) 0.4884(4) 0.5132(4)
C6 C 0.3754(4) 0.5793(4) 0.4246(4)
C7 C 0.6405(5) 0.5252(4) 0.9571(5)
C8 C 0.6726(6) 0.6283(5) 1.0621(6)
C9 C 0.8089(6) 0.6364(5) 1.1660(6)
C10 C 0.9099(5) 0.5408(5) 1.1630(5)
C11 C 0.8694(4) 0.4371(4) 1.0577(5)
C12 C 0.9711(4) 0.3284(4) 1.0484(5)
C13 C 1.1121(4) 0.3199(4) 1.1470(5)
C14 C 1.1978(4) 0.2161(5) 1.1277(5)
C15 C 1.1436(4) 0.1259(4) 1.0115(5)
C16 C 1.0022(4) 0.1400(4) 0.9147(5)
C17 C 0.9356(4) 0.0498(4) 0.7836(5)
C18 C 1.0120(5) -0.0436(5) 0.7321(5)
C19 C 0.9408(6) -0.1234(5) 0.6082(6)
C20 C 0.7959(5) -0.1067(5) 0.5373(5)
C21 C 0.7266(4) -0.0110(5) 0.5936(5)
H1 H 1.2965 0.2070 1.1962
H2 H 1.0088 0.5469 1.2338
H3 H 1.1499 0.3865 1.2289
H4 H 0.6229 0.0001 0.5427
H5 H 1.2045 0.0534 0.9962
H6 H 0.5433 0.5213 0.8827
H7 H 1.1154 -0.0532 0.7819
H8 H 0.5998 0.6952 1.0622
H9 H 0.7427 -0.1613 0.4486
H10 H 0.8332 0.7092 1.2416
H11 H 0.9930 -0.1915 0.5713
C6A C 0.6246(4) 0.4207(4) 0.5754(4)
O4A O 0.7240(3) 0.3474(3) 0.6463(3)
C5A C 0.6335(4) 0.5116(4) 0.4868(4)
Br1A Br 0.80850(5) 0.51740(5) 0.46532(5)
C4A C 0.5196(4) 0.5902(4) 0.4106(4)
O3A O 0.5204(3) 0.6722(3) 0.3292(3)
C2A C 0.4137(4) -0.1079(4) 0.9870(4)
O1A O 0.3382(3) -0.1957(3) 0.9901(3)
C3A C 0.4356(4) -0.0814(4) 0.8677(4)
Br2A Br 0.35468(5) -0.19146(5) 0.69472(5)
C1A C 0.5137(4) 0.0244(4) 0.8697(4)
O2A O 0.5325(3) 0.0593(3) 0.7646(3)
Mn1A Mn 0.32008(6) -0.23316(6) 1.19607(7)
N1A N 0.2641(4) -0.4301(3) 1.0468(4)
N2A N 0.0825(3) -0.2378(3) 1.0635(4)
N3A N 0.2079(3) -0.0667(3) 1.2866(4)
C7A C 0.3595(5) -0.5252(4) 1.0429(5)
C8A C 0.3274(6) -0.6283(5) 0.9379(6)
C9A C 0.1911(6) -0.6364(5) 0.8340(6)
C10A C 0.0901(5) -0.5408(5) 0.8370(5)
C11A C 0.1306(4) -0.4371(4) 0.9423(5)
C12A C 0.0289(4) -0.3284(4) 0.9516(5)
C13A C -0.1121(4) -0.3199(4) 0.8530(5)
C14A C -0.1978(4) -0.2161(5) 0.8723(5)
C15A C -0.1436(4) -0.1259(4) 0.9885(5)
C16A C -0.0022(4) -0.1400(4) 1.0853(5)
C17A C 0.0644(4) -0.0498(4) 1.2164(5)
C18A C -0.0120(5) 0.0436(5) 1.2679(5)
C19A C 0.0592(6) 0.1234(5) 1.3918(6)
C20A C 0.2041(5) 0.1067(5) 1.4627(5)
C21A C 0.2734(4) 0.0110(5) 1.4064(5)
H1A H -0.2965 -0.2070 0.8038
H2A H -0.0088 -0.5469 0.7662
H3A H -0.1499 -0.3865 0.7711
H4A H 0.3771 -0.0001 1.4573
H5A H -0.2045 -0.0534 1.0038
H6A H 0.4567 -0.5213 1.1173
H7A H -0.1154 0.0532 1.2181
H8A H 0.4002 -0.6952 0.9378
H9A H 0.2573 0.1613 1.5514
H10A H 0.1668 -0.7092 0.7584
H11A H 0.0070 0.1915 1.4287
Mn1A_2 Mn 0.32008(6) 0.76684(6) 0.19607(7)
O3A_2 O 0.5204(3) -0.3278(3) 1.3292(3)
O4_2 O 0.2760(3) -0.3474(3) 1.3537(3)
loop_
_geom_bond_atom_site_label_1
_geom_bond_atom_site_label_2
_geom_bond_site_symmetry_1
_geom_bond_site_symmetry_2
Br1 C5 1_555 1_555
Br2 C3 1_555 1_555
Mn1 O1 1_555 1_555
O1 C2 1_555 1_555
O2 C1 1_555 1_555
O3 Mn1 1_555 1_555
O4 C6 1_555 1_555
N1 Mn1 1_555 1_555
N2 Mn1 1_555 1_555
N3 Mn1 1_555 1_555
C1 C3 1_555 1_555
C2 C3 1_555 1_555
C4 O3 1_555 1_555
C5 C4 1_555 1_555
C6 C5 1_555 1_555
C7 N1 1_555 1_555
C8 C7 1_555 1_555
C9 C8 1_555 1_555
C10 C9 1_555 1_555
C11 N1 1_555 1_555
C12 N2 1_555 1_555
C13 C12 1_555 1_555
C14 C13 1_555 1_555
C15 C14 1_555 1_555
C16 N2 1_555 1_555
C17 N3 1_555 1_555
C18 C17 1_555 1_555
C19 C18 1_555 1_555
C20 C19 1_555 1_555
C21 N3 1_555 1_555
H1 C14 1_555 1_555
H2 C10 1_555 1_555
H3 C13 1_555 1_555
H4 C21 1_555 1_555
H5 C15 1_555 1_555
H6 C7 1_555 1_555
H7 C18 1_555 1_555
H8 C8 1_555 1_555
H9 C20 1_555 1_555
H10 C9 1_555 1_555
H11 C19 1_555 1_555
C6A C4 1_555 1_555
O4A Mn1 1_555 1_555
C5A C6A 1_555 1_555
Br1A C5A 1_555 1_555
C4A C6 1_555 1_555
O3A C4A 1_555 1_555
C2A C1 1_555 1_555
O1A C2A 1_555 1_555
C3A C2A 1_555 1_555
Br2A C3A 1_555 1_555
C1A C2 1_555 1_555
O2A Mn1 1_555 1_555
Mn1A O2 1_555 1_555
N1A Mn1A 1_555 1_555
N2A Mn1A 1_555 1_555
N3A Mn1A 1_555 1_555
C7A N1A 1_555 1_555
C8A C7A 1_555 1_555
C9A C8A 1_555 1_555
C10A C9A 1_555 1_555
C11A N1A 1_555 1_555
C12A N2A 1_555 1_555
C13A C12A 1_555 1_555
C14A C13A 1_555 1_555
C15A C14A 1_555 1_555
C16A N2A 1_555 1_555
C17A N3A 1_555 1_555
C18A C17A 1_555 1_555
C19A C18A 1_555 1_555
C20A C19A 1_555 1_555
C21A N3A 1_555 1_555
H1A C14A 1_555 1_555
H2A C10A 1_555 1_555
H3A C13A 1_555 1_555
H4A C21A 1_555 1_555
H5A C15A 1_555 1_555
H6A C7A 1_555 1_555
H7A C18A 1_555 1_555
H8A C8A 1_555 1_555
H9A C20A 1_555 1_555
H10A C9A 1_555 1_555
H11A C19A 1_555 1_555
Mn1A_2 O4 1_555 1_555
O3A_2 Mn1A 1_555 1_555
O4_2 Mn1A 1_555 1_555
C10 C11 1_555 1_555
C11 C12 1_555 1_555
C15 C16 1_555 1_555
C16 C17 1_555 1_555
C20 C21 1_555 1_555
C6A O4A 1_555 1_555
C5A C4A 1_555 1_555
O3A Mn1A_2 1_555 1_555
O1A Mn1A 1_555 1_555
C3A C1A 1_555 1_555
C1A O2A 1_555 1_555
C10A C11A 1_555 1_555
C11A C12A 1_555 1_555
C15A C16A 1_555 1_555
C16A C17A 1_555 1_555
C20A C21A 1_555 1_555

#END
