
#######################################################################
#
#                 Cambridge Crystallographic Data Centre
#                                CCDC 
#
#######################################################################
#
# If this CIF has been generated from an entry in the Cambridge 
# Structural Database, then it will include bibliographic, chemical, 
# crystal, experimental, refinement or atomic coordinate data resulting 
# from the CCDC's data processing and validation procedures.
#
#######################################################################

data_LUYHEU
_symmetry_cell_setting           triclinic
_symmetry_space_group_name_H-M   'P -1'
_symmetry_Int_Tables_number      2
_space_group_name_Hall           '-P 1'
loop_
_symmetry_equiv_pos_site_id
_symmetry_equiv_pos_as_xyz
1 x,y,z
2 -x,-y,-z
_cell_length_a                   8.9094(14)
_cell_length_b                   9.0407(14)
_cell_length_c                   14.458(2)
_cell_angle_alpha                94.501(2)
_cell_angle_beta                 91.024(3)
_cell_angle_gamma                98.578(3)
_cell_volume                     1147.46
loop_
_atom_site_label
_atom_site_type_symbol
_atom_site_fract_x
_atom_site_fract_y
_atom_site_fract_z
Dy1 Dy 1.05425(3) 0.06389(3) 0.15289(2)
S1 S 0.53892(16) -0.08202(18) 0.76591(11)
N1 N 1.0460(5) -0.1373(6) 0.2684(3)
N2 N 0.9298(5) 0.1175(6) 0.3056(3)
N3 N 0.7745(5) -0.3341(6) 0.5362(3)
H1 H 0.7956 -0.4234 0.5390
N4 N 0.6742(5) -0.1243(6) 0.5669(3)
O1 O 0.7024(4) -0.0515(5) 0.7871(3)
O2 O 0.4995(5) -0.0002(5) 0.6891(3)
O3 O 0.4482(5) -0.0611(5) 0.8461(3)
O4 O 1.2105(5) 0.2149(5) 0.0518(3)
O5 O 1.1633(5) 0.3196(4) 0.1883(3)
O6 O 1.0987(5) 0.8904(5) 0.0427(3)
O7 O 1.1225(5) 0.7887(5) -0.0987(3)
C1 C 1.1135(7) -0.2569(7) 0.2528(4)
H2 H 1.1753 -0.2613 0.2018
C2 C 1.0975(7) -0.3760(7) 0.3081(4)
H3 H 1.1475 -0.4580 0.2945
C3 C 1.0065(7) -0.3709(7) 0.3835(4)
H4 H 0.9941 -0.4496 0.4218
C4 C 0.9334(6) -0.2475(7) 0.4019(4)
C5 C 0.8311(7) -0.2315(7) 0.4767(4)
C6 C 0.7709(7) -0.1008(7) 0.4939(4)
C7 C 0.8033(6) 0.0247(7) 0.4413(4)
C8 C 0.7537(7) 0.1633(7) 0.4591(4)
H5 H 0.6933 0.1786 0.5097
C9 C 0.7932(6) 0.2767(7) 0.4028(4)
H6 H 0.7622 0.3699 0.4149
C10 C 0.8820(7) 0.2480(7) 0.3261(4)
H7 H 0.9087 0.3246 0.2874
C11 C 0.8954(6) 0.0088(7) 0.3630(4)
C12 C 0.9575(6) -0.1306(7) 0.3428(4)
C13 C 0.6804(7) -0.2672(7) 0.5888(4)
C14 C 0.5768(6) -0.3454(7) 0.6542(4)
C15 C 0.5428(7) -0.5023(7) 0.6371(4)
H8 H 0.5908 -0.5498 0.5893
C16 C 0.4416(7) -0.5869(8) 0.6886(4)
H9 H 0.4229 -0.6906 0.6762
C17 C 0.3667(7) -0.5191(8) 0.7590(5)
H10 H 0.2963 -0.5765 0.7934
C18 C 0.3973(7) -0.3656(8) 0.7778(4)
H11 H 0.3458 -0.3198 0.8247
C19 C 0.5037(6) -0.2782(7) 0.7281(4)
C20 C 1.2254(7) 0.3279(7) 0.1109(4)
C21 C 1.3114(7) 0.4750(7) 0.0866(5)
H12 H 1.3964 0.4567 0.0486
H13 H 1.3513 0.5342 0.1429
C22 C 1.2082(7) 0.5622(7) 0.0339(4)
H14 H 1.1809 0.5091 -0.0264
H15 H 1.1154 0.5653 0.0677
C23 C 1.2806(6) 0.7220(7) 0.0201(4)
H16 H 1.3249 0.7711 0.0785
H17 H 1.3606 0.7208 -0.0244
C24 C 1.1601(6) 0.8064(6) -0.0149(4)
O8 O 0.8094(5) -0.0972(5) 0.1313(3)
H18 H 0.790(7) -0.148(6) 0.080(3)
H19 H 0.731(4) -0.059(7) 0.139(4)
Dy1_2 Dy 1.05425(3) 1.06389(3) 0.15289(2)
Dy1A Dy 0.94575(3) -0.06389(3) 0.84711(2)
Dy1A_2 Dy 0.94575(3) 0.93611(3) -0.15289(2)
O1A O 1.2976(4) 0.0515(5) 0.2129(3)
O6_2 O 1.0987(5) -0.1096(5) 0.0427(3)
O7A O 0.8775(5) 0.2113(5) 0.0987(3)
loop_
_geom_bond_atom_site_label_1
_geom_bond_atom_site_label_2
_geom_bond_site_symmetry_1
_geom_bond_site_symmetry_2
Dy1 N1 1_555 1_555
S1 O1 1_555 1_555
N1 C1 1_555 1_555
N2 Dy1 1_555 1_555
N3 H1 1_555 1_555
N4 C6 1_555 1_555
O1 Dy1A 1_555 1_555
O2 S1 1_555 1_555
O3 S1 1_555 1_555
O4 Dy1 1_555 1_555
O5 Dy1 1_555 1_555
O6 C24 1_555 1_555
O7 C24 1_555 1_555
C1 H2 1_555 1_555
C2 C1 1_555 1_555
H3 C2 1_555 1_555
C3 C2 1_555 1_555
H4 C3 1_555 1_555
C4 C3 1_555 1_555
C5 N3 1_555 1_555
C6 C5 1_555 1_555
C7 C6 1_555 1_555
C8 C7 1_555 1_555
H5 C8 1_555 1_555
C9 C8 1_555 1_555
H6 C9 1_555 1_555
C10 N2 1_555 1_555
H7 C10 1_555 1_555
C11 N2 1_555 1_555
C12 N1 1_555 1_555
C13 N3 1_555 1_555
C14 C13 1_555 1_555
C15 C14 1_555 1_555
H8 C15 1_555 1_555
C16 C15 1_555 1_555
H9 C16 1_555 1_555
C17 C16 1_555 1_555
H10 C17 1_555 1_555
C18 C17 1_555 1_555
H11 C18 1_555 1_555
C19 S1 1_555 1_555
C20 O4 1_555 1_555
C21 C20 1_555 1_555
H12 C21 1_555 1_555
H13 C21 1_555 1_555
C22 C21 1_555 1_555
H14 C22 1_555 1_555
H15 C22 1_555 1_555
C23 C22 1_555 1_555
H16 C23 1_555 1_555
H17 C23 1_555 1_555
C24 C23 1_555 1_555
O8 Dy1 1_555 1_555
H18 O8 1_555 1_555
H19 O8 1_555 1_555
Dy1_2 O6 1_555 1_555
Dy1A_2 O7 1_555 1_555
O1A Dy1 1_555 1_555
O6_2 Dy1 1_555 1_555
O7A Dy1 1_555 1_555
N4 C13 1_555 1_555
O5 C20 1_555 1_555
C4 C5 1_555 1_555
C4 C12 1_555 1_555
C7 C11 1_555 1_555
C9 C10 1_555 1_555
C11 C12 1_555 1_555
C14 C19 1_555 1_555
C18 C19 1_555 1_555

#END
