
#######################################################################
#
#                 Cambridge Crystallographic Data Centre
#                                CCDC 
#
#######################################################################
#
# If this CIF has been generated from an entry in the Cambridge 
# Structural Database, then it will include bibliographic, chemical, 
# crystal, experimental, refinement or atomic coordinate data resulting 
# from the CCDC's data processing and validation procedures.
#
#######################################################################

data_LUYHIW
_symmetry_cell_setting           triclinic
_symmetry_space_group_name_H-M   'P -1'
_symmetry_Int_Tables_number      2
_space_group_name_Hall           '-P 1'
loop_
_symmetry_equiv_pos_site_id
_symmetry_equiv_pos_as_xyz
1 x,y,z
2 -x,-y,-z
_cell_length_a                   10.124(3)
_cell_length_b                   10.929(4)
_cell_length_c                   9.828(2)
_cell_angle_alpha                96.17(3)
_cell_angle_beta                 98.19(3)
_cell_angle_gamma                66.16(2)
_cell_volume                     982.999
loop_
_atom_site_label
_atom_site_type_symbol
_atom_site_fract_x
_atom_site_fract_y
_atom_site_fract_z
Mn1 Mn 0.66826(5) 0.19201(4) 0.25332(4)
O1 O 0.7196(2) 0.0420(2) 0.4187(2)
O2 O 0.4553(2) 0.1802(2) 0.3129(2)
O3 O 0.8384(2) 0.2224(2) 0.1417(2)
O4 O 0.7889(2) 0.0043(2) 0.1418(2)
O5 O 0.8474(3) -0.2533(3) 0.6288(3)
O6 O 0.8532(3) -0.0590(3) 0.6835(3)
O7 O 1.2020(3) 0.2069(3) 0.0730(3)
O8 O 0.9912(3) 0.3352(3) -0.0108(3)
N1 N 0.5088(3) 0.2474(2) 0.0543(2)
N2 N 0.5504(2) 0.4143(2) 0.2554(2)
N3 N 0.7719(3) 0.2857(2) 0.4351(2)
N4 N 0.7932(3) -0.1335(3) 0.6314(3)
N5 N 1.0747(3) 0.2325(3) 0.0211(3)
C1 C 0.6227(3) 0.0208(3) 0.4639(3)
C2 C 0.4677(3) 0.0973(3) 0.3964(3)
C3 C 0.6436(3) -0.0670(3) 0.5660(3)
C4 C 0.9181(3) 0.1232(3) 0.0761(3)
C5 C 0.8864(3) -0.0033(3) 0.0719(3)
C6 C 1.0334(3) 0.1155(3) 0.0074(3)
C7 C 0.4946(4) 0.1583(3) -0.0454(3)
C8 C 0.3857(4) 0.1941(4) -0.1553(3)
C9 C 0.2919(4) 0.3256(4) -0.1631(4)
C10 C 0.3063(3) 0.4194(3) -0.0625(3)
C11 C 0.4157(3) 0.3763(3) 0.0464(3)
C12 C 0.4390(3) 0.4702(3) 0.1585(3)
C13 C 0.3554(3) 0.6076(3) 0.1642(3)
C14 C 0.3886(4) 0.6863(3) 0.2708(4)
C15 C 0.5053(4) 0.6285(3) 0.3677(3)
C16 C 0.5854(3) 0.4916(3) 0.3570(3)
C17 C 0.7151(3) 0.4197(3) 0.4537(3)
C18 C 0.7735(4) 0.4865(4) 0.5573(4)
C19 C 0.8932(4) 0.4120(4) 0.6436(4)
C20 C 0.9527(4) 0.2750(4) 0.6249(4)
C21 C 0.8885(3) 0.2154(3) 0.5196(3)
H1 H 0.561(3) 0.070(3) -0.037(3)
H2 H 0.377(4) 0.124(4) -0.222(4)
H3 H 0.216(4) 0.359(3) -0.239(4)
H4 H 0.245(3) 0.510(3) -0.068(3)
H5 H 0.279(3) 0.645(3) 0.095(3)
H6 H 0.333(3) 0.777(3) 0.273(3)
H7 H 0.528(4) 0.684(3) 0.440(3)
H8 H 0.737(3) 0.578(3) 0.567(3)
H9 H 0.933(4) 0.459(4) 0.717(4)
H10 H 1.039(4) 0.212(3) 0.689(3)
H11 H 0.922(4) 0.114(3) 0.510(3)
C3A C 0.3564(3) 0.0670(3) 0.4340(3)
N4A N 0.2068(3) 0.1335(3) 0.3686(3)
O5A O 0.1526(3) 0.2533(3) 0.3712(3)
O6A O 0.1468(3) 0.0590(3) 0.3165(3)
C1A C 0.3773(3) -0.0208(3) 0.5361(3)
O1A O 0.2804(2) -0.0420(2) 0.5813(2)
C2A C 0.5323(3) -0.0973(3) 0.6036(3)
O2A O 0.5447(2) -0.1802(2) 0.6871(2)
C6A C 0.9666(3) -0.1155(3) -0.0074(3)
N5A N 0.9253(3) -0.2325(3) -0.0211(3)
O7A O 0.7980(3) -0.2069(3) -0.0730(3)
O8A O 1.0088(3) -0.3352(3) 0.0108(3)
C4A C 1.0819(3) -0.1232(3) -0.0761(3)
O3A O 1.1616(2) -0.2224(2) -0.1417(2)
C5A C 1.1136(3) 0.0033(3) -0.0719(3)
O4A O 1.2111(2) -0.0043(2) -0.1418(2)
Mn1A Mn 0.33174(5) -0.19201(4) 0.74668(4)
N1A N 0.4912(3) -0.2474(2) 0.9457(2)
N2A N 0.4496(2) -0.4143(2) 0.7446(2)
N3A N 0.2281(3) -0.2857(2) 0.5649(2)
C7A C 0.5054(4) -0.1583(3) 1.0454(3)
C8A C 0.6143(4) -0.1941(4) 1.1553(3)
C9A C 0.7081(4) -0.3256(4) 1.1631(4)
C10A C 0.6937(3) -0.4194(3) 1.0625(3)
C11A C 0.5843(3) -0.3763(3) 0.9536(3)
C12A C 0.5610(3) -0.4702(3) 0.8415(3)
C13A C 0.6446(3) -0.6076(3) 0.8358(3)
C14A C 0.6114(4) -0.6863(3) 0.7292(4)
C15A C 0.4947(4) -0.6285(3) 0.6323(3)
C16A C 0.4146(3) -0.4916(3) 0.6430(3)
C17A C 0.2849(3) -0.4197(3) 0.5463(3)
C18A C 0.2265(4) -0.4865(4) 0.4427(4)
C19A C 0.1068(4) -0.4120(4) 0.3564(4)
C20A C 0.0473(4) -0.2750(4) 0.3751(4)
C21A C 0.1115(3) -0.2154(3) 0.4804(3)
H1A H 0.439(3) -0.070(3) 1.037(3)
H2A H 0.623(4) -0.124(4) 1.222(4)
H3A H 0.784(4) -0.359(3) 1.239(4)
H4A H 0.755(3) -0.510(3) 1.068(3)
H5A H 0.721(3) -0.645(3) 0.905(3)
H6A H 0.667(3) -0.777(3) 0.727(3)
H7A H 0.472(4) -0.684(3) 0.560(3)
H8A H 0.263(3) -0.578(3) 0.433(3)
H9A H 0.067(4) -0.459(4) 0.283(4)
H10A H -0.039(4) -0.212(3) 0.311(3)
H11A H 0.078(4) -0.114(3) 0.490(3)
Mn1A_2 Mn 1.33174(5) -0.19201(4) -0.25332(4)
O3A_2 O 0.1616(2) -0.2224(2) 0.8583(2)
O4A_2 O 0.2111(2) -0.0043(2) 0.8582(2)
loop_
_geom_bond_atom_site_label_1
_geom_bond_atom_site_label_2
_geom_bond_site_symmetry_1
_geom_bond_site_symmetry_2
Mn1 O1 1_555 1_555
O1 C1 1_555 1_555
O2 Mn1 1_555 1_555
O3 Mn1 1_555 1_555
O4 Mn1 1_555 1_555
O5 N4 1_555 1_555
O6 N4 1_555 1_555
O7 N5 1_555 1_555
O8 N5 1_555 1_555
N1 Mn1 1_555 1_555
N2 Mn1 1_555 1_555
N3 Mn1 1_555 1_555
N4 C3 1_555 1_555
N5 C6 1_555 1_555
C1 C2 1_555 1_555
C2 O2 1_555 1_555
C3 C1 1_555 1_555
C4 O3 1_555 1_555
C5 O4 1_555 1_555
C6 C4 1_555 1_555
C7 N1 1_555 1_555
C8 C7 1_555 1_555
C9 C8 1_555 1_555
C10 C9 1_555 1_555
C11 N1 1_555 1_555
C12 N2 1_555 1_555
C13 C12 1_555 1_555
C14 C13 1_555 1_555
C15 C14 1_555 1_555
C16 N2 1_555 1_555
C17 N3 1_555 1_555
C18 C17 1_555 1_555
C19 C18 1_555 1_555
C20 C19 1_555 1_555
C21 N3 1_555 1_555
H1 C7 1_555 1_555
H2 C8 1_555 1_555
H3 C9 1_555 1_555
H4 C10 1_555 1_555
H5 C13 1_555 1_555
H6 C14 1_555 1_555
H7 C15 1_555 1_555
H8 C18 1_555 1_555
H9 C19 1_555 1_555
H10 C20 1_555 1_555
H11 C21 1_555 1_555
C3A C2 1_555 1_555
N4A C3A 1_555 1_555
O5A N4A 1_555 1_555
O6A N4A 1_555 1_555
C1A C3A 1_555 1_555
O1A C1A 1_555 1_555
C2A C3 1_555 1_555
O2A C2A 1_555 1_555
C6A C5 1_555 1_555
N5A C6A 1_555 1_555
O7A N5A 1_555 1_555
O8A N5A 1_555 1_555
C4A C6A 1_555 1_555
O3A C4A 1_555 1_555
C5A C6 1_555 1_555
O4A C5A 1_555 1_555
Mn1A O1A 1_555 1_555
N1A Mn1A 1_555 1_555
N2A Mn1A 1_555 1_555
N3A Mn1A 1_555 1_555
C7A N1A 1_555 1_555
C8A C7A 1_555 1_555
C9A C8A 1_555 1_555
C10A C9A 1_555 1_555
C11A N1A 1_555 1_555
C12A N2A 1_555 1_555
C13A C12A 1_555 1_555
C14A C13A 1_555 1_555
C15A C14A 1_555 1_555
C16A N2A 1_555 1_555
C17A N3A 1_555 1_555
C18A C17A 1_555 1_555
C19A C18A 1_555 1_555
C20A C19A 1_555 1_555
C21A N3A 1_555 1_555
H1A C7A 1_555 1_555
H2A C8A 1_555 1_555
H3A C9A 1_555 1_555
H4A C10A 1_555 1_555
H5A C13A 1_555 1_555
H6A C14A 1_555 1_555
H7A C15A 1_555 1_555
H8A C18A 1_555 1_555
H9A C19A 1_555 1_555
H10A C20A 1_555 1_555
H11A C21A 1_555 1_555
Mn1A_2 O3A 1_555 1_555
O3A_2 Mn1A 1_555 1_555
O4A_2 Mn1A 1_555 1_555
C4 C5 1_555 1_555
C10 C11 1_555 1_555
C11 C12 1_555 1_555
C15 C16 1_555 1_555
C16 C17 1_555 1_555
C20 C21 1_555 1_555
C1A C2A 1_555 1_555
O2A Mn1A 1_555 1_555
C4A C5A 1_555 1_555
O4A Mn1A_2 1_555 1_555
C10A C11A 1_555 1_555
C11A C12A 1_555 1_555
C15A C16A 1_555 1_555
C16A C17A 1_555 1_555
C20A C21A 1_555 1_555

#END
