
#######################################################################
#
#                 Cambridge Crystallographic Data Centre
#                                CCDC 
#
#######################################################################
#
# If this CIF has been generated from an entry in the Cambridge 
# Structural Database, then it will include bibliographic, chemical, 
# crystal, experimental, refinement or atomic coordinate data resulting 
# from the CCDC's data processing and validation procedures.
#
#######################################################################

data_LUYHOE
_symmetry_cell_setting           triclinic
_symmetry_space_group_name_H-M   'P -1'
_symmetry_Int_Tables_number      2
_space_group_name_Hall           '-P 1'
loop_
_symmetry_equiv_pos_site_id
_symmetry_equiv_pos_as_xyz
1 x,y,z
2 -x,-y,-z
_cell_length_a                   8.872(7)
_cell_length_b                   9.023(8)
_cell_length_c                   14.475(12)
_cell_angle_alpha                94.059(16)
_cell_angle_beta                 91.016(14)
_cell_angle_gamma                98.053(16)
_cell_volume                     1144
loop_
_atom_site_label
_atom_site_type_symbol
_atom_site_fract_x
_atom_site_fract_y
_atom_site_fract_z
Er1 Er -0.05502(11) 0.43721(13) 0.84589(7)
S1 S 0.4604(6) 0.5824(7) 0.2351(4)
N1 N -0.052(2) 0.634(2) 0.7338(12)
N2 N 0.067(2) 0.383(2) 0.6937(13)
N3 N 0.2254(19) 0.8339(18) 0.4656(13)
N4 N 0.323(2) 0.625(2) 0.4365(11)
H1 H 0.3781 0.5628 0.4118
O1 O 0.2986(15) 0.5511(17) 0.2149(11)
O2 O 0.5008(16) 0.4976(17) 0.3112(10)
O3 O 0.5522(18) 0.5579(19) 0.1555(10)
O4 O 0.1188(16) 0.2986(18) 0.9034(10)
O5 O 0.1035(18) 0.3918(16) 1.0474(9)
O6 O 0.2123(16) -0.2881(17) 1.0524(10)
O7 O 0.1586(15) -0.1850(18) 1.1866(10)
C1 C -0.108(2) 0.756(3) 0.7476(16)
H2 H -0.1644 0.7640 0.8010
C2 C -0.098(2) 0.883(2) 0.6927(14)
H3 H -0.1482 0.9651 0.7059
C3 C -0.002(2) 0.870(2) 0.6165(15)
H4 H 0.0113 0.9464 0.5763
C4 C 0.069(2) 0.749(3) 0.6010(13)
C5 C 0.164(2) 0.730(2) 0.5242(13)
C6 C 0.227(2) 0.601(3) 0.5076(13)
C7 C 0.194(2) 0.473(2) 0.5607(15)
C8 C 0.246(2) 0.336(2) 0.5389(14)
H5 H 0.3037 0.3228 0.4869
C9 C 0.211(2) 0.225(3) 0.5948(15)
H6 H 0.2432 0.1326 0.5823
C10 C 0.119(2) 0.254(3) 0.6773(15)
H7 H 0.0979 0.1797 0.7183
C11 C 0.101(2) 0.492(3) 0.6348(13)
C12 C 0.042(2) 0.627(3) 0.6581(15)
C13 C 0.315(2) 0.767(3) 0.4117(14)
C14 C 0.423(2) 0.843(3) 0.3440(14)
C15 C 0.455(2) 1.005(3) 0.3639(14)
H8 H 0.4067 1.0520 0.4119
C16 C 0.555(2) 1.085(3) 0.3113(17)
H9 H 0.5776 1.1881 0.3248
C17 C 0.626(3) 1.020(3) 0.2384(19)
H10 H 0.6895 1.0781 0.2006
C18 C 0.601(2) 0.865(3) 0.2226(14)
H11 H 0.6561 0.8192 0.1778
C19 C 0.495(2) 0.777(2) 0.2715(16)
C20 C 0.162(2) 0.307(2) 0.9884(16)
C21 C 0.281(2) 0.221(2) 1.0214(13)
H12 H 0.3261 0.2670 1.0798
H13 H 0.3606 0.2193 0.9765
C22 C 0.206(3) 0.062(3) 1.0339(15)
H14 H 0.1151 0.0662 1.0696
H15 H 0.1746 0.0125 0.9735
C23 C 0.306(3) -0.031(3) 1.0811(15)
H16 H 0.3543 0.0280 1.1351
H17 H 0.3861 -0.0519 1.0394
C24 C 0.226(2) -0.178(3) 1.1115(14)
O8 O 0.1889(17) 0.6004(18) 0.8682(11)
Er1A Er 0.05502(11) -0.43721(13) 1.15411(7)
Er1A_2 Er 0.05502(11) 0.56279(13) 0.15411(7)
Er1A_3 Er 0.05502(11) 0.56279(13) 1.15411(7)
O1A O -0.2986(15) 0.4489(17) 0.7851(11)
O5A O -0.1035(18) 0.6082(16) 0.9526(9)
O6A O -0.2123(16) 0.2881(17) 0.9476(10)
O7A O -0.1586(15) 0.1850(18) 0.8134(10)
loop_
_geom_bond_atom_site_label_1
_geom_bond_atom_site_label_2
_geom_bond_site_symmetry_1
_geom_bond_site_symmetry_2
Er1 N1 1_555 1_555
S1 O1 1_555 1_555
N1 C1 1_555 1_555
N2 Er1 1_555 1_555
N3 C5 1_555 1_555
N4 H1 1_555 1_555
O1 Er1A_2 1_555 1_555
O2 S1 1_555 1_555
O3 S1 1_555 1_555
O4 Er1 1_555 1_555
O5 C20 1_555 1_555
O6 C24 1_555 1_555
O7 C24 1_555 1_555
C1 H2 1_555 1_555
C2 C1 1_555 1_555
H3 C2 1_555 1_555
C3 C2 1_555 1_555
H4 C3 1_555 1_555
C4 C3 1_555 1_555
C5 C4 1_555 1_555
C6 N4 1_555 1_555
C7 C6 1_555 1_555
C8 C7 1_555 1_555
H5 C8 1_555 1_555
C9 C8 1_555 1_555
H6 C9 1_555 1_555
C10 N2 1_555 1_555
H7 C10 1_555 1_555
C11 N2 1_555 1_555
C12 N1 1_555 1_555
C13 N3 1_555 1_555
C14 C13 1_555 1_555
C15 C14 1_555 1_555
H8 C15 1_555 1_555
C16 C15 1_555 1_555
H9 C16 1_555 1_555
C17 C16 1_555 1_555
H10 C17 1_555 1_555
C18 C17 1_555 1_555
H11 C18 1_555 1_555
C19 S1 1_555 1_555
C20 O4 1_555 1_555
C21 C20 1_555 1_555
H12 C21 1_555 1_555
H13 C21 1_555 1_555
C22 C21 1_555 1_555
H14 C22 1_555 1_555
H15 C22 1_555 1_555
C23 C22 1_555 1_555
H16 C23 1_555 1_555
H17 C23 1_555 1_555
C24 C23 1_555 1_555
O8 Er1 1_555 1_555
Er1A O6 1_555 1_555
Er1A_3 O5 1_555 1_555
O1A Er1 1_555 1_555
O5A Er1 1_555 1_555
O6A Er1 1_555 1_555
O7A Er1 1_555 1_555
N4 C13 1_555 1_555
O7 Er1A 1_555 1_555
C4 C12 1_555 1_555
C5 C6 1_555 1_555
C7 C11 1_555 1_555
C9 C10 1_555 1_555
C11 C12 1_555 1_555
C14 C19 1_555 1_555
C18 C19 1_555 1_555

#END
