
#######################################################################
#
#                 Cambridge Crystallographic Data Centre
#                                CCDC 
#
#######################################################################
#
# If this CIF has been generated from an entry in the Cambridge 
# Structural Database, then it will include bibliographic, chemical, 
# crystal, experimental, refinement or atomic coordinate data resulting 
# from the CCDC's data processing and validation procedures.
#
#######################################################################

data_LUYKEV
_symmetry_cell_setting           monoclinic
_symmetry_space_group_name_H-M   'P 21/c'
_symmetry_Int_Tables_number      14
_space_group_name_Hall           '-P 2ybc'
loop_
_symmetry_equiv_pos_site_id
_symmetry_equiv_pos_as_xyz
1 x,y,z
2 -x,1/2+y,1/2-z
3 -x,-y,-z
4 x,1/2-y,1/2+z
_cell_length_a                   10.6918(5)
_cell_length_b                   13.4693(6)
_cell_length_c                   16.3223(9)
_cell_angle_alpha                90
_cell_angle_beta                 107.296(2)
_cell_angle_gamma                90
_cell_volume                     2244.3
loop_
_atom_site_label
_atom_site_type_symbol
_atom_site_fract_x
_atom_site_fract_y
_atom_site_fract_z
Zn1 Zn -0.43937(5) 0.79332(4) -0.97849(3)
Zn2 Zn 0.35233(5) 0.85039(4) -0.16527(3)
N1 N -0.3267(4) 0.8417(3) -0.8527(2)
N2 N 0.2379(3) 0.8576(3) -0.28744(19)
O1 O -0.6060(3) 0.8588(2) -0.97155(19)
O2 O -0.7528(3) 0.9030(3) -1.09452(17)
O3 O -0.6397(3) 1.1102(2) -0.95826(18)
O4 O -0.5036(3) 1.0656(2) -0.83057(17)
O5 O -0.4722(3) 0.6531(2) -0.92344(18)
O6 O -0.2986(3) 0.6748(2) -0.96603(19)
O7 O -0.2393(3) 0.3315(3) -0.8250(3)
O8 O -0.4410(3) 0.2751(2) -0.8789(2)
C1 C -0.7111(4) 0.8983(3) -1.0139(2)
C2 C -0.7959(4) 0.9444(4) -0.9642(3)
H1 H -0.8534 0.8940 -0.9529
H2 H -0.8502 0.9957 -0.9989
C3 C -0.7143(5) 0.9898(4) -0.8787(3)
H3 H -0.7721 1.0249 -0.8528
H4 H -0.6723 0.9368 -0.8400
C4 C -0.6107(4) 1.0606(3) -0.8896(2)
C5 C -0.3640(4) 0.6225(3) -0.9296(3)
C6 C -0.3108(5) 0.5235(4) -0.8926(4)
H5 H -0.2687 0.4925 -0.9312
H6 H -0.2437 0.5349 -0.8385
C7 C -0.4087(4) 0.4520(3) -0.8773(3)
H7 H -0.4851 0.4509 -0.9275
H8 H -0.4365 0.4754 -0.8293
C8 C -0.3561(4) 0.3468(4) -0.8585(3)
C9 C -0.3764(5) 0.8315(4) -0.7864(3)
H9 H -0.4657 0.8199 -0.7981
C10 C -0.3010(6) 0.8376(5) -0.7021(3)
H10 H -0.3395 0.8296 -0.6584
C11 C -0.1697(6) 0.8554(4) -0.6825(3)
C12 C -0.1170(5) 0.8673(4) -0.7507(3)
H11 H -0.0281 0.8800 -0.7402
C13 C -0.1997(5) 0.8598(4) -0.8354(3)
H12 H -0.1642 0.8677 -0.8806
C14 C -0.0906(9) 0.8598(6) -0.5902(4)
H13 H -0.1406 0.8816 -0.5559
C15 C 0.0101(9) 0.8443(7) -0.5523(4)
H14 H 0.0618 0.8248 -0.5864
C16 C 0.2912(5) 0.8589(4) -0.3519(3)
H15 H 0.3817 0.8645 -0.3387
C17 C 0.2184(6) 0.8525(4) -0.4369(3)
H16 H 0.2604 0.8521 -0.4793
C18 C 0.0854(6) 0.8467(5) -0.4592(3)
C19 C 0.0276(5) 0.8447(5) -0.3920(3)
H17 H -0.0629 0.8406 -0.4041
C20 C 0.1072(5) 0.8490(4) -0.3078(3)
H18 H 0.0686 0.8458 -0.2638
O3B O -0.3603(3) 0.8898(2) -1.04174(18)
O8B O -0.5590(3) 0.7249(2) -1.1211(2)
O2_2 O 0.2472(3) 0.9030(3) -0.09452(17)
O4B O 0.5036(3) 0.9344(2) -0.16943(17)
O8B_2 O 0.4410(3) 0.7249(2) -0.1211(2)
Zn2_2 Zn -0.64767(5) 0.85039(4) -1.16527(3)
Zn1B Zn -0.56063(5) 1.20668(4) -1.02151(3)
Zn2B Zn -0.35233(5) 1.14961(4) -0.83473(3)
Zn1B_2 Zn -0.56063(5) 0.20668(4) -1.02151(3)
Zn2B_2 Zn -0.35233(5) 0.14961(4) -0.83473(3)
loop_
_geom_bond_atom_site_label_1
_geom_bond_atom_site_label_2
_geom_bond_site_symmetry_1
_geom_bond_site_symmetry_2
Zn1 N1 1_555 1_555
Zn2 N2 1_555 1_555
N1 C9 1_555 1_555
N2 C16 1_555 1_555
O1 Zn1 1_555 1_555
O2 C1 1_555 1_555
O3 C4 1_555 1_555
O4 C4 1_555 1_555
O5 Zn1 1_555 1_555
O6 Zn1 1_555 1_555
O7 C8 1_555 1_555
O8 C8 1_555 1_555
C1 O1 1_555 1_555
C2 C1 1_555 1_555
H1 C2 1_555 1_555
H2 C2 1_555 1_555
C3 C2 1_555 1_555
H3 C3 1_555 1_555
H4 C3 1_555 1_555
C4 C3 1_555 1_555
C5 O5 1_555 1_555
C6 C5 1_555 1_555
H5 C6 1_555 1_555
H6 C6 1_555 1_555
C7 C6 1_555 1_555
H7 C7 1_555 1_555
H8 C7 1_555 1_555
C8 C7 1_555 1_555
C9 H9 1_555 1_555
C10 C9 1_555 1_555
H10 C10 1_555 1_555
C11 C10 1_555 1_555
C12 C11 1_555 1_555
H11 C12 1_555 1_555
C13 N1 1_555 1_555
H12 C13 1_555 1_555
C14 C11 1_555 1_555
H13 C14 1_555 1_555
C15 C14 1_555 1_555
H14 C15 1_555 1_555
C16 H15 1_555 1_555
C17 C16 1_555 1_555
H16 C17 1_555 1_555
C18 C15 1_555 1_555
C19 C18 1_555 1_555
H17 C19 1_555 1_555
C20 N2 1_555 1_555
H18 C20 1_555 1_555
O3B Zn1 1_555 1_555
O8B Zn1 1_555 1_555
O2_2 Zn2 1_555 1_555
O4B Zn2 1_555 1_555
O8B_2 Zn2 1_555 1_555
Zn2_2 O2 1_555 1_555
Zn1B O3 1_555 1_555
Zn2B O4 1_555 1_555
Zn1B_2 O8 1_555 1_555
Zn2B_2 O8 1_555 1_555
O6 C5 1_555 1_555
C12 C13 1_555 1_555
C17 C18 1_555 1_555
C19 C20 1_555 1_555
O8B Zn2_2 1_555 1_555

#END
