
#######################################################################
#
#                 Cambridge Crystallographic Data Centre
#                                CCDC 
#
#######################################################################
#
# If this CIF has been generated from an entry in the Cambridge 
# Structural Database, then it will include bibliographic, chemical, 
# crystal, experimental, refinement or atomic coordinate data resulting 
# from the CCDC's data processing and validation procedures.
#
#######################################################################

data_LUYQUT
_symmetry_cell_setting           monoclinic
_symmetry_space_group_name_H-M   'P 21/n'
_symmetry_Int_Tables_number      14
_space_group_name_Hall           '-P 2yn'
loop_
_symmetry_equiv_pos_site_id
_symmetry_equiv_pos_as_xyz
1 x,y,z
2 1/2-x,1/2+y,1/2-z
3 -x,-y,-z
4 1/2+x,1/2-y,1/2+z
_cell_length_a                   7.5725(2)
_cell_length_b                   22.1300(3)
_cell_length_c                   9.4260(2)
_cell_angle_alpha                90
_cell_angle_beta                 98.541(2)
_cell_angle_gamma                90
_cell_volume                     1562.09
loop_
_atom_site_label
_atom_site_type_symbol
_atom_site_fract_x
_atom_site_fract_y
_atom_site_fract_z
Mo1 Mo 0.50205(2) 0.208939(7) 0.156553(17)
Mo2 Mo 0.23362(2) 0.203633(7) 0.437061(17)
O1 O 0.39112(19) 0.17661(7) 0.31244(15)
O2 O 0.70088(19) 0.25363(6) 0.10517(15)
O3 O 0.3295(2) 0.25110(7) 0.07195(16)
O4 O 0.5044(2) 0.14642(7) 0.05060(16)
O5 O 0.7495(2) 0.16860(7) 0.29797(17)
H1 H 0.7209 0.1387 0.3463
H2 H 0.8169 0.1918 0.3540
O6 O 0.0833(2) 0.24133(7) 0.31557(16)
O7 O 0.1262(2) 0.13586(7) 0.46120(16)
O8 O 0.4592(2) 0.16939(7) 0.61628(16)
H3 H 0.5387 0.1445 0.5987
H4 H 0.5095 0.1968 0.6713
N1 N 0.5449(2) 0.28529(8) 0.33379(18)
N2 N 0.4366(2) 0.28441(8) 0.43839(18)
N3 N 0.5931(2) 0.36740(8) 0.46166(18)
N4 N 0.7209(3) 0.47912(9) 0.9569(2)
H5 H 0.6870 0.4420 0.9482
N5 N 0.7420(3) 0.51084(10) 1.0791(2)
N6 N 0.7942(3) 0.56408(10) 1.0467(2)
N7 N 0.8080(3) 0.56813(9) 0.9054(2)
C1 C 0.6381(3) 0.33516(9) 0.3493(2)
H6 H 0.7224 0.3469 0.2923
C2 C 0.4672(3) 0.33378(9) 0.5147(2)
H7 H 0.4117 0.3442 0.5929
C3 C 0.7608(3) 0.51413(10) 0.8503(2)
C4 C 0.6627(3) 0.42549(9) 0.5102(2)
C5 C 0.6798(3) 0.43988(10) 0.6544(2)
H8 H 0.6466 0.4124 0.7202
C6 C 0.7481(3) 0.49656(9) 0.6992(2)
C7 C 0.8013(3) 0.53703(10) 0.6003(2)
H9 H 0.8487 0.5744 0.6307
C8 C 0.7833(3) 0.52129(10) 0.4565(2)
H10 H 0.8192 0.5482 0.3906
C9 C 0.7121(3) 0.46564(10) 0.4101(2)
H11 H 0.6977 0.4555 0.3134
Mo2C Mo 0.73362(2) 0.296367(7) -0.062939(17)
O2C O 0.20088(19) 0.24637(6) 0.60517(15)
loop_
_geom_bond_atom_site_label_1
_geom_bond_atom_site_label_2
_geom_bond_site_symmetry_1
_geom_bond_site_symmetry_2
Mo1 O1 1_555 1_555
Mo2 O1 1_555 1_555
O2 Mo1 1_555 1_555
O3 Mo1 1_555 1_555
O4 Mo1 1_555 1_555
O5 Mo1 1_555 1_555
H1 O5 1_555 1_555
H2 O5 1_555 1_555
O6 Mo2 1_555 1_555
O7 Mo2 1_555 1_555
O8 Mo2 1_555 1_555
H3 O8 1_555 1_555
H4 O8 1_555 1_555
N1 Mo1 1_555 1_555
N2 Mo2 1_555 1_555
N3 C1 1_555 1_555
N4 H5 1_555 1_555
N5 N4 1_555 1_555
N6 N5 1_555 1_555
N7 N6 1_555 1_555
C1 N1 1_555 1_555
H6 C1 1_555 1_555
C2 N2 1_555 1_555
H7 C2 1_555 1_555
C3 N4 1_555 1_555
C4 N3 1_555 1_555
C5 C4 1_555 1_555
H8 C5 1_555 1_555
C6 C3 1_555 1_555
C7 C6 1_555 1_555
H9 C7 1_555 1_555
C8 C7 1_555 1_555
H10 C8 1_555 1_555
C9 C4 1_555 1_555
H11 C9 1_555 1_555
Mo2C O2 1_555 1_555
O2C Mo2 1_555 1_555
N1 N2 1_555 1_555
N3 C2 1_555 1_555
N7 C3 1_555 1_555
C5 C6 1_555 1_555
C8 C9 1_555 1_555

#END
