
#######################################################################
#
#                 Cambridge Crystallographic Data Centre
#                                CCDC 
#
#######################################################################
#
# If this CIF has been generated from an entry in the Cambridge 
# Structural Database, then it will include bibliographic, chemical, 
# crystal, experimental, refinement or atomic coordinate data resulting 
# from the CCDC's data processing and validation procedures.
#
#######################################################################

data_LUYQON
_symmetry_cell_setting           monoclinic
_symmetry_space_group_name_H-M   'P 21/n'
_symmetry_Int_Tables_number      14
_space_group_name_Hall           '-P 2yn'
loop_
_symmetry_equiv_pos_site_id
_symmetry_equiv_pos_as_xyz
1 x,y,z
2 1/2-x,1/2+y,1/2-z
3 -x,-y,-z
4 1/2+x,1/2-y,1/2+z
_cell_length_a                   7.71946(6)
_cell_length_b                   20.35701(13)
_cell_length_c                   9.41202(9)
_cell_angle_alpha                90
_cell_angle_beta                 99.2369(8)
_cell_angle_gamma                90
_cell_volume                     1459.87
loop_
_atom_site_label
_atom_site_type_symbol
_atom_site_fract_x
_atom_site_fract_y
_atom_site_fract_z
C1 C 0.7441(2) 0.34949(7) 0.54522(17)
H1 H 0.8299 0.3616 0.4881
C2 C 0.5647(2) 0.35237(7) 0.69961(17)
H2 H 0.4994 0.3669 0.7711
C3 C 0.7232(2) 0.45659(7) 0.67150(17)
C4 C 0.7363(2) 0.50632(7) 0.56992(17)
C5 C 0.7308(2) 0.50175(8) 0.41133(18)
H3 H 0.7176 0.5458 0.3691
H4 H 0.6312 0.4744 0.3694
H5 H 0.8401 0.482 0.3911
C6 C 0.7435(3) 0.48573(8) 0.80603(18)
C7 C 0.7439(3) 0.45893(9) 0.9535(2)
H6 H 0.7892 0.4923 1.025
H7 H 0.8188 0.4198 0.9673
H8 H 0.6239 0.4471 0.9651
N1 N 0.68263(17) 0.38924(6) 0.64195(14)
N2 N 0.66706(17) 0.29184(6) 0.54252(14)
N3 N 0.55470(17) 0.29379(6) 0.64179(14)
N4 N 0.7624(2) 0.56368(7) 0.63809(16)
N5 N 0.7658(2) 0.54987(7) 0.77986(17)
H9 H 0.787(3) 0.5806(12) 0.842(3)
O1 O 0.85709(14) 0.24411(5) 0.34164(12)
O2 O 0.74225(16) 0.11526(5) 0.36155(13)
O3 O 0.56377(14) 0.16692(5) 0.56907(11)
O4 O 0.50237(15) 0.21231(6) 0.29088(13)
O5 O 0.90687(16) 0.18014(6) 0.60658(13)
H10 H 0.894(3) 0.2006(10) 0.670(3)
H11 H 1.001(3) 0.1914(10) 0.590(2)
O6 O 0.35211(15) 0.12442(5) 0.75637(12)
O7 O 0.66753(16) 0.19319(5) 0.84635(13)
H12 H 0.682(3) 0.2165(11) 0.914(2)
H13 H 0.697(3) 0.1573(11) 0.873(2)
O8 O 0.23118(14) 0.21822(5) 0.56186(12)
Mo1 Mo 0.68327(2) 0.19194(2) 0.41207(2)
Mo2 Mo 0.40830(2) 0.19821(2) 0.69240(2)
O1C O 0.35709(14) 0.25589(5) 0.84164(12)
Mo2C Mo 0.90830(2) 0.30179(2) 0.19240(2)
loop_
_geom_bond_atom_site_label_1
_geom_bond_atom_site_label_2
_geom_bond_site_symmetry_1
_geom_bond_site_symmetry_2
C1 H1 1_555 1_555
C2 H2 1_555 1_555
C3 C4 1_555 1_555
C4 C5 1_555 1_555
C5 H3 1_555 1_555
H4 C5 1_555 1_555
H5 C5 1_555 1_555
C6 C3 1_555 1_555
C7 C6 1_555 1_555
H6 C7 1_555 1_555
H7 C7 1_555 1_555
H8 C7 1_555 1_555
N1 C1 1_555 1_555
N2 C1 1_555 1_555
N3 C2 1_555 1_555
N4 C4 1_555 1_555
N5 C6 1_555 1_555
H9 N5 1_555 1_555
O1 Mo1 1_555 1_555
O2 Mo1 1_555 1_555
O3 Mo1 1_555 1_555
O4 Mo1 1_555 1_555
O5 H10 1_555 1_555
H11 O5 1_555 1_555
O6 Mo2 1_555 1_555
O7 H12 1_555 1_555
H13 O7 1_555 1_555
O8 Mo2 1_555 1_555
Mo1 N2 1_555 1_555
Mo2 N3 1_555 1_555
O1C Mo2 1_555 1_555
Mo2C O1 1_555 1_555
C2 N1 1_555 1_555
C3 N1 1_555 1_555
N2 N3 1_555 1_555
N4 N5 1_555 1_555
O3 Mo2 1_555 1_555
O5 Mo1 1_555 1_555
O7 Mo2 1_555 1_555

#END
