
#######################################################################
#
#                 Cambridge Crystallographic Data Centre
#                                CCDC 
#
#######################################################################
#
# If this CIF has been generated from an entry in the Cambridge 
# Structural Database, then it will include bibliographic, chemical, 
# crystal, experimental, refinement or atomic coordinate data resulting 
# from the CCDC's data processing and validation procedures.
#
#######################################################################

data_LUYRII
_symmetry_cell_setting           orthorhombic
_symmetry_space_group_name_H-M   'F m m m'
_symmetry_Int_Tables_number      69
_space_group_name_Hall           '-F 2 2'
loop_
_symmetry_equiv_pos_site_id
_symmetry_equiv_pos_as_xyz
1 x,y,z
2 -x,-y,z
3 -x,y,-z
4 x,-y,-z
5 x,1/2+y,1/2+z
6 -x,1/2-y,1/2+z
7 -x,1/2+y,1/2-z
8 x,1/2-y,1/2-z
9 1/2+x,y,1/2+z
10 1/2-x,-y,1/2+z
11 1/2-x,y,1/2-z
12 1/2+x,-y,1/2-z
13 1/2+x,1/2+y,z
14 1/2-x,1/2-y,z
15 1/2-x,1/2+y,-z
16 1/2+x,1/2-y,-z
17 -x,-y,-z
18 x,y,-z
19 x,-y,z
20 -x,y,z
21 -x,1/2-y,1/2-z
22 x,1/2+y,1/2-z
23 x,1/2-y,1/2+z
24 -x,1/2+y,1/2+z
25 1/2-x,-y,1/2-z
26 1/2+x,y,1/2-z
27 1/2+x,-y,1/2+z
28 1/2-x,y,1/2+z
29 1/2-x,1/2-y,-z
30 1/2+x,1/2+y,-z
31 1/2+x,1/2-y,z
32 1/2-x,1/2+y,z
_cell_length_a                   12.5413(9)
_cell_length_b                   17.2650(15)
_cell_length_c                   17.6107(12)
_cell_angle_alpha                90
_cell_angle_beta                 90
_cell_angle_gamma                90
_cell_volume                     3813.17
loop_
_atom_site_label
_atom_site_type_symbol
_atom_site_fract_x
_atom_site_fract_y
_atom_site_fract_z
Mo1 Mo 0.145536(16) 0.0000 0.328912(13)
O1 O 0.0000 0.0000 0.36032(15)
O2 O 0.2500 0.0000 0.2500
O3 O 0.19111(12) 0.07865(9) 0.37863(8)
N1 N 0.05496(12) 0.08191(9) 0.23925(9)
N2 N 0.0000 0.14846(12) 0.14080(14)
C1 C 0.08607(14) 0.12179(11) 0.17978(11)
H1 H 0.1583 0.1307 0.1660
C2 C 0.0000 0.19758(14) 0.07085(14)
C3 C 0.10022(15) 0.24826(11) 0.07139(10)
H2 H 0.1647 0.2152 0.0716
H3 H 0.1013 0.2808 0.1176
C4 C 0.0997(2) 0.30014(15) 0.0000
H4 H 0.1648 0.3336 0.0000
C5 C 0.0000 0.3513(2) 0.0000
H5 H 0.0000 0.3846 0.0451
C6 C 0.0000 0.1450(2) 0.0000
H6 H 0.0634 0.1118 0.0000
N1B N -0.05496(12) 0.08191(9) -0.23925(9)
N2B N 0.0000 0.14846(12) -0.14080(14)
C1B C -0.08607(14) 0.12179(11) -0.17978(11)
H1B H -0.1583 0.1307 -0.1660
C2B C 0.0000 0.19758(14) -0.07085(14)
C3B C -0.10022(15) 0.24826(11) -0.07139(10)
H2B H -0.1647 0.2152 -0.0716
H3B H -0.1013 0.2808 -0.1176
C4B C -0.0997(2) 0.30014(15) 0.0000
H4B H -0.1648 0.3336 0.0000
H5B H 0.0000 0.3846 -0.0451
H6B H -0.0634 0.1118 0.0000
N1Q N 0.05496(12) 0.08191(9) -0.23925(9)
C1Q C 0.08607(14) 0.12179(11) -0.17978(11)
H1Q H 0.1583 0.1307 -0.1660
C3Q C 0.10022(15) 0.24826(11) -0.07139(10)
H2Q H 0.1647 0.2152 -0.0716
H3Q H 0.1013 0.2808 -0.1176
N1S N -0.05496(12) 0.08191(9) 0.23925(9)
C1S C -0.08607(14) 0.12179(11) 0.17978(11)
H1S H -0.1583 0.1307 0.1660
C3S C -0.10022(15) 0.24826(11) 0.07139(10)
H2S H -0.1647 0.2152 0.0716
H3S H -0.1013 0.2808 0.1176
Mo1A Mo -0.145536(16) 0.0000 0.328912(13)
O3A O -0.19111(12) -0.07865(9) 0.37863(8)
O3R O 0.19111(12) -0.07865(9) 0.37863(8)
O3S O -0.19111(12) 0.07865(9) 0.37863(8)
Mo1B Mo -0.145536(16) 0.0000 -0.328912(13)
Mo1C Mo 0.145536(16) 0.0000 -0.328912(13)
Mo1J Mo 0.354464(16) 0.0000 0.171088(13)
O2A O -0.2500 0.0000 0.2500
N1A N -0.05496(12) -0.08191(9) 0.23925(9)
N1R N 0.05496(12) -0.08191(9) 0.23925(9)
O4 O 0.1746(4) 0.0000 0.0000
H7 H 0.2143 0.0000 0.0391
H7C H 0.2143 0.0000 -0.0391
loop_
_geom_bond_atom_site_label_1
_geom_bond_atom_site_label_2
_geom_bond_site_symmetry_1
_geom_bond_site_symmetry_2
Mo1 O1 1_555 1_555
O1 Mo1A 1_555 1_555
O2 Mo1 1_555 1_555
O3 Mo1 1_555 1_555
N1 Mo1 1_555 1_555
N2 C1 1_555 1_555
C1 N1 1_555 1_555
H1 C1 1_555 1_555
C2 N2 1_555 1_555
C3 C2 1_555 1_555
H2 C3 1_555 1_555
H3 C3 1_555 1_555
C4 C3 1_555 1_555
H4 C4 1_555 1_555
C5 C4 1_555 1_555
H5 C5 1_555 1_555
C6 C2 1_555 1_555
H6 C6 1_555 1_555
O4 H7 1_555 1_555
N1B C1B 1_555 1_555
N2B C1B 1_555 1_555
C1B H1B 1_555 1_555
C2B C6 1_555 1_555
C3B C2B 1_555 1_555
H2B C3B 1_555 1_555
H3B C3B 1_555 1_555
C4B C5 1_555 1_555
H4B C4B 1_555 1_555
H5B C5 1_555 1_555
H6B C6 1_555 1_555
N1Q N1B 1_555 1_555
C1Q N2B 1_555 1_555
H1Q C1Q 1_555 1_555
C3Q C4 1_555 1_555
H2Q C3Q 1_555 1_555
H3Q C3Q 1_555 1_555
N1S N1 1_555 1_555
C1S N2 1_555 1_555
H1S C1S 1_555 1_555
C3S C2 1_555 1_555
H2S C3S 1_555 1_555
H3S C3S 1_555 1_555
Mo1A N1S 1_555 1_555
O3A Mo1A 1_555 1_555
O3R Mo1 1_555 1_555
O3S Mo1A 1_555 1_555
Mo1B N1B 1_555 1_555
Mo1C N1Q 1_555 1_555
Mo1J O2 1_555 1_555
O2A Mo1A 1_555 1_555
N1A Mo1A 1_555 1_555
N1R Mo1 1_555 1_555
H7C O4 1_555 1_555
N2B C2B 1_555 1_555
C2B C3Q 1_555 1_555
C3B C4B 1_555 1_555
C4B C3S 1_555 1_555
N1Q C1Q 1_555 1_555
N1S C1S 1_555 1_555
N1A N1R 1_555 1_555

#END
