
#######################################################################
#
#                 Cambridge Crystallographic Data Centre
#                                CCDC 
#
#######################################################################
#
# If this CIF has been generated from an entry in the Cambridge 
# Structural Database, then it will include bibliographic, chemical, 
# crystal, experimental, refinement or atomic coordinate data resulting 
# from the CCDC's data processing and validation procedures.
#
#######################################################################

data_LUYRAA
_symmetry_cell_setting           triclinic
_symmetry_space_group_name_H-M   'P -1'
_symmetry_Int_Tables_number      2
_space_group_name_Hall           '-P 1'
loop_
_symmetry_equiv_pos_site_id
_symmetry_equiv_pos_as_xyz
1 x,y,z
2 -x,-y,-z
_cell_length_a                   7.2090(9)
_cell_length_b                   7.2984(10)
_cell_length_c                   13.5507(12)
_cell_angle_alpha                89.506(11)
_cell_angle_beta                 81.088(10)
_cell_angle_gamma                87.361(11)
_cell_volume                     703.604
loop_
_atom_site_label
_atom_site_type_symbol
_atom_site_fract_x
_atom_site_fract_y
_atom_site_fract_z
Mo1 Mo -0.19810(5) 0.88450(5) 0.53530(3)
Mo2 Mo 0.17743(5) 0.61644(5) 0.43442(3)
O1 O -0.1270(5) 0.6269(4) 0.5050(3)
O2 O 0.0960(5) 0.8763(5) 0.4454(3)
O3 O -0.3092(5) 0.9328(5) 0.4352(3)
O4 O -0.3734(5) 0.8699(5) 0.6334(3)
O5 O 0.1424(5) 0.5707(5) 0.3168(3)
O6 O 0.4150(5) 0.6238(5) 0.4256(3)
N1 N 0.0144(6) 0.8002(5) 0.6504(3)
N2 N 0.1621(5) 0.6831(5) 0.6083(3)
N3 N 0.1905(6) 0.7291(6) 0.7645(3)
N4 N 0.4623(7) 0.8280(7) 1.1996(4)
N5 N 0.6091(7) 0.8376(6) 1.2479(4)
H1 H 0.5977 0.8666 1.3116
N6 N 0.7732(7) 0.8000(8) 1.1922(4)
N7 N 0.7345(7) 0.7622(8) 1.1021(4)
C1 C 0.0359(7) 0.8285(7) 0.7432(4)
H2 H -0.0438 0.9064 0.7889
C2 C 0.2640(7) 0.6437(7) 0.6775(4)
H3 H 0.3746 0.5659 0.6684
C3 C 0.5455(8) 0.7791(7) 1.1091(4)
C4 C 0.2756(7) 0.7313(7) 0.8542(4)
C5 C 0.1645(8) 0.7576(9) 0.9466(5)
H4 H 0.0314 0.7673 0.9522
C6 C 0.2517(8) 0.7695(9) 1.0305(5)
H5 H 0.1775 0.7882 1.0943
C7 C 0.4462(8) 0.7545(7) 1.0223(4)
C8 C 0.5548(8) 0.7205(9) 0.9296(5)
H6 H 0.6875 0.7052 0.9241
C9 C 0.4689(8) 0.7091(7) 0.8454(4)
H7 H 0.5425 0.6862 0.7819
Mo1A Mo 0.19810(5) 1.11550(5) 0.46470(3)
Mo2A Mo -0.17743(5) 0.38356(5) 0.56558(3)
O1A O 0.1270(5) 0.3731(4) 0.4950(3)
O2A O -0.0960(5) 1.1237(5) 0.5546(3)
loop_
_geom_bond_atom_site_label_1
_geom_bond_atom_site_label_2
_geom_bond_site_symmetry_1
_geom_bond_site_symmetry_2
Mo1 O1 1_555 1_555
Mo2 O1 1_555 1_555
O1 Mo2A 1_555 1_555
O2 Mo1 1_555 1_555
O3 Mo1 1_555 1_555
O4 Mo1 1_555 1_555
O5 Mo2 1_555 1_555
O6 Mo2 1_555 1_555
N1 Mo1 1_555 1_555
N2 Mo2 1_555 1_555
N3 C1 1_555 1_555
N4 N5 1_555 1_555
N5 H1 1_555 1_555
N6 N5 1_555 1_555
N7 N6 1_555 1_555
C1 N1 1_555 1_555
H2 C1 1_555 1_555
C2 N2 1_555 1_555
H3 C2 1_555 1_555
C3 N4 1_555 1_555
C4 N3 1_555 1_555
C5 C4 1_555 1_555
H4 C5 1_555 1_555
C6 C5 1_555 1_555
H5 C6 1_555 1_555
C7 C3 1_555 1_555
C8 C7 1_555 1_555
H6 C8 1_555 1_555
C9 C4 1_555 1_555
H7 C9 1_555 1_555
Mo1A O2 1_555 1_555
Mo2A O1A 1_555 1_555
O1A Mo2 1_555 1_555
O2A Mo1 1_555 1_555
Mo2 O2 1_555 1_555
N1 N2 1_555 1_555
N3 C2 1_555 1_555
N7 C3 1_555 1_555
C6 C7 1_555 1_555
C8 C9 1_555 1_555
Mo1A O2A 1_555 1_555

#END
