
#######################################################################
#
#                 Cambridge Crystallographic Data Centre
#                                CCDC 
#
#######################################################################
#
# If this CIF has been generated from an entry in the Cambridge 
# Structural Database, then it will include bibliographic, chemical, 
# crystal, experimental, refinement or atomic coordinate data resulting 
# from the CCDC's data processing and validation procedures.
#
#######################################################################

data_LUYREE
_symmetry_cell_setting           orthorhombic
_symmetry_space_group_name_H-M   'P b c a'
_symmetry_Int_Tables_number      61
_space_group_name_Hall           '-P 2ac 2ab'
loop_
_symmetry_equiv_pos_site_id
_symmetry_equiv_pos_as_xyz
1 x,y,z
2 1/2-x,-y,1/2+z
3 -x,1/2+y,1/2-z
4 1/2+x,1/2-y,-z
5 -x,-y,-z
6 1/2+x,y,1/2-z
7 x,1/2-y,1/2+z
8 1/2-x,1/2+y,z
_cell_length_a                   13.3074(9)
_cell_length_b                   11.6037(10)
_cell_length_c                   18.8502(13)
_cell_angle_alpha                90
_cell_angle_beta                 90
_cell_angle_gamma                90
_cell_volume                     2910.76
loop_
_atom_site_label
_atom_site_type_symbol
_atom_site_fract_x
_atom_site_fract_y
_atom_site_fract_z
Mo1 Mo -0.130096(16) -0.019425(19) 0.263031(11)
Mo2 Mo -0.011860(15) 0.227803(19) 0.168024(11)
O1 O -0.10044(13) 0.10936(16) 0.20245(10)
O2 O -0.22088(15) -0.08034(18) 0.21067(11)
O3 O -0.19387(17) 0.04784(18) 0.33064(11)
O4 O 0.08500(14) 0.34682(16) 0.18531(10)
O5 O 0.05774(15) 0.15202(17) 0.10730(11)
O6 O -0.09860(15) 0.30011(17) 0.11800(11)
C1 C 0.0622(2) 0.0421(2) 0.36736(14)
H1 H 0.0391 -0.0092 0.4031
C2 C 0.14944(19) 0.1696(2) 0.31056(14)
H2 H 0.1997 0.2245 0.2988
C3 C 0.3607(2) 0.1977(2) 0.67990(13)
H3 H 0.3035 0.2443 0.6889
C4 C 0.46824(19) 0.0839(2) 0.62898(14)
H4 H 0.5010 0.0361 0.5952
C5 C 0.2054(2) 0.1214(2) 0.43526(14)
C6 C 0.1920(3) 0.2127(3) 0.48091(19)
H5 H 0.1439 0.2708 0.4705
C7 C 0.2496(3) 0.2190(3) 0.54245(17)
H6 H 0.2419 0.2817 0.5744
C8 C 0.3175(2) 0.1329(2) 0.55611(13)
C9 C 0.3285(2) 0.0394(3) 0.51132(16)
H7 H 0.3739 -0.0210 0.5230
C10 C 0.2728(2) 0.0344(3) 0.44934(15)
H8 H 0.2809 -0.0280 0.4172
N1 N 0.02064(18) 0.05583(19) 0.30536(12)
N2 N 0.07542(16) 0.13789(19) 0.26873(12)
N3 N 0.14312(17) 0.11211(19) 0.37315(12)
N4 N 0.43431(16) 0.1803(2) 0.72439(11)
N5 N 0.50200(16) 0.10699(19) 0.69217(11)
N6 N 0.37855(16) 0.13876(19) 0.61854(11)
Mo1A Mo 0.630096(16) 0.019425(19) 0.763031(11)
Mo1B Mo 0.130096(16) 0.480575(19) 0.236969(11)
Mo2C Mo 0.488140(15) 0.272197(19) 0.831976(11)
O4B O -0.08500(14) -0.15318(16) 0.31469(10)
N4C N -0.06569(16) 0.3197(2) 0.27561(11)
N5A N -0.00200(16) -0.10699(19) 0.19217(11)
O7 O 0.4383(5) 0.3814(6) 0.5259(3)
loop_
_geom_bond_atom_site_label_1
_geom_bond_atom_site_label_2
_geom_bond_site_symmetry_1
_geom_bond_site_symmetry_2
Mo1 O1 1_555 1_555
Mo2 O1 1_555 1_555
O2 Mo1 1_555 1_555
O3 Mo1 1_555 1_555
O4 Mo2 1_555 1_555
O5 Mo2 1_555 1_555
O6 Mo2 1_555 1_555
C1 H1 1_555 1_555
C2 H2 1_555 1_555
C3 H3 1_555 1_555
C4 H4 1_555 1_555
C5 C6 1_555 1_555
C6 H5 1_555 1_555
C7 C6 1_555 1_555
H6 C7 1_555 1_555
C8 C7 1_555 1_555
C9 C8 1_555 1_555
H7 C9 1_555 1_555
C10 C5 1_555 1_555
H8 C10 1_555 1_555
N1 Mo1 1_555 1_555
N2 Mo2 1_555 1_555
N3 C1 1_555 1_555
N4 C3 1_555 1_555
N5 C4 1_555 1_555
N6 C3 1_555 1_555
Mo1A N5 1_555 1_555
Mo1B O4 1_555 1_555
Mo2C N4 1_555 1_555
O4B Mo1 1_555 1_555
N4C Mo2 1_555 1_555
N5A Mo1 1_555 1_555
C1 N1 1_555 1_555
C2 N2 1_555 1_555
C2 N3 1_555 1_555
C4 N6 1_555 1_555
C5 N3 1_555 1_555
C8 N6 1_555 1_555
C9 C10 1_555 1_555
N1 N2 1_555 1_555
N4 N5 1_555 1_555

#END
