
#######################################################################
#
#                 Cambridge Crystallographic Data Centre
#                                CCDC 
#
#######################################################################
#
# If this CIF has been generated from an entry in the Cambridge 
# Structural Database, then it will include bibliographic, chemical, 
# crystal, experimental, refinement or atomic coordinate data resulting 
# from the CCDC's data processing and validation procedures.
#
#######################################################################

data_LUYSON
_symmetry_cell_setting           monoclinic
_symmetry_space_group_name_H-M   'P 21/n'
_symmetry_Int_Tables_number      14
_space_group_name_Hall           '-P 2yn'
loop_
_symmetry_equiv_pos_site_id
_symmetry_equiv_pos_as_xyz
1 x,y,z
2 1/2-x,1/2+y,1/2-z
3 -x,-y,-z
4 1/2+x,1/2-y,1/2+z
_cell_length_a                   12.1547(4)
_cell_length_b                   12.5412(4)
_cell_length_c                   14.1160(4)
_cell_angle_alpha                90
_cell_angle_beta                 92.746(1)
_cell_angle_gamma                90
_cell_volume                     2149.29
loop_
_atom_site_label
_atom_site_type_symbol
_atom_site_fract_x
_atom_site_fract_y
_atom_site_fract_z
Mo1 Mo 0.0759(1) 0.1788(1) 0.1010(1)
Mo2 Mo 0.1328(1) -0.0370(1) -0.0452(1)
Mo3 Mo 0.1271(1) 0.2265(1) -0.1186(1)
Mo4 Mo 0.0920(1) -0.0828(1) 0.1743(1)
O1 O 0.2155(2) -0.1447(2) -0.0480(2)
O2 O 0.1793(2) 0.2248(2) 0.0150(2)
O3 O 0.0399(2) 0.1473(2) -0.2111(2)
O4 O 0.2034(2) 0.0650(2) -0.1022(2)
O5 O 0.1628(2) 0.0137(2) 0.0840(2)
O6 O 0.3269(2) 0.3073(2) 0.3404(2)
O7 O 0.0422(2) 0.3342(2) -0.1056(2)
O8 O -0.0172(2) 0.2798(2) 0.0965(2)
O9 O 0.1410(2) -0.0273(2) 0.2787(2)
O10 O 0.1520(2) 0.1972(2) 0.2078(2)
O11 O -0.0230(2) 0.0650(2) 0.1469(2)
O12 O 0.2349(2) 0.2740(2) -0.1767(2)
O13 O 0.0025(2) 0.1056(2) -0.0286(2)
C1 C 0.3896(3) 0.1143(3) 0.1551(2)
C2 C 0.4806(3) 0.0716(3) 0.1134(3)
C3 C 0.5432(3) -0.0049(3) 0.1614(3)
C4 C 0.5136(3) -0.0364(3) 0.2510(3)
C5 C 0.4231(3) 0.0104(3) 0.2899(2)
C6 C 0.3852(3) -0.0155(3) 0.3879(2)
C7 C 0.2660(3) 0.0625(3) 0.5095(3)
C8 C 0.1528(3) 0.1114(3) 0.4971(2)
C9 C 0.0787(3) 0.1075(3) 0.5683(3)
C10 C -0.0246(3) 0.1511(3) 0.5514(3)
C11 C -0.0510(3) 0.1981(3) 0.4642(3)
C12 C 0.0259(3) 0.1992(3) 0.3965(2)
N1 N 0.3622(2) 0.0846(2) 0.2422(2)
N2 N 0.3303(2) 0.0800(2) 0.4251(2)
N3 N 0.1272(2) 0.1571(2) 0.4123(2)
H1 H 0.3780(30) 0.1250(30) 0.4380(20)
H2 H 0.3467 0.1646 0.1220
H3 H 0.4993 0.0941 0.0535
H4 H 0.6041 -0.0348 0.1342
H5 H 0.5541 -0.0883 0.2844
H6 H 0.4478 -0.0350 0.4295
H7 H 0.3342 -0.0750 0.3846
H8 H 0.2590 -0.0134 0.5207
H9 H 0.3046 0.0938 0.5645
H10 H 0.0981 0.0762 0.6264
H11 H -0.0761 0.1489 0.5980
H12 H -0.1201 0.2284 0.4520
H13 H 0.0077 0.2298 0.3379
Cu1 Cu 0.2407(1) 0.1419(1) 0.3170(1)
Mo2B Mo -0.1328(1) 0.0370(1) 0.0452(1)
Mo4B Mo -0.0920(1) 0.0828(1) -0.1743(1)
O11B O 0.0230(2) -0.0650(2) -0.1469(2)
O13B O -0.0025(2) -0.1056(2) 0.0286(2)
O3B O -0.0399(2) -0.1473(2) 0.2111(2)
O6A O 0.1731(2) -0.1927(2) 0.1596(2)
O1B O -0.2155(2) 0.1447(2) 0.0480(2)
O4B O -0.2034(2) -0.0650(2) 0.1022(2)
O5B O -0.1628(2) -0.0137(2) -0.0840(2)
O6C O -0.1731(2) 0.1927(2) -0.1596(2)
O9B O -0.1410(2) 0.0273(2) -0.2787(2)
Mo1B Mo -0.0759(1) -0.1788(1) -0.1010(1)
Mo3B Mo -0.1271(1) -0.2265(1) 0.1186(1)
Mo4A Mo 0.4080(1) 0.4172(1) 0.3257(1)
Cu1B Cu -0.2407(1) -0.1419(1) -0.3170(1)
O2B O -0.1793(2) -0.2248(2) -0.0150(2)
O8B O 0.0172(2) -0.2798(2) -0.0965(2)
O10B O -0.1520(2) -0.1972(2) -0.2078(2)
O7B O -0.0422(2) -0.3342(2) 0.1056(2)
O12B O -0.2349(2) -0.2740(2) 0.1767(2)
O6B O -0.3269(2) -0.3073(2) -0.3404(2)
C1B C -0.3896(3) -0.1143(3) -0.1551(2)
C2B C -0.4806(3) -0.0716(3) -0.1134(3)
C3B C -0.5432(3) 0.0049(3) -0.1614(3)
C4B C -0.5136(3) 0.0364(3) -0.2510(3)
C5B C -0.4231(3) -0.0104(3) -0.2899(2)
C6B C -0.3852(3) 0.0155(3) -0.3879(2)
C7B C -0.2660(3) -0.0625(3) -0.5095(3)
C8B C -0.1528(3) -0.1114(3) -0.4971(2)
C9B C -0.0787(3) -0.1075(3) -0.5683(3)
C10B C 0.0246(3) -0.1511(3) -0.5514(3)
C11B C 0.0510(3) -0.1981(3) -0.4642(3)
C12B C -0.0259(3) -0.1992(3) -0.3965(2)
N1B N -0.3622(2) -0.0846(2) -0.2422(2)
N2B N -0.3303(2) -0.0800(2) -0.4251(2)
N3B N -0.1272(2) -0.1571(2) -0.4123(2)
H1B H -0.3780(30) -0.1250(30) -0.4380(20)
H2B H -0.3467 -0.1646 -0.1220
H3B H -0.4993 -0.0941 -0.0535
H4B H -0.6041 0.0348 -0.1342
H5B H -0.5541 0.0883 -0.2844
H6B H -0.4478 0.0350 -0.4295
H7B H -0.3342 0.0750 -0.3846
H8B H -0.2590 0.0134 -0.5207
H9B H -0.3046 -0.0938 -0.5645
H10B H -0.0981 -0.0762 -0.6264
H11B H 0.0761 -0.1489 -0.5980
H12B H 0.1201 -0.2284 -0.4520
H13B H -0.0077 -0.2298 -0.3379
Mo4C Mo -0.4080(1) -0.4172(1) -0.3257(1)
loop_
_geom_bond_atom_site_label_1
_geom_bond_atom_site_label_2
_geom_bond_site_symmetry_1
_geom_bond_site_symmetry_2
Mo1 O2 1_555 1_555
Mo2 O1 1_555 1_555
Mo3 O2 1_555 1_555
Mo4 O5 1_555 1_555
O3 Mo3 1_555 1_555
O4 Mo2 1_555 1_555
O5 Mo1 1_555 1_555
O6 Cu1 1_555 1_555
O7 Mo3 1_555 1_555
O8 Mo1 1_555 1_555
O9 Mo4 1_555 1_555
O10 Mo1 1_555 1_555
O11 Mo1 1_555 1_555
O12 Mo3 1_555 1_555
O13 Mo1 1_555 1_555
C1 C2 1_555 1_555
C2 C3 1_555 1_555
C3 C4 1_555 1_555
C4 C5 1_555 1_555
C5 C6 1_555 1_555
C6 N2 1_555 1_555
C7 C8 1_555 1_555
C8 C9 1_555 1_555
C9 C10 1_555 1_555
C10 C11 1_555 1_555
C11 C12 1_555 1_555
C12 N3 1_555 1_555
N1 C1 1_555 1_555
N2 C7 1_555 1_555
N3 C8 1_555 1_555
H1 N2 1_555 1_555
H2 C1 1_555 1_555
H3 C2 1_555 1_555
H4 C3 1_555 1_555
H5 C4 1_555 1_555
H6 C6 1_555 1_555
H7 C6 1_555 1_555
H8 C7 1_555 1_555
H9 C7 1_555 1_555
H10 C9 1_555 1_555
H11 C10 1_555 1_555
H12 C11 1_555 1_555
H13 C12 1_555 1_555
Cu1 O9 1_555 1_555
Mo2B O11 1_555 1_555
Mo4B O3 1_555 1_555
O11B Mo2 1_555 1_555
O13B Mo2 1_555 1_555
O3B Mo4 1_555 1_555
O6A Mo4 1_555 1_555
O1B Mo2B 1_555 1_555
O4B Mo2B 1_555 1_555
O5B Mo2B 1_555 1_555
O6C Mo4B 1_555 1_555
O9B Mo4B 1_555 1_555
Mo1B O11B 1_555 1_555
Mo3B O13B 1_555 1_555
Mo4A O6 1_555 1_555
Cu1B O9B 1_555 1_555
O2B Mo1B 1_555 1_555
O8B Mo1B 1_555 1_555
O10B Mo1B 1_555 1_555
O7B Mo3B 1_555 1_555
O12B Mo3B 1_555 1_555
O6B Cu1B 1_555 1_555
C1B C2B 1_555 1_555
C2B C3B 1_555 1_555
C3B C4B 1_555 1_555
C4B C5B 1_555 1_555
C5B C6B 1_555 1_555
C6B N2B 1_555 1_555
C7B C8B 1_555 1_555
C8B C9B 1_555 1_555
C9B C10B 1_555 1_555
C10B C11B 1_555 1_555
C11B C12B 1_555 1_555
C12B N3B 1_555 1_555
N1B Cu1B 1_555 1_555
N2B Cu1B 1_555 1_555
N3B Cu1B 1_555 1_555
H1B N2B 1_555 1_555
H2B C1B 1_555 1_555
H3B C2B 1_555 1_555
H4B C3B 1_555 1_555
H5B C4B 1_555 1_555
H6B C6B 1_555 1_555
H7B C6B 1_555 1_555
H8B C7B 1_555 1_555
H9B C7B 1_555 1_555
H10B C9B 1_555 1_555
H11B C10B 1_555 1_555
H12B C11B 1_555 1_555
H13B C12B 1_555 1_555
Mo4C O6B 1_555 1_555
Mo2 O5 1_555 1_555
Mo2 O13 1_555 1_555
Mo3 O13 1_555 1_555
Mo3 O4 1_555 1_555
Mo4 O11 1_555 1_555
Mo4 O13B 1_555 1_555
O10 Cu1 1_555 1_555
O13 Mo4B 1_555 1_555
O13 Mo2B 1_555 1_555
C5 N1 1_555 1_555
N1 Cu1 1_555 1_555
N2 Cu1 1_555 1_555
N3 Cu1 1_555 1_555
Mo2B O13B 1_555 1_555
Mo4B O5B 1_555 1_555
Mo4B O11B 1_555 1_555
O13B Mo1B 1_555 1_555
O3B Mo3B 1_555 1_555
O4B Mo3B 1_555 1_555
O5B Mo1B 1_555 1_555
Mo3B O2B 1_555 1_555
Cu1B O10B 1_555 1_555
C1B N1B 1_555 1_555
C5B N1B 1_555 1_555
C7B N2B 1_555 1_555
C8B N3B 1_555 1_555

#END
