
#######################################################################
#
#                 Cambridge Crystallographic Data Centre
#                                CCDC 
#
#######################################################################
#
# If this CIF has been generated from an entry in the Cambridge 
# Structural Database, then it will include bibliographic, chemical, 
# crystal, experimental, refinement or atomic coordinate data resulting 
# from the CCDC's data processing and validation procedures.
#
#######################################################################

data_LUYVOR
_symmetry_cell_setting           monoclinic
_symmetry_space_group_name_H-M   'C 2/m'
_symmetry_Int_Tables_number      12
_space_group_name_Hall           '-C 2y'
loop_
_symmetry_equiv_pos_site_id
_symmetry_equiv_pos_as_xyz
1 x,y,z
2 -x,y,-z
3 1/2+x,1/2+y,z
4 1/2-x,1/2+y,-z
5 -x,-y,-z
6 x,-y,z
7 1/2-x,1/2-y,-z
8 1/2+x,1/2-y,z
_cell_length_a                   16.001(3)
_cell_length_b                   11.404(2)
_cell_length_c                   14.383(3)
_cell_angle_alpha                90
_cell_angle_beta                 115.16(3)
_cell_angle_gamma                90
_cell_volume                     2375.54
loop_
_atom_site_label
_atom_site_type_symbol
_atom_site_fract_x
_atom_site_fract_y
_atom_site_fract_z
I1 I 0.37478(3) 0.0000 0.00009(4)
Cu1 Cu 0.5000 -0.14495(7) 0.0000
N1 N 0.5152(3) -0.2861(3) 0.0956(3)
N2 N 0.4377(3) -0.2977(4) 0.2019(3)
N3 N 0.5902(3) -0.2281(4) 0.2662(3)
C1 C 0.5057(3) -0.3928(4) 0.0543(4)
C2 C 0.5111(5) -0.5000 0.1049(6)
H1 H 0.5184 -0.5000 0.1726
C3 C 0.5140(3) -0.2731(4) 0.1907(4)
C4 C 0.4345(4) -0.3302(5) 0.2990(4)
H2 H 0.3941 -0.3961 0.2879
H3 H 0.4121 -0.2651 0.3241
H4 H 0.4954 -0.3507 0.3485
C5 C 0.3490(3) -0.3096(5) 0.1116(4)
H5 H 0.3008 -0.2769 0.1265
H6 H 0.3365 -0.3911 0.0946
H7 H 0.3517 -0.2686 0.0546
C6 C 0.6758(3) -0.2183(5) 0.2524(5)
H8 H 0.6773 -0.2790 0.2068
H9 H 0.7281 -0.2265 0.3177
H10 H 0.6780 -0.1431 0.2235
C7 C 0.5901(4) -0.1656(5) 0.3547(5)
H11 H 0.6326 -0.1012 0.3718
H12 H 0.6084 -0.2181 0.4122
H13 H 0.5291 -0.1365 0.3384
I1A I 0.62522(3) 0.0000 -0.00009(4)
I1_2 I 0.37478(3) -1.0000 0.00009(4)
I1A_2 I 0.62522(3) -1.0000 -0.00009(4)
Cu1D Cu 0.5000 -0.85505(7) 0.0000
Cu1D_2 Cu 0.5000 0.14495(7) 0.0000
N1A N 0.4848(3) -0.2861(3) -0.0956(3)
N1D N 0.4848(3) -0.7139(3) -0.0956(3)
N1E N 0.5152(3) -0.7139(3) 0.0956(3)
N2A N 0.5623(3) -0.2977(4) -0.2019(3)
N2D N 0.5623(3) -0.7023(4) -0.2019(3)
N2E N 0.4377(3) -0.7023(4) 0.2019(3)
N3A N 0.4098(3) -0.2281(4) -0.2662(3)
N3D N 0.4098(3) -0.7719(4) -0.2662(3)
N3E N 0.5902(3) -0.7719(4) 0.2662(3)
C1A C 0.4943(3) -0.3928(4) -0.0543(4)
C1D C 0.4943(3) -0.6072(4) -0.0543(4)
C1E C 0.5057(3) -0.6072(4) 0.0543(4)
C2A C 0.4889(5) -0.5000 -0.1049(6)
H1A H 0.4816 -0.5000 -0.1726
C3A C 0.4860(3) -0.2731(4) -0.1907(4)
C3D C 0.4860(3) -0.7269(4) -0.1907(4)
C3E C 0.5140(3) -0.7269(4) 0.1907(4)
C4A C 0.5655(4) -0.3302(5) -0.2990(4)
C4D C 0.5655(4) -0.6698(5) -0.2990(4)
C4E C 0.4345(4) -0.6698(5) 0.2990(4)
H2A H 0.6059 -0.3961 -0.2879
H2D H 0.6059 -0.6039 -0.2879
H2E H 0.3941 -0.6039 0.2879
H3A H 0.5879 -0.2651 -0.3241
H3D H 0.5879 -0.7349 -0.3241
H3E H 0.4121 -0.7349 0.3241
H4A H 0.5046 -0.3507 -0.3485
H4D H 0.5046 -0.6493 -0.3485
H4E H 0.4954 -0.6493 0.3485
C5A C 0.6510(3) -0.3096(5) -0.1116(4)
C5D C 0.6510(3) -0.6904(5) -0.1116(4)
C5E C 0.3490(3) -0.6904(5) 0.1116(4)
H5A H 0.6992 -0.2769 -0.1265
H5D H 0.6992 -0.7231 -0.1265
H5E H 0.3008 -0.7231 0.1265
H6A H 0.6635 -0.3911 -0.0946
H6D H 0.6635 -0.6089 -0.0946
H6E H 0.3365 -0.6089 0.0946
H7A H 0.6483 -0.2686 -0.0546
H7D H 0.6483 -0.7314 -0.0546
H7E H 0.3517 -0.7314 0.0546
C6A C 0.3242(3) -0.2183(5) -0.2524(5)
C6D C 0.3242(3) -0.7817(5) -0.2524(5)
C6E C 0.6758(3) -0.7817(5) 0.2524(5)
H8A H 0.3227 -0.2790 -0.2068
H8D H 0.3227 -0.7210 -0.2068
H8E H 0.6773 -0.7210 0.2068
H9A H 0.2719 -0.2265 -0.3177
H9D H 0.2719 -0.7735 -0.3177
H9E H 0.7281 -0.7735 0.3177
H10A H 0.3220 -0.1431 -0.2235
H10D H 0.3220 -0.8569 -0.2235
H10E H 0.6780 -0.8569 0.2235
C7A C 0.4099(4) -0.1656(5) -0.3547(5)
C7D C 0.4099(4) -0.8344(5) -0.3547(5)
C7E C 0.5901(4) -0.8344(5) 0.3547(5)
H11A H 0.3674 -0.1012 -0.3718
H11D H 0.3674 -0.8988 -0.3718
H11E H 0.6326 -0.8988 0.3718
H12A H 0.3916 -0.2181 -0.4122
H12D H 0.3916 -0.7819 -0.4122
H12E H 0.6084 -0.7819 0.4122
H13A H 0.4709 -0.1365 -0.3384
H13D H 0.4709 -0.8635 -0.3384
H13E H 0.5291 -0.8635 0.3384
I2 I 0.14963(3) 0.0000 0.52667(4)
I3 I 0.24300(3) 0.0000 0.38543(4)
I4 I 0.32066(4) 0.0000 0.23818(5)
loop_
_geom_bond_atom_site_label_1
_geom_bond_atom_site_label_2
_geom_bond_site_symmetry_1
_geom_bond_site_symmetry_2
I1 Cu1 1_555 1_555
I2 I3 1_555 1_555
I3 I4 1_555 1_555
Cu1 N1 1_555 1_555
N1 C1 1_555 1_555
N2 C3 1_555 1_555
N3 C3 1_555 1_555
C1 C2 1_555 1_555
C2 H1 1_555 1_555
C3 N1 1_555 1_555
C4 N2 1_555 1_555
H2 C4 1_555 1_555
H3 C4 1_555 1_555
H4 C4 1_555 1_555
C5 N2 1_555 1_555
H5 C5 1_555 1_555
H6 C5 1_555 1_555
H7 C5 1_555 1_555
C6 N3 1_555 1_555
H8 C6 1_555 1_555
H9 C6 1_555 1_555
H10 C6 1_555 1_555
C7 N3 1_555 1_555
H11 C7 1_555 1_555
H12 C7 1_555 1_555
H13 C7 1_555 1_555
I1A Cu1 1_555 1_555
I1_2 Cu1D 1_555 1_555
I1A_2 Cu1D 1_555 1_555
Cu1D N1D 1_555 1_555
Cu1D_2 I1 1_555 1_555
N1A Cu1 1_555 1_555
N1D C1D 1_555 1_555
N1E Cu1D 1_555 1_555
N2A C3A 1_555 1_555
N2D C3D 1_555 1_555
N2E C3E 1_555 1_555
N3A C3A 1_555 1_555
N3D C3D 1_555 1_555
N3E C3E 1_555 1_555
C1A C1 1_555 1_555
C1D C1E 1_555 1_555
C1E C2 1_555 1_555
C2A C1A 1_555 1_555
H1A C2A 1_555 1_555
C3A N1A 1_555 1_555
C3D N1D 1_555 1_555
C3E N1E 1_555 1_555
C4A N2A 1_555 1_555
C4D N2D 1_555 1_555
C4E N2E 1_555 1_555
H2A C4A 1_555 1_555
H2D C4D 1_555 1_555
H2E C4E 1_555 1_555
H3A C4A 1_555 1_555
H3D C4D 1_555 1_555
H3E C4E 1_555 1_555
H4A C4A 1_555 1_555
H4D C4D 1_555 1_555
H4E C4E 1_555 1_555
C5A N2A 1_555 1_555
C5D N2D 1_555 1_555
C5E N2E 1_555 1_555
H5A C5A 1_555 1_555
H5D C5D 1_555 1_555
H5E C5E 1_555 1_555
H6A C5A 1_555 1_555
H6D C5D 1_555 1_555
H6E C5E 1_555 1_555
H7A C5A 1_555 1_555
H7D C5D 1_555 1_555
H7E C5E 1_555 1_555
C6A N3A 1_555 1_555
C6D N3D 1_555 1_555
C6E N3E 1_555 1_555
H8A C6A 1_555 1_555
H8D C6D 1_555 1_555
H8E C6E 1_555 1_555
H9A C6A 1_555 1_555
H9D C6D 1_555 1_555
H9E C6E 1_555 1_555
H10A C6A 1_555 1_555
H10D C6D 1_555 1_555
H10E C6E 1_555 1_555
C7A N3A 1_555 1_555
C7D N3D 1_555 1_555
C7E N3E 1_555 1_555
H11A C7A 1_555 1_555
H11D C7D 1_555 1_555
H11E C7E 1_555 1_555
H12A C7A 1_555 1_555
H12D C7D 1_555 1_555
H12E C7E 1_555 1_555
H13A C7A 1_555 1_555
H13D C7D 1_555 1_555
H13E C7E 1_555 1_555
I1A Cu1D_2 1_555 1_555
N1A C1A 1_555 1_555
N1E C1E 1_555 1_555
C1D C2A 1_555 1_555

#END
