
#######################################################################
#
#                 Cambridge Crystallographic Data Centre
#                                CCDC 
#
#######################################################################
#
# If this CIF has been generated from an entry in the Cambridge 
# Structural Database, then it will include bibliographic, chemical, 
# crystal, experimental, refinement or atomic coordinate data resulting 
# from the CCDC's data processing and validation procedures.
#
#######################################################################

data_LUYZOW
_symmetry_cell_setting           monoclinic
_symmetry_space_group_name_H-M   'P 21/c'
_symmetry_Int_Tables_number      14
_space_group_name_Hall           '-P 2ybc'
loop_
_symmetry_equiv_pos_site_id
_symmetry_equiv_pos_as_xyz
1 x,y,z
2 -x,1/2+y,1/2-z
3 -x,-y,-z
4 x,1/2-y,1/2+z
_cell_length_a                   12.744(7)
_cell_length_b                   17.947(9)
_cell_length_c                   15.012(7)
_cell_angle_alpha                90
_cell_angle_beta                 104.641(8)
_cell_angle_gamma                90
_cell_volume                     3322
loop_
_atom_site_label
_atom_site_type_symbol
_atom_site_fract_x
_atom_site_fract_y
_atom_site_fract_z
Cd1 Cd 0.36825(4) 0.14346(3) 0.58264(3)
Ru1 Ru 0.77004(4) 0.10977(3) 1.16627(3)
N1 N 0.8899(4) 0.0917(3) 1.2846(3)
N2 N 0.6511(4) 0.1187(3) 1.0466(3)
C1 C 0.6325(5) 0.0546(3) 0.9925(4)
N3 N 0.7483(4) 0.0004(3) 1.1299(3)
N4 N 0.6814(4) 0.1005(3) 1.2629(3)
C2 C 0.8571(5) 0.0902(3) 1.3633(4)
N5 N 0.7934(4) 0.2228(3) 1.1921(3)
C3 C 0.6880(5) 0.0998(4) 1.4225(4)
H1 H 0.7295 0.0976 1.4830
O1 O 1.0953(5) 0.1006(4) 1.6139(3)
O2 O 0.4634(5) 0.0727(3) 0.7141(3)
C4 C 0.5794(5) 0.1059(4) 1.4061(4)
C5 C 0.5211(6) 0.1140(4) 1.4808(5)
O3 O 1.2241(4) 0.0710(3) 1.5415(3)
C6 C 0.7163(5) -0.1449(3) 1.0585(4)
C7 C 0.5272(6) 0.1238(4) 0.8648(4)
C8 C 0.8741(6) 0.2530(4) 1.1596(4)
C9 C 0.8620(7) 0.3682(4) 1.2358(5)
H2 H 0.8843 0.4170 1.2505
O4 O 0.5667(5) 0.1467(3) 1.5516(4)
C10 C 0.5164(6) 0.1101(4) 1.3120(5)
H3 H 0.4413 0.1145 1.2983
C11 C 0.6824(5) -0.0120(4) 1.0391(4)
C12 C 0.9340(5) 0.0892(4) 1.4499(4)
H4 H 0.9116 0.0929 1.5040
O5 O 0.4283(4) 0.0907(4) 1.4689(4)
N6 N 0.8749(4) 0.1339(3) 1.0857(3)
C13 C 1.0432(5) 0.0827(4) 1.4528(4)
C14 C 0.6686(5) -0.0830(4) 1.0047(4)
H5 H 0.6271 -0.0907 0.9449
C15 C 0.5388(6) 0.1857(4) 0.9190(4)
H6 H 0.5046 0.2300 0.8960
C16 C 0.4637(6) 0.1266(4) 0.7643(4)
C17 C 0.5752(6) 0.0573(4) 0.9030(4)
H7 H 0.5678 0.0146 0.8670
C18 C 0.6988(6) -0.2227(4) 1.0192(6)
C19 C 1.0745(5) 0.0808(4) 1.3717(4)
H8 H 1.1476 0.0770 1.3727
C20 C 0.5696(5) 0.1076(4) 1.2428(4)
H9 H 0.5299 0.1106 1.1817
C21 C 0.9038(6) 0.0893(4) 1.0237(5)
H10 H 0.8735 0.0419 1.0140
C22 C 0.9191(6) 0.2049(4) 1.0989(4)
C23 C 1.1280(5) 0.0871(4) 1.5452(5)
C24 C 0.7748(6) -0.1294(4) 1.1466(5)
H11 H 0.8063 -0.1684 1.1850
C25 C 0.7460(6) 0.2659(4) 1.2429(4)
H12 H 0.6881 0.2465 1.2628
C26 C 0.7394(5) 0.0967(3) 1.3519(4)
C27 C 0.7796(7) 0.3392(4) 1.2678(5)
H13 H 0.7464 0.3672 1.3052
O6 O 0.4158(6) 0.1863(4) 0.7348(3)
C28 C 0.9968(6) 0.0847(4) 1.2883(5)
H14 H 1.0186 0.0825 1.2337
C29 C 0.6027(6) 0.1819(4) 1.0100(5)
H15 H 0.6118 0.2247 1.0461
C30 C 0.7879(6) -0.0575(4) 1.1792(4)
H16 H 0.8270 -0.0499 1.2397
O7 O 0.6455(5) -0.2321(3) 0.9413(4)
C31 C 0.9749(7) 0.1101(5) 0.9748(6)
H17 H 0.9931 0.0773 0.9331
C32 C 0.9123(7) 0.3261(4) 1.1822(5)
H18 H 0.9697 0.3453 1.1615
O8 O 0.7468(8) -0.2738(4) 1.0721(6)
C33 C 0.9912(7) 0.2279(5) 1.0499(5)
H19 H 1.0202 0.2757 1.0593
C34 C 1.0212(7) 0.1820(6) 0.9877(6)
H20 H 1.0703 0.1977 0.9551
Cd1_2 Cd 0.36825(4) 0.14346(3) 1.58264(3)
Cd1_3 Cd 1.36825(4) 0.14346(3) 1.58264(3)
Cd1A Cd 0.63175(4) -0.35654(3) 0.91736(3)
O3_2 O 0.2241(4) 0.0710(3) 0.5415(3)
O4_2 O 0.5667(5) 0.1467(3) 0.5516(4)
O5_2 O 0.4283(4) 0.0907(4) 0.4689(4)
O7A O 0.3545(5) 0.2679(3) 0.5587(4)
O9 O 0.6876(6) -0.5120(4) 1.1677(6)
H21 H 0.6237 -0.5338 1.1675
H22 H 0.6746 -0.4858 1.1133
O10 O 0.8104(7) -0.4590(4) 1.3401(5)
H23 H 0.7974 -0.4184 1.3130
H24 H 0.7736 -0.4931 1.3045
O11 O 0.7549(8) -0.3120(4) 1.2665(6)
H25 H 0.7488 -0.3077 1.2090
H26 H 0.7154 -0.2790 1.2821
loop_
_geom_bond_atom_site_label_1
_geom_bond_atom_site_label_2
_geom_bond_site_symmetry_1
_geom_bond_site_symmetry_2
Cd1 O2 1_555 1_555
Ru1 N1 1_555 1_555
N1 C2 1_555 1_555
N2 Ru1 1_555 1_555
C1 N2 1_555 1_555
N3 Ru1 1_555 1_555
N4 Ru1 1_555 1_555
C2 C12 1_555 1_555
N5 Ru1 1_555 1_555
C3 H1 1_555 1_555
O1 C23 1_555 1_555
O2 C16 1_555 1_555
C4 C3 1_555 1_555
C5 C4 1_555 1_555
O3 C23 1_555 1_555
C6 C14 1_555 1_555
C7 C15 1_555 1_555
C8 N5 1_555 1_555
C9 H2 1_555 1_555
O4 C5 1_555 1_555
C10 C4 1_555 1_555
H3 C10 1_555 1_555
C11 C1 1_555 1_555
C12 H4 1_555 1_555
O5 C5 1_555 1_555
N6 Ru1 1_555 1_555
C13 C12 1_555 1_555
C14 C11 1_555 1_555
H5 C14 1_555 1_555
C15 H6 1_555 1_555
C16 C7 1_555 1_555
C17 C1 1_555 1_555
H7 C17 1_555 1_555
C18 C6 1_555 1_555
C19 C13 1_555 1_555
H8 C19 1_555 1_555
C20 N4 1_555 1_555
H9 C20 1_555 1_555
C21 N6 1_555 1_555
H10 C21 1_555 1_555
C22 C8 1_555 1_555
C23 C13 1_555 1_555
C24 C6 1_555 1_555
H11 C24 1_555 1_555
C25 N5 1_555 1_555
H12 C25 1_555 1_555
C26 N4 1_555 1_555
C27 C9 1_555 1_555
H13 C27 1_555 1_555
O6 Cd1 1_555 1_555
C28 N1 1_555 1_555
H14 C28 1_555 1_555
C29 N2 1_555 1_555
H15 C29 1_555 1_555
C30 N3 1_555 1_555
H16 C30 1_555 1_555
O7 C18 1_555 1_555
C31 C21 1_555 1_555
H17 C31 1_555 1_555
C32 C8 1_555 1_555
H18 C32 1_555 1_555
O8 C18 1_555 1_555
C33 C22 1_555 1_555
H19 C33 1_555 1_555
C34 C31 1_555 1_555
H20 C34 1_555 1_555
O9 H21 1_555 1_555
H22 O9 1_555 1_555
O10 H23 1_555 1_555
H24 O10 1_555 1_555
O11 H25 1_555 1_555
H26 O11 1_555 1_555
Cd1_2 O4 1_555 1_555
Cd1_3 O3 1_555 1_555
Cd1A O7 1_555 1_555
O3_2 Cd1 1_555 1_555
O4_2 Cd1 1_555 1_555
O5_2 Cd1 1_555 1_555
O7A Cd1 1_555 1_555
N3 C11 1_555 1_555
C2 C26 1_555 1_555
C3 C26 1_555 1_555
C7 C17 1_555 1_555
C9 C32 1_555 1_555
C10 C20 1_555 1_555
O5 Cd1_2 1_555 1_555
N6 C22 1_555 1_555
C15 C29 1_555 1_555
C16 O6 1_555 1_555
C19 C28 1_555 1_555
C24 C30 1_555 1_555
C25 C27 1_555 1_555
C33 C34 1_555 1_555

#END
