
#######################################################################
#
#                 Cambridge Crystallographic Data Centre
#                                CCDC 
#
#######################################################################
#
# If this CIF has been generated from an entry in the Cambridge 
# Structural Database, then it will include bibliographic, chemical, 
# crystal, experimental, refinement or atomic coordinate data resulting 
# from the CCDC's data processing and validation procedures.
#
#######################################################################

data_LUYZAH
_symmetry_cell_setting           tetragonal
_symmetry_space_group_name_H-M   'P 43 21 2'
_symmetry_Int_Tables_number      96
_space_group_name_Hall           'P 4nw 2abw'
loop_
_symmetry_equiv_pos_site_id
_symmetry_equiv_pos_as_xyz
1 x,y,z
2 -x,-y,1/2+z
3 1/2-y,1/2+x,3/4+z
4 1/2+y,1/2-x,1/4+z
5 1/2-x,1/2+y,3/4-z
6 1/2+x,1/2-y,1/4-z
7 y,x,-z
8 -y,-x,1/2-z
_cell_length_a                   7.9199(3)
_cell_length_b                   7.9199(3)
_cell_length_c                   17.4127(9)
_cell_angle_alpha                90
_cell_angle_beta                 90
_cell_angle_gamma                90
_cell_volume                     1092.21
loop_
_atom_site_label
_atom_site_type_symbol
_atom_site_fract_x
_atom_site_fract_y
_atom_site_fract_z
Ni1 Ni 0.23571(3) 0.23571(3) 0.0000
N1 N 0.05068(19) 0.05068(19) 0.0000
N2 N -0.5790(2) -0.5790(2) 0.0000
C1 C 0.0702(3) -0.0909(3) 0.04133(12)
H1 H 0.1691 -0.1035 0.0717
C2 C -0.0488(3) -0.2200(3) 0.04142(13)
H2 H -0.0288 -0.3213 0.0692
C3 C -0.1982(2) -0.1982(2) 0.0000
C4 C -0.3306(3) -0.3306(3) 0.0000
C5 C -0.2873(3) -0.4995(3) -0.01073(13)
H3 H -0.1729 -0.5322 -0.0176
C6 C -0.4165(3) -0.6194(3) -0.01107(13)
H4 H -0.3880 -0.7344 -0.0195
C7 C -0.0300(3) 0.3207(3) 0.12052(13)
H5 H -0.0793 0.2115 0.1025
O1 O 0.1018(2) 0.3701(2) 0.08697(9)
O2 O -0.1094(2) 0.4009(2) 0.17194(9)
Ni1_2 Ni -0.76429(3) -0.76429(3) 0.0000
Ni1C Ni -0.26429(3) 0.26429(3) 0.2500
Ni1C_2 Ni 0.73571(3) 0.26429(3) 0.2500
N2_2 N 0.4210(2) 0.4210(2) 0.0000
C1F C -0.0909(3) 0.0702(3) -0.04133(12)
H1F H -0.1035 0.1691 -0.0717
C2F C -0.2200(3) -0.0488(3) -0.04142(13)
H2F H -0.3213 -0.0288 -0.0692
C5F C -0.4995(3) -0.2873(3) 0.01073(13)
H3F H -0.5322 -0.1729 0.0176
C6F C -0.6194(3) -0.4165(3) 0.01107(13)
H4F H -0.7344 -0.3880 0.0195
C7E C 0.4700(3) 0.1793(3) 0.12948(13)
H5E H 0.4207 0.2885 0.1475
O1E O 0.6018(2) 0.1299(2) 0.16303(9)
O1F O 0.3701(2) 0.1018(2) -0.08697(9)
O2E O 0.3906(2) 0.0991(2) 0.07806(9)
O2B O 0.0991(2) 0.3906(2) -0.07806(9)
loop_
_geom_bond_atom_site_label_1
_geom_bond_atom_site_label_2
_geom_bond_site_symmetry_1
_geom_bond_site_symmetry_2
Ni1 N1 1_555 1_555
N1 C1 1_555 1_555
N2 C6 1_555 1_555
C1 H1 1_555 1_555
C2 C1 1_555 1_555
H2 C2 1_555 1_555
C3 C2 1_555 1_555
C4 C3 1_555 1_555
C5 C4 1_555 1_555
H3 C5 1_555 1_555
C6 C5 1_555 1_555
H4 C6 1_555 1_555
C7 H5 1_555 1_555
O1 Ni1 1_555 1_555
O2 C7 1_555 1_555
Ni1_2 N2 1_555 1_555
Ni1C O2 1_555 1_555
Ni1C_2 O1E 1_555 1_555
N2_2 Ni1 1_555 1_555
C1F N1 1_555 1_555
H1F C1F 1_555 1_555
C2F C3 1_555 1_555
H2F C2F 1_555 1_555
C5F C4 1_555 1_555
H3F C5F 1_555 1_555
C6F N2 1_555 1_555
H4F C6F 1_555 1_555
C7E H5E 1_555 1_555
O1E C7E 1_555 1_555
O1F Ni1 1_555 1_555
O2E Ni1 1_555 1_555
O2B Ni1 1_555 1_555
C7 O1 1_555 1_555
C1F C2F 1_555 1_555
C5F C6F 1_555 1_555
C7E O2E 1_555 1_555

#END
