
#######################################################################
#
#                 Cambridge Crystallographic Data Centre
#                                CCDC 
#
#######################################################################
#
# If this CIF has been generated from an entry in the Cambridge 
# Structural Database, then it will include bibliographic, chemical, 
# crystal, experimental, refinement or atomic coordinate data resulting 
# from the CCDC's data processing and validation procedures.
#
#######################################################################

data_LUZDAM
_symmetry_cell_setting           monoclinic
_symmetry_space_group_name_H-M   'P 21/n'
_symmetry_Int_Tables_number      14
_space_group_name_Hall           '-P 2yn'
loop_
_symmetry_equiv_pos_site_id
_symmetry_equiv_pos_as_xyz
1 x,y,z
2 1/2-x,1/2+y,1/2-z
3 -x,-y,-z
4 1/2+x,1/2-y,1/2+z
_cell_length_a                   21.987(11)
_cell_length_b                   14.010(9)
_cell_length_c                   22.430(10)
_cell_angle_alpha                90
_cell_angle_beta                 109.58(4)
_cell_angle_gamma                90
_cell_volume                     6509.76
loop_
_atom_site_label
_atom_site_type_symbol
_atom_site_fract_x
_atom_site_fract_y
_atom_site_fract_z
Co1 Co 0.29145(5) 0.27160(8) 0.80999(5)
F1 F 0.2153(2) 0.0940(4) 0.9828(2)
F2 F 0.2195(2) 0.2457(4) 0.9853(2)
F3 F 0.1481(2) 0.1756(3) 0.9105(2)
F4 F 0.4367(3) 0.0631(7) 1.0017(2)
F5 F 0.4359(3) 0.0106(4) 0.9141(3)
F6 F 0.4772(2) 0.1448(4) 0.9441(3)
F7 F 0.3442(3) 0.4967(5) 0.9846(2)
F8 F 0.3768(3) 0.3566(4) 1.0171(2)
F9 F 0.4434(2) 0.4627(5) 1.0114(2)
F10 F 0.5170(3) 0.4341(5) 0.8311(3)
F11 F 0.5193(3) 0.2813(5) 0.8459(3)
F12 F 0.4721(2) 0.3400(4) 0.7547(2)
O1 O 0.2173(2) 0.3587(3) 0.7580(2)
O2 O 0.2383(2) 0.6877(3) 0.7697(2)
O3 O 0.4361(2) 0.4885(4) 0.6515(2)
O4 O 0.2343(2) 0.2128(3) 0.8569(2)
O5 O 0.3593(2) 0.1701(3) 0.8560(2)
O6 O 0.3167(2) 0.3693(4) 0.8852(2)
O7 O 0.3709(2) 0.3277(3) 0.7902(2)
N1 N 0.2082(3) 0.4464(4) 0.7710(2)
N2 N 0.2181(3) 0.6011(4) 0.7749(2)
C1 C 0.2394(3) 0.5214(5) 0.7558(3)
C2 C 0.1563(3) 0.4759(5) 0.7958(3)
C3 C 0.1758(4) 0.5825(6) 0.8147(4)
C4 C 0.1572(4) 0.4121(5) 0.8516(3)
C5 C 0.0933(3) 0.4632(6) 0.7423(4)
C6 C 0.2188(4) 0.5957(7) 0.8835(3)
C7 C 0.1185(4) 0.6526(6) 0.7959(5)
C8 C 0.2884(3) 0.5150(5) 0.7249(3)
C9 C 0.3441(3) 0.5688(5) 0.7478(3)
C10 C 0.3927(3) 0.5592(5) 0.7219(3)
C11 C 0.3854(3) 0.4938(5) 0.6713(3)
C12 C 0.3280(3) 0.4428(5) 0.6470(3)
C13 C 0.2813(3) 0.4517(5) 0.6754(3)
C14 C 0.4363(3) 0.4245(6) 0.6025(3)
C15 C 0.5021(4) 0.4302(6) 0.5947(4)
C16 C 0.5091(3) 0.3721(6) 0.5419(3)
C17 C 0.5752(4) 0.3856(7) 0.5342(4)
C18 C 0.2096(4) 0.1714(6) 0.9478(4)
C19 C 0.2554(4) 0.1742(6) 0.9101(3)
C20 C 0.3161(4) 0.1335(6) 0.9380(3)
C21 C 0.3629(4) 0.1360(5) 0.9099(3)
C22 C 0.4288(4) 0.0878(6) 0.9440(4)
C23 C 0.3848(4) 0.4284(7) 0.9811(4)
C24 C 0.3750(4) 0.3933(6) 0.9144(4)
C25 C 0.4258(4) 0.3905(6) 0.8928(3)
C26 C 0.4204(4) 0.3593(6) 0.8319(4)
C27 C 0.4816(4) 0.3537(8) 0.8147(5)
C55 C 0.6300(4) 0.3515(6) 0.5902(4)
H1 H 0.1301 0.3583 0.8364
H2 H 0.1420 0.4473 0.8799
H3 H 0.2001 0.3911 0.8730
H4 H 0.0827 0.5205 0.7185
H5 H 0.0601 0.4484 0.7592
H6 H 0.0972 0.4126 0.7157
H7 H 0.2384 0.5364 0.9000
H8 H 0.1935 0.6175 0.9078
H9 H 0.2515 0.6413 0.8857
H10 H 0.1300 0.7087 0.8210
H11 H 0.0823 0.6233 0.8025
H12 H 0.1078 0.6690 0.7525
H13 H 0.3490 0.6126 0.7814
H14 H 0.4310 0.5962 0.7380
H15 H 0.3209 0.4024 0.6113
H16 H 0.2435 0.4135 0.6607
H17 H 0.4285 0.3613 0.6135
H18 H 0.4037 0.4423 0.5641
H19 H 0.5102 0.4950 0.5875
H20 H 0.5334 0.4089 0.6329
H21 H 0.5037 0.3066 0.5499
H22 H 0.4765 0.3907 0.5037
H23 H 0.5757 0.3510 0.4979
H24 H 0.5813 0.4516 0.5282
H25 H 0.3256 0.1027 0.9779
H26 H 0.4669 0.4106 0.9203
H53 H 0.6448 0.4023 0.6196
H54 H 0.6643 0.3303 0.5767
H55 H 0.6158 0.3002 0.6099
Co1A Co 0.20855(5) 0.77160(8) 0.69001(5)
O2A O 0.2617(2) 0.1877(3) 0.7303(2)
Co2 Co 0.30630(5) 0.10819(8) 0.26745(5)
F13 F 0.2829(2) 0.1369(4) 0.4653(2)
F14 F 0.3686(3) 0.0533(4) 0.4948(2)
F15 F 0.3735(3) 0.2021(4) 0.5121(2)
F16 F 0.5090(2) -0.0629(5) 0.3766(2)
F17 F 0.4313(2) -0.1142(3) 0.4053(2)
F18 F 0.4615(3) -0.1925(4) 0.3371(2)
F19 F 0.5046(2) 0.3182(3) 0.3712(2)
F20 F 0.5428(2) 0.1814(3) 0.4077(2)
F21 F 0.5139(2) 0.2091(4) 0.3086(2)
F22 F 0.3540(2) 0.0347(4) 0.0843(2)
F23 F 0.4376(2) -0.0534(3) 0.1317(2)
F24 F 0.4424(2) 0.0991(3) 0.1438(2)
O8 O 0.2558(2) 0.2201(3) 0.2164(2)
O9 O 0.2854(2) 0.5432(3) 0.2610(2)
O10 O 0.2078(2) 0.3328(4) 0.4793(2)
O11 O 0.3920(2) 0.1854(3) 0.2956(2)
O12 O 0.3043(2) 0.1370(3) 0.3572(2)
O13 O 0.3562(2) -0.0139(3) 0.3135(2)
O14 O 0.3311(2) 0.0631(3) 0.1919(2)
N3 N 0.2745(3) 0.3090(4) 0.2169(2)
N4 N 0.2923(3) 0.4579(4) 0.2406(3)
C28 C 0.2712(3) 0.3738(5) 0.2573(3)
C29 C 0.2972(4) 0.3488(5) 0.1651(3)
C30 C 0.3314(3) 0.4391(5) 0.1984(3)
C31 C 0.3395(4) 0.2768(6) 0.1467(4)
C32 C 0.2355(4) 0.3694(6) 0.1081(3)
C33 C 0.3292(4) 0.5258(6) 0.1556(3)
C34 C 0.4008(3) 0.4221(5) 0.2426(4)
C35 C 0.2510(3) 0.3623(5) 0.3125(3)
C36 C 0.2855(4) 0.4118(5) 0.3683(3)
C37 C 0.2700(4) 0.3979(6) 0.4227(3)
C38 C 0.2200(4) 0.3386(6) 0.4217(4)
C39 C 0.1853(3) 0.2898(5) 0.3672(3)
C40 C 0.2008(3) 0.3016(5) 0.3129(4)
C41 C 0.1556(4) 0.2738(6) 0.4824(4)
C42 C 0.1479(4) 0.2943(5) 0.5449(3)
C43 C 0.0964(4) 0.2325(6) 0.5589(4)
C44 C 0.0842(4) 0.2630(6) 0.6186(3)
C45 C 0.4985(4) 0.2244(6) 0.3597(4)
C46 C 0.4291(4) 0.1914(5) 0.3525(4)
C47 C 0.4150(4) 0.1777(6) 0.4070(3)
C48 C 0.3531(4) 0.1503(5) 0.4050(3)
C49 C 0.3447(4) 0.1366(7) 0.4704(4)
C50 C 0.4516(4) -0.1045(6) 0.3561(4)
C51 C 0.4030(4) -0.0461(5) 0.3019(3)
C52 C 0.4197(4) -0.0371(5) 0.2481(3)
C53 C 0.3817(3) 0.0150(5) 0.1965(3)
C54 C 0.4040(4) 0.0235(6) 0.1376(4)
C56 C 0.0302(4) 0.2066(6) 0.6332(4)
H27 H 0.3833 0.2863 0.1722
H28 H 0.3351 0.2852 0.1035
H29 H 0.3266 0.2139 0.1531
H30 H 0.2244 0.3145 0.0819
H31 H 0.2432 0.4215 0.0845
H32 H 0.2010 0.3849 0.1230
H33 H 0.2938 0.5194 0.1174
H34 H 0.3682 0.5289 0.1462
H35 H 0.3244 0.5825 0.1768
H36 H 0.4234 0.4811 0.2511
H37 H 0.4220 0.3796 0.2230
H38 H 0.4001 0.3950 0.2812
H39 H 0.3191 0.4545 0.3686
H40 H 0.2942 0.4294 0.4608
H41 H 0.1510 0.2485 0.3673
H42 H 0.1771 0.2682 0.2755
H43 H 0.1171 0.2893 0.4489
H44 H 0.1656 0.2083 0.4797
H45 H 0.1882 0.2833 0.5772
H46 H 0.1361 0.3594 0.5456
H47 H 0.0572 0.2374 0.5243
H48 H 0.1107 0.1681 0.5636
H49 H 0.1231 0.2550 0.6533
H50 H 0.0725 0.3286 0.6146
H51 H 0.4477 0.1870 0.4468
H52 H 0.4579 -0.0669 0.2464
H56 H -0.0101 0.2377 0.6139
H57 H 0.0393 0.2041 0.6777
H58 H 0.0281 0.1436 0.6170
Co2A Co 0.19370(5) 0.60819(8) 0.23255(5)
O9A O 0.2146(2) 0.0432(3) 0.2390(2)
loop_
_geom_bond_atom_site_label_1
_geom_bond_atom_site_label_2
_geom_bond_site_symmetry_1
_geom_bond_site_symmetry_2
Co1 O1 1_555 1_555
Co2 O8 1_555 1_555
F1 C18 1_555 1_555
F2 C18 1_555 1_555
F3 C18 1_555 1_555
F4 C22 1_555 1_555
F5 C22 1_555 1_555
F6 C22 1_555 1_555
F7 C23 1_555 1_555
F8 C23 1_555 1_555
F9 C23 1_555 1_555
F10 C27 1_555 1_555
F11 C27 1_555 1_555
F12 C27 1_555 1_555
F13 C49 1_555 1_555
F14 C49 1_555 1_555
F15 C49 1_555 1_555
F16 C50 1_555 1_555
F17 C50 1_555 1_555
F18 C50 1_555 1_555
F19 C45 1_555 1_555
F20 C45 1_555 1_555
F21 C45 1_555 1_555
F22 C54 1_555 1_555
F23 C54 1_555 1_555
F24 C54 1_555 1_555
O1 N1 1_555 1_555
O2 N2 1_555 1_555
O3 C11 1_555 1_555
O4 Co1 1_555 1_555
O5 Co1 1_555 1_555
O6 Co1 1_555 1_555
O7 Co1 1_555 1_555
O8 N3 1_555 1_555
O9 N4 1_555 1_555
O10 C38 1_555 1_555
O11 Co2 1_555 1_555
O12 Co2 1_555 1_555
O13 Co2 1_555 1_555
O14 Co2 1_555 1_555
N1 C1 1_555 1_555
N2 C1 1_555 1_555
N3 C28 1_555 1_555
N4 C28 1_555 1_555
C1 C8 1_555 1_555
C2 N1 1_555 1_555
C3 N2 1_555 1_555
C4 C2 1_555 1_555
C5 C2 1_555 1_555
C6 C3 1_555 1_555
C7 C3 1_555 1_555
C8 C9 1_555 1_555
C9 C10 1_555 1_555
C10 C11 1_555 1_555
C11 C12 1_555 1_555
C12 C13 1_555 1_555
C13 C8 1_555 1_555
C14 O3 1_555 1_555
C15 C14 1_555 1_555
C16 C15 1_555 1_555
C17 C16 1_555 1_555
C18 C19 1_555 1_555
C19 O4 1_555 1_555
C20 C19 1_555 1_555
C21 O5 1_555 1_555
C22 C21 1_555 1_555
C23 C24 1_555 1_555
C24 O6 1_555 1_555
C25 C24 1_555 1_555
C26 O7 1_555 1_555
C27 C26 1_555 1_555
C28 C35 1_555 1_555
C29 N3 1_555 1_555
C30 N4 1_555 1_555
C31 C29 1_555 1_555
C32 C29 1_555 1_555
C33 C30 1_555 1_555
C34 C30 1_555 1_555
C35 C36 1_555 1_555
C36 C37 1_555 1_555
C37 C38 1_555 1_555
C38 C39 1_555 1_555
C39 C40 1_555 1_555
C40 C35 1_555 1_555
C41 O10 1_555 1_555
C42 C41 1_555 1_555
C43 C42 1_555 1_555
C44 C43 1_555 1_555
C45 C46 1_555 1_555
C46 O11 1_555 1_555
C47 C46 1_555 1_555
C48 O12 1_555 1_555
C49 C48 1_555 1_555
C50 C51 1_555 1_555
C51 O13 1_555 1_555
C52 C51 1_555 1_555
C53 O14 1_555 1_555
C54 C53 1_555 1_555
C55 C17 1_555 1_555
C56 C44 1_555 1_555
H1 C4 1_555 1_555
H2 C4 1_555 1_555
H3 C4 1_555 1_555
H4 C5 1_555 1_555
H5 C5 1_555 1_555
H6 C5 1_555 1_555
H7 C6 1_555 1_555
H8 C6 1_555 1_555
H9 C6 1_555 1_555
H10 C7 1_555 1_555
H11 C7 1_555 1_555
H12 C7 1_555 1_555
H13 C9 1_555 1_555
H14 C10 1_555 1_555
H15 C12 1_555 1_555
H16 C13 1_555 1_555
H17 C14 1_555 1_555
H18 C14 1_555 1_555
H19 C15 1_555 1_555
H20 C15 1_555 1_555
H21 C16 1_555 1_555
H22 C16 1_555 1_555
H23 C17 1_555 1_555
H24 C17 1_555 1_555
H25 C20 1_555 1_555
H26 C25 1_555 1_555
H27 C31 1_555 1_555
H28 C31 1_555 1_555
H29 C31 1_555 1_555
H30 C32 1_555 1_555
H31 C32 1_555 1_555
H32 C32 1_555 1_555
H33 C33 1_555 1_555
H34 C33 1_555 1_555
H35 C33 1_555 1_555
H36 C34 1_555 1_555
H37 C34 1_555 1_555
H38 C34 1_555 1_555
H39 C36 1_555 1_555
H40 C37 1_555 1_555
H41 C39 1_555 1_555
H42 C40 1_555 1_555
H43 C41 1_555 1_555
H44 C41 1_555 1_555
H45 C42 1_555 1_555
H46 C42 1_555 1_555
H47 C43 1_555 1_555
H48 C43 1_555 1_555
H49 C44 1_555 1_555
H50 C44 1_555 1_555
H51 C47 1_555 1_555
H52 C52 1_555 1_555
H53 C55 1_555 1_555
H54 C55 1_555 1_555
H55 C55 1_555 1_555
H56 C56 1_555 1_555
H57 C56 1_555 1_555
H58 C56 1_555 1_555
Co1A O2 1_555 1_555
Co2A O9 1_555 1_555
O2A Co1 1_555 1_555
O9A Co2 1_555 1_555
C2 C3 1_555 1_555
C20 C21 1_555 1_555
C25 C26 1_555 1_555
C29 C30 1_555 1_555
C47 C48 1_555 1_555
C52 C53 1_555 1_555

#END
