
#######################################################################
#
#                 Cambridge Crystallographic Data Centre
#                                CCDC 
#
#######################################################################
#
# If this CIF has been generated from an entry in the Cambridge 
# Structural Database, then it will include bibliographic, chemical, 
# crystal, experimental, refinement or atomic coordinate data resulting 
# from the CCDC's data processing and validation procedures.
#
#######################################################################

data_LUZHIX
_symmetry_cell_setting           triclinic
_symmetry_space_group_name_H-M   'P -1'
_symmetry_Int_Tables_number      2
_space_group_name_Hall           '-P 1'
loop_
_symmetry_equiv_pos_site_id
_symmetry_equiv_pos_as_xyz
1 x,y,z
2 -x,-y,-z
_cell_length_a                   8.3590(10)
_cell_length_b                   8.9050(10)
_cell_length_c                   12.0060(10)
_cell_angle_alpha                69.440(10)
_cell_angle_beta                 70.150(10)
_cell_angle_gamma                78.200(10)
_cell_volume                     783.353
loop_
_atom_site_label
_atom_site_type_symbol
_atom_site_fract_x
_atom_site_fract_y
_atom_site_fract_z
Cu1 Cu 0.23261(2) 0.77424(2) 0.165884(17)
O1 O 0.18382(15) 0.51763(14) 0.27920(11)
H1 H 0.1859 0.4614 0.2403
H2 H 0.2471 0.4661 0.3260
O2 O 0.07298(15) 0.87833(15) 0.29006(11)
O3 O 0.41154(14) 0.72825(14) 1.01997(10)
N1 N 0.12129(17) 0.85938(17) 0.39019(12)
N2 N 0.36885(16) 0.75092(16) 0.91703(12)
C1 C 0.1978(2) 0.9776(2) 0.39236(15)
H3 H 0.2177 1.0726 0.3233
C2 C 0.2471(2) 0.9598(2) 0.49528(15)
H4 H 0.3004 1.0433 0.4968
C3 C 0.2194(2) 0.8201(2) 0.59748(15)
C4 C 0.1396(2) 0.7013(2) 0.59032(15)
H5 H 0.1188 0.6046 0.6577
C5 C 0.0913(2) 0.7233(2) 0.48692(15)
H6 H 0.0364 0.6423 0.4834
C6 C 0.2718(2) 0.79704(19) 0.70847(15)
C7 C 0.2826(2) 0.9277(2) 0.74354(15)
H7 H 0.2557 1.0344 0.6955
C8 C 0.3321(2) 0.9025(2) 0.84732(15)
H8 H 0.3405 0.9918 0.8701
C9 C 0.3610(2) 0.6216(2) 0.88613(16)
H9 H 0.3887 0.5161 0.9357
C10 C 0.3127(2) 0.6430(2) 0.78269(16)
H10 H 0.3071 0.5515 0.7613
N3 N -0.18227(19) 0.8083(2) 0.01117(16)
C11 C -0.0533(2) 0.7996(2) 0.05092(15)
N4 N 0.05026(18) 0.80402(18) 0.09283(13)
C12 C -0.1715(2) 0.7416(2) -0.07276(16)
N5 N -0.1768(2) 0.68794(19) -0.14562(14)
N6 N 0.65806(18) 0.67732(19) 0.32165(14)
C13 C 0.5260(2) 0.72182(19) 0.27980(15)
N7 N 0.42123(18) 0.76164(18) 0.23009(13)
C14 C 0.6461(2) 0.6662(2) 0.43617(17)
N8 N 0.6535(2) 0.6543(2) 0.53327(15)
O3_2 O 0.41154(14) 0.72825(14) 0.01997(10)
Cu1_2 Cu 0.23261(2) 0.77424(2) 1.165884(17)
loop_
_geom_bond_atom_site_label_1
_geom_bond_atom_site_label_2
_geom_bond_site_symmetry_1
_geom_bond_site_symmetry_2
Cu1 O1 1_555 1_555
O1 H1 1_555 1_555
H2 O1 1_555 1_555
O2 Cu1 1_555 1_555
O3 N2 1_555 1_555
N1 O2 1_555 1_555
N2 C8 1_555 1_555
C1 N1 1_555 1_555
H3 C1 1_555 1_555
C2 C1 1_555 1_555
H4 C2 1_555 1_555
C3 C2 1_555 1_555
C4 C3 1_555 1_555
H5 C4 1_555 1_555
C5 N1 1_555 1_555
H6 C5 1_555 1_555
C6 C3 1_555 1_555
C7 C6 1_555 1_555
H7 C7 1_555 1_555
C8 C7 1_555 1_555
H8 C8 1_555 1_555
C9 N2 1_555 1_555
H9 C9 1_555 1_555
C10 C6 1_555 1_555
H10 C10 1_555 1_555
N3 C11 1_555 1_555
C11 N4 1_555 1_555
N4 Cu1 1_555 1_555
C12 N3 1_555 1_555
N5 C12 1_555 1_555
N6 C13 1_555 1_555
C13 N7 1_555 1_555
N7 Cu1 1_555 1_555
C14 N6 1_555 1_555
N8 C14 1_555 1_555
O3_2 Cu1 1_555 1_555
Cu1_2 O3 1_555 1_555
C4 C5 1_555 1_555
C9 C10 1_555 1_555

#END
