
#######################################################################
#
#                 Cambridge Crystallographic Data Centre
#                                CCDC 
#
#######################################################################
#
# If this CIF has been generated from an entry in the Cambridge 
# Structural Database, then it will include bibliographic, chemical, 
# crystal, experimental, refinement or atomic coordinate data resulting 
# from the CCDC's data processing and validation procedures.
#
#######################################################################

data_LUZVOS
_symmetry_cell_setting           monoclinic
_symmetry_space_group_name_H-M   'P 21/c'
_symmetry_Int_Tables_number      14
_space_group_name_Hall           '-P 2ybc'
loop_
_symmetry_equiv_pos_site_id
_symmetry_equiv_pos_as_xyz
1 x,y,z
2 -x,1/2+y,1/2-z
3 -x,-y,-z
4 x,1/2-y,1/2+z
_cell_length_a                   10.008(2)
_cell_length_b                   17.306(4)
_cell_length_c                   9.2161(18)
_cell_angle_alpha                90
_cell_angle_beta                 96.37(3)
_cell_angle_gamma                90
_cell_volume                     1586.36
loop_
_atom_site_label
_atom_site_type_symbol
_atom_site_fract_x
_atom_site_fract_y
_atom_site_fract_z
Hg1 Hg 0.76123(4) 0.25261(2) 0.22135(4)
I1 I 0.93035(6) 0.22277(4) 0.49020(7)
N1 N 0.6751(7) 0.1328(5) 0.1699(9)
H1 H 0.6728 0.1288 0.0690
C1 C 0.7649(9) 0.0706(7) 0.2253(14)
H2 H 0.7816 0.0783 0.3333
I2 I 0.64628(7) 0.39104(4) 0.26055(7)
C2 C 0.9010(9) 0.0765(6) 0.1682(11)
H3 H 0.9406 0.1279 0.1927
H4 H 0.8896 0.0712 0.0606
C3 C 0.9963(10) 0.0134(6) 0.2349(13)
H5 H 1.0829 0.0173 0.1929
H6 H 1.0142 0.0219 0.3414
C4 C 0.9401(10) -0.0659(6) 0.2076(13)
H7 H 1.0029 -0.1046 0.2561
H8 H 0.9293 -0.0767 0.1015
C5 C 0.8052(12) -0.0722(6) 0.2664(13)
H9 H 0.8182 -0.0661 0.3739
H10 H 0.7675 -0.1243 0.2444
C6 C 0.7060(11) -0.0120(6) 0.2019(13)
H11 H 0.6218 -0.0161 0.2485
H12 H 0.6842 -0.0218 0.0961
C7 C 0.5306(9) 0.1258(6) 0.1967(11)
H13 H 0.4988 0.0729 0.1663
C8 C 0.5127(9) 0.1360(6) 0.3559(10)
H14 H 0.5469 0.1874 0.3893
H15 H 0.5656 0.0962 0.4142
C9 C 0.3648(10) 0.1290(6) 0.3806(11)
H16 H 0.3333 0.0756 0.3581
H17 H 0.3546 0.1396 0.4843
C10 C 0.2807(10) 0.1853(7) 0.2846(11)
H18 H 0.1849 0.1778 0.2986
H19 H 0.3060 0.2386 0.3156
C11 C 0.2964(10) 0.1767(7) 0.1274(11)
H20 H 0.2435 0.2172 0.0709
H21 H 0.2615 0.1257 0.0925
C12 C 0.4479(9) 0.1840(6) 0.1019(11)
H22 H 0.4581 0.1743 -0.0022
H23 H 0.4803 0.2369 0.1266
Hg1C Hg 0.76123(4) 0.24739(2) 0.72135(4)
I1C I 0.93035(6) 0.27723(4) -0.00980(7)
loop_
_geom_bond_atom_site_label_1
_geom_bond_atom_site_label_2
_geom_bond_site_symmetry_1
_geom_bond_site_symmetry_2
Hg1 I1 1_555 1_555
I1 Hg1C 1_555 1_555
N1 Hg1 1_555 1_555
H1 N1 1_555 1_555
C1 N1 1_555 1_555
H2 C1 1_555 1_555
I2 Hg1 1_555 1_555
C2 C1 1_555 1_555
H3 C2 1_555 1_555
H4 C2 1_555 1_555
C3 C2 1_555 1_555
H5 C3 1_555 1_555
H6 C3 1_555 1_555
C4 C3 1_555 1_555
H7 C4 1_555 1_555
H8 C4 1_555 1_555
C5 C4 1_555 1_555
H9 C5 1_555 1_555
H10 C5 1_555 1_555
C6 C1 1_555 1_555
H11 C6 1_555 1_555
H12 C6 1_555 1_555
C7 N1 1_555 1_555
H13 C7 1_555 1_555
C8 C7 1_555 1_555
H14 C8 1_555 1_555
H15 C8 1_555 1_555
C9 C8 1_555 1_555
H16 C9 1_555 1_555
H17 C9 1_555 1_555
C10 C9 1_555 1_555
H18 C10 1_555 1_555
H19 C10 1_555 1_555
C11 C10 1_555 1_555
H20 C11 1_555 1_555
H21 C11 1_555 1_555
C12 C7 1_555 1_555
H22 C12 1_555 1_555
H23 C12 1_555 1_555
I1C Hg1 1_555 1_555
C5 C6 1_555 1_555
C11 C12 1_555 1_555

#END
