
#######################################################################
#
#                 Cambridge Crystallographic Data Centre
#                                CCDC 
#
#######################################################################
#
# If this CIF has been generated from an entry in the Cambridge 
# Structural Database, then it will include bibliographic, chemical, 
# crystal, experimental, refinement or atomic coordinate data resulting 
# from the CCDC's data processing and validation procedures.
#
#######################################################################

data_LUZYUA
_symmetry_cell_setting           orthorhombic
_symmetry_space_group_name_H-M   'P b c a'
_symmetry_Int_Tables_number      61
_space_group_name_Hall           '-P 2ac 2ab'
loop_
_symmetry_equiv_pos_site_id
_symmetry_equiv_pos_as_xyz
1 x,y,z
2 1/2-x,1/2+y,z
3 x,1/2-y,1/2+z
4 1/2+x,y,1/2-z
5 -x,-y,-z
6 1/2+x,1/2-y,-z
7 -x,1/2+y,1/2-z
8 1/2-x,-y,1/2+z
_cell_length_a                   17.26305(32)
_cell_length_b                   6.39336(11)
_cell_length_c                   6.20451(10)
_cell_angle_alpha                90
_cell_angle_beta                 90
_cell_angle_gamma                90
_cell_volume                     684.785
loop_
_atom_site_label
_atom_site_type_symbol
_atom_site_fract_x
_atom_site_fract_y
_atom_site_fract_z
Zn1 Zn 0.79567(7) 0.10000(19) 0.64981(27)
S1 S 0.81707(12) 0.05997(34) 1.01927(35)
N1 N 0.89288(21) -0.0563(8) 0.4971(8)
C1 C 0.96715(21) 0.0411(10) 0.5702(9)
H1 H 0.88822 -0.05271 0.35496
H2 H 0.89332 -0.19425 0.53878
H3 H 0.97177 0.03631 0.7217
H4 H 0.96629 0.18844 0.52413
C1D C 1.03285(21) -0.0411(10) 0.4298(9)
N1D N 1.10712(21) 0.0563(8) 0.5029(8)
H1D H 1.11178 0.05271 0.64504
H2D H 1.10668 0.19425 0.46122
H3D H 1.02823 -0.03631 0.2783
H4D H 1.03371 -0.18844 0.47587
S1B S 0.81707(12) 0.44003(34) 0.51927(35)
Zn1B Zn 0.79567(7) 0.40000(19) 0.14981(27)
S1G S 0.68293(12) -0.05997(34) 0.51927(35)
Zn1B_2 Zn 0.79567(7) 0.40000(19) 1.14981(27)
Zn1G Zn 0.70433(7) -0.10000(19) 1.14981(27)
Zn1D Zn 1.20433(7) -0.10000(19) 0.35019(27)
Zn1A Zn 0.70433(7) 0.60000(19) 0.64981(27)
S1_2 S 0.81707(12) 0.05997(34) 0.01927(35)
S1A S 0.68293(12) 0.55997(34) 0.01927(35)
N1B N 0.89288(21) 0.5563(8) -0.0029(8)
H1B H 0.88822 0.55271 -0.14504
H2B H 0.89332 0.69425 0.03878
loop_
_geom_bond_atom_site_label_1
_geom_bond_atom_site_label_2
_geom_bond_site_symmetry_1
_geom_bond_site_symmetry_2
Zn1 S1 1_555 1_555
S1 Zn1B_2 1_555 1_555
N1 Zn1 1_555 1_555
C1 N1 1_555 1_555
H1 N1 1_555 1_555
H2 N1 1_555 1_555
H3 C1 1_555 1_555
H4 C1 1_555 1_555
C1D C1 1_555 1_555
N1D C1D 1_555 1_555
H1D N1D 1_555 1_555
H2D N1D 1_555 1_555
H3D C1D 1_555 1_555
H4D C1D 1_555 1_555
S1B Zn1 1_555 1_555
Zn1B S1B 1_555 1_555
S1G Zn1 1_555 1_555
Zn1G S1 1_555 1_555
Zn1D N1D 1_555 1_555
Zn1A S1B 1_555 1_555
S1_2 Zn1B 1_555 1_555
S1A Zn1B 1_555 1_555
N1B Zn1B 1_555 1_555
H1B N1B 1_555 1_555
H2B N1B 1_555 1_555

#END
