
#######################################################################
#
#                 Cambridge Crystallographic Data Centre
#                                CCDC 
#
#######################################################################
#
# If this CIF has been generated from an entry in the Cambridge 
# Structural Database, then it will include bibliographic, chemical, 
# crystal, experimental, refinement or atomic coordinate data resulting 
# from the CCDC's data processing and validation procedures.
#
#######################################################################

data_LUZZAI
_symmetry_cell_setting           monoclinic
_symmetry_space_group_name_H-M   'P 21/c'
_symmetry_Int_Tables_number      14
_space_group_name_Hall           '-P 2ybc'
loop_
_symmetry_equiv_pos_site_id
_symmetry_equiv_pos_as_xyz
1 x,y,z
2 -x,1/2+y,1/2-z
3 -x,-y,-z
4 x,1/2-y,1/2+z
_cell_length_a                   7.5383(10)
_cell_length_b                   10.4052(14)
_cell_length_c                   17.3467(19)
_cell_angle_alpha                90
_cell_angle_beta                 112.123(5)
_cell_angle_gamma                90
_cell_volume                     1260.46
loop_
_atom_site_label
_atom_site_type_symbol
_atom_site_fract_x
_atom_site_fract_y
_atom_site_fract_z
Zn1 Zn 0.36595(4) 0.83492(3) 0.499165(17)
O1 O 0.3078(3) 1.01863(17) 0.51696(10)
O2 O 0.5442(3) 1.14832(18) 0.59338(11)
O3 O 0.6089(3) 1.2789(2) 0.87364(13)
O4 O 0.4006(3) 1.2257(3) 0.92362(14)
N1 N 0.1179(3) 0.7693(2) 0.94730(13)
N2 N -0.0612(3) 0.9304(2) 0.70256(13)
H1 H -0.0935 0.8673 0.6680
C1 C 0.3244(3) 1.0815(2) 0.65211(15)
C2 C 0.4214(3) 1.1500(2) 0.72457(15)
H2 H 0.5290 1.1982 0.7295
C3 C 0.3569(4) 1.1462(2) 0.78930(15)
C4 C 0.1954(4) 1.0748(2) 0.78231(15)
H3 H 0.1529 1.0734 0.8261
C5 C 0.0968(3) 1.0053(2) 0.70981(15)
C6 C 0.1620(4) 1.0109(2) 0.64464(15)
H4 H 0.0960 0.9668 0.5955
C7 C 0.3954(4) 1.0821(2) 0.58242(15)
C8 C 0.4622(4) 1.2191(3) 0.86709(16)
C9 C -0.1719(4) 0.9585(3) 0.75293(17)
H5 H -0.3030 0.9317 0.7224
H6 H -0.1730 1.0509 0.7601
C10 C -0.1035(4) 0.8968(2) 0.83788(17)
C11 C -0.2099(4) 0.9172(3) 0.88734(18)
H7 H -0.3202 0.9672 0.8674
C12 C -0.1521(4) 0.8634(3) 0.9658(2)
H8 H -0.2226 0.8758 0.9992
C13 C 0.0122(4) 0.7911(3) 0.99323(17)
H9 H 0.0522 0.7555 1.0462
C14 C 0.0582(4) 0.8215(2) 0.87040(16)
H10 H 0.1296 0.8060 0.8378
Zn1B Zn 0.63405(4) 1.16508(3) 0.500835(17)
Zn1A Zn 0.63405(4) 1.33492(3) 0.000835(17)
Zn1A_2 Zn 0.63405(4) 1.33492(3) 1.000835(17)
Zn1C Zn 0.36595(4) 0.66508(3) -0.000835(17)
Zn1C_2 Zn 0.36595(4) 0.66508(3) 0.999165(17)
O1B O 0.6922(3) 0.98137(17) 0.48304(10)
O2B O 0.4558(3) 0.85168(18) 0.40662(11)
O3B O 0.3911(3) 0.7211(2) 0.12636(13)
O3A O 0.3911(3) 0.7789(2) 0.62636(13)
O3C O 0.6089(3) 1.2211(2) 0.37364(13)
O4B O 0.5994(3) 0.7743(3) 0.07638(14)
O4A O 0.5994(3) 0.7257(3) 0.57638(14)
O4C O 0.4006(3) 1.2743(3) 0.42362(14)
N1B N 0.8821(3) 1.2307(2) 0.05270(13)
N1A N 0.8821(3) 1.2693(2) 0.55270(13)
N1C N 0.1179(3) 0.7307(2) 0.44730(13)
N2B N 1.0612(3) 1.0696(2) 0.29744(13)
H1B H 1.0935 1.1327 0.3320
C1B C 0.6756(3) 0.9185(2) 0.34789(15)
C2B C 0.5786(3) 0.8500(2) 0.27543(15)
H2B H 0.4710 0.8018 0.2705
C3B C 0.6431(4) 0.8538(2) 0.21070(15)
C4B C 0.8046(4) 0.9252(2) 0.21769(15)
H3B H 0.8471 0.9266 0.1739
C5B C 0.9032(3) 0.9947(2) 0.29019(15)
C6B C 0.8380(4) 0.9891(2) 0.35536(15)
H4B H 0.9040 1.0332 0.4045
C7B C 0.6046(4) 0.9179(2) 0.41758(15)
C8B C 0.5378(4) 0.7809(3) 0.13291(16)
C9B C 1.1719(4) 1.0415(3) 0.24707(17)
H5B H 1.3030 1.0683 0.2776
H6B H 1.1730 0.9491 0.2399
C10B C 1.1035(4) 1.1032(2) 0.16212(17)
C11B C 1.2099(4) 1.0828(3) 0.11266(18)
H7B H 1.3202 1.0328 0.1326
C12B C 1.1521(4) 1.1366(3) 0.0342(2)
H8B H 1.2226 1.1242 0.0008
C13B C 0.9878(4) 1.2089(3) 0.00677(17)
H9B H 0.9478 1.2445 -0.0462
C14B C 0.9418(4) 1.1785(2) 0.12960(16)
H10B H 0.8704 1.1940 0.1622
loop_
_geom_bond_atom_site_label_1
_geom_bond_atom_site_label_2
_geom_bond_site_symmetry_1
_geom_bond_site_symmetry_2
Zn1 O1 1_555 1_555
O1 C7 1_555 1_555
O2 C7 1_555 1_555
O3 C8 1_555 1_555
O4 C8 1_555 1_555
N1 C13 1_555 1_555
N2 H1 1_555 1_555
C1 C2 1_555 1_555
C2 H2 1_555 1_555
C3 C2 1_555 1_555
C4 C3 1_555 1_555
H3 C4 1_555 1_555
C5 N2 1_555 1_555
C6 C1 1_555 1_555
H4 C6 1_555 1_555
C7 C1 1_555 1_555
C8 C3 1_555 1_555
C9 N2 1_555 1_555
H5 C9 1_555 1_555
H6 C9 1_555 1_555
C10 C9 1_555 1_555
C11 C10 1_555 1_555
H7 C11 1_555 1_555
C12 C11 1_555 1_555
H8 C12 1_555 1_555
C13 C12 1_555 1_555
H9 C13 1_555 1_555
C14 N1 1_555 1_555
H10 C14 1_555 1_555
Zn1B O2 1_555 1_555
Zn1A N1B 1_555 1_555
Zn1A_2 O3 1_555 1_555
Zn1C O3B 1_555 1_555
Zn1C_2 N1 1_555 1_555
O1B Zn1B 1_555 1_555
O2B Zn1 1_555 1_555
O3B C8B 1_555 1_555
O3A Zn1 1_555 1_555
O3C Zn1B 1_555 1_555
O4B Zn1C 1_555 1_555
O4A Zn1 1_555 1_555
O4C Zn1B 1_555 1_555
N1B C13B 1_555 1_555
N1A Zn1B 1_555 1_555
N1C Zn1 1_555 1_555
N2B H1B 1_555 1_555
C1B C2B 1_555 1_555
C2B H2B 1_555 1_555
C3B C2B 1_555 1_555
C4B C3B 1_555 1_555
H3B C4B 1_555 1_555
C5B N2B 1_555 1_555
C6B C1B 1_555 1_555
H4B C6B 1_555 1_555
C7B O1B 1_555 1_555
C8B O4B 1_555 1_555
C9B N2B 1_555 1_555
H5B C9B 1_555 1_555
H6B C9B 1_555 1_555
C10B C9B 1_555 1_555
C11B C10B 1_555 1_555
H7B C11B 1_555 1_555
C12B C11B 1_555 1_555
H8B C12B 1_555 1_555
C13B C12B 1_555 1_555
H9B C13B 1_555 1_555
C14B N1B 1_555 1_555
H10B C14B 1_555 1_555
O4 Zn1A_2 1_555 1_555
C4 C5 1_555 1_555
C5 C6 1_555 1_555
C10 C14 1_555 1_555
O2B C7B 1_555 1_555
C1B C7B 1_555 1_555
C3B C8B 1_555 1_555
C4B C5B 1_555 1_555
C5B C6B 1_555 1_555
C10B C14B 1_555 1_555

#END
