
#######################################################################
#
#                 Cambridge Crystallographic Data Centre
#                                CCDC 
#
#######################################################################
#
# If this CIF has been generated from an entry in the Cambridge 
# Structural Database, then it will include bibliographic, chemical, 
# crystal, experimental, refinement or atomic coordinate data resulting 
# from the CCDC's data processing and validation procedures.
#
#######################################################################

data_LUZZIQ
_symmetry_cell_setting           triclinic
_symmetry_space_group_name_H-M   'P -1'
_symmetry_Int_Tables_number      2
_space_group_name_Hall           '-P 1'
loop_
_symmetry_equiv_pos_site_id
_symmetry_equiv_pos_as_xyz
1 x,y,z
2 -x,-y,-z
_cell_length_a                   9.7085(16)
_cell_length_b                   10.7698(18)
_cell_length_c                   12.036(2)
_cell_angle_alpha                63.894(2)
_cell_angle_beta                 69.051(2)
_cell_angle_gamma                80.427(2)
_cell_volume                     1055.32
loop_
_atom_site_label
_atom_site_type_symbol
_atom_site_fract_x
_atom_site_fract_y
_atom_site_fract_z
C1 C 0.7145(3) 0.1308(3) 0.9901(2)
C2 C 0.8625(3) 0.0612(3) 0.9954(2)
C3 C 0.9158(3) -0.0421(3) 0.9512(3)
H1 H 0.8600 -0.0702 0.9177
C4 C 0.9477(3) 0.1040(3) 1.0433(3)
H2 H 0.9133 0.1742 1.0719
C5 C 0.3865(3) 0.3502(3) 0.9300(3)
H3 H 0.4599 0.3295 0.9685
C6 C 0.2855(3) 0.4569(3) 0.9417(3)
H4 H 0.2929 0.5064 0.9860
C7 C 0.1757(3) 0.4867(3) 0.8869(3)
H5 H 0.1073 0.5565 0.8943
C8 C 0.1670(3) 0.4117(3) 0.8194(3)
C9 C 0.2739(3) 0.3076(3) 0.8106(2)
C10 C 0.2717(3) 0.2274(3) 0.7413(2)
C11 C 0.3872(3) 0.0619(3) 0.6656(3)
H6 H 0.4646 -0.0005 0.6574
C12 C 0.2808(3) 0.0749(3) 0.6081(3)
H7 H 0.2880 0.0222 0.5623
C13 C 0.1666(3) 0.1650(3) 0.6195(3)
H8 H 0.0942 0.1737 0.5826
C14 C 0.1584(3) 0.2450(3) 0.6876(3)
C15 C 0.0488(3) 0.3463(3) 0.7047(3)
C16 C 0.0540(3) 0.4286(3) 0.7631(3)
C17 C -0.1404(3) 0.4861(3) 0.7076(3)
C18 C -0.2798(3) 0.5532(3) 0.6879(3)
C19 C -0.3466(3) 0.6448(3) 0.7454(3)
H9 H -0.3021 0.6622 0.7938
C20 C -0.4788(3) 0.7102(3) 0.7312(3)
H10 H -0.5260 0.7689 0.7719
C21 C -0.5373(3) 0.6850(3) 0.6551(3)
C22 C -0.4754(3) 0.5975(3) 0.5960(3)
H11 H -0.5188 0.5842 0.5446
C23 C -0.3455(3) 0.5284(3) 0.6144(3)
H12 H -0.3026 0.4657 0.5775
C24 C 0.7471(3) 0.0702(3) 0.6822(3)
C25 C 0.8781(3) 0.0337(3) 0.5870(3)
C26 C 0.9410(3) 0.1324(3) 0.4619(3)
H13 H 0.9017 0.2217 0.4361
C27 C 0.9378(3) -0.0987(3) 0.6252(3)
H14 H 0.8965 -0.1651 0.7094
N1 N 0.3828(2) 0.1347(2) 0.7315(2)
N2 N 0.3817(2) 0.2775(2) 0.8662(2)
N3 N -0.0660(2) 0.5184(2) 0.7637(2)
N4 N -0.0755(2) 0.3850(2) 0.6685(2)
H15 H -0.1062 0.3514 0.6287
O1 O 0.62050(17) 0.05930(18) 0.98686(16)
O2 O 0.6906(2) 0.2458(2) 0.9887(2)
O3 O 0.6610(2) -0.0250(2) 0.7717(2)
O4 O 0.7267(2) 0.1926(2) 0.6711(2)
Zn1 Zn 0.51417(3) 0.10468(3) 0.85219(3)
F1 F -0.6656(2) 0.7507(2) 0.6375(2)
C1A C 1.2855(3) -0.1308(3) 1.0099(2)
C2A C 1.1375(3) -0.0612(3) 1.0046(2)
C3A C 1.0842(3) 0.0421(3) 1.0488(3)
H1A H 1.1400 0.0702 1.0823
C4A C 1.0523(3) -0.1040(3) 0.9567(3)
H2A H 1.0867 -0.1742 0.9281
C5A C 1.6135(3) -0.3502(3) 1.0700(3)
H3A H 1.5401 -0.3295 1.0315
C6A C 1.7145(3) -0.4569(3) 1.0583(3)
H4A H 1.7071 -0.5064 1.0140
C7A C 1.8243(3) -0.4867(3) 1.1131(3)
H5A H 1.8927 -0.5565 1.1057
C8A C 1.8330(3) -0.4117(3) 1.1806(3)
C9A C 1.7261(3) -0.3076(3) 1.1894(2)
C10A C 1.7283(3) -0.2274(3) 1.2587(2)
C11A C 1.6128(3) -0.0619(3) 1.3344(3)
H6A H 1.5354 0.0005 1.3426
C12A C 1.7192(3) -0.0749(3) 1.3919(3)
H7A H 1.7120 -0.0222 1.4377
C13A C 1.8334(3) -0.1650(3) 1.3805(3)
H8A H 1.9058 -0.1737 1.4174
C14A C 1.8416(3) -0.2450(3) 1.3124(3)
C15A C 1.9512(3) -0.3463(3) 1.2953(3)
C16A C 1.9460(3) -0.4286(3) 1.2369(3)
C17A C 2.1404(3) -0.4861(3) 1.2924(3)
C18A C 2.2798(3) -0.5532(3) 1.3121(3)
C19A C 2.3466(3) -0.6448(3) 1.2546(3)
H9A H 2.3021 -0.6622 1.2062
C20A C 2.4788(3) -0.7102(3) 1.2688(3)
H10A H 2.5260 -0.7689 1.2281
C21A C 2.5373(3) -0.6850(3) 1.3449(3)
C22A C 2.4754(3) -0.5975(3) 1.4040(3)
H11A H 2.5188 -0.5842 1.4554
C23A C 2.3455(3) -0.5284(3) 1.3856(3)
H12A H 2.3026 -0.4657 1.4225
C24A C 1.2529(3) -0.0702(3) 0.3178(3)
C25A C 1.1219(3) -0.0337(3) 0.4130(3)
C26A C 1.0590(3) -0.1324(3) 0.5381(3)
H13A H 1.0983 -0.2217 0.5639
C27A C 1.0622(3) 0.0987(3) 0.3748(3)
H14A H 1.1035 0.1651 0.2906
N1A N 1.6172(2) -0.1347(2) 1.2685(2)
N2A N 1.6183(2) -0.2775(2) 1.1338(2)
N3A N 2.0660(2) -0.5184(2) 1.2363(2)
N4A N 2.0755(2) -0.3850(2) 1.3315(2)
H15A H 2.1062 -0.3514 1.3713
O1A O 1.37950(17) -0.05930(18) 1.01314(16)
O1A_2 O 0.37950(17) -0.05930(18) 1.01314(16)
O1_2 O 1.62050(17) 0.05930(18) 0.98686(16)
O2A O 1.3094(2) -0.2458(2) 1.0113(2)
O3A O 1.3390(2) 0.0250(2) 0.2283(2)
O3A_2 O 1.3390(2) 0.0250(2) 1.2283(2)
O4A O 1.2733(2) -0.1926(2) 0.3289(2)
O4A_2 O 1.2733(2) -0.1926(2) 1.3289(2)
Zn1A Zn 1.48583(3) -0.10468(3) 1.14781(3)
Zn1A_2 Zn 0.48583(3) -0.10468(3) 1.14781(3)
Zn1_2 Zn 1.51417(3) 0.10468(3) 0.85219(3)
Zn1A_3 Zn 1.48583(3) -0.10468(3) 0.14781(3)
F1A F 2.6656(2) -0.7507(2) 1.3625(2)
loop_
_geom_bond_atom_site_label_1
_geom_bond_atom_site_label_2
_geom_bond_site_symmetry_1
_geom_bond_site_symmetry_2
C1 C2 1_555 1_555
C2 C3 1_555 1_555
C3 H1 1_555 1_555
C4 C2 1_555 1_555
H2 C4 1_555 1_555
C5 H3 1_555 1_555
C6 C5 1_555 1_555
H4 C6 1_555 1_555
C7 C6 1_555 1_555
H5 C7 1_555 1_555
C8 C7 1_555 1_555
C9 C8 1_555 1_555
C10 C9 1_555 1_555
C11 H6 1_555 1_555
C12 C11 1_555 1_555
H7 C12 1_555 1_555
C13 C12 1_555 1_555
H8 C13 1_555 1_555
C14 C10 1_555 1_555
C15 C14 1_555 1_555
C16 C8 1_555 1_555
C17 C18 1_555 1_555
C18 C19 1_555 1_555
C19 H9 1_555 1_555
C20 C19 1_555 1_555
H10 C20 1_555 1_555
C21 C20 1_555 1_555
C22 C21 1_555 1_555
H11 C22 1_555 1_555
C23 C18 1_555 1_555
H12 C23 1_555 1_555
C24 C25 1_555 1_555
C25 C26 1_555 1_555
C26 H13 1_555 1_555
C27 C25 1_555 1_555
H14 C27 1_555 1_555
N1 C10 1_555 1_555
N2 C5 1_555 1_555
N3 C16 1_555 1_555
N4 C15 1_555 1_555
H15 N4 1_555 1_555
O1 C1 1_555 1_555
O2 C1 1_555 1_555
O3 C24 1_555 1_555
O4 C24 1_555 1_555
Zn1 N1 1_555 1_555
F1 C21 1_555 1_555
C1A C2A 1_555 1_555
C2A C3A 1_555 1_555
C3A C4 1_555 1_555
H1A C3A 1_555 1_555
C4A C3 1_555 1_555
H2A C4A 1_555 1_555
C5A H3A 1_555 1_555
C6A C5A 1_555 1_555
H4A C6A 1_555 1_555
C7A C6A 1_555 1_555
H5A C7A 1_555 1_555
C8A C7A 1_555 1_555
C9A C8A 1_555 1_555
C10A C9A 1_555 1_555
C11A H6A 1_555 1_555
C12A C11A 1_555 1_555
H7A C12A 1_555 1_555
C13A C12A 1_555 1_555
H8A C13A 1_555 1_555
C14A C10A 1_555 1_555
C15A C14A 1_555 1_555
C16A C8A 1_555 1_555
C17A C18A 1_555 1_555
C18A C19A 1_555 1_555
C19A H9A 1_555 1_555
C20A C19A 1_555 1_555
H10A C20A 1_555 1_555
C21A C20A 1_555 1_555
C22A C21A 1_555 1_555
H11A C22A 1_555 1_555
C23A C18A 1_555 1_555
H12A C23A 1_555 1_555
C24A C25A 1_555 1_555
C25A C26A 1_555 1_555
C26A C27 1_555 1_555
H13A C26A 1_555 1_555
C27A C26 1_555 1_555
H14A C27A 1_555 1_555
N1A C10A 1_555 1_555
N2A C5A 1_555 1_555
N3A C16A 1_555 1_555
N4A C15A 1_555 1_555
H15A N4A 1_555 1_555
O1A C1A 1_555 1_555
O1A_2 Zn1 1_555 1_555
O1_2 Zn1A 1_555 1_555
O2A C1A 1_555 1_555
O3A C24A 1_555 1_555
O3A_2 Zn1A 1_555 1_555
O4A C24A 1_555 1_555
O4A_2 Zn1A 1_555 1_555
Zn1A N1A 1_555 1_555
Zn1A_2 O1 1_555 1_555
Zn1_2 O1A 1_555 1_555
Zn1A_3 O3A 1_555 1_555
F1A C21A 1_555 1_555
C9 N2 1_555 1_555
C11 N1 1_555 1_555
C13 C14 1_555 1_555
C15 C16 1_555 1_555
C17 N3 1_555 1_555
C17 N4 1_555 1_555
C22 C23 1_555 1_555
N2 Zn1 1_555 1_555
O1 Zn1 1_555 1_555
O3 Zn1 1_555 1_555
O4 Zn1 1_555 1_555
C2A C4A 1_555 1_555
C9A N2A 1_555 1_555
C11A N1A 1_555 1_555
C13A C14A 1_555 1_555
C15A C16A 1_555 1_555
C17A N3A 1_555 1_555
C17A N4A 1_555 1_555
C22A C23A 1_555 1_555
C25A C27A 1_555 1_555
N2A Zn1A 1_555 1_555
O1A Zn1A 1_555 1_555
O1A_2 Zn1A_2 1_555 1_555
O1_2 Zn1_2 1_555 1_555
O4A Zn1A_3 1_555 1_555

#END
