
#######################################################################
#
#                 Cambridge Crystallographic Data Centre
#                                CCDC 
#
#######################################################################
#
# If this CIF has been generated from an entry in the Cambridge 
# Structural Database, then it will include bibliographic, chemical, 
# crystal, experimental, refinement or atomic coordinate data resulting 
# from the CCDC's data processing and validation procedures.
#
#######################################################################

data_LUZZEM
_symmetry_cell_setting           monoclinic
_symmetry_space_group_name_H-M   'C 2/c'
_symmetry_Int_Tables_number      15
_space_group_name_Hall           '-C 2yn'
loop_
_symmetry_equiv_pos_site_id
_symmetry_equiv_pos_as_xyz
1 x,y,z
2 -x,y,1/2-z
3 1/2+x,1/2+y,z
4 1/2-x,1/2+y,1/2-z
5 -x,-y,-z
6 x,-y,1/2+z
7 1/2-x,1/2-y,-z
8 1/2+x,1/2-y,1/2+z
_cell_length_a                   19.973(4)
_cell_length_b                   13.657(4)
_cell_length_c                   14.900(3)
_cell_angle_alpha                90
_cell_angle_beta                 119.312(6)
_cell_angle_gamma                90
_cell_volume                     3543.93
loop_
_atom_site_label
_atom_site_type_symbol
_atom_site_fract_x
_atom_site_fract_y
_atom_site_fract_z
N1 N 1.0374(3) 0.3070(5) 1.4219(5)
C1 C 0.9644(4) 0.2738(4) 1.3518(5)
C2 C 0.9063(4) 0.3405(7) 1.2949(6)
H1 H 0.8575 0.3183 1.2480
C3 C 0.9212(6) 0.4404(6) 1.3080(8)
H2 H 0.8824 0.4850 1.2699
C4 C 0.9943(7) 0.4736(4) 1.3780(9)
H3 H 1.0043 0.5405 1.3867
C5 C 1.0524(4) 0.4070(6) 1.4349(7)
H4 H 1.1012 0.4292 1.4818
Zn1 Zn 0.81205(7) 0.14231(10) 1.15413(10)
Zn2 Zn 1.12247(6) 0.17115(9) 1.50340(8)
N2 N 1.0202(4) 0.1153(5) 1.4092(5)
N3 N 0.9003(4) 0.1142(6) 1.2866(6)
O1 O 0.6356(4) 0.2921(5) 1.1392(5)
O2 O 0.7220(5) 0.1852(7) 1.1606(6)
O3 O 0.7773(4) -0.0220(6) 1.5715(5)
O4 O 0.8151(4) -0.0443(5) 1.4540(5)
O5 O 0.8242(4) 0.2258(6) 1.0645(5)
H5 H 0.8059 0.2898 1.0530
Br1 Br 0.56478(8) 0.25918(9) 1.43945(11)
C6 C 0.6821(5) 0.2281(7) 1.1901(6)
C7 C 0.6846(5) 0.1957(6) 1.2866(6)
C8 C 0.6343(5) 0.2401(6) 1.3147(7)
H6 H 0.6018 0.2907 1.2759
C9 C 0.6349(6) 0.2056(7) 1.4024(7)
C10 C 0.6824(5) 0.1293(6) 1.4611(7)
H7 H 0.6815 0.1074 1.5196
C11 C 0.7307(5) 0.0869(6) 1.4307(6)
C12 C 0.7335(5) 0.1210(6) 1.3459(6)
H8 H 0.7681 0.0941 1.3281
C13 C 0.7785(5) -0.0005(7) 1.4905(7)
C14 C 0.9972(6) 0.0217(7) 1.3882(8)
H9 H 1.0275 -0.0329 1.4201
C15 C 0.9229(6) 0.0196(8) 1.3130(9)
H10 H 0.8929 -0.0360 1.2848
C16 C 0.9607(5) 0.1695(6) 1.3484(6)
Zn1E Zn 0.81205(7) -0.14231(10) 1.65413(10)
Zn2G Zn 0.62247(6) 0.32885(9) 1.00340(8)
Zn2D Zn 0.87753(6) -0.17115(9) 1.49660(8)
Zn2A Zn 0.87753(6) 0.17115(9) 0.99660(8)
O1G O 1.1356(4) 0.2079(5) 1.6392(5)
O3E O 0.7773(4) 0.0220(6) 1.0715(5)
O4D O 1.1849(4) 0.0443(5) 1.5460(5)
O5A O 1.1758(4) 0.2258(6) 1.4355(5)
H5A H 1.1941 0.2898 1.4470
loop_
_geom_bond_atom_site_label_1
_geom_bond_atom_site_label_2
_geom_bond_site_symmetry_1
_geom_bond_site_symmetry_2
N1 C1 1_555 1_555
C1 C2 1_555 1_555
C2 H1 1_555 1_555
C3 C2 1_555 1_555
H2 C3 1_555 1_555
C4 C3 1_555 1_555
H3 C4 1_555 1_555
C5 N1 1_555 1_555
H4 C5 1_555 1_555
Zn1 N3 1_555 1_555
Zn2 N1 1_555 1_555
N2 Zn2 1_555 1_555
N3 C15 1_555 1_555
O1 C6 1_555 1_555
O2 Zn1 1_555 1_555
O3 C13 1_555 1_555
O4 C13 1_555 1_555
O5 Zn1 1_555 1_555
H5 O5 1_555 1_555
Br1 C9 1_555 1_555
C6 O2 1_555 1_555
C7 C6 1_555 1_555
C8 C7 1_555 1_555
H6 C8 1_555 1_555
C9 C8 1_555 1_555
C10 C9 1_555 1_555
H7 C10 1_555 1_555
C11 C10 1_555 1_555
C12 C7 1_555 1_555
H8 C12 1_555 1_555
C13 C11 1_555 1_555
C14 N2 1_555 1_555
H9 C14 1_555 1_555
C15 C14 1_555 1_555
H10 C15 1_555 1_555
C16 C1 1_555 1_555
Zn1E O3 1_555 1_555
Zn2G O1 1_555 1_555
Zn2D O4 1_555 1_555
Zn2A O5 1_555 1_555
O1G Zn2 1_555 1_555
O3E Zn1 1_555 1_555
O4D Zn2 1_555 1_555
O5A Zn2 1_555 1_555
H5A O5A 1_555 1_555
C4 C5 1_555 1_555
N2 C16 1_555 1_555
N3 C16 1_555 1_555
C11 C12 1_555 1_555

#END
