
#######################################################################
#
#                 Cambridge Crystallographic Data Centre
#                                CCDC 
#
#######################################################################
#
# If this CIF has been generated from an entry in the Cambridge 
# Structural Database, then it will include bibliographic, chemical, 
# crystal, experimental, refinement or atomic coordinate data resulting 
# from the CCDC's data processing and validation procedures.
#
#######################################################################

data_MABFOM
_symmetry_cell_setting           hexagonal
_symmetry_space_group_name_H-M   'P 63/m'
_symmetry_Int_Tables_number      176
_space_group_name_Hall           '-P 6c'
loop_
_symmetry_equiv_pos_site_id
_symmetry_equiv_pos_as_xyz
1 x,y,z
2 -y,x-y,z
3 -x+y,-x,z
4 -x,-y,1/2+z
5 y,-x+y,1/2+z
6 x-y,x,1/2+z
7 -x,-y,-z
8 y,-x+y,-z
9 x-y,x,-z
10 x,y,1/2-z
11 -y,x-y,1/2-z
12 -x+y,-x,1/2-z
_cell_length_a                   13.0752(3)
_cell_length_b                   13.0752(3)
_cell_length_c                   25.2402(9)
_cell_angle_alpha                90
_cell_angle_beta                 90
_cell_angle_gamma                120
_cell_volume                     3736.97
loop_
_atom_site_label
_atom_site_type_symbol
_atom_site_fract_x
_atom_site_fract_y
_atom_site_fract_z
Cu1 Cu -1.0000 -0.5000 0.5000
O1 O -1.1289(5) -0.3304(8) 0.6557(3)
O2 O -0.7370(3) -0.2334(4) 0.65459(14)
N1 N -0.9701(5) -0.4055(5) 0.56717(19)
N2 N -0.9318(4) -0.2781(4) 0.65985(17)
C1 C -0.8646(5) -0.3520(6) 0.5895(2)
H1 H -0.8010 -0.3573 0.5741
C2 C -0.8479(4) -0.2873(4) 0.63608(18)
C3 C -1.0356(6) -0.3340(8) 0.6360(3)
C4 C -1.0562(6) -0.3967(8) 0.5894(3)
H2 H -1.1322 -0.4333 0.5735
C5 C -0.7526(5) -0.2346(6) 0.7500
H3 H -0.8143 -0.3147 0.7500
C6 C -0.7063(4) -0.1744(4) 0.70356(18)
C7 C -0.6171(4) -0.0572(5) 0.7027(2)
H4 H -0.5867 -0.0173 0.6701
C8 C -0.5737(6) 0.0000(6) 0.7500
H5 H -0.5128 0.0804 0.7500
C9 C -1.1653(6) -0.1461(6) 0.7500
H6 H -1.1838 -0.0845 0.7500
C10 C -1.1522(4) -0.1898(6) 0.7035(2)
H7 H -1.1615 -0.1591 0.6708
C11 C -1.1258(5) -0.2775(6) 0.7038(2)
C12 C -1.1133(6) -0.3261(7) 0.7500
H8 H -1.0971 -0.3893 0.7500
N3 N -0.9823(14) -0.6560(11) 0.5530(5)
O3 O -1.0920(14) -0.6663(11) 0.5497(5)
O4 O -0.8994(8) -0.5650(6) 0.5281(3)
O5 O -0.9384(15) -0.7242(12) 0.5714(6)
Cu1C Cu -1.0000 -0.5000 1.0000
O1I O -1.1289(5) -0.3304(8) 0.8443(3)
O2I O -0.7370(3) -0.2334(4) 0.84541(14)
N1I N -0.9701(5) -0.4055(5) 0.93283(19)
N1F N -1.0299(5) -0.5945(5) 0.43283(19)
N2I N -0.9318(4) -0.2781(4) 0.84015(17)
C1I C -0.8646(5) -0.3520(6) 0.9105(2)
H1I H -0.8010 -0.3573 0.9259
C2I C -0.8479(4) -0.2873(4) 0.86392(18)
C3I C -1.0356(6) -0.3340(8) 0.8640(3)
C4I C -1.0562(6) -0.3967(8) 0.9106(3)
H2I H -1.1322 -0.4333 0.9265
C6I C -0.7063(4) -0.1744(4) 0.79644(18)
C7I C -0.6171(4) -0.0572(5) 0.7973(2)
H4I H -0.5867 -0.0173 0.8299
C10I C -1.1522(4) -0.1898(6) 0.7965(2)
H7I H -1.1615 -0.1591 0.8292
C11I C -1.1258(5) -0.2775(6) 0.7962(2)
N3F N -1.0177(14) -0.3440(11) 0.4470(5)
O3F O -0.9080(14) -0.3337(11) 0.4503(5)
O4F O -1.1006(8) -0.4350(6) 0.4719(3)
O5F O -1.0616(15) -0.2758(12) 0.4286(6)
O9 O -0.3333 0.3333 0.7500
O6? O -0.814(2) -0.462(2) 0.5056(8)
N4? N -0.6667 -0.3333 0.4793(16)
O7? O -0.7766(19) -0.3427(15) 0.4622(7)
O8? O -1.0000 -1.0000 0.4280(17)
O10? O -0.3333 0.3333 0.818(3)
loop_
_geom_bond_atom_site_label_1
_geom_bond_atom_site_label_2
_geom_bond_site_symmetry_1
_geom_bond_site_symmetry_2
Cu1 N1 1_555 1_555
O1 C3 1_555 1_555
O2 C2 1_555 1_555
N1 C1 1_555 1_555
N2 C2 1_555 1_555
C1 H1 1_555 1_555
C2 C1 1_555 1_555
C3 N2 1_555 1_555
C4 N1 1_555 1_555
H2 C4 1_555 1_555
C5 H3 1_555 1_555
C6 O2 1_555 1_555
C7 C6 1_555 1_555
H4 C7 1_555 1_555
C8 C7 1_555 1_555
H5 C8 1_555 1_555
C9 H6 1_555 1_555
C10 C9 1_555 1_555
H7 C10 1_555 1_555
C11 O1 1_555 1_555
C12 C11 1_555 1_555
H8 C12 1_555 1_555
N3 O3 1_555 1_555
O3 Cu1 1_555 1_555
O4 Cu1 1_555 1_555
O5 N3 1_555 1_555
Cu1C N1I 1_555 1_555
O1I C3I 1_555 1_555
O2I C2I 1_555 1_555
N1I C1I 1_555 1_555
N1F Cu1 1_555 1_555
N2I C2I 1_555 1_555
C1I H1I 1_555 1_555
C2I C1I 1_555 1_555
C3I N2I 1_555 1_555
C4I N1I 1_555 1_555
H2I C4I 1_555 1_555
C6I C5 1_555 1_555
C7I C8 1_555 1_555
H4I C7I 1_555 1_555
C10I C9 1_555 1_555
H7I C10I 1_555 1_555
C11I C12 1_555 1_555
N3F O3F 1_555 1_555
O3F Cu1 1_555 1_555
O4F Cu1 1_555 1_555
O5F N3F 1_555 1_555
C3 C4 1_555 1_555
C5 C6 1_555 1_555
C10 C11 1_555 1_555
N3 O4 1_555 1_555
O1I C11I 1_555 1_555
O2I C6I 1_555 1_555
C3I C4I 1_555 1_555
C6I C7I 1_555 1_555
C10I C11I 1_555 1_555
N3F O4F 1_555 1_555

#END
