
#######################################################################
#
#                 Cambridge Crystallographic Data Centre
#                                CCDC 
#
#######################################################################
#
# If this CIF has been generated from an entry in the Cambridge 
# Structural Database, then it will include bibliographic, chemical, 
# crystal, experimental, refinement or atomic coordinate data resulting 
# from the CCDC's data processing and validation procedures.
#
#######################################################################

data_MABKUX
_symmetry_cell_setting           monoclinic
_symmetry_space_group_name_H-M   'C c'
_symmetry_Int_Tables_number      9
_space_group_name_Hall           'C -2yc'
loop_
_symmetry_equiv_pos_site_id
_symmetry_equiv_pos_as_xyz
1 x,y,z
2 x,-y,1/2+z
3 1/2+x,1/2+y,z
4 1/2+x,1/2-y,1/2+z
_cell_length_a                   23.008(4)
_cell_length_b                   9.016(5)
_cell_length_c                   17.759(5)
_cell_angle_alpha                90
_cell_angle_beta                 113.552(15)
_cell_angle_gamma                90
_cell_volume                     3377.05
loop_
_atom_site_label
_atom_site_type_symbol
_atom_site_fract_x
_atom_site_fract_y
_atom_site_fract_z
Ni1 Ni 1.40572(2) 0.72597(5) 1.04010(3)
Ni2 Ni 1.65660(2) 1.02764(5) 1.06715(3)
N1 N 1.48354(14) 0.8646(3) 1.06132(18)
N2 N 1.23286(15) 0.5618(3) 1.03498(19)
N3 N 1.41339(16) 0.7590(4) 1.1595(2)
H1 H 1.4152 0.8575 1.1684
H2 H 1.3772 0.7265 1.1619
N4 N 1.67041(15) 0.7987(4) 1.0801(2)
H3 H 1.6418 0.7615 1.0978
H4 H 1.6616 0.7603 1.0299
N5 N 1.54564(15) 0.8536(4) 1.07831(19)
N6 N 1.29240(15) 0.6104(4) 1.0708(2)
N7 N 1.56694(16) 0.9881(3) 1.07353(19)
N8 N 1.31490(15) 0.6250(3) 1.01292(19)
N9 N 1.52004(15) 1.0898(3) 1.0539(2)
N10 N 1.27077(15) 0.5859(4) 0.9386(2)
N11 N 1.45504(16) 0.5223(4) 1.0653(2)
N12 N 1.70818(16) 1.0625(4) 1.1944(2)
N13 N 1.14468(16) 0.4710(4) 0.8199(2)
N14 N 1.36220(15) 0.9459(4) 1.0122(2)
N15 N 1.11552(15) 0.4930(4) 0.9339(2)
N16 N 1.38549(17) 0.7119(4) 0.9147(2)
H5 H 1.3483 0.6636 0.8909
H6 H 1.3790 0.8050 0.8947
N17 N 1.62932(17) 1.2489(4) 1.0397(2)
H7 H 1.6297 1.2683 0.9902
H8 H 1.5887 1.2559 1.0340
N18 N 1.38912(16) 1.2010(4) 1.0071(2)
C1 C 1.4668(2) 0.6908(5) 1.2292(2)
H9 H 1.4605 0.7055 1.2795
H10 H 1.5061 0.7391 1.2354
C2 C 1.73384(19) 0.7446(5) 1.1358(2)
H11 H 1.7654 0.7786 1.1164
H12 H 1.7342 0.6370 1.1360
C3 C 1.4716(2) 0.5262(5) 1.2151(2)
H13 H 1.4296 0.4825 1.1969
H14 H 1.4980 0.4799 1.2668
C4 C 1.7502(2) 0.8014(5) 1.2224(2)
H15 H 1.7149 0.7808 1.2375
H16 H 1.7866 0.7469 1.2598
C5 C 1.4991(2) 0.4931(5) 1.1520(3)
H17 H 1.5369 0.5526 1.1647
H18 H 1.5117 0.3896 1.1570
C6 C 1.7649(2) 0.9656(5) 1.2332(3)
H19 H 1.7845 0.9878 1.2915
H20 H 1.7953 0.9891 1.2098
C7 C 1.46923(18) 1.0103(4) 1.0466(2)
C8 C 1.22109(17) 0.5481(4) 0.9546(2)
C9 C 1.40331(19) 1.0589(4) 1.0214(2)
C10 C 1.15696(18) 0.5005(4) 0.8978(2)
C11 C 1.4901(2) 0.4876(5) 1.0128(3)
H21 H 1.5093 0.3903 1.0277
H22 H 1.5241 0.5591 1.0244
C12 C 1.7286(2) 1.2164(4) 1.2219(3)
H23 H 1.7647 1.2403 1.2091
H24 H 1.7426 1.2206 1.2812
C13 C 1.4498(2) 0.4893(5) 0.9214(3)
H25 H 1.4732 0.4412 0.8933
H26 H 1.4119 0.4312 0.9109
C14 C 1.6777(2) 1.3344(5) 1.1838(3)
H27 H 1.6387 1.3010 1.1870
H28 H 1.6908 1.4247 1.2158
C15 C 1.3007(2) 0.9813(5) 0.9842(3)
H29 H 1.2709 0.9072 0.9772
C16 C 1.0555(2) 0.4565(5) 0.8851(3)
H30 H 1.0251 0.4530 0.9073
C17 C 1.4304(2) 0.6412(5) 0.8852(2)
H31 H 1.4678 0.7030 0.8998
H32 H 1.4109 0.6336 0.8258
C18 C 1.6648(2) 1.3688(4) 1.0955(3)
H33 H 1.6406 1.4602 1.0796
H34 H 1.7047 1.3839 1.0902
C19 C 1.2809(2) 1.1259(5) 0.9655(3)
H35 H 1.2381 1.1510 0.9449
C20 C 1.0380(2) 0.4243(5) 0.8034(2)
H36 H 0.9965 0.3985 0.7699
C21 C 1.3268(2) 1.2313(5) 0.9787(3)
H37 H 1.3142 1.3297 0.9672
C22 C 1.0844(2) 0.4317(5) 0.7734(3)
H38 H 1.0738 0.4086 0.7184
H39 H 1.4261(18) 0.447(4) 1.054(2)
H40 H 1.682(2) 1.038(5) 1.216(3)
Ni2B Ni 1.15660(2) 0.52764(5) 1.06715(3)
N2B N 1.73286(15) 1.0618(3) 1.03498(19)
N15B N 1.61552(15) 0.9930(4) 0.9339(2)
S1 S 1.13890(5) -0.13653(12) 0.85346(7)
N19 N 1.1129(2) 0.1269(5) 0.9178(3)
C23 C 1.1232(2) 0.0183(5) 0.8911(3)
S2 S 1.37586(6) 1.04920(14) 0.82005(8)
N20 N 1.37923(19) 0.8856(5) 0.6866(2)
C24 C 1.3759(2) 0.9522(6) 0.7414(3)
loop_
_geom_bond_atom_site_label_1
_geom_bond_atom_site_label_2
_geom_bond_site_symmetry_1
_geom_bond_site_symmetry_2
Ni1 N1 1_555 1_555
Ni2 N4 1_555 1_555
N1 N5 1_555 1_555
N2 N6 1_555 1_555
N3 Ni1 1_555 1_555
H1 N3 1_555 1_555
H2 N3 1_555 1_555
N4 H3 1_555 1_555
H4 N4 1_555 1_555
N5 N7 1_555 1_555
N6 N8 1_555 1_555
N7 Ni2 1_555 1_555
N8 Ni1 1_555 1_555
N9 N7 1_555 1_555
N10 N8 1_555 1_555
N11 Ni1 1_555 1_555
N12 Ni2 1_555 1_555
N13 C10 1_555 1_555
N14 Ni1 1_555 1_555
N15 C10 1_555 1_555
N16 Ni1 1_555 1_555
H5 N16 1_555 1_555
H6 N16 1_555 1_555
N17 Ni2 1_555 1_555
H7 N17 1_555 1_555
H8 N17 1_555 1_555
N18 C9 1_555 1_555
C1 N3 1_555 1_555
H9 C1 1_555 1_555
H10 C1 1_555 1_555
C2 N4 1_555 1_555
H11 C2 1_555 1_555
H12 C2 1_555 1_555
C3 C1 1_555 1_555
H13 C3 1_555 1_555
H14 C3 1_555 1_555
C4 C2 1_555 1_555
H15 C4 1_555 1_555
H16 C4 1_555 1_555
C5 N11 1_555 1_555
H17 C5 1_555 1_555
H18 C5 1_555 1_555
C6 N12 1_555 1_555
H19 C6 1_555 1_555
H20 C6 1_555 1_555
C7 N1 1_555 1_555
C8 N2 1_555 1_555
C9 N14 1_555 1_555
C10 C8 1_555 1_555
C11 N11 1_555 1_555
H21 C11 1_555 1_555
H22 C11 1_555 1_555
C12 N12 1_555 1_555
H23 C12 1_555 1_555
H24 C12 1_555 1_555
C13 C11 1_555 1_555
H25 C13 1_555 1_555
H26 C13 1_555 1_555
C14 C12 1_555 1_555
H27 C14 1_555 1_555
H28 C14 1_555 1_555
C15 N14 1_555 1_555
H29 C15 1_555 1_555
C16 N15 1_555 1_555
H30 C16 1_555 1_555
C17 N16 1_555 1_555
H31 C17 1_555 1_555
H32 C17 1_555 1_555
C18 N17 1_555 1_555
H33 C18 1_555 1_555
H34 C18 1_555 1_555
C19 C15 1_555 1_555
H35 C19 1_555 1_555
C20 C16 1_555 1_555
H36 C20 1_555 1_555
C21 N18 1_555 1_555
H37 C21 1_555 1_555
C22 N13 1_555 1_555
H38 C22 1_555 1_555
S1 C23 1_555 1_555
N19 C23 1_555 1_555
S2 C24 1_555 1_555
N20 C24 1_555 1_555
H39 N11 1_555 1_555
H40 N12 1_555 1_555
Ni2B N2 1_555 1_555
N2B Ni2 1_555 1_555
N15B Ni2 1_555 1_555
N9 C7 1_555 1_555
N10 C8 1_555 1_555
N15 Ni2B 1_555 1_555
C3 C5 1_555 1_555
C4 C6 1_555 1_555
C7 C9 1_555 1_555
C13 C17 1_555 1_555
C14 C18 1_555 1_555
C19 C21 1_555 1_555
C20 C22 1_555 1_555

#END
