
#######################################################################
#
#                 Cambridge Crystallographic Data Centre
#                                CCDC 
#
#######################################################################
#
# If this CIF has been generated from an entry in the Cambridge 
# Structural Database, then it will include bibliographic, chemical, 
# crystal, experimental, refinement or atomic coordinate data resulting 
# from the CCDC's data processing and validation procedures.
#
#######################################################################

data_MABNEJ01
_symmetry_cell_setting           monoclinic
_symmetry_space_group_name_H-M   'P 21/n'
_symmetry_Int_Tables_number      14
_space_group_name_Hall           '-P 2yn'
loop_
_symmetry_equiv_pos_site_id
_symmetry_equiv_pos_as_xyz
1 x,y,z
2 1/2+x,1/2-y,1/2+z
3 -x,-y,-z
4 1/2-x,1/2+y,1/2-z
_cell_length_a                   6.9461(12)
_cell_length_b                   14.269(3)
_cell_length_c                   7.4320(10)
_cell_angle_alpha                90
_cell_angle_beta                 92.232(16)
_cell_angle_gamma                90
_cell_volume                     736.056
loop_
_atom_site_label
_atom_site_type_symbol
_atom_site_fract_x
_atom_site_fract_y
_atom_site_fract_z
Zn1 Zn 0.16201(8) 0.30863(4) 0.41903(7)
C1 C 0.4175(7) 0.1605(4) 0.5881(6)
C2 C 0.3842(8) 0.1086(3) 0.4090(5)
H1 H 0.4712 0.0555 0.4068
H2 H 0.2537 0.0843 0.4035
C3 C 0.4131(7) 0.1676(3) 0.2437(6)
O1 O 0.3285(5) 0.2361(2) 0.6092(4)
O2 O 0.3356(5) 0.2478(2) 0.2299(4)
O3 O 0.5257(5) 0.1225(2) 0.7055(4)
O4 O 0.5140(5) 0.1321(2) 0.1258(4)
C4 C 0.5469(8) 0.4249(4) 0.4092(7)
C5 C 0.6768(8) 0.4960(4) 0.4452(7)
N1 N 0.3672(6) 0.4279(3) 0.4628(5)
O5 O -0.0330(6) 0.1893(3) 0.4130(6)
H3 H 0.821(8) 0.491(4) 0.411(6)
H4 H 0.587(7) 0.375(4) 0.350(5)
H5 H -0.087(7) 0.195(4) 0.493(7)
H6 H -0.108(8) 0.203(4) 0.325(8)
N1B N 0.6328(6) 0.5721(3) 0.5372(5)
C4B C 0.4531(8) 0.5751(4) 0.5908(7)
C5B C 0.3232(8) 0.5040(4) 0.5548(7)
H3B H 0.179(8) 0.509(4) 0.589(6)
H4B H 0.413(7) 0.625(4) 0.650(5)
C1A C -0.0825(7) 0.3395(4) 0.0881(6)
C2A C -0.1158(8) 0.3914(3) -0.0910(5)
H1A H -0.0288 0.4445 -0.0932
H2A H -0.2463 0.4157 -0.0965
C3A C -0.0869(7) 0.3324(3) -0.2563(6)
O1A O -0.1715(5) 0.2639(2) 0.1092(4)
O2A O -0.1644(5) 0.2522(2) -0.2701(4)
O3A O 0.0257(5) 0.3775(2) 0.2055(4)
O4A O 0.0140(5) 0.3679(2) -0.3742(4)
Zn1A Zn -0.33799(8) 0.19137(4) -0.08097(7)
O5A O -0.5330(6) 0.3107(3) -0.0870(6)
H5A H -0.587(7) 0.305(4) -0.007(7)
H6A H -0.608(8) 0.297(4) -0.175(8)
O4A_2 O 0.0140(5) 0.3679(2) 0.6258(4)
Zn1A_2 Zn 0.66201(8) 0.19137(4) 0.91903(7)
Zn1A_3 Zn 0.66201(8) 0.19137(4) -0.08097(7)
Zn1B Zn 0.83799(8) 0.69137(4) 0.58097(7)
Zn1_2 Zn 0.16201(8) 0.30863(4) -0.58097(7)
O3_2 O -0.4743(5) 0.1225(2) -0.2945(4)
O4_2 O -0.4860(5) 0.1321(2) 0.1258(4)
N1A N -0.1328(6) 0.0721(3) -0.0372(5)
loop_
_geom_bond_atom_site_label_1
_geom_bond_atom_site_label_2
_geom_bond_site_symmetry_1
_geom_bond_site_symmetry_2
Zn1 O1 1_555 1_555
C1 C2 1_555 1_555
C2 H1 1_555 1_555
H2 C2 1_555 1_555
C3 C2 1_555 1_555
O1 C1 1_555 1_555
O2 Zn1 1_555 1_555
O3 C1 1_555 1_555
O4 C3 1_555 1_555
C4 C5 1_555 1_555
C5 H3 1_555 1_555
N1 Zn1 1_555 1_555
O5 Zn1 1_555 1_555
H4 C4 1_555 1_555
H5 O5 1_555 1_555
H6 O5 1_555 1_555
N1B C5 1_555 1_555
C4B N1B 1_555 1_555
C5B N1 1_555 1_555
H3B C5B 1_555 1_555
H4B C4B 1_555 1_555
C1A C2A 1_555 1_555
C2A H1A 1_555 1_555
H2A C2A 1_555 1_555
C3A C2A 1_555 1_555
O1A C1A 1_555 1_555
O2A C3A 1_555 1_555
O3A Zn1 1_555 1_555
O4A C3A 1_555 1_555
Zn1A O1A 1_555 1_555
O5A Zn1A 1_555 1_555
H5A O5A 1_555 1_555
H6A O5A 1_555 1_555
O4A_2 Zn1 1_555 1_555
Zn1A_2 O3 1_555 1_555
Zn1A_3 O4 1_555 1_555
Zn1B N1B 1_555 1_555
Zn1_2 O4A 1_555 1_555
O3_2 Zn1A 1_555 1_555
O4_2 Zn1A 1_555 1_555
N1A Zn1A 1_555 1_555
C3 O2 1_555 1_555
C4 N1 1_555 1_555
C4B C5B 1_555 1_555
C1A O3A 1_555 1_555
O2A Zn1A 1_555 1_555

#END
