
#######################################################################
#
#                 Cambridge Crystallographic Data Centre
#                                CCDC 
#
#######################################################################
#
# If this CIF has been generated from an entry in the Cambridge 
# Structural Database, then it will include bibliographic, chemical, 
# crystal, experimental, refinement or atomic coordinate data resulting 
# from the CCDC's data processing and validation procedures.
#
#######################################################################

data_MABNEJ
_symmetry_cell_setting           monoclinic
_symmetry_space_group_name_H-M   'P 21/n'
_symmetry_Int_Tables_number      14
_space_group_name_Hall           '-P 2yn'
loop_
_symmetry_equiv_pos_site_id
_symmetry_equiv_pos_as_xyz
1 x,y,z
2 1/2+x,1/2-y,1/2+z
3 -x,-y,-z
4 1/2-x,1/2+y,1/2-z
_cell_length_a                   6.9659(5)
_cell_length_b                   14.3405(9)
_cell_length_c                   7.4477(5)
_cell_angle_alpha                90
_cell_angle_beta                 92.179(2)
_cell_angle_gamma                90
_cell_volume                     743.446
loop_
_atom_site_label
_atom_site_type_symbol
_atom_site_fract_x
_atom_site_fract_y
_atom_site_fract_z
Zn1 Zn 0.66240(5) 0.69130(3) -0.08099(5)
C1 C 0.9151(5) 0.8321(3) -0.2562(5)
C2 C 0.8876(6) 0.8914(3) -0.0892(5)
H1 H 0.7585 0.9168 -0.0951
H2 H 0.9764 0.9434 -0.0910
C3 C 0.9173(5) 0.8406(3) 0.0873(5)
C4 C 1.0481(5) 0.5745(3) -0.0900(6)
H3 H 1.0872 0.6262 -0.1545
C5 C 1.1783(5) 0.5050(3) -0.0537(6)
H4 H 1.3026 0.5113 -0.0936
N1 N 0.8673(4) 0.5714(2) -0.0369(4)
O1 O 0.8372(4) 0.75242(18) -0.2692(3)
O2 O 0.4672(4) 0.81023(18) -0.0864(4)
O3 O 0.8298(4) 0.7640(2) 0.1096(3)
O4 O 1.0143(3) 0.86747(18) -0.3743(3)
O5 O 1.0260(3) 0.87765(19) 0.2050(3)
N1B N 1.1327(4) 0.4286(2) 0.0369(4)
C4B C 0.9519(5) 0.4255(3) 0.0900(6)
H3B H 0.9128 0.3738 0.1545
C5B C 0.8217(5) 0.4950(3) 0.0537(6)
H4B H 0.6974 0.4887 0.0936
C1A C 0.4151(5) 0.6679(3) 0.2438(5)
C2A C 0.3876(6) 0.6086(3) 0.4108(5)
H1A H 0.2585 0.5832 0.4049
H2A H 0.4764 0.5566 0.4090
C3A C 0.4173(5) 0.6594(3) 0.5873(5)
O1A O 0.3372(4) 0.74758(18) 0.2308(3)
O3A O 0.3298(4) 0.7360(2) 0.6096(3)
O4A O 0.5143(3) 0.63253(18) 0.1257(3)
O5A O 0.5260(3) 0.62235(19) 0.7050(3)
Zn1B Zn 1.33760(5) 0.30870(3) 0.08099(5)
O2B O 1.5328(4) 0.18977(18) 0.0864(4)
O5A_2 O 0.5260(3) 0.62235(19) -0.2950(3)
Zn1A Zn 1.16240(5) 0.80870(3) -0.58099(5)
Zn1A_2 Zn 1.16240(5) 0.80870(3) 0.41901(5)
Zn1A_3 Zn 0.16240(5) 0.80870(3) 0.41901(5)
Zn1_2 Zn 0.66240(5) 0.69130(3) 0.91901(5)
O1B O 1.1628(4) 0.24758(18) 0.2692(3)
O3B O 1.1702(4) 0.2360(2) -0.1096(3)
O4C O 1.4857(3) 0.36747(18) -0.1257(3)
O5C O 1.4740(3) 0.37765(19) 0.2950(3)
loop_
_geom_bond_atom_site_label_1
_geom_bond_atom_site_label_2
_geom_bond_site_symmetry_1
_geom_bond_site_symmetry_2
Zn1 N1 1_555 1_555
C1 C2 1_555 1_555
C2 H1 1_555 1_555
H2 C2 1_555 1_555
C3 C2 1_555 1_555
C4 H3 1_555 1_555
C5 C4 1_555 1_555
H4 C5 1_555 1_555
N1 C4 1_555 1_555
O1 Zn1 1_555 1_555
O2 Zn1 1_555 1_555
O3 Zn1 1_555 1_555
O4 C1 1_555 1_555
O5 C3 1_555 1_555
N1B C5 1_555 1_555
C4B N1B 1_555 1_555
H3B C4B 1_555 1_555
C5B N1 1_555 1_555
H4B C5B 1_555 1_555
C1A C2A 1_555 1_555
C2A H1A 1_555 1_555
H2A C2A 1_555 1_555
C3A C2A 1_555 1_555
O1A C1A 1_555 1_555
O3A C3A 1_555 1_555
O4A Zn1 1_555 1_555
O5A C3A 1_555 1_555
Zn1B N1B 1_555 1_555
O2B Zn1B 1_555 1_555
O5A_2 Zn1 1_555 1_555
Zn1A O4 1_555 1_555
Zn1A_2 O5 1_555 1_555
Zn1A_3 O1A 1_555 1_555
Zn1_2 O5A 1_555 1_555
O1B Zn1B 1_555 1_555
O3B Zn1B 1_555 1_555
O4C Zn1B 1_555 1_555
O5C Zn1B 1_555 1_555
C1 O1 1_555 1_555
C3 O3 1_555 1_555
C4B C5B 1_555 1_555
C1A O4A 1_555 1_555
O3A Zn1A_3 1_555 1_555

#END
