
#######################################################################
#
#                 Cambridge Crystallographic Data Centre
#                                CCDC 
#
#######################################################################
#
# If this CIF has been generated from an entry in the Cambridge 
# Structural Database, then it will include bibliographic, chemical, 
# crystal, experimental, refinement or atomic coordinate data resulting 
# from the CCDC's data processing and validation procedures.
#
#######################################################################

data_MABRIS
_symmetry_cell_setting           triclinic
_symmetry_space_group_name_H-M   'P -1'
_symmetry_Int_Tables_number      2
_space_group_name_Hall           '-P 1'
loop_
_symmetry_equiv_pos_site_id
_symmetry_equiv_pos_as_xyz
1 x,y,z
2 -x,-y,-z
_cell_length_a                   6.943(5)
_cell_length_b                   7.647(5)
_cell_length_c                   16.577(5)
_cell_angle_alpha                85.734(5)
_cell_angle_beta                 79.057(5)
_cell_angle_gamma                80.245(5)
_cell_volume                     850.816
loop_
_atom_site_label
_atom_site_type_symbol
_atom_site_fract_x
_atom_site_fract_y
_atom_site_fract_z
Li1 Li 1.4745(5) 0.3229(4) 0.3909(2)
Li2 Li 0.7710(4) 0.7248(4) 0.40754(17)
B1 B 1.4626(2) 0.6982(2) 0.31399(10)
B2 B 0.8044(2) 0.1110(2) 0.41905(9)
O1 O 0.96448(17) 0.62359(17) 0.31512(8)
O2 O 1.24528(15) 0.68646(15) 0.34017(6)
O3 O 1.50532(17) 0.76640(16) 0.22875(6)
O4 O 1.00323(15) 0.17724(15) 0.40896(6)
O5 O 1.29576(17) 0.22070(18) 0.33957(8)
O6 O 0.73911(14) 0.11951(15) 0.33915(6)
O7 O 0.66022(16) 0.23572(14) 0.46903(6)
H1 H 0.6103 0.2049 0.5211
O8 O 1.56714(17) 0.52036(14) 0.32599(7)
H2 H 1.6931 0.5169 0.3038
O9 O 1.51743(16) 0.81519(14) 0.36760(6)
H3 H 1.5115 0.9277 0.3491
O10 O 0.82411(17) -0.06877(14) 0.45066(7)
H4 H 0.8607 -0.0827 0.5019
O11 O 1.2379(2) 0.44880(16) 0.49498(7)
C1 C 1.2190(2) 0.6630(2) 0.20062(9)
C2 C 1.4031(2) 0.7200(2) 0.17491(9)
C3 C 1.4799(3) 0.7356(3) 0.09085(11)
H5 H 1.6019 0.7736 0.0731
C4 C 1.3739(4) 0.6944(3) 0.03448(11)
H6 H 1.4257 0.7046 -0.0214
C5 C 1.1920(4) 0.6381(3) 0.05933(12)
H7 H 1.1223 0.6106 0.0205
C6 C 1.1146(3) 0.6230(3) 0.14208(11)
H8 H 0.9918 0.5859 0.1590
C7 C 1.1342(2) 0.65476(19) 0.28860(9)
C8 C 1.0619(2) 0.15498(19) 0.26405(8)
C9 C 0.8687(2) 0.12075(18) 0.26761(8)
C10 C 0.8061(3) 0.0891(2) 0.19551(10)
H9 H 0.6782 0.0654 0.1975
C11 C 0.9355(3) 0.0933(3) 0.12143(10)
H10 H 0.8945 0.0703 0.0736
C12 C 1.1256(3) 0.1311(3) 0.11707(11)
H11 H 1.2100 0.1361 0.0664
C13 C 1.1894(3) 0.1613(2) 0.18781(10)
H12 H 1.3172 0.1859 0.1850
C14 C 1.1292(2) 0.18638(18) 0.33949(9)
Li1_2 Li 0.4745(5) 0.3229(4) 0.3909(2)
Li2_2 Li 1.7710(4) 0.7248(4) 0.40754(17)
Li2_3 Li 0.7710(4) -0.2752(4) 0.40754(17)
Li2A Li 1.2290(4) 0.2752(4) 0.59246(17)
O6_2 O 1.73911(14) 0.11951(15) 0.33915(6)
O7_2 O 1.66022(16) 0.23572(14) 0.46903(6)
H1_2 H 1.6103 0.2049 0.5211
O9_2 O 0.51743(16) 0.81519(14) 0.36760(6)
H3_2 H 0.5115 0.9277 0.3491
O10_2 O 0.82411(17) 0.93123(14) 0.45066(7)
H4_2 H 0.8607 0.9173 0.5019
O11A O 0.7621(2) 0.55120(16) 0.50502(7)
loop_
_geom_bond_atom_site_label_1
_geom_bond_atom_site_label_2
_geom_bond_site_symmetry_1
_geom_bond_site_symmetry_2
Li1 O5 1_555 1_555
Li2 O1 1_555 1_555
B1 O2 1_555 1_555
B2 O4 1_555 1_555
O1 C7 1_555 1_555
O2 C7 1_555 1_555
O3 B1 1_555 1_555
O4 C14 1_555 1_555
O5 C14 1_555 1_555
O6 B2 1_555 1_555
O7 B2 1_555 1_555
H1 O7 1_555 1_555
O8 Li1 1_555 1_555
H2 O8 1_555 1_555
O9 B1 1_555 1_555
H3 O9 1_555 1_555
O10 B2 1_555 1_555
H4 O10 1_555 1_555
O11 Li1 1_555 1_555
C1 C2 1_555 1_555
C2 O3 1_555 1_555
C3 C2 1_555 1_555
H5 C3 1_555 1_555
C4 C3 1_555 1_555
H6 C4 1_555 1_555
C5 C4 1_555 1_555
H7 C5 1_555 1_555
C6 C1 1_555 1_555
H8 C6 1_555 1_555
C7 C1 1_555 1_555
C8 C9 1_555 1_555
C9 O6 1_555 1_555
C10 C9 1_555 1_555
H9 C10 1_555 1_555
C11 C10 1_555 1_555
H10 C11 1_555 1_555
C12 C11 1_555 1_555
H11 C12 1_555 1_555
C13 C8 1_555 1_555
H12 C13 1_555 1_555
C14 C8 1_555 1_555
Li1_2 O6 1_555 1_555
Li2_2 O9 1_555 1_555
Li2_3 O10 1_555 1_555
Li2A O11 1_555 1_555
O6_2 Li1 1_555 1_555
O7_2 Li1 1_555 1_555
H1_2 O7_2 1_555 1_555
O9_2 Li2 1_555 1_555
H3_2 O9_2 1_555 1_555
O10_2 Li2 1_555 1_555
H4_2 O10_2 1_555 1_555
O11A Li2 1_555 1_555
B1 O8 1_555 1_555
O7 Li1_2 1_555 1_555
C5 C6 1_555 1_555
C12 C13 1_555 1_555

#END
