
#######################################################################
#
#                 Cambridge Crystallographic Data Centre
#                                CCDC 
#
#######################################################################
#
# If this CIF has been generated from an entry in the Cambridge 
# Structural Database, then it will include bibliographic, chemical, 
# crystal, experimental, refinement or atomic coordinate data resulting 
# from the CCDC's data processing and validation procedures.
#
#######################################################################

data_MABSUF
_symmetry_cell_setting           triclinic
_symmetry_space_group_name_H-M   'P -1'
_symmetry_Int_Tables_number      2
_space_group_name_Hall           '-P 1'
loop_
_symmetry_equiv_pos_site_id
_symmetry_equiv_pos_as_xyz
1 x,y,z
2 -x,-y,-z
_cell_length_a                   7.7219(15)
_cell_length_b                   9.1715(18)
_cell_length_c                   9.4443(19)
_cell_angle_alpha                72.53(3)
_cell_angle_beta                 70.67(3)
_cell_angle_gamma                81.86(3)
_cell_volume                     601.378
loop_
_atom_site_label
_atom_site_type_symbol
_atom_site_fract_x
_atom_site_fract_y
_atom_site_fract_z
C1 C 1.2421(6) 0.4350(4) 0.5596(5)
H1 H 1.3505 0.4776 0.4888
C2 C 1.1003(6) 0.5303(5) 0.6229(5)
H2 H 1.1126 0.6355 0.5935
C3 C 0.9408(6) 0.4665(5) 0.7302(5)
H3 H 0.8451 0.5285 0.7747
C4 C 0.9239(5) 0.3090(4) 0.7714(4)
C5 C 1.0703(5) 0.2234(4) 0.7007(4)
H4 H 1.0601 0.1183 0.7256
C6 C 0.7588(5) 0.2324(4) 0.8950(4)
C7 C 0.8879(7) 0.2337(7) 1.1105(5)
H5 H 0.9474 0.3274 1.0848
H6 H 0.9746 0.1599 1.0684
H7 H 0.8414 0.1949 1.2218
C8 C 0.5630(6) 0.2846(5) 1.1272(5)
C9 C 0.4419(6) 0.2809(6) 1.0337(5)
H8 H 0.3516 0.3660 1.0344
H9 H 0.3783 0.1860 1.0747
C10 C 0.5712(5) 0.2931(5) 0.8700(4)
C11 C 0.5121(5) 0.2060(4) 0.7797(5)
Cu1 Cu 1.45386(6) 0.14905(5) 0.54476(5)
H10 H 0.591(6) 0.393(5) 0.809(5)
H11 H 0.774(6) 0.128(5) 0.917(5)
N1 N 1.3320(5) -0.0002(4) 0.4985(4)
N2 N 1.2317(5) 0.0391(4) 0.4171(4)
N3 N 1.1347(6) 0.0756(6) 0.3440(5)
N4 N 1.2268(4) 0.2844(4) 0.5975(4)
N5 N 0.7375(5) 0.2623(4) 1.0450(4)
O1 O 0.5763(4) 0.2550(3) 0.6320(3)
O2 O 0.4085(5) 0.0995(4) 0.8472(4)
O3 O 0.5128(5) 0.3022(4) 1.2611(3)
Cu1A Cu 1.54614(6) -0.14905(5) 0.45524(5)
Cu1_2 Cu 0.45386(6) 0.14905(5) 0.54476(5)
N1A N 1.6680(5) 0.0002(4) 0.5015(4)
O1_2 O 1.5763(4) 0.2550(3) 0.6320(3)
loop_
_geom_bond_atom_site_label_1
_geom_bond_atom_site_label_2
_geom_bond_site_symmetry_1
_geom_bond_site_symmetry_2
C1 H1 1_555 1_555
C2 C1 1_555 1_555
H2 C2 1_555 1_555
C3 C2 1_555 1_555
H3 C3 1_555 1_555
C4 C3 1_555 1_555
C5 C4 1_555 1_555
H4 C5 1_555 1_555
C6 C4 1_555 1_555
C7 H5 1_555 1_555
H6 C7 1_555 1_555
H7 C7 1_555 1_555
C8 C9 1_555 1_555
C9 H8 1_555 1_555
H9 C9 1_555 1_555
C10 C6 1_555 1_555
C11 C10 1_555 1_555
Cu1 N1 1_555 1_555
H10 C10 1_555 1_555
H11 C6 1_555 1_555
N1 N2 1_555 1_555
N2 N3 1_555 1_555
N4 C1 1_555 1_555
N5 C6 1_555 1_555
O1 C11 1_555 1_555
O2 C11 1_555 1_555
O3 C8 1_555 1_555
Cu1A N1 1_555 1_555
Cu1_2 O1 1_555 1_555
N1A Cu1 1_555 1_555
O1_2 Cu1 1_555 1_555
C5 N4 1_555 1_555
C7 N5 1_555 1_555
C8 N5 1_555 1_555
C9 C10 1_555 1_555
Cu1 N4 1_555 1_555
Cu1A N1A 1_555 1_555

#END
