
#######################################################################
#
#                 Cambridge Crystallographic Data Centre
#                                CCDC 
#
#######################################################################
#
# If this CIF has been generated from an entry in the Cambridge 
# Structural Database, then it will include bibliographic, chemical, 
# crystal, experimental, refinement or atomic coordinate data resulting 
# from the CCDC's data processing and validation procedures.
#
#######################################################################

data_MABSIS
_symmetry_cell_setting           monoclinic
_symmetry_space_group_name_H-M   'P 21/c'
_symmetry_Int_Tables_number      14
_space_group_name_Hall           '-P 2ybc'
loop_
_symmetry_equiv_pos_site_id
_symmetry_equiv_pos_as_xyz
1 x,y,z
2 x,1/2-y,1/2+z
3 -x,-y,-z
4 -x,1/2+y,1/2-z
_cell_length_a                   8.1546(5)
_cell_length_b                   11.9203(8)
_cell_length_c                   7.1098(4)
_cell_angle_alpha                90.00
_cell_angle_beta                 99.737(2)
_cell_angle_gamma                90.00
_cell_volume                     681.154
loop_
_atom_site_label
_atom_site_type_symbol
_atom_site_fract_x
_atom_site_fract_y
_atom_site_fract_z
Cu1 Cu -0.23629(6) -0.26325(4) 0.30971(7)
Cl1 Cl -0.03348(13) -0.19275(9) 0.53754(14)
Cl2 Cl -0.45428(13) -0.32575(9) 0.09454(15)
S1 S -0.28562(17) 0.09606(9) 0.11047(17)
N1 N -0.2605(4) -0.1130(3) 0.1661(5)
N2 N -0.2354(4) -0.0972(3) -0.0198(5)
C1 C -0.2410(5) 0.0094(4) -0.0658(6)
C2 C -0.2905(6) -0.0195(4) 0.2483(6)
H1 H -0.3128 -0.0163 0.3723
C3 C -0.2070(6) 0.0556(4) -0.2495(6)
H2 H -0.1844 -0.0048 -0.3307
H3 H -0.1124 0.1047 -0.2255
H4 H -0.3023 0.0969 -0.3110
N2A N -0.2354(4) -0.4028(3) 0.4802(5)
Cu1A Cu -0.23629(6) -0.23675(4) -0.19029(7)
loop_
_geom_bond_atom_site_label_1
_geom_bond_atom_site_label_2
_geom_bond_site_symmetry_1
_geom_bond_site_symmetry_2
Cu1 Cl1 1_555 1_555
Cl2 Cu1 1_555 1_555
S1 C1 1_555 1_555
N1 Cu1 1_555 1_555
N2 N1 1_555 1_555
C1 N2 1_555 1_555
C2 S1 1_555 1_555
H1 C2 1_555 1_555
C3 C1 1_555 1_555
H2 C3 1_555 1_555
H3 C3 1_555 1_555
H4 C3 1_555 1_555
N2A Cu1 1_555 1_555
Cu1A N2 1_555 1_555
N1 C2 1_555 1_555

#END
