
#######################################################################
#
#                 Cambridge Crystallographic Data Centre
#                                CCDC 
#
#######################################################################
#
# If this CIF has been generated from an entry in the Cambridge 
# Structural Database, then it will include bibliographic, chemical, 
# crystal, experimental, refinement or atomic coordinate data resulting 
# from the CCDC's data processing and validation procedures.
#
#######################################################################

data_MACBID
_symmetry_cell_setting           monoclinic
_symmetry_space_group_name_H-M   'P 21/c'
_symmetry_Int_Tables_number      14
_space_group_name_Hall           '-P 2ybc'
loop_
_symmetry_equiv_pos_site_id
_symmetry_equiv_pos_as_xyz
1 x,y,z
2 -x,1/2+y,1/2-z
3 -x,-y,-z
4 x,1/2-y,1/2+z
_cell_length_a                   9.000(10)
_cell_length_b                   7.729(9)
_cell_length_c                   37.55(4)
_cell_angle_alpha                90
_cell_angle_beta                 94.774(8)
_cell_angle_gamma                90
_cell_volume                     2602.95
loop_
_atom_site_label
_atom_site_type_symbol
_atom_site_fract_x
_atom_site_fract_y
_atom_site_fract_z
Zn1 Zn 0.5885(3) 0.2584(2) 0.30101(3)
Cl1 Cl 0.8329(6) 0.3397(5) 0.31313(10)
N1 N 0.2559(17) 0.7408(19) 0.3813(3)
C1 C 0.287(3) 0.605(2) 0.4066(4)
C2 C 0.2044(15) 0.6514(14) 0.4403(3)
C3 C 0.1211(14) 0.8153(13) 0.4301(2)
C4 C 0.0267(13) 0.9184(14) 0.4485(2)
H1 H 0.0041 0.8869 0.4719
C5 C -0.0347(12) 1.0674(13) 0.4326(3)
H2 H -0.0993 1.1378 0.4452
C6 C -0.0017(15) 1.1133(13) 0.3984(3)
H3 H -0.0437 1.2152 0.3876
C7 C 0.0927(17) 1.0103(16) 0.3800(2)
H4 H 0.1153 1.0417 0.3566
C8 C 0.1542(15) 0.8612(15) 0.3959(2)
C9 C 0.3164(19) 0.668(3) 0.4736(3)
H5 H 0.3696 0.5587 0.4778
H6 H 0.2627 0.6970 0.4945
H7 H 0.3881 0.7604 0.4696
C10 C 0.0994(16) 0.502(2) 0.4487(5)
H8 H 0.0266 0.4829 0.4282
H9 H 0.0470 0.5317 0.4698
H10 H 0.1578 0.3963 0.4536
C11 C 0.299(2) 0.765(2) 0.3439(3)
H11 H 0.4021 0.7207 0.3427
H12 H 0.3005 0.8900 0.3386
C12 C 0.1979(18) 0.675(3) 0.3145(3)
H13 H 0.0976 0.7279 0.3127
H14 H 0.1874 0.5503 0.3202
C13 C 0.270(2) 0.695(3) 0.2787(4)
H15 H 0.1910 0.6752 0.2593
H16 H 0.3009 0.8178 0.2770
C14 C 0.4051(16) 0.5832(18) 0.2706(3)
O1 O 0.4503(15) 0.4637(13) 0.2945(2)
O2 O 0.4630(14) 0.5966(12) 0.2401(2)
C15 C 0.377(2) 0.4514(17) 0.3963(3)
H17 H 0.4169 0.4480 0.3737
C16 C 0.4047(13) 0.2994(12) 0.4227(3)
H18 H 0.3633 0.2959 0.4451
C17 C 0.5456(17) 0.1210(15) 0.3753(3)
C18 C 0.6294(17) -0.0397(18) 0.3686(3)
C19 C 0.6748(17) -0.1497(19) 0.3983(3)
H19 H 0.7318 -0.2509 0.3949
C20 C 0.6331(16) -0.105(2) 0.4337(4)
C21 C 0.5494(19) 0.041(2) 0.4393(4)
H20 H 0.5227 0.0659 0.4627
C22 C 0.5015(17) 0.1578(16) 0.4103(3)
O3 O 0.4925(13) 0.2135(11) 0.3474(2)
O4 O 0.6584(12) -0.0652(11) 0.3336(2)
N2 N 0.685(2) -0.221(2) 0.4634(4)
O5 O 0.7389(17) -0.375(2) 0.4553(3)
O6 O 0.6725(19) -0.178(2) 0.4943(3)
C23 C 0.749(2) -0.2132(17) 0.3242(4)
H21 H 0.7543 -0.2162 0.2983
H22 H 0.7026 -0.3203 0.3320
H23 H 0.8491 -0.2024 0.3362
Zn1A Zn 0.4115(3) 0.7584(2) 0.19899(3)
O2A O 0.5370(14) 0.0966(12) 0.2599(2)
loop_
_geom_bond_atom_site_label_1
_geom_bond_atom_site_label_2
_geom_bond_site_symmetry_1
_geom_bond_site_symmetry_2
Zn1 Cl1 1_555 1_555
N1 C1 1_555 1_555
C1 C2 1_555 1_555
C2 C3 1_555 1_555
C3 C4 1_555 1_555
C4 H1 1_555 1_555
C5 C4 1_555 1_555
H2 C5 1_555 1_555
C6 C5 1_555 1_555
H3 C6 1_555 1_555
C7 C6 1_555 1_555
H4 C7 1_555 1_555
C8 N1 1_555 1_555
C9 C2 1_555 1_555
H5 C9 1_555 1_555
H6 C9 1_555 1_555
H7 C9 1_555 1_555
C10 C2 1_555 1_555
H8 C10 1_555 1_555
H9 C10 1_555 1_555
H10 C10 1_555 1_555
C11 N1 1_555 1_555
H11 C11 1_555 1_555
H12 C11 1_555 1_555
C12 C11 1_555 1_555
H13 C12 1_555 1_555
H14 C12 1_555 1_555
C13 C12 1_555 1_555
H15 C13 1_555 1_555
H16 C13 1_555 1_555
C14 C13 1_555 1_555
O1 Zn1 1_555 1_555
O2 C14 1_555 1_555
C15 C1 1_555 1_555
H17 C15 1_555 1_555
C16 C15 1_555 1_555
H18 C16 1_555 1_555
C17 C18 1_555 1_555
C18 C19 1_555 1_555
C19 H19 1_555 1_555
C20 C19 1_555 1_555
C21 C20 1_555 1_555
H20 C21 1_555 1_555
C22 C16 1_555 1_555
O3 Zn1 1_555 1_555
O4 Zn1 1_555 1_555
N2 C20 1_555 1_555
O5 N2 1_555 1_555
O6 N2 1_555 1_555
C23 O4 1_555 1_555
H21 C23 1_555 1_555
H22 C23 1_555 1_555
H23 C23 1_555 1_555
Zn1A O2 1_555 1_555
O2A Zn1 1_555 1_555
C3 C8 1_555 1_555
C7 C8 1_555 1_555
C14 O1 1_555 1_555
C17 C22 1_555 1_555
C17 O3 1_555 1_555
C18 O4 1_555 1_555
C21 C22 1_555 1_555

#END
