
#######################################################################
#
#                 Cambridge Crystallographic Data Centre
#                                CCDC 
#
#######################################################################
#
# If this CIF has been generated from an entry in the Cambridge 
# Structural Database, then it will include bibliographic, chemical, 
# crystal, experimental, refinement or atomic coordinate data resulting 
# from the CCDC's data processing and validation procedures.
#
#######################################################################

data_MACDOL
_symmetry_cell_setting           monoclinic
_symmetry_space_group_name_H-M   'C 2/c'
_symmetry_Int_Tables_number      15
_space_group_name_Hall           '-C 2yn'
loop_
_symmetry_equiv_pos_site_id
_symmetry_equiv_pos_as_xyz
1 x,y,z
2 -x,y,1/2-z
3 1/2+x,1/2+y,z
4 1/2-x,1/2+y,1/2-z
5 -x,-y,-z
6 x,-y,1/2+z
7 1/2-x,1/2-y,-z
8 1/2+x,1/2-y,1/2+z
_cell_length_a                   49.350(5)
_cell_length_b                   18.9378(17)
_cell_length_c                   30.529(3)
_cell_angle_alpha                90
_cell_angle_beta                 95.0320(10)
_cell_angle_gamma                90
_cell_volume                     28421.8
loop_
_atom_site_label
_atom_site_type_symbol
_atom_site_fract_x
_atom_site_fract_y
_atom_site_fract_z
O1 O 0.04964(15) 0.8411(4) 0.6976(2)
O2 O 0.08454(12) 0.7588(3) 0.19641(18)
O5 O 0.03763(14) 0.8813(3) 0.55887(18)
O7 O 0.08550(15) 0.7541(4) 0.7020(2)
O8 O -0.04726(12) 0.5575(3) 0.43601(17)
O12 O -0.04791(12) 0.6864(3) 0.43732(18)
N3 N -0.04286(15) 0.6096(4) 0.5117(2)
C2 C -0.0418(3) 0.4845(7) 0.4523(4)
H2 H -0.0265 0.4851 0.4750
C3 C 0.0572(2) 0.6022(6) 0.2081(3)
H3 H 0.0632 0.6008 0.2396
C7 C -0.0414(2) 0.6207(6) 0.5903(3)
C9 C 0.0626(3) 0.9130(7) 0.7038(4)
H6 H 0.0725 0.9157 0.7330
C11 C 0.0807(2) 0.5823(5) 0.1826(3)
H10 H 0.0956 0.6139 0.1899
H11 H 0.0752 0.5855 0.1517
H12 H 0.0862 0.5348 0.1898
C12 C -0.07348(19) 0.7189(5) 0.4489(3)
H13 H -0.0763 0.7091 0.4797
C13 C -0.0370(2) 0.6512(5) 0.5461(3)
C14 C -0.0454(2) 0.6613(6) 0.6256(3)
H14 H -0.0473 0.7099 0.6226
C15 C 0.1037(3) 0.8161(7) 0.2105(4)
H15 H 0.1010 0.8286 0.2410
C16 C -0.0663(2) 0.4560(7) 0.4711(5)
H16 H -0.0701 0.4835 0.4963
H17 H -0.0631 0.4078 0.4798
H18 H -0.0816 0.4583 0.4494
C17 C 0.0250(2) 0.9491(5) 0.5454(3)
H19 H 0.0210 0.9487 0.5134
C20 C -0.0338(2) 0.4449(7) 0.4129(5)
H24 H -0.0179 0.4664 0.4025
H25 H -0.0484 0.4461 0.3900
H26 H -0.0298 0.3967 0.4209
C21 C -0.0964(2) 0.6878(5) 0.4190(3)
H27 H -0.0975 0.6379 0.4242
H28 H -0.0931 0.6958 0.3889
H29 H -0.1132 0.7098 0.4248
C22 C 0.0443(3) 1.0084(7) 0.5572(4)
H30 H 0.0604 1.0025 0.5421
H31 H 0.0491 1.0083 0.5884
H32 H 0.0358 1.0525 0.5487
C23 C 0.0331(2) 0.5542(5) 0.1995(3)
H33 H 0.0187 0.5696 0.2164
H34 H 0.0382 0.5068 0.2077
H35 H 0.0269 0.5555 0.1688
C25 C 0.0393(3) 0.9639(6) 0.7012(4)
H36 H 0.0283 0.9552 0.7251
H37 H 0.0285 0.9579 0.6738
H38 H 0.0462 1.0113 0.7032
C26 C -0.0017(2) 0.9521(5) 0.5664(3)
H39 H -0.0127 0.9123 0.5570
H40 H -0.0111 0.9950 0.5578
H41 H 0.0019 0.9511 0.5979
C28 C -0.0705(2) 0.7971(4) 0.4419(3)
H43 H -0.0557 0.8147 0.4614
H44 H -0.0870 0.8206 0.4479
H45 H -0.0669 0.8059 0.4120
C32 C 0.1314(3) 0.7906(8) 0.2089(5)
H51 H 0.1344 0.7510 0.2283
H52 H 0.1440 0.8276 0.2179
H53 H 0.1341 0.7764 0.1794
C38 C -0.0467(2) 0.6292(7) 0.6671(4)
H63 H -0.0478 0.6574 0.6918
C44 C 0.1060(3) 0.7093(9) 0.7133(6)
H73 H 0.1111 0.7235 0.7438
C45 C 0.1057(4) 0.8598(10) 0.9267(5)
H74 H 0.1163 0.8671 0.9530
C46 C -0.0413(2) 0.5484(6) 0.5951(3)
H75 H -0.0393 0.5199 0.5708
C50 C -0.0443(2) 0.5169(6) 0.6363(4)
H83 H -0.0448 0.4680 0.6391
C53 C 0.0824(3) 0.9200(6) 0.6687(4)
H88 H 0.0966 0.8857 0.6739
H89 H 0.0901 0.9666 0.6698
H90 H 0.0730 0.9122 0.6403
C55 C 0.1003(3) 0.8779(7) 0.1842(5)
H92 H 0.0821 0.8954 0.1850
H93 H 0.1035 0.8668 0.1544
H94 H 0.1130 0.9134 0.1954
C56 C 0.0663(3) 0.8831(8) 0.8783(4)
H95 H 0.0499 0.9072 0.8728
C57 C 0.1137(3) 0.8133(7) 0.8976(4)
H96 H 0.1298 0.7883 0.9040
C59 C 0.0740(3) 0.8367(6) 0.8480(5)
C61 C -0.0465(3) 0.5586(7) 0.6714(4)
H99 H -0.0479 0.5384 0.6989
C64 C 0.0986(3) 0.8017(7) 0.8583(4)
H106 H 0.1048 0.7699 0.8383
C66 C 0.0999(3) 0.6365(8) 0.7188(5)
H110 H 0.0839 0.6321 0.7342
H111 H 0.1150 0.6139 0.7353
H112 H 0.0969 0.6145 0.6904
C68 C 0.1305(3) 0.7159(9) 0.6951(6)
H116 H 0.1369 0.7637 0.6983
H117 H 0.1281 0.7041 0.6644
H118 H 0.1436 0.6845 0.7097
C70 C 0.0825(4) 0.8959(10) 0.9185(6)
H122 H 0.0771 0.9288 0.9386
Cu1 Cu 0.0000 0.74909(10) 0.2500
Cu2 Cu 0.0000 0.77421(11) 0.7500
Cu5 Cu 0.01082(2) 0.73104(6) 0.49990(4)
P1 P -0.03384(6) 0.62167(15) 0.46326(9)
P4 P 0.05912(6) 0.74266(16) 0.22187(9)
P5 P 0.05813(6) 0.83935(14) 0.53140(9)
K3 K -0.01124(5) 0.72779(14) 0.37479(7)
S5 S 0.03100(6) 0.81607(14) 0.21321(9)
S6 S -0.02485(5) 0.73604(13) 0.54492(8)
S7 S 0.02554(6) 0.67857(15) 0.30140(9)
P6 P 0.05960(7) 0.77450(18) 0.72567(10)
S8 S 0.00650(5) 0.82941(13) 0.45427(8)
S10 S 0.00566(5) 0.62684(12) 0.45785(7)
S14 S 0.02379(7) 0.84337(16) 0.80309(9)
S15 S 0.05303(5) 0.73743(13) 0.54084(8)
K4 K 0.01612(5) 0.78356(15) 0.62394(7)
S16 S 0.03118(6) 0.70223(16) 0.71689(9)
O15 O 0.04834(13) 0.6741(4) 0.19632(19)
O16 O 0.08614(14) 0.8648(3) 0.55462(19)
N4 N 0.05811(16) 0.8673(4) 0.4817(3)
N5 N 0.07200(15) 0.7277(4) 0.2722(2)
C74 C 0.0458(3) 0.8849(5) 0.4053(4)
C75 C 0.0387(2) 0.8603(5) 0.4495(4)
C76 C 0.0583(2) 0.7080(5) 0.3049(4)
N8 N 0.07134(17) 0.7967(5) 0.7751(3)
C79 C 0.0575(2) 0.8228(5) 0.8059(4)
C80 C 0.0746(2) 0.7112(5) 0.3486(3)
C81 C 0.0652(2) 0.6821(5) 0.3859(4)
H126 H 0.0482 0.6607 0.3840
C82 C 0.0999(3) 0.7411(5) 0.3534(4)
H127 H 0.1069 0.7614 0.3291
C87 C 0.0266(2) 0.8948(5) 0.3704(4)
H131 H 0.0084 0.8874 0.3745
C92 C 0.0334(3) 0.9153(6) 0.3295(4)
H136 H 0.0201 0.9197 0.3062
C93 C 0.0597(3) 0.9288(7) 0.3237(4)
H137 H 0.0644 0.9441 0.2964
C95 C 0.0720(2) 0.8988(6) 0.3976(4)
H139 H 0.0855 0.8935 0.4205
C97 C 0.0793(3) 0.9205(7) 0.3571(5)
H141 H 0.0974 0.9292 0.3529
C98 C 0.1055(3) 0.7132(8) 0.4302(4)
H142 H 0.1158 0.7140 0.4571
C100 C 0.0806(3) 0.6841(7) 0.4263(4)
H144 H 0.0736 0.6649 0.4510
C101 C 0.1255(3) 0.8014(7) 0.5780(5)
H145 H 0.1146 0.7627 0.5868
H146 H 0.1287 0.8339 0.6020
H147 H 0.1426 0.7838 0.5697
C102 C 0.1113(2) 0.8372(8) 0.5409(4)
H148 H 0.1073 0.8035 0.5169
C103 C 0.1152(2) 0.7421(7) 0.3932(5)
H149 H 0.1324 0.7624 0.3952
C104 C 0.1286(3) 0.8904(8) 0.5273(5)
H150 H 0.1204 0.9125 0.5012
H151 H 0.1457 0.8698 0.5214
H152 H 0.1316 0.9250 0.5502
O1A O -0.04964(15) 0.8411(4) 0.8024(2)
O1A_2 O -0.04964(15) 0.8411(4) -0.1976(2)
O2A O -0.08454(12) 0.7588(3) 0.30359(18)
O5A O -0.03763(14) 0.8813(3) -0.05887(18)
O7A O -0.08550(15) 0.7541(4) 0.7980(2)
O8A O 0.04726(12) 0.5575(3) 0.06399(17)
O12A O 0.04791(12) 0.6864(3) 0.06268(18)
N3A N 0.04286(15) 0.6096(4) -0.0117(2)
C2A C 0.0418(3) 0.4845(7) 0.0477(4)
H2A H 0.0265 0.4851 0.0250
C3A C -0.0572(2) 0.6022(6) 0.2919(3)
H3A H -0.0632 0.6008 0.2604
C7A C 0.0414(2) 0.6207(6) -0.0903(3)
C9A C -0.0626(3) 0.9130(7) 0.7962(4)
H6A H -0.0725 0.9157 0.7670
C11A C -0.0807(2) 0.5823(5) 0.3174(3)
H10A H -0.0956 0.6139 0.3101
H11A H -0.0752 0.5855 0.3483
H12A H -0.0862 0.5348 0.3102
C12A C 0.07348(19) 0.7189(5) 0.0511(3)
H13A H 0.0763 0.7091 0.0203
C13A C 0.0370(2) 0.6512(5) -0.0461(3)
C14A C 0.0454(2) 0.6613(6) -0.1256(3)
H14A H 0.0473 0.7099 -0.1226
C15A C -0.1037(3) 0.8161(7) 0.2895(4)
H15A H -0.1010 0.8286 0.2590
C16A C 0.0663(2) 0.4560(7) 0.0289(5)
H16A H 0.0701 0.4835 0.0037
H17A H 0.0631 0.4078 0.0202
H18A H 0.0816 0.4583 0.0506
C17A C -0.0250(2) 0.9491(5) -0.0454(3)
H19A H -0.0210 0.9487 -0.0134
C20A C 0.0338(2) 0.4449(7) 0.0871(5)
H24A H 0.0179 0.4664 0.0975
H25A H 0.0484 0.4461 0.1100
H26A H 0.0298 0.3967 0.0791
C21A C 0.0964(2) 0.6878(5) 0.0810(3)
H27A H 0.0975 0.6379 0.0758
H28A H 0.0931 0.6958 0.1111
H29A H 0.1132 0.7098 0.0752
C22A C -0.0443(3) 1.0084(7) -0.0572(4)
H30A H -0.0604 1.0025 -0.0421
H31A H -0.0491 1.0083 -0.0884
H32A H -0.0358 1.0525 -0.0487
C23A C -0.0331(2) 0.5542(5) 0.3005(3)
H33A H -0.0187 0.5696 0.2836
H34A H -0.0382 0.5068 0.2923
H35A H -0.0269 0.5555 0.3312
C25A C -0.0393(3) 0.9639(6) 0.7988(4)
H36A H -0.0283 0.9552 0.7749
H37A H -0.0285 0.9579 0.8262
H38A H -0.0462 1.0113 0.7968
C26A C 0.0017(2) 0.9521(5) -0.0664(3)
H39A H 0.0127 0.9123 -0.0570
H40A H 0.0111 0.9950 -0.0578
H41A H -0.0019 0.9511 -0.0979
C28A C 0.0705(2) 0.7971(4) 0.0581(3)
H43A H 0.0557 0.8147 0.0386
H44A H 0.0870 0.8206 0.0521
H45A H 0.0669 0.8059 0.0880
C32A C -0.1314(3) 0.7906(8) 0.2911(5)
H51A H -0.1344 0.7510 0.2717
H52A H -0.1440 0.8276 0.2821
H53A H -0.1341 0.7764 0.3206
C38A C 0.0467(2) 0.6292(7) -0.1671(4)
H63A H 0.0478 0.6574 -0.1918
C44A C -0.1060(3) 0.7093(9) 0.7867(6)
H73A H -0.1111 0.7235 0.7562
C45A C -0.1057(4) 0.8598(10) 0.5733(5)
H74A H -0.1163 0.8671 0.5470
C46A C 0.0413(2) 0.5484(6) -0.0951(3)
H75A H 0.0393 0.5199 -0.0708
C50A C 0.0443(2) 0.5169(6) -0.1363(4)
H83A H 0.0448 0.4680 -0.1391
C53A C -0.0824(3) 0.9200(6) 0.8313(4)
H88A H -0.0966 0.8857 0.8261
H89A H -0.0901 0.9666 0.8302
H90A H -0.0730 0.9122 0.8597
C55A C -0.1003(3) 0.8779(7) 0.3158(5)
H92A H -0.0821 0.8954 0.3150
H93A H -0.1035 0.8668 0.3456
H94A H -0.1130 0.9134 0.3046
C56A C -0.0663(3) 0.8831(8) 0.6217(4)
H95A H -0.0499 0.9072 0.6272
C57A C -0.1137(3) 0.8133(7) 0.6024(4)
H96A H -0.1298 0.7883 0.5960
C59A C -0.0740(3) 0.8367(6) 0.6520(5)
C61A C 0.0465(3) 0.5586(7) -0.1714(4)
H99A H 0.0479 0.5384 -0.1989
C64A C -0.0986(3) 0.8017(7) 0.6417(4)
H106A H -0.1048 0.7699 0.6617
C66A C -0.0999(3) 0.6365(8) 0.7812(5)
H110A H -0.0839 0.6321 0.7658
H111A H -0.1150 0.6139 0.7647
H112A H -0.0969 0.6145 0.8096
C68A C -0.1305(3) 0.7159(9) 0.8049(6)
H116A H -0.1369 0.7637 0.8017
H117A H -0.1281 0.7041 0.8356
H118A H -0.1436 0.6845 0.7903
C70A C -0.0825(4) 0.8959(10) 0.5815(6)
H122A H -0.0771 0.9288 0.5614
Cu5A Cu -0.01082(2) 0.73104(6) 0.00010(4)
P1A P 0.03384(6) 0.62167(15) 0.03674(9)
P4A P -0.05912(6) 0.74266(16) 0.27813(9)
P5A P -0.05813(6) 0.83935(14) -0.03140(9)
K3A K 0.01124(5) 0.72779(14) 0.12521(7)
S5A S -0.03100(6) 0.81607(14) 0.28679(9)
S6A S 0.02485(5) 0.73604(13) -0.04492(8)
S7A S -0.02554(6) 0.67857(15) 0.19860(9)
P6A P -0.05960(7) 0.77450(18) 0.77433(10)
S8A S -0.00650(5) 0.82941(13) 0.04573(8)
S10A S -0.00566(5) 0.62684(12) 0.04215(7)
S14A S -0.02379(7) 0.84337(16) 0.69691(9)
S14_2 S 0.02379(7) 0.84337(16) -0.19691(9)
S15A S -0.05303(5) 0.73743(13) -0.04084(8)
K4A K -0.01612(5) 0.78356(15) -0.12394(7)
K4A_2 K -0.01612(5) 0.78356(15) 0.87606(7)
S16A S -0.03118(6) 0.70223(16) 0.78311(9)
S16A_2 S -0.03118(6) 0.70223(16) -0.21689(9)
O15A O -0.04834(13) 0.6741(4) 0.30368(19)
O16A O -0.08614(14) 0.8648(3) -0.05462(19)
N4A N -0.05811(16) 0.8673(4) 0.0183(3)
N5A N -0.07200(15) 0.7277(4) 0.2278(2)
C74A C -0.0458(3) 0.8849(5) 0.0947(4)
C75A C -0.0387(2) 0.8603(5) 0.0505(4)
C76A C -0.0583(2) 0.7080(5) 0.1951(4)
N8A N -0.07134(17) 0.7967(5) 0.7249(3)
C79A C -0.0575(2) 0.8228(5) 0.6941(4)
C80A C -0.0746(2) 0.7112(5) 0.1514(3)
C81A C -0.0652(2) 0.6821(5) 0.1141(4)
H126A H -0.0482 0.6607 0.1160
C82A C -0.0999(3) 0.7411(5) 0.1466(4)
H127A H -0.1069 0.7614 0.1709
C87A C -0.0266(2) 0.8948(5) 0.1296(4)
H131A H -0.0084 0.8874 0.1255
C92A C -0.0334(3) 0.9153(6) 0.1705(4)
H136A H -0.0201 0.9197 0.1938
C93A C -0.0597(3) 0.9288(7) 0.1763(4)
H137A H -0.0644 0.9441 0.2036
C95A C -0.0720(2) 0.8988(6) 0.1024(4)
H139A H -0.0855 0.8935 0.0795
C97A C -0.0793(3) 0.9205(7) 0.1429(5)
H141A H -0.0974 0.9292 0.1471
C98A C -0.1055(3) 0.7132(8) 0.0698(4)
H142A H -0.1158 0.7140 0.0429
C100A C -0.0806(3) 0.6841(7) 0.0737(4)
H144A H -0.0736 0.6649 0.0490
C101A C -0.1255(3) 0.8014(7) -0.0780(5)
H145A H -0.1146 0.7627 -0.0868
H146A H -0.1287 0.8339 -0.1020
H147A H -0.1426 0.7838 -0.0697
C102A C -0.1113(2) 0.8372(8) -0.0409(4)
H148A H -0.1073 0.8035 -0.0169
C103A C -0.1152(2) 0.7421(7) 0.1068(5)
H149A H -0.1324 0.7624 0.1048
C104A C -0.1286(3) 0.8904(8) -0.0273(5)
H150A H -0.1204 0.9125 -0.0012
H151A H -0.1457 0.8698 -0.0214
H152A H -0.1316 0.9250 -0.0502
O3 O 0.33912(12) 1.0037(4) 0.19277(18)
O4 O 0.16861(13) 0.9924(4) 0.29184(18)
O6 O 0.30388(13) 0.9139(4) 0.19346(19)
O9 O 0.20618(13) 0.9085(4) 0.29870(19)
O10 O 0.20431(12) 0.8061(3) 0.43250(17)
O11 O 0.20390(12) 0.9339(3) 0.43220(17)
N1 N 0.20830(15) 0.8612(4) 0.5083(2)
N2 N 0.30911(17) 1.1175(4) 0.4768(3)
C1 C 0.3173(3) 0.8464(6) 0.2032(4)
H1 H 0.3265 0.8477 0.2330
C4 C 0.2081(2) 0.8696(6) 0.5852(3)
C5 C 0.20909(17) 0.7345(5) 0.4500(3)
H4 H 0.2236 0.7362 0.4741
C6 C 0.1977(2) 0.8354(6) 0.2909(3)
H5 H 0.1916 0.8289 0.2597
O13 O 0.33732(14) 1.1155(3) 0.5494(2)
C8 C 0.2133(2) 0.9023(6) 0.5424(4)
C10 C 0.1747(2) 0.8181(6) 0.3189(4)
H7 H 0.1593 0.8474 0.3102
H8 H 0.1805 0.8266 0.3493
H9 H 0.1697 0.7693 0.3150
C18 C 0.2227(2) 0.7896(6) 0.3030(4)
H20 H 0.2367 0.8014 0.2844
H21 H 0.2179 0.7408 0.2992
H22 H 0.2291 0.7979 0.3332
C19 C 0.2010(3) 0.8090(7) 0.6673(4)
H23 H 0.1989 0.7890 0.6946
O14 O 0.28911(13) 1.1313(3) 0.55496(18)
C24 C 0.1815(3) 0.9060(7) 0.1477(4)
C27 C 0.2059(2) 0.7984(6) 0.5904(3)
H42 H 0.2066 0.7697 0.5658
C29 C 0.3377(3) 0.8318(6) 0.1708(4)
H46 H 0.3516 0.8673 0.1735
H47 H 0.3289 0.8325 0.1416
H48 H 0.3457 0.7862 0.1767
C30 C 0.2027(2) 0.7671(6) 0.6298(4)
H49 H 0.2017 0.7182 0.6318
C31 C 0.2025(3) 0.8801(7) 0.6620(4)
H50 H 0.2005 0.9089 0.6862
C33 C 0.18362(17) 0.7072(4) 0.4675(2)
H54 H 0.1788 0.7370 0.4910
H55 H 0.1691 0.7071 0.4444
H56 H 0.1866 0.6599 0.4782
C34 C 0.2771(2) 1.2007(5) 0.5424(3)
H57 H 0.2719 1.2008 0.5107
C35 C 0.1891(2) 0.8502(7) 0.1210(5)
H58 H 0.2047 0.8245 0.1297
C36 C 0.2520(2) 1.2044(5) 0.5661(3)
H59 H 0.2402 1.1658 0.5570
H60 H 0.2568 1.2015 0.5972
H61 H 0.2428 1.2482 0.5593
C37 C 0.3602(3) 1.0609(6) 0.2097(4)
H62 H 0.3600 1.0761 0.2404
C39 C 0.3624(3) 1.0857(7) 0.5375(4)
H64 H 0.3588 1.0527 0.5129
C40 C 0.2967(2) 1.2594(6) 0.5530(4)
H65 H 0.3122 1.2536 0.5366
H66 H 0.2880 1.3037 0.5454
H67 H 0.3024 1.2588 0.5839
C41 C 0.3860(3) 1.0355(8) 0.1955(5)
H68 H 0.3953 1.0079 0.2185
H69 H 0.3971 1.0751 0.1889
H70 H 0.3826 1.0068 0.1697
C42 C 0.1589(3) 0.9449(7) 0.1328(5)
H71 H 0.1531 0.9826 0.1491
C43 C 0.1783(2) 0.9675(6) 0.4425(3)
H72 H 0.1761 0.9624 0.4740
C47 C 0.1528(4) 0.8737(11) 0.0674(6)
H76 H 0.1438 0.8655 0.0398
C48 C 0.1218(2) 1.0198(8) 0.2873(5)
H77 H 0.1181 0.9739 0.2748
H78 H 0.1076 1.0519 0.2770
H79 H 0.1227 1.0167 0.3187
C49 C 0.1552(2) 0.9335(6) 0.4162(3)
H80 H 0.1542 0.8846 0.4242
H81 H 0.1385 0.9568 0.4219
H82 H 0.1578 0.9372 0.3855
C51 C 0.21845(19) 0.6903(4) 0.4132(3)
H84 H 0.2351 0.7094 0.4041
H85 H 0.2215 0.6427 0.4232
H86 H 0.2048 0.6907 0.3888
C52 C 0.2068(2) 0.9111(5) 0.6229(4)
H87 H 0.2088 0.9598 0.6213
C54 C 0.1740(4) 0.8322(9) 0.0819(6)
H91 H 0.1784 0.7924 0.0662
C58 C 0.1447(3) 0.9260(10) 0.0921(5)
H97 H 0.1292 0.9512 0.0823
C60 C 0.1485(3) 1.0462(7) 0.2735(4)
H98 H 0.1487 1.0538 0.2418
C62 C 0.2953(3) 0.7905(6) 0.2010(4)
H100 H 0.2828 0.8004 0.2226
H101 H 0.3034 0.7450 0.2066
H102 H 0.2857 0.7907 0.1722
C63 C 0.1805(3) 1.0431(7) 0.4312(5)
H103 H 0.1953 1.0640 0.4490
H104 H 0.1836 1.0476 0.4007
H105 H 0.1639 1.0668 0.4365
C65 C 0.1557(3) 1.1091(8) 0.3003(5)
H107 H 0.1727 1.1277 0.2926
H108 H 0.1572 1.0964 0.3309
H109 H 0.1417 1.1442 0.2950
C67 C 0.3801(3) 1.1404(7) 0.5253(5)
H113 H 0.3720 1.1646 0.4999
H114 H 0.3832 1.1732 0.5492
H115 H 0.3972 1.1203 0.5188
C69 C 0.3762(3) 1.0502(7) 0.5742(5)
H119 H 0.3652 1.0120 0.5830
H120 H 0.3932 1.0320 0.5660
H121 H 0.3795 1.0828 0.5981
C71 C 0.3481(2) 1.1115(7) 0.1740(5)
H123 H 0.3311 1.1299 0.1823
H124 H 0.3450 1.0866 0.1467
H125 H 0.3605 1.1498 0.1707
Cu3 Cu 0.25441(2) 0.98265(9) 0.24343(3)
Cu4 Cu 0.26168(2) 0.98100(6) 0.49574(3)
S1 S 0.25693(5) 1.07942(13) 0.45076(8)
K1 K 0.24198(5) 0.97527(14) 0.36921(7)
P2 P 0.31382(6) 0.98436(17) 0.21798(9)
K2 K 0.26877(5) 0.96482(14) 0.11856(7)
S2 S 0.22613(5) 0.98693(14) 0.54119(8)
S3 S 0.28020(6) 0.91973(16) 0.29793(9)
P3 P 0.19486(6) 0.97312(17) 0.26946(10)
S4 S 0.28430(6) 1.05443(15) 0.20754(8)
S9 S 0.25712(5) 0.87584(12) 0.45466(7)
P7 P 0.21767(6) 0.87062(15) 0.45939(9)
S11 S 0.23186(6) 0.90547(16) 0.19331(9)
P8 P 0.30926(6) 1.08921(14) 0.52666(9)
S12 S 0.30422(5) 0.98765(13) 0.53565(8)
S13 S 0.22187(6) 1.04973(15) 0.27627(8)
C72 C 0.2958(3) 1.1318(6) 0.3997(4)
C73 C 0.3126(2) 0.9521(5) 0.3020(4)
N6 N 0.32571(15) 0.9728(4) 0.2684(2)
C77 C 0.3287(2) 0.9524(5) 0.3456(3)
C78 C 0.2895(2) 1.1111(5) 0.4456(4)
N7 N 0.18357(16) 0.9493(4) 0.2206(3)
C83 C 0.1976(2) 0.9226(5) 0.1894(4)
C84 C 0.3547(2) 0.9801(5) 0.3495(4)
H128 H 0.3623 0.9963 0.3246
C85 C 0.2759(2) 1.1447(5) 0.3658(4)
H129 H 0.2576 1.1405 0.3705
C86 C 0.3229(2) 1.1356(5) 0.3906(4)
H130 H 0.3366 1.1275 0.4129
C88 C 0.3295(3) 1.1515(6) 0.3484(5)
H132 H 0.3477 1.1531 0.3427
C89 C 0.3694(2) 0.9842(6) 0.3896(4)
H133 H 0.3866 1.0047 0.3922
C90 C 0.3169(3) 0.9300(6) 0.3814(4)
H134 H 0.2990 0.9138 0.3789
C91 C 0.2836(3) 1.1645(6) 0.3240(4)
H135 H 0.2702 1.1776 0.3022
C94 C 0.3318(3) 0.9315(6) 0.4218(4)
H138 H 0.3239 0.9149 0.4464
C96 C 0.3581(3) 0.9570(7) 0.4266(4)
H140 H 0.3681 0.9562 0.4539
C99 C 0.3097(3) 1.1649(7) 0.3148(4)
H143 H 0.3143 1.1739 0.2865
O3E O 0.33912(12) 0.9963(4) -0.30723(18)
O4E O 0.16861(13) 1.0076(4) -0.20816(18)
O6E O 0.30388(13) 1.0861(4) -0.30654(19)
O6E_2 O 0.30388(13) 1.0861(4) 0.69346(19)
O9E O 0.20618(13) 1.0915(4) -0.20130(19)
O10E O 0.20431(12) 1.1939(3) -0.06750(17)
O11E O 0.20390(12) 1.0661(3) -0.06780(17)
N1E N 0.20830(15) 1.1388(4) 0.0083(2)
N2E N 0.30911(17) 0.8825(4) -0.0232(3)
C1E C 0.3173(3) 1.1536(6) -0.2968(4)
H1E H 0.3265 1.1523 -0.2670
C4E C 0.2081(2) 1.1304(6) 0.0852(3)
C5E C 0.20909(17) 1.2655(5) -0.0500(3)
H4E H 0.2236 1.2638 -0.0259
C6E C 0.1977(2) 1.1646(6) -0.2091(3)
H5E H 0.1916 1.1711 -0.2403
O13E O 0.33732(14) 0.8845(3) 0.0494(2)
C8E C 0.2133(2) 1.0977(6) 0.0424(4)
C10E C 0.1747(2) 1.1819(6) -0.1811(4)
H7E H 0.1593 1.1526 -0.1898
H8E H 0.1805 1.1734 -0.1507
H9E H 0.1697 1.2307 -0.1850
C18E C 0.2227(2) 1.2104(6) -0.1970(4)
H20E H 0.2367 1.1986 -0.2156
H21E H 0.2179 1.2592 -0.2008
H22E H 0.2291 1.2021 -0.1668
C19E C 0.2010(3) 1.1910(7) 0.1673(4)
H23E H 0.1989 1.2110 0.1946
O14E O 0.28911(13) 0.8687(3) 0.05496(18)
C24E C 0.1815(3) 1.0940(7) -0.3523(4)
C27E C 0.2059(2) 1.2016(6) 0.0904(3)
H42E H 0.2066 1.2303 0.0658
C29E C 0.3377(3) 1.1682(6) -0.3292(4)
H46E H 0.3516 1.1327 -0.3265
H47E H 0.3289 1.1675 -0.3584
H48E H 0.3457 1.2138 -0.3233
C30E C 0.2027(2) 1.2329(6) 0.1298(4)
H49E H 0.2017 1.2818 0.1318
C31E C 0.2025(3) 1.1199(7) 0.1620(4)
H50E H 0.2005 1.0911 0.1862
C33E C 0.18362(17) 1.2928(4) -0.0325(2)
H54E H 0.1788 1.2630 -0.0090
H55E H 0.1691 1.2929 -0.0556
H56E H 0.1866 1.3401 -0.0218
C34E C 0.2771(2) 0.7993(5) 0.0424(3)
H57E H 0.2719 0.7992 0.0107
C35E C 0.1891(2) 1.1498(7) -0.3790(5)
H58E H 0.2047 1.1755 -0.3703
C36E C 0.2520(2) 0.7956(5) 0.0661(3)
H59E H 0.2402 0.8342 0.0570
H60E H 0.2568 0.7985 0.0972
H61E H 0.2428 0.7518 0.0593
C37E C 0.3602(3) 0.9391(6) -0.2903(4)
H62E H 0.3600 0.9239 -0.2596
C39E C 0.3624(3) 0.9143(7) 0.0375(4)
H64E H 0.3588 0.9473 0.0129
C40E C 0.2967(2) 0.7406(6) 0.0530(4)
H65E H 0.3122 0.7464 0.0366
H66E H 0.2880 0.6963 0.0454
H67E H 0.3024 0.7412 0.0839
C41E C 0.3860(3) 0.9645(8) -0.3045(5)
H68E H 0.3953 0.9921 -0.2815
H69E H 0.3971 0.9249 -0.3111
H70E H 0.3826 0.9932 -0.3303
C42E C 0.1589(3) 1.0551(7) -0.3672(5)
H71E H 0.1531 1.0174 -0.3509
C43E C 0.1783(2) 1.0325(6) -0.0575(3)
H72E H 0.1761 1.0376 -0.0260
C47E C 0.1528(4) 1.1263(11) -0.4326(6)
H76E H 0.1438 1.1345 -0.4602
C48E C 0.1218(2) 0.9802(8) -0.2127(5)
H77E H 0.1181 1.0261 -0.2252
H78E H 0.1076 0.9481 -0.2230
H79E H 0.1227 0.9833 -0.1813
C49E C 0.1552(2) 1.0665(6) -0.0838(3)
H80E H 0.1542 1.1154 -0.0758
H81E H 0.1385 1.0432 -0.0781
H82E H 0.1578 1.0628 -0.1145
C51E C 0.21845(19) 1.3097(4) -0.0868(3)
H84E H 0.2351 1.2906 -0.0959
H85E H 0.2215 1.3573 -0.0768
H86E H 0.2048 1.3093 -0.1112
C52E C 0.2068(2) 1.0889(5) 0.1229(4)
H87E H 0.2088 1.0402 0.1213
C54E C 0.1740(4) 1.1678(9) -0.4181(6)
H91E H 0.1784 1.2076 -0.4338
C58E C 0.1447(3) 1.0740(10) -0.4079(5)
H97E H 0.1292 1.0488 -0.4177
C60E C 0.1485(3) 0.9538(7) -0.2265(4)
H98E H 0.1487 0.9462 -0.2582
C62E C 0.2953(3) 1.2095(6) -0.2990(4)
H100E H 0.2828 1.1996 -0.2774
H101E H 0.3034 1.2550 -0.2934
H102E H 0.2857 1.2093 -0.3278
C63E C 0.1805(3) 0.9569(7) -0.0688(5)
H103E H 0.1953 0.9360 -0.0510
H104E H 0.1836 0.9524 -0.0993
H105E H 0.1639 0.9332 -0.0635
C65E C 0.1557(3) 0.8909(8) -0.1997(5)
H107E H 0.1727 0.8723 -0.2074
H108E H 0.1572 0.9036 -0.1691
H109E H 0.1417 0.8558 -0.2050
C67E C 0.3801(3) 0.8596(7) 0.0253(5)
H113E H 0.3720 0.8354 -0.0001
H114E H 0.3832 0.8268 0.0492
H115E H 0.3972 0.8797 0.0188
C69E C 0.3762(3) 0.9498(7) 0.0742(5)
H119E H 0.3652 0.9880 0.0830
H120E H 0.3932 0.9680 0.0660
H121E H 0.3795 0.9172 0.0981
C71E C 0.3481(2) 0.8885(7) -0.3260(5)
H123E H 0.3311 0.8701 -0.3177
H124E H 0.3450 0.9134 -0.3533
H125E H 0.3605 0.8502 -0.3293
Cu3E Cu 0.25441(2) 1.01735(9) -0.25657(3)
Cu4E Cu 0.26168(2) 1.01900(6) -0.00426(3)
S1E S 0.25693(5) 0.92058(13) -0.04924(8)
K1E K 0.24198(5) 1.02473(14) -0.13079(7)
P2E P 0.31382(6) 1.01564(17) -0.28202(9)
K2E K 0.26877(5) 1.03518(14) 0.61856(7)
K2E_2 K 0.26877(5) 1.03518(14) -0.38144(7)
S2E S 0.22613(5) 1.01307(14) 0.04119(8)
S3E S 0.28020(6) 1.08027(16) -0.20207(9)
P3E P 0.19486(6) 1.02688(17) -0.23054(10)
S4E S 0.28430(6) 0.94557(15) -0.29246(8)
S4E_2 S 0.28430(6) 0.94557(15) 0.70754(8)
S9E S 0.25712(5) 1.12416(12) -0.04534(7)
P7E P 0.21767(6) 1.12938(15) -0.04061(9)
S11E S 0.23186(6) 1.09453(16) -0.30669(9)
S11E_2 S 0.23186(6) 1.09453(16) 0.69331(9)
P8E P 0.30926(6) 0.91079(14) 0.02666(9)
S12E S 0.30422(5) 1.01235(13) 0.03565(8)
S13E S 0.22187(6) 0.95027(15) -0.22373(8)
C72E C 0.2958(3) 0.8682(6) -0.1003(4)
C73E C 0.3126(2) 1.0479(5) -0.1980(4)
N6E N 0.32571(15) 1.0272(4) -0.2316(2)
C77E C 0.3287(2) 1.0476(5) -0.1544(3)
C78E C 0.2895(2) 0.8889(5) -0.0544(4)
N7E N 0.18357(16) 1.0507(4) -0.2794(3)
C83E C 0.1976(2) 1.0774(5) -0.3106(4)
C84E C 0.3547(2) 1.0199(5) -0.1505(4)
H128E H 0.3623 1.0037 -0.1754
C85E C 0.2759(2) 0.8553(5) -0.1342(4)
H129E H 0.2576 0.8595 -0.1295
C86E C 0.3229(2) 0.8644(5) -0.1094(4)
H130E H 0.3366 0.8725 -0.0871
C88E C 0.3295(3) 0.8485(6) -0.1516(5)
H132E H 0.3477 0.8469 -0.1573
C89E C 0.3694(2) 1.0158(6) -0.1104(4)
H133E H 0.3866 0.9953 -0.1078
C90E C 0.3169(3) 1.0700(6) -0.1186(4)
H134E H 0.2990 1.0862 -0.1211
C91E C 0.2836(3) 0.8355(6) -0.1760(4)
H135E H 0.2702 0.8224 -0.1978
C94E C 0.3318(3) 1.0685(6) -0.0782(4)
H138E H 0.3239 1.0851 -0.0536
C96E C 0.3581(3) 1.0430(7) -0.0734(4)
H140E H 0.3681 1.0438 -0.0461
C99E C 0.3097(3) 0.8351(7) -0.1852(4)
H143E H 0.3143 0.8261 -0.2135
loop_
_geom_bond_atom_site_label_1
_geom_bond_atom_site_label_2
_geom_bond_site_symmetry_1
_geom_bond_site_symmetry_2
O1 C9 1_555 1_555
O2 C15 1_555 1_555
O3 C37 1_555 1_555
O4 C60 1_555 1_555
O5 C17 1_555 1_555
O6 C1 1_555 1_555
O7 C44 1_555 1_555
O8 C2 1_555 1_555
O9 C6 1_555 1_555
O10 C5 1_555 1_555
O11 C43 1_555 1_555
N1 C8 1_555 1_555
O12 C12 1_555 1_555
N2 P8 1_555 1_555
N3 C13 1_555 1_555
C1 H1 1_555 1_555
C2 H2 1_555 1_555
C3 H3 1_555 1_555
C4 C8 1_555 1_555
C5 H4 1_555 1_555
C6 H5 1_555 1_555
O13 C39 1_555 1_555
C7 C13 1_555 1_555
C8 S2 1_555 1_555
C9 H6 1_555 1_555
C10 C6 1_555 1_555
H7 C10 1_555 1_555
H8 C10 1_555 1_555
H9 C10 1_555 1_555
C11 C3 1_555 1_555
H10 C11 1_555 1_555
H11 C11 1_555 1_555
H12 C11 1_555 1_555
C12 H13 1_555 1_555
C13 S6 1_555 1_555
C14 C7 1_555 1_555
H14 C14 1_555 1_555
C15 H15 1_555 1_555
C16 C2 1_555 1_555
H16 C16 1_555 1_555
H17 C16 1_555 1_555
H18 C16 1_555 1_555
C17 H19 1_555 1_555
C18 C6 1_555 1_555
H20 C18 1_555 1_555
H21 C18 1_555 1_555
H22 C18 1_555 1_555
C19 H23 1_555 1_555
C20 C2 1_555 1_555
H24 C20 1_555 1_555
H25 C20 1_555 1_555
H26 C20 1_555 1_555
C21 C12 1_555 1_555
H27 C21 1_555 1_555
H28 C21 1_555 1_555
H29 C21 1_555 1_555
C22 C17 1_555 1_555
H30 C22 1_555 1_555
H31 C22 1_555 1_555
H32 C22 1_555 1_555
C23 C3 1_555 1_555
H33 C23 1_555 1_555
H34 C23 1_555 1_555
H35 C23 1_555 1_555
O14 C34 1_555 1_555
C24 C35 1_555 1_555
C25 C9 1_555 1_555
H36 C25 1_555 1_555
H37 C25 1_555 1_555
H38 C25 1_555 1_555
C26 C17 1_555 1_555
H39 C26 1_555 1_555
H40 C26 1_555 1_555
H41 C26 1_555 1_555
C27 C4 1_555 1_555
H42 C27 1_555 1_555
C28 C12 1_555 1_555
H43 C28 1_555 1_555
H44 C28 1_555 1_555
H45 C28 1_555 1_555
C29 C1 1_555 1_555
H46 C29 1_555 1_555
H47 C29 1_555 1_555
H48 C29 1_555 1_555
C30 C19 1_555 1_555
H49 C30 1_555 1_555
C31 C19 1_555 1_555
H50 C31 1_555 1_555
C32 C15 1_555 1_555
H51 C32 1_555 1_555
H52 C32 1_555 1_555
H53 C32 1_555 1_555
C33 C5 1_555 1_555
H54 C33 1_555 1_555
H55 C33 1_555 1_555
H56 C33 1_555 1_555
C34 H57 1_555 1_555
C35 H58 1_555 1_555
C36 C34 1_555 1_555
H59 C36 1_555 1_555
H60 C36 1_555 1_555
H61 C36 1_555 1_555
C37 H62 1_555 1_555
C38 C14 1_555 1_555
H63 C38 1_555 1_555
C39 H64 1_555 1_555
C40 C34 1_555 1_555
H65 C40 1_555 1_555
H66 C40 1_555 1_555
H67 C40 1_555 1_555
C41 C37 1_555 1_555
H68 C41 1_555 1_555
H69 C41 1_555 1_555
H70 C41 1_555 1_555
C42 C24 1_555 1_555
H71 C42 1_555 1_555
C43 H72 1_555 1_555
C44 H73 1_555 1_555
C45 H74 1_555 1_555
C46 C7 1_555 1_555
H75 C46 1_555 1_555
C47 H76 1_555 1_555
C48 H77 1_555 1_555
H78 C48 1_555 1_555
H79 C48 1_555 1_555
C49 C43 1_555 1_555
H80 C49 1_555 1_555
H81 C49 1_555 1_555
H82 C49 1_555 1_555
C50 C46 1_555 1_555
H83 C50 1_555 1_555
C51 C5 1_555 1_555
H84 C51 1_555 1_555
H85 C51 1_555 1_555
H86 C51 1_555 1_555
C52 C4 1_555 1_555
H87 C52 1_555 1_555
C53 C9 1_555 1_555
H88 C53 1_555 1_555
H89 C53 1_555 1_555
H90 C53 1_555 1_555
C54 C35 1_555 1_555
H91 C54 1_555 1_555
C55 C15 1_555 1_555
H92 C55 1_555 1_555
H93 C55 1_555 1_555
H94 C55 1_555 1_555
C56 H95 1_555 1_555
C57 C45 1_555 1_555
H96 C57 1_555 1_555
C58 C42 1_555 1_555
H97 C58 1_555 1_555
C59 C56 1_555 1_555
C60 C48 1_555 1_555
H98 C60 1_555 1_555
C61 C38 1_555 1_555
H99 C61 1_555 1_555
C62 C1 1_555 1_555
H100 C62 1_555 1_555
H101 C62 1_555 1_555
H102 C62 1_555 1_555
C63 C43 1_555 1_555
H103 C63 1_555 1_555
H104 C63 1_555 1_555
H105 C63 1_555 1_555
C64 C57 1_555 1_555
H106 C64 1_555 1_555
C65 C60 1_555 1_555
H107 C65 1_555 1_555
H108 C65 1_555 1_555
H109 C65 1_555 1_555
C66 C44 1_555 1_555
H110 C66 1_555 1_555
H111 C66 1_555 1_555
H112 C66 1_555 1_555
C67 C39 1_555 1_555
H113 C67 1_555 1_555
H114 C67 1_555 1_555
H115 C67 1_555 1_555
C68 C44 1_555 1_555
H116 C68 1_555 1_555
H117 C68 1_555 1_555
H118 C68 1_555 1_555
C69 C39 1_555 1_555
H119 C69 1_555 1_555
H120 C69 1_555 1_555
H121 C69 1_555 1_555
C70 C45 1_555 1_555
H122 C70 1_555 1_555
C71 C37 1_555 1_555
H123 C71 1_555 1_555
H124 C71 1_555 1_555
H125 C71 1_555 1_555
Cu1 S5 1_555 1_555
Cu2 S14 1_555 1_555
Cu3 S3 1_555 1_555
Cu4 S1 1_555 1_555
Cu5 S6 1_555 1_555
S1 K1 1_555 1_555
K1 O9 1_555 1_555
P1 O8 1_555 1_555
P2 O3 1_555 1_555
K2 O6 1_555 1_555
S2 Cu4 1_555 1_555
S3 K1 1_555 1_555
P3 O4 1_555 1_555
P4 O2 1_555 1_555
P5 O5 1_555 1_555
K3 O12 1_555 1_555
S4 Cu3 1_555 1_555
S5 P4 1_555 1_555
S6 K4 1_555 1_555
S7 Cu1 1_555 1_555
P6 O1 1_555 1_555
S8 Cu5 1_555 1_555
S9 Cu4 1_555 1_555
S10 Cu5 1_555 1_555
P7 O10 1_555 1_555
S11 Cu3 1_555 1_555
P8 O13 1_555 1_555
S12 Cu4 1_555 1_555
S13 Cu3 1_555 1_555
S14 C79 1_555 1_555
S15 Cu5 1_555 1_555
K4 O1 1_555 1_555
S16 Cu2 1_555 1_555
O15 C3 1_555 1_555
O16 P5 1_555 1_555
N4 P5 1_555 1_555
N5 P4 1_555 1_555
C72 C78 1_555 1_555
C73 S3 1_555 1_555
C74 C75 1_555 1_555
C75 S8 1_555 1_555
C76 S7 1_555 1_555
N6 P2 1_555 1_555
C77 C73 1_555 1_555
C78 N2 1_555 1_555
N7 P3 1_555 1_555
N8 P6 1_555 1_555
C79 C59 1_555 1_555
C80 C76 1_555 1_555
C81 C80 1_555 1_555
H126 C81 1_555 1_555
C82 C80 1_555 1_555
H127 C82 1_555 1_555
C83 C24 1_555 1_555
C84 C77 1_555 1_555
H128 C84 1_555 1_555
C85 C72 1_555 1_555
H129 C85 1_555 1_555
C86 C72 1_555 1_555
H130 C86 1_555 1_555
C87 C74 1_555 1_555
H131 C87 1_555 1_555
C88 C86 1_555 1_555
H132 C88 1_555 1_555
C89 C84 1_555 1_555
H133 C89 1_555 1_555
C90 C77 1_555 1_555
H134 C90 1_555 1_555
C91 C85 1_555 1_555
H135 C91 1_555 1_555
C92 C87 1_555 1_555
H136 C92 1_555 1_555
C93 C92 1_555 1_555
H137 C93 1_555 1_555
C94 C90 1_555 1_555
H138 C94 1_555 1_555
C95 C74 1_555 1_555
H139 C95 1_555 1_555
C96 C89 1_555 1_555
H140 C96 1_555 1_555
C97 C93 1_555 1_555
H141 C97 1_555 1_555
C98 H142 1_555 1_555
C99 C88 1_555 1_555
H143 C99 1_555 1_555
C100 C81 1_555 1_555
H144 C100 1_555 1_555
C101 H145 1_555 1_555
H146 C101 1_555 1_555
H147 C101 1_555 1_555
C102 O16 1_555 1_555
H148 C102 1_555 1_555
C103 C82 1_555 1_555
H149 C103 1_555 1_555
C104 C102 1_555 1_555
H150 C104 1_555 1_555
H151 C104 1_555 1_555
H152 C104 1_555 1_555
O1A C9A 1_555 1_555
O1A_2 K4A 1_555 1_555
O2A C15A 1_555 1_555
O3E C37E 1_555 1_555
O4E C60E 1_555 1_555
O5A C17A 1_555 1_555
O6E C1E 1_555 1_555
O6E_2 K2E 1_555 1_555
O7A C44A 1_555 1_555
O8A C2A 1_555 1_555
O9E C6E 1_555 1_555
O10E C5E 1_555 1_555
O11E C43E 1_555 1_555
N1E C8E 1_555 1_555
O12A C12A 1_555 1_555
N2E P8E 1_555 1_555
N3A C13A 1_555 1_555
C1E H1E 1_555 1_555
C2A H2A 1_555 1_555
C3A H3A 1_555 1_555
C4E C8E 1_555 1_555
C5E H4E 1_555 1_555
C6E H5E 1_555 1_555
O13E C39E 1_555 1_555
C7A C13A 1_555 1_555
C8E S2E 1_555 1_555
C9A H6A 1_555 1_555
C10E C6E 1_555 1_555
H7E C10E 1_555 1_555
H8E C10E 1_555 1_555
H9E C10E 1_555 1_555
C11A C3A 1_555 1_555
H10A C11A 1_555 1_555
H11A C11A 1_555 1_555
H12A C11A 1_555 1_555
C12A H13A 1_555 1_555
C13A S6A 1_555 1_555
C14A C7A 1_555 1_555
H14A C14A 1_555 1_555
C15A H15A 1_555 1_555
C16A C2A 1_555 1_555
H16A C16A 1_555 1_555
H17A C16A 1_555 1_555
H18A C16A 1_555 1_555
C17A H19A 1_555 1_555
C18E C6E 1_555 1_555
H20E C18E 1_555 1_555
H21E C18E 1_555 1_555
H22E C18E 1_555 1_555
C19E H23E 1_555 1_555
C20A C2A 1_555 1_555
H24A C20A 1_555 1_555
H25A C20A 1_555 1_555
H26A C20A 1_555 1_555
C21A C12A 1_555 1_555
H27A C21A 1_555 1_555
H28A C21A 1_555 1_555
H29A C21A 1_555 1_555
C22A C17A 1_555 1_555
H30A C22A 1_555 1_555
H31A C22A 1_555 1_555
H32A C22A 1_555 1_555
C23A C3A 1_555 1_555
H33A C23A 1_555 1_555
H34A C23A 1_555 1_555
H35A C23A 1_555 1_555
O14E K2 1_555 1_555
C24E C35E 1_555 1_555
C25A C9A 1_555 1_555
H36A C25A 1_555 1_555
H37A C25A 1_555 1_555
H38A C25A 1_555 1_555
C26A C17A 1_555 1_555
H39A C26A 1_555 1_555
H40A C26A 1_555 1_555
H41A C26A 1_555 1_555
C27E C4E 1_555 1_555
H42E C27E 1_555 1_555
C28A C12A 1_555 1_555
H43A C28A 1_555 1_555
H44A C28A 1_555 1_555
H45A C28A 1_555 1_555
C29E C1E 1_555 1_555
H46E C29E 1_555 1_555
H47E C29E 1_555 1_555
H48E C29E 1_555 1_555
C30E C19E 1_555 1_555
H49E C30E 1_555 1_555
C31E C19E 1_555 1_555
H50E C31E 1_555 1_555
C32A C15A 1_555 1_555
H51A C32A 1_555 1_555
H52A C32A 1_555 1_555
H53A C32A 1_555 1_555
C33E C5E 1_555 1_555
H54E C33E 1_555 1_555
H55E C33E 1_555 1_555
H56E C33E 1_555 1_555
C34E O14E 1_555 1_555
H57E C34E 1_555 1_555
C35E H58E 1_555 1_555
C36E C34E 1_555 1_555
H59E C36E 1_555 1_555
H60E C36E 1_555 1_555
H61E C36E 1_555 1_555
C37E H62E 1_555 1_555
C38A C14A 1_555 1_555
H63A C38A 1_555 1_555
C39E H64E 1_555 1_555
C40E C34E 1_555 1_555
H65E C40E 1_555 1_555
H66E C40E 1_555 1_555
H67E C40E 1_555 1_555
C41E C37E 1_555 1_555
H68E C41E 1_555 1_555
H69E C41E 1_555 1_555
H70E C41E 1_555 1_555
C42E C24E 1_555 1_555
H71E C42E 1_555 1_555
C43E H72E 1_555 1_555
C44A H73A 1_555 1_555
C45A H74A 1_555 1_555
C46A C7A 1_555 1_555
H75A C46A 1_555 1_555
C47E H76E 1_555 1_555
C48E H77E 1_555 1_555
H78E C48E 1_555 1_555
H79E C48E 1_555 1_555
C49E C43E 1_555 1_555
H80E C49E 1_555 1_555
H81E C49E 1_555 1_555
H82E C49E 1_555 1_555
C50A C46A 1_555 1_555
H83A C50A 1_555 1_555
C51E C5E 1_555 1_555
H84E C51E 1_555 1_555
H85E C51E 1_555 1_555
H86E C51E 1_555 1_555
C52E C4E 1_555 1_555
H87E C52E 1_555 1_555
C53A C9A 1_555 1_555
H88A C53A 1_555 1_555
H89A C53A 1_555 1_555
H90A C53A 1_555 1_555
C54E C35E 1_555 1_555
H91E C54E 1_555 1_555
C55A C15A 1_555 1_555
H92A C55A 1_555 1_555
H93A C55A 1_555 1_555
H94A C55A 1_555 1_555
C56A H95A 1_555 1_555
C57A C45A 1_555 1_555
H96A C57A 1_555 1_555
C58E C42E 1_555 1_555
H97E C58E 1_555 1_555
C59A C56A 1_555 1_555
C60E C48E 1_555 1_555
H98E C60E 1_555 1_555
C61A C38A 1_555 1_555
H99A C61A 1_555 1_555
C62E C1E 1_555 1_555
H100E C62E 1_555 1_555
H101E C62E 1_555 1_555
H102E C62E 1_555 1_555
C63E C43E 1_555 1_555
H103E C63E 1_555 1_555
H104E C63E 1_555 1_555
H105E C63E 1_555 1_555
C64A C57A 1_555 1_555
H106A C64A 1_555 1_555
C65E C60E 1_555 1_555
H107E C65E 1_555 1_555
H108E C65E 1_555 1_555
H109E C65E 1_555 1_555
C66A C44A 1_555 1_555
H110A C66A 1_555 1_555
H111A C66A 1_555 1_555
H112A C66A 1_555 1_555
C67E C39E 1_555 1_555
H113E C67E 1_555 1_555
H114E C67E 1_555 1_555
H115E C67E 1_555 1_555
C68A C44A 1_555 1_555
H116A C68A 1_555 1_555
H117A C68A 1_555 1_555
H118A C68A 1_555 1_555
C69E C39E 1_555 1_555
H119E C69E 1_555 1_555
H120E C69E 1_555 1_555
H121E C69E 1_555 1_555
C70A C45A 1_555 1_555
H122A C70A 1_555 1_555
C71E C37E 1_555 1_555
H123E C71E 1_555 1_555
H124E C71E 1_555 1_555
H125E C71E 1_555 1_555
Cu3E S3E 1_555 1_555
Cu4E S1E 1_555 1_555
Cu5A S6A 1_555 1_555
S1E K1E 1_555 1_555
K1E O9E 1_555 1_555
P1A O8A 1_555 1_555
P2E O3E 1_555 1_555
K2E O14 1_555 1_555
K2E_2 O6E 1_555 1_555
S2E K2 1_555 1_555
S3E K1E 1_555 1_555
P3E O4E 1_555 1_555
P4A O2A 1_555 1_555
P5A O5A 1_555 1_555
K3A S5 1_555 1_555
S4E Cu3E 1_555 1_555
S4E_2 K2E 1_555 1_555
S5A Cu1 1_555 1_555
S6A K4A 1_555 1_555
S7A Cu1 1_555 1_555
P6A O1A 1_555 1_555
S8A Cu5A 1_555 1_555
S9E Cu4E 1_555 1_555
S10A Cu5A 1_555 1_555
P7E O10E 1_555 1_555
S11E Cu3E 1_555 1_555
S11E_2 K2E 1_555 1_555
P8E O13E 1_555 1_555
S12E K2 1_555 1_555
S13E Cu3E 1_555 1_555
S14A Cu2 1_555 1_555
S14_2 K4A 1_555 1_555
S15A Cu5A 1_555 1_555
K4A O5A 1_555 1_555
K4A_2 S14 1_555 1_555
S16A Cu2 1_555 1_555
S16A_2 K4A 1_555 1_555
O15A K3 1_555 1_555
O16A P5A 1_555 1_555
N4A P5A 1_555 1_555
N5A P4A 1_555 1_555
C72E C78E 1_555 1_555
C73E S3E 1_555 1_555
C74A C75A 1_555 1_555
C75A S8A 1_555 1_555
C76A S7A 1_555 1_555
N6E P2E 1_555 1_555
C77E C73E 1_555 1_555
C78E N2E 1_555 1_555
N7E P3E 1_555 1_555
N8A P6A 1_555 1_555
C79A C59A 1_555 1_555
C80A C76A 1_555 1_555
C81A C80A 1_555 1_555
H126A C81A 1_555 1_555
C82A C80A 1_555 1_555
H127A C82A 1_555 1_555
C83E C24E 1_555 1_555
C84E C77E 1_555 1_555
H128E C84E 1_555 1_555
C85E C72E 1_555 1_555
H129E C85E 1_555 1_555
C86E C72E 1_555 1_555
H130E C86E 1_555 1_555
C87A C74A 1_555 1_555
H131A C87A 1_555 1_555
C88E C86E 1_555 1_555
H132E C88E 1_555 1_555
C89E C84E 1_555 1_555
H133E C89E 1_555 1_555
C90E C77E 1_555 1_555
H134E C90E 1_555 1_555
C91E C85E 1_555 1_555
H135E C91E 1_555 1_555
C92A C87A 1_555 1_555
H136A C92A 1_555 1_555
C93A C92A 1_555 1_555
H137A C93A 1_555 1_555
C94E C90E 1_555 1_555
H138E C94E 1_555 1_555
C95A C74A 1_555 1_555
H139A C95A 1_555 1_555
C96E C89E 1_555 1_555
H140E C96E 1_555 1_555
C97A C93A 1_555 1_555
H141A C97A 1_555 1_555
C98A H142A 1_555 1_555
C99E C88E 1_555 1_555
H143E C99E 1_555 1_555
C100A C81A 1_555 1_555
H144A C100A 1_555 1_555
C101A H145A 1_555 1_555
H146A C101A 1_555 1_555
H147A C101A 1_555 1_555
C102A O16A 1_555 1_555
H148A C102A 1_555 1_555
C103A C82A 1_555 1_555
H149A C103A 1_555 1_555
C104A C102A 1_555 1_555
H150A C104A 1_555 1_555
H151A C104A 1_555 1_555
H152A C104A 1_555 1_555
O5 K4 1_555 1_555
O6 P2 1_555 1_555
O7 P6 1_555 1_555
O9 P3 1_555 1_555
O11 K1 1_555 1_555
O11 P7 1_555 1_555
N1 P7 1_555 1_555
O12 P1 1_555 1_555
N3 P1 1_555 1_555
O14 P8 1_555 1_555
C27 C30 1_555 1_555
C31 C52 1_555 1_555
C47 C54 1_555 1_555
C47 C58 1_555 1_555
C50 C61 1_555 1_555
C56 C70 1_555 1_555
C59 C64 1_555 1_555
S1 C78 1_555 1_555
K1 S9 1_555 1_555
K1 S13 1_555 1_555
P1 S10 1_555 1_555
P2 S4 1_555 1_555
K2 S4 1_555 1_555
K2 S11 1_555 1_555
S2 K2E 1_555 1_555
P3 S13 1_555 1_555
P4 O15 1_555 1_555
P5 S15 1_555 1_555
K3 S7 1_555 1_555
K3 S8 1_555 1_555
K3 S10 1_555 1_555
K3 S5A 1_555 1_555
P6 S16 1_555 1_555
S9 P7 1_555 1_555
S11 C83 1_555 1_555
P8 S12 1_555 1_555
S12 K2E 1_555 1_555
S15 K4 1_555 1_555
K4 S16 1_555 1_555
K4 S14A 1_555 1_555
O15 K3A 1_555 1_555
N4 C75 1_555 1_555
N5 C76 1_555 1_555
C73 N6 1_555 1_555
N7 C83 1_555 1_555
N8 C79 1_555 1_555
C91 C99 1_555 1_555
C94 C96 1_555 1_555
C95 C97 1_555 1_555
C98 C100 1_555 1_555
C98 C103 1_555 1_555
C101 C102 1_555 1_555
O1A K4A_2 1_555 1_555
O6E P2E 1_555 1_555
O7A P6A 1_555 1_555
O9E P3E 1_555 1_555
O11E K1E 1_555 1_555
O11E P7E 1_555 1_555
N1E P7E 1_555 1_555
O12A P1A 1_555 1_555
O12A K3A 1_555 1_555
N3A P1A 1_555 1_555
C3A O15A 1_555 1_555
O14E P8E 1_555 1_555
C27E C30E 1_555 1_555
C31E C52E 1_555 1_555
C47E C54E 1_555 1_555
C47E C58E 1_555 1_555
C50A C61A 1_555 1_555
C56A C70A 1_555 1_555
C59A C64A 1_555 1_555
Cu4E S2E 1_555 1_555
Cu4E S12E 1_555 1_555
S1E C78E 1_555 1_555
K1E S9E 1_555 1_555
K1E S13E 1_555 1_555
P1A S10A 1_555 1_555
P2E S4E 1_555 1_555
K2E_2 S4E 1_555 1_555
K2E_2 S11E 1_555 1_555
P3E S13E 1_555 1_555
P4A S5A 1_555 1_555
P4A O15A 1_555 1_555
P5A S15A 1_555 1_555
K3A S7A 1_555 1_555
K3A S8A 1_555 1_555
K3A S10A 1_555 1_555
P6A S16A 1_555 1_555
S9E P7E 1_555 1_555
S11E C83E 1_555 1_555
P8E S12E 1_555 1_555
S14A C79A 1_555 1_555
S15A K4A 1_555 1_555
K4A_2 S16A 1_555 1_555
N4A C75A 1_555 1_555
N5A C76A 1_555 1_555
C73E N6E 1_555 1_555
N7E C83E 1_555 1_555
N8A C79A 1_555 1_555
C91E C99E 1_555 1_555
C94E C96E 1_555 1_555
C95A C97A 1_555 1_555
C98A C100A 1_555 1_555
C98A C103A 1_555 1_555
C101A C102A 1_555 1_555

#END
