
#######################################################################
#
#                 Cambridge Crystallographic Data Centre
#                                CCDC 
#
#######################################################################
#
# If this CIF has been generated from an entry in the Cambridge 
# Structural Database, then it will include bibliographic, chemical, 
# crystal, experimental, refinement or atomic coordinate data resulting 
# from the CCDC's data processing and validation procedures.
#
#######################################################################

data_MACGAZ
_symmetry_cell_setting           monoclinic
_symmetry_space_group_name_H-M   'P 21/c'
_symmetry_Int_Tables_number      14
_space_group_name_Hall           '-P 2ybc'
loop_
_symmetry_equiv_pos_site_id
_symmetry_equiv_pos_as_xyz
1 x,y,z
2 x,1/2-y,1/2+z
3 -x,-y,-z
4 -x,1/2+y,1/2-z
_cell_length_a                   6.5261(8)
_cell_length_b                   7.0683(9)
_cell_length_c                   18.417(2)
_cell_angle_alpha                90
_cell_angle_beta                 90.418(10)
_cell_angle_gamma                90
_cell_volume                     849.525
loop_
_atom_site_label
_atom_site_type_symbol
_atom_site_fract_x
_atom_site_fract_y
_atom_site_fract_z
Cu1 Cu 0.35202(3) 0.25934(4) 0.158370(10)
C1 C 0.1754(3) 0.2286(3) 0.29617(10)
O1 O 0.3372(2) 0.2823(2) 0.26402(8)
O2 O 0.0193(3) 0.1676(3) 0.26643(9)
C2 C 0.1808(3) 0.2440(4) 0.37589(11)
C3 C 0.1831(3) 0.2530(4) 0.44047(11)
C4 C 0.1792(3) 0.2608(4) 0.52017(10)
O3 O 0.3527(2) 0.2503(3) 0.55160(7)
O4 O 0.0133(3) 0.2767(4) 0.55115(9)
O5 O 0.3597(3) -0.0174(2) 0.16304(11)
H1 H 0.451(6) -0.062(5) 0.184(2)
H2 H 0.343(5) -0.065(4) 0.128(2)
O6 O 0.7021(3) 0.2893(3) 0.16405(12)
H3 H 0.771(7) 0.260(6) 0.134(3)
H4 H 0.771(9) 0.265(7) 0.205(3)
O7 O 0.2909(3) 0.5277(3) 0.15423(11)
H5 H 0.194(6) 0.558(6) 0.177(2)
H6 H 0.293(6) 0.578(5) 0.117(2)
O3A O 0.3527(2) 0.2497(3) 0.05160(7)
Cu1A Cu 0.35202(3) 0.24066(4) 0.658370(10)
O8 O 0.3159(3) 0.7661(3) 0.04038(9)
H7 H 0.207(7) 0.767(6) 0.014(2)
H8 H 0.389(6) 0.763(5) 0.018(2)
loop_
_geom_bond_atom_site_label_1
_geom_bond_atom_site_label_2
_geom_bond_site_symmetry_1
_geom_bond_site_symmetry_2
Cu1 O1 1_555 1_555
C1 O1 1_555 1_555
O2 C1 1_555 1_555
C2 C1 1_555 1_555
C3 C2 1_555 1_555
C4 C3 1_555 1_555
O3 C4 1_555 1_555
O4 C4 1_555 1_555
O5 Cu1 1_555 1_555
H1 O5 1_555 1_555
H2 O5 1_555 1_555
O6 Cu1 1_555 1_555
H3 O6 1_555 1_555
H4 O6 1_555 1_555
O7 Cu1 1_555 1_555
H5 O7 1_555 1_555
H6 O7 1_555 1_555
O8 H7 1_555 1_555
H8 O8 1_555 1_555
O3A Cu1 1_555 1_555
Cu1A O3 1_555 1_555

#END
