
#######################################################################
#
#                 Cambridge Crystallographic Data Centre
#                                CCDC 
#
#######################################################################
#
# If this CIF has been generated from an entry in the Cambridge 
# Structural Database, then it will include bibliographic, chemical, 
# crystal, experimental, refinement or atomic coordinate data resulting 
# from the CCDC's data processing and validation procedures.
#
#######################################################################

data_MACHII
_symmetry_cell_setting           triclinic
_symmetry_space_group_name_H-M   'P -1'
_symmetry_Int_Tables_number      2
_space_group_name_Hall           '-P 1'
loop_
_symmetry_equiv_pos_site_id
_symmetry_equiv_pos_as_xyz
1 x,y,z
2 -x,-y,-z
_cell_length_a                   8.3288(4)
_cell_length_b                   8.5220(4)
_cell_length_c                   9.3793(5)
_cell_angle_alpha                81.387(2)
_cell_angle_beta                 69.135(2)
_cell_angle_gamma                64.589(2)
_cell_volume                     561.881
loop_
_atom_site_label
_atom_site_type_symbol
_atom_site_fract_x
_atom_site_fract_y
_atom_site_fract_z
Mn1 Mn 0.5000 0.0000 0.0000
O1 O -0.43193(12) 0.39205(13) 0.33564(11)
N1 N -0.2798(2) 0.0179(2) 0.51965(15)
N2 N 0.20933(14) 0.03498(16) 0.13662(13)
N3 N 0.05351(17) 0.22325(18) -0.14891(14)
N4 N -0.38877(17) 0.71315(14) 0.02737(15)
C1 C -0.21734(17) 0.08245(18) 0.41148(14)
C2 C 0.05068(15) 0.09102(15) 0.19925(13)
C3 C -0.06721(16) 0.29736(15) -0.04356(14)
C4 C -0.31460(17) 0.56999(15) 0.05451(15)
C5 C -0.14447(14) 0.16424(15) 0.27649(12)
C6 C -0.26621(14) 0.31830(14) 0.22797(13)
C7 C -0.21947(15) 0.39306(14) 0.08284(13)
C8 C -0.60236(18) 0.4995(2) 0.3007(2)
H1 H -0.5943 0.4650 0.2036
H2 H -0.6205 0.6204 0.2939
C9 C -0.7618(2) 0.4773(3) 0.4244(3)
H3 H -0.8768 0.5474 0.4033
H4 H -0.7691 0.5127 0.5198
H5 H -0.7426 0.3575 0.4301
O2 O 0.44706(13) -0.01725(14) -0.20677(10)
H6 H 0.343(2) 0.048(2) -0.212(2)
H7 H 0.521(2) -0.004(2) -0.2875(18)
O1A O 1.43193(12) -0.39205(13) -0.33564(11)
N1A N 1.2798(2) -0.0179(2) -0.51965(15)
N2A N 0.79067(14) -0.03498(16) -0.13662(13)
N3A N 0.94649(17) -0.22325(18) 0.14891(14)
N4A N 1.38877(17) -0.71315(14) -0.02737(15)
C1A C 1.21734(17) -0.08245(18) -0.41148(14)
C2A C 0.94932(15) -0.09102(15) -0.19925(13)
C3A C 1.06721(16) -0.29736(15) 0.04356(14)
C4A C 1.31460(17) -0.56999(15) -0.05451(15)
C5A C 1.14447(14) -0.16424(15) -0.27649(12)
C6A C 1.26621(14) -0.31830(14) -0.22797(13)
C7A C 1.21947(15) -0.39306(14) -0.08284(13)
C8A C 1.60236(18) -0.4995(2) -0.3007(2)
H1A H 1.5943 -0.4650 -0.2036
H2A H 1.6205 -0.6204 -0.2939
C9A C 1.7618(2) -0.4773(3) -0.4244(3)
H3A H 1.8768 -0.5474 -0.4033
H4A H 1.7691 -0.5127 -0.5198
H5A H 1.7426 -0.3575 -0.4301
O2A O 0.55294(13) 0.01725(14) 0.20677(10)
H6A H 0.657(2) -0.048(2) 0.212(2)
H7A H 0.479(2) 0.004(2) 0.2875(18)
N4_2 N 0.61123(17) -0.28685(14) 0.02737(15)
N4A_2 N 0.38877(17) 0.28685(14) -0.02737(15)
Mn1_2 Mn -0.5000 1.0000 0.0000
Mn1_3 Mn 1.5000 -1.0000 0.0000
loop_
_geom_bond_atom_site_label_1
_geom_bond_atom_site_label_2
_geom_bond_site_symmetry_1
_geom_bond_site_symmetry_2
Mn1 N2 1_555 1_555
O1 C6 1_555 1_555
N1 C1 1_555 1_555
N2 C2 1_555 1_555
N3 C3 1_555 1_555
N4 C4 1_555 1_555
C1 C5 1_555 1_555
C2 C5 1_555 1_555
C3 C7 1_555 1_555
C4 C7 1_555 1_555
C5 C6 1_555 1_555
C6 C7 1_555 1_555
C8 O1 1_555 1_555
H1 C8 1_555 1_555
H2 C8 1_555 1_555
C9 C8 1_555 1_555
H3 C9 1_555 1_555
H4 C9 1_555 1_555
H5 C9 1_555 1_555
O2 Mn1 1_555 1_555
H6 O2 1_555 1_555
H7 O2 1_555 1_555
O1A C6A 1_555 1_555
N1A C1A 1_555 1_555
N2A Mn1 1_555 1_555
N3A C3A 1_555 1_555
N4A C4A 1_555 1_555
C1A C5A 1_555 1_555
C2A N2A 1_555 1_555
C3A C7A 1_555 1_555
C4A C7A 1_555 1_555
C5A C2A 1_555 1_555
C6A C5A 1_555 1_555
C7A C6A 1_555 1_555
C8A O1A 1_555 1_555
H1A C8A 1_555 1_555
H2A C8A 1_555 1_555
C9A C8A 1_555 1_555
H3A C9A 1_555 1_555
H4A C9A 1_555 1_555
H5A C9A 1_555 1_555
O2A Mn1 1_555 1_555
H6A O2A 1_555 1_555
H7A O2A 1_555 1_555
N4_2 Mn1 1_555 1_555
N4A_2 Mn1 1_555 1_555
Mn1_2 N4 1_555 1_555
Mn1_3 N4A 1_555 1_555

#END
