
#######################################################################
#
#                 Cambridge Crystallographic Data Centre
#                                CCDC 
#
#######################################################################
#
# If this CIF has been generated from an entry in the Cambridge 
# Structural Database, then it will include bibliographic, chemical, 
# crystal, experimental, refinement or atomic coordinate data resulting 
# from the CCDC's data processing and validation procedures.
#
#######################################################################

data_MADHIK
_symmetry_cell_setting           triclinic
_symmetry_space_group_name_H-M   'P -1'
_symmetry_Int_Tables_number      2
_space_group_name_Hall           '-P 1'
loop_
_symmetry_equiv_pos_site_id
_symmetry_equiv_pos_as_xyz
1 x,y,z
2 -x,-y,-z
_cell_length_a                   10.8912(3)
_cell_length_b                   12.5679(3)
_cell_length_c                   14.0268(4)
_cell_angle_alpha                100.7274(9)
_cell_angle_beta                 101.2479(9)
_cell_angle_gamma                107.8020(16)
_cell_volume                     1729.73
loop_
_atom_site_label
_atom_site_type_symbol
_atom_site_fract_x
_atom_site_fract_y
_atom_site_fract_z
O9 O 0.6317(9) 0.3707(9) 0.3920(7)
C33 C 0.5657(8) 0.2967(7) 0.3069(5)
H31 H 0.4923 0.2331 0.3088
N5 N 0.5869(6) 0.2970(6) 0.2144(5)
C34 C 0.4996(11) 0.2109(11) 0.1303(7)
H32 H 0.5325 0.1465 0.1187
H33 H 0.4941 0.2422 0.0713
H34 H 0.4106 0.1830 0.1416
C35 C 0.6897(15) 0.3883(14) 0.2084(12)
H35 H 0.6769 0.4608 0.2350
H36 H 0.6913 0.3808 0.1379
H37 H 0.7747 0.3889 0.2481
Zn1 Zn 1.01991(5) 0.48032(5) 0.89780(4)
Zn2 Zn 0.00314(15) -0.01943(11) 0.48397(10)
C1 C -0.0104(4) -0.1539(3) 0.6483(3)
C2 C 0.0746(4) -0.1841(4) 0.7228(3)
H1 H 0.0459 -0.2404 0.7582
C3 C 0.2031(4) -0.1173(4) 0.7330(3)
H2 H 0.2811 -0.1176 0.7770
C4 C 0.1980(4) -0.0454(4) 0.6636(3)
C5 C 0.3103(4) 0.0354(4) 0.6496(3)
C6 C 0.3053(4) 0.1018(3) 0.5796(3)
C7 C 0.4206(4) 0.1853(4) 0.5676(3)
H3 H 0.5108 0.2045 0.6048
C8 C 0.3784(4) 0.2319(4) 0.4941(3)
H4 H 0.4331 0.2888 0.4691
C9 C 0.2338(4) 0.1784(3) 0.4605(3)
C10 C -0.1512(4) -0.2045(3) 0.6149(3)
N1 N 0.0667(3) -0.0708(3) 0.6116(2)
N2 N 0.1923(3) 0.0988(3) 0.5137(2)
C11 C 0.4468(4) 0.0505(3) 0.7123(3)
C12 C 0.5316(4) 0.0060(4) 0.6699(3)
H5 H 0.5036 -0.0336 0.6003
C13 C 0.6578(4) 0.0186(4) 0.7280(4)
H6 H 0.7140 -0.0133 0.6980
C14 C 0.7008(4) 0.0776(4) 0.8292(3)
C15 C 0.6181(4) 0.1250(4) 0.8715(4)
H7 H 0.6473 0.1675 0.9403
C16 C 0.4921(4) 0.1101(4) 0.8128(3)
H8 H 0.4358 0.1420 0.8428
O1 O 0.8224(3) 0.0796(3) 0.8817(3)
C17 C 0.8754(5) 0.1511(4) 0.9832(4)
H9 H 0.9519 0.1326 1.0172
H10 H 0.8057 0.1326 1.0197
C18 C 0.9220(4) 0.2803(4) 0.9898(4)
O2 O 0.9558(3) 0.3136(3) 0.9177(3)
O3 O 0.9252(3) 0.3442(3) 1.0719(3)
C19 C -0.2179(4) -0.2926(4) 0.6637(3)
C20 C -0.2146(4) -0.2641(4) 0.7652(3)
H11 H -0.1674 -0.1864 0.8044
C21 C -0.2786(4) -0.3464(4) 0.8109(3)
H12 H -0.2738 -0.3249 0.8805
C22 C -0.3484(4) -0.4586(4) 0.7548(4)
C23 C -0.3530(5) -0.4897(4) 0.6530(4)
H13 H -0.4006 -0.5675 0.6143
C24 C -0.2892(5) -0.4084(4) 0.6083(4)
H14 H -0.2934 -0.4309 0.5389
O4 O -0.4189(3) -0.5471(3) 0.7906(3)
C25 C -0.3885(4) -0.5292(5) 0.8965(4)
H15 H -0.4023 -0.4577 0.9272
H16 H -0.4510 -0.5948 0.9127
C26 C -0.2438(4) -0.5187(4) 0.9429(4)
O5 O -0.1751(3) -0.5345(3) 0.8850(3)
O6 O -0.2090(3) -0.4941(4) 1.0374(3)
O7 O 1.0014(3) 0.4387(3) 0.7515(2)
C27 C 0.8995(5) 0.3602(5) 0.6968(4)
H17 H 0.8357 0.3223 0.7284
N3 N 0.8718(5) 0.3248(5) 0.5997(4)
C28 C 0.7568(7) 0.2219(8) 0.5437(6)
H18 H 0.7151 0.1852 0.5908
H19 H 0.6919 0.2435 0.5000
H20 H 0.7860 0.1675 0.5024
C29 C 0.9667(13) 0.3742(10) 0.5486(6)
H21 H 1.0345 0.3376 0.5528
H22 H 0.9209 0.3613 0.4778
H23 H 1.0101 0.4576 0.5802
O8 O 0.0050(6) -0.1524(5) 0.3643(5)
C30 C -0.0318(6) -0.1490(6) 0.2728(5)
H24 H 0.0343 -0.1009 0.2486
N4 N -0.1490(6) -0.2038(6) 0.2091(5)
C31 C -0.2445(8) -0.3003(7) 0.2371(8)
H25 H -0.3234 -0.2810 0.2445
H26 H -0.1999 -0.3100 0.3010
H27 H -0.2723 -0.3725 0.1842
C32 C -0.1763(11) -0.1807(14) 0.1208(7)
H28 H -0.1466 -0.0966 0.1305
H29 H -0.2730 -0.2150 0.0893
H30 H -0.1294 -0.2133 0.0771
C10A C 0.1512(4) 0.2045(3) 0.3851(3)
C1A C 0.0104(4) 0.1539(3) 0.3517(3)
C2A C -0.0746(4) 0.1841(4) 0.2772(3)
H1A H -0.0459 0.2404 0.2418
C3A C -0.2031(4) 0.1173(4) 0.2670(3)
H2A H -0.2811 0.1176 0.2230
C4A C -0.1980(4) 0.0454(4) 0.3364(3)
C5A C -0.3103(4) -0.0354(4) 0.3504(3)
C6A C -0.3053(4) -0.1018(3) 0.4204(3)
C7A C -0.4206(4) -0.1853(4) 0.4324(3)
H3A H -0.5108 -0.2045 0.3952
C8A C -0.3784(4) -0.2319(4) 0.5059(3)
H4A H -0.4331 -0.2888 0.5309
C9A C -0.2338(4) -0.1784(3) 0.5395(3)
N2A N -0.1923(3) -0.0988(3) 0.4863(2)
C11A C -0.4468(4) -0.0505(3) 0.2877(3)
C12A C -0.5316(4) -0.0060(4) 0.3301(3)
H5A H -0.5036 0.0336 0.3997
C13A C -0.6578(4) -0.0186(4) 0.2720(4)
H6A H -0.7140 0.0133 0.3020
C14A C -0.7008(4) -0.0776(4) 0.1708(3)
C15A C -0.6181(4) -0.1250(4) 0.1285(4)
H7A H -0.6473 -0.1675 0.0597
C16A C -0.4921(4) -0.1101(4) 0.1872(3)
H8A H -0.4358 -0.1420 0.1572
O1A O -0.8224(3) -0.0796(3) 0.1183(3)
C17A C -0.8754(5) -0.1511(4) 0.0168(4)
H9A H -0.9519 -0.1326 -0.0172
H10A H -0.8057 -0.1326 -0.0197
C18A C -0.9220(4) -0.2803(4) 0.0102(4)
O2A O -0.9558(3) -0.3136(3) 0.0823(3)
O3A O -0.9252(3) -0.3442(3) -0.0719(3)
N1A N -0.0667(3) 0.0708(3) 0.3884(2)
C19A C 0.2179(4) 0.2926(4) 0.3363(3)
C20A C 0.2146(4) 0.2641(4) 0.2348(3)
H11A H 0.1674 0.1864 0.1956
C21A C 0.2786(4) 0.3464(4) 0.1891(3)
H12A H 0.2738 0.3249 0.1195
C22A C 0.3484(4) 0.4586(4) 0.2452(4)
C23A C 0.3530(5) 0.4897(4) 0.3470(4)
H13A H 0.4006 0.5675 0.3857
C24A C 0.2892(5) 0.4084(4) 0.3917(4)
H14A H 0.2934 0.4309 0.4611
O4A O 0.4189(3) 0.5471(3) 0.2094(3)
C25A C 0.3885(4) 0.5292(5) 0.1035(4)
H15A H 0.4023 0.4577 0.0728
H16A H 0.4510 0.5948 0.0873
C26A C 0.2438(4) 0.5187(4) 0.0571(4)
O5A O 0.1751(3) 0.5345(3) 0.1150(3)
O6A O 0.2090(3) 0.4941(4) -0.0374(3)
Zn1A Zn -1.01991(5) -0.48032(5) 0.10220(4)
Zn2A Zn -0.00314(15) 0.01943(11) 0.51603(10)
O7A O -1.0014(3) -0.4387(3) 0.2485(2)
C27A C -0.8995(5) -0.3602(5) 0.3032(4)
H17A H -0.8357 -0.3223 0.2716
N3A N -0.8718(5) -0.3248(5) 0.4003(4)
C28A C -0.7568(7) -0.2219(8) 0.4563(6)
H18A H -0.7151 -0.1852 0.4092
H19A H -0.6919 -0.2435 0.5000
H20A H -0.7860 -0.1675 0.4976
C29A C -0.9667(13) -0.3742(10) 0.4514(6)
H21A H -1.0345 -0.3376 0.4472
H22A H -0.9209 -0.3613 0.5222
H23A H -1.0101 -0.4576 0.4198
O8A O -0.0050(6) 0.1524(5) 0.6357(5)
C30A C 0.0318(6) 0.1490(6) 0.7272(5)
H24A H -0.0343 0.1009 0.7514
N4A N 0.1490(6) 0.2038(6) 0.7909(5)
C31A C 0.2445(8) 0.3003(7) 0.7629(8)
H25A H 0.3234 0.2810 0.7555
H26A H 0.1999 0.3100 0.6990
H27A H 0.2723 0.3725 0.8158
C32A C 0.1763(11) 0.1807(14) 0.8792(7)
H28A H 0.1466 0.0966 0.8695
H29A H 0.2730 0.2150 0.9107
H30A H 0.1294 0.2133 0.9229
O3A_2 O 1.0748(3) 0.6558(3) 0.9281(3)
O5_2 O 0.8249(3) 0.4655(3) 0.8850(3)
O6A_2 O 1.2090(3) 0.4941(4) 0.9626(3)
Zn1A_2 Zn 0.98009(5) 0.51968(5) 1.10220(4)
Zn1_2 Zn 0.01991(5) -0.51968(5) 0.89780(4)
Zn1A_3 Zn -0.01991(5) -0.48032(5) 1.10220(4)
Zn1_3 Zn -0.98009(5) -0.51968(5) -0.10220(4)
Zn1A_4 Zn -0.01991(5) 0.51968(5) 0.10220(4)
Zn1_4 Zn 0.01991(5) 0.48032(5) -0.10220(4)
O3_2 O -1.0748(3) -0.6558(3) 0.0719(3)
O5A_2 O -0.8249(3) -0.4655(3) 0.1150(3)
O6_2 O -1.2090(3) -0.4941(4) 0.0374(3)
loop_
_geom_bond_atom_site_label_1
_geom_bond_atom_site_label_2
_geom_bond_site_symmetry_1
_geom_bond_site_symmetry_2
Zn1 O2 1_555 1_555
Zn2 N1 1_555 1_555
C1 C2 1_555 1_555
C2 H1 1_555 1_555
C3 C2 1_555 1_555
H2 C3 1_555 1_555
C4 C3 1_555 1_555
C5 C4 1_555 1_555
C6 C5 1_555 1_555
C7 C6 1_555 1_555
H3 C7 1_555 1_555
C8 C7 1_555 1_555
H4 C8 1_555 1_555
C9 C8 1_555 1_555
C10 C1 1_555 1_555
N1 C1 1_555 1_555
N2 Zn2 1_555 1_555
C11 C5 1_555 1_555
C12 C11 1_555 1_555
H5 C12 1_555 1_555
C13 C12 1_555 1_555
H6 C13 1_555 1_555
C14 C13 1_555 1_555
C15 C14 1_555 1_555
H7 C15 1_555 1_555
C16 C11 1_555 1_555
H8 C16 1_555 1_555
O1 C14 1_555 1_555
C17 O1 1_555 1_555
H9 C17 1_555 1_555
H10 C17 1_555 1_555
C18 C17 1_555 1_555
O2 C18 1_555 1_555
O3 C18 1_555 1_555
C19 C10 1_555 1_555
C20 C19 1_555 1_555
H11 C20 1_555 1_555
C21 C20 1_555 1_555
H12 C21 1_555 1_555
C22 C21 1_555 1_555
C23 C22 1_555 1_555
H13 C23 1_555 1_555
C24 C19 1_555 1_555
H14 C24 1_555 1_555
O4 C22 1_555 1_555
C25 O4 1_555 1_555
H15 C25 1_555 1_555
H16 C25 1_555 1_555
C26 C25 1_555 1_555
O5 C26 1_555 1_555
O6 C26 1_555 1_555
O7 Zn1 1_555 1_555
C27 O7 1_555 1_555
H17 C27 1_555 1_555
N3 C27 1_555 1_555
C28 N3 1_555 1_555
H18 C28 1_555 1_555
H19 C28 1_555 1_555
H20 C28 1_555 1_555
C29 N3 1_555 1_555
H21 C29 1_555 1_555
H22 C29 1_555 1_555
H23 C29 1_555 1_555
O8 Zn2 1_555 1_555
C30 O8 1_555 1_555
H24 C30 1_555 1_555
N4 C30 1_555 1_555
C31 N4 1_555 1_555
H25 C31 1_555 1_555
H26 C31 1_555 1_555
H27 C31 1_555 1_555
C32 N4 1_555 1_555
H28 C32 1_555 1_555
H29 C32 1_555 1_555
H30 C32 1_555 1_555
O9 C33 1_555 1_555
C33 H31 1_555 1_555
N5 C33 1_555 1_555
C34 N5 1_555 1_555
H32 C34 1_555 1_555
H33 C34 1_555 1_555
H34 C34 1_555 1_555
C35 N5 1_555 1_555
H35 C35 1_555 1_555
H36 C35 1_555 1_555
H37 C35 1_555 1_555
C10A C9 1_555 1_555
C1A C10A 1_555 1_555
C2A C1A 1_555 1_555
H1A C2A 1_555 1_555
C3A C2A 1_555 1_555
H2A C3A 1_555 1_555
C4A C3A 1_555 1_555
C5A C4A 1_555 1_555
C6A C5A 1_555 1_555
C7A C6A 1_555 1_555
H3A C7A 1_555 1_555
C8A C7A 1_555 1_555
H4A C8A 1_555 1_555
C9A C10 1_555 1_555
N2A Zn2 1_555 1_555
C11A C5A 1_555 1_555
C12A C11A 1_555 1_555
H5A C12A 1_555 1_555
C13A C12A 1_555 1_555
H6A C13A 1_555 1_555
C14A C13A 1_555 1_555
C15A C14A 1_555 1_555
H7A C15A 1_555 1_555
C16A C11A 1_555 1_555
H8A C16A 1_555 1_555
O1A C14A 1_555 1_555
C17A O1A 1_555 1_555
H9A C17A 1_555 1_555
H10A C17A 1_555 1_555
C18A C17A 1_555 1_555
O2A C18A 1_555 1_555
O3A C18A 1_555 1_555
N1A Zn2 1_555 1_555
C19A C10A 1_555 1_555
C20A C19A 1_555 1_555
H11A C20A 1_555 1_555
C21A C20A 1_555 1_555
H12A C21A 1_555 1_555
C22A C21A 1_555 1_555
C23A C22A 1_555 1_555
H13A C23A 1_555 1_555
C24A C19A 1_555 1_555
H14A C24A 1_555 1_555
O4A C22A 1_555 1_555
C25A O4A 1_555 1_555
H15A C25A 1_555 1_555
H16A C25A 1_555 1_555
C26A C25A 1_555 1_555
O5A C26A 1_555 1_555
O6A C26A 1_555 1_555
Zn1A O2A 1_555 1_555
Zn2A Zn2 1_555 1_555
O7A Zn1A 1_555 1_555
C27A O7A 1_555 1_555
H17A C27A 1_555 1_555
N3A C27A 1_555 1_555
C28A N3A 1_555 1_555
H18A C28A 1_555 1_555
H19A C28A 1_555 1_555
H20A C28A 1_555 1_555
C29A N3A 1_555 1_555
H21A C29A 1_555 1_555
H22A C29A 1_555 1_555
H23A C29A 1_555 1_555
O8A Zn2A 1_555 1_555
C30A O8A 1_555 1_555
H24A C30A 1_555 1_555
N4A C30A 1_555 1_555
C31A N4A 1_555 1_555
H25A C31A 1_555 1_555
H26A C31A 1_555 1_555
H27A C31A 1_555 1_555
C32A N4A 1_555 1_555
H28A C32A 1_555 1_555
H29A C32A 1_555 1_555
H30A C32A 1_555 1_555
O3A_2 Zn1 1_555 1_555
O5_2 Zn1 1_555 1_555
O6A_2 Zn1 1_555 1_555
Zn1A_2 O3 1_555 1_555
Zn1_2 O5 1_555 1_555
Zn1A_3 O6 1_555 1_555
Zn1_3 O3A 1_555 1_555
Zn1A_4 O5A 1_555 1_555
Zn1_4 O6A 1_555 1_555
O3_2 Zn1A 1_555 1_555
O5A_2 Zn1A 1_555 1_555
O6_2 Zn1A 1_555 1_555
C4 N1 1_555 1_555
C6 N2 1_555 1_555
C9 N2 1_555 1_555
N1 Zn2A 1_555 1_555
N2 Zn2A 1_555 1_555
C15 C16 1_555 1_555
C23 C24 1_555 1_555
C1A N1A 1_555 1_555
C4A N1A 1_555 1_555
C6A N2A 1_555 1_555
C8A C9A 1_555 1_555
C9A N2A 1_555 1_555
N2A Zn2A 1_555 1_555
C15A C16A 1_555 1_555
N1A Zn2A 1_555 1_555
C23A C24A 1_555 1_555

#END
