
#######################################################################
#
#                 Cambridge Crystallographic Data Centre
#                                CCDC 
#
#######################################################################
#
# If this CIF has been generated from an entry in the Cambridge 
# Structural Database, then it will include bibliographic, chemical, 
# crystal, experimental, refinement or atomic coordinate data resulting 
# from the CCDC's data processing and validation procedures.
#
#######################################################################

data_MADHEG
_symmetry_cell_setting           triclinic
_symmetry_space_group_name_H-M   'P -1'
_symmetry_Int_Tables_number      2
_space_group_name_Hall           '-P 1'
loop_
_symmetry_equiv_pos_site_id
_symmetry_equiv_pos_as_xyz
1 x,y,z
2 -x,-y,-z
_cell_length_a                   6.4557(2)
_cell_length_b                   13.1407(4)
_cell_length_c                   16.9417(6)
_cell_angle_alpha                76.069(2)
_cell_angle_beta                 88.4996(13)
_cell_angle_gamma                88.541(2)
_cell_volume                     1394.18
loop_
_atom_site_label
_atom_site_type_symbol
_atom_site_fract_x
_atom_site_fract_y
_atom_site_fract_z
Cu1 Cu 1.0000 0.0000 0.5000
Cu2 Cu 1.40224(15) 0.77872(10) 0.08364(5)
C1 C 1.3226(4) 0.1074(2) 0.37608(16)
C2 C 1.3679(5) 0.2085(2) 0.32216(17)
H1 H 1.4746 0.2227 0.2816
C3 C 1.2304(5) 0.2782(2) 0.34051(18)
H2 H 1.2213 0.3509 0.3151
C4 C 1.0991(4) 0.2219(2) 0.40615(16)
C5 C 0.9305(4) 0.2686(2) 0.43904(17)
C6 C 0.7887(4) 0.2120(2) 0.49491(17)
C7 C 0.6138(5) 0.2580(2) 0.52998(18)
H3 H 0.5762 0.3303 0.5188
C8 C 0.5143(5) 0.1790(2) 0.58150(18)
H4 H 0.3920 0.1850 0.6126
C9 C 0.6286(4) 0.0840(2) 0.58030(17)
C10 C 1.4259(4) 0.0143(2) 0.37200(17)
N1 N 1.1564(4) 0.11725(18) 0.42650(14)
N2 N 0.7952(4) 0.10440(18) 0.52645(14)
C11 C 0.9036(4) 0.3852(2) 0.41083(16)
C12 C 1.0653(5) 0.4508(2) 0.41639(17)
H5 H 1.1898 0.4209 0.4415
C13 C 1.0506(5) 0.5586(2) 0.38642(18)
H6 H 1.1653 0.6014 0.3891
C14 C 0.8670(5) 0.6031(2) 0.35258(18)
C15 C 0.7011(5) 0.5397(3) 0.34825(19)
H7 H 0.5741 0.5702 0.3260
C16 C 0.7205(5) 0.4314(3) 0.37647(18)
H8 H 0.6072 0.3884 0.3722
O1 O 0.8335(4) 0.70928(17) 0.32280(15)
C17 C 1.0120(7) 0.7704(3) 0.2992(2)
H9 H 1.1136 0.7528 0.3434
H10 H 0.9731 0.8455 0.2910
C18 C 1.1125(6) 0.7527(3) 0.2217(3)
O2 O 1.0238(5) 0.7021(3) 0.18142(17)
O3 O 1.2828(5) 0.7967(3) 0.2008(2)
H11 H 1.3861 0.7668 0.2427
C19 C 1.5981(4) 0.0218(2) 0.31027(16)
C20 C 1.5862(5) -0.0262(2) 0.24507(18)
H12 H 1.4732 -0.0703 0.2428
C21 C 1.7381(5) -0.0101(2) 0.18373(17)
H13 H 1.7283 -0.0426 0.1396
C22 C 1.9041(5) 0.0538(2) 0.18733(17)
C23 C 1.9211(5) 0.1001(3) 0.25195(17)
H14 H 2.0359 0.1429 0.2548
C24 C 1.7668(5) 0.0832(2) 0.31312(18)
H15 H 1.7786 0.1147 0.3577
O4 O 2.0447(3) 0.0678(2) 0.12276(13)
C25 C 2.2021(5) 0.1421(3) 0.1194(2)
H16 H 2.1392 0.2103 0.1232
H17 H 2.2962 0.1179 0.1657
C26 C 2.3238(6) 0.1549(4) 0.0395(2)
O5 O 2.2780(5) 0.1096(3) -0.01120(17)
O6 O 2.4746(5) 0.2159(3) 0.03083(19)
H18 H 2.5794 0.1887 0.0728
O7 O 1.1921(5) 0.8867(3) 0.03605(18)
H19 H 1.0690 0.8828 0.0075
H20 H 1.2139 0.9597 0.0279
O8 O 1.5958(6) 0.6866(4) 0.1448(3)
H21 H 1.7207 0.6788 0.1743
H22 H 1.6298 0.6424 0.1063
Cu2A Cu 0.59776(15) -0.77872(10) 0.91636(5)
Cu2A_2 Cu 2.59776(15) 0.22128(10) -0.08364(5)
Cu2_2 Cu -0.59776(15) -0.22128(10) 1.08364(5)
C1A C 0.6774(4) -0.1074(2) 0.62392(16)
C2A C 0.6321(5) -0.2085(2) 0.67784(17)
H1A H 0.5254 -0.2227 0.7184
C3A C 0.7696(5) -0.2782(2) 0.65949(18)
H2A H 0.7787 -0.3509 0.6849
C4A C 0.9009(4) -0.2219(2) 0.59385(16)
C5A C 1.0695(4) -0.2686(2) 0.56096(17)
C6A C 1.2113(4) -0.2120(2) 0.50509(17)
C7A C 1.3862(5) -0.2580(2) 0.47002(18)
H3A H 1.4238 -0.3303 0.4812
C8A C 1.4857(5) -0.1790(2) 0.41850(18)
H4A H 1.6080 -0.1850 0.3874
C9A C 1.3714(4) -0.0840(2) 0.41970(17)
C10A C 0.5741(4) -0.0143(2) 0.62800(17)
N1A N 0.8436(4) -0.11725(18) 0.57350(14)
N2A N 1.2048(4) -0.10440(18) 0.47355(14)
C11A C 1.0964(4) -0.3852(2) 0.58917(16)
C12A C 0.9347(5) -0.4508(2) 0.58361(17)
H5A H 0.8102 -0.4209 0.5585
C13A C 0.9494(5) -0.5586(2) 0.61358(18)
H6A H 0.8347 -0.6014 0.6109
C14A C 1.1330(5) -0.6031(2) 0.64742(18)
C15A C 1.2989(5) -0.5397(3) 0.65175(19)
H7A H 1.4259 -0.5702 0.6740
C16A C 1.2795(5) -0.4314(3) 0.62353(18)
H8A H 1.3928 -0.3884 0.6278
O1A O 1.1665(4) -0.70928(17) 0.67720(15)
C17A C 0.9880(7) -0.7704(3) 0.7008(2)
H9A H 0.8864 -0.7528 0.6566
H10A H 1.0269 -0.8455 0.7090
C18A C 0.8875(6) -0.7527(3) 0.7783(3)
O2A O 0.9762(5) -0.7021(3) 0.81858(17)
O3A O 0.7172(5) -0.7967(3) 0.7992(2)
H11A H 0.6139 -0.7668 0.7573
C19A C 0.4019(4) -0.0218(2) 0.68973(16)
C20A C 0.4138(5) 0.0262(2) 0.75493(18)
H12A H 0.5268 0.0703 0.7572
C21A C 0.2619(5) 0.0101(2) 0.81627(17)
H13A H 0.2717 0.0426 0.8604
C22A C 0.0959(5) -0.0538(2) 0.81267(17)
C23A C 0.0789(5) -0.1001(3) 0.74805(17)
H14A H -0.0359 -0.1429 0.7452
C24A C 0.2332(5) -0.0832(2) 0.68688(18)
H15A H 0.2214 -0.1147 0.6423
O4A O -0.0447(3) -0.0678(2) 0.87724(13)
C25A C -0.2021(5) -0.1421(3) 0.8806(2)
H16A H -0.1392 -0.2103 0.8768
H17A H -0.2962 -0.1179 0.8343
C26A C -0.3238(6) -0.1549(4) 0.9605(2)
O5A O -0.2780(5) -0.1096(3) 1.01120(17)
O6A O -0.4746(5) -0.2159(3) 0.96917(19)
O6A_2 O 1.5254(5) 0.7841(3) -0.03083(19)
O6_2 O 0.4746(5) -0.7841(3) 1.03083(19)
H18A H -0.5794 -0.1887 0.9272
H18A_2 H 1.4206 0.8113 -0.0728
H18_2 H 0.5794 -0.8113 1.0728
O7A O 0.8079(5) -0.8867(3) 0.96395(18)
H19A H 0.9310 -0.8828 0.9925
H20A H 0.7861 -0.9597 0.9721
O8A O 0.4042(6) -0.6866(4) 0.8552(3)
H21A H 0.2793 -0.6788 0.8257
H22A H 0.3702 -0.6424 0.8937
loop_
_geom_bond_atom_site_label_1
_geom_bond_atom_site_label_2
_geom_bond_site_symmetry_1
_geom_bond_site_symmetry_2
Cu1 N1 1_555 1_555
Cu2 O3 1_555 1_555
C1 C2 1_555 1_555
C2 H1 1_555 1_555
C3 C2 1_555 1_555
H2 C3 1_555 1_555
C4 C3 1_555 1_555
C5 C4 1_555 1_555
C6 C5 1_555 1_555
C7 C6 1_555 1_555
H3 C7 1_555 1_555
C8 C7 1_555 1_555
H4 C8 1_555 1_555
C9 C8 1_555 1_555
C10 C1 1_555 1_555
N1 C1 1_555 1_555
N2 Cu1 1_555 1_555
C11 C5 1_555 1_555
C12 C11 1_555 1_555
H5 C12 1_555 1_555
C13 C12 1_555 1_555
H6 C13 1_555 1_555
C14 C13 1_555 1_555
C15 C14 1_555 1_555
H7 C15 1_555 1_555
C16 C11 1_555 1_555
H8 C16 1_555 1_555
O1 C14 1_555 1_555
C17 O1 1_555 1_555
H9 C17 1_555 1_555
H10 C17 1_555 1_555
C18 C17 1_555 1_555
O2 C18 1_555 1_555
O3 C18 1_555 1_555
H11 O3 1_555 1_555
C19 C10 1_555 1_555
C20 C19 1_555 1_555
H12 C20 1_555 1_555
C21 C20 1_555 1_555
H13 C21 1_555 1_555
C22 C21 1_555 1_555
C23 C22 1_555 1_555
H14 C23 1_555 1_555
C24 C19 1_555 1_555
H15 C24 1_555 1_555
O4 C22 1_555 1_555
C25 O4 1_555 1_555
H16 C25 1_555 1_555
H17 C25 1_555 1_555
C26 C25 1_555 1_555
O5 C26 1_555 1_555
O6 C26 1_555 1_555
H18 O6 1_555 1_555
O7 Cu2 1_555 1_555
H19 O7 1_555 1_555
H20 O7 1_555 1_555
O8 Cu2 1_555 1_555
H21 O8 1_555 1_555
H22 O8 1_555 1_555
Cu2A O3A 1_555 1_555
Cu2A_2 O6 1_555 1_555
Cu2_2 O6A 1_555 1_555
C1A C2A 1_555 1_555
C2A H1A 1_555 1_555
C3A C2A 1_555 1_555
H2A C3A 1_555 1_555
C4A C3A 1_555 1_555
C5A C4A 1_555 1_555
C6A C5A 1_555 1_555
C7A C6A 1_555 1_555
H3A C7A 1_555 1_555
C8A C7A 1_555 1_555
H4A C8A 1_555 1_555
C9A C10 1_555 1_555
C10A C9 1_555 1_555
N1A Cu1 1_555 1_555
N2A Cu1 1_555 1_555
C11A C5A 1_555 1_555
C12A C11A 1_555 1_555
H5A C12A 1_555 1_555
C13A C12A 1_555 1_555
H6A C13A 1_555 1_555
C14A C13A 1_555 1_555
C15A C14A 1_555 1_555
H7A C15A 1_555 1_555
C16A C11A 1_555 1_555
H8A C16A 1_555 1_555
O1A C14A 1_555 1_555
C17A O1A 1_555 1_555
H9A C17A 1_555 1_555
H10A C17A 1_555 1_555
C18A C17A 1_555 1_555
O2A C18A 1_555 1_555
O3A C18A 1_555 1_555
H11A O3A 1_555 1_555
C19A C10A 1_555 1_555
C20A C19A 1_555 1_555
H12A C20A 1_555 1_555
C21A C20A 1_555 1_555
H13A C21A 1_555 1_555
C22A C21A 1_555 1_555
C23A C22A 1_555 1_555
H14A C23A 1_555 1_555
C24A C19A 1_555 1_555
H15A C24A 1_555 1_555
O4A C22A 1_555 1_555
C25A O4A 1_555 1_555
H16A C25A 1_555 1_555
H17A C25A 1_555 1_555
C26A C25A 1_555 1_555
O5A C26A 1_555 1_555
O6A C26A 1_555 1_555
O6A_2 Cu2 1_555 1_555
O6_2 Cu2A 1_555 1_555
H18A O6A 1_555 1_555
H18A_2 O6A_2 1_555 1_555
H18_2 O6_2 1_555 1_555
O7A Cu2A 1_555 1_555
H19A O7A 1_555 1_555
H20A O7A 1_555 1_555
O8A Cu2A 1_555 1_555
H21A O8A 1_555 1_555
H22A O8A 1_555 1_555
C4 N1 1_555 1_555
C6 N2 1_555 1_555
C9 N2 1_555 1_555
C15 C16 1_555 1_555
C23 C24 1_555 1_555
C1A C10A 1_555 1_555
C1A N1A 1_555 1_555
C4A N1A 1_555 1_555
C6A N2A 1_555 1_555
C8A C9A 1_555 1_555
C9A N2A 1_555 1_555
C15A C16A 1_555 1_555
C23A C24A 1_555 1_555

#END
