
#######################################################################
#
#                 Cambridge Crystallographic Data Centre
#                                CCDC 
#
#######################################################################
#
# If this CIF has been generated from an entry in the Cambridge 
# Structural Database, then it will include bibliographic, chemical, 
# crystal, experimental, refinement or atomic coordinate data resulting 
# from the CCDC's data processing and validation procedures.
#
#######################################################################

data_MADPUE
_symmetry_cell_setting           triclinic
_symmetry_space_group_name_H-M   'P -1'
_symmetry_Int_Tables_number      2
_space_group_name_Hall           '-P 1'
loop_
_symmetry_equiv_pos_site_id
_symmetry_equiv_pos_as_xyz
1 x,y,z
2 -x,-y,-z
_cell_length_a                   7.6560(10)
_cell_length_b                   10.7450(12)
_cell_length_c                   12.8400(16)
_cell_angle_alpha                100.5490(10)
_cell_angle_beta                 100.3230(10)
_cell_angle_gamma                109.900(2)
_cell_volume                     942.495
loop_
_atom_site_label
_atom_site_type_symbol
_atom_site_fract_x
_atom_site_fract_y
_atom_site_fract_z
Cu1 Cu 0.79397(8) 0.83346(5) 0.06172(4)
Mo1 Mo 0.69880(4) 0.98824(3) 0.33478(2)
Mo2 Mo 0.72709(4) 1.03720(3) 0.59081(2)
Mo3 Mo 0.58114(4) 1.28441(3) 0.58997(2)
Mo4 Mo 0.54532(4) 1.23594(3) 0.32749(2)
N1 N 0.7715(5) 0.6526(3) 0.0523(3)
N2 N 0.8271(5) 0.0120(3) 0.0543(3)
O1 O 0.5991(3) 1.1088(2) 0.46264(17)
O2 O 0.6939(4) 0.8627(3) 0.2304(2)
O3 O 0.9275(3) 1.1062(3) 0.3747(2)
O4 O 0.5764(3) 1.0788(2) 0.25176(18)
O5 O 0.3853(3) 0.8502(2) 0.32945(17)
O6 O 0.7337(3) 0.9367(2) 0.68254(19)
O7 O 0.9534(3) 1.1536(2) 0.6171(2)
O8 O 0.8157(4) 1.3898(3) 0.6150(2)
O9 O 0.4749(3) 1.3117(2) 0.45387(19)
O10 O 0.7099(3) 0.9055(2) 0.46010(18)
O11 O 0.4883(4) 1.3698(3) 0.6742(2)
O12 O 0.4326(4) 1.2816(3) 0.2238(2)
O13 O 0.7802(4) 1.3491(3) 0.3639(2)
C1 C 0.8276(7) 0.6219(4) 0.1451(3)
H1 H 0.8608 0.6879 0.2111
C2 C 0.8390(6) 0.4978(4) 0.1484(3)
H2 H 0.8790 0.4809 0.2153
C3 C 0.7901(5) 0.3978(3) 0.0510(3)
C4 C 0.7240(5) 0.4277(4) -0.0448(3)
H3 H 0.6847 0.3619 -0.1115
C5 C 0.7159(6) 0.5544(4) -0.0425(3)
H4 H 0.6708 0.5725 -0.1079
C6 C 0.9369(5) 0.1239(4) 0.1361(3)
H5 H 1.0206 0.1161 0.1943
C7 C 0.9300(5) 0.2514(4) 0.1367(3)
H6 H 1.0070 0.3269 0.1954
C8 C 0.8090(5) 0.2664(3) 0.0504(3)
C9 C 0.7034(7) 0.1506(4) -0.0367(3)
H7 H 0.6260 0.1568 -0.0986
C10 C 0.7144(7) 0.0269(4) -0.0305(3)
H8 H 0.6397 -0.0502 -0.0884
Cu1_2 Cu 0.79397(8) 1.83346(5) 0.06172(4)
Cu1_3 Cu 0.79397(8) -0.16654(5) 0.06172(4)
Cu1A Cu 0.20603(8) 1.16654(5) 0.93828(4)
Mo1A Mo 0.30120(4) 1.01176(3) 0.66522(2)
Mo2A Mo 0.27291(4) 0.96280(3) 0.40919(2)
Mo3A Mo 0.41886(4) 0.71559(3) 0.41003(2)
Mo4A Mo 0.45468(4) 0.76406(3) 0.67251(2)
N1_2 N 0.7715(5) 1.6526(3) 0.0523(3)
N2_2 N 0.8271(5) 1.0120(3) 0.0543(3)
N2_3 N 0.8271(5) 2.0120(3) 0.0543(3)
O1A O 0.4009(3) 0.8912(2) 0.53736(17)
O2A O 0.3061(4) 1.1373(3) 0.7696(2)
O2_2 O 0.6939(4) 1.8627(3) 0.2304(2)
O3A O 0.0725(3) 0.8938(3) 0.6253(2)
O4A O 0.4236(3) 0.9212(2) 0.74824(18)
O5A O 0.6147(3) 1.1498(2) 0.67055(17)
O6A O 0.2663(3) 1.0633(2) 0.31746(19)
O7A O 0.0466(3) 0.8464(2) 0.3829(2)
O8A O 0.1843(4) 0.6102(3) 0.3850(2)
O9A O 0.5251(3) 0.6883(2) 0.54613(19)
O10A O 0.2901(3) 1.0945(2) 0.53990(18)
O11A O 0.5117(4) 0.6302(3) 0.3258(2)
O12A O 0.5674(4) 0.7184(3) 0.7762(2)
O13A O 0.2198(4) 0.6509(3) 0.6361(2)
C1_2 C 0.8276(7) 1.6219(4) 0.1451(3)
H1_2 H 0.8608 1.6879 0.2111
C2_2 C 0.8390(6) 1.4978(4) 0.1484(3)
H2_2 H 0.8790 1.4809 0.2153
C3_2 C 0.7901(5) 1.3978(3) 0.0510(3)
C4_2 C 0.7240(5) 1.4277(4) -0.0448(3)
H3_2 H 0.6847 1.3619 -0.1115
C5_2 C 0.7159(6) 1.5544(4) -0.0425(3)
H4_2 H 0.6708 1.5725 -0.1079
C6_2 C 0.9369(5) 1.1239(4) 0.1361(3)
H5_2 H 1.0206 1.1161 0.1943
C7_2 C 0.9300(5) 1.2514(4) 0.1367(3)
H6_2 H 1.0070 1.3269 0.1954
C8_2 C 0.8090(5) 1.2664(3) 0.0504(3)
C9_2 C 0.7034(7) 1.1506(4) -0.0367(3)
H7_2 H 0.6260 1.1568 -0.0986
C10_2 C 0.7144(7) 1.0269(4) -0.0305(3)
H8_2 H 0.6397 0.9498 -0.0884
N3 N 0.1443(5) 0.3701(3) 0.5115(3)
H9 H 0.1864 0.4540 0.5581
H10 H 0.0612 0.3668 0.4508
H11 H 0.0854 0.3057 0.5435
H12 H 0.2443 0.3538 0.4936
loop_
_geom_bond_atom_site_label_1
_geom_bond_atom_site_label_2
_geom_bond_site_symmetry_1
_geom_bond_site_symmetry_2
Cu1 N1 1_555 1_555
Mo1 O1 1_555 1_555
Mo2 O1 1_555 1_555
Mo3 O1 1_555 1_555
Mo4 O1 1_555 1_555
N1 C1 1_555 1_555
N2 C6 1_555 1_555
O1 Mo2A 1_555 1_555
O2 Cu1 1_555 1_555
O3 Mo1 1_555 1_555
O4 Mo1 1_555 1_555
O5 Mo1 1_555 1_555
O6 Mo2 1_555 1_555
O7 Mo2 1_555 1_555
O8 Mo3 1_555 1_555
O9 Mo3 1_555 1_555
O10 Mo1 1_555 1_555
O11 Mo3 1_555 1_555
O12 Mo4 1_555 1_555
O13 Mo4 1_555 1_555
C1 H1 1_555 1_555
C2 C1 1_555 1_555
H2 C2 1_555 1_555
C3 C2 1_555 1_555
C4 C3 1_555 1_555
H3 C4 1_555 1_555
C5 N1 1_555 1_555
H4 C5 1_555 1_555
C6 H5 1_555 1_555
C7 C6 1_555 1_555
H6 C7 1_555 1_555
C8 C3 1_555 1_555
C9 C8 1_555 1_555
H7 C9 1_555 1_555
C10 N2 1_555 1_555
H8 C10 1_555 1_555
N3 H9 1_555 1_555
H10 N3 1_555 1_555
H11 N3 1_555 1_555
H12 N3 1_555 1_555
Cu1_2 N1_2 1_555 1_555
Cu1_3 N2 1_555 1_555
Cu1A O2A 1_555 1_555
Mo1A O1A 1_555 1_555
Mo2A O5 1_555 1_555
Mo3A O5 1_555 1_555
Mo4A O6 1_555 1_555
N1_2 C1_2 1_555 1_555
N2_2 Cu1 1_555 1_555
N2_3 Cu1_2 1_555 1_555
O1A Mo2 1_555 1_555
O2A Mo1A 1_555 1_555
O2_2 Cu1_2 1_555 1_555
O3A Mo1A 1_555 1_555
O4A Mo1A 1_555 1_555
O5A Mo2 1_555 1_555
O6A Mo4 1_555 1_555
O7A Mo2A 1_555 1_555
O8A Mo3A 1_555 1_555
O9A Mo3A 1_555 1_555
O10A Mo3 1_555 1_555
O11A Mo3A 1_555 1_555
O12A Mo4A 1_555 1_555
O13A Mo4A 1_555 1_555
C1_2 H1_2 1_555 1_555
C2_2 C1_2 1_555 1_555
H2_2 C2_2 1_555 1_555
C3_2 C2_2 1_555 1_555
C4_2 C3_2 1_555 1_555
H3_2 C4_2 1_555 1_555
C5_2 N1_2 1_555 1_555
H4_2 C5_2 1_555 1_555
C6_2 N2_2 1_555 1_555
H5_2 C6_2 1_555 1_555
C7_2 C6_2 1_555 1_555
H6_2 C7_2 1_555 1_555
C8_2 C3_2 1_555 1_555
C9_2 C8_2 1_555 1_555
H7_2 C9_2 1_555 1_555
C10_2 N2_2 1_555 1_555
H8_2 C10_2 1_555 1_555
Mo1 O2 1_555 1_555
Mo2 O10 1_555 1_555
Mo3 O5A 1_555 1_555
Mo4 O4 1_555 1_555
Mo4 O9 1_555 1_555
O10 Mo3A 1_555 1_555
C4 C5 1_555 1_555
C7 C8 1_555 1_555
C9 C10 1_555 1_555
Mo1A O5A 1_555 1_555
Mo1A O10A 1_555 1_555
Mo2A O1A 1_555 1_555
Mo2A O6A 1_555 1_555
Mo2A O10A 1_555 1_555
Mo3A O1A 1_555 1_555
Mo4A O1A 1_555 1_555
Mo4A O4A 1_555 1_555
Mo4A O9A 1_555 1_555
C4_2 C5_2 1_555 1_555
C7_2 C8_2 1_555 1_555
C9_2 C10_2 1_555 1_555

#END
