
#######################################################################
#
#                 Cambridge Crystallographic Data Centre
#                                CCDC 
#
#######################################################################
#
# If this CIF has been generated from an entry in the Cambridge 
# Structural Database, then it will include bibliographic, chemical, 
# crystal, experimental, refinement or atomic coordinate data resulting 
# from the CCDC's data processing and validation procedures.
#
#######################################################################

data_MADQUF
_symmetry_cell_setting           monoclinic
_symmetry_space_group_name_H-M   'C 2/c'
_symmetry_Int_Tables_number      15
_space_group_name_Hall           '-C 2yn'
loop_
_symmetry_equiv_pos_site_id
_symmetry_equiv_pos_as_xyz
1 x,y,z
2 -x,y,1/2-z
3 1/2+x,1/2+y,z
4 1/2-x,1/2+y,1/2-z
5 -x,-y,-z
6 x,-y,1/2+z
7 1/2-x,1/2-y,-z
8 1/2+x,1/2-y,1/2+z
_cell_length_a                   20.216(3)
_cell_length_b                   9.5146(13)
_cell_length_c                   11.4262(15)
_cell_angle_alpha                90
_cell_angle_beta                 117.0460(10)
_cell_angle_gamma                90
_cell_volume                     1957.45
loop_
_atom_site_label
_atom_site_type_symbol
_atom_site_fract_x
_atom_site_fract_y
_atom_site_fract_z
Cu1 Cu 1.0000 0.5000 0.0000
N1 N 1.08545(12) 0.3955(2) -0.0104(2)
N2 N 0.93069(18) 0.0167(3) 0.2911(3)
O1 O 0.99240(10) 0.3501(2) 0.1070(2)
O2 O 0.89301(15) 0.3007(3) -0.0801(2)
C1 C 0.93291(16) 0.2798(3) 0.0392(3)
C2 C 0.90946(15) 0.1759(3) 0.1120(3)
C3 C 0.83352(16) 0.1560(3) 0.0669(3)
H1 H 0.8005 0.2003 -0.0102
C4 C 0.80577(17) 0.0724(3) 0.1331(3)
H2 H 0.7548 0.0628 0.1024
C5 C 0.8546(2) 0.0031(3) 0.2455(4)
H3 H 0.8364 -0.0531 0.2910
C6 C 0.95871(14) 0.1060(3) 0.2254(3)
C7 C 1.10131(16) 0.4081(4) -0.1111(3)
H4 H 1.0685 0.4582 -0.1846
C8 C 1.16362(16) 0.3510(4) -0.1122(3)
H5 H 1.1714 0.3610 -0.1860
C9 C 1.21504(14) 0.2783(3) -0.0027(3)
C10 C 1.19839(17) 0.2663(3) 0.1016(3)
H6 H 1.2309 0.2191 0.1772
C11 C 1.13380(16) 0.3238(3) 0.0945(3)
H7 H 1.1236 0.3121 0.1655
Cu1B Cu 1.5000 0.0000 0.0000
Cu1A Cu 1.0000 0.5000 0.5000
N1F N 1.41455(12) 0.1045(2) 0.0104(2)
N1D N 0.91455(12) 0.6045(2) 0.0104(2)
N2A N 1.06931(18) 0.0167(3) 0.2089(3)
O1A O 1.00760(10) 0.3501(2) 0.3930(2)
O1D O 1.00760(10) 0.6499(2) -0.1070(2)
O2A O 1.10699(15) 0.3007(3) 0.5801(2)
C1A C 1.06709(16) 0.2798(3) 0.4608(3)
C2A C 1.09054(15) 0.1759(3) 0.3880(3)
C3A C 1.16648(16) 0.1560(3) 0.4331(3)
H1A H 1.1995 0.2003 0.5102
C4A C 1.19423(17) 0.0724(3) 0.3669(3)
H2A H 1.2452 0.0628 0.3976
C5A C 1.1454(2) 0.0031(3) 0.2545(4)
H3A H 1.1636 -0.0531 0.2090
C6A C 1.04129(14) 0.1060(3) 0.2746(3)
C7F C 1.39869(16) 0.0919(4) 0.1111(3)
H4F H 1.4315 0.0418 0.1846
C8F C 1.33638(16) 0.1490(4) 0.1122(3)
H5F H 1.3286 0.1390 0.1860
C9F C 1.28496(14) 0.2217(3) 0.0027(3)
C10F C 1.30161(17) 0.2337(3) -0.1016(3)
H6F H 1.2691 0.2809 -0.1772
C11F C 1.36620(16) 0.1762(3) -0.0945(3)
H7F H 1.3764 0.1879 -0.1655
loop_
_geom_bond_atom_site_label_1
_geom_bond_atom_site_label_2
_geom_bond_site_symmetry_1
_geom_bond_site_symmetry_2
Cu1 N1 1_555 1_555
N1 C7 1_555 1_555
N2 C5 1_555 1_555
O1 Cu1 1_555 1_555
O2 C1 1_555 1_555
C1 O1 1_555 1_555
C2 C1 1_555 1_555
C3 C2 1_555 1_555
H1 C3 1_555 1_555
C4 C3 1_555 1_555
H2 C4 1_555 1_555
C5 C4 1_555 1_555
H3 C5 1_555 1_555
C6 N2 1_555 1_555
C7 H4 1_555 1_555
C8 C7 1_555 1_555
H5 C8 1_555 1_555
C9 C8 1_555 1_555
C10 C9 1_555 1_555
H6 C10 1_555 1_555
C11 N1 1_555 1_555
H7 C11 1_555 1_555
Cu1B N1F 1_555 1_555
Cu1A O1A 1_555 1_555
N1F C7F 1_555 1_555
N1D Cu1 1_555 1_555
N2A C5A 1_555 1_555
O1A C1A 1_555 1_555
O1D Cu1 1_555 1_555
O2A C1A 1_555 1_555
C1A C2A 1_555 1_555
C2A C3A 1_555 1_555
C3A H1A 1_555 1_555
C4A C3A 1_555 1_555
H2A C4A 1_555 1_555
C5A C4A 1_555 1_555
H3A C5A 1_555 1_555
C6A C6 1_555 1_555
C7F H4F 1_555 1_555
C8F C7F 1_555 1_555
H5F C8F 1_555 1_555
C9F C9 1_555 1_555
C10F C9F 1_555 1_555
H6F C10F 1_555 1_555
C11F N1F 1_555 1_555
H7F C11F 1_555 1_555
C2 C6 1_555 1_555
C10 C11 1_555 1_555
N2A C6A 1_555 1_555
C2A C6A 1_555 1_555
C8F C9F 1_555 1_555
C10F C11F 1_555 1_555

#END
