
#######################################################################
#
#                 Cambridge Crystallographic Data Centre
#                                CCDC 
#
#######################################################################
#
# If this CIF has been generated from an entry in the Cambridge 
# Structural Database, then it will include bibliographic, chemical, 
# crystal, experimental, refinement or atomic coordinate data resulting 
# from the CCDC's data processing and validation procedures.
#
#######################################################################

data_MADROA
_symmetry_cell_setting           monoclinic
_symmetry_space_group_name_H-M   'C 2/c'
_symmetry_Int_Tables_number      15
_space_group_name_Hall           '-C 2yn'
loop_
_symmetry_equiv_pos_site_id
_symmetry_equiv_pos_as_xyz
1 x,y,z
2 -x,y,1/2-z
3 1/2+x,1/2+y,z
4 1/2-x,1/2+y,1/2-z
5 -x,-y,-z
6 x,-y,1/2+z
7 1/2-x,1/2-y,-z
8 1/2+x,1/2-y,1/2+z
_cell_length_a                   16.0707(7)
_cell_length_b                   11.7990(5)
_cell_length_c                   24.3007(12)
_cell_angle_alpha                90
_cell_angle_beta                 99.242(5)
_cell_angle_gamma                90
_cell_volume                     4548.04
loop_
_atom_site_label
_atom_site_type_symbol
_atom_site_fract_x
_atom_site_fract_y
_atom_site_fract_z
Cd1 Cd 0.412173(18) 0.49107(3) 0.295692(13)
N1 N 0.4085(3) 0.6898(3) 0.29211(17)
N2 N 0.4111(3) 1.2911(3) 0.28838(18)
O1 O 0.44130(14) 0.4998(3) 0.19919(9)
O2 O 0.30930(14) 0.5042(3) 0.21375(10)
O3 O 0.30298(18) 0.4533(2) 0.35362(13)
O4 O 0.43476(17) 0.4831(3) 0.39339(11)
C1 C 0.3461(3) 0.7473(4) 0.2610(2)
H1 H 0.3014 0.7054 0.2401
C2 C 0.3432(3) 0.8637(4) 0.25765(19)
H2 H 0.2977 0.9003 0.2346
C3 C 0.4075(3) 0.9277(3) 0.2883(2)
C4 C 0.4730(3) 0.8675(4) 0.31949(19)
H3 H 0.5193 0.9069 0.3402
C5 C 0.4710(3) 0.7511(4) 0.3205(2)
H4 H 0.5164 0.7122 0.3424
C6 C 0.4076(3) 1.0534(4) 0.2878(2)
C7 C 0.3765(3) 1.1156(4) 0.2406(2)
H5 H 0.3519 1.0780 0.2074
C8 C 0.3813(3) 1.2322(4) 0.2422(2)
H6 H 0.3626 1.2731 0.2088
C9 C 0.4396(3) 1.2313(4) 0.3338(2)
H7 H 0.4617 1.2713 0.3669
C10 C 0.4388(3) 1.1128(4) 0.3357(2)
H8 H 0.4593 1.0738 0.3693
C11 C 0.3624(3) 0.5081(4) 0.18182(16)
C12 C 0.3333(3) 0.5157(4) 0.11881(17)
H9 H 0.2809 0.5609 0.1106
H10 H 0.3772 0.5523 0.1006
C13 C 0.3178(3) 0.3959(4) 0.09762(18)
C14 C 0.2449(3) 0.3377(4) 0.10449(19)
H11 H 0.2013 0.3757 0.1192
C15 C 0.2360(3) 0.2259(4) 0.0901(2)
H12 H 0.1867 0.1861 0.0957
C16 C 0.2981(3) 0.1702(4) 0.0675(2)
H13 H 0.2919 0.0922 0.0581
C17 C 0.3682(3) 0.2277(5) 0.0586(2)
H14 H 0.4100 0.1896 0.0419
C18 C 0.3797(3) 0.3408(4) 0.07345(19)
H15 H 0.4290 0.3801 0.0673
C19 C 0.3595(3) 0.4587(3) 0.3960(2)
C20 C 0.3357(3) 0.4318(4) 0.4522(2)
H16 H 0.2736 0.4263 0.4485
H17 H 0.3545 0.4945 0.4784
C21 C 0.3753(3) 0.3203(4) 0.4764(2)
C22 C 0.4495(3) 0.3204(5) 0.5145(2)
H18 H 0.4766 0.3901 0.5256
C23 C 0.4849(3) 0.2184(6) 0.5366(2)
H19 H 0.5367 0.2184 0.5617
C24 C 0.4435(4) 0.1180(5) 0.5215(2)
H20 H 0.4667 0.0487 0.5369
C25 C 0.3687(4) 0.1169(4) 0.4843(2)
H21 H 0.3403 0.0475 0.4742
C26 C 0.3361(3) 0.2185(4) 0.4621(2)
H22 H 0.2852 0.2180 0.4361
Cd1_2 Cd 0.412173(18) 1.49107(3) 0.295692(13)
Cd1A Cd 0.587827(18) 0.49107(3) 0.204308(13)
N2_2 N 0.4111(3) 0.2911(3) 0.28838(18)
O1A O 0.55870(14) 0.4998(3) 0.30081(9)
O5 O 0.6638(6) 0.8239(10) 0.3753(5)
loop_
_geom_bond_atom_site_label_1
_geom_bond_atom_site_label_2
_geom_bond_site_symmetry_1
_geom_bond_site_symmetry_2
Cd1 N1 1_555 1_555
N1 C1 1_555 1_555
N2 C8 1_555 1_555
O1 Cd1 1_555 1_555
O2 Cd1 1_555 1_555
O3 Cd1 1_555 1_555
O4 Cd1 1_555 1_555
C1 H1 1_555 1_555
C2 C1 1_555 1_555
H2 C2 1_555 1_555
C3 C2 1_555 1_555
C4 C3 1_555 1_555
H3 C4 1_555 1_555
C5 N1 1_555 1_555
H4 C5 1_555 1_555
C6 C3 1_555 1_555
C7 C6 1_555 1_555
H5 C7 1_555 1_555
C8 C7 1_555 1_555
H6 C8 1_555 1_555
C9 N2 1_555 1_555
H7 C9 1_555 1_555
C10 C6 1_555 1_555
H8 C10 1_555 1_555
C11 O1 1_555 1_555
C12 C11 1_555 1_555
H9 C12 1_555 1_555
H10 C12 1_555 1_555
C13 C12 1_555 1_555
C14 C13 1_555 1_555
H11 C14 1_555 1_555
C15 C14 1_555 1_555
H12 C15 1_555 1_555
C16 C15 1_555 1_555
H13 C16 1_555 1_555
C17 C16 1_555 1_555
H14 C17 1_555 1_555
C18 C13 1_555 1_555
H15 C18 1_555 1_555
C19 O3 1_555 1_555
C20 C19 1_555 1_555
H16 C20 1_555 1_555
H17 C20 1_555 1_555
C21 C20 1_555 1_555
C22 C21 1_555 1_555
H18 C22 1_555 1_555
C23 C22 1_555 1_555
H19 C23 1_555 1_555
C24 C23 1_555 1_555
H20 C24 1_555 1_555
C25 C24 1_555 1_555
H21 C25 1_555 1_555
C26 C21 1_555 1_555
H22 C26 1_555 1_555
Cd1_2 N2 1_555 1_555
Cd1A O1 1_555 1_555
N2_2 Cd1 1_555 1_555
O1A Cd1 1_555 1_555
O2 C11 1_555 1_555
O4 C19 1_555 1_555
C4 C5 1_555 1_555
C9 C10 1_555 1_555
C17 C18 1_555 1_555
C25 C26 1_555 1_555
Cd1A O1A 1_555 1_555

#END
