
#######################################################################
#
#                 Cambridge Crystallographic Data Centre
#                                CCDC 
#
#######################################################################
#
# If this CIF has been generated from an entry in the Cambridge 
# Structural Database, then it will include bibliographic, chemical, 
# crystal, experimental, refinement or atomic coordinate data resulting 
# from the CCDC's data processing and validation procedures.
#
#######################################################################

data_MADSOB
_symmetry_cell_setting           monoclinic
_symmetry_space_group_name_H-M   'P 21/n'
_symmetry_Int_Tables_number      14
_space_group_name_Hall           '-P 2yn'
loop_
_symmetry_equiv_pos_site_id
_symmetry_equiv_pos_as_xyz
1 x,y,z
2 1/2-x,1/2+y,1/2-z
3 -x,-y,-z
4 1/2+x,1/2-y,1/2+z
_cell_length_a                   9.945(1)
_cell_length_b                   16.271(1)
_cell_length_c                   15.483(1)
_cell_angle_alpha                90
_cell_angle_beta                 106.531(1)
_cell_angle_gamma                90
_cell_volume                     2401.83
loop_
_atom_site_label
_atom_site_type_symbol
_atom_site_fract_x
_atom_site_fract_y
_atom_site_fract_z
C1 C -0.2223(3) 0.52659(16) 0.13360(18)
C2 C -0.1702(3) 0.46494(16) 0.07900(17)
C3 C -0.2376(3) 0.45376(18) -0.01204(19)
H1 H -0.3210 0.4811 -0.0391
C4 C -0.1795(3) 0.40169(19) -0.0619(2)
H2 H -0.2250 0.3936 -0.1227
C5 C -0.0542(3) 0.36119(18) -0.0227(2)
H3 H -0.0154 0.3272 -0.0576
C6 C 0.0141(3) 0.37112(16) 0.06880(17)
C7 C -0.0459(3) 0.42328(16) 0.11849(18)
H4 H -0.0019 0.4305 0.1796
C8 C 0.1520(3) 0.33113(16) 0.11085(17)
C9 C 0.2440(3) 0.3163(2) 0.0612(2)
H5 H 0.2188 0.3303 0.0004
C10 C 0.3735(3) 0.2808(2) 0.1001(2)
H6 H 0.4341 0.2716 0.0651
C11 C 0.4145(3) 0.25884(17) 0.19020(18)
C12 C 0.3219(3) 0.27336(16) 0.24047(18)
H7 H 0.3469 0.2589 0.3011
C13 C 0.1931(3) 0.30893(16) 0.20191(17)
H8 H 0.1326 0.3183 0.2369
C14 C 0.5551(3) 0.22112(17) 0.23126(18)
C15 C 1.5347(3) 0.64189(18) 0.3252(2)
H9 H 1.5751 0.6928 0.3438
C16 C 1.4262(4) 0.6153(2) 0.3587(2)
H10 H 1.3968 0.6477 0.3994
C17 C 1.3626(3) 0.5405(2) 0.3311(2)
C18 C 1.4154(4) 0.4950(2) 0.2744(3)
H11 H 1.3783 0.4434 0.2556
C19 C 1.5232(4) 0.5256(2) 0.2453(2)
H12 H 1.5569 0.4931 0.2066
C20 C 1.0198(3) 0.23065(17) 0.40673(19)
H13 H 1.0456 0.1763 0.4213
C21 C 1.1068(3) 0.29179(19) 0.4523(2)
H14 H 1.1895 0.2782 0.4958
C22 C 1.0722(3) 0.37294(17) 0.43386(18)
C23 C 0.9509(3) 0.38819(18) 0.3665(2)
H15 H 0.9240 0.4421 0.3504
C24 C 0.8690(3) 0.32423(18) 0.3229(2)
H16 H 0.7878 0.3365 0.2774
C25 C 1.1641(3) 0.4405(2) 0.4862(2)
H17 H 1.2018 0.4228 0.5482
H18 H 1.1066 0.4886 0.4860
C26 C 1.2869(3) 0.4649(2) 0.4493(2)
H19 H 1.3522 0.4988 0.4935
H20 H 1.3362 0.4157 0.4402
C27 C 1.2395(4) 0.5105(3) 0.3635(3)
H21 H 1.1838 0.5574 0.3713
H22 H 1.1802 0.4751 0.3179
N1 N 1.5832(2) 0.59853(14) 0.26843(15)
N2 N 0.9003(2) 0.24516(13) 0.34264(14)
Ni1 Ni 0.77288(3) 0.14671(2) 0.28984(2)
O1 O -0.32477(18) 0.57266(11) 0.09561(12)
O2 O -0.1610(2) 0.53439(12) 0.21626(12)
O3 O 0.63441(19) 0.20547(13) 0.18200(12)
O4 O 0.59390(19) 0.20502(13) 0.31407(12)
N1A N 0.9168(2) 0.09853(14) 0.23157(15)
Ni1A Ni -0.27288(3) 0.64671(2) 0.21016(2)
Ni1A_2 Ni 1.72712(3) 0.64671(2) 0.21016(2)
O1A O 0.82477(18) 0.07266(11) 0.40439(12)
O2A O 0.6610(2) 0.03439(12) 0.28374(12)
loop_
_geom_bond_atom_site_label_1
_geom_bond_atom_site_label_2
_geom_bond_site_symmetry_1
_geom_bond_site_symmetry_2
C1 C2 1_555 1_555
C2 C3 1_555 1_555
C3 H1 1_555 1_555
C4 C3 1_555 1_555
H2 C4 1_555 1_555
C5 C4 1_555 1_555
H3 C5 1_555 1_555
C6 C5 1_555 1_555
C7 C2 1_555 1_555
H4 C7 1_555 1_555
C8 C6 1_555 1_555
C9 C8 1_555 1_555
H5 C9 1_555 1_555
C10 C9 1_555 1_555
H6 C10 1_555 1_555
C11 C10 1_555 1_555
C12 C11 1_555 1_555
H7 C12 1_555 1_555
C13 C8 1_555 1_555
H8 C13 1_555 1_555
C14 C11 1_555 1_555
C15 H9 1_555 1_555
C16 C15 1_555 1_555
H10 C16 1_555 1_555
C17 C16 1_555 1_555
C18 C17 1_555 1_555
H11 C18 1_555 1_555
C19 C18 1_555 1_555
H12 C19 1_555 1_555
C20 H13 1_555 1_555
C21 C20 1_555 1_555
H14 C21 1_555 1_555
C22 C21 1_555 1_555
C23 C22 1_555 1_555
H15 C23 1_555 1_555
C24 C23 1_555 1_555
H16 C24 1_555 1_555
C25 C22 1_555 1_555
H17 C25 1_555 1_555
H18 C25 1_555 1_555
C26 C25 1_555 1_555
H19 C26 1_555 1_555
H20 C26 1_555 1_555
C27 C17 1_555 1_555
H21 C27 1_555 1_555
H22 C27 1_555 1_555
N1 C15 1_555 1_555
N2 C20 1_555 1_555
Ni1 N2 1_555 1_555
O1 C1 1_555 1_555
O2 C1 1_555 1_555
O3 C14 1_555 1_555
O4 C14 1_555 1_555
N1A Ni1 1_555 1_555
Ni1A O1 1_555 1_555
Ni1A_2 N1 1_555 1_555
O1A Ni1 1_555 1_555
O2A Ni1 1_555 1_555
C6 C7 1_555 1_555
C12 C13 1_555 1_555
C19 N1 1_555 1_555
C24 N2 1_555 1_555
C26 C27 1_555 1_555
Ni1 O3 1_555 1_555
Ni1 O4 1_555 1_555
O2 Ni1A 1_555 1_555

#END
