
#######################################################################
#
#                 Cambridge Crystallographic Data Centre
#                                CCDC 
#
#######################################################################
#
# If this CIF has been generated from an entry in the Cambridge 
# Structural Database, then it will include bibliographic, chemical, 
# crystal, experimental, refinement or atomic coordinate data resulting 
# from the CCDC's data processing and validation procedures.
#
#######################################################################

data_MADSER
_symmetry_cell_setting           orthorhombic
_symmetry_space_group_name_H-M   'P n m a'
_symmetry_Int_Tables_number      62
_space_group_name_Hall           '-P 2ac 2n'
loop_
_symmetry_equiv_pos_site_id
_symmetry_equiv_pos_as_xyz
1 x,y,z
2 1/2-x,-y,1/2+z
3 -x,1/2+y,-z
4 1/2+x,1/2-y,1/2-z
5 -x,-y,-z
6 1/2+x,y,1/2-z
7 x,1/2-y,z
8 1/2-x,1/2+y,1/2+z
_cell_length_a                   10.5900(5)
_cell_length_b                   24.6539(12)
_cell_length_c                   10.1181(5)
_cell_angle_alpha                90
_cell_angle_beta                 90
_cell_angle_gamma                90
_cell_volume                     2641.68
loop_
_atom_site_label
_atom_site_type_symbol
_atom_site_fract_x
_atom_site_fract_y
_atom_site_fract_z
Ag1 Ag 0.62841(2) 0.2500 0.48998(3)
C1 C 0.5393(2) 0.36701(9) 0.5131(2)
C2 C 0.65733(19) 0.45084(8) 0.4703(2)
C3 C 0.77442(18) 0.41766(8) 0.4408(2)
C4 C 0.75533(19) 0.35671(8) 0.4580(2)
C5 C 0.8108(2) 0.42853(10) 0.2951(3)
H1 H 0.8324 0.4666 0.2857
H2 H 0.8856 0.4075 0.2741
C6 C 0.7087(4) 0.41484(13) 0.1958(3)
H3 H 0.7414 0.4191 0.1079
H4 H 0.6381 0.4388 0.2080
H5 H 0.6818 0.3780 0.2085
C7 C 0.8811(2) 0.43647(11) 0.5331(3)
H6 H 0.9581 0.4175 0.5094
H7 H 0.8954 0.4749 0.5194
C8 C 0.8544(4) 0.42691(15) 0.6772(3)
H8 H 0.9237 0.4402 0.7291
H9 H 0.8440 0.3888 0.6926
H10 H 0.7786 0.4457 0.7018
N1 N 0.64232(17) 0.33542(7) 0.48971(18)
N2 N 0.55062(18) 0.42338(7) 0.50145(19)
H11 H 0.486(3) 0.4432(11) 0.516(2)
O1 O 0.43677(16) 0.34866(7) 0.5442(2)
O2 O 0.65843(15) 0.50030(6) 0.46420(19)
O3 O 0.84746(15) 0.32681(6) 0.4396(2)
Ag2 Ag 0.38243(2) 0.2500 0.67082(3)
N3 N 0.4981(2) 0.2500 0.8464(3)
H12 H 0.453(4) 0.2500 0.905(4)
N4 N 0.7387(3) 0.2500 0.9806(3)
H13 H 0.782(4) 0.2500 1.046(4)
C9 C 0.5780(2) 0.20109(9) 0.8579(3)
H14 H 0.6323 0.1987 0.7810
H15 H 0.5243 0.1692 0.8589
C10 C 0.6583(2) 0.20122(14) 0.9801(3)
H16 H 0.6048 0.2010 1.0580
H17 H 0.7106 0.1690 0.9821
C1F C 0.5393(2) 0.13299(9) 0.5131(2)
C2F C 0.65733(19) 0.04916(8) 0.4703(2)
C3F C 0.77442(18) 0.08234(8) 0.4408(2)
C4F C 0.75533(19) 0.14329(8) 0.4580(2)
C5F C 0.8108(2) 0.07147(10) 0.2951(3)
H1F H 0.8324 0.0334 0.2857
H2F H 0.8856 0.0925 0.2741
C6F C 0.7087(4) 0.08516(13) 0.1958(3)
H3F H 0.7414 0.0809 0.1079
H4F H 0.6381 0.0612 0.2080
H5F H 0.6818 0.1220 0.2085
C7F C 0.8811(2) 0.06353(11) 0.5331(3)
H6F H 0.9581 0.0825 0.5094
H7F H 0.8954 0.0251 0.5194
C8F C 0.8544(4) 0.07309(15) 0.6772(3)
H8F H 0.9237 0.0598 0.7291
H9F H 0.8440 0.1112 0.6926
H10F H 0.7786 0.0543 0.7018
N1F N 0.64232(17) 0.16458(7) 0.48971(18)
N2F N 0.55062(18) 0.07662(7) 0.50145(19)
H11F H 0.486(3) 0.0568(11) 0.516(2)
O1F O 0.43677(16) 0.15134(7) 0.5442(2)
O2F O 0.65843(15) -0.00030(6) 0.46420(19)
O3F O 0.84746(15) 0.17319(6) 0.4396(2)
Ag2C Ag 0.88243(2) 0.2500 0.82918(3)
N4C N 0.2387(3) 0.2500 0.5194(3)
C9F C 0.5780(2) 0.29891(9) 0.8579(3)
H14F H 0.6323 0.3013 0.7810
H15F H 0.5243 0.3308 0.8589
C10F C 0.6583(2) 0.29878(14) 0.9801(3)
H16F H 0.6048 0.2990 1.0580
H17F H 0.7106 0.3310 0.9821
O4 O 0.3975(4) 0.2500 0.2739(4)
H18 H 0.378(3) 0.2721(15) 0.216(4)
H18F H 0.378(3) 0.2279(15) 0.216(4)
loop_
_geom_bond_atom_site_label_1
_geom_bond_atom_site_label_2
_geom_bond_site_symmetry_1
_geom_bond_site_symmetry_2
Ag1 N1 1_555 1_555
C1 N1 1_555 1_555
C2 C3 1_555 1_555
C3 C4 1_555 1_555
C4 N1 1_555 1_555
C5 C3 1_555 1_555
H1 C5 1_555 1_555
H2 C5 1_555 1_555
C6 C5 1_555 1_555
H3 C6 1_555 1_555
H4 C6 1_555 1_555
H5 C6 1_555 1_555
C7 C3 1_555 1_555
H6 C7 1_555 1_555
H7 C7 1_555 1_555
C8 C7 1_555 1_555
H8 C8 1_555 1_555
H9 C8 1_555 1_555
H10 C8 1_555 1_555
N2 C1 1_555 1_555
H11 N2 1_555 1_555
O1 C1 1_555 1_555
O2 C2 1_555 1_555
O3 C4 1_555 1_555
Ag2 Ag1 1_555 1_555
N3 Ag2 1_555 1_555
H12 N3 1_555 1_555
N4 H13 1_555 1_555
C9 N3 1_555 1_555
H14 C9 1_555 1_555
H15 C9 1_555 1_555
C10 N4 1_555 1_555
H16 C10 1_555 1_555
H17 C10 1_555 1_555
O4 H18 1_555 1_555
C1F N1F 1_555 1_555
C2F C3F 1_555 1_555
C3F C4F 1_555 1_555
C4F N1F 1_555 1_555
C5F C3F 1_555 1_555
H1F C5F 1_555 1_555
H2F C5F 1_555 1_555
C6F C5F 1_555 1_555
H3F C6F 1_555 1_555
H4F C6F 1_555 1_555
H5F C6F 1_555 1_555
C7F C3F 1_555 1_555
H6F C7F 1_555 1_555
H7F C7F 1_555 1_555
C8F C7F 1_555 1_555
H8F C8F 1_555 1_555
H9F C8F 1_555 1_555
H10F C8F 1_555 1_555
N1F Ag1 1_555 1_555
N2F C1F 1_555 1_555
H11F N2F 1_555 1_555
O1F C1F 1_555 1_555
O2F C2F 1_555 1_555
O3F C4F 1_555 1_555
Ag2C N4 1_555 1_555
N4C Ag2 1_555 1_555
C9F N3 1_555 1_555
H14F C9F 1_555 1_555
H15F C9F 1_555 1_555
C10F N4 1_555 1_555
H16F C10F 1_555 1_555
H17F C10F 1_555 1_555
H18F O4 1_555 1_555
C2 N2 1_555 1_555
C9 C10 1_555 1_555
C2F N2F 1_555 1_555
C9F C10F 1_555 1_555

#END
