
#######################################################################
#
#                 Cambridge Crystallographic Data Centre
#                                CCDC 
#
#######################################################################
#
# If this CIF has been generated from an entry in the Cambridge 
# Structural Database, then it will include bibliographic, chemical, 
# crystal, experimental, refinement or atomic coordinate data resulting 
# from the CCDC's data processing and validation procedures.
#
#######################################################################

data_MADTAO
_symmetry_cell_setting           monoclinic
_symmetry_space_group_name_H-M   'P 21/c'
_symmetry_Int_Tables_number      14
_space_group_name_Hall           '-P 2ybc'
loop_
_symmetry_equiv_pos_site_id
_symmetry_equiv_pos_as_xyz
1 x,y,z
2 -x,1/2+y,1/2-z
3 -x,-y,-z
4 x,1/2-y,1/2+z
_cell_length_a                   9.0630(8)
_cell_length_b                   15.5551(15)
_cell_length_c                   9.3510(8)
_cell_angle_alpha                90
_cell_angle_beta                 101.561(2)
_cell_angle_gamma                90
_cell_volume                     1291.52
loop_
_atom_site_label
_atom_site_type_symbol
_atom_site_fract_x
_atom_site_fract_y
_atom_site_fract_z
Ag1 Ag 0.32451(4) 0.00424(2) 0.31242(3)
N1 N 0.2662(4) -0.00964(19) 0.0758(3)
N2 N 0.3128(3) 0.01294(17) -0.4535(3)
N3 N 0.4131(3) 0.07243(19) -0.3757(3)
H1 H 0.4184 0.1196 -0.4301
H2 H 0.3829 0.0883 -0.2935
C1 C 0.1716(5) 0.0387(3) -0.1668(4)
H3 H 0.1137 0.0782 -0.2286
C2 C 0.1857(5) 0.0454(3) -0.0180(4)
H4 H 0.1370 0.0904 0.0189
C3 C 0.3305(5) -0.0741(2) 0.0196(4)
H5 H 0.3835 -0.1145 0.0831
C4 C 0.3234(5) -0.0850(2) -0.1282(4)
H6 H 0.3721 -0.1310 -0.1623
C5 C 0.2438(4) -0.0270(2) -0.2235(4)
C6 C 0.2382(4) -0.0366(2) -0.3831(3)
C7 C 0.1467(4) -0.1071(2) -0.4634(3)
C8 C 0.1987(4) -0.1548(2) -0.5686(4)
H7 H 0.2940 -0.1439 -0.5871
C9 C 0.1107(5) -0.2182(2) -0.6460(4)
H8 H 0.1455 -0.2486 -0.7182
C10 C -0.0283(5) -0.2363(3) -0.6166(4)
H9 H -0.0883 -0.2784 -0.6699
C11 C -0.0790(5) -0.1924(3) -0.5087(4)
H10 H -0.1716 -0.2064 -0.4866
C12 C 0.0074(4) -0.1274(2) -0.4324(4)
H11 H -0.0282 -0.0973 -0.3603
N4 N 0.4448(5) 0.2339(2) 0.3172(4)
O1 O 0.4425(5) 0.1581(2) 0.3533(4)
O2 O 0.5373(4) 0.2601(2) 0.2474(4)
O3 O 0.3653(4) 0.2899(3) 0.3583(5)
Ag1_2 Ag 0.32451(4) 0.00424(2) -0.68758(3)
Ag1B Ag 0.67549(4) -0.00424(2) -0.31242(3)
N2_2 N 0.3128(3) 0.01294(17) 0.5465(3)
N3B N 0.5869(3) -0.07243(19) 0.3757(3)
H1B H 0.5816 -0.1196 0.4301
H2B H 0.6171 -0.0883 0.2935
loop_
_geom_bond_atom_site_label_1
_geom_bond_atom_site_label_2
_geom_bond_site_symmetry_1
_geom_bond_site_symmetry_2
Ag1 N1 1_555 1_555
N1 C2 1_555 1_555
N2 N3 1_555 1_555
N3 H1 1_555 1_555
H2 N3 1_555 1_555
C1 H3 1_555 1_555
C2 C1 1_555 1_555
H4 C2 1_555 1_555
C3 N1 1_555 1_555
H5 C3 1_555 1_555
C4 C3 1_555 1_555
H6 C4 1_555 1_555
C5 C1 1_555 1_555
C6 N2 1_555 1_555
C7 C6 1_555 1_555
C8 C7 1_555 1_555
H7 C8 1_555 1_555
C9 C8 1_555 1_555
H8 C9 1_555 1_555
C10 C9 1_555 1_555
H9 C10 1_555 1_555
C11 C10 1_555 1_555
H10 C11 1_555 1_555
C12 C7 1_555 1_555
H11 C12 1_555 1_555
N4 O1 1_555 1_555
O1 Ag1 1_555 1_555
O2 N4 1_555 1_555
O3 N4 1_555 1_555
Ag1_2 N2 1_555 1_555
Ag1B N3 1_555 1_555
N2_2 Ag1 1_555 1_555
N3B Ag1 1_555 1_555
H1B N3B 1_555 1_555
H2B N3B 1_555 1_555
C4 C5 1_555 1_555
C5 C6 1_555 1_555
C11 C12 1_555 1_555

#END
