
#######################################################################
#
#                 Cambridge Crystallographic Data Centre
#                                CCDC 
#
#######################################################################
#
# If this CIF has been generated from an entry in the Cambridge 
# Structural Database, then it will include bibliographic, chemical, 
# crystal, experimental, refinement or atomic coordinate data resulting 
# from the CCDC's data processing and validation procedures.
#
#######################################################################

data_MADTOC
_symmetry_cell_setting           monoclinic
_symmetry_space_group_name_H-M   'P 21/c'
_symmetry_Int_Tables_number      14
_space_group_name_Hall           '-P 2ybc'
loop_
_symmetry_equiv_pos_site_id
_symmetry_equiv_pos_as_xyz
1 x,y,z
2 -x,1/2+y,1/2-z
3 -x,-y,-z
4 x,1/2-y,1/2+z
_cell_length_a                   6.7112(6)
_cell_length_b                   16.375(2)
_cell_length_c                   7.6495(6)
_cell_angle_alpha                90
_cell_angle_beta                 96.37(1)
_cell_angle_gamma                90
_cell_volume                     835.459
loop_
_atom_site_label
_atom_site_type_symbol
_atom_site_fract_x
_atom_site_fract_y
_atom_site_fract_z
C1 C 0.2805(10) 0.1457(4) 1.2998(9)
H1 H 0.3363 0.1011 1.373
H2 H 0.3908 0.1754 1.2577
C2 C 0.1642(11) 0.2023(4) 1.4084(9)
H3 H 0.2579 0.227 1.4987
H4 H 0.1077 0.2459 1.3325
C3 C -0.0036(11) 0.1637(5) 1.4964(9)
H5 H -0.0655 0.2056 1.5618
H6 H 0.0541 0.1235 1.5805
C4 C -0.1672(11) 0.1221(4) 1.3721(10)
H7 H -0.2274 0.1618 1.288
H8 H -0.2712 0.1019 1.4393
S1 S 0.1192(2) 0.10485(8) 1.1134(2)
S2 S -0.0660(2) 0.03785(9) 1.25497(19)
Cu1 Cu 0.30180(13) 0.01199(5) 0.96456(11)
I1 I 0.44296(7) -0.10641(3) 1.17408(6)
S2B S 0.0660(2) -0.03785(9) 0.74503(19)
Cu1B Cu -0.30180(13) -0.01199(5) 1.03544(11)
Cu1B_2 Cu 0.69820(13) -0.01199(5) 1.03544(11)
I1B I 0.55704(7) 0.10641(3) 0.82592(6)
loop_
_geom_bond_atom_site_label_1
_geom_bond_atom_site_label_2
_geom_bond_site_symmetry_1
_geom_bond_site_symmetry_2
C1 H1 1_555 1_555
H2 C1 1_555 1_555
C2 C1 1_555 1_555
H3 C2 1_555 1_555
H4 C2 1_555 1_555
C3 C2 1_555 1_555
H5 C3 1_555 1_555
H6 C3 1_555 1_555
C4 C3 1_555 1_555
H7 C4 1_555 1_555
H8 C4 1_555 1_555
S1 C1 1_555 1_555
S2 C4 1_555 1_555
Cu1 S1 1_555 1_555
I1 Cu1 1_555 1_555
S2B Cu1 1_555 1_555
Cu1B S2 1_555 1_555
Cu1B_2 Cu1 1_555 1_555
I1B Cu1 1_555 1_555
S1 S2 1_555 1_555
I1 Cu1B_2 1_555 1_555
Cu1B_2 I1B 1_555 1_555

#END
