
#######################################################################
#
#                 Cambridge Crystallographic Data Centre
#                                CCDC 
#
#######################################################################
#
# If this CIF has been generated from an entry in the Cambridge 
# Structural Database, then it will include bibliographic, chemical, 
# crystal, experimental, refinement or atomic coordinate data resulting 
# from the CCDC's data processing and validation procedures.
#
#######################################################################

data_MADTUI
_symmetry_cell_setting           monoclinic
_symmetry_space_group_name_H-M   'P 21/c'
_symmetry_Int_Tables_number      14
_space_group_name_Hall           '-P 2ybc'
loop_
_symmetry_equiv_pos_site_id
_symmetry_equiv_pos_as_xyz
1 x,y,z
2 -x,1/2+y,1/2-z
3 -x,-y,-z
4 x,1/2-y,1/2+z
_cell_length_a                   18.615(2)
_cell_length_b                   12.0313(13)
_cell_length_c                   20.605(2)
_cell_angle_alpha                90
_cell_angle_beta                 115.604(2)
_cell_angle_gamma                90
_cell_volume                     4161.59
loop_
_atom_site_label
_atom_site_type_symbol
_atom_site_fract_x
_atom_site_fract_y
_atom_site_fract_z
Yb1 Yb 0.234600(7) -0.366270(11) 0.025650(6)
Mo1 Mo 0.267280(14) -0.40056(2) 0.311770(11)
O1 O 0.20204(14) -0.19732(18) 0.04961(10)
O2 O 0.36031(12) -0.29556(19) 0.08990(10)
H1 H 0.3949 -0.3222 0.1295
H2 H 0.3653 -0.2271 0.0824
N1 N 0.24548(16) -0.3849(2) 0.14449(12)
N2 N 0.2478(2) -0.6549(2) 0.24572(16)
N3 N 0.44791(18) -0.4626(3) 0.33264(17)
N4 N 0.3529(2) -0.5408(3) 0.46327(14)
N5 N 0.26094(14) -0.2482(2) 0.44271(11)
N6 N 0.3508(2) -0.1618(3) 0.30484(17)
N7 N 0.11979(18) -0.5077(3) 0.33931(16)
N8 N 0.11230(18) -0.2416(3) 0.21885(15)
N9 N 0.31768(15) -0.5351(2) 0.06586(13)
N10 N 0.22766(14) -0.4900(2) -0.07316(12)
N11 N 0.13767(14) -0.5160(2) 0.01676(12)
N12 N 0.09747(14) -0.3365(2) -0.06645(12)
N13 N 0.2070(2) -0.0287(3) 0.09600(17)
C1 C 0.25261(17) -0.3913(2) 0.20231(14)
C2 C 0.25349(19) -0.5672(3) 0.26997(15)
C3 C 0.38620(19) -0.4388(3) 0.32591(16)
C4 C 0.32403(19) -0.4941(3) 0.40989(15)
C5 C 0.26522(16) -0.3001(2) 0.39809(14)
C6 C 0.3222(2) -0.2440(3) 0.30800(15)
C7 C 0.16935(19) -0.4708(3) 0.32769(15)
C8 C 0.16489(19) -0.2975(3) 0.25191(15)
C9 C 0.3659(2) -0.5544(3) 0.13528(18)
H3 H 0.3725 -0.4981 0.1682
C10 C 0.4058(3) -0.6513(3) 0.1605(2)
H4 H 0.4389 -0.6606 0.2092
C11 C 0.3959(3) -0.7346(4) 0.1123(2)
H5 H 0.4224 -0.8018 0.1278
C12 C 0.3466(2) -0.7180(3) 0.0411(2)
H6 H 0.3386 -0.7747 0.0080
C13 C 0.30875(18) -0.6171(3) 0.01860(17)
C14 C 0.25658(17) -0.5934(3) -0.05766(16)
C15 C 0.2395(2) -0.6716(3) -0.1119(2)
H7 H 0.2594 -0.7435 -0.1007
C16 C 0.1938(3) -0.6426(4) -0.1812(2)
H8 H 0.1825 -0.6947 -0.2177
C17 C 0.1644(2) -0.5380(3) -0.19776(17)
H9 H 0.1323 -0.5174 -0.2450
C18 C 0.1837(2) -0.4637(3) -0.14226(16)
H10 H 0.1652 -0.3911 -0.1532
C19 C 0.1547(2) -0.5983(3) 0.06474(17)
H11 H 0.2014 -0.5937 0.1071
C20 C 0.1065(2) -0.6893(3) 0.0544(2)
H12 H 0.1194 -0.7440 0.0895
C21 C 0.0387(2) -0.6974(4) -0.0091(2)
H13 H 0.0061 -0.7597 -0.0186
C22 C 0.0196(2) -0.6134(3) -0.0581(2)
H14 H -0.0268 -0.6173 -0.1008
C23 C 0.06919(18) -0.5225(3) -0.04409(16)
C24 C 0.04924(18) -0.4256(3) -0.09182(16)
C25 C -0.0156(2) -0.4234(3) -0.15869(19)
H15 H -0.0472 -0.4862 -0.1762
C26 C -0.0326(2) -0.3280(4) -0.1988(2)
H16 H -0.0748 -0.3262 -0.2444
C27 C 0.0131(2) -0.2352(4) -0.17120(18)
H17 H 0.0008 -0.1686 -0.1966
C28 C 0.07750(19) -0.2429(3) -0.10510(16)
H18 H 0.1086 -0.1799 -0.0864
C29 C 0.2109(2) -0.1366(3) 0.0997(2)
H19 H 0.2211 -0.1696 0.1437
C30 C 0.1976(3) 0.0321(4) 0.0301(2)
H20 H 0.2116 -0.0160 0.0002
H21 H 0.2319 0.0960 0.0433
H22 H 0.1433 0.0557 0.0041
C31 C 0.21323(9) 0.03918(15) 0.15853(8)
H23 H 0.1614 0.0658 0.1503
H24 H 0.2479 0.1012 0.1644
H25 H 0.2344 -0.0057 0.2013
Yb1C Yb 0.234600(7) -0.133730(11) 0.525650(6)
N5C N 0.26094(14) -0.2518(2) -0.05729(11)
N14 N 0.56255(11) -0.43379(15) 1.08733(9)
C32 C 0.50869(11) -0.44841(15) 1.01577(8)
C33 C 0.47155(11) -0.35679(15) 0.97346(8)
H26 H 0.4355 -0.3666 0.9256
C34 C 0.48827(11) -0.25054(15) 1.00271(8)
H27 H 0.4634 -0.1892 0.9744
C35 C 0.54212(11) -0.23592(15) 1.07426(9)
H28 H 0.5533 -0.1648 1.0938
C36 C 0.57927(11) -0.32755(15) 1.11658(9)
H29 H 0.6153 -0.3178 1.1644
N14B N 0.43745(11) -0.56621(15) 0.91267(9)
C32B C 0.49131(11) -0.55159(15) 0.98423(8)
C33B C 0.52845(11) -0.64321(15) 1.02654(8)
H26B H 0.5645 -0.6334 1.0744
C34B C 0.51173(11) -0.74946(15) 0.99729(8)
H27B H 0.5366 -0.8108 1.0256
C35B C 0.45788(11) -0.76408(15) 0.92574(9)
H28B H 0.4467 -0.8352 0.9062
C36B C 0.42073(11) -0.67245(15) 0.88342(9)
H29B H 0.3847 -0.6822 0.8356
O3 O 0.01149(9) -0.06465(19) 0.12770(10)
H30 H 0.0351 -0.1240 0.1488
H31 H -0.0325 -0.0512 0.1304
O4 O 0.39774(15) -0.0704(2) 0.09754(13)
H32 H 0.3721 -0.0299 0.1130
H33 H 0.4498 -0.0669 0.1204
O5 O 0.4075(2) -0.9955(3) 0.23715(19)
H34 H 0.3984 -0.9645 0.1944
H35 H 0.3577 -1.0250 0.2283
O6 O 0.47652(17) -0.3366(3) 0.21919(14)
H36 H 0.4518 -0.3267 0.2454
H37 H 0.5215 -0.3696 0.2391
O7 O 0.9870(7) -0.9446(9) 0.0106(6)
loop_
_geom_bond_atom_site_label_1
_geom_bond_atom_site_label_2
_geom_bond_site_symmetry_1
_geom_bond_site_symmetry_2
Yb1 O1 1_555 1_555
Mo1 C1 1_555 1_555
O1 C29 1_555 1_555
O2 Yb1 1_555 1_555
H1 O2 1_555 1_555
H2 O2 1_555 1_555
N1 Yb1 1_555 1_555
N2 C2 1_555 1_555
N3 C3 1_555 1_555
N4 C4 1_555 1_555
N5 C5 1_555 1_555
N6 C6 1_555 1_555
N7 C7 1_555 1_555
N8 C8 1_555 1_555
N9 Yb1 1_555 1_555
N10 Yb1 1_555 1_555
N11 Yb1 1_555 1_555
N12 Yb1 1_555 1_555
N13 C29 1_555 1_555
C1 N1 1_555 1_555
C2 Mo1 1_555 1_555
C3 Mo1 1_555 1_555
C4 Mo1 1_555 1_555
C5 Mo1 1_555 1_555
C6 Mo1 1_555 1_555
C7 Mo1 1_555 1_555
C8 Mo1 1_555 1_555
C9 N9 1_555 1_555
H3 C9 1_555 1_555
C10 C9 1_555 1_555
H4 C10 1_555 1_555
C11 C10 1_555 1_555
H5 C11 1_555 1_555
C12 C11 1_555 1_555
H6 C12 1_555 1_555
C13 N9 1_555 1_555
C14 N10 1_555 1_555
C15 C14 1_555 1_555
H7 C15 1_555 1_555
C16 C15 1_555 1_555
H8 C16 1_555 1_555
C17 C16 1_555 1_555
H9 C17 1_555 1_555
C18 N10 1_555 1_555
H10 C18 1_555 1_555
C19 N11 1_555 1_555
H11 C19 1_555 1_555
C20 C19 1_555 1_555
H12 C20 1_555 1_555
C21 C20 1_555 1_555
H13 C21 1_555 1_555
C22 C21 1_555 1_555
H14 C22 1_555 1_555
C23 N11 1_555 1_555
C24 N12 1_555 1_555
C25 C24 1_555 1_555
H15 C25 1_555 1_555
C26 C25 1_555 1_555
H16 C26 1_555 1_555
C27 C26 1_555 1_555
H17 C27 1_555 1_555
C28 N12 1_555 1_555
H18 C28 1_555 1_555
C29 H19 1_555 1_555
C30 N13 1_555 1_555
H20 C30 1_555 1_555
H21 C30 1_555 1_555
H22 C30 1_555 1_555
C31 N13 1_555 1_555
H23 C31 1_555 1_555
H24 C31 1_555 1_555
H25 C31 1_555 1_555
N14 C32 1_555 1_555
C32 C33 1_555 1_555
C33 H26 1_555 1_555
C34 C33 1_555 1_555
H27 C34 1_555 1_555
C35 C34 1_555 1_555
H28 C35 1_555 1_555
C36 N14 1_555 1_555
H29 C36 1_555 1_555
O3 H30 1_555 1_555
H31 O3 1_555 1_555
O4 H32 1_555 1_555
H33 O4 1_555 1_555
O5 H34 1_555 1_555
H35 O5 1_555 1_555
O6 H36 1_555 1_555
H37 O6 1_555 1_555
Yb1C N5 1_555 1_555
N5C Yb1 1_555 1_555
N14B C32B 1_555 1_555
C32B C32 1_555 1_555
C33B C32B 1_555 1_555
H26B C33B 1_555 1_555
C34B C33B 1_555 1_555
H27B C34B 1_555 1_555
C35B C34B 1_555 1_555
H28B C35B 1_555 1_555
C36B N14B 1_555 1_555
H29B C36B 1_555 1_555
C12 C13 1_555 1_555
C13 C14 1_555 1_555
C17 C18 1_555 1_555
C22 C23 1_555 1_555
C23 C24 1_555 1_555
C27 C28 1_555 1_555
C35 C36 1_555 1_555
C35B C36B 1_555 1_555

#END
