
#######################################################################
#
#                 Cambridge Crystallographic Data Centre
#                                CCDC 
#
#######################################################################
#
# If this CIF has been generated from an entry in the Cambridge 
# Structural Database, then it will include bibliographic, chemical, 
# crystal, experimental, refinement or atomic coordinate data resulting 
# from the CCDC's data processing and validation procedures.
#
#######################################################################

data_MADVOD
_symmetry_cell_setting           trigonal
_symmetry_space_group_name_H-M   'P 32'
_symmetry_Int_Tables_number      145
_space_group_name_Hall           'P 32'
loop_
_symmetry_equiv_pos_site_id
_symmetry_equiv_pos_as_xyz
1 x,y,z
2 -y,x-y,2/3+z
3 -x+y,-x,1/3+z
_cell_length_a                   9.66440(10)
_cell_length_b                   9.66440(10)
_cell_length_c                   10.6841(2)
_cell_angle_alpha                90
_cell_angle_beta                 90
_cell_angle_gamma                120
_cell_volume                     864.208
loop_
_atom_site_label
_atom_site_type_symbol
_atom_site_fract_x
_atom_site_fract_y
_atom_site_fract_z
Cu1 Cu 0.35157(2) 0.25837(2) 0.184100(19)
P1 P 0.59422(5) 0.20190(5) 0.07092(4)
N1 N 0.28882(17) 0.41200(17) 0.12467(14)
C1 C 0.4115(2) 0.5587(2) 0.09290(17)
O1 O 0.59080(19) 0.3518(3) 0.01356(17)
O2 O 0.58460(16) 0.09174(16) -0.03437(13)
C2 C -0.1575(2) -0.0375(3) 0.1854(2)
O3 O 0.44286(16) 0.12545(16) 0.15143(13)
N2 N 0.00987(18) 0.2409(2) 0.14996(17)
N3 N 0.12740(17) 0.07734(17) 0.17409(13)
C3 C -0.0436(3) -0.2062(3) 0.2005(2)
C4 C 0.2342(3) 0.6564(3) 0.0517(2)
C5 C -0.0017(2) 0.0948(2) 0.16994(17)
C6 C 0.3910(3) 0.6830(3) 0.05821(19)
C7 C 0.1042(2) -0.0732(2) 0.18772(17)
C8 C 0.1392(2) 0.3866(2) 0.11858(16)
O4 O 0.7416(2) 0.25490(18) 0.15023(16)
C9 C 0.1083(3) 0.5090(3) 0.0808(2)
C10 C -0.1767(3) -0.1859(3) 0.2017(2)
H1 H -0.073(3) 0.247(3) 0.153(2)
H2 H -0.278(4) -0.266(4) 0.221(2)
H3 H 0.213(3) 0.742(3) 0.036(3)
H4 H -0.001(4) 0.476(3) 0.076(3)
H5 H 0.665(2) 0.379(2) 0.0407(18)
H6 H -0.246(4) -0.018(3) 0.180(3)
H7 H 0.192(3) -0.077(3) 0.194(2)
H8 H 0.514(3) 0.582(3) 0.094(3)
H9 H -0.056(3) -0.290(4) 0.210(3)
H10 H 0.488(4) 0.784(4) 0.041(3)
O2B O 0.50714(23) 0.41540(16) 0.29896(13)
Cu1A Cu 0.74163(2) 0.09320(3) -0.149233(19)
loop_
_geom_bond_atom_site_label_1
_geom_bond_atom_site_label_2
_geom_bond_site_symmetry_1
_geom_bond_site_symmetry_2
Cu1 N1 1_555 1_555
P1 O1 1_555 1_555
N1 C1 1_555 1_555
C1 C6 1_555 1_555
O1 Cu1 1_555 1_555
O2 P1 1_555 1_555
C2 C5 1_555 1_555
O3 Cu1 1_555 1_555
N2 C5 1_555 1_555
N3 Cu1 1_555 1_555
C3 C7 1_555 1_555
C4 C6 1_555 1_555
C5 N3 1_555 1_555
C6 H10 1_555 1_555
C7 N3 1_555 1_555
C8 N1 1_555 1_555
O4 P1 1_555 1_555
C9 C4 1_555 1_555
C10 C2 1_555 1_555
H1 N2 1_555 1_555
H2 C10 1_555 1_555
H3 C4 1_555 1_555
H4 C9 1_555 1_555
H5 O1 1_555 1_555
H6 C2 1_555 1_555
H7 C7 1_555 1_555
H8 C1 1_555 1_555
H9 C3 1_555 1_555
O2B Cu1 1_555 1_555
Cu1A O2 1_555 1_555
P1 O3 1_555 1_555
N2 C8 1_555 1_555
C3 C10 1_555 1_555
C8 C9 1_555 1_555

#END
