
#######################################################################
#
#                 Cambridge Crystallographic Data Centre
#                                CCDC 
#
#######################################################################
#
# If this CIF has been generated from an entry in the Cambridge 
# Structural Database, then it will include bibliographic, chemical, 
# crystal, experimental, refinement or atomic coordinate data resulting 
# from the CCDC's data processing and validation procedures.
#
#######################################################################

data_MADWAQ
_symmetry_cell_setting           orthorhombic
_symmetry_space_group_name_H-M   'P n m a'
_symmetry_Int_Tables_number      62
_space_group_name_Hall           '-P 2ac 2n'
loop_
_symmetry_equiv_pos_site_id
_symmetry_equiv_pos_as_xyz
1 x,y,z
2 1/2-x,1/2+y,1/2+z
3 x,1/2-y,z
4 1/2+x,y,1/2-z
5 -x,-y,-z
6 1/2+x,1/2-y,1/2-z
7 -x,1/2+y,-z
8 1/2-x,-y,1/2+z
_cell_length_a                   7.0820(6)
_cell_length_b                   20.724(2)
_cell_length_c                   12.357(1)
_cell_angle_alpha                90
_cell_angle_beta                 90
_cell_angle_gamma                90
_cell_volume                     1813.6
loop_
_atom_site_label
_atom_site_type_symbol
_atom_site_fract_x
_atom_site_fract_y
_atom_site_fract_z
Br1 Br 1.10504(4) 0.7500 0.65171(2)
Cu1 Cu 0.75542(5) 0.7500 0.66734(2)
S1 S 0.62276(6) 0.66318(2) 0.57594(4)
C1 C 0.4393(3) 0.49182(9) 0.6870(2)
C2 C 0.3552(3) 0.43699(9) 0.6426(2)
C3 C 0.2533(3) 0.44146(9) 0.5459(2)
C4 C 0.2273(3) 0.5019(1) 0.5002(2)
C5 C 0.3074(3) 0.55656(9) 0.5453(2)
C6 C 0.4212(3) 0.55184(9) 0.6369(2)
C7 C 0.5286(3) 0.60943(9) 0.6794(2)
C8 C 0.8146(3) 0.6177(1) 0.5130(2)
H1 H 0.5103 0.4882 0.7523
H2 H 0.3673 0.3964 0.6785
H3 H 0.1523 0.5060 0.4360
H4 H 0.2849 0.5978 0.5135
H5 H 0.6318 0.5940 0.7215
H6 H 0.4464 0.6338 0.7243
H7 H 0.8782 0.6451 0.4631
H8 H 0.9012 0.6049 0.5681
C8D C 0.1854(3) 0.3823(1) 0.4870(2)
S1D S 0.37724(6) 0.33682(2) 0.42406(4)
C7D C 0.4714(3) 0.39057(9) 0.3206(2)
C6D C 0.5788(3) 0.44816(9) 0.3631(2)
C1D C 0.5607(3) 0.50818(9) 0.3130(2)
C2D C 0.6448(3) 0.56301(9) 0.3574(2)
C3D C 0.7467(3) 0.55854(9) 0.4541(2)
C4D C 0.7727(3) 0.4981(1) 0.4998(2)
C5D C 0.6926(3) 0.44344(9) 0.4547(2)
H4D H 0.7151 0.4022 0.4865
H3D H 0.8477 0.4940 0.5640
H2D H 0.6327 0.6036 0.3215
H1D H 0.4897 0.5118 0.2477
H5D H 0.3682 0.4060 0.2785
H6D H 0.5536 0.3662 0.2757
H7D H 0.1218 0.3549 0.5369
H8D H 0.0988 0.3951 0.4319
Cu1C Cu 1.25542(5) 0.7500 0.83266(2)
Br1C Br 0.60504(4) 0.7500 0.84829(2)
S1B S 0.62276(6) 0.83682(2) 0.57594(4)
Cu1D Cu 0.24458(5) 0.2500 0.33266(2)
N1 N 0.7871(6) 0.7500 0.3298(3)
C9 C 0.7863(5) 0.7500 0.2391(3)
C10 C 0.7841(7) 0.7500 0.1227(4)
H9 H 0.7193 0.7874 0.0967
H10 H 0.9089 0.7500 0.0947
H9B H 0.7193 0.7126 0.0967
loop_
_geom_bond_atom_site_label_1
_geom_bond_atom_site_label_2
_geom_bond_site_symmetry_1
_geom_bond_site_symmetry_2
Br1 Cu1 1_555 1_555
Cu1 S1 1_555 1_555
S1 C7 1_555 1_555
N1 C9 1_555 1_555
C1 C2 1_555 1_555
C2 C3 1_555 1_555
C3 C4 1_555 1_555
C4 C5 1_555 1_555
C5 C6 1_555 1_555
C6 C1 1_555 1_555
C7 C6 1_555 1_555
C8 S1 1_555 1_555
C9 C10 1_555 1_555
C10 H9 1_555 1_555
H1 C1 1_555 1_555
H2 C2 1_555 1_555
H3 C4 1_555 1_555
H4 C5 1_555 1_555
H5 C7 1_555 1_555
H6 C7 1_555 1_555
H7 C8 1_555 1_555
H8 C8 1_555 1_555
H10 C10 1_555 1_555
C8D C3 1_555 1_555
S1D C8D 1_555 1_555
C7D S1D 1_555 1_555
C6D C7D 1_555 1_555
C1D C6D 1_555 1_555
C2D C1D 1_555 1_555
C3D C8 1_555 1_555
C4D C3D 1_555 1_555
C5D C6D 1_555 1_555
H4D C5D 1_555 1_555
H3D C4D 1_555 1_555
H2D C2D 1_555 1_555
H1D C1D 1_555 1_555
H5D C7D 1_555 1_555
H6D C7D 1_555 1_555
H7D C8D 1_555 1_555
H8D C8D 1_555 1_555
H9B C10 1_555 1_555
Cu1C Br1 1_555 1_555
Br1C Cu1 1_555 1_555
S1B Cu1 1_555 1_555
Cu1D S1D 1_555 1_555
C2D C3D 1_555 1_555
C4D C5D 1_555 1_555

#END
