
#######################################################################
#
#                 Cambridge Crystallographic Data Centre
#                                CCDC 
#
#######################################################################
#
# If this CIF has been generated from an entry in the Cambridge 
# Structural Database, then it will include bibliographic, chemical, 
# crystal, experimental, refinement or atomic coordinate data resulting 
# from the CCDC's data processing and validation procedures.
#
#######################################################################

data_MADWEU
_symmetry_cell_setting           monoclinic
_symmetry_space_group_name_H-M   'P 21/n'
_symmetry_Int_Tables_number      14
_space_group_name_Hall           '-P 2yn'
loop_
_symmetry_equiv_pos_site_id
_symmetry_equiv_pos_as_xyz
1 x,y,z
2 1/2+x,1/2-y,1/2+z
3 -x,-y,-z
4 1/2-x,1/2+y,1/2-z
_cell_length_a                   7.255(2)
_cell_length_b                   20.602(3)
_cell_length_c                   12.415(2)
_cell_angle_alpha                90
_cell_angle_beta                 102.491(9)
_cell_angle_gamma                90
_cell_volume                     1811.72
loop_
_atom_site_label
_atom_site_type_symbol
_atom_site_fract_x
_atom_site_fract_y
_atom_site_fract_z
Cu1 Cu 0.91734(6) 0.00329(2) 0.09968(4)
Cl1 Cl 1.2368(1) 0.01289(4) 0.09119(7)
S1 S 0.8264(1) 0.10049(4) 0.15376(7)
S2 S 0.6339(1) 0.40783(4) 0.31932(8)
C1 C 0.6892(5) 0.1707(2) 0.4051(3)
C2 C 0.6593(5) 0.2333(2) 0.4401(3)
C3 C 0.5602(5) 0.2786(2) 0.3683(3)
C4 C 0.4783(5) 0.2587(2) 0.2616(3)
C5 C 0.5075(5) 0.1964(2) 0.2263(3)
C6 C 0.6192(5) 0.1524(2) 0.2966(3)
C7 C 0.6763(5) 0.0889(2) 0.2535(3)
C8 C 1.0416(5) 0.1359(2) 0.2360(3)
C9 C 0.9093(5) 0.3145(2) 0.2117(3)
C10 C 0.9428(5) 0.2513(2) 0.1834(3)
C11 C 1.0256(5) 0.2071(2) 0.2633(3)
C12 C 1.0885(5) 0.2287(2) 0.3706(3)
C13 C 1.0546(5) 0.2919(2) 0.3995(3)
C14 C 0.9560(5) 0.3342(2) 0.3214(3)
C15 C 0.8904(6) 0.3990(2) 0.3555(4)
C16 C 0.5458(5) 0.3480(2) 0.4041(3)
H1 H 0.7583 0.1405 0.4557
H2 H 0.7082 0.2450 0.5150
H3 H 0.4018 0.2881 0.2123
H4 H 0.4501 0.1835 0.1536
H5 H 0.5659 0.0661 0.2187
H6 H 0.7440 0.0641 0.3139
H7 H 1.0751 0.1126 0.3033
H8 H 1.1390 0.1316 0.1961
H9 H 0.8540 0.3444 0.1558
H10 H 0.9095 0.2381 0.1084
H11 H 1.1554 0.2000 0.4250
H12 H 1.0998 0.3062 0.4731
H13 H 0.9456 0.4322 0.3210
H14 H 0.9308 0.4027 0.4338
H15 H 0.6166 0.3520 0.4778
H16 H 0.4170 0.3572 0.4018
Cl1B Cl 0.7632(1) -0.01289(4) -0.09119(7)
S2C S 0.8661(1) -0.09217(4) 0.18068(8)
Cu1B Cu 1.08266(6) -0.00329(2) -0.09968(4)
Cu1C Cu 0.58266(6) 0.50329(2) 0.40032(4)
N1 N 0.225(1) 0.0481(3) 0.5195(6)
C17 C 0.2446(9) 0.0106(3) 0.4583(5)
C18 C 0.2716(10) -0.0386(3) 0.3796(4)
H17 H 0.2629 -0.0801 0.4105
H18 H 0.1785 -0.0336 0.3141
H19 H 0.3938 -0.0330 0.3643
loop_
_geom_bond_atom_site_label_1
_geom_bond_atom_site_label_2
_geom_bond_site_symmetry_1
_geom_bond_site_symmetry_2
Cu1 Cl1 1_555 1_555
Cl1 Cu1B 1_555 1_555
S1 Cu1 1_555 1_555
S2 C15 1_555 1_555
N1 C17 1_555 1_555
C1 C2 1_555 1_555
C2 C3 1_555 1_555
C3 C4 1_555 1_555
C4 C5 1_555 1_555
C5 C6 1_555 1_555
C6 C1 1_555 1_555
C7 S1 1_555 1_555
C8 S1 1_555 1_555
C9 C10 1_555 1_555
C10 C11 1_555 1_555
C11 C8 1_555 1_555
C12 C11 1_555 1_555
C13 C12 1_555 1_555
C14 C9 1_555 1_555
C15 C14 1_555 1_555
C16 S2 1_555 1_555
C17 C18 1_555 1_555
C18 H17 1_555 1_555
H1 C1 1_555 1_555
H2 C2 1_555 1_555
H3 C4 1_555 1_555
H4 C5 1_555 1_555
H5 C7 1_555 1_555
H6 C7 1_555 1_555
H7 C8 1_555 1_555
H8 C8 1_555 1_555
H9 C9 1_555 1_555
H10 C10 1_555 1_555
H11 C12 1_555 1_555
H12 C13 1_555 1_555
H13 C15 1_555 1_555
H14 C15 1_555 1_555
H15 C16 1_555 1_555
H16 C16 1_555 1_555
H18 C18 1_555 1_555
H19 C18 1_555 1_555
Cl1B Cu1 1_555 1_555
S2C Cu1 1_555 1_555
Cu1B Cl1B 1_555 1_555
Cu1C S2 1_555 1_555
C3 C16 1_555 1_555
C6 C7 1_555 1_555
C13 C14 1_555 1_555

#END
