
#######################################################################
#
#                 Cambridge Crystallographic Data Centre
#                                CCDC 
#
#######################################################################
#
# If this CIF has been generated from an entry in the Cambridge 
# Structural Database, then it will include bibliographic, chemical, 
# crystal, experimental, refinement or atomic coordinate data resulting 
# from the CCDC's data processing and validation procedures.
#
#######################################################################

data_MADWIY
_symmetry_cell_setting           orthorhombic
_symmetry_space_group_name_H-M   'C m c 21'
_symmetry_Int_Tables_number      36
_space_group_name_Hall           'C 2n -2'
loop_
_symmetry_equiv_pos_site_id
_symmetry_equiv_pos_as_xyz
1 x,y,z
2 -x,y,z
3 -x,-y,1/2+z
4 x,-y,1/2+z
5 1/2+x,1/2+y,z
6 1/2-x,1/2+y,z
7 1/2-x,1/2-y,1/2+z
8 1/2+x,1/2-y,1/2+z
_cell_length_a                   20.80(1)
_cell_length_b                   15.747(8)
_cell_length_c                   11.505(6)
_cell_angle_alpha                90
_cell_angle_beta                 90
_cell_angle_gamma                90
_cell_volume                     3768.32
loop_
_atom_site_label
_atom_site_type_symbol
_atom_site_fract_x
_atom_site_fract_y
_atom_site_fract_z
O1 O -0.5000 -0.5248(7) -0.751(1)
C17 C -0.5000 -0.602(1) -0.679(3)
C18 C -0.5000 -0.670(1) -0.776(3)
C19 C -0.537(1) -0.630(2) -0.861(2)
C20 C -0.5000 -0.540(1) -0.868(2)
C21 C -0.551(1) -0.609(1) -0.598(2)
C19A C -0.463(1) -0.630(2) -0.861(2)
C21A C -0.449(1) -0.609(1) -0.598(2)
I1 I -0.5000 -0.16607(4) -0.60048(5)
I2 I -0.5000 -0.14812(4) -0.98113(5)
Cu1 Cu -0.5000 -0.25139(7) -0.8017(1)
Cu2 Cu -0.5000 -0.05883(7) -0.7759(1)
S1 S -0.40504(7) -0.3243(1) -0.8060(2)
S2 S -0.09894(6) -0.4943(1) -0.7858(2)
C1 C -0.2567(3) -0.3189(5) -0.9021(6)
C2 C -0.1953(3) -0.3521(4) -0.9017(5)
C3 C -0.1533(3) -0.3340(4) -0.8112(6)
C4 C -0.1724(3) -0.2769(4) -0.7262(6)
C5 C -0.2336(3) -0.2419(4) -0.7275(6)
C6 C -0.2776(3) -0.2649(4) -0.8123(6)
C7 C -0.3472(3) -0.2375(4) -0.8049(7)
C8 C -0.3956(3) -0.3727(5) -0.6635(6)
C9 C -0.2279(3) -0.4259(4) -0.5537(6)
C10 C -0.2907(3) -0.3938(4) -0.5582(6)
C11 C -0.3313(3) -0.4166(4) -0.6459(6)
C12 C -0.3117(3) -0.4778(4) -0.7235(6)
C13 C -0.2500(3) -0.5109(4) -0.7207(6)
C14 C -0.2063(3) -0.4817(4) -0.6382(5)
C15 C -0.1358(3) -0.5060(4) -0.6425(6)
C16 C -0.0901(3) -0.3797(4) -0.8004(7)
H1 H -0.2853 -0.3327 -0.9632
H2 H -0.1815 -0.3874 -0.9632
H3 H -0.1428 -0.2613 -0.6666
H4 H -0.2450 -0.2015 -0.6702
H5 H -0.3526 -0.2063 -0.7352
H6 H -0.3560 -0.2019 -0.8698
H7 H -0.4289 -0.4144 -0.6546
H8 H -0.4007 -0.3304 -0.6062
H9 H -0.1997 -0.4092 -0.4921
H10 H -0.3058 -0.3557 -0.4992
H11 H -0.3411 -0.4968 -0.7812
H12 H -0.2383 -0.5538 -0.7754
H13 H -0.1128 -0.4714 -0.5887
H14 H -0.1319 -0.5640 -0.6192
H15 H -0.0649 -0.3682 -0.8666
H16 H -0.0684 -0.3591 -0.7325
S1A S -0.59496(7) -0.3243(1) -0.8060(2)
S2A S -0.90106(6) -0.4943(1) -0.7858(2)
C1A C -0.7433(3) -0.3189(5) -0.9021(6)
C2A C -0.8047(3) -0.3521(4) -0.9017(5)
C3A C -0.8467(3) -0.3340(4) -0.8112(6)
C4A C -0.8276(3) -0.2769(4) -0.7262(6)
C5A C -0.7664(3) -0.2419(4) -0.7275(6)
C6A C -0.7224(3) -0.2649(4) -0.8123(6)
C7A C -0.6528(3) -0.2375(4) -0.8049(7)
C8A C -0.6044(3) -0.3727(5) -0.6635(6)
C9A C -0.7721(3) -0.4259(4) -0.5537(6)
C10A C -0.7093(3) -0.3938(4) -0.5582(6)
C11A C -0.6687(3) -0.4166(4) -0.6459(6)
C12A C -0.6883(3) -0.4778(4) -0.7235(6)
C13A C -0.7500(3) -0.5109(4) -0.7207(6)
C14A C -0.7937(3) -0.4817(4) -0.6382(5)
C15A C -0.8642(3) -0.5060(4) -0.6425(6)
C16A C -0.9099(3) -0.3797(4) -0.8004(7)
H1A H -0.7147 -0.3327 -0.9632
H2A H -0.8185 -0.3874 -0.9632
H3A H -0.8572 -0.2613 -0.6666
H4A H -0.7550 -0.2015 -0.6702
H5A H -0.6474 -0.2063 -0.7352
H6A H -0.6440 -0.2019 -0.8698
H7A H -0.5711 -0.4144 -0.6546
H8A H -0.5993 -0.3304 -0.6062
H9A H -0.8003 -0.4092 -0.4921
H10A H -0.6942 -0.3557 -0.4992
H11A H -0.6589 -0.4968 -0.7812
H12A H -0.7617 -0.5538 -0.7754
H13A H -0.8872 -0.4714 -0.5887
H14A H -0.8681 -0.5640 -0.6192
H15A H -0.9351 -0.3682 -0.8666
H16A H -0.9316 -0.3591 -0.7325
S2D S -0.59894(6) 0.0057(1) -0.7858(2)
S2E S -0.40106(6) 0.0057(1) -0.7858(2)
Cu2D Cu 0.0000 -0.55883(7) -0.7759(1)
Cu2D_2 Cu -1.0000 -0.55883(7) -0.7759(1)
loop_
_geom_bond_atom_site_label_1
_geom_bond_atom_site_label_2
_geom_bond_site_symmetry_1
_geom_bond_site_symmetry_2
I1 Cu1 1_555 1_555
I2 Cu1 1_555 1_555
Cu1 S1 1_555 1_555
Cu2 I1 1_555 1_555
S1 C7 1_555 1_555
S2 C15 1_555 1_555
O1 C17 1_555 1_555
C1 C2 1_555 1_555
C2 C3 1_555 1_555
C3 C4 1_555 1_555
C4 C5 1_555 1_555
C5 C6 1_555 1_555
C6 C1 1_555 1_555
C7 C6 1_555 1_555
C8 S1 1_555 1_555
C9 C10 1_555 1_555
C10 C11 1_555 1_555
C11 C8 1_555 1_555
C12 C11 1_555 1_555
C13 C12 1_555 1_555
C14 C9 1_555 1_555
C15 C14 1_555 1_555
C16 S2 1_555 1_555
C17 C18 1_555 1_555
C18 C19 1_555 1_555
C19 C20 1_555 1_555
C20 O1 1_555 1_555
C21 C17 1_555 1_555
H1 C1 1_555 1_555
H2 C2 1_555 1_555
H3 C4 1_555 1_555
H4 C5 1_555 1_555
H5 C7 1_555 1_555
H6 C7 1_555 1_555
H7 C8 1_555 1_555
H8 C8 1_555 1_555
H9 C9 1_555 1_555
H10 C10 1_555 1_555
H11 C12 1_555 1_555
H12 C13 1_555 1_555
H13 C15 1_555 1_555
H14 C15 1_555 1_555
H15 C16 1_555 1_555
H16 C16 1_555 1_555
C19A C18 1_555 1_555
C21A C17 1_555 1_555
S1A Cu1 1_555 1_555
S2A C15A 1_555 1_555
C1A C2A 1_555 1_555
C2A C3A 1_555 1_555
C3A C4A 1_555 1_555
C4A C5A 1_555 1_555
C5A C6A 1_555 1_555
C6A C1A 1_555 1_555
C7A S1A 1_555 1_555
C8A S1A 1_555 1_555
C9A C10A 1_555 1_555
C10A C11A 1_555 1_555
C11A C8A 1_555 1_555
C12A C11A 1_555 1_555
C13A C12A 1_555 1_555
C14A C9A 1_555 1_555
C15A C14A 1_555 1_555
C16A S2A 1_555 1_555
H1A C1A 1_555 1_555
H2A C2A 1_555 1_555
H3A C4A 1_555 1_555
H4A C5A 1_555 1_555
H5A C7A 1_555 1_555
H6A C7A 1_555 1_555
H7A C8A 1_555 1_555
H8A C8A 1_555 1_555
H9A C9A 1_555 1_555
H10A C10A 1_555 1_555
H11A C12A 1_555 1_555
H12A C13A 1_555 1_555
H13A C15A 1_555 1_555
H14A C15A 1_555 1_555
H15A C16A 1_555 1_555
H16A C16A 1_555 1_555
S2D Cu2 1_555 1_555
S2E Cu2 1_555 1_555
Cu2D S2 1_555 1_555
Cu2D_2 S2A 1_555 1_555
I2 Cu2 1_555 1_555
C3 C16 1_555 1_555
C13 C14 1_555 1_555
C19 C19A 1_555 1_555
C20 C19A 1_555 1_555
C3A C16A 1_555 1_555
C6A C7A 1_555 1_555
C13A C14A 1_555 1_555

#END
