
#######################################################################
#
#                 Cambridge Crystallographic Data Centre
#                                CCDC 
#
#######################################################################
#
# If this CIF has been generated from an entry in the Cambridge 
# Structural Database, then it will include bibliographic, chemical, 
# crystal, experimental, refinement or atomic coordinate data resulting 
# from the CCDC's data processing and validation procedures.
#
#######################################################################

data_MADZOH
_symmetry_cell_setting           monoclinic
_symmetry_space_group_name_H-M   'C 2/c'
_symmetry_Int_Tables_number      15
_space_group_name_Hall           '-C 2yn'
loop_
_symmetry_equiv_pos_site_id
_symmetry_equiv_pos_as_xyz
1 x,y,z
2 1/2+x,1/2+y,z
3 x,-y,1/2+z
4 1/2+x,1/2-y,1/2+z
5 -x,-y,-z
6 1/2-x,1/2-y,-z
7 -x,y,1/2-z
8 1/2-x,1/2+y,1/2-z
_cell_length_a                   8.2298(16)
_cell_length_b                   11.099(2)
_cell_length_c                   22.640(5)
_cell_angle_alpha                90
_cell_angle_beta                 99.23(3)
_cell_angle_gamma                90
_cell_volume                     2041.22
loop_
_atom_site_label
_atom_site_type_symbol
_atom_site_fract_x
_atom_site_fract_y
_atom_site_fract_z
Zn1 Zn 0.5000 0.30523(4) 0.2500
Zn2 Zn 0.57662(19) 0.21478(15) 0.68934(6)
C1 C 0.1806(4) 0.0242(3) 0.38956(13)
C2 C 0.2935(4) 0.1159(3) 0.38154(13)
C3 C 0.3903(4) 0.1653(3) 0.43164(14)
H1 H 0.4678 0.2241 0.4269
C4 C 0.3718(4) 0.1274(3) 0.48882(13)
C5 C 0.2587(5) 0.0401(3) 0.49650(14)
H2 H 0.2460 0.0157 0.5348
C6 C 0.1637(4) -0.0115(3) 0.44672(15)
H3 H 0.0875 -0.0709 0.4519
C7 C 0.0847(4) -0.0442(3) 0.33788(14)
C8 C 0.3038(4) 0.1673(3) 0.32073(14)
C9 C 0.4737(4) 0.1801(3) 0.54366(16)
O1 O 0.5791(4) 0.2620(3) 0.53120(11)
H4 H 0.6198 0.2891 0.5610
O2 O 0.4584(4) 0.1509(3) 0.59344(12)
O3 O 0.4492(3) 0.1829(2) 0.30937(12)
O4 O 0.1759(4) 0.1948(2) 0.28708(12)
O5 O 0.1681(3) -0.1008(2) 0.30446(11)
O6 O -0.0671(3) -0.0487(3) 0.33199(13)
O7 O 0.7274(3) 0.3563(3) 0.63325(13)
H5 H 0.8281 0.3619 0.6548
H6 H 0.6897 0.4122 0.6527
O8 O 0.4419(8) 0.0603(5) 0.7355(3)
H7 H 0.4817 0.0037 0.7371
O8F O 0.5581(8) 0.0603(5) 0.7645(3)
H7F H 0.5183 0.0037 0.7629
C1F C 0.8194(4) 0.0242(3) 0.11044(13)
C2F C 0.7065(4) 0.1159(3) 0.11846(13)
C3F C 0.6097(4) 0.1653(3) 0.06836(14)
H1F H 0.5322 0.2241 0.0731
C4F C 0.6282(4) 0.1274(3) 0.01118(13)
C5F C 0.7413(5) 0.0401(3) 0.00350(14)
H2F H 0.7540 0.0157 -0.0348
C6F C 0.8363(4) -0.0115(3) 0.05328(15)
H3F H 0.9125 -0.0709 0.0481
C7F C 0.9153(4) -0.0442(3) 0.16212(14)
C8F C 0.6962(4) 0.1673(3) 0.17927(14)
C9F C 0.5263(4) 0.1801(3) -0.04366(16)
O1F O 0.4209(4) 0.2620(3) -0.03120(11)
H4F H 0.3802 0.2891 -0.0610
O2F O 0.5416(4) 0.1509(3) -0.09344(12)
O3F O 0.5508(3) 0.1829(2) 0.19063(12)
O4F O 0.8241(4) 0.1948(2) 0.21292(12)
O5F O 0.8319(3) -0.1008(2) 0.19554(11)
O6F O 1.0671(3) -0.0487(3) 0.16801(13)
Zn2F Zn 0.42338(19) 0.21478(15) -0.18934(6)
O7F O 0.2726(3) 0.3563(3) -0.13325(13)
H5F H 0.1719 0.3619 -0.1548
H6F H 0.3103 0.4122 -0.1527
O5A O 0.6681(3) 0.3992(2) 0.30446(11)
O5G O 0.3319(3) 0.3992(2) 0.19554(11)
O4C O 0.6759(4) 0.3052(2) 0.78708(12)
O4E O 0.3241(4) 0.3052(2) 0.71292(12)
O5D O 0.8319(3) 0.1008(2) 0.69554(11)
Zn2C Zn 0.07662(19) 0.28522(15) 0.18934(6)
Zn2E Zn -0.07662(19) 0.28522(15) 0.31066(6)
Zn1A Zn 0.0000 -0.19477(4) 0.2500
Zn2D Zn 0.42338(19) -0.21478(15) 0.31066(6)
Zn2F_2 Zn 0.42338(19) 0.21478(15) 0.81066(6)
Zn2C_2 Zn 1.07662(19) 0.28522(15) 0.18934(6)
Zn2E_2 Zn 0.92338(19) 0.28522(15) 0.31066(6)
Zn1A_2 Zn 1.0000 -0.19477(4) 0.2500
Zn2B Zn 0.57662(19) -0.21478(15) 0.18934(6)
O4C_2 O 0.6759(4) 0.3052(2) -0.21292(12)
O4E_2 O 0.3241(4) 0.3052(2) -0.28708(12)
O5B O 0.1681(3) 0.1008(2) -0.19554(11)
O8_2 O 0.4419(8) 0.0603(5) -0.2645(3)
O8F_2 O 0.5581(8) 0.0603(5) -0.2355(3)
H7_2 H 0.4817 0.0037 -0.2629
H7F_2 H 0.5183 0.0037 -0.2371
loop_
_geom_bond_atom_site_label_1
_geom_bond_atom_site_label_2
_geom_bond_site_symmetry_1
_geom_bond_site_symmetry_2
Zn1 O3 1_555 1_555
Zn2 O2 1_555 1_555
C1 C2 1_555 1_555
C2 C3 1_555 1_555
C3 H1 1_555 1_555
C4 C3 1_555 1_555
C5 C4 1_555 1_555
H2 C5 1_555 1_555
C6 C1 1_555 1_555
H3 C6 1_555 1_555
C7 C1 1_555 1_555
C8 C2 1_555 1_555
C9 C4 1_555 1_555
O1 C9 1_555 1_555
H4 O1 1_555 1_555
O2 C9 1_555 1_555
O3 C8 1_555 1_555
O4 C8 1_555 1_555
O5 C7 1_555 1_555
O6 C7 1_555 1_555
O7 Zn2 1_555 1_555
H5 O7 1_555 1_555
H6 O7 1_555 1_555
O8 Zn2 1_555 1_555
H7 O8 1_555 1_555
O8F Zn2 1_555 1_555
H7F O8 1_555 1_555
C1F C2F 1_555 1_555
C2F C3F 1_555 1_555
C3F H1F 1_555 1_555
C4F C3F 1_555 1_555
C5F C4F 1_555 1_555
H2F C5F 1_555 1_555
C6F C1F 1_555 1_555
H3F C6F 1_555 1_555
C7F C1F 1_555 1_555
C8F C2F 1_555 1_555
C9F C4F 1_555 1_555
O1F C9F 1_555 1_555
H4F O1F 1_555 1_555
O2F C9F 1_555 1_555
O3F Zn1 1_555 1_555
O4F C8F 1_555 1_555
O5F C7F 1_555 1_555
O6F C7F 1_555 1_555
Zn2F O2F 1_555 1_555
O7F Zn2F 1_555 1_555
H5F O7F 1_555 1_555
H6F O7F 1_555 1_555
O5A Zn1 1_555 1_555
O5G Zn1 1_555 1_555
O4C Zn2 1_555 1_555
O4E Zn2 1_555 1_555
O5D Zn2 1_555 1_555
Zn2C O4 1_555 1_555
Zn2E O4 1_555 1_555
Zn1A O5 1_555 1_555
Zn2D O5 1_555 1_555
Zn2F_2 O8 1_555 1_555
Zn2C_2 O4F 1_555 1_555
Zn2E_2 O4F 1_555 1_555
Zn1A_2 O5F 1_555 1_555
Zn2B O5F 1_555 1_555
O4C_2 Zn2F 1_555 1_555
O4E_2 Zn2F 1_555 1_555
O5B Zn2F 1_555 1_555
O8_2 Zn2F 1_555 1_555
O8F_2 Zn2F 1_555 1_555
H7_2 O8_2 1_555 1_555
H7F_2 O8_2 1_555 1_555
C5 C6 1_555 1_555
O8 O8F 1_555 1_555
H7 O8F 1_555 1_555
H7 H7F 1_555 1_555
O8F H7F 1_555 1_555
O8F Zn2F_2 1_555 1_555
C5F C6F 1_555 1_555
C8F O3F 1_555 1_555
O5A Zn2E_2 1_555 1_555
O5G Zn2C 1_555 1_555
O4C Zn2F_2 1_555 1_555
O4E Zn2F_2 1_555 1_555
O8_2 O8F_2 1_555 1_555
O8F_2 H7_2 1_555 1_555
O8F_2 H7F_2 1_555 1_555
H7_2 H7F_2 1_555 1_555

#END
