
#######################################################################
#
#                 Cambridge Crystallographic Data Centre
#                                CCDC 
#
#######################################################################
#
# If this CIF has been generated from an entry in the Cambridge 
# Structural Database, then it will include bibliographic, chemical, 
# crystal, experimental, refinement or atomic coordinate data resulting 
# from the CCDC's data processing and validation procedures.
#
#######################################################################

data_MAFBIG
_symmetry_cell_setting           triclinic
_symmetry_space_group_name_H-M   'P -1'
_symmetry_Int_Tables_number      2
_space_group_name_Hall           '-P 1'
loop_
_symmetry_equiv_pos_site_id
_symmetry_equiv_pos_as_xyz
1 x,y,z
2 -x,-y,-z
_cell_length_a                   3.5226(7)
_cell_length_b                   9.6595(19)
_cell_length_c                   11.578(2)
_cell_angle_alpha                100.01(3)
_cell_angle_beta                 94.90(3)
_cell_angle_gamma                92.32(3)
_cell_volume                     385.929
loop_
_atom_site_label
_atom_site_type_symbol
_atom_site_fract_x
_atom_site_fract_y
_atom_site_fract_z
Co1 Co 1.0000 0.5000 0.5000
N1 N 0.9520(15) 0.2994(5) 0.3934(4)
N2 N 0.9389(14) 0.1321(5) 0.2355(4)
C1 C 1.0103(19) 0.2711(7) 0.2807(5)
H1 H 1.0901 0.3380 0.2377
N3 N 0.4775(17) 0.5606(6) 0.3997(5)
N4 N 0.5019(19) 0.6413(6) 0.3332(5)
C2 C 0.8376(19) 0.1718(7) 0.4218(6)
H2 H 0.7760 0.1589 0.4958
C3 C 0.9685(16) 0.0650(6) 0.1153(5)
C4 C 0.828(2) 0.0675(7) 0.3254(6)
H3 H 0.7612 -0.0275 0.3212
C5 C 0.9063(18) 0.1392(6) 0.0237(5)
H4 H 0.8454 0.2329 0.0401
C6 C 1.0661(18) -0.0749(7) 0.0929(5)
H5 H 1.1120 -0.1244 0.1542
N5 N 0.525(3) 0.7216(9) 0.2706(8)
Co1_2 Co 0.0000 0.5000 0.5000
Co1_3 Co 1.0000 -0.5000 -0.5000
N1A N 1.0480(15) -0.2994(5) -0.3934(4)
N1A_2 N 1.0480(15) 0.7006(5) 0.6066(4)
N2A N 1.0611(14) -0.1321(5) -0.2355(4)
C1A C 0.9897(19) -0.2711(7) -0.2807(5)
H1A H 0.9099 -0.3380 -0.2377
N3A N 0.5225(17) 0.4394(6) 0.6003(5)
N3_2 N 1.4775(17) 0.5606(6) 0.3997(5)
N3A_2 N 1.5225(17) 0.4394(6) 0.6003(5)
N4A N 0.4981(19) 0.3587(6) 0.6668(5)
C2A C 1.1624(19) -0.1718(7) -0.4218(6)
H2A H 1.2240 -0.1589 -0.4958
C3A C 1.0315(16) -0.0650(6) -0.1153(5)
C4A C 1.172(2) -0.0675(7) -0.3254(6)
H3A H 1.2388 0.0275 -0.3212
C5A C 1.0937(18) -0.1392(6) -0.0237(5)
H4A H 1.1546 -0.2329 -0.0401
C6A C 0.9339(18) 0.0749(7) -0.0929(5)
H5A H 0.8880 0.1244 -0.1542
N5A N 0.475(3) 0.2784(9) 0.7294(8)
O1 O 0.747(10) 0.508(4) 0.062(3)
loop_
_geom_bond_atom_site_label_1
_geom_bond_atom_site_label_2
_geom_bond_site_symmetry_1
_geom_bond_site_symmetry_2
Co1 N1 1_555 1_555
N1 C1 1_555 1_555
N2 C1 1_555 1_555
C1 H1 1_555 1_555
N3 Co1 1_555 1_555
N4 N3 1_555 1_555
C2 N1 1_555 1_555
H2 C2 1_555 1_555
C3 N2 1_555 1_555
C4 N2 1_555 1_555
H3 C4 1_555 1_555
C5 C3 1_555 1_555
H4 C5 1_555 1_555
C6 C3 1_555 1_555
H5 C6 1_555 1_555
N5 N4 1_555 1_555
Co1_2 N3 1_555 1_555
Co1_3 N1A 1_555 1_555
N1A C1A 1_555 1_555
N1A_2 Co1 1_555 1_555
N2A C1A 1_555 1_555
C1A H1A 1_555 1_555
N3A Co1 1_555 1_555
N3_2 Co1 1_555 1_555
N3A_2 Co1 1_555 1_555
N4A N3A 1_555 1_555
C2A N1A 1_555 1_555
H2A C2A 1_555 1_555
C3A N2A 1_555 1_555
C4A N2A 1_555 1_555
H3A C4A 1_555 1_555
C5A C6 1_555 1_555
H4A C5A 1_555 1_555
C6A C5 1_555 1_555
H5A C6A 1_555 1_555
N5A N4A 1_555 1_555
C2 C4 1_555 1_555
Co1_2 N3A 1_555 1_555
C2A C4A 1_555 1_555
C3A C5A 1_555 1_555
C3A C6A 1_555 1_555

#END
