
#######################################################################
#
#                 Cambridge Crystallographic Data Centre
#                                CCDC 
#
#######################################################################
#
# If this CIF has been generated from an entry in the Cambridge 
# Structural Database, then it will include bibliographic, chemical, 
# crystal, experimental, refinement or atomic coordinate data resulting 
# from the CCDC's data processing and validation procedures.
#
#######################################################################

data_MAFBOM
_symmetry_cell_setting           tetragonal
_symmetry_space_group_name_H-M   'P 41 21 2'
_symmetry_Int_Tables_number      92
_space_group_name_Hall           'P 4abw 2nw'
loop_
_symmetry_equiv_pos_site_id
_symmetry_equiv_pos_as_xyz
1 x,y,z
2 -x,-y,1/2+z
3 1/2-y,1/2+x,1/4+z
4 1/2+y,1/2-x,3/4+z
5 1/2-x,1/2+y,1/4-z
6 1/2+x,1/2-y,3/4-z
7 y,x,-z
8 -y,-x,1/2-z
_cell_length_a                   10.5842(15)
_cell_length_b                   10.5842(15)
_cell_length_c                   15.826(3)
_cell_angle_alpha                90
_cell_angle_beta                 90
_cell_angle_gamma                90
_cell_volume                     1772.91
loop_
_atom_site_label
_atom_site_type_symbol
_atom_site_fract_x
_atom_site_fract_y
_atom_site_fract_z
N1 N 0.77409(19) 0.36575(19) 1.17148(12)
Mn1 Mn 0.68706(3) 0.68706(3) 1.0000
N2 N 0.7011(2) 0.34224(18) 1.02912(12)
N3 N 0.8021(2) 0.46754(19) 1.22088(13)
N4 N 0.74852(19) 0.54202(19) 1.09725(12)
C1 C 0.7413(2) 0.4162(2) 1.09674(15)
N5 N 0.7870(2) 0.5706(2) 1.17740(12)
C2 C 0.6623(2) 0.3880(2) 0.95304(16)
C3 C 0.6784(3) 0.1778(3) 0.87981(16)
H1 H 0.7404 0.1522 0.9178
C4 C 0.5506(3) 0.1353(3) 0.7574(2)
H2 H 0.5273 0.0813 0.7138
C5 C 0.6216(3) 0.2954(2) 0.88808(16)
C6 C 0.5290(3) 0.3329(3) 0.83044(18)
H3 H 0.4909 0.4117 0.8357
C7 C 0.4936(3) 0.2517(3) 0.76480(19)
H4 H 0.4318 0.2762 0.7264
C8 C 0.6413(4) 0.0986(3) 0.8139(2)
H5 H 0.6788 0.0195 0.8083
O1 O 0.6579(2) 0.50262(17) 0.93782(11)
H6 H 0.700(3) 0.264(3) 1.0443(17)
N1F N 0.36575(19) 0.77409(19) 0.82852(12)
N1C N 0.86575(19) 0.72591(19) 0.92148(12)
N1D N 0.72591(19) 0.86575(19) 1.07852(12)
Mn1B Mn 0.81294(3) 0.18706(3) 1.2500
Mn1C Mn 0.18706(3) 0.81294(3) 0.7500
N2F N 0.34224(18) 0.7011(2) 0.97088(12)
N3F N 0.46754(19) 0.8021(2) 0.77912(13)
N4F N 0.54202(19) 0.74852(19) 0.90275(12)
C1F C 0.4162(2) 0.7413(2) 0.90326(15)
N5F N 0.5706(2) 0.7870(2) 0.82260(12)
C2F C 0.3880(2) 0.6623(2) 1.04696(16)
C3F C 0.1778(3) 0.6784(3) 1.12019(16)
H1F H 0.1522 0.7404 1.0822
C4F C 0.1353(3) 0.5506(3) 1.2426(2)
H2F H 0.0813 0.5273 1.2862
C5F C 0.2954(2) 0.6216(3) 1.11192(16)
C6F C 0.3329(3) 0.5290(3) 1.16956(18)
H3F H 0.4117 0.4909 1.1643
C7F C 0.2517(3) 0.4936(3) 1.23520(19)
H4F H 0.2762 0.4318 1.2736
C8F C 0.0986(3) 0.6413(4) 1.1861(2)
H5F H 0.0195 0.6788 1.1917
O1F O 0.50262(17) 0.6579(2) 1.06218(11)
H6F H 0.264(3) 0.700(3) 0.9557(17)
loop_
_geom_bond_atom_site_label_1
_geom_bond_atom_site_label_2
_geom_bond_site_symmetry_1
_geom_bond_site_symmetry_2
N1 N3 1_555 1_555
Mn1 N4 1_555 1_555
N2 C1 1_555 1_555
N3 N5 1_555 1_555
N4 C1 1_555 1_555
C1 N1 1_555 1_555
N5 N4 1_555 1_555
C2 N2 1_555 1_555
C3 H1 1_555 1_555
C4 H2 1_555 1_555
C5 C2 1_555 1_555
C6 C5 1_555 1_555
H3 C6 1_555 1_555
C7 C4 1_555 1_555
H4 C7 1_555 1_555
C8 C3 1_555 1_555
H5 C8 1_555 1_555
O1 Mn1 1_555 1_555
H6 N2 1_555 1_555
N1F Mn1C 1_555 1_555
N1C Mn1 1_555 1_555
N1D Mn1 1_555 1_555
Mn1B N1 1_555 1_555
N2F C1F 1_555 1_555
N3F N1F 1_555 1_555
N4F Mn1 1_555 1_555
C1F N1F 1_555 1_555
N5F N3F 1_555 1_555
C2F N2F 1_555 1_555
C3F H1F 1_555 1_555
C4F H2F 1_555 1_555
C5F C2F 1_555 1_555
C6F C5F 1_555 1_555
H3F C6F 1_555 1_555
C7F C4F 1_555 1_555
H4F C7F 1_555 1_555
C8F C3F 1_555 1_555
H5F C8F 1_555 1_555
O1F Mn1 1_555 1_555
H6F N2F 1_555 1_555
C2 O1 1_555 1_555
C3 C5 1_555 1_555
C4 C8 1_555 1_555
C6 C7 1_555 1_555
N4F C1F 1_555 1_555
N4F N5F 1_555 1_555
C2F O1F 1_555 1_555
C3F C5F 1_555 1_555
C4F C8F 1_555 1_555
C6F C7F 1_555 1_555

#END
