
#######################################################################
#
#                 Cambridge Crystallographic Data Centre
#                                CCDC 
#
#######################################################################
#
# If this CIF has been generated from an entry in the Cambridge 
# Structural Database, then it will include bibliographic, chemical, 
# crystal, experimental, refinement or atomic coordinate data resulting 
# from the CCDC's data processing and validation procedures.
#
#######################################################################

data_MAFBUS
_symmetry_cell_setting           tetragonal
_symmetry_space_group_name_H-M   'P 43 21 2'
_symmetry_Int_Tables_number      96
_space_group_name_Hall           'P 4nw 2abw'
loop_
_symmetry_equiv_pos_site_id
_symmetry_equiv_pos_as_xyz
1 x,y,z
2 -x,-y,1/2+z
3 1/2-y,1/2+x,3/4+z
4 1/2+y,1/2-x,1/4+z
5 1/2-x,1/2+y,3/4-z
6 1/2+x,1/2-y,1/4-z
7 y,x,-z
8 -y,-x,1/2-z
_cell_length_a                   10.5430(15)
_cell_length_b                   10.5430(15)
_cell_length_c                   15.766(3)
_cell_angle_alpha                90
_cell_angle_beta                 90
_cell_angle_gamma                90
_cell_volume                     1752.47
loop_
_atom_site_label
_atom_site_type_symbol
_atom_site_fract_x
_atom_site_fract_y
_atom_site_fract_z
Mn1 Mn -0.18708(3) 0.81292(3) 1.0000
N1 N 0.15783(14) 0.79927(17) 1.02935(10)
H1 H 0.2388 0.7999 1.0362
N2 N 0.03271(15) 0.6981(2) 1.22082(11)
N3 N -0.04216(15) 0.75142(15) 1.09712(10)
C1 C 0.08390(19) 0.75892(18) 1.09681(12)
N4 N -0.07052(17) 0.71286(18) 1.17742(10)
C2 C 0.11154(19) 0.8380(2) 0.95304(13)
C3 C 0.3221(2) 0.8219(3) 0.87969(14)
H2 H 0.3478 0.7595 0.9177
C4 C 0.3649(3) 0.9500(3) 0.75711(17)
H3 H 0.4191 0.9736 0.7134
C5 C 0.2044(2) 0.8783(2) 0.88820(13)
C6 C 0.1669(2) 0.9711(2) 0.83039(15)
H4 H 0.0879 1.0094 0.8356
C7 C 0.2482(3) 1.0062(3) 0.76466(16)
H5 H 0.2233 1.0679 0.7259
C8 C 0.4015(2) 0.8590(3) 0.81407(17)
H6 H 0.4810 0.8215 0.8087
N5 N 0.13431(15) 0.72558(16) 1.17157(10)
O1 O -0.00308(14) 0.84239(17) 0.93772(9)
Mn1B Mn -0.31292(3) 1.31292(3) 0.7500
Mn1C Mn 0.31292(3) 0.68708(3) 1.2500
N1F N -0.20073(17) 1.15783(14) 0.97065(10)
H1F H -0.2001 1.2388 0.9638
N2F N -0.3019(2) 1.03271(15) 0.77918(11)
N3F N -0.24858(15) 0.95784(15) 0.90288(10)
C1F C -0.24108(18) 1.08390(19) 0.90319(12)
N4F N -0.28714(18) 0.92948(17) 0.82258(10)
C2F C -0.1620(2) 1.11154(19) 1.04696(13)
C3F C -0.1781(3) 1.3221(2) 1.12031(14)
H2F H -0.2405 1.3478 1.0823
C4F C -0.0500(3) 1.3649(3) 1.24289(17)
H3F H -0.0264 1.4191 1.2866
C5F C -0.1217(2) 1.2044(2) 1.11180(13)
C6F C -0.0289(2) 1.1669(2) 1.16961(15)
H4F H 0.0094 1.0879 1.1644
C7F C 0.0062(3) 1.2482(3) 1.23534(16)
H5F H 0.0679 1.2233 1.2741
C8F C -0.1410(3) 1.4015(2) 1.18593(17)
H6F H -0.1785 1.4810 1.1913
N5F N -0.27442(16) 1.13431(15) 0.82843(10)
N5B N -0.22558(16) 0.63431(15) 0.92157(10)
N5E N -0.36569(15) 0.77442(16) 1.07843(10)
O1F O -0.15761(17) 0.99692(14) 1.06228(9)
loop_
_geom_bond_atom_site_label_1
_geom_bond_atom_site_label_2
_geom_bond_site_symmetry_1
_geom_bond_site_symmetry_2
Mn1 N3 1_555 1_555
N1 H1 1_555 1_555
N2 N4 1_555 1_555
N3 C1 1_555 1_555
C1 N1 1_555 1_555
N4 N3 1_555 1_555
C2 N1 1_555 1_555
C3 H2 1_555 1_555
C4 H3 1_555 1_555
C5 C2 1_555 1_555
C6 C5 1_555 1_555
H4 C6 1_555 1_555
C7 C4 1_555 1_555
H5 C7 1_555 1_555
C8 C3 1_555 1_555
H6 C8 1_555 1_555
N5 N2 1_555 1_555
O1 Mn1 1_555 1_555
Mn1B N5F 1_555 1_555
Mn1C N5 1_555 1_555
N1F H1F 1_555 1_555
N2F N4F 1_555 1_555
N3F Mn1 1_555 1_555
C1F N1F 1_555 1_555
N4F N3F 1_555 1_555
C2F N1F 1_555 1_555
C3F H2F 1_555 1_555
C4F H3F 1_555 1_555
C5F C2F 1_555 1_555
C6F C5F 1_555 1_555
H4F C6F 1_555 1_555
C7F C4F 1_555 1_555
H5F C7F 1_555 1_555
C8F C3F 1_555 1_555
H6F C8F 1_555 1_555
N5F N2F 1_555 1_555
N5B Mn1 1_555 1_555
N5E Mn1 1_555 1_555
O1F Mn1 1_555 1_555
C1 N5 1_555 1_555
C2 O1 1_555 1_555
C3 C5 1_555 1_555
C4 C8 1_555 1_555
C6 C7 1_555 1_555
N3F C1F 1_555 1_555
C1F N5F 1_555 1_555
C2F O1F 1_555 1_555
C3F C5F 1_555 1_555
C4F C8F 1_555 1_555
C6F C7F 1_555 1_555

#END
