
#######################################################################
#
#                 Cambridge Crystallographic Data Centre
#                                CCDC 
#
#######################################################################
#
# If this CIF has been generated from an entry in the Cambridge 
# Structural Database, then it will include bibliographic, chemical, 
# crystal, experimental, refinement or atomic coordinate data resulting 
# from the CCDC's data processing and validation procedures.
#
#######################################################################

data_MAFDII
_symmetry_cell_setting           orthorhombic
_symmetry_space_group_name_H-M   'F d d d'
_symmetry_Int_Tables_number      70
_space_group_name_Hall           '-F 2uv 2vw'
loop_
_symmetry_equiv_pos_site_id
_symmetry_equiv_pos_as_xyz
1 x,y,z
2 3/4-x,3/4-y,z
3 3/4-x,y,3/4-z
4 x,3/4-y,3/4-z
5 x,1/2+y,1/2+z
6 3/4-x,1/4-y,1/2+z
7 3/4-x,1/2+y,1/4-z
8 x,1/4-y,1/4-z
9 1/2+x,y,1/2+z
10 1/4-x,3/4-y,1/2+z
11 1/4-x,y,1/4-z
12 1/2+x,3/4-y,1/4-z
13 1/2+x,1/2+y,z
14 1/4-x,1/4-y,z
15 1/4-x,1/2+y,3/4-z
16 1/2+x,1/4-y,3/4-z
17 -x,-y,-z
18 1/4+x,1/4+y,-z
19 1/4+x,-y,1/4+z
20 -x,1/4+y,1/4+z
21 -x,1/2-y,1/2-z
22 1/4+x,3/4+y,1/2-z
23 1/4+x,1/2-y,3/4+z
24 -x,3/4+y,3/4+z
25 1/2-x,-y,1/2-z
26 3/4+x,1/4+y,1/2-z
27 3/4+x,-y,3/4+z
28 1/2-x,1/4+y,3/4+z
29 1/2-x,1/2-y,-z
30 3/4+x,3/4+y,-z
31 3/4+x,1/2-y,1/4+z
32 1/2-x,3/4+y,1/4+z
_cell_length_a                   19.2396(9)
_cell_length_b                   20.3017(9)
_cell_length_c                   46.143(2)
_cell_angle_alpha                90
_cell_angle_beta                 90
_cell_angle_gamma                90
_cell_volume                     18023.3
loop_
_atom_site_label
_atom_site_type_symbol
_atom_site_fract_x
_atom_site_fract_y
_atom_site_fract_z
In1 In 1.0000 0.5000 1.0000
In2 In 1.1250 0.6250 1.013434(17)
C1 C 1.0309(5) 0.6134(4) 0.95769(19)
C2 C 1.0283(5) 0.6444(5) 0.9278(2)
C3 C 0.9935(7) 0.6140(6) 0.9055(2)
H1 H 0.9718 0.5737 0.9086
C4 C 1.0617(6) 0.7047(6) 0.9234(2)
H2 H 1.0839 0.7260 0.9387
C5 C 0.9910(8) 0.6429(8) 0.8786(3)
H3 H 0.9659 0.6236 0.8637
C6 C 1.0613(7) 0.7323(7) 0.8961(3)
H4 H 1.0847 0.7716 0.8927
C7 C 1.0269(7) 0.7021(8) 0.8742(3)
C8 C 1.0744(8) 0.7651(8) 0.8353(3)
C9 C 1.1395(9) 0.7453(9) 0.8370(4)
H5 H 1.1507 0.7082 0.8479
C10 C 1.0565(7) 0.8216(8) 0.8203(3)
H6 H 1.0108 0.8364 0.8201
C11 C 1.1923(7) 0.7804(6) 0.8225(3)
H7 H 1.2382 0.7663 0.8234
C12 C 1.1067(6) 0.8553(6) 0.8060(2)
H8 H 1.0948 0.8923 0.7952
C13 C 1.1744(6) 0.8359(5) 0.8072(2)
C14 C 1.2296(5) 0.8733(4) 0.7904(2)
O1 O 1.0086(4) 0.5557(3) 0.96034(13)
O2 O 1.0543(4) 0.6474(3) 0.97818(14)
O3 O 1.0196(6) 0.7296(7) 0.8471(2)
O4 O 1.2914(4) 0.8554(3) 0.79350(14)
O5 O 1.2082(3) 0.9181(3) 0.77431(14)
O6 O 1.0998(3) 0.5256(3) 1.01301(13)
In1C In 1.0000 0.2500 0.7500
In1N In 1.2500 1.0000 0.7500
In1M In 1.2500 0.7500 1.0000
In2V In 1.3750 0.8750 0.763434(17)
In2W In 0.8750 0.3750 0.763434(17)
C1M C 1.2191(5) 0.6366(4) 0.95769(19)
C2M C 1.2217(5) 0.6056(5) 0.9278(2)
C3M C 1.2565(7) 0.6360(6) 0.9055(2)
H1M H 1.2782 0.6763 0.9086
C4M C 1.1883(6) 0.5453(6) 0.9234(2)
H2M H 1.1661 0.5240 0.9387
C5M C 1.2590(8) 0.6071(8) 0.8786(3)
H3M H 1.2841 0.6264 0.8637
C6M C 1.1887(7) 0.5177(7) 0.8961(3)
H4M H 1.1653 0.4784 0.8927
C7M C 1.2231(7) 0.5479(8) 0.8742(3)
C8M C 1.1756(8) 0.4849(8) 0.8353(3)
C9M C 1.1105(9) 0.5047(9) 0.8370(4)
H5M H 1.0993 0.5418 0.8479
C10M C 1.1935(7) 0.4284(8) 0.8203(3)
H6M H 1.2392 0.4136 0.8201
C11M C 1.0577(7) 0.4696(6) 0.8225(3)
H7M H 1.0118 0.4837 0.8234
C12M C 1.1433(6) 0.3947(6) 0.8060(2)
H8M H 1.1552 0.3577 0.7952
C13M C 1.0756(6) 0.4141(5) 0.8072(2)
C14M C 1.0204(5) 0.3767(4) 0.7904(2)
O1M O 1.2414(4) 0.6943(3) 0.96034(13)
O1P O 0.9914(4) 0.4443(3) 1.03966(13)
O2M O 1.1957(4) 0.6026(3) 0.97818(14)
O3M O 1.2304(6) 0.5204(7) 0.8471(2)
O4M O 0.9586(4) 0.3946(3) 0.79350(14)
O4DA O 1.0414(4) 0.6446(3) 1.04350(14)
O4EA O 1.2086(4) 0.6054(3) 1.04350(14)
O5M O 1.0418(3) 0.3319(3) 0.77431(14)
O5N O 1.0418(3) 0.4181(3) 0.97569(14)
O5DA O 0.9582(3) 0.5819(3) 1.02431(14)
O6M O 1.1502(3) 0.7244(3) 1.01301(13)
O6P O 0.9002(3) 0.4744(3) 0.98699(13)
loop_
_geom_bond_atom_site_label_1
_geom_bond_atom_site_label_2
_geom_bond_site_symmetry_1
_geom_bond_site_symmetry_2
In1 O1 1_555 1_555
In2 O2 1_555 1_555
C1 C2 1_555 1_555
C2 C3 1_555 1_555
C3 H1 1_555 1_555
C4 C2 1_555 1_555
H2 C4 1_555 1_555
C5 C3 1_555 1_555
H3 C5 1_555 1_555
C6 C4 1_555 1_555
H4 C6 1_555 1_555
C7 C5 1_555 1_555
C8 C9 1_555 1_555
C9 H5 1_555 1_555
C10 C8 1_555 1_555
H6 C10 1_555 1_555
C11 C9 1_555 1_555
H7 C11 1_555 1_555
C12 C10 1_555 1_555
H8 C12 1_555 1_555
C13 C11 1_555 1_555
C14 C13 1_555 1_555
O1 C1 1_555 1_555
O2 C1 1_555 1_555
O3 C7 1_555 1_555
O4 C14 1_555 1_555
O5 C14 1_555 1_555
O6 In1 1_555 1_555
In1C O5M 1_555 1_555
In1N O5 1_555 1_555
In1M O1M 1_555 1_555
In2V O4 1_555 1_555
In2W O4M 1_555 1_555
C1M C2M 1_555 1_555
C2M C3M 1_555 1_555
C3M H1M 1_555 1_555
C4M C2M 1_555 1_555
H2M C4M 1_555 1_555
C5M C3M 1_555 1_555
H3M C5M 1_555 1_555
C6M C4M 1_555 1_555
H4M C6M 1_555 1_555
C7M C5M 1_555 1_555
C8M C9M 1_555 1_555
C9M H5M 1_555 1_555
C10M C8M 1_555 1_555
H6M C10M 1_555 1_555
C11M C9M 1_555 1_555
H7M C11M 1_555 1_555
C12M C10M 1_555 1_555
H8M C12M 1_555 1_555
C13M C11M 1_555 1_555
C14M C13M 1_555 1_555
O1M C1M 1_555 1_555
O1P In1 1_555 1_555
O2M In2 1_555 1_555
O3M C7M 1_555 1_555
O4M C14M 1_555 1_555
O4DA In2 1_555 1_555
O4EA In2 1_555 1_555
O5M C14M 1_555 1_555
O5N In1 1_555 1_555
O5DA In1 1_555 1_555
O6M In2 1_555 1_555
O6P In1 1_555 1_555
In2 O6 1_555 1_555
C6 C7 1_555 1_555
C8 O3 1_555 1_555
C12 C13 1_555 1_555
In1M O6M 1_555 1_555
C1M O2M 1_555 1_555
C6M C7M 1_555 1_555
C8M O3M 1_555 1_555
C12M C13M 1_555 1_555

#END
