
#######################################################################
#
#                 Cambridge Crystallographic Data Centre
#                                CCDC 
#
#######################################################################
#
# If this CIF has been generated from an entry in the Cambridge 
# Structural Database, then it will include bibliographic, chemical, 
# crystal, experimental, refinement or atomic coordinate data resulting 
# from the CCDC's data processing and validation procedures.
#
#######################################################################

data_MAFJIO
_symmetry_cell_setting           hexagonal
_symmetry_space_group_name_H-M   'P 63 2 2'
_symmetry_Int_Tables_number      182
_space_group_name_Hall           "P 6c 2'c"
loop_
_symmetry_equiv_pos_site_id
_symmetry_equiv_pos_as_xyz
1 x,y,z
2 -x,-y,1/2+z
3 -y,x-y,z
4 -x+y,-x,z
5 x-y,x,1/2+z
6 y,-x+y,1/2+z
7 x-y,-y,-z
8 -x,-x+y,-z
9 y,x,-z
10 -y,-x,1/2-z
11 x,x-y,1/2-z
12 -x+y,y,1/2-z
_cell_length_a                   18.5773(3)
_cell_length_b                   18.5773(3)
_cell_length_c                   22.6933(5)
_cell_angle_alpha                90
_cell_angle_beta                 90
_cell_angle_gamma                120
_cell_volume                     6782.56
loop_
_atom_site_label
_atom_site_type_symbol
_atom_site_fract_x
_atom_site_fract_y
_atom_site_fract_z
Cu1 Cu -0.045646(17) 0.498021(19) 0.451203(18)
O1 O 0.03215(10) 0.61579(11) 0.42966(8)
O2 O 0.11552(10) 0.64748(12) 0.50950(9)
O3 O 0.43281(11) 0.96838(12) 0.42290(9)
O4 O 0.39073(11) 0.89585(11) 0.50657(10)
O5 O 0.16934(12) 0.89686(12) 0.32085(10)
O6 O -0.11057(16) 0.46619(19) 0.36854(13)
C1 C 0.37896(15) 0.91361(15) 0.45564(15)
C2 C 0.09551(15) 0.66327(15) 0.45977(13)
C3 C 0.26796(16) 0.89929(16) 0.38580(14)
H1 H 0.3076 0.9504 0.3683
C4 C 0.29195(16) 0.86686(16) 0.43187(13)
C5 C 0.23443(15) 0.79083(16) 0.45738(14)
H2 H 0.2497 0.7695 0.4901
C6 C 0.15441(15) 0.74696(15) 0.43388(13)
C7 C 0.12880(16) 0.77933(15) 0.38780(12)
H3 H 0.0740 0.7491 0.3724
C8 C 0.18673(16) 0.85818(17) 0.36483(13)
C9 C 0.08484(17) 0.85766(18) 0.30141(14)
H4 H 0.0479 0.8566 0.3332
H5 H 0.0654 0.8001 0.2881
C10 C 0.08748(15) 0.91252(15) 0.2500
H6 H 0.1085 0.9698 0.2647
Cu1I Cu 0.501979(19) 1.045646(17) 0.048797(18)
Cu1G Cu 0.045646(17) 0.543667(25) 0.548797(18)
Cu1C Cu 0.543667(25) 1.045646(17) 0.451203(18)
Cu1H Cu 0.498021(19) 0.954354(17) 0.548797(18)
Cu1J Cu -0.045646(17) 0.456333(25) 0.048797(18)
Cu1A Cu 0.045646(17) 0.501979(19) -0.048797(18)
Cu1D Cu 0.456333(25) 0.954354(17) -0.048797(18)
O1I O 0.38421(11) 0.96785(10) 0.07034(8)
O2I O 0.35252(12) 0.88448(10) -0.00950(9)
O2G O -0.11552(10) 0.53196(16) 0.49050(9)
O2D O 0.46804(16) 1.11552(10) 0.00950(9)
O3I O 0.03162(12) 0.56719(11) 0.07710(9)
O3B O 0.03162(12) 0.46443(16) 0.42290(9)
O3K O 0.53557(16) 0.96838(12) 0.07710(9)
O4I O 0.10415(11) 0.60927(11) -0.00657(10)
O4H O -0.10415(11) 0.39073(11) 0.49343(10)
O4A O 0.60927(11) 1.10415(11) 0.00657(10)
O5I O 0.10314(12) 0.83066(12) 0.17915(10)
O6I O 0.53381(19) 1.11057(16) 0.13146(13)
C1I C 0.08639(15) 0.62104(15) 0.04436(15)
C2I C 0.33673(15) 0.90449(15) 0.04023(13)
C3I C 0.10071(16) 0.73204(16) 0.11420(14)
H1I H 0.0496 0.6924 0.1317
C4I C 0.13314(16) 0.70805(16) 0.06813(13)
C5I C 0.20917(16) 0.76557(15) 0.04262(14)
H2I H 0.2305 0.7503 0.0099
C6I C 0.25304(15) 0.84559(15) 0.06612(13)
C7I C 0.22067(15) 0.87120(16) 0.11220(12)
H3I H 0.2509 0.9260 0.1276
C8I C 0.14182(17) 0.81327(16) 0.13517(13)
C9I C 0.14234(18) 0.91516(17) 0.19859(14)
H4I H 0.1434 0.9521 0.1668
H5I H 0.1999 0.9346 0.2119
H6I H 0.0302 0.8915 0.2353
loop_
_geom_bond_atom_site_label_1
_geom_bond_atom_site_label_2
_geom_bond_site_symmetry_1
_geom_bond_site_symmetry_2
Cu1 O1 1_555 1_555
O1 C2 1_555 1_555
O2 C2 1_555 1_555
O3 C1 1_555 1_555
O4 C1 1_555 1_555
O5 C8 1_555 1_555
O6 Cu1 1_555 1_555
C1 C4 1_555 1_555
C2 C6 1_555 1_555
C3 H1 1_555 1_555
C4 C3 1_555 1_555
C5 C4 1_555 1_555
H2 C5 1_555 1_555
C6 C5 1_555 1_555
C7 C6 1_555 1_555
H3 C7 1_555 1_555
C8 C3 1_555 1_555
C9 O5 1_555 1_555
H4 C9 1_555 1_555
H5 C9 1_555 1_555
C10 C9 1_555 1_555
H6 C10 1_555 1_555
Cu1I Cu1D 1_555 1_555
Cu1G Cu1 1_555 1_555
Cu1C O3 1_555 1_555
Cu1H O4 1_555 1_555
Cu1J Cu1A 1_555 1_555
Cu1A O4I 1_555 1_555
Cu1D O2I 1_555 1_555
O1I Cu1I 1_555 1_555
O2I C2I 1_555 1_555
O2G Cu1 1_555 1_555
O2D Cu1I 1_555 1_555
O3I Cu1J 1_555 1_555
O3B Cu1 1_555 1_555
O3K Cu1I 1_555 1_555
O4I C1I 1_555 1_555
O4H Cu1 1_555 1_555
O4A Cu1I 1_555 1_555
O5I C8I 1_555 1_555
O6I Cu1I 1_555 1_555
C1I O3I 1_555 1_555
C2I O1I 1_555 1_555
C3I H1I 1_555 1_555
C4I C1I 1_555 1_555
C5I C4I 1_555 1_555
H2I C5I 1_555 1_555
C6I C2I 1_555 1_555
C7I C6I 1_555 1_555
H3I C7I 1_555 1_555
C8I C3I 1_555 1_555
C9I C10 1_555 1_555
H4I C9I 1_555 1_555
H5I C9I 1_555 1_555
H6I C10 1_555 1_555
O2 Cu1G 1_555 1_555
C7 C8 1_555 1_555
Cu1C Cu1H 1_555 1_555
O5I C9I 1_555 1_555
C3I C4I 1_555 1_555
C5I C6I 1_555 1_555
C7I C8I 1_555 1_555

#END
