
#######################################################################
#
#                 Cambridge Crystallographic Data Centre
#                                CCDC 
#
#######################################################################
#
# If this CIF has been generated from an entry in the Cambridge 
# Structural Database, then it will include bibliographic, chemical, 
# crystal, experimental, refinement or atomic coordinate data resulting 
# from the CCDC's data processing and validation procedures.
#
#######################################################################

data_MAFLIQ
_symmetry_cell_setting           monoclinic
_symmetry_space_group_name_H-M   'P 21/c'
_symmetry_Int_Tables_number      14
_space_group_name_Hall           '-P 2ybc'
loop_
_symmetry_equiv_pos_site_id
_symmetry_equiv_pos_as_xyz
1 x,y,z
2 -x,1/2+y,1/2-z
3 -x,-y,-z
4 x,1/2-y,1/2+z
_cell_length_a                   13.7503(16)
_cell_length_b                   12.4710(14)
_cell_length_c                   15.7795(17)
_cell_angle_alpha                90
_cell_angle_beta                 103.158(2)
_cell_angle_gamma                90
_cell_volume                     2634.83
loop_
_atom_site_label
_atom_site_type_symbol
_atom_site_fract_x
_atom_site_fract_y
_atom_site_fract_z
Mn1 Mn 0.46352(5) 0.33809(5) 0.18005(4)
Fe1 Fe 0.5000 0.5000 0.5000
O1 O 0.3826(2) 0.4434(2) 0.11545(19)
O2 O 0.5811(2) 0.4066(2) 0.16799(19)
O3 O 0.3197(2) 0.6275(2) 0.0558(2)
O4 O 0.7138(3) 0.5278(3) 0.1226(2)
N1 N 0.4670(3) 0.4175(3) 0.3105(3)
N2 N 0.5286(3) 0.7367(3) 0.4502(3)
N3 N 0.2718(4) 0.5210(4) 0.4687(4)
N4 N 0.3446(3) 0.2510(3) 0.1867(2)
N5 N 0.5378(3) 0.2163(3) 0.2408(2)
C1 C 0.4800(4) 0.4498(3) 0.3806(3)
C2 C 0.5166(4) 0.6492(4) 0.4684(3)
C3 C 0.3573(5) 0.5145(4) 0.4812(3)
C4 C 0.2215(4) 0.3895(4) 0.1367(3)
C5 C 0.2874(4) 0.4623(4) 0.1115(3)
C6 C 0.2489(4) 0.5636(4) 0.0786(3)
C7 C 0.1512(4) 0.5897(4) 0.0722(4)
H4 H 0.1273 0.6564 0.0506
C8 C 0.0871(4) 0.5165(5) 0.0978(4)
H5 H 0.0206 0.5345 0.0940
C9 C 0.1222(4) 0.4174(5) 0.1287(4)
H6 H 0.0786 0.3682 0.1444
C10 C 0.2549(4) 0.2838(4) 0.1692(3)
H7 H 0.2063 0.2359 0.1780
C11 C 0.2943(4) 0.7384(4) 0.0361(3)
H8 H 0.2384 0.7424 -0.0130
H9 H 0.3504 0.7749 0.0228
H10 H 0.2770 0.7717 0.0856
C12 C 0.3723(4) 0.1402(3) 0.2162(3)
H11 H 0.3768 0.0952 0.1671
H12 H 0.3226 0.1100 0.2442
C13 C 0.4726(4) 0.1463(4) 0.2800(3)
H13 H 0.4650 0.1761 0.3349
H14 H 0.5016 0.0753 0.2907
C14 C 0.6274(4) 0.1922(4) 0.2392(3)
H15 H 0.6503 0.1249 0.2603
C15 C 0.6960(4) 0.2595(4) 0.2079(3)
C16 C 0.7938(4) 0.2218(5) 0.2143(3)
H16 H 0.8101 0.1524 0.2341
C17 C 0.8657(4) 0.2851(5) 0.1918(4)
H17 H 0.9299 0.2588 0.1960
C18 C 0.8414(4) 0.3892(5) 0.1627(3)
H18 H 0.8905 0.4330 0.1491
C19 C 0.7465(4) 0.4282(4) 0.1539(3)
C20 C 0.6712(4) 0.3640(4) 0.1769(3)
C21 C 0.7870(4) 0.6050(4) 0.1108(4)
H19 H 0.8380 0.6108 0.1635
H20 H 0.7556 0.6735 0.0969
H21 H 0.8166 0.5823 0.0642
Mn1B Mn 0.53648(5) 0.66191(5) 0.81995(4)
Mn1A Mn 0.53648(5) 0.83809(5) 0.31995(4)
Mn1C Mn 0.46352(5) 0.16191(5) 0.68005(4)
O1B O 0.6174(2) 0.5566(2) 0.88455(19)
O2B O 0.4189(2) 0.5934(2) 0.83201(19)
O3B O 0.6803(2) 0.3725(2) 0.9442(2)
O4B O 0.2862(3) 0.4722(3) 0.8774(2)
N1B N 0.5330(3) 0.5825(3) 0.6895(3)
N2B N 0.4714(3) 0.2633(3) 0.5498(3)
N2A N 0.4714(3) 0.2367(3) 0.0498(3)
N2C N 0.5286(3) 0.7633(3) 0.9502(3)
N3B N 0.7282(4) 0.4790(4) 0.5313(4)
N4B N 0.6554(3) 0.7490(3) 0.8133(2)
N5B N 0.4622(3) 0.7837(3) 0.7592(2)
C1B C 0.5200(4) 0.5502(3) 0.6194(3)
C2B C 0.4834(4) 0.3508(4) 0.5316(3)
C3B C 0.6427(5) 0.4855(4) 0.5188(3)
C4B C 0.7785(4) 0.6105(4) 0.8633(3)
C5B C 0.7126(4) 0.5377(4) 0.8885(3)
C6B C 0.7511(4) 0.4364(4) 0.9214(3)
C7B C 0.8488(4) 0.4103(4) 0.9278(4)
H4B H 0.8727 0.3436 0.9494
C8B C 0.9129(4) 0.4835(5) 0.9022(4)
H5B H 0.9794 0.4655 0.9060
C9B C 0.8778(4) 0.5826(5) 0.8713(4)
H6B H 0.9214 0.6318 0.8556
C10B C 0.7451(4) 0.7162(4) 0.8308(3)
H7B H 0.7937 0.7641 0.8220
C11B C 0.7057(4) 0.2616(4) 0.9639(3)
H8B H 0.7616 0.2576 1.0130
H9B H 0.6496 0.2251 0.9772
H10B H 0.7230 0.2283 0.9144
C12B C 0.6277(4) 0.8598(3) 0.7838(3)
H11B H 0.6232 0.9048 0.8329
H12B H 0.6774 0.8900 0.7558
C13B C 0.5274(4) 0.8537(4) 0.7200(3)
H13B H 0.5350 0.8239 0.6651
H14B H 0.4984 0.9247 0.7093
C14B C 0.3726(4) 0.8078(4) 0.7608(3)
H15B H 0.3497 0.8751 0.7397
C15B C 0.3040(4) 0.7405(4) 0.7921(3)
C16B C 0.2062(4) 0.7782(5) 0.7857(3)
H16B H 0.1899 0.8476 0.7659
C17B C 0.1343(4) 0.7149(5) 0.8082(4)
H17B H 0.0701 0.7412 0.8040
C18B C 0.1586(4) 0.6108(5) 0.8373(3)
H18B H 0.1095 0.5670 0.8509
C19B C 0.2535(4) 0.5718(4) 0.8461(3)
C20B C 0.3288(4) 0.6360(4) 0.8231(3)
C21B C 0.2130(4) 0.3950(4) 0.8892(4)
H19B H 0.1620 0.3892 0.8365
H20B H 0.2444 0.3265 0.9031
H21B H 0.1834 0.4177 0.9358
O5 O 0.9384(5) 0.6211(5) 0.3291(5)
N6 N 0.9803(5) 0.4555(5) 0.3825(4)
C22 C 1.0534(8) 0.3667(8) 0.4049(8)
H22 H 1.1143 0.3861 0.3887
H23 H 1.0264 0.3031 0.3740
H24 H 1.0668 0.3535 0.4664
C23 C 0.8819(8) 0.4392(9) 0.3977(6)
H25 H 0.8466 0.5062 0.3918
H26 H 0.8875 0.4118 0.4555
H27 H 0.8460 0.3888 0.3562
C24 C 1.0046(10) 0.5446(11) 0.3501(6)
H28 H 1.0690 0.5540 0.3419
O6 O 0.5000 0.5000 0.0000
H3 H 0.4496 0.4880 0.0185
H3B H 0.5504 0.5120 -0.0185
H1? H 0.5505 0.5089 0.0387
H2? H 0.4920 0.5450 -0.0389
loop_
_geom_bond_atom_site_label_1
_geom_bond_atom_site_label_2
_geom_bond_site_symmetry_1
_geom_bond_site_symmetry_2
Mn1 O1 1_555 1_555
Fe1 C1 1_555 1_555
O1 C5 1_555 1_555
O2 Mn1 1_555 1_555
O3 C6 1_555 1_555
O4 C19 1_555 1_555
O5 C24 1_555 1_555
O6 H3 1_555 1_555
N1 Mn1 1_555 1_555
N2 C2 1_555 1_555
N3 C3 1_555 1_555
N4 Mn1 1_555 1_555
N5 Mn1 1_555 1_555
N6 C22 1_555 1_555
C1 N1 1_555 1_555
C2 Fe1 1_555 1_555
C3 Fe1 1_555 1_555
C4 C5 1_555 1_555
C5 C6 1_555 1_555
C6 C7 1_555 1_555
C7 H4 1_555 1_555
C8 C7 1_555 1_555
H5 C8 1_555 1_555
C9 C4 1_555 1_555
H6 C9 1_555 1_555
C10 N4 1_555 1_555
H7 C10 1_555 1_555
C11 O3 1_555 1_555
H8 C11 1_555 1_555
H9 C11 1_555 1_555
H10 C11 1_555 1_555
C12 N4 1_555 1_555
H11 C12 1_555 1_555
H12 C12 1_555 1_555
C13 N5 1_555 1_555
H13 C13 1_555 1_555
H14 C13 1_555 1_555
C14 N5 1_555 1_555
H15 C14 1_555 1_555
C15 C14 1_555 1_555
C16 C15 1_555 1_555
H16 C16 1_555 1_555
C17 C16 1_555 1_555
H17 C17 1_555 1_555
C18 C17 1_555 1_555
H18 C18 1_555 1_555
C19 C18 1_555 1_555
C20 O2 1_555 1_555
C21 O4 1_555 1_555
H19 C21 1_555 1_555
H20 C21 1_555 1_555
H21 C21 1_555 1_555
C22 H22 1_555 1_555
H23 C22 1_555 1_555
H24 C22 1_555 1_555
C23 N6 1_555 1_555
H25 C23 1_555 1_555
H26 C23 1_555 1_555
H27 C23 1_555 1_555
C24 N6 1_555 1_555
H28 C24 1_555 1_555
Mn1B O1B 1_555 1_555
Mn1A N2 1_555 1_555
Mn1C N2B 1_555 1_555
O1B C5B 1_555 1_555
O2B Mn1B 1_555 1_555
O3B C6B 1_555 1_555
O4B C19B 1_555 1_555
H3B O6 1_555 1_555
N1B Mn1B 1_555 1_555
N2B C2B 1_555 1_555
N2A Mn1 1_555 1_555
N2C Mn1B 1_555 1_555
N3B C3B 1_555 1_555
N4B Mn1B 1_555 1_555
N5B Mn1B 1_555 1_555
C1B Fe1 1_555 1_555
C2B Fe1 1_555 1_555
C3B Fe1 1_555 1_555
C4B C5B 1_555 1_555
C5B C6B 1_555 1_555
C6B C7B 1_555 1_555
C7B H4B 1_555 1_555
C8B C7B 1_555 1_555
H5B C8B 1_555 1_555
C9B C4B 1_555 1_555
H6B C9B 1_555 1_555
C10B N4B 1_555 1_555
H7B C10B 1_555 1_555
C11B O3B 1_555 1_555
H8B C11B 1_555 1_555
H9B C11B 1_555 1_555
H10B C11B 1_555 1_555
C12B N4B 1_555 1_555
H11B C12B 1_555 1_555
H12B C12B 1_555 1_555
C13B N5B 1_555 1_555
H13B C13B 1_555 1_555
H14B C13B 1_555 1_555
C14B N5B 1_555 1_555
H15B C14B 1_555 1_555
C15B C14B 1_555 1_555
C16B C15B 1_555 1_555
H16B C16B 1_555 1_555
C17B C16B 1_555 1_555
H17B C17B 1_555 1_555
C18B C17B 1_555 1_555
H18B C18B 1_555 1_555
C19B C18B 1_555 1_555
C20B O2B 1_555 1_555
C21B O4B 1_555 1_555
H19B C21B 1_555 1_555
H20B C21B 1_555 1_555
H21B C21B 1_555 1_555
C4 C10 1_555 1_555
C8 C9 1_555 1_555
C12 C13 1_555 1_555
C15 C20 1_555 1_555
C19 C20 1_555 1_555
N1B C1B 1_555 1_555
C4B C10B 1_555 1_555
C8B C9B 1_555 1_555
C12B C13B 1_555 1_555
C15B C20B 1_555 1_555
C19B C20B 1_555 1_555

#END
