
#######################################################################
#
#                 Cambridge Crystallographic Data Centre
#                                CCDC 
#
#######################################################################
#
# If this CIF has been generated from an entry in the Cambridge 
# Structural Database, then it will include bibliographic, chemical, 
# crystal, experimental, refinement or atomic coordinate data resulting 
# from the CCDC's data processing and validation procedures.
#
#######################################################################

data_MAFVOG
_symmetry_cell_setting           monoclinic
_symmetry_space_group_name_H-M   'C 2/m'
_symmetry_Int_Tables_number      12
_space_group_name_Hall           '-C 2y'
loop_
_symmetry_equiv_pos_site_id
_symmetry_equiv_pos_as_xyz
1 x,y,z
2 -x,y,-z
3 1/2+x,1/2+y,z
4 1/2-x,1/2+y,-z
5 -x,-y,-z
6 x,-y,z
7 1/2-x,1/2-y,-z
8 1/2+x,1/2-y,z
_cell_length_a                   16.2810(14)
_cell_length_b                   7.3693(6)
_cell_length_c                   7.1643(5)
_cell_angle_alpha                90
_cell_angle_beta                 109.968(6)
_cell_angle_gamma                90
_cell_volume                     807.895
loop_
_atom_site_label
_atom_site_type_symbol
_atom_site_fract_x
_atom_site_fract_y
_atom_site_fract_z
C1 C 0.6699(2) 0.0000 -0.1001(5)
H1 H 0.6388 0.0000 -0.2358
C2 C 0.7773(2) 0.0000 0.1748(7)
H2 H 0.8331 0.0000 0.2692
C3 C 0.7015(2) 0.0000 0.2108(6)
H3 H 0.6964 0.0000 0.3363
C4 C 0.8188(3) 0.0000 -0.1307(8)
H4 H 0.8775 0.0000 -0.0381
H5 H 0.8096 0.1064 -0.2127
C5 C 0.51538(12) 0.3201(2) 0.3327(3)
N1 N 0.63388(15) 0.0000 0.0373(3)
N2 N 0.75716(17) 0.0000 -0.0216(5)
N3 N 0.52148(12) 0.2084(2) 0.2281(2)
Ni1 Ni 0.5000 0.5000 0.5000
Zn1 Zn 0.5000 0.0000 0.0000
C1A C 0.3301(2) 0.0000 0.1001(5)
H1A H 0.3612 0.0000 0.2358
C2A C 0.2227(2) 0.0000 -0.1748(7)
H2A H 0.1669 0.0000 -0.2692
C3A C 0.2985(2) 0.0000 -0.2108(6)
H3A H 0.3036 0.0000 -0.3363
C4A C 0.1812(3) 0.0000 0.1307(8)
H4A H 0.1225 0.0000 0.0381
H5E H 0.8096 -0.1064 -0.2127
H5A H 0.1904 0.1064 0.2127
H5D H 0.1904 -0.1064 0.2127
C5A C 0.48462(12) 0.3201(2) -0.3327(3)
C5D C 0.48462(12) -0.3201(2) -0.3327(3)
C5E C 0.51538(12) -0.3201(2) 0.3327(3)
C5A_2 C 0.48462(12) 0.3201(2) 0.6673(3)
C5D_2 C 0.48462(12) 0.6799(2) 0.6673(3)
C5E_2 C 0.51538(12) 0.6799(2) 0.3327(3)
N1A N 0.36612(15) 0.0000 -0.0373(3)
N2A N 0.24284(17) 0.0000 0.0216(5)
N3A N 0.47852(12) 0.2084(2) -0.2281(2)
N3D N 0.47852(12) -0.2084(2) -0.2281(2)
N3E N 0.52148(12) -0.2084(2) 0.2281(2)
Ni1_2 Ni 0.5000 -0.5000 -0.5000
Ni1_3 Ni 0.5000 -0.5000 0.5000
Ni1_4 Ni 0.5000 0.5000 -0.5000
loop_
_geom_bond_atom_site_label_1
_geom_bond_atom_site_label_2
_geom_bond_site_symmetry_1
_geom_bond_site_symmetry_2
C1 H1 1_555 1_555
C2 H2 1_555 1_555
C3 C2 1_555 1_555
H3 C3 1_555 1_555
C4 H4 1_555 1_555
H5 C4 1_555 1_555
C5 N3 1_555 1_555
N1 C1 1_555 1_555
N2 C1 1_555 1_555
N3 Zn1 1_555 1_555
Ni1 C5 1_555 1_555
Zn1 N1 1_555 1_555
C1A H1A 1_555 1_555
C2A H2A 1_555 1_555
C3A C2A 1_555 1_555
H3A C3A 1_555 1_555
C4A H4A 1_555 1_555
H5E C4 1_555 1_555
H5A C4A 1_555 1_555
H5D C4A 1_555 1_555
C5A N3A 1_555 1_555
C5D N3D 1_555 1_555
C5E N3E 1_555 1_555
C5A_2 Ni1 1_555 1_555
C5D_2 Ni1 1_555 1_555
C5E_2 Ni1 1_555 1_555
N1A Zn1 1_555 1_555
N2A C1A 1_555 1_555
N3A Zn1 1_555 1_555
N3D Zn1 1_555 1_555
N3E Zn1 1_555 1_555
Ni1_2 C5D 1_555 1_555
Ni1_3 C5E 1_555 1_555
Ni1_4 C5A 1_555 1_555
C2 N2 1_555 1_555
C3 N1 1_555 1_555
C4 N2 1_555 1_555
C1A N1A 1_555 1_555
C2A N2A 1_555 1_555
C3A N1A 1_555 1_555
C4A N2A 1_555 1_555

#END
