
#######################################################################
#
#                 Cambridge Crystallographic Data Centre
#                                CCDC 
#
#######################################################################
#
# If this CIF has been generated from an entry in the Cambridge 
# Structural Database, then it will include bibliographic, chemical, 
# crystal, experimental, refinement or atomic coordinate data resulting 
# from the CCDC's data processing and validation procedures.
#
#######################################################################

data_MAFWUM
_symmetry_cell_setting           triclinic
_symmetry_space_group_name_H-M   'P -1'
_symmetry_Int_Tables_number      2
_space_group_name_Hall           '-P 1'
loop_
_symmetry_equiv_pos_site_id
_symmetry_equiv_pos_as_xyz
1 x,y,z
2 -x,-y,-z
_cell_length_a                   8.1064(2)
_cell_length_b                   9.3212(3)
_cell_length_c                   9.8840(3)
_cell_angle_alpha                66.9280(14)
_cell_angle_beta                 89.8960(15)
_cell_angle_gamma                75.0110(14)
_cell_volume                     659.555
loop_
_atom_site_label
_atom_site_type_symbol
_atom_site_fract_x
_atom_site_fract_y
_atom_site_fract_z
Na1 Na 0.45578(9) 0.22287(9) 1.43098(8)
Na2 Na 0.60700(13) 0.33180(11) 1.69489(9)
S1 S 0.82387(5) 0.37154(5) 1.39120(4)
S2 S 0.62836(5) 0.22291(5) 1.09146(4)
O1 O 0.87938(15) 0.36252(14) 1.02616(12)
O2 O 0.94421(19) 0.27901(19) 1.52256(15)
O3 O 0.85890(18) 0.52378(16) 1.29734(14)
O4 O 0.64375(17) 0.39653(16) 1.42126(14)
O5 O 0.55469(16) 0.31610(16) 0.93866(13)
O6 O 0.74480(19) 0.06486(16) 1.11980(16)
O7 O 0.49927(18) 0.2170(2) 1.19456(15)
O8 O 0.8535(4) 0.1297(3) 1.8238(3)
O9 O 0.3846(2) 0.2107(2) 1.66668(17)
O10 O 0.2411(2) 0.47124(18) 1.31062(17)
N1 N 1.29660(19) 0.01643(19) 1.43561(17)
N2 N 1.1659(2) 0.2682(2) 1.01889(18)
C1 C 1.0375(2) 0.27390(19) 1.10078(18)
C2 C 1.0332(2) 0.20474(19) 1.24986(17)
C3 C 0.8528(2) 0.24854(19) 1.28593(16)
C4 C 0.7534(2) 0.33897(19) 1.13076(16)
C5 C 1.1774(2) 0.0997(2) 1.35277(18)
H1 H 1.152(3) 0.327(3) 0.922(3)
H2 H 0.810(3) 0.161(2) 1.342(2)
H3 H 0.673(3) 0.440(3) 1.111(2)
H4 H 0.939(5) 0.092(5) 1.804(4)
H5 H 0.847(6) 0.075(6) 1.929(6)
H6 H 0.374(5) 0.127(5) 1.734(4)
H7 H 0.299(4) 0.272(4) 1.680(4)
H8 H 0.153(5) 0.490(5) 1.322(5)
H9 H 0.217(4) 0.519(4) 1.186(4)
H10 H 1.262(3) 0.235(3) 1.060(3)
N1_2 N 0.29660(19) 0.01643(19) 1.43561(17)
N1A N 0.70340(19) -0.01643(19) 1.56439(17)
O4A O 0.35625(17) 0.60347(16) 1.57874(14)
O5_2 O 0.55469(16) 0.31610(16) 1.93866(13)
O10A O 0.7589(2) 0.52876(18) 1.68938(17)
Na2A Na 0.39300(13) 0.66820(11) 1.30511(9)
Na2_2 Na 0.60700(13) 0.33180(11) 0.69489(9)
Na1_2 Na 1.45578(9) 0.22287(9) 1.43098(8)
Na1A Na 1.54422(9) -0.22287(9) 1.56902(8)
H8A H 0.847(5) 0.510(5) 1.678(5)
H9A H 0.783(4) 0.481(4) 1.814(4)
loop_
_geom_bond_atom_site_label_1
_geom_bond_atom_site_label_2
_geom_bond_site_symmetry_1
_geom_bond_site_symmetry_2
Na1 O4 1_555 1_555
Na2 O4 1_555 1_555
S1 O2 1_555 1_555
S2 O5 1_555 1_555
O1 C1 1_555 1_555
O3 S1 1_555 1_555
O4 S1 1_555 1_555
O5 Na2_2 1_555 1_555
O6 S2 1_555 1_555
O7 Na1 1_555 1_555
O8 Na2 1_555 1_555
O9 Na1 1_555 1_555
O10 Na1 1_555 1_555
N1 C5 1_555 1_555
N2 C1 1_555 1_555
C1 C2 1_555 1_555
C2 C3 1_555 1_555
C3 S1 1_555 1_555
C4 S2 1_555 1_555
C5 C2 1_555 1_555
H1 N2 1_555 1_555
H2 C3 1_555 1_555
H3 C4 1_555 1_555
H4 O8 1_555 1_555
H5 O8 1_555 1_555
H6 O9 1_555 1_555
H7 O9 1_555 1_555
H8 O10 1_555 1_555
H9 O10 1_555 1_555
H10 N2 1_555 1_555
N1_2 Na1 1_555 1_555
N1A Na1 1_555 1_555
O4A Na2 1_555 1_555
O5_2 Na2 1_555 1_555
O10A Na2 1_555 1_555
Na2A O4 1_555 1_555
Na1_2 N1 1_555 1_555
Na1A N1 1_555 1_555
H8A O10A 1_555 1_555
H9A O10A 1_555 1_555
Na2 O9 1_555 1_555
S2 O7 1_555 1_555
O1 C4 1_555 1_555
O10 Na2A 1_555 1_555
C3 C4 1_555 1_555
O4A Na2A 1_555 1_555

#END
