
#######################################################################
#
#                 Cambridge Crystallographic Data Centre
#                                CCDC 
#
#######################################################################
#
# If this CIF has been generated from an entry in the Cambridge 
# Structural Database, then it will include bibliographic, chemical, 
# crystal, experimental, refinement or atomic coordinate data resulting 
# from the CCDC's data processing and validation procedures.
#
#######################################################################

data_MAFWOH
_symmetry_cell_setting           monoclinic
_symmetry_space_group_name_H-M   'P 21/n'
_symmetry_Int_Tables_number      14
_space_group_name_Hall           '-P 2yn'
loop_
_symmetry_equiv_pos_site_id
_symmetry_equiv_pos_as_xyz
1 x,y,z
2 1/2-x,1/2+y,1/2-z
3 -x,-y,-z
4 1/2+x,1/2-y,1/2+z
_cell_length_a                   9.320(2)
_cell_length_b                   14.699(3)
_cell_length_c                   15.954(3)
_cell_angle_alpha                90
_cell_angle_beta                 105.180(3)
_cell_angle_gamma                90
_cell_volume                     2109.35
loop_
_atom_site_label
_atom_site_type_symbol
_atom_site_fract_x
_atom_site_fract_y
_atom_site_fract_z
Ni1 Ni 0.84830(3) 0.422188(15) 0.394059(15)
O1 O 0.56178(14) 0.10606(9) -0.01621(8)
O2 O 0.76620(16) 0.45058(10) 0.49989(9)
H1 H 0.6748(12) 0.4597(15) 0.4765(14)
H2 H 0.808(2) 0.4995(11) 0.5226(17)
O3 O 0.58503(15) 0.05417(9) 0.11866(8)
O4 O 0.49614(16) 0.46054(12) 0.38998(10)
O5 O 0.65475(14) 0.45822(9) 0.30626(8)
C1 C 0.5299(2) 0.20986(12) 0.09180(12)
N1 N 0.93089(17) 0.37426(11) 0.29475(10)
C2 C 0.4348(2) 0.30708(13) 0.18657(12)
H3 H 0.3958 0.3135 0.2343
C3 C 0.4721(2) 0.22150(13) 0.16334(12)
H4 H 0.4585 0.1712 0.1957
N2 N 0.77670(17) 0.28889(10) 0.38743(10)
C4 C 0.4547(2) 0.38375(12) 0.13975(12)
C5 C 0.8886(2) 0.28873(13) 0.26891(12)
C6 C 0.2387(2) 0.60319(14) 0.10175(15)
H5 H 0.1850 0.6369 0.0545
C7 C 0.3957(2) 0.47372(12) 0.15802(12)
C8 C 0.8119(2) 0.23859(13) 0.32509(12)
C9 C 0.56092(19) 0.11633(12) 0.06290(12)
C10 C 0.3345(2) 0.58440(14) 0.25494(15)
H6 H 0.3396 0.6037 0.3111
C11 C 0.5283(2) 0.47021(12) 0.31941(12)
C12 C 0.3080(2) 0.52323(13) 0.08846(13)
H7 H 0.2961 0.5020 0.0321
C13 C 0.5530(2) 0.28633(13) 0.04589(13)
H8 H 0.5927 0.2798 -0.0015
C14 C 0.4127(2) 0.50727(12) 0.24218(12)
C15 C 0.9149(3) 0.25223(16) 0.19425(14)
H9 H 0.8822 0.1939 0.1760
C16 C 0.5175(2) 0.37218(13) 0.07015(13)
H10 H 0.5357 0.4228 0.0396
C17 C 1.0064(2) 0.42263(15) 0.24988(14)
H11 H 1.0385 0.4808 0.2690
C18 C 0.6617(2) 0.15916(15) 0.43107(16)
H14 H 0.6077 0.1338 0.4667
C19 C 0.7786(3) 0.14639(14) 0.31550(14)
H15 H 0.8063 0.1121 0.2733
C20 C 0.9904(3) 0.30381(18) 0.14737(15)
H16 H 1.0085 0.2808 0.0968
C21 C 0.7034(3) 0.10706(15) 0.36996(16)
H17 H 0.6809 0.0453 0.3653
C22 C 0.7015(2) 0.24966(14) 0.43856(14)
H18 H 0.6751 0.2847 0.4807
C23 C 1.0386(3) 0.38926(18) 0.17589(15)
H19 H 1.0921 0.4242 0.1459
C24 C 0.2492(3) 0.63271(15) 0.18500(16)
H20 H 0.1992 0.6850 0.1943
Ni1A Ni 0.65170(3) -0.077812(15) 0.105941(15)
Ni1C Ni 0.34830(3) 0.077812(15) -0.105941(15)
O1C O 1.06178(14) 0.39394(9) 0.48379(8)
O3A O 0.91497(15) 0.55417(9) 0.38134(8)
O6 O 0.3508(3) 0.32082(15) 0.45746(19)
H12 H 0.3836 0.3632 0.4305
H13 H 0.2630 0.3352 0.4599
loop_
_geom_bond_atom_site_label_1
_geom_bond_atom_site_label_2
_geom_bond_site_symmetry_1
_geom_bond_site_symmetry_2
Ni1 O2 1_555 1_555
O1 C9 1_555 1_555
O2 H1 1_555 1_555
H2 O2 1_555 1_555
O3 C9 1_555 1_555
O4 C11 1_555 1_555
O5 Ni1 1_555 1_555
C1 C3 1_555 1_555
N1 Ni1 1_555 1_555
C2 H3 1_555 1_555
C3 C2 1_555 1_555
H4 C3 1_555 1_555
N2 Ni1 1_555 1_555
C4 C2 1_555 1_555
C5 N1 1_555 1_555
C6 H5 1_555 1_555
C7 C4 1_555 1_555
C8 N2 1_555 1_555
C9 C1 1_555 1_555
C10 H6 1_555 1_555
C11 O5 1_555 1_555
C12 C6 1_555 1_555
H7 C12 1_555 1_555
C13 C1 1_555 1_555
H8 C13 1_555 1_555
C14 C7 1_555 1_555
C15 C5 1_555 1_555
H9 C15 1_555 1_555
C16 C4 1_555 1_555
H10 C16 1_555 1_555
C17 N1 1_555 1_555
H11 C17 1_555 1_555
O6 H12 1_555 1_555
H13 O6 1_555 1_555
C18 H14 1_555 1_555
C19 C8 1_555 1_555
H15 C19 1_555 1_555
C20 C15 1_555 1_555
H16 C20 1_555 1_555
C21 C18 1_555 1_555
H17 C21 1_555 1_555
C22 N2 1_555 1_555
H18 C22 1_555 1_555
C23 C17 1_555 1_555
H19 C23 1_555 1_555
C24 C6 1_555 1_555
H20 C24 1_555 1_555
Ni1A O3 1_555 1_555
Ni1C O1 1_555 1_555
O1C Ni1 1_555 1_555
O3A Ni1 1_555 1_555
C5 C8 1_555 1_555
C7 C12 1_555 1_555
C10 C14 1_555 1_555
C10 C24 1_555 1_555
C11 C14 1_555 1_555
C13 C16 1_555 1_555
C18 C22 1_555 1_555
C19 C21 1_555 1_555
C20 C23 1_555 1_555

#END
