
#######################################################################
#
#                 Cambridge Crystallographic Data Centre
#                                CCDC 
#
#######################################################################
#
# If this CIF has been generated from an entry in the Cambridge 
# Structural Database, then it will include bibliographic, chemical, 
# crystal, experimental, refinement or atomic coordinate data resulting 
# from the CCDC's data processing and validation procedures.
#
#######################################################################

data_MAFWEX
_symmetry_cell_setting           orthorhombic
_symmetry_space_group_name_H-M   'P b c a'
_symmetry_Int_Tables_number      61
_space_group_name_Hall           '-P 2ac 2ab'
loop_
_symmetry_equiv_pos_site_id
_symmetry_equiv_pos_as_xyz
1 x,y,z
2 1/2-x,-y,1/2+z
3 1/2+x,1/2-y,-z
4 -x,1/2+y,1/2-z
5 -x,-y,-z
6 1/2+x,y,1/2-z
7 1/2-x,1/2+y,z
8 x,1/2-y,1/2+z
_cell_length_a                   11.2934(4)
_cell_length_b                   20.3803(9)
_cell_length_c                   12.8304(6)
_cell_angle_alpha                90
_cell_angle_beta                 90
_cell_angle_gamma                90
_cell_volume                     2953.08
loop_
_atom_site_label
_atom_site_type_symbol
_atom_site_fract_x
_atom_site_fract_y
_atom_site_fract_z
C1 C 0.6224(2) 0.39293(14) 0.32752(18)
H1 H 0.6861 0.3837 0.2840
C2 C 0.5114(2) 0.40071(13) 0.28294(17)
C3 C 0.4180(2) 0.41471(14) 0.34851(18)
H2 H 0.3421 0.4202 0.3218
C4 C 0.4382(2) 0.42045(15) 0.45465(19)
H3 H 0.3763 0.4301 0.4999
C5 C 0.5507(2) 0.41169(13) 0.49195(17)
C6 C 0.5802(2) 0.41779(14) 0.60754(18)
C7 C 0.4951(2) 0.39423(14) 0.16637(18)
C8 C 0.9737(3) 0.32351(18) 0.6466(3)
H4 H 0.9269 0.3194 0.7096
H5 H 1.0560 0.3158 0.6646
C9 C 0.9343(3) 0.27329(19) 0.5690(3)
H6 H 0.9865 0.2744 0.5090
H7 H 0.9396 0.2300 0.6001
C10 C 0.7260(4) 0.2633(2) 0.6141(4)
H8 H 0.7360 0.2172 0.6268
H9 H 0.6472 0.2713 0.5891
H10 H 0.7384 0.2870 0.6778
C11 C 0.7902(4) 0.2479(2) 0.4381(3)
H11 H 0.8476 0.2600 0.3863
H12 H 0.7122 0.2577 0.4129
H13 H 0.7963 0.2017 0.4521
N1 N 0.64251(19) 0.39799(12) 0.42963(14)
N2 N 0.9607(2) 0.38996(12) 0.60413(16)
H14 H 1.0257 0.4005 0.5672
H15 H 0.9538 0.4189 0.6568
N3 N 0.8128(2) 0.28519(14) 0.5351(2)
O1 O 0.58410(17) 0.39865(11) 0.11004(14)
O2 O 0.39073(17) 0.38379(12) 0.13711(13)
O3 O 0.68809(16) 0.41316(11) 0.63080(13)
O4 O 0.49842(17) 0.42695(12) 0.66960(13)
Zn1 Zn 0.81094(3) 0.395982(17) 0.50802(2)
O5 O 0.8359(2) 0.49826(12) 0.48768(17)
H16 H 0.859(4) 0.5257(16) 0.532(2)
H17 H 0.806(3) 0.5180(17) 0.438(2)
O2E O 0.89073(17) 0.38379(12) 0.36289(13)
Zn1E Zn 0.31094(3) 0.395982(17) -0.00802(2)
O6 O 0.7474(2) 0.57000(19) 0.33257(16)
H18 H 0.6735(17) 0.566(3) 0.331(3)
H19 H 0.773(4) 0.562(3) 0.273(2)
loop_
_geom_bond_atom_site_label_1
_geom_bond_atom_site_label_2
_geom_bond_site_symmetry_1
_geom_bond_site_symmetry_2
C1 H1 1_555 1_555
C2 C1 1_555 1_555
C3 C2 1_555 1_555
H2 C3 1_555 1_555
C4 C3 1_555 1_555
H3 C4 1_555 1_555
C5 C4 1_555 1_555
C6 C5 1_555 1_555
C7 C2 1_555 1_555
C8 H4 1_555 1_555
H5 C8 1_555 1_555
C9 C8 1_555 1_555
H6 C9 1_555 1_555
H7 C9 1_555 1_555
C10 H8 1_555 1_555
H9 C10 1_555 1_555
H10 C10 1_555 1_555
C11 H11 1_555 1_555
H12 C11 1_555 1_555
H13 C11 1_555 1_555
N1 C1 1_555 1_555
N2 C8 1_555 1_555
H14 N2 1_555 1_555
H15 N2 1_555 1_555
N3 C9 1_555 1_555
O1 C7 1_555 1_555
O2 C7 1_555 1_555
O3 C6 1_555 1_555
O4 C6 1_555 1_555
Zn1 N1 1_555 1_555
O5 Zn1 1_555 1_555
H16 O5 1_555 1_555
H17 O5 1_555 1_555
O6 H18 1_555 1_555
H19 O6 1_555 1_555
O2E Zn1 1_555 1_555
Zn1E O2 1_555 1_555
C5 N1 1_555 1_555
C10 N3 1_555 1_555
C11 N3 1_555 1_555
N2 Zn1 1_555 1_555
N3 Zn1 1_555 1_555
O3 Zn1 1_555 1_555

#END
