
#######################################################################
#
#                 Cambridge Crystallographic Data Centre
#                                CCDC 
#
#######################################################################
#
# If this CIF has been generated from an entry in the Cambridge 
# Structural Database, then it will include bibliographic, chemical, 
# crystal, experimental, refinement or atomic coordinate data resulting 
# from the CCDC's data processing and validation procedures.
#
#######################################################################

data_MAFXAU
_symmetry_cell_setting           triclinic
_symmetry_space_group_name_H-M   'P -1'
_symmetry_Int_Tables_number      2
_space_group_name_Hall           '-P 1'
loop_
_symmetry_equiv_pos_site_id
_symmetry_equiv_pos_as_xyz
1 x,y,z
2 -x,-y,-z
_cell_length_a                   9.177(5)
_cell_length_b                   9.283(5)
_cell_length_c                   10.541(6)
_cell_angle_alpha                80.854(7)
_cell_angle_beta                 88.079(8)
_cell_angle_gamma                63.094(8)
_cell_volume                     789.848
loop_
_atom_site_label
_atom_site_type_symbol
_atom_site_fract_x
_atom_site_fract_y
_atom_site_fract_z
Zn1 Zn -0.08533(3) 0.09927(3) 0.83788(2)
O1 O 0.0275(3) 0.2694(3) 0.64444(19)
O2 O -0.0003(2) 0.2536(2) 0.85388(16)
O3 O 0.11576(18) 0.88740(18) 0.86070(16)
O4 O 0.25939(19) 0.8596(2) 1.03834(15)
N1 N -0.1810(2) 0.0585(2) 0.68809(16)
N2 N -0.1845(3) -0.0571(3) 0.5231(2)
H1 H -0.1520 -0.1231 0.4679
C1 C 0.5144(3) 0.8332(3) 0.8631(2)
H2 H 0.4908 0.9144 0.9132
C2 C 0.6581(3) 0.7778(3) 0.7972(2)
H3 H 0.7295 0.8230 0.8019
C3 C 0.6949(3) 0.6546(3) 0.7244(2)
H4 H 0.7911 0.6170 0.6800
C4 C 0.5886(3) 0.5875(3) 0.7175(2)
H5 H 0.6155 0.5038 0.6694
C5 C 0.4409(2) 0.6428(2) 0.78155(18)
C6 C 0.4046(2) 0.7686(2) 0.85508(18)
C7 C 0.3330(2) 0.5628(2) 0.77363(19)
C8 C 0.2913(3) 0.5394(3) 0.6545(2)
H6 H 0.3261 0.5799 0.5796
C9 C 0.1993(3) 0.4571(3) 0.6466(2)
H7 H 0.1727 0.4429 0.5667
C10 C 0.1462(2) 0.3951(2) 0.7583(2)
C11 C 0.1834(3) 0.4213(3) 0.8771(2)
H8 H 0.1457 0.3834 0.9517
C12 C 0.2764(3) 0.5034(3) 0.8847(2)
H9 H 0.3013 0.5192 0.9646
C13 C 0.0519(3) 0.2996(3) 0.7495(2)
C14 C 0.2475(2) 0.8429(2) 0.9231(2)
C15 C -0.0954(3) -0.0598(3) 0.6215(2)
H10 H 0.0134 -0.1355 0.6408
C16 C -0.3355(4) 0.0685(4) 0.5261(3)
H11 H -0.4235 0.0999 0.4688
C17 C -0.3344(3) 0.1403(3) 0.6286(3)
H12 H -0.4225 0.2297 0.6542
Zn1_2 Zn -0.08533(3) 1.09927(3) 0.83788(2)
Zn1A Zn 0.08533(3) 0.90073(3) 1.16212(2)
O3_2 O 0.11576(18) -0.11260(18) 0.86070(16)
O4A O -0.25939(19) 0.1404(2) 0.96166(15)
loop_
_geom_bond_atom_site_label_1
_geom_bond_atom_site_label_2
_geom_bond_site_symmetry_1
_geom_bond_site_symmetry_2
Zn1 O2 1_555 1_555
O1 C13 1_555 1_555
O2 C13 1_555 1_555
O3 C14 1_555 1_555
O4 C14 1_555 1_555
N1 Zn1 1_555 1_555
N2 H1 1_555 1_555
C1 H2 1_555 1_555
C2 C1 1_555 1_555
H3 C2 1_555 1_555
C3 C2 1_555 1_555
H4 C3 1_555 1_555
C4 C3 1_555 1_555
H5 C4 1_555 1_555
C5 C4 1_555 1_555
C6 C1 1_555 1_555
C7 C5 1_555 1_555
C8 C7 1_555 1_555
H6 C8 1_555 1_555
C9 C8 1_555 1_555
H7 C9 1_555 1_555
C10 C9 1_555 1_555
C11 C10 1_555 1_555
H8 C11 1_555 1_555
C12 C7 1_555 1_555
H9 C12 1_555 1_555
C13 C10 1_555 1_555
C14 C6 1_555 1_555
C15 N1 1_555 1_555
H10 C15 1_555 1_555
C16 N2 1_555 1_555
H11 C16 1_555 1_555
C17 N1 1_555 1_555
H12 C17 1_555 1_555
Zn1_2 O3 1_555 1_555
Zn1A O4 1_555 1_555
O3_2 Zn1 1_555 1_555
O4A Zn1 1_555 1_555
N2 C15 1_555 1_555
C5 C6 1_555 1_555
C11 C12 1_555 1_555
C16 C17 1_555 1_555

#END
