
#######################################################################
#
#                 Cambridge Crystallographic Data Centre
#                                CCDC 
#
#######################################################################
#
# If this CIF has been generated from an entry in the Cambridge 
# Structural Database, then it will include bibliographic, chemical, 
# crystal, experimental, refinement or atomic coordinate data resulting 
# from the CCDC's data processing and validation procedures.
#
#######################################################################

data_MAFYEZ
_symmetry_cell_setting           monoclinic
_symmetry_space_group_name_H-M   'P 21'
_symmetry_Int_Tables_number      4
_space_group_name_Hall           'P 2yb'
loop_
_symmetry_equiv_pos_site_id
_symmetry_equiv_pos_as_xyz
1 x,y,z
2 -x,1/2+y,-z
_cell_length_a                   10.3809(7)
_cell_length_b                   14.0798(10)
_cell_length_c                   12.4462(8)
_cell_angle_alpha                90
_cell_angle_beta                 93.695(4)
_cell_angle_gamma                90
_cell_volume                     1815.37
loop_
_atom_site_label
_atom_site_type_symbol
_atom_site_fract_x
_atom_site_fract_y
_atom_site_fract_z
Cu1 Cu -0.3858(5) 0.3930(3) 0.5214(3)
Cu2 Cu -0.3400(6) 0.6855(3) 0.7392(4)
Cu3 Cu -0.1185(5) 0.6995(4) 0.3115(4)
Cu4 Cu -0.6370(5) 0.3922(3) 0.9411(3)
Cu5 Cu -0.3926(5) 0.2248(3) 0.1782(3)
Cu6 Cu -0.1352(5) 0.1889(3) -0.2255(4)
Cu7 Cu -0.0943(5) -0.0992(3) -0.0057(3)
Cu8 Cu -0.1323(6) 0.3668(4) -0.5661(4)
N1 N -0.260(3) 0.7835(19) 0.6153(19)
N2 N -0.325(2) 0.3071(15) 0.0447(15)
C1 C 0.021(3) -0.153(3) -0.218(2)
N3 N -0.560(2) 0.3129(19) 0.8185(19)
N4 N 0.052(4) -0.212(3) -0.302(3)
C2 C -0.581(2) 0.2099(16) 0.8091(18)
C3 C 0.081(3) -0.3050(19) -0.286(2)
C4 C 0.034(3) -0.352(2) -0.180(3)
N5 N -0.344(3) 0.570(3) 0.664(3)
N6 N -0.091(4) 0.082(3) -0.127(3)
C5 C -0.285(3) 0.249(2) -0.038(2)
C6 C -0.140(3) 0.3002(19) -0.438(2)
C7 C -0.228(3) 0.748(2) 0.532(2)
C8 C -0.018(2) -0.2883(17) -0.103(2)
C9 C -0.079(5) 0.020(3) -0.072(4)
C10 C -0.353(3) 0.809(2) 0.944(2)
N7 N -0.128(4) 0.572(2) 0.358(3)
C11 C -0.127(4) 0.487(3) 0.382(3)
C12 C -0.550(4) 0.151(3) 0.696(3)
N8 N -0.027(3) -0.1944(19) -0.124(2)
N9 N -0.350(3) 0.7550(18) 0.866(2)
C13 C -0.485(4) 0.214(3) 0.630(3)
N10 N -0.232(3) 0.2895(19) -0.1273(19)
N11 N -0.135(2) 0.2533(16) -0.3595(17)
N12 N -0.623(3) 0.598(2) 0.867(2)
N13 N -0.471(2) 0.2996(16) 0.6442(17)
C14 C -0.517(3) 0.352(2) 0.735(2)
C15 C -0.210(3) 0.923(2) 0.514(2)
C16 C -0.219(4) 0.388(3) -0.134(3)
C17 C -0.259(3) 0.885(2) 0.601(3)
C18 C -0.259(3) 0.446(3) -0.052(3)
C19 C -0.633(4) 0.524(2) 0.898(2)
C20 C -0.312(3) 0.405(2) 0.038(2)
C21 C -0.362(3) 0.506(2) 0.607(2)
N14 N -0.175(2) 0.7838(18) 0.4458(19)
C22 C -0.431(3) 0.156(2) 0.554(3)
C23 C -0.296(3) 0.938(2) 0.704(3)
C24 C -0.399(3) 0.3015(17) 0.305(2)
C25 C -0.098(4) 0.835(3) 0.124(4)
C26 C -0.197(5) 0.864(4) 0.427(4)
N15 N -0.399(4) 0.336(3) 0.382(3)
N16 N -0.107(3) 0.787(2) 0.191(3)
C27 C -0.370(3) 0.467(2) 0.119(2)
C28 C 0.084(11) -0.386(8) -0.351(8)
H1 H 0.033030 -0.085570 -0.223760
H2 H -0.612310 0.174990 0.868130
H3 H 0.041780 -0.419330 -0.169490
H4 H -0.294510 0.181400 -0.033020
H5 H -0.240492 0.681801 0.518744
H6 H -0.045790 -0.312720 -0.036180
H7 H -0.513410 0.419940 0.730010
H8 H -0.185600 0.989225 0.514586
H9 H -0.182370 0.415590 -0.195820
H10 H -0.249490 0.513480 -0.056550
H11 H -0.294380 1.005696 0.691611
H12 H -0.236061 0.922580 0.763073
H13 H -0.381600 0.919801 0.720871
H14 H -0.205187 0.889666 0.355647
H15 H -0.352860 0.532020 0.103610
H16 H -0.333200 0.450900 0.189390
H17 H -0.461560 0.456270 0.116050
H18 H 0.107980 -0.446200 -0.319640
H19 H 0.061300 -0.381230 -0.426730
H20 H -0.385180 0.194430 0.505830
H21 H -0.498500 0.121720 0.513980
H22 H -0.372790 0.111510 0.589910
H23 H -0.575800 0.086030 0.686540
Cu4A Cu -0.3630(5) 0.8922(3) 1.0589(3)
Cu5A Cu -0.6074(5) 0.7248(3) 0.8218(3)
Cu7_2 Cu -0.0943(5) 0.9008(3) -0.0057(3)
Cu8A Cu 0.1323(6) -0.1332(4) -0.4339(4)
Cu8_2 Cu -0.1323(6) 0.3668(4) 0.4339(4)
N4A N -0.052(4) 0.288(3) -0.698(3)
C10A C -0.647(3) 0.309(2) 1.056(2)
C11_2 C -0.127(4) 0.487(3) -0.618(3)
N12A N -0.377(3) 0.098(2) 0.133(2)
C25_2 C -0.098(4) -0.165(3) 0.124(4)
loop_
_geom_bond_atom_site_label_1
_geom_bond_atom_site_label_2
_geom_bond_site_symmetry_1
_geom_bond_site_symmetry_2
Cu1 N13 1_555 1_555
Cu2 N1 1_555 1_555
Cu3 N7 1_555 1_555
Cu4 N3 1_555 1_555
Cu5 N2 1_555 1_555
Cu6 N6 1_555 1_555
Cu7 C9 1_555 1_555
Cu8 C6 1_555 1_555
N1 C7 1_555 1_555
N2 C5 1_555 1_555
C1 N4 1_555 1_555
N3 C2 1_555 1_555
N4 C3 1_555 1_555
C2 C12 1_555 1_555
C3 C4 1_555 1_555
C4 C8 1_555 1_555
N5 Cu2 1_555 1_555
N6 C9 1_555 1_555
C5 N10 1_555 1_555
C6 N11 1_555 1_555
C7 N14 1_555 1_555
C8 N8 1_555 1_555
C10 N9 1_555 1_555
N7 C11 1_555 1_555
C11 Cu8_2 1_555 1_555
C12 C13 1_555 1_555
N8 Cu7 1_555 1_555
N9 Cu2 1_555 1_555
C13 N13 1_555 1_555
N10 Cu6 1_555 1_555
N11 Cu6 1_555 1_555
N12 C19 1_555 1_555
N13 C14 1_555 1_555
C14 N3 1_555 1_555
C15 C17 1_555 1_555
C16 N10 1_555 1_555
C17 N1 1_555 1_555
C18 C16 1_555 1_555
C19 Cu4 1_555 1_555
C20 N2 1_555 1_555
C21 Cu1 1_555 1_555
N14 Cu3 1_555 1_555
C22 C13 1_555 1_555
C23 C17 1_555 1_555
C24 Cu5 1_555 1_555
C25 N16 1_555 1_555
C26 C15 1_555 1_555
N15 Cu1 1_555 1_555
N16 Cu3 1_555 1_555
C27 C20 1_555 1_555
C28 C3 1_555 1_555
H1 C1 1_555 1_555
H2 C2 1_555 1_555
H3 C4 1_555 1_555
H4 C5 1_555 1_555
H5 C7 1_555 1_555
H6 C8 1_555 1_555
H7 C14 1_555 1_555
H8 C15 1_555 1_555
H9 C16 1_555 1_555
H10 C18 1_555 1_555
H11 C23 1_555 1_555
H12 C23 1_555 1_555
H13 C23 1_555 1_555
H14 C26 1_555 1_555
H15 C27 1_555 1_555
H16 C27 1_555 1_555
H17 C27 1_555 1_555
H18 C28 1_555 1_555
H19 C28 1_555 1_555
H20 C22 1_555 1_555
H21 C22 1_555 1_555
H22 C22 1_555 1_555
H23 C12 1_555 1_555
Cu4A C10 1_555 1_555
Cu5A N12 1_555 1_555
Cu7_2 C25 1_555 1_555
Cu8A N4 1_555 1_555
N4A Cu8 1_555 1_555
C10A Cu4 1_555 1_555
C11_2 Cu8 1_555 1_555
N12A Cu5 1_555 1_555
C25_2 Cu7 1_555 1_555
C1 N8 1_555 1_555
N5 C21 1_555 1_555
C18 C20 1_555 1_555
N14 C26 1_555 1_555
C24 N15 1_555 1_555

#END
