
#######################################################################
#
#                 Cambridge Crystallographic Data Centre
#                                CCDC 
#
#######################################################################
#
# If this CIF has been generated from an entry in the Cambridge 
# Structural Database, then it will include bibliographic, chemical, 
# crystal, experimental, refinement or atomic coordinate data resulting 
# from the CCDC's data processing and validation procedures.
#
#######################################################################

data_MAFYAV
_symmetry_cell_setting           triclinic
_symmetry_space_group_name_H-M   'P -1'
_symmetry_Int_Tables_number      2
_space_group_name_Hall           '-P 1'
loop_
_symmetry_equiv_pos_site_id
_symmetry_equiv_pos_as_xyz
1 x,y,z
2 -x,-y,-z
_cell_length_a                   4.449(3)
_cell_length_b                   9.583(6)
_cell_length_c                   12.124(8)
_cell_angle_alpha                97.645(10)
_cell_angle_beta                 98.778(11)
_cell_angle_gamma                98.436(11)
_cell_volume                     498.895
loop_
_atom_site_label
_atom_site_type_symbol
_atom_site_fract_x
_atom_site_fract_y
_atom_site_fract_z
Ba1 Ba 0.03408(6) 1.26374(3) 0.06276(2)
C1 C 0.4046(11) 1.0162(5) 0.1650(4)
C2 C 0.5521(10) 0.9169(5) 0.2360(4)
C3 C 0.6264(10) 0.9432(5) 0.3501(4)
H1 H 0.6062 1.0314 0.3881
C4 C 0.7323(11) 0.8427(5) 0.4128(4)
H2 H 0.7809 0.8616 0.4913
C5 C 0.7614(10) 0.7153(5) 0.3534(4)
H3 H 0.8280 0.6452 0.3926
C6 C 0.7464(11) 0.5518(5) 0.1686(4)
C7 C 0.6955(11) 0.6880(5) 0.2384(4)
N1 N 0.5885(9) 0.7881(4) 0.1809(3)
O1 O 0.1402(7) 0.9733(3) 0.1114(3)
O2 O 0.5636(7) 1.1381(4) 0.1722(3)
O3 O 0.5908(8) 0.4385(4) 0.1811(3)
O4 O 0.9514(8) 0.5650(4) 0.1098(3)
O5 O 0.5270(7) 0.7627(4) 0.0691(3)
Ba1A Ba -0.03408(6) 0.73626(3) -0.06276(2)
Ba1_2 Ba 1.03408(6) 1.26374(3) 0.06276(2)
Ba1_3 Ba 0.03408(6) 0.26374(3) 0.06276(2)
Ba1_4 Ba 1.03408(6) 0.26374(3) 0.06276(2)
Ba1A_2 Ba 0.96592(6) 0.73626(3) -0.06276(2)
O1A O -0.1402(7) 1.0267(3) -0.1114(3)
O2_2 O -0.4364(7) 1.1381(4) 0.1722(3)
O3_2 O 0.5908(8) 1.4385(4) 0.1811(3)
O4_2 O -0.0486(8) 1.5650(4) 0.1098(3)
O4A O 0.0486(8) 1.4350(4) -0.1098(3)
O5A O -0.5270(7) 1.2373(4) -0.0691(3)
O5A_2 O 0.4730(7) 1.2373(4) -0.0691(3)
H4 H 0.7061 0.4023 0.3700
H5 H 0.6617 0.2543 0.3457
O6 O 0.7450(7) 0.3263(4) 0.3951(3)
loop_
_geom_bond_atom_site_label_1
_geom_bond_atom_site_label_2
_geom_bond_site_symmetry_1
_geom_bond_site_symmetry_2
Ba1 O1 1_555 1_555
C1 C2 1_555 1_555
C2 C3 1_555 1_555
C3 H1 1_555 1_555
C4 C3 1_555 1_555
H2 C4 1_555 1_555
C5 C4 1_555 1_555
H3 C5 1_555 1_555
C6 C7 1_555 1_555
C7 C5 1_555 1_555
N1 C2 1_555 1_555
O1 C1 1_555 1_555
O2 Ba1 1_555 1_555
O3 C6 1_555 1_555
O4 C6 1_555 1_555
O5 N1 1_555 1_555
H4 O6 1_555 1_555
H5 O6 1_555 1_555
Ba1A O1 1_555 1_555
Ba1_2 O2 1_555 1_555
Ba1_3 O3 1_555 1_555
Ba1_4 O4 1_555 1_555
Ba1A_2 O4 1_555 1_555
O1A Ba1 1_555 1_555
O2_2 Ba1 1_555 1_555
O3_2 Ba1 1_555 1_555
O4_2 Ba1 1_555 1_555
O4A Ba1 1_555 1_555
O5A Ba1 1_555 1_555
O5A_2 Ba1 1_555 1_555
C1 O2 1_555 1_555
C7 N1 1_555 1_555
O5 Ba1A 1_555 1_555
O5 Ba1A_2 1_555 1_555
Ba1A O1A 1_555 1_555
Ba1_2 O5A_2 1_555 1_555

#END
