
#######################################################################
#
#                 Cambridge Crystallographic Data Centre
#                                CCDC 
#
#######################################################################
#
# If this CIF has been generated from an entry in the Cambridge 
# Structural Database, then it will include bibliographic, chemical, 
# crystal, experimental, refinement or atomic coordinate data resulting 
# from the CCDC's data processing and validation procedures.
#
#######################################################################

data_MAFZOK
_symmetry_cell_setting           triclinic
_symmetry_space_group_name_H-M   'P -1'
_symmetry_Int_Tables_number      2
_space_group_name_Hall           '-P 1'
loop_
_symmetry_equiv_pos_site_id
_symmetry_equiv_pos_as_xyz
1 x,y,z
2 -x,-y,-z
_cell_length_a                   7.419(3)
_cell_length_b                   9.969(3)
_cell_length_c                   11.148(4)
_cell_angle_alpha                65.152(4)
_cell_angle_beta                 76.109(4)
_cell_angle_gamma                69.965(4)
_cell_volume                     698.42
loop_
_atom_site_label
_atom_site_type_symbol
_atom_site_fract_x
_atom_site_fract_y
_atom_site_fract_z
Zn1 Zn 0.44334(8) 0.64693(6) 0.70507(5)
Zn2 Zn 0.07410(8) 0.71801(6) 0.95208(5)
Zn3 Zn 0.5000 0.5000 1.0000
P1 P 0.85240(18) 0.61140(14) 0.80879(12)
O1 O 0.2929(4) 0.5609(3) 0.8778(3)
O2 O 0.6398(4) 0.6169(4) 0.8179(3)
O3 O 0.3363(5) 0.7152(4) 1.0235(4)
C1 C 0.8497(7) 0.8366(5) 0.5559(5)
H1 H 0.7453 0.8962 0.5933
C2 C 0.9401(7) 0.6860(5) 0.6346(4)
C3 C 1.0956(7) 0.5972(6) 0.5797(5)
H2 H 1.1535 0.4964 0.6318
O4 O -0.1064(7) 0.8828(5) 1.0339(4)
C4 C 0.9166(7) 0.8973(5) 0.4211(5)
C5 C 1.1656(7) 0.6586(5) 0.4462(5)
C6 C 1.3335(7) 0.5660(6) 0.3824(5)
C7 C 1.0758(7) 0.8080(5) 0.3687(5)
H3 H 1.1236 0.8489 0.2798
O5 O 1.3889(5) 0.4206(4) 0.4418(3)
O6 O 1.4152(5) 0.6318(4) 0.2717(3)
C8 C 0.8173(7) 1.0562(5) 0.3328(5)
O7 O 0.6925(5) 1.1413(4) 0.3904(3)
O8 O 0.8654(5) 1.0943(4) 0.2106(3)
O9 O 0.8592(5) 0.7196(4) 0.8706(3)
O10 O 0.9772(5) 0.4491(4) 0.8676(3)
H4 H 0.235(7) 0.493(5) 0.887(6)
H5 H 0.377(9) 0.801(7) 0.980(6)
H6 H 0.334(8) 0.712(7) 1.094(6)
H7 H -0.159(12) 0.838(11) 1.113(4)
H8 H -0.023(8) 0.917(7) 1.044(6)
Zn1A Zn 0.55666(8) 0.35307(6) 1.29493(5)
Zn1A_2 Zn 1.55666(8) 0.35307(6) 0.29493(5)
Zn1A_3 Zn 0.55666(8) 1.35307(6) 0.29493(5)
Zn1_2 Zn -0.55666(8) 0.64693(6) 1.70507(5)
Zn1_3 Zn 0.44334(8) -0.35307(6) 1.70507(5)
Zn2A Zn 0.92590(8) 0.28199(6) 1.04792(5)
Zn2A_2 Zn 0.92590(8) 1.28199(6) 0.04792(5)
Zn2_2 Zn 1.07410(8) 0.71801(6) 0.95208(5)
Zn2_3 Zn 0.07410(8) -0.28199(6) 1.95208(5)
Zn2A_3 Zn -0.07410(8) 0.28199(6) 1.04792(5)
P1A P 0.14760(18) 0.38860(14) 1.19121(12)
O1A O 0.7071(4) 0.4391(3) 1.1222(3)
O2A O 0.3602(4) 0.3831(4) 1.1821(3)
O3A O 0.6637(5) 0.2848(4) 0.9765(4)
C1A C 0.1503(7) 0.1634(5) 1.4441(5)
H1A H 0.2547 0.1038 1.4067
C2A C 0.0599(7) 0.3140(5) 1.3654(4)
C3A C -0.0956(7) 0.4028(6) 1.4203(5)
H2A H -0.1535 0.5036 1.3682
O4A O 1.1064(7) 0.1172(5) 0.9661(4)
C4A C 0.0834(7) 0.1027(5) 1.5789(5)
C5A C -0.1656(7) 0.3414(5) 1.5538(5)
C6A C -0.3335(7) 0.4340(6) 1.6176(5)
C7A C -0.0758(7) 0.1920(5) 1.6313(5)
H3A H -0.1236 0.1511 1.7202
O5A O -0.3889(5) 0.5794(4) 1.5582(3)
O5A_2 O 0.6111(5) 0.5794(4) 0.5582(3)
O5_2 O 0.3889(5) 0.4206(4) 1.4418(3)
O6A O -0.4152(5) 0.3682(4) 1.7283(3)
C8A C 0.1827(7) -0.0562(5) 1.6672(5)
O7A O 0.3075(5) -0.1413(4) 1.6096(3)
O7A_2 O 0.3075(5) 0.8587(4) 0.6096(3)
O7_2 O 0.6925(5) 0.1413(4) 1.3904(3)
O8A O 0.1346(5) -0.0943(4) 1.7894(3)
O8A_2 O 0.1346(5) 0.9057(4) 0.7894(3)
O8_2 O 0.8654(5) 0.0943(4) 1.2106(3)
O9A O 0.1408(5) 0.2804(4) 1.1294(3)
O9_2 O -0.1408(5) 0.7196(4) 0.8706(3)
O9A_2 O 1.1408(5) 0.2804(4) 1.1294(3)
O10A O 0.0228(5) 0.5509(4) 1.1324(3)
H4A H 0.765(7) 0.507(5) 1.113(6)
H5A H 0.623(9) 0.199(7) 1.020(6)
H6A H 0.666(8) 0.288(7) 0.906(6)
H7A H 1.159(12) 0.162(11) 0.887(4)
H8A H 1.023(8) 0.083(7) 0.956(6)
O11 O 0.5305(7) 0.9247(5) 0.9028(4)
H10 H 0.636(5) 0.867(6) 0.881(6)
H12 H 0.479(10) 0.991(8) 0.833(5)
O12 O 0.6535(8) 0.8022(5) 0.2814(5)
H9 H 0.563(11) 0.770(11) 0.276(9)
H11 H 0.675(14) 0.764(11) 0.363(4)
loop_
_geom_bond_atom_site_label_1
_geom_bond_atom_site_label_2
_geom_bond_site_symmetry_1
_geom_bond_site_symmetry_2
Zn1 O1 1_555 1_555
Zn2 O1 1_555 1_555
Zn3 O1 1_555 1_555
P1 O2 1_555 1_555
O1 H4 1_555 1_555
O2 Zn1 1_555 1_555
O3 Zn2 1_555 1_555
C1 H1 1_555 1_555
C2 P1 1_555 1_555
C3 C2 1_555 1_555
H2 C3 1_555 1_555
O4 Zn2 1_555 1_555
C4 C1 1_555 1_555
C5 C3 1_555 1_555
C6 C5 1_555 1_555
C7 C4 1_555 1_555
H3 C7 1_555 1_555
O5 C6 1_555 1_555
O6 C6 1_555 1_555
C8 C4 1_555 1_555
O7 C8 1_555 1_555
O8 C8 1_555 1_555
O9 P1 1_555 1_555
O10 P1 1_555 1_555
O11 H10 1_555 1_555
O12 H9 1_555 1_555
H5 O3 1_555 1_555
H6 O3 1_555 1_555
H7 O4 1_555 1_555
H8 O4 1_555 1_555
H11 O12 1_555 1_555
H12 O11 1_555 1_555
Zn1A O1A 1_555 1_555
Zn1A_2 O5 1_555 1_555
Zn1A_3 O7 1_555 1_555
Zn1_2 O5A 1_555 1_555
Zn1_3 O7A 1_555 1_555
Zn2A O10 1_555 1_555
Zn2A_2 O8 1_555 1_555
Zn2_2 O9 1_555 1_555
Zn2_3 O8A 1_555 1_555
Zn2A_3 O9A 1_555 1_555
P1A O2A 1_555 1_555
O1A Zn3 1_555 1_555
O2A Zn3 1_555 1_555
O3A Zn3 1_555 1_555
C1A H1A 1_555 1_555
C2A P1A 1_555 1_555
C3A C2A 1_555 1_555
H2A C3A 1_555 1_555
O4A Zn2A 1_555 1_555
C4A C1A 1_555 1_555
C5A C3A 1_555 1_555
C6A C5A 1_555 1_555
C7A C4A 1_555 1_555
H3A C7A 1_555 1_555
O5A C6A 1_555 1_555
O5A_2 Zn1 1_555 1_555
O5_2 Zn1A 1_555 1_555
O6A C6A 1_555 1_555
C8A C4A 1_555 1_555
O7A C8A 1_555 1_555
O7A_2 Zn1 1_555 1_555
O7_2 Zn1A 1_555 1_555
O8A C8A 1_555 1_555
O8A_2 Zn2 1_555 1_555
O8_2 Zn2A 1_555 1_555
O9A P1A 1_555 1_555
O9_2 Zn2 1_555 1_555
O9A_2 Zn2A 1_555 1_555
O10A Zn2 1_555 1_555
H4A O1A 1_555 1_555
H5A O3A 1_555 1_555
H6A O3A 1_555 1_555
H7A O4A 1_555 1_555
H8A O4A 1_555 1_555
Zn3 O2 1_555 1_555
Zn3 O3 1_555 1_555
C1 C2 1_555 1_555
C5 C7 1_555 1_555
Zn1A O2A 1_555 1_555
Zn2A O1A 1_555 1_555
Zn2A O3A 1_555 1_555
P1A O10A 1_555 1_555
C1A C2A 1_555 1_555
C5A C7A 1_555 1_555

#END
