
#######################################################################
#
#                 Cambridge Crystallographic Data Centre
#                                CCDC 
#
#######################################################################
#
# If this CIF has been generated from an entry in the Cambridge 
# Structural Database, then it will include bibliographic, chemical, 
# crystal, experimental, refinement or atomic coordinate data resulting 
# from the CCDC's data processing and validation procedures.
#
#######################################################################

data_MAFZUQ
_symmetry_cell_setting           monoclinic
_symmetry_space_group_name_H-M   'C 2/c'
_symmetry_Int_Tables_number      15
_space_group_name_Hall           '-C 2yn'
loop_
_symmetry_equiv_pos_site_id
_symmetry_equiv_pos_as_xyz
1 x,y,z
2 -x,y,1/2-z
3 1/2+x,1/2+y,z
4 1/2-x,1/2+y,1/2-z
5 -x,-y,-z
6 x,-y,1/2+z
7 1/2-x,1/2-y,-z
8 1/2+x,1/2-y,1/2+z
_cell_length_a                   26.918(12)
_cell_length_b                   9.920(5)
_cell_length_c                   10.161(5)
_cell_angle_alpha                90
_cell_angle_beta                 112.179(6)
_cell_angle_gamma                90
_cell_volume                     2512.5
loop_
_atom_site_label
_atom_site_type_symbol
_atom_site_fract_x
_atom_site_fract_y
_atom_site_fract_z
Zn1 Zn 0.0000 0.22811(7) -0.2500
Zn2 Zn 0.137007(18) 0.57870(5) 0.26844(5)
P1 P 0.09363(4) 0.37398(11) 0.01032(12)
O1 O 0.09113(11) 0.4480(3) 0.1391(3)
O2 O 0.03687(11) 0.3488(3) -0.0949(3)
C1 C 0.20195(17) 0.0673(5) 0.1544(6)
C2 C 0.12374(15) 0.2119(4) 0.0716(5)
C3 C 0.11786(15) -0.0142(5) 0.1557(5)
C4 C 0.09424(16) 0.1077(4) 0.1003(5)
H1 H 0.0580 0.1208 0.0819
C5 C 0.17213(17) -0.0351(5) 0.1832(6)
H2 H 0.1883 -0.1168 0.2205
C6 C 0.17817(16) 0.1899(5) 0.0995(5)
H3 H 0.1985 0.2578 0.0813
C8 C 0.26036(19) 0.0442(5) 0.1820(6)
O3 O 0.29082(12) 0.1437(4) 0.2052(5)
O4 O 0.27729(14) -0.0716(4) 0.1836(5)
C9 C 0.08592(16) -0.1243(4) 0.1868(5)
O5 O 0.04222(12) -0.0914(3) 0.1962(4)
O6 O 0.10260(13) -0.2420(3) 0.1990(4)
O7 O 0.12883(12) 0.4496(3) -0.0519(3)
Zn1D Zn 0.0000 -0.22811(7) -0.7500
Zn1D_2 Zn 0.0000 -0.22811(7) 0.2500
Zn2A Zn -0.137007(18) 0.57870(5) -0.76844(5)
Zn2_2 Zn 0.137007(18) -0.42130(5) 0.26844(5)
Zn2A_2 Zn -0.137007(18) -0.42130(5) -0.76844(5)
Zn2B Zn -0.362993(18) 0.07870(5) -0.73156(5)
Zn2C Zn 0.362993(18) 0.07870(5) 0.23156(5)
Zn2D Zn -0.137007(18) 0.42130(5) -0.26844(5)
Zn2E Zn 0.137007(18) 0.42130(5) -0.23156(5)
P1A P -0.09363(4) 0.37398(11) -0.51032(12)
O1A O -0.09113(11) 0.4480(3) -0.6391(3)
O2A O -0.03687(11) 0.3488(3) -0.4051(3)
C1A C -0.20195(17) 0.0673(5) -0.6544(6)
C2A C -0.12374(15) 0.2119(4) -0.5716(5)
C3A C -0.11786(15) -0.0142(5) -0.6557(5)
C4A C -0.09424(16) 0.1077(4) -0.6003(5)
H1A H -0.0580 0.1208 -0.5819
C5A C -0.17213(17) -0.0351(5) -0.6832(6)
H2A H -0.1883 -0.1168 -0.7205
C6A C -0.17817(16) 0.1899(5) -0.5995(5)
H3A H -0.1985 0.2578 -0.5813
C8A C -0.26036(19) 0.0442(5) -0.6820(6)
O3A O -0.29082(12) 0.1437(4) -0.7052(5)
O3B O -0.20918(12) 0.6437(4) -0.7948(5)
O3C O 0.20918(12) 0.6437(4) 0.2948(5)
O4A O -0.27729(14) -0.0716(4) -0.6836(5)
C9A C -0.08592(16) -0.1243(4) -0.6868(5)
O5A O -0.04222(12) -0.0914(3) -0.6962(4)
O5D O -0.04222(12) 0.0914(3) -0.1962(4)
O5E O 0.04222(12) 0.0914(3) -0.3038(4)
O6A O -0.10260(13) -0.2420(3) -0.6990(4)
O6_2 O 0.10260(13) 0.7580(3) 0.1990(4)
O6A_2 O -0.10260(13) 0.7580(3) -0.6990(4)
O7A O -0.12883(12) 0.4496(3) -0.4481(3)
O7D O -0.12883(12) 0.5504(3) -0.9481(3)
O7E O 0.12883(12) 0.5504(3) 0.4481(3)
N1 N 0.5000 0.1199(10) 0.7500
C7 C 0.4656(2) 0.2014(7) 0.6332(7)
H4 H 0.4594 0.2867 0.6688
H5 H 0.4321 0.1559 0.5867
H6 H 0.4827 0.2157 0.5667
H10 H 0.5000 0.049(9) 0.7500
C7A C 0.5344(2) 0.2014(7) 0.8668(7)
H4A H 0.5406 0.2867 0.8312
H5A H 0.5679 0.1559 0.9133
H6A H 0.5173 0.2157 0.9333
O8 O 0.3073(6) 0.7552(10) 0.0174(13)
H7 H 0.3313 0.7253 0.0966
H8 H 0.3091 0.7479 -0.0666
H9 H 0.2801 0.7840 0.0348
loop_
_geom_bond_atom_site_label_1
_geom_bond_atom_site_label_2
_geom_bond_site_symmetry_1
_geom_bond_site_symmetry_2
Zn1 O2 1_555 1_555
Zn2 O1 1_555 1_555
P1 O1 1_555 1_555
O2 P1 1_555 1_555
C1 C5 1_555 1_555
C2 P1 1_555 1_555
C3 C4 1_555 1_555
C4 C2 1_555 1_555
H1 C4 1_555 1_555
C5 C3 1_555 1_555
H2 C5 1_555 1_555
C6 C1 1_555 1_555
H3 C6 1_555 1_555
N1 C7 1_555 1_555
C7 H4 1_555 1_555
H5 C7 1_555 1_555
H6 C7 1_555 1_555
C8 C1 1_555 1_555
O3 C8 1_555 1_555
O4 C8 1_555 1_555
C9 C3 1_555 1_555
O5 C9 1_555 1_555
O6 C9 1_555 1_555
O7 P1 1_555 1_555
O8 H7 1_555 1_555
H8 O8 1_555 1_555
H9 O8 1_555 1_555
H10 N1 1_555 1_555
Zn1D O5A 1_555 1_555
Zn1D_2 O5 1_555 1_555
Zn2A O1A 1_555 1_555
Zn2_2 O6 1_555 1_555
Zn2A_2 O6A 1_555 1_555
Zn2B O3A 1_555 1_555
Zn2C O3 1_555 1_555
Zn2D O7A 1_555 1_555
Zn2E O7 1_555 1_555
P1A O1A 1_555 1_555
O2A Zn1 1_555 1_555
C1A C5A 1_555 1_555
C2A P1A 1_555 1_555
C3A C4A 1_555 1_555
C4A C2A 1_555 1_555
H1A C4A 1_555 1_555
C5A C3A 1_555 1_555
H2A C5A 1_555 1_555
C6A C1A 1_555 1_555
H3A C6A 1_555 1_555
C7A N1 1_555 1_555
H4A C7A 1_555 1_555
H5A C7A 1_555 1_555
H6A C7A 1_555 1_555
C8A C1A 1_555 1_555
O3A C8A 1_555 1_555
O3B Zn2A 1_555 1_555
O3C Zn2 1_555 1_555
O4A C8A 1_555 1_555
C9A C3A 1_555 1_555
O5A C9A 1_555 1_555
O5D Zn1 1_555 1_555
O5E Zn1 1_555 1_555
O6A C9A 1_555 1_555
O6_2 Zn2 1_555 1_555
O6A_2 Zn2A 1_555 1_555
O7A P1A 1_555 1_555
O7D Zn2A 1_555 1_555
O7E Zn2 1_555 1_555
C2 C6 1_555 1_555
P1A O2A 1_555 1_555
C2A C6A 1_555 1_555

#END
