
#######################################################################
#
#                 Cambridge Crystallographic Data Centre
#                                CCDC 
#
#######################################################################
#
# If this CIF has been generated from an entry in the Cambridge 
# Structural Database, then it will include bibliographic, chemical, 
# crystal, experimental, refinement or atomic coordinate data resulting 
# from the CCDC's data processing and validation procedures.
#
#######################################################################

data_MAFZEA
_symmetry_cell_setting           triclinic
_symmetry_space_group_name_H-M   'P -1'
_symmetry_Int_Tables_number      2
_space_group_name_Hall           '-P 1'
loop_
_symmetry_equiv_pos_site_id
_symmetry_equiv_pos_as_xyz
1 x,y,z
2 -x,-y,-z
_cell_length_a                   10.0567(3)
_cell_length_b                   11.2296(4)
_cell_length_c                   12.7073(4)
_cell_angle_alpha                64.667(2)
_cell_angle_beta                 86.217(2)
_cell_angle_gamma                87.3424(13)
_cell_volume                     1293.98
loop_
_atom_site_label
_atom_site_type_symbol
_atom_site_fract_x
_atom_site_fract_y
_atom_site_fract_z
Ag1 Ag 0.54222(5) 0.84443(5) 0.09281(5)
Ag2 Ag 0.45339(5) 0.62436(5) 0.54609(5)
Ag3 Ag 0.71924(6) 1.22117(6) -0.33309(5)
Cl1 Cl 0.66307(16) 1.01826(15) -0.14063(13)
Cl2 Cl 0.50485(17) 0.62614(15) 0.33654(13)
Cl3 Cl 0.2469(2) 0.7626(2) 0.53794(16)
N1 N 0.7016(5) 0.9138(5) 0.1730(4)
N2 N 0.4564(5) 0.7101(5) 0.0217(4)
C1 C 0.6795(6) 0.9134(6) 0.2778(5)
C2 C 0.8969(6) 0.9941(6) 0.2760(5)
N3 N 1.3678(5) 1.2938(5) 0.4027(4)
N4 N -0.1033(5) 0.2966(5) -0.2722(5)
C3 C 0.8195(6) 0.9554(6) 0.1191(5)
C4 C 1.3844(7) 1.1930(7) 0.3740(6)
C5 C 0.7734(7) 0.9540(6) 0.3300(5)
C6 C -0.1098(6) 0.2810(7) -0.1617(6)
C7 C 0.4231(7) 0.7614(6) -0.0893(6)
C8 C 0.4096(7) 0.5909(6) 0.0903(5)
C9 C 1.1620(7) 1.2074(7) 0.3154(6)
C10 C 0.3282(8) 0.5229(7) 0.0538(7)
C11 C 1.0003(7) 1.0353(7) 0.3336(6)
C12 C 1.1420(7) 1.3089(7) 0.3516(7)
C13 C 0.1037(7) 0.3800(8) -0.1859(8)
C14 C 0.0046(7) 0.3524(7) -0.3372(6)
C15 C 0.9190(6) 0.9952(6) 0.1665(5)
C16 C 1.2863(8) 1.1489(7) 0.3298(6)
C17 C 0.3418(8) 0.7012(8) -0.1326(7)
C18 C 1.2491(7) 1.3482(7) 0.3914(6)
C19 C -0.0076(7) 0.3227(8) -0.1179(7)
C20 C 0.1095(7) 0.3937(8) -0.2985(8)
C21 C 0.2892(7) 0.5801(8) -0.0606(7)
C22 C 1.0546(9) 1.1667(8) 0.2631(8)
C23 C 0.1838(9) 0.5199(12) -0.1008(11)
C24 C 0.2164(8) 0.4251(11) -0.1380(11)
H1 H 0.594600 0.885703 0.318438
H2 H 0.839849 0.959013 0.042873
H3 H 1.468674 1.146651 0.385080
H4 H 0.754548 0.953911 0.405022
H5 H -0.186653 0.241201 -0.111956
H6 H 0.458487 0.844207 -0.144348
H7 H 0.431996 0.547860 0.170511
H8 H 0.299175 0.436957 0.107936
H9 H 0.962101 1.035226 0.404850
H10 H 1.074669 0.974280 0.350451
H11 H 1.055886 1.351032 0.347052
H12 H 0.012521 0.365337 -0.417051
H13 H 1.003005 1.023714 0.124434
H14 H 1.304502 1.077690 0.307797
H15 H 0.321470 0.744512 -0.213344
H16 H 1.231121 1.419836 0.412792
H17 H -0.013910 0.310099 -0.038142
H18 H 0.186547 0.431844 -0.348538
H19 H 0.249056 0.351878 -0.070957
H20 H 0.287356 0.458472 -0.196636
H21 H 0.115848 0.481261 -0.040162
H22 H 0.144772 0.587776 -0.167857
H23 H 0.980422 1.227682 0.248260
H24 H 1.088941 1.165902 0.191049
Ag1A Ag 0.45778(5) 1.15557(5) -0.09281(5)
Ag2A Ag 0.54661(5) 0.37564(5) 0.45391(5)
Ag2A_2 Ag 1.54661(5) 1.37564(5) 0.45391(5)
Ag3A Ag 0.28076(6) 0.77883(6) 0.33309(5)
Ag3_2 Ag -0.28076(6) 0.22117(6) -0.33309(5)
Cl1A Cl 0.33693(16) 0.98174(15) 0.14063(13)
Cl2A Cl 0.49515(17) 0.37386(15) 0.66346(13)
Cl2A_2 Cl 0.49515(17) 1.37386(15) -0.33654(13)
Cl3A Cl 0.7531(2) 1.2374(2) -0.53794(16)
N3A N 0.6322(5) 0.7062(5) 0.5973(4)
N4_2 N 0.8967(5) 1.2966(5) -0.2722(5)
loop_
_geom_bond_atom_site_label_1
_geom_bond_atom_site_label_2
_geom_bond_site_symmetry_1
_geom_bond_site_symmetry_2
Ag1 Cl1 1_555 1_555
Ag2 Cl2 1_555 1_555
Ag3 Cl1 1_555 1_555
Cl1 Ag1A 1_555 1_555
Cl2 Ag1 1_555 1_555
Cl3 Ag2 1_555 1_555
N1 Ag1 1_555 1_555
N2 Ag1 1_555 1_555
C1 N1 1_555 1_555
C2 C5 1_555 1_555
N3 C4 1_555 1_555
N4 C6 1_555 1_555
C3 N1 1_555 1_555
C4 C16 1_555 1_555
C5 C1 1_555 1_555
C6 C19 1_555 1_555
C7 N2 1_555 1_555
C8 N2 1_555 1_555
C9 C12 1_555 1_555
C10 C8 1_555 1_555
C11 C2 1_555 1_555
C12 C18 1_555 1_555
C13 C19 1_555 1_555
C14 N4 1_555 1_555
C15 C2 1_555 1_555
C16 C9 1_555 1_555
C17 C7 1_555 1_555
C18 N3 1_555 1_555
C19 H17 1_555 1_555
C20 C13 1_555 1_555
C21 C10 1_555 1_555
C22 C9 1_555 1_555
C23 C21 1_555 1_555
C24 C13 1_555 1_555
H1 C1 1_555 1_555
H2 C3 1_555 1_555
H3 C4 1_555 1_555
H4 C5 1_555 1_555
H5 C6 1_555 1_555
H6 C7 1_555 1_555
H7 C8 1_555 1_555
H8 C10 1_555 1_555
H9 C11 1_555 1_555
H10 C11 1_555 1_555
H11 C12 1_555 1_555
H12 C14 1_555 1_555
H13 C15 1_555 1_555
H14 C16 1_555 1_555
H15 C17 1_555 1_555
H16 C18 1_555 1_555
H18 C20 1_555 1_555
H19 C24 1_555 1_555
H20 C24 1_555 1_555
H21 C23 1_555 1_555
H22 C23 1_555 1_555
H23 C22 1_555 1_555
H24 C22 1_555 1_555
Ag1A Cl1A 1_555 1_555
Ag2A Cl2 1_555 1_555
Ag2A_2 N3 1_555 1_555
Ag3A Cl2 1_555 1_555
Ag3_2 N4 1_555 1_555
Cl1A Ag1 1_555 1_555
Cl2A Ag2 1_555 1_555
Cl2A_2 Ag3 1_555 1_555
Cl3A Ag3 1_555 1_555
N3A Ag2 1_555 1_555
N4_2 Ag3 1_555 1_555
Cl3 Ag3A 1_555 1_555
C3 C15 1_555 1_555
C11 C22 1_555 1_555
C14 C20 1_555 1_555
C17 C21 1_555 1_555
C23 C24 1_555 1_555
Ag1A Cl2A_2 1_555 1_555
Ag2A Cl2A 1_555 1_555
Ag3A Cl1A 1_555 1_555

#END
