
#######################################################################
#
#                 Cambridge Crystallographic Data Centre
#                                CCDC 
#
#######################################################################
#
# If this CIF has been generated from an entry in the Cambridge 
# Structural Database, then it will include bibliographic, chemical, 
# crystal, experimental, refinement or atomic coordinate data resulting 
# from the CCDC's data processing and validation procedures.
#
#######################################################################

data_MAGBAZ
_symmetry_cell_setting           monoclinic
_symmetry_space_group_name_H-M   'P 21/n'
_symmetry_Int_Tables_number      14
_space_group_name_Hall           '-P 2yn'
loop_
_symmetry_equiv_pos_site_id
_symmetry_equiv_pos_as_xyz
1 x,y,z
2 1/2-x,1/2+y,1/2-z
3 -x,-y,-z
4 1/2+x,1/2-y,1/2+z
_cell_length_a                   9.866(3)
_cell_length_b                   15.449(5)
_cell_length_c                   13.963(4)
_cell_angle_alpha                90
_cell_angle_beta                 90.000(4)
_cell_angle_gamma                90
_cell_volume                     2128.24
loop_
_atom_site_label
_atom_site_type_symbol
_atom_site_fract_x
_atom_site_fract_y
_atom_site_fract_z
Zn1 Zn 0.40279(4) 0.09772(3) 1.09591(3)
Zn2 Zn 0.41773(5) 0.13746(3) 0.76369(3)
C1 C 0.7878(4) 0.1519(2) 0.9242(3)
C2 C 0.8923(4) 0.1260(2) 0.9843(3)
H1 H 0.8769 0.0818 1.0282
C3 C 1.0200(4) 0.1648(3) 0.9804(3)
C4 C 1.0424(4) 0.2310(3) 0.9135(3)
H2 H 1.1266 0.2579 0.9104
C5 C 0.9388(4) 0.2567(2) 0.8517(2)
C6 C 0.8131(4) 0.2161(2) 0.8565(3)
H3 H 0.7451 0.2320 0.8139
C7 C 1.1303(4) 0.1384(3) 1.0496(3)
C8 C 0.9580(4) 0.3296(3) 0.7806(3)
C9 C 0.2402(4) 0.2701(3) 0.6853(3)
H4 H 0.2250 0.3275 0.6595
H5 H 0.1706 0.2587 0.7327
C10 C 0.2307(5) 0.2047(3) 0.6065(3)
H6 H 0.1391 0.2037 0.5814
H7 H 0.2915 0.2208 0.5549
C11 C 0.4897(5) 0.0945(3) 0.5716(3)
H8 H 0.5399 0.0599 0.5257
H9 H 0.4977 0.1548 0.5532
C12 C 0.3416(5) 0.0677(3) 0.5710(3)
H10 H 0.3033 0.0775 0.5079
H11 H 0.3342 0.0065 0.5856
C13 C 0.1956(4) 0.0073(3) 0.7578(3)
H12 H 0.1170 -0.0161 0.7905
H13 H 0.2432 -0.0402 0.7273
C14 C 0.1510(4) 0.0713(3) 0.6834(3)
H14 H 0.1029 0.0412 0.6328
H15 H 0.0890 0.1126 0.7122
N1 N 0.2669(3) 0.1180(2) 0.6421(2)
N2 N 0.5460(4) 0.0821(3) 0.6672(3)
N3 N 0.3736(4) 0.2666(2) 0.7308(3)
N4 N 0.2869(4) 0.0505(2) 0.8286(2)
O1 O 0.5825(3) 0.09259(17) 1.03454(19)
O2 O 0.6261(3) 0.02177(17) 0.87131(19)
O3 O 0.5258(3) 0.17090(17) 0.88095(19)
O4 O 1.0974(3) 0.1197(2) 1.1318(2)
O5 O 1.2497(3) 0.13787(19) 1.0156(2)
O6 O 1.0233(3) 0.39421(19) 0.8033(2)
O7 O 0.9040(3) 0.31602(19) 0.69888(19)
P1 P 0.61908(10) 0.10532(6) 0.92909(7)
H16 H 0.551(5) 0.0242(8) 0.672(3)
H17 H 0.628(2) 0.107(3) 0.670(4)
H18 H 0.235(4) 0.075(3) 0.874(2)
H19 H 0.431(5) 0.293(4) 0.690(4)
H20 H 0.376(4) 0.291(3) 0.7890(16)
H21 H 0.333(5) 0.013(3) 0.865(3)
Zn1B Zn 0.59721(4) -0.09772(3) 0.90409(3)
Zn1_2 Zn 1.40279(4) 0.09772(3) 1.09591(3)
Zn1C Zn 0.90279(4) 0.40228(3) 0.59591(3)
O2B O 0.3739(3) -0.02177(17) 1.12869(19)
O5_2 O 0.2497(3) 0.13787(19) 1.0156(2)
O7C O 0.4040(3) 0.18398(19) 1.19888(19)
O8 O 0.4532(5) 0.3409(3) 0.9301(3)
H22 H 0.477(6) 0.2882(13) 0.925(4)
H23 H 0.501(8) 0.372(3) 0.893(6)
O9 O 0.1478(5) 0.0522(4) 0.3249(3)
H24 H 0.150(8) 0.002(2) 0.299(5)
H25 H 0.134(13) 0.090(4) 0.281(4)
O10 O 0.3262(4) 0.3544(3) 0.1181(3)
H26 H 0.341(7) 0.3044(18) 0.140(3)
H27 H 0.358(6) 0.358(3) 0.0617(17)
loop_
_geom_bond_atom_site_label_1
_geom_bond_atom_site_label_2
_geom_bond_site_symmetry_1
_geom_bond_site_symmetry_2
Zn1 O1 1_555 1_555
Zn2 N1 1_555 1_555
C1 C2 1_555 1_555
C2 H1 1_555 1_555
C3 C2 1_555 1_555
C4 C3 1_555 1_555
H2 C4 1_555 1_555
C5 C4 1_555 1_555
C6 C1 1_555 1_555
H3 C6 1_555 1_555
C7 C3 1_555 1_555
C8 C5 1_555 1_555
C9 H4 1_555 1_555
H5 C9 1_555 1_555
C10 C9 1_555 1_555
H6 C10 1_555 1_555
H7 C10 1_555 1_555
C11 H8 1_555 1_555
H9 C11 1_555 1_555
C12 C11 1_555 1_555
H10 C12 1_555 1_555
H11 C12 1_555 1_555
C13 H12 1_555 1_555
H13 C13 1_555 1_555
C14 C13 1_555 1_555
H14 C14 1_555 1_555
H15 C14 1_555 1_555
N1 C10 1_555 1_555
N2 Zn2 1_555 1_555
N3 Zn2 1_555 1_555
N4 Zn2 1_555 1_555
O1 P1 1_555 1_555
O2 P1 1_555 1_555
O3 Zn2 1_555 1_555
O4 C7 1_555 1_555
O5 C7 1_555 1_555
O6 C8 1_555 1_555
O7 C8 1_555 1_555
O8 H22 1_555 1_555
O9 H24 1_555 1_555
O10 H26 1_555 1_555
P1 C1 1_555 1_555
H16 N2 1_555 1_555
H17 N2 1_555 1_555
H18 N4 1_555 1_555
H19 N3 1_555 1_555
H20 N3 1_555 1_555
H21 N4 1_555 1_555
H23 O8 1_555 1_555
H25 O9 1_555 1_555
H27 O10 1_555 1_555
Zn1B O2 1_555 1_555
Zn1_2 O5 1_555 1_555
Zn1C O7 1_555 1_555
O2B Zn1 1_555 1_555
O5_2 Zn1 1_555 1_555
O7C Zn1 1_555 1_555
C5 C6 1_555 1_555
C9 N3 1_555 1_555
C11 N2 1_555 1_555
C12 N1 1_555 1_555
C13 N4 1_555 1_555
C14 N1 1_555 1_555
O3 P1 1_555 1_555

#END
