
#######################################################################
#
#                 Cambridge Crystallographic Data Centre
#                                CCDC 
#
#######################################################################
#
# If this CIF has been generated from an entry in the Cambridge 
# Structural Database, then it will include bibliographic, chemical, 
# crystal, experimental, refinement or atomic coordinate data resulting 
# from the CCDC's data processing and validation procedures.
#
#######################################################################

data_MAGBUT
_symmetry_cell_setting           rhombohedral
_symmetry_space_group_name_H-M   'R -3'
_symmetry_Int_Tables_number      148
_space_group_name_Hall           '-R 3'
loop_
_symmetry_equiv_pos_site_id
_symmetry_equiv_pos_as_xyz
1 x,y,z
2 -y,x-y,z
3 -x+y,-x,z
4 2/3+x,1/3+y,1/3+z
5 2/3-y,1/3+x-y,1/3+z
6 2/3-x+y,1/3-x,1/3+z
7 1/3+x,2/3+y,2/3+z
8 1/3-y,2/3+x-y,2/3+z
9 1/3-x+y,2/3-x,2/3+z
10 -x,-y,-z
11 y,-x+y,-z
12 x-y,x,-z
13 1/3-x,2/3-y,2/3-z
14 1/3+y,2/3-x+y,2/3-z
15 1/3+x-y,2/3+x,2/3-z
16 2/3-x,1/3-y,1/3-z
17 2/3+y,1/3-x+y,1/3-z
18 2/3+x-y,1/3+x,1/3-z
_cell_length_a                   14.6031(3)
_cell_length_b                   14.6031(3)
_cell_length_c                   36.917(2)
_cell_angle_alpha                90
_cell_angle_beta                 90
_cell_angle_gamma                120
_cell_volume                     6817.85
loop_
_atom_site_label
_atom_site_type_symbol
_atom_site_fract_x
_atom_site_fract_y
_atom_site_fract_z
In1 In 0.6667 0.3333 1.01143(3)
Cl1 Cl 0.7905(4) 0.4996(4) 1.03212(16)
Cl2 Cl 0.6667 0.3333 0.94904(15)
Cl1A Cl 0.5004(4) 0.2909(6) 1.03212(16)
Cl1B Cl 0.7091(6) 0.2095(4) 1.03212(16)
In2 In 1.0000 0.0000 0.82093(3)
Cl3 Cl 1.0000 0.0000 0.88302(18)
Cl4 Cl 0.8536(2) 0.0092(3) 0.80378(15)
Cl4A Cl 0.9908(3) -0.1556(4) 0.80378(15)
Cl4B Cl 1.1556(4) 0.1464(2) 0.80378(15)
Fe1 Fe 0.3333 -0.3333 0.6667
Fe2 Fe 0.6667 0.3333 0.8333
N1 N 0.4169(5) -0.2054(5) 0.69754(16)
N2 N 0.5145(5) 0.0202(5) 0.75256(17)
N3 N 0.4212(5) -0.0098(5) 0.74709(17)
N4 N 0.5372(4) 0.2138(4) 0.80116(16)
C1 C 0.4720(6) -0.1345(6) 0.7145(2)
C2 C 0.5557(6) -0.0393(6) 0.7333(2)
C3 C 0.3819(5) 0.0553(5) 0.7665(2)
C4 C 0.4709(5) 0.1459(5) 0.78517(19)
C5 C 0.6099(9) -0.0727(10) 0.7614(3)
H1 H 0.6651 -0.0099 0.7738
H2 H 0.6418 -0.1098 0.7494
H3 H 0.5576 -0.1199 0.7792
C6 C 0.6321(8) 0.0368(7) 0.7039(3)
H4 H 0.6894 0.0996 0.7156
H5 H 0.5932 0.0580 0.6875
H6 H 0.6619 0.0006 0.6900
C7 C 0.3400(7) 0.0977(7) 0.7361(3)
H7 H 0.2814 0.0381 0.7235
H8 H 0.3970 0.1390 0.7189
H9 H 0.3150 0.1427 0.7468
C8 C 0.2993(8) -0.0158(7) 0.7933(3)
H10 H 0.2411 -0.0750 0.7804
H11 H 0.2721 0.0242 0.8062
H12 H 0.3306 -0.0430 0.8106
Fe2A Fe -0.3333 -0.6666 0.8333
Fe2B Fe 0.6666 -0.6667 0.8333
Fe2P Fe 1.0000 -0.0001 0.5000
Fe2Q Fe 0.0001 0.0000 0.5000
Fe2O Fe -0.0000 -1.0000 0.5000
N1A N 0.2054(5) -0.3777(7) 0.69754(16)
N1B N 0.3777(7) -0.4169(5) 0.69754(16)
N1O N 0.2498(5) -0.4613(5) 0.63579(16)
N1P N 0.4613(5) -0.2890(7) 0.63579(16)
N1Q N 0.2890(7) -0.2498(5) 0.63579(16)
N2A N -0.0202(5) -0.5057(7) 0.75256(17)
N2B N 0.5057(7) -0.5145(5) 0.75256(17)
N2P N 0.6869(5) -0.1610(7) 0.58077(17)
N2Q N 0.1610(7) -0.1522(5) 0.58077(17)
N2O N 0.1522(5) -0.6869(5) 0.58077(17)
N3A N 0.0098(5) -0.5690(7) 0.74709(17)
N3B N 0.5690(7) -0.4212(5) 0.74709(17)
N3P N 0.6569(5) -0.0977(7) 0.58624(17)
N3Q N 0.0977(7) -0.2455(5) 0.58624(17)
N3O N 0.2455(5) -0.6569(5) 0.58624(17)
N4A N -0.2138(4) -0.6766(6) 0.80116(16)
N4B N 0.6766(6) -0.5372(4) 0.80116(16)
N4A_2 N 0.7862(4) 0.3234(6) 0.80116(16)
N4B_2 N 0.6766(6) 0.4628(4) 0.80116(16)
N4L N 0.7961(4) 0.4529(4) 0.86551(16)
N4M N 0.5471(4) 0.3433(6) 0.86551(16)
N4N N 0.6567(6) 0.2039(4) 0.86551(16)
N4P N 0.8805(4) 0.0099(6) 0.53217(16)
N4Q N -0.0099(6) -0.1295(4) 0.53217(16)
N4O N 0.1295(4) -0.8805(4) 0.53217(16)
C1A C 0.1345(6) -0.3935(8) 0.7145(2)
C1B C 0.3935(8) -0.4720(6) 0.7145(2)
C1P C 0.5322(6) -0.2732(8) 0.6188(2)
C1Q C 0.2732(8) -0.1947(6) 0.6188(2)
C1O C 0.1947(6) -0.5322(6) 0.6188(2)
C2A C 0.0393(6) -0.4050(8) 0.7333(2)
C2B C 0.4050(8) -0.5557(6) 0.7333(2)
C2P C 0.6274(6) -0.2617(8) 0.6000(2)
C2Q C 0.2617(8) -0.1110(6) 0.6000(2)
C2O C 0.1110(6) -0.6274(6) 0.6000(2)
C3A C -0.0553(5) -0.6734(7) 0.7665(2)
C3B C 0.6734(7) -0.3819(5) 0.7665(2)
C3P C 0.7220(5) 0.0067(7) 0.5668(2)
C3Q C -0.0067(7) -0.2848(5) 0.5668(2)
C3O C 0.2848(5) -0.7220(5) 0.5668(2)
C4A C -0.1459(5) -0.6750(7) 0.78517(19)
C4B C 0.6750(7) -0.4709(5) 0.78517(19)
C4P C 0.8126(5) 0.0083(7) 0.54816(19)
C4Q C -0.0083(7) -0.1958(5) 0.54816(19)
C4O C 0.1958(5) -0.8126(5) 0.54816(19)
C5A C 0.0727(10) -0.3174(13) 0.7614(3)
C5B C 0.3174(13) -0.6099(9) 0.7614(3)
C5P C 0.5940(10) -0.3493(13) 0.5719(3)
C5Q C 0.3493(13) -0.0568(9) 0.5719(3)
C5O C 0.0568(9) -0.5940(10) 0.5719(3)
H1A H 0.0099 -0.3250 0.7738
H1B H 0.3250 -0.6651 0.7738
H1P H 0.6568 -0.3417 0.5595
H1Q H 0.3417 -0.0016 0.5595
H1O H 0.0016 -0.6568 0.5595
H2A H 0.1098 -0.2484 0.7494
H2B H 0.2484 -0.6418 0.7494
H2P H 0.5569 -0.4183 0.5839
H2Q H 0.4183 -0.0249 0.5839
H2O H 0.0249 -0.5569 0.5839
H3A H 0.1199 -0.3225 0.7792
H3B H 0.3225 -0.5576 0.7792
H3P H 0.5468 -0.3442 0.5541
H3Q H 0.3442 -0.1091 0.5541
H3O H 0.1091 -0.5468 0.5541
C6A C -0.0368(7) -0.4047(11) 0.7039(3)
C6B C 0.4047(11) -0.6321(8) 0.7039(3)
C6P C 0.7035(7) -0.2620(11) 0.6294(3)
C6Q C 0.2620(11) -0.0346(8) 0.6294(3)
C6O C 0.0346(8) -0.7035(7) 0.6294(3)
H4A H -0.0996 -0.4102 0.7156
H4B H 0.4102 -0.6894 0.7156
H4P H 0.7663 -0.2565 0.6177
H4Q H 0.2565 0.0227 0.6177
H4O H -0.0227 -0.7663 0.6177
H5A H -0.0580 -0.4648 0.6875
H5B H 0.4648 -0.5932 0.6875
H5P H 0.7247 -0.2019 0.6458
H5Q H 0.2019 -0.0735 0.6458
H5O H 0.0735 -0.7247 0.6458
H6A H -0.0006 -0.3387 0.6900
H6B H 0.3387 -0.6619 0.6900
H6P H 0.6673 -0.3280 0.6433
H6Q H 0.3280 -0.0048 0.6433
H6O H 0.0048 -0.6673 0.6433
C7A C -0.0977(7) -0.7577(10) 0.7361(3)
C7B C 0.7577(10) -0.3400(7) 0.7361(3)
C7P C 0.7644(7) 0.0910(10) 0.5972(3)
C7Q C -0.0910(10) -0.3267(7) 0.5972(3)
C7O C 0.3267(7) -0.7644(7) 0.5972(3)
H7A H -0.0381 -0.7567 0.7235
H7B H 0.7567 -0.2814 0.7235
H7P H 0.7048 0.0900 0.6098
H7Q H -0.0900 -0.3853 0.6098
H7O H 0.3853 -0.7048 0.6098
H8A H -0.1390 -0.7420 0.7189
H8B H 0.7420 -0.3970 0.7189
H8P H 0.8057 0.0753 0.6144
H8Q H -0.0753 -0.2697 0.6144
H8O H 0.2697 -0.8057 0.6144
H9A H -0.1427 -0.8277 0.7468
H9B H 0.8277 -0.3150 0.7468
H9P H 0.8094 0.1610 0.5865
H9Q H -0.1610 -0.3517 0.5865
H9O H 0.3517 -0.8094 0.5865
C8A C 0.0158(7) -0.6849(11) 0.7933(3)
C8B C 0.6849(11) -0.2993(8) 0.7933(3)
C8P C 0.6509(7) 0.0182(11) 0.5400(3)
C8Q C -0.0182(11) -0.3674(8) 0.5400(3)
C8O C 0.3674(8) -0.6509(7) 0.5400(3)
H10A H 0.0750 -0.6839 0.7804
H10B H 0.6839 -0.2411 0.7804
H10P H 0.5917 0.0172 0.5529
H10Q H -0.0172 -0.4256 0.5529
H10O H 0.4256 -0.5917 0.5529
H11A H -0.0242 -0.7521 0.8062
H11B H 0.7521 -0.2721 0.8062
H11P H 0.6909 0.0854 0.5271
H11Q H -0.0854 -0.3946 0.5271
H11O H 0.3946 -0.6909 0.5271
H12A H 0.0430 -0.6264 0.8106
H12B H 0.6264 -0.3306 0.8106
H12P H 0.6237 -0.0403 0.5227
H12Q H 0.0403 -0.3361 0.5227
H12O H 0.3361 -0.6237 0.5227
loop_
_geom_bond_atom_site_label_1
_geom_bond_atom_site_label_2
_geom_bond_site_symmetry_1
_geom_bond_site_symmetry_2
In1 Cl1 1_555 1_555
In2 Cl3 1_555 1_555
Fe1 N1 1_555 1_555
Fe2 N4 1_555 1_555
Cl2 In1 1_555 1_555
Cl4 In2 1_555 1_555
N1 C1 1_555 1_555
N2 N3 1_555 1_555
N3 C3 1_555 1_555
N4 C4 1_555 1_555
C1 C2 1_555 1_555
C2 N2 1_555 1_555
C3 C4 1_555 1_555
C5 C2 1_555 1_555
H1 C5 1_555 1_555
H2 C5 1_555 1_555
H3 C5 1_555 1_555
C6 C2 1_555 1_555
H4 C6 1_555 1_555
H5 C6 1_555 1_555
H6 C6 1_555 1_555
C7 C3 1_555 1_555
H7 C7 1_555 1_555
H8 C7 1_555 1_555
H9 C7 1_555 1_555
C8 C3 1_555 1_555
H10 C8 1_555 1_555
H11 C8 1_555 1_555
H12 C8 1_555 1_555
Fe2A N4A 1_555 1_555
Fe2B N4B 1_555 1_555
Fe2P N4P 1_555 1_555
Fe2Q N4Q 1_555 1_555
Fe2O N4O 1_555 1_555
Cl1A In1 1_555 1_555
Cl1B In1 1_555 1_555
Cl4A In2 1_555 1_555
Cl4B In2 1_555 1_555
N1A Fe1 1_555 1_555
N1B Fe1 1_555 1_555
N1O Fe1 1_555 1_555
N1P Fe1 1_555 1_555
N1Q Fe1 1_555 1_555
N2A N3A 1_555 1_555
N2B N3B 1_555 1_555
N2P N3P 1_555 1_555
N2Q N3Q 1_555 1_555
N2O N3O 1_555 1_555
N3A C3A 1_555 1_555
N3B C3B 1_555 1_555
N3P C3P 1_555 1_555
N3Q C3Q 1_555 1_555
N3O C3O 1_555 1_555
N4A C4A 1_555 1_555
N4B C4B 1_555 1_555
N4A_2 Fe2 1_555 1_555
N4B_2 Fe2 1_555 1_555
N4L Fe2 1_555 1_555
N4M Fe2 1_555 1_555
N4N Fe2 1_555 1_555
N4P C4P 1_555 1_555
N4Q C4Q 1_555 1_555
N4O C4O 1_555 1_555
C1A N1A 1_555 1_555
C1B N1B 1_555 1_555
C1P N1P 1_555 1_555
C1Q N1Q 1_555 1_555
C1O N1O 1_555 1_555
C2A N2A 1_555 1_555
C2B N2B 1_555 1_555
C2P N2P 1_555 1_555
C2Q N2Q 1_555 1_555
C2O N2O 1_555 1_555
C3A C4A 1_555 1_555
C3B C4B 1_555 1_555
C3P C4P 1_555 1_555
C3Q C4Q 1_555 1_555
C3O C4O 1_555 1_555
C5A C2A 1_555 1_555
C5B C2B 1_555 1_555
C5P C2P 1_555 1_555
C5Q C2Q 1_555 1_555
C5O C2O 1_555 1_555
H1A C5A 1_555 1_555
H1B C5B 1_555 1_555
H1P C5P 1_555 1_555
H1Q C5Q 1_555 1_555
H1O C5O 1_555 1_555
H2A C5A 1_555 1_555
H2B C5B 1_555 1_555
H2P C5P 1_555 1_555
H2Q C5Q 1_555 1_555
H2O C5O 1_555 1_555
H3A C5A 1_555 1_555
H3B C5B 1_555 1_555
H3P C5P 1_555 1_555
H3Q C5Q 1_555 1_555
H3O C5O 1_555 1_555
C6A C2A 1_555 1_555
C6B C2B 1_555 1_555
C6P C2P 1_555 1_555
C6Q C2Q 1_555 1_555
C6O C2O 1_555 1_555
H4A C6A 1_555 1_555
H4B C6B 1_555 1_555
H4P C6P 1_555 1_555
H4Q C6Q 1_555 1_555
H4O C6O 1_555 1_555
H5A C6A 1_555 1_555
H5B C6B 1_555 1_555
H5P C6P 1_555 1_555
H5Q C6Q 1_555 1_555
H5O C6O 1_555 1_555
H6A C6A 1_555 1_555
H6B C6B 1_555 1_555
H6P C6P 1_555 1_555
H6Q C6Q 1_555 1_555
H6O C6O 1_555 1_555
C7A C3A 1_555 1_555
C7B C3B 1_555 1_555
C7P C3P 1_555 1_555
C7Q C3Q 1_555 1_555
C7O C3O 1_555 1_555
H7A C7A 1_555 1_555
H7B C7B 1_555 1_555
H7P C7P 1_555 1_555
H7Q C7Q 1_555 1_555
H7O C7O 1_555 1_555
H8A C7A 1_555 1_555
H8B C7B 1_555 1_555
H8P C7P 1_555 1_555
H8Q C7Q 1_555 1_555
H8O C7O 1_555 1_555
H9A C7A 1_555 1_555
H9B C7B 1_555 1_555
H9P C7P 1_555 1_555
H9Q C7Q 1_555 1_555
H9O C7O 1_555 1_555
C8A C3A 1_555 1_555
C8B C3B 1_555 1_555
C8P C3P 1_555 1_555
C8Q C3Q 1_555 1_555
C8O C3O 1_555 1_555
H10A C8A 1_555 1_555
H10B C8B 1_555 1_555
H10P C8P 1_555 1_555
H10Q C8Q 1_555 1_555
H10O C8O 1_555 1_555
H11A C8A 1_555 1_555
H11B C8B 1_555 1_555
H11P C8P 1_555 1_555
H11Q C8Q 1_555 1_555
H11O C8O 1_555 1_555
H12A C8A 1_555 1_555
H12B C8B 1_555 1_555
H12P C8P 1_555 1_555
H12Q C8Q 1_555 1_555
H12O C8O 1_555 1_555
C1A C2A 1_555 1_555
C1B C2B 1_555 1_555
C1P C2P 1_555 1_555
C1Q C2Q 1_555 1_555
C1O C2O 1_555 1_555

#END
