
#######################################################################
#
#                 Cambridge Crystallographic Data Centre
#                                CCDC 
#
#######################################################################
#
# If this CIF has been generated from an entry in the Cambridge 
# Structural Database, then it will include bibliographic, chemical, 
# crystal, experimental, refinement or atomic coordinate data resulting 
# from the CCDC's data processing and validation procedures.
#
#######################################################################

data_MAGBED
_symmetry_cell_setting           monoclinic
_symmetry_space_group_name_H-M   'C 2/c'
_symmetry_Int_Tables_number      15
_space_group_name_Hall           '-C 2yn'
loop_
_symmetry_equiv_pos_site_id
_symmetry_equiv_pos_as_xyz
1 x,y,z
2 -x,y,1/2-z
3 1/2+x,1/2+y,z
4 1/2-x,1/2+y,1/2-z
5 -x,-y,-z
6 x,-y,1/2+z
7 1/2-x,1/2-y,-z
8 1/2+x,1/2-y,1/2+z
_cell_length_a                   32.84(2)
_cell_length_b                   9.599(7)
_cell_length_c                   20.209(13)
_cell_angle_alpha                90
_cell_angle_beta                 106.710(9)
_cell_angle_gamma                90
_cell_volume                     6101.49
loop_
_atom_site_label
_atom_site_type_symbol
_atom_site_fract_x
_atom_site_fract_y
_atom_site_fract_z
Zn1 Zn 0.795732(14) 0.66932(5) 0.79101(2)
Zn2 Zn 0.939188(14) 0.57150(5) 0.91501(2)
Zn3 Zn 0.858757(14) 1.00548(5) 0.71416(2)
C1 C 0.91253(11) 0.6155(4) 0.73823(18)
C2 C 0.90384(12) 0.4731(4) 0.74093(19)
H1 H 0.8841 0.4430 0.7629
C3 C 0.92457(12) 0.3771(4) 0.71084(19)
C4 C 0.95357(12) 0.4216(4) 0.67838(19)
H2 H 0.9684 0.3566 0.6601
C5 C 0.96105(12) 0.5628(4) 0.67250(18)
C6 C 0.94037(11) 0.6578(4) 0.70253(18)
H3 H 0.9453 0.7525 0.6986
C7 C 0.91564(14) 0.2233(4) 0.7153(2)
C8 C 0.99411(12) 0.6088(5) 0.6379(2)
C9 C 0.82234(11) 1.0560(4) 0.87750(18)
C10 C 0.85292(12) 1.1582(4) 0.88042(19)
H4 H 0.8557 1.1966 0.8397
C11 C 0.87927(12) 1.2033(4) 0.9435(2)
C12 C 0.87447(13) 1.1494(4) 1.00491(19)
H5 H 0.8921 1.1801 1.0471
C13 C 0.84345(13) 1.0502(4) 1.00327(19)
C14 C 0.81789(12) 1.0031(4) 0.94021(18)
H6 H 0.7974 0.9354 0.9392
C15 C 0.91129(13) 1.3164(5) 0.9467(2)
C16 C 0.83741(15) 0.9963(5) 1.0700(2)
C17 C 0.81564(18) 0.6221(5) 0.9418(2)
H7 H 0.7878 0.6585 0.9403
H8 H 0.8343 0.7013 0.9439
C18 C 0.83240(17) 0.5385(6) 1.0092(2)
H9 H 0.8581 0.4897 1.0080
H10 H 0.8400 0.6030 1.0478
C19 C 0.80129(17) 0.4347(6) 1.0215(2)
H11 H 0.7998 0.3550 0.9913
H12 H 0.7733 0.4766 1.0104
C20 C 0.95696(17) 0.8276(5) 0.9948(2)
H13 H 0.9293 0.8532 0.9645
H14 H 0.9779 0.8500 0.9709
C21 C 0.96573(15) 0.9166(5) 1.0584(2)
H15 H 0.9452 0.8933 1.0828
H16 H 0.9611 1.0132 1.0441
C22 C 1.00959(15) 0.9035(5) 1.1079(2)
H17 H 1.0150 0.8073 1.1224
H18 H 1.0306 0.9316 1.0852
N1 N 0.81180(10) 0.5476(3) 0.87643(15)
H19 H 0.7921 0.4803 0.8716
H20 H 0.8368 0.5059 0.8792
N2 N 0.81423(13) 0.3876(4) 1.09496(18)
H21 H 0.8415 0.3624 1.1071
H22 H 0.7983 0.3153 1.0996
H23 H 0.8106 0.4569 1.1220
N3 N 0.95745(11) 0.6763(3) 1.00514(17)
H24 H 0.9399 0.6546 1.0306
H25 H 0.9839 0.6495 1.0288
N4 N 1.01285(13) 0.9926(4) 1.16834(18)
H26 H 1.0044 1.0785 1.1543
H27 H 1.0397 0.9949 1.1946
H28 H 0.9965 0.9584 1.1927
O1 O 0.89669(8) 0.6927(3) 0.85713(13)
O2 O 0.90037(8) 0.8814(3) 0.77286(13)
O3 O 0.83888(8) 0.7130(3) 0.74606(12)
O4 O 0.88215(9) 0.1938(3) 0.73035(15)
O5 O 0.94140(10) 0.1365(3) 0.70522(16)
O6 O 1.01228(8) 0.5114(3) 0.61461(13)
O7 O 1.00268(9) 0.7334(3) 0.63555(15)
O8 O 0.80572(8) 1.0172(3) 0.73858(12)
O9 O 0.77375(8) 0.8507(3) 0.80786(12)
O10 O 0.74755(8) 1.0942(3) 0.78771(12)
O11 O 0.89983(9) 1.4146(3) 0.90507(16)
O12 O 0.94688(11) 1.3087(4) 0.98805(18)
O13 O 0.85144(10) 1.0723(3) 1.12227(13)
O14 O 0.81938(14) 0.8845(4) 1.07009(16)
P1 P 0.88599(3) 0.73373(11) 0.78200(5)
P2 P 0.78601(3) 1.00007(11) 0.79722(5)
Zn1C Zn 0.704268(14) 1.16932(5) 0.70899(2)
Zn2A Zn 1.060812(14) 0.57150(5) 0.58499(2)
Zn2_2 Zn 0.939188(14) 1.57150(5) 0.91501(2)
Zn3_2 Zn 0.858757(14) 0.00548(5) 0.71416(2)
Zn3E Zn 0.858757(14) 0.99452(5) 1.21416(2)
O4_2 O 0.88215(9) 1.1938(3) 0.73035(15)
O6A O 0.98772(8) 0.5114(3) 0.88539(13)
O10C O 0.75245(8) 0.5942(3) 0.71229(12)
O11_2 O 0.89983(9) 0.4146(3) 0.90507(16)
O13E O 0.85144(10) 0.9277(3) 0.62227(13)
O15 O 0.75626(10) 0.8185(3) 0.62693(14)
H29 H 0.7543 0.7471 0.6525
H30 H 0.7774 0.8679 0.6508
O16 O 0.79843(14) 0.3601(4) 0.6433(3)
H31 H 0.8036 0.3702 0.6885
H32 H 0.7917 0.2726 0.6356
loop_
_geom_bond_atom_site_label_1
_geom_bond_atom_site_label_2
_geom_bond_site_symmetry_1
_geom_bond_site_symmetry_2
Zn1 N1 1_555 1_555
Zn2 N3 1_555 1_555
Zn3 O2 1_555 1_555
C1 C2 1_555 1_555
C2 H1 1_555 1_555
C3 C2 1_555 1_555
C4 C3 1_555 1_555
H2 C4 1_555 1_555
C5 C4 1_555 1_555
C6 C1 1_555 1_555
H3 C6 1_555 1_555
C7 C3 1_555 1_555
C8 C5 1_555 1_555
C9 C10 1_555 1_555
C10 H4 1_555 1_555
C11 C10 1_555 1_555
C12 C11 1_555 1_555
H5 C12 1_555 1_555
C13 C12 1_555 1_555
C14 C9 1_555 1_555
H6 C14 1_555 1_555
C15 C11 1_555 1_555
C16 C13 1_555 1_555
C17 H7 1_555 1_555
H8 C17 1_555 1_555
C18 C17 1_555 1_555
H9 C18 1_555 1_555
H10 C18 1_555 1_555
C19 C18 1_555 1_555
H11 C19 1_555 1_555
H12 C19 1_555 1_555
C20 H13 1_555 1_555
H14 C20 1_555 1_555
C21 C20 1_555 1_555
H15 C21 1_555 1_555
H16 C21 1_555 1_555
C22 C21 1_555 1_555
H17 C22 1_555 1_555
H18 C22 1_555 1_555
N1 C17 1_555 1_555
H19 N1 1_555 1_555
H20 N1 1_555 1_555
N2 C19 1_555 1_555
H21 N2 1_555 1_555
H22 N2 1_555 1_555
H23 N2 1_555 1_555
N3 C20 1_555 1_555
H24 N3 1_555 1_555
H25 N3 1_555 1_555
N4 C22 1_555 1_555
H26 N4 1_555 1_555
H27 N4 1_555 1_555
H28 N4 1_555 1_555
O1 Zn2 1_555 1_555
O2 P1 1_555 1_555
O3 Zn1 1_555 1_555
O4 C7 1_555 1_555
O5 C7 1_555 1_555
O6 C8 1_555 1_555
O7 C8 1_555 1_555
O8 Zn3 1_555 1_555
O9 Zn1 1_555 1_555
O10 P2 1_555 1_555
O11 C15 1_555 1_555
O12 C15 1_555 1_555
O13 C16 1_555 1_555
O14 C16 1_555 1_555
O15 H29 1_555 1_555
H30 O15 1_555 1_555
O16 H31 1_555 1_555
H32 O16 1_555 1_555
P1 C1 1_555 1_555
P2 C9 1_555 1_555
Zn1C O10 1_555 1_555
Zn2A O6 1_555 1_555
Zn2_2 O11 1_555 1_555
Zn3_2 O4 1_555 1_555
Zn3E O13 1_555 1_555
O4_2 Zn3 1_555 1_555
O6A Zn2 1_555 1_555
O10C Zn1 1_555 1_555
O11_2 Zn2 1_555 1_555
O13E Zn3 1_555 1_555
C5 C6 1_555 1_555
C13 C14 1_555 1_555
O1 P1 1_555 1_555
O3 P1 1_555 1_555
O8 P2 1_555 1_555
O9 P2 1_555 1_555

#END
