
#######################################################################
#
#                 Cambridge Crystallographic Data Centre
#                                CCDC 
#
#######################################################################
#
# If this CIF has been generated from an entry in the Cambridge 
# Structural Database, then it will include bibliographic, chemical, 
# crystal, experimental, refinement or atomic coordinate data resulting 
# from the CCDC's data processing and validation procedures.
#
#######################################################################

data_MAGCEE01
_symmetry_cell_setting           rhombohedral
_symmetry_space_group_name_H-M   'R -3'
_symmetry_Int_Tables_number      148
_space_group_name_Hall           '-R 3'
loop_
_symmetry_equiv_pos_site_id
_symmetry_equiv_pos_as_xyz
1 x,y,z
2 -y,x-y,z
3 -x+y,-x,z
4 2/3+x,1/3+y,1/3+z
5 2/3-y,1/3+x-y,1/3+z
6 2/3-x+y,1/3-x,1/3+z
7 1/3+x,2/3+y,2/3+z
8 1/3-y,2/3+x-y,2/3+z
9 1/3-x+y,2/3-x,2/3+z
10 -x,-y,-z
11 y,-x+y,-z
12 x-y,x,-z
13 1/3-x,2/3-y,2/3-z
14 1/3+y,2/3-x+y,2/3-z
15 1/3+x-y,2/3+x,2/3-z
16 2/3-x,1/3-y,1/3-z
17 2/3+y,1/3-x+y,1/3-z
18 2/3+x-y,1/3+x,1/3-z
_cell_length_a                   14.5996(3)
_cell_length_b                   14.5996(3)
_cell_length_c                   36.9669(18)
_cell_angle_alpha                90
_cell_angle_beta                 90
_cell_angle_gamma                120
_cell_volume                     6823.79
loop_
_atom_site_label
_atom_site_type_symbol
_atom_site_fract_x
_atom_site_fract_y
_atom_site_fract_z
Fe1 Fe 0.3333 -0.3333 0.6667
Fe2 Fe 0.6667 0.3333 0.8333
N1 N 0.4235(2) -0.1970(2) 0.69954(8)
N2 N 0.5185(2) 0.0270(2) 0.75375(8)
N3 N 0.4244(2) -0.0062(2) 0.74864(8)
N4 N 0.5349(2) 0.2178(2) 0.80117(7)
C1 C 0.4800(3) -0.1251(3) 0.71524(9)
C2 C 0.5631(3) -0.0299(3) 0.73382(11)
C3 C 0.3822(2) 0.0549(2) 0.76743(9)
C4 C 0.4694(3) 0.1480(2) 0.78624(9)
C5 C 0.6195(4) -0.0614(4) 0.76134(14)
H1 H 0.6738 0.0014 0.7734
H2 H 0.6518 -0.0970 0.7491
H3 H 0.5689 -0.1087 0.7791
C6 C 0.6372(3) 0.0474(4) 0.70500(14)
H4 H 0.6936 0.1094 0.7167
H5 H 0.5975 0.0684 0.6894
H6 H 0.6671 0.0131 0.6907
C7 C 0.3334(3) 0.0903(3) 0.73814(12)
H7 H 0.2761 0.0287 0.7265
H8 H 0.3868 0.1322 0.7203
H9 H 0.3062 0.1325 0.7489
C8 C 0.3013(3) -0.0182(3) 0.79520(13)
H10 H 0.2432 -0.0774 0.7829
H11 H 0.2747 0.0205 0.8087
H12 H 0.3347 -0.0444 0.8117
Fe2_2 Fe -0.3333 -0.6667 0.8333
Fe2_3 Fe 0.6667 -0.6667 0.8333
Fe2F Fe 0.0000 -1.0000 0.5000
Fe2F_2 Fe 0.0000 -0.0000 0.5000
Fe2F_3 Fe 1.0000 -0.0000 0.5000
N1A N 0.1970(2) -0.3795(3) 0.69954(8)
N1B N 0.3795(3) -0.4235(2) 0.69954(8)
N1O N 0.2432(2) -0.4697(2) 0.63379(8)
N1P N 0.4697(2) -0.2872(3) 0.63379(8)
N1Q N 0.2872(3) -0.2432(2) 0.63379(8)
N2A N -0.0270(2) -0.5085(3) 0.75375(8)
N2B N 0.5085(3) -0.5185(2) 0.75375(8)
N2O N 0.1482(2) -0.6937(2) 0.57958(8)
N2P N 0.6937(2) -0.1582(3) 0.57958(8)
N2Q N 0.1582(3) -0.1482(2) 0.57958(8)
N3A N 0.0062(2) -0.5694(3) 0.74864(8)
N3B N 0.5694(3) -0.4244(2) 0.74864(8)
N3O N 0.2423(2) -0.6605(2) 0.58469(8)
N3P N 0.6605(2) -0.0973(3) 0.58469(8)
N3Q N 0.0973(3) -0.2423(2) 0.58469(8)
N4A N -0.2178(2) -0.6829(3) 0.80117(7)
N4B N 0.6829(3) -0.5349(2) 0.80117(7)
N4O N 0.1318(2) -0.8845(2) 0.53216(7)
N4P N 0.8845(2) 0.0162(3) 0.53216(7)
N4Q N -0.0162(3) -0.1318(2) 0.53216(7)
N4A_2 N 0.7822(2) 0.3171(3) 0.80117(7)
N4B_2 N 0.6829(3) 0.4651(2) 0.80117(7)
N4L N 0.7984(2) 0.4489(2) 0.86550(7)
N4M N 0.5511(2) 0.3496(3) 0.86550(7)
N4N N 0.6504(3) 0.2016(2) 0.86550(7)
C1A C 0.1251(3) -0.3949(4) 0.71524(9)
C1B C 0.3949(4) -0.4800(3) 0.71524(9)
C1O C 0.1867(3) -0.5416(3) 0.61809(9)
C1P C 0.5416(3) -0.2718(4) 0.61809(9)
C1Q C 0.2718(4) -0.1867(3) 0.61809(9)
C2A C 0.0299(3) -0.4070(4) 0.73382(11)
C2B C 0.4070(4) -0.5631(3) 0.73382(11)
C2O C 0.1036(3) -0.6368(3) 0.59951(11)
C2P C 0.6368(3) -0.2597(4) 0.59951(11)
C2Q C 0.2597(4) -0.1036(3) 0.59951(11)
C3A C -0.0549(2) -0.6727(3) 0.76743(9)
C3B C 0.6727(3) -0.3822(2) 0.76743(9)
C3O C 0.2845(2) -0.7216(2) 0.56590(9)
C3P C 0.7216(2) 0.0060(3) 0.56590(9)
C3Q C -0.0060(3) -0.2845(2) 0.56590(9)
C4A C -0.1480(2) -0.6786(4) 0.78624(9)
C4B C 0.6786(4) -0.4694(3) 0.78624(9)
C4O C 0.1973(3) -0.8147(2) 0.54709(9)
C4P C 0.8147(2) 0.0119(4) 0.54709(9)
C4Q C -0.0119(4) -0.1973(3) 0.54709(9)
C5A C 0.0614(4) -0.3191(6) 0.76134(14)
C5B C 0.3191(6) -0.6195(4) 0.76134(14)
C5O C 0.0472(4) -0.6053(4) 0.57199(14)
C5P C 0.6053(4) -0.3476(6) 0.57199(14)
C5Q C 0.3476(6) -0.0472(4) 0.57199(14)
H1A H -0.0014 -0.3276 0.7734
H1B H 0.3276 -0.6738 0.7734
H1O H -0.0071 -0.6681 0.5599
H1P H 0.6681 -0.3391 0.5599
H1Q H 0.3391 0.0071 0.5599
H2A H 0.0970 -0.2512 0.7491
H2B H 0.2512 -0.6518 0.7491
H2O H 0.0149 -0.5697 0.5842
H2P H 0.5697 -0.4155 0.5842
H2Q H 0.4155 -0.0149 0.5842
H3A H 0.1087 -0.3224 0.7791
H3B H 0.3224 -0.5689 0.7791
H3O H 0.0978 -0.5580 0.5542
H3P H 0.5580 -0.3443 0.5542
H3Q H 0.3443 -0.0978 0.5542
C6A C -0.0474(4) -0.4102(5) 0.70500(14)
C6B C 0.4102(5) -0.6372(3) 0.70500(14)
C6O C 0.0295(3) -0.7141(4) 0.62833(14)
C6P C 0.7141(4) -0.2565(5) 0.62833(14)
C6Q C 0.2565(5) -0.0295(3) 0.62833(14)
H4A H -0.1094 -0.4158 0.7167
H4B H 0.4158 -0.6936 0.7167
H4O H -0.0269 -0.7761 0.6166
H4P H 0.7761 -0.2509 0.6166
H4Q H 0.2509 0.0269 0.6166
H5A H -0.0684 -0.4709 0.6894
H5B H 0.4709 -0.5975 0.6894
H5O H 0.0692 -0.7351 0.6439
H5P H 0.7351 -0.1958 0.6439
H5Q H 0.1958 -0.0692 0.6439
H6A H -0.0131 -0.3460 0.6907
H6B H 0.3460 -0.6671 0.6907
H6O H -0.0004 -0.6798 0.6426
H6P H 0.6798 -0.3207 0.6426
H6Q H 0.3207 0.0004 0.6426
C7A C -0.0903(3) -0.7569(4) 0.73814(12)
C7B C 0.7569(4) -0.3334(3) 0.73814(12)
C7O C 0.3333(3) -0.7570(3) 0.59519(12)
C7P C 0.7570(3) 0.0902(4) 0.59519(12)
C7Q C -0.0902(4) -0.3333(3) 0.59519(12)
H7A H -0.0287 -0.7526 0.7265
H7B H 0.7526 -0.2761 0.7265
H7O H 0.3906 -0.6954 0.6068
H7P H 0.6954 0.0859 0.6068
H7Q H -0.0859 -0.3906 0.6068
H8A H -0.1322 -0.7454 0.7203
H8B H 0.7454 -0.3868 0.7203
H8O H 0.2799 -0.7989 0.6130
H8P H 0.7989 0.0787 0.6130
H8Q H -0.0787 -0.2799 0.6130
H9A H -0.1325 -0.8263 0.7489
H9B H 0.8263 -0.3062 0.7489
H9O H 0.3605 -0.7992 0.5844
H9P H 0.7992 0.1596 0.5844
H9Q H -0.1596 -0.3605 0.5844
C8A C 0.0182(3) -0.6805(4) 0.79520(13)
C8B C 0.6805(4) -0.3013(3) 0.79520(13)
C8O C 0.3654(3) -0.6485(3) 0.53813(13)
C8P C 0.6485(3) 0.0138(4) 0.53813(13)
C8Q C -0.0138(4) -0.3654(3) 0.53813(13)
H10A H 0.0774 -0.6794 0.7829
H10B H 0.6794 -0.2432 0.7829
H10O H 0.4235 -0.5893 0.5504
H10P H 0.5893 0.0127 0.5504
H10Q H -0.0127 -0.4235 0.5504
H11A H -0.0205 -0.7458 0.8087
H11B H 0.7458 -0.2747 0.8087
H11O H 0.3920 -0.6872 0.5246
H11P H 0.6872 0.0791 0.5246
H11Q H -0.0791 -0.3920 0.5246
H12A H 0.0444 -0.6209 0.8117
H12B H 0.6209 -0.3347 0.8117
H12O H 0.3320 -0.6223 0.5216
H12P H 0.6223 -0.0458 0.5216
H12Q H 0.0458 -0.3320 0.5216
Fe3 Fe 0.6667 0.3333 1.00790(3)
Cl1 Cl 0.79896(15) 0.48157(13) 1.02631(6)
Cl2 Cl 0.6667 0.3333 0.94919(6)
Cl1A Cl 0.51843(13) 0.31739(20) 1.02631(6)
Cl1B Cl 0.68261(20) 0.20104(15) 1.02631(6)
Fe4 Fe 1.0000 0.0000 0.82343(2)
Cl3 Cl 1.0000 0.0000 0.88138(8)
Cl4 Cl 0.86370(11) 0.00710(13) 0.80493(6)
Cl4A Cl 0.99290(13) -0.14340(17) 0.80493(6)
Cl4B Cl 1.14340(17) 0.13630(11) 0.80493(6)
loop_
_geom_bond_atom_site_label_1
_geom_bond_atom_site_label_2
_geom_bond_site_symmetry_1
_geom_bond_site_symmetry_2
Fe1 N1 1_555 1_555
Fe2 N4 1_555 1_555
Fe3 Cl1 1_555 1_555
Fe4 Cl3 1_555 1_555
Cl2 Fe3 1_555 1_555
Cl4 Fe4 1_555 1_555
N1 C1 1_555 1_555
N2 N3 1_555 1_555
N3 C3 1_555 1_555
N4 C4 1_555 1_555
C1 C2 1_555 1_555
C2 N2 1_555 1_555
C3 C4 1_555 1_555
C5 C2 1_555 1_555
H1 C5 1_555 1_555
H2 C5 1_555 1_555
H3 C5 1_555 1_555
C6 C2 1_555 1_555
H4 C6 1_555 1_555
H5 C6 1_555 1_555
H6 C6 1_555 1_555
C7 C3 1_555 1_555
H7 C7 1_555 1_555
H8 C7 1_555 1_555
H9 C7 1_555 1_555
C8 C3 1_555 1_555
H10 C8 1_555 1_555
H11 C8 1_555 1_555
H12 C8 1_555 1_555
Fe2_2 N4A 1_555 1_555
Fe2_3 N4B 1_555 1_555
Fe2F N4O 1_555 1_555
Fe2F_2 N4Q 1_555 1_555
Fe2F_3 N4P 1_555 1_555
Cl1A Fe3 1_555 1_555
Cl1B Fe3 1_555 1_555
Cl4A Fe4 1_555 1_555
Cl4B Fe4 1_555 1_555
N1A Fe1 1_555 1_555
N1B Fe1 1_555 1_555
N1O Fe1 1_555 1_555
N1P Fe1 1_555 1_555
N1Q Fe1 1_555 1_555
N2A N3A 1_555 1_555
N2B N3B 1_555 1_555
N2O N3O 1_555 1_555
N2P N3P 1_555 1_555
N2Q N3Q 1_555 1_555
N3A C3A 1_555 1_555
N3B C3B 1_555 1_555
N3O C3O 1_555 1_555
N3P C3P 1_555 1_555
N3Q C3Q 1_555 1_555
N4A C4A 1_555 1_555
N4B C4B 1_555 1_555
N4O C4O 1_555 1_555
N4P C4P 1_555 1_555
N4Q C4Q 1_555 1_555
N4A_2 Fe2 1_555 1_555
N4B_2 Fe2 1_555 1_555
N4L Fe2 1_555 1_555
N4M Fe2 1_555 1_555
N4N Fe2 1_555 1_555
C1A N1A 1_555 1_555
C1B N1B 1_555 1_555
C1O N1O 1_555 1_555
C1P N1P 1_555 1_555
C1Q N1Q 1_555 1_555
C2A N2A 1_555 1_555
C2B N2B 1_555 1_555
C2O N2O 1_555 1_555
C2P N2P 1_555 1_555
C2Q N2Q 1_555 1_555
C3A C4A 1_555 1_555
C3B C4B 1_555 1_555
C3O C4O 1_555 1_555
C3P C4P 1_555 1_555
C3Q C4Q 1_555 1_555
C5A C2A 1_555 1_555
C5B C2B 1_555 1_555
C5O C2O 1_555 1_555
C5P C2P 1_555 1_555
C5Q C2Q 1_555 1_555
H1A C5A 1_555 1_555
H1B C5B 1_555 1_555
H1O C5O 1_555 1_555
H1P C5P 1_555 1_555
H1Q C5Q 1_555 1_555
H2A C5A 1_555 1_555
H2B C5B 1_555 1_555
H2O C5O 1_555 1_555
H2P C5P 1_555 1_555
H2Q C5Q 1_555 1_555
H3A C5A 1_555 1_555
H3B C5B 1_555 1_555
H3O C5O 1_555 1_555
H3P C5P 1_555 1_555
H3Q C5Q 1_555 1_555
C6A C2A 1_555 1_555
C6B C2B 1_555 1_555
C6O C2O 1_555 1_555
C6P C2P 1_555 1_555
C6Q C2Q 1_555 1_555
H4A C6A 1_555 1_555
H4B C6B 1_555 1_555
H4O C6O 1_555 1_555
H4P C6P 1_555 1_555
H4Q C6Q 1_555 1_555
H5A C6A 1_555 1_555
H5B C6B 1_555 1_555
H5O C6O 1_555 1_555
H5P C6P 1_555 1_555
H5Q C6Q 1_555 1_555
H6A C6A 1_555 1_555
H6B C6B 1_555 1_555
H6O C6O 1_555 1_555
H6P C6P 1_555 1_555
H6Q C6Q 1_555 1_555
C7A C3A 1_555 1_555
C7B C3B 1_555 1_555
C7O C3O 1_555 1_555
C7P C3P 1_555 1_555
C7Q C3Q 1_555 1_555
H7A C7A 1_555 1_555
H7B C7B 1_555 1_555
H7O C7O 1_555 1_555
H7P C7P 1_555 1_555
H7Q C7Q 1_555 1_555
H8A C7A 1_555 1_555
H8B C7B 1_555 1_555
H8O C7O 1_555 1_555
H8P C7P 1_555 1_555
H8Q C7Q 1_555 1_555
H9A C7A 1_555 1_555
H9B C7B 1_555 1_555
H9O C7O 1_555 1_555
H9P C7P 1_555 1_555
H9Q C7Q 1_555 1_555
C8A C3A 1_555 1_555
C8B C3B 1_555 1_555
C8O C3O 1_555 1_555
C8P C3P 1_555 1_555
C8Q C3Q 1_555 1_555
H10A C8A 1_555 1_555
H10B C8B 1_555 1_555
H10O C8O 1_555 1_555
H10P C8P 1_555 1_555
H10Q C8Q 1_555 1_555
H11A C8A 1_555 1_555
H11B C8B 1_555 1_555
H11O C8O 1_555 1_555
H11P C8P 1_555 1_555
H11Q C8Q 1_555 1_555
H12A C8A 1_555 1_555
H12B C8B 1_555 1_555
H12O C8O 1_555 1_555
H12P C8P 1_555 1_555
H12Q C8Q 1_555 1_555
C1A C2A 1_555 1_555
C1B C2B 1_555 1_555
C1O C2O 1_555 1_555
C1P C2P 1_555 1_555
C1Q C2Q 1_555 1_555

#END
