
#######################################################################
#
#                 Cambridge Crystallographic Data Centre
#                                CCDC 
#
#######################################################################
#
# If this CIF has been generated from an entry in the Cambridge 
# Structural Database, then it will include bibliographic, chemical, 
# crystal, experimental, refinement or atomic coordinate data resulting 
# from the CCDC's data processing and validation procedures.
#
#######################################################################

data_MAGCOO
_symmetry_cell_setting           monoclinic
_symmetry_space_group_name_H-M   'P 21/n'
_symmetry_Int_Tables_number      14
_space_group_name_Hall           '-P 2yn'
loop_
_symmetry_equiv_pos_site_id
_symmetry_equiv_pos_as_xyz
1 x,y,z
2 1/2-x,1/2+y,1/2-z
3 -x,-y,-z
4 1/2+x,1/2-y,1/2+z
_cell_length_a                   9.3413(2)
_cell_length_b                   12.9995(3)
_cell_length_c                   14.4027(4)
_cell_angle_alpha                90
_cell_angle_beta                 97.4790(10)
_cell_angle_gamma                90
_cell_volume                     1734.07
loop_
_atom_site_label
_atom_site_type_symbol
_atom_site_fract_x
_atom_site_fract_y
_atom_site_fract_z
Fe1 Fe 0.0000 0.0000 0.5000
O1 O 0.10319(16) -0.04462(11) 0.38661(9)
N1 N 0.17761(15) 0.09870(10) 0.54938(9)
N2 N 0.37291(15) 0.24981(10) 0.71724(10)
N3 N 0.30789(15) 0.18147(10) 0.75329(9)
N4 N 0.40891(15) 0.36595(10) 0.92412(9)
C1 C 0.25819(17) 0.15995(12) 0.57773(11)
C2 C 0.36402(18) 0.24083(12) 0.61326(11)
C3 C 0.32346(18) 0.18528(11) 0.85742(11)
C4 C 0.37339(18) 0.28827(12) 0.89324(11)
C5 C 0.51377(19) 0.21112(15) 0.59067(13)
H1 H 0.5834 0.2644 0.6142
H2 H 0.5115 0.2046 0.5227
H3 H 0.5425 0.1453 0.6206
C6 C 0.3154(2) 0.34555(13) 0.57240(13)
H4 H 0.3859 0.3981 0.5964
H5 H 0.2208 0.3628 0.5907
H6 H 0.3084 0.3429 0.5040
C7 C 0.1759(2) 0.16156(14) 0.88687(13)
H7 H 0.1436 0.0937 0.8631
H8 H 0.1063 0.2138 0.8610
H9 H 0.1830 0.1620 0.9554
C8 C 0.43570(19) 0.10339(12) 0.89218(12)
H10 H 0.4019 0.0358 0.8685
H11 H 0.4495 0.1024 0.9608
H12 H 0.5276 0.1196 0.8695
H13 H 0.118(2) -0.0082(14) 0.3434(12)
H14 H 0.098(2) -0.1048(12) 0.3701(14)
Fe1A Fe -0.5000 -0.5000 0.0000
Fe1A_2 Fe 0.5000 0.5000 1.0000
O1B O -0.10319(16) 0.04462(11) 0.61339(9)
N1B N -0.17761(15) -0.09870(10) 0.45062(9)
N2B N -0.37291(15) -0.24981(10) 0.28276(10)
N3B N -0.30789(15) -0.18147(10) 0.24671(9)
N4B N -0.40891(15) -0.36595(10) 0.07588(9)
N4A N 0.09109(15) -0.13405(10) 0.57588(9)
N4C N -0.09109(15) 0.13405(10) 0.42412(9)
C1B C -0.25819(17) -0.15995(12) 0.42227(11)
C2B C -0.36402(18) -0.24083(12) 0.38674(11)
C3B C -0.32346(18) -0.18528(11) 0.14258(11)
C4B C -0.37339(18) -0.28827(12) 0.10676(11)
C5B C -0.51377(19) -0.21112(15) 0.40933(13)
H1B H -0.5834 -0.2644 0.3858
H2B H -0.5115 -0.2046 0.4773
H3B H -0.5425 -0.1453 0.3794
C6B C -0.3154(2) -0.34555(13) 0.42760(13)
H4B H -0.3859 -0.3981 0.4036
H5B H -0.2208 -0.3628 0.4093
H6B H -0.3084 -0.3429 0.4960
C7B C -0.1759(2) -0.16156(14) 0.11313(13)
H7B H -0.1436 -0.0937 0.1369
H8B H -0.1063 -0.2138 0.1390
H9B H -0.1830 -0.1620 0.0446
C8B C -0.43570(19) -0.10339(12) 0.10782(12)
H10B H -0.4019 -0.0358 0.1315
H11B H -0.4495 -0.1024 0.0392
H12B H -0.5276 -0.1196 0.1305
H13B H -0.118(2) 0.0082(14) 0.6566(12)
H14B H -0.098(2) 0.1048(12) 0.6299(14)
Fe2 Fe 0.14282(2) -0.373072(17) 0.253816(16)
Cl1 Cl 0.06472(6) -0.28625(4) 0.36856(3)
Cl2 Cl 0.25056(6) -0.27029(4) 0.16660(4)
Cl3 Cl -0.04170(6) -0.44244(4) 0.17014(4)
Cl4 Cl 0.30007(5) -0.48702(4) 0.31705(3)
loop_
_geom_bond_atom_site_label_1
_geom_bond_atom_site_label_2
_geom_bond_site_symmetry_1
_geom_bond_site_symmetry_2
Fe1 O1 1_555 1_555
Fe2 Cl1 1_555 1_555
Cl2 Fe2 1_555 1_555
Cl3 Fe2 1_555 1_555
Cl4 Fe2 1_555 1_555
O1 H13 1_555 1_555
N1 Fe1 1_555 1_555
N2 N3 1_555 1_555
N3 C3 1_555 1_555
N4 C4 1_555 1_555
C1 N1 1_555 1_555
C2 N2 1_555 1_555
C3 C4 1_555 1_555
C5 C2 1_555 1_555
H1 C5 1_555 1_555
H2 C5 1_555 1_555
H3 C5 1_555 1_555
C6 C2 1_555 1_555
H4 C6 1_555 1_555
H5 C6 1_555 1_555
H6 C6 1_555 1_555
C7 C3 1_555 1_555
H7 C7 1_555 1_555
H8 C7 1_555 1_555
H9 C7 1_555 1_555
C8 C3 1_555 1_555
H10 C8 1_555 1_555
H11 C8 1_555 1_555
H12 C8 1_555 1_555
H14 O1 1_555 1_555
Fe1A N4B 1_555 1_555
Fe1A_2 N4 1_555 1_555
O1B Fe1 1_555 1_555
N1B Fe1 1_555 1_555
N2B N3B 1_555 1_555
N3B C3B 1_555 1_555
N4B C4B 1_555 1_555
N4A Fe1 1_555 1_555
N4C Fe1 1_555 1_555
C1B N1B 1_555 1_555
C2B N2B 1_555 1_555
C3B C4B 1_555 1_555
C5B C2B 1_555 1_555
H1B C5B 1_555 1_555
H2B C5B 1_555 1_555
H3B C5B 1_555 1_555
C6B C2B 1_555 1_555
H4B C6B 1_555 1_555
H5B C6B 1_555 1_555
H6B C6B 1_555 1_555
C7B C3B 1_555 1_555
H7B C7B 1_555 1_555
H8B C7B 1_555 1_555
H9B C7B 1_555 1_555
C8B C3B 1_555 1_555
H10B C8B 1_555 1_555
H11B C8B 1_555 1_555
H12B C8B 1_555 1_555
H13B O1B 1_555 1_555
H14B O1B 1_555 1_555
C1 C2 1_555 1_555
C1B C2B 1_555 1_555

#END
