
#######################################################################
#
#                 Cambridge Crystallographic Data Centre
#                                CCDC 
#
#######################################################################
#
# If this CIF has been generated from an entry in the Cambridge 
# Structural Database, then it will include bibliographic, chemical, 
# crystal, experimental, refinement or atomic coordinate data resulting 
# from the CCDC's data processing and validation procedures.
#
#######################################################################

data_MAGCEE
_symmetry_cell_setting           rhombohedral
_symmetry_space_group_name_H-M   'R -3'
_symmetry_Int_Tables_number      148
_space_group_name_Hall           '-R 3'
loop_
_symmetry_equiv_pos_site_id
_symmetry_equiv_pos_as_xyz
1 x,y,z
2 -y,x-y,z
3 -x+y,-x,z
4 2/3+x,1/3+y,1/3+z
5 2/3-y,1/3+x-y,1/3+z
6 2/3-x+y,1/3-x,1/3+z
7 1/3+x,2/3+y,2/3+z
8 1/3-y,2/3+x-y,2/3+z
9 1/3-x+y,2/3-x,2/3+z
10 -x,-y,-z
11 y,-x+y,-z
12 x-y,x,-z
13 1/3-x,2/3-y,2/3-z
14 1/3+y,2/3-x+y,2/3-z
15 1/3+x-y,2/3+x,2/3-z
16 2/3-x,1/3-y,1/3-z
17 2/3+y,1/3-x+y,1/3-z
18 2/3+x-y,1/3+x,1/3-z
_cell_length_a                   14.4521(2)
_cell_length_b                   14.4521(2)
_cell_length_c                   36.3458(11)
_cell_angle_alpha                90
_cell_angle_beta                 90
_cell_angle_gamma                120
_cell_volume                     6574.26
loop_
_atom_site_label
_atom_site_type_symbol
_atom_site_fract_x
_atom_site_fract_y
_atom_site_fract_z
Fe1 Fe 0.3333 -0.3333 0.6667
Fe2 Fe 0.6667 0.3333 0.8333
N1 N 0.41835(15) -0.20807(15) 0.69707(5)
N2 N 0.51274(15) 0.02164(15) 0.75241(5)
N3 N 0.41758(15) -0.01068(15) 0.74687(5)
N4 N 0.53323(15) 0.21647(15) 0.80054(5)
C1 C 0.47359(18) -0.13359(18) 0.71331(6)
C2 C 0.55702(18) -0.03668(18) 0.73222(7)
C3 C 0.37736(18) 0.05334(18) 0.76617(7)
C4 C 0.46623(18) 0.14623(18) 0.78536(6)
C5 C 0.6151(2) -0.0681(2) 0.76036(8)
H1 H 0.6706 -0.0039 0.7726
H2 H 0.6481 -0.1044 0.7478
H3 H 0.5639 -0.1163 0.7787
C6 C 0.6319(2) 0.0408(2) 0.70286(8)
H4 H 0.6896 0.1042 0.7148
H5 H 0.5915 0.0622 0.6867
H6 H 0.6623 0.0056 0.6882
C7 C 0.3293(2) 0.0912(2) 0.73631(8)
H7 H 0.2704 0.0290 0.7242
H8 H 0.3843 0.1340 0.7181
H9 H 0.3022 0.1347 0.7475
C8 C 0.2941(2) -0.0194(2) 0.79423(8)
H10 H 0.2349 -0.0796 0.7815
H11 H 0.2671 0.0211 0.8076
H12 H 0.3269 -0.0464 0.8116
Fe2_2 Fe -0.3333 -0.6667 0.8333
Fe2_3 Fe 0.6667 -0.6667 0.8333
Fe2F Fe 0.0000 -1.0000 0.5000
Fe2F_2 Fe 0.0000 -0.0000 0.5000
Fe2F_3 Fe 1.0000 -0.0000 0.5000
N1A N 0.20807(15) -0.37358(21) 0.69707(5)
N1B N 0.37358(21) -0.41835(15) 0.69707(5)
N1O N 0.24832(15) -0.45860(15) 0.63626(5)
N1P N 0.45860(15) -0.29309(21) 0.63626(5)
N1Q N 0.29309(21) -0.24832(15) 0.63626(5)
N2A N -0.02164(15) -0.50890(21) 0.75241(5)
N2B N 0.50890(21) -0.51274(15) 0.75241(5)
N2O N 0.15393(15) -0.68831(15) 0.58092(5)
N2P N 0.68831(15) -0.15777(21) 0.58092(5)
N2Q N 0.15777(21) -0.15393(15) 0.58092(5)
N3A N 0.01068(15) -0.57174(21) 0.74687(5)
N3B N 0.57174(21) -0.41758(15) 0.74687(5)
N3O N 0.24909(15) -0.65599(15) 0.58646(5)
N3P N 0.65599(15) -0.09493(21) 0.58646(5)
N3Q N 0.09493(21) -0.24909(15) 0.58646(5)
N4A N -0.21647(15) -0.68324(21) 0.80054(5)
N4B N 0.68324(21) -0.53323(15) 0.80054(5)
N4O N 0.13344(15) -0.88314(15) 0.53279(5)
N4P N 0.88314(15) 0.01657(21) 0.53279(5)
N4Q N -0.01657(21) -0.13344(15) 0.53279(5)
N4A_2 N 0.78353(15) 0.31676(21) 0.80054(5)
N4B_2 N 0.68324(21) 0.46677(15) 0.80054(5)
N4L N 0.80010(15) 0.45020(15) 0.86613(5)
N4M N 0.54980(15) 0.34991(21) 0.86613(5)
N4N N 0.65009(21) 0.19990(15) 0.86613(5)
C1A C 0.13359(18) -0.39282(25) 0.71331(6)
C1B C 0.39282(25) -0.47359(18) 0.71331(6)
C1O C 0.19308(18) -0.53308(18) 0.62002(6)
C1P C 0.53308(18) -0.27385(25) 0.62002(6)
C1Q C 0.27385(25) -0.19308(18) 0.62002(6)
C2A C 0.03668(18) -0.40630(25) 0.73222(7)
C2B C 0.40630(25) -0.55702(18) 0.73222(7)
C2O C 0.10965(18) -0.62999(18) 0.60111(7)
C2P C 0.62999(18) -0.26037(25) 0.60111(7)
C2Q C 0.26037(25) -0.10965(18) 0.60111(7)
C3A C -0.05334(18) -0.67598(25) 0.76617(7)
C3B C 0.67598(25) -0.37736(18) 0.76617(7)
C3O C 0.28931(18) -0.72001(18) 0.56716(7)
C3P C 0.72001(18) 0.00931(25) 0.56716(7)
C3Q C -0.00931(25) -0.28931(18) 0.56716(7)
C4A C -0.14623(18) -0.68000(25) 0.78536(6)
C4B C 0.68000(25) -0.46623(18) 0.78536(6)
C4O C 0.20044(18) -0.81290(18) 0.54797(6)
C4P C 0.81290(18) 0.01333(25) 0.54797(6)
C4Q C -0.01333(25) -0.20044(18) 0.54797(6)
C5A C 0.0681(2) -0.3168(3) 0.76036(8)
C5B C 0.3168(3) -0.6151(2) 0.76036(8)
C5O C 0.0516(2) -0.5986(2) 0.57297(8)
C5P C 0.5986(2) -0.3499(3) 0.57297(8)
C5Q C 0.3499(3) -0.0516(2) 0.57297(8)
H1A H 0.0039 -0.3255 0.7726
H1B H 0.3255 -0.6706 0.7726
H1O H -0.0039 -0.6628 0.5607
H1P H 0.6628 -0.3412 0.5607
H1Q H 0.3412 0.0039 0.5607
H2A H 0.1044 -0.2475 0.7478
H2B H 0.2475 -0.6481 0.7478
H2O H 0.0186 -0.5623 0.5855
H2P H 0.5623 -0.4192 0.5855
H2Q H 0.4192 -0.0186 0.5855
H3A H 0.1163 -0.3198 0.7787
H3B H 0.3198 -0.5639 0.7787
H3O H 0.1028 -0.5504 0.5546
H3P H 0.5504 -0.3469 0.5546
H3Q H 0.3469 -0.1028 0.5546
C6A C -0.0408(2) -0.4089(3) 0.70286(8)
C6B C 0.4089(3) -0.6319(2) 0.70286(8)
C6O C 0.0348(2) -0.7075(2) 0.63047(8)
C6P C 0.7075(2) -0.2578(3) 0.63047(8)
C6Q C 0.2578(3) -0.0348(2) 0.63047(8)
H4A H -0.1042 -0.4146 0.7148
H4B H 0.4146 -0.6896 0.7148
H4O H -0.0229 -0.7709 0.6185
H4P H 0.7709 -0.2521 0.6185
H4Q H 0.2521 0.0229 0.6185
H5A H -0.0622 -0.4707 0.6867
H5B H 0.4707 -0.5915 0.6867
H5O H 0.0752 -0.7289 0.6466
H5P H 0.7289 -0.1960 0.6466
H5Q H 0.1960 -0.0752 0.6466
H6A H -0.0056 -0.3433 0.6882
H6B H 0.3433 -0.6623 0.6882
H6O H 0.0044 -0.6723 0.6451
H6P H 0.6723 -0.3234 0.6451
H6Q H 0.3234 -0.0044 0.6451
C7A C -0.0912(2) -0.7619(3) 0.73631(8)
C7B C 0.7619(3) -0.3293(2) 0.73631(8)
C7O C 0.3374(2) -0.7579(2) 0.59702(8)
C7P C 0.7579(2) 0.0952(3) 0.59702(8)
C7Q C -0.0952(3) -0.3374(2) 0.59702(8)
H7A H -0.0290 -0.7586 0.7242
H7B H 0.7586 -0.2704 0.7242
H7O H 0.3963 -0.6957 0.6091
H7P H 0.6957 0.0919 0.6091
H7Q H -0.0919 -0.3963 0.6091
H8A H -0.1340 -0.7497 0.7181
H8B H 0.7497 -0.3843 0.7181
H8O H 0.2824 -0.8007 0.6152
H8P H 0.8007 0.0830 0.6152
H8Q H -0.0830 -0.2824 0.6152
H9A H -0.1347 -0.8325 0.7475
H9B H 0.8325 -0.3022 0.7475
H9O H 0.3645 -0.8014 0.5858
H9P H 0.8014 0.1658 0.5858
H9Q H -0.1658 -0.3645 0.5858
C8A C 0.0194(2) -0.6865(3) 0.79423(8)
C8B C 0.6865(3) -0.2941(2) 0.79423(8)
C8O C 0.3726(2) -0.6473(2) 0.53910(8)
C8P C 0.6473(2) 0.0198(3) 0.53910(8)
C8Q C -0.0198(3) -0.3726(2) 0.53910(8)
H10A H 0.0796 -0.6855 0.7815
H10B H 0.6855 -0.2349 0.7815
H10O H 0.4318 -0.5871 0.5518
H10P H 0.5871 0.0188 0.5518
H10Q H -0.0188 -0.4318 0.5518
H11A H -0.0211 -0.7540 0.8076
H11B H 0.7540 -0.2671 0.8076
H11O H 0.3996 -0.6878 0.5257
H11P H 0.6878 0.0873 0.5257
H11Q H -0.0873 -0.3996 0.5257
H12A H 0.0464 -0.6267 0.8116
H12B H 0.6267 -0.3269 0.8116
H12O H 0.3398 -0.6203 0.5217
H12P H 0.6203 -0.0400 0.5217
H12Q H 0.0400 -0.3398 0.5217
Fe3 Fe 0.6667 0.3333 1.009797(17)
Cl1 Cl 0.79702(7) 0.48645(6) 1.02917(3)
Cl2 Cl 0.6667 0.3333 0.94983(4)
Cl1A Cl 0.51355(6) 0.31057(9) 1.02917(3)
Cl1B Cl 0.68943(9) 0.20298(7) 1.02917(3)
Fe4 Fe 1.0000 0.0000 0.823896(16)
Cl3 Cl 1.0000 0.0000 0.88380(4)
Cl4 Cl 0.86164(6) 0.00853(6) 0.80512(3)
Cl4A Cl 0.99147(6) -0.14689(8) 0.80512(3)
Cl4B Cl 1.14689(8) 0.13836(6) 0.80512(3)
loop_
_geom_bond_atom_site_label_1
_geom_bond_atom_site_label_2
_geom_bond_site_symmetry_1
_geom_bond_site_symmetry_2
Fe1 N1 1_555 1_555
Fe2 N4 1_555 1_555
Fe3 Cl1 1_555 1_555
Fe4 Cl3 1_555 1_555
Cl2 Fe3 1_555 1_555
Cl4 Fe4 1_555 1_555
N1 C1 1_555 1_555
N2 N3 1_555 1_555
N3 C3 1_555 1_555
N4 C4 1_555 1_555
C1 C2 1_555 1_555
C2 N2 1_555 1_555
C3 C4 1_555 1_555
C5 C2 1_555 1_555
H1 C5 1_555 1_555
H2 C5 1_555 1_555
H3 C5 1_555 1_555
C6 C2 1_555 1_555
H4 C6 1_555 1_555
H5 C6 1_555 1_555
H6 C6 1_555 1_555
C7 C3 1_555 1_555
H7 C7 1_555 1_555
H8 C7 1_555 1_555
H9 C7 1_555 1_555
C8 C3 1_555 1_555
H10 C8 1_555 1_555
H11 C8 1_555 1_555
H12 C8 1_555 1_555
Fe2_2 N4A 1_555 1_555
Fe2_3 N4B 1_555 1_555
Fe2F N4O 1_555 1_555
Fe2F_2 N4Q 1_555 1_555
Fe2F_3 N4P 1_555 1_555
Cl1A Fe3 1_555 1_555
Cl1B Fe3 1_555 1_555
Cl4A Fe4 1_555 1_555
Cl4B Fe4 1_555 1_555
N1A Fe1 1_555 1_555
N1B Fe1 1_555 1_555
N1O Fe1 1_555 1_555
N1P Fe1 1_555 1_555
N1Q Fe1 1_555 1_555
N2A N3A 1_555 1_555
N2B N3B 1_555 1_555
N2O N3O 1_555 1_555
N2P N3P 1_555 1_555
N2Q N3Q 1_555 1_555
N3A C3A 1_555 1_555
N3B C3B 1_555 1_555
N3O C3O 1_555 1_555
N3P C3P 1_555 1_555
N3Q C3Q 1_555 1_555
N4A C4A 1_555 1_555
N4B C4B 1_555 1_555
N4O C4O 1_555 1_555
N4P C4P 1_555 1_555
N4Q C4Q 1_555 1_555
N4A_2 Fe2 1_555 1_555
N4B_2 Fe2 1_555 1_555
N4L Fe2 1_555 1_555
N4M Fe2 1_555 1_555
N4N Fe2 1_555 1_555
C1A N1A 1_555 1_555
C1B N1B 1_555 1_555
C1O N1O 1_555 1_555
C1P N1P 1_555 1_555
C1Q N1Q 1_555 1_555
C2A N2A 1_555 1_555
C2B N2B 1_555 1_555
C2O N2O 1_555 1_555
C2P N2P 1_555 1_555
C2Q N2Q 1_555 1_555
C3A C4A 1_555 1_555
C3B C4B 1_555 1_555
C3O C4O 1_555 1_555
C3P C4P 1_555 1_555
C3Q C4Q 1_555 1_555
C5A C2A 1_555 1_555
C5B C2B 1_555 1_555
C5O C2O 1_555 1_555
C5P C2P 1_555 1_555
C5Q C2Q 1_555 1_555
H1A C5A 1_555 1_555
H1B C5B 1_555 1_555
H1O C5O 1_555 1_555
H1P C5P 1_555 1_555
H1Q C5Q 1_555 1_555
H2A C5A 1_555 1_555
H2B C5B 1_555 1_555
H2O C5O 1_555 1_555
H2P C5P 1_555 1_555
H2Q C5Q 1_555 1_555
H3A C5A 1_555 1_555
H3B C5B 1_555 1_555
H3O C5O 1_555 1_555
H3P C5P 1_555 1_555
H3Q C5Q 1_555 1_555
C6A C2A 1_555 1_555
C6B C2B 1_555 1_555
C6O C2O 1_555 1_555
C6P C2P 1_555 1_555
C6Q C2Q 1_555 1_555
H4A C6A 1_555 1_555
H4B C6B 1_555 1_555
H4O C6O 1_555 1_555
H4P C6P 1_555 1_555
H4Q C6Q 1_555 1_555
H5A C6A 1_555 1_555
H5B C6B 1_555 1_555
H5O C6O 1_555 1_555
H5P C6P 1_555 1_555
H5Q C6Q 1_555 1_555
H6A C6A 1_555 1_555
H6B C6B 1_555 1_555
H6O C6O 1_555 1_555
H6P C6P 1_555 1_555
H6Q C6Q 1_555 1_555
C7A C3A 1_555 1_555
C7B C3B 1_555 1_555
C7O C3O 1_555 1_555
C7P C3P 1_555 1_555
C7Q C3Q 1_555 1_555
H7A C7A 1_555 1_555
H7B C7B 1_555 1_555
H7O C7O 1_555 1_555
H7P C7P 1_555 1_555
H7Q C7Q 1_555 1_555
H8A C7A 1_555 1_555
H8B C7B 1_555 1_555
H8O C7O 1_555 1_555
H8P C7P 1_555 1_555
H8Q C7Q 1_555 1_555
H9A C7A 1_555 1_555
H9B C7B 1_555 1_555
H9O C7O 1_555 1_555
H9P C7P 1_555 1_555
H9Q C7Q 1_555 1_555
C8A C3A 1_555 1_555
C8B C3B 1_555 1_555
C8O C3O 1_555 1_555
C8P C3P 1_555 1_555
C8Q C3Q 1_555 1_555
H10A C8A 1_555 1_555
H10B C8B 1_555 1_555
H10O C8O 1_555 1_555
H10P C8P 1_555 1_555
H10Q C8Q 1_555 1_555
H11A C8A 1_555 1_555
H11B C8B 1_555 1_555
H11O C8O 1_555 1_555
H11P C8P 1_555 1_555
H11Q C8Q 1_555 1_555
H12A C8A 1_555 1_555
H12B C8B 1_555 1_555
H12O C8O 1_555 1_555
H12P C8P 1_555 1_555
H12Q C8Q 1_555 1_555
C1A C2A 1_555 1_555
C1B C2B 1_555 1_555
C1O C2O 1_555 1_555
C1P C2P 1_555 1_555
C1Q C2Q 1_555 1_555

#END
