
#######################################################################
#
#                 Cambridge Crystallographic Data Centre
#                                CCDC 
#
#######################################################################
#
# If this CIF has been generated from an entry in the Cambridge 
# Structural Database, then it will include bibliographic, chemical, 
# crystal, experimental, refinement or atomic coordinate data resulting 
# from the CCDC's data processing and validation procedures.
#
#######################################################################

data_MAGKIP
_symmetry_cell_setting           orthorhombic
_symmetry_space_group_name_H-M   'P b c a'
_symmetry_Int_Tables_number      61
_space_group_name_Hall           '-P 2ac 2ab'
loop_
_symmetry_equiv_pos_site_id
_symmetry_equiv_pos_as_xyz
1 x,y,z
2 1/2-x,-y,1/2+z
3 1/2+x,1/2-y,-z
4 -x,1/2+y,1/2-z
5 -x,-y,-z
6 1/2+x,y,1/2-z
7 1/2-x,1/2+y,z
8 x,1/2-y,1/2+z
_cell_length_a                   8.0363(2)
_cell_length_b                   15.1972(2)
_cell_length_c                   19.0720(5)
_cell_angle_alpha                90
_cell_angle_beta                 90
_cell_angle_gamma                90
_cell_volume                     2329.25
loop_
_atom_site_label
_atom_site_type_symbol
_atom_site_fract_x
_atom_site_fract_y
_atom_site_fract_z
Cd1 Cd 0.1643(1) 0.1462(1) 0.2824(1)
Cd2 Cd 0.5090(1) 0.5678(1) 0.0852(1)
O1 O 0.3618(5) 0.4537(3) 0.0198(3)
O2 O 0.2597(7) 0.3202(3) 0.0012(3)
O3 O 0.1328(6) 0.2661(3) 0.2196(3)
O4 O -0.0619(7) 0.1969(3) 0.1551(3)
O5 O -0.3239(6) 0.4052(3) 0.1093(3)
O6 O -0.2489(6) 0.5393(3) 0.1408(3)
O7 O 0.1069(6) 0.5927(3) 0.2144(3)
O8 O 0.3453(5) 0.5385(3) 0.1807(3)
O9 O 0.0777(7) 0.2269(3) 0.3793(3)
O10 O 0.2978(6) 0.6458(3) 0.0323(3)
C1 C 0.1891(9) 0.3935(4) 0.1077(4)
C2 C 0.0258(7) 0.3411(4) 0.1203(4)
C3 C -0.0487(9) 0.4264(4) 0.1559(4)
C4 C 0.1007(8) 0.4809(4) 0.1261(3)
C5 C 0.2752(8) 0.3870(4) 0.0381(4)
C6 C 0.0342(8) 0.2616(4) 0.1682(4)
C7 C -0.2187(8) 0.4561(4) 0.1337(4)
H1 H 0.2560(90) 0.3820(40) 0.1330(40)
H2 H -0.039(10) 0.3300(50) 0.0690(40)
H3 H -0.0470(80) 0.4160(40) 0.1990(40)
H4 H 0.072(14) 0.5170(70) 0.0750(60)
C8 C 0.1888(8) 0.5414(4) 0.1764(4)
O4E O 0.4381(7) 0.1969(3) 0.3449(3)
O6C O 0.2489(6) 0.0393(3) 0.3592(3)
O7C O -0.1069(6) 0.0927(3) 0.2856(3)
O7F O 0.3931(6) 0.0927(3) 0.2144(3)
O8F O 0.1547(5) 0.0385(3) 0.1807(3)
O1D O 0.6382(5) 0.5463(3) -0.0198(3)
O4F O 0.5619(7) 0.6969(3) 0.1551(3)
O6_2 O 0.7511(6) 0.5393(3) 0.1408(3)
Cd2D Cd 0.4910(1) 0.4322(1) -0.0852(1)
Cd1E Cd -0.3357(1) 0.1462(1) 0.2176(1)
Cd2F Cd -0.0090(1) 0.0678(1) 0.0852(1)
Cd1C Cd -0.1643(1) 0.6462(1) 0.2176(1)
Cd2_2 Cd -0.4910(1) 0.5678(1) 0.0852(1)
Cd1F Cd 0.3357(1) 0.6462(1) 0.2824(1)
loop_
_geom_bond_atom_site_label_1
_geom_bond_atom_site_label_2
_geom_bond_site_symmetry_1
_geom_bond_site_symmetry_2
Cd1 O3 1_555 1_555
Cd2 O1 1_555 1_555
O1 C5 1_555 1_555
O2 C5 1_555 1_555
O3 C6 1_555 1_555
O4 C6 1_555 1_555
O5 C7 1_555 1_555
O6 C7 1_555 1_555
O7 C8 1_555 1_555
O8 Cd2 1_555 1_555
O9 Cd1 1_555 1_555
O10 Cd2 1_555 1_555
C1 C2 1_555 1_555
C2 C3 1_555 1_555
C3 C4 1_555 1_555
C4 C1 1_555 1_555
C5 C1 1_555 1_555
C6 C2 1_555 1_555
C7 C3 1_555 1_555
H1 C1 1_555 1_555
H2 C2 1_555 1_555
H3 C3 1_555 1_555
H4 C4 1_555 1_555
C8 O8 1_555 1_555
O4E Cd1 1_555 1_555
O6C Cd1 1_555 1_555
O7C Cd1 1_555 1_555
O7F Cd1 1_555 1_555
O8F Cd1 1_555 1_555
O1D Cd2 1_555 1_555
O4F Cd2 1_555 1_555
O6_2 Cd2 1_555 1_555
Cd2D O1 1_555 1_555
Cd1E O4 1_555 1_555
Cd2F O4 1_555 1_555
Cd1C O6 1_555 1_555
Cd2_2 O6 1_555 1_555
Cd1F O7 1_555 1_555
O7 Cd1C 1_555 1_555
O8 Cd1F 1_555 1_555
C4 C8 1_555 1_555
O7C Cd1E 1_555 1_555
O8F Cd2F 1_555 1_555
O1D Cd2D 1_555 1_555

#END
