
#######################################################################
#
#                 Cambridge Crystallographic Data Centre
#                                CCDC 
#
#######################################################################
#
# If this CIF has been generated from an entry in the Cambridge 
# Structural Database, then it will include bibliographic, chemical, 
# crystal, experimental, refinement or atomic coordinate data resulting 
# from the CCDC's data processing and validation procedures.
#
#######################################################################

data_MAGLOW
_symmetry_cell_setting           triclinic
_symmetry_space_group_name_H-M   'P -1'
_symmetry_Int_Tables_number      2
_space_group_name_Hall           '-P 1'
loop_
_symmetry_equiv_pos_site_id
_symmetry_equiv_pos_as_xyz
1 x,y,z
2 -x,-y,-z
_cell_length_a                   8.082(6)
_cell_length_b                   17.035(9)
_cell_length_c                   20.933(13)
_cell_angle_alpha                72.78(5)
_cell_angle_beta                 89.35(6)
_cell_angle_gamma                77.63(5)
_cell_volume                     2684.71
loop_
_atom_site_label
_atom_site_type_symbol
_atom_site_fract_x
_atom_site_fract_y
_atom_site_fract_z
Cl1 Cl 1.2391(2) 0.4228(1) 0.4294(1)
Cl2 Cl 0.9207(3) 0.5375(1) 0.3362(1)
O1 O 0.6643(4) 0.3356(2) 0.6315(2)
O2 O 0.6013(4) 0.1003(2) 0.7373(2)
O3 O 0.8293(4) 0.0495(2) 0.6883(2)
O4 O 0.9328(4) 0.1511(2) 0.5396(2)
O5 O 0.7896(4) 0.3070(3) 0.7734(2)
O6 O 0.3854(4) 0.2561(2) 0.6397(2)
O7 O 0.6165(4) 0.0610(2) 0.3796(2)
O8 O 0.3269(4) 0.0767(2) 0.3873(2)
N1 N 0.6546(4) 0.2054(2) 0.5501(2)
C1 C 0.6462(5) 0.2692(3) 0.6897(2)
C2 C 0.7850(5) 0.1914(2) 0.6891(2)
C3 C 0.8740(5) 0.2197(3) 0.6237(2)
C4 C 0.8368(5) 0.3153(3) 0.6115(2)
C5 C 0.7319(5) 0.1074(3) 0.7051(2)
C6 C 0.8212(5) 0.1901(3) 0.5669(2)
C7 C 0.6632(5) 0.2914(3) 0.7548(2)
C8 C 0.5042(6) 0.2876(3) 0.7889(2)
C9 C 0.4633(6) 0.2977(3) 0.8514(2)
C10 C 0.3052(7) 0.2901(3) 0.8727(2)
C11 C 0.1859(6) 0.2746(3) 0.8338(2)
C12 C 0.2256(6) 0.2640(3) 0.7716(2)
C13 C 0.3858(5) 0.2697(3) 0.7509(2)
C14 C 0.4597(5) 0.2615(3) 0.6880(2)
C15 C 0.5726(5) 0.1723(3) 0.5078(2)
C16 C 0.6605(5) 0.1319(3) 0.4639(2)
C17 C 0.5627(5) 0.1008(3) 0.4277(2)
C18 C 0.4735(5) 0.0295(3) 0.3658(2)
C19 C 0.3924(5) 0.1095(3) 0.4325(2)
C20 C 0.3041(5) 0.1478(3) 0.4752(2)
C21 C 0.3988(5) 0.1803(3) 0.5126(2)
C22 C 0.8519(6) 0.3702(3) 0.5415(2)
C23 C 1.0136(6) 0.3740(3) 0.5203(2)
C24 C 1.0372(7) 0.4230(3) 0.4564(2)
C25 C 0.8962(8) 0.4711(3) 0.4150(3)
C26 C 0.7341(8) 0.4686(3) 0.4360(3)
C27 C 0.7124(6) 0.4172(3) 0.4991(3)
Cl3 Cl 2.1260(2) -0.4205(1) 1.0561(1)
Cl4 Cl 1.9055(2) -0.5301(1) 1.1565(1)
O9 O 1.4687(4) -0.3321(2) 0.8641(2)
O10 O 1.1910(3) -0.0966(2) 0.7621(2)
O11 O 1.3720(4) -0.0451(2) 0.8089(2)
O12 O 1.5688(4) -0.1497(2) 0.9572(2)
O13 O 1.5688(4) -0.3005(3) 0.7211(2)
O14 O 1.1177(4) -0.2545(2) 0.8596(2)
O15 O 1.1706(4) -0.0639(2) 1.1218(2)
O16 O 0.8929(4) -0.0740(3) 1.1121(2)
N2 N 1.3376(4) -0.2017(2) 0.9466(2)
C28 C 1.3888(5) -0.2646(3) 0.8067(2)
C29 C 1.4574(5) -0.1868(2) 0.8069(2)
C30 C 1.5709(5) -0.2149(2) 0.8717(2)
C31 C 1.6201(5) -0.3105(3) 0.8828(2)
C32 C 1.3275(5) -0.1032(3) 0.7927(2)
C33 C 1.4918(5) -0.1871(3) 0.9303(2)
C34 C 1.4279(5) -0.2867(3) 0.7413(2)
C35 C 1.1319(5) -0.2669(3) 0.7475(2)
C36 C 1.2386(6) -0.2980(3) 0.6474(2)
C37 C 1.0759(6) -0.2920(3) 0.6273(2)
C38 C 0.9391(6) -0.2754(3) 0.6670(2)
C39 C 0.9673(6) -0.2629(3) 0.7285(2)
C40 C 1.2672(5) -0.2853(3) 0.7090(2)
C41 C 1.1959(5) -0.2583(3) 0.8103(2)
C42 C 1.2244(5) -0.1693(3) 0.9899(2)
C43 C 1.2783(5) -0.1320(3) 1.0357(2)
C44 C 1.1529(5) -0.1015(3) 1.0722(2)
C45 C 1.0002(5) -0.0346(3) 1.1391(2)
C46 C 0.9874(5) -0.1061(3) 1.0664(2)
C47 C 0.9329(5) -0.1422(3) 1.0223(2)
C48 C 1.0582(5) -0.1747(3) 0.9841(2)
C49 C 1.6856(5) -0.3650(3) 0.9526(2)
C50 C 1.8523(5) -0.3697(3) 0.9705(2)
C51 C 1.9196(6) -0.4199(3) 1.0341(2)
C52 C 1.8235(7) -0.4663(3) 1.0776(2)
C53 C 1.6552(7) -0.4604(3) 1.0602(2)
C54 C 1.5857(6) -0.4096(3) 0.9975(2)
Na1 Na 1.1025(2) 0.0067(1) 0.6579(1)
Na2 Na 0.6069(2) -0.0036(1) 0.8402(1)
O17 O 1.2395(4) 0.0904(2) 0.7005(2)
O18 O 0.9852(4) -0.0320(3) 0.5750(2)
O19 O 0.8210(4) -0.0871(2) 0.7964(2)
O20 O 0.4558(4) 0.0330(3) 0.9254(2)
H1 H 0.5885 0.2402 0.5675
H2 H 0.8694 0.1844 0.7254
H3 H 0.9977 0.1976 0.6334
H4 H 0.9132 0.3273 0.6423
H5 H 0.5421 0.3093 0.8781
H6 H 0.2766 0.2957 0.9150
H7 H 0.0774 0.2712 0.8495
H8 H 0.1460 0.2532 0.7447
H9 H 0.7780 0.1263 0.4595
H10 H 0.4604 0.0368 0.3178
H11 H 0.4897 -0.0306 0.3902
H12 H 0.1867 0.1521 0.4791
H13 H 0.3430 0.2083 0.5420
H14 H 1.1083 0.3432 0.5495
H15 H 0.6393 0.5015 0.4076
H16 H 0.6024 0.4142 0.5132
H17 H 1.3024 -0.2353 0.9284
H18 H 1.5354 -0.1788 0.7699
H19 H 1.6744 -0.1923 0.8612
H20 H 1.7079 -0.3216 0.8513
H21 H 1.3291 -0.3103 0.6208
H22 H 1.0540 -0.2991 0.5856
H23 H 0.8283 -0.2727 0.6521
H24 H 0.8775 -0.2521 0.7558
H25 H 1.3917 -0.1285 1.0407
H26 H 0.9941 -0.0494 1.1879
H27 H 0.9653 0.0268 1.1203
H28 H 0.8189 -0.1450 1.0180
H29 H 1.0274 -0.2009 0.9537
H30 H 1.9195 -0.3394 0.9401
H31 H 1.5885 -0.4906 1.0908
H32 H 1.4718 -0.4054 0.9854
H33 H 1.2990(4) 0.0692(12) 0.7362(9)
H34 H 1.2830(4) 0.1294(16) 0.6790(10)
H35 H 0.8980(18) -0.0510(15) 0.5775(11)
H36 H 1.0190(4) -0.0320(3) 0.5373(11)
H37 H 0.8850(3) -0.0674(11) 0.7677(13)
H38 H 0.8740(3) -0.1357(10) 0.8157(15)
H39 H 0.3509(7) 0.0480(4) 0.9248(13)
H40 H 0.4870(3) 0.0180(4) 0.9657(5)
Na1A Na 0.8975(2) -0.0067(1) 0.3421(1)
Na2_2 Na 1.6069(2) -0.0036(1) 0.8402(1)
Na2A Na 1.3931(2) 0.0036(1) 1.1598(1)
O7A O 1.3835(4) -0.0610(2) 0.6204(2)
O11_2 O 0.3720(4) -0.0451(2) 0.8089(2)
O12_2 O 0.5688(4) -0.1497(2) 0.9572(2)
O15A O 0.8294(4) 0.0639(2) 0.8782(2)
C55 C 0.2687(12) 0.4933(5) 0.2310(5)
C56 C 0.4153(11) 0.4962(5) 0.2622(5)
N3 N 0.5290(13) 0.5007(6) 0.2923(6)
H41 H 0.1957 0.4683 0.2645
H42 H 0.2966 0.4596 0.2007
H43 H 0.2103 0.5500 0.2059
loop_
_geom_bond_atom_site_label_1
_geom_bond_atom_site_label_2
_geom_bond_site_symmetry_1
_geom_bond_site_symmetry_2
Cl1 C24 1_555 1_555
Cl2 C25 1_555 1_555
O1 C1 1_555 1_555
O2 C5 1_555 1_555
O3 C5 1_555 1_555
O4 C6 1_555 1_555
O5 C7 1_555 1_555
O6 C14 1_555 1_555
O7 C17 1_555 1_555
O8 C18 1_555 1_555
N1 C6 1_555 1_555
C1 C2 1_555 1_555
C2 C3 1_555 1_555
C3 C4 1_555 1_555
C4 O1 1_555 1_555
C5 C2 1_555 1_555
C6 C3 1_555 1_555
C7 C1 1_555 1_555
C8 C7 1_555 1_555
C9 C8 1_555 1_555
C10 C9 1_555 1_555
C11 C10 1_555 1_555
C12 C11 1_555 1_555
C13 C8 1_555 1_555
C14 C1 1_555 1_555
C15 N1 1_555 1_555
C16 C15 1_555 1_555
C17 C16 1_555 1_555
C18 O7 1_555 1_555
C19 O8 1_555 1_555
C20 C19 1_555 1_555
C21 C15 1_555 1_555
C22 C4 1_555 1_555
C23 C22 1_555 1_555
C24 C23 1_555 1_555
C25 C24 1_555 1_555
C26 C25 1_555 1_555
C27 C22 1_555 1_555
Cl3 C51 1_555 1_555
Cl4 C52 1_555 1_555
O9 C28 1_555 1_555
O10 C32 1_555 1_555
O11 C32 1_555 1_555
O12 C33 1_555 1_555
O13 C34 1_555 1_555
O14 C41 1_555 1_555
O15 C44 1_555 1_555
O16 C45 1_555 1_555
N2 C33 1_555 1_555
C28 C29 1_555 1_555
C29 C30 1_555 1_555
C30 C31 1_555 1_555
C31 O9 1_555 1_555
C32 C29 1_555 1_555
C33 C30 1_555 1_555
C34 C28 1_555 1_555
C35 C39 1_555 1_555
C36 C37 1_555 1_555
C37 C38 1_555 1_555
C38 C39 1_555 1_555
C39 H24 1_555 1_555
C40 C34 1_555 1_555
C41 C28 1_555 1_555
C42 N2 1_555 1_555
C43 C42 1_555 1_555
C44 C43 1_555 1_555
C45 O15 1_555 1_555
C46 O16 1_555 1_555
C47 C46 1_555 1_555
C48 C42 1_555 1_555
C49 C31 1_555 1_555
C50 C49 1_555 1_555
C51 C50 1_555 1_555
C52 C51 1_555 1_555
C53 C52 1_555 1_555
C54 C49 1_555 1_555
Na1 O3 1_555 1_555
Na2 O2 1_555 1_555
O17 Na1 1_555 1_555
O18 Na1 1_555 1_555
O19 Na2 1_555 1_555
O20 Na2 1_555 1_555
C55 C56 1_555 1_555
C56 N3 1_555 1_555
H1 N1 1_555 1_555
H2 C2 1_555 1_555
H3 C3 1_555 1_555
H4 C4 1_555 1_555
H5 C9 1_555 1_555
H6 C10 1_555 1_555
H7 C11 1_555 1_555
H8 C12 1_555 1_555
H9 C16 1_555 1_555
H10 C18 1_555 1_555
H11 C18 1_555 1_555
H12 C20 1_555 1_555
H13 C21 1_555 1_555
H14 C23 1_555 1_555
H15 C26 1_555 1_555
H16 C27 1_555 1_555
H17 N2 1_555 1_555
H18 C29 1_555 1_555
H19 C30 1_555 1_555
H20 C31 1_555 1_555
H21 C36 1_555 1_555
H22 C37 1_555 1_555
H23 C38 1_555 1_555
H25 C43 1_555 1_555
H26 C45 1_555 1_555
H27 C45 1_555 1_555
H28 C47 1_555 1_555
H29 C48 1_555 1_555
H30 C50 1_555 1_555
H31 C53 1_555 1_555
H32 C54 1_555 1_555
H33 O17 1_555 1_555
H34 O17 1_555 1_555
H35 O18 1_555 1_555
H36 O18 1_555 1_555
H37 O19 1_555 1_555
H38 O19 1_555 1_555
H39 O20 1_555 1_555
H40 O20 1_555 1_555
H41 C55 1_555 1_555
H42 C55 1_555 1_555
H43 C55 1_555 1_555
Na1A O7 1_555 1_555
Na2_2 O11 1_555 1_555
Na2A O15 1_555 1_555
O7A Na1 1_555 1_555
O11_2 Na2 1_555 1_555
O12_2 Na2 1_555 1_555
O15A Na2 1_555 1_555
O4 Na1 1_555 1_555
C12 C13 1_555 1_555
C13 C14 1_555 1_555
C17 C19 1_555 1_555
C20 C21 1_555 1_555
C26 C27 1_555 1_555
O10 Na1 1_555 1_555
O12 Na2_2 1_555 1_555
C35 C40 1_555 1_555
C35 C41 1_555 1_555
C36 C40 1_555 1_555
C44 C46 1_555 1_555
C47 C48 1_555 1_555
C53 C54 1_555 1_555

#END
