
#######################################################################
#
#                 Cambridge Crystallographic Data Centre
#                                CCDC 
#
#######################################################################
#
# If this CIF has been generated from an entry in the Cambridge 
# Structural Database, then it will include bibliographic, chemical, 
# crystal, experimental, refinement or atomic coordinate data resulting 
# from the CCDC's data processing and validation procedures.
#
#######################################################################

data_MAGTAQ
_symmetry_cell_setting           monoclinic
_symmetry_space_group_name_H-M   'P 21/c'
_symmetry_Int_Tables_number      14
_space_group_name_Hall           '-P 2ybc'
loop_
_symmetry_equiv_pos_site_id
_symmetry_equiv_pos_as_xyz
1 x,y,z
2 x,1/2-y,1/2+z
3 -x,-y,-z
4 -x,1/2+y,1/2-z
_cell_length_a                   8.58280(10)
_cell_length_b                   20.3006(4)
_cell_length_c                   8.6300(2)
_cell_angle_alpha                90
_cell_angle_beta                 101.2599(9)
_cell_angle_gamma                90
_cell_volume                     1474.71
loop_
_atom_site_label
_atom_site_type_symbol
_atom_site_fract_x
_atom_site_fract_y
_atom_site_fract_z
Mn1 Mn 0.5000 0.5000 0.5000
N1 N 0.14457(17) 0.47188(7) 0.34339(18)
N2 N 0.50633(16) 0.54344(7) 0.26044(16)
N3 N 0.60382(16) 0.58005(7) 0.05893(16)
C1 C 0.6342(2) 0.54955(9) 0.1984(2)
H1 H 0.7342 0.5343 0.2464
C2 C 0.8210(2) 0.65435(8) 0.0253(2)
C3 C 1.0007(2) 0.76140(8) 0.1614(2)
N4 N 0.26428(17) 0.45334(8) 0.42037(18)
C4 C 0.7794(2) 0.71784(10) -0.0235(2)
H2 H 0.6905 0.7250 -0.1026
C5 C 0.3886(2) 0.57185(10) 0.1538(2)
H3 H 0.2832 0.5751 0.1647
C6 C 0.7208(2) 0.59561(10) -0.0395(2)
H4 H 0.6659 0.6050 -0.1465
H5 H 0.7890 0.5578 -0.0430
C7 C 0.9550(2) 0.64509(9) 0.1406(2)
H6 H 0.9861 0.6026 0.1731
C8 C 0.8686(2) 0.77086(9) 0.0440(3)
H7 H 0.8393 0.8133 0.0099
C9 C 1.0433(2) 0.69808(9) 0.2082(2)
H8 H 1.1328 0.6909 0.2864
N5 N 0.0250(2) 0.48830(10) 0.2653(3)
C10 C 0.4462(2) 0.59473(10) 0.0299(2)
H9 H 0.3894 0.6163 -0.0583
N6 N 1.37902(16) 0.90459(7) 0.05364(17)
N7 N 1.22372(16) 0.83900(7) 0.15905(17)
C11 C 1.24611(19) 0.89972(9) 0.1077(2)
H10 H 1.1760 0.9345 0.1099
C12 C 1.0949(2) 0.81913(10) 0.2397(3)
H11 H 1.0240 0.8562 0.2414
H12 H 1.1402 0.8077 0.3483
C13 C 1.3501(2) 0.80201(9) 0.1354(2)
H13 H 1.3681 0.7576 0.1591
C14 C 1.4433(2) 0.84282(9) 0.0708(2)
H14 H 1.5382 0.8307 0.0419
N2B N 0.49367(16) 0.45656(7) 0.73956(16)
N3B N 0.39618(16) 0.41995(7) 0.94107(16)
C1B C 0.3658(2) 0.45045(9) 0.8016(2)
H1B H 0.2658 0.4657 0.7536
C2B C 0.1790(2) 0.34565(8) 0.9747(2)
C3B C -0.0007(2) 0.23860(8) 0.8386(2)
C4B C 0.2206(2) 0.28216(10) 1.0235(2)
H2B H 0.3095 0.2750 1.1026
C5B C 0.6114(2) 0.42815(10) 0.8462(2)
H3B H 0.7168 0.4249 0.8353
C6B C 0.2792(2) 0.40439(10) 1.0395(2)
H4B H 0.3341 0.3950 1.1465
H5B H 0.2110 0.4422 1.0430
C7B C 0.0450(2) 0.35491(9) 0.8594(2)
H6B H 0.0139 0.3974 0.8269
C8B C 0.1314(2) 0.22914(9) 0.9560(3)
H7B H 0.1607 0.1867 0.9901
C9B C -0.0433(2) 0.30192(9) 0.7918(2)
H8B H -0.1328 0.3091 0.7136
C10B C 0.5538(2) 0.40527(10) 0.9701(2)
H9B H 0.6106 0.3837 1.0583
N6B N -0.37902(16) 0.09541(7) 0.94636(17)
N7B N -0.22372(16) 0.16100(7) 0.84095(17)
C11B C -0.24611(19) 0.10028(9) 0.8923(2)
H10B H -0.1760 0.0655 0.8901
C12B C -0.0949(2) 0.18087(10) 0.7603(3)
H11B H -0.0240 0.1438 0.7586
H12B H -0.1402 0.1923 0.6517
C13B C -0.3501(2) 0.19799(9) 0.8646(2)
H13B H -0.3681 0.2424 0.8409
C14B C -0.4433(2) 0.15718(9) 0.9292(2)
H14B H -0.5382 0.1693 0.9581
N1B N 0.85543(17) 0.52812(7) 0.65661(18)
N4B N 0.73572(17) 0.54666(8) 0.57963(18)
N5B N 0.9750(2) 0.51170(10) 0.7347(3)
N6A N 0.37902(16) 0.59541(7) 0.55364(17)
N6C N 0.62098(16) 0.40459(7) 0.44636(17)
Mn1A Mn 1.5000 1.0000 0.0000
Mn1A_2 Mn -0.5000 0.0000 1.0000
loop_
_geom_bond_atom_site_label_1
_geom_bond_atom_site_label_2
_geom_bond_site_symmetry_1
_geom_bond_site_symmetry_2
Mn1 N2 1_555 1_555
N1 N4 1_555 1_555
N2 C1 1_555 1_555
N3 C1 1_555 1_555
C1 H1 1_555 1_555
C2 C4 1_555 1_555
C3 C8 1_555 1_555
N4 Mn1 1_555 1_555
C4 H2 1_555 1_555
C5 N2 1_555 1_555
H3 C5 1_555 1_555
C6 N3 1_555 1_555
H4 C6 1_555 1_555
H5 C6 1_555 1_555
C7 C2 1_555 1_555
H6 C7 1_555 1_555
C8 C4 1_555 1_555
H7 C8 1_555 1_555
C9 C3 1_555 1_555
H8 C9 1_555 1_555
N5 N1 1_555 1_555
C10 N3 1_555 1_555
H9 C10 1_555 1_555
N6 C11 1_555 1_555
N7 C11 1_555 1_555
C11 H10 1_555 1_555
C12 C3 1_555 1_555
H11 C12 1_555 1_555
H12 C12 1_555 1_555
C13 N7 1_555 1_555
H13 C13 1_555 1_555
C14 N6 1_555 1_555
H14 C14 1_555 1_555
N2B Mn1 1_555 1_555
N3B C1B 1_555 1_555
C1B N2B 1_555 1_555
H1B C1B 1_555 1_555
C2B C4B 1_555 1_555
C3B C8B 1_555 1_555
C4B H2B 1_555 1_555
C5B N2B 1_555 1_555
H3B C5B 1_555 1_555
C6B N3B 1_555 1_555
H4B C6B 1_555 1_555
H5B C6B 1_555 1_555
C7B C2B 1_555 1_555
H6B C7B 1_555 1_555
C8B C4B 1_555 1_555
H7B C8B 1_555 1_555
C9B C3B 1_555 1_555
H8B C9B 1_555 1_555
C10B N3B 1_555 1_555
H9B C10B 1_555 1_555
N6B C11B 1_555 1_555
N7B C11B 1_555 1_555
C11B H10B 1_555 1_555
C12B C3B 1_555 1_555
H11B C12B 1_555 1_555
H12B C12B 1_555 1_555
C13B N7B 1_555 1_555
H13B C13B 1_555 1_555
C14B N6B 1_555 1_555
H14B C14B 1_555 1_555
N1B N4B 1_555 1_555
N4B Mn1 1_555 1_555
N5B N1B 1_555 1_555
N6A Mn1 1_555 1_555
N6C Mn1 1_555 1_555
Mn1A N6 1_555 1_555
Mn1A_2 N6B 1_555 1_555
C2 C6 1_555 1_555
C5 C10 1_555 1_555
C7 C9 1_555 1_555
N7 C12 1_555 1_555
C13 C14 1_555 1_555
C2B C6B 1_555 1_555
C5B C10B 1_555 1_555
C7B C9B 1_555 1_555
N7B C12B 1_555 1_555
C13B C14B 1_555 1_555

#END
