
#######################################################################
#
#                 Cambridge Crystallographic Data Centre
#                                CCDC 
#
#######################################################################
#
# If this CIF has been generated from an entry in the Cambridge 
# Structural Database, then it will include bibliographic, chemical, 
# crystal, experimental, refinement or atomic coordinate data resulting 
# from the CCDC's data processing and validation procedures.
#
#######################################################################

data_MAGVOG
_symmetry_cell_setting           monoclinic
_symmetry_space_group_name_H-M   'C 2/c'
_symmetry_Int_Tables_number      15
_space_group_name_Hall           '-C 2yn'
loop_
_symmetry_equiv_pos_site_id
_symmetry_equiv_pos_as_xyz
1 x,y,z
2 1/2+x,1/2+y,z
3 -x,y,1/2-z
4 1/2-x,1/2+y,1/2-z
5 -x,-y,-z
6 1/2-x,1/2-y,-z
7 x,-y,1/2+z
8 1/2+x,1/2-y,1/2+z
_cell_length_a                   10.418(2)
_cell_length_b                   10.521(2)
_cell_length_c                   6.2870(13)
_cell_angle_alpha                90
_cell_angle_beta                 115.16(3)
_cell_angle_gamma                90
_cell_volume                     623.725
loop_
_atom_site_label
_atom_site_type_symbol
_atom_site_fract_x
_atom_site_fract_y
_atom_site_fract_z
Ag1 Ag 0.5000 0.0000 0.5000
N1 N 0.3127(4) 0.1098(4) 0.3816(7)
H1 H 0.3076 0.1692 0.2643
H2 H 0.2265 0.0543 0.3347
C1 C 0.3165(4) 0.2106(4) 0.5464(7)
H3 H 0.3971 0.2654 0.5759
H4 H 0.3294 0.1725 0.6947
C1E C 0.1835(4) 0.2894(4) 0.4536(7)
N1E N 0.1873(4) 0.3902(4) 0.6184(7)
H1E H 0.1924 0.3308 0.7357
H2E H 0.2735 0.4457 0.6653
H3E H 0.1029 0.2346 0.4241
H4E H 0.1706 0.3275 0.3053
N1D N 0.6873(4) -0.1098(4) 0.6184(7)
Ag1A Ag 0.0000 0.5000 0.5000
H1D H 0.6924 -0.1692 0.7357
H2D H 0.7735 -0.0543 0.6653
O1 O 0.1105(6) 0.1636(8) 0.8595(8)
O2 O 0.0000 -0.0072(8) 0.7500
N2 N 0.0000 0.1081(7) 0.7500
O1B O -0.1105(6) 0.1636(8) 0.6405(8)
loop_
_geom_bond_atom_site_label_1
_geom_bond_atom_site_label_2
_geom_bond_site_symmetry_1
_geom_bond_site_symmetry_2
Ag1 N1 1_555 1_555
N1 H1 1_555 1_555
H2 N1 1_555 1_555
C1 N1 1_555 1_555
H3 C1 1_555 1_555
H4 C1 1_555 1_555
O1 N2 1_555 1_555
O2 N2 1_555 1_555
N2 O1B 1_555 1_555
C1E C1 1_555 1_555
N1E C1E 1_555 1_555
H1E N1E 1_555 1_555
H2E N1E 1_555 1_555
H3E C1E 1_555 1_555
H4E C1E 1_555 1_555
N1D Ag1 1_555 1_555
Ag1A N1E 1_555 1_555
H1D N1D 1_555 1_555
H2D N1D 1_555 1_555

#END
