
#######################################################################
#
#                 Cambridge Crystallographic Data Centre
#                                CCDC 
#
#######################################################################
#
# If this CIF has been generated from an entry in the Cambridge 
# Structural Database, then it will include bibliographic, chemical, 
# crystal, experimental, refinement or atomic coordinate data resulting 
# from the CCDC's data processing and validation procedures.
#
#######################################################################

data_MAGVUM
_symmetry_cell_setting           monoclinic
_symmetry_space_group_name_H-M   'P 2/c'
_symmetry_Int_Tables_number      13
_space_group_name_Hall           '-P 2yc'
loop_
_symmetry_equiv_pos_site_id
_symmetry_equiv_pos_as_xyz
1 x,y,z
2 x,-y,1/2+z
3 -x,-y,-z
4 -x,y,1/2-z
_cell_length_a                   8.1010(16)
_cell_length_b                   8.3910(17)
_cell_length_c                   11.034(2)
_cell_angle_alpha                90
_cell_angle_beta                 106.88(3)
_cell_angle_gamma                90
_cell_volume                     717.726
loop_
_atom_site_label
_atom_site_type_symbol
_atom_site_fract_x
_atom_site_fract_y
_atom_site_fract_z
O1 O -1.0000 0.042(5) -0.7500
Ag1 Ag -1.0000 0.30398(14) -0.2500
Ag2 Ag -1.0000 0.33362(15) -0.7500
N2 N -1.1818(14) 0.3012(11) -0.4319(8)
H1 H -1.1733 0.4012 -0.4754
H2 H -1.2631 0.3173 -0.3954
N3 N -1.2496(14) 0.3194(11) -0.7192(10)
H3 H -1.2912 0.3179 -0.7925
H4 H -1.2390 0.4208 -0.6738
C1 C -1.1577(15) 0.1690(12) -0.5176(11)
H5 H -1.1722 0.0676 -0.4797
H6 H -1.0405 0.1732 -0.5232
C2 C -1.2810(16) 0.1762(14) -0.6497(11)
H7 H -1.3998 0.1787 -0.6446
C3 C -1.2563(16) 0.0297(14) -0.7222(10)
H8 H -1.3339 0.0339 -0.8064
H9 H -1.2798 -0.0639 -0.6799
H10 H -1.1396 0.0262 -0.7262
H10C H -0.8604 0.0262 -0.7738
C3C C -0.7437(16) 0.0297(14) -0.7778(10)
C2C C -0.7190(16) 0.1762(14) -0.8503(11)
N3C N -0.7504(14) 0.3194(11) -0.7808(10)
H3C H -0.7088 0.3179 -0.7075
H4C H -0.7610 0.4208 -0.8262
C1C C -0.8423(15) 0.1690(12) -0.9824(11)
N2C N -0.8182(14) 0.3012(11) -1.0681(8)
H1C H -0.8267 0.4012 -1.0246
H2C H -0.7369 0.3173 -1.1046
H5C H -0.8278 0.0676 -1.0203
H6C H -0.9595 0.1732 -0.9768
H7C H -0.6002 0.1787 -0.8554
H8C H -0.6661 0.0339 -0.6936
H9C H -0.7202 -0.0639 -0.8201
N2C_2 N -0.8182(14) 0.3012(11) -0.0681(8)
Ag1_2 Ag -1.0000 0.30398(14) -1.2500
H1C_2 H -0.8267 0.4012 -0.0246
H2C_2 H -0.7369 0.3173 -0.1046
N1 N -0.3679(15) 0.3353(13) -0.0578(9)
O2 O -0.2138(13) 0.3684(13) -0.0452(12)
O3 O -0.4758(18) 0.434(2) -0.1136(18)
O4 O -0.4169(17) 0.2151(13) -0.0172(11)
loop_
_geom_bond_atom_site_label_1
_geom_bond_atom_site_label_2
_geom_bond_site_symmetry_1
_geom_bond_site_symmetry_2
O1 Ag2 1_555 1_555
Ag1 N2 1_555 1_555
Ag2 N3 1_555 1_555
N1 O2 1_555 1_555
O3 N1 1_555 1_555
O4 N1 1_555 1_555
N2 H1 1_555 1_555
H2 N2 1_555 1_555
N3 H3 1_555 1_555
H4 N3 1_555 1_555
C1 N2 1_555 1_555
H5 C1 1_555 1_555
H6 C1 1_555 1_555
C2 N3 1_555 1_555
H7 C2 1_555 1_555
C3 C2 1_555 1_555
H8 C3 1_555 1_555
H9 C3 1_555 1_555
H10 C3 1_555 1_555
H10C C3C 1_555 1_555
C3C C2C 1_555 1_555
C2C N3C 1_555 1_555
N3C Ag2 1_555 1_555
H3C N3C 1_555 1_555
H4C N3C 1_555 1_555
C1C C2C 1_555 1_555
N2C C1C 1_555 1_555
H1C N2C 1_555 1_555
H2C N2C 1_555 1_555
H5C C1C 1_555 1_555
H6C C1C 1_555 1_555
H7C C2C 1_555 1_555
H8C C3C 1_555 1_555
H9C C3C 1_555 1_555
N2C_2 Ag1 1_555 1_555
Ag1_2 N2C 1_555 1_555
H1C_2 N2C_2 1_555 1_555
H2C_2 N2C_2 1_555 1_555
C1 C2 1_555 1_555

#END
