
#######################################################################
#
#                 Cambridge Crystallographic Data Centre
#                                CCDC 
#
#######################################################################
#
# If this CIF has been generated from an entry in the Cambridge 
# Structural Database, then it will include bibliographic, chemical, 
# crystal, experimental, refinement or atomic coordinate data resulting 
# from the CCDC's data processing and validation procedures.
#
#######################################################################

data_MAGYIE
_symmetry_cell_setting           triclinic
_symmetry_space_group_name_H-M   'P -1'
_symmetry_Int_Tables_number      2
_space_group_name_Hall           '-P 1'
loop_
_symmetry_equiv_pos_site_id
_symmetry_equiv_pos_as_xyz
1 x,y,z
2 -x,-y,-z
_cell_length_a                   9.020(3)
_cell_length_b                   12.163(3)
_cell_length_c                   12.439(4)
_cell_angle_alpha                112.08(2)
_cell_angle_beta                 93.06(3)
_cell_angle_gamma                91.78(2)
_cell_volume                     1260.87
loop_
_atom_site_label
_atom_site_type_symbol
_atom_site_fract_x
_atom_site_fract_y
_atom_site_fract_z
Pt1 Pt -0.17097(5) -0.21623(3) -0.03649(3)
Ag1 Ag 0.0000 0.0000 0.0000
Ag2 Ag -0.1412(3) -0.5543(3) -0.0308(3)
Cl1 Cl -0.2676(3) -0.0646(2) -0.0825(2)
Cl2 Cl -0.0636(7) -0.3479(4) 0.0322(3)
P1 P -0.1014(3) -0.3224(2) -0.2243(2)
F1 F 0.0127(7) -0.0629(6) 0.2085(5)
F2 F -0.0772(8) 0.0516(6) 0.4226(6)
F3 F -0.3691(9) 0.0497(6) 0.4637(5)
F4 F -0.5746(7) -0.0739(7) 0.2860(6)
F5 F -0.4880(7) -0.1894(6) 0.0717(6)
C1 C -0.2342(12) -0.1290(8) 0.1289(9)
C2 C -0.1384(12) -0.0677(10) 0.2241(9)
C3 C -0.1812(13) -0.0092(9) 0.3350(9)
C4 C -0.3287(13) -0.0093(9) 0.3566(9)
C5 C -0.4279(12) -0.0717(10) 0.2659(10)
C6 C -0.3823(13) -0.1285(9) 0.1569(9)
C7 C -0.1132(11) -0.4831(8) -0.2587(9)
C8 C -0.2395(13) -0.5308(10) -0.2302(10)
H1 H -0.3158 -0.4794 -0.1931
C9 C -0.2569(14) -0.6507(11) -0.2554(10)
H2 H -0.3436 -0.6825 -0.2329
C10 C -0.1498(14) -0.7259(10) -0.3144(10)
H3 H -0.1618 -0.8099 -0.3328
C11 C -0.0276(14) -0.6787(10) -0.3435(10)
H4 H 0.0463 -0.7307 -0.3842
C12 C -0.0077(12) -0.5589(9) -0.3171(9)
H5 H 0.0798 -0.5275 -0.3389
C13 C 0.0891(10) -0.2859(8) -0.2481(8)
C14 C 0.1324(12) -0.3074(10) -0.3593(9)
H6 H 0.0617 -0.3413 -0.4251
C15 C 0.2777(12) -0.2801(10) -0.3748(10)
H7 H 0.3080 -0.2968 -0.4521
C16 C 0.3808(12) -0.2294(10) -0.2815(11)
H8 H 0.4819 -0.2103 -0.2920
C17 C 0.3330(13) -0.2067(11) -0.1710(11)
H9 H 0.4023 -0.1699 -0.1047
C18 C 0.1911(11) -0.2347(10) -0.1531(9)
H10 H 0.1612 -0.2186 -0.0758
C19 C -0.2085(10) -0.3072(8) -0.3466(8)
C20 C -0.2908(11) -0.4019(10) -0.4290(9)
H11 H -0.2940 -0.4782 -0.4225
C21 C -0.3672(12) -0.3849(13) -0.5220(11)
H12 H -0.4238 -0.4507 -0.5798
C22 C -0.3634(13) -0.2773(12) -0.5324(10)
H13 H -0.4149 -0.2680 -0.5978
C23 C -0.2838(13) -0.1808(10) -0.4474(10)
H14 H -0.2860 -0.1033 -0.4508
C24 C -0.2029(12) -0.1980(10) -0.3573(9)
H15 H -0.1415 -0.1335 -0.3021
O1 O -0.3604(16) -0.5409(16) 0.081(2)
C25 C -0.397(2) -0.439(2) 0.111(2)
H16 H -0.4842 -0.4286 0.1563
H17 H -0.4202 -0.4208 0.0417
H18 H -0.3144 -0.3850 0.1585
Pt1A Pt 0.17097(5) 0.21623(3) 0.03649(3)
Ag2A Ag 0.1412(3) 0.5543(3) 0.0308(3)
Ag2A_2 Ag 0.1412(3) -0.4457(3) 0.0308(3)
Ag2_2 Ag -0.1412(3) 0.4457(3) -0.0308(3)
Cl1A Cl 0.2676(3) 0.0646(2) 0.0825(2)
Cl2A Cl 0.0636(7) 0.3479(4) -0.0322(3)
Cl2A_2 Cl 0.0636(7) -0.6521(4) -0.0322(3)
Cl2_2 Cl -0.0636(7) 0.6521(4) 0.0322(3)
P1A P 0.1014(3) 0.3224(2) 0.2243(2)
F1A F -0.0127(7) 0.0629(6) -0.2085(5)
F2A F 0.0772(8) -0.0516(6) -0.4226(6)
F3A F 0.3691(9) -0.0497(6) -0.4637(5)
F4A F 0.5746(7) 0.0739(7) -0.2860(6)
F5A F 0.4880(7) 0.1894(6) -0.0717(6)
C1A C 0.2342(12) 0.1290(8) -0.1289(9)
C2A C 0.1384(12) 0.0677(10) -0.2241(9)
C3A C 0.1812(13) 0.0092(9) -0.3350(9)
C4A C 0.3287(13) 0.0093(9) -0.3566(9)
C5A C 0.4279(12) 0.0717(10) -0.2659(10)
C6A C 0.3823(13) 0.1285(9) -0.1569(9)
C7A C 0.1132(11) 0.4831(8) 0.2587(9)
C8A C 0.2395(13) 0.5308(10) 0.2302(10)
H1A H 0.3158 0.4794 0.1931
C9A C 0.2569(14) 0.6507(11) 0.2554(10)
H2A H 0.3436 0.6825 0.2329
C10A C 0.1498(14) 0.7259(10) 0.3144(10)
H3A H 0.1618 0.8099 0.3328
C11A C 0.0276(14) 0.6787(10) 0.3435(10)
H4A H -0.0463 0.7307 0.3842
C12A C 0.0077(12) 0.5589(9) 0.3171(9)
H5A H -0.0798 0.5275 0.3389
C13A C -0.0891(10) 0.2859(8) 0.2481(8)
C14A C -0.1324(12) 0.3074(10) 0.3593(9)
H6A H -0.0617 0.3413 0.4251
C15A C -0.2777(12) 0.2801(10) 0.3748(10)
H7A H -0.3080 0.2968 0.4521
C16A C -0.3808(12) 0.2294(10) 0.2815(11)
H8A H -0.4819 0.2103 0.2920
C17A C -0.3330(13) 0.2067(11) 0.1710(11)
H9A H -0.4023 0.1699 0.1047
C18A C -0.1911(11) 0.2347(10) 0.1531(9)
H10A H -0.1612 0.2186 0.0758
C19A C 0.2085(10) 0.3072(8) 0.3466(8)
C20A C 0.2908(11) 0.4019(10) 0.4290(9)
H11A H 0.2940 0.4782 0.4225
C21A C 0.3672(12) 0.3849(13) 0.5220(11)
H12A H 0.4238 0.4507 0.5798
C22A C 0.3634(13) 0.2773(12) 0.5324(10)
H13A H 0.4149 0.2680 0.5978
C23A C 0.2838(13) 0.1808(10) 0.4474(10)
H14A H 0.2860 0.1033 0.4508
C24A C 0.2029(12) 0.1980(10) 0.3573(9)
H15A H 0.1415 0.1335 0.3021
O1A O 0.3604(16) 0.5409(16) -0.081(2)
C25A C 0.397(2) 0.439(2) -0.111(2)
H16A H 0.4842 0.4286 -0.1563
H17A H 0.4202 0.4208 -0.0417
H18A H 0.3144 0.3850 -0.1585
loop_
_geom_bond_atom_site_label_1
_geom_bond_atom_site_label_2
_geom_bond_site_symmetry_1
_geom_bond_site_symmetry_2
Pt1 Ag1 1_555 1_555
Ag1 Cl1 1_555 1_555
Ag2 Cl2 1_555 1_555
Cl1 Pt1 1_555 1_555
Cl2 Pt1 1_555 1_555
P1 Pt1 1_555 1_555
F1 C2 1_555 1_555
F2 C3 1_555 1_555
F3 C4 1_555 1_555
F4 C5 1_555 1_555
F5 C6 1_555 1_555
C1 Pt1 1_555 1_555
C2 C1 1_555 1_555
C3 C2 1_555 1_555
C4 C3 1_555 1_555
C5 C4 1_555 1_555
C6 C1 1_555 1_555
C7 P1 1_555 1_555
C8 Ag2 1_555 1_555
H1 C8 1_555 1_555
C9 Ag2 1_555 1_555
H2 C9 1_555 1_555
C10 C9 1_555 1_555
H3 C10 1_555 1_555
C11 C10 1_555 1_555
H4 C11 1_555 1_555
C12 C7 1_555 1_555
H5 C12 1_555 1_555
C13 P1 1_555 1_555
C14 C13 1_555 1_555
H6 C14 1_555 1_555
C15 C14 1_555 1_555
H7 C15 1_555 1_555
C16 C15 1_555 1_555
H8 C16 1_555 1_555
C17 C16 1_555 1_555
H9 C17 1_555 1_555
C18 C13 1_555 1_555
H10 C18 1_555 1_555
C19 P1 1_555 1_555
C20 C19 1_555 1_555
H11 C20 1_555 1_555
C21 C20 1_555 1_555
H12 C21 1_555 1_555
C22 C21 1_555 1_555
H13 C22 1_555 1_555
C23 C22 1_555 1_555
H14 C23 1_555 1_555
C24 C19 1_555 1_555
H15 C24 1_555 1_555
O1 Ag2 1_555 1_555
C25 O1 1_555 1_555
H16 C25 1_555 1_555
H17 C25 1_555 1_555
H18 C25 1_555 1_555
Pt1A Ag1 1_555 1_555
Ag2A Cl2A 1_555 1_555
Ag2A_2 Cl2 1_555 1_555
Ag2_2 Cl2A 1_555 1_555
Cl1A Ag1 1_555 1_555
Cl2A Pt1A 1_555 1_555
Cl2A_2 Ag2 1_555 1_555
Cl2_2 Ag2A 1_555 1_555
P1A Pt1A 1_555 1_555
F1A C2A 1_555 1_555
F2A C3A 1_555 1_555
F3A C4A 1_555 1_555
F4A C5A 1_555 1_555
F5A C6A 1_555 1_555
C1A Pt1A 1_555 1_555
C2A C1A 1_555 1_555
C3A C2A 1_555 1_555
C4A C3A 1_555 1_555
C5A C4A 1_555 1_555
C6A C1A 1_555 1_555
C7A P1A 1_555 1_555
C8A Ag2A 1_555 1_555
H1A C8A 1_555 1_555
C9A Ag2A 1_555 1_555
H2A C9A 1_555 1_555
C10A C9A 1_555 1_555
H3A C10A 1_555 1_555
C11A C10A 1_555 1_555
H4A C11A 1_555 1_555
C12A C7A 1_555 1_555
H5A C12A 1_555 1_555
C13A P1A 1_555 1_555
C14A C13A 1_555 1_555
H6A C14A 1_555 1_555
C15A C14A 1_555 1_555
H7A C15A 1_555 1_555
C16A C15A 1_555 1_555
H8A C16A 1_555 1_555
C17A C16A 1_555 1_555
H9A C17A 1_555 1_555
C18A C13A 1_555 1_555
H10A C18A 1_555 1_555
C19A P1A 1_555 1_555
C20A C19A 1_555 1_555
H11A C20A 1_555 1_555
C21A C20A 1_555 1_555
H12A C21A 1_555 1_555
C22A C21A 1_555 1_555
H13A C22A 1_555 1_555
C23A C22A 1_555 1_555
H14A C23A 1_555 1_555
C24A C19A 1_555 1_555
H15A C24A 1_555 1_555
O1A Ag2A 1_555 1_555
C25A O1A 1_555 1_555
H16A C25A 1_555 1_555
H17A C25A 1_555 1_555
H18A C25A 1_555 1_555
C5 C6 1_555 1_555
C7 C8 1_555 1_555
C8 C9 1_555 1_555
C11 C12 1_555 1_555
C17 C18 1_555 1_555
C23 C24 1_555 1_555
Pt1A Cl1A 1_555 1_555
Ag2A_2 Cl2A_2 1_555 1_555
Ag2_2 Cl2_2 1_555 1_555
C5A C6A 1_555 1_555
C7A C8A 1_555 1_555
C8A C9A 1_555 1_555
C11A C12A 1_555 1_555
C17A C18A 1_555 1_555
C23A C24A 1_555 1_555

#END
