
#######################################################################
#
#                 Cambridge Crystallographic Data Centre
#                                CCDC 
#
#######################################################################
#
# If this CIF has been generated from an entry in the Cambridge 
# Structural Database, then it will include bibliographic, chemical, 
# crystal, experimental, refinement or atomic coordinate data resulting 
# from the CCDC's data processing and validation procedures.
#
#######################################################################

data_MAHHAF
_symmetry_cell_setting           triclinic
_symmetry_space_group_name_H-M   'P -1'
_symmetry_Int_Tables_number      2
_space_group_name_Hall           '-P 1'
loop_
_symmetry_equiv_pos_site_id
_symmetry_equiv_pos_as_xyz
1 x,y,z
2 -x,-y,-z
_cell_length_a                   9.1437(6)
_cell_length_b                   11.4991(10)
_cell_length_c                   11.6975(8)
_cell_angle_alpha                96.2915(18)
_cell_angle_beta                 107.998(3)
_cell_angle_gamma                104.276(4)
_cell_volume                     1110.35
loop_
_atom_site_label
_atom_site_type_symbol
_atom_site_fract_x
_atom_site_fract_y
_atom_site_fract_z
Ti1 Ti -0.00071(6) 0.30256(5) 0.39759(5)
Ti2 Ti -0.30016(7) 0.44062(5) 0.37897(5)
O1 O 0.0450(3) 0.3850(2) 0.2675(2)
O2 O -0.4534(3) 0.5640(2) 0.3840(2)
O3 O -0.2722(3) 0.5026(2) 0.2332(2)
O4 O 0.1722(3) 0.2173(2) 0.3973(2)
O5 O -0.0353(3) 0.1820(2) 0.5041(2)
O6 O -0.1417(3) 0.1692(2) 0.2341(2)
O7 O -0.5980(3) 0.6125(2) 0.4958(2)
O8 O -0.1980(3) 0.3296(2) 0.3883(2)
O9 O -0.5025(3) 0.3323(2) 0.2413(2)
O10 O 0.1351(3) 0.4272(2) 0.5155(2)
O11 O -0.2284(4) 0.1430(3) 0.0298(2)
O12 O 0.3029(3) 0.0974(3) 0.4996(2)
O13 O 0.1018(4) 0.0885(3) 0.6372(3)
O14 O -0.6198(4) 0.2770(3) 0.0371(3)
O15 O -0.3495(4) 0.4575(3) 0.0299(3)
O16 O -0.0218(5) 0.3825(4) 0.0681(3)
C1 C -0.1448(4) 0.2032(3) 0.1337(3)
C2 C -0.3698(4) 0.4406(4) 0.1243(3)
C3 C 0.1987(4) 0.1493(3) 0.4767(3)
C4 C 0.0807(4) 0.1368(3) 0.5479(3)
C5 C -0.0306(5) 0.3340(4) 0.1542(4)
C6 C -0.5133(5) 0.3398(4) 0.1308(3)
C7 C -0.5137(4) 0.5509(3) 0.4645(3)
C7A C -0.4863(4) 0.4491(3) 0.5355(3)
O2A O -0.5466(3) 0.4360(2) 0.6160(2)
O7A O -0.4020(3) 0.3875(2) 0.5042(2)
Ti2A Ti 0.30016(7) 0.55938(5) 0.62103(5)
O10A O -0.1351(3) 0.5728(2) 0.4845(2)
O3A O 0.2722(3) 0.4974(2) 0.7668(2)
O9A O 0.5025(3) 0.6677(2) 0.7587(2)
O14A O 0.6198(4) 0.7230(3) 0.9629(3)
O15A O 0.3495(4) 0.5425(3) 0.9701(3)
C2A C 0.3698(4) 0.5594(4) 0.8757(3)
C6A C 0.5133(5) 0.6602(4) 0.8692(3)
O8A O 0.1980(3) 0.6704(2) 0.6117(2)
Ti1A Ti 0.00071(6) 0.69744(5) 0.60241(5)
O1A O -0.0450(3) 0.6150(2) 0.7325(2)
O6A O 0.1417(3) 0.8308(2) 0.7659(2)
O11A O 0.2284(4) 0.8570(3) 0.9702(2)
O16A O 0.0218(5) 0.6175(4) 0.9319(3)
C1A C 0.1448(4) 0.7968(3) 0.8663(3)
C5A C 0.0306(5) 0.6660(4) 0.8458(4)
O4A O -0.1722(3) 0.7827(2) 0.6027(2)
O5A O 0.0353(3) 0.8180(2) 0.4959(2)
O12A O -0.3029(3) 0.9026(3) 0.5004(2)
O13A O -0.1018(4) 0.9115(3) 0.3628(3)
C3A C -0.1987(4) 0.8507(3) 0.5233(3)
C4A C -0.0807(4) 0.8632(3) 0.4521(3)
Ti2A_2 Ti -0.69984(7) 0.55938(5) 0.62103(5)
O2A_2 O 0.4534(3) 0.4360(2) 0.6160(2)
O7_2 O 0.4020(3) 0.6125(2) 0.4958(2)
C8 C -0.2270(5) 0.3216(3) -0.2222(4)
H1 H -0.2969 0.3433 -0.2922
H2 H -0.2030 0.3844 -0.1510
C9 C -0.0735(5) 0.3256(4) -0.2433(4)
H3 H -0.0935 0.2569 -0.3079
H4 H -0.0384 0.4001 -0.2718
C10 C -0.4721(4) 0.2179(4) -0.1876(4)
H5 H -0.4443 0.2825 -0.1170
H6 H -0.5328 0.2428 -0.2596
C11 C -0.5750(5) 0.1025(5) -0.1707(4)
H7 H -0.5178 0.0802 -0.0958
H8 H -0.6730 0.1154 -0.1638
C12 C -0.4661(5) -0.0194(4) -0.2895(5)
H9 H -0.4944 -0.0843 -0.3599
H10 H -0.4083 -0.0449 -0.2169
C13 C -0.3598(4) 0.0964(3) -0.3053(4)
H11 H -0.2608 0.0825 -0.3089
H12 H -0.4140 0.1168 -0.3823
N1 N 0.0577(4) 0.3213(4) -0.1334(4)
H13 H 0.1457 0.3243 -0.1520
H14 H 0.0279 0.2521 -0.1079
H15 H 0.0786 0.3851 -0.0741
N2 N -0.6155(4) 0.0022(3) -0.2771(3)
H16 H -0.6716 0.0220 -0.3462
H17 H -0.6776 -0.0670 -0.2669
N3 N -0.3202(4) 0.2017(3) -0.2025(3)
H18 H -0.2599 0.1851 -0.1318
O17 O -0.0015(6) -0.0736(4) 0.1554(5)
O18 O 0.1607(4) 0.1527(4) 0.1411(4)
loop_
_geom_bond_atom_site_label_1
_geom_bond_atom_site_label_2
_geom_bond_site_symmetry_1
_geom_bond_site_symmetry_2
Ti1 O1 1_555 1_555
Ti2 O2 1_555 1_555
O1 C5 1_555 1_555
O2 C7 1_555 1_555
O3 Ti2 1_555 1_555
O4 Ti1 1_555 1_555
O5 Ti1 1_555 1_555
O6 Ti1 1_555 1_555
O7 C7 1_555 1_555
O8 Ti1 1_555 1_555
O9 Ti2 1_555 1_555
O10 Ti1 1_555 1_555
O11 C1 1_555 1_555
O12 C3 1_555 1_555
O13 C4 1_555 1_555
O14 C6 1_555 1_555
O15 C2 1_555 1_555
O16 C5 1_555 1_555
C1 O6 1_555 1_555
C2 O3 1_555 1_555
C3 O4 1_555 1_555
C4 O5 1_555 1_555
C5 C1 1_555 1_555
C6 O9 1_555 1_555
C7 C7A 1_555 1_555
C8 H1 1_555 1_555
H2 C8 1_555 1_555
C9 C8 1_555 1_555
H3 C9 1_555 1_555
H4 C9 1_555 1_555
C10 H5 1_555 1_555
H6 C10 1_555 1_555
C11 C10 1_555 1_555
H7 C11 1_555 1_555
H8 C11 1_555 1_555
C12 H9 1_555 1_555
H10 C12 1_555 1_555
C13 C12 1_555 1_555
H11 C13 1_555 1_555
H12 C13 1_555 1_555
N1 C9 1_555 1_555
H13 N1 1_555 1_555
H14 N1 1_555 1_555
H15 N1 1_555 1_555
N2 C11 1_555 1_555
H16 N2 1_555 1_555
H17 N2 1_555 1_555
N3 C8 1_555 1_555
H18 N3 1_555 1_555
C7A O2A 1_555 1_555
O2A Ti2A_2 1_555 1_555
O7A Ti2 1_555 1_555
Ti2A O10 1_555 1_555
O10A Ti2 1_555 1_555
O3A Ti2A 1_555 1_555
O9A Ti2A 1_555 1_555
O14A C6A 1_555 1_555
O15A C2A 1_555 1_555
C2A O3A 1_555 1_555
C6A O9A 1_555 1_555
O8A Ti2A 1_555 1_555
Ti1A O10A 1_555 1_555
O1A Ti1A 1_555 1_555
O6A Ti1A 1_555 1_555
O11A C1A 1_555 1_555
O16A C5A 1_555 1_555
C1A O6A 1_555 1_555
C5A O1A 1_555 1_555
O4A Ti1A 1_555 1_555
O5A Ti1A 1_555 1_555
O12A C3A 1_555 1_555
O13A C4A 1_555 1_555
C3A O4A 1_555 1_555
C4A O5A 1_555 1_555
Ti2A_2 O7 1_555 1_555
O2A_2 Ti2A 1_555 1_555
O7_2 Ti2A 1_555 1_555
Ti2 O8 1_555 1_555
C2 C6 1_555 1_555
C3 C4 1_555 1_555
C10 N3 1_555 1_555
C12 N2 1_555 1_555
C13 N3 1_555 1_555
C7A O7A 1_555 1_555
C2A C6A 1_555 1_555
O8A Ti1A 1_555 1_555
C1A C5A 1_555 1_555
C3A C4A 1_555 1_555

#END
