
#######################################################################
#
#                 Cambridge Crystallographic Data Centre
#                                CCDC 
#
#######################################################################
#
# If this CIF has been generated from an entry in the Cambridge 
# Structural Database, then it will include bibliographic, chemical, 
# crystal, experimental, refinement or atomic coordinate data resulting 
# from the CCDC's data processing and validation procedures.
#
#######################################################################

data_MAHJUB
_symmetry_cell_setting           monoclinic
_symmetry_space_group_name_H-M   'P 21/n'
_symmetry_Int_Tables_number      14
_space_group_name_Hall           '-P 2yn'
loop_
_symmetry_equiv_pos_site_id
_symmetry_equiv_pos_as_xyz
1 x,y,z
2 1/2+x,1/2-y,1/2+z
3 -x,-y,-z
4 1/2-x,1/2+y,1/2-z
_cell_length_a                   5.936(2)
_cell_length_b                   7.203(3)
_cell_length_c                   19.356(8)
_cell_angle_alpha                90
_cell_angle_beta                 95.264(6)
_cell_angle_gamma                90
_cell_volume                     824.114
loop_
_atom_site_label
_atom_site_type_symbol
_atom_site_fract_x
_atom_site_fract_y
_atom_site_fract_z
Zn1 Zn 0.25070(8) 0.28080(6) 0.63037(2)
Na1 Na 1.3280(5) 0.7720(4) 0.53086(14)
O1 O 0.4302(5) 0.4581(4) 0.70058(15)
O2 O 0.7578(5) 0.5798(4) 0.74154(15)
O3 O 1.0776(4) 0.5096(4) 0.58678(14)
O4 O 0.7616(5) 0.6759(4) 0.57516(16)
O5 O 0.5895(5) 0.2997(4) 0.59767(14)
O6 O 0.9263(5) 0.2749(4) 0.66897(16)
O7 O 0.1703(6) 0.1333(5) 0.54316(17)
O8 O 0.3188(7) 0.0493(5) 0.69043(18)
C1 C 0.6366(7) 0.4864(5) 0.6986(2)
C2 C 0.7582(6) 0.3955(5) 0.64029(19)
C3 C 0.8759(7) 0.5410(5) 0.59730(19)
H1 H 0.874(8) 0.207(6) 0.699(3)
H2 H 0.214(7) 0.053(6) 0.536(2)
H3 H 0.173(7) 0.184(6) 0.494(3)
H4 H 0.441(10) 0.051(8) 0.703(3)
H5 H 0.230(10) 0.012(8) 0.713(3)
O3_2 O 0.0776(4) 0.5096(4) 0.58678(14)
O6_2 O -0.0737(5) 0.2749(4) 0.66897(16)
O4_2 O 1.7616(5) 0.6759(4) 0.57516(16)
O5B O 1.4105(5) 0.7003(4) 0.40233(14)
O7_2 O 1.1703(6) 1.1333(5) 0.54316(17)
Zn1_2 Zn 1.25070(8) 0.28080(6) 0.63037(2)
Na1_2 Na 0.3280(5) 0.7720(4) 0.53086(14)
Na1B Na 0.6720(5) 0.2280(4) 0.46914(14)
Na1_3 Na 0.3280(5) -0.2280(4) 0.53086(14)
H1_2 H -0.126(8) 0.207(6) 0.699(3)
H2_2 H 1.214(7) 1.053(6) 0.536(2)
H3_2 H 1.173(7) 1.184(6) 0.494(3)
loop_
_geom_bond_atom_site_label_1
_geom_bond_atom_site_label_2
_geom_bond_site_symmetry_1
_geom_bond_site_symmetry_2
Zn1 O1 1_555 1_555
Na1 O3 1_555 1_555
O1 C1 1_555 1_555
O2 C1 1_555 1_555
O3 C3 1_555 1_555
O4 C3 1_555 1_555
O5 Zn1 1_555 1_555
O6 C2 1_555 1_555
O7 Zn1 1_555 1_555
O8 Zn1 1_555 1_555
C1 C2 1_555 1_555
C2 O5 1_555 1_555
C3 C2 1_555 1_555
H1 O6 1_555 1_555
H2 O7 1_555 1_555
H3 O7 1_555 1_555
H4 O8 1_555 1_555
H5 O8 1_555 1_555
O3_2 Zn1 1_555 1_555
O6_2 Zn1 1_555 1_555
O4_2 Na1 1_555 1_555
O5B Na1 1_555 1_555
O7_2 Na1 1_555 1_555
Zn1_2 O3 1_555 1_555
Na1_2 O4 1_555 1_555
Na1B O5 1_555 1_555
Na1_3 O7 1_555 1_555
H1_2 O6_2 1_555 1_555
H2_2 O7_2 1_555 1_555
H3_2 O7_2 1_555 1_555
O6 Zn1_2 1_555 1_555
O3_2 Na1_2 1_555 1_555

#END
