
#######################################################################
#
#                 Cambridge Crystallographic Data Centre
#                                CCDC 
#
#######################################################################
#
# If this CIF has been generated from an entry in the Cambridge 
# Structural Database, then it will include bibliographic, chemical, 
# crystal, experimental, refinement or atomic coordinate data resulting 
# from the CCDC's data processing and validation procedures.
#
#######################################################################

data_MAHKEM
_symmetry_cell_setting           monoclinic
_symmetry_space_group_name_H-M   'P 21/n'
_symmetry_Int_Tables_number      14
_space_group_name_Hall           '-P 2yn'
loop_
_symmetry_equiv_pos_site_id
_symmetry_equiv_pos_as_xyz
1 x,y,z
2 1/2+x,1/2-y,1/2+z
3 -x,-y,-z
4 1/2-x,1/2+y,1/2-z
_cell_length_a                   9.412(1)
_cell_length_b                   18.019(2)
_cell_length_c                   22.522(4)
_cell_angle_alpha                90
_cell_angle_beta                 100.43(1)
_cell_angle_gamma                90
_cell_volume                     3756.5
loop_
_atom_site_label
_atom_site_type_symbol
_atom_site_fract_x
_atom_site_fract_y
_atom_site_fract_z
Pr1 Pr 0.74008(2) 0.510473(10) 0.514052(9)
S1 S 0.46999(13) 0.25334(6) 0.63121(5)
S2 S 1.05829(18) 0.57687(10) 0.23170(6)
S3 S 0.87443(13) 0.14658(6) 0.55306(7)
O1 O 0.3835(4) 0.22640(17) 0.57685(14)
O2 O 0.6232(4) 0.24219(19) 0.64151(15)
O3 O 0.6963(3) 0.49849(15) 0.62081(12)
O4 O 0.4889(3) 0.49093(14) 0.55962(11)
O5 O 1.1149(5) 0.5072(3) 0.21618(19)
O6 O 1.1153(5) 0.6445(3) 0.21206(18)
O7 O 0.8103(3) 0.58171(14) 0.43092(12)
O8 O 1.0398(3) 0.54934(15) 0.43815(13)
O9 O 0.9302(4) 0.15254(19) 0.61631(18)
O10 O 0.9710(4) 0.15146(19) 0.5114(2)
O11 O 0.7938(3) 0.41080(14) 0.44199(12)
O12 O 0.6691(3) 0.37251(13) 0.50970(12)
O13 O 0.9159(3) 0.60398(16) 0.56491(14)
O14 O 0.6248(3) 0.63483(16) 0.52421(17)
N1 N 0.4422(4) 0.34078(19) 0.63196(16)
N2 N 1.0737(5) 0.5762(3) 0.30376(18)
N3 N 0.7600(4) 0.21228(19) 0.53795(18)
C1 C 0.2646(5) 0.1964(2) 0.6892(2)
H1 H 0.1994 0.2056 0.6537
C2 C 0.2183(6) 0.1656(3) 0.7386(3)
H2 H 0.1208 0.1553 0.7369
C3 C 0.3160(9) 0.1504(3) 0.7900(3)
H3 H 0.2848 0.1289 0.8229
C4 C 0.4594(8) 0.1666(3) 0.7933(3)
H4 H 0.5250 0.1554 0.8282
C5 C 0.5068(6) 0.1992(3) 0.7455(2)
H5 H 0.6036 0.2117 0.7482
C6 C 0.4089(5) 0.2132(2) 0.69335(19)
C7 C 0.5098(5) 0.3875(2) 0.68228(18)
H6 H 0.6119 0.3758 0.6926
H7 H 0.4662 0.3774 0.7173
C8 C 0.4909(5) 0.4689(2) 0.66546(18)
H8 H 0.3886 0.4804 0.6553
H9 H 0.5325 0.4991 0.6999
C9 C 0.5626(4) 0.4876(2) 0.61242(17)
C10 C 0.8008(7) 0.6436(3) 0.1885(2)
H10 H 0.8506 0.6884 0.1937
C11 C 0.6538(7) 0.6429(3) 0.1663(3)
H11 H 0.6055 0.6876 0.1568
C12 C 0.5787(7) 0.5780(4) 0.1581(3)
H12 H 0.4798 0.5781 0.1434
C13 C 0.6510(9) 0.5130(4) 0.1718(3)
H13 H 0.6011 0.4682 0.1660
C14 C 0.7962(8) 0.5128(3) 0.1941(3)
H14 H 0.8439 0.4679 0.2034
C15 C 0.8728(6) 0.5784(3) 0.2029(2)
C16 C 1.0750(5) 0.6430(3) 0.3399(2)
H15 H 1.0761 0.6861 0.3142
H16 H 1.1625 0.6439 0.3702
C17 C 0.9464(5) 0.6475(2) 0.3706(2)
H17 H 0.8600 0.6463 0.3397
H18 H 0.9486 0.6952 0.3906
C18 C 0.9332(4) 0.5877(2) 0.41635(17)
C19 C 0.8035(6) 0.0191(3) 0.4899(3)
H19 H 0.8614 0.0362 0.4634
C20 C 0.7340(7) -0.0492(3) 0.4802(3)
H20 H 0.7468 -0.0782 0.4474
C21 C 0.6480(7) -0.0740(3) 0.5181(3)
H21 H 0.6012 -0.1195 0.5111
C22 C 0.6303(7) -0.0319(3) 0.5668(3)
H22 H 0.5719 -0.0491 0.5931
C23 C 0.6982(6) 0.0359(3) 0.5773(2)
H23 H 0.6847 0.0644 0.6102
C24 C 0.7851(5) 0.0611(2) 0.5393(2)
C25 C 0.6753(5) 0.2220(2) 0.4771(2)
H24 H 0.5768 0.2348 0.4801
H25 H 0.6729 0.1754 0.4554
C26 C 0.7366(5) 0.2819(2) 0.4416(2)
H26 H 0.8361 0.2695 0.4400
H27 H 0.6831 0.2816 0.4005
C27 C 0.7324(4) 0.3593(2) 0.46656(18)
H28 H 0.358(2) 0.353(2) 0.6123(16)
H29 H 1.133(4) 0.5410(19) 0.316(2)
H30 H 0.720(4) 0.225(2) 0.5676(13)
H31 H 1.0035(13) 0.600(3) 0.570(2)
H32 H 0.895(4) 0.6471(9) 0.5573(18)
H33 H 0.5407(19) 0.642(3) 0.5082(18)
H34 H 0.636(8) 0.645(4) 0.5602(10)
O4B O 0.5111(3) 0.50907(14) 0.44038(11)
O8B O 0.9602(3) 0.45066(15) 0.56185(13)
Pr1B Pr 0.25992(2) 0.489527(10) 0.485948(9)
Pr1B_2 Pr 1.25992(2) 0.489527(10) 0.485948(9)
O15 O 0.8481(5) 0.7480(2) 0.5357(3)
H35 H 0.881(8) 0.761(5) 0.5703(12)
H36 H 0.895(8) 0.766(5) 0.512(3)
O16 O 0.6647(6) 0.6094(3) 0.7636(3)
H37 H 0.739(4) 0.584(3) 0.770(3)
O17 O 0.6047(6) 0.6783(4) 0.6496(2)
O18 O 0.7390(11) 0.7862(5) 0.6348(5)
loop_
_geom_bond_atom_site_label_1
_geom_bond_atom_site_label_2
_geom_bond_site_symmetry_1
_geom_bond_site_symmetry_2
Pr1 O3 1_555 1_555
S1 O1 1_555 1_555
S2 O5 1_555 1_555
S3 O9 1_555 1_555
O2 S1 1_555 1_555
O3 C9 1_555 1_555
O4 Pr1 1_555 1_555
O6 S2 1_555 1_555
O7 Pr1 1_555 1_555
O8 C18 1_555 1_555
O10 S3 1_555 1_555
O11 Pr1 1_555 1_555
O12 Pr1 1_555 1_555
O13 Pr1 1_555 1_555
O14 Pr1 1_555 1_555
N1 S1 1_555 1_555
N2 S2 1_555 1_555
N3 S3 1_555 1_555
C1 H1 1_555 1_555
C2 C1 1_555 1_555
H2 C2 1_555 1_555
C3 C2 1_555 1_555
H3 C3 1_555 1_555
C4 C3 1_555 1_555
H4 C4 1_555 1_555
C5 C4 1_555 1_555
H5 C5 1_555 1_555
C6 S1 1_555 1_555
C7 N1 1_555 1_555
H6 C7 1_555 1_555
H7 C7 1_555 1_555
C8 C7 1_555 1_555
H8 C8 1_555 1_555
H9 C8 1_555 1_555
C9 O4 1_555 1_555
C10 H10 1_555 1_555
C11 C10 1_555 1_555
H11 C11 1_555 1_555
C12 C11 1_555 1_555
H12 C12 1_555 1_555
C13 C12 1_555 1_555
H13 C13 1_555 1_555
C14 C13 1_555 1_555
H14 C14 1_555 1_555
C15 S2 1_555 1_555
C16 N2 1_555 1_555
H15 C16 1_555 1_555
H16 C16 1_555 1_555
C17 C16 1_555 1_555
H17 C17 1_555 1_555
H18 C17 1_555 1_555
C18 O7 1_555 1_555
C19 H19 1_555 1_555
C20 C19 1_555 1_555
H20 C20 1_555 1_555
C21 C20 1_555 1_555
H21 C21 1_555 1_555
C22 C21 1_555 1_555
H22 C22 1_555 1_555
C23 C22 1_555 1_555
H23 C23 1_555 1_555
C24 S3 1_555 1_555
C25 N3 1_555 1_555
H24 C25 1_555 1_555
H25 C25 1_555 1_555
C26 C25 1_555 1_555
H26 C26 1_555 1_555
H27 C26 1_555 1_555
C27 O11 1_555 1_555
O15 H35 1_555 1_555
O16 H37 1_555 1_555
H28 N1 1_555 1_555
H29 N2 1_555 1_555
H30 N3 1_555 1_555
H31 O13 1_555 1_555
H32 O13 1_555 1_555
H33 O14 1_555 1_555
H34 O14 1_555 1_555
H36 O15 1_555 1_555
O4B Pr1 1_555 1_555
O8B Pr1 1_555 1_555
Pr1B O4 1_555 1_555
Pr1B_2 O8 1_555 1_555
O12 C27 1_555 1_555
C1 C6 1_555 1_555
C5 C6 1_555 1_555
C8 C9 1_555 1_555
C10 C15 1_555 1_555
C14 C15 1_555 1_555
C17 C18 1_555 1_555
C19 C24 1_555 1_555
C23 C24 1_555 1_555
C26 C27 1_555 1_555
O4B Pr1B 1_555 1_555

#END
