
#######################################################################
#
#                 Cambridge Crystallographic Data Centre
#                                CCDC 
#
#######################################################################
#
# If this CIF has been generated from an entry in the Cambridge 
# Structural Database, then it will include bibliographic, chemical, 
# crystal, experimental, refinement or atomic coordinate data resulting 
# from the CCDC's data processing and validation procedures.
#
#######################################################################

data_MAHMEP
_symmetry_cell_setting           triclinic
_symmetry_space_group_name_H-M   'P -1'
_symmetry_Int_Tables_number      2
_space_group_name_Hall           '-P 1'
loop_
_symmetry_equiv_pos_site_id
_symmetry_equiv_pos_as_xyz
1 x,y,z
2 -x,-y,-z
_cell_length_a                   14.4780(9)
_cell_length_b                   14.9423(9)
_cell_length_c                   15.0134(10)
_cell_angle_alpha                110.035(1)
_cell_angle_beta                 98.355(1)
_cell_angle_gamma                92.026(1)
_cell_volume                     3006.29
loop_
_atom_site_label
_atom_site_type_symbol
_atom_site_fract_x
_atom_site_fract_y
_atom_site_fract_z
Ag1 Ag 0.23391(2) 0.17775(2) 1.04968(3)
Ag2 Ag 0.27564(3) 0.31355(2) 0.62265(3)
Ag3 Ag 0.20468(3) 0.76055(3) 1.24220(3)
N1 N 0.3186(2) 0.0958(2) 1.1524(2)
N2 N 0.3880(3) 0.3154(3) 1.2391(3)
N3 N 0.2770(3) 0.6222(3) 1.2143(3)
N4 N 0.1183(3) 0.1318(3) 1.1213(3)
N5 N -0.1210(3) 0.2049(3) 0.8818(3)
N6 N 0.2953(3) 0.0380(3) 0.9377(3)
N7 N 0.3561(3) 0.4401(3) 0.5751(3)
N8 N 0.1711(3) 0.3366(3) 0.5051(3)
N9 N -0.0976(3) 0.2667(3) 0.6628(3)
N10 N 0.4213(3) 0.2437(3) 0.5386(3)
N11 N 0.2985(4) 0.4726(3) 0.7704(3)
N12 N 0.2423(3) 0.2998(2) 0.9956(2)
N13 N 0.2943(3) -0.1015(3) 0.3467(3)
N14 N 0.2900(3) 0.2066(3) 0.6967(2)
C1 C 0.3827(3) 0.1526(3) 1.2418(3)
H1 H 0.4245 0.1093 1.2615
H2 H 0.3450 0.1793 1.2932
C2 C 0.4423(3) 0.2336(3) 1.2344(3)
H3 H 0.4965 0.2535 1.2876
H4 H 0.4668 0.2117 1.1730
C3 C 0.4078(3) 0.3652(3) 1.1906(3)
H5 H 0.4532 0.3464 1.1496
C4 C 0.3607(3) 0.4533(3) 1.1973(3)
C5 C 0.3947(3) 0.5182(3) 1.1600(3)
H6 H 0.4473 0.5058 1.1279
C6 C 0.3512(3) 0.6014(3) 1.1699(3)
H7 H 0.3752 0.6455 1.1440
C7 C 0.2429(3) 0.5578(3) 1.2477(4)
H8 H 0.1890 0.5709 1.2777
C8 C 0.2821(3) 0.4736(3) 1.2410(3)
H9 H 0.2556 0.4300 1.2659
C9 C 0.2409(3) 0.0471(3) 1.1772(3)
H10 H 0.2655 0.0257 1.2309
H11 H 0.2142 -0.0103 1.1212
C10 C 0.1642(3) 0.1124(4) 1.2062(4)
H12 H 0.1177 0.0814 1.2313
H13 H 0.1914 0.1731 1.2576
C11 C 0.0313(3) 0.1395(4) 1.1137(4)
H14 H -0.0012 0.1318 1.1616
C12 C -0.0212(3) 0.1602(3) 1.0322(4)
C13 C 0.0047(3) 0.1295(3) 0.9416(4)
H15 H 0.0568 0.0927 0.9296
C14 C -0.0464(3) 0.1535(4) 0.8697(4)
H16 H -0.0280 0.1326 0.8081
C15 C -0.1462(3) 0.2315(4) 0.9680(4)
H17 H -0.1991 0.2674 0.9776
C16 C -0.1004(3) 0.2103(4) 1.0445(4)
H18 H -0.1224 0.2295 1.1043
C17 C 0.3726(3) 0.0255(3) 1.0902(3)
H19 H 0.3906 -0.0216 1.1210
H20 H 0.4310 0.0593 1.0861
C18 C 0.3214(4) -0.0278(3) 0.9894(3)
H21 H 0.3620 -0.0742 0.9536
H22 H 0.2641 -0.0640 0.9925
C19 C 0.3386(4) 0.0321(3) 0.8687(3)
H23 H 0.3849 -0.0119 0.8556
C20 C 0.3199(3) 0.0908(3) 0.8081(3)
C21 C 0.3930(4) 0.1237(4) 0.7742(3)
H24 H 0.4547 0.1066 0.7878
C22 C 0.3753(3) 0.1816(4) 0.7202(3)
H25 H 0.4264 0.2049 0.6986
C23 C 0.2308(3) 0.1156(3) 0.7839(3)
H26 H 0.1788 0.0943 0.8056
C24 C 0.2190(3) 0.1721(3) 0.7276(3)
H27 H 0.1575 0.1873 0.7098
C25 C 0.2863(4) 0.4573(4) 0.5019(3)
H28 H 0.3191 0.4810 0.4597
H29 H 0.2467 0.5071 0.5341
C26 C 0.2243(4) 0.3652(4) 0.4410(3)
H30 H 0.1808 0.3763 0.3894
H31 H 0.2636 0.3140 0.4110
C27 C 0.0821(4) 0.3311(4) 0.4877(3)
H32 H 0.0531 0.3415 0.4315
C28 C 0.0218(4) 0.3097(3) 0.5489(3)
C29 C -0.0712(4) 0.2790(5) 0.5128(4)
H33 H -0.0964 0.2726 0.4487
C30 C -0.1279(4) 0.2574(5) 0.5710(4)
H34 H -0.1916 0.2349 0.5444
C31 C -0.0084(3) 0.2993(3) 0.6972(4)
H35 H 0.0145 0.3076 0.7624
C32 C 0.0529(3) 0.3218(3) 0.6450(3)
H36 H 0.1159 0.3455 0.6740
C33 C 0.4414(4) 0.4053(4) 0.5374(4)
H37 H 0.4886 0.4605 0.5535
H38 H 0.4262 0.3763 0.4664
C34 C 0.4836(4) 0.3325(4) 0.5767(4)
H39 H 0.5459 0.3198 0.5576
H40 H 0.4920 0.3576 0.6478
C35 C 0.4545(3) 0.1678(3) 0.4925(3)
H41 H 0.5191 0.1707 0.4873
C36 C 0.3980(3) 0.0749(3) 0.4462(3)
C37 C 0.4386(3) -0.0030(3) 0.3901(3)
H42 H 0.5030 0.0028 0.3848
C38 C 0.3036(4) 0.0623(4) 0.4515(4)
H43 H 0.2731 0.1137 0.4892
C39 C 0.3788(4) 0.5258(3) 0.6621(3)
H44 H 0.3903 0.5819 0.6432
H45 H 0.4374 0.5185 0.7011
C40 C 0.3021(5) 0.5444(3) 0.7234(4)
H46 H 0.3146 0.6093 0.7729
H47 H 0.2409 0.5410 0.6826
C41 C 0.2575(4) 0.4934(3) 0.8425(3)
H48 H 0.2294 0.5520 0.8621
C42 C 0.1718(3) 0.3551(3) 0.9877(4)
H49 H 0.1182 0.3496 1.0158
C43 C 0.1752(4) 0.4195(3) 0.9400(4)
H50 H 0.1250 0.4580 0.9366
C44 C 0.2524(3) 0.4276(3) 0.8974(3)
C45 C 0.3266(3) 0.3731(3) 0.9086(3)
H51 H 0.3817 0.3782 0.8826
C46 C 0.3183(3) 0.3116(3) 0.9583(3)
H52 H 0.3696 0.2756 0.9665
C47 C 0.3847(3) -0.0886(3) 0.3422(3)
H53 H 0.4136 -0.1411 0.3041
C48 C 0.2545(4) -0.0263(4) 0.4009(4)
H54 H 0.1900 -0.0342 0.4046
Ag3A Ag -0.20468(3) 0.23945(3) 0.75780(3)
Ag3_2 Ag 0.20468(3) -0.23945(3) 0.24220(3)
N5A N 0.1210(3) 0.7951(3) 1.1182(3)
N9A N 0.0976(3) 0.7333(3) 1.3372(3)
N13_2 N 0.2943(3) 0.8985(3) 1.3467(3)
Cl1 Cl 0.41720(7) 0.74860(7) 1.00834(7)
O1 O 0.4908(2) 0.8119(2) 1.0018(2)
O2 O 0.3857(2) 0.7898(2) 1.0987(2)
O3 O 0.3408(3) 0.7357(3) 0.9321(3)
O4 O 0.4514(3) 0.6580(2) 1.0007(3)
Cl2 Cl 0.01110(14) 0.42059(12) 1.24965(17)
O5 O 0.0646(4) 0.4890(4) 1.3342(4)
O6 O -0.0722(6) 0.3839(9) 1.2680(8)
O7 O -0.0111(8) 0.4616(6) 1.1788(5)
O8 O 0.0662(5) 0.3446(5) 1.2141(6)
Cl3 Cl 0.02825(16) -0.03634(15) 0.63884(17)
O9 O 0.0547(6) -0.0502(6) 0.7268(5)
O10 O 0.0063(5) 0.0609(4) 0.6615(5)
O11 O -0.0560(4) -0.0956(5) 0.5895(5)
O12 O 0.0950(5) -0.0472(6) 0.5762(5)
O17 O 0.2288(9) -0.2080(9) 0.7354(9)
Cl4? Cl 0.33392(16) -0.16026(18) 0.6240(2)
O13? O 0.3406(6) -0.2576(4) 0.5867(5)
O14? O 0.4133(4) -0.1149(5) 0.6929(5)
O15? O 0.3268(8) -0.1171(7) 0.5526(7)
O16? O 0.2508(6) -0.1433(9) 0.6661(8)
O18? O 0.2969(10) -0.1976(10) 0.6765(10)
Cl5? Cl -0.0190(6) 0.4237(5) 1.2893(6)
O19? O 0.0660(10) 0.4840(14) 1.3296(15)
O20? O -0.0795(10) 0.4436(14) 1.3589(13)
O21? O -0.0638(11) 0.4412(12) 1.2075(10)
O22? O 0.0009(9) 0.3270(6) 1.2623(9)
loop_
_geom_bond_atom_site_label_1
_geom_bond_atom_site_label_2
_geom_bond_site_symmetry_1
_geom_bond_site_symmetry_2
Ag1 N1 1_555 1_555
Ag2 N7 1_555 1_555
Ag3 N3 1_555 1_555
N1 C1 1_555 1_555
N2 C2 1_555 1_555
N3 C6 1_555 1_555
N4 Ag1 1_555 1_555
N5 C14 1_555 1_555
N6 Ag1 1_555 1_555
N7 C25 1_555 1_555
N8 Ag2 1_555 1_555
N9 C30 1_555 1_555
N10 C34 1_555 1_555
N11 Ag2 1_555 1_555
N12 Ag1 1_555 1_555
N13 C47 1_555 1_555
N14 Ag2 1_555 1_555
C1 H1 1_555 1_555
H2 C1 1_555 1_555
C2 C1 1_555 1_555
H3 C2 1_555 1_555
H4 C2 1_555 1_555
C3 N2 1_555 1_555
H5 C3 1_555 1_555
C4 C3 1_555 1_555
C5 C4 1_555 1_555
H6 C5 1_555 1_555
C6 C5 1_555 1_555
H7 C6 1_555 1_555
C7 N3 1_555 1_555
H8 C7 1_555 1_555
C8 C4 1_555 1_555
H9 C8 1_555 1_555
C9 N1 1_555 1_555
H10 C9 1_555 1_555
H11 C9 1_555 1_555
C10 N4 1_555 1_555
H12 C10 1_555 1_555
H13 C10 1_555 1_555
C11 N4 1_555 1_555
H14 C11 1_555 1_555
C12 C11 1_555 1_555
C13 C12 1_555 1_555
H15 C13 1_555 1_555
C14 C13 1_555 1_555
H16 C14 1_555 1_555
C15 N5 1_555 1_555
H17 C15 1_555 1_555
C16 C12 1_555 1_555
H18 C16 1_555 1_555
C17 N1 1_555 1_555
H19 C17 1_555 1_555
H20 C17 1_555 1_555
C18 N6 1_555 1_555
H21 C18 1_555 1_555
H22 C18 1_555 1_555
C19 N6 1_555 1_555
H23 C19 1_555 1_555
C20 C19 1_555 1_555
C21 C20 1_555 1_555
H24 C21 1_555 1_555
C22 N14 1_555 1_555
H25 C22 1_555 1_555
C23 C20 1_555 1_555
H26 C23 1_555 1_555
C24 N14 1_555 1_555
H27 C24 1_555 1_555
C25 H28 1_555 1_555
H29 C25 1_555 1_555
C26 N8 1_555 1_555
H30 C26 1_555 1_555
H31 C26 1_555 1_555
C27 N8 1_555 1_555
H32 C27 1_555 1_555
C28 C27 1_555 1_555
C29 C28 1_555 1_555
H33 C29 1_555 1_555
C30 C29 1_555 1_555
H34 C30 1_555 1_555
C31 N9 1_555 1_555
H35 C31 1_555 1_555
C32 C28 1_555 1_555
H36 C32 1_555 1_555
C33 N7 1_555 1_555
H37 C33 1_555 1_555
H38 C33 1_555 1_555
C34 C33 1_555 1_555
H39 C34 1_555 1_555
H40 C34 1_555 1_555
C35 N10 1_555 1_555
H41 C35 1_555 1_555
C36 C35 1_555 1_555
C37 C36 1_555 1_555
H42 C37 1_555 1_555
C38 C36 1_555 1_555
H43 C38 1_555 1_555
C39 N7 1_555 1_555
H44 C39 1_555 1_555
H45 C39 1_555 1_555
C40 N11 1_555 1_555
H46 C40 1_555 1_555
H47 C40 1_555 1_555
C41 N11 1_555 1_555
H48 C41 1_555 1_555
C42 N12 1_555 1_555
H49 C42 1_555 1_555
C43 C42 1_555 1_555
H50 C43 1_555 1_555
C44 C41 1_555 1_555
C45 C44 1_555 1_555
H51 C45 1_555 1_555
C46 N12 1_555 1_555
H52 C46 1_555 1_555
C47 C37 1_555 1_555
H53 C47 1_555 1_555
C48 N13 1_555 1_555
H54 C48 1_555 1_555
Cl1 O1 1_555 1_555
O2 Cl1 1_555 1_555
O3 Cl1 1_555 1_555
O4 Cl1 1_555 1_555
Cl2 O5 1_555 1_555
O6 Cl2 1_555 1_555
O7 Cl2 1_555 1_555
O8 Cl2 1_555 1_555
Cl3 O9 1_555 1_555
O10 Cl3 1_555 1_555
O11 Cl3 1_555 1_555
O12 Cl3 1_555 1_555
Ag3A N5 1_555 1_555
Ag3_2 N13 1_555 1_555
N5A Ag3 1_555 1_555
N9A Ag3 1_555 1_555
N13_2 Ag3 1_555 1_555
N9 Ag3A 1_555 1_555
C7 C8 1_555 1_555
C9 C10 1_555 1_555
C15 C16 1_555 1_555
C17 C18 1_555 1_555
C21 C22 1_555 1_555
C23 C24 1_555 1_555
C25 C26 1_555 1_555
C31 C32 1_555 1_555
C38 C48 1_555 1_555
C39 C40 1_555 1_555
C43 C44 1_555 1_555
C45 C46 1_555 1_555

#END
