
#######################################################################
#
#                 Cambridge Crystallographic Data Centre
#                                CCDC 
#
#######################################################################
#
# If this CIF has been generated from an entry in the Cambridge 
# Structural Database, then it will include bibliographic, chemical, 
# crystal, experimental, refinement or atomic coordinate data resulting 
# from the CCDC's data processing and validation procedures.
#
#######################################################################

data_MAHSOE
_symmetry_cell_setting           triclinic
_symmetry_space_group_name_H-M   'P -1'
_symmetry_Int_Tables_number      2
_space_group_name_Hall           '-P 1'
loop_
_symmetry_equiv_pos_site_id
_symmetry_equiv_pos_as_xyz
1 x,y,z
2 -x,-y,-z
_cell_length_a                   7.416(3)
_cell_length_b                   14.319(6)
_cell_length_c                   18.883(7)
_cell_angle_alpha                101.449(9)
_cell_angle_beta                 93.000(10)
_cell_angle_gamma                104.107(8)
_cell_volume                     1895.28
loop_
_atom_site_label
_atom_site_type_symbol
_atom_site_fract_x
_atom_site_fract_y
_atom_site_fract_z
Ag1 Ag 0.89734(2) 0.885600(10) 0.738680(10)
S1 S 0.70919(8) 0.88346(4) 0.62367(3)
S2 S 0.76734(8) 0.90639(4) 0.86139(3)
N1 N 1.1530(3) 1.0276(2) 0.75840(10)
N2 N 1.0607(3) 0.7677(2) 0.73940(10)
C1 C 0.7808(3) 1.0125(2) 0.52710(10)
C2 C 0.8066(3) 1.1097(2) 0.52000(10)
C3 C 0.7259(3) 1.1318(2) 0.45970(10)
C4 C 0.6150(3) 1.0565(2) 0.40470(10)
C5 C 0.6021(3) 0.9592(2) 0.40870(10)
C6 C 0.6853(3) 0.9374(2) 0.46870(10)
C7 C 0.8535(3) 0.9910(2) 0.59650(10)
C8 C 0.5009(3) 0.9214(2) 0.65470(10)
C9 C 0.4089(3) 0.8735(2) 0.90630(10)
C10 C 0.4243(3) 0.8250(2) 0.96220(10)
C11 C 0.3501(3) 0.8510(2) 1.02680(10)
C12 C 0.2593(3) 0.9261(2) 1.03720(10)
C13 C 0.2322(3) 0.9689(2) 0.97930(10)
C14 C 0.3063(3) 0.9430(2) 0.91450(10)
C15 C 0.5140(3) 0.8587(2) 0.84040(10)
C16 C 0.8035(4) 1.0396(2) 0.88960(10)
C17 C 1.2281(4) 1.1083(2) 0.77310(10)
C18 C 1.3237(5) 1.2122(2) 0.7925(2)
C19 C 1.1005(3) 0.6979(2) 0.74630(10)
C20 C 1.1488(3) 0.6083(2) 0.75490(10)
H1 H 0.872(3) 1.164(2) 0.5590(10)
H2 H 0.737(3) 1.202(2) 0.4560(10)
H3 H 0.537(3) 0.909(2) 0.3730(10)
H4 H 0.672(3) 0.872(2) 0.4710(10)
H5 H 0.868(3) 1.047(2) 0.6350(10)
H6 H 0.976(4) 0.975(2) 0.5920(10)
H7 H 0.546(3) 0.978(2) 0.6920(10)
H8 H 0.438(3) 0.864(2) 0.6710(10)
H9 H 0.493(4) 0.780(2) 0.9570(10)
H10 H 0.369(3) 0.820(2) 1.0660(10)
H11 H 0.174(3) 1.021(2) 0.9840(10)
H12 H 0.299(3) 0.977(2) 0.8760(10)
H13 H 0.497(4) 0.791(2) 0.8220(10)
H14 H 0.473(4) 0.891(2) 0.8030(10)
H15 H 0.944(4) 1.066(2) 0.8900(10)
H16 H 0.744(4) 1.063(2) 0.8530(10)
H17 H 1.2460 1.2479 0.8193
H18 H 1.3498 1.2362 0.7491
H19 H 1.4389 1.2214 0.8219
H20 H 1.2802 0.6230 0.7701
H21 H 1.1195 0.5609 0.7095
H22 H 1.0789 0.5816 0.7910
C8A C 0.4991(3) 1.0786(2) 0.34530(10)
S1A S 0.29081(8) 1.11654(4) 0.37633(3)
C7A C 0.1465(3) 1.0090(2) 0.40350(10)
C1A C 0.2192(3) 0.9875(2) 0.47290(10)
C2A C 0.1934(3) 0.8903(2) 0.48000(10)
C3A C 0.2741(3) 0.8682(2) 0.54030(10)
C4A C 0.3850(3) 0.9435(2) 0.59530(10)
C5A C 0.3979(3) 1.0408(2) 0.59130(10)
C6A C 0.3147(3) 1.0626(2) 0.53130(10)
H4A H 0.328(3) 1.128(2) 0.5290(10)
H3A H 0.463(3) 1.091(2) 0.6270(10)
H2A H 0.263(3) 0.798(2) 0.5440(10)
H1A H 0.128(3) 0.836(2) 0.4410(10)
H5A H 0.132(3) 0.953(2) 0.3650(10)
H6A H 0.024(4) 1.025(2) 0.4080(10)
H7A H 0.454(3) 1.022(2) 0.3080(10)
H8A H 0.562(3) 1.136(2) 0.3290(10)
C16A C 0.1965(4) 0.9604(2) 1.11040(10)
S2A S 0.23266(8) 1.09361(4) 1.13861(3)
C15A C 0.4860(3) 1.1413(2) 1.15960(10)
C9A C 0.5911(3) 1.1265(2) 1.09370(10)
C10A C 0.5757(3) 1.1750(2) 1.03780(10)
C11A C 0.6499(3) 1.1490(2) 0.97320(10)
C12A C 0.7407(3) 1.0739(2) 0.96280(10)
C13A C 0.7678(3) 1.0311(2) 1.02070(10)
C14A C 0.6937(3) 1.0570(2) 1.08550(10)
H12A H 0.701(3) 1.023(2) 1.1240(10)
H11A H 0.826(3) 0.979(2) 1.0160(10)
H10A H 0.631(3) 1.180(2) 0.9340(10)
H9A H 0.507(4) 1.220(2) 1.0430(10)
H13A H 0.503(4) 1.209(2) 1.1780(10)
H14A H 0.527(4) 1.109(2) 1.1970(10)
H15A H 0.056(4) 0.934(2) 1.1100(10)
H16A H 0.256(4) 0.937(2) 1.1470(10)
Ag1A Ag 0.10266(2) 1.114400(10) 0.261320(10)
N1A N -0.1530(3) 0.9724(2) 0.24160(10)
C17A C -0.2281(4) 0.8917(2) 0.22690(10)
C18A C -0.3237(5) 0.7878(2) 0.2075(2)
H17A H -0.2460 0.7521 0.1807
H18A H -0.3498 0.7638 0.2509
H19A H -0.4389 0.7786 0.1781
N2A N -0.0607(3) 1.2323(2) 0.26060(10)
C19A C -0.1005(3) 1.3021(2) 0.25370(10)
C20A C -0.1488(3) 1.3917(2) 0.24510(10)
H20A H -0.2802 1.3770 0.2299
H21A H -0.1195 1.4391 0.2905
H22A H -0.0789 1.4184 0.2090
Ag1A_2 Ag 0.10266(2) 1.114400(10) 1.261320(10)
S2A_2 S 0.23266(8) 1.09361(4) 0.13861(3)
F1 F 0.7373(2) 0.40840(10) 0.92778(7)
F2 F 0.7459(2) 0.42910(10) 1.07092(7)
O1 O 0.6479(2) 0.51220(10) 0.81935(8)
O2 O 0.3393(2) 0.44250(10) 0.80475(8)
C21 C 0.4954(3) 0.4895(2) 0.92350(10)
C22 C 0.6199(3) 0.4554(2) 0.96240(10)
C23 C 0.6234(3) 0.4663(2) 1.03720(10)
C24 C 0.4932(3) 0.4802(2) 0.84140(10)
C23A C 0.3766(3) 0.5337(2) 0.96280(10)
F2A F 0.2541(2) 0.57090(10) 0.92908(7)
C22A C 0.3801(3) 0.5446(2) 1.03760(10)
F1A F 0.2627(2) 0.59160(10) 1.07222(7)
C21A C 0.5046(3) 0.5105(2) 1.07650(10)
C24A C 0.5068(3) 0.5198(2) 1.15860(10)
O1A O 0.3521(2) 0.48780(10) 1.18065(8)
O2A O 0.6607(2) 0.55750(10) 1.19525(8)
F3 F 0.3363(2) 0.63640(10) 0.59276(7)
F4 F 0.3334(2) 0.64740(10) 0.45470(7)
F5 F 0.9529(2) 0.61730(10) 0.45551(7)
F6 F 0.9521(2) 0.59900(10) 0.59252(7)
O3 O 0.5859(2) 0.67200(10) 0.71939(8)
O4 O 0.6992(2) 0.53890(10) 0.69133(8)
O5 O 0.5726(3) 0.70160(10) 0.35098(9)
O6 O 0.7035(2) 0.57450(10) 0.33161(8)
C25 C 0.6447(3) 0.61810(10) 0.59760(10)
C26 C 0.4918(3) 0.6318(2) 0.56010(10)
C27 C 0.4903(3) 0.6385(2) 0.48810(10)
C28 C 0.6434(3) 0.6333(2) 0.45040(10)
C29 C 0.7975(3) 0.6203(2) 0.48810(10)
C30 C 0.7977(3) 0.6116(2) 0.55950(10)
C31 C 0.6407(3) 0.6129(2) 0.67680(10)
C32 C 0.6366(3) 0.6412(2) 0.37200(10)
H23 H 0.678(4) 0.530(2) 0.7330(10)
H24 H 0.680(4) 0.571(2) 0.2910(10)
N3 N 0.7972(4) 0.7575(3) 1.0445(2)
C33 C 0.8582(4) 0.7331(2) 0.9925(2)
C34 C 0.9328(4) 0.7044(2) 0.9246(2)
H25 H 1.0156 0.7612 0.9135
H26 H 0.8320 0.6768 0.8864
H27 H 1.0002 0.6561 0.9289
N4 N 0.7664(5) 1.1639(2) 0.7505(2)
C35 C 0.8098(4) 1.2426(2) 0.7438(2)
C36 C 0.8660(5) 1.3434(2) 0.7357(2)
H28 H 0.7922 1.3811 0.7630
H29 H 0.8476 1.3450 0.6852
H30 H 0.9958 1.3712 0.7533
loop_
_geom_bond_atom_site_label_1
_geom_bond_atom_site_label_2
_geom_bond_site_symmetry_1
_geom_bond_site_symmetry_2
Ag1 S1 1_555 1_555
S1 C7 1_555 1_555
S2 Ag1 1_555 1_555
F1 C22 1_555 1_555
F2 C23 1_555 1_555
F3 C26 1_555 1_555
F4 C27 1_555 1_555
F5 C29 1_555 1_555
F6 C30 1_555 1_555
O1 C24 1_555 1_555
O2 C24 1_555 1_555
O3 C31 1_555 1_555
O4 C31 1_555 1_555
O5 C32 1_555 1_555
O6 C32 1_555 1_555
N1 Ag1 1_555 1_555
N2 Ag1 1_555 1_555
N3 C33 1_555 1_555
N4 C35 1_555 1_555
C1 C2 1_555 1_555
C2 C3 1_555 1_555
C3 C4 1_555 1_555
C4 C5 1_555 1_555
C5 C6 1_555 1_555
C6 C1 1_555 1_555
C7 C1 1_555 1_555
C8 S1 1_555 1_555
C9 C10 1_555 1_555
C10 C11 1_555 1_555
C11 C12 1_555 1_555
C12 C13 1_555 1_555
C13 C14 1_555 1_555
C14 C9 1_555 1_555
C15 S2 1_555 1_555
C16 S2 1_555 1_555
C17 N1 1_555 1_555
C18 C17 1_555 1_555
C19 N2 1_555 1_555
C20 C19 1_555 1_555
C21 C22 1_555 1_555
C22 C23 1_555 1_555
C23 C21A 1_555 1_555
C24 C21 1_555 1_555
C25 C26 1_555 1_555
C26 C27 1_555 1_555
C27 C28 1_555 1_555
C28 C29 1_555 1_555
C29 C30 1_555 1_555
C30 C25 1_555 1_555
C31 C25 1_555 1_555
C32 C28 1_555 1_555
C33 C34 1_555 1_555
C34 H25 1_555 1_555
C35 C36 1_555 1_555
C36 H28 1_555 1_555
H1 C2 1_555 1_555
H2 C3 1_555 1_555
H3 C5 1_555 1_555
H4 C6 1_555 1_555
H5 C7 1_555 1_555
H6 C7 1_555 1_555
H7 C8 1_555 1_555
H8 C8 1_555 1_555
H9 C10 1_555 1_555
H10 C11 1_555 1_555
H11 C13 1_555 1_555
H12 C14 1_555 1_555
H13 C15 1_555 1_555
H14 C15 1_555 1_555
H15 C16 1_555 1_555
H16 C16 1_555 1_555
H17 C18 1_555 1_555
H18 C18 1_555 1_555
H19 C18 1_555 1_555
H20 C20 1_555 1_555
H21 C20 1_555 1_555
H22 C20 1_555 1_555
H23 O4 1_555 1_555
H24 O6 1_555 1_555
H26 C34 1_555 1_555
H27 C34 1_555 1_555
H29 C36 1_555 1_555
H30 C36 1_555 1_555
C8A C4 1_555 1_555
S1A C8A 1_555 1_555
C7A S1A 1_555 1_555
C1A C7A 1_555 1_555
C2A C1A 1_555 1_555
C3A C2A 1_555 1_555
C4A C8 1_555 1_555
C5A C4A 1_555 1_555
C6A C1A 1_555 1_555
H4A C6A 1_555 1_555
H3A C5A 1_555 1_555
H2A C3A 1_555 1_555
H1A C2A 1_555 1_555
H5A C7A 1_555 1_555
H6A C7A 1_555 1_555
H7A C8A 1_555 1_555
H8A C8A 1_555 1_555
C16A C12 1_555 1_555
S2A C16A 1_555 1_555
C15A S2A 1_555 1_555
C9A C15A 1_555 1_555
C10A C9A 1_555 1_555
C11A C10A 1_555 1_555
C12A C16 1_555 1_555
C13A C12A 1_555 1_555
C14A C9A 1_555 1_555
H12A C14A 1_555 1_555
H11A C13A 1_555 1_555
H10A C11A 1_555 1_555
H9A C10A 1_555 1_555
H13A C15A 1_555 1_555
H14A C15A 1_555 1_555
H15A C16A 1_555 1_555
H16A C16A 1_555 1_555
C23A C21 1_555 1_555
F2A C23A 1_555 1_555
C22A C23A 1_555 1_555
F1A C22A 1_555 1_555
C21A C22A 1_555 1_555
C24A C21A 1_555 1_555
O1A C24A 1_555 1_555
O2A C24A 1_555 1_555
Ag1A S1A 1_555 1_555
N1A Ag1A 1_555 1_555
C17A N1A 1_555 1_555
C18A C17A 1_555 1_555
H17A C18A 1_555 1_555
H18A C18A 1_555 1_555
H19A C18A 1_555 1_555
N2A Ag1A 1_555 1_555
C19A N2A 1_555 1_555
C20A C19A 1_555 1_555
H20A C20A 1_555 1_555
H21A C20A 1_555 1_555
H22A C20A 1_555 1_555
Ag1A_2 S2A 1_555 1_555
S2A_2 Ag1A 1_555 1_555
C9 C15 1_555 1_555
C3A C4A 1_555 1_555
C5A C6A 1_555 1_555
C11A C12A 1_555 1_555
C13A C14A 1_555 1_555

#END
