
#######################################################################
#
#                 Cambridge Crystallographic Data Centre
#                                CCDC 
#
#######################################################################
#
# If this CIF has been generated from an entry in the Cambridge 
# Structural Database, then it will include bibliographic, chemical, 
# crystal, experimental, refinement or atomic coordinate data resulting 
# from the CCDC's data processing and validation procedures.
#
#######################################################################

data_MAHTUL
_symmetry_cell_setting           monoclinic
_symmetry_space_group_name_H-M   'C 2'
_symmetry_Int_Tables_number      5
_space_group_name_Hall           'C 2y'
loop_
_symmetry_equiv_pos_site_id
_symmetry_equiv_pos_as_xyz
1 x,y,z
2 -x,y,-z
3 1/2+x,1/2+y,z
4 1/2-x,1/2+y,-z
_cell_length_a                   12.566(14)
_cell_length_b                   10.235(11)
_cell_length_c                   4.279(4)
_cell_angle_alpha                90
_cell_angle_beta                 104.92(4)
_cell_angle_gamma                90
_cell_volume                     531.781
loop_
_atom_site_label
_atom_site_type_symbol
_atom_site_fract_x
_atom_site_fract_y
_atom_site_fract_z
Ag1 Ag 0.5000 0.50819(6) 0.0000
Cl1 Cl 0.5000 0.6411(2) -0.5000
N1 N 0.4093(4) 0.3159(4) 0.1200(10)
C1 C 0.3237(5) 0.3159(6) 0.2470(10)
C2 C 0.2735(6) 0.2023(8) 0.318(2)
C3 C 0.3164(6) 0.0841(7) 0.2600(10)
C4 C 0.4080(6) 0.0796(6) 0.132(2)
C5 C 0.4531(4) 0.1977(5) 0.0640(10)
C6 C 0.4563(6) -0.0409(6) 0.067(2)
H1 H 0.2955 0.3959 0.2907
H2 H 0.2125 0.2064 0.4036
H3 H 0.2844 0.0068 0.3049
H4 H 0.4277 -0.1198 0.1161
C5A C 0.5469(4) 0.1977(5) -0.0640(10)
N1A N 0.5907(4) 0.3159(4) -0.1200(10)
C1A C 0.6763(5) 0.3159(6) -0.2470(10)
C2A C 0.7265(6) 0.2023(8) -0.318(2)
C3A C 0.6836(6) 0.0841(7) -0.2600(10)
C4A C 0.5920(6) 0.0796(6) -0.132(2)
C6A C 0.5437(6) -0.0409(6) -0.067(2)
H4A H 0.5723 -0.1198 -0.1161
H3A H 0.7156 0.0068 -0.3049
H2A H 0.7875 0.2064 -0.4036
H1A H 0.7045 0.3959 -0.2907
Cl1_2 Cl 0.5000 0.6411(2) 0.5000
Ag1_2 Ag 0.5000 0.50819(6) -1.0000
loop_
_geom_bond_atom_site_label_1
_geom_bond_atom_site_label_2
_geom_bond_site_symmetry_1
_geom_bond_site_symmetry_2
Ag1 Cl1 1_555 1_555
Cl1 Ag1_2 1_555 1_555
N1 Ag1 1_555 1_555
C1 N1 1_555 1_555
C2 C1 1_555 1_555
C3 C2 1_555 1_555
C4 C3 1_555 1_555
C5 N1 1_555 1_555
C6 C4 1_555 1_555
H1 C1 1_555 1_555
H2 C2 1_555 1_555
H3 C3 1_555 1_555
H4 C6 1_555 1_555
C5A C5 1_555 1_555
N1A Ag1 1_555 1_555
C1A N1A 1_555 1_555
C2A C1A 1_555 1_555
C3A C2A 1_555 1_555
C4A C5A 1_555 1_555
C6A C6 1_555 1_555
H4A C6A 1_555 1_555
H3A C3A 1_555 1_555
H2A C2A 1_555 1_555
H1A C1A 1_555 1_555
Cl1_2 Ag1 1_555 1_555
C4 C5 1_555 1_555
C5A N1A 1_555 1_555
C3A C4A 1_555 1_555
C4A C6A 1_555 1_555

#END
