
#######################################################################
#
#                 Cambridge Crystallographic Data Centre
#                                CCDC 
#
#######################################################################
#
# If this CIF has been generated from an entry in the Cambridge 
# Structural Database, then it will include bibliographic, chemical, 
# crystal, experimental, refinement or atomic coordinate data resulting 
# from the CCDC's data processing and validation procedures.
#
#######################################################################

data_MAHWEY
_symmetry_cell_setting           monoclinic
_symmetry_space_group_name_H-M   'P 21/m'
_symmetry_Int_Tables_number      11
_space_group_name_Hall           '-P 2yb'
loop_
_symmetry_equiv_pos_site_id
_symmetry_equiv_pos_as_xyz
1 x,y,z
2 x,1/2-y,z
3 -x,-y,-z
4 -x,1/2+y,-z
_cell_length_a                   9.815(2)
_cell_length_b                   6.3720(10)
_cell_length_c                   9.919(2)
_cell_angle_alpha                90
_cell_angle_beta                 102.753(4)
_cell_angle_gamma                90
_cell_volume                     605.043
loop_
_atom_site_label
_atom_site_type_symbol
_atom_site_fract_x
_atom_site_fract_y
_atom_site_fract_z
V1 V 0.79737(17) 0.2500 0.93114(16)
P1 P 0.8792(3) 0.7500 0.9046(2)
O1 O 0.7622(8) 0.2500 1.0819(7)
O2 O 0.9436(7) 0.7500 0.7749(7)
H1 H 1.0324 0.7500 0.7905
O3 O 0.7879(5) 0.5596(7) 0.8975(5)
O4 O 0.9976(7) 0.7500 1.0323(6)
N1 N 0.5831(8) 0.2500 0.8254(8)
N2 N 0.7975(8) 0.2500 0.7005(8)
C1 C 0.4727(11) 0.2500 0.8872(11)
H2 H 0.4904 0.2500 0.9832
C2 C 0.3422(11) 0.2500 0.8182(13)
H3 H 0.2700 0.2500 0.8652
C3 C 0.3130(11) 0.2500 0.6771(13)
H4 H 0.2203 0.2500 0.6288
C4 C 0.4161(10) 0.2500 0.6054(11)
C5 C 0.3963(11) 0.2500 0.4587(11)
H5 H 0.3056 0.2500 0.4052
C6 C 0.5020(13) 0.2500 0.3953(11)
H6 H 0.4842 0.2500 0.2992
C7 C 0.6405(10) 0.2500 0.4720(10)
C8 C 0.7593(13) 0.2500 0.4133(11)
H7 H 0.7485 0.2500 0.3177
C9 C 0.8927(12) 0.2500 0.4989(12)
H8 H 0.9720 0.2500 0.4620
C10 C 0.9038(11) 0.2500 0.6422(11)
H9 H 0.9928 0.2500 0.6991
C11 C 0.6656(9) 0.2500 0.6168(9)
C12 C 0.5529(10) 0.2500 0.6844(10)
O3A O 0.7879(5) 0.9404(7) 0.8975(5)
O3A_2 O 0.7879(5) -0.0596(7) 0.8975(5)
O4B O 1.0024(7) 0.2500 0.9677(6)
V1B V 1.20263(17) 0.7500 1.06886(16)
V1_2 V 0.79737(17) 1.2500 0.93114(16)
loop_
_geom_bond_atom_site_label_1
_geom_bond_atom_site_label_2
_geom_bond_site_symmetry_1
_geom_bond_site_symmetry_2
V1 O1 1_555 1_555
P1 O2 1_555 1_555
O2 H1 1_555 1_555
O3 V1 1_555 1_555
O4 P1 1_555 1_555
N1 V1 1_555 1_555
N2 V1 1_555 1_555
C1 N1 1_555 1_555
H2 C1 1_555 1_555
C2 C1 1_555 1_555
H3 C2 1_555 1_555
C3 C2 1_555 1_555
H4 C3 1_555 1_555
C4 C3 1_555 1_555
C5 C4 1_555 1_555
H5 C5 1_555 1_555
C6 C5 1_555 1_555
H6 C6 1_555 1_555
C7 C6 1_555 1_555
C8 C7 1_555 1_555
H7 C8 1_555 1_555
C9 C8 1_555 1_555
H8 C9 1_555 1_555
C10 N2 1_555 1_555
H9 C10 1_555 1_555
C11 N2 1_555 1_555
C12 N1 1_555 1_555
O3A P1 1_555 1_555
O3A_2 V1 1_555 1_555
O4B V1 1_555 1_555
V1B O4 1_555 1_555
V1_2 O3A 1_555 1_555
P1 O3 1_555 1_555
C4 C12 1_555 1_555
C7 C11 1_555 1_555
C9 C10 1_555 1_555
C11 C12 1_555 1_555

#END
