
#######################################################################
#
#                 Cambridge Crystallographic Data Centre
#                                CCDC 
#
#######################################################################
#
# If this CIF has been generated from an entry in the Cambridge 
# Structural Database, then it will include bibliographic, chemical, 
# crystal, experimental, refinement or atomic coordinate data resulting 
# from the CCDC's data processing and validation procedures.
#
#######################################################################

data_MAHYEZ
_symmetry_cell_setting           tetragonal
_symmetry_space_group_name_H-M   'P 4/n c c'
_symmetry_Int_Tables_number      130
_space_group_name_Hall           '-P 4a 2ac'
loop_
_symmetry_equiv_pos_site_id
_symmetry_equiv_pos_as_xyz
1 x,y,z
2 1/2-y,x,z
3 1/2+x,-y,1/2-z
4 1/2-x,1/2-y,z
5 1/2+y,1/2+x,1/2-z
6 y,1/2-x,z
7 -x,1/2+y,1/2-z
8 -y,-x,1/2-z
9 -x,-y,-z
10 1/2+y,-x,-z
11 1/2-x,y,1/2+z
12 1/2+x,1/2+y,-z
13 1/2-y,1/2-x,1/2+z
14 -y,1/2+x,-z
15 x,1/2-y,1/2+z
16 y,x,1/2+z
_cell_length_a                   10.756(1)
_cell_length_b                   10.756(1)
_cell_length_c                   21.725(2)
_cell_angle_alpha                90
_cell_angle_beta                 90
_cell_angle_gamma                90
_cell_volume                     2513.4
loop_
_atom_site_label
_atom_site_type_symbol
_atom_site_fract_x
_atom_site_fract_y
_atom_site_fract_z
Zn1 Zn -0.2500 -0.7500 -0.2500
O1 O -0.1080(5) -0.8920(5) -0.2500
N1 N 0.1459(6) -0.3404(6) 0.1780(3)
C1 C 0.0993(9) -0.2769(8) 0.1306(4)
C2 C 0.0513(11) -0.3301(9) 0.0784(4)
C3 C 0.0534(9) -0.4609(9) 0.0751(4)
C4 C 0.1004(9) -0.5289(9) 0.1237(4)
C5 C 0.1463(8) -0.4641(9) 0.1739(4)
N2 N 0.0048(9) -0.5301(8) 0.0239(3)
H1 H 0.0994 -0.1906 0.1331
H2 H 0.0188 -0.2821 0.0466
H3 H 0.1011 -0.6154 0.1228
H4 H 0.1792 -0.5093 0.2066
N2H N -0.0048(9) -0.4699(8) -0.0239(3)
C3H C -0.0534(9) -0.5391(9) -0.0751(4)
C2H C -0.0513(11) -0.6699(9) -0.0784(4)
C1H C -0.0993(9) -0.7231(8) -0.1306(4)
N1H N -0.1459(6) -0.6596(6) -0.1780(3)
Zn1H Zn 0.2500 -0.2500 0.2500
O1C O -0.3920(5) -0.6080(5) -0.2500
N1K N -0.3541(6) -0.8404(6) -0.1780(3)
C1K C -0.4007(9) -0.7769(8) -0.1306(4)
C2K C -0.4487(11) -0.8301(9) -0.0784(4)
C3K C -0.4466(9) -0.9609(9) -0.0751(4)
C4K C -0.3996(9) -1.0289(9) -0.1237(4)
C5K C -0.3537(8) -0.9641(9) -0.1739(4)
H4K H -0.3208 -1.0093 -0.2066
H3K H -0.3989 -1.1154 -0.1228
N2K N -0.4952(9) -1.0301(8) -0.0239(3)
N2C N -0.5048(9) -0.9699(8) 0.0239(3)
C3C C -0.5534(9) -1.0391(9) 0.0751(4)
C2C C -0.5513(11) -1.1699(9) 0.0784(4)
C1C C -0.5993(9) -1.2231(8) 0.1306(4)
N1C N -0.6459(6) -1.1596(6) 0.1780(3)
Zn1H_2 Zn -0.7500 -1.2500 0.2500
C5C C -0.6463(8) -1.0359(9) 0.1739(4)
C4C C -0.6004(9) -0.9711(9) 0.1237(4)
H3C H -0.6011 -0.8846 0.1228
H4C H -0.6792 -0.9907 0.2066
H1C H -0.5994 -1.3094 0.1331
H2C H -0.5188 -1.2179 0.0466
H2K H -0.4812 -0.7821 -0.0466
H1K H -0.4006 -0.6906 -0.1331
N1L N -0.1596(6) -0.6459(6) -0.3220(3)
N1O N -0.3404(6) -0.8541(6) -0.3220(3)
C5H C -0.1463(8) -0.5359(9) -0.1739(4)
C4H C -0.1004(9) -0.4711(9) -0.1237(4)
H3H H -0.1011 -0.3846 -0.1228
H4H H -0.1792 -0.4907 -0.2066
H1H H -0.0994 -0.8094 -0.1331
H2H H -0.0188 -0.7179 -0.0466
O2 O 0.2500 0.2500 -0.003(2)
Si1 Si -0.2500 -0.2500 0.2115(2)
F1 F -0.1209(4) -0.1602(4) 0.2119(2)
F2 F -0.2500 -0.2500 0.2883(4)
F3 F -0.2500 -0.2500 0.1351(5)
F1A F -0.3398(4) -0.1209(4) 0.2119(2)
F1C F -0.3791(4) -0.3398(4) 0.2119(2)
F1E F -0.1602(4) -0.3791(4) 0.2119(2)
loop_
_geom_bond_atom_site_label_1
_geom_bond_atom_site_label_2
_geom_bond_site_symmetry_1
_geom_bond_site_symmetry_2
Zn1 O1 1_555 1_555
N1 C1 1_555 1_555
C1 C2 1_555 1_555
C2 C3 1_555 1_555
C3 C4 1_555 1_555
C4 C5 1_555 1_555
C5 N1 1_555 1_555
N2 C3 1_555 1_555
Si1 F1 1_555 1_555
F2 Si1 1_555 1_555
F3 Si1 1_555 1_555
H1 C1 1_555 1_555
H2 C2 1_555 1_555
H3 C4 1_555 1_555
H4 C5 1_555 1_555
N2H N2 1_555 1_555
C3H N2H 1_555 1_555
C2H C3H 1_555 1_555
C1H C2H 1_555 1_555
N1H Zn1 1_555 1_555
Zn1H N1 1_555 1_555
O1C Zn1 1_555 1_555
N1K Zn1 1_555 1_555
C1K N1K 1_555 1_555
C2K C1K 1_555 1_555
C3K C2K 1_555 1_555
C4K C3K 1_555 1_555
C5K N1K 1_555 1_555
H4K C5K 1_555 1_555
H3K C4K 1_555 1_555
N2K C3K 1_555 1_555
N2C N2K 1_555 1_555
C3C N2C 1_555 1_555
C2C C3C 1_555 1_555
C1C C2C 1_555 1_555
N1C C1C 1_555 1_555
Zn1H_2 N1C 1_555 1_555
C5C N1C 1_555 1_555
C4C C3C 1_555 1_555
H3C C4C 1_555 1_555
H4C C5C 1_555 1_555
H1C C1C 1_555 1_555
H2C C2C 1_555 1_555
H2K C2K 1_555 1_555
H1K C1K 1_555 1_555
N1L Zn1 1_555 1_555
N1O Zn1 1_555 1_555
C5H N1H 1_555 1_555
C4H C3H 1_555 1_555
H3H C4H 1_555 1_555
H4H C5H 1_555 1_555
H1H C1H 1_555 1_555
H2H C2H 1_555 1_555
F1A Si1 1_555 1_555
F1C Si1 1_555 1_555
F1E Si1 1_555 1_555
C1H N1H 1_555 1_555
C4K C5K 1_555 1_555
C5C C4C 1_555 1_555
C5H C4H 1_555 1_555

#END
