
#######################################################################
#
#                 Cambridge Crystallographic Data Centre
#                                CCDC 
#
#######################################################################
#
# If this CIF has been generated from an entry in the Cambridge 
# Structural Database, then it will include bibliographic, chemical, 
# crystal, experimental, refinement or atomic coordinate data resulting 
# from the CCDC's data processing and validation procedures.
#
#######################################################################

data_MAJBAA01
_symmetry_cell_setting           monoclinic
_symmetry_space_group_name_H-M   'C 2/c'
_symmetry_Int_Tables_number      15
_space_group_name_Hall           '-C 2yn'
loop_
_symmetry_equiv_pos_site_id
_symmetry_equiv_pos_as_xyz
1 x,y,z
2 1/2+x,1/2+y,z
3 -x,y,1/2-z
4 1/2-x,1/2+y,1/2-z
5 -x,-y,-z
6 1/2-x,1/2-y,-z
7 x,-y,1/2+z
8 1/2+x,1/2-y,1/2+z
_cell_length_a                   18.8435(17)
_cell_length_b                   6.2038(6)
_cell_length_c                   13.4129(12)
_cell_angle_alpha                90
_cell_angle_beta                 105.534(2)
_cell_angle_gamma                90
_cell_volume                     1510.71
loop_
_atom_site_label
_atom_site_type_symbol
_atom_site_fract_x
_atom_site_fract_y
_atom_site_fract_z
Cu1 Cu 0.384384(17) 0.56823(5) 0.35749(2)
Cl1 Cl 0.46448(4) 0.83711(12) 0.37073(5)
C1 C 0.36240(13) 0.3766(4) 0.53576(18)
C2 C 0.36048(14) 0.3388(4) 0.63671(18)
H1 H 0.3427 0.2081 0.6540
C3 C 0.40963(14) 0.6744(4) 0.68166(18)
H2 H 0.4243 0.7834 0.7305
C4 C 0.41481(14) 0.7076(4) 0.58210(18)
H3 H 0.4355 0.8344 0.5657
C5 C 0.33198(14) 0.2205(4) 0.44837(18)
N1 N 0.39020(11) 0.5583(3) 0.50923(14)
N2 N 0.38405(11) 0.4895(4) 0.70953(14)
O1 O 0.33849(10) 0.2827(3) 0.36047(12)
O2 O 0.30234(10) 0.0545(3) 0.46599(13)
O3 O 0.27682(13) 0.7284(4) 0.32162(17)
H4 H 0.2815(18) 0.835(3) 0.355(2)
H5 H 0.2433(12) 0.734(5) 0.2713(16)
N2F N 0.38405(11) 0.5105(4) 0.20953(14)
Cu1F Cu 0.384384(17) 0.43177(5) 0.85749(2)
loop_
_geom_bond_atom_site_label_1
_geom_bond_atom_site_label_2
_geom_bond_site_symmetry_1
_geom_bond_site_symmetry_2
Cu1 Cl1 1_555 1_555
C1 C2 1_555 1_555
C2 H1 1_555 1_555
C3 H2 1_555 1_555
C4 C3 1_555 1_555
H3 C4 1_555 1_555
C5 C1 1_555 1_555
N1 Cu1 1_555 1_555
N2 C2 1_555 1_555
O1 Cu1 1_555 1_555
O2 C5 1_555 1_555
O3 Cu1 1_555 1_555
H4 O3 1_555 1_555
H5 O3 1_555 1_555
N2F Cu1 1_555 1_555
Cu1F N2 1_555 1_555
C1 N1 1_555 1_555
C3 N2 1_555 1_555
C4 N1 1_555 1_555
C5 O1 1_555 1_555

#END
