
#######################################################################
#
#                 Cambridge Crystallographic Data Centre
#                                CCDC 
#
#######################################################################
#
# If this CIF has been generated from an entry in the Cambridge 
# Structural Database, then it will include bibliographic, chemical, 
# crystal, experimental, refinement or atomic coordinate data resulting 
# from the CCDC's data processing and validation procedures.
#
#######################################################################

data_MAJCUX
_symmetry_cell_setting           monoclinic
_symmetry_space_group_name_H-M   'C 2/c'
_symmetry_Int_Tables_number      15
_space_group_name_Hall           '-C 2yn'
loop_
_symmetry_equiv_pos_site_id
_symmetry_equiv_pos_as_xyz
1 x,y,z
2 -x,y,1/2-z
3 1/2+x,1/2+y,z
4 1/2-x,1/2+y,1/2-z
5 -x,-y,-z
6 x,-y,1/2+z
7 1/2-x,1/2-y,-z
8 1/2+x,1/2-y,1/2+z
_cell_length_a                   25.7160(9)
_cell_length_b                   7.8986(3)
_cell_length_c                   9.9444(4)
_cell_angle_alpha                90
_cell_angle_beta                 94.775(2)
_cell_angle_gamma                90
_cell_volume                     2012.9
loop_
_atom_site_label
_atom_site_type_symbol
_atom_site_fract_x
_atom_site_fract_y
_atom_site_fract_z
Ag1 Ag 0.028963(10) 0.12029(4) 0.92347(3)
S1 S 0.07582(4) 0.35457(13) 1.05782(12)
O1 O 0.05330(11) 0.1199(3) 0.6816(3)
O2 O 0.08565(14) 0.1053(4) 0.4805(3)
C1 C 0.08914(16) 0.1409(4) 0.6035(4)
C2 C 0.14027(14) 0.2158(5) 0.6631(4)
C3 C 0.15311(15) 0.2145(6) 0.8015(5)
H1 H 0.1310 0.1607 0.8587
C4 C 0.19874(17) 0.2927(7) 0.8560(5)
H2 H 0.2073 0.2914 0.9497
C5 C 0.23135(18) 0.3723(5) 0.7718(6)
H3 H 0.2615 0.4285 0.8084
C6 C 0.2194(2) 0.3688(6) 0.6335(6)
H4 H 0.2423 0.4180 0.5759
C7 C 0.17384(18) 0.2933(6) 0.5799(5)
H5 H 0.1655 0.2944 0.4860
C8 C 0.12419(17) 0.2578(6) 1.1760(5)
H6 H 0.1452 0.3454 1.2223
H7 H 0.1464 0.1842 1.1278
H8 H 0.1069 0.1920 1.2415
C9 C 0.03545(17) 0.4576(5) 1.1745(4)
H9 H 0.0584 0.5192 1.2413
H10 H 0.0136 0.5416 1.1241
C10 C 0.0000 0.3433(7) 1.2500
H11 H -0.0209 0.2708 1.1863
Ag1A Ag -0.028963(10) 0.12029(4) 1.57653(3)
Ag1D Ag -0.028963(10) -0.12029(4) 1.07653(3)
Ag1A_2 Ag -0.028963(10) 0.12029(4) 0.57653(3)
Ag1E Ag 0.028963(10) -0.12029(4) 0.42347(3)
S1A S -0.07582(4) 0.35457(13) 1.44218(12)
S1A_2 S -0.07582(4) 0.35457(13) 0.44218(12)
O1A O -0.05330(11) 0.1199(3) 0.8184(3)
O2A O -0.08565(14) 0.1053(4) 1.0195(3)
O2E O 0.08565(14) -0.1053(4) 0.9805(3)
O2D O -0.08565(14) -0.1053(4) 0.5195(3)
C1A C -0.08914(16) 0.1409(4) 0.8965(4)
C2A C -0.14027(14) 0.2158(5) 0.8369(4)
C3A C -0.15311(15) 0.2145(6) 0.6985(5)
H1A H -0.1310 0.1607 0.6413
C4A C -0.19874(17) 0.2927(7) 0.6440(5)
H2A H -0.2073 0.2914 0.5503
C5A C -0.23135(18) 0.3723(5) 0.7282(6)
H3A H -0.2615 0.4285 0.6916
C6A C -0.2194(2) 0.3688(6) 0.8665(6)
H4A H -0.2423 0.4180 0.9241
C7A C -0.17384(18) 0.2933(6) 0.9201(5)
H5A H -0.1655 0.2944 1.0140
C8A C -0.12419(17) 0.2578(6) 1.3240(5)
H6A H -0.1452 0.3454 1.2777
H7A H -0.1464 0.1842 1.3722
H8A H -0.1069 0.1920 1.2585
C9A C -0.03545(17) 0.4576(5) 1.3255(4)
H9A H -0.0584 0.5192 1.2587
H10A H -0.0136 0.5416 1.3759
H11A H 0.0209 0.2708 1.3137
loop_
_geom_bond_atom_site_label_1
_geom_bond_atom_site_label_2
_geom_bond_site_symmetry_1
_geom_bond_site_symmetry_2
Ag1 S1 1_555 1_555
S1 C8 1_555 1_555
O1 Ag1 1_555 1_555
O2 C1 1_555 1_555
C1 O1 1_555 1_555
C2 C1 1_555 1_555
C3 C2 1_555 1_555
H1 C3 1_555 1_555
C4 C3 1_555 1_555
H2 C4 1_555 1_555
C5 C4 1_555 1_555
H3 C5 1_555 1_555
C6 C5 1_555 1_555
H4 C6 1_555 1_555
C7 C2 1_555 1_555
H5 C7 1_555 1_555
C8 H6 1_555 1_555
H7 C8 1_555 1_555
H8 C8 1_555 1_555
C9 S1 1_555 1_555
H9 C9 1_555 1_555
H10 C9 1_555 1_555
C10 C9 1_555 1_555
H11 C10 1_555 1_555
Ag1A S1A 1_555 1_555
Ag1D Ag1 1_555 1_555
Ag1A_2 O1 1_555 1_555
Ag1E O2 1_555 1_555
S1A C8A 1_555 1_555
S1A_2 Ag1A_2 1_555 1_555
O1A Ag1 1_555 1_555
O2A Ag1D 1_555 1_555
O2E Ag1 1_555 1_555
O2D Ag1A_2 1_555 1_555
C1A O1A 1_555 1_555
C2A C1A 1_555 1_555
C3A C2A 1_555 1_555
H1A C3A 1_555 1_555
C4A C3A 1_555 1_555
H2A C4A 1_555 1_555
C5A C4A 1_555 1_555
H3A C5A 1_555 1_555
C6A C5A 1_555 1_555
H4A C6A 1_555 1_555
C7A C2A 1_555 1_555
H5A C7A 1_555 1_555
C8A H6A 1_555 1_555
H7A C8A 1_555 1_555
H8A C8A 1_555 1_555
C9A C10 1_555 1_555
H9A C9A 1_555 1_555
H10A C9A 1_555 1_555
H11A C10 1_555 1_555
C6 C7 1_555 1_555
Ag1A_2 Ag1E 1_555 1_555
Ag1A_2 O1A 1_555 1_555
S1A C9A 1_555 1_555
O2A C1A 1_555 1_555
C6A C7A 1_555 1_555

#END
