
#######################################################################
#
#                 Cambridge Crystallographic Data Centre
#                                CCDC 
#
#######################################################################
#
# If this CIF has been generated from an entry in the Cambridge 
# Structural Database, then it will include bibliographic, chemical, 
# crystal, experimental, refinement or atomic coordinate data resulting 
# from the CCDC's data processing and validation procedures.
#
#######################################################################

data_MAJDIM
_symmetry_cell_setting           triclinic
_symmetry_space_group_name_H-M   'P -1'
_symmetry_Int_Tables_number      2
_space_group_name_Hall           '-P 1'
loop_
_symmetry_equiv_pos_site_id
_symmetry_equiv_pos_as_xyz
1 x,y,z
2 -x,-y,-z
_cell_length_a                   7.6593(4)
_cell_length_b                   8.3150(4)
_cell_length_c                   10.0000(4)
_cell_angle_alpha                112.090(2)
_cell_angle_beta                 107.066(2)
_cell_angle_gamma                94.179(2)
_cell_volume                     551.934
loop_
_atom_site_label
_atom_site_type_symbol
_atom_site_fract_x
_atom_site_fract_y
_atom_site_fract_z
Ag1 Ag 0.59059(4) 0.70595(4) 0.52948(3)
S1 S 0.19382(15) 1.11837(13) 0.20425(11)
S2 S 0.23881(15) 0.61656(13) 0.45487(12)
F1 F 0.7028(4) 0.6294(5) 0.0178(4)
F2 F 0.6706(4) 0.3765(4) 0.0326(3)
O1 O 0.6559(7) 0.7845(5) 0.2863(5)
O2 O 0.5901(7) 0.5214(7) 0.2871(4)
C1 C 0.6188(6) 0.6224(7) 0.2278(5)
C2 C 0.6004(5) 0.5272(5) 0.0571(4)
C3 C 0.1596(8) 0.7574(8) 0.6027(6)
H1 H 0.2032 0.8806 0.6260
H2 H 0.2087 0.7370 0.6947
H3 H 0.0243 0.7303 0.5669
C4 C 0.0952(6) 0.9089(6) 0.1971(5)
H4 H 0.0752 0.8149 0.0956
H5 H -0.0270 0.9156 0.2090
C5 C 0.3531(8) 1.0506(7) 0.1017(6)
H6 H 0.2828 0.9775 -0.0061
H7 H 0.4306 1.1548 0.1113
H8 H 0.4316 0.9832 0.1449
C6 C 0.1307(6) 0.6746(6) 0.2967(5)
H9 H 0.1405 0.5866 0.2025
H10 H -0.0023 0.6682 0.2820
C7 C 0.2159(6) 0.8585(6) 0.3195(5)
H11 H 0.2269 0.9456 0.4217
H12 H 0.3414 0.8595 0.3135
Ag1A Ag 0.40941(4) 1.29405(4) 0.47052(3)
Ag1A_2 Ag 0.40941(4) 0.29405(4) -0.52948(3)
S1A S 0.80618(15) 0.88163(13) 0.79575(11)
S2A S 0.76119(15) 1.38344(13) 0.54513(12)
F1A F 0.2972(4) 0.3706(5) -0.0178(4)
F2A F 0.3294(4) 0.6235(4) -0.0326(3)
O1A O 0.3441(7) 0.2155(5) -0.2863(5)
O2A O 0.4099(7) 0.4786(7) -0.2871(4)
O2A_2 O 0.4099(7) 1.4786(7) 0.7129(4)
C1A C 0.3812(6) 0.3776(7) -0.2278(5)
C2A C 0.3996(5) 0.4728(5) -0.0571(4)
C3A C 0.8404(8) 1.2426(8) 0.3973(6)
H1A H 0.7968 1.1194 0.3740
H2A H 0.7913 1.2630 0.3053
H3A H 0.9757 1.2697 0.4331
C4A C 0.9048(6) 1.0911(6) 0.8029(5)
H4A H 0.9248 1.1851 0.9044
H5A H 1.0270 1.0844 0.7910
C5A C 0.6469(8) 0.9494(7) 0.8983(6)
H6A H 0.7172 1.0225 1.0061
H7A H 0.5694 0.8452 0.8887
H8A H 0.5684 1.0168 0.8551
C6A C 0.8693(6) 1.3254(6) 0.7033(5)
H9A H 0.8595 1.4134 0.7975
H10A H 1.0023 1.3318 0.7180
C7A C 0.7841(6) 1.1415(6) 0.6805(5)
H11A H 0.7731 1.0544 0.5783
H12A H 0.6586 1.1405 0.6865
loop_
_geom_bond_atom_site_label_1
_geom_bond_atom_site_label_2
_geom_bond_site_symmetry_1
_geom_bond_site_symmetry_2
Ag1 S2 1_555 1_555
S1 C4 1_555 1_555
S2 C3 1_555 1_555
F1 C2 1_555 1_555
F2 C2 1_555 1_555
O1 C1 1_555 1_555
O2 Ag1 1_555 1_555
C1 O2 1_555 1_555
C2 C1 1_555 1_555
C3 H1 1_555 1_555
H2 C3 1_555 1_555
H3 C3 1_555 1_555
C4 H4 1_555 1_555
H5 C4 1_555 1_555
C5 S1 1_555 1_555
H6 C5 1_555 1_555
H7 C5 1_555 1_555
H8 C5 1_555 1_555
C6 S2 1_555 1_555
H9 C6 1_555 1_555
H10 C6 1_555 1_555
C7 C4 1_555 1_555
H11 C7 1_555 1_555
H12 C7 1_555 1_555
Ag1A S1 1_555 1_555
Ag1A_2 O2A 1_555 1_555
S1A Ag1 1_555 1_555
S2A Ag1A 1_555 1_555
F1A C2A 1_555 1_555
F2A C2A 1_555 1_555
O1A C1A 1_555 1_555
O2A C1A 1_555 1_555
O2A_2 Ag1A 1_555 1_555
C1A C2A 1_555 1_555
C2A C2 1_555 1_555
C3A S2A 1_555 1_555
H1A C3A 1_555 1_555
H2A C3A 1_555 1_555
H3A C3A 1_555 1_555
C4A S1A 1_555 1_555
H4A C4A 1_555 1_555
H5A C4A 1_555 1_555
C5A S1A 1_555 1_555
H6A C5A 1_555 1_555
H7A C5A 1_555 1_555
H8A C5A 1_555 1_555
C6A S2A 1_555 1_555
H9A C6A 1_555 1_555
H10A C6A 1_555 1_555
C7A C4A 1_555 1_555
H11A C7A 1_555 1_555
H12A C7A 1_555 1_555
C6 C7 1_555 1_555
C6A C7A 1_555 1_555

#END
