
#######################################################################
#
#                 Cambridge Crystallographic Data Centre
#                                CCDC 
#
#######################################################################
#
# If this CIF has been generated from an entry in the Cambridge 
# Structural Database, then it will include bibliographic, chemical, 
# crystal, experimental, refinement or atomic coordinate data resulting 
# from the CCDC's data processing and validation procedures.
#
#######################################################################

data_MAJDEI
_symmetry_cell_setting           triclinic
_symmetry_space_group_name_H-M   'P -1'
_symmetry_Int_Tables_number      2
_space_group_name_Hall           '-P 1'
loop_
_symmetry_equiv_pos_site_id
_symmetry_equiv_pos_as_xyz
1 x,y,z
2 -x,-y,-z
_cell_length_a                   7.8429(2)
_cell_length_b                   8.1860(2)
_cell_length_c                   12.5548(3)
_cell_angle_alpha                78.1150(10)
_cell_angle_beta                 74.2710(10)
_cell_angle_gamma                77.7590(10)
_cell_volume                     748.717
loop_
_atom_site_label
_atom_site_type_symbol
_atom_site_fract_x
_atom_site_fract_y
_atom_site_fract_z
Ag1 Ag 0.56830(6) 0.79357(5) 1.01768(3)
S1 S 0.2496(2) 0.89891(16) 1.00207(11)
S2 S 0.3415(2) 0.32550(19) 0.80291(12)
F1 F 1.0016(5) 0.8356(6) 0.6361(3)
F2 F 0.9037(6) 0.5984(5) 0.6609(3)
F3 F 0.5728(5) 0.8028(6) 0.6233(3)
F4 F 0.7265(7) 1.0096(5) 0.5586(3)
F5 F 0.7257(10) 0.8760(7) 0.3916(4)
F6 F 0.9827(7) 0.7763(7) 0.4271(4)
F7 F 0.7790(8) 0.6200(6) 0.4748(4)
O1 O 0.7532(7) 0.6699(8) 0.8604(4)
O2 O 0.6798(10) 0.9389(7) 0.7985(4)
C1 C 0.7510(8) 0.7950(8) 0.7871(4)
C2 C 0.8527(7) 0.7656(7) 0.6665(4)
C3 C 0.7380(8) 0.8422(7) 0.5800(5)
C4 C 0.8082(11) 0.7780(9) 0.4653(5)
C5 C 0.1144(8) 0.7937(8) 1.1261(5)
H1 H -0.0099 0.8179 1.1211
H2 H 0.1241 0.8340 1.1913
H3 H 0.1562 0.6726 1.1327
C6 C 0.2112(9) 0.8068(8) 0.8931(5)
H4 H 0.0815 0.8156 0.9027
H5 H 0.2582 0.8723 0.8202
C7 C 0.2984(8) 0.6217(7) 0.8928(5)
H6 H 0.2695 0.5590 0.9690
H7 H 0.4292 0.6140 0.8683
C8 C 0.2325(8) 0.5424(8) 0.8147(6)
H8 H 0.2536 0.6111 0.7401
H9 H 0.1027 0.5448 0.8423
C9 C 0.5472(9) 0.3579(10) 0.7015(6)
H10 H 0.5203 0.4219 0.6322
H11 H 0.6195 0.2492 0.6875
H12 H 0.6131 0.4202 0.7300
Ag1A Ag 0.43170(6) 0.20643(5) 0.98232(3)
S2A S 0.6585(2) 0.67450(19) 1.19709(12)
loop_
_geom_bond_atom_site_label_1
_geom_bond_atom_site_label_2
_geom_bond_site_symmetry_1
_geom_bond_site_symmetry_2
Ag1 S1 1_555 1_555
S1 C5 1_555 1_555
S2 C8 1_555 1_555
F1 C2 1_555 1_555
F2 C2 1_555 1_555
F3 C3 1_555 1_555
F4 C3 1_555 1_555
F5 C4 1_555 1_555
F6 C4 1_555 1_555
F7 C4 1_555 1_555
O1 Ag1 1_555 1_555
O2 C1 1_555 1_555
C1 O1 1_555 1_555
C2 C1 1_555 1_555
C3 C2 1_555 1_555
C4 C3 1_555 1_555
C5 H1 1_555 1_555
H2 C5 1_555 1_555
H3 C5 1_555 1_555
C6 S1 1_555 1_555
H4 C6 1_555 1_555
H5 C6 1_555 1_555
C7 C6 1_555 1_555
H6 C7 1_555 1_555
H7 C7 1_555 1_555
C8 C7 1_555 1_555
H8 C8 1_555 1_555
H9 C8 1_555 1_555
C9 S2 1_555 1_555
H10 C9 1_555 1_555
H11 C9 1_555 1_555
H12 C9 1_555 1_555
Ag1A S2 1_555 1_555
S2A Ag1 1_555 1_555

#END
