
#######################################################################
#
#                 Cambridge Crystallographic Data Centre
#                                CCDC 
#
#######################################################################
#
# If this CIF has been generated from an entry in the Cambridge 
# Structural Database, then it will include bibliographic, chemical, 
# crystal, experimental, refinement or atomic coordinate data resulting 
# from the CCDC's data processing and validation procedures.
#
#######################################################################

data_MAJGOV
_symmetry_cell_setting           monoclinic
_symmetry_space_group_name_H-M   'P 2/c'
_symmetry_Int_Tables_number      13
_space_group_name_Hall           '-P 2yc'
loop_
_symmetry_equiv_pos_site_id
_symmetry_equiv_pos_as_xyz
1 x,y,z
2 -x,y,1/2-z
3 -x,-y,-z
4 x,-y,1/2+z
_cell_length_a                   18.131(2)
_cell_length_b                   11.2252(11)
_cell_length_c                   14.8129(19)
_cell_angle_alpha                90
_cell_angle_beta                 109.410(13)
_cell_angle_gamma                90
_cell_volume                     2843.44
loop_
_atom_site_label
_atom_site_type_symbol
_atom_site_fract_x
_atom_site_fract_y
_atom_site_fract_z
Cd1 Cd 0.241440(19) 0.25190(3) 0.71156(3)
O1 O 0.21522(18) 0.4281(3) 0.6206(3)
O2 O 0.21592(19) 1.0765(3) 0.6199(3)
O3 O 0.3188(3) 0.3996(5) 0.8302(3)
O4 O 0.2722(3) 0.5040(4) 0.9206(3)
O5 O 0.1991(3) 0.3819(4) 0.8182(4)
O6 O 0.2308(3) 0.1061(5) 0.8354(3)
O7 O 0.3311(3) 0.0186(4) 0.9355(3)
O8 O 0.3427(3) 0.1292(4) 0.8214(3)
N1 N 0.3446(2) 0.2755(3) 0.6462(3)
N2 N 0.4465(2) 0.3926(4) 0.6228(4)
N3 N 0.3389(2) 0.4876(3) 0.6331(3)
H1 H 0.3674 0.5503 0.6396
N4 N 0.0982(2) 1.0208(3) 0.6307(3)
H2 H 0.0715 0.9592 0.6353
N5 N -0.0149(2) 1.1203(4) 0.6158(4)
N6 N 0.1023(2) 1.2319(3) 0.6462(3)
N7 N 0.2634(3) 0.4300(4) 0.8570(3)
N8 N 0.3019(3) 0.0832(4) 0.8649(4)
C1 C 0.3848(3) 0.1776(5) 0.6389(4)
H3 H 0.3639 0.1033 0.6442
C2 C 0.4548(3) 0.1831(5) 0.6241(5)
H4 H 0.4812 0.1143 0.6175
C3 C 0.4849(3) 0.2936(5) 0.6193(5)
H5 H 0.5342 0.2994 0.6133
C4 C 0.3767(3) 0.3785(4) 0.6341(4)
C5 C 0.2630(3) 0.5059(4) 0.6231(3)
C6 C 0.2382(3) 0.6352(4) 0.6182(4)
C7 C 0.1845(3) 0.6642(4) 0.6623(4)
H6 H 0.1639 0.6045 0.6905
C8 C 0.1609(3) 0.7807(4) 0.6650(4)
H7 H 0.1253 0.7997 0.6957
C9 C 0.1910(3) 0.8697(4) 0.6214(3)
C10 C 0.2433(3) 0.8394(4) 0.5759(4)
H8 H 0.2635 0.8984 0.5467
C11 C 0.2661(3) 0.7238(4) 0.5732(4)
H9 H 0.3005 0.7046 0.5409
C12 C 0.1697(3) 0.9984(4) 0.6246(4)
C13 C 0.0618(3) 1.1309(4) 0.6307(4)
C14 C -0.0539(3) 1.2205(5) 0.6127(5)
H10 H -0.1071 1.2165 0.6039
C15 C -0.0191(3) 1.3296(6) 0.6218(5)
H11 H -0.0475 1.3997 0.6168
C16 C 0.0596(3) 1.3306(5) 0.6386(5)
H12 H 0.0847 1.4039 0.6452
Cd1_2 Cd 0.241440(19) 1.25190(3) 0.71156(3)
O2_2 O 0.21592(19) 0.0765(3) 0.6199(3)
N6_2 N 0.1023(2) 0.2319(3) 0.6462(3)
O9 O 0.5646(3) 0.3226(4) 0.3652(5)
N9 N 0.4520(3) 0.2456(4) 0.3687(4)
C17 C 0.4807(5) 0.1259(6) 0.3736(8)
H13 H 0.5320 0.1266 0.3683
H14 H 0.4462 0.0800 0.3220
H15 H 0.4830 0.0909 0.4336
C18 C 0.3716(4) 0.2624(7) 0.3597(6)
H16 H 0.3614 0.3459 0.3634
H17 H 0.3607 0.2211 0.4106
H18 H 0.3389 0.2316 0.2993
C19 C 0.4968(4) 0.3340(6) 0.3653(6)
H19 H 0.4768 0.4106 0.3629
O10 O 0.0058(3) 1.1626(5) 0.3855(5)
N10 N 0.1215(2) 1.2383(4) 0.3967(3)
C20 C 0.2038(3) 1.2189(6) 0.4149(5)
H20 H 0.2142 1.1349 0.4170
H21 H 0.2333 1.2542 0.4752
H22 H 0.2188 1.2547 0.3648
C21 C 0.0926(4) 1.3580(6) 0.3904(6)
H23 H 0.0389 1.3568 0.3876
H24 H 0.0963 1.3950 0.3336
H25 H 0.1232 1.4022 0.4456
C22 C 0.0745(4) 1.1485(6) 0.3937(6)
H26 H 0.0942 1.0714 0.3978
loop_
_geom_bond_atom_site_label_1
_geom_bond_atom_site_label_2
_geom_bond_site_symmetry_1
_geom_bond_site_symmetry_2
Cd1 O1 1_555 1_555
O1 C5 1_555 1_555
O2 C12 1_555 1_555
O3 Cd1 1_555 1_555
O4 N7 1_555 1_555
O5 Cd1 1_555 1_555
O6 Cd1 1_555 1_555
O7 N8 1_555 1_555
O8 Cd1 1_555 1_555
O9 C19 1_555 1_555
O10 C22 1_555 1_555
N1 Cd1 1_555 1_555
N2 C3 1_555 1_555
N3 H1 1_555 1_555
N4 H2 1_555 1_555
N5 C13 1_555 1_555
N6 C13 1_555 1_555
N7 O3 1_555 1_555
N8 O6 1_555 1_555
N9 C17 1_555 1_555
N10 C20 1_555 1_555
C1 N1 1_555 1_555
H3 C1 1_555 1_555
C2 C1 1_555 1_555
H4 C2 1_555 1_555
C3 C2 1_555 1_555
H5 C3 1_555 1_555
C4 N1 1_555 1_555
C5 N3 1_555 1_555
C6 C5 1_555 1_555
C7 C6 1_555 1_555
H6 C7 1_555 1_555
C8 C7 1_555 1_555
H7 C8 1_555 1_555
C9 C8 1_555 1_555
C10 C9 1_555 1_555
H8 C10 1_555 1_555
C11 C6 1_555 1_555
H9 C11 1_555 1_555
C12 N4 1_555 1_555
C13 N4 1_555 1_555
C14 N5 1_555 1_555
H10 C14 1_555 1_555
C15 C14 1_555 1_555
H11 C15 1_555 1_555
C16 N6 1_555 1_555
H12 C16 1_555 1_555
C17 H13 1_555 1_555
H14 C17 1_555 1_555
H15 C17 1_555 1_555
C18 N9 1_555 1_555
H16 C18 1_555 1_555
H17 C18 1_555 1_555
H18 C18 1_555 1_555
C19 N9 1_555 1_555
H19 C19 1_555 1_555
C20 H20 1_555 1_555
H21 C20 1_555 1_555
H22 C20 1_555 1_555
C21 N10 1_555 1_555
H23 C21 1_555 1_555
H24 C21 1_555 1_555
H25 C21 1_555 1_555
C22 N10 1_555 1_555
H26 C22 1_555 1_555
Cd1_2 O2 1_555 1_555
O2_2 Cd1 1_555 1_555
N6_2 Cd1 1_555 1_555
O5 N7 1_555 1_555
O8 N8 1_555 1_555
N2 C4 1_555 1_555
N3 C4 1_555 1_555
N6 Cd1_2 1_555 1_555
C9 C12 1_555 1_555
C10 C11 1_555 1_555
C15 C16 1_555 1_555

#END
