
#######################################################################
#
#                 Cambridge Crystallographic Data Centre
#                                CCDC 
#
#######################################################################
#
# If this CIF has been generated from an entry in the Cambridge 
# Structural Database, then it will include bibliographic, chemical, 
# crystal, experimental, refinement or atomic coordinate data resulting 
# from the CCDC's data processing and validation procedures.
#
#######################################################################

data_MAJGIP
_symmetry_cell_setting           triclinic
_symmetry_space_group_name_H-M   'P -1'
_symmetry_Int_Tables_number      2
_space_group_name_Hall           '-P 1'
loop_
_symmetry_equiv_pos_site_id
_symmetry_equiv_pos_as_xyz
1 x,y,z
2 -x,-y,-z
_cell_length_a                   11.7978(5)
_cell_length_b                   13.8814(6)
_cell_length_c                   17.2370(7)
_cell_angle_alpha                77.851(2)
_cell_angle_beta                 77.219(2)
_cell_angle_gamma                73.103(2)
_cell_volume                     2601.6
loop_
_atom_site_label
_atom_site_type_symbol
_atom_site_fract_x
_atom_site_fract_y
_atom_site_fract_z
Cu1 Cu 0.70482(3) 0.52733(2) 0.71665(2)
O1 O 0.9909(2) 0.24740(15) 0.40580(13)
O2 O 1.2964(2) -0.26361(15) 0.46505(15)
O3 O 0.18419(18) 0.67293(15) 0.99360(15)
O4 O 0.7213(2) 0.35818(14) 0.76662(13)
O5 O 0.85286(17) 0.51407(14) 0.75815(12)
O7 O 0.69850(18) 0.71388(15) 0.66414(13)
N1 N 0.80561(18) 0.49461(15) 0.60836(14)
N2 N 1.00781(19) 0.27065(15) 0.52786(13)
H1 H 1.0431 0.2435 0.5688
N3 N 1.55995(18) -0.46371(15) 0.66849(14)
N4 N 1.3234(2) -0.25556(16) 0.58911(16)
H2 H 1.3051 -0.2174 0.6258
N5 N 0.59615(19) 0.57031(16) 0.82073(14)
N6 N 0.30772(19) 0.53693(16) 0.93847(14)
H3 H 0.3122 0.4775 0.9288
N7 N 0.8490(3) 0.21254(19) 0.81269(18)
N8 N 1.0225(2) 0.5541(2) 0.76495(14)
N10 N 0.5997(2) 0.8786(2) 0.6335(2)
C1 C 0.8792(2) 0.40127(18) 0.60064(17)
H4 H 0.8935 0.3552 0.6473
C2 C 0.9342(2) 0.37033(18) 0.52777(16)
C3 C 0.9149(2) 0.43981(19) 0.45842(17)
H5 H 0.9502 0.4220 0.4078
C4 C 0.8418(2) 0.53614(19) 0.46644(18)
H6 H 0.8289 0.5846 0.4208
C5 C 0.7889(2) 0.56039(19) 0.54047(18)
H7 H 0.7389 0.6254 0.5442
C6 C 1.0282(2) 0.2132(2) 0.46877(18)
C7 C 1.0969(2) 0.10378(19) 0.48558(17)
C8 C 1.1263(3) 0.0561(2) 0.56009(19)
H8 H 1.1055 0.0929 0.6027
C9 C 1.1277(3) 0.0474(2) 0.42420(19)
H9 H 1.1082 0.0782 0.3738
C10 C 1.4851(2) -0.37195(19) 0.64953(18)
H10 H 1.4951 -0.3161 0.6665
C11 C 1.3944(2) -0.3561(2) 0.60639(18)
C12 C 1.3772(3) -0.4400(2) 0.5834(2)
H11 H 1.3162 -0.4327 0.5548
C13 C 1.4523(3) -0.5344(2) 0.6040(2)
H12 H 1.4418 -0.5918 0.5897
C14 C 1.5427(3) -0.5438(2) 0.64541(19)
H13 H 1.5936 -0.6079 0.6579
C15 C 1.2821(3) -0.2149(2) 0.5188(2)
C16 C 1.2171(2) -0.1032(2) 0.51006(19)
C17 C 1.1869(3) -0.0465(2) 0.5716(2)
H14 H 1.2074 -0.0774 0.6217
C18 C 1.1878(3) -0.0554(2) 0.43641(19)
H15 H 1.2085 -0.0923 0.3939
C19 C 0.4947(2) 0.53959(18) 0.84948(18)
H16 H 0.4788 0.4938 0.8236
C20 C 0.4128(2) 0.57242(19) 0.91537(17)
C21 C 0.4393(3) 0.6385(2) 0.95503(19)
H17 H 0.3877 0.6613 1.0004
C22 C 0.5442(3) 0.6696(2) 0.92554(19)
H18 H 0.5634 0.7144 0.9507
C23 C 0.6192(3) 0.6345(2) 0.85941(18)
H19 H 0.6893 0.6561 0.8404
C24 C 0.1995(3) 0.5901(2) 0.97499(17)
C25 C 0.0994(2) 0.5411(2) 0.98808(16)
C26 C 0.1126(3) 0.4365(2) 1.00960(18)
H20 H 0.1878 0.3935 1.0163
C27 C -0.0155(3) 0.6033(2) 0.97899(17)
H21 H -0.0261 0.6734 0.9649
C28 C 0.7893(3) 0.3085(2) 0.8136(2)
H22 H 0.7992 0.3410 0.8527
C29 C 0.8437(4) 0.1570(3) 0.7506(3)
H23 H 0.7866 0.1992 0.7176
H24 H 0.8193 0.0959 0.7758
H25 H 0.9216 0.1395 0.7178
C30 C 0.9305(4) 0.1606(3) 0.8691(3)
H26 H 0.9314 0.2069 0.9031
H27 H 1.0100 0.1372 0.8399
H28 H 0.9040 0.1034 0.9016
C31 C 0.9129(3) 0.5773(2) 0.75027(18)
H29 H 0.8773 0.6453 0.7328
C32 C 1.0861(3) 0.6306(3) 0.7583(2)
H30 H 1.0383 0.6960 0.7380
H31 H 1.1611 0.6144 0.7221
H32 H 1.1014 0.6322 0.8104
C33 C 1.0825(3) 0.4492(3) 0.7899(3)
H33 H 1.0373 0.4057 0.7821
H34 H 1.0886 0.4391 0.8458
H35 H 1.1616 0.4332 0.7584
C37 C 0.6561(3) 0.7997(3) 0.6792(2)
H43 H 0.6646 0.8107 0.7288
C38 C 0.5475(4) 0.9779(3) 0.6608(4)
H44 H 0.5689 0.9749 0.7120
H45 H 0.4616 0.9945 0.6661
H46 H 0.5779 1.0292 0.6222
C39 C 0.5847(4) 0.8698(3) 0.5556(3)
H47 H 0.6226 0.8014 0.5453
H48 H 0.6210 0.9165 0.5156
H49 H 0.5006 0.8855 0.5535
Cu1_2 Cu -0.29518(3) 1.52733(2) 0.71665(2)
Cu1_3 Cu 1.70482(3) -0.47267(2) 0.71665(2)
Cu1A Cu -0.70482(3) 0.47267(2) 1.28335(2)
O1_2 O -0.0091(2) 1.24740(15) 0.40580(13)
O2_2 O 0.2964(2) 0.73639(15) 0.46505(15)
O3A O -0.18419(18) 0.32707(15) 1.00640(15)
O4_2 O -0.2787(2) 1.35818(14) 0.76662(13)
O5_2 O -0.14714(17) 1.51407(14) 0.75815(12)
O7_2 O -0.30150(18) 1.71388(15) 0.66414(13)
N1_2 N -0.19439(18) 1.49461(15) 0.60836(14)
N2_2 N 0.00781(19) 1.27065(15) 0.52786(13)
H1_2 H 0.0431 1.2435 0.5688
N3_2 N 0.55995(18) 0.53629(15) 0.66849(14)
N3_3 N -0.44005(18) 1.53629(15) 0.66849(14)
N4_2 N 0.3234(2) 0.74444(16) 0.58911(16)
H2_2 H 0.3051 0.7826 0.6258
N5A N -0.59615(19) 0.42969(16) 1.17927(14)
N5_2 N -0.40385(19) 1.57031(16) 0.82073(14)
N6A N -0.30772(19) 0.46307(16) 1.06153(14)
H3A H -0.3122 0.5225 1.0712
N7_2 N -0.1510(3) 1.21254(19) 0.81269(18)
N8_2 N 0.0225(2) 1.5541(2) 0.76495(14)
N10_2 N -0.4003(2) 1.8786(2) 0.6335(2)
C1_2 C -0.1208(2) 1.40127(18) 0.60064(17)
H4_2 H -0.1065 1.3552 0.6473
C2_2 C -0.0658(2) 1.37033(18) 0.52777(16)
C3_2 C -0.0851(2) 1.43981(19) 0.45842(17)
H5_2 H -0.0498 1.4220 0.4078
C4_2 C -0.1582(2) 1.53614(19) 0.46644(18)
H6_2 H -0.1711 1.5846 0.4208
C5_2 C -0.2111(2) 1.56039(19) 0.54047(18)
H7_2 H -0.2611 1.6254 0.5442
C6_2 C 0.0282(2) 1.2132(2) 0.46877(18)
C7_2 C 0.0969(2) 1.10378(19) 0.48558(17)
C8_2 C 0.1263(3) 1.0561(2) 0.56009(19)
H8_2 H 0.1055 1.0929 0.6027
C9_2 C 0.1277(3) 1.0474(2) 0.42420(19)
H9_2 H 0.1082 1.0782 0.3738
C10_2 C 0.4851(2) 0.62805(19) 0.64953(18)
H10_2 H 0.4951 0.6839 0.6665
C11_2 C 0.3944(2) 0.6439(2) 0.60639(18)
C12_2 C 0.3772(3) 0.5600(2) 0.5834(2)
H11_2 H 0.3162 0.5673 0.5548
C13_2 C 0.4523(3) 0.4656(2) 0.6040(2)
H12_2 H 0.4418 0.4082 0.5897
C14_2 C 0.5427(3) 0.4562(2) 0.64541(19)
H13_2 H 0.5936 0.3921 0.6579
C15_2 C 0.2821(3) 0.7851(2) 0.5188(2)
C16_2 C 0.2171(2) 0.8968(2) 0.51006(19)
C17_2 C 0.1869(3) 0.9535(2) 0.5716(2)
H14_2 H 0.2074 0.9226 0.6217
C18_2 C 0.1878(3) 0.9446(2) 0.43641(19)
H15_2 H 0.2085 0.9077 0.3939
C19A C -0.4947(2) 0.46041(18) 1.15052(18)
H16A H -0.4788 0.5062 1.1764
C20A C -0.4128(2) 0.42758(19) 1.08463(17)
C21A C -0.4393(3) 0.3615(2) 1.04497(19)
H17A H -0.3877 0.3387 0.9996
C22A C -0.5442(3) 0.3304(2) 1.07446(19)
H18A H -0.5634 0.2856 1.0493
C23A C -0.6192(3) 0.3655(2) 1.14059(18)
H19A H -0.6893 0.3439 1.1596
C24A C -0.1995(3) 0.4099(2) 1.02501(17)
C25A C -0.0994(2) 0.4589(2) 1.01192(16)
C26A C -0.1126(3) 0.5635(2) 0.99040(18)
H20A H -0.1878 0.6065 0.9837
C27A C 0.0155(3) 0.3967(2) 1.02101(17)
H21A H 0.0261 0.3266 1.0351
C28_2 C -0.2107(3) 1.3085(2) 0.8136(2)
H22_2 H -0.2008 1.3410 0.8527
C29_2 C -0.1563(4) 1.1570(3) 0.7506(3)
H23_2 H -0.2134 1.1992 0.7176
H24_2 H -0.1807 1.0959 0.7758
H25_2 H -0.0784 1.1395 0.7178
C30_2 C -0.0695(4) 1.1606(3) 0.8691(3)
H26_2 H -0.0686 1.2069 0.9031
H27_2 H 0.0100 1.1372 0.8399
H28_2 H -0.0960 1.1034 0.9016
C31_2 C -0.0871(3) 1.5773(2) 0.75027(18)
H29_2 H -0.1227 1.6453 0.7328
C32_2 C 0.0861(3) 1.6306(3) 0.7583(2)
H30_2 H 0.0383 1.6960 0.7380
H31_2 H 0.1611 1.6144 0.7221
H32_2 H 0.1014 1.6322 0.8104
C33_2 C 0.0825(3) 1.4492(3) 0.7899(3)
H33_2 H 0.0373 1.4057 0.7821
H34_2 H 0.0886 1.4391 0.8458
H35_2 H 0.1616 1.4332 0.7584
C37_2 C -0.3439(3) 1.7997(3) 0.6792(2)
H43_2 H -0.3354 1.8107 0.7288
C38_2 C -0.4525(4) 1.9779(3) 0.6608(4)
H44_2 H -0.4311 1.9749 0.7120
H45_2 H -0.5384 1.9945 0.6661
H46_2 H -0.4221 2.0292 0.6222
C39_2 C -0.4153(4) 1.8698(3) 0.5556(3)
H47_2 H -0.3774 1.8014 0.5453
H48_2 H -0.3790 1.9165 0.5156
H49_2 H -0.4994 1.8855 0.5535
Cl1 Cl 0.76852(11) 0.87360(8) 0.86264(8)
O9 O 0.6458(6) 0.9094(12) 0.8659(14)
O10 O 0.7868(16) 0.7769(10) 0.8887(12)
O11 O 0.8437(13) 0.8873(12) 0.7876(7)
O12 O 0.7814(13) 0.9424(8) 0.9040(8)
Cl2 Cl 0.77594(10) 0.80450(7) 0.30685(7)
O13 O 0.8941(2) 0.75857(17) 0.32256(16)
O14 O 0.7914(11) 0.7978(9) 0.2221(7)
O15 O 0.6977(11) 0.7575(10) 0.3480(11)
O16 O 0.7441(13) 0.9125(11) 0.3013(11)
O6 O 0.3342(3) 0.8194(2) 0.7282(2)
N9 N 0.2322(4) 0.8757(2) 0.8424(2)
C34 C 0.3267(5) 0.8494(3) 0.7910(3)
H36 H 0.3981 0.8537 0.8029
C35 C 0.1231(6) 0.8710(5) 0.8309(5)
H37 H 0.1336 0.8130 0.8055
H38 H 0.0883 0.9320 0.7971
H39 H 0.0709 0.8648 0.8820
C36 C 0.2310(7) 0.9126(4) 0.9134(3)
H40 H 0.3121 0.9026 0.9209
H41 H 0.1891 0.8762 0.9589
H42 H 0.1910 0.9839 0.9085
O8 O 0.6386(3) 0.63920(19) 0.12557(19)
N11 N 0.5735(4) 0.8081(3) 0.1267(3)
C40 C 0.6472(5) 0.7221(4) 0.1131(4)
H50 H 0.7237 0.7280 0.0879
C41 C 0.5969(5) 0.9082(3) 0.1044(4)
H51 H 0.6755 0.9028 0.0724
H52 H 0.5928 0.9351 0.1522
H53 H 0.5378 0.9530 0.0739
C42 C 0.4811(10) 0.7998(7) 0.1969(6)
H54 H 0.5048 0.7350 0.2300
H55 H 0.4068 0.8053 0.1802
H56 H 0.4707 0.8535 0.2271
C43? C 0.4605(15) 0.8117(11) 0.1260(11)
H57? H 0.4392 0.8460 0.0748
H58? H 0.4090 0.8479 0.1678
H59? H 0.4511 0.7435 0.1354
O17? O 0.8272(17) 0.7792(9) 0.8405(10)
O18? O 0.7702(13) 0.9391(8) 0.7925(9)
O19? O 0.8331(12) 0.8780(8) 0.9226(9)
O20? O 0.7355(12) 0.7473(10) 0.2665(12)
O21? O 0.7052(11) 0.8040(9) 0.3919(6)
O22? O 0.7683(15) 0.9016(9) 0.2735(9)
O23? O 0.6532(9) 0.8656(11) 0.8876(10)
loop_
_geom_bond_atom_site_label_1
_geom_bond_atom_site_label_2
_geom_bond_site_symmetry_1
_geom_bond_site_symmetry_2
Cu1 O4 1_555 1_555
Cl1 O9 1_555 1_555
Cl2 O13 1_555 1_555
O1 C6 1_555 1_555
O2 C15 1_555 1_555
O3 C24 1_555 1_555
O4 C28 1_555 1_555
O5 Cu1 1_555 1_555
O6 C34 1_555 1_555
O7 Cu1 1_555 1_555
O8 C40 1_555 1_555
O10 Cl1 1_555 1_555
O11 Cl1 1_555 1_555
O12 Cl1 1_555 1_555
O14 Cl2 1_555 1_555
O15 Cl2 1_555 1_555
O16 Cl2 1_555 1_555
N1 Cu1 1_555 1_555
N2 H1 1_555 1_555
N3 C10 1_555 1_555
N4 H2 1_555 1_555
N5 Cu1 1_555 1_555
N6 H3 1_555 1_555
N7 C28 1_555 1_555
N8 C31 1_555 1_555
N9 C34 1_555 1_555
N10 C37 1_555 1_555
N11 C40 1_555 1_555
C1 N1 1_555 1_555
H4 C1 1_555 1_555
C2 N2 1_555 1_555
C3 C2 1_555 1_555
H5 C3 1_555 1_555
C4 C3 1_555 1_555
H6 C4 1_555 1_555
C5 N1 1_555 1_555
H7 C5 1_555 1_555
C6 N2 1_555 1_555
C7 C6 1_555 1_555
C8 C7 1_555 1_555
H8 C8 1_555 1_555
C9 C7 1_555 1_555
H9 C9 1_555 1_555
C10 H10 1_555 1_555
C11 N4 1_555 1_555
C12 C11 1_555 1_555
H11 C12 1_555 1_555
C13 C12 1_555 1_555
H12 C13 1_555 1_555
C14 N3 1_555 1_555
H13 C14 1_555 1_555
C15 N4 1_555 1_555
C16 C15 1_555 1_555
C17 C8 1_555 1_555
H14 C17 1_555 1_555
C18 C9 1_555 1_555
H15 C18 1_555 1_555
C19 N5 1_555 1_555
H16 C19 1_555 1_555
C20 N6 1_555 1_555
C21 C20 1_555 1_555
H17 C21 1_555 1_555
C22 C21 1_555 1_555
H18 C22 1_555 1_555
C23 N5 1_555 1_555
H19 C23 1_555 1_555
C24 N6 1_555 1_555
C25 C24 1_555 1_555
C26 C25 1_555 1_555
H20 C26 1_555 1_555
C27 C25 1_555 1_555
H21 C27 1_555 1_555
C28 H22 1_555 1_555
C29 N7 1_555 1_555
H23 C29 1_555 1_555
H24 C29 1_555 1_555
H25 C29 1_555 1_555
C30 N7 1_555 1_555
H26 C30 1_555 1_555
H27 C30 1_555 1_555
H28 C30 1_555 1_555
C31 O5 1_555 1_555
H29 C31 1_555 1_555
C32 N8 1_555 1_555
H30 C32 1_555 1_555
H31 C32 1_555 1_555
H32 C32 1_555 1_555
C33 N8 1_555 1_555
H33 C33 1_555 1_555
H34 C33 1_555 1_555
H35 C33 1_555 1_555
C34 H36 1_555 1_555
C35 N9 1_555 1_555
H37 C35 1_555 1_555
H38 C35 1_555 1_555
H39 C35 1_555 1_555
C36 N9 1_555 1_555
H40 C36 1_555 1_555
H41 C36 1_555 1_555
H42 C36 1_555 1_555
C37 O7 1_555 1_555
H43 C37 1_555 1_555
C38 N10 1_555 1_555
H44 C38 1_555 1_555
H45 C38 1_555 1_555
H46 C38 1_555 1_555
C39 N10 1_555 1_555
H47 C39 1_555 1_555
H48 C39 1_555 1_555
H49 C39 1_555 1_555
C40 H50 1_555 1_555
C41 N11 1_555 1_555
H51 C41 1_555 1_555
H52 C41 1_555 1_555
H53 C41 1_555 1_555
C42 N11 1_555 1_555
H54 C42 1_555 1_555
H55 C42 1_555 1_555
H56 C42 1_555 1_555
Cu1_2 O4_2 1_555 1_555
Cu1_3 N3 1_555 1_555
Cu1A N5A 1_555 1_555
O1_2 C6_2 1_555 1_555
O2_2 C15_2 1_555 1_555
O3A C24A 1_555 1_555
O4_2 C28_2 1_555 1_555
O5_2 Cu1_2 1_555 1_555
O7_2 Cu1_2 1_555 1_555
N1_2 Cu1_2 1_555 1_555
N2_2 H1_2 1_555 1_555
N3_2 Cu1 1_555 1_555
N3_3 Cu1_2 1_555 1_555
N4_2 H2_2 1_555 1_555
N5A C19A 1_555 1_555
N5_2 Cu1_2 1_555 1_555
N6A H3A 1_555 1_555
N7_2 C28_2 1_555 1_555
N8_2 C31_2 1_555 1_555
N10_2 C37_2 1_555 1_555
C1_2 N1_2 1_555 1_555
H4_2 C1_2 1_555 1_555
C2_2 N2_2 1_555 1_555
C3_2 C2_2 1_555 1_555
H5_2 C3_2 1_555 1_555
C4_2 C3_2 1_555 1_555
H6_2 C4_2 1_555 1_555
C5_2 N1_2 1_555 1_555
H7_2 C5_2 1_555 1_555
C6_2 N2_2 1_555 1_555
C7_2 C6_2 1_555 1_555
C8_2 C7_2 1_555 1_555
H8_2 C8_2 1_555 1_555
C9_2 C7_2 1_555 1_555
H9_2 C9_2 1_555 1_555
C10_2 N3_2 1_555 1_555
H10_2 C10_2 1_555 1_555
C11_2 N4_2 1_555 1_555
C12_2 C11_2 1_555 1_555
H11_2 C12_2 1_555 1_555
C13_2 C12_2 1_555 1_555
H12_2 C13_2 1_555 1_555
C14_2 N3_2 1_555 1_555
H13_2 C14_2 1_555 1_555
C15_2 N4_2 1_555 1_555
C16_2 C15_2 1_555 1_555
C17_2 C8_2 1_555 1_555
H14_2 C17_2 1_555 1_555
C18_2 C9_2 1_555 1_555
H15_2 C18_2 1_555 1_555
C19A H16A 1_555 1_555
C20A N6A 1_555 1_555
C21A C20A 1_555 1_555
H17A C21A 1_555 1_555
C22A C21A 1_555 1_555
H18A C22A 1_555 1_555
C23A N5A 1_555 1_555
H19A C23A 1_555 1_555
C24A N6A 1_555 1_555
C25A C24A 1_555 1_555
C26A C27 1_555 1_555
H20A C26A 1_555 1_555
C27A C26 1_555 1_555
H21A C27A 1_555 1_555
C28_2 H22_2 1_555 1_555
C29_2 N7_2 1_555 1_555
H23_2 C29_2 1_555 1_555
H24_2 C29_2 1_555 1_555
H25_2 C29_2 1_555 1_555
C30_2 N7_2 1_555 1_555
H26_2 C30_2 1_555 1_555
H27_2 C30_2 1_555 1_555
H28_2 C30_2 1_555 1_555
C31_2 O5_2 1_555 1_555
H29_2 C31_2 1_555 1_555
C32_2 N8_2 1_555 1_555
H30_2 C32_2 1_555 1_555
H31_2 C32_2 1_555 1_555
H32_2 C32_2 1_555 1_555
C33_2 N8_2 1_555 1_555
H33_2 C33_2 1_555 1_555
H34_2 C33_2 1_555 1_555
H35_2 C33_2 1_555 1_555
C37_2 O7_2 1_555 1_555
H43_2 C37_2 1_555 1_555
C38_2 N10_2 1_555 1_555
H44_2 C38_2 1_555 1_555
H45_2 C38_2 1_555 1_555
H46_2 C38_2 1_555 1_555
C39_2 N10_2 1_555 1_555
H47_2 C39_2 1_555 1_555
H48_2 C39_2 1_555 1_555
H49_2 C39_2 1_555 1_555
C1 C2 1_555 1_555
C4 C5 1_555 1_555
C10 C11 1_555 1_555
C13 C14 1_555 1_555
C16 C17 1_555 1_555
C16 C18 1_555 1_555
C19 C20 1_555 1_555
C22 C23 1_555 1_555
C1_2 C2_2 1_555 1_555
C4_2 C5_2 1_555 1_555
C10_2 C11_2 1_555 1_555
C13_2 C14_2 1_555 1_555
C16_2 C17_2 1_555 1_555
C16_2 C18_2 1_555 1_555
C19A C20A 1_555 1_555
C22A C23A 1_555 1_555
C25A C26A 1_555 1_555
C25A C27A 1_555 1_555

#END
