
#######################################################################
#
#                 Cambridge Crystallographic Data Centre
#                                CCDC 
#
#######################################################################
#
# If this CIF has been generated from an entry in the Cambridge 
# Structural Database, then it will include bibliographic, chemical, 
# crystal, experimental, refinement or atomic coordinate data resulting 
# from the CCDC's data processing and validation procedures.
#
#######################################################################

data_MAJHAI
_symmetry_cell_setting           orthorhombic
_symmetry_space_group_name_H-M   'P b c n'
_symmetry_Int_Tables_number      60
_space_group_name_Hall           '-P 2n 2ab'
loop_
_symmetry_equiv_pos_site_id
_symmetry_equiv_pos_as_xyz
1 x,y,z
2 1/2-x,1/2-y,1/2+z
3 -x,y,1/2-z
4 1/2+x,1/2-y,-z
5 -x,-y,-z
6 1/2+x,1/2+y,1/2-z
7 x,-y,1/2+z
8 1/2-x,1/2+y,z
_cell_length_a                   13.6742(6)
_cell_length_b                   17.2775(7)
_cell_length_c                   20.5562(8)
_cell_angle_alpha                90
_cell_angle_beta                 90
_cell_angle_gamma                90
_cell_volume                     4856.53
loop_
_atom_site_label
_atom_site_type_symbol
_atom_site_fract_x
_atom_site_fract_y
_atom_site_fract_z
Hg1 Hg 0.501363(15) 0.046648(11) 0.609342(11)
Br1 Br 0.44984(4) -0.08319(4) 0.57759(3)
Br2 Br 0.54452(4) 0.18390(3) 0.60233(3)
Br3 Br 0.5000 0.03404(4) 0.7500
Hg1B Hg 0.498637(15) 0.046648(11) 0.890658(11)
Br1B Br 0.55016(4) -0.08319(4) 0.92241(3)
Br2B Br 0.45548(4) 0.18390(3) 0.89767(3)
O1 O 0.9102(2) -0.05761(16) 0.81150(14)
O2 O 0.5872(2) -0.35844(16) 0.69007(14)
N1 N 0.7555(2) -0.0108(2) 0.82436(17)
H1 H 0.6948 -0.0225 0.8195
N2 N 0.7040(3) 0.0921(2) 0.88547(17)
N3 N 0.8606(3) 0.0947(2) 0.83514(16)
N4 N 0.7426(2) -0.4021(2) 0.67404(17)
H2 H 0.8031 -0.3886 0.6764
N5 N 0.6398(3) -0.5089(2) 0.66419(16)
N6 N 0.7997(3) -0.5066(2) 0.61786(17)
C1 C 0.7216(4) 0.1603(3) 0.9126(2)
H3 H 0.6742 0.1826 0.9390
C2 C 0.8081(4) 0.1986(3) 0.9026(2)
H4 H 0.8208 0.2460 0.9224
C3 C 0.8752(3) 0.1643(3) 0.8622(2)
H5 H 0.9331 0.1904 0.8533
C4 C 0.7759(3) 0.0624(3) 0.8494(2)
C5 C 0.8223(3) -0.0660(3) 0.8067(2)
C6 C 0.7795(3) -0.1394(2) 0.7798(2)
C7 C 0.6866(3) -0.1440(2) 0.7536(2)
H6 H 0.6455 -0.1012 0.7550
C8 C 0.6548(3) -0.2117(3) 0.7253(2)
H7 H 0.5920 -0.2148 0.7082
C9 C 0.7157(3) -0.2747(2) 0.7223(2)
C10 C 0.8101(3) -0.2712(2) 0.7489(2)
H8 H 0.8512 -0.3141 0.7479
C11 C 0.8405(3) -0.2025(3) 0.7765(2)
H9 H 0.9035 -0.1988 0.7932
C12 C 0.6750(4) -0.3480(3) 0.6937(2)
C13 C 0.7238(3) -0.4762(3) 0.6508(2)
C14 C 0.6280(3) -0.5802(3) 0.6391(2)
H10 H 0.5692 -0.6058 0.6464
C15 C 0.6985(3) -0.6165(3) 0.6032(2)
H11 H 0.6885 -0.6655 0.5859
C16 C 0.7849(3) -0.5774(3) 0.5938(2)
H12 H 0.8345 -0.6010 0.5700
Na1 Na 1.0000 0.04238(13) 0.7500
O1E O 1.4102(2) 0.44239(16) 0.68850(14)
O1B O 1.0898(2) -0.05761(16) 0.68850(14)
O2E O 1.0872(2) 0.14156(16) 0.80993(14)
O2G O 0.9128(2) 0.14156(16) 0.69007(14)
N1E N 1.2555(2) 0.4892(2) 0.67564(17)
H1E H 1.1948 0.4775 0.6805
N2E N 1.2040(3) 0.5921(2) 0.61453(17)
N3E N 1.3606(3) 0.5947(2) 0.66486(16)
N3B N 1.1394(3) 0.0947(2) 0.66486(16)
N4E N 1.2426(2) 0.0979(2) 0.82596(17)
H2E H 1.3031 0.1114 0.8236
N5E N 1.1398(3) -0.0089(2) 0.83581(16)
N5G N 0.8602(3) -0.0089(2) 0.66419(16)
N6E N 1.2997(3) -0.0066(2) 0.88214(17)
C1E C 1.2216(4) 0.6603(3) 0.5874(2)
H3E H 1.1742 0.6826 0.5610
C2E C 1.3081(4) 0.6986(3) 0.5974(2)
H4E H 1.3208 0.7460 0.5776
C3E C 1.3752(3) 0.6643(3) 0.6378(2)
H5E H 1.4331 0.6904 0.6467
C4E C 1.2759(3) 0.5624(3) 0.6506(2)
C5E C 1.3223(3) 0.4340(3) 0.6933(2)
C6E C 1.2795(3) 0.3606(2) 0.7202(2)
C7E C 1.1866(3) 0.3560(2) 0.7464(2)
H6E H 1.1455 0.3988 0.7450
C8E C 1.1548(3) 0.2883(3) 0.7747(2)
H7E H 1.0920 0.2852 0.7918
C9E C 1.2157(3) 0.2253(2) 0.7777(2)
C10E C 1.3101(3) 0.2288(2) 0.7511(2)
H8E H 1.3512 0.1859 0.7521
C11E C 1.3405(3) 0.2975(3) 0.7235(2)
H9E H 1.4035 0.3012 0.7068
C12E C 1.1750(4) 0.1520(3) 0.8063(2)
C13E C 1.2238(3) 0.0238(3) 0.8492(2)
C14E C 1.1280(3) -0.0802(3) 0.8609(2)
H10E H 1.0692 -0.1058 0.8536
C15E C 1.1985(3) -0.1165(3) 0.8968(2)
H11E H 1.1885 -0.1655 0.9141
C16E C 1.2849(3) -0.0774(3) 0.9062(2)
H12E H 1.3345 -0.1010 0.9300
Na1E Na 0.5000 -0.45762(13) 0.7500
Na1E_2 Na 1.5000 0.54238(13) 0.7500
N7 N 0.8655(4) -0.8720(3) 0.50543(19)
O3 O 0.8039(4) -0.7634(3) 0.5446(3)
C17 C 0.7900(5) -0.8294(4) 0.5239(3)
H13 H 0.7269 -0.8492 0.5214
C18 C 0.9686(5) -0.8510(7) 0.5074(5)
H14 H 0.9752 -0.7989 0.5231
H15 H 0.9958 -0.8546 0.4645
H16 H 1.0028 -0.8856 0.5360
C19 C 0.8475(7) -0.9519(4) 0.4824(4)
H17 H 0.7795 -0.9643 0.4874
H18 H 0.8862 -0.9874 0.5074
H19 H 0.8652 -0.9558 0.4373
C20? C 0.8930(14) -0.8048(6) 0.5336(8)
C21? C 0.9591(13) -0.9163(16) 0.5008(13)
C22? C 0.7680(9) -0.8940(13) 0.4795(10)
H20? H 0.9606 -0.8032 0.5383
H21? H 0.9449 -0.9704 0.4957
H22? H 0.9966 -0.9086 0.5397
H23? H 0.9959 -0.8984 0.4640
H24? H 0.7446 -0.9390 0.5020
H25? H 0.7734 -0.9051 0.4339
H26? H 0.7230 -0.8520 0.4858
O4? O 0.8558(13) -0.7446(9) 0.5553(8)
loop_
_geom_bond_atom_site_label_1
_geom_bond_atom_site_label_2
_geom_bond_site_symmetry_1
_geom_bond_site_symmetry_2
Hg1 Br1 1_555 1_555
Br2 Hg1 1_555 1_555
Br3 Hg1 1_555 1_555
O1 C5 1_555 1_555
O2 C12 1_555 1_555
N1 H1 1_555 1_555
N2 C1 1_555 1_555
N3 C3 1_555 1_555
N4 H2 1_555 1_555
N5 C13 1_555 1_555
N6 C13 1_555 1_555
C1 H3 1_555 1_555
C2 C1 1_555 1_555
H4 C2 1_555 1_555
C3 C2 1_555 1_555
H5 C3 1_555 1_555
C4 N1 1_555 1_555
C5 N1 1_555 1_555
C6 C5 1_555 1_555
C7 C6 1_555 1_555
H6 C7 1_555 1_555
C8 C7 1_555 1_555
H7 C8 1_555 1_555
C9 C8 1_555 1_555
C10 C9 1_555 1_555
H8 C10 1_555 1_555
C11 C6 1_555 1_555
H9 C11 1_555 1_555
C12 N4 1_555 1_555
C13 N4 1_555 1_555
C14 N5 1_555 1_555
H10 C14 1_555 1_555
C15 C14 1_555 1_555
H11 C15 1_555 1_555
C16 N6 1_555 1_555
H12 C16 1_555 1_555
N7 C17 1_555 1_555
O3 C17 1_555 1_555
C17 H13 1_555 1_555
C18 N7 1_555 1_555
H14 C18 1_555 1_555
H15 C18 1_555 1_555
H16 C18 1_555 1_555
C19 N7 1_555 1_555
H17 C19 1_555 1_555
H18 C19 1_555 1_555
H19 C19 1_555 1_555
Na1 O1 1_555 1_555
Hg1B Br3 1_555 1_555
Br1B Hg1B 1_555 1_555
Br2B Hg1B 1_555 1_555
O1E C5E 1_555 1_555
O1B Na1 1_555 1_555
O2E Na1 1_555 1_555
O2G Na1 1_555 1_555
N1E H1E 1_555 1_555
N2E C1E 1_555 1_555
N3E C3E 1_555 1_555
N3B Na1 1_555 1_555
N4E H2E 1_555 1_555
N5E Na1 1_555 1_555
N5G Na1 1_555 1_555
N6E C13E 1_555 1_555
C1E H3E 1_555 1_555
C2E C1E 1_555 1_555
H4E C2E 1_555 1_555
C3E C2E 1_555 1_555
H5E C3E 1_555 1_555
C4E N1E 1_555 1_555
C5E N1E 1_555 1_555
C6E C5E 1_555 1_555
C7E C6E 1_555 1_555
H6E C7E 1_555 1_555
C8E C7E 1_555 1_555
H7E C8E 1_555 1_555
C9E C8E 1_555 1_555
C10E C9E 1_555 1_555
H8E C10E 1_555 1_555
C11E C6E 1_555 1_555
H9E C11E 1_555 1_555
C12E O2E 1_555 1_555
C13E N4E 1_555 1_555
C14E N5E 1_555 1_555
H10E C14E 1_555 1_555
C15E C14E 1_555 1_555
H11E C15E 1_555 1_555
C16E N6E 1_555 1_555
H12E C16E 1_555 1_555
Na1E O2 1_555 1_555
Na1E_2 O1E 1_555 1_555
N2 C4 1_555 1_555
N3 C4 1_555 1_555
N3 Na1 1_555 1_555
N5 Na1E 1_555 1_555
C9 C12 1_555 1_555
C10 C11 1_555 1_555
C15 C16 1_555 1_555
N2E C4E 1_555 1_555
N3E C4E 1_555 1_555
N3E Na1E_2 1_555 1_555
N4E C12E 1_555 1_555
N5E C13E 1_555 1_555
C9E C12E 1_555 1_555
C10E C11E 1_555 1_555
C15E C16E 1_555 1_555

#END
