
#######################################################################
#
#                 Cambridge Crystallographic Data Centre
#                                CCDC 
#
#######################################################################
#
# If this CIF has been generated from an entry in the Cambridge 
# Structural Database, then it will include bibliographic, chemical, 
# crystal, experimental, refinement or atomic coordinate data resulting 
# from the CCDC's data processing and validation procedures.
#
#######################################################################

data_MAJHIQ
_symmetry_cell_setting           monoclinic
_symmetry_space_group_name_H-M   'C c'
_symmetry_Int_Tables_number      9
_space_group_name_Hall           'C -2yc'
loop_
_symmetry_equiv_pos_site_id
_symmetry_equiv_pos_as_xyz
1 x,y,z
2 x,-y,1/2+z
3 1/2+x,1/2+y,z
4 1/2+x,1/2-y,1/2+z
_cell_length_a                   10.0260(7)
_cell_length_b                   19.547(3)
_cell_length_c                   24.061(4)
_cell_angle_alpha                90
_cell_angle_beta                 98.920(11)
_cell_angle_gamma                90
_cell_volume                     4658.4
loop_
_atom_site_label
_atom_site_type_symbol
_atom_site_fract_x
_atom_site_fract_y
_atom_site_fract_z
C1 C -0.0148(6) 0.5559(3) 0.1369(3)
C2 C -0.0995(6) 0.4984(3) 0.1365(3)
H1 H -0.1923 0.5033 0.1262
C3 C -0.0450(6) 0.4333(3) 0.1516(3)
C4 C 0.0960(6) 0.4272(3) 0.1684(3)
C5 C 0.1780(6) 0.4839(3) 0.1682(3)
H2 H 0.2707 0.4786 0.1784
C6 C 0.1268(5) 0.5486(3) 0.1534(3)
C7 C 0.2188(6) 0.6113(3) 0.1584(3)
C8 C 0.1560(6) 0.3590(3) 0.1876(3)
C9 C -0.1375(6) 0.3719(3) 0.1450(3)
C10 C -0.0723(5) 0.6230(3) 0.1156(3)
C11 C 0.5961(8) 0.6083(3) 0.5110(4)
H3 H 0.6374 0.6393 0.4898
C12 C 0.6116(8) 0.5408(4) 0.5028(4)
H4 H 0.6624 0.5267 0.4756
C13 C 0.5535(7) 0.4907(3) 0.5339(3)
C14 C 0.4781(8) 0.5151(3) 0.5730(4)
H5 H 0.4370 0.4844 0.5946
C15 C 0.4632(7) 0.5845(3) 0.5805(3)
H6 H 0.4119 0.5991 0.6073
C16 C 0.1099(7) 0.0664(3) 0.2235(3)
H7 H 0.1592 0.0789 0.1954
C17 C 0.0855(8) -0.0042(3) 0.2322(4)
H8 H 0.1210 -0.0369 0.2105
C18 C 0.0117(7) -0.0241(3) 0.2714(3)
C19 C -0.0379(9) 0.0249(4) 0.3035(4)
H9 H -0.0889 0.0128 0.3311
C20 C -0.0092(8) 0.0955(4) 0.2934(4)
H10 H -0.0430 0.1289 0.3149
C21 C 0.5672(8) 0.4164(3) 0.5236(4)
H11 H 0.6457 0.4084 0.5055
H12 H 0.5798 0.3921 0.5592
C22 C 0.4372(8) 0.3891(4) 0.4850(3)
H13 H 0.4250 0.4140 0.4497
H14 H 0.3591 0.3978 0.5033
C23 C 0.2711(8) 0.2024(4) 0.3520(3)
H15 H 0.2834 0.1594 0.3370
C24 C 0.3557(8) 0.2219(4) 0.4019(3)
H16 H 0.4200 0.1917 0.4199
C25 C 0.1576(8) 0.3026(4) 0.3477(3)
H17 H 0.0876 0.3300 0.3303
C26 C 0.2355(8) 0.3280(4) 0.3952(4)
H18 H 0.2192 0.3715 0.4085
C27 C 0.3416(8) 0.2869(4) 0.4238(3)
C28 C 0.4453(7) 0.3125(4) 0.4730(3)
H19 H 0.5351 0.3022 0.4650
H20 H 0.4330 0.2874 0.5066
C29 C 0.3397(9) -0.2722(4) 0.4437(4)
H21 H 0.3284 -0.3177 0.4531
C30 C 0.2672(10) -0.2468(6) 0.3914(4)
H22 H 0.2089 -0.2757 0.3685
C31 C 0.2830(9) -0.1802(5) 0.3749(4)
C32 C -0.0202(10) -0.0994(4) 0.2803(4)
H23 H -0.1152 -0.1033 0.2835
H24 H -0.0054 -0.1248 0.2472
C33 C 0.0622(9) -0.1324(4) 0.3317(4)
H25 H 0.0664 -0.1013 0.3633
H26 H 0.0167 -0.1737 0.3410
C34 C 0.3724(11) -0.1395(6) 0.4114(4)
H27 H 0.3894 -0.0947 0.4015
C35 C 0.4371(9) -0.1664(5) 0.4636(4)
H28 H 0.4917 -0.1376 0.4882
C36 C 0.1983(10) -0.1496(7) 0.3235(4)
H29 H 0.2425 -0.1085 0.3128
H30 H 0.1938 -0.1818 0.2926
Co1 Co 0.08900(6) 0.22078(4) 0.23892(4)
Co2 Co 0.49674(6) 0.73860(4) 0.56469(4)
N1 N 0.5202(6) 0.6329(3) 0.5503(3)
N2 N 0.0640(6) 0.1150(3) 0.2544(3)
N3 N 0.1738(6) 0.2428(3) 0.3249(2)
N4 N 0.4219(6) -0.2332(3) 0.4790(3)
O1 O -0.0025(4) 0.6584(2) 0.0880(2)
O2 O 0.0856(4) 0.32534(19) 0.21921(19)
O3 O 0.2646(4) 0.3410(2) 0.1748(2)
O4 O 0.3076(5) 0.6147(2) 0.1292(2)
O5 O 0.1993(4) 0.6552(2) 0.1967(2)
O6 O -0.2289(5) 0.3683(2) 0.1761(2)
O7 O -0.1141(4) 0.3278(2) 0.1090(2)
O8 O -0.1910(4) 0.6398(2) 0.1244(2)
O9 O 0.2916(5) 0.7303(2) 0.5776(3)
H31 H 0.2743 0.7148 0.6079
H32 H 0.2832 0.7706 0.5887
O10 O 0.2901(4) 0.2128(2) 0.2208(2)
H33 H 0.3370 0.2471 0.2107
H34 H 0.2877 0.1944 0.1883
O11 O 0.0168(4) 0.2045(2) 0.15126(19)
H35 H -0.0472 0.1778 0.1459
H36 H -0.0136 0.2363 0.1301
O12 O -0.1142(4) 0.2431(2) 0.2489(2)
H37 H -0.1689 0.2215 0.2330
H38 H -0.1272 0.2887 0.2302
O15 O 0.5628(4) 0.7201(2) 0.6528(2)
H43 H 0.5964 0.7562 0.6681
H44 H 0.6367 0.7017 0.6515
O16 O 0.7002(4) 0.7614(2) 0.5550(2)
H45 H 0.7461 0.7385 0.5683
H46 H 0.7616 0.7802 0.5365
Co2_2 Co 0.49674(6) -0.26140(4) 0.56469(4)
Co2C Co -0.00326(6) 0.76140(4) 0.06469(4)
N4_2 N 0.4219(6) 0.7668(3) 0.4790(3)
O1C O 0.4975(4) 0.8416(2) 0.5880(2)
O13 O -0.4588(9) 0.8411(5) -0.2175(4)
H39 H -0.4728 0.8847 -0.2140
H40 H -0.3743 0.8537 -0.2151
O14 O 0.108(2) 0.4979(11) -0.0027(8)
H41 H 0.1565 0.4633 -0.0093
H42 H 0.0478 0.4764 -0.0043
loop_
_geom_bond_atom_site_label_1
_geom_bond_atom_site_label_2
_geom_bond_site_symmetry_1
_geom_bond_site_symmetry_2
C1 C2 1_555 1_555
C2 H1 1_555 1_555
C3 C2 1_555 1_555
C4 C3 1_555 1_555
C5 C4 1_555 1_555
H2 C5 1_555 1_555
C6 C1 1_555 1_555
C7 C6 1_555 1_555
C8 C4 1_555 1_555
C9 C3 1_555 1_555
C10 C1 1_555 1_555
C11 H3 1_555 1_555
C12 C11 1_555 1_555
H4 C12 1_555 1_555
C13 C12 1_555 1_555
C14 C13 1_555 1_555
H5 C14 1_555 1_555
C15 C14 1_555 1_555
H6 C15 1_555 1_555
C16 H7 1_555 1_555
C17 C16 1_555 1_555
H8 C17 1_555 1_555
C18 C17 1_555 1_555
C19 C18 1_555 1_555
H9 C19 1_555 1_555
C20 C19 1_555 1_555
H10 C20 1_555 1_555
C21 C13 1_555 1_555
H11 C21 1_555 1_555
H12 C21 1_555 1_555
C22 C21 1_555 1_555
H13 C22 1_555 1_555
H14 C22 1_555 1_555
C23 H15 1_555 1_555
C24 C23 1_555 1_555
H16 C24 1_555 1_555
C25 H17 1_555 1_555
C26 C25 1_555 1_555
H18 C26 1_555 1_555
C27 C24 1_555 1_555
C28 C22 1_555 1_555
H19 C28 1_555 1_555
H20 C28 1_555 1_555
C29 H21 1_555 1_555
C30 C29 1_555 1_555
H22 C30 1_555 1_555
C31 C30 1_555 1_555
C32 C18 1_555 1_555
H23 C32 1_555 1_555
H24 C32 1_555 1_555
C33 C32 1_555 1_555
H25 C33 1_555 1_555
H26 C33 1_555 1_555
C34 C31 1_555 1_555
H27 C34 1_555 1_555
C35 C34 1_555 1_555
H28 C35 1_555 1_555
C36 C31 1_555 1_555
H29 C36 1_555 1_555
H30 C36 1_555 1_555
Co1 N2 1_555 1_555
Co2 N1 1_555 1_555
N1 C11 1_555 1_555
N2 C16 1_555 1_555
N3 C23 1_555 1_555
N4 C29 1_555 1_555
O1 C10 1_555 1_555
O2 C8 1_555 1_555
O3 C8 1_555 1_555
O4 C7 1_555 1_555
O5 C7 1_555 1_555
O6 C9 1_555 1_555
O7 C9 1_555 1_555
O8 C10 1_555 1_555
O9 Co2 1_555 1_555
H31 O9 1_555 1_555
H32 O9 1_555 1_555
O10 Co1 1_555 1_555
H33 O10 1_555 1_555
H34 O10 1_555 1_555
O11 Co1 1_555 1_555
H35 O11 1_555 1_555
H36 O11 1_555 1_555
O12 Co1 1_555 1_555
H37 O12 1_555 1_555
H38 O12 1_555 1_555
O13 H39 1_555 1_555
H40 O13 1_555 1_555
O14 H41 1_555 1_555
H42 O14 1_555 1_555
O15 Co2 1_555 1_555
H43 O15 1_555 1_555
H44 O15 1_555 1_555
O16 Co2 1_555 1_555
H45 O16 1_555 1_555
H46 O16 1_555 1_555
Co2_2 N4 1_555 1_555
Co2C O1 1_555 1_555
N4_2 Co2 1_555 1_555
O1C Co2 1_555 1_555
C5 C6 1_555 1_555
C15 N1 1_555 1_555
C20 N2 1_555 1_555
C25 N3 1_555 1_555
C26 C27 1_555 1_555
C27 C28 1_555 1_555
C33 C36 1_555 1_555
C35 N4 1_555 1_555
Co1 N3 1_555 1_555
Co1 O2 1_555 1_555

#END
