
#######################################################################
#
#                 Cambridge Crystallographic Data Centre
#                                CCDC 
#
#######################################################################
#
# If this CIF has been generated from an entry in the Cambridge 
# Structural Database, then it will include bibliographic, chemical, 
# crystal, experimental, refinement or atomic coordinate data resulting 
# from the CCDC's data processing and validation procedures.
#
#######################################################################

data_MAJHEM
_symmetry_cell_setting           monoclinic
_symmetry_space_group_name_H-M   'C 2/c'
_symmetry_Int_Tables_number      15
_space_group_name_Hall           '-C 2yn'
loop_
_symmetry_equiv_pos_site_id
_symmetry_equiv_pos_as_xyz
1 x,y,z
2 -x,y,1/2-z
3 1/2+x,1/2+y,z
4 1/2-x,1/2+y,1/2-z
5 -x,-y,-z
6 x,-y,1/2+z
7 1/2-x,1/2-y,-z
8 1/2+x,1/2-y,1/2+z
_cell_length_a                   25.1769(10)
_cell_length_b                   13.9751(6)
_cell_length_c                   17.3360(6)
_cell_angle_alpha                90
_cell_angle_beta                 122.869(2)
_cell_angle_gamma                90
_cell_volume                     5123.19
loop_
_atom_site_label
_atom_site_type_symbol
_atom_site_fract_x
_atom_site_fract_y
_atom_site_fract_z
Hg1 Hg 0.140991(14) 0.75110(2) 0.355638(17)
I1 I 0.15677(2) 0.78923(3) 0.22154(3)
I2 I 0.0000 0.74706(4) 0.2500
I3 I 0.17060(2) 0.70188(3) 0.51928(3)
Hg1A Hg -0.140991(14) 0.75110(2) 0.144362(17)
I1A I -0.15677(2) 0.78923(3) 0.27846(3)
I3A I -0.17060(2) 0.70188(3) -0.01928(3)
Na1 Na 0.0000 0.75110(18) -0.2500
O1 O 0.05850(17) 0.6628(3) -0.1008(2)
O2 O 0.05489(15) 0.8386(2) -0.3073(2)
N1 N 0.08190(18) 0.6154(3) -0.2359(3)
N2 N 0.1368(2) 0.4666(3) -0.1857(3)
N3 N 0.0741(2) 0.5134(3) -0.1349(3)
H1 H 0.0712 0.4537 -0.1255
N4 N 0.08632(18) 0.8890(3) -0.1327(2)
N5 N 0.1333(2) 1.0432(3) -0.1001(3)
N6 N 0.07625(19) 0.9889(3) -0.2484(2)
H2 H 0.0758 1.0477 -0.2633
C1 C 0.1085(2) 0.6307(4) -0.2837(4)
H3 H 0.0981 0.6862 -0.3186
C2 C 0.1497(3) 0.5695(5) -0.2836(4)
H4 H 0.1686 0.5831 -0.3159
C3 C 0.1630(3) 0.4858(5) -0.2342(5)
H5 H 0.1906 0.4417 -0.2343
C4 C 0.0988(2) 0.5351(4) -0.1886(3)
C5 C 0.0544(2) 0.5767(4) -0.0961(3)
C6 C 0.0270(2) 0.5338(3) -0.0469(3)
C7 C 0.0027(2) 0.4422(4) -0.0624(3)
H6 H 0.0045 0.4026 -0.1040
C8 C 0.0244(2) 0.5910(4) 0.0163(3)
H7 H 0.0411 0.6525 0.0278
C9 C 0.1113(2) 0.8771(4) -0.0419(3)
H8 H 0.1032 0.8205 -0.0217
C10 C 0.1478(3) 0.9451(4) 0.0209(3)
H9 H 0.1657 0.9348 0.0833
C11 C 0.1574(3) 1.0286(4) -0.0099(3)
H10 H 0.1812 1.0766 0.0320
C12 C 0.1002(2) 0.9714(3) -0.1546(3)
C13 C 0.0538(2) 0.9240(4) -0.3177(3)
C14 C 0.02729(19) 0.9669(3) -0.4111(3)
C15 C 0.0021(2) 1.0571(3) -0.4338(3)
H11 H 0.0029 1.0958 -0.3895
C16 C 0.0245(2) 0.9091(3) -0.4773(3)
H12 H 0.0405 0.8472 -0.4625
Na1D Na 0.0000 0.24890(18) 0.2500
Na1D_2 Na 0.0000 1.24890(18) -0.7500
O1D O -0.05850(17) 0.3372(3) 0.1008(2)
O1A O -0.05850(17) 0.6628(3) -0.3992(2)
O2D O -0.05489(15) 1.1614(2) -0.6927(2)
O2A O -0.05489(15) 0.8386(2) -0.1927(2)
N1D N -0.08190(18) 0.3846(3) 0.2359(3)
N1A N -0.08190(18) 0.6154(3) -0.2641(3)
N2D N -0.1368(2) 0.5334(3) 0.1857(3)
N3D N -0.0741(2) 0.4866(3) 0.1349(3)
H1D H -0.0712 0.5463 0.1255
N4D N -0.08632(18) 1.1110(3) -0.8673(2)
N4A N -0.08632(18) 0.8890(3) -0.3673(2)
N5D N -0.1333(2) 0.9568(3) -0.8999(3)
N6D N -0.07625(19) 1.0111(3) -0.7516(2)
H2D H -0.0758 0.9523 -0.7367
C1D C -0.1085(2) 0.3693(4) 0.2837(4)
H3D H -0.0981 0.3138 0.3186
C2D C -0.1497(3) 0.4305(5) 0.2836(4)
H4D H -0.1686 0.4169 0.3159
C3D C -0.1630(3) 0.5142(5) 0.2342(5)
H5D H -0.1906 0.5583 0.2343
C4D C -0.0988(2) 0.4649(4) 0.1886(3)
C5D C -0.0544(2) 0.4233(4) 0.0961(3)
C6D C -0.0270(2) 0.4662(3) 0.0469(3)
C7D C -0.0027(2) 0.5578(4) 0.0624(3)
H6D H -0.0045 0.5974 0.1040
C8D C -0.0244(2) 0.4090(4) -0.0163(3)
H7D H -0.0411 0.3475 -0.0278
C9D C -0.1113(2) 1.1229(4) -0.9581(3)
H8D H -0.1032 1.1795 -0.9783
C10D C -0.1478(3) 1.0549(4) -1.0209(3)
H9D H -0.1657 1.0652 -1.0833
C11D C -0.1574(3) 0.9714(4) -0.9901(3)
H10D H -0.1812 0.9234 -1.0320
C12D C -0.1002(2) 1.0286(3) -0.8454(3)
C13D C -0.0538(2) 1.0760(4) -0.6823(3)
C14D C -0.02729(19) 1.0331(3) -0.5889(3)
C15D C -0.0021(2) 0.9429(3) -0.5662(3)
H11D H -0.0029 0.9042 -0.6105
C16D C -0.0245(2) 1.0909(3) -0.5227(3)
H12D H -0.0405 1.1528 -0.5375
O3 O 0.1995(3) 0.9349(5) 0.7114(4)
N7 N 0.2364(2) 0.8753(5) 0.8496(4)
C17 C 0.2060(5) 0.8627(6) 0.7572(5)
H13 H 0.1909 0.8032 0.7299
C18 C 0.2673(7) 0.9690(8) 0.8890(12)
H14 H 0.2477 1.0175 0.8425
H15 H 0.3114 0.9649 0.9110
H16 H 0.2628 0.9851 0.9390
C19 C 0.2394(8) 0.7839(8) 0.8964(11)
H17 H 0.2580 0.7349 0.8795
H18 H 0.1975 0.7651 0.8780
H19 H 0.2647 0.7931 0.9617
C20? C 0.2212(8) 0.9525(7) 0.7944(6)
C21? C 0.2732(9) 0.9146(18) 0.9454(8)
C22? C 0.2091(11) 0.7769(9) 0.8337(17)
H20? H 0.2264 1.0147 0.8165
H21? H 0.3162 0.9252 0.9639
H22? H 0.2721 0.8696 0.9864
H23? H 0.2547 0.9740 0.9472
H24? H 0.1695 0.7748 0.7754
H25? H 0.2024 0.7610 0.8816
H26? H 0.2379 0.7318 0.8338
loop_
_geom_bond_atom_site_label_1
_geom_bond_atom_site_label_2
_geom_bond_site_symmetry_1
_geom_bond_site_symmetry_2
Hg1 I1 1_555 1_555
I2 Hg1 1_555 1_555
I3 Hg1 1_555 1_555
Na1 O1 1_555 1_555
O1 C5 1_555 1_555
O2 Na1 1_555 1_555
N1 Na1 1_555 1_555
N2 C3 1_555 1_555
N3 H1 1_555 1_555
N4 Na1 1_555 1_555
N5 C11 1_555 1_555
N6 H2 1_555 1_555
C1 N1 1_555 1_555
H3 C1 1_555 1_555
C2 C1 1_555 1_555
H4 C2 1_555 1_555
C3 C2 1_555 1_555
H5 C3 1_555 1_555
C4 N1 1_555 1_555
C5 N3 1_555 1_555
C6 C5 1_555 1_555
C7 C6 1_555 1_555
H6 C7 1_555 1_555
C8 C6 1_555 1_555
H7 C8 1_555 1_555
C9 N4 1_555 1_555
H8 C9 1_555 1_555
C10 C9 1_555 1_555
H9 C10 1_555 1_555
C11 C10 1_555 1_555
H10 C11 1_555 1_555
C12 N4 1_555 1_555
C13 O2 1_555 1_555
C14 C13 1_555 1_555
C15 C14 1_555 1_555
H11 C15 1_555 1_555
C16 C14 1_555 1_555
H12 C16 1_555 1_555
O3 C17 1_555 1_555
N7 C17 1_555 1_555
C17 H13 1_555 1_555
C18 N7 1_555 1_555
H14 C18 1_555 1_555
H15 C18 1_555 1_555
H16 C18 1_555 1_555
C19 N7 1_555 1_555
H17 C19 1_555 1_555
H18 C19 1_555 1_555
H19 C19 1_555 1_555
Hg1A I2 1_555 1_555
I1A Hg1A 1_555 1_555
I3A Hg1A 1_555 1_555
Na1D O1D 1_555 1_555
Na1D_2 O2D 1_555 1_555
O1D C5D 1_555 1_555
O1A Na1 1_555 1_555
O2D C13D 1_555 1_555
O2A Na1 1_555 1_555
N1D Na1D 1_555 1_555
N1A Na1 1_555 1_555
N2D C3D 1_555 1_555
N3D H1D 1_555 1_555
N4D Na1D_2 1_555 1_555
N4A Na1 1_555 1_555
N5D C11D 1_555 1_555
N6D H2D 1_555 1_555
C1D N1D 1_555 1_555
H3D C1D 1_555 1_555
C2D C1D 1_555 1_555
H4D C2D 1_555 1_555
C3D C2D 1_555 1_555
H5D C3D 1_555 1_555
C4D N1D 1_555 1_555
C5D N3D 1_555 1_555
C6D C5D 1_555 1_555
C7D C8 1_555 1_555
H6D C7D 1_555 1_555
C8D C7 1_555 1_555
H7D C8D 1_555 1_555
C9D N4D 1_555 1_555
H8D C9D 1_555 1_555
C10D C9D 1_555 1_555
H9D C10D 1_555 1_555
C11D C10D 1_555 1_555
H10D C11D 1_555 1_555
C12D N4D 1_555 1_555
C13D N6D 1_555 1_555
C14D C13D 1_555 1_555
C15D C16 1_555 1_555
H11D C15D 1_555 1_555
C16D C15 1_555 1_555
H12D C16D 1_555 1_555
N2 C4 1_555 1_555
N3 C4 1_555 1_555
N5 C12 1_555 1_555
N6 C12 1_555 1_555
N6 C13 1_555 1_555
N2D C4D 1_555 1_555
N3D C4D 1_555 1_555
N5D C12D 1_555 1_555
N6D C12D 1_555 1_555
C6D C7D 1_555 1_555
C6D C8D 1_555 1_555
C14D C15D 1_555 1_555
C14D C16D 1_555 1_555

#END
