
#######################################################################
#
#                 Cambridge Crystallographic Data Centre
#                                CCDC 
#
#######################################################################
#
# If this CIF has been generated from an entry in the Cambridge 
# Structural Database, then it will include bibliographic, chemical, 
# crystal, experimental, refinement or atomic coordinate data resulting 
# from the CCDC's data processing and validation procedures.
#
#######################################################################

data_MAJJOY
_symmetry_cell_setting           orthorhombic
_symmetry_space_group_name_H-M   'C c c a'
_symmetry_Int_Tables_number      68
_space_group_name_Hall           '-C 2b 2bc'
loop_
_symmetry_equiv_pos_site_id
_symmetry_equiv_pos_as_xyz
1 x,y,z
2 1/2-x,-y,z
3 -x,y,1/2-z
4 1/2+x,-y,1/2-z
5 1/2+x,1/2+y,z
6 -x,1/2-y,z
7 1/2-x,1/2+y,1/2-z
8 x,1/2-y,1/2-z
9 -x,-y,-z
10 1/2+x,y,-z
11 x,-y,1/2+z
12 1/2-x,y,1/2+z
13 1/2-x,1/2-y,-z
14 x,1/2+y,-z
15 1/2+x,1/2-y,1/2+z
16 -x,1/2+y,1/2+z
_cell_length_a                   21.522(3)
_cell_length_b                   25.392(3)
_cell_length_c                   9.8663(12)
_cell_angle_alpha                90
_cell_angle_beta                 90
_cell_angle_gamma                90
_cell_volume                     5391.8
loop_
_atom_site_label
_atom_site_type_symbol
_atom_site_fract_x
_atom_site_fract_y
_atom_site_fract_z
Zn1 Zn 1.0000 0.2500 0.2500
S1 S 0.5000 -0.04681(4) 0.2500
O1 O 0.74503(7) 0.09216(7) 0.06536(15)
O2 O 1.0000 0.2500 0.0328(3)
N1 N 0.92600(9) 0.19151(8) 0.25095(18)
N2 N 0.72495(8) 0.08907(8) 0.28917(19)
C1 C 0.92031(10) 0.15750(9) 0.1485(3)
C2 C 0.86718(10) 0.12867(9) 0.1246(2)
C3 C 0.81712(10) 0.13373(9) 0.2117(2)
C4 C 0.82320(10) 0.16768(10) 0.3207(2)
C5 C 0.87763(11) 0.19552(10) 0.3360(2)
C6 C 0.75897(9) 0.10349(8) 0.1816(2)
C7 C 0.67016(9) 0.05789(9) 0.2790(2)
C8 C 0.62289(10) 0.07172(11) 0.1910(3)
C9 C 0.57023(10) 0.04087(11) 0.1824(3)
C10 C 0.56429(10) -0.00339(10) 0.2624(2)
C11 C 0.61082(10) -0.01649(9) 0.3518(3)
C12 C 0.66380(10) 0.01418(10) 0.3604(2)
H1 H 0.9564(12) 0.1539(10) 0.090(3)
H2 H 0.8666(11) 0.1050(9) 0.048(3)
H3 H 0.7897(12) 0.1724(10) 0.384(3)
H4 H 0.8823(11) 0.2200(10) 0.407(3)
H5 H 0.6273(12) 0.1021(10) 0.136(2)
H6 H 0.5369(15) 0.0496(12) 0.122(3)
H7 H 0.6051(12) -0.0474(10) 0.411(3)
H8 H 0.6955(13) 0.0055(10) 0.429(3)
H9 H 0.7389(11) 0.0967(8) 0.371(3)
H10 H 1.009(3) 0.2314(19) -0.015(5)
Zn1_2 Zn 0.0000 0.2500 0.2500
Zn1_3 Zn 2.0000 0.2500 0.2500
S1_2 S 1.5000 -0.04681(4) 0.2500
O1B O 0.25497(7) 0.09216(7) 0.43464(15)
O1B_2 O 1.25497(7) 0.09216(7) 0.43464(15)
O1_2 O 1.74503(7) 0.09216(7) 0.06536(15)
O2B O 1.0000 0.2500 0.4672(3)
N1B N 0.07400(9) 0.19151(8) 0.24905(18)
N1B_2 N 1.07400(9) 0.19151(8) 0.24905(18)
N1_2 N 1.92600(9) 0.19151(8) 0.25095(18)
N1E N 1.07400(9) 0.30849(8) 0.25095(18)
N1G N 0.92600(9) 0.30849(8) 0.24905(18)
N2B N 0.27505(8) 0.08907(8) 0.21083(19)
N2B_2 N 1.27505(8) 0.08907(8) 0.21083(19)
N2_2 N 1.72495(8) 0.08907(8) 0.28917(19)
C1B C 0.07969(10) 0.15750(9) 0.3515(3)
C1B_2 C 1.07969(10) 0.15750(9) 0.3515(3)
C1_2 C 1.92031(10) 0.15750(9) 0.1485(3)
C2B C 0.13282(10) 0.12867(9) 0.3754(2)
C2B_2 C 1.13282(10) 0.12867(9) 0.3754(2)
C2_2 C 1.86718(10) 0.12867(9) 0.1246(2)
C3B C 0.18288(10) 0.13373(9) 0.2883(2)
C3B_2 C 1.18288(10) 0.13373(9) 0.2883(2)
C3_2 C 1.81712(10) 0.13373(9) 0.2117(2)
C4B C 0.17680(10) 0.16768(10) 0.1793(2)
C4B_2 C 1.17680(10) 0.16768(10) 0.1793(2)
C4_2 C 1.82320(10) 0.16768(10) 0.3207(2)
C5B C 0.12237(11) 0.19552(10) 0.1640(2)
C5B_2 C 1.12237(11) 0.19552(10) 0.1640(2)
C5_2 C 1.87763(11) 0.19552(10) 0.3360(2)
C6B C 0.24103(9) 0.10349(8) 0.3184(2)
C6B_2 C 1.24103(9) 0.10349(8) 0.3184(2)
C6_2 C 1.75897(9) 0.10349(8) 0.1816(2)
C7B C 0.32984(9) 0.05789(9) 0.2210(2)
C7B_2 C 1.32984(9) 0.05789(9) 0.2210(2)
C7_2 C 1.67016(9) 0.05789(9) 0.2790(2)
C8B C 0.37711(10) 0.07172(11) 0.3090(3)
C8B_2 C 1.37711(10) 0.07172(11) 0.3090(3)
C8_2 C 1.62289(10) 0.07172(11) 0.1910(3)
C9B C 0.42977(10) 0.04087(11) 0.3176(3)
C9B_2 C 1.42977(10) 0.04087(11) 0.3176(3)
C9_2 C 1.57023(10) 0.04087(11) 0.1824(3)
C10B C 0.43571(10) -0.00339(10) 0.2376(2)
C10B_2 C 1.43571(10) -0.00339(10) 0.2376(2)
C10_2 C 1.56429(10) -0.00339(10) 0.2624(2)
C11B C 0.38918(10) -0.01649(9) 0.1482(3)
C11B_2 C 1.38918(10) -0.01649(9) 0.1482(3)
C11_2 C 1.61082(10) -0.01649(9) 0.3518(3)
C12B C 0.33620(10) 0.01418(10) 0.1396(2)
C12B_2 C 1.33620(10) 0.01418(10) 0.1396(2)
C12_2 C 1.66380(10) 0.01418(10) 0.3604(2)
H1B H 0.0436(12) 0.1539(10) 0.410(3)
H1B_2 H 1.0436(12) 0.1539(10) 0.410(3)
H1_2 H 1.9564(12) 0.1539(10) 0.090(3)
H2B H 0.1334(11) 0.1050(9) 0.452(3)
H2B_2 H 1.1334(11) 0.1050(9) 0.452(3)
H2_2 H 1.8666(11) 0.1050(9) 0.048(3)
H3B H 0.2103(12) 0.1724(10) 0.116(3)
H3B_2 H 1.2103(12) 0.1724(10) 0.116(3)
H3_2 H 1.7897(12) 0.1724(10) 0.384(3)
H4B H 0.1177(11) 0.2200(10) 0.093(3)
H4B_2 H 1.1177(11) 0.2200(10) 0.093(3)
H4_2 H 1.8823(11) 0.2200(10) 0.407(3)
H5B H 0.3727(12) 0.1021(10) 0.364(2)
H5B_2 H 1.3727(12) 0.1021(10) 0.364(2)
H5_2 H 1.6273(12) 0.1021(10) 0.136(2)
H6B H 0.4631(15) 0.0496(12) 0.378(3)
H6B_2 H 1.4631(15) 0.0496(12) 0.378(3)
H6_2 H 1.5369(15) 0.0496(12) 0.122(3)
H7B H 0.3949(12) -0.0474(10) 0.089(3)
H7B_2 H 1.3949(12) -0.0474(10) 0.089(3)
H7_2 H 1.6051(12) -0.0474(10) 0.411(3)
H8B H 0.3045(13) 0.0055(10) 0.071(3)
H8B_2 H 1.3045(13) 0.0055(10) 0.071(3)
H8_2 H 1.6955(13) 0.0055(10) 0.429(3)
H9B H 0.2611(11) 0.0967(8) 0.129(3)
H9B_2 H 1.2611(11) 0.0967(8) 0.129(3)
H9_2 H 1.7389(11) 0.0967(8) 0.371(3)
H10E H 0.991(3) 0.2686(19) -0.015(5)
H10B H 0.991(3) 0.2314(19) 0.515(5)
H10G H 1.009(3) 0.2686(19) 0.515(5)
Cl1 Cl 0.14617(10) 0.2500 0.7500
O6 O 0.1592(11) 0.2898(5) 0.6796(11)
O7 O 0.0945(6) 0.2480(14) 0.8370(13)
O6G O 0.1592(11) 0.2102(5) 0.8204(11)
O7G O 0.0945(6) 0.2520(14) 0.6630(13)
O5 O 0.0073(5) 0.3295(4) 0.6455(10)
H12 H 0.0432(14) 0.3307(13) 0.595(3)
O3? O 0.1886(7) 0.2484(15) 0.857(2)
O4? O 0.1273(14) 0.2093(6) 0.684(3)
H11? H 0.0000 0.3435(14) 0.7500
loop_
_geom_bond_atom_site_label_1
_geom_bond_atom_site_label_2
_geom_bond_site_symmetry_1
_geom_bond_site_symmetry_2
Zn1 O2 1_555 1_555
Cl1 O6 1_555 1_555
S1 C10 1_555 1_555
O1 C6 1_555 1_555
O2 H10 1_555 1_555
O5 H12 1_555 1_555
N1 Zn1 1_555 1_555
N2 C6 1_555 1_555
C1 N1 1_555 1_555
C2 C1 1_555 1_555
C3 C2 1_555 1_555
C4 C3 1_555 1_555
C5 N1 1_555 1_555
C6 C3 1_555 1_555
C7 N2 1_555 1_555
C8 C7 1_555 1_555
C9 C8 1_555 1_555
C10 C9 1_555 1_555
C11 C10 1_555 1_555
C12 C7 1_555 1_555
H1 C1 1_555 1_555
H2 C2 1_555 1_555
H3 C4 1_555 1_555
H4 C5 1_555 1_555
H5 C8 1_555 1_555
H6 C9 1_555 1_555
H7 C11 1_555 1_555
H8 C12 1_555 1_555
H9 N2 1_555 1_555
O7 Cl1 1_555 1_555
Zn1_2 N1B 1_555 1_555
Zn1_3 N1_2 1_555 1_555
S1_2 C10B_2 1_555 1_555
O1B C6B 1_555 1_555
O1B_2 C6B_2 1_555 1_555
O1_2 C6_2 1_555 1_555
O2B Zn1 1_555 1_555
N1B C1B 1_555 1_555
N1B_2 Zn1 1_555 1_555
N1_2 C1_2 1_555 1_555
N1E Zn1 1_555 1_555
N1G Zn1 1_555 1_555
N2B C6B 1_555 1_555
N2B_2 C6B_2 1_555 1_555
N2_2 C6_2 1_555 1_555
C1B C2B 1_555 1_555
C1B_2 N1B_2 1_555 1_555
C1_2 C2_2 1_555 1_555
C2B C3B 1_555 1_555
C2B_2 C1B_2 1_555 1_555
C2_2 C3_2 1_555 1_555
C3B C4B 1_555 1_555
C3B_2 C2B_2 1_555 1_555
C3_2 C4_2 1_555 1_555
C4B C5B 1_555 1_555
C4B_2 C3B_2 1_555 1_555
C4_2 C5_2 1_555 1_555
C5B N1B 1_555 1_555
C5B_2 N1B_2 1_555 1_555
C5_2 N1_2 1_555 1_555
C6B C3B 1_555 1_555
C6B_2 C3B_2 1_555 1_555
C6_2 C3_2 1_555 1_555
C7B N2B 1_555 1_555
C7B_2 N2B_2 1_555 1_555
C7_2 N2_2 1_555 1_555
C8B C7B 1_555 1_555
C8B_2 C7B_2 1_555 1_555
C8_2 C7_2 1_555 1_555
C9B C8B 1_555 1_555
C9B_2 C8B_2 1_555 1_555
C9_2 C8_2 1_555 1_555
C10B S1 1_555 1_555
C10B_2 C9B_2 1_555 1_555
C10_2 S1_2 1_555 1_555
C11B C10B 1_555 1_555
C11B_2 C10B_2 1_555 1_555
C11_2 C10_2 1_555 1_555
C12B C7B 1_555 1_555
C12B_2 C7B_2 1_555 1_555
C12_2 C7_2 1_555 1_555
H1B C1B 1_555 1_555
H1B_2 C1B_2 1_555 1_555
H1_2 C1_2 1_555 1_555
H2B C2B 1_555 1_555
H2B_2 C2B_2 1_555 1_555
H2_2 C2_2 1_555 1_555
H3B C4B 1_555 1_555
H3B_2 C4B_2 1_555 1_555
H3_2 C4_2 1_555 1_555
H4B C5B 1_555 1_555
H4B_2 C5B_2 1_555 1_555
H4_2 C5_2 1_555 1_555
H5B C8B 1_555 1_555
H5B_2 C8B_2 1_555 1_555
H5_2 C8_2 1_555 1_555
H6B C9B 1_555 1_555
H6B_2 C9B_2 1_555 1_555
H6_2 C9_2 1_555 1_555
H7B C11B 1_555 1_555
H7B_2 C11B_2 1_555 1_555
H7_2 C11_2 1_555 1_555
H8B C12B 1_555 1_555
H8B_2 C12B_2 1_555 1_555
H8_2 C12_2 1_555 1_555
H9B N2B 1_555 1_555
H9B_2 N2B_2 1_555 1_555
H9_2 N2_2 1_555 1_555
H10E O2 1_555 1_555
H10B O2B 1_555 1_555
H10G O2B 1_555 1_555
O6G Cl1 1_555 1_555
O7G Cl1 1_555 1_555
C4 C5 1_555 1_555
C11 C12 1_555 1_555
C4B_2 C5B_2 1_555 1_555
C9B C10B 1_555 1_555
C9_2 C10_2 1_555 1_555
C11B C12B 1_555 1_555
C11B_2 C12B_2 1_555 1_555
C11_2 C12_2 1_555 1_555

#END
