
#######################################################################
#
#                 Cambridge Crystallographic Data Centre
#                                CCDC 
#
#######################################################################
#
# If this CIF has been generated from an entry in the Cambridge 
# Structural Database, then it will include bibliographic, chemical, 
# crystal, experimental, refinement or atomic coordinate data resulting 
# from the CCDC's data processing and validation procedures.
#
#######################################################################

data_MAJKIS
_symmetry_cell_setting           monoclinic
_symmetry_space_group_name_H-M   'P 21/n'
_symmetry_Int_Tables_number      14
_space_group_name_Hall           '-P 2yn'
loop_
_symmetry_equiv_pos_site_id
_symmetry_equiv_pos_as_xyz
1 x,y,z
2 1/2+x,1/2-y,1/2+z
3 -x,-y,-z
4 1/2-x,1/2+y,1/2-z
_cell_length_a                   7.96230(10)
_cell_length_b                   8.94870(10)
_cell_length_c                   21.8870(10)
_cell_angle_alpha                90
_cell_angle_beta                 96.0000(10)
_cell_angle_gamma                90
_cell_volume                     1550.95
loop_
_atom_site_label
_atom_site_type_symbol
_atom_site_fract_x
_atom_site_fract_y
_atom_site_fract_z
Ag1 Ag 0.233689(19) 0.17553(2) 0.385416(8)
O1 O 0.41346(18) 0.3494(2) 0.29926(7)
O2 O 0.52383(17) 0.22560(18) 0.38149(7)
N1 N 1.00773(19) 0.29422(18) 0.33394(8)
N2 N 0.3099(2) -0.06456(17) 0.51457(7)
H1 H 0.3630 -0.1119 0.5449
N3 N 0.1748(3) 0.1666(2) 0.48968(8)
N4 N 0.2491(2) -0.07973(19) 0.40620(8)
C1 C 0.8503(2) 0.2719(2) 0.34789(9)
H2 H 0.8352 0.2061 0.3798
C2 C 0.7094(2) 0.3390(2) 0.31856(8)
C3 C 0.7317(2) 0.4402(2) 0.27226(10)
H3 H 0.6397 0.4885 0.2512
C4 C 0.8918(3) 0.4676(2) 0.25825(10)
H4 H 0.9105 0.5369 0.2280
C5 C 1.0257(2) 0.3920(2) 0.28912(9)
H5 H 1.1337 0.4101 0.2782
C6 C 0.5340(2) 0.3029(2) 0.33416(9)
C7 C 0.2511(2) 0.0737(2) 0.53106(9)
C8 C 0.2755(3) 0.1092(3) 0.59323(11)
H6 H 0.3331 0.0436 0.6210
C9 C 0.2148(4) 0.2403(3) 0.61315(12)
H7 H 0.2296 0.2650 0.6546
C10 C 0.1310(4) 0.3362(3) 0.57117(14)
H8 H 0.0860 0.4257 0.5836
C11 C 0.1162(4) 0.2960(3) 0.51124(13)
H9 H 0.0619 0.3620 0.4829
C12 C 0.3019(2) -0.1433(2) 0.45989(9)
C13 C 0.3547(3) -0.2930(2) 0.46413(12)
H10 H 0.3908 -0.3351 0.5021
C14 C 0.3522(4) -0.3759(3) 0.41163(14)
H11 H 0.3871 -0.4751 0.4135
C15 C 0.2974(4) -0.3114(3) 0.35561(14)
H12 H 0.2959 -0.3658 0.3193
C16 C 0.2462(3) -0.1671(3) 0.35497(12)
H13 H 0.2067 -0.1249 0.3174
N1_2 N 0.00773(19) 0.29422(18) 0.33394(8)
Ag1_2 Ag 1.233689(19) 0.17553(2) 0.385416(8)
loop_
_geom_bond_atom_site_label_1
_geom_bond_atom_site_label_2
_geom_bond_site_symmetry_1
_geom_bond_site_symmetry_2
Ag1 O2 1_555 1_555
O1 C6 1_555 1_555
O2 C6 1_555 1_555
N1 C1 1_555 1_555
N2 H1 1_555 1_555
N3 Ag1 1_555 1_555
N4 Ag1 1_555 1_555
C1 H2 1_555 1_555
C2 C1 1_555 1_555
C3 C2 1_555 1_555
H3 C3 1_555 1_555
C4 C3 1_555 1_555
H4 C4 1_555 1_555
C5 N1 1_555 1_555
H5 C5 1_555 1_555
C6 C2 1_555 1_555
C7 N2 1_555 1_555
C8 C7 1_555 1_555
H6 C8 1_555 1_555
C9 C8 1_555 1_555
H7 C9 1_555 1_555
C10 C9 1_555 1_555
H8 C10 1_555 1_555
C11 N3 1_555 1_555
H9 C11 1_555 1_555
C12 N2 1_555 1_555
C13 C12 1_555 1_555
H10 C13 1_555 1_555
C14 C13 1_555 1_555
H11 C14 1_555 1_555
C15 C14 1_555 1_555
H12 C15 1_555 1_555
C16 N4 1_555 1_555
H13 C16 1_555 1_555
N1_2 Ag1 1_555 1_555
Ag1_2 N1 1_555 1_555
N3 C7 1_555 1_555
N4 C12 1_555 1_555
C4 C5 1_555 1_555
C10 C11 1_555 1_555
C15 C16 1_555 1_555

#END
