
#######################################################################
#
#                 Cambridge Crystallographic Data Centre
#                                CCDC 
#
#######################################################################
#
# If this CIF has been generated from an entry in the Cambridge 
# Structural Database, then it will include bibliographic, chemical, 
# crystal, experimental, refinement or atomic coordinate data resulting 
# from the CCDC's data processing and validation procedures.
#
#######################################################################

data_MAJKEO
_symmetry_cell_setting           triclinic
_symmetry_space_group_name_H-M   'P -1'
_symmetry_Int_Tables_number      2
_space_group_name_Hall           '-P 1'
loop_
_symmetry_equiv_pos_site_id
_symmetry_equiv_pos_as_xyz
1 x,y,z
2 -x,-y,-z
_cell_length_a                   7.560(10)
_cell_length_b                   9.230(10)
_cell_length_c                   12.01(2)
_cell_angle_alpha                71.29(5)
_cell_angle_beta                 82.87(5)
_cell_angle_gamma                87.44(5)
_cell_volume                     787.608
loop_
_atom_site_label
_atom_site_type_symbol
_atom_site_fract_x
_atom_site_fract_y
_atom_site_fract_z
Ag1 Ag 0.39227(5) 0.77082(4) 0.27238(4)
O1 O 0.7839(5) 0.8451(4) 0.2814(3)
O2 O 0.5810(4) 0.9525(4) 0.1610(3)
O3 O 0.6521(4) 1.1868(4) -0.0185(3)
H1 H 0.5887 1.1226 0.0320
O4 O 1.0975(5) 0.9485(5) 0.2350(3)
H2 H 1.0108 0.9008 0.2760
N1 N 0.2798(6) 0.4296(4) 0.5126(3)
H3 H 0.2744 0.3490 0.5738
N2 N 0.2361(5) 0.7001(4) 0.4604(3)
N3 N 0.3765(5) 0.5133(5) 0.3060(4)
C1 C 0.8659(6) 1.0629(5) 0.1166(4)
C2 C 0.8178(6) 1.1811(5) 0.0155(4)
C3 C 0.9351(7) 1.2925(6) -0.0495(5)
H4 H 0.9001 1.3703 -0.1141
C4 C 1.1044(7) 1.2905(6) -0.0201(5)
H5 H 1.1833 1.3683 -0.0635
C5 C 1.1586(6) 1.1733(6) 0.0738(5)
H6 H 1.2753 1.1705 0.0915
C6 C 1.0421(6) 1.0615(5) 0.1407(4)
C7 C 0.7341(7) 0.9444(5) 0.1910(4)
C8 C 0.2176(6) 0.5590(5) 0.5400(4)
C9 C 0.1382(7) 0.5354(6) 0.6549(4)
H7 H 0.1260 0.4368 0.7081
C10 C 0.0788(8) 0.6563(7) 0.6891(5)
H8 H 0.0253 0.6418 0.7658
C11 C 0.0985(8) 0.8027(6) 0.6082(5)
H9 H 0.0605 0.8883 0.6296
C12 C 0.1752(7) 0.8163(6) 0.4970(4)
H10 H 0.1859 0.9141 0.4424
C13 C 0.3491(6) 0.3994(5) 0.4090(4)
C14 C 0.3820(7) 0.2460(6) 0.4187(5)
H11 H 0.3575 0.1699 0.4912
C15 C 0.4492(8) 0.2099(7) 0.3226(6)
H12 H 0.4735 0.1084 0.3281
C16 C 0.4822(8) 0.3231(8) 0.2158(6)
H13 H 0.5291 0.2996 0.1483
C17 C 0.4447(7) 0.4705(7) 0.2108(5)
H14 H 0.4671 0.5465 0.1381
O4_2 O 0.0975(5) 0.9485(5) 0.2350(3)
Ag1_2 Ag 1.39227(5) 0.77082(4) 0.27238(4)
H2_2 H 0.0108 0.9008 0.2760
loop_
_geom_bond_atom_site_label_1
_geom_bond_atom_site_label_2
_geom_bond_site_symmetry_1
_geom_bond_site_symmetry_2
Ag1 O2 1_555 1_555
O1 C7 1_555 1_555
O2 C7 1_555 1_555
O3 H1 1_555 1_555
O4 H2 1_555 1_555
N1 H3 1_555 1_555
N2 Ag1 1_555 1_555
N3 Ag1 1_555 1_555
C1 C2 1_555 1_555
C2 O3 1_555 1_555
C3 C2 1_555 1_555
H4 C3 1_555 1_555
C4 C3 1_555 1_555
H5 C4 1_555 1_555
C5 C4 1_555 1_555
H6 C5 1_555 1_555
C6 O4 1_555 1_555
C7 C1 1_555 1_555
C8 N1 1_555 1_555
C9 C8 1_555 1_555
H7 C9 1_555 1_555
C10 C9 1_555 1_555
H8 C10 1_555 1_555
C11 C10 1_555 1_555
H9 C11 1_555 1_555
C12 N2 1_555 1_555
H10 C12 1_555 1_555
C13 N1 1_555 1_555
C14 C13 1_555 1_555
H11 C14 1_555 1_555
C15 C14 1_555 1_555
H12 C15 1_555 1_555
C16 C15 1_555 1_555
H13 C16 1_555 1_555
C17 N3 1_555 1_555
H14 C17 1_555 1_555
O4_2 Ag1 1_555 1_555
Ag1_2 O4 1_555 1_555
H2_2 O4_2 1_555 1_555
N2 C8 1_555 1_555
N3 C13 1_555 1_555
C1 C6 1_555 1_555
C5 C6 1_555 1_555
C11 C12 1_555 1_555
C16 C17 1_555 1_555

#END
