
#######################################################################
#
#                 Cambridge Crystallographic Data Centre
#                                CCDC 
#
#######################################################################
#
# If this CIF has been generated from an entry in the Cambridge 
# Structural Database, then it will include bibliographic, chemical, 
# crystal, experimental, refinement or atomic coordinate data resulting 
# from the CCDC's data processing and validation procedures.
#
#######################################################################

data_MAJLOZ
_symmetry_cell_setting           monoclinic
_symmetry_space_group_name_H-M   'C 2/m'
_symmetry_Int_Tables_number      12
_space_group_name_Hall           '-C 2y'
loop_
_symmetry_equiv_pos_site_id
_symmetry_equiv_pos_as_xyz
1 x,y,z
2 1/2+x,1/2+y,z
3 x,-y,z
4 1/2+x,1/2-y,z
5 -x,-y,-z
6 1/2-x,1/2-y,-z
7 -x,y,-z
8 1/2-x,1/2+y,-z
_cell_length_a                   18.630(4)
_cell_length_b                   7.250(3)
_cell_length_c                   9.552(2)
_cell_angle_alpha                90
_cell_angle_beta                 101.17(3)
_cell_angle_gamma                90
_cell_volume                     1265.72
loop_
_atom_site_label
_atom_site_type_symbol
_atom_site_fract_x
_atom_site_fract_y
_atom_site_fract_z
Ag1 Ag 0.33330(2) 0.0000 0.68487(5)
O3 O 0.4164(3) 0.0000 0.4902(7)
H1 H 0.4239 0.1102 0.4458
N1 N 0.4395(3) 0.0000 0.8900(7)
N2 N 0.32700(16) 0.3087(5) 0.6698(4)
C2 C 0.5062(4) 0.0000 0.8652(8)
H2 H 0.5130 0.0000 0.7681
C3 C 0.4340(4) 0.0000 1.0272(9)
H3 H 0.3861 0.0000 1.0503
C4 C 0.2655(2) 0.4056(6) 0.6633(5)
H4 H 0.2200 0.3411 0.6582
C5 C 0.3880(2) 0.4054(6) 0.6752(5)
H5 H 0.4334 0.3408 0.6794
H1B H 0.4239 -0.1102 0.4458
C3D C 0.5660(4) 0.0000 0.9728(9)
N1D N 0.5605(3) 0.0000 1.1100(7)
C2D C 0.4938(4) 0.0000 1.1348(8)
H2D H 0.4870 0.0000 1.2319
H3D H 0.6139 0.0000 0.9497
C4B C 0.2655(2) 0.5944(6) 0.6633(5)
N2B N 0.32700(16) 0.6913(5) 0.6698(4)
C5B C 0.3880(2) 0.5946(6) 0.6752(5)
H5B H 0.4334 0.6592 0.6794
H4B H 0.2200 0.6589 0.6582
N2B_2 N 0.32700(16) -0.3087(5) 0.6698(4)
C4B_2 C 0.2655(2) -0.4056(6) 0.6633(5)
H4B_2 H 0.2200 -0.3411 0.6582
C5B_2 C 0.3880(2) -0.4054(6) 0.6752(5)
H5B_2 H 0.4334 -0.3408 0.6794
C4_2 C 0.2655(2) -0.5944(6) 0.6633(5)
N2_2 N 0.32700(16) -0.6913(5) 0.6698(4)
C5_2 C 0.3880(2) -0.5946(6) 0.6752(5)
H5_2 H 0.4334 -0.6592 0.6794
H4_2 H 0.2200 -0.6589 0.6582
Ag1D Ag 0.66670(2) 0.0000 1.31513(5)
O3D O 0.5836(3) 0.0000 1.5098(7)
H1D H 0.5761 -0.1102 1.5542
H1F H 0.5761 0.1102 1.5542
Ag1_2 Ag 0.33330(2) 1.0000 0.68487(5)
Ag1_3 Ag 0.33330(2) -1.0000 0.68487(5)
N2D N 0.67300(16) -0.3087(5) 1.3302(4)
N2F N 0.67300(16) 0.3087(5) 1.3302(4)
S1 S 0.11592(8) 0.0000 0.71153(18)
F1 F 0.0831(6) 0.0000 0.9630(7)
F2 F 0.1802(4) 0.1485(8) 0.9493(5)
O1 O 0.0746(2) 0.1656(7) 0.6805(5)
O2 O 0.1842(3) 0.0000 0.6657(7)
C1 C 0.1404(7) 0.0000 0.9061(12)
O1B O 0.0746(2) -0.1656(7) 0.6805(5)
F2B F 0.1802(4) -0.1485(8) 0.9493(5)
loop_
_geom_bond_atom_site_label_1
_geom_bond_atom_site_label_2
_geom_bond_site_symmetry_1
_geom_bond_site_symmetry_2
Ag1 O3 1_555 1_555
S1 O1 1_555 1_555
F1 C1 1_555 1_555
F2 C1 1_555 1_555
O2 S1 1_555 1_555
O3 H1 1_555 1_555
N1 Ag1 1_555 1_555
N2 Ag1 1_555 1_555
C1 S1 1_555 1_555
C2 N1 1_555 1_555
H2 C2 1_555 1_555
C3 N1 1_555 1_555
H3 C3 1_555 1_555
C4 N2 1_555 1_555
H4 C4 1_555 1_555
C5 N2 1_555 1_555
H5 C5 1_555 1_555
O1B S1 1_555 1_555
F2B C1 1_555 1_555
H1B O3 1_555 1_555
C3D C2 1_555 1_555
N1D C3D 1_555 1_555
C2D C3 1_555 1_555
H2D C2D 1_555 1_555
H3D C3D 1_555 1_555
C4B C4 1_555 1_555
N2B C4B 1_555 1_555
C5B C5 1_555 1_555
H5B C5B 1_555 1_555
H4B C4B 1_555 1_555
N2B_2 Ag1 1_555 1_555
C4B_2 N2B_2 1_555 1_555
H4B_2 C4B_2 1_555 1_555
C5B_2 N2B_2 1_555 1_555
H5B_2 C5B_2 1_555 1_555
C4_2 C4B_2 1_555 1_555
N2_2 C4_2 1_555 1_555
C5_2 C5B_2 1_555 1_555
H5_2 C5_2 1_555 1_555
H4_2 C4_2 1_555 1_555
Ag1D N1D 1_555 1_555
O3D Ag1D 1_555 1_555
H1D O3D 1_555 1_555
H1F O3D 1_555 1_555
Ag1_2 N2B 1_555 1_555
Ag1_3 N2_2 1_555 1_555
N2D Ag1D 1_555 1_555
N2F Ag1D 1_555 1_555
N1D C2D 1_555 1_555
N2B C5B 1_555 1_555
N2_2 C5_2 1_555 1_555

#END
