
#######################################################################
#
#                 Cambridge Crystallographic Data Centre
#                                CCDC 
#
#######################################################################
#
# If this CIF has been generated from an entry in the Cambridge 
# Structural Database, then it will include bibliographic, chemical, 
# crystal, experimental, refinement or atomic coordinate data resulting 
# from the CCDC's data processing and validation procedures.
#
#######################################################################

data_MAJLUF
_symmetry_cell_setting           monoclinic
_symmetry_space_group_name_H-M   'P 21/n'
_symmetry_Int_Tables_number      14
_space_group_name_Hall           '-P 2yn'
loop_
_symmetry_equiv_pos_site_id
_symmetry_equiv_pos_as_xyz
1 x,y,z
2 1/2+x,1/2-y,1/2+z
3 -x,-y,-z
4 1/2-x,1/2+y,1/2-z
_cell_length_a                   6.457(3)
_cell_length_b                   25.594(7)
_cell_length_c                   7.111(3)
_cell_angle_alpha                90
_cell_angle_beta                 106.488(3)
_cell_angle_gamma                90
_cell_volume                     1126.84
loop_
_atom_site_label
_atom_site_type_symbol
_atom_site_fract_x
_atom_site_fract_y
_atom_site_fract_z
Ag1 Ag 0.52115(7) 1.01761(2) 0.23928(7)
O1 O 0.4556(6) 0.94268(16) 0.3950(6)
O2 O 0.7227(8) 0.90684(18) 0.3038(8)
N1 N 0.0326(7) 0.9841(2) 0.2855(7)
H1 H 0.1656 0.9699 0.3209
H2 H -0.0791 0.9668 0.3084
N2 N 0.1758(6) 1.05482(18) 0.1696(6)
N3 N -0.1999(6) 1.05083(19) 0.1508(7)
C1 C 0.5783(9) 0.9050(2) 0.3855(8)
C2 C 0.5458(9) 0.8551(2) 0.4845(8)
C3 C 0.7049(10) 0.8166(3) 0.5198(11)
H3 H 0.8303 0.8211 0.4744
C4 C 0.6857(12) 0.7714(3) 0.6203(11)
H4 H 0.7979 0.7455 0.6477
C5 C 0.5060(13) 0.7641(3) 0.6852(12)
H5 H 0.4936 0.7333 0.7579
C6 C 0.3454(12) 0.8011(3) 0.6453(11)
H6 H 0.2159 0.7947 0.6824
C7 C 0.3649(10) 0.8464(3) 0.5474(9)
H7 H 0.2541 0.8726 0.5260
C8 C 0.0020(8) 1.0308(2) 0.2002(7)
C9 C 0.1408(9) 1.1012(2) 0.0839(8)
H8 H 0.2607 1.1193 0.0594
C10 C -0.0609(9) 1.1242(2) 0.0238(9)
H9 H -0.0832 1.1579 -0.0380
C11 C -0.2266(9) 1.0973(2) 0.0608(9)
H10 H -0.3686 1.1124 0.0196
N3_2 N 0.8001(6) 1.05083(19) 0.1508(7)
Ag1_2 Ag -0.47885(7) 1.01761(2) 0.23928(7)
loop_
_geom_bond_atom_site_label_1
_geom_bond_atom_site_label_2
_geom_bond_site_symmetry_1
_geom_bond_site_symmetry_2
Ag1 O1 1_555 1_555
O1 C1 1_555 1_555
O2 C1 1_555 1_555
N1 H1 1_555 1_555
H2 N1 1_555 1_555
N2 Ag1 1_555 1_555
N3 C8 1_555 1_555
C1 C2 1_555 1_555
C2 C3 1_555 1_555
C3 H3 1_555 1_555
C4 C3 1_555 1_555
H4 C4 1_555 1_555
C5 C4 1_555 1_555
H5 C5 1_555 1_555
C6 C5 1_555 1_555
H6 C6 1_555 1_555
C7 C2 1_555 1_555
H7 C7 1_555 1_555
C8 N1 1_555 1_555
C9 N2 1_555 1_555
H8 C9 1_555 1_555
C10 C9 1_555 1_555
H9 C10 1_555 1_555
C11 N3 1_555 1_555
H10 C11 1_555 1_555
N3_2 Ag1 1_555 1_555
Ag1_2 N3 1_555 1_555
N2 C8 1_555 1_555
C6 C7 1_555 1_555
C10 C11 1_555 1_555

#END
