
#######################################################################
#
#                 Cambridge Crystallographic Data Centre
#                                CCDC 
#
#######################################################################
#
# If this CIF has been generated from an entry in the Cambridge 
# Structural Database, then it will include bibliographic, chemical, 
# crystal, experimental, refinement or atomic coordinate data resulting 
# from the CCDC's data processing and validation procedures.
#
#######################################################################

data_MAJPUJ
_symmetry_cell_setting           triclinic
_symmetry_space_group_name_H-M   'P -1'
_symmetry_Int_Tables_number      2
_space_group_name_Hall           '-P 1'
loop_
_symmetry_equiv_pos_site_id
_symmetry_equiv_pos_as_xyz
1 x,y,z
2 -x,-y,-z
_cell_length_a                   6.0553(2)
_cell_length_b                   8.2433(3)
_cell_length_c                   9.96940(10)
_cell_angle_alpha                111.733(2)
_cell_angle_beta                 94.984(2)
_cell_angle_gamma                93.813(2)
_cell_volume                     457.884
loop_
_atom_site_label
_atom_site_type_symbol
_atom_site_fract_x
_atom_site_fract_y
_atom_site_fract_z
Nd1 Nd -0.23316(4) 0.14573(3) -0.03182(3)
S1 S -0.9656(2) -0.40495(18) -0.77894(14)
O1 O -0.5582(8) 0.3097(7) -0.0107(5)
H1 H -0.665(10) 0.299(12) -0.071(8)
H2 H -0.591(15) 0.391(8) 0.060(7)
O2 O -0.5605(7) -0.0791(6) -0.1402(4)
O3 O -0.4714(7) 0.0544(6) -0.2847(5)
O4 O -1.0233(6) -0.0957(5) -0.1471(4)
O5 O -1.1324(7) -0.5559(6) -0.8420(4)
O6 O -0.7382(8) -0.4474(7) -0.7925(5)
O7 O -1.0144(8) -0.2715(6) -0.8413(5)
C1 C -0.8158(10) -0.1353(7) -0.3503(6)
C2 C -1.0105(9) -0.1685(7) -0.2922(6)
C3 C -1.1930(10) -0.2748(8) -0.3881(6)
H3 H -1.3227 -0.2973 -0.3515
C4 C -1.1820(10) -0.3465(8) -0.5362(6)
H4 H -1.3027 -0.4190 -0.5985
C5 C -0.9902(10) -0.3099(8) -0.5922(6)
C6 C -0.8089(10) -0.2032(8) -0.5011(6)
H5 H -0.6832 -0.1767 -0.5396
C7 C -0.6064(10) -0.0455(8) -0.2555(6)
O2A O -0.4395(7) 0.0791(6) 0.1402(4)
O4_2 O -0.0233(6) -0.0957(5) -0.1471(4)
O4A O 0.0233(6) 0.0957(5) 0.1471(4)
O5_2 O -0.1324(7) 0.4441(6) 0.1580(4)
O7A O 0.0144(8) 0.2715(6) -0.1587(5)
Nd1A Nd -0.76684(4) -0.14573(3) 0.03182(3)
Nd1_2 Nd -1.23316(4) 0.14573(3) -0.03182(3)
Nd1_3 Nd -1.23316(4) -0.85427(3) -1.03182(3)
Nd1A_2 Nd -0.76684(4) -0.14573(3) -0.96818(3)
loop_
_geom_bond_atom_site_label_1
_geom_bond_atom_site_label_2
_geom_bond_site_symmetry_1
_geom_bond_site_symmetry_2
Nd1 O1 1_555 1_555
S1 O5 1_555 1_555
O1 H1 1_555 1_555
H2 O1 1_555 1_555
O2 Nd1 1_555 1_555
O3 Nd1 1_555 1_555
O4 C2 1_555 1_555
O5 Nd1_3 1_555 1_555
O6 S1 1_555 1_555
O7 S1 1_555 1_555
C1 C2 1_555 1_555
C2 C3 1_555 1_555
C3 H3 1_555 1_555
C4 C3 1_555 1_555
H4 C4 1_555 1_555
C5 S1 1_555 1_555
C6 C1 1_555 1_555
H5 C6 1_555 1_555
C7 O2 1_555 1_555
O2A Nd1 1_555 1_555
O4_2 Nd1 1_555 1_555
O4A Nd1 1_555 1_555
O5_2 Nd1 1_555 1_555
O7A Nd1 1_555 1_555
Nd1A O2 1_555 1_555
Nd1_2 O4 1_555 1_555
Nd1A_2 O7 1_555 1_555
O3 C7 1_555 1_555
O4 Nd1A 1_555 1_555
C1 C7 1_555 1_555
C4 C5 1_555 1_555
C5 C6 1_555 1_555
O2A Nd1A 1_555 1_555

#END
