
#######################################################################
#
#                 Cambridge Crystallographic Data Centre
#                                CCDC 
#
#######################################################################
#
# If this CIF has been generated from an entry in the Cambridge 
# Structural Database, then it will include bibliographic, chemical, 
# crystal, experimental, refinement or atomic coordinate data resulting 
# from the CCDC's data processing and validation procedures.
#
#######################################################################

data_MAJPOD
_symmetry_cell_setting           monoclinic
_symmetry_space_group_name_H-M   'P 21/n'
_symmetry_Int_Tables_number      14
_space_group_name_Hall           '-P 2yn'
loop_
_symmetry_equiv_pos_site_id
_symmetry_equiv_pos_as_xyz
1 x,y,z
2 1/2+x,1/2-y,1/2+z
3 -x,-y,-z
4 1/2-x,1/2+y,1/2-z
_cell_length_a                   10.1055(9)
_cell_length_b                   11.6854(11)
_cell_length_c                   15.7236(14)
_cell_angle_alpha                90
_cell_angle_beta                 102.415(2)
_cell_angle_gamma                90
_cell_volume                     1813.33
loop_
_atom_site_label
_atom_site_type_symbol
_atom_site_fract_x
_atom_site_fract_y
_atom_site_fract_z
Cu1 Cu 0.09424(8) 0.88890(7) 0.41120(5)
O1 O 0.0428(6) 1.0736(4) 0.4158(3)
O2 O 0.0081(5) 1.1948(4) 0.5179(3)
O3 O 0.2848(6) 1.2223(4) 0.1891(3)
O4 O 0.2951(5) 1.4110(4) 0.1753(3)
O5 O 0.1504(7) 1.5766(4) 0.4333(4)
H1 H 0.1689 1.6238 0.3991
N1 N -0.0665(6) 0.8727(5) 0.3077(4)
N2 N 0.2626(6) 0.8984(5) 0.5066(4)
C1 C 0.2775(9) 0.9739(8) 0.5710(5)
H2 H 0.2047 1.0210 0.5746
C2 C 0.3979(11) 0.9856(10) 0.6335(7)
H3 H 0.4045 1.0392 0.6780
C3 C 0.5041(12) 0.9185(11) 0.6289(7)
H4 H 0.5854 0.9262 0.6695
C4 C 0.4919(10) 0.8392(13) 0.5643(7)
H5 H 0.5641 0.7917 0.5601
C5 C 0.3691(9) 0.8310(9) 0.5048(6)
H6 H 0.3603 0.7757 0.4614
C6 C -0.1486(9) 0.7812(8) 0.2959(6)
H7 H -0.1390 0.7263 0.3397
C7 C -0.2475(11) 0.7659(11) 0.2204(7)
H8 H -0.3042 0.7024 0.2145
C8 C -0.2610(10) 0.8450(10) 0.1545(7)
H9 H -0.3250 0.8347 0.1029
C9 C -0.1785(10) 0.9393(10) 0.1661(6)
H10 H -0.1867 0.9951 0.1231
C10 C -0.0826(8) 0.9498(7) 0.2435(5)
H11 H -0.0265 1.0137 0.2510
C11 C 0.2112(7) 1.3391(6) 0.2934(4)
C12 C 0.1606(6) 1.2484(6) 0.3337(4)
H12 H 0.1605 1.1749 0.3110
C13 C 0.1101(7) 1.2672(6) 0.4080(4)
C14 C 0.1090(7) 1.3771(6) 0.4410(5)
H13 H 0.0756 1.3897 0.4909
C15 C 0.1572(8) 1.4685(6) 0.4002(5)
C16 C 0.2099(7) 1.4481(6) 0.3272(5)
H14 H 0.2449 1.5087 0.3006
C17 C 0.2675(7) 1.3207(6) 0.2124(4)
C18 C 0.0490(6) 1.1683(6) 0.4498(4)
O2B O -0.0081(5) 0.8052(4) 0.4821(3)
O4C O 0.2049(5) 0.9110(4) 0.3247(3)
Cu1B Cu -0.09424(8) 1.11110(7) 0.58880(5)
Cu1C Cu 0.40576(8) 1.38890(7) 0.08880(5)
loop_
_geom_bond_atom_site_label_1
_geom_bond_atom_site_label_2
_geom_bond_site_symmetry_1
_geom_bond_site_symmetry_2
Cu1 O1 1_555 1_555
O1 C18 1_555 1_555
O2 C18 1_555 1_555
O3 C17 1_555 1_555
O4 C17 1_555 1_555
O5 H1 1_555 1_555
N1 Cu1 1_555 1_555
N2 Cu1 1_555 1_555
C1 N2 1_555 1_555
H2 C1 1_555 1_555
C2 C1 1_555 1_555
H3 C2 1_555 1_555
C3 C2 1_555 1_555
H4 C3 1_555 1_555
C4 C3 1_555 1_555
H5 C4 1_555 1_555
C5 N2 1_555 1_555
H6 C5 1_555 1_555
C6 N1 1_555 1_555
H7 C6 1_555 1_555
C7 C6 1_555 1_555
H8 C7 1_555 1_555
C8 C7 1_555 1_555
H9 C8 1_555 1_555
C9 C8 1_555 1_555
H10 C9 1_555 1_555
C10 N1 1_555 1_555
H11 C10 1_555 1_555
C11 C12 1_555 1_555
C12 H12 1_555 1_555
C13 C12 1_555 1_555
C14 C13 1_555 1_555
H13 C14 1_555 1_555
C15 O5 1_555 1_555
C16 C11 1_555 1_555
H14 C16 1_555 1_555
C17 C11 1_555 1_555
C18 C13 1_555 1_555
O2B Cu1 1_555 1_555
O4C Cu1 1_555 1_555
Cu1B O2 1_555 1_555
Cu1C O4 1_555 1_555
C4 C5 1_555 1_555
C9 C10 1_555 1_555
C14 C15 1_555 1_555
C15 C16 1_555 1_555

#END
