
#######################################################################
#
#                 Cambridge Crystallographic Data Centre
#                                CCDC 
#
#######################################################################
#
# If this CIF has been generated from an entry in the Cambridge 
# Structural Database, then it will include bibliographic, chemical, 
# crystal, experimental, refinement or atomic coordinate data resulting 
# from the CCDC's data processing and validation procedures.
#
#######################################################################

data_MAJPIX
_symmetry_cell_setting           monoclinic
_symmetry_space_group_name_H-M   'P 21/c'
_symmetry_Int_Tables_number      14
_space_group_name_Hall           '-P 2ybc'
loop_
_symmetry_equiv_pos_site_id
_symmetry_equiv_pos_as_xyz
1 x,y,z
2 x,1/2-y,1/2+z
3 -x,-y,-z
4 -x,1/2+y,1/2-z
_cell_length_a                   9.1673(18)
_cell_length_b                   10.401(2)
_cell_length_c                   11.026(2)
_cell_angle_alpha                90
_cell_angle_beta                 111.81(3)
_cell_angle_gamma                90
_cell_volume                     976.067
loop_
_atom_site_label
_atom_site_type_symbol
_atom_site_fract_x
_atom_site_fract_y
_atom_site_fract_z
Ag1 Ag 0.66638(2) 0.620516(17) 0.580211(19)
O1 O 1.0789(3) 0.19027(19) 0.47214(19)
O2 O 0.7587(2) 0.55781(16) 0.83960(17)
N1 N 0.7977(2) 0.46500(18) 0.5463(2)
N2 N 0.4832(2) 0.27112(18) 0.9047(2)
C1 C 0.9023(3) 0.3973(2) 0.6448(2)
C2 C 0.9982(3) 0.3038(2) 0.6265(2)
C3 C 0.9902(3) 0.2759(2) 0.5003(2)
C4 C 0.8820(3) 0.3456(2) 0.3986(2)
C5 C 0.7912(3) 0.4368(2) 0.4257(2)
C6 C 0.5875(3) 0.3382(2) 1.0039(2)
C7 C 0.6820(3) 0.4336(2) 0.9886(2)
C8 C 0.6749(3) 0.4673(2) 0.8630(2)
C9 C 0.5687(3) 0.3944(2) 0.7609(2)
C10 C 0.4785(3) 0.3013(2) 0.7851(2)
H1 H 0.9099 0.4148 0.7296
H2 H 1.0679 0.2595 0.6977
H3 H 0.8716 0.3301 0.3127
H4 H 0.7202 0.4822 0.3560
H5 H 0.5957 0.3183 1.0884
H6 H 0.7512 0.4762 1.0614
H7 H 0.5598 0.4100 0.6754
H8 H 0.4095 0.2560 0.7144
H9 H 1.140(3) 0.152(3) 0.539(2)
N2C N 0.5168(2) 0.77112(18) 0.5953(2)
Ag1C Ag 0.33362(2) 0.120516(17) 0.919789(19)
loop_
_geom_bond_atom_site_label_1
_geom_bond_atom_site_label_2
_geom_bond_site_symmetry_1
_geom_bond_site_symmetry_2
Ag1 O2 1_555 1_555
O1 C3 1_555 1_555
O2 C8 1_555 1_555
N1 Ag1 1_555 1_555
N2 C6 1_555 1_555
C1 N1 1_555 1_555
C2 C1 1_555 1_555
C3 C2 1_555 1_555
C4 C3 1_555 1_555
C5 N1 1_555 1_555
C6 C7 1_555 1_555
C7 C8 1_555 1_555
C8 C9 1_555 1_555
C9 C10 1_555 1_555
C10 N2 1_555 1_555
H1 C1 1_555 1_555
H2 C2 1_555 1_555
H3 C4 1_555 1_555
H4 C5 1_555 1_555
H5 C6 1_555 1_555
H6 C7 1_555 1_555
H7 C9 1_555 1_555
H8 C10 1_555 1_555
H9 O1 1_555 1_555
N2C Ag1 1_555 1_555
Ag1C N2 1_555 1_555
C4 C5 1_555 1_555

#END
