
#######################################################################
#
#                 Cambridge Crystallographic Data Centre
#                                CCDC 
#
#######################################################################
#
# If this CIF has been generated from an entry in the Cambridge 
# Structural Database, then it will include bibliographic, chemical, 
# crystal, experimental, refinement or atomic coordinate data resulting 
# from the CCDC's data processing and validation procedures.
#
#######################################################################

data_MAJTOG
_symmetry_cell_setting           triclinic
_symmetry_space_group_name_H-M   'P -1'
_symmetry_Int_Tables_number      2
_space_group_name_Hall           '-P 1'
loop_
_symmetry_equiv_pos_site_id
_symmetry_equiv_pos_as_xyz
1 x,y,z
2 -x,-y,-z
_cell_length_a                   7.365(2)
_cell_length_b                   11.837(4)
_cell_length_c                   11.935(4)
_cell_angle_alpha                110.49(2)
_cell_angle_beta                 105.06(3)
_cell_angle_gamma                105.38(2)
_cell_volume                     865.152
loop_
_atom_site_label
_atom_site_type_symbol
_atom_site_fract_x
_atom_site_fract_y
_atom_site_fract_z
Mo1 Mo 0.2247(3) 0.6173(2) 0.6218(2)
Mo2 Mo 0.2796(3) 0.3633(2) 0.4067(2)
O1 O 0.437(2) 0.567(1) 0.580(1)
O2 O 0.340(2) 0.777(2) 0.715(2)
O3 O -0.065(2) 0.583(1) 0.545(2)
O4 O 0.214(2) 0.559(1) 0.732(1)
O5 O 0.212(2) 0.664(1) 0.448(1)
O6 O 0.252(2) 0.495(1) 0.310(1)
O7 O 0.502(2) 0.874(2) 0.321(2)
O8 O 0.086(2) 0.934(1) 0.091(2)
O9 O 0.313(2) 0.286(1) 0.500(1)
O10 O 0.166(2) 0.241(1) 0.256(2)
N1 N 0.166(2) 0.768(2) 0.274(2)
N2 N 0.100(3) 0.998(2) 0.303(2)
N3 N -0.306(3) 0.879(2) -0.013(2)
C1 C 0.222(3) 0.599(2) 0.340(2)
C2 C 0.171(4) 0.641(2) 0.230(3)
C3 C 0.327(4) 0.876(2) 0.311(2)
C4 C 0.308(3) 1.007(2) 0.347(2)
C5 C 0.006(4) 0.962(2) 0.176(3)
C6 C -0.214(3) 0.951(2) 0.128(3)
O3A O 0.065(2) 0.417(1) 0.455(2)
Mo1A Mo -0.2247(3) 0.3827(2) 0.3782(2)
Mo2A Mo 0.7204(3) 0.6367(2) 0.5933(2)
Mo2A_2 Mo -0.2796(3) 0.6367(2) 0.5933(2)
O1A O 0.563(2) 0.433(1) 0.420(1)
O1A_2 O -0.437(2) 0.433(1) 0.420(1)
O2A O -0.340(2) 0.223(2) 0.285(2)
O4A O -0.214(2) 0.441(1) 0.268(1)
O5A O -0.212(2) 0.336(1) 0.552(1)
O6A O -0.252(2) 0.505(1) 0.690(1)
O7A O -0.502(2) 0.126(2) 0.679(2)
O8A O -0.086(2) 0.066(1) 0.909(2)
N1A N -0.166(2) 0.232(2) 0.726(2)
N2A N -0.100(3) 0.002(2) 0.697(2)
N3A N 0.306(3) 0.121(2) 1.013(2)
C1A C -0.222(3) 0.401(2) 0.660(2)
C2A C -0.171(4) 0.359(2) 0.770(3)
C3A C -0.327(4) 0.124(2) 0.689(2)
C4A C -0.308(3) -0.007(2) 0.653(2)
C5A C -0.006(4) 0.038(2) 0.824(3)
C6A C 0.214(3) 0.049(2) 0.872(3)
Mo1A_2 Mo 0.7753(3) 0.3827(2) 0.3782(2)
O1_2 O -0.563(2) 0.567(1) 0.580(1)
O9A O -0.313(2) 0.714(1) 0.500(1)
O10A O -0.166(2) 0.759(1) 0.744(2)
O11 O -0.129(2) 1.086(2) 0.450(2)
O12 O -0.266(3) 0.690(2) 0.252(2)
O13 O -0.269(3) 0.641(2) -0.062(2)
O14 O 0.272(3) 0.785(2) -0.028(2)
O15 O -0.600(9) 0.569(6) -0.001(6)
loop_
_geom_bond_atom_site_label_1
_geom_bond_atom_site_label_2
_geom_bond_site_symmetry_1
_geom_bond_site_symmetry_2
Mo1 O1 1_555 1_555
Mo2 O1 1_555 1_555
O1 Mo2A 1_555 1_555
O2 Mo1 1_555 1_555
O3 Mo1 1_555 1_555
O4 Mo1 1_555 1_555
O5 Mo1 1_555 1_555
O6 Mo2 1_555 1_555
O7 C3 1_555 1_555
O8 C5 1_555 1_555
O9 Mo2 1_555 1_555
O10 Mo2 1_555 1_555
N1 C2 1_555 1_555
N2 C4 1_555 1_555
N3 C6 1_555 1_555
C1 O5 1_555 1_555
C2 C1 1_555 1_555
C3 N1 1_555 1_555
C4 C3 1_555 1_555
C5 N2 1_555 1_555
C6 C5 1_555 1_555
O3A Mo1 1_555 1_555
Mo1A O3 1_555 1_555
Mo2A O1A 1_555 1_555
Mo2A_2 O3 1_555 1_555
O1A Mo2 1_555 1_555
O1A_2 Mo1A 1_555 1_555
O2A Mo1A 1_555 1_555
O4A Mo1A 1_555 1_555
O5A Mo1A 1_555 1_555
O6A Mo2A_2 1_555 1_555
O7A C3A 1_555 1_555
O8A C5A 1_555 1_555
N1A C2A 1_555 1_555
N2A C4A 1_555 1_555
N3A C6A 1_555 1_555
C1A O5A 1_555 1_555
C2A C1A 1_555 1_555
C3A N1A 1_555 1_555
C4A C3A 1_555 1_555
C5A N2A 1_555 1_555
C6A C5A 1_555 1_555
Mo1A_2 O1A 1_555 1_555
O1_2 Mo2A_2 1_555 1_555
O9A Mo2A_2 1_555 1_555
O10A Mo2A_2 1_555 1_555
Mo2 O3A 1_555 1_555
O6 C1 1_555 1_555
O3A Mo1A 1_555 1_555
Mo2A_2 O1A_2 1_555 1_555
O6A C1A 1_555 1_555

#END
