
#######################################################################
#
#                 Cambridge Crystallographic Data Centre
#                                CCDC 
#
#######################################################################
#
# If this CIF has been generated from an entry in the Cambridge 
# Structural Database, then it will include bibliographic, chemical, 
# crystal, experimental, refinement or atomic coordinate data resulting 
# from the CCDC's data processing and validation procedures.
#
#######################################################################

data_MAJTEW01
_symmetry_cell_setting           triclinic
_symmetry_space_group_name_H-M   'P -1'
_symmetry_Int_Tables_number      2
_space_group_name_Hall           '-P 1'
loop_
_symmetry_equiv_pos_site_id
_symmetry_equiv_pos_as_xyz
1 x,y,z
2 -x,-y,-z
_cell_length_a                   9.4166(9)
_cell_length_b                   11.3098(8)
_cell_length_c                   11.7804(8)
_cell_angle_alpha                63.768(6)
_cell_angle_beta                 74.231(5)
_cell_angle_gamma                82.402(6)
_cell_volume                     1082.94
loop_
_atom_site_label
_atom_site_type_symbol
_atom_site_fract_x
_atom_site_fract_y
_atom_site_fract_z
O1 O -0.2386(4) -0.1457(4) -0.5670(3)
O2 O -0.4154(5) -0.2578(5) -0.3927(4)
O3 O -0.2706(4) 0.1335(4) -0.3565(4)
O4 O 0.0998(4) -0.4594(4) -0.7264(4)
O5 O 0.0677(4) -0.3910(4) -0.9691(4)
O6 O -0.4065(4) -0.2650(4) -0.6538(4)
O7 O -0.4605(4) 0.0435(4) -0.8896(4)
O8 O -0.3145(5) 0.1695(4) -0.8064(4)
O9 O 0.0101(4) 0.0525(4) -0.7498(4)
O10 O 0.2185(4) -0.0076(3) -0.9304(3)
O11 O -0.1809(4) -0.3947(4) -0.5405(4)
O12 O 0.2644(4) -0.2538(3) -0.9284(3)
O13 O -0.1475(4) -0.3159(3) -0.8063(3)
O14 O -0.1957(4) -0.0653(3) -0.8151(3)
O15 O 0.0202(4) -0.2026(3) -0.7453(3)
O16 O -0.0462(4) 0.1180(3) -0.9951(3)
Na1 Na -0.4145(2) 0.1730(2) -0.1936(2)
Na2 Na -0.4856(3) 0.4113(2) -0.0910(2)
N1 N -0.2226(6) 0.0377(5) -0.4931(5)
H1 H -0.1716 0.0383 -0.5660
N2 N -0.0932(5) 0.3355(4) -0.5095(5)
H2 H -0.1792 0.3772 -0.5188
H3 H -0.0199 0.3915 -0.5600
H4 H -0.0888 0.3038 -0.4266
C1 C -0.3326(6) -0.1662(6) -0.4563(5)
C2 C -0.3323(7) -0.0630(6) -0.4090(6)
H5 H -0.4292 -0.0213 -0.4023
H6 H -0.3141 -0.1054 -0.3224
C3 C -0.2008(6) 0.1285(5) -0.4581(5)
C4 C -0.0795(6) 0.2254(6) -0.5479(6)
H7 H 0.0160 0.1821 -0.5419
H8 H -0.0874 0.2589 -0.6373
O17 O -0.3891(4) 0.4168(4) -0.3058(4)
O18 O -0.6238(4) 0.2383(4) -0.0627(4)
O19 O -0.6968(6) 0.5632(6) -0.1639(5)
O20 O -0.4005(5) 0.6150(4) -0.1270(4)
Mo1 Mo 0.03068(4) -0.01987(4) -0.85345(4)
Mo2 Mo 0.06704(4) -0.32727(4) -0.86139(4)
Mo3 Mo -0.28960(4) 0.09557(4) -0.90911(4)
Mo4 Mo -0.22175(4) -0.25987(4) -0.67002(4)
Mo3A Mo 0.28960(4) -0.09557(4) -1.09089(4)
O7A O 0.4605(4) -0.0435(4) -1.1104(4)
O8A O 0.3145(5) -0.1695(4) -1.1936(4)
O10A O -0.2185(4) 0.0076(3) -1.0696(3)
Mo1A Mo -0.03068(4) 0.01987(4) -1.14655(4)
O9A O -0.0101(4) -0.0525(4) -1.2502(4)
O14A O 0.1957(4) 0.0653(3) -1.1849(3)
O16A O 0.0462(4) -0.1180(3) -1.0049(3)
O15A O -0.0202(4) 0.2026(3) -1.2547(3)
Mo2A Mo -0.06704(4) 0.32727(4) -1.13861(4)
O4A O -0.0998(4) 0.4594(4) -1.2736(4)
O5A O -0.0677(4) 0.3910(4) -1.0309(4)
O12A O -0.2644(4) 0.2538(3) -1.0716(3)
O13A O 0.1475(4) 0.3159(3) -1.1937(3)
Mo4A Mo 0.22175(4) 0.25987(4) -1.32998(4)
O1A O 0.2386(4) 0.1457(4) -1.4330(3)
C1A C 0.3326(6) 0.1662(6) -1.5437(5)
O2A O 0.4154(5) 0.2578(5) -1.6073(4)
C2A C 0.3323(7) 0.0630(6) -1.5910(6)
N1A N 0.2226(6) -0.0377(5) -1.5069(5)
H1A H 0.1716 -0.0383 -1.4340
C3A C 0.2008(6) -0.1285(5) -1.5419(5)
O3A O 0.2706(4) -0.1335(4) -1.6435(4)
C4A C 0.0795(6) -0.2254(6) -1.4521(6)
N2A N 0.0932(5) -0.3355(4) -1.4905(5)
H2A H 0.1792 -0.3772 -1.4812
H3A H 0.0199 -0.3915 -1.4400
H4A H 0.0888 -0.3038 -1.5734
H7A H -0.0160 -0.1821 -1.4581
H8A H 0.0874 -0.2589 -1.3627
H5A H 0.4292 0.0213 -1.5977
H6A H 0.3141 0.1054 -1.6776
O6A O 0.4065(4) 0.2650(4) -1.3462(4)
O11A O 0.1809(4) 0.3947(4) -1.4595(4)
Na2A Na -0.5144(3) 0.5887(2) 0.0910(2)
O17A O -0.6109(4) 0.5832(4) 0.3058(4)
O18A O -0.3762(4) 0.7617(4) 0.0627(4)
O19A O -0.3032(6) 0.4368(6) 0.1639(5)
O20A O -0.5995(5) 0.3850(4) 0.1270(4)
Na1A Na 0.4145(2) -0.1730(2) -1.8064(2)
Na1A_2 Na -0.5855(2) -0.1730(2) -0.8064(2)
O7A_2 O -0.5395(4) -0.0435(4) -0.1104(4)
Na1_2 Na 0.5855(2) 0.1730(2) -1.1936(2)
Na1A_3 Na -0.5855(2) 0.8270(2) 0.1936(2)
O7_2 O 0.5395(4) 0.0435(4) -1.8896(4)
O17A_2 O 0.3891(4) -0.4168(4) -1.6942(4)
O18A_2 O 0.6238(4) -0.2383(4) -1.9373(4)
O21 O -0.3680(5) 0.4128(5) -0.5804(5)
O22 O 0.1163(6) 0.3173(5) -0.8421(5)
loop_
_geom_bond_atom_site_label_1
_geom_bond_atom_site_label_2
_geom_bond_site_symmetry_1
_geom_bond_site_symmetry_2
O1 C1 1_555 1_555
O2 C1 1_555 1_555
O3 Na1 1_555 1_555
O4 Mo2 1_555 1_555
O5 Mo2 1_555 1_555
O6 Mo4 1_555 1_555
O7 Mo3 1_555 1_555
O8 Mo3 1_555 1_555
O9 Mo1 1_555 1_555
O10 Mo1 1_555 1_555
O11 Mo4 1_555 1_555
O12 Mo2 1_555 1_555
O13 Mo2 1_555 1_555
O14 Mo1 1_555 1_555
O15 Mo1 1_555 1_555
O16 Mo1 1_555 1_555
Na1 O17 1_555 1_555
Na2 O17 1_555 1_555
N1 H1 1_555 1_555
N2 H2 1_555 1_555
H3 N2 1_555 1_555
H4 N2 1_555 1_555
C1 C2 1_555 1_555
C2 N1 1_555 1_555
H5 C2 1_555 1_555
H6 C2 1_555 1_555
C3 O3 1_555 1_555
C4 N2 1_555 1_555
H7 C4 1_555 1_555
H8 C4 1_555 1_555
O18 Na1 1_555 1_555
O19 Na2 1_555 1_555
O20 Na2 1_555 1_555
Mo1 O16A 1_555 1_555
Mo2 O15 1_555 1_555
Mo3 O14 1_555 1_555
Mo4 O1 1_555 1_555
Mo3A O10 1_555 1_555
O7A Mo3A 1_555 1_555
O8A Mo3A 1_555 1_555
O10A Mo3 1_555 1_555
Mo1A O16 1_555 1_555
O9A Mo1A 1_555 1_555
O14A Mo3A 1_555 1_555
O16A Mo2 1_555 1_555
O15A Mo1A 1_555 1_555
Mo2A O16 1_555 1_555
O4A Mo2A 1_555 1_555
O5A Mo2A 1_555 1_555
O12A Mo3 1_555 1_555
O13A Mo2A 1_555 1_555
Mo4A O14A 1_555 1_555
O1A Mo4A 1_555 1_555
C1A O1A 1_555 1_555
O2A C1A 1_555 1_555
C2A C1A 1_555 1_555
N1A C2A 1_555 1_555
H1A N1A 1_555 1_555
C3A N1A 1_555 1_555
O3A C3A 1_555 1_555
C4A C3A 1_555 1_555
N2A C4A 1_555 1_555
H2A N2A 1_555 1_555
H3A N2A 1_555 1_555
H4A N2A 1_555 1_555
H7A C4A 1_555 1_555
H8A C4A 1_555 1_555
H5A C2A 1_555 1_555
H6A C2A 1_555 1_555
O6A Mo4A 1_555 1_555
O11A Mo4A 1_555 1_555
Na2A O20 1_555 1_555
O17A Na2A 1_555 1_555
O18A Na2A 1_555 1_555
O19A Na2A 1_555 1_555
O20A Na2 1_555 1_555
Na1A O3A 1_555 1_555
Na1A_2 O7 1_555 1_555
O7A_2 Na1 1_555 1_555
Na1_2 O7A 1_555 1_555
Na1A_3 O17A 1_555 1_555
O7_2 Na1A 1_555 1_555
O17A_2 Na1A 1_555 1_555
O18A_2 Na1A 1_555 1_555
O12 Mo3A 1_555 1_555
O13 Mo4 1_555 1_555
O14 Mo4 1_555 1_555
O15 Mo4 1_555 1_555
O16 Mo3 1_555 1_555
Na2 O18 1_555 1_555
N1 C3 1_555 1_555
C3 C4 1_555 1_555
Mo3A O16A 1_555 1_555
O10A Mo1A 1_555 1_555
Mo1A O14A 1_555 1_555
Mo1A O16A 1_555 1_555
O15A Mo2A 1_555 1_555
O15A Mo4A 1_555 1_555
Mo2A O12A 1_555 1_555
O13A Mo4A 1_555 1_555
Na2A O20A 1_555 1_555
O18A Na1A_3 1_555 1_555

#END
