
#######################################################################
#
#                 Cambridge Crystallographic Data Centre
#                                CCDC 
#
#######################################################################
#
# If this CIF has been generated from an entry in the Cambridge 
# Structural Database, then it will include bibliographic, chemical, 
# crystal, experimental, refinement or atomic coordinate data resulting 
# from the CCDC's data processing and validation procedures.
#
#######################################################################

data_MAJYIH
_symmetry_cell_setting           orthorhombic
_symmetry_space_group_name_H-M   'P n m a'
_symmetry_Int_Tables_number      62
_space_group_name_Hall           '-P 2ac 2n'
loop_
_symmetry_equiv_pos_site_id
_symmetry_equiv_pos_as_xyz
1 x,y,z
2 1/2-x,-y,1/2+z
3 -x,1/2+y,-z
4 1/2+x,1/2-y,1/2-z
5 -x,-y,-z
6 1/2+x,y,1/2-z
7 x,1/2-y,z
8 1/2-x,1/2+y,1/2+z
_cell_length_a                   16.2998(8)
_cell_length_b                   14.5464(8)
_cell_length_c                   16.3612(9)
_cell_angle_alpha                90
_cell_angle_beta                 90
_cell_angle_gamma                90
_cell_volume                     3879.3
loop_
_atom_site_label
_atom_site_type_symbol
_atom_site_fract_x
_atom_site_fract_y
_atom_site_fract_z
Li1 Li 0.5543(19) 0.7500 0.3424(15)
C12 C 0.460(2) 0.616(2) 0.4929(17)
H13 H 0.4348 0.6727 0.5096
H14 H 0.4967 0.5952 0.5347
H15 H 0.4179 0.5705 0.4844
O1 O 0.5057(11) 0.6305(16) 0.4156(14)
C13 C 0.5423(14) 0.5437(14) 0.3833(10)
H16 H 0.5937 0.5326 0.4115
H17 H 0.5058 0.4932 0.3961
C14 C 0.5579(12) 0.5434(12) 0.2956(10)
H18 H 0.5905 0.4902 0.2805
H19 H 0.5067 0.5415 0.2655
O2 O 0.6021(11) 0.6274(13) 0.2777(8)
C15 C 0.632(2) 0.693(2) 0.2107(18)
H20 H 0.6595 0.7447 0.2353
H21 H 0.5856 0.7151 0.1798
H22 H 0.6690 0.6617 0.1749
C17 C 0.5767(12) 0.6207(15) 0.4743(17)
H27 H 0.5664 0.5845 0.5230
C18 C 0.6520(11) 0.6807(14) 0.4850(12)
H28 H 0.7009 0.6428 0.4879
H29 H 0.6478 0.7157 0.5353
O4 O 0.6572(6) 0.744(2) 0.4140(6)
C19 C 0.7343(14) 0.7941(16) 0.4121(15)
H32 H 0.7791 0.7514 0.4128
C22 C 0.4106(15) 0.6753(18) 0.2333(18)
H38 H 0.3889 0.6927 0.1803
H39 H 0.3681 0.6415 0.2619
O6 O 0.4303(10) 0.7607(19) 0.2805(12)
C23 C 0.3532(18) 0.693(2) 0.312(2)
H40 H 0.3677 0.6393 0.3425
H41 H 0.3191 0.6760 0.2665
H42 H 0.3238 0.7649 0.3466
C12F C 0.460(2) 0.884(2) 0.4929(17)
H13F H 0.4348 0.8273 0.5096
H14F H 0.4967 0.9048 0.5347
H15F H 0.4179 0.9295 0.4844
O1F O 0.5057(11) 0.8695(16) 0.4156(14)
C13F C 0.5423(14) 0.9563(14) 0.3833(10)
H16F H 0.5937 0.9674 0.4115
H17F H 0.5058 1.0068 0.3961
C14F C 0.5579(12) 0.9566(12) 0.2956(10)
H18F H 0.5905 1.0098 0.2805
H19F H 0.5067 0.9585 0.2655
O2F O 0.6021(11) 0.8726(13) 0.2777(8)
C15F C 0.632(2) 0.807(2) 0.2107(18)
H20F H 0.6595 0.7553 0.2353
H21F H 0.5856 0.7849 0.1798
H22F H 0.6690 0.8383 0.1749
C17F C 0.5767(12) 0.8793(15) 0.4743(17)
H27F H 0.5664 0.9155 0.5230
C18F C 0.6520(11) 0.8193(14) 0.4850(12)
H28F H 0.7009 0.8572 0.4879
H29F H 0.6478 0.7843 0.5353
O4F O 0.6572(6) 0.756(2) 0.4140(6)
C19F C 0.7343(14) 0.7059(16) 0.4121(15)
C22F C 0.4106(15) 0.8247(18) 0.2333(18)
H38F H 0.3889 0.8073 0.1803
H39F H 0.3681 0.8585 0.2619
O6F O 0.4303(10) 0.7393(19) 0.2805(12)
C23F C 0.3532(18) 0.807(2) 0.312(2)
H40F H 0.3677 0.8607 0.3425
H41F H 0.3191 0.8240 0.2665
H42F H 0.3238 0.7351 0.3466
H36 H 0.4626 0.5525 0.2299
H37 H 0.4969 0.6196 0.1641
Th1 Th 0.504910(14) 0.2500 0.161753(16)
K1 K 0.75189(10) 0.2500 0.21630(11)
Cl1 Cl 0.58544(12) 0.2500 0.31042(13)
Cl2 Cl 0.62195(10) 0.12131(16) 0.12629(14)
N1 N 0.4112(3) 0.1373(4) 0.2259(4)
C1 C 0.4039(4) 0.1250(6) 0.3099(5)
H1 H 0.4385 0.1498 0.3494
C2 C 0.3368(5) 0.0699(6) 0.3248(7)
H2 H 0.3183 0.0513 0.3760
C3 C 0.3013(5) 0.0468(6) 0.2497(8)
H3 H 0.2550 0.0106 0.2415
C4 C 0.3480(4) 0.0880(5) 0.1908(5)
C5 C 0.3440(4) 0.0796(7) 0.0990(6)
C6 C 0.3947(6) -0.0075(9) 0.0755(9)
H4 H 0.3706 -0.0608 0.1004
H5 H 0.4501 -0.0006 0.0945
H6 H 0.3947 -0.0148 0.0172
C7 C 0.2534(5) 0.0639(9) 0.0702(7)
H7 H 0.2323 0.0089 0.0948
H8 H 0.2521 0.0578 0.0118
H9 H 0.2203 0.1154 0.0863
C8 C 0.3788(4) 0.1631(7) 0.0619(4)
C9 C 0.3265(5) 0.2500 0.0644(6)
H10 H 0.2695 0.2500 0.0671
C10 C 0.4507(4) 0.1681(9) 0.0174(4)
H11 H 0.4746 0.1133 0.0004
C11 C 0.4896(6) 0.2500 -0.0037(6)
H12 H 0.5398 0.2500 -0.0309
K1C K 0.25189(10) 0.2500 0.28370(11)
Cl2F Cl 0.62195(10) 0.37869(16) 0.12629(14)
N1F N 0.4112(3) 0.3627(4) 0.2259(4)
N1C N 0.9112(3) 0.3627(4) 0.2741(4)
N1E N 0.9112(3) 0.1373(4) 0.2741(4)
C1F C 0.4039(4) 0.3750(6) 0.3099(5)
C1C C 0.9039(4) 0.3750(6) 0.1901(5)
C1E C 0.9039(4) 0.1250(6) 0.1901(5)
H1F H 0.4385 0.3502 0.3494
H1C H 0.9385 0.3502 0.1506
H1E H 0.9385 0.1498 0.1506
C2F C 0.3368(5) 0.4301(6) 0.3248(7)
C2C C 0.8368(5) 0.4301(6) 0.1752(7)
C2E C 0.8368(5) 0.0699(6) 0.1752(7)
H2F H 0.3183 0.4487 0.3760
H2C H 0.8183 0.4487 0.1240
H2E H 0.8183 0.0513 0.1240
C3F C 0.3013(5) 0.4532(6) 0.2497(8)
C3C C 0.8013(5) 0.4532(6) 0.2503(8)
C3E C 0.8013(5) 0.0468(6) 0.2503(8)
H3F H 0.2550 0.4894 0.2415
H3C H 0.7550 0.4894 0.2585
H3E H 0.7550 0.0106 0.2585
C4F C 0.3480(4) 0.4120(5) 0.1908(5)
C4C C 0.8480(4) 0.4120(5) 0.3092(5)
C4E C 0.8480(4) 0.0880(5) 0.3092(5)
C5F C 0.3440(4) 0.4204(7) 0.0990(6)
C6F C 0.3947(6) 0.5075(9) 0.0755(9)
H4F H 0.3706 0.5608 0.1004
H5F H 0.4501 0.5006 0.0945
H6F H 0.3947 0.5148 0.0172
C7F C 0.2534(5) 0.4361(9) 0.0702(7)
H7F H 0.2323 0.4911 0.0948
H8F H 0.2521 0.4422 0.0118
H9F H 0.2203 0.3846 0.0863
C8F C 0.3788(4) 0.3369(7) 0.0619(4)
C10F C 0.4507(4) 0.3319(9) 0.0174(4)
H11F H 0.4746 0.3867 0.0004
C16? C 0.4189(15) 0.658(3) 0.455(3)
H23? H 0.3831 0.7095 0.4476
H24? H 0.4128 0.6164 0.4096
H25? H 0.4049 0.6265 0.5047
O3? O 0.5066(12) 0.6907(13) 0.4594(18)
H26? H 0.5831 0.5797 0.4280
H30? H 0.7369 0.8306 0.3633
H31? H 0.7378 0.8335 0.4591
C20? C 0.6212(14) 0.6227(19) 0.1975(15)
H33? H 0.6763 0.6260 0.2180
H34? H 0.6139 0.5662 0.1680
H35? H 0.6112 0.6737 0.1617
O5? O 0.5595(15) 0.626(2) 0.2706(15)
C21? C 0.4815(14) 0.615(2) 0.2213(18)
loop_
_geom_bond_atom_site_label_1
_geom_bond_atom_site_label_2
_geom_bond_site_symmetry_1
_geom_bond_site_symmetry_2
Th1 Cl1 1_555 1_555
K1 Cl1 1_555 1_555
Cl2 Th1 1_555 1_555
N1 Th1 1_555 1_555
C1 N1 1_555 1_555
H1 C1 1_555 1_555
C2 C1 1_555 1_555
H2 C2 1_555 1_555
C3 C2 1_555 1_555
H3 C3 1_555 1_555
C4 N1 1_555 1_555
C5 C4 1_555 1_555
C6 C5 1_555 1_555
H4 C6 1_555 1_555
H5 C6 1_555 1_555
H6 C6 1_555 1_555
C7 C5 1_555 1_555
H7 C7 1_555 1_555
H8 C7 1_555 1_555
H9 C7 1_555 1_555
C8 Th1 1_555 1_555
C9 C8 1_555 1_555
H10 C9 1_555 1_555
C10 Th1 1_555 1_555
H11 C10 1_555 1_555
C11 Th1 1_555 1_555
H12 C11 1_555 1_555
Li1 O1 1_555 1_555
C12 H13 1_555 1_555
H14 C12 1_555 1_555
H15 C12 1_555 1_555
O1 C12 1_555 1_555
C13 O1 1_555 1_555
H16 C13 1_555 1_555
H17 C13 1_555 1_555
C14 C13 1_555 1_555
H18 C14 1_555 1_555
H19 C14 1_555 1_555
O2 Li1 1_555 1_555
C15 O2 1_555 1_555
H20 C15 1_555 1_555
H21 C15 1_555 1_555
H22 C15 1_555 1_555
C17 O1 1_555 1_555
H27 C17 1_555 1_555
C18 C17 1_555 1_555
H28 C18 1_555 1_555
H29 C18 1_555 1_555
O4 Li1 1_555 1_555
C19 O4 1_555 1_555
H32 C19 1_555 1_555
C22 H38 1_555 1_555
H39 C22 1_555 1_555
O6 Li1 1_555 1_555
C23 C22 1_555 1_555
H40 C23 1_555 1_555
H41 C23 1_555 1_555
H42 C23 1_555 1_555
K1C N1 1_555 1_555
Cl2F Th1 1_555 1_555
N1F Th1 1_555 1_555
N1C K1 1_555 1_555
N1E K1 1_555 1_555
C1F K1C 1_555 1_555
C1C K1 1_555 1_555
C1E K1 1_555 1_555
H1F C1F 1_555 1_555
H1C C1C 1_555 1_555
H1E C1E 1_555 1_555
C2F K1C 1_555 1_555
C2C K1 1_555 1_555
C2E K1 1_555 1_555
H2F C2F 1_555 1_555
H2C C2C 1_555 1_555
H2E C2E 1_555 1_555
C3F K1C 1_555 1_555
C3C K1 1_555 1_555
C3E K1 1_555 1_555
H3F C3F 1_555 1_555
H3C C3C 1_555 1_555
H3E C3E 1_555 1_555
C4F K1C 1_555 1_555
C4C K1 1_555 1_555
C4E K1 1_555 1_555
C5F C4F 1_555 1_555
C6F C5F 1_555 1_555
H4F C6F 1_555 1_555
H5F C6F 1_555 1_555
H6F C6F 1_555 1_555
C7F C5F 1_555 1_555
H7F C7F 1_555 1_555
H8F C7F 1_555 1_555
H9F C7F 1_555 1_555
C8F Th1 1_555 1_555
C10F Th1 1_555 1_555
H11F C10F 1_555 1_555
C12F H13F 1_555 1_555
H14F C12F 1_555 1_555
H15F C12F 1_555 1_555
O1F Li1 1_555 1_555
C13F O1F 1_555 1_555
H16F C13F 1_555 1_555
H17F C13F 1_555 1_555
C14F C13F 1_555 1_555
H18F C14F 1_555 1_555
H19F C14F 1_555 1_555
O2F Li1 1_555 1_555
C15F C15 1_555 1_555
H20F C15 1_555 1_555
H21F C15F 1_555 1_555
H22F C15F 1_555 1_555
C17F O1F 1_555 1_555
H27F C17F 1_555 1_555
C18F O4 1_555 1_555
H28F C18F 1_555 1_555
H29F C18F 1_555 1_555
O4F Li1 1_555 1_555
C19F O4 1_555 1_555
C22F O6 1_555 1_555
H38F C22F 1_555 1_555
H39F C22F 1_555 1_555
O6F Li1 1_555 1_555
C23F O6 1_555 1_555
H40F C23F 1_555 1_555
H41F C23F 1_555 1_555
H42F C23 1_555 1_555
K1 Cl2 1_555 1_555
K1 Cl2F 1_555 1_555
C1 K1C 1_555 1_555
C2 K1C 1_555 1_555
C3 C4 1_555 1_555
C3 K1C 1_555 1_555
C4 K1C 1_555 1_555
C5 C8 1_555 1_555
C8 C10 1_555 1_555
C9 C8F 1_555 1_555
C10 C11 1_555 1_555
C11 C10F 1_555 1_555
C14 O2 1_555 1_555
H20 C15F 1_555 1_555
H20 H20F 1_555 1_555
C18 O4 1_555 1_555
C18 O4F 1_555 1_555
O4 O4F 1_555 1_555
C19 O4F 1_555 1_555
C19 C19F 1_555 1_555
H32 C19F 1_555 1_555
C22 O6 1_555 1_555
C22 O6F 1_555 1_555
H39 C23 1_555 1_555
O6 C23 1_555 1_555
O6 O6F 1_555 1_555
C23 O6F 1_555 1_555
C23 C23F 1_555 1_555
H42 C23F 1_555 1_555
H42 H42F 1_555 1_555
K1C N1F 1_555 1_555
N1F C1F 1_555 1_555
N1F C4F 1_555 1_555
N1C C1C 1_555 1_555
N1C C4C 1_555 1_555
N1E C1E 1_555 1_555
N1E C4E 1_555 1_555
C1F C2F 1_555 1_555
C1C C2C 1_555 1_555
C1E C2E 1_555 1_555
C2F C3F 1_555 1_555
C2C C3C 1_555 1_555
C2E C3E 1_555 1_555
C3F C4F 1_555 1_555
C3C C4C 1_555 1_555
C3E C4E 1_555 1_555
C5F C8F 1_555 1_555
C8F C10F 1_555 1_555
C12F O1F 1_555 1_555
C14F O2F 1_555 1_555
O2F C15F 1_555 1_555
C15F H20F 1_555 1_555
C17F C18F 1_555 1_555
C18F O4F 1_555 1_555
O4F C19F 1_555 1_555
C22F O6F 1_555 1_555
C22F C23F 1_555 1_555
H39F C23F 1_555 1_555
O6F C23F 1_555 1_555
C23F H42F 1_555 1_555

#END
