
#######################################################################
#
#                 Cambridge Crystallographic Data Centre
#                                CCDC 
#
#######################################################################
#
# If this CIF has been generated from an entry in the Cambridge 
# Structural Database, then it will include bibliographic, chemical, 
# crystal, experimental, refinement or atomic coordinate data resulting 
# from the CCDC's data processing and validation procedures.
#
#######################################################################

data_MAKCOS
_symmetry_cell_setting           monoclinic
_symmetry_space_group_name_H-M   'P 21/c'
_symmetry_Int_Tables_number      14
_space_group_name_Hall           '-P 2ybc'
loop_
_symmetry_equiv_pos_site_id
_symmetry_equiv_pos_as_xyz
1 x,y,z
2 -x,1/2+y,1/2-z
3 -x,-y,-z
4 x,1/2-y,1/2+z
_cell_length_a                   10.232(2)
_cell_length_b                   13.410(3)
_cell_length_c                   22.890(5)
_cell_angle_alpha                90
_cell_angle_beta                 100.39(3)
_cell_angle_gamma                90
_cell_volume                     3089.26
loop_
_atom_site_label
_atom_site_type_symbol
_atom_site_fract_x
_atom_site_fract_y
_atom_site_fract_z
Cd1 Cd 1.21084(3) 0.20575(2) 0.401194(13)
Cd2 Cd 0.71506(3) 0.12588(2) 0.448084(13)
O1 O 0.8349(3) 0.0389(2) 0.39214(13)
O2 O 0.9997(3) 0.1486(2) 0.39813(14)
O3 O 1.2830(3) 0.0444(2) 0.43442(13)
O4 O 1.1596(3) -0.0755(3) 0.46382(13)
O5 O 0.6525(4) -0.0237(3) 0.08665(14)
O6 O 0.8153(3) -0.1300(2) 0.12423(14)
O7 O 0.5706(3) -0.2456(3) 0.09002(14)
O8 O 0.3994(3) -0.2865(2) 0.13179(14)
S1 S 0.81370(10) 0.05618(8) 0.23799(4)
O9 O 0.7817(3) 0.1366(2) 0.27443(13)
O10 O 0.8389(3) 0.0794(2) 0.17977(13)
C1 C 0.9578(4) -0.0064(3) 0.27655(17)
C2 C 1.0054(4) 0.0058(3) 0.33708(17)
C3 C 1.1267(4) -0.0394(3) 0.36189(18)
C4 C 1.1920(4) -0.0995(3) 0.3268(2)
H1 H 1.2702 -0.1317 0.3438
C5 C 1.1417(5) -0.1122(3) 0.2667(2)
H2 H 1.1851 -0.1535 0.2437
C6 C 1.0274(4) -0.0634(3) 0.24156(19)
H3 H 0.9962 -0.0685 0.2009
C7 C 0.6836(4) -0.0341(3) 0.23144(17)
C8 C 0.6466(4) -0.0938(3) 0.18025(18)
C9 C 0.5456(4) -0.1646(3) 0.18120(19)
C10 C 0.4867(4) -0.1741(4) 0.2311(2)
H4 H 0.4201 -0.2212 0.2313
C11 C 0.5259(5) -0.1147(4) 0.2804(2)
H5 H 0.4861 -0.1224 0.3136
C12 C 0.6228(4) -0.0444(4) 0.2806(2)
H6 H 0.6480 -0.0037 0.3136
C13 C 0.9407(4) 0.0703(3) 0.37847(17)
C14 C 1.1935(4) -0.0220(3) 0.42517(18)
C15 C 0.7097(5) -0.0805(3) 0.12532(19)
C16 C 0.5011(4) -0.2367(3) 0.13006(19)
N1 N 1.2110(4) 0.1633(3) 0.30161(15)
N2 N 1.2179(4) 0.2536(3) -0.00150(15)
C17 C 1.3076(5) 0.1232(3) 0.27758(19)
H7 H 1.3739 0.0875 0.3020
C18 C 1.3146(5) 0.1318(3) 0.2180(2)
H8 H 1.3836 0.1019 0.2030
C19 C 1.2174(4) 0.1857(3) 0.18091(18)
C20 C 1.1136(5) 0.2225(3) 0.2058(2)
H9 H 1.0436 0.2556 0.1821
C21 C 1.1134(5) 0.2103(3) 0.2654(2)
H10 H 1.0426 0.2358 0.2812
C22 C 1.2223(5) 0.2080(3) 0.11791(19)
C23 C 1.2726(5) 0.1422(4) 0.0809(2)
H11 H 1.3096 0.0818 0.0955
C24 C 1.2673(5) 0.1674(4) 0.0218(2)
H12 H 1.2997 0.1220 -0.0027
C25 C 1.1716(5) 0.3179(4) 0.0347(2)
H13 H 1.1372 0.3785 0.0192
C26 C 1.1727(5) 0.2980(3) 0.0938(2)
H14 H 1.1402 0.3450 0.1175
N3 N 0.8186(4) 0.2760(3) 0.46894(18)
C27 C 0.8544(5) 0.3302(4) 0.4255(2)
H15 H 0.8303 0.3081 0.3866
C28 C 0.9250(5) 0.4170(4) 0.4360(2)
H16 H 0.9493 0.4517 0.4045
C29 C 0.9607(4) 0.4535(3) 0.4935(2)
C30 C 0.9197(5) 0.3980(4) 0.5379(2)
H17 H 0.9385 0.4199 0.5770
C31 C 0.8516(5) 0.3109(4) 0.5241(2)
H18 H 0.8270 0.2741 0.5548
O11 O 0.5543(3) 0.0003(2) 0.42906(16)
H19 H 0.4772 0.0244 0.4284
H20 H 0.5649 -0.0473 0.4540
O12 O 0.5567(3) 0.1752(3) 0.51375(15)
H21 H 0.5587 0.2113 0.5444
H22 H 0.5068 0.2039 0.4849
Cd1A Cd 0.78916(3) 0.70575(2) 0.098806(13)
Cd1A_2 Cd 0.78916(3) -0.29425(2) 0.098806(13)
Cd1C Cd 1.21084(3) 0.29425(2) -0.098806(13)
Cd1C_2 Cd 1.21084(3) 0.29425(2) 0.901194(13)
Cd2A Cd 1.28494(3) 0.62588(2) 0.051916(13)
Cd2B Cd 1.28494(3) -0.12588(2) 0.551916(13)
Cd2A_2 Cd 0.28494(3) -0.37412(2) 0.051916(13)
Cd2B_2 Cd 1.28494(3) 0.87412(2) 0.551916(13)
Cd2C Cd 0.71506(3) 0.37412(2) -0.051916(13)
Cd2_2 Cd 1.71506(3) 0.12588(2) 0.448084(13)
O1A O 1.1651(3) 0.5389(2) 0.10786(13)
O2A O 1.0003(3) 0.6486(2) 0.10187(14)
O3A O 0.7170(3) 0.5444(2) 0.06558(13)
O4A O 0.8404(3) 0.4245(3) 0.03618(13)
O4B O 0.8404(3) 0.0755(3) 0.53618(13)
O4C O 1.1596(3) 0.5755(3) -0.03618(13)
O5A O 1.3475(4) 0.4763(3) 0.41335(14)
O6A O 1.1847(3) 0.3700(2) 0.37577(14)
O6_2 O 0.8153(3) 0.8700(2) 0.12423(14)
O7A O 1.4294(3) 0.2544(3) 0.40998(14)
O7_2 O 0.5706(3) 0.7544(3) 0.09002(14)
O8A O 1.6006(3) 0.2135(2) 0.36821(14)
O8A_2 O 0.6006(3) 0.2135(2) 0.36821(14)
O8_2 O 1.3994(3) 0.7135(2) 0.13179(14)
S1A S 1.18630(10) 0.55618(8) 0.26201(4)
O9A O 1.2183(3) 0.6366(2) 0.22557(13)
O10A O 1.1611(3) 0.5794(2) 0.32023(13)
C1A C 1.0422(4) 0.4936(3) 0.22345(17)
C2A C 0.9946(4) 0.5058(3) 0.16292(17)
C3A C 0.8733(4) 0.4606(3) 0.13811(18)
C4A C 0.8080(4) 0.4005(3) 0.1732(2)
H1A H 0.7298 0.3683 0.1562
C5A C 0.8583(5) 0.3878(3) 0.2333(2)
H2A H 0.8149 0.3465 0.2563
C6A C 0.9726(4) 0.4366(3) 0.25844(19)
H3A H 1.0038 0.4315 0.2991
C7A C 1.3164(4) 0.4659(3) 0.26856(17)
C8A C 1.3534(4) 0.4062(3) 0.31975(18)
C9A C 1.4544(4) 0.3354(3) 0.31880(19)
C10A C 1.5133(4) 0.3259(4) 0.2689(2)
H4A H 1.5799 0.2788 0.2687
C11A C 1.4741(5) 0.3853(4) 0.2196(2)
H5A H 1.5139 0.3776 0.1864
C12A C 1.3772(4) 0.4556(4) 0.2194(2)
H6A H 1.3520 0.4963 0.1864
C13A C 1.0593(4) 0.5703(3) 0.12153(17)
C14A C 0.8065(4) 0.4780(3) 0.07483(18)
C15A C 1.2903(5) 0.4195(3) 0.37468(19)
C16A C 1.4989(4) 0.2633(3) 0.36994(19)
N1C N 1.2110(4) 0.3367(3) 0.80161(15)
N1A N 0.7890(4) 0.6633(3) 0.19839(15)
N2C N 1.2179(4) 0.2464(3) 0.49850(15)
N2B N 0.7821(4) 0.7464(3) 0.00150(15)
C17C C 1.3076(5) 0.3768(3) 0.77758(19)
H7C H 1.3739 0.4125 0.8020
C18C C 1.3146(5) 0.3682(3) 0.7180(2)
H8C H 1.3836 0.3981 0.7030
C19C C 1.2174(4) 0.3143(3) 0.68091(18)
C20C C 1.1136(5) 0.2775(3) 0.7058(2)
H9C H 1.0436 0.2444 0.6821
C21C C 1.1134(5) 0.2897(3) 0.7654(2)
H10C H 1.0426 0.2642 0.7812
C22C C 1.2223(5) 0.2920(3) 0.61791(19)
C23C C 1.2726(5) 0.3578(4) 0.5809(2)
H11C H 1.3096 0.4182 0.5955
C24C C 1.2673(5) 0.3326(4) 0.5218(2)
H12C H 1.2997 0.3780 0.4973
C25C C 1.1716(5) 0.1821(4) 0.5347(2)
H13C H 1.1372 0.1215 0.5192
C26C C 1.1727(5) 0.2020(3) 0.5938(2)
H14C H 1.1402 0.1550 0.6175
N3B N 1.1814(4) 0.7240(3) 0.53106(18)
N3A N 1.1814(4) 0.7760(3) 0.03106(18)
C27B C 1.1456(5) 0.6698(4) 0.5745(2)
H15B H 1.1697 0.6919 0.6134
C28B C 1.0750(5) 0.5830(4) 0.5640(2)
H16B H 1.0507 0.5483 0.5955
C29B C 1.0393(4) 0.5465(3) 0.5065(2)
C30B C 1.0803(5) 0.6020(4) 0.4621(2)
H17B H 1.0615 0.5801 0.4230
C31B C 1.1484(5) 0.6891(4) 0.4759(2)
H18B H 1.1730 0.7259 0.4452
O11A O 1.4457(3) 0.5003(2) 0.07094(16)
H19A H 1.5228 0.5244 0.0716
H20A H 1.4351 0.4527 0.0460
O12A O 1.4433(3) 0.6752(3) -0.01375(15)
H21A H 1.4413 0.7113 -0.0444
H22A H 1.4932 0.7039 0.0151
O13 O 0.6040(5) 0.1868(3) 0.1103(2)
H23 H 0.5684 0.1390 0.0888
H24 H 0.6694 0.1632 0.1346
O14 O 0.4032(10) 0.9316(10) 0.0249(6)
H25 H 0.4634 0.9722 0.0405
H26 H 0.4317 0.9007 -0.0027
loop_
_geom_bond_atom_site_label_1
_geom_bond_atom_site_label_2
_geom_bond_site_symmetry_1
_geom_bond_site_symmetry_2
Cd1 O2 1_555 1_555
Cd2 O1 1_555 1_555
O1 C13 1_555 1_555
O2 C13 1_555 1_555
O3 Cd1 1_555 1_555
O4 C14 1_555 1_555
O5 C15 1_555 1_555
O6 C15 1_555 1_555
O7 C16 1_555 1_555
O8 C16 1_555 1_555
S1 O9 1_555 1_555
O10 S1 1_555 1_555
C1 S1 1_555 1_555
C2 C1 1_555 1_555
C3 C2 1_555 1_555
C4 C3 1_555 1_555
H1 C4 1_555 1_555
C5 C4 1_555 1_555
H2 C5 1_555 1_555
C6 C1 1_555 1_555
H3 C6 1_555 1_555
C7 S1 1_555 1_555
C8 C7 1_555 1_555
C9 C8 1_555 1_555
C10 C9 1_555 1_555
H4 C10 1_555 1_555
C11 C10 1_555 1_555
H5 C11 1_555 1_555
C12 C7 1_555 1_555
H6 C12 1_555 1_555
C13 C2 1_555 1_555
C14 O3 1_555 1_555
C15 C8 1_555 1_555
C16 C9 1_555 1_555
N1 Cd1 1_555 1_555
N2 C24 1_555 1_555
C17 N1 1_555 1_555
H7 C17 1_555 1_555
C18 C17 1_555 1_555
H8 C18 1_555 1_555
C19 C18 1_555 1_555
C20 C19 1_555 1_555
H9 C20 1_555 1_555
C21 N1 1_555 1_555
H10 C21 1_555 1_555
C22 C19 1_555 1_555
C23 C22 1_555 1_555
H11 C23 1_555 1_555
C24 C23 1_555 1_555
H12 C24 1_555 1_555
C25 N2 1_555 1_555
H13 C25 1_555 1_555
C26 C22 1_555 1_555
H14 C26 1_555 1_555
N3 Cd2 1_555 1_555
C27 N3 1_555 1_555
H15 C27 1_555 1_555
C28 C27 1_555 1_555
H16 C28 1_555 1_555
C29 C28 1_555 1_555
C30 C29 1_555 1_555
H17 C30 1_555 1_555
C31 N3 1_555 1_555
H18 C31 1_555 1_555
O11 Cd2 1_555 1_555
H19 O11 1_555 1_555
H20 O11 1_555 1_555
O12 Cd2 1_555 1_555
H21 O12 1_555 1_555
H22 O12 1_555 1_555
O13 H23 1_555 1_555
H24 O13 1_555 1_555
O14 H25 1_555 1_555
H26 O14 1_555 1_555
Cd1A O2A 1_555 1_555
Cd1A_2 O6 1_555 1_555
Cd1C N2 1_555 1_555
Cd1C_2 N1C 1_555 1_555
Cd2A O1A 1_555 1_555
Cd2B O4 1_555 1_555
Cd2A_2 O8 1_555 1_555
Cd2B_2 N3B 1_555 1_555
Cd2C O4A 1_555 1_555
Cd2_2 O8A 1_555 1_555
O1A C13A 1_555 1_555
O2A C13A 1_555 1_555
O3A Cd1A 1_555 1_555
O4A C14A 1_555 1_555
O4B Cd2 1_555 1_555
O4C Cd2A 1_555 1_555
O5A C15A 1_555 1_555
O6A Cd1 1_555 1_555
O6_2 Cd1A 1_555 1_555
O7A Cd1 1_555 1_555
O7_2 Cd1A 1_555 1_555
O8A C16A 1_555 1_555
O8A_2 Cd2 1_555 1_555
O8_2 Cd2A 1_555 1_555
S1A O9A 1_555 1_555
O10A S1A 1_555 1_555
C1A S1A 1_555 1_555
C2A C1A 1_555 1_555
C3A C2A 1_555 1_555
C4A C3A 1_555 1_555
H1A C4A 1_555 1_555
C5A C4A 1_555 1_555
H2A C5A 1_555 1_555
C6A C1A 1_555 1_555
H3A C6A 1_555 1_555
C7A S1A 1_555 1_555
C8A C7A 1_555 1_555
C9A C8A 1_555 1_555
C10A C9A 1_555 1_555
H4A C10A 1_555 1_555
C11A C10A 1_555 1_555
H5A C11A 1_555 1_555
C12A C7A 1_555 1_555
H6A C12A 1_555 1_555
C13A C2A 1_555 1_555
C14A O3A 1_555 1_555
C15A O6A 1_555 1_555
C16A O7A 1_555 1_555
N1C C17C 1_555 1_555
N1A Cd1A 1_555 1_555
N2C Cd1 1_555 1_555
N2B Cd1A 1_555 1_555
C17C H7C 1_555 1_555
C18C C17C 1_555 1_555
H8C C18C 1_555 1_555
C19C C18C 1_555 1_555
C20C C19C 1_555 1_555
H9C C20C 1_555 1_555
C21C N1C 1_555 1_555
H10C C21C 1_555 1_555
C22C C19C 1_555 1_555
C23C C22C 1_555 1_555
H11C C23C 1_555 1_555
C24C N2C 1_555 1_555
H12C C24C 1_555 1_555
C25C N2C 1_555 1_555
H13C C25C 1_555 1_555
C26C C22C 1_555 1_555
H14C C26C 1_555 1_555
N3B C27B 1_555 1_555
N3A Cd2A 1_555 1_555
C27B H15B 1_555 1_555
C28B C27B 1_555 1_555
H16B C28B 1_555 1_555
C29B C29 1_555 1_555
C30B C29B 1_555 1_555
H17B C30B 1_555 1_555
C31B N3B 1_555 1_555
H18B C31B 1_555 1_555
O11A Cd2A 1_555 1_555
H19A O11A 1_555 1_555
H20A O11A 1_555 1_555
O12A Cd2A 1_555 1_555
H21A O12A 1_555 1_555
H22A O12A 1_555 1_555
O7 Cd1A_2 1_555 1_555
C3 C14 1_555 1_555
C5 C6 1_555 1_555
C11 C12 1_555 1_555
C20 C21 1_555 1_555
C25 C26 1_555 1_555
C30 C31 1_555 1_555
C3A C14A 1_555 1_555
C5A C6A 1_555 1_555
C8A C15A 1_555 1_555
C9A C16A 1_555 1_555
C11A C12A 1_555 1_555
C20C C21C 1_555 1_555
C23C C24C 1_555 1_555
C25C C26C 1_555 1_555
C28B C29B 1_555 1_555
C30B C31B 1_555 1_555

#END
