
#######################################################################
#
#                 Cambridge Crystallographic Data Centre
#                                CCDC 
#
#######################################################################
#
# If this CIF has been generated from an entry in the Cambridge 
# Structural Database, then it will include bibliographic, chemical, 
# crystal, experimental, refinement or atomic coordinate data resulting 
# from the CCDC's data processing and validation procedures.
#
#######################################################################

data_MAKCIM
_symmetry_cell_setting           monoclinic
_symmetry_space_group_name_H-M   'P 21/c'
_symmetry_Int_Tables_number      14
_space_group_name_Hall           '-P 2ybc'
loop_
_symmetry_equiv_pos_site_id
_symmetry_equiv_pos_as_xyz
1 x,y,z
2 -x,1/2+y,1/2-z
3 -x,-y,-z
4 x,1/2-y,1/2+z
_cell_length_a                   11.098(2)
_cell_length_b                   21.441(4)
_cell_length_c                   11.774(2)
_cell_angle_alpha                90
_cell_angle_beta                 94.43(3)
_cell_angle_gamma                90
_cell_volume                     2793.28
loop_
_atom_site_label
_atom_site_type_symbol
_atom_site_fract_x
_atom_site_fract_y
_atom_site_fract_z
O1 O 0.4326(5) 0.1600(3) 0.2355(7)
H15 H 0.4912 0.1842 0.2544
H16 H 0.4419 0.1469 0.1681
Zn1 Zn 0.64555(5) 0.02075(3) 1.00011(5)
Zn2 Zn 0.96568(6) -0.04430(3) 0.80041(6)
O2 O 0.2201(4) 0.01925(19) 0.6649(4)
O3 O 0.2231(4) 0.1180(2) 0.5542(3)
O4 O 0.4554(3) 0.03426(18) 0.9036(3)
O5 O 0.4230(4) -0.0521(2) 0.8039(4)
O6 O 0.6879(3) -0.02307(19) 0.8578(3)
O7 O 0.8122(3) -0.0206(2) 0.7172(3)
O8 O 0.1932(3) -0.00379(16) 0.9117(3)
O9 O 0.0349(3) 0.04017(17) 0.8176(3)
O10 O 0.0676(3) 0.08360(18) 1.0563(3)
O11 O 0.1776(4) 0.1536(2) 1.1588(4)
S1 S 0.27016(13) 0.07992(7) 0.64782(12)
C1 C 0.4277(5) 0.0701(3) 0.6315(5)
C2 C 0.5030(5) 0.0343(3) 0.7069(4)
C3 C 0.6237(5) 0.0265(3) 0.6808(5)
C4 C 0.6625(6) 0.0513(3) 0.5812(5)
H1 H 0.7419 0.0448 0.5638
C5 C 0.5870(6) 0.0849(4) 0.5083(6)
H2 H 0.6146 0.1012 0.4418
C6 C 0.4678(6) 0.0950(3) 0.5339(6)
H3 H 0.4158 0.1184 0.4850
C7 C 0.2624(5) 0.1258(3) 0.7727(5)
C8 C 0.2022(4) 0.1054(2) 0.8669(5)
C9 C 0.2033(5) 0.1452(2) 0.9612(5)
C10 C 0.2597(5) 0.2034(3) 0.9585(6)
H4 H 0.2596 0.2295 1.0216
C11 C 0.3154(6) 0.2227(3) 0.8640(6)
H5 H 0.3516 0.2618 0.8629
C12 C 0.3170(6) 0.1837(3) 0.7712(6)
H6 H 0.3549 0.1964 0.7073
C13 C 0.4576(4) 0.0025(3) 0.8103(5)
C14 C 0.7133(5) -0.0081(3) 0.7582(5)
C15 C 0.1397(5) 0.0428(3) 0.8668(5)
C16 C 0.1458(5) 0.1271(3) 1.0678(5)
N1 N 0.6960(4) 0.1089(2) 0.9605(4)
N2 N 0.9444(4) 0.3928(2) 0.7887(4)
C17 C 0.8108(5) 0.1156(3) 0.9372(6)
H7 H 0.8609 0.0808 0.9425
C18 C 0.8581(6) 0.1707(3) 0.9061(8)
H8 H 0.9386 0.1728 0.8895
C19 C 0.7865(6) 0.2243(3) 0.8989(7)
C20 C 0.6666(6) 0.2169(3) 0.9223(7)
H9 H 0.6145 0.2509 0.9180
C21 C 0.6248(6) 0.1593(3) 0.9518(7)
H10 H 0.5440 0.1551 0.9663
C22 C 0.8381(5) 0.2848(3) 0.8665(6)
C23 C 0.7726(5) 0.3268(3) 0.7990(6)
H11 H 0.6911 0.3197 0.7786
C24 C 0.8280(5) 0.3795(3) 0.7618(5)
H12 H 0.7823 0.4073 0.7157
C25 C 1.0070(6) 0.3536(4) 0.8585(7)
H13 H 1.0870 0.3628 0.8816
C26 C 0.9562(7) 0.2999(4) 0.8974(8)
H14 H 1.0028 0.2733 0.9455
Zn1B Zn 0.35445(5) -0.02075(3) 0.99989(5)
Zn2_2 Zn -0.03432(6) -0.04430(3) 0.80041(6)
Zn2B Zn 0.03432(6) 0.04430(3) 1.19959(6)
Zn2A Zn 1.03432(6) 0.45570(3) 0.69959(6)
O4B O 0.5446(3) -0.03426(18) 1.0964(3)
O8B O 0.8068(3) 0.00379(16) 1.0883(3)
O9_2 O 1.0349(3) 0.04017(17) 0.8176(3)
O10B O 0.9324(3) -0.08360(18) 0.9437(3)
N2A N 1.0556(4) -0.1072(2) 0.7113(4)
O12 O 0.5067(18) 0.2407(10) 0.6133(19)
H17 H 0.5821 0.2351 0.6278
H18 H 0.4859 0.2219 0.5513
O13 O 0.774(3) 0.2998(12) 0.1343(19)
H19 H 0.8456 0.3143 0.1454
H20 H 0.7419 0.3012 0.1972
loop_
_geom_bond_atom_site_label_1
_geom_bond_atom_site_label_2
_geom_bond_site_symmetry_1
_geom_bond_site_symmetry_2
O1 H15 1_555 1_555
Zn1 O4 1_555 1_555
Zn2 O7 1_555 1_555
O2 S1 1_555 1_555
O3 S1 1_555 1_555
O4 C13 1_555 1_555
O5 C13 1_555 1_555
O6 Zn1 1_555 1_555
O7 C14 1_555 1_555
O8 C15 1_555 1_555
O9 C15 1_555 1_555
O10 C16 1_555 1_555
O11 C16 1_555 1_555
S1 C1 1_555 1_555
C1 C2 1_555 1_555
C2 C3 1_555 1_555
C3 C4 1_555 1_555
C4 H1 1_555 1_555
C5 C4 1_555 1_555
H2 C5 1_555 1_555
C6 C1 1_555 1_555
H3 C6 1_555 1_555
C7 S1 1_555 1_555
C8 C7 1_555 1_555
C9 C8 1_555 1_555
C10 C9 1_555 1_555
H4 C10 1_555 1_555
C11 C10 1_555 1_555
H5 C11 1_555 1_555
C12 C7 1_555 1_555
H6 C12 1_555 1_555
C13 C2 1_555 1_555
C14 O6 1_555 1_555
C15 C8 1_555 1_555
C16 C9 1_555 1_555
N1 Zn1 1_555 1_555
N2 C24 1_555 1_555
C17 N1 1_555 1_555
H7 C17 1_555 1_555
C18 C17 1_555 1_555
H8 C18 1_555 1_555
C19 C18 1_555 1_555
C20 C19 1_555 1_555
H9 C20 1_555 1_555
C21 N1 1_555 1_555
H10 C21 1_555 1_555
C22 C19 1_555 1_555
C23 C22 1_555 1_555
H11 C23 1_555 1_555
C24 C23 1_555 1_555
H12 C24 1_555 1_555
C25 N2 1_555 1_555
H13 C25 1_555 1_555
C26 C22 1_555 1_555
H14 C26 1_555 1_555
H16 O1 1_555 1_555
O12 H17 1_555 1_555
H18 O12 1_555 1_555
O13 H19 1_555 1_555
H20 O13 1_555 1_555
Zn1B O4 1_555 1_555
Zn2_2 O9 1_555 1_555
Zn2B O10 1_555 1_555
Zn2A N2 1_555 1_555
O4B Zn1 1_555 1_555
O8B Zn1 1_555 1_555
O9_2 Zn2 1_555 1_555
O10B Zn2 1_555 1_555
N2A Zn2 1_555 1_555
O8 Zn1B 1_555 1_555
C3 C14 1_555 1_555
C5 C6 1_555 1_555
C11 C12 1_555 1_555
C20 C21 1_555 1_555
C25 C26 1_555 1_555
Zn1B O4B 1_555 1_555

#END
