
#######################################################################
#
#                 Cambridge Crystallographic Data Centre
#                                CCDC 
#
#######################################################################
#
# If this CIF has been generated from an entry in the Cambridge 
# Structural Database, then it will include bibliographic, chemical, 
# crystal, experimental, refinement or atomic coordinate data resulting 
# from the CCDC's data processing and validation procedures.
#
#######################################################################

data_MAKCAE
_symmetry_cell_setting           monoclinic
_symmetry_space_group_name_H-M   'C 2/c'
_symmetry_Int_Tables_number      15
_space_group_name_Hall           '-C 2yn'
loop_
_symmetry_equiv_pos_site_id
_symmetry_equiv_pos_as_xyz
1 x,y,z
2 -x,y,1/2-z
3 1/2+x,1/2+y,z
4 1/2-x,1/2+y,1/2-z
5 -x,-y,-z
6 x,-y,1/2+z
7 1/2-x,1/2-y,-z
8 1/2+x,1/2-y,1/2+z
_cell_length_a                   15.282(5)
_cell_length_b                   11.841(4)
_cell_length_c                   21.799(9)
_cell_angle_alpha                90
_cell_angle_beta                 113.728(13)
_cell_angle_gamma                90
_cell_volume                     3611.17
loop_
_atom_site_label
_atom_site_type_symbol
_atom_site_fract_x
_atom_site_fract_y
_atom_site_fract_z
O1 O 0.6265(4) 0.1258(4) 0.8418(3)
H1 H 0.5950 0.0770 0.8126
H2 H 0.6168 0.1133 0.8769
Cu1 Cu 0.648873(17) 0.72871(2) 1.008165(11)
S1 S 0.5000 0.67801(6) 0.7500
O2 O 0.41599(12) 0.61491(14) 0.70678(7)
O3 O 0.68891(10) 0.75305(13) 0.93288(7)
O4 O 0.67503(11) 0.86845(16) 0.84780(8)
O5 O 0.62703(11) 0.89052(13) 1.01149(7)
O6 O 0.56964(13) 1.05404(14) 0.95923(8)
N1 N 0.61029(12) 0.69061(17) 1.08349(9)
N2 N 0.64507(12) 0.55925(17) 0.99872(9)
C1 C 0.53252(13) 0.81909(17) 0.86070(9)
C2 C 0.49928(14) 0.88556(17) 0.90061(9)
C3 C 0.40082(16) 0.8982(2) 0.88333(11)
H3 H 0.3794 0.9440 0.9091
C4 C 0.33487(16) 0.8420(2) 0.82743(11)
H4 H 0.2699 0.8482 0.8173
C5 C 0.36565(16) 0.7767(2) 0.78665(11)
H5 H 0.3215 0.7403 0.7492
C6 C 0.46426(15) 0.76650(17) 0.80277(10)
C7 C 0.64028(14) 0.81358(17) 0.88039(9)
C8 C 0.57041(14) 0.94993(17) 0.96131(10)
C9 C 0.59820(18) 0.7660(2) 1.12560(13)
H6 H 0.5984 0.8427 1.1164
C10 C 0.5853(2) 0.7319(3) 1.18295(15)
H7 H 0.5770 0.7851 1.2116
C11 C 0.5851(2) 0.6179(3) 1.19615(14)
H8 H 0.5772 0.5935 1.2342
C12 C 0.5967(2) 0.5396(3) 1.15244(14)
H9 H 0.5960 0.4626 1.1606
C13 C 0.60931(15) 0.5785(2) 1.09590(11)
C14 C 0.62508(15) 0.5031(2) 1.04638(12)
C15 C 0.61937(19) 0.3851(2) 1.04618(14)
H10 H 0.6050 0.3480 1.0786
C16 C 0.6353(2) 0.3238(2) 0.99717(16)
H11 H 0.6316 0.2453 0.9964
C17 C 0.6568(2) 0.3816(2) 0.94942(15)
H12 H 0.6681 0.3422 0.9164
C18 C 0.66119(17) 0.4995(2) 0.95171(13)
H13 H 0.6757 0.5379 0.9198
Cu1A Cu 0.351127(17) 0.72871(2) 0.491835(11)
Cu1F Cu 0.851127(17) 0.77129(2) 0.991835(11)
Cu1G Cu 0.148873(17) 0.77129(2) 0.508165(11)
O2A O 0.58401(12) 0.61491(14) 0.79322(7)
O3A O 0.31109(10) 0.75305(13) 0.56712(7)
O3F O 0.81109(10) 0.74695(13) 1.06712(7)
O3G O 0.18891(10) 0.74695(13) 0.43288(7)
O4A O 0.32497(11) 0.86845(16) 0.65220(8)
O5A O 0.37297(11) 0.89052(13) 0.48851(7)
O6A O 0.43036(13) 1.05404(14) 0.54077(8)
N1A N 0.38971(12) 0.69061(17) 0.41651(9)
N2A N 0.35493(12) 0.55925(17) 0.50128(9)
C1A C 0.46748(13) 0.81909(17) 0.63930(9)
C2A C 0.50072(14) 0.88556(17) 0.59939(9)
C3A C 0.59918(16) 0.8982(2) 0.61667(11)
H3A H 0.6206 0.9440 0.5909
C4A C 0.66513(16) 0.8420(2) 0.67257(11)
H4A H 0.7301 0.8482 0.6827
C5A C 0.63435(16) 0.7767(2) 0.71335(11)
H5A H 0.6785 0.7403 0.7508
C6A C 0.53574(15) 0.76650(17) 0.69723(10)
C7A C 0.35972(14) 0.81358(17) 0.61961(9)
C8A C 0.42959(14) 0.94993(17) 0.53869(10)
C9A C 0.40180(18) 0.7660(2) 0.37440(13)
H6A H 0.4016 0.8427 0.3836
C10A C 0.4147(2) 0.7319(3) 0.31705(15)
H7A H 0.4230 0.7851 0.2884
C11A C 0.4149(2) 0.6179(3) 0.30385(14)
H8A H 0.4228 0.5935 0.2658
C12A C 0.4033(2) 0.5396(3) 0.34756(14)
H9A H 0.4040 0.4626 0.3394
C13A C 0.39069(15) 0.5785(2) 0.40410(11)
C14A C 0.37492(15) 0.5031(2) 0.45362(12)
C15A C 0.38063(19) 0.3851(2) 0.45382(14)
H10A H 0.3950 0.3480 0.4214
C16A C 0.3647(2) 0.3238(2) 0.50283(16)
H11A H 0.3684 0.2453 0.5036
C17A C 0.3432(2) 0.3816(2) 0.55058(15)
H12A H 0.3319 0.3422 0.5836
C18A C 0.33881(17) 0.4995(2) 0.54829(13)
H13A H 0.3243 0.5379 0.5802
loop_
_geom_bond_atom_site_label_1
_geom_bond_atom_site_label_2
_geom_bond_site_symmetry_1
_geom_bond_site_symmetry_2
O1 H1 1_555 1_555
H2 O1 1_555 1_555
Cu1 O3 1_555 1_555
S1 O2 1_555 1_555
O3 C7 1_555 1_555
O4 C7 1_555 1_555
O5 Cu1 1_555 1_555
O6 C8 1_555 1_555
N1 Cu1 1_555 1_555
N2 Cu1 1_555 1_555
C1 C2 1_555 1_555
C2 C3 1_555 1_555
C3 H3 1_555 1_555
C4 C3 1_555 1_555
H4 C4 1_555 1_555
C5 C4 1_555 1_555
H5 C5 1_555 1_555
C6 S1 1_555 1_555
C7 C1 1_555 1_555
C8 O5 1_555 1_555
C9 N1 1_555 1_555
H6 C9 1_555 1_555
C10 C9 1_555 1_555
H7 C10 1_555 1_555
C11 C10 1_555 1_555
H8 C11 1_555 1_555
C12 C11 1_555 1_555
H9 C12 1_555 1_555
C13 N1 1_555 1_555
C14 N2 1_555 1_555
C15 C14 1_555 1_555
H10 C15 1_555 1_555
C16 C15 1_555 1_555
H11 C16 1_555 1_555
C17 C16 1_555 1_555
H12 C17 1_555 1_555
C18 N2 1_555 1_555
H13 C18 1_555 1_555
Cu1A O3A 1_555 1_555
Cu1F O3 1_555 1_555
Cu1G O3A 1_555 1_555
O2A S1 1_555 1_555
O3A C7A 1_555 1_555
O3F Cu1 1_555 1_555
O3G Cu1A 1_555 1_555
O4A C7A 1_555 1_555
O5A Cu1A 1_555 1_555
O6A C8A 1_555 1_555
N1A Cu1A 1_555 1_555
N2A Cu1A 1_555 1_555
C1A C2A 1_555 1_555
C2A C3A 1_555 1_555
C3A H3A 1_555 1_555
C4A C3A 1_555 1_555
H4A C4A 1_555 1_555
C5A C4A 1_555 1_555
H5A C5A 1_555 1_555
C6A S1 1_555 1_555
C7A C1A 1_555 1_555
C8A O5A 1_555 1_555
C9A N1A 1_555 1_555
H6A C9A 1_555 1_555
C10A C9A 1_555 1_555
H7A C10A 1_555 1_555
C11A C10A 1_555 1_555
H8A C11A 1_555 1_555
C12A C11A 1_555 1_555
H9A C12A 1_555 1_555
C13A N1A 1_555 1_555
C14A N2A 1_555 1_555
C15A C14A 1_555 1_555
H10A C15A 1_555 1_555
C16A C15A 1_555 1_555
H11A C16A 1_555 1_555
C17A C16A 1_555 1_555
H12A C17A 1_555 1_555
C18A N2A 1_555 1_555
H13A C18A 1_555 1_555
C1 C6 1_555 1_555
C2 C8 1_555 1_555
C5 C6 1_555 1_555
C12 C13 1_555 1_555
C13 C14 1_555 1_555
C17 C18 1_555 1_555
Cu1F O3F 1_555 1_555
Cu1G O3G 1_555 1_555
C1A C6A 1_555 1_555
C2A C8A 1_555 1_555
C5A C6A 1_555 1_555
C12A C13A 1_555 1_555
C13A C14A 1_555 1_555
C17A C18A 1_555 1_555

#END
