
#######################################################################
#
#                 Cambridge Crystallographic Data Centre
#                                CCDC 
#
#######################################################################
#
# If this CIF has been generated from an entry in the Cambridge 
# Structural Database, then it will include bibliographic, chemical, 
# crystal, experimental, refinement or atomic coordinate data resulting 
# from the CCDC's data processing and validation procedures.
#
#######################################################################

data_MAKFEL
_symmetry_cell_setting           monoclinic
_symmetry_space_group_name_H-M   'C 2/c'
_symmetry_Int_Tables_number      15
_space_group_name_Hall           '-C 2yn'
loop_
_symmetry_equiv_pos_site_id
_symmetry_equiv_pos_as_xyz
1 x,y,z
2 -x,y,1/2-z
3 1/2+x,1/2+y,z
4 1/2-x,1/2+y,1/2-z
5 -x,-y,-z
6 x,-y,1/2+z
7 1/2-x,1/2-y,-z
8 1/2+x,1/2-y,1/2+z
_cell_length_a                   18.113(3)
_cell_length_b                   24.451(3)
_cell_length_c                   8.7783(13)
_cell_angle_alpha                90
_cell_angle_beta                 102.996(3)
_cell_angle_gamma                90
_cell_volume                     3788.16
loop_
_atom_site_label
_atom_site_type_symbol
_atom_site_fract_x
_atom_site_fract_y
_atom_site_fract_z
C1 C 0.07673(15) 0.28462(11) 1.1012(3)
H1 H 0.0390 0.3108 1.0971
C2 C 0.12684(17) 0.27552(12) 1.2420(3)
H2 H 0.1232 0.2951 1.3309
C3 C 0.18222(17) 0.23683(13) 1.2478(3)
H3 H 0.2165 0.2294 1.3415
C4 C 0.18666(16) 0.20913(12) 1.1144(3)
H4 H 0.2242 0.1830 1.1167
C5 C 0.13495(13) 0.22030(10) 0.9766(3)
C6 C 0.13663(14) 0.19347(10) 0.8258(3)
C7 C 0.19486(16) 0.15963(11) 0.8062(4)
H5 H 0.2344 0.1512 0.8905
C8 C 0.19367(17) 0.13845(12) 0.6602(4)
H6 H 0.2327 0.1158 0.6449
C9 C 0.13523(17) 0.15082(11) 0.5393(4)
H7 H 0.1337 0.1374 0.4395
C10 C 0.07806(16) 0.18379(11) 0.5673(3)
H8 H 0.0373 0.1913 0.4846
C11 C 0.06714(15) 0.43029(10) 0.5847(3)
H9 H 0.0277 0.4405 0.6380
H10 H 0.1049 0.4591 0.6035
C12 C 0.03266(13) 0.42802(9) 0.4112(3)
C13 C 0.07736(14) 0.42832(11) 0.3027(3)
H11 H 0.1298 0.4290 0.3369
C14 C 0.04521(14) 0.42767(11) 0.1439(3)
H12 H 0.0764 0.4270 0.0731
Co1 Co 0.0000 0.265953(17) 0.7500
H17 H 0.218(3) 0.3837(18) 0.625(5)
H18 H 0.1652(18) 0.4081(13) 0.861(4)
N1 N 0.07966(11) 0.25768(8) 0.9701(2)
N2 N 0.07805(11) 0.20543(8) 0.7064(2)
O1 O 0.17926(10) 0.35639(8) 0.5990(2)
O2 O 0.13994(11) 0.38129(8) 0.8483(2)
O3 O 0.05755(10) 0.32184(7) 0.6476(2)
P1 P 0.11084(3) 0.36850(3) 0.67151(7)
C1A C -0.07673(15) 0.28462(11) 0.3988(3)
H1A H -0.0390 0.3108 0.4029
C2A C -0.12684(17) 0.27552(12) 0.2580(3)
H2A H -0.1232 0.2951 0.1691
C3A C -0.18222(17) 0.23683(13) 0.2522(3)
H3A H -0.2165 0.2294 0.1585
C4A C -0.18666(16) 0.20913(12) 0.3856(3)
H4A H -0.2242 0.1830 0.3833
C5A C -0.13495(13) 0.22030(10) 0.5234(3)
C6A C -0.13663(14) 0.19347(10) 0.6742(3)
C7A C -0.19486(16) 0.15963(11) 0.6938(4)
H5A H -0.2344 0.1512 0.6095
C8A C -0.19367(17) 0.13845(12) 0.8398(4)
H6A H -0.2327 0.1158 0.8551
C9A C -0.13523(17) 0.15082(11) 0.9607(4)
H7A H -0.1337 0.1374 1.0605
C10A C -0.07806(16) 0.18379(11) 0.9327(3)
H8A H -0.0373 0.1913 1.0154
C11A C -0.06714(15) 0.43029(10) -0.0847(3)
H9A H -0.0277 0.4405 -0.1380
H10A H -0.1049 0.4591 -0.1035
C12A C -0.03266(13) 0.42802(9) 0.0888(3)
C13A C -0.07736(14) 0.42832(11) 0.1973(3)
H11A H -0.1298 0.4290 0.1631
C14A C -0.04521(14) 0.42767(11) 0.3561(3)
H12A H -0.0764 0.4270 0.4269
Co1_2 Co 0.0000 0.265953(17) -0.2500
H17A H -0.218(3) 0.3837(18) -0.125(5)
H18A H -0.1652(18) 0.4081(13) -0.361(4)
N1A N -0.07966(11) 0.25768(8) 0.5299(2)
N2A N -0.07805(11) 0.20543(8) 0.7936(2)
O1A O -0.17926(10) 0.35639(8) -0.0990(2)
O2A O -0.13994(11) 0.38129(8) -0.3483(2)
O3A O -0.05755(10) 0.32184(7) -0.1476(2)
O3A_2 O -0.05755(10) 0.32184(7) 0.8524(2)
P1A P -0.11084(3) 0.36850(3) -0.17151(7)
C15 C 0.62576(14) 0.48203(13) 0.5933(3)
H13 H 0.6264 0.5167 0.5397
H14 H 0.6159 0.4536 0.5142
C16 C 0.56096(13) 0.48293(12) 0.6746(3)
C17 C 0.53017(13) 0.53100(12) 0.7131(3)
H15 H 0.5501 0.5642 0.6892
C18 C 0.53010(14) 0.43465(13) 0.7125(3)
H16 H 0.5498 0.4015 0.6877
H19 H 0.749(2) 0.5255(15) 0.900(5)
O4 O 0.77069(9) 0.46243(7) 0.60531(19)
O5 O 0.71691(9) 0.42418(7) 0.8262(2)
O6 O 0.74039(13) 0.52492(8) 0.8059(2)
P2 P 0.71819(3) 0.47069(3) 0.71529(7)
C15A C 0.37424(14) 0.48203(13) 0.9067(3)
H13A H 0.3736 0.5167 0.9603
H14A H 0.3841 0.4536 0.9858
C16A C 0.43904(13) 0.48293(12) 0.8254(3)
C17A C 0.46983(13) 0.53100(12) 0.7869(3)
H15A H 0.4499 0.5642 0.8108
C18A C 0.46990(14) 0.43465(13) 0.7875(3)
H16A H 0.4502 0.4015 0.8123
H19A H 0.251(2) 0.5255(15) 0.600(5)
O4A O 0.22931(9) 0.46243(7) 0.89469(19)
O5A O 0.28309(9) 0.42418(7) 0.6738(2)
O6A O 0.25961(13) 0.52492(8) 0.6941(2)
P2A P 0.28181(3) 0.47069(3) 0.78471(7)
loop_
_geom_bond_atom_site_label_1
_geom_bond_atom_site_label_2
_geom_bond_site_symmetry_1
_geom_bond_site_symmetry_2
C1 H1 1_555 1_555
C2 C1 1_555 1_555
H2 C2 1_555 1_555
C3 C2 1_555 1_555
H3 C3 1_555 1_555
C4 C3 1_555 1_555
H4 C4 1_555 1_555
C5 C4 1_555 1_555
C6 C5 1_555 1_555
C7 C6 1_555 1_555
H5 C7 1_555 1_555
C8 C7 1_555 1_555
H6 C8 1_555 1_555
C9 C8 1_555 1_555
H7 C9 1_555 1_555
C10 C9 1_555 1_555
H8 C10 1_555 1_555
C11 H9 1_555 1_555
H10 C11 1_555 1_555
C12 C11 1_555 1_555
C13 C12 1_555 1_555
H11 C13 1_555 1_555
C14 C13 1_555 1_555
H12 C14 1_555 1_555
C15 H13 1_555 1_555
H14 C15 1_555 1_555
C16 C15 1_555 1_555
C17 C16 1_555 1_555
H15 C17 1_555 1_555
C18 C16 1_555 1_555
H16 C18 1_555 1_555
Co1 N1 1_555 1_555
H17 O1 1_555 1_555
H18 O2 1_555 1_555
H19 O6 1_555 1_555
N1 C1 1_555 1_555
N2 C6 1_555 1_555
O1 P1 1_555 1_555
O2 P1 1_555 1_555
O3 Co1 1_555 1_555
O4 P2 1_555 1_555
O5 P2 1_555 1_555
O6 P2 1_555 1_555
P1 C11 1_555 1_555
P2 C15 1_555 1_555
C1A H1A 1_555 1_555
C2A C1A 1_555 1_555
H2A C2A 1_555 1_555
C3A C2A 1_555 1_555
H3A C3A 1_555 1_555
C4A C3A 1_555 1_555
H4A C4A 1_555 1_555
C5A C4A 1_555 1_555
C6A C5A 1_555 1_555
C7A C6A 1_555 1_555
H5A C7A 1_555 1_555
C8A C7A 1_555 1_555
H6A C8A 1_555 1_555
C9A C8A 1_555 1_555
H7A C9A 1_555 1_555
C10A C9A 1_555 1_555
H8A C10A 1_555 1_555
C11A H9A 1_555 1_555
H10A C11A 1_555 1_555
C12A C14 1_555 1_555
C13A C12A 1_555 1_555
H11A C13A 1_555 1_555
C14A C12 1_555 1_555
H12A C14A 1_555 1_555
C15A H13A 1_555 1_555
H14A C15A 1_555 1_555
C16A C15A 1_555 1_555
C17A C17 1_555 1_555
H15A C17A 1_555 1_555
C18A C18 1_555 1_555
H16A C18A 1_555 1_555
Co1_2 O3A 1_555 1_555
H17A O1A 1_555 1_555
H18A O2A 1_555 1_555
H19A O6A 1_555 1_555
N1A Co1 1_555 1_555
N2A Co1 1_555 1_555
O1A P1A 1_555 1_555
O2A P1A 1_555 1_555
O3A P1A 1_555 1_555
O3A_2 Co1 1_555 1_555
O4A P2A 1_555 1_555
O5A P2A 1_555 1_555
O6A P2A 1_555 1_555
P1A C11A 1_555 1_555
P2A C15A 1_555 1_555
C5 N1 1_555 1_555
C10 N2 1_555 1_555
Co1 N2 1_555 1_555
O3 P1 1_555 1_555
C1A N1A 1_555 1_555
C5A N1A 1_555 1_555
C6A N2A 1_555 1_555
C10A N2A 1_555 1_555
C11A C12A 1_555 1_555
C13A C14A 1_555 1_555
C16A C17A 1_555 1_555
C16A C18A 1_555 1_555

#END
