
#######################################################################
#
#                 Cambridge Crystallographic Data Centre
#                                CCDC 
#
#######################################################################
#
# If this CIF has been generated from an entry in the Cambridge 
# Structural Database, then it will include bibliographic, chemical, 
# crystal, experimental, refinement or atomic coordinate data resulting 
# from the CCDC's data processing and validation procedures.
#
#######################################################################

data_MAKFIP
_symmetry_cell_setting           monoclinic
_symmetry_space_group_name_H-M   'C 2/c'
_symmetry_Int_Tables_number      15
_space_group_name_Hall           '-C 2yn'
loop_
_symmetry_equiv_pos_site_id
_symmetry_equiv_pos_as_xyz
1 x,y,z
2 -x,y,1/2-z
3 1/2+x,1/2+y,z
4 1/2-x,1/2+y,1/2-z
5 -x,-y,-z
6 x,-y,1/2+z
7 1/2-x,1/2-y,-z
8 1/2+x,1/2-y,1/2+z
_cell_length_a                   18.051(4)
_cell_length_b                   24.356(4)
_cell_length_c                   8.7763(16)
_cell_angle_alpha                90
_cell_angle_beta                 103.119(4)
_cell_angle_gamma                90
_cell_volume                     3757.8
loop_
_atom_site_label
_atom_site_type_symbol
_atom_site_fract_x
_atom_site_fract_y
_atom_site_fract_z
C1 C 0.0756(2) 0.28435(17) 0.5955(4)
H1 H 0.0378 0.3106 0.5916
C2 C 0.1266(3) 0.27542(18) 0.7364(5)
H2 H 0.1232 0.2950 0.8255
C3 C 0.1823(2) 0.23699(19) 0.7413(5)
H3 H 0.2174 0.2300 0.8346
C4 C 0.1862(2) 0.20885(18) 0.6082(5)
H4 H 0.2238 0.1826 0.6105
C5 C 0.1337(2) 0.21986(15) 0.4702(4)
C6 C 0.1351(2) 0.19295(15) 0.3197(4)
C7 C 0.1932(2) 0.15922(17) 0.2995(5)
H5 H 0.2329 0.1506 0.3838
C8 C 0.1920(2) 0.13837(17) 0.1527(5)
H6 H 0.2310 0.1157 0.1369
C9 C 0.1332(2) 0.15138(17) 0.0318(5)
H7 H 0.1316 0.1381 -0.0683
C10 C 0.0761(2) 0.18457(17) 0.0602(5)
H8 H 0.0354 0.1927 -0.0226
C11 C 0.0664(2) 0.42986(15) 0.0852(4)
H9 H 0.0267 0.4402 0.1377
H10 H 0.1043 0.4588 0.1040
C12 C 0.0323(2) 0.42717(14) -0.0882(4)
C13 C 0.0778(2) 0.42775(16) -0.1964(4)
H11 H 0.1304 0.4286 -0.1616
C14 C -0.0458(2) 0.42701(16) -0.1451(4)
H12 H -0.0774 0.4264 -0.0749
H17 H 0.215(4) 0.383(3) 0.122(8)
H18 H 0.166(3) 0.409(2) 0.362(7)
N1 N 0.07794(16) 0.25704(11) 0.4642(3)
N2 N 0.07619(16) 0.20564(12) 0.2005(3)
Ni1 Ni 0.0000 0.26373(2) 0.2500
O1 O 0.17908(15) 0.35524(11) 0.1017(3)
O2 O 0.13981(16) 0.38128(12) 0.3506(3)
O3 O 0.05695(15) 0.32104(11) 0.1511(3)
P1 P 0.11019(5) 0.36787(4) 0.17390(10)
C1A C -0.0756(2) 0.28435(17) -0.0955(4)
H1A H -0.0378 0.3106 -0.0916
C2A C -0.1266(3) 0.27542(18) -0.2364(5)
H2A H -0.1232 0.2950 -0.3255
C3A C -0.1823(2) 0.23699(19) -0.2413(5)
H3A H -0.2174 0.2300 -0.3346
C4A C -0.1862(2) 0.20885(18) -0.1082(5)
H4A H -0.2238 0.1826 -0.1105
C5A C -0.1337(2) 0.21986(15) 0.0298(4)
C6A C -0.1351(2) 0.19295(15) 0.1803(4)
C7A C -0.1932(2) 0.15922(17) 0.2005(5)
H5A H -0.2329 0.1506 0.1162
C8A C -0.1920(2) 0.13837(17) 0.3473(5)
H6A H -0.2310 0.1157 0.3631
C9A C -0.1332(2) 0.15138(17) 0.4682(5)
H7A H -0.1316 0.1381 0.5683
C10A C -0.0761(2) 0.18457(17) 0.4398(5)
H8A H -0.0354 0.1927 0.5226
C11A C -0.0664(2) 0.42986(15) -0.5852(4)
H9A H -0.0267 0.4402 -0.6377
H10A H -0.1043 0.4588 -0.6040
C12A C -0.0323(2) 0.42717(14) -0.4118(4)
C13A C -0.0778(2) 0.42775(16) -0.3036(4)
H11A H -0.1304 0.4286 -0.3384
C14A C 0.0458(2) 0.42701(16) -0.3549(4)
H12A H 0.0774 0.4264 -0.4251
H17A H -0.215(4) 0.383(3) -0.622(8)
H18A H -0.166(3) 0.409(2) -0.862(7)
N1A N -0.07794(16) 0.25704(11) 0.0358(3)
N2A N -0.07619(16) 0.20564(12) 0.2995(3)
Ni1_2 Ni 0.0000 0.26373(2) -0.7500
O1A O -0.17908(15) 0.35524(11) -0.6017(3)
O2A O -0.13981(16) 0.38128(12) -0.8506(3)
O3A O -0.05695(15) 0.32104(11) -0.6511(3)
O3A_2 O -0.05695(15) 0.32104(11) 0.3489(3)
P1A P -0.11019(5) 0.36787(4) -0.67390(10)
C15 C 0.6257(2) 0.4829(2) 0.0923(4)
H13 H 0.6265 0.5177 0.0390
H14 H 0.6155 0.4544 0.0129
C16 C 0.56088(19) 0.48394(17) 0.1742(4)
C17 C 0.5302(2) 0.53237(17) 0.2130(4)
H15 H 0.5503 0.5656 0.1893
C18 C 0.5300(2) 0.43552(19) 0.2124(5)
H16 H 0.5496 0.4023 0.1873
O4 O 0.77120(14) 0.46275(11) 0.1045(3)
O5 O 0.71695(14) 0.42431(11) 0.3248(3)
O6 O 0.7415(2) 0.52539(14) 0.3050(4)
P2 P 0.71842(5) 0.47102(4) 0.21452(10)
H19 H 0.743(3) 0.525(2) 0.372(6)
C15A C 0.3743(2) 0.4829(2) 0.4077(4)
H13A H 0.3735 0.5177 0.4610
H14A H 0.3845 0.4544 0.4871
C16A C 0.43912(19) 0.48394(17) 0.3258(4)
C17A C 0.4698(2) 0.53237(17) 0.2870(4)
H15A H 0.4497 0.5656 0.3107
C18A C 0.4700(2) 0.43552(19) 0.2876(5)
H16A H 0.4504 0.4023 0.3127
O4A O 0.22880(14) 0.46275(11) 0.3955(3)
O5A O 0.28305(14) 0.42431(11) 0.1752(3)
O6A O 0.2585(2) 0.52539(14) 0.1950(4)
P2A P 0.28158(5) 0.47102(4) 0.28548(10)
H19A H 0.257(3) 0.525(2) 0.128(6)
loop_
_geom_bond_atom_site_label_1
_geom_bond_atom_site_label_2
_geom_bond_site_symmetry_1
_geom_bond_site_symmetry_2
C1 H1 1_555 1_555
C2 C1 1_555 1_555
H2 C2 1_555 1_555
C3 C2 1_555 1_555
H3 C3 1_555 1_555
C4 C3 1_555 1_555
H4 C4 1_555 1_555
C5 C4 1_555 1_555
C6 C5 1_555 1_555
C7 C6 1_555 1_555
H5 C7 1_555 1_555
C8 C7 1_555 1_555
H6 C8 1_555 1_555
C9 C8 1_555 1_555
H7 C9 1_555 1_555
C10 C9 1_555 1_555
H8 C10 1_555 1_555
C11 H9 1_555 1_555
H10 C11 1_555 1_555
C12 C11 1_555 1_555
C13 C12 1_555 1_555
H11 C13 1_555 1_555
C14 C12 1_555 1_555
H12 C14 1_555 1_555
C15 H13 1_555 1_555
H14 C15 1_555 1_555
C16 C15 1_555 1_555
C17 C16 1_555 1_555
H15 C17 1_555 1_555
C18 C16 1_555 1_555
H16 C18 1_555 1_555
H17 O1 1_555 1_555
H18 O2 1_555 1_555
N1 C1 1_555 1_555
N2 C6 1_555 1_555
Ni1 N1 1_555 1_555
O1 P1 1_555 1_555
O2 P1 1_555 1_555
O3 Ni1 1_555 1_555
O4 P2 1_555 1_555
O5 P2 1_555 1_555
O6 P2 1_555 1_555
P1 C11 1_555 1_555
P2 C15 1_555 1_555
H19 O6 1_555 1_555
C1A H1A 1_555 1_555
C2A C1A 1_555 1_555
H2A C2A 1_555 1_555
C3A C2A 1_555 1_555
H3A C3A 1_555 1_555
C4A C3A 1_555 1_555
H4A C4A 1_555 1_555
C5A C4A 1_555 1_555
C6A C5A 1_555 1_555
C7A C6A 1_555 1_555
H5A C7A 1_555 1_555
C8A C7A 1_555 1_555
H6A C8A 1_555 1_555
C9A C8A 1_555 1_555
H7A C9A 1_555 1_555
C10A C9A 1_555 1_555
H8A C10A 1_555 1_555
C11A H9A 1_555 1_555
H10A C11A 1_555 1_555
C12A C11A 1_555 1_555
C13A C14 1_555 1_555
H11A C13A 1_555 1_555
C14A C13 1_555 1_555
H12A C14A 1_555 1_555
C15A H13A 1_555 1_555
H14A C15A 1_555 1_555
C16A C15A 1_555 1_555
C17A C17 1_555 1_555
H15A C17A 1_555 1_555
C18A C18 1_555 1_555
H16A C18A 1_555 1_555
H17A O1A 1_555 1_555
H18A O2A 1_555 1_555
N1A Ni1 1_555 1_555
N2A Ni1 1_555 1_555
Ni1_2 O3A 1_555 1_555
O1A P1A 1_555 1_555
O2A P1A 1_555 1_555
O3A P1A 1_555 1_555
O3A_2 Ni1 1_555 1_555
O4A P2A 1_555 1_555
O5A P2A 1_555 1_555
O6A P2A 1_555 1_555
P1A C11A 1_555 1_555
P2A C15A 1_555 1_555
H19A O6A 1_555 1_555
C5 N1 1_555 1_555
C10 N2 1_555 1_555
N2 Ni1 1_555 1_555
O3 P1 1_555 1_555
C1A N1A 1_555 1_555
C5A N1A 1_555 1_555
C6A N2A 1_555 1_555
C10A N2A 1_555 1_555
C12A C13A 1_555 1_555
C12A C14A 1_555 1_555
C16A C17A 1_555 1_555
C16A C18A 1_555 1_555

#END
