
#######################################################################
#
#                 Cambridge Crystallographic Data Centre
#                                CCDC 
#
#######################################################################
#
# If this CIF has been generated from an entry in the Cambridge 
# Structural Database, then it will include bibliographic, chemical, 
# crystal, experimental, refinement or atomic coordinate data resulting 
# from the CCDC's data processing and validation procedures.
#
#######################################################################

data_MAKKOY
_symmetry_cell_setting           rhombohedral
_symmetry_space_group_name_H-M   'R -3'
_symmetry_Int_Tables_number      148
_space_group_name_Hall           '-R 3'
loop_
_symmetry_equiv_pos_site_id
_symmetry_equiv_pos_as_xyz
1 x,y,z
2 -y,x-y,z
3 -x+y,-x,z
4 2/3+x,1/3+y,1/3+z
5 2/3-y,1/3+x-y,1/3+z
6 2/3-x+y,1/3-x,1/3+z
7 1/3+x,2/3+y,2/3+z
8 2/3+y,1/3-x+y,1/3-z
9 2/3+x-y,1/3+x,1/3-z
10 -x,-y,-z
11 y,-x+y,-z
12 x-y,x,-z
13 1/3-x,2/3-y,2/3-z
14 1/3+y,2/3-x+y,2/3-z
15 1/3+x-y,2/3+x,2/3-z
16 2/3-x,1/3-y,1/3-z
17 1/3-y,2/3+x-y,2/3+z
18 1/3-x+y,2/3-x,2/3+z
_cell_length_a                   15.539(2)
_cell_length_b                   15.539(2)
_cell_length_c                   21.149(4)
_cell_angle_alpha                90
_cell_angle_beta                 90
_cell_angle_gamma                120.00
_cell_volume                     4422.49
loop_
_atom_site_label
_atom_site_type_symbol
_atom_site_fract_x
_atom_site_fract_y
_atom_site_fract_z
O3 O 0.3333 -0.3333 0.1252(14)
O3G O 0.3334 -0.3333 0.2081(14)
Cu1 Cu 0.5000 0.5000 0.0000
N1 N 0.5342(2) 0.0071(2) 0.09163(14)
N2 N 0.5771(2) 0.0632(2) 0.18876(13)
O1 O 0.1336(2) 0.6128(2) -0.00509(12)
O2 O 0.0626(2) 0.7037(2) -0.0190(2)
C1 C 0.5539(3) 0.0802(3) 0.1311(2)
H1 H 0.5519(3) 0.1371(3) 0.1200(2)
C2 C 0.5722(4) -0.0272(3) 0.1864(2)
H2 H 0.5848(4) -0.0590(3) 0.2194(2)
C3 C 0.5456(4) -0.0610(3) 0.1269(2)
H3 H 0.5363(4) -0.1213(3) 0.1119(2)
C4 C 0.5934(3) 0.1213(3) 0.2469(2)
H4 H 0.6407(3) 0.1143(3) 0.2731(2)
H5 H 0.5312(3) 0.0930(3) 0.2700(2)
C5 C 0.6311(3) 0.2311(2) 0.23695(15)
C6 C 0.5641(2) 0.2659(2) 0.23587(15)
C7 C 0.4529(3) 0.1934(3) 0.2336(2)
H6 H 0.4178(3) 0.2297(3) 0.2331(2)
H7 H 0.4335(3) 0.1512(3) 0.2702(2)
H8 H 0.4371(3) 0.1535(3) 0.1961(2)
C8 C 0.1368(3) 0.6957(3) -0.0154(2)
C9 C 0.2389(4) 0.7834(3) -0.0248(3)
H9 H 0.2874(4) 0.7627(3) -0.0201(3)
H10 H 0.2438(4) 0.8102(3) -0.0663(3)
H11 H 0.2509(4) 0.8333(3) 0.0062(3)
C5B C 0.6000(4) 0.3689(3) 0.23695(15)
C4B C 0.5279(4) 0.4066(3) 0.2469(2)
N2B N 0.4861(3) 0.4229(2) 0.18876(13)
C1B C 0.5263(4) 0.4461(3) 0.1311(2)
N1B N 0.4729(3) 0.4658(2) 0.09163(14)
Cu1A Cu 0.5000 0.0000 0.0000
N1K N 0.5271(3) 0.5342(2) -0.09163(14)
C1K C 0.4737(4) 0.5539(3) -0.1311(2)
N2K N 0.5139(3) 0.5771(2) -0.18876(13)
C2K C 0.5994(5) 0.5722(4) -0.1864(2)
H2K H 0.6438(5) 0.5848(4) -0.2194(2)
C3K C 0.6066(5) 0.5456(4) -0.1269(2)
H3K H 0.6576(5) 0.5363(4) -0.1119(2)
C4K C 0.4721(4) 0.5934(3) -0.2469(2)
H4K H 0.5264(4) 0.6407(3) -0.2731(2)
H5K H 0.4382(4) 0.5312(3) -0.2700(2)
C5K C 0.4000(4) 0.6311(3) -0.23695(15)
C6K C 0.2982(3) 0.5641(2) -0.23587(15)
C5J C 0.2311(2) 0.6000(4) -0.23695(15)
C4J C 0.1213(3) 0.5279(4) -0.2469(2)
N2J N 0.0632(2) 0.4861(3) -0.18876(13)
C1J C 0.0802(3) 0.5263(4) -0.1311(2)
N1J N 0.0071(2) 0.4729(3) -0.09163(14)
Cu1B Cu 0.0000 0.5000 0.0000
N1A N -0.0071(2) 0.5271(3) 0.09163(14)
O1I O -0.1336(2) 0.3872(2) 0.00509(12)
C8I C -0.1368(3) 0.3043(3) 0.0154(2)
O2I O -0.0626(2) 0.2963(2) 0.0190(2)
C9I C -0.2389(4) 0.2166(3) 0.0248(3)
H9I H -0.2874(4) 0.2373(3) 0.0201(3)
H10I H -0.2438(4) 0.1898(3) 0.0663(3)
H11I H -0.2509(4) 0.1667(3) -0.0062(3)
C3J C -0.0610(3) 0.3934(5) -0.1269(2)
C2J C -0.0272(3) 0.4006(5) -0.1864(2)
H2J H -0.0590(3) 0.3562(5) -0.2194(2)
H3J H -0.1213(3) 0.3424(5) -0.1119(2)
H1J H 0.1371(3) 0.5852(4) -0.1200(2)
H4J H 0.1143(3) 0.4736(4) -0.2731(2)
H5J H 0.0930(3) 0.5618(4) -0.2700(2)
C6J C 0.2659(2) 0.7018(3) -0.23587(15)
C5I C 0.3689(3) 0.7689(2) -0.23695(15)
C4I C 0.4066(3) 0.8787(3) -0.2469(2)
N2I N 0.4229(2) 0.9368(2) -0.18876(13)
C1I C 0.4461(3) 0.9198(3) -0.1311(2)
N1I N 0.4658(2) 0.9929(2) -0.09163(14)
Cu1A_2 Cu 0.5000 1.0000 0.0000
N1_2 N 0.5342(2) 1.0071(2) 0.09163(14)
O1B O 0.4792(3) 0.8664(2) -0.00509(12)
C8B C 0.5589(4) 0.8632(3) -0.0154(2)
O2B O 0.6411(3) 0.9374(2) -0.0190(2)
C9B C 0.5445(5) 0.7611(4) -0.0248(3)
H9B H 0.4753(5) 0.7126(4) -0.0201(3)
H10B H 0.5664(5) 0.7562(4) -0.0663(3)
H11B H 0.5824(5) 0.7491(4) 0.0062(3)
O1K O 0.5208(3) 1.1336(2) 0.00509(12)
C8K C 0.4411(4) 1.1368(3) 0.0154(2)
O2K O 0.3589(3) 1.0626(2) 0.0190(2)
C9K C 0.4555(5) 1.2389(4) 0.0248(3)
H9K H 0.5247(5) 1.2874(4) 0.0201(3)
H10K H 0.4336(5) 1.2438(4) 0.0663(3)
H11K H 0.4176(5) 1.2509(4) -0.0062(3)
C3I C 0.4544(4) 1.0610(3) -0.1269(2)
C2I C 0.4278(4) 1.0272(3) -0.1864(2)
H2I H 0.4152(4) 1.0590(3) -0.2194(2)
H3I H 0.4637(4) 1.1213(3) -0.1119(2)
H1I H 0.4481(3) 0.8629(3) -0.1200(2)
H4I H 0.3593(3) 0.8857(3) -0.2731(2)
H5I H 0.4688(3) 0.9070(3) -0.2700(2)
C6I C 0.4359(2) 0.7341(2) -0.23587(15)
C7I C 0.5471(3) 0.8066(3) -0.2336(2)
H6I H 0.5822(3) 0.7703(3) -0.2331(2)
H7I H 0.5665(3) 0.8488(3) -0.2702(2)
H8I H 0.5629(3) 0.8465(3) -0.1961(2)
C7J C 0.1934(3) 0.7405(4) -0.2336(2)
H6J H 0.2297(3) 0.8119(4) -0.2331(2)
H7J H 0.1512(3) 0.7177(4) -0.2702(2)
H8J H 0.1535(3) 0.7164(4) -0.1961(2)
C7K C 0.2595(4) 0.4529(3) -0.2336(2)
H6K H 0.1881(4) 0.4178(3) -0.2331(2)
H7K H 0.2823(4) 0.4335(3) -0.2702(2)
H8K H 0.2836(4) 0.4371(3) -0.1961(2)
H1K H 0.4148(4) 0.5519(3) -0.1200(2)
O1J O 0.6128(2) 0.4792(3) 0.00509(12)
C8J C 0.6957(3) 0.5589(4) 0.0154(2)
O2J O 0.7037(2) 0.6411(3) 0.0190(2)
C9J C 0.7834(3) 0.5445(5) 0.0248(3)
H9J H 0.7627(3) 0.4753(5) 0.0201(3)
H10J H 0.8102(3) 0.5664(5) 0.0663(3)
H11J H 0.8333(3) 0.5824(5) -0.0062(3)
O1A O 0.3872(2) 0.5208(3) -0.00509(12)
C8A C 0.3043(3) 0.4411(4) -0.0154(2)
O2A O 0.2963(2) 0.3589(3) -0.0190(2)
C9A C 0.2166(3) 0.4555(5) -0.0248(3)
H9A H 0.2373(3) 0.5247(5) -0.0201(3)
H10A H 0.1898(3) 0.4336(5) -0.0663(3)
H11A H 0.1667(3) 0.4176(5) 0.0062(3)
C3B C 0.3934(5) 0.4544(4) 0.1269(2)
C2B C 0.4006(5) 0.4278(4) 0.1864(2)
H2B H 0.3562(5) 0.4152(4) 0.2194(2)
H3B H 0.3424(5) 0.4637(4) 0.1119(2)
H1B H 0.5852(4) 0.4481(3) 0.1200(2)
H4B H 0.4736(4) 0.3593(3) 0.2731(2)
H5B H 0.5618(4) 0.4688(3) 0.2700(2)
C6B C 0.7018(3) 0.4359(2) 0.23587(15)
C6A C 0.7341(2) 0.2982(3) 0.23587(15)
C5A C 0.7689(2) 0.4000(4) 0.23695(15)
C7B C 0.7405(4) 0.5471(3) 0.2336(2)
C7A C 0.8066(3) 0.2595(4) 0.2336(2)
C4A C 0.8787(3) 0.4721(4) 0.2469(2)
H6B H 0.8119(4) 0.5822(3) 0.2331(2)
H7B H 0.7177(4) 0.5665(3) 0.2702(2)
H8B H 0.7164(4) 0.5629(3) 0.1961(2)
H6A H 0.7703(3) 0.1881(4) 0.2331(2)
H7A H 0.8488(3) 0.2823(4) 0.2702(2)
H8A H 0.8465(3) 0.2836(4) 0.1961(2)
N2A N 0.9368(2) 0.5139(3) 0.18876(13)
H4A H 0.8857(3) 0.5264(4) 0.2731(2)
H5A H 0.9070(3) 0.4382(4) 0.2700(2)
C1A C 0.9198(3) 0.4737(4) 0.1311(2)
C2A C 1.0272(3) 0.5994(5) 0.1864(2)
N1A_2 N 0.9929(2) 0.5271(3) 0.09163(14)
H1A H 0.8629(3) 0.4148(4) 0.1200(2)
H2A H 1.0590(3) 0.6438(5) 0.2194(2)
C3A C 1.0610(3) 0.6066(5) 0.1269(2)
Cu1B_2 Cu 1.0000 0.5000 0.0000
H3A H 1.1213(3) 0.6576(5) 0.1119(2)
loop_
_geom_bond_atom_site_label_1
_geom_bond_atom_site_label_2
_geom_bond_site_symmetry_1
_geom_bond_site_symmetry_2
Cu1 N1B 1_555 1_555
N1 C1 1_555 1_555
N2 C1 1_555 1_555
O1 C8 1_555 1_555
O2 C8 1_555 1_555
O3 O3G 1_555 1_555
C1 H1 1_555 1_555
C2 N2 1_555 1_555
H2 C2 1_555 1_555
C3 N1 1_555 1_555
H3 C3 1_555 1_555
C4 N2 1_555 1_555
H4 C4 1_555 1_555
H5 C4 1_555 1_555
C5 C4 1_555 1_555
C6 C5 1_555 1_555
C7 C6 1_555 1_555
H6 C7 1_555 1_555
H7 C7 1_555 1_555
H8 C7 1_555 1_555
C8 C9 1_555 1_555
C9 H9 1_555 1_555
H10 C9 1_555 1_555
H11 C9 1_555 1_555
C5B C6 1_555 1_555
C4B C5B 1_555 1_555
N2B C4B 1_555 1_555
C1B N2B 1_555 1_555
N1B C1B 1_555 1_555
Cu1A N1 1_555 1_555
N1K Cu1 1_555 1_555
C1K N1K 1_555 1_555
N2K C1K 1_555 1_555
C2K N2K 1_555 1_555
H2K C2K 1_555 1_555
C3K N1K 1_555 1_555
H3K C3K 1_555 1_555
C4K N2K 1_555 1_555
H4K C4K 1_555 1_555
H5K C4K 1_555 1_555
C5K C4K 1_555 1_555
C6K C5K 1_555 1_555
C5J C6K 1_555 1_555
C4J C5J 1_555 1_555
N2J C4J 1_555 1_555
C1J N2J 1_555 1_555
N1J C1J 1_555 1_555
Cu1B O1 1_555 1_555
N1A Cu1B 1_555 1_555
O1I Cu1B 1_555 1_555
C8I O1I 1_555 1_555
O2I C8I 1_555 1_555
C9I C8I 1_555 1_555
H9I C9I 1_555 1_555
H10I C9I 1_555 1_555
H11I C9I 1_555 1_555
C3J N1J 1_555 1_555
C2J N2J 1_555 1_555
H2J C2J 1_555 1_555
H3J C3J 1_555 1_555
H1J C1J 1_555 1_555
H4J C4J 1_555 1_555
H5J C4J 1_555 1_555
C6J C5J 1_555 1_555
C5I C6J 1_555 1_555
C4I C5I 1_555 1_555
N2I C4I 1_555 1_555
C1I N2I 1_555 1_555
N1I C1I 1_555 1_555
Cu1A_2 N1I 1_555 1_555
N1_2 Cu1A_2 1_555 1_555
O1B Cu1A_2 1_555 1_555
C8B O1B 1_555 1_555
O2B C8B 1_555 1_555
C9B C8B 1_555 1_555
H9B C9B 1_555 1_555
H10B C9B 1_555 1_555
H11B C9B 1_555 1_555
O1K Cu1A_2 1_555 1_555
C8K O1K 1_555 1_555
O2K C8K 1_555 1_555
C9K C8K 1_555 1_555
H9K C9K 1_555 1_555
H10K C9K 1_555 1_555
H11K C9K 1_555 1_555
C3I N1I 1_555 1_555
C2I N2I 1_555 1_555
H2I C2I 1_555 1_555
H3I C3I 1_555 1_555
H1I C1I 1_555 1_555
H4I C4I 1_555 1_555
H5I C4I 1_555 1_555
C6I C5K 1_555 1_555
C7I C6I 1_555 1_555
H6I C7I 1_555 1_555
H7I C7I 1_555 1_555
H8I C7I 1_555 1_555
C7J C6J 1_555 1_555
H6J C7J 1_555 1_555
H7J C7J 1_555 1_555
H8J C7J 1_555 1_555
C7K C6K 1_555 1_555
H6K C7K 1_555 1_555
H7K C7K 1_555 1_555
H8K C7K 1_555 1_555
H1K C1K 1_555 1_555
O1J Cu1 1_555 1_555
C8J O1J 1_555 1_555
O2J C8J 1_555 1_555
C9J C8J 1_555 1_555
H9J C9J 1_555 1_555
H10J C9J 1_555 1_555
H11J C9J 1_555 1_555
O1A Cu1 1_555 1_555
C8A O1A 1_555 1_555
O2A C8A 1_555 1_555
C9A C8A 1_555 1_555
H9A C9A 1_555 1_555
H10A C9A 1_555 1_555
H11A C9A 1_555 1_555
C3B N1B 1_555 1_555
C2B N2B 1_555 1_555
H2B C2B 1_555 1_555
H3B C3B 1_555 1_555
H1B C1B 1_555 1_555
H4B C4B 1_555 1_555
H5B C4B 1_555 1_555
C6B C5B 1_555 1_555
C6A C5 1_555 1_555
C5A C6B 1_555 1_555
C7B C6B 1_555 1_555
C7A C6A 1_555 1_555
C4A C5A 1_555 1_555
H6B C7B 1_555 1_555
H7B C7B 1_555 1_555
H8B C7B 1_555 1_555
H6A C7A 1_555 1_555
H7A C7A 1_555 1_555
H8A C7A 1_555 1_555
N2A C4A 1_555 1_555
H4A C4A 1_555 1_555
H5A C4A 1_555 1_555
C1A N2A 1_555 1_555
C2A N2A 1_555 1_555
N1A_2 C1A 1_555 1_555
H1A C1A 1_555 1_555
H2A C2A 1_555 1_555
C3A C2A 1_555 1_555
Cu1B_2 N1A_2 1_555 1_555
H3A C3A 1_555 1_555
C2 C3 1_555 1_555
C2K C3K 1_555 1_555
N1J Cu1B 1_555 1_555
C3J C2J 1_555 1_555
C5I C6I 1_555 1_555
C3I C2I 1_555 1_555
C3B C2B 1_555 1_555
C6A C5A 1_555 1_555
N1A_2 C3A 1_555 1_555

#END
