
#######################################################################
#
#                 Cambridge Crystallographic Data Centre
#                                CCDC 
#
#######################################################################
#
# If this CIF has been generated from an entry in the Cambridge 
# Structural Database, then it will include bibliographic, chemical, 
# crystal, experimental, refinement or atomic coordinate data resulting 
# from the CCDC's data processing and validation procedures.
#
#######################################################################

data_MAKRIA
_symmetry_cell_setting           triclinic
_symmetry_space_group_name_H-M   'P -1'
_symmetry_Int_Tables_number      2
_space_group_name_Hall           '-P 1'
loop_
_symmetry_equiv_pos_site_id
_symmetry_equiv_pos_as_xyz
1 x,y,z
2 -x,-y,-z
_cell_length_a                   7.4962(2)
_cell_length_b                   9.0364(2)
_cell_length_c                   10.4783(4)
_cell_angle_alpha                72.567(1)
_cell_angle_beta                 72.557(1)
_cell_angle_gamma                68.814(2)
_cell_volume                     616.613
loop_
_atom_site_label
_atom_site_type_symbol
_atom_site_fract_x
_atom_site_fract_y
_atom_site_fract_z
Co1 Co 0.0000 0.0000 0.0000
Co2 Co 1.0000 -0.5000 -0.5000
O1 O 0.3066(2) -0.1142(2) -0.02533(16)
O2 O 0.6996(2) -0.3669(2) -0.46875(16)
N1 N 0.4072(3) -0.1772(2) -0.13358(19)
N2 N 0.6094(3) -0.3092(2) -0.35703(19)
N3 N 0.0138(3) -0.0004(3) -0.1997(2)
N4 N 0.1627(3) -0.1082(3) -0.4094(2)
N5 N 0.0761(3) -0.3129(3) -0.4689(2)
C1 C 0.4064(3) -0.3250(3) -0.1380(3)
C2 C 0.5051(3) -0.3945(3) -0.2484(2)
C3 C 0.4993(5) -0.5527(4) -0.2605(4)
C4 C 0.6126(3) -0.1640(3) -0.3514(3)
C5 C 0.5139(3) -0.0939(3) -0.2408(2)
C6 C 0.5164(5) 0.0664(4) -0.2336(3)
C7 C 0.0769(3) -0.0553(3) -0.2959(2)
C8 C 0.1099(3) -0.2175(3) -0.4363(2)
H1 H 0.684(4) -0.112(3) -0.420(3)
H2 H 0.342(4) -0.381(4) -0.064(3)
H3 H 0.630(5) -0.617(4) -0.280(3)
H4 H 0.444(5) -0.536(4) -0.338(4)
H5 H 0.434(6) -0.594(5) -0.178(4)
H6 H 0.384(5) 0.145(4) -0.225(3)
H7 H 0.600(5) 0.103(4) -0.303(4)
H8 H 0.552(4) 0.063(4) -0.153(4)
N6 N 0.0176(3) -0.3989(3) 0.2910(2)
N7 N -0.0398(3) -0.2405(2) 0.0623(2)
N8 N -0.1805(4) -0.3371(3) -0.0735(3)
C9 C -0.0113(3) -0.3304(3) 0.1839(3)
C10 C -0.1150(3) -0.2967(3) -0.0074(3)
Co2_2 Co 0.0000 -0.5000 -0.5000
Co2_3 Co 0.0000 -0.5000 0.5000
Co2_4 Co -1.0000 0.5000 0.5000
Co2_5 Co 0.0000 0.5000 0.5000
Co2_6 Co 0.0000 0.5000 -0.5000
O1A O -0.3066(2) 0.1142(2) 0.02533(16)
O2A O -0.6996(2) 0.3669(2) 0.46875(16)
O2A_2 O 1.3004(2) -0.6331(2) -0.53125(16)
N1A N -0.4072(3) 0.1772(2) 0.13358(19)
N2A N -0.6094(3) 0.3092(2) 0.35703(19)
N3A N -0.0138(3) 0.0004(3) 0.1997(2)
N4A N -0.1627(3) 0.1082(3) 0.4094(2)
N5A N -0.0761(3) 0.3129(3) 0.4689(2)
N5_2 N 1.0761(3) -0.3129(3) -0.4689(2)
N5A_2 N 0.9239(3) -0.6871(3) -0.5311(2)
C1A C -0.4064(3) 0.3250(3) 0.1380(3)
C2A C -0.5051(3) 0.3945(3) 0.2484(2)
C3A C -0.4993(5) 0.5527(4) 0.2605(4)
C4A C -0.6126(3) 0.1640(3) 0.3514(3)
C5A C -0.5139(3) 0.0939(3) 0.2408(2)
C6A C -0.5164(5) -0.0664(4) 0.2336(3)
C7A C -0.0769(3) 0.0553(3) 0.2959(2)
C8A C -0.1099(3) 0.2175(3) 0.4363(2)
H1A H -0.684(4) 0.112(3) 0.420(3)
H2A H -0.342(4) 0.381(4) 0.064(3)
H3A H -0.630(5) 0.617(4) 0.280(3)
H4A H -0.444(5) 0.536(4) 0.338(4)
H5A H -0.434(6) 0.594(5) 0.178(4)
H6A H -0.384(5) -0.145(4) 0.225(3)
H7A H -0.600(5) -0.103(4) 0.303(4)
H8A H -0.552(4) -0.063(4) 0.153(4)
N6A N -0.0176(3) 0.3989(3) -0.2910(2)
N6_2 N 1.0176(3) -0.3989(3) -0.7090(2)
N6A_2 N 0.9824(3) -0.6011(3) -0.2910(2)
N7A N 0.0398(3) 0.2405(2) -0.0623(2)
N8A N 0.1805(4) 0.3371(3) 0.0735(3)
C9A C 0.0113(3) 0.3304(3) -0.1839(3)
C10A C 0.1150(3) 0.2967(3) 0.0074(3)
loop_
_geom_bond_atom_site_label_1
_geom_bond_atom_site_label_2
_geom_bond_site_symmetry_1
_geom_bond_site_symmetry_2
Co1 O1 1_555 1_555
Co2 O2 1_555 1_555
O1 N1 1_555 1_555
O2 N2 1_555 1_555
N1 C1 1_555 1_555
N2 C2 1_555 1_555
N3 Co1 1_555 1_555
N4 C7 1_555 1_555
N5 C8 1_555 1_555
C1 C2 1_555 1_555
C2 C3 1_555 1_555
C3 H3 1_555 1_555
C4 N2 1_555 1_555
C5 N1 1_555 1_555
C6 C5 1_555 1_555
C7 N3 1_555 1_555
C8 N4 1_555 1_555
H1 C4 1_555 1_555
H2 C1 1_555 1_555
H4 C3 1_555 1_555
H5 C3 1_555 1_555
H6 C6 1_555 1_555
H7 C6 1_555 1_555
H8 C6 1_555 1_555
N6 C9 1_555 1_555
N7 Co1 1_555 1_555
N8 C10 1_555 1_555
C9 N7 1_555 1_555
C10 N7 1_555 1_555
Co2_2 N5 1_555 1_555
Co2_3 N6 1_555 1_555
Co2_4 O2A 1_555 1_555
Co2_5 N5A 1_555 1_555
Co2_6 N6A 1_555 1_555
O1A Co1 1_555 1_555
O2A N2A 1_555 1_555
O2A_2 Co2 1_555 1_555
N1A O1A 1_555 1_555
N2A C2A 1_555 1_555
N3A Co1 1_555 1_555
N4A C7A 1_555 1_555
N5A C8A 1_555 1_555
N5_2 Co2 1_555 1_555
N5A_2 Co2 1_555 1_555
C1A N1A 1_555 1_555
C2A C1A 1_555 1_555
C3A C2A 1_555 1_555
C4A N2A 1_555 1_555
C5A N1A 1_555 1_555
C6A C5A 1_555 1_555
C7A N3A 1_555 1_555
C8A N4A 1_555 1_555
H1A C4A 1_555 1_555
H2A C1A 1_555 1_555
H3A C3A 1_555 1_555
H4A C3A 1_555 1_555
H5A C3A 1_555 1_555
H6A C6A 1_555 1_555
H7A C6A 1_555 1_555
H8A C6A 1_555 1_555
N6A C9A 1_555 1_555
N6_2 Co2 1_555 1_555
N6A_2 Co2 1_555 1_555
N7A Co1 1_555 1_555
N8A C10A 1_555 1_555
C9A N7A 1_555 1_555
C10A N7A 1_555 1_555
C4 C5 1_555 1_555
C4A C5A 1_555 1_555

#END
