
#######################################################################
#
#                 Cambridge Crystallographic Data Centre
#                                CCDC 
#
#######################################################################
#
# If this CIF has been generated from an entry in the Cambridge 
# Structural Database, then it will include bibliographic, chemical, 
# crystal, experimental, refinement or atomic coordinate data resulting 
# from the CCDC's data processing and validation procedures.
#
#######################################################################

data_MAKRUM
_symmetry_cell_setting           monoclinic
_symmetry_space_group_name_H-M   'P 21/c'
_symmetry_Int_Tables_number      14
_space_group_name_Hall           '-P 2ybc'
loop_
_symmetry_equiv_pos_site_id
_symmetry_equiv_pos_as_xyz
1 x,y,z
2 -x,1/2+y,1/2-z
3 -x,-y,-z
4 x,1/2-y,1/2+z
_cell_length_a                   9.4739(3)
_cell_length_b                   11.3876(3)
_cell_length_c                   12.1778(3)
_cell_angle_alpha                90
_cell_angle_beta                 98.9670(10)
_cell_angle_gamma                90
_cell_volume                     1297.74
loop_
_atom_site_label
_atom_site_type_symbol
_atom_site_fract_x
_atom_site_fract_y
_atom_site_fract_z
Co1 Co 0.5000 0.0000 0.5000
O1 O 0.2800(2) 0.0314(2) 0.45926(18)
N1 N 0.5272(3) 0.1604(2) 0.5852(2)
N2 N 0.5748(5) 0.3531(3) 0.6682(3)
N3 N 0.5363(3) 0.4201(2) 0.8515(2)
C9 C 0.5468(3) 0.2475(3) 0.6295(2)
C10 C 0.5517(4) 0.3820(3) 0.7679(3)
H13 H 0.244(5) 0.027(4) 0.3819(17)
H14 H 0.253(5) 0.105(2) 0.485(3)
Co1C Co 0.5000 0.5000 1.0000
Co1C_2 Co 0.5000 -0.5000 0.0000
O1B O 0.7200(2) -0.0314(2) 0.54074(18)
N1B N 0.4728(3) -0.1604(2) 0.4148(2)
N2B N 0.4252(5) -0.3531(3) 0.3318(3)
N3B N 0.4637(3) -0.4201(2) 0.1485(2)
N3C N 0.5363(3) 0.0799(2) 0.3515(2)
N3A N 0.4637(3) -0.0799(2) 0.6485(2)
C9B C 0.4532(3) -0.2475(3) 0.3705(2)
C10B C 0.4483(4) -0.3820(3) 0.2321(3)
H13B H 0.756(5) -0.027(4) 0.6181(17)
H14B H 0.747(5) -0.105(2) 0.515(3)
C1 C 0.9035(4) 0.4928(3) 0.8075(3)
H1 H 0.9800 0.4426 0.8403
H2 H 0.8200 0.4464 0.7829
H3 H 0.8826 0.5489 0.8616
C2 C 1.0926(5) 0.7316(4) 0.4435(4)
H4 H 1.0150 0.7798 0.4092
H5 H 1.1180 0.6766 0.3900
H6 H 1.1735 0.7802 0.4701
C3 C 0.9468(3) 0.5559(3) 0.7109(3)
C4 C 1.0483(4) 0.6667(3) 0.5382(3)
N4 N 1.0802(3) 0.5322(3) 0.6878(2)
O2 O 1.1589(3) 0.4531(3) 0.7455(2)
C5 C 1.1336(3) 0.5891(3) 0.6043(3)
C6 C 1.2841(4) 0.5591(5) 0.5917(4)
H7 H 1.3219 0.5034 0.6479
H8 H 1.3414 0.6289 0.5995
H9 H 1.2854 0.5255 0.5195
N5 N 0.9131(3) 0.6882(2) 0.5591(2)
O3 O 0.8318(3) 0.7589(3) 0.4926(2)
C7 C 0.8617(3) 0.6349(3) 0.6453(3)
C8 C 0.7136(4) 0.6669(4) 0.6625(4)
H10 H 0.6746 0.7234 0.6075
H11 H 0.7164 0.6999 0.7353
H12 H 0.6547 0.5979 0.6556
loop_
_geom_bond_atom_site_label_1
_geom_bond_atom_site_label_2
_geom_bond_site_symmetry_1
_geom_bond_site_symmetry_2
Co1 O1 1_555 1_555
C1 H1 1_555 1_555
H2 C1 1_555 1_555
H3 C1 1_555 1_555
C2 H4 1_555 1_555
H5 C2 1_555 1_555
H6 C2 1_555 1_555
O1 H13 1_555 1_555
C3 C1 1_555 1_555
C4 C2 1_555 1_555
N1 Co1 1_555 1_555
N2 C9 1_555 1_555
N3 C10 1_555 1_555
N4 C3 1_555 1_555
O2 N4 1_555 1_555
C5 C4 1_555 1_555
C6 C5 1_555 1_555
H7 C6 1_555 1_555
H8 C6 1_555 1_555
H9 C6 1_555 1_555
N5 C4 1_555 1_555
O3 N5 1_555 1_555
C7 C3 1_555 1_555
C8 C7 1_555 1_555
H10 C8 1_555 1_555
H11 C8 1_555 1_555
H12 C8 1_555 1_555
C9 N1 1_555 1_555
C10 N2 1_555 1_555
H14 O1 1_555 1_555
Co1C N3 1_555 1_555
Co1C_2 N3B 1_555 1_555
O1B Co1 1_555 1_555
N1B Co1 1_555 1_555
N2B C9B 1_555 1_555
N3B C10B 1_555 1_555
N3C Co1 1_555 1_555
N3A Co1 1_555 1_555
C9B N1B 1_555 1_555
C10B N2B 1_555 1_555
H13B O1B 1_555 1_555
H14B O1B 1_555 1_555
N4 C5 1_555 1_555
N5 C7 1_555 1_555

#END
