
#######################################################################
#
#                 Cambridge Crystallographic Data Centre
#                                CCDC 
#
#######################################################################
#
# If this CIF has been generated from an entry in the Cambridge 
# Structural Database, then it will include bibliographic, chemical, 
# crystal, experimental, refinement or atomic coordinate data resulting 
# from the CCDC's data processing and validation procedures.
#
#######################################################################

data_MAKROG
_symmetry_cell_setting           monoclinic
_symmetry_space_group_name_H-M   'C 2/c'
_symmetry_Int_Tables_number      15
_space_group_name_Hall           '-C 2yn'
loop_
_symmetry_equiv_pos_site_id
_symmetry_equiv_pos_as_xyz
1 x,y,z
2 1/2+x,1/2+y,z
3 -x,y,1/2-z
4 1/2-x,1/2+y,1/2-z
5 -x,-y,-z
6 1/2-x,1/2-y,-z
7 x,-y,1/2+z
8 1/2+x,1/2-y,1/2+z
_cell_length_a                   29.4769(10)
_cell_length_b                   7.3735(2)
_cell_length_c                   17.4631(7)
_cell_angle_alpha                90
_cell_angle_beta                 93.6520(10)
_cell_angle_gamma                90
_cell_volume                     3787.86
loop_
_atom_site_label
_atom_site_type_symbol
_atom_site_fract_x
_atom_site_fract_y
_atom_site_fract_z
Co1 Co -0.016650(16) 0.12129(6) 0.15231(3)
Co2 Co 0.2500 0.2500 0.0000
O1 O 0.0000 0.3270(4) 0.2500
O2 O 0.0000 -0.0683(4) 0.2500
O3 O 0.26935(9) -0.0158(4) 0.03634(15)
N1 N 0.05184(11) 0.1430(4) 0.13784(19)
N2 N 0.12981(12) 0.2501(6) 0.1497(2)
N3 N 0.19341(11) 0.2458(5) 0.0682(2)
N4 N -0.03452(12) 0.3311(5) 0.0802(2)
N5 N -0.05994(12) 0.6232(4) 0.0263(2)
N6 N -0.02822(12) 0.9114(4) 0.0756(2)
N7 N 0.41706(11) 0.5941(4) 0.18513(19)
N8 N 0.33521(12) 0.5396(6) 0.1870(2)
N9 N 0.28901(11) 0.3657(5) 0.0914(2)
C1 C 0.08890(13) 0.1899(5) 0.1382(2)
C2 C 0.16185(13) 0.2409(5) 0.1027(2)
C3 C -0.04463(13) 0.4717(6) 0.0575(2)
C4 C -0.04214(13) 0.7748(5) 0.0540(2)
C5 C 0.37864(14) 0.5634(5) 0.1836(2)
C6 C 0.31227(13) 0.4451(5) 0.1335(2)
H11 H 0.0201 0.4113 0.2369
H12 H 0.0208 -0.1406 0.2379
H13 H 0.2486 -0.0688 0.0665
H14 H 0.2737 -0.0796 -0.0107
Co1E Co 0.516650(16) 0.37871(6) -0.15231(3)
Co1B Co 0.016650(16) 0.12129(6) 0.34769(3)
Co1_2 Co -0.016650(16) 1.12129(6) 0.15231(3)
Co1A Co 0.483350(16) 0.62129(6) 0.15231(3)
Co1D Co 0.016650(16) -0.12129(6) -0.15231(3)
Co1_3 Co -0.016650(16) -0.87871(6) 0.15231(3)
O1G O 0.5000 0.1730(4) -0.2500
O2G O 0.5000 0.5683(4) -0.2500
O3E O 0.23065(9) 0.5158(4) -0.03634(15)
N1E N 0.44816(11) 0.3570(4) -0.13784(19)
N2E N 0.37019(12) 0.2499(6) -0.1497(2)
N3E N 0.30659(11) 0.2542(5) -0.0682(2)
N4_2 N -0.03452(12) -0.6689(5) 0.0802(2)
N4E N 0.53452(12) 0.1689(5) -0.0802(2)
N5_2 N -0.05994(12) -0.3768(4) 0.0263(2)
N6_2 N -0.02822(12) -0.0886(4) 0.0756(2)
N6E N 0.52822(12) 0.5886(4) -0.0756(2)
N7E N 0.08294(11) -0.0941(4) -0.18513(19)
N7A N -0.08294(11) 0.0941(4) 0.18513(19)
N7D N 0.58294(11) 0.4059(4) -0.18513(19)
N8E N 0.16479(12) -0.0396(6) -0.1870(2)
N9E N 0.21099(11) 0.1343(5) -0.0914(2)
C1E C 0.41110(13) 0.3101(5) -0.1382(2)
C2E C 0.33815(13) 0.2591(5) -0.1027(2)
C3_2 C -0.04463(13) -0.5283(6) 0.0575(2)
C4_2 C -0.04214(13) -0.2252(5) 0.0540(2)
C5E C 0.12136(14) -0.0634(5) -0.1836(2)
C6E C 0.18773(13) 0.0549(5) -0.1335(2)
H11B H -0.0201 0.4113 0.2631
H11G H 0.5201 0.0887 -0.2631
H11E H 0.4799 0.0887 -0.2369
H12B H -0.0208 -0.1406 0.2621
H12G H 0.5208 0.6406 -0.2621
H12E H 0.4792 0.6406 -0.2379
H13E H 0.2514 0.5688 -0.0665
H14E H 0.2263 0.5796 0.0107
O4 O 0.44483(9) 0.1412(3) 0.27142(18)
O5 O 0.28884(9) 0.2228(4) 0.40772(16)
N10 N 0.40574(11) 0.1622(4) 0.3038(2)
N11 N 0.32707(10) 0.2048(4) 0.37388(19)
C7 C 0.36612(13) 0.1208(5) 0.2642(2)
C8 C 0.36917(15) 0.0497(6) 0.1851(2)
H1 H 0.4004 0.0484 0.1724
H2 H 0.3519 0.1260 0.1495
H3 H 0.3572 -0.0714 0.1822
C9 C 0.32562(13) 0.1410(5) 0.2999(2)
C10 C 0.28062(14) 0.0915(6) 0.2637(3)
H4 H 0.2576 0.1165 0.2987
H5 H 0.2803 -0.0353 0.2513
H6 H 0.2748 0.1613 0.2177
C11 C 0.36720(14) 0.2496(5) 0.4122(2)
C12 C 0.36609(17) 0.3195(7) 0.4920(3)
H7 H 0.3352 0.3264 0.5059
H8 H 0.3795 0.4381 0.4950
H9 H 0.3829 0.2391 0.5265
C13 C 0.40592(13) 0.2252(5) 0.3763(2)
H10 H 0.4336 0.2526 0.4023
loop_
_geom_bond_atom_site_label_1
_geom_bond_atom_site_label_2
_geom_bond_site_symmetry_1
_geom_bond_site_symmetry_2
Co1 O1 1_555 1_555
Co2 O3 1_555 1_555
O1 H11 1_555 1_555
O2 Co1 1_555 1_555
O3 H13 1_555 1_555
O4 N10 1_555 1_555
O5 N11 1_555 1_555
N1 Co1 1_555 1_555
N2 C1 1_555 1_555
N3 Co2 1_555 1_555
N4 Co1 1_555 1_555
N5 C3 1_555 1_555
N6 C4 1_555 1_555
N7 C5 1_555 1_555
N8 C5 1_555 1_555
N9 Co2 1_555 1_555
N10 C7 1_555 1_555
N11 C9 1_555 1_555
C1 N1 1_555 1_555
C2 N2 1_555 1_555
C3 N4 1_555 1_555
C4 N5 1_555 1_555
C6 N8 1_555 1_555
C7 C8 1_555 1_555
C8 H1 1_555 1_555
H2 C8 1_555 1_555
H3 C8 1_555 1_555
C9 C7 1_555 1_555
C10 C9 1_555 1_555
H4 C10 1_555 1_555
H5 C10 1_555 1_555
H6 C10 1_555 1_555
C11 N11 1_555 1_555
C12 C11 1_555 1_555
H7 C12 1_555 1_555
H8 C12 1_555 1_555
H9 C12 1_555 1_555
C13 N10 1_555 1_555
H10 C13 1_555 1_555
H12 O2 1_555 1_555
H14 O3 1_555 1_555
Co1E O1G 1_555 1_555
Co1B O1 1_555 1_555
Co1_2 N6 1_555 1_555
Co1A N7 1_555 1_555
Co1D N7E 1_555 1_555
Co1_3 N4_2 1_555 1_555
O1G H11G 1_555 1_555
O2G Co1E 1_555 1_555
O3E Co2 1_555 1_555
N1E Co1E 1_555 1_555
N2E C1E 1_555 1_555
N3E Co2 1_555 1_555
N4_2 C3_2 1_555 1_555
N4E Co1E 1_555 1_555
N5_2 C3_2 1_555 1_555
N6_2 Co1 1_555 1_555
N6E Co1E 1_555 1_555
N7E C5E 1_555 1_555
N7A Co1 1_555 1_555
N7D Co1E 1_555 1_555
N8E C5E 1_555 1_555
N9E Co2 1_555 1_555
C1E N1E 1_555 1_555
C2E N2E 1_555 1_555
C4_2 N5_2 1_555 1_555
C6E N8E 1_555 1_555
H11B O1 1_555 1_555
H11E O1G 1_555 1_555
H12B O2 1_555 1_555
H12G O2G 1_555 1_555
H12E O2G 1_555 1_555
H13E O3E 1_555 1_555
H14E O3E 1_555 1_555
O2 Co1B 1_555 1_555
N3 C2 1_555 1_555
N9 C6 1_555 1_555
C11 C13 1_555 1_555
N3E C2E 1_555 1_555
N6_2 C4_2 1_555 1_555
N9E C6E 1_555 1_555

#END
