
#######################################################################
#
#                 Cambridge Crystallographic Data Centre
#                                CCDC 
#
#######################################################################
#
# If this CIF has been generated from an entry in the Cambridge 
# Structural Database, then it will include bibliographic, chemical, 
# crystal, experimental, refinement or atomic coordinate data resulting 
# from the CCDC's data processing and validation procedures.
#
#######################################################################

data_MAKSUN
_symmetry_cell_setting           triclinic
_symmetry_space_group_name_H-M   'P -1'
_symmetry_Int_Tables_number      2
_space_group_name_Hall           '-P 1'
loop_
_symmetry_equiv_pos_site_id
_symmetry_equiv_pos_as_xyz
1 x,y,z
2 -x,-y,-z
_cell_length_a                   7.0256(2)
_cell_length_b                   9.5328(3)
_cell_length_c                   14.3501(3)
_cell_angle_alpha                75.7350(10)
_cell_angle_beta                 83.738(2)
_cell_angle_gamma                71.109(2)
_cell_volume                     880.824
loop_
_atom_site_label
_atom_site_type_symbol
_atom_site_fract_x
_atom_site_fract_y
_atom_site_fract_z
Zn1 Zn 0.84394(5) 0.21953(4) 0.08660(3)
Cl1 Cl 0.07169(12) 0.20539(9) 0.31758(6)
Cl2 Cl 0.47289(13) -0.00047(9) 0.36598(6)
P1 P 0.42341(12) 0.27504(9) 0.20856(6)
P2 P 0.29058(12) 0.00028(9) 0.18883(6)
O1 O 0.7997(4) 0.0317(3) 0.05227(17)
H1 H 0.6922 0.0099 0.0801
H2 H 0.8146 0.0159 -0.0044
O2 O 0.9054(4) 0.4073(3) 0.1006(2)
H3 H 1.0133 0.4024 0.1205
H4 H 0.8201 0.4932 0.1044
O3 O 0.7298(4) 0.3395(3) -0.04197(18)
H5 H 0.6191 0.3315 -0.0586
H6 H 0.7301 0.4322 -0.0612
O4 O 0.6440(3) 0.2023(3) 0.19218(17)
O5 O 0.2985(3) 0.3631(2) 0.12321(16)
O6 O 0.3865(3) 0.3796(3) 0.28226(17)
O7 O 0.1292(3) 0.0962(2) 0.11836(17)
O8 O 0.4952(3) -0.0612(3) 0.14589(17)
O9 O 0.2325(3) -0.1351(3) 0.25818(18)
C1 C 0.3163(5) 0.1199(4) 0.2686(2)
C2 C 0.5295(5) 0.3603(4) 0.3554(2)
H7 H 0.6406 0.2623 0.3577
C3 C 0.6149(6) 0.4907(4) 0.3262(3)
H8 H 0.6866 0.4881 0.2638
H9 H 0.7084 0.4824 0.3746
H10 H 0.5053 0.5869 0.3211
C4 C 0.4140(6) 0.3541(5) 0.4503(3)
H11 H 0.3060 0.4504 0.4482
H12 H 0.5051 0.3373 0.5018
H13 H 0.3557 0.2704 0.4627
C5 C 0.0267(5) -0.1374(4) 0.2940(3)
H14 H -0.0727 -0.0352 0.2704
C6 C 0.0296(6) -0.1733(5) 0.4022(3)
H15 H 0.1277 -0.2733 0.4250
H16 H -0.1044 -0.1745 0.4290
H17 H 0.0675 -0.0956 0.4229
C7 C -0.0202(6) -0.2558(4) 0.2548(3)
H18 H -0.0127 -0.2289 0.1844
H19 H -0.1561 -0.2593 0.2766
H20 H 0.0776 -0.3556 0.2781
Zn1_2 Zn -0.15606(5) 0.21953(4) 0.08660(3)
O7_2 O 1.1292(3) 0.0962(2) 0.11836(17)
O10 O 0.3648(4) 0.3071(3) -0.06517(18)
H21 H 0.3330 0.2782 -0.0062
H22 H 0.3814 0.2368 -0.0968
loop_
_geom_bond_atom_site_label_1
_geom_bond_atom_site_label_2
_geom_bond_site_symmetry_1
_geom_bond_site_symmetry_2
Zn1 O1 1_555 1_555
Cl1 C1 1_555 1_555
Cl2 C1 1_555 1_555
P1 O4 1_555 1_555
P2 O7 1_555 1_555
O1 H1 1_555 1_555
H2 O1 1_555 1_555
O2 Zn1 1_555 1_555
H3 O2 1_555 1_555
H4 O2 1_555 1_555
O3 Zn1 1_555 1_555
H5 O3 1_555 1_555
H6 O3 1_555 1_555
O4 Zn1 1_555 1_555
O5 P1 1_555 1_555
O6 P1 1_555 1_555
O7 Zn1_2 1_555 1_555
O8 P2 1_555 1_555
O9 P2 1_555 1_555
C1 P1 1_555 1_555
C2 O6 1_555 1_555
H7 C2 1_555 1_555
C3 C2 1_555 1_555
H8 C3 1_555 1_555
H9 C3 1_555 1_555
H10 C3 1_555 1_555
C4 C2 1_555 1_555
H11 C4 1_555 1_555
H12 C4 1_555 1_555
H13 C4 1_555 1_555
C5 O9 1_555 1_555
H14 C5 1_555 1_555
C6 C5 1_555 1_555
H15 C6 1_555 1_555
H16 C6 1_555 1_555
H17 C6 1_555 1_555
C7 C5 1_555 1_555
H18 C7 1_555 1_555
H19 C7 1_555 1_555
H20 C7 1_555 1_555
O10 H21 1_555 1_555
H22 O10 1_555 1_555
O7_2 Zn1 1_555 1_555
P2 C1 1_555 1_555

#END
