
#######################################################################
#
#                 Cambridge Crystallographic Data Centre
#                                CCDC 
#
#######################################################################
#
# If this CIF has been generated from an entry in the Cambridge 
# Structural Database, then it will include bibliographic, chemical, 
# crystal, experimental, refinement or atomic coordinate data resulting 
# from the CCDC's data processing and validation procedures.
#
#######################################################################

data_MAKSOI
_symmetry_cell_setting           triclinic
_symmetry_space_group_name_H-M   'P -1'
_symmetry_Int_Tables_number      2
_space_group_name_Hall           '-P 1'
loop_
_symmetry_equiv_pos_site_id
_symmetry_equiv_pos_as_xyz
1 x,y,z
2 -x,-y,-z
_cell_length_a                   9.705(2)
_cell_length_b                   9.778(2)
_cell_length_c                   12.675(3)
_cell_angle_alpha                73.317(2)
_cell_angle_beta                 77.255(3)
_cell_angle_gamma                78.864(3)
_cell_volume                     1112.89
loop_
_atom_site_label
_atom_site_type_symbol
_atom_site_fract_x
_atom_site_fract_y
_atom_site_fract_z
Zn1 Zn 0.40137(4) -0.37589(4) 0.94580(3)
C1 C 0.3045(4) 0.4699(4) 0.1786(3)
C2 C 0.1870(3) 0.4258(4) 0.2750(3)
C3 C 0.0598(4) 0.5176(4) 0.2868(3)
H1 H 0.0485 0.6069 0.2356
C4 C -0.0499(4) 0.4776(4) 0.3736(3)
C5 C -0.0348(4) 0.3456(4) 0.4537(3)
H2 H -0.1085 0.3188 0.5128
C6 C 0.0947(4) 0.2558(4) 0.4414(3)
C7 C 0.2028(4) 0.2939(4) 0.3528(3)
H3 H 0.2871 0.2307 0.3450
C8 C 0.0321(4) 0.0904(4) 0.6211(3)
H4 H -0.0509 0.0546 0.6139
H5 H 0.0003 0.1751 0.6500
C9 C 0.1181(4) -0.0239(4) 0.6980(3)
C10 C 0.2411(4) 0.0047(4) 0.7198(3)
H6 H 0.2716 0.0943 0.6867
C11 C 0.3185(4) -0.0998(4) 0.7908(3)
H7 H 0.4020 -0.0792 0.8038
C12 C 0.1593(4) -0.2564(4) 0.8219(3)
H8 H 0.1300 -0.3461 0.8574
C13 C 0.0769(4) -0.1579(4) 0.7514(3)
H9 H -0.0061 -0.1813 0.7397
C14 C -0.2950(4) 0.5380(4) 0.4540(3)
H10 H -0.2840 0.5367 0.5285
H11 H -0.3114 0.4428 0.4548
C15 C -0.4181(4) 0.6490(4) 0.4183(3)
C16 C -0.4663(5) 0.6564(5) 0.3222(4)
H12 H -0.4229 0.5931 0.2782
C17 C -0.5801(5) 0.7593(6) 0.2918(4)
H13 H -0.6100 0.7641 0.2258
C18 C -0.6004(5) 0.8436(5) 0.4428(5)
H14 H -0.6442 0.9094 0.4844
C19 C -0.4878(4) 0.7431(4) 0.4806(4)
H15 H -0.4604 0.7400 0.5472
C20 C 0.3750(4) -0.6923(4) 0.9746(3)
C21 C 0.2668(4) -0.7854(4) 0.9793(3)
C22 C 0.1431(4) -0.7259(4) 0.9375(3)
H16 H 0.1288 -0.6278 0.9030
C23 C 0.0406(4) -0.8094(4) 0.9459(3)
H17 H -0.0418 -0.7661 0.9167
C24 C 0.0558(3) -0.9564(3) 0.9964(3)
C25 C 0.1810(4) -1.0144(4) 1.0392(4)
H18 H 0.1954 -1.1123 1.0743
C26 C 0.2838(4) -0.9312(4) 1.0311(4)
H19 H 0.3659 -0.9737 1.0608
N1 N 0.2790(3) -0.2292(3) 0.8417(2)
N2 N -0.6492(4) 0.8515(5) 0.3511(4)
O1 O 0.2774(3) 0.5823(3) 0.1031(2)
O2 O 0.4230(2) 0.3914(3) 0.1799(2)
O3 O 0.1239(3) 0.1250(3) 0.5156(2)
O4 O -0.1709(2) 0.5768(3) 0.3754(2)
O5 O 0.3445(3) -0.5595(3) 0.9331(2)
O6 O 0.4870(3) -0.7508(3) 1.0131(2)
Zn1_2 Zn 0.40137(4) -1.37589(4) 1.94580(3)
Zn1_3 Zn 0.40137(4) 0.62411(4) -0.05420(3)
Zn1A Zn 0.59863(4) 0.37589(4) 0.05420(3)
Zn1A_2 Zn 0.59863(4) -0.62411(4) 1.05420(3)
Zn1A_3 Zn -0.40137(4) -1.62411(4) 1.05420(3)
Zn1_4 Zn -0.59863(4) -1.37589(4) 0.94580(3)
C1_2 C 0.3045(4) -0.5301(4) 1.1786(3)
C2_2 C 0.1870(3) -0.5742(4) 1.2750(3)
C3_2 C 0.0598(4) -0.4824(4) 1.2868(3)
H1_2 H 0.0485 -0.3931 1.2356
C4_2 C -0.0499(4) -0.5224(4) 1.3736(3)
C5_2 C -0.0348(4) -0.6544(4) 1.4537(3)
H2_2 H -0.1085 -0.6812 1.5128
C6_2 C 0.0947(4) -0.7442(4) 1.4414(3)
C7_2 C 0.2028(4) -0.7061(4) 1.3528(3)
H3_2 H 0.2871 -0.7693 1.3450
C8_2 C 0.0321(4) -0.9096(4) 1.6211(3)
H4_2 H -0.0509 -0.9454 1.6139
H5_2 H 0.0003 -0.8249 1.6500
C9_2 C 0.1181(4) -1.0239(4) 1.6980(3)
C10_2 C 0.2411(4) -0.9953(4) 1.7198(3)
H6_2 H 0.2716 -0.9057 1.6867
C11_2 C 0.3185(4) -1.0998(4) 1.7908(3)
H7_2 H 0.4020 -1.0792 1.8038
C12_2 C 0.1593(4) -1.2564(4) 1.8219(3)
H8_2 H 0.1300 -1.3461 1.8574
C13_2 C 0.0769(4) -1.1579(4) 1.7514(3)
H9_2 H -0.0061 -1.1813 1.7397
C14_2 C -0.2950(4) -0.4620(4) 1.4540(3)
H10_2 H -0.2840 -0.4633 1.5285
H11_2 H -0.3114 -0.5572 1.4548
C15_2 C -0.4181(4) -0.3510(4) 1.4183(3)
C16_2 C -0.4663(5) -0.3436(5) 1.3222(4)
H12_2 H -0.4229 -0.4069 1.2782
C17_2 C -0.5801(5) -0.2407(6) 1.2918(4)
H13_2 H -0.6100 -0.2359 1.2258
C18_2 C -0.6004(5) -0.1564(5) 1.4428(5)
H14_2 H -0.6442 -0.0906 1.4844
C19_2 C -0.4878(4) -0.2569(4) 1.4806(4)
H15_2 H -0.4604 -0.2600 1.5472
C20A C -0.3750(4) -1.3077(4) 1.0254(3)
C21A C -0.2668(4) -1.2146(4) 1.0207(3)
C22A C -0.1431(4) -1.2741(4) 1.0625(3)
H16A H -0.1288 -1.3722 1.0970
C23A C -0.0406(4) -1.1906(4) 1.0541(3)
H17A H 0.0418 -1.2339 1.0833
C24A C -0.0558(3) -1.0436(3) 1.0036(3)
C25A C -0.1810(4) -0.9856(4) 0.9608(4)
H18A H -0.1954 -0.8877 0.9257
C26A C -0.2838(4) -1.0688(4) 0.9689(4)
H19A H -0.3659 -1.0263 0.9392
N1_2 N 0.2790(3) -1.2292(3) 1.8417(2)
N2_2 N -0.6492(4) -0.1485(5) 1.3511(4)
O1_2 O 0.2774(3) -0.4177(3) 1.1031(2)
O1_3 O 0.2774(3) -1.4177(3) 2.1031(2)
O2_2 O 0.4230(2) -0.6086(3) 1.1799(2)
O2A O 0.5770(2) -0.3914(3) 0.8201(2)
O2A_2 O 0.5770(2) -1.3914(3) 1.8201(2)
O3_2 O 0.1239(3) -0.8750(3) 1.5156(2)
O4_2 O -0.1709(2) -0.4232(3) 1.3754(2)
O5A O -0.3445(3) -1.4405(3) 1.0669(2)
O5_2 O 0.3445(3) -1.5595(3) 1.9331(2)
O6A O -0.4870(3) -1.2492(3) 0.9869(2)
O6A_2 O 0.5130(3) -0.2492(3) 0.9869(2)
O6A_3 O 0.5130(3) -1.2492(3) 1.9869(2)
loop_
_geom_bond_atom_site_label_1
_geom_bond_atom_site_label_2
_geom_bond_site_symmetry_1
_geom_bond_site_symmetry_2
Zn1 N1 1_555 1_555
C1 C2 1_555 1_555
C2 C3 1_555 1_555
C3 H1 1_555 1_555
C4 C3 1_555 1_555
C5 C4 1_555 1_555
H2 C5 1_555 1_555
C6 C5 1_555 1_555
C7 C2 1_555 1_555
H3 C7 1_555 1_555
C8 H4 1_555 1_555
H5 C8 1_555 1_555
C9 C8 1_555 1_555
C10 C9 1_555 1_555
H6 C10 1_555 1_555
C11 C10 1_555 1_555
H7 C11 1_555 1_555
C12 H8 1_555 1_555
C13 C9 1_555 1_555
H9 C13 1_555 1_555
C14 H10 1_555 1_555
H11 C14 1_555 1_555
C15 C14 1_555 1_555
C16 C15 1_555 1_555
H12 C16 1_555 1_555
C17 C16 1_555 1_555
H13 C17 1_555 1_555
C18 H14 1_555 1_555
C19 C15 1_555 1_555
H15 C19 1_555 1_555
C20 C21 1_555 1_555
C21 C22 1_555 1_555
C22 H16 1_555 1_555
C23 C22 1_555 1_555
H17 C23 1_555 1_555
C24 C23 1_555 1_555
C25 C24 1_555 1_555
H18 C25 1_555 1_555
C26 C21 1_555 1_555
H19 C26 1_555 1_555
N1 C11 1_555 1_555
N2 C17 1_555 1_555
O1 C1 1_555 1_555
O2 C1 1_555 1_555
O3 C6 1_555 1_555
O4 C4 1_555 1_555
O5 Zn1 1_555 1_555
O6 C20 1_555 1_555
Zn1_2 N1_2 1_555 1_555
Zn1_3 O1 1_555 1_555
Zn1A O2 1_555 1_555
Zn1A_2 O6 1_555 1_555
Zn1A_3 O5A 1_555 1_555
Zn1_4 O6A 1_555 1_555
C1_2 C2_2 1_555 1_555
C2_2 C3_2 1_555 1_555
C3_2 H1_2 1_555 1_555
C4_2 C3_2 1_555 1_555
C5_2 C4_2 1_555 1_555
H2_2 C5_2 1_555 1_555
C6_2 C5_2 1_555 1_555
C7_2 C2_2 1_555 1_555
H3_2 C7_2 1_555 1_555
C8_2 H4_2 1_555 1_555
H5_2 C8_2 1_555 1_555
C9_2 C8_2 1_555 1_555
C10_2 C9_2 1_555 1_555
H6_2 C10_2 1_555 1_555
C11_2 C10_2 1_555 1_555
H7_2 C11_2 1_555 1_555
C12_2 H8_2 1_555 1_555
C13_2 C9_2 1_555 1_555
H9_2 C13_2 1_555 1_555
C14_2 H10_2 1_555 1_555
H11_2 C14_2 1_555 1_555
C15_2 C14_2 1_555 1_555
C16_2 C15_2 1_555 1_555
H12_2 C16_2 1_555 1_555
C17_2 C16_2 1_555 1_555
H13_2 C17_2 1_555 1_555
C18_2 H14_2 1_555 1_555
C19_2 C15_2 1_555 1_555
H15_2 C19_2 1_555 1_555
C20A C21A 1_555 1_555
C21A C22A 1_555 1_555
C22A H16A 1_555 1_555
C23A C22A 1_555 1_555
H17A C23A 1_555 1_555
C24A C24 1_555 1_555
C25A C24A 1_555 1_555
H18A C25A 1_555 1_555
C26A C21A 1_555 1_555
H19A C26A 1_555 1_555
N1_2 C11_2 1_555 1_555
N2_2 C17_2 1_555 1_555
O1_2 Zn1 1_555 1_555
O1_3 Zn1_2 1_555 1_555
O2_2 Zn1A_2 1_555 1_555
O2A Zn1 1_555 1_555
O2A_2 Zn1_2 1_555 1_555
O3_2 C6_2 1_555 1_555
O4_2 C4_2 1_555 1_555
O5A C20A 1_555 1_555
O5_2 Zn1_2 1_555 1_555
O6A C20A 1_555 1_555
O6A_2 Zn1 1_555 1_555
O6A_3 Zn1_2 1_555 1_555
C6 C7 1_555 1_555
C8 O3 1_555 1_555
C12 C13 1_555 1_555
C12 N1 1_555 1_555
C14 O4 1_555 1_555
C18 C19 1_555 1_555
C18 N2 1_555 1_555
C20 O5 1_555 1_555
C25 C26 1_555 1_555
C1_2 O1_2 1_555 1_555
C1_2 O2_2 1_555 1_555
C6_2 C7_2 1_555 1_555
C8_2 O3_2 1_555 1_555
C12_2 C13_2 1_555 1_555
C12_2 N1_2 1_555 1_555
C14_2 O4_2 1_555 1_555
C18_2 C19_2 1_555 1_555
C18_2 N2_2 1_555 1_555
C23A C24A 1_555 1_555
C25A C26A 1_555 1_555

#END
