
#######################################################################
#
#                 Cambridge Crystallographic Data Centre
#                                CCDC 
#
#######################################################################
#
# If this CIF has been generated from an entry in the Cambridge 
# Structural Database, then it will include bibliographic, chemical, 
# crystal, experimental, refinement or atomic coordinate data resulting 
# from the CCDC's data processing and validation procedures.
#
#######################################################################

data_MAKTUP
_symmetry_cell_setting           monoclinic
_symmetry_space_group_name_H-M   'P 21/n'
_symmetry_Int_Tables_number      14
_space_group_name_Hall           '-P 2yn'
loop_
_symmetry_equiv_pos_site_id
_symmetry_equiv_pos_as_xyz
1 x,y,z
2 1/2-x,1/2+y,1/2-z
3 -x,-y,-z
4 1/2+x,1/2-y,1/2+z
_cell_length_a                   15.9628(9)
_cell_length_b                   18.7238(10)
_cell_length_c                   16.6373(9)
_cell_angle_alpha                90
_cell_angle_beta                 93.6670(10)
_cell_angle_gamma                90
_cell_volume                     4962.45
loop_
_atom_site_label
_atom_site_type_symbol
_atom_site_fract_x
_atom_site_fract_y
_atom_site_fract_z
Cd1 Cd 0.125143(12) 0.117728(12) 0.005545(12)
O1 O 0.29090(15) 0.06341(12) -0.39014(13)
O4 O -0.07365(14) 0.08457(13) -0.61224(13)
O6 O 0.12589(13) -0.00719(13) 0.00700(12)
H3 H 0.1683(15) -0.0304(16) -0.008(2)
H4 H 0.0860(16) -0.0321(16) 0.020(2)
O9 O 0.03080(15) 0.21511(12) -0.06513(14)
O11 O -0.23333(17) 0.39347(11) -0.44351(15)
O12 O -0.28759(14) 0.28577(12) -0.44426(13)
O13 O -0.00926(17) 0.10483(12) -0.04480(15)
N1 N 0.1712(2) 0.11257(13) -0.12777(17)
N3 N 0.17686(17) 0.12919(14) -0.43295(15)
N5 N 0.06032(16) 0.08826(14) -0.55772(15)
N7 N 0.08024(19) 0.10638(14) -0.86135(17)
C12 C 0.1830(2) 0.04971(18) -0.1631(2)
H17 H 0.1802 0.0077 -0.1313
C13 C 0.1769(2) 0.17074(17) -0.17352(19)
H18 H 0.1694 0.2161 -0.1493
C14 C 0.1929(2) 0.16862(16) -0.25408(18)
H19 H 0.1964 0.2115 -0.2842
C15 C 0.1989(2) 0.04232(17) -0.2429(2)
H20 H 0.2063 -0.0037 -0.2653
C16 C 0.2268(2) 0.09607(16) -0.37575(19)
C17 C 0.2038(2) 0.10285(17) -0.29015(19)
C18 C 0.0880(2) 0.14622(16) -0.42721(17)
H21 H 0.0763 0.1947 -0.4489
H22 H 0.0741 0.1456 -0.3701
C19 C 0.2018(2) 0.12899(18) -0.51572(19)
H23 H 0.2621 0.1171 -0.5167
H24 H 0.1928 0.1769 -0.5399
C20 C 0.0343(2) 0.09176(18) -0.47470(18)
H25 H 0.0407 0.0442 -0.4490
H26 H -0.0256 0.1057 -0.4750
C22 C 0.0367(2) 0.04965(17) -0.83803(19)
H28 H 0.0215 0.0138 -0.8767
C23 C 0.0127(2) 0.04085(17) -0.75998(18)
H29 H -0.0179 -0.0003 -0.7460
C24 C 0.0335(2) 0.09208(17) -0.70308(18)
C25 C 0.1000(2) 0.15575(17) -0.80539(19)
H30 H 0.1309 0.1964 -0.8207
C26 C 0.0782(2) 0.15122(17) -0.72689(19)
H31 H 0.0935 0.1880 -0.6895
C32 C 0.0017(2) 0.08740(16) -0.62009(18)
C33 C 0.14969(19) 0.07413(17) -0.56367(17)
H36 H 0.1634 0.0759 -0.6208
H37 H 0.1633 0.0257 -0.5428
C34 C -0.1494(2) 0.36730(17) -0.26244(19)
H38 H -0.1601 0.4094 -0.2932
C35 C -0.1275(2) 0.31072(18) -0.13393(18)
H39 H -0.1231 0.3141 -0.0768
C39 C -0.1056(2) 0.17743(18) -0.12173(19)
H44 H -0.1143 0.1364 -0.1589
H45 H -0.1502 0.1753 -0.0832
C40 C -0.1436(2) 0.37115(18) -0.1798(2)
H46 H -0.1508 0.4158 -0.1540
C42 C -0.13991(18) 0.30286(16) -0.30125(17)
C43 C -0.11780(19) 0.24521(16) -0.17057(18)
C45 C -0.12358(17) 0.24208(15) -0.25431(17)
H49 H -0.1162 0.1975 -0.2801
C47 C -0.1443(2) 0.29824(17) -0.39285(18)
H50 H -0.0974 0.3259 -0.4135
H51 H -0.1379 0.2478 -0.4092
C50 C -0.0214(2) 0.16715(17) -0.07444(17)
C52 C -0.2268(2) 0.32703(17) -0.42979(17)
Cd1C Cd -0.374857(12) 0.382272(12) -0.494455(12)
Cd1_2 Cd 0.125143(12) 0.117728(12) -0.994455(12)
O11C O 0.26667(17) 0.10653(11) 0.05649(15)
O12C O 0.21241(14) 0.21423(12) 0.05574(13)
N7_2 N 0.08024(19) 0.10638(14) 0.13865(17)
Cd2 Cd 0.625085(14) 0.111003(11) 0.985655(15)
O2 O 0.84961(14) 0.10490(11) 0.61493(13)
O3 O 0.50719(14) 0.02549(12) 0.38645(13)
O5 O 0.60798(15) -0.01320(12) 0.96966(15)
H1 H 0.5755(18) -0.0349(17) 0.9980(19)
H2 H 0.6529(14) -0.0363(16) 0.965(2)
O7 O 0.22672(15) 0.29221(12) 0.57218(15)
O8 O 0.54993(14) 0.21527(12) 0.94119(13)
O10 O 0.48016(17) 0.11465(11) 0.94733(15)
O14 O 0.25707(15) 0.40237(13) 0.53641(14)
N2 N 0.71922(16) 0.08699(13) 0.55553(14)
N4 N 0.67791(18) 0.10345(13) 0.85511(16)
N6 N 0.59691(17) 0.11329(12) 0.43015(16)
N8 N 0.59308(18) 0.09893(14) 0.12201(16)
C1 C 0.72979(19) 0.05128(15) 0.83508(18)
H5 H 0.7460 0.0165 0.8747
C2 C 0.76119(19) 0.04524(15) 0.75970(17)
H6 H 0.7983 0.0074 0.7484
C3 C 0.6565(2) 0.15192(17) 0.79848(19)
H7 H 0.6205 0.1900 0.8118
C4 C 0.6843(2) 0.14937(17) 0.72131(18)
H8 H 0.6667 0.1845 0.6827
C5 C 0.73786(19) 0.09508(16) 0.70111(17)
C6 C 0.7740(2) 0.09505(15) 0.61940(18)
C7 C 0.7454(2) 0.09889(17) 0.47343(18)
H9 H 0.7512 0.0525 0.4458
H10 H 0.8006 0.1232 0.4758
C8 C 0.6801(2) 0.14472(15) 0.42664(17)
H11 H 0.6802 0.1934 0.4498
H12 H 0.6945 0.1485 0.3698
C9 C 0.63448(18) 0.05787(16) 0.55924(18)
H13 H 0.6200 0.0547 0.6161
H14 H 0.6323 0.0092 0.5361
C10 C 0.5717(2) 0.10544(16) 0.51267(19)
H15 H 0.5150 0.0840 0.5122
H16 H 0.5698 0.1529 0.5388
C11 C 0.55957(19) 0.07078(16) 0.37275(17)
C21 C 0.6013(2) 0.02655(16) 0.24029(18)
H27 H 0.6115 -0.0190 0.2642
C27 C 0.5654(2) 0.14919(17) 0.24981(18)
H32 H 0.5509 0.1898 0.2802
C28 C 0.4378(2) 0.16076(16) 0.76092(18)
H33 H 0.4583 0.1201 0.7902
C29 C 0.57933(19) 0.08399(16) 0.28664(17)
C30 C 0.5731(2) 0.15417(16) 0.16778(18)
H34 H 0.5636 0.1992 0.1426
C31 C 0.6080(2) 0.03633(17) 0.15884(19)
H35 H 0.6240 -0.0032 0.1275
C36 C 0.37842(19) 0.27804(16) 0.75822(18)
H40 H 0.3576 0.3181 0.7858
C37 C 0.3549(2) 0.34655(16) 0.6284(2)
H41 H 0.3504 0.3858 0.6678
H42 H 0.4008 0.3592 0.5937
C38 C 0.4113(2) 0.22111(17) 0.63445(19)
H43 H 0.4132 0.2218 0.5775
C41 C 0.40678(19) 0.21826(16) 0.80184(18)
C44 C 0.4054(2) 0.21711(17) 0.89370(17)
H47 H 0.3547 0.1916 0.9094
H48 H 0.4029 0.2667 0.9142
C46 C 0.38034(19) 0.27974(16) 0.67442(18)
C48 C 0.2732(2) 0.34420(16) 0.57554(18)
C49 C 0.4830(2) 0.18037(17) 0.93102(16)
C51 C 0.4395(2) 0.16172(17) 0.67785(18)
H52 H 0.4601 0.1215 0.6505
Cd2C Cd 0.125085(14) 0.388997(11) 0.485655(15)
Cd2_2 Cd 0.625085(14) 0.111003(11) -0.014345(15)
O14C O 0.75707(15) 0.09763(13) 1.03641(14)
N8_2 N 0.59308(18) 0.09893(14) 1.12201(16)
loop_
_geom_bond_atom_site_label_1
_geom_bond_atom_site_label_2
_geom_bond_site_symmetry_1
_geom_bond_site_symmetry_2
Cd1 O6 1_555 1_555
Cd2 O5 1_555 1_555
O1 C16 1_555 1_555
O2 C6 1_555 1_555
O3 C11 1_555 1_555
O4 C32 1_555 1_555
O5 H1 1_555 1_555
H2 O5 1_555 1_555
O6 H3 1_555 1_555
H4 O6 1_555 1_555
O7 C48 1_555 1_555
O8 Cd2 1_555 1_555
O9 Cd1 1_555 1_555
O10 Cd2 1_555 1_555
O11 C52 1_555 1_555
O12 C52 1_555 1_555
O13 Cd1 1_555 1_555
O14 C48 1_555 1_555
N1 Cd1 1_555 1_555
N2 C6 1_555 1_555
N3 C16 1_555 1_555
N4 Cd2 1_555 1_555
N5 C20 1_555 1_555
N6 C8 1_555 1_555
N7 C22 1_555 1_555
N8 C30 1_555 1_555
C1 N4 1_555 1_555
H5 C1 1_555 1_555
C2 C1 1_555 1_555
H6 C2 1_555 1_555
C3 N4 1_555 1_555
H7 C3 1_555 1_555
C4 C3 1_555 1_555
H8 C4 1_555 1_555
C5 C2 1_555 1_555
C6 C5 1_555 1_555
C7 N2 1_555 1_555
H9 C7 1_555 1_555
H10 C7 1_555 1_555
C8 C7 1_555 1_555
H11 C8 1_555 1_555
H12 C8 1_555 1_555
C9 N2 1_555 1_555
H13 C9 1_555 1_555
H14 C9 1_555 1_555
C10 N6 1_555 1_555
H15 C10 1_555 1_555
H16 C10 1_555 1_555
C11 N6 1_555 1_555
C12 N1 1_555 1_555
H17 C12 1_555 1_555
C13 N1 1_555 1_555
H18 C13 1_555 1_555
C14 C13 1_555 1_555
H19 C14 1_555 1_555
C15 C12 1_555 1_555
H20 C15 1_555 1_555
C16 C17 1_555 1_555
C17 C14 1_555 1_555
C18 N3 1_555 1_555
H21 C18 1_555 1_555
H22 C18 1_555 1_555
C19 N3 1_555 1_555
H23 C19 1_555 1_555
H24 C19 1_555 1_555
C20 C18 1_555 1_555
H25 C20 1_555 1_555
H26 C20 1_555 1_555
C21 H27 1_555 1_555
C22 H28 1_555 1_555
C23 C22 1_555 1_555
H29 C23 1_555 1_555
C24 C23 1_555 1_555
C25 N7 1_555 1_555
H30 C25 1_555 1_555
C26 C24 1_555 1_555
H31 C26 1_555 1_555
C27 H32 1_555 1_555
C28 H33 1_555 1_555
C29 C11 1_555 1_555
C30 C27 1_555 1_555
H34 C30 1_555 1_555
C31 N8 1_555 1_555
H35 C31 1_555 1_555
C32 N5 1_555 1_555
C33 N5 1_555 1_555
H36 C33 1_555 1_555
H37 C33 1_555 1_555
C34 H38 1_555 1_555
C35 H39 1_555 1_555
C36 H40 1_555 1_555
C37 H41 1_555 1_555
H42 C37 1_555 1_555
C38 H43 1_555 1_555
C39 H44 1_555 1_555
H45 C39 1_555 1_555
C40 C34 1_555 1_555
H46 C40 1_555 1_555
C41 C28 1_555 1_555
C42 C34 1_555 1_555
C43 C35 1_555 1_555
C44 C41 1_555 1_555
H47 C44 1_555 1_555
H48 C44 1_555 1_555
C45 C42 1_555 1_555
H49 C45 1_555 1_555
C46 C36 1_555 1_555
C47 C42 1_555 1_555
H50 C47 1_555 1_555
H51 C47 1_555 1_555
C48 C37 1_555 1_555
C49 O8 1_555 1_555
C50 O9 1_555 1_555
C51 C28 1_555 1_555
H52 C51 1_555 1_555
C52 C47 1_555 1_555
Cd1C O11 1_555 1_555
Cd1_2 N7 1_555 1_555
Cd2C O14 1_555 1_555
Cd2_2 N8 1_555 1_555
O11C Cd1 1_555 1_555
O12C Cd1 1_555 1_555
O14C Cd2 1_555 1_555
N7_2 Cd1 1_555 1_555
N8_2 Cd2 1_555 1_555
O10 C49 1_555 1_555
O12 Cd1C 1_555 1_555
O13 C50 1_555 1_555
C4 C5 1_555 1_555
C9 C10 1_555 1_555
C15 C17 1_555 1_555
C19 C33 1_555 1_555
C21 C29 1_555 1_555
C21 C31 1_555 1_555
C24 C32 1_555 1_555
C25 C26 1_555 1_555
C27 C29 1_555 1_555
C35 C40 1_555 1_555
C36 C41 1_555 1_555
C37 C46 1_555 1_555
C38 C46 1_555 1_555
C38 C51 1_555 1_555
C39 C43 1_555 1_555
C39 C50 1_555 1_555
C43 C45 1_555 1_555
C44 C49 1_555 1_555

#END
