
#######################################################################
#
#                 Cambridge Crystallographic Data Centre
#                                CCDC 
#
#######################################################################
#
# If this CIF has been generated from an entry in the Cambridge 
# Structural Database, then it will include bibliographic, chemical, 
# crystal, experimental, refinement or atomic coordinate data resulting 
# from the CCDC's data processing and validation procedures.
#
#######################################################################

data_MAKWIG
_symmetry_cell_setting           orthorhombic
_symmetry_space_group_name_H-M   'P 21 21 21'
_symmetry_Int_Tables_number      19
_space_group_name_Hall           'P 2ac 2ab'
loop_
_symmetry_equiv_pos_site_id
_symmetry_equiv_pos_as_xyz
1 x,y,z
2 1/2-x,-y,1/2+z
3 -x,1/2+y,1/2-z
4 1/2+x,1/2-y,-z
_cell_length_a                   9.7048(4)
_cell_length_b                   13.1460(3)
_cell_length_c                   17.5916(6)
_cell_angle_alpha                90
_cell_angle_beta                 90
_cell_angle_gamma                90
_cell_volume                     2244.32
loop_
_atom_site_label
_atom_site_type_symbol
_atom_site_fract_x
_atom_site_fract_y
_atom_site_fract_z
Eu1 Eu 0.86020(4) 0.02116(2) 0.121497(12)
Eu2 Eu 0.64186(4) -0.02258(2) -0.115903(12)
Cl1 Cl 1.01057(10) 0.10331(8) 0.25221(9)
Cl2 Cl 0.68156(11) -0.02736(8) 0.25275(8)
Cl3 Cl 0.91289(16) -0.02821(13) -0.04055(7)
Cl4 Cl 0.58737(16) 0.02746(13) 0.04680(7)
N1 N 1.0545(7) 0.1599(4) 0.0702(3)
N2 N 0.8096(7) 0.2288(4) 0.1228(3)
N3 N 0.9058(6) 0.3954(4) 0.1339(3)
N4 N 1.1601(8) 0.3175(4) 0.0995(3)
N5 N 1.0965(6) -0.1051(4) 0.1376(3)
N6 N 0.8437(8) -0.1833(4) 0.1053(3)
N7 N 0.9535(7) -0.3379(4) 0.0658(3)
N8 N 1.1934(7) -0.2719(4) 0.1225(3)
C1 C 1.0515(10) 0.2549(6) 0.0963(4)
C2 C 0.9164(9) 0.2948(5) 0.1194(3)
C3 C 0.6876(8) 0.2665(5) 0.1390(4)
H1 H 0.6126 0.2225 0.1410
C4 C 0.6662(8) 0.3678(5) 0.1532(3)
H2 H 0.5785 0.3929 0.1634
C5 C 0.7801(7) 0.4317(5) 0.1519(3)
H3 H 0.7696 0.5003 0.1635
C6 C 1.2805(8) 0.2784(6) 0.0785(4)
H4 H 1.3587 0.3189 0.0829
C7 C 1.2953(8) 0.1823(5) 0.0508(3)
H5 H 1.3806 0.1569 0.0360
C8 C 1.1762(7) 0.1245(5) 0.0457(3)
H6 H 1.1808 0.0596 0.0249
C9 C 1.0904(8) -0.2039(5) 0.1210(3)
C10 C 0.9526(9) -0.2448(5) 0.0961(4)
C11 C 0.7210(8) -0.2212(6) 0.0840(4)
H7 H 0.6420 -0.1821 0.0906
C12 C 0.7098(9) -0.3193(5) 0.0518(3)
H8 H 0.6252 -0.3464 0.0373
C13 C 0.8316(8) -0.3729(5) 0.0429(3)
H9 H 0.8281 -0.4364 0.0197
C14 C 1.3197(8) -0.2336(5) 0.1413(4)
H10 H 1.3953 -0.2771 0.1421
C15 C 1.3388(9) -0.1310(5) 0.1593(3)
H11 H 1.4251 -0.1051 0.1716
C16 C 1.2230(7) -0.0702(5) 0.1579(3)
H12 H 1.2319 -0.0022 0.1716
Eu2A Eu 0.85814(4) 0.02258(2) 0.384097(12)
Eu2C Eu 1.14186(4) -0.47742(2) 0.115903(12)
Eu2C_2 Eu 1.14186(4) 0.52258(2) 0.115903(12)
Cl1A Cl 0.48943(10) -0.10331(8) -0.24779(9)
Cl2A Cl 0.81844(11) 0.02736(8) -0.24725(8)
N3C N 0.4058(6) 0.1046(4) -0.1339(3)
N4C N 0.6601(8) 0.1825(4) -0.0995(3)
N7C N 0.4535(7) -0.1621(4) -0.0658(3)
N8C N 0.6934(7) -0.2281(4) -0.1225(3)
O1 O 0.4232(6) 0.1082(4) 0.3006(3)
H13 H 0.4934 0.0679 0.2870
C17 C 0.3876(6) 0.1663(5) 0.2400(5)
H14 H 0.2892 0.1734 0.2382
H15 H 0.4193 0.1344 0.1941
H16 H 0.4291 0.2323 0.2447
loop_
_geom_bond_atom_site_label_1
_geom_bond_atom_site_label_2
_geom_bond_site_symmetry_1
_geom_bond_site_symmetry_2
Eu1 Cl1 1_555 1_555
Eu2 Cl3 1_555 1_555
Cl1 Eu2A 1_555 1_555
Cl2 Eu1 1_555 1_555
Cl3 Eu1 1_555 1_555
Cl4 Eu1 1_555 1_555
N1 Eu1 1_555 1_555
N2 Eu1 1_555 1_555
N3 C2 1_555 1_555
N4 C1 1_555 1_555
N5 Eu1 1_555 1_555
N6 Eu1 1_555 1_555
N7 C10 1_555 1_555
N8 C9 1_555 1_555
C1 N1 1_555 1_555
C2 N2 1_555 1_555
C3 N2 1_555 1_555
H1 C3 1_555 1_555
C4 C3 1_555 1_555
H2 C4 1_555 1_555
C5 N3 1_555 1_555
H3 C5 1_555 1_555
C6 N4 1_555 1_555
H4 C6 1_555 1_555
C7 C6 1_555 1_555
H5 C7 1_555 1_555
C8 N1 1_555 1_555
H6 C8 1_555 1_555
C9 N5 1_555 1_555
C10 N6 1_555 1_555
C11 N6 1_555 1_555
H7 C11 1_555 1_555
C12 C11 1_555 1_555
H8 C12 1_555 1_555
C13 N7 1_555 1_555
H9 C13 1_555 1_555
C14 N8 1_555 1_555
H10 C14 1_555 1_555
C15 C14 1_555 1_555
H11 C15 1_555 1_555
C16 N5 1_555 1_555
H12 C16 1_555 1_555
O1 H13 1_555 1_555
C17 O1 1_555 1_555
H14 C17 1_555 1_555
H15 C17 1_555 1_555
H16 C17 1_555 1_555
Eu2A Cl2 1_555 1_555
Eu2C N7 1_555 1_555
Eu2C_2 N3 1_555 1_555
Cl1A Eu2 1_555 1_555
Cl2A Eu2 1_555 1_555
N3C Eu2 1_555 1_555
N4C Eu2 1_555 1_555
N7C Eu2 1_555 1_555
N8C Eu2 1_555 1_555
Eu2 Cl4 1_555 1_555
N4 Eu2C_2 1_555 1_555
N8 Eu2C 1_555 1_555
C1 C2 1_555 1_555
C4 C5 1_555 1_555
C7 C8 1_555 1_555
C9 C10 1_555 1_555
C12 C13 1_555 1_555
C15 C16 1_555 1_555

#END
