
#######################################################################
#
#                 Cambridge Crystallographic Data Centre
#                                CCDC 
#
#######################################################################
#
# If this CIF has been generated from an entry in the Cambridge 
# Structural Database, then it will include bibliographic, chemical, 
# crystal, experimental, refinement or atomic coordinate data resulting 
# from the CCDC's data processing and validation procedures.
#
#######################################################################

data_MAKWUS
_symmetry_cell_setting           triclinic
_symmetry_space_group_name_H-M   'P -1'
_symmetry_Int_Tables_number      2
_space_group_name_Hall           '-P 1'
loop_
_symmetry_equiv_pos_site_id
_symmetry_equiv_pos_as_xyz
1 x,y,z
2 -x,-y,-z
_cell_length_a                   8.7106(6)
_cell_length_b                   9.2393(7)
_cell_length_c                   11.6831(12)
_cell_angle_alpha                93.001(4)
_cell_angle_beta                 93.467(6)
_cell_angle_gamma                94.709(5)
_cell_volume                     933.811
loop_
_atom_site_label
_atom_site_type_symbol
_atom_site_fract_x
_atom_site_fract_y
_atom_site_fract_z
Eu1 Eu 0.18480(5) 0.14183(5) 0.76785(4)
I1 I 0.29398(7) 0.29329(7) 1.02982(6)
O1 O 0.0644(8) 0.3759(7) 0.7237(6)
H1 H -0.0257 0.3586 0.6694
O2 O 0.4328(8) 0.2928(7) 0.7183(6)
H2 H 0.4877 0.2576 0.6649
O3 O 0.3555(7) -0.0454(7) 0.6906(6)
H3 H 0.3047 -0.1015 0.6285
N1 N 0.1353(9) 0.1562(8) 0.5372(7)
N2 N 0.0186(9) 0.0579(8) 0.3554(7)
N3 N -0.0693(8) 0.1156(8) 0.8911(7)
N4 N -0.1521(8) 0.0699(8) 1.0782(7)
C1 C 0.0430(11) 0.0582(10) 0.4702(8)
C2 C 0.0957(10) 0.1644(10) 0.3046(8)
H4 H 0.0859 0.1652 0.2249
C3 C 0.1903(11) 0.2746(10) 0.3655(8)
H5 H 0.2398 0.3507 0.3291
C4 C 0.2065(10) 0.2648(10) 0.4824(8)
H6 H 0.2694 0.3364 0.5257
C5 C -0.0610(10) 0.0517(9) 0.9914(8)
C6 C -0.2637(12) 0.1655(10) 1.0633(9)
H7 H -0.3274 0.1839 1.1226
C7 C -0.2830(11) 0.2352(10) 0.9614(9)
H8 H -0.3595 0.2985 0.9502
C8 C -0.1810(11) 0.2048(10) 0.8762(9)
H9 H -0.1918 0.2486 0.8066
C9 C 0.0634(15) 0.5142(11) 0.7899(11)
H10 H -0.0407 0.5304 0.8064
H11 H 0.1052 0.5916 0.7464
H12 H 0.1250 0.5115 0.8607
C10 C 0.4676(13) 0.4453(11) 0.7511(10)
H13 H 0.4264 0.5025 0.6922
H14 H 0.5775 0.4669 0.7609
H15 H 0.4221 0.4681 0.8220
C11 C 0.5173(12) -0.0532(12) 0.7071(11)
H16 H 0.5650 -0.0324 0.6371
H17 H 0.5379 -0.1491 0.7281
H18 H 0.5585 0.0167 0.7671
Eu1A Eu -0.18480(5) -0.14183(5) 0.23215(4)
Eu1A_2 Eu -0.18480(5) -0.14183(5) 1.23215(4)
I1A I -0.29398(7) -0.29329(7) -0.02982(6)
O1A O -0.0644(8) -0.3759(7) 0.2763(6)
H1A H 0.0257 -0.3586 0.3306
O2A O -0.4328(8) -0.2928(7) 0.2817(6)
H2A H -0.4877 -0.2576 0.3351
O3A O -0.3555(7) 0.0454(7) 0.3094(6)
H3A H -0.3047 0.1015 0.3715
N1A N -0.1353(9) -0.1562(8) 0.4628(7)
N2A N -0.0186(9) -0.0579(8) 0.6446(7)
N3A N 0.0693(8) -0.1156(8) 1.1089(7)
N3A_2 N 0.0693(8) -0.1156(8) 0.1089(7)
N4A N 0.1521(8) -0.0699(8) 0.9218(7)
N4_2 N -0.1521(8) 0.0699(8) 0.0782(7)
C1A C -0.0430(11) -0.0582(10) 0.5298(8)
C2A C -0.0957(10) -0.1644(10) 0.6954(8)
H4A H -0.0859 -0.1652 0.7751
C3A C -0.1903(11) -0.2746(10) 0.6345(8)
H5A H -0.2398 -0.3507 0.6709
C4A C -0.2065(10) -0.2648(10) 0.5176(8)
H6A H -0.2694 -0.3364 0.4743
C5A C 0.0610(10) -0.0517(9) 1.0086(8)
C6A C 0.2637(12) -0.1655(10) 0.9367(9)
H7A H 0.3274 -0.1839 0.8774
C7A C 0.2830(11) -0.2352(10) 1.0386(9)
H8A H 0.3595 -0.2985 1.0498
C8A C 0.1810(11) -0.2048(10) 1.1238(9)
H9A H 0.1918 -0.2486 1.1934
C9A C -0.0634(15) -0.5142(11) 0.2101(11)
H10A H 0.0407 -0.5304 0.1936
H11A H -0.1052 -0.5916 0.2536
H12A H -0.1250 -0.5115 0.1393
C10A C -0.4676(13) -0.4453(11) 0.2489(10)
H13A H -0.4264 -0.5025 0.3078
H14A H -0.5775 -0.4669 0.2391
H15A H -0.4221 -0.4681 0.1780
C11A C -0.5173(12) 0.0532(12) 0.2929(11)
H16A H -0.5650 0.0324 0.3629
H17A H -0.5379 0.1491 0.2719
H18A H -0.5585 -0.0167 0.2329
I2 I 0.73390(7) 0.30575(7) 0.53097(6)
loop_
_geom_bond_atom_site_label_1
_geom_bond_atom_site_label_2
_geom_bond_site_symmetry_1
_geom_bond_site_symmetry_2
Eu1 I1 1_555 1_555
O1 Eu1 1_555 1_555
H1 O1 1_555 1_555
O2 Eu1 1_555 1_555
H2 O2 1_555 1_555
O3 Eu1 1_555 1_555
H3 O3 1_555 1_555
N1 Eu1 1_555 1_555
N2 C1 1_555 1_555
N3 Eu1 1_555 1_555
N4 C5 1_555 1_555
C1 N1 1_555 1_555
C2 N2 1_555 1_555
H4 C2 1_555 1_555
C3 C2 1_555 1_555
H5 C3 1_555 1_555
C4 N1 1_555 1_555
H6 C4 1_555 1_555
C5 N3 1_555 1_555
C6 N4 1_555 1_555
H7 C6 1_555 1_555
C7 C6 1_555 1_555
H8 C7 1_555 1_555
C8 N3 1_555 1_555
H9 C8 1_555 1_555
C9 O1 1_555 1_555
H10 C9 1_555 1_555
H11 C9 1_555 1_555
H12 C9 1_555 1_555
C10 O2 1_555 1_555
H13 C10 1_555 1_555
H14 C10 1_555 1_555
H15 C10 1_555 1_555
C11 O3 1_555 1_555
H16 C11 1_555 1_555
H17 C11 1_555 1_555
H18 C11 1_555 1_555
Eu1A N2 1_555 1_555
Eu1A_2 N4 1_555 1_555
I1A Eu1A 1_555 1_555
O1A Eu1A 1_555 1_555
H1A O1A 1_555 1_555
O2A Eu1A 1_555 1_555
H2A O2A 1_555 1_555
O3A Eu1A 1_555 1_555
H3A O3A 1_555 1_555
N1A Eu1A 1_555 1_555
N2A Eu1 1_555 1_555
N3A Eu1A_2 1_555 1_555
N3A_2 Eu1A 1_555 1_555
N4A Eu1 1_555 1_555
N4_2 Eu1A 1_555 1_555
C1A C1 1_555 1_555
C2A N2A 1_555 1_555
H4A C2A 1_555 1_555
C3A C2A 1_555 1_555
H5A C3A 1_555 1_555
C4A N1A 1_555 1_555
H6A C4A 1_555 1_555
C5A C5 1_555 1_555
C6A N4A 1_555 1_555
H7A C6A 1_555 1_555
C7A C6A 1_555 1_555
H8A C7A 1_555 1_555
C8A N3A 1_555 1_555
H9A C8A 1_555 1_555
C9A O1A 1_555 1_555
H10A C9A 1_555 1_555
H11A C9A 1_555 1_555
H12A C9A 1_555 1_555
C10A O2A 1_555 1_555
H13A C10A 1_555 1_555
H14A C10A 1_555 1_555
H15A C10A 1_555 1_555
C11A O3A 1_555 1_555
H16A C11A 1_555 1_555
H17A C11A 1_555 1_555
H18A C11A 1_555 1_555
C3 C4 1_555 1_555
C7 C8 1_555 1_555
N1A C1A 1_555 1_555
N2A C1A 1_555 1_555
N3A C5A 1_555 1_555
N4A C5A 1_555 1_555
C3A C4A 1_555 1_555
C7A C8A 1_555 1_555

#END
