
#######################################################################
#
#                 Cambridge Crystallographic Data Centre
#                                CCDC 
#
#######################################################################
#
# If this CIF has been generated from an entry in the Cambridge 
# Structural Database, then it will include bibliographic, chemical, 
# crystal, experimental, refinement or atomic coordinate data resulting 
# from the CCDC's data processing and validation procedures.
#
#######################################################################

data_MAKWOM
_symmetry_cell_setting           monoclinic
_symmetry_space_group_name_H-M   'C 2/c'
_symmetry_Int_Tables_number      15
_space_group_name_Hall           '-C 2yn'
loop_
_symmetry_equiv_pos_site_id
_symmetry_equiv_pos_as_xyz
1 x,y,z
2 -x,y,1/2-z
3 1/2+x,1/2+y,z
4 1/2-x,1/2+y,1/2-z
5 -x,-y,-z
6 x,-y,1/2+z
7 1/2-x,1/2-y,-z
8 1/2+x,1/2-y,1/2+z
_cell_length_a                   31.7279(17)
_cell_length_b                   10.1284(6)
_cell_length_c                   20.2074(14)
_cell_angle_alpha                90
_cell_angle_beta                 123.588(4)
_cell_angle_gamma                90
_cell_volume                     5409.5
loop_
_atom_site_label
_atom_site_type_symbol
_atom_site_fract_x
_atom_site_fract_y
_atom_site_fract_z
I2 I 0.893691(18) 0.47188(5) 0.29171(3)
N1 N 0.9037(3) -0.0201(5) 0.6363(4)
C1 C 0.8889(3) -0.1518(6) 0.6224(4)
H1 H 0.8551 -0.1749 0.5800
C2 C 0.9230(3) -0.2500(5) 0.6698(5)
H2 H 0.9128 -0.3409 0.6602
C3 C 0.9720(3) -0.2166(6) 0.7311(5)
H3 H 0.9955 -0.2844 0.7639
N2 N 0.9868(2) -0.0849(7) 0.7451(5)
C4 C 0.9526(3) 0.0133(5) 0.6977(5)
N3 N 1.0233(3) 0.1855(6) 0.7718(8)
C5 C 1.0381(3) 0.3170(7) 0.7821(6)
H4 H 1.0731 0.3401 0.8180
C6 C 1.0023(3) 0.4152(5) 0.7402(7)
H5 H 1.0125 0.5061 0.7473
C7 C 0.9517(3) 0.3818(6) 0.6881(6)
H6 H 0.9269 0.4496 0.6592
N4 N 0.9369(3) 0.2503(7) 0.6779(6)
C8 C 0.9727(4) 0.1521(5) 0.7197(8)
N1A N 1.0963(3) -0.0201(5) 0.8637(4)
C1A C 1.1111(3) -0.1518(6) 0.8776(4)
H1A H 1.1449 -0.1749 0.9200
C2A C 1.0770(3) -0.2500(5) 0.8302(5)
H2A H 1.0872 -0.3409 0.8398
C3A C 1.0280(3) -0.2166(6) 0.7689(5)
H3A H 1.0045 -0.2844 0.7361
N2A N 1.0132(2) -0.0849(7) 0.7549(5)
C4A C 1.0474(3) 0.0133(5) 0.8023(5)
N3A N 0.9767(3) 0.1855(6) 0.7282(8)
C5A C 0.9619(3) 0.3170(7) 0.7179(6)
H4A H 0.9269 0.3401 0.6820
C6A C 0.9977(3) 0.4152(5) 0.7598(7)
H5A H 0.9875 0.5061 0.7527
C7A C 1.0483(3) 0.3818(6) 0.8119(6)
H6A H 1.0731 0.4496 0.8408
N4A N 1.0631(3) 0.2503(7) 0.8221(6)
C8A C 1.0273(4) 0.1521(5) 0.7803(8)
Eu1 Eu 0.664518(13) 0.57500(4) 0.12922(2)
O1 O 0.6691(2) 0.6188(6) 0.0067(3)
H7 H 0.6671 0.7045 -0.0109
H8 H 0.6522 0.5727 -0.0399
O2 O 0.66301(19) 0.8297(5) 0.1257(3)
H9 H 0.6691 0.8657 0.0873
H10 H 0.6555 0.8956 0.1471
O3 O 0.60235(19) 0.6184(5) 0.1736(3)
H11 H 0.5728 0.5803 0.1524
H12 H 0.5925 0.6971 0.1753
N5 N 0.7403(2) 0.1887(6) 0.3104(4)
N6 N 0.7784(2) 0.1869(6) 0.2182(4)
N7 N 0.7247(2) 0.3677(6) 0.1431(4)
N8 N 0.6851(2) 0.3661(6) 0.2310(4)
N9 N 0.5684(2) 0.6356(7) -0.0024(4)
N10 N 0.5958(2) 0.3770(6) 0.0319(4)
N11 N 0.5118(2) 0.3152(6) -0.0725(4)
N12 N 0.4833(2) 0.5702(6) -0.0995(4)
C9 C 0.7218(3) 0.2773(8) 0.2515(4)
C10 C 0.7432(3) 0.2780(7) 0.2016(4)
C11 C 0.7424(3) 0.3608(8) 0.0961(4)
H13 H 0.7297 0.4195 0.0539
C12 C 0.7780(3) 0.2719(8) 0.1075(5)
H14 H 0.7901 0.2699 0.0748
C13 C 0.7953(3) 0.1846(8) 0.1703(5)
H15 H 0.8195 0.1222 0.1795
C14 C 0.7182(3) 0.1871(8) 0.3510(5)
H16 H 0.7294 0.1260 0.3918
C15 C 0.6793(3) 0.2730(7) 0.3348(4)
H17 H 0.6646 0.2712 0.3639
C16 C 0.6640(3) 0.3598(8) 0.2742(5)
H18 H 0.6378 0.4178 0.2615
C17 C 0.5324(3) 0.5447(7) -0.0439(4)
C18 C 0.5476(3) 0.4033(8) -0.0272(5)
C19 C 0.5252(3) 0.1890(8) -0.0592(6)
H19 H 0.5011 0.1250 -0.0899
C20 C 0.5741(3) 0.1491(8) -0.0010(5)
H20 H 0.5834 0.0606 0.0073
C21 C 0.6083(3) 0.2484(8) 0.0441(5)
H21 H 0.6412 0.2250 0.0843
C22 C 0.5539(3) 0.7582(8) -0.0215(6)
H22 H 0.5782 0.8238 0.0051
C23 C 0.5051(3) 0.7972(9) -0.0784(5)
H23 H 0.4961 0.8855 -0.0908
C24 C 0.4707(3) 0.6962(8) -0.1156(5)
H24 H 0.4372 0.7174 -0.1537
Eu1C Eu 0.835482(13) 0.07500(4) 0.37078(2)
N5C N 0.7597(2) 0.6887(6) 0.1896(4)
N6C N 0.7216(2) 0.6869(6) 0.2818(4)
I1 I 0.81532(2) 0.47437(6) 0.50500(4)
loop_
_geom_bond_atom_site_label_1
_geom_bond_atom_site_label_2
_geom_bond_site_symmetry_1
_geom_bond_site_symmetry_2
N1 C1 1_555 1_555
C1 H1 1_555 1_555
C2 C1 1_555 1_555
H2 C2 1_555 1_555
C3 C2 1_555 1_555
H3 C3 1_555 1_555
N2 C4 1_555 1_555
C4 N1 1_555 1_555
N3 C5 1_555 1_555
C5 H4 1_555 1_555
H4 C7A 1_555 1_555
C6 C5 1_555 1_555
H5 C6 1_555 1_555
C7 C6 1_555 1_555
H6 C7 1_555 1_555
N4 C7 1_555 1_555
C8 C4 1_555 1_555
Eu1 O1 1_555 1_555
O1 H7 1_555 1_555
H8 O1 1_555 1_555
O2 Eu1 1_555 1_555
H9 O2 1_555 1_555
H10 O2 1_555 1_555
O3 Eu1 1_555 1_555
H11 O3 1_555 1_555
H12 O3 1_555 1_555
N5 C9 1_555 1_555
N6 C10 1_555 1_555
N7 Eu1 1_555 1_555
N8 Eu1 1_555 1_555
N9 Eu1 1_555 1_555
N10 Eu1 1_555 1_555
N11 C18 1_555 1_555
N12 C17 1_555 1_555
C9 N8 1_555 1_555
C10 N7 1_555 1_555
C11 N7 1_555 1_555
H13 C11 1_555 1_555
C12 C11 1_555 1_555
H14 C12 1_555 1_555
C13 N6 1_555 1_555
H15 C13 1_555 1_555
C14 N5 1_555 1_555
H16 C14 1_555 1_555
C15 C14 1_555 1_555
H17 C15 1_555 1_555
C16 N8 1_555 1_555
H18 C16 1_555 1_555
C17 N9 1_555 1_555
C18 N10 1_555 1_555
C19 N11 1_555 1_555
H19 C19 1_555 1_555
C20 C19 1_555 1_555
H20 C20 1_555 1_555
C21 N10 1_555 1_555
H21 C21 1_555 1_555
C22 N9 1_555 1_555
H22 C22 1_555 1_555
C23 C22 1_555 1_555
H23 C23 1_555 1_555
C24 N12 1_555 1_555
H24 C24 1_555 1_555
N1A C1A 1_555 1_555
C1A H1A 1_555 1_555
C2A C1A 1_555 1_555
H2A C2A 1_555 1_555
C3A C3 1_555 1_555
H3A C3 1_555 1_555
N2A N2 1_555 1_555
C4A N1A 1_555 1_555
N3A N3 1_555 1_555
C5A C6 1_555 1_555
H4A C7 1_555 1_555
C6A C5 1_555 1_555
H5A C6 1_555 1_555
C7A C5 1_555 1_555
H6A C7A 1_555 1_555
N4A N3 1_555 1_555
C8A C5 1_555 1_555
Eu1C N5 1_555 1_555
N5C Eu1 1_555 1_555
N6C Eu1 1_555 1_555
H3 C3A 1_555 1_555
N3 C8 1_555 1_555
C5 N4A 1_555 1_555
H4 N4A 1_555 1_555
C6 C7A 1_555 1_555
H5 C6A 1_555 1_555
C7 C5A 1_555 1_555
C7 C6A 1_555 1_555
N4 C8 1_555 1_555
N4 N3A 1_555 1_555
N4 C5A 1_555 1_555
N4 H4A 1_555 1_555
C8 C5A 1_555 1_555
C8 C8A 1_555 1_555
N6 Eu1C 1_555 1_555
C9 C10 1_555 1_555
C12 C13 1_555 1_555
C15 C16 1_555 1_555
C17 C18 1_555 1_555
C20 C21 1_555 1_555
C23 C24 1_555 1_555
C2A C3A 1_555 1_555
C3A H3A 1_555 1_555
N2A C4A 1_555 1_555
C4A C8A 1_555 1_555
N3A C5A 1_555 1_555
N3A C8A 1_555 1_555
C5A H4A 1_555 1_555
C5A C6A 1_555 1_555
C6A H5A 1_555 1_555
C6A C7A 1_555 1_555
C7A N4A 1_555 1_555
N4A C8A 1_555 1_555

#END
