
#######################################################################
#
#                 Cambridge Crystallographic Data Centre
#                                CCDC 
#
#######################################################################
#
# If this CIF has been generated from an entry in the Cambridge 
# Structural Database, then it will include bibliographic, chemical, 
# crystal, experimental, refinement or atomic coordinate data resulting 
# from the CCDC's data processing and validation procedures.
#
#######################################################################

data_MAKXON
_symmetry_cell_setting           monoclinic
_symmetry_space_group_name_H-M   'P 21/n'
_symmetry_Int_Tables_number      14
_space_group_name_Hall           '-P 2yn'
loop_
_symmetry_equiv_pos_site_id
_symmetry_equiv_pos_as_xyz
1 x,y,z
2 1/2-x,1/2+y,1/2-z
3 -x,-y,-z
4 1/2+x,1/2-y,1/2+z
_cell_length_a                   3.76924(14)
_cell_length_b                   8.46664(23)
_cell_length_c                   17.1444(5)
_cell_angle_alpha                90
_cell_angle_beta                 95.185(4)
_cell_angle_gamma                90
_cell_volume                     544.887
loop_
_atom_site_label
_atom_site_type_symbol
_atom_site_fract_x
_atom_site_fract_y
_atom_site_fract_z
Cd1 Cd 0.5000 0.5000 0.50000
Cl1 Cl 0.0072(21) 0.2867(4) 0.52152(34)
N1 N 0.5796(32) 0.5608(13) 0.6401(5)
C1 C 0.6927(18) 0.4966(12) 0.6960(4)
N2 N 0.7817(24) 0.4346(10) 0.7639(5)
C2 C 1.0063(26) 0.5100(9) 0.8157(4)
N3 N 1.1158(26) 0.4315(10) 0.8797(4)
N4 N 1.1118(31) 0.6551(9) 0.8064(5)
H1 H 1.264(4) 0.4745(19) 0.9146(7)
H2 H 1.043(5) 0.3367(14) 0.8863(6)
H3 H 1.259(5) 0.6982(15) 0.8413(8)
H4 H 1.037(5) 0.7069(11) 0.7650(8)
Cd1_2 Cd -0.5000 0.5000 0.50000
Cl1B Cl -0.0072(21) 0.7133(4) 0.47848(34)
Cl1_2 Cl 1.0072(21) 0.2867(4) 0.52152(34)
Cl1B_2 Cl 0.9928(21) 0.7133(4) 0.47848(34)
N1B N 0.4204(32) 0.4392(13) 0.3599(5)
C1B C 0.3073(18) 0.5034(12) 0.3040(4)
N2B N 0.2183(24) 0.5654(10) 0.2361(5)
C2B C -0.0063(26) 0.4900(9) 0.1843(4)
N3B N -0.1158(26) 0.5685(10) 0.1203(4)
N4B N -0.1118(31) 0.3449(9) 0.1936(5)
H1B H -0.264(4) 0.5255(19) 0.0854(7)
H2B H -0.043(5) 0.6633(14) 0.1137(6)
H3B H -0.259(5) 0.3018(15) 0.1587(8)
H4B H -0.037(5) 0.2931(11) 0.2350(8)
loop_
_geom_bond_atom_site_label_1
_geom_bond_atom_site_label_2
_geom_bond_site_symmetry_1
_geom_bond_site_symmetry_2
Cd1 Cl1 1_555 1_555
Cl1 Cd1_2 1_555 1_555
N1 Cd1 1_555 1_555
C1 N1 1_555 1_555
N2 C1 1_555 1_555
C2 N2 1_555 1_555
N3 C2 1_555 1_555
N4 C2 1_555 1_555
H1 N3 1_555 1_555
H2 N3 1_555 1_555
H3 N4 1_555 1_555
H4 N4 1_555 1_555
Cd1_2 Cl1B 1_555 1_555
Cl1B Cd1 1_555 1_555
Cl1_2 Cd1 1_555 1_555
Cl1B_2 Cd1 1_555 1_555
N1B Cd1 1_555 1_555
C1B N1B 1_555 1_555
N2B C1B 1_555 1_555
C2B N2B 1_555 1_555
N3B C2B 1_555 1_555
N4B C2B 1_555 1_555
H1B N3B 1_555 1_555
H2B N3B 1_555 1_555
H3B N4B 1_555 1_555
H4B N4B 1_555 1_555

#END
