
#######################################################################
#
#                 Cambridge Crystallographic Data Centre
#                                CCDC 
#
#######################################################################
#
# If this CIF has been generated from an entry in the Cambridge 
# Structural Database, then it will include bibliographic, chemical, 
# crystal, experimental, refinement or atomic coordinate data resulting 
# from the CCDC's data processing and validation procedures.
#
#######################################################################

data_MAKYOM
_symmetry_cell_setting           monoclinic
_symmetry_space_group_name_H-M   'C 2'
_symmetry_Int_Tables_number      5
_space_group_name_Hall           'C 2y'
loop_
_symmetry_equiv_pos_site_id
_symmetry_equiv_pos_as_xyz
1 x,y,z
2 -x,y,-z
3 1/2+x,1/2+y,z
4 1/2-x,1/2+y,-z
_cell_length_a                   14.9794(3)
_cell_length_b                   9.7102(2)
_cell_length_c                   10.3280(2)
_cell_angle_alpha                90
_cell_angle_beta                 118.0949(6)
_cell_angle_gamma                90
_cell_volume                     1325.23
loop_
_atom_site_label
_atom_site_type_symbol
_atom_site_fract_x
_atom_site_fract_y
_atom_site_fract_z
Mo1 Mo 0.007324(19) 0.37463(3) 0.32396(3)
Mo2 Mo 0.0000 0.55210(3) 0.0000
O1 O 0.0000 0.3861(5) 0.5000
O2 O -0.0179(3) 0.4412(3) 0.1262(3)
O3 O -0.1039(5) 0.6524(6) -0.0888(7)
O4 O -0.0490(3) 0.2203(3) 0.2576(4)
O5 O 0.1335(3) 0.3507(5) 0.3899(5)
N1 N -0.1514(2) 0.4807(3) 0.2345(4)
N2 N 0.0271(2) 0.6142(3) 0.3524(3)
C1 C 0.1165(3) 0.6783(4) 0.4108(4)
H1 H 0.1750 0.6252 0.4512
C2 C 0.1259(4) 0.8210(5) 0.4140(6)
H2 H 0.1895 0.8619 0.4541
C3 C 0.0407(4) 0.9002(5) 0.3576(6)
H3 H 0.0460 0.9957 0.3603
C4 C -0.0559(3) 0.8371(4) 0.2949(5)
C5 C -0.1487(4) 0.9106(5) 0.2359(7)
H4 H -0.1476 1.0064 0.2357
C6 C -0.2373(4) 0.8454(5) 0.1807(7)
H5 H -0.2968 0.8965 0.1428
C7 C -0.2427(3) 0.6971(5) 0.1787(5)
C8 C -0.3347(4) 0.6232(7) 0.1202(7)
H6 H -0.3962 0.6696 0.0799
C9 C -0.3320(4) 0.4820(7) 0.1236(8)
H7 H -0.3918 0.4318 0.0889
C10 C -0.2394(3) 0.4146(5) 0.1792(6)
H8 H -0.2390 0.3188 0.1777
C11 C -0.1533(3) 0.6210(3) 0.2337(4)
C12 C -0.0575(2) 0.6914(3) 0.2962(4)
Mo1A Mo -0.007324(19) 0.37463(3) 0.67604(3)
O2A O 0.0179(3) 0.4412(3) 0.8738(3)
Mo2A Mo 0.0000 0.55210(3) 1.0000
O4A O 0.0490(3) 0.2203(3) 0.7424(4)
O5A O -0.1335(3) 0.3507(5) 0.6101(5)
N1A N 0.1514(2) 0.4807(3) 0.7655(4)
C10A C 0.2394(3) 0.4146(5) 0.8208(6)
C9A C 0.3320(4) 0.4820(7) 0.8764(8)
C8A C 0.3347(4) 0.6232(7) 0.8798(7)
C7A C 0.2427(3) 0.6971(5) 0.8213(5)
C6A C 0.2373(4) 0.8454(5) 0.8193(7)
C5A C 0.1487(4) 0.9106(5) 0.7641(7)
C4A C 0.0559(3) 0.8371(4) 0.7051(5)
C3A C -0.0407(4) 0.9002(5) 0.6424(6)
C2A C -0.1259(4) 0.8210(5) 0.5860(6)
C1A C -0.1165(3) 0.6783(4) 0.5892(4)
N2A N -0.0271(2) 0.6142(3) 0.6476(3)
C12A C 0.0575(2) 0.6914(3) 0.7038(4)
C11A C 0.1533(3) 0.6210(3) 0.7663(4)
H1A H -0.1750 0.6252 0.5488
H2A H -0.1895 0.8619 0.5459
H3A H -0.0460 0.9957 0.6397
H4A H 0.1476 1.0064 0.7643
H5A H 0.2968 0.8965 0.8572
H6A H 0.3962 0.6696 0.9201
H7A H 0.3918 0.4318 0.9111
H8A H 0.2390 0.3188 0.8223
O2A_2 O 0.0179(3) 0.4412(3) -0.1262(3)
O3A O 0.1039(5) 0.6524(6) 0.0888(7)
loop_
_geom_bond_atom_site_label_1
_geom_bond_atom_site_label_2
_geom_bond_site_symmetry_1
_geom_bond_site_symmetry_2
Mo1 O1 1_555 1_555
Mo2 O2 1_555 1_555
O1 Mo1A 1_555 1_555
O2 Mo1 1_555 1_555
O3 Mo2 1_555 1_555
O4 Mo1 1_555 1_555
O5 Mo1 1_555 1_555
N1 Mo1 1_555 1_555
N2 Mo1 1_555 1_555
C1 N2 1_555 1_555
H1 C1 1_555 1_555
C2 C1 1_555 1_555
H2 C2 1_555 1_555
C3 C2 1_555 1_555
H3 C3 1_555 1_555
C4 C3 1_555 1_555
C5 C4 1_555 1_555
H4 C5 1_555 1_555
C6 C5 1_555 1_555
H5 C6 1_555 1_555
C7 C6 1_555 1_555
C8 C7 1_555 1_555
H6 C8 1_555 1_555
C9 C8 1_555 1_555
H7 C9 1_555 1_555
C10 N1 1_555 1_555
H8 C10 1_555 1_555
C11 N1 1_555 1_555
C12 N2 1_555 1_555
Mo1A O2A 1_555 1_555
O2A Mo2A 1_555 1_555
O4A Mo1A 1_555 1_555
O5A Mo1A 1_555 1_555
N1A Mo1A 1_555 1_555
C10A N1A 1_555 1_555
C9A C10A 1_555 1_555
C8A C9A 1_555 1_555
C7A C8A 1_555 1_555
C6A C7A 1_555 1_555
C5A C6A 1_555 1_555
C4A C5A 1_555 1_555
C3A C4A 1_555 1_555
C2A C3A 1_555 1_555
C1A C2A 1_555 1_555
N2A Mo1A 1_555 1_555
C12A C4A 1_555 1_555
C11A N1A 1_555 1_555
H1A C1A 1_555 1_555
H2A C2A 1_555 1_555
H3A C3A 1_555 1_555
H4A C5A 1_555 1_555
H5A C6A 1_555 1_555
H6A C8A 1_555 1_555
H7A C9A 1_555 1_555
H8A C10A 1_555 1_555
O2A_2 Mo2 1_555 1_555
O3A Mo2 1_555 1_555
C4 C12 1_555 1_555
C7 C11 1_555 1_555
C9 C10 1_555 1_555
C11 C12 1_555 1_555
C7A C11A 1_555 1_555
C1A N2A 1_555 1_555
N2A C12A 1_555 1_555
C12A C11A 1_555 1_555

#END
