
#######################################################################
#
#                 Cambridge Crystallographic Data Centre
#                                CCDC 
#
#######################################################################
#
# If this CIF has been generated from an entry in the Cambridge 
# Structural Database, then it will include bibliographic, chemical, 
# crystal, experimental, refinement or atomic coordinate data resulting 
# from the CCDC's data processing and validation procedures.
#
#######################################################################

data_MAKYUS
_symmetry_cell_setting           monoclinic
_symmetry_space_group_name_H-M   'P 21/n'
_symmetry_Int_Tables_number      14
_space_group_name_Hall           '-P 2yn'
loop_
_symmetry_equiv_pos_site_id
_symmetry_equiv_pos_as_xyz
1 x,y,z
2 1/2+x,1/2-y,1/2+z
3 -x,-y,-z
4 1/2-x,1/2+y,1/2-z
_cell_length_a                   8.955(3)
_cell_length_b                   13.216(3)
_cell_length_c                   18.941(3)
_cell_angle_alpha                90
_cell_angle_beta                 103.39(2)
_cell_angle_gamma                90
_cell_volume                     2180.72
loop_
_atom_site_label
_atom_site_type_symbol
_atom_site_fract_x
_atom_site_fract_y
_atom_site_fract_z
Zn1 Zn 0.2372(1) 0.22497(9) -0.19148(5)
O1 O 0.0264(5) 0.1716(4) -0.2685(3)
N1 N -0.6002(7) 0.2260(6) -0.3751(3)
N2 N -0.6468(6) 0.2292(6) -0.2670(3)
N3 N -0.1809(7) 0.0745(5) -0.2770(4)
N4 N 0.1646(7) 0.1070(5) -0.1406(3)
N5 N 0.4020(6) 0.2294(6) -0.0845(3)
N6 N 0.1538(7) 0.3502(6) -0.1562(3)
C1 C -0.7072(9) 0.2295(7) -0.3372(4)
C2 C -0.4892(8) 0.2255(8) -0.2606(4)
C3 C -0.4589(8) 0.2233(7) -0.3267(4)
C4 C -0.3129(9) 0.2189(8) -0.3516(4)
C5 C -0.2497(9) 0.1127(8) -0.3507(4)
C6 C -0.0450(9) 0.1072(6) -0.2425(4)
C7 C 0.0278(9) 0.0616(6) -0.1701(4)
C8 C -0.0256(10) -0.0126(7) -0.1364(5)
C9 C 0.058(1) -0.0455(7) -0.0695(5)
C10 C 0.1961(10) -0.0015(7) -0.0388(5)
C11 C 0.2460(9) 0.0769(7) -0.0759(4)
C12 C 0.3981(9) 0.1331(8) -0.0502(5)
C13 C 0.3402(10) 0.3110(7) -0.0472(4)
C14 C 0.273(1) 0.3960(7) -0.0964(5)
C15 C 0.203(1) 0.4705(8) -0.0542(5)
C16 C 0.399(1) 0.4450(9) -0.1285(5)
H1 H -0.8181 0.2336 -0.3593
H2 H -0.6156 0.2236 -0.4278
H3 H -0.4122 0.2274 -0.2141
H4 H -0.3278 0.2503 -0.3995
H5 H -0.2357 0.2616 -0.3198
H6 H -0.3377 0.0711 -0.3757
H7 H -0.1770 0.1104 -0.3803
H8 H -0.2417 0.0237 -0.2573
H9 H -0.1255 -0.0472 -0.1585
H10 H 0.0211 -0.1019 -0.0439
H11 H 0.2582 -0.0231 0.0090
H12 H 0.4205 0.1424 0.0041
H13 H 0.4852 0.0903 -0.0559
H14 H 0.5046 0.2468 -0.0889
H15 H 0.2614 0.2819 -0.0251
H16 H 0.4195 0.3360 -0.0070
H17 H 0.1218 0.4412 -0.0351
H18 H 0.2765 0.4990 -0.0137
H19 H 0.1572 0.5277 -0.0842
H20 H 0.4790 0.4735 -0.0916
H21 H 0.3568 0.4983 -0.1620
H22 H 0.4438 0.3960 -0.1548
H23 H 0.0614 0.3360 -0.1386
H24 H 0.1218 0.3995 -0.1950
N2_2 N 0.3532(6) 0.2292(6) -0.2670(3)
Zn1_2 Zn -0.7628(1) 0.22497(9) -0.19148(5)
O2 O 0.388(1) 0.010(1) 0.1293(4)
O3 O 0.4039(7) 0.0509(6) 0.2351(3)
O4 O 0.5982(9) 0.0387(8) 0.1930(4)
N7 N 0.4624(9) 0.0354(8) 0.1845(5)
O5 O 0.7363(6) 0.2659(6) 0.9679(3)
O6 O 0.9698(6) 0.2687(6) 0.9718(3)
O7 O 0.8175(9) 0.2912(9) 0.8733(4)
N8 N 0.8392(8) 0.2742(7) 0.9370(4)
loop_
_geom_bond_atom_site_label_1
_geom_bond_atom_site_label_2
_geom_bond_site_symmetry_1
_geom_bond_site_symmetry_2
Zn1 O1 1_555 1_555
O1 C6 1_555 1_555
O2 N7 1_555 1_555
O3 N7 1_555 1_555
O4 N7 1_555 1_555
O5 N8 1_555 1_555
O6 N8 1_555 1_555
O7 N8 1_555 1_555
N1 C1 1_555 1_555
N2 C1 1_555 1_555
N3 C5 1_555 1_555
N4 Zn1 1_555 1_555
N5 Zn1 1_555 1_555
N6 Zn1 1_555 1_555
C1 H1 1_555 1_555
C2 N2 1_555 1_555
C3 N1 1_555 1_555
C4 C3 1_555 1_555
C5 C4 1_555 1_555
C6 N3 1_555 1_555
C7 N4 1_555 1_555
C8 C7 1_555 1_555
C9 C8 1_555 1_555
C10 C9 1_555 1_555
C11 N4 1_555 1_555
C12 N5 1_555 1_555
C13 N5 1_555 1_555
C14 N6 1_555 1_555
C15 C14 1_555 1_555
C16 C14 1_555 1_555
H2 N1 1_555 1_555
H3 C2 1_555 1_555
H4 C4 1_555 1_555
H5 C4 1_555 1_555
H6 C5 1_555 1_555
H7 C5 1_555 1_555
H8 N3 1_555 1_555
H9 C8 1_555 1_555
H10 C9 1_555 1_555
H11 C10 1_555 1_555
H12 C12 1_555 1_555
H13 C12 1_555 1_555
H14 N5 1_555 1_555
H15 C13 1_555 1_555
H16 C13 1_555 1_555
H17 C15 1_555 1_555
H18 C15 1_555 1_555
H19 C15 1_555 1_555
H20 C16 1_555 1_555
H21 C16 1_555 1_555
H22 C16 1_555 1_555
H23 N6 1_555 1_555
H24 N6 1_555 1_555
N2_2 Zn1 1_555 1_555
Zn1_2 N2 1_555 1_555
C2 C3 1_555 1_555
C6 C7 1_555 1_555
C10 C11 1_555 1_555
C11 C12 1_555 1_555
C13 C14 1_555 1_555

#END
