
#######################################################################
#
#                 Cambridge Crystallographic Data Centre
#                                CCDC 
#
#######################################################################
#
# If this CIF has been generated from an entry in the Cambridge 
# Structural Database, then it will include bibliographic, chemical, 
# crystal, experimental, refinement or atomic coordinate data resulting 
# from the CCDC's data processing and validation procedures.
#
#######################################################################

data_MAKZOO
_symmetry_cell_setting           triclinic
_symmetry_space_group_name_H-M   'P -1'
_symmetry_Int_Tables_number      2
_space_group_name_Hall           '-P 1'
loop_
_symmetry_equiv_pos_site_id
_symmetry_equiv_pos_as_xyz
1 x,y,z
2 -x,-y,-z
_cell_length_a                   9.510(9)
_cell_length_b                   12.669(9)
_cell_length_c                   16.430(2)
_cell_angle_alpha                72.28(2)
_cell_angle_beta                 79.06(2)
_cell_angle_gamma                79.72(2)
_cell_volume                     1835.85
loop_
_atom_site_label
_atom_site_type_symbol
_atom_site_fract_x
_atom_site_fract_y
_atom_site_fract_z
Pr1 Pr 0.27995(3) 0.53168(2) 0.506343(19)
C1 C 0.4580(5) 0.3464(4) 0.7766(3)
C2 C 0.5786(6) 0.2914(5) 0.8145(4)
H1 H 0.671(5) 0.286(4) 0.782(3)
C3 C 0.5598(6) 0.2425(5) 0.9035(4)
C4 C 0.4294(7) 0.2411(5) 0.9581(4)
C5 C 0.3136(6) 0.2998(5) 0.9164(4)
C6 C 0.3267(6) 0.3487(5) 0.8276(4)
H2 H 0.243(5) 0.387(4) 0.802(3)
C7 C 0.4752(6) 0.4033(4) 0.6811(3)
C8 C 0.4171(8) 0.1773(6) 1.0532(4)
H3 H 0.3232 0.1533 1.0725
H4 H 0.4897 0.1133 1.0614
H5 H 0.4306 0.2250 1.0859
C9 C -0.0315(5) 0.7724(4) 0.3356(3)
C10 C -0.1362(5) 0.7983(4) 0.2819(3)
H6 H -0.199(4) 0.747(3) 0.293(3)
C11 C -0.1350(5) 0.8931(4) 0.2142(3)
C12 C -0.0389(5) 0.9707(4) 0.1960(3)
C13 C 0.0598(5) 0.9418(4) 0.2541(3)
C14 C 0.0675(5) 0.8457(4) 0.3215(3)
H7 H 0.136(4) 0.827(3) 0.356(3)
C15 C -0.0284(5) 0.6664(4) 0.4088(3)
C16 C -0.0409(6) 1.0741(4) 0.1204(3)
H8 H 0.0383 1.1131 0.1177
H9 H -0.1302 1.1217 0.1274
H10 H -0.0322 1.0532 0.0680
O1 O 0.3601(4) 0.4388(3) 0.6486(2)
O2 O 0.1902(4) 0.4459(3) 0.4015(2)
O3 O 0.1386(4) 0.6260(3) 0.6206(2)
C17 C 0.5440(5) 0.8121(4) 0.4578(3)
C18 C 0.6552(5) 0.8090(4) 0.5017(3)
H11 H 0.6831 0.7447 0.5440
C19 C 0.7252(5) 0.9026(4) 0.4823(3)
C20 C 0.6975(5) 0.9996(4) 0.4168(3)
C21 C 0.5857(5) 0.9962(4) 0.3740(3)
C22 C 0.5070(5) 0.9085(4) 0.3949(3)
H12 H 0.428(4) 0.910(3) 0.365(2)
C23 C 0.4589(5) 0.7158(4) 0.4789(3)
C24 C 0.7814(6) 1.0970(4) 0.3913(4)
H13 H 0.8826 1.0704 0.3896
H14 H 0.7521 1.1392 0.4327
H15 H 0.7631 1.1438 0.3352
O6 O 0.9050(5) 0.8065(4) 0.5622(3)
O7 O 0.8440(4) 0.9780(3) 0.5582(3)
O8 O 0.6318(5) 1.1171(3) 0.2362(3)
O9 O 0.4263(5) 1.1454(3) 0.3134(3)
O10 O 0.3324(4) 0.7352(3) 0.4636(2)
O11 O 0.5180(3) 0.6174(3) 0.5121(2)
O12 O -0.2075(6) 0.9301(5) 0.0801(3)
O13 O -0.3691(5) 0.9004(4) 0.1920(3)
O14 O 0.1237(5) 1.1163(4) 0.2382(3)
O15 O 0.2932(5) 0.9755(4) 0.2443(3)
O16 O 0.0653(3) 0.6463(3) 0.4570(2)
O17 O -0.1228(4) 0.6055(3) 0.4165(2)
N1 N 0.6959(8) 0.1865(7) 0.9353(5)
N2 N 0.1688(7) 0.3137(5) 0.9653(4)
N3 N -0.2469(6) 0.9110(4) 0.1578(4)
N4 N 0.1671(6) 1.0181(5) 0.2447(3)
N5 N 0.8360(5) 0.8958(4) 0.5373(3)
N6 N 0.5456(6) 1.0942(4) 0.3021(3)
O18 O 0.7176(9) 0.2155(6) 0.9975(6)
O19 O 0.7728(8) 0.1267(9) 0.9118(5)
O20 O 0.0663(6) 0.3213(6) 0.9289(4)
O21 O 0.1565(6) 0.3209(5) 1.0380(4)
O22 O 0.6011(4) 0.4118(3) 0.6418(2)
Pr1A Pr 0.72005(3) 0.46832(2) 0.493657(19)
Pr1A_2 Pr -0.27995(3) 0.46832(2) 0.493657(19)
O11A O 0.4820(3) 0.3826(3) 0.4879(2)
O17A O 0.1228(4) 0.3945(3) 0.5835(2)
O22A O 0.3989(4) 0.5882(3) 0.3582(2)
O4 O 0.1279(10) 0.5481(7) 0.2255(5)
O5 O 0.1852(12) 0.3469(10) 0.2250(8)
C25 C 0.1792(9) 0.6252(6) 0.8341(5)
H16 H 0.0794 0.6393 0.8366
C26 C 0.2344(9) 0.5934(6) 0.9104(5)
H17 H 0.1731 0.5885 0.9624
C27 C 0.3814(10) 0.5685(5) 0.9094(5)
C28 C 0.4677(10) 0.5853(6) 0.8289(6)
H18 H 0.576(8) 0.571(6) 0.820(4)
C29 C 0.3993(10) 0.6188(6) 0.7558(5)
H19 H 0.459(6) 0.623(4) 0.704(3)
C30 C 0.4354(9) 0.5219(6) 0.9973(6)
N7 N 0.2579(8) 0.6374(4) 0.7571(4)
C25A C 0.8208(9) 0.3748(6) 1.1659(5)
H16A H 0.9206 0.3607 1.1634
C26A C 0.7656(9) 0.4066(6) 1.0896(5)
H17A H 0.8269 0.4115 1.0376
C27A C 0.6186(10) 0.4315(5) 1.0906(5)
C28A C 0.5323(10) 0.4147(6) 1.1711(6)
H18A H 0.424(8) 0.429(6) 1.180(4)
C29A C 0.6007(10) 0.3812(6) 1.2442(5)
H19A H 0.541(6) 0.377(4) 1.296(3)
C30A C 0.5646(9) 0.4781(6) 1.0027(6)
N7A N 0.7421(8) 0.3626(4) 1.2429(4)
loop_
_geom_bond_atom_site_label_1
_geom_bond_atom_site_label_2
_geom_bond_site_symmetry_1
_geom_bond_site_symmetry_2
Pr1 O1 1_555 1_555
C1 C2 1_555 1_555
C2 H1 1_555 1_555
C3 C2 1_555 1_555
C4 C3 1_555 1_555
C5 C4 1_555 1_555
C6 C1 1_555 1_555
H2 C6 1_555 1_555
C7 C1 1_555 1_555
C8 C4 1_555 1_555
H3 C8 1_555 1_555
H4 C8 1_555 1_555
H5 C8 1_555 1_555
C9 C10 1_555 1_555
C10 H6 1_555 1_555
C11 C10 1_555 1_555
C12 C11 1_555 1_555
C13 C12 1_555 1_555
C14 C9 1_555 1_555
H7 C14 1_555 1_555
C15 C9 1_555 1_555
C16 C12 1_555 1_555
H8 C16 1_555 1_555
H9 C16 1_555 1_555
H10 C16 1_555 1_555
O1 C7 1_555 1_555
O2 Pr1 1_555 1_555
O3 Pr1 1_555 1_555
C17 C18 1_555 1_555
C18 H11 1_555 1_555
C19 C18 1_555 1_555
C20 C19 1_555 1_555
C21 C20 1_555 1_555
C22 C17 1_555 1_555
H12 C22 1_555 1_555
C23 C17 1_555 1_555
C24 C20 1_555 1_555
H13 C24 1_555 1_555
H14 C24 1_555 1_555
H15 C24 1_555 1_555
C25 H16 1_555 1_555
C26 C25 1_555 1_555
H17 C26 1_555 1_555
C27 C26 1_555 1_555
C28 C27 1_555 1_555
H18 C28 1_555 1_555
C29 C28 1_555 1_555
H19 C29 1_555 1_555
C30 C27 1_555 1_555
O6 N5 1_555 1_555
O7 N5 1_555 1_555
O8 N6 1_555 1_555
O9 N6 1_555 1_555
O10 Pr1 1_555 1_555
O11 Pr1 1_555 1_555
O12 N3 1_555 1_555
O13 N3 1_555 1_555
O14 N4 1_555 1_555
O15 N4 1_555 1_555
O16 Pr1 1_555 1_555
O17 C15 1_555 1_555
N1 C3 1_555 1_555
N2 C5 1_555 1_555
N3 C11 1_555 1_555
N4 C13 1_555 1_555
N5 C19 1_555 1_555
N6 C21 1_555 1_555
N7 C25 1_555 1_555
O18 N1 1_555 1_555
O19 N1 1_555 1_555
O20 N2 1_555 1_555
O21 N2 1_555 1_555
O22 C7 1_555 1_555
Pr1A O11 1_555 1_555
Pr1A_2 O17 1_555 1_555
C25A H16A 1_555 1_555
C26A C25A 1_555 1_555
H17A C26A 1_555 1_555
C27A C26A 1_555 1_555
C28A C27A 1_555 1_555
H18A C28A 1_555 1_555
C29A C28A 1_555 1_555
H19A C29A 1_555 1_555
C30A C30 1_555 1_555
O11A Pr1 1_555 1_555
O17A Pr1 1_555 1_555
N7A C25A 1_555 1_555
O22A Pr1 1_555 1_555
C5 C6 1_555 1_555
C13 C14 1_555 1_555
C15 O16 1_555 1_555
C21 C22 1_555 1_555
C23 O10 1_555 1_555
C23 O11 1_555 1_555
C29 N7 1_555 1_555
O22 Pr1A 1_555 1_555
Pr1A O11A 1_555 1_555
C27A C30A 1_555 1_555
C29A N7A 1_555 1_555

#END
