
#######################################################################
#
#                 Cambridge Crystallographic Data Centre
#                                CCDC 
#
#######################################################################
#
# If this CIF has been generated from an entry in the Cambridge 
# Structural Database, then it will include bibliographic, chemical, 
# crystal, experimental, refinement or atomic coordinate data resulting 
# from the CCDC's data processing and validation procedures.
#
#######################################################################

data_MAKZEE
_symmetry_cell_setting           triclinic
_symmetry_space_group_name_H-M   'P -1'
_symmetry_Int_Tables_number      2
_space_group_name_Hall           '-P 1'
loop_
_symmetry_equiv_pos_site_id
_symmetry_equiv_pos_as_xyz
1 x,y,z
2 -x,-y,-z
_cell_length_a                   9.483(3)
_cell_length_b                   12.593(3)
_cell_length_c                   15.517(4)
_cell_angle_alpha                76.89(9)
_cell_angle_beta                 78.10(9)
_cell_angle_gamma                81.33(9)
_cell_volume                     1755.41
loop_
_atom_site_label
_atom_site_type_symbol
_atom_site_fract_x
_atom_site_fract_y
_atom_site_fract_z
Pr1 Pr 0.27660(4) 0.53032(3) 0.50730(3)
C1 C 0.5522(9) 0.6264(7) 0.2164(6)
C2 C 0.4308(10) 0.6881(7) 0.1865(6)
H1 H 0.3412 0.6869 0.2246
C3 C 0.4427(11) 0.7506(8) 0.1014(7)
C4 C 0.5706(11) 0.7562(8) 0.0387(6)
C5 C 0.6887(11) 0.6896(9) 0.0709(7)
C6 C 0.6830(11) 0.6286(8) 0.1574(7)
H2 H 0.7666 0.5893 0.1757
C7 C 0.5401(9) 0.5636(7) 0.3121(6)
C8 C 0.5826(14) 0.8321(10) -0.0531(8)
H3 H 0.4887 0.8693 -0.0612
H4 H 0.6479 0.8850 -0.0571
H5 H 0.6187 0.7899 -0.0989
O1 O 0.9233(7) 0.8251(5) 0.5406(5)
O2 O 0.8480(7) 0.9917(5) 0.5540(4)
O3 O 0.6149(8) 1.1071(6) 0.2289(5)
O4 O 0.4176(8) 1.1407(6) 0.3189(5)
O5 O 0.3345(6) 0.7296(5) 0.4634(4)
C9 C 0.5475(9) 0.8145(7) 0.4502(6)
C10 C 0.6633(9) 0.8162(7) 0.4910(6)
H6 H 0.6958 0.7542 0.5303
C11 C 0.7304(9) 0.9107(7) 0.4728(6)
C12 C 0.6966(9) 1.0046(7) 0.4102(6)
C13 C 0.5796(9) 0.9959(7) 0.3700(6)
C14 C 0.5025(9) 0.9069(7) 0.3911(6)
H7 H 0.4209 0.9088 0.3660
C15 C 0.4645(9) 0.7154(7) 0.4727(5)
C16 C 0.7764(10) 1.1048(7) 0.3861(6)
H8 H 0.8790 1.0829 0.3773
H9 H 0.7498 1.1447 0.4340
H10 H 0.7514 1.1507 0.3318
C17 C 0.0261(9) 0.2341(7) 0.6722(6)
C18 C 0.1324(9) 0.2119(7) 0.7251(6)
H11 H 0.2008 0.2606 0.7169
C19 C 0.1360(9) 0.1170(7) 0.7898(6)
C20 C 0.0420(9) 0.0369(7) 0.8047(6)
C21 C -0.0604(9) 0.0639(7) 0.7483(6)
C22 C -0.0724(9) 0.1584(7) 0.6844(6)
H12 H -0.1450 0.1715 0.6499
C23 C 0.0190(9) 0.3394(7) 0.6036(6)
C24 C 0.0457(11) -0.0648(8) 0.8779(6)
H13 H 0.0360 -0.1271 0.8545
H14 H -0.0328 -0.0563 0.9269
H15 H 0.1361 -0.0756 0.8990
O6 O 0.2114(10) 0.0812(9) 0.9272(5)
O7 O 0.3712(7) 0.1222(6) 0.8075(5)
O8 O -0.1279(8) -0.1110(5) 0.7582(5)
O9 O -0.2960(7) 0.0263(6) 0.7604(5)
O10 O 0.1167(7) 0.3994(5) 0.5932(4)
N1 N 0.3065(13) 0.8171(9) 0.0811(8)
N2 N 0.8286(13) 0.6884(11) 0.0116(8)
N3 N 0.8429(8) 0.9097(6) 0.5261(5)
N4 N 0.5354(8) 1.0887(6) 0.3004(5)
N5 N 0.2480(9) 0.1044(7) 0.8456(5)
N6 N -0.1696(8) -0.0137(6) 0.7567(5)
O11 O 0.1928(7) 0.4261(5) 0.4025(5)
O12 O -0.0822(7) 0.3582(5) 0.5598(4)
O13 O 0.4132(6) 0.5597(5) 0.3556(4)
O14 O 0.1021(8) 0.6351(5) 0.6168(5)
O15 O 0.5282(6) 0.6218(5) 0.4998(4)
O16 O 0.3073(16) 0.9146(10) 0.0547(9)
O17 O 0.1955(12) 0.7834(12) 0.1091(8)
O18 O 0.8451(12) 0.6915(10) -0.0637(6)
O19 O 0.9380(13) 0.6946(14) 0.0455(9)
O20 O 0.6548(7) 0.5234(5) 0.3407(4)
Pr1A Pr -0.27660(4) 0.46968(3) 0.49270(3)
Pr1A_2 Pr 0.72340(4) 0.46968(3) 0.49270(3)
O12A O 0.0822(7) 0.6418(5) 0.4402(4)
O15A O 0.4718(6) 0.3782(5) 0.5002(4)
O20A O 0.3452(7) 0.4766(5) 0.6593(4)
O21 O 0.8575(14) 0.4548(11) 0.7875(10)
O22 O 0.0757(14) 0.6245(14) 0.7942(8)
O23 O 0.405(3) 0.3621(16) 1.1987(11)
O24 O 0.638(3) 0.3527(17) 1.1726(16)
loop_
_geom_bond_atom_site_label_1
_geom_bond_atom_site_label_2
_geom_bond_site_symmetry_1
_geom_bond_site_symmetry_2
Pr1 O5 1_555 1_555
C1 C2 1_555 1_555
C2 H1 1_555 1_555
C3 C2 1_555 1_555
C4 C3 1_555 1_555
C5 C4 1_555 1_555
C6 C1 1_555 1_555
H2 C6 1_555 1_555
C7 C1 1_555 1_555
C8 C4 1_555 1_555
H3 C8 1_555 1_555
H4 C8 1_555 1_555
H5 C8 1_555 1_555
O1 N3 1_555 1_555
O2 N3 1_555 1_555
O3 N4 1_555 1_555
O4 N4 1_555 1_555
O5 C15 1_555 1_555
C9 C10 1_555 1_555
C10 H6 1_555 1_555
C11 C10 1_555 1_555
C12 C11 1_555 1_555
C13 C12 1_555 1_555
C14 C9 1_555 1_555
H7 C14 1_555 1_555
C15 C9 1_555 1_555
C16 C12 1_555 1_555
H8 C16 1_555 1_555
H9 C16 1_555 1_555
H10 C16 1_555 1_555
C17 C18 1_555 1_555
C18 H11 1_555 1_555
C19 C18 1_555 1_555
C20 C19 1_555 1_555
C21 C20 1_555 1_555
C22 C17 1_555 1_555
H12 C22 1_555 1_555
C23 C17 1_555 1_555
C24 C20 1_555 1_555
H13 C24 1_555 1_555
H14 C24 1_555 1_555
H15 C24 1_555 1_555
O6 N5 1_555 1_555
O7 N5 1_555 1_555
O8 N6 1_555 1_555
O9 N6 1_555 1_555
O10 Pr1 1_555 1_555
N1 C3 1_555 1_555
N2 C5 1_555 1_555
N3 C11 1_555 1_555
N4 C13 1_555 1_555
N5 C19 1_555 1_555
N6 C21 1_555 1_555
O11 Pr1 1_555 1_555
O12 C23 1_555 1_555
O13 Pr1 1_555 1_555
O14 Pr1 1_555 1_555
O15 Pr1 1_555 1_555
O16 N1 1_555 1_555
O17 N1 1_555 1_555
O18 N2 1_555 1_555
O19 N2 1_555 1_555
O20 C7 1_555 1_555
Pr1A O12 1_555 1_555
Pr1A_2 O15 1_555 1_555
O12A Pr1 1_555 1_555
O15A Pr1 1_555 1_555
O20A Pr1 1_555 1_555
C5 C6 1_555 1_555
C7 O13 1_555 1_555
C13 C14 1_555 1_555
C15 O15 1_555 1_555
C21 C22 1_555 1_555
C23 O10 1_555 1_555
O20 Pr1A_2 1_555 1_555
Pr1A_2 O15A 1_555 1_555

#END
