
#######################################################################
#
#                 Cambridge Crystallographic Data Centre
#                                CCDC 
#
#######################################################################
#
# If this CIF has been generated from an entry in the Cambridge 
# Structural Database, then it will include bibliographic, chemical, 
# crystal, experimental, refinement or atomic coordinate data resulting 
# from the CCDC's data processing and validation procedures.
#
#######################################################################

data_MAKZOP
_symmetry_cell_setting           triclinic
_symmetry_space_group_name_H-M   'P -1'
_symmetry_Int_Tables_number      2
_space_group_name_Hall           '-P 1'
loop_
_symmetry_equiv_pos_site_id
_symmetry_equiv_pos_as_xyz
1 x,y,z
2 -x,-y,-z
_cell_length_a                   6.6917(17)
_cell_length_b                   8.125(2)
_cell_length_c                   11.044(3)
_cell_angle_alpha                84.075(17)
_cell_angle_beta                 75.581(14)
_cell_angle_gamma                77.251(18)
_cell_volume                     566.47
loop_
_atom_site_label
_atom_site_type_symbol
_atom_site_fract_x
_atom_site_fract_y
_atom_site_fract_z
Cu1 Cu 0.5000 0.5000 0.5000
O1 O 0.3240(3) 0.7288(2) 0.52415(16)
O2 O 0.0756(3) 0.6454(2) 0.68000(17)
O3 O -0.0688(3) 0.8265(2) 0.87316(19)
O4 O 0.1755(3) 1.3607(2) 0.56125(18)
N1 N 0.5335(3) 0.4889(2) 0.6746(2)
C1 C 0.5727(4) 0.6211(3) 0.7222(2)
C2 C 0.5610(4) 0.6294(3) 0.8477(2)
C3 C 0.5063(4) 0.4975(3) 0.9318(2)
C4 C 0.4672(4) 0.3601(3) 0.8814(2)
C5 C 0.4844(4) 0.3591(3) 0.7549(2)
C6 C 0.1731(4) 0.7568(3) 0.6206(2)
C7 C 0.1117(4) 0.9299(3) 0.6693(2)
C8 C -0.0017(4) 0.9546(3) 0.7940(2)
C9 C -0.0449(4) 1.1135(3) 0.8417(2)
C10 C 0.0139(4) 1.2494(3) 0.7646(2)
C11 C 0.1190(4) 1.2271(3) 0.6401(2)
C12 C 0.1726(4) 1.0681(3) 0.5931(2)
H1 H -0.038(5) 0.746(4) 0.834(3)
H2 H 0.122(5) 1.448(4) 0.593(2)
H3 H 0.6101 0.7127 0.6668
H4 H 0.5904 0.7253 0.8770
H5 H 0.4287 0.2671 0.9347
H6 H 0.4607 0.2630 0.7226
H7 H -0.1147 1.1293 0.9270
H8 H -0.0180 1.3583 0.7972
H9 H 0.2507 1.0523 0.5091
Cu1_2 Cu 0.5000 -0.5000 0.5000
Cu1_3 Cu 0.5000 0.5000 1.5000
Cu1_4 Cu 0.5000 1.5000 0.5000
O1A O 0.6760(3) 0.2712(2) 0.47585(16)
O2A O 0.9244(3) 0.3546(2) 0.32000(17)
O3A O 1.0688(3) 0.1735(2) 0.12684(19)
O4A O 0.8245(3) -0.3607(2) 0.43875(18)
O4_2 O 0.1755(3) 0.3607(2) 0.56125(18)
O4A_2 O 0.8245(3) 0.6393(2) 0.43875(18)
N1A N 0.4665(3) 0.5111(2) 1.3254(2)
N1A_2 N 0.4665(3) 0.5111(2) 0.3254(2)
C1A C 0.4273(4) 0.3789(3) 1.2778(2)
C2A C 0.4390(4) 0.3706(3) 1.1523(2)
C3A C 0.4937(4) 0.5025(3) 1.0682(2)
C4A C 0.5328(4) 0.6399(3) 1.1186(2)
C5A C 0.5156(4) 0.6409(3) 1.2451(2)
C6A C 0.8269(4) 0.2432(3) 0.3794(2)
C7A C 0.8883(4) 0.0701(3) 0.3307(2)
C8A C 1.0017(4) 0.0454(3) 0.2060(2)
C9A C 1.0449(4) -0.1135(3) 0.1583(2)
C10A C 0.9861(4) -0.2494(3) 0.2354(2)
C11A C 0.8810(4) -0.2271(3) 0.3599(2)
C12A C 0.8274(4) -0.0681(3) 0.4069(2)
H1A H 1.038(5) 0.254(4) 0.166(3)
H2A H 0.878(5) -0.448(4) 0.407(2)
H3A H 0.3899 0.2873 1.3332
H4A H 0.4096 0.2747 1.1230
H5A H 0.5713 0.7329 1.0653
H6A H 0.5393 0.7370 1.2774
H7A H 1.1147 -0.1293 0.0730
H8A H 1.0180 -0.3583 0.2028
H9A H 0.7493 -0.0523 0.4909
loop_
_geom_bond_atom_site_label_1
_geom_bond_atom_site_label_2
_geom_bond_site_symmetry_1
_geom_bond_site_symmetry_2
Cu1 O1 1_555 1_555
O1 C6 1_555 1_555
O2 C6 1_555 1_555
O3 C8 1_555 1_555
O4 C11 1_555 1_555
N1 Cu1 1_555 1_555
C1 N1 1_555 1_555
C2 C1 1_555 1_555
C3 C2 1_555 1_555
C4 C3 1_555 1_555
C5 N1 1_555 1_555
C6 C7 1_555 1_555
C7 C8 1_555 1_555
C8 C9 1_555 1_555
C9 C10 1_555 1_555
C10 C11 1_555 1_555
C11 C12 1_555 1_555
C12 C7 1_555 1_555
H1 O3 1_555 1_555
H2 O4 1_555 1_555
H3 C1 1_555 1_555
H4 C2 1_555 1_555
H5 C4 1_555 1_555
H6 C5 1_555 1_555
H7 C9 1_555 1_555
H8 C10 1_555 1_555
H9 C12 1_555 1_555
Cu1_2 O4A 1_555 1_555
Cu1_3 N1A 1_555 1_555
Cu1_4 O4 1_555 1_555
O1A Cu1 1_555 1_555
O2A C6A 1_555 1_555
O3A C8A 1_555 1_555
O4A C11A 1_555 1_555
O4_2 Cu1 1_555 1_555
O4A_2 Cu1 1_555 1_555
N1A C1A 1_555 1_555
N1A_2 Cu1 1_555 1_555
C1A C2A 1_555 1_555
C2A C3A 1_555 1_555
C3A C3 1_555 1_555
C4A C3A 1_555 1_555
C5A N1A 1_555 1_555
C6A O1A 1_555 1_555
C7A C6A 1_555 1_555
C8A C7A 1_555 1_555
C9A C8A 1_555 1_555
C10A C9A 1_555 1_555
C11A C10A 1_555 1_555
C12A C7A 1_555 1_555
H1A O3A 1_555 1_555
H2A O4A 1_555 1_555
H3A C1A 1_555 1_555
H4A C2A 1_555 1_555
H5A C4A 1_555 1_555
H6A C5A 1_555 1_555
H7A C9A 1_555 1_555
H8A C10A 1_555 1_555
H9A C12A 1_555 1_555
C4 C5 1_555 1_555
C4A C5A 1_555 1_555
C11A C12A 1_555 1_555

#END
