
#######################################################################
#
#                 Cambridge Crystallographic Data Centre
#                                CCDC 
#
#######################################################################
#
# If this CIF has been generated from an entry in the Cambridge 
# Structural Database, then it will include bibliographic, chemical, 
# crystal, experimental, refinement or atomic coordinate data resulting 
# from the CCDC's data processing and validation procedures.
#
#######################################################################

data_MAKZII
_symmetry_cell_setting           triclinic
_symmetry_space_group_name_H-M   'P -1'
_symmetry_Int_Tables_number      2
_space_group_name_Hall           '-P 1'
loop_
_symmetry_equiv_pos_site_id
_symmetry_equiv_pos_as_xyz
1 x,y,z
2 -x,-y,-z
_cell_length_a                   9.774(4)
_cell_length_b                   12.721(6)
_cell_length_c                   16.355(7)
_cell_angle_alpha                72.01(9)
_cell_angle_beta                 82.90(9)
_cell_angle_gamma                83.15(9)
_cell_volume                     1912.15
loop_
_atom_site_label
_atom_site_type_symbol
_atom_site_fract_x
_atom_site_fract_y
_atom_site_fract_z
Pr1 Pr 0.281721(15) 0.527499(12) 0.504114(10)
C1 C 0.5263(3) 0.6625(3) 0.2282(2)
C2 C 0.4114(4) 0.7140(3) 0.1871(2)
H1 H 0.333(4) 0.707(3) 0.213(3)
C3 C 0.4268(4) 0.7732(3) 0.1008(2)
C4 C 0.5516(4) 0.7903(3) 0.0517(2)
C5 C 0.6635(4) 0.7384(3) 0.0967(2)
C6 C 0.6538(4) 0.6752(3) 0.1827(2)
H2 H 0.732(4) 0.644(3) 0.208(2)
C7 C 0.5147(3) 0.5937(3) 0.3216(2)
C8 C 0.5659(5) 0.8669(4) -0.0403(3)
H3 H 0.4920 0.9250 -0.0479
H4 H 0.5617 0.8253 -0.0798
H5 H 0.6530 0.8987 -0.0513
C9 C -0.0324(3) 0.7768(2) 0.33910(19)
C10 C 0.0717(3) 0.8471(3) 0.3235(2)
H6 H 0.1481 0.8270 0.3555
C11 C 0.0605(4) 0.9480(3) 0.2593(2)
C12 C -0.0459(4) 0.9828(3) 0.2058(2)
C13 C -0.1477(3) 0.9090(3) 0.2253(2)
C14 C -0.1443(3) 0.8099(3) 0.2901(2)
H7 H -0.2171 0.7651 0.3011
C15 C -0.0257(3) 0.6663(2) 0.40721(19)
C16 C -0.0491(5) 1.0890(4) 0.1323(3)
H8 H -0.1398 1.1273 0.1331
H9 H -0.0269 1.0724 0.0786
H10 H 0.0175 1.1351 0.1385
C17 C 0.5479(3) 0.8150(2) 0.4568(2)
C18 C 0.5018(4) 0.9143(3) 0.3986(2)
H11 H 0.425(3) 0.918(3) 0.372(2)
C19 C 0.5786(4) 1.0042(3) 0.3791(2)
C20 C 0.6963(3) 1.0069(3) 0.4181(2)
C21 C 0.7327(3) 0.9069(3) 0.4786(2)
C22 C 0.6664(3) 0.8116(3) 0.4958(2)
H12 H 0.7012 0.7456 0.5335
C23 C 0.4690(3) 0.7151(2) 0.47675(19)
C24 C 0.7745(4) 1.1091(3) 0.3949(3)
H13 H 0.8709 1.0898 0.3818
H14 H 0.7635 1.1390 0.4428
H15 H 0.7388 1.1636 0.3455
N1 N 0.2969(5) 0.8150(3) 0.0595(3)
N2 N 0.8045(4) 0.7459(3) 0.0536(2)
N3 N 0.1745(4) 1.0194(3) 0.2474(2)
N4 N -0.2678(4) 0.9327(2) 0.1737(2)
N5 N 0.5303(4) 1.1046(2) 0.3108(2)
N6 N 0.8496(3) 0.8982(3) 0.5304(2)
O1 O 0.3948(2) 0.58408(19) 0.35894(13)
O2 O 0.6251(2) 0.5530(2) 0.35414(14)
O3 O 0.2901(4) 0.7924(3) -0.0089(2)
O4 O 0.2066(4) 0.8626(4) 0.0946(3)
O5 O 0.8238(4) 0.7378(3) -0.0188(2)
O6 O 0.8958(4) 0.7575(3) 0.0939(3)
O7 O 0.0751(2) 0.64102(17) 0.45153(14)
O8 O -0.1224(2) 0.60736(18) 0.41438(14)
O9 O 0.1432(4) 1.1170(3) 0.2432(2)
O10 O 0.2918(3) 0.9764(3) 0.2449(2)
O11 O -0.2477(3) 0.9703(3) 0.0954(2)
O12 O -0.3793(3) 0.9078(3) 0.2115(2)
O13 O 0.3433(2) 0.72880(18) 0.46488(17)
O14 O 0.5308(2) 0.61949(17) 0.50511(14)
O15 O 0.6030(4) 1.1337(3) 0.2442(2)
O16 O 0.4190(4) 1.1503(3) 0.3257(2)
O17 O 0.9265(3) 0.8141(2) 0.5440(2)
O18 O 0.8606(3) 0.9756(2) 0.55751(19)
O19 O 0.1819(2) 0.43896(19) 0.40592(15)
H24 H 0.1105 0.4113 0.4302
O20 O 0.1515(3) 0.61891(19) 0.61392(15)
H25 H 0.0957 0.6688 0.5897
Pr1A Pr 0.718279(15) 0.472501(12) 0.495886(10)
Pr1A_2 Pr -0.281721(15) 0.472501(12) 0.495886(10)
O2A O 0.3749(2) 0.4470(2) 0.64586(14)
O8A O 0.1224(2) 0.39264(18) 0.58562(14)
O14A O 0.4692(2) 0.38051(17) 0.49489(14)
C25 C -0.1074(6) 1.3706(4) 0.1723(3)
H16 H -0.027(5) 1.343(4) 0.198(3)
C26 C -0.1044(5) 1.3986(4) 0.0840(3)
H17 H -0.025(5) 1.388(4) 0.051(3)
C27 C -0.2246(4) 1.4431(3) 0.0450(2)
C28 C -0.2252(4) 1.4766(3) -0.0507(2)
C29 C -0.1477(5) 1.4141(4) -0.0970(3)
H18 H -0.095(4) 1.346(3) -0.068(3)
C30 C -0.1473(5) 1.4486(4) -0.1871(3)
H19 H -0.0942 1.4052 -0.2179
C31 C -0.3349(6) 1.4198(4) 0.1873(3)
H20 H -0.416(5) 1.419(4) 0.229(3)
C32 C -0.3420(5) 1.4533(4) 0.0990(3)
H21 H -0.429(5) 1.478(4) 0.079(3)
C33 C -0.2985(5) 1.5728(4) -0.0965(3)
H22 H -0.358(4) 1.625(4) -0.067(3)
C34 C -0.2908(5) 1.6002(4) -0.1850(3)
H23 H -0.3396 1.6654 -0.2145
N7 N -0.2197(4) 1.3803(3) 0.2249(2)
N8 N -0.2181(4) 1.5394(3) -0.2310(2)
loop_
_geom_bond_atom_site_label_1
_geom_bond_atom_site_label_2
_geom_bond_site_symmetry_1
_geom_bond_site_symmetry_2
Pr1 O1 1_555 1_555
C1 C2 1_555 1_555
C2 H1 1_555 1_555
C3 C2 1_555 1_555
C4 C3 1_555 1_555
C5 C4 1_555 1_555
C6 C1 1_555 1_555
H2 C6 1_555 1_555
C7 C1 1_555 1_555
C8 C4 1_555 1_555
H3 C8 1_555 1_555
H4 C8 1_555 1_555
H5 C8 1_555 1_555
C9 C10 1_555 1_555
C10 H6 1_555 1_555
C11 C10 1_555 1_555
C12 C11 1_555 1_555
C13 C12 1_555 1_555
C14 C9 1_555 1_555
H7 C14 1_555 1_555
C15 C9 1_555 1_555
C16 C12 1_555 1_555
H8 C16 1_555 1_555
H9 C16 1_555 1_555
H10 C16 1_555 1_555
C17 C18 1_555 1_555
C18 H11 1_555 1_555
C19 C18 1_555 1_555
C20 C19 1_555 1_555
C21 C20 1_555 1_555
C22 C17 1_555 1_555
H12 C22 1_555 1_555
C23 C17 1_555 1_555
C24 C20 1_555 1_555
H13 C24 1_555 1_555
H14 C24 1_555 1_555
H15 C24 1_555 1_555
C25 H16 1_555 1_555
C26 C25 1_555 1_555
H17 C26 1_555 1_555
C27 C26 1_555 1_555
C28 C27 1_555 1_555
C29 C28 1_555 1_555
H18 C29 1_555 1_555
C30 C29 1_555 1_555
H19 C30 1_555 1_555
C31 H20 1_555 1_555
C32 C27 1_555 1_555
H21 C32 1_555 1_555
C33 C28 1_555 1_555
H22 C33 1_555 1_555
C34 C33 1_555 1_555
H23 C34 1_555 1_555
N1 C3 1_555 1_555
N2 C5 1_555 1_555
N3 C11 1_555 1_555
N4 C13 1_555 1_555
N5 C19 1_555 1_555
N6 C21 1_555 1_555
N7 C25 1_555 1_555
N8 C30 1_555 1_555
O1 C7 1_555 1_555
O2 C7 1_555 1_555
O3 N1 1_555 1_555
O4 N1 1_555 1_555
O5 N2 1_555 1_555
O6 N2 1_555 1_555
O7 Pr1 1_555 1_555
O8 C15 1_555 1_555
O9 N3 1_555 1_555
O10 N3 1_555 1_555
O11 N4 1_555 1_555
O12 N4 1_555 1_555
O13 Pr1 1_555 1_555
O14 Pr1 1_555 1_555
O15 N5 1_555 1_555
O16 N5 1_555 1_555
O17 N6 1_555 1_555
O18 N6 1_555 1_555
O19 Pr1 1_555 1_555
H24 O19 1_555 1_555
O20 Pr1 1_555 1_555
H25 O20 1_555 1_555
Pr1A O2 1_555 1_555
Pr1A_2 O8 1_555 1_555
O2A Pr1 1_555 1_555
O8A Pr1 1_555 1_555
O14A Pr1 1_555 1_555
C5 C6 1_555 1_555
C13 C14 1_555 1_555
C15 O7 1_555 1_555
C21 C22 1_555 1_555
C23 O13 1_555 1_555
C23 O14 1_555 1_555
C31 C32 1_555 1_555
C31 N7 1_555 1_555
C34 N8 1_555 1_555
O14 Pr1A 1_555 1_555
Pr1A O14A 1_555 1_555

#END
