
#######################################################################
#
#                 Cambridge Crystallographic Data Centre
#                                CCDC 
#
#######################################################################
#
# If this CIF has been generated from an entry in the Cambridge 
# Structural Database, then it will include bibliographic, chemical, 
# crystal, experimental, refinement or atomic coordinate data resulting 
# from the CCDC's data processing and validation procedures.
#
#######################################################################

data_MALAMN
_symmetry_cell_setting           orthorhombic
_symmetry_space_group_name_H-M   'P 21 21 21'
_symmetry_Int_Tables_number      19
_space_group_name_Hall           'P 2ac 2ab'
loop_
_symmetry_equiv_pos_site_id
_symmetry_equiv_pos_as_xyz
1 x,y,z
2 1/2+x,1/2-y,-z
3 -x,1/2+y,1/2-z
4 1/2-x,-y,1/2+z
_cell_length_a                   9.219(7)
_cell_length_b                   9.421(6)
_cell_length_c                   10.536(7)
_cell_angle_alpha                90
_cell_angle_beta                 90
_cell_angle_gamma                90
_cell_volume                     915.075
loop_
_atom_site_label
_atom_site_type_symbol
_atom_site_fract_x
_atom_site_fract_y
_atom_site_fract_z
C1 C 0.25290 -0.15210 0.05050
C2 C 0.23810 -0.15980 0.19700
C3 C 0.12130 -0.26280 0.23490
C4 C 0.11690 -0.28910 0.37900
H1 H 0.10400 -0.00300 0.24000
H2 H 0.34800 -0.18600 0.22800
H3 H 0.03800 -0.21200 0.20000
H4 H 0.12600 -0.35000 0.20400
H5 H 0.48800 0.09800 0.21300
H6 H 0.54000 0.15800 0.10800
H7 H 0.22500 0.32200 0.32100
H8 H 0.28300 0.38200 0.23900
Mn1 Mn 0.23099 0.15856 0.11092
O1 O 0.23390 -0.03440 -0.00500
O2 O 0.28150 -0.26600 -0.00390
O3 O 0.20570 -0.01830 0.24430
O4 O -0.00010 -0.32370 0.42980
O5 O 0.23470 -0.27430 0.43930
O6 O 0.46740 0.12630 0.14500
O7 O 0.23110 0.32740 0.24750
Mn1B Mn -0.23099 -0.34144 0.38908
Mn1C Mn 0.26901 -0.15856 0.61092
O4B O 0.00010 0.17630 0.07020
O5C O 0.26530 0.27430 -0.06070
H9 H 0.46300 0.44800 0.07500
H10 H 0.40300 0.58900 0.08900
O8 O 0.41740 0.51900 0.13320
loop_
_geom_bond_atom_site_label_1
_geom_bond_atom_site_label_2
_geom_bond_site_symmetry_1
_geom_bond_site_symmetry_2
C1 C2 1_555 1_555
C2 C3 1_555 1_555
C3 C4 1_555 1_555
C4 O4 1_555 1_555
H1 O3 1_555 1_555
H2 C2 1_555 1_555
H3 C3 1_555 1_555
H4 C3 1_555 1_555
H5 O6 1_555 1_555
H6 O6 1_555 1_555
H7 O7 1_555 1_555
H8 O7 1_555 1_555
Mn1 O1 1_555 1_555
O1 C1 1_555 1_555
O2 C1 1_555 1_555
O3 C2 1_555 1_555
O4 Mn1B 1_555 1_555
O5 C4 1_555 1_555
O6 Mn1 1_555 1_555
O7 Mn1 1_555 1_555
H9 O8 1_555 1_555
H10 O8 1_555 1_555
Mn1C O5 1_555 1_555
O4B Mn1 1_555 1_555
O5C Mn1 1_555 1_555
Mn1 O3 1_555 1_555

#END
