
#######################################################################
#
#                 Cambridge Crystallographic Data Centre
#                                CCDC 
#
#######################################################################
#
# If this CIF has been generated from an entry in the Cambridge 
# Structural Database, then it will include bibliographic, chemical, 
# crystal, experimental, refinement or atomic coordinate data resulting 
# from the CCDC's data processing and validation procedures.
#
#######################################################################

data_MALAZN01
_symmetry_cell_setting           monoclinic
_symmetry_space_group_name_H-M   'P 1 1 21'
_symmetry_Int_Tables_number      4
_space_group_name_Hall           'P 2c'
loop_
_symmetry_equiv_pos_site_id
_symmetry_equiv_pos_as_xyz
1 x,y,z
2 -x,-y,1/2+z
_cell_length_a                   5.791(2)
_cell_length_b                   8.468(4)
_cell_length_c                   9.079(7)
_cell_angle_alpha                90
_cell_angle_beta                 90
_cell_angle_gamma                105.66(3)
_cell_volume                     428.691
loop_
_atom_site_label
_atom_site_type_symbol
_atom_site_fract_x
_atom_site_fract_y
_atom_site_fract_z
Zn1 Zn 0.02720 0.16490 -0.00270
O1 O 0.01490 0.39550 0.09670
O2 O 0.10790 0.24770 -0.21830
O3 O 0.61010 0.44960 0.20980
O4 O -0.04200 0.07910 0.21690
O5 O 0.37850 0.27350 0.05590
O6 O -0.03490 0.07250 0.46210
C1 C 0.19000 0.42870 0.21270
C2 C 0.00080 0.15000 0.33920
C3 C 0.09490 0.33470 0.35340
C4 C 0.41150 0.38250 0.15500
O8 O -0.33130 0.11280 -0.05780
H1 H 0.25100 0.55900 0.22400
H2 H -0.03600 0.37900 0.40600
H3 H 0.23100 0.36100 0.43000
H4 H -0.11700 0.40600 0.13300
H5 H -0.35200 0.13200 -0.14900
H6 H -0.42600 0.17900 -0.01400
H7 H 0.22200 0.32700 -0.24100
O6A O 0.03490 -0.07250 -0.03790
Zn1A Zn -0.02720 -0.16490 0.49730
O7 O -0.40820 0.14760 -0.35230
loop_
_geom_bond_atom_site_label_1
_geom_bond_atom_site_label_2
_geom_bond_site_symmetry_1
_geom_bond_site_symmetry_2
Zn1 O1 1_555 1_555
O1 C1 1_555 1_555
O2 Zn1 1_555 1_555
O3 C4 1_555 1_555
O4 Zn1 1_555 1_555
O5 Zn1 1_555 1_555
O6 C2 1_555 1_555
C1 C3 1_555 1_555
C2 O4 1_555 1_555
C3 C2 1_555 1_555
C4 O5 1_555 1_555
O8 Zn1 1_555 1_555
H1 C1 1_555 1_555
H2 C3 1_555 1_555
H3 C3 1_555 1_555
H4 O1 1_555 1_555
H5 O8 1_555 1_555
H6 O8 1_555 1_555
H7 O2 1_555 1_555
O6A Zn1 1_555 1_555
Zn1A O6 1_555 1_555
C1 C4 1_555 1_555

#END
