
#######################################################################
#
#                 Cambridge Crystallographic Data Centre
#                                CCDC 
#
#######################################################################
#
# If this CIF has been generated from an entry in the Cambridge 
# Structural Database, then it will include bibliographic, chemical, 
# crystal, experimental, refinement or atomic coordinate data resulting 
# from the CCDC's data processing and validation procedures.
#
#######################################################################

data_MALAZN
_symmetry_cell_setting           monoclinic
_symmetry_space_group_name_H-M   'P 21'
_symmetry_Int_Tables_number      4
_space_group_name_Hall           'P 2yb'
loop_
_symmetry_equiv_pos_site_id
_symmetry_equiv_pos_as_xyz
1 x,y,z
2 -x,1/2+y,-z
_cell_length_a                   8.901(7)
_cell_length_b                   9.087(6)
_cell_length_c                   5.803(3)
_cell_angle_alpha                90
_cell_angle_beta                 113.20(3)
_cell_angle_gamma                90
_cell_volume                     431.411
loop_
_atom_site_label
_atom_site_type_symbol
_atom_site_fract_x
_atom_site_fract_y
_atom_site_fract_z
C1 C 0.38230 0.09880 -0.03080
C2 C 0.42910 0.04050 0.23830
C3 C 0.33430 -0.10020 0.23630
C4 C 0.14780 -0.08760 0.14880
H1 H 0.45360 0.21590 0.40150
H2 H 0.54510 0.00780 0.30070
H3 H 0.36630 -0.15790 0.39740
H4 H 0.36300 -0.17820 0.12900
O1 O 0.27280 0.19680 -0.10530
O2 O 0.45010 0.04400 -0.16080
O3 O 0.39490 0.15700 0.38110
O4 O 0.07940 0.03520 0.12210
O5 O 0.07210 -0.20860 0.10840
O6 O 0.11370 0.31270 0.44270
O7 O 0.24870 0.47160 0.13900
Zn1 Zn 0.16466 0.25000 0.13700
Zn1A Zn -0.16466 -0.25000 -0.13700
O5A O -0.07210 0.29140 -0.10840
H5 H 0.06640 -0.36180 -0.43680
H6 H 0.12500 -0.49950 -0.49960
O8 O 0.14550 -0.39320 -0.44710
loop_
_geom_bond_atom_site_label_1
_geom_bond_atom_site_label_2
_geom_bond_site_symmetry_1
_geom_bond_site_symmetry_2
C1 C2 1_555 1_555
C2 C3 1_555 1_555
C3 C4 1_555 1_555
C4 O4 1_555 1_555
H1 O3 1_555 1_555
H2 C2 1_555 1_555
H3 C3 1_555 1_555
H4 C3 1_555 1_555
H5 O8 1_555 1_555
H6 O8 1_555 1_555
O1 C1 1_555 1_555
O2 C1 1_555 1_555
O3 C2 1_555 1_555
O4 Zn1 1_555 1_555
O5 C4 1_555 1_555
O6 Zn1 1_555 1_555
O7 Zn1 1_555 1_555
Zn1 O1 1_555 1_555
Zn1A O5 1_555 1_555
O5A Zn1 1_555 1_555
O3 Zn1 1_555 1_555

#END
