
#######################################################################
#
#                 Cambridge Crystallographic Data Centre
#                                CCDC 
#
#######################################################################
#
# If this CIF has been generated from an entry in the Cambridge 
# Structural Database, then it will include bibliographic, chemical, 
# crystal, experimental, refinement or atomic coordinate data resulting 
# from the CCDC's data processing and validation procedures.
#
#######################################################################

data_MALRAU
_symmetry_cell_setting           monoclinic
_symmetry_space_group_name_H-M   'P 21/c'
_symmetry_Int_Tables_number      14
_space_group_name_Hall           '-P 2ybc'
loop_
_symmetry_equiv_pos_site_id
_symmetry_equiv_pos_as_xyz
1 x,y,z
2 -x,1/2+y,1/2-z
3 -x,-y,-z
4 x,1/2-y,1/2+z
_cell_length_a                   13.419(3)
_cell_length_b                   5.720(2)
_cell_length_c                   15.309(4)
_cell_angle_alpha                90
_cell_angle_beta                 103.13(3)
_cell_angle_gamma                90
_cell_volume                     1144.35
loop_
_atom_site_label
_atom_site_type_symbol
_atom_site_fract_x
_atom_site_fract_y
_atom_site_fract_z
Co1 Co 0.387342(12) 0.51736(3) 0.338688(11)
S1 S 0.60919(2) 0.25407(5) 0.36444(2)
O1 O -0.20759(7) 0.53020(17) 0.02148(7)
H1 H -0.2244 0.4425 -0.0147
O2 O 0.40856(7) 0.83740(15) 0.40431(6)
H2 H 0.4019 0.8670 0.4588
H3 H 0.4615 0.8912 0.4076
O3 O 0.23073(7) 0.55558(15) 0.28333(6)
O4 O 0.35839(7) 0.35857(16) 0.45094(6)
H4 H 0.3133 0.2717 0.4572
H5 H 0.3876 0.4021 0.5029
O5 O 0.54816(7) 0.45706(15) 0.38616(6)
O6 O 0.57697(7) 0.21410(15) 0.26688(6)
O7 O 0.58880(7) 0.04517(15) 0.41412(7)
O8 O 0.71884(7) 0.31236(15) 0.39269(6)
N1 N 0.25392(8) 0.23731(18) 0.20333(8)
H6 H 0.2346 0.1386 0.1622
N2 N 0.35553(8) 0.21936(18) 0.25561(7)
H7 H 0.3955 0.2129 0.2154
H8 H 0.3575 0.0811 0.2837
C1 C 0.19595(9) 0.4130(2) 0.22203(8)
C2 C 0.08937(9) 0.4319(2) 0.16830(8)
C3 C 0.03453(9) 0.6345(2) 0.17848(9)
H9 H 0.0657 0.7523 0.2194
C4 C -0.06505(10) 0.6644(2) 0.12922(9)
H10 H -0.1017 0.8029 0.1360
C5 C -0.11136(9) 0.4901(2) 0.06955(9)
C6 C -0.05819(9) 0.2845(2) 0.06123(9)
H11 H -0.0903 0.1639 0.0222
C7 C 0.04159(9) 0.2565(2) 0.11005(9)
H12 H 0.0778 0.1170 0.1038
Co1A Co 0.612658(12) 0.01736(3) 0.161312(11)
O6A O 0.42303(7) 0.71410(15) 0.23312(6)
loop_
_geom_bond_atom_site_label_1
_geom_bond_atom_site_label_2
_geom_bond_site_symmetry_1
_geom_bond_site_symmetry_2
Co1 O2 1_555 1_555
S1 O5 1_555 1_555
O1 H1 1_555 1_555
O2 H2 1_555 1_555
H3 O2 1_555 1_555
O3 Co1 1_555 1_555
O4 Co1 1_555 1_555
H4 O4 1_555 1_555
H5 O4 1_555 1_555
O5 Co1 1_555 1_555
O6 S1 1_555 1_555
O7 S1 1_555 1_555
O8 S1 1_555 1_555
N1 H6 1_555 1_555
N2 Co1 1_555 1_555
H7 N2 1_555 1_555
H8 N2 1_555 1_555
C1 O3 1_555 1_555
C2 C1 1_555 1_555
C3 C2 1_555 1_555
H9 C3 1_555 1_555
C4 C3 1_555 1_555
H10 C4 1_555 1_555
C5 O1 1_555 1_555
C6 C5 1_555 1_555
H11 C6 1_555 1_555
C7 C2 1_555 1_555
H12 C7 1_555 1_555
Co1A O6 1_555 1_555
O6A Co1 1_555 1_555
N1 N2 1_555 1_555
N1 C1 1_555 1_555
C4 C5 1_555 1_555
C6 C7 1_555 1_555

#END
