
#######################################################################
#
#                 Cambridge Crystallographic Data Centre
#                                CCDC 
#
#######################################################################
#
# If this CIF has been generated from an entry in the Cambridge 
# Structural Database, then it will include bibliographic, chemical, 
# crystal, experimental, refinement or atomic coordinate data resulting 
# from the CCDC's data processing and validation procedures.
#
#######################################################################

data_MALYIJ
_symmetry_cell_setting           monoclinic
_symmetry_space_group_name_H-M   'P 21/c'
_symmetry_Int_Tables_number      14
_space_group_name_Hall           '-P 2ybc'
loop_
_symmetry_equiv_pos_site_id
_symmetry_equiv_pos_as_xyz
1 x,y,z
2 -x,1/2+y,1/2-z
3 -x,-y,-z
4 x,1/2-y,1/2+z
_cell_length_a                   14.868(4)
_cell_length_b                   25.174(6)
_cell_length_c                   22.523(6)
_cell_angle_alpha                90
_cell_angle_beta                 98.458(4)
_cell_angle_gamma                90
_cell_volume                     8338.38
loop_
_atom_site_label
_atom_site_type_symbol
_atom_site_fract_x
_atom_site_fract_y
_atom_site_fract_z
C1 C 0.5990(6) 0.5168(3) 0.4129(3)
C2 C 0.6007(5) 0.5416(3) 0.3515(3)
C3 C 0.5189(5) 0.5490(3) 0.3124(3)
H1 H 0.4641 0.5379 0.3235
C4 C 0.5204(5) 0.5736(3) 0.2563(3)
C5 C 0.6052(6) 0.5901(3) 0.2431(3)
C6 C 0.6859(5) 0.5842(3) 0.2807(4)
C7 C 0.6827(5) 0.5585(3) 0.3347(3)
H2 H 0.7366 0.5524 0.3604
C8 C 0.6224(6) 0.5972(3) 0.1342(4)
H3 H 0.6347 0.5618 0.1272
C9 C 0.6179(6) 0.6372(4) 0.0935(4)
H4 H 0.6267 0.6344 0.0536
C10 C 0.5907(5) 0.6696(3) 0.1795(3)
H5 H 0.5773 0.6933 0.2087
C11 C 0.5838(6) 0.7358(3) 0.0982(3)
C12 C 0.4966(5) 0.7485(3) 0.0695(3)
C13 C 0.4865(5) 0.8002(3) 0.0484(3)
H6 H 0.4299 0.8109 0.0287
C14 C 0.5570(5) 0.8367(3) 0.0553(3)
C15 C 0.6426(5) 0.8209(3) 0.0828(3)
H7 H 0.6904 0.8450 0.0861
C16 C 0.6586(5) 0.7702(3) 0.1053(3)
C17 C 0.5403(6) 0.8936(3) 0.0325(3)
C18 C 0.4307(5) 0.5827(3) 0.2151(3)
H8 H 0.4456 0.5942 0.1761
C19 C 0.3748(8) 0.5318(4) 0.2046(6)
H9 H 0.3640 0.5176 0.2424
H10 H 0.4076 0.5062 0.1844
H11 H 0.3178 0.5395 0.1802
C20 C 0.3743(7) 0.6262(5) 0.2378(4)
H12 H 0.3437 0.6124 0.2692
H13 H 0.3302 0.6388 0.2054
H14 H 0.4132 0.6550 0.2532
C21 C 0.7748(7) 0.6049(6) 0.2643(5)
H15 H 0.7622 0.6172 0.2226
C22 C 0.8050(9) 0.6546(7) 0.3038(8)
H16 H 0.7522 0.6743 0.3106
H17 H 0.8434 0.6767 0.2835
H18 H 0.8379 0.6433 0.3416
C23 C 0.8457(9) 0.5637(7) 0.2665(8)
H19 H 0.8733 0.5583 0.3074
H20 H 0.8912 0.5749 0.2431
H21 H 0.8189 0.5310 0.2506
C24 C 0.4159(6) 0.7109(3) 0.0635(4)
H22 H 0.4395 0.6767 0.0799
C25 C 0.3442(8) 0.7275(5) 0.1005(6)
H23 H 0.3276 0.7638 0.0918
H24 H 0.3677 0.7240 0.1424
H25 H 0.2916 0.7053 0.0910
C26 C 0.3783(8) 0.7009(5) -0.0019(5)
H26 H 0.3386 0.6706 -0.0048
H27 H 0.4276 0.6942 -0.0240
H28 H 0.3449 0.7315 -0.0182
C27 C 0.7527(6) 0.7542(3) 0.1354(4)
H29 H 0.7503 0.7168 0.1473
C28 C 0.7809(7) 0.7861(5) 0.1908(5)
H30 H 0.8383 0.7734 0.2108
H31 H 0.7359 0.7827 0.2171
H32 H 0.7865 0.8228 0.1802
C29 C 0.8244(7) 0.7595(5) 0.0952(6)
H33 H 0.8169 0.7318 0.0656
H34 H 0.8836 0.7567 0.1187
H35 H 0.8187 0.7935 0.0756
C30 C 1.2415(6) 0.0265(3) 0.8646(4)
C31 C 1.1711(5) 0.0531(3) 0.8207(3)
C32 C 1.0899(6) 0.0697(3) 0.8365(3)
H36 H 1.0811 0.0650 0.8762
C33 C 1.0199(6) 0.0931(3) 0.7975(4)
C34 C 1.0405(6) 0.1002(3) 0.7385(4)
C35 C 1.1198(6) 0.0860(3) 0.7186(3)
C36 C 1.1871(5) 0.0618(3) 0.7620(4)
H37 H 1.2425 0.0517 0.7509
C37 C 0.9084(6) 0.0941(4) 0.6526(4)
H38 H 0.9050 0.0574 0.6485
C38 C 0.9512(5) 0.1743(3) 0.6843(3)
H39 H 0.9821 0.2021 0.7054
C39 C 0.8565(6) 0.1301(4) 0.6201(4)
H40 H 0.8100 0.1225 0.5889
C40 C 0.8390(6) 0.2281(3) 0.6209(4)
C41 C 0.8734(5) 0.2571(3) 0.5751(4)
C42 C 0.8313(5) 0.3062(3) 0.5606(3)
H41 H 0.8509 0.3267 0.5306
C43 C 0.7604(5) 0.3255(3) 0.5898(3)
C44 C 0.7302(5) 0.2945(3) 0.6335(3)
H42 H 0.6832 0.3070 0.6528
C45 C 0.7681(6) 0.2451(3) 0.6493(3)
C46 C 0.7202(5) 0.3799(3) 0.5744(4)
C47 C 1.1384(8) 0.0952(5) 0.6546(4)
H43 H 1.0803 0.1031 0.6297
C48 C 1.1779(15) 0.0458(8) 0.6290(6)
H44 H 1.1966 0.0543 0.5911
H45 H 1.1325 0.0184 0.6235
H46 H 1.2294 0.0336 0.6564
C49 C 1.1991(12) 0.1431(8) 0.6533(6)
H47 H 1.1851 0.1687 0.6822
H48 H 1.1893 0.1586 0.6139
H49 H 1.2616 0.1324 0.6629
C50 C 0.9322(7) 0.1117(4) 0.8167(4)
H50 H 0.8887 0.1199 0.7808
C51 C 0.8924(9) 0.0682(7) 0.8524(8)
H51 H 0.9399 0.0529 0.8807
H52 H 0.8653 0.0411 0.8255
H53 H 0.8469 0.0833 0.8735
C52 C 0.9465(8) 0.1598(6) 0.8547(6)
H54 H 0.9818 0.1508 0.8925
H55 H 0.8886 0.1737 0.8614
H56 H 0.9782 0.1861 0.8349
C53 C 0.7336(7) 0.2121(3) 0.6977(4)
H57 H 0.7638 0.1774 0.7001
C54 C 0.6313(9) 0.2039(6) 0.6818(7)
H58 H 0.6045 0.2346 0.6610
H59 H 0.6052 0.1986 0.7179
H60 H 0.6198 0.1732 0.6564
C55 C 0.7539(10) 0.2401(5) 0.7601(5)
H61 H 0.8180 0.2467 0.7695
H62 H 0.7348 0.2176 0.7903
H63 H 0.7215 0.2731 0.7588
C56 C 0.9511(7) 0.2379(4) 0.5446(4)
H64 H 0.9665 0.2021 0.5599
C57 C 0.9257(9) 0.2331(6) 0.4784(5)
H65 H 0.9665 0.2089 0.4630
H66 H 0.9297 0.2674 0.4602
H67 H 0.8646 0.2200 0.4694
C58 C 1.0336(8) 0.2712(6) 0.5608(7)
H68 H 1.0845 0.2544 0.5468
H69 H 1.0459 0.2752 0.6037
H70 H 1.0238 0.3055 0.5425
Ce1 Ce 0.62790(3) 0.478493(15) 0.541036(16)
N1 N 0.6055(4) 0.6184(3) 0.1873(3)
N2 N 0.5979(4) 0.6822(2) 0.1226(3)
N3 N 0.8822(4) 0.1790(3) 0.6397(3)
N4 N 0.9682(4) 0.1225(3) 0.6935(3)
O1 O 0.6742(3) 0.5030(2) 0.4418(2)
O2 O 0.5248(4) 0.51087(18) 0.4318(2)
O3 O 0.6082(3) 0.92441(19) 0.0387(2)
O4 O 0.4594(4) 0.90475(18) 0.0105(2)
O5 O 1.3172(4) 0.0141(2) 0.8505(2)
O6 O 1.2201(3) 0.0172(2) 0.9159(3)
O7 O 0.6645(4) 0.3975(2) 0.6065(2)
O8 O 0.7415(3) 0.4046(2) 0.5296(2)
Ce1B Ce 0.37210(3) 0.521507(15) 0.458964(16)
Ce1C Ce 0.62790(3) 1.021507(15) 0.041036(16)
Ce1A Ce 0.37210(3) 0.978493(15) -0.041036(16)
Ce1A_2 Ce 1.37210(3) -0.021507(15) 0.958964(16)
O2B O 0.4752(4) 0.48913(18) 0.5682(2)
O3C O 0.6082(3) 0.57559(19) 0.5387(2)
O4A O 0.5406(4) 0.40475(18) 0.4895(2)
O5A O 0.6828(4) 0.5141(2) 0.6495(2)
O6A O 0.7799(3) 0.5172(2) 0.5841(3)
N5 N 0.5578(15) 0.4047(6) 0.2851(10)
O9 O 0.6223(12) 0.3826(6) 0.3424(7)
O10 O 0.4631(15) 0.3957(10) 0.2751(17)
O11 O 0.632(2) 0.4303(5) 0.2381(8)
loop_
_geom_bond_atom_site_label_1
_geom_bond_atom_site_label_2
_geom_bond_site_symmetry_1
_geom_bond_site_symmetry_2
C1 C2 1_555 1_555
C2 C3 1_555 1_555
C3 H1 1_555 1_555
C4 C3 1_555 1_555
C5 C4 1_555 1_555
C6 C5 1_555 1_555
C7 C2 1_555 1_555
H2 C7 1_555 1_555
C8 H3 1_555 1_555
C9 C8 1_555 1_555
H4 C9 1_555 1_555
C10 H5 1_555 1_555
C11 C12 1_555 1_555
C12 C13 1_555 1_555
C13 H6 1_555 1_555
C14 C13 1_555 1_555
C15 C14 1_555 1_555
H7 C15 1_555 1_555
C16 C11 1_555 1_555
C17 C14 1_555 1_555
C18 C4 1_555 1_555
H8 C18 1_555 1_555
C19 C18 1_555 1_555
H9 C19 1_555 1_555
H10 C19 1_555 1_555
H11 C19 1_555 1_555
C20 C18 1_555 1_555
H12 C20 1_555 1_555
H13 C20 1_555 1_555
H14 C20 1_555 1_555
C21 C6 1_555 1_555
H15 C21 1_555 1_555
C22 C21 1_555 1_555
H16 C22 1_555 1_555
H17 C22 1_555 1_555
H18 C22 1_555 1_555
C23 C21 1_555 1_555
H19 C23 1_555 1_555
H20 C23 1_555 1_555
H21 C23 1_555 1_555
C24 C12 1_555 1_555
H22 C24 1_555 1_555
C25 C24 1_555 1_555
H23 C25 1_555 1_555
H24 C25 1_555 1_555
H25 C25 1_555 1_555
C26 C24 1_555 1_555
H26 C26 1_555 1_555
H27 C26 1_555 1_555
H28 C26 1_555 1_555
C27 C16 1_555 1_555
H29 C27 1_555 1_555
C28 C27 1_555 1_555
H30 C28 1_555 1_555
H31 C28 1_555 1_555
H32 C28 1_555 1_555
C29 C27 1_555 1_555
H33 C29 1_555 1_555
H34 C29 1_555 1_555
H35 C29 1_555 1_555
C30 C31 1_555 1_555
C31 C32 1_555 1_555
C32 H36 1_555 1_555
C33 C32 1_555 1_555
C34 C33 1_555 1_555
C35 C34 1_555 1_555
C36 C31 1_555 1_555
H37 C36 1_555 1_555
C37 H38 1_555 1_555
C38 H39 1_555 1_555
C39 C37 1_555 1_555
H40 C39 1_555 1_555
C40 C41 1_555 1_555
C41 C42 1_555 1_555
C42 H41 1_555 1_555
C43 C42 1_555 1_555
C44 C43 1_555 1_555
H42 C44 1_555 1_555
C45 C40 1_555 1_555
C46 C43 1_555 1_555
C47 C35 1_555 1_555
H43 C47 1_555 1_555
C48 C47 1_555 1_555
H44 C48 1_555 1_555
H45 C48 1_555 1_555
H46 C48 1_555 1_555
C49 C47 1_555 1_555
H47 C49 1_555 1_555
H48 C49 1_555 1_555
H49 C49 1_555 1_555
C50 C33 1_555 1_555
H50 C50 1_555 1_555
C51 C50 1_555 1_555
H51 C51 1_555 1_555
H52 C51 1_555 1_555
H53 C51 1_555 1_555
C52 C50 1_555 1_555
H54 C52 1_555 1_555
H55 C52 1_555 1_555
H56 C52 1_555 1_555
C53 C45 1_555 1_555
H57 C53 1_555 1_555
C54 C53 1_555 1_555
H58 C54 1_555 1_555
H59 C54 1_555 1_555
H60 C54 1_555 1_555
C55 C53 1_555 1_555
H61 C55 1_555 1_555
H62 C55 1_555 1_555
H63 C55 1_555 1_555
C56 C41 1_555 1_555
H64 C56 1_555 1_555
C57 C56 1_555 1_555
H65 C57 1_555 1_555
H66 C57 1_555 1_555
H67 C57 1_555 1_555
C58 C56 1_555 1_555
H68 C58 1_555 1_555
H69 C58 1_555 1_555
H70 C58 1_555 1_555
Ce1 O1 1_555 1_555
N1 C5 1_555 1_555
N2 C9 1_555 1_555
N3 C38 1_555 1_555
N4 C34 1_555 1_555
O1 C1 1_555 1_555
O2 C1 1_555 1_555
O3 C17 1_555 1_555
O4 C17 1_555 1_555
O5 C30 1_555 1_555
O6 C30 1_555 1_555
O7 C46 1_555 1_555
O8 C46 1_555 1_555
N5 O9 1_555 1_555
O10 N5 1_555 1_555
O11 N5 1_555 1_555
Ce1B O2 1_555 1_555
Ce1C O3 1_555 1_555
Ce1A O4 1_555 1_555
Ce1A_2 O5 1_555 1_555
O2B Ce1 1_555 1_555
O3C Ce1 1_555 1_555
O4A Ce1 1_555 1_555
O5A Ce1 1_555 1_555
O6A Ce1 1_555 1_555
C6 C7 1_555 1_555
C8 N1 1_555 1_555
C10 N1 1_555 1_555
C10 N2 1_555 1_555
C11 N2 1_555 1_555
C15 C16 1_555 1_555
C35 C36 1_555 1_555
C37 N4 1_555 1_555
C38 N4 1_555 1_555
C39 N3 1_555 1_555
C40 N3 1_555 1_555
C44 C45 1_555 1_555
Ce1 O7 1_555 1_555
Ce1 O8 1_555 1_555
O6 Ce1A_2 1_555 1_555

#END
