
#######################################################################
#
#                 Cambridge Crystallographic Data Centre
#                                CCDC 
#
#######################################################################
#
# If this CIF has been generated from an entry in the Cambridge 
# Structural Database, then it will include bibliographic, chemical, 
# crystal, experimental, refinement or atomic coordinate data resulting 
# from the CCDC's data processing and validation procedures.
#
#######################################################################

data_MAMFEN
_symmetry_cell_setting           monoclinic
_symmetry_space_group_name_H-M   'P 21/c'
_symmetry_Int_Tables_number      14
_space_group_name_Hall           '-P 2ybc'
loop_
_symmetry_equiv_pos_site_id
_symmetry_equiv_pos_as_xyz
1 x,y,z
2 -x,1/2+y,1/2-z
3 -x,-y,-z
4 x,1/2-y,1/2+z
_cell_length_a                   7.233(3)
_cell_length_b                   26.683(7)
_cell_length_c                   11.579(4)
_cell_angle_alpha                90
_cell_angle_beta                 105.214(6)
_cell_angle_gamma                90
_cell_volume                     2156.4
loop_
_atom_site_label
_atom_site_type_symbol
_atom_site_fract_x
_atom_site_fract_y
_atom_site_fract_z
Cu1 Cu 0.24653(9) 0.62885(3) 0.51401(7)
N1 N 0.2539(7) 0.5724(2) 0.6321(6)
N2 N 0.2359(6) 0.57195(18) 0.4050(5)
N3 N 0.2561(9) 0.4903(2) 0.3874(7)
H1 H 0.2671 0.4590 0.4055
N4 N 0.1529(7) 0.68533(17) 0.3980(5)
N5 N 0.3406(7) 0.6832(2) 0.6264(6)
N6 N 0.3985(11) 0.7634(3) 0.6524(9)
H2 H 0.3959 0.7950 0.6382
C1 C 0.2452(10) 0.5756(4) 0.7421(9)
H3 H 0.2363 0.6073 0.7735
C2 C 0.2486(13) 0.5344(5) 0.8158(10)
H4 H 0.2507 0.5383 0.8960
C3 C 0.2489(16) 0.4897(5) 0.7681(14)
H5 H 0.2458 0.4612 0.8139
C4 C 0.2538(11) 0.4849(4) 0.6499(10)
H6 H 0.2602 0.4533 0.6170
C5 C 0.2493(8) 0.5272(3) 0.5817(8)
C6 C 0.2455(7) 0.5285(2) 0.4602(7)
C7 C 0.2385(10) 0.5623(3) 0.2952(8)
H7 H 0.2359 0.5863 0.2366
C8 C 0.2458(12) 0.5113(3) 0.2785(10)
H8 H 0.2440 0.4946 0.2077
C9 C 0.0428(10) 0.6834(3) 0.2906(8)
H9 H 0.0130 0.6525 0.2529
C10 C -0.0284(10) 0.7253(3) 0.2335(8)
H10 H -0.1053 0.7249 0.1554
C11 C 0.0156(13) 0.7671(3) 0.2933(10)
H11 H -0.0370 0.7961 0.2534
C12 C 0.1191(12) 0.7731(3) 0.3969(10)
H12 H 0.1452 0.8046 0.4318
C13 C 0.1925(10) 0.7296(2) 0.4563(8)
C14 C 0.3056(9) 0.7259(3) 0.5764(8)
C15 C 0.4593(10) 0.6898(3) 0.7361(8)
H13 H 0.5067 0.6636 0.7885
C16 C 0.5017(11) 0.7378(4) 0.7614(9)
H14 H 0.5783 0.7516 0.8315
Cl1 Cl -0.26939(17) 0.64516(5) 0.49670(15)
O1 O -0.1042(11) 0.6242(3) 0.5174(13)
O2 O -0.2815(11) 0.6951(2) 0.5240(6)
O3 O -0.331(2) 0.6416(3) 0.3728(8)
O4 O -0.3865(7) 0.6143(2) 0.5469(6)
Cu1_2 Cu -0.75347(9) 0.62885(3) 0.51401(7)
O4_2 O 0.6135(7) 0.6143(2) 0.5469(6)
Cl2 Cl 0.8498(4) 0.89622(12) 0.4610(3)
O5 O 0.7618(18) 0.8572(5) 0.4995(10)
O6 O 0.830(2) 0.8915(4) 0.3421(6)
O7 O 0.759(2) 0.9395(5) 0.4799(12)
O8 O 1.0357(12) 0.8982(6) 0.5198(11)
O9 O 0.417(3) 0.8625(3) 0.594(2)
H15 H 0.501(14) 0.866(9) 0.541(11)
H16 H 0.300(12) 0.879(8) 0.550(12)
loop_
_geom_bond_atom_site_label_1
_geom_bond_atom_site_label_2
_geom_bond_site_symmetry_1
_geom_bond_site_symmetry_2
Cu1 N1 1_555 1_555
N1 C1 1_555 1_555
N2 Cu1 1_555 1_555
N3 H1 1_555 1_555
N4 Cu1 1_555 1_555
N5 Cu1 1_555 1_555
N6 H2 1_555 1_555
C1 H3 1_555 1_555
C2 C1 1_555 1_555
H4 C2 1_555 1_555
C3 C2 1_555 1_555
H5 C3 1_555 1_555
C4 C3 1_555 1_555
H6 C4 1_555 1_555
C5 N1 1_555 1_555
C6 N2 1_555 1_555
C7 N2 1_555 1_555
H7 C7 1_555 1_555
C8 N3 1_555 1_555
H8 C8 1_555 1_555
C9 N4 1_555 1_555
H9 C9 1_555 1_555
C10 C9 1_555 1_555
H10 C10 1_555 1_555
C11 C10 1_555 1_555
H11 C11 1_555 1_555
C12 C11 1_555 1_555
H12 C12 1_555 1_555
C13 N4 1_555 1_555
C14 N5 1_555 1_555
C15 N5 1_555 1_555
H13 C15 1_555 1_555
C16 N6 1_555 1_555
H14 C16 1_555 1_555
Cl1 O1 1_555 1_555
O1 Cu1 1_555 1_555
O2 Cl1 1_555 1_555
O3 Cl1 1_555 1_555
O4 Cl1 1_555 1_555
Cl2 O5 1_555 1_555
O6 Cl2 1_555 1_555
O7 Cl2 1_555 1_555
O8 Cl2 1_555 1_555
O9 H15 1_555 1_555
H16 O9 1_555 1_555
Cu1_2 O4 1_555 1_555
O4_2 Cu1 1_555 1_555
N3 C6 1_555 1_555
N6 C14 1_555 1_555
C4 C5 1_555 1_555
C5 C6 1_555 1_555
C7 C8 1_555 1_555
C12 C13 1_555 1_555
C13 C14 1_555 1_555
C15 C16 1_555 1_555

#END
