
#######################################################################
#
#                 Cambridge Crystallographic Data Centre
#                                CCDC 
#
#######################################################################
#
# If this CIF has been generated from an entry in the Cambridge 
# Structural Database, then it will include bibliographic, chemical, 
# crystal, experimental, refinement or atomic coordinate data resulting 
# from the CCDC's data processing and validation procedures.
#
#######################################################################

data_MAMFIQ
_symmetry_cell_setting           monoclinic
_symmetry_space_group_name_H-M   'C 2/c'
_symmetry_Int_Tables_number      15
_space_group_name_Hall           '-C 2yn'
loop_
_symmetry_equiv_pos_site_id
_symmetry_equiv_pos_as_xyz
1 x,y,z
2 1/2+x,1/2+y,z
3 -x,y,1/2-z
4 1/2-x,1/2+y,1/2-z
5 -x,-y,-z
6 1/2-x,1/2-y,-z
7 x,-y,1/2+z
8 1/2+x,1/2-y,1/2+z
_cell_length_a                   13.0071(5)
_cell_length_b                   13.9756(6)
_cell_length_c                   9.7024(4)
_cell_angle_alpha                90
_cell_angle_beta                 96.042(2)
_cell_angle_gamma                90
_cell_volume                     1753.92
loop_
_atom_site_label
_atom_site_type_symbol
_atom_site_fract_x
_atom_site_fract_y
_atom_site_fract_z
Mn1 Mn 0.5000 0.0000 0.5000
O1 O 0.41826(7) 0.12726(7) 0.53685(10)
O2 O 0.36385(9) 0.17333(8) 0.32156(10)
O3 O 0.5000 0.04277(9) 0.2500
H1 H 0.4462 0.0828 0.2550
N1 N 0.64568(8) 0.08325(8) 0.54713(11)
N2 N 0.75457(9) 0.18694(9) 0.65951(12)
H2 H 0.7772 0.2302 0.7180
C1 C 0.65854(11) 0.14976(10) 0.64397(14)
H3 H 0.6064 0.1691 0.6964
C2 C 0.80973(10) 0.14256(10) 0.56403(14)
C3 C 0.91058(12) 0.15435(12) 0.53274(18)
H4 H 0.9559 0.1967 0.5818
C4 C 0.94009(12) 0.10015(14) 0.4253(2)
H5 H 1.0069 0.1064 0.4006
C5 C 0.87192(13) 0.03563(14) 0.3520(2)
H6 H 0.8945 0.0004 0.2797
C6 C 0.77226(12) 0.02352(11) 0.38494(16)
H7 H 0.7274 -0.0195 0.3364
C7 C 0.74104(10) 0.07780(9) 0.49333(14)
C8 C 0.36867(9) 0.18180(9) 0.45055(13)
C9 C 0.30768(9) 0.26289(9) 0.50757(14)
H8 H 0.3182 0.3214 0.4572
H9 H 0.3316 0.2733 0.6045
Mn1F Mn 0.5000 0.0000 0.0000
Mn1A Mn 0.0000 0.5000 0.5000
O1E O 0.08174(7) 0.37274(7) 0.46315(10)
O1D O 0.58174(7) -0.12726(7) 0.46315(10)
O2E O 0.13615(9) 0.32667(8) 0.67844(10)
O3F O 0.5000 -0.04277(9) 0.7500
H1B H 0.5538 0.0828 0.2450
H1F H 0.4462 -0.0828 0.7550
H1D H 0.5538 -0.0828 0.7450
N1D N 0.35432(8) -0.08325(8) 0.45287(11)
N2D N 0.24543(9) -0.18694(9) 0.34049(12)
H2D H 0.2228 -0.2302 0.2820
C1D C 0.34146(11) -0.14976(10) 0.35603(14)
H3D H 0.3936 -0.1691 0.3036
C2D C 0.19027(10) -0.14256(10) 0.43597(14)
C3D C 0.08942(12) -0.15435(12) 0.46726(18)
H4D H 0.0441 -0.1967 0.4182
C4D C 0.05991(12) -0.10015(14) 0.5747(2)
H5D H -0.0069 -0.1064 0.5994
C5D C 0.12808(13) -0.03563(14) 0.6480(2)
H6D H 0.1055 -0.0004 0.7203
C6D C 0.22774(12) -0.02352(11) 0.61506(16)
H7D H 0.2726 0.0195 0.6636
C7D C 0.25896(10) -0.07780(9) 0.50667(14)
C8E C 0.13133(9) 0.31820(9) 0.54945(13)
C9E C 0.19232(9) 0.23711(9) 0.49243(14)
H8E H 0.1818 0.1786 0.5428
H9E H 0.1684 0.2267 0.3955
loop_
_geom_bond_atom_site_label_1
_geom_bond_atom_site_label_2
_geom_bond_site_symmetry_1
_geom_bond_site_symmetry_2
Mn1 O1 1_555 1_555
O1 C8 1_555 1_555
O2 C8 1_555 1_555
O3 Mn1 1_555 1_555
H1 O3 1_555 1_555
N1 Mn1 1_555 1_555
N2 H2 1_555 1_555
C1 N1 1_555 1_555
H3 C1 1_555 1_555
C2 N2 1_555 1_555
C3 C2 1_555 1_555
H4 C3 1_555 1_555
C4 C3 1_555 1_555
H5 C4 1_555 1_555
C5 C4 1_555 1_555
H6 C5 1_555 1_555
C6 C5 1_555 1_555
H7 C6 1_555 1_555
C7 N1 1_555 1_555
C8 C9 1_555 1_555
C9 H8 1_555 1_555
H9 C9 1_555 1_555
Mn1F O3 1_555 1_555
Mn1A O1E 1_555 1_555
O1E C8E 1_555 1_555
O1D Mn1 1_555 1_555
O2E C8E 1_555 1_555
O3F Mn1 1_555 1_555
H1B O3 1_555 1_555
H1F O3F 1_555 1_555
H1D O3F 1_555 1_555
N1D Mn1 1_555 1_555
N2D H2D 1_555 1_555
C1D N1D 1_555 1_555
H3D C1D 1_555 1_555
C2D N2D 1_555 1_555
C3D C2D 1_555 1_555
H4D C3D 1_555 1_555
C4D C3D 1_555 1_555
H5D C4D 1_555 1_555
C5D C4D 1_555 1_555
H6D C5D 1_555 1_555
C6D C5D 1_555 1_555
H7D C6D 1_555 1_555
C7D N1D 1_555 1_555
C8E C9E 1_555 1_555
C9E C9 1_555 1_555
H8E C9E 1_555 1_555
H9E C9E 1_555 1_555
N2 C1 1_555 1_555
C2 C7 1_555 1_555
C6 C7 1_555 1_555
N2D C1D 1_555 1_555
C2D C7D 1_555 1_555
C6D C7D 1_555 1_555

#END
