
#######################################################################
#
#                 Cambridge Crystallographic Data Centre
#                                CCDC 
#
#######################################################################
#
# If this CIF has been generated from an entry in the Cambridge 
# Structural Database, then it will include bibliographic, chemical, 
# crystal, experimental, refinement or atomic coordinate data resulting 
# from the CCDC's data processing and validation procedures.
#
#######################################################################

data_MAMKEQ
_symmetry_cell_setting           monoclinic
_symmetry_space_group_name_H-M   'C 2/c'
_symmetry_Int_Tables_number      15
_space_group_name_Hall           '-C 2yn'
loop_
_symmetry_equiv_pos_site_id
_symmetry_equiv_pos_as_xyz
1 x,y,z
2 1/2+x,1/2+y,z
3 x,-y,1/2+z
4 1/2+x,1/2-y,1/2+z
5 -x,-y,-z
6 1/2-x,1/2-y,-z
7 -x,y,1/2-z
8 1/2-x,1/2+y,1/2-z
_cell_length_a                   17.918(2)
_cell_length_b                   11.397(1)
_cell_length_c                   23.071(2)
_cell_angle_alpha                90
_cell_angle_beta                 101.286(9)
_cell_angle_gamma                90
_cell_volume                     4620.26
loop_
_atom_site_label
_atom_site_type_symbol
_atom_site_fract_x
_atom_site_fract_y
_atom_site_fract_z
Co1 Co 0.0000 0.55201(7) -0.2500
O1 O -0.0265(2) 0.5506(3) -0.3407(1)
O2 O 0.1188(2) 0.5554(3) -0.2530(1)
N1 N 0.0000 -0.2594(4) -0.2500
N2 N 0.0000 0.3616(4) -0.2500
C1 C 0.0638(3) -0.1977(4) -0.2314(2)
C2 C 0.0662(3) -0.0769(4) -0.2311(2)
C3 C 0.0000 -0.0144(5) -0.2500
C4 C 0.0000 0.1160(5) -0.2500
C5 C 0.0529(3) 0.1798(4) -0.2739(2)
C6 C 0.0505(3) 0.2999(4) -0.2733(2)
H1 H 0.1103 -0.2408 -0.2169
H2 H 0.1140 -0.0357 -0.2173
H3 H -0.0057 0.6199 -0.3556
H4 H -0.0039 0.4836 -0.3553
H5 H 0.0926 0.1390 -0.2891
H6 H -0.0881 0.3427 -0.2095
H9 H 0.1299 0.6243 -0.2740
H12 H 0.1317 0.4879 -0.2738
C2F C -0.0662(3) -0.0769(4) -0.2689(2)
C1F C -0.0638(3) -0.1977(4) -0.2686(2)
H1F H -0.1103 -0.2408 -0.2831
H2F H -0.1140 -0.0357 -0.2827
Co1_2 Co 0.0000 -0.44799(7) -0.2500
O1F O 0.0265(2) 0.5506(3) -0.1593(1)
O2F O -0.1188(2) 0.5554(3) -0.2470(1)
N1F N 0.0000 0.7406(4) -0.2500
C6F C -0.0505(3) 0.2999(4) -0.2267(2)
C5F C -0.0529(3) 0.1798(4) -0.2261(2)
H5F H -0.0926 0.1390 -0.2109
H6F H 0.0881 0.3427 -0.2905
H3F H 0.0057 0.6199 -0.1444
H4F H 0.0039 0.4836 -0.1447
H9F H -0.1299 0.6243 -0.2260
H12F H -0.1317 0.4879 -0.2262
P1 P 0.28129(9) -0.1139(1) -0.12402(6)
F1 F 0.2096(2) -0.1883(4) -0.1202(2)
F2 F 0.2616(3) -0.1278(5) -0.1933(2)
F3 F 0.3341(3) -0.2232(4) -0.1206(2)
F4 F 0.2297(3) -0.0009(4) -0.1284(2)
F5 F 0.3515(3) -0.0334(4) -0.1317(2)
F6 F 0.3022(3) -0.0920(5) -0.0559(2)
N3 N 0.4277(3) 0.1444(4) 0.0853(2)
N4 N 0.2201(3) 0.4637(5) -0.1607(2)
C7 C 0.4181(4) 0.1063(5) 0.0295(3)
C8 C 0.3794(3) 0.1666(5) -0.0184(2)
C9 C 0.3472(3) 0.2737(4) -0.0112(2)
C10 C 0.3575(3) 0.3157(5) 0.0455(2)
C11 C 0.3979(3) 0.2491(5) 0.0921(2)
C12 C 0.3026(3) 0.3404(5) -0.0625(2)
C13 C 0.2735(3) 0.4510(5) -0.0569(2)
C14 C 0.2327(4) 0.5075(5) -0.1059(3)
C15 C 0.2480(4) 0.3584(7) -0.1652(2)
C16 C 0.2895(3) 0.2933(5) -0.1192(2)
H7 H 0.4399 0.0289 0.0230
H8 H 0.3747 0.1355 -0.0581
H10 H 0.3363 0.3913 0.0535
H11 H 0.4047 0.2797 0.1318
H13 H 0.2816 0.4882 -0.0183
H14 H 0.2103 0.5847 -0.1005
H15 H 0.2399 0.3219 -0.2044
H16 H 0.3101 0.2165 -0.1266
N5 N 0.5312(3) 0.2523(4) -0.0869(2)
C17 C 0.4844(3) 0.3403(5) -0.1086(2)
C18 C 0.4725(3) 0.4386(5) -0.0769(2)
C19 C 0.5069(3) 0.4490(4) -0.0183(2)
C20 C 0.5563(3) 0.3584(5) 0.0037(3)
C21 C 0.5655(4) 0.2655(5) -0.0313(3)
H17 H 0.4576 0.3349 -0.1490
H18 H 0.4393 0.5023 -0.0962
H19 H 0.5832 0.3619 0.0446
H20 H 0.6011 0.2045 -0.0143
C19D C 0.4931(3) 0.5510(4) 0.0183(2)
C18D C 0.5275(3) 0.5614(5) 0.0769(2)
C17D C 0.5156(3) 0.6597(5) 0.1086(2)
N5D N 0.4688(3) 0.7477(4) 0.0869(2)
C21D C 0.4345(4) 0.7345(5) 0.0313(3)
C20D C 0.4437(3) 0.6416(5) -0.0037(3)
H19D H 0.4168 0.6381 -0.0446
H20D H 0.3989 0.7955 0.0143
H17D H 0.5424 0.6651 0.1490
H18D H 0.5607 0.4977 0.0962
loop_
_geom_bond_atom_site_label_1
_geom_bond_atom_site_label_2
_geom_bond_site_symmetry_1
_geom_bond_site_symmetry_2
Co1 O1 1_555 1_555
P1 F1 1_555 1_555
F2 P1 1_555 1_555
F3 P1 1_555 1_555
F4 P1 1_555 1_555
F5 P1 1_555 1_555
F6 P1 1_555 1_555
O1 H3 1_555 1_555
O2 Co1 1_555 1_555
N1 C1 1_555 1_555
N2 Co1 1_555 1_555
N3 C7 1_555 1_555
N4 C14 1_555 1_555
N5 C17 1_555 1_555
C1 C2 1_555 1_555
C2 C3 1_555 1_555
C3 C4 1_555 1_555
C4 C5 1_555 1_555
C5 C6 1_555 1_555
C6 N2 1_555 1_555
C7 C8 1_555 1_555
C8 C9 1_555 1_555
C9 C10 1_555 1_555
C10 C11 1_555 1_555
C11 N3 1_555 1_555
C12 C9 1_555 1_555
C13 C12 1_555 1_555
C14 C13 1_555 1_555
C15 N4 1_555 1_555
C16 C12 1_555 1_555
C17 C18 1_555 1_555
C18 C19 1_555 1_555
C19 C20 1_555 1_555
C20 C21 1_555 1_555
C21 N5 1_555 1_555
H1 C1 1_555 1_555
H2 C2 1_555 1_555
H4 O1 1_555 1_555
H5 C5 1_555 1_555
H6 C6F 1_555 1_555
H7 C7 1_555 1_555
H8 C8 1_555 1_555
H9 O2 1_555 1_555
H10 C10 1_555 1_555
H11 C11 1_555 1_555
H12 O2 1_555 1_555
H13 C13 1_555 1_555
H14 C14 1_555 1_555
H15 C15 1_555 1_555
H16 C16 1_555 1_555
H17 C17 1_555 1_555
H18 C18 1_555 1_555
H19 C20 1_555 1_555
H20 C21 1_555 1_555
C2F C3 1_555 1_555
C1F N1 1_555 1_555
H1F C1F 1_555 1_555
H2F C2F 1_555 1_555
Co1_2 N1 1_555 1_555
O1F Co1 1_555 1_555
O2F Co1 1_555 1_555
N1F Co1 1_555 1_555
C6F N2 1_555 1_555
C5F C4 1_555 1_555
H5F C5F 1_555 1_555
H6F C6 1_555 1_555
C19D C19 1_555 1_555
C18D C19D 1_555 1_555
C17D C18D 1_555 1_555
N5D C17D 1_555 1_555
C21D N5D 1_555 1_555
C20D C19D 1_555 1_555
H19D C20D 1_555 1_555
H20D C21D 1_555 1_555
H17D C17D 1_555 1_555
H18D C18D 1_555 1_555
H3F O1F 1_555 1_555
H4F O1F 1_555 1_555
H9F O2F 1_555 1_555
H12F O2F 1_555 1_555
C15 C16 1_555 1_555
C2F C1F 1_555 1_555
C6F C5F 1_555 1_555
C21D C20D 1_555 1_555

#END
