
#######################################################################
#
#                 Cambridge Crystallographic Data Centre
#                                CCDC 
#
#######################################################################
#
# If this CIF has been generated from an entry in the Cambridge 
# Structural Database, then it will include bibliographic, chemical, 
# crystal, experimental, refinement or atomic coordinate data resulting 
# from the CCDC's data processing and validation procedures.
#
#######################################################################

data_MAMXAB
_symmetry_cell_setting           monoclinic
_symmetry_space_group_name_H-M   'P 21'
_symmetry_Int_Tables_number      4
_space_group_name_Hall           'P 2yb'
loop_
_symmetry_equiv_pos_site_id
_symmetry_equiv_pos_as_xyz
1 x,y,z
2 -x,1/2+y,-z
_cell_length_a                   17.5092(10)
_cell_length_b                   10.4960(6)
_cell_length_c                   18.0138(11)
_cell_angle_alpha                90
_cell_angle_beta                 100.2210(10)
_cell_angle_gamma                90
_cell_volume                     3257.98
loop_
_atom_site_label
_atom_site_type_symbol
_atom_site_fract_x
_atom_site_fract_y
_atom_site_fract_z
C1 C -0.1544(4) -0.2043(10) 0.5783(5)
H1 H -0.1450 -0.1525 0.6249
H2 H -0.1245 -0.2844 0.5885
C2 C -0.2408(5) -0.2365(8) 0.5589(5)
C3 C -0.2825(5) -0.2488(9) 0.6173(5)
H3 H -0.2573 -0.2377 0.6682
C4 C -0.3607(5) -0.2774(8) 0.6010(5)
H4 H -0.3898 -0.2831 0.6407
C5 C -0.3560(5) -0.2889(8) 0.4721(5)
H5 H -0.3814 -0.3051 0.4219
C6 C -0.2781(5) -0.2570(8) 0.4857(6)
H6 H -0.2505 -0.2492 0.4450
C7 C -0.1294(5) 0.0042(8) 0.5263(6)
H7 H -0.1051 0.0445 0.4866
H8 H -0.0998 0.0303 0.5760
C8 C -0.2141(5) 0.0497(8) 0.5188(5)
C9 C -0.2483(5) 0.0734(9) 0.5803(6)
H9 H -0.2185 0.0672 0.6297
C10 C -0.3252(5) 0.1059(11) 0.5708(5)
H10 H -0.3478 0.1249 0.6137
C11 C -0.3370(5) 0.0927(10) 0.4407(5)
H11 H -0.3676 0.1008 0.3919
C12 C -0.2594(5) 0.0620(9) 0.4479(6)
H12 H -0.2371 0.0492 0.4041
C13 C -0.0567(5) -0.1786(8) 0.4915(5)
H13 H -0.0561 -0.1338 0.4426
C14 C -0.0620(5) -0.3192(9) 0.4745(6)
H14 H -0.0505 -0.3674 0.5218
H15 H -0.0245 -0.3418 0.4423
H16 H -0.1146 -0.3398 0.4484
C15 C 0.0220(5) -0.1475(8) 0.5443(5)
C16 C 0.0268(5) -0.1344(9) 0.6210(5)
H17 H -0.0189 -0.1452 0.6420
C17 C 0.0968(5) -0.1055(11) 0.6693(6)
H18 H 0.0985 -0.0923 0.7218
C18 C 0.1633(5) -0.0970(10) 0.6380(7)
H19 H 0.2115 -0.0817 0.6703
C19 C 0.1622(5) -0.1098(10) 0.5617(7)
C20 C 0.2309(6) -0.0913(11) 0.5292(9)
H20 H 0.2791 -0.0751 0.5611
C21 C 0.2273(6) -0.0969(9) 0.4536(9)
H21 H 0.2724 -0.0797 0.4327
C22 C 0.1565(7) -0.1283(12) 0.4053(8)
H22 H 0.1550 -0.1353 0.3525
C23 C 0.0916(5) -0.1482(9) 0.4340(6)
H23 H 0.0453 -0.1707 0.4006
C24 C 0.0894(5) -0.1367(9) 0.5126(6)
C49 C -0.4644(6) -0.0538(9) 0.7388(6)
C50 C -0.6291(6) -0.1058(10) 0.2927(7)
F1 F -0.4972(5) -0.1034(7) 0.7929(4)
F2 F -0.3954(4) -0.1152(9) 0.7439(5)
F3 F -0.4495(5) 0.0663(7) 0.7554(4)
F4 F -0.6020(6) -0.1149(11) 0.2303(5)
F5 F -0.6661(5) 0.0029(8) 0.2898(5)
F6 F -0.6790(4) -0.2015(8) 0.2947(5)
Hg1 Hg -0.513290(16) -0.34225(3) 0.510510(18)
N1 N -0.1265(4) -0.1354(8) 0.5190(5)
N2 N -0.3961(4) -0.2973(7) 0.5284(5)
N3 N -0.3694(4) 0.1112(8) 0.5012(4)
O1 O -0.4773(4) -0.0221(8) 0.5950(4)
O2 O -0.5937(4) -0.0071(7) 0.6531(4)
O3 O -0.5334(4) -0.2127(7) 0.6380(4)
O4 O -0.5075(4) 0.0047(8) 0.3636(5)
O5 O -0.5148(4) -0.2315(7) 0.3706(5)
O6 O -0.5905(5) -0.0987(12) 0.4390(6)
S1 S -0.52398(13) -0.0758(2) 0.64609(14)
S2 S -0.55048(13) -0.1087(3) 0.37498(17)
Hg1A Hg -0.486710(16) 0.15775(3) 0.489490(18)
N3A N -0.6306(4) -0.3888(8) 0.4988(4)
O1A O -0.5227(4) -0.5221(8) 0.4050(4)
O4A O -0.4925(4) -0.4953(8) 0.6364(5)
C25 C -0.3300(5) 0.1932(8) 0.0454(6)
H24 H -0.3251 0.1542 0.0961
H25 H -0.3601 0.2730 0.0457
C26 C -0.2497(5) 0.2256(8) 0.0305(5)
C27 C -0.2316(5) 0.2394(10) -0.0416(6)
H26 H -0.2703 0.2240 -0.0847
C28 C -0.1585(5) 0.2750(10) -0.0506(5)
H27 H -0.1476 0.2849 -0.1000
C29 C -0.1168(5) 0.2823(9) 0.0791(5)
H28 H -0.0764 0.2957 0.1211
C30 C -0.1892(5) 0.2491(8) 0.0913(5)
H29 H -0.1986 0.2420 0.1415
C31 C -0.3645(5) -0.0267(10) 0.0135(6)
H30 H -0.4006 -0.0798 -0.0222
H31 H -0.3777 -0.0368 0.0644
C32 C -0.2820(5) -0.0698(9) 0.0144(6)
C33 C -0.2560(5) -0.0860(10) -0.0545(6)
H32 H -0.2915 -0.0789 -0.1008
C34 C -0.1792(5) -0.1122(10) -0.0546(6)
H33 H -0.1617 -0.1198 -0.1013
C35 C -0.1540(5) -0.1158(9) 0.0753(6)
H34 H -0.1185 -0.1296 0.1210
C36 C -0.2294(5) -0.0850(10) 0.0791(6)
H35 H -0.2449 -0.0743 0.1267
C37 C -0.4527(5) 0.1432(10) -0.0464(5)
H36 H -0.4663 0.0856 -0.0910
C38 C -0.4558(6) 0.2768(11) -0.0777(6)
H37 H -0.4540 0.3382 -0.0364
H38 H -0.5041 0.2883 -0.1140
H39 H -0.4114 0.2908 -0.1030
C39 C -0.5170(4) 0.1246(9) 0.0012(6)
C40 C -0.5026(6) 0.1345(9) 0.0777(6)
H40 H -0.4508 0.1495 0.1026
C41 C -0.5610(7) 0.1234(10) 0.1207(8)
H41 H -0.5484 0.1293 0.1741
C42 C -0.6357(7) 0.1043(12) 0.0866(9)
H42 H -0.6754 0.0998 0.1162
C43 C -0.6548(5) 0.0910(11) 0.0074(8)
C44 C -0.7324(7) 0.0708(12) -0.0322(11)
H43 H -0.7733 0.0647 -0.0040
C45 C -0.7493(7) 0.0606(11) -0.1058(11)
H44 H -0.8017 0.0474 -0.1294
C46 C -0.6910(7) 0.0687(13) -0.1508(8)
H45 H -0.7039 0.0602 -0.2040
C47 C -0.6158(5) 0.0891(10) -0.1166(7)
H46 H -0.5764 0.0960 -0.1465
C48 C -0.5962(5) 0.1002(10) -0.0366(7)
C51 C 0.1515(8) 0.0698(10) 0.2014(7)
C52 C -0.0868(6) 0.0795(11) -0.2272(5)
F7 F 0.2111(4) 0.1477(8) 0.2000(4)
F8 F 0.1764(6) -0.0489(8) 0.2037(6)
F9 F 0.1255(5) 0.0935(9) 0.2663(4)
F10 F -0.0672(5) 0.1300(7) -0.2885(4)
F11 F -0.1506(4) 0.1414(7) -0.2150(4)
F12 F -0.1061(4) -0.0392(7) -0.2424(4)
Hg2 Hg -0.010940(17) -0.15680(2) 0.005620(19)
N4 N -0.3726(4) 0.1071(8) -0.0095(5)
N5 N -0.1015(4) 0.2962(8) 0.0094(4)
N6 N -0.1284(4) -0.1272(8) 0.0101(5)
O7 O 0.1136(5) 0.0843(10) 0.0580(5)
O8 O 0.0567(4) 0.2316(6) 0.1304(4)
O9 O 0.0168(6) 0.0079(9) 0.1248(5)
O10 O -0.0414(4) 0.0392(9) -0.0859(4)
O11 O 0.0550(4) 0.0248(8) -0.1677(5)
O12 O 0.0012(5) 0.2318(7) -0.1399(4)
S3 S 0.07590(14) 0.0997(3) 0.12031(14)
S4 S -0.00870(13) 0.0951(2) -0.14580(13)
Hg2A Hg 0.010940(17) 0.34320(2) -0.005620(19)
N5A N 0.1015(4) -0.2038(8) -0.0094(4)
O8A O -0.0567(4) -0.2684(6) -0.1304(4)
O12A O -0.0012(5) -0.2682(7) 0.1399(4)
C53 C -0.9385(8) 0.5678(14) 0.7209(8)
H47 H -0.9160 0.5787 0.7744
H48 H -0.9711 0.4913 0.7147
H49 H -0.9701 0.6424 0.7031
O13 O -0.8751(6) 0.5539(11) 0.6764(6)
H59 H -0.8322 0.5671 0.7045
C54 C -0.3833(8) 0.846(2) 0.2667(9)
H50 H -0.3871 0.7544 0.2558
H51 H -0.4309 0.8885 0.2422
H52 H -0.3762 0.8591 0.3214
O14 O -0.3163(7) 0.8996(11) 0.2378(8)
C55 C -0.3303(6) 0.2297(12) 0.2552(7)
H53 H -0.3188 0.2636 0.3067
H54 H -0.3808 0.1868 0.2472
H55 H -0.3315 0.2998 0.2190
O15 O -0.2696(6) 0.1378(9) 0.2442(6)
H60 H -0.2840 0.0975 0.2039
C56 C -0.1350(8) 0.7305(13) 0.2727(7)
H56 H -0.0799 0.7417 0.2941
H57 H -0.1441 0.7543 0.2193
H58 H -0.1495 0.6411 0.2776
O16 O -0.1825(6) 0.8126(11) 0.3137(6)
H61 H -0.2073 0.8654 0.2836
loop_
_geom_bond_atom_site_label_1
_geom_bond_atom_site_label_2
_geom_bond_site_symmetry_1
_geom_bond_site_symmetry_2
C1 H1 1_555 1_555
H2 C1 1_555 1_555
C2 C1 1_555 1_555
C3 C2 1_555 1_555
H3 C3 1_555 1_555
C4 C3 1_555 1_555
H4 C4 1_555 1_555
C5 H5 1_555 1_555
C6 C2 1_555 1_555
H6 C6 1_555 1_555
C7 H7 1_555 1_555
H8 C7 1_555 1_555
C8 C7 1_555 1_555
C9 C8 1_555 1_555
H9 C9 1_555 1_555
C10 C9 1_555 1_555
H10 C10 1_555 1_555
C11 H11 1_555 1_555
C12 C8 1_555 1_555
H12 C12 1_555 1_555
C13 H13 1_555 1_555
C14 C13 1_555 1_555
H14 C14 1_555 1_555
H15 C14 1_555 1_555
H16 C14 1_555 1_555
C15 C13 1_555 1_555
C16 C15 1_555 1_555
H17 C16 1_555 1_555
C17 C16 1_555 1_555
H18 C17 1_555 1_555
C18 C17 1_555 1_555
H19 C18 1_555 1_555
C19 C18 1_555 1_555
C20 C19 1_555 1_555
H20 C20 1_555 1_555
C21 C20 1_555 1_555
H21 C21 1_555 1_555
C22 C21 1_555 1_555
H22 C22 1_555 1_555
C23 C22 1_555 1_555
H23 C23 1_555 1_555
C24 C15 1_555 1_555
C25 H24 1_555 1_555
H25 C25 1_555 1_555
C26 C25 1_555 1_555
C27 C26 1_555 1_555
H26 C27 1_555 1_555
C28 C27 1_555 1_555
H27 C28 1_555 1_555
C29 H28 1_555 1_555
C30 C26 1_555 1_555
H29 C30 1_555 1_555
C31 H30 1_555 1_555
H31 C31 1_555 1_555
C32 C31 1_555 1_555
C33 C32 1_555 1_555
H32 C33 1_555 1_555
C34 C33 1_555 1_555
H33 C34 1_555 1_555
C35 H34 1_555 1_555
C36 C32 1_555 1_555
H35 C36 1_555 1_555
C37 H36 1_555 1_555
C38 C37 1_555 1_555
H37 C38 1_555 1_555
H38 C38 1_555 1_555
H39 C38 1_555 1_555
C39 C37 1_555 1_555
C40 C39 1_555 1_555
H40 C40 1_555 1_555
C41 C40 1_555 1_555
H41 C41 1_555 1_555
C42 C41 1_555 1_555
H42 C42 1_555 1_555
C43 C42 1_555 1_555
C44 C43 1_555 1_555
H43 C44 1_555 1_555
C45 C44 1_555 1_555
H44 C45 1_555 1_555
C46 C45 1_555 1_555
H45 C46 1_555 1_555
C47 C46 1_555 1_555
H46 C47 1_555 1_555
C48 C39 1_555 1_555
C49 F1 1_555 1_555
C50 F4 1_555 1_555
C51 F7 1_555 1_555
C52 F10 1_555 1_555
C53 H47 1_555 1_555
H48 C53 1_555 1_555
H49 C53 1_555 1_555
C54 H50 1_555 1_555
H51 C54 1_555 1_555
H52 C54 1_555 1_555
C55 H53 1_555 1_555
H54 C55 1_555 1_555
H55 C55 1_555 1_555
C56 H56 1_555 1_555
H57 C56 1_555 1_555
H58 C56 1_555 1_555
F2 C49 1_555 1_555
F3 C49 1_555 1_555
F5 C50 1_555 1_555
F6 C50 1_555 1_555
F8 C51 1_555 1_555
F9 C51 1_555 1_555
F11 C52 1_555 1_555
F12 C52 1_555 1_555
Hg1 N2 1_555 1_555
Hg2 N6 1_555 1_555
N1 C1 1_555 1_555
N2 C4 1_555 1_555
N3 C10 1_555 1_555
N4 C25 1_555 1_555
N5 C28 1_555 1_555
N6 C34 1_555 1_555
O1 S1 1_555 1_555
O2 S1 1_555 1_555
O3 Hg1 1_555 1_555
O4 S2 1_555 1_555
O5 Hg1 1_555 1_555
O6 S2 1_555 1_555
O7 S3 1_555 1_555
O8 S3 1_555 1_555
O9 Hg2 1_555 1_555
O10 Hg2 1_555 1_555
O11 S4 1_555 1_555
O12 S4 1_555 1_555
O13 C53 1_555 1_555
H59 O13 1_555 1_555
O14 C54 1_555 1_555
O15 C55 1_555 1_555
H60 O15 1_555 1_555
O16 C56 1_555 1_555
H61 O16 1_555 1_555
S1 C49 1_555 1_555
S2 C50 1_555 1_555
S3 C51 1_555 1_555
S4 C52 1_555 1_555
Hg1A N3 1_555 1_555
Hg2A N5 1_555 1_555
N3A Hg1 1_555 1_555
N5A Hg2 1_555 1_555
O1A Hg1 1_555 1_555
O4A Hg1 1_555 1_555
O8A Hg2 1_555 1_555
O12A Hg2 1_555 1_555
C5 C6 1_555 1_555
C5 N2 1_555 1_555
C7 N1 1_555 1_555
C11 C12 1_555 1_555
C11 N3 1_555 1_555
C13 N1 1_555 1_555
C19 C24 1_555 1_555
C23 C24 1_555 1_555
C29 C30 1_555 1_555
C29 N5 1_555 1_555
C31 N4 1_555 1_555
C35 C36 1_555 1_555
C35 N6 1_555 1_555
C37 N4 1_555 1_555
C43 C48 1_555 1_555
C47 C48 1_555 1_555
O1 Hg1A 1_555 1_555
O3 S1 1_555 1_555
O4 Hg1A 1_555 1_555
O5 S2 1_555 1_555
O8 Hg2A 1_555 1_555
O9 S3 1_555 1_555
O10 S4 1_555 1_555
O12 Hg2A 1_555 1_555

#END
