
#######################################################################
#
#                 Cambridge Crystallographic Data Centre
#                                CCDC 
#
#######################################################################
#
# If this CIF has been generated from an entry in the Cambridge 
# Structural Database, then it will include bibliographic, chemical, 
# crystal, experimental, refinement or atomic coordinate data resulting 
# from the CCDC's data processing and validation procedures.
#
#######################################################################

data_MANLIX
_symmetry_cell_setting           cubic
_symmetry_space_group_name_H-M   'I a -3 d'
_symmetry_Int_Tables_number      230
_space_group_name_Hall           '-I 4bd 2c 3'
loop_
_symmetry_equiv_pos_site_id
_symmetry_equiv_pos_as_xyz
1 x,y,z
2 1/4-y,3/4+x,1/4+z
3 1/2+x,1/2-y,-z
4 z,x,y
5 1/2-x,-y,1/2+z
6 3/4+y,1/4+x,1/4-z
7 1/4-x,3/4+z,1/4+y
8 1/4+y,1/4-x,3/4+z
9 -x,1/2+y,1/2-z
10 1/2-z,-x,1/2+y
11 3/4-y,3/4-x,3/4-z
12 1/4+x,1/4-z,3/4+y
13 1/2+z,1/2-x,-y
14 3/4-x,3/4-z,3/4-y
15 -z,1/2+x,1/2-y
16 3/4+x,1/4+z,1/4-y
17 y,z,x
18 3/4+z,3/4-y,1/4+x
19 1/4-z,3/4+y,1/4+x
20 3/4+z,1/4+y,1/4-x
21 1/2+y,1/2-z,-x
22 3/4-z,3/4-y,3/4-x
23 -y,1/2+z,1/2-x
24 1/2-y,-z,1/2+x
25 1/4+z,1/4-y,3/4+x
26 1/2+x,1/2+y,1/2+z
27 3/4-y,1/4+x,3/4+z
28 x,-y,1/2-z
29 1/2+z,1/2+x,1/2+y
30 -x,1/2-y,z
31 1/4+y,3/4+x,3/4-z
32 3/4-x,1/4+z,3/4+y
33 3/4+y,3/4-x,1/4+z
34 1/2-x,y,-z
35 -z,1/2-x,y
36 1/4-y,1/4-x,1/4-z
37 3/4+x,3/4-z,1/4+y
38 z,-x,1/2-y
39 1/4-x,1/4-z,1/4-y
40 1/2-z,x,-y
41 1/4+x,3/4+z,3/4-y
42 1/2+y,1/2+z,1/2+x
43 3/4-z,1/4+y,3/4+x
44 1/4+z,3/4+y,3/4-x
45 y,-z,1/2-x
46 1/4-z,1/4-y,1/4-x
47 1/2-y,z,-x
48 -y,1/2-z,x
49 -x,-y,-z
50 3/4+y,1/4-x,3/4-z
51 1/2-x,1/2+y,z
52 -z,-x,-y
53 1/2+x,y,1/2-z
54 1/4-y,3/4-x,3/4+z
55 3/4+x,1/4-z,3/4-y
56 3/4-y,3/4+x,1/4-z
57 x,1/2-y,1/2+z
58 1/2+z,x,1/2-y
59 1/4+y,1/4+x,1/4+z
60 3/4-x,3/4+z,1/4-y
61 1/2-z,1/2+x,y
62 1/4+x,1/4+z,1/4+y
63 z,1/2-x,1/2+y
64 1/4-x,3/4-z,3/4+y
65 -y,-z,-x
66 1/4-z,1/4+y,3/4-x
67 3/4+z,1/4-y,3/4-x
68 1/4-z,3/4-y,3/4+x
69 1/2-y,1/2+z,x
70 1/4+z,1/4+y,1/4+x
71 y,1/2-z,1/2+x
72 1/2+y,z,1/2-x
73 3/4-z,3/4+y,1/4-x
74 1/2-x,1/2-y,1/2-z
75 1/4+y,3/4-x,1/4-z
76 -x,y,1/2+z
77 1/2-z,1/2-x,1/2-y
78 x,1/2+y,-z
79 3/4-y,1/4-x,1/4+z
80 1/4+x,3/4-z,1/4-y
81 1/4-y,1/4+x,3/4-z
82 1/2+x,-y,z
83 z,1/2+x,-y
84 3/4+y,3/4+x,3/4+z
85 1/4-x,1/4+z,3/4-y
86 -z,x,1/2+y
87 3/4+x,3/4+z,3/4+y
88 1/2+z,-x,y
89 3/4-x,1/4-z,1/4+y
90 1/2-y,1/2-z,1/2-x
91 1/4+z,3/4-y,1/4-x
92 3/4-z,1/4-y,1/4+x
93 -y,z,1/2+x
94 3/4+z,3/4+y,3/4+x
95 1/2+y,-z,x
96 y,1/2+z,-x
_cell_length_a                   32.198(4)
_cell_length_b                   32.198(4)
_cell_length_c                   32.198(4)
_cell_angle_alpha                90
_cell_angle_beta                 90
_cell_angle_gamma                90
_cell_volume                     33380
loop_
_atom_site_label
_atom_site_type_symbol
_atom_site_fract_x
_atom_site_fract_y
_atom_site_fract_z
Cl1 Cl 0.1250 0.1250 0.1250
O1 O 0.1560(3) 0.0940(3) 0.1250
O1C O 0.1250 0.1560(3) 0.0940(3)
O1P O 0.0940(3) 0.1250 0.1560(3)
N1 N 0.02098(14) 0.94698(12) 0.96376(13)
C1 C 0.04217(14) 0.91712(15) 0.97976(13)
H1 H 0.0535 0.9212 1.0060
C2 C 0.04961(17) 0.87730(16) 0.95960(15)
H2 H 0.0636 0.8559 0.9730
C3 C 0.03502(16) 0.87291(15) 0.92016(15)
C4 C 0.0144(2) 0.90470(15) 0.90382(14)
H3 H 0.0032 0.9022 0.8773
C5 C 0.00963(19) 0.93846(13) 0.92369(13)
H4 H -0.0031 0.9600 0.9093
C6 C 0.11214(18) 0.86214(18) 0.8750
C7 C 0.07701(19) 0.82701(19) 0.8750
C8 C 0.04166(18) 0.83361(19) 0.89812(19)
C9 C 0.01146(17) 0.8023(2) 0.89880(18)
C10 C 0.01624(16) 0.76624(16) 0.8750
C11 C -0.02681(17) 0.80639(19) 0.9267(2)
H8 H -0.0255 0.8321 0.9417
H9 H -0.0275 0.7837 0.9460
H10 H -0.0515 0.8059 0.9099
Zn1 Zn 0.0000 1.0000 1.0000
N1DA N 0.19698(12) 0.77098(14) 0.78624(13)
N1J N -0.19698(12) 0.72902(14) 0.78624(13)
N1CA N -0.02098(14) 0.55302(12) 0.96376(13)
N1C N -0.03624(13) 1.02098(14) 0.94698(12)
N1PA N -0.21376(13) 1.19698(12) 0.77098(14)
N1U N -0.21376(13) 0.80302(12) 0.72902(14)
N1KA N -0.03624(13) 0.97902(14) 0.55302(12)
N1P N -0.05302(12) 0.96376(13) 1.02098(14)
N1JA N -0.22902(14) 0.78624(13) 1.19698(12)
N1M N -0.27098(14) 0.78624(13) 0.80302(12)
N1TA N -0.44698(12) 0.96376(13) 0.97902(14)
N1VA N -0.02098(14) 1.05302(12) 1.03624(13)
N1ZB N -0.19698(12) 1.22902(14) 1.21376(13)
N1FB N 0.19698(12) 1.27098(14) 1.21376(13)
N1YB N 0.02098(14) 1.44698(12) 1.03624(13)
N1YA N 0.03624(13) 0.97902(14) 1.05302(12)
N1LC N 0.21376(13) 0.80302(12) 1.22902(14)
N1QB N 0.21376(13) 1.19698(12) 1.27098(14)
N1GC N 0.03624(13) 1.02098(14) 1.44698(12)
N1LB N 0.05302(12) 1.03624(13) 0.97902(14)
N1FC N 0.22902(14) 1.21376(13) 0.80302(12)
N1IB N 0.27098(14) 1.21376(13) 1.19698(12)
N1PC N 0.44698(12) 1.03624(13) 1.02098(14)
N1NA N 0.27098(14) 0.71376(13) 0.80302(12)
N1QA N 0.21376(13) 0.69698(12) 0.72902(14)
N1AB N 0.30302(12) 0.72902(14) 0.71376(13)
N1KB N 0.22902(14) 0.78624(13) 0.69698(12)
N1OB N 0.28624(13) 0.80302(12) 0.77098(14)
N1EC N -0.30302(12) 0.77098(14) 0.71376(13)
N1HC N -0.22902(14) 0.71376(13) 0.69698(12)
N1OC N -0.28624(13) 0.69698(12) 0.77098(14)
N1HA N 0.03624(13) 0.47902(14) 0.94698(12)
N1UA N 0.05302(12) 0.53624(13) 1.02098(14)
N1YB_2 N 0.02098(14) 0.44698(12) 1.03624(13)
N1DC N -0.03624(13) 0.52098(14) 1.05302(12)
N1QC N -0.05302(12) 0.46376(13) 0.97902(14)
C1DA C 0.16712(15) 0.79217(14) 0.77024(13)
C1J C -0.16712(15) 0.70783(14) 0.77024(13)
C1CA C -0.04217(14) 0.58288(15) 0.97976(13)
C1C C -0.02024(13) 1.04217(14) 0.91712(15)
C1PA C -0.22976(13) 1.16712(15) 0.79217(14)
C1U C -0.22976(13) 0.83288(15) 0.70783(14)
C1KA C -0.02024(13) 0.95783(14) 0.58288(15)
C1P C -0.08288(15) 0.97976(13) 1.04217(14)
C1JA C -0.20783(14) 0.77024(13) 1.16712(15)
C1M C -0.29217(14) 0.77024(13) 0.83288(15)
C1TA C -0.41712(15) 0.97976(13) 0.95783(14)
C1VA C -0.04217(14) 1.08288(15) 1.02024(13)
C1ZB C -0.16712(15) 1.20783(14) 1.22976(13)
C1FB C 0.16712(15) 1.29217(14) 1.22976(13)
C1YB C 0.04217(14) 1.41712(15) 1.02024(13)
C1YA C 0.02024(13) 0.95783(14) 1.08288(15)
C1LC C 0.22976(13) 0.83288(15) 1.20783(14)
C1QB C 0.22976(13) 1.16712(15) 1.29217(14)
C1GC C 0.02024(13) 1.04217(14) 1.41712(15)
C1LB C 0.08288(15) 1.02024(13) 0.95783(14)
C1FC C 0.20783(14) 1.22976(13) 0.83288(15)
C1IB C 0.29217(14) 1.22976(13) 1.16712(15)
C1PC C 0.41712(15) 1.02024(13) 1.04217(14)
H1DA H 0.1712 0.8035 0.7440
H1J H -0.1712 0.6965 0.7440
H1CA H -0.0535 0.5788 1.0060
H1C H 0.0060 1.0535 0.9212
H1PA H -0.2560 1.1712 0.8035
H1U H -0.2560 0.8288 0.6965
H1KA H 0.0060 0.9465 0.5788
H1P H -0.0788 1.0060 1.0535
H1JA H -0.1965 0.7440 1.1712
H1M H -0.3035 0.7440 0.8288
H1TA H -0.4212 1.0060 0.9465
H1VA H -0.0535 1.0788 0.9940
H1ZB H -0.1712 1.1965 1.2560
H1FB H 0.1712 1.3035 1.2560
H1YB H 0.0535 1.4212 0.9940
H1YA H -0.0060 0.9465 1.0788
H1LC H 0.2560 0.8288 1.1965
H1QB H 0.2560 1.1712 1.3035
H1GC H -0.0060 1.0535 1.4212
H1LB H 0.0788 0.9940 0.9465
H1FC H 0.1965 1.2560 0.8288
H1IB H 0.3035 1.2560 1.1712
H1PC H 0.4212 0.9940 1.0535
C2DA C 0.12730(16) 0.79961(17) 0.79040(15)
C2J C -0.12730(16) 0.70039(17) 0.79040(15)
C2CA C -0.04961(17) 0.62270(16) 0.95960(15)
C2C C -0.04040(15) 1.04961(17) 0.87730(16)
C2PA C -0.20960(15) 1.12730(16) 0.79961(17)
C2U C -0.20960(15) 0.87270(16) 0.70039(17)
C2KA C -0.04040(15) 0.95039(17) 0.62270(16)
C2P C -0.12270(16) 0.95960(15) 1.04961(17)
C2JA C -0.20039(17) 0.79040(15) 1.12730(16)
C2M C -0.29961(17) 0.79040(15) 0.87270(16)
C2TA C -0.37730(16) 0.95960(15) 0.95039(17)
C2VA C -0.04961(17) 1.12270(16) 1.04040(15)
C2ZB C -0.12730(16) 1.20039(17) 1.20960(15)
C2FB C 0.12730(16) 1.29961(17) 1.20960(15)
C2YB C 0.04961(17) 1.37730(16) 1.04040(15)
C2YA C 0.04040(15) 0.95039(17) 1.12270(16)
C2LC C 0.20960(15) 0.87270(16) 1.20039(17)
C2QB C 0.20960(15) 1.12730(16) 1.29961(17)
C2GC C 0.04040(15) 1.04961(17) 1.37730(16)
C2LB C 0.12270(16) 1.04040(15) 0.95039(17)
C2FC C 0.20039(17) 1.20960(15) 0.87270(16)
C2IB C 0.29961(17) 1.20960(15) 1.12730(16)
C2PC C 0.37730(16) 1.04040(15) 1.04961(17)
H2DA H 0.1059 0.8136 0.7770
H2J H -0.1059 0.6864 0.7770
H2CA H -0.0636 0.6441 0.9730
H2C H -0.0270 1.0636 0.8559
H2PA H -0.2230 1.1059 0.8136
H2U H -0.2230 0.8941 0.6864
H2KA H -0.0270 0.9364 0.6441
H2P H -0.1441 0.9730 1.0636
H2JA H -0.1864 0.7770 1.1059
H2M H -0.3136 0.7770 0.8941
H2TA H -0.3559 0.9730 0.9364
H2VA H -0.0636 1.1441 1.0270
H2ZB H -0.1059 1.1864 1.2230
H2FB H 0.1059 1.3136 1.2230
H2YB H 0.0636 1.3559 1.0270
H2YA H 0.0270 0.9364 1.1441
H2LC H 0.2230 0.8941 1.1864
H2QB H 0.2230 1.1059 1.3136
H2GC H 0.0270 1.0636 1.3559
H2LB H 0.1441 1.0270 0.9364
H2FC H 0.1864 1.2230 0.8941
H2IB H 0.3136 1.2230 1.1059
H2PC H 0.3559 1.0270 1.0636
C3DA C 0.12291(15) 0.78502(16) 0.82984(15)
C3J C -0.12291(15) 0.71498(16) 0.82984(15)
C3CA C -0.03502(16) 0.62709(15) 0.92016(15)
C3C C -0.07984(15) 1.03502(16) 0.87291(15)
C3PA C -0.17016(15) 1.12291(15) 0.78502(16)
C3U C -0.17016(15) 0.87709(15) 0.71498(16)
C3KA C -0.07984(15) 0.96498(16) 0.62709(15)
C3P C -0.12709(15) 0.92016(15) 1.03502(16)
C3JA C -0.21498(16) 0.82984(15) 1.12291(15)
C3M C -0.28502(16) 0.82984(15) 0.87709(15)
C3TA C -0.37291(15) 0.92016(15) 0.96498(16)
C3VA C -0.03502(16) 1.12709(15) 1.07984(15)
C3ZB C -0.12291(15) 1.21498(16) 1.17016(15)
C3FB C 0.12291(15) 1.28502(16) 1.17016(15)
C3YB C 0.03502(16) 1.37291(15) 1.07984(15)
C3YA C 0.07984(15) 0.96498(16) 1.12709(15)
C3LC C 0.17016(15) 0.87709(15) 1.21498(16)
C3QB C 0.17016(15) 1.12291(15) 1.28502(16)
C3GC C 0.07984(15) 1.03502(16) 1.37291(15)
C3LB C 0.12709(15) 1.07984(15) 0.96498(16)
C3FC C 0.21498(16) 1.17016(15) 0.87709(15)
C3IB C 0.28502(16) 1.17016(15) 1.12291(15)
C3PC C 0.37291(15) 1.07984(15) 1.03502(16)
C4DA C 0.15470(15) 0.7644(2) 0.84618(14)
C4J C -0.15470(15) 0.7356(2) 0.84618(14)
C4CA C -0.0144(2) 0.59530(15) 0.90382(14)
C4C C -0.09618(14) 1.0144(2) 0.90470(15)
C4PA C -0.15382(14) 1.15470(15) 0.7644(2)
C4U C -0.15382(14) 0.84530(15) 0.7356(2)
C4KA C -0.09618(14) 0.9856(2) 0.59530(15)
C4P C -0.09530(15) 0.90382(14) 1.0144(2)
C4JA C -0.2356(2) 0.84618(14) 1.15470(15)
C4M C -0.2644(2) 0.84618(14) 0.84530(15)
C4TA C -0.40470(15) 0.90382(14) 0.9856(2)
C4VA C -0.0144(2) 1.09530(15) 1.09618(14)
C4ZB C -0.15470(15) 1.2356(2) 1.15382(14)
C4FB C 0.15470(15) 1.2644(2) 1.15382(14)
C4YB C 0.0144(2) 1.40470(15) 1.09618(14)
C4YA C 0.09618(14) 0.9856(2) 1.09530(15)
C4LC C 0.15382(14) 0.84530(15) 1.2356(2)
C4QB C 0.15382(14) 1.15470(15) 1.2644(2)
C4GC C 0.09618(14) 1.0144(2) 1.40470(15)
C4LB C 0.09530(15) 1.09618(14) 0.9856(2)
C4FC C 0.2356(2) 1.15382(14) 0.84530(15)
C4IB C 0.2644(2) 1.15382(14) 1.15470(15)
C4PC C 0.40470(15) 1.09618(14) 1.0144(2)
H3DA H 0.1522 0.7532 0.8727
H3J H -0.1522 0.7468 0.8727
H3CA H -0.0032 0.5978 0.8773
H3C H -0.1227 1.0032 0.9022
H3PA H -0.1273 1.1522 0.7532
H3U H -0.1273 0.8478 0.7468
H3KA H -0.1227 0.9968 0.5978
H3P H -0.0978 0.8773 1.0032
H3JA H -0.2468 0.8727 1.1522
H3M H -0.2532 0.8727 0.8478
H3TA H -0.4022 0.8773 0.9968
H3VA H -0.0032 1.0978 1.1227
H3ZB H -0.1522 1.2468 1.1273
H3FB H 0.1522 1.2532 1.1273
H3YB H 0.0032 1.4022 1.1227
H3YA H 0.1227 0.9968 1.0978
H3LC H 0.1273 0.8478 1.2468
H3QB H 0.1273 1.1522 1.2532
H3GC H 0.1227 1.0032 1.4022
H3LB H 0.0978 1.1227 0.9968
H3FC H 0.2468 1.1273 0.8478
H3IB H 0.2532 1.1273 1.1522
H3PC H 0.4022 1.1227 1.0032
C5DA C 0.18846(13) 0.75963(19) 0.82631(13)
C5J C -0.18846(13) 0.74037(19) 0.82631(13)
C5CA C -0.00963(19) 0.56154(13) 0.92369(13)
C5C C -0.07631(13) 1.00963(19) 0.93846(13)
C5PA C -0.17369(13) 1.18846(13) 0.75963(19)
C5U C -0.17369(13) 0.81154(13) 0.74037(19)
C5KA C -0.07631(13) 0.99037(19) 0.56154(13)
C5P C -0.06154(13) 0.92369(13) 1.00963(19)
C5JA C -0.24037(19) 0.82631(13) 1.18846(13)
C5M C -0.25963(19) 0.82631(13) 0.81154(13)
C5TA C -0.43846(13) 0.92369(13) 0.99037(19)
C5VA C -0.00963(19) 1.06154(13) 1.07631(13)
C5ZB C -0.18846(13) 1.24037(19) 1.17369(13)
C5FB C 0.18846(13) 1.25963(19) 1.17369(13)
C5YB C 0.00963(19) 1.43846(13) 1.07631(13)
C5YA C 0.07631(13) 0.99037(19) 1.06154(13)
C5LC C 0.17369(13) 0.81154(13) 1.24037(19)
C5QB C 0.17369(13) 1.18846(13) 1.25963(19)
C5GC C 0.07631(13) 1.00963(19) 1.43846(13)
C5LB C 0.06154(13) 1.07631(13) 0.99037(19)
C5FC C 0.24037(19) 1.17369(13) 0.81154(13)
C5IB C 0.25963(19) 1.17369(13) 1.18846(13)
C5PC C 0.43846(13) 1.07631(13) 1.00963(19)
H4DA H 0.2100 0.7469 0.8407
H4J H -0.2100 0.7531 0.8407
H4CA H 0.0031 0.5400 0.9093
H4C H -0.0907 0.9969 0.9600
H4PA H -0.1593 1.2100 0.7469
H4U H -0.1593 0.7900 0.7531
H4KA H -0.0907 1.0031 0.5400
H4P H -0.0400 0.9093 0.9969
H4JA H -0.2531 0.8407 1.2100
H4M H -0.2469 0.8407 0.7900
H4TA H -0.4600 0.9093 1.0031
H4VA H 0.0031 1.0400 1.0907
H4ZB H -0.2100 1.2531 1.1593
H4FB H 0.2100 1.2469 1.1593
H4YB H -0.0031 1.4600 1.0907
H4YA H 0.0907 1.0031 1.0400
H4LC H 0.1593 0.7900 1.2531
H4QB H 0.1593 1.2100 1.2469
H4GC H 0.0907 0.9969 1.4600
H4LB H 0.0400 1.0907 1.0031
H4FC H 0.2531 1.1593 0.7900
H4IB H 0.2469 1.1593 1.2100
H4PC H 0.4600 1.0907 0.9969
C6J C -0.11214(18) 0.63786(18) 0.8750
C6C C -0.1250 1.11214(18) 0.86214(18)
C6U C -0.1250 0.88786(18) 0.63786(18)
C6P C -0.13786(18) 0.8750 1.11214(18)
C6M C -0.36214(18) 0.8750 0.88786(18)
C6VA C -0.11214(18) 1.13786(18) 1.1250
C6FB C 0.11214(18) 1.36214(18) 1.1250
C6YA C 0.1250 0.88786(18) 1.13786(18)
C6QB C 0.1250 1.11214(18) 1.36214(18)
C6LB C 0.13786(18) 1.1250 0.88786(18)
C6IB C 0.36214(18) 1.1250 1.11214(18)
C7J C -0.07701(19) 0.67299(19) 0.8750
C7C C -0.1250 1.07701(19) 0.82701(19)
C7U C -0.1250 0.92299(19) 0.67299(19)
C7P C -0.17299(19) 0.8750 1.07701(19)
C7M C -0.32701(19) 0.8750 0.92299(19)
C7VA C -0.07701(19) 1.17299(19) 1.1250
C7FB C 0.07701(19) 1.32701(19) 1.1250
C7YA C 0.1250 0.92299(19) 1.17299(19)
C7QB C 0.1250 1.07701(19) 1.32701(19)
C7LB C 0.17299(19) 1.1250 0.92299(19)
C7IB C 0.32701(19) 1.1250 1.07701(19)
C8DA C 0.08361(19) 0.79166(18) 0.85188(19)
C8J C -0.08361(19) 0.70834(18) 0.85188(19)
C8CA C -0.04166(18) 0.66639(19) 0.89812(19)
C8C C -0.10188(19) 1.04166(18) 0.83361(19)
C8PA C -0.14812(19) 1.08361(19) 0.79166(18)
C8U C -0.14812(19) 0.91639(19) 0.70834(18)
C8KA C -0.10188(19) 0.95834(18) 0.66639(19)
C8P C -0.16639(19) 0.89812(19) 1.04166(18)
C8JA C -0.20834(18) 0.85188(19) 1.08361(19)
C8M C -0.29166(18) 0.85188(19) 0.91639(19)
C8TA C -0.33361(19) 0.89812(19) 0.95834(18)
C8VA C -0.04166(18) 1.16639(19) 1.10188(19)
C8ZB C -0.08361(19) 1.20834(18) 1.14812(19)
C8FB C 0.08361(19) 1.29166(18) 1.14812(19)
C8YB C 0.04166(18) 1.33361(19) 1.10188(19)
C8YA C 0.10188(19) 0.95834(18) 1.16639(19)
C8LC C 0.14812(19) 0.91639(19) 1.20834(18)
C8QB C 0.14812(19) 1.08361(19) 1.29166(18)
C8GC C 0.10188(19) 1.04166(18) 1.33361(19)
C8LB C 0.16639(19) 1.10188(19) 0.95834(18)
C8FC C 0.20834(18) 1.14812(19) 0.91639(19)
C8IB C 0.29166(18) 1.14812(19) 1.08361(19)
C8PC C 0.33361(19) 1.10188(19) 1.04166(18)
C9DA C 0.0523(2) 0.76146(17) 0.85120(18)
C9J C -0.0523(2) 0.73854(17) 0.85120(18)
C9CA C -0.01146(17) 0.6977(2) 0.89880(18)
C9C C -0.10120(18) 1.01146(17) 0.8023(2)
C9PA C -0.14880(18) 1.0523(2) 0.76146(17)
C9U C -0.14880(18) 0.9477(2) 0.73854(17)
C9KA C -0.10120(18) 0.98854(17) 0.6977(2)
C9P C -0.1977(2) 0.89880(18) 1.01146(17)
C9JA C -0.23854(17) 0.85120(18) 1.0523(2)
C9M C -0.26146(17) 0.85120(18) 0.9477(2)
C9TA C -0.3023(2) 0.89880(18) 0.98854(17)
C9VA C -0.01146(17) 1.1977(2) 1.10120(18)
C9ZB C -0.0523(2) 1.23854(17) 1.14880(18)
C9FB C 0.0523(2) 1.26146(17) 1.14880(18)
C9YB C 0.01146(17) 1.3023(2) 1.10120(18)
C9YA C 0.10120(18) 0.98854(17) 1.1977(2)
C9LC C 0.14880(18) 0.9477(2) 1.23854(17)
C9QB C 0.14880(18) 1.0523(2) 1.26146(17)
C9GC C 0.10120(18) 1.01146(17) 1.3023(2)
C9LB C 0.1977(2) 1.10120(18) 0.98854(17)
C9FC C 0.23854(17) 1.14880(18) 0.9477(2)
C9IB C 0.26146(17) 1.14880(18) 1.0523(2)
C9PC C 0.3023(2) 1.10120(18) 1.01146(17)
C10J C -0.01624(16) 0.73376(16) 0.8750
C10C C -0.1250 1.01624(16) 0.76624(16)
C10U C -0.1250 0.98376(16) 0.73376(16)
C10P C -0.23376(16) 0.8750 1.01624(16)
C10M C -0.26624(16) 0.8750 0.98376(16)
C10VA C -0.01624(16) 1.23376(16) 1.1250
C10FB C 0.01624(16) 1.26624(16) 1.1250
C10YA C 0.1250 0.98376(16) 1.23376(16)
C10QB C 0.1250 1.01624(16) 1.26624(16)
C10LB C 0.23376(16) 1.1250 0.98376(16)
C10IB C 0.26624(16) 1.1250 1.01624(16)
C11CA C 0.02681(17) 0.69361(19) 0.9267(2)
C11J C -0.05639(19) 0.77681(17) 0.8233(2)
C11DA C 0.05639(19) 0.72319(17) 0.8233(2)
C11C C -0.0733(2) 0.97319(17) 0.80639(19)
C11KA C -0.0733(2) 1.02681(17) 0.69361(19)
C11U C -0.1767(2) 0.94361(19) 0.77681(17)
C11PA C -0.1767(2) 1.05639(19) 0.72319(17)
C11P C -0.19361(19) 0.9267(2) 0.97319(17)
C11TA C -0.30639(19) 0.9267(2) 1.02681(17)
C11M C -0.22319(17) 0.8233(2) 0.94361(19)
C11JA C -0.27681(17) 0.8233(2) 1.05639(19)
C11VA C 0.02681(17) 1.19361(19) 1.0733(2)
C11YB C -0.02681(17) 1.30639(19) 1.0733(2)
C11FB C 0.05639(19) 1.22319(17) 1.1767(2)
C11ZB C -0.05639(19) 1.27681(17) 1.1767(2)
C11YA C 0.0733(2) 1.02681(17) 1.19361(19)
C11GC C 0.0733(2) 0.97319(17) 1.30639(19)
C11QB C 0.1767(2) 1.05639(19) 1.22319(17)
C11LC C 0.1767(2) 0.94361(19) 1.27681(17)
C11LB C 0.19361(19) 1.0733(2) 1.02681(17)
C11PC C 0.30639(19) 1.0733(2) 0.97319(17)
C11IB C 0.22319(17) 1.1767(2) 1.05639(19)
C11FC C 0.27681(17) 1.1767(2) 0.94361(19)
H8CA H 0.0255 0.6679 0.9417
H8J H -0.0821 0.7755 0.8083
H8DA H 0.0821 0.7245 0.8083
H8C H -0.0583 0.9745 0.8321
H8KA H -0.0583 1.0255 0.6679
H8U H -0.1917 0.9179 0.7755
H8PA H -0.1917 1.0821 0.7245
H8P H -0.1679 0.9417 0.9745
H8TA H -0.3321 0.9417 1.0255
H8M H -0.2245 0.8083 0.9179
H8JA H -0.2755 0.8083 1.0821
H8VA H 0.0255 1.1679 1.0583
H8YB H -0.0255 1.3321 1.0583
H8FB H 0.0821 1.2245 1.1917
H8ZB H -0.0821 1.2755 1.1917
H8YA H 0.0583 1.0255 1.1679
H8GC H 0.0583 0.9745 1.3321
H8QB H 0.1917 1.0821 1.2245
H8LC H 0.1917 0.9179 1.2755
H8LB H 0.1679 1.0583 1.0255
H8PC H 0.3321 1.0583 0.9745
H8IB H 0.2245 1.1917 1.0821
H8FC H 0.2755 1.1917 0.9179
H9CA H 0.0275 0.7163 0.9460
H9J H -0.0337 0.7775 0.8040
H9DA H 0.0337 0.7225 0.8040
H9C H -0.0540 0.9725 0.7837
H9KA H -0.0540 1.0275 0.7163
H9U H -0.1960 0.9663 0.7775
H9PA H -0.1960 1.0337 0.7225
H9P H -0.2163 0.9460 0.9725
H9TA H -0.2837 0.9460 1.0275
H9M H -0.2225 0.8040 0.9663
H9JA H -0.2775 0.8040 1.0337
H9VA H 0.0275 1.2163 1.0540
H9YB H -0.0275 1.2837 1.0540
H9FB H 0.0337 1.2225 1.1960
H9ZB H -0.0337 1.2775 1.1960
H9YA H 0.0540 1.0275 1.2163
H9GC H 0.0540 0.9725 1.2837
H9QB H 0.1960 1.0337 1.2225
H9LC H 0.1960 0.9663 1.2775
H9LB H 0.2163 1.0540 1.0275
H9PC H 0.2837 1.0540 0.9725
H9IB H 0.2225 1.1960 1.0337
H9FC H 0.2775 1.1960 0.9663
H10CA H 0.0515 0.6941 0.9099
H10J H -0.0559 0.8015 0.8401
H10DA H 0.0559 0.6985 0.8401
H10C H -0.0901 0.9485 0.8059
H10KA H -0.0901 1.0515 0.6941
H10U H -0.1599 0.9441 0.8015
H10PA H -0.1599 1.0559 0.6985
H10P H -0.1941 0.9099 0.9485
H10TA H -0.3059 0.9099 1.0515
H10M H -0.1985 0.8401 0.9441
H10JA H -0.3015 0.8401 1.0559
H10VA H 0.0515 1.1941 1.0901
H10YB H -0.0515 1.3059 1.0901
H10FB H 0.0559 1.1985 1.1599
H10ZB H -0.0559 1.3015 1.1599
H10YA H 0.0901 1.0515 1.1941
H10GC H 0.0901 0.9485 1.3059
H10QB H 0.1599 1.0559 1.1985
H10LC H 0.1599 0.9441 1.3015
H10LB H 0.1941 1.0901 1.0515
H10PC H 0.3059 1.0901 0.9485
H10IB H 0.1985 1.1599 1.0559
H10FC H 0.3015 1.1599 0.9441
Zn1DA Zn 0.2500 0.7500 0.7500
Zn1J Zn -0.2500 0.7500 0.7500
Zn1CA Zn 0.0000 0.5000 1.0000
Zn1Z Zn -0.2500 1.2500 0.7500
Zn1AA Zn 0.0000 1.0000 0.5000
Zn1Q Zn -0.2500 0.7500 1.2500
Zn1GA Zn -0.5000 1.0000 1.0000
Zn1E Zn -0.2500 1.2500 1.2500
Zn1IA Zn 0.2500 1.2500 1.2500
Zn1CA_2 Zn 0.0000 1.5000 1.0000
Zn1A Zn 0.2500 0.7500 1.2500
Zn1AA_2 Zn 0.0000 1.0000 1.5000
Zn1G Zn 0.2500 1.2500 0.7500
Zn1GA_2 Zn 0.5000 1.0000 1.0000
H5? H 0.1348 0.8536 0.8576
H6? H 0.1220 0.8663 0.9028
H7? H 0.1007 0.8876 0.8646
O2? O 0.1158(8) 0.1258(6) 0.1705(5)
O3? O 0.1523(9) 0.1615(6) 0.1294(8)
loop_
_geom_bond_atom_site_label_1
_geom_bond_atom_site_label_2
_geom_bond_site_symmetry_1
_geom_bond_site_symmetry_2
N1 C1 1_555 1_555
C1 H1 1_555 1_555
C2 C1 1_555 1_555
H2 C2 1_555 1_555
C3 C2 1_555 1_555
C4 C3 1_555 1_555
H3 C4 1_555 1_555
C5 N1 1_555 1_555
H4 C5 1_555 1_555
C6 C7 1_555 1_555
C7 C8 1_555 1_555
C8 C3 1_555 1_555
C9 C8 1_555 1_555
C10 C9 1_555 1_555
C11 C9 1_555 1_555
H8 C11 1_555 1_555
H9 C11 1_555 1_555
H10 C11 1_555 1_555
Zn1 N1 1_555 1_555
Cl1 O1 1_555 1_555
N1DA C1DA 1_555 1_555
N1J C1J 1_555 1_555
N1CA C1CA 1_555 1_555
N1C Zn1 1_555 1_555
N1PA C1PA 1_555 1_555
N1U C1U 1_555 1_555
N1KA C1KA 1_555 1_555
N1P Zn1 1_555 1_555
N1JA C1JA 1_555 1_555
N1M C1M 1_555 1_555
N1TA C1TA 1_555 1_555
N1VA Zn1 1_555 1_555
N1ZB C1ZB 1_555 1_555
N1FB C1FB 1_555 1_555
N1YB C1YB 1_555 1_555
N1YA Zn1 1_555 1_555
N1LC C1LC 1_555 1_555
N1QB C1QB 1_555 1_555
N1GC C1GC 1_555 1_555
N1LB Zn1 1_555 1_555
N1FC C1FC 1_555 1_555
N1IB C1IB 1_555 1_555
N1PC C1PC 1_555 1_555
N1NA Zn1DA 1_555 1_555
N1QA Zn1DA 1_555 1_555
N1AB Zn1DA 1_555 1_555
N1KB Zn1DA 1_555 1_555
N1OB Zn1DA 1_555 1_555
N1EC Zn1J 1_555 1_555
N1HC Zn1J 1_555 1_555
N1OC Zn1J 1_555 1_555
N1HA Zn1CA 1_555 1_555
N1UA Zn1CA 1_555 1_555
N1YB_2 Zn1CA 1_555 1_555
N1DC Zn1CA 1_555 1_555
N1QC Zn1CA 1_555 1_555
C1DA H1DA 1_555 1_555
C1J H1J 1_555 1_555
C1CA H1CA 1_555 1_555
C1C N1C 1_555 1_555
C1PA H1PA 1_555 1_555
C1U H1U 1_555 1_555
C1KA H1KA 1_555 1_555
C1P N1P 1_555 1_555
C1JA H1JA 1_555 1_555
C1M H1M 1_555 1_555
C1TA H1TA 1_555 1_555
C1VA N1VA 1_555 1_555
C1ZB H1ZB 1_555 1_555
C1FB H1FB 1_555 1_555
C1YB H1YB 1_555 1_555
C1YA N1YA 1_555 1_555
C1LC H1LC 1_555 1_555
C1QB H1QB 1_555 1_555
C1GC H1GC 1_555 1_555
C1LB N1LB 1_555 1_555
C1FC H1FC 1_555 1_555
C1IB H1IB 1_555 1_555
C1PC H1PC 1_555 1_555
H1C C1C 1_555 1_555
H1P C1P 1_555 1_555
H1VA C1VA 1_555 1_555
H1YA C1YA 1_555 1_555
H1LB C1LB 1_555 1_555
C2DA C1DA 1_555 1_555
C2J C1J 1_555 1_555
C2CA C1CA 1_555 1_555
C2C C1C 1_555 1_555
C2PA C1PA 1_555 1_555
C2U C1U 1_555 1_555
C2KA C1KA 1_555 1_555
C2P C1P 1_555 1_555
C2JA C1JA 1_555 1_555
C2M C1M 1_555 1_555
C2TA C1TA 1_555 1_555
C2VA C1VA 1_555 1_555
C2ZB C1ZB 1_555 1_555
C2FB C1FB 1_555 1_555
C2YB C1YB 1_555 1_555
C2YA C1YA 1_555 1_555
C2LC C1LC 1_555 1_555
C2QB C1QB 1_555 1_555
C2GC C1GC 1_555 1_555
C2LB C1LB 1_555 1_555
C2FC C1FC 1_555 1_555
C2IB C1IB 1_555 1_555
C2PC C1PC 1_555 1_555
H2DA C2DA 1_555 1_555
H2J C2J 1_555 1_555
H2CA C2CA 1_555 1_555
H2C C2C 1_555 1_555
H2PA C2PA 1_555 1_555
H2U C2U 1_555 1_555
H2KA C2KA 1_555 1_555
H2P C2P 1_555 1_555
H2JA C2JA 1_555 1_555
H2M C2M 1_555 1_555
H2TA C2TA 1_555 1_555
H2VA C2VA 1_555 1_555
H2ZB C2ZB 1_555 1_555
H2FB C2FB 1_555 1_555
H2YB C2YB 1_555 1_555
H2YA C2YA 1_555 1_555
H2LC C2LC 1_555 1_555
H2QB C2QB 1_555 1_555
H2GC C2GC 1_555 1_555
H2LB C2LB 1_555 1_555
H2FC C2FC 1_555 1_555
H2IB C2IB 1_555 1_555
H2PC C2PC 1_555 1_555
C3DA C2DA 1_555 1_555
C3J C2J 1_555 1_555
C3CA C2CA 1_555 1_555
C3C C2C 1_555 1_555
C3PA C2PA 1_555 1_555
C3U C2U 1_555 1_555
C3KA C2KA 1_555 1_555
C3P C2P 1_555 1_555
C3JA C2JA 1_555 1_555
C3M C2M 1_555 1_555
C3TA C2TA 1_555 1_555
C3VA C2VA 1_555 1_555
C3ZB C2ZB 1_555 1_555
C3FB C2FB 1_555 1_555
C3YB C2YB 1_555 1_555
C3YA C2YA 1_555 1_555
C3LC C2LC 1_555 1_555
C3QB C2QB 1_555 1_555
C3GC C2GC 1_555 1_555
C3LB C2LB 1_555 1_555
C3FC C2FC 1_555 1_555
C3IB C2IB 1_555 1_555
C3PC C2PC 1_555 1_555
C4DA C3DA 1_555 1_555
C4J C3J 1_555 1_555
C4CA C3CA 1_555 1_555
C4C C3C 1_555 1_555
C4PA C3PA 1_555 1_555
C4U C3U 1_555 1_555
C4KA C3KA 1_555 1_555
C4P C3P 1_555 1_555
C4JA C3JA 1_555 1_555
C4M C3M 1_555 1_555
C4TA C3TA 1_555 1_555
C4VA C3VA 1_555 1_555
C4ZB C3ZB 1_555 1_555
C4FB C3FB 1_555 1_555
C4YB C3YB 1_555 1_555
C4YA C3YA 1_555 1_555
C4LC C3LC 1_555 1_555
C4QB C3QB 1_555 1_555
C4GC C3GC 1_555 1_555
C4LB C3LB 1_555 1_555
C4FC C3FC 1_555 1_555
C4IB C3IB 1_555 1_555
C4PC C3PC 1_555 1_555
H3DA C4DA 1_555 1_555
H3J C4J 1_555 1_555
H3CA C4CA 1_555 1_555
H3C C4C 1_555 1_555
H3PA C4PA 1_555 1_555
H3U C4U 1_555 1_555
H3KA C4KA 1_555 1_555
H3P C4P 1_555 1_555
H3JA C4JA 1_555 1_555
H3M C4M 1_555 1_555
H3TA C4TA 1_555 1_555
H3VA C4VA 1_555 1_555
H3ZB C4ZB 1_555 1_555
H3FB C4FB 1_555 1_555
H3YB C4YB 1_555 1_555
H3YA C4YA 1_555 1_555
H3LC C4LC 1_555 1_555
H3QB C4QB 1_555 1_555
H3GC C4GC 1_555 1_555
H3LB C4LB 1_555 1_555
H3FC C4FC 1_555 1_555
H3IB C4IB 1_555 1_555
H3PC C4PC 1_555 1_555
C5DA N1DA 1_555 1_555
C5J N1J 1_555 1_555
C5CA N1CA 1_555 1_555
C5C N1C 1_555 1_555
C5PA N1PA 1_555 1_555
C5U N1U 1_555 1_555
C5KA N1KA 1_555 1_555
C5P N1P 1_555 1_555
C5JA N1JA 1_555 1_555
C5M N1M 1_555 1_555
C5TA N1TA 1_555 1_555
C5VA N1VA 1_555 1_555
C5ZB N1ZB 1_555 1_555
C5FB N1FB 1_555 1_555
C5YB N1YB 1_555 1_555
C5YA N1YA 1_555 1_555
C5LC N1LC 1_555 1_555
C5QB N1QB 1_555 1_555
C5GC N1GC 1_555 1_555
C5LB N1LB 1_555 1_555
C5FC N1FC 1_555 1_555
C5IB N1IB 1_555 1_555
C5PC N1PC 1_555 1_555
H4DA C5DA 1_555 1_555
H4J C5J 1_555 1_555
H4CA C5CA 1_555 1_555
H4C C5C 1_555 1_555
H4PA C5PA 1_555 1_555
H4U C5U 1_555 1_555
H4KA C5KA 1_555 1_555
H4P C5P 1_555 1_555
H4JA C5JA 1_555 1_555
H4M C5M 1_555 1_555
H4TA C5TA 1_555 1_555
H4VA C5VA 1_555 1_555
H4ZB C5ZB 1_555 1_555
H4FB C5FB 1_555 1_555
H4YB C5YB 1_555 1_555
H4YA C5YA 1_555 1_555
H4LC C5LC 1_555 1_555
H4QB C5QB 1_555 1_555
H4GC C5GC 1_555 1_555
H4LB C5LB 1_555 1_555
H4FC C5FC 1_555 1_555
H4IB C5IB 1_555 1_555
H4PC C5PC 1_555 1_555
C6J C7J 1_555 1_555
C6C C7C 1_555 1_555
C6U C7U 1_555 1_555
C6P C7P 1_555 1_555
C6M C7M 1_555 1_555
C6VA C7VA 1_555 1_555
C6FB C7FB 1_555 1_555
C6YA C7YA 1_555 1_555
C6QB C7QB 1_555 1_555
C6LB C7LB 1_555 1_555
C6IB C7IB 1_555 1_555
C7J C8J 1_555 1_555
C7C C8C 1_555 1_555
C7U C8U 1_555 1_555
C7P C8P 1_555 1_555
C7M C8M 1_555 1_555
C7VA C8VA 1_555 1_555
C7FB C8FB 1_555 1_555
C7YA C8YA 1_555 1_555
C7QB C8QB 1_555 1_555
C7LB C8LB 1_555 1_555
C7IB C8IB 1_555 1_555
C8DA C7 1_555 1_555
C8J C3J 1_555 1_555
C8CA C3CA 1_555 1_555
C8C C3C 1_555 1_555
C8PA C3PA 1_555 1_555
C8U C3U 1_555 1_555
C8KA C3KA 1_555 1_555
C8P C3P 1_555 1_555
C8JA C3JA 1_555 1_555
C8M C3M 1_555 1_555
C8TA C3TA 1_555 1_555
C8VA C3VA 1_555 1_555
C8ZB C3ZB 1_555 1_555
C8FB C3FB 1_555 1_555
C8YB C3YB 1_555 1_555
C8YA C3YA 1_555 1_555
C8LC C3LC 1_555 1_555
C8QB C3QB 1_555 1_555
C8GC C3GC 1_555 1_555
C8LB C3LB 1_555 1_555
C8FC C3FC 1_555 1_555
C8IB C3IB 1_555 1_555
C8PC C3PC 1_555 1_555
C9DA C10 1_555 1_555
C9J C8J 1_555 1_555
C9CA C8CA 1_555 1_555
C9C C8C 1_555 1_555
C9PA C8PA 1_555 1_555
C9U C8U 1_555 1_555
C9KA C8KA 1_555 1_555
C9P C8P 1_555 1_555
C9JA C8JA 1_555 1_555
C9M C8M 1_555 1_555
C9TA C8TA 1_555 1_555
C9VA C8VA 1_555 1_555
C9ZB C8ZB 1_555 1_555
C9FB C8FB 1_555 1_555
C9YB C8YB 1_555 1_555
C9YA C8YA 1_555 1_555
C9LC C8LC 1_555 1_555
C9QB C8QB 1_555 1_555
C9GC C8GC 1_555 1_555
C9LB C8LB 1_555 1_555
C9FC C8FC 1_555 1_555
C9IB C8IB 1_555 1_555
C9PC C8PC 1_555 1_555
C10J C10 1_555 1_555
C10C C9C 1_555 1_555
C10U C9U 1_555 1_555
C10P C9P 1_555 1_555
C10M C9M 1_555 1_555
C10VA C9VA 1_555 1_555
C10FB C9FB 1_555 1_555
C10YA C9YA 1_555 1_555
C10QB C9QB 1_555 1_555
C10LB C9LB 1_555 1_555
C10IB C9IB 1_555 1_555
C11CA C9CA 1_555 1_555
C11J C9J 1_555 1_555
C11DA C9DA 1_555 1_555
C11C C9C 1_555 1_555
C11KA C9KA 1_555 1_555
C11U C9U 1_555 1_555
C11PA C9PA 1_555 1_555
C11P C9P 1_555 1_555
C11TA C9TA 1_555 1_555
C11M C9M 1_555 1_555
C11JA C9JA 1_555 1_555
C11VA C9VA 1_555 1_555
C11YB C9YB 1_555 1_555
C11FB C9FB 1_555 1_555
C11ZB C9ZB 1_555 1_555
C11YA C9YA 1_555 1_555
C11GC C9GC 1_555 1_555
C11QB C9QB 1_555 1_555
C11LC C9LC 1_555 1_555
C11LB C9LB 1_555 1_555
C11PC C9PC 1_555 1_555
C11IB C9IB 1_555 1_555
C11FC C9FC 1_555 1_555
H8CA C11CA 1_555 1_555
H8J C11J 1_555 1_555
H8DA C11DA 1_555 1_555
H8C C11C 1_555 1_555
H8KA C11KA 1_555 1_555
H8U C11U 1_555 1_555
H8PA C11PA 1_555 1_555
H8P C11P 1_555 1_555
H8TA C11TA 1_555 1_555
H8M C11M 1_555 1_555
H8JA C11JA 1_555 1_555
H8VA C11VA 1_555 1_555
H8YB C11YB 1_555 1_555
H8FB C11FB 1_555 1_555
H8ZB C11ZB 1_555 1_555
H8YA C11YA 1_555 1_555
H8GC C11GC 1_555 1_555
H8QB C11QB 1_555 1_555
H8LC C11LC 1_555 1_555
H8LB C11LB 1_555 1_555
H8PC C11PC 1_555 1_555
H8IB C11IB 1_555 1_555
H8FC C11FC 1_555 1_555
H9CA C11CA 1_555 1_555
H9J C11J 1_555 1_555
H9DA C11DA 1_555 1_555
H9C C11C 1_555 1_555
H9KA C11KA 1_555 1_555
H9U C11U 1_555 1_555
H9PA C11PA 1_555 1_555
H9P C11P 1_555 1_555
H9TA C11TA 1_555 1_555
H9M C11M 1_555 1_555
H9JA C11JA 1_555 1_555
H9VA C11VA 1_555 1_555
H9YB C11YB 1_555 1_555
H9FB C11FB 1_555 1_555
H9ZB C11ZB 1_555 1_555
H9YA C11YA 1_555 1_555
H9GC C11GC 1_555 1_555
H9QB C11QB 1_555 1_555
H9LC C11LC 1_555 1_555
H9LB C11LB 1_555 1_555
H9PC C11PC 1_555 1_555
H9IB C11IB 1_555 1_555
H9FC C11FC 1_555 1_555
H10CA C11CA 1_555 1_555
H10J C11J 1_555 1_555
H10DA C11DA 1_555 1_555
H10C C11C 1_555 1_555
H10KA C11KA 1_555 1_555
H10U C11U 1_555 1_555
H10PA C11PA 1_555 1_555
H10P C11P 1_555 1_555
H10TA C11TA 1_555 1_555
H10M C11M 1_555 1_555
H10JA C11JA 1_555 1_555
H10VA C11VA 1_555 1_555
H10YB C11YB 1_555 1_555
H10FB C11FB 1_555 1_555
H10ZB C11ZB 1_555 1_555
H10YA C11YA 1_555 1_555
H10GC C11GC 1_555 1_555
H10QB C11QB 1_555 1_555
H10LC C11LC 1_555 1_555
H10LB C11LB 1_555 1_555
H10PC C11PC 1_555 1_555
H10IB C11IB 1_555 1_555
H10FC C11FC 1_555 1_555
Zn1DA N1DA 1_555 1_555
Zn1J N1J 1_555 1_555
Zn1CA N1CA 1_555 1_555
Zn1Z N1PA 1_555 1_555
Zn1AA N1KA 1_555 1_555
Zn1Q N1JA 1_555 1_555
Zn1GA N1TA 1_555 1_555
Zn1E N1ZB 1_555 1_555
Zn1IA N1FB 1_555 1_555
Zn1CA_2 N1YB 1_555 1_555
Zn1A N1LC 1_555 1_555
Zn1AA_2 N1GC 1_555 1_555
Zn1G N1FC 1_555 1_555
Zn1GA_2 N1PC 1_555 1_555
O1C Cl1 1_555 1_555
O1P Cl1 1_555 1_555
C4 C5 1_555 1_555
N1U Zn1J 1_555 1_555
N1M Zn1J 1_555 1_555
N1QB Zn1IA 1_555 1_555
N1IB Zn1IA 1_555 1_555
C3DA C8DA 1_555 1_555
C4DA C5DA 1_555 1_555
C4J C5J 1_555 1_555
C4CA C5CA 1_555 1_555
C4C C5C 1_555 1_555
C4PA C5PA 1_555 1_555
C4U C5U 1_555 1_555
C4KA C5KA 1_555 1_555
C4P C5P 1_555 1_555
C4JA C5JA 1_555 1_555
C4M C5M 1_555 1_555
C4TA C5TA 1_555 1_555
C4VA C5VA 1_555 1_555
C4ZB C5ZB 1_555 1_555
C4FB C5FB 1_555 1_555
C4YB C5YB 1_555 1_555
C4YA C5YA 1_555 1_555
C4LC C5LC 1_555 1_555
C4QB C5QB 1_555 1_555
C4GC C5GC 1_555 1_555
C4LB C5LB 1_555 1_555
C4FC C5FC 1_555 1_555
C4IB C5IB 1_555 1_555
C4PC C5PC 1_555 1_555
C7J C8CA 1_555 1_555
C7C C8PA 1_555 1_555
C7U C8KA 1_555 1_555
C7P C8JA 1_555 1_555
C7M C8TA 1_555 1_555
C7VA C8ZB 1_555 1_555
C7FB C8YB 1_555 1_555
C7YA C8LC 1_555 1_555
C7QB C8GC 1_555 1_555
C7LB C8FC 1_555 1_555
C7IB C8PC 1_555 1_555
C8DA C9DA 1_555 1_555
C9J C10J 1_555 1_555
C9CA C10J 1_555 1_555
C9PA C10C 1_555 1_555
C9KA C10U 1_555 1_555
C9JA C10P 1_555 1_555
C9TA C10M 1_555 1_555
C9ZB C10VA 1_555 1_555
C9YB C10FB 1_555 1_555
C9LC C10YA 1_555 1_555
C9GC C10QB 1_555 1_555
C9FC C10LB 1_555 1_555
C9PC C10IB 1_555 1_555
C10C C10U 1_555 1_555
C10P C10M 1_555 1_555
C10VA C10FB 1_555 1_555
C10YA C10QB 1_555 1_555
C10LB C10IB 1_555 1_555

#END
