
#######################################################################
#
#                 Cambridge Crystallographic Data Centre
#                                CCDC 
#
#######################################################################
#
# If this CIF has been generated from an entry in the Cambridge 
# Structural Database, then it will include bibliographic, chemical, 
# crystal, experimental, refinement or atomic coordinate data resulting 
# from the CCDC's data processing and validation procedures.
#
#######################################################################

data_MANLET
_symmetry_cell_setting           monoclinic
_symmetry_space_group_name_H-M   'C 2/c'
_symmetry_Int_Tables_number      15
_space_group_name_Hall           '-C 2yn'
loop_
_symmetry_equiv_pos_site_id
_symmetry_equiv_pos_as_xyz
1 x,y,z
2 1/2+x,1/2+y,z
3 -x,y,1/2-z
4 1/2-x,1/2+y,1/2-z
5 -x,-y,-z
6 1/2-x,1/2-y,-z
7 x,-y,1/2+z
8 1/2+x,1/2-y,1/2+z
_cell_length_a                   20.9751(13)
_cell_length_b                   15.3662(10)
_cell_length_c                   25.8748(16)
_cell_angle_alpha                90
_cell_angle_beta                 100.6160(10)
_cell_angle_gamma                90
_cell_volume                     8196.9
loop_
_atom_site_label
_atom_site_type_symbol
_atom_site_fract_x
_atom_site_fract_y
_atom_site_fract_z
O2 O -0.0242(5) 0.5633(7) 1.1026(4)
O3 O -0.0337(5) 0.5592(7) 0.7810(4)
O4 O 0.0000 0.3027(12) 0.7500
O5 O 0.0780(6) 0.4264(8) 0.8050(5)
C1 C 0.07993(19) 0.5871(3) 1.00724(17)
H1 H 0.0352 0.5792 1.0018
C2 C 0.11916(19) 0.5248(3) 1.03602(17)
H2 H 0.1007 0.4773 1.0500
C3 C 0.18625(19) 0.5338(3) 1.04381(15)
C4 C 0.2107(2) 0.6073(3) 1.02208(17)
H3 H 0.2552 0.6157 1.0259
C5 C 0.1680(2) 0.6673(3) 0.99480(18)
H4 H 0.1851 0.7164 0.9813
C6 C 0.1067(3) 0.3450(4) 1.3548(3)
H5 H 0.0739 0.3831 1.3596
C7 C 0.1525(3) 0.3736(4) 1.3268(3)
H6 H 0.1492 0.4292 1.3124
C8 C 0.2030(2) 0.3206(3) 1.32005(16)
C9 C 0.2044(2) 0.2385(3) 1.34134(19)
H7 H 0.2375 0.2001 1.3376
C10 C 0.1559(2) 0.2129(3) 1.36853(17)
H8 H 0.1576 0.1570 1.3825
C11 C 0.4975(2) 0.5688(3) 1.36899(18)
H9 H 0.5420 0.5590 1.3757
C12 C 0.4576(2) 0.5061(3) 1.34152(17)
H10 H 0.4752 0.4553 1.3305
C13 C 0.3912(2) 0.5199(3) 1.33065(16)
C14 C 0.3681(2) 0.5963(3) 1.34911(18)
H11 H 0.3237 0.6075 1.3431
C15 C 0.4112(2) 0.6560(3) 1.37647(18)
H12 H 0.3948 0.7071 1.3882
C16 C 0.4696(2) 0.3610(3) 1.0147(2)
H13 H 0.5022 0.3995 1.0098
C17 C 0.4221(2) 0.3904(3) 1.04017(19)
H14 H 0.4224 0.4481 1.0512
C18 C 0.3732(2) 0.3342(3) 1.04961(16)
C19 C 0.3763(3) 0.2489(3) 1.0329(2)
H15 H 0.3460 0.2081 1.0396
C20 C 0.4254(2) 0.2251(3) 1.0059(2)
H16 H 0.4257 0.1682 0.9937
C21 C 0.23204(19) 0.4689(3) 1.07313(16)
C22 C 0.23639(18) 0.4604(3) 1.12808(16)
C23 C 0.1929(2) 0.5133(3) 1.15672(17)
H17 H 0.1637 0.5477 1.1318
H18 H 0.2189 0.5510 1.1817
H19 H 0.1684 0.4748 1.1748
C24 C 0.28322(19) 0.4056(3) 1.15597(15)
C25 C 0.29163(19) 0.4022(3) 1.21505(15)
C26 C 0.32623(19) 0.3591(3) 1.13092(16)
C27 C 0.3776(2) 0.3013(3) 1.16121(18)
H20 H 0.3742 0.3017 1.1977
H21 H 0.4196 0.3222 1.1575
H22 H 0.3718 0.2430 1.1478
C28 C 0.32151(19) 0.3694(3) 1.07630(16)
C29 C 0.27408(19) 0.4232(3) 1.04716(15)
C30 C 0.2697(2) 0.4323(3) 0.98872(16)
H23 H 0.2349 0.4712 0.9749
H24 H 0.2616 0.3764 0.9723
H25 H 0.3098 0.4552 0.9816
C31 C 0.2547(2) 0.3583(3) 1.29388(16)
C32 C 0.3032(2) 0.4084(3) 1.32473(16)
C33 C 0.3085(2) 0.4113(3) 1.38388(17)
H26 H 0.2762 0.3739 1.3940
H27 H 0.3508 0.3920 1.4005
H28 H 0.3018 0.4699 1.3946
C34 C 0.24946(19) 0.3527(3) 1.23919(16)
C35 C 0.1973(2) 0.2981(3) 1.20710(17)
H29 H 0.1730 0.2691 1.2300
H30 H 0.1688 0.3346 1.1831
H31 H 0.2168 0.2556 1.1877
C36 C 0.34474(19) 0.4572(3) 1.29955(16)
C37 C 0.33881(19) 0.4556(3) 1.24513(15)
C38 C 0.3820(2) 0.5136(3) 1.21893(17)
H32 H 0.3718 0.5055 1.1815
H33 H 0.3750 0.5734 1.2272
H34 H 0.4266 0.4987 1.2315
Cl1 Cl -0.03552(5) 0.63741(7) 0.89517(4)
Cl2 Cl 0.11374(5) 0.87687(7) 0.97539(4)
Mn1 Mn 0.04028(3) 0.75725(4) 0.93679(2)
N1 N 0.10311(16) 0.6584(2) 0.98683(14)
N2 N 0.10734(18) 0.2648(2) 1.37536(15)
N3 N 0.47521(16) 0.6435(2) 1.38660(14)
N4 N 0.47172(17) 0.2789(2) 0.99642(14)
Mn1F Mn 0.04028(3) 0.24275(4) 1.43679(2)
Mn1G Mn 0.54028(3) 0.74275(4) 1.43679(2)
Mn1A Mn 0.54028(3) 0.25725(4) 0.93679(2)
N2F N 0.10734(18) 0.7352(2) 0.87536(15)
N3G N -0.02479(16) 0.8565(2) 0.88660(14)
N4A N -0.02828(17) 0.7789(2) 0.99642(14)
O1 O 0.4393(5) 0.8071(7) 0.8505(4)
loop_
_geom_bond_atom_site_label_1
_geom_bond_atom_site_label_2
_geom_bond_site_symmetry_1
_geom_bond_site_symmetry_2
C1 H1 1_555 1_555
C2 C1 1_555 1_555
H2 C2 1_555 1_555
C3 C2 1_555 1_555
C4 C3 1_555 1_555
H3 C4 1_555 1_555
C5 C4 1_555 1_555
H4 C5 1_555 1_555
C6 H5 1_555 1_555
C7 C6 1_555 1_555
H6 C7 1_555 1_555
C8 C7 1_555 1_555
C9 C8 1_555 1_555
H7 C9 1_555 1_555
C10 C9 1_555 1_555
H8 C10 1_555 1_555
C11 H9 1_555 1_555
C12 C11 1_555 1_555
H10 C12 1_555 1_555
C13 C12 1_555 1_555
C14 C13 1_555 1_555
H11 C14 1_555 1_555
C15 C14 1_555 1_555
H12 C15 1_555 1_555
C16 H13 1_555 1_555
C17 C16 1_555 1_555
H14 C17 1_555 1_555
C18 C17 1_555 1_555
C19 C18 1_555 1_555
H15 C19 1_555 1_555
C20 C19 1_555 1_555
H16 C20 1_555 1_555
C21 C3 1_555 1_555
C22 C21 1_555 1_555
C23 C22 1_555 1_555
H17 C23 1_555 1_555
H18 C23 1_555 1_555
H19 C23 1_555 1_555
C24 C22 1_555 1_555
C25 C24 1_555 1_555
C26 C24 1_555 1_555
C27 C26 1_555 1_555
H20 C27 1_555 1_555
H21 C27 1_555 1_555
H22 C27 1_555 1_555
C28 C18 1_555 1_555
C29 C21 1_555 1_555
C30 C29 1_555 1_555
H23 C30 1_555 1_555
H24 C30 1_555 1_555
H25 C30 1_555 1_555
C31 C8 1_555 1_555
C32 C31 1_555 1_555
C33 C32 1_555 1_555
H26 C33 1_555 1_555
H27 C33 1_555 1_555
H28 C33 1_555 1_555
C34 C25 1_555 1_555
C35 C34 1_555 1_555
H29 C35 1_555 1_555
H30 C35 1_555 1_555
H31 C35 1_555 1_555
C36 C13 1_555 1_555
C37 C25 1_555 1_555
C38 C37 1_555 1_555
H32 C38 1_555 1_555
H33 C38 1_555 1_555
H34 C38 1_555 1_555
Cl1 Mn1 1_555 1_555
Cl2 Mn1 1_555 1_555
Mn1 N1 1_555 1_555
N1 C1 1_555 1_555
N2 C6 1_555 1_555
N3 C11 1_555 1_555
N4 C16 1_555 1_555
Mn1F N2 1_555 1_555
Mn1G N3 1_555 1_555
Mn1A N4 1_555 1_555
N2F Mn1 1_555 1_555
N3G Mn1 1_555 1_555
N4A Mn1 1_555 1_555
C5 N1 1_555 1_555
C10 N2 1_555 1_555
C15 N3 1_555 1_555
C20 N4 1_555 1_555
C26 C28 1_555 1_555
C28 C29 1_555 1_555
C31 C34 1_555 1_555
C32 C36 1_555 1_555
C36 C37 1_555 1_555

#END
