
#######################################################################
#
#                 Cambridge Crystallographic Data Centre
#                                CCDC 
#
#######################################################################
#
# If this CIF has been generated from an entry in the Cambridge 
# Structural Database, then it will include bibliographic, chemical, 
# crystal, experimental, refinement or atomic coordinate data resulting 
# from the CCDC's data processing and validation procedures.
#
#######################################################################

data_MANMOE
_symmetry_cell_setting           triclinic
_symmetry_space_group_name_H-M   'P -1'
_symmetry_Int_Tables_number      2
_space_group_name_Hall           '-P 1'
loop_
_symmetry_equiv_pos_site_id
_symmetry_equiv_pos_as_xyz
1 x,y,z
2 -x,-y,-z
_cell_length_a                   8.4414(9)
_cell_length_b                   9.8056(10)
_cell_length_c                   10.7985(11)
_cell_angle_alpha                99.066(2)
_cell_angle_beta                 99.101(2)
_cell_angle_gamma                105.796(2)
_cell_volume                     830.094
loop_
_atom_site_label
_atom_site_type_symbol
_atom_site_fract_x
_atom_site_fract_y
_atom_site_fract_z
Zn1 Zn 0.67722(8) 0.43418(7) 0.61263(5)
N1 N 0.6513(6) 0.5799(5) 0.7722(4)
C1 C 0.5254(8) 0.5426(6) 0.8330(5)
H1 H 0.4614 0.4444 0.8170
C2 C 0.4849(7) 0.6411(6) 0.9182(5)
H2 H 0.3952 0.6092 0.9589
C3 C 0.5756(7) 0.7876(6) 0.9444(5)
C4 C 0.7125(7) 0.8227(6) 0.8868(5)
H3 H 0.7834 0.9189 0.9052
C5 C 0.7454(7) 0.7188(6) 0.8034(6)
H4 H 0.8393 0.7467 0.7661
N2 N 0.6961(6) 1.2848(5) 1.4541(4)
C6 C 0.7989(7) 1.3311(6) 1.3760(5)
H5 H 0.8841 1.4206 1.4053
C7 C 0.7846(7) 1.2530(6) 1.2553(5)
H6 H 0.8588 1.2898 1.2037
C8 C 0.6608(6) 1.1197(6) 1.2089(5)
C9 C 0.5649(8) 1.0671(6) 1.2933(5)
H7 H 0.4858 0.9741 1.2694
C10 C 0.5863(8) 1.1526(6) 1.4138(5)
H8 H 0.5196 1.1150 1.4698
C11 C 0.5097(6) 0.8948(5) 1.0179(5)
H9 H 0.4618 0.8557 1.0876
C12 C 0.6228(6) 1.0523(5) 1.0680(5)
H10 H 0.7281 1.0679 1.0354
O1 O 0.9154(6) 0.4340(5) 0.7201(4)
O2 O 0.7113(6) 0.2703(6) 0.7635(6)
C13 C 0.8600(7) 0.3368(7) 0.7748(6)
C14 C 0.9880(9) 0.2978(8) 0.8672(7)
F1 F 0.9688(9) 0.1593(6) 0.8391(8)
F2 F 0.9597(10) 0.3163(11) 0.9826(6)
F3 F 1.1412(6) 0.3605(7) 0.8745(7)
O3 O 0.7751(6) 0.6035(5) 0.5344(4)
O4 O 0.5735(6) 0.6713(6) 0.4233(5)
C15 C 0.7182(8) 0.6829(7) 0.4726(5)
C16 C 0.8475(13) 0.8193(10) 0.4628(11)
H11 H 0.8626 0.8951 0.5371
H12 H 0.8091 0.8502 0.3854
H13 H 0.9538 0.8003 0.4594
Zn1A Zn 0.32278(8) 1.56582(7) 1.38737(5)
Zn1_2 Zn 0.67722(8) 1.43418(7) 1.61263(5)
Zn1A_2 Zn 0.32278(8) 0.56582(7) 0.38737(5)
N1A N 0.3487(6) 1.4201(5) 1.2278(4)
C1A C 0.4746(8) 1.4574(6) 1.1670(5)
H1A H 0.5386 1.5556 1.1830
C2A C 0.5151(7) 1.3589(6) 1.0818(5)
H2A H 0.6048 1.3908 1.0411
C3A C 0.4244(7) 1.2124(6) 1.0556(5)
C4A C 0.2875(7) 1.1773(6) 1.1132(5)
H3A H 0.2166 1.0811 1.0948
C5A C 0.2546(7) 1.2812(6) 1.1966(6)
H4A H 0.1607 1.2533 1.2339
N2A N 0.3039(6) 0.7152(5) 0.5459(4)
N2_2 N 0.6961(6) 0.2848(5) 0.4541(4)
N2A_2 N 0.3039(6) 1.7152(5) 1.5459(4)
C6A C 0.2011(7) 0.6689(6) 0.6240(5)
H5A H 0.1159 0.5794 0.5947
C7A C 0.2154(7) 0.7470(6) 0.7447(5)
H6A H 0.1412 0.7102 0.7963
C8A C 0.3392(6) 0.8803(6) 0.7911(5)
C9A C 0.4351(8) 0.9329(6) 0.7067(5)
H7A H 0.5142 1.0259 0.7306
C10A C 0.4137(8) 0.8474(6) 0.5862(5)
H8A H 0.4804 0.8850 0.5302
C11A C 0.4903(6) 1.1052(5) 0.9821(5)
H9A H 0.5382 1.1443 0.9124
C12A C 0.3772(6) 0.9477(5) 0.9320(5)
H10A H 0.2719 0.9321 0.9646
O1A O 0.0846(6) 1.5660(5) 1.2799(4)
O2A O 0.2887(6) 1.7297(6) 1.2365(6)
C13A C 0.1400(7) 1.6632(7) 1.2252(6)
C14A C 0.0120(9) 1.7022(8) 1.1328(7)
F1A F 0.0312(9) 1.8407(6) 1.1609(8)
F2A F 0.0403(10) 1.6837(11) 1.0174(6)
F3A F -0.1412(6) 1.6395(7) 1.1255(7)
O3A O 0.2249(6) 0.3965(5) 0.4656(4)
O3A_2 O 0.2249(6) 1.3965(5) 1.4656(4)
O4A O 0.4265(6) 0.3287(6) 0.5767(5)
O4_2 O 0.5735(6) 1.6713(6) 1.4233(5)
C15A C 0.2818(8) 0.3171(7) 0.5274(5)
C16A C 0.1525(13) 0.1807(10) 0.5372(11)
H11A H 0.1374 0.1049 0.4629
H12A H 0.1909 0.1498 0.6146
H13A H 0.0462 0.1997 0.5406
loop_
_geom_bond_atom_site_label_1
_geom_bond_atom_site_label_2
_geom_bond_site_symmetry_1
_geom_bond_site_symmetry_2
Zn1 N1 1_555 1_555
N1 C1 1_555 1_555
C1 H1 1_555 1_555
C2 C1 1_555 1_555
H2 C2 1_555 1_555
C3 C2 1_555 1_555
C4 C3 1_555 1_555
H3 C4 1_555 1_555
C5 N1 1_555 1_555
H4 C5 1_555 1_555
N2 C6 1_555 1_555
C6 H5 1_555 1_555
C7 C6 1_555 1_555
H6 C7 1_555 1_555
C8 C7 1_555 1_555
C9 C8 1_555 1_555
H7 C9 1_555 1_555
C10 N2 1_555 1_555
H8 C10 1_555 1_555
C11 C3 1_555 1_555
H9 C11 1_555 1_555
C12 C8 1_555 1_555
H10 C12 1_555 1_555
O1 Zn1 1_555 1_555
O2 Zn1 1_555 1_555
C13 O1 1_555 1_555
C14 C13 1_555 1_555
F1 C14 1_555 1_555
F2 C14 1_555 1_555
F3 C14 1_555 1_555
O3 Zn1 1_555 1_555
O4 C15 1_555 1_555
C15 O3 1_555 1_555
C16 C15 1_555 1_555
H11 C16 1_555 1_555
H12 C16 1_555 1_555
H13 C16 1_555 1_555
Zn1A N1A 1_555 1_555
Zn1_2 N2 1_555 1_555
Zn1A_2 O4 1_555 1_555
N1A C1A 1_555 1_555
C1A H1A 1_555 1_555
C2A C1A 1_555 1_555
H2A C2A 1_555 1_555
C3A C2A 1_555 1_555
C4A C3A 1_555 1_555
H3A C4A 1_555 1_555
C5A N1A 1_555 1_555
H4A C5A 1_555 1_555
N2A Zn1A_2 1_555 1_555
N2_2 Zn1 1_555 1_555
N2A_2 Zn1A 1_555 1_555
C6A N2A 1_555 1_555
H5A C6A 1_555 1_555
C7A C6A 1_555 1_555
H6A C7A 1_555 1_555
C8A C7A 1_555 1_555
C9A C8A 1_555 1_555
H7A C9A 1_555 1_555
C10A N2A 1_555 1_555
H8A C10A 1_555 1_555
C11A C12 1_555 1_555
H9A C11A 1_555 1_555
C12A C11 1_555 1_555
H10A C12A 1_555 1_555
O1A Zn1A 1_555 1_555
O2A Zn1A 1_555 1_555
C13A O1A 1_555 1_555
C14A C13A 1_555 1_555
F1A C14A 1_555 1_555
F2A C14A 1_555 1_555
F3A C14A 1_555 1_555
O3A Zn1A_2 1_555 1_555
O3A_2 Zn1A 1_555 1_555
O4A Zn1 1_555 1_555
O4_2 Zn1A 1_555 1_555
C15A O3A 1_555 1_555
C16A C15A 1_555 1_555
H11A C16A 1_555 1_555
H12A C16A 1_555 1_555
H13A C16A 1_555 1_555
C4 C5 1_555 1_555
C9 C10 1_555 1_555
C11 C12 1_555 1_555
O2 C13 1_555 1_555
C3A C11A 1_555 1_555
C4A C5A 1_555 1_555
C8A C12A 1_555 1_555
C9A C10A 1_555 1_555
C11A C12A 1_555 1_555
O2A C13A 1_555 1_555
O4A C15A 1_555 1_555

#END
