
#######################################################################
#
#                 Cambridge Crystallographic Data Centre
#                                CCDC 
#
#######################################################################
#
# If this CIF has been generated from an entry in the Cambridge 
# Structural Database, then it will include bibliographic, chemical, 
# crystal, experimental, refinement or atomic coordinate data resulting 
# from the CCDC's data processing and validation procedures.
#
#######################################################################

data_MANMAQ
_symmetry_cell_setting           monoclinic
_symmetry_space_group_name_H-M   'P 2/n'
_symmetry_Int_Tables_number      13
_space_group_name_Hall           '-P 2yac'
loop_
_symmetry_equiv_pos_site_id
_symmetry_equiv_pos_as_xyz
1 x,y,z
2 1/2-x,y,1/2-z
3 -x,-y,-z
4 1/2+x,-y,1/2+z
_cell_length_a                   9.5526(6)
_cell_length_b                   5.6572(3)
_cell_length_c                   16.0342(10)
_cell_angle_alpha                90
_cell_angle_beta                 98.4920(10)
_cell_angle_gamma                90
_cell_volume                     857.004
loop_
_atom_site_label
_atom_site_type_symbol
_atom_site_fract_x
_atom_site_fract_y
_atom_site_fract_z
Zn1 Zn 0.2500 0.30061(6) 0.2500
O1 O 0.36700(18) 0.5210(3) 0.32262(10)
O2 O 0.5429(2) 0.2610(4) 0.34546(15)
N1 N 0.17511(18) 0.0771(3) 0.33317(10)
C1 C 0.0676(3) -0.0710(4) 0.30993(14)
H1 H 0.0215 -0.0647 0.2540
C2 C 0.0213(3) -0.2313(5) 0.36351(16)
H2 H -0.0550 -0.3318 0.3442
C3 C 0.0878(3) -0.2452(4) 0.44719(14)
C4 C 0.1999(3) -0.0928(5) 0.47065(14)
H3 H 0.2486 -0.0958 0.5260
C5 C 0.2399(3) 0.0631(5) 0.41287(13)
H4 H 0.3165 0.1648 0.4302
C6 C 0.0451(2) -0.4111(4) 0.50865(14)
H5 H 0.0849 -0.3899 0.5654
C7 C 0.4918(3) 0.4599(5) 0.35326(15)
C8 C 0.5786(3) 0.6432(6) 0.4059(2)
H6 H 0.6436 0.7171 0.3727
H7 H 0.6318 0.5684 0.4550
H8 H 0.5163 0.7624 0.4238
Zn1B Zn -0.2500 -1.30061(6) 0.7500
O1A O 0.13300(18) 0.5210(3) 0.17738(10)
O2A O -0.0429(2) 0.2610(4) 0.15454(15)
N1B N -0.17511(18) -1.0771(3) 0.66683(10)
N1A N 0.32489(18) 0.0771(3) 0.16683(10)
C1B C -0.0676(3) -0.9290(4) 0.69007(14)
H1B H -0.0215 -0.9353 0.7460
C2B C -0.0213(3) -0.7687(5) 0.63649(16)
H2B H 0.0550 -0.6682 0.6558
C3B C -0.0878(3) -0.7548(4) 0.55281(14)
C4B C -0.1999(3) -0.9072(5) 0.52935(14)
H3B H -0.2486 -0.9042 0.4740
C5B C -0.2399(3) -1.0631(5) 0.58713(13)
H4B H -0.3165 -1.1648 0.5698
C6B C -0.0451(2) -0.5889(4) 0.49135(14)
H5B H -0.0849 -0.6101 0.4346
C7A C 0.0082(3) 0.4599(5) 0.14674(15)
C8A C -0.0786(3) 0.6432(6) 0.0941(2)
H6A H -0.1436 0.7171 0.1273
H7A H -0.1318 0.5684 0.0450
H8A H -0.0163 0.7624 0.0762
O3 O -0.2500 -0.587(2) 0.2500
O4? O -0.1988(14) -0.673(3) 0.2923(8)
loop_
_geom_bond_atom_site_label_1
_geom_bond_atom_site_label_2
_geom_bond_site_symmetry_1
_geom_bond_site_symmetry_2
Zn1 O1 1_555 1_555
O1 C7 1_555 1_555
O2 C7 1_555 1_555
N1 Zn1 1_555 1_555
C1 N1 1_555 1_555
H1 C1 1_555 1_555
C2 C1 1_555 1_555
H2 C2 1_555 1_555
C3 C2 1_555 1_555
C4 C3 1_555 1_555
H3 C4 1_555 1_555
C5 N1 1_555 1_555
H4 C5 1_555 1_555
C6 C3 1_555 1_555
H5 C6 1_555 1_555
C7 C8 1_555 1_555
C8 H6 1_555 1_555
H7 C8 1_555 1_555
H8 C8 1_555 1_555
Zn1B N1B 1_555 1_555
O1A Zn1 1_555 1_555
O2A C7A 1_555 1_555
N1B C1B 1_555 1_555
N1A Zn1 1_555 1_555
C1B H1B 1_555 1_555
C2B C1B 1_555 1_555
H2B C2B 1_555 1_555
C3B C2B 1_555 1_555
C4B C3B 1_555 1_555
H3B C4B 1_555 1_555
C5B N1B 1_555 1_555
H4B C5B 1_555 1_555
C6B C6 1_555 1_555
H5B C6B 1_555 1_555
C7A O1A 1_555 1_555
C8A C7A 1_555 1_555
H6A C8A 1_555 1_555
H7A C8A 1_555 1_555
H8A C8A 1_555 1_555
C4 C5 1_555 1_555
C3B C6B 1_555 1_555
C4B C5B 1_555 1_555

#END
