
#######################################################################
#
#                 Cambridge Crystallographic Data Centre
#                                CCDC 
#
#######################################################################
#
# If this CIF has been generated from an entry in the Cambridge 
# Structural Database, then it will include bibliographic, chemical, 
# crystal, experimental, refinement or atomic coordinate data resulting 
# from the CCDC's data processing and validation procedures.
#
#######################################################################

data_MANMAQ01
_symmetry_cell_setting           monoclinic
_symmetry_space_group_name_H-M   'P 2/c'
_symmetry_Int_Tables_number      13
_space_group_name_Hall           '-P 2yc'
loop_
_symmetry_equiv_pos_site_id
_symmetry_equiv_pos_as_xyz
1 x,y,z
2 -x,y,1/2-z
3 -x,-y,-z
4 x,-y,1/2+z
_cell_length_a                   9.5897(6)
_cell_length_b                   5.6970(4)
_cell_length_c                   17.5177(9)
_cell_angle_alpha                90
_cell_angle_beta                 115.035(3)
_cell_angle_gamma                90
_cell_volume                     867.122
loop_
_atom_site_label
_atom_site_type_symbol
_atom_site_fract_x
_atom_site_fract_y
_atom_site_fract_z
Zn1 Zn 0.5000 0.79971(5) 0.2500
O1 O 0.5441(2) 1.0173(3) 0.17797(12)
O2 O 0.6983(4) 0.7634(5) 0.1575(2)
N1 N 0.34284(19) 0.5766(3) 0.16597(10)
C1 C 0.6390(3) 0.9601(5) 0.14902(16)
C2 C 0.6733(5) 1.1408(7) 0.0967(3)
H1 H 0.7740 1.2053 0.1285
H2 H 0.5981 1.2640 0.0819
H3 H 0.6697 1.0686 0.0464
C3 C 0.3237(3) 0.5640(5) 0.08606(14)
H4 H 0.3800 0.6660 0.0685
C4 C 0.2248(3) 0.4088(5) 0.02836(14)
H5 H 0.2150 0.4082 -0.0268
C5 C 0.1605(4) 0.2656(5) 0.13564(18)
H6 H 0.1060 0.1649 0.1549
C6 C 0.2613(3) 0.4263(5) 0.18959(15)
H7 H 0.2736 0.4306 0.2451
C7 C 0.0355(3) 0.0894(4) -0.00879(14)
H8 H 0.0168 0.1111 -0.0649
C8 C 0.1406(3) 0.2540(4) 0.05253(15)
N1B N -0.34284(19) -0.5766(3) -0.16597(10)
C3B C -0.3237(3) -0.5640(5) -0.08606(14)
H4B H -0.3800 -0.6660 -0.0685
C4B C -0.2248(3) -0.4088(5) -0.02836(14)
H5B H -0.2150 -0.4082 0.0268
C5B C -0.1605(4) -0.2656(5) -0.13564(18)
H6B H -0.1060 -0.1649 -0.1549
C6B C -0.2613(3) -0.4263(5) -0.18959(15)
H7B H -0.2736 -0.4306 -0.2451
C7B C -0.0355(3) -0.0894(4) 0.00879(14)
H8B H -0.0168 -0.1111 0.0649
C8B C -0.1406(3) -0.2540(4) -0.05253(15)
O1A O 0.4559(2) 1.0173(3) 0.32203(12)
O2A O 0.3017(4) 0.7634(5) 0.3425(2)
C1A C 0.3610(3) 0.9601(5) 0.35098(16)
C2A C 0.3267(5) 1.1408(7) 0.4033(3)
H1A H 0.2260 1.2053 0.3715
H2A H 0.4019 1.2640 0.4181
H3A H 0.3303 1.0686 0.4536
Zn1B Zn -0.5000 -0.79971(5) -0.2500
N1A N 0.65716(19) 0.5766(3) 0.33403(10)
O3 O 1.0033(14) 0.801(3) 0.2049(7)
loop_
_geom_bond_atom_site_label_1
_geom_bond_atom_site_label_2
_geom_bond_site_symmetry_1
_geom_bond_site_symmetry_2
Zn1 O1 1_555 1_555
O1 C1 1_555 1_555
O2 C1 1_555 1_555
N1 Zn1 1_555 1_555
C1 C2 1_555 1_555
C2 H1 1_555 1_555
H2 C2 1_555 1_555
H3 C2 1_555 1_555
C3 N1 1_555 1_555
H4 C3 1_555 1_555
C4 C3 1_555 1_555
H5 C4 1_555 1_555
C5 H6 1_555 1_555
C6 N1 1_555 1_555
H7 C6 1_555 1_555
C7 H8 1_555 1_555
C8 C4 1_555 1_555
N1B C3B 1_555 1_555
C3B H4B 1_555 1_555
C4B C3B 1_555 1_555
H5B C4B 1_555 1_555
C5B H6B 1_555 1_555
C6B N1B 1_555 1_555
H7B C6B 1_555 1_555
C7B C7 1_555 1_555
H8B C7B 1_555 1_555
C8B C4B 1_555 1_555
O1A Zn1 1_555 1_555
O2A C1A 1_555 1_555
C1A O1A 1_555 1_555
C2A C1A 1_555 1_555
H1A C2A 1_555 1_555
H2A C2A 1_555 1_555
H3A C2A 1_555 1_555
Zn1B N1B 1_555 1_555
N1A Zn1 1_555 1_555
C5 C6 1_555 1_555
C5 C8 1_555 1_555
C7 C8 1_555 1_555
C5B C6B 1_555 1_555
C5B C8B 1_555 1_555
C7B C8B 1_555 1_555

#END
