
#######################################################################
#
#                 Cambridge Crystallographic Data Centre
#                                CCDC 
#
#######################################################################
#
# If this CIF has been generated from an entry in the Cambridge 
# Structural Database, then it will include bibliographic, chemical, 
# crystal, experimental, refinement or atomic coordinate data resulting 
# from the CCDC's data processing and validation procedures.
#
#######################################################################

data_MANQAV
_symmetry_cell_setting           orthorhombic
_symmetry_space_group_name_H-M   'P n a 21'
_symmetry_Int_Tables_number      33
_space_group_name_Hall           'P 2c -2n'
loop_
_symmetry_equiv_pos_site_id
_symmetry_equiv_pos_as_xyz
1 x,y,z
2 -x,-y,1/2+z
3 1/2+x,1/2-y,z
4 1/2-x,1/2+y,1/2+z
_cell_length_a                   8.9619(19)
_cell_length_b                   9.518(2)
_cell_length_c                   14.043(3)
_cell_angle_alpha                90
_cell_angle_beta                 90
_cell_angle_gamma                90
_cell_volume                     1197.86
loop_
_atom_site_label
_atom_site_type_symbol
_atom_site_fract_x
_atom_site_fract_y
_atom_site_fract_z
Co1 Co 0.87906(15) 0.41030(17) 0.3832(2)
N1 N 0.7979(13) 0.5806(14) 0.2993(8)
N2 N 0.718(3) 0.580(2) 0.216(2)
N3 N 0.711(2) 0.744(2) 0.1903(14)
N4 N 0.774(3) 0.809(2) 0.2680(19)
H1 H 0.7787 0.8981 0.2782
C1 C 0.8269(16) 0.7090(19) 0.3235(10)
C2 C 0.9081(14) 0.7128(18) 0.4156(10)
N5 N 0.9435(13) 0.5917(14) 0.4605(9)
C3 C 1.0148(16) 0.5899(16) 0.5448(13)
H2 H 1.0313 0.5026 0.5726
C4 C 1.0630(16) 0.7001(15) 0.5911(12)
H3 H 1.1111 0.6893 0.6493
C5 C 1.043(2) 0.828(2) 0.5549(17)
H4 H 1.0745 0.9078 0.5871
N6 N 0.9623(18) 0.8380(18) 0.4533(14)
C6 C 0.6056(14) 0.2796(16) 0.4323(11)
C7 C 0.6576(14) 0.2112(17) 0.3414(10)
O1 O 0.6886(9) 0.3794(10) 0.4634(7)
O2 O 0.7831(9) 0.2457(14) 0.3040(7)
O3 O 0.4949(8) 0.2367(11) 0.4684(6)
O4 O 0.5790(11) 0.1138(11) 0.3087(8)
Co1B Co 0.37906(15) 0.08970(17) 0.3832(2)
O3B O 0.9949(8) 0.2633(11) 0.4684(6)
O4B O 1.0790(11) 0.3862(11) 0.3087(8)
loop_
_geom_bond_atom_site_label_1
_geom_bond_atom_site_label_2
_geom_bond_site_symmetry_1
_geom_bond_site_symmetry_2
Co1 N1 1_555 1_555
N1 N2 1_555 1_555
N2 N3 1_555 1_555
N3 N4 1_555 1_555
N4 H1 1_555 1_555
C1 N1 1_555 1_555
C2 C1 1_555 1_555
N5 Co1 1_555 1_555
C3 N5 1_555 1_555
H2 C3 1_555 1_555
C4 C3 1_555 1_555
H3 C4 1_555 1_555
C5 C4 1_555 1_555
H4 C5 1_555 1_555
N6 C2 1_555 1_555
C6 C7 1_555 1_555
C7 O2 1_555 1_555
O1 Co1 1_555 1_555
O2 Co1 1_555 1_555
O3 C6 1_555 1_555
O4 C7 1_555 1_555
Co1B O3 1_555 1_555
O3B Co1 1_555 1_555
O4B Co1 1_555 1_555
N4 C1 1_555 1_555
C2 N5 1_555 1_555
C5 N6 1_555 1_555
C6 O1 1_555 1_555
O4 Co1B 1_555 1_555

#END
