
#######################################################################
#
#                 Cambridge Crystallographic Data Centre
#                                CCDC 
#
#######################################################################
#
# If this CIF has been generated from an entry in the Cambridge 
# Structural Database, then it will include bibliographic, chemical, 
# crystal, experimental, refinement or atomic coordinate data resulting 
# from the CCDC's data processing and validation procedures.
#
#######################################################################

data_MANTOM
_symmetry_cell_setting           triclinic
_symmetry_space_group_name_H-M   'P -1'
_symmetry_Int_Tables_number      2
_space_group_name_Hall           '-P 1'
loop_
_symmetry_equiv_pos_site_id
_symmetry_equiv_pos_as_xyz
1 x,y,z
2 -x,-y,-z
_cell_length_a                   7.3703(7)
_cell_length_b                   11.2981(13)
_cell_length_c                   13.0952(12)
_cell_angle_alpha                78.614(6)
_cell_angle_beta                 83.606(6)
_cell_angle_gamma                88.649(6)
_cell_volume                     1062.33
loop_
_atom_site_label
_atom_site_type_symbol
_atom_site_fract_x
_atom_site_fract_y
_atom_site_fract_z
Cd1 Cd 0.34329(17) 0.47430(10) 0.25548(10)
Cd2 Cd -0.14694(17) -0.09179(11) 0.25671(9)
N1 N -0.0157(19) 0.4652(13) 0.2686(12)
N2 N -0.0964(19) 0.2461(13) 0.2040(11)
N3 N -0.033(2) 0.1342(11) 0.1745(12)
H1 H 0.0904 0.1327 0.1790
H2 H -0.0465 0.1445 0.1042
N4 N 0.4924(18) -0.0888(12) 0.2714(11)
N5 N 0.3941(17) 0.1621(14) 0.2021(12)
N6 N 0.4661(19) 0.2850(11) 0.1729(11)
H3 H 0.4602 0.3079 0.1019
H4 H 0.5883 0.2785 0.1818
C1 C 0.350(3) 0.4147(19) 0.4217(14)
H5 H 0.4713 0.3827 0.4355
H6 H 0.2584 0.3513 0.4483
H7 H 0.3227 0.4830 0.4569
C2 C 0.384(3) 0.5898(16) 0.1044(14)
H8 H 0.3032 0.6602 0.1031
H9 H 0.3555 0.5455 0.0509
H10 H 0.5112 0.6166 0.0901
C3 C -0.133(3) -0.1072(16) 0.4207(13)
H11 H -0.2101 -0.0448 0.4462
H12 H -0.0068 -0.0969 0.4335
H13 H -0.1772 -0.1871 0.4579
C4 C -0.105(3) -0.1386(16) 0.1025(15)
H14 H 0.0169 -0.1736 0.0921
H15 H -0.1160 -0.0659 0.0486
H16 H -0.1974 -0.1976 0.0971
C5 C -0.068(3) 0.577(2) 0.3066(18)
H17 H 0.0095 0.6433 0.2668
H18 H -0.0507 0.5655 0.3811
H19 H -0.1958 0.5954 0.2973
C6 C -0.100(3) 0.3590(14) 0.3436(14)
H20 H -0.2349 0.3684 0.3504
H21 H -0.0590 0.3557 0.4135
C7 C -0.050(2) 0.2430(14) 0.3072(13)
H22 H 0.0830 0.2290 0.3084
H23 H -0.1142 0.1750 0.3560
C8 C -0.017(2) 0.3526(15) 0.1297(13)
H24 H -0.0568 0.3547 0.0596
H25 H 0.1179 0.3470 0.1235
C9 C -0.077(3) 0.4662(15) 0.1672(15)
H26 H -0.0262 0.5373 0.1162
H27 H -0.2121 0.4723 0.1726
C10 C 0.449(3) -0.2156(14) 0.3063(16)
H28 H 0.3168 -0.2269 0.3077
H29 H 0.4851 -0.2436 0.3768
H30 H 0.5142 -0.2620 0.2580
C11 C 0.435(3) -0.0445(17) 0.1677(14)
H31 H 0.3004 -0.0508 0.1706
H32 H 0.4914 -0.0938 0.1179
C12 C 0.493(3) 0.0860(15) 0.1312(13)
H33 H 0.6266 0.0926 0.1324
H34 H 0.4648 0.1153 0.0583
C13 C 0.464(3) 0.1130(16) 0.3091(12)
H35 H 0.5991 0.1179 0.3023
H36 H 0.4141 0.1618 0.3607
C14 C 0.404(3) -0.0177(15) 0.3462(14)
H37 H 0.4400 -0.0493 0.4171
H38 H 0.2695 -0.0234 0.3494
Cd2_2 Cd 0.85306(17) -0.09179(11) 0.25671(9)
N4_2 N -0.5076(18) -0.0888(12) 0.2714(11)
loop_
_geom_bond_atom_site_label_1
_geom_bond_atom_site_label_2
_geom_bond_site_symmetry_1
_geom_bond_site_symmetry_2
Cd1 N1 1_555 1_555
Cd2 N3 1_555 1_555
N1 C5 1_555 1_555
N2 N3 1_555 1_555
N3 H1 1_555 1_555
H2 N3 1_555 1_555
N4 C10 1_555 1_555
N5 N6 1_555 1_555
N6 Cd1 1_555 1_555
H3 N6 1_555 1_555
H4 N6 1_555 1_555
C1 Cd1 1_555 1_555
H5 C1 1_555 1_555
H6 C1 1_555 1_555
H7 C1 1_555 1_555
C2 Cd1 1_555 1_555
H8 C2 1_555 1_555
H9 C2 1_555 1_555
H10 C2 1_555 1_555
C3 Cd2 1_555 1_555
H11 C3 1_555 1_555
H12 C3 1_555 1_555
H13 C3 1_555 1_555
C4 Cd2 1_555 1_555
H14 C4 1_555 1_555
H15 C4 1_555 1_555
H16 C4 1_555 1_555
C5 H17 1_555 1_555
H18 C5 1_555 1_555
H19 C5 1_555 1_555
C6 N1 1_555 1_555
H20 C6 1_555 1_555
H21 C6 1_555 1_555
C7 N2 1_555 1_555
H22 C7 1_555 1_555
H23 C7 1_555 1_555
C8 N2 1_555 1_555
H24 C8 1_555 1_555
H25 C8 1_555 1_555
C9 N1 1_555 1_555
H26 C9 1_555 1_555
H27 C9 1_555 1_555
C10 H28 1_555 1_555
H29 C10 1_555 1_555
H30 C10 1_555 1_555
C11 N4 1_555 1_555
H31 C11 1_555 1_555
H32 C11 1_555 1_555
C12 N5 1_555 1_555
H33 C12 1_555 1_555
H34 C12 1_555 1_555
C13 N5 1_555 1_555
H35 C13 1_555 1_555
H36 C13 1_555 1_555
C14 N4 1_555 1_555
H37 C14 1_555 1_555
H38 C14 1_555 1_555
Cd2_2 N4 1_555 1_555
N4_2 Cd2 1_555 1_555
C6 C7 1_555 1_555
C8 C9 1_555 1_555
C11 C12 1_555 1_555
C13 C14 1_555 1_555

#END
