
#######################################################################
#
#                 Cambridge Crystallographic Data Centre
#                                CCDC 
#
#######################################################################
#
# If this CIF has been generated from an entry in the Cambridge 
# Structural Database, then it will include bibliographic, chemical, 
# crystal, experimental, refinement or atomic coordinate data resulting 
# from the CCDC's data processing and validation procedures.
#
#######################################################################

data_MANZIM
_symmetry_cell_setting           monoclinic
_symmetry_space_group_name_H-M   'P 21/n'
_symmetry_Int_Tables_number      14
_space_group_name_Hall           '-P 2yn'
loop_
_symmetry_equiv_pos_site_id
_symmetry_equiv_pos_as_xyz
1 x,y,z
2 1/2-x,1/2+y,1/2-z
3 -x,-y,-z
4 1/2+x,1/2-y,1/2+z
_cell_length_a                   6.6588(7)
_cell_length_b                   29.170(3)
_cell_length_c                   10.6736(11)
_cell_angle_alpha                90
_cell_angle_beta                 92.314(1)
_cell_angle_gamma                90
_cell_volume                     2071.52
loop_
_atom_site_label
_atom_site_type_symbol
_atom_site_fract_x
_atom_site_fract_y
_atom_site_fract_z
Sm1 Sm 0.23951(3) 0.078062(6) 0.038978(16)
N1 N 0.2519(7) -0.11246(14) 0.6441(4)
H1 H 0.346(6) -0.1159(14) 0.684(4)
H2 H 0.152(6) -0.1144(14) 0.685(4)
N2 N 0.0523(6) 0.16601(11) -0.2981(3)
N3 N 0.2388(7) 0.30954(13) 0.5289(4)
H3 H 0.344(7) 0.3190(15) 0.555(4)
H4 H 0.138(6) 0.3208(14) 0.544(4)
O1 O 0.5690(4) 0.07790(9) -0.0356(2)
O2 O 0.2432(4) 0.02121(9) -0.1211(3)
H5 H 0.148(5) 0.0050(14) -0.152(4)
H6 H 0.350(4) 0.0090(14) -0.145(4)
O3 O 0.4168(4) 0.02431(8) 0.1879(2)
O4 O 0.0910(4) 0.02883(8) 0.1952(2)
O5 O 0.8995(4) 0.07082(8) -0.0334(2)
O6 O 0.0753(4) 0.13974(8) 0.1608(2)
O7 O 0.4052(4) 0.13817(8) 0.1716(2)
O8 O 0.2007(4) 0.13432(9) -0.1244(3)
C1 C 0.7357(6) 0.07606(12) 0.0174(4)
H7 H 0.749(6) 0.0801(12) 0.114(4)
C2 C 0.2560(5) 0.01089(12) 0.2354(3)
C3 C 0.2561(5) -0.02327(12) 0.3374(3)
C4 C 0.4317(6) -0.04137(15) 0.3897(4)
H8 H 0.549(6) -0.0316(13) 0.362(3)
C5 C 0.4333(7) -0.07031(15) 0.4904(4)
H9 H 0.547(6) -0.0822(12) 0.531(4)
C6 C 0.2538(6) -0.08296(12) 0.5448(3)
C7 C 0.0761(7) -0.06588(14) 0.4903(4)
H10 H -0.042(6) -0.0732(13) 0.527(4)
C8 C 0.0780(6) -0.03654(15) 0.3899(4)
H11 H -0.028(6) -0.0247(13) 0.368(3)
C9 C 0.2406(6) 0.15684(12) 0.2025(3)
C10 C 0.2424(5) 0.19756(12) 0.2845(3)
C11 C 0.0631(6) 0.21985(13) 0.3119(4)
H12 H -0.056(5) 0.2078(12) 0.278(3)
C12 C 0.0620(6) 0.25721(13) 0.3905(4)
H13 H -0.062(5) 0.2723(11) 0.407(3)
C13 C 0.2408(6) 0.27375(12) 0.4471(3)
C14 C 0.4208(6) 0.25181(13) 0.4191(4)
H14 H 0.544(5) 0.2610(11) 0.454(3)
C15 C 0.4205(6) 0.21481(13) 0.3392(4)
H15 H 0.539(6) 0.1997(13) 0.321(3)
C16 C 0.0501(8) 0.14359(15) -0.1920(4)
H16 H -0.077(7) 0.1357(15) -0.170(4)
C17 C -0.1337(8) 0.17944(16) -0.3650(4)
H17 H -0.2464 0.1682 -0.3207
H18 H -0.1369 0.1667 -0.4479
H19 H -0.1404 0.2123 -0.3703
C18 C 0.2396(8) 0.1790(2) -0.3477(5)
H20 H 0.3477 0.1679 -0.2935
H21 H 0.2468 0.2118 -0.3531
H22 H 0.2506 0.1660 -0.4297
Sm1_2 Sm 1.23951(3) 0.078062(6) 0.038978(16)
O5_2 O -0.1005(4) 0.07082(8) -0.0334(2)
loop_
_geom_bond_atom_site_label_1
_geom_bond_atom_site_label_2
_geom_bond_site_symmetry_1
_geom_bond_site_symmetry_2
Sm1 O1 1_555 1_555
N1 H1 1_555 1_555
H2 N1 1_555 1_555
N2 C16 1_555 1_555
N3 H3 1_555 1_555
H4 N3 1_555 1_555
O1 C1 1_555 1_555
O2 Sm1 1_555 1_555
H5 O2 1_555 1_555
H6 O2 1_555 1_555
O3 Sm1 1_555 1_555
O4 Sm1 1_555 1_555
O5 C1 1_555 1_555
O6 Sm1 1_555 1_555
O7 Sm1 1_555 1_555
O8 Sm1 1_555 1_555
C1 H7 1_555 1_555
C2 O3 1_555 1_555
C3 C2 1_555 1_555
C4 C3 1_555 1_555
H8 C4 1_555 1_555
C5 C4 1_555 1_555
H9 C5 1_555 1_555
C6 N1 1_555 1_555
C7 C6 1_555 1_555
H10 C7 1_555 1_555
C8 C3 1_555 1_555
H11 C8 1_555 1_555
C9 O6 1_555 1_555
C10 C9 1_555 1_555
C11 C10 1_555 1_555
H12 C11 1_555 1_555
C12 C11 1_555 1_555
H13 C12 1_555 1_555
C13 N3 1_555 1_555
C14 C13 1_555 1_555
H14 C14 1_555 1_555
C15 C10 1_555 1_555
H15 C15 1_555 1_555
C16 O8 1_555 1_555
H16 C16 1_555 1_555
C17 N2 1_555 1_555
H17 C17 1_555 1_555
H18 C17 1_555 1_555
H19 C17 1_555 1_555
C18 N2 1_555 1_555
H20 C18 1_555 1_555
H21 C18 1_555 1_555
H22 C18 1_555 1_555
Sm1_2 O5 1_555 1_555
O5_2 Sm1 1_555 1_555
O4 C2 1_555 1_555
O7 C9 1_555 1_555
C5 C6 1_555 1_555
C7 C8 1_555 1_555
C12 C13 1_555 1_555
C14 C15 1_555 1_555

#END
