
#######################################################################
#
#                 Cambridge Crystallographic Data Centre
#                                CCDC 
#
#######################################################################
#
# If this CIF has been generated from an entry in the Cambridge 
# Structural Database, then it will include bibliographic, chemical, 
# crystal, experimental, refinement or atomic coordinate data resulting 
# from the CCDC's data processing and validation procedures.
#
#######################################################################

data_MANZOS
_symmetry_cell_setting           monoclinic
_symmetry_space_group_name_H-M   'P 21/n'
_symmetry_Int_Tables_number      14
_space_group_name_Hall           '-P 2yn'
loop_
_symmetry_equiv_pos_site_id
_symmetry_equiv_pos_as_xyz
1 x,y,z
2 1/2-x,1/2+y,1/2-z
3 -x,-y,-z
4 1/2+x,1/2-y,1/2+z
_cell_length_a                   6.593(3)
_cell_length_b                   29.030(13)
_cell_length_c                   10.681(5)
_cell_angle_alpha                90
_cell_angle_beta                 92.446(7)
_cell_angle_gamma                90
_cell_volume                     2042.43
loop_
_atom_site_label
_atom_site_type_symbol
_atom_site_fract_x
_atom_site_fract_y
_atom_site_fract_z
Tb1 Tb 0.74003(9) 0.42155(2) 0.53844(7)
N1 N 0.738(2) 0.1910(6) 1.0256(15)
H1 H 0.6256 0.1777 1.0406
H2 H 0.8500 0.1812 1.0608
N2 N 0.751(2) 0.6113(5) 1.1411(13)
H3 H 0.8623 0.6234 1.1701
H4 H 0.6381 0.6179 1.1741
N3 N 0.559(2) 0.3347(5) 0.2038(15)
O1 O 0.5756(16) 0.3605(4) 0.6574(13)
O2 O 0.9073(17) 0.3627(4) 0.6722(11)
O3 O 0.5934(14) 0.4709(4) 0.6929(11)
O4 O 0.9185(15) 0.4749(4) 0.6858(10)
O5 O 0.4014(15) 0.4289(4) 0.4678(13)
O6 O 0.7428(15) 0.4781(3) 0.3858(9)
H5 H 0.7570 0.4707 0.3096
H6 H 0.7297 0.5062 0.4060
O7 O 0.0678(16) 0.4217(4) 0.4640(12)
O8 O 0.7051(18) 0.3674(4) 0.3783(11)
C1 C 0.741(2) 0.3449(6) 0.7014(17)
C2 C 0.743(2) 0.3039(6) 0.7818(17)
C3 C 0.562(2) 0.2811(6) 0.8108(17)
H7 H 0.4397 0.2917 0.7754
C4 C 0.562(2) 0.2442(6) 0.8889(15)
H8 H 0.4395 0.2296 0.9040
C5 C 0.741(2) 0.2277(6) 0.9467(18)
C6 C 0.923(3) 0.2496(5) 0.9191(18)
H9 H 1.0452 0.2390 0.9553
C7 C 0.923(2) 0.2862(6) 0.8399(15)
H10 H 1.0459 0.3002 0.8233
C8 C 0.756(2) 0.4879(6) 0.7303(15)
C9 C 0.755(2) 0.5228(5) 0.8328(15)
C10 C 0.575(3) 0.5363(7) 0.8868(19)
H11 H 0.4525 0.5251 0.8535
C11 C 0.575(3) 0.5651(7) 0.9861(19)
H12 H 0.4514 0.5743 1.0173
C12 C 0.754(2) 0.5812(6) 1.0422(19)
C13 C 0.933(3) 0.5707(6) 0.9900(18)
H13 H 1.0539 0.5835 1.0217
C14 C 0.933(2) 0.5396(6) 0.8857(17)
H14 H 1.0562 0.5308 0.8535
C15 C 0.237(2) 0.4231(4) 0.5172(17)
H15 H 0.2414 0.4193 0.6038
C16 C 0.369(4) 0.3212(9) 0.138(3)
H16 H 0.2578 0.3373 0.1723
H17 H 0.3496 0.2886 0.1464
H18 H 0.3763 0.3287 0.0503
C17 C 0.747(4) 0.3232(10) 0.153(2)
H19 H 0.8556 0.3371 0.2026
H20 H 0.7502 0.3345 0.0684
H21 H 0.7638 0.2904 0.1531
C18 C 0.557(3) 0.3567(7) 0.3112(18)
H22 H 0.4308 0.3651 0.3392
Tb1_2 Tb -0.25997(9) 0.42155(2) 0.53844(7)
O7_2 O 1.0678(16) 0.4217(4) 0.4640(12)
loop_
_geom_bond_atom_site_label_1
_geom_bond_atom_site_label_2
_geom_bond_site_symmetry_1
_geom_bond_site_symmetry_2
Tb1 O1 1_555 1_555
N1 H1 1_555 1_555
H2 N1 1_555 1_555
N2 H3 1_555 1_555
H4 N2 1_555 1_555
N3 C16 1_555 1_555
O1 C1 1_555 1_555
O2 Tb1 1_555 1_555
O3 Tb1 1_555 1_555
O4 Tb1 1_555 1_555
O5 Tb1 1_555 1_555
O6 Tb1 1_555 1_555
H5 O6 1_555 1_555
H6 O6 1_555 1_555
O7 C15 1_555 1_555
O8 Tb1 1_555 1_555
C1 O2 1_555 1_555
C2 C1 1_555 1_555
C3 C2 1_555 1_555
H7 C3 1_555 1_555
C4 C3 1_555 1_555
H8 C4 1_555 1_555
C5 N1 1_555 1_555
C6 C5 1_555 1_555
H9 C6 1_555 1_555
C7 C2 1_555 1_555
H10 C7 1_555 1_555
C8 O3 1_555 1_555
C9 C8 1_555 1_555
C10 C9 1_555 1_555
H11 C10 1_555 1_555
C11 C10 1_555 1_555
H12 C11 1_555 1_555
C12 N2 1_555 1_555
C13 C12 1_555 1_555
H13 C13 1_555 1_555
C14 C9 1_555 1_555
H14 C14 1_555 1_555
C15 O5 1_555 1_555
H15 C15 1_555 1_555
C16 H16 1_555 1_555
H17 C16 1_555 1_555
H18 C16 1_555 1_555
C17 N3 1_555 1_555
H19 C17 1_555 1_555
H20 C17 1_555 1_555
H21 C17 1_555 1_555
C18 N3 1_555 1_555
H22 C18 1_555 1_555
Tb1_2 O7 1_555 1_555
O7_2 Tb1 1_555 1_555
O4 C8 1_555 1_555
O8 C18 1_555 1_555
C4 C5 1_555 1_555
C6 C7 1_555 1_555
C11 C12 1_555 1_555
C13 C14 1_555 1_555

#END
