
#######################################################################
#
#                 Cambridge Crystallographic Data Centre
#                                CCDC 
#
#######################################################################
#
# If this CIF has been generated from an entry in the Cambridge 
# Structural Database, then it will include bibliographic, chemical, 
# crystal, experimental, refinement or atomic coordinate data resulting 
# from the CCDC's data processing and validation procedures.
#
#######################################################################

data_MAPBAI
_symmetry_cell_setting           monoclinic
_symmetry_space_group_name_H-M   'P 21/n'
_symmetry_Int_Tables_number      14
_space_group_name_Hall           '-P 2yn'
loop_
_symmetry_equiv_pos_site_id
_symmetry_equiv_pos_as_xyz
1 x,y,z
2 1/2-x,1/2+y,1/2-z
3 -x,-y,-z
4 1/2+x,1/2-y,1/2+z
_cell_length_a                   9.4504(19)
_cell_length_b                   8.3822(17)
_cell_length_c                   16.990(3)
_cell_angle_alpha                90
_cell_angle_beta                 105.68(3)
_cell_angle_gamma                90
_cell_volume                     1295.78
loop_
_atom_site_label
_atom_site_type_symbol
_atom_site_fract_x
_atom_site_fract_y
_atom_site_fract_z
Pr1 Pr 0.833852(12) 0.566424(15) 0.401098(7)
N1 N 0.5610(2) 0.6820(3) 0.36641(13)
C1 C 0.5247(3) 0.7988(3) 0.31092(14)
C2 C 0.3838(3) 0.8613(4) 0.28525(18)
H1 H 0.368(4) 0.942(4) 0.247(2)
C3 C 0.2773(3) 0.8028(4) 0.31979(17)
H2 H 0.181(4) 0.840(5) 0.301(2)
C4 C 0.3146(3) 0.6870(3) 0.37977(15)
C5 C 0.4578(3) 0.6288(3) 0.40029(16)
H3 H 0.484(4) 0.544(4) 0.439(2)
C6 C 0.6464(3) 0.8541(3) 0.27541(14)
C7 C 0.2063(3) 0.6247(3) 0.42347(15)
C8 C 0.9868(5) 0.9053(4) 0.6126(2)
H4 H 0.936(6) 0.881(6) 0.653(3)
H5 H 1.076(7) 0.900(7) 0.635(4)
H6 H 0.962(5) 1.001(7) 0.596(3)
C9 C 0.9391(3) 0.7880(3) 0.54435(16)
O1 O 1.0051(2) 0.6563(2) 0.54754(11)
O2 O 0.8331(2) 0.8202(2) 0.48369(12)
O3 O 0.07549(18) 0.6658(2) 0.39455(11)
O4 O 0.2573(2) 0.5380(2) 0.48506(11)
O5 O 0.6201(2) 0.9667(3) 0.22610(12)
O6 O 0.76656(19) 0.7790(2) 0.29763(11)
O7 O 0.6535(3) 0.3423(3) 0.34513(17)
H7 H 0.614(7) 0.293(7) 0.367(4)
H8 H 0.656(5) 0.318(6) 0.304(3)
Pr1B Pr 1.166148(12) 0.433576(15) 0.598902(7)
Pr1_2 Pr -0.166148(12) 0.566424(15) 0.401098(7)
Pr1B_2 Pr 0.166148(12) 0.433576(15) 0.598902(7)
Pr1A Pr 0.666148(12) 1.066424(15) 0.098902(7)
O1B O 0.9949(2) 0.3437(2) 0.45246(11)
O3_2 O 1.07549(18) 0.6658(2) 0.39455(11)
O4B O 0.7427(2) 0.4620(2) 0.51494(11)
O5A O 0.8799(2) 0.4667(3) 0.27390(12)
O8 O 0.6352(6) 1.0684(5) 0.4574(3)
H9 H 0.6759 1.1195 0.5008
H10 H 0.5600 1.1069 0.4233
O9 O 0.4020(11) 0.2419(13) 0.3940(6)
H11 H 0.3600 0.2493 0.4322
H12 H 0.3689 0.1778 0.3545
loop_
_geom_bond_atom_site_label_1
_geom_bond_atom_site_label_2
_geom_bond_site_symmetry_1
_geom_bond_site_symmetry_2
Pr1 N1 1_555 1_555
N1 C1 1_555 1_555
C1 C2 1_555 1_555
C2 H1 1_555 1_555
C3 C2 1_555 1_555
H2 C3 1_555 1_555
C4 C3 1_555 1_555
C5 N1 1_555 1_555
H3 C5 1_555 1_555
C6 C1 1_555 1_555
C7 C4 1_555 1_555
C8 H4 1_555 1_555
H5 C8 1_555 1_555
H6 C8 1_555 1_555
C9 C8 1_555 1_555
O1 Pr1 1_555 1_555
O2 Pr1 1_555 1_555
O3 C7 1_555 1_555
O4 C7 1_555 1_555
O5 C6 1_555 1_555
O6 Pr1 1_555 1_555
O7 Pr1 1_555 1_555
H7 O7 1_555 1_555
H8 O7 1_555 1_555
O8 H9 1_555 1_555
H10 O8 1_555 1_555
O9 H11 1_555 1_555
H12 O9 1_555 1_555
Pr1B O1 1_555 1_555
Pr1_2 O3 1_555 1_555
Pr1B_2 O4 1_555 1_555
Pr1A O5 1_555 1_555
O1B Pr1 1_555 1_555
O3_2 Pr1 1_555 1_555
O4B Pr1 1_555 1_555
O5A Pr1 1_555 1_555
C4 C5 1_555 1_555
C6 O6 1_555 1_555
C9 O1 1_555 1_555
C9 O2 1_555 1_555
Pr1B O1B 1_555 1_555

#END
