
#######################################################################
#
#                 Cambridge Crystallographic Data Centre
#                                CCDC 
#
#######################################################################
#
# If this CIF has been generated from an entry in the Cambridge 
# Structural Database, then it will include bibliographic, chemical, 
# crystal, experimental, refinement or atomic coordinate data resulting 
# from the CCDC's data processing and validation procedures.
#
#######################################################################

data_MAPBEL
_symmetry_cell_setting           triclinic
_symmetry_space_group_name_H-M   'P -1'
_symmetry_Int_Tables_number      2
_space_group_name_Hall           '-P 1'
loop_
_symmetry_equiv_pos_site_id
_symmetry_equiv_pos_as_xyz
1 x,y,z
2 -x,-y,-z
_cell_length_a                   8.1578(8)
_cell_length_b                   10.8246(12)
_cell_length_c                   12.1665(11)
_cell_angle_alpha                75.445(8)
_cell_angle_beta                 89.690(8)
_cell_angle_gamma                74.082(8)
_cell_volume                     997.677
loop_
_atom_site_label
_atom_site_type_symbol
_atom_site_fract_x
_atom_site_fract_y
_atom_site_fract_z
Co1 Co 0.5000 0.5000 0.5000
C1 C 0.7041(5) 0.2259(4) 0.4716(4)
H1 H 0.7484 0.2781 0.4131
C2 C 0.7604(6) 0.0896(4) 0.4909(4)
H2 H 0.8409 0.0517 0.4456
C3 C 0.6978(5) 0.0093(4) 0.5771(3)
C4 C 0.5784(6) 0.0713(4) 0.6417(4)
H3 H 0.5325 0.0210 0.7007
C5 C 0.5280(6) 0.2085(4) 0.6176(4)
H4 H 0.4481 0.2487 0.6620
C6 C 0.7645(6) -0.1387(5) 0.5972(4)
C7 C 0.8808(4) 0.5051(4) 0.4691(3)
C8 C 0.9578(4) 0.4929(4) 0.5799(3)
N1 N 0.5883(4) 0.2862(3) 0.5338(3)
N2 N 0.7076(6) -0.2149(4) 0.6823(4)
H9 H 0.627(6) -0.191(6) 0.729(5)
H10 H 0.744(7) -0.305(3) 0.696(5)
O1 O 0.5814(3) 0.4837(3) 0.6642(2)
H13 H 0.680(4) 0.493(5) 0.677(4)
H14 H 0.512(5) 0.512(5) 0.713(4)
O2 O 0.7364(3) 0.5100(3) 0.4288(2)
O3 O 0.9030(3) 0.4853(3) 0.6776(2)
O4 O 0.8722(6) -0.1858(4) 0.5367(4)
Co1_2 Co 1.5000 0.5000 0.5000
C1A C 0.2959(5) 0.7741(4) 0.5284(4)
H1A H 0.2516 0.7219 0.5869
C2A C 0.2396(6) 0.9104(4) 0.5091(4)
H2A H 0.1591 0.9483 0.5544
C3A C 0.3022(5) 0.9907(4) 0.4229(3)
C4A C 0.4216(6) 0.9287(4) 0.3583(4)
H3A H 0.4675 0.9790 0.2993
C5A C 0.4720(6) 0.7915(4) 0.3824(4)
H4A H 0.5519 0.7513 0.3380
C6A C 0.2355(6) 1.1387(5) 0.4028(4)
C7A C 1.1192(4) 0.4949(4) 0.5309(3)
C8A C 1.0422(4) 0.5071(4) 0.4201(3)
N1A N 0.4117(4) 0.7138(3) 0.4662(3)
N2A N 0.2924(6) 1.2149(4) 0.3177(4)
H9A H 0.373(6) 1.191(6) 0.271(5)
H10A H 0.256(7) 1.305(3) 0.304(5)
O1A O 0.4186(3) 0.5163(3) 0.3358(2)
H13A H 0.320(4) 0.507(5) 0.323(4)
H14A H 0.488(5) 0.488(5) 0.287(4)
O2A O 1.2636(3) 0.4900(3) 0.5712(2)
O2A_2 O 0.2636(3) 0.4900(3) 0.5712(2)
O3A O 1.0970(3) 0.5147(3) 0.3224(2)
O4A O 0.1278(6) 1.1858(4) 0.4633(4)
Co2 Co 0.0000 0.5000 0.0000
C9 C 0.2130(5) 0.2242(4) -0.0206(4)
H5 H 0.2678 0.2758 -0.0724
C10 C 0.2665(6) 0.0875(5) -0.0025(4)
H6 H 0.3552 0.0487 -0.0422
C11 C 0.1879(5) 0.0079(4) 0.0748(3)
C12 C 0.0584(5) 0.0715(4) 0.1318(4)
H7 H 0.0042 0.0223 0.1861
C13 C 0.0100(5) 0.2074(4) 0.1077(4)
H8 H -0.0805 0.2482 0.1450
C14 C 0.2468(6) -0.1394(4) 0.0919(4)
C15 C 0.3817(4) 0.4992(4) 0.0308(3)
C16 C 0.4442(4) 0.5358(4) -0.0811(3)
N3 N 0.0852(4) 0.2850(3) 0.0337(3)
N4 N 0.1635(6) -0.2128(4) 0.1617(4)
H11 H 0.100(7) -0.188(5) 0.215(4)
H12 H 0.225(7) -0.295(3) 0.189(5)
O5 O 0.2410(3) 0.4965(3) 0.0716(2)
O6 O 0.3778(3) 0.5832(3) -0.1820(2)
O7 O 0.0849(3) 0.5145(3) -0.1597(2)
H15 H 0.168(5) 0.538(5) -0.193(4)
H16 H 0.014(5) 0.500(5) -0.206(4)
O8 O 0.3681(5) -0.1891(4) 0.0405(4)
Co2_2 Co 1.0000 0.5000 0.0000
C9A C -0.2130(5) 0.7758(4) 0.0206(4)
H5A H -0.2678 0.7242 0.0724
C10A C -0.2665(6) 0.9125(5) 0.0025(4)
H6A H -0.3552 0.9513 0.0422
C11A C -0.1879(5) 0.9921(4) -0.0748(3)
C12A C -0.0584(5) 0.9285(4) -0.1318(4)
H7A H -0.0042 0.9777 -0.1861
C13A C -0.0100(5) 0.7926(4) -0.1077(4)
H8A H 0.0805 0.7518 -0.1450
C14A C -0.2468(6) 1.1394(4) -0.0919(4)
C15A C 0.6183(4) 0.5008(4) -0.0308(3)
C16A C 0.5558(4) 0.4642(4) 0.0811(3)
N3A N -0.0852(4) 0.7150(3) -0.0337(3)
N4A N -0.1635(6) 1.2128(4) -0.1617(4)
H11A H -0.100(7) 1.188(5) -0.215(4)
H12A H -0.225(7) 1.295(3) -0.189(5)
O5A O 0.7590(3) 0.5035(3) -0.0716(2)
O5A_2 O -0.2410(3) 0.5035(3) -0.0716(2)
O6A O 0.6222(3) 0.4168(3) 0.1820(2)
O7A O -0.0849(3) 0.4855(3) 0.1597(2)
H15A H -0.168(5) 0.462(5) 0.193(4)
H16A H -0.014(5) 0.500(5) 0.206(4)
O8A O -0.3681(5) 1.1891(4) -0.0405(4)
O9 O 0.6108(6) 0.1406(5) 0.1938(4)
H17 H 0.600(10) 0.143(8) 0.125(4)
H18 H 0.611(10) 0.216(5) 0.200(7)
O10 O 0.1339(8) 0.1341(6) 0.7033(5)
H19 H 0.066(11) 0.150(10) 0.643(6)
H20 H 0.207(10) 0.058(6) 0.722(8)
loop_
_geom_bond_atom_site_label_1
_geom_bond_atom_site_label_2
_geom_bond_site_symmetry_1
_geom_bond_site_symmetry_2
Co1 N1 1_555 1_555
Co2 N3 1_555 1_555
C1 H1 1_555 1_555
C2 C1 1_555 1_555
H2 C2 1_555 1_555
C3 C2 1_555 1_555
C4 C3 1_555 1_555
H3 C4 1_555 1_555
C5 C4 1_555 1_555
H4 C5 1_555 1_555
C6 C3 1_555 1_555
C7 C8 1_555 1_555
C8 O3 1_555 1_555
C9 H5 1_555 1_555
C10 C9 1_555 1_555
H6 C10 1_555 1_555
C11 C10 1_555 1_555
C12 C11 1_555 1_555
H7 C12 1_555 1_555
C13 C12 1_555 1_555
H8 C13 1_555 1_555
C14 C11 1_555 1_555
C15 C16 1_555 1_555
C16 O6 1_555 1_555
N1 C1 1_555 1_555
N2 C6 1_555 1_555
H9 N2 1_555 1_555
H10 N2 1_555 1_555
N3 C9 1_555 1_555
N4 C14 1_555 1_555
H11 N4 1_555 1_555
H12 N4 1_555 1_555
O1 Co1 1_555 1_555
H13 O1 1_555 1_555
H14 O1 1_555 1_555
O2 Co1 1_555 1_555
O4 C6 1_555 1_555
O5 Co2 1_555 1_555
O7 Co2 1_555 1_555
H15 O7 1_555 1_555
H16 O7 1_555 1_555
O8 C14 1_555 1_555
O9 H17 1_555 1_555
H18 O9 1_555 1_555
O10 H19 1_555 1_555
H20 O10 1_555 1_555
Co1_2 O2A 1_555 1_555
Co2_2 O5A 1_555 1_555
C1A H1A 1_555 1_555
C2A C1A 1_555 1_555
H2A C2A 1_555 1_555
C3A C2A 1_555 1_555
C4A C3A 1_555 1_555
H3A C4A 1_555 1_555
C5A C4A 1_555 1_555
H4A C5A 1_555 1_555
C6A C3A 1_555 1_555
C7A C8 1_555 1_555
C8A C7 1_555 1_555
C9A H5A 1_555 1_555
C10A C9A 1_555 1_555
H6A C10A 1_555 1_555
C11A C10A 1_555 1_555
C12A C11A 1_555 1_555
H7A C12A 1_555 1_555
C13A C12A 1_555 1_555
H8A C13A 1_555 1_555
C14A C11A 1_555 1_555
C15A C16 1_555 1_555
C16A C15 1_555 1_555
N1A Co1 1_555 1_555
N2A C6A 1_555 1_555
H9A N2A 1_555 1_555
H10A N2A 1_555 1_555
N3A Co2 1_555 1_555
N4A C14A 1_555 1_555
H11A N4A 1_555 1_555
H12A N4A 1_555 1_555
O1A Co1 1_555 1_555
H13A O1A 1_555 1_555
H14A O1A 1_555 1_555
O2A C7A 1_555 1_555
O2A_2 Co1 1_555 1_555
O3A C8A 1_555 1_555
O4A C6A 1_555 1_555
O5A C15A 1_555 1_555
O5A_2 Co2 1_555 1_555
O6A C16A 1_555 1_555
O7A Co2 1_555 1_555
H15A O7A 1_555 1_555
H16A O7A 1_555 1_555
O8A C14A 1_555 1_555
C5 N1 1_555 1_555
C7 O2 1_555 1_555
C13 N3 1_555 1_555
C15 O5 1_555 1_555
C1A N1A 1_555 1_555
C5A N1A 1_555 1_555
C7A C8A 1_555 1_555
C9A N3A 1_555 1_555
C13A N3A 1_555 1_555
C15A C16A 1_555 1_555

#END
