
#######################################################################
#
#                 Cambridge Crystallographic Data Centre
#                                CCDC 
#
#######################################################################
#
# If this CIF has been generated from an entry in the Cambridge 
# Structural Database, then it will include bibliographic, chemical, 
# crystal, experimental, refinement or atomic coordinate data resulting 
# from the CCDC's data processing and validation procedures.
#
#######################################################################

data_MAPCOW
_symmetry_cell_setting           monoclinic
_symmetry_space_group_name_H-M   'P 21/c'
_symmetry_Int_Tables_number      14
_space_group_name_Hall           '-P 2ybc'
loop_
_symmetry_equiv_pos_site_id
_symmetry_equiv_pos_as_xyz
1 x,y,z
2 -x,1/2+y,1/2-z
3 -x,-y,-z
4 x,1/2-y,1/2+z
_cell_length_a                   3.8230(14)
_cell_length_b                   15.990(5)
_cell_length_c                   13.100(4)
_cell_angle_alpha                90
_cell_angle_beta                 99.768(9)
_cell_angle_gamma                90
_cell_volume                     789.191
loop_
_atom_site_label
_atom_site_type_symbol
_atom_site_fract_x
_atom_site_fract_y
_atom_site_fract_z
C1 C 0.6452(11) 0.8789(2) 0.4261(3)
C2 C 0.6063(13) 0.9587(3) 0.3682(4)
H1 H 0.7314 1.0021 0.4100
H2 H 0.3594 0.9731 0.3513
H3 H 0.7028 0.9528 0.3055
O1 O 0.8126(9) 0.8751(2) 0.5127(2)
C3 C 0.4428(10) 0.7335(2) 0.4369(3)
H4 H 0.5328 0.7371 0.5074
C4 C 0.4748(9) 0.8024(2) 0.3755(3)
C5 C 0.3525(11) 0.7958(3) 0.2716(3)
H5 H 0.3701 0.8408 0.2279
C6 C 0.2037(12) 0.7221(3) 0.2327(3)
H6 H 0.1235 0.7160 0.1620
C7 C 0.1746(11) 0.6580(3) 0.2987(3)
H7 H 0.0693 0.6085 0.2717
N1 N 0.2904(9) 0.66276(19) 0.4005(2)
Cl1 Cl 0.1669(3) 0.43956(6) 0.39548(7)
Cu1 Cu 0.24840(17) 0.56819(4) 0.49662(4)
Cl1B Cl -0.1669(3) 0.56044(6) 0.60452(7)
Cl1B_2 Cl 0.8331(3) 0.56044(6) 0.60452(7)
Cu1B Cu -0.24840(17) 0.43181(4) 0.50338(4)
Cu1B_2 Cu 0.75160(17) 0.43181(4) 0.50338(4)
loop_
_geom_bond_atom_site_label_1
_geom_bond_atom_site_label_2
_geom_bond_site_symmetry_1
_geom_bond_site_symmetry_2
C1 C2 1_555 1_555
C2 H1 1_555 1_555
H2 C2 1_555 1_555
H3 C2 1_555 1_555
O1 C1 1_555 1_555
C3 H4 1_555 1_555
C4 C1 1_555 1_555
C5 C4 1_555 1_555
H5 C5 1_555 1_555
C6 C5 1_555 1_555
H6 C6 1_555 1_555
C7 C6 1_555 1_555
H7 C7 1_555 1_555
N1 C3 1_555 1_555
Cl1 Cu1 1_555 1_555
Cu1 N1 1_555 1_555
Cl1B Cu1 1_555 1_555
Cl1B_2 Cu1 1_555 1_555
Cu1B Cl1 1_555 1_555
Cu1B_2 Cl1 1_555 1_555
C3 C4 1_555 1_555
C7 N1 1_555 1_555
Cl1B Cu1B 1_555 1_555
Cl1B_2 Cu1B_2 1_555 1_555

#END
