
#######################################################################
#
#                 Cambridge Crystallographic Data Centre
#                                CCDC 
#
#######################################################################
#
# If this CIF has been generated from an entry in the Cambridge 
# Structural Database, then it will include bibliographic, chemical, 
# crystal, experimental, refinement or atomic coordinate data resulting 
# from the CCDC's data processing and validation procedures.
#
#######################################################################

data_MAPDOY
_symmetry_cell_setting           monoclinic
_symmetry_space_group_name_H-M   'P 21/c'
_symmetry_Int_Tables_number      14
_space_group_name_Hall           '-P 2ybc'
loop_
_symmetry_equiv_pos_site_id
_symmetry_equiv_pos_as_xyz
1 x,y,z
2 -x,1/2+y,1/2-z
3 -x,-y,-z
4 x,1/2-y,1/2+z
_cell_length_a                   12.5595(13)
_cell_length_b                   10.1876(11)
_cell_length_c                   13.7936(14)
_cell_angle_alpha                90
_cell_angle_beta                 97.088(1)
_cell_angle_gamma                90
_cell_volume                     1751.42
loop_
_atom_site_label
_atom_site_type_symbol
_atom_site_fract_x
_atom_site_fract_y
_atom_site_fract_z
Sn1 Sn 1.05204(8) 0.11229(10) 0.77892(7)
O1 O 0.9395(10) -0.0771(12) 0.7546(10)
O2 O 0.8275(10) -0.2351(12) 0.6992(10)
C1 C 0.8471(17) -0.115(2) 0.7220(16)
C2 C 0.7532(18) -0.021(2) 0.7114(18)
H1 H 0.7781 0.0583 0.7476
C3 C 0.7223(18) 0.020(2) 0.6121(19)
C4 C 0.7118(19) -0.066(3) 0.5345(19)
H2 H 0.7230 -0.1556 0.5456
C5 C 0.685(2) -0.021(3) 0.440(2)
H3 H 0.6759 -0.0790 0.3874
C6 C 0.671(2) 0.112(3) 0.425(2)
H4 H 0.6528 0.1425 0.3614
C7 C 0.683(2) 0.201(3) 0.500(2)
H5 H 0.6692 0.2901 0.4892
C8 C 0.7165(19) 0.154(2) 0.593(2)
H6 H 0.7354 0.2126 0.6441
C9 C 0.6604(19) -0.075(2) 0.7613(18)
H7 H 0.6292 -0.1495 0.7233
C10 C 0.5721(19) 0.026(3) 0.7693(19)
H8 H 0.5279 0.0362 0.7070
H9 H 0.6028 0.1106 0.7893
C11 C 0.505(2) -0.027(3) 0.846(2)
H10 H 0.4786 0.0438 0.8835
H11 H 0.4447 -0.0779 0.8160
C12 C 0.582(2) -0.114(3) 0.912(2)
H12 H 0.5528 -0.2018 0.9154
H13 H 0.5936 -0.0781 0.9777
C13 C 0.688(2) -0.118(2) 0.8675(19)
H14 H 0.7398 -0.0589 0.9022
H15 H 0.7173 -0.2060 0.8708
C14 C 1.1678(14) -0.025(2) 0.8362(15)
H16 H 1.1406 -0.1118 0.8239
H17 H 1.1840 -0.0114 0.9054
H18 H 1.2319 -0.0131 0.8057
C15 C 1.0226(15) 0.1332(19) 0.6270(12)
H19 H 1.0857 0.1667 0.6028
H20 H 0.9641 0.1931 0.6108
H21 H 1.0045 0.0493 0.5978
C16 C 0.9493(16) 0.193(2) 0.8750(14)
H22 H 0.9368 0.1287 0.9233
H23 H 0.8822 0.2173 0.8384
H24 H 0.9825 0.2690 0.9067
Sn1A Sn 0.94796(8) -0.38771(10) 0.72108(7)
O2A O 1.1725(10) 0.2649(12) 0.8008(10)
loop_
_geom_bond_atom_site_label_1
_geom_bond_atom_site_label_2
_geom_bond_site_symmetry_1
_geom_bond_site_symmetry_2
Sn1 O1 1_555 1_555
O1 C1 1_555 1_555
O2 C1 1_555 1_555
C1 C2 1_555 1_555
C2 H1 1_555 1_555
C3 C2 1_555 1_555
C4 C3 1_555 1_555
H2 C4 1_555 1_555
C5 C4 1_555 1_555
H3 C5 1_555 1_555
C6 C5 1_555 1_555
H4 C6 1_555 1_555
C7 C6 1_555 1_555
H5 C7 1_555 1_555
C8 C3 1_555 1_555
H6 C8 1_555 1_555
C9 C2 1_555 1_555
H7 C9 1_555 1_555
C10 C9 1_555 1_555
H8 C10 1_555 1_555
H9 C10 1_555 1_555
C11 C10 1_555 1_555
H10 C11 1_555 1_555
H11 C11 1_555 1_555
C12 C11 1_555 1_555
H12 C12 1_555 1_555
H13 C12 1_555 1_555
C13 C9 1_555 1_555
H14 C13 1_555 1_555
H15 C13 1_555 1_555
C14 Sn1 1_555 1_555
H16 C14 1_555 1_555
H17 C14 1_555 1_555
H18 C14 1_555 1_555
C15 Sn1 1_555 1_555
H19 C15 1_555 1_555
H20 C15 1_555 1_555
H21 C15 1_555 1_555
C16 Sn1 1_555 1_555
H22 C16 1_555 1_555
H23 C16 1_555 1_555
H24 C16 1_555 1_555
Sn1A O2 1_555 1_555
O2A Sn1 1_555 1_555
C7 C8 1_555 1_555
C12 C13 1_555 1_555

#END
