
#######################################################################
#
#                 Cambridge Crystallographic Data Centre
#                                CCDC 
#
#######################################################################
#
# If this CIF has been generated from an entry in the Cambridge 
# Structural Database, then it will include bibliographic, chemical, 
# crystal, experimental, refinement or atomic coordinate data resulting 
# from the CCDC's data processing and validation procedures.
#
#######################################################################

data_MAPDAI
_symmetry_cell_setting           orthorhombic
_symmetry_space_group_name_H-M   'I b a m'
_symmetry_Int_Tables_number      72
_space_group_name_Hall           '-I 2 2c'
loop_
_symmetry_equiv_pos_site_id
_symmetry_equiv_pos_as_xyz
1 x,y,z
2 -x,-y,z
3 x,-y,1/2-z
4 -x,y,1/2-z
5 1/2+x,1/2+y,1/2+z
6 1/2-x,1/2-y,1/2+z
7 1/2+x,1/2-y,-z
8 1/2-x,1/2+y,-z
9 -x,-y,-z
10 x,y,-z
11 -x,y,1/2+z
12 x,-y,1/2+z
13 1/2-x,1/2-y,1/2-z
14 1/2+x,1/2+y,1/2-z
15 1/2-x,1/2+y,z
16 1/2+x,1/2-y,z
_cell_length_a                   7.8591(6)
_cell_length_b                   13.6520(10)
_cell_length_c                   7.9165(4)
_cell_angle_alpha                90
_cell_angle_beta                 90
_cell_angle_gamma                90
_cell_volume                     849.381
loop_
_atom_site_label
_atom_site_type_symbol
_atom_site_fract_x
_atom_site_fract_y
_atom_site_fract_z
Cd1 Cd 0.500000 0.000000 0.250000
N1 N 0.3150(15) 0.0813(9) 0.087117(35)
C1 C 0.1819(18) 0.1393(7) 0.14085(4)
C2 C 0.0937(20) 0.1702(11) 0.000000
N1I N 0.3150(15) 0.0813(9) -0.087117(35)
C1I C 0.1819(18) 0.1393(7) -0.14085(4)
N1A N 0.6850(15) -0.0813(9) 0.087117(35)
C1A C 0.8181(18) -0.1393(7) 0.14085(4)
C2A C 0.9063(20) -0.1702(11) 0.000000
N1H N 0.6850(15) -0.0813(9) -0.087117(35)
C1H C 0.8181(18) -0.1393(7) -0.14085(4)
N1B N 0.3150(15) -0.0813(9) 0.412883(35)
N1C N 0.6850(15) 0.0813(9) 0.412883(35)
Cd1I Cd 0.500000 0.000000 -0.250000
loop_
_geom_bond_atom_site_label_1
_geom_bond_atom_site_label_2
_geom_bond_site_symmetry_1
_geom_bond_site_symmetry_2
Cd1 N1 1_555 1_555
N1 C1 1_555 1_555
C1 C2 1_555 1_555
C2 C1I 1_555 1_555
N1I N1 1_555 1_555
C1I N1I 1_555 1_555
N1A Cd1 1_555 1_555
C1A N1A 1_555 1_555
C2A C1A 1_555 1_555
N1H N1A 1_555 1_555
C1H C2A 1_555 1_555
N1B Cd1 1_555 1_555
N1C Cd1 1_555 1_555
Cd1I N1I 1_555 1_555
N1H Cd1I 1_555 1_555
N1H C1H 1_555 1_555

#END
