
#######################################################################
#
#                 Cambridge Crystallographic Data Centre
#                                CCDC 
#
#######################################################################
#
# If this CIF has been generated from an entry in the Cambridge 
# Structural Database, then it will include bibliographic, chemical, 
# crystal, experimental, refinement or atomic coordinate data resulting 
# from the CCDC's data processing and validation procedures.
#
#######################################################################

data_MAPDIQ
_symmetry_cell_setting           triclinic
_symmetry_space_group_name_H-M   'P -1'
_symmetry_Int_Tables_number      2
_space_group_name_Hall           '-P 1'
loop_
_symmetry_equiv_pos_site_id
_symmetry_equiv_pos_as_xyz
1 x,y,z
2 -x,-y,-z
_cell_length_a                   7.4097(3)
_cell_length_b                   9.4473(3)
_cell_length_c                   5.8345(3)
_cell_angle_alpha                96.310(2)
_cell_angle_beta                 96.752(3)
_cell_angle_gamma                73.694(2)
_cell_volume                     388.008
loop_
_atom_site_label
_atom_site_type_symbol
_atom_site_fract_x
_atom_site_fract_y
_atom_site_fract_z
Hg1 Hg 0.27207(29) -0.03625(16) -0.3425(4)
N1 N 0.0362(8) 0.1158(16) -0.1873(19)
N2 N 0.5411(10) -0.1945(9) -0.3859(20)
C1 C 0.5919(20) -0.3381(12) -0.3231(38)
C2 C 0.7410(24) -0.4178(12) -0.4462(37)
C3 C 0.8017(21) -0.3185(18) -0.5535(35)
N3 N 0.3280(13) 0.1823(15) -0.4729(31)
C4 C 0.0421(17) 0.1903(22) 0.0292(22)
C5 C -0.1386(20) 0.2747(21) 0.0654(27)
C6 C -0.2557(14) 0.2522(20) -0.1289(33)
N4 N 0.1502(7) -0.1442(16) -0.7240(26)
N4A N -0.1502(7) 0.1442(16) -0.2760(26)
Hg1A Hg -0.27207(29) 0.03625(16) -0.6575(4)
N1A N -0.0362(8) -0.1158(16) -0.8127(19)
C4A C -0.0421(17) -0.1903(22) -1.0292(22)
C5A C 0.1386(20) -0.2747(21) -1.0654(27)
C6A C 0.2557(14) -0.2522(20) -0.8711(33)
N3A N 0.6720(13) -0.1823(15) -0.5271(31)
Hg1A_2 Hg 0.72793(29) 0.03625(16) -0.6575(4)
N1A_2 N 0.9638(8) -0.1158(16) -0.8127(19)
N2A N 0.4589(10) 0.1945(9) -0.6141(20)
C1A C 0.4081(20) 0.3381(12) -0.6769(38)
C2A C 0.2590(24) 0.4178(12) -0.5538(37)
C3A C 0.1983(21) 0.3185(18) -0.4465(35)
N4A_2 N 0.8498(7) 0.1442(16) -0.2760(26)
loop_
_geom_bond_atom_site_label_1
_geom_bond_atom_site_label_2
_geom_bond_site_symmetry_1
_geom_bond_site_symmetry_2
Hg1 N1 1_555 1_555
N1 C4 1_555 1_555
N2 Hg1 1_555 1_555
C1 N2 1_555 1_555
C2 C1 1_555 1_555
C3 C2 1_555 1_555
N3 Hg1 1_555 1_555
C4 C5 1_555 1_555
C5 C6 1_555 1_555
C6 N4A 1_555 1_555
N4 Hg1 1_555 1_555
N4A N1 1_555 1_555
Hg1A N4A 1_555 1_555
N1A N4 1_555 1_555
C4A N1A 1_555 1_555
C5A C4A 1_555 1_555
C6A N4 1_555 1_555
N3A N2 1_555 1_555
Hg1A_2 N3A 1_555 1_555
N1A_2 Hg1A_2 1_555 1_555
N2A N3 1_555 1_555
C1A N2A 1_555 1_555
C2A C1A 1_555 1_555
C3A N3 1_555 1_555
N4A_2 Hg1A_2 1_555 1_555
C3 N3A 1_555 1_555
Hg1A N1A 1_555 1_555
C5A C6A 1_555 1_555
Hg1A_2 N2A 1_555 1_555
C2A C3A 1_555 1_555

#END
