
#######################################################################
#
#                 Cambridge Crystallographic Data Centre
#                                CCDC 
#
#######################################################################
#
# If this CIF has been generated from an entry in the Cambridge 
# Structural Database, then it will include bibliographic, chemical, 
# crystal, experimental, refinement or atomic coordinate data resulting 
# from the CCDC's data processing and validation procedures.
#
#######################################################################

data_MAPDOX
_symmetry_cell_setting           monoclinic
_symmetry_space_group_name_H-M   'P 21/c'
_symmetry_Int_Tables_number      14
_space_group_name_Hall           '-P 2ybc'
loop_
_symmetry_equiv_pos_site_id
_symmetry_equiv_pos_as_xyz
1 x,y,z
2 -x,1/2+y,1/2-z
3 -x,-y,-z
4 x,1/2-y,1/2+z
_cell_length_a                   14.4166(9)
_cell_length_b                   7.7234(5)
_cell_length_c                   18.6868(11)
_cell_angle_alpha                90
_cell_angle_beta                 107.4210(10)
_cell_angle_gamma                90
_cell_volume                     1985.25
loop_
_atom_site_label
_atom_site_type_symbol
_atom_site_fract_x
_atom_site_fract_y
_atom_site_fract_z
Mn1 Mn 0.219354(18) 0.07951(3) 0.296642(13)
S1 S 0.14733(3) 0.01672(5) -0.16366(2)
N1 N 0.27358(11) 0.06462(19) 0.42350(8)
N2 N 0.36575(11) 0.2079(2) 0.33132(9)
O1 O 0.24227(11) -0.1023(2) 0.13216(7)
O2 O 0.18087(12) 0.11858(19) 0.17923(7)
O3 O 0.04037(12) 0.29724(19) 0.09313(8)
O4 O 0.14610(9) 0.17119(15) -0.20892(6)
O5 O 0.24197(9) -0.06417(17) -0.13605(7)
O6 O 0.07220(9) -0.10324(15) -0.20573(7)
O7 O 0.29335(10) -0.16546(17) 0.28143(7)
O8 O 0.08955(10) -0.04690(17) 0.29951(8)
C1 C 0.19190(13) 0.0298(2) 0.12470(10)
C2 C 0.13852(13) 0.0953(2) 0.04805(9)
C3 C 0.06546(13) 0.2212(2) 0.03660(10)
C4 C 0.01434(14) 0.2730(2) -0.03592(10)
H1 H -0.0364 0.3518 -0.0434
C5 C 0.03865(12) 0.2080(2) -0.09640(9)
H2 H 0.0050 0.2442 -0.1447
C6 C 0.11364(12) 0.0882(2) -0.08540(9)
C7 C 0.16204(12) 0.0305(2) -0.01413(9)
H3 H 0.2107 -0.0523 -0.0074
C8 C 0.22885(16) -0.0107(3) 0.46788(11)
H4 H 0.1683 -0.0611 0.4463
C9 C 0.2690(2) -0.0173(3) 0.54560(12)
H5 H 0.2361 -0.0720 0.5751
C10 C 0.3574(2) 0.0576(3) 0.57785(12)
H6 H 0.3849 0.0544 0.6296
C11 C 0.40663(16) 0.1391(3) 0.53328(11)
C12 C 0.50114(18) 0.2181(3) 0.56185(14)
H7 H 0.5317 0.2188 0.6133
C13 C 0.54587(17) 0.2902(3) 0.51636(16)
H8 H 0.6066 0.3408 0.5368
C14 C 0.50248(14) 0.2915(3) 0.43665(14)
C15 C 0.54731(17) 0.3601(3) 0.38583(18)
H9 H 0.6081 0.4119 0.4035
C16 C 0.50256(19) 0.3512(4) 0.31150(18)
H10 H 0.5324 0.3957 0.2777
C17 C 0.41093(17) 0.2743(3) 0.28572(14)
H11 H 0.3804 0.2696 0.2343
C18 C 0.36159(13) 0.1394(2) 0.45521(10)
C19 C 0.41045(13) 0.2154(2) 0.40632(11)
H12 H 0.0361(10) -0.003(3) 0.2752(11)
H13 H 0.2766(16) -0.2578(19) 0.2977(12)
H14 H 0.2758(15) -0.174(3) 0.2338(6)
H15 H 0.0833(16) -0.1544(13) 0.3015(12)
H16 H 0.0776(13) 0.251(3) 0.1318(8)
Mn1C Mn 0.219354(18) 0.42049(3) -0.203358(13)
O4C O 0.14610(9) 0.32881(15) 0.29108(6)
loop_
_geom_bond_atom_site_label_1
_geom_bond_atom_site_label_2
_geom_bond_site_symmetry_1
_geom_bond_site_symmetry_2
Mn1 N1 1_555 1_555
S1 O4 1_555 1_555
N1 C8 1_555 1_555
N2 Mn1 1_555 1_555
O1 C1 1_555 1_555
O2 Mn1 1_555 1_555
O3 C3 1_555 1_555
O4 Mn1C 1_555 1_555
O5 S1 1_555 1_555
O6 S1 1_555 1_555
O7 Mn1 1_555 1_555
O8 Mn1 1_555 1_555
C1 O2 1_555 1_555
C2 C1 1_555 1_555
C3 C2 1_555 1_555
C4 C3 1_555 1_555
H1 C4 1_555 1_555
C5 C4 1_555 1_555
H2 C5 1_555 1_555
C6 S1 1_555 1_555
C7 C2 1_555 1_555
H3 C7 1_555 1_555
C8 H4 1_555 1_555
C9 C8 1_555 1_555
H5 C9 1_555 1_555
C10 C9 1_555 1_555
H6 C10 1_555 1_555
C11 C10 1_555 1_555
C12 C11 1_555 1_555
H7 C12 1_555 1_555
C13 C12 1_555 1_555
H8 C13 1_555 1_555
C14 C13 1_555 1_555
C15 C14 1_555 1_555
H9 C15 1_555 1_555
C16 C15 1_555 1_555
H10 C16 1_555 1_555
C17 N2 1_555 1_555
H11 C17 1_555 1_555
C18 N1 1_555 1_555
C19 N2 1_555 1_555
H12 O8 1_555 1_555
H13 O7 1_555 1_555
H14 O7 1_555 1_555
H15 O8 1_555 1_555
H16 O3 1_555 1_555
O4C Mn1 1_555 1_555
C5 C6 1_555 1_555
C6 C7 1_555 1_555
C11 C18 1_555 1_555
C14 C19 1_555 1_555
C16 C17 1_555 1_555
C18 C19 1_555 1_555

#END
