
#######################################################################
#
#                 Cambridge Crystallographic Data Centre
#                                CCDC 
#
#######################################################################
#
# If this CIF has been generated from an entry in the Cambridge 
# Structural Database, then it will include bibliographic, chemical, 
# crystal, experimental, refinement or atomic coordinate data resulting 
# from the CCDC's data processing and validation procedures.
#
#######################################################################

data_MAPFOY
_symmetry_cell_setting           orthorhombic
_symmetry_space_group_name_H-M   'P b c a'
_symmetry_Int_Tables_number      61
_space_group_name_Hall           '-P 2ac 2ab'
loop_
_symmetry_equiv_pos_site_id
_symmetry_equiv_pos_as_xyz
1 x,y,z
2 1/2-x,-y,1/2+z
3 1/2+x,1/2-y,-z
4 -x,1/2+y,1/2-z
5 -x,-y,-z
6 1/2+x,y,1/2-z
7 1/2-x,1/2+y,z
8 x,1/2-y,1/2+z
_cell_length_a                   11.095(2)
_cell_length_b                   17.970(4)
_cell_length_c                   19.484(4)
_cell_angle_alpha                90
_cell_angle_beta                 90
_cell_angle_gamma                90
_cell_volume                     3884.66
loop_
_atom_site_label
_atom_site_type_symbol
_atom_site_fract_x
_atom_site_fract_y
_atom_site_fract_z
Ti1 Ti 0.9003(1) -0.4585(1) 0.4462(1)
O1 O 0.6162(3) -0.8963(2) 0.5464(1)
O2 O 0.9229(3) -0.5413(1) 0.5199(2)
O3 O 0.4399(3) -0.5316(2) 0.1200(2)
O4 O 0.7366(3) -0.4727(2) 0.4467(1)
O5 O 0.9158(2) -0.3763(2) 0.3989(2)
C1 C 0.6253(4) -0.8215(3) 0.5624(2)
C2 C 0.7153(4) -0.7801(2) 0.5334(2)
C3 C 0.7277(4) -0.7039(2) 0.5518(2)
C4 C 0.8201(4) -0.6573(2) 0.5242(2)
C5 C 0.8319(4) -0.5852(3) 0.5454(2)
C6 C 0.7510(4) -0.5550(2) 0.5939(2)
C7 C 0.6612(4) -0.5974(2) 0.6207(2)
C8 C 0.6473(4) -0.6736(2) 0.6013(2)
C9 C 0.5551(4) -0.7177(2) 0.6283(2)
C10 C 0.5439(4) -0.7903(2) 0.6096(2)
C11 C 0.4480(5) -0.5412(2) 0.1896(2)
C12 C 0.3626(4) -0.5890(3) 0.2212(2)
C13 C 0.3725(4) -0.6040(2) 0.2904(2)
C14 C 0.4650(4) -0.5723(2) 0.3303(2)
C15 C 0.4787(4) -0.5873(3) 0.4012(2)
C16 C 0.5660(5) -0.5549(3) 0.4391(3)
C17 C 0.6488(4) -0.5043(2) 0.4079(2)
C18 C 0.6394(4) -0.4903(3) 0.3388(2)
C19 C 0.5492(4) -0.5231(2) 0.2982(2)
C20 C 0.5376(4) -0.5093(3) 0.2268(2)
C21 C 0.9279(4) -0.3040(3) 0.3676(3)
C22 C 1.0273(5) -0.3057(3) 0.3155(3)
C23 C 0.8077(6) -0.2819(3) 0.3361(3)
H1 H 0.7679(4) -0.8016(2) 0.5019(2)
H2 H 0.8728(4) -0.6762(2) 0.4915(2)
H3 H 0.7592(4) -0.5057(2) 0.6075(2)
H4 H 0.6081(4) -0.5765(2) 0.6521(2)
H5 H 0.5009(4) -0.6973(2) 0.6595(2)
H6 H 0.4825(4) -0.8193(2) 0.6281(2)
H7 H 0.3007(4) -0.6100(3) 0.1955(2)
H8 H 0.3171(4) -0.6357(2) 0.3110(2)
H9 H 0.4261(4) -0.6204(3) 0.4223(2)
H10 H 0.5724(5) -0.5656(3) 0.4857(3)
H11 H 0.6944(4) -0.4583(3) 0.3182(2)
H12 H 0.5923(4) -0.4779(3) 0.2052(2)
H13 H 0.9488(4) -0.2678(3) 0.4033(3)
H14 H 1.1014(5) -0.3198(3) 0.3375(3)
H15 H 1.0362(5) -0.2573(3) 0.2953(3)
H16 H 1.0081(5) -0.3412(3) 0.2803(3)
H17 H 0.7468(6) -0.2813(3) 0.3711(3)
H18 H 0.7859(6) -0.3173(3) 0.3013(3)
H19 H 0.8144(6) -0.2333(3) 0.3161(3)
Ti1E Ti 0.4003(1) -0.4585(1) 0.0538(1)
O1F O 0.8838(3) -0.3963(2) 0.5464(1)
Ti1F Ti 0.5997(1) -0.9585(1) 0.4462(1)
Ti1D Ti 1.0997(1) -0.5415(1) 0.5538(1)
O2D O 1.0771(3) -0.4587(1) 0.4801(2)
O3E O 0.9399(3) -0.5316(2) 0.3800(2)
O1B O 1.1162(3) -0.6037(2) 0.4536(1)
O3A O 1.0601(3) -0.4684(2) 0.6200(2)
O4D O 1.2634(3) -0.5273(2) 0.5533(1)
O5D O 1.0842(2) -0.6237(2) 0.6011(2)
loop_
_geom_bond_atom_site_label_1
_geom_bond_atom_site_label_2
_geom_bond_site_symmetry_1
_geom_bond_site_symmetry_2
Ti1 O2 1_555 1_555
O1 C1 1_555 1_555
O2 C5 1_555 1_555
O3 C11 1_555 1_555
O4 Ti1 1_555 1_555
O5 Ti1 1_555 1_555
C1 C2 1_555 1_555
C2 C3 1_555 1_555
C3 C4 1_555 1_555
C4 C5 1_555 1_555
C5 C6 1_555 1_555
C6 C7 1_555 1_555
C7 C8 1_555 1_555
C8 C3 1_555 1_555
C9 C8 1_555 1_555
C10 C1 1_555 1_555
C11 C12 1_555 1_555
C12 C13 1_555 1_555
C13 C14 1_555 1_555
C14 C15 1_555 1_555
C15 C16 1_555 1_555
C16 C17 1_555 1_555
C17 O4 1_555 1_555
C18 C17 1_555 1_555
C19 C14 1_555 1_555
C20 C11 1_555 1_555
C21 O5 1_555 1_555
C22 C21 1_555 1_555
C23 C21 1_555 1_555
H1 C2 1_555 1_555
H2 C4 1_555 1_555
H3 C6 1_555 1_555
H4 C7 1_555 1_555
H5 C9 1_555 1_555
H6 C10 1_555 1_555
H7 C12 1_555 1_555
H8 C13 1_555 1_555
H9 C15 1_555 1_555
H10 C16 1_555 1_555
H11 C18 1_555 1_555
H12 C20 1_555 1_555
H13 C21 1_555 1_555
H14 C22 1_555 1_555
H15 C22 1_555 1_555
H16 C22 1_555 1_555
H17 C23 1_555 1_555
H18 C23 1_555 1_555
H19 C23 1_555 1_555
Ti1E O3 1_555 1_555
O1F Ti1 1_555 1_555
Ti1F O1 1_555 1_555
Ti1D O2 1_555 1_555
O2D Ti1 1_555 1_555
O3E Ti1 1_555 1_555
O1B Ti1D 1_555 1_555
O3A Ti1D 1_555 1_555
O4D Ti1D 1_555 1_555
O5D Ti1D 1_555 1_555
C9 C10 1_555 1_555
C18 C19 1_555 1_555
C19 C20 1_555 1_555
Ti1D O2D 1_555 1_555

#END
