
#######################################################################
#
#                 Cambridge Crystallographic Data Centre
#                                CCDC 
#
#######################################################################
#
# If this CIF has been generated from an entry in the Cambridge 
# Structural Database, then it will include bibliographic, chemical, 
# crystal, experimental, refinement or atomic coordinate data resulting 
# from the CCDC's data processing and validation procedures.
#
#######################################################################

data_MAPFIU
_symmetry_cell_setting           monoclinic
_symmetry_space_group_name_H-M   'P 21/c'
_symmetry_Int_Tables_number      14
_space_group_name_Hall           '-P 2ybc'
loop_
_symmetry_equiv_pos_site_id
_symmetry_equiv_pos_as_xyz
1 x,y,z
2 -x,1/2+y,1/2-z
3 -x,-y,-z
4 x,1/2-y,1/2+z
_cell_length_a                   13.0864(12)
_cell_length_b                   10.0095(10)
_cell_length_c                   12.6098(13)
_cell_angle_alpha                90
_cell_angle_beta                 111.085(1)
_cell_angle_gamma                90
_cell_volume                     1541.15
loop_
_atom_site_label
_atom_site_type_symbol
_atom_site_fract_x
_atom_site_fract_y
_atom_site_fract_z
O1 O 0.3211(12) 1.2023(13) 0.2585(13)
C1 C 0.4289(16) 1.3514(18) 0.1008(16)
H1 H 0.4981 1.3615 0.0913
H2 H 0.3818 1.4245 0.0646
H3 H 0.3955 1.2689 0.0669
Sn1 Sn 0.45400(12) 1.34996(12) 0.27760(12)
C2 C 0.236(2) 0.911(2) 0.3033(18)
H4 H 0.2787 0.9596 0.3701
H5 H 0.2705 0.8267 0.3018
H6 H 0.1639 0.8957 0.3045
Cl1 Cl -0.1380(6) 1.4128(8) -0.0808(6)
O2 O 0.4152(12) 1.0367(12) 0.2089(12)
C3 C 0.0972(19) 1.140(2) 0.0580(18)
C4 C 0.3764(17) 1.4946(17) 0.3525(17)
H7 H 0.4237 1.5128 0.4293
H8 H 0.3082 1.4592 0.3524
H9 H 0.3631 1.5757 0.3091
C5 C 0.330(2) 1.0814(18) 0.2226(16)
C6 C 0.1511(19) 1.137(2) -0.018(2)
H10 H 0.2120 1.0827 -0.0034
C7 C 0.116(2) 1.214(3) -0.113(2)
H11 H 0.1532 1.2082 -0.1638
C8 C -0.028(2) 1.301(2) -0.059(2)
C9 C 0.5872(18) 1.247(2) 0.3931(17)
H12 H 0.5628 1.1622 0.4110
H13 H 0.6180 1.2985 0.4613
H14 H 0.6418 1.2325 0.3598
C10 C 0.026(2) 1.301(2) -0.138(2)
H15 H 0.0040 1.3558 -0.2017
C11 C 0.0080(17) 1.228(2) 0.0395(16)
H16 H -0.0255 1.2365 0.0929
O3 O 0.1306(12) 1.0704(16) 0.1599(14)
C12 C 0.2272(17) 0.993(2) 0.1955(18)
H17 H 0.224(17) 0.93(2) 0.134(16)
Sn1A Sn 0.54600(12) 0.84996(12) 0.22240(12)
O2A O 0.5848(12) 1.5367(12) 0.2911(12)
loop_
_geom_bond_atom_site_label_1
_geom_bond_atom_site_label_2
_geom_bond_site_symmetry_1
_geom_bond_site_symmetry_2
O1 Sn1 1_555 1_555
C1 H1 1_555 1_555
H2 C1 1_555 1_555
H3 C1 1_555 1_555
Sn1 C1 1_555 1_555
C2 H4 1_555 1_555
H5 C2 1_555 1_555
H6 C2 1_555 1_555
Cl1 C8 1_555 1_555
O2 C5 1_555 1_555
C3 C6 1_555 1_555
C4 Sn1 1_555 1_555
H7 C4 1_555 1_555
H8 C4 1_555 1_555
H9 C4 1_555 1_555
C5 O1 1_555 1_555
C6 H10 1_555 1_555
C7 C6 1_555 1_555
H11 C7 1_555 1_555
C8 C10 1_555 1_555
C9 Sn1 1_555 1_555
H12 C9 1_555 1_555
H13 C9 1_555 1_555
H14 C9 1_555 1_555
C10 C7 1_555 1_555
H15 C10 1_555 1_555
C11 C3 1_555 1_555
H16 C11 1_555 1_555
O3 C3 1_555 1_555
C12 C2 1_555 1_555
H17 C12 1_555 1_555
Sn1A O2 1_555 1_555
O2A Sn1 1_555 1_555
C5 C12 1_555 1_555
C8 C11 1_555 1_555
O3 C12 1_555 1_555

#END
