
#######################################################################
#
#                 Cambridge Crystallographic Data Centre
#                                CCDC 
#
#######################################################################
#
# If this CIF has been generated from an entry in the Cambridge 
# Structural Database, then it will include bibliographic, chemical, 
# crystal, experimental, refinement or atomic coordinate data resulting 
# from the CCDC's data processing and validation procedures.
#
#######################################################################

data_MAPLIA
_symmetry_cell_setting           monoclinic
_symmetry_space_group_name_H-M   'P 21/n'
_symmetry_Int_Tables_number      14
_space_group_name_Hall           '-P 2yn'
loop_
_symmetry_equiv_pos_site_id
_symmetry_equiv_pos_as_xyz
1 x,y,z
2 1/2-x,1/2+y,1/2-z
3 -x,-y,-z
4 1/2+x,1/2-y,1/2+z
_cell_length_a                   15.3366(10)
_cell_length_b                   13.7045(9)
_cell_length_c                   25.8102(18)
_cell_angle_alpha                90
_cell_angle_beta                 105.1680(10)
_cell_angle_gamma                90
_cell_volume                     5235.81
loop_
_atom_site_label
_atom_site_type_symbol
_atom_site_fract_x
_atom_site_fract_y
_atom_site_fract_z
Zn1 Zn 0.30164(5) 0.09841(5) 0.21470(3)
Zn2 Zn -0.24844(5) 0.61740(5) 0.11994(3)
N1 N 0.3552(3) 0.1637(4) 0.15240(19)
O1 O 0.4136(3) -0.1204(3) -0.25127(15)
H1 H 0.3871 -0.0804 -0.2735
N2 N -0.2209(3) 0.6523(3) 0.0467(2)
C1 C 0.3582(4) 0.0996(4) 0.1132(2)
O2 O -0.0230(3) 1.1899(3) -0.16318(18)
N3 N 0.3593(3) -0.0894(4) -0.01171(19)
H2 H 0.3465 -0.1500 -0.0181
O3 O 0.1374(3) 0.1095(3) 0.14457(17)
O4 O -0.1535(3) 0.5281(3) 0.15654(16)
O5 O -0.0540(4) 1.3873(3) -0.02408(18)
N4 N -0.1272(3) 1.0404(3) 0.03631(19)
C2 C 0.2913(4) -0.1133(5) 0.1756(2)
H3 H 0.2767 -0.1280 0.2075
N5 N 0.3996(3) 0.0647(4) -0.02282(18)
C3 C 0.4211(4) -0.0001(5) -0.1820(2)
O6 O 0.2516(3) 0.0223(3) 0.26772(17)
C4 C -0.1521(4) 0.8873(4) 0.0022(2)
N6 N -0.1256(3) 0.9467(3) -0.03392(19)
H4 H -0.1187 0.9298 -0.0647
C5 C 0.3353(4) -0.0004(4) 0.1211(2)
O7 O 0.2121(3) 0.2068(3) 0.20990(17)
O8 O -0.0246(4) 1.3629(3) -0.11983(17)
H5 H -0.0699 1.3971 -0.1293
C6 C 0.3845(4) -0.0257(5) -0.0446(2)
C7 C -0.1521(4) 0.9453(4) 0.0446(2)
C8 C -0.1972(4) 0.7477(4) 0.0448(2)
O9 O -0.2292(3) 0.4294(3) 0.09414(18)
N7 N -0.2145(3) 0.7632(4) 0.1339(2)
C9 C 0.0609(4) 0.2491(4) 0.1649(2)
O10 O 0.3758(4) -0.2585(4) -0.19113(17)
C10 C -0.1124(4) 1.0371(4) -0.0117(2)
C11 C -0.2188(4) 0.5936(5) 0.0056(3)
H6 H -0.2360 0.5288 0.0068
C12 C 0.4054(4) -0.0947(5) -0.2014(2)
N8 N 0.3130(3) -0.0215(4) 0.16768(19)
O11 O 0.3146(3) 0.0434(5) 0.3559(2)
C13 C 0.1551(4) 0.0547(4) 0.3243(3)
C14 C -0.0817(4) 1.2125(4) -0.0164(2)
H7 H -0.0929 1.2196 0.0171
C15 C 0.3838(4) 0.1291(4) 0.0665(2)
C16 C -0.0860(4) 1.1211(4) -0.0399(2)
O12 O 0.4402(4) 0.0645(3) -0.21738(18)
C17 C -0.1740(4) 0.9077(4) 0.0915(2)
C18 C -0.1960(4) 0.8073(4) 0.0906(2)
C19 C 0.3775(5) 0.2559(5) 0.1475(3)
H8 H 0.3738 0.2997 0.1743
C20 C 0.3816(4) 0.0556(4) 0.0268(2)
C21 C -0.0669(4) 1.1107(4) -0.0893(2)
H9 H -0.0692 1.0494 -0.1051
C22 C -0.0852(4) 0.3757(4) 0.1475(2)
C23 C 0.4077(4) 0.2263(5) 0.0632(3)
H10 H 0.4248 0.2482 0.0331
C24 C 0.3579(4) -0.0397(4) 0.0337(2)
C25 C -0.0243(4) 0.2158(5) 0.1403(2)
H11 H -0.0327 0.1511 0.1292
C26 C -0.1621(4) 0.4466(5) 0.1320(3)
C27 C 0.3781(4) -0.1437(5) -0.1180(2)
H12 H 0.3634 -0.1921 -0.0966
C28 C -0.0006(4) 0.4080(4) 0.1725(2)
H13 H 0.0077 0.4728 0.1835
C29 C 0.4145(4) 0.0224(5) -0.1310(2)
H14 H 0.4248 0.0860 -0.1182
C30 C -0.1756(4) 0.9605(5) 0.1381(2)
H15 H -0.1635 1.0271 0.1397
C31 C -0.0980(4) 0.2782(4) 0.1317(2)
H16 H -0.1558 0.2551 0.1156
C32 C -0.1721(4) 0.7854(4) -0.0004(2)
C33 C 0.2491(5) 0.0398(5) 0.3157(3)
C34 C 0.1423(5) 0.1838(5) 0.1731(3)
C35 C 0.0580(5) 0.0734(5) 0.3835(3)
H17 H 0.0509 0.0764 0.4182
C36 C -0.0436(5) 1.2826(4) -0.0925(2)
C37 C -0.0445(4) 1.1915(5) -0.1147(2)
C38 C -0.0606(5) 1.2930(4) -0.0429(2)
C39 C 0.1442(5) 0.0590(5) 0.3758(3)
H18 H 0.1939 0.0523 0.4053
C40 C 0.3345(4) -0.0724(4) 0.0820(2)
C41 C -0.1948(4) 0.9144(5) 0.1812(3)
H19 H -0.1958 0.9491 0.2121
C42 C 0.2890(4) -0.1882(5) 0.1392(3)
H20 H 0.2730 -0.2511 0.1465
C43 C -0.1687(4) 0.7215(5) -0.0416(3)
H21 H -0.1506 0.7440 -0.0712
C44 C 0.0733(4) 0.3461(4) 0.1819(2)
H22 H 0.1306 0.3689 0.1993
C45 C 0.4062(5) 0.2903(5) 0.1039(3)
H23 H 0.4239 0.3549 0.1025
C46 C 0.3927(4) -0.0497(4) -0.0986(2)
C47 C -0.0169(5) 0.0832(4) 0.3401(3)
C48 C -0.1917(4) 0.6257(5) -0.0389(3)
H24 H -0.1894 0.5826 -0.0664
C49 C -0.0045(5) 0.0822(5) 0.2897(3)
H25 H -0.0539 0.0919 0.2603
C50 C 0.0798(5) 0.0671(5) 0.2814(3)
H26 H 0.0862 0.0653 0.2465
C51 C 0.3107(4) -0.1677(5) 0.0923(2)
H27 H 0.3097 -0.2169 0.0673
C52 C 0.3850(4) -0.1672(5) -0.1690(2)
C53 C -0.2125(4) 0.8151(5) 0.1775(3)
H28 H -0.2234 0.7834 0.2071
O13 O 0.4154(3) 0.1427(3) 0.26780(16)
H29 H 0.4247 0.2118 0.2725
H30 H 0.4695 0.1055 0.2706
C54 C -0.0601(5) 1.4019(5) 0.0286(3)
H33 H -0.0546 1.4703 0.0370
H34 H -0.0124 1.3670 0.0531
H35 H -0.1174 1.3786 0.0320
C55 C -0.0491(5) 1.1081(5) -0.1966(3)
H36 H -0.0287 1.1157 -0.2285
H37 H -0.1138 1.1023 -0.2062
H38 H -0.0228 1.0503 -0.1778
C56 C 0.4540(5) 0.1639(5) -0.2028(3)
H39 H 0.4668 0.1999 -0.2318
H40 H 0.5041 0.1695 -0.1715
H41 H 0.4006 0.1897 -0.1950
C57 C 0.3448(6) -0.3330(6) -0.1649(3)
H44 H 0.3416 -0.3922 -0.1853
H45 H 0.2858 -0.3169 -0.1613
H46 H 0.3854 -0.3420 -0.1300
O17 O -0.1166(3) 0.1006(3) 0.3964(2)
O18 O -0.1751(4) 0.1060(4) 0.3097(3)
C58 C -0.1093(5) 0.0967(5) 0.3479(4)
Zn2A Zn -0.25156(5) 0.11740(5) 0.38006(3)
O17A O -0.3834(3) 0.6006(3) 0.1036(2)
O18A O -0.3249(4) 0.6060(4) 0.1903(3)
O14 O -0.3266(4) 0.2977(4) 0.0182(2)
H31 H -0.3368 0.2901 0.0476
H32 H -0.3804 0.2881 -0.0103
O15 O 0.4826(4) 0.2348(4) -0.0516(3)
H42 H 0.4967 0.2835 -0.0329
H43 H 0.5336 0.2080 -0.0617
O16 O 0.4521(10) -0.4371(9) -0.0273(5)
H47 H 0.4055 -0.4706 -0.0532
H48 H 0.5095 -0.4504 -0.0341
loop_
_geom_bond_atom_site_label_1
_geom_bond_atom_site_label_2
_geom_bond_site_symmetry_1
_geom_bond_site_symmetry_2
Zn1 N1 1_555 1_555
Zn2 N2 1_555 1_555
N1 C1 1_555 1_555
O1 H1 1_555 1_555
N2 C8 1_555 1_555
C1 C5 1_555 1_555
O2 C37 1_555 1_555
N3 H2 1_555 1_555
O3 C34 1_555 1_555
O4 Zn2 1_555 1_555
O5 C38 1_555 1_555
N4 C7 1_555 1_555
C2 H3 1_555 1_555
N5 C6 1_555 1_555
C3 C12 1_555 1_555
O6 Zn1 1_555 1_555
C4 N6 1_555 1_555
N6 H4 1_555 1_555
C5 N8 1_555 1_555
O7 Zn1 1_555 1_555
O8 H5 1_555 1_555
C6 N3 1_555 1_555
C7 C4 1_555 1_555
C8 C18 1_555 1_555
O9 C26 1_555 1_555
N7 Zn2 1_555 1_555
C9 C25 1_555 1_555
O10 C52 1_555 1_555
C10 N4 1_555 1_555
C11 N2 1_555 1_555
H6 C11 1_555 1_555
C12 O1 1_555 1_555
N8 Zn1 1_555 1_555
O11 C33 1_555 1_555
C13 C33 1_555 1_555
C14 H7 1_555 1_555
C15 C1 1_555 1_555
C16 C10 1_555 1_555
O12 C3 1_555 1_555
C17 C7 1_555 1_555
C18 N7 1_555 1_555
C19 N1 1_555 1_555
H8 C19 1_555 1_555
C20 N5 1_555 1_555
C21 C16 1_555 1_555
H9 C21 1_555 1_555
C22 C26 1_555 1_555
C23 C15 1_555 1_555
H10 C23 1_555 1_555
C24 N3 1_555 1_555
C25 H11 1_555 1_555
C26 O4 1_555 1_555
C27 H12 1_555 1_555
C28 C22 1_555 1_555
H13 C28 1_555 1_555
C29 C3 1_555 1_555
H14 C29 1_555 1_555
C30 C17 1_555 1_555
H15 C30 1_555 1_555
C31 C22 1_555 1_555
H16 C31 1_555 1_555
C32 C4 1_555 1_555
C33 O6 1_555 1_555
C34 O7 1_555 1_555
C35 H17 1_555 1_555
C36 O8 1_555 1_555
C37 C21 1_555 1_555
C38 C14 1_555 1_555
C39 C13 1_555 1_555
H18 C39 1_555 1_555
C40 C5 1_555 1_555
C41 C30 1_555 1_555
H19 C41 1_555 1_555
C42 C2 1_555 1_555
H20 C42 1_555 1_555
C43 C32 1_555 1_555
H21 C43 1_555 1_555
C44 C9 1_555 1_555
H22 C44 1_555 1_555
C45 C19 1_555 1_555
H23 C45 1_555 1_555
C46 C6 1_555 1_555
C47 C35 1_555 1_555
C48 C11 1_555 1_555
H24 C48 1_555 1_555
C49 C47 1_555 1_555
H25 C49 1_555 1_555
C50 C13 1_555 1_555
H26 C50 1_555 1_555
C51 C40 1_555 1_555
H27 C51 1_555 1_555
C52 C12 1_555 1_555
C53 N7 1_555 1_555
H28 C53 1_555 1_555
O13 Zn1 1_555 1_555
H29 O13 1_555 1_555
H30 O13 1_555 1_555
O14 H31 1_555 1_555
H32 O14 1_555 1_555
C54 O5 1_555 1_555
H33 C54 1_555 1_555
H34 C54 1_555 1_555
H35 C54 1_555 1_555
C55 O2 1_555 1_555
H36 C55 1_555 1_555
H37 C55 1_555 1_555
H38 C55 1_555 1_555
C56 O12 1_555 1_555
H39 C56 1_555 1_555
H40 C56 1_555 1_555
H41 C56 1_555 1_555
O15 H42 1_555 1_555
H43 O15 1_555 1_555
C57 O10 1_555 1_555
H44 C57 1_555 1_555
H45 C57 1_555 1_555
H46 C57 1_555 1_555
O16 H47 1_555 1_555
H48 O16 1_555 1_555
O17 C58 1_555 1_555
O18 C58 1_555 1_555
C58 C47 1_555 1_555
Zn2A O17 1_555 1_555
O17A Zn2 1_555 1_555
O18A Zn2 1_555 1_555
C2 N8 1_555 1_555
N6 C10 1_555 1_555
C8 C32 1_555 1_555
C9 C34 1_555 1_555
C14 C16 1_555 1_555
C15 C20 1_555 1_555
C17 C18 1_555 1_555
C20 C24 1_555 1_555
C23 C45 1_555 1_555
C24 C40 1_555 1_555
C25 C31 1_555 1_555
C27 C46 1_555 1_555
C27 C52 1_555 1_555
C28 C44 1_555 1_555
C29 C46 1_555 1_555
C35 C39 1_555 1_555
C36 C37 1_555 1_555
C36 C38 1_555 1_555
C41 C53 1_555 1_555
C42 C51 1_555 1_555
C43 C48 1_555 1_555
C49 C50 1_555 1_555
O18 Zn2A 1_555 1_555

#END
