
#######################################################################
#
#                 Cambridge Crystallographic Data Centre
#                                CCDC 
#
#######################################################################
#
# If this CIF has been generated from an entry in the Cambridge 
# Structural Database, then it will include bibliographic, chemical, 
# crystal, experimental, refinement or atomic coordinate data resulting 
# from the CCDC's data processing and validation procedures.
#
#######################################################################

data_MAPLUM
_symmetry_cell_setting           monoclinic
_symmetry_space_group_name_H-M   'C 2/c'
_symmetry_Int_Tables_number      15
_space_group_name_Hall           '-C 2yn'
loop_
_symmetry_equiv_pos_site_id
_symmetry_equiv_pos_as_xyz
1 x,y,z
2 -x,y,1/2-z
3 1/2+x,1/2+y,z
4 1/2-x,1/2+y,1/2-z
5 -x,-y,-z
6 x,-y,1/2+z
7 1/2-x,1/2-y,-z
8 1/2+x,1/2-y,1/2+z
_cell_length_a                   28.799(2)
_cell_length_b                   9.1781(7)
_cell_length_c                   30.8763(15)
_cell_angle_alpha                90
_cell_angle_beta                 119.481(5)
_cell_angle_gamma                90
_cell_volume                     7104.5
loop_
_atom_site_label
_atom_site_type_symbol
_atom_site_fract_x
_atom_site_fract_y
_atom_site_fract_z
Cd1 Cd 0.336158(14) 0.91315(5) -0.059994(12)
O1 O 0.35550(16) 0.7646(6) -0.10944(16)
O2 O 0.27073(16) 0.7883(5) -0.13482(14)
O3 O 0.20664(16) 0.5906(4) -0.21107(18)
O4 O 0.31754(17) 0.1497(5) -0.10694(16)
O5 O 0.27590(17) 0.0871(5) -0.06751(16)
N1 N 0.42153(19) 0.9506(6) -0.00324(18)
N2 N 0.49472(19) 1.0239(7) 0.06076(17)
N3 N 0.32119(17) 0.7568(5) -0.01131(15)
N4 N 0.31418(16) 0.6688(5) 0.05100(15)
C1 C 0.3074(2) 0.7430(6) -0.14124(18)
C2 C 0.2968(2) 0.6650(6) -0.18806(19)
C3 C 0.3360(2) 0.6684(6) -0.2021(2)
H1 H 0.3679 0.7160 -0.1815
C4 C 0.3297(3) 0.6050(7) -0.2445(2)
H2 H 0.3566 0.6118 -0.2528
C5 C 0.2831(3) 0.5306(8) -0.2753(2)
H3 H 0.2786 0.4848 -0.3039
C6 C 0.2437(3) 0.5253(7) -0.2628(3)
H4 H 0.2123 0.4755 -0.2833
C7 C 0.2495(2) 0.5933(6) -0.2197(2)
C8 C 0.2030(2) 0.4776(6) -0.1827(2)
C9 C 0.1541(2) 0.4594(7) -0.1861(2)
H5 H 0.1258 0.5192 -0.2070
C10 C 0.1468(2) 0.3536(7) -0.1587(3)
H6 H 0.1139 0.3432 -0.1604
C11 C 0.1884(2) 0.2622(7) -0.1286(2)
H7 H 0.1837 0.1916 -0.1095
C12 C 0.2373(2) 0.2764(6) -0.1270(2)
C13 C 0.2447(2) 0.3838(6) -0.1540(2)
H8 H 0.2773 0.3934 -0.1531
C14 C 0.2805(2) 0.1675(6) -0.0982(2)
C15 C 0.4223(4) 1.2059(9) 0.0225(4)
H9 H 0.3930 1.2186 -0.0106
H10 H 0.4490 1.2784 0.0291
H11 H 0.4098 1.2160 0.0460
C16 C 0.4463(2) 1.0544(7) 0.0275(2)
C17 C 0.4583(2) 0.8344(8) 0.0142(2)
H12 H 0.4520 0.7412 0.0007
C18 C 0.5030(3) 0.8784(9) 0.0526(2)
H13 H 0.5339 0.8240 0.0708
C19 C 0.5342(3) 1.1050(9) 0.1042(2)
H14 H 0.5358 1.2043 0.0942
H15 H 0.5690 1.0612 0.1159
C20 C 0.5218(2) 1.1082(7) 0.1464(2)
C21 C 0.5047(3) 0.9845(7) 0.1598(2)
H16 H 0.4994 0.8988 0.1419
C22 C 0.4951(2) 0.9864(6) 0.1995(2)
H17 H 0.4824 0.9029 0.2072
C23 C 0.5042(2) 1.1110(5) 0.22794(18)
C24 C 0.5210(2) 1.2335(6) 0.2139(2)
H18 H 0.5270 1.3192 0.2320
C25 C 0.5291(2) 1.2311(7) 0.1732(2)
H19 H 0.5397 1.3160 0.1641
C26 C 0.3433(3) 0.9297(7) 0.0585(2)
H20 H 0.3408 1.0036 0.0354
H21 H 0.3795 0.9227 0.0850
H22 H 0.3205 0.9549 0.0718
C27 C 0.32604(19) 0.7853(6) 0.03194(18)
C28 C 0.3058(3) 0.6138(7) -0.0207(2)
H23 H 0.2993 0.5629 -0.0492
C29 C 0.3016(3) 0.5579(7) 0.0178(2)
H24 H 0.2921 0.4633 0.0209
C30 C 0.3156(2) 0.6595(7) 0.09889(19)
H25 H 0.2937 0.5779 0.0980
H26 H 0.3000 0.7474 0.1037
C31 C 0.37124(19) 0.6406(6) 0.14297(18)
C32 C 0.3780(2) 0.6606(6) 0.18975(18)
H27 H 0.3486 0.6823 0.1935
C33 C 0.42804(19) 0.6487(6) 0.23150(18)
H28 H 0.4316 0.6634 0.2628
C34 C 0.47279(19) 0.6155(5) 0.22774(17)
C35 C 0.4648(2) 0.5910(6) 0.17971(18)
H29 H 0.4937 0.5663 0.1756
C36 C 0.4149(2) 0.6030(6) 0.13842(19)
H30 H 0.4106 0.5854 0.1070
Cd1_2 Cd 0.336158(14) 1.91315(5) -0.059994(12)
Cd1_3 Cd 0.336158(14) -0.08685(5) -0.059994(12)
Cd1A Cd 0.663842(14) 0.91315(5) 0.559994(12)
O1_2 O 0.35550(16) 1.7646(6) -0.10944(16)
O2_2 O 0.27073(16) 1.7883(5) -0.13482(14)
O3_2 O 0.20664(16) 1.5906(4) -0.21107(18)
O4_2 O 0.31754(17) 1.1497(5) -0.10694(16)
O4_3 O 0.31754(17) 2.1497(5) -0.10694(16)
O5_2 O 0.27590(17) 1.0871(5) -0.06751(16)
O5_3 O 0.27590(17) 2.0871(5) -0.06751(16)
N1A N 0.57847(19) 0.9506(6) 0.50324(18)
N1_2 N 0.42153(19) 1.9506(6) -0.00324(18)
N2A N 0.50528(19) 1.0239(7) 0.43924(17)
N3A N 0.67881(17) 0.7568(5) 0.51131(15)
N3_2 N 0.32119(17) 1.7568(5) -0.01131(15)
N4A N 0.68582(16) 0.6688(5) 0.44900(15)
C1_2 C 0.3074(2) 1.7430(6) -0.14124(18)
C2_2 C 0.2968(2) 1.6650(6) -0.18806(19)
C3_2 C 0.3360(2) 1.6684(6) -0.2021(2)
H1_2 H 0.3679 1.7160 -0.1815
C4_2 C 0.3297(3) 1.6050(7) -0.2445(2)
H2_2 H 0.3566 1.6118 -0.2528
C5_2 C 0.2831(3) 1.5306(8) -0.2753(2)
H3_2 H 0.2786 1.4848 -0.3039
C6_2 C 0.2437(3) 1.5253(7) -0.2628(3)
H4_2 H 0.2123 1.4755 -0.2833
C7_2 C 0.2495(2) 1.5933(6) -0.2197(2)
C8_2 C 0.2030(2) 1.4776(6) -0.1827(2)
C9_2 C 0.1541(2) 1.4594(7) -0.1861(2)
H5_2 H 0.1258 1.5192 -0.2070
C10_2 C 0.1468(2) 1.3536(7) -0.1587(3)
H6_2 H 0.1139 1.3432 -0.1604
C11_2 C 0.1884(2) 1.2622(7) -0.1286(2)
H7_2 H 0.1837 1.1916 -0.1095
C12_2 C 0.2373(2) 1.2764(6) -0.1270(2)
C13_2 C 0.2447(2) 1.3838(6) -0.1540(2)
H8_2 H 0.2773 1.3934 -0.1531
C14_2 C 0.2805(2) 1.1675(6) -0.0982(2)
C15A C 0.5777(4) 1.2059(9) 0.4775(4)
H9A H 0.6070 1.2186 0.5106
H10A H 0.5510 1.2784 0.4709
H11A H 0.5902 1.2160 0.4540
C16A C 0.5537(2) 1.0544(7) 0.4725(2)
C17A C 0.5417(2) 0.8344(8) 0.4858(2)
H12A H 0.5480 0.7412 0.4993
C18A C 0.4970(3) 0.8784(9) 0.4474(2)
H13A H 0.4661 0.8240 0.4292
C19A C 0.4658(3) 1.1050(9) 0.3958(2)
H14A H 0.4642 1.2043 0.4058
H15A H 0.4310 1.0612 0.3841
C20A C 0.4782(2) 1.1082(7) 0.3536(2)
C21A C 0.4953(3) 0.9845(7) 0.3402(2)
H16A H 0.5006 0.8988 0.3581
C22A C 0.5049(2) 0.9864(6) 0.3005(2)
H17A H 0.5176 0.9029 0.2928
C23A C 0.4958(2) 1.1110(5) 0.27206(18)
C24A C 0.4790(2) 1.2335(6) 0.2861(2)
H18A H 0.4730 1.3192 0.2680
C25A C 0.4709(2) 1.2311(7) 0.3268(2)
H19A H 0.4603 1.3160 0.3359
C26A C 0.6567(3) 0.9297(7) 0.4415(2)
H20A H 0.6592 1.0036 0.4646
H21A H 0.6205 0.9227 0.4150
H22A H 0.6795 0.9549 0.4282
C27A C 0.67396(19) 0.7853(6) 0.46806(18)
C28A C 0.6942(3) 0.6138(7) 0.5207(2)
H23A H 0.7007 0.5629 0.5492
C29A C 0.6984(3) 0.5579(7) 0.4822(2)
H24A H 0.7079 0.4633 0.4791
C30A C 0.6844(2) 0.6595(7) 0.40111(19)
H25A H 0.7063 0.5779 0.4020
H26A H 0.7000 0.7474 0.3963
C31A C 0.62876(19) 0.6406(6) 0.35703(18)
C32A C 0.6220(2) 0.6606(6) 0.31025(18)
H27A H 0.6514 0.6823 0.3065
C33A C 0.57196(19) 0.6487(6) 0.26850(18)
H28A H 0.5684 0.6634 0.2372
C34A C 0.52721(19) 0.6155(5) 0.27226(17)
C35A C 0.5352(2) 0.5910(6) 0.32029(18)
H29A H 0.5063 0.5663 0.3244
C36A C 0.5851(2) 0.6030(6) 0.36158(19)
H30A H 0.5894 0.5854 0.3930
O6 O 0.1268(3) 0.2413(11) 0.1525(4)
H31 H 0.1588 0.2677 0.1628
H32 H 0.1076 0.2786 0.1239
O7 O 0.5716(5) 0.4788(16) 0.0881(5)
H33 H 0.5932 0.5186 0.0756
H34 H 0.5683 0.4926 0.1063
loop_
_geom_bond_atom_site_label_1
_geom_bond_atom_site_label_2
_geom_bond_site_symmetry_1
_geom_bond_site_symmetry_2
Cd1 O1 1_555 1_555
O1 C1 1_555 1_555
O2 Cd1 1_555 1_555
O3 C7 1_555 1_555
O4 C14 1_555 1_555
O5 C14 1_555 1_555
N1 Cd1 1_555 1_555
N2 C16 1_555 1_555
N3 Cd1 1_555 1_555
N4 C27 1_555 1_555
C1 O2 1_555 1_555
C2 C1 1_555 1_555
C3 C2 1_555 1_555
H1 C3 1_555 1_555
C4 C3 1_555 1_555
H2 C4 1_555 1_555
C5 C4 1_555 1_555
H3 C5 1_555 1_555
C6 C5 1_555 1_555
H4 C6 1_555 1_555
C7 C2 1_555 1_555
C8 O3 1_555 1_555
C9 C8 1_555 1_555
H5 C9 1_555 1_555
C10 C9 1_555 1_555
H6 C10 1_555 1_555
C11 C10 1_555 1_555
H7 C11 1_555 1_555
C12 C11 1_555 1_555
C13 C8 1_555 1_555
H8 C13 1_555 1_555
C14 C12 1_555 1_555
C15 H9 1_555 1_555
H10 C15 1_555 1_555
H11 C15 1_555 1_555
C16 N1 1_555 1_555
C17 N1 1_555 1_555
H12 C17 1_555 1_555
C18 N2 1_555 1_555
H13 C18 1_555 1_555
C19 N2 1_555 1_555
H14 C19 1_555 1_555
H15 C19 1_555 1_555
C20 C19 1_555 1_555
C21 C20 1_555 1_555
H16 C21 1_555 1_555
C22 C21 1_555 1_555
H17 C22 1_555 1_555
C23 C22 1_555 1_555
C24 C23 1_555 1_555
H18 C24 1_555 1_555
C25 C20 1_555 1_555
H19 C25 1_555 1_555
C26 H20 1_555 1_555
H21 C26 1_555 1_555
H22 C26 1_555 1_555
C27 N3 1_555 1_555
C28 N3 1_555 1_555
H23 C28 1_555 1_555
C29 N4 1_555 1_555
H24 C29 1_555 1_555
C30 N4 1_555 1_555
H25 C30 1_555 1_555
H26 C30 1_555 1_555
C31 C30 1_555 1_555
C32 C31 1_555 1_555
H27 C32 1_555 1_555
C33 C32 1_555 1_555
H28 C33 1_555 1_555
C34 C33 1_555 1_555
C35 C34 1_555 1_555
H29 C35 1_555 1_555
C36 C31 1_555 1_555
H30 C36 1_555 1_555
O6 H31 1_555 1_555
H32 O6 1_555 1_555
O7 H33 1_555 1_555
H34 O7 1_555 1_555
Cd1_2 O1_2 1_555 1_555
Cd1_3 O4 1_555 1_555
Cd1A N1A 1_555 1_555
O1_2 C1_2 1_555 1_555
O2_2 Cd1_2 1_555 1_555
O3_2 C7_2 1_555 1_555
O4_2 Cd1 1_555 1_555
O4_3 Cd1_2 1_555 1_555
O5_2 Cd1 1_555 1_555
O5_3 Cd1_2 1_555 1_555
N1A C16A 1_555 1_555
N1_2 Cd1_2 1_555 1_555
N2A C16A 1_555 1_555
N3A Cd1A 1_555 1_555
N3_2 Cd1_2 1_555 1_555
N4A C27A 1_555 1_555
C1_2 O2_2 1_555 1_555
C2_2 C1_2 1_555 1_555
C3_2 C2_2 1_555 1_555
H1_2 C3_2 1_555 1_555
C4_2 C3_2 1_555 1_555
H2_2 C4_2 1_555 1_555
C5_2 C4_2 1_555 1_555
H3_2 C5_2 1_555 1_555
C6_2 C5_2 1_555 1_555
H4_2 C6_2 1_555 1_555
C7_2 C2_2 1_555 1_555
C8_2 O3_2 1_555 1_555
C9_2 C8_2 1_555 1_555
H5_2 C9_2 1_555 1_555
C10_2 C9_2 1_555 1_555
H6_2 C10_2 1_555 1_555
C11_2 C10_2 1_555 1_555
H7_2 C11_2 1_555 1_555
C12_2 C11_2 1_555 1_555
C13_2 C8_2 1_555 1_555
H8_2 C13_2 1_555 1_555
C14_2 O4_2 1_555 1_555
C15A H9A 1_555 1_555
H10A C15A 1_555 1_555
H11A C15A 1_555 1_555
C16A C15A 1_555 1_555
C17A N1A 1_555 1_555
H12A C17A 1_555 1_555
C18A N2A 1_555 1_555
H13A C18A 1_555 1_555
C19A N2A 1_555 1_555
H14A C19A 1_555 1_555
H15A C19A 1_555 1_555
C20A C19A 1_555 1_555
C21A C20A 1_555 1_555
H16A C21A 1_555 1_555
C22A C21A 1_555 1_555
H17A C22A 1_555 1_555
C23A C23 1_555 1_555
C24A C23A 1_555 1_555
H18A C24A 1_555 1_555
C25A C20A 1_555 1_555
H19A C25A 1_555 1_555
C26A H20A 1_555 1_555
H21A C26A 1_555 1_555
H22A C26A 1_555 1_555
C27A N3A 1_555 1_555
C28A N3A 1_555 1_555
H23A C28A 1_555 1_555
C29A N4A 1_555 1_555
H24A C29A 1_555 1_555
C30A N4A 1_555 1_555
H25A C30A 1_555 1_555
H26A C30A 1_555 1_555
C31A C30A 1_555 1_555
C32A C31A 1_555 1_555
H27A C32A 1_555 1_555
C33A C32A 1_555 1_555
H28A C33A 1_555 1_555
C34A C34 1_555 1_555
C35A C34A 1_555 1_555
H29A C35A 1_555 1_555
C36A C31A 1_555 1_555
H30A C36A 1_555 1_555
O5 Cd1_3 1_555 1_555
C6 C7 1_555 1_555
C12 C13 1_555 1_555
C15 C16 1_555 1_555
C17 C18 1_555 1_555
C24 C25 1_555 1_555
C26 C27 1_555 1_555
C28 C29 1_555 1_555
C35 C36 1_555 1_555
O5_2 C14_2 1_555 1_555
C6_2 C7_2 1_555 1_555
C12_2 C13_2 1_555 1_555
C12_2 C14_2 1_555 1_555
C17A C18A 1_555 1_555
C22A C23A 1_555 1_555
C24A C25A 1_555 1_555
C26A C27A 1_555 1_555
C28A C29A 1_555 1_555
C33A C34A 1_555 1_555
C35A C36A 1_555 1_555

#END
