
#######################################################################
#
#                 Cambridge Crystallographic Data Centre
#                                CCDC 
#
#######################################################################
#
# If this CIF has been generated from an entry in the Cambridge 
# Structural Database, then it will include bibliographic, chemical, 
# crystal, experimental, refinement or atomic coordinate data resulting 
# from the CCDC's data processing and validation procedures.
#
#######################################################################

data_MAPLOG
_symmetry_cell_setting           triclinic
_symmetry_space_group_name_H-M   'P -1'
_symmetry_Int_Tables_number      2
_space_group_name_Hall           '-P 1'
loop_
_symmetry_equiv_pos_site_id
_symmetry_equiv_pos_as_xyz
1 x,y,z
2 -x,-y,-z
_cell_length_a                   10.693(5)
_cell_length_b                   10.995(5)
_cell_length_c                   11.264(5)
_cell_angle_alpha                117.637(5)
_cell_angle_beta                 114.224(5)
_cell_angle_gamma                94.459(5)
_cell_volume                     1009.29
loop_
_atom_site_label
_atom_site_type_symbol
_atom_site_fract_x
_atom_site_fract_y
_atom_site_fract_z
Mn1 Mn 0.79524(3) 0.38181(3) 0.93300(3)
O1 O 0.8833(2) 0.43826(18) 0.82318(18)
O2 O 1.08127(16) 0.50420(15) 0.82076(15)
O3 O 0.50318(14) 0.08880(14) 0.2562(2)
O4 O 0.28276(15) -0.18486(14) 0.04281(16)
O5 O 0.17355(16) -0.17117(15) 0.17423(18)
N1 N 0.55040(17) 0.30215(16) 0.76066(17)
N2 N 0.71628(18) 0.57814(17) 0.97777(18)
C1 C 0.9492(2) 0.43561(18) 0.7539(2)
C2 C 0.86469(18) 0.34793(17) 0.57893(19)
C3 C 0.9289(2) 0.3540(2) 0.4966(2)
H1 H 1.0261 0.4094 0.5492
C4 C 0.8489(2) 0.2778(2) 0.3360(2)
H2 H 0.8921 0.2846 0.2815
C5 C 0.7066(2) 0.1926(2) 0.2570(2)
H3 H 0.6532 0.1410 0.1491
C6 C 0.64419(19) 0.18443(18) 0.3386(2)
C7 C 0.7206(2) 0.26184(18) 0.4990(2)
H4 H 0.6759 0.2563 0.5527
C8 C 0.39047(19) 0.14358(19) 0.2508(2)
C9 C 0.4073(2) 0.2889(2) 0.3038(2)
H5 H 0.4975 0.3543 0.3473
C10 C 0.2894(3) 0.3352(2) 0.2912(3)
H6 H 0.2993 0.4320 0.3245
C11 C 0.1570(3) 0.2390(3) 0.2299(3)
H7 H 0.0772 0.2704 0.2205
C12 C 0.1425(2) 0.0953(2) 0.1820(3)
H8 H 0.0536 0.0318 0.1447
C13 C 0.25831(19) 0.04424(19) 0.1888(2)
C14 C 0.23693(18) -0.11425(19) 0.1296(2)
C15 C 0.4719(2) 0.1628(2) 0.6459(2)
H9 H 0.5200 0.0948 0.6311
C16 C 0.3243(2) 0.1150(2) 0.5491(2)
H10 H 0.2740 0.0176 0.4695
C17 C 0.2530(3) 0.2142(3) 0.5727(3)
H11 H 0.1529 0.1851 0.5093
C18 C 0.3311(2) 0.3580(3) 0.6914(3)
H12 H 0.2838 0.4264 0.7100
C19 C 0.4803(2) 0.3999(2) 0.7828(2)
C20 C 0.5724(2) 0.5532(2) 0.9089(2)
C21 C 0.5144(2) 0.6641(2) 0.9522(2)
H13 H 0.4142 0.6438 0.9058
C22 C 0.6072(3) 0.8046(2) 1.0647(3)
H14 H 0.5707 0.8804 1.0970
C23 C 0.7543(3) 0.8314(2) 1.1287(3)
H15 H 0.8188 0.9262 1.2012
C24 C 0.8054(3) 0.7161(2) 1.0842(3)
H16 H 0.9052 0.7346 1.1297
Mn1A Mn 1.20476(3) 0.61819(3) 1.06700(3)
Mn1A_2 Mn 0.20476(3) -0.38181(3) 0.06700(3)
O2A O 0.91873(16) 0.49580(15) 1.17924(15)
O4A O 0.71724(15) 0.18486(14) 0.95719(16)
O5A O 0.82645(16) 0.17117(15) 0.82577(18)
loop_
_geom_bond_atom_site_label_1
_geom_bond_atom_site_label_2
_geom_bond_site_symmetry_1
_geom_bond_site_symmetry_2
Mn1 O1 1_555 1_555
O1 C1 1_555 1_555
O2 C1 1_555 1_555
O3 C6 1_555 1_555
O4 C14 1_555 1_555
O5 C14 1_555 1_555
N1 Mn1 1_555 1_555
N2 Mn1 1_555 1_555
C1 C2 1_555 1_555
C2 C3 1_555 1_555
C3 H1 1_555 1_555
C4 C3 1_555 1_555
H2 C4 1_555 1_555
C5 C4 1_555 1_555
H3 C5 1_555 1_555
C6 C5 1_555 1_555
C7 C2 1_555 1_555
H4 C7 1_555 1_555
C8 O3 1_555 1_555
C9 C8 1_555 1_555
H5 C9 1_555 1_555
C10 C9 1_555 1_555
H6 C10 1_555 1_555
C11 C10 1_555 1_555
H7 C11 1_555 1_555
C12 C11 1_555 1_555
H8 C12 1_555 1_555
C13 C8 1_555 1_555
C14 C13 1_555 1_555
C15 N1 1_555 1_555
H9 C15 1_555 1_555
C16 C15 1_555 1_555
H10 C16 1_555 1_555
C17 C16 1_555 1_555
H11 C17 1_555 1_555
C18 C17 1_555 1_555
H12 C18 1_555 1_555
C19 N1 1_555 1_555
C20 N2 1_555 1_555
C21 C20 1_555 1_555
H13 C21 1_555 1_555
C22 C21 1_555 1_555
H14 C22 1_555 1_555
C23 C22 1_555 1_555
H15 C23 1_555 1_555
C24 N2 1_555 1_555
H16 C24 1_555 1_555
Mn1A O2 1_555 1_555
Mn1A_2 O4 1_555 1_555
O2A Mn1 1_555 1_555
O4A Mn1 1_555 1_555
O5A Mn1 1_555 1_555
O5 Mn1A_2 1_555 1_555
C6 C7 1_555 1_555
C12 C13 1_555 1_555
C18 C19 1_555 1_555
C19 C20 1_555 1_555
C23 C24 1_555 1_555

#END
