
#######################################################################
#
#                 Cambridge Crystallographic Data Centre
#                                CCDC 
#
#######################################################################
#
# If this CIF has been generated from an entry in the Cambridge 
# Structural Database, then it will include bibliographic, chemical, 
# crystal, experimental, refinement or atomic coordinate data resulting 
# from the CCDC's data processing and validation procedures.
#
#######################################################################

data_MAPLEW
_symmetry_cell_setting           monoclinic
_symmetry_space_group_name_H-M   'C 2/c'
_symmetry_Int_Tables_number      15
_space_group_name_Hall           '-C 2yn'
loop_
_symmetry_equiv_pos_site_id
_symmetry_equiv_pos_as_xyz
1 x,y,z
2 -x,y,1/2-z
3 1/2+x,1/2+y,z
4 1/2-x,1/2+y,1/2-z
5 -x,-y,-z
6 x,-y,1/2+z
7 1/2-x,1/2-y,-z
8 1/2+x,1/2-y,1/2+z
_cell_length_a                   14.777(5)
_cell_length_b                   20.413(7)
_cell_length_c                   16.909(9)
_cell_angle_alpha                90
_cell_angle_beta                 97.909(5)
_cell_angle_gamma                90
_cell_volume                     5051.96
loop_
_atom_site_label
_atom_site_type_symbol
_atom_site_fract_x
_atom_site_fract_y
_atom_site_fract_z
Pb1 Pb 0.32850(2) -0.12784(2) 0.202300(19)
Cl1 Cl -0.3539(2) -0.00951(19) 0.54513(19)
O1 O 0.4373(6) -0.1148(4) 0.3386(4)
O2 O 0.3916(4) -0.2130(3) 0.2956(4)
N1 N 0.2020(5) -0.1450(5) 0.2834(4)
N2 N 0.2547(5) -0.0215(4) 0.2504(4)
N3 N -0.0528(5) -0.0414(4) 0.3978(4)
H1 H -0.0855 -0.0724 0.4136
N4 N -0.0049(5) 0.0604(4) 0.3762(4)
C1 C 0.0234(6) -0.0485(5) 0.3613(5)
C2 C 0.0725(6) -0.1046(5) 0.3423(5)
C3 C 0.0481(7) -0.1689(6) 0.3566(5)
H2 H -0.0039 -0.1781 0.3800
C4 C 0.1030(9) -0.2186(5) 0.3354(7)
H3 H 0.0886 -0.2619 0.3453
C5 C 0.1800(7) -0.2044(6) 0.2992(6)
H4 H 0.2166 -0.2387 0.2861
C6 C 0.2848(7) 0.0384(6) 0.2400(5)
H5 H 0.3375 0.0424 0.2159
C7 C 0.2455(8) 0.0946(7) 0.2616(6)
H6 H 0.2703 0.1354 0.2528
C8 C 0.1667(7) 0.0884(5) 0.2974(5)
H7 H 0.1366 0.1256 0.3121
C9 C 0.1331(6) 0.0265(5) 0.3111(5)
C10 C 0.0518(6) 0.0141(5) 0.3493(5)
C11 C 0.1800(6) -0.0275(5) 0.2879(5)
C12 C 0.1512(6) -0.0956(6) 0.3037(5)
C13 C -0.0674(6) 0.0238(6) 0.4047(5)
C14 C -0.1454(7) 0.0522(6) 0.4406(5)
C15 C -0.1593(8) 0.1198(6) 0.4384(6)
H8 H -0.1173 0.1457 0.4165
C16 C -0.2373(9) 0.1534(10) 0.4691(6)
H9 H -0.2475 0.1984 0.4669
C17 C -0.2912(9) 0.1094(7) 0.5004(6)
H10 H -0.3408 0.1264 0.5220
C18 C -0.2807(6) 0.0431(7) 0.5038(5)
C19 C -0.2060(8) 0.0123(6) 0.4740(5)
H11 H -0.1981 -0.0329 0.4767
C20 C 0.4409(7) -0.1755(7) 0.3431(5)
C21 C 0.5100(6) -0.2075(5) 0.4069(5)
C22 C 0.5546(6) -0.1706(5) 0.4692(5)
H12 H 0.5434 -0.1259 0.4724
C23 C 0.6159(7) -0.2013(6) 0.5266(5)
H13 H 0.6483 -0.1760 0.5667
C24 C 0.6306(6) -0.2670(5) 0.5264(5)
C25 C 0.5866(6) -0.3027(5) 0.4635(5)
H14 H 0.5904 -0.3465 0.4492
C26 C 0.5266(6) -0.2732(5) 0.4033(5)
H15 H 0.4981 -0.2980 0.3610
C27 C 0.6915(7) -0.3001(6) 0.5922(5)
O4 O 0.7480(4) -0.2680(3) 0.6393(3)
O5 O 0.6845(4) -0.3629(3) 0.5970(3)
Pb1G Pb 0.82850(2) -0.37216(2) 0.702300(19)
O4G O 0.2480(4) -0.2320(3) 0.1393(3)
O5G O 0.1845(4) -0.1371(3) 0.0970(3)
O3 O 0.0271(7) -0.5008(7) -0.1622(7)
H16 H 0.0465 -0.4624 -0.1838
H17 H 0.0255 -0.4966 -0.1053
O6 O 0.0319(18) -0.3344(19) 0.3202(11)
H18 H 0.0475 -0.3661 0.3617
H19 H -0.0328 -0.3268 0.3132
loop_
_geom_bond_atom_site_label_1
_geom_bond_atom_site_label_2
_geom_bond_site_symmetry_1
_geom_bond_site_symmetry_2
Pb1 O1 1_555 1_555
Cl1 C18 1_555 1_555
O1 C20 1_555 1_555
O2 Pb1 1_555 1_555
N1 Pb1 1_555 1_555
N2 Pb1 1_555 1_555
N3 H1 1_555 1_555
N4 C10 1_555 1_555
C1 N3 1_555 1_555
C2 C1 1_555 1_555
C3 C2 1_555 1_555
H2 C3 1_555 1_555
C4 C3 1_555 1_555
H3 C4 1_555 1_555
C5 N1 1_555 1_555
H4 C5 1_555 1_555
C6 N2 1_555 1_555
H5 C6 1_555 1_555
C7 C6 1_555 1_555
H6 C7 1_555 1_555
C8 C7 1_555 1_555
H7 C8 1_555 1_555
C9 C8 1_555 1_555
C10 C1 1_555 1_555
C11 N2 1_555 1_555
C12 N1 1_555 1_555
C13 N3 1_555 1_555
C14 C13 1_555 1_555
C15 C14 1_555 1_555
H8 C15 1_555 1_555
C16 C15 1_555 1_555
H9 C16 1_555 1_555
C17 C16 1_555 1_555
H10 C17 1_555 1_555
C18 C17 1_555 1_555
C19 C14 1_555 1_555
H11 C19 1_555 1_555
C20 O2 1_555 1_555
C21 C20 1_555 1_555
C22 C21 1_555 1_555
H12 C22 1_555 1_555
C23 C22 1_555 1_555
H13 C23 1_555 1_555
C24 C23 1_555 1_555
C25 C24 1_555 1_555
H14 C25 1_555 1_555
C26 C21 1_555 1_555
H15 C26 1_555 1_555
C27 C24 1_555 1_555
O3 H16 1_555 1_555
H17 O3 1_555 1_555
O4 C27 1_555 1_555
O5 C27 1_555 1_555
O6 H18 1_555 1_555
H19 O6 1_555 1_555
Pb1G O4 1_555 1_555
O4G Pb1 1_555 1_555
O5G Pb1 1_555 1_555
N4 C13 1_555 1_555
C2 C12 1_555 1_555
C4 C5 1_555 1_555
C9 C10 1_555 1_555
C9 C11 1_555 1_555
C11 C12 1_555 1_555
C18 C19 1_555 1_555
C25 C26 1_555 1_555
O5 Pb1G 1_555 1_555

#END
