
#######################################################################
#
#                 Cambridge Crystallographic Data Centre
#                                CCDC 
#
#######################################################################
#
# If this CIF has been generated from an entry in the Cambridge 
# Structural Database, then it will include bibliographic, chemical, 
# crystal, experimental, refinement or atomic coordinate data resulting 
# from the CCDC's data processing and validation procedures.
#
#######################################################################

data_MAPMIB
_symmetry_cell_setting           monoclinic
_symmetry_space_group_name_H-M   'C 2/c'
_symmetry_Int_Tables_number      15
_space_group_name_Hall           '-C 2yn'
loop_
_symmetry_equiv_pos_site_id
_symmetry_equiv_pos_as_xyz
1 x,y,z
2 -x,y,1/2-z
3 1/2+x,1/2+y,z
4 1/2-x,1/2+y,1/2-z
5 -x,-y,-z
6 x,-y,1/2+z
7 1/2-x,1/2-y,-z
8 1/2+x,1/2-y,1/2+z
_cell_length_a                   18.244(4)
_cell_length_b                   10.794(2)
_cell_length_c                   15.135(3)
_cell_angle_alpha                90
_cell_angle_beta                 113.94(3)
_cell_angle_gamma                90
_cell_volume                     2724.06
loop_
_atom_site_label
_atom_site_type_symbol
_atom_site_fract_x
_atom_site_fract_y
_atom_site_fract_z
Cu1 Cu 0.0000 0.5000 1.0000
S1 S 0.12002(6) 0.52964(9) 1.10683(6)
S2 S 0.03827(6) 0.52106(8) 0.88300(6)
C1 C 0.1782(2) 0.5571(3) 1.0413(2)
C2 C 0.3022(2) 0.6043(3) 1.0328(2)
C3 C 0.2575(2) 0.5852(3) 1.0878(2)
H1 H 0.2814 0.5916 1.1549
C4 C 0.1842(2) 0.5644(3) 0.8833(2)
H2 H 0.1597 0.5573 0.8163
C5 C 0.2661(2) 0.5909(3) 0.9297(2)
N1 N 0.31748(18) 0.6088(3) 0.8880(2)
C6 C 0.1409(2) 0.5493(3) 0.9377(2)
K1 K 0.5000 0.70369(10) 1.2500
O1 O 0.58831(19) 0.6874(3) 1.1439(2)
O2 O 0.5000 0.4629(4) 1.2500
C7 C 0.6382(2) 0.7031(3) 1.1108(3)
C8 C 0.6169(3) 0.6928(4) 1.0057(3)
H3 H 0.6110 0.7741 0.9781
H4 H 0.6584 0.6490 0.9952
H5 H 0.5672 0.6484 0.9757
C9 C 0.7227(3) 0.7333(4) 1.1720(3)
H6 H 0.7549 0.6602 1.1819
H7 H 0.7413 0.7955 1.1407
H8 H 0.7266 0.7640 1.2333
C10 C 0.5000 0.3520(5) 1.2500
C11 C 0.5679(2) 0.2798(4) 1.2463(3)
H9 H 0.6108 0.3351 1.2518
H10 H 0.5865 0.2215 1.2987
H11 H 0.5504 0.2360 1.1860
S3 S 0.40237(5) 0.64064(8) 0.97284(6)
N2 N 0.38038(18) 0.6334(3) 1.0659(2)
S1D S -0.12002(6) 0.47036(9) 0.89317(6)
S2D S -0.03827(6) 0.47894(8) 1.11700(6)
C1D C -0.1782(2) 0.4429(3) 0.9587(2)
C2D C -0.3022(2) 0.3957(3) 0.9672(2)
C3D C -0.2575(2) 0.4148(3) 0.9122(2)
H1D H -0.2814 0.4084 0.8451
C4D C -0.1842(2) 0.4356(3) 1.1167(2)
H2D H -0.1597 0.4427 1.1837
C5D C -0.2661(2) 0.4091(3) 1.0703(2)
N1D N -0.31748(18) 0.3912(3) 1.1120(2)
C6D C -0.1409(2) 0.4507(3) 1.0623(2)
K1D K -0.5000 0.29631(10) 0.7500
O1A O 0.41169(19) 0.6874(3) 1.3561(2)
C7A C 0.3618(2) 0.7031(3) 1.3892(3)
C8A C 0.3831(3) 0.6928(4) 1.4943(3)
H3A H 0.3890 0.7741 1.5219
H4A H 0.3416 0.6490 1.5048
H5A H 0.4328 0.6484 1.5243
C9A C 0.2773(3) 0.7333(4) 1.3280(3)
H6A H 0.2451 0.6602 1.3181
H7A H 0.2587 0.7955 1.3593
H8A H 0.2734 0.7640 1.2667
C11A C 0.4321(2) 0.2798(4) 1.2537(3)
H9A H 0.3892 0.3351 1.2482
H10A H 0.4135 0.2215 1.2013
H11A H 0.4496 0.2360 1.3140
S3D S -0.40237(5) 0.35936(8) 1.02716(6)
N2D N -0.38038(18) 0.3666(3) 0.9341(2)
N2A N 0.61962(18) 0.6334(3) 1.4341(2)
loop_
_geom_bond_atom_site_label_1
_geom_bond_atom_site_label_2
_geom_bond_site_symmetry_1
_geom_bond_site_symmetry_2
Cu1 S1 1_555 1_555
S1 C1 1_555 1_555
S2 Cu1 1_555 1_555
C1 C3 1_555 1_555
C2 C3 1_555 1_555
C3 H1 1_555 1_555
C4 H2 1_555 1_555
C5 C2 1_555 1_555
N1 C5 1_555 1_555
C6 S2 1_555 1_555
K1 O1 1_555 1_555
O1 C7 1_555 1_555
O2 K1 1_555 1_555
C7 C8 1_555 1_555
C8 H3 1_555 1_555
H4 C8 1_555 1_555
H5 C8 1_555 1_555
C9 C7 1_555 1_555
H6 C9 1_555 1_555
H7 C9 1_555 1_555
H8 C9 1_555 1_555
C10 O2 1_555 1_555
C11 C10 1_555 1_555
H9 C11 1_555 1_555
H10 C11 1_555 1_555
H11 C11 1_555 1_555
S3 N1 1_555 1_555
N2 C2 1_555 1_555
S1D Cu1 1_555 1_555
S2D Cu1 1_555 1_555
C1D S1D 1_555 1_555
C2D C3D 1_555 1_555
C3D C1D 1_555 1_555
H1D C3D 1_555 1_555
C4D H2D 1_555 1_555
C5D C2D 1_555 1_555
N1D C5D 1_555 1_555
C6D S2D 1_555 1_555
K1D N2D 1_555 1_555
O1A K1 1_555 1_555
C7A O1A 1_555 1_555
C8A C7A 1_555 1_555
H3A C8A 1_555 1_555
H4A C8A 1_555 1_555
H5A C8A 1_555 1_555
C9A C7A 1_555 1_555
H6A C9A 1_555 1_555
H7A C9A 1_555 1_555
H8A C9A 1_555 1_555
C11A C10 1_555 1_555
H9A C11A 1_555 1_555
H10A C11A 1_555 1_555
H11A C11A 1_555 1_555
S3D N1D 1_555 1_555
N2D C2D 1_555 1_555
N2A K1 1_555 1_555
C1 C6 1_555 1_555
C4 C5 1_555 1_555
C4 C6 1_555 1_555
K1 N2 1_555 1_555
S3 N2 1_555 1_555
C1D C6D 1_555 1_555
C4D C5D 1_555 1_555
C4D C6D 1_555 1_555
S3D N2D 1_555 1_555

#END
