
#######################################################################
#
#                 Cambridge Crystallographic Data Centre
#                                CCDC 
#
#######################################################################
#
# If this CIF has been generated from an entry in the Cambridge 
# Structural Database, then it will include bibliographic, chemical, 
# crystal, experimental, refinement or atomic coordinate data resulting 
# from the CCDC's data processing and validation procedures.
#
#######################################################################

data_MAPMOH
_symmetry_cell_setting           triclinic
_symmetry_space_group_name_H-M   'P -1'
_symmetry_Int_Tables_number      2
_space_group_name_Hall           '-P 1'
loop_
_symmetry_equiv_pos_site_id
_symmetry_equiv_pos_as_xyz
1 x,y,z
2 -x,-y,-z
_cell_length_a                   7.6325(7)
_cell_length_b                   7.9361(7)
_cell_length_c                   9.1797(8)
_cell_angle_alpha                81.6030(10)
_cell_angle_beta                 78.3720(10)
_cell_angle_gamma                80.3500(10)
_cell_volume                     533.278
loop_
_atom_site_label
_atom_site_type_symbol
_atom_site_fract_x
_atom_site_fract_y
_atom_site_fract_z
Cu1 Cu 0.5000 1.0000 -0.5000
S1 S 0.29633(6) 1.02395(6) -0.29839(5)
S2 S 0.54141(6) 0.71992(6) -0.45512(5)
C1 C 0.2987(2) 0.8139(2) -0.2053(2)
C2 C 0.4103(2) 0.6739(2) -0.27734(19)
C3 C 0.1949(2) 0.7867(2) -0.0656(2)
H1 H 0.1231 0.8778 -0.0197
C4 C 0.4160(2) 0.5076(2) -0.2097(2)
H2 H 0.4874 0.4174 -0.2572
C5 C 0.3103(2) 0.4770(2) -0.0656(2)
N1 N 0.3010(2) 0.3236(2) 0.01777(17)
C6 C 0.2003(2) 0.6165(2) 0.0065(2)
N2 N 0.1092(2) 0.5669(2) 0.14356(18)
S3 S 0.16322(6) 0.36094(6) 0.17237(5)
K1 K 0.5000 1.0000 0.0000
N3 N 0.2257(2) 0.9470(2) 0.24592(19)
C7 C 0.1630(3) 0.8548(3) 0.3415(2)
C8 C 0.0841(3) 0.7384(3) 0.4654(2)
H3 H 0.1628 0.6307 0.4713
H4 H -0.0312 0.7194 0.4494
H5 H 0.0687 0.7881 0.5572
S1A S 0.70367(6) 0.97605(6) -0.70161(5)
S1A_2 S 0.70367(6) 0.97605(6) 0.29839(5)
S2A S 0.45859(6) 1.28008(6) -0.54488(5)
C1A C 0.7013(2) 1.1861(2) -0.7947(2)
C2A C 0.5897(2) 1.3261(2) -0.72266(19)
C3A C 0.8051(2) 1.2133(2) -0.9344(2)
H1A H 0.8769 1.1222 -0.9803
C4A C 0.5840(2) 1.4924(2) -0.7903(2)
H2A H 0.5126 1.5826 -0.7428
C5A C 0.6897(2) 1.5230(2) -0.9344(2)
N1A N 0.6990(2) 1.6764(2) -1.01777(17)
N1_2 N 0.3010(2) 1.3236(2) 0.01777(17)
N1A_2 N 0.6990(2) 0.6764(2) -0.01777(17)
C6A C 0.7997(2) 1.3835(2) -1.0065(2)
N2A N 0.8908(2) 1.4331(2) -1.14356(18)
S3A S 0.83678(6) 1.63906(6) -1.17237(5)
K1_2 K 0.5000 0.0000 0.0000
K1_3 K 0.5000 1.0000 -1.0000
K1_4 K 0.5000 2.0000 -1.0000
N3A N 0.7743(2) 1.0530(2) -0.24592(19)
C7A C 0.8370(3) 1.1452(3) -0.3415(2)
C8A C 0.9159(3) 1.2616(3) -0.4654(2)
H3A H 0.8372 1.3693 -0.4713
H4A H 1.0312 1.2806 -0.4494
H5A H 0.9313 1.2119 -0.5572
loop_
_geom_bond_atom_site_label_1
_geom_bond_atom_site_label_2
_geom_bond_site_symmetry_1
_geom_bond_site_symmetry_2
Cu1 S1 1_555 1_555
S1 C1 1_555 1_555
S2 Cu1 1_555 1_555
C1 C2 1_555 1_555
C2 S2 1_555 1_555
C3 C1 1_555 1_555
H1 C3 1_555 1_555
C4 C2 1_555 1_555
H2 C4 1_555 1_555
C5 C4 1_555 1_555
N1 C5 1_555 1_555
C6 C3 1_555 1_555
N2 C6 1_555 1_555
S3 N1 1_555 1_555
K1 S1 1_555 1_555
N3 K1 1_555 1_555
C7 N3 1_555 1_555
C8 C7 1_555 1_555
H3 C8 1_555 1_555
H4 C8 1_555 1_555
H5 C8 1_555 1_555
S1A Cu1 1_555 1_555
S1A_2 K1 1_555 1_555
S2A Cu1 1_555 1_555
C1A S1A 1_555 1_555
C2A S2A 1_555 1_555
C3A C1A 1_555 1_555
H1A C3A 1_555 1_555
C4A C2A 1_555 1_555
H2A C4A 1_555 1_555
C5A C4A 1_555 1_555
N1A C5A 1_555 1_555
N1_2 K1 1_555 1_555
N1A_2 K1 1_555 1_555
C6A C3A 1_555 1_555
N2A C6A 1_555 1_555
S3A N1A 1_555 1_555
K1_2 N1 1_555 1_555
K1_3 S1A 1_555 1_555
K1_4 N1A 1_555 1_555
N3A K1 1_555 1_555
C7A N3A 1_555 1_555
C8A C7A 1_555 1_555
H3A C8A 1_555 1_555
H4A C8A 1_555 1_555
H5A C8A 1_555 1_555
C5 C6 1_555 1_555
N2 S3 1_555 1_555
C1A C2A 1_555 1_555
C5A C6A 1_555 1_555
N2A S3A 1_555 1_555

#END
