
#######################################################################
#
#                 Cambridge Crystallographic Data Centre
#                                CCDC 
#
#######################################################################
#
# If this CIF has been generated from an entry in the Cambridge 
# Structural Database, then it will include bibliographic, chemical, 
# crystal, experimental, refinement or atomic coordinate data resulting 
# from the CCDC's data processing and validation procedures.
#
#######################################################################

data_MAPQIE
_symmetry_cell_setting           triclinic
_symmetry_space_group_name_H-M   'P -1'
_symmetry_Int_Tables_number      2
_space_group_name_Hall           '-P 1'
loop_
_symmetry_equiv_pos_site_id
_symmetry_equiv_pos_as_xyz
1 x,y,z
2 -x,-y,-z
_cell_length_a                   9.517(2)
_cell_length_b                   12.747(2)
_cell_length_c                   16.366(3)
_cell_angle_alpha                72.21(2)
_cell_angle_beta                 78.98(3)
_cell_angle_gamma                79.84(2)
_cell_volume                     1840.77
loop_
_atom_site_label
_atom_site_type_symbol
_atom_site_fract_x
_atom_site_fract_y
_atom_site_fract_z
Pr1 Pr 0.220226(18) 0.468436(14) 0.493668(11)
C1 C 0.0413(4) 0.6572(3) 0.2238(2)
C2 C -0.0769(4) 0.7154(3) 0.1857(2)
H1 H -0.1679 0.7184 0.2187
C3 C -0.0588(5) 0.7690(3) 0.0982(3)
C4 C 0.0715(5) 0.7706(4) 0.0441(3)
C5 C 0.1866(5) 0.7083(4) 0.0849(3)
C6 C 0.1736(4) 0.6537(3) 0.1727(2)
H2 H 0.2547 0.6145 0.1972
C7 C 0.0249(4) 0.5976(3) 0.3189(2)
C8 C 0.0869(7) 0.8393(5) -0.0498(3)
H3 H 0.0121 0.9013 -0.0571
H4 H 0.1794 0.8659 -0.0662
H5 H 0.0788 0.7943 -0.0858
C9 C 0.4670(4) 0.7737(3) 0.3374(2)
C10 C 0.3628(4) 0.7992(3) 0.2826(2)
H6 H 0.2940 0.7519 0.2913
C11 C 0.3632(4) 0.8957(3) 0.2155(2)
C12 C 0.4583(4) 0.9733(3) 0.1984(2)
C13 C 0.5573(4) 0.9435(3) 0.2570(2)
C14 C 0.5661(4) 0.8465(3) 0.3239(2)
H7 H 0.6374 0.8306 0.3591
C15 C 0.4700(4) 0.6671(3) 0.4092(2)
C16 C 0.4569(5) 1.0765(3) 0.1233(3)
H8 H 0.5129 1.1271 0.1318
H9 H 0.4977 1.0574 0.0706
H10 H 0.3594 1.1111 0.1195
C17 C -0.0440(4) 0.1877(3) 0.5421(2)
C18 C -0.1569(4) 0.1910(3) 0.4988(2)
H11 H -0.1862 0.2554 0.4572
C19 C -0.2258(4) 0.0973(3) 0.5181(2)
C20 C -0.1966(4) 0.0007(3) 0.5831(2)
C21 C -0.0834(4) 0.0040(3) 0.6249(2)
C22 C -0.0056(4) 0.0917(3) 0.6045(2)
H12 H 0.0726 0.0864 0.6327
C23 C 0.0398(4) 0.2842(3) 0.5207(2)
C24 C -0.2781(5) -0.0982(3) 0.6082(3)
H13 H -0.2484 -0.1386 0.5657
H14 H -0.3797 -0.0734 0.6110
H15 H -0.2580 -0.1456 0.6639
N1 N -0.1920(6) 0.8253(4) 0.0634(3)
N2 N 0.3309(5) 0.6932(4) 0.0353(3)
N3 N 0.2527(4) 0.9131(3) 0.1584(2)
N4 N 0.6649(4) 1.0189(3) 0.2474(2)
N5 N -0.3354(3) 0.1042(3) 0.4630(2)
N6 N -0.0410(4) -0.0942(3) 0.6969(2)
O1 O 0.1389(3) 0.5614(2) 0.35157(16)
O2 O -0.1008(3) 0.5898(2) 0.35799(16)
O3 O 0.3781(3) 0.6058(2) 0.41573(17)
O4 O 0.5644(3) 0.6464(2) 0.45769(16)
O5 O -0.0199(3) 0.38230(19) 0.48834(16)
O6 O 0.1669(3) 0.2660(2) 0.53537(19)
O7 O 0.3101(3) 0.5532(2) 0.59833(19)
O8 O 0.3606(3) 0.3765(2) 0.37902(17)
O11 O -0.2689(6) 0.8833(6) 0.0924(3)
O12 O -0.2121(7) 0.7995(5) -0.0005(4)
O13 O 0.4343(4) 0.6858(5) 0.0713(3)
O14 O 0.3406(5) 0.6880(4) -0.0380(3)
O15 O 0.2919(5) 0.9338(4) 0.0809(2)
O16 O 0.1294(3) 0.9025(3) 0.1929(2)
O17 O 0.6227(4) 1.1161(3) 0.2409(2)
O18 O 0.7907(4) 0.9773(3) 0.2472(2)
O19 O -0.4071(4) 0.1928(3) 0.4389(3)
O20 O -0.3449(4) 0.0220(3) 0.4426(2)
O21 O -0.1259(4) -0.1168(3) 0.7630(2)
O22 O 0.0768(4) -0.1449(3) 0.6850(2)
Pr1A Pr -0.220226(18) 0.531564(14) 0.506332(11)
Pr1A_2 Pr 0.779774(18) 0.531564(14) 0.506332(11)
O2A O 0.1008(3) 0.4102(2) 0.64201(16)
O4A O 0.4356(3) 0.3536(2) 0.54231(16)
O5A O 0.0199(3) 0.61770(19) 0.51166(16)
C25 C 0.3210(7) 0.3814(5) 1.1612(4)
H16 H 0.4211 0.3728 1.1560
H17 H 0.3183 0.4121 1.0328
H18 H -0.0665 0.4152 1.1808
H19 H 0.0505 0.3730 1.2986
C26 C 0.2592(8) 0.4053(5) 1.0868(4)
C27 C 0.1113(8) 0.4201(4) 1.0922(4)
C28 C 0.0329(7) 0.4062(4) 1.1733(4)
C29 C 0.1048(7) 0.3815(4) 1.2442(3)
C30 C 0.0386(11) 0.4499(6) 1.0112(5)
N7 N 0.2461(6) 0.3701(3) 1.2391(3)
C25A C -0.3210(7) 0.6186(5) 0.8388(4)
H16A H -0.4211 0.6272 0.8440
H17A H -0.3183 0.5879 0.9672
H18A H 0.0665 0.5848 0.8192
H19A H -0.0505 0.6270 0.7014
C26A C -0.2592(8) 0.5947(5) 0.9132(4)
C27A C -0.1113(8) 0.5799(4) 0.9078(4)
C28A C -0.0329(7) 0.5938(4) 0.8267(4)
C29A C -0.1048(7) 0.6185(4) 0.7558(3)
C30A C -0.0386(11) 0.5501(6) 0.9888(5)
N7A N -0.2461(6) 0.6299(3) 0.7609(3)
O9 O 0.3205(10) -0.3424(7) 0.7747(7)
O10 O -0.6320(9) 0.4466(6) 0.7736(5)
loop_
_geom_bond_atom_site_label_1
_geom_bond_atom_site_label_2
_geom_bond_site_symmetry_1
_geom_bond_site_symmetry_2
Pr1 O1 1_555 1_555
C1 C2 1_555 1_555
C2 H1 1_555 1_555
C3 C2 1_555 1_555
C4 C3 1_555 1_555
C5 C4 1_555 1_555
C6 C1 1_555 1_555
H2 C6 1_555 1_555
C7 C1 1_555 1_555
C8 C4 1_555 1_555
H3 C8 1_555 1_555
H4 C8 1_555 1_555
H5 C8 1_555 1_555
C9 C10 1_555 1_555
C10 H6 1_555 1_555
C11 C10 1_555 1_555
C12 C11 1_555 1_555
C13 C12 1_555 1_555
C14 C9 1_555 1_555
H7 C14 1_555 1_555
C15 C9 1_555 1_555
C16 C12 1_555 1_555
H8 C16 1_555 1_555
H9 C16 1_555 1_555
H10 C16 1_555 1_555
C17 C18 1_555 1_555
C18 H11 1_555 1_555
C19 C18 1_555 1_555
C20 C19 1_555 1_555
C21 C20 1_555 1_555
C22 C17 1_555 1_555
H12 C22 1_555 1_555
C23 C17 1_555 1_555
C24 C20 1_555 1_555
H13 C24 1_555 1_555
H14 C24 1_555 1_555
H15 C24 1_555 1_555
C25 H16 1_555 1_555
H17 C26 1_555 1_555
H18 C28 1_555 1_555
H19 C29 1_555 1_555
C26 C25 1_555 1_555
C27 C26 1_555 1_555
C28 C27 1_555 1_555
C29 C28 1_555 1_555
C30 C27 1_555 1_555
N1 C3 1_555 1_555
N2 C5 1_555 1_555
N3 C11 1_555 1_555
N4 C13 1_555 1_555
N5 C19 1_555 1_555
N6 C21 1_555 1_555
N7 C25 1_555 1_555
O1 C7 1_555 1_555
O2 C7 1_555 1_555
O3 Pr1 1_555 1_555
O4 C15 1_555 1_555
O5 Pr1 1_555 1_555
O6 Pr1 1_555 1_555
O7 Pr1 1_555 1_555
O8 Pr1 1_555 1_555
O11 N1 1_555 1_555
O12 N1 1_555 1_555
O13 N2 1_555 1_555
O14 N2 1_555 1_555
O15 N3 1_555 1_555
O16 N3 1_555 1_555
O17 N4 1_555 1_555
O18 N4 1_555 1_555
O19 N5 1_555 1_555
O20 N5 1_555 1_555
O21 N6 1_555 1_555
O22 N6 1_555 1_555
Pr1A O2 1_555 1_555
Pr1A_2 O4 1_555 1_555
C25A H16A 1_555 1_555
H17A C26A 1_555 1_555
H18A C28A 1_555 1_555
H19A C29A 1_555 1_555
C26A C25A 1_555 1_555
C27A C26A 1_555 1_555
C28A C27A 1_555 1_555
C29A C28A 1_555 1_555
C30A C30 1_555 1_555
N7A C25A 1_555 1_555
O2A Pr1 1_555 1_555
O4A Pr1 1_555 1_555
O5A Pr1 1_555 1_555
C5 C6 1_555 1_555
C13 C14 1_555 1_555
C15 O3 1_555 1_555
C21 C22 1_555 1_555
C23 O5 1_555 1_555
C23 O6 1_555 1_555
C29 N7 1_555 1_555
O5 Pr1A 1_555 1_555
Pr1A O5A 1_555 1_555
C27A C30A 1_555 1_555
C29A N7A 1_555 1_555

#END
