
#######################################################################
#
#                 Cambridge Crystallographic Data Centre
#                                CCDC 
#
#######################################################################
#
# If this CIF has been generated from an entry in the Cambridge 
# Structural Database, then it will include bibliographic, chemical, 
# crystal, experimental, refinement or atomic coordinate data resulting 
# from the CCDC's data processing and validation procedures.
#
#######################################################################

data_MAPREB
_symmetry_cell_setting           monoclinic
_symmetry_space_group_name_H-M   'P 21/n'
_symmetry_Int_Tables_number      14
_space_group_name_Hall           '-P 2yn'
loop_
_symmetry_equiv_pos_site_id
_symmetry_equiv_pos_as_xyz
1 x,y,z
2 1/2-x,1/2+y,1/2-z
3 -x,-y,-z
4 1/2+x,1/2-y,1/2+z
_cell_length_a                   7.6777(8)
_cell_length_b                   19.0226(19)
_cell_length_c                   15.2344(15)
_cell_angle_alpha                90
_cell_angle_beta                 97.407(2)
_cell_angle_gamma                90
_cell_volume                     2206.41
loop_
_atom_site_label
_atom_site_type_symbol
_atom_site_fract_x
_atom_site_fract_y
_atom_site_fract_z
Ni1 Ni 0.78641(5) 0.13655(2) 0.81712(3)
C1 C 0.5499(4) 0.12141(17) 0.6977(2)
C2 C 0.4050(4) 0.10786(17) 0.6247(2)
C3 C 0.2296(4) 0.11641(18) 0.6372(2)
H1 H 0.2011 0.1308 0.6919
C4 C 0.0982(5) 0.1035(2) 0.5684(3)
H2 H -0.0189 0.1101 0.5761
C5 C 0.1416(4) 0.08092(18) 0.4885(2)
C6 C 0.3123(5) 0.0706(2) 0.4759(2)
H3 H 0.3395 0.0540 0.4219
C7 C 0.4446(4) 0.0850(2) 0.5438(2)
H4 H 0.5613 0.0792 0.5349
C8 C -0.1092(4) 0.11481(18) 0.3905(2)
C9 C -0.2808(4) 0.09438(19) 0.3715(2)
H5 H -0.3120 0.0474 0.3763
C10 C -0.4075(5) 0.14455(19) 0.3449(2)
H6 H -0.5243 0.1309 0.3314
C11 C -0.3630(4) 0.21459(18) 0.3379(2)
C12 C -0.1870(4) 0.23355(19) 0.3519(2)
H7 H -0.1547 0.2800 0.3436
C13 C -0.0598(5) 0.18383(19) 0.3779(3)
H8 H 0.0582 0.1965 0.3869
C14 C -0.5013(4) 0.26944(19) 0.3213(2)
C15 C 0.8295(6) -0.0205(2) 0.7818(3)
H9 H 0.8528 -0.0085 0.7253
C16 C 0.8199(7) -0.0907(3) 0.8042(5)
H10 H 0.8353 -0.1254 0.7628
C17 C 0.7885(7) -0.1086(3) 0.8853(6)
H11 H 0.7822 -0.1559 0.9001
C18 C 0.7645(6) -0.0568(3) 0.9493(4)
C19 C 0.7310(8) -0.0683(4) 1.0397(6)
H12 H 0.7203 -0.1141 1.0594
C20 C 0.7154(8) -0.0165(5) 1.0944(5)
H13 H 0.6948 -0.0270 1.1518
C21 C 0.7288(6) 0.0557(3) 1.0697(3)
C22 C 0.7181(7) 0.1144(4) 1.1246(3)
H14 H 0.6986 0.1080 1.1831
C23 C 0.7359(8) 0.1800(4) 1.0934(3)
H15 H 0.7285 0.2187 1.1301
C24 C 0.7651(6) 0.1895(3) 1.0064(3)
H16 H 0.7774 0.2350 0.9857
C25 C 0.7593(4) 0.0700(2) 0.9818(3)
C26 C 0.7770(4) 0.0130(2) 0.9215(3)
N1 N 0.8062(4) 0.03057(17) 0.8392(2)
N2 N 0.7763(4) 0.13588(18) 0.9513(2)
O1 O 0.7068(3) 0.12265(14) 0.68108(16)
O2 O 0.5166(3) 0.12972(13) 0.77605(16)
O3 O 0.0132(3) 0.06358(13) 0.41839(18)
O4 O -0.4562(3) 0.33331(13) 0.31961(16)
O5 O -0.6625(3) 0.25275(13) 0.31397(17)
Ni1C Ni -0.71359(5) 0.36345(2) 0.31712(3)
O4C O 1.0438(3) 0.16669(13) 0.81961(16)
O5C O 0.8375(3) 0.24725(13) 0.81397(17)
O6 O 0.7364(17) -0.2650(4) 0.9277(8)
H17 H 0.7077 -0.2768 0.9777
H18 H 0.7508 -0.2962 0.8895
loop_
_geom_bond_atom_site_label_1
_geom_bond_atom_site_label_2
_geom_bond_site_symmetry_1
_geom_bond_site_symmetry_2
Ni1 N1 1_555 1_555
C1 C2 1_555 1_555
C2 C3 1_555 1_555
C3 H1 1_555 1_555
C4 C3 1_555 1_555
H2 C4 1_555 1_555
C5 C4 1_555 1_555
C6 C5 1_555 1_555
H3 C6 1_555 1_555
C7 C2 1_555 1_555
H4 C7 1_555 1_555
C8 C9 1_555 1_555
C9 H5 1_555 1_555
C10 C9 1_555 1_555
H6 C10 1_555 1_555
C11 C10 1_555 1_555
C12 C11 1_555 1_555
H7 C12 1_555 1_555
C13 C8 1_555 1_555
H8 C13 1_555 1_555
C14 C11 1_555 1_555
C15 H9 1_555 1_555
C16 C15 1_555 1_555
H10 C16 1_555 1_555
C17 C16 1_555 1_555
H11 C17 1_555 1_555
C18 C17 1_555 1_555
C19 C18 1_555 1_555
H12 C19 1_555 1_555
C20 C19 1_555 1_555
H13 C20 1_555 1_555
C21 C20 1_555 1_555
C22 C21 1_555 1_555
H14 C22 1_555 1_555
C23 C22 1_555 1_555
H15 C23 1_555 1_555
C24 C23 1_555 1_555
H16 C24 1_555 1_555
C25 C21 1_555 1_555
C26 C18 1_555 1_555
N1 C15 1_555 1_555
N2 Ni1 1_555 1_555
O1 Ni1 1_555 1_555
O2 Ni1 1_555 1_555
O3 C5 1_555 1_555
O4 C14 1_555 1_555
O5 C14 1_555 1_555
O6 H17 1_555 1_555
H18 O6 1_555 1_555
Ni1C O4 1_555 1_555
O4C Ni1 1_555 1_555
O5C Ni1 1_555 1_555
C1 O1 1_555 1_555
C1 O2 1_555 1_555
C6 C7 1_555 1_555
C8 O3 1_555 1_555
C12 C13 1_555 1_555
C24 N2 1_555 1_555
C25 C26 1_555 1_555
C25 N2 1_555 1_555
C26 N1 1_555 1_555
O5 Ni1C 1_555 1_555

#END
