
#######################################################################
#
#                 Cambridge Crystallographic Data Centre
#                                CCDC 
#
#######################################################################
#
# If this CIF has been generated from an entry in the Cambridge 
# Structural Database, then it will include bibliographic, chemical, 
# crystal, experimental, refinement or atomic coordinate data resulting 
# from the CCDC's data processing and validation procedures.
#
#######################################################################

data_MAPRIE
_symmetry_cell_setting           monoclinic
_symmetry_space_group_name_H-M   'P 21/n'
_symmetry_Int_Tables_number      14
_space_group_name_Hall           '-P 2yn'
loop_
_symmetry_equiv_pos_site_id
_symmetry_equiv_pos_as_xyz
1 x,y,z
2 1/2+x,1/2-y,1/2+z
3 -x,-y,-z
4 1/2-x,1/2+y,1/2-z
_cell_length_a                   7.3310(10)
_cell_length_b                   26.592(5)
_cell_length_c                   18.044(3)
_cell_angle_alpha                90
_cell_angle_beta                 97.516(3)
_cell_angle_gamma                90
_cell_volume                     3487.38
loop_
_atom_site_label
_atom_site_type_symbol
_atom_site_fract_x
_atom_site_fract_y
_atom_site_fract_z
Cl1 Cl -1.421(8) 0.519(3) -0.456(4)
Cl2 Cl -1.712(9) 0.483(2) -0.469(4)
C31 C -1.626(17) 0.522(5) -0.413(6)
H29 H -1.68642 0.55772 -0.41556
H30 H -1.61684 0.51607 -0.35858
Cl1B Cl -1.579(8) 0.481(3) -0.544(4)
Cl2B Cl -1.288(9) 0.517(2) -0.531(4)
C31B C -1.374(17) 0.478(5) -0.587(6)
H29B H -1.31358 0.44228 -0.58444
H30B H -1.38316 0.48393 -0.64142
Tl1 Tl -0.19732(14) 0.33574(4) -0.19629(5)
Tl2 Tl -0.72599(14) 0.30123(4) -0.11573(6)
Tl3 Tl -0.69347(15) 0.34913(5) -0.32894(6)
Tl4 Tl -0.54053(15) 0.20138(4) -0.24990(6)
O1 O -0.727(2) 0.2781(7) -0.2477(10)
N1 N -0.382(3) 0.3037(9) -0.3481(13)
N2 N -0.315(3) 0.2646(8) -0.3035(11)
C1 C -0.175(3) 0.2436(10) -0.3352(13)
C2 C -0.083(4) 0.1986(10) -0.3045(14)
C3 C -0.067(4) 0.1851(11) -0.2280(14)
C4 C 0.015(4) 0.1424(11) -0.2003(15)
C5 C 0.093(4) 0.1091(13) -0.2512(16)
C6 C 0.086(4) 0.1222(12) -0.3261(16)
C7 C 0.004(4) 0.1655(11) -0.3501(14)
C8 C -0.152(4) 0.2725(11) -0.3998(14)
C9 C -0.278(4) 0.3072(11) -0.4044(15)
C10 C -0.322(4) 0.3465(13) -0.4664(17)
N3 N -0.400(3) 0.2348(9) -0.1171(11)
N4 N -0.356(3) 0.2846(8) -0.1027(11)
C11 C -0.254(3) 0.2869(10) -0.0328(13)
C12 C -0.188(3) 0.3349(10) -0.0020(12)
C13 C -0.273(4) 0.3806(11) -0.0224(14)
C14 C -0.205(4) 0.4251(10) 0.0062(13)
C15 C -0.047(4) 0.4270(11) 0.0590(14)
C16 C 0.036(4) 0.3822(11) 0.0785(14)
C17 C -0.025(3) 0.3384(9) 0.0474(11)
C18 C -0.232(4) 0.2373(11) -0.0057(15)
C19 C -0.327(4) 0.2067(10) -0.0598(14)
C20 C -0.360(4) 0.1533(13) -0.0616(17)
N5 N -0.632(3) 0.3856(8) -0.1704(11)
N6 N -0.489(3) 0.3945(8) -0.2106(11)
C21 C -0.451(3) 0.4445(10) -0.2091(13)
C22 C -0.304(4) 0.4665(11) -0.2449(14)
C23 C -0.223(4) 0.4397(11) -0.2996(15)
C24 C -0.073(4) 0.4590(12) -0.3318(15)
C25 C -0.008(5) 0.5071(14) -0.3072(18)
C26 C -0.093(4) 0.5335(13) -0.2553(17)
C27 C -0.233(4) 0.5130(11) -0.2251(14)
C28 C -0.581(4) 0.4685(11) -0.1688(14)
C29 C -0.686(4) 0.4304(11) -0.1467(14)
C30 C -0.850(4) 0.4347(11) -0.1015(15)
H1 H -0.11504 0.20873 -0.19424
H2 H 0.02058 0.13399 -0.14749
H3 H 0.14863 0.07766 -0.23403
H4 H 0.14343 0.10030 -0.36079
H5 H 0.00275 0.17523 -0.40232
H6 H -0.06003 0.26743 -0.43394
H7 H -0.38338 0.38019 -0.05792
H8 H -0.26826 0.45592 -0.01012
H9 H -0.00018 0.45929 0.08016
H10 H 0.14154 0.38288 0.11640
H11 H 0.04641 0.30820 0.05885
H12 H -0.16422 0.22680 0.04259
H13 H -0.27172 0.40671 -0.31564
H14 H -0.01687 0.44041 -0.36859
H15 H 0.09618 0.52211 -0.32762
H16 H -0.04982 0.56703 -0.23919
H17 H -0.29171 0.53224 -0.18811
H18 H -0.58834 0.50467 -0.15910
H19 H -0.23725 0.34544 -0.50206
H20 H -0.31642 0.38026 -0.44510
H21 H -0.44375 0.34209 -0.49183
H22 H -0.31619 0.13801 -0.01402
H23 H -0.29501 0.13715 -0.09843
H24 H -0.48696 0.14593 -0.07333
H25 H -0.87504 0.46938 -0.09099
H26 H -0.82536 0.41734 -0.05503
H27 H -0.95934 0.42081 -0.12888
H28 H -0.85304 0.27360 -0.25440
Tl1_2 Tl -1.19732(14) 0.33574(4) -0.19629(5)
Tl2_2 Tl 0.27401(14) 0.30123(4) -0.11573(6)
loop_
_geom_bond_atom_site_label_1
_geom_bond_atom_site_label_2
_geom_bond_site_symmetry_1
_geom_bond_site_symmetry_2
Tl1 N1 1_555 1_555
Tl2 O1 1_555 1_555
Tl3 O1 1_555 1_555
Tl4 O1 1_555 1_555
O1 H28 1_555 1_555
N1 Tl3 1_555 1_555
N2 Tl1 1_555 1_555
C1 N2 1_555 1_555
C2 C1 1_555 1_555
C3 C2 1_555 1_555
C4 C3 1_555 1_555
C5 C4 1_555 1_555
C6 C5 1_555 1_555
C7 C2 1_555 1_555
C8 C1 1_555 1_555
C9 N1 1_555 1_555
C10 C9 1_555 1_555
N3 Tl2 1_555 1_555
N4 Tl1 1_555 1_555
C11 N4 1_555 1_555
C12 C11 1_555 1_555
C13 C12 1_555 1_555
C14 C13 1_555 1_555
C15 C14 1_555 1_555
C16 C15 1_555 1_555
C17 C12 1_555 1_555
C18 C11 1_555 1_555
C19 N3 1_555 1_555
C20 C19 1_555 1_555
N5 Tl2 1_555 1_555
N6 Tl1 1_555 1_555
C21 N6 1_555 1_555
C22 C21 1_555 1_555
C23 C22 1_555 1_555
C24 C23 1_555 1_555
C25 C24 1_555 1_555
C26 C25 1_555 1_555
C27 C22 1_555 1_555
C28 C21 1_555 1_555
C29 N5 1_555 1_555
C30 C29 1_555 1_555
Cl1 Cl2 1_555 1_555
Cl2 C31 1_555 1_555
C31 Cl1 1_555 1_555
H1 C3 1_555 1_555
H2 C4 1_555 1_555
H3 C5 1_555 1_555
H4 C6 1_555 1_555
H5 C7 1_555 1_555
H6 C8 1_555 1_555
H7 C13 1_555 1_555
H8 C14 1_555 1_555
H9 C15 1_555 1_555
H10 C16 1_555 1_555
H11 C17 1_555 1_555
H12 C18 1_555 1_555
H13 C23 1_555 1_555
H14 C24 1_555 1_555
H15 C25 1_555 1_555
H16 C26 1_555 1_555
H17 C27 1_555 1_555
H18 C28 1_555 1_555
H19 C10 1_555 1_555
H20 C10 1_555 1_555
H21 C10 1_555 1_555
H22 C20 1_555 1_555
H23 C20 1_555 1_555
H24 C20 1_555 1_555
H25 C30 1_555 1_555
H26 C30 1_555 1_555
H27 C30 1_555 1_555
H29 C31 1_555 1_555
H30 C31 1_555 1_555
Tl1_2 Tl2 1_555 1_555
Tl2_2 Tl1 1_555 1_555
Cl1B Cl1 1_555 1_555
Cl2B Cl1 1_555 1_555
C31B Cl1B 1_555 1_555
H29B C31B 1_555 1_555
H30B C31B 1_555 1_555
Tl2 N4 1_555 1_555
Tl3 N6 1_555 1_555
Tl3 N5 1_555 1_555
Tl4 N3 1_555 1_555
Tl4 N2 1_555 1_555
N1 N2 1_555 1_555
C6 C7 1_555 1_555
C8 C9 1_555 1_555
N3 N4 1_555 1_555
C16 C17 1_555 1_555
C18 C19 1_555 1_555
N5 N6 1_555 1_555
C26 C27 1_555 1_555
C28 C29 1_555 1_555
Cl2 Cl1B 1_555 1_555
Cl1B Cl2B 1_555 1_555
Cl2B C31B 1_555 1_555

#END
