
#######################################################################
#
#                 Cambridge Crystallographic Data Centre
#                                CCDC 
#
#######################################################################
#
# If this CIF has been generated from an entry in the Cambridge 
# Structural Database, then it will include bibliographic, chemical, 
# crystal, experimental, refinement or atomic coordinate data resulting 
# from the CCDC's data processing and validation procedures.
#
#######################################################################

data_MAPXEH
_symmetry_cell_setting           orthorhombic
_symmetry_space_group_name_H-M   'P b c n'
_symmetry_Int_Tables_number      60
_space_group_name_Hall           '-P 2n 2ab'
loop_
_symmetry_equiv_pos_site_id
_symmetry_equiv_pos_as_xyz
1 x,y,z
2 1/2-x,1/2-y,1/2+z
3 -x,y,1/2-z
4 1/2+x,1/2-y,-z
5 -x,-y,-z
6 1/2+x,1/2+y,1/2-z
7 x,-y,1/2+z
8 1/2-x,1/2+y,z
_cell_length_a                   8.482(5)
_cell_length_b                   5.991(3)
_cell_length_c                   28.950(16)
_cell_angle_alpha                90
_cell_angle_beta                 90
_cell_angle_gamma                90
_cell_volume                     1471.11
loop_
_atom_site_label
_atom_site_type_symbol
_atom_site_fract_x
_atom_site_fract_y
_atom_site_fract_z
S1 S 0.00276(5) -0.11801(7) 0.437670(13)
Na1 Na 0.31692(8) 0.13058(11) 0.51264(3)
O1 O 0.16445(14) -0.0657(2) 0.45096(4)
O2 O -0.05739(15) -0.3022(2) 0.46643(4)
O3 O -0.10467(17) 0.0718(2) 0.43781(5)
O4 O 0.0000 -0.5132(4) 0.2500
C1 C 0.0053(2) -0.2220(3) 0.38003(6)
C2 C 0.0870(3) -0.4188(4) 0.37115(6)
H1 H 0.1413 -0.4907 0.3948
C3 C 0.0869(3) -0.5075(4) 0.32668(7)
H2 H 0.1422 -0.6380 0.3204
C4 C 0.0042(3) -0.4008(3) 0.29197(6)
C5 C -0.0778(3) -0.2052(4) 0.30061(7)
H3 H -0.1328 -0.1344 0.2770
C6 C -0.0771(3) -0.1154(4) 0.34516(7)
H4 H -0.1318 0.0157 0.3514
S1B S -0.00276(5) -0.11801(7) 0.062330(13)
Na1B Na -0.31692(8) 0.13058(11) -0.01264(3)
Na1G Na 0.18308(8) -0.36942(11) 0.51264(3)
Na1D Na -0.31692(8) -0.13058(11) 0.48736(3)
Na1C Na -0.18308(8) -0.63058(11) 0.48736(3)
Na1C_2 Na -0.18308(8) 0.36942(11) 0.48736(3)
Na1E Na -0.18308(8) -0.36942(11) -0.01264(3)
Na1F Na 0.31692(8) -0.13058(11) 0.01264(3)
Na1A Na 0.18308(8) -0.63058(11) 0.01264(3)
Na1A_2 Na 0.18308(8) 0.36942(11) 0.01264(3)
O1B O -0.16445(14) -0.0657(2) 0.04904(4)
O1G O 0.33555(14) 0.4343(2) 0.45096(4)
O1E O -0.33555(14) 0.4343(2) 0.04904(4)
O2B O 0.05739(15) -0.3022(2) 0.03357(4)
O2G O 0.55739(15) 0.1978(2) 0.46643(4)
O2D O 0.05739(15) 0.3022(2) 0.53357(4)
O2C O 0.44261(15) -0.1978(2) 0.53357(4)
O2E O -0.55739(15) 0.1978(2) 0.03357(4)
O2F O -0.05739(15) 0.3022(2) -0.03357(4)
O2A O -0.44261(15) -0.1978(2) -0.03357(4)
O3B O 0.10467(17) 0.0718(2) 0.06219(5)
O3D O 0.10467(17) -0.0718(2) 0.56219(5)
O3C O 0.39533(17) 0.4282(2) 0.56219(5)
O3F O -0.10467(17) -0.0718(2) -0.06219(5)
O3A O -0.39533(17) 0.4282(2) -0.06219(5)
C1B C -0.0053(2) -0.2220(3) 0.11997(6)
C2B C -0.0870(3) -0.4188(4) 0.12885(6)
H1B H -0.1413 -0.4907 0.1052
C3B C -0.0869(3) -0.5075(4) 0.17332(7)
H2B H -0.1422 -0.6380 0.1796
C4B C -0.0042(3) -0.4008(3) 0.20803(6)
C5B C 0.0778(3) -0.2052(4) 0.19939(7)
H3B H 0.1328 -0.1344 0.2230
C6B C 0.0771(3) -0.1154(4) 0.15484(7)
H4B H 0.1318 0.0157 0.1486
loop_
_geom_bond_atom_site_label_1
_geom_bond_atom_site_label_2
_geom_bond_site_symmetry_1
_geom_bond_site_symmetry_2
S1 O1 1_555 1_555
Na1 O1 1_555 1_555
O1 Na1G 1_555 1_555
O2 S1 1_555 1_555
O3 S1 1_555 1_555
O4 C4 1_555 1_555
C1 S1 1_555 1_555
C2 C1 1_555 1_555
H1 C2 1_555 1_555
C3 C2 1_555 1_555
H2 C3 1_555 1_555
C4 C3 1_555 1_555
C5 C4 1_555 1_555
H3 C5 1_555 1_555
C6 C1 1_555 1_555
H4 C6 1_555 1_555
S1B O1B 1_555 1_555
Na1B O1B 1_555 1_555
Na1G O2 1_555 1_555
Na1D O2 1_555 1_555
Na1C O2 1_555 1_555
Na1C_2 O3 1_555 1_555
Na1E O1B 1_555 1_555
Na1F O2B 1_555 1_555
Na1A O2B 1_555 1_555
Na1A_2 O2F 1_555 1_555
O1G Na1 1_555 1_555
O1E Na1B 1_555 1_555
O2B S1B 1_555 1_555
O2G Na1 1_555 1_555
O2D Na1 1_555 1_555
O2C Na1 1_555 1_555
O2E Na1B 1_555 1_555
O2F Na1B 1_555 1_555
O2A Na1B 1_555 1_555
O3B S1B 1_555 1_555
O3D Na1 1_555 1_555
O3C Na1 1_555 1_555
O3F Na1B 1_555 1_555
O3A Na1B 1_555 1_555
C1B S1B 1_555 1_555
C2B C1B 1_555 1_555
H1B C2B 1_555 1_555
C3B C2B 1_555 1_555
H2B C3B 1_555 1_555
C4B O4 1_555 1_555
C5B C4B 1_555 1_555
H3B C5B 1_555 1_555
C6B C1B 1_555 1_555
H4B C6B 1_555 1_555
O3 Na1D 1_555 1_555
C5 C6 1_555 1_555
Na1G O2C 1_555 1_555
Na1G O3D 1_555 1_555
Na1C_2 O2D 1_555 1_555
Na1E O2B 1_555 1_555
Na1E O2A 1_555 1_555
Na1E O3F 1_555 1_555
Na1F O3B 1_555 1_555
Na1A_2 O3B 1_555 1_555
C3B C4B 1_555 1_555
C5B C6B 1_555 1_555

#END
