
#######################################################################
#
#                 Cambridge Crystallographic Data Centre
#                                CCDC 
#
#######################################################################
#
# If this CIF has been generated from an entry in the Cambridge 
# Structural Database, then it will include bibliographic, chemical, 
# crystal, experimental, refinement or atomic coordinate data resulting 
# from the CCDC's data processing and validation procedures.
#
#######################################################################

data_MAPZIN
_symmetry_cell_setting           triclinic
_symmetry_space_group_name_H-M   'P -1'
_symmetry_Int_Tables_number      2
_space_group_name_Hall           '-P 1'
loop_
_symmetry_equiv_pos_site_id
_symmetry_equiv_pos_as_xyz
1 x,y,z
2 -x,-y,-z
_cell_length_a                   9.491(4)
_cell_length_b                   10.759(4)
_cell_length_c                   15.026(6)
_cell_angle_alpha                74.520(6)
_cell_angle_beta                 83.059(6)
_cell_angle_gamma                84.896(6)
_cell_volume                     1465.28
loop_
_atom_site_label
_atom_site_type_symbol
_atom_site_fract_x
_atom_site_fract_y
_atom_site_fract_z
Cd1 Cd 0.0000 0.0000 0.0000
O1 O 0.4864(3) -0.0393(3) 0.23457(16)
N1 N 0.3364(3) 0.0341(3) 0.34446(17)
O2 O 0.2196(3) 0.0562(3) 0.48373(18)
O3 O 1.2060(3) -0.2291(3) 0.3538(2)
C1 C 0.1248(4) 0.0921(3) 0.2596(2)
N2 N -0.0002(3) 0.0373(4) 0.14728(19)
N3 N 1.2371(4) -0.3872(3) 0.2754(3)
N4 N 1.2256(3) -0.1071(3) 0.0251(2)
C2 C 1.2385(4) -0.1930(4) 0.1061(3)
H1 H 1.1580 -0.2073 0.1486
C3 C 0.4421(3) -0.0470(3) 0.3141(2)
C4 C 0.1125(4) 0.0820(3) 0.1715(2)
H2 H 0.1872 0.1079 0.1260
C5 C 0.2582(4) 0.1375(3) 0.2831(2)
H3 H 0.3187 0.1709 0.2264
H4 H 0.2330 0.2074 0.3128
C6 C 0.4877(4) -0.1416(3) 0.3999(2)
C7 C 1.3624(4) -0.2621(4) 0.1312(3)
C8 C 0.3079(4) 0.0001(4) 0.4411(2)
C9 C 1.0275(4) -0.3842(3) 0.3699(3)
C10 C 1.1640(4) -0.3199(3) 0.3352(3)
C11 C 0.4055(4) -0.1124(4) 0.4750(2)
C12 C 0.4231(5) -0.1867(5) 0.5651(2)
H5 H 0.3689 -0.1680 0.6163
C13 C 0.9190(4) -0.3562(4) 0.4303(3)
H6 H 0.9197 -0.2868 0.4561
O4 O 1.2014(6) -0.5610(3) 0.2210(3)
N5 N -0.1453(5) -0.2641(5) 0.1135(4)
C14 C 0.0107(4) 0.0532(5) 0.3263(3)
H7 H 0.0135 0.0590 0.3867
C15 C 1.3737(5) -0.3543(5) 0.2247(3)
H8 H 1.4265 -0.4328 0.2169
H9 H 1.4269 -0.3161 0.2609
C16 C -0.1054(4) 0.0066(6) 0.3028(3)
H10 H -0.1821 -0.0190 0.3469
C17 C 1.0270(6) -0.4857(4) 0.3298(4)
O5 O -0.1603(8) -0.1651(7) 0.0618(5)
C18 C -0.1069(4) -0.0017(6) 0.2134(3)
H11 H -0.1847 -0.0356 0.1981
C19 C 0.9155(8) -0.5657(5) 0.3516(5)
H12 H 0.9151 -0.6347 0.3253
O6 O -0.2245(6) -0.3316(6) 0.1704(4)
C20 C 1.4778(5) -0.2415(7) 0.0684(4)
H13 H 1.5632 -0.2885 0.0815
C21 C 1.1620(6) -0.4883(4) 0.2674(4)
C22 C 1.3408(5) -0.0840(7) -0.0340(3)
H14 H 1.3352 -0.0210 -0.0897
C23 C 1.4686(6) -0.1507(9) -0.0152(4)
H15 H 1.5480 -0.1347 -0.0585
O7 O 0.6969(4) -0.4225(4) 0.5183(3)
C24 C 0.5882(4) -0.2427(4) 0.4083(3)
H16 H 0.6420 -0.2620 0.3572
C25 C 0.6038(4) -0.3149(4) 0.4998(3)
C26 C 0.5232(5) -0.2880(5) 0.5751(3)
H17 H 0.5367 -0.3396 0.6343
C27 C 0.8065(5) -0.4373(4) 0.4513(4)
C28 C 0.8055(7) -0.5404(5) 0.4130(5)
H18 H 0.7292 -0.5933 0.4292
O8 O -0.0458(18) -0.3310(12) 0.1133(11)
Cd1_2 Cd 1.0000 0.0000 0.0000
Cd1_3 Cd -1.0000 0.0000 0.0000
O1A O -0.4864(3) 0.0393(3) -0.23457(16)
N1A N -0.3364(3) -0.0341(3) -0.34446(17)
O2A O -0.2196(3) -0.0562(3) -0.48373(18)
O3A O -1.2060(3) 0.2291(3) -0.3538(2)
C1A C -0.1248(4) -0.0921(3) -0.2596(2)
N2A N 0.0002(3) -0.0373(4) -0.14728(19)
N3A N -1.2371(4) 0.3872(3) -0.2754(3)
N4A N -1.2256(3) 0.1071(3) -0.0251(2)
N4_2 N 0.2256(3) -0.1071(3) 0.0251(2)
N4A_2 N -0.2256(3) 0.1071(3) -0.0251(2)
C2A C -1.2385(4) 0.1930(4) -0.1061(3)
H1A H -1.1580 0.2073 -0.1486
C3A C -0.4421(3) 0.0470(3) -0.3141(2)
C4A C -0.1125(4) -0.0820(3) -0.1715(2)
H2A H -0.1872 -0.1079 -0.1260
C5A C -0.2582(4) -0.1375(3) -0.2831(2)
H3A H -0.3187 -0.1709 -0.2264
H4A H -0.2330 -0.2074 -0.3128
C6A C -0.4877(4) 0.1416(3) -0.3999(2)
C7A C -1.3624(4) 0.2621(4) -0.1312(3)
C8A C -0.3079(4) -0.0001(4) -0.4411(2)
C9A C -1.0275(4) 0.3842(3) -0.3699(3)
C10A C -1.1640(4) 0.3199(3) -0.3352(3)
C11A C -0.4055(4) 0.1124(4) -0.4750(2)
C12A C -0.4231(5) 0.1867(5) -0.5651(2)
H5A H -0.3689 0.1680 -0.6163
C13A C -0.9190(4) 0.3562(4) -0.4303(3)
H6A H -0.9197 0.2868 -0.4561
O4A O -1.2014(6) 0.5610(3) -0.2210(3)
N5A N 0.1453(5) 0.2641(5) -0.1135(4)
C14A C -0.0107(4) -0.0532(5) -0.3263(3)
H7A H -0.0135 -0.0590 -0.3867
C15A C -1.3737(5) 0.3543(5) -0.2247(3)
H8A H -1.4265 0.4328 -0.2169
H9A H -1.4269 0.3161 -0.2609
C16A C 0.1054(4) -0.0066(6) -0.3028(3)
H10A H 0.1821 0.0190 -0.3469
C17A C -1.0270(6) 0.4857(4) -0.3298(4)
O5A O 0.1603(8) 0.1651(7) -0.0618(5)
C18A C 0.1069(4) 0.0017(6) -0.2134(3)
H11A H 0.1847 0.0356 -0.1981
C19A C -0.9155(8) 0.5657(5) -0.3516(5)
H12A H -0.9151 0.6347 -0.3253
O6A O 0.2245(6) 0.3316(6) -0.1704(4)
C20A C -1.4778(5) 0.2415(7) -0.0684(4)
H13A H -1.5632 0.2885 -0.0815
C21A C -1.1620(6) 0.4883(4) -0.2674(4)
C22A C -1.3408(5) 0.0840(7) 0.0340(3)
H14A H -1.3352 0.0210 0.0897
C23A C -1.4686(6) 0.1507(9) 0.0152(4)
H15A H -1.5480 0.1347 0.0585
O7A O -0.6969(4) 0.4225(4) -0.5183(3)
C24A C -0.5882(4) 0.2427(4) -0.4083(3)
H16A H -0.6420 0.2620 -0.3572
C25A C -0.6038(4) 0.3149(4) -0.4998(3)
C26A C -0.5232(5) 0.2880(5) -0.5751(3)
H17A H -0.5367 0.3396 -0.6343
C27A C -0.8065(5) 0.4373(4) -0.4513(4)
C28A C -0.8055(7) 0.5404(5) -0.4130(5)
H18A H -0.7292 0.5933 -0.4292
O8A O 0.0458(18) 0.3310(12) -0.1133(11)
O9 O 0.340(2) -0.3316(14) 0.8084(8)
C29 C 0.192(2) -0.418(2) 0.9497(13)
H19 H 0.0917 -0.4092 0.9448
H20 H 0.2139 -0.3727 0.9929
H21 H 0.2212 -0.5080 0.9713
C30 C 0.259(5) -0.370(2) 0.8692(17)
O10? O -0.1078(15) -0.1735(15) 0.1231(19)
O11? O -0.158(2) -0.241(2) 0.0268(10)
loop_
_geom_bond_atom_site_label_1
_geom_bond_atom_site_label_2
_geom_bond_site_symmetry_1
_geom_bond_site_symmetry_2
Cd1 N2 1_555 1_555
O1 C3 1_555 1_555
N1 C3 1_555 1_555
O2 C8 1_555 1_555
O3 C10 1_555 1_555
C1 C4 1_555 1_555
N2 C4 1_555 1_555
N3 C10 1_555 1_555
N4 C2 1_555 1_555
C2 H1 1_555 1_555
C3 C6 1_555 1_555
C4 H2 1_555 1_555
C5 N1 1_555 1_555
H3 C5 1_555 1_555
H4 C5 1_555 1_555
C6 C11 1_555 1_555
C7 C2 1_555 1_555
C8 N1 1_555 1_555
C9 C10 1_555 1_555
C11 C8 1_555 1_555
C12 C11 1_555 1_555
H5 C12 1_555 1_555
C13 C9 1_555 1_555
H6 C13 1_555 1_555
O4 C21 1_555 1_555
N5 O5 1_555 1_555
C14 C1 1_555 1_555
H7 C14 1_555 1_555
C15 N3 1_555 1_555
H8 C15 1_555 1_555
H9 C15 1_555 1_555
C16 C14 1_555 1_555
H10 C16 1_555 1_555
C17 C9 1_555 1_555
O5 Cd1 1_555 1_555
C18 N2 1_555 1_555
H11 C18 1_555 1_555
C19 C17 1_555 1_555
H12 C19 1_555 1_555
O6 N5 1_555 1_555
C20 C7 1_555 1_555
H13 C20 1_555 1_555
C21 N3 1_555 1_555
C22 N4 1_555 1_555
H14 C22 1_555 1_555
C23 C20 1_555 1_555
H15 C23 1_555 1_555
O7 C25 1_555 1_555
C24 C6 1_555 1_555
H16 C24 1_555 1_555
C25 C24 1_555 1_555
C26 C12 1_555 1_555
H17 C26 1_555 1_555
C27 C13 1_555 1_555
C28 C19 1_555 1_555
H18 C28 1_555 1_555
O8 N5 1_555 1_555
O9 C30 1_555 1_555
C29 H19 1_555 1_555
H20 C29 1_555 1_555
H21 C29 1_555 1_555
C30 C29 1_555 1_555
Cd1_2 N4 1_555 1_555
Cd1_3 N4A 1_555 1_555
O1A C3A 1_555 1_555
N1A C3A 1_555 1_555
O2A C8A 1_555 1_555
O3A C10A 1_555 1_555
C1A C4A 1_555 1_555
N2A Cd1 1_555 1_555
N3A C10A 1_555 1_555
N4A C2A 1_555 1_555
N4_2 Cd1 1_555 1_555
N4A_2 Cd1 1_555 1_555
C2A H1A 1_555 1_555
C3A C6A 1_555 1_555
C4A N2A 1_555 1_555
H2A C4A 1_555 1_555
C5A N1A 1_555 1_555
H3A C5A 1_555 1_555
H4A C5A 1_555 1_555
C6A C11A 1_555 1_555
C7A C2A 1_555 1_555
C8A N1A 1_555 1_555
C9A C10A 1_555 1_555
C11A C8A 1_555 1_555
C12A C11A 1_555 1_555
H5A C12A 1_555 1_555
C13A C9A 1_555 1_555
H6A C13A 1_555 1_555
O4A C21A 1_555 1_555
N5A O5A 1_555 1_555
C14A C1A 1_555 1_555
H7A C14A 1_555 1_555
C15A N3A 1_555 1_555
H8A C15A 1_555 1_555
H9A C15A 1_555 1_555
C16A C14A 1_555 1_555
H10A C16A 1_555 1_555
C17A C9A 1_555 1_555
O5A Cd1 1_555 1_555
C18A N2A 1_555 1_555
H11A C18A 1_555 1_555
C19A C17A 1_555 1_555
H12A C19A 1_555 1_555
O6A N5A 1_555 1_555
C20A C7A 1_555 1_555
H13A C20A 1_555 1_555
C21A N3A 1_555 1_555
C22A N4A 1_555 1_555
H14A C22A 1_555 1_555
C23A C20A 1_555 1_555
H15A C23A 1_555 1_555
O7A C25A 1_555 1_555
C24A C6A 1_555 1_555
H16A C24A 1_555 1_555
C25A C24A 1_555 1_555
C26A C12A 1_555 1_555
H17A C26A 1_555 1_555
C27A C13A 1_555 1_555
C28A C19A 1_555 1_555
H18A C28A 1_555 1_555
O8A N5A 1_555 1_555
C1 C5 1_555 1_555
C7 C15 1_555 1_555
C16 C18 1_555 1_555
C17 C21 1_555 1_555
C22 C23 1_555 1_555
O7 C27 1_555 1_555
C25 C26 1_555 1_555
C27 C28 1_555 1_555
C1A C5A 1_555 1_555
C7A C15A 1_555 1_555
C16A C18A 1_555 1_555
C17A C21A 1_555 1_555
C22A C23A 1_555 1_555
O7A C27A 1_555 1_555
C25A C26A 1_555 1_555
C27A C28A 1_555 1_555

#END
