
#######################################################################
#
#                 Cambridge Crystallographic Data Centre
#                                CCDC 
#
#######################################################################
#
# If this CIF has been generated from an entry in the Cambridge 
# Structural Database, then it will include bibliographic, chemical, 
# crystal, experimental, refinement or atomic coordinate data resulting 
# from the CCDC's data processing and validation procedures.
#
#######################################################################

data_MAPZEJ
_symmetry_cell_setting           monoclinic
_symmetry_space_group_name_H-M   'P 21/n'
_symmetry_Int_Tables_number      14
_space_group_name_Hall           '-P 2yn'
loop_
_symmetry_equiv_pos_site_id
_symmetry_equiv_pos_as_xyz
1 x,y,z
2 1/2-x,1/2+y,1/2-z
3 -x,-y,-z
4 1/2+x,1/2-y,1/2+z
_cell_length_a                   11.917(4)
_cell_length_b                   26.670(9)
_cell_length_c                   15.241(5)
_cell_angle_alpha                90.00
_cell_angle_beta                 112.694(6)
_cell_angle_gamma                90.00
_cell_volume                     4468.96
loop_
_atom_site_label
_atom_site_type_symbol
_atom_site_fract_x
_atom_site_fract_y
_atom_site_fract_z
Cd1 Cd 0.81301(3) 0.369506(12) 0.82492(2)
N1 N 0.7890(4) 0.43379(14) 0.9162(3)
O1 O 0.4459(4) 0.35827(16) 0.6828(3)
N2 N 0.5548(4) 0.36143(14) 0.7267(3)
O2 O 0.6095(4) 0.33414(13) 0.7980(3)
O3 O 0.6184(3) 0.39172(13) 0.7022(3)
O4 O 1.0280(4) 0.38955(16) 0.8640(3)
N3 N 0.6693(4) 0.80407(15) 1.7668(3)
O5 O 0.9005(4) 0.41995(16) 0.7348(3)
C1 C 0.7185(5) 0.42454(17) 0.9648(3)
H1 H 0.6820 0.3932 0.9579
O6 O 1.0945(4) 0.42990(18) 0.7713(3)
C2 C 0.6970(4) 0.45811(18) 1.0236(3)
N4 N 0.8886(4) 0.32343(14) 0.9660(3)
N5 N 1.0089(5) 0.41319(16) 0.7895(3)
C3 C 0.7513(5) 0.50408(19) 1.0334(4)
H2 H 0.7381 0.5282 1.0724
C4 C 0.9844(6) 0.2768(2) 1.1403(4)
H3 H 1.0165 0.2608 1.1990
C5 C 1.0320(4) 0.32125(17) 1.1270(3)
C6 C 0.5810(5) 0.77013(17) 1.7289(3)
H4 H 0.5277 0.7743 1.6660
C7 C 0.8246(5) 0.51446(18) 0.9860(4)
H5 H 0.8628 0.5455 0.9932
C8 C 0.9823(5) 0.34288(18) 1.0387(3)
H6 H 1.0157 0.3728 1.0288
C9 C 0.8428(5) 0.28026(18) 0.9808(4)
H7 H 0.7774 0.2662 0.9312
C10 C 0.8882(6) 0.2556(2) 1.0664(4)
H8 H 0.8549 0.2253 1.0744
N6 N 1.1064(4) 0.37144(14) 1.2745(3)
O7 O 0.7524(4) 0.38099(14) 1.2278(3)
C11 C 0.5650(4) 0.72916(16) 1.7786(3)
C12 C 1.1343(5) 0.3524(2) 1.3667(4)
O8 O 1.0302(4) 0.44395(15) 1.1924(3)
N7 N 0.6539(4) 0.45574(16) 1.1709(3)
C13 C 1.1389(5) 0.3463(2) 1.2035(4)
H9 H 1.2003 0.3212 1.2346
H10 H 1.1742 0.3705 1.1742
C14 C 0.7363(6) 0.7577(2) 1.9111(4)
H11 H 0.7908 0.7542 1.9738
C15 C 0.7126(5) 0.42063(19) 1.2414(4)
C16 C 0.6460(6) 0.72350(19) 1.8717(4)
H12 H 0.6387 0.6963 1.9074
C17 C 0.7457(6) 0.7977(2) 1.8567(4)
H13 H 0.8077 0.8209 1.8838
C18 C 0.8419(5) 0.47870(17) 0.9274(3)
H14 H 0.8917 0.4860 0.8948
C19 C 0.6106(5) 0.4439(2) 1.0701(4)
H15 H 0.5339 0.4611 1.0374
H16 H 0.5950 0.4082 1.0620
C20 C 1.0575(4) 0.41996(18) 1.2644(3)
O9 O 0.5544(4) 0.53074(16) 1.1596(3)
C21 C 1.0196(4) 0.47753(17) 1.4812(3)
C22 C 1.0131(5) 0.47421(18) 1.3885(3)
H17 H 0.9833 0.5009 1.3468
C23 C 1.0512(4) 0.43104(16) 1.3588(3)
C24 C 0.7524(5) 0.42270(18) 1.4211(4)
H18 H 0.7919 0.3919 1.4355
C25 C 1.0969(5) 0.39120(19) 1.4175(4)
C26 C 1.1053(6) 0.3928(2) 1.5101(4)
H19 H 1.1363 0.3658 1.5508
C27 C 0.6545(4) 0.48805(17) 1.3100(3)
C28 C 0.7122(4) 0.44173(17) 1.3307(4)
C29 C 0.6145(5) 0.4968(2) 1.2071(4)
N8 N 0.5144(4) 0.64868(14) 1.6962(3)
C30 C 0.6333(4) 0.51585(16) 1.3793(3)
H20 H 0.5937 0.5466 1.3646
C31 C 0.6725(4) 0.49660(16) 1.4708(3)
O10 O 1.1814(5) 0.31244(16) 1.3922(3)
C32 C 0.5175(5) 0.64522(17) 1.6065(3)
C33 C 0.7327(5) 0.45065(18) 1.4905(3)
H21 H 0.7606 0.4383 1.5523
C34 C 0.4660(5) 0.69186(17) 1.7290(4)
H22 H 0.4293 0.6807 1.7724
H23 H 0.4034 0.7078 1.6751
C35 C 1.0664(6) 0.4356(2) 1.5408(4)
H24 H 1.0711 0.4369 1.6032
O11 O 0.5712(4) 0.60061(14) 1.8322(2)
C36 C 0.5739(4) 0.59576(15) 1.6032(3)
C37 C 0.6016(4) 0.57268(16) 1.6906(3)
C38 C 0.5638(4) 0.60647(17) 1.7513(3)
O12 O 0.4791(4) 0.67704(13) 1.5455(3)
C39 C 0.6498(5) 0.52524(18) 1.7071(3)
H25 H 0.6668 0.5092 1.7650
C41 C 0.5971(4) 0.57271(15) 1.5308(3)
H27 H 0.5792 0.5888 1.4728
C42 C 0.6482(4) 0.52460(16) 1.5467(3)
C43 C 0.6722(5) 0.50221(18) 1.6346(3)
H28 H 0.7050 0.4701 1.6449
Cd1A Cd 0.68699(3) -0.130494(12) 1.67508(2)
Cd1A_2 Cd 0.68699(3) 0.869506(12) 1.67508(2)
Cd1B Cd 1.18699(3) 0.630494(12) 2.17508(2)
N1A N 0.7110(4) -0.06621(14) 1.5838(3)
O1A O 1.0541(4) -0.14173(16) 1.8172(3)
N2A N 0.9452(4) -0.13857(14) 1.7733(3)
O2A O 0.8905(4) -0.16586(13) 1.7020(3)
O3A O 0.8816(3) -0.10828(13) 1.7978(3)
O4A O 0.4720(4) -0.11045(16) 1.6360(3)
N3A N 0.8307(4) 0.30407(15) 0.7332(3)
N3_2 N 0.6693(4) -0.19593(15) 1.7668(3)
O5A O 0.5995(4) -0.08005(16) 1.7652(3)
C1A C 0.7815(5) -0.07546(17) 1.5352(3)
H1A H 0.8180 -0.1068 1.5421
O6A O 0.4055(4) -0.07010(18) 1.7287(3)
C2A C 0.8030(4) -0.04189(18) 1.4764(3)
N4B N 1.1114(4) 0.67657(14) 2.0340(3)
N4A N 0.6114(4) -0.17657(14) 1.5340(3)
N5A N 0.4911(5) -0.08681(16) 1.7105(3)
C3A C 0.7487(5) 0.00408(19) 1.4666(4)
H2A H 0.7619 0.0282 1.4276
C4B C 1.0156(6) 0.7232(2) 1.8597(4)
H3B H 0.9835 0.7392 1.8010
C5B C 0.9680(4) 0.67875(17) 1.8730(3)
C6A C 0.9190(5) 0.27013(17) 0.7711(3)
H4A H 0.9723 0.2743 0.8340
C7A C 0.6754(5) 0.01446(18) 1.5140(4)
H5A H 0.6372 0.0455 1.5068
C8B C 1.0177(5) 0.65712(18) 1.9613(3)
H6B H 0.9843 0.6272 1.9712
C9B C 1.1572(5) 0.71974(18) 2.0192(4)
H7B H 1.2226 0.7338 2.0688
C10B C 1.1118(6) 0.7444(2) 1.9336(4)
H8B H 1.1451 0.7747 1.9256
N6B N 0.8936(4) 0.62856(14) 1.7255(3)
O7A O 0.7476(4) -0.11901(14) 1.2722(3)
C11A C 0.9350(4) 0.22916(16) 0.7214(3)
C12B C 0.8657(5) 0.6476(2) 1.6333(4)
O8B O 0.9698(4) 0.55605(15) 1.8076(3)
N7A N 0.8461(4) -0.04426(16) 1.3291(3)
C13B C 0.8611(5) 0.6537(2) 1.7965(4)
H9B H 0.7997 0.6788 1.7654
H10B H 0.8258 0.6295 1.8258
C14A C 0.7637(6) 0.2577(2) 0.5889(4)
H11A H 0.7092 0.2542 0.5262
C15A C 0.7874(5) -0.07937(19) 1.2586(4)
C16A C 0.8540(6) 0.22350(19) 0.6283(4)
H12A H 0.8613 0.1963 0.5926
C17A C 0.7543(6) 0.2977(2) 0.6433(4)
H13A H 0.6923 0.3209 0.6162
C18A C 0.6581(5) -0.02130(17) 1.5726(3)
H14A H 0.6083 -0.0140 1.6052
C19A C 0.8894(5) -0.0561(2) 1.4299(4)
H15A H 0.9661 -0.0389 1.4626
H16A H 0.9050 -0.0918 1.4380
C20B C 0.9425(4) 0.58004(18) 1.7356(3)
O9A O 0.9456(4) 0.03074(16) 1.3404(3)
C21B C 0.9804(4) 0.52247(17) 1.5188(3)
C22B C 0.9869(5) 0.52579(18) 1.6115(3)
H17B H 1.0167 0.4991 1.6532
C23B C 0.9488(4) 0.56896(16) 1.6412(3)
C24A C 0.7476(5) -0.07730(18) 1.0789(4)
H18A H 0.7081 -0.1081 1.0645
C25B C 0.9031(5) 0.60880(19) 1.5825(4)
C26B C 0.8947(6) 0.6072(2) 1.4899(4)
H19B H 0.8637 0.6342 1.4492
C27A C 0.8455(4) -0.01195(17) 1.1900(3)
C28A C 0.7878(4) -0.05827(17) 1.1693(4)
C29A C 0.8855(5) -0.0032(2) 1.2929(4)
N8A N 0.9856(4) 0.14868(14) 0.8038(3)
C30A C 0.8667(4) 0.01585(16) 1.1207(3)
H20A H 0.9063 0.0466 1.1354
C31A C 0.8275(4) -0.00340(16) 1.0292(3)
O10B O 0.8186(5) 0.68756(16) 1.6078(3)
C32A C 0.9825(5) 0.14522(17) 0.8935(3)
C33A C 0.7673(5) -0.04935(18) 1.0095(3)
H21A H 0.7394 -0.0617 0.9477
C34A C 1.0340(5) 0.19186(17) 0.7710(4)
H22A H 1.0707 0.1807 0.7276
H23A H 1.0966 0.2078 0.8249
C35B C 0.9336(6) 0.5644(2) 1.4592(4)
H24B H 0.9289 0.5631 1.3968
O11A O 0.9288(4) 0.10061(14) 0.6678(2)
C36A C 0.9261(4) 0.09576(15) 0.8968(3)
C37A C 0.8984(4) 0.07268(16) 0.8094(3)
C38A C 0.9362(4) 0.10647(17) 0.7487(3)
O12A O 1.0209(4) 0.17704(13) 0.9545(3)
C39A C 0.8502(5) 0.02524(18) 0.7929(3)
H25A H 0.8332 0.0092 0.7350
C41A C 0.9029(4) 0.07271(15) 0.9692(3)
H27A H 0.9208 0.0888 1.0272
C42A C 0.8518(4) 0.02460(16) 0.9533(3)
C43A C 0.8278(5) 0.00221(18) 0.8654(3)
H28A H 0.7950 -0.0299 0.8551
Cl1 Cl 0.5322(5) 0.2902(2) 0.9862(5)
C40 C 0.3953(19) 0.2895(9) 0.8601(14)
H26 H 0.4206 0.3018 0.8099
Cl2 Cl 0.3660(4) 0.23091(17) 0.8492(4)
Cl3 Cl 0.3008(6) 0.3308(2) 0.8824(4)
loop_
_geom_bond_atom_site_label_1
_geom_bond_atom_site_label_2
_geom_bond_site_symmetry_1
_geom_bond_site_symmetry_2
Cd1 N1 1_555 1_555
N1 C1 1_555 1_555
O1 N2 1_555 1_555
N2 O2 1_555 1_555
O2 Cd1 1_555 1_555
O3 Cd1 1_555 1_555
O4 Cd1 1_555 1_555
N3 C6 1_555 1_555
O5 Cd1 1_555 1_555
C1 H1 1_555 1_555
O6 N5 1_555 1_555
C2 C1 1_555 1_555
N4 Cd1 1_555 1_555
N5 O4 1_555 1_555
C3 C2 1_555 1_555
H2 C3 1_555 1_555
C4 H3 1_555 1_555
C5 C4 1_555 1_555
C6 H4 1_555 1_555
C7 C3 1_555 1_555
H5 C7 1_555 1_555
C8 N4 1_555 1_555
H6 C8 1_555 1_555
C9 N4 1_555 1_555
H7 C9 1_555 1_555
C10 C4 1_555 1_555
H8 C10 1_555 1_555
N6 C12 1_555 1_555
O7 C15 1_555 1_555
C11 C6 1_555 1_555
C12 C25 1_555 1_555
O8 C20 1_555 1_555
N7 C15 1_555 1_555
C13 C5 1_555 1_555
H9 C13 1_555 1_555
H10 C13 1_555 1_555
C14 H11 1_555 1_555
C15 C28 1_555 1_555
C16 C11 1_555 1_555
H12 C16 1_555 1_555
C17 N3 1_555 1_555
H13 C17 1_555 1_555
C18 N1 1_555 1_555
H14 C18 1_555 1_555
C19 C2 1_555 1_555
H15 C19 1_555 1_555
H16 C19 1_555 1_555
C20 N6 1_555 1_555
O9 C29 1_555 1_555
C21 C22 1_555 1_555
C22 H17 1_555 1_555
C23 C20 1_555 1_555
C24 H18 1_555 1_555
C25 C23 1_555 1_555
C26 C25 1_555 1_555
H19 C26 1_555 1_555
C27 C28 1_555 1_555
C28 C24 1_555 1_555
C29 N7 1_555 1_555
N8 C32 1_555 1_555
C30 C27 1_555 1_555
H20 C30 1_555 1_555
C31 C30 1_555 1_555
O10 C12 1_555 1_555
C32 C36 1_555 1_555
C33 C24 1_555 1_555
H21 C33 1_555 1_555
C34 C11 1_555 1_555
H22 C34 1_555 1_555
H23 C34 1_555 1_555
C35 C21 1_555 1_555
H24 C35 1_555 1_555
O11 C38 1_555 1_555
C36 C37 1_555 1_555
C37 C38 1_555 1_555
C38 N8 1_555 1_555
O12 C32 1_555 1_555
C39 C37 1_555 1_555
H25 C39 1_555 1_555
Cl1 C40 1_555 1_555
C40 H26 1_555 1_555
C41 C36 1_555 1_555
H27 C41 1_555 1_555
C42 C31 1_555 1_555
C43 C39 1_555 1_555
H28 C43 1_555 1_555
Cl2 C40 1_555 1_555
Cl3 C40 1_555 1_555
Cd1A N1A 1_555 1_555
Cd1A_2 N3 1_555 1_555
Cd1B N4B 1_555 1_555
N1A C1A 1_555 1_555
O1A N2A 1_555 1_555
N2A O2A 1_555 1_555
O2A Cd1A 1_555 1_555
O3A Cd1A 1_555 1_555
O4A Cd1A 1_555 1_555
N3A Cd1 1_555 1_555
N3_2 Cd1A 1_555 1_555
O5A Cd1A 1_555 1_555
C1A H1A 1_555 1_555
O6A N5A 1_555 1_555
C2A C1A 1_555 1_555
N4B C8B 1_555 1_555
N4A Cd1A 1_555 1_555
N5A O4A 1_555 1_555
C3A C2A 1_555 1_555
H2A C3A 1_555 1_555
C4B H3B 1_555 1_555
C5B C4B 1_555 1_555
C6A N3A 1_555 1_555
H4A C6A 1_555 1_555
C7A C3A 1_555 1_555
H5A C7A 1_555 1_555
C8B C5B 1_555 1_555
H6B C8B 1_555 1_555
C9B N4B 1_555 1_555
H7B C9B 1_555 1_555
C10B C4B 1_555 1_555
H8B C10B 1_555 1_555
N6B C12B 1_555 1_555
O7A C15A 1_555 1_555
C11A C6A 1_555 1_555
C12B C25B 1_555 1_555
O8B C20B 1_555 1_555
N7A C15A 1_555 1_555
C13B C5B 1_555 1_555
H9B C13B 1_555 1_555
H10B C13B 1_555 1_555
C14A H11A 1_555 1_555
C15A C28A 1_555 1_555
C16A C11A 1_555 1_555
H12A C16A 1_555 1_555
C17A N3A 1_555 1_555
H13A C17A 1_555 1_555
C18A N1A 1_555 1_555
H14A C18A 1_555 1_555
C19A C2A 1_555 1_555
H15A C19A 1_555 1_555
H16A C19A 1_555 1_555
C20B N6B 1_555 1_555
O9A C29A 1_555 1_555
C21B C21 1_555 1_555
C22B C21B 1_555 1_555
H17B C22B 1_555 1_555
C23B C20B 1_555 1_555
C24A H18A 1_555 1_555
C25B C23B 1_555 1_555
C26B C25B 1_555 1_555
H19B C26B 1_555 1_555
C27A C28A 1_555 1_555
C28A C24A 1_555 1_555
C29A N7A 1_555 1_555
N8A C32A 1_555 1_555
C30A C27A 1_555 1_555
H20A C30A 1_555 1_555
C31A C30A 1_555 1_555
O10B C12B 1_555 1_555
C32A C36A 1_555 1_555
C33A C24A 1_555 1_555
H21A C33A 1_555 1_555
C34A C11A 1_555 1_555
H22A C34A 1_555 1_555
H23A C34A 1_555 1_555
C35B C21B 1_555 1_555
H24B C35B 1_555 1_555
O11A C38A 1_555 1_555
C36A C37A 1_555 1_555
C37A C38A 1_555 1_555
C38A N8A 1_555 1_555
O12A C32A 1_555 1_555
C39A C37A 1_555 1_555
H25A C39A 1_555 1_555
C41A C36A 1_555 1_555
H27A C41A 1_555 1_555
C42A C31A 1_555 1_555
C43A C39A 1_555 1_555
H28A C43A 1_555 1_555
N2 O3 1_555 1_555
O5 N5 1_555 1_555
C5 C8 1_555 1_555
C7 C18 1_555 1_555
C9 C10 1_555 1_555
N6 C13 1_555 1_555
N7 C19 1_555 1_555
C14 C16 1_555 1_555
C14 C17 1_555 1_555
C22 C23 1_555 1_555
C26 C35 1_555 1_555
C27 C29 1_555 1_555
N8 C34 1_555 1_555
C31 C33 1_555 1_555
C41 C42 1_555 1_555
C42 C43 1_555 1_555
N2A O3A 1_555 1_555
O5A N5A 1_555 1_555
C7A C18A 1_555 1_555
C9B C10B 1_555 1_555
N6B C13B 1_555 1_555
N7A C19A 1_555 1_555
C14A C16A 1_555 1_555
C14A C17A 1_555 1_555
C22B C23B 1_555 1_555
C26B C35B 1_555 1_555
C27A C29A 1_555 1_555
N8A C34A 1_555 1_555
C31A C33A 1_555 1_555
C41A C42A 1_555 1_555
C42A C43A 1_555 1_555

#END
