
#######################################################################
#
#                 Cambridge Crystallographic Data Centre
#                                CCDC 
#
#######################################################################
#
# If this CIF has been generated from an entry in the Cambridge 
# Structural Database, then it will include bibliographic, chemical, 
# crystal, experimental, refinement or atomic coordinate data resulting 
# from the CCDC's data processing and validation procedures.
#
#######################################################################

data_MAQDUE
_symmetry_cell_setting           triclinic
_symmetry_space_group_name_H-M   'P -1'
_symmetry_Int_Tables_number      2
_space_group_name_Hall           '-P 1'
loop_
_symmetry_equiv_pos_site_id
_symmetry_equiv_pos_as_xyz
1 x,y,z
2 -x,-y,-z
_cell_length_a                   7.0802(7)
_cell_length_b                   9.2231(9)
_cell_length_c                   17.2465(16)
_cell_angle_alpha                91.588(2)
_cell_angle_beta                 98.560(2)
_cell_angle_gamma                97.089(2)
_cell_volume                     1103.94
loop_
_atom_site_label
_atom_site_type_symbol
_atom_site_fract_x
_atom_site_fract_y
_atom_site_fract_z
Cd1 Cd 0.71998(11) 0.12447(8) 0.38631(4)
O1 O 0.4487(10) 0.1599(7) 0.4384(4)
O2 O 0.2628(10) 0.2934(7) 0.4954(4)
O3 O 0.2026(10) -0.1293(7) 0.3634(4)
O4 O 0.0119(9) 0.0350(8) 0.3900(4)
O5 O 0.8718(10) 0.2489(7) 0.4981(4)
O6 O 0.5934(9) -0.1136(7) 0.3867(4)
N1 N 0.7547(11) 0.3516(8) 0.3262(4)
N2 N 0.6695(11) 0.0846(8) 0.2472(5)
C1 C 0.3308(14) 0.2509(10) 0.4364(5)
C2 C 0.1321(13) -0.0131(10) 0.3515(5)
C3 C 0.2315(13) 0.3014(10) 0.2146(5)
C4 C 0.7782(13) 0.4727(10) 0.2022(6)
O7 O 0.2411(12) 0.4457(8) 0.0715(4)
C5 C 0.2758(12) 0.3175(10) 0.3588(5)
C6 C 0.7054(13) 0.2040(10) 0.2043(5)
C7 C 0.7474(13) 0.3453(10) 0.2466(5)
C8 C 0.2994(14) 0.4675(11) 0.3562(6)
H1 H 0.3205 0.5249 0.4040
C9 C 0.2289(13) 0.2308(10) 0.2865(5)
C10 C 0.2047(14) 0.2185(11) 0.1423(6)
C11 C 0.1787(13) 0.0727(10) 0.2815(6)
C12 C 0.2933(14) 0.5382(12) 0.2854(6)
H2 H 0.3086 0.6420 0.2856
C13 C 0.7709(15) 0.4564(12) 0.1191(6)
H3 H 0.7924 0.5413 0.0901
C14 C 0.1567(14) -0.0030(11) 0.2110(6)
H4 H 0.1343 -0.1067 0.2104
C15 C 0.8166(15) 0.6076(11) 0.2448(7)
H5 H 0.8383 0.6955 0.2182
C16 C 0.2653(14) 0.4575(10) 0.2154(6)
C17 C 0.8228(15) 0.6132(10) 0.3244(6)
H6 H 0.8486 0.7047 0.3531
C18 C 0.6292(15) -0.0473(11) 0.2094(6)
H7 H 0.6003 -0.1309 0.2386
C19 C 0.6666(16) 0.0527(12) 0.0852(6)
H8 H 0.6687 0.0406 0.0305
C20 C 0.7347(16) 0.3249(12) 0.0809(6)
H9 H 0.7298 0.3185 0.0256
C21 C 0.7908(16) 0.4830(12) 0.3634(6)
H10 H 0.7951 0.4888 0.4187
C22 C 0.7035(14) 0.1948(12) 0.1224(5)
C23 C 0.6284(15) -0.0661(12) 0.1279(6)
H11 H 0.6013 -0.1612 0.1030
C24 C 0.1655(8) 0.0662(6) 0.1362(3)
H12 H 0.1462 0.0119 0.0875
C25 C 0.2607(8) 0.5198(6) 0.1385(3)
C26 C 0.2118(8) 0.2923(6) 0.0720(3)
O8 O 0.2904(8) 0.6728(6) 0.1368(3)
O9 O 0.1858(16) 0.2360(9) 0.0043(5)
H13 H 0.9418 0.3322 0.5100
H14 H 0.8324 0.2207 0.5403
H15 H 0.5064 -0.1439 0.4140
H16 H 0.5919 -0.1819 0.3513
Cd1_2 Cd -0.28002(11) 0.12447(8) 0.38631(4)
O4_2 O 1.0119(9) 0.0350(8) 0.3900(4)
loop_
_geom_bond_atom_site_label_1
_geom_bond_atom_site_label_2
_geom_bond_site_symmetry_1
_geom_bond_site_symmetry_2
Cd1 O1 1_555 1_555
O1 C1 1_555 1_555
O2 C1 1_555 1_555
O3 C2 1_555 1_555
O4 C2 1_555 1_555
O5 Cd1 1_555 1_555
O6 Cd1 1_555 1_555
N1 Cd1 1_555 1_555
N2 Cd1 1_555 1_555
C1 C5 1_555 1_555
C2 C11 1_555 1_555
C3 C9 1_555 1_555
C4 C7 1_555 1_555
O7 C25 1_555 1_555
C5 C8 1_555 1_555
C6 N2 1_555 1_555
C7 N1 1_555 1_555
C8 H1 1_555 1_555
C9 C5 1_555 1_555
C10 C3 1_555 1_555
C11 C9 1_555 1_555
C12 C8 1_555 1_555
H2 C12 1_555 1_555
C13 C4 1_555 1_555
H3 C13 1_555 1_555
C14 C11 1_555 1_555
H4 C14 1_555 1_555
C15 C4 1_555 1_555
H5 C15 1_555 1_555
C16 C3 1_555 1_555
C17 C15 1_555 1_555
H6 C17 1_555 1_555
C18 N2 1_555 1_555
H7 C18 1_555 1_555
C19 H8 1_555 1_555
C20 C13 1_555 1_555
H9 C20 1_555 1_555
C21 N1 1_555 1_555
H10 C21 1_555 1_555
C22 C6 1_555 1_555
C23 C18 1_555 1_555
H11 C23 1_555 1_555
C24 C10 1_555 1_555
H12 C24 1_555 1_555
C25 C16 1_555 1_555
C26 O7 1_555 1_555
O8 C25 1_555 1_555
O9 C26 1_555 1_555
H13 O5 1_555 1_555
H14 O5 1_555 1_555
H15 O6 1_555 1_555
H16 O6 1_555 1_555
Cd1_2 O4 1_555 1_555
O4_2 Cd1 1_555 1_555
C6 C7 1_555 1_555
C10 C26 1_555 1_555
C12 C16 1_555 1_555
C14 C24 1_555 1_555
C17 C21 1_555 1_555
C19 C22 1_555 1_555
C19 C23 1_555 1_555
C20 C22 1_555 1_555

#END
