
#######################################################################
#
#                 Cambridge Crystallographic Data Centre
#                                CCDC 
#
#######################################################################
#
# If this CIF has been generated from an entry in the Cambridge 
# Structural Database, then it will include bibliographic, chemical, 
# crystal, experimental, refinement or atomic coordinate data resulting 
# from the CCDC's data processing and validation procedures.
#
#######################################################################

data_MAQDEO
_symmetry_cell_setting           triclinic
_symmetry_space_group_name_H-M   'P -1'
_symmetry_Int_Tables_number      2
_space_group_name_Hall           '-P 1'
loop_
_symmetry_equiv_pos_site_id
_symmetry_equiv_pos_as_xyz
1 x,y,z
2 -x,-y,-z
_cell_length_a                   8.5758(17)
_cell_length_b                   8.7857(18)
_cell_length_c                   13.496(3)
_cell_angle_alpha                72.82(3)
_cell_angle_beta                 88.87(3)
_cell_angle_gamma                66.05(3)
_cell_volume                     881.97
loop_
_atom_site_label
_atom_site_type_symbol
_atom_site_fract_x
_atom_site_fract_y
_atom_site_fract_z
Ni1 Ni 0.47309(4) 0.38594(5) 0.36976(3)
Ni2 Ni 0.07081(4) 1.21553(4) 0.18519(3)
O1 O 0.3152(2) 0.8704(3) 0.12818(17)
O2 O 0.3161(2) 1.0082(2) 0.24353(15)
O3 O 0.8062(2) 0.3736(3) 0.15149(15)
O4 O -0.0097(3) 1.0193(3) 0.16500(17)
O5 O 0.8678(2) 0.7242(3) -0.03729(14)
O6 O 1.1808(2) 0.3691(3) 0.22050(16)
O7 O 0.9865(2) 0.1749(3) 0.33839(15)
O8 O 0.4506(2) 0.6243(2) 0.39131(14)
O9 O 0.6151(3) 0.6802(3) 0.48754(15)
O10 O 1.2184(2) 0.5293(3) 0.31009(16)
O11 O 0.5053(3) 0.1372(3) 0.3588(2)
O12 O 0.5632(2) 0.4373(3) 0.22561(15)
O13 O 0.7457(2) 0.2607(3) 0.41485(14)
O14 O 1.0827(2) 0.7376(3) 0.04599(15)
C1 C 0.8518(3) 0.7142(3) 0.13850(18)
C2 C 0.6749(3) 0.8097(3) 0.12735(19)
H1 H 0.6175 0.8795 0.0612
C3 C 0.5820(3) 0.8034(3) 0.21253(19)
C4 C 0.6676(3) 0.7010(3) 0.31219(19)
C5 C 0.8462(3) 0.6098(3) 0.32451(19)
H2 H 0.9045 0.5458 0.3911
C6 C 0.3890(3) 0.9002(3) 0.19352(19)
C7 C 0.9447(3) 0.7246(3) 0.04206(19)
C8 C 1.1269(3) 0.4950(3) 0.25629(18)
C9 C 0.9379(3) 0.6135(3) 0.23831(19)
C10 C 0.5696(3) 0.6668(3) 0.40371(19)
C11 C 0.7233(3) 0.3650(3) 0.22826(19)
C12 C 0.8271(3) 0.2570(3) 0.33733(19)
Ni1A Ni 0.52691(4) 0.61406(5) 0.63024(3)
Ni1_2 Ni 1.47309(4) 0.38594(5) 0.36976(3)
Ni2_2 Ni 1.07081(4) 0.21553(4) 0.18519(3)
Ni2A Ni 0.92919(4) 0.78447(4) -0.18519(3)
O3_2 O -0.1938(2) 1.3736(3) 0.15149(15)
O5A O 0.1322(2) 1.2758(3) 0.03729(14)
O6_2 O 0.1808(2) 1.3691(3) 0.22050(16)
O7_2 O -0.0135(2) 1.1749(3) 0.33839(15)
O9A O 0.3849(3) 0.3198(3) 0.51246(15)
O10_2 O 0.2184(2) 0.5293(3) 0.31009(16)
O15 O 0.1730(3) 0.1538(4) 0.5216(2)
O16 O 0.4289(3) 0.3436(4) 0.0545(2)
Na1 Na -0.37388(15) 0.36873(16) -0.06989(10)
K1 K 0.11535(8) 0.81282(8) 0.38005(5)
loop_
_geom_bond_atom_site_label_1
_geom_bond_atom_site_label_2
_geom_bond_site_symmetry_1
_geom_bond_site_symmetry_2
Ni1 O8 1_555 1_555
Ni2 O2 1_555 1_555
O1 C6 1_555 1_555
O2 C6 1_555 1_555
O3 C11 1_555 1_555
O4 Ni2 1_555 1_555
O5 C7 1_555 1_555
O6 C8 1_555 1_555
O7 C12 1_555 1_555
O8 C10 1_555 1_555
O9 C10 1_555 1_555
O10 C8 1_555 1_555
O11 Ni1 1_555 1_555
O12 Ni1 1_555 1_555
O13 Ni1 1_555 1_555
O14 C7 1_555 1_555
C1 C2 1_555 1_555
C2 H1 1_555 1_555
C3 C2 1_555 1_555
C4 C3 1_555 1_555
C5 C4 1_555 1_555
H2 C5 1_555 1_555
C6 C3 1_555 1_555
C7 C1 1_555 1_555
C8 C9 1_555 1_555
C9 C1 1_555 1_555
C10 C4 1_555 1_555
C11 O12 1_555 1_555
C12 O13 1_555 1_555
Ni1A O9 1_555 1_555
Ni1_2 O10 1_555 1_555
Ni2_2 O3 1_555 1_555
Ni2A O5 1_555 1_555
O3_2 Ni2 1_555 1_555
O5A Ni2 1_555 1_555
O6_2 Ni2 1_555 1_555
O7_2 Ni2 1_555 1_555
O9A Ni1 1_555 1_555
O10_2 Ni1 1_555 1_555
O6 Ni2_2 1_555 1_555
O7 Ni2_2 1_555 1_555
C5 C9 1_555 1_555
C11 C12 1_555 1_555

#END
