
#######################################################################
#
#                 Cambridge Crystallographic Data Centre
#                                CCDC 
#
#######################################################################
#
# If this CIF has been generated from an entry in the Cambridge 
# Structural Database, then it will include bibliographic, chemical, 
# crystal, experimental, refinement or atomic coordinate data resulting 
# from the CCDC's data processing and validation procedures.
#
#######################################################################

data_MAQDIS
_symmetry_cell_setting           triclinic
_symmetry_space_group_name_H-M   'P -1'
_symmetry_Int_Tables_number      2
_space_group_name_Hall           '-P 1'
loop_
_symmetry_equiv_pos_site_id
_symmetry_equiv_pos_as_xyz
1 x,y,z
2 -x,-y,-z
_cell_length_a                   8.5944(17)
_cell_length_b                   8.7911(18)
_cell_length_c                   13.495(3)
_cell_angle_alpha                72.74(3)
_cell_angle_beta                 88.79(3)
_cell_angle_gamma                66.04(3)
_cell_volume                     883.998
loop_
_atom_site_label
_atom_site_type_symbol
_atom_site_fract_x
_atom_site_fract_y
_atom_site_fract_z
Co1 Co 0.92914(3) 0.78438(4) 0.81469(2)
Co2 Co -0.47315(3) 1.61401(4) 0.63027(2)
O1 O 0.6845(2) 1.1297(2) 0.87163(14)
O2 O -0.0829(2) 1.2622(2) 0.95397(13)
O3 O -0.5054(3) 1.8628(2) 0.64102(17)
O4 O 1.0094(2) 0.9807(2) 0.83485(14)
O5 O 0.68370(19) 0.9917(2) 0.75641(12)
O6 O -0.21843(19) 1.4705(2) 0.69001(13)
O7 O 1.1936(2) 0.6264(2) 0.84838(12)
O8 O -0.18112(19) 1.6308(2) 0.77945(13)
O9 O 0.1320(2) 1.2757(2) 1.03729(12)
O10 O 0.3848(2) 1.3196(2) 0.51242(12)
O11 O 0.54970(18) 1.3755(2) 0.60874(12)
O12 O 1.43685(19) 0.5626(2) 0.77449(12)
O13 O 1.01334(19) 0.8251(2) 0.66138(12)
O14 O 1.25411(19) 0.7396(2) 0.58497(12)
C1 C -0.1269(2) 1.5042(3) 0.74407(15)
C2 C 0.0550(3) 1.2755(3) 0.95797(16)
C3 C 0.1537(3) 1.3900(3) 0.67547(15)
H1 H 0.0957 1.4539 0.6088
C4 C 0.0622(2) 1.3860(3) 0.76152(15)
C5 C 0.4302(3) 1.3330(3) 0.59632(15)
C6 C 0.3250(3) 1.1898(3) 0.87275(16)
H2 H 0.3822 1.1195 0.9389
C7 C 0.3318(3) 1.2990(3) 0.68790(15)
C8 C 0.1480(3) 1.2858(3) 0.86158(15)
C9 C 0.4178(3) 1.1966(3) 0.78757(16)
C10 C 0.6109(3) 1.0994(3) 0.80674(16)
C11 C 1.1729(3) 0.7434(3) 0.66239(16)
C12 C 1.2765(3) 0.6349(3) 0.77189(16)
Co1_2 Co -0.07086(3) 1.78438(4) 0.81469(2)
Co1A Co 0.07086(3) 1.21562(4) 1.18531(2)
Co2A Co 0.47315(3) 1.38599(4) 0.36973(2)
Co2_2 Co 0.52685(3) 1.61401(4) 0.63027(2)
Co2_3 Co 1.52685(3) 0.61401(4) 0.63027(2)
O8_2 O 0.81888(19) 0.6308(2) 0.77945(13)
O9A O 0.8680(2) 0.7243(2) 0.96271(12)
O10A O -0.3848(2) 1.6804(2) 0.48758(12)
O11_2 O -0.45030(18) 1.3755(2) 0.60874(12)
O12_2 O -0.56315(19) 1.5626(2) 0.77449(12)
O14_2 O -0.74589(19) 1.7396(2) 0.58497(12)
O15 O 0.5710(3) 0.6566(3) 0.94558(17)
O16 O 0.8275(3) 0.8462(3) 0.47808(16)
K1 K 0.88464(7) 0.18705(7) 0.62001(4)
Na1 Na 1.37417(12) 0.63127(13) 1.06980(8)
loop_
_geom_bond_atom_site_label_1
_geom_bond_atom_site_label_2
_geom_bond_site_symmetry_1
_geom_bond_site_symmetry_2
Co1 O4 1_555 1_555
Co2 O3 1_555 1_555
O1 C10 1_555 1_555
O2 C2 1_555 1_555
O5 Co1 1_555 1_555
O6 Co2 1_555 1_555
O7 Co1 1_555 1_555
O8 C1 1_555 1_555
O9 C2 1_555 1_555
O10 C5 1_555 1_555
O11 C5 1_555 1_555
O12 C12 1_555 1_555
O13 Co1 1_555 1_555
O14 C11 1_555 1_555
C1 O6 1_555 1_555
C2 C8 1_555 1_555
C3 H1 1_555 1_555
C4 C1 1_555 1_555
C5 C7 1_555 1_555
C6 H2 1_555 1_555
C7 C3 1_555 1_555
C8 C4 1_555 1_555
C9 C6 1_555 1_555
C10 O5 1_555 1_555
C11 O13 1_555 1_555
C12 O7 1_555 1_555
Co1_2 O8 1_555 1_555
Co1A O9 1_555 1_555
Co2A O10 1_555 1_555
Co2_2 O11 1_555 1_555
Co2_3 O12 1_555 1_555
O8_2 Co1 1_555 1_555
O9A Co1 1_555 1_555
O10A Co2 1_555 1_555
O11_2 Co2 1_555 1_555
O12_2 Co2 1_555 1_555
O14_2 Co2 1_555 1_555
O14 Co2_3 1_555 1_555
C3 C4 1_555 1_555
C6 C8 1_555 1_555
C7 C9 1_555 1_555
C9 C10 1_555 1_555
C11 C12 1_555 1_555

#END
