
#######################################################################
#
#                 Cambridge Crystallographic Data Centre
#                                CCDC 
#
#######################################################################
#
# If this CIF has been generated from an entry in the Cambridge 
# Structural Database, then it will include bibliographic, chemical, 
# crystal, experimental, refinement or atomic coordinate data resulting 
# from the CCDC's data processing and validation procedures.
#
#######################################################################

data_MAQJOD
_symmetry_cell_setting           triclinic
_symmetry_space_group_name_H-M   'P -1'
_symmetry_Int_Tables_number      2
_space_group_name_Hall           '-P 1'
loop_
_symmetry_equiv_pos_site_id
_symmetry_equiv_pos_as_xyz
1 x,y,z
2 -x,-y,-z
_cell_length_a                   10.9880(10)
_cell_length_b                   11.1210(10)
_cell_length_c                   11.200(2)
_cell_angle_alpha                110.640(10)
_cell_angle_beta                 110.510(10)
_cell_angle_gamma                95.420(10)
_cell_volume                     1161.9
loop_
_atom_site_label
_atom_site_type_symbol
_atom_site_fract_x
_atom_site_fract_y
_atom_site_fract_z
Cu1 Cu 0.70365(6) 0.69393(6) 0.54339(6)
N1 N 0.7537(4) 0.5234(4) 0.5351(4)
N2 N 0.9000(4) 0.7707(4) 0.6716(4)
C1 C 0.6753(5) 0.4016(5) 0.4662(5)
H1 H 0.5836 0.3890 0.4182
C2 C 0.7275(6) 0.2913(5) 0.4641(5)
H2 H 0.6708 0.2064 0.4143
C3 C 0.8613(6) 0.3082(6) 0.5349(6)
H3 H 0.8959 0.2346 0.5328
C4 C 0.9470(5) 0.4354(6) 0.6107(5)
C5 C 1.0891(6) 0.4662(7) 0.6874(6)
H4 H 1.1307 0.3974 0.6888
C6 C 1.1645(5) 0.5930(7) 0.7581(6)
H5 H 1.2564 0.6092 0.8084
C7 C 1.1055(5) 0.7033(6) 0.7573(5)
C8 C 1.1763(6) 0.8364(7) 0.8272(6)
H6 H 1.2688 0.8598 0.8783
C9 C 1.1082(6) 0.9320(7) 0.8196(6)
H7 H 1.1537 1.0212 0.8673
C10 C 0.9727(6) 0.8955(5) 0.7414(5)
H8 H 0.9287 0.9622 0.7367
C11 C 0.9668(5) 0.6752(5) 0.6810(5)
C12 C 0.8871(5) 0.5422(5) 0.6078(5)
C13 C 0.5370(5) 0.5938(5) 0.2825(6)
C14 C 0.4165(5) 0.5223(6) 0.1451(5)
H9 H 0.4428 0.4563 0.0818
H10 H 0.3922 0.5859 0.1055
C15 C 0.2931(5) 0.4539(5) 0.1480(5)
H11 H 0.2700 0.5169 0.2170
H12 H 0.3129 0.3828 0.1768
C16 C 0.1738(5) 0.3973(5) 0.0071(5)
H13 H 0.1994 0.3383 -0.0623
H14 H 0.1525 0.4696 -0.0192
C17 C 0.0486(5) 0.3218(5) 0.0022(5)
H15 H 0.0685 0.2472 0.0246
H16 H 0.0244 0.3795 0.0736
C18 C -0.0695(5) 0.2710(5) -0.1371(5)
H17 H -0.0437 0.2168 -0.2089
H18 H -0.0917 0.3461 -0.1573
C19 C -0.1939(5) 0.1899(5) -0.1459(5)
H19 H -0.1719 0.1138 -0.1279
H20 H -0.2175 0.2435 -0.0719
C20 C -0.3155(5) 0.1409(5) -0.2831(5)
H21 H -0.2870 0.1105 -0.3592
H22 H -0.3549 0.2143 -0.2881
C21 C -0.4212(5) 0.0295(5) -0.3035(5)
H23 H -0.5040 0.0175 -0.3810
H24 H -0.4384 0.0529 -0.2200
C22 C -0.3775(5) -0.0999(5) -0.3333(5)
O1 O 0.5250(3) 0.6010(3) 0.3943(4)
O2 O 0.6446(3) 0.6424(4) 0.2852(4)
O3 O -0.3284(4) -0.1301(3) -0.4229(4)
O4 O -0.3912(4) -0.1719(4) -0.2739(4)
O3_2 O 0.6716(4) 0.8699(3) 0.5771(4)
Cu1_2 Cu -0.29635(6) -0.30607(6) -0.45661(6)
O5 O 0.6714(5) 0.8288(5) 0.1755(5)
H25 H 0.6401 0.7545 0.1853
H26 H 0.7265 0.8748 0.2597
O6 O 0.5208(5) 0.8750(5) -0.0540(4)
H27 H 0.5822 0.8601 0.0003
H28 H 0.5505 0.8581 -0.1205
O7 O 0.8585(7) 0.9830(6) 0.4544(5)
H29 H 0.7844 0.9793 0.3857
H30 H 0.8377 0.9244 0.4761
loop_
_geom_bond_atom_site_label_1
_geom_bond_atom_site_label_2
_geom_bond_site_symmetry_1
_geom_bond_site_symmetry_2
Cu1 N1 1_555 1_555
N1 C1 1_555 1_555
N2 Cu1 1_555 1_555
C1 H1 1_555 1_555
C2 C1 1_555 1_555
H2 C2 1_555 1_555
C3 C2 1_555 1_555
H3 C3 1_555 1_555
C4 C3 1_555 1_555
C5 C4 1_555 1_555
H4 C5 1_555 1_555
C6 C5 1_555 1_555
H5 C6 1_555 1_555
C7 C6 1_555 1_555
C8 C7 1_555 1_555
H6 C8 1_555 1_555
C9 C8 1_555 1_555
H7 C9 1_555 1_555
C10 N2 1_555 1_555
H8 C10 1_555 1_555
C11 N2 1_555 1_555
C12 N1 1_555 1_555
C13 C14 1_555 1_555
C14 H9 1_555 1_555
H10 C14 1_555 1_555
C15 C14 1_555 1_555
H11 C15 1_555 1_555
H12 C15 1_555 1_555
C16 C15 1_555 1_555
H13 C16 1_555 1_555
H14 C16 1_555 1_555
C17 C16 1_555 1_555
H15 C17 1_555 1_555
H16 C17 1_555 1_555
C18 C17 1_555 1_555
H17 C18 1_555 1_555
H18 C18 1_555 1_555
C19 C18 1_555 1_555
H19 C19 1_555 1_555
H20 C19 1_555 1_555
C20 C19 1_555 1_555
H21 C20 1_555 1_555
H22 C20 1_555 1_555
C21 C20 1_555 1_555
H23 C21 1_555 1_555
H24 C21 1_555 1_555
C22 C21 1_555 1_555
O1 Cu1 1_555 1_555
O2 C13 1_555 1_555
O3 C22 1_555 1_555
O4 C22 1_555 1_555
O5 H25 1_555 1_555
O6 H27 1_555 1_555
O7 H29 1_555 1_555
H26 O5 1_555 1_555
H28 O6 1_555 1_555
H30 O7 1_555 1_555
O3_2 Cu1 1_555 1_555
Cu1_2 O3 1_555 1_555
C4 C12 1_555 1_555
C7 C11 1_555 1_555
C9 C10 1_555 1_555
C11 C12 1_555 1_555
C13 O1 1_555 1_555

#END
