
#######################################################################
#
#                 Cambridge Crystallographic Data Centre
#                                CCDC 
#
#######################################################################
#
# If this CIF has been generated from an entry in the Cambridge 
# Structural Database, then it will include bibliographic, chemical, 
# crystal, experimental, refinement or atomic coordinate data resulting 
# from the CCDC's data processing and validation procedures.
#
#######################################################################

data_MAQJUK
_symmetry_cell_setting           rhombohedral
_symmetry_space_group_name_H-M   'R -3 m'
_symmetry_Int_Tables_number      166
_space_group_name_Hall           '-R 3 2"'
loop_
_symmetry_equiv_pos_site_id
_symmetry_equiv_pos_as_xyz
1 x,y,z
2 -y,x-y,z
3 -x+y,-x,z
4 y,x,-z
5 2/3+x,1/3+y,1/3+z
6 2/3-y,1/3+x-y,1/3+z
7 2/3-x+y,1/3-x,1/3+z
8 2/3+y,1/3+x,1/3-z
9 1/3+x,2/3+y,2/3+z
10 1/3+y,2/3+x,2/3-z
11 x-y,-y,-z
12 -x,-x+y,-z
13 1/3-y,2/3+x-y,2/3+z
14 1/3-x+y,2/3-x,2/3+z
15 1/3+x-y,2/3-y,2/3-z
16 1/3-x,2/3-x+y,2/3-z
17 2/3+x-y,1/3-y,1/3-z
18 2/3-x,1/3-x+y,1/3-z
19 -x,-y,-z
20 y,-x+y,-z
21 x-y,x,-z
22 -y,-x,z
23 1/3-x,2/3-y,2/3-z
24 1/3+y,2/3-x+y,2/3-z
25 1/3+x-y,2/3+x,2/3-z
26 1/3-y,2/3-x,2/3+z
27 2/3-x,1/3-y,1/3-z
28 2/3-y,1/3-x,1/3+z
29 -x+y,y,z
30 x,x-y,z
31 2/3+y,1/3-x+y,1/3-z
32 2/3+x-y,1/3+x,1/3-z
33 2/3-x+y,1/3+y,1/3+z
34 2/3+x,1/3+x-y,1/3+z
35 1/3-x+y,2/3+y,2/3+z
36 1/3+x,2/3+x-y,2/3+z
_cell_length_a                   16.0289(17)
_cell_length_b                   16.0289(17)
_cell_length_c                   9.4148(10)
_cell_angle_alpha                90
_cell_angle_beta                 90
_cell_angle_gamma                120
_cell_volume                     2094.83
loop_
_atom_site_label
_atom_site_type_symbol
_atom_site_fract_x
_atom_site_fract_y
_atom_site_fract_z
Cu1 Cu 0.38798(3) 0.0000 1.0000
C1 C 0.2367(2) -0.2367(2) 0.8331(5)
N1 N 0.2610(2) -0.1241(2) 1.0342(3)
N2 N 0.21066(19) -0.12905(19) 1.1518(3)
C2 C 0.20667(16) -0.20667(16) 0.9655(5)
N1U N 0.1241(2) -0.2610(2) 1.0342(3)
N2U N 0.12905(19) -0.21066(19) 1.1518(3)
Cu1F Cu 0.27869(3) -0.05465(3) 1.3333
Cu1S Cu 0.0000 -0.38798(3) 1.0000
Cu1EA Cu 0.05465(3) -0.27869(3) 1.3333
N1J N 0.3851(3) 0.1241(2) 0.9658(3)
N2L N 0.46238(19) 0.00638(27) 0.8185(3)
N2Q N 0.45601(19) -0.00638(27) 1.1815(3)
O1 O 0.000(3) -0.000030 0.5002(5)
H1? H 0.2952 -0.1834 0.7974
H2? H 0.1869 -0.2566 0.7628
H3? H 0.2472 -0.2893 0.8544
loop_
_geom_bond_atom_site_label_1
_geom_bond_atom_site_label_2
_geom_bond_site_symmetry_1
_geom_bond_site_symmetry_2
Cu1 N1 1_555 1_555
C1 C2 1_555 1_555
N1 N2 1_555 1_555
N2 N2U 1_555 1_555
C2 N1 1_555 1_555
N1U C2 1_555 1_555
N2U N1U 1_555 1_555
Cu1F N2 1_555 1_555
Cu1S N1U 1_555 1_555
Cu1EA N2U 1_555 1_555
N1J Cu1 1_555 1_555
N2L Cu1 1_555 1_555
N2Q Cu1 1_555 1_555

#END
