
#######################################################################
#
#                 Cambridge Crystallographic Data Centre
#                                CCDC 
#
#######################################################################
#
# If this CIF has been generated from an entry in the Cambridge 
# Structural Database, then it will include bibliographic, chemical, 
# crystal, experimental, refinement or atomic coordinate data resulting 
# from the CCDC's data processing and validation procedures.
#
#######################################################################

data_MAQTAA
_symmetry_cell_setting           triclinic
_symmetry_space_group_name_H-M   'P -1'
_symmetry_Int_Tables_number      2
_space_group_name_Hall           '-P 1'
loop_
_symmetry_equiv_pos_site_id
_symmetry_equiv_pos_as_xyz
1 x,y,z
2 -x,-y,-z
_cell_length_a                   9.105(2)
_cell_length_b                   12.106(3)
_cell_length_c                   12.494(3)
_cell_angle_alpha                80.891(4)
_cell_angle_beta                 86.483(3)
_cell_angle_gamma                80.048(4)
_cell_volume                     1338.51
loop_
_atom_site_label
_atom_site_type_symbol
_atom_site_fract_x
_atom_site_fract_y
_atom_site_fract_z
Cd1 Cd -0.03421(2) 0.259855(17) 0.552381(14)
N1 N 0.1201(3) 0.2987(2) 0.67381(18)
N2 N 0.3969(2) 0.3485(2) 0.91244(18)
N3 N 0.2315(3) 0.3568(2) 1.06287(19)
N4 N 0.0835(2) 0.2975(2) 1.38767(18)
N5 N 0.0466(3) 0.0266(2) 0.6464(2)
O1 O 0.1121(3) 0.0664(2) 0.56092(19)
O2 O 0.0826(3) -0.0739(2) 0.68773(19)
O3 O -0.0555(3) 0.0920(2) 0.6885(2)
N6 N -0.2667(3) 0.4347(2) 0.5968(2)
O4 O -0.2443(2) 0.34214(19) 0.65990(17)
O5 O -0.3705(3) 0.5107(2) 0.6123(2)
O6 O -0.1761(3) 0.4475(2) 0.51596(18)
C1 C 0.0786(3) 0.2833(3) 0.7799(2)
H1 H -0.0143 0.2587 0.7993
C2 C 0.1621(3) 0.3009(3) 0.8616(2)
H2 H 0.1262 0.2903 0.9348
C3 C 0.3011(3) 0.3349(2) 0.8352(2)
C4 C 0.3448(3) 0.3514(3) 0.7248(2)
H3 H 0.4374 0.3753 0.7027
C5 C 0.2521(3) 0.3327(3) 0.6490(2)
H4 H 0.2835 0.3446 0.5747
C6 C 0.5568(3) 0.3465(3) 0.8851(2)
H5 H 0.5739 0.4148 0.8341
H6 H 0.6006 0.2779 0.8530
C7 C 0.6197(3) 0.3447(3) 0.9932(2)
C8 C 0.7660(3) 0.3418(3) 1.0189(3)
H7 H 0.8434 0.3397 0.9644
C9 C 0.7973(4) 0.3421(4) 1.1255(3)
H8 H 0.8978 0.3375 1.1446
C10 C 0.6846(4) 0.3489(3) 1.2055(3)
H9 H 0.7087 0.3513 1.2780
C11 C 0.5371(3) 0.3523(3) 1.1806(2)
H10 H 0.4595 0.3569 1.2349
C12 C 0.5066(3) 0.3487(2) 1.0734(2)
C13 C 0.3646(3) 0.3499(2) 1.0232(2)
C14 C 0.1952(3) 0.3388(3) 1.1732(2)
C15 C 0.2236(3) 0.2322(3) 1.2346(2)
H11 H 0.2823 0.1708 1.2048
C16 C 0.1657(4) 0.2159(3) 1.3399(2)
H12 H 0.1859 0.1419 1.3804
C17 C 0.0578(3) 0.4013(3) 1.3289(2)
H13 H -0.0001 0.4611 1.3614
C18 C 0.1115(3) 0.4255(3) 1.2232(2)
H14 H 0.0916 0.5006 1.1851
O7 O -0.2204(2) 0.1968(2) 0.47234(18)
H15 H -0.178(4) 0.157(3) 0.411(2)
C19 C -0.3431(4) 0.1498(3) 0.5323(3)
H16 H -0.3686 0.1859 0.5983
H17 H -0.3117 0.0674 0.5554
C20 C -0.4762(4) 0.1683(4) 0.4657(3)
H18 H -0.5568 0.1357 0.5080
H19 H -0.4515 0.1317 0.4008
H20 H -0.5086 0.2499 0.4439
Cd1_2 Cd -0.03421(2) 0.259855(17) 1.552381(14)
N4_2 N 0.0835(2) 0.2975(2) 0.38767(18)
O12 O 0.610(3) 0.060(2) 0.044(2)
O16 O 0.611(2) -0.0140(15) 0.2031(15)
O8? O -0.0180(19) 0.0554(13) -0.0015(14)
O9? O -0.1422(18) 0.0912(14) -0.0891(14)
O10? O 0.5559(16) -0.0353(11) 0.2141(11)
O11? O 0.6261(18) 0.0456(14) 0.1395(14)
O13? O 0.4733(14) 0.1015(10) 0.0614(10)
O14? O 0.403(3) 0.044(2) 0.089(2)
O15? O 0.482(3) -0.043(2) 0.177(2)
O17? O 0.047(3) 0.044(2) 0.045(2)
loop_
_geom_bond_atom_site_label_1
_geom_bond_atom_site_label_2
_geom_bond_site_symmetry_1
_geom_bond_site_symmetry_2
Cd1 N1 1_555 1_555
N1 C1 1_555 1_555
N2 C3 1_555 1_555
N3 C13 1_555 1_555
N4 C16 1_555 1_555
N5 O1 1_555 1_555
O1 Cd1 1_555 1_555
O2 N5 1_555 1_555
O3 Cd1 1_555 1_555
N6 O4 1_555 1_555
O4 Cd1 1_555 1_555
O5 N6 1_555 1_555
O6 Cd1 1_555 1_555
C1 H1 1_555 1_555
C2 C1 1_555 1_555
H2 C2 1_555 1_555
C3 C2 1_555 1_555
C4 C3 1_555 1_555
H3 C4 1_555 1_555
C5 N1 1_555 1_555
H4 C5 1_555 1_555
C6 N2 1_555 1_555
H5 C6 1_555 1_555
H6 C6 1_555 1_555
C7 C6 1_555 1_555
C8 C7 1_555 1_555
H7 C8 1_555 1_555
C9 C8 1_555 1_555
H8 C9 1_555 1_555
C10 C9 1_555 1_555
H9 C10 1_555 1_555
C11 C10 1_555 1_555
H10 C11 1_555 1_555
C12 C7 1_555 1_555
C13 N2 1_555 1_555
C14 N3 1_555 1_555
C15 C14 1_555 1_555
H11 C15 1_555 1_555
C16 C15 1_555 1_555
H12 C16 1_555 1_555
C17 N4 1_555 1_555
H13 C17 1_555 1_555
C18 C14 1_555 1_555
H14 C18 1_555 1_555
O7 Cd1 1_555 1_555
H15 O7 1_555 1_555
C19 O7 1_555 1_555
H16 C19 1_555 1_555
H17 C19 1_555 1_555
C20 C19 1_555 1_555
H18 C20 1_555 1_555
H19 C20 1_555 1_555
H20 C20 1_555 1_555
Cd1_2 N4 1_555 1_555
N4_2 Cd1 1_555 1_555
N5 O3 1_555 1_555
N6 O6 1_555 1_555
C4 C5 1_555 1_555
C11 C12 1_555 1_555
C12 C13 1_555 1_555
C17 C18 1_555 1_555

#END
