
#######################################################################
#
#                 Cambridge Crystallographic Data Centre
#                                CCDC 
#
#######################################################################
#
# If this CIF has been generated from an entry in the Cambridge 
# Structural Database, then it will include bibliographic, chemical, 
# crystal, experimental, refinement or atomic coordinate data resulting 
# from the CCDC's data processing and validation procedures.
#
#######################################################################

data_MAQVAD
_symmetry_cell_setting           rhombohedral
_symmetry_space_group_name_H-M   'R 3 2'
_symmetry_Int_Tables_number      155
_space_group_name_Hall           'R 3 2"'
loop_
_symmetry_equiv_pos_site_id
_symmetry_equiv_pos_as_xyz
1 x,y,z
2 -y,x-y,z
3 -x+y,-x,z
4 y,x,-z
5 x-y,-y,-z
6 -x,-x+y,-z
7 2/3+x,1/3+y,1/3+z
8 2/3-y,1/3+x-y,1/3+z
9 2/3-x+y,1/3-x,1/3+z
10 2/3+y,1/3+x,1/3-z
11 2/3+x-y,1/3-y,1/3-z
12 2/3-x,1/3-x+y,1/3-z
13 1/3+x,2/3+y,2/3+z
14 1/3-y,2/3+x-y,2/3+z
15 1/3-x+y,2/3-x,2/3+z
16 1/3+y,2/3+x,2/3-z
17 1/3+x-y,2/3-y,2/3-z
18 1/3-x,2/3-x+y,2/3-z
_cell_length_a                   9.69740(10)
_cell_length_b                   9.69740(10)
_cell_length_c                   20.9760(5)
_cell_angle_alpha                90
_cell_angle_beta                 90
_cell_angle_gamma                120
_cell_volume                     1708.3
loop_
_atom_site_label
_atom_site_type_symbol
_atom_site_fract_x
_atom_site_fract_y
_atom_site_fract_z
Nd1 Nd 1.0000 1.0000 0.767796(5)
C1 C 0.7962(2) 0.6667 0.6667
C2 C 0.68844(18) 0.64418(19) 0.72557(7)
O1 O 0.94300(13) 0.80098(13) 0.67997(5)
H1 H 1.011(2) 0.827(3) 0.6506(9)
O2 O 0.73092(15) 0.76466(15) 0.76025(6)
O3 O 0.56563(16) 0.51303(15) 0.73258(7)
O4 O 0.98915(18) 0.81844(19) 0.85083(7)
H2 H 0.909(2) 0.753(3) 0.8722(10)
H3 H 1.077(2) 0.834(3) 0.8715(11)
Nd1I Nd 0.6667 0.3333 0.565537(5)
Nd1I_2 Nd 1.6667 1.3333 0.565537(5)
Nd1I_3 Nd 0.6667 1.3333 0.565537(5)
C1A C 1.3333 1.1295(2) 0.6667
C1B C 0.8705(2) 1.2038(2) 0.6667
C2J C 0.71093(26) 0.68915(19) 0.60776(7)
C2A C 1.35582(19) 1.04426(26) 0.72557(7)
C2I C 1.31085(19) 1.02177(18) 0.60776(7)
C2B C 0.95574(26) 1.31156(18) 0.72557(7)
C2K C 0.97823(18) 1.28907(26) 0.60776(7)
O1J O 0.80869(18) 0.53235(13) 0.65336(5)
O1A O 1.19902(13) 1.14202(18) 0.67997(5)
O1I O 1.46765(13) 1.27633(13) 0.65336(5)
O1B O 0.85798(18) 1.05700(13) 0.67997(5)
O1K O 0.72367(13) 1.19131(18) 0.65336(5)
O1K_2 O 0.72367(13) 0.19131(18) 0.65336(5)
O1I_2 O 0.46765(13) 0.27633(13) 0.65336(5)
H1J H 0.851(4) 0.506(3) 0.6827(9)
H1A H 1.173(3) 1.184(4) 0.6506(9)
H1I H 1.494(3) 1.344(2) 0.6827(9)
H1B H 0.816(4) 0.989(2) 0.6506(9)
H1K H 0.656(2) 1.149(4) 0.6827(9)
H1K_2 H 0.656(2) 0.149(4) 0.6827(9)
H1I_2 H 0.494(3) 0.344(2) 0.6827(9)
O2J O 0.63293(21) 0.56867(15) 0.57308(6)
O2A O 1.23534(15) 0.96626(21) 0.76025(6)
O2I O 1.43133(15) 1.06425(15) 0.57308(6)
O2B O 1.03374(21) 1.26908(15) 0.76025(6)
O2K O 0.93575(15) 1.36707(21) 0.57308(6)
O2K_2 O 0.93575(15) 0.36707(21) 0.57308(6)
O2I_2 O 0.43133(15) 0.06425(15) 0.57308(6)
O3J O 0.71927(22) 0.82030(15) 0.60075(7)
O3A O 1.48697(15) 1.05260(22) 0.73258(7)
O3I O 1.17970(15) 0.89896(16) 0.60075(7)
O3B O 0.94740(22) 1.43437(16) 0.73258(7)
O3K O 1.10104(16) 1.28073(22) 0.60075(7)
O4A O 1.18156(19) 1.17071(26) 0.85083(7)
O4B O 0.82929(26) 1.01085(18) 0.85083(7)
O4J O 0.83738(26) 0.51489(19) 0.48250(7)
O4K O 0.67752(18) 0.16262(26) 0.48250(7)
O4I O 0.48511(19) 0.32248(18) 0.48250(7)
H2A H 1.247(3) 1.156(4) 0.8722(10)
H2B H 0.844(4) 1.091(2) 0.8722(10)
H2J H 0.823(4) 0.580(3) 0.4611(10)
H2K H 0.758(2) 0.177(4) 0.4611(10)
H2I H 0.420(3) 0.242(2) 0.4611(10)
H3A H 1.166(3) 1.243(4) 0.8715(11)
H3B H 0.757(4) 0.923(2) 0.8715(11)
H3J H 0.910(4) 0.499(3) 0.4618(11)
H3K H 0.590(2) 0.090(4) 0.4618(11)
H3I H 0.501(3) 0.410(2) 0.4618(11)
loop_
_geom_bond_atom_site_label_1
_geom_bond_atom_site_label_2
_geom_bond_site_symmetry_1
_geom_bond_site_symmetry_2
Nd1 O1 1_555 1_555
C1 C2 1_555 1_555
C2 O2 1_555 1_555
O1 C1 1_555 1_555
H1 O1 1_555 1_555
O2 Nd1 1_555 1_555
O3 C2 1_555 1_555
O4 Nd1 1_555 1_555
H2 O4 1_555 1_555
H3 O4 1_555 1_555
Nd1I O1J 1_555 1_555
Nd1I_2 O1I 1_555 1_555
Nd1I_3 O1K 1_555 1_555
C1A C2A 1_555 1_555
C1B C2B 1_555 1_555
C2J C1 1_555 1_555
C2A O2A 1_555 1_555
C2I C1A 1_555 1_555
C2B O2B 1_555 1_555
C2K C1B 1_555 1_555
O1J C1 1_555 1_555
O1A Nd1 1_555 1_555
O1I C1A 1_555 1_555
O1B Nd1 1_555 1_555
O1K C1B 1_555 1_555
O1K_2 Nd1I 1_555 1_555
O1I_2 Nd1I 1_555 1_555
H1J O1J 1_555 1_555
H1A O1A 1_555 1_555
H1I O1I 1_555 1_555
H1B O1B 1_555 1_555
H1K O1K 1_555 1_555
H1K_2 O1K_2 1_555 1_555
H1I_2 O1I_2 1_555 1_555
O2J Nd1I 1_555 1_555
O2A Nd1 1_555 1_555
O2I Nd1I_2 1_555 1_555
O2B Nd1 1_555 1_555
O2K Nd1I_3 1_555 1_555
O2K_2 Nd1I 1_555 1_555
O2I_2 Nd1I 1_555 1_555
O3J C2J 1_555 1_555
O3A C2A 1_555 1_555
O3I C2I 1_555 1_555
O3B C2B 1_555 1_555
O3K C2K 1_555 1_555
O4A Nd1 1_555 1_555
O4B Nd1 1_555 1_555
O4J Nd1I 1_555 1_555
O4K Nd1I 1_555 1_555
O4I Nd1I 1_555 1_555
H2A O4A 1_555 1_555
H2B O4B 1_555 1_555
H2J O4J 1_555 1_555
H2K O4K 1_555 1_555
H2I O4I 1_555 1_555
H3A O4A 1_555 1_555
H3B O4B 1_555 1_555
H3J O4J 1_555 1_555
H3K O4K 1_555 1_555
H3I O4I 1_555 1_555
C1A O1A 1_555 1_555
C1B O1B 1_555 1_555
C2J O2J 1_555 1_555
C2I O2I 1_555 1_555
C2K O2K 1_555 1_555

#END
