
#######################################################################
#
#                 Cambridge Crystallographic Data Centre
#                                CCDC 
#
#######################################################################
#
# If this CIF has been generated from an entry in the Cambridge 
# Structural Database, then it will include bibliographic, chemical, 
# crystal, experimental, refinement or atomic coordinate data resulting 
# from the CCDC's data processing and validation procedures.
#
#######################################################################

data_MAQVIL
_symmetry_cell_setting           rhombohedral
_symmetry_space_group_name_H-M   'R 3 2'
_symmetry_Int_Tables_number      155
_space_group_name_Hall           'R 3 2"'
loop_
_symmetry_equiv_pos_site_id
_symmetry_equiv_pos_as_xyz
1 x,y,z
2 -y,x-y,z
3 -x+y,-x,z
4 y,x,-z
5 x-y,-y,-z
6 -x,-x+y,-z
7 2/3+x,1/3+y,1/3+z
8 2/3-y,1/3+x-y,1/3+z
9 2/3-x+y,1/3-x,1/3+z
10 2/3+y,1/3+x,1/3-z
11 2/3+x-y,1/3-y,1/3-z
12 2/3-x,1/3-x+y,1/3-z
13 1/3+x,2/3+y,2/3+z
14 1/3-y,2/3+x-y,2/3+z
15 1/3-x+y,2/3-x,2/3+z
16 1/3+y,2/3+x,2/3-z
17 1/3+x-y,2/3-y,2/3-z
18 1/3-x,2/3-x+y,2/3-z
_cell_length_a                   9.5813(2)
_cell_length_b                   9.5813(2)
_cell_length_c                   20.4715(6)
_cell_angle_alpha                90
_cell_angle_beta                 90
_cell_angle_gamma                120
_cell_volume                     1627.53
loop_
_atom_site_label
_atom_site_type_symbol
_atom_site_fract_x
_atom_site_fract_y
_atom_site_fract_z
Er1 Er 0.0000 0.0000 0.234896(5)
C1 C 0.2015(3) 0.3333 0.3333
C2 C 0.3081(3) 0.3526(3) 0.27295(11)
O1 O 0.05312(19) 0.19662(19) 0.32032(8)
H1 H -0.018(3) 0.186(4) 0.3498(14)
O2 O 0.2651(2) 0.2278(2) 0.23892(9)
O3 O 0.4313(2) 0.4861(2) 0.26372(10)
O4 O 0.0153(2) 0.1800(3) 0.15447(10)
H2 H 0.102(3) 0.259(3) 0.1369(15)
H3 H -0.073(3) 0.158(4) 0.1276(15)
Er1O Er 0.3333 0.6667 0.431771(5)
Er1O_2 Er -0.6667 -0.3333 0.431771(5)
Er1O_3 Er 0.3333 -0.3333 0.431771(5)
C1A C -0.3333 -0.1318(3) 0.3333
C1B C 0.1318(3) -0.2015(3) 0.3333
C2P C 0.2888(4) 0.3141(3) 0.39372(11)
C2A C -0.3526(3) -0.0445(4) 0.27295(11)
C2O C -0.3141(3) -0.0252(3) 0.39372(11)
C2B C 0.0445(4) -0.3081(3) 0.27295(11)
C2Q C 0.0252(3) -0.2888(4) 0.39372(11)
O1P O 0.18983(27) 0.47005(19) 0.34635(8)
O1A O -0.19662(19) -0.14350(27) 0.32032(8)
O1O O -0.47005(19) -0.28021(19) 0.34635(8)
O1B O 0.14350(27) -0.05312(19) 0.32032(8)
O1Q O 0.28021(19) -0.18983(27) 0.34635(8)
O1Q_2 O 0.28021(19) 0.81017(27) 0.34635(8)
O1O_2 O 0.52995(19) 0.71979(19) 0.34635(8)
H1P H 0.129(5) 0.481(4) 0.3169(14)
H1A H -0.186(4) -0.204(5) 0.3498(14)
H1O H -0.481(4) -0.351(3) 0.3169(14)
H1B H 0.204(5) 0.018(3) 0.3498(14)
H1Q H 0.351(3) -0.129(5) 0.3169(14)
H1Q_2 H 0.351(3) 0.871(5) 0.3169(14)
H1O_2 H 0.519(4) 0.649(3) 0.3169(14)
O2P O 0.3706(3) 0.4389(2) 0.42775(9)
O2A O -0.2278(2) 0.0373(3) 0.23892(9)
O2O O -0.4389(2) -0.0682(2) 0.42775(9)
O2B O -0.0373(3) -0.2651(2) 0.23892(9)
O2Q O 0.0682(2) -0.3706(3) 0.42775(9)
O2Q_2 O 0.0682(2) 0.6294(3) 0.42775(9)
O2O_2 O 0.5611(2) 0.9318(2) 0.42775(9)
O3P O 0.2785(3) 0.1806(2) 0.40295(10)
O3A O -0.4861(2) -0.0548(3) 0.26372(10)
O3O O -0.1806(2) 0.0980(2) 0.40295(10)
O3B O 0.0548(3) -0.4313(2) 0.26372(10)
O3Q O -0.0980(2) -0.2785(3) 0.40295(10)
O4A O -0.1800(3) -0.1647(4) 0.15447(10)
O4B O 0.1647(4) -0.0153(2) 0.15447(10)
O4P O 0.1686(4) 0.4867(3) 0.51220(10)
O4Q O 0.3180(2) 0.8314(4) 0.51220(10)
O4O O 0.5133(3) 0.6820(2) 0.51220(10)
H2A H -0.259(3) -0.157(4) 0.1369(15)
H2B H 0.157(4) -0.102(3) 0.1369(15)
H2P H 0.176(4) 0.408(3) 0.5298(15)
H2Q H 0.231(3) 0.824(4) 0.5298(15)
H2O H 0.592(3) 0.769(3) 0.5298(15)
H3A H -0.158(4) -0.231(5) 0.1276(15)
H3B H 0.231(5) 0.073(3) 0.1276(15)
H3P H 0.102(5) 0.509(4) 0.5391(15)
H3Q H 0.406(3) 0.898(5) 0.5391(15)
H3O H 0.491(4) 0.594(3) 0.5391(15)
loop_
_geom_bond_atom_site_label_1
_geom_bond_atom_site_label_2
_geom_bond_site_symmetry_1
_geom_bond_site_symmetry_2
Er1 O1 1_555 1_555
C1 C2 1_555 1_555
C2 O2 1_555 1_555
O1 C1 1_555 1_555
H1 O1 1_555 1_555
O2 Er1 1_555 1_555
O3 C2 1_555 1_555
O4 Er1 1_555 1_555
H2 O4 1_555 1_555
H3 O4 1_555 1_555
Er1O O1P 1_555 1_555
Er1O_2 O1O 1_555 1_555
Er1O_3 O1Q 1_555 1_555
C1A C2A 1_555 1_555
C1B C2B 1_555 1_555
C2P C1 1_555 1_555
C2A O2A 1_555 1_555
C2O C1A 1_555 1_555
C2B O2B 1_555 1_555
C2Q C1B 1_555 1_555
O1P C1 1_555 1_555
O1A Er1 1_555 1_555
O1O C1A 1_555 1_555
O1B Er1 1_555 1_555
O1Q C1B 1_555 1_555
O1Q_2 Er1O 1_555 1_555
O1O_2 Er1O 1_555 1_555
H1P O1P 1_555 1_555
H1A O1A 1_555 1_555
H1O O1O 1_555 1_555
H1B O1B 1_555 1_555
H1Q O1Q 1_555 1_555
H1Q_2 O1Q_2 1_555 1_555
H1O_2 O1O_2 1_555 1_555
O2P Er1O 1_555 1_555
O2A Er1 1_555 1_555
O2O Er1O_2 1_555 1_555
O2B Er1 1_555 1_555
O2Q Er1O_3 1_555 1_555
O2Q_2 Er1O 1_555 1_555
O2O_2 Er1O 1_555 1_555
O3P C2P 1_555 1_555
O3A C2A 1_555 1_555
O3O C2O 1_555 1_555
O3B C2B 1_555 1_555
O3Q C2Q 1_555 1_555
O4A Er1 1_555 1_555
O4B Er1 1_555 1_555
O4P Er1O 1_555 1_555
O4Q Er1O 1_555 1_555
O4O Er1O 1_555 1_555
H2A O4A 1_555 1_555
H2B O4B 1_555 1_555
H2P O4P 1_555 1_555
H2Q O4Q 1_555 1_555
H2O O4O 1_555 1_555
H3A O4A 1_555 1_555
H3B O4B 1_555 1_555
H3P O4P 1_555 1_555
H3Q O4Q 1_555 1_555
H3O O4O 1_555 1_555
C1A O1A 1_555 1_555
C1B O1B 1_555 1_555
C2P O2P 1_555 1_555
C2O O2O 1_555 1_555
C2Q O2Q 1_555 1_555

#END
