
#######################################################################
#
#                 Cambridge Crystallographic Data Centre
#                                CCDC 
#
#######################################################################
#
# If this CIF has been generated from an entry in the Cambridge 
# Structural Database, then it will include bibliographic, chemical, 
# crystal, experimental, refinement or atomic coordinate data resulting 
# from the CCDC's data processing and validation procedures.
#
#######################################################################

data_MAQVOR
_symmetry_cell_setting           rhombohedral
_symmetry_space_group_name_H-M   'R 3 2'
_symmetry_Int_Tables_number      155
_space_group_name_Hall           'R 3 2"'
loop_
_symmetry_equiv_pos_site_id
_symmetry_equiv_pos_as_xyz
1 x,y,z
2 -y,x-y,z
3 -x+y,-x,z
4 y,x,-z
5 x-y,-y,-z
6 -x,-x+y,-z
7 2/3+x,1/3+y,1/3+z
8 2/3-y,1/3+x-y,1/3+z
9 2/3-x+y,1/3-x,1/3+z
10 2/3+y,1/3+x,1/3-z
11 2/3+x-y,1/3-y,1/3-z
12 2/3-x,1/3-x+y,1/3-z
13 1/3+x,2/3+y,2/3+z
14 1/3-y,2/3+x-y,2/3+z
15 1/3-x+y,2/3-x,2/3+z
16 1/3+y,2/3+x,2/3-z
17 1/3+x-y,2/3-y,2/3-z
18 1/3-x,2/3-x+y,2/3-z
_cell_length_a                   9.55480(10)
_cell_length_b                   9.55480(10)
_cell_length_c                   20.4006(4)
_cell_angle_alpha                90
_cell_angle_beta                 90
_cell_angle_gamma                120
_cell_volume                     1612.93
loop_
_atom_site_label
_atom_site_type_symbol
_atom_site_fract_x
_atom_site_fract_y
_atom_site_fract_z
Yb1 Yb 0.0000 0.0000 0.235333(5)
C1 C 0.2013(3) 0.3333 0.3333
C2 C 0.3081(3) 0.3524(3) 0.27281(10)
O1 O 0.05263(18) 0.19596(19) 0.32047(8)
H1 H -0.022(3) 0.186(4) 0.3499(14)
O2 O 0.2647(2) 0.2264(2) 0.23910(8)
O3 O 0.4309(2) 0.4859(2) 0.26318(9)
O4 O 0.0165(2) 0.1800(3) 0.15556(10)
H2 H 0.106(3) 0.256(4) 0.1359(15)
H3 H -0.071(3) 0.162(5) 0.1261(15)
Yb1O Yb 0.3333 0.6667 0.431334(5)
Yb1O_2 Yb -0.6667 -0.3333 0.431334(5)
Yb1O_3 Yb 0.3333 -0.3333 0.431334(5)
C1A C -0.3333 -0.1320(3) 0.3333
C1B C 0.1320(3) -0.2013(3) 0.3333
C2P C 0.2890(4) 0.3143(3) 0.39386(10)
C2A C -0.3524(3) -0.0443(4) 0.27281(10)
C2O C -0.3143(3) -0.0252(3) 0.39386(10)
C2B C 0.0443(4) -0.3081(3) 0.27281(10)
C2Q C 0.0252(3) -0.2890(4) 0.39386(10)
O1P O 0.19000(26) 0.47071(19) 0.34620(8)
O1A O -0.19596(19) -0.14333(26) 0.32047(8)
O1O O -0.47071(19) -0.28070(18) 0.34620(8)
O1B O 0.14333(26) -0.05263(18) 0.32047(8)
O1Q O 0.28070(18) -0.19000(26) 0.34620(8)
O1Q_2 O 0.28070(18) 0.81000(26) 0.34620(8)
O1O_2 O 0.52929(19) 0.71930(18) 0.34620(8)
H1P H 0.125(5) 0.481(4) 0.3168(14)
H1A H -0.186(4) -0.208(5) 0.3499(14)
H1O H -0.481(4) -0.355(3) 0.3168(14)
H1B H 0.208(5) 0.022(3) 0.3499(14)
H1Q H 0.355(3) -0.125(5) 0.3168(14)
H1Q_2 H 0.355(3) 0.875(5) 0.3168(14)
H1O_2 H 0.519(4) 0.645(3) 0.3168(14)
O2P O 0.3716(3) 0.4403(2) 0.42757(8)
O2A O -0.2264(2) 0.0383(3) 0.23910(8)
O2O O -0.4403(2) -0.0686(2) 0.42757(8)
O2B O -0.0383(3) -0.2647(2) 0.23910(8)
O2Q O 0.0686(2) -0.3716(3) 0.42757(8)
O2Q_2 O 0.0686(2) 0.6284(3) 0.42757(8)
O2O_2 O 0.5597(2) 0.9314(2) 0.42757(8)
O3P O 0.2783(3) 0.1808(2) 0.40349(9)
O3A O -0.4859(2) -0.0550(3) 0.26318(9)
O3O O -0.1808(2) 0.0976(2) 0.40349(9)
O3B O 0.0550(3) -0.4309(2) 0.26318(9)
O3Q O -0.0976(2) -0.2783(3) 0.40349(9)
O4A O -0.1800(3) -0.1635(4) 0.15556(10)
O4B O 0.1635(4) -0.0165(2) 0.15556(10)
O4P O 0.1698(4) 0.4867(3) 0.51111(10)
O4Q O 0.3168(2) 0.8302(4) 0.51111(10)
O4O O 0.5133(3) 0.6832(2) 0.51111(10)
H2A H -0.256(4) -0.150(5) 0.1359(15)
H2B H 0.150(5) -0.106(3) 0.1359(15)
H2P H 0.183(5) 0.411(4) 0.5308(15)
H2Q H 0.227(3) 0.817(5) 0.5308(15)
H2O H 0.589(4) 0.773(3) 0.5308(15)
H3A H -0.162(5) -0.233(6) 0.1261(15)
H3B H 0.233(6) 0.071(3) 0.1261(15)
H3P H 0.100(6) 0.505(5) 0.5406(15)
H3Q H 0.404(3) 0.900(6) 0.5406(15)
H3O H 0.495(5) 0.596(3) 0.5406(15)
loop_
_geom_bond_atom_site_label_1
_geom_bond_atom_site_label_2
_geom_bond_site_symmetry_1
_geom_bond_site_symmetry_2
Yb1 O1 1_555 1_555
C1 C2 1_555 1_555
C2 O2 1_555 1_555
O1 C1 1_555 1_555
H1 O1 1_555 1_555
O2 Yb1 1_555 1_555
O3 C2 1_555 1_555
O4 Yb1 1_555 1_555
H2 O4 1_555 1_555
H3 O4 1_555 1_555
Yb1O O1P 1_555 1_555
Yb1O_2 O1O 1_555 1_555
Yb1O_3 O1Q 1_555 1_555
C1A C2A 1_555 1_555
C1B C2B 1_555 1_555
C2P C1 1_555 1_555
C2A O2A 1_555 1_555
C2O C1A 1_555 1_555
C2B O2B 1_555 1_555
C2Q C1B 1_555 1_555
O1P C1 1_555 1_555
O1A Yb1 1_555 1_555
O1O C1A 1_555 1_555
O1B Yb1 1_555 1_555
O1Q C1B 1_555 1_555
O1Q_2 Yb1O 1_555 1_555
O1O_2 Yb1O 1_555 1_555
H1P O1P 1_555 1_555
H1A O1A 1_555 1_555
H1O O1O 1_555 1_555
H1B O1B 1_555 1_555
H1Q O1Q 1_555 1_555
H1Q_2 O1Q_2 1_555 1_555
H1O_2 O1O_2 1_555 1_555
O2P Yb1O 1_555 1_555
O2A Yb1 1_555 1_555
O2O Yb1O_2 1_555 1_555
O2B Yb1 1_555 1_555
O2Q Yb1O_3 1_555 1_555
O2Q_2 Yb1O 1_555 1_555
O2O_2 Yb1O 1_555 1_555
O3P C2P 1_555 1_555
O3A C2A 1_555 1_555
O3O C2O 1_555 1_555
O3B C2B 1_555 1_555
O3Q C2Q 1_555 1_555
O4A Yb1 1_555 1_555
O4B Yb1 1_555 1_555
O4P Yb1O 1_555 1_555
O4Q Yb1O 1_555 1_555
O4O Yb1O 1_555 1_555
H2A O4A 1_555 1_555
H2B O4B 1_555 1_555
H2P O4P 1_555 1_555
H2Q O4Q 1_555 1_555
H2O O4O 1_555 1_555
H3A O4A 1_555 1_555
H3B O4B 1_555 1_555
H3P O4P 1_555 1_555
H3Q O4Q 1_555 1_555
H3O O4O 1_555 1_555
C1A O1A 1_555 1_555
C1B O1B 1_555 1_555
C2P O2P 1_555 1_555
C2O O2O 1_555 1_555
C2Q O2Q 1_555 1_555

#END
