
#######################################################################
#
#                 Cambridge Crystallographic Data Centre
#                                CCDC 
#
#######################################################################
#
# If this CIF has been generated from an entry in the Cambridge 
# Structural Database, then it will include bibliographic, chemical, 
# crystal, experimental, refinement or atomic coordinate data resulting 
# from the CCDC's data processing and validation procedures.
#
#######################################################################

data_MAQXIN
_symmetry_cell_setting           monoclinic
_symmetry_space_group_name_H-M   'C 2/c'
_symmetry_Int_Tables_number      15
_space_group_name_Hall           '-C 2yn'
loop_
_symmetry_equiv_pos_site_id
_symmetry_equiv_pos_as_xyz
1 x,y,z
2 -x,y,1/2-z
3 1/2+x,1/2+y,z
4 1/2-x,1/2+y,1/2-z
5 -x,-y,-z
6 x,-y,1/2+z
7 1/2-x,1/2-y,-z
8 1/2+x,1/2-y,1/2+z
_cell_length_a                   19.450(3)
_cell_length_b                   20.139(5)
_cell_length_c                   8.060(2)
_cell_angle_alpha                90
_cell_angle_beta                 110.07(3)
_cell_angle_gamma                90
_cell_volume                     2965.41
loop_
_atom_site_label
_atom_site_type_symbol
_atom_site_fract_x
_atom_site_fract_y
_atom_site_fract_z
N1 N 0.1729(5) 0.1431(4) 1.1337(9)
O1 O 0.1695(4) 0.0199(3) 0.6381(8)
O2 O 0.0090(4) 0.1169(3) 0.5525(7)
O3 O 0.0980(4) 0.1771(3) 0.7335(8)
O4 O 0.2333(5) 0.0833(4) 0.8589(10)
C1 C 0.1652(5) 0.1325(4) 1.2885(10)
H1 H 0.1378 0.0949 1.3002
C2 C 0.0415(6) 0.1722(5) 0.6003(12)
C3 C 0.2291(5) 0.0452(5) 0.7311(12)
C4 C 0.2129(11) 0.1931(8) 1.1259(14)
H2 H 0.2228 0.1998 1.0196
C5 C 0.2425(12) 0.2381(9) 1.2632(15)
H3 H 0.2686 0.2758 1.2463
C6 C 0.2337(6) 0.2276(5) 1.4246(11)
C7 C 0.1945(6) 0.1730(4) 1.4341(10)
H4 H 0.1872 0.1624 1.5417
C8 C 0.0085(10) 0.2358(7) 0.499(2)
H5 H -0.0154 0.2234 0.3739
H6 H -0.0308 0.2505 0.5431
C9 C 0.2954(7) 0.0311(8) 0.6885(19)
H7 H 0.3007 -0.0177 0.6840
H8 H 0.2878 0.0485 0.5686
C10 C 0.3642(11) 0.0580(17) 0.808(4)
H9 H 0.3732 0.0412 0.9293
H10 H 0.3611 0.1071 0.8109
C11 C 0.0538(14) 0.2926(7) 0.504(2)
H11 H 0.0266 0.3223 0.4052
H12 H 0.0978 0.2770 0.4801
C12 C 0.425(2) 0.038(2) 0.748(8)
H13 H 0.4703 0.0599 0.8222
H14 H 0.4139 0.0515 0.6250
H15 H 0.4313 -0.0101 0.7582
C13 C 0.078(2) 0.3326(10) 0.666(4)
H16 H 0.1071 0.3705 0.6497
H17 H 0.1090 0.3052 0.7644
H18 H 0.0358 0.3487 0.6926
O5 O 0.0000 -0.0434(4) 0.7500
Pb1 Pb 0.110840(19) 0.068111(13) 0.86798(3)
N1F N 0.3271(5) 0.3569(4) 1.8663(9)
O1E O 0.1695(4) -0.0199(3) 1.1381(8)
O1F O 0.3305(4) 0.4801(3) 2.3619(8)
O1C O 0.3305(4) 0.5199(3) 1.8619(8)
O2A O -0.0090(4) 0.1169(3) 0.9475(7)
O2F O 0.4910(4) 0.3831(3) 2.4475(7)
O2G O 0.5090(4) 0.3831(3) 2.0525(7)
O3A O -0.0980(4) 0.1771(3) 0.7665(8)
O3F O 0.4020(4) 0.3229(3) 2.2665(8)
O4E O 0.2333(5) -0.0833(4) 1.3589(10)
O4F O 0.2667(5) 0.4167(4) 2.1411(10)
C1F C 0.3348(5) 0.3675(4) 1.7115(10)
H1F H 0.3622 0.4051 1.6998
C2A C -0.0415(6) 0.1722(5) 0.8997(12)
C3E C 0.2291(5) -0.0452(5) 1.2311(12)
C4F C 0.2871(11) 0.3069(8) 1.8741(14)
H2F H 0.2772 0.3002 1.9804
C5F C 0.2575(12) 0.2619(9) 1.7368(15)
H3F H 0.2314 0.2242 1.7537
C6F C 0.2663(6) 0.2724(5) 1.5754(11)
C7F C 0.3055(6) 0.3270(4) 1.5659(10)
H4F H 0.3128 0.3376 1.4583
C8A C -0.0085(10) 0.2358(7) 1.001(2)
H5A H 0.0154 0.2234 1.1261
H6A H 0.0308 0.2505 0.9569
C9E C 0.2954(7) -0.0311(8) 1.1885(19)
H7E H 0.3007 0.0177 1.1840
H8E H 0.2878 -0.0485 1.0686
C10E C 0.3642(11) -0.0580(17) 1.308(4)
H9E H 0.3732 -0.0412 1.4293
H10E H 0.3611 -0.1071 1.3109
C11A C -0.0538(14) 0.2926(7) 0.996(2)
H11A H -0.0266 0.3223 1.0948
H12A H -0.0978 0.2770 1.0199
C12E C 0.425(2) -0.038(2) 1.248(8)
H13E H 0.4703 -0.0599 1.3222
H14E H 0.4139 -0.0515 1.1250
H15E H 0.4313 0.0101 1.2582
C13A C -0.078(2) 0.3326(10) 0.834(4)
H16A H -0.1071 0.3705 0.8503
H17A H -0.1090 0.3052 0.7356
H18A H -0.0358 0.3487 0.8074
O5F O 0.5000 0.5434(4) 2.2500
Pb1F Pb 0.389160(19) 0.431889(13) 2.13202(3)
Pb1E Pb 0.110840(19) -0.068111(13) 0.36798(3)
Pb1A Pb -0.110840(19) 0.068111(13) 0.63202(3)
Pb1E_2 Pb 0.110840(19) -0.068111(13) 1.36798(3)
loop_
_geom_bond_atom_site_label_1
_geom_bond_atom_site_label_2
_geom_bond_site_symmetry_1
_geom_bond_site_symmetry_2
N1 C1 1_555 1_555
O1 C3 1_555 1_555
O2 C2 1_555 1_555
O3 C2 1_555 1_555
O4 C3 1_555 1_555
C1 H1 1_555 1_555
C2 C8 1_555 1_555
C3 C9 1_555 1_555
C4 N1 1_555 1_555
H2 C4 1_555 1_555
C5 C4 1_555 1_555
H3 C5 1_555 1_555
C6 C5 1_555 1_555
C7 C1 1_555 1_555
H4 C7 1_555 1_555
C8 H5 1_555 1_555
H6 C8 1_555 1_555
C9 H7 1_555 1_555
H8 C9 1_555 1_555
C10 C9 1_555 1_555
H9 C10 1_555 1_555
H10 C10 1_555 1_555
C11 C8 1_555 1_555
H11 C11 1_555 1_555
H12 C11 1_555 1_555
C12 C10 1_555 1_555
H13 C12 1_555 1_555
H14 C12 1_555 1_555
H15 C12 1_555 1_555
C13 C11 1_555 1_555
H16 C13 1_555 1_555
H17 C13 1_555 1_555
H18 C13 1_555 1_555
O5 Pb1 1_555 1_555
Pb1 N1 1_555 1_555
N1F C1F 1_555 1_555
O1E Pb1 1_555 1_555
O1F Pb1F 1_555 1_555
O1C Pb1F 1_555 1_555
O2A Pb1 1_555 1_555
O2F Pb1F 1_555 1_555
O2G Pb1F 1_555 1_555
O3A C2A 1_555 1_555
O3F Pb1F 1_555 1_555
O4E C3E 1_555 1_555
O4F Pb1F 1_555 1_555
C1F H1F 1_555 1_555
C2A O2A 1_555 1_555
C3E O1E 1_555 1_555
C4F N1F 1_555 1_555
H2F C4F 1_555 1_555
C5F C4F 1_555 1_555
H3F C5F 1_555 1_555
C6F C6 1_555 1_555
C7F C1F 1_555 1_555
H4F C7F 1_555 1_555
C8A C2A 1_555 1_555
H5A C8A 1_555 1_555
H6A C8A 1_555 1_555
C9E C3E 1_555 1_555
H7E C9E 1_555 1_555
H8E C9E 1_555 1_555
C10E C9E 1_555 1_555
H9E C10E 1_555 1_555
H10E C10E 1_555 1_555
C11A C8A 1_555 1_555
H11A C11A 1_555 1_555
H12A C11A 1_555 1_555
C12E C10E 1_555 1_555
H13E C12E 1_555 1_555
H14E C12E 1_555 1_555
H15E C12E 1_555 1_555
C13A C11A 1_555 1_555
H16A C13A 1_555 1_555
H17A C13A 1_555 1_555
H18A C13A 1_555 1_555
O5F Pb1F 1_555 1_555
Pb1F N1F 1_555 1_555
Pb1E O1 1_555 1_555
Pb1A O2 1_555 1_555
Pb1E_2 O1E 1_555 1_555
O1 Pb1 1_555 1_555
O2 Pb1 1_555 1_555
O3 Pb1 1_555 1_555
O4 Pb1 1_555 1_555
C6 C7 1_555 1_555
O5 Pb1A 1_555 1_555
O2A Pb1A 1_555 1_555
O3A Pb1A 1_555 1_555
O4E Pb1E_2 1_555 1_555
C5F C6F 1_555 1_555
C6F C7F 1_555 1_555

#END
