
#######################################################################
#
#                 Cambridge Crystallographic Data Centre
#                                CCDC 
#
#######################################################################
#
# If this CIF has been generated from an entry in the Cambridge 
# Structural Database, then it will include bibliographic, chemical, 
# crystal, experimental, refinement or atomic coordinate data resulting 
# from the CCDC's data processing and validation procedures.
#
#######################################################################

data_MAQXOT01
_symmetry_cell_setting           monoclinic
_symmetry_space_group_name_H-M   'C 2/c'
_symmetry_Int_Tables_number      15
_space_group_name_Hall           '-C 2yn'
loop_
_symmetry_equiv_pos_site_id
_symmetry_equiv_pos_as_xyz
1 x,y,z
2 -x,y,1/2-z
3 1/2+x,1/2+y,z
4 1/2-x,1/2+y,1/2-z
5 -x,-y,-z
6 x,-y,1/2+z
7 1/2-x,1/2-y,-z
8 1/2+x,1/2-y,1/2+z
_cell_length_a                   18.037(4)
_cell_length_b                   22.430(5)
_cell_length_c                   8.1390(16)
_cell_angle_alpha                90
_cell_angle_beta                 100.63(3)
_cell_angle_gamma                90
_cell_volume                     3236.29
loop_
_atom_site_label
_atom_site_type_symbol
_atom_site_fract_x
_atom_site_fract_y
_atom_site_fract_z
O1 O 0.4933(3) 0.3932(3) 0.4545(6)
O2 O 0.3313(3) 0.4790(2) 0.4623(7)
O3 O 0.4028(3) 0.3379(2) 0.3143(7)
O4 O 0.2623(3) 0.4241(3) 0.2737(8)
C1 C 0.2575(4) 0.3406(3) -0.0333(9)
H1 H 0.2375 0.3399 0.0667
C2 C 0.2695(4) 0.4550(4) 0.4019(11)
C3 C 0.4637(5) 0.3439(4) 0.4199(9)
C4 C 0.5070(10) 0.2899(6) 0.4991(18)
H2 H 0.5563 0.2904 0.4617
H3 H 0.5179 0.2974 0.6210
C5 C 0.2035(5) 0.4646(6) 0.4932(15)
H4 H 0.2184 0.4496 0.6090
H5 H 0.1946 0.5080 0.5001
C6 C 0.4803(9) 0.2311(6) 0.478(3)
H6 H 0.4618 0.2238 0.3577
H7 H 0.4370 0.2267 0.5361
C7 C 0.1326(8) 0.4361(10) 0.417(3)
H8 H 0.1293 0.3977 0.4753
H9 H 0.1355 0.4267 0.2997
C8 C 0.5371(10) 0.1855(7) 0.542(3)
H10 H 0.5143 0.1458 0.5240
H11 H 0.5551 0.1918 0.6619
H12 H 0.5795 0.1886 0.4828
C9 C 0.062(2) 0.469(3) 0.417(8)
H13 H 0.0190 0.4427 0.3742
H14 H 0.0602 0.5039 0.3454
H15 H 0.0593 0.4811 0.5312
Pb1 Pb 0.384479(12) 0.438740(9) 0.19720(3)
O5 O 0.5000 0.5382(3) 0.2500
C10 C 0.2372(4) 0.2532(3) -0.4278(8)
H16 H 0.2009 0.2252 -0.4050
C11 C 0.2607(4) 0.2993(3) -0.3048(8)
C12 C 0.3133(4) 0.3430(3) -0.3213(8)
H17 H 0.3329 0.3461 -0.4216
C13 C 0.3366(4) 0.3817(3) -0.1913(8)
H18 H 0.3732 0.4111 -0.2040
N1 N 0.3103(3) 0.3802(3) -0.0466(7)
C14 C 0.2302(5) 0.3005(3) -0.1566(10)
H19 H 0.1910 0.2737 -0.1427
O1A O 0.5067(3) 0.3932(3) 0.0455(6)
O2E O 0.3313(3) 0.5210(2) -0.0377(7)
O2A O 0.6687(3) 0.4790(2) 0.0377(7)
O2D O 0.6687(3) 0.5210(2) 0.5377(7)
O3A O 0.5972(3) 0.3379(2) 0.1857(7)
O4E O 0.2623(3) 0.5759(3) -0.2263(8)
O4A O 0.7377(3) 0.4241(3) 0.2263(8)
C1F C 0.2425(4) 0.1594(3) -0.9667(9)
H1F H 0.2625 0.1601 -1.0667
C2E C 0.2695(4) 0.5450(4) -0.0981(11)
C3A C 0.5363(5) 0.3439(4) 0.0801(9)
C4A C 0.4930(10) 0.2899(6) 0.0009(18)
H2A H 0.4437 0.2904 0.0383
H3A H 0.4821 0.2974 -0.1210
C5E C 0.2035(5) 0.5354(6) -0.0068(15)
H4E H 0.2184 0.5504 0.1090
H5E H 0.1946 0.4920 0.0001
C6A C 0.5197(9) 0.2311(6) 0.022(3)
H6A H 0.5382 0.2238 0.1423
H7A H 0.5630 0.2267 -0.0361
C7E C 0.1326(8) 0.5639(10) -0.083(3)
H8E H 0.1293 0.6023 -0.0247
H9E H 0.1355 0.5733 -0.2003
C8A C 0.4629(10) 0.1855(7) -0.042(3)
H10A H 0.4857 0.1458 -0.0240
H11A H 0.4449 0.1918 -0.1619
H12A H 0.4205 0.1886 0.0172
C9E C 0.062(2) 0.531(3) -0.083(8)
H13E H 0.0190 0.5573 -0.1258
H14E H 0.0602 0.4961 -0.1546
H15E H 0.0593 0.5189 0.0312
Pb1A Pb 0.615521(12) 0.438740(9) 0.30280(3)
Pb1E Pb 0.384479(12) 0.561260(9) 0.69720(3)
Pb1F Pb 0.115521(12) 0.061260(9) -1.19720(3)
Pb1E_2 Pb 0.384479(12) 0.561260(9) -0.30280(3)
C10F C 0.2628(4) 0.2468(3) -0.5722(8)
H16F H 0.2991 0.2748 -0.5950
C11F C 0.2393(4) 0.2007(3) -0.6952(8)
C12F C 0.1867(4) 0.1570(3) -0.6787(8)
H17F H 0.1671 0.1539 -0.5784
C13F C 0.1634(4) 0.1183(3) -0.8087(8)
H18F H 0.1268 0.0889 -0.7960
N1F N 0.1897(3) 0.1198(3) -0.9534(7)
N1A N 0.6897(3) 0.3802(3) 0.5466(7)
C14F C 0.2698(5) 0.1995(3) -0.8434(10)
H19F H 0.3090 0.2263 -0.8573
loop_
_geom_bond_atom_site_label_1
_geom_bond_atom_site_label_2
_geom_bond_site_symmetry_1
_geom_bond_site_symmetry_2
O1 C3 1_555 1_555
O2 C2 1_555 1_555
O3 C3 1_555 1_555
O4 C2 1_555 1_555
C1 H1 1_555 1_555
C2 C5 1_555 1_555
C3 C4 1_555 1_555
C4 H2 1_555 1_555
H3 C4 1_555 1_555
C5 H4 1_555 1_555
H5 C5 1_555 1_555
C6 C4 1_555 1_555
H6 C6 1_555 1_555
H7 C6 1_555 1_555
C7 C5 1_555 1_555
H8 C7 1_555 1_555
H9 C7 1_555 1_555
C8 C6 1_555 1_555
H10 C8 1_555 1_555
H11 C8 1_555 1_555
H12 C8 1_555 1_555
C9 C7 1_555 1_555
H13 C9 1_555 1_555
H14 C9 1_555 1_555
H15 C9 1_555 1_555
Pb1 O1 1_555 1_555
O5 Pb1 1_555 1_555
C10 H16 1_555 1_555
C11 C10 1_555 1_555
C12 C11 1_555 1_555
H17 C12 1_555 1_555
C13 C12 1_555 1_555
H18 C13 1_555 1_555
N1 C1 1_555 1_555
C14 C1 1_555 1_555
H19 C14 1_555 1_555
O1A Pb1 1_555 1_555
O2E Pb1 1_555 1_555
O2A Pb1A 1_555 1_555
O2D Pb1A 1_555 1_555
O3A C3A 1_555 1_555
O4E C2E 1_555 1_555
O4A Pb1A 1_555 1_555
C1F H1F 1_555 1_555
C2E O2E 1_555 1_555
C3A O1A 1_555 1_555
C4A C3A 1_555 1_555
H2A C4A 1_555 1_555
H3A C4A 1_555 1_555
C5E C2E 1_555 1_555
H4E C5E 1_555 1_555
H5E C5E 1_555 1_555
C6A C4A 1_555 1_555
H6A C6A 1_555 1_555
H7A C6A 1_555 1_555
C7E C5E 1_555 1_555
H8E C7E 1_555 1_555
H9E C7E 1_555 1_555
C8A C6A 1_555 1_555
H10A C8A 1_555 1_555
H11A C8A 1_555 1_555
H12A C8A 1_555 1_555
C9E C7E 1_555 1_555
H13E C9E 1_555 1_555
H14E C9E 1_555 1_555
H15E C9E 1_555 1_555
Pb1A O1 1_555 1_555
Pb1E O2 1_555 1_555
Pb1F N1F 1_555 1_555
Pb1E_2 O2E 1_555 1_555
C10F C10 1_555 1_555
H16F C10F 1_555 1_555
C11F C10F 1_555 1_555
C12F C11F 1_555 1_555
H17F C12F 1_555 1_555
C13F C12F 1_555 1_555
H18F C13F 1_555 1_555
N1F C1F 1_555 1_555
N1A Pb1A 1_555 1_555
C14F C1F 1_555 1_555
H19F C14F 1_555 1_555
O2 Pb1 1_555 1_555
O3 Pb1 1_555 1_555
O4 Pb1 1_555 1_555
Pb1 N1 1_555 1_555
O5 Pb1A 1_555 1_555
C11 C14 1_555 1_555
C13 N1 1_555 1_555
O1A Pb1A 1_555 1_555
O3A Pb1A 1_555 1_555
O4E Pb1E_2 1_555 1_555
C11F C14F 1_555 1_555
C13F N1F 1_555 1_555

#END
