
#######################################################################
#
#                 Cambridge Crystallographic Data Centre
#                                CCDC 
#
#######################################################################
#
# If this CIF has been generated from an entry in the Cambridge 
# Structural Database, then it will include bibliographic, chemical, 
# crystal, experimental, refinement or atomic coordinate data resulting 
# from the CCDC's data processing and validation procedures.
#
#######################################################################

data_MAQXOT
_symmetry_cell_setting           monoclinic
_symmetry_space_group_name_H-M   'C 2/c'
_symmetry_Int_Tables_number      15
_space_group_name_Hall           '-C 2yn'
loop_
_symmetry_equiv_pos_site_id
_symmetry_equiv_pos_as_xyz
1 x,y,z
2 -x,y,1/2-z
3 1/2+x,1/2+y,z
4 1/2-x,1/2+y,1/2-z
5 -x,-y,-z
6 x,-y,1/2+z
7 1/2-x,1/2-y,-z
8 1/2+x,1/2-y,1/2+z
_cell_length_a                   18.479(4)
_cell_length_b                   22.360(5)
_cell_length_c                   8.2480(16)
_cell_angle_alpha                90
_cell_angle_beta                 100.64(3)
_cell_angle_gamma                90
_cell_volume                     3349.4
loop_
_atom_site_label
_atom_site_type_symbol
_atom_site_fract_x
_atom_site_fract_y
_atom_site_fract_z
O1 O 0.4910(2) 0.3911(2) 0.4525(4)
O2 O 0.33472(19) 0.47824(16) 0.4567(5)
O3 O 0.4022(2) 0.33695(15) 0.3107(4)
O4 O 0.2677(2) 0.4251(2) 0.2647(5)
C1 C 0.2602(3) 0.3401(2) -0.0376(6)
H1 H 0.2408 0.3393 0.0587
C2 C 0.2745(3) 0.4558(2) 0.3927(6)
C3 C 0.4597(3) 0.3416(2) 0.4169(6)
C4 C 0.5016(8) 0.2913(4) 0.5088(12)
H2 H 0.5532 0.2996 0.5099
H3 H 0.4946 0.2950 0.6221
C5 C 0.2081(3) 0.4659(4) 0.4708(9)
H4 H 0.2202 0.4517 0.5836
H5 H 0.2007 0.5088 0.4760
C6 C 0.4914(8) 0.2298(4) 0.4679(18)
H6 H 0.4894 0.2254 0.3501
H7 H 0.4441 0.2173 0.4914
C7 C 0.1394(6) 0.4401(7) 0.399(2)
H8 H 0.1435 0.3969 0.4077
H9 H 0.1289 0.4500 0.2821
C8 C 0.5478(7) 0.1901(5) 0.5539(18)
H10 H 0.5304 0.1496 0.5429
H11 H 0.5589 0.2007 0.6686
H12 H 0.5915 0.1936 0.5071
C9 C 0.0786(9) 0.4597(12) 0.473(4)
H13 H 0.0359 0.4360 0.4315
H14 H 0.0683 0.5010 0.4470
H15 H 0.0913 0.4550 0.5908
Pb1 Pb 0.386328(8) 0.437554(6) 0.195282(15)
O5 O 0.5000 0.5399(2) 0.2500
C10 C 0.2371(2) 0.2531(2) -0.4310(5)
H16 H 0.2005 0.2269 -0.4118
C11 C 0.2627(2) 0.29900(18) -0.3061(5)
C12 C 0.3148(2) 0.34214(19) -0.3202(5)
H17 H 0.3339 0.3452 -0.4167
C13 C 0.3384(2) 0.38063(19) -0.1907(5)
H18 H 0.3739 0.4089 -0.2023
N1 N 0.3129(2) 0.37945(17) -0.0494(4)
C14 C 0.2332(3) 0.3009(2) -0.1610(6)
H19 H 0.1950 0.2752 -0.1488
O1A O 0.5090(2) 0.3911(2) 0.0475(4)
O2E O 0.33472(19) 0.52176(16) -0.0433(5)
O2A O 0.66528(19) 0.47824(16) 0.0433(5)
O2D O 0.66528(19) 0.52176(16) 0.5433(5)
O3A O 0.5978(2) 0.33695(15) 0.1893(4)
O4E O 0.2677(2) 0.5749(2) -0.2353(5)
O4A O 0.7323(2) 0.4251(2) 0.2353(5)
C1F C 0.2398(3) 0.1599(2) -0.9624(6)
H1F H 0.2592 0.1607 -1.0587
C2E C 0.2745(3) 0.5442(2) -0.1073(6)
C3A C 0.5403(3) 0.3416(2) 0.0831(6)
C4A C 0.4984(8) 0.2913(4) -0.0088(12)
H2A H 0.4468 0.2996 -0.0099
H3A H 0.5054 0.2950 -0.1221
C5E C 0.2081(3) 0.5341(4) -0.0292(9)
H4E H 0.2202 0.5483 0.0836
H5E H 0.2007 0.4912 -0.0240
C6A C 0.5086(8) 0.2298(4) 0.0321(18)
H6A H 0.5106 0.2254 0.1499
H7A H 0.5559 0.2173 0.0086
C7E C 0.1394(6) 0.5599(7) -0.101(2)
H8E H 0.1435 0.6031 -0.0923
H9E H 0.1289 0.5500 -0.2179
C8A C 0.4522(7) 0.1901(5) -0.0539(18)
H10A H 0.4696 0.1496 -0.0429
H11A H 0.4411 0.2007 -0.1686
H12A H 0.4085 0.1936 -0.0071
C9E C 0.0786(9) 0.5403(12) -0.027(4)
H13E H 0.0359 0.5640 -0.0685
H14E H 0.0683 0.4990 -0.0530
H15E H 0.0913 0.5450 0.0908
Pb1A Pb 0.613672(8) 0.437554(6) 0.304718(15)
Pb1E Pb 0.386328(8) 0.562446(6) 0.695282(15)
Pb1F Pb 0.113672(8) 0.062446(6) -1.195282(15)
Pb1E_2 Pb 0.386328(8) 0.562446(6) -0.304718(15)
C10F C 0.2629(2) 0.2469(2) -0.5690(5)
H16F H 0.2995 0.2731 -0.5882
C11F C 0.2373(2) 0.20100(18) -0.6939(5)
C12F C 0.1852(2) 0.15786(19) -0.6798(5)
H17F H 0.1661 0.1548 -0.5833
C13F C 0.1616(2) 0.11937(19) -0.8093(5)
H18F H 0.1261 0.0911 -0.7977
N1F N 0.1871(2) 0.12055(17) -0.9506(4)
N1A N 0.6871(2) 0.37945(17) 0.5494(4)
C14F C 0.2668(3) 0.1991(2) -0.8390(6)
H19F H 0.3050 0.2248 -0.8512
loop_
_geom_bond_atom_site_label_1
_geom_bond_atom_site_label_2
_geom_bond_site_symmetry_1
_geom_bond_site_symmetry_2
O1 C3 1_555 1_555
O2 C2 1_555 1_555
O3 C3 1_555 1_555
O4 C2 1_555 1_555
C1 H1 1_555 1_555
C2 C5 1_555 1_555
C3 C4 1_555 1_555
C4 H2 1_555 1_555
H3 C4 1_555 1_555
C5 H4 1_555 1_555
H5 C5 1_555 1_555
C6 C4 1_555 1_555
H6 C6 1_555 1_555
H7 C6 1_555 1_555
C7 C5 1_555 1_555
H8 C7 1_555 1_555
H9 C7 1_555 1_555
C8 C6 1_555 1_555
H10 C8 1_555 1_555
H11 C8 1_555 1_555
H12 C8 1_555 1_555
C9 C7 1_555 1_555
H13 C9 1_555 1_555
H14 C9 1_555 1_555
H15 C9 1_555 1_555
Pb1 O1 1_555 1_555
O5 Pb1 1_555 1_555
C10 H16 1_555 1_555
C11 C10 1_555 1_555
C12 C11 1_555 1_555
H17 C12 1_555 1_555
C13 C12 1_555 1_555
H18 C13 1_555 1_555
N1 C1 1_555 1_555
C14 C1 1_555 1_555
H19 C14 1_555 1_555
O1A Pb1 1_555 1_555
O2E Pb1 1_555 1_555
O2A Pb1A 1_555 1_555
O2D Pb1A 1_555 1_555
O3A C3A 1_555 1_555
O4E C2E 1_555 1_555
O4A Pb1A 1_555 1_555
C1F H1F 1_555 1_555
C2E O2E 1_555 1_555
C3A O1A 1_555 1_555
C4A C3A 1_555 1_555
H2A C4A 1_555 1_555
H3A C4A 1_555 1_555
C5E C2E 1_555 1_555
H4E C5E 1_555 1_555
H5E C5E 1_555 1_555
C6A C4A 1_555 1_555
H6A C6A 1_555 1_555
H7A C6A 1_555 1_555
C7E C5E 1_555 1_555
H8E C7E 1_555 1_555
H9E C7E 1_555 1_555
C8A C6A 1_555 1_555
H10A C8A 1_555 1_555
H11A C8A 1_555 1_555
H12A C8A 1_555 1_555
C9E C7E 1_555 1_555
H13E C9E 1_555 1_555
H14E C9E 1_555 1_555
H15E C9E 1_555 1_555
Pb1A O1 1_555 1_555
Pb1E O2 1_555 1_555
Pb1F N1F 1_555 1_555
Pb1E_2 O2E 1_555 1_555
C10F C10 1_555 1_555
H16F C10F 1_555 1_555
C11F C10F 1_555 1_555
C12F C11F 1_555 1_555
H17F C12F 1_555 1_555
C13F C12F 1_555 1_555
H18F C13F 1_555 1_555
N1F C1F 1_555 1_555
N1A Pb1A 1_555 1_555
C14F C1F 1_555 1_555
H19F C14F 1_555 1_555
O2 Pb1 1_555 1_555
O3 Pb1 1_555 1_555
O4 Pb1 1_555 1_555
Pb1 N1 1_555 1_555
O5 Pb1A 1_555 1_555
C11 C14 1_555 1_555
C13 N1 1_555 1_555
O1A Pb1A 1_555 1_555
O3A Pb1A 1_555 1_555
O4E Pb1E_2 1_555 1_555
C11F C14F 1_555 1_555
C13F N1F 1_555 1_555

#END
