
#######################################################################
#
#                 Cambridge Crystallographic Data Centre
#                                CCDC 
#
#######################################################################
#
# If this CIF has been generated from an entry in the Cambridge 
# Structural Database, then it will include bibliographic, chemical, 
# crystal, experimental, refinement or atomic coordinate data resulting 
# from the CCDC's data processing and validation procedures.
#
#######################################################################

data_MAQYUA
_symmetry_cell_setting           triclinic
_symmetry_space_group_name_H-M   'P -1'
_symmetry_Int_Tables_number      2
_space_group_name_Hall           '-P 1'
loop_
_symmetry_equiv_pos_site_id
_symmetry_equiv_pos_as_xyz
1 x,y,z
2 -x,-y,-z
_cell_length_a                   10.3443(14)
_cell_length_b                   10.6769(14)
_cell_length_c                   11.0401(15)
_cell_angle_alpha                81.775(2)
_cell_angle_beta                 66.0240(10)
_cell_angle_gamma                70.7420(10)
_cell_volume                     1051.72
loop_
_atom_site_label
_atom_site_type_symbol
_atom_site_fract_x
_atom_site_fract_y
_atom_site_fract_z
Cd1 Cd 0.44574(2) 0.40952(2) 1.30220(2)
N1 N 0.5584(3) 0.2599(3) 1.1276(2)
N2 N 0.7161(4) 0.0991(3) 0.9833(3)
N3 N 0.6249(3) 0.1884(3) 0.9303(3)
N4 N 0.5233(4) 0.1056(3) 0.6005(3)
N5 N 0.3760(5) 0.1251(4) 0.6486(3)
N6 N 0.4433(3) 0.2565(3) 0.4724(3)
O1 O 0.2846(3) 0.5219(3) 1.2094(3)
O2 O 0.1779(3) 0.3750(3) 1.3321(3)
O3 O -0.3159(2) 0.3944(2) 1.3134(2)
O4 O -0.3919(2) 0.5344(2) 1.1735(2)
O5 O 0.3168(3) 0.5892(2) 1.4449(2)
H1 H 0.3255 0.5772 1.5175
H2 H 0.2285 0.6038 1.4539
C1 C 0.0585(3) 0.5291(3) 1.2015(3)
C2 C -0.0614(3) 0.4810(3) 1.2398(3)
H5 H -0.0693 0.4112 1.3006
C3 C -0.1697(3) 0.5363(3) 1.1879(3)
C4 C -0.1571(3) 0.6399(3) 1.0976(3)
H6 H -0.2299 0.6765 1.0628
C5 C -0.0386(3) 0.6904(3) 1.0576(4)
C6 C 0.0678(3) 0.6338(3) 1.1108(3)
H7 H 0.1481 0.6666 1.0853
C7 C 0.1811(4) 0.4704(4) 1.2531(4)
C8 C -0.3003(3) 0.4851(3) 1.2273(3)
C9 C -0.0256(4) 0.8015(4) 0.9568(4)
H8 H -0.0194 0.8747 0.9935
H9 H -0.1111 0.8298 0.9339
H10 H 0.0622 0.7709 0.8788
C10 C 0.6704(4) 0.1472(4) 1.1016(4)
H11 H 0.7127 0.1060 1.1625
C11 C 0.5336(4) 0.2836(3) 1.0164(3)
H12 H 0.4622 0.3567 1.0013
C12 C 0.6352(4) 0.1680(3) 0.7982(3)
H13 H 0.7362 0.1563 0.7350
H14 H 0.5710 0.2454 0.7714
C13 C 0.5903(6) 0.0475(4) 0.7982(4)
H15 H 0.4855 0.0647 0.8527
H16 H 0.6447 -0.0265 0.8379
C14 C 0.6188(6) 0.0090(4) 0.6601(4)
H17 H 0.7216 -0.0002 0.6033
H18 H 0.6031 -0.0767 0.6651
C15 C 0.5611(4) 0.1831(3) 0.4964(3)
H19 H 0.6575 0.1857 0.4467
C16 C 0.3336(5) 0.2161(4) 0.5688(4)
H20 H 0.2351 0.2506 0.5778
Cd1_2 Cd 0.44574(2) 0.40952(2) 0.30220(2)
Cd1_3 Cd -0.55426(2) 0.40952(2) 1.30220(2)
N6_2 N 0.4433(3) 0.2565(3) 1.4724(3)
O3_2 O 0.6841(2) 0.3944(2) 1.3134(2)
O4_2 O 0.6081(2) 0.5344(2) 1.1735(2)
O6 O 1.0183(4) 0.7474(5) 0.4942(4)
H3 H 1.0217 0.7515 0.4198
H4 H 0.9544 0.7135 0.5484
loop_
_geom_bond_atom_site_label_1
_geom_bond_atom_site_label_2
_geom_bond_site_symmetry_1
_geom_bond_site_symmetry_2
Cd1 N1 1_555 1_555
N1 C10 1_555 1_555
N2 N3 1_555 1_555
N3 C11 1_555 1_555
N4 N5 1_555 1_555
N5 C16 1_555 1_555
N6 C15 1_555 1_555
O1 Cd1 1_555 1_555
O2 C7 1_555 1_555
O3 C8 1_555 1_555
O4 C8 1_555 1_555
O5 Cd1 1_555 1_555
H1 O5 1_555 1_555
H2 O5 1_555 1_555
O6 H3 1_555 1_555
H4 O6 1_555 1_555
C1 C2 1_555 1_555
C2 H5 1_555 1_555
C3 C2 1_555 1_555
C4 C3 1_555 1_555
H6 C4 1_555 1_555
C5 C4 1_555 1_555
C6 C1 1_555 1_555
H7 C6 1_555 1_555
C7 O1 1_555 1_555
C8 C3 1_555 1_555
C9 C5 1_555 1_555
H8 C9 1_555 1_555
H9 C9 1_555 1_555
H10 C9 1_555 1_555
C10 N2 1_555 1_555
H11 C10 1_555 1_555
C11 N1 1_555 1_555
H12 C11 1_555 1_555
C12 N3 1_555 1_555
H13 C12 1_555 1_555
H14 C12 1_555 1_555
C13 C12 1_555 1_555
H15 C13 1_555 1_555
H16 C13 1_555 1_555
C14 N4 1_555 1_555
H17 C14 1_555 1_555
H18 C14 1_555 1_555
C15 N4 1_555 1_555
H19 C15 1_555 1_555
C16 N6 1_555 1_555
H20 C16 1_555 1_555
Cd1_2 N6 1_555 1_555
Cd1_3 O3 1_555 1_555
N6_2 Cd1 1_555 1_555
O3_2 Cd1 1_555 1_555
O4_2 Cd1 1_555 1_555
O4 Cd1_3 1_555 1_555
C1 C7 1_555 1_555
C5 C6 1_555 1_555
C13 C14 1_555 1_555

#END
