
#######################################################################
#
#                 Cambridge Crystallographic Data Centre
#                                CCDC 
#
#######################################################################
#
# If this CIF has been generated from an entry in the Cambridge 
# Structural Database, then it will include bibliographic, chemical, 
# crystal, experimental, refinement or atomic coordinate data resulting 
# from the CCDC's data processing and validation procedures.
#
#######################################################################

data_MAQYIO
_symmetry_cell_setting           triclinic
_symmetry_space_group_name_H-M   'P -1'
_symmetry_Int_Tables_number      2
_space_group_name_Hall           '-P 1'
loop_
_symmetry_equiv_pos_site_id
_symmetry_equiv_pos_as_xyz
1 x,y,z
2 -x,-y,-z
_cell_length_a                   9.3161(12)
_cell_length_b                   10.4338(13)
_cell_length_c                   11.5703(15)
_cell_angle_alpha                87.7020(10)
_cell_angle_beta                 68.2570(10)
_cell_angle_gamma                69.2070(10)
_cell_volume                     971.181
loop_
_atom_site_label
_atom_site_type_symbol
_atom_site_fract_x
_atom_site_fract_y
_atom_site_fract_z
Cd1 Cd 0.85822(2) 0.667475(19) 1.143421(18)
O1 O 0.9852(3) 0.46339(19) 1.2096(2)
O2 O 0.9201(2) 0.3900(2) 1.0652(2)
O3 O 0.8093(3) -0.0640(3) 1.1461(2)
O4 O 1.0018(3) -0.2251(2) 1.1929(2)
O5 O 1.1788(3) 0.0374(2) 1.4256(2)
N1 N 0.6692(3) 0.7193(2) 1.0550(2)
N2 N 0.5148(3) 0.6981(3) 0.9578(2)
N3 N 0.5121(3) 0.6564(3) 0.5357(2)
N4 N 0.6513(3) 0.6883(3) 0.3431(2)
C1 C 1.0034(3) 0.2306(3) 1.2038(3)
C2 C 0.9564(3) 0.1328(3) 1.1662(3)
H1 H 0.9056 0.1518 1.1086
C3 C 0.9851(4) 0.0056(3) 1.2149(3)
C4 C 1.0632(4) -0.0224(3) 1.2992(3)
H2 H 1.0856 -0.1081 1.3297
C5 C 1.1085(3) 0.0761(3) 1.3385(3)
C6 C 1.0784(3) 0.2028(3) 1.2914(3)
H3 H 1.1080 0.2692 1.3179
C7 C 0.9681(3) 0.3701(3) 1.1550(3)
C8 C 0.9263(4) -0.1002(3) 1.1808(3)
C9 C 1.2330(5) 0.1310(4) 1.4687(4)
H4 H 1.1430 0.2184 1.4988
H5 H 1.2684 0.0948 1.5353
H6 H 1.3240 0.1428 1.4010
C10 C 0.5418(4) 0.8439(3) 1.0696(3)
H7 H 0.5246 0.9241 1.1138
C11 C 0.4460(4) 0.8324(3) 1.0104(3)
H8 H 0.3523 0.9013 1.0061
C12 C 0.6481(3) 0.6349(3) 0.9866(3)
H9 H 0.7171 0.5429 0.9615
C13 C 0.4612(4) 0.6365(4) 0.8772(3)
H10 H 0.3426 0.6573 0.9171
H11 H 0.5169 0.5371 0.8666
C14 C 0.4999(4) 0.6904(3) 0.7499(3)
H12 H 0.4269 0.7858 0.7583
H13 H 0.6134 0.6870 0.7172
C15 C 0.4774(4) 0.6055(3) 0.6595(3)
H14 H 0.5513 0.5104 0.6509
H15 H 0.3643 0.6080 0.6932
C16 C 0.6601(4) 0.6186(3) 0.4395(3)
H16 H 0.7569 0.5515 0.4408
C17 C 0.4883(4) 0.7747(4) 0.3809(3)
H17 H 0.4435 0.8365 0.3321
C18 C 0.4023(4) 0.7571(4) 0.4991(3)
H18 H 0.2902 0.8044 0.5462
Cd1A Cd 1.14178(2) 0.332525(19) 0.856579(18)
Cd1_2 Cd 0.85822(2) -0.332525(19) 1.143421(18)
Cd1_3 Cd 0.85822(2) 0.667475(19) 0.143421(18)
O2A O 1.0799(2) 0.6100(2) 0.9348(2)
O4_2 O 1.0018(3) 0.7749(2) 1.1929(2)
N4_2 N 0.6513(3) 0.6883(3) 1.3431(2)
O6 O 0.8670(7) 0.4333(6) 0.6526(7)
H19 H 0.9463 0.4610 0.6296
H20 H 0.8692 0.3848 0.7112
loop_
_geom_bond_atom_site_label_1
_geom_bond_atom_site_label_2
_geom_bond_site_symmetry_1
_geom_bond_site_symmetry_2
Cd1 O1 1_555 1_555
O1 C7 1_555 1_555
O2 C7 1_555 1_555
O3 C8 1_555 1_555
O4 C8 1_555 1_555
O5 C5 1_555 1_555
N1 Cd1 1_555 1_555
N2 C11 1_555 1_555
N3 C15 1_555 1_555
N4 C16 1_555 1_555
C1 C2 1_555 1_555
C2 H1 1_555 1_555
C3 C2 1_555 1_555
C4 C3 1_555 1_555
H2 C4 1_555 1_555
C5 C4 1_555 1_555
C6 C1 1_555 1_555
H3 C6 1_555 1_555
C7 C1 1_555 1_555
C8 C3 1_555 1_555
C9 O5 1_555 1_555
H4 C9 1_555 1_555
H5 C9 1_555 1_555
H6 C9 1_555 1_555
C10 N1 1_555 1_555
H7 C10 1_555 1_555
C11 C10 1_555 1_555
H8 C11 1_555 1_555
C12 N1 1_555 1_555
H9 C12 1_555 1_555
C13 N2 1_555 1_555
H10 C13 1_555 1_555
H11 C13 1_555 1_555
C14 C13 1_555 1_555
H12 C14 1_555 1_555
H13 C14 1_555 1_555
C15 C14 1_555 1_555
H14 C15 1_555 1_555
H15 C15 1_555 1_555
C16 N3 1_555 1_555
H16 C16 1_555 1_555
C17 N4 1_555 1_555
H17 C17 1_555 1_555
C18 N3 1_555 1_555
H18 C18 1_555 1_555
O6 H19 1_555 1_555
H20 O6 1_555 1_555
Cd1A O2 1_555 1_555
Cd1_2 O4 1_555 1_555
Cd1_3 N4 1_555 1_555
O2A Cd1 1_555 1_555
O4_2 Cd1 1_555 1_555
N4_2 Cd1 1_555 1_555
N2 C12 1_555 1_555
C5 C6 1_555 1_555
C17 C18 1_555 1_555

#END
