
#######################################################################
#
#                 Cambridge Crystallographic Data Centre
#                                CCDC 
#
#######################################################################
#
# If this CIF has been generated from an entry in the Cambridge 
# Structural Database, then it will include bibliographic, chemical, 
# crystal, experimental, refinement or atomic coordinate data resulting 
# from the CCDC's data processing and validation procedures.
#
#######################################################################

data_MAQYEK
_symmetry_cell_setting           triclinic
_symmetry_space_group_name_H-M   'P -1'
_symmetry_Int_Tables_number      2
_space_group_name_Hall           '-P 1'
loop_
_symmetry_equiv_pos_site_id
_symmetry_equiv_pos_as_xyz
1 x,y,z
2 -x,-y,-z
_cell_length_a                   11.326(2)
_cell_length_b                   11.827(2)
_cell_length_c                   17.784(3)
_cell_angle_alpha                94.695(2)
_cell_angle_beta                 104.155(2)
_cell_angle_gamma                100.960(2)
_cell_volume                     2247.05
loop_
_atom_site_label
_atom_site_type_symbol
_atom_site_fract_x
_atom_site_fract_y
_atom_site_fract_z
Cd1 Cd 0.601239(14) 0.082360(12) 0.375844(8)
Cd2 Cd 0.567340(13) -0.430020(12) -0.133270(7)
O1 O 0.49318(15) 0.04605(13) 0.25032(8)
O2 O 0.62000(16) -0.07425(14) 0.25543(9)
O3 O 0.58397(13) -0.32217(12) -0.00506(8)
O4 O 0.45387(14) -0.28920(12) -0.11027(7)
O5 O 0.23756(15) 0.01046(16) -0.01636(10)
O6 O 0.48143(15) 0.22203(13) 0.38826(8)
O7 O 0.59822(14) 0.19231(12) 0.49937(8)
O8 O 0.59161(15) 0.43733(14) 0.74770(8)
O9 O 0.44852(15) 0.54091(13) 0.73808(8)
O10 O 0.20833(15) 0.47029(16) 0.45166(9)
O11 O 0.43409(16) -0.05850(14) 0.38670(9)
H1 H 0.4226 -0.0912 0.4251
H2 H 0.4049 -0.1054 0.3459
O12 O 0.40235(14) -0.56980(12) -0.12283(8)
H3 H 0.3659 -0.6141 -0.1642
H4 H 0.4000 -0.6036 -0.0842
N1 N 0.75062(16) 0.21615(15) 0.33933(10)
N2 N 0.92257(19) 0.3350(2) 0.32891(12)
N3 N 0.82324(16) 0.33863(16) 0.26877(10)
N4 N 0.86199(15) 0.44797(15) 0.03444(9)
N5 N 0.83688(17) 0.35746(16) -0.02361(11)
N6 N 0.71340(16) 0.48146(15) -0.05841(9)
N7 N 0.71069(16) -0.28082(15) 0.84035(9)
N8 N 0.86494(19) -0.1241(2) 0.85353(12)
N9 N 0.78540(16) -0.14320(16) 0.78034(10)
N10 N 0.87685(17) -0.01912(17) 0.56476(10)
N11 N 0.8634(2) -0.11347(18) 0.51174(13)
N12 N 0.74223(17) 0.00486(16) 0.46074(10)
C1 C 0.47555(18) -0.07018(16) 0.13258(10)
C2 C 0.51466(18) -0.15314(16) 0.09000(10)
H19 H 0.5767 -0.1890 0.1151
C3 C 0.46129(17) -0.18218(16) 0.01032(10)
C4 C 0.36787(17) -0.12903(17) -0.02771(11)
H20 H 0.3325 -0.1484 -0.0813
C5 C 0.32799(18) -0.04763(18) 0.01445(12)
C6 C 0.38239(19) -0.01814(18) 0.09439(12)
H21 H 0.3559 0.0372 0.1226
C7 C 0.5343(2) -0.03109(18) 0.21856(11)
C8 C 0.50228(18) -0.27017(16) -0.03794(11)
C9 C 0.1840(2) -0.0076(2) -0.09786(16)
H22 H 0.2488 0.0064 -0.1243
H23 H 0.1293 0.0447 -0.1113
H24 H 0.1374 -0.0863 -0.1135
C10 C 0.45885(18) 0.31989(17) 0.50375(10)
C11 C 0.50449(18) 0.35366(17) 0.58426(10)
H25 H 0.5706 0.3256 0.6128
C12 C 0.45044(18) 0.42976(17) 0.62171(10)
C13 C 0.35088(19) 0.47124(18) 0.57907(11)
H26 H 0.3150 0.5224 0.6040
C14 C 0.30563(19) 0.43564(19) 0.49917(12)
C15 C 0.36027(19) 0.36094(18) 0.46206(11)
H27 H 0.3301 0.3382 0.4084
C16 C 0.51623(19) 0.23975(17) 0.46127(11)
C17 C 0.4993(2) 0.47177(18) 0.70830(11)
C18 C 0.1548(2) 0.5538(2) 0.48437(16)
H28 H 0.1242 0.5250 0.5265
H29 H 0.0870 0.5688 0.4449
H30 H 0.2167 0.6245 0.5040
C19 C 0.8735(2) 0.2600(2) 0.36941(13)
H31 H 0.9198 0.2390 0.4149
C20 C 0.72234(19) 0.26842(18) 0.27617(12)
H32 H 0.6431 0.2573 0.2421
C21 C 0.8377(2) 0.41206(19) 0.20743(13)
H33 H 0.8737 0.4920 0.2311
H34 H 0.7566 0.4095 0.1723
C22 C 0.9212(2) 0.3702(2) 0.16161(12)
H35 H 0.8779 0.2956 0.1310
H36 H 0.9957 0.3587 0.1980
C23 C 0.9594(2) 0.4544(2) 0.10703(13)
H37 H 0.9810 0.5330 0.1343
H38 H 1.0333 0.4381 0.0940
C24 C 0.78777(19) 0.51985(19) 0.01301(12)
H39 H 0.7876 0.5875 0.0435
C25 C 0.7474(2) 0.38240(18) -0.07750(12)
H40 H 0.7103 0.3353 -0.1252
C26 C 0.8164(2) -0.2102(2) 0.88692(14)
H41 H 0.8516 -0.2215 0.9380
C27 C 0.69368(19) -0.23338(17) 0.77445(11)
H42 H 0.6267 -0.2600 0.7305
C28 C 0.8089(2) -0.0675(2) 0.72183(13)
H43 H 0.8244 0.0132 0.7443
H44 H 0.7361 -0.0826 0.6773
C29 C 0.9202(2) -0.0894(2) 0.69524(14)
H45 H 0.8994 -0.1672 0.6668
H46 H 0.9888 -0.0862 0.7410
C30 C 0.9633(2) -0.0032(2) 0.64324(14)
H47 H 0.9722 0.0751 0.6682
H48 H 1.0447 -0.0116 0.6382
C31 C 0.8050(2) 0.0495(2) 0.53301(12)
H49 H 0.7995 0.1196 0.5582
C32 C 0.7811(2) -0.0946(2) 0.45098(15)
H50 H 0.7518 -0.1459 0.4047
Cd2_2 Cd 0.567340(13) 0.569980(12) 0.866730(7)
Cd2_3 Cd 0.567340(13) 0.569980(12) -0.133270(7)
Cd2_4 Cd 0.567340(13) -0.430020(12) 0.866730(7)
O8_2 O 0.59161(15) -0.56267(14) -0.25230(8)
O9_2 O 0.44852(15) -0.45909(13) -0.26192(8)
N6_2 N 0.71340(16) -0.51854(15) -0.05841(9)
N7_2 N 0.71069(16) -0.28082(15) -0.15965(9)
O13 O 0.74069(17) 0.75015(16) 0.24119(11)
H5 H 0.7696 0.7352 0.2858
H6 H 0.7135 0.8107 0.2432
O14 O 0.9022(2) 0.6947(2) 0.37915(15)
H7 H 0.9617 0.6983 0.3575
H8 H 0.8552 0.6289 0.3654
O15 O 0.95291(19) 0.1579(2) 0.93670(13)
H9 H 0.9367 0.2162 0.9580
H10 H 0.9264 0.0986 0.9555
O16 O -0.0603(2) -0.2483(2) 0.17349(14)
H11 H -0.1131 -0.2132 0.1832
H12 H -0.0292 -0.2190 0.1400
O17 O 0.0941(2) -0.2945(2) 0.30799(16)
H13 H 0.1271 -0.3512 0.3055
H14 H 0.0738 -0.2723 0.2629
O18 O 0.3252(2) -0.22250(18) 0.25720(12)
H15 H 0.3680 -0.2725 0.2603
H16 H 0.2789 -0.2322 0.2878
O19 O 0.82063(19) 0.4940(2) 0.71172(12)
H17 H 0.7572 0.5024 0.7253
H18 H 0.8160 0.5133 0.6668
loop_
_geom_bond_atom_site_label_1
_geom_bond_atom_site_label_2
_geom_bond_site_symmetry_1
_geom_bond_site_symmetry_2
Cd1 O1 1_555 1_555
Cd2 O3 1_555 1_555
O1 C7 1_555 1_555
O2 C7 1_555 1_555
O3 C8 1_555 1_555
O4 Cd2 1_555 1_555
O5 C5 1_555 1_555
O6 Cd1 1_555 1_555
O7 Cd1 1_555 1_555
O8 C17 1_555 1_555
O9 C17 1_555 1_555
O10 C14 1_555 1_555
O11 Cd1 1_555 1_555
H1 O11 1_555 1_555
H2 O11 1_555 1_555
O12 Cd2 1_555 1_555
H3 O12 1_555 1_555
H4 O12 1_555 1_555
O13 H5 1_555 1_555
H6 O13 1_555 1_555
O14 H7 1_555 1_555
H8 O14 1_555 1_555
O15 H9 1_555 1_555
H10 O15 1_555 1_555
O16 H11 1_555 1_555
H12 O16 1_555 1_555
O17 H13 1_555 1_555
H14 O17 1_555 1_555
O18 H15 1_555 1_555
H16 O18 1_555 1_555
O19 H17 1_555 1_555
H18 O19 1_555 1_555
N1 Cd1 1_555 1_555
N2 N3 1_555 1_555
N3 C20 1_555 1_555
N4 N5 1_555 1_555
N5 C25 1_555 1_555
N6 C24 1_555 1_555
N7 C26 1_555 1_555
N8 N9 1_555 1_555
N9 C27 1_555 1_555
N10 N11 1_555 1_555
N11 C32 1_555 1_555
N12 Cd1 1_555 1_555
C1 C2 1_555 1_555
C2 H19 1_555 1_555
C3 C2 1_555 1_555
C4 C3 1_555 1_555
H20 C4 1_555 1_555
C5 C4 1_555 1_555
C6 C1 1_555 1_555
H21 C6 1_555 1_555
C7 C1 1_555 1_555
C8 O4 1_555 1_555
C9 O5 1_555 1_555
H22 C9 1_555 1_555
H23 C9 1_555 1_555
H24 C9 1_555 1_555
C10 C11 1_555 1_555
C11 H25 1_555 1_555
C12 C11 1_555 1_555
C13 C12 1_555 1_555
H26 C13 1_555 1_555
C14 C13 1_555 1_555
C15 C10 1_555 1_555
H27 C15 1_555 1_555
C16 O6 1_555 1_555
C17 C12 1_555 1_555
C18 O10 1_555 1_555
H28 C18 1_555 1_555
H29 C18 1_555 1_555
H30 C18 1_555 1_555
C19 N1 1_555 1_555
H31 C19 1_555 1_555
C20 N1 1_555 1_555
H32 C20 1_555 1_555
C21 N3 1_555 1_555
H33 C21 1_555 1_555
H34 C21 1_555 1_555
C22 C21 1_555 1_555
H35 C22 1_555 1_555
H36 C22 1_555 1_555
C23 N4 1_555 1_555
H37 C23 1_555 1_555
H38 C23 1_555 1_555
C24 N4 1_555 1_555
H39 C24 1_555 1_555
C25 N6 1_555 1_555
H40 C25 1_555 1_555
C26 N8 1_555 1_555
H41 C26 1_555 1_555
C27 N7 1_555 1_555
H42 C27 1_555 1_555
C28 N9 1_555 1_555
H43 C28 1_555 1_555
H44 C28 1_555 1_555
C29 C28 1_555 1_555
H45 C29 1_555 1_555
H46 C29 1_555 1_555
C30 N10 1_555 1_555
H47 C30 1_555 1_555
H48 C30 1_555 1_555
C31 N10 1_555 1_555
H49 C31 1_555 1_555
C32 N12 1_555 1_555
H50 C32 1_555 1_555
Cd2_2 O8 1_555 1_555
Cd2_3 N6 1_555 1_555
Cd2_4 N7 1_555 1_555
O8_2 Cd2 1_555 1_555
O9_2 Cd2 1_555 1_555
N6_2 Cd2 1_555 1_555
N7_2 Cd2 1_555 1_555
O7 C16 1_555 1_555
O9 Cd2_2 1_555 1_555
N2 C19 1_555 1_555
N12 C31 1_555 1_555
C3 C8 1_555 1_555
C5 C6 1_555 1_555
C10 C16 1_555 1_555
C14 C15 1_555 1_555
C22 C23 1_555 1_555
C29 C30 1_555 1_555

#END
