
#######################################################################
#
#                 Cambridge Crystallographic Data Centre
#                                CCDC 
#
#######################################################################
#
# If this CIF has been generated from an entry in the Cambridge 
# Structural Database, then it will include bibliographic, chemical, 
# crystal, experimental, refinement or atomic coordinate data resulting 
# from the CCDC's data processing and validation procedures.
#
#######################################################################

data_MAQZEL
_symmetry_cell_setting           triclinic
_symmetry_space_group_name_H-M   'P -1'
_symmetry_Int_Tables_number      2
_space_group_name_Hall           '-P 1'
loop_
_symmetry_equiv_pos_site_id
_symmetry_equiv_pos_as_xyz
1 x,y,z
2 -x,-y,-z
_cell_length_a                   7.9338(9)
_cell_length_b                   9.7756(11)
_cell_length_c                   10.6865(12)
_cell_angle_alpha                87.1660(10)
_cell_angle_beta                 77.8170(10)
_cell_angle_gamma                70.7730(10)
_cell_volume                     764.784
loop_
_atom_site_label
_atom_site_type_symbol
_atom_site_fract_x
_atom_site_fract_y
_atom_site_fract_z
Cd1 Cd 0.49906(2) 0.216213(16) -0.055948(14)
O1 O 0.2836(2) 0.08445(17) 0.01090(14)
O2 O 0.3083(2) -0.03859(16) 0.19009(15)
O3 O -0.3444(2) 0.67298(17) 0.21974(16)
O4 O -0.2837(2) 0.53894(17) 0.04637(15)
O5 O 0.72932(10) 0.31630(7) -0.10556(7)
H1 H 0.8345 0.2621 -0.1356
H2 H 0.7314 0.3726 -0.0508
N1 N 0.49781(10) 0.24889(7) 0.15440(7)
N2 N 0.54759(10) 0.21724(7) 0.34817(7)
N3 N 0.40888(10) 0.34572(7) 0.35332(7)
C1 C 0.23617(10) 0.07180(7) 0.13109(7)
C2 C 0.08834(10) 0.19543(7) 0.20816(7)
C3 C 0.06122(10) 0.19542(7) 0.34185(7)
H5 H 0.1282 0.1153 0.3817
C4 C -0.0628(3) 0.3116(2) 0.4162(2)
C5 C -0.1678(3) 0.4282(2) 0.3551(2)
H6 H -0.2523 0.5069 0.4038
C6 C -0.1479(3) 0.4287(2) 0.2225(2)
C7 C -0.0183(3) 0.3125(2) 0.1489(2)
H7 H -0.0030 0.3131 0.0602
C8 C -0.0838(4) 0.3123(3) 0.5604(2)
H8 H -0.0090 0.3624 0.5838
H9 H -0.0467 0.2144 0.5893
H10 H -0.2092 0.3605 0.5997
C9 C -0.2660(3) 0.5540(2) 0.1591(2)
C10 C 0.3866(4) 0.3596(3) 0.2355(2)
H11 H 0.3007 0.4396 0.2088
C11 C 0.5967(3) 0.1624(3) 0.2304(2)
H12 H 0.6884 0.0750 0.2044
C12 C 0.6057(4) 0.1553(3) 0.4655(2)
H13 H 0.5991 0.2330 0.5213
H14 H 0.7318 0.0930 0.4441
C13 C 0.4902(3) 0.0688(3) 0.5361(2)
H15 H 0.3632 0.1297 0.5523
H16 H 0.5236 0.0421 0.6183
Cd1A Cd 0.50094(2) -0.216213(16) 0.055948(14)
Cd1A_2 Cd -0.49906(2) 0.783787(16) 0.055948(14)
Cd1A_3 Cd 0.50094(2) -0.216213(16) 1.055948(14)
Cd1_2 Cd 1.49906(2) -0.783787(16) -0.055948(14)
O1A O 0.7164(2) -0.08445(17) -0.01090(14)
O2A O 0.6917(2) 0.03859(16) -0.19009(15)
O3A O 1.3444(2) -0.67298(17) -0.21974(16)
O3A_2 O 0.3444(2) 0.32702(17) -0.21974(16)
O3_2 O 0.6556(2) -0.32702(17) 0.21974(16)
O4A O 1.2837(2) -0.53894(17) -0.04637(15)
O4A_2 O 0.2837(2) 0.46106(17) -0.04637(15)
O4_2 O 0.7163(2) -0.46106(17) 0.04637(15)
O5A O 0.27068(10) -0.31630(7) 0.10556(7)
H1A H 0.1655 -0.2621 0.1356
H2A H 0.2686 -0.3726 0.0508
N1A N 0.50219(10) -0.24889(7) 0.84560(7)
N1A_2 N 0.50219(10) -0.24889(7) -0.15440(7)
N2A N 0.45241(10) -0.21724(7) 0.65183(7)
N3A N 0.59112(10) -0.34572(7) 0.64668(7)
C1A C 0.76383(10) -0.07180(7) -0.13109(7)
C2A C 0.91166(10) -0.19543(7) -0.20816(7)
C3A C 0.93878(10) -0.19542(7) -0.34185(7)
H5A H 0.8718 -0.1153 -0.3817
C4A C 1.0628(3) -0.3116(2) -0.4162(2)
C5A C 1.1678(3) -0.4282(2) -0.3551(2)
H6A H 1.2523 -0.5069 -0.4038
C6A C 1.1479(3) -0.4287(2) -0.2225(2)
C7A C 1.0183(3) -0.3125(2) -0.1489(2)
H7A H 1.0030 -0.3131 -0.0602
C8A C 1.0838(4) -0.3123(3) -0.5604(2)
H8A H 1.0090 -0.3624 -0.5838
H9A H 1.0467 -0.2144 -0.5893
H10A H 1.2092 -0.3605 -0.5997
C9A C 1.2660(3) -0.5540(2) -0.1591(2)
C10A C 0.6134(4) -0.3596(3) 0.7645(2)
H11A H 0.6993 -0.4396 0.7912
C11A C 0.4033(3) -0.1624(3) 0.7696(2)
H12A H 0.3116 -0.0750 0.7956
C12A C 0.3943(4) -0.1553(3) 0.5345(2)
H13A H 0.4009 -0.2330 0.4787
H14A H 0.2682 -0.0930 0.5559
C13A C 0.5098(3) -0.0688(3) 0.4639(2)
H15A H 0.6368 -0.1297 0.4477
H16A H 0.4764 -0.0421 0.3817
O6 O 0.09454(10) 0.16571(7) 0.81589(7)
H3 H 0.1282 0.2359 0.7904
H4 H 0.1312 0.1322 0.8812
loop_
_geom_bond_atom_site_label_1
_geom_bond_atom_site_label_2
_geom_bond_site_symmetry_1
_geom_bond_site_symmetry_2
Cd1 O1 1_555 1_555
O1 C1 1_555 1_555
O2 C1 1_555 1_555
O3 C9 1_555 1_555
O4 C9 1_555 1_555
O5 Cd1 1_555 1_555
H1 O5 1_555 1_555
H2 O5 1_555 1_555
O6 H3 1_555 1_555
H4 O6 1_555 1_555
N1 Cd1 1_555 1_555
N2 N3 1_555 1_555
N3 C10 1_555 1_555
C1 C2 1_555 1_555
C2 C3 1_555 1_555
C3 H5 1_555 1_555
C4 C3 1_555 1_555
C5 C4 1_555 1_555
H6 C5 1_555 1_555
C6 C5 1_555 1_555
C7 C2 1_555 1_555
H7 C7 1_555 1_555
C8 C4 1_555 1_555
H8 C8 1_555 1_555
H9 C8 1_555 1_555
H10 C8 1_555 1_555
C9 C6 1_555 1_555
C10 N1 1_555 1_555
H11 C10 1_555 1_555
C11 N1 1_555 1_555
H12 C11 1_555 1_555
C12 N2 1_555 1_555
H13 C12 1_555 1_555
H14 C12 1_555 1_555
C13 C12 1_555 1_555
H15 C13 1_555 1_555
H16 C13 1_555 1_555
Cd1A O2 1_555 1_555
Cd1A_2 O3 1_555 1_555
Cd1A_3 N1A 1_555 1_555
Cd1_2 O3A 1_555 1_555
O1A Cd1A 1_555 1_555
O2A Cd1 1_555 1_555
O3A C9A 1_555 1_555
O3A_2 Cd1 1_555 1_555
O3_2 Cd1A 1_555 1_555
O4A Cd1_2 1_555 1_555
O4A_2 Cd1 1_555 1_555
O4_2 Cd1A 1_555 1_555
O5A Cd1A 1_555 1_555
H1A O5A 1_555 1_555
H2A O5A 1_555 1_555
N1A C10A 1_555 1_555
N1A_2 Cd1A 1_555 1_555
N2A N3A 1_555 1_555
N3A C10A 1_555 1_555
C1A O1A 1_555 1_555
C2A C1A 1_555 1_555
C3A C2A 1_555 1_555
H5A C3A 1_555 1_555
C4A C3A 1_555 1_555
C5A C4A 1_555 1_555
H6A C5A 1_555 1_555
C6A C5A 1_555 1_555
C7A C2A 1_555 1_555
H7A C7A 1_555 1_555
C8A C4A 1_555 1_555
H8A C8A 1_555 1_555
H9A C8A 1_555 1_555
H10A C8A 1_555 1_555
C9A O4A 1_555 1_555
C10A H11A 1_555 1_555
C11A N1A 1_555 1_555
H12A C11A 1_555 1_555
C12A N2A 1_555 1_555
H13A C12A 1_555 1_555
H14A C12A 1_555 1_555
C13A C13 1_555 1_555
H15A C13A 1_555 1_555
H16A C13A 1_555 1_555
O4 Cd1A_2 1_555 1_555
N2 C11 1_555 1_555
C6 C7 1_555 1_555
O2A C1A 1_555 1_555
N2A C11A 1_555 1_555
C6A C7A 1_555 1_555
C6A C9A 1_555 1_555
C12A C13A 1_555 1_555

#END
