
#######################################################################
#
#                 Cambridge Crystallographic Data Centre
#                                CCDC 
#
#######################################################################
#
# If this CIF has been generated from an entry in the Cambridge 
# Structural Database, then it will include bibliographic, chemical, 
# crystal, experimental, refinement or atomic coordinate data resulting 
# from the CCDC's data processing and validation procedures.
#
#######################################################################

data_MAQZUB
_symmetry_cell_setting           monoclinic
_symmetry_space_group_name_H-M   'P 2/c'
_symmetry_Int_Tables_number      13
_space_group_name_Hall           '-P 2yc'
loop_
_symmetry_equiv_pos_site_id
_symmetry_equiv_pos_as_xyz
1 x,y,z
2 -x,y,1/2-z
3 -x,-y,-z
4 x,-y,1/2+z
_cell_length_a                   16.1859(7)
_cell_length_b                   4.8014(2)
_cell_length_c                   9.2596(4)
_cell_angle_alpha                90
_cell_angle_beta                 90.191(4)
_cell_angle_gamma                90
_cell_volume                     719.606
loop_
_atom_site_label
_atom_site_type_symbol
_atom_site_fract_x
_atom_site_fract_y
_atom_site_fract_z
Co1 Co 0.24878(6) 0.0359(2) 0.77864(11)
O1 O 0.2191(4) 0.4293(13) 0.7620(8)
O2 O 0.2773(5) 0.0111(14) 0.9851(7)
C1 C 0.1584(5) 0.5581(17) 0.7054(10)
C2 C 0.0317(5) 0.5827(16) 0.5426(9)
H1 H 0.0597 0.7095 0.4776
H2 H 0.0032 0.6939 0.6144
C3 C 0.4690(5) 0.4250(18) 1.0469(8)
H3 H 0.4974 0.2818 1.1018
H4 H 0.4457 0.5565 1.1151
C4 C 0.3403(5) 0.1237(19) 1.0470(9)
C5 C 0.3996(6) 0.292(2) 0.9618(9)
H5 H 0.3692 0.4384 0.9127
H6 H 0.4236 0.1737 0.8883
C6 C 0.0952(6) 0.4045(18) 0.6174(10)
H7 H 0.0666 0.275 0.6803
H8 H 0.1238 0.2956 0.5449
O3 O 0.3477(4) 0.1100(15) 1.1840(6)
O4 O 0.1503(4) 0.8192(13) 0.7215(7)
Co1B Co -0.24878(6) 0.9641(2) 0.22136(11)
Co1C Co 0.24878(6) -0.0359(2) 1.27864(11)
Co1_2 Co 0.24878(6) 1.0359(2) 0.77864(11)
Co1B_2 Co -0.24878(6) -0.0359(2) 0.22136(11)
Co1B_3 Co 0.75122(6) 0.9641(2) 1.22136(11)
Co1A Co 0.75122(6) 1.0359(2) 0.72136(11)
O1B O -0.2191(4) 0.5707(13) 0.2380(8)
O2B O 0.7227(5) 0.9889(14) 1.0149(7)
O2B_2 O -0.2773(5) 0.9889(14) 0.0149(7)
C1B C -0.1584(5) 0.4419(17) 0.2946(10)
C2B C -0.0317(5) 0.4173(16) 0.4574(9)
H1B H -0.0597 0.2905 0.5224
H2B H -0.0032 0.3061 0.3856
C3B C 0.5310(5) 0.5750(18) 0.9531(8)
H3B H 0.5026 0.7182 0.8982
H4B H 0.5543 0.4435 0.8849
C4B C 0.6597(5) 0.8763(19) 0.9530(9)
C5B C 0.6004(6) 0.708(2) 1.0382(9)
H5B H 0.6308 0.5616 1.0873
H6B H 0.5764 0.8263 1.1117
C6B C -0.0952(6) 0.5955(18) 0.3826(10)
H7B H -0.0666 0.725 0.3197
H8B H -0.1238 0.7044 0.4551
O3B O 0.6523(4) 0.8900(15) 0.8160(6)
O3C O 0.3477(4) -0.1100(15) 0.6840(6)
O3A O -0.3477(4) 1.1100(15) 0.3160(6)
O4B O -0.1503(4) 0.1808(13) 0.2785(7)
O4_2 O 0.1503(4) -0.1808(13) 0.7215(7)
O4B_2 O -0.1503(4) 1.1808(13) 0.2785(7)
loop_
_geom_bond_atom_site_label_1
_geom_bond_atom_site_label_2
_geom_bond_site_symmetry_1
_geom_bond_site_symmetry_2
Co1 O1 1_555 1_555
O1 C1 1_555 1_555
O2 Co1 1_555 1_555
C1 C6 1_555 1_555
C2 H1 1_555 1_555
H2 C2 1_555 1_555
C3 H3 1_555 1_555
H4 C3 1_555 1_555
C4 O2 1_555 1_555
C5 C3 1_555 1_555
H5 C5 1_555 1_555
H6 C5 1_555 1_555
C6 C2 1_555 1_555
H7 C6 1_555 1_555
H8 C6 1_555 1_555
O3 C4 1_555 1_555
O4 C1 1_555 1_555
Co1B O1B 1_555 1_555
Co1C O3 1_555 1_555
Co1_2 O4 1_555 1_555
Co1B_2 O4B 1_555 1_555
Co1B_3 O2B 1_555 1_555
Co1A O3B 1_555 1_555
O1B C1B 1_555 1_555
O2B C4B 1_555 1_555
O2B_2 Co1B 1_555 1_555
C1B C6B 1_555 1_555
C2B C2 1_555 1_555
H1B C2B 1_555 1_555
H2B C2B 1_555 1_555
C3B C3 1_555 1_555
H3B C3B 1_555 1_555
H4B C3B 1_555 1_555
C4B C5B 1_555 1_555
C5B C3B 1_555 1_555
H5B C5B 1_555 1_555
H6B C5B 1_555 1_555
C6B C2B 1_555 1_555
H7B C6B 1_555 1_555
H8B C6B 1_555 1_555
O3B C4B 1_555 1_555
O3C Co1 1_555 1_555
O3A Co1B 1_555 1_555
O4B C1B 1_555 1_555
O4_2 Co1 1_555 1_555
O4B_2 Co1B 1_555 1_555
C4 C5 1_555 1_555

#END
