
#######################################################################
#
#                 Cambridge Crystallographic Data Centre
#                                CCDC 
#
#######################################################################
#
# If this CIF has been generated from an entry in the Cambridge 
# Structural Database, then it will include bibliographic, chemical, 
# crystal, experimental, refinement or atomic coordinate data resulting 
# from the CCDC's data processing and validation procedures.
#
#######################################################################

data_MAQZUB01
_symmetry_cell_setting           monoclinic
_symmetry_space_group_name_H-M   'P 2/c'
_symmetry_Int_Tables_number      13
_space_group_name_Hall           '-P 2yc'
loop_
_symmetry_equiv_pos_site_id
_symmetry_equiv_pos_as_xyz
1 x,y,z
2 -x,y,1/2-z
3 -x,-y,-z
4 x,-y,1/2+z
_cell_length_a                   16.1473(8)
_cell_length_b                   4.7928(2)
_cell_length_c                   9.2488(5)
_cell_angle_alpha                90
_cell_angle_beta                 90.212(5)
_cell_angle_gamma                90
_cell_volume                     715.767
loop_
_atom_site_label
_atom_site_type_symbol
_atom_site_fract_x
_atom_site_fract_y
_atom_site_fract_z
Co1 Co 0.24867(6) 0.0360(2) 0.77914(10)
O1 O 0.2188(3) 0.4286(12) 0.7626(7)
O2 O 0.2773(4) 0.0112(12) 0.9858(6)
C1 C 0.1579(5) 0.5562(16) 0.7065(8)
C2 C 0.0315(4) 0.5830(15) 0.5422(8)
H1 H 0.0596 0.7098 0.4769
H2 H 0.0030 0.6947 0.6139
C3 C 0.4690(5) 0.4249(17) 1.0468(8)
H3 H 0.4975 0.2816 1.1018
H4 H 0.4456 0.5565 1.1150
C4 C 0.3393(5) 0.1230(17) 1.0469(8)
C5 C 0.3997(5) 0.2917(18) 0.9619(8)
H5 H 0.3694 0.4380 0.9120
H6 H 0.4239 0.1722 0.8887
C6 C 0.0948(5) 0.4055(17) 0.6168(9)
H7 H 0.1237 0.2978 0.5440
H8 H 0.0660 0.2744 0.6787
O3 O 0.3478(3) 0.1101(13) 1.1844(6)
O4 O 0.1499(3) 0.8193(12) 0.7218(6)
O1B O -0.2188(3) 0.5714(12) 0.2374(7)
C1B C -0.1579(5) 0.4438(16) 0.2935(8)
C2B C -0.0315(4) 0.4170(15) 0.4578(8)
H1B H -0.0596 0.2902 0.5231
H2B H -0.0030 0.3053 0.3861
C6B C -0.0948(5) 0.5945(17) 0.3832(9)
H7B H -0.1237 0.7022 0.4560
H8B H -0.0660 0.7256 0.3213
O4B O -0.1499(3) 0.1807(12) 0.2782(6)
O2B O 0.7227(4) 0.9888(12) 1.0142(6)
C3B C 0.5310(5) 0.5751(17) 0.9532(8)
H3B H 0.5025 0.7184 0.8982
H4B H 0.5544 0.4435 0.8850
C4B C 0.6607(5) 0.8770(17) 0.9531(8)
C5B C 0.6003(5) 0.7083(18) 1.0381(8)
H5B H 0.6306 0.5620 1.0880
H6B H 0.5761 0.8278 1.1113
O3B O 0.6522(3) 0.8899(13) 0.8156(6)
Co1B Co -0.24867(6) -0.0360(2) 0.22086(10)
Co1_2 Co 0.24867(6) 1.0360(2) 0.77914(10)
Co1A Co 0.75133(6) 1.0360(2) 0.72086(10)
Co1B_2 Co -0.24867(6) 0.9640(2) 0.22086(10)
Co1B_3 Co 0.75133(6) 0.9640(2) 1.22086(10)
Co1C Co 0.24867(6) -0.0360(2) 1.27914(10)
O1B_2 O -0.2188(3) -0.4286(12) 0.2374(7)
O2B_2 O -0.2773(4) -0.0112(12) 0.0142(6)
O3A O -0.3478(3) 0.1101(13) 0.3156(6)
O3C O 0.3478(3) -0.1101(13) 0.6844(6)
O4_2 O 0.1499(3) -0.1807(12) 0.7218(6)
loop_
_geom_bond_atom_site_label_1
_geom_bond_atom_site_label_2
_geom_bond_site_symmetry_1
_geom_bond_site_symmetry_2
Co1 O1 1_555 1_555
O1 C1 1_555 1_555
O2 Co1 1_555 1_555
C1 C6 1_555 1_555
C2 H1 1_555 1_555
H2 C2 1_555 1_555
C3 H3 1_555 1_555
H4 C3 1_555 1_555
C4 O2 1_555 1_555
C5 C3 1_555 1_555
H5 C5 1_555 1_555
H6 C5 1_555 1_555
C6 C2 1_555 1_555
H7 C6 1_555 1_555
H8 C6 1_555 1_555
O3 C4 1_555 1_555
O4 C1 1_555 1_555
O1B C1B 1_555 1_555
C1B C6B 1_555 1_555
C2B C2 1_555 1_555
H1B C2B 1_555 1_555
H2B C2B 1_555 1_555
C6B C2B 1_555 1_555
H7B C6B 1_555 1_555
H8B C6B 1_555 1_555
O4B C1B 1_555 1_555
O2B C4B 1_555 1_555
C3B C3 1_555 1_555
H3B C3B 1_555 1_555
H4B C3B 1_555 1_555
C4B C5B 1_555 1_555
C5B C3B 1_555 1_555
H5B C5B 1_555 1_555
H6B C5B 1_555 1_555
O3B C4B 1_555 1_555
Co1B O4B 1_555 1_555
Co1_2 O4 1_555 1_555
Co1A O3B 1_555 1_555
Co1B_2 O1B 1_555 1_555
Co1B_3 O2B 1_555 1_555
Co1C O3 1_555 1_555
O1B_2 Co1B 1_555 1_555
O2B_2 Co1B 1_555 1_555
O3A Co1B 1_555 1_555
O3C Co1 1_555 1_555
O4_2 Co1 1_555 1_555
C4 C5 1_555 1_555

#END
