
#######################################################################
#
#                 Cambridge Crystallographic Data Centre
#                                CCDC 
#
#######################################################################
#
# If this CIF has been generated from an entry in the Cambridge 
# Structural Database, then it will include bibliographic, chemical, 
# crystal, experimental, refinement or atomic coordinate data resulting 
# from the CCDC's data processing and validation procedures.
#
#######################################################################

data_MAQZIP
_symmetry_cell_setting           triclinic
_symmetry_space_group_name_H-M   'P -1'
_symmetry_Int_Tables_number      2
_space_group_name_Hall           '-P 1'
loop_
_symmetry_equiv_pos_site_id
_symmetry_equiv_pos_as_xyz
1 x,y,z
2 -x,-y,-z
_cell_length_a                   7.6205(5)
_cell_length_b                   7.9261(5)
_cell_length_c                   8.0664(7)
_cell_angle_alpha                85.402(7)
_cell_angle_beta                 81.432(6)
_cell_angle_gamma                70.018(6)
_cell_volume                     452.552
loop_
_atom_site_label
_atom_site_type_symbol
_atom_site_fract_x
_atom_site_fract_y
_atom_site_fract_z
Mn1 Mn 0.71703(3) 0.65589(3) 0.61833(3)
O1 O 0.44604(16) 0.71015(15) 0.79939(15)
O2 O 0.93555(15) 0.71824(15) 0.46128(15)
O3 O 1.24917(15) 0.62030(15) 0.41893(15)
O4 O 0.86418(17) 0.61659(18) 0.82918(16)
H1 H 0.815(3) 0.595(3) 0.927(2)
H2 H 0.983(2) 0.570(3) 0.824(3)
O6 O 0.55555(16) 0.72226(15) 0.40359(15)
H5 H 0.462(2) 0.688(2) 0.412(3)
H6 H 0.525(3) 0.831(2) 0.367(3)
O7 O 0.53701(15) 0.93918(15) 0.71091(15)
C1 C 0.0891(2) 0.9282(2) 0.9598(2)
H7 H 0.1348 0.8307 1.0438
H8 H 0.0575 0.8757 0.8657
C2 C 1.0903(2) 0.7436(2) 0.45060(19)
C3 C 0.4179(2) 0.8773(2) 0.7973(2)
C4 C 1.0950(2) 0.9313(2) 0.4712(2)
H9 H 1.1469 0.9739 0.3625
H10 H 1.1819 0.9240 0.5534
C5 C 0.2452(2) 1.0053(2) 0.8946(2)
H11 H 0.1932 1.1120 0.8215
H12 H 0.2843 1.0465 0.9913
Mn1A Mn -0.71703(3) 1.34411(3) 1.38167(3)
Mn1A_2 Mn 1.28297(3) 0.34411(3) 0.38167(3)
Mn1A_3 Mn 1.28297(3) 1.34411(3) 0.38167(3)
Mn1_2 Mn 0.71703(3) 1.65589(3) 0.61833(3)
O1A O -0.44604(16) 1.28985(15) 1.20061(15)
O2A O 1.06445(15) 1.28176(15) 0.53872(15)
O2A_2 O -0.93555(15) 1.28176(15) 1.53872(15)
O3A O 0.75083(15) 1.37970(15) 0.58107(15)
O3A_2 O 0.75083(15) 0.37970(15) 0.58107(15)
O3_2 O -0.75083(15) 1.62030(15) 1.41893(15)
O4A O -0.86418(17) 1.38341(18) 1.17082(16)
H1A H -0.815(3) 1.405(3) 1.073(2)
H2A H -0.983(2) 1.430(3) 1.176(3)
O6A O -0.55555(16) 1.27774(15) 1.59641(15)
H5A H -0.462(2) 1.312(2) 1.588(3)
H6A H -0.525(3) 1.169(2) 1.633(3)
O7A O -0.53701(15) 1.06082(15) 1.28909(15)
C1A C -0.0891(2) 1.0718(2) 1.0402(2)
H7A H -0.1348 1.1693 0.9562
H8A H -0.0575 1.1243 1.1343
C2A C 0.9097(2) 1.2564(2) 0.54940(19)
C3A C -0.4179(2) 1.1227(2) 1.2027(2)
C4A C 0.9050(2) 1.0687(2) 0.5288(2)
H9A H 0.8531 1.0261 0.6375
H10A H 0.8181 1.0760 0.4466
C5A C -0.2452(2) 0.9947(2) 1.1054(2)
H11A H -0.1932 0.8880 1.1785
H12A H -0.2843 0.9535 1.0087
O5 O 0.76318(16) 0.50886(17) 0.14382(15)
H3 H 0.710(3) 0.431(2) 0.149(3)
H4 H 0.702(3) 0.585(2) 0.223(2)
loop_
_geom_bond_atom_site_label_1
_geom_bond_atom_site_label_2
_geom_bond_site_symmetry_1
_geom_bond_site_symmetry_2
Mn1 O1 1_555 1_555
O1 C3 1_555 1_555
O2 Mn1 1_555 1_555
O3 C2 1_555 1_555
O4 Mn1 1_555 1_555
H1 O4 1_555 1_555
H2 O4 1_555 1_555
O5 H3 1_555 1_555
H4 O5 1_555 1_555
O6 Mn1 1_555 1_555
H5 O6 1_555 1_555
H6 O6 1_555 1_555
O7 Mn1 1_555 1_555
C1 H7 1_555 1_555
H8 C1 1_555 1_555
C2 O2 1_555 1_555
C3 O7 1_555 1_555
C4 C2 1_555 1_555
H9 C4 1_555 1_555
H10 C4 1_555 1_555
C5 C1 1_555 1_555
H11 C5 1_555 1_555
H12 C5 1_555 1_555
Mn1A O1A 1_555 1_555
Mn1A_2 O3 1_555 1_555
Mn1A_3 O2A 1_555 1_555
Mn1_2 O3A 1_555 1_555
O1A C3A 1_555 1_555
O2A C2A 1_555 1_555
O2A_2 Mn1A 1_555 1_555
O3A C2A 1_555 1_555
O3A_2 Mn1 1_555 1_555
O3_2 Mn1A 1_555 1_555
O4A Mn1A 1_555 1_555
H1A O4A 1_555 1_555
H2A O4A 1_555 1_555
O6A Mn1A 1_555 1_555
H5A O6A 1_555 1_555
H6A O6A 1_555 1_555
O7A Mn1A 1_555 1_555
C1A C1 1_555 1_555
H7A C1A 1_555 1_555
H8A C1A 1_555 1_555
C2A C4A 1_555 1_555
C3A O7A 1_555 1_555
C4A C4 1_555 1_555
H9A C4A 1_555 1_555
H10A C4A 1_555 1_555
C5A C1A 1_555 1_555
H11A C5A 1_555 1_555
H12A C5A 1_555 1_555
C3 C5 1_555 1_555
C3A C5A 1_555 1_555

#END
