
#######################################################################
#
#                 Cambridge Crystallographic Data Centre
#                                CCDC 
#
#######################################################################
#
# If this CIF has been generated from an entry in the Cambridge 
# Structural Database, then it will include bibliographic, chemical, 
# crystal, experimental, refinement or atomic coordinate data resulting 
# from the CCDC's data processing and validation procedures.
#
#######################################################################

data_MARBUE
_symmetry_cell_setting           monoclinic
_symmetry_space_group_name_H-M   'P 21/c'
_symmetry_Int_Tables_number      14
_space_group_name_Hall           '-P 2ybc'
loop_
_symmetry_equiv_pos_site_id
_symmetry_equiv_pos_as_xyz
1 x,y,z
2 -x,1/2+y,1/2-z
3 -x,-y,-z
4 x,1/2-y,1/2+z
_cell_length_a                   10.1508(6)
_cell_length_b                   14.8829(7)
_cell_length_c                   18.3001(9)
_cell_angle_alpha                90
_cell_angle_beta                 101.469(5)
_cell_angle_gamma                90
_cell_volume                     2709.45
loop_
_atom_site_label
_atom_site_type_symbol
_atom_site_fract_x
_atom_site_fract_y
_atom_site_fract_z
Co1 Co 0.32769(7) 0.23833(4) 0.77300(4)
N1 N 0.4203(4) 0.3286(3) 0.7023(2)
N2 N 0.3246(5) 0.1406(3) 0.6878(2)
N3 N 0.2320(4) 0.1516(3) 0.8394(2)
N4 N 0.5372(6) 0.2430(5) 0.8791(3)
O1 O 0.1694(4) 0.3190(3) 0.7515(2)
O2 O 0.0268(6) 0.3116(3) 0.6253(3)
H1 H 0.0843 0.3213 0.6643
O3 O 0.4399(5) 0.2990(3) 0.8742(2)
O4 O 0.5301(4) 0.1878(3) 0.8264(2)
O5 O 0.6312(6) 0.2418(5) 0.9332(3)
C1 C 0.0787(6) 0.3376(4) 0.7915(3)
C2 C 0.1105(7) 0.3925(6) 0.8535(4)
H2 H 0.1985 0.4168 0.8672
C3 C 0.0147(8) 0.4124(7) 0.8961(4)
H3 H 0.0398 0.4487 0.9394
C4 C -0.1106(8) 0.3823(7) 0.8778(4)
H4 H -0.1758 0.3993 0.9059
C5 C -0.1443(7) 0.3258(6) 0.8172(4)
H5 H -0.2332 0.3026 0.8049
C6 C -0.0499(6) 0.3011(4) 0.7724(3)
C7 C -0.0944(6) 0.2375(4) 0.7093(4)
C8 C -0.1792(7) 0.1655(6) 0.7188(6)
H6 H -0.2005 0.1526 0.7660
C9 C -0.2320(9) 0.1124(7) 0.6545(8)
H7 H -0.2954 0.0667 0.6584
C10 C -0.1944(11) 0.1251(10) 0.5874(8)
H8 H -0.2279 0.0865 0.5467
C11 C -0.1101(9) 0.1924(7) 0.5794(5)
H9 H -0.0855 0.2018 0.5325
C12 C -0.0590(7) 0.2478(5) 0.6385(4)
C13 C 0.3630(5) 0.4069(4) 0.6774(3)
H10 H 0.2945 0.4301 0.7007
C14 C 0.3978(6) 0.4557(4) 0.6200(3)
H11 H 0.3541 0.5110 0.6048
C15 C 0.4980(6) 0.4233(4) 0.5841(3)
C16 C 0.5343(6) 0.4658(4) 0.5185(3)
C17 C 0.5614(6) 0.3448(4) 0.6130(3)
H12 H 0.6337 0.3214 0.5930
C18 C 0.5202(6) 0.3006(4) 0.6707(3)
H13 H 0.5658 0.2469 0.6890
C19 C 0.2292(7) 0.1710(4) 0.9104(3)
H14 H 0.2802 0.2209 0.9326
C20 C 0.1574(6) 0.1235(4) 0.9530(3)
H15 H 0.1574 0.1418 1.0027
C21 C 0.0848(6) 0.0488(4) 0.9238(3)
C22 C 0.0082(7) -0.0084(4) 0.9658(3)
C23 C 0.0891(7) 0.0282(4) 0.8509(3)
H16 H 0.0426 -0.0232 0.8282
C24 C 0.1601(6) 0.0811(4) 0.8104(3)
H17 H 0.1574 0.0664 0.7596
C25 C 0.2871(7) 0.1606(4) 0.6152(3)
H18 H 0.2275 0.2096 0.6008
C26 C 0.3326(7) 0.1119(4) 0.5603(3)
H19 H 0.3064 0.1290 0.5095
C27 C 0.4162(7) 0.0383(5) 0.5795(4)
C28 C 0.4832(8) -0.0155(5) 0.5277(4)
C29 C 0.4425(6) 0.0125(5) 0.6536(3)
H20 H 0.4906 -0.0413 0.6688
C30 C 0.3981(6) 0.0656(4) 0.7043(3)
H21 H 0.4209 0.0482 0.7552
Co1B Co 0.67231(7) 0.76167(4) 0.22700(4)
Co1B_2 Co 0.67231(7) -0.23833(4) 0.22700(4)
Co1B_3 Co -0.32769(7) -0.23833(4) 1.22700(4)
N1B N 0.5797(4) 0.6714(3) 0.2977(2)
N2B N 0.6754(5) -0.1406(3) 0.3122(2)
N2B_2 N 0.6754(5) 0.8594(3) 0.3122(2)
N3B N -0.2320(4) -0.1516(3) 1.1606(2)
N3B_2 N 0.7680(4) 0.8484(3) 0.1606(2)
N4B N 0.4628(6) 0.7570(5) 0.1209(3)
O1B O 0.8306(4) 0.6810(3) 0.2485(2)
O2B O 0.9732(6) 0.6884(3) 0.3747(3)
H1B H 0.9157 0.6787 0.3357
O3B O 0.5601(5) 0.7010(3) 0.1258(2)
O4B O 0.4699(4) 0.8122(3) 0.1736(2)
O5B O 0.3688(6) 0.7582(5) 0.0668(3)
C1B C 0.9213(6) 0.6624(4) 0.2085(3)
C2B C 0.8895(7) 0.6075(6) 0.1465(4)
H2B H 0.8015 0.5832 0.1328
C3B C 0.9853(8) 0.5876(7) 0.1039(4)
H3B H 0.9602 0.5513 0.0606
C4B C 1.1106(8) 0.6177(7) 0.1222(4)
H4B H 1.1758 0.6007 0.0941
C5B C 1.1443(7) 0.6742(6) 0.1828(4)
H5B H 1.2332 0.6974 0.1951
C6B C 1.0499(6) 0.6989(4) 0.2276(3)
C7B C 1.0944(6) 0.7625(4) 0.2907(4)
C8B C 1.1792(7) 0.8345(6) 0.2812(6)
H6B H 1.2005 0.8474 0.2340
C9B C 1.2320(9) 0.8876(7) 0.3455(8)
H7B H 1.2954 0.9333 0.3416
C10B C 1.1944(11) 0.8749(10) 0.4126(8)
H8B H 1.2279 0.9135 0.4533
C11B C 1.1101(9) 0.8076(7) 0.4206(5)
H9B H 1.0855 0.7982 0.4675
C12B C 1.0590(7) 0.7522(5) 0.3615(4)
C13B C 0.6370(5) 0.5931(4) 0.3226(3)
H10B H 0.7055 0.5699 0.2993
C14B C 0.6022(6) 0.5443(4) 0.3800(3)
H11B H 0.6459 0.4890 0.3952
C15B C 0.5020(6) 0.5767(4) 0.4159(3)
C16B C 0.4657(6) 0.5342(4) 0.4815(3)
C17B C 0.4386(6) 0.6552(4) 0.3870(3)
H12B H 0.3663 0.6786 0.4070
C18B C 0.4798(6) 0.6994(4) 0.3293(3)
H13B H 0.4342 0.7531 0.3110
C19B C -0.2292(7) -0.1710(4) 1.0896(3)
H14B H -0.2802 -0.2209 1.0674
C20B C -0.1574(6) -0.1235(4) 1.0470(3)
H15B H -0.1574 -0.1418 0.9973
C21B C -0.0848(6) -0.0488(4) 1.0762(3)
C22B C -0.0082(7) 0.0084(4) 1.0342(3)
C23B C -0.0891(7) -0.0282(4) 1.1491(3)
H16B H -0.0426 0.0232 1.1718
C24B C -0.1601(6) -0.0811(4) 1.1896(3)
H17B H -0.1574 -0.0664 1.2404
C25B C 0.7129(7) -0.1606(4) 0.3848(3)
H18B H 0.7725 -0.2096 0.3992
C26B C 0.6674(7) -0.1119(4) 0.4397(3)
H19B H 0.6936 -0.1290 0.4905
C27B C 0.5838(7) -0.0383(5) 0.4205(4)
C28B C 0.5168(8) 0.0155(5) 0.4723(4)
C29B C 0.5575(6) -0.0125(5) 0.3464(3)
H20B H 0.5094 0.0413 0.3312
C30B C 0.6019(6) -0.0656(4) 0.2957(3)
H21B H 0.5791 -0.0482 0.2448
loop_
_geom_bond_atom_site_label_1
_geom_bond_atom_site_label_2
_geom_bond_site_symmetry_1
_geom_bond_site_symmetry_2
Co1 N1 1_555 1_555
N1 C13 1_555 1_555
N2 Co1 1_555 1_555
N3 Co1 1_555 1_555
N4 O3 1_555 1_555
O1 Co1 1_555 1_555
O2 H1 1_555 1_555
O3 Co1 1_555 1_555
O4 Co1 1_555 1_555
O5 N4 1_555 1_555
C1 O1 1_555 1_555
C2 C1 1_555 1_555
H2 C2 1_555 1_555
C3 C2 1_555 1_555
H3 C3 1_555 1_555
C4 C3 1_555 1_555
H4 C4 1_555 1_555
C5 C4 1_555 1_555
H5 C5 1_555 1_555
C6 C1 1_555 1_555
C7 C6 1_555 1_555
C8 C7 1_555 1_555
H6 C8 1_555 1_555
C9 C8 1_555 1_555
H7 C9 1_555 1_555
C10 C9 1_555 1_555
H8 C10 1_555 1_555
C11 C10 1_555 1_555
H9 C11 1_555 1_555
C12 O2 1_555 1_555
C13 H10 1_555 1_555
C14 C13 1_555 1_555
H11 C14 1_555 1_555
C15 C14 1_555 1_555
C16 C15 1_555 1_555
C17 C15 1_555 1_555
H12 C17 1_555 1_555
C18 N1 1_555 1_555
H13 C18 1_555 1_555
C19 N3 1_555 1_555
H14 C19 1_555 1_555
C20 C19 1_555 1_555
H15 C20 1_555 1_555
C21 C20 1_555 1_555
C22 C21 1_555 1_555
C23 C21 1_555 1_555
H16 C23 1_555 1_555
C24 N3 1_555 1_555
H17 C24 1_555 1_555
C25 N2 1_555 1_555
H18 C25 1_555 1_555
C26 C25 1_555 1_555
H19 C26 1_555 1_555
C27 C26 1_555 1_555
C28 C27 1_555 1_555
C29 C27 1_555 1_555
H20 C29 1_555 1_555
C30 N2 1_555 1_555
H21 C30 1_555 1_555
Co1B N1B 1_555 1_555
Co1B_2 N2B 1_555 1_555
Co1B_3 N3B 1_555 1_555
N1B C13B 1_555 1_555
N2B C25B 1_555 1_555
N2B_2 Co1B 1_555 1_555
N3B C19B 1_555 1_555
N3B_2 Co1B 1_555 1_555
N4B O3B 1_555 1_555
O1B Co1B 1_555 1_555
O2B H1B 1_555 1_555
O3B Co1B 1_555 1_555
O4B Co1B 1_555 1_555
O5B N4B 1_555 1_555
C1B O1B 1_555 1_555
C2B C1B 1_555 1_555
H2B C2B 1_555 1_555
C3B C2B 1_555 1_555
H3B C3B 1_555 1_555
C4B C3B 1_555 1_555
H4B C4B 1_555 1_555
C5B C4B 1_555 1_555
H5B C5B 1_555 1_555
C6B C1B 1_555 1_555
C7B C6B 1_555 1_555
C8B C7B 1_555 1_555
H6B C8B 1_555 1_555
C9B C8B 1_555 1_555
H7B C9B 1_555 1_555
C10B C9B 1_555 1_555
H8B C10B 1_555 1_555
C11B C10B 1_555 1_555
H9B C11B 1_555 1_555
C12B O2B 1_555 1_555
C13B H10B 1_555 1_555
C14B C13B 1_555 1_555
H11B C14B 1_555 1_555
C15B C14B 1_555 1_555
C16B C16 1_555 1_555
C17B C15B 1_555 1_555
H12B C17B 1_555 1_555
C18B N1B 1_555 1_555
H13B C18B 1_555 1_555
C19B H14B 1_555 1_555
C20B C19B 1_555 1_555
H15B C20B 1_555 1_555
C21B C20B 1_555 1_555
C22B C22 1_555 1_555
C23B C21B 1_555 1_555
H16B C23B 1_555 1_555
C24B N3B 1_555 1_555
H17B C24B 1_555 1_555
C25B H18B 1_555 1_555
C26B C25B 1_555 1_555
H19B C26B 1_555 1_555
C27B C26B 1_555 1_555
C28B C28 1_555 1_555
C29B C27B 1_555 1_555
H20B C29B 1_555 1_555
C30B N2B 1_555 1_555
H21B C30B 1_555 1_555
N4 O4 1_555 1_555
C5 C6 1_555 1_555
C7 C12 1_555 1_555
C11 C12 1_555 1_555
C17 C18 1_555 1_555
C23 C24 1_555 1_555
C29 C30 1_555 1_555
N4B O4B 1_555 1_555
C5B C6B 1_555 1_555
C7B C12B 1_555 1_555
C11B C12B 1_555 1_555
C15B C16B 1_555 1_555
C17B C18B 1_555 1_555
C21B C22B 1_555 1_555
C23B C24B 1_555 1_555
C27B C28B 1_555 1_555
C29B C30B 1_555 1_555

#END
