
#######################################################################
#
#                 Cambridge Crystallographic Data Centre
#                                CCDC 
#
#######################################################################
#
# If this CIF has been generated from an entry in the Cambridge 
# Structural Database, then it will include bibliographic, chemical, 
# crystal, experimental, refinement or atomic coordinate data resulting 
# from the CCDC's data processing and validation procedures.
#
#######################################################################

data_MARBOY
_symmetry_cell_setting           monoclinic
_symmetry_space_group_name_H-M   'P c'
_symmetry_Int_Tables_number      7
_space_group_name_Hall           'P -2yc'
loop_
_symmetry_equiv_pos_site_id
_symmetry_equiv_pos_as_xyz
1 x,y,z
2 x,-y,1/2+z
_cell_length_a                   10.572(2)
_cell_length_b                   13.755(3)
_cell_length_c                   15.127(3)
_cell_angle_alpha                90
_cell_angle_beta                 94.03(3)
_cell_angle_gamma                90
_cell_volume                     2194.3
loop_
_atom_site_label
_atom_site_type_symbol
_atom_site_fract_x
_atom_site_fract_y
_atom_site_fract_z
Co1 Co 0.86464(13) 1.00422(8) 0.58740(10)
N1 N 0.9814(8) 1.0938(5) 0.5109(5)
N2 N 0.8430(8) 0.8908(5) 0.4933(5)
N3 N 0.6848(9) 1.1316(6) 0.5935(6)
N4 N 1.7515(8) 1.0794(5) 0.1738(5)
N5 N 0.5666(9) 0.4805(6) 0.0347(5)
O1 O 1.0149(6) 0.9699(5) 0.6671(4)
O2 O 1.1382(7) 0.8152(4) 0.6756(4)
H1 H 1.0822 0.8584 0.6768
O3 O 0.7816(7) 1.1351(5) 0.6473(4)
O4 O 0.6812(6) 1.0671(5) 0.5348(5)
O5 O 0.5958(7) 1.1896(5) 0.6006(5)
C1 C 1.0233(10) 1.1814(6) 0.5450(6)
H4 H 0.9746 1.2141 0.5864
C2 C 1.1329(9) 1.2228(7) 0.5211(7)
H5 H 1.1617 1.2811 0.5496
C3 C 1.0476(10) 1.0563(7) 0.4476(6)
H6 H 1.0181 0.9974 0.4206
C4 C 1.1557(9) 1.0970(6) 0.4188(6)
H7 H 1.1982 1.0667 0.3728
C5 C 1.2032(9) 1.1834(6) 0.4573(6)
C6 C 1.3260(9) 1.2290(6) 0.4358(6)
H8 H 1.3815 1.2331 0.4912
H9 H 1.3083 1.2964 0.4155
C7 C 1.3992(9) 1.1782(6) 0.3663(6)
H10 H 1.4190 1.1108 0.3857
H11 H 1.3463 1.1750 0.3097
C8 C 1.5209(9) 1.2317(6) 0.3522(6)
H12 H 1.4999 1.2972 0.3283
H13 H 1.5693 1.2402 0.4101
C9 C 1.6025(10) 1.1803(6) 0.2901(6)
C10 C 1.5680(9) 1.1734(7) 0.1991(6)
H14 H 1.4920 1.2028 0.1751
C11 C 1.6448(10) 1.1238(6) 0.1446(7)
H15 H 1.6203 1.1211 0.0830
C12 C 1.7864(9) 1.0856(6) 0.2615(6)
H16 H 1.8637 1.0561 0.2833
C13 C 1.7132(9) 1.1334(6) 0.3206(6)
H17 H 1.7390 1.1341 0.3820
C14 C 0.7600(10) 0.8940(7) 0.4222(6)
H18 H 0.7138 0.9522 0.4097
C15 C 0.7399(10) 0.8152(7) 0.3667(6)
H19 H 0.6783 0.8199 0.3180
C16 C 0.8060(10) 0.7305(6) 0.3796(6)
C17 C 0.8932(10) 0.7273(7) 0.4528(7)
H20 H 0.9427 0.6707 0.4655
C18 C 0.9060(10) 0.8081(7) 0.5066(7)
H21 H 0.9644 0.8043 0.5571
C19 C 0.7937(10) 0.6451(7) 0.3170(7)
H22 H 0.7110 0.6485 0.2822
H23 H 0.7959 0.5840 0.3517
C20 C 0.9009(10) 0.6438(6) 0.2536(6)
H24 H 0.8907 0.6997 0.2124
H25 H 0.9835 0.6508 0.2881
C21 C 0.9002(11) 0.5498(6) 0.2006(7)
H26 H 0.9723 0.5520 0.1624
H27 H 0.9165 0.4955 0.2429
C22 C 0.7828(10) 0.5253(6) 0.1428(6)
C23 C 0.7344(12) 0.4333(7) 0.1371(7)
H28 H 0.7743 0.3828 0.1717
C24 C 0.6303(12) 0.4130(7) 0.0829(7)
H29 H 0.6013 0.3477 0.0791
C25 C 0.6100(10) 0.5713(7) 0.0408(6)
H30 H 0.5651 0.6212 0.0084
C26 C 0.7171(10) 0.5952(7) 0.0921(7)
H31 H 0.7468 0.6603 0.0930
C27 C 1.1115(10) 1.0308(7) 0.6933(6)
C28 C 1.0890(11) 1.1100(7) 0.7494(6)
H32 H 1.0065 1.1199 0.7690
C29 C 1.1845(12) 1.1722(8) 0.7759(7)
H33 H 1.1674 1.2261 0.8125
C30 C 1.3060(11) 1.1578(8) 0.7500(8)
H34 H 1.3726 1.2013 0.7683
C31 C 1.3286(11) 1.0777(7) 0.6963(7)
H35 H 1.4120 1.0667 0.6790
C32 C 1.2331(9) 1.0140(7) 0.6677(6)
C33 C 1.2638(10) 0.9321(7) 0.6070(6)
C34 C 1.3523(10) 0.9502(8) 0.5414(7)
H36 H 1.3856 1.0138 0.5351
C35 C 1.3895(11) 0.8771(8) 0.4878(7)
H37 H 1.4475 0.8906 0.4442
C36 C 1.3437(12) 0.7842(8) 0.4964(7)
H38 H 1.3706 0.7338 0.4591
C37 C 1.2575(12) 0.7641(8) 0.5602(8)
H39 H 1.2257 0.7001 0.5667
C38 C 1.2196(10) 0.8382(8) 0.6130(6)
Co1A Co 1.86464(13) 0.99578(8) 0.08740(10)
N4A N 0.7515(8) 0.9206(5) 0.6738(5)
O6 O 0.3438(7) 0.4832(5) -0.0493(4)
H2 H 0.4007 0.4485 -0.0237
O7 O 0.1060(7) 0.4473(5) -0.0341(5)
H3 H 0.1833 0.4372 -0.0400
C39 C 0.3448(11) 0.4712(7) -0.1390(6)
C40 C 0.4384(11) 0.4259(8) -0.1764(8)
H40 H 0.5070 0.3998 -0.1400
C41 C 0.4377(12) 0.4159(10) -0.2687(8)
H41 H 0.5077 0.3860 -0.2940
C42 C 0.3375(12) 0.4487(10) -0.3229(9)
H42 H 0.3337 0.4379 -0.3850
C43 C 0.2430(11) 0.4977(8) -0.2845(7)
H43 H 0.1764 0.5251 -0.3219
C44 C 0.2392(10) 0.5098(7) -0.1908(7)
C45 C 0.1308(10) 0.5597(7) -0.1561(6)
C46 C 0.0801(11) 0.6432(7) -0.1978(7)
H44 H 0.1253 0.6719 -0.2432
C47 C -0.0281(12) 0.6850(8) -0.1773(8)
H45 H -0.0582 0.7406 -0.2096
C48 C -0.0987(11) 0.6485(7) -0.1088(8)
H46 H -0.1763 0.6773 -0.0945
C49 C -0.0476(11) 0.5675(7) -0.0632(7)
H47 H -0.0913 0.5401 -0.0164
C50 C 0.0656(11) 0.5266(6) -0.0852(7)
loop_
_geom_bond_atom_site_label_1
_geom_bond_atom_site_label_2
_geom_bond_site_symmetry_1
_geom_bond_site_symmetry_2
Co1 N1 1_555 1_555
N1 C1 1_555 1_555
N2 Co1 1_555 1_555
N3 O3 1_555 1_555
N4 C11 1_555 1_555
N5 C24 1_555 1_555
O1 Co1 1_555 1_555
O2 H1 1_555 1_555
O3 Co1 1_555 1_555
O4 Co1 1_555 1_555
O5 N3 1_555 1_555
O6 H2 1_555 1_555
O7 H3 1_555 1_555
C1 H4 1_555 1_555
C2 C1 1_555 1_555
H5 C2 1_555 1_555
C3 N1 1_555 1_555
H6 C3 1_555 1_555
C4 C3 1_555 1_555
H7 C4 1_555 1_555
C5 C2 1_555 1_555
C6 C5 1_555 1_555
H8 C6 1_555 1_555
H9 C6 1_555 1_555
C7 C6 1_555 1_555
H10 C7 1_555 1_555
H11 C7 1_555 1_555
C8 C7 1_555 1_555
H12 C8 1_555 1_555
H13 C8 1_555 1_555
C9 C8 1_555 1_555
C10 C9 1_555 1_555
H14 C10 1_555 1_555
C11 C10 1_555 1_555
H15 C11 1_555 1_555
C12 N4 1_555 1_555
H16 C12 1_555 1_555
C13 C9 1_555 1_555
H17 C13 1_555 1_555
C14 N2 1_555 1_555
H18 C14 1_555 1_555
C15 C14 1_555 1_555
H19 C15 1_555 1_555
C16 C15 1_555 1_555
C17 C16 1_555 1_555
H20 C17 1_555 1_555
C18 N2 1_555 1_555
H21 C18 1_555 1_555
C19 C16 1_555 1_555
H22 C19 1_555 1_555
H23 C19 1_555 1_555
C20 C19 1_555 1_555
H24 C20 1_555 1_555
H25 C20 1_555 1_555
C21 C20 1_555 1_555
H26 C21 1_555 1_555
H27 C21 1_555 1_555
C22 C21 1_555 1_555
C23 C22 1_555 1_555
H28 C23 1_555 1_555
C24 C23 1_555 1_555
H29 C24 1_555 1_555
C25 N5 1_555 1_555
H30 C25 1_555 1_555
C26 C22 1_555 1_555
H31 C26 1_555 1_555
C27 O1 1_555 1_555
C28 C27 1_555 1_555
H32 C28 1_555 1_555
C29 C28 1_555 1_555
H33 C29 1_555 1_555
C30 C29 1_555 1_555
H34 C30 1_555 1_555
C31 C30 1_555 1_555
H35 C31 1_555 1_555
C32 C27 1_555 1_555
C33 C32 1_555 1_555
C34 C33 1_555 1_555
H36 C34 1_555 1_555
C35 C34 1_555 1_555
H37 C35 1_555 1_555
C36 C35 1_555 1_555
H38 C36 1_555 1_555
C37 C36 1_555 1_555
H39 C37 1_555 1_555
C38 O2 1_555 1_555
C39 O6 1_555 1_555
C40 C39 1_555 1_555
H40 C40 1_555 1_555
C41 C40 1_555 1_555
H41 C41 1_555 1_555
C42 C41 1_555 1_555
H42 C42 1_555 1_555
C43 C42 1_555 1_555
H43 C43 1_555 1_555
C44 C39 1_555 1_555
C45 C44 1_555 1_555
C46 C45 1_555 1_555
H44 C46 1_555 1_555
C47 C46 1_555 1_555
H45 C47 1_555 1_555
C48 C47 1_555 1_555
H46 C48 1_555 1_555
C49 C48 1_555 1_555
H47 C49 1_555 1_555
C50 O7 1_555 1_555
Co1A N4 1_555 1_555
N4A Co1 1_555 1_555
N3 O4 1_555 1_555
C4 C5 1_555 1_555
C12 C13 1_555 1_555
C17 C18 1_555 1_555
C25 C26 1_555 1_555
C31 C32 1_555 1_555
C33 C38 1_555 1_555
C37 C38 1_555 1_555
C43 C44 1_555 1_555
C45 C50 1_555 1_555
C49 C50 1_555 1_555

#END
