
#######################################################################
#
#                 Cambridge Crystallographic Data Centre
#                                CCDC 
#
#######################################################################
#
# If this CIF has been generated from an entry in the Cambridge 
# Structural Database, then it will include bibliographic, chemical, 
# crystal, experimental, refinement or atomic coordinate data resulting 
# from the CCDC's data processing and validation procedures.
#
#######################################################################

data_MARCOX
_symmetry_cell_setting           orthorhombic
_symmetry_space_group_name_H-M   'P b c n'
_symmetry_Int_Tables_number      60
_space_group_name_Hall           '-P 2n 2ab'
loop_
_symmetry_equiv_pos_site_id
_symmetry_equiv_pos_as_xyz
1 x,y,z
2 1/2+x,1/2+y,1/2-z
3 x,-y,1/2+z
4 1/2-x,1/2+y,z
5 -x,-y,-z
6 1/2-x,1/2-y,1/2+z
7 -x,y,1/2-z
8 1/2+x,1/2-y,-z
_cell_length_a                   17.946(4)
_cell_length_b                   17.616(4)
_cell_length_c                   13.559(3)
_cell_angle_alpha                90
_cell_angle_beta                 90
_cell_angle_gamma                90
_cell_volume                     4286.5
loop_
_atom_site_label
_atom_site_type_symbol
_atom_site_fract_x
_atom_site_fract_y
_atom_site_fract_z
Pd1 Pd 0.68048(2) 0.31855(2) 0.18851(3)
Ag1 Ag 0.5000 0.0000 0.0000
Ag2 Ag 0.5000 0.41098(4) -0.2500
N1 N 0.7271(3) 0.2793(3) 0.3148(4)
H1 H 0.6925(3) 0.2772(3) 0.3626(4)
H2 H 0.7450(3) 0.2322(3) 0.3050(4)
C1 C 0.7880(5) 0.3300(4) 0.3451(6)
H3 H 0.7984(5) 0.3232(4) 0.4148(6)
H4 H 0.8328(5) 0.3180(4) 0.3083(6)
C2 C 0.7656(4) 0.4083(4) 0.3261(5)
H5 H 0.8076(4) 0.4422(4) 0.3360(5)
H6 H 0.7261(4) 0.4231(4) 0.3709(5)
N2 N 0.7392(3) 0.4131(3) 0.2226(4)
H7 H 0.7785(3) 0.4175(3) 0.1817(4)
H8 H 0.7103(3) 0.4544(3) 0.2151(4)
N3 N 0.6252(2) 0.2234(3) 0.1491(3)
C3 C 0.5879(3) 0.2285(3) 0.0642(3)
C4 C 0.5517(3) 0.1657(3) 0.0265(4)
H9 H 0.5251(3) 0.1708(3) -0.0320(4)
N4 N 0.5535(3) 0.0986(3) 0.0703(3)
C5 C 0.5892(4) 0.0943(4) 0.1550(5)
H10 H 0.5904(4) 0.0482(4) 0.1882(5)
C6 C 0.6252(4) 0.1566(4) 0.1962(5)
H11 H 0.6494(4) 0.1518(4) 0.2566(5)
N5 N 0.6311(2) 0.3559(2) 0.0624(3)
C7 C 0.5900(3) 0.3024(3) 0.0164(3)
C8 C 0.5523(3) 0.3208(3) -0.0685(4)
H12 H 0.5237(3) 0.2838(3) -0.0994(4)
N6 N 0.5553(3) 0.3897(3) -0.1079(3)
C9 C 0.5956(4) 0.4414(3) -0.0606(4)
H13 H 0.5982(4) 0.4903(3) -0.0862(4)
C10 C 0.6336(3) 0.4254(3) 0.0246(4)
H14 H 0.6611(3) 0.4631(3) 0.0558(4)
N4D N 0.4465(3) -0.0986(3) -0.0703(3)
C4D C 0.4483(3) -0.1657(3) -0.0265(4)
C3D C 0.4121(3) -0.2285(3) -0.0642(3)
N3D N 0.3748(2) -0.2234(3) -0.1491(3)
Pd1D Pd 0.31952(2) -0.31855(2) -0.18851(3)
N1D N 0.2729(3) -0.2793(3) -0.3148(4)
H1D H 0.3075(3) -0.2772(3) -0.3626(4)
H2D H 0.2550(3) -0.2322(3) -0.3050(4)
C1D C 0.2120(5) -0.3300(4) -0.3451(6)
H3D H 0.2016(5) -0.3232(4) -0.4148(6)
H4D H 0.1672(5) -0.3180(4) -0.3083(6)
C2D C 0.2344(4) -0.4083(4) -0.3261(5)
H5D H 0.1924(4) -0.4422(4) -0.3360(5)
H6D H 0.2739(4) -0.4231(4) -0.3709(5)
N2D N 0.2608(3) -0.4131(3) -0.2226(4)
N5D N 0.3689(2) -0.3559(2) -0.0624(3)
C7D C 0.4100(3) -0.3024(3) -0.0164(3)
C8D C 0.4477(3) -0.3208(3) 0.0685(4)
H12D H 0.4763(3) -0.2838(3) 0.0994(4)
N6D N 0.4447(3) -0.3897(3) 0.1079(3)
Ag2D Ag 0.5000 -0.41098(4) 0.2500
C9D C 0.4044(4) -0.4414(3) 0.0606(4)
H13D H 0.4018(4) -0.4903(3) 0.0862(4)
C10D C 0.3664(3) -0.4254(3) -0.0246(4)
H14D H 0.3389(3) -0.4631(3) -0.0558(4)
H7D H 0.2215(3) -0.4175(3) -0.1817(4)
H8D H 0.2897(3) -0.4544(3) -0.2151(4)
C6D C 0.3748(4) -0.1566(4) -0.1962(5)
C5D C 0.4108(4) -0.0943(4) -0.1550(5)
H10D H 0.4096(4) -0.0482(4) -0.1882(5)
H11D H 0.3506(4) -0.1518(4) -0.2566(5)
H9D H 0.4749(3) -0.1708(3) 0.0320(4)
N6F N 0.4447(3) 0.3897(3) -0.3921(3)
Cl1 Cl 0.0000 0.09602(14) 0.7500
O1 O 0.0717(15) 0.0482(16) 0.7711(21)
O2 O 0.0199(9) 0.1146(10) 0.6488(13)
O1F O -0.0717(15) 0.0482(16) 0.7289(21)
O2F O -0.0199(9) 0.1146(10) 0.8512(13)
Cl2 Cl 0.5000 0.10928(13) 0.7500
O6 O 0.4404(17) 0.0797(20) 0.7116(21)
O7 O 0.4416(11) 0.0968(9) 0.8323(10)
O6F O 0.5596(17) 0.0797(20) 0.7884(21)
O7F O 0.5584(11) 0.0968(9) 0.6677(10)
Cl3 Cl 0.17343(13) 0.13399(12) 0.3802(2)
O9 O 0.2164(8) 0.0696(6) 0.3476(13)
O10 O 0.1708(10) 0.1822(9) 0.3019(13)
O11 O 0.1273(7) 0.1200(8) 0.4699(9)
O15 O 0.2252(6) 0.1809(7) 0.4282(11)
Cl4 Cl 0.33116(15) 0.10795(15) 0.0410(2)
O17 O 0.2999(13) 0.1604(13) -0.0172(16)
O18 O 0.3647(12) 0.1058(12) -0.0659(16)
O19 O 0.3873(17) 0.1775(17) 0.0652(22)
O23 O 0.3811(4) 0.0672(5) 0.0967(5)
O3? O 0.0592(8) 0.0511(9) 0.7740(16)
O4? O -0.0128(7) 0.1590(7) 0.8070(10)
O5? O 0.5000 0.1864(4) 0.7500
O8? O 0.4690(17) 0.0721(18) 0.6717(17)
O12? O 0.1634(10) 0.0675(10) 0.3270(12)
O13? O 0.1222(10) 0.1869(11) 0.3278(13)
O14? O 0.1093(11) 0.1060(10) 0.4121(13)
O16? O 0.2372(29) 0.1215(31) 0.4140(36)
O20? O 0.2682(4) 0.1182(5) 0.1000(8)
O21? O 0.3130(6) 0.0490(8) -0.0269(7)
O22? O 0.3737(23) 0.1716(22) 0.0337(24)
loop_
_geom_bond_atom_site_label_1
_geom_bond_atom_site_label_2
_geom_bond_site_symmetry_1
_geom_bond_site_symmetry_2
Pd1 N1 1_555 1_555
Ag1 N4 1_555 1_555
Ag2 N6 1_555 1_555
N1 H1 1_555 1_555
H2 N1 1_555 1_555
C1 N1 1_555 1_555
H3 C1 1_555 1_555
H4 C1 1_555 1_555
C2 C1 1_555 1_555
H5 C2 1_555 1_555
H6 C2 1_555 1_555
N2 Pd1 1_555 1_555
H7 N2 1_555 1_555
H8 N2 1_555 1_555
N3 Pd1 1_555 1_555
C3 N3 1_555 1_555
C4 C3 1_555 1_555
H9 C4 1_555 1_555
N4 C4 1_555 1_555
C5 N4 1_555 1_555
H10 C5 1_555 1_555
C6 N3 1_555 1_555
H11 C6 1_555 1_555
N5 Pd1 1_555 1_555
C7 C3 1_555 1_555
C8 C7 1_555 1_555
H12 C8 1_555 1_555
N6 C8 1_555 1_555
C9 N6 1_555 1_555
H13 C9 1_555 1_555
C10 N5 1_555 1_555
H14 C10 1_555 1_555
Cl1 O1 1_555 1_555
O2 Cl1 1_555 1_555
Cl2 O6 1_555 1_555
O7 Cl2 1_555 1_555
Cl3 O9 1_555 1_555
O10 Cl3 1_555 1_555
O11 Cl3 1_555 1_555
O15 Cl3 1_555 1_555
Cl4 O17 1_555 1_555
O18 Cl4 1_555 1_555
O19 Cl4 1_555 1_555
O23 Cl4 1_555 1_555
N4D Ag1 1_555 1_555
C4D N4D 1_555 1_555
C3D C4D 1_555 1_555
N3D C3D 1_555 1_555
Pd1D N3D 1_555 1_555
N1D Pd1D 1_555 1_555
H1D N1D 1_555 1_555
H2D N1D 1_555 1_555
C1D N1D 1_555 1_555
H3D C1D 1_555 1_555
H4D C1D 1_555 1_555
C2D C1D 1_555 1_555
H5D C2D 1_555 1_555
H6D C2D 1_555 1_555
N2D Pd1D 1_555 1_555
N5D Pd1D 1_555 1_555
C7D C3D 1_555 1_555
C8D C7D 1_555 1_555
H12D C8D 1_555 1_555
N6D C8D 1_555 1_555
Ag2D N6D 1_555 1_555
C9D N6D 1_555 1_555
H13D C9D 1_555 1_555
C10D N5D 1_555 1_555
H14D C10D 1_555 1_555
H7D N2D 1_555 1_555
H8D N2D 1_555 1_555
C6D N3D 1_555 1_555
C5D N4D 1_555 1_555
H10D C5D 1_555 1_555
H11D C6D 1_555 1_555
H9D C4D 1_555 1_555
N6F Ag2 1_555 1_555
O1F Cl1 1_555 1_555
O2F Cl1 1_555 1_555
O6F Cl2 1_555 1_555
O7F Cl2 1_555 1_555
C2 N2 1_555 1_555
C5 C6 1_555 1_555
N5 C7 1_555 1_555
C9 C10 1_555 1_555
C2D N2D 1_555 1_555
N5D C7D 1_555 1_555
C9D C10D 1_555 1_555
C6D C5D 1_555 1_555

#END
