
#######################################################################
#
#                 Cambridge Crystallographic Data Centre
#                                CCDC 
#
#######################################################################
#
# If this CIF has been generated from an entry in the Cambridge 
# Structural Database, then it will include bibliographic, chemical, 
# crystal, experimental, refinement or atomic coordinate data resulting 
# from the CCDC's data processing and validation procedures.
#
#######################################################################

data_MARCIT
_symmetry_cell_setting           triclinic
_symmetry_space_group_name_H-M   'P -1'
_symmetry_Int_Tables_number      2
_space_group_name_Hall           '-P 1'
loop_
_symmetry_equiv_pos_site_id
_symmetry_equiv_pos_as_xyz
1 x,y,z
2 -x,-y,-z
_cell_length_a                   10.4604(5)
_cell_length_b                   11.9640(7)
_cell_length_c                   16.1087(8)
_cell_angle_alpha                78.673(3)
_cell_angle_beta                 72.493(3)
_cell_angle_gamma                64.513(3)
_cell_volume                     1730.24
loop_
_atom_site_label
_atom_site_type_symbol
_atom_site_fract_x
_atom_site_fract_y
_atom_site_fract_z
Cu1 Cu 0.23660(4) 0.32366(4) 0.23844(3)
N1 N 0.2445(4) 0.4482(3) 0.4037(2)
N2 N 0.1652(3) 0.3001(3) 0.36836(19)
H1 H 0.2371 0.234 0.3882
N3 N 0.1120(4) 0.2378(3) 0.2303(2)
H2 H 0.0275 0.2982 0.2194
N4 N 0.3047(3) 0.3519(3) 0.10842(19)
H3 H 0.231 0.4196 0.0914
N5 N 0.3540(3) 0.4160(3) 0.24711(19)
H4 H 0.4391 0.3578 0.2588
C1 C 0.3666(5) 0.5653(4) 0.4825(3)
H5 H 0.2753 0.6109 0.4708
C2 C 0.5680(5) 0.3746(4) 0.4910(3)
H6 H 0.6155 0.2895 0.4853
C3 C 0.4323(5) 0.4389(4) 0.4725(2)
C4 C 0.3637(5) 0.3676(4) 0.4469(3)
H7 H 0.4382 0.3062 0.4076
H8 H 0.3252 0.3238 0.4987
C5 C 0.1292(5) 0.4081(4) 0.4167(3)
H9 H 0.047 0.4773 0.3997
H10 H 0.0982 0.3868 0.4786
C6 C 0.0386(5) 0.2657(4) 0.3839(3)
H11 H -0.0482 0.3394 0.3781
H12 H 0.0202 0.2266 0.4425
C7 C 0.0738(5) 0.1775(4) 0.3180(3)
H13 H 0.1551 0.1006 0.3272
H14 H -0.0099 0.1585 0.3236
C8 C 0.1743(5) 0.1500(4) 0.1612(3)
H15 H 0.1041 0.1166 0.1622
H16 H 0.2615 0.0814 0.1729
C9 C 0.2127(6) 0.2130(5) 0.0709(3)
H17 H 0.2369 0.1564 0.0276
H18 H 0.1267 0.2856 0.062
C10 C 0.3373(4) 0.2529(4) 0.0545(3)
H19 H 0.4226 0.1816 0.066
H20 H 0.361 0.2816 -0.0066
C11 C 0.4272(4) 0.3889(4) 0.0927(3)
H21 H 0.4432 0.4293 0.0344
H22 H 0.5155 0.3161 0.0974
C12 C 0.3923(5) 0.4765(4) 0.1591(3)
H23 H 0.4761 0.4952 0.1535
H24 H 0.3111 0.5535 0.1501
C13 C 0.2861(5) 0.5043(4) 0.3167(3)
H25 H 0.3545 0.539 0.3169
H26 H 0.2 0.5722 0.3029
C14 C 0.4950(5) 0.0615(4) 0.2924(3)
C15 C 0.9865(4) -0.4009(4) 0.1856(3)
C16 C 0.8564(4) -0.2815(3) 0.2124(2)
C17 C 0.7752(5) -0.2709(4) 0.2979(3)
H27 H 0.7994 -0.3391 0.3383
C18 C 0.6592(5) -0.1617(4) 0.3255(3)
H28 H 0.6081 -0.156 0.3838
C19 C 0.6202(4) -0.0609(3) 0.2649(3)
C20 C 0.6981(4) -0.0705(4) 0.1795(3)
H29 H 0.6719 -0.0031 0.1389
C21 C 0.8155(4) -0.1799(4) 0.1531(3)
H30 H 0.8674 -0.185 0.0949
O1 O 0.4516(3) 0.1410(3) 0.2330(2)
O2 O 0.4365(4) 0.0730(3) 0.3732(2)
O3 O 1.0174(3) -0.4866(2) 0.24296(19)
O4 O 1.0545(3) -0.4066(3) 0.10640(18)
Cu1A Cu 0.76340(4) 0.67634(4) 0.76156(3)
Cu1_2 Cu 1.23660(4) -0.67634(4) 0.23844(3)
Cu1_3 Cu -0.76340(4) 1.32366(4) 0.23844(3)
N1A N 0.7555(4) 0.5518(3) 0.5963(2)
N2A N 0.8348(3) 0.6999(3) 0.63164(19)
H1A H 0.7629 0.766 0.6118
N3A N 0.8880(4) 0.7622(3) 0.7697(2)
H2A H 0.9725 0.7018 0.7806
N4A N 0.6953(3) 0.6481(3) 0.89158(19)
H3A H 0.769 0.5804 0.9086
N5A N 0.6460(3) 0.5840(3) 0.75289(19)
H4A H 0.5609 0.6422 0.7412
C1A C 0.6334(5) 0.4347(4) 0.5175(3)
H5A H 0.7247 0.3891 0.5292
C2A C 0.4320(5) 0.6254(4) 0.5090(3)
H6A H 0.3845 0.7105 0.5147
C3A C 0.5677(5) 0.5611(4) 0.5275(2)
C4A C 0.6363(5) 0.6324(4) 0.5531(3)
H7A H 0.5618 0.6938 0.5924
H8A H 0.6748 0.6762 0.5013
C5A C 0.8708(5) 0.5919(4) 0.5833(3)
H9A H 0.953 0.5227 0.6003
H10A H 0.9018 0.6132 0.5214
C6A C 0.9614(5) 0.7343(4) 0.6161(3)
H11A H 1.0482 0.6606 0.6219
H12A H 0.9798 0.7734 0.5575
C7A C 0.9262(5) 0.8225(4) 0.6820(3)
H13A H 0.8449 0.8994 0.6728
H14A H 1.0099 0.8415 0.6764
C8A C 0.8257(5) 0.8500(4) 0.8388(3)
H15A H 0.8959 0.8834 0.8378
H16A H 0.7385 0.9186 0.8271
C9A C 0.7873(6) 0.7870(5) 0.9291(3)
H17A H 0.7631 0.8436 0.9724
H18A H 0.8733 0.7144 0.938
C10A C 0.6627(4) 0.7471(4) 0.9455(3)
H19A H 0.5774 0.8184 0.934
H20A H 0.639 0.7184 1.0066
C11A C 0.5728(4) 0.6111(4) 0.9073(3)
H21A H 0.5568 0.5707 0.9656
H22A H 0.4845 0.6839 0.9026
C12A C 0.6077(5) 0.5235(4) 0.8409(3)
H23A H 0.5239 0.5048 0.8465
H24A H 0.6889 0.4465 0.8499
C13A C 0.7139(5) 0.4957(4) 0.6833(3)
H25A H 0.6455 0.461 0.6831
H26A H 0.8 0.4278 0.6971
C14_2 C -0.5050(5) 1.0615(4) 0.2924(3)
C15_2 C -0.0135(4) 0.5991(4) 0.1856(3)
C16_2 C -0.1436(4) 0.7185(3) 0.2124(2)
C17_2 C -0.2248(5) 0.7291(4) 0.2979(3)
H27_2 H -0.2006 0.6609 0.3383
C18_2 C -0.3408(5) 0.8383(4) 0.3255(3)
H28_2 H -0.3919 0.844 0.3838
C19_2 C -0.3798(4) 0.9391(3) 0.2649(3)
C20_2 C -0.3019(4) 0.9295(4) 0.1795(3)
H29_2 H -0.3281 0.9969 0.1389
C21_2 C -0.1845(4) 0.8201(4) 0.1531(3)
H30_2 H -0.1326 0.815 0.0949
O1_2 O -0.5484(3) 1.1410(3) 0.2330(2)
O1A O 0.5484(3) 0.8590(3) 0.7670(2)
O2_2 O -0.5635(4) 1.0730(3) 0.3732(2)
O3_2 O 0.0174(3) 0.5134(2) 0.24296(19)
O3A O 0.9826(3) 0.4866(2) 0.75704(19)
O4_2 O 0.0545(3) 0.5934(3) 0.10640(18)
C22 C 0.1593(14) 0.8538(6) 0.3211(5)
C23 C 0.0802(9) 0.8651(6) 0.2607(6)
H31 H -0.0203 0.8878 0.2788
C24 C 0.1476(10) 0.8440(6) 0.1802(6)
H32 H 0.0925 0.8497 0.1425
C25 C 0.2951(10) 0.8137(7) 0.1458(7)
H33 H 0.3395 0.8 0.0872
C26 C 0.3709(11) 0.8053(7) 0.2034(8)
H34 H 0.4703 0.7871 0.1825
C27 C 0.3130(10) 0.8213(7) 0.2870(8)
H35 H 0.3714 0.8117 0.3237
O5 O 0.0861(12) 0.8774(7) 0.4019(4)
H41 H 0.1286 0.9024 0.4244
C28 C 0.8150(5) 0.3075(5) 0.0966(3)
C29 C 0.7755(6) 0.2377(6) 0.1736(4)
H36 H 0.7826 0.1582 0.1712
C30 C 0.7252(6) 0.2902(10) 0.2543(4)
H37 H 0.7016 0.2435 0.3053
C31 C 0.7105(7) 0.4050(11) 0.2595(5)
H38 H 0.6769 0.4381 0.3133
C32 C 0.7458(5) 0.4738(6) 0.1842(4)
H39 H 0.7333 0.5548 0.1873
C33 C 0.7992(5) 0.4254(5) 0.1043(3)
H40 H 0.825 0.4733 0.0546
O6 O 0.8652(5) 0.2563(3) 0.0194(2)
H42 H 0.8368 0.3102 -0.0188
O7 O 0.3814(12) 0.9567(8) 0.5243(5)
O8 O 0.1902(18) 0.9558(10) 0.5177(8)
loop_
_geom_bond_atom_site_label_1
_geom_bond_atom_site_label_2
_geom_bond_site_symmetry_1
_geom_bond_site_symmetry_2
Cu1 N2 1_555 1_555
N1 C4 1_555 1_555
N2 H1 1_555 1_555
N3 Cu1 1_555 1_555
H2 N3 1_555 1_555
N4 Cu1 1_555 1_555
H3 N4 1_555 1_555
N5 Cu1 1_555 1_555
H4 N5 1_555 1_555
C1 H5 1_555 1_555
C2 H6 1_555 1_555
C3 C1 1_555 1_555
C4 C3 1_555 1_555
H7 C4 1_555 1_555
H8 C4 1_555 1_555
C5 N1 1_555 1_555
H9 C5 1_555 1_555
H10 C5 1_555 1_555
C6 N2 1_555 1_555
H11 C6 1_555 1_555
H12 C6 1_555 1_555
C7 N3 1_555 1_555
H13 C7 1_555 1_555
H14 C7 1_555 1_555
C8 N3 1_555 1_555
H15 C8 1_555 1_555
H16 C8 1_555 1_555
C9 C8 1_555 1_555
H17 C9 1_555 1_555
H18 C9 1_555 1_555
C10 N4 1_555 1_555
H19 C10 1_555 1_555
H20 C10 1_555 1_555
C11 N4 1_555 1_555
H21 C11 1_555 1_555
H22 C11 1_555 1_555
C12 N5 1_555 1_555
H23 C12 1_555 1_555
H24 C12 1_555 1_555
C13 N1 1_555 1_555
H25 C13 1_555 1_555
H26 C13 1_555 1_555
C14 C19 1_555 1_555
C15 C16 1_555 1_555
C16 C17 1_555 1_555
C17 H27 1_555 1_555
C18 C17 1_555 1_555
H28 C18 1_555 1_555
C19 C18 1_555 1_555
C20 C19 1_555 1_555
H29 C20 1_555 1_555
C21 C16 1_555 1_555
H30 C21 1_555 1_555
C22 C23 1_555 1_555
C23 H31 1_555 1_555
C24 C23 1_555 1_555
H32 C24 1_555 1_555
C25 C24 1_555 1_555
H33 C25 1_555 1_555
C26 C25 1_555 1_555
H34 C26 1_555 1_555
C27 C22 1_555 1_555
H35 C27 1_555 1_555
C28 C29 1_555 1_555
C29 H36 1_555 1_555
C30 C29 1_555 1_555
H37 C30 1_555 1_555
C31 C30 1_555 1_555
H38 C31 1_555 1_555
C32 C31 1_555 1_555
H39 C32 1_555 1_555
C33 C28 1_555 1_555
H40 C33 1_555 1_555
O1 Cu1 1_555 1_555
O2 C14 1_555 1_555
O3 C15 1_555 1_555
O4 C15 1_555 1_555
O5 C22 1_555 1_555
H41 O5 1_555 1_555
O6 C28 1_555 1_555
H42 O6 1_555 1_555
Cu1A N2A 1_555 1_555
Cu1_2 O3 1_555 1_555
Cu1_3 O1_2 1_555 1_555
N1A C4A 1_555 1_555
N2A H1A 1_555 1_555
N3A Cu1A 1_555 1_555
H2A N3A 1_555 1_555
N4A Cu1A 1_555 1_555
H3A N4A 1_555 1_555
N5A Cu1A 1_555 1_555
H4A N5A 1_555 1_555
C1A C2 1_555 1_555
H5A C1A 1_555 1_555
C2A C1 1_555 1_555
H6A C2A 1_555 1_555
C3A C1A 1_555 1_555
C4A C3A 1_555 1_555
H7A C4A 1_555 1_555
H8A C4A 1_555 1_555
C5A N1A 1_555 1_555
H9A C5A 1_555 1_555
H10A C5A 1_555 1_555
C6A N2A 1_555 1_555
H11A C6A 1_555 1_555
H12A C6A 1_555 1_555
C7A N3A 1_555 1_555
H13A C7A 1_555 1_555
H14A C7A 1_555 1_555
C8A N3A 1_555 1_555
H15A C8A 1_555 1_555
H16A C8A 1_555 1_555
C9A C8A 1_555 1_555
H17A C9A 1_555 1_555
H18A C9A 1_555 1_555
C10A N4A 1_555 1_555
H19A C10A 1_555 1_555
H20A C10A 1_555 1_555
C11A N4A 1_555 1_555
H21A C11A 1_555 1_555
H22A C11A 1_555 1_555
C12A N5A 1_555 1_555
H23A C12A 1_555 1_555
H24A C12A 1_555 1_555
C13A N1A 1_555 1_555
H25A C13A 1_555 1_555
H26A C13A 1_555 1_555
C14_2 C19_2 1_555 1_555
C15_2 C16_2 1_555 1_555
C16_2 C17_2 1_555 1_555
C17_2 H27_2 1_555 1_555
C18_2 C17_2 1_555 1_555
H28_2 C18_2 1_555 1_555
C19_2 C18_2 1_555 1_555
C20_2 C19_2 1_555 1_555
H29_2 C20_2 1_555 1_555
C21_2 C16_2 1_555 1_555
H30_2 C21_2 1_555 1_555
O1_2 C14_2 1_555 1_555
O1A Cu1A 1_555 1_555
O2_2 C14_2 1_555 1_555
O3_2 Cu1 1_555 1_555
O3A Cu1A 1_555 1_555
O4_2 C15_2 1_555 1_555
N2 C5 1_555 1_555
N5 C13 1_555 1_555
C2 C3 1_555 1_555
C6 C7 1_555 1_555
C9 C10 1_555 1_555
C11 C12 1_555 1_555
C14 O1 1_555 1_555
C20 C21 1_555 1_555
C26 C27 1_555 1_555
C32 C33 1_555 1_555
N2A C5A 1_555 1_555
N5A C13A 1_555 1_555
C2A C3A 1_555 1_555
C6A C7A 1_555 1_555
C9A C10A 1_555 1_555
C11A C12A 1_555 1_555
C15_2 O3_2 1_555 1_555
C20_2 C21_2 1_555 1_555

#END
