
#######################################################################
#
#                 Cambridge Crystallographic Data Centre
#                                CCDC 
#
#######################################################################
#
# If this CIF has been generated from an entry in the Cambridge 
# Structural Database, then it will include bibliographic, chemical, 
# crystal, experimental, refinement or atomic coordinate data resulting 
# from the CCDC's data processing and validation procedures.
#
#######################################################################

data_MARCOZ
_symmetry_cell_setting           monoclinic
_symmetry_space_group_name_H-M   'P 21/c'
_symmetry_Int_Tables_number      14
_space_group_name_Hall           '-P 2ybc'
loop_
_symmetry_equiv_pos_site_id
_symmetry_equiv_pos_as_xyz
1 x,y,z
2 -x,1/2+y,1/2-z
3 -x,-y,-z
4 x,1/2-y,1/2+z
_cell_length_a                   16.5171(3)
_cell_length_b                   11.3860(3)
_cell_length_c                   17.9517(5)
_cell_angle_alpha                90
_cell_angle_beta                 106.9330(10)
_cell_angle_gamma                90
_cell_volume                     3229.7
loop_
_atom_site_label
_atom_site_type_symbol
_atom_site_fract_x
_atom_site_fract_y
_atom_site_fract_z
Cu1 Cu 0.27306(3) 0.25058(4) 0.19334(3)
N1 N 0.3074(2) 0.0774(3) 0.0585(2)
N2 N 0.2499(2) 0.0803(3) 0.1692(2)
H1 H 0.295 0.0388 0.1986
N3 N 0.2079(2) 0.2304(3) 0.2711(2)
H2 H 0.1571 0.2665 0.2509
N4 N 0.2988(3) 0.4214(3) 0.2198(2)
H3 H 0.2496 0.4609 0.1982
N5 N 0.3412(2) 0.2718(3) 0.1184(2)
H4 H 0.3955 0.2519 0.144
C1 C 0.4320(3) -0.0757(4) -0.0136(3)
H5 H 0.386 -0.1265 -0.0229
C2 C 0.5137(3) 0.0820(4) 0.0585(3)
H6 H 0.523 0.138 0.0978
C3 C 0.4462(3) 0.0076(4) 0.0466(3)
C4 C 0.3859(3) 0.0136(4) 0.0966(3)
H7 H 0.3719 -0.0656 0.1085
H8 H 0.4143 0.0521 0.1455
C5 C 0.2363(3) 0.0471(4) 0.0867(3)
H9 H 0.2266 -0.0369 0.0811
H10 H 0.186 0.0864 0.0548
C6 C 0.1757(3) 0.0509(4) 0.1969(3)
H11 H 0.1697 -0.0336 0.1995
H12 H 0.1243 0.0823 0.1613
C7 C 0.1903(3) 0.1047(4) 0.2773(3)
H13 H 0.1404 0.0946 0.2948
H14 H 0.2378 0.0668 0.3144
C8 C 0.2470(4) 0.2830(5) 0.3489(3)
H15 H 0.3012 0.246 0.3728
H16 H 0.2109 0.2686 0.382
C9 C 0.2596(4) 0.4149(5) 0.3428(3)
H17 H 0.2057 0.4495 0.3145
H18 H 0.2755 0.4477 0.3949
C10 C 0.3244(4) 0.4517(5) 0.3037(3)
H19 H 0.3331 0.5358 0.3095
H20 H 0.3778 0.4135 0.3292
C11 C 0.3591(3) 0.4635(4) 0.1792(4)
H21 H 0.4167 0.4477 0.2105
H22 H 0.3529 0.5475 0.1706
C12 C 0.3406(3) 0.3993(4) 0.1014(3)
H23 H 0.2858 0.4226 0.0674
H24 H 0.3834 0.4178 0.076
C13 C 0.3157(3) 0.2013(4) 0.0459(3)
H25 H 0.262 0.2308 0.0131
H26 H 0.3574 0.2123 0.018
C14 C 0.4189(3) 0.0414(4) 0.3352(3)
C15 C 0.4603(3) 0.0182(4) 0.4205(3)
C16 C 0.5073(3) 0.1071(4) 0.4669(3)
H27 H 0.5118 0.1799 0.4449
C17 C 0.4527(3) -0.0884(4) 0.4546(3)
H28 H 0.4205 -0.1481 0.4248
O1 O 0.1378(2) 0.3111(3) 0.1009(2)
O2 O 0.4201(2) 0.1431(3) 0.3092(2)
O3 O 0.3840(2) -0.0457(3) 0.29325(19)
Cu1B Cu 0.72694(3) -0.25058(4) -0.19334(3)
Cu1B_2 Cu 0.72694(3) -0.25058(4) 0.80666(3)
N1B N 0.6926(2) -0.0774(3) -0.0585(2)
N2B N 0.7501(2) -0.0803(3) -0.1692(2)
H1B H 0.705 -0.0388 -0.1986
N3B N 0.7921(2) -0.2304(3) -0.2711(2)
H2B H 0.8429 -0.2665 -0.2509
N4B N 0.7012(3) -0.4214(3) -0.2198(2)
H3B H 0.7504 -0.4609 -0.1982
N5B N 0.6588(2) -0.2718(3) -0.1184(2)
H4B H 0.6045 -0.2519 -0.144
C1B C 0.5680(3) 0.0757(4) 0.0136(3)
H5B H 0.614 0.1265 0.0229
C2B C 0.4863(3) -0.0820(4) -0.0585(3)
H6B H 0.477 -0.138 -0.0978
C3B C 0.5538(3) -0.0076(4) -0.0466(3)
C4B C 0.6141(3) -0.0136(4) -0.0966(3)
H7B H 0.6281 0.0656 -0.1085
H8B H 0.5857 -0.0521 -0.1455
C5B C 0.7637(3) -0.0471(4) -0.0867(3)
H9B H 0.7734 0.0369 -0.0811
H10B H 0.814 -0.0864 -0.0548
C6B C 0.8243(3) -0.0509(4) -0.1969(3)
H11B H 0.8303 0.0336 -0.1995
H12B H 0.8757 -0.0823 -0.1613
C7B C 0.8097(3) -0.1047(4) -0.2773(3)
H13B H 0.8596 -0.0946 -0.2948
H14B H 0.7622 -0.0668 -0.3144
C8B C 0.7530(4) -0.2830(5) -0.3489(3)
H15B H 0.6988 -0.246 -0.3728
H16B H 0.7891 -0.2686 -0.382
C9B C 0.7404(4) -0.4149(5) -0.3428(3)
H17B H 0.7943 -0.4495 -0.3145
H18B H 0.7245 -0.4477 -0.3949
C10B C 0.6756(4) -0.4517(5) -0.3037(3)
H19B H 0.6669 -0.5358 -0.3095
H20B H 0.6222 -0.4135 -0.3292
C11B C 0.6409(3) -0.4635(4) -0.1792(4)
H21B H 0.5833 -0.4477 -0.2105
H22B H 0.6471 -0.5475 -0.1706
C12B C 0.6594(3) -0.3993(4) -0.1014(3)
H23B H 0.7142 -0.4226 -0.0674
H24B H 0.6166 -0.4178 -0.076
C13B C 0.6843(3) -0.2013(4) -0.0459(3)
H25B H 0.738 -0.2308 -0.0131
H26B H 0.6426 -0.2123 -0.018
C14B C 0.5811(3) -0.0414(4) 0.6648(3)
C15B C 0.5397(3) -0.0182(4) 0.5795(3)
C16B C 0.4927(3) -0.1071(4) 0.5331(3)
H27B H 0.4882 -0.1799 0.5551
C17B C 0.5473(3) 0.0884(4) 0.5454(3)
H28B H 0.5795 0.1481 0.5752
O1B O 0.8622(2) -0.3111(3) -0.1009(2)
O2B O 0.5799(2) -0.1431(3) 0.6908(2)
O2B_2 O 0.5799(2) -0.1431(3) -0.3092(2)
O3B O 0.6160(2) 0.0457(3) 0.70675(19)
C18 C 0.0299(3) 0.4486(4) 0.3515(3)
C19 C 0.0167(3) 0.4735(3) 0.4301(3)
C20 C 0.0402(3) 0.5807(4) 0.4668(3)
H29 H 0.0673 0.6359 0.4442
C21 C -0.0241(3) 0.3933(4) 0.4638(3)
H30 H -0.041 0.3214 0.4398
O4 O 0.0412(3) 0.3437(3) 0.3356(2)
O5 O 0.0299(2) 0.5340(3) 0.30771(19)
C18B C -0.0299(3) 0.5514(4) 0.6485(3)
C19B C -0.0167(3) 0.5265(3) 0.5699(3)
C20B C -0.0402(3) 0.4193(4) 0.5332(3)
H29B H -0.0673 0.3641 0.5558
C21B C 0.0241(3) 0.6067(4) 0.5362(3)
H30B H 0.041 0.6786 0.5602
O4B O -0.0412(3) 0.6563(3) 0.6644(2)
O5B O -0.0299(2) 0.4660(3) 0.69229(19)
C22 C 0.1210(3) 0.6130(4) 0.1730(3)
C23 C 0.1620(3) 0.6712(4) 0.2408(3)
H31 H 0.144 0.6624 0.285
C24 C 0.2300(3) 0.7427(3) 0.2425(3)
C25 C 0.2579(3) 0.7558(4) 0.1776(3)
H32 H 0.3045 0.8029 0.1796
C26 C 0.2161(3) 0.6983(4) 0.1099(3)
C27 C 0.1477(3) 0.6258(4) 0.1066(3)
H33 H 0.1201 0.5865 0.0608
O6 O 0.0543(2) 0.5391(3) 0.1686(2)
H34 H 0.0423 0.541 0.2098
O7 O 0.2682(3) 0.7991(3) 0.3119(2)
H35 H 0.3076 0.8393 0.3071
O8 O 0.2464(3) 0.7160(4) 0.0472(2)
H36 H 0.2115 0.6926 0.0074
O9 O 0.0093(2) 0.2725(3) 0.1854(2)
O10 O 0.5175(3) 0.2460(3) 0.2210(3)
O11 O 0.1499(3) 0.8709(4) 0.4041(2)
O12 O 0.1016(3) 0.1545(4) 0.4421(2)
loop_
_geom_bond_atom_site_label_1
_geom_bond_atom_site_label_2
_geom_bond_site_symmetry_1
_geom_bond_site_symmetry_2
Cu1 N2 1_555 1_555
N1 C4 1_555 1_555
N2 H1 1_555 1_555
N3 Cu1 1_555 1_555
H2 N3 1_555 1_555
N4 Cu1 1_555 1_555
H3 N4 1_555 1_555
N5 Cu1 1_555 1_555
H4 N5 1_555 1_555
C1 H5 1_555 1_555
C2 H6 1_555 1_555
C3 C1 1_555 1_555
C4 C3 1_555 1_555
H7 C4 1_555 1_555
H8 C4 1_555 1_555
C5 N1 1_555 1_555
H9 C5 1_555 1_555
H10 C5 1_555 1_555
C6 N2 1_555 1_555
H11 C6 1_555 1_555
H12 C6 1_555 1_555
C7 N3 1_555 1_555
H13 C7 1_555 1_555
H14 C7 1_555 1_555
C8 N3 1_555 1_555
H15 C8 1_555 1_555
H16 C8 1_555 1_555
C9 C8 1_555 1_555
H17 C9 1_555 1_555
H18 C9 1_555 1_555
C10 N4 1_555 1_555
H19 C10 1_555 1_555
H20 C10 1_555 1_555
C11 N4 1_555 1_555
H21 C11 1_555 1_555
H22 C11 1_555 1_555
C12 N5 1_555 1_555
H23 C12 1_555 1_555
H24 C12 1_555 1_555
C13 N1 1_555 1_555
H25 C13 1_555 1_555
H26 C13 1_555 1_555
C14 C15 1_555 1_555
C15 C16 1_555 1_555
C16 H27 1_555 1_555
C17 C15 1_555 1_555
H28 C17 1_555 1_555
C18 C19 1_555 1_555
C19 C20 1_555 1_555
C20 H29 1_555 1_555
C21 C19 1_555 1_555
H30 C21 1_555 1_555
C22 C23 1_555 1_555
C23 H31 1_555 1_555
C24 C23 1_555 1_555
C25 C24 1_555 1_555
H32 C25 1_555 1_555
C26 C25 1_555 1_555
C27 C22 1_555 1_555
H33 C27 1_555 1_555
O1 Cu1 1_555 1_555
O2 Cu1 1_555 1_555
O3 C14 1_555 1_555
O4 C18 1_555 1_555
O5 C18 1_555 1_555
O6 C22 1_555 1_555
H34 O6 1_555 1_555
O7 C24 1_555 1_555
H35 O7 1_555 1_555
O8 C26 1_555 1_555
H36 O8 1_555 1_555
Cu1B N2B 1_555 1_555
Cu1B_2 O2B 1_555 1_555
N1B C4B 1_555 1_555
N2B H1B 1_555 1_555
N3B Cu1B 1_555 1_555
H2B N3B 1_555 1_555
N4B Cu1B 1_555 1_555
H3B N4B 1_555 1_555
N5B Cu1B 1_555 1_555
H4B N5B 1_555 1_555
C1B C2 1_555 1_555
H5B C1B 1_555 1_555
C2B C1 1_555 1_555
H6B C2B 1_555 1_555
C3B C1B 1_555 1_555
C4B C3B 1_555 1_555
H7B C4B 1_555 1_555
H8B C4B 1_555 1_555
C5B N1B 1_555 1_555
H9B C5B 1_555 1_555
H10B C5B 1_555 1_555
C6B N2B 1_555 1_555
H11B C6B 1_555 1_555
H12B C6B 1_555 1_555
C7B N3B 1_555 1_555
H13B C7B 1_555 1_555
H14B C7B 1_555 1_555
C8B N3B 1_555 1_555
H15B C8B 1_555 1_555
H16B C8B 1_555 1_555
C9B C8B 1_555 1_555
H17B C9B 1_555 1_555
H18B C9B 1_555 1_555
C10B N4B 1_555 1_555
H19B C10B 1_555 1_555
H20B C10B 1_555 1_555
C11B N4B 1_555 1_555
H21B C11B 1_555 1_555
H22B C11B 1_555 1_555
C12B N5B 1_555 1_555
H23B C12B 1_555 1_555
H24B C12B 1_555 1_555
C13B N1B 1_555 1_555
H25B C13B 1_555 1_555
H26B C13B 1_555 1_555
C14B C15B 1_555 1_555
C15B C16B 1_555 1_555
C16B C17 1_555 1_555
H27B C16B 1_555 1_555
C17B C16 1_555 1_555
H28B C17B 1_555 1_555
C18B C19B 1_555 1_555
C19B C20B 1_555 1_555
C20B C21 1_555 1_555
H29B C20B 1_555 1_555
C21B C20 1_555 1_555
H30B C21B 1_555 1_555
O1B Cu1B 1_555 1_555
O2B C14B 1_555 1_555
O2B_2 Cu1B 1_555 1_555
O3B C14B 1_555 1_555
O4B C18B 1_555 1_555
O5B C18B 1_555 1_555
N2 C5 1_555 1_555
N5 C13 1_555 1_555
C2 C3 1_555 1_555
C6 C7 1_555 1_555
C9 C10 1_555 1_555
C11 C12 1_555 1_555
C14 O2 1_555 1_555
C26 C27 1_555 1_555
N2B C5B 1_555 1_555
N5B C13B 1_555 1_555
C2B C3B 1_555 1_555
C6B C7B 1_555 1_555
C9B C10B 1_555 1_555
C11B C12B 1_555 1_555
C15B C17B 1_555 1_555
C19B C21B 1_555 1_555

#END
