
#######################################################################
#
#                 Cambridge Crystallographic Data Centre
#                                CCDC 
#
#######################################################################
#
# If this CIF has been generated from an entry in the Cambridge 
# Structural Database, then it will include bibliographic, chemical, 
# crystal, experimental, refinement or atomic coordinate data resulting 
# from the CCDC's data processing and validation procedures.
#
#######################################################################

data_MARCUF
_symmetry_cell_setting           monoclinic
_symmetry_space_group_name_H-M   'C 2/m'
_symmetry_Int_Tables_number      12
_space_group_name_Hall           '-C 2y'
loop_
_symmetry_equiv_pos_site_id
_symmetry_equiv_pos_as_xyz
1 x,y,z
2 -x,y,-z
3 1/2+x,1/2+y,z
4 1/2-x,1/2+y,-z
5 -x,-y,-z
6 x,-y,z
7 1/2-x,1/2-y,-z
8 1/2+x,1/2-y,z
_cell_length_a                   20.264(2)
_cell_length_b                   15.8241(16)
_cell_length_c                   16.1914(16)
_cell_angle_alpha                90
_cell_angle_beta                 113.573(3)
_cell_angle_gamma                90
_cell_volume                     4758.67
loop_
_atom_site_label
_atom_site_type_symbol
_atom_site_fract_x
_atom_site_fract_y
_atom_site_fract_z
Zn1 Zn 0.50781(4) 0.0000 0.75523(5)
Zn2 Zn 0.5000 0.0000 1.0000
Zn3 Zn 0.5000 0.0000 0.5000
C1 C 0.5813(3) -0.1616(3) 0.5969(3)
H1 H 0.5880 -0.1763 0.5451
C2 C 0.5872(3) -0.1599(3) 0.7313(3)
H2 H 0.5984 -0.1734 0.7913
C3 C 0.6553(3) -0.2796(3) 0.6972(3)
C4 C 0.6776(4) -0.3102(5) 0.6341(4)
H3 H 0.6641 -0.2843 0.5781
C5 C 0.7214(4) -0.3814(4) 0.6561(4)
H4 H 0.7367 -0.4030 0.6133
C6 C 0.7433(3) -0.4217(3) 0.7388(4)
C7 C 0.7213(4) -0.3870(5) 0.7998(4)
H5 H 0.7358 -0.4113 0.8566
C8 C 0.6772(4) -0.3155(4) 0.7794(4)
H6 H 0.6631 -0.2925 0.8226
C9 C 0.7908(4) -0.5000 0.7608(6)
H7 H 0.8199 -0.5000 0.7256
H8 H 0.8228 -0.5000 0.8241
C10 C 0.4260(3) 0.1645(3) 0.7685(3)
H9 H 0.4201 0.1808 0.7108
C11 C 0.4196(3) 0.1619(4) 0.8978(3)
H10 H 0.4083 0.1761 0.9464
C12 C 0.3522(3) 0.2789(3) 0.7953(3)
C13 C 0.3298(3) 0.3125(4) 0.7096(4)
H11 H 0.3443 0.2885 0.6672
C14 C 0.2850(3) 0.3825(4) 0.6883(4)
H12 H 0.2693 0.4044 0.6303
C15 C 0.2633(3) 0.4202(3) 0.7472(4)
C16 C 0.2844(4) 0.3870(4) 0.8313(4)
H13 H 0.2682 0.4108 0.8723
C17 C 0.3309(4) 0.3165(4) 0.8566(4)
H14 H 0.3471 0.2955 0.9150
C18 C 0.2166(4) 0.5000 0.7238(5)
H15 H 0.1859 0.5000 0.6599
H16 H 0.1858 0.5000 0.7569
C19 C 0.6316(4) 0.0000 0.9420(5)
H17 H 0.6817 0.0000 0.9688
C20 C 0.3745(4) 0.0000 0.5637(5)
H18 H 0.3245 0.0000 0.5409
N1 N 0.5432(2) -0.0979(3) 0.6028(2)
N2 N 0.5475(2) -0.0961(3) 0.6896(2)
N3 N 0.6104(2) -0.2042(3) 0.6765(3)
N4 N 0.4635(2) 0.0975(3) 0.8117(2)
N5 N 0.4592(2) 0.0966(3) 0.8967(2)
N6 N 0.3973(2) 0.2061(3) 0.8201(3)
O1 O 0.4043(3) 0.0000 0.6472(3)
O2 O 0.3994(3) 0.0000 0.5062(3)
O3 O 0.6015(3) 0.0000 0.9964(3)
O4 O 0.6059(2) 0.0000 0.8594(3)
Zn1_2 Zn 0.50781(4) 1.0000 0.75523(5)
Zn1_3 Zn 0.50781(4) -1.0000 0.75523(5)
Zn1A Zn 0.49219(4) 0.0000 1.24477(5)
Zn1A_2 Zn 0.49219(4) 1.0000 1.24477(5)
Zn2_2 Zn 0.5000 1.0000 1.0000
Zn3_2 Zn 0.5000 -1.0000 0.5000
Zn3_3 Zn 0.5000 1.0000 0.5000
C1E C 0.5813(3) -0.8384(3) 0.5969(3)
C1E_2 C 0.5813(3) 0.1616(3) 0.5969(3)
C1_2 C 0.5813(3) 0.8384(3) 0.5969(3)
H1E H 0.5880 -0.8237 0.5451
H1E_2 H 0.5880 0.1763 0.5451
H1_2 H 0.5880 0.8237 0.5451
C2E C 0.5872(3) -0.8401(3) 0.7313(3)
C2E_2 C 0.5872(3) 0.1599(3) 0.7313(3)
C2_2 C 0.5872(3) 0.8401(3) 0.7313(3)
H2E H 0.5984 -0.8266 0.7913
H2E_2 H 0.5984 0.1734 0.7913
H2_2 H 0.5984 0.8266 0.7913
C3E C 0.6553(3) -0.7204(3) 0.6972(3)
C3E_2 C 0.6553(3) 0.2796(3) 0.6972(3)
C3_2 C 0.6553(3) 0.7204(3) 0.6972(3)
C4E C 0.6776(4) -0.6898(5) 0.6341(4)
C4E_2 C 0.6776(4) 0.3102(5) 0.6341(4)
C4_2 C 0.6776(4) 0.6898(5) 0.6341(4)
H3E H 0.6641 -0.7157 0.5781
H3E_2 H 0.6641 0.2843 0.5781
H3_2 H 0.6641 0.7157 0.5781
C5E C 0.7214(4) -0.6186(4) 0.6561(4)
C5E_2 C 0.7214(4) 0.3814(4) 0.6561(4)
C5_2 C 0.7214(4) 0.6186(4) 0.6561(4)
H4E H 0.7367 -0.5970 0.6133
H4E_2 H 0.7367 0.4030 0.6133
H4_2 H 0.7367 0.5970 0.6133
C6E C 0.7433(3) -0.5783(3) 0.7388(4)
C6E_2 C 0.7433(3) 0.4217(3) 0.7388(4)
C6_2 C 0.7433(3) 0.5783(3) 0.7388(4)
C7E C 0.7213(4) -0.6130(5) 0.7998(4)
C7E_2 C 0.7213(4) 0.3870(5) 0.7998(4)
C7_2 C 0.7213(4) 0.6130(5) 0.7998(4)
H5E H 0.7358 -0.5887 0.8566
H5E_2 H 0.7358 0.4113 0.8566
H5_2 H 0.7358 0.5887 0.8566
C8E C 0.6772(4) -0.6845(4) 0.7794(4)
C8E_2 C 0.6772(4) 0.3155(4) 0.7794(4)
C8_2 C 0.6772(4) 0.6845(4) 0.7794(4)
H6E H 0.6631 -0.7075 0.8226
H6E_2 H 0.6631 0.2925 0.8226
H6_2 H 0.6631 0.7075 0.8226
C9_2 C 0.7908(4) 0.5000 0.7608(6)
H7_2 H 0.8199 0.5000 0.7256
H8_2 H 0.8228 0.5000 0.8241
C10E C 0.4260(3) 0.8355(3) 0.7685(3)
C10A C 0.5740(3) 0.1645(3) 1.2315(3)
C10D C 0.5740(3) 0.8355(3) 1.2315(3)
H9E H 0.4201 0.8192 0.7108
H9A H 0.5799 0.1808 1.2892
H9D H 0.5799 0.8192 1.2892
C11E C 0.4196(3) 0.8381(4) 0.8978(3)
C11A C 0.5804(3) 0.1619(4) 1.1022(3)
C11D C 0.5804(3) 0.8381(4) 1.1022(3)
H10E H 0.4083 0.8239 0.9464
H10A H 0.5917 0.1761 1.0536
H10D H 0.5917 0.8239 1.0536
C12E C 0.3522(3) 0.7211(3) 0.7953(3)
C12A C 0.6478(3) 0.2789(3) 1.2047(3)
C12D C 0.6478(3) 0.7211(3) 1.2047(3)
C13E C 0.3298(3) 0.6875(4) 0.7096(4)
C13A C 0.6702(3) 0.3125(4) 1.2904(4)
C13D C 0.6702(3) 0.6875(4) 1.2904(4)
H11E H 0.3443 0.7115 0.6672
H11A H 0.6557 0.2885 1.3328
H11D H 0.6557 0.7115 1.3328
C14E C 0.2850(3) 0.6175(4) 0.6883(4)
C14A C 0.7150(3) 0.3825(4) 1.3117(4)
C14D C 0.7150(3) 0.6175(4) 1.3117(4)
H12E H 0.2693 0.5956 0.6303
H12A H 0.7307 0.4044 1.3697
H12D H 0.7307 0.5956 1.3697
C15E C 0.2633(3) 0.5798(3) 0.7472(4)
C15A C 0.7367(3) 0.4202(3) 1.2528(4)
C15D C 0.7367(3) 0.5798(3) 1.2528(4)
C16E C 0.2844(4) 0.6130(4) 0.8313(4)
C16A C 0.7156(4) 0.3870(4) 1.1687(4)
C16D C 0.7156(4) 0.6130(4) 1.1687(4)
H13E H 0.2682 0.5892 0.8723
H13A H 0.7318 0.4108 1.1277
H13D H 0.7318 0.5892 1.1277
C17E C 0.3309(4) 0.6835(4) 0.8566(4)
C17A C 0.6691(4) 0.3165(4) 1.1434(4)
C17D C 0.6691(4) 0.6835(4) 1.1434(4)
H14E H 0.3471 0.7045 0.9150
H14A H 0.6529 0.2955 1.0850
H14D H 0.6529 0.7045 1.0850
C18A C 0.7834(4) 0.5000 1.2762(5)
H15A H 0.8141 0.5000 1.3401
H16A H 0.8142 0.5000 1.2431
C19A C 0.3684(4) 0.0000 1.0580(5)
H17A H 0.3183 0.0000 1.0312
C20_2 C 0.3745(4) 1.0000 0.5637(5)
H18_2 H 0.3245 1.0000 0.5409
N1E N 0.5432(2) -0.9021(3) 0.6028(2)
N1E_2 N 0.5432(2) 0.0979(3) 0.6028(2)
N1_2 N 0.5432(2) 0.9021(3) 0.6028(2)
N1A N 0.4568(2) -0.0979(3) 0.3972(2)
N1D N 0.4568(2) 0.0979(3) 0.3972(2)
N2E N 0.5475(2) -0.9039(3) 0.6896(2)
N2E_2 N 0.5475(2) 0.0961(3) 0.6896(2)
N2_2 N 0.5475(2) 0.9039(3) 0.6896(2)
N2E_3 N 0.5475(2) 1.0961(3) 0.6896(2)
N3E N 0.6104(2) -0.7958(3) 0.6765(3)
N3E_2 N 0.6104(2) 0.2042(3) 0.6765(3)
N3_2 N 0.6104(2) 0.7958(3) 0.6765(3)
N4E N 0.4635(2) 0.9025(3) 0.8117(2)
N4A N 0.5365(2) 0.0975(3) 1.1883(2)
N4D N 0.5365(2) 0.9025(3) 1.1883(2)
N4E_2 N 0.4635(2) -0.0975(3) 0.8117(2)
N4_2 N 0.4635(2) 1.0975(3) 0.8117(2)
N5E N 0.4592(2) 0.9034(3) 0.8967(2)
N5A N 0.5408(2) 0.0966(3) 1.1033(2)
N5D N 0.5408(2) 0.9034(3) 1.1033(2)
N5D_2 N 0.5408(2) -0.0966(3) 1.1033(2)
N5E_2 N 0.4592(2) -0.0966(3) 0.8967(2)
N6E N 0.3973(2) 0.7939(3) 0.8201(3)
N6A N 0.6027(2) 0.2061(3) 1.1799(3)
N6D N 0.6027(2) 0.7939(3) 1.1799(3)
O1_2 O 0.4043(3) 1.0000 0.6472(3)
O2_2 O 0.3994(3) 1.0000 0.5062(3)
O2A O 0.6006(3) 0.0000 0.4938(3)
O3A O 0.3985(3) 0.0000 1.0036(3)
O4A O 0.3941(2) 0.0000 1.1406(3)
O4_2 O 0.6059(2) 1.0000 0.8594(3)
loop_
_geom_bond_atom_site_label_1
_geom_bond_atom_site_label_2
_geom_bond_site_symmetry_1
_geom_bond_site_symmetry_2
Zn1 N2 1_555 1_555
Zn2 N5 1_555 1_555
Zn3 N1 1_555 1_555
C1 H1 1_555 1_555
C2 H2 1_555 1_555
C3 C4 1_555 1_555
C4 H3 1_555 1_555
C5 C4 1_555 1_555
H4 C5 1_555 1_555
C6 C5 1_555 1_555
C7 C6 1_555 1_555
H5 C7 1_555 1_555
C8 C3 1_555 1_555
H6 C8 1_555 1_555
C9 C6 1_555 1_555
H7 C9 1_555 1_555
H8 C9 1_555 1_555
C10 H9 1_555 1_555
C11 H10 1_555 1_555
C12 C13 1_555 1_555
C13 H11 1_555 1_555
C14 C13 1_555 1_555
H12 C14 1_555 1_555
C15 C14 1_555 1_555
C16 C15 1_555 1_555
H13 C16 1_555 1_555
C17 C12 1_555 1_555
H14 C17 1_555 1_555
C18 C15 1_555 1_555
H15 C18 1_555 1_555
H16 C18 1_555 1_555
C19 H17 1_555 1_555
C20 H18 1_555 1_555
N1 C1 1_555 1_555
N2 C2 1_555 1_555
N3 C1 1_555 1_555
N4 Zn1 1_555 1_555
N5 C11 1_555 1_555
N6 C10 1_555 1_555
O1 Zn1 1_555 1_555
O2 Zn3 1_555 1_555
O3 Zn2 1_555 1_555
O4 Zn1 1_555 1_555
Zn1_2 N2_2 1_555 1_555
Zn1_3 N2E 1_555 1_555
Zn1A N4A 1_555 1_555
Zn1A_2 N4D 1_555 1_555
Zn2_2 N5E 1_555 1_555
Zn3_2 N1E 1_555 1_555
Zn3_3 N1_2 1_555 1_555
C1E H1E 1_555 1_555
C1E_2 H1E_2 1_555 1_555
C1_2 H1_2 1_555 1_555
C2E H2E 1_555 1_555
C2E_2 H2E_2 1_555 1_555
C2_2 H2_2 1_555 1_555
C3E C4E 1_555 1_555
C3E_2 C4E_2 1_555 1_555
C3_2 C4_2 1_555 1_555
C4E H3E 1_555 1_555
C4E_2 H3E_2 1_555 1_555
C4_2 H3_2 1_555 1_555
C5E C4E 1_555 1_555
C5E_2 C4E_2 1_555 1_555
C5_2 C4_2 1_555 1_555
H4E C5E 1_555 1_555
H4E_2 C5E_2 1_555 1_555
H4_2 C5_2 1_555 1_555
C6E C9 1_555 1_555
C6E_2 C5E_2 1_555 1_555
C6_2 C5_2 1_555 1_555
C7E C6E 1_555 1_555
C7E_2 C6E_2 1_555 1_555
C7_2 C6_2 1_555 1_555
H5E C7E 1_555 1_555
H5E_2 C7E_2 1_555 1_555
H5_2 C7_2 1_555 1_555
C8E C3E 1_555 1_555
C8E_2 C3E_2 1_555 1_555
C8_2 C3_2 1_555 1_555
H6E C8E 1_555 1_555
H6E_2 C8E_2 1_555 1_555
H6_2 C8_2 1_555 1_555
C9_2 C6E_2 1_555 1_555
H7_2 C9_2 1_555 1_555
H8_2 C9_2 1_555 1_555
C10E H9E 1_555 1_555
C10A H9A 1_555 1_555
C10D H9D 1_555 1_555
C11E H10E 1_555 1_555
C11A H10A 1_555 1_555
C11D H10D 1_555 1_555
C12E C13E 1_555 1_555
C12A C13A 1_555 1_555
C12D C13D 1_555 1_555
C13E H11E 1_555 1_555
C13A H11A 1_555 1_555
C13D H11D 1_555 1_555
C14E C13E 1_555 1_555
C14A C13A 1_555 1_555
C14D C13D 1_555 1_555
H12E C14E 1_555 1_555
H12A C14A 1_555 1_555
H12D C14D 1_555 1_555
C15E C18 1_555 1_555
C15A C14A 1_555 1_555
C15D C14D 1_555 1_555
C16E C15E 1_555 1_555
C16A C15A 1_555 1_555
C16D C15D 1_555 1_555
H13E C16E 1_555 1_555
H13A C16A 1_555 1_555
H13D C16D 1_555 1_555
C17E C12E 1_555 1_555
C17A C12A 1_555 1_555
C17D C12D 1_555 1_555
H14E C17E 1_555 1_555
H14A C17A 1_555 1_555
H14D C17D 1_555 1_555
C18A C15A 1_555 1_555
H15A C18A 1_555 1_555
H16A C18A 1_555 1_555
C19A H17A 1_555 1_555
C20_2 H18_2 1_555 1_555
N1E C1E 1_555 1_555
N1E_2 Zn3 1_555 1_555
N1_2 C1_2 1_555 1_555
N1A Zn3 1_555 1_555
N1D Zn3 1_555 1_555
N2E C2E 1_555 1_555
N2E_2 Zn1 1_555 1_555
N2_2 C2_2 1_555 1_555
N2E_3 Zn1_2 1_555 1_555
N3E C1E 1_555 1_555
N3E_2 C1E_2 1_555 1_555
N3_2 C1_2 1_555 1_555
N4E Zn1_2 1_555 1_555
N4A C10A 1_555 1_555
N4D C10D 1_555 1_555
N4E_2 Zn1 1_555 1_555
N4_2 Zn1_2 1_555 1_555
N5E C11E 1_555 1_555
N5A Zn2 1_555 1_555
N5D Zn2_2 1_555 1_555
N5D_2 Zn2 1_555 1_555
N5E_2 Zn2 1_555 1_555
N6E C10E 1_555 1_555
N6A C10A 1_555 1_555
N6D C10D 1_555 1_555
O1_2 Zn1_2 1_555 1_555
O2_2 Zn3_3 1_555 1_555
O2A Zn3 1_555 1_555
O3A Zn2 1_555 1_555
O4A Zn1A 1_555 1_555
O4_2 Zn1_2 1_555 1_555
C2 N3 1_555 1_555
C3 N3 1_555 1_555
C7 C8 1_555 1_555
C10 N4 1_555 1_555
C11 N6 1_555 1_555
C12 N6 1_555 1_555
C16 C17 1_555 1_555
C19 O3 1_555 1_555
C19 O4 1_555 1_555
C20 O1 1_555 1_555
C20 O2 1_555 1_555
N1 N2 1_555 1_555
N4 N5 1_555 1_555
C1E_2 N1E_2 1_555 1_555
C2E N3E 1_555 1_555
C2E_2 N2E_2 1_555 1_555
C2E_2 N3E_2 1_555 1_555
C2_2 N3_2 1_555 1_555
C3E N3E 1_555 1_555
C3E_2 N3E_2 1_555 1_555
C3_2 N3_2 1_555 1_555
C5E C6E 1_555 1_555
C6_2 C9_2 1_555 1_555
C7E C8E 1_555 1_555
C7E_2 C8E_2 1_555 1_555
C7_2 C8_2 1_555 1_555
C10E N4E 1_555 1_555
C11E N6E 1_555 1_555
C11A N5A 1_555 1_555
C11A N6A 1_555 1_555
C11D N5D 1_555 1_555
C11D N6D 1_555 1_555
C12E N6E 1_555 1_555
C12A N6A 1_555 1_555
C12D N6D 1_555 1_555
C14E C15E 1_555 1_555
C15D C18A 1_555 1_555
C16E C17E 1_555 1_555
C16A C17A 1_555 1_555
C16D C17D 1_555 1_555
C19A O3A 1_555 1_555
C19A O4A 1_555 1_555
C20_2 O1_2 1_555 1_555
C20_2 O2_2 1_555 1_555
N1E N2E 1_555 1_555
N1E_2 N2E_2 1_555 1_555
N1_2 N2_2 1_555 1_555
N4E N5E 1_555 1_555
N4A N5A 1_555 1_555
N4D N5D 1_555 1_555
N4E_2 N5E_2 1_555 1_555

#END
