
#######################################################################
#
#                 Cambridge Crystallographic Data Centre
#                                CCDC 
#
#######################################################################
#
# If this CIF has been generated from an entry in the Cambridge 
# Structural Database, then it will include bibliographic, chemical, 
# crystal, experimental, refinement or atomic coordinate data resulting 
# from the CCDC's data processing and validation procedures.
#
#######################################################################

data_MARDOA
_symmetry_cell_setting           orthorhombic
_symmetry_space_group_name_H-M   'P b c a'
_symmetry_Int_Tables_number      61
_space_group_name_Hall           '-P 2ac 2ab'
loop_
_symmetry_equiv_pos_site_id
_symmetry_equiv_pos_as_xyz
1 x,y,z
2 1/2-x,-y,1/2+z
3 1/2+x,1/2-y,-z
4 -x,1/2+y,1/2-z
5 -x,-y,-z
6 1/2+x,y,1/2-z
7 1/2-x,1/2+y,z
8 x,1/2-y,1/2+z
_cell_length_a                   16.2938(4)
_cell_length_b                   19.3536(4)
_cell_length_c                   38.9277(9)
_cell_angle_alpha                90
_cell_angle_beta                 90
_cell_angle_gamma                90
_cell_volume                     12275.6
loop_
_atom_site_label
_atom_site_type_symbol
_atom_site_fract_x
_atom_site_fract_y
_atom_site_fract_z
Cd1 Cd 1.11478(4) 0.09413(4) 0.124728(18)
Cd2 Cd 1.11407(4) 0.30110(4) 0.137166(18)
C1 C 0.9425(6) 0.2445(6) 0.1721(3)
H1 H 0.9288 0.2889 0.1793
C2 C 0.9395(6) 0.1342(6) 0.1642(3)
H2 H 0.9232 0.0881 0.1645
C3 C 0.8241(6) 0.1823(5) 0.2002(3)
C4 C 0.7968(6) 0.2402(6) 0.2161(3)
H3 H 0.8238 0.2821 0.2130
C5 C 0.7272(6) 0.2364(6) 0.2374(3)
H4 H 0.7075 0.2758 0.2483
C6 C 0.6880(6) 0.1733(5) 0.2420(3)
C7 C 0.7165(6) 0.1154(6) 0.2247(3)
H5 H 0.6897 0.0732 0.2271
C8 C 0.7852(7) 0.1206(6) 0.2038(3)
H6 H 0.8047 0.0819 0.1922
C9 C 0.6133(6) 0.1676(6) 0.2654(3)
H7 H 0.6159 0.1244 0.2780
H8 H 0.6143 0.2050 0.2819
C10 C 0.5335(6) 0.1705(6) 0.2453(3)
C11 C 0.5102(7) 0.2321(6) 0.2302(3)
H9 H 0.5432 0.2709 0.2329
C12 C 0.4383(7) 0.2369(6) 0.2112(3)
H10 H 0.4236 0.2782 0.2007
C13 C 0.3891(6) 0.1788(5) 0.2082(2)
C14 C 0.4091(6) 0.1170(6) 0.2234(3)
H11 H 0.3746 0.0790 0.2215
C15 C 0.4832(6) 0.1126(5) 0.2421(3)
H12 H 0.4984 0.0710 0.2523
C16 C 0.2737(5) 0.2415(5) 0.1800(2)
H13 H 0.2900 0.2862 0.1854
C17 C 0.2692(6) 0.1295(5) 0.1765(3)
H14 H 0.2822 0.0830 0.1790
C18 C 0.9285(6) 0.0079(5) 0.0576(3)
H15 H 0.8809 0.0104 0.0445
C19 C 1.0391(6) -0.0297(5) 0.0805(3)
H16 H 1.0829 -0.0578 0.0868
C20 C 0.9762(6) -0.1113(5) 0.0399(3)
C21 C 0.9815(6) -0.1119(5) 0.0048(3)
H17 H 0.9821 -0.0707 -0.0075
C22 C 0.9861(6) -0.1760(5) -0.0125(3)
H18 H 0.9897 -0.1768 -0.0363
C23 C 0.9855(6) -0.2372(5) 0.0055(3)
C24 C 0.9772(6) -0.2363(6) 0.0407(3)
H19 H 0.9745 -0.2776 0.0528
C25 C 0.9728(6) -0.1732(5) 0.0584(3)
H20 H 0.9677 -0.1726 0.0821
C26 C 0.9964(7) -0.3043(5) -0.0141(3)
H21 H 0.9536 -0.3073 -0.0314
H22 H 1.0486 -0.3027 -0.0261
C27 C 0.9940(6) -0.3680(5) 0.0072(3)
C28 C 0.9228(7) -0.3991(6) 0.0161(3)
H23 H 0.8739 -0.3807 0.0079
C29 C 0.9193(7) -0.4568(7) 0.0367(3)
H24 H 0.8695 -0.4783 0.0414
C30 C 0.9919(6) -0.4819(5) 0.0503(2)
C31 C 1.0650(7) -0.4521(6) 0.0421(3)
H25 H 1.1138 -0.4704 0.0505
C32 C 1.0660(7) -0.3944(6) 0.0213(4)
H26 H 1.1157 -0.3727 0.0167
C33 C 1.0572(6) -0.5783(5) 0.0838(3)
H27 H 1.1114 -0.5677 0.0784
C34 C 0.9263(7) -0.5750(6) 0.0871(3)
H28 H 0.8720 -0.5614 0.0843
C35 C 1.1899(6) 0.1596(5) 0.0538(3)
H29 H 1.1963 0.1151 0.0452
C36 C 1.1937(6) 0.2700(6) 0.0590(3)
H30 H 1.2030 0.3166 0.0547
C37 C 1.2468(6) 0.2248(5) 0.0034(3)
C38 C 1.2279(6) 0.1754(5) -0.0209(3)
H31 H 1.1993 0.1358 -0.0146
C39 C 1.2517(6) 0.1853(5) -0.0546(3)
H32 H 1.2401 0.1517 -0.0710
C40 C 1.2931(6) 0.2453(5) -0.0642(3)
C41 C 1.3139(7) 0.2925(5) -0.0390(3)
H33 H 1.3430 0.3320 -0.0450
C42 C 1.2920(6) 0.2821(6) -0.0050(3)
H34 H 1.3079 0.3134 0.0119
C43 C 1.3084(7) 0.2604(6) -0.1014(3)
H35 H 1.3134 0.2175 -0.1141
H36 H 1.3592 0.2860 -0.1039
C44 C 1.2375(7) 0.3025(6) -0.1155(3)
C45 C 1.1667(7) 0.2683(7) -0.1255(3)
H37 H 1.1659 0.2203 -0.1265
C46 C 1.0959(7) 0.3065(6) -0.1344(3)
H38 H 1.0477 0.2838 -0.1404
C47 C 1.0989(7) 0.3764(6) -0.1341(3)
C48 C 1.1703(7) 0.4104(6) -0.1253(3)
H39 H 1.1724 0.4584 -0.1257
C49 C 1.2385(7) 0.3726(6) -0.1159(3)
H40 H 1.2863 0.3958 -0.1096
C50 C 0.9475(7) 0.4037(7) -0.1271(3)
H41 H 0.9339 0.3658 -0.1136
C51 C 1.0187(7) 0.4769(6) -0.1581(3)
H42 H 1.0616 0.4996 -0.1692
N1 N 1.0062(5) 0.1576(4) 0.1489(2)
N2 N 1.0074(5) 0.2280(4) 0.1538(2)
N3 N 0.8984(5) 0.1862(4) 0.1791(2)
N4 N 0.2053(5) 0.1541(4) 0.1604(2)
N5 N 0.2083(5) 0.2246(4) 0.1623(2)
N6 N 0.3134(5) 0.1834(4) 0.1890(2)
N7 N 1.0264(5) 0.0322(5) 0.0920(2)
N8 N 0.9539(5) 0.0573(4) 0.0777(2)
N9 N 0.9791(5) -0.0476(4) 0.0581(2)
N10 N 1.0360(5) -0.6287(4) 0.1036(2)
N11 N 0.9494(5) -0.6270(5) 0.1059(3)
N12 N 0.9917(5) -0.5426(4) 0.0720(2)
N13 N 1.1567(5) 0.1755(4) 0.0836(2)
N14 N 1.1592(5) 0.2456(4) 0.0872(2)
N15 N 1.2134(5) 0.2187(5) 0.0376(2)
N16 N 0.8963(5) 0.4535(4) -0.1358(2)
N17 N 0.9416(6) 0.4984(5) -0.1564(3)
N18 N 1.0241(6) 0.4158(5) -0.1409(3)
O1 O 1.0999(5) 0.0146(4) 0.1682(2)
O2 O 1.2320(4) 0.0316(4) 0.10658(19)
O3 O 1.2204(5) 0.3811(4) 0.1314(2)
H45 H 1.2657 0.3598 0.1272
H46 H 1.2099 0.4090 0.1148
O4 O 1.0903(4) 0.3689(4) 0.1836(2)
H49 H 1.0614 0.3912 0.1992
H50 H 1.1384 0.3683 0.1905
H55 H 1.1122 0.0117 0.1899
H56 H 1.0630 -0.0193 0.1657
H57 H 1.2258 0.0078 0.0883
H59 H 1.2372 0.0016 0.1237
Cd1_2 Cd 0.11478(4) 0.09413(4) 0.124728(18)
Cd2_2 Cd 0.11407(4) 0.30110(4) 0.137166(18)
Cd2_3 Cd 1.11407(4) -0.69890(4) 0.137166(18)
N4_2 N 1.2053(5) 0.1541(4) 0.1604(2)
N5_2 N 1.2083(5) 0.2246(4) 0.1623(2)
N10_2 N 1.0360(5) 0.3713(4) 0.1036(2)
N19 N 0.2487(7) 0.9382(5) 0.2169(3)
O5 O 0.2168(8) 0.8828(5) 0.2207(3)
O6 O 0.2867(8) 0.9651(6) 0.2423(3)
O7 O 0.2552(5) 0.9682(4) 0.1886(2)
N20 N 0.8200(6) 0.9390(5) 0.1365(3)
O8 O 0.8437(6) 0.9763(5) 0.1606(3)
O9 O 0.8717(5) 0.9092(5) 0.1173(3)
O10 O 0.7443(5) 0.9278(5) 0.1313(3)
N21 N 0.1290(5) 0.7783(5) 0.1038(3)
O11 O 0.0885(5) 0.7796(5) 0.1307(2)
O12 O 0.1421(5) 0.7223(5) 0.0885(3)
O13 O 0.1545(5) 0.8349(4) 0.0913(2)
N22 N 0.7812(5) 0.0324(4) 0.9779(2)
O14 O 0.7435(5) 0.0548(4) 0.9518(2)
O15 O 0.7667(5) 0.0537(5) 1.0065(2)
O16 O 0.8346(6) -0.0139(4) 0.9739(3)
O17 O 0.0119(5) 0.8987(4) 0.1571(2)
H53 H -0.0336 0.9013 0.1451
H54 H 0.0328 0.8619 0.1494
O18 O 0.9571(7) 0.3718(6) 0.2219(3)
H51 H 0.9446 0.3703 0.2442
H52 H 0.9196 0.4000 0.2140
O19 O 0.6749(7) 0.9412(7) 0.1985(3)
H47 H 0.7093 0.9548 0.2135
H48 H 0.7017 0.9276 0.1810
O20 O 0.9525(9) 0.9234(9) 0.2263(4)
H58 H 0.9556 0.9673 0.2267
H43? H 0.8456 0.4574 -0.1300
H44? H 0.9224 0.5345 -0.1665
loop_
_geom_bond_atom_site_label_1
_geom_bond_atom_site_label_2
_geom_bond_site_symmetry_1
_geom_bond_site_symmetry_2
Cd1 N1 1_555 1_555
Cd2 N2 1_555 1_555
C1 H1 1_555 1_555
C2 H2 1_555 1_555
C3 C4 1_555 1_555
C4 H3 1_555 1_555
C5 C4 1_555 1_555
H4 C5 1_555 1_555
C6 C5 1_555 1_555
C7 C6 1_555 1_555
H5 C7 1_555 1_555
C8 C3 1_555 1_555
H6 C8 1_555 1_555
C9 C6 1_555 1_555
H7 C9 1_555 1_555
H8 C9 1_555 1_555
C10 C9 1_555 1_555
C11 C10 1_555 1_555
H9 C11 1_555 1_555
C12 C11 1_555 1_555
H10 C12 1_555 1_555
C13 C12 1_555 1_555
C14 C13 1_555 1_555
H11 C14 1_555 1_555
C15 C10 1_555 1_555
H12 C15 1_555 1_555
C16 H13 1_555 1_555
C17 H14 1_555 1_555
C18 H15 1_555 1_555
C19 H16 1_555 1_555
C20 C21 1_555 1_555
C21 H17 1_555 1_555
C22 C21 1_555 1_555
H18 C22 1_555 1_555
C23 C22 1_555 1_555
C24 C23 1_555 1_555
H19 C24 1_555 1_555
C25 C20 1_555 1_555
H20 C25 1_555 1_555
C26 C23 1_555 1_555
H21 C26 1_555 1_555
H22 C26 1_555 1_555
C27 C26 1_555 1_555
C28 C27 1_555 1_555
H23 C28 1_555 1_555
C29 C28 1_555 1_555
H24 C29 1_555 1_555
C30 C29 1_555 1_555
C31 C30 1_555 1_555
H25 C31 1_555 1_555
C32 C27 1_555 1_555
H26 C32 1_555 1_555
C33 H27 1_555 1_555
C34 H28 1_555 1_555
C35 H29 1_555 1_555
C36 H30 1_555 1_555
C37 C38 1_555 1_555
C38 H31 1_555 1_555
C39 C38 1_555 1_555
H32 C39 1_555 1_555
C40 C39 1_555 1_555
C41 C40 1_555 1_555
H33 C41 1_555 1_555
C42 C37 1_555 1_555
H34 C42 1_555 1_555
C43 C40 1_555 1_555
H35 C43 1_555 1_555
H36 C43 1_555 1_555
C44 C43 1_555 1_555
C45 C44 1_555 1_555
H37 C45 1_555 1_555
C46 C45 1_555 1_555
H38 C46 1_555 1_555
C47 C46 1_555 1_555
C48 C47 1_555 1_555
H39 C48 1_555 1_555
C49 C44 1_555 1_555
H40 C49 1_555 1_555
C50 H41 1_555 1_555
C51 H42 1_555 1_555
N1 C2 1_555 1_555
N2 C1 1_555 1_555
N3 C1 1_555 1_555
N4 C17 1_555 1_555
N5 C16 1_555 1_555
N6 C13 1_555 1_555
N7 Cd1 1_555 1_555
N8 C18 1_555 1_555
N9 C18 1_555 1_555
N10 C33 1_555 1_555
N11 C34 1_555 1_555
N12 C30 1_555 1_555
N13 Cd1 1_555 1_555
N14 Cd2 1_555 1_555
N15 C35 1_555 1_555
N16 C50 1_555 1_555
N17 C51 1_555 1_555
N18 C47 1_555 1_555
N19 O5 1_555 1_555
N20 O8 1_555 1_555
N21 O11 1_555 1_555
N22 O14 1_555 1_555
O1 Cd1 1_555 1_555
O2 Cd1 1_555 1_555
O3 Cd2 1_555 1_555
H45 O3 1_555 1_555
H46 O3 1_555 1_555
O4 Cd2 1_555 1_555
O6 N19 1_555 1_555
O7 N19 1_555 1_555
O9 N20 1_555 1_555
O10 N20 1_555 1_555
O12 N21 1_555 1_555
O13 N21 1_555 1_555
O15 N22 1_555 1_555
O16 N22 1_555 1_555
O17 H53 1_555 1_555
O18 H51 1_555 1_555
O19 H47 1_555 1_555
H48 O19 1_555 1_555
O20 H58 1_555 1_555
H49 O4 1_555 1_555
H50 O4 1_555 1_555
H52 O18 1_555 1_555
H54 O17 1_555 1_555
H55 O1 1_555 1_555
H56 O1 1_555 1_555
H57 O2 1_555 1_555
H59 O2 1_555 1_555
Cd1_2 N4 1_555 1_555
Cd2_2 N5 1_555 1_555
Cd2_3 N10 1_555 1_555
N4_2 Cd1 1_555 1_555
N5_2 Cd2 1_555 1_555
N10_2 Cd2 1_555 1_555
C2 N3 1_555 1_555
C3 N3 1_555 1_555
C7 C8 1_555 1_555
C14 C15 1_555 1_555
C16 N6 1_555 1_555
C17 N6 1_555 1_555
C19 N7 1_555 1_555
C19 N9 1_555 1_555
C20 N9 1_555 1_555
C24 C25 1_555 1_555
C31 C32 1_555 1_555
C33 N12 1_555 1_555
C34 N12 1_555 1_555
C35 N13 1_555 1_555
C36 N14 1_555 1_555
C36 N15 1_555 1_555
C37 N15 1_555 1_555
C41 C42 1_555 1_555
C48 C49 1_555 1_555
C50 N18 1_555 1_555
C51 N18 1_555 1_555
N1 N2 1_555 1_555
N4 N5 1_555 1_555
N7 N8 1_555 1_555
N10 N11 1_555 1_555
N13 N14 1_555 1_555
N16 N17 1_555 1_555
N4_2 N5_2 1_555 1_555

#END
