
#######################################################################
#
#                 Cambridge Crystallographic Data Centre
#                                CCDC 
#
#######################################################################
#
# If this CIF has been generated from an entry in the Cambridge 
# Structural Database, then it will include bibliographic, chemical, 
# crystal, experimental, refinement or atomic coordinate data resulting 
# from the CCDC's data processing and validation procedures.
#
#######################################################################

data_MARDIU
_symmetry_cell_setting           orthorhombic
_symmetry_space_group_name_H-M   'I m m a'
_symmetry_Int_Tables_number      74
_space_group_name_Hall           '-I 2b 2'
loop_
_symmetry_equiv_pos_site_id
_symmetry_equiv_pos_as_xyz
1 x,y,z
2 -x,1/2-y,z
3 x,-y,-z
4 -x,1/2+y,-z
5 1/2+x,1/2+y,1/2+z
6 1/2-x,-y,1/2+z
7 1/2+x,1/2-y,1/2-z
8 1/2-x,y,1/2-z
9 -x,-y,-z
10 x,1/2+y,-z
11 -x,y,z
12 x,1/2-y,z
13 1/2-x,1/2-y,1/2-z
14 1/2+x,y,1/2-z
15 1/2-x,1/2+y,1/2+z
16 1/2+x,-y,1/2+z
_cell_length_a                   8.3699(14)
_cell_length_b                   16.482(3)
_cell_length_c                   17.686(3)
_cell_angle_alpha                90
_cell_angle_beta                 90
_cell_angle_gamma                90
_cell_volume                     2439.83
loop_
_atom_site_label
_atom_site_type_symbol
_atom_site_fract_x
_atom_site_fract_y
_atom_site_fract_z
Cd1 Cd 0.2500 0.2500 0.2500
N1 N 0.0000 0.4613(3) 0.1433(3)
C1 C 0.0000 0.7500 -0.0359(5)
H1 H 0.0937 0.7500 -0.0682
C2 C 0.0000 0.5345(4) 0.0983(4)
N2 N 0.0824(4) 0.3527(2) 0.2028(2)
C3 C 0.0000 0.6745(4) 0.0111(4)
C4 C 0.1287(6) 0.4173(3) 0.1671(3)
H2 H 0.2348 0.4317 0.1588
C5 C 0.1415(6) 0.5687(3) 0.0765(3)
H3 H 0.2378 0.5453 0.0912
C6 C 0.1411(6) 0.6379(3) 0.0329(3)
H4 H 0.2378 0.6604 0.0178
O1 O 0.1332(6) 0.2500 0.3635(3)
C7 C 0.0000 0.2500 0.3932(6)
H5 H 0.0000 0.2500 0.4458
Cd1_2 Cd 0.2500 1.2500 0.2500
Cd1A Cd -0.2500 1.2500 0.2500
Cd1A_2 Cd -0.2500 0.2500 0.2500
N1A N 0.0000 1.0387(3) 0.1433(3)
H1A H -0.0937 0.7500 -0.0682
C2A C 0.0000 0.9655(4) 0.0983(4)
N2A N -0.0824(4) 1.1473(2) 0.2028(2)
N2J N -0.0824(4) 0.3527(2) 0.2028(2)
N2K N 0.0824(4) 1.1473(2) 0.2028(2)
N2G N 0.4176(4) 0.3527(2) 0.2972(2)
N2L N 0.4176(4) 0.1473(2) 0.2972(2)
N2K_2 N 0.0824(4) 0.1473(2) 0.2028(2)
C3A C 0.0000 0.8255(4) 0.0111(4)
C4A C -0.1287(6) 1.0827(3) 0.1671(3)
C4J C -0.1287(6) 0.4173(3) 0.1671(3)
C4K C 0.1287(6) 1.0827(3) 0.1671(3)
H2A H -0.2348 1.0683 0.1588
H2J H -0.2348 0.4317 0.1588
H2K H 0.2348 1.0683 0.1588
C5A C -0.1415(6) 0.9313(3) 0.0765(3)
C5J C -0.1415(6) 0.5687(3) 0.0765(3)
C5K C 0.1415(6) 0.9313(3) 0.0765(3)
H3A H -0.2378 0.9547 0.0912
H3J H -0.2378 0.5453 0.0912
H3K H 0.2378 0.9547 0.0912
C6A C -0.1411(6) 0.8621(3) 0.0329(3)
C6J C -0.1411(6) 0.6379(3) 0.0329(3)
C6K C 0.1411(6) 0.8621(3) 0.0329(3)
H4A H -0.2378 0.8396 0.0178
H4J H -0.2378 0.6604 0.0178
H4K H 0.2378 0.8396 0.0178
O1A O -0.1332(6) 0.2500 0.3635(3)
O1G O 0.3668(6) 0.2500 0.1365(3)
loop_
_geom_bond_atom_site_label_1
_geom_bond_atom_site_label_2
_geom_bond_site_symmetry_1
_geom_bond_site_symmetry_2
Cd1 N2 1_555 1_555
N1 C2 1_555 1_555
C1 H1 1_555 1_555
C2 C5 1_555 1_555
N2 C4 1_555 1_555
C3 C1 1_555 1_555
C4 N1 1_555 1_555
H2 C4 1_555 1_555
C5 H3 1_555 1_555
C6 C3 1_555 1_555
H4 C6 1_555 1_555
O1 Cd1 1_555 1_555
C7 O1 1_555 1_555
H5 C7 1_555 1_555
Cd1_2 N2K 1_555 1_555
Cd1A N2A 1_555 1_555
Cd1A_2 N2J 1_555 1_555
N1A C2A 1_555 1_555
H1A C1 1_555 1_555
C2A C5A 1_555 1_555
N2A N2K 1_555 1_555
N2J N2 1_555 1_555
N2K C4K 1_555 1_555
N2G Cd1 1_555 1_555
N2L Cd1 1_555 1_555
N2K_2 Cd1 1_555 1_555
C3A C1 1_555 1_555
C4A N1A 1_555 1_555
C4J N1 1_555 1_555
C4K N1A 1_555 1_555
H2A C4A 1_555 1_555
H2J C4J 1_555 1_555
H2K C4K 1_555 1_555
C5A H3A 1_555 1_555
C5J C2 1_555 1_555
C5K C2A 1_555 1_555
H3J C5J 1_555 1_555
H3K C5K 1_555 1_555
C6A C3A 1_555 1_555
C6J C3 1_555 1_555
C6K C3A 1_555 1_555
H4A C6A 1_555 1_555
H4J C6J 1_555 1_555
H4K C6K 1_555 1_555
O1A C7 1_555 1_555
O1G Cd1 1_555 1_555
C5 C6 1_555 1_555
Cd1A_2 O1A 1_555 1_555
N2A C4A 1_555 1_555
N2J C4J 1_555 1_555
C5A C6A 1_555 1_555
C5J C6J 1_555 1_555
C5K C6K 1_555 1_555

#END
