
#######################################################################
#
#                 Cambridge Crystallographic Data Centre
#                                CCDC 
#
#######################################################################
#
# If this CIF has been generated from an entry in the Cambridge 
# Structural Database, then it will include bibliographic, chemical, 
# crystal, experimental, refinement or atomic coordinate data resulting 
# from the CCDC's data processing and validation procedures.
#
#######################################################################

data_MARFUH
_symmetry_cell_setting           orthorhombic
_symmetry_space_group_name_H-M   'P 21 21 21'
_symmetry_Int_Tables_number      19
_space_group_name_Hall           'P 2ac 2ab'
loop_
_symmetry_equiv_pos_site_id
_symmetry_equiv_pos_as_xyz
1 x,y,z
2 1/2+x,1/2-y,-z
3 -x,1/2+y,1/2-z
4 1/2-x,-y,1/2+z
_cell_length_a                   4.0923(6)
_cell_length_b                   9.2312(11)
_cell_length_c                   31.897(5)
_cell_angle_alpha                90
_cell_angle_beta                 90
_cell_angle_gamma                90
_cell_volume                     1204.97
loop_
_atom_site_label
_atom_site_type_symbol
_atom_site_fract_x
_atom_site_fract_y
_atom_site_fract_z
I1 I -0.07938(7) 0.77623(3) 0.440050(8)
Cu1 Cu 0.42420(16) 0.65617(5) 0.478711(17)
S1 S 0.3819(3) 0.41007(10) 0.48186(3)
S2 S 0.5425(3) 0.45128(10) 0.39199(3)
S3 S 0.4394(3) 0.15971(9) 0.42306(3)
O1 O 0.5396(11) 0.2930(4) 0.28119(10)
O2 O 0.8275(9) 0.4743(3) 0.30976(11)
O3 O 0.7864(11) 0.0321(4) 0.31709(13)
O4 O 0.4010(10) -0.0636(3) 0.35848(10)
C1 C 0.4494(11) 0.3436(4) 0.43452(12)
C2 C 0.5839(13) 0.3120(4) 0.35595(12)
C3 C 0.5408(12) 0.1760(4) 0.37066(13)
C4 C 0.6470(11) 0.3542(4) 0.31081(14)
C5 C 0.9013(17) 0.5286(5) 0.26831(14)
H1 H 1.0278 0.4560 0.2529
H2 H 1.0289 0.6181 0.2707
H3 H 0.6971 0.5486 0.2533
C6 C 0.5929(13) 0.0412(4) 0.34481(12)
C7 C 0.4284(17) -0.1998(4) 0.33591(15)
H4 H 0.3706 -0.1846 0.3064
H5 H 0.2797 -0.2711 0.3483
H6 H 0.6535 -0.2355 0.3378
I1_2 I 0.92062(7) 0.77623(3) 0.440050(8)
I1A I 0.42062(7) 0.72377(3) 0.559950(8)
Cu1_2 Cu -0.57580(16) 0.65617(5) 0.478711(17)
Cu1A Cu -0.07580(16) 0.84383(5) 0.521289(17)
loop_
_geom_bond_atom_site_label_1
_geom_bond_atom_site_label_2
_geom_bond_site_symmetry_1
_geom_bond_site_symmetry_2
I1 Cu1 1_555 1_555
Cu1 S1 1_555 1_555
S1 C1 1_555 1_555
S2 C1 1_555 1_555
S3 C1 1_555 1_555
O1 C4 1_555 1_555
O2 C4 1_555 1_555
O3 C6 1_555 1_555
O4 C6 1_555 1_555
C2 S2 1_555 1_555
C3 S3 1_555 1_555
C4 C2 1_555 1_555
C5 O2 1_555 1_555
H1 C5 1_555 1_555
H2 C5 1_555 1_555
H3 C5 1_555 1_555
C6 C3 1_555 1_555
C7 O4 1_555 1_555
H4 C7 1_555 1_555
H5 C7 1_555 1_555
H6 C7 1_555 1_555
I1_2 Cu1 1_555 1_555
I1A Cu1 1_555 1_555
Cu1_2 I1 1_555 1_555
Cu1A I1 1_555 1_555
C2 C3 1_555 1_555
I1A Cu1A 1_555 1_555

#END
