
#######################################################################
#
#                 Cambridge Crystallographic Data Centre
#                                CCDC 
#
#######################################################################
#
# If this CIF has been generated from an entry in the Cambridge 
# Structural Database, then it will include bibliographic, chemical, 
# crystal, experimental, refinement or atomic coordinate data resulting 
# from the CCDC's data processing and validation procedures.
#
#######################################################################

data_MARFOC
_symmetry_cell_setting           triclinic
_symmetry_space_group_name_H-M   'P -1'
_symmetry_Int_Tables_number      2
_space_group_name_Hall           '-P 1'
loop_
_symmetry_equiv_pos_site_id
_symmetry_equiv_pos_as_xyz
1 x,y,z
2 -x,-y,-z
_cell_length_a                   7.9461(6)
_cell_length_b                   8.2084(6)
_cell_length_c                   12.8870(10)
_cell_angle_alpha                77.665(5)
_cell_angle_beta                 74.131(4)
_cell_angle_gamma                71.317(4)
_cell_volume                     758.551
loop_
_atom_site_label
_atom_site_type_symbol
_atom_site_fract_x
_atom_site_fract_y
_atom_site_fract_z
Cu1 Cu 0.5000 0.0000 0.0000
Cu2 Cu 0.5000 -0.5000 0.5000
N1 N 0.7582(4) -0.5142(4) 0.4986(2)
N2 N 0.2350(4) 0.0473(5) 0.0071(3)
N3 N 0.3566(4) 0.0882(4) 0.2832(2)
N4 N 0.4396(4) -0.0308(4) 0.2164(2)
N5 N 0.2639(3) 0.0888(3) 0.4715(2)
N6 N 0.2557(3) -0.0077(3) 0.5618(2)
N7 N 0.4276(4) -0.1723(3) 0.3795(2)
N8 N 0.4817(4) -0.1860(4) 0.2735(2)
C1 C 0.3520(4) -0.0021(4) 0.3820(2)
N9 N -0.0348(4) 0.2611(4) 0.7507(2)
N10 N 0.0398(4) 0.2424(3) 0.6468(2)
N11 N 0.1432(5) 0.0004(4) 0.7505(2)
N12 N 0.6073(4) -0.5949(4) 0.3589(2)
C2 C 0.8809(4) -0.6222(5) 0.4160(3)
C3 C 0.7946(5) -0.5797(5) 0.3201(3)
N13 N 0.4439(5) 0.2606(5) -0.0203(3)
C4 C 0.1479(7) 0.2253(8) 0.0332(7)
C5 C 0.2575(9) 0.3379(7) -0.0229(6)
C6 C 0.1499(4) 0.0820(4) 0.6499(2)
N14 N 0.0267(5) 0.1165(4) 0.8122(2)
H1 H 0.891(4) -0.739(3) 0.451(2)
H2 H 0.774(4) -0.410(3) 0.484(3)
H3 H 0.996(3) -0.606(4) 0.399(3)
H4 H 0.187(6) -0.029(5) 0.061(3)
H5 H 0.602(5) -0.702(3) 0.365(3)
H6 H 0.546(5) -0.563(5) 0.307(2)
H7 H 0.789(5) -0.462(2) 0.286(3)
H8 H 0.784(5) -0.562(5) 0.562(2)
H9 H 0.473(5) 0.294(5) 0.032(3)
H10 H 0.490(9) 0.309(9) -0.086(3)
H13 H 0.872(5) -0.654(3) 0.269(2)
H14 H 0.219(6) 0.460(2) -0.028(4)
H15 H 0.029(4) 0.270(7) 0.022(4)
H16 H 0.212(11) 0.335(6) -0.083(5)
H17 H 0.223(8) 0.050(7) -0.061(2)
H18 H 0.128(10) 0.292(13) 0.089(8)
Cu2_2 Cu 0.5000 0.5000 -0.5000
N1A N 0.2418(4) -0.4858(4) 0.5014(2)
N2A N 0.7650(4) -0.0473(5) -0.0071(3)
N3A N 0.6434(4) -0.0882(4) -0.2832(2)
N4A N 0.5604(4) 0.0308(4) -0.2164(2)
N5A N 0.7361(3) -0.0888(3) -0.4715(2)
N6A N 0.7443(3) 0.0077(3) -0.5618(2)
N7A N 0.5724(4) 0.1723(3) -0.3795(2)
N7A_2 N 0.5724(4) -0.8277(3) 0.6205(2)
N8A N 0.5183(4) 0.1860(4) -0.2735(2)
C1A C 0.6480(4) 0.0021(4) -0.3820(2)
N9A N 1.0348(4) -0.2611(4) -0.7507(2)
N10A N 0.9602(4) -0.2424(3) -0.6468(2)
N11A N 0.8568(5) -0.0004(4) -0.7505(2)
N12A N 0.3927(4) -0.4051(4) 0.6411(2)
C2A C 0.1191(4) -0.3778(5) 0.5840(3)
C3A C 0.2054(5) -0.4203(5) 0.6799(3)
N13A N 0.5561(5) -0.2606(5) 0.0203(3)
C4A C 0.8521(7) -0.2253(8) -0.0332(7)
C5A C 0.7425(9) -0.3379(7) 0.0229(6)
C6A C 0.8501(4) -0.0820(4) -0.6499(2)
N14A N 0.9733(5) -0.1165(4) -0.8122(2)
H1A H 0.109(4) -0.261(3) 0.549(2)
H2A H 0.226(4) -0.590(3) 0.516(3)
H3A H 0.004(3) -0.394(4) 0.601(3)
H4A H 0.813(6) 0.029(5) -0.061(3)
H5A H 0.398(5) -0.298(3) 0.635(3)
H6A H 0.454(5) -0.437(5) 0.693(2)
H7A H 0.211(5) -0.538(2) 0.714(3)
H8A H 0.216(5) -0.438(5) 0.438(2)
H9A H 0.527(5) -0.294(5) -0.032(3)
H10A H 0.510(9) -0.309(9) 0.086(3)
H13A H 0.128(5) -0.346(3) 0.731(2)
H14A H 0.781(6) -0.460(2) 0.028(4)
H15A H 0.971(4) -0.270(7) -0.022(4)
H16A H 0.788(11) -0.335(6) 0.083(5)
H17A H 0.777(8) -0.050(7) 0.061(2)
H18A H 0.872(10) -0.292(13) -0.089(8)
O1 O 0.3463(4) 0.4476(4) 0.2074(3)
H11 H 0.255(4) 0.531(4) 0.209(4)
H12 H 0.315(7) 0.357(4) 0.225(6)
O2 O 0.6842(7) 0.2967(7) 0.1091(4)
loop_
_geom_bond_atom_site_label_1
_geom_bond_atom_site_label_2
_geom_bond_site_symmetry_1
_geom_bond_site_symmetry_2
Cu1 N2 1_555 1_555
Cu2 N1 1_555 1_555
N1 C2 1_555 1_555
N2 C4 1_555 1_555
N3 N4 1_555 1_555
N4 Cu1 1_555 1_555
N5 N6 1_555 1_555
N6 C6 1_555 1_555
N7 Cu2 1_555 1_555
N8 N4 1_555 1_555
C1 N3 1_555 1_555
N9 N10 1_555 1_555
N10 C6 1_555 1_555
N11 C6 1_555 1_555
N12 Cu2 1_555 1_555
C2 C3 1_555 1_555
C3 N12 1_555 1_555
N13 Cu1 1_555 1_555
C4 C5 1_555 1_555
C5 N13 1_555 1_555
N14 N9 1_555 1_555
O1 H11 1_555 1_555
H1 C2 1_555 1_555
H2 N1 1_555 1_555
H3 C2 1_555 1_555
H4 N2 1_555 1_555
H5 N12 1_555 1_555
H6 N12 1_555 1_555
H7 C3 1_555 1_555
H8 N1 1_555 1_555
H9 N13 1_555 1_555
H10 N13 1_555 1_555
H12 O1 1_555 1_555
H13 C3 1_555 1_555
H14 C5 1_555 1_555
H15 C4 1_555 1_555
H16 C5 1_555 1_555
H17 N2 1_555 1_555
H18 C4 1_555 1_555
Cu2_2 N7A 1_555 1_555
N1A Cu2 1_555 1_555
N2A Cu1 1_555 1_555
N3A N4A 1_555 1_555
N4A Cu1 1_555 1_555
N5A N6A 1_555 1_555
N6A C6A 1_555 1_555
N7A N8A 1_555 1_555
N7A_2 Cu2 1_555 1_555
N8A N4A 1_555 1_555
C1A N3A 1_555 1_555
N9A N10A 1_555 1_555
N10A C6A 1_555 1_555
N11A C6A 1_555 1_555
N12A Cu2 1_555 1_555
C2A N1A 1_555 1_555
C3A N12A 1_555 1_555
N13A Cu1 1_555 1_555
C4A N2A 1_555 1_555
C5A N13A 1_555 1_555
N14A N9A 1_555 1_555
H1A C2A 1_555 1_555
H2A N1A 1_555 1_555
H3A C2A 1_555 1_555
H4A N2A 1_555 1_555
H5A N12A 1_555 1_555
H6A N12A 1_555 1_555
H7A C3A 1_555 1_555
H8A N1A 1_555 1_555
H9A N13A 1_555 1_555
H10A N13A 1_555 1_555
H13A C3A 1_555 1_555
H14A C5A 1_555 1_555
H15A C4A 1_555 1_555
H16A C5A 1_555 1_555
H17A N2A 1_555 1_555
H18A C4A 1_555 1_555
N5 C1 1_555 1_555
N7 N8 1_555 1_555
N7 C1 1_555 1_555
N11 N14 1_555 1_555
N5A C1A 1_555 1_555
N7A C1A 1_555 1_555
N11A N14A 1_555 1_555
C2A C3A 1_555 1_555
C4A C5A 1_555 1_555

#END
