
#######################################################################
#
#                 Cambridge Crystallographic Data Centre
#                                CCDC 
#
#######################################################################
#
# If this CIF has been generated from an entry in the Cambridge 
# Structural Database, then it will include bibliographic, chemical, 
# crystal, experimental, refinement or atomic coordinate data resulting 
# from the CCDC's data processing and validation procedures.
#
#######################################################################

data_MARFIW
_symmetry_cell_setting           monoclinic
_symmetry_space_group_name_H-M   'P 2/c'
_symmetry_Int_Tables_number      13
_space_group_name_Hall           '-P 2yc'
loop_
_symmetry_equiv_pos_site_id
_symmetry_equiv_pos_as_xyz
1 x,y,z
2 -x,y,1/2-z
3 -x,-y,-z
4 x,-y,1/2+z
_cell_length_a                   11.9182(3)
_cell_length_b                   7.2555(2)
_cell_length_c                   14.5570(4)
_cell_angle_alpha                90
_cell_angle_beta                 98.464(2)
_cell_angle_gamma                90
_cell_volume                     1245.07
loop_
_atom_site_label
_atom_site_type_symbol
_atom_site_fract_x
_atom_site_fract_y
_atom_site_fract_z
Ni1 Ni 0.5000 0.71371(4) 0.7500
N1 N 0.96522(12) 0.7391(2) 0.77846(11)
N3 N 0.67465(12) 0.7180(2) 0.72504(11)
N8 N 0.54042(13) 0.9022(2) 0.85906(11)
N9 N 0.53998(12) 0.5187(2) 0.85561(11)
C2 C 0.55356(16) 0.8016(3) 0.94823(14)
C3 C 0.60430(15) 0.6121(3) 0.93658(13)
N10 N 0.70186(12) 0.6880(3) 0.64163(12)
N11 N 0.81422(12) 0.6952(2) 0.64606(12)
N12 N 0.76837(12) 0.7449(2) 0.78605(11)
C4 C 0.85161(14) 0.7301(2) 0.73513(13)
H1 H 0.6816(13) 0.622(3) 0.9251(14)
H2 H 0.6078(18) 0.542(3) 0.9924(12)
H3 H 0.4803(14) 0.788(3) 0.9664(14)
H4 H 0.6004(17) 0.873(3) 0.9956(13)
H5 H 0.4858(15) 0.988(3) 0.8558(15)
H6 H 0.6039(15) 0.959(3) 0.8541(16)
H7 H 0.5776(17) 0.426(3) 0.8366(15)
H8 H 0.4760(14) 0.474(3) 0.8674(14)
Ni1_2 Ni 1.5000 0.71371(4) 0.7500
N1A N 1.03478(12) 0.7391(2) 0.72154(11)
N3A N 1.32535(12) 0.7180(2) 0.77496(11)
N3A_2 N 0.32535(12) 0.7180(2) 0.77496(11)
N8A N 0.45958(13) 0.9022(2) 0.64094(11)
N9A N 0.46002(12) 0.5187(2) 0.64439(11)
C2A C 0.44644(16) 0.8016(3) 0.55177(14)
C3A C 0.39570(15) 0.6121(3) 0.56342(13)
N10A N 1.29814(12) 0.6880(3) 0.85837(12)
N11A N 1.18578(12) 0.6952(2) 0.85394(12)
N12A N 1.23163(12) 0.7449(2) 0.71395(11)
C4A C 1.14839(14) 0.7301(2) 0.76487(13)
H1A H 0.3184(13) 0.622(3) 0.5749(14)
H2A H 0.3922(18) 0.542(3) 0.5076(12)
H3A H 0.5197(14) 0.788(3) 0.5336(14)
H4A H 0.3996(17) 0.873(3) 0.5044(13)
H5A H 0.5142(15) 0.988(3) 0.6442(15)
H6A H 0.3961(15) 0.959(3) 0.6459(16)
H7A H 0.4224(17) 0.426(3) 0.6634(15)
H8A H 0.5240(14) 0.474(3) 0.6326(14)
N2 N 0.80590(13) 0.2238(2) 0.79922(12)
C1 C 0.85176(15) 0.2040(2) 0.72193(13)
N4 N 0.96727(13) 0.2016(2) 0.71202(11)
N5 N 0.67456(14) 0.1960(3) 0.67953(13)
N6 N 0.77351(14) 0.1869(3) 0.64694(12)
N7 N 0.69409(14) 0.2193(2) 0.77095(13)
N2A N 1.19410(13) 0.2238(2) 0.70078(12)
C1A C 1.14824(15) 0.2040(2) 0.77807(13)
N4A N 1.03273(13) 0.2016(2) 0.78798(11)
N5A N 1.32544(14) 0.1960(3) 0.82047(13)
N6A N 1.22649(14) 0.1869(3) 0.85306(12)
N7A N 1.30591(14) 0.2193(2) 0.72905(13)
O1 O 0.85247(12) 0.9015(2) 0.97571(12)
H9 H 0.820(2) 0.875(4) 1.0182(12)
H14 H 0.818(2) 0.870(4) 0.9260(11)
N13 N 0.93036(14) 0.2686(2) 0.98473(12)
C5 C 0.95984(17) 0.4587(3) 0.96158(15)
H10 H 0.9933(19) 0.451(3) 0.9062(13)
H11 H 0.8951(16) 0.532(3) 0.9504(17)
H12 H 0.890(2) 0.221(3) 0.9384(15)
H13 H 0.9906(18) 0.199(3) 0.9996(19)
N13B N 1.06964(14) 0.7314(2) 1.01527(12)
C5B C 1.04016(17) 0.5413(3) 1.03842(15)
H10B H 1.0067(19) 0.549(3) 1.0938(13)
H11B H 1.1049(16) 0.468(3) 1.0496(17)
H12B H 1.110(2) 0.779(3) 1.0616(15)
H13B H 1.0094(18) 0.801(3) 1.0004(19)
loop_
_geom_bond_atom_site_label_1
_geom_bond_atom_site_label_2
_geom_bond_site_symmetry_1
_geom_bond_site_symmetry_2
Ni1 N3 1_555 1_555
N1 C4 1_555 1_555
N2 C1 1_555 1_555
N3 N10 1_555 1_555
O1 H9 1_555 1_555
C1 N4 1_555 1_555
N4 N4A 1_555 1_555
N5 N6 1_555 1_555
N6 C1 1_555 1_555
N7 N2 1_555 1_555
N8 Ni1 1_555 1_555
N9 Ni1 1_555 1_555
C2 N8 1_555 1_555
C3 N9 1_555 1_555
N10 N11 1_555 1_555
N11 C4 1_555 1_555
N12 N3 1_555 1_555
C4 N12 1_555 1_555
N13 C5 1_555 1_555
H1 C3 1_555 1_555
H2 C3 1_555 1_555
H3 C2 1_555 1_555
H4 C2 1_555 1_555
H5 N8 1_555 1_555
H6 N8 1_555 1_555
C5 H10 1_555 1_555
H7 N9 1_555 1_555
H8 N9 1_555 1_555
H11 C5 1_555 1_555
H12 N13 1_555 1_555
H13 N13 1_555 1_555
H14 O1 1_555 1_555
Ni1_2 N3A 1_555 1_555
N1A N1 1_555 1_555
N2A C1A 1_555 1_555
N3A N10A 1_555 1_555
N3A_2 Ni1 1_555 1_555
C1A N4A 1_555 1_555
N5A N6A 1_555 1_555
N6A C1A 1_555 1_555
N7A N2A 1_555 1_555
N8A Ni1 1_555 1_555
N9A Ni1 1_555 1_555
C2A N8A 1_555 1_555
C3A N9A 1_555 1_555
N10A N11A 1_555 1_555
N11A C4A 1_555 1_555
N12A N3A 1_555 1_555
C4A N1A 1_555 1_555
N13B C5B 1_555 1_555
H1A C3A 1_555 1_555
H2A C3A 1_555 1_555
H3A C2A 1_555 1_555
H4A C2A 1_555 1_555
H5A N8A 1_555 1_555
H6A N8A 1_555 1_555
C5B C5 1_555 1_555
H7A N9A 1_555 1_555
H8A N9A 1_555 1_555
H10B C5B 1_555 1_555
H11B C5B 1_555 1_555
H12B N13B 1_555 1_555
H13B N13B 1_555 1_555
N5 N7 1_555 1_555
C2 C3 1_555 1_555
N5A N7A 1_555 1_555
C2A C3A 1_555 1_555
N12A C4A 1_555 1_555

#END
