
#######################################################################
#
#                 Cambridge Crystallographic Data Centre
#                                CCDC 
#
#######################################################################
#
# If this CIF has been generated from an entry in the Cambridge 
# Structural Database, then it will include bibliographic, chemical, 
# crystal, experimental, refinement or atomic coordinate data resulting 
# from the CCDC's data processing and validation procedures.
#
#######################################################################

data_MARHEU
_symmetry_cell_setting           triclinic
_symmetry_space_group_name_H-M   'P -1'
_symmetry_Int_Tables_number      2
_space_group_name_Hall           '-P 1'
loop_
_symmetry_equiv_pos_site_id
_symmetry_equiv_pos_as_xyz
1 x,y,z
2 -x,-y,-z
_cell_length_a                   8.0419(3)
_cell_length_b                   8.3021(4)
_cell_length_c                   14.7143(7)
_cell_angle_alpha                92.045(4)
_cell_angle_beta                 97.070(3)
_cell_angle_gamma                95.305(3)
_cell_volume                     969.648
loop_
_atom_site_label
_atom_site_type_symbol
_atom_site_fract_x
_atom_site_fract_y
_atom_site_fract_z
Ag1 Ag 0.79252(3) 0.68926(3) 0.600534(19)
Ag2 Ag 0.82787(3) 0.19060(3) 0.373107(17)
Ag3 Ag 0.26148(3) 0.68368(3) 0.111775(19)
Ag4 Ag 1.33470(3) 0.18649(3) 0.876130(18)
O1 O 0.7984(3) 0.4290(3) 0.52116(18)
O2 O 0.9581(3) 0.2224(3) 0.52449(17)
O3 O 1.0051(3) 0.0090(3) 0.68290(17)
O4 O 1.2614(3) 0.1160(3) 0.65970(17)
O5 O 0.2421(3) 0.3806(3) 0.03443(18)
O6 O 0.4849(3) 0.2783(3) 0.01483(17)
O7 O 0.4882(3) 0.0197(3) 0.16099(18)
O8 O 0.7547(3) 0.1201(3) 0.15669(17)
O9 O 0.2855(3) 0.8738(3) 0.2752(2)
H1 H 0.197(4) 0.916(6) 0.284(3)
H2 H 0.342(5) 0.928(5) 0.240(3)
N1 N 0.9351(4) 0.5310(4) 0.6944(2)
N2 N 1.1386(4) 0.3352(4) 0.7994(2)
N3 N 0.4188(4) 0.5303(4) 0.1975(2)
N4 N 0.6294(4) 0.3335(4) 0.2971(2)
N5 N 0.6976(4) 0.8962(4) 0.5353(2)
H3 H 0.761(4) 0.977(3) 0.565(2)
H4 H 0.732(5) 0.893(5) 0.4810(13)
N6 N 0.0989(4) 0.8016(4) 0.0128(2)
H5 H 0.148(5) 0.818(5) -0.0369(17)
H6 H 0.004(3) 0.739(4) -0.001(3)
C1 C 0.9032(4) 0.3443(4) 0.5598(2)
C2 C 0.9730(4) 0.3890(4) 0.6591(2)
C3 C 0.9963(4) 0.5732(4) 0.7822(2)
H7 H 0.9693 0.6717 0.8090
C4 C 1.0981(4) 0.4755(4) 0.8344(2)
H8 H 1.1399 0.5088 0.8961
C5 C 1.0740(4) 0.2895(4) 0.7126(2)
C6 C 1.1165(4) 0.1252(4) 0.6804(2)
C7 C 0.3886(4) 0.3472(4) 0.0606(2)
C8 C 0.4592(4) 0.3917(4) 0.1598(2)
C9 C 0.4812(4) 0.5694(4) 0.2854(2)
H9 H 0.4534 0.6659 0.3141
C10 C 0.5861(5) 0.4702(4) 0.3349(2)
H10 H 0.6280 0.5003 0.3969
C11 C 0.5639(4) 0.2919(4) 0.2096(2)
C12 C 0.6066(4) 0.1319(4) 0.1711(2)
C13 C 0.5183(4) 0.9248(4) 0.5268(2)
H11 H 0.4843 0.9382 0.5888
H12 H 0.4500 0.8290 0.4954
C14 C 0.0583(5) 0.9659(4) 0.0376(2)
H13 H 0.1639 1.0388 0.0502
H14 H 0.0041 0.9627 0.0945
Ag1A Ag 0.20748(3) 1.31074(3) 0.399466(19)
Ag1A_2 Ag 1.20748(3) 0.31074(3) 0.399466(19)
Ag1_2 Ag 0.79252(3) -0.31074(3) 0.600534(19)
Ag1A_3 Ag 1.20748(3) -0.68926(3) 0.399466(19)
Ag2A Ag 1.17213(3) -0.19060(3) 0.626893(17)
Ag2A_2 Ag 1.17213(3) 0.80940(3) 0.626893(17)
Ag2_2 Ag -0.17213(3) 1.19060(3) 0.373107(17)
Ag2_3 Ag 1.82787(3) 0.19060(3) 1.373107(17)
Ag3_2 Ag 1.26148(3) 0.68368(3) 1.111775(19)
Ag3A Ag 1.73852(3) 0.31632(3) 0.888225(19)
Ag3A_2 Ag -0.26148(3) 1.31632(3) -0.111775(19)
Ag3A_3 Ag 0.73852(3) 0.31632(3) -0.111775(19)
Ag4_2 Ag 0.33470(3) 0.18649(3) -0.123870(18)
Ag4A Ag 0.66530(3) 0.81351(3) 0.123870(18)
Ag4A_2 Ag 0.66530(3) -0.18649(3) 0.123870(18)
Ag4A_3 Ag 1.66530(3) -0.18649(3) 1.123870(18)
Ag4A_4 Ag 1.66530(3) 0.81351(3) 1.123870(18)
O1A O 1.2016(3) -0.4290(3) 0.47884(18)
O1A_2 O 0.2016(3) 1.5710(3) 0.47884(18)
O2A O 1.0419(3) -0.2224(3) 0.47551(17)
O3A O 0.9949(3) -0.0090(3) 0.31710(17)
O4A O 0.7386(3) -0.1160(3) 0.34030(17)
O5_2 O 1.2421(3) 0.3806(3) 1.03443(18)
O6_2 O 1.4849(3) 0.2783(3) 1.01483(17)
O7_2 O 1.4882(3) 0.0197(3) 1.16099(18)
O7A O 1.5118(3) -0.0197(3) 0.83901(18)
O7A_2 O 0.5118(3) -0.0197(3) -0.16099(18)
O8_2 O 1.7547(3) 0.1201(3) 1.15669(17)
O8A O 1.2453(3) -0.1201(3) 0.84331(17)
O8A_2 O 0.2453(3) -0.1201(3) -0.15669(17)
O9_2 O 1.2855(3) 0.8738(3) 1.2752(2)
H1_2 H 1.197(4) 0.916(6) 1.284(3)
H2_2 H 1.342(5) 0.928(5) 1.240(3)
N1A N 1.0649(4) -0.5310(4) 0.3056(2)
N1A_2 N 0.0649(4) 1.4690(4) 0.3056(2)
N2A N 0.8614(4) -0.3352(4) 0.2006(2)
N2_2 N 0.1386(4) 0.3352(4) -0.2006(2)
N3_2 N 1.4188(4) 0.5303(4) 1.1975(2)
N4_2 N 1.6294(4) 0.3335(4) 1.2971(2)
N4A N 1.3706(4) -0.3335(4) 0.7029(2)
N5A N 0.3024(4) 1.1038(4) 0.4647(2)
H3A H 0.239(4) 1.023(3) 0.435(2)
H4A H 0.268(5) 1.107(5) 0.5190(13)
N6A N -0.0989(4) 1.1984(4) -0.0128(2)
N6_2 N 1.0989(4) 0.8016(4) 1.0128(2)
H5A H -0.148(5) 1.182(5) 0.0369(17)
H5_2 H 1.148(5) 0.818(5) 0.9631(17)
H6A H -0.004(3) 1.261(4) 0.001(3)
H6_2 H 1.004(3) 0.739(4) 0.999(3)
C1A C 1.0968(4) -0.3443(4) 0.4402(2)
C2A C 1.0270(4) -0.3890(4) 0.3409(2)
C3A C 1.0037(4) -0.5732(4) 0.2178(2)
H7A H 1.0307 -0.6717 0.1910
C4A C 0.9019(4) -0.4755(4) 0.1656(2)
H8A H 0.8601 -0.5088 0.1039
C5A C 0.9260(4) -0.2895(4) 0.2874(2)
C6A C 0.8835(4) -0.1252(4) 0.3196(2)
C7_2 C 1.3886(4) 0.3472(4) 1.0606(2)
C8_2 C 1.4592(4) 0.3917(4) 1.1598(2)
C9_2 C 1.4812(4) 0.5694(4) 1.2854(2)
H9_2 H 1.4534 0.6659 1.3141
C10_2 C 1.5861(5) 0.4702(4) 1.3349(2)
H10_2 H 1.6280 0.5003 1.3969
C11_2 C 1.5639(4) 0.2919(4) 1.2096(2)
C12_2 C 1.6066(4) 0.1319(4) 1.1711(2)
C13A C 0.4817(4) 1.0752(4) 0.4732(2)
H11A H 0.5157 1.0618 0.4112
H12A H 0.5500 1.1710 0.5046
C14A C -0.0583(5) 1.0341(4) -0.0376(2)
H13A H -0.1639 0.9612 -0.0502
H14A H -0.0041 1.0373 -0.0945
loop_
_geom_bond_atom_site_label_1
_geom_bond_atom_site_label_2
_geom_bond_site_symmetry_1
_geom_bond_site_symmetry_2
Ag1 O1 1_555 1_555
Ag2 O2 1_555 1_555
Ag3 O5 1_555 1_555
Ag4 N2 1_555 1_555
O1 C1 1_555 1_555
O2 C1 1_555 1_555
O3 C6 1_555 1_555
O4 C6 1_555 1_555
O5 C7 1_555 1_555
O6 C7 1_555 1_555
O7 C12 1_555 1_555
O8 C12 1_555 1_555
O9 Ag3 1_555 1_555
H1 O9 1_555 1_555
H2 O9 1_555 1_555
N1 Ag1 1_555 1_555
N2 C4 1_555 1_555
N3 Ag3 1_555 1_555
N4 Ag2 1_555 1_555
N5 Ag1 1_555 1_555
H3 N5 1_555 1_555
H4 N5 1_555 1_555
N6 Ag3 1_555 1_555
H5 N6 1_555 1_555
H6 N6 1_555 1_555
C1 C2 1_555 1_555
C2 N1 1_555 1_555
C3 N1 1_555 1_555
H7 C3 1_555 1_555
C4 C3 1_555 1_555
H8 C4 1_555 1_555
C5 N2 1_555 1_555
C6 C5 1_555 1_555
C7 C8 1_555 1_555
C8 N3 1_555 1_555
C9 N3 1_555 1_555
H9 C9 1_555 1_555
C10 N4 1_555 1_555
H10 C10 1_555 1_555
C11 N4 1_555 1_555
C12 C11 1_555 1_555
C13 N5 1_555 1_555
H11 C13 1_555 1_555
H12 C13 1_555 1_555
C14 N6 1_555 1_555
H13 C14 1_555 1_555
H14 C14 1_555 1_555
Ag1A Ag2_2 1_555 1_555
Ag1A_2 Ag2 1_555 1_555
Ag1_2 Ag2A 1_555 1_555
Ag1A_3 O1A 1_555 1_555
Ag2A O3 1_555 1_555
Ag2A_2 Ag1 1_555 1_555
Ag2_3 N4_2 1_555 1_555
Ag3_2 Ag4A_4 1_555 1_555
Ag3A Ag4 1_555 1_555
Ag3A_2 N6A 1_555 1_555
Ag3A_3 Ag4_2 1_555 1_555
Ag4_2 O6 1_555 1_555
Ag4A Ag3 1_555 1_555
Ag4A_2 O7 1_555 1_555
Ag4A_3 O7_2 1_555 1_555
O1A C1A 1_555 1_555
O1A_2 Ag1A 1_555 1_555
O2A Ag2A 1_555 1_555
O3A Ag2 1_555 1_555
O4A Ag2 1_555 1_555
O5_2 Ag3_2 1_555 1_555
O6_2 Ag4 1_555 1_555
O7_2 C12_2 1_555 1_555
O7A Ag4 1_555 1_555
O7A_2 Ag4_2 1_555 1_555
O8_2 Ag4A_3 1_555 1_555
O8A Ag4 1_555 1_555
O8A_2 Ag4_2 1_555 1_555
O9_2 Ag3_2 1_555 1_555
H1_2 O9_2 1_555 1_555
H2_2 O9_2 1_555 1_555
N1A Ag1A_3 1_555 1_555
N1A_2 Ag1A 1_555 1_555
N2A Ag4A_2 1_555 1_555
N2_2 Ag4_2 1_555 1_555
N3_2 Ag3_2 1_555 1_555
N4_2 C10_2 1_555 1_555
N4A Ag2A 1_555 1_555
N5A Ag1A 1_555 1_555
H3A N5A 1_555 1_555
H4A N5A 1_555 1_555
N6A H5A 1_555 1_555
N6_2 Ag3_2 1_555 1_555
H5_2 N6_2 1_555 1_555
H6A N6A 1_555 1_555
H6_2 N6_2 1_555 1_555
C1A O2A 1_555 1_555
C2A N1A 1_555 1_555
C3A N1A 1_555 1_555
H7A C3A 1_555 1_555
C4A N2A 1_555 1_555
H8A C4A 1_555 1_555
C5A N2A 1_555 1_555
C6A O3A 1_555 1_555
C7_2 O5_2 1_555 1_555
C8_2 N3_2 1_555 1_555
C9_2 N3_2 1_555 1_555
H9_2 C9_2 1_555 1_555
C10_2 C9_2 1_555 1_555
H10_2 C10_2 1_555 1_555
C11_2 N4_2 1_555 1_555
C12_2 O8_2 1_555 1_555
C13A C13 1_555 1_555
H11A C13A 1_555 1_555
H12A C13A 1_555 1_555
C14A C14 1_555 1_555
H13A C14A 1_555 1_555
H14A C14A 1_555 1_555
O4 Ag2A 1_555 1_555
O8 Ag4A_2 1_555 1_555
C2 C5 1_555 1_555
C8 C11 1_555 1_555
C9 C10 1_555 1_555
O4A C6A 1_555 1_555
O6_2 C7_2 1_555 1_555
N5A C13A 1_555 1_555
N6A C14A 1_555 1_555
C1A C2A 1_555 1_555
C2A C5A 1_555 1_555
C3A C4A 1_555 1_555
C5A C6A 1_555 1_555
C7_2 C8_2 1_555 1_555
C8_2 C11_2 1_555 1_555
C11_2 C12_2 1_555 1_555

#END
