
#######################################################################
#
#                 Cambridge Crystallographic Data Centre
#                                CCDC 
#
#######################################################################
#
# If this CIF has been generated from an entry in the Cambridge 
# Structural Database, then it will include bibliographic, chemical, 
# crystal, experimental, refinement or atomic coordinate data resulting 
# from the CCDC's data processing and validation procedures.
#
#######################################################################

data_MARHUI
_symmetry_cell_setting           monoclinic
_symmetry_space_group_name_H-M   'P 21/c'
_symmetry_Int_Tables_number      14
_space_group_name_Hall           '-P 2ybc'
loop_
_symmetry_equiv_pos_site_id
_symmetry_equiv_pos_as_xyz
1 x,y,z
2 x,1/2-y,1/2+z
3 -x,-y,-z
4 -x,1/2+y,1/2-z
_cell_length_a                   13.495(3)
_cell_length_b                   4.1059(9)
_cell_length_c                   16.727(4)
_cell_angle_alpha                90
_cell_angle_beta                 109.626(4)
_cell_angle_gamma                90
_cell_volume                     872.984
loop_
_atom_site_label
_atom_site_type_symbol
_atom_site_fract_x
_atom_site_fract_y
_atom_site_fract_z
I1 I 0.61534(4) 0.42444(10) 0.86028(3)
Cu1 Cu 0.42396(8) 0.4395(2) 0.74643(6)
N1 N 0.3183(5) 0.3719(13) 0.8079(4)
C1 C 0.3483(6) 0.2145(18) 0.8826(4)
H1 H 0.4186 0.1557 0.9069
C2 C 0.2793(7) 0.1354(19) 0.9252(5)
H2 H 0.3033 0.0264 0.9769
C3 C 0.1746(6) 0.2208(17) 0.8898(4)
C4 C 0.1423(6) 0.3837(17) 0.8124(5)
H3 H 0.0723 0.4432 0.7867
C5 C 0.2164(6) 0.4560(17) 0.7743(5)
H4 H 0.1945 0.5680 0.7229
C6 C 0.0952(6) 0.1311(19) 0.9321(5)
N2 N 0.1307(7) 0.138(3) 1.0169(5)
H5 H 0.0999 0.0680 1.0614
H6 H 0.1944 0.3015 1.0483
O1 O 0.0055(5) 0.067(2) 0.8912(4)
I1C I 0.38466(4) 0.92444(10) 0.63972(3)
Cu1C Cu 0.57604(8) 0.9395(2) 0.75357(6)
I1C_2 I 0.38466(4) -0.07556(10) 0.63972(3)
Cu1C_2 Cu 0.57604(8) -0.0605(2) 0.75357(6)
loop_
_geom_bond_atom_site_label_1
_geom_bond_atom_site_label_2
_geom_bond_site_symmetry_1
_geom_bond_site_symmetry_2
I1 Cu1 1_555 1_555
Cu1 N1 1_555 1_555
N1 C1 1_555 1_555
C1 H1 1_555 1_555
C2 C1 1_555 1_555
H2 C2 1_555 1_555
C3 C2 1_555 1_555
C4 C3 1_555 1_555
H3 C4 1_555 1_555
C5 N1 1_555 1_555
H4 C5 1_555 1_555
C6 C3 1_555 1_555
N2 C6 1_555 1_555
H5 N2 1_555 1_555
H6 N2 1_555 1_555
O1 C6 1_555 1_555
I1C Cu1 1_555 1_555
Cu1C I1 1_555 1_555
I1C_2 Cu1 1_555 1_555
Cu1C_2 I1 1_555 1_555
C4 C5 1_555 1_555
I1C Cu1C 1_555 1_555
I1C_2 Cu1C_2 1_555 1_555

#END
