
#######################################################################
#
#                 Cambridge Crystallographic Data Centre
#                                CCDC 
#
#######################################################################
#
# If this CIF has been generated from an entry in the Cambridge 
# Structural Database, then it will include bibliographic, chemical, 
# crystal, experimental, refinement or atomic coordinate data resulting 
# from the CCDC's data processing and validation procedures.
#
#######################################################################

data_MARJEW
_symmetry_cell_setting           triclinic
_symmetry_space_group_name_H-M   'P -1'
_symmetry_Int_Tables_number      2
_space_group_name_Hall           '-P 1'
loop_
_symmetry_equiv_pos_site_id
_symmetry_equiv_pos_as_xyz
1 x,y,z
2 -x,-y,-z
_cell_length_a                   6.3038(3)
_cell_length_b                   12.8616(7)
_cell_length_c                   13.8616(8)
_cell_angle_alpha                77.467(2)
_cell_angle_beta                 86.230(2)
_cell_angle_gamma                84.291(2)
_cell_volume                     1090.51
loop_
_atom_site_label
_atom_site_type_symbol
_atom_site_fract_x
_atom_site_fract_y
_atom_site_fract_z
Ba1 Ba -0.25703(2) -0.520301(12) -0.367613(10)
S1 S 0.58197(12) -0.67529(6) 0.18813(5)
C1 C 0.7652(6) -0.8785(3) 0.2317(3)
H1 H 0.8798 -0.8523 0.1911
C2 C 0.7756(7) -0.9838(3) 0.2806(3)
H2 H 0.8981 -1.0287 0.2736
C3 C 0.6035(6) -1.0235(3) 0.3407(3)
C4 C 0.4215(6) -0.9563(3) 0.3500(4)
H3 H 0.3046 -0.9828 0.3886
C5 C 0.4124(6) -0.8500(3) 0.3026(3)
H4 H 0.2915 -0.8045 0.3106
C6 C 0.5846(5) -0.8119(3) 0.2429(2)
C7 C 0.4771(5) -0.6580(3) 0.0707(2)
C8 C 0.2650(5) -0.6196(3) 0.0578(3)
H5 H 0.1775 -0.6055 0.1110
C9 C 0.1859(5) -0.6027(3) -0.0356(3)
H6 H 0.0432 -0.5787 -0.0451
C10 C 0.3187(5) -0.6214(3) -0.1156(2)
C11 C 0.5289(5) -0.6620(3) -0.1006(2)
H7 H 0.6162 -0.6767 -0.1537
C12 C 0.6102(5) -0.6808(3) -0.0070(3)
H8 H 0.7510 -0.7082 0.0033
C13 C 0.6194(6) -1.1377(3) 0.3975(3)
C14 C 0.2303(5) -0.5943(3) -0.2178(2)
O1 O -0.1972(5) -0.7460(2) -0.3076(2)
H12 H -0.287(5) -0.779(3) -0.329(4)
H13 H -0.075(3) -0.772(4) -0.323(4)
O2 O 0.4525(4) -1.1777(2) 0.4334(2)
O3 O 0.1405(3) -0.59716(18) -0.44697(16)
H14 H 0.145(6) -0.6622(11) -0.448(3)
H15 H 0.174(7) -0.591(3) -0.3912(15)
O4 O 0.8047(4) -1.1855(2) 0.4060(2)
O5 O 0.0344(4) -0.5757(2) -0.22340(19)
O6 O 0.0188(4) -0.3570(2) -0.3607(2)
H16 H 0.037(8) -0.2931(16) -0.387(3)
H17 H 0.077(7) -0.372(3) -0.3054(18)
O7 O 0.3639(4) -0.5911(2) -0.28911(17)
O8 O -0.3976(4) -0.61105(18) -0.52411(18)
H18 H -0.290(4) -0.612(3) -0.564(2)
H19 H -0.424(6) -0.6736(13) -0.498(3)
O10 O 0.4343(4) -0.61837(19) 0.24666(18)
O11 O 0.8014(4) -0.6489(2) 0.1744(2)
Ba1A Ba 0.25703(2) -0.479699(12) -0.632387(10)
Ba1_2 Ba 0.74297(2) -0.520301(12) -0.367613(10)
Ba1A_2 Ba -0.74297(2) -0.479699(12) -0.632387(10)
Ba1A_3 Ba 0.25703(2) -0.479699(12) 0.367613(10)
O3A O -0.1405(3) -0.40284(18) -0.55303(16)
H14A H -0.145(6) -0.3378(11) -0.552(3)
H15A H -0.174(7) -0.409(3) -0.6088(15)
O7_2 O -0.6361(4) -0.5911(2) -0.28911(17)
O8A O -0.6024(4) -0.38895(18) -0.47589(18)
H18A H -0.710(4) -0.388(3) -0.436(2)
H19A H -0.576(6) -0.3264(13) -0.502(3)
O10A O -0.4343(4) -0.38163(19) -0.24666(18)
C15 C -0.999(2) 0.0945(9) -0.0620(8)
H9 H -0.9958 0.1612 -0.1043
C16 C -1.159(2) 0.0389(11) -0.0685(10)
H10 H -1.2649 0.0638 -0.1138
C17 C -0.839(2) 0.0631(12) 0.0009(11)
H11 H -0.7301 0.1068 0.0005
C15A C -1.001(2) -0.0945(9) 0.0620(8)
H9A H -1.0042 -0.1612 0.1043
C16A C -0.841(2) -0.0389(11) 0.0685(10)
H10A H -0.7351 -0.0638 0.1138
C17A C -1.161(2) -0.0631(12) -0.0009(11)
H11A H -1.2699 -0.1068 -0.0005
O9 O 0.0595(6) -0.1477(3) -0.4518(3)
H20 H -0.007(7) -0.168(5) -0.494(3)
H21 H 0.190(3) -0.150(5) -0.470(4)
loop_
_geom_bond_atom_site_label_1
_geom_bond_atom_site_label_2
_geom_bond_site_symmetry_1
_geom_bond_site_symmetry_2
Ba1 O1 1_555 1_555
S1 C6 1_555 1_555
C1 H1 1_555 1_555
C2 C1 1_555 1_555
H2 C2 1_555 1_555
C3 C2 1_555 1_555
C4 C3 1_555 1_555
H3 C4 1_555 1_555
C5 C4 1_555 1_555
H4 C5 1_555 1_555
C6 C1 1_555 1_555
C7 S1 1_555 1_555
C8 C7 1_555 1_555
H5 C8 1_555 1_555
C9 C8 1_555 1_555
H6 C9 1_555 1_555
C10 C9 1_555 1_555
C11 C10 1_555 1_555
H7 C11 1_555 1_555
C12 C7 1_555 1_555
H8 C12 1_555 1_555
C13 C3 1_555 1_555
C14 C10 1_555 1_555
C15 H9 1_555 1_555
C16 C15 1_555 1_555
H10 C16 1_555 1_555
C17 C15 1_555 1_555
H11 C17 1_555 1_555
O1 H12 1_555 1_555
H13 O1 1_555 1_555
O2 C13 1_555 1_555
O3 Ba1 1_555 1_555
H14 O3 1_555 1_555
H15 O3 1_555 1_555
O4 C13 1_555 1_555
O5 Ba1 1_555 1_555
O6 Ba1 1_555 1_555
H16 O6 1_555 1_555
H17 O6 1_555 1_555
O7 C14 1_555 1_555
O8 Ba1 1_555 1_555
H18 O8 1_555 1_555
H19 O8 1_555 1_555
O9 H20 1_555 1_555
H21 O9 1_555 1_555
O10 S1 1_555 1_555
O11 S1 1_555 1_555
Ba1A O3 1_555 1_555
Ba1_2 O7 1_555 1_555
Ba1A_2 O8 1_555 1_555
Ba1A_3 O10 1_555 1_555
C15A H9A 1_555 1_555
C16A C17 1_555 1_555
H10A C16A 1_555 1_555
C17A C16 1_555 1_555
H11A C17A 1_555 1_555
O3A Ba1 1_555 1_555
H14A O3A 1_555 1_555
H15A O3A 1_555 1_555
O7_2 Ba1 1_555 1_555
O8A Ba1 1_555 1_555
H18A O8A 1_555 1_555
H19A O8A 1_555 1_555
O10A Ba1 1_555 1_555
C5 C6 1_555 1_555
C11 C12 1_555 1_555
C14 O5 1_555 1_555
Ba1A O3A 1_555 1_555
Ba1A_2 O8A 1_555 1_555
C15A C16A 1_555 1_555
C15A C17A 1_555 1_555

#END
