
#######################################################################
#
#                 Cambridge Crystallographic Data Centre
#                                CCDC 
#
#######################################################################
#
# If this CIF has been generated from an entry in the Cambridge 
# Structural Database, then it will include bibliographic, chemical, 
# crystal, experimental, refinement or atomic coordinate data resulting 
# from the CCDC's data processing and validation procedures.
#
#######################################################################

data_MARJOG
_symmetry_cell_setting           triclinic
_symmetry_space_group_name_H-M   'P -1'
_symmetry_Int_Tables_number      2
_space_group_name_Hall           '-P 1'
loop_
_symmetry_equiv_pos_site_id
_symmetry_equiv_pos_as_xyz
1 x,y,z
2 -x,-y,-z
_cell_length_a                   6.3012(5)
_cell_length_b                   14.0909(10)
_cell_length_c                   14.1544(10)
_cell_angle_alpha                113.0430(10)
_cell_angle_beta                 91.6300(10)
_cell_angle_gamma                93.0800(10)
_cell_volume                     1153.14
loop_
_atom_site_label
_atom_site_type_symbol
_atom_site_fract_x
_atom_site_fract_y
_atom_site_fract_z
Ba1 Ba -0.268378(19) -0.520426(10) -1.133267(9)
S1 S -0.48356(10) -0.66896(5) -1.72163(5)
C1 C -0.7362(5) -0.8408(2) -1.8380(3)
H1 H -0.8402 -0.7959 -1.8364
C2 C -0.7767(5) -0.9460(2) -1.8881(3)
H2 H -0.9095 -0.9723 -1.9212
C3 C -0.6234(5) -1.0136(2) -1.8901(2)
C4 C -0.4270(5) -0.9741(2) -1.8421(3)
H3 H -0.3233 -1.0191 -1.8433
C5 C -0.3808(5) -0.8684(2) -1.7917(3)
H4 H -0.2472 -0.8420 -1.7597
C6 C -0.5371(4) -0.80347(19) -1.7901(2)
C7 C -0.5773(4) -0.64572(18) -1.59899(18)
C8 C -0.4471(4) -0.6620(2) -1.5270(2)
H5 H -0.3119 -0.6848 -1.5433
C9 C -0.5210(4) -0.6436(2) -1.4302(2)
H6 H -0.4346 -0.6541 -1.3813
C10 C -0.7217(4) -0.60998(19) -1.40634(18)
C11 C -0.8516(4) -0.5960(2) -1.4801(2)
H7 H -0.9886 -0.5755 -1.4647
C12 C -0.7792(4) -0.6122(2) -1.5765(2)
H8 H -0.8649 -0.6008 -1.6251
C13 C -0.6719(5) -1.1294(2) -1.9457(3)
C14 C -0.8035(4) -0.58603(18) -1.30012(18)
O1 O -0.5859(3) -0.39679(13) -1.01113(15)
H13 H -0.685(4) -0.403(2) -1.0550(19)
H14 H -0.559(5) -0.3329(9) -0.977(2)
O2 O -0.8428(4) -1.16002(17) -1.9984(2)
O3 O -0.1097(3) -0.40391(14) -0.92474(14)
H15 H -0.169(5) -0.406(2) -0.8723(16)
H16 H -0.076(5) -0.3413(10) -0.912(2)
O4 O -0.5396(5) -1.18637(18) -1.9326(3)
O5 O -0.9969(3) -0.57380(16) -1.28928(15)
O6 O -0.3120(5) -0.73822(19) -1.2288(2)
O7 O -0.6682(3) -0.57909(16) -1.22981(14)
O8 O 0.0504(3) -0.36419(15) -1.11292(15)
H17 H 0.087(5) -0.375(2) -1.1728(10)
H18 H 0.093(5) -0.3040(13) -1.0730(17)
O10 O -0.6117(3) -0.61603(14) -1.76873(15)
O11 O -0.2554(3) -0.64772(15) -1.71098(15)
Ba1A Ba -0.731622(19) -0.479574(10) -1.866733(9)
Ba1_2 Ba -1.268378(19) -0.520426(10) -1.133267(9)
Ba1A_2 Ba -0.731622(19) -0.479574(10) -0.866733(9)
Ba1A_3 Ba 0.268378(19) -0.479574(10) -0.866733(9)
O1A O -0.4141(3) -0.60321(13) -0.98887(15)
H13A H -0.315(4) -0.597(2) -0.9450(19)
H14A H -0.441(5) -0.6671(9) -1.023(2)
O3A O 0.1097(3) -0.59609(14) -1.07526(14)
H15A H 0.169(5) -0.594(2) -1.1277(16)
H16A H 0.076(5) -0.6587(10) -1.088(2)
O5_2 O 0.0031(3) -0.57380(16) -1.28928(15)
O10A O -0.3883(3) -0.38397(14) -1.23127(15)
C15 C -0.1201(9) -0.9891(4) -1.6287(4)
H9 H -0.0529 -1.0232 -1.6893
C16 C -0.0371(7) -0.8929(4) -1.5573(4)
H10 H 0.0860 -0.8607 -1.5692
C17 C -0.1431(8) -0.8476(4) -1.4695(4)
H11 H -0.0872 -0.7836 -1.4224
C18 C -0.3157(6) -0.8869(2) -1.4467(3)
H12 H -0.3788 -0.8525 -1.3850
C19 C -0.4001(6) -0.9786(3) -1.5145(3)
N1 N -0.3064(8) -1.0327(4) -1.6067(3)
C15A C -0.8799(9) -1.0109(4) -1.3713(4)
H9A H -0.9471 -0.9768 -1.3107
C16A C -0.9629(7) -1.1071(4) -1.4427(4)
H10A H -1.0860 -1.1393 -1.4308
C17A C -0.8569(8) -1.1524(4) -1.5305(4)
H11A H -0.9128 -1.2164 -1.5776
C18A C -0.6843(6) -1.1131(2) -1.5533(3)
H12A H -0.6212 -1.1475 -1.6150
C19A C -0.5999(6) -1.0214(3) -1.4855(3)
N1A N -0.6936(8) -0.9673(4) -1.3933(3)
O9 O -0.8713(5) 0.1940(2) -1.1289(3)
H19 H -0.931(6) 0.189(4) -1.078(3)
H20 H -0.7378(18) 0.196(4) -1.117(4)
loop_
_geom_bond_atom_site_label_1
_geom_bond_atom_site_label_2
_geom_bond_site_symmetry_1
_geom_bond_site_symmetry_2
Ba1 O1 1_555 1_555
S1 C6 1_555 1_555
C1 H1 1_555 1_555
C2 C1 1_555 1_555
H2 C2 1_555 1_555
C3 C2 1_555 1_555
C4 C3 1_555 1_555
H3 C4 1_555 1_555
C5 C4 1_555 1_555
H4 C5 1_555 1_555
C6 C1 1_555 1_555
C7 S1 1_555 1_555
C8 C7 1_555 1_555
H5 C8 1_555 1_555
C9 C8 1_555 1_555
H6 C9 1_555 1_555
C10 C9 1_555 1_555
C11 C10 1_555 1_555
H7 C11 1_555 1_555
C12 C7 1_555 1_555
H8 C12 1_555 1_555
C13 C3 1_555 1_555
C14 C10 1_555 1_555
C15 H9 1_555 1_555
C16 C15 1_555 1_555
H10 C16 1_555 1_555
C17 C16 1_555 1_555
H11 C17 1_555 1_555
C18 C17 1_555 1_555
H12 C18 1_555 1_555
C19 C18 1_555 1_555
N1 C15 1_555 1_555
O1 H13 1_555 1_555
H14 O1 1_555 1_555
O2 C13 1_555 1_555
O3 Ba1 1_555 1_555
H15 O3 1_555 1_555
H16 O3 1_555 1_555
O4 C13 1_555 1_555
O5 C14 1_555 1_555
O6 Ba1 1_555 1_555
O7 Ba1 1_555 1_555
O8 Ba1 1_555 1_555
H17 O8 1_555 1_555
H18 O8 1_555 1_555
O9 H19 1_555 1_555
H20 O9 1_555 1_555
O10 S1 1_555 1_555
O11 S1 1_555 1_555
Ba1A O10 1_555 1_555
Ba1_2 O5 1_555 1_555
Ba1A_2 O1 1_555 1_555
Ba1A_3 O3 1_555 1_555
C15A H9A 1_555 1_555
C16A C15A 1_555 1_555
H10A C16A 1_555 1_555
C17A C16A 1_555 1_555
H11A C17A 1_555 1_555
C18A C17A 1_555 1_555
H12A C18A 1_555 1_555
C19A C19 1_555 1_555
N1A C15A 1_555 1_555
O1A Ba1 1_555 1_555
H13A O1A 1_555 1_555
H14A O1A 1_555 1_555
O3A Ba1 1_555 1_555
H15A O3A 1_555 1_555
H16A O3A 1_555 1_555
O5_2 Ba1 1_555 1_555
O10A Ba1 1_555 1_555
C5 C6 1_555 1_555
C11 C12 1_555 1_555
C14 O7 1_555 1_555
C19 N1 1_555 1_555
Ba1A_2 O1A 1_555 1_555
Ba1A_3 O3A 1_555 1_555
C18A C19A 1_555 1_555
C19A N1A 1_555 1_555

#END
