
#######################################################################
#
#                 Cambridge Crystallographic Data Centre
#                                CCDC 
#
#######################################################################
#
# If this CIF has been generated from an entry in the Cambridge 
# Structural Database, then it will include bibliographic, chemical, 
# crystal, experimental, refinement or atomic coordinate data resulting 
# from the CCDC's data processing and validation procedures.
#
#######################################################################

data_MARJUM
_symmetry_cell_setting           triclinic
_symmetry_space_group_name_H-M   'P -1'
_symmetry_Int_Tables_number      2
_space_group_name_Hall           '-P 1'
loop_
_symmetry_equiv_pos_site_id
_symmetry_equiv_pos_as_xyz
1 x,y,z
2 -x,-y,-z
_cell_length_a                   6.3003(2)
_cell_length_b                   14.0098(4)
_cell_length_c                   14.6389(4)
_cell_angle_alpha                64.9800(10)
_cell_angle_beta                 89.6440(10)
_cell_angle_gamma                89.0750(10)
_cell_volume                     1170.71
loop_
_atom_site_label
_atom_site_type_symbol
_atom_site_fract_x
_atom_site_fract_y
_atom_site_fract_z
Ba1 Ba 1.261279(15) 0.869643(8) 0.008862(8)
S1 S 0.47944(9) 0.25578(4) 0.18594(4)
O1 O 0.9772(3) 0.71392(13) 0.04641(16)
O2 O 0.8746(3) 0.91691(13) 0.08939(13)
H1 H 0.889(4) 0.899(2) 0.1513(9)
H2 H 0.797(4) 0.8727(19) 0.0810(19)
O3 O 1.5950(3) 1.00373(14) -0.10709(13)
H3 H 1.579(4) 1.0437(19) -0.1685(10)
H4 H 1.697(3) 0.9619(18) -0.102(2)
O4 O 0.6499(3) 0.76885(13) 0.05975(15)
O5 O 0.9577(3) 0.90869(14) -0.14581(14)
H5 H 0.944(5) 0.9501(18) -0.2068(10)
H6 H 0.919(5) 0.8483(11) -0.136(2)
O6 O 0.5680(4) 0.1014(3) 0.68428(18)
O7 O 0.8690(4) 0.0336(2) 0.65530(17)
O8 O 1.2737(6) 0.7542(2) 0.2176(2)
H7 H 1.298(11) 0.792(4) 0.248(4)
H8 H 1.236(13) 0.694(3) 0.260(4)
O9 O 0.6095(3) 0.20603(14) 0.13708(14)
O10 O 0.2522(3) 0.25943(13) 0.17372(14)
C1 C 0.7769(4) 0.4097(2) 0.1195(2)
H9 H 0.8714 0.3584 0.1188
C2 C 0.8418(4) 0.51186(19) 0.0925(2)
H10 H 0.9821 0.5291 0.0733
C3 C 0.7031(3) 0.58916(17) 0.09320(17)
C4 C 0.4943(4) 0.56318(19) 0.1215(2)
H11 H 0.3994 0.6145 0.1221
C5 C 0.4255(4) 0.46130(19) 0.1490(2)
H12 H 0.2851 0.4440 0.1680
C6 C 0.5672(4) 0.38591(17) 0.14775(17)
C7 C 0.5359(4) 0.19548(18) 0.31561(18)
C8 C 0.3832(4) 0.1983(3) 0.3833(2)
H13 H 0.2486 0.2264 0.3608
C9 C 0.4334(5) 0.1591(3) 0.4846(2)
H14 H 0.3314 0.1605 0.5301
C10 C 0.6334(4) 0.1175(2) 0.51911(19)
C11 C 0.7823(5) 0.1131(2) 0.4512(2)
H15 H 0.9158 0.0837 0.4741
C12 C 0.7348(5) 0.1523(2) 0.3488(2)
H16 H 0.8357 0.1494 0.3034
C13 C 0.7837(3) 0.69900(17) 0.06426(17)
C14 C 0.6945(5) 0.0802(3) 0.6284(2)
Ba1A Ba 0.738721(15) 0.130357(8) -0.008862(8)
Ba1_2 Ba 0.261279(15) 0.869643(8) 0.008862(8)
Ba1A_2 Ba 0.738721(15) 1.130357(8) -0.008862(8)
Ba1A_3 Ba 1.738721(15) 1.130357(8) -0.008862(8)
O2A O 1.1254(3) 1.08309(13) -0.08939(13)
H1A H 1.111(4) 1.101(2) -0.1513(9)
H2A H 1.203(4) 1.1273(19) -0.0810(19)
O3A O 1.4050(3) 0.99627(14) 0.10709(13)
H3A H 1.421(4) 0.9563(19) 0.1685(10)
H4A H 1.303(3) 1.0381(18) 0.102(2)
O4_2 O 1.6499(3) 0.76885(13) 0.05975(15)
O9A O 1.3905(3) 0.79397(14) -0.13708(14)
N1 N 1.0242(19) 0.5628(8) 0.3143(8)
C15 C 1.0433(19) 0.4569(9) 0.3509(9)
H17 H 1.1669 0.4175 0.3567
C16 C 0.8478(17) 0.4208(8) 0.3771(8)
H18 H 0.8126 0.3499 0.4047
C17 C 0.822(2) 0.5890(8) 0.3186(8)
H19 H 0.7683 0.6572 0.2978
N2 N 0.7090(16) 0.4999(7) 0.3582(7)
C18 C 0.4720(19) 0.5022(16) 0.3677(9)
H20 H 0.4082 0.4529 0.3457
H21 H 0.4159 0.5722 0.3267
C19 C 0.423(3) 0.4708(15) 0.4801(10)
H22 H 0.2776 0.4898 0.4879
H23 H 0.4410 0.3953 0.5182
N1A N -0.0242(19) 0.4372(8) 0.6857(8)
C15A C -0.0433(19) 0.5431(9) 0.6491(9)
H17A H -0.1669 0.5825 0.6433
C16A C 0.1522(17) 0.5792(8) 0.6229(8)
H18A H 0.1874 0.6501 0.5953
C17A C 0.178(2) 0.4110(8) 0.6814(8)
H19A H 0.2317 0.3428 0.7022
N2A N 0.2910(16) 0.5001(7) 0.6418(7)
C18A C 0.5280(19) 0.4978(16) 0.6323(9)
H20A H 0.5918 0.5471 0.6543
H21A H 0.5841 0.4278 0.6733
C19A C 0.577(3) 0.5292(15) 0.5199(10)
H22A H 0.7224 0.5102 0.5121
H23A H 0.5590 0.6047 0.4818
O11 O 0.8432(4) 0.8441(2) 0.2966(2)
H24 H 0.932(5) 0.881(3) 0.310(4)
H25 H 0.724(3) 0.874(3) 0.286(4)
C20? C 1.171(3) 0.4556(11) 0.3771(13)
C21? C 0.979(3) 0.4108(12) 0.4017(13)
C22? C 0.9237(19) 0.5786(8) 0.3172(8)
C23? C 0.591(3) 0.485(2) 0.3819(13)
C24? C 0.534(4) 0.4487(8) 0.4949(12)
H26? H 1.3025 0.4215 0.3931
H27? H 0.9564 0.3391 0.4383
H28? H 0.8575 0.6441 0.2846
H29? H 0.5262 0.4377 0.3573
H30? H 0.5344 0.5549 0.3433
H31? H 0.6553 0.4154 0.5375
H32? H 0.4181 0.3991 0.5139
N3? N 1.1340(19) 0.5592(10) 0.3249(10)
N4? N 0.826(2) 0.4847(10) 0.3657(10)
loop_
_geom_bond_atom_site_label_1
_geom_bond_atom_site_label_2
_geom_bond_site_symmetry_1
_geom_bond_site_symmetry_2
Ba1 O1 1_555 1_555
S1 O9 1_555 1_555
O1 C13 1_555 1_555
O2 Ba1 1_555 1_555
H1 O2 1_555 1_555
H2 O2 1_555 1_555
O3 Ba1 1_555 1_555
H3 O3 1_555 1_555
H4 O3 1_555 1_555
O4 C13 1_555 1_555
O5 Ba1 1_555 1_555
H5 O5 1_555 1_555
H6 O5 1_555 1_555
O6 C14 1_555 1_555
O7 C14 1_555 1_555
O8 Ba1 1_555 1_555
H7 O8 1_555 1_555
H8 O8 1_555 1_555
O9 Ba1A 1_555 1_555
O10 S1 1_555 1_555
C1 H9 1_555 1_555
C2 C1 1_555 1_555
H10 C2 1_555 1_555
C3 C2 1_555 1_555
C4 C3 1_555 1_555
H11 C4 1_555 1_555
C5 C4 1_555 1_555
H12 C5 1_555 1_555
C6 S1 1_555 1_555
C7 S1 1_555 1_555
C8 C7 1_555 1_555
H13 C8 1_555 1_555
C9 C8 1_555 1_555
H14 C9 1_555 1_555
C10 C9 1_555 1_555
C11 C10 1_555 1_555
H15 C11 1_555 1_555
C12 C7 1_555 1_555
H16 C12 1_555 1_555
C13 C3 1_555 1_555
C14 C10 1_555 1_555
N1 C15 1_555 1_555
C15 H17 1_555 1_555
C16 C15 1_555 1_555
H18 C16 1_555 1_555
C17 N1 1_555 1_555
H19 C17 1_555 1_555
N2 C16 1_555 1_555
C18 N2 1_555 1_555
H20 C18 1_555 1_555
H21 C18 1_555 1_555
C19 C18 1_555 1_555
H22 C19 1_555 1_555
H23 C19 1_555 1_555
O11 H24 1_555 1_555
H25 O11 1_555 1_555
Ba1_2 O4 1_555 1_555
Ba1A_2 O2 1_555 1_555
Ba1A_3 O3 1_555 1_555
O2A Ba1 1_555 1_555
H1A O2A 1_555 1_555
H2A O2A 1_555 1_555
O3A Ba1 1_555 1_555
H3A O3A 1_555 1_555
H4A O3A 1_555 1_555
O4_2 Ba1 1_555 1_555
O9A Ba1 1_555 1_555
N1A C15A 1_555 1_555
C15A H17A 1_555 1_555
C16A C15A 1_555 1_555
H18A C16A 1_555 1_555
C17A N1A 1_555 1_555
H19A C17A 1_555 1_555
N2A C16A 1_555 1_555
C18A N2A 1_555 1_555
H20A C18A 1_555 1_555
H21A C18A 1_555 1_555
C19A C19 1_555 1_555
H22A C19A 1_555 1_555
H23A C19A 1_555 1_555
C1 C6 1_555 1_555
C5 C6 1_555 1_555
C11 C12 1_555 1_555
C17 N2 1_555 1_555
Ba1A_2 O2A 1_555 1_555
Ba1A_3 O3A 1_555 1_555
C17A N2A 1_555 1_555
C18A C19A 1_555 1_555

#END
