
#######################################################################
#
#                 Cambridge Crystallographic Data Centre
#                                CCDC 
#
#######################################################################
#
# If this CIF has been generated from an entry in the Cambridge 
# Structural Database, then it will include bibliographic, chemical, 
# crystal, experimental, refinement or atomic coordinate data resulting 
# from the CCDC's data processing and validation procedures.
#
#######################################################################

data_MARJIA
_symmetry_cell_setting           triclinic
_symmetry_space_group_name_H-M   'P -1'
_symmetry_Int_Tables_number      2
_space_group_name_Hall           '-P 1'
loop_
_symmetry_equiv_pos_site_id
_symmetry_equiv_pos_as_xyz
1 x,y,z
2 -x,-y,-z
_cell_length_a                   6.3032(7)
_cell_length_b                   13.0543(14)
_cell_length_c                   13.9108(15)
_cell_angle_alpha                76.7420(10)
_cell_angle_beta                 86.6830(10)
_cell_angle_gamma                83.3060(10)
_cell_volume                     1105.96
loop_
_atom_site_label
_atom_site_type_symbol
_atom_site_fract_x
_atom_site_fract_y
_atom_site_fract_z
O10 O -0.5546(4) 1.6468(2) 0.4562(2)
H17 H -0.681(3) 1.641(4) 0.478(3)
H18 H -0.479(5) 1.651(4) 0.502(2)
Ba1 Ba 0.244698(17) 0.981993(9) -0.368135(8)
S1 S 0.08603(9) 0.82250(4) 0.19230(4)
C1 C -0.0808(5) 0.5445(2) 0.3506(3)
H1 H -0.1984 0.5195 0.3885
C2 C -0.0861(5) 0.6501(2) 0.3046(3)
H2 H -0.2057 0.6966 0.3127
C3 C 0.0858(4) 0.68702(18) 0.24642(17)
C4 C 0.2650(5) 0.6177(2) 0.2337(2)
H3 H 0.3802 0.6419 0.1935
C5 C 0.2692(5) 0.5139(2) 0.2811(3)
H4 H 0.3894 0.4676 0.2732
C6 C 0.0996(4) 0.47528(19) 0.3407(2)
C7 C -0.0168(4) 0.84368(18) 0.07372(17)
C8 C 0.1176(4) 0.8221(2) -0.00390(18)
H5 H 0.2590 0.7943 0.0072
C9 C 0.0377(4) 0.8428(2) -0.09774(18)
H6 H 0.1261 0.8295 -0.1503
C10 C -0.1754(4) 0.88360(19) -0.11366(17)
C11 C -0.3073(4) 0.9012(2) -0.03466(18)
H7 H -0.4505 0.9258 -0.0451
C12 C -0.2298(4) 0.8829(2) 0.05957(18)
H8 H -0.3182 0.8965 0.1121
C13 C 0.1122(4) 0.36005(19) 0.3950(2)
C14 C -0.2644(4) 0.91038(18) -0.21666(17)
O1 O 0.2961(3) 0.31091(15) 0.40338(19)
O2 O 0.3110(3) 0.75868(16) -0.30545(17)
H9 H 0.217(4) 0.737(3) -0.333(3)
H10 H 0.430(2) 0.729(3) -0.318(3)
O3 O 0.6451(3) 0.90436(12) -0.44425(12)
H11 H 0.713(4) 0.910(2) -0.3963(15)
H12 H 0.638(5) 0.8422(10) -0.445(2)
O4 O -0.0567(3) 0.32224(15) 0.42770(18)
O5 O 0.5158(3) 1.14573(17) -0.36578(15)
H13 H 0.575(4) 1.130(3) -0.3096(13)
H14 H 0.3823(17) 1.149(3) -0.352(2)
O6 O -0.1303(3) 0.91318(15) -0.28808(12)
O7 O -0.1050(3) 1.11181(13) -0.47877(13)
H15 H -0.076(4) 1.1733(12) -0.505(2)
H16 H -0.211(3) 1.115(2) -0.4400(19)
O8 O -0.4610(3) 0.92956(16) -0.22354(14)
O9 O -0.0610(3) 0.87949(13) 0.24992(13)
O11 O 0.3063(3) 0.84560(15) 0.18067(14)
Ba1A Ba 0.755302(17) 1.018007(9) -0.631865(8)
Ba1A_2 Ba -0.244698(17) 1.018007(9) -0.631865(8)
Ba1_2 Ba -0.755302(17) 0.981993(9) -0.368135(8)
Ba1A_3 Ba -0.244698(17) 1.018007(9) 0.368135(8)
O3A O 0.3549(3) 1.09564(12) -0.55575(12)
H11A H 0.287(4) 1.090(2) -0.6037(15)
H12A H 0.362(5) 1.1578(10) -0.555(2)
O7A O 0.1050(3) 0.88819(13) -0.52123(13)
H15A H 0.076(4) 0.8267(12) -0.495(2)
H16A H 0.211(3) 0.885(2) -0.5600(19)
O8_2 O 0.5390(3) 0.92956(16) -0.22354(14)
O9A O 0.0610(3) 1.12051(13) -0.24992(13)
C15? C 0.3962(18) 0.4623(11) 0.9881(12)
C16? C 0.544(2) 0.4229(7) 1.0615(9)
C17? C 0.6997(17) 0.4845(13) 1.0759(8)
C18? C 0.7076(19) 0.5856(12) 1.0168(12)
C19? C 0.560(3) 0.6250(6) 0.9434(10)
C20? C 0.404(2) 0.5633(12) 0.9291(8)
C21? C 0.215(4) 0.417(2) 0.951(2)
loop_
_geom_bond_atom_site_label_1
_geom_bond_atom_site_label_2
_geom_bond_site_symmetry_1
_geom_bond_site_symmetry_2
Ba1 O2 1_555 1_555
S1 C3 1_555 1_555
C1 H1 1_555 1_555
C2 C1 1_555 1_555
H2 C2 1_555 1_555
C3 C2 1_555 1_555
C4 C3 1_555 1_555
H3 C4 1_555 1_555
C5 C4 1_555 1_555
H4 C5 1_555 1_555
C6 C1 1_555 1_555
C7 S1 1_555 1_555
C8 C7 1_555 1_555
H5 C8 1_555 1_555
C9 C8 1_555 1_555
H6 C9 1_555 1_555
C10 C9 1_555 1_555
C11 C10 1_555 1_555
H7 C11 1_555 1_555
C12 C7 1_555 1_555
H8 C12 1_555 1_555
C13 C6 1_555 1_555
C14 C10 1_555 1_555
O1 C13 1_555 1_555
O2 H9 1_555 1_555
H10 O2 1_555 1_555
O3 Ba1 1_555 1_555
H11 O3 1_555 1_555
H12 O3 1_555 1_555
O4 C13 1_555 1_555
O5 Ba1 1_555 1_555
H13 O5 1_555 1_555
H14 O5 1_555 1_555
O6 Ba1 1_555 1_555
O7 Ba1 1_555 1_555
H15 O7 1_555 1_555
H16 O7 1_555 1_555
O8 C14 1_555 1_555
O9 S1 1_555 1_555
O10 H17 1_555 1_555
H18 O10 1_555 1_555
O11 S1 1_555 1_555
Ba1A O3 1_555 1_555
Ba1A_2 O7 1_555 1_555
Ba1_2 O8 1_555 1_555
Ba1A_3 O9 1_555 1_555
O3A Ba1 1_555 1_555
H11A O3A 1_555 1_555
H12A O3A 1_555 1_555
O7A Ba1 1_555 1_555
H15A O7A 1_555 1_555
H16A O7A 1_555 1_555
O8_2 Ba1 1_555 1_555
O9A Ba1 1_555 1_555
C5 C6 1_555 1_555
C11 C12 1_555 1_555
C14 O6 1_555 1_555
Ba1A O3A 1_555 1_555
Ba1A_2 O7A 1_555 1_555

#END
