
#######################################################################
#
#                 Cambridge Crystallographic Data Centre
#                                CCDC 
#
#######################################################################
#
# If this CIF has been generated from an entry in the Cambridge 
# Structural Database, then it will include bibliographic, chemical, 
# crystal, experimental, refinement or atomic coordinate data resulting 
# from the CCDC's data processing and validation procedures.
#
#######################################################################

data_MARKEX
_symmetry_cell_setting           triclinic
_symmetry_space_group_name_H-M   'P -1'
_symmetry_Int_Tables_number      2
_space_group_name_Hall           '-P 1'
loop_
_symmetry_equiv_pos_site_id
_symmetry_equiv_pos_as_xyz
1 x,y,z
2 -x,-y,-z
_cell_length_a                   6.317(2)
_cell_length_b                   14.130(5)
_cell_length_c                   14.147(5)
_cell_angle_alpha                112.859(4)
_cell_angle_beta                 91.748(4)
_cell_angle_gamma                91.742(4)
_cell_volume                     1161.81
loop_
_atom_site_label
_atom_site_type_symbol
_atom_site_fract_x
_atom_site_fract_y
_atom_site_fract_z
Ba1 Ba -0.73608(4) -0.367860(19) 0.01546(2)
S1 S -0.5188(2) 0.22309(10) 0.17157(10)
C1 C -0.2702(11) 0.3394(6) 0.3405(5)
H1 H -0.1679 0.3401 0.2948
C2 C -0.2270(12) 0.3880(6) 0.4449(5)
H2 H -0.0945 0.4203 0.4693
C3 C -0.3792(10) 0.3893(5) 0.5138(4)
C4 C -0.5755(11) 0.3396(7) 0.4761(5)
H3 H -0.6783 0.3385 0.5214
C5 C -0.6182(11) 0.2920(7) 0.3717(5)
H4 H -0.7517 0.2612 0.3469
C6 C -0.4647(9) 0.2898(4) 0.3040(4)
C7 C -0.4281(9) 0.0978(4) 0.1446(4)
C8 C -0.5613(9) 0.0273(5) 0.1584(5)
H5 H -0.6973 0.0443 0.1807
C9 C -0.4898(9) -0.0717(4) 0.1383(5)
H6 H -0.5781 -0.1210 0.1474
C10 C -0.2847(8) -0.0952(4) 0.1045(4)
C11 C -0.1559(9) -0.0212(4) 0.0946(5)
H7 H -0.0177 -0.0363 0.0750
C12 C -0.2254(9) 0.0768(4) 0.1130(5)
H8 H -0.1372 0.1264 0.1042
C13 C -0.3298(11) 0.4431(6) 0.6276(5)
C14 C -0.2063(8) -0.2014(4) 0.0832(4)
O1 O -0.4114(6) -0.4911(3) -0.1037(3)
H9 H -0.333(10) -0.440(4) -0.100(4)
H10 H -0.447(10) -0.525(4) -0.1662(15)
O2 O -0.1572(9) 0.4930(5) 0.6557(4)
O3 O -1.1122(6) -0.4248(3) 0.0946(3)
H11 H -1.163(11) -0.373(3) 0.088(4)
H12 H -1.094(12) -0.413(5) 0.1575(14)
O4 O -0.4607(9) 0.4319(6) 0.6876(4)
O5 O -0.3408(6) -0.2712(3) 0.0770(3)
O6 O -1.0513(7) -0.3899(3) -0.1405(3)
H13 H -1.069(12) -0.431(4) -0.2023(18)
H14 H -1.081(13) -0.331(2) -0.136(5)
O7 O -0.0120(6) -0.2131(3) 0.0719(4)
O8 O -0.6951(13) -0.2672(6) 0.2286(5)
H15 H -0.721(14) -0.276(9) 0.282(5)
H16 H -0.570(7) -0.243(9) 0.234(8)
O9 O -0.3887(7) 0.2708(3) 0.1187(3)
O11 O -0.7450(7) 0.2148(3) 0.1529(3)
Ba1A Ba -0.26392(4) -0.632140(19) -0.01546(2)
Ba1A_2 Ba -1.26392(4) -0.632140(19) -0.01546(2)
Ba1_2 Ba 0.26392(4) -0.367860(19) 0.01546(2)
Ba1A_3 Ba -0.26392(4) 0.367860(19) -0.01546(2)
O1A O -0.5886(6) -0.5089(3) 0.1037(3)
H9A H -0.667(10) -0.560(4) 0.100(4)
H10A H -0.553(10) -0.475(4) 0.1662(15)
O3A O -0.8878(6) -0.5752(3) -0.0946(3)
H11A H -0.837(11) -0.627(3) -0.088(4)
H12A H -0.906(12) -0.587(5) -0.1575(14)
O7_2 O -1.0120(6) -0.2131(3) 0.0719(4)
O9A O -0.6113(7) -0.2708(3) -0.1187(3)
O10 O -0.8622(10) 0.3754(6) 0.6966(5)
H17 H -0.940(11) 0.426(5) 0.711(9)
H18 H -0.736(5) 0.395(7) 0.694(9)
O12 O -0.913(3) -0.0647(15) 0.3053(13)
H19 H -0.89(5) 0.000(3) 0.328(18)
H20 H -0.87(4) -0.085(17) 0.350(15)
O13 O -0.047(5) -0.176(2) 0.421(2)
O14 O -0.127(5) 0.121(2) 0.381(2)
O15 O -0.565(5) 0.060(2) 0.447(2)
O16 O -0.636(8) 0.140(4) 0.630(4)
loop_
_geom_bond_atom_site_label_1
_geom_bond_atom_site_label_2
_geom_bond_site_symmetry_1
_geom_bond_site_symmetry_2
Ba1 O1 1_555 1_555
S1 C6 1_555 1_555
C1 H1 1_555 1_555
C2 C1 1_555 1_555
H2 C2 1_555 1_555
C3 C2 1_555 1_555
C4 C3 1_555 1_555
H3 C4 1_555 1_555
C5 C4 1_555 1_555
H4 C5 1_555 1_555
C6 C1 1_555 1_555
C7 S1 1_555 1_555
C8 C7 1_555 1_555
H5 C8 1_555 1_555
C9 C8 1_555 1_555
H6 C9 1_555 1_555
C10 C9 1_555 1_555
C11 C10 1_555 1_555
H7 C11 1_555 1_555
C12 C7 1_555 1_555
H8 C12 1_555 1_555
C13 C3 1_555 1_555
C14 C10 1_555 1_555
O1 H9 1_555 1_555
H10 O1 1_555 1_555
O2 C13 1_555 1_555
O3 Ba1 1_555 1_555
H11 O3 1_555 1_555
H12 O3 1_555 1_555
O4 C13 1_555 1_555
O5 Ba1 1_555 1_555
O6 Ba1 1_555 1_555
H13 O6 1_555 1_555
H14 O6 1_555 1_555
O7 C14 1_555 1_555
O8 Ba1 1_555 1_555
H15 O8 1_555 1_555
H16 O8 1_555 1_555
O9 S1 1_555 1_555
O10 H17 1_555 1_555
H18 O10 1_555 1_555
O11 S1 1_555 1_555
O12 H19 1_555 1_555
H20 O12 1_555 1_555
Ba1A O1 1_555 1_555
Ba1A_2 O3 1_555 1_555
Ba1_2 O7 1_555 1_555
Ba1A_3 O9 1_555 1_555
O1A Ba1 1_555 1_555
H9A O1A 1_555 1_555
H10A O1A 1_555 1_555
O3A Ba1 1_555 1_555
H11A O3A 1_555 1_555
H12A O3A 1_555 1_555
O7_2 Ba1 1_555 1_555
O9A Ba1 1_555 1_555
C5 C6 1_555 1_555
C11 C12 1_555 1_555
C14 O5 1_555 1_555
Ba1A O1A 1_555 1_555
Ba1A_2 O3A 1_555 1_555

#END
