
#######################################################################
#
#                 Cambridge Crystallographic Data Centre
#                                CCDC 
#
#######################################################################
#
# If this CIF has been generated from an entry in the Cambridge 
# Structural Database, then it will include bibliographic, chemical, 
# crystal, experimental, refinement or atomic coordinate data resulting 
# from the CCDC's data processing and validation procedures.
#
#######################################################################

data_MARKOH
_symmetry_cell_setting           monoclinic
_symmetry_space_group_name_H-M   'P 21/c'
_symmetry_Int_Tables_number      14
_space_group_name_Hall           '-P 2ybc'
loop_
_symmetry_equiv_pos_site_id
_symmetry_equiv_pos_as_xyz
1 x,y,z
2 -x,1/2+y,1/2-z
3 -x,-y,-z
4 x,1/2-y,1/2+z
_cell_length_a                   16.1042(16)
_cell_length_b                   9.2778(6)
_cell_length_c                   21.079(2)
_cell_angle_alpha                90
_cell_angle_beta                 101.627(6)
_cell_angle_gamma                90
_cell_volume                     3084.82
loop_
_atom_site_label
_atom_site_type_symbol
_atom_site_fract_x
_atom_site_fract_y
_atom_site_fract_z
Cd1 Cd 0.87137(2) 1.33887(3) 1.315492(17)
Cd2 Cd 0.69871(2) 0.55252(3) 1.001846(17)
Cl1 Cl 0.61504(10) 0.3852(2) 1.05521(9)
Cl2 Cl 0.77511(9) 1.33268(14) 1.39507(7)
Cl3 Cl 0.79945(9) 1.50511(13) 1.22825(7)
Cl4 Cl 1.00174(9) 1.19058(14) 1.35865(7)
C1 C 0.7476(3) 1.1591(5) 1.1954(3)
H1 H 0.7229 1.2501 1.1896
C2 C 0.7137(4) 1.0501(5) 1.1541(3)
H2 H 0.6681 1.0695 1.1205
C3 C 0.8169(4) 0.8938(5) 1.2102(3)
H3 H 0.8436 0.8046 1.2161
C4 C 0.8484(4) 1.0078(6) 1.2503(3)
H4 H 0.8953 0.9915 1.2833
C5 C 0.7463(3) 0.9119(5) 1.1618(2)
C6 C 1.0241(3) 0.1492(6) 1.1818(3)
H5 H 1.0566 0.1544 1.2236
C7 C 0.9633(3) 0.2544(5) 1.1623(2)
H6 H 0.9552 0.3275 1.1906
C8 C 0.9142(3) 0.2499(5) 1.0998(2)
C9 C 0.9308(3) 0.1412(5) 1.0596(3)
H7 H 0.9010 0.1360 1.0170
C10 C 0.9928(3) 0.0390(5) 1.0836(3)
H8 H 1.0029 -0.0346 1.0561
C11 C 0.7085(3) 0.7886(5) 1.1184(3)
H9 H 0.6994 0.7079 1.1454
H10 H 0.6536 0.8185 1.0940
C12 C 0.5762(4) 0.4159(7) 0.8748(3)
H11 H 0.5368 0.4003 0.9035
H12 H 0.6164 0.3368 0.8813
C13 C 0.8423(4) 0.3559(6) 1.0823(3)
H13 H 0.7922 0.3132 1.0935
H14 H 0.8563 0.4409 1.1092
C14 C 0.7760(3) 0.8534(5) 1.0267(3)
H15 H 0.8042 0.9346 1.0510
H16 H 0.7223 0.8870 1.0016
C15 C 0.8305(3) 0.7974(5) 0.9811(3)
H17 H 0.8390 0.8741 0.9518
H18 H 0.8856 0.7704 1.0062
C16 C 0.7384(4) 0.7159(6) 0.8804(3)
H19 H 0.7743 0.7428 0.8505
H20 H 0.7056 0.8000 0.8874
C17 C 0.6782(4) 0.5970(6) 0.8501(3)
H21 H 0.6437 0.6314 0.8099
H22 H 0.7108 0.5151 0.8402
C18 C 0.8578(3) 0.5666(5) 0.9329(2)
H23 H 0.9049 0.6174 0.9209
H24 H 0.8337 0.5026 0.8976
C19 C 0.8901(3) 0.4781(5) 0.9933(2)
H25 H 0.9311 0.4082 0.9843
H26 H 0.9185 0.5409 1.0276
C20 C 0.5622(5) 0.3530(10) 0.7575(4)
H27 H 0.6153 0.3096 0.7672
C21 C 0.5183(6) 0.3588(13) 0.6944(4)
H28 H 0.5426 0.3153 0.6628
C22 C 0.4066(5) 0.4701(12) 0.7239(4)
H29 H 0.3515 0.5055 0.7136
C23 C 0.4463(4) 0.4683(9) 0.7869(4)
H30 H 0.4189 0.5058 0.8181
C24 C 0.5275(4) 0.4114(7) 0.8059(3)
N1 N 0.8150(3) 1.1395(4) 1.2440(2)
N2 N 1.0383(3) 0.0416(4) 1.1440(2)
N3 N 0.4427(5) 0.4232(11) 0.6755(3)
N4 N 0.7602(3) 0.7392(4) 1.07267(19)
H31 H 0.8110 0.7079 1.0956
N5 N 0.6228(3) 0.5510(5) 0.8940(2)
H32 H 0.5826 0.6209 0.8916
N6 N 0.8205(2) 0.4025(4) 1.0146(2)
H33 H 0.8070 0.3231 0.9893
N7 N 0.7927(3) 0.6722(4) 0.9429(2)
Cd1A Cd 1.12863(2) -0.16113(3) 1.184508(17)
N2A N 0.9617(3) 1.5416(4) 1.3560(2)
O1 O 0.5827(6) 1.0368(11) 0.9553(4)
O2 O 0.5685(3) 0.7475(7) 0.9880(3)
loop_
_geom_bond_atom_site_label_1
_geom_bond_atom_site_label_2
_geom_bond_site_symmetry_1
_geom_bond_site_symmetry_2
Cd1 Cl2 1_555 1_555
Cd2 Cl1 1_555 1_555
Cl3 Cd1 1_555 1_555
Cl4 Cd1 1_555 1_555
C1 H1 1_555 1_555
C2 C1 1_555 1_555
H2 C2 1_555 1_555
C3 H3 1_555 1_555
C4 C3 1_555 1_555
H4 C4 1_555 1_555
C5 C2 1_555 1_555
C6 H5 1_555 1_555
C7 C6 1_555 1_555
H6 C7 1_555 1_555
C8 C7 1_555 1_555
C9 C8 1_555 1_555
H7 C9 1_555 1_555
C10 C9 1_555 1_555
H8 C10 1_555 1_555
C11 C5 1_555 1_555
H9 C11 1_555 1_555
H10 C11 1_555 1_555
C12 H11 1_555 1_555
H12 C12 1_555 1_555
C13 C8 1_555 1_555
H13 C13 1_555 1_555
H14 C13 1_555 1_555
C14 H15 1_555 1_555
H16 C14 1_555 1_555
C15 C14 1_555 1_555
H17 C15 1_555 1_555
H18 C15 1_555 1_555
C16 H19 1_555 1_555
H20 C16 1_555 1_555
C17 C16 1_555 1_555
H21 C17 1_555 1_555
H22 C17 1_555 1_555
C18 H23 1_555 1_555
H24 C18 1_555 1_555
C19 C18 1_555 1_555
H25 C19 1_555 1_555
H26 C19 1_555 1_555
C20 H27 1_555 1_555
C21 C20 1_555 1_555
H28 C21 1_555 1_555
C22 H29 1_555 1_555
C23 C22 1_555 1_555
H30 C23 1_555 1_555
C24 C12 1_555 1_555
N1 Cd1 1_555 1_555
N2 C6 1_555 1_555
N3 C21 1_555 1_555
N4 Cd2 1_555 1_555
H31 N4 1_555 1_555
N5 Cd2 1_555 1_555
H32 N5 1_555 1_555
N6 Cd2 1_555 1_555
H33 N6 1_555 1_555
N7 Cd2 1_555 1_555
Cd1A N2 1_555 1_555
N2A Cd1 1_555 1_555
C1 N1 1_555 1_555
C3 C5 1_555 1_555
C4 N1 1_555 1_555
C10 N2 1_555 1_555
C11 N4 1_555 1_555
C12 N5 1_555 1_555
C13 N6 1_555 1_555
C14 N4 1_555 1_555
C15 N7 1_555 1_555
C16 N7 1_555 1_555
C17 N5 1_555 1_555
C18 N7 1_555 1_555
C19 N6 1_555 1_555
C20 C24 1_555 1_555
C22 N3 1_555 1_555
C23 C24 1_555 1_555

#END
