
#######################################################################
#
#                 Cambridge Crystallographic Data Centre
#                                CCDC 
#
#######################################################################
#
# If this CIF has been generated from an entry in the Cambridge 
# Structural Database, then it will include bibliographic, chemical, 
# crystal, experimental, refinement or atomic coordinate data resulting 
# from the CCDC's data processing and validation procedures.
#
#######################################################################

data_MARLEY
_symmetry_cell_setting           monoclinic
_symmetry_space_group_name_H-M   'C 2/c'
_symmetry_Int_Tables_number      15
_space_group_name_Hall           '-C 2yn'
loop_
_symmetry_equiv_pos_site_id
_symmetry_equiv_pos_as_xyz
1 x,y,z
2 -x,y,1/2-z
3 1/2+x,1/2+y,z
4 1/2-x,1/2+y,1/2-z
5 -x,-y,-z
6 x,-y,1/2+z
7 1/2-x,1/2-y,-z
8 1/2+x,1/2-y,1/2+z
_cell_length_a                   24.189(3)
_cell_length_b                   9.4989(10)
_cell_length_c                   17.9964(19)
_cell_angle_alpha                90
_cell_angle_beta                 126.0110(10)
_cell_angle_gamma                90
_cell_volume                     3344.83
loop_
_atom_site_label
_atom_site_type_symbol
_atom_site_fract_x
_atom_site_fract_y
_atom_site_fract_z
Zn1 Zn 0.061688(12) 0.29644(3) 0.380761(16)
O1 O 0.08893(8) 0.38157(19) 0.49385(11)
O2 O 0.19855(9) 0.3507(2) 0.55099(12)
O3 O 0.03811(8) 0.68394(17) 0.67912(11)
O4 O 0.09517(8) 0.59789(17) 0.82186(11)
O5 O 0.31779(8) 0.4556(2) 0.89263(11)
N1 N 0.08592(9) 0.09883(19) 0.37734(13)
N2 N 0.14216(10) -0.0859(2) 0.37786(14)
C1 C 0.15334(12) 0.3870(2) 0.55821(16)
C2 C 0.17071(11) 0.4428(2) 0.64817(15)
C3 C 0.23666(11) 0.4228(2) 0.72743(16)
H1 H 0.2690 0.3770 0.7239
C4 C 0.25431(11) 0.4706(2) 0.81132(15)
C5 C 0.20571(11) 0.5366(2) 0.81719(15)
H2 H 0.2173 0.5678 0.8737
C6 C 0.14000(10) 0.5557(2) 0.73849(14)
C7 C 0.12231(11) 0.5103(2) 0.65359(15)
H3 H 0.0783 0.5251 0.6008
C8 C 0.08693(11) 0.6182(2) 0.74675(15)
C9 C 0.36541(15) 0.3750(4) 0.8901(2)
H4 H 0.3479 0.2815 0.8694
H5 H 0.4076 0.3706 0.9506
H6 H 0.3732 0.4177 0.8487
C10 C 0.05225(11) -0.0225(2) 0.37308(15)
C11 C 0.08715(12) -0.1391(2) 0.37356(16)
C12 C 0.06625(14) -0.2761(3) 0.37269(19)
H7 H 0.0895 -0.3540 0.3726
C13 C 0.00963(15) -0.2899(3) 0.3719(2)
H8 H -0.0054 -0.3797 0.3726
C14 C -0.02637(14) -0.1738(3) 0.3702(2)
H9 H -0.0649 -0.1882 0.3689
C15 C -0.00598(12) -0.0382(3) 0.37029(18)
H10 H -0.0302 0.0393 0.3686
C16 C 0.13930(12) 0.0544(2) 0.38074(16)
H11 H 0.1713 0.1144 0.3847
C17 C 0.19385(13) -0.1668(3) 0.37753(18)
H12 H 0.2077 -0.1132 0.3452
H13 H 0.1734 -0.2539 0.3441
C18 C 0.25636(13) -0.2013(3) 0.47253(19)
H14 H 0.2756 -0.1141 0.5064
H15 H 0.2902 -0.2442 0.4670
Zn1D Zn -0.061688(12) 0.70356(3) 0.619239(16)
Zn1A Zn -0.061688(12) 0.29644(3) 0.119239(16)
Zn1E Zn 0.061688(12) 0.70356(3) 0.880761(16)
Zn1F Zn 0.438312(12) -0.79644(3) 0.619239(16)
O1D O -0.08893(8) 0.61843(19) 0.50615(11)
O2D O -0.19855(9) 0.6493(2) 0.44901(12)
O3D O -0.03811(8) 0.31606(17) 0.32088(11)
O4D O -0.09517(8) 0.40211(17) 0.17814(11)
O4A O -0.09517(8) 0.59789(17) 0.67814(11)
O4E O 0.09517(8) 0.40211(17) 0.32186(11)
O5D O -0.31779(8) 0.5444(2) 0.10737(11)
N1F N 0.41408(9) -0.59883(19) 0.62266(13)
N1D N -0.08592(9) 0.90117(19) 0.62266(13)
N2F N 0.35784(10) -0.4141(2) 0.62214(14)
C1D C -0.15334(12) 0.6130(2) 0.44179(16)
C2D C -0.17071(11) 0.5572(2) 0.35183(15)
C3D C -0.23666(11) 0.5772(2) 0.27257(16)
H1D H -0.2690 0.6230 0.2761
C4D C -0.25431(11) 0.5294(2) 0.18868(15)
C5D C -0.20571(11) 0.4634(2) 0.18281(15)
H2D H -0.2173 0.4322 0.1263
C6D C -0.14000(10) 0.4443(2) 0.26151(14)
C7D C -0.12231(11) 0.4897(2) 0.34641(15)
H3D H -0.0783 0.4749 0.3992
C8D C -0.08693(11) 0.3818(2) 0.25325(15)
C9D C -0.36541(15) 0.6250(4) 0.1099(2)
H4D H -0.3479 0.7185 0.1306
H5D H -0.4076 0.6294 0.0494
H6D H -0.3732 0.5823 0.1513
C10F C 0.44775(11) -0.4775(2) 0.62692(15)
C11F C 0.41285(12) -0.3609(2) 0.62644(16)
C12F C 0.43375(14) -0.2239(3) 0.62731(19)
H7F H 0.4105 -0.1460 0.6274
C13F C 0.49037(15) -0.2101(3) 0.6281(2)
H8F H 0.5054 -0.1203 0.6274
C14F C 0.52637(14) -0.3262(3) 0.6298(2)
H9F H 0.5649 -0.3118 0.6311
C15F C 0.50598(12) -0.4618(3) 0.62971(18)
H10F H 0.5302 -0.5393 0.6314
C16F C 0.36070(12) -0.5544(2) 0.61926(16)
H11F H 0.3287 -0.6144 0.6153
C17F C 0.30615(13) -0.3332(3) 0.62247(18)
H12F H 0.2923 -0.3868 0.6548
H13F H 0.3266 -0.2461 0.6559
C18F C 0.24364(13) -0.2987(3) 0.52747(19)
H14F H 0.2244 -0.3859 0.4936
H15F H 0.2098 -0.2558 0.5330
loop_
_geom_bond_atom_site_label_1
_geom_bond_atom_site_label_2
_geom_bond_site_symmetry_1
_geom_bond_site_symmetry_2
Zn1 O1 1_555 1_555
O1 C1 1_555 1_555
O2 C1 1_555 1_555
O3 C8 1_555 1_555
O4 C8 1_555 1_555
O5 C4 1_555 1_555
N1 Zn1 1_555 1_555
N2 C11 1_555 1_555
C1 C2 1_555 1_555
C2 C3 1_555 1_555
C3 H1 1_555 1_555
C4 C3 1_555 1_555
C5 C4 1_555 1_555
H2 C5 1_555 1_555
C6 C5 1_555 1_555
C7 C2 1_555 1_555
H3 C7 1_555 1_555
C8 C6 1_555 1_555
C9 O5 1_555 1_555
H4 C9 1_555 1_555
H5 C9 1_555 1_555
H6 C9 1_555 1_555
C10 N1 1_555 1_555
C11 C10 1_555 1_555
C12 C11 1_555 1_555
H7 C12 1_555 1_555
C13 C12 1_555 1_555
H8 C13 1_555 1_555
C14 C13 1_555 1_555
H9 C14 1_555 1_555
C15 C10 1_555 1_555
H10 C15 1_555 1_555
C16 N1 1_555 1_555
H11 C16 1_555 1_555
C17 N2 1_555 1_555
H12 C17 1_555 1_555
H13 C17 1_555 1_555
C18 C17 1_555 1_555
H14 C18 1_555 1_555
H15 C18 1_555 1_555
Zn1D O3 1_555 1_555
Zn1A O4D 1_555 1_555
Zn1E O4 1_555 1_555
Zn1F N1F 1_555 1_555
O1D Zn1D 1_555 1_555
O2D C1D 1_555 1_555
O3D Zn1 1_555 1_555
O4D C8D 1_555 1_555
O4A Zn1D 1_555 1_555
O4E Zn1 1_555 1_555
O5D C4D 1_555 1_555
N1F C10F 1_555 1_555
N1D Zn1D 1_555 1_555
N2F C11F 1_555 1_555
C1D O1D 1_555 1_555
C2D C1D 1_555 1_555
C3D C2D 1_555 1_555
H1D C3D 1_555 1_555
C4D C3D 1_555 1_555
C5D C4D 1_555 1_555
H2D C5D 1_555 1_555
C6D C5D 1_555 1_555
C7D C2D 1_555 1_555
H3D C7D 1_555 1_555
C8D O3D 1_555 1_555
C9D O5D 1_555 1_555
H4D C9D 1_555 1_555
H5D C9D 1_555 1_555
H6D C9D 1_555 1_555
C10F C11F 1_555 1_555
C11F C12F 1_555 1_555
C12F H7F 1_555 1_555
C13F C12F 1_555 1_555
H8F C13F 1_555 1_555
C14F C13F 1_555 1_555
H9F C14F 1_555 1_555
C15F C10F 1_555 1_555
H10F C15F 1_555 1_555
C16F N1F 1_555 1_555
H11F C16F 1_555 1_555
C17F N2F 1_555 1_555
H12F C17F 1_555 1_555
H13F C17F 1_555 1_555
C18F C18 1_555 1_555
H14F C18F 1_555 1_555
H15F C18F 1_555 1_555
N2 C16 1_555 1_555
C6 C7 1_555 1_555
C14 C15 1_555 1_555
N2F C16F 1_555 1_555
C6D C7D 1_555 1_555
C6D C8D 1_555 1_555
C14F C15F 1_555 1_555
C17F C18F 1_555 1_555

#END
