
#######################################################################
#
#                 Cambridge Crystallographic Data Centre
#                                CCDC 
#
#######################################################################
#
# If this CIF has been generated from an entry in the Cambridge 
# Structural Database, then it will include bibliographic, chemical, 
# crystal, experimental, refinement or atomic coordinate data resulting 
# from the CCDC's data processing and validation procedures.
#
#######################################################################

data_MARLAU
_symmetry_cell_setting           monoclinic
_symmetry_space_group_name_H-M   'P 21/n'
_symmetry_Int_Tables_number      14
_space_group_name_Hall           '-P 2yn'
loop_
_symmetry_equiv_pos_site_id
_symmetry_equiv_pos_as_xyz
1 x,y,z
2 1/2-x,1/2+y,1/2-z
3 -x,-y,-z
4 1/2+x,1/2-y,1/2+z
_cell_length_a                   9.1896(8)
_cell_length_b                   14.2875(13)
_cell_length_c                   27.356(2)
_cell_angle_alpha                90
_cell_angle_beta                 93.552(8)
_cell_angle_gamma                90
_cell_volume                     3584.84
loop_
_atom_site_label
_atom_site_type_symbol
_atom_site_fract_x
_atom_site_fract_y
_atom_site_fract_z
Mn1 Mn 0.0000 -0.5000 0.5000
Mn2 Mn -0.00271(7) -0.28136(5) 0.16562(2)
Cl1 Cl 0.25955(15) -0.25005(11) 0.17287(6)
Cl2 Cl -0.19652(13) -0.60998(9) 0.46891(5)
C1 C -0.2288(5) -0.3413(4) 0.08747(17)
H1 H -0.2027 -0.4043 0.0980
H2 H -0.2782 -0.3450 0.0552
C2 C -0.3296(5) -0.2975(4) 0.12326(17)
H3 H -0.3642 -0.2376 0.1105
H4 H -0.4136 -0.3377 0.1263
C3 C -0.2805(6) -0.3640(4) 0.20456(19)
H5 H -0.2634 -0.4217 0.1871
H6 H -0.3816 -0.3636 0.2128
C4 C -0.1835(6) -0.3618(5) 0.2511(2)
H7 H -0.2313 -0.3250 0.2752
H8 H -0.1738 -0.4251 0.2637
C5 C -0.2211(6) -0.1123(3) 0.1714(2)
H9 H -0.2515 -0.1073 0.1369
H10 H -0.2476 -0.0547 0.1874
C6 C -0.2984(6) -0.1936(4) 0.19356(19)
H11 H -0.2758 -0.1945 0.2287
H12 H -0.4029 -0.1855 0.1879
C7 C -0.0025(6) -0.3192(4) 0.04695(19)
H13 H -0.0634 -0.3325 0.0175
H14 H 0.0432 -0.3773 0.0580
C8 C 0.1146(6) -0.2494(4) 0.03501(16)
C9 C 0.2574(6) -0.2729(4) 0.03601(19)
H15 H 0.2862 -0.3335 0.0446
C10 C 0.3612(6) -0.2072(4) 0.0243(2)
H16 H 0.4583 -0.2258 0.0250
C11 C 0.1878(6) -0.0965(4) 0.01122(18)
H17 H 0.1611 -0.0355 0.0029
C12 C 0.0788(6) -0.1581(4) 0.0218(2)
H18 H -0.0179 -0.1387 0.0202
C13 C 0.0173(7) -0.0608(4) 0.1448(2)
H19 H -0.0108 -0.0759 0.1109
H20 H 0.1209 -0.0729 0.1500
C14 C -0.0087(6) 0.0419(3) 0.15251(19)
C15 C 0.0460(6) 0.0880(4) 0.1930(2)
H21 H 0.0977 0.0556 0.2180
C16 C 0.0244(7) 0.1838(4) 0.1971(3)
H22 H 0.0640 0.2138 0.2250
C17 C -0.1148(12) 0.1880(6) 0.1251(4)
H23 H -0.1740 0.2210 0.1023
C18 C -0.0964(10) 0.0930(5) 0.1185(3)
H24 H -0.1424 0.0631 0.0916
C19 C 0.0807(7) -0.3663(6) 0.2716(2)
H25 H 0.1627 -0.3235 0.2718
H26 H 0.1067 -0.4212 0.2532
C20 C 0.0627(6) -0.3964(5) 0.32405(18)
C21 C 0.0708(6) -0.4877(4) 0.33746(17)
H27 H 0.0871 -0.5332 0.3141
C22 C 0.0551(6) -0.5140(4) 0.38539(16)
H28 H 0.0596 -0.5774 0.3932
C23 C 0.0268(8) -0.3632(5) 0.4082(2)
H29 H 0.0120 -0.3188 0.4322
C24 C 0.0407(9) -0.3326(5) 0.3603(2)
H30 H 0.0350 -0.2691 0.3530
N1 N -0.2544(4) -0.2837(3) 0.17212(13)
N2 N -0.0952(4) -0.2833(3) 0.08553(13)
H31 H -0.1230 -0.2240 0.0772
N3 N -0.0618(4) -0.1248(3) 0.17687(14)
H32 H -0.0334 -0.1100 0.2084
N4 N -0.0371(5) -0.3234(4) 0.24617(16)
H33 H -0.0419 -0.2670 0.2614
N5 N 0.3288(4) -0.1185(3) 0.01213(13)
N6 N -0.0492(8) 0.2349(4) 0.1636(3)
N7 N 0.0337(4) -0.4528(3) 0.42112(13)
O1 O 0.0380(5) -0.4337(3) 0.15291(15)
Mn1A Mn 0.5000 0.0000 0.0000
Mn1A_2 Mn 0.5000 -1.0000 0.0000
Mn2A Mn 0.50271(7) -0.78136(5) 0.33438(2)
Cl1A Cl 0.24045(15) -0.75005(11) 0.32713(6)
Cl2B Cl 0.19652(13) -0.39002(9) 0.53109(5)
C1A C 0.7288(5) -0.8413(4) 0.41253(17)
H1A H 0.7027 -0.9043 0.4020
H2A H 0.7782 -0.8450 0.4448
C2A C 0.8296(5) -0.7975(4) 0.37674(17)
H3A H 0.8642 -0.7376 0.3895
H4A H 0.9136 -0.8377 0.3737
C3A C 0.7805(6) -0.8640(4) 0.29544(19)
H5A H 0.7634 -0.9217 0.3129
H6A H 0.8816 -0.8636 0.2872
C4A C 0.6835(6) -0.8618(5) 0.2489(2)
H7A H 0.7313 -0.8250 0.2248
H8A H 0.6738 -0.9251 0.2363
C5A C 0.7211(6) -0.6123(3) 0.3286(2)
H9A H 0.7515 -0.6073 0.3631
H10A H 0.7476 -0.5547 0.3126
C6A C 0.7984(6) -0.6936(4) 0.30644(19)
H11A H 0.7758 -0.6945 0.2713
H12A H 0.9029 -0.6855 0.3121
C7A C 0.5025(6) -0.8192(4) 0.45305(19)
H13A H 0.5634 -0.8325 0.4825
H14A H 0.4568 -0.8773 0.4420
C8A C 0.3854(6) -0.7494(4) 0.46499(16)
C9A C 0.2426(6) -0.7729(4) 0.46399(19)
H15A H 0.2138 -0.8335 0.4554
C10A C 0.1388(6) -0.7072(4) 0.4757(2)
H16A H 0.0417 -0.7258 0.4750
C11A C 0.3122(6) -0.5965(4) 0.48878(18)
H17A H 0.3389 -0.5355 0.4971
C12A C 0.4212(6) -0.6581(4) 0.4782(2)
H18A H 0.5179 -0.6387 0.4798
C13A C 0.4827(7) -0.5608(4) 0.3552(2)
H19A H 0.5108 -0.5759 0.3891
H20A H 0.3791 -0.5729 0.3500
C14A C 0.5087(6) -0.4581(3) 0.34749(19)
C15A C 0.4540(6) -0.4120(4) 0.3070(2)
H21A H 0.4023 -0.4444 0.2820
C16A C 0.4756(7) -0.3162(4) 0.3029(3)
H22A H 0.4360 -0.2862 0.2750
C17A C 0.6148(12) -0.3120(6) 0.3749(4)
H23A H 0.6740 -0.2790 0.3977
C18A C 0.5964(10) -0.4070(5) 0.3815(3)
H24A H 0.6424 -0.4369 0.4084
C19A C 0.4193(7) -0.8663(6) 0.2284(2)
H25A H 0.3373 -0.8235 0.2282
H26A H 0.3933 -0.9212 0.2468
C20A C 0.4373(6) -0.8964(5) 0.17595(18)
C21A C 0.4292(6) -0.9877(4) 0.16254(17)
H27A H 0.4129 -1.0332 0.1859
C22A C 0.4449(6) -1.0140(4) 0.11461(16)
H28A H 0.4404 -1.0774 0.1068
C23A C 0.4732(8) -0.8632(5) 0.0918(2)
H29A H 0.4880 -0.8188 0.0678
C24A C 0.4593(9) -0.8326(5) 0.1397(2)
H30A H 0.4650 -0.7691 0.1470
N1A N 0.7544(4) -0.7837(3) 0.32788(13)
N2A N 0.5952(4) -0.7833(3) 0.41447(13)
H31A H 0.6230 -0.7240 0.4228
N3A N 0.5618(4) -0.6248(3) 0.32313(14)
H32A H 0.5334 -0.6100 0.2916
N4A N 0.5371(5) -0.8234(4) 0.25383(16)
H33A H 0.5419 -0.7670 0.2386
N5A N 0.1712(4) -0.6185(3) 0.48787(13)
N5C N -0.1712(4) -0.3815(3) 0.51213(13)
N6A N 0.5492(8) -0.2651(4) 0.3364(3)
N7A N 0.4663(4) -0.9528(3) 0.07888(13)
N7B N -0.0337(4) -0.5472(3) 0.57888(13)
O1A O 0.4620(5) -0.9337(3) 0.34709(15)
Cl3 Cl -0.0447(2) -0.09810(13) 0.29937(6)
O2 O -0.1170(10) 0.4203(4) 0.1835(5)
O3 O 0.2155(14) 0.4066(12) 0.2399(6)
O4 O 0.247(3) -0.5388(18) 0.0495(9)
O5 O -0.404(2) -0.0717(16) 0.4419(7)
O6 O -0.146(2) -0.1156(14) 0.4125(7)
O7 O 0.3312(7) -0.4605(6) 0.1384(3)
loop_
_geom_bond_atom_site_label_1
_geom_bond_atom_site_label_2
_geom_bond_site_symmetry_1
_geom_bond_site_symmetry_2
Mn1 Cl2 1_555 1_555
Mn2 Cl1 1_555 1_555
C1 H1 1_555 1_555
H2 C1 1_555 1_555
C2 C1 1_555 1_555
H3 C2 1_555 1_555
H4 C2 1_555 1_555
C3 H5 1_555 1_555
H6 C3 1_555 1_555
C4 C3 1_555 1_555
H7 C4 1_555 1_555
H8 C4 1_555 1_555
C5 H9 1_555 1_555
H10 C5 1_555 1_555
C6 C5 1_555 1_555
H11 C6 1_555 1_555
H12 C6 1_555 1_555
C7 H13 1_555 1_555
H14 C7 1_555 1_555
C8 C7 1_555 1_555
C9 C8 1_555 1_555
H15 C9 1_555 1_555
C10 C9 1_555 1_555
H16 C10 1_555 1_555
C11 H17 1_555 1_555
C12 C8 1_555 1_555
H18 C12 1_555 1_555
C13 H19 1_555 1_555
H20 C13 1_555 1_555
C14 C13 1_555 1_555
C15 C14 1_555 1_555
H21 C15 1_555 1_555
C16 C15 1_555 1_555
H22 C16 1_555 1_555
C17 H23 1_555 1_555
C18 C14 1_555 1_555
H24 C18 1_555 1_555
C19 H25 1_555 1_555
H26 C19 1_555 1_555
C20 C19 1_555 1_555
C21 C20 1_555 1_555
H27 C21 1_555 1_555
C22 C21 1_555 1_555
H28 C22 1_555 1_555
C23 H29 1_555 1_555
C24 C20 1_555 1_555
H30 C24 1_555 1_555
N1 Mn2 1_555 1_555
N2 Mn2 1_555 1_555
H31 N2 1_555 1_555
N3 Mn2 1_555 1_555
H32 N3 1_555 1_555
N4 Mn2 1_555 1_555
H33 N4 1_555 1_555
N5 C10 1_555 1_555
N6 C16 1_555 1_555
N7 Mn1 1_555 1_555
O1 Mn2 1_555 1_555
Mn1A N5 1_555 1_555
Mn1A_2 N7A 1_555 1_555
Mn2A Cl1A 1_555 1_555
Cl2B Mn1 1_555 1_555
C1A H1A 1_555 1_555
H2A C1A 1_555 1_555
C2A C1A 1_555 1_555
H3A C2A 1_555 1_555
H4A C2A 1_555 1_555
C3A H5A 1_555 1_555
H6A C3A 1_555 1_555
C4A C3A 1_555 1_555
H7A C4A 1_555 1_555
H8A C4A 1_555 1_555
C5A H9A 1_555 1_555
H10A C5A 1_555 1_555
C6A C5A 1_555 1_555
H11A C6A 1_555 1_555
H12A C6A 1_555 1_555
C7A H13A 1_555 1_555
H14A C7A 1_555 1_555
C8A C7A 1_555 1_555
C9A C8A 1_555 1_555
H15A C9A 1_555 1_555
C10A C9A 1_555 1_555
H16A C10A 1_555 1_555
C11A H17A 1_555 1_555
C12A C8A 1_555 1_555
H18A C12A 1_555 1_555
C13A H19A 1_555 1_555
H20A C13A 1_555 1_555
C14A C13A 1_555 1_555
C15A C14A 1_555 1_555
H21A C15A 1_555 1_555
C16A C15A 1_555 1_555
H22A C16A 1_555 1_555
C17A H23A 1_555 1_555
C18A C14A 1_555 1_555
H24A C18A 1_555 1_555
C19A H25A 1_555 1_555
H26A C19A 1_555 1_555
C20A C19A 1_555 1_555
C21A C20A 1_555 1_555
H27A C21A 1_555 1_555
C22A C21A 1_555 1_555
H28A C22A 1_555 1_555
C23A H29A 1_555 1_555
C24A C20A 1_555 1_555
H30A C24A 1_555 1_555
N1A Mn2A 1_555 1_555
N2A Mn2A 1_555 1_555
H31A N2A 1_555 1_555
N3A Mn2A 1_555 1_555
H32A N3A 1_555 1_555
N4A Mn2A 1_555 1_555
H33A N4A 1_555 1_555
N5A Mn1 1_555 1_555
N5C Mn1 1_555 1_555
N6A C16A 1_555 1_555
N7A C22A 1_555 1_555
N7B Mn1 1_555 1_555
O1A Mn2A 1_555 1_555
C1 N2 1_555 1_555
C2 N1 1_555 1_555
C3 N1 1_555 1_555
C4 N4 1_555 1_555
C5 N3 1_555 1_555
C6 N1 1_555 1_555
C7 N2 1_555 1_555
C11 C12 1_555 1_555
C11 N5 1_555 1_555
C13 N3 1_555 1_555
C17 C18 1_555 1_555
C17 N6 1_555 1_555
C19 N4 1_555 1_555
C22 N7 1_555 1_555
C23 C24 1_555 1_555
C23 N7 1_555 1_555
C1A N2A 1_555 1_555
C2A N1A 1_555 1_555
C3A N1A 1_555 1_555
C4A N4A 1_555 1_555
C5A N3A 1_555 1_555
C6A N1A 1_555 1_555
C7A N2A 1_555 1_555
C10A N5A 1_555 1_555
C11A C12A 1_555 1_555
C11A N5A 1_555 1_555
C13A N3A 1_555 1_555
C17A C18A 1_555 1_555
C17A N6A 1_555 1_555
C19A N4A 1_555 1_555
C23A C24A 1_555 1_555
C23A N7A 1_555 1_555

#END
