
#######################################################################
#
#                 Cambridge Crystallographic Data Centre
#                                CCDC 
#
#######################################################################
#
# If this CIF has been generated from an entry in the Cambridge 
# Structural Database, then it will include bibliographic, chemical, 
# crystal, experimental, refinement or atomic coordinate data resulting 
# from the CCDC's data processing and validation procedures.
#
#######################################################################

data_MARLIC
_symmetry_cell_setting           orthorhombic
_symmetry_space_group_name_H-M   'P n a 21'
_symmetry_Int_Tables_number      33
_space_group_name_Hall           'P 2c -2n'
loop_
_symmetry_equiv_pos_site_id
_symmetry_equiv_pos_as_xyz
1 x,y,z
2 -x,-y,1/2+z
3 1/2+x,1/2-y,z
4 1/2-x,1/2+y,1/2+z
_cell_length_a                   8.6436(16)
_cell_length_b                   14.894(3)
_cell_length_c                   17.462(3)
_cell_angle_alpha                90
_cell_angle_beta                 90
_cell_angle_gamma                90
_cell_volume                     2248.02
loop_
_atom_site_label
_atom_site_type_symbol
_atom_site_fract_x
_atom_site_fract_y
_atom_site_fract_z
Zn1 Zn 0.15129(5) 0.49787(5) 0.97851(10)
O1 O 0.3252(7) 0.4215(3) 0.8396(4)
O2 O 0.2808(6) 0.5477(3) 0.8992(3)
O3 O 0.6348(7) 0.4326(3) 0.5949(3)
O4 O 0.7498(5) 0.5610(3) 0.5646(3)
O5 O 0.5699(7) 0.7810(3) 0.7674(3)
N1 N 0.0021(5) 0.3998(4) 0.9502(3)
N2 N -0.1717(6) 0.3208(4) 0.8880(3)
N3 N -0.5133(5) 0.1037(4) 0.5016(3)
N4 N -0.3473(6) 0.1907(3) 0.5599(3)
C1 C 0.3418(9) 0.5007(4) 0.8478(6)
C2 C 0.4419(8) 0.5521(4) 0.7910(4)
C3 C 0.5053(13) 0.5102(3) 0.7274(7)
H1 H 0.4891 0.4491 0.7199
C4 C 0.5923(7) 0.5583(4) 0.6752(4)
C5 C 0.6147(7) 0.6499(4) 0.6867(4)
H2 H 0.6709 0.6833 0.6513
C6 C 0.5534(8) 0.6909(4) 0.7505(3)
C7 C 0.4652(7) 0.6424(4) 0.8020(3)
H3 H 0.4215 0.6710 0.8441
C8 C 0.6623(11) 0.5128(6) 0.6078(6)
C9 C 0.6089(10) 0.8393(4) 0.7092(4)
H4 H 0.5326 0.8360 0.6694
H5 H 0.7082 0.8230 0.6889
H6 H 0.6132 0.8994 0.7289
C10 C -0.0061(6) 0.3145(4) 0.9813(5)
H7 H 0.0531 0.2935 1.0220
C11 C -0.1122(8) 0.2673(5) 0.9437(4)
H8 H -0.1407 0.2082 0.9537
C12 C -0.0982(8) 0.3999(4) 0.8948(4)
C13 C -0.1331(11) 0.4790(5) 0.8432(6)
H9 H -0.0792 0.5311 0.8617
H10 H -0.2424 0.4905 0.8434
H11 H -0.0998 0.4658 0.7920
C14 C -0.2851(8) 0.2943(5) 0.8296(4)
H12 H -0.3597 0.3422 0.8226
H13 H -0.3404 0.2413 0.8468
C15 C -0.2070(8) 0.2747(5) 0.7547(4)
H14 H -0.1274 0.2298 0.7629
H15 H -0.1569 0.3289 0.7365
C16 C -0.3177(8) 0.2412(5) 0.6935(4)
H16 H -0.3662 0.1862 0.7112
H17 H -0.3985 0.2855 0.6859
C17 C -0.2380(8) 0.2233(5) 0.6176(4)
H18 H -0.1901 0.2783 0.5994
H19 H -0.1570 0.1791 0.6249
C18 C -0.4119(8) 0.2418(4) 0.5031(3)
H20 H -0.3905 0.3015 0.4917
C19 C -0.5140(7) 0.1867(4) 0.4666(4)
H21 H -0.5747 0.2025 0.4248
C20 C -0.4098(8) 0.1086(4) 0.5580(4)
C21 C -0.3692(10) 0.0337(5) 0.6093(5)
H22 H -0.2920 -0.0032 0.5853
H23 H -0.4598 -0.0017 0.6194
H24 H -0.3294 0.0571 0.6565
Zn1A Zn 0.84871(5) 0.50213(5) 0.47851(10)
Zn1C Zn -0.65129(5) -0.00213(5) 0.47851(10)
O4A O 0.2502(5) 0.4390(3) 1.0646(3)
N3C N 0.0133(5) 0.6037(4) 1.0016(3)
loop_
_geom_bond_atom_site_label_1
_geom_bond_atom_site_label_2
_geom_bond_site_symmetry_1
_geom_bond_site_symmetry_2
Zn1 O2 1_555 1_555
O1 C1 1_555 1_555
O2 C1 1_555 1_555
O3 C8 1_555 1_555
O4 C8 1_555 1_555
O5 C6 1_555 1_555
N1 Zn1 1_555 1_555
N2 C11 1_555 1_555
N3 C19 1_555 1_555
N4 C17 1_555 1_555
C1 C2 1_555 1_555
C2 C3 1_555 1_555
C3 H1 1_555 1_555
C4 C3 1_555 1_555
C5 C4 1_555 1_555
H2 C5 1_555 1_555
C6 C5 1_555 1_555
C7 C2 1_555 1_555
H3 C7 1_555 1_555
C8 C4 1_555 1_555
C9 O5 1_555 1_555
H4 C9 1_555 1_555
H5 C9 1_555 1_555
H6 C9 1_555 1_555
C10 N1 1_555 1_555
H7 C10 1_555 1_555
C11 C10 1_555 1_555
H8 C11 1_555 1_555
C12 N1 1_555 1_555
C13 C12 1_555 1_555
H9 C13 1_555 1_555
H10 C13 1_555 1_555
H11 C13 1_555 1_555
C14 N2 1_555 1_555
H12 C14 1_555 1_555
H13 C14 1_555 1_555
C15 C14 1_555 1_555
H14 C15 1_555 1_555
H15 C15 1_555 1_555
C16 C15 1_555 1_555
H16 C16 1_555 1_555
H17 C16 1_555 1_555
C17 C16 1_555 1_555
H18 C17 1_555 1_555
H19 C17 1_555 1_555
C18 N4 1_555 1_555
H20 C18 1_555 1_555
C19 C18 1_555 1_555
H21 C19 1_555 1_555
C20 N3 1_555 1_555
C21 C20 1_555 1_555
H22 C21 1_555 1_555
H23 C21 1_555 1_555
H24 C21 1_555 1_555
Zn1A O4 1_555 1_555
Zn1C N3 1_555 1_555
O4A Zn1 1_555 1_555
N3C Zn1 1_555 1_555
N2 C12 1_555 1_555
N4 C20 1_555 1_555
C6 C7 1_555 1_555

#END
