
#######################################################################
#
#                 Cambridge Crystallographic Data Centre
#                                CCDC 
#
#######################################################################
#
# If this CIF has been generated from an entry in the Cambridge 
# Structural Database, then it will include bibliographic, chemical, 
# crystal, experimental, refinement or atomic coordinate data resulting 
# from the CCDC's data processing and validation procedures.
#
#######################################################################

data_MARLOI
_symmetry_cell_setting           triclinic
_symmetry_space_group_name_H-M   'P -1'
_symmetry_Int_Tables_number      2
_space_group_name_Hall           '-P 1'
loop_
_symmetry_equiv_pos_site_id
_symmetry_equiv_pos_as_xyz
1 x,y,z
2 -x,-y,-z
_cell_length_a                   8.3071(10)
_cell_length_b                   8.3924(11)
_cell_length_c                   10.1349(13)
_cell_angle_alpha                99.4450(10)
_cell_angle_beta                 101.3820(10)
_cell_angle_gamma                106.4880(10)
_cell_volume                     645.725
loop_
_atom_site_label
_atom_site_type_symbol
_atom_site_fract_x
_atom_site_fract_y
_atom_site_fract_z
Zn1 Zn 0.65964(3) 0.46582(3) 0.88912(2)
O1 O 0.82378(19) 0.60119(19) 0.79811(14)
O2 O 0.6325(2) 0.3832(2) 0.63784(16)
O3 O 0.55023(17) 0.46797(18) 0.14926(14)
O4 O 0.78850(19) 0.59564(19) 0.08825(14)
O5 O 1.2214(2) 0.9221(2) 0.55561(15)
N1 N 0.6665(2) 0.2348(2) 0.90821(17)
N2 N 0.7939(2) 0.0541(2) 0.97258(19)
C1 C 0.5601(3) 0.0710(3) 0.8418(2)
H1 H 0.4519 0.0422 0.7797
C2 C 0.6371(3) -0.0412(3) 0.8808(2)
H2 H 0.5928 -0.1597 0.8514
C3 C 0.8063(3) 0.2191(3) 0.9864(2)
H3 H 0.9003 0.3101 1.0432
C4 C 0.9305(3) -0.0080(3) 1.0388(2)
H4 H 0.8799 -0.1267 1.0406
H5 H 0.9819 0.0579 1.1336
C5 C 0.7574(3) 0.5167(3) 0.6709(2)
C6 C 0.8359(3) 0.5915(3) 0.5642(2)
C7 C 0.9972(3) 0.7173(3) 0.6026(2)
H6 H 1.0608 0.7508 0.6947
C8 C 1.0657(3) 0.7944(3) 0.5049(2)
C9 C 0.9738(3) 0.7394(3) 0.3664(2)
H7 H 1.0206 0.7864 0.2999
C10 C 0.8108(3) 0.6130(3) 0.3276(2)
C11 C 0.7413(3) 0.5391(3) 0.4257(2)
H8 H 0.6325 0.4552 0.3992
C12 C 1.2886(3) 1.0123(3) 0.4604(3)
H9 H 1.3158 0.9363 0.3931
H10 H 1.3919 1.1058 0.5094
H11 H 1.2033 1.0554 0.4143
C13 C 0.7098(3) 0.5564(3) 0.1787(2)
Zn1A Zn 0.34036(3) 0.53418(3) 0.11088(2)
Zn1_2 Zn 0.65964(3) 0.46582(3) -0.11088(2)
Zn1A_2 Zn 1.34036(3) -0.46582(3) 1.11088(2)
Zn1A_3 Zn 0.34036(3) 0.53418(3) 1.11088(2)
O1A O 0.17622(19) 0.39881(19) 0.20189(14)
O2A O 0.3675(2) 0.6168(2) 0.36216(16)
O3A O 0.44977(17) 0.53203(18) 0.85074(14)
O4A O 0.21150(19) 0.40436(19) 0.91175(14)
O4_2 O 0.78850(19) 0.59564(19) 1.08825(14)
O4A_2 O 0.21150(19) 0.40436(19) -0.08825(14)
O5A O -0.2214(2) 0.0779(2) 0.44439(15)
N1A N 1.3335(2) -0.2348(2) 1.09179(17)
N1A_2 N 0.3335(2) 0.7652(2) 0.09179(17)
N2A N 1.2061(2) -0.0541(2) 1.02742(19)
C1A C 1.4399(3) -0.0710(3) 1.1582(2)
H1A H 1.5481 -0.0422 1.2203
C2A C 1.3629(3) 0.0412(3) 1.1192(2)
H2A H 1.4072 0.1597 1.1486
C3A C 1.1937(3) -0.2191(3) 1.0136(2)
H3A H 1.0997 -0.3101 0.9568
C4A C 1.0695(3) 0.0080(3) 0.9612(2)
H4A H 1.1201 0.1267 0.9594
H5A H 1.0181 -0.0579 0.8664
C5A C 0.2426(3) 0.4833(3) 0.3291(2)
C6A C 0.1641(3) 0.4085(3) 0.4358(2)
C7A C 0.0028(3) 0.2827(3) 0.3974(2)
H6A H -0.0608 0.2492 0.3053
C8A C -0.0657(3) 0.2056(3) 0.4951(2)
C9A C 0.0262(3) 0.2606(3) 0.6336(2)
H7A H -0.0206 0.2136 0.7001
C10A C 0.1892(3) 0.3870(3) 0.6724(2)
C11A C 0.2587(3) 0.4609(3) 0.5743(2)
H8A H 0.3675 0.5448 0.6008
C12A C -0.2886(3) -0.0123(3) 0.5396(3)
H9A H -0.3158 0.0637 0.6069
H10A H -0.3919 -0.1058 0.4906
H11A H -0.2033 -0.0554 0.5857
C13A C 0.2902(3) 0.4436(3) 0.8213(2)
loop_
_geom_bond_atom_site_label_1
_geom_bond_atom_site_label_2
_geom_bond_site_symmetry_1
_geom_bond_site_symmetry_2
Zn1 O1 1_555 1_555
O1 C5 1_555 1_555
O2 Zn1 1_555 1_555
O3 C13 1_555 1_555
O4 C13 1_555 1_555
O5 C8 1_555 1_555
N1 Zn1 1_555 1_555
N2 C2 1_555 1_555
C1 N1 1_555 1_555
H1 C1 1_555 1_555
C2 C1 1_555 1_555
H2 C2 1_555 1_555
C3 N1 1_555 1_555
H3 C3 1_555 1_555
C4 N2 1_555 1_555
H4 C4 1_555 1_555
H5 C4 1_555 1_555
C5 O2 1_555 1_555
C6 C5 1_555 1_555
C7 C6 1_555 1_555
H6 C7 1_555 1_555
C8 C7 1_555 1_555
C9 C8 1_555 1_555
H7 C9 1_555 1_555
C10 C9 1_555 1_555
C11 C6 1_555 1_555
H8 C11 1_555 1_555
C12 O5 1_555 1_555
H9 C12 1_555 1_555
H10 C12 1_555 1_555
H11 C12 1_555 1_555
C13 C10 1_555 1_555
Zn1A O3 1_555 1_555
Zn1_2 O4 1_555 1_555
Zn1A_2 N1A 1_555 1_555
Zn1A_3 O4A 1_555 1_555
O1A Zn1A 1_555 1_555
O2A Zn1A 1_555 1_555
O3A Zn1 1_555 1_555
O4A C13A 1_555 1_555
O4_2 Zn1 1_555 1_555
O4A_2 Zn1A 1_555 1_555
O5A C8A 1_555 1_555
N1A C1A 1_555 1_555
N1A_2 Zn1A 1_555 1_555
N2A C2A 1_555 1_555
C1A H1A 1_555 1_555
C2A C1A 1_555 1_555
H2A C2A 1_555 1_555
C3A N1A 1_555 1_555
H3A C3A 1_555 1_555
C4A C4 1_555 1_555
H4A C4A 1_555 1_555
H5A C4A 1_555 1_555
C5A O1A 1_555 1_555
C6A C5A 1_555 1_555
C7A C6A 1_555 1_555
H6A C7A 1_555 1_555
C8A C7A 1_555 1_555
C9A C8A 1_555 1_555
H7A C9A 1_555 1_555
C10A C9A 1_555 1_555
C11A C6A 1_555 1_555
H8A C11A 1_555 1_555
C12A O5A 1_555 1_555
H9A C12A 1_555 1_555
H10A C12A 1_555 1_555
H11A C12A 1_555 1_555
C13A O3A 1_555 1_555
N2 C3 1_555 1_555
C10 C11 1_555 1_555
O2A C5A 1_555 1_555
N2A C3A 1_555 1_555
N2A C4A 1_555 1_555
C10A C11A 1_555 1_555
C10A C13A 1_555 1_555

#END
