
#######################################################################
#
#                 Cambridge Crystallographic Data Centre
#                                CCDC 
#
#######################################################################
#
# If this CIF has been generated from an entry in the Cambridge 
# Structural Database, then it will include bibliographic, chemical, 
# crystal, experimental, refinement or atomic coordinate data resulting 
# from the CCDC's data processing and validation procedures.
#
#######################################################################

data_MARLUO
_symmetry_cell_setting           triclinic
_symmetry_space_group_name_H-M   'P -1'
_symmetry_Int_Tables_number      2
_space_group_name_Hall           '-P 1'
loop_
_symmetry_equiv_pos_site_id
_symmetry_equiv_pos_as_xyz
1 x,y,z
2 -x,-y,-z
_cell_length_a                   10.1320(17)
_cell_length_b                   10.4262(17)
_cell_length_c                   11.8021(19)
_cell_angle_alpha                72.703(2)
_cell_angle_beta                 82.516(2)
_cell_angle_gamma                64.173(2)
_cell_volume                     1071.47
loop_
_atom_site_label
_atom_site_type_symbol
_atom_site_fract_x
_atom_site_fract_y
_atom_site_fract_z
Zn1 Zn -0.44853(4) 0.73350(5) -0.35449(4)
O1 O -0.3573(3) 0.8675(3) -0.3509(2)
O2 O -0.1556(3) 0.6609(4) -0.3068(3)
O3 O 0.3262(3) 0.6905(3) -0.3842(3)
O4 O 0.3434(3) 0.8758(3) -0.3431(2)
O5 O -0.1872(3) 1.2574(3) -0.3532(3)
N1 N -0.4066(3) 0.5536(3) -0.2142(3)
N2 N -0.3143(3) 0.3778(3) -0.0540(3)
N3 N 0.3865(3) -0.7131(3) 0.5211(3)
N4 N 0.3207(4) -0.7783(4) 0.7031(3)
N5 N -0.4348(4) 0.3644(4) -0.0781(3)
N6 N 0.3225(5) -0.6453(4) 0.6895(3)
C1 C -0.2201(4) 0.7974(5) -0.3315(4)
C2 C -0.1326(4) 0.8862(4) -0.3407(3)
C3 C 0.0194(4) 0.8144(4) -0.3468(3)
H3 H 0.0641 0.7147 -0.3449
C4 C 0.1039(4) 0.8909(4) -0.3557(3)
C5 C 0.0376(4) 1.0386(4) -0.3572(3)
H4 H 0.0949 1.0895 -0.3619
C6 C -0.1137(4) 1.1114(4) -0.3518(3)
C7 C -0.1991(4) 1.0345(4) -0.3444(3)
H5 H -0.3008 1.0830 -0.3420
C8 C 0.2683(4) 0.8118(4) -0.3629(3)
C9 C -0.1009(5) 1.3381(5) -0.3642(5)
H6 H -0.0382 1.2969 -0.2962
H7 H -0.1642 1.4399 -0.3691
H8 H -0.0420 1.3318 -0.4347
C10 C -0.4860(4) 0.4719(4) -0.1753(4)
H9 H -0.5693 0.4906 -0.2142
C11 C -0.3000(4) 0.4898(4) -0.1346(4)
H10 H -0.2258 0.5198 -0.1355
C12 C -0.2196(5) 0.2737(5) 0.0464(4)
H11 H -0.2798 0.2477 0.1119
H12 H -0.1700 0.3219 0.0716
C13 C -0.1395(4) 0.0583(5) -0.0437(4)
H13 H -0.2336 0.0973 -0.0739
C14 C -0.1057(4) 0.1335(4) 0.0186(3)
C15 C 0.0351(4) 0.0743(5) 0.0615(4)
H14 H 0.0599 0.1240 0.1028
C16 C 0.3636(5) -0.6110(5) 0.5792(4)
H15 H 0.6240 -1.4755 1.4562
C17 C 0.3584(4) -0.8162(4) 0.6027(3)
H16 H 0.3644 -0.9029 0.5909
C18 C 0.2773(5) -0.8573(6) 0.8161(4)
H17 H 0.1892 -0.7881 0.8451
H18 H 0.2543 -0.9326 0.8025
C19 C 0.3831(6) -0.8669(5) 1.0006(4)
H19 H 0.3045 -0.7774 1.0024
C20 C 0.3950(5) -0.9296(5) 0.9097(3)
C21 C 0.4892(5) -0.9377(6) 1.0898(4)
H20 H 0.5190 -1.1060 0.8499
Zn1_2 Zn 0.55147(4) 0.73350(5) -0.35449(4)
Zn1A Zn 1.44853(4) -0.73350(5) 0.35449(4)
Zn1A_2 Zn 0.44853(4) -0.73350(5) 0.35449(4)
Zn1_3 Zn 0.55147(4) -1.26650(5) 1.64551(4)
O1A O 1.3573(3) -0.8675(3) 0.3509(2)
O1A_2 O 0.3573(3) -0.8675(3) 0.3509(2)
O2A O 1.1556(3) -0.6609(4) 0.3068(3)
O3A O 0.6738(3) -0.6905(3) 0.3842(3)
O4_2 O -0.6566(3) 0.8758(3) -0.3431(2)
O4A O 0.6566(3) -0.8758(3) 0.3431(2)
O5A O 1.1872(3) -1.2574(3) 0.3532(3)
N1A N 0.4066(3) -0.5536(3) 0.2142(3)
N2A N 0.3143(3) -0.3778(3) 0.0540(3)
N3A N -0.3865(3) 0.7131(3) -0.5211(3)
N3A_2 N 0.6135(3) -1.2869(3) 1.4789(3)
N4A N 0.6793(4) -1.2217(4) 1.2969(3)
N5A N 0.4348(4) -0.3644(4) 0.0781(3)
N6A N 0.6775(5) -1.3547(4) 1.3105(3)
C1A C 1.2201(4) -0.7974(5) 0.3315(4)
C2A C 1.1326(4) -0.8862(4) 0.3407(3)
C3A C 0.9806(4) -0.8144(4) 0.3468(3)
H3A H 0.9359 -0.7147 0.3449
C4A C 0.8961(4) -0.8909(4) 0.3557(3)
C5A C 0.9624(4) -1.0386(4) 0.3572(3)
H4A H 0.9051 -1.0895 0.3619
C6A C 1.1137(4) -1.1114(4) 0.3518(3)
C7A C 1.1991(4) -1.0345(4) 0.3444(3)
H5A H 1.3008 -1.0830 0.3420
C8A C 0.7317(4) -0.8118(4) 0.3629(3)
C9A C 1.1009(5) -1.3381(5) 0.3642(5)
H6A H 1.0382 -1.2969 0.2962
H7A H 1.1642 -1.4399 0.3691
H8A H 1.0420 -1.3318 0.4347
C10A C 0.4860(4) -0.4719(4) 0.1753(4)
H9A H 0.5693 -0.4906 0.2142
C11A C 0.3000(4) -0.4898(4) 0.1346(4)
H10A H 0.2258 -0.5198 0.1355
C12A C 0.2196(5) -0.2737(5) -0.0464(4)
H11A H 0.2798 -0.2477 -0.1119
H12A H 0.1700 -0.3219 -0.0716
C13A C 0.1395(4) -0.0583(5) 0.0437(4)
H13A H 0.2336 -0.0973 0.0739
C14A C 0.1057(4) -0.1335(4) -0.0186(3)
C15A C -0.0351(4) -0.0743(5) -0.0615(4)
H14A H -0.0599 -0.1240 -0.1028
C16A C 0.6364(5) -1.3890(5) 1.4208(4)
H15A H 0.3760 -0.5245 0.5438
C17A C 0.6416(4) -1.1838(4) 1.3973(3)
H16A H 0.6356 -1.0971 1.4091
C18A C 0.7227(5) -1.1427(6) 1.1839(4)
H17A H 0.8108 -1.2119 1.1549
H18A H 0.7457 -1.0674 1.1975
C19A C 0.6169(6) -1.1331(5) 0.9994(4)
H19A H 0.6955 -1.2226 0.9976
C20A C 0.6050(5) -1.0704(5) 1.0903(3)
C21A C 0.5108(5) -1.0623(6) 0.9102(4)
H20A H 0.4810 -0.8940 1.1501
O6 O -0.9327(7) 0.4935(7) -0.1228(8)
H1 H -0.9451 0.4747 -0.1849
H2 H -0.9713 0.4603 -0.0592
loop_
_geom_bond_atom_site_label_1
_geom_bond_atom_site_label_2
_geom_bond_site_symmetry_1
_geom_bond_site_symmetry_2
Zn1 O1 1_555 1_555
O1 C1 1_555 1_555
O2 C1 1_555 1_555
O3 C8 1_555 1_555
O4 C8 1_555 1_555
O5 C6 1_555 1_555
O6 H1 1_555 1_555
H2 O6 1_555 1_555
N1 Zn1 1_555 1_555
N2 N5 1_555 1_555
N3 C16 1_555 1_555
N4 N6 1_555 1_555
N5 C10 1_555 1_555
N6 C16 1_555 1_555
C1 C2 1_555 1_555
C2 C3 1_555 1_555
C3 H3 1_555 1_555
C4 C3 1_555 1_555
C5 C4 1_555 1_555
H4 C5 1_555 1_555
C6 C5 1_555 1_555
C7 C2 1_555 1_555
H5 C7 1_555 1_555
C8 C4 1_555 1_555
C9 O5 1_555 1_555
H6 C9 1_555 1_555
H7 C9 1_555 1_555
H8 C9 1_555 1_555
C10 N1 1_555 1_555
H9 C10 1_555 1_555
C11 N1 1_555 1_555
H10 C11 1_555 1_555
C12 N2 1_555 1_555
H11 C12 1_555 1_555
H12 C12 1_555 1_555
C13 H13 1_555 1_555
C14 C12 1_555 1_555
C15 C14 1_555 1_555
H14 C15 1_555 1_555
C16 H15A 1_555 1_555
H15 C16A 1_555 1_555
C17 N3 1_555 1_555
H16 C17 1_555 1_555
C18 N4 1_555 1_555
H17 C18 1_555 1_555
H18 C18 1_555 1_555
C19 H19 1_555 1_555
C20 C18 1_555 1_555
C21 C19 1_555 1_555
H20 C21A 1_555 1_555
Zn1_2 O4 1_555 1_555
Zn1A O1A 1_555 1_555
Zn1A_2 N3 1_555 1_555
Zn1_3 N3A_2 1_555 1_555
O1A C1A 1_555 1_555
O1A_2 Zn1A_2 1_555 1_555
O2A C1A 1_555 1_555
O3A C8A 1_555 1_555
O4_2 Zn1 1_555 1_555
O4A Zn1A_2 1_555 1_555
O5A C6A 1_555 1_555
N1A Zn1A_2 1_555 1_555
N2A N5A 1_555 1_555
N3A Zn1 1_555 1_555
N3A_2 C16A 1_555 1_555
N4A N6A 1_555 1_555
N5A C10A 1_555 1_555
N6A C16A 1_555 1_555
C1A C2A 1_555 1_555
C2A C3A 1_555 1_555
C3A H3A 1_555 1_555
C4A C3A 1_555 1_555
C5A C4A 1_555 1_555
H4A C5A 1_555 1_555
C6A C5A 1_555 1_555
C7A C2A 1_555 1_555
H5A C7A 1_555 1_555
C8A O4A 1_555 1_555
C9A O5A 1_555 1_555
H6A C9A 1_555 1_555
H7A C9A 1_555 1_555
H8A C9A 1_555 1_555
C10A N1A 1_555 1_555
H9A C10A 1_555 1_555
C11A N1A 1_555 1_555
H10A C11A 1_555 1_555
C12A N2A 1_555 1_555
H11A C12A 1_555 1_555
H12A C12A 1_555 1_555
C13A C15 1_555 1_555
H13A C13A 1_555 1_555
C14A C12A 1_555 1_555
C15A C13 1_555 1_555
H14A C15A 1_555 1_555
C17A N3A_2 1_555 1_555
H16A C17A 1_555 1_555
C18A N4A 1_555 1_555
H17A C18A 1_555 1_555
H18A C18A 1_555 1_555
C19A H19A 1_555 1_555
C20A C21 1_555 1_555
C21A C20 1_555 1_555
H20A C21 1_555 1_555
N2 C11 1_555 1_555
N4 C17 1_555 1_555
C6 C7 1_555 1_555
C13 C14 1_555 1_555
C19 C20 1_555 1_555
N2A C11A 1_555 1_555
N4A C17A 1_555 1_555
C4A C8A 1_555 1_555
C6A C7A 1_555 1_555
C13A C14A 1_555 1_555
C14A C15A 1_555 1_555
C18A C20A 1_555 1_555
C19A C20A 1_555 1_555
C19A C21A 1_555 1_555

#END
