
#######################################################################
#
#                 Cambridge Crystallographic Data Centre
#                                CCDC 
#
#######################################################################
#
# If this CIF has been generated from an entry in the Cambridge 
# Structural Database, then it will include bibliographic, chemical, 
# crystal, experimental, refinement or atomic coordinate data resulting 
# from the CCDC's data processing and validation procedures.
#
#######################################################################

data_MARLAS
_symmetry_cell_setting           monoclinic
_symmetry_space_group_name_H-M   'C 2/c'
_symmetry_Int_Tables_number      15
_space_group_name_Hall           '-C 2yn'
loop_
_symmetry_equiv_pos_site_id
_symmetry_equiv_pos_as_xyz
1 x,y,z
2 1/2+x,1/2+y,z
3 -x,y,1/2-z
4 1/2-x,1/2+y,1/2-z
5 -x,-y,-z
6 1/2-x,1/2-y,-z
7 x,-y,1/2+z
8 1/2+x,1/2-y,1/2+z
_cell_length_a                   19.46(2)
_cell_length_b                   24.20(3)
_cell_length_c                   13.81(2)
_cell_angle_alpha                90
_cell_angle_beta                 121.17(13)
_cell_angle_gamma                90
_cell_volume                     5564.69
loop_
_atom_site_label
_atom_site_type_symbol
_atom_site_fract_x
_atom_site_fract_y
_atom_site_fract_z
Cd1 Cd 0.83253(5) 0.89061(3) 0.54518(9)
C2 C 0.7627(9) 0.7733(6) 0.9289(14)
N1 N 0.8063(8) 0.7914(6) 1.0349(12)
N2 N 0.7075(7) 0.7335(6) 0.8889(10)
N3 N 0.8087(5) 0.8475(3) 0.6853(9)
C3 C 0.8399(9) 0.8701(7) 0.7862(14)
H1 H 0.8715 0.9026 0.8034
C4 C 0.8266(9) 0.8462(7) 0.8711(14)
H2 H 0.8502 0.8622 0.9443
C5 C 0.7783(7) 0.7990(6) 0.8436(12)
C6 C 0.7448(8) 0.7784(6) 0.7349(13)
H3 H 0.7100 0.7473 0.7115
C7 C 0.7626(8) 0.8036(6) 0.6613(13)
H4 H 0.7399 0.7882 0.5877
N4 N 1.0480(6) 0.5877(4) 0.5318(10)
N5 N 1.0035(6) 0.6304(4) 0.5260(10)
C8 C 1.0304(7) 0.6812(4) 0.5187(10)
N6 N 1.0923(6) 0.6905(4) 0.5069(9)
N7 N 1.1360(6) 0.6474(4) 0.5118(10)
C9 C 1.1140(6) 0.5981(5) 0.5280(11)
N8 N 0.9006(6) 0.8184(4) 0.5319(11)
C10 C 0.9375(8) 0.8199(5) 0.4737(15)
H5 H 0.9345 0.8534 0.4359
C11 C 0.9791(9) 0.7775(5) 0.4636(14)
H6 H 1.0041 0.7813 0.4204
C12 C 0.9837(7) 0.7280(5) 0.5196(11)
C13 C 0.9472(7) 0.7258(5) 0.5824(11)
H7 H 0.9506 0.6933 0.6230
C14 C 0.9059(7) 0.7709(5) 0.5860(12)
H8 H 0.8801 0.7685 0.6283
N9 N 0.7563(6) 0.9625(4) 0.5425(13)
C15 C 0.7802(9) 1.0139(5) 0.5455(17)
H9 H 0.8287 1.0200 0.5463
C16 C 0.7381(8) 1.0591(5) 0.5476(16)
H10 H 0.7596 1.0953 0.5565
C17 C 1.1637(7) 0.5510(5) 0.5366(12)
C18 C 1.1371(7) 0.4969(5) 0.5320(13)
H11 H 1.0878 0.4897 0.5283
C19 C 0.6849(7) 0.9537(5) 0.5332(13)
H12 H 0.6664 0.9168 0.5272
N10 N 0.6897(5) 0.8465(3) 0.3283(9)
O1 O 0.7299(8) 0.8774(6) 0.3051(11)
O2 O 0.7130(5) 0.8386(4) 0.4282(8)
O3 O 0.6287(6) 0.8245(5) 0.2544(9)
N11 N 1.0000 0.9237(6) 0.7500
O4 O 0.9336(7) 0.9464(5) 0.6920(12)
O5 O 1.0000 0.8728(6) 0.7500
O6 O 0.8781(8) 0.9509(5) 0.4471(14)
N12 N 0.9478(13) 0.9703(9) 0.4722(16)
O7 O 1.0110(18) 0.9385(14) 0.522(3)
O8 O 0.956(2) 1.0212(12) 0.449(3)
C20 C 0.836(2) 0.9748(17) 0.339(4)
N2E N 0.7925(7) 0.7665(6) 1.1111(10)
N1E N 0.6937(8) 0.7086(6) 0.9651(12)
C17A C 0.6637(7) 1.0510(5) 0.5366(12)
C16A C 1.2381(8) 0.5591(5) 0.5476(16)
C19A C 1.1849(7) 0.4537(5) 0.5332(13)
C18A C 0.6371(7) 0.9969(5) 0.5320(13)
O4B O 1.0664(7) 0.9464(5) 0.8080(12)
O8D O 1.044(2) 0.9788(12) 0.551(3)
N12D N 1.0522(13) 1.0297(9) 0.5278(16)
O7D O 0.9890(18) 1.0615(14) 0.478(3)
Cd1B Cd 1.16747(5) 0.89061(3) 0.95482(9)
C1 C 1.0000 1.0710(15) 0.7500
Cl1 Cl 0.964(2) 1.0767(16) 0.6043(17)
Cl1B Cl 1.036(2) 1.0767(16) 0.8957(17)
O9? O 0.9516(19) 0.9452(9) 0.6542(19)
C21? C 0.973(3) 0.5071(18) 0.249(3)
C22? C 0.910(2) 0.5218(17) 0.253(3)
C23? C 0.888(2) 0.5750(18) 0.254(2)
C24? C 0.926(3) 0.619(2) 0.251(3)
C25? C 0.986(3) 0.6095(13) 0.249(4)
C26? C 1.022(3) 0.5517(19) 0.247(4)
C27? C 1.000(4) 0.4498(17) 0.248(6)
Cl2? Cl 0.9308(13) 1.1233(9) 0.691(2)
loop_
_geom_bond_atom_site_label_1
_geom_bond_atom_site_label_2
_geom_bond_site_symmetry_1
_geom_bond_site_symmetry_2
C1 Cl1 1_555 1_555
Cd1 N3 1_555 1_555
C2 N1 1_555 1_555
N1 N2E 1_555 1_555
N2 C2 1_555 1_555
N3 C3 1_555 1_555
C3 H1 1_555 1_555
C4 C3 1_555 1_555
H2 C4 1_555 1_555
C5 C2 1_555 1_555
C6 C5 1_555 1_555
H3 C6 1_555 1_555
C7 N3 1_555 1_555
H4 C7 1_555 1_555
N4 N5 1_555 1_555
N5 C8 1_555 1_555
C8 N6 1_555 1_555
N6 N7 1_555 1_555
N7 C9 1_555 1_555
C9 N4 1_555 1_555
N8 Cd1 1_555 1_555
C10 N8 1_555 1_555
H5 C10 1_555 1_555
C11 C10 1_555 1_555
H6 C11 1_555 1_555
C12 C8 1_555 1_555
C13 C12 1_555 1_555
H7 C13 1_555 1_555
C14 N8 1_555 1_555
H8 C14 1_555 1_555
N9 Cd1 1_555 1_555
C15 N9 1_555 1_555
H9 C15 1_555 1_555
C16 C15 1_555 1_555
H10 C16 1_555 1_555
C17 C9 1_555 1_555
C18 C17 1_555 1_555
H11 C18 1_555 1_555
C19 N9 1_555 1_555
H12 C19 1_555 1_555
N10 O1 1_555 1_555
O2 Cd1 1_555 1_555
O3 N10 1_555 1_555
N11 O4 1_555 1_555
O4 Cd1 1_555 1_555
O5 N11 1_555 1_555
O6 Cd1 1_555 1_555
N12 O6 1_555 1_555
O7 N12 1_555 1_555
O8 N12 1_555 1_555
C20 O6 1_555 1_555
Cl1B C1 1_555 1_555
N1E N2 1_555 1_555
C17A C16 1_555 1_555
C16A C17 1_555 1_555
C19A C18 1_555 1_555
C18A C19 1_555 1_555
O4B N11 1_555 1_555
O8D N12 1_555 1_555
N12D O8 1_555 1_555
O7D O8 1_555 1_555
Cd1B O4B 1_555 1_555
C4 C5 1_555 1_555
C6 C7 1_555 1_555
C11 C12 1_555 1_555
C13 C14 1_555 1_555
N10 O2 1_555 1_555
O7 O8D 1_555 1_555
C17A C18A 1_555 1_555
O8D N12D 1_555 1_555
N12D O7D 1_555 1_555

#END
