
#######################################################################
#
#                 Cambridge Crystallographic Data Centre
#                                CCDC 
#
#######################################################################
#
# If this CIF has been generated from an entry in the Cambridge 
# Structural Database, then it will include bibliographic, chemical, 
# crystal, experimental, refinement or atomic coordinate data resulting 
# from the CCDC's data processing and validation procedures.
#
#######################################################################

data_MARMID
_symmetry_cell_setting           triclinic
_symmetry_space_group_name_H-M   'P -1'
_symmetry_Int_Tables_number      2
_space_group_name_Hall           '-P 1'
loop_
_symmetry_equiv_pos_site_id
_symmetry_equiv_pos_as_xyz
1 x,y,z
2 -x,-y,-z
_cell_length_a                   9.866(6)
_cell_length_b                   11.392(7)
_cell_length_c                   11.936(7)
_cell_angle_alpha                63.328(8)
_cell_angle_beta                 79.908(8)
_cell_angle_gamma                88.633(8)
_cell_volume                     1177.94
loop_
_atom_site_label
_atom_site_type_symbol
_atom_site_fract_x
_atom_site_fract_y
_atom_site_fract_z
Co1 Co -0.10562(5) 0.91268(5) 0.50824(6)
O1 O 0.0247(3) 0.8690(3) 0.3836(3)
O2 O 0.1933(3) 0.9913(3) 0.3894(3)
O3 O 0.8435(3) 0.0747(3) 0.3536(3)
O4 O 1.0093(3) 0.2073(3) 0.3484(3)
O5 O 0.6794(4) 0.6158(4) -0.0543(3)
O6 O 0.5116(4) 0.7795(4) 0.0186(4)
N1 N -0.2823(4) 0.8051(3) 0.5404(4)
N2 N -0.4492(4) 0.6538(4) 0.6036(4)
C1 C 0.1482(5) 0.9150(4) 0.3533(4)
C2 C 0.2466(4) 0.8775(4) 0.2665(4)
C3 C 0.3868(5) 0.9060(4) 0.2465(5)
H1 H 0.4193 0.9488 0.2879
C4 C 0.4792(5) 0.8725(4) 0.1667(5)
H2 H 0.5733 0.8898 0.1566
C5 C 0.4319(5) 0.8136(4) 0.1022(5)
C6 C 0.2919(5) 0.7849(5) 0.1189(5)
H3 H 0.2592 0.7449 0.0750
C7 C 0.2012(5) 0.8172(5) 0.2029(5)
H4 H 0.1072 0.7970 0.2158
C8 C 0.6569(5) 0.7931(5) 0.0046(5)
H5 H 0.6859 0.7384 0.0849
H6 H 0.6865 0.8839 -0.0225
C9 C 0.9045(5) 0.1871(4) 0.3128(4)
C10 C 0.8461(4) 0.3014(4) 0.2167(4)
C11 C 0.7336(5) 0.2870(5) 0.1680(5)
H7 H 0.6941 0.2029 0.1959
C12 C 0.6781(6) 0.3931(5) 0.0795(5)
H8 H 0.6014 0.3810 0.0494
C13 C 0.7385(5) 0.5183(5) 0.0361(5)
C14 C 0.8494(5) 0.5358(5) 0.0821(5)
H9 H 0.8897 0.6198 0.0526
C15 C 0.9027(5) 0.4272(4) 0.1738(5)
H10 H 0.9771 0.4399 0.2063
C16 C 0.7179(6) 0.7503(5) -0.0946(5)
H11 H 0.6864 0.8046 -0.1737
H12 H 0.8176 0.7625 -0.1105
C17 C -0.4019(5) 0.8652(5) 0.5077(5)
H13 H -0.4099 0.9556 0.4661
C18 C -0.5039(5) 0.7746(5) 0.5446(5)
H14 H -0.5947 0.7895 0.5330
C19 C -0.3150(5) 0.6768(4) 0.5979(5)
C20 C -0.2195(7) 0.5746(5) 0.6523(8)
H15 H -0.1281 0.6144 0.6314
H16 H -0.2203 0.5130 0.6178
H17 H -0.2478 0.5294 0.7433
C21 C -0.5238(6) 0.5252(5) 0.6535(6)
H18 H -0.4747 0.4582 0.7134
H19 H -0.6146 0.5270 0.6995
C22 C -0.5387(13) 0.4898(10) 0.5526(8)
H20 H -0.5570 0.3951 0.5970
H21 H -0.6251 0.5254 0.5282
Co1A Co 0.10562(5) 1.08732(5) 0.49176(6)
Co1_2 Co 0.89438(5) -0.08732(5) 0.50824(6)
Co1A_2 Co 1.10562(5) 0.08732(5) 0.49176(6)
Co1A_3 Co -0.89438(5) 0.08732(5) 0.49176(6)
Co1A_4 Co -0.89438(5) 2.08732(5) 0.49176(6)
Co1_3 Co -1.10562(5) 1.91268(5) 0.50824(6)
O1A O -0.0247(3) 1.1310(3) 0.6164(3)
O2A O -0.1933(3) 1.0087(3) 0.6106(3)
O3A O -0.8435(3) 1.9253(3) 0.6464(3)
O3_2 O -0.1565(3) 1.0747(3) 0.3536(3)
O3A_2 O 0.1565(3) 0.9253(3) 0.6464(3)
O4A O -1.0093(3) 1.7927(3) 0.6516(3)
O4A_2 O -0.0093(3) 0.7927(3) 0.6516(3)
O4_2 O 0.0093(3) 1.2073(3) 0.3484(3)
O5A O -0.6794(4) 1.3842(4) 1.0543(3)
O6A O -0.5116(4) 1.2205(4) 0.9814(4)
N1A N -0.7177(4) 0.1949(3) 0.4596(4)
N1A_2 N 0.2823(4) 1.1949(3) 0.4596(4)
N2A N -0.5508(4) 0.3462(4) 0.3964(4)
C1A C -0.1482(5) 1.0850(4) 0.6467(4)
C2A C -0.2466(4) 1.1225(4) 0.7335(4)
C3A C -0.3868(5) 1.0940(4) 0.7535(5)
H1A H -0.4193 1.0512 0.7121
C4A C -0.4792(5) 1.1275(4) 0.8333(5)
H2A H -0.5733 1.1102 0.8434
C5A C -0.4319(5) 1.1864(4) 0.8978(5)
C6A C -0.2919(5) 1.2151(5) 0.8811(5)
H3A H -0.2592 1.2551 0.9250
C7A C -0.2012(5) 1.1828(5) 0.7971(5)
H4A H -0.1072 1.2030 0.7842
C8A C -0.6569(5) 1.2069(5) 0.9954(5)
H5A H -0.6859 1.2616 0.9151
H6A H -0.6865 1.1161 1.0225
C9A C -0.9045(5) 1.8129(4) 0.6872(4)
C10A C -0.8461(4) 1.6986(4) 0.7833(4)
C11A C -0.7336(5) 1.7130(5) 0.8320(5)
H7A H -0.6941 1.7971 0.8041
C12A C -0.6781(6) 1.6069(5) 0.9205(5)
H8A H -0.6014 1.6190 0.9506
C13A C -0.7385(5) 1.4817(5) 0.9639(5)
C14A C -0.8494(5) 1.4642(5) 0.9179(5)
H9A H -0.8897 1.3802 0.9474
C15A C -0.9027(5) 1.5728(4) 0.8262(5)
H10A H -0.9771 1.5601 0.7937
C16A C -0.7179(6) 1.2497(5) 1.0946(5)
H11A H -0.6864 1.1954 1.1737
H12A H -0.8176 1.2375 1.1105
C17A C -0.5981(5) 0.1348(5) 0.4923(5)
H13A H -0.5901 0.0444 0.5339
C18A C -0.4961(5) 0.2254(5) 0.4554(5)
H14A H -0.4053 0.2105 0.4670
C19A C -0.6850(5) 0.3232(4) 0.4021(5)
C20A C -0.7805(7) 0.4254(5) 0.3477(8)
H15A H -0.8719 0.3856 0.3686
H16A H -0.7797 0.4870 0.3822
H17A H -0.7522 0.4706 0.2567
C21A C -0.4762(6) 0.4748(5) 0.3465(6)
H18A H -0.5253 0.5418 0.2866
H19A H -0.3854 0.4730 0.3005
C22A C -0.4613(13) 0.5102(10) 0.4474(8)
H20A H -0.4430 0.6049 0.4030
H21A H -0.3749 0.4746 0.4718
O7 O 0.162(3) 0.304(4) 0.703(4)
O8 O 0.1690(10) 0.0600(12) 0.8051(11)
loop_
_geom_bond_atom_site_label_1
_geom_bond_atom_site_label_2
_geom_bond_site_symmetry_1
_geom_bond_site_symmetry_2
Co1 O1 1_555 1_555
O1 C1 1_555 1_555
O2 C1 1_555 1_555
O3 C9 1_555 1_555
O4 C9 1_555 1_555
O5 C13 1_555 1_555
O6 C5 1_555 1_555
N1 Co1 1_555 1_555
N2 C18 1_555 1_555
C1 C2 1_555 1_555
C2 C3 1_555 1_555
C3 H1 1_555 1_555
C4 C3 1_555 1_555
H2 C4 1_555 1_555
C5 C4 1_555 1_555
C6 C5 1_555 1_555
H3 C6 1_555 1_555
C7 C2 1_555 1_555
H4 C7 1_555 1_555
C8 O6 1_555 1_555
H5 C8 1_555 1_555
H6 C8 1_555 1_555
C9 C10 1_555 1_555
C10 C11 1_555 1_555
C11 H7 1_555 1_555
C12 C11 1_555 1_555
H8 C12 1_555 1_555
C13 C12 1_555 1_555
C14 C13 1_555 1_555
H9 C14 1_555 1_555
C15 C10 1_555 1_555
H10 C15 1_555 1_555
C16 O5 1_555 1_555
H11 C16 1_555 1_555
H12 C16 1_555 1_555
C17 N1 1_555 1_555
H13 C17 1_555 1_555
C18 C17 1_555 1_555
H14 C18 1_555 1_555
C19 N1 1_555 1_555
C20 C19 1_555 1_555
H15 C20 1_555 1_555
H16 C20 1_555 1_555
H17 C20 1_555 1_555
C21 N2 1_555 1_555
H18 C21 1_555 1_555
H19 C21 1_555 1_555
C22 C21 1_555 1_555
H20 C22 1_555 1_555
H21 C22 1_555 1_555
Co1A O2 1_555 1_555
Co1_2 O3 1_555 1_555
Co1A_2 O4 1_555 1_555
Co1A_3 N1A 1_555 1_555
Co1A_4 O3A 1_555 1_555
Co1_3 O4A 1_555 1_555
O1A Co1A 1_555 1_555
O2A Co1 1_555 1_555
O3A C9A 1_555 1_555
O3_2 Co1 1_555 1_555
O3A_2 Co1A 1_555 1_555
O4A C9A 1_555 1_555
O4A_2 Co1 1_555 1_555
O4_2 Co1A 1_555 1_555
O5A C13A 1_555 1_555
O6A C5A 1_555 1_555
N1A C17A 1_555 1_555
N1A_2 Co1A 1_555 1_555
N2A C18A 1_555 1_555
C1A O1A 1_555 1_555
C2A C1A 1_555 1_555
C3A C2A 1_555 1_555
H1A C3A 1_555 1_555
C4A C3A 1_555 1_555
H2A C4A 1_555 1_555
C5A C4A 1_555 1_555
C6A C5A 1_555 1_555
H3A C6A 1_555 1_555
C7A C2A 1_555 1_555
H4A C7A 1_555 1_555
C8A O6A 1_555 1_555
H5A C8A 1_555 1_555
H6A C8A 1_555 1_555
C9A C10A 1_555 1_555
C10A C11A 1_555 1_555
C11A H7A 1_555 1_555
C12A C11A 1_555 1_555
H8A C12A 1_555 1_555
C13A C12A 1_555 1_555
C14A C13A 1_555 1_555
H9A C14A 1_555 1_555
C15A C10A 1_555 1_555
H10A C15A 1_555 1_555
C16A O5A 1_555 1_555
H11A C16A 1_555 1_555
H12A C16A 1_555 1_555
C17A H13A 1_555 1_555
C18A C17A 1_555 1_555
H14A C18A 1_555 1_555
C19A N1A 1_555 1_555
C20A C19A 1_555 1_555
H15A C20A 1_555 1_555
H16A C20A 1_555 1_555
H17A C20A 1_555 1_555
C21A N2A 1_555 1_555
H18A C21A 1_555 1_555
H19A C21A 1_555 1_555
C22A C22 1_555 1_555
H20A C22A 1_555 1_555
H21A C22A 1_555 1_555
N2 C19 1_555 1_555
C6 C7 1_555 1_555
C8 C16 1_555 1_555
C14 C15 1_555 1_555
O2A C1A 1_555 1_555
N2A C19A 1_555 1_555
C6A C7A 1_555 1_555
C8A C16A 1_555 1_555
C14A C15A 1_555 1_555
C21A C22A 1_555 1_555

#END
