
#######################################################################
#
#                 Cambridge Crystallographic Data Centre
#                                CCDC 
#
#######################################################################
#
# If this CIF has been generated from an entry in the Cambridge 
# Structural Database, then it will include bibliographic, chemical, 
# crystal, experimental, refinement or atomic coordinate data resulting 
# from the CCDC's data processing and validation procedures.
#
#######################################################################

data_MARMOJ
_symmetry_cell_setting           triclinic
_symmetry_space_group_name_H-M   'P -1'
_symmetry_Int_Tables_number      2
_space_group_name_Hall           '-P 1'
loop_
_symmetry_equiv_pos_site_id
_symmetry_equiv_pos_as_xyz
1 x,y,z
2 -x,-y,-z
_cell_length_a                   9.3520(19)
_cell_length_b                   12.509(3)
_cell_length_c                   12.643(3)
_cell_angle_alpha                66.32(3)
_cell_angle_beta                 80.84(3)
_cell_angle_gamma                79.86(3)
_cell_volume                     1326.91
loop_
_atom_site_label
_atom_site_type_symbol
_atom_site_fract_x
_atom_site_fract_y
_atom_site_fract_z
Co1 Co 0.11236(5) 0.38437(4) 0.27204(4)
O1 O 0.2062(3) 0.5074(2) 0.1410(3)
O2 O 0.2099(4) 0.5862(3) 0.2666(3)
O3 O 0.1368(3) 1.2816(2) -0.5570(2)
O4 O 0.3475(3) 1.3041(3) -0.6614(2)
O5 O 0.5567(3) 0.9330(3) -0.1772(3)
N1 N 0.1089(4) 0.2486(3) 0.2205(3)
N2 N -0.1082(3) 0.4359(3) 0.2804(3)
N3 N -0.3281(3) 0.5247(3) 0.3075(3)
C1 C 0.2749(5) 1.2564(3) -0.5673(3)
C2 C 0.3476(4) 1.1693(3) -0.4649(3)
C3 C 0.4980(5) 1.1572(4) -0.4630(4)
H1 H 0.5548 1.2024 -0.5276
C4 C 0.2683(5) 1.0986(4) -0.3697(4)
H2 H 0.1675 1.1060 -0.3688
C5 C 0.3359(5) 1.0158(4) -0.2741(4)
H3 H 0.2810 0.9664 -0.2112
C6 C 0.2421(4) 0.5844(3) 0.1690(3)
C7 C 0.3280(4) 0.6753(3) 0.0770(3)
C8 C 0.3857(5) 0.6629(4) -0.0266(3)
H4 H 0.3722 0.5969 -0.0388
C9 C 0.4624(5) 0.7476(4) -0.1109(4)
H5 H 0.5018 0.7388 -0.1797
C10 C 0.4804(4) 0.8448(4) -0.0926(3)
C11 C 0.4273(5) 0.8572(4) 0.0104(4)
H6 H 0.4423 0.9227 0.0228
C12 C 0.3517(5) 0.7715(3) 0.0950(3)
H7 H 0.3163 0.7790 0.1650
C13 C 0.4823(4) 1.0076(4) -0.2733(4)
C14 C 0.5641(5) 1.0784(4) -0.3658(4)
H8 H 0.6640 1.0737 -0.3637
C15 C 0.1187(4) 0.2415(4) 0.1201(4)
C16 C 0.0795(5) 0.0665(4) 0.2465(4)
H9 H 0.0648 -0.0123 0.2797
C17 C 0.0824(5) 0.1354(4) 0.3013(4)
H10 H 0.0691 0.1131 0.3815
C18 C 0.1141(6) 0.0878(6) 0.0395(5)
H11 H 0.1220 0.1514 -0.0362
H12 H 0.2042 0.0345 0.0456
C19 C -0.0038(5) 0.0252(5) 0.0439(5)
H13 H -0.0937 0.0786 0.0384
H14 H -0.0112 -0.0383 0.1197
N4 N 0.1033(4) 0.1365(3) 0.1260(3)
C20 C 0.1466(6) 0.3422(4) 0.0097(4)
H15 H 0.0639 0.3640 -0.0342
H16 H 0.2316 0.3202 -0.0342
H17 H 0.1623 0.4076 0.0260
C21 C -0.4469(5) 0.6011(4) 0.3395(4)
H18 H -0.4066 0.6619 0.3503
H19 H -0.5081 0.6393 0.2761
C22 C -0.2094(5) 0.3899(4) 0.2486(4)
H20 H -0.1875 0.3303 0.2201
C23 C -0.1850(4) 0.5165(3) 0.3170(3)
C24 C -0.1251(6) 0.5868(6) 0.3666(6)
H21 H -0.0233 0.5600 0.3750
H22 H -0.1765 0.5776 0.4413
H23 H -0.1370 0.6683 0.3157
C25 C -0.5386(6) 0.5388(6) 0.4466(3)
H24 H -0.5945 0.4905 0.4293
H25 H -0.6077 0.5974 0.4660
C26 C -0.3444(5) 0.4429(4) 0.2643(4)
H26 H -0.4311 0.4275 0.2491
Co1_2 Co 0.11236(5) -0.61563(4) 1.27204(4)
Co1_3 Co 0.11236(5) 1.38437(4) -0.72796(4)
Co1A Co -0.11236(5) -0.38437(4) -0.27204(4)
Co1A_2 Co -1.11236(5) 0.61563(4) 0.72796(4)
O1_2 O 0.2062(3) -0.4926(2) 1.1410(3)
O1A O -1.2062(3) 0.4926(2) 0.8590(3)
O2_2 O 0.2099(4) -0.4138(3) 1.2666(3)
O3_2 O 0.1368(3) 0.2816(2) 0.4430(2)
O3A O -1.1368(3) 0.7184(2) 0.5570(2)
O4_2 O 0.3475(3) 0.3041(3) 0.3386(2)
O4A O -1.3475(3) 0.6959(3) 0.6614(2)
O5_2 O 0.5567(3) -0.0670(3) 0.8228(3)
N1A N -0.1089(4) -0.2486(3) -0.2205(3)
N1A_2 N -1.1089(4) 0.7514(3) 0.7795(3)
N2A N -0.8918(3) 0.5641(3) 0.7196(3)
N3A N -0.6719(3) 0.4753(3) 0.6925(3)
C1_2 C 0.2749(5) 0.2564(3) 0.4327(3)
C2_2 C 0.3476(4) 0.1693(3) 0.5351(3)
C3_2 C 0.4980(5) 0.1572(4) 0.5370(4)
H1_2 H 0.5548 0.2024 0.4724
C4_2 C 0.2683(5) 0.0986(4) 0.6303(4)
H2_2 H 0.1675 0.1060 0.6312
C5_2 C 0.3359(5) 0.0158(4) 0.7259(4)
H3_2 H 0.2810 -0.0336 0.7888
C6_2 C 0.2421(4) -0.4156(3) 1.1690(3)
C7_2 C 0.3280(4) -0.3247(3) 1.0770(3)
C8_2 C 0.3857(5) -0.3371(4) 0.9734(3)
H4_2 H 0.3722 -0.4031 0.9612
C9_2 C 0.4624(5) -0.2524(4) 0.8891(4)
H5_2 H 0.5018 -0.2612 0.8203
C10_2 C 0.4804(4) -0.1552(4) 0.9074(3)
C11_2 C 0.4273(5) -0.1428(4) 1.0104(4)
H6_2 H 0.4423 -0.0773 1.0228
C12_2 C 0.3517(5) -0.2285(3) 1.0950(3)
H7_2 H 0.3163 -0.2210 1.1650
C13_2 C 0.4823(4) 0.0076(4) 0.7267(4)
C14_2 C 0.5641(5) 0.0784(4) 0.6342(4)
H8_2 H 0.6640 0.0737 0.6363
C15A C -0.1187(4) -0.2415(4) -0.1201(4)
C16A C -0.0795(5) -0.0665(4) -0.2465(4)
H9A H -0.0648 0.0123 -0.2797
C17A C -0.0824(5) -0.1354(4) -0.3013(4)
H10A H -0.0691 -0.1131 -0.3815
C18A C -0.1141(6) -0.0878(6) -0.0395(5)
H11A H -0.1220 -0.1514 0.0362
H12A H -0.2042 -0.0345 -0.0456
C19A C 0.0038(5) -0.0252(5) -0.0439(5)
H13A H 0.0937 -0.0786 -0.0384
H14A H 0.0112 0.0383 -0.1197
N4A N -0.1033(4) -0.1365(3) -0.1260(3)
C20A C -0.1466(6) -0.3422(4) -0.0097(4)
H15A H -0.0639 -0.3640 0.0342
H16A H -0.2316 -0.3202 0.0342
H17A H -0.1623 -0.4076 -0.0260
C21A C -0.5531(5) 0.3989(4) 0.6605(4)
H18A H -0.5934 0.3381 0.6497
H19A H -0.4919 0.3607 0.7239
C22A C -0.7906(5) 0.6101(4) 0.7514(4)
H20A H -0.8125 0.6697 0.7799
C23A C -0.8150(4) 0.4835(3) 0.6830(3)
C24A C -0.8749(6) 0.4132(6) 0.6334(6)
H21A H -0.9767 0.4400 0.6250
H22A H -0.8235 0.4224 0.5587
H23A H -0.8630 0.3317 0.6843
C25A C -0.4614(6) 0.4612(6) 0.5534(3)
H24A H -0.4055 0.5095 0.5707
H25A H -0.3923 0.4026 0.5340
C26A C -0.6556(5) 0.5571(4) 0.7357(4)
H26A H -0.5689 0.5725 0.7509
O6 O 0.1152(5) 0.7676(3) 0.3696(4)
H27 H 0.1546 0.7098 0.3529
H28 H 0.1307 0.7577 0.4371
loop_
_geom_bond_atom_site_label_1
_geom_bond_atom_site_label_2
_geom_bond_site_symmetry_1
_geom_bond_site_symmetry_2
Co1 O1 1_555 1_555
O1 C6 1_555 1_555
O2 C6 1_555 1_555
O3 C1 1_555 1_555
O4 C1 1_555 1_555
O5 C10 1_555 1_555
N1 Co1 1_555 1_555
N2 Co1 1_555 1_555
N3 C21 1_555 1_555
C1 C2 1_555 1_555
C2 C3 1_555 1_555
C3 H1 1_555 1_555
C4 C2 1_555 1_555
H2 C4 1_555 1_555
C5 C4 1_555 1_555
H3 C5 1_555 1_555
C6 C7 1_555 1_555
C7 C8 1_555 1_555
C8 H4 1_555 1_555
C9 C8 1_555 1_555
H5 C9 1_555 1_555
C10 C9 1_555 1_555
C11 C10 1_555 1_555
H6 C11 1_555 1_555
C12 C7 1_555 1_555
H7 C12 1_555 1_555
C13 O5 1_555 1_555
C14 C3 1_555 1_555
H8 C14 1_555 1_555
C15 N1 1_555 1_555
C16 H9 1_555 1_555
C17 N1 1_555 1_555
H10 C17 1_555 1_555
C18 H11 1_555 1_555
H12 C18 1_555 1_555
C19 C18 1_555 1_555
H13 C19 1_555 1_555
H14 C19 1_555 1_555
N4 C15 1_555 1_555
C20 C15 1_555 1_555
H15 C20 1_555 1_555
H16 C20 1_555 1_555
H17 C20 1_555 1_555
C21 H18 1_555 1_555
H19 C21 1_555 1_555
C22 N2 1_555 1_555
H20 C22 1_555 1_555
C23 N2 1_555 1_555
C24 C23 1_555 1_555
H21 C24 1_555 1_555
H22 C24 1_555 1_555
H23 C24 1_555 1_555
C25 C21 1_555 1_555
H24 C25 1_555 1_555
H25 C25 1_555 1_555
C26 N3 1_555 1_555
H26 C26 1_555 1_555
O6 H27 1_555 1_555
H28 O6 1_555 1_555
Co1_2 O1_2 1_555 1_555
Co1_3 O3 1_555 1_555
Co1A N1A 1_555 1_555
Co1A_2 O1A 1_555 1_555
O1_2 C6_2 1_555 1_555
O2_2 C6_2 1_555 1_555
O3_2 Co1 1_555 1_555
O3A Co1A_2 1_555 1_555
O4_2 Co1 1_555 1_555
O4A Co1A_2 1_555 1_555
O5_2 C10_2 1_555 1_555
N1A C15A 1_555 1_555
N1A_2 Co1A_2 1_555 1_555
N2A Co1A_2 1_555 1_555
N3A C21A 1_555 1_555
C1_2 O3_2 1_555 1_555
C2_2 C1_2 1_555 1_555
C3_2 C2_2 1_555 1_555
H1_2 C3_2 1_555 1_555
C4_2 C2_2 1_555 1_555
H2_2 C4_2 1_555 1_555
C5_2 C4_2 1_555 1_555
H3_2 C5_2 1_555 1_555
C6_2 C7_2 1_555 1_555
C7_2 C8_2 1_555 1_555
C8_2 H4_2 1_555 1_555
C9_2 C8_2 1_555 1_555
H5_2 C9_2 1_555 1_555
C10_2 C9_2 1_555 1_555
C11_2 C10_2 1_555 1_555
H6_2 C11_2 1_555 1_555
C12_2 C7_2 1_555 1_555
H7_2 C12_2 1_555 1_555
C13_2 O5_2 1_555 1_555
C14_2 C3_2 1_555 1_555
H8_2 C14_2 1_555 1_555
C15A N4A 1_555 1_555
C16A H9A 1_555 1_555
C17A N1A 1_555 1_555
H10A C17A 1_555 1_555
C18A H11A 1_555 1_555
H12A C18A 1_555 1_555
C19A C19 1_555 1_555
H13A C19A 1_555 1_555
H14A C19A 1_555 1_555
N4A C16A 1_555 1_555
C20A C15A 1_555 1_555
H15A C20A 1_555 1_555
H16A C20A 1_555 1_555
H17A C20A 1_555 1_555
C21A H18A 1_555 1_555
H19A C21A 1_555 1_555
C22A N2A 1_555 1_555
H20A C22A 1_555 1_555
C23A N2A 1_555 1_555
C24A C23A 1_555 1_555
H21A C24A 1_555 1_555
H22A C24A 1_555 1_555
H23A C24A 1_555 1_555
C25A C25 1_555 1_555
H24A C25A 1_555 1_555
H25A C25A 1_555 1_555
C26A N3A 1_555 1_555
H26A C26A 1_555 1_555
O4 Co1_3 1_555 1_555
N3 C23 1_555 1_555
C5 C13 1_555 1_555
C11 C12 1_555 1_555
C13 C14 1_555 1_555
C16 C17 1_555 1_555
C16 N4 1_555 1_555
C18 N4 1_555 1_555
C22 C26 1_555 1_555
O4_2 C1_2 1_555 1_555
N3A C23A 1_555 1_555
C5_2 C13_2 1_555 1_555
C11_2 C12_2 1_555 1_555
C13_2 C14_2 1_555 1_555
C16A C17A 1_555 1_555
C18A C19A 1_555 1_555
C18A N4A 1_555 1_555
C21A C25A 1_555 1_555
C22A C26A 1_555 1_555

#END
