
#######################################################################
#
#                 Cambridge Crystallographic Data Centre
#                                CCDC 
#
#######################################################################
#
# If this CIF has been generated from an entry in the Cambridge 
# Structural Database, then it will include bibliographic, chemical, 
# crystal, experimental, refinement or atomic coordinate data resulting 
# from the CCDC's data processing and validation procedures.
#
#######################################################################

data_MARMEZ
_symmetry_cell_setting           triclinic
_symmetry_space_group_name_H-M   'P -1'
_symmetry_Int_Tables_number      2
_space_group_name_Hall           '-P 1'
loop_
_symmetry_equiv_pos_site_id
_symmetry_equiv_pos_as_xyz
1 x,y,z
2 -x,-y,-z
_cell_length_a                   8.2543(11)
_cell_length_b                   12.6631(16)
_cell_length_c                   14.1054(18)
_cell_angle_alpha                99.035(2)
_cell_angle_beta                 98.947(2)
_cell_angle_gamma                95.887(2)
_cell_volume                     1426.12
loop_
_atom_site_label
_atom_site_type_symbol
_atom_site_fract_x
_atom_site_fract_y
_atom_site_fract_z
C1 C 0.5028(4) 0.0488(2) 0.5399(3)
H1 H 0.4856 0.0235 0.5994
H2 H 0.6123 0.0896 0.5521
C2 C -0.0442(4) 0.5311(3) 0.0369(3)
H3 H -0.1172 0.5741 0.0036
H4 H -0.1120 0.4801 0.0637
C3 C 0.0735(5) 0.6046(3) 0.1199(3)
H5 H 0.1446 0.6539 0.0934
H6 H 0.0103 0.6471 0.1604
O1 O 0.7346(3) 1.33171(19) 1.19006(18)
C4 C 0.6556(5) 1.2709(3) 1.1122(3)
C5 C 0.7603(4) 1.2135(3) 1.0481(3)
C6 C 0.9301(4) 1.2223(3) 1.0729(2)
H7 H 0.9815 1.2623 1.1331
C7 C 1.0261(4) 1.1738(3) 1.0116(2)
H8 H 1.1404 1.1805 1.0302
C8 C 0.6856(5) 1.1508(3) 0.9597(3)
H9 H 0.5710 1.1415 0.9424
C9 C 0.7787(5) 1.1023(3) 0.8973(3)
H10 H 0.7265 1.0607 0.8380
C10 C 0.9492(4) 1.1146(3) 0.9213(3)
O2 O 1.0286(3) 1.0691(2) 0.85063(19)
C11 C 1.2064(4) 1.0755(3) 0.8708(3)
H11 H 1.2400 1.0279 0.9156
H12 H 1.2558 1.1486 0.8995
C12 C 1.2591(5) 1.0417(3) 0.7745(3)
H13 H 1.3788 1.0476 0.7845
H14 H 1.2248 1.0908 0.7313
C13 C 1.1876(4) 0.9267(3) 0.7253(2)
H15 H 1.2592 0.8759 0.7470
H16 H 1.0790 0.9082 0.7410
Co1 Co 0.59437(4) 0.39951(3) 0.27507(3)
N1 N 0.3814(3) 0.4631(2) 0.24018(17)
O3 O 0.7416(3) 0.49323(17) 0.38681(16)
O4 O 0.7632(3) 0.58423(19) 0.26786(17)
C14 C 0.4984(3) 0.2599(2) 0.4264(2)
O5 O 1.1763(3) 0.92379(18) 0.62286(16)
C15 C 0.7965(4) 0.5756(2) 0.3551(2)
N2 N 0.3968(3) 0.16975(19) 0.4296(2)
N3 N 0.1766(3) 0.5432(2) 0.18054(19)
C16 C 0.9582(4) 0.7600(2) 0.3982(2)
H17 H 0.9331 0.7669 0.3331
C17 C 0.9043(3) 0.6642(2) 0.4269(2)
C18 C 0.9497(4) 0.6540(2) 0.5237(2)
H18 H 0.9172 0.5896 0.5434
N4 N 0.4947(3) 0.27346(19) 0.33473(19)
C19 C 1.0424(4) 0.7380(2) 0.5914(2)
H19 H 1.0729 0.7299 0.6559
C20 C 1.0892(4) 0.8341(2) 0.5623(2)
C21 C 0.3870(4) 0.1887(3) 0.2777(3)
H20 H 0.3598 0.1773 0.2101
C22 C 0.3760(4) 0.1232(3) 0.5158(3)
H21 H 0.2662 0.0832 0.5053
H22 H 0.3845 0.1810 0.5710
C23 C 1.0483(4) 0.8446(2) 0.4649(2)
H23 H 1.0818 0.9089 0.4451
C24 C 0.3364(4) 0.5290(3) 0.1801(2)
C25 C 0.2436(4) 0.4356(3) 0.2802(2)
H24 H 0.2390 0.3904 0.3259
O6 O 0.5040(4) 1.2584(3) 1.0884(2)
C26 C 0.5905(4) 0.3340(3) 0.5145(2)
H25 H 0.6661 0.2960 0.5508
H26 H 0.5140 0.3603 0.5544
H27 H 0.6511 0.3936 0.4954
C27 C 0.1188(4) 0.4837(3) 0.2432(2)
H28 H 0.0124 0.4779 0.2576
C28 C 0.3276(4) 0.1251(3) 0.3357(3)
H29 H 0.2530 0.0624 0.3156
C29 C 0.4431(5) 0.5786(4) 0.1188(3)
H30 H 0.5356 0.5392 0.1132
H31 H 0.4825 0.6522 0.1484
H32 H 0.3802 0.5764 0.0551
C1A C 0.4972(4) -0.0488(2) 0.4601(3)
H1A H 0.5144 -0.0235 0.4006
H2A H 0.3877 -0.0896 0.4479
C2A C 0.0442(4) 0.4689(3) -0.0369(3)
H3A H 0.1172 0.4259 -0.0036
H4A H 0.1120 0.5199 -0.0637
C3A C -0.0735(5) 0.3954(3) -0.1199(3)
H5A H -0.1446 0.3461 -0.0934
H6A H -0.0103 0.3529 -0.1604
O1A O -0.7346(3) -0.33171(19) -1.19006(18)
O1_2 O 0.7346(3) 0.33171(19) 0.19006(18)
O1A_2 O -0.7346(3) 0.66829(19) -0.19006(18)
C4A C -0.6556(5) -0.2709(3) -1.1122(3)
C5A C -0.7603(4) -0.2135(3) -1.0481(3)
C6A C -0.9301(4) -0.2223(3) -1.0729(2)
H7A H -0.9815 -0.2623 -1.1331
C7A C -1.0261(4) -0.1738(3) -1.0116(2)
H8A H -1.1404 -0.1805 -1.0302
C8A C -0.6856(5) -0.1508(3) -0.9597(3)
H9A H -0.5710 -0.1415 -0.9424
C9A C -0.7787(5) -0.1023(3) -0.8973(3)
H10A H -0.7265 -0.0607 -0.8380
C10A C -0.9492(4) -0.1146(3) -0.9213(3)
O2A O -1.0286(3) -0.0691(2) -0.85063(19)
C11A C -1.2064(4) -0.0755(3) -0.8708(3)
H11A H -1.2400 -0.0279 -0.9156
H12A H -1.2558 -0.1486 -0.8995
C12A C -1.2591(5) -0.0417(3) -0.7745(3)
H13A H -1.3788 -0.0476 -0.7845
H14A H -1.2248 -0.0908 -0.7313
C13A C -1.1876(4) 0.0733(3) -0.7253(2)
H15A H -1.2592 0.1241 -0.7470
H16A H -1.0790 0.0918 -0.7410
Co1A Co -0.59437(4) 0.60049(3) -0.27507(3)
Co1_2 Co 0.59437(4) 1.39951(3) 1.27507(3)
Co1A_2 Co -0.59437(4) -0.39951(3) -1.27507(3)
Co1A_3 Co 0.40563(4) -0.39951(3) 0.72493(3)
N1A N -0.3814(3) 0.5369(2) -0.24018(17)
O3A O -0.7416(3) 0.50677(17) -0.38681(16)
O4A O -0.7632(3) 0.41577(19) -0.26786(17)
C14A C 0.5016(3) -0.2599(2) 0.5736(2)
O5A O -1.1763(3) 0.07621(18) -0.62286(16)
C15A C -0.7965(4) 0.4244(2) -0.3551(2)
N2A N 0.6032(3) -0.16975(19) 0.5704(2)
N3A N -0.1766(3) 0.4568(2) -0.18054(19)
C16A C -0.9582(4) 0.2400(2) -0.3982(2)
H17A H -0.9331 0.2331 -0.3331
C17A C -0.9043(3) 0.3358(2) -0.4269(2)
C18A C -0.9497(4) 0.3460(2) -0.5237(2)
H18A H -0.9172 0.4104 -0.5434
N4A N 0.5053(3) -0.27346(19) 0.66527(19)
N4A_2 N -0.4947(3) 0.72654(19) -0.33473(19)
C19A C -1.0424(4) 0.2620(2) -0.5914(2)
H19A H -1.0729 0.2701 -0.6559
C20A C -1.0892(4) 0.1659(2) -0.5623(2)
C21A C 0.6130(4) -0.1887(3) 0.7223(3)
H20A H 0.6402 -0.1773 0.7899
C22A C 0.6240(4) -0.1232(3) 0.4842(3)
H21A H 0.7338 -0.0832 0.4947
H22A H 0.6155 -0.1810 0.4290
C23A C -1.0483(4) 0.1554(2) -0.4649(2)
H23A H -1.0818 0.0911 -0.4451
C24A C -0.3364(4) 0.4710(3) -0.1801(2)
C25A C -0.2436(4) 0.5644(3) -0.2802(2)
H24A H -0.2390 0.6096 -0.3259
O6A O -0.5040(4) -0.2584(3) -1.0884(2)
C26A C 0.4095(4) -0.3340(3) 0.4855(2)
H25A H 0.3339 -0.2960 0.4492
H26A H 0.4860 -0.3603 0.4456
H27A H 0.3489 -0.3936 0.5046
C27A C -0.1188(4) 0.5163(3) -0.2432(2)
H28A H -0.0124 0.5221 -0.2576
C28A C 0.6724(4) -0.1251(3) 0.6643(3)
H29A H 0.7470 -0.0624 0.6844
C29A C -0.4431(5) 0.4214(4) -0.1188(3)
H30A H -0.5356 0.4608 -0.1132
H31A H -0.4825 0.3478 -0.1484
H32A H -0.3802 0.4236 -0.0551
loop_
_geom_bond_atom_site_label_1
_geom_bond_atom_site_label_2
_geom_bond_site_symmetry_1
_geom_bond_site_symmetry_2
C1 H1 1_555 1_555
H2 C1 1_555 1_555
C2 H3 1_555 1_555
H4 C2 1_555 1_555
C3 C2 1_555 1_555
H5 C3 1_555 1_555
H6 C3 1_555 1_555
O1 C4 1_555 1_555
C4 C5 1_555 1_555
C5 C6 1_555 1_555
C6 H7 1_555 1_555
C7 C6 1_555 1_555
H8 C7 1_555 1_555
C8 C5 1_555 1_555
H9 C8 1_555 1_555
C9 C8 1_555 1_555
H10 C9 1_555 1_555
C10 C7 1_555 1_555
O2 C10 1_555 1_555
C11 O2 1_555 1_555
H11 C11 1_555 1_555
H12 C11 1_555 1_555
C12 C11 1_555 1_555
H13 C12 1_555 1_555
H14 C12 1_555 1_555
C13 C12 1_555 1_555
H15 C13 1_555 1_555
H16 C13 1_555 1_555
Co1 N1 1_555 1_555
N1 C24 1_555 1_555
O3 Co1 1_555 1_555
O4 C15 1_555 1_555
C14 N2 1_555 1_555
O5 C13 1_555 1_555
C15 O3 1_555 1_555
N2 C22 1_555 1_555
N3 C3 1_555 1_555
C16 H17 1_555 1_555
C17 C15 1_555 1_555
C18 C17 1_555 1_555
H18 C18 1_555 1_555
N4 Co1 1_555 1_555
C19 C18 1_555 1_555
H19 C19 1_555 1_555
C20 O5 1_555 1_555
C21 N4 1_555 1_555
H20 C21 1_555 1_555
C22 C1 1_555 1_555
H21 C22 1_555 1_555
H22 C22 1_555 1_555
C23 C16 1_555 1_555
H23 C23 1_555 1_555
C24 N3 1_555 1_555
C25 N1 1_555 1_555
H24 C25 1_555 1_555
O6 C4 1_555 1_555
C26 C14 1_555 1_555
H25 C26 1_555 1_555
H26 C26 1_555 1_555
H27 C26 1_555 1_555
C27 N3 1_555 1_555
H28 C27 1_555 1_555
C28 N2 1_555 1_555
H29 C28 1_555 1_555
C29 C24 1_555 1_555
H30 C29 1_555 1_555
H31 C29 1_555 1_555
H32 C29 1_555 1_555
C1A C1 1_555 1_555
H1A C1A 1_555 1_555
H2A C1A 1_555 1_555
C2A C2 1_555 1_555
H3A C2A 1_555 1_555
H4A C2A 1_555 1_555
C3A C2A 1_555 1_555
H5A C3A 1_555 1_555
H6A C3A 1_555 1_555
O1A C4A 1_555 1_555
O1_2 Co1 1_555 1_555
O1A_2 Co1A 1_555 1_555
C4A C5A 1_555 1_555
C5A C6A 1_555 1_555
C6A H7A 1_555 1_555
C7A C6A 1_555 1_555
H8A C7A 1_555 1_555
C8A C5A 1_555 1_555
H9A C8A 1_555 1_555
C9A C8A 1_555 1_555
H10A C9A 1_555 1_555
C10A C7A 1_555 1_555
O2A C10A 1_555 1_555
C11A O2A 1_555 1_555
H11A C11A 1_555 1_555
H12A C11A 1_555 1_555
C12A C11A 1_555 1_555
H13A C12A 1_555 1_555
H14A C12A 1_555 1_555
C13A C12A 1_555 1_555
H15A C13A 1_555 1_555
H16A C13A 1_555 1_555
Co1A N1A 1_555 1_555
Co1_2 O1 1_555 1_555
Co1A_2 O1A 1_555 1_555
Co1A_3 N4A 1_555 1_555
N1A C24A 1_555 1_555
O3A Co1A 1_555 1_555
O4A C15A 1_555 1_555
C14A N2A 1_555 1_555
O5A C13A 1_555 1_555
C15A O3A 1_555 1_555
N2A C22A 1_555 1_555
N3A C3A 1_555 1_555
C16A H17A 1_555 1_555
C17A C15A 1_555 1_555
C18A C17A 1_555 1_555
H18A C18A 1_555 1_555
N4A C14A 1_555 1_555
N4A_2 Co1A 1_555 1_555
C19A C18A 1_555 1_555
H19A C19A 1_555 1_555
C20A O5A 1_555 1_555
C21A N4A 1_555 1_555
H20A C21A 1_555 1_555
C22A C1A 1_555 1_555
H21A C22A 1_555 1_555
H22A C22A 1_555 1_555
C23A C16A 1_555 1_555
H23A C23A 1_555 1_555
C24A N3A 1_555 1_555
C25A N1A 1_555 1_555
H24A C25A 1_555 1_555
O6A C4A 1_555 1_555
C26A C14A 1_555 1_555
H25A C26A 1_555 1_555
H26A C26A 1_555 1_555
H27A C26A 1_555 1_555
C27A N3A 1_555 1_555
H28A C27A 1_555 1_555
C28A N2A 1_555 1_555
H29A C28A 1_555 1_555
C29A C24A 1_555 1_555
H30A C29A 1_555 1_555
H31A C29A 1_555 1_555
H32A C29A 1_555 1_555
C9 C10 1_555 1_555
C14 N4 1_555 1_555
C16 C17 1_555 1_555
C19 C20 1_555 1_555
C20 C23 1_555 1_555
C21 C28 1_555 1_555
C25 C27 1_555 1_555
C9A C10A 1_555 1_555
C16A C17A 1_555 1_555
C19A C20A 1_555 1_555
C20A C23A 1_555 1_555
C21A C28A 1_555 1_555
C25A C27A 1_555 1_555

#END
