
#######################################################################
#
#                 Cambridge Crystallographic Data Centre
#                                CCDC 
#
#######################################################################
#
# If this CIF has been generated from an entry in the Cambridge 
# Structural Database, then it will include bibliographic, chemical, 
# crystal, experimental, refinement or atomic coordinate data resulting 
# from the CCDC's data processing and validation procedures.
#
#######################################################################

data_MARMAV
_symmetry_cell_setting           triclinic
_symmetry_space_group_name_H-M   'P -1'
_symmetry_Int_Tables_number      2
_space_group_name_Hall           '-P 1'
loop_
_symmetry_equiv_pos_site_id
_symmetry_equiv_pos_as_xyz
1 x,y,z
2 -x,-y,-z
_cell_length_a                   10.203(5)
_cell_length_b                   14.382(8)
_cell_length_c                   14.783(8)
_cell_angle_alpha                89.622(7)
_cell_angle_beta                 77.435(7)
_cell_angle_gamma                87.157(7)
_cell_volume                     2114.67
loop_
_atom_site_label
_atom_site_type_symbol
_atom_site_fract_x
_atom_site_fract_y
_atom_site_fract_z
Zn1 Zn 0.26318(11) -0.16306(8) 1.03644(8)
Zn2 Zn 0.21987(11) 0.67176(8) 0.54330(8)
O1 O 0.4785(7) 0.6230(5) 0.5607(6)
O2 O 0.3579(6) 0.7540(4) 0.5665(5)
O3 O 0.9811(7) 0.6273(5) 0.5106(6)
O4 O 1.0616(6) 0.7589(5) 0.5462(5)
O5 O 0.6900(8) 0.9991(5) 0.5070(7)
O6 O 0.0044(7) -0.1198(5) 1.0202(5)
O7 O 0.1150(7) -0.2495(5) 1.0438(5)
O8 O -0.4851(8) -0.1218(5) 1.0392(6)
O9 O -0.5881(7) -0.2533(5) 1.0543(5)
O10 O -0.1884(8) -0.4948(5) 0.9958(6)
N1 N 0.1776(8) 0.5749(5) 0.6395(6)
N2 N 0.0980(9) 0.4525(6) 0.7162(7)
N3 N 0.3589(9) -0.0388(6) 0.7778(6)
N4 N 0.2997(8) -0.1196(6) 0.9049(6)
N5 N 0.2937(8) 0.6308(6) 0.4129(6)
N6 N 0.3964(8) 0.5501(6) 0.2903(6)
N7 N 0.1649(9) 0.0758(6) 0.1948(6)
N8 N 0.2167(8) -0.0623(6) 0.1322(6)
C1 C 0.4710(9) 0.7083(7) 0.5591(7)
C2 C 0.5941(9) 0.7610(7) 0.5483(6)
C3 C 0.7165(9) 0.7153(7) 0.5442(6)
H1 H 0.7199 0.6509 0.5507
C4 C 0.8354(9) 0.7616(6) 0.5308(6)
C5 C 0.8276(10) 0.8586(7) 0.5195(7)
H2 H 0.9054 0.8916 0.5109
C6 C 0.7064(10) 0.9052(7) 0.5208(7)
C7 C 0.5899(9) 0.8567(7) 0.5346(7)
H3 H 0.5082 0.8885 0.5347
C8 C 0.9657(9) 0.7117(7) 0.5300(7)
C9 C 0.8060(12) 1.0523(8) 0.4902(10)
H4 H 0.8372 1.0582 0.5466
H5 H 0.7842 1.1131 0.4687
H6 H 0.8753 1.0218 0.4440
C10 C 0.0094(11) -0.2012(8) 1.0318(7)
C11 C -0.1124(9) -0.2580(7) 1.0301(6)
C12 C -0.2377(9) -0.2126(7) 1.0401(6)
H7 H -0.2453 -0.1484 1.0487
C13 C -0.3511(10) -0.2593(7) 1.0379(6)
C14 C -0.3390(9) -0.3563(6) 1.0233(6)
H8 H -0.4140 -0.3900 1.0220
C15 C -0.2148(10) -0.3993(7) 1.0111(7)
C16 C -0.0977(10) -0.3531(7) 1.0142(7)
H9 H -0.0143 -0.3849 1.0059
C17 C -0.2926(12) -0.5497(8) 0.9815(9)
H10 H -0.3638 -0.5478 1.0360
H11 H -0.2586 -0.6128 0.9689
H12 H -0.3264 -0.5258 0.9297
C18 C -0.4825(11) -0.2053(8) 1.0458(7)
C19 C 0.2556(11) -0.1615(8) 0.8346(8)
H13 H 0.2070 -0.2150 0.8403
C20 C 0.2938(12) -0.1125(8) 0.7561(8)
H14 H 0.2785 -0.1266 0.6980
C21 C 0.3614(10) -0.0440(8) 0.8671(7)
H15 H 0.4005 -0.0014 0.8989
C22 C 0.4075(14) 0.0380(10) 0.7164(10)
H16 H 0.4273 0.0156 0.6529
H17 H 0.4910 0.0572 0.7300
C23 C 0.3106(12) 0.1223(8) 0.7240(7)
C24 C 0.1746(13) 0.1148(8) 0.7451(8)
H18 H 0.1395 0.0566 0.7585
C25 C 0.0891(13) 0.1914(9) 0.7471(8)
H19 H -0.0033 0.1849 0.7623
C26 C 0.1389(10) 0.2779(7) 0.7267(7)
C27 C 0.2770(12) 0.2839(9) 0.7061(8)
H20 H 0.3125 0.3422 0.6941
C28 C 0.3613(14) 0.2098(10) 0.7026(9)
H21 H 0.4537 0.2164 0.6860
C29 C 0.0351(12) 0.3604(8) 0.7352(10)
H22 H -0.0225 0.3513 0.6921
H23 H -0.0210 0.3614 0.7973
C30 C 0.1472(13) 0.5025(9) 0.7772(9)
H24 H 0.1474 0.4880 0.8385
C31 C 0.1967(10) 0.5793(8) 0.7288(8)
H25 H 0.2372 0.6272 0.7526
C32 C 0.1172(11) 0.4962(8) 0.6367(8)
H26 H 0.0913 0.4744 0.5844
C33 C 0.2830(11) 0.6777(8) 0.3330(8)
H27 H 0.2387 0.7356 0.3319
C34 C 0.3441(12) 0.6299(8) 0.2578(8)
H28 H 0.3500 0.6470 0.1963
C35 C 0.3652(11) 0.5528(8) 0.3843(8)
H29 H 0.3901 0.5069 0.4229
C36 C 0.4632(12) 0.4691(8) 0.2364(8)
H30 H 0.5347 0.4443 0.2648
H31 H 0.5041 0.4894 0.1744
C37 C 0.3693(11) 0.3918(7) 0.2293(7)
C38 C 0.2319(13) 0.4039(8) 0.2500(8)
H32 H 0.1930 0.4622 0.2695
C39 C 0.1511(12) 0.3339(8) 0.2430(8)
H33 H 0.0583 0.3447 0.2577
C40 C 0.2060(10) 0.2452(7) 0.2138(7)
C41 C 0.3437(11) 0.2335(8) 0.1916(8)
H34 H 0.3834 0.1753 0.1724
C42 C 0.4238(11) 0.3065(8) 0.1972(8)
H35 H 0.5167 0.2976 0.1788
C43 C 0.1055(12) 0.1713(8) 0.2102(9)
H36 H 0.0388 0.1730 0.2681
H37 H 0.0592 0.1868 0.1609
C44 C 0.2329(13) 0.0277(9) 0.2516(9)
H38 H 0.2533 0.0492 0.3060
C45 C 0.2650(12) -0.0586(8) 0.2121(8)
H39 H 0.3118 -0.1069 0.2355
C46 C 0.1594(10) 0.0210(7) 0.1234(7)
H40 H 0.1207 0.0389 0.0741
Zn1_2 Zn -0.73682(11) -0.16306(8) 1.03644(8)
Zn1_3 Zn 0.26318(11) -0.16306(8) 0.03644(8)
Zn2_2 Zn 1.21987(11) 0.67176(8) 0.54330(8)
O4_2 O 0.0616(6) 0.7589(5) 0.5462(5)
O9_2 O 0.4119(7) -0.2533(5) 1.0543(5)
N8_2 N 0.2167(8) -0.0623(6) 1.1322(6)
loop_
_geom_bond_atom_site_label_1
_geom_bond_atom_site_label_2
_geom_bond_site_symmetry_1
_geom_bond_site_symmetry_2
Zn1 O7 1_555 1_555
Zn2 O2 1_555 1_555
O1 C1 1_555 1_555
O2 C1 1_555 1_555
O3 C8 1_555 1_555
O4 C8 1_555 1_555
O5 C6 1_555 1_555
O6 C10 1_555 1_555
O7 C10 1_555 1_555
O8 C18 1_555 1_555
O9 C18 1_555 1_555
O10 C15 1_555 1_555
N1 Zn2 1_555 1_555
N2 C29 1_555 1_555
N3 C20 1_555 1_555
N4 Zn1 1_555 1_555
N5 Zn2 1_555 1_555
N6 C34 1_555 1_555
N7 C43 1_555 1_555
N8 C45 1_555 1_555
C1 C2 1_555 1_555
C2 C3 1_555 1_555
C3 H1 1_555 1_555
C4 C3 1_555 1_555
C5 C4 1_555 1_555
H2 C5 1_555 1_555
C6 C5 1_555 1_555
C7 C2 1_555 1_555
H3 C7 1_555 1_555
C8 C4 1_555 1_555
C9 O5 1_555 1_555
H4 C9 1_555 1_555
H5 C9 1_555 1_555
H6 C9 1_555 1_555
C10 C11 1_555 1_555
C11 C12 1_555 1_555
C12 H7 1_555 1_555
C13 C12 1_555 1_555
C14 C13 1_555 1_555
H8 C14 1_555 1_555
C15 C14 1_555 1_555
C16 C11 1_555 1_555
H9 C16 1_555 1_555
C17 O10 1_555 1_555
H10 C17 1_555 1_555
H11 C17 1_555 1_555
H12 C17 1_555 1_555
C18 C13 1_555 1_555
C19 N4 1_555 1_555
H13 C19 1_555 1_555
C20 C19 1_555 1_555
H14 C20 1_555 1_555
C21 N3 1_555 1_555
H15 C21 1_555 1_555
C22 N3 1_555 1_555
H16 C22 1_555 1_555
H17 C22 1_555 1_555
C23 C22 1_555 1_555
C24 C23 1_555 1_555
H18 C24 1_555 1_555
C25 C24 1_555 1_555
H19 C25 1_555 1_555
C26 C25 1_555 1_555
C27 C26 1_555 1_555
H20 C27 1_555 1_555
C28 C23 1_555 1_555
H21 C28 1_555 1_555
C29 C26 1_555 1_555
H22 C29 1_555 1_555
H23 C29 1_555 1_555
C30 N2 1_555 1_555
H24 C30 1_555 1_555
C31 N1 1_555 1_555
H25 C31 1_555 1_555
C32 N1 1_555 1_555
H26 C32 1_555 1_555
C33 N5 1_555 1_555
H27 C33 1_555 1_555
C34 C33 1_555 1_555
H28 C34 1_555 1_555
C35 N5 1_555 1_555
H29 C35 1_555 1_555
C36 N6 1_555 1_555
H30 C36 1_555 1_555
H31 C36 1_555 1_555
C37 C36 1_555 1_555
C38 C37 1_555 1_555
H32 C38 1_555 1_555
C39 C38 1_555 1_555
H33 C39 1_555 1_555
C40 C39 1_555 1_555
C41 C40 1_555 1_555
H34 C41 1_555 1_555
C42 C37 1_555 1_555
H35 C42 1_555 1_555
C43 C40 1_555 1_555
H36 C43 1_555 1_555
H37 C43 1_555 1_555
C44 N7 1_555 1_555
H38 C44 1_555 1_555
C45 C44 1_555 1_555
H39 C45 1_555 1_555
C46 N7 1_555 1_555
H40 C46 1_555 1_555
Zn1_2 O9 1_555 1_555
Zn1_3 N8 1_555 1_555
Zn2_2 O4 1_555 1_555
O4_2 Zn2 1_555 1_555
O9_2 Zn1 1_555 1_555
N8_2 Zn1 1_555 1_555
N2 C32 1_555 1_555
N4 C21 1_555 1_555
N6 C35 1_555 1_555
N8 C46 1_555 1_555
C6 C7 1_555 1_555
C15 C16 1_555 1_555
C27 C28 1_555 1_555
C30 C31 1_555 1_555
C41 C42 1_555 1_555

#END
