
#######################################################################
#
#                 Cambridge Crystallographic Data Centre
#                                CCDC 
#
#######################################################################
#
# If this CIF has been generated from an entry in the Cambridge 
# Structural Database, then it will include bibliographic, chemical, 
# crystal, experimental, refinement or atomic coordinate data resulting 
# from the CCDC's data processing and validation procedures.
#
#######################################################################

data_MARNUQ
_symmetry_cell_setting           monoclinic
_symmetry_space_group_name_H-M   'P 21/c'
_symmetry_Int_Tables_number      14
_space_group_name_Hall           '-P 2ybc'
loop_
_symmetry_equiv_pos_site_id
_symmetry_equiv_pos_as_xyz
1 x,y,z
2 -x,1/2+y,1/2-z
3 -x,-y,-z
4 x,1/2-y,1/2+z
_cell_length_a                   10.253(3)
_cell_length_b                   14.323(4)
_cell_length_c                   17.137(4)
_cell_angle_alpha                90
_cell_angle_beta                 124.293(12)
_cell_angle_gamma                90
_cell_volume                     2079.16
loop_
_atom_site_label
_atom_site_type_symbol
_atom_site_fract_x
_atom_site_fract_y
_atom_site_fract_z
Cd1 Cd 1.02754(3) 0.424536(18) 0.21134(2)
Br1 Br 1.07223(5) 0.24973(3) 0.21288(4)
O1 O 0.9257(4) 0.5207(2) 0.0837(2)
O2 O 1.1776(4) 0.5392(2) 0.1787(2)
N1 N 0.7809(4) 0.4383(2) 0.1818(2)
N2 N 0.5563(3) 0.5159(2) 0.1268(2)
N3 N 0.1739(4) 1.0146(2) -0.1427(2)
N4 N 0.3485(4) 0.9226(2) -0.0247(2)
C1 C 0.6764(4) 0.3797(3) 0.1855(3)
C2 C 0.6943(5) 0.2877(3) 0.2165(3)
H1 H 0.7877 0.2551 0.2396
C3 C 0.5687(5) 0.2471(3) 0.2117(3)
H2 H 0.5770 0.1856 0.2313
C4 C 0.4277(5) 0.2965(3) 0.1779(4)
H3 H 0.3454 0.2668 0.1760
C5 C 0.4085(5) 0.3872(3) 0.1475(3)
H4 H 0.3154 0.4198 0.1253
C6 C 0.5346(4) 0.4275(2) 0.1517(3)
C7 C 0.7038(4) 0.5180(3) 0.1466(3)
H5 H 0.7467 0.5700 0.1365
C8 C 0.4394(4) 0.5916(3) 0.0880(3)
H6 H 0.4098 0.6051 0.1315
H7 H 0.3455 0.5714 0.0288
C9 C 0.5016(5) 0.6787(3) 0.0717(3)
H8 H 0.5318 0.6647 0.0285
H9 H 0.5958 0.6984 0.1311
C10 C 0.3838(5) 0.7589(3) 0.0314(3)
H10 H 0.2918 0.7416 -0.0301
H11 H 0.3495 0.7721 0.0727
C11 C 0.4599(5) 0.8453(3) 0.0222(3)
H12 H 0.5460 0.8652 0.0846
H13 H 0.5040 0.8296 -0.0135
C12 C 0.2772(5) 0.9462(3) -0.1163(3)
H14 H 0.2985 0.9174 -0.1566
C13 C 0.1777(5) 1.0368(3) -0.0629(3)
C14 C 0.0935(6) 1.1033(3) -0.0492(3)
H15 H 0.0207 1.1422 -0.0981
C15 C 0.1211(7) 1.1097(3) 0.0389(4)
H16 H 0.0654 1.1531 0.0497
C16 C 0.2319(7) 1.0518(3) 0.1128(4)
H17 H 0.2490 1.0583 0.1718
C17 C 0.3157(6) 0.9862(3) 0.1010(3)
H18 H 0.3883 0.9477 0.1504
C18 C 0.2879(5) 0.9795(3) 0.0122(3)
C19 C 1.0512(4) 0.5604(2) 0.1113(3)
C20 C 1.0381(5) 0.6454(3) 0.0517(3)
H19 H 1.1245 0.6872 0.0903
H20 H 0.9402 0.6773 0.0281
H21 H 1.0414 0.6245 -0.0004
Cd1C Cd 0.02754(3) 1.075464(18) -0.28866(2)
N3C N 1.1739(4) 0.4854(2) 0.3573(2)
loop_
_geom_bond_atom_site_label_1
_geom_bond_atom_site_label_2
_geom_bond_site_symmetry_1
_geom_bond_site_symmetry_2
Cd1 Br1 1_555 1_555
O1 Cd1 1_555 1_555
O2 Cd1 1_555 1_555
N1 Cd1 1_555 1_555
N2 C6 1_555 1_555
N3 C12 1_555 1_555
N4 C11 1_555 1_555
C1 N1 1_555 1_555
C2 C1 1_555 1_555
H1 C2 1_555 1_555
C3 C2 1_555 1_555
H2 C3 1_555 1_555
C4 C3 1_555 1_555
H3 C4 1_555 1_555
C5 C4 1_555 1_555
H4 C5 1_555 1_555
C6 C1 1_555 1_555
C7 N1 1_555 1_555
H5 C7 1_555 1_555
C8 N2 1_555 1_555
H6 C8 1_555 1_555
H7 C8 1_555 1_555
C9 C8 1_555 1_555
H8 C9 1_555 1_555
H9 C9 1_555 1_555
C10 C9 1_555 1_555
H10 C10 1_555 1_555
H11 C10 1_555 1_555
C11 C10 1_555 1_555
H12 C11 1_555 1_555
H13 C11 1_555 1_555
C12 N4 1_555 1_555
H14 C12 1_555 1_555
C13 N3 1_555 1_555
C14 C13 1_555 1_555
H15 C14 1_555 1_555
C15 C14 1_555 1_555
H16 C15 1_555 1_555
C16 C15 1_555 1_555
H17 C16 1_555 1_555
C17 C16 1_555 1_555
H18 C17 1_555 1_555
C18 N4 1_555 1_555
C19 O1 1_555 1_555
C20 C19 1_555 1_555
H19 C20 1_555 1_555
H20 C20 1_555 1_555
H21 C20 1_555 1_555
Cd1C N3 1_555 1_555
N3C Cd1 1_555 1_555
O2 C19 1_555 1_555
N2 C7 1_555 1_555
C5 C6 1_555 1_555
C13 C18 1_555 1_555
C17 C18 1_555 1_555

#END
