
#######################################################################
#
#                 Cambridge Crystallographic Data Centre
#                                CCDC 
#
#######################################################################
#
# If this CIF has been generated from an entry in the Cambridge 
# Structural Database, then it will include bibliographic, chemical, 
# crystal, experimental, refinement or atomic coordinate data resulting 
# from the CCDC's data processing and validation procedures.
#
#######################################################################

data_MARNEA
_symmetry_cell_setting           triclinic
_symmetry_space_group_name_H-M   'P -1'
_symmetry_Int_Tables_number      2
_space_group_name_Hall           '-P 1'
loop_
_symmetry_equiv_pos_site_id
_symmetry_equiv_pos_as_xyz
1 x,y,z
2 -x,-y,-z
_cell_length_a                   7.5364(6)
_cell_length_b                   9.2515(7)
_cell_length_c                   12.6753(9)
_cell_angle_alpha                70.7600(10)
_cell_angle_beta                 73.9090(10)
_cell_angle_gamma                66.4000(10)
_cell_volume                     753.762
loop_
_atom_site_label
_atom_site_type_symbol
_atom_site_fract_x
_atom_site_fract_y
_atom_site_fract_z
Pb1 Pb 0.64644(5) 0.54390(3) 0.59835(3)
Br1 Br 0.24460(16) 1.05071(12) 0.58937(8)
Br2 Br -0.02506(15) 1.34659(11) 0.95581(8)
Br3 Br 0.51257(15) 0.69654(11) 1.00979(9)
O1 O 0.4218(10) 0.6462(8) 0.7598(6)
O2 O 0.6559(10) 0.7574(8) 0.7007(7)
O3 O -0.1740(9) 1.3164(8) 0.7212(6)
O4 O 0.0602(11) 1.4284(8) 0.6552(7)
O5 O 0.4489(10) 0.3644(8) 0.6810(7)
H1 H 0.5511 0.2947 0.6554
H2 H 0.3484 0.3665 0.6618
O6 O 0.7325(14) 0.3163(9) 0.4748(6)
H3 H 0.7270 0.2222 0.5115
H4 H 0.8519 0.3145 0.4609
N1 N 0.2359(13) 1.0097(10) 1.0801(6)
H9 H 0.3078 0.9229 1.1210
H10 H 0.1622 1.0912 1.1085
C1 C 0.4897(14) 0.7541(11) 0.7543(8)
C2 C 0.3570(13) 0.8938(10) 0.8091(7)
C3 C 0.2412(13) 1.0345(10) 0.7438(7)
C4 C 0.1267(13) 1.1691(10) 0.7879(7)
C5 C 0.1284(13) 1.1617(10) 0.8983(7)
C6 C 0.2387(13) 1.0180(10) 0.9691(7)
C7 C 0.3553(13) 0.8895(10) 0.9188(7)
C8 C -0.0056(13) 1.3206(10) 0.7142(7)
Pb1_2 Pb -0.35356(5) 1.54390(3) 0.59835(3)
O3_2 O 0.8260(9) 0.3164(8) 0.7212(6)
O7 O 0.7234(12) 0.0484(9) 0.6573(7)
H5 H 0.6750(13) -0.0192(11) 0.6553(7)
H6 H 0.8415(16) -0.0023(10) 0.6689(7)
O8 O 0.9770(12) 0.2570(10) 0.2601(8)
H7 H 0.8720(15) 0.2505(10) 0.2528(8)
H8 H 1.0756(15) 0.1976(11) 0.2230(8)
loop_
_geom_bond_atom_site_label_1
_geom_bond_atom_site_label_2
_geom_bond_site_symmetry_1
_geom_bond_site_symmetry_2
Pb1 O1 1_555 1_555
Br1 C3 1_555 1_555
Br2 C5 1_555 1_555
Br3 C7 1_555 1_555
O1 C1 1_555 1_555
O2 Pb1 1_555 1_555
O3 C8 1_555 1_555
O4 C8 1_555 1_555
O5 Pb1 1_555 1_555
H1 O5 1_555 1_555
H2 O5 1_555 1_555
O6 Pb1 1_555 1_555
H3 O6 1_555 1_555
H4 O6 1_555 1_555
O7 H5 1_555 1_555
H6 O7 1_555 1_555
O8 H7 1_555 1_555
H8 O8 1_555 1_555
N1 H9 1_555 1_555
H10 N1 1_555 1_555
C1 O2 1_555 1_555
C2 C1 1_555 1_555
C3 C2 1_555 1_555
C4 C3 1_555 1_555
C5 C4 1_555 1_555
C6 N1 1_555 1_555
C7 C2 1_555 1_555
C8 C4 1_555 1_555
Pb1_2 O3 1_555 1_555
O3_2 Pb1 1_555 1_555
C5 C6 1_555 1_555
C6 C7 1_555 1_555

#END
