
#######################################################################
#
#                 Cambridge Crystallographic Data Centre
#                                CCDC 
#
#######################################################################
#
# If this CIF has been generated from an entry in the Cambridge 
# Structural Database, then it will include bibliographic, chemical, 
# crystal, experimental, refinement or atomic coordinate data resulting 
# from the CCDC's data processing and validation procedures.
#
#######################################################################

data_MARNAW
_symmetry_cell_setting           monoclinic
_symmetry_space_group_name_H-M   'P 21/m'
_symmetry_Int_Tables_number      11
_space_group_name_Hall           '-P 2yb'
loop_
_symmetry_equiv_pos_site_id
_symmetry_equiv_pos_as_xyz
1 x,y,z
2 -x,1/2+y,-z
3 -x,-y,-z
4 x,1/2-y,z
_cell_length_a                   9.0731(8)
_cell_length_b                   6.9348(6)
_cell_length_c                   11.9935(11)
_cell_angle_alpha                90
_cell_angle_beta                 95.7160(10)
_cell_angle_gamma                90
_cell_volume                     750.88
loop_
_atom_site_label
_atom_site_type_symbol
_atom_site_fract_x
_atom_site_fract_y
_atom_site_fract_z
Pb1 Pb 0.36382(2) 0.2500 0.52779(2)
Br1 Br 0.92699(8) 0.2500 0.48980(6)
Br2 Br 0.48324(7) 0.2500 0.12520(7)
Br3 Br 1.09122(7) 0.2500 0.04576(6)
O1 O 1.2068(3) 0.4111(4) 0.3284(3)
O2 O 0.5618(3) 0.0924(4) 0.4075(3)
O3 O 0.2413(6) 0.2500 0.7193(5)
H1 H 0.1384 0.2500 0.7160
O4 O 0.5926(5) 0.2500 0.6624(4)
H2 H 0.6366 0.1475 0.6576
N1 N 0.7535(7) 0.2500 -0.0132(5)
H4 H 0.6614 0.2500 -0.0383
H5 H 0.8205 0.2500 -0.0591
C1 C 0.6105(6) 0.2500 0.3751(6)
C2 C 0.7255(6) 0.2500 0.2924(5)
C3 C 0.6870(6) 0.2500 0.1781(6)
C4 C 0.7935(7) 0.2500 0.0998(6)
C5 C 0.9432(6) 0.2500 0.1456(5)
C6 C 0.9851(6) 0.2500 0.2597(6)
C7 C 0.8762(7) 0.2500 0.3323(5)
C8 C 1.1474(7) 0.2500 0.3060(5)
C9 C 0.3225(10) 0.2500 0.8261(7)
H6 H 0.2552 0.2500 0.8830
H7 H 0.3837 0.3630 0.8340
Pb1A Pb 0.63618(2) -0.2500 0.47221(2)
Pb1A_2 Pb 0.63618(2) 0.7500 0.47221(2)
O1C O 1.2068(3) 0.0889(4) 0.3284(3)
O2C O 0.5618(3) 0.4076(4) 0.4075(3)
O2A O 0.4382(3) 0.5924(4) 0.5925(3)
O2B O 0.4382(3) -0.0924(4) 0.5925(3)
H2C H 0.6366 0.3525 0.6576
H7C H 0.3837 0.1370 0.8340
O5 O 0.0511(6) 0.7500 0.2381(5)
H3 H 0.093(7) 0.643(8) 0.270(5)
H3C H 0.093(7) 0.857(8) 0.270(5)
loop_
_geom_bond_atom_site_label_1
_geom_bond_atom_site_label_2
_geom_bond_site_symmetry_1
_geom_bond_site_symmetry_2
Pb1 O2 1_555 1_555
Br1 C7 1_555 1_555
Br2 C3 1_555 1_555
Br3 C5 1_555 1_555
O1 C8 1_555 1_555
O2 C1 1_555 1_555
O3 Pb1 1_555 1_555
H1 O3 1_555 1_555
O4 Pb1 1_555 1_555
H2 O4 1_555 1_555
O5 H3 1_555 1_555
N1 H4 1_555 1_555
H5 N1 1_555 1_555
C1 C2 1_555 1_555
C2 C3 1_555 1_555
C3 C4 1_555 1_555
C4 N1 1_555 1_555
C5 C4 1_555 1_555
C6 C5 1_555 1_555
C7 C2 1_555 1_555
C8 C6 1_555 1_555
C9 O3 1_555 1_555
H6 C9 1_555 1_555
H7 C9 1_555 1_555
Pb1A O2 1_555 1_555
Pb1A_2 O2C 1_555 1_555
O1C C8 1_555 1_555
O2C Pb1 1_555 1_555
O2A Pb1 1_555 1_555
O2B Pb1 1_555 1_555
H2C O4 1_555 1_555
H3C O5 1_555 1_555
H7C C9 1_555 1_555
C1 O2C 1_555 1_555
C6 C7 1_555 1_555
Pb1A O2B 1_555 1_555
Pb1A_2 O2A 1_555 1_555

#END
