
#######################################################################
#
#                 Cambridge Crystallographic Data Centre
#                                CCDC 
#
#######################################################################
#
# If this CIF has been generated from an entry in the Cambridge 
# Structural Database, then it will include bibliographic, chemical, 
# crystal, experimental, refinement or atomic coordinate data resulting 
# from the CCDC's data processing and validation procedures.
#
#######################################################################

data_MARPIE
_symmetry_cell_setting           triclinic
_symmetry_space_group_name_H-M   'P -1'
_symmetry_Int_Tables_number      2
_space_group_name_Hall           '-P 1'
loop_
_symmetry_equiv_pos_site_id
_symmetry_equiv_pos_as_xyz
1 x,y,z
2 -x,-y,-z
_cell_length_a                   7.596(2)
_cell_length_b                   9.862(2)
_cell_length_c                   11.3880(10)
_cell_angle_alpha                108.88(2)
_cell_angle_beta                 97.69(3)
_cell_angle_gamma                92.103(12)
_cell_volume                     797.021
loop_
_atom_site_label
_atom_site_type_symbol
_atom_site_fract_x
_atom_site_fract_y
_atom_site_fract_z
Tl1 Tl 0.24453(5) 0.07958(4) 0.40732(3)
O1 O 0.1256(11) 0.3008(9) 0.2959(7)
H1 H 0.0335(55) 0.2524(9) 0.292(12)
N1 N -0.4323(12) 0.0923(9) 0.3748(8)
N2 N -0.1809(12) 0.1558(9) 0.3276(8)
N3 N -0.2961(12) 0.0920(9) 0.4654(8)
N4 N -0.1463(12) 0.1311(9) 0.4377(8)
C1 C 0.1670(15) -0.0893(12) 0.2341(10)
C2 C 0.2479(15) -0.2170(11) 0.2190(10)
H2 H 0.3271(15) -0.2267(11) 0.2849(10)
C3 C 0.2108(14) -0.3303(12) 0.1056(10)
H3 H 0.2670(14) -0.4146(12) 0.0955(10)
C4 C 0.0902(15) -0.3174(12) 0.0078(10)
H4 H 0.0637(15) -0.3928(12) -0.0680(10)
C5 C 0.0090(15) -0.1885(12) 0.0254(10)
H5 H -0.0725(15) -0.1786(12) -0.0393(10)
C6 C 0.0481(15) -0.0768(12) 0.1365(10)
H6 H -0.0063(15) 0.0083(12) 0.1461(10)
C7 C 0.3031(14) 0.2538(11) 0.5773(10)
C8 C 0.2331(15) 0.2472(12) 0.6843(10)
H7 H 0.1588(15) 0.1681(12) 0.6800(10)
C9 C 0.2775(17) 0.3615(13) 0.7965(11)
H8 H 0.2305(17) 0.3583(13) 0.8669(11)
C10 C 0.3859(16) 0.4757(12) 0.8058(11)
H9 H 0.4160(16) 0.5493(12) 0.8824(11)
C11 C 0.4542(16) 0.4843(13) 0.6990(11)
H10 H 0.5276(16) 0.5644(13) 0.7046(11)
C12 C 0.4120(16) 0.3741(11) 0.5870(10)
H11 H 0.4570(16) 0.3801(11) 0.5166(10)
C13 C -0.3525(14) 0.1328(11) 0.2919(9)
C14 C -0.4467(16) 0.1377(12) 0.1694(9)
H12 H -0.3850(16) 0.2114(12) 0.1470(9)
H13 H -0.5666(16) 0.1649(12) 0.1797(9)
C15 C -0.4574(15) -0.0031(11) 0.0638(9)
H14 H -0.4742(15) 0.0753(11) -0.0840(9)
H15 H -0.6621(15) 0.0333(11) -0.0574(9)
C16 C 0.0991(18) 0.4513(15) 0.3471(13)
H16 H -0.0263(19) 0.4629(17) 0.3430(77)
H17 H 0.150(10) 0.5027(21) 0.2994(54)
H18 H 0.156(10) 0.4885(28) 0.4330(29)
N1_2 N 0.5677(12) 0.0923(9) 0.3748(8)
Tl1_2 Tl -0.75547(5) 0.07958(4) 0.40732(3)
N3A N 0.2961(12) -0.0920(9) 0.5346(8)
C15A C -0.5426(15) 0.0031(11) -0.0638(9)
C14A C -0.5533(16) -0.1377(12) -0.1694(9)
C13A C -0.6475(14) -0.1328(11) -0.2919(9)
N1A N -0.5677(12) -0.0923(9) -0.3748(8)
Tl1A Tl -0.24453(5) -0.07958(4) -0.40732(3)
N3A_2 N -0.7039(12) -0.0920(9) -0.4654(8)
N2A N -0.8191(12) -0.1558(9) -0.3276(8)
N4A N -0.8537(12) -0.1311(9) -0.4377(8)
Tl1A_2 Tl -1.24453(5) -0.07958(4) -0.40732(3)
O1A O -1.1256(11) -0.3008(9) -0.2959(7)
H1A H -1.0335(55) -0.2524(9) -0.292(12)
C16A C -1.0991(18) -0.4513(15) -0.3471(13)
H16A H -0.9737(19) -0.4629(17) -0.3430(77)
H17A H -1.150(10) -0.5027(21) -0.2994(54)
H18A H -1.156(10) -0.4885(28) -0.4330(29)
N1A_2 N -1.5677(12) -0.0923(9) -0.3748(8)
N3_2 N -1.2961(12) 0.0920(9) -0.5346(8)
C1A C -1.1670(15) 0.0893(12) -0.2341(10)
C2A C -1.2479(15) 0.2170(11) -0.2190(10)
H2A H -1.3271(15) 0.2267(11) -0.2849(10)
C3A C -1.2108(14) 0.3303(12) -0.1056(10)
H3A H -1.2670(14) 0.4146(12) -0.0955(10)
C4A C -1.0902(15) 0.3174(12) -0.0078(10)
H4A H -1.0637(15) 0.3928(12) 0.0680(10)
C5A C -1.0090(15) 0.1885(12) -0.0254(10)
H5A H -0.9275(15) 0.1786(12) 0.0393(10)
C6A C -1.0481(15) 0.0768(12) -0.1365(10)
H6A H -0.9937(15) -0.0083(12) -0.1461(10)
C7A C -1.3031(14) -0.2538(11) -0.5773(10)
C8A C -1.2331(15) -0.2472(12) -0.6843(10)
H7A H -1.1588(15) -0.1681(12) -0.6800(10)
C9A C -1.2775(17) -0.3615(13) -0.7965(11)
H8A H -1.2305(17) -0.3583(13) -0.8669(11)
C10A C -1.3859(16) -0.4757(12) -0.8058(11)
H9A H -1.4160(16) -0.5493(12) -0.8824(11)
C11A C -1.4542(16) -0.4843(13) -0.6990(11)
H10A H -1.5276(16) -0.5644(13) -0.7046(11)
C12A C -1.4120(16) -0.3741(11) -0.5870(10)
H11A H -1.4570(16) -0.3801(11) -0.5166(10)
Tl1_3 Tl -0.75547(5) 0.07958(4) -0.59268(3)
H12A H -0.6150(16) -0.2114(12) -0.1470(9)
H13A H -0.4334(16) -0.1649(12) -0.1797(9)
H14A H -0.5258(15) -0.0753(11) 0.0840(9)
H15A H -0.3379(15) -0.0333(11) 0.0574(9)
Tl1A_3 Tl -0.24453(5) -0.07958(4) 0.59268(3)
loop_
_geom_bond_atom_site_label_1
_geom_bond_atom_site_label_2
_geom_bond_site_symmetry_1
_geom_bond_site_symmetry_2
Tl1 O1 1_555 1_555
O1 H1 1_555 1_555
N1 N3 1_555 1_555
N2 N4 1_555 1_555
N3 N4 1_555 1_555
N4 Tl1 1_555 1_555
C1 Tl1 1_555 1_555
C2 C1 1_555 1_555
H2 C2 1_555 1_555
C3 C2 1_555 1_555
H3 C3 1_555 1_555
C4 C3 1_555 1_555
H4 C4 1_555 1_555
C5 C4 1_555 1_555
H5 C5 1_555 1_555
C6 C1 1_555 1_555
H6 C6 1_555 1_555
C7 Tl1 1_555 1_555
C8 C7 1_555 1_555
H7 C8 1_555 1_555
C9 C8 1_555 1_555
H8 C9 1_555 1_555
C10 C9 1_555 1_555
H9 C10 1_555 1_555
C11 C10 1_555 1_555
H10 C11 1_555 1_555
C12 C7 1_555 1_555
H11 C12 1_555 1_555
C13 N1 1_555 1_555
C14 C13 1_555 1_555
H12 C14 1_555 1_555
H13 C14 1_555 1_555
C15 C14 1_555 1_555
H14 C15A 1_555 1_555
H15 C15A 1_555 1_555
C16 O1 1_555 1_555
H16 C16 1_555 1_555
H17 C16 1_555 1_555
H18 C16 1_555 1_555
N1_2 Tl1 1_555 1_555
Tl1_2 N1 1_555 1_555
N3A Tl1 1_555 1_555
C15A C15 1_555 1_555
C14A C15A 1_555 1_555
C13A C14A 1_555 1_555
N1A C13A 1_555 1_555
Tl1A N1A 1_555 1_555
N3A_2 N1A 1_555 1_555
N2A C13A 1_555 1_555
N4A N3A_2 1_555 1_555
Tl1A_2 N4A 1_555 1_555
O1A Tl1A_2 1_555 1_555
H1A O1A 1_555 1_555
C16A O1A 1_555 1_555
H16A C16A 1_555 1_555
H17A C16A 1_555 1_555
H18A C16A 1_555 1_555
N1A_2 Tl1A_2 1_555 1_555
N3_2 Tl1A_2 1_555 1_555
C1A Tl1A_2 1_555 1_555
C2A C1A 1_555 1_555
H2A C2A 1_555 1_555
C3A C2A 1_555 1_555
H3A C3A 1_555 1_555
C4A C3A 1_555 1_555
H4A C4A 1_555 1_555
C5A C4A 1_555 1_555
H5A C5A 1_555 1_555
C6A C1A 1_555 1_555
H6A C6A 1_555 1_555
C7A Tl1A_2 1_555 1_555
C8A C7A 1_555 1_555
H7A C8A 1_555 1_555
C9A C8A 1_555 1_555
H8A C9A 1_555 1_555
C10A C9A 1_555 1_555
H9A C10A 1_555 1_555
C11A C10A 1_555 1_555
H10A C11A 1_555 1_555
C12A C7A 1_555 1_555
H11A C12A 1_555 1_555
Tl1_3 N3A_2 1_555 1_555
H12A C14A 1_555 1_555
H13A C14A 1_555 1_555
H14A C15 1_555 1_555
H15A C15 1_555 1_555
Tl1A_3 N3 1_555 1_555
N2 C13 1_555 1_555
C5 C6 1_555 1_555
C11 C12 1_555 1_555
N2A N4A 1_555 1_555
C5A C6A 1_555 1_555
C11A C12A 1_555 1_555

#END
