
#######################################################################
#
#                 Cambridge Crystallographic Data Centre
#                                CCDC 
#
#######################################################################
#
# If this CIF has been generated from an entry in the Cambridge 
# Structural Database, then it will include bibliographic, chemical, 
# crystal, experimental, refinement or atomic coordinate data resulting 
# from the CCDC's data processing and validation procedures.
#
#######################################################################

data_MARQOL
_symmetry_cell_setting           monoclinic
_symmetry_space_group_name_H-M   'P 21/c'
_symmetry_Int_Tables_number      14
_space_group_name_Hall           '-P 2ybc'
loop_
_symmetry_equiv_pos_site_id
_symmetry_equiv_pos_as_xyz
1 x,y,z
2 x,1/2-y,1/2+z
3 -x,-y,-z
4 -x,1/2+y,1/2-z
_cell_length_a                   11.637(2)
_cell_length_b                   7.9917(10)
_cell_length_c                   12.032(2)
_cell_angle_alpha                90
_cell_angle_beta                 114.249(10)
_cell_angle_gamma                90
_cell_volume                     1020.24
loop_
_atom_site_label
_atom_site_type_symbol
_atom_site_fract_x
_atom_site_fract_y
_atom_site_fract_z
Ag1 Ag 0.46431(3) 0.57092(3) 0.68506(2)
S1 S 0.38280(8) 0.28220(9) 0.68229(7)
S2 S 0.32139(8) 0.71947(10) 0.40083(7)
F1 F 0.1470(3) 0.6892(4) 0.1817(2)
F2 F 0.0929(2) 0.8435(3) 0.2983(2)
F3 F 0.0992(3) 0.5780(3) 0.3193(3)
O1 O 0.3164(3) 0.7400(4) 0.5175(2)
O2 O 0.3673(3) 0.8630(3) 0.3595(2)
O3 O 0.3711(3) 0.5594(3) 0.3859(3)
C1 C 0.2312(3) 0.2882(4) 0.6946(3)
H1 H 0.2207 0.1886 0.7385
H2 H 0.2241 0.3901 0.7382
C2 C 0.1335(4) 0.2894(7) 0.5631(4)
H3 H 0.0502 0.2546 0.5589
H4 H 0.1257 0.4030 0.5279
C3 C 0.1796(4) 0.1667(6) 0.4941(4)
H5 H 0.1717 0.0506 0.5188
H6 H 0.1284 0.1773 0.4053
C4 C 0.3158(3) 0.2059(4) 0.5233(3)
H7 H 0.3222 0.2928 0.4675
H8 H 0.3607 0.1043 0.5156
C5 C 0.1570(4) 0.7078(5) 0.2954(3)
Ag1C Ag 0.53569(3) 0.07092(3) 0.81494(2)
Ag1B Ag 0.53569(3) 0.42908(3) 0.31494(2)
Ag1A Ag 0.46431(3) 0.92908(3) 0.18506(2)
O2A O 0.3673(3) 0.6370(3) 0.8595(2)
O3B O 0.6289(3) 0.4406(3) 0.6141(3)
S1C S 0.61720(8) 0.78220(9) 0.81771(7)
loop_
_geom_bond_atom_site_label_1
_geom_bond_atom_site_label_2
_geom_bond_site_symmetry_1
_geom_bond_site_symmetry_2
Ag1 S1 1_555 1_555
S1 C1 1_555 1_555
S2 O1 1_555 1_555
F1 C5 1_555 1_555
F2 C5 1_555 1_555
F3 C5 1_555 1_555
O1 Ag1 1_555 1_555
O2 S2 1_555 1_555
O3 S2 1_555 1_555
C1 H1 1_555 1_555
H2 C1 1_555 1_555
C2 C1 1_555 1_555
H3 C2 1_555 1_555
H4 C2 1_555 1_555
C3 C2 1_555 1_555
H5 C3 1_555 1_555
H6 C3 1_555 1_555
C4 S1 1_555 1_555
H7 C4 1_555 1_555
H8 C4 1_555 1_555
C5 S2 1_555 1_555
Ag1C S1 1_555 1_555
Ag1B O3 1_555 1_555
Ag1A O2 1_555 1_555
O2A Ag1 1_555 1_555
O3B Ag1 1_555 1_555
S1C Ag1 1_555 1_555
C3 C4 1_555 1_555

#END
