
#######################################################################
#
#                 Cambridge Crystallographic Data Centre
#                                CCDC 
#
#######################################################################
#
# If this CIF has been generated from an entry in the Cambridge 
# Structural Database, then it will include bibliographic, chemical, 
# crystal, experimental, refinement or atomic coordinate data resulting 
# from the CCDC's data processing and validation procedures.
#
#######################################################################

data_MARXIN
_symmetry_cell_setting           triclinic
_symmetry_space_group_name_H-M   'P -1'
_symmetry_Int_Tables_number      2
_space_group_name_Hall           '-P 1'
loop_
_symmetry_equiv_pos_site_id
_symmetry_equiv_pos_as_xyz
1 x,y,z
2 -x,-y,-z
_cell_length_a                   6.0029(8)
_cell_length_b                   9.3849(12)
_cell_length_c                   13.4770(18)
_cell_angle_alpha                89.299(10)
_cell_angle_beta                 79.890(10)
_cell_angle_gamma                77.089(10)
_cell_volume                     728.274
loop_
_atom_site_label
_atom_site_type_symbol
_atom_site_fract_x
_atom_site_fract_y
_atom_site_fract_z
Ag1 Ag 0.71885(6) -0.49428(4) 0.43314(2)
F1 F 0.4463(4) -0.8237(3) 0.2450(2)
F2 F 0.0743(4) -0.7356(3) 0.28935(19)
F3 F 0.2473(4) -0.7134(2) 0.09664(17)
F4 F 0.4962(4) -0.5895(3) 0.13093(17)
F5 F 0.1315(4) -0.4304(3) 0.06419(16)
F6 F -0.1083(4) -0.5101(3) 0.17798(19)
N1 N 0.1986(5) -0.2429(3) 0.2198(2)
O1 O 0.5158(5) -0.5725(3) 0.3340(2)
O2 O 0.2055(5) -0.6207(3) 0.4380(2)
O3 O -0.0166(5) -0.3729(3) 0.3227(2)
C1 C 0.3369(7) -0.6210(4) 0.3567(3)
C2 C 0.2809(7) -0.6978(4) 0.2657(3)
C3 C 0.2832(7) -0.6178(4) 0.1648(3)
C4 C 0.1027(7) -0.4749(4) 0.1598(3)
C5 C 0.0977(7) -0.3548(4) 0.2400(3)
C6 C 0.1532(7) -0.1247(4) 0.3002(3)
H1 H 0.2334 -0.0497 0.2710
C7 C 0.2601(8) -0.1791(5) 0.3923(3)
H2 H 0.1732 -0.2433 0.4289
H3 H 0.2563 -0.0972 0.4350
H4 H 0.4182 -0.2310 0.3708
C8 C -0.1023(8) -0.0502(5) 0.3268(4)
H5 H -0.1610 -0.0199 0.2663
H6 H -0.1205 0.0337 0.3700
H7 H -0.1869 -0.1173 0.3611
C9 C 0.3555(7) -0.2238(4) 0.1241(3)
H8 H 0.3974 -0.3166 0.0855
C10 C 0.5797(7) -0.1884(5) 0.1457(3)
H9 H 0.5491 -0.0882 0.1683
H10 H 0.6947 -0.2039 0.0852
H11 H 0.6359 -0.2510 0.1970
C11 C 0.2302(8) -0.1079(5) 0.0613(3)
H12 H 0.0954 -0.1362 0.0463
H13 H 0.3323 -0.0979 -0.0005
H14 H 0.1836 -0.0162 0.0983
Ag1A Ag 0.28115(6) -0.50572(4) 0.56686(2)
Ag1_2 Ag -0.28115(6) -0.49428(4) 0.43314(2)
O2A O 0.7945(5) -0.3793(3) 0.5620(2)
O3_2 O 0.9834(5) -0.3729(3) 0.3227(2)
loop_
_geom_bond_atom_site_label_1
_geom_bond_atom_site_label_2
_geom_bond_site_symmetry_1
_geom_bond_site_symmetry_2
Ag1 O1 1_555 1_555
F1 C2 1_555 1_555
F2 C2 1_555 1_555
F3 C3 1_555 1_555
F4 C3 1_555 1_555
F5 C4 1_555 1_555
F6 C4 1_555 1_555
N1 C5 1_555 1_555
O1 C1 1_555 1_555
O2 C1 1_555 1_555
O3 C5 1_555 1_555
C1 C2 1_555 1_555
C2 C3 1_555 1_555
C3 C4 1_555 1_555
C4 C5 1_555 1_555
C6 N1 1_555 1_555
H1 C6 1_555 1_555
C7 C6 1_555 1_555
H2 C7 1_555 1_555
H3 C7 1_555 1_555
H4 C7 1_555 1_555
C8 C6 1_555 1_555
H5 C8 1_555 1_555
H6 C8 1_555 1_555
H7 C8 1_555 1_555
C9 N1 1_555 1_555
H8 C9 1_555 1_555
C10 C9 1_555 1_555
H9 C10 1_555 1_555
H10 C10 1_555 1_555
H11 C10 1_555 1_555
C11 C9 1_555 1_555
H12 C11 1_555 1_555
H13 C11 1_555 1_555
H14 C11 1_555 1_555
Ag1A Ag1 1_555 1_555
Ag1_2 O3 1_555 1_555
O2A Ag1 1_555 1_555
O3_2 Ag1 1_555 1_555
O2 Ag1A 1_555 1_555

#END
