
#######################################################################
#
#                 Cambridge Crystallographic Data Centre
#                                CCDC 
#
#######################################################################
#
# If this CIF has been generated from an entry in the Cambridge 
# Structural Database, then it will include bibliographic, chemical, 
# crystal, experimental, refinement or atomic coordinate data resulting 
# from the CCDC's data processing and validation procedures.
#
#######################################################################

data_MARXAF
_symmetry_cell_setting           monoclinic
_symmetry_space_group_name_H-M   'P 21/c'
_symmetry_Int_Tables_number      14
_space_group_name_Hall           '-P 2ybc'
loop_
_symmetry_equiv_pos_site_id
_symmetry_equiv_pos_as_xyz
1 x,y,z
2 -x,1/2+y,1/2-z
3 -x,-y,-z
4 x,1/2-y,1/2+z
_cell_length_a                   11.9243(14)
_cell_length_b                   17.5007(15)
_cell_length_c                   9.9726(10)
_cell_angle_alpha                90
_cell_angle_beta                 92.595(9)
_cell_angle_gamma                90
_cell_volume                     2078.98
loop_
_atom_site_label
_atom_site_type_symbol
_atom_site_fract_x
_atom_site_fract_y
_atom_site_fract_z
Ag1 Ag -0.43491(3) -0.430050(14) 0.53566(3)
Si1 Si -0.14683(9) -0.37951(5) 0.40881(12)
F1 F -0.47315(17) -0.38104(10) 0.0649(2)
F2 F -0.60395(18) -0.46628(10) 0.0186(2)
F3 F -0.75729(16) -0.38368(10) 0.1369(2)
F4 F -0.67109(18) -0.32561(10) -0.0218(2)
F5 F -0.65992(17) -0.30373(11) 0.3249(2)
F6 F -0.72565(18) -0.23070(10) 0.1620(2)
O1 O -0.4821(2) -0.40898(12) 0.3247(3)
O2 O -0.5843(2) -0.51332(12) 0.2682(3)
O3 O -0.5071(2) -0.20764(12) 0.0814(2)
O4 O -0.2174(2) -0.41814(12) 0.5291(3)
O5 O -0.1035(2) -0.44332(14) 0.3039(3)
O6 O -0.0351(2) -0.34260(14) 0.4803(3)
N1 N -0.4697(3) -0.23076(15) 0.3044(4)
C1 C -0.5421(3) -0.44958(17) 0.2478(4)
C2 C -0.5687(3) -0.41333(16) 0.1101(4)
C3 C -0.6593(3) -0.35090(18) 0.1058(4)
C4 C -0.6410(3) -0.28003(18) 0.1983(4)
C5 C -0.5297(3) -0.23602(17) 0.1916(4)
C6 C -0.3620(3) -0.19096(18) 0.3184(4)
H1 H -0.3348 -0.1802 0.2302
H2 H -0.3719 -0.1427 0.3642
C7 C -0.2761(3) -0.23935(18) 0.3976(4)
H3 H -0.2104 -0.2085 0.4201
H4 H -0.3078 -0.2556 0.4808
C8 C -0.2402(3) -0.31037(18) 0.3189(4)
H5 H -0.3076 -0.3373 0.2878
H6 H -0.2029 -0.2931 0.2400
C9 C -0.1623(3) -0.47732(19) 0.6126(4)
H7 H -0.2119 -0.5210 0.6181
H8 H -0.0945 -0.4940 0.5710
C10 C -0.1331(4) -0.4488(2) 0.7501(5)
H9 H -0.2005 -0.4342 0.7928
H10 H -0.0956 -0.4884 0.8014
H11 H -0.0845 -0.4053 0.7448
C11 C -0.1760(4) -0.4868(2) 0.2129(5)
H12 H -0.2350 -0.4539 0.1758
H13 H -0.1330 -0.5053 0.1392
C12 C -0.2276(5) -0.5533(2) 0.2813(6)
H14 H -0.2732 -0.5350 0.3515
H15 H -0.2734 -0.5817 0.2173
H16 H -0.1694 -0.5857 0.3191
C13 C 0.0519(4) -0.2299(3) 0.3937(7)
H17 H 0.0372 -0.2060 0.4778
H18 H 0.1215 -0.2109 0.3619
H19 H -0.0079 -0.2183 0.3293
C14 C 0.0597(4) -0.3135(2) 0.4123(5)
H20 H 0.1282 -0.3257 0.4640
H21 H 0.0632 -0.3380 0.3253
H22 H -0.492(3) -0.249(2) 0.374(4)
Ag1B Ag -0.56509(3) -0.569950(14) 0.46434(3)
Ag1C Ag -0.43491(3) -0.069950(14) 0.03566(3)
O2B O -0.4157(2) -0.48668(12) 0.7318(3)
O3C O -0.5071(2) -0.29236(12) 0.5814(2)
loop_
_geom_bond_atom_site_label_1
_geom_bond_atom_site_label_2
_geom_bond_site_symmetry_1
_geom_bond_site_symmetry_2
Ag1 O1 1_555 1_555
Si1 O4 1_555 1_555
F1 C2 1_555 1_555
F2 C2 1_555 1_555
F3 C3 1_555 1_555
F4 C3 1_555 1_555
F5 C4 1_555 1_555
F6 C4 1_555 1_555
O1 C1 1_555 1_555
O2 C1 1_555 1_555
O3 C5 1_555 1_555
O4 Ag1 1_555 1_555
O5 Si1 1_555 1_555
O6 Si1 1_555 1_555
N1 C5 1_555 1_555
C1 C2 1_555 1_555
C2 C3 1_555 1_555
C3 C4 1_555 1_555
C4 C5 1_555 1_555
C6 N1 1_555 1_555
H1 C6 1_555 1_555
H2 C6 1_555 1_555
C7 C6 1_555 1_555
H3 C7 1_555 1_555
H4 C7 1_555 1_555
C8 Si1 1_555 1_555
H5 C8 1_555 1_555
H6 C8 1_555 1_555
C9 O4 1_555 1_555
H7 C9 1_555 1_555
H8 C9 1_555 1_555
C10 C9 1_555 1_555
H9 C10 1_555 1_555
H10 C10 1_555 1_555
H11 C10 1_555 1_555
C11 O5 1_555 1_555
H12 C11 1_555 1_555
H13 C11 1_555 1_555
C12 C11 1_555 1_555
H14 C12 1_555 1_555
H15 C12 1_555 1_555
H16 C12 1_555 1_555
C13 H17 1_555 1_555
H18 C13 1_555 1_555
H19 C13 1_555 1_555
C14 O6 1_555 1_555
H20 C14 1_555 1_555
H21 C14 1_555 1_555
H22 N1 1_555 1_555
Ag1B Ag1 1_555 1_555
Ag1C O3 1_555 1_555
O2B Ag1 1_555 1_555
O3C Ag1 1_555 1_555
O2 Ag1B 1_555 1_555
C7 C8 1_555 1_555
C13 C14 1_555 1_555

#END
