
#######################################################################
#
#                 Cambridge Crystallographic Data Centre
#                                CCDC 
#
#######################################################################
#
# If this CIF has been generated from an entry in the Cambridge 
# Structural Database, then it will include bibliographic, chemical, 
# crystal, experimental, refinement or atomic coordinate data resulting 
# from the CCDC's data processing and validation procedures.
#
#######################################################################

data_MASCUF
_symmetry_cell_setting           triclinic
_symmetry_space_group_name_H-M   'P -1'
_symmetry_Int_Tables_number      2
_space_group_name_Hall           '-P 1'
loop_
_symmetry_equiv_pos_site_id
_symmetry_equiv_pos_as_xyz
1 x,y,z
2 -x,-y,-z
_cell_length_a                   8.542
_cell_length_b                   9.24300(10)
_cell_length_c                   10.1091(2)
_cell_angle_alpha                70.035(10)
_cell_angle_beta                 67.654(12)
_cell_angle_gamma                79.818(14)
_cell_volume                     692.835
loop_
_atom_site_label
_atom_site_type_symbol
_atom_site_fract_x
_atom_site_fract_y
_atom_site_fract_z
Cd1 Cd 0.17644(3) 0.08426(3) 0.04828(3)
O1 O 0.2739(4) -0.1234(4) 0.2183(3)
O2 O 0.3287(4) -0.0481(4) -0.1207(3)
O3 O 0.1735(4) 0.0864(4) 0.2873(3)
O4 O 0.0901(4) 0.0165(3) -0.1660(3)
O5 O 0.4346(4) 0.2075(4) -0.0193(4)
H1 H 0.5138 0.1713 -0.0815
N1 N -0.0363(4) 0.4830(4) -0.2238(4)
N2 N 0.0929(4) 0.3113(4) -0.0823(4)
C1 C 0.1696(6) 0.4483(5) -0.1358(5)
H2 H 0.2636 0.4659 -0.1159
C2 C 0.2487(4) -0.0508(4) -0.4436(4)
H3 H 0.1634 0.0305 -0.4424
C3 C 0.2468(5) -0.0443(4) 0.3068(4)
C4 C -0.0384(6) 0.5740(5) -0.4816(5)
H4 H -0.1112 0.6267 -0.5423
H5 H 0.0541 0.6424 -0.5113
C5 C 0.3107(5) -0.1068(4) -0.3262(4)
C6 C 0.0881(6) 0.5548(5) -0.2224(5)
H6 H 0.1137 0.6599 -0.2726
C7 C 0.2378(5) -0.0417(4) -0.1955(4)
C8 C -0.0311(5) 0.3366(4) -0.1383(5)
H7 H -0.1055 0.2612 -0.1200
C9 C -0.1436(6) 0.5517(5) -0.3165(5)
H8 H -0.1944 0.6525 -0.3020
H9 H -0.2367 0.4836 -0.2853
C10 C 0.4355(5) -0.2256(5) -0.3290(5)
H10 H 0.4815 -0.2621 -0.2507
C11 C 0.3090(5) -0.1113(4) 0.4372(4)
C12 C 0.4934(5) -0.2910(5) -0.4435(5)
H11 H 0.5768 -0.3739 -0.4426
C13 C 0.4302(5) -0.2363(5) 0.4392(5)
H12 H 0.4684 -0.2829 0.3610
H13 H 0.474(6) 0.179(5) 0.031(6)
Cd1A Cd -0.17644(3) -0.08426(3) -0.04828(3)
Cd1A_2 Cd -0.17644(3) 0.91574(3) -1.04828(3)
Cd1A_3 Cd -0.17644(3) -0.08426(3) 0.95172(3)
Cd1_2 Cd 0.17644(3) 0.08426(3) -0.95172(3)
Cd1_3 Cd 0.17644(3) 0.08426(3) 1.04828(3)
O1_2 O 0.2739(4) -0.1234(4) -0.7817(3)
O2_2 O 0.3287(4) -0.0481(4) -1.1207(3)
O2_3 O 0.3287(4) -0.0481(4) 0.8793(3)
O3_2 O 0.1735(4) 0.0864(4) -0.7127(3)
O4A O -0.0901(4) -0.0165(3) 0.1660(3)
O4_2 O 0.0901(4) 0.0165(3) 0.8340(3)
O4A_2 O -0.0901(4) -0.0165(3) -0.8340(3)
O5_2 O 0.4346(4) 0.2075(4) -1.0193(4)
H1_2 H 0.5138 0.1713 -1.0815
N1A N 0.0363(4) 0.5170(4) -0.7762(4)
N2A N -0.0929(4) 0.6887(4) -0.9177(4)
N2_2 N 0.0929(4) 0.3113(4) -1.0823(4)
C1A C -0.1696(6) 0.5517(5) -0.8642(5)
H2A H -0.2636 0.5341 -0.8841
C2_2 C 0.2487(4) -0.0508(4) 0.5564(4)
H3_2 H 0.1634 0.0305 0.5576
C3_2 C 0.2468(5) -0.0443(4) -0.6932(4)
C4A C 0.0384(6) 0.4260(5) -0.5184(5)
H4A H 0.1112 0.3733 -0.4577
H5A H -0.0541 0.3576 -0.4887
C5_2 C 0.3107(5) -0.1068(4) 0.6738(4)
C6A C -0.0881(6) 0.4452(5) -0.7776(5)
H6A H -0.1137 0.3401 -0.7274
C7_2 C 0.2378(5) -0.0417(4) 0.8045(4)
C8A C 0.0311(5) 0.6634(4) -0.8617(5)
H7A H 0.1055 0.7388 -0.8800
C9A C 0.1436(6) 0.4483(5) -0.6835(5)
H8A H 0.1944 0.3475 -0.6980
H9A H 0.2367 0.5164 -0.7147
C10_2 C 0.4355(5) -0.2256(5) 0.6710(5)
H10_2 H 0.4815 -0.2621 0.7493
C11_2 C 0.3090(5) -0.1113(4) -0.5628(4)
C12_2 C 0.4934(5) -0.2910(5) 0.5565(5)
H11_2 H 0.5768 -0.3739 0.5574
C13_2 C 0.4302(5) -0.2363(5) -0.5608(5)
H12_2 H 0.4684 -0.2829 -0.6390
H13_2 H 0.474(6) 0.179(5) -0.969(6)
loop_
_geom_bond_atom_site_label_1
_geom_bond_atom_site_label_2
_geom_bond_site_symmetry_1
_geom_bond_site_symmetry_2
Cd1 O1 1_555 1_555
O1 C3 1_555 1_555
O2 Cd1 1_555 1_555
O3 Cd1 1_555 1_555
O4 C7 1_555 1_555
O5 Cd1 1_555 1_555
H1 O5 1_555 1_555
N1 C6 1_555 1_555
N2 Cd1 1_555 1_555
C1 N2 1_555 1_555
H2 C1 1_555 1_555
C2 H3 1_555 1_555
C3 O3 1_555 1_555
C4 H4 1_555 1_555
H5 C4 1_555 1_555
C5 C2 1_555 1_555
C6 C1 1_555 1_555
H6 C6 1_555 1_555
C7 O2 1_555 1_555
C8 N1 1_555 1_555
H7 C8 1_555 1_555
C9 N1 1_555 1_555
H8 C9 1_555 1_555
H9 C9 1_555 1_555
C10 C5 1_555 1_555
H10 C10 1_555 1_555
C11 C3 1_555 1_555
C12 C10 1_555 1_555
H11 C12 1_555 1_555
C13 C11 1_555 1_555
H12 C13 1_555 1_555
H13 O5 1_555 1_555
Cd1A O4 1_555 1_555
Cd1A_2 N2A 1_555 1_555
Cd1A_3 O4_2 1_555 1_555
Cd1_2 O1_2 1_555 1_555
Cd1_3 O2_3 1_555 1_555
O1_2 C3_2 1_555 1_555
O2_2 Cd1_2 1_555 1_555
O2_3 C7_2 1_555 1_555
O3_2 Cd1_2 1_555 1_555
O4A Cd1 1_555 1_555
O4_2 C7_2 1_555 1_555
O4A_2 Cd1_2 1_555 1_555
O5_2 Cd1_2 1_555 1_555
H1_2 O5_2 1_555 1_555
N1A C6A 1_555 1_555
N2A C1A 1_555 1_555
N2_2 Cd1_2 1_555 1_555
C1A H2A 1_555 1_555
C2_2 C11 1_555 1_555
H3_2 C2_2 1_555 1_555
C3_2 O3_2 1_555 1_555
C4A C4 1_555 1_555
H4A C4A 1_555 1_555
H5A C4A 1_555 1_555
C5_2 C2_2 1_555 1_555
C6A C1A 1_555 1_555
H6A C6A 1_555 1_555
C7_2 C5_2 1_555 1_555
C8A N1A 1_555 1_555
H7A C8A 1_555 1_555
C9A N1A 1_555 1_555
H8A C9A 1_555 1_555
H9A C9A 1_555 1_555
C10_2 C5_2 1_555 1_555
H10_2 C10_2 1_555 1_555
C11_2 C2 1_555 1_555
C12_2 C13 1_555 1_555
H11_2 C12_2 1_555 1_555
C13_2 C12 1_555 1_555
H12_2 C13_2 1_555 1_555
H13_2 O5_2 1_555 1_555
N2 C8 1_555 1_555
C4 C9 1_555 1_555
C5 C7 1_555 1_555
N2A C8A 1_555 1_555
C3_2 C11_2 1_555 1_555
C4A C9A 1_555 1_555
C10_2 C12_2 1_555 1_555
C11_2 C13_2 1_555 1_555

#END
