
#######################################################################
#
#                 Cambridge Crystallographic Data Centre
#                                CCDC 
#
#######################################################################
#
# If this CIF has been generated from an entry in the Cambridge 
# Structural Database, then it will include bibliographic, chemical, 
# crystal, experimental, refinement or atomic coordinate data resulting 
# from the CCDC's data processing and validation procedures.
#
#######################################################################

data_MASCOZ
_symmetry_cell_setting           orthorhombic
_symmetry_space_group_name_H-M   'P n n 2'
_symmetry_Int_Tables_number      34
_space_group_name_Hall           'P 2 -2n'
loop_
_symmetry_equiv_pos_site_id
_symmetry_equiv_pos_as_xyz
1 x,y,z
2 -x,-y,z
3 1/2+x,1/2-y,1/2+z
4 1/2-x,1/2+y,1/2+z
_cell_length_a                   36.81(3)
_cell_length_b                   10.419(9)
_cell_length_c                   11.955(10)
_cell_angle_alpha                90
_cell_angle_beta                 90
_cell_angle_gamma                90
_cell_volume                     4585.02
loop_
_atom_site_label
_atom_site_type_symbol
_atom_site_fract_x
_atom_site_fract_y
_atom_site_fract_z
Zn1 Zn 0.310201(17) 1.05664(5) -0.82347(6)
O1 O 0.36500(11) 0.9303(3) -0.8275(4)
O3 O 0.30746(10) 0.8433(3) -0.8264(5)
O4 O 0.29464(12) 0.3500(4) -0.8574(5)
O5 O 0.34348(11) 0.2189(3) -0.8151(4)
N1 N 0.31336(16) 1.0428(5) -0.6266(5)
N2 N 0.30621(14) 1.0639(5) -0.0109(4)
N3 N 0.25013(14) 1.0734(5) -0.7862(4)
N4 N 0.06721(17) 1.0802(6) -0.5252(6)
C1 C 0.35939(17) 0.6956(6) -0.7961(5)
C2 C 0.33738(15) 0.5804(5) -0.8171(6)
H1 H 0.3138 0.5894 -0.8436
C3 C 0.35163(17) 0.4542(5) -0.7976(5)
C4 C 0.38812(18) 0.4403(6) -0.7466(5)
H2 H 0.3972 0.3592 -0.7305
C5 C 0.40953(19) 0.5534(6) -0.7220(5)
H3 H 0.4326 0.5449 -0.6912
C6 C 0.39520(18) 0.6780(6) -0.7451(6)
H4 H 0.4090 0.7499 -0.7272
C7 C 0.34305(16) 0.8304(5) -0.8181(6)
C8 C 0.32793(15) 0.3347(5) -0.8248(6)
C9 C 0.28988(19) 0.9621(6) -0.5664(5)
H5 H 0.2759 0.9036 -0.6063
C10 C 0.28628(19) 0.9645(6) -0.4489(5)
H6 H 0.2697 0.9111 -0.4130
C11 C 0.30914(19) 1.0527(6) -0.3847(6)
C12 C 0.33375(19) 1.1333(6) -0.4454(5)
H7 H 0.3489 1.1900 -0.4074
C13 C 0.33490(18) 1.1260(6) -0.5676(5)
H8 H 0.3507 1.1794 -0.6064
C14 C 0.3383(2) 1.0812(6) -0.0703(5)
H9 H 0.3596 1.0956 -0.0302
C15 C 0.34035(18) 1.0781(6) -0.1901(5)
H10 H 0.3627 1.0884 -0.2254
C16 C 0.30770(19) 1.0591(5) -0.2569(6)
C17 C 0.27366(19) 1.0439(6) -0.1933(6)
H11 H 0.2518 1.0306 -0.2308
C18 C 0.27423(19) 1.0497(6) -0.0739(5)
H12 H 0.2523 1.0438 -0.0358
C19 C 0.23764(18) 1.1773(6) -0.7259(6)
H13 H 0.2526 1.2489 -0.7201
C20 C 0.20293(18) 1.1810(6) -0.6716(5)
H14 H 0.1961 1.2526 -0.6303
C21 C 0.17860(17) 1.0720(6) -0.6819(5)
C22 C 0.19149(18) 0.9624(6) -0.7439(6)
H15 H 0.1769 0.8898 -0.7505
C23 C 0.22737(18) 0.9647(6) -0.7965(5)
H16 H 0.2353 0.8939 -0.8371
C24 C 0.0849(2) 1.1927(7) -0.5591(6)
H17 H 0.0732 1.2708 -0.5476
C25 C 0.12063(19) 1.1934(6) -0.6115(5)
H18 H 0.1308 1.2700 -0.6363
C26 C 0.14012(18) 1.0739(6) -0.6243(5)
C27 C 0.12286(19) 0.9574(6) -0.5881(6)
H19 H 0.1344 0.8787 -0.5977
C28 C 0.0869(2) 0.9641(7) -0.5358(6)
H20 H 0.0766 0.8890 -0.5085
Zn1_2 Zn 0.310201(17) 2.05664(5) -0.82347(6)
Zn1_3 Zn 0.310201(17) 0.05664(5) -0.82347(6)
Zn1_4 Zn 0.310201(17) 1.05664(5) 0.17653(6)
Zn1_5 Zn 0.310201(17) 1.05664(5) -1.82347(6)
O1_2 O 0.36500(11) 1.9303(3) -0.8275(4)
O3_2 O 0.30746(10) 1.8433(3) -0.8264(5)
O4_2 O 0.29464(12) 1.3500(4) -0.8574(5)
O5_2 O 0.34348(11) 1.2189(3) -0.8151(4)
O5_3 O 0.34348(11) 2.2189(3) -0.8151(4)
N1_2 N 0.31336(16) 1.0428(5) -1.6266(5)
N1_3 N 0.31336(16) 2.0428(5) -0.6266(5)
N2_2 N 0.30621(14) 1.0639(5) -1.0109(4)
N2_3 N 0.30621(14) 2.0639(5) -1.0109(4)
N3_2 N 0.25013(14) 2.0734(5) -0.7862(4)
N4_2 N 0.06721(17) 2.0802(6) -0.5252(6)
C1_2 C 0.35939(17) 1.6956(6) -0.7961(5)
C2_2 C 0.33738(15) 1.5804(5) -0.8171(6)
H1_2 H 0.3138 1.5894 -0.8436
C3_2 C 0.35163(17) 1.4542(5) -0.7976(5)
C4_2 C 0.38812(18) 1.4403(6) -0.7466(5)
H2_2 H 0.3972 1.3592 -0.7305
C5_2 C 0.40953(19) 1.5534(6) -0.7220(5)
H3_2 H 0.4326 1.5449 -0.6912
C6_2 C 0.39520(18) 1.6780(6) -0.7451(6)
H4_2 H 0.4090 1.7499 -0.7272
C7_2 C 0.34305(16) 1.8304(5) -0.8181(6)
C8_2 C 0.32793(15) 1.3347(5) -0.8248(6)
C9_2 C 0.28988(19) 0.9621(6) -1.5664(5)
H5_2 H 0.2759 0.9036 -1.6063
C10_2 C 0.28628(19) 0.9645(6) -1.4489(5)
H6_2 H 0.2697 0.9111 -1.4130
C11_2 C 0.30914(19) 1.0527(6) -1.3847(6)
C12_2 C 0.33375(19) 1.1333(6) -1.4454(5)
H7_2 H 0.3489 1.1900 -1.4074
C13_2 C 0.33490(18) 1.1260(6) -1.5676(5)
H8_2 H 0.3507 1.1794 -1.6064
C14_2 C 0.3383(2) 1.0812(6) -1.0703(5)
H9_2 H 0.3596 1.0956 -1.0302
C15_2 C 0.34035(18) 1.0781(6) -1.1901(5)
H10_2 H 0.3627 1.0884 -1.2254
C16_2 C 0.30770(19) 1.0591(5) -1.2569(6)
C17_2 C 0.27366(19) 1.0439(6) -1.1933(6)
H11_2 H 0.2518 1.0306 -1.2308
C18_2 C 0.27423(19) 1.0497(6) -1.0739(5)
H12_2 H 0.2523 1.0438 -1.0358
C19_2 C 0.23764(18) 2.1773(6) -0.7259(6)
H13_2 H 0.2526 2.2489 -0.7201
C20_2 C 0.20293(18) 2.1810(6) -0.6716(5)
H14_2 H 0.1961 2.2526 -0.6303
C21_2 C 0.17860(17) 2.0720(6) -0.6819(5)
C22_2 C 0.19149(18) 1.9624(6) -0.7439(6)
H15_2 H 0.1769 1.8898 -0.7505
C23_2 C 0.22737(18) 1.9647(6) -0.7965(5)
H16_2 H 0.2353 1.8939 -0.8371
C24_2 C 0.0849(2) 2.1927(7) -0.5591(6)
H17_2 H 0.0732 2.2708 -0.5476
C25_2 C 0.12063(19) 2.1934(6) -0.6115(5)
H18_2 H 0.1308 2.2700 -0.6363
C26_2 C 0.14012(18) 2.0739(6) -0.6243(5)
C27_2 C 0.12286(19) 1.9574(6) -0.5881(6)
H19_2 H 0.1344 1.8787 -0.5977
C28_2 C 0.0869(2) 1.9641(7) -0.5358(6)
H20_2 H 0.0766 1.8890 -0.5085
Zn2 Zn 0.037207(17) -0.34322(5) 0.16214(6)
O6 O 0.09433(12) -0.2160(3) 0.1463(4)
O7 O 0.03657(11) -0.1345(3) 0.1511(5)
O8 O 0.02117(10) 0.3621(3) 0.1738(4)
O9 O 0.07178(10) 0.4918(3) 0.1555(4)
N5 N 0.03329(16) -0.3516(5) -0.0273(5)
N6 N 0.03679(15) -0.3450(5) -0.6485(5)
C29 C 0.00400(19) -0.3061(7) -0.0907(5)
H21 H -0.0164 -0.2769 -0.0524
C30 C 0.0033(2) -0.3015(7) -0.2094(5)
H22 H -0.0169 -0.2671 -0.2454
C31 C 0.03376(19) -0.3502(6) -0.2762(5)
C32 C 0.06440(18) -0.3999(6) -0.2126(5)
H23 H 0.0848 -0.4314 -0.2491
C33 C 0.06261(19) -0.3995(6) -0.0909(5)
H24 H 0.0823 -0.4335 -0.0521
C34 C 0.01364(18) -0.2629(6) -0.5901(5)
H25 H -0.0011 -0.2075 -0.6308
C35 C 0.01146(18) -0.2598(6) -0.4709(5)
H26 H -0.0041 -0.2026 -0.4353
C36 C 0.03397(19) -0.3476(6) -0.4054(6)
C37 C 0.05769(18) -0.4339(6) -0.4669(5)
H27 H 0.0726 -0.4911 -0.4286
C38 C 0.0581(2) -0.4305(6) -0.5869(6)
H28 H 0.0731 -0.4874 -0.6251
C39 C 0.08690(18) 0.0183(5) 0.1165(5)
C40 C 0.06454(16) 0.1299(5) 0.1391(5)
H29 H 0.0409 0.1196 0.1649
C41 C 0.07938(17) 0.2593(5) 0.1211(5)
C42 C 0.11571(18) 0.2755(5) 0.0767(5)
H30 H 0.1249 0.3576 0.0652
C43 C 0.13788(18) 0.1642(5) 0.0501(5)
H31 H 0.1611 0.1750 0.0208
C44 C 0.12363(18) 0.0354(6) 0.0693(5)
H32 H 0.1377 -0.0359 0.0518
C45 C 0.07221(18) -0.1198(5) 0.1387(5)
C46 C 0.05520(15) 0.3789(5) 0.1524(5)
Zn2A Zn -0.037207(17) 0.34322(5) 0.16214(6)
Zn2_2 Zn 0.037207(17) 0.65678(5) 0.16214(6)
Zn2_3 Zn 0.037207(17) -0.34322(5) -0.83786(6)
Zn2A_2 Zn -0.037207(17) -0.65678(5) 0.16214(6)
Zn2_4 Zn 0.037207(17) -0.34322(5) 1.16214(6)
O6A O -0.09433(12) 0.2160(3) 0.1463(4)
O7A O -0.03657(11) 0.1345(3) 0.1511(5)
O8A O -0.02117(10) -0.3621(3) 0.1738(4)
O9A O -0.07178(10) -0.4918(3) 0.1555(4)
O9_2 O 0.07178(10) -0.5082(3) 0.1555(4)
O9A_2 O -0.07178(10) 0.5082(3) 0.1555(4)
N5_2 N 0.03329(16) -0.3516(5) 0.9727(5)
N5A N -0.03329(16) 0.3516(5) -0.0273(5)
N6_2 N 0.03679(15) -0.3450(5) 0.3515(5)
N6A N -0.03679(15) 0.3450(5) 0.3515(5)
C29_2 C 0.00400(19) -0.3061(7) 0.9093(5)
H21_2 H -0.0164 -0.2769 0.9476
C30_2 C 0.0033(2) -0.3015(7) 0.7906(5)
H22_2 H -0.0169 -0.2671 0.7546
C31_2 C 0.03376(19) -0.3502(6) 0.7238(5)
C32_2 C 0.06440(18) -0.3999(6) 0.7874(5)
H23_2 H 0.0848 -0.4314 0.7509
C33_2 C 0.06261(19) -0.3995(6) 0.9091(5)
H24_2 H 0.0823 -0.4335 0.9479
C34_2 C 0.01364(18) -0.2629(6) 0.4099(5)
H25_2 H -0.0011 -0.2075 0.3692
C35_2 C 0.01146(18) -0.2598(6) 0.5291(5)
H26_2 H -0.0041 -0.2026 0.5647
C36_2 C 0.03397(19) -0.3476(6) 0.5946(6)
C37_2 C 0.05769(18) -0.4339(6) 0.5331(5)
H27_2 H 0.0726 -0.4911 0.5714
C38_2 C 0.0581(2) -0.4305(6) 0.4131(6)
H28_2 H 0.0731 -0.4874 0.3749
C39A C -0.08690(18) -0.0183(5) 0.1165(5)
C40A C -0.06454(16) -0.1299(5) 0.1391(5)
H29A H -0.0409 -0.1196 0.1649
C41A C -0.07938(17) -0.2593(5) 0.1211(5)
C42A C -0.11571(18) -0.2755(5) 0.0767(5)
H30A H -0.1249 -0.3576 0.0652
C43A C -0.13788(18) -0.1642(5) 0.0501(5)
H31A H -0.1611 -0.1750 0.0208
C44A C -0.12363(18) -0.0354(6) 0.0693(5)
H32A H -0.1377 0.0359 0.0518
C45A C -0.07221(18) 0.1198(5) 0.1387(5)
C46A C -0.05520(15) -0.3789(5) 0.1524(5)
O2 O 0.0000 0.0000 -0.0446(11)
loop_
_geom_bond_atom_site_label_1
_geom_bond_atom_site_label_2
_geom_bond_site_symmetry_1
_geom_bond_site_symmetry_2
Zn1 O1 1_555 1_555
Zn2 O6 1_555 1_555
O1 C7 1_555 1_555
O3 Zn1 1_555 1_555
O4 C8 1_555 1_555
O5 C8 1_555 1_555
O6 C45 1_555 1_555
O7 Zn2 1_555 1_555
O8 C46 1_555 1_555
O9 C46 1_555 1_555
N1 Zn1 1_555 1_555
N2 C14 1_555 1_555
N3 Zn1 1_555 1_555
N4 C24 1_555 1_555
N5 Zn2 1_555 1_555
N6 C34 1_555 1_555
C1 C2 1_555 1_555
C2 H1 1_555 1_555
C3 C2 1_555 1_555
C4 C3 1_555 1_555
H2 C4 1_555 1_555
C5 C4 1_555 1_555
H3 C5 1_555 1_555
C6 C1 1_555 1_555
H4 C6 1_555 1_555
C7 O3 1_555 1_555
C8 C3 1_555 1_555
C9 N1 1_555 1_555
H5 C9 1_555 1_555
C10 C9 1_555 1_555
H6 C10 1_555 1_555
C11 C10 1_555 1_555
C12 C11 1_555 1_555
H7 C12 1_555 1_555
C13 N1 1_555 1_555
H8 C13 1_555 1_555
C14 H9 1_555 1_555
C15 C14 1_555 1_555
H10 C15 1_555 1_555
C16 C11 1_555 1_555
C17 C16 1_555 1_555
H11 C17 1_555 1_555
C18 N2 1_555 1_555
H12 C18 1_555 1_555
C19 N3 1_555 1_555
H13 C19 1_555 1_555
C20 C19 1_555 1_555
H14 C20 1_555 1_555
C21 C20 1_555 1_555
C22 C21 1_555 1_555
H15 C22 1_555 1_555
C23 N3 1_555 1_555
H16 C23 1_555 1_555
C24 H17 1_555 1_555
C25 C24 1_555 1_555
H18 C25 1_555 1_555
C26 C21 1_555 1_555
C27 C26 1_555 1_555
H19 C27 1_555 1_555
C28 N4 1_555 1_555
H20 C28 1_555 1_555
C29 N5 1_555 1_555
H21 C29 1_555 1_555
C30 C29 1_555 1_555
H22 C30 1_555 1_555
C31 C30 1_555 1_555
C32 C31 1_555 1_555
H23 C32 1_555 1_555
C33 N5 1_555 1_555
H24 C33 1_555 1_555
C34 H25 1_555 1_555
C35 C34 1_555 1_555
H26 C35 1_555 1_555
C36 C31 1_555 1_555
C37 C36 1_555 1_555
H27 C37 1_555 1_555
C38 N6 1_555 1_555
H28 C38 1_555 1_555
C39 C40 1_555 1_555
C40 H29 1_555 1_555
C41 C40 1_555 1_555
C42 C41 1_555 1_555
H30 C42 1_555 1_555
C43 C42 1_555 1_555
H31 C43 1_555 1_555
C44 C39 1_555 1_555
H32 C44 1_555 1_555
C45 O7 1_555 1_555
C46 C41 1_555 1_555
Zn1_2 O1_2 1_555 1_555
Zn1_3 O5 1_555 1_555
Zn1_4 N2 1_555 1_555
Zn1_5 N1_2 1_555 1_555
Zn2A O8 1_555 1_555
Zn2_2 O9 1_555 1_555
Zn2_3 N6 1_555 1_555
Zn2A_2 O9A 1_555 1_555
Zn2_4 N5_2 1_555 1_555
O1_2 C7_2 1_555 1_555
O3_2 Zn1_2 1_555 1_555
O4_2 C8_2 1_555 1_555
O5_2 Zn1 1_555 1_555
O5_3 Zn1_2 1_555 1_555
O6A Zn2A 1_555 1_555
O7A Zn2A 1_555 1_555
O8A Zn2 1_555 1_555
O9A C46A 1_555 1_555
O9_2 Zn2 1_555 1_555
O9A_2 Zn2A 1_555 1_555
N1_2 C9_2 1_555 1_555
N1_3 Zn1_2 1_555 1_555
N2_2 Zn1 1_555 1_555
N2_3 Zn1_2 1_555 1_555
N3_2 Zn1_2 1_555 1_555
N4_2 C24_2 1_555 1_555
N5_2 C29_2 1_555 1_555
N5A Zn2A 1_555 1_555
N6_2 Zn2 1_555 1_555
N6A Zn2A 1_555 1_555
C1_2 C2_2 1_555 1_555
C2_2 H1_2 1_555 1_555
C3_2 C2_2 1_555 1_555
C4_2 C3_2 1_555 1_555
H2_2 C4_2 1_555 1_555
C5_2 C4_2 1_555 1_555
H3_2 C5_2 1_555 1_555
C6_2 C1_2 1_555 1_555
H4_2 C6_2 1_555 1_555
C7_2 O3_2 1_555 1_555
C8_2 O5_2 1_555 1_555
C9_2 H5_2 1_555 1_555
C10_2 C9_2 1_555 1_555
H6_2 C10_2 1_555 1_555
C11_2 C10_2 1_555 1_555
C12_2 C11_2 1_555 1_555
H7_2 C12_2 1_555 1_555
C13_2 N1_2 1_555 1_555
H8_2 C13_2 1_555 1_555
C14_2 N2_2 1_555 1_555
H9_2 C14_2 1_555 1_555
C15_2 C14_2 1_555 1_555
H10_2 C15_2 1_555 1_555
C16_2 C11_2 1_555 1_555
C17_2 C16_2 1_555 1_555
H11_2 C17_2 1_555 1_555
C18_2 N2_2 1_555 1_555
H12_2 C18_2 1_555 1_555
C19_2 N3_2 1_555 1_555
H13_2 C19_2 1_555 1_555
C20_2 C19_2 1_555 1_555
H14_2 C20_2 1_555 1_555
C21_2 C20_2 1_555 1_555
C22_2 C21_2 1_555 1_555
H15_2 C22_2 1_555 1_555
C23_2 N3_2 1_555 1_555
H16_2 C23_2 1_555 1_555
C24_2 H17_2 1_555 1_555
C25_2 C24_2 1_555 1_555
H18_2 C25_2 1_555 1_555
C26_2 C21_2 1_555 1_555
C27_2 C26_2 1_555 1_555
H19_2 C27_2 1_555 1_555
C28_2 N4_2 1_555 1_555
H20_2 C28_2 1_555 1_555
C29_2 H21_2 1_555 1_555
C30_2 C29_2 1_555 1_555
H22_2 C30_2 1_555 1_555
C31_2 C30_2 1_555 1_555
C32_2 C31_2 1_555 1_555
H23_2 C32_2 1_555 1_555
C33_2 N5_2 1_555 1_555
H24_2 C33_2 1_555 1_555
C34_2 N6_2 1_555 1_555
H25_2 C34_2 1_555 1_555
C35_2 C34_2 1_555 1_555
H26_2 C35_2 1_555 1_555
C36_2 C31_2 1_555 1_555
C37_2 C36_2 1_555 1_555
H27_2 C37_2 1_555 1_555
C38_2 N6_2 1_555 1_555
H28_2 C38_2 1_555 1_555
C39A C40A 1_555 1_555
C40A H29A 1_555 1_555
C41A C40A 1_555 1_555
C42A C41A 1_555 1_555
H30A C42A 1_555 1_555
C43A C42A 1_555 1_555
H31A C43A 1_555 1_555
C44A C39A 1_555 1_555
H32A C44A 1_555 1_555
C45A O6A 1_555 1_555
C46A O8A 1_555 1_555
C1 C7 1_555 1_555
C5 C6 1_555 1_555
C12 C13 1_555 1_555
C15 C16 1_555 1_555
C17 C18 1_555 1_555
C22 C23 1_555 1_555
C25 C26 1_555 1_555
C27 C28 1_555 1_555
C32 C33 1_555 1_555
C35 C36 1_555 1_555
C37 C38 1_555 1_555
C39 C45 1_555 1_555
C43 C44 1_555 1_555
O7A C45A 1_555 1_555
C1_2 C7_2 1_555 1_555
C3_2 C8_2 1_555 1_555
C5_2 C6_2 1_555 1_555
C12_2 C13_2 1_555 1_555
C15_2 C16_2 1_555 1_555
C17_2 C18_2 1_555 1_555
C22_2 C23_2 1_555 1_555
C25_2 C26_2 1_555 1_555
C27_2 C28_2 1_555 1_555
C32_2 C33_2 1_555 1_555
C35_2 C36_2 1_555 1_555
C37_2 C38_2 1_555 1_555
C39A C45A 1_555 1_555
C41A C46A 1_555 1_555
C43A C44A 1_555 1_555

#END
