
#######################################################################
#
#                 Cambridge Crystallographic Data Centre
#                                CCDC 
#
#######################################################################
#
# If this CIF has been generated from an entry in the Cambridge 
# Structural Database, then it will include bibliographic, chemical, 
# crystal, experimental, refinement or atomic coordinate data resulting 
# from the CCDC's data processing and validation procedures.
#
#######################################################################

data_MASCAK
_symmetry_cell_setting           monoclinic
_symmetry_space_group_name_H-M   'P 21'
_symmetry_Int_Tables_number      4
_space_group_name_Hall           'P 2yb'
loop_
_symmetry_equiv_pos_site_id
_symmetry_equiv_pos_as_xyz
1 x,y,z
2 -x,1/2+y,-z
_cell_length_a                   11.360(6)
_cell_length_b                   8.9614(17)
_cell_length_c                   11.405(9)
_cell_angle_alpha                90
_cell_angle_beta                 97.22(9)
_cell_angle_gamma                90
_cell_volume                     1151.84
loop_
_atom_site_label
_atom_site_type_symbol
_atom_site_fract_x
_atom_site_fract_y
_atom_site_fract_z
U1 U -0.785686(10) -0.30058(7) -0.782082(10)
Mn1 Mn -0.27449(10) -0.04719(11) -0.72769(11)
O1 O -0.6577(3) -0.0787(5) -0.7635(4)
O2 O -0.5787(3) -0.3548(5) -0.7524(4)
O3 O -0.4720(3) 0.0091(5) -0.7468(4)
O4 O -0.3913(3) -0.2695(5) -0.7423(4)
O5 O -0.9017(3) -0.0770(5) -0.7707(4)
O6 O -0.9689(4) -0.3440(5) -0.7051(4)
O7 O -1.0776(3) 0.0184(5) -0.7383(4)
O8 O -1.1535(3) -0.2592(5) -0.6980(4)
O9 O -0.7686(4) -0.5174(4) -0.6552(3)
O10 O -0.7402(4) -0.2411(5) -0.5778(3)
O11 O -0.7379(4) -0.6038(5) -0.4691(3)
O12 O -0.7220(4) -0.3235(4) -0.3901(4)
O13 O -0.7131(4) -0.3277(4) -1.1540(3)
O14 O -0.7403(4) -0.6094(5) -1.0789(3)
O15 O -0.7345(4) -0.2433(5) -0.9726(3)
O16 O -0.7616(4) -0.5195(5) -0.8987(3)
O17 O -0.9639(4) -0.3209(6) -0.9401(4)
C1 C -0.5468(4) -0.0923(6) -0.7519(4)
C2 C -0.4990(4) -0.2530(6) -0.7481(4)
C3 C -1.0486(5) -0.2426(7) -0.7125(4)
C4 C -1.0063(4) -0.0854(6) -0.7434(5)
C5 C -0.7477(4) -0.5024(6) -0.5436(4)
C6 C -0.7365(5) -0.3416(6) -0.4975(5)
C7 C -0.7289(5) -0.3464(7) -1.0492(5)
C8 C -0.7452(4) -0.5073(6) -1.0071(4)
O8_2 O -0.1535(3) -0.2592(5) -0.6980(4)
O7_2 O -0.0776(3) 0.0184(5) -0.7383(4)
O11A O -0.2621(4) -0.1038(5) -0.5309(3)
O12A O -0.2780(4) 0.1765(4) -0.6099(4)
O13A O -0.2869(4) 0.1723(4) -0.8460(3)
O14A O -0.2597(4) -0.1094(5) -0.9211(3)
Mn1_2 Mn -1.27449(10) -0.04719(11) -0.72769(11)
Mn1A Mn -0.72551(10) -0.54719(11) -0.27231(11)
Mn1A_2 Mn -0.72551(10) -0.54719(11) -1.27231(11)
K1 K -0.76555(10) 0.2051(5) -0.77026(10)
K2 K -1.2768(2) -0.5462(3) -0.7197(2)
O18 O -1.4218(6) -0.3277(6) -1.0595(6)
O19 O -0.5523(5) 0.2502(7) -0.6173(6)
O20 O -1.0079(5) 0.2852(7) -0.8347(5)
O21 O -0.8826(6) 0.1670(7) -0.5674(5)
O22 O -1.4769(5) -0.5510(7) -0.9055(6)
O23 O -1.0518(5) -0.5857(8) -0.5771(6)
O24 O -1.4022(6) -0.5061(7) -0.5241(5)
O25 O -1.1885(5) -0.4429(7) -0.9415(6)
loop_
_geom_bond_atom_site_label_1
_geom_bond_atom_site_label_2
_geom_bond_site_symmetry_1
_geom_bond_site_symmetry_2
U1 O1 1_555 1_555
Mn1 O3 1_555 1_555
O1 C1 1_555 1_555
O2 U1 1_555 1_555
O3 C1 1_555 1_555
O4 Mn1 1_555 1_555
O5 U1 1_555 1_555
O6 U1 1_555 1_555
O7 C4 1_555 1_555
O8 C3 1_555 1_555
O9 U1 1_555 1_555
O10 U1 1_555 1_555
O11 C5 1_555 1_555
O12 C6 1_555 1_555
O13 C7 1_555 1_555
O14 C8 1_555 1_555
O15 U1 1_555 1_555
O16 U1 1_555 1_555
O17 U1 1_555 1_555
C1 C2 1_555 1_555
C2 O2 1_555 1_555
C3 O6 1_555 1_555
C4 O5 1_555 1_555
C5 O9 1_555 1_555
C6 O10 1_555 1_555
C7 O15 1_555 1_555
C8 O16 1_555 1_555
O8_2 Mn1 1_555 1_555
O7_2 Mn1 1_555 1_555
O11A Mn1 1_555 1_555
O12A Mn1 1_555 1_555
O13A Mn1 1_555 1_555
O14A Mn1 1_555 1_555
Mn1_2 O7 1_555 1_555
Mn1A O11 1_555 1_555
Mn1A_2 O13 1_555 1_555
O4 C2 1_555 1_555
O8 Mn1_2 1_555 1_555
O12 Mn1A 1_555 1_555
O14 Mn1A_2 1_555 1_555
C3 C4 1_555 1_555
C5 C6 1_555 1_555
C7 C8 1_555 1_555

#END
