
#######################################################################
#
#                 Cambridge Crystallographic Data Centre
#                                CCDC 
#
#######################################################################
#
# If this CIF has been generated from an entry in the Cambridge 
# Structural Database, then it will include bibliographic, chemical, 
# crystal, experimental, refinement or atomic coordinate data resulting 
# from the CCDC's data processing and validation procedures.
#
#######################################################################

data_MASDAM
_symmetry_cell_setting           triclinic
_symmetry_space_group_name_H-M   'P -1'
_symmetry_Int_Tables_number      2
_space_group_name_Hall           '-P 1'
loop_
_symmetry_equiv_pos_site_id
_symmetry_equiv_pos_as_xyz
1 x,y,z
2 -x,-y,-z
_cell_length_a                   8.411(3)
_cell_length_b                   10.050(3)
_cell_length_c                   10.664(3)
_cell_angle_alpha                91.273(2)
_cell_angle_beta                 103.991(3)
_cell_angle_gamma                113.770(3)
_cell_volume                     793.191
loop_
_atom_site_label
_atom_site_type_symbol
_atom_site_fract_x
_atom_site_fract_y
_atom_site_fract_z
Cd1 Cd -0.26328(2) 0.08168(2) 0.444470(17)
O1 O -0.0907(3) 0.0130(3) 0.3300(2)
O2 O -0.6220(4) 0.6307(4) 0.1068(4)
O3 O -0.4333(3) 0.1658(2) 0.5487(2)
O4 O -0.2816(3) -0.1205(2) 0.5449(2)
O5 O -0.0012(3) 0.7874(2) 0.3895(2)
O6 O 0.0289(3) 0.6789(2) 0.5663(2)
O7 O -0.8347(4) 0.4289(4) 0.1256(4)
N1 N -0.6782(3) -0.0081(3) 0.0782(2)
N2 N -0.6780(4) 0.5184(4) 0.1564(3)
N3 N -0.4470(3) 0.0759(3) 0.2535(2)
C1 C -0.8531(4) -0.1067(4) -0.0110(3)
H1 H -0.8760 -0.2096 0.0009
H2 H -0.8487 -0.0944 -0.1021
C2 C -1.0080(4) -0.0759(4) 0.0127(3)
H3 H -1.1237 -0.1497 -0.0445
H4 H -1.0110 -0.0871 0.1043
C3 C -0.5516(4) 0.1996(3) 0.4775(3)
C4 C -0.6133(4) 0.3635(3) 0.3172(3)
H5 H -0.7364 0.2951 0.2883
C5 C -0.4916(4) 0.3391(3) 0.4176(3)
C6 C -0.3127(4) 0.4433(3) 0.4614(3)
H6 H -0.2312 0.4274 0.5317
C7 C -0.5492(4) 0.4905(4) 0.2609(3)
C8 C -0.0617(4) 0.6849(3) 0.4567(3)
C9 C -0.4169(4) 0.1765(4) 0.1674(3)
H7 H -0.3135 0.2672 0.1815
C10 C -0.6065(4) -0.0339(4) 0.1973(3)
H8 H -0.6622 -0.1188 0.2357
C11 C -0.3709(4) 0.5944(3) 0.2998(3)
H9 H -0.3308 0.6792 0.2575
C12 C -0.2526(4) 0.5698(3) 0.4032(3)
C13 C -0.5599(4) 0.1251(4) 0.0578(3)
H10 H -0.5742 0.1725 -0.0175
H11 H 0.006(6) 0.070(5) 0.361(4)
H12 H -0.080(9) -0.104(8) 0.327(7)
Cd1A Cd -0.73672(2) -0.08168(2) 0.555530(17)
Cd1A_2 Cd -1.73672(2) -0.08168(2) -0.444470(17)
Cd1A_3 Cd 0.26328(2) 0.91832(2) 0.555530(17)
Cd1_2 Cd -1.26328(2) -0.91832(2) 0.444470(17)
O1A O -0.9093(3) -0.0130(3) 0.6700(2)
O2A O -0.3780(4) -0.6307(4) 0.8932(4)
O3A O -0.5667(3) -0.1658(2) 0.4513(2)
O4A O -0.7184(3) 0.1205(2) 0.4551(2)
O5_2 O -1.0012(3) -0.2126(2) 0.3895(2)
O5A O 0.0012(3) 0.2126(2) 0.6105(2)
O5A_2 O -0.9988(3) -0.7874(2) 0.6105(2)
O6_2 O -0.9711(3) -0.3211(2) 0.5663(2)
O6A O -0.0289(3) 0.3211(2) 0.4337(2)
O6A_2 O -1.0289(3) -0.6789(2) 0.4337(2)
O7A O -0.1653(4) -0.4289(4) 0.8744(4)
N1A N -1.3218(3) 0.0081(3) -0.0782(2)
N2A N -0.3220(4) -0.5184(4) 0.8436(3)
N3A N -1.5530(3) -0.0759(3) -0.2535(2)
N3A_2 N -0.5530(3) -0.0759(3) 0.7465(2)
C1A C -1.1469(4) 0.1067(4) 0.0110(3)
H1A H -1.1240 0.2096 -0.0009
H2A H -1.1513 0.0944 0.1021
C2A C -0.9920(4) 0.0759(4) -0.0127(3)
H3A H -0.8763 0.1497 0.0445
H4A H -0.9890 0.0871 -0.1043
C3A C -0.4484(4) -0.1996(3) 0.5225(3)
C4A C -0.3867(4) -0.3635(3) 0.6828(3)
H5A H -0.2636 -0.2951 0.7117
C5A C -0.5084(4) -0.3391(3) 0.5824(3)
C6A C -0.6873(4) -0.4433(3) 0.5386(3)
H6A H -0.7688 -0.4274 0.4683
C7A C -0.4508(4) -0.4905(4) 0.7391(3)
C8A C -0.9383(4) -0.6849(3) 0.5433(3)
C9A C -1.5831(4) -0.1765(4) -0.1674(3)
H7A H -1.6865 -0.2672 -0.1815
C10A C -1.3935(4) 0.0339(4) -0.1973(3)
H8A H -1.3378 0.1188 -0.2357
C11A C -0.6291(4) -0.5944(3) 0.7002(3)
H9A H -0.6692 -0.6792 0.7425
C12A C -0.7474(4) -0.5698(3) 0.5968(3)
C13A C -1.4401(4) -0.1251(4) -0.0578(3)
H10A H -1.4258 -0.1725 0.0175
H11A H -1.006(6) -0.070(5) 0.639(4)
H12A H -0.920(9) 0.104(8) 0.673(7)
loop_
_geom_bond_atom_site_label_1
_geom_bond_atom_site_label_2
_geom_bond_site_symmetry_1
_geom_bond_site_symmetry_2
Cd1 O1 1_555 1_555
O1 H11 1_555 1_555
O2 N2 1_555 1_555
O3 Cd1 1_555 1_555
O4 Cd1 1_555 1_555
O5 C8 1_555 1_555
O6 C8 1_555 1_555
O7 N2 1_555 1_555
N1 C1 1_555 1_555
N2 C7 1_555 1_555
N3 Cd1 1_555 1_555
C1 H1 1_555 1_555
H2 C1 1_555 1_555
C2 C1 1_555 1_555
H3 C2 1_555 1_555
H4 C2 1_555 1_555
C3 O3 1_555 1_555
C4 H5 1_555 1_555
C5 C3 1_555 1_555
C6 C5 1_555 1_555
H6 C6 1_555 1_555
C7 C4 1_555 1_555
C8 C12 1_555 1_555
C9 N3 1_555 1_555
H7 C9 1_555 1_555
C10 N1 1_555 1_555
H8 C10 1_555 1_555
C11 C7 1_555 1_555
H9 C11 1_555 1_555
C12 C6 1_555 1_555
C13 N1 1_555 1_555
H10 C13 1_555 1_555
H12 O1 1_555 1_555
Cd1A O1A 1_555 1_555
Cd1A_2 N3A 1_555 1_555
Cd1A_3 O5 1_555 1_555
Cd1_2 O5A_2 1_555 1_555
O1A H11A 1_555 1_555
O2A N2A 1_555 1_555
O3A Cd1A 1_555 1_555
O4A C3 1_555 1_555
O5_2 Cd1A 1_555 1_555
O5A Cd1 1_555 1_555
O5A_2 C8A 1_555 1_555
O6_2 Cd1A 1_555 1_555
O6A Cd1 1_555 1_555
O6A_2 Cd1_2 1_555 1_555
O7A N2A 1_555 1_555
N1A C1A 1_555 1_555
N2A C7A 1_555 1_555
N3A C9A 1_555 1_555
N3A_2 Cd1A 1_555 1_555
C1A H1A 1_555 1_555
H2A C1A 1_555 1_555
C2A C2 1_555 1_555
H3A C2A 1_555 1_555
H4A C2A 1_555 1_555
C3A O4 1_555 1_555
C4A H5A 1_555 1_555
C5A C3A 1_555 1_555
C6A C5A 1_555 1_555
H6A C6A 1_555 1_555
C7A C4A 1_555 1_555
C8A O6A_2 1_555 1_555
C9A H7A 1_555 1_555
C10A N1A 1_555 1_555
H8A C10A 1_555 1_555
C11A C7A 1_555 1_555
H9A C11A 1_555 1_555
C12A C6A 1_555 1_555
C13A N1A 1_555 1_555
H10A C13A 1_555 1_555
H12A O1A 1_555 1_555
O6 Cd1A_3 1_555 1_555
N3 C10 1_555 1_555
C4 C5 1_555 1_555
C9 C13 1_555 1_555
C11 C12 1_555 1_555
Cd1A O4A 1_555 1_555
O3A C3A 1_555 1_555
N3A C10A 1_555 1_555
C1A C2A 1_555 1_555
C4A C5A 1_555 1_555
C8A C12A 1_555 1_555
C9A C13A 1_555 1_555
C11A C12A 1_555 1_555

#END
