
#######################################################################
#
#                 Cambridge Crystallographic Data Centre
#                                CCDC 
#
#######################################################################
#
# If this CIF has been generated from an entry in the Cambridge 
# Structural Database, then it will include bibliographic, chemical, 
# crystal, experimental, refinement or atomic coordinate data resulting 
# from the CCDC's data processing and validation procedures.
#
#######################################################################

data_MASDEQ
_symmetry_cell_setting           monoclinic
_symmetry_space_group_name_H-M   'C 2/c'
_symmetry_Int_Tables_number      15
_space_group_name_Hall           '-C 2yn'
loop_
_symmetry_equiv_pos_site_id
_symmetry_equiv_pos_as_xyz
1 x,y,z
2 1/2+x,1/2+y,z
3 -x,y,1/2-z
4 1/2-x,1/2+y,1/2-z
5 -x,-y,-z
6 1/2-x,1/2-y,-z
7 x,-y,1/2+z
8 1/2+x,1/2-y,1/2+z
_cell_length_a                   15.187(4)
_cell_length_b                   14.094(3)
_cell_length_c                   13.069(3)
_cell_angle_alpha                90
_cell_angle_beta                 109.117(2)
_cell_angle_gamma                90
_cell_volume                     2643.09
loop_
_atom_site_label
_atom_site_type_symbol
_atom_site_fract_x
_atom_site_fract_y
_atom_site_fract_z
Cd1 Cd 0.074009(8) 0.035294(9) 0.899680(10)
O1 O 0.08996(10) 0.18514(10) 0.86311(11)
O2 O 0.23798(9) 0.13936(10) 0.90738(11)
C1 C 0.19467(13) 0.28821(14) 0.81903(15)
N1 N 0.17752(11) -0.06850(13) 0.99384(13)
C2 C 0.28459(13) 0.32558(13) 0.85318(15)
H1 H 0.3332 0.2943 0.9076
N2 N 0.31184(12) -0.12730(14) 1.09333(15)
C3 C 0.24382(15) -0.18632(17) 1.1054(2)
H2 H 0.2531 -0.2421 1.1484
C4 C 0.16108(14) -0.14947(15) 1.04409(18)
H3 H 0.1015 -0.1751 1.0368
C5 C 0.17483(13) 0.19745(13) 0.86689(14)
C6 C 0.12347(13) 0.33452(13) 0.73840(15)
H4 H 0.0621 0.3093 0.7155
C7 C 0.26874(15) -0.05732(16) 1.02607(18)
H5 H 0.2998 -0.0065 1.0045
O3 O 0.07621(12) 0.46470(9) 0.61118(14)
H6 H 0.0252 0.4358 0.5964
C8 C 0.30258(13) 0.40961(13) 0.80658(14)
C9 C 0.23196(14) 0.45560(13) 0.72653(17)
H7 H 0.2447 0.5129 0.6957
C10 C 0.39915(14) 0.44866(14) 0.84431(17)
C11 C 0.14254(13) 0.41764(14) 0.69159(15)
C12 C 0.41336(17) -0.1336(3) 1.1434(3)
H8 H 0.4366 -0.0720 1.1783
H9 H 0.4411 -0.1436 1.0854
C13 C 0.44655(19) -0.2094(2) 1.2246(2)
H10 H 0.4259 -0.2716 1.1899
H11 H 0.4184 -0.2007 1.2824
O4 O 0.45552(9) 0.42127(10) 0.93369(11)
O5 O 0.42331(10) 0.50915(11) 0.78658(11)
Cd1A Cd -0.425991(8) -0.464706(9) 0.899680(10)
Cd1A_2 Cd 0.574009(8) 0.535294(9) 0.899680(10)
Cd1E Cd 0.425991(8) 0.464706(9) 1.100320(10)
Cd1C Cd 0.425991(8) 0.535294(9) 0.600320(10)
Cd1B Cd 0.925991(8) 0.035294(9) 1.600320(10)
Cd1D Cd -0.074009(8) -0.035294(9) 1.100320(10)
Cd1B_2 Cd -0.074009(8) 0.035294(9) 0.600320(10)
O1A O -0.41004(10) -0.31486(10) 0.86311(11)
O2A O -0.26202(9) -0.36064(10) 0.90738(11)
C1A C -0.30533(13) -0.21179(14) 0.81903(15)
N1B N 0.82248(11) -0.06850(13) 1.50616(13)
N1A N -0.32248(11) -0.56850(13) 0.99384(13)
C2A C -0.21541(13) -0.17442(13) 0.85318(15)
H1A H -0.1668 -0.2057 0.9076
N2B N 0.68816(12) -0.12730(14) 1.40667(15)
C3B C 0.75618(15) -0.18632(17) 1.3946(2)
H2B H 0.7469 -0.2421 1.3516
C4B C 0.83892(14) -0.14947(15) 1.45591(18)
H3B H 0.8985 -0.1751 1.4632
C5A C -0.32517(13) -0.30255(13) 0.86689(14)
C6A C -0.37653(13) -0.16548(13) 0.73840(15)
H4A H -0.4379 -0.1907 0.7155
C7B C 0.73126(15) -0.05732(16) 1.47393(18)
H5B H 0.7002 -0.0065 1.4955
O3A O -0.42379(12) -0.03530(9) 0.61118(14)
H6A H -0.4748 -0.0642 0.5964
C8A C -0.19742(13) -0.09039(13) 0.80658(14)
C9A C -0.26804(14) -0.04440(13) 0.72653(17)
H7A H -0.2553 0.0129 0.6957
C10A C -0.10085(14) -0.05134(14) 0.84431(17)
C11A C -0.35746(13) -0.08236(14) 0.69159(15)
C12B C 0.58664(17) -0.1336(3) 1.3566(3)
H8B H 0.5634 -0.0720 1.3217
H9B H 0.5589 -0.1436 1.4146
C13B C 0.55345(19) -0.2094(2) 1.2754(2)
H10B H 0.5741 -0.2716 1.3101
H11B H 0.5816 -0.2007 1.2176
O4A O -0.04448(9) -0.07873(10) 0.93369(11)
O4E O 0.04448(9) 0.07873(10) 1.06631(11)
O4_2 O -0.54448(9) -0.57873(10) 0.93369(11)
O4D O -0.45552(9) -0.42127(10) 1.06631(11)
O5A O -0.07669(10) 0.00915(11) 0.78658(11)
O5C O 0.07669(10) 0.00915(11) 0.71342(11)
O5_2 O -0.57669(10) -0.49085(11) 0.78658(11)
O5B O -0.42331(10) -0.49085(11) 0.71342(11)
O6 O -0.06185(12) 0.34351(12) 0.51766(14)
H12 H -0.067(2) 0.287(3) 0.570(3)
H13 H -0.102(2) 0.358(3) 0.477(3)
loop_
_geom_bond_atom_site_label_1
_geom_bond_atom_site_label_2
_geom_bond_site_symmetry_1
_geom_bond_site_symmetry_2
Cd1 O1 1_555 1_555
O1 C5 1_555 1_555
O2 C5 1_555 1_555
C1 C2 1_555 1_555
N1 Cd1 1_555 1_555
C2 H1 1_555 1_555
N2 C3 1_555 1_555
C3 H2 1_555 1_555
C4 N1 1_555 1_555
H3 C4 1_555 1_555
C5 C1 1_555 1_555
C6 C1 1_555 1_555
H4 C6 1_555 1_555
C7 N1 1_555 1_555
H5 C7 1_555 1_555
O3 H6 1_555 1_555
C8 C2 1_555 1_555
C9 C8 1_555 1_555
H7 C9 1_555 1_555
C10 C8 1_555 1_555
C11 C6 1_555 1_555
C12 N2 1_555 1_555
H8 C12 1_555 1_555
H9 C12 1_555 1_555
C13 C12 1_555 1_555
H10 C13 1_555 1_555
H11 C13 1_555 1_555
O4 C10 1_555 1_555
O5 C10 1_555 1_555
O6 H12 1_555 1_555
H13 O6 1_555 1_555
Cd1A O1A 1_555 1_555
Cd1A_2 O4 1_555 1_555
Cd1E O4 1_555 1_555
Cd1C O5 1_555 1_555
Cd1B N1B 1_555 1_555
Cd1D O4A 1_555 1_555
Cd1B_2 O5A 1_555 1_555
O1A C5A 1_555 1_555
O2A C5A 1_555 1_555
C1A C2A 1_555 1_555
N1B C4B 1_555 1_555
N1A Cd1A 1_555 1_555
C2A H1A 1_555 1_555
N2B C3B 1_555 1_555
C3B H2B 1_555 1_555
C4B C3B 1_555 1_555
H3B C4B 1_555 1_555
C5A C1A 1_555 1_555
C6A C1A 1_555 1_555
H4A C6A 1_555 1_555
C7B N1B 1_555 1_555
H5B C7B 1_555 1_555
O3A H6A 1_555 1_555
C8A C2A 1_555 1_555
C9A C8A 1_555 1_555
H7A C9A 1_555 1_555
C10A C8A 1_555 1_555
C11A C6A 1_555 1_555
C12B N2B 1_555 1_555
H8B C12B 1_555 1_555
H9B C12B 1_555 1_555
C13B C13 1_555 1_555
H10B C13B 1_555 1_555
H11B C13B 1_555 1_555
O4A Cd1 1_555 1_555
O4E Cd1 1_555 1_555
O4_2 Cd1A 1_555 1_555
O4D Cd1A 1_555 1_555
O5A Cd1 1_555 1_555
O5C Cd1 1_555 1_555
O5_2 Cd1A 1_555 1_555
O5B Cd1A 1_555 1_555
N2 C7 1_555 1_555
C3 C4 1_555 1_555
O3 C11 1_555 1_555
C9 C11 1_555 1_555
O5 Cd1A_2 1_555 1_555
Cd1D O4E 1_555 1_555
Cd1B_2 O5C 1_555 1_555
N2B C7B 1_555 1_555
O3A C11A 1_555 1_555
C9A C11A 1_555 1_555
C10A O4A 1_555 1_555
C10A O5A 1_555 1_555
C12B C13B 1_555 1_555

#END
