
#######################################################################
#
#                 Cambridge Crystallographic Data Centre
#                                CCDC 
#
#######################################################################
#
# If this CIF has been generated from an entry in the Cambridge 
# Structural Database, then it will include bibliographic, chemical, 
# crystal, experimental, refinement or atomic coordinate data resulting 
# from the CCDC's data processing and validation procedures.
#
#######################################################################

data_MASMEY
_symmetry_cell_setting           monoclinic
_symmetry_space_group_name_H-M   'P 21/n'
_symmetry_Int_Tables_number      14
_space_group_name_Hall           '-P 2yn'
loop_
_symmetry_equiv_pos_site_id
_symmetry_equiv_pos_as_xyz
1 x,y,z
2 1/2-x,1/2+y,1/2-z
3 -x,-y,-z
4 1/2+x,1/2-y,1/2+z
_cell_length_a                   8.552(4)
_cell_length_b                   11.651(4)
_cell_length_c                   12.546(5)
_cell_angle_alpha                90
_cell_angle_beta                 100.82(3)
_cell_angle_gamma                90
_cell_volume                     1227.85
loop_
_atom_site_label
_atom_site_type_symbol
_atom_site_fract_x
_atom_site_fract_y
_atom_site_fract_z
Cu1 Cu 0.0286(2) -0.40336(13) 0.04158(11)
Cu2 Cu 0.1423(2) -0.34682(13) -0.32100(11)
N1 N 0.2368(10) -0.4023(8) 0.1594(7)
N2 N 0.9345(11) -0.3671(8) 0.5630(7)
C1 C 0.0684(13) -0.4197(10) -0.1045(8)
C2 C -0.2016(10) -0.2379(9) 0.1234(7)
N3 N 0.0993(10) -0.4027(9) -0.1875(7)
N4 N -0.1141(10) -0.2979(7) 0.0911(8)
C3 C 0.3760(14) -0.4499(12) 0.1419(10)
H1 H 0.3783(14) -0.4846(12) 0.0754(10)
C4 C 0.5140(14) -0.4480(11) 0.2204(9)
H2 H 0.6061(14) -0.4826(11) 0.2064(9)
C5 C 0.5157(12) -0.3960(10) 0.3172(8)
C6 C 0.3746(12) -0.3455(10) 0.3351(8)
H3 H 0.3714(12) -0.3085(10) 0.4004(8)
C7 C 0.2394(12) -0.3512(11) 0.2544(9)
H4 H 0.1462(12) -0.3177(11) 0.2675(9)
C8 C 0.6608(12) -0.3889(9) 0.4034(8)
C9 C 0.7931(13) -0.3813(9) 0.5905(8)
H5 H 0.7871(13) -0.3859(9) 0.6636(8)
C10 C 0.6537(12) -0.3896(9) 0.5131(9)
H6 H 0.5559(12) -0.3955(9) 0.5349(9)
C11 C 0.8089(13) -0.3764(10) 0.3760(9)
H7 H 0.8192(13) -0.3759(10) 0.3035(9)
C12 C 0.9426(12) -0.3647(10) 0.4576(9)
H8 H 1.0415(12) -0.3547(10) 0.4381(9)
C2C C 0.2984(10) -0.2621(9) -0.3766(7)
Cu2C Cu -0.3577(2) -0.15318(13) 0.17900(11)
N2_2 N -0.0655(11) -0.3671(8) -0.4370(7)
Cu2_2 Cu 1.1423(2) -0.34682(13) 0.67900(11)
loop_
_geom_bond_atom_site_label_1
_geom_bond_atom_site_label_2
_geom_bond_site_symmetry_1
_geom_bond_site_symmetry_2
Cu1 N1 1_555 1_555
Cu2 N3 1_555 1_555
N1 C3 1_555 1_555
N2 C9 1_555 1_555
C1 Cu1 1_555 1_555
C2 N4 1_555 1_555
N3 C1 1_555 1_555
N4 Cu1 1_555 1_555
C3 H1 1_555 1_555
C4 C3 1_555 1_555
H2 C4 1_555 1_555
C5 C4 1_555 1_555
C6 C5 1_555 1_555
H3 C6 1_555 1_555
C7 N1 1_555 1_555
H4 C7 1_555 1_555
C8 C5 1_555 1_555
C9 H5 1_555 1_555
C10 C8 1_555 1_555
H6 C10 1_555 1_555
C11 C8 1_555 1_555
H7 C11 1_555 1_555
C12 N2 1_555 1_555
H8 C12 1_555 1_555
C2C Cu2 1_555 1_555
Cu2C C2 1_555 1_555
N2_2 Cu2 1_555 1_555
Cu2_2 N2 1_555 1_555
C6 C7 1_555 1_555
C9 C10 1_555 1_555
C11 C12 1_555 1_555

#END
