
#######################################################################
#
#                 Cambridge Crystallographic Data Centre
#                                CCDC 
#
#######################################################################
#
# If this CIF has been generated from an entry in the Cambridge 
# Structural Database, then it will include bibliographic, chemical, 
# crystal, experimental, refinement or atomic coordinate data resulting 
# from the CCDC's data processing and validation procedures.
#
#######################################################################

data_MASMEY02
_symmetry_cell_setting           monoclinic
_symmetry_space_group_name_H-M   'P 21/n'
_symmetry_Int_Tables_number      14
_space_group_name_Hall           '-P 2yn'
loop_
_symmetry_equiv_pos_site_id
_symmetry_equiv_pos_as_xyz
1 x,y,z
2 1/2-x,1/2+y,1/2-z
3 -x,-y,-z
4 1/2+x,1/2-y,1/2+z
_cell_length_a                   8.5451(3)
_cell_length_b                   11.6761(4)
_cell_length_c                   12.5593(5)
_cell_angle_alpha                90
_cell_angle_beta                 100.911(1)
_cell_angle_gamma                90
_cell_volume                     1230.43
loop_
_atom_site_label
_atom_site_type_symbol
_atom_site_fract_x
_atom_site_fract_y
_atom_site_fract_z
Cu1 Cu 1.02888(4) 0.90337(3) 0.54165(2)
Cu2 Cu 0.85816(4) 1.15350(3) 0.82116(2)
N1 N 0.9010(3) 1.09695(19) 0.68669(17)
N2 N 0.7991(3) 0.7368(2) 0.62363(19)
N3 N 1.2366(2) 0.90226(19) 0.65789(17)
N4 N 1.9361(2) 0.8678(2) 1.06304(17)
C1 C 0.9327(3) 1.0793(2) 0.6042(2)
C2 C 0.8852(3) 0.7960(2) 0.59161(18)
C3 C 1.7917(3) 0.8820(2) 1.0888(2)
H1 H 1.7848 0.8859 1.1617
C4 C 1.6536(3) 0.8911(2) 1.0127(2)
H2 H 1.5561 0.8987 1.0345
C5 C 1.6602(3) 0.8890(2) 0.9021(2)
C6 C 1.8108(3) 0.8776(3) 0.8759(2)
H3 H 1.8224 0.8782 0.8037
C7 C 1.9417(3) 0.8655(3) 0.9571(2)
H4 H 2.0404 0.8551 0.9376
C8 C 1.5141(3) 0.8957(2) 0.8180(2)
C9 C 1.3724(3) 0.8464(2) 0.8348(2)
H5 H 1.3679 0.8103 0.9001
C10 C 1.5119(3) 0.9484(3) 0.7189(2)
H6 H 1.6038 0.9824 0.7038
C11 C 1.2391(3) 0.8515(2) 0.7539(2)
H7 H 1.1456 0.8179 0.7665
C12 C 1.3723(3) 0.9502(3) 0.6425(2)
H8 H 1.3730 0.9869 0.5769
Cu1B Cu 0.97112(4) 1.09663(3) 0.45835(2)
Cu2A Cu 0.64184(4) 0.65350(3) 0.67884(2)
Cu2B Cu 2.14184(4) 0.84650(3) 1.17884(2)
N2A N 0.7009(3) 1.2368(2) 0.87637(19)
N4B N 1.0639(2) 1.1322(2) 0.93696(17)
C1B C 1.0673(3) 0.9207(2) 0.3958(2)
loop_
_geom_bond_atom_site_label_1
_geom_bond_atom_site_label_2
_geom_bond_site_symmetry_1
_geom_bond_site_symmetry_2
Cu1 N3 1_555 1_555
Cu2 N1 1_555 1_555
N1 C1 1_555 1_555
N2 C2 1_555 1_555
N3 C11 1_555 1_555
N4 C3 1_555 1_555
C1 Cu1 1_555 1_555
C2 Cu1 1_555 1_555
C3 H1 1_555 1_555
C4 C3 1_555 1_555
H2 C4 1_555 1_555
C5 C4 1_555 1_555
C6 C5 1_555 1_555
H3 C6 1_555 1_555
C7 N4 1_555 1_555
H4 C7 1_555 1_555
C8 C5 1_555 1_555
C9 C8 1_555 1_555
H5 C9 1_555 1_555
C10 C8 1_555 1_555
H6 C10 1_555 1_555
C11 C9 1_555 1_555
H7 C11 1_555 1_555
C12 N3 1_555 1_555
H8 C12 1_555 1_555
Cu1B Cu1 1_555 1_555
Cu2A N2 1_555 1_555
Cu2B N4 1_555 1_555
N2A Cu2 1_555 1_555
N4B Cu2 1_555 1_555
C1B Cu1 1_555 1_555
C1 Cu1B 1_555 1_555
C6 C7 1_555 1_555
C10 C12 1_555 1_555
Cu1B C1B 1_555 1_555

#END
