
#######################################################################
#
#                 Cambridge Crystallographic Data Centre
#                                CCDC 
#
#######################################################################
#
# If this CIF has been generated from an entry in the Cambridge 
# Structural Database, then it will include bibliographic, chemical, 
# crystal, experimental, refinement or atomic coordinate data resulting 
# from the CCDC's data processing and validation procedures.
#
#######################################################################

data_MASQED
_symmetry_cell_setting           monoclinic
_symmetry_space_group_name_H-M   'P 21/c'
_symmetry_Int_Tables_number      14
_space_group_name_Hall           '-P 2ybc'
loop_
_symmetry_equiv_pos_site_id
_symmetry_equiv_pos_as_xyz
1 x,y,z
2 -x,1/2+y,1/2-z
3 -x,-y,-z
4 x,1/2-y,1/2+z
_cell_length_a                   5.5700(3)
_cell_length_b                   41.5200(3)
_cell_length_c                   15.5158(2)
_cell_angle_alpha                90
_cell_angle_beta                 92.711(4)
_cell_angle_gamma                90
_cell_volume                     3584.27
loop_
_atom_site_label
_atom_site_type_symbol
_atom_site_fract_x
_atom_site_fract_y
_atom_site_fract_z
C1 C 0.938(2) 0.3812(3) 0.2504(9)
C2 C 0.737(2) 0.3603(3) 0.2856(9)
H1 H 0.6058 0.3741 0.3057
H2 H 0.6694 0.3458 0.2399
C3 C 0.710(2) 0.3404(2) 0.4263(9)
C4 C 0.8227(19) 0.3176(3) 0.4924(9)
C5 C 1.033(2) 0.3007(3) 0.4766(9)
H3 H 1.1041 0.3041 0.4228
C6 C 1.021(3) 0.2773(3) 0.6075(11)
H4 H 1.0860 0.2623 0.6484
C7 C 0.822(3) 0.2933(3) 0.6300(10)
H5 H 0.7564 0.2902 0.6849
C8 C 0.717(2) 0.3142(3) 0.5702(11)
H6 H 0.5758 0.3259 0.5824
C9 C 1.0602(19) 0.4021(3) 0.3194(8)
H7 H 1.1525 0.3886 0.3618
H8 H 1.1722 0.4173 0.2932
C10 C 0.859(2) 0.4169(3) 0.4480(10)
C11 C 0.657(2) 0.4355(3) 0.4822(10)
C12 C 0.627(2) 0.4333(3) 0.5694(9)
H9 H 0.7333 0.4203 0.6042
C13 C 0.292(2) 0.4656(3) 0.5545(10)
H10 H 0.1575 0.4752 0.5798
C14 C 0.313(2) 0.4693(3) 0.4650(10)
H11 H 0.2033 0.4821 0.4312
C15 C 0.5003(19) 0.4532(3) 0.4286(9)
H12 H 0.5214 0.4543 0.3683
C16 C 1.133(2) 0.3596(3) 0.2154(9)
H13 H 1.2655 0.3731 0.1948
H14 H 1.2001 0.3455 0.2621
C17 C 1.168(2) 0.3372(3) 0.0764(9)
C18 C 1.054(2) 0.3148(3) 0.0117(9)
C19 C 0.847(2) 0.2974(3) 0.0286(9)
H15 H 0.7749 0.3005 0.0822
C20 C 0.850(2) 0.2726(3) -0.1072(10)
H16 H 0.7770 0.2581 -0.1481
C21 C 1.049(2) 0.2885(3) -0.1285(10)
H17 H 1.1180 0.2851 -0.1826
C22 C 1.152(2) 0.3105(3) -0.0680(10)
H18 H 1.2906 0.3224 -0.0819
C23 C 0.8232(19) 0.4011(3) 0.1772(9)
H19 H 0.7294 0.3869 0.1371
H20 H 0.7117 0.4170 0.2009
C24 C 1.015(2) 0.4122(3) 0.0459(10)
C25 C 1.213(2) 0.4305(3) 0.0092(10)
C26 C 1.249(2) 0.4294(3) -0.0788(9)
H21 H 1.1403 0.4172 -0.1148
C27 C 1.587(2) 0.4606(4) -0.0651(11)
H22 H 1.7181 0.4710 -0.0905
C28 C 1.569(3) 0.4626(3) 0.0198(11)
H23 H 1.6881 0.4741 0.0533
C29 C 1.377(2) 0.4479(3) 0.0611(9)
H24 H 1.3598 0.4497 0.1215
N1 N 1.1411(17) 0.2803(2) 0.5315(8)
N2 N 0.4488(19) 0.4497(2) 0.6060(8)
N3 N 0.7457(17) 0.2762(2) -0.0281(8)
N4 N 1.431(2) 0.4449(3) -0.1156(8)
O1 O 0.8383(12) 0.34177(17) 0.3558(5)
O2 O 0.5123(14) 0.35306(18) 0.4362(6)
O3 O 0.8699(13) 0.41978(17) 0.3620(6)
O4 O 0.9952(16) 0.4003(2) 0.4902(7)
O5 O 1.0347(13) 0.34013(17) 0.1453(6)
O6 O 1.3562(14) 0.35058(19) 0.0666(6)
O7 O 1.0055(13) 0.41763(19) 0.1311(6)
O8 O 0.8776(15) 0.3949(2) 0.0023(6)
Ag1 Ag 0.4312(2) 0.44712(3) 0.74476(8)
Ag2 Ag 1.43882(18) 0.25213(2) 0.50233(9)
N3C N 1.7457(17) 0.2238(2) 0.4719(8)
N4_2 N 0.431(2) 0.4449(3) 0.8844(8)
Ag1_2 Ag 1.4312(2) 0.44712(3) -0.25524(8)
Ag2C Ag 0.43882(18) 0.24787(2) 0.00233(9)
B1 B 0.392(3) 0.2748(4) 0.2540(12)
F1 F 0.4515(14) 0.2918(2) 0.1855(6)
F2 F 0.4791(13) 0.28741(18) 0.3325(6)
F3 F 0.4449(12) 0.24249(16) 0.2517(5)
F4 F 0.1277(12) 0.27640(18) 0.2619(5)
B2 B 0.047(3) 0.4994(4) 0.2424(13)
F5 F 0.0767(14) 0.53220(19) 0.2632(6)
F6 F -0.0234(13) 0.4983(2) 0.1519(6)
F7 F 0.2530(14) 0.4834(2) 0.2535(6)
F8 F -0.1343(17) 0.4872(2) 0.2861(7)
loop_
_geom_bond_atom_site_label_1
_geom_bond_atom_site_label_2
_geom_bond_site_symmetry_1
_geom_bond_site_symmetry_2
C1 C2 1_555 1_555
C2 H1 1_555 1_555
H2 C2 1_555 1_555
C3 C4 1_555 1_555
C4 C5 1_555 1_555
C5 H3 1_555 1_555
C6 H4 1_555 1_555
C7 C6 1_555 1_555
H5 C7 1_555 1_555
C8 C4 1_555 1_555
H6 C8 1_555 1_555
C9 C1 1_555 1_555
H7 C9 1_555 1_555
H8 C9 1_555 1_555
C10 C11 1_555 1_555
C11 C12 1_555 1_555
C12 H9 1_555 1_555
C13 H10 1_555 1_555
C14 C13 1_555 1_555
H11 C14 1_555 1_555
C15 C11 1_555 1_555
H12 C15 1_555 1_555
C16 C1 1_555 1_555
H13 C16 1_555 1_555
H14 C16 1_555 1_555
C17 C18 1_555 1_555
C18 C19 1_555 1_555
C19 H15 1_555 1_555
C20 H16 1_555 1_555
C21 C20 1_555 1_555
H17 C21 1_555 1_555
C22 C18 1_555 1_555
H18 C22 1_555 1_555
C23 C1 1_555 1_555
H19 C23 1_555 1_555
H20 C23 1_555 1_555
C24 C25 1_555 1_555
C25 C26 1_555 1_555
C26 H21 1_555 1_555
C27 H22 1_555 1_555
C28 C27 1_555 1_555
H23 C28 1_555 1_555
C29 C25 1_555 1_555
H24 C29 1_555 1_555
N1 C5 1_555 1_555
N2 C12 1_555 1_555
N3 C19 1_555 1_555
N4 C26 1_555 1_555
O1 C2 1_555 1_555
O2 C3 1_555 1_555
O3 C9 1_555 1_555
O4 C10 1_555 1_555
O5 C16 1_555 1_555
O6 C17 1_555 1_555
O7 C23 1_555 1_555
O8 C24 1_555 1_555
Ag1 N2 1_555 1_555
Ag2 N1 1_555 1_555
B1 F1 1_555 1_555
F2 B1 1_555 1_555
F3 B1 1_555 1_555
F4 B1 1_555 1_555
B2 F5 1_555 1_555
F6 B2 1_555 1_555
F7 B2 1_555 1_555
F8 B2 1_555 1_555
N3C Ag2 1_555 1_555
N4_2 Ag1 1_555 1_555
Ag1_2 N4 1_555 1_555
Ag2C N3 1_555 1_555
C3 O1 1_555 1_555
C6 N1 1_555 1_555
C7 C8 1_555 1_555
C10 O3 1_555 1_555
C13 N2 1_555 1_555
C14 C15 1_555 1_555
C17 O5 1_555 1_555
C20 N3 1_555 1_555
C21 C22 1_555 1_555
C24 O7 1_555 1_555
C27 N4 1_555 1_555
C28 C29 1_555 1_555

#END
