
#######################################################################
#
#                 Cambridge Crystallographic Data Centre
#                                CCDC 
#
#######################################################################
#
# If this CIF has been generated from an entry in the Cambridge 
# Structural Database, then it will include bibliographic, chemical, 
# crystal, experimental, refinement or atomic coordinate data resulting 
# from the CCDC's data processing and validation procedures.
#
#######################################################################

data_MASQON
_symmetry_cell_setting           triclinic
_symmetry_space_group_name_H-M   'P -1'
_symmetry_Int_Tables_number      2
_space_group_name_Hall           '-P 1'
loop_
_symmetry_equiv_pos_site_id
_symmetry_equiv_pos_as_xyz
1 x,y,z
2 -x,-y,-z
_cell_length_a                   6.7490(10)
_cell_length_b                   15.919(3)
_cell_length_c                   33.874(6)
_cell_angle_alpha                90.361(6)
_cell_angle_beta                 89.682(9)
_cell_angle_gamma                97.801(9)
_cell_volume                     3605.54
loop_
_atom_site_label
_atom_site_type_symbol
_atom_site_fract_x
_atom_site_fract_y
_atom_site_fract_z
C1 C 0.781(3) 1.4231(14) 0.9332(9)
C2 C 0.734(7) 1.442(3) 0.9766(10)
H1 H 0.8592 1.4664 0.9897
H2 H 0.6413 1.4850 0.9774
O1 O 0.645(5) 1.369(2) 0.9990(10)
C3 C 0.608(7) 1.379(3) 1.0375(15)
O2 O 0.661(5) 1.447(3) 1.0551(9)
C4 C 0.538(2) 1.2986(15) 1.0612(6)
C5 C 0.478(2) 1.2257(16) 1.0409(6)
H3 H 0.4774 1.2260 1.0128
N1 N 0.419(3) 1.1525(17) 1.0607(8)
C6 C 0.419(3) 1.152(2) 1.1008(8)
H4 H 0.3780 1.1010 1.1147
C7 C 0.480(3) 1.225(2) 1.1212(6)
H5 H 0.4801 1.2247 1.1492
C8 C 0.539(3) 1.2982(19) 1.1014(5)
H6 H 0.5809 1.3491 1.1156
C9 C 0.965(3) 1.3754(18) 0.9331(6)
H7 H 1.0080 1.3663 0.9056
H8 H 1.0766 1.4094 0.9472
O3 O 0.914(3) 1.2959(15) 0.9521(5)
C10 C 0.998(2) 1.2996(12) 0.9894(6)
O4 O 1.115(2) 1.3518(15) 1.0058(6)
C11 C 0.976(2) 1.2212(13) 1.0127(6)
C12 C 0.887(3) 1.1535(11) 0.9917(6)
H9 H 0.8694 1.1580 0.9640
N2 N 0.822(3) 1.0793(11) 1.0103(8)
C13 C 0.848(3) 1.0728(14) 1.0499(8)
H10 H 0.8026 1.0209 1.0629
C14 C 0.937(3) 1.1405(15) 1.0709(6)
H11 H 0.9546 1.1359 1.0986
C15 C 1.001(4) 1.2147(14) 1.0523(6)
H12 H 1.0639 1.2619 1.0669
C16 C 0.582(2) 1.3804(10) 0.9156(4)
H13 H 0.5371 1.3260 0.9290
H14 H 0.4765 1.4176 0.9188
O5 O 0.619(2) 1.3656(12) 0.8732(4)
C17 C 0.548(3) 1.4186(13) 0.8474(4)
O6 O 0.474(3) 1.4736(13) 0.8550(4)
C18 C 0.612(2) 1.3885(13) 0.8090(5)
C19 C 0.673(3) 1.3140(12) 0.7976(6)
H15 H 0.6825 1.2708 0.8164
N3 N 0.721(3) 1.3013(15) 0.7591(6)
C20 C 0.708(3) 1.3632(17) 0.7321(5)
H16 H 0.7413 1.3543 0.7053
C21 C 0.647(4) 1.4377(16) 0.7435(5)
H17 H 0.6379 1.4808 0.7247
C22 C 0.599(3) 1.4503(14) 0.7820(5)
H18 H 0.5567 1.5024 0.7900
C23 C 0.844(4) 1.5154(15) 0.9200(4)
H19 H 0.7305 1.5478 0.9159
H20 H 0.9483 1.5473 0.9367
O7 O 0.923(3) 1.4805(13) 0.8824(4)
C24 C 0.999(3) 1.5644(13) 0.8600(4)
O8 O 0.996(4) 1.6339(13) 0.8699(5)
C25 C 1.045(2) 1.5472(15) 0.8185(4)
C26 C 1.069(3) 1.4660(14) 0.8090(4)
H21 H 1.0507 1.4232 0.8286
N4 N 1.119(2) 1.4462(13) 0.7715(4)
C27 C 1.146(2) 1.5075(12) 0.7434(4)
H22 H 1.1809 1.4937 0.7172
C28 C 1.122(4) 1.5887(13) 0.7529(5)
H23 H 1.1401 1.6315 0.7333
C29 C 1.071(3) 1.6085(14) 0.7904(5)
H24 H 1.0546 1.6652 0.7971
C30 C 1.223(3) 1.0888(10) 0.5658(5)
C31 C 1.267(3) 1.0542(10) 0.5229(5)
H25 H 1.3660 1.0137 0.5238
H26 H 1.1431 1.0262 0.5103
O9 O 1.346(2) 1.1305(11) 0.5022(4)
C32 C 1.370(3) 1.1194(12) 0.4613(4)
O10 O 1.342(2) 1.0538(12) 0.4453(5)
C33 C 1.463(2) 1.1992(14) 0.4419(5)
C34 C 1.5120(17) 1.2707(14) 0.4639(5)
H27 H 1.5034 1.2681 0.4919
N5 N 1.573(2) 1.3459(15) 0.4459(7)
C35 C 1.586(3) 1.3496(17) 0.4058(7)
H28 H 1.6282 1.4021 0.3932
C36 C 1.537(3) 1.2781(19) 0.3838(5)
H29 H 1.5454 1.2807 0.3558
C37 C 1.476(3) 1.2029(17) 0.4018(5)
H30 H 1.4416 1.1530 0.3865
C38 C 1.034(3) 1.1218(17) 0.5709(6)
H31 H 1.0106 1.1356 0.5989
H32 H 0.9207 1.0806 0.5614
O11 O 1.059(2) 1.1998(14) 0.5462(5)
C39 C 0.9812(18) 1.2029(12) 0.5085(5)
O12 O 0.882(2) 1.1350(14) 0.4951(6)
C40 C 1.054(2) 1.2852(13) 0.4903(6)
C41 C 1.134(2) 1.3557(12) 0.5104(6)
H33 H 1.1548 1.3531 0.5381
N6 N 1.185(3) 1.4300(12) 0.4909(7)
C42 C 1.155(3) 1.4338(15) 0.4513(7)
H34 H 1.1908 1.4857 0.4377
C43 C 1.075(3) 1.3633(17) 0.4312(6)
H35 H 1.0541 1.3659 0.4036
C44 C 1.024(4) 1.2890(15) 0.4507(6)
H36 H 0.9677 1.2397 0.4366
C45 C 1.403(2) 1.1368(11) 0.5856(5)
H37 H 1.5216 1.1079 0.5800
H38 H 1.4296 1.1947 0.5746
O13 O 1.375(2) 1.1419(13) 0.6268(5)
C46 C 1.448(3) 1.0989(15) 0.6538(5)
O14 O 1.521(3) 1.0258(14) 0.6410(6)
C47 C 1.402(3) 1.1102(16) 0.6946(8)
C48 C 1.378(4) 1.1932(15) 0.6992(10)
H39 H 1.4220 1.2329 0.6791
N7 N 1.292(5) 1.2194(17) 0.7327(10)
C49 C 1.229(4) 1.163(2) 0.7614(9)
H40 H 1.1681 1.1809 0.7848
C50 C 1.252(4) 1.0796(19) 0.7568(6)
H41 H 1.2081 1.0400 0.7769
C51 C 1.339(3) 1.0534(17) 0.7233(6)
H42 H 1.3550 0.9955 0.7201
C52 C 1.184(4) 0.9939(16) 0.5853(4)
H43 H 1.1117 0.9526 0.5667
H44 H 1.3120 0.9743 0.5924
O15 O 1.063(3) 1.0032(12) 0.6206(5)
C53 C 1.015(2) 0.9521(12) 0.6465(4)
O16 O 0.999(3) 0.8626(12) 0.6317(3)
C54 C 0.9148(15) 0.9697(3) 0.68229(12)
C55 C 0.8623(11) 1.0453(3) 0.69445(11)
H45 H 0.8512 1.0886 0.6758
N8 N 0.8258(9) 1.0587(3) 0.73335(11)
C56 C 0.8417(10) 0.9967(3) 0.76008(11)
H46 H 0.8162 1.0061 0.7872
C57 C 0.8942(14) 0.9211(2) 0.74792(13)
H47 H 0.9053 0.8777 0.7666
C58 C 0.9307(16) 0.9076(2) 0.70903(14)
H48 H 0.9674 0.8548 0.7005
Cu1 Cu 0.3172(6) 1.0403(3) 1.02360(12)
Cu2 Cu 0.8101(5) 1.1782(3) 0.74405(11)
Cu3 Cu 1.1908(5) 1.3203(3) 0.75618(10)
Cu4 Cu 1.6839(6) 1.4591(3) 0.47699(11)
O17 O 1.0730(6) 1.2794(3) 0.81903(10)
H49 H 1.1515 1.2717 0.8374
O18 O 1.5709(7) 1.3788(3) 0.53339(12)
H50 H 1.6363 1.3527 0.5491
O19 O 0.4350(7) 1.1180(4) 0.96499(12)
H51 H 0.3710 1.1467 0.9502
H52 H 0.4786 1.0822 0.9501
O20 O 0.9247(6) 1.2197(3) 0.67843(10)
H53 H 0.8482 1.2280 0.6598
H54 H 1.0044 1.2647 0.6811
N2A N 0.178(3) 0.9207(11) 0.9897(8)
N6A N 1.815(3) 1.5700(12) 0.5091(7)
Cu1A Cu 0.6828(6) 0.9597(3) 0.97640(12)
Cu4A Cu 1.3161(6) 1.5409(3) 0.52301(11)
F1 F 0.9116(5) 1.0418(3) 0.87512(11)
F2 F 0.5943(6) 1.0577(3) 0.91021(12)
F3 F 0.7740(7) 1.1834(3) 0.88954(11)
F4 F 0.5285(5) 1.1297(4) 0.85690(13)
F5 F 0.8173(4) 1.1344(3) 0.82421(11)
F6 F 0.6145(6) 1.0121(3) 0.84232(12)
P1 P 0.7278(5) 1.0942(3) 0.86755(11)
F7 F 1.5135(4) 1.3684(4) 0.64284(13)
F8 F 1.1814(4) 1.3664(3) 0.67422(10)
F9 F 1.3636(7) 1.4964(3) 0.65638(11)
F10 F 1.0990(5) 1.4434(3) 0.62279(11)
F11 F 1.3590(5) 1.4484(3) 0.58926(11)
F12 F 1.2030(6) 1.3147(3) 0.60815(10)
P2 P 1.2887(4) 1.4049(3) 0.63355(11)
loop_
_geom_bond_atom_site_label_1
_geom_bond_atom_site_label_2
_geom_bond_site_symmetry_1
_geom_bond_site_symmetry_2
C1 C2 1_555 1_555
C2 H1 1_555 1_555
H2 C2 1_555 1_555
O1 C2 1_555 1_555
C3 O1 1_555 1_555
O2 C3 1_555 1_555
C4 C3 1_555 1_555
C5 C4 1_555 1_555
H3 C5 1_555 1_555
N1 C5 1_555 1_555
C6 N1 1_555 1_555
H4 C6 1_555 1_555
C7 C6 1_555 1_555
H5 C7 1_555 1_555
C8 C4 1_555 1_555
H6 C8 1_555 1_555
C9 C1 1_555 1_555
H7 C9 1_555 1_555
H8 C9 1_555 1_555
O3 C9 1_555 1_555
C10 O3 1_555 1_555
O4 C10 1_555 1_555
C11 C10 1_555 1_555
C12 C11 1_555 1_555
H9 C12 1_555 1_555
N2 C12 1_555 1_555
C13 N2 1_555 1_555
H10 C13 1_555 1_555
C14 C13 1_555 1_555
H11 C14 1_555 1_555
C15 C11 1_555 1_555
H12 C15 1_555 1_555
C16 C1 1_555 1_555
H13 C16 1_555 1_555
H14 C16 1_555 1_555
O5 C16 1_555 1_555
C17 O5 1_555 1_555
O6 C17 1_555 1_555
C18 C17 1_555 1_555
C19 C18 1_555 1_555
H15 C19 1_555 1_555
N3 C19 1_555 1_555
C20 N3 1_555 1_555
H16 C20 1_555 1_555
C21 C20 1_555 1_555
H17 C21 1_555 1_555
C22 C18 1_555 1_555
H18 C22 1_555 1_555
C23 C1 1_555 1_555
H19 C23 1_555 1_555
H20 C23 1_555 1_555
O7 C23 1_555 1_555
C24 O7 1_555 1_555
O8 C24 1_555 1_555
C25 C24 1_555 1_555
C26 C25 1_555 1_555
H21 C26 1_555 1_555
N4 C26 1_555 1_555
C27 N4 1_555 1_555
H22 C27 1_555 1_555
C28 C27 1_555 1_555
H23 C28 1_555 1_555
C29 C25 1_555 1_555
H24 C29 1_555 1_555
C30 C31 1_555 1_555
C31 H25 1_555 1_555
H26 C31 1_555 1_555
O9 C31 1_555 1_555
C32 O9 1_555 1_555
O10 C32 1_555 1_555
C33 C32 1_555 1_555
C34 C33 1_555 1_555
H27 C34 1_555 1_555
N5 C34 1_555 1_555
C35 N5 1_555 1_555
H28 C35 1_555 1_555
C36 C35 1_555 1_555
H29 C36 1_555 1_555
C37 C33 1_555 1_555
H30 C37 1_555 1_555
C38 C30 1_555 1_555
H31 C38 1_555 1_555
H32 C38 1_555 1_555
O11 C38 1_555 1_555
C39 O11 1_555 1_555
O12 C39 1_555 1_555
C40 C39 1_555 1_555
C41 C40 1_555 1_555
H33 C41 1_555 1_555
N6 C41 1_555 1_555
C42 N6 1_555 1_555
H34 C42 1_555 1_555
C43 C42 1_555 1_555
H35 C43 1_555 1_555
C44 C40 1_555 1_555
H36 C44 1_555 1_555
C45 C30 1_555 1_555
H37 C45 1_555 1_555
H38 C45 1_555 1_555
O13 C45 1_555 1_555
C46 O13 1_555 1_555
O14 C46 1_555 1_555
C47 C46 1_555 1_555
C48 C47 1_555 1_555
H39 C48 1_555 1_555
N7 C48 1_555 1_555
C49 N7 1_555 1_555
H40 C49 1_555 1_555
C50 C49 1_555 1_555
H41 C50 1_555 1_555
C51 C47 1_555 1_555
H42 C51 1_555 1_555
C52 C30 1_555 1_555
H43 C52 1_555 1_555
H44 C52 1_555 1_555
O15 C52 1_555 1_555
C53 O15 1_555 1_555
O16 C53 1_555 1_555
C54 C53 1_555 1_555
C55 C54 1_555 1_555
H45 C55 1_555 1_555
N8 C55 1_555 1_555
C56 N8 1_555 1_555
H46 C56 1_555 1_555
C57 C56 1_555 1_555
H47 C57 1_555 1_555
C58 C54 1_555 1_555
H48 C58 1_555 1_555
F1 P1 1_555 1_555
F2 P1 1_555 1_555
F3 P1 1_555 1_555
F4 P1 1_555 1_555
F5 P1 1_555 1_555
F6 P1 1_555 1_555
F7 P2 1_555 1_555
F8 P2 1_555 1_555
F9 P2 1_555 1_555
F10 P2 1_555 1_555
F11 P2 1_555 1_555
F12 P2 1_555 1_555
Cu1 N1 1_555 1_555
Cu2 N3 1_555 1_555
Cu3 N4 1_555 1_555
Cu4 N5 1_555 1_555
O17 Cu3 1_555 1_555
H49 O17 1_555 1_555
O18 Cu4 1_555 1_555
H50 O18 1_555 1_555
O19 Cu1 1_555 1_555
H51 O19 1_555 1_555
H52 O19 1_555 1_555
O20 Cu2 1_555 1_555
H53 O20 1_555 1_555
H54 O20 1_555 1_555
N2A Cu1 1_555 1_555
N6A Cu4 1_555 1_555
Cu1A N2 1_555 1_555
Cu4A N6 1_555 1_555
C7 C8 1_555 1_555
C14 C15 1_555 1_555
C21 C22 1_555 1_555
C28 C29 1_555 1_555
C36 C37 1_555 1_555
C43 C44 1_555 1_555
N7 Cu3 1_555 1_555
C50 C51 1_555 1_555
N8 Cu2 1_555 1_555
C57 C58 1_555 1_555

#END
