
#######################################################################
#
#                 Cambridge Crystallographic Data Centre
#                                CCDC 
#
#######################################################################
#
# If this CIF has been generated from an entry in the Cambridge 
# Structural Database, then it will include bibliographic, chemical, 
# crystal, experimental, refinement or atomic coordinate data resulting 
# from the CCDC's data processing and validation procedures.
#
#######################################################################

data_MASTOQ
_symmetry_cell_setting           orthorhombic
_symmetry_space_group_name_H-M   'P 21 21 21'
_symmetry_Int_Tables_number      19
_space_group_name_Hall           'P 2ac 2ab'
loop_
_symmetry_equiv_pos_site_id
_symmetry_equiv_pos_as_xyz
1 x,y,z
2 1/2-x,-y,1/2+z
3 1/2+x,1/2-y,-z
4 -x,1/2+y,1/2-z
_cell_length_a                   13.912(5)
_cell_length_b                   14.458(5)
_cell_length_c                   19.890(5)
_cell_angle_alpha                90
_cell_angle_beta                 90
_cell_angle_gamma                90
_cell_volume                     4000.67
loop_
_atom_site_label
_atom_site_type_symbol
_atom_site_fract_x
_atom_site_fract_y
_atom_site_fract_z
Zn1 Zn -0.66986(16) 0.35148(19) -0.59816(12)
Zn2 Zn -0.25995(17) 0.64772(19) -0.35952(12)
N1 N -0.4310(9) 0.4361(10) -0.4798(9)
N2 N -0.4225(10) 0.2735(12) -0.4882(9)
N3 N -0.4032(8) 0.3463(12) -0.3816(7)
N4 N -0.4533(8) 0.3614(11) -0.5808(7)
N5 N -0.5595(13) 0.2561(11) -0.6293(8)
N6 N -0.5752(11) 0.4592(9) -0.6195(7)
N7 N -0.4227(11) 0.5068(11) -0.3767(8)
N8 N -0.3307(14) 0.5605(12) -0.2890(9)
N9 N -0.3979(9) 0.6599(13) -0.4056(7)
N10 N -0.3836(10) 0.1875(11) -0.3956(9)
N11 N -0.2577(12) 0.1673(10) -0.3180(6)
N12 N -0.2903(12) 0.0720(12) -0.4397(8)
C1 C -0.4313(12) 0.356(2) -0.5133(11)
C2 C -0.3999(14) 0.2753(18) -0.4232(12)
C3 C -0.4192(13) 0.4248(18) -0.4124(13)
C4 C -0.4711(17) 0.2798(16) -0.6187(11)
C5 C -0.3892(15) 0.2273(13) -0.6340(9)
H1 H -0.3265 0.2451 -0.6241
C6 C -0.4153(15) 0.1412(15) -0.6672(9)
H2 H -0.3666 0.1009 -0.6803
C7 C -0.5071(15) 0.1175(14) -0.6799(9)
H3 H -0.5199 0.0632 -0.7033
C8 C -0.5836(15) 0.1732(15) -0.6585(10)
H4 H -0.6472 0.1550 -0.6638
C9 C -0.4809(15) 0.4465(16) -0.6081(10)
C10 C -0.6069(14) 0.5399(14) -0.6426(10)
H5 H -0.6722 0.5464 -0.6515
C11 C -0.5481(13) 0.6132(13) -0.6535(9)
H6 H -0.5726 0.6686 -0.6700
C12 C -0.4518(12) 0.6043(11) -0.6400(9)
H7 H -0.4102 0.6542 -0.6450
C13 C -0.4185(13) 0.5203(13) -0.6188(9)
H8 H -0.3530 0.5122 -0.6115
C14 C -0.3999(16) 0.5069(14) -0.3083(12)
C15 C -0.4539(14) 0.4603(13) -0.2630(11)
H9 H -0.5049 0.4242 -0.2781
C16 C -0.4353(16) 0.4650(14) -0.1946(12)
H10 H -0.4731 0.4344 -0.1631
C17 C -0.3583(16) 0.5172(15) -0.1768(12)
H11 H -0.3379 0.5169 -0.1323
C18 C -0.3099(14) 0.5702(14) -0.2226(12)
H12 H -0.2634 0.6122 -0.2085
C19 C -0.4551(14) 0.5857(16) -0.4071(11)
C20 C -0.5466(13) 0.5906(13) -0.4395(9)
H13 H -0.5876 0.5398 -0.4393
C21 C -0.5741(13) 0.6725(13) -0.4717(9)
H14 H -0.6329 0.6760 -0.4937
C22 C -0.5145(15) 0.7470(15) -0.4707(10)
H15 H -0.5322 0.8016 -0.4921
C23 C -0.4298(15) 0.7410(14) -0.4385(9)
H16 H -0.3902 0.7928 -0.4378
C24 C -0.3527(16) 0.1843(13) -0.3262(12)
C25 C -0.2214(14) 0.1669(12) -0.2551(11)
H17 H -0.1561 0.1567 -0.2483
C26 C -0.2826(14) 0.1819(11) -0.1996(10)
H18 H -0.2573 0.1784 -0.1564
C27 C -0.3778(16) 0.2013(14) -0.2075(12)
H19 H -0.4178 0.2121 -0.1709
C28 C -0.4114(16) 0.2038(13) -0.2723(11)
H20 H -0.4754 0.2192 -0.2800
C29 C -0.3757(18) 0.1108(17) -0.4350(12)
C30 C -0.4590(14) 0.0754(13) -0.4651(10)
H21 H -0.5193 0.1001 -0.4561
C31 C -0.4474(13) 0.0050(13) -0.5069(9)
H22 H -0.5007 -0.0144 -0.5313
C32 C -0.3633(15) -0.0411(14) -0.5167(10)
H23 H -0.3578 -0.0935 -0.5436
C33 C -0.2853(16) -0.0010(16) -0.4820(11)
H24 H -0.2250 -0.0272 -0.4888
N13 N -0.6704(15) 0.2635(15) -0.4858(11)
O1 O -0.6330(9) 0.3400(12) -0.4880(7)
O2 O -0.7075(11) 0.2178(12) -0.5308(9)
O3 O -0.6653(12) 0.2225(11) -0.4285(9)
N14 N -0.3123(18) 0.8224(18) -0.2982(12)
O4 O -0.2554(12) 0.7852(10) -0.3399(7)
O5 O -0.3596(13) 0.7711(13) -0.2646(9)
O6 O -0.3187(15) 0.9079(15) -0.2926(9)
N15 N -0.053(3) 0.636(3) -0.318(2)
O7 O -0.1375(16) 0.6264(15) -0.2970(11)
O8 O -0.0069(18) 0.6142(17) -0.2718(13)
O9 O -0.0310(19) 0.649(2) -0.3638(13)
N16 N -0.212(2) 0.599(2) -0.4786(17)
O10 O -0.2160(14) 0.6867(14) -0.4671(9)
O11 O -0.2186(12) 0.5404(12) -0.4272(9)
O12 O -0.1874(17) 0.5750(16) -0.5320(13)
Zn1B Zn -0.16986(16) 0.14852(19) -0.40184(12)
N11B N -0.7577(12) 0.3327(10) -0.6820(6)
N12B N -0.7903(12) 0.4280(12) -0.5603(8)
O13 O -0.6707(16) 0.4255(14) -0.3626(11)
loop_
_geom_bond_atom_site_label_1
_geom_bond_atom_site_label_2
_geom_bond_site_symmetry_1
_geom_bond_site_symmetry_2
Zn1 N5 1_555 1_555
Zn2 N8 1_555 1_555
N1 C1 1_555 1_555
N2 C1 1_555 1_555
N3 C2 1_555 1_555
N4 C1 1_555 1_555
N5 C4 1_555 1_555
N6 Zn1 1_555 1_555
N7 C3 1_555 1_555
N8 C14 1_555 1_555
N9 Zn2 1_555 1_555
N10 C2 1_555 1_555
N11 C24 1_555 1_555
N12 C29 1_555 1_555
C2 N2 1_555 1_555
C3 N1 1_555 1_555
C4 N4 1_555 1_555
C5 C4 1_555 1_555
H1 C5 1_555 1_555
C6 C5 1_555 1_555
H2 C6 1_555 1_555
C7 C6 1_555 1_555
H3 C7 1_555 1_555
C8 N5 1_555 1_555
H4 C8 1_555 1_555
C9 N4 1_555 1_555
C10 N6 1_555 1_555
H5 C10 1_555 1_555
C11 C10 1_555 1_555
H6 C11 1_555 1_555
C12 C11 1_555 1_555
H7 C12 1_555 1_555
C13 C9 1_555 1_555
H8 C13 1_555 1_555
C14 N7 1_555 1_555
C15 C14 1_555 1_555
H9 C15 1_555 1_555
C16 C15 1_555 1_555
H10 C16 1_555 1_555
C17 C16 1_555 1_555
H11 C17 1_555 1_555
C18 N8 1_555 1_555
H12 C18 1_555 1_555
C19 N7 1_555 1_555
C20 C19 1_555 1_555
H13 C20 1_555 1_555
C21 C20 1_555 1_555
H14 C21 1_555 1_555
C22 C21 1_555 1_555
H15 C22 1_555 1_555
C23 N9 1_555 1_555
H16 C23 1_555 1_555
C24 N10 1_555 1_555
C25 N11 1_555 1_555
H17 C25 1_555 1_555
C26 C25 1_555 1_555
H18 C26 1_555 1_555
C27 C26 1_555 1_555
H19 C27 1_555 1_555
C28 C24 1_555 1_555
H20 C28 1_555 1_555
C29 N10 1_555 1_555
C30 C29 1_555 1_555
H21 C30 1_555 1_555
C31 C30 1_555 1_555
H22 C31 1_555 1_555
C32 C31 1_555 1_555
H23 C32 1_555 1_555
C33 N12 1_555 1_555
H24 C33 1_555 1_555
N13 O1 1_555 1_555
O1 Zn1 1_555 1_555
O2 Zn1 1_555 1_555
O3 N13 1_555 1_555
N14 O4 1_555 1_555
O4 Zn2 1_555 1_555
O5 N14 1_555 1_555
O6 N14 1_555 1_555
N15 O7 1_555 1_555
O7 Zn2 1_555 1_555
O8 N15 1_555 1_555
O9 N15 1_555 1_555
N16 O10 1_555 1_555
O10 Zn2 1_555 1_555
O11 Zn2 1_555 1_555
O12 N16 1_555 1_555
Zn1B N11 1_555 1_555
N11B Zn1 1_555 1_555
N12B Zn1 1_555 1_555
N3 C3 1_555 1_555
N6 C9 1_555 1_555
N9 C19 1_555 1_555
N12 Zn1B 1_555 1_555
C7 C8 1_555 1_555
C12 C13 1_555 1_555
C17 C18 1_555 1_555
C22 C23 1_555 1_555
C27 C28 1_555 1_555
C32 C33 1_555 1_555
N13 O2 1_555 1_555
N16 O11 1_555 1_555

#END
