
#######################################################################
#
#                 Cambridge Crystallographic Data Centre
#                                CCDC 
#
#######################################################################
#
# If this CIF has been generated from an entry in the Cambridge 
# Structural Database, then it will include bibliographic, chemical, 
# crystal, experimental, refinement or atomic coordinate data resulting 
# from the CCDC's data processing and validation procedures.
#
#######################################################################

data_MASTUW
_symmetry_cell_setting           triclinic
_symmetry_space_group_name_H-M   'P -1'
_symmetry_Int_Tables_number      2
_space_group_name_Hall           '-P 1'
loop_
_symmetry_equiv_pos_site_id
_symmetry_equiv_pos_as_xyz
1 x,y,z
2 -x,-y,-z
_cell_length_a                   11.063(5)
_cell_length_b                   12.468(5)
_cell_length_c                   15.891(5)
_cell_angle_alpha                110.315(5)
_cell_angle_beta                 105.067(5)
_cell_angle_gamma                92.877(5)
_cell_volume                     1960.88
loop_
_atom_site_label
_atom_site_type_symbol
_atom_site_fract_x
_atom_site_fract_y
_atom_site_fract_z
Cd1 Cd 0.80754(4) 0.34049(3) 0.15524(3)
Cd2 Cd 0.5000 0.0000 -0.5000
N1 N 0.5468(4) 0.0955(3) -0.1824(3)
N2 N 0.5681(4) -0.0592(4) -0.1214(3)
N3 N 0.3973(4) -0.0824(3) -0.2631(3)
N4 N 0.7187(4) 0.1121(3) -0.0513(3)
N5 N 0.8275(4) 0.1346(4) 0.1061(3)
N6 N 0.7991(4) 0.3108(3) -0.0040(3)
N7 N 0.3840(4) 0.0678(3) -0.3199(3)
N8 N 0.2984(6) -0.0586(4) -0.4813(3)
N9 N 0.4966(7) 0.1752(4) -0.3814(4)
N10 N 0.4265(4) -0.2366(4) -0.2101(3)
N11 N 0.4259(4) -0.3072(3) -0.0897(3)
N12 N 0.2478(4) -0.3787(4) -0.2967(3)
C1 C 0.6068(5) 0.0475(4) -0.1222(4)
C2 C 0.4664(5) -0.1213(4) -0.1987(3)
C3 C 0.4446(5) 0.0248(4) -0.2527(4)
C4 C 0.7932(4) 0.0676(4) 0.0146(3)
C5 C 0.8325(5) -0.0445(5) -0.0163(5)
H1 H 0.8122 -0.0905 -0.0798
C6 C 0.9021(5) -0.0810(5) 0.0526(5)
H2 H 0.9286 -0.1531 0.0354
C7 C 0.9317(6) -0.0107(6) 0.1462(5)
H3 H 0.9754 -0.0358 0.1926
C8 C 0.8953(6) 0.0980(6) 0.1701(4)
H4 H 0.9192 0.1470 0.2330
C9 C 0.7784(4) 0.2053(4) -0.0717(3)
C10 C 0.8087(5) 0.1830(5) -0.1551(3)
H5 H 0.7973 0.1073 -0.1978
C11 C 0.8549(6) 0.2716(5) -0.1739(4)
H6 H 0.8737 0.2581 -0.2301
C12 C 0.8737(6) 0.3831(5) -0.1078(4)
H7 H 0.9038 0.4456 -0.1198
C13 C 0.8474(5) 0.4009(5) -0.0239(4)
H8 H 0.8627 0.4758 0.0207
C14 C 0.2784(5) -0.0057(4) -0.3980(4)
C15 C 0.1611(6) -0.0216(6) -0.3820(4)
H9 H 0.1499 0.0188 -0.3239
C16 C 0.0635(8) -0.0977(8) -0.4536(7)
H10 H -0.0141 -0.1110 -0.4436
C17 C 0.0793(11) -0.1539(8) -0.5388(7)
H11 H 0.0137 -0.2063 -0.5878
C18 C 0.1968(11) -0.1309(8) -0.5507(5)
H12 H 0.2067 -0.1673 -0.6100
C19 C 0.4339(6) 0.1788(4) -0.3186(3)
C20 C 0.4166(6) 0.2808(5) -0.2550(4)
H13 H 0.3729 0.2785 -0.2128
C21 C 0.4645(7) 0.3874(5) -0.2537(4)
H14 H 0.4541 0.4568 -0.2110
C22 C 0.5280(7) 0.3854(5) -0.3186(5)
H15 H 0.5605 0.4543 -0.3208
C23 C 0.5428(9) 0.2795(6) -0.3807(6)
H16 H 0.5861 0.2798 -0.4236
C24 C 0.4961(5) -0.2831(4) -0.1415(4)
C25 C 0.6201(5) -0.3041(5) -0.1348(5)
H17 H 0.6621 -0.2910 -0.1748
C26 C 0.6802(6) -0.3464(5) -0.0646(5)
H18 H 0.7639 -0.3590 -0.0558
C27 C 0.6114(7) -0.3682(6) -0.0098(5)
H19 H 0.6483 -0.3959 0.0366
C28 C 0.4885(6) -0.3489(5) -0.0242(4)
H20 H 0.4442 -0.3655 0.0133
C29 C 0.3522(5) -0.3190(4) -0.3014(4)
C30 C 0.3844(7) -0.3396(5) -0.3824(4)
H21 H 0.4554 -0.2963 -0.3823
C31 C 0.3103(8) -0.4250(6) -0.4638(4)
H22 H 0.3308 -0.4400 -0.5196
C32 C 0.2062(7) -0.4882(7) -0.4626(4)
H23 H 0.1554 -0.5464 -0.5173
C33 C 0.1775(7) -0.4636(6) -0.3773(4)
H24 H 0.1076 -0.5073 -0.3764
N13 N 0.8675(6) 0.6157(5) 0.2141(4)
O1 O 0.7740(5) 0.5346(3) 0.1629(3)
O2 O 0.9638(6) 0.5992(5) 0.2670(5)
O3 O 0.8596(5) 0.7152(4) 0.2086(4)
N14 N 1.0910(6) 0.3836(5) 0.2386(4)
O4 O 1.0448(6) 0.3613(5) 0.1507(3)
O5 O 1.0158(5) 0.3660(4) 0.2834(3)
O6 O 1.2056(5) 0.4180(6) 0.2796(4)
N15 N 0.3079(17) 0.1053(13) -0.6417(13)
O7 O 0.4172(9) 0.0890(7) -0.6103(6)
O8 O 0.2832(10) 0.1301(9) -0.7123(7)
O9 O 0.2284(16) 0.0541(15) -0.6253(11)
Cd1A Cd 0.19246(4) -0.34049(3) -1.15524(3)
Cd1A_2 Cd 0.19246(4) -0.34049(3) -0.15524(3)
Cd1_2 Cd 0.80754(4) 0.34049(3) -0.84476(3)
N1A N 0.4532(4) -0.0955(3) -0.8176(3)
N2A N 0.4319(4) 0.0592(4) -0.8786(3)
N3A N 0.6027(4) 0.0824(3) -0.7369(3)
N4A N 0.2813(4) -0.1121(3) -0.9487(3)
N5A N 0.1725(4) -0.1346(4) -1.1061(3)
N6A N 0.2009(4) -0.3108(3) -0.9960(3)
N7A N 0.6160(4) -0.0678(3) -0.6801(3)
N8A N 0.7016(6) 0.0586(4) -0.5187(3)
N9A N 0.5034(7) -0.1752(4) -0.6186(4)
N10A N 0.5735(4) 0.2366(4) -0.7899(3)
N11A N 0.5741(4) 0.3072(3) -0.9103(3)
N11A_2 N 0.5741(4) 0.3072(3) 0.0897(3)
N11_2 N 0.4259(4) -0.3072(3) -1.0897(3)
N12A N 0.7522(4) 0.3787(4) -0.7033(3)
N12A_2 N 0.7522(4) 0.3787(4) 0.2967(3)
N12_2 N 0.2478(4) -0.3787(4) -1.2967(3)
C1A C 0.3932(5) -0.0475(4) -0.8778(4)
C2A C 0.5336(5) 0.1213(4) -0.8013(3)
C3A C 0.5554(5) -0.0248(4) -0.7473(4)
C4A C 0.2068(4) -0.0676(4) -1.0146(3)
C5A C 0.1675(5) 0.0445(5) -0.9837(5)
H1A H 0.1878 0.0905 -0.9202
C6A C 0.0979(5) 0.0810(5) -1.0526(5)
H2A H 0.0714 0.1531 -1.0354
C7A C 0.0683(6) 0.0107(6) -1.1462(5)
H3A H 0.0246 0.0358 -1.1926
C8A C 0.1047(6) -0.0980(6) -1.1701(4)
H4A H 0.0808 -0.1470 -1.2330
C9A C 0.2216(4) -0.2053(4) -0.9283(3)
C10A C 0.1913(5) -0.1830(5) -0.8449(3)
H5A H 0.2027 -0.1073 -0.8022
C11A C 0.1451(6) -0.2716(5) -0.8261(4)
H6A H 0.1263 -0.2581 -0.7699
C12A C 0.1263(6) -0.3831(5) -0.8922(4)
H7A H 0.0962 -0.4456 -0.8802
C13A C 0.1526(5) -0.4009(5) -0.9761(4)
H8A H 0.1373 -0.4758 -1.0207
C14A C 0.7216(5) 0.0057(4) -0.6020(4)
C15A C 0.8389(6) 0.0216(6) -0.6180(4)
H9A H 0.8501 -0.0188 -0.6761
C16A C 0.9365(8) 0.0977(8) -0.5464(7)
H10A H 1.0141 0.1110 -0.5564
C17A C 0.9207(11) 0.1539(8) -0.4612(7)
H11A H 0.9863 0.2063 -0.4122
C18A C 0.8032(11) 0.1309(8) -0.4493(5)
H12A H 0.7933 0.1673 -0.3900
C19A C 0.5661(6) -0.1788(4) -0.6814(3)
C20A C 0.5834(6) -0.2808(5) -0.7450(4)
H13A H 0.6271 -0.2785 -0.7872
C21A C 0.5355(7) -0.3874(5) -0.7463(4)
H14A H 0.5459 -0.4568 -0.7890
C22A C 0.4720(7) -0.3854(5) -0.6814(5)
H15A H 0.4395 -0.4543 -0.6792
C23A C 0.4572(9) -0.2795(6) -0.6193(6)
H16A H 0.4139 -0.2798 -0.5764
C24A C 0.5039(5) 0.2831(4) -0.8585(4)
C25A C 0.3799(5) 0.3041(5) -0.8652(5)
H17A H 0.3379 0.2910 -0.8252
C26A C 0.3198(6) 0.3464(5) -0.9354(5)
H18A H 0.2361 0.3590 -0.9442
C27A C 0.3886(7) 0.3682(6) -0.9902(5)
H19A H 0.3517 0.3959 -1.0366
C28A C 0.5115(6) 0.3489(5) -0.9758(4)
H20A H 0.5558 0.3655 -1.0133
C29A C 0.6478(5) 0.3190(4) -0.6986(4)
C30A C 0.6156(7) 0.3396(5) -0.6176(4)
H21A H 0.5446 0.2963 -0.6177
C31A C 0.6897(8) 0.4250(6) -0.5362(4)
H22A H 0.6692 0.4400 -0.4804
C32A C 0.7938(7) 0.4882(7) -0.5374(4)
H23A H 0.8446 0.5464 -0.4827
C33A C 0.8225(7) 0.4636(6) -0.6227(4)
H24A H 0.8924 0.5073 -0.6236
N13A N 0.1325(6) -0.6157(5) -1.2141(4)
O1A O 0.2260(5) -0.5346(3) -1.1629(3)
O2A O 0.0362(6) -0.5992(5) -1.2670(5)
O3A O 0.1404(5) -0.7152(4) -1.2086(4)
N14A N -0.0910(6) -0.3836(5) -1.2386(4)
O4A O -0.0448(6) -0.3613(5) -1.1507(3)
O5A O -0.0158(5) -0.3660(4) -1.2834(3)
O6A O -0.2056(5) -0.4180(6) -1.2796(4)
N15A N 0.6921(17) -0.1053(13) -0.3583(13)
O7A O 0.5828(9) -0.0890(7) -0.3897(6)
O8A O 0.7168(10) -0.1301(9) -0.2877(7)
O9A O 0.7716(16) -0.0541(15) -0.3747(11)
loop_
_geom_bond_atom_site_label_1
_geom_bond_atom_site_label_2
_geom_bond_site_symmetry_1
_geom_bond_site_symmetry_2
Cd1 N5 1_555 1_555
Cd2 N8 1_555 1_555
N1 C1 1_555 1_555
N2 C1 1_555 1_555
N3 C2 1_555 1_555
N4 C1 1_555 1_555
N5 C4 1_555 1_555
N6 Cd1 1_555 1_555
N7 C3 1_555 1_555
N8 C14 1_555 1_555
N9 Cd2 1_555 1_555
N10 C2 1_555 1_555
N11 C24 1_555 1_555
N12 C29 1_555 1_555
C2 N2 1_555 1_555
C3 N1 1_555 1_555
C4 N4 1_555 1_555
C5 C4 1_555 1_555
H1 C5 1_555 1_555
C6 C5 1_555 1_555
H2 C6 1_555 1_555
C7 C6 1_555 1_555
H3 C7 1_555 1_555
C8 N5 1_555 1_555
H4 C8 1_555 1_555
C9 N4 1_555 1_555
C10 C9 1_555 1_555
H5 C10 1_555 1_555
C11 C10 1_555 1_555
H6 C11 1_555 1_555
C12 C11 1_555 1_555
H7 C12 1_555 1_555
C13 N6 1_555 1_555
H8 C13 1_555 1_555
C14 N7 1_555 1_555
C15 C14 1_555 1_555
H9 C15 1_555 1_555
C16 C15 1_555 1_555
H10 C16 1_555 1_555
C17 C16 1_555 1_555
H11 C17 1_555 1_555
C18 N8 1_555 1_555
H12 C18 1_555 1_555
C19 N7 1_555 1_555
C20 C19 1_555 1_555
H13 C20 1_555 1_555
C21 C20 1_555 1_555
H14 C21 1_555 1_555
C22 C21 1_555 1_555
H15 C22 1_555 1_555
C23 N9 1_555 1_555
H16 C23 1_555 1_555
C24 N10 1_555 1_555
C25 C24 1_555 1_555
H17 C25 1_555 1_555
C26 C25 1_555 1_555
H18 C26 1_555 1_555
C27 C26 1_555 1_555
H19 C27 1_555 1_555
C28 N11 1_555 1_555
H20 C28 1_555 1_555
C29 N10 1_555 1_555
C30 C29 1_555 1_555
H21 C30 1_555 1_555
C31 C30 1_555 1_555
H22 C31 1_555 1_555
C32 C31 1_555 1_555
H23 C32 1_555 1_555
C33 N12 1_555 1_555
H24 C33 1_555 1_555
N13 O1 1_555 1_555
O1 Cd1 1_555 1_555
O2 N13 1_555 1_555
O3 N13 1_555 1_555
N14 O4 1_555 1_555
O4 Cd1 1_555 1_555
O5 Cd1 1_555 1_555
O6 N14 1_555 1_555
N15 O7 1_555 1_555
O7 Cd2 1_555 1_555
O8 N15 1_555 1_555
O9 N15 1_555 1_555
Cd1A N5A 1_555 1_555
Cd1A_2 N11 1_555 1_555
Cd1_2 N11A 1_555 1_555
N1A C1A 1_555 1_555
N2A C1A 1_555 1_555
N3A C2A 1_555 1_555
N4A C1A 1_555 1_555
N5A C4A 1_555 1_555
N6A Cd1A 1_555 1_555
N7A C3A 1_555 1_555
N8A Cd2 1_555 1_555
N9A Cd2 1_555 1_555
N10A C2A 1_555 1_555
N11A C24A 1_555 1_555
N11A_2 Cd1 1_555 1_555
N11_2 Cd1A 1_555 1_555
N12A Cd1_2 1_555 1_555
N12A_2 Cd1 1_555 1_555
N12_2 Cd1A 1_555 1_555
C2A N2A 1_555 1_555
C3A N1A 1_555 1_555
C4A N4A 1_555 1_555
C5A C4A 1_555 1_555
H1A C5A 1_555 1_555
C6A C5A 1_555 1_555
H2A C6A 1_555 1_555
C7A C6A 1_555 1_555
H3A C7A 1_555 1_555
C8A N5A 1_555 1_555
H4A C8A 1_555 1_555
C9A N4A 1_555 1_555
C10A C9A 1_555 1_555
H5A C10A 1_555 1_555
C11A C10A 1_555 1_555
H6A C11A 1_555 1_555
C12A C11A 1_555 1_555
H7A C12A 1_555 1_555
C13A N6A 1_555 1_555
H8A C13A 1_555 1_555
C14A N7A 1_555 1_555
C15A C14A 1_555 1_555
H9A C15A 1_555 1_555
C16A C15A 1_555 1_555
H10A C16A 1_555 1_555
C17A C16A 1_555 1_555
H11A C17A 1_555 1_555
C18A N8A 1_555 1_555
H12A C18A 1_555 1_555
C19A N7A 1_555 1_555
C20A C19A 1_555 1_555
H13A C20A 1_555 1_555
C21A C20A 1_555 1_555
H14A C21A 1_555 1_555
C22A C21A 1_555 1_555
H15A C22A 1_555 1_555
C23A N9A 1_555 1_555
H16A C23A 1_555 1_555
C24A N10A 1_555 1_555
C25A C24A 1_555 1_555
H17A C25A 1_555 1_555
C26A C25A 1_555 1_555
H18A C26A 1_555 1_555
C27A C26A 1_555 1_555
H19A C27A 1_555 1_555
C28A N11A 1_555 1_555
H20A C28A 1_555 1_555
C29A N10A 1_555 1_555
C30A C29A 1_555 1_555
H21A C30A 1_555 1_555
C31A C30A 1_555 1_555
H22A C31A 1_555 1_555
C32A C31A 1_555 1_555
H23A C32A 1_555 1_555
C33A N12A 1_555 1_555
H24A C33A 1_555 1_555
N13A O1A 1_555 1_555
O1A Cd1A 1_555 1_555
O2A N13A 1_555 1_555
O3A N13A 1_555 1_555
N14A O4A 1_555 1_555
O4A Cd1A 1_555 1_555
O5A Cd1A 1_555 1_555
O6A N14A 1_555 1_555
N15A O7A 1_555 1_555
O7A Cd2 1_555 1_555
O8A N15A 1_555 1_555
O9A N15A 1_555 1_555
N3 C3 1_555 1_555
N6 C9 1_555 1_555
N9 C19 1_555 1_555
N12 Cd1A_2 1_555 1_555
C7 C8 1_555 1_555
C12 C13 1_555 1_555
C17 C18 1_555 1_555
C22 C23 1_555 1_555
C27 C28 1_555 1_555
C32 C33 1_555 1_555
N14 O5 1_555 1_555
N3A C3A 1_555 1_555
N6A C9A 1_555 1_555
N8A C14A 1_555 1_555
N9A C19A 1_555 1_555
N12A C29A 1_555 1_555
C7A C8A 1_555 1_555
C12A C13A 1_555 1_555
C17A C18A 1_555 1_555
C22A C23A 1_555 1_555
C27A C28A 1_555 1_555
C32A C33A 1_555 1_555
N14A O5A 1_555 1_555

#END
