
#######################################################################
#
#                 Cambridge Crystallographic Data Centre
#                                CCDC 
#
#######################################################################
#
# If this CIF has been generated from an entry in the Cambridge 
# Structural Database, then it will include bibliographic, chemical, 
# crystal, experimental, refinement or atomic coordinate data resulting 
# from the CCDC's data processing and validation procedures.
#
#######################################################################

data_MASVOT
_symmetry_cell_setting           monoclinic
_symmetry_space_group_name_H-M   'C 2/c'
_symmetry_Int_Tables_number      15
_space_group_name_Hall           '-C 2yn'
loop_
_symmetry_equiv_pos_site_id
_symmetry_equiv_pos_as_xyz
1 x,y,z
2 -x,y,1/2-z
3 1/2+x,1/2+y,z
4 1/2-x,1/2+y,1/2-z
5 -x,-y,-z
6 x,-y,1/2+z
7 1/2-x,1/2-y,-z
8 1/2+x,1/2-y,1/2+z
_cell_length_a                   11.115(5)
_cell_length_b                   14.361(6)
_cell_length_c                   14.281(5)
_cell_angle_alpha                90
_cell_angle_beta                 92.75(5)
_cell_angle_gamma                90
_cell_volume                     2276.94
loop_
_atom_site_label
_atom_site_type_symbol
_atom_site_fract_x
_atom_site_fract_y
_atom_site_fract_z
C1 C 0.1151(7) -0.1752(6) -0.1715(6)
H1 H 0.1150 -0.1957 -0.2333
C2 C 0.1043(7) -0.2035(6) -0.0214(6)
C3 C 0.1263(7) -0.1112(6) 0.0049(5)
C4 C 0.1383(7) -0.0480(5) -0.0695(6)
C5 C 0.1063(7) -0.1876(6) 0.1308(6)
H2 H 0.1019 -0.2026 0.1939
C6 C 0.0497(8) -0.3483(6) 0.0676(7)
H3 H 0.0645 -0.3702 0.1314
H4 H 0.0954 -0.3871 0.0266
C7 C -0.0847(8) -0.3569(6) 0.0403(6)
H5 H -0.1022 -0.4207 0.0220
H6 H -0.1036 -0.3174 -0.0135
N1 N 0.1314(6) -0.0833(5) -0.1584(4)
N2 N 0.0990(6) -0.2401(5) -0.1076(5)
N3 N 0.1556(6) 0.0431(5) -0.0572(5)
H7 H 0.1623 0.0789 -0.1049
H8 H 0.1601 0.0661 -0.0015
N4 N 0.1285(6) -0.1021(5) 0.1008(4)
N5 N 0.0906(6) -0.2513(4) 0.0608(5)
O1 O -0.1445(6) -0.3873(5) 0.2108(4)
O2 O -0.3037(5) -0.3406(4) 0.1001(4)
O3 O -0.1531(6) -0.2275(4) 0.1544(4)
S1 S -0.17843(19) -0.32508(14) 0.13318(14)
Ag1 Ag 0.15325(7) 0.00218(5) 0.21241(4)
N1E N 0.1314(6) 0.0833(5) 0.3416(4)
Ag1E Ag 0.15325(7) -0.00218(5) -0.28759(4)
O4 O 0.3381(17) -0.1036(10) 0.2858(9)
O5 O 0.5423(18) -0.0586(10) 0.3629(10)
loop_
_geom_bond_atom_site_label_1
_geom_bond_atom_site_label_2
_geom_bond_site_symmetry_1
_geom_bond_site_symmetry_2
C1 H1 1_555 1_555
C2 C3 1_555 1_555
C3 C4 1_555 1_555
C4 N1 1_555 1_555
C5 H2 1_555 1_555
C6 H3 1_555 1_555
H4 C6 1_555 1_555
C7 C6 1_555 1_555
H5 C7 1_555 1_555
H6 C7 1_555 1_555
N1 C1 1_555 1_555
N2 C1 1_555 1_555
N3 C4 1_555 1_555
H7 N3 1_555 1_555
H8 N3 1_555 1_555
N4 C3 1_555 1_555
N5 C2 1_555 1_555
O1 S1 1_555 1_555
O2 S1 1_555 1_555
O3 S1 1_555 1_555
S1 C7 1_555 1_555
Ag1 N4 1_555 1_555
N1E Ag1 1_555 1_555
Ag1E N1 1_555 1_555
C2 N2 1_555 1_555
C5 N4 1_555 1_555
C5 N5 1_555 1_555
C6 N5 1_555 1_555

#END
