
#######################################################################
#
#                 Cambridge Crystallographic Data Centre
#                                CCDC 
#
#######################################################################
#
# If this CIF has been generated from an entry in the Cambridge 
# Structural Database, then it will include bibliographic, chemical, 
# crystal, experimental, refinement or atomic coordinate data resulting 
# from the CCDC's data processing and validation procedures.
#
#######################################################################

data_MASVUY
_symmetry_cell_setting           triclinic
_symmetry_space_group_name_H-M   'P -1'
_symmetry_Int_Tables_number      2
_space_group_name_Hall           '-P 1'
loop_
_symmetry_equiv_pos_site_id
_symmetry_equiv_pos_as_xyz
1 x,y,z
2 -x,-y,-z
_cell_length_a                   8.165(4)
_cell_length_b                   8.526(4)
_cell_length_c                   11.109(5)
_cell_angle_alpha                78.098(7)
_cell_angle_beta                 85.757(8)
_cell_angle_gamma                67.334(7)
_cell_volume                     698.268
loop_
_atom_site_label
_atom_site_type_symbol
_atom_site_fract_x
_atom_site_fract_y
_atom_site_fract_z
Ni1 Ni 0.0000 1.0000 0.0000
O1 O 0.23947(16) 0.77918(15) 0.00044(11)
O2 O 0.38419(17) 0.83914(16) -0.16992(12)
N1 N 0.09958(19) 1.11421(18) 0.11178(14)
H1 H 0.0021 1.2045 0.1290
N2 N -0.0759(2) 0.84907(18) 0.14613(14)
C1 C 0.3630(2) 0.7390(2) -0.07498(16)
C2 C 0.0580(3) 0.9310(3) 0.30390(17)
H3 H 0.0986 0.8882 0.3887
H4 H -0.0595 1.0205 0.3049
C4 C 0.1808(3) 1.0192(2) 0.23617(18)
C5 C 0.0371(3) 0.7818(2) 0.25848(17)
H6 H 0.1549 0.7034 0.2376
C6 C -0.1059(3) 0.7166(2) 0.09426(19)
H7 H 0.0069 0.6258 0.0819
H8 H -0.1757 0.6648 0.1507
C7 C 0.2035(3) 1.1987(3) 0.02790(19)
H9 H 0.3195 1.1132 0.0146
H10 H 0.2203 1.2854 0.0644
C8 C 0.3692(3) 0.8883(3) 0.2241(2)
H11 H 0.3681 0.8143 0.1699
H12 H 0.4123 0.8195 0.3037
H13 H 0.4453 0.9488 0.1912
C10 C 0.1887(3) 1.1485(3) 0.3116(2)
H14 H 0.2606 1.2088 0.2695
H15 H 0.2394 1.0871 0.3910
H16 H 0.0709 1.2303 0.3213
C11 C 0.4983(2) 0.5570(2) -0.05000(17)
H17 H 0.5849 0.5231 -0.1090
C12 C -0.0386(4) 0.6814(3) 0.3623(2)
H18 H -0.1565 0.7548 0.3812
H19 H 0.0354 0.6446 0.4341
H20 H -0.0423 0.5818 0.3369
H21 H -0.170(3) 0.916(3) 0.1644(17)
Ni1_2 Ni 1.0000 0.0000 0.0000
O1A O 0.76053(16) 0.22082(15) -0.00044(11)
O1A_2 O -0.23947(16) 1.22082(15) -0.00044(11)
O2A O 0.61581(17) 0.16086(16) 0.16992(12)
N1A N -0.09958(19) 0.88579(18) -0.11178(14)
H1A H -0.0021 0.7955 -0.1290
N2A N 0.0759(2) 1.15093(18) -0.14613(14)
C1A C 0.6370(2) 0.2610(2) 0.07498(16)
C2A C -0.0580(3) 1.0690(3) -0.30390(17)
H3A H -0.0986 1.1118 -0.3887
H4A H 0.0595 0.9795 -0.3049
C4A C -0.1808(3) 0.9808(2) -0.23617(18)
C5A C -0.0371(3) 1.2182(2) -0.25848(17)
H6A H -0.1549 1.2966 -0.2376
C6A C 0.1059(3) 1.2834(2) -0.09426(19)
H7A H -0.0069 1.3742 -0.0819
H8A H 0.1757 1.3352 -0.1507
C7A C -0.2035(3) 0.8013(3) -0.02790(19)
H9A H -0.3195 0.8868 -0.0146
H10A H -0.2203 0.7146 -0.0644
C8A C -0.3692(3) 1.1117(3) -0.2241(2)
H11A H -0.3681 1.1857 -0.1699
H12A H -0.4123 1.1805 -0.3037
H13A H -0.4453 1.0512 -0.1912
C10A C -0.1887(3) 0.8515(3) -0.3116(2)
H14A H -0.2606 0.7912 -0.2695
H15A H -0.2394 0.9129 -0.3910
H16A H -0.0709 0.7697 -0.3213
C11A C 0.5017(2) 0.4430(2) 0.05000(17)
H17A H 0.4151 0.4769 0.1090
C12A C 0.0386(4) 1.3186(3) -0.3623(2)
H18A H 0.1565 1.2452 -0.3812
H19A H -0.0354 1.3554 -0.4341
H20A H 0.0423 1.4182 -0.3369
H21A H 0.170(3) 1.084(3) -0.1644(17)
O3 O 0.4734(2) 0.6994(2) 0.63944(15)
H2 H 0.4420 0.7492 0.6979
O4 O 0.2641(2) 0.5956(2) 0.70859(17)
C3 C 0.4331(3) 0.5026(3) 0.53680(18)
H5 H 0.3671 0.4387 0.5259
C9 C 0.3800(3) 0.6041(3) 0.63679(19)
O3A O 0.5266(2) 0.3006(2) 0.36056(15)
H2A H 0.5580 0.2508 0.3021
O4A O 0.7359(2) 0.4044(2) 0.29141(17)
C3A C 0.5669(3) 0.4974(3) 0.46320(18)
H5A H 0.6329 0.5613 0.4741
C9A C 0.6200(3) 0.3959(3) 0.36321(19)
loop_
_geom_bond_atom_site_label_1
_geom_bond_atom_site_label_2
_geom_bond_site_symmetry_1
_geom_bond_site_symmetry_2
Ni1 O1 1_555 1_555
O1 C1 1_555 1_555
O2 C1 1_555 1_555
N1 Ni1 1_555 1_555
H1 N1 1_555 1_555
N2 Ni1 1_555 1_555
O3 H2 1_555 1_555
C1 C11 1_555 1_555
O4 C9 1_555 1_555
C2 H3 1_555 1_555
H4 C2 1_555 1_555
C3 H5 1_555 1_555
C4 N1 1_555 1_555
C5 N2 1_555 1_555
H6 C5 1_555 1_555
C6 N2 1_555 1_555
H7 C6 1_555 1_555
H8 C6 1_555 1_555
C7 N1 1_555 1_555
H9 C7 1_555 1_555
H10 C7 1_555 1_555
C8 C4 1_555 1_555
H11 C8 1_555 1_555
H12 C8 1_555 1_555
H13 C8 1_555 1_555
C9 O3 1_555 1_555
C10 C4 1_555 1_555
H14 C10 1_555 1_555
H15 C10 1_555 1_555
H16 C10 1_555 1_555
C11 H17 1_555 1_555
C12 C5 1_555 1_555
H18 C12 1_555 1_555
H19 C12 1_555 1_555
H20 C12 1_555 1_555
H21 N2 1_555 1_555
Ni1_2 O1A 1_555 1_555
O1A C1A 1_555 1_555
O1A_2 Ni1 1_555 1_555
O2A C1A 1_555 1_555
N1A Ni1 1_555 1_555
H1A N1A 1_555 1_555
N2A Ni1 1_555 1_555
O3A H2A 1_555 1_555
C1A C11A 1_555 1_555
O4A C9A 1_555 1_555
C2A H3A 1_555 1_555
H4A C2A 1_555 1_555
C3A C3 1_555 1_555
H5A C3A 1_555 1_555
C4A N1A 1_555 1_555
C5A N2A 1_555 1_555
H6A C5A 1_555 1_555
C6A C7 1_555 1_555
H7A C6A 1_555 1_555
H8A C6A 1_555 1_555
C7A C6 1_555 1_555
H9A C7A 1_555 1_555
H10A C7A 1_555 1_555
C8A C4A 1_555 1_555
H11A C8A 1_555 1_555
H12A C8A 1_555 1_555
H13A C8A 1_555 1_555
C9A O3A 1_555 1_555
C10A C4A 1_555 1_555
H14A C10A 1_555 1_555
H15A C10A 1_555 1_555
H16A C10A 1_555 1_555
C11A C11 1_555 1_555
H17A C11A 1_555 1_555
C12A C5A 1_555 1_555
H18A C12A 1_555 1_555
H19A C12A 1_555 1_555
H20A C12A 1_555 1_555
H21A N2A 1_555 1_555
C2 C4 1_555 1_555
C2 C5 1_555 1_555
C3 C9 1_555 1_555
N1A C7A 1_555 1_555
N2A C6A 1_555 1_555
C2A C4A 1_555 1_555
C2A C5A 1_555 1_555
C3A C9A 1_555 1_555

#END
