
#######################################################################
#
#                 Cambridge Crystallographic Data Centre
#                                CCDC 
#
#######################################################################
#
# If this CIF has been generated from an entry in the Cambridge 
# Structural Database, then it will include bibliographic, chemical, 
# crystal, experimental, refinement or atomic coordinate data resulting 
# from the CCDC's data processing and validation procedures.
#
#######################################################################

data_MASWAE03
_symmetry_cell_setting           monoclinic
_symmetry_space_group_name_H-M   'C 2/c'
_symmetry_Int_Tables_number      15
_space_group_name_Hall           '-C 2yn'
loop_
_symmetry_equiv_pos_site_id
_symmetry_equiv_pos_as_xyz
1 x,y,z
2 -x,y,1/2-z
3 1/2+x,1/2+y,z
4 1/2-x,1/2+y,1/2-z
5 -x,-y,-z
6 x,-y,1/2+z
7 1/2-x,1/2-y,-z
8 1/2+x,1/2-y,1/2+z
_cell_length_a                   15.4309(6)
_cell_length_b                   12.7059(6)
_cell_length_c                   6.7035(4)
_cell_angle_alpha                90
_cell_angle_beta                 102.115(4)
_cell_angle_gamma                90
_cell_volume                     1285.04
loop_
_atom_site_label
_atom_site_type_symbol
_atom_site_fract_x
_atom_site_fract_y
_atom_site_fract_z
Zn1 Zn 0.0000 0.275909(18) 0.7500
S1 S 0.0000 0.34323(4) 0.2500
O1 O -0.02357(10) 0.27644(9) 0.41016(17)
O2 O 0.09821(8) 0.38568(9) 0.74472(17)
H1 H 0.0908 0.4521 0.7992
H2 H 0.1060 0.3917 0.6278
O3 O 0.07612(8) 0.41032(10) 0.34262(18)
N1 N 0.08734(9) 0.14680(10) 0.77626(19)
C1 C 0.17594(11) 0.15323(14) 0.8044(3)
H3 H 0.2021 0.2195 0.8126
C2 C 0.04930(10) 0.05156(12) 0.7650(2)
C3 C 0.22966(12) 0.06588(16) 0.8215(3)
H4 H 0.2909 0.0727 0.8408
C4 C 0.19044(13) -0.03237(15) 0.8094(3)
H5 H 0.2252 -0.0927 0.8205
C5 C 0.09940(13) -0.04051(13) 0.7808(3)
H6 H 0.0721 -0.1061 0.7723
Zn1_2 Zn 0.0000 0.275909(18) -0.2500
O1A O 0.02357(10) 0.27644(9) 0.08984(17)
O1A_2 O 0.02357(10) 0.27644(9) 1.08984(17)
O2A O -0.09821(8) 0.38568(9) 0.75528(17)
H1A H -0.0908 0.4521 0.7008
H2A H -0.1060 0.3917 0.8722
O3A O -0.07612(8) 0.41032(10) 0.15738(18)
N1A N -0.08734(9) 0.14680(10) 0.72374(19)
C1A C -0.17594(11) 0.15323(14) 0.6956(3)
H3A H -0.2021 0.2195 0.6874
C2A C -0.04930(10) 0.05156(12) 0.7350(2)
C3A C -0.22966(12) 0.06588(16) 0.6785(3)
H4A H -0.2909 0.0727 0.6592
C4A C -0.19044(13) -0.03237(15) 0.6906(3)
H5A H -0.2252 -0.0927 0.6795
C5A C -0.09940(13) -0.04051(13) 0.7192(3)
H6A H -0.0721 -0.1061 0.7277
loop_
_geom_bond_atom_site_label_1
_geom_bond_atom_site_label_2
_geom_bond_site_symmetry_1
_geom_bond_site_symmetry_2
Zn1 O1 1_555 1_555
S1 O1 1_555 1_555
O2 Zn1 1_555 1_555
H1 O2 1_555 1_555
H2 O2 1_555 1_555
O3 S1 1_555 1_555
N1 Zn1 1_555 1_555
C1 N1 1_555 1_555
H3 C1 1_555 1_555
C2 N1 1_555 1_555
C3 C1 1_555 1_555
H4 C3 1_555 1_555
C4 C3 1_555 1_555
H5 C4 1_555 1_555
C5 C2 1_555 1_555
H6 C5 1_555 1_555
Zn1_2 O1A 1_555 1_555
O1A S1 1_555 1_555
O1A_2 Zn1 1_555 1_555
O2A Zn1 1_555 1_555
H1A O2A 1_555 1_555
H2A O2A 1_555 1_555
O3A S1 1_555 1_555
N1A Zn1 1_555 1_555
C1A N1A 1_555 1_555
H3A C1A 1_555 1_555
C2A C2 1_555 1_555
C3A C1A 1_555 1_555
H4A C3A 1_555 1_555
C4A C3A 1_555 1_555
H5A C4A 1_555 1_555
C5A C2A 1_555 1_555
H6A C5A 1_555 1_555
C4 C5 1_555 1_555
N1A C2A 1_555 1_555
C4A C5A 1_555 1_555

#END
