
#######################################################################
#
#                 Cambridge Crystallographic Data Centre
#                                CCDC 
#
#######################################################################
#
# If this CIF has been generated from an entry in the Cambridge 
# Structural Database, then it will include bibliographic, chemical, 
# crystal, experimental, refinement or atomic coordinate data resulting 
# from the CCDC's data processing and validation procedures.
#
#######################################################################

data_MASWAE
_symmetry_cell_setting           monoclinic
_symmetry_space_group_name_H-M   'C 2/c'
_symmetry_Int_Tables_number      15
_space_group_name_Hall           '-C 2yn'
loop_
_symmetry_equiv_pos_site_id
_symmetry_equiv_pos_as_xyz
1 x,y,z
2 1/2+x,1/2+y,z
3 -x,y,1/2-z
4 1/2-x,1/2+y,1/2-z
5 -x,-y,-z
6 1/2-x,1/2-y,-z
7 x,-y,1/2+z
8 1/2+x,1/2-y,1/2+z
_cell_length_a                   15.421(3)
_cell_length_b                   12.701(3)
_cell_length_c                   6.6940(10)
_cell_angle_alpha                90
_cell_angle_beta                 102.13(3)
_cell_angle_gamma                90
_cell_volume                     1281.83
loop_
_atom_site_label
_atom_site_type_symbol
_atom_site_fract_x
_atom_site_fract_y
_atom_site_fract_z
Zn1 Zn 0.0000 0.27590(3) -0.7500
S1 S 0.0000 0.34307(7) -1.2500
O1 O -0.02369(16) 0.27637(15) -1.0897(3)
O2 O -0.07592(14) 0.41057(15) -1.3428(3)
N1 N 0.08714(15) 0.14648(17) -0.7239(3)
C1 C 0.17580(19) 0.1532(2) -0.6948(4)
H1 H 0.2019 0.2195 -0.6851
C2 C 0.2297(2) 0.0655(3) -0.6788(5)
H2 H 0.2909 0.0724 -0.6603
C3 C 0.1905(2) -0.0324(2) -0.6908(5)
H3 H 0.2252 -0.0929 -0.6803
C4 C 0.0994(2) -0.0401(2) -0.7187(4)
H4 H 0.0720 -0.1057 -0.7263
C5 C 0.04939(17) 0.05134(19) -0.7350(4)
O3 O 0.09831(15) 0.38539(15) -0.7556(3)
H5 H 0.090(3) 0.391(3) -0.871(4)
H6 H 0.090(2) 0.438(2) -0.711(4)
Zn1_2 Zn 0.0000 0.27590(3) -1.7500
O1B O 0.02369(16) 0.27637(15) -1.4103(3)
O1B_2 O 0.02369(16) 0.27637(15) -0.4103(3)
O2B O 0.07592(14) 0.41057(15) -1.1572(3)
N1B N -0.08714(15) 0.14648(17) -0.7761(3)
C1B C -0.17580(19) 0.1532(2) -0.8052(4)
H1B H -0.2019 0.2195 -0.8149
C2B C -0.2297(2) 0.0655(3) -0.8212(5)
H2B H -0.2909 0.0724 -0.8397
C3B C -0.1905(2) -0.0324(2) -0.8092(5)
H3B H -0.2252 -0.0929 -0.8197
C4B C -0.0994(2) -0.0401(2) -0.7813(4)
H4B H -0.0720 -0.1057 -0.7737
C5B C -0.04939(17) 0.05134(19) -0.7650(4)
O3B O -0.09831(15) 0.38539(15) -0.7444(3)
H5B H -0.090(3) 0.391(3) -0.629(4)
H6B H -0.090(2) 0.438(2) -0.789(4)
loop_
_geom_bond_atom_site_label_1
_geom_bond_atom_site_label_2
_geom_bond_site_symmetry_1
_geom_bond_site_symmetry_2
Zn1 O1 1_555 1_555
S1 O1 1_555 1_555
O2 S1 1_555 1_555
N1 Zn1 1_555 1_555
C1 N1 1_555 1_555
H1 C1 1_555 1_555
C2 C1 1_555 1_555
H2 C2 1_555 1_555
C3 C2 1_555 1_555
H3 C3 1_555 1_555
C4 C3 1_555 1_555
H4 C4 1_555 1_555
C5 N1 1_555 1_555
O3 Zn1 1_555 1_555
H5 O3 1_555 1_555
H6 O3 1_555 1_555
Zn1_2 O1B 1_555 1_555
O1B S1 1_555 1_555
O1B_2 Zn1 1_555 1_555
O2B S1 1_555 1_555
N1B Zn1 1_555 1_555
C1B N1B 1_555 1_555
H1B C1B 1_555 1_555
C2B C1B 1_555 1_555
H2B C2B 1_555 1_555
C3B C2B 1_555 1_555
H3B C3B 1_555 1_555
C4B C3B 1_555 1_555
H4B C4B 1_555 1_555
C5B C5 1_555 1_555
O3B Zn1 1_555 1_555
H5B O3B 1_555 1_555
H6B O3B 1_555 1_555
C4 C5 1_555 1_555
N1B C5B 1_555 1_555
C4B C5B 1_555 1_555

#END
