
#######################################################################
#
#                 Cambridge Crystallographic Data Centre
#                                CCDC 
#
#######################################################################
#
# If this CIF has been generated from an entry in the Cambridge 
# Structural Database, then it will include bibliographic, chemical, 
# crystal, experimental, refinement or atomic coordinate data resulting 
# from the CCDC's data processing and validation procedures.
#
#######################################################################

data_MASWAE01
_symmetry_cell_setting           monoclinic
_symmetry_space_group_name_H-M   'C 2/c'
_symmetry_Int_Tables_number      15
_space_group_name_Hall           '-C 2yn'
loop_
_symmetry_equiv_pos_site_id
_symmetry_equiv_pos_as_xyz
1 x,y,z
2 1/2+x,1/2+y,z
3 -x,y,1/2-z
4 1/2-x,1/2+y,1/2-z
5 -x,-y,-z
6 1/2-x,1/2-y,-z
7 x,-y,1/2+z
8 1/2+x,1/2-y,1/2+z
_cell_length_a                   15.4302(2)
_cell_length_b                   12.7113(4)
_cell_length_c                   6.7016(2)
_cell_angle_alpha                90
_cell_angle_beta                 102.1790(10)
_cell_angle_gamma                90
_cell_volume                     1284.85
loop_
_atom_site_label
_atom_site_type_symbol
_atom_site_fract_x
_atom_site_fract_y
_atom_site_fract_z
S1 S 0.0000 0.34320(6) 0.2500
Zn1 Zn 0.0000 0.27593(3) -0.2500
O1 O 0.02345(14) 0.27640(12) 0.0902(3)
O2 O -0.07581(12) 0.41022(13) 0.1578(3)
O3 O -0.09843(12) 0.3854(2) -0.2450(3)
N1 N 0.08735(12) 0.14672(15) -0.2239(3)
C1 C 0.0493(2) 0.0513(2) -0.2351(3)
C2 C 0.0995(2) -0.0403(2) -0.2192(4)
C3 C 0.1902(2) -0.0322(2) -0.1903(4)
C4 C 0.2295(2) 0.0658(2) -0.1778(4)
C5 C 0.1759(2) 0.1527(2) -0.1951(4)
H1 H 0.1976(19) 0.2174(21) -0.1924(41)
H2 H 0.2874(20) 0.0743(23) -0.1593(43)
H3 H 0.0726(17) -0.1037(22) -0.2290(38)
H4 H 0.2251(17) -0.0905(21) -0.1822(38)
H5 H -0.0942(20) 0.3907(24) -0.1232(56)
H6 H -0.0874(25) 0.4393(31) -0.2840(58)
Zn1_2 Zn 0.0000 0.27593(3) 0.7500
O1B O -0.02345(14) 0.27640(12) 0.4098(3)
O1B_2 O -0.02345(14) 0.27640(12) -0.5902(3)
O2B O 0.07581(12) 0.41022(13) 0.3422(3)
O3B O 0.09843(12) 0.3854(2) -0.2550(3)
N1B N -0.08735(12) 0.14672(15) -0.2761(3)
C1B C -0.0493(2) 0.0513(2) -0.2649(3)
C2B C -0.0995(2) -0.0403(2) -0.2808(4)
C3B C -0.1902(2) -0.0322(2) -0.3097(4)
C4B C -0.2295(2) 0.0658(2) -0.3222(4)
C5B C -0.1759(2) 0.1527(2) -0.3049(4)
H1B H -0.1976(19) 0.2174(21) -0.3076(41)
H2B H -0.2874(20) 0.0743(23) -0.3407(43)
H3B H -0.0726(17) -0.1037(22) -0.2710(38)
H4B H -0.2251(17) -0.0905(21) -0.3178(38)
H5B H 0.0942(20) 0.3907(24) -0.3768(56)
H6B H 0.0874(25) 0.4393(31) -0.2160(58)
loop_
_geom_bond_atom_site_label_1
_geom_bond_atom_site_label_2
_geom_bond_site_symmetry_1
_geom_bond_site_symmetry_2
S1 O1 1_555 1_555
Zn1 O1 1_555 1_555
O2 S1 1_555 1_555
O3 Zn1 1_555 1_555
N1 Zn1 1_555 1_555
C1 N1 1_555 1_555
C2 C1 1_555 1_555
C3 C2 1_555 1_555
C4 C3 1_555 1_555
C5 N1 1_555 1_555
H1 C5 1_555 1_555
H2 C4 1_555 1_555
H3 C2 1_555 1_555
H4 C3 1_555 1_555
H5 O3 1_555 1_555
H6 O3 1_555 1_555
Zn1_2 O1B 1_555 1_555
O1B S1 1_555 1_555
O1B_2 Zn1 1_555 1_555
O2B S1 1_555 1_555
O3B Zn1 1_555 1_555
N1B Zn1 1_555 1_555
C1B C1 1_555 1_555
C2B C1B 1_555 1_555
C3B C2B 1_555 1_555
C4B C3B 1_555 1_555
C5B N1B 1_555 1_555
H1B C5B 1_555 1_555
H2B C4B 1_555 1_555
H3B C2B 1_555 1_555
H4B C3B 1_555 1_555
H5B O3B 1_555 1_555
H6B O3B 1_555 1_555
C4 C5 1_555 1_555
N1B C1B 1_555 1_555
C4B C5B 1_555 1_555

#END
