
#######################################################################
#
#                 Cambridge Crystallographic Data Centre
#                                CCDC 
#
#######################################################################
#
# If this CIF has been generated from an entry in the Cambridge 
# Structural Database, then it will include bibliographic, chemical, 
# crystal, experimental, refinement or atomic coordinate data resulting 
# from the CCDC's data processing and validation procedures.
#
#######################################################################

data_MASXOU
_symmetry_cell_setting           monoclinic
_symmetry_space_group_name_H-M   'C 2'
_symmetry_Int_Tables_number      5
_space_group_name_Hall           'C 2y'
loop_
_symmetry_equiv_pos_site_id
_symmetry_equiv_pos_as_xyz
1 x,y,z
2 -x,y,-z
3 1/2+x,1/2+y,z
4 1/2-x,1/2+y,-z
_cell_length_a                   22.035(2)
_cell_length_b                   8.9883(6)
_cell_length_c                   13.1047(8)
_cell_angle_alpha                90
_cell_angle_beta                 100.373(5)
_cell_angle_gamma                90
_cell_volume                     2553.06
loop_
_atom_site_label
_atom_site_type_symbol
_atom_site_fract_x
_atom_site_fract_y
_atom_site_fract_z
Zn1 Zn 0.789264(10) 0.20850(3) 0.434333(16)
N1 N 0.83642(10) 0.0535(2) 0.32612(17)
N2 N 0.71453(9) 0.1100(2) 0.33325(15)
N3 N 0.86782(9) 0.1019(2) 0.52989(15)
N4 N 0.83261(10) 0.3503(2) 0.34643(16)
O1 O 0.91332(8) 0.3870(2) 0.25775(14)
O2 O 0.75368(8) 0.41677(18) 0.46663(13)
O3 O 0.75564(8) 0.65986(18) 0.43780(12)
C1 C 0.79036(11) 0.0218(3) 0.23349(18)
H1 H 0.7989 -0.0772 0.2061
H2 H 0.7940 0.0966 0.1795
C2 C 0.72524(11) 0.0238(3) 0.25498(18)
C3 C 0.67778(14) -0.0527(4) 0.1919(2)
H3 H 0.6865 -0.1152 0.1379
C4 C 0.61769(13) -0.0369(4) 0.2087(2)
H4 H 0.5847 -0.0883 0.1666
C5 C 0.60697(12) 0.0558(3) 0.2886(2)
H5 H 0.5663 0.0712 0.3011
C6 C 0.65665(12) 0.1250(3) 0.34918(19)
H6 H 0.6494 0.1861 0.4049
C7 C 0.85533(12) -0.0780(3) 0.3895(2)
H7 H 0.8837 -0.1395 0.3565
H8 H 0.8188 -0.1390 0.3958
C8 C 0.88747(11) -0.0273(3) 0.49584(19)
C9 C 0.93394(12) -0.1102(3) 0.5549(2)
H9 H 0.9472 -0.2012 0.5292
C10 C 0.96102(12) -0.0577(4) 0.6528(2)
H10 H 0.9928 -0.1130 0.6949
C11 C 0.94112(13) 0.0756(4) 0.6876(2)
H11 H 0.9590 0.1139 0.7537
C12 C 0.89448(12) 0.1519(3) 0.62398(19)
H12 H 0.8807 0.2435 0.6478
C13 C 0.88882(13) 0.1394(3) 0.3019(2)
H13 H 0.8970 0.1086 0.2331
H14 H 0.9261 0.1166 0.3540
C14 C 0.87710(12) 0.3056(3) 0.30101(19)
C15 C 0.81832(11) 0.5078(2) 0.34965(18)
H15 H 0.8571 0.5613 0.3807
C16 C 0.77154(11) 0.5279(3) 0.42328(16)
C17 C 0.79371(11) 0.5780(3) 0.24199(17)
H16 H 0.7717 0.6714 0.2521
H17 H 0.8292 0.6038 0.2086
C18 C 0.75072(12) 0.4778(3) 0.17033(18)
C19 C 0.77228(14) 0.3990(3) 0.09289(19)
H18 H 0.8137 0.4121 0.0833
C20 C 0.73376(17) 0.3008(4) 0.0291(2)
H19 H 0.7491 0.2473 -0.0234
C21 C 0.67411(19) 0.2811(5) 0.0417(3)
H20 H 0.6482 0.2132 -0.0015
C22 C 0.65147(16) 0.3604(5) 0.1176(3)
H21 H 0.6098 0.3476 0.1258
C23 C 0.68977(16) 0.4593(5) 0.1823(3)
H22 H 0.6741 0.5136 0.2342
Zn1C Zn 0.710736(10) 0.70850(3) 0.565667(16)
O3C O 0.74436(8) 0.15986(18) 0.56220(12)
C24 C 0.95300(19) -0.3373(5) 0.2624(5)
H23 H 0.9952 -0.3453 0.3016
H24 H 0.9300 -0.4279 0.2725
H25 H 0.9326 -0.2511 0.2872
O4 O 0.9548(3) -0.3190(7) 0.1525(6)
H26 H 0.9913 -0.3026 0.1450
C25 C 0.57275(14) 0.7015(8) 0.9631(2)
H27 H 0.6127 0.7512 0.9668
H28 H 0.5767 0.5964 0.9455
H29 H 0.5595 0.7090 1.0305
O5 O 0.52885(12) 0.7698(3) 0.88683(19)
H30 H 0.5467 0.8093 0.8422
C26? C 1.0000 -0.5451(7) 0.5000
O6? O 0.9810(2) -0.4310(6) 0.4207(4)
loop_
_geom_bond_atom_site_label_1
_geom_bond_atom_site_label_2
_geom_bond_site_symmetry_1
_geom_bond_site_symmetry_2
Zn1 N1 1_555 1_555
N1 C1 1_555 1_555
N2 Zn1 1_555 1_555
N3 Zn1 1_555 1_555
N4 Zn1 1_555 1_555
O1 C14 1_555 1_555
O2 Zn1 1_555 1_555
O3 C16 1_555 1_555
C1 H1 1_555 1_555
H2 C1 1_555 1_555
C2 N2 1_555 1_555
C3 C2 1_555 1_555
H3 C3 1_555 1_555
C4 C3 1_555 1_555
H4 C4 1_555 1_555
C5 C4 1_555 1_555
H5 C5 1_555 1_555
C6 N2 1_555 1_555
H6 C6 1_555 1_555
C7 N1 1_555 1_555
H7 C7 1_555 1_555
H8 C7 1_555 1_555
C8 N3 1_555 1_555
C9 C8 1_555 1_555
H9 C9 1_555 1_555
C10 C9 1_555 1_555
H10 C10 1_555 1_555
C11 C10 1_555 1_555
H11 C11 1_555 1_555
C12 N3 1_555 1_555
H12 C12 1_555 1_555
C13 N1 1_555 1_555
H13 C13 1_555 1_555
H14 C13 1_555 1_555
C14 N4 1_555 1_555
C15 N4 1_555 1_555
H15 C15 1_555 1_555
C16 O2 1_555 1_555
C17 C15 1_555 1_555
H16 C17 1_555 1_555
H17 C17 1_555 1_555
C18 C17 1_555 1_555
C19 C18 1_555 1_555
H18 C19 1_555 1_555
C20 C19 1_555 1_555
H19 C20 1_555 1_555
C21 C20 1_555 1_555
H20 C21 1_555 1_555
C22 C21 1_555 1_555
H21 C22 1_555 1_555
C23 C18 1_555 1_555
H22 C23 1_555 1_555
C24 H23 1_555 1_555
H24 C24 1_555 1_555
H25 C24 1_555 1_555
O4 C24 1_555 1_555
H26 O4 1_555 1_555
C25 H27 1_555 1_555
H28 C25 1_555 1_555
H29 C25 1_555 1_555
O5 C25 1_555 1_555
H30 O5 1_555 1_555
Zn1C O3 1_555 1_555
O3C Zn1 1_555 1_555
C1 C2 1_555 1_555
C5 C6 1_555 1_555
C7 C8 1_555 1_555
C11 C12 1_555 1_555
C13 C14 1_555 1_555
C15 C16 1_555 1_555
C22 C23 1_555 1_555

#END
