
#######################################################################
#
#                 Cambridge Crystallographic Data Centre
#                                CCDC 
#
#######################################################################
#
# If this CIF has been generated from an entry in the Cambridge 
# Structural Database, then it will include bibliographic, chemical, 
# crystal, experimental, refinement or atomic coordinate data resulting 
# from the CCDC's data processing and validation procedures.
#
#######################################################################

data_MASXAF01
_symmetry_cell_setting           orthorhombic
_symmetry_space_group_name_H-M   'P b c n'
_symmetry_Int_Tables_number      60
_space_group_name_Hall           '-P 2n 2ab'
loop_
_symmetry_equiv_pos_site_id
_symmetry_equiv_pos_as_xyz
1 x,y,z
2 1/2-x,1/2-y,1/2+z
3 -x,y,1/2-z
4 1/2+x,1/2-y,-z
5 -x,-y,-z
6 1/2+x,1/2+y,1/2-z
7 x,-y,1/2+z
8 1/2-x,1/2+y,z
_cell_length_a                   14.173(2)
_cell_length_b                   10.1535(13)
_cell_length_c                   15.833(2)
_cell_angle_alpha                90
_cell_angle_beta                 90
_cell_angle_gamma                90
_cell_volume                     2278.46
loop_
_atom_site_label
_atom_site_type_symbol
_atom_site_fract_x
_atom_site_fract_y
_atom_site_fract_z
Ni1 Ni 0.0000 0.31002(4) 0.2500
Ni2 Ni 0.0000 0.0000 0.5000
N1 N 0.14491(19) 0.3286(2) 0.24103(15)
N2 N 0.0264(2) 0.4603(2) 0.33863(15)
N3 N 0.01278(19) 0.1691(2) 0.34431(15)
N4 N -0.2095(3) 0.0115(4) 0.4716(2)
C1 C 0.1835(2) 0.4233(3) 0.2907(2)
C2 C 0.2009(3) 0.2582(4) 0.1910(2)
H1 H 0.1745 0.1934 0.1570
C3 C 0.2976(3) 0.2786(5) 0.1881(3)
H2 H 0.3357 0.2289 0.1524
C4 C 0.3355(3) 0.3739(6) 0.2393(3)
H3 H 0.4001 0.3900 0.2382
C5 C 0.2786(3) 0.4450(4) 0.2917(3)
H4 H 0.3043 0.5077 0.3278
C6 C 0.1163(3) 0.4987(3) 0.34285(19)
C7 C -0.0381(3) 0.5240(3) 0.38491(19)
H5 H -0.1005 0.4961 0.3823
C8 C -0.0160(4) 0.6294(4) 0.4364(2)
H6 H -0.0623 0.6719 0.4679
C9 C 0.0759(4) 0.6692(4) 0.4395(3)
H7 H 0.0928 0.7403 0.4733
C10 C 0.1433(3) 0.6053(4) 0.3933(2)
H8 H 0.2059 0.6322 0.3954
C11 C 0.0115(2) 0.1025(3) 0.40237(18)
C12 C -0.1308(3) 0.0025(3) 0.4837(2)
N1B N -0.14491(19) 0.3286(2) 0.25897(15)
N2B N -0.0264(2) 0.4603(2) 0.16137(15)
N3B N -0.01278(19) 0.1691(2) 0.15569(15)
C1B C -0.1835(2) 0.4233(3) 0.2093(2)
C2B C -0.2009(3) 0.2582(4) 0.3090(2)
H1B H -0.1745 0.1934 0.3430
C3B C -0.2976(3) 0.2786(5) 0.3119(3)
H2B H -0.3357 0.2289 0.3476
C4B C -0.3355(3) 0.3739(6) 0.2607(3)
H3B H -0.4001 0.3900 0.2618
C5B C -0.2786(3) 0.4450(4) 0.2083(3)
H4B H -0.3043 0.5077 0.1722
C6B C -0.1163(3) 0.4987(3) 0.15715(19)
C7B C 0.0381(3) 0.5240(3) 0.11509(19)
H5B H 0.1005 0.4961 0.1177
C8B C 0.0160(4) 0.6294(4) 0.0636(2)
H6B H 0.0623 0.6719 0.0321
C9B C -0.0759(4) 0.6692(4) 0.0605(3)
H7B H -0.0928 0.7403 0.0267
C10B C -0.1433(3) 0.6053(4) 0.1067(2)
H8B H -0.2059 0.6322 0.1046
C11B C -0.0115(2) 0.1025(3) 0.09763(18)
N4D N 0.2095(3) -0.0115(4) 0.5284(2)
C12D C 0.1308(3) -0.0025(3) 0.5163(2)
Ni2B Ni 0.0000 0.0000 0.0000
C11D C -0.0115(2) -0.1025(3) 0.59763(18)
loop_
_geom_bond_atom_site_label_1
_geom_bond_atom_site_label_2
_geom_bond_site_symmetry_1
_geom_bond_site_symmetry_2
Ni1 N1 1_555 1_555
Ni2 C11 1_555 1_555
N1 C1 1_555 1_555
N2 Ni1 1_555 1_555
N3 Ni1 1_555 1_555
N4 C12 1_555 1_555
C1 C5 1_555 1_555
C2 N1 1_555 1_555
H1 C2 1_555 1_555
C3 C2 1_555 1_555
H2 C3 1_555 1_555
C4 C3 1_555 1_555
H3 C4 1_555 1_555
C5 C4 1_555 1_555
H4 C5 1_555 1_555
C6 N2 1_555 1_555
C7 N2 1_555 1_555
H5 C7 1_555 1_555
C8 C7 1_555 1_555
H6 C8 1_555 1_555
C9 C8 1_555 1_555
H7 C9 1_555 1_555
C10 C6 1_555 1_555
H8 C10 1_555 1_555
C11 N3 1_555 1_555
C12 Ni2 1_555 1_555
N1B Ni1 1_555 1_555
N2B Ni1 1_555 1_555
N3B Ni1 1_555 1_555
C1B N1B 1_555 1_555
C2B N1B 1_555 1_555
H1B C2B 1_555 1_555
C3B C2B 1_555 1_555
H2B C3B 1_555 1_555
C4B C3B 1_555 1_555
H3B C4B 1_555 1_555
C5B C1B 1_555 1_555
H4B C5B 1_555 1_555
C6B N2B 1_555 1_555
C7B N2B 1_555 1_555
H5B C7B 1_555 1_555
C8B C7B 1_555 1_555
H6B C8B 1_555 1_555
C9B C8B 1_555 1_555
H7B C9B 1_555 1_555
C10B C6B 1_555 1_555
H8B C10B 1_555 1_555
C11B N3B 1_555 1_555
N4D C12D 1_555 1_555
C12D Ni2 1_555 1_555
Ni2B C11B 1_555 1_555
C11D Ni2 1_555 1_555
C1 C6 1_555 1_555
C9 C10 1_555 1_555
C1B C6B 1_555 1_555
C4B C5B 1_555 1_555
C9B C10B 1_555 1_555

#END
