
#######################################################################
#
#                 Cambridge Crystallographic Data Centre
#                                CCDC 
#
#######################################################################
#
# If this CIF has been generated from an entry in the Cambridge 
# Structural Database, then it will include bibliographic, chemical, 
# crystal, experimental, refinement or atomic coordinate data resulting 
# from the CCDC's data processing and validation procedures.
#
#######################################################################

data_MASXAF
_symmetry_cell_setting           orthorhombic
_symmetry_space_group_name_H-M   'P b c n'
_symmetry_Int_Tables_number      60
_space_group_name_Hall           '-P 2n 2ab'
loop_
_symmetry_equiv_pos_site_id
_symmetry_equiv_pos_as_xyz
1 x,y,z
2 1/2-x,1/2-y,1/2+z
3 -x,y,1/2-z
4 1/2+x,1/2-y,-z
5 -x,-y,-z
6 1/2+x,1/2+y,1/2-z
7 x,-y,1/2+z
8 1/2-x,1/2+y,z
_cell_length_a                   14.0670(10)
_cell_length_b                   10.1759(7)
_cell_length_c                   15.7550(10)
_cell_angle_alpha                90
_cell_angle_beta                 90
_cell_angle_gamma                90
_cell_volume                     2255.24
loop_
_atom_site_label
_atom_site_type_symbol
_atom_site_fract_x
_atom_site_fract_y
_atom_site_fract_z
Ni1 Ni 0.0000 0.0000 0.5000
C1 C 0.1310(4) -0.0033(4) 0.4839(3)
N1 N 0.2120(3) -0.0114(4) 0.4720(3)
C2 C 0.0104(3) -0.1035(3) 0.0977(2)
N2 N 0.0122(2) -0.1715(3) 0.1555(2)
Ni2 Ni 0.0000 -0.31186(6) 0.2500
N3 N 0.1456(2) -0.3304(3) 0.25754(19)
N4 N 0.0246(3) -0.4622(3) 0.1602(2)
C3 C 0.2020(3) -0.2595(5) 0.3074(3)
H1 H 0.1748 -0.1930 0.3420
C4 C 0.3003(4) -0.2797(7) 0.3104(4)
H2 H 0.3399 -0.2286 0.3464
C5 C 0.3382(4) -0.3782(7) 0.2584(4)
H3 H 0.4046 -0.3949 0.2591
C6 C 0.2808(4) -0.4499(6) 0.2071(4)
H4 H 0.3067 -0.5156 0.1710
C7 C 0.1838(3) -0.4258(4) 0.2079(3)
C8 C 0.1153(3) -0.5015(4) 0.1559(3)
C9 C 0.1415(4) -0.6077(5) 0.1049(3)
H5 H 0.2056 -0.6366 0.1021
C10 C 0.0703(5) -0.6701(5) 0.0581(3)
H6 H 0.0863 -0.7426 0.0228
C11 C -0.0191(4) -0.6296(5) 0.0620(3)
H7 H -0.0672 -0.6720 0.0297
C12 C -0.0412(4) -0.5239(5) 0.1144(3)
H8 H -0.1053 -0.4948 0.1175
N2B N -0.0122(2) -0.1715(3) 0.3445(2)
C2B C -0.0104(3) -0.1035(3) 0.4023(2)
Ni1F Ni 0.0000 0.0000 0.0000
C1D C -0.1310(4) 0.0033(4) 0.5161(3)
N1D N -0.2120(3) 0.0114(4) 0.5280(3)
C2F C 0.0104(3) 0.1035(3) 0.5977(2)
N3B N -0.1456(2) -0.3304(3) 0.24246(19)
C3B C -0.2020(3) -0.2595(5) 0.1926(3)
H1B H -0.1748 -0.1930 0.1580
C4B C -0.3003(4) -0.2797(7) 0.1896(4)
H2B H -0.3399 -0.2286 0.1536
C5B C -0.3382(4) -0.3782(7) 0.2416(4)
H3B H -0.4046 -0.3949 0.2409
C6B C -0.2808(4) -0.4499(6) 0.2929(4)
H4B H -0.3067 -0.5156 0.3290
C7B C -0.1838(3) -0.4258(4) 0.2921(3)
C8B C -0.1153(3) -0.5015(4) 0.3441(3)
N4B N -0.0246(3) -0.4622(3) 0.3398(2)
C12B C 0.0412(4) -0.5239(5) 0.3856(3)
C11B C 0.0191(4) -0.6296(5) 0.4380(3)
C10B C -0.0703(5) -0.6701(5) 0.4419(3)
C9B C -0.1415(4) -0.6077(5) 0.3951(3)
H5B H -0.2056 -0.6366 0.3979
H6B H -0.0863 -0.7426 0.4772
H7B H 0.0672 -0.6720 0.4703
H8B H 0.1053 -0.4948 0.3825
loop_
_geom_bond_atom_site_label_1
_geom_bond_atom_site_label_2
_geom_bond_site_symmetry_1
_geom_bond_site_symmetry_2
Ni1 C1 1_555 1_555
C1 N1 1_555 1_555
C2 N2 1_555 1_555
N2 Ni2 1_555 1_555
Ni2 N3 1_555 1_555
N3 C3 1_555 1_555
N4 Ni2 1_555 1_555
C3 H1 1_555 1_555
C4 C3 1_555 1_555
H2 C4 1_555 1_555
C5 C4 1_555 1_555
H3 C5 1_555 1_555
C6 C5 1_555 1_555
H4 C6 1_555 1_555
C7 N3 1_555 1_555
C8 N4 1_555 1_555
C9 C8 1_555 1_555
H5 C9 1_555 1_555
C10 C9 1_555 1_555
H6 C10 1_555 1_555
C11 C10 1_555 1_555
H7 C11 1_555 1_555
C12 N4 1_555 1_555
H8 C12 1_555 1_555
N2B Ni2 1_555 1_555
C2B Ni1 1_555 1_555
Ni1F C2 1_555 1_555
C1D Ni1 1_555 1_555
N1D C1D 1_555 1_555
C2F Ni1 1_555 1_555
N3B Ni2 1_555 1_555
C3B N3B 1_555 1_555
H1B C3B 1_555 1_555
C4B C3B 1_555 1_555
H2B C4B 1_555 1_555
C5B C4B 1_555 1_555
H3B C5B 1_555 1_555
C6B C5B 1_555 1_555
H4B C6B 1_555 1_555
C7B N3B 1_555 1_555
C8B C7B 1_555 1_555
N4B Ni2 1_555 1_555
C12B N4B 1_555 1_555
C11B C12B 1_555 1_555
C10B C11B 1_555 1_555
C9B C8B 1_555 1_555
H5B C9B 1_555 1_555
H6B C10B 1_555 1_555
H7B C11B 1_555 1_555
H8B C12B 1_555 1_555
C6 C7 1_555 1_555
C7 C8 1_555 1_555
C11 C12 1_555 1_555
N2B C2B 1_555 1_555
C6B C7B 1_555 1_555
C8B N4B 1_555 1_555
C10B C9B 1_555 1_555

#END
