
#######################################################################
#
#                 Cambridge Crystallographic Data Centre
#                                CCDC 
#
#######################################################################
#
# If this CIF has been generated from an entry in the Cambridge 
# Structural Database, then it will include bibliographic, chemical, 
# crystal, experimental, refinement or atomic coordinate data resulting 
# from the CCDC's data processing and validation procedures.
#
#######################################################################

data_MASXEJ01
_symmetry_cell_setting           monoclinic
_symmetry_space_group_name_H-M   'P 21/c'
_symmetry_Int_Tables_number      14
_space_group_name_Hall           '-P 2ybc'
loop_
_symmetry_equiv_pos_site_id
_symmetry_equiv_pos_as_xyz
1 x,y,z
2 -x,1/2+y,1/2-z
3 -x,-y,-z
4 x,1/2-y,1/2+z
_cell_length_a                   9.8458(2)
_cell_length_b                   11.3029(3)
_cell_length_c                   14.23910(10)
_cell_angle_alpha                90
_cell_angle_beta                 100.95
_cell_angle_gamma                90
_cell_volume                     1555.76
loop_
_atom_site_label
_atom_site_type_symbol
_atom_site_fract_x
_atom_site_fract_y
_atom_site_fract_z
Cu1 Cu 0.6528(1) 0.1191(1) 0.7348(1)
C1 C 0.8780(4) -0.0233(3) 0.8260(3)
C2 C 0.9625(4) -0.1190(4) 0.8605(3)
N1 N 0.8343(3) 0.1827(3) 0.8064(2)
C3 C 0.9249(4) 0.0956(4) 0.8422(3)
C4 C 1.0582(4) 0.1186(4) 0.8950(3)
N2 N 0.7456(3) -0.0368(3) 0.7765(2)
N3 N 0.4918(4) 0.0402(4) 0.6577(3)
C5 C 0.9077(5) -0.2327(4) 0.8445(3)
C6 C 0.8713(5) 0.2935(4) 0.8245(3)
C7 C 1.1439(4) 0.0192(5) 0.9282(3)
C8 C 0.6971(4) -0.1460(4) 0.7616(3)
C9 C 0.5227(4) 0.1502(4) 0.9381(3)
N4 N 0.5511(4) 0.1448(4) 0.8650(3)
C10 C 0.2383(4) -0.0522(4) 0.4798(3)
C11 C 0.7752(4) -0.2462(4) 0.7949(3)
N5 N 0.4738(4) 0.1529(4) 1.0177(3)
C12 C 1.0999(4) -0.0919(5) 0.9127(3)
C13 C 1.0938(5) 0.2378(5) 0.9113(3)
C14 C 0.3929(5) 0.0211(5) 0.6066(4)
N6 N 0.2660(5) 0.0116(6) 0.5587(4)
N7 N 0.1930(4) -0.0956(4) 0.4121(3)
C15 C 1.0022(5) 0.3234(5) 0.8786(4)
C16 C 0.5445(4) 0.1927(4) 1.0962(3)
N8 N 0.5977(4) 0.2255(3) 1.1703(3)
H1 H 0.9605 -0.2985 0.8673
H2 H 0.8096 0.3536 0.8011
H3 H 1.2333 0.0325 0.9618
H4 H 0.6075 -0.1565 0.7276
H5 H 0.7373 -0.3214 0.7834
H6 H 1.1591 -0.1537 0.9360
H7 H 1.1812 0.2579 0.9450
H8 H 1.0251 0.4023 0.8915
N8C N 0.5977(4) 0.2745(3) 0.6703(3)
Cu1C Cu 0.6528(1) 0.3809(1) 1.2348(1)
loop_
_geom_bond_atom_site_label_1
_geom_bond_atom_site_label_2
_geom_bond_site_symmetry_1
_geom_bond_site_symmetry_2
Cu1 N1 1_555 1_555
C1 C2 1_555 1_555
C2 C5 1_555 1_555
N1 C3 1_555 1_555
C3 C1 1_555 1_555
C4 C3 1_555 1_555
N2 Cu1 1_555 1_555
N3 Cu1 1_555 1_555
C5 C11 1_555 1_555
C6 N1 1_555 1_555
C7 C4 1_555 1_555
C8 N2 1_555 1_555
C9 N4 1_555 1_555
N4 Cu1 1_555 1_555
C10 N6 1_555 1_555
C11 C8 1_555 1_555
N5 C9 1_555 1_555
C12 C2 1_555 1_555
C13 C4 1_555 1_555
C14 N3 1_555 1_555
N6 C14 1_555 1_555
N7 C10 1_555 1_555
C15 C6 1_555 1_555
C16 N5 1_555 1_555
N8 C16 1_555 1_555
H1 C5 1_555 1_555
H2 C6 1_555 1_555
H3 C7 1_555 1_555
H4 C8 1_555 1_555
H5 C11 1_555 1_555
H6 C12 1_555 1_555
H7 C13 1_555 1_555
H8 C15 1_555 1_555
N8C Cu1 1_555 1_555
Cu1C N8 1_555 1_555
C1 N2 1_555 1_555
C7 C12 1_555 1_555
C13 C15 1_555 1_555

#END
