
#######################################################################
#
#                 Cambridge Crystallographic Data Centre
#                                CCDC 
#
#######################################################################
#
# If this CIF has been generated from an entry in the Cambridge 
# Structural Database, then it will include bibliographic, chemical, 
# crystal, experimental, refinement or atomic coordinate data resulting 
# from the CCDC's data processing and validation procedures.
#
#######################################################################

data_MASZEL
_symmetry_cell_setting           orthorhombic
_symmetry_space_group_name_H-M   'P 21 21 21'
_symmetry_Int_Tables_number      19
_space_group_name_Hall           'P 2ac 2ab'
loop_
_symmetry_equiv_pos_site_id
_symmetry_equiv_pos_as_xyz
1 x,y,z
2 1/2-x,-y,1/2+z
3 -x,1/2+y,1/2-z
4 1/2+x,1/2-y,-z
_cell_length_a                   10.3520(10)
_cell_length_b                   20.083(2)
_cell_length_c                   6.828(4)
_cell_angle_alpha                90
_cell_angle_beta                 90
_cell_angle_gamma                90
_cell_volume                     1419.54
loop_
_atom_site_label
_atom_site_type_symbol
_atom_site_fract_x
_atom_site_fract_y
_atom_site_fract_z
Cd1 Cd 0.00245(2) -0.159722(11) -0.76384(3)
S1 S 0.01991(8) -0.20778(5) -0.26040(12)
O1 O 0.1423(3) -0.23963(16) -0.3174(5)
O2 O -0.0697(3) -0.26019(17) -0.1985(6)
O3 O -0.0324(3) -0.17139(19) -0.4291(4)
O4 O 0.0422(4) -0.16136(15) -0.0982(4)
N1 N -0.1686(3) -0.08368(14) -0.7813(6)
N2 N 0.0892(3) -0.05366(15) -0.7541(5)
C1 C -0.2948(3) -0.09817(19) -0.7861(8)
H1 H -0.3202 -0.1426 -0.7830
C2 C -0.3898(4) -0.0490(2) -0.7953(8)
H2 H -0.4767 -0.0606 -0.7999
C3 C -0.3546(4) 0.01590(19) -0.7972(7)
H3 H -0.4175 0.0490 -0.8007
C4 C -0.2238(4) 0.03368(19) -0.7927(7)
C5 C -0.1811(4) 0.10127(19) -0.7965(9)
H4 H -0.2415 0.1355 -0.8027
C6 C -0.0535(4) 0.11604(19) -0.7910(9)
H5 H -0.0272 0.1602 -0.7989
C7 C 0.0422(4) 0.06442(18) -0.7737(7)
C8 C 0.1749(4) 0.0772(2) -0.7581(8)
H6 H 0.2049 0.1209 -0.7590
C9 C 0.2593(4) 0.0267(2) -0.7393(8)
H7 H 0.3473 0.0351 -0.7272
C10 C 0.2135(4) -0.0386(2) -0.7399(7)
H8 H 0.2730 -0.0731 -0.7299
C11 C 0.0024(3) -0.00271(18) -0.7717(5)
C12 C -0.1329(3) -0.01841(17) -0.7838(6)
O5 O 0.1878(4) -0.2119(3) -0.6906(6)
O6 O -0.1186(3) -0.25042(16) -0.8191(5)
H9 H 0.176(6) -0.220(3) -0.581(6)
H10 H -0.110(5) -0.251(3) -0.930(5)
H11 H 0.261(4) -0.214(4) -0.712(11)
H12 H -0.188(4) -0.247(3) -0.788(8)
O4_2 O 0.0422(4) -0.16136(15) -1.0982(4)
Cd1_2 Cd 0.00245(2) -0.159722(11) 0.23616(3)
loop_
_geom_bond_atom_site_label_1
_geom_bond_atom_site_label_2
_geom_bond_site_symmetry_1
_geom_bond_site_symmetry_2
Cd1 O3 1_555 1_555
S1 O1 1_555 1_555
O2 S1 1_555 1_555
O3 S1 1_555 1_555
O4 S1 1_555 1_555
N1 Cd1 1_555 1_555
N2 Cd1 1_555 1_555
C1 N1 1_555 1_555
H1 C1 1_555 1_555
C2 C1 1_555 1_555
H2 C2 1_555 1_555
C3 C2 1_555 1_555
H3 C3 1_555 1_555
C4 C3 1_555 1_555
C5 C4 1_555 1_555
H4 C5 1_555 1_555
C6 C5 1_555 1_555
H5 C6 1_555 1_555
C7 C6 1_555 1_555
C8 C7 1_555 1_555
H6 C8 1_555 1_555
C9 C8 1_555 1_555
H7 C9 1_555 1_555
C10 N2 1_555 1_555
H8 C10 1_555 1_555
C11 N2 1_555 1_555
C12 N1 1_555 1_555
O5 Cd1 1_555 1_555
O6 Cd1 1_555 1_555
H9 O5 1_555 1_555
H10 O6 1_555 1_555
H11 O5 1_555 1_555
H12 O6 1_555 1_555
O4_2 Cd1 1_555 1_555
Cd1_2 O4 1_555 1_555
C4 C12 1_555 1_555
C7 C11 1_555 1_555
C9 C10 1_555 1_555
C11 C12 1_555 1_555

#END
