
#######################################################################
#
#                 Cambridge Crystallographic Data Centre
#                                CCDC 
#
#######################################################################
#
# If this CIF has been generated from an entry in the Cambridge 
# Structural Database, then it will include bibliographic, chemical, 
# crystal, experimental, refinement or atomic coordinate data resulting 
# from the CCDC's data processing and validation procedures.
#
#######################################################################

data_MASZEL01
_symmetry_cell_setting           orthorhombic
_symmetry_space_group_name_H-M   'P 21 21 21'
_symmetry_Int_Tables_number      19
_space_group_name_Hall           'P 2ac 2ab'
loop_
_symmetry_equiv_pos_site_id
_symmetry_equiv_pos_as_xyz
1 x,y,z
2 1/2-x,-y,1/2+z
3 -x,1/2+y,1/2-z
4 1/2+x,1/2-y,-z
_cell_length_a                   6.8286(3)
_cell_length_b                   10.3533(5)
_cell_length_c                   20.0827(9)
_cell_angle_alpha                90
_cell_angle_beta                 90
_cell_angle_gamma                90
_cell_volume                     1419.82
loop_
_atom_site_label
_atom_site_type_symbol
_atom_site_fract_x
_atom_site_fract_y
_atom_site_fract_z
Cd1 Cd 0.26369(3) -0.002573(19) 0.159664(10)
C1 C 0.2718(4) -0.0027(3) 0.00306(17)
S1 S -0.23978(10) -0.02008(7) 0.20782(4)
C2 C 0.2400(7) -0.2592(3) -0.0263(2)
H1 H 0.2289 -0.3473 -0.0346
O1 O -0.0707(4) 0.0321(3) 0.17130(17)
O2 O -0.4014(4) -0.0431(3) 0.16106(14)
C3 C 0.2921(6) 0.2237(3) -0.03313(17)
O3 O -0.3018(5) 0.0694(3) 0.26013(15)
C4 C 0.2975(7) 0.1806(4) -0.10066(17)
H2 H 0.3050 0.2412 -0.1347
O4 O -0.1824(4) -0.1426(2) 0.23984(14)
C5 C 0.2823(5) 0.1333(3) 0.01844(15)
C6 C 0.2744(6) -0.0415(3) -0.06440(17)
C7 C 0.2570(6) -0.1738(4) -0.0783(2)
H3 H 0.2571 -0.2033 -0.1221
C8 C 0.2393(6) -0.2141(3) 0.03755(18)
H4 H 0.2270 -0.2736 0.0720
C9 C 0.2919(7) 0.0543(4) -0.11610(17)
H5 H 0.2994 0.0287 -0.1604
N1 N 0.2822(5) 0.1693(2) 0.08344(13)
N2 N 0.2552(4) -0.0891(2) 0.05324(13)
O5 O 0.3202(4) 0.1184(2) 0.25047(11)
C10 C 0.2866(6) 0.2941(3) 0.09807(16)
H6 H 0.2859 0.3187 0.1426
O6 O 0.1877(5) -0.1897(3) 0.2109(2)
C11 C 0.2923(7) 0.3903(3) 0.04918(18)
H7 H 0.2936 0.4771 0.0612
C12 C 0.2959(6) 0.3559(3) -0.01560(17)
H8 H 0.3009 0.4189 -0.0486
Cd1_2 Cd -0.73631(3) -0.002573(19) 0.159664(10)
O2_2 O 0.5986(4) -0.0431(3) 0.16106(14)
loop_
_geom_bond_atom_site_label_1
_geom_bond_atom_site_label_2
_geom_bond_site_symmetry_1
_geom_bond_site_symmetry_2
Cd1 O1 1_555 1_555
C1 C5 1_555 1_555
S1 O1 1_555 1_555
C2 H1 1_555 1_555
O2 S1 1_555 1_555
C3 C4 1_555 1_555
O3 S1 1_555 1_555
C4 H2 1_555 1_555
O4 S1 1_555 1_555
C5 C3 1_555 1_555
C6 C1 1_555 1_555
C7 C2 1_555 1_555
H3 C7 1_555 1_555
C8 C2 1_555 1_555
H4 C8 1_555 1_555
C9 C4 1_555 1_555
H5 C9 1_555 1_555
N1 Cd1 1_555 1_555
N2 Cd1 1_555 1_555
O5 Cd1 1_555 1_555
C10 N1 1_555 1_555
H6 C10 1_555 1_555
O6 Cd1 1_555 1_555
C11 C10 1_555 1_555
H7 C11 1_555 1_555
C12 C3 1_555 1_555
H8 C12 1_555 1_555
Cd1_2 O2 1_555 1_555
O2_2 Cd1 1_555 1_555
C1 N2 1_555 1_555
C5 N1 1_555 1_555
C6 C7 1_555 1_555
C6 C9 1_555 1_555
C8 N2 1_555 1_555
C11 C12 1_555 1_555

#END
