
#######################################################################
#
#                 Cambridge Crystallographic Data Centre
#                                CCDC 
#
#######################################################################
#
# If this CIF has been generated from an entry in the Cambridge 
# Structural Database, then it will include bibliographic, chemical, 
# crystal, experimental, refinement or atomic coordinate data resulting 
# from the CCDC's data processing and validation procedures.
#
#######################################################################

data_MASZIP
_symmetry_cell_setting           monoclinic
_symmetry_space_group_name_H-M   'C 2/c'
_symmetry_Int_Tables_number      15
_space_group_name_Hall           '-C 2yn'
loop_
_symmetry_equiv_pos_site_id
_symmetry_equiv_pos_as_xyz
1 x,y,z
2 1/2+x,1/2+y,z
3 x,-y,1/2+z
4 1/2+x,1/2-y,1/2+z
5 -x,-y,-z
6 1/2-x,1/2-y,-z
7 -x,y,1/2-z
8 1/2-x,1/2+y,1/2-z
_cell_length_a                   15.384(3)
_cell_length_b                   14.826(3)
_cell_length_c                   6.9260(10)
_cell_angle_alpha                90
_cell_angle_beta                 107.54(3)
_cell_angle_gamma                90
_cell_volume                     1506.26
loop_
_atom_site_label
_atom_site_type_symbol
_atom_site_fract_x
_atom_site_fract_y
_atom_site_fract_z
Cd1 Cd -0.5000 -0.205080(14) 0.2500
S1 S -0.5000 -0.14511(5) 0.7500
O1 O -0.52864(16) -0.20238(11) 0.8941(3)
O2 O -0.57686(13) -0.08714(13) 0.6370(3)
N1 N -0.40920(13) -0.33207(13) 0.2535(3)
C1 C -0.32243(16) -0.33226(17) 0.2482(4)
C2 C -0.27452(17) -0.4131(2) 0.2494(4)
H1 H -0.2122 -0.4117 0.2491
C3 C -0.3173(2) -0.49367(19) 0.2517(4)
H2 H -0.2848 -0.5491 0.2536
C4 C -0.40871(19) -0.49564(17) 0.2503(4)
C5 C -0.45300(15) -0.41203(15) 0.2511(3)
C6 C -0.5436(2) -0.57847(16) 0.2506(4)
H3 H -0.4259 -0.6348 0.2480
C7 C -0.72318(18) -0.2442(2) 0.2607(5)
H4 H -0.7125 -0.2037 0.1620
H5 H -0.6988 -0.2185 0.3934
H6 H -0.7875 -0.2536 0.2326
O3 O -0.59967(14) -0.08724(13) 0.2370(3)
H7 H -0.595(3) -0.032(2) 0.181(5)
H8 H -0.588(3) -0.083(3) 0.377(4)
O1F O -0.47136(16) -0.20238(11) 0.6059(3)
Cd1_2 Cd -0.5000 -0.205080(14) 1.2500
O1_2 O -0.52864(16) -0.20238(11) -0.1059(3)
C5F C -0.54700(15) -0.41203(15) 0.2489(3)
N1F N -0.59080(13) -0.33207(13) 0.2465(3)
O3F O -0.40033(14) -0.08724(13) 0.2630(3)
H7F H -0.405(3) -0.032(2) 0.319(5)
H8F H -0.412(3) -0.083(3) 0.123(4)
C1F C -0.67757(16) -0.33226(17) 0.2518(4)
C2F C -0.72548(17) -0.4131(2) 0.2506(4)
H1F H -0.7878 -0.4117 0.2509
C3F C -0.6827(2) -0.49367(19) 0.2483(4)
H2F H -0.7152 -0.5491 0.2464
C4F C -0.59129(19) -0.49564(17) 0.2497(4)
C6F C -0.4564(2) -0.57847(16) 0.2494(4)
H3F H -0.5741 -0.6348 0.2520
C7F C -0.27682(18) -0.2442(2) 0.2393(5)
H4F H -0.2875 -0.2037 0.3380
H5F H -0.3012 -0.2185 0.1066
H6F H -0.2125 -0.2536 0.2674
O2F O -0.42314(13) -0.08714(13) 0.8630(3)
loop_
_geom_bond_atom_site_label_1
_geom_bond_atom_site_label_2
_geom_bond_site_symmetry_1
_geom_bond_site_symmetry_2
Cd1 N1 1_555 1_555
S1 O1 1_555 1_555
O1 Cd1_2 1_555 1_555
O2 S1 1_555 1_555
N1 C1 1_555 1_555
C1 C2 1_555 1_555
C2 H1 1_555 1_555
C3 C2 1_555 1_555
H2 C3 1_555 1_555
C4 C3 1_555 1_555
C5 N1 1_555 1_555
C6 C4F 1_555 1_555
H3 C6F 1_555 1_555
C7 H4 1_555 1_555
H5 C7 1_555 1_555
H6 C7 1_555 1_555
O3 Cd1 1_555 1_555
H7 O3 1_555 1_555
H8 O3 1_555 1_555
O1F Cd1 1_555 1_555
O1_2 Cd1 1_555 1_555
C5F C5 1_555 1_555
N1F Cd1 1_555 1_555
O3F Cd1 1_555 1_555
H7F O3F 1_555 1_555
H8F O3F 1_555 1_555
C1F C7 1_555 1_555
C2F C1F 1_555 1_555
H1F C2F 1_555 1_555
C3F C2F 1_555 1_555
H2F C3F 1_555 1_555
C4F C5F 1_555 1_555
C6F C4 1_555 1_555
H3F C6 1_555 1_555
C7F C1 1_555 1_555
H4F C7F 1_555 1_555
H5F C7F 1_555 1_555
H6F C7F 1_555 1_555
O2F S1 1_555 1_555
S1 O1F 1_555 1_555
C4 C5 1_555 1_555
C6 C6F 1_555 1_555
C5F N1F 1_555 1_555
N1F C1F 1_555 1_555
C3F C4F 1_555 1_555

#END
