
#######################################################################
#
#                 Cambridge Crystallographic Data Centre
#                                CCDC 
#
#######################################################################
#
# If this CIF has been generated from an entry in the Cambridge 
# Structural Database, then it will include bibliographic, chemical, 
# crystal, experimental, refinement or atomic coordinate data resulting 
# from the CCDC's data processing and validation procedures.
#
#######################################################################

data_MATBAM
_symmetry_cell_setting           monoclinic
_symmetry_space_group_name_H-M   'C 2/c'
_symmetry_Int_Tables_number      15
_space_group_name_Hall           '-C 2yn'
loop_
_symmetry_equiv_pos_site_id
_symmetry_equiv_pos_as_xyz
1 x,y,z
2 -x,y,1/2-z
3 1/2+x,1/2+y,z
4 1/2-x,1/2+y,1/2-z
5 -x,-y,-z
6 x,-y,1/2+z
7 1/2-x,1/2-y,-z
8 1/2+x,1/2-y,1/2+z
_cell_length_a                   40.592(8)
_cell_length_b                   9.7008(19)
_cell_length_c                   24.750(5)
_cell_angle_alpha                90
_cell_angle_beta                 104.95(3)
_cell_angle_gamma                90
_cell_volume                     9416.04
loop_
_atom_site_label
_atom_site_type_symbol
_atom_site_fract_x
_atom_site_fract_y
_atom_site_fract_z
Mo1 Mo 0.089453(13) 0.62042(5) -0.04004(2)
Cu1 Cu 0.107264(18) 0.35931(7) -0.01049(3)
Cu2 Cu 0.14483(2) 0.70933(8) 0.03819(3)
Cu3 Cu 0.130736(19) 0.60501(7) -0.10828(3)
S1 S 0.10733(4) 0.54037(16) 0.04854(7)
S2 S 0.12630(4) 0.78624(14) -0.05145(7)
S3 S 0.09214(4) 0.44444(15) -0.09939(7)
S4 S 0.26091(6) 0.5800(2) 0.11125(11)
O1 O 0.04885(11) 0.6835(5) -0.0526(2)
N1 N 0.15273(12) 0.2559(5) 0.0121(2)
N2 N 0.31942(12) -0.0245(5) 0.0830(2)
N3 N 0.07020(12) 0.2187(5) -0.0015(2)
N4 N 0.13819(15) 0.8749(5) 0.0912(2)
N5 N 0.13125(14) 1.3185(5) 0.3150(2)
N6 N 0.19489(14) 0.6738(6) 0.0695(2)
C1 C 0.16014(16) 0.1430(6) -0.0120(3)
H1 H 0.1427 0.1020 -0.0391
C2 C 0.19176(15) 0.0813(7) 0.0001(3)
H2 H 0.1952 0.0017 -0.0187
C3 C 0.21830(15) 0.1387(6) 0.0404(2)
C4 C 0.20978(17) 0.2524(7) 0.0685(3)
H3 H 0.2261 0.2907 0.0982
C5 C 0.17807(18) 0.3080(7) 0.0531(3)
H4 H 0.1736 0.3861 0.0718
C6 C 0.29270(17) -0.1002(6) 0.0580(3)
H5 H 0.2967 -0.1908 0.0491
C7 C 0.25983(15) -0.0552(7) 0.0445(3)
H6 H 0.2422 -0.1146 0.0277
C8 C 0.25294(15) 0.0805(6) 0.0560(2)
C9 C 0.28136(16) 0.1636(6) 0.0811(3)
H7 H 0.2785 0.2557 0.0895
C10 C 0.31334(16) 0.1050(6) 0.0930(3)
H8 H 0.3319 0.1608 0.1093
C11 C 0.06498(19) 0.0962(8) -0.0255(4)
H9 H 0.0811 0.0662 -0.0437
C12 C 0.03878(17) 0.0103(6) -0.0265(4)
H10 H 0.0369 -0.0726 -0.0459
C13 C 0.01564(16) 0.0452(6) 0.0006(3)
C14 C 0.0210(2) 0.1629(9) 0.0305(5)
H11 H 0.0068 0.1863 0.0531
C15 C 0.0479(2) 0.2494(9) 0.0277(4)
H12 H 0.0504 0.3324 0.0471
C16 C 0.1093(2) 0.9020(8) 0.1035(3)
H13 H 0.0900 0.8546 0.0840
C17 C 0.10565(18) 0.9962(7) 0.1433(3)
H14 H 0.0845 1.0115 0.1501
C18 C 0.13428(18) 1.0678(6) 0.1731(3)
C19 C 0.1643(2) 1.0420(8) 0.1598(3)
H15 H 0.1840 1.0899 0.1776
C20 C 0.1652(2) 0.9442(8) 0.1198(3)
H16 H 0.1861 0.9258 0.1123
C21 C 0.1046(2) 1.3046(8) 0.2719(3)
H17 H 0.0846 1.3484 0.2738
C22 C 0.10397(19) 1.2311(8) 0.2247(3)
H18 H 0.0842 1.2288 0.1956
C23 C 0.13302(18) 1.1589(7) 0.2197(3)
C24 C 0.1609(2) 1.1751(11) 0.2636(4)
H19 H 0.1811 1.1298 0.2633
C25 C 0.1597(2) 1.2599(10) 0.3098(4)
H20 H 0.1798 1.2749 0.3375
C26 C 0.2219(2) 0.6333(7) 0.0866(3)
Mo1F Mo 0.410547(13) -0.12042(5) 0.04004(2)
Cu1F Cu 0.392736(18) 0.14069(7) 0.01049(3)
Cu1D Cu -0.107264(18) -0.35931(7) 0.01049(3)
Cu2F Cu 0.35517(2) -0.20933(8) -0.03819(3)
Cu2C Cu 0.35517(2) -0.79067(8) 0.46181(3)
Cu3F Cu 0.369264(19) -0.10501(7) 0.10828(3)
Cu3E Cu 0.130736(19) 1.39499(7) 0.39172(3)
Cu3C Cu 0.369264(19) -0.89499(7) -0.39172(3)
S1F S 0.39267(4) -0.04037(16) -0.04854(7)
S2F S 0.37370(4) -0.28624(14) 0.05145(7)
S3F S 0.40786(4) 0.05556(15) 0.09939(7)
S4F S 0.23909(6) -0.0800(2) -0.11125(11)
O1F O 0.45115(11) -0.1835(5) 0.0526(2)
N1F N 0.34727(12) 0.2441(5) -0.0121(2)
N2F N 0.18058(12) 0.5245(5) -0.0830(2)
N3D N -0.07020(12) -0.2187(5) 0.0015(2)
N3F N 0.42980(12) 0.2813(5) 0.0015(2)
N4F N 0.36181(15) -0.3749(5) -0.0912(2)
N4C N 0.36181(15) -0.6251(5) 0.4088(2)
N5E N 0.13125(14) 0.6815(5) -0.1850(2)
N5C N 0.36875(14) -0.1815(5) 0.1850(2)
N5F N 0.36875(14) -0.8185(5) -0.3150(2)
N6F N 0.30511(14) -0.1738(6) -0.0695(2)
C11D C -0.06498(19) -0.0962(8) 0.0255(4)
H9D H -0.0811 -0.0662 0.0437
C12D C -0.03878(17) -0.0103(6) 0.0265(4)
H10D H -0.0369 0.0726 0.0459
C13D C -0.01564(16) -0.0452(6) -0.0006(3)
C14D C -0.0210(2) -0.1629(9) -0.0305(5)
H11D H -0.0068 -0.1863 -0.0531
C15D C -0.0479(2) -0.2494(9) -0.0277(4)
H12D H -0.0504 -0.3324 -0.0471
C16F C 0.3907(2) -0.4020(8) -0.1035(3)
C16C C 0.3907(2) -0.5980(8) 0.3965(3)
H13F H 0.4100 -0.3546 -0.0840
H13C H 0.4100 -0.6454 0.4160
C17F C 0.39435(18) -0.4962(7) -0.1433(3)
C17C C 0.39435(18) -0.5038(7) 0.3567(3)
H14F H 0.4155 -0.5115 -0.1501
H14C H 0.4155 -0.4885 0.3499
C18C C 0.36572(18) -0.4322(6) 0.3269(3)
C18F C 0.36572(18) -0.5678(6) -0.1731(3)
C19F C 0.3357(2) -0.5420(8) -0.1598(3)
C19C C 0.3357(2) -0.4580(8) 0.3402(3)
H15F H 0.3160 -0.5899 -0.1776
H15C H 0.3160 -0.4101 0.3224
C20F C 0.3348(2) -0.4442(8) -0.1198(3)
C20C C 0.3348(2) -0.5558(8) 0.3802(3)
H16F H 0.3139 -0.4258 -0.1123
H16C H 0.3139 -0.5742 0.3877
C21C C 0.3954(2) -0.1954(8) 0.2281(3)
C21F C 0.3954(2) -0.8046(8) -0.2719(3)
H17C H 0.4154 -0.1516 0.2262
H17F H 0.4154 -0.8484 -0.2738
C22C C 0.39603(19) -0.2689(8) 0.2753(3)
C22F C 0.39603(19) -0.7311(8) -0.2247(3)
H18C H 0.4158 -0.2712 0.3044
H18F H 0.4158 -0.7288 -0.1956
C23C C 0.36698(18) -0.3411(7) 0.2803(3)
C23F C 0.36698(18) -0.6589(7) -0.2197(3)
C24C C 0.3391(2) -0.3249(11) 0.2364(4)
C24F C 0.3391(2) -0.6751(11) -0.2636(4)
H19C H 0.3189 -0.3702 0.2367
H19F H 0.3189 -0.6298 -0.2633
C25C C 0.3403(2) -0.2401(10) 0.1902(4)
C25F C 0.3403(2) -0.7599(10) -0.3098(4)
H20C H 0.3202 -0.2251 0.1625
H20F H 0.3202 -0.7749 -0.3375
C26F C 0.2781(2) -0.1333(7) -0.0866(3)
loop_
_geom_bond_atom_site_label_1
_geom_bond_atom_site_label_2
_geom_bond_site_symmetry_1
_geom_bond_site_symmetry_2
Mo1 Cu1 1_555 1_555
Cu1 S1 1_555 1_555
Cu2 Mo1 1_555 1_555
Cu3 Mo1 1_555 1_555
S1 Mo1 1_555 1_555
S2 Mo1 1_555 1_555
S3 Mo1 1_555 1_555
S4 C26 1_555 1_555
O1 Mo1 1_555 1_555
N1 Cu1 1_555 1_555
N2 C6 1_555 1_555
N3 Cu1 1_555 1_555
N4 Cu2 1_555 1_555
N5 C21 1_555 1_555
N6 Cu2 1_555 1_555
C1 N1 1_555 1_555
H1 C1 1_555 1_555
C2 C1 1_555 1_555
H2 C2 1_555 1_555
C3 C2 1_555 1_555
C4 C3 1_555 1_555
H3 C4 1_555 1_555
C5 N1 1_555 1_555
H4 C5 1_555 1_555
C6 H5 1_555 1_555
C7 C6 1_555 1_555
H6 C7 1_555 1_555
C8 C3 1_555 1_555
C9 C8 1_555 1_555
H7 C9 1_555 1_555
C10 N2 1_555 1_555
H8 C10 1_555 1_555
C11 N3 1_555 1_555
H9 C11 1_555 1_555
C12 C11 1_555 1_555
H10 C12 1_555 1_555
C13 C12 1_555 1_555
C14 C13 1_555 1_555
H11 C14 1_555 1_555
C15 N3 1_555 1_555
H12 C15 1_555 1_555
C16 N4 1_555 1_555
H13 C16 1_555 1_555
C17 C16 1_555 1_555
H14 C17 1_555 1_555
C18 C17 1_555 1_555
C19 C18 1_555 1_555
H15 C19 1_555 1_555
C20 N4 1_555 1_555
H16 C20 1_555 1_555
C21 H17 1_555 1_555
C22 C21 1_555 1_555
H18 C22 1_555 1_555
C23 C18 1_555 1_555
C24 C23 1_555 1_555
H19 C24 1_555 1_555
C25 N5 1_555 1_555
H20 C25 1_555 1_555
C26 N6 1_555 1_555
Mo1F Cu1F 1_555 1_555
Cu1F S1F 1_555 1_555
Cu1D N3D 1_555 1_555
Cu2F Mo1F 1_555 1_555
Cu2C N4C 1_555 1_555
Cu3F N2 1_555 1_555
Cu3E N5 1_555 1_555
Cu3C N5F 1_555 1_555
S1F Mo1F 1_555 1_555
S2F Mo1F 1_555 1_555
S3F Mo1F 1_555 1_555
S4F C26F 1_555 1_555
O1F Mo1F 1_555 1_555
N1F Cu1F 1_555 1_555
N2F Cu3 1_555 1_555
N3D C11D 1_555 1_555
N3F Cu1F 1_555 1_555
N4F Cu2F 1_555 1_555
N4C C16C 1_555 1_555
N5E Cu3 1_555 1_555
N5C Cu3F 1_555 1_555
N5F C21F 1_555 1_555
N6F Cu2F 1_555 1_555
C11D H9D 1_555 1_555
C12D C11D 1_555 1_555
H10D C12D 1_555 1_555
C13D C13 1_555 1_555
C14D C13D 1_555 1_555
H11D C14D 1_555 1_555
C15D N3D 1_555 1_555
H12D C15D 1_555 1_555
C16F N4F 1_555 1_555
C16C H13C 1_555 1_555
H13F C16F 1_555 1_555
C17F C16F 1_555 1_555
C17C C16C 1_555 1_555
H14F C17F 1_555 1_555
H14C C17C 1_555 1_555
C18C C17C 1_555 1_555
C18F C17F 1_555 1_555
C19F C18F 1_555 1_555
C19C C18C 1_555 1_555
H15F C19F 1_555 1_555
H15C C19C 1_555 1_555
C20F N4F 1_555 1_555
C20C N4C 1_555 1_555
H16F C20F 1_555 1_555
H16C C20C 1_555 1_555
C21C N5C 1_555 1_555
C21F H17F 1_555 1_555
H17C C21C 1_555 1_555
C22C C21C 1_555 1_555
C22F C21F 1_555 1_555
H18C C22C 1_555 1_555
H18F C22F 1_555 1_555
C23C C18C 1_555 1_555
C23F C18F 1_555 1_555
C24C C23C 1_555 1_555
C24F C23F 1_555 1_555
H19C C24C 1_555 1_555
H19F C24F 1_555 1_555
C25C N5C 1_555 1_555
C25F N5F 1_555 1_555
H20C C25C 1_555 1_555
H20F C25F 1_555 1_555
C26F N6F 1_555 1_555
Cu1 S3 1_555 1_555
Cu2 S1 1_555 1_555
Cu2 S2 1_555 1_555
Cu3 S2 1_555 1_555
Cu3 S3 1_555 1_555
C4 C5 1_555 1_555
C7 C8 1_555 1_555
C9 C10 1_555 1_555
C14 C15 1_555 1_555
C19 C20 1_555 1_555
C22 C23 1_555 1_555
C24 C25 1_555 1_555
Mo1F Cu3F 1_555 1_555
Cu1F S3F 1_555 1_555
Cu2F S1F 1_555 1_555
Cu2F S2F 1_555 1_555
Cu3F S2F 1_555 1_555
Cu3F S3F 1_555 1_555
C12D C13D 1_555 1_555
C14D C15D 1_555 1_555
C19F C20F 1_555 1_555
C19C C20C 1_555 1_555
C22C C23C 1_555 1_555
C22F C23F 1_555 1_555
C24C C25C 1_555 1_555
C24F C25F 1_555 1_555

#END
