
#######################################################################
#
#                 Cambridge Crystallographic Data Centre
#                                CCDC 
#
#######################################################################
#
# If this CIF has been generated from an entry in the Cambridge 
# Structural Database, then it will include bibliographic, chemical, 
# crystal, experimental, refinement or atomic coordinate data resulting 
# from the CCDC's data processing and validation procedures.
#
#######################################################################

data_MATBUG
_symmetry_cell_setting           orthorhombic
_symmetry_space_group_name_H-M   'F d d 2'
_symmetry_Int_Tables_number      43
_space_group_name_Hall           'F 2 -2d'
loop_
_symmetry_equiv_pos_site_id
_symmetry_equiv_pos_as_xyz
1 x,y,z
2 -x,-y,z
3 1/4+x,1/4-y,1/4+z
4 1/4-x,1/4+y,1/4+z
5 x,1/2+y,1/2+z
6 -x,1/2-y,1/2+z
7 1/4+x,3/4-y,3/4+z
8 1/4-x,3/4+y,3/4+z
9 1/2+x,y,1/2+z
10 1/2-x,-y,1/2+z
11 3/4+x,1/4-y,3/4+z
12 3/4-x,1/4+y,3/4+z
13 1/2+x,1/2+y,z
14 1/2-x,1/2-y,z
15 3/4+x,3/4-y,1/4+z
16 3/4-x,3/4+y,1/4+z
_cell_length_a                   12.1992(3)
_cell_length_b                   15.7190(5)
_cell_length_c                   25.8536(8)
_cell_angle_alpha                90
_cell_angle_beta                 90
_cell_angle_gamma                90
_cell_volume                     4957.67
loop_
_atom_site_label
_atom_site_type_symbol
_atom_site_fract_x
_atom_site_fract_y
_atom_site_fract_z
O1 O 0.66296(19) 0.33195(16) 0.46747(9)
Ni1 Ni 0.03470(3) 0.39047(2) 0.269700(12)
O2 O 0.1543(2) 0.35133(14) 0.32269(9)
O3 O 0.0000 0.5000 0.31315(12)
H1 H 0.0546 0.5104 0.3326
O4 O 0.59227(18) 0.20234(15) 0.48090(10)
C1 C 0.4839(3) 0.3832(2) 0.41195(16)
H2 H 0.5449 0.4185 0.4137
C2 C 0.2977(3) 0.3596(2) 0.38392(14)
C3 C 0.1999(3) 0.3961(2) 0.35567(13)
C4 C 0.3950(2) 0.2517(2) 0.43102(12)
H3 H 0.3967 0.1981 0.4461
C5 C 0.2997(2) 0.2779(2) 0.40582(12)
N1 N -0.0734(3) 0.3104(2) 0.31016(14)
H4 H -0.0473 0.2993 0.3420
H5 H -0.1397 0.3350 0.3132
N2 N 0.0771(3) 0.2779(2) 0.23177(13)
H6 H 0.0513 0.2787 0.1992
H7 H 0.1505 0.2726 0.2305
C6 C 0.3900(3) 0.4107(2) 0.38697(14)
H8 H 0.3889 0.4645 0.3720
C7 C 0.0296(4) 0.2066(3) 0.2602(2)
H9 H 0.0766 0.1916 0.2890
H10 H 0.0236 0.1575 0.2376
C8 C -0.0813(4) 0.2311(3) 0.2796(2)
H11 H -0.1306 0.2396 0.2506
H12 H -0.1107 0.1858 0.3010
C9 C 0.4875(3) 0.3031(2) 0.43433(13)
C10 C 0.5897(2) 0.2757(2) 0.46364(12)
O5 O 0.1735(2) 0.47073(17) 0.36755(11)
O1M O -0.16296(19) 0.16805(16) 0.46747(9)
O1F O -0.08704(19) 0.41805(16) 0.21747(9)
O1G O 0.58704(19) 0.08195(16) 0.21747(9)
Ni1M Ni 0.46530(3) 0.10953(2) 0.269700(12)
Ni1N Ni 0.78470(3) 0.35953(2) 0.519700(12)
Ni1A Ni -0.03470(3) 0.60953(2) 0.269700(12)
Ni1O Ni 0.71530(3) 0.14047(2) 0.519700(12)
Ni1O_2 Ni -0.28470(3) 0.14047(2) 0.519700(12)
Ni1N_2 Ni -0.21530(3) 0.35953(2) 0.519700(12)
O2M O 0.3457(2) 0.14867(14) 0.32269(9)
O3L O 0.5000 0.0000 0.31315(12)
H1A H -0.0546 0.4896 0.3326
H1M H 0.4454 -0.0104 0.3326
H1L H 0.5546 0.0104 0.3326
O4M O -0.09227(18) 0.29766(15) 0.48090(10)
O4K O 0.15773(18) 0.45234(15) 0.23090(10)
O4J O 0.34227(18) 0.04766(15) 0.23090(10)
C1M C 0.0161(3) 0.1168(2) 0.41195(16)
H2M H -0.0449 0.0815 0.4137
C2M C 0.2023(3) 0.1404(2) 0.38392(14)
C3M C 0.3001(3) 0.1039(2) 0.35567(13)
C4M C 0.1050(2) 0.2483(2) 0.43102(12)
H3M H 0.1033 0.3019 0.4461
C5M C 0.2003(2) 0.2221(2) 0.40582(12)
N1M N 0.5734(3) 0.1896(2) 0.31016(14)
H4M H 0.5473 0.2007 0.3420
H5M H 0.6397 0.1650 0.3132
N2M N 0.4229(3) 0.2221(2) 0.23177(13)
H6M H 0.4487 0.2213 0.1992
H7M H 0.3495 0.2274 0.2305
C6M C 0.1100(3) 0.0893(2) 0.38697(14)
H8M H 0.1111 0.0355 0.3720
C7M C 0.4704(4) 0.2934(3) 0.2602(2)
H9M H 0.4234 0.3084 0.2890
H10M H 0.4764 0.3425 0.2376
C8M C 0.5813(4) 0.2689(3) 0.2796(2)
H11M H 0.6306 0.2604 0.2506
H12M H 0.6107 0.3142 0.3010
C9M C 0.0125(3) 0.1969(2) 0.43433(13)
C10M C -0.0897(2) 0.2243(2) 0.46364(12)
O5M O 0.3265(2) 0.02927(17) 0.36755(11)
O6 O 0.7613(6) 0.1325(4) 0.3640(3)
H13 H 0.7837 0.1445 0.3942
H14 H 0.7335 0.0829 0.3646
loop_
_geom_bond_atom_site_label_1
_geom_bond_atom_site_label_2
_geom_bond_site_symmetry_1
_geom_bond_site_symmetry_2
O1 C10 1_555 1_555
Ni1 O2 1_555 1_555
O2 C3 1_555 1_555
O3 Ni1 1_555 1_555
H1 O3 1_555 1_555
O4 C10 1_555 1_555
C1 H2 1_555 1_555
C2 C3 1_555 1_555
C3 O5 1_555 1_555
C4 H3 1_555 1_555
C5 C2 1_555 1_555
N1 Ni1 1_555 1_555
H4 N1 1_555 1_555
H5 N1 1_555 1_555
N2 Ni1 1_555 1_555
H6 N2 1_555 1_555
H7 N2 1_555 1_555
C6 C1 1_555 1_555
H8 C6 1_555 1_555
C7 N2 1_555 1_555
H9 C7 1_555 1_555
H10 C7 1_555 1_555
C8 N1 1_555 1_555
H11 C8 1_555 1_555
H12 C8 1_555 1_555
C9 C1 1_555 1_555
C10 C9 1_555 1_555
O6 H13 1_555 1_555
H14 O6 1_555 1_555
O1M Ni1O_2 1_555 1_555
O1F Ni1 1_555 1_555
O1G Ni1M 1_555 1_555
Ni1M O2M 1_555 1_555
Ni1N O1 1_555 1_555
Ni1A O3 1_555 1_555
Ni1O O4 1_555 1_555
Ni1N_2 O4M 1_555 1_555
O2M C3M 1_555 1_555
O3L Ni1M 1_555 1_555
H1A O3 1_555 1_555
H1M O3L 1_555 1_555
H1L O3L 1_555 1_555
O4M C10M 1_555 1_555
O4K Ni1 1_555 1_555
O4J Ni1M 1_555 1_555
C1M H2M 1_555 1_555
C2M C3M 1_555 1_555
C3M O5M 1_555 1_555
C4M H3M 1_555 1_555
C5M C5 1_555 1_555
N1M Ni1M 1_555 1_555
H4M N1M 1_555 1_555
H5M N1M 1_555 1_555
N2M Ni1M 1_555 1_555
H6M N2M 1_555 1_555
H7M N2M 1_555 1_555
C6M C1M 1_555 1_555
H8M C6M 1_555 1_555
C7M N2M 1_555 1_555
H9M C7M 1_555 1_555
H10M C7M 1_555 1_555
C8M N1M 1_555 1_555
H11M C8M 1_555 1_555
H12M C8M 1_555 1_555
C9M C1M 1_555 1_555
C10M O1M 1_555 1_555
C2 C6 1_555 1_555
C4 C5 1_555 1_555
C4 C9 1_555 1_555
C7 C8 1_555 1_555
C2M C5M 1_555 1_555
C2M C6M 1_555 1_555
C4M C5M 1_555 1_555
C4M C9M 1_555 1_555
C7M C8M 1_555 1_555
C9M C10M 1_555 1_555

#END
