
#######################################################################
#
#                 Cambridge Crystallographic Data Centre
#                                CCDC 
#
#######################################################################
#
# If this CIF has been generated from an entry in the Cambridge 
# Structural Database, then it will include bibliographic, chemical, 
# crystal, experimental, refinement or atomic coordinate data resulting 
# from the CCDC's data processing and validation procedures.
#
#######################################################################

data_MATCOB
_symmetry_cell_setting           monoclinic
_symmetry_space_group_name_H-M   'C 2/m'
_symmetry_Int_Tables_number      12
_space_group_name_Hall           '-C 2y'
loop_
_symmetry_equiv_pos_site_id
_symmetry_equiv_pos_as_xyz
1 x,y,z
2 -x,y,-z
3 1/2+x,1/2+y,z
4 1/2-x,1/2+y,-z
5 -x,-y,-z
6 x,-y,z
7 1/2-x,1/2-y,-z
8 1/2+x,1/2-y,z
_cell_length_a                   22.232(5)
_cell_length_b                   13.209(3)
_cell_length_c                   11.173(3)
_cell_angle_alpha                90
_cell_angle_beta                 108.225(3)
_cell_angle_gamma                90
_cell_volume                     3116.5
loop_
_atom_site_label
_atom_site_type_symbol
_atom_site_fract_x
_atom_site_fract_y
_atom_site_fract_z
C1 C 0.2184(9) 0.4464(13) 0.3035(18)
H1 H 0.2343 0.4112 0.3813
C2 C 0.1743(8) 0.4457(11) 0.0885(15)
C3 C 0.1496(9) 0.3940(14) -0.0291(18)
H2 H 0.1489 0.3221 -0.0309
C4 C 0.1277(12) 0.4460(17) -0.1362(19)
H3 H 0.1118 0.4106 -0.2137
C5 C 0.1726(12) 0.0524(15) 0.099(2)
H4 H 0.1417 0.0868 0.0331
C6 C 0.2574(9) 0.0538(11) 0.2736(16)
C7 C 0.3037(9) 0.1051(14) 0.367(2)
H5 H 0.3054 0.1769 0.3648
C8 C 0.3466(10) 0.0541(17) 0.462(2)
H6 H 0.3764 0.0902 0.5275
Cu2 Cu 0.20535(15) 0.24953(16) 0.1986(3)
N1 N 0.1967(6) 0.3938(10) 0.1976(13)
N2 N 0.2129(8) 0.1055(11) 0.1841(15)
C1E C 0.2184(9) 0.5536(13) 0.3035(18)
C1E_2 C 0.2184(9) -0.4464(13) 0.3035(18)
C1_2 C 0.2184(9) -0.5536(13) 0.3035(18)
H1E H 0.2343 0.5888 0.3813
H1E_2 H 0.2343 -0.4112 0.3813
H1_2 H 0.2343 -0.5888 0.3813
C2E C 0.1743(8) 0.5543(11) 0.0885(15)
C2E_2 C 0.1743(8) -0.4457(11) 0.0885(15)
C2_2 C 0.1743(8) -0.5543(11) 0.0885(15)
C3E C 0.1496(9) 0.6060(14) -0.0291(18)
C3E_2 C 0.1496(9) -0.3940(14) -0.0291(18)
C3_2 C 0.1496(9) -0.6060(14) -0.0291(18)
H2E H 0.1489 0.6779 -0.0309
H2E_2 H 0.1489 -0.3221 -0.0309
H2_2 H 0.1489 -0.6779 -0.0309
C4E C 0.1277(12) 0.5540(17) -0.1362(19)
C4E_2 C 0.1277(12) -0.4460(17) -0.1362(19)
C4_2 C 0.1277(12) -0.5540(17) -0.1362(19)
H3E H 0.1118 0.5894 -0.2137
H3E_2 H 0.1118 -0.4106 -0.2137
H3_2 H 0.1118 -0.5894 -0.2137
C5E C 0.1726(12) -0.0524(15) 0.099(2)
C5E_2 C 0.1726(12) 0.9476(15) 0.099(2)
C5_2 C 0.1726(12) 1.0524(15) 0.099(2)
H4E H 0.1417 -0.0868 0.0331
H4E_2 H 0.1417 0.9132 0.0331
H4_2 H 0.1417 1.0868 0.0331
C6E C 0.2574(9) -0.0538(11) 0.2736(16)
C6E_2 C 0.2574(9) 0.9462(11) 0.2736(16)
C6_2 C 0.2574(9) 1.0538(11) 0.2736(16)
C7E C 0.3037(9) -0.1051(14) 0.367(2)
C7E_2 C 0.3037(9) 0.8949(14) 0.367(2)
C7_2 C 0.3037(9) 1.1051(14) 0.367(2)
H5E H 0.3054 -0.1769 0.3648
H5E_2 H 0.3054 0.8231 0.3648
H5_2 H 0.3054 1.1769 0.3648
C8E C 0.3466(10) -0.0541(17) 0.462(2)
C8E_2 C 0.3466(10) 0.9459(17) 0.462(2)
C8_2 C 0.3466(10) 1.0541(17) 0.462(2)
H6E H 0.3764 -0.0902 0.5275
H6E_2 H 0.3764 0.9098 0.5275
H6_2 H 0.3764 1.0902 0.5275
Cu2E Cu 0.20535(15) 0.75047(16) 0.1986(3)
Cu2E_2 Cu 0.20535(15) -0.24953(16) 0.1986(3)
Cu2_2 Cu 0.20535(15) -0.75047(16) 0.1986(3)
Cu2_3 Cu 0.20535(15) 1.24953(16) 0.1986(3)
N1E N 0.1967(6) 0.6062(10) 0.1976(13)
N1E_2 N 0.1967(6) -0.3938(10) 0.1976(13)
N1_2 N 0.1967(6) -0.6062(10) 0.1976(13)
N2E N 0.2129(8) -0.1055(11) 0.1841(15)
N2E_2 N 0.2129(8) 0.8945(11) 0.1841(15)
N2_2 N 0.2129(8) 1.1055(11) 0.1841(15)
N2_3 N 0.2129(8) -0.8945(11) 0.1841(15)
O14 O 0.0000 0.5000 0.0000
P1 P 0.0000 0.0000 0.5000
W1 W 0.11942(3) 0.13380(4) 0.41472(7)
W2 W 0.0000 0.26831(6) 0.5000
W3 W 0.11739(3) 0.13355(4) 0.73717(6)
Cu1 Cu 0.00232(7) 0.0000 0.18357(13)
O1 O 0.1767(5) 0.2036(9) 0.3827(10)
O2 O 0.0630(6) 0.2384(13) 0.4234(13)
O3 O 0.1483(6) 0.1388(13) 0.5940(14)
O4 O 0.1506(10) 0.0000 0.432(2)
O5 O 0.0647(7) 0.1027(11) 0.2552(14)
O6 O 0.0464(11) 0.0000 0.409(2)
O7 O 0.0440(12) 0.0000 0.633(3)
O8 O 0.0614(6) 0.2395(13) 0.6574(13)
O9 O 0.0000 0.3946(13) 0.5000
O10 O 0.0613(7) 0.1014(9) 0.8242(14)
O11 O 0.1481(11) 0.0000 0.760(2)
O12 O 0.1753(6) 0.1963(10) 0.8444(13)
O13 O 0.0000 0.0000 0.0000
W1A W -0.11942(3) 0.13380(4) 0.58528(7)
W1E W 0.11942(3) -0.13380(4) 0.41472(7)
W1D W -0.11942(3) -0.13380(4) 0.58528(7)
W2D W 0.0000 -0.26831(6) 0.5000
W3A W -0.11739(3) 0.13355(4) 0.26283(6)
W3E W 0.11739(3) -0.13355(4) 0.73717(6)
W3D W -0.11739(3) -0.13355(4) 0.26283(6)
Cu1A Cu -0.00232(7) 0.0000 0.81643(13)
Cu1A_2 Cu -0.00232(7) 0.0000 -0.18357(13)
O1A O -0.1767(5) 0.2036(9) 0.6173(10)
O1E O 0.1767(5) -0.2036(9) 0.3827(10)
O1D O -0.1767(5) -0.2036(9) 0.6173(10)
O2A O -0.0630(6) 0.2384(13) 0.5766(13)
O2E O 0.0630(6) -0.2384(13) 0.4234(13)
O2D O -0.0630(6) -0.2384(13) 0.5766(13)
O3A O -0.1483(6) 0.1388(13) 0.4060(14)
O3E O 0.1483(6) -0.1388(13) 0.5940(14)
O3D O -0.1483(6) -0.1388(13) 0.4060(14)
O4A O -0.1506(10) 0.0000 0.568(2)
O5A O -0.0647(7) 0.1027(11) 0.7448(14)
O5E O 0.0647(7) -0.1027(11) 0.2552(14)
O5D O -0.0647(7) -0.1027(11) 0.7448(14)
O6A O -0.0464(11) 0.0000 0.591(2)
O7A O -0.0440(12) 0.0000 0.367(3)
O8A O -0.0614(6) 0.2395(13) 0.3426(13)
O8E O 0.0614(6) -0.2395(13) 0.6574(13)
O8D O -0.0614(6) -0.2395(13) 0.3426(13)
O9D O 0.0000 -0.3946(13) 0.5000
O10A O -0.0613(7) 0.1014(9) 0.1758(14)
O10D O -0.0613(7) -0.1014(9) 0.1758(14)
O10E O 0.0613(7) -0.1014(9) 0.8242(14)
O11A O -0.1481(11) 0.0000 0.240(2)
O12A O -0.1753(6) 0.1963(10) 0.1556(13)
O12E O 0.1753(6) -0.1963(10) 0.8444(13)
O12D O -0.1753(6) -0.1963(10) 0.1556(13)
O13_2 O 0.0000 0.0000 1.0000
W4? W -0.00232(7) 0.0000 0.81643(13)
O15? O 0.0389(9) 0.0964(14) 0.5302(18)
O16? O 0.965(3) 0.5000 0.800(6)
loop_
_geom_bond_atom_site_label_1
_geom_bond_atom_site_label_2
_geom_bond_site_symmetry_1
_geom_bond_site_symmetry_2
P1 O6 1_555 1_555
W1 O1 1_555 1_555
W2 O2 1_555 1_555
W3 O3 1_555 1_555
Cu1 O5 1_555 1_555
C1 H1 1_555 1_555
C2 C3 1_555 1_555
C3 H2 1_555 1_555
C4 C3 1_555 1_555
H3 C4 1_555 1_555
C5 H4 1_555 1_555
C6 C7 1_555 1_555
C7 H5 1_555 1_555
C8 C7 1_555 1_555
H6 C8 1_555 1_555
Cu2 N1 1_555 1_555
N1 C1 1_555 1_555
N2 C5 1_555 1_555
O2 W1 1_555 1_555
O3 W1 1_555 1_555
O4 W1 1_555 1_555
O5 W1 1_555 1_555
O6 W1 1_555 1_555
O7 P1 1_555 1_555
O8 W2 1_555 1_555
O9 W2 1_555 1_555
O10 W3 1_555 1_555
O11 W3 1_555 1_555
O12 W3 1_555 1_555
O13 Cu1 1_555 1_555
W1A O1A 1_555 1_555
W1E O4 1_555 1_555
W1D O1D 1_555 1_555
W2D O2E 1_555 1_555
W3A O3A 1_555 1_555
W3E O7 1_555 1_555
W3D O3D 1_555 1_555
Cu1A O10 1_555 1_555
Cu1A_2 O13 1_555 1_555
C1E C1 1_555 1_555
C1E_2 C1_2 1_555 1_555
C1_2 H1_2 1_555 1_555
H1E C1E 1_555 1_555
H1E_2 C1E_2 1_555 1_555
C2E C2 1_555 1_555
C2E_2 C2_2 1_555 1_555
C2_2 C3_2 1_555 1_555
C3E C2E 1_555 1_555
C3E_2 C2E_2 1_555 1_555
C3_2 H2_2 1_555 1_555
H2E C3E 1_555 1_555
H2E_2 C3E_2 1_555 1_555
C4E C4 1_555 1_555
C4E_2 C3E_2 1_555 1_555
C4_2 C3_2 1_555 1_555
H3E C4E 1_555 1_555
H3E_2 C4E_2 1_555 1_555
H3_2 C4_2 1_555 1_555
C5E C5 1_555 1_555
C5E_2 C5_2 1_555 1_555
C5_2 H4_2 1_555 1_555
H4E C5E 1_555 1_555
H4E_2 C5E_2 1_555 1_555
C6E C6 1_555 1_555
C6E_2 C6_2 1_555 1_555
C6_2 C7_2 1_555 1_555
C7E C6E 1_555 1_555
C7E_2 C6E_2 1_555 1_555
C7_2 H5_2 1_555 1_555
H5E C7E 1_555 1_555
H5E_2 C7E_2 1_555 1_555
C8E C8 1_555 1_555
C8E_2 C7E_2 1_555 1_555
C8_2 C7_2 1_555 1_555
H6E C8E 1_555 1_555
H6E_2 C8E_2 1_555 1_555
H6_2 C8_2 1_555 1_555
Cu2E N1E 1_555 1_555
Cu2E_2 N1E_2 1_555 1_555
Cu2_2 N1_2 1_555 1_555
Cu2_3 N2_2 1_555 1_555
N1E C1E 1_555 1_555
N1E_2 C1E_2 1_555 1_555
N1_2 C1_2 1_555 1_555
N2E C5E 1_555 1_555
N2E_2 C5E_2 1_555 1_555
N2_2 C5_2 1_555 1_555
N2_3 Cu2_2 1_555 1_555
O1E W1E 1_555 1_555
O2A W2 1_555 1_555
O2E W1E 1_555 1_555
O2D W1D 1_555 1_555
O3A W1A 1_555 1_555
O3E W1E 1_555 1_555
O3D W1D 1_555 1_555
O4A W1A 1_555 1_555
O5A W1A 1_555 1_555
O5E Cu1 1_555 1_555
O5D W1D 1_555 1_555
O6A P1 1_555 1_555
O7A P1 1_555 1_555
O8A W2 1_555 1_555
O8E W2D 1_555 1_555
O8D W2D 1_555 1_555
O9D W2D 1_555 1_555
O10A Cu1 1_555 1_555
O10D Cu1 1_555 1_555
O10E W3E 1_555 1_555
O11A W3A 1_555 1_555
O12A W3A 1_555 1_555
O12E W3E 1_555 1_555
O12D W3D 1_555 1_555
O13_2 Cu1A 1_555 1_555
W3 O7 1_555 1_555
W3 O8 1_555 1_555
Cu1 O6 1_555 1_555
C2 N1 1_555 1_555
C6 N2 1_555 1_555
Cu2 N2 1_555 1_555
O6 W1E 1_555 1_555
O11 W3E 1_555 1_555
W1A O2A 1_555 1_555
W1A O6A 1_555 1_555
W1E O5E 1_555 1_555
W1D O4A 1_555 1_555
W1D O6A 1_555 1_555
W2D O2D 1_555 1_555
W3A O7A 1_555 1_555
W3A O8A 1_555 1_555
W3A O10A 1_555 1_555
W3E O3E 1_555 1_555
W3E O8E 1_555 1_555
W3D O7A 1_555 1_555
W3D O8D 1_555 1_555
W3D O10D 1_555 1_555
W3D O11A 1_555 1_555
Cu1A O5A 1_555 1_555
Cu1A O5D 1_555 1_555
Cu1A O6A 1_555 1_555
Cu1A O10E 1_555 1_555
C2E N1E 1_555 1_555
C2E_2 N1E_2 1_555 1_555
C2_2 N1_2 1_555 1_555
C3E C4E 1_555 1_555
C4E_2 C4_2 1_555 1_555
C6E N2E 1_555 1_555
C6E_2 N2E_2 1_555 1_555
C6_2 N2_2 1_555 1_555
C7E C8E 1_555 1_555
C8E_2 C8_2 1_555 1_555
Cu2E N2E_2 1_555 1_555
Cu2E_2 N2E 1_555 1_555

#END
