
#######################################################################
#
#                 Cambridge Crystallographic Data Centre
#                                CCDC 
#
#######################################################################
#
# If this CIF has been generated from an entry in the Cambridge 
# Structural Database, then it will include bibliographic, chemical, 
# crystal, experimental, refinement or atomic coordinate data resulting 
# from the CCDC's data processing and validation procedures.
#
#######################################################################

data_MATCER
_symmetry_cell_setting           rhombohedral
_symmetry_space_group_name_H-M   'R -3 m'
_symmetry_Int_Tables_number      166
_space_group_name_Hall           '-R 3 2"'
loop_
_symmetry_equiv_pos_site_id
_symmetry_equiv_pos_as_xyz
1 x,y,z
2 -y,x-y,z
3 -x+y,-x,z
4 y,x,-z
5 x-y,-y,-z
6 -x,-x+y,-z
7 2/3+x,1/3+y,1/3+z
8 2/3-y,1/3+x-y,1/3+z
9 2/3-x+y,1/3-x,1/3+z
10 2/3+y,1/3+x,1/3-z
11 2/3+x-y,1/3-y,1/3-z
12 2/3-x,1/3-x+y,1/3-z
13 1/3+x,2/3+y,2/3+z
14 1/3-y,2/3+x-y,2/3+z
15 1/3-x+y,2/3-x,2/3+z
16 1/3+y,2/3+x,2/3-z
17 1/3+x-y,2/3-y,2/3-z
18 1/3-x,2/3-x+y,2/3-z
19 -x,-y,-z
20 y,-x+y,-z
21 x-y,x,-z
22 -y,-x,z
23 -x+y,y,z
24 x,x-y,z
25 1/3-x,2/3-y,2/3-z
26 1/3+y,2/3-x+y,2/3-z
27 1/3+x-y,2/3+x,2/3-z
28 1/3-y,2/3-x,2/3+z
29 1/3-x+y,2/3+y,2/3+z
30 1/3+x,2/3+x-y,2/3+z
31 2/3-x,1/3-y,1/3-z
32 2/3+y,1/3-x+y,1/3-z
33 2/3+x-y,1/3+x,1/3-z
34 2/3-y,1/3-x,1/3+z
35 2/3-x+y,1/3+y,1/3+z
36 2/3+x,1/3+x-y,1/3+z
_cell_length_a                   20.303(3)
_cell_length_b                   20.303(3)
_cell_length_c                   53.196(11)
_cell_angle_alpha                90
_cell_angle_beta                 90
_cell_angle_gamma                120
_cell_volume                     18990.2
loop_
_atom_site_label
_atom_site_type_symbol
_atom_site_fract_x
_atom_site_fract_y
_atom_site_fract_z
Cu1 Cu 0.33322(6) 0.33500(6) 0.07733(3)
N1 N 0.2474(4) 0.3551(4) 0.07626(15)
N2 N 0.3365(4) 0.2382(4) 0.07375(16)
N3 N 0.4437(4) 0.4185(4) 0.07955(16)
C1 C 0.1985(5) 0.3275(5) 0.05807(19)
H1 H 0.2098 0.3065 0.0443
C2 C 0.2281(5) 0.3886(5) 0.0963(2)
C3 C 0.2790(6) 0.4244(6) 0.1164(2)
H2 H 0.3249 0.4247 0.1167
C4 C 0.2623(6) 0.4583(7) 0.1351(2)
H3 H 0.2968 0.4818 0.1482
C5 C 0.3617(5) 0.2148(5) 0.0929(2)
H4 H 0.3803 0.2458 0.1070
C6 C 0.3133(5) 0.1918(5) 0.0531(2)
C7 C 0.2890(5) 0.2134(5) 0.03160(19)
H5 H 0.2917 0.2605 0.0310
C8 C 0.2621(6) 0.1663(5) 0.0122(2)
H6 H 0.2430 0.1793 -0.0017
C9 C 0.4774(5) 0.4530(6) 0.0585(2)
H7 H 0.4549 0.4310 0.0432
C10 C 0.4808(5) 0.4498(5) 0.10191(19)
C11 C 0.4488(5) 0.4141(6) 0.1251(2)
H8 H 0.4032 0.3681 0.1253
C12 C 0.4846(6) 0.4469(6) 0.1472(2)
H9 H 0.4629 0.4232 0.1624
Cu1V Cu 0.00178(8) 0.33500(6) 0.07733(3)
Cu1W Cu 0.33322(6) -0.00178(8) 0.07733(3)
Cu1U Cu 0.66500(6) 0.66678(6) 0.07733(3)
Cu1B Cu 0.00178(8) -0.33322(6) 0.07733(3)
Cu1A Cu -0.33500(6) -0.00178(8) 0.07733(3)
Cu1A_2 Cu 0.66500(6) -0.00178(8) 0.07733(3)
Cu1A_3 Cu 0.66500(6) 0.99822(8) 0.07733(3)
Cu1B_2 Cu 1.00178(8) 0.66678(6) 0.07733(3)
Cu1W_2 Cu 1.33322(6) 0.99822(8) 0.07733(3)
N1V N 0.1077(6) 0.3551(4) 0.07626(15)
N1W N 0.2474(4) -0.1077(6) 0.07626(15)
N1B N 0.1077(6) -0.2474(4) 0.07626(15)
N1U N 0.6449(4) 0.7526(4) 0.07626(15)
N1A N 0.6449(4) 0.8923(6) 0.07626(15)
N1B_2 N 1.1077(6) 0.7526(4) 0.07626(15)
N1W_2 N 1.2474(4) 0.8923(6) 0.07626(15)
N2W N 0.3365(4) 0.0983(6) 0.07375(16)
N2V N -0.0983(6) 0.2382(4) 0.07375(16)
N2A N -0.2382(4) 0.0983(6) 0.07375(16)
N2U N 0.7618(4) 0.6635(4) 0.07375(16)
N2B N 0.9017(6) 0.6635(4) 0.07375(16)
N2W_2 N 1.3365(4) 1.0983(6) 0.07375(16)
N3U N 0.5815(4) 0.5563(4) 0.07955(16)
N3V N -0.0252(6) 0.4185(4) 0.07955(16)
N3W N 0.4437(4) 0.0252(6) 0.07955(16)
N3A N 0.5815(4) 0.0252(6) 0.07955(16)
N3B N 0.9748(6) 0.5563(4) 0.07955(16)
N3W_2 N 1.4437(4) 1.0252(6) 0.07955(16)
C1V C 0.1290(7) 0.3275(5) 0.05807(19)
C1W C 0.1985(5) -0.1290(7) 0.05807(19)
C1B C 0.1290(7) -0.1985(5) 0.05807(19)
C1U C 0.6725(5) 0.8015(5) 0.05807(19)
C1A C 0.6725(5) 0.8710(7) 0.05807(19)
C1B_2 C 1.1290(7) 0.8015(5) 0.05807(19)
C1W_2 C 1.1985(5) 0.8710(7) 0.05807(19)
H1V H 0.0967 0.3065 0.0443
H1W H 0.2098 -0.0967 0.0443
H1B H 0.0967 -0.2098 0.0443
H1U H 0.6935 0.7902 0.0443
H1A H 0.6935 0.9033 0.0443
H1B_2 H 1.0967 0.7902 0.0443
H1W_2 H 1.2098 0.9033 0.0443
C2V C 0.1605(7) 0.3886(5) 0.0963(2)
C2W C 0.2281(5) -0.1605(7) 0.0963(2)
C2B C 0.1605(7) -0.2281(5) 0.0963(2)
C2U C 0.6114(5) 0.7719(5) 0.0963(2)
C2A C 0.6114(5) 0.8395(7) 0.0963(2)
C2B_2 C 1.1605(7) 0.7719(5) 0.0963(2)
C2W_2 C 1.2281(5) 0.8395(7) 0.0963(2)
C3V C 0.1454(8) 0.4244(6) 0.1164(2)
C3W C 0.2790(6) -0.1454(8) 0.1164(2)
C3B C 0.1454(8) -0.2790(6) 0.1164(2)
C3U C 0.5756(6) 0.7210(6) 0.1164(2)
C3A C 0.5756(6) 0.8546(8) 0.1164(2)
C3B_2 C 1.1454(8) 0.7210(6) 0.1164(2)
C3W_2 C 1.2790(6) 0.8546(8) 0.1164(2)
H2V H 0.0998 0.4247 0.1167
H2W H 0.3249 -0.0998 0.1167
H2B H 0.0998 -0.3249 0.1167
H2U H 0.5753 0.6751 0.1167
H2A H 0.5753 0.9002 0.1167
H2B_2 H 1.0998 0.6751 0.1167
H2W_2 H 1.3249 0.9002 0.1167
C4V C 0.1960(9) 0.4583(7) 0.1351(2)
C4W C 0.2623(6) -0.1960(9) 0.1351(2)
C4B C 0.1960(9) -0.2623(6) 0.1351(2)
C4U C 0.5417(7) 0.7377(6) 0.1351(2)
C4A C 0.5417(7) 0.8040(9) 0.1351(2)
C4B_2 C 1.1960(9) 0.7377(6) 0.1351(2)
C4W_2 C 1.2623(6) 0.8040(9) 0.1351(2)
H3V H 0.1850 0.4818 0.1482
H3W H 0.2968 -0.1850 0.1482
H3B H 0.1850 -0.2968 0.1482
H3U H 0.5182 0.7032 0.1482
H3A H 0.5182 0.8150 0.1482
H3B_2 H 1.1850 0.7032 0.1482
H3W_2 H 1.2968 0.8150 0.1482
C5W C 0.3617(5) 0.1469(7) 0.0929(2)
C5V C -0.1469(7) 0.2148(5) 0.0929(2)
C5A C -0.2148(5) 0.1469(7) 0.0929(2)
C5U C 0.7852(5) 0.6383(5) 0.0929(2)
C5B C 0.8531(7) 0.6383(5) 0.0929(2)
H4W H 0.3803 0.1345 0.1070
H4V H -0.1345 0.2458 0.1070
H4A H -0.2458 0.1345 0.1070
H4U H 0.7542 0.6197 0.1070
H4B H 0.8655 0.6197 0.1070
C6W C 0.3133(5) 0.1215(7) 0.0531(2)
C6V C -0.1215(7) 0.1918(5) 0.0531(2)
C6A C -0.1918(5) 0.1215(7) 0.0531(2)
C6U C 0.8082(5) 0.6867(5) 0.0531(2)
C6B C 0.8785(7) 0.6867(5) 0.0531(2)
C7W C 0.2890(5) 0.0756(7) 0.03160(19)
C7V C -0.0756(7) 0.2134(5) 0.03160(19)
C7A C -0.2134(5) 0.0756(7) 0.03160(19)
C7U C 0.7866(5) 0.7110(5) 0.03160(19)
C7B C 0.9244(7) 0.7110(5) 0.03160(19)
H5W H 0.2917 0.0312 0.0310
H5V H -0.0312 0.2605 0.0310
H5A H -0.2605 0.0312 0.0310
H5U H 0.7395 0.7083 0.0310
H5B H 0.9688 0.7083 0.0310
C8W C 0.2621(6) 0.0958(8) 0.0122(2)
C8V C -0.0958(8) 0.1663(5) 0.0122(2)
C8A C -0.1663(5) 0.0958(8) 0.0122(2)
C8U C 0.8337(5) 0.7379(6) 0.0122(2)
C8B C 0.9042(8) 0.7379(6) 0.0122(2)
H6W H 0.2430 0.0637 -0.0017
H6V H -0.0637 0.1793 -0.0017
H6A H -0.1793 0.0637 -0.0017
H6U H 0.8207 0.7570 -0.0017
H6B H 0.9363 0.7570 -0.0017
C9U C 0.5470(6) 0.5226(5) 0.0585(2)
C9W C 0.4774(5) 0.0244(8) 0.0585(2)
C9A C 0.5470(6) 0.0244(8) 0.0585(2)
H7U H 0.5690 0.5451 0.0432
H7W H 0.4549 0.0239 0.0432
H7A H 0.5690 0.0239 0.0432
C10U C 0.5502(5) 0.5192(5) 0.10191(19)
C10W C 0.4808(5) 0.0310(7) 0.10191(19)
C10A C 0.5502(5) 0.0310(7) 0.10191(19)
C11U C 0.5859(6) 0.5512(5) 0.1251(2)
C11W C 0.4488(5) 0.0347(8) 0.1251(2)
C11A C 0.5859(6) 0.0347(8) 0.1251(2)
H8U H 0.6319 0.5968 0.1253
H8W H 0.4032 0.0351 0.1253
H8A H 0.6319 0.0351 0.1253
C12U C 0.5531(6) 0.5154(6) 0.1472(2)
C12W C 0.4846(6) 0.0377(8) 0.1472(2)
C12A C 0.5531(6) 0.0377(8) 0.1472(2)
H9U H 0.5768 0.5371 0.1624
H9W H 0.4629 0.0397 0.1624
H9A H 0.5768 0.0397 0.1624
W1 W 0.060586(15) 0.12117(3) 0.068634(11)
W2 W 0.173175(18) 0.177698(19) 0.121401(8)
W3 W 0.11237(3) 0.056183(16) 0.178294(11)
P1 P 0.0000 0.0000 0.12213(9)
O1 O 0.0407(2) 0.0815(5) 0.11324(18)
O2 O 0.0000 0.0000 0.1512(3)
O3 O 0.1560(3) 0.1810(3) 0.08625(12)
O4 O -0.0427(3) 0.0427(3) 0.06467(18)
O5 O 0.0816(3) 0.1631(6) 0.03986(19)
O6 O 0.1480(3) 0.1373(3) 0.15461(12)
O7 O 0.1123(2) 0.2246(5) 0.12590(19)
O8 O 0.1921(5) 0.0960(2) 0.11514(16)
O9 O 0.2625(3) 0.2548(3) 0.12498(15)
O10 O 0.0435(3) 0.0870(6) 0.19063(19)
O11 O 0.1824(6) 0.0912(3) 0.19945(18)
W1A W -0.12117(3) -0.060584(34) 0.068634(11)
W1B W 0.060584(34) -0.060586(15) 0.068634(11)
W2A W -0.177698(19) -0.004523(26) 0.121401(8)
W2B W 0.004523(26) -0.173175(18) 0.121401(8)
W2V W 0.004523(26) 0.177698(19) 0.121401(8)
W2U W -0.177698(19) -0.173175(18) 0.121401(8)
W2W W 0.173175(18) -0.004523(26) 0.121401(8)
W3B W -0.056187(34) -0.11237(3) 0.178294(11)
W3A W -0.056183(16) 0.056187(34) 0.178294(11)
O1A O -0.0815(5) -0.0408(5) 0.11324(18)
O1B O 0.0408(5) -0.0407(2) 0.11324(18)
O3V O 0.0250(4) 0.1810(3) 0.08625(12)
O3A O -0.1810(3) -0.0250(4) 0.08625(12)
O3U O -0.1810(3) -0.1560(3) 0.08625(12)
O3B O 0.0250(4) -0.1560(3) 0.08625(12)
O3W O 0.1560(3) -0.0250(4) 0.08625(12)
O4B O 0.0854(4) 0.0427(3) 0.06467(18)
O4A O -0.0427(3) -0.0854(4) 0.06467(18)
O5A O -0.1631(6) -0.0815(7) 0.03986(19)
O5B O 0.0815(7) -0.0816(3) 0.03986(19)
O6W O 0.1480(3) 0.0107(4) 0.15461(12)
O6B O -0.0107(4) -0.1480(3) 0.15461(12)
O6U O -0.1373(3) -0.1480(3) 0.15461(12)
O6A O -0.1373(3) 0.0107(4) 0.15461(12)
O6V O -0.0107(4) 0.1373(3) 0.15461(12)
O7A O -0.2246(5) -0.1123(5) 0.12590(19)
O7B O 0.1123(5) -0.1123(2) 0.12590(19)
O8A O -0.0960(2) 0.0961(5) 0.11514(16)
O8B O -0.0961(5) -0.1921(5) 0.11514(16)
O9A O -0.2548(3) 0.0077(4) 0.12498(15)
O9B O -0.0077(4) -0.2625(3) 0.12498(15)
O9V O -0.0077(4) 0.2548(3) 0.12498(15)
O9U O -0.2548(3) -0.2625(3) 0.12498(15)
O9W O 0.2625(3) 0.0077(4) 0.12498(15)
O10B O 0.0435(7) -0.0435(3) 0.19063(19)
O10A O -0.0870(6) -0.0435(7) 0.19063(19)
O11B O -0.0912(7) -0.1824(6) 0.19945(18)
O11A O -0.0912(3) 0.0912(7) 0.19945(18)
W4 W 0.22054(3) 0.610270(16) 0.070262(12)
W5 W 0.511480(19) 0.67103(2) 0.013500(9)
W6 W 0.454690(17) 0.72734(3) -0.038940(13)
P2 P 0.3333 0.6667 0.01424(10)
O12 O 0.3333 0.6667 0.0432(3)
O13 O 0.4149(5) 0.7074(2) 0.00561(19)
O14 O 0.1846(3) 0.5290(4) 0.04599(14)
O15 O 0.2904(3) 0.7096(3) 0.0827(2)
O16 O 0.1514(6) 0.5757(3) 0.09227(19)
O17 O 0.5143(3) 0.6916(4) -0.02149(14)
O18 O 0.4300(5) 0.5700(3) 0.0071(2)
O19 O 0.5560(3) 0.7780(5) 0.0191(2)
O20 O 0.5890(3) 0.6596(3) 0.01758(15)
O21 O 0.3769(3) 0.7538(3) -0.04273(19)
O22 O 0.4952(3) 0.7476(7) -0.0676(2)
W4A W 0.389730(16) 0.610270(34) 0.070262(12)
W4B W 0.389730(34) 0.77946(3) 0.070262(12)
W5A W 0.32897(2) 0.840450(28) 0.013500(9)
W5B W 0.159550(28) 0.488520(19) 0.013500(9)
W5V W 0.159550(28) 0.67103(2) 0.013500(9)
W5W W 0.511480(19) 0.840450(28) 0.013500(9)
W5U W 0.32897(2) 0.488520(19) 0.013500(9)
W6A W 0.27266(3) 0.727350(34) -0.038940(13)
W6B W 0.272650(34) 0.545310(17) -0.038940(13)
O13A O 0.2926(2) 0.7075(5) 0.00561(19)
O13B O 0.2925(5) 0.5851(5) 0.00561(19)
O14W O 0.1846(3) 0.6556(5) 0.04599(14)
O14A O 0.4710(4) 0.6556(5) 0.04599(14)
O14V O 0.3444(5) 0.5290(4) 0.04599(14)
O14B O 0.3444(5) 0.8154(3) 0.04599(14)
O14U O 0.4710(4) 0.8154(3) 0.04599(14)
O15A O 0.2904(3) 0.5808(4) 0.0827(2)
O15B O 0.4192(4) 0.7096(3) 0.0827(2)
O16A O 0.4243(3) 0.5757(7) 0.09227(19)
O16B O 0.4243(7) 0.8486(6) 0.09227(19)
O17W O 0.5143(3) 0.8227(5) -0.02149(14)
O17A O 0.3084(4) 0.8227(5) -0.02149(14)
O17V O 0.1773(5) 0.6916(4) -0.02149(14)
O17B O 0.1773(5) 0.4857(3) -0.02149(14)
O17U O 0.3084(4) 0.4857(3) -0.02149(14)
O18A O 0.4300(3) 0.8600(6) 0.0071(2)
O18B O 0.1400(6) 0.5700(5) 0.0071(2)
O19A O 0.2220(5) 0.7780(6) 0.0191(2)
O19B O 0.2220(6) 0.4440(3) 0.0191(2)
O20A O 0.3404(3) 0.9294(4) 0.01758(15)
O20B O 0.0706(4) 0.4110(3) 0.01758(15)
O20V O 0.0706(4) 0.6596(3) 0.01758(15)
O20W O 0.5890(3) 0.9294(4) 0.01758(15)
O20U O 0.3404(3) 0.4110(3) 0.01758(15)
O21B O 0.3769(4) 0.6231(3) -0.04273(19)
O21A O 0.2462(3) 0.6231(4) -0.04273(19)
O22A O 0.2524(7) 0.7476(8) -0.0676(2)
O22B O 0.2524(8) 0.5048(3) -0.0676(2)
loop_
_geom_bond_atom_site_label_1
_geom_bond_atom_site_label_2
_geom_bond_site_symmetry_1
_geom_bond_site_symmetry_2
Cu1 N1 1_555 1_555
W1 O1 1_555 1_555
W2 O1 1_555 1_555
W3 O2 1_555 1_555
W4 O12 1_555 1_555
W5 O13 1_555 1_555
W6 O13 1_555 1_555
P1 O1 1_555 1_555
P2 O12 1_555 1_555
N1 C1 1_555 1_555
N2 Cu1 1_555 1_555
N3 Cu1 1_555 1_555
O1 W2V 1_555 1_555
O2 P1 1_555 1_555
O3 W1 1_555 1_555
O4 W1 1_555 1_555
O5 W1 1_555 1_555
O6 W2 1_555 1_555
O7 W2 1_555 1_555
O8 W2 1_555 1_555
O9 W2 1_555 1_555
O10 W3 1_555 1_555
O11 W3 1_555 1_555
O12 W4A 1_555 1_555
O13 P2 1_555 1_555
O14 W4 1_555 1_555
O15 W4 1_555 1_555
O16 W4 1_555 1_555
O17 W5 1_555 1_555
O18 W5 1_555 1_555
O19 W5 1_555 1_555
O20 W5 1_555 1_555
O21 W6 1_555 1_555
O22 W6 1_555 1_555
C1 H1 1_555 1_555
C2 N1 1_555 1_555
C3 C2 1_555 1_555
H2 C3 1_555 1_555
C4 C3 1_555 1_555
H3 C4 1_555 1_555
C5 N2 1_555 1_555
H4 C5 1_555 1_555
C6 N2 1_555 1_555
C7 C6 1_555 1_555
H5 C7 1_555 1_555
C8 C7 1_555 1_555
H6 C8 1_555 1_555
C9 N3 1_555 1_555
H7 C9 1_555 1_555
C10 N3 1_555 1_555
C11 C10 1_555 1_555
H8 C11 1_555 1_555
C12 C11 1_555 1_555
H9 C12 1_555 1_555
Cu1V N1V 1_555 1_555
Cu1W N1W 1_555 1_555
Cu1U N1U 1_555 1_555
Cu1B N1B 1_555 1_555
Cu1A N2A 1_555 1_555
Cu1A_2 N3A 1_555 1_555
Cu1A_3 N1A 1_555 1_555
Cu1B_2 N1B_2 1_555 1_555
Cu1W_2 N1W_2 1_555 1_555
W1A O4 1_555 1_555
W1B O1B 1_555 1_555
W2A O1A 1_555 1_555
W2B O1B 1_555 1_555
W2V O7 1_555 1_555
W2U O1A 1_555 1_555
W2W O8 1_555 1_555
W3B O2 1_555 1_555
W3A O2 1_555 1_555
W4A O14A 1_555 1_555
W4B O12 1_555 1_555
W5A O13A 1_555 1_555
W5B O14 1_555 1_555
W5V O13A 1_555 1_555
W5W O13 1_555 1_555
W5U O18 1_555 1_555
W6A O21 1_555 1_555
W6B O13B 1_555 1_555
N1V C1V 1_555 1_555
N1W C1W 1_555 1_555
N1B C1B 1_555 1_555
N1U C1U 1_555 1_555
N1A C1A 1_555 1_555
N1B_2 C1B_2 1_555 1_555
N1W_2 C1W_2 1_555 1_555
N2W Cu1W 1_555 1_555
N2V Cu1V 1_555 1_555
N2A C5A 1_555 1_555
N2U Cu1U 1_555 1_555
N2B Cu1B_2 1_555 1_555
N2W_2 Cu1W_2 1_555 1_555
N3U Cu1U 1_555 1_555
N3V Cu1V 1_555 1_555
N3W Cu1W 1_555 1_555
N3A C9A 1_555 1_555
N3B Cu1B_2 1_555 1_555
N3W_2 Cu1W_2 1_555 1_555
O1A P1 1_555 1_555
O1B P1 1_555 1_555
O3V W1 1_555 1_555
O3A W1A 1_555 1_555
O3U W1A 1_555 1_555
O3B W1B 1_555 1_555
O3W W1B 1_555 1_555
O4B W1 1_555 1_555
O4A W1A 1_555 1_555
O5A W1A 1_555 1_555
O5B W1B 1_555 1_555
O6W W3 1_555 1_555
O6B W2B 1_555 1_555
O6U W2U 1_555 1_555
O6A W2A 1_555 1_555
O6V W2V 1_555 1_555
O7A W2A 1_555 1_555
O7B W2B 1_555 1_555
O8A W2A 1_555 1_555
O8B W2B 1_555 1_555
O9A W2A 1_555 1_555
O9B W2B 1_555 1_555
O9V W2V 1_555 1_555
O9U W2U 1_555 1_555
O9W W2W 1_555 1_555
O10B W3 1_555 1_555
O10A W3B 1_555 1_555
O11B W3B 1_555 1_555
O11A W3A 1_555 1_555
O13A P2 1_555 1_555
O13B P2 1_555 1_555
O14W W4 1_555 1_555
O14A W5 1_555 1_555
O14V W4A 1_555 1_555
O14B W4B 1_555 1_555
O14U W4B 1_555 1_555
O15A W4 1_555 1_555
O15B W4A 1_555 1_555
O16A W4A 1_555 1_555
O16B W4B 1_555 1_555
O17W W6 1_555 1_555
O17A W5A 1_555 1_555
O17V W5V 1_555 1_555
O17B W5B 1_555 1_555
O17U W5U 1_555 1_555
O18A W5A 1_555 1_555
O18B W5B 1_555 1_555
O19A W5A 1_555 1_555
O19B W5B 1_555 1_555
O20A W5A 1_555 1_555
O20B W5B 1_555 1_555
O20V W5V 1_555 1_555
O20W W5W 1_555 1_555
O20U W5U 1_555 1_555
O21B W6 1_555 1_555
O21A W6A 1_555 1_555
O22A W6A 1_555 1_555
O22B W6B 1_555 1_555
C1V C1 1_555 1_555
C1W C1B 1_555 1_555
C1B H1B 1_555 1_555
C1U C1A 1_555 1_555
C1A H1A 1_555 1_555
C1B_2 C1W_2 1_555 1_555
C1W_2 H1W_2 1_555 1_555
H1V C1V 1_555 1_555
H1W C1W 1_555 1_555
H1U C1U 1_555 1_555
H1B_2 C1B_2 1_555 1_555
C2V C2 1_555 1_555
C2W N1W 1_555 1_555
C2B N1B 1_555 1_555
C2U N1U 1_555 1_555
C2A N1A 1_555 1_555
C2B_2 N1B_2 1_555 1_555
C2W_2 N1W_2 1_555 1_555
C3V C2V 1_555 1_555
C3W C2W 1_555 1_555
C3B C2B 1_555 1_555
C3U C2U 1_555 1_555
C3A C2A 1_555 1_555
C3B_2 C2B_2 1_555 1_555
C3W_2 C2W_2 1_555 1_555
H2V C3V 1_555 1_555
H2W C3W 1_555 1_555
H2B C3B 1_555 1_555
H2U C3U 1_555 1_555
H2A C3A 1_555 1_555
H2B_2 C3B_2 1_555 1_555
H2W_2 C3W_2 1_555 1_555
C4V C4 1_555 1_555
C4W C3W 1_555 1_555
C4B C3B 1_555 1_555
C4U C3U 1_555 1_555
C4A C3A 1_555 1_555
C4B_2 C3B_2 1_555 1_555
C4W_2 C3W_2 1_555 1_555
H3V C4V 1_555 1_555
H3W C4W 1_555 1_555
H3B C4B 1_555 1_555
H3U C4U 1_555 1_555
H3A C4A 1_555 1_555
H3B_2 C4B_2 1_555 1_555
H3W_2 C4W_2 1_555 1_555
C5W C5 1_555 1_555
C5V N2V 1_555 1_555
C5A C5V 1_555 1_555
C5U N2U 1_555 1_555
C5B N2B 1_555 1_555
H4W C5W 1_555 1_555
H4V C5V 1_555 1_555
H4A C5A 1_555 1_555
H4U C5U 1_555 1_555
H4B C5B 1_555 1_555
C6W C6 1_555 1_555
C6V N2V 1_555 1_555
C6A N2A 1_555 1_555
C6U N2U 1_555 1_555
C6B N2B 1_555 1_555
C7W C6W 1_555 1_555
C7V C6V 1_555 1_555
C7A C6A 1_555 1_555
C7U C6U 1_555 1_555
C7B C6B 1_555 1_555
H5W C7W 1_555 1_555
H5V C7V 1_555 1_555
H5A C7A 1_555 1_555
H5U C7U 1_555 1_555
H5B C7B 1_555 1_555
C8W C8 1_555 1_555
C8V C7V 1_555 1_555
C8A C7A 1_555 1_555
C8U C7U 1_555 1_555
C8B C7B 1_555 1_555
H6W C8W 1_555 1_555
H6V C8V 1_555 1_555
H6A C8A 1_555 1_555
H6U C8U 1_555 1_555
H6B C8B 1_555 1_555
C9U C9 1_555 1_555
C9W N3W 1_555 1_555
C9A C9W 1_555 1_555
H7U C9U 1_555 1_555
H7W C9W 1_555 1_555
H7A C9A 1_555 1_555
C10U C10 1_555 1_555
C10W N3W 1_555 1_555
C10A N3A 1_555 1_555
C11U C10U 1_555 1_555
C11W C10W 1_555 1_555
C11A C10A 1_555 1_555
H8U C11U 1_555 1_555
H8W C11W 1_555 1_555
H8A C11A 1_555 1_555
C12U C12 1_555 1_555
C12W C11W 1_555 1_555
C12A C11A 1_555 1_555
H9U C12U 1_555 1_555
H9W C12W 1_555 1_555
H9A C12A 1_555 1_555
W2 O3 1_555 1_555
W3 O6 1_555 1_555
W6 O17 1_555 1_555
O10 W3A 1_555 1_555
O15 W4B 1_555 1_555
O19 W5W 1_555 1_555
W1A O1A 1_555 1_555
W1B O4B 1_555 1_555
W1B O4A 1_555 1_555
W2A O3A 1_555 1_555
W2B O3B 1_555 1_555
W2V O3V 1_555 1_555
W2V O8A 1_555 1_555
W2U O3U 1_555 1_555
W2U O7A 1_555 1_555
W2U O8B 1_555 1_555
W2W O1B 1_555 1_555
W2W O3W 1_555 1_555
W2W O6W 1_555 1_555
W2W O7B 1_555 1_555
W3B O6B 1_555 1_555
W3B O6U 1_555 1_555
W3B O10B 1_555 1_555
W3A O6A 1_555 1_555
W3A O6V 1_555 1_555
W3A O10A 1_555 1_555
W4A O15A 1_555 1_555
W4B O15B 1_555 1_555
W5A O14B 1_555 1_555
W5B O13B 1_555 1_555
W5V O14W 1_555 1_555
W5V O18B 1_555 1_555
W5V O19A 1_555 1_555
W5W O14U 1_555 1_555
W5W O17W 1_555 1_555
W5W O18A 1_555 1_555
W5U O13B 1_555 1_555
W5U O14V 1_555 1_555
W5U O19B 1_555 1_555
W6A O13A 1_555 1_555
W6A O17A 1_555 1_555
W6A O17V 1_555 1_555
W6B O17B 1_555 1_555
W6B O17U 1_555 1_555
W6B O21B 1_555 1_555
W6B O21A 1_555 1_555
N1V C2V 1_555 1_555
N2W C5W 1_555 1_555
N2W C6W 1_555 1_555
N3U C9U 1_555 1_555
N3U C10U 1_555 1_555
C2W C2B 1_555 1_555
C2U C2A 1_555 1_555
C2B_2 C2W_2 1_555 1_555
C3V C4V 1_555 1_555
C4W C4B 1_555 1_555
C4U C4A 1_555 1_555
C4B_2 C4W_2 1_555 1_555
C5U C5B 1_555 1_555
C6V C6A 1_555 1_555
C6U C6B 1_555 1_555
C7W C8W 1_555 1_555
C8V C8A 1_555 1_555
C8U C8B 1_555 1_555
C10W C10A 1_555 1_555
C11U C12U 1_555 1_555
C12W C12A 1_555 1_555

#END
