
#######################################################################
#
#                 Cambridge Crystallographic Data Centre
#                                CCDC 
#
#######################################################################
#
# If this CIF has been generated from an entry in the Cambridge 
# Structural Database, then it will include bibliographic, chemical, 
# crystal, experimental, refinement or atomic coordinate data resulting 
# from the CCDC's data processing and validation procedures.
#
#######################################################################

data_MATCIV
_symmetry_cell_setting           orthorhombic
_symmetry_space_group_name_H-M   'P c c n'
_symmetry_Int_Tables_number      56
_space_group_name_Hall           '-P 2ab 2ac'
loop_
_symmetry_equiv_pos_site_id
_symmetry_equiv_pos_as_xyz
1 x,y,z
2 1/2-x,1/2-y,z
3 -x,1/2+y,1/2-z
4 1/2+x,-y,1/2-z
5 -x,-y,-z
6 1/2+x,1/2+y,-z
7 x,1/2-y,1/2+z
8 1/2-x,y,1/2+z
_cell_length_a                   16.9679(11)
_cell_length_b                   18.5233(12)
_cell_length_c                   21.4289(15)
_cell_angle_alpha                90
_cell_angle_beta                 90
_cell_angle_gamma                90
_cell_volume                     6735.14
loop_
_atom_site_label
_atom_site_type_symbol
_atom_site_fract_x
_atom_site_fract_y
_atom_site_fract_z
Cu1 Cu 0.7500 0.7500 0.14159(12)
C1 C 0.5920(8) 0.7610(7) 0.1797(6)
H1 H 0.6094 0.7302 0.2111
C2 C 0.5170(7) 0.7874(6) 0.1832(6)
H2 H 0.4856 0.7741 0.2168
C3 C 0.5322(6) 0.8457(5) 0.0903(5)
C4 C 0.6106(6) 0.8195(5) 0.0854(5)
C5 C 0.6564(7) 0.8350(7) 0.0339(5)
H3 H 0.7070 0.8161 0.0308
C6 C 0.6289(9) 0.8761(8) -0.0103(6)
H4 H 0.6610 0.8870 -0.0441
C7 C 0.5467(10) 0.9066(9) -0.0084(6)
H5 H 0.5272 0.9360 -0.0400
C8 C 0.5028(8) 0.8887(8) 0.0420(6)
H6 H 0.4513 0.9055 0.0446
C9 C 0.2886(9) 0.9994(9) 0.1910(6)
H7 H 0.2513 0.9629 0.1947
C10 C 0.2645(11) 1.0771(10) 0.1965(7)
H8 H 0.2122 1.0882 0.2052
C11 C 0.3879(14) 1.1146(9) 0.1803(7)
C12 C 0.4172(13) 1.0425(8) 0.1769(7)
C13 C 0.4957(13) 1.0256(9) 0.1711(7)
H9 H 0.5130 0.9780 0.1709
C14 C 0.5503(15) 1.0855(10) 0.1653(8)
H10 H 0.6044 1.0779 0.1629
C15 C 0.5178(15) 1.1571(10) 0.1636(8)
H11 H 0.5514 1.1958 0.1561
C16 C 0.4429(15) 1.1699(9) 0.1721(8)
H12 H 0.4256 1.2175 0.1728
C17 C 0.2758(7) 0.7790(6) 0.1131(6)
H13 H 0.2937 0.7970 0.0751
C18 C 0.2742(6) 0.7823(8) 0.2181(6)
C19 C 0.2934(9) 0.8156(10) 0.2758(7)
H14 H 0.3233 0.8576 0.2760
C20 C 0.2684(13) 0.7866(13) 0.3306(11)
H15 H 0.2742 0.8122 0.3677
Cu2 Cu 0.38926(10) 0.88339(9) 0.16332(9)
N1 N 0.6418(5) 0.7773(5) 0.1330(5)
N2 N 0.4877(6) 0.8309(5) 0.1407(5)
N3 N 0.3611(7) 0.9838(5) 0.1811(5)
N4 N 0.3126(10) 1.1267(9) 0.1897(8)
N5 N 0.3007(5) 0.8099(6) 0.1657(6)
O23 O 0.7500 0.7500 0.2539(8)
C1A C 0.9080(8) 0.7390(7) 0.1797(6)
H1A H 0.8906 0.7698 0.2111
C2A C 0.9830(7) 0.7126(6) 0.1832(6)
H2A H 1.0144 0.7259 0.2168
C3A C 0.9678(6) 0.6543(5) 0.0903(5)
C4A C 0.8894(6) 0.6805(5) 0.0854(5)
C5A C 0.8436(7) 0.6650(7) 0.0339(5)
H3A H 0.7930 0.6839 0.0308
C6A C 0.8711(9) 0.6239(8) -0.0103(6)
H4A H 0.8390 0.6130 -0.0441
C7A C 0.9533(10) 0.5934(9) -0.0084(6)
H5A H 0.9728 0.5640 -0.0400
C8A C 0.9972(8) 0.6113(8) 0.0420(6)
H6A H 1.0487 0.5945 0.0446
C9A C 1.2114(9) 0.5006(9) 0.1910(6)
H7A H 1.2487 0.5371 0.1947
C10A C 1.2355(11) 0.4229(10) 0.1965(7)
H8A H 1.2878 0.4118 0.2052
C11A C 1.1121(14) 0.3854(9) 0.1803(7)
C12A C 1.0828(13) 0.4575(8) 0.1769(7)
C13A C 1.0043(13) 0.4744(9) 0.1711(7)
H9A H 0.9870 0.5220 0.1709
C14A C 0.9497(15) 0.4145(10) 0.1653(8)
H10A H 0.8956 0.4221 0.1629
C15A C 0.9822(15) 0.3429(10) 0.1636(8)
H11A H 0.9486 0.3042 0.1561
C16A C 1.0571(15) 0.3301(9) 0.1721(8)
H12A H 1.0744 0.2825 0.1728
C17A C 0.2242(7) 0.7210(6) 0.1131(6)
H13A H 0.2063 0.7030 0.0751
C18A C 0.2258(6) 0.7177(8) 0.2181(6)
C19A C 0.2066(9) 0.6844(10) 0.2758(7)
H14A H 0.1767 0.6424 0.2760
C20A C 0.2316(13) 0.7134(13) 0.3306(11)
H15A H 0.2258 0.6878 0.3677
Cu2A Cu 1.11074(10) 0.61661(9) 0.16332(9)
Cu2A_2 Cu 0.11074(10) 0.61661(9) 0.16332(9)
N1A N 0.8582(5) 0.7227(5) 0.1330(5)
N2A N 1.0123(6) 0.6691(5) 0.1407(5)
N3A N 1.1389(7) 0.5162(5) 0.1811(5)
N4A N 1.1874(10) 0.3733(9) 0.1897(8)
N5A N 0.1993(5) 0.6901(6) 0.1657(6)
N5A_2 N 1.1993(5) 0.6901(6) 0.1657(6)
O1 O 0.4724(5) 0.8925(6) 0.2752(4)
O2 O 0.2895(5) 1.1057(5) 0.3458(4)
O3 O 0.4175(6) 1.0344(6) 0.4953(5)
O4 O 0.4812(6) 1.0159(6) 0.4297(5)
O5 O 0.4399(7) 0.9441(6) 0.5222(5)
O6 O 0.4936(7) 1.0655(6) 0.5363(6)
O7 O 0.3112(7) 1.0591(5) 0.5569(4)
O8 O 0.3524(6) 1.1381(5) 0.4620(3)
O9 O 0.3172(6) 1.2081(5) 0.5736(5)
O10 O 0.4249(5) 1.1168(6) 0.6245(4)
O11 O 0.4680(5) 1.1935(5) 0.5283(4)
O12 O 0.4347(6) 0.8267(6) 0.5656(3)
O13 O 0.3852(5) 0.7391(4) 0.4692(5)
O14 O 0.4271(4) 0.8579(5) 0.3962(4)
O15 O 0.5417(6) 1.0123(5) 0.3344(6)
O16 O 0.3919(6) 0.9872(5) 0.3523(6)
O17 O 0.6576(6) 1.0652(6) 0.3989(4)
O18 O 0.4504(6) 1.1173(5) 0.3660(6)
O19 O 0.5920(6) 1.1511(5) 0.3065(4)
O20 O 0.3309(6) 0.8795(6) 0.4889(4)
O21 O 0.1995(4) 0.9488(5) 0.5380(4)
O22 O 0.2979(6) 1.0077(5) 0.4456(3)
P1 P 0.5000 1.0000 0.5000
W1 W 0.37454(2) 1.14209(2) 0.549400(18)
W2 W 0.42315(2) 0.82209(2) 0.479455(18)
W3 W 0.48072(2) 0.92721(2) 0.347621(18)
W4 W 0.56182(3) 1.10272(2) 0.36826(2)
W5 W 0.29541(2) 0.96584(2) 0.524670(19)
W6 W 0.35699(2) 1.07171(2) 0.39528(2)
O1D O 0.5276(5) 1.1075(6) 0.7248(4)
O2D O 0.7105(5) 0.8943(5) 0.6542(4)
O3D O 0.5825(6) 0.9656(6) 0.5047(5)
O4D O 0.5188(6) 0.9841(6) 0.5703(5)
O5D O 0.5601(7) 1.0559(6) 0.4778(5)
O6D O 0.5064(7) 0.9345(6) 0.4637(6)
O7D O 0.6888(7) 0.9409(5) 0.4431(4)
O8D O 0.6476(6) 0.8619(5) 0.5380(3)
O9D O 0.6828(6) 0.7919(5) 0.4264(5)
O10D O 0.5751(5) 0.8832(6) 0.3755(4)
O11D O 0.5320(5) 0.8065(5) 0.4717(4)
O12D O 0.5653(6) 1.1733(6) 0.4344(3)
O13D O 0.6148(5) 1.2609(4) 0.5308(5)
O14D O 0.5729(4) 1.1421(5) 0.6038(4)
O15D O 0.4583(6) 0.9877(5) 0.6656(6)
O16D O 0.6081(6) 1.0128(5) 0.6477(6)
O17D O 0.3424(6) 0.9348(6) 0.6011(4)
O18D O 0.5496(6) 0.8827(5) 0.6340(6)
O19D O 0.4080(6) 0.8489(5) 0.6935(4)
O20D O 0.6691(6) 1.1205(6) 0.5111(4)
O21D O 0.8005(4) 1.0512(5) 0.4620(4)
O22D O 0.7021(6) 0.9923(5) 0.5544(3)
W1D W 0.62546(2) 0.85791(2) 0.450600(18)
W2D W 0.57685(2) 1.17791(2) 0.520545(18)
W3D W 0.51928(2) 1.07279(2) 0.652379(18)
W4D W 0.43818(3) 0.89728(2) 0.63174(2)
W5D W 0.70459(2) 1.03416(2) 0.475330(19)
W6D W 0.64301(2) 0.92829(2) 0.60472(2)
loop_
_geom_bond_atom_site_label_1
_geom_bond_atom_site_label_2
_geom_bond_site_symmetry_1
_geom_bond_site_symmetry_2
O1 W3 1_555 1_555
O2 W6 1_555 1_555
Cu1 N1 1_555 1_555
C1 H1 1_555 1_555
C2 C1 1_555 1_555
H2 C2 1_555 1_555
C3 C4 1_555 1_555
C4 C5 1_555 1_555
C5 H3 1_555 1_555
C6 C5 1_555 1_555
H4 C6 1_555 1_555
C7 C6 1_555 1_555
H5 C7 1_555 1_555
C8 C3 1_555 1_555
H6 C8 1_555 1_555
C9 H7 1_555 1_555
C10 C9 1_555 1_555
H8 C10 1_555 1_555
C11 C12 1_555 1_555
C12 C13 1_555 1_555
C13 H9 1_555 1_555
C14 C13 1_555 1_555
H10 C14 1_555 1_555
C15 C14 1_555 1_555
H11 C15 1_555 1_555
C16 C11 1_555 1_555
H12 C16 1_555 1_555
C17 H13 1_555 1_555
C18 C19 1_555 1_555
C19 H14 1_555 1_555
C20 C19 1_555 1_555
H15 C20 1_555 1_555
Cu2 N2 1_555 1_555
N1 C1 1_555 1_555
N2 C2 1_555 1_555
N3 C9 1_555 1_555
N4 C10 1_555 1_555
N5 C17 1_555 1_555
O3 O4 1_555 1_555
O4 P1 1_555 1_555
O5 O3 1_555 1_555
O6 O3 1_555 1_555
O7 W1 1_555 1_555
O8 W1 1_555 1_555
O9 W1 1_555 1_555
O10 W1 1_555 1_555
O11 W1 1_555 1_555
O12 W2 1_555 1_555
O13 W2 1_555 1_555
O14 W2 1_555 1_555
O15 W3 1_555 1_555
O16 W3 1_555 1_555
O17 W4 1_555 1_555
O18 W4 1_555 1_555
O19 W4 1_555 1_555
O20 W2 1_555 1_555
O21 W5 1_555 1_555
O22 W5 1_555 1_555
O23 Cu1 1_555 1_555
P1 O3 1_555 1_555
W1 O3 1_555 1_555
W2 O5 1_555 1_555
W3 O4 1_555 1_555
W4 O4 1_555 1_555
W5 O3 1_555 1_555
W6 O3 1_555 1_555
O1D W3D 1_555 1_555
O2D W6D 1_555 1_555
C1A H1A 1_555 1_555
C2A C1A 1_555 1_555
H2A C2A 1_555 1_555
C3A C4A 1_555 1_555
C4A C5A 1_555 1_555
C5A H3A 1_555 1_555
C6A C5A 1_555 1_555
H4A C6A 1_555 1_555
C7A C6A 1_555 1_555
H5A C7A 1_555 1_555
C8A C3A 1_555 1_555
H6A C8A 1_555 1_555
C9A H7A 1_555 1_555
C10A C9A 1_555 1_555
H8A C10A 1_555 1_555
C11A C12A 1_555 1_555
C12A C13A 1_555 1_555
C13A H9A 1_555 1_555
C14A C13A 1_555 1_555
H10A C14A 1_555 1_555
C15A C14A 1_555 1_555
H11A C15A 1_555 1_555
C16A C11A 1_555 1_555
H12A C16A 1_555 1_555
C17A C17 1_555 1_555
H13A C17A 1_555 1_555
C18A C18 1_555 1_555
C19A C18A 1_555 1_555
H14A C19A 1_555 1_555
C20A C20 1_555 1_555
H15A C20A 1_555 1_555
Cu2A N2A 1_555 1_555
Cu2A_2 N5A 1_555 1_555
N1A Cu1 1_555 1_555
N2A C2A 1_555 1_555
N3A C9A 1_555 1_555
N4A C10A 1_555 1_555
N5A C17A 1_555 1_555
N5A_2 Cu2A 1_555 1_555
O3D P1 1_555 1_555
O4D O6 1_555 1_555
O5D O6 1_555 1_555
O6D O4 1_555 1_555
O7D W1D 1_555 1_555
O8D W1D 1_555 1_555
O9D W1D 1_555 1_555
O10D W3 1_555 1_555
O11D W2 1_555 1_555
O12D W4 1_555 1_555
O13D W2D 1_555 1_555
O14D W2D 1_555 1_555
O15D W3D 1_555 1_555
O16D W3D 1_555 1_555
O17D W5 1_555 1_555
O18D W4D 1_555 1_555
O19D W4D 1_555 1_555
O20D W2D 1_555 1_555
O21D W5D 1_555 1_555
O22D W5D 1_555 1_555
W1D O3D 1_555 1_555
W2D O6 1_555 1_555
W3D O6 1_555 1_555
W4D O5 1_555 1_555
W5D O17 1_555 1_555
W6D O3D 1_555 1_555
C3 N2 1_555 1_555
C4 N1 1_555 1_555
C7 C8 1_555 1_555
C11 N4 1_555 1_555
C12 N3 1_555 1_555
C15 C16 1_555 1_555
C18 N5 1_555 1_555
Cu2 N3 1_555 1_555
Cu2 N5 1_555 1_555
O4 W6 1_555 1_555
O5 P1 1_555 1_555
O5 W5 1_555 1_555
O5 O6D 1_555 1_555
O6 P1 1_555 1_555
O6 W1 1_555 1_555
O7 W5 1_555 1_555
O8 W6 1_555 1_555
O10 W3D 1_555 1_555
O11 W2D 1_555 1_555
O12 W4D 1_555 1_555
O14 W3 1_555 1_555
O15 W4 1_555 1_555
O16 W6 1_555 1_555
O18 W6 1_555 1_555
O20 W5 1_555 1_555
O22 W6 1_555 1_555
P1 O4D 1_555 1_555
P1 O5D 1_555 1_555
P1 O6D 1_555 1_555
W2 O6D 1_555 1_555
W3 O6D 1_555 1_555
W4 O5D 1_555 1_555
C1A N1A 1_555 1_555
C3A N2A 1_555 1_555
C4A N1A 1_555 1_555
C7A C8A 1_555 1_555
C11A N4A 1_555 1_555
C12A N3A 1_555 1_555
C15A C16A 1_555 1_555
C18A N5A 1_555 1_555
C19A C20A 1_555 1_555
Cu2A N3A 1_555 1_555
O3D O4D 1_555 1_555
O3D O5D 1_555 1_555
O3D O6D 1_555 1_555
O3D W5D 1_555 1_555
O4D W3D 1_555 1_555
O4D W4D 1_555 1_555
O4D W6D 1_555 1_555
O5D W2D 1_555 1_555
O5D W5D 1_555 1_555
O6D W1D 1_555 1_555
O7D W5D 1_555 1_555
O8D W6D 1_555 1_555
O10D W1D 1_555 1_555
O11D W1D 1_555 1_555
O12D W2D 1_555 1_555
O14D W3D 1_555 1_555
O15D W4D 1_555 1_555
O16D W6D 1_555 1_555
O17D W4D 1_555 1_555
O18D W6D 1_555 1_555
O20D W5D 1_555 1_555
O22D W6D 1_555 1_555

#END
