
#######################################################################
#
#                 Cambridge Crystallographic Data Centre
#                                CCDC 
#
#######################################################################
#
# If this CIF has been generated from an entry in the Cambridge 
# Structural Database, then it will include bibliographic, chemical, 
# crystal, experimental, refinement or atomic coordinate data resulting 
# from the CCDC's data processing and validation procedures.
#
#######################################################################

data_MATDIW
_symmetry_cell_setting           triclinic
_symmetry_space_group_name_H-M   'P -1'
_symmetry_Int_Tables_number      2
_space_group_name_Hall           '-P 1'
loop_
_symmetry_equiv_pos_site_id
_symmetry_equiv_pos_as_xyz
1 x,y,z
2 -x,-y,-z
_cell_length_a                   8.119(3)
_cell_length_b                   15.259(5)
_cell_length_c                   15.648(5)
_cell_angle_alpha                64.632(7)
_cell_angle_beta                 84.144(12)
_cell_angle_gamma                80.083(11)
_cell_volume                     1724.63
loop_
_atom_site_label
_atom_site_type_symbol
_atom_site_fract_x
_atom_site_fract_y
_atom_site_fract_z
Co1 Co 0.06921(7) 0.36537(4) -0.60360(4)
C1 C 0.1599(7) -0.0240(4) -0.1669(3)
C2 C 0.0298(7) -0.0704(4) -0.2552(4)
C3 C 0.2538(8) -0.1664(4) -0.1754(4)
C4 C 0.0275(7) 0.1552(4) -0.1716(3)
C5 C 0.0353(7) 0.2173(3) -0.2669(3)
H1 H 0.1291 0.2088 -0.3035
C6 C -0.0939(6) 0.2915(3) -0.3085(3)
C7 C -0.2316(8) 0.3045(4) -0.2520(4)
H2 H -0.3197 0.3543 -0.2787
C8 C -0.2379(9) 0.2438(5) -0.1565(4)
H3 H -0.3297 0.2536 -0.1192
C9 C -0.1094(8) 0.1688(4) -0.1160(4)
H4 H -0.1147 0.1277 -0.0518
C10 C -0.0861(6) 0.3528(3) -0.4133(3)
C11 C -0.2429(7) 0.0589(4) -0.3573(4)
C12 C -0.2194(7) 0.1323(4) -0.4463(4)
H5 H -0.1372 0.1205 -0.4875
C13 C -0.3181(6) 0.2240(4) -0.4747(4)
C14 C -0.4402(7) 0.2396(5) -0.4126(4)
H6 H -0.5089 0.2997 -0.4312
C15 C -0.4613(8) 0.1672(6) -0.3236(5)
H7 H -0.5428 0.1793 -0.2822
C16 C -0.3637(8) 0.0770(5) -0.2948(5)
H8 H -0.3784 0.0286 -0.2343
C17 C -0.2815(6) 0.3033(4) -0.5700(4)
C18 C 0.5287(6) -0.2815(3) -0.0687(3)
C19 C 0.5313(6) -0.3574(3) 0.0190(3)
H9 H 0.4636 -0.4055 0.0332
C20 C 0.6325(7) -0.3631(5) 0.0860(3)
C21 C 0.7312(7) -0.2927(6) 0.0651(5)
H10 H 0.8005 -0.2963 0.1106
C22 C 0.7286(7) -0.2169(5) -0.0226(7)
H11 H 0.7963 -0.1687 -0.0368
C23 C 0.6274(7) -0.2112(3) -0.0896(5)
H12 H 0.6259 -0.1594 -0.1493
C24 C 0.6325(12) -0.4455(9) 0.1827(5)
C25 C 0.4445(5) 0.0475(3) -0.5143(3)
C26 C 0.3087(6) 0.0628(3) -0.4587(3)
H13 H 0.2851 0.0121 -0.4012
C27 C 0.2088(6) 0.1518(3) -0.4875(3)
H14 H 0.1194 0.1592 -0.4477
C28 C 0.3647(6) 0.2156(3) -0.6224(3)
H15 H 0.3871 0.2681 -0.6788
C29 C 0.4706(6) 0.1276(4) -0.5977(4)
H16 H 0.5607 0.1224 -0.6378
C30 C 0.0215(6) 0.4798(3) -0.9490(3)
C31 C -0.0033(10) 0.3873(4) -0.8857(4)
H17 H -0.0430 0.3464 -0.9065
C32 C 0.0301(9) 0.3542(4) -0.7909(4)
H18 H 0.0121 0.2908 -0.7502
C33 C 0.1167(8) 0.4944(4) -0.8162(3)
H19 H 0.1616 0.5323 -0.7936
C34 C 0.0866(8) 0.5334(4) -0.9114(4)
H20 H 0.1101 0.5961 -0.9507
N1 N 0.0343(6) -0.0025(3) -0.2242(3)
N2 N 0.1361(7) -0.1530(3) -0.2352(3)
N3 N 0.2743(6) -0.1050(3) -0.1381(3)
N4 N 0.2318(5) 0.2288(2) -0.5691(2)
N5 N 0.0855(5) 0.4066(3) -0.7551(3)
O1 O -0.1990(4) 0.4236(2) -0.4487(2)
O2 O -0.0809(4) 0.5013(2) -0.6250(2)
O3 O 0.0322(4) 0.3260(2) -0.4589(2)
O4 O 0.2697(5) 0.4366(3) -0.6146(3)
O5 O -0.1356(4) 0.2990(3) -0.6023(3)
O6 O -0.4009(5) 0.3683(3) -0.6120(3)
O7 O 0.5780(14) -0.5143(6) 0.1987(6)
O8 O 0.6885(12) -0.4183(10) 0.2441(6)
H21 H 0.7579 -0.4624 0.2777
S1 S 0.1916(2) 0.05734(10) -0.11993(9)
S2 S -0.1259(2) -0.05908(11) -0.33039(13)
S3 S 0.3899(3) -0.27683(12) -0.15172(11)
H22 H 0.245(8) 0.478(5) -0.593(5)
H23 H 0.358(9) 0.411(5) -0.603(5)
Co1A Co 0.93079(7) -0.36537(4) -0.39640(4)
Co1A_2 Co -0.06921(7) 0.63463(4) -1.39640(4)
C1A C 0.8401(7) 0.0240(4) -0.8331(3)
C2A C 0.9702(7) 0.0704(4) -0.7448(4)
C3A C 0.7462(8) 0.1664(4) -0.8246(4)
C4A C 0.9725(7) -0.1552(4) -0.8284(3)
C5A C 0.9647(7) -0.2173(3) -0.7331(3)
H1A H 0.8709 -0.2088 -0.6965
C6A C 1.0939(6) -0.2915(3) -0.6915(3)
C7A C 1.2316(8) -0.3045(4) -0.7480(4)
H2A H 1.3197 -0.3543 -0.7213
C8A C 1.2379(9) -0.2438(5) -0.8435(4)
H3A H 1.3297 -0.2536 -0.8808
C9A C 1.1094(8) -0.1688(4) -0.8840(4)
H4A H 1.1147 -0.1277 -0.9482
C10A C 1.0861(6) -0.3528(3) -0.5867(3)
C11A C 1.2429(7) -0.0589(4) -0.6427(4)
C12A C 1.2194(7) -0.1323(4) -0.5537(4)
H5A H 1.1372 -0.1205 -0.5125
C13A C 1.3181(6) -0.2240(4) -0.5253(4)
C14A C 1.4402(7) -0.2396(5) -0.5874(4)
H6A H 1.5089 -0.2997 -0.5688
C15A C 1.4613(8) -0.1672(6) -0.6764(5)
H7A H 1.5428 -0.1793 -0.7178
C16A C 1.3637(8) -0.0770(5) -0.7052(5)
H8A H 1.3784 -0.0286 -0.7657
C17A C 1.2815(6) -0.3033(4) -0.4300(4)
C18A C 0.4713(6) 0.2815(3) -0.9313(3)
C19A C 0.4687(6) 0.3574(3) -1.0190(3)
H9A H 0.5364 0.4055 -1.0332
C20A C 0.3675(7) 0.3631(5) -1.0860(3)
C21A C 0.2688(7) 0.2927(6) -1.0651(5)
H10A H 0.1995 0.2963 -1.1106
C22A C 0.2714(7) 0.2169(5) -0.9774(7)
H11A H 0.2037 0.1687 -0.9632
C23A C 0.3726(7) 0.2112(3) -0.9104(5)
H12A H 0.3741 0.1594 -0.8507
C24A C 0.3675(12) 0.4455(9) -1.1827(5)
C25A C 0.5555(5) -0.0475(3) -0.4857(3)
C26A C 0.6913(6) -0.0628(3) -0.5413(3)
H13A H 0.7149 -0.0121 -0.5988
C27A C 0.7912(6) -0.1518(3) -0.5125(3)
H14A H 0.8806 -0.1592 -0.5523
C28A C 0.6353(6) -0.2156(3) -0.3776(3)
H15A H 0.6129 -0.2681 -0.3212
C29A C 0.5294(6) -0.1276(4) -0.4023(4)
H16A H 0.4393 -0.1224 -0.3622
C30A C -0.0215(6) 0.5202(3) -1.0510(3)
C31A C 0.0033(10) 0.6127(4) -1.1143(4)
H17A H 0.0430 0.6536 -1.0935
C32A C -0.0301(9) 0.6458(4) -1.2091(4)
H18A H -0.0121 0.7092 -1.2498
C33A C -0.1167(8) 0.5056(4) -1.1838(3)
H19A H -0.1616 0.4677 -1.2064
C34A C -0.0866(8) 0.4666(4) -1.0886(4)
H20A H -0.1101 0.4039 -1.0493
N1A N 0.9657(6) 0.0025(3) -0.7758(3)
N2A N 0.8639(7) 0.1530(3) -0.7648(3)
N3A N 0.7257(6) 0.1050(3) -0.8619(3)
N4A N 0.7682(5) -0.2288(2) -0.4309(2)
N5A N -0.0855(5) 0.5934(3) -1.2449(3)
N5A_2 N 0.9145(5) -0.4066(3) -0.2449(3)
O1A O 1.1990(4) -0.4236(2) -0.5513(2)
O2A O 1.0809(4) -0.5013(2) -0.3750(2)
O3A O 0.9678(4) -0.3260(2) -0.5411(2)
O4A O 0.7303(5) -0.4366(3) -0.3854(3)
O5A O 1.1356(4) -0.2990(3) -0.3977(3)
O6A O 1.4009(5) -0.3683(3) -0.3880(3)
O7A O 0.4220(14) 0.5143(6) -1.1987(6)
O8A O 0.3115(12) 0.4183(10) -1.2441(6)
H21A H 0.2421 0.4624 -1.2777
S1A S 0.8084(2) -0.05734(10) -0.88007(9)
S2A S 1.1259(2) 0.05908(11) -0.66961(13)
S3A S 0.6101(3) 0.27683(12) -0.84828(11)
H22A H 0.755(8) -0.478(5) -0.407(5)
H23A H 0.642(9) -0.411(5) -0.397(5)
loop_
_geom_bond_atom_site_label_1
_geom_bond_atom_site_label_2
_geom_bond_site_symmetry_1
_geom_bond_site_symmetry_2
Co1 N4 1_555 1_555
C1 N1 1_555 1_555
C2 N1 1_555 1_555
C3 N2 1_555 1_555
C4 C5 1_555 1_555
C5 H1 1_555 1_555
C6 C5 1_555 1_555
C7 C6 1_555 1_555
H2 C7 1_555 1_555
C8 C7 1_555 1_555
H3 C8 1_555 1_555
C9 C4 1_555 1_555
H4 C9 1_555 1_555
C10 C6 1_555 1_555
C11 C12 1_555 1_555
C12 H5 1_555 1_555
C13 C12 1_555 1_555
C14 C13 1_555 1_555
H6 C14 1_555 1_555
C15 C14 1_555 1_555
H7 C15 1_555 1_555
C16 C11 1_555 1_555
H8 C16 1_555 1_555
C17 C13 1_555 1_555
C18 C19 1_555 1_555
C19 H9 1_555 1_555
C20 C19 1_555 1_555
C21 C20 1_555 1_555
H10 C21 1_555 1_555
C22 C21 1_555 1_555
H11 C22 1_555 1_555
C23 C18 1_555 1_555
H12 C23 1_555 1_555
C24 C20 1_555 1_555
C25 C26 1_555 1_555
C26 H13 1_555 1_555
C27 C26 1_555 1_555
H14 C27 1_555 1_555
C28 H15 1_555 1_555
C29 C25 1_555 1_555
H16 C29 1_555 1_555
C30 C31 1_555 1_555
C31 H17 1_555 1_555
C32 C31 1_555 1_555
H18 C32 1_555 1_555
C33 H19 1_555 1_555
C34 C30 1_555 1_555
H20 C34 1_555 1_555
N2 C2 1_555 1_555
N3 C1 1_555 1_555
N4 C27 1_555 1_555
N5 Co1 1_555 1_555
O1 C10 1_555 1_555
O2 Co1 1_555 1_555
O3 Co1 1_555 1_555
O4 Co1 1_555 1_555
O5 Co1 1_555 1_555
O6 C17 1_555 1_555
O7 C24 1_555 1_555
O8 C24 1_555 1_555
H21 O8 1_555 1_555
S1 C1 1_555 1_555
S2 C2 1_555 1_555
S3 C3 1_555 1_555
H22 O4 1_555 1_555
H23 O4 1_555 1_555
Co1A N4A 1_555 1_555
Co1A_2 N5A 1_555 1_555
C1A N1A 1_555 1_555
C2A N1A 1_555 1_555
C3A N2A 1_555 1_555
C4A C5A 1_555 1_555
C5A H1A 1_555 1_555
C6A C5A 1_555 1_555
C7A C6A 1_555 1_555
H2A C7A 1_555 1_555
C8A C7A 1_555 1_555
H3A C8A 1_555 1_555
C9A C4A 1_555 1_555
H4A C9A 1_555 1_555
C10A C6A 1_555 1_555
C11A C12A 1_555 1_555
C12A H5A 1_555 1_555
C13A C12A 1_555 1_555
C14A C13A 1_555 1_555
H6A C14A 1_555 1_555
C15A C14A 1_555 1_555
H7A C15A 1_555 1_555
C16A C11A 1_555 1_555
H8A C16A 1_555 1_555
C17A C13A 1_555 1_555
C18A C19A 1_555 1_555
C19A H9A 1_555 1_555
C20A C19A 1_555 1_555
C21A C20A 1_555 1_555
H10A C21A 1_555 1_555
C22A C21A 1_555 1_555
H11A C22A 1_555 1_555
C23A C18A 1_555 1_555
H12A C23A 1_555 1_555
C24A C20A 1_555 1_555
C25A C25 1_555 1_555
C26A C25A 1_555 1_555
H13A C26A 1_555 1_555
C27A C26A 1_555 1_555
H14A C27A 1_555 1_555
C28A H15A 1_555 1_555
C29A C25A 1_555 1_555
H16A C29A 1_555 1_555
C30A C30 1_555 1_555
C31A C30A 1_555 1_555
H17A C31A 1_555 1_555
C32A C31A 1_555 1_555
H18A C32A 1_555 1_555
C33A H19A 1_555 1_555
C34A C30A 1_555 1_555
H20A C34A 1_555 1_555
N2A C2A 1_555 1_555
N3A C1A 1_555 1_555
N4A C27A 1_555 1_555
N5A C32A 1_555 1_555
N5A_2 Co1A 1_555 1_555
O1A C10A 1_555 1_555
O2A Co1A 1_555 1_555
O3A Co1A 1_555 1_555
O4A Co1A 1_555 1_555
O5A Co1A 1_555 1_555
O6A C17A 1_555 1_555
O7A C24A 1_555 1_555
O8A C24A 1_555 1_555
H21A O8A 1_555 1_555
S1A C1A 1_555 1_555
S2A C2A 1_555 1_555
S3A C3A 1_555 1_555
H22A O4A 1_555 1_555
H23A O4A 1_555 1_555
C3 N3 1_555 1_555
C4 S1 1_555 1_555
C8 C9 1_555 1_555
C10 O3 1_555 1_555
C11 S2 1_555 1_555
C15 C16 1_555 1_555
C17 O5 1_555 1_555
C18 S3 1_555 1_555
C22 C23 1_555 1_555
C28 C29 1_555 1_555
C28 N4 1_555 1_555
C32 N5 1_555 1_555
C33 C34 1_555 1_555
C33 N5 1_555 1_555
C3A N3A 1_555 1_555
C4A S1A 1_555 1_555
C8A C9A 1_555 1_555
C10A O3A 1_555 1_555
C11A S2A 1_555 1_555
C15A C16A 1_555 1_555
C17A O5A 1_555 1_555
C18A S3A 1_555 1_555
C22A C23A 1_555 1_555
C28A C29A 1_555 1_555
C28A N4A 1_555 1_555
C33A C34A 1_555 1_555
C33A N5A 1_555 1_555

#END
