
#######################################################################
#
#                 Cambridge Crystallographic Data Centre
#                                CCDC 
#
#######################################################################
#
# If this CIF has been generated from an entry in the Cambridge 
# Structural Database, then it will include bibliographic, chemical, 
# crystal, experimental, refinement or atomic coordinate data resulting 
# from the CCDC's data processing and validation procedures.
#
#######################################################################

data_MATDES
_symmetry_cell_setting           monoclinic
_symmetry_space_group_name_H-M   'P 21/c'
_symmetry_Int_Tables_number      14
_space_group_name_Hall           '-P 2ybc'
loop_
_symmetry_equiv_pos_site_id
_symmetry_equiv_pos_as_xyz
1 x,y,z
2 -x,1/2+y,1/2-z
3 -x,-y,-z
4 x,1/2-y,1/2+z
_cell_length_a                   15.839(7)
_cell_length_b                   7.526(3)
_cell_length_c                   23.941(10)
_cell_angle_alpha                90
_cell_angle_beta                 104.584(7)
_cell_angle_gamma                90
_cell_volume                     2761.92
loop_
_atom_site_label
_atom_site_type_symbol
_atom_site_fract_x
_atom_site_fract_y
_atom_site_fract_z
Co1 Co 0.42474(3) -0.53287(7) 0.69891(2)
C1 C -0.1117(2) -0.0710(5) 0.55719(17)
C2 C -0.1331(2) 0.0285(6) 0.64008(16)
C3 C -0.1913(2) 0.1748(5) 0.55841(16)
C4 C 0.0028(3) -0.3544(6) 0.56665(17)
C5 C 0.0921(2) -0.3303(5) 0.57572(15)
H1 H 0.1138 -0.2398 0.5568
C6 C 0.1490(2) -0.4438(5) 0.61359(15)
C7 C 0.1163(3) -0.5794(6) 0.64137(18)
H2 H 0.1542 -0.6564 0.6660
C8 C 0.0270(3) -0.5996(6) 0.6323(2)
H3 H 0.0050 -0.6893 0.6514
C9 C -0.0297(3) -0.4878(6) 0.5952(2)
H4 H -0.0896 -0.5019 0.5894
C10 C 0.2462(2) -0.4193(5) 0.62512(15)
C11 C -0.1675(2) 0.1822(5) 0.73610(16)
C12 C -0.2559(2) 0.1800(5) 0.73178(15)
H5 H -0.2882 0.0784 0.7184
C13 C -0.2972(2) 0.3278(5) 0.74716(15)
C14 C -0.2487(3) 0.4764(6) 0.7683(2)
H6 H -0.2757 0.5769 0.7783
C15 C -0.1183(3) 0.3282(7) 0.7586(2)
H7 H -0.0583 0.3279 0.7630
C16 C -0.1586(3) 0.4748(7) 0.7747(3)
H8 H -0.1255 0.5737 0.7899
C17 C -0.3946(2) 0.3212(5) 0.73960(15)
C18 C -0.2696(2) 0.4698(5) 0.54703(17)
C19 C -0.2978(3) 0.6007(6) 0.50540(18)
H9 H -0.2913 0.5835 0.4682
C20 C -0.3351(3) 0.7551(6) 0.51850(18)
H10 H -0.3524 0.8420 0.4903
C21 C -0.3473(3) 0.7827(5) 0.57287(18)
C22 C -0.3168(3) 0.6543(7) 0.61476(19)
H11 H -0.3232 0.6727 0.6519
C23 C -0.2769(3) 0.4995(6) 0.60293(18)
H12 H -0.2554 0.4170 0.6319
C24 C -0.3945(3) 0.9403(6) 0.58555(18)
N1 N -0.0950(2) -0.0943(5) 0.61437(13)
N2 N -0.1803(2) 0.1666(4) 0.61559(13)
N3 N -0.1605(2) 0.0563(5) 0.52649(14)
N4 N -0.2344(2) 0.3152(4) 0.52816(14)
H13 H -0.2413 0.3086 0.4914
O1 O 0.29329(17) -0.5217(4) 0.66061(12)
O2 O 0.44392(19) -0.3635(4) 0.63066(13)
H14 H 0.3932 -0.3201 0.6179
H15 H 0.4729 -0.2675 0.6331
O3 O 0.27511(18) -0.3009(4) 0.59717(12)
O4 O 0.39855(18) -0.6879(4) 0.76357(12)
H16 H 0.4124 -0.7972 0.7672
H17 H 0.4067 -0.6421 0.7970
O5 O -0.42970(17) 0.1741(3) 0.74243(13)
O6 O 0.42647(19) -0.7580(4) 0.64569(13)
H18 H 0.4564 -0.8460 0.6620
H19 H 0.3809 -0.8168 0.6298
O7 O -0.43781(16) 0.4631(3) 0.72718(12)
O10 O -0.4284(3) 0.9514(5) 0.62624(14)
O11 O -0.3999(2) 1.0681(4) 0.54761(15)
H24 H -0.4264 1.1525 0.5567
S1 S -0.06772(7) -0.21727(16) 0.51480(4)
S2 S -0.11531(7) -0.00641(15) 0.71480(4)
Co1A Co -0.42474(3) -0.03287(7) 0.80109(2)
Co1_2 Co -0.57526(3) 0.46713(7) 0.69891(2)
O5A O 0.42970(17) -0.3259(3) 0.75757(13)
O7_2 O 0.56219(16) -0.5369(3) 0.72718(12)
O8 O 0.5205(3) -0.6310(6) 0.5573(2)
H20 H 0.5518 -0.5683 0.5842
H21 H 0.4721 -0.6552 0.5648
O9 O 0.2734(2) 0.0728(5) 0.59861(15)
H22 H 0.2794 -0.0386 0.6040
H23 H 0.2326 0.0912 0.5685
loop_
_geom_bond_atom_site_label_1
_geom_bond_atom_site_label_2
_geom_bond_site_symmetry_1
_geom_bond_site_symmetry_2
Co1 O1 1_555 1_555
C1 N1 1_555 1_555
C2 N1 1_555 1_555
C3 N2 1_555 1_555
C4 C5 1_555 1_555
C5 H1 1_555 1_555
C6 C5 1_555 1_555
C7 C6 1_555 1_555
H2 C7 1_555 1_555
C8 C7 1_555 1_555
H3 C8 1_555 1_555
C9 C4 1_555 1_555
H4 C9 1_555 1_555
C10 C6 1_555 1_555
C11 C12 1_555 1_555
C12 H5 1_555 1_555
C13 C12 1_555 1_555
C14 C13 1_555 1_555
H6 C14 1_555 1_555
C15 C11 1_555 1_555
H7 C15 1_555 1_555
C16 C14 1_555 1_555
H8 C16 1_555 1_555
C17 C13 1_555 1_555
C18 C19 1_555 1_555
C19 H9 1_555 1_555
C20 C19 1_555 1_555
H10 C20 1_555 1_555
C21 C20 1_555 1_555
C22 C21 1_555 1_555
H11 C22 1_555 1_555
C23 C18 1_555 1_555
H12 C23 1_555 1_555
C24 C21 1_555 1_555
N2 C2 1_555 1_555
N3 C1 1_555 1_555
N4 C3 1_555 1_555
H13 N4 1_555 1_555
O1 C10 1_555 1_555
O2 Co1 1_555 1_555
H14 O2 1_555 1_555
H15 O2 1_555 1_555
O3 C10 1_555 1_555
O4 Co1 1_555 1_555
H16 O4 1_555 1_555
H17 O4 1_555 1_555
O5 C17 1_555 1_555
O6 Co1 1_555 1_555
H18 O6 1_555 1_555
H19 O6 1_555 1_555
O7 C17 1_555 1_555
O8 H20 1_555 1_555
H21 O8 1_555 1_555
O9 H22 1_555 1_555
H23 O9 1_555 1_555
O10 C24 1_555 1_555
O11 C24 1_555 1_555
H24 O11 1_555 1_555
S1 C1 1_555 1_555
S2 C2 1_555 1_555
Co1A O5 1_555 1_555
Co1_2 O7 1_555 1_555
O5A Co1 1_555 1_555
O7_2 Co1 1_555 1_555
C3 N3 1_555 1_555
C4 S1 1_555 1_555
C8 C9 1_555 1_555
C11 S2 1_555 1_555
C15 C16 1_555 1_555
C18 N4 1_555 1_555
C22 C23 1_555 1_555

#END
