
#######################################################################
#
#                 Cambridge Crystallographic Data Centre
#                                CCDC 
#
#######################################################################
#
# If this CIF has been generated from an entry in the Cambridge 
# Structural Database, then it will include bibliographic, chemical, 
# crystal, experimental, refinement or atomic coordinate data resulting 
# from the CCDC's data processing and validation procedures.
#
#######################################################################

data_MATGAQ
_symmetry_cell_setting           triclinic
_symmetry_space_group_name_H-M   'P -1'
_symmetry_Int_Tables_number      2
_space_group_name_Hall           '-P 1'
loop_
_symmetry_equiv_pos_site_id
_symmetry_equiv_pos_as_xyz
1 x,y,z
2 -x,-y,-z
_cell_length_a                   8.1500(16)
_cell_length_b                   8.5100(17)
_cell_length_c                   9.0500(18)
_cell_angle_alpha                72.77(3)
_cell_angle_beta                 65.50(3)
_cell_angle_gamma                77.22(3)
_cell_volume                     542.024
loop_
_atom_site_label
_atom_site_type_symbol
_atom_site_fract_x
_atom_site_fract_y
_atom_site_fract_z
Mn1 Mn 0.5000 0.5000 0.5000
N1 N 0.6889(4) 0.5181(4) 0.6180(4)
O1 O 0.1007(4) 0.2020(4) 0.8986(4)
O2 O 0.3262(4) 0.3560(4) 0.7409(4)
N2 N 0.6773(4) 0.2752(4) 0.4152(4)
C1 C 0.5305(5) 0.1639(5) 0.9328(5)
H1 H 0.5513 0.2744 0.8884
N3 N 0.8827(5) 0.4296(5) 0.7445(5)
H2 H 0.9694 0.3696 0.7729
C2 C 0.2620(5) 0.2316(5) 0.8506(5)
N4 N 0.8766(5) 0.1297(5) 0.2398(5)
H3 H 0.9582 0.1068 0.1490
C3 C 0.8248(5) 0.4085(5) 0.6363(5)
H4 H 0.8751 0.3246 0.5786
C4 C 0.3843(5) 0.1117(4) 0.9295(4)
C5 C 0.3525(5) -0.0536(5) 0.9986(5)
H5 H 0.2530 -0.0900 0.9988
C6 C 0.7802(7) 0.5636(7) 0.8028(7)
H6 H 0.7901 0.6090 0.8800
C7 C 0.7996(5) 0.2799(6) 0.2653(6)
H7 H 0.8301 0.3775 0.1848
C8 C 0.6603(6) 0.6173(6) 0.7251(7)
H8 H 0.5718 0.7075 0.7414
C9 C 0.6792(7) 0.1111(6) 0.4917(6)
H9 H 0.6072 0.0677 0.6017
C10 C 0.8009(7) 0.0206(6) 0.3847(7)
H10 H 0.8274 -0.0940 0.4064
Mn1_2 Mn 0.5000 -0.5000 1.5000
N1A N 0.3111(4) 0.4819(4) 0.3820(4)
O1A O 0.8993(4) -0.2020(4) 1.1014(4)
O2A O 0.6738(4) -0.3560(4) 1.2591(4)
O2A_2 O 0.6738(4) 0.6440(4) 0.2591(4)
N2A N 0.3227(4) 0.7248(4) 0.5848(4)
C1A C 0.4695(5) -0.1639(5) 1.0672(5)
H1A H 0.4487 -0.2744 1.1116
N3A N 0.1173(5) 0.5704(5) 0.2555(5)
H2A H 0.0306 0.6304 0.2271
C2A C 0.7380(5) -0.2316(5) 1.1494(5)
N4A N 0.1234(5) 0.8703(5) 0.7602(5)
H3A H 0.0418 0.8932 0.8510
C3A C 0.1752(5) 0.5915(5) 0.3637(5)
H4A H 0.1249 0.6754 0.4214
C4A C 0.6157(5) -0.1117(4) 1.0705(4)
C5A C 0.6475(5) 0.0536(5) 1.0014(5)
H5A H 0.7470 0.0900 1.0012
C6A C 0.2198(7) 0.4364(7) 0.1972(7)
H6A H 0.2099 0.3910 0.1200
C7A C 0.2004(5) 0.7201(6) 0.7347(6)
H7A H 0.1699 0.6225 0.8152
C8A C 0.3397(6) 0.3827(6) 0.2749(7)
H8A H 0.4282 0.2925 0.2586
C9A C 0.3208(7) 0.8889(6) 0.5083(6)
H9A H 0.3928 0.9323 0.3983
C10A C 0.1991(7) 0.9794(6) 0.6153(7)
H10A H 0.1726 1.0940 0.5936
loop_
_geom_bond_atom_site_label_1
_geom_bond_atom_site_label_2
_geom_bond_site_symmetry_1
_geom_bond_site_symmetry_2
Mn1 N1 1_555 1_555
N1 C3 1_555 1_555
O1 C2 1_555 1_555
O2 Mn1 1_555 1_555
N2 Mn1 1_555 1_555
C1 H1 1_555 1_555
N3 H2 1_555 1_555
C2 O2 1_555 1_555
N4 H3 1_555 1_555
C3 N3 1_555 1_555
H4 C3 1_555 1_555
C4 C1 1_555 1_555
C5 C4 1_555 1_555
H5 C5 1_555 1_555
C6 N3 1_555 1_555
H6 C6 1_555 1_555
C7 N2 1_555 1_555
H7 C7 1_555 1_555
C8 N1 1_555 1_555
H8 C8 1_555 1_555
C9 N2 1_555 1_555
H9 C9 1_555 1_555
C10 N4 1_555 1_555
H10 C10 1_555 1_555
Mn1_2 O2A 1_555 1_555
N1A Mn1 1_555 1_555
O1A C2A 1_555 1_555
O2A C2A 1_555 1_555
O2A_2 Mn1 1_555 1_555
N2A Mn1 1_555 1_555
C1A C5 1_555 1_555
H1A C1A 1_555 1_555
N3A H2A 1_555 1_555
C2A C4A 1_555 1_555
N4A H3A 1_555 1_555
C3A N1A 1_555 1_555
H4A C3A 1_555 1_555
C4A C1A 1_555 1_555
C5A C1 1_555 1_555
H5A C5A 1_555 1_555
C6A N3A 1_555 1_555
H6A C6A 1_555 1_555
C7A N2A 1_555 1_555
H7A C7A 1_555 1_555
C8A N1A 1_555 1_555
H8A C8A 1_555 1_555
C9A N2A 1_555 1_555
H9A C9A 1_555 1_555
C10A N4A 1_555 1_555
H10A C10A 1_555 1_555
C2 C4 1_555 1_555
N4 C7 1_555 1_555
C6 C8 1_555 1_555
C9 C10 1_555 1_555
N3A C3A 1_555 1_555
N4A C7A 1_555 1_555
C4A C5A 1_555 1_555
C6A C8A 1_555 1_555
C9A C10A 1_555 1_555

#END
