
#######################################################################
#
#                 Cambridge Crystallographic Data Centre
#                                CCDC 
#
#######################################################################
#
# If this CIF has been generated from an entry in the Cambridge 
# Structural Database, then it will include bibliographic, chemical, 
# crystal, experimental, refinement or atomic coordinate data resulting 
# from the CCDC's data processing and validation procedures.
#
#######################################################################

data_MATJIC
_symmetry_cell_setting           tetragonal
_symmetry_space_group_name_H-M   'I 41/a'
_symmetry_Int_Tables_number      88
_space_group_name_Hall           '-I 4ad'
loop_
_symmetry_equiv_pos_site_id
_symmetry_equiv_pos_as_xyz
1 x,y,z
2 1/2-x,-y,1/2+z
3 3/4-y,1/4+x,1/4+z
4 3/4+y,3/4-x,3/4+z
5 1/2+x,1/2+y,1/2+z
6 -x,1/2-y,z
7 1/4-y,3/4+x,3/4+z
8 1/4+y,1/4-x,1/4+z
9 -x,-y,-z
10 1/2+x,y,1/2-z
11 1/4+y,3/4-x,3/4-z
12 1/4-y,1/4+x,1/4-z
13 1/2-x,1/2-y,1/2-z
14 x,1/2+y,-z
15 3/4+y,1/4-x,1/4-z
16 3/4-y,3/4+x,3/4-z
_cell_length_a                   27.3120(5)
_cell_length_b                   27.3120(5)
_cell_length_c                   34.5543(15)
_cell_angle_alpha                90
_cell_angle_beta                 90
_cell_angle_gamma                90
_cell_volume                     25775.6
loop_
_atom_site_label
_atom_site_type_symbol
_atom_site_fract_x
_atom_site_fract_y
_atom_site_fract_z
Ni1 Ni 0.0000 0.7500 0.09568(2)
Ni2 Ni 0.775865(17) 0.298543(16) 0.093527(14)
Ni3 Ni 0.384327(17) 0.548555(16) 0.096428(14)
O1 O 0.01931(9) 0.82103(8) 0.08331(7)
O2 O 0.79112(9) 0.36759(8) 0.07481(7)
O3 O 0.72898(9) 0.32916(8) 0.04826(7)
O4 O 0.40264(9) 0.62000(8) 0.08264(7)
O5 O 0.34307(9) 0.58363(9) 0.05120(7)
O6 O -0.04254(9) 0.78763(9) 0.05241(7)
N1 N 0.72706(11) 0.32645(10) 0.13353(9)
C1 C 0.36996(14) 0.62072(13) 0.05647(11)
N2 N 0.33109(13) 0.56691(11) 0.13523(9)
N3 N 0.83295(11) 0.29017(11) 0.13112(9)
N4 N 0.43911(12) 0.53423(11) 0.13502(9)
N5 N 0.05317(12) 0.73328(11) 0.13615(9)
C2 C 0.36327(14) 0.66451(13) 0.03195(11)
C3 C 0.00246(14) 0.95477(13) 0.01920(11)
C4 C 0.35192(14) 0.75759(13) -0.01494(12)
H1 H 0.3299 0.7328 -0.0211
C5 C 0.73832(14) 0.55050(13) -0.03808(11)
H2 H 0.7185 0.5551 -0.0597
C6 C 0.75517(13) 0.36726(13) 0.05134(10)
C7 C 0.00608(16) 0.90819(14) 0.03973(11)
C8 C -0.02249(15) 0.86956(14) 0.03585(11)
C9 C 0.76631(14) 0.49898(13) 0.01373(11)
C10 C 0.38512(14) 0.75082(13) 0.01525(11)
C11 C 0.73682(13) 0.50646(13) -0.01842(11)
H3 H 0.7159 0.4817 -0.0268
C12 C 0.74528(14) 0.41100(13) 0.02769(11)
C13 C 0.38769(16) 0.70545(14) 0.03778(12)
C14 C 0.76791(14) 0.45252(13) 0.03518(11)
C15 C 0.79886(16) 0.58056(14) 0.00602(12)
H4 H 0.8200 0.6051 0.0143
C16 C -0.01530(14) 0.82432(13) 0.05789(11)
C17 C 0.51973(15) 0.50265(14) 0.17814(12)
C18 C 0.41650(17) 0.78869(15) 0.02404(13)
H5 H 0.4384 0.7849 0.0444
C19 C 0.48433(16) 0.54901(14) 0.12703(12)
H6 H 0.4888 0.5703 0.1063
C20 C 0.83748(16) 0.25122(15) 0.15375(12)
H7 H 0.8125 0.2280 0.1533
C21 C 0.43377(15) 0.50403(15) 0.16475(12)
H8 H 0.4024 0.4933 0.1710
C22 C 0.03982(15) 0.98862(14) 0.02233(12)
H9 H 0.0669 0.9813 0.0376
C23 C 0.09809(16) 0.75260(14) 0.13257(12)
H10 H 0.1045 0.7731 0.1117
C24 C 0.76922(14) 0.58823(13) -0.02597(11)
C25 C -0.03811(15) 0.96683(14) -0.00332(12)
H11 H -0.0640 0.9449 -0.0056
C26 C 0.24516(17) 0.57107(15) 0.14873(13)
H12 H 0.2138 0.5604 0.1424
C27 C 0.35146(15) 0.80088(13) -0.03576(12)
H13 H 0.3297 0.8044 -0.0563
C28 C 0.90927(16) 0.31757(17) 0.15635(15)
H14 H 0.9336 0.3414 0.1564
C29 C 0.47287(16) 0.48776(15) 0.18699(12)
H15 H 0.4674 0.4669 0.2078
C30 C 0.56349(15) 0.48292(15) 0.19943(12)
H16 H 0.5534 0.4716 0.2248
H17 H 0.5872 0.5090 0.2030
C31 C 0.91342(16) 0.27612(17) 0.18012(12)
C32 C 0.58747(14) 0.44081(14) 0.17760(11)
H18 H 0.5637 0.4148 0.1740
H19 H 0.5975 0.4521 0.1522
C33 C 0.79710(16) 0.53658(14) 0.02569(12)
H20 H 0.8169 0.5320 0.0473
C34 C 0.08120(17) 0.69296(16) 0.19299(13)
H21 H 0.0741 0.6719 0.2134
C35 C 0.13471(16) 0.74338(15) 0.15840(12)
H22 H 0.1653 0.7576 0.1546
C36 C 0.86930(16) 0.32253(16) 0.13319(13)
H23 H 0.8672 0.3504 0.1178
C37 C 0.04531(16) 0.70349(15) 0.16597(12)
H24 H 0.0146 0.6892 0.1688
C38 C 0.28477(16) 0.55325(14) 0.12887(12)
H25 H 0.2790 0.5301 0.1097
C39 C 0.67899(14) 0.32747(13) 0.12669(11)
H26 H 0.6665 0.3074 0.1073
C40 C 0.64710(15) 0.35666(14) 0.14688(11)
H27 H 0.6139 0.3564 0.1408
C41 C 0.25133(17) 0.60436(16) 0.17776(13)
C42 C 0.52457(15) 0.53476(15) 0.14745(12)
H28 H 0.5553 0.5467 0.1407
C43 C 0.74302(16) 0.35468(16) 0.16220(12)
H29 H 0.7762 0.3541 0.1681
C44 C 0.12716(16) 0.71325(15) 0.19016(12)
C45 C 0.66406(15) 0.38652(14) 0.17630(11)
C46 C 0.63155(16) 0.42081(16) 0.19874(12)
H30 H 0.6513 0.4483 0.2074
H31 H 0.6201 0.4038 0.2217
C47 C 0.87636(17) 0.24302(16) 0.17762(13)
H32 H 0.8776 0.2145 0.1923
C48 C 0.33751(17) 0.59786(18) 0.16381(14)
H33 H 0.3693 0.6072 0.1700
C49 C 0.16629(16) 0.70472(17) 0.22012(13)
H34 H 0.1530 0.6838 0.2402
H35 H 0.1744 0.7359 0.2320
C50 C 0.71312(15) 0.38465(15) 0.18360(12)
H36 H 0.7264 0.4038 0.2032
C51 C 0.21323(16) 0.68160(17) 0.20490(14)
H37 H 0.2222 0.6972 0.1807
H38 H 0.2394 0.6874 0.2233
C52 C 0.95682(11) 0.26748(13) 0.20581(9)
H39 H 0.9490 0.2429 0.2251
H40 H 0.9655 0.2975 0.2191
C53 C 0.99995(11) 0.24997(13) 0.18079(9)
H41 H 0.9892 0.2233 0.1643
C54 C 0.20823(11) 0.62801(13) 0.19845(9)
H42 H 0.1788 0.6221 0.1834
H43 H 0.2040 0.6121 0.2233
C55 C 0.2993(2) 0.6174(2) 0.18535(15)
H44 H 0.3060 0.6394 0.2051
C56 C 0.38287(14) 0.83902(13) -0.02656(12)
C57 C 0.37963(16) 0.88520(14) -0.04770(12)
C58 C 0.41649(16) 0.83189(15) 0.00360(13)
H45 H 0.4388 0.8564 0.0098
C59 C 0.40315(15) 0.92585(14) -0.04042(12)
C60 C 0.39739(14) 0.97220(14) -0.06182(11)
O13 O 0.36561(9) 0.97583(8) -0.08873(7)
O14 O 0.42356(10) 1.00859(9) -0.05315(7)
C61 C 0.76880(15) 0.63503(14) -0.04659(11)
C62 C 0.79602(15) 0.67405(14) -0.04032(11)
C63 C 0.78960(14) 0.72027(13) -0.06088(11)
O15 O 0.75903(9) 0.72441(8) -0.08857(7)
O16 O 0.81431(9) 0.75743(9) -0.05064(7)
H58 H 0.8202(10) 0.6751(13) -0.0214(8)
H59 H 0.4078(11) 0.7062(12) 0.0595(7)
H60 H 0.3591(10) 0.8854(12) -0.0691(6)
H61 H 0.7236(9) 0.4073(11) 0.0071(6)
H62 H 0.4243(9) 0.9264(11) -0.0196(6)
H63 H -0.0486(8) 0.8700(11) 0.0188(8)
H64 H 0.3393(8) 0.6604(11) 0.0134(7)
H65 H 0.7443(9) 0.6386(12) -0.0650(7)
H66 H 0.0333(9) 0.9048(14) 0.0554(9)
H67 H 0.7902(10) 0.4510(13) 0.0554(7)
Ni1H Ni 0.0000 1.2500 -0.09568(2)
Ni2E Ni -0.775865(17) 1.201457(16) 0.093527(14)
Ni2M Ni 0.775865(17) 0.798543(16) -0.093527(14)
Ni2E_2 Ni 1.224135(17) 0.201457(16) 0.093527(14)
Ni2M_2 Ni 0.775865(17) -0.201457(16) -0.093527(14)
Ni3E Ni -0.384327(17) 0.951445(16) 0.096428(14)
Ni3M Ni 0.384327(17) 1.048555(16) -0.096428(14)
Ni3M_2 Ni 0.384327(17) 0.048555(16) -0.096428(14)
O1H O -0.01931(9) 1.17897(8) -0.08331(7)
O1E O -0.01931(9) 0.67897(8) 0.08331(7)
O2M O 0.79112(9) -0.13241(8) -0.07481(7)
O2E O -0.79112(9) 1.13241(8) 0.07481(7)
O3M O 0.72898(9) -0.17084(8) -0.04826(7)
O3E O -0.72898(9) 1.17084(8) 0.04826(7)
O4M O 0.40264(9) 0.12000(8) -0.08264(7)
O4E O -0.40264(9) 0.88000(8) 0.08264(7)
O5M O 0.34307(9) 0.08363(9) -0.05120(7)
O5E O -0.34307(9) 0.91637(9) 0.05120(7)
O6H O 0.04254(9) 1.21237(9) -0.05241(7)
O6E O 0.04254(9) 0.71237(9) 0.05241(7)
N1E N -0.72706(11) 1.17355(10) 0.13353(9)
C1M C 0.36996(14) 0.12072(13) -0.05647(11)
N2E N -0.33109(13) 0.93309(11) 0.13523(9)
N3E N 1.16705(11) 0.20983(11) 0.13112(9)
N3E_2 N -0.83295(11) 1.20983(11) 0.13112(9)
N4E N -0.43911(12) 0.96577(11) 0.13502(9)
N5E N -0.05317(12) 0.76672(11) 0.13615(9)
C2M C 0.36327(14) 0.16451(13) -0.03195(11)
C3H C -0.00246(14) 1.04523(13) -0.01920(11)
C4M C 0.35192(14) 0.25759(13) 0.01494(12)
H1M H 0.3299 0.2328 0.0211
C5M C 0.73832(14) 0.05050(13) 0.03808(11)
H2M H 0.7185 0.0551 0.0597
C6M C 0.75517(13) -0.13274(13) -0.05134(10)
C7H C -0.00608(16) 1.09181(14) -0.03973(11)
C8H C 0.02249(15) 1.13044(14) -0.03585(11)
C9M C 0.76631(14) -0.00102(13) -0.01373(11)
C10M C 0.38512(14) 0.25082(13) -0.01525(11)
C11M C 0.73682(13) 0.00646(13) 0.01842(11)
H3M H 0.7159 -0.0183 0.0268
C12M C 0.74528(14) -0.08900(13) -0.02769(11)
C13M C 0.38769(16) 0.20545(14) -0.03778(12)
C14M C 0.76791(14) -0.04748(13) -0.03518(11)
C15M C 0.79886(16) 0.08056(14) -0.00602(12)
H4M H 0.8200 0.1051 -0.0143
C16H C 0.01530(14) 1.17568(13) -0.05789(11)
C17E C -0.51973(15) 0.99735(14) 0.17814(12)
C18M C 0.41650(17) 0.28869(15) -0.02404(13)
H5M H 0.4384 0.2849 -0.0444
C19E C -0.48433(16) 0.95099(14) 0.12703(12)
H6E H -0.4888 0.9297 0.1063
C20E C 1.16252(16) 0.24878(15) 0.15375(12)
H7E H 1.1875 0.2720 0.1533
C21E C -0.43377(15) 0.99597(15) 0.16475(12)
H8E H -0.4024 1.0067 0.1710
C22H C -0.03982(15) 1.01138(14) -0.02233(12)
H9H H -0.0669 1.0187 -0.0376
C23E C -0.09809(16) 0.74740(14) 0.13257(12)
H10E H -0.1045 0.7269 0.1117
C24M C 0.76922(14) 0.08823(13) 0.02597(11)
C25H C 0.03811(15) 1.03317(14) 0.00332(12)
H11H H 0.0640 1.0551 0.0056
C26E C -0.24516(17) 0.92893(15) 0.14873(13)
H12E H -0.2138 0.9396 0.1424
C27M C 0.35146(15) 0.30088(13) 0.03576(12)
H13M H 0.3297 0.3044 0.0563
C28E C 1.09073(16) 0.18243(17) 0.15635(15)
H14E H 1.0664 0.1586 0.1564
C29E C -0.47287(16) 1.01224(15) 0.18699(12)
H15E H -0.4674 1.0331 0.2078
C30E C -0.56349(15) 1.01708(15) 0.19943(12)
H16E H -0.5534 1.0284 0.2248
H17E H -0.5872 0.9910 0.2030
C31E C 1.08658(16) 0.22388(17) 0.18012(12)
C32E C -0.58747(14) 1.05919(14) 0.17760(11)
H18E H -0.5637 1.0852 0.1740
H19E H -0.5975 1.0479 0.1522
C33M C 0.79710(16) 0.03658(14) -0.02569(12)
H20M H 0.8169 0.0320 -0.0473
C34E C -0.08120(17) 0.80704(16) 0.19299(13)
H21E H -0.0741 0.8281 0.2134
C35E C -0.13471(16) 0.75662(15) 0.15840(12)
H22E H -0.1653 0.7424 0.1546
C36E C 1.13070(16) 0.17747(16) 0.13319(13)
H23E H 1.1328 0.1496 0.1178
C37E C -0.04531(16) 0.79651(15) 0.16597(12)
H24E H -0.0146 0.8108 0.1688
C38E C -0.28477(16) 0.94675(14) 0.12887(12)
H25E H -0.2790 0.9699 0.1097
C39E C -0.67899(14) 1.17253(13) 0.12669(11)
H26E H -0.6665 1.1926 0.1073
C40E C -0.64710(15) 1.14334(14) 0.14688(11)
H27E H -0.6139 1.1436 0.1408
C41E C -0.25133(17) 0.89564(16) 0.17776(13)
C42E C -0.52457(15) 0.96524(15) 0.14745(12)
H28E H -0.5553 0.9533 0.1407
C43E C -0.74302(16) 1.14532(16) 0.16220(12)
H29E H -0.7762 1.1459 0.1681
C44E C -0.12716(16) 0.78675(15) 0.19016(12)
C45E C -0.66406(15) 1.11348(14) 0.17630(11)
C46E C -0.63155(16) 1.07919(16) 0.19874(12)
H30E H -0.6513 1.0517 0.2074
H31E H -0.6201 1.0962 0.2217
C47E C 1.12364(17) 0.25698(16) 0.17762(13)
H32E H 1.1224 0.2855 0.1923
C48E C -0.33751(17) 0.90214(18) 0.16381(14)
H33E H -0.3693 0.8928 0.1700
C49E C -0.16629(16) 0.79528(17) 0.22012(13)
H34E H -0.1530 0.8162 0.2402
H35E H -0.1744 0.7641 0.2320
C50E C -0.71312(15) 1.11535(15) 0.18360(12)
H36E H -0.7264 1.0962 0.2032
C51E C -0.21323(16) 0.81840(17) 0.20490(14)
H37E H -0.2222 0.8028 0.1807
H38E H -0.2394 0.8126 0.2233
C52E C 1.04318(11) 0.23252(13) 0.20581(9)
H39E H 1.0510 0.2571 0.2251
H40E H 1.0345 0.2025 0.2191
H41E H 1.0108 0.2767 0.1643
C54E C -0.20823(11) 0.87199(13) 0.19845(9)
H42E H -0.1788 0.8779 0.1834
H43E H -0.2040 0.8879 0.2233
C55E C -0.2993(2) 0.8826(2) 0.18535(15)
H44E H -0.3060 0.8606 0.2051
C56M C 0.38287(14) 0.33902(13) 0.02656(12)
C57M C 0.37963(16) 0.38520(14) 0.04770(12)
C58M C 0.41649(16) 0.33189(15) -0.00360(13)
H45M H 0.4388 0.3564 -0.0098
C59M C 0.40315(15) 0.42585(14) 0.04042(12)
C60M C 0.39739(14) 0.47220(14) 0.06182(11)
O13M O 0.36561(9) 0.47583(8) 0.08873(7)
O13H O -0.36561(9) 1.02417(8) 0.08873(7)
O14M O 0.42356(10) 0.50859(9) 0.05315(7)
O14H O -0.42356(10) 0.99141(9) 0.05315(7)
C61M C 0.76880(15) 0.13503(14) 0.04659(11)
C62M C 0.79602(15) 0.17405(14) 0.04032(11)
C63M C 0.78960(14) 0.22027(13) 0.06088(11)
O15M O 0.75903(9) 0.22441(8) 0.08857(7)
O15H O -0.75903(9) 1.27559(8) 0.08857(7)
O16M O 0.81431(9) 0.25743(9) 0.05064(7)
O16H O -0.81431(9) 1.24257(9) 0.05064(7)
H58M H 0.8202(10) 0.1751(13) 0.0214(8)
H59M H 0.4078(11) 0.2062(12) -0.0595(7)
H60M H 0.3591(10) 0.3854(12) 0.0691(6)
H61M H 0.7236(9) -0.0927(11) -0.0071(6)
H62M H 0.4243(9) 0.4264(11) 0.0196(6)
H63H H 0.0486(8) 1.1300(11) -0.0188(8)
H64M H 0.3393(8) 0.1604(11) -0.0134(7)
H65M H 0.7443(9) 0.1386(12) 0.0650(7)
H66H H -0.0333(9) 1.0952(14) -0.0554(9)
H67M H 0.7902(10) -0.0490(13) -0.0554(7)
O7 O 0.10528(15) 1.00117(16) 0.10480(11)
H50 H 0.0825(15) 0.9999(18) 0.1212(13)
H55 H 0.1211(18) 0.9746(12) 0.1055(17)
O8 O 0.11688(12) 0.83947(12) 0.05838(11)
H48 H 0.1233(12) 0.8149(10) 0.0449(11)
H49 H 0.0873(6) 0.8390(14) 0.0648(12)
O9 O 0.12632(13) 0.75302(13) 0.01660(11)
H47 H 0.1020(9) 0.7364(12) 0.0234(10)
H51 H 0.1360(15) 0.7436(16) -0.0053(7)
O10 O 0.15431(14) 0.91242(14) 0.10612(11)
H46 H 0.1769(13) 0.9040(15) 0.1212(12)
H52 H 0.1425(18) 0.8871(10) 0.0958(15)
O11 O 0.45690(14) 0.69181(14) 0.12666(11)
H56 H 0.441(2) 0.672(2) 0.1129(19)
H57 H 0.4866(8) 0.691(3) 0.120(2)
O12 O 0.88256(14) 0.41250(18) 0.05761(16)
H53 H 0.8854(18) 0.433(2) 0.0759(14)
H54 H 0.8534(7) 0.4022(17) 0.0576(14)
loop_
_geom_bond_atom_site_label_1
_geom_bond_atom_site_label_2
_geom_bond_site_symmetry_1
_geom_bond_site_symmetry_2
Ni1 O1 1_555 1_555
Ni2 O2 1_555 1_555
Ni3 O4 1_555 1_555
O1 C16 1_555 1_555
O2 C6 1_555 1_555
O3 Ni2 1_555 1_555
O4 C1 1_555 1_555
O5 Ni3 1_555 1_555
O6 Ni1 1_555 1_555
N1 Ni2 1_555 1_555
C1 O5 1_555 1_555
N2 Ni3 1_555 1_555
N3 Ni2 1_555 1_555
N4 Ni3 1_555 1_555
N5 Ni1 1_555 1_555
C2 C1 1_555 1_555
C3 C7 1_555 1_555
C4 H1 1_555 1_555
C5 H2 1_555 1_555
C6 O3 1_555 1_555
C7 C8 1_555 1_555
C8 C16 1_555 1_555
C9 C11 1_555 1_555
C10 C4 1_555 1_555
C11 C5 1_555 1_555
H3 C11 1_555 1_555
C12 C6 1_555 1_555
C13 C2 1_555 1_555
C14 C9 1_555 1_555
C15 H4 1_555 1_555
C16 O6 1_555 1_555
C17 C29 1_555 1_555
C18 C10 1_555 1_555
H5 C18 1_555 1_555
C19 N4 1_555 1_555
H6 C19 1_555 1_555
C20 N3 1_555 1_555
H7 C20 1_555 1_555
C21 N4 1_555 1_555
H8 C21 1_555 1_555
C22 C3 1_555 1_555
H9 C22 1_555 1_555
C23 N5 1_555 1_555
H10 C23 1_555 1_555
C24 C5 1_555 1_555
C25 C3 1_555 1_555
H11 C25 1_555 1_555
C26 H12 1_555 1_555
C27 C4 1_555 1_555
H13 C27 1_555 1_555
C28 H14 1_555 1_555
C29 C21 1_555 1_555
H15 C29 1_555 1_555
C30 C17 1_555 1_555
H16 C30 1_555 1_555
H17 C30 1_555 1_555
C31 C28 1_555 1_555
C32 C30 1_555 1_555
H18 C32 1_555 1_555
H19 C32 1_555 1_555
C33 C9 1_555 1_555
H20 C33 1_555 1_555
C34 H21 1_555 1_555
C35 C23 1_555 1_555
H22 C35 1_555 1_555
C36 N3 1_555 1_555
H23 C36 1_555 1_555
C37 N5 1_555 1_555
H24 C37 1_555 1_555
C38 N2 1_555 1_555
H25 C38 1_555 1_555
C39 N1 1_555 1_555
H26 C39 1_555 1_555
C40 C39 1_555 1_555
H27 C40 1_555 1_555
C41 C26 1_555 1_555
C42 C17 1_555 1_555
H28 C42 1_555 1_555
C43 N1 1_555 1_555
H29 C43 1_555 1_555
C44 C34 1_555 1_555
C45 C40 1_555 1_555
C46 C32 1_555 1_555
H30 C46 1_555 1_555
H31 C46 1_555 1_555
C47 C20 1_555 1_555
H32 C47 1_555 1_555
C48 N2 1_555 1_555
H33 C48 1_555 1_555
C49 C44 1_555 1_555
H34 C49 1_555 1_555
H35 C49 1_555 1_555
C50 C43 1_555 1_555
H36 C50 1_555 1_555
C51 C49 1_555 1_555
H37 C51 1_555 1_555
H38 C51 1_555 1_555
C52 C31 1_555 1_555
H39 C52 1_555 1_555
H40 C52 1_555 1_555
C53 C52 1_555 1_555
H41 C53 1_555 1_555
C54 C41 1_555 1_555
H42 C54 1_555 1_555
H43 C54 1_555 1_555
C55 C41 1_555 1_555
H44 C55 1_555 1_555
O7 H50 1_555 1_555
O8 H48 1_555 1_555
O9 H47 1_555 1_555
O10 H46 1_555 1_555
O11 H56 1_555 1_555
O12 H53 1_555 1_555
C56 C27 1_555 1_555
C57 C56 1_555 1_555
C58 C18 1_555 1_555
H45 C58 1_555 1_555
C59 C57 1_555 1_555
C60 C59 1_555 1_555
O13 C60 1_555 1_555
O14 C60 1_555 1_555
C61 C24 1_555 1_555
C62 C61 1_555 1_555
C63 C62 1_555 1_555
O15 C63 1_555 1_555
O16 C63 1_555 1_555
H49 O8 1_555 1_555
H51 O9 1_555 1_555
H52 O10 1_555 1_555
H54 O12 1_555 1_555
H55 O7 1_555 1_555
H57 O11 1_555 1_555
H58 C62 1_555 1_555
H59 C13 1_555 1_555
H60 C57 1_555 1_555
H61 C12 1_555 1_555
H62 C59 1_555 1_555
H63 C8 1_555 1_555
H64 C2 1_555 1_555
H65 C61 1_555 1_555
H66 C7 1_555 1_555
H67 C14 1_555 1_555
Ni1H O1H 1_555 1_555
Ni2E O2E 1_555 1_555
Ni2M O15 1_555 1_555
Ni2E_2 N3E 1_555 1_555
Ni2M_2 O2M 1_555 1_555
Ni3E O4E 1_555 1_555
Ni3M O13 1_555 1_555
Ni3M_2 O4M 1_555 1_555
O1H C16H 1_555 1_555
O1E Ni1 1_555 1_555
O2M C6M 1_555 1_555
O3M Ni2M_2 1_555 1_555
O3E Ni2E 1_555 1_555
O4M C1M 1_555 1_555
O5M Ni3M_2 1_555 1_555
O5E Ni3E 1_555 1_555
O6H Ni1H 1_555 1_555
O6E Ni1 1_555 1_555
N1E Ni2E 1_555 1_555
C1M O5M 1_555 1_555
N2E Ni3E 1_555 1_555
N3E C20E 1_555 1_555
N3E_2 Ni2E 1_555 1_555
N4E Ni3E 1_555 1_555
N5E Ni1 1_555 1_555
C2M C1M 1_555 1_555
C3H C7H 1_555 1_555
C4M H1M 1_555 1_555
C5M H2M 1_555 1_555
C6M O3M 1_555 1_555
C7H C8H 1_555 1_555
C8H C16H 1_555 1_555
C9M C11M 1_555 1_555
C10M C4M 1_555 1_555
C11M C5M 1_555 1_555
H3M C11M 1_555 1_555
C12M C6M 1_555 1_555
C13M C2M 1_555 1_555
C14M C9M 1_555 1_555
C15M H4M 1_555 1_555
C16H O6H 1_555 1_555
C17E C29E 1_555 1_555
C18M C10M 1_555 1_555
H5M C18M 1_555 1_555
C19E N4E 1_555 1_555
H6E C19E 1_555 1_555
C20E H7E 1_555 1_555
C21E N4E 1_555 1_555
H8E C21E 1_555 1_555
C22H C25 1_555 1_555
H9H C22H 1_555 1_555
C23E N5E 1_555 1_555
H10E C23E 1_555 1_555
C24M C5M 1_555 1_555
C25H C22 1_555 1_555
H11H C25H 1_555 1_555
C26E H12E 1_555 1_555
C27M C4M 1_555 1_555
H13M C27M 1_555 1_555
C28E H14E 1_555 1_555
C29E C21E 1_555 1_555
H15E C29E 1_555 1_555
C30E C17E 1_555 1_555
H16E C30E 1_555 1_555
H17E C30E 1_555 1_555
C31E C28E 1_555 1_555
C32E C30E 1_555 1_555
H18E C32E 1_555 1_555
H19E C32E 1_555 1_555
C33M C9M 1_555 1_555
H20M C33M 1_555 1_555
C34E H21E 1_555 1_555
C35E C23E 1_555 1_555
H22E C35E 1_555 1_555
C36E N3E 1_555 1_555
H23E C36E 1_555 1_555
C37E N5E 1_555 1_555
H24E C37E 1_555 1_555
C38E N2E 1_555 1_555
H25E C38E 1_555 1_555
C39E N1E 1_555 1_555
H26E C39E 1_555 1_555
C40E C39E 1_555 1_555
H27E C40E 1_555 1_555
C41E C26E 1_555 1_555
C42E C17E 1_555 1_555
H28E C42E 1_555 1_555
C43E N1E 1_555 1_555
H29E C43E 1_555 1_555
C44E C34E 1_555 1_555
C45E C40E 1_555 1_555
C46E C32E 1_555 1_555
H30E C46E 1_555 1_555
H31E C46E 1_555 1_555
C47E C20E 1_555 1_555
H32E C47E 1_555 1_555
C48E N2E 1_555 1_555
H33E C48E 1_555 1_555
C49E C44E 1_555 1_555
H34E C49E 1_555 1_555
H35E C49E 1_555 1_555
C50E C43E 1_555 1_555
H36E C50E 1_555 1_555
C51E C49E 1_555 1_555
H37E C51E 1_555 1_555
H38E C51E 1_555 1_555
C52E C53 1_555 1_555
H39E C52E 1_555 1_555
H40E C52E 1_555 1_555
H41E C53 1_555 1_555
C54E C41E 1_555 1_555
H42E C54E 1_555 1_555
H43E C54E 1_555 1_555
C55E C41E 1_555 1_555
H44E C55E 1_555 1_555
C56M C27M 1_555 1_555
C57M C56M 1_555 1_555
C58M C18M 1_555 1_555
H45M C58M 1_555 1_555
C59M C57M 1_555 1_555
C60M C59M 1_555 1_555
O13M Ni3 1_555 1_555
O13H Ni3E 1_555 1_555
O14M Ni3 1_555 1_555
O14H Ni3E 1_555 1_555
C61M C24M 1_555 1_555
C62M C61M 1_555 1_555
C63M C62M 1_555 1_555
O15M Ni2 1_555 1_555
O15H Ni2E 1_555 1_555
O16M Ni2 1_555 1_555
O16H Ni2E 1_555 1_555
H58M C62M 1_555 1_555
H59M C13M 1_555 1_555
H60M C57M 1_555 1_555
H61M C12M 1_555 1_555
H62M C59M 1_555 1_555
H63H C8H 1_555 1_555
H64M C2M 1_555 1_555
H65M C61M 1_555 1_555
H66H C7H 1_555 1_555
H67M C14M 1_555 1_555
C10 C13 1_555 1_555
C12 C14 1_555 1_555
C15 C24 1_555 1_555
C15 C33 1_555 1_555
C19 C42 1_555 1_555
C26 C38 1_555 1_555
C28 C36 1_555 1_555
C31 C47 1_555 1_555
C34 C37 1_555 1_555
C35 C44 1_555 1_555
C45 C46 1_555 1_555
C45 C50 1_555 1_555
C48 C55 1_555 1_555
C51 C54 1_555 1_555
C56 C58 1_555 1_555
O14 Ni3M 1_555 1_555
O16 Ni2M 1_555 1_555
C3H C22H 1_555 1_555
C3H C25H 1_555 1_555
C10M C13M 1_555 1_555
C12M C14M 1_555 1_555
C15M C24M 1_555 1_555
C15M C33M 1_555 1_555
C19E C42E 1_555 1_555
C26E C38E 1_555 1_555
C28E C36E 1_555 1_555
C31E C47E 1_555 1_555
C31E C52E 1_555 1_555
C34E C37E 1_555 1_555
C35E C44E 1_555 1_555
C45E C46E 1_555 1_555
C45E C50E 1_555 1_555
C48E C55E 1_555 1_555
C51E C54E 1_555 1_555
C56M C58M 1_555 1_555
C60M O13M 1_555 1_555
C60M O14M 1_555 1_555
C63M O15M 1_555 1_555
C63M O16M 1_555 1_555

#END
