
#######################################################################
#
#                 Cambridge Crystallographic Data Centre
#                                CCDC 
#
#######################################################################
#
# If this CIF has been generated from an entry in the Cambridge 
# Structural Database, then it will include bibliographic, chemical, 
# crystal, experimental, refinement or atomic coordinate data resulting 
# from the CCDC's data processing and validation procedures.
#
#######################################################################

data_MATJEY01
_symmetry_cell_setting           monoclinic
_symmetry_space_group_name_H-M   'P 21/c'
_symmetry_Int_Tables_number      14
_space_group_name_Hall           '-P 2ybc'
loop_
_symmetry_equiv_pos_site_id
_symmetry_equiv_pos_as_xyz
1 x,y,z
2 -x,1/2+y,1/2-z
3 -x,-y,-z
4 x,1/2-y,1/2+z
_cell_length_a                   23.7689(16)
_cell_length_b                   18.2313(12)
_cell_length_c                   10.3941(7)
_cell_angle_alpha                90
_cell_angle_beta                 91.177(3)
_cell_angle_gamma                90
_cell_volume                     4503.21
loop_
_atom_site_label
_atom_site_type_symbol
_atom_site_fract_x
_atom_site_fract_y
_atom_site_fract_z
Cd1 Cd 0.179156(7) 0.467028(12) 0.586931(17)
Cd2 Cd 0.318557(7) 0.505817(12) 0.402063(17)
O1 O 0.36237(7) 0.57790(12) 0.55148(18)
O2 O 0.23064(7) 0.54632(11) 0.47112(17)
O3 O 0.41020(8) 0.47769(12) 0.5053(2)
C1 C 0.22758(10) 0.60422(15) 0.4006(2)
O4 O 0.26777(8) 0.62061(11) 0.32957(19)
N1 N 0.20787(10) 0.53232(13) 0.7684(2)
N2 N 0.28910(9) 0.44869(14) 0.2137(2)
C2 C 0.40705(11) 0.53970(17) 0.5560(3)
N3 N 0.38058(9) 0.53927(13) 0.2340(2)
C3 C 0.11943(11) 0.75426(16) 0.3219(3)
N4 N 0.11393(9) 0.44553(14) 0.7551(2)
C4 C 0.17084(11) 0.71097(17) 0.3421(3)
C5 C 0.45810(11) 0.57127(17) 0.6187(3)
C6 C 0.17540(12) 0.52540(16) 0.8736(3)
C7 C 0.32150(12) 0.45891(16) 0.1091(3)
C8 C 0.17514(11) 0.64742(16) 0.4025(2)
C9 C 0.40495(14) 0.51740(19) 0.0113(3)
C10 C 0.59161(11) 0.75401(16) 0.8559(3)
C11 C 0.25382(12) 0.57424(17) 0.7754(3)
H1 H 0.2760 0.5788 0.7031
C12 C 0.09074(14) 0.47179(18) 0.9759(3)
C13 C 0.60221(11) 0.69437(17) 0.7753(3)
H2 H 0.6392 0.6825 0.7565
C14 C 0.45564(11) 0.63186(17) 0.6904(3)
C15 C 0.12214(11) 0.81491(16) 0.2404(3)
H3 H 0.1569 0.8297 0.2099
C16 C 0.06885(12) 0.40314(18) 0.7487(3)
H4 H 0.0607 0.3794 0.6714
C17 C 0.55916(11) 0.65299(16) 0.7234(3)
H5 H 0.5672 0.6134 0.6705
C18 C 0.06698(12) 0.73524(17) 0.3723(3)
H6 H 0.0644 0.6967 0.4305
C19 C 0.50300(11) 0.67031(16) 0.7501(3)
C20 C 0.07485(11) 0.85312(16) 0.2041(3)
H7 H 0.0777 0.8934 0.1497
C21 C 0.15022(16) 0.5537(2) 1.0982(3)
H8 H 0.1582 0.5791 1.1740
C22 C 0.24321(12) 0.40671(18) 0.2035(3)
H9 H 0.2212 0.3995 0.2754
C23 C 0.45978(13) 0.5997(2) 0.1402(3)
H10 H 0.4895 0.6325 0.1508
C24 C 0.39229(16) 0.4803(2) -0.1063(3)
H11 H 0.4155 0.4862 -0.1766
C25 C 0.30968(13) 0.42544(18) -0.0107(3)
C26 C 0.04350(13) 0.42627(19) 0.9655(3)
H12 H 0.0200 0.4197 1.0351
C27 C 0.53576(11) 0.76919(18) 0.8864(3)
H13 H 0.5279 0.8072 0.9430
C28 C 0.26975(14) 0.61141(19) 0.8875(3)
H14 H 0.3023 0.6397 0.8904
C29 C 0.10446(16) 0.5107(2) 1.0915(3)
H15 H 0.0816 0.5062 1.1625
C30 C 0.49212(12) 0.72834(19) 0.8332(3)
H16 H 0.4552 0.7397 0.8531
C31 C 0.03256(13) 0.39189(19) 0.8517(3)
H17 H 0.0014 0.3613 0.8422
C32 C 0.12564(12) 0.47951(17) 0.8676(3)
C33 C 0.26053(14) 0.38227(19) -0.0172(3)
H18 H 0.2504 0.3594 -0.0942
C34 C 0.42392(12) 0.58454(19) 0.2435(3)
H19 H 0.4311 0.6075 0.3220
C35 C 0.22760(13) 0.37351(18) 0.0875(3)
H20 H 0.1949 0.3456 0.0815
C36 C 0.18781(14) 0.56177(19) 0.9898(3)
C37 C 0.23637(14) 0.6056(2) 0.9939(3)
H21 H 0.2461 0.6309 1.0689
C38 C 0.45055(14) 0.5659(2) 0.0249(3)
H22 H 0.4741 0.5748 -0.0438
C39 C 0.34660(16) 0.4364(2) -0.1159(3)
H23 H 0.3389 0.4125 -0.1933
C40 C 0.37030(12) 0.50628(16) 0.1192(3)
C41 C 0.63605(12) 0.80216(17) 0.9050(3)
C42 C 0.68963(11) 0.80146(16) 0.8721(3)
C43 C 0.72918(11) 0.85978(16) 0.9120(3)
O5 O 0.77465(8) 0.86503(13) 0.84837(19)
O6 O 0.71786(9) 0.90238(13) 1.0005(2)
C44 C 0.01964(11) 0.77329(17) 0.3360(3)
H24 H -0.0148 0.7601 0.3700
C45 C 0.02188(11) 0.83149(16) 0.2492(3)
C46 C -0.03013(11) 0.86467(17) 0.2003(3)
C47 C -0.03393(11) 0.92482(17) 0.1277(3)
C48 C -0.08764(12) 0.94976(17) 0.0685(3)
O7 O -0.12920(8) 0.90535(12) 0.06504(18)
O8 O -0.08979(9) 1.01170(12) 0.0173(2)
H25 H -0.0020(8) 0.9509(13) 0.102(2)
H26 H 0.4908(8) 0.5449(14) 0.604(3)
H27 H 0.6251(12) 0.8392(12) 0.961(2)
H28 H 0.1446(7) 0.6268(14) 0.444(2)
H29 H 0.7043(12) 0.7689(14) 0.814(2)
H30 H -0.0630(8) 0.8391(15) 0.215(3)
H31 H 0.2013(8) 0.7309(16) 0.300(2)
H32 H 0.4204(7) 0.6515(16) 0.708(3)
Cd1A Cd -0.179156(7) 0.967028(12) -0.086931(17)
Cd1A_2 Cd 0.820844(7) 0.967028(12) 0.913069(17)
Cd2A Cd 0.681443(7) 1.005817(12) 1.097937(17)
O5A O 0.22535(8) 0.36503(13) 0.65163(19)
O6A O 0.28214(9) 0.40238(13) 0.4995(2)
O7A O 0.12920(8) 0.40535(12) 0.43496(18)
O8A O 0.08979(9) 0.51170(12) 0.4827(2)
O9 O 0.15815(14) 0.25467(17) 0.7492(3)
H33 H 0.1493(15) 0.257(2) 0.8272(14)
H34 H 0.1821(13) 0.2879(17) 0.734(3)
O10 O 0.36531(12) 0.72989(15) 0.4999(3)
H35 H 0.3521(13) 0.7368(17) 0.4263(16)
H36 H 0.3570(14) 0.6885(10) 0.527(3)
O11 O 0.11275(11) 0.25782(15) 0.5004(3)
H37 H 0.1267(14) 0.2972(12) 0.472(3)
H38 H 0.1235(14) 0.2550(18) 0.5801(13)
O12 O 0.32733(16) 0.74201(18) 0.2464(3)
H39 H 0.3047(15) 0.7072(17) 0.249(4)
H40 H 0.3360(17) 0.750(2) 0.1693(16)
loop_
_geom_bond_atom_site_label_1
_geom_bond_atom_site_label_2
_geom_bond_site_symmetry_1
_geom_bond_site_symmetry_2
Cd1 O2 1_555 1_555
Cd2 O1 1_555 1_555
O1 C2 1_555 1_555
O2 Cd2 1_555 1_555
O3 Cd2 1_555 1_555
C1 O2 1_555 1_555
O4 Cd2 1_555 1_555
N1 Cd1 1_555 1_555
N2 Cd2 1_555 1_555
C2 O3 1_555 1_555
N3 Cd2 1_555 1_555
C3 C4 1_555 1_555
N4 Cd1 1_555 1_555
C4 C8 1_555 1_555
C5 C2 1_555 1_555
C6 N1 1_555 1_555
C7 N2 1_555 1_555
C8 C1 1_555 1_555
C9 C24 1_555 1_555
C10 C13 1_555 1_555
C11 N1 1_555 1_555
H1 C11 1_555 1_555
C12 C26 1_555 1_555
C13 H2 1_555 1_555
C14 C5 1_555 1_555
C15 C3 1_555 1_555
H3 C15 1_555 1_555
C16 N4 1_555 1_555
H4 C16 1_555 1_555
C17 C13 1_555 1_555
H5 C17 1_555 1_555
C18 C3 1_555 1_555
H6 C18 1_555 1_555
C19 C14 1_555 1_555
C20 C15 1_555 1_555
H7 C20 1_555 1_555
C21 H8 1_555 1_555
C22 N2 1_555 1_555
H9 C22 1_555 1_555
C23 H10 1_555 1_555
C24 H11 1_555 1_555
C25 C7 1_555 1_555
C26 H12 1_555 1_555
C27 C10 1_555 1_555
H13 C27 1_555 1_555
C28 C11 1_555 1_555
H14 C28 1_555 1_555
C29 C12 1_555 1_555
H15 C29 1_555 1_555
C30 C19 1_555 1_555
H16 C30 1_555 1_555
C31 C16 1_555 1_555
H17 C31 1_555 1_555
C32 N4 1_555 1_555
C33 C25 1_555 1_555
H18 C33 1_555 1_555
C34 N3 1_555 1_555
H19 C34 1_555 1_555
C35 C22 1_555 1_555
H20 C35 1_555 1_555
C36 C6 1_555 1_555
C37 C28 1_555 1_555
H21 C37 1_555 1_555
C38 C9 1_555 1_555
H22 C38 1_555 1_555
C39 C24 1_555 1_555
H23 C39 1_555 1_555
C40 N3 1_555 1_555
C41 C10 1_555 1_555
C42 C41 1_555 1_555
C43 C42 1_555 1_555
O5 C43 1_555 1_555
O6 C43 1_555 1_555
C44 C18 1_555 1_555
H24 C44 1_555 1_555
C45 C20 1_555 1_555
C46 C45 1_555 1_555
C47 C46 1_555 1_555
C48 C47 1_555 1_555
O7 C48 1_555 1_555
O8 C48 1_555 1_555
H25 C47 1_555 1_555
H26 C5 1_555 1_555
H27 C41 1_555 1_555
H28 C8 1_555 1_555
H29 C42 1_555 1_555
H30 C46 1_555 1_555
H31 C4 1_555 1_555
H32 C14 1_555 1_555
O9 H33 1_555 1_555
H34 O9 1_555 1_555
O10 H35 1_555 1_555
H36 O10 1_555 1_555
O11 H37 1_555 1_555
H38 O11 1_555 1_555
O12 H39 1_555 1_555
H40 O12 1_555 1_555
Cd1A O7 1_555 1_555
Cd1A_2 O5 1_555 1_555
Cd2A O6 1_555 1_555
O5A Cd1 1_555 1_555
O6A Cd2 1_555 1_555
O7A Cd1 1_555 1_555
O8A Cd1 1_555 1_555
C1 O4 1_555 1_555
C6 C32 1_555 1_555
C7 C40 1_555 1_555
C9 C40 1_555 1_555
C12 C32 1_555 1_555
C17 C19 1_555 1_555
C21 C29 1_555 1_555
C21 C36 1_555 1_555
C23 C34 1_555 1_555
C23 C38 1_555 1_555
C25 C39 1_555 1_555
C26 C31 1_555 1_555
C27 C30 1_555 1_555
C33 C35 1_555 1_555
C36 C37 1_555 1_555
C44 C45 1_555 1_555
O8 Cd1A 1_555 1_555

#END
