
#######################################################################
#
#                 Cambridge Crystallographic Data Centre
#                                CCDC 
#
#######################################################################
#
# If this CIF has been generated from an entry in the Cambridge 
# Structural Database, then it will include bibliographic, chemical, 
# crystal, experimental, refinement or atomic coordinate data resulting 
# from the CCDC's data processing and validation procedures.
#
#######################################################################

data_MATJEY
_symmetry_cell_setting           monoclinic
_symmetry_space_group_name_H-M   'P 21/c'
_symmetry_Int_Tables_number      14
_space_group_name_Hall           '-P 2ybc'
loop_
_symmetry_equiv_pos_site_id
_symmetry_equiv_pos_as_xyz
1 x,y,z
2 -x,1/2+y,1/2-z
3 -x,-y,-z
4 x,1/2-y,1/2+z
_cell_length_a                   23.7711(16)
_cell_length_b                   18.2299(12)
_cell_length_c                   10.4033(7)
_cell_angle_alpha                90
_cell_angle_beta                 91.183(2)
_cell_angle_gamma                90
_cell_volume                     4507.25
loop_
_atom_site_label
_atom_site_type_symbol
_atom_site_fract_x
_atom_site_fract_y
_atom_site_fract_z
Cd1 Cd 0.179158(7) 0.467023(12) 0.586916(16)
Cd2 Cd 0.681450(7) 0.005820(12) 1.097940(16)
O1 O 0.63760(7) 0.07789(11) 0.94851(18)
O2 O 0.23065(7) 0.54628(10) 0.47109(17)
O3 O 0.58980(8) -0.02235(11) 0.9947(2)
C1 C 0.22761(10) 0.60420(15) 0.4006(2)
O4 O 0.26776(7) 0.62064(11) 0.32951(18)
N1 N 0.20789(9) 0.53234(13) 0.7684(2)
N2 N 0.71091(9) -0.05127(13) 1.2863(2)
C2 C 0.59291(11) 0.03968(16) 0.9440(3)
N3 N 0.61939(9) 0.03926(13) 1.2659(2)
C3 C 0.11943(11) 0.75427(15) 0.3219(2)
N4 N 0.11390(9) 0.44555(13) 0.7551(2)
C4 C 0.17085(11) 0.71098(16) 0.3420(3)
C5 C 0.54186(11) 0.07129(16) 0.8812(3)
C6 C 0.17539(12) 0.52543(16) 0.8736(3)
C7 C 0.67853(11) -0.04113(15) 1.3908(3)
C8 C 0.17508(10) 0.64740(16) 0.4025(2)
C9 C 0.59508(13) 0.01741(19) 1.4886(3)
C10 C 0.40840(10) 0.25401(16) 0.6442(2)
C11 C 0.25382(12) 0.57428(17) 0.7754(3)
H1 H 0.2759 0.5789 0.7032
C12 C 0.09079(13) 0.47179(18) 0.9760(3)
C13 C 0.39780(11) 0.19436(16) 0.7246(3)
H2 H 0.3608 0.1825 0.7433
C14 C 0.54437(11) 0.13182(17) 0.8096(3)
C15 C 0.12219(10) 0.81497(16) 0.2403(3)
H3 H 0.1569 0.8298 0.2100
C16 C 0.06881(11) 0.40310(18) 0.7487(3)
H4 H 0.0607 0.3793 0.6715
C17 C 0.44085(11) 0.15291(16) 0.7767(3)
H5 H 0.4328 0.1133 0.8296
C18 C 0.06700(11) 0.73519(17) 0.3724(3)
H6 H 0.0645 0.6967 0.4306
C19 C 0.49700(10) 0.17036(16) 0.7500(2)
C20 C 0.07483(11) 0.85313(16) 0.2040(2)
H7 H 0.0776 0.8934 0.1496
C21 C 0.15029(15) 0.5538(2) 1.0983(3)
H8 H 0.1583 0.5791 1.1740
C22 C 0.75679(12) -0.09331(17) 1.2964(3)
H9 H 0.7788 -0.1006 1.2246
C23 C 0.54021(13) 0.0997(2) 1.3599(3)
H10 H 0.5105 0.1325 1.3493
C24 C 0.60772(15) -0.0197(2) 1.6063(3)
H11 H 0.5845 -0.0138 1.6764
C25 C 0.69033(13) -0.07456(18) 1.5106(3)
C26 C 0.04345(13) 0.42627(19) 0.9655(3)
H12 H 0.0200 0.4197 1.0350
C27 C 0.46426(11) 0.26923(18) 0.6136(3)
H13 H 0.4721 0.3072 0.5570
C28 C 0.26975(13) 0.61143(19) 0.8875(3)
H14 H 0.3023 0.6397 0.8905
C29 C 0.10445(16) 0.5107(2) 1.0915(3)
H15 H 0.0815 0.5063 1.1624
C30 C 0.50788(11) 0.22834(18) 0.6669(3)
H16 H 0.5448 0.2397 0.6470
C31 C 0.03248(13) 0.39184(19) 0.8516(3)
H17 H 0.0014 0.3613 0.8421
C32 C 0.12562(11) 0.47951(16) 0.8676(3)
C33 C 0.73946(14) -0.11772(18) 1.5172(3)
H18 H 0.7496 -0.1406 1.5942
C34 C 0.57604(12) 0.08461(18) 1.2564(3)
H19 H 0.5688 0.1076 1.1780
C35 C 0.77243(13) -0.12654(18) 1.4125(3)
H20 H 0.8051 -0.1545 1.4185
C36 C 0.18780(13) 0.56180(18) 0.9899(3)
C37 C 0.23642(14) 0.60561(19) 0.9940(3)
H21 H 0.2462 0.6308 1.0689
C38 C 0.54942(14) 0.0660(2) 1.4751(3)
H22 H 0.5259 0.0749 1.5437
C39 C 0.65343(15) -0.0636(2) 1.6160(3)
H23 H 0.6612 -0.0874 1.6934
C40 C 0.62968(11) 0.00624(16) 1.3808(3)
C41 C 0.36398(11) 0.30223(16) 0.5951(3)
C42 C 0.31039(11) 0.30137(16) 0.6279(3)
C43 C 0.27075(11) 0.35985(16) 0.5880(2)
O5 O 0.22534(8) 0.36499(13) 0.65163(19)
O6 O 0.28214(8) 0.40234(13) 0.4995(2)
C44 C 0.01959(11) 0.77331(17) 0.3360(3)
H24 H -0.0148 0.7601 0.3700
C45 C 0.02185(10) 0.83148(15) 0.2492(2)
C46 C -0.03015(11) 0.86467(16) 0.2003(2)
C47 C -0.03389(11) 0.92484(16) 0.1277(3)
C48 C -0.08767(11) 0.94975(17) 0.0685(2)
O7 O -0.12917(7) 0.90536(11) 0.06508(18)
O8 O -0.08975(8) 1.01177(12) 0.0173(2)
H25 H -0.0020(8) 0.9511(13) 0.102(2)
H26 H 0.5092(8) 0.0447(15) 0.896(3)
H27 H 0.3745(12) 0.3396(12) 0.539(2)
H28 H 0.1444(7) 0.6268(14) 0.444(2)
H29 H 0.2955(12) 0.2690(14) 0.686(2)
H30 H -0.0631(8) 0.8392(15) 0.215(3)
H31 H 0.2013(8) 0.7308(16) 0.300(2)
H32 H 0.5796(7) 0.1517(16) 0.792(3)
Cd1A Cd -0.179158(7) 0.967023(12) -0.086916(16)
Cd2A Cd 0.318550(7) 0.505820(12) 0.402060(16)
O2A O 0.76935(7) 0.04628(10) 1.02891(17)
O4A O 0.73224(7) 0.12064(11) 1.17049(18)
O6A O 0.71786(8) -0.09766(13) 1.0005(2)
O7A O 0.12917(7) 0.40536(11) 0.43492(18)
O8A O 0.08975(8) 0.51177(12) 0.4827(2)
O9 O 0.15809(14) 0.25466(17) 0.7493(3)
H33 H 0.1496(13) 0.2567(19) 0.8275(14)
H34 H 0.1821(12) 0.2878(15) 0.734(3)
O10 O 0.36530(12) 0.72983(15) 0.4999(3)
H35 H 0.3521(14) 0.7368(17) 0.4264(16)
H36 H 0.3561(15) 0.6889(11) 0.528(3)
O11 O 0.11278(11) 0.25785(15) 0.5005(3)
H37 H 0.1271(14) 0.2970(12) 0.472(3)
H38 H 0.1232(15) 0.2551(19) 0.5802(14)
O12 O 0.32741(16) 0.74204(18) 0.2465(3)
H39 H 0.3046(13) 0.7075(15) 0.250(3)
H40 H 0.3362(14) 0.7495(18) 0.1695(14)
loop_
_geom_bond_atom_site_label_1
_geom_bond_atom_site_label_2
_geom_bond_site_symmetry_1
_geom_bond_site_symmetry_2
Cd1 O2 1_555 1_555
Cd2 O1 1_555 1_555
O1 C2 1_555 1_555
O2 C1 1_555 1_555
O3 Cd2 1_555 1_555
C1 O4 1_555 1_555
O4 Cd2A 1_555 1_555
N1 Cd1 1_555 1_555
N2 Cd2 1_555 1_555
C2 O3 1_555 1_555
N3 Cd2 1_555 1_555
C3 C4 1_555 1_555
N4 Cd1 1_555 1_555
C4 C8 1_555 1_555
C5 C2 1_555 1_555
C6 N1 1_555 1_555
C7 N2 1_555 1_555
C8 C1 1_555 1_555
C9 C24 1_555 1_555
C10 C13 1_555 1_555
C11 N1 1_555 1_555
H1 C11 1_555 1_555
C12 C26 1_555 1_555
C13 H2 1_555 1_555
C14 C5 1_555 1_555
C15 C3 1_555 1_555
H3 C15 1_555 1_555
C16 N4 1_555 1_555
H4 C16 1_555 1_555
C17 C13 1_555 1_555
H5 C17 1_555 1_555
C18 C3 1_555 1_555
H6 C18 1_555 1_555
C19 C14 1_555 1_555
C20 C15 1_555 1_555
H7 C20 1_555 1_555
C21 H8 1_555 1_555
C22 N2 1_555 1_555
H9 C22 1_555 1_555
C23 H10 1_555 1_555
C24 H11 1_555 1_555
C25 C7 1_555 1_555
C26 H12 1_555 1_555
C27 C10 1_555 1_555
H13 C27 1_555 1_555
C28 C11 1_555 1_555
H14 C28 1_555 1_555
C29 C12 1_555 1_555
H15 C29 1_555 1_555
C30 C19 1_555 1_555
H16 C30 1_555 1_555
C31 C16 1_555 1_555
H17 C31 1_555 1_555
C32 N4 1_555 1_555
C33 C25 1_555 1_555
H18 C33 1_555 1_555
C34 N3 1_555 1_555
H19 C34 1_555 1_555
C35 C22 1_555 1_555
H20 C35 1_555 1_555
C36 C6 1_555 1_555
C37 C28 1_555 1_555
H21 C37 1_555 1_555
C38 C9 1_555 1_555
H22 C38 1_555 1_555
C39 C24 1_555 1_555
H23 C39 1_555 1_555
C40 N3 1_555 1_555
C41 C10 1_555 1_555
C42 C41 1_555 1_555
C43 C42 1_555 1_555
O5 Cd1 1_555 1_555
O6 C43 1_555 1_555
C44 C18 1_555 1_555
H24 C44 1_555 1_555
C45 C20 1_555 1_555
C46 C45 1_555 1_555
C47 C46 1_555 1_555
C48 C47 1_555 1_555
O7 C48 1_555 1_555
O8 C48 1_555 1_555
H25 C47 1_555 1_555
H26 C5 1_555 1_555
H27 C41 1_555 1_555
H28 C8 1_555 1_555
H29 C42 1_555 1_555
H30 C46 1_555 1_555
H31 C4 1_555 1_555
H32 C14 1_555 1_555
O9 H33 1_555 1_555
H34 O9 1_555 1_555
O10 H35 1_555 1_555
H36 O10 1_555 1_555
O11 H37 1_555 1_555
H38 O11 1_555 1_555
O12 H39 1_555 1_555
H40 O12 1_555 1_555
Cd1A O7 1_555 1_555
Cd2A O2 1_555 1_555
O2A Cd2 1_555 1_555
O4A Cd2 1_555 1_555
O6A Cd2 1_555 1_555
O7A Cd1 1_555 1_555
O8A Cd1 1_555 1_555
C6 C32 1_555 1_555
C7 C40 1_555 1_555
C9 C40 1_555 1_555
C12 C32 1_555 1_555
C17 C19 1_555 1_555
C21 C29 1_555 1_555
C21 C36 1_555 1_555
C23 C34 1_555 1_555
C23 C38 1_555 1_555
C25 C39 1_555 1_555
C26 C31 1_555 1_555
C27 C30 1_555 1_555
C33 C35 1_555 1_555
C36 C37 1_555 1_555
C43 O5 1_555 1_555
O6 Cd2A 1_555 1_555
C44 C45 1_555 1_555
O8 Cd1A 1_555 1_555

#END
