
#######################################################################
#
#                 Cambridge Crystallographic Data Centre
#                                CCDC 
#
#######################################################################
#
# If this CIF has been generated from an entry in the Cambridge 
# Structural Database, then it will include bibliographic, chemical, 
# crystal, experimental, refinement or atomic coordinate data resulting 
# from the CCDC's data processing and validation procedures.
#
#######################################################################

data_MATLUP01
_symmetry_cell_setting           monoclinic
_symmetry_space_group_name_H-M   'P 21/n'
_symmetry_Int_Tables_number      14
_space_group_name_Hall           '-P 2yn'
loop_
_symmetry_equiv_pos_site_id
_symmetry_equiv_pos_as_xyz
1 x,y,z
2 1/2-x,1/2+y,1/2-z
3 -x,-y,-z
4 1/2+x,1/2-y,1/2+z
_cell_length_a                   12.550(3)
_cell_length_b                   10.257(2)
_cell_length_c                   18.015(4)
_cell_angle_alpha                90
_cell_angle_beta                 109.09(3)
_cell_angle_gamma                90
_cell_volume                     2191.46
loop_
_atom_site_label
_atom_site_type_symbol
_atom_site_fract_x
_atom_site_fract_y
_atom_site_fract_z
Cd1 Cd -0.162860(15) -0.957980(16) -0.136690(10)
Cd2 Cd -0.329590(14) -0.562420(16) -0.113520(9)
Cd3 Cd -0.347140(14) -0.249970(17) 0.076000(9)
O1 O -0.19227(14) -0.70944(17) -0.13394(11)
O3 O -0.02770(16) -0.80168(18) -0.11098(13)
O4 O -0.15378(14) -0.44323(17) -0.07127(9)
H3 H -0.184(3) -0.363(4) -0.074(2)
O5 O -0.29134(14) -0.46506(18) -0.21904(10)
O6 O -0.15708(15) -0.43994(17) -0.27117(9)
O7 O -0.17019(18) -0.19014(18) -0.12052(14)
O8 O -0.01623(19) -0.10188(19) -0.12881(13)
O9 O -0.2175(3) -0.9348(3) -0.02995(15)
H4 H -0.202(3) -0.994(4) -0.0018(19)
H5 H -0.196(4) -0.864(5) -0.009(2)
O10 O -0.43803(17) -0.7214(2) -0.18987(13)
H6 H -0.415(3) -0.774(4) -0.201(2)
H7 H -0.477(4) -0.752(4) -0.167(2)
O11 O -0.35069(14) -0.35232(18) -0.04404(10)
O12 O -0.48109(16) -0.41500(17) -0.15257(10)
O13 O -0.44239(15) -0.12887(18) -0.03680(9)
H8 H -0.462(3) -0.065(3) -0.0446(19)
O14 O -0.52642(14) -0.33476(17) 0.04049(10)
O15 O -0.71157(14) -0.33840(18) -0.00536(10)
O16 O -0.56436(19) 0.05921(18) -0.11925(10)
O17 O -0.63478(17) 0.04020(16) -0.24879(9)
O18 O -0.2423(2) -0.4376(2) 0.10837(13)
H9 H -0.215(3) -0.462(3) 0.155(2)
H10 H -0.237(4) -0.488(4) 0.082(3)
O19 O -0.19120(16) -0.1268(2) 0.08756(12)
H11 H -0.141(4) -0.159(5) 0.083(3)
H12 H -0.182(4) -0.083(5) 0.125(3)
O20 O -0.2983(2) -0.2684(2) 0.21044(11)
H13 H -0.318(3) -0.324(3) 0.232(2)
H14 H -0.320(3) -0.197(4) 0.232(2)
C1 C -0.0885(2) -0.7008(2) -0.12080(13)
C2 C -0.0290(2) -0.5728(2) -0.11736(13)
H15 H 0.0290 -0.5666 -0.0664
H16 H 0.0089 -0.5749 -0.1564
C3 C -0.09949(19) -0.4481(2) -0.13016(13)
C4 C -0.18958(19) -0.4505(2) -0.21227(13)
C5 C -0.0191(2) -0.3329(2) -0.12096(14)
H17 H 0.0145 -0.3375 -0.1623
H18 H 0.0412 -0.3417 -0.0712
C6 C -0.0722(2) -0.2000(2) -0.12367(14)
C7 C -0.44203(19) -0.3339(2) -0.09828(13)
C8 C -0.50900(18) -0.2089(2) -0.09941(12)
C9 C -0.6216(2) -0.2424(2) -0.08837(13)
H19 H -0.6634 -0.2984 -0.1314
H20 H -0.6644 -0.1624 -0.0927
C10 C -0.6167(2) -0.3090(2) -0.01182(13)
C11 C -0.5282(2) -0.1388(2) -0.17813(12)
H21 H -0.5768 -0.1923 -0.2200
H22 H -0.4564 -0.1304 -0.1871
C12 C -0.5809(2) -0.0040(2) -0.18253(12)
Cd1A Cd -0.337140(15) -0.457980(16) -0.363310(10)
Cd1_2 Cd -0.162860(15) 0.042020(16) -0.136690(10)
Cd2B Cd -0.670410(14) -0.437580(16) 0.113520(9)
Cd3B Cd -0.652860(14) 0.249970(17) -0.076000(9)
O5A O -0.20866(14) -0.96506(18) -0.28096(10)
O6A O -0.34292(15) -0.93994(17) -0.22883(9)
O7_2 O -0.17019(18) -1.19014(18) -0.12052(14)
O8_2 O -0.01623(19) -1.10188(19) -0.12881(13)
O15B O -0.28843(14) -0.66160(18) 0.00536(10)
O16B O -0.43564(19) -0.05921(18) 0.11925(10)
O2 O -0.87522(19) -1.0290(2) -0.21368(14)
H1 H -0.905(3) -0.981(3) -0.251(2)
H2 H -0.906(3) -1.065(4) -0.199(2)
loop_
_geom_bond_atom_site_label_1
_geom_bond_atom_site_label_2
_geom_bond_site_symmetry_1
_geom_bond_site_symmetry_2
Cd1 O1 1_555 1_555
Cd2 O1 1_555 1_555
Cd3 O11 1_555 1_555
O1 C1 1_555 1_555
O2 H1 1_555 1_555
H2 O2 1_555 1_555
O3 Cd1 1_555 1_555
O4 Cd2 1_555 1_555
H3 O4 1_555 1_555
O5 Cd2 1_555 1_555
O6 C4 1_555 1_555
O7 C6 1_555 1_555
O8 C6 1_555 1_555
O9 Cd1 1_555 1_555
H4 O9 1_555 1_555
H5 O9 1_555 1_555
O10 Cd2 1_555 1_555
H6 O10 1_555 1_555
H7 O10 1_555 1_555
O11 Cd2 1_555 1_555
O12 Cd2 1_555 1_555
O13 Cd3 1_555 1_555
H8 O13 1_555 1_555
O14 Cd3 1_555 1_555
O15 C10 1_555 1_555
O16 C12 1_555 1_555
O17 C12 1_555 1_555
O18 Cd3 1_555 1_555
H9 O18 1_555 1_555
H10 O18 1_555 1_555
O19 Cd3 1_555 1_555
H11 O19 1_555 1_555
H12 O19 1_555 1_555
O20 Cd3 1_555 1_555
H13 O20 1_555 1_555
H14 O20 1_555 1_555
C1 O3 1_555 1_555
C2 C1 1_555 1_555
H15 C2 1_555 1_555
H16 C2 1_555 1_555
C3 O4 1_555 1_555
C4 O5 1_555 1_555
C5 C3 1_555 1_555
H17 C5 1_555 1_555
H18 C5 1_555 1_555
C6 C5 1_555 1_555
C7 O11 1_555 1_555
C8 O13 1_555 1_555
C9 C8 1_555 1_555
H19 C9 1_555 1_555
H20 C9 1_555 1_555
C10 O14 1_555 1_555
C11 C8 1_555 1_555
H21 C11 1_555 1_555
H22 C11 1_555 1_555
C12 C11 1_555 1_555
Cd1A O5 1_555 1_555
Cd1_2 O7 1_555 1_555
Cd2B O15 1_555 1_555
Cd3B O16 1_555 1_555
O5A Cd1 1_555 1_555
O6A Cd1 1_555 1_555
O7_2 Cd1 1_555 1_555
O8_2 Cd1 1_555 1_555
O15B Cd2 1_555 1_555
O16B Cd3 1_555 1_555
O6 Cd1A 1_555 1_555
O8 Cd1_2 1_555 1_555
O12 C7 1_555 1_555
C2 C3 1_555 1_555
C3 C4 1_555 1_555
C7 C8 1_555 1_555
C9 C10 1_555 1_555

#END
