
#######################################################################
#
#                 Cambridge Crystallographic Data Centre
#                                CCDC 
#
#######################################################################
#
# If this CIF has been generated from an entry in the Cambridge 
# Structural Database, then it will include bibliographic, chemical, 
# crystal, experimental, refinement or atomic coordinate data resulting 
# from the CCDC's data processing and validation procedures.
#
#######################################################################

data_MATQEE
_symmetry_cell_setting           monoclinic
_symmetry_space_group_name_H-M   'P 21/c'
_symmetry_Int_Tables_number      14
_space_group_name_Hall           '-P 2ybc'
loop_
_symmetry_equiv_pos_site_id
_symmetry_equiv_pos_as_xyz
1 x,y,z
2 -x,1/2+y,1/2-z
3 -x,-y,-z
4 x,1/2-y,1/2+z
_cell_length_a                   10.694(5)
_cell_length_b                   12.253(5)
_cell_length_c                   18.052(5)
_cell_angle_alpha                90
_cell_angle_beta                 92.063(5)
_cell_angle_gamma                90
_cell_volume                     2363.89
loop_
_atom_site_label
_atom_site_type_symbol
_atom_site_fract_x
_atom_site_fract_y
_atom_site_fract_z
C1 C -0.1556(6) 0.1099(5) 0.3282(3)
C2 C -0.2771(6) 0.1308(6) 0.3034(4)
H1 H -0.2921 0.1647 0.2579
C3 C -0.3781(7) 0.1009(8) 0.3471(5)
H2 H -0.4594 0.1198 0.3322
C4 C -0.3560(9) 0.0436(9) 0.4116(6)
H3 H -0.4229 0.0212 0.4394
C5 C -0.2384(9) 0.0198(9) 0.4349(5)
H4 H -0.2239 -0.0177 0.4791
C6 C -0.1371(8) 0.0519(8) 0.3920(4)
H5 H -0.0561 0.0331 0.4076
C7 C 0.1591(5) 0.2248(5) 0.3285(4)
C8 C 0.1998(7) 0.3322(5) 0.3200(4)
H6 H 0.1560 0.3789 0.2879
C9 C 0.3051(8) 0.3696(7) 0.3591(5)
H7 H 0.3344 0.4399 0.3512
C10 C 0.3651(8) 0.3033(9) 0.4087(5)
H8 H 0.4344 0.3291 0.4360
C11 C 0.3248(8) 0.1992(9) 0.4190(5)
H9 H 0.3656 0.1551 0.4541
C12 C 0.2233(7) 0.1581(7) 0.3774(4)
H10 H 0.1992 0.0857 0.3828
C13 C -0.0172(6) 0.1773(5) 0.1516(3)
C14 C 0.0317(10) 0.2624(8) 0.1131(5)
H11 H 0.0720 0.3185 0.1391
C15 C 0.0229(13) 0.2670(10) 0.0370(6)
H12 H 0.0601 0.3246 0.0124
C16 C -0.0396(11) 0.1885(9) -0.0029(5)
H13 H -0.0491 0.1933 -0.0542
C17 C -0.0870(9) 0.1044(7) 0.0340(4)
H14 H -0.1266 0.0482 0.0077
C18 C -0.0782(8) 0.0995(6) 0.1108(4)
H15 H -0.1151 0.0414 0.1350
C19 C 0.1190(5) -0.0683(4) 0.2258(3)
C20 C 0.2273(6) -0.0287(5) 0.1826(3)
C21 C 0.2947(7) -0.0812(6) 0.1308(4)
H16 H 0.2801 -0.1522 0.1145
C22 C 0.4520(6) 0.1633(5) 0.1438(4)
C23 C 0.5457(7) 0.1648(7) 0.0930(5)
H17 H 0.5551 0.1069 0.0604
C24 C 0.6256(8) 0.2539(9) 0.0914(6)
H18 H 0.6877 0.2568 0.0566
C25 C 0.6131(9) 0.3380(9) 0.1411(7)
H19 H 0.6676 0.3970 0.1398
C26 C 0.5239(9) 0.3365(7) 0.1914(6)
H20 H 0.5171 0.3935 0.2250
C27 C 0.4405(7) 0.2476(6) 0.1927(5)
H21 H 0.3776 0.2462 0.2269
N1 N 0.2754(5) 0.0706(4) 0.1945(3)
N2 N 0.3694(5) 0.0743(4) 0.1484(3)
N3 N 0.3844(5) -0.0165(5) 0.1068(4)
O1 O 0.0618(4) -0.0061(3) 0.2660(2)
O2 O 0.0944(4) -0.1667(3) 0.2138(3)
Sn1 Sn -0.00134(4) 0.16673(3) 0.26828(2)
O2A O -0.0944(4) 0.3333(3) 0.2862(3)
Sn1A Sn 0.00134(4) -0.33327(3) 0.23172(2)
loop_
_geom_bond_atom_site_label_1
_geom_bond_atom_site_label_2
_geom_bond_site_symmetry_1
_geom_bond_site_symmetry_2
C1 C2 1_555 1_555
C2 H1 1_555 1_555
C3 C2 1_555 1_555
H2 C3 1_555 1_555
C4 C3 1_555 1_555
H3 C4 1_555 1_555
C5 C4 1_555 1_555
H4 C5 1_555 1_555
C6 C1 1_555 1_555
H5 C6 1_555 1_555
C7 C8 1_555 1_555
C8 H6 1_555 1_555
C9 C8 1_555 1_555
H7 C9 1_555 1_555
C10 C9 1_555 1_555
H8 C10 1_555 1_555
C11 C10 1_555 1_555
H9 C11 1_555 1_555
C12 C7 1_555 1_555
H10 C12 1_555 1_555
C13 C14 1_555 1_555
C14 H11 1_555 1_555
C15 C14 1_555 1_555
H12 C15 1_555 1_555
C16 C15 1_555 1_555
H13 C16 1_555 1_555
C17 C16 1_555 1_555
H14 C17 1_555 1_555
C18 C13 1_555 1_555
H15 C18 1_555 1_555
C19 C20 1_555 1_555
C20 C21 1_555 1_555
C21 H16 1_555 1_555
C22 C23 1_555 1_555
C23 H17 1_555 1_555
C24 C23 1_555 1_555
H18 C24 1_555 1_555
C25 C24 1_555 1_555
H19 C25 1_555 1_555
C26 C25 1_555 1_555
H20 C26 1_555 1_555
C27 C22 1_555 1_555
H21 C27 1_555 1_555
N1 C20 1_555 1_555
N2 C22 1_555 1_555
N3 C21 1_555 1_555
O1 C19 1_555 1_555
O2 C19 1_555 1_555
Sn1 C1 1_555 1_555
O2A Sn1 1_555 1_555
Sn1A O2 1_555 1_555
C5 C6 1_555 1_555
C7 Sn1 1_555 1_555
C11 C12 1_555 1_555
C13 Sn1 1_555 1_555
C17 C18 1_555 1_555
C26 C27 1_555 1_555
N1 N2 1_555 1_555
N2 N3 1_555 1_555
O1 Sn1 1_555 1_555

#END
