
#######################################################################
#
#                 Cambridge Crystallographic Data Centre
#                                CCDC 
#
#######################################################################
#
# If this CIF has been generated from an entry in the Cambridge 
# Structural Database, then it will include bibliographic, chemical, 
# crystal, experimental, refinement or atomic coordinate data resulting 
# from the CCDC's data processing and validation procedures.
#
#######################################################################

data_MATXEK
_symmetry_cell_setting           monoclinic
_symmetry_space_group_name_H-M   'P 21/n'
_symmetry_Int_Tables_number      14
_space_group_name_Hall           '-P 2yn'
loop_
_symmetry_equiv_pos_site_id
_symmetry_equiv_pos_as_xyz
1 x,y,z
2 1/2+x,1/2-y,1/2+z
3 -x,-y,-z
4 1/2-x,1/2+y,1/2-z
_cell_length_a                   8.825(3)
_cell_length_b                   13.928(4)
_cell_length_c                   14.650(4)
_cell_angle_alpha                90
_cell_angle_beta                 96.05(3)
_cell_angle_gamma                90
_cell_volume                     1790.67
loop_
_atom_site_label
_atom_site_type_symbol
_atom_site_fract_x
_atom_site_fract_y
_atom_site_fract_z
Mn1 Mn 0.22511(6) 0.25907(4) -0.05297(3)
N1 N 0.2232(4) 0.4247(2) 0.0496(2)
O1 O 0.1209(4) 0.3619(2) 0.0451(2)
O2 O 0.3321(4) 0.4081(3) 0.0031(2)
O3 O 0.2178(5) 0.4947(3) 0.0973(3)
N2 N 0.3519(4) 0.1848(3) 0.0633(2)
C1 C 0.4126(4) 0.1459(3) 0.1247(2)
N3 N 0.4793(5) 0.0922(3) 0.1895(2)
C2 C 0.5450(4) 0.1307(3) 0.2644(2)
N4 N 0.6045(4) 0.1572(2) 0.3327(2)
N5 N 0.0090(3) 0.1711(2) -0.0309(2)
C3 C -0.0730(5) 0.1836(3) 0.0392(3)
H1 H -0.0431(5) 0.2315(3) 0.0816(3)
C4 C -0.1998(5) 0.1299(4) 0.0526(4)
H2 H -0.2535(5) 0.1406(4) 0.1030(4)
C5 C -0.2439(6) 0.0606(4) -0.0101(4)
H3 H -0.3298(6) 0.0237(4) -0.0036(4)
C6 C -0.1614(5) 0.0456(3) -0.0829(4)
H4 H -0.1902(5) -0.0020(3) -0.1258(4)
C7 C -0.0348(4) 0.1018(3) -0.0920(3)
C8 C 0.0620(4) 0.0905(3) -0.1676(3)
N6 N 0.1968(3) 0.1363(2) -0.1553(2)
C9 C 0.0192(6) 0.0401(3) -0.2469(3)
H5 H -0.0750(6) 0.0095(3) -0.2553(3)
C10 C 0.1179(7) 0.0356(4) -0.3135(3)
H6 H 0.0904(7) 0.0022(4) -0.3677(3)
C11 C 0.2556(6) 0.0800(3) -0.3001(3)
H7 H 0.3237(6) 0.0762(3) -0.3443(3)
C12 C 0.2932(5) 0.1311(3) -0.2197(2)
C13 C 0.4381(4) 0.1855(3) -0.1987(2)
C14 C 0.5629(5) 0.1714(3) -0.2454(3)
H8 H 0.5604(5) 0.1256(3) -0.2917(3)
C15 C 0.6927(6) 0.2257(4) -0.2229(4)
H9 H 0.7783(6) 0.2172(4) -0.2540(4)
C16 C 0.6931(5) 0.2924(3) -0.1540(3)
H10 H 0.7783(5) 0.3305(3) -0.1381(3)
C17 C 0.5653(4) 0.3018(3) -0.1089(3)
H11 H 0.5671(4) 0.3462(3) -0.0613(3)
N7 N 0.4378(4) 0.2502(2) -0.1298(2)
N4A N 0.1045(4) 0.3428(2) -0.1673(2)
Mn1A Mn 0.72511(6) 0.24093(4) 0.44703(3)
loop_
_geom_bond_atom_site_label_1
_geom_bond_atom_site_label_2
_geom_bond_site_symmetry_1
_geom_bond_site_symmetry_2
Mn1 O1 1_555 1_555
N1 O1 1_555 1_555
O2 Mn1 1_555 1_555
O3 N1 1_555 1_555
N2 Mn1 1_555 1_555
C1 N2 1_555 1_555
N3 C1 1_555 1_555
C2 N3 1_555 1_555
N4 C2 1_555 1_555
N5 Mn1 1_555 1_555
C3 N5 1_555 1_555
H1 C3 1_555 1_555
C4 C3 1_555 1_555
H2 C4 1_555 1_555
C5 C4 1_555 1_555
H3 C5 1_555 1_555
C6 C5 1_555 1_555
H4 C6 1_555 1_555
C7 N5 1_555 1_555
C8 C7 1_555 1_555
N6 Mn1 1_555 1_555
C9 C8 1_555 1_555
H5 C9 1_555 1_555
C10 C9 1_555 1_555
H6 C10 1_555 1_555
C11 C10 1_555 1_555
H7 C11 1_555 1_555
C12 N6 1_555 1_555
C13 C12 1_555 1_555
C14 C13 1_555 1_555
H8 C14 1_555 1_555
C15 C14 1_555 1_555
H9 C15 1_555 1_555
C16 C15 1_555 1_555
H10 C16 1_555 1_555
C17 C16 1_555 1_555
H11 C17 1_555 1_555
N7 Mn1 1_555 1_555
N4A Mn1 1_555 1_555
Mn1A N4 1_555 1_555
N1 O2 1_555 1_555
C6 C7 1_555 1_555
C8 N6 1_555 1_555
C11 C12 1_555 1_555
C13 N7 1_555 1_555
C17 N7 1_555 1_555

#END
