
#######################################################################
#
#                 Cambridge Crystallographic Data Centre
#                                CCDC 
#
#######################################################################
#
# If this CIF has been generated from an entry in the Cambridge 
# Structural Database, then it will include bibliographic, chemical, 
# crystal, experimental, refinement or atomic coordinate data resulting 
# from the CCDC's data processing and validation procedures.
#
#######################################################################

data_MATYOX
_symmetry_cell_setting           monoclinic
_symmetry_space_group_name_H-M   'P 21/n'
_symmetry_Int_Tables_number      14
_space_group_name_Hall           '-P 2yn'
loop_
_symmetry_equiv_pos_site_id
_symmetry_equiv_pos_as_xyz
1 x,y,z
2 1/2-x,1/2+y,1/2-z
3 -x,-y,-z
4 1/2+x,1/2-y,1/2+z
_cell_length_a                   8.9411(18)
_cell_length_b                   21.552(4)
_cell_length_c                   12.625(3)
_cell_angle_alpha                90
_cell_angle_beta                 93.50(3)
_cell_angle_gamma                90
_cell_volume                     2428.28
loop_
_atom_site_label
_atom_site_type_symbol
_atom_site_fract_x
_atom_site_fract_y
_atom_site_fract_z
C1 C 0.0452(4) 1.01523(13) 0.8223(2)
Zn1 Zn 0.39585(4) 0.672600(15) 0.40386(2)
O1 O 0.6163(3) 0.70145(10) 0.42523(15)
N1 N 0.2916(3) 0.74177(11) 0.48632(18)
N2 N 0.0735(3) 1.10268(11) 0.98562(19)
N3 N 0.3331(3) 0.78137(12) 0.11571(19)
H1 H 0.2641 0.7883 0.0666
N4 N -0.0521(3) 0.91648(12) 0.5948(2)
N5 N 0.4187(3) 0.72150(11) 0.26297(18)
C2 C 0.1580(4) 0.84334(13) 0.5817(2)
C3 C 0.5447(4) 0.75730(13) 0.2681(2)
N6 N 0.1380(3) 0.92768(11) 0.71488(19)
C4 C 0.4566(4) 0.82036(15) 0.1206(2)
O2 O 0.4615(3) 0.86413(12) 0.05669(18)
C5 C 0.3030(4) 0.82459(14) 0.6131(2)
H2 H 0.3573 0.8458 0.6669
C6 C 0.3661(4) 0.77462(15) 0.5645(2)
H3 H 0.4634 0.7630 0.5861
C7 C 0.6590(4) 0.74026(14) 0.3593(2)
C8 C 0.0849(4) 0.89582(13) 0.6301(2)
C9 C -0.0896(4) 0.96466(14) 0.6588(2)
C10 C 0.1518(4) 0.75885(14) 0.4574(2)
H4 H 0.0994 0.7364 0.4043
C11 C 0.0810(4) 0.80834(14) 0.5027(2)
H5 H -0.0172 0.8183 0.4807
C12 C -0.3679(4) 0.96391(16) 0.6285(2)
H6 H -0.3670 0.9209 0.6218
C13 C -0.2335(4) 0.99676(14) 0.6436(2)
C14 C 0.1842(4) 1.03936(14) 0.8559(2)
H7 H 0.2701 1.0269 0.8237
C15 C 0.5691(4) 0.80523(15) 0.2020(2)
H8 H 0.6576 0.8279 0.2093
C16 C -0.0789(4) 1.03489(14) 0.8753(2)
H9 H -0.1732 1.0185 0.8572
C17 C -0.0611(4) 1.07879(14) 0.9549(2)
H10 H -0.1451 1.0923 0.9883
C18 C 0.0291(4) 0.97069(13) 0.7333(2)
N7 N -0.5107(4) 1.05841(15) 0.6288(2)
C19 C -0.3804(5) 1.08926(17) 0.6385(3)
H11 H -0.3840 1.1324 0.6396
C20 C -0.2416(4) 1.06131(15) 0.6469(2)
H12 H -0.1549 1.0851 0.6546
C21 C 0.1934(4) 1.08208(14) 0.9375(2)
H13 H 0.2873 1.0973 0.9603
C22 C 0.3123(4) 0.73214(15) 0.1838(2)
C23 C -0.5014(4) 0.99580(17) 0.6238(3)
H14 H -0.5899 0.9731 0.6167
O3 O 0.1962(3) 0.70066(12) 0.16939(19)
O4 O 0.2138(3) 0.62592(13) 0.3293(2)
O5 O 0.7818(3) 0.76636(11) 0.36273(17)
H19 H 0.244(11) 0.656(4) 0.275(7)
H20 H 0.146(11) 0.609(5) 0.349(7)
H21 H -0.135(6) 0.911(2) 0.544(4)
Zn1A Zn 0.10415(4) 1.172600(15) 1.09614(2)
N2A N 0.4265(3) 0.60268(11) 0.51438(19)
O6 O 0.7008(3) 0.39472(13) 0.0982(2)
H15 H 0.813(4) 0.4146(16) 0.118(2)
H16 H 0.736(8) 0.343(3) 0.095(5)
O7 O 0.0929(3) 0.40538(13) 0.64694(19)
O8 O -0.0777(8) 0.5047(4) 0.6018(7)
H17 H -0.023(13) 0.531(5) 0.571(11)
H18 H -0.001(18) 0.469(3) 0.632(12)
loop_
_geom_bond_atom_site_label_1
_geom_bond_atom_site_label_2
_geom_bond_site_symmetry_1
_geom_bond_site_symmetry_2
C1 C14 1_555 1_555
Zn1 O1 1_555 1_555
O1 C7 1_555 1_555
N1 Zn1 1_555 1_555
N2 C17 1_555 1_555
N3 H1 1_555 1_555
N4 C8 1_555 1_555
N5 Zn1 1_555 1_555
C2 C5 1_555 1_555
C3 N5 1_555 1_555
N6 C8 1_555 1_555
C4 N3 1_555 1_555
O2 C4 1_555 1_555
C5 H2 1_555 1_555
C6 N1 1_555 1_555
H3 C6 1_555 1_555
C7 C3 1_555 1_555
C8 C2 1_555 1_555
C9 N4 1_555 1_555
C10 N1 1_555 1_555
H4 C10 1_555 1_555
C11 C2 1_555 1_555
H5 C11 1_555 1_555
C12 H6 1_555 1_555
C13 C9 1_555 1_555
C14 H7 1_555 1_555
C15 C3 1_555 1_555
H8 C15 1_555 1_555
C16 C1 1_555 1_555
H9 C16 1_555 1_555
C17 C16 1_555 1_555
H10 C17 1_555 1_555
C18 C1 1_555 1_555
N7 C19 1_555 1_555
C19 H11 1_555 1_555
C20 C13 1_555 1_555
H12 C20 1_555 1_555
C21 N2 1_555 1_555
H13 C21 1_555 1_555
C22 N3 1_555 1_555
C23 C12 1_555 1_555
H14 C23 1_555 1_555
O3 C22 1_555 1_555
O4 Zn1 1_555 1_555
O5 C7 1_555 1_555
O6 H15 1_555 1_555
O8 H17 1_555 1_555
H16 O6 1_555 1_555
H18 O8 1_555 1_555
H19 O4 1_555 1_555
H20 O4 1_555 1_555
H21 N4 1_555 1_555
Zn1A N2 1_555 1_555
N2A Zn1 1_555 1_555
N5 C22 1_555 1_555
N6 C18 1_555 1_555
C4 C15 1_555 1_555
C5 C6 1_555 1_555
C9 C18 1_555 1_555
C10 C11 1_555 1_555
C12 C13 1_555 1_555
C14 C21 1_555 1_555
N7 C23 1_555 1_555
C19 C20 1_555 1_555

#END
