
#######################################################################
#
#                 Cambridge Crystallographic Data Centre
#                                CCDC 
#
#######################################################################
#
# If this CIF has been generated from an entry in the Cambridge 
# Structural Database, then it will include bibliographic, chemical, 
# crystal, experimental, refinement or atomic coordinate data resulting 
# from the CCDC's data processing and validation procedures.
#
#######################################################################

data_MAVCOD
_symmetry_cell_setting           monoclinic
_symmetry_space_group_name_H-M   'P 21/c'
_symmetry_Int_Tables_number      14
_space_group_name_Hall           '-P 2ybc'
loop_
_symmetry_equiv_pos_site_id
_symmetry_equiv_pos_as_xyz
1 x,y,z
2 -x,1/2+y,1/2-z
3 -x,-y,-z
4 x,1/2-y,1/2+z
_cell_length_a                   11.2730(6)
_cell_length_b                   6.4510(3)
_cell_length_c                   9.6850(5)
_cell_angle_alpha                90
_cell_angle_beta                 90.925(4)
_cell_angle_gamma                90
_cell_volume                     704.222
loop_
_atom_site_label
_atom_site_type_symbol
_atom_site_fract_x
_atom_site_fract_y
_atom_site_fract_z
Cu1 Cu 0.0000 0.5000 0.0000
O1 O -0.1071(3) 0.0790(5) -0.2699(3)
N1 N 0.2544(3) 0.0770(5) -0.0619(3)
O2 O -0.0842(2) 0.2663(4) -0.0846(3)
N2 N 0.0702(3) 0.0800(5) -0.1766(3)
N3 N 0.3120(3) 0.1823(5) 0.0410(3)
N4 N -0.0398(3) 0.1445(5) -0.1765(3)
C1 C 0.3127(4) -0.0822(6) -0.1443(4)
H1 H 0.3766 -0.0177 -0.1985
H2 H 0.2544 -0.1437 -0.2099
C2 C 0.1441(3) 0.1556(6) -0.0761(4)
C3 C 0.3649(4) -0.2514(6) -0.0535(4)
H3 H 0.3039 -0.3069 0.0089
H4 H 0.4315 -0.1962 0.0033
N5 N 0.1334(3) 0.3070(5) 0.0159(3)
N6 N 0.2404(3) 0.3189(6) 0.0871(4)
Cl1 Cl 0.41637(9) -0.45060(16) -0.16565(11)
Cu1A Cu 0.0000 0.0000 -0.5000
Cu1A_2 Cu 0.0000 1.0000 0.5000
O1C O -0.1071(3) 0.4210(5) 0.2301(3)
O1A O 0.1071(3) 0.5790(5) -0.2301(3)
O1B O 0.1071(3) 0.9210(5) 0.2699(3)
N1B N -0.2544(3) 0.9230(5) 0.0619(3)
O2B O 0.0842(2) 0.7337(4) 0.0846(3)
N2B N -0.0702(3) 0.9200(5) 0.1766(3)
N3B N -0.3120(3) 0.8177(5) -0.0410(3)
N4B N 0.0398(3) 0.8555(5) 0.1765(3)
C1B C -0.3127(4) 1.0822(6) 0.1443(4)
H1B H -0.3766 1.0177 0.1985
H2B H -0.2544 1.1437 0.2099
C2B C -0.1441(3) 0.8444(6) 0.0761(4)
C3B C -0.3649(4) 1.2514(6) 0.0535(4)
H3B H -0.3039 1.3069 -0.0089
H4B H -0.4315 1.1962 -0.0033
N5B N -0.1334(3) 0.6930(5) -0.0159(3)
N6B N -0.2404(3) 0.6811(6) -0.0871(4)
Cl1B Cl -0.41637(9) 1.45060(16) 0.16565(11)
loop_
_geom_bond_atom_site_label_1
_geom_bond_atom_site_label_2
_geom_bond_site_symmetry_1
_geom_bond_site_symmetry_2
Cu1 O2 1_555 1_555
O1 N4 1_555 1_555
N1 N3 1_555 1_555
O2 N4 1_555 1_555
N2 N4 1_555 1_555
N3 N6 1_555 1_555
C1 N1 1_555 1_555
H1 C1 1_555 1_555
H2 C1 1_555 1_555
C2 N1 1_555 1_555
C3 C1 1_555 1_555
H3 C3 1_555 1_555
H4 C3 1_555 1_555
N5 Cu1 1_555 1_555
N6 N5 1_555 1_555
Cl1 C3 1_555 1_555
Cu1A O1 1_555 1_555
Cu1A_2 O1B 1_555 1_555
O1C Cu1 1_555 1_555
O1A Cu1 1_555 1_555
O1B N4B 1_555 1_555
N1B N3B 1_555 1_555
O2B Cu1 1_555 1_555
N2B N4B 1_555 1_555
N3B N6B 1_555 1_555
N4B O2B 1_555 1_555
C1B N1B 1_555 1_555
H1B C1B 1_555 1_555
H2B C1B 1_555 1_555
C2B N1B 1_555 1_555
C3B C1B 1_555 1_555
H3B C3B 1_555 1_555
H4B C3B 1_555 1_555
N5B Cu1 1_555 1_555
N6B N5B 1_555 1_555
Cl1B C3B 1_555 1_555
N2 C2 1_555 1_555
C2 N5 1_555 1_555
N2B C2B 1_555 1_555
C2B N5B 1_555 1_555

#END
