
#######################################################################
#
#                 Cambridge Crystallographic Data Centre
#                                CCDC 
#
#######################################################################
#
# If this CIF has been generated from an entry in the Cambridge 
# Structural Database, then it will include bibliographic, chemical, 
# crystal, experimental, refinement or atomic coordinate data resulting 
# from the CCDC's data processing and validation procedures.
#
#######################################################################

data_MAVHEY
_symmetry_cell_setting           monoclinic
_symmetry_space_group_name_H-M   'P 21/c'
_symmetry_Int_Tables_number      14
_space_group_name_Hall           '-P 2ybc'
loop_
_symmetry_equiv_pos_site_id
_symmetry_equiv_pos_as_xyz
1 x,y,z
2 -x,1/2+y,1/2-z
3 -x,-y,-z
4 x,1/2-y,1/2+z
_cell_length_a                   7.6055(19)
_cell_length_b                   25.860(6)
_cell_length_c                   10.075(3)
_cell_angle_alpha                90
_cell_angle_beta                 96.585(3)
_cell_angle_gamma                90
_cell_volume                     1968.46
loop_
_atom_site_label
_atom_site_type_symbol
_atom_site_fract_x
_atom_site_fract_y
_atom_site_fract_z
Cu1 Cu 1.03705(5) 0.946028(14) 0.18599(3)
N1 N 0.8197(4) 0.90413(10) 0.1405(3)
N2 N 0.6452(4) 0.84078(12) 0.0634(4)
N3 N 0.6277(4) 0.55919(11) 0.1542(3)
N4 N 0.7651(4) 0.49455(10) 0.2630(3)
O1 O 1.0051(3) 0.93903(8) 0.3844(2)
O2 O 1.1641(3) 0.87135(9) 0.3330(2)
O3 O 1.1333(3) 0.98376(8) 0.8781(2)
O4 O 1.1283(3) 0.91797(9) 1.0222(2)
Br1 Br 1.15189(5) 0.738433(13) 0.75244(3)
C1 C 1.1048(4) 0.87989(12) 0.5573(3)
C2 C 1.1076(4) 0.91511(12) 0.6618(3)
H1 H 1.0977 0.9503 0.6434
C3 C 1.1253(4) 0.89802(12) 0.7941(3)
C4 C 1.1383(4) 0.84533(12) 0.8210(3)
H2 H 1.1488 0.8335 0.9087
C5 C 1.1356(4) 0.81077(12) 0.7163(3)
C6 C 1.1199(4) 0.82712(12) 0.5845(3)
H3 H 1.1195 0.8033 0.5154
C7 C 1.0902(4) 0.89723(12) 0.4133(3)
C8 C 1.1284(4) 0.93730(12) 0.9065(3)
C9 C 0.6531(5) 0.91289(14) 0.1730(4)
H4 H 0.6196 0.9416 0.2198
C10 C 0.5448(5) 0.87440(16) 0.1279(5)
H5 H 0.4253 0.8711 0.1383
C11 C 0.8088(5) 0.86028(14) 0.0745(4)
H6 H 0.9037 0.8447 0.0396
C12 C 0.5914(7) 0.79223(16) -0.0045(6)
H7 H 0.4661 0.7938 -0.0359
H8 H 0.6554 0.7881 -0.0817
C13 C 0.6250(7) 0.74789(18) 0.0825(5)
H9 H 0.5474 0.7496 0.1523
H10 H 0.7460 0.7496 0.1249
C14 C 0.5964(6) 0.69514(15) 0.0084(5)
H11 H 0.4778 0.6935 -0.0385
H12 H 0.6804 0.6915 -0.0565
C15 C 0.6223(6) 0.65258(14) 0.1097(4)
H13 H 0.7428 0.6540 0.1531
H14 H 0.5437 0.6584 0.1775
C16 C 0.5879(5) 0.59906(13) 0.0515(4)
H15 H 0.4649 0.5963 0.0142
H16 H 0.6609 0.5936 -0.0202
C17 C 0.5751(5) 0.55804(16) 0.2809(4)
H17 H 0.4956 0.5805 0.3146
C18 C 0.6596(5) 0.51872(14) 0.3460(4)
H18 H 0.6487 0.5092 0.4336
C19 C 0.7423(5) 0.52037(13) 0.1485(3)
H19 H 0.7989 0.5125 0.0740
Cu1A Cu 0.96295(5) 0.446028(14) 0.31401(3)
Cu1B Cu 0.96295(5) 1.053972(14) 0.81401(3)
Cu1_2 Cu 1.03705(5) 0.946028(14) 1.18599(3)
N4A N 1.2349(4) 0.99455(10) 0.2370(3)
O3B O 0.8667(3) 1.01624(8) 0.1219(2)
O4_2 O 1.1283(3) 0.91797(9) 0.0222(2)
loop_
_geom_bond_atom_site_label_1
_geom_bond_atom_site_label_2
_geom_bond_site_symmetry_1
_geom_bond_site_symmetry_2
Cu1 N1 1_555 1_555
N1 C9 1_555 1_555
N2 C10 1_555 1_555
N3 C16 1_555 1_555
N4 C18 1_555 1_555
O1 Cu1 1_555 1_555
O2 Cu1 1_555 1_555
O3 C8 1_555 1_555
O4 C8 1_555 1_555
Br1 C5 1_555 1_555
C1 C2 1_555 1_555
C2 H1 1_555 1_555
C3 C2 1_555 1_555
C4 C3 1_555 1_555
H2 C4 1_555 1_555
C5 C4 1_555 1_555
C6 C1 1_555 1_555
H3 C6 1_555 1_555
C7 O1 1_555 1_555
C8 C3 1_555 1_555
C9 H4 1_555 1_555
C10 C9 1_555 1_555
H5 C10 1_555 1_555
C11 N1 1_555 1_555
H6 C11 1_555 1_555
C12 N2 1_555 1_555
H7 C12 1_555 1_555
H8 C12 1_555 1_555
C13 C12 1_555 1_555
H9 C13 1_555 1_555
H10 C13 1_555 1_555
C14 C13 1_555 1_555
H11 C14 1_555 1_555
H12 C14 1_555 1_555
C15 C14 1_555 1_555
H13 C15 1_555 1_555
H14 C15 1_555 1_555
C16 C15 1_555 1_555
H15 C16 1_555 1_555
H16 C16 1_555 1_555
C17 N3 1_555 1_555
H17 C17 1_555 1_555
C18 C17 1_555 1_555
H18 C18 1_555 1_555
C19 N3 1_555 1_555
H19 C19 1_555 1_555
Cu1A N4 1_555 1_555
Cu1B O3 1_555 1_555
Cu1_2 O4 1_555 1_555
N4A Cu1 1_555 1_555
O3B Cu1 1_555 1_555
O4_2 Cu1 1_555 1_555
N2 C11 1_555 1_555
N4 C19 1_555 1_555
O2 C7 1_555 1_555
C1 C7 1_555 1_555
C5 C6 1_555 1_555

#END
