
#######################################################################
#
#                 Cambridge Crystallographic Data Centre
#                                CCDC 
#
#######################################################################
#
# If this CIF has been generated from an entry in the Cambridge 
# Structural Database, then it will include bibliographic, chemical, 
# crystal, experimental, refinement or atomic coordinate data resulting 
# from the CCDC's data processing and validation procedures.
#
#######################################################################

data_MAVNII
_symmetry_cell_setting           monoclinic
_symmetry_space_group_name_H-M   'P c'
_symmetry_Int_Tables_number      7
_space_group_name_Hall           'P -2yc'
loop_
_symmetry_equiv_pos_site_id
_symmetry_equiv_pos_as_xyz
1 x,y,z
2 x,-y,1/2+z
_cell_length_a                   17.805(12)
_cell_length_b                   11.669(8)
_cell_length_c                   14.658(10)
_cell_angle_alpha                90
_cell_angle_beta                 94.277(10)
_cell_angle_gamma                90
_cell_volume                     3036.96
loop_
_atom_site_label
_atom_site_type_symbol
_atom_site_fract_x
_atom_site_fract_y
_atom_site_fract_z
Ca1 Ca 0.13559(7) 0.61659(5) 0.43142(7)
Ca2 Ca 0.15831(7) 0.11868(5) 0.31515(7)
N1 N -0.3020(2) 0.4188(3) 0.2720(2)
N2 N 0.5945(2) 0.3255(3) 0.4694(2)
N3 N -0.2992(2) 0.9248(3) 0.2704(2)
N4 N 0.5964(2) 0.8279(3) 0.4693(2)
O1 O 0.06347(17) 0.4465(2) 0.3840(2)
O2 O 0.05335(18) 0.2472(2) 0.3281(2)
O3 O 0.0638(2) 0.4059(3) 0.2200(2)
O4 O -0.41625(17) 0.5528(2) 0.3040(2)
H1 H -0.3724 0.5308 0.3068
O5 O -0.66328(16) 0.4317(3) 0.1854(2)
H2 H -0.6743 0.4938 0.2071
O6 O 0.22837(18) 0.2947(2) 0.3505(2)
O7 O 0.23953(19) 0.4946(2) 0.4043(3)
O8 O 0.2310(2) 0.3371(3) 0.5148(2)
O9 O 0.71469(18) 0.1958(2) 0.4480(2)
H3 H 0.6700 0.2135 0.4446
O10 O 0.9561(2) 0.3541(3) 0.5541(3)
H4 H 0.9705 0.2927 0.5344
O11 O 0.05066(18) 0.7759(2) 0.3941(2)
O12 O 0.06747(19) 0.9788(3) 0.3566(3)
O13 O 0.06391(19) 0.8333(3) 0.2345(2)
O14 O -0.41923(19) 1.0514(2) 0.2959(2)
H5 H -0.3745 1.0345 0.2972
O15 O -0.6608(2) 0.8972(3) 0.1956(3)
H6 H -0.6799 0.8332 0.1963
O16 O 0.22850(18) 0.7599(2) 0.4055(2)
O17 O 0.24132(18) 0.9626(3) 0.3644(2)
O18 O 0.2330(2) 0.9096(3) 0.5247(2)
O19 O 0.71235(17) 0.6985(2) 0.4324(2)
H7 H 0.6683 0.7192 0.4303
O20 O 0.95787(15) 0.8185(3) 0.5561(2)
H8 H 0.9690 0.7586 0.5312
O21 O 0.1348(2) 0.6236(2) 0.2608(3)
H9 H 0.1085 0.5645 0.2465
H10 H 0.1077 0.6828 0.2501
O22 O 0.02828(19) 0.5836(3) 0.5307(2)
H11 H 0.0421 0.5973 0.5864
H12 H 0.0062 0.5190 0.5281
O23 O 0.1901(2) 0.6323(3) 0.5915(3)
H13 H 0.1556 0.6215 0.6276
H14 H 0.2320 0.6135 0.6190
O24 O 0.1590(2) 0.1274(2) 0.4850(3)
H15 H 0.1856 0.1867 0.4969
H16 H 0.1854 0.0685 0.4992
O25 O 0.1026(3) 0.1160(3) 0.1553(3)
H17 H 0.1369 0.1098 0.1184
H18 H 0.0618 0.1348 0.1250
O26 O 0.2650(2) 0.1115(3) 0.2178(3)
H19 H 0.2506 0.1192 0.1615
H20 H 0.2890 0.0487 0.2239
S1 S 0.03667(7) 0.36872(8) 0.30928(8)
S2 S 0.25660(8) 0.37303(8) 0.42448(9)
S3 S 0.03764(7) 0.86760(8) 0.32395(8)
S4 S 0.25787(8) 0.87363(7) 0.43475(8)
C1 C -0.0638(3) 0.3804(3) 0.2993(3)
C2 C -0.0987(2) 0.4819(3) 0.3269(3)
H25 H -0.0699 0.5426 0.3511
C3 C -0.1774(2) 0.4899(3) 0.3174(3)
H26 H -0.2005 0.5565 0.3361
C4 C -0.2221(3) 0.4003(4) 0.2805(3)
C5 C -0.1861(2) 0.2981(3) 0.2523(3)
H27 H -0.2149 0.2378 0.2273
C6 C -0.1080(2) 0.2888(3) 0.2621(3)
H28 H -0.0848 0.2219 0.2442
C7 C -0.3498(3) 0.3463(4) 0.2330(3)
H29 H -0.3319 0.2773 0.2114
C8 C -0.4296(4) 0.3691(3) 0.2220(4)
C9 C -0.4613(2) 0.4734(3) 0.2576(3)
C10 C -0.5390(2) 0.4947(3) 0.2453(3)
H30 H -0.5588 0.5622 0.2673
C11 C -0.5866(2) 0.4142(4) 0.1999(3)
C12 C -0.5574(3) 0.3112(4) 0.1658(3)
H31 H -0.5893 0.2580 0.1357
C13 C -0.4807(3) 0.2910(3) 0.1778(3)
H32 H -0.4620 0.2228 0.1557
C14 C 0.3569(3) 0.3620(3) 0.4337(3)
C15 C 0.3986(2) 0.4493(3) 0.4804(3)
H33 H 0.3740 0.5125 0.5028
C16 C 0.4770(2) 0.4408(3) 0.4931(3)
H34 H 0.5047 0.4985 0.5238
C17 C 0.5140(2) 0.3449(4) 0.4594(3)
C18 C 0.4715(2) 0.2572(3) 0.4129(3)
H35 H 0.4960 0.1935 0.3912
C19 C 0.3930(2) 0.2655(3) 0.3993(3)
H36 H 0.3653 0.2084 0.3681
C20 C 0.6394(3) 0.4026(4) 0.5049(3)
H37 H 0.6193 0.4721 0.5226
C21 C 0.7217(4) 0.3847(3) 0.5185(4)
C22 C 0.7563(2) 0.2822(3) 0.4900(3)
C23 C 0.8346(3) 0.2696(3) 0.5024(3)
H38 H 0.8572 0.2026 0.4837
C24 C 0.8792(3) 0.3590(4) 0.5435(4)
C25 C 0.8448(3) 0.4605(3) 0.5735(3)
H39 H 0.8740 0.5184 0.6016
C26 C 0.7674(3) 0.4724(3) 0.5605(3)
H40 H 0.7449 0.5392 0.5797
C27 C -0.0618(4) 0.8849(3) 0.3064(4)
C28 C -0.0979(2) 0.9792(3) 0.3453(3)
H41 H -0.0701 1.0339 0.3794
C29 C -0.1767(2) 0.9885(3) 0.3314(3)
H42 H -0.2008 1.0509 0.3559
C30 C -0.2197(3) 0.9063(4) 0.2817(3)
C31 C -0.1821(2) 0.8116(3) 0.2433(3)
H43 H -0.2097 0.7566 0.2093
C32 C -0.1042(2) 0.8016(3) 0.2569(3)
H44 H -0.0800 0.7391 0.2328
C33 C -0.3449(3) 0.8476(4) 0.2331(3)
H45 H -0.3248 0.7786 0.2143
C34 C -0.4247(4) 0.8646(4) 0.2198(4)
C35 C -0.4613(2) 0.9664(3) 0.2528(3)
C36 C -0.5398(3) 0.9762(3) 0.2427(3)
H46 H -0.5632 1.0420 0.2625
C37 C -0.5830(3) 0.8868(4) 0.2026(4)
C38 C -0.5494(3) 0.7890(4) 0.1671(3)
H47 H -0.5786 0.7322 0.1376
C39 C -0.4719(2) 0.7794(3) 0.1772(3)
H48 H -0.4496 0.7140 0.1550
C40 C 0.3579(3) 0.8608(4) 0.4466(3)
C41 C 0.4007(2) 0.9507(3) 0.4878(3)
H49 H 0.3765 1.0147 0.5096
C42 C 0.4794(2) 0.9448(3) 0.4964(3)
H50 H 0.5074 1.0046 0.5235
C43 C 0.5160(2) 0.8470(4) 0.4633(3)
C44 C 0.4726(2) 0.7574(3) 0.4215(3)
H51 H 0.4967 0.6936 0.3993
C45 C 0.3938(2) 0.7632(3) 0.4131(3)
H52 H 0.3656 0.7036 0.3859
C46 C 0.6431(3) 0.8992(4) 0.5104(3)
H53 H 0.6248 0.9663 0.5349
C47 C 0.7250(4) 0.8765(3) 0.5194(4)
C48 C 0.7562(2) 0.7758(3) 0.4817(3)
C49 C 0.8340(2) 0.7559(3) 0.4935(3)
H54 H 0.8546 0.6907 0.4689
C50 C 0.8810(2) 0.8357(4) 0.5431(3)
C51 C 0.8515(2) 0.9357(3) 0.5807(3)
H55 H 0.8829 0.9876 0.6131
C52 C 0.7741(2) 0.9549(3) 0.5683(3)
H56 H 0.7541 1.0208 0.5926
Ca2_2 Ca 0.15831(7) 1.11868(5) 0.31515(7)
O12_2 O 0.06747(19) -0.0212(3) 0.3566(3)
O17_2 O 0.24132(18) -0.0374(3) 0.3644(2)
O27 O 0.2831(2) 0.6586(4) 0.2009(3)
H21 H 0.2420 0.6481 0.2257
H22 H 0.2732 0.6610 0.1432
O28 O 0.0071(3) 0.8622(3) 0.0434(3)
H23 H 0.0169 0.8537 0.1007
H24 H 0.0486 0.8668 0.0185
loop_
_geom_bond_atom_site_label_1
_geom_bond_atom_site_label_2
_geom_bond_site_symmetry_1
_geom_bond_site_symmetry_2
Ca1 O1 1_555 1_555
Ca2 O2 1_555 1_555
N1 C4 1_555 1_555
N2 C17 1_555 1_555
N3 C30 1_555 1_555
N4 C43 1_555 1_555
O1 S1 1_555 1_555
O2 S1 1_555 1_555
O3 S1 1_555 1_555
O4 H1 1_555 1_555
O5 H2 1_555 1_555
O6 Ca2 1_555 1_555
O7 Ca1 1_555 1_555
O8 S2 1_555 1_555
O9 H3 1_555 1_555
O10 H4 1_555 1_555
O11 Ca1 1_555 1_555
O12 S3 1_555 1_555
O13 S3 1_555 1_555
O14 H5 1_555 1_555
O15 H6 1_555 1_555
O16 Ca1 1_555 1_555
O17 S4 1_555 1_555
O18 S4 1_555 1_555
O19 H7 1_555 1_555
O20 H8 1_555 1_555
O21 Ca1 1_555 1_555
H9 O21 1_555 1_555
H10 O21 1_555 1_555
O22 Ca1 1_555 1_555
H11 O22 1_555 1_555
H12 O22 1_555 1_555
O23 Ca1 1_555 1_555
H13 O23 1_555 1_555
H14 O23 1_555 1_555
O24 Ca2 1_555 1_555
H15 O24 1_555 1_555
H16 O24 1_555 1_555
O25 Ca2 1_555 1_555
H17 O25 1_555 1_555
H18 O25 1_555 1_555
O26 Ca2 1_555 1_555
H19 O26 1_555 1_555
H20 O26 1_555 1_555
O27 H21 1_555 1_555
H22 O27 1_555 1_555
O28 H23 1_555 1_555
H24 O28 1_555 1_555
S1 C1 1_555 1_555
S2 O6 1_555 1_555
S3 O11 1_555 1_555
S4 O16 1_555 1_555
C1 C2 1_555 1_555
C2 H25 1_555 1_555
C3 C2 1_555 1_555
H26 C3 1_555 1_555
C4 C3 1_555 1_555
C5 C4 1_555 1_555
H27 C5 1_555 1_555
C6 C1 1_555 1_555
H28 C6 1_555 1_555
C7 N1 1_555 1_555
H29 C7 1_555 1_555
C8 C7 1_555 1_555
C9 O4 1_555 1_555
C10 C9 1_555 1_555
H30 C10 1_555 1_555
C11 O5 1_555 1_555
C12 C11 1_555 1_555
H31 C12 1_555 1_555
C13 C8 1_555 1_555
H32 C13 1_555 1_555
C14 S2 1_555 1_555
C15 C14 1_555 1_555
H33 C15 1_555 1_555
C16 C15 1_555 1_555
H34 C16 1_555 1_555
C17 C16 1_555 1_555
C18 C17 1_555 1_555
H35 C18 1_555 1_555
C19 C14 1_555 1_555
H36 C19 1_555 1_555
C20 N2 1_555 1_555
H37 C20 1_555 1_555
C21 C20 1_555 1_555
C22 O9 1_555 1_555
C23 C22 1_555 1_555
H38 C23 1_555 1_555
C24 O10 1_555 1_555
C25 C24 1_555 1_555
H39 C25 1_555 1_555
C26 C21 1_555 1_555
H40 C26 1_555 1_555
C27 S3 1_555 1_555
C28 C27 1_555 1_555
H41 C28 1_555 1_555
C29 C28 1_555 1_555
H42 C29 1_555 1_555
C30 C29 1_555 1_555
C31 C30 1_555 1_555
H43 C31 1_555 1_555
C32 C27 1_555 1_555
H44 C32 1_555 1_555
C33 N3 1_555 1_555
H45 C33 1_555 1_555
C34 C33 1_555 1_555
C35 O14 1_555 1_555
C36 C35 1_555 1_555
H46 C36 1_555 1_555
C37 O15 1_555 1_555
C38 C37 1_555 1_555
H47 C38 1_555 1_555
C39 C34 1_555 1_555
H48 C39 1_555 1_555
C40 S4 1_555 1_555
C41 C40 1_555 1_555
H49 C41 1_555 1_555
C42 C41 1_555 1_555
H50 C42 1_555 1_555
C43 C42 1_555 1_555
C44 C43 1_555 1_555
H51 C44 1_555 1_555
C45 C40 1_555 1_555
H52 C45 1_555 1_555
C46 N4 1_555 1_555
H53 C46 1_555 1_555
C47 C46 1_555 1_555
C48 O19 1_555 1_555
C49 C48 1_555 1_555
H54 C49 1_555 1_555
C50 O20 1_555 1_555
C51 C50 1_555 1_555
H55 C51 1_555 1_555
C52 C47 1_555 1_555
H56 C52 1_555 1_555
Ca2_2 O12 1_555 1_555
O12_2 Ca2 1_555 1_555
O17_2 Ca2 1_555 1_555
O7 S2 1_555 1_555
O17 Ca2_2 1_555 1_555
C5 C6 1_555 1_555
C8 C9 1_555 1_555
C10 C11 1_555 1_555
C12 C13 1_555 1_555
C18 C19 1_555 1_555
C21 C22 1_555 1_555
C23 C24 1_555 1_555
C25 C26 1_555 1_555
C31 C32 1_555 1_555
C34 C35 1_555 1_555
C36 C37 1_555 1_555
C38 C39 1_555 1_555
C44 C45 1_555 1_555
C47 C48 1_555 1_555
C49 C50 1_555 1_555
C51 C52 1_555 1_555

#END
