
#######################################################################
#
#                 Cambridge Crystallographic Data Centre
#                                CCDC 
#
#######################################################################
#
# If this CIF has been generated from an entry in the Cambridge 
# Structural Database, then it will include bibliographic, chemical, 
# crystal, experimental, refinement or atomic coordinate data resulting 
# from the CCDC's data processing and validation procedures.
#
#######################################################################

data_MAVNAA
_symmetry_cell_setting           monoclinic
_symmetry_space_group_name_H-M   'C 2'
_symmetry_Int_Tables_number      5
_space_group_name_Hall           'C 2y'
loop_
_symmetry_equiv_pos_site_id
_symmetry_equiv_pos_as_xyz
1 x,y,z
2 -x,y,-z
3 1/2+x,1/2+y,z
4 1/2-x,1/2+y,-z
_cell_length_a                   19.749(3)
_cell_length_b                   17.048(3)
_cell_length_c                   14.844(3)
_cell_angle_alpha                90
_cell_angle_beta                 124.679(3)
_cell_angle_gamma                90
_cell_volume                     4109.87
loop_
_atom_site_label
_atom_site_type_symbol
_atom_site_fract_x
_atom_site_fract_y
_atom_site_fract_z
N1 N 0.0894(2) -0.4601(2) -0.3957(3)
Mn1 Mn 0.5000 0.39833(4) 0.0000
Mn2 Mn 0.0000 -0.35658(5) -0.5000
N2 N 0.07900(19) -0.39346(19) -0.5683(3)
N3 N 0.51851(19) 0.4393(2) 0.1566(3)
C1 C 0.1336(2) -0.4511(2) -0.5166(3)
C2 C 0.1384(2) -0.4896(2) -0.4246(3)
N4 N 0.6024(2) 0.4968(2) 0.0786(3)
C3 C 0.6160(3) 0.6119(3) 0.3360(4)
C4 C 0.5622(2) 0.5069(2) 0.2031(3)
C5 C 0.6101(2) 0.5353(2) 0.1639(3)
C6 C 0.1859(2) -0.4754(2) -0.5491(3)
C7 C 0.2402(2) -0.5415(3) -0.4889(3)
C8 C 0.5611(2) 0.5457(3) 0.2851(3)
N5 N 0.2970(2) -0.5772(2) -0.5044(3)
H1 H 0.3075 -0.5661 -0.5518
C9 C 0.0761(3) -0.3562(3) -0.6494(3)
H2 H 0.0384 -0.3156 -0.6850
C10 C 0.6653(2) 0.6348(3) 0.3025(3)
C11 C 0.1795(2) -0.1994(2) -0.2487(3)
O2 O 0.4227(2) 0.30976(18) -0.0060(3)
C12 C 0.2717(2) -0.0933(3) -0.0811(3)
N6 N 0.6315(2) 0.6563(3) 0.4236(3)
C13 C 0.1797(2) -0.2019(2) -0.1556(4)
H3 H 0.1483 -0.2396 -0.1498
C14 C 0.1925(2) -0.5527(2) -0.3677(3)
N7 N 0.7121(2) 0.7003(3) 0.3731(3)
H4 H 0.7470 0.7292 0.3714
C15 C 0.2773(3) -0.0941(3) -0.1690(3)
H5 H 0.3124 -0.0594 -0.1718
C16 C 0.2434(2) -0.5760(2) -0.4042(3)
C17 C 0.1810(3) -0.4366(3) -0.6340(4)
H6 H 0.2138 -0.4518 -0.6574
O3 O 0.0643(2) -0.2833(2) -0.3555(3)
O4 O 0.1390(2) -0.2572(2) -0.4186(3)
N8 N 0.3021(2) -0.6352(2) -0.3644(3)
O5 O 0.3473(2) 0.2811(2) -0.1838(3)
C18 C 0.2262(3) -0.1488(2) -0.0701(4)
H7 H 0.2265 -0.1509 -0.0073
C19 C 0.1231(3) -0.2503(3) -0.3482(4)
C20 C 0.6630(3) 0.6003(2) 0.2158(4)
C21 C 0.1943(3) -0.5855(3) -0.2797(3)
H8 H 0.2297 -0.6268 -0.2395
C22 C 0.4150(2) 0.1477(3) 0.0340(3)
H9 H 0.4637 0.1729 0.0866
C23 C 0.2309(3) -0.1464(3) -0.2529(4)
H10 H 0.2340 -0.1462 -0.3132
C24 C 0.3582(2) 0.1860(2) -0.0613(3)
C25 C 0.3272(3) 0.0358(2) -0.0214(3)
O6 O 0.3143(2) -0.03864(18) 0.0037(2)
C26 C 0.2673(3) 0.0751(3) -0.1140(4)
H11 H 0.2162 0.0520 -0.1620
C27 C 0.4672(3) 0.4496(3) 0.2681(4)
H12 H 0.4330 0.4297 0.2870
C28 C 0.7005(3) 0.5863(3) 0.0883(5)
H13 H 0.7302 0.6022 0.0605
C29 C 0.4743(3) 0.4113(3) 0.1916(4)
H14 H 0.4469 0.3638 0.1634
C30 C 0.6464(3) 0.5223(3) 0.0426(4)
H15 H 0.6412 0.4963 -0.0162
C31 C 0.1272(3) -0.3754(3) -0.6834(4)
H16 H 0.1246 -0.3469 -0.7388
C32 C 0.3773(3) 0.2650(2) -0.0853(4)
C33 C 0.5108(3) 0.5171(3) 0.3158(4)
H17 H 0.5070 0.5433 0.3676
C34 C 0.4005(3) 0.0714(3) 0.0532(4)
H18 H 0.4406 0.0449 0.1164
C35 C 0.2836(3) 0.1494(3) -0.1356(4)
H19 H 0.2442 0.1748 -0.2004
C36 C 0.6893(3) 0.7058(3) 0.4400(4)
H20 H 0.7125 0.7426 0.4963
C37 C 0.1435(3) -0.5559(3) -0.2545(4)
H21 H 0.1425 -0.5779 -0.1980
C38 C 0.7083(3) 0.6243(3) 0.1734(4)
H22 H 0.7438 0.6669 0.2046
C43 C 0.3299(3) -0.6317(3) -0.4289(4)
H26 H 0.3699 -0.6658 -0.4203
C47 C 0.0934(3) -0.4932(3) -0.3122(4)
H29 H 0.0606 -0.4729 -0.2914
N1A N -0.0894(2) -0.4601(2) -0.6043(3)
Mn2_2 Mn 1.0000 -0.35658(5) 0.5000
N2A N -0.07900(19) -0.39346(19) -0.4317(3)
N3A N 0.48149(19) 0.4393(2) -0.1566(3)
C1A C -0.1336(2) -0.4511(2) -0.4834(3)
C2A C -0.1384(2) -0.4896(2) -0.5754(3)
N4A N 0.3976(2) 0.4968(2) -0.0786(3)
C3A C 0.3840(3) 0.6119(3) -0.3360(4)
C4A C 0.4378(2) 0.5069(2) -0.2031(3)
C5A C 0.3899(2) 0.5353(2) -0.1639(3)
C6A C -0.1859(2) -0.4754(2) -0.4509(3)
C7A C -0.2402(2) -0.5415(3) -0.5111(3)
C8A C 0.4389(2) 0.5457(3) -0.2851(3)
N5A N -0.2970(2) -0.5772(2) -0.4956(3)
H1A H -0.3075 -0.5661 -0.4482
C9A C -0.0761(3) -0.3562(3) -0.3506(3)
H2A H -0.0384 -0.3156 -0.3150
C10A C 0.3347(2) 0.6348(3) -0.3025(3)
C11A C 0.8205(2) -0.1994(2) 0.2487(3)
O2A O 0.5773(2) 0.30976(18) 0.0060(3)
C12A C 0.7283(2) -0.0933(3) 0.0811(3)
N6A N 0.3685(2) 0.6563(3) -0.4236(3)
C13A C 0.8203(2) -0.2019(2) 0.1556(4)
H3A H 0.8517 -0.2396 0.1498
C14A C -0.1925(2) -0.5527(2) -0.6323(3)
N7A N 0.2879(2) 0.7003(3) -0.3731(3)
H4A H 0.2530 0.7292 -0.3714
C15A C 0.7227(3) -0.0941(3) 0.1690(3)
H5A H 0.6876 -0.0594 0.1718
C16A C -0.2434(2) -0.5760(2) -0.5958(3)
C17A C -0.1810(3) -0.4366(3) -0.3660(4)
H6A H -0.2138 -0.4518 -0.3426
O3A O 0.9357(2) -0.2833(2) 0.3555(3)
O3A_2 O -0.0643(2) -0.2833(2) -0.6445(3)
O4A O 0.8610(2) -0.2572(2) 0.4186(3)
N8A N -0.3021(2) -0.6352(2) -0.6356(3)
O5A O 0.6527(2) 0.2811(2) 0.1838(3)
C18A C 0.7738(3) -0.1488(2) 0.0701(4)
H7A H 0.7735 -0.1509 0.0073
C19A C 0.8769(3) -0.2503(3) 0.3482(4)
C20A C 0.3370(3) 0.6003(2) -0.2158(4)
C21A C -0.1943(3) -0.5855(3) -0.7203(3)
H8A H -0.2297 -0.6268 -0.7605
C22A C 0.5850(2) 0.1477(3) -0.0340(3)
H9A H 0.5363 0.1729 -0.0866
C23A C 0.7691(3) -0.1464(3) 0.2529(4)
H10A H 0.7660 -0.1462 0.3132
C24A C 0.6418(2) 0.1860(2) 0.0613(3)
C25A C 0.6728(3) 0.0358(2) 0.0214(3)
O6A O 0.6857(2) -0.03864(18) -0.0037(2)
C26A C 0.7327(3) 0.0751(3) 0.1140(4)
H11A H 0.7838 0.0520 0.1620
C27A C 0.5328(3) 0.4496(3) -0.2681(4)
H12A H 0.5670 0.4297 -0.2870
C28A C 0.2995(3) 0.5863(3) -0.0883(5)
H13A H 0.2698 0.6022 -0.0605
C29A C 0.5257(3) 0.4113(3) -0.1916(4)
H14A H 0.5531 0.3638 -0.1634
C30A C 0.3536(3) 0.5223(3) -0.0426(4)
H15A H 0.3588 0.4963 0.0162
C31A C -0.1272(3) -0.3754(3) -0.3166(4)
H16A H -0.1246 -0.3469 -0.2612
C32A C 0.6227(3) 0.2650(2) 0.0853(4)
C33A C 0.4892(3) 0.5171(3) -0.3158(4)
H17A H 0.4930 0.5433 -0.3676
C34A C 0.5995(3) 0.0714(3) -0.0532(4)
H18A H 0.5594 0.0449 -0.1164
C35A C 0.7164(3) 0.1494(3) 0.1356(4)
H19A H 0.7558 0.1748 0.2004
C36A C 0.3107(3) 0.7058(3) -0.4400(4)
H20A H 0.2875 0.7426 -0.4963
C37A C -0.1435(3) -0.5559(3) -0.7455(4)
H21A H -0.1425 -0.5779 -0.8020
C38A C 0.2917(3) 0.6243(3) -0.1734(4)
H22A H 0.2562 0.6669 -0.2046
C43A C -0.3299(3) -0.6317(3) -0.5711(4)
H26A H -0.3699 -0.6658 -0.5797
C47A C -0.0934(3) -0.4932(3) -0.6878(4)
H29A H -0.0606 -0.4729 -0.7086
O1 O 1.0000 0.3957(3) 0.0000
C39 C 0.9478(3) 0.2585(3) 0.1428(4)
H23 H 0.9171 0.2132 0.1294
C40 C 1.0400(3) 0.3932(4) 0.1818(4)
H24 H 1.0713 0.4380 0.1952
C41 C 0.9991(3) 0.3565(3) 0.0807(4)
C42 C 0.9543(4) 0.2896(3) 0.0613(4)
H25 H 0.9281 0.2650 -0.0065
O7 O 1.0134(3) 0.3005(3) 0.4214(3)
H27 H 1.0144 0.3477 0.4117
C44 C 1.0335(3) 0.3620(4) 0.2625(4)
H28 H 1.0607 0.3866 0.3304
C45 C 0.9877(3) 0.2954(3) 0.2451(4)
C46 C 0.9757(3) 0.2655(4) 0.3298(4)
O8 O 0.9289(3) 0.2066(3) 0.3039(4)
C39A C 1.0522(3) 0.2585(3) -0.1428(4)
H23A H 1.0829 0.2132 -0.1294
C40A C 0.9600(3) 0.3932(4) -0.1818(4)
H24A H 0.9287 0.4380 -0.1952
C41A C 1.0009(3) 0.3565(3) -0.0807(4)
C42A C 1.0457(4) 0.2896(3) -0.0613(4)
H25A H 1.0719 0.2650 0.0065
O7A O 0.9866(3) 0.3005(3) -0.4214(3)
H27A H 0.9856 0.3477 -0.4117
C44A C 0.9665(3) 0.3620(4) -0.2625(4)
H28A H 0.9393 0.3866 -0.3304
C45A C 1.0123(3) 0.2954(3) -0.2451(4)
C46A C 1.0243(3) 0.2655(4) -0.3298(4)
O8A O 1.0711(3) 0.2066(3) -0.3039(4)
O9 O 0.4111(4) 0.4677(4) 0.4317(5)
O10 O 0.8904(4) 0.1226(4) 0.4126(5)
loop_
_geom_bond_atom_site_label_1
_geom_bond_atom_site_label_2
_geom_bond_site_symmetry_1
_geom_bond_site_symmetry_2
N1 Mn2 1_555 1_555
Mn1 N3 1_555 1_555
Mn2 N2 1_555 1_555
O1 C41 1_555 1_555
N2 C1 1_555 1_555
N3 C4 1_555 1_555
C1 C2 1_555 1_555
C2 N1 1_555 1_555
N4 Mn1 1_555 1_555
C3 C8 1_555 1_555
C4 C5 1_555 1_555
C5 N4 1_555 1_555
C6 C1 1_555 1_555
C7 C6 1_555 1_555
C8 C4 1_555 1_555
N5 C7 1_555 1_555
H1 N5 1_555 1_555
C9 N2 1_555 1_555
H2 C9 1_555 1_555
C10 C3 1_555 1_555
C11 C13 1_555 1_555
O2 Mn1 1_555 1_555
C12 C15 1_555 1_555
N6 C3 1_555 1_555
C13 H3 1_555 1_555
C14 C2 1_555 1_555
N7 C10 1_555 1_555
H4 N7 1_555 1_555
C15 H5 1_555 1_555
C16 C7 1_555 1_555
C17 C6 1_555 1_555
H6 C17 1_555 1_555
O3 Mn2 1_555 1_555
O4 C19 1_555 1_555
N8 C16 1_555 1_555
O5 C32 1_555 1_555
C18 C12 1_555 1_555
H7 C18 1_555 1_555
C19 C11 1_555 1_555
C20 C5 1_555 1_555
C21 C14 1_555 1_555
H8 C21 1_555 1_555
C22 H9 1_555 1_555
C23 C11 1_555 1_555
H10 C23 1_555 1_555
C24 C22 1_555 1_555
C25 O6 1_555 1_555
O6 C12 1_555 1_555
C26 C25 1_555 1_555
H11 C26 1_555 1_555
C27 H12 1_555 1_555
C28 H13 1_555 1_555
C29 N3 1_555 1_555
H14 C29 1_555 1_555
C30 N4 1_555 1_555
H15 C30 1_555 1_555
C31 C9 1_555 1_555
H16 C31 1_555 1_555
C32 O2 1_555 1_555
C33 C8 1_555 1_555
H17 C33 1_555 1_555
C34 C22 1_555 1_555
H18 C34 1_555 1_555
C35 C24 1_555 1_555
H19 C35 1_555 1_555
C36 N6 1_555 1_555
H20 C36 1_555 1_555
C37 C21 1_555 1_555
H21 C37 1_555 1_555
C38 C20 1_555 1_555
H22 C38 1_555 1_555
C39 H23 1_555 1_555
C40 H24 1_555 1_555
C41 C40 1_555 1_555
C42 C39 1_555 1_555
H25 C42 1_555 1_555
C43 N5 1_555 1_555
H26 C43 1_555 1_555
O7 H27 1_555 1_555
C44 C40 1_555 1_555
H28 C44 1_555 1_555
C45 C39 1_555 1_555
C46 O7 1_555 1_555
O8 C46 1_555 1_555
C47 N1 1_555 1_555
H29 C47 1_555 1_555
N1A Mn2 1_555 1_555
Mn2_2 O3A 1_555 1_555
N2A Mn2 1_555 1_555
N3A Mn1 1_555 1_555
C1A N2A 1_555 1_555
C2A N1A 1_555 1_555
N4A Mn1 1_555 1_555
C3A C8A 1_555 1_555
C4A N3A 1_555 1_555
C5A N4A 1_555 1_555
C6A C1A 1_555 1_555
C7A C6A 1_555 1_555
C8A C4A 1_555 1_555
N5A C7A 1_555 1_555
H1A N5A 1_555 1_555
C9A N2A 1_555 1_555
H2A C9A 1_555 1_555
C10A C3A 1_555 1_555
C11A C13A 1_555 1_555
O2A Mn1 1_555 1_555
C12A C15A 1_555 1_555
N6A C3A 1_555 1_555
C13A H3A 1_555 1_555
C14A C2A 1_555 1_555
N7A C10A 1_555 1_555
H4A N7A 1_555 1_555
C15A H5A 1_555 1_555
C16A C7A 1_555 1_555
C17A C6A 1_555 1_555
H6A C17A 1_555 1_555
O3A C19A 1_555 1_555
O3A_2 Mn2 1_555 1_555
O4A C19A 1_555 1_555
N8A C16A 1_555 1_555
O5A C32A 1_555 1_555
C18A C12A 1_555 1_555
H7A C18A 1_555 1_555
C19A C11A 1_555 1_555
C20A C5A 1_555 1_555
C21A C14A 1_555 1_555
H8A C21A 1_555 1_555
C22A H9A 1_555 1_555
C23A C11A 1_555 1_555
H10A C23A 1_555 1_555
C24A C22A 1_555 1_555
C25A O6A 1_555 1_555
O6A C12A 1_555 1_555
C26A C25A 1_555 1_555
H11A C26A 1_555 1_555
C27A H12A 1_555 1_555
C28A H13A 1_555 1_555
C29A N3A 1_555 1_555
H14A C29A 1_555 1_555
C30A N4A 1_555 1_555
H15A C30A 1_555 1_555
C31A C9A 1_555 1_555
H16A C31A 1_555 1_555
C32A O2A 1_555 1_555
C33A C8A 1_555 1_555
H17A C33A 1_555 1_555
C34A C22A 1_555 1_555
H18A C34A 1_555 1_555
C35A C24A 1_555 1_555
H19A C35A 1_555 1_555
C36A N6A 1_555 1_555
H20A C36A 1_555 1_555
C37A C21A 1_555 1_555
H21A C37A 1_555 1_555
C38A C20A 1_555 1_555
H22A C38A 1_555 1_555
C39A H23A 1_555 1_555
C40A H24A 1_555 1_555
C41A O1 1_555 1_555
C42A C39A 1_555 1_555
H25A C42A 1_555 1_555
C43A N5A 1_555 1_555
H26A C43A 1_555 1_555
O7A H27A 1_555 1_555
C44A C40A 1_555 1_555
H28A C44A 1_555 1_555
C45A C39A 1_555 1_555
C46A O7A 1_555 1_555
O8A C46A 1_555 1_555
C47A N1A 1_555 1_555
H29A C47A 1_555 1_555
C10 C20 1_555 1_555
C13 C18 1_555 1_555
C14 C16 1_555 1_555
N7 C36 1_555 1_555
C15 C23 1_555 1_555
C17 C31 1_555 1_555
O3 C19 1_555 1_555
N8 C43 1_555 1_555
C24 C32 1_555 1_555
C25 C34 1_555 1_555
C26 C35 1_555 1_555
C27 C29 1_555 1_555
C27 C33 1_555 1_555
C28 C30 1_555 1_555
C28 C38 1_555 1_555
C37 C47 1_555 1_555
C41 C42 1_555 1_555
C44 C45 1_555 1_555
C45 C46 1_555 1_555
C1A C2A 1_555 1_555
C4A C5A 1_555 1_555
C10A C20A 1_555 1_555
C13A C18A 1_555 1_555
C14A C16A 1_555 1_555
N7A C36A 1_555 1_555
C15A C23A 1_555 1_555
C17A C31A 1_555 1_555
N8A C43A 1_555 1_555
C24A C32A 1_555 1_555
C25A C34A 1_555 1_555
C26A C35A 1_555 1_555
C27A C29A 1_555 1_555
C27A C33A 1_555 1_555
C28A C30A 1_555 1_555
C28A C38A 1_555 1_555
C37A C47A 1_555 1_555
C40A C41A 1_555 1_555
C41A C42A 1_555 1_555
C44A C45A 1_555 1_555
C45A C46A 1_555 1_555

#END
