
#######################################################################
#
#                 Cambridge Crystallographic Data Centre
#                                CCDC 
#
#######################################################################
#
# If this CIF has been generated from an entry in the Cambridge 
# Structural Database, then it will include bibliographic, chemical, 
# crystal, experimental, refinement or atomic coordinate data resulting 
# from the CCDC's data processing and validation procedures.
#
#######################################################################

data_MAVNOO
_symmetry_cell_setting           orthorhombic
_symmetry_space_group_name_H-M   'P n n 2'
_symmetry_Int_Tables_number      34
_space_group_name_Hall           'P 2 -2n'
loop_
_symmetry_equiv_pos_site_id
_symmetry_equiv_pos_as_xyz
1 x,y,z
2 -x,-y,z
3 1/2+x,1/2-y,1/2+z
4 1/2-x,1/2+y,1/2+z
_cell_length_a                   14.3366(7)
_cell_length_b                   36.0309(18)
_cell_length_c                   7.0730(3)
_cell_angle_alpha                90
_cell_angle_beta                 90
_cell_angle_gamma                90
_cell_volume                     3653.63
loop_
_atom_site_label
_atom_site_type_symbol
_atom_site_fract_x
_atom_site_fract_y
_atom_site_fract_z
C1 C 0.0583(6) 0.4748(2) -1.424(6)
Zn1 Zn 0.50399(9) 0.28888(3) -0.565(5)
C2 C -0.2290(6) 0.4055(2) -2.049(6)
C3 C -0.3019(6) 0.3839(3) -1.968(6)
H1 H -0.3162 0.3859 -1.8399
C4 C -0.3324(6) 0.3566(2) -2.275(6)
C5 C -0.3521(6) 0.3595(2) -2.087(6)
H2 H -0.3996 0.3451 -2.0357
C6 C -0.2622(6) 0.3782(2) -2.351(6)
H3 H -0.2502 0.3770 -2.4803
C7 C -0.2089(7) 0.4019(3) -2.238(6)
H4 H -0.1598 0.4151 -2.2905
C8 C 0.3421(6) 0.3575(3) -0.859(6)
C9 C 0.3465(6) 0.3558(3) -1.054(6)
H5 H 0.3851 0.3387 -1.1141
C10 C 0.2926(6) 0.3799(3) -1.156(6)
H6 H 0.2957 0.3783 -1.2868
C11 C 0.2872(7) 0.3851(3) -0.775(6)
H7 H 0.2855 0.3871 -0.6436
C12 C 0.2360(6) 0.4092(3) -0.883(6)
H8 H 0.2018 0.4280 -0.8247
C13 C 0.2349(6) 0.4059(3) -1.081(6)
C14 C -0.0651(6) 0.4767(2) -1.684(6)
C15 C -0.3876(7) 0.3307(3) -2.394(6)
C16 C -0.1733(6) 0.4300(2) -1.924(6)
C17 C -0.2125(6) 0.4500(2) -1.776(5)
H9 H -0.2763 0.4480 -1.7537
C18 C -0.0780(6) 0.4349(2) -1.953(6)
H10 H -0.0493 0.4226 -2.0531
C19 C -0.1593(5) 0.4729(2) -1.659(6)
H11 H -0.1884 0.4859 -1.5614
C20 C -0.0247(5) 0.4575(2) -1.837(6)
H12 H 0.0388 0.4600 -1.8600
O1 O 0.3938(4) 0.3339(2) -0.560(6)
O2 O 0.4426(5) 0.30596(18) -0.812(6)
O3 O -0.3818(4) 0.33352(18) -2.572(6)
O4 O -0.4371(5) 0.30739(18) -2.315(6)
C21 C 0.3946(6) 0.3318(3) -0.733(6)
C22 C 0.0000 0.5000 -1.558(6)
C23 C 0.1752(6) 0.4304(3) -1.196(6)
C24 C 0.1641(5) 0.4675(2) -1.163(6)
H13 H 0.1959 0.4784 -1.0625
O5 O 0.4259(6) 0.2483(2) -0.443(6)
O6 O 0.5873(6) 0.2506(2) -0.690(6)
C25 C 0.1075(6) 0.4889(2) -1.273(6)
H14 H 0.1020 0.5141 -1.2457
C26 C 0.0685(6) 0.4361(2) -1.454(6)
H15 H 0.0367 0.4247 -1.5530
C27 C 0.1246(6) 0.4153(2) -1.339(6)
H16 H 0.1283 0.3899 -1.3600
C28 C 0.6138(10) 0.2557(4) -0.855(7)
H17 H 0.5993 0.2781 -0.9133
C29 C 0.4116(8) 0.2478(3) -0.271(6)
H18 H 0.4316 0.2678 -0.1980
C30 C 0.6921(11) 0.1953(3) -0.862(6)
H19 H 0.7299 0.2008 -0.7538
H20 H 0.7276 0.1808 -0.9506
H21 H 0.6381 0.1815 -0.8234
C31 C 0.3271(13) 0.1888(4) -0.292(6)
H22 H 0.2688 0.1824 -0.2332
H23 H 0.3684 0.1679 -0.2870
H24 H 0.3164 0.1957 -0.4208
C32 C 0.3510(14) 0.2204(5) 0.014(6)
H25 H 0.3884 0.2017 0.0736
H26 H 0.2862 0.2152 0.0349
H27 H 0.3661 0.2443 0.0659
N1 N 0.3698(8) 0.2205(3) -0.189(6)
N2 N 0.6623(8) 0.2304(4) -0.954(6)
C33 C 0.6874(15) 0.2342(6) -1.163(6)
H28 H 0.7150 0.2581 -1.1856
H29 H 0.6320 0.2317 -1.2385
H30 H 0.7310 0.2151 -1.1975
C1A C -0.0583(6) 0.5252(2) -1.424(6)
Zn1A Zn -0.50399(9) 0.71112(3) -0.565(5)
Zn1_2 Zn -0.49601(9) 0.28888(3) -2.565(5)
Zn1A_2 Zn 0.49601(9) 0.71112(3) -2.565(5)
C2A C 0.2290(6) 0.5945(2) -2.049(6)
C3A C 0.3019(6) 0.6161(3) -1.968(6)
H1A H 0.3162 0.6141 -1.8399
C4A C 0.3324(6) 0.6434(2) -2.275(6)
C5A C 0.3521(6) 0.6405(2) -2.087(6)
H2A H 0.3996 0.6549 -2.0357
C6A C 0.2622(6) 0.6218(2) -2.351(6)
H3A H 0.2502 0.6230 -2.4803
C7A C 0.2089(7) 0.5981(3) -2.238(6)
H4A H 0.1598 0.5849 -2.2905
C8A C -0.3421(6) 0.6425(3) -0.859(6)
C9A C -0.3465(6) 0.6442(3) -1.054(6)
H5A H -0.3851 0.6613 -1.1141
C10A C -0.2926(6) 0.6201(3) -1.156(6)
H6A H -0.2957 0.6217 -1.2868
C11A C -0.2872(7) 0.6149(3) -0.775(6)
H7A H -0.2855 0.6129 -0.6436
C12A C -0.2360(6) 0.5908(3) -0.883(6)
H8A H -0.2018 0.5720 -0.8247
C13A C -0.2349(6) 0.5941(3) -1.081(6)
C14A C 0.0651(6) 0.5233(2) -1.684(6)
C15A C 0.3876(7) 0.6693(3) -2.394(6)
C16A C 0.1733(6) 0.5700(2) -1.924(6)
C17A C 0.2125(6) 0.5500(2) -1.776(5)
H9A H 0.2763 0.5520 -1.7537
C18A C 0.0780(6) 0.5651(2) -1.953(6)
H10A H 0.0493 0.5774 -2.0531
C19A C 0.1593(5) 0.5271(2) -1.659(6)
H11A H 0.1884 0.5141 -1.5614
C20A C 0.0247(5) 0.5425(2) -1.837(6)
H12A H -0.0388 0.5400 -1.8600
O1A O -0.3938(4) 0.6661(2) -0.560(6)
O2A O -0.4426(5) 0.69404(18) -0.812(6)
O3A O 0.3818(4) 0.66648(18) -2.572(6)
O3_2 O 0.6182(4) 0.33352(18) -0.572(6)
O3A_2 O -0.6182(4) 0.66648(18) -0.572(6)
O4A O 0.4371(5) 0.69261(18) -2.315(6)
O4_2 O 0.5629(5) 0.30739(18) -0.315(6)
O4A_2 O -0.5629(5) 0.69261(18) -0.315(6)
C21A C -0.3946(6) 0.6682(3) -0.733(6)
C23A C -0.1752(6) 0.5696(3) -1.196(6)
C24A C -0.1641(5) 0.5325(2) -1.163(6)
H13A H -0.1959 0.5216 -1.0625
O5A O -0.4259(6) 0.7517(2) -0.443(6)
O6A O -0.5873(6) 0.7494(2) -0.690(6)
C25A C -0.1075(6) 0.5111(2) -1.273(6)
H14A H -0.1020 0.4859 -1.2457
C26A C -0.0685(6) 0.5639(2) -1.454(6)
H15A H -0.0367 0.5753 -1.5530
C27A C -0.1246(6) 0.5847(2) -1.339(6)
H16A H -0.1283 0.6101 -1.3600
C28A C -0.6138(10) 0.7443(4) -0.855(7)
H17A H -0.5993 0.7219 -0.9133
C29A C -0.4116(8) 0.7522(3) -0.271(6)
H18A H -0.4316 0.7322 -0.1980
C30A C -0.6921(11) 0.8047(3) -0.862(6)
H19A H -0.7299 0.7992 -0.7538
H20A H -0.7276 0.8192 -0.9506
H21A H -0.6381 0.8185 -0.8234
C31A C -0.3271(13) 0.8112(4) -0.292(6)
H22A H -0.2688 0.8176 -0.2332
H23A H -0.3684 0.8321 -0.2870
H24A H -0.3164 0.8043 -0.4208
C32A C -0.3510(14) 0.7796(5) 0.014(6)
H25A H -0.3884 0.7983 0.0736
H26A H -0.2862 0.7848 0.0349
H27A H -0.3661 0.7557 0.0659
N1A N -0.3698(8) 0.7795(3) -0.189(6)
N2A N -0.6623(8) 0.7696(4) -0.954(6)
C33A C -0.6874(15) 0.7658(6) -1.163(6)
H28A H -0.7150 0.7419 -1.1856
H29A H -0.6320 0.7683 -1.2385
H30A H -0.7310 0.7849 -1.1975
C34 C 0.507(4) 0.5663(14) 0.333(8)
C36 C 0.515(5) 0.5382(16) -0.012(9)
C37 C 0.610(3) 0.5145(12) 0.257(8)
O7 O 0.517(2) 0.5618(9) 0.504(7)
N3 N 0.547(3) 0.5444(13) 0.184(7)
O8 O 0.4953 0.1542 0.9422
O9 O 0.5050 0.1615 0.4517
C35? C 0.6227(16) 0.5209(6) 0.494(6)
loop_
_geom_bond_atom_site_label_1
_geom_bond_atom_site_label_2
_geom_bond_site_symmetry_1
_geom_bond_site_symmetry_2
C1 C22 1_555 1_555
Zn1 O1 1_555 1_555
C2 C3 1_555 1_555
C3 H1 1_555 1_555
C4 C5 1_555 1_555
C5 C3 1_555 1_555
H2 C5 1_555 1_555
C6 C4 1_555 1_555
H3 C6 1_555 1_555
C7 C2 1_555 1_555
H4 C7 1_555 1_555
C8 C9 1_555 1_555
C9 H5 1_555 1_555
C10 C9 1_555 1_555
H6 C10 1_555 1_555
C11 C8 1_555 1_555
H7 C11 1_555 1_555
C12 C11 1_555 1_555
H8 C12 1_555 1_555
C13 C10 1_555 1_555
C14 C19 1_555 1_555
C15 C4 1_555 1_555
C16 C2 1_555 1_555
C17 C16 1_555 1_555
H9 C17 1_555 1_555
C18 C16 1_555 1_555
H10 C18 1_555 1_555
C19 C17 1_555 1_555
H11 C19 1_555 1_555
C20 C14 1_555 1_555
H12 C20 1_555 1_555
O1 C21 1_555 1_555
O2 Zn1 1_555 1_555
O3 C15 1_555 1_555
O4 C15 1_555 1_555
C21 C8 1_555 1_555
C22 C14 1_555 1_555
C23 C13 1_555 1_555
C24 C23 1_555 1_555
H13 C24 1_555 1_555
O5 Zn1 1_555 1_555
O6 Zn1 1_555 1_555
C25 C1 1_555 1_555
H14 C25 1_555 1_555
C26 C1 1_555 1_555
H15 C26 1_555 1_555
C27 C23 1_555 1_555
H16 C27 1_555 1_555
C28 O6 1_555 1_555
H17 C28 1_555 1_555
C29 O5 1_555 1_555
H18 C29 1_555 1_555
C30 H19 1_555 1_555
H20 C30 1_555 1_555
H21 C30 1_555 1_555
C31 H22 1_555 1_555
H23 C31 1_555 1_555
H24 C31 1_555 1_555
C32 H25 1_555 1_555
H26 C32 1_555 1_555
H27 C32 1_555 1_555
N1 C29 1_555 1_555
N2 C28 1_555 1_555
C33 N2 1_555 1_555
H28 C33 1_555 1_555
H29 C33 1_555 1_555
H30 C33 1_555 1_555
C34 O7 1_555 1_555
C36 N3 1_555 1_555
C37 N3 1_555 1_555
N3 C34 1_555 1_555
C1A C22 1_555 1_555
Zn1A O1A 1_555 1_555
Zn1_2 O3 1_555 1_555
Zn1A_2 O3A 1_555 1_555
C2A C3A 1_555 1_555
C3A H1A 1_555 1_555
C4A C5A 1_555 1_555
C5A C3A 1_555 1_555
H2A C5A 1_555 1_555
C6A C4A 1_555 1_555
H3A C6A 1_555 1_555
C7A C2A 1_555 1_555
H4A C7A 1_555 1_555
C8A C9A 1_555 1_555
C9A H5A 1_555 1_555
C10A C9A 1_555 1_555
H6A C10A 1_555 1_555
C11A C8A 1_555 1_555
H7A C11A 1_555 1_555
C12A C11A 1_555 1_555
H8A C12A 1_555 1_555
C13A C10A 1_555 1_555
C14A C22 1_555 1_555
C15A C4A 1_555 1_555
C16A C2A 1_555 1_555
C17A C16A 1_555 1_555
H9A C17A 1_555 1_555
C18A C16A 1_555 1_555
H10A C18A 1_555 1_555
C19A C14A 1_555 1_555
H11A C19A 1_555 1_555
C20A C14A 1_555 1_555
H12A C20A 1_555 1_555
O1A C21A 1_555 1_555
O2A Zn1A 1_555 1_555
O3A C15A 1_555 1_555
O3_2 Zn1 1_555 1_555
O3A_2 Zn1A 1_555 1_555
O4A Zn1A_2 1_555 1_555
O4_2 Zn1 1_555 1_555
O4A_2 Zn1A 1_555 1_555
C21A C8A 1_555 1_555
C23A C13A 1_555 1_555
C24A C23A 1_555 1_555
H13A C24A 1_555 1_555
O5A Zn1A 1_555 1_555
O6A Zn1A 1_555 1_555
C25A C1A 1_555 1_555
H14A C25A 1_555 1_555
C26A C1A 1_555 1_555
H15A C26A 1_555 1_555
C27A C23A 1_555 1_555
H16A C27A 1_555 1_555
C28A O6A 1_555 1_555
H17A C28A 1_555 1_555
C29A O5A 1_555 1_555
H18A C29A 1_555 1_555
C30A H19A 1_555 1_555
H20A C30A 1_555 1_555
H21A C30A 1_555 1_555
C31A H22A 1_555 1_555
H23A C31A 1_555 1_555
H24A C31A 1_555 1_555
C32A H25A 1_555 1_555
H26A C32A 1_555 1_555
H27A C32A 1_555 1_555
N1A C29A 1_555 1_555
N2A C28A 1_555 1_555
C33A N2A 1_555 1_555
H28A C33A 1_555 1_555
H29A C33A 1_555 1_555
H30A C33A 1_555 1_555
C6 C7 1_555 1_555
C12 C13 1_555 1_555
C18 C20 1_555 1_555
O2 C21 1_555 1_555
O4 Zn1_2 1_555 1_555
C24 C25 1_555 1_555
C26 C27 1_555 1_555
C30 N2 1_555 1_555
C31 N1 1_555 1_555
C32 N1 1_555 1_555
C6A C7A 1_555 1_555
C12A C13A 1_555 1_555
C15A O4A 1_555 1_555
C17A C19A 1_555 1_555
C18A C20A 1_555 1_555
O2A C21A 1_555 1_555
C24A C25A 1_555 1_555
C26A C27A 1_555 1_555
C30A N2A 1_555 1_555
C31A N1A 1_555 1_555
C32A N1A 1_555 1_555

#END
