
#######################################################################
#
#                 Cambridge Crystallographic Data Centre
#                                CCDC 
#
#######################################################################
#
# If this CIF has been generated from an entry in the Cambridge 
# Structural Database, then it will include bibliographic, chemical, 
# crystal, experimental, refinement or atomic coordinate data resulting 
# from the CCDC's data processing and validation procedures.
#
#######################################################################

data_MAVNUT01
_symmetry_cell_setting           monoclinic
_symmetry_space_group_name_H-M   'P 21/a'
_symmetry_Int_Tables_number      14
_space_group_name_Hall           '-P 2yab'
loop_
_symmetry_equiv_pos_site_id
_symmetry_equiv_pos_as_xyz
1 x,y,z
2 1/2-x,1/2+y,-z
3 -x,-y,-z
4 1/2+x,1/2-y,z
_cell_length_a                   13.3226(8)
_cell_length_b                   11.3815(5)
_cell_length_c                   13.9942(8)
_cell_angle_alpha                90
_cell_angle_beta                 105.746(5)
_cell_angle_gamma                90
_cell_volume                     2042.33
loop_
_atom_site_label
_atom_site_type_symbol
_atom_site_fract_x
_atom_site_fract_y
_atom_site_fract_z
Zn1 Zn 0.7352(8) 0.5043(8) 0.6889(10)
N1 N 0.7353(7) 0.5023(8) 0.5459(15)
C1 C 0.7883(7) 0.5830(7) 0.5115(14)
C2 C 0.7947(6) 0.5862(5) 0.4151(14)
C3 C 0.7438(6) 0.50179(33) 0.3487(14)
C4 C 0.6882(6) 0.4170(5) 0.3839(15)
C5 C 0.6862(6) 0.4208(8) 0.4820(15)
C6 C 0.7504(6) 0.50470(35) 0.2448(14)
C7 C 0.7252(7) 0.6055(7) 0.1876(15)
C8 C 0.7323(9) 0.6049(16) 0.0910(15)
N2 N 0.7624(8) 0.5120(22) 0.0481(15)
C9 C 0.7865(6) 0.4154(17) 0.1032(17)
C10 C 0.7818(6) 0.4077(8) 0.2004(16)
Zn2 Zn 0.7608(6) 0.5244(7) -0.0969(8)
O1 O 0.6668(19) 0.6189(18) 0.8396(17)
C11 C 0.6235(19) 0.6654(17) 0.7572(16)
O2 O 0.6503(20) 0.6440(20) 0.6793(18)
C12 C 0.5358(19) 0.7495(17) 0.7535(13)
C13 C 0.4973(19) 0.7782(17) 0.8286(13)
C14 C 0.4096(19) 0.8615(18) 0.8270(16)
O3 O 0.3619(20) 0.9109(18) 0.7470(18)
O4 O 0.3862(21) 0.8789(21) 0.9071(18)
O5 O 0.8859(17) 0.3828(21) 0.9031(16)
C15 C 0.9105(15) 0.3601(18) 0.8243(12)
O6 O 0.8698(17) 0.4109(18) 0.7433(15)
C16 C 0.9918(15) 0.2682(17) 0.8271(7)
C17 C 1.0262(15) 0.2311(17) 0.7519(8)
C18 C 1.1074(15) 0.1390(17) 0.7557(13)
O7 O 1.1318(16) 0.1160(20) 0.6771(16)
O8 O 1.1458(17) 0.0902(18) 0.8379(16)
H1 H 0.8250(8) 0.6438(8) 0.5575(15)
H2 H 0.8350(6) 0.6480(5) 0.3937(15)
H3 H 0.6507(6) 0.3552(5) 0.3397(16)
H4 H 0.6465(7) 0.3603(9) 0.5058(17)
H5 H 0.7025(7) 0.6765(6) 0.2155(18)
H6 H 0.7141(11) 0.6770(19) 0.0518(17)
H7 H 0.8089(6) 0.3459(22) 0.0731(20)
H8 H 0.8005(7) 0.3343(7) 0.2376(19)
H9 H 0.5035(20) 0.7865(18) 0.6893(13)
H10 H 0.5300(20) 0.7406(18) 0.8925(13)
H11 H 1.0230(17) 0.2315(18) 0.8917(7)
H12 H 0.9951(16) 0.2675(18) 0.6871(8)
Zn1C Zn 0.2352(8) 0.9957(8) 0.6889(10)
Zn1C_2 Zn 1.2352(8) -0.0043(8) 0.6889(10)
Zn2_2 Zn 0.7608(6) 0.5244(7) 0.9031(8)
Zn2C Zn 0.2608(6) 0.9756(7) 0.9031(8)
Zn2C_2 Zn 1.2608(6) -0.0244(7) 0.9031(8)
O1_2 O 0.6668(19) 0.6189(18) -0.1604(17)
O3C O 0.8619(20) 0.5891(18) 0.7470(18)
O4C O 0.8862(21) 0.6211(21) -0.0929(18)
O5_2 O 0.8859(17) 0.3828(21) -0.0969(16)
O7C O 0.6318(16) 0.3840(20) 0.6771(16)
O8C O 0.6458(17) 0.4098(18) -0.1621(16)
loop_
_geom_bond_atom_site_label_1
_geom_bond_atom_site_label_2
_geom_bond_site_symmetry_1
_geom_bond_site_symmetry_2
Zn1 N1 1_555 1_555
N1 C1 1_555 1_555
C1 C2 1_555 1_555
C2 C3 1_555 1_555
C3 C4 1_555 1_555
C4 C5 1_555 1_555
C5 N1 1_555 1_555
C6 C3 1_555 1_555
C7 C6 1_555 1_555
C8 C7 1_555 1_555
N2 C8 1_555 1_555
C9 N2 1_555 1_555
C10 C6 1_555 1_555
Zn2 N2 1_555 1_555
O1 C11 1_555 1_555
C11 O2 1_555 1_555
O2 Zn1 1_555 1_555
C12 C11 1_555 1_555
C13 C12 1_555 1_555
C14 C13 1_555 1_555
O3 C14 1_555 1_555
O4 C14 1_555 1_555
O5 C15 1_555 1_555
C15 O6 1_555 1_555
O6 Zn1 1_555 1_555
C16 C15 1_555 1_555
C17 C16 1_555 1_555
C18 C17 1_555 1_555
O7 C18 1_555 1_555
O8 C18 1_555 1_555
H1 C1 1_555 1_555
H2 C2 1_555 1_555
H3 C4 1_555 1_555
H4 C5 1_555 1_555
H5 C7 1_555 1_555
H6 C8 1_555 1_555
H7 C9 1_555 1_555
H8 C10 1_555 1_555
H9 C12 1_555 1_555
H10 C13 1_555 1_555
H11 C16 1_555 1_555
H12 C17 1_555 1_555
Zn1C O3 1_555 1_555
Zn1C_2 O7 1_555 1_555
Zn2_2 O1 1_555 1_555
Zn2C O4 1_555 1_555
Zn2C_2 O8 1_555 1_555
O1_2 Zn2 1_555 1_555
O3C Zn1 1_555 1_555
O4C Zn2 1_555 1_555
O5_2 Zn2 1_555 1_555
O7C Zn1 1_555 1_555
O8C Zn2 1_555 1_555
C9 C10 1_555 1_555
O5 Zn2_2 1_555 1_555

#END
