
#######################################################################
#
#                 Cambridge Crystallographic Data Centre
#                                CCDC 
#
#######################################################################
#
# If this CIF has been generated from an entry in the Cambridge 
# Structural Database, then it will include bibliographic, chemical, 
# crystal, experimental, refinement or atomic coordinate data resulting 
# from the CCDC's data processing and validation procedures.
#
#######################################################################

data_MAVNEE
_symmetry_cell_setting           triclinic
_symmetry_space_group_name_H-M   'P -1'
_symmetry_Int_Tables_number      2
_space_group_name_Hall           '-P 1'
loop_
_symmetry_equiv_pos_site_id
_symmetry_equiv_pos_as_xyz
1 x,y,z
2 -x,-y,-z
_cell_length_a                   8.191(4)
_cell_length_b                   10.534(5)
_cell_length_c                   17.808(8)
_cell_angle_alpha                92.302(7)
_cell_angle_beta                 94.227(7)
_cell_angle_gamma                93.116(7)
_cell_volume                     1528.59
loop_
_atom_site_label
_atom_site_type_symbol
_atom_site_fract_x
_atom_site_fract_y
_atom_site_fract_z
K1 K 0.57266(7) 1.17380(6) -0.02918(3)
K2 K 0.10178(7) 1.25956(6) -0.03650(3)
C1 C 0.2000(3) 1.5126(3) 0.61146(14)
H1 H 0.2619 1.5858 0.6015
C2 C 0.1513(3) 1.4985(3) 0.68245(15)
H2 H 0.1816 1.5603 0.7204
C3 C 0.0558(3) 1.3907(3) 0.69717(14)
C4 C 0.0110(3) 1.2988(3) 0.64131(15)
H3 H -0.0560 1.2284 0.6514
C5 C 0.0659(3) 1.3111(2) 0.57003(14)
C6 C 0.1602(3) 1.4209(2) 0.55324(13)
C7 C 0.2130(3) 1.4386(2) 0.47898(13)
H4 H 0.2745 1.5124 0.4698
C8 C 0.2299(3) 1.3684(2) 0.35212(13)
C9 C 0.1500(3) 1.2898(2) 0.29452(14)
H5 H 0.0648 1.2332 0.3055
C10 C 0.1949(3) 1.2942(2) 0.22174(14)
H6 H 0.1396 1.2416 0.1838
C11 C 0.3227(3) 1.3772(2) 0.20525(13)
C12 C 0.4027(3) 1.4564(3) 0.26160(14)
H7 H 0.4874 1.5131 0.2503
C13 C 0.3573(3) 1.4515(3) 0.33447(14)
H8 H 0.4126 1.5044 0.3722
C14 C 0.7192(3) 1.0029(2) 0.60343(13)
H9 H 0.7820 0.9347 0.5920
C15 C 0.6783(3) 1.0229(2) 0.67632(13)
H10 H 0.7140 0.9698 0.7139
C16 C 0.5824(3) 1.1243(2) 0.69275(13)
C17 C 0.5281(3) 1.2023(2) 0.63732(14)
H11 H 0.4612 1.2679 0.6487
C18 C 0.5733(3) 1.1833(2) 0.56439(13)
C19 C 0.6695(3) 1.0816(2) 0.54636(13)
C20 C 0.7166(3) 1.0574(2) 0.47077(13)
H12 H 0.7784 0.9879 0.4611
C21 C 0.7240(3) 1.1045(2) 0.34313(12)
C22 C 0.6580(3) 1.1793(2) 0.28755(13)
H13 H 0.5853 1.2401 0.3002
C23 C 0.6981(3) 1.1654(2) 0.21420(13)
H14 H 0.6535 1.2169 0.1777
C24 C 0.8055(3) 1.0742(2) 0.19480(12)
C25 C 0.8723(3) 0.9992(2) 0.24918(13)
H15 H 0.9444 0.9382 0.2363
C26 C 0.8323(3) 1.0144(3) 0.32302(14)
H16 H 0.8784 0.9637 0.3596
H17 H 0.385(5) 1.366(2) -0.126(2)
H18 H 0.816(9) 1.308(7) -0.1514(15)
H19 H 0.768(2) 0.994(4) -0.129(2)
H20 H 0.211(3) 1.555(5) -0.115(3)
H21 H 0.358(6) 1.257(4) -0.1691(15)
H22 H 0.800(7) 1.376(2) -0.093(3)
H23 H 0.652(4) 0.9260(19) -0.127(2)
H24 H 0.075(6) 1.597(3) -0.109(3)
N1 N 0.1772(2) 1.35474(19) 0.42496(11)
N2 N 0.6761(3) 1.1285(2) 0.41676(10)
O1 O 0.0000(3) 1.3729(2) 0.76626(10)
H25 H 0.0379 1.4306 0.7958
O2 O 0.0263(3) 1.2170(2) 0.51746(11)
H26 H 0.0514 1.2403 0.4763
O3 O 0.3838(2) 1.25183(17) 0.08264(10)
O4 O 0.2484(3) 1.44449(19) 0.06981(10)
O5 O 0.5350(3) 1.4514(2) 0.11424(11)
O6 O 0.5375(3) 1.14690(19) 0.76376(9)
H27 H 0.5864 1.1009 0.7927
O7 O 0.5228(3) 1.26330(19) 0.51166(10)
H28 H 0.5548 1.2408 0.4709
O8 O 0.9916(2) 0.97813(19) 0.09920(10)
O9 O 0.7080(2) 0.99103(18) 0.05922(9)
O10 O 0.8833(2) 1.18180(17) 0.07257(10)
O11 O 0.3578(3) 1.2899(2) -0.12774(15)
O12 O 0.7988(3) 1.3027(2) -0.10733(14)
O13 O 0.6728(3) 0.9987(2) -0.13211(11)
O14 O 0.1172(4) 1.5321(3) -0.11595(15)
S1 S 0.37754(8) 1.38239(6) 0.11119(3)
S2 S 0.85112(7) 1.05537(5) 0.09942(3)
K1A K 0.42734(7) 0.82620(6) 0.02918(3)
K2A K 0.89822(7) 0.74044(6) 0.03650(3)
K2_2 K 1.10178(7) 1.25956(6) -0.03650(3)
H18_2 H -0.184(9) 1.308(7) -0.1514(15)
H22_2 H -0.200(7) 1.376(2) -0.093(3)
O8A O 0.0084(2) 1.02187(19) -0.09920(10)
O9A O 0.2920(2) 1.00897(18) -0.05922(9)
O10_2 O -0.1167(2) 1.18180(17) 0.07257(10)
O12_2 O -0.2012(3) 1.3027(2) -0.10733(14)
loop_
_geom_bond_atom_site_label_1
_geom_bond_atom_site_label_2
_geom_bond_site_symmetry_1
_geom_bond_site_symmetry_2
K1 O3 1_555 1_555
K2 O3 1_555 1_555
C1 H1 1_555 1_555
C2 C1 1_555 1_555
H2 C2 1_555 1_555
C3 C2 1_555 1_555
C4 C3 1_555 1_555
H3 C4 1_555 1_555
C5 C4 1_555 1_555
C6 C1 1_555 1_555
C7 C6 1_555 1_555
H4 C7 1_555 1_555
C8 C9 1_555 1_555
C9 H5 1_555 1_555
C10 C9 1_555 1_555
H6 C10 1_555 1_555
C11 C10 1_555 1_555
C12 C11 1_555 1_555
H7 C12 1_555 1_555
C13 C8 1_555 1_555
H8 C13 1_555 1_555
C14 H9 1_555 1_555
C15 C14 1_555 1_555
H10 C15 1_555 1_555
C16 C15 1_555 1_555
C17 C16 1_555 1_555
H11 C17 1_555 1_555
C18 C17 1_555 1_555
C19 C14 1_555 1_555
C20 C19 1_555 1_555
H12 C20 1_555 1_555
C21 C22 1_555 1_555
C22 H13 1_555 1_555
C23 C22 1_555 1_555
H14 C23 1_555 1_555
C24 C23 1_555 1_555
C25 C24 1_555 1_555
H15 C25 1_555 1_555
C26 C21 1_555 1_555
H16 C26 1_555 1_555
H17 O11 1_555 1_555
H18 O12 1_555 1_555
H19 O13 1_555 1_555
H20 O14 1_555 1_555
H21 O11 1_555 1_555
H22 O12 1_555 1_555
H23 O13 1_555 1_555
H24 O14 1_555 1_555
N1 C7 1_555 1_555
N2 C20 1_555 1_555
O1 C3 1_555 1_555
H25 O1 1_555 1_555
O2 C5 1_555 1_555
H26 O2 1_555 1_555
O3 S1 1_555 1_555
O4 K2 1_555 1_555
O5 S1 1_555 1_555
O6 C16 1_555 1_555
H27 O6 1_555 1_555
O7 C18 1_555 1_555
H28 O7 1_555 1_555
O8 S2 1_555 1_555
O9 K1 1_555 1_555
O10 K1 1_555 1_555
O11 K1 1_555 1_555
O12 K1 1_555 1_555
O13 K1 1_555 1_555
O14 K2 1_555 1_555
S1 C11 1_555 1_555
S2 C24 1_555 1_555
K1A O9 1_555 1_555
K2A O8 1_555 1_555
K2_2 O10 1_555 1_555
H18_2 O12_2 1_555 1_555
H22_2 O12_2 1_555 1_555
O8A K2 1_555 1_555
O9A K1 1_555 1_555
O10_2 K2 1_555 1_555
O12_2 K2 1_555 1_555
K2 O11 1_555 1_555
K2 O9A 1_555 1_555
C5 C6 1_555 1_555
C8 N1 1_555 1_555
C12 C13 1_555 1_555
C18 C19 1_555 1_555
C21 N2 1_555 1_555
C25 C26 1_555 1_555
O4 S1 1_555 1_555
O9 S2 1_555 1_555
O9 K2A 1_555 1_555
O10 S2 1_555 1_555
O12 K2_2 1_555 1_555
K1A O9A 1_555 1_555

#END
