
#######################################################################
#
#                 Cambridge Crystallographic Data Centre
#                                CCDC 
#
#######################################################################
#
# If this CIF has been generated from an entry in the Cambridge 
# Structural Database, then it will include bibliographic, chemical, 
# crystal, experimental, refinement or atomic coordinate data resulting 
# from the CCDC's data processing and validation procedures.
#
#######################################################################

data_MAVRIL
_symmetry_cell_setting           orthorhombic
_symmetry_space_group_name_H-M   'P b c n'
_symmetry_Int_Tables_number      60
_space_group_name_Hall           '-P 2n 2ab'
loop_
_symmetry_equiv_pos_site_id
_symmetry_equiv_pos_as_xyz
1 x,y,z
2 1/2-x,1/2-y,1/2+z
3 -x,y,1/2-z
4 1/2+x,1/2-y,-z
5 -x,-y,-z
6 1/2+x,1/2+y,1/2-z
7 x,-y,1/2+z
8 1/2-x,1/2+y,z
_cell_length_a                   22.7878(15)
_cell_length_b                   7.1468(5)
_cell_length_c                   21.6265(14)
_cell_angle_alpha                90
_cell_angle_beta                 90
_cell_angle_gamma                90
_cell_volume                     3522.09
loop_
_atom_site_label
_atom_site_type_symbol
_atom_site_fract_x
_atom_site_fract_y
_atom_site_fract_z
U1 U 0.586340(18) 0.73238(5) 0.029409(16)
U2 U 0.649565(18) 0.87615(5) 0.189411(17)
U3 U 0.484141(17) 0.85808(5) 0.161123(16)
O1 O 0.5758(3) 0.8233(12) 0.1264(3)
O2 O 0.4848(3) 0.7439(9) 0.0566(3)
H1 H 0.4527 0.7115 0.0323
O3 O 0.5588(3) 0.9417(11) 0.2419(3)
H2 H 0.5575 1.0788 0.2425
O4 O 0.5834(3) 0.9671(10) 0.0021(4)
O5 O 0.5901(3) 0.4947(11) 0.0514(4)
O6 O 0.6491(4) 1.1169(11) 0.1728(5)
O7 O 0.6511(4) 0.6336(10) 0.2109(5)
O8 O 0.4836(4) 1.0986(10) 0.1403(4)
O9 O 0.4826(4) 0.6196(10) 0.1836(4)
O10 O 0.6821(3) 0.7844(11) 0.0776(3)
O11 O 0.7795(4) 0.7911(18) 0.0728(4)
O12 O 0.8807(4) 0.6612(12) -0.1326(4)
O13 O 0.8221(4) 0.5539(12) -0.2084(3)
O14 O 0.5449(4) 0.6129(10) -0.0622(4)
H3 H 0.524(4) 0.514(9) -0.061(5)
H4 H 0.533(5) 0.685(12) -0.091(4)
O15 O 0.7558(4) 0.8827(13) 0.1867(5)
H5 H 0.787(3) 0.939(13) 0.198(6)
H6 H 0.759(5) 0.767(4) 0.195(7)
N1 N 0.6771(4) 0.6888(12) -0.0433(4)
C1 C 0.7304(5) 0.7082(15) -0.0181(5)
C2 C 0.7813(5) 0.6868(15) -0.0516(4)
H9 H 0.8176 0.7024 -0.0328
C3 C 0.7778(5) 0.6421(15) -0.1134(5)
C4 C 0.7234(6) 0.6239(17) -0.1401(5)
H10 H 0.7195 0.5969 -0.1820
C5 C 0.6743(5) 0.6471(16) -0.1027(5)
H11 H 0.6374 0.6324 -0.1205
C6 C 0.7331(5) 0.7639(16) 0.0501(5)
C7 C 0.8310(5) 0.6175(14) -0.1538(5)
U2A U 0.850435(18) 0.62385(5) -0.310589(17)
U3B U 0.515859(17) 0.85808(5) 0.338877(16)
U3C U 0.984141(17) 0.64192(5) -0.161123(16)
O3B O 0.4412(3) 0.9417(11) 0.2581(3)
H2B H 0.4425 1.0788 0.2575
O12C O 0.3807(4) 0.8388(12) 0.1326(4)
O13A O 0.6779(4) 0.9461(12) 0.2916(3)
O16 O 0.5731(6) 1.3116(14) 0.2531(7)
H7 H 0.603(5) 1.358(19) 0.235(8)
H8 H 0.556(7) 1.396(16) 0.274(8)
loop_
_geom_bond_atom_site_label_1
_geom_bond_atom_site_label_2
_geom_bond_site_symmetry_1
_geom_bond_site_symmetry_2
U1 O1 1_555 1_555
U2 O1 1_555 1_555
U3 O1 1_555 1_555
O2 U1 1_555 1_555
H1 O2 1_555 1_555
O3 U2 1_555 1_555
H2 O3 1_555 1_555
O4 U1 1_555 1_555
O5 U1 1_555 1_555
O6 U2 1_555 1_555
O7 U2 1_555 1_555
O8 U3 1_555 1_555
O9 U3 1_555 1_555
O10 U1 1_555 1_555
O11 C6 1_555 1_555
O12 C7 1_555 1_555
O13 C7 1_555 1_555
O14 U1 1_555 1_555
H3 O14 1_555 1_555
H4 O14 1_555 1_555
O15 U2 1_555 1_555
H5 O15 1_555 1_555
H6 O15 1_555 1_555
O16 H7 1_555 1_555
H8 O16 1_555 1_555
N1 U1 1_555 1_555
C1 N1 1_555 1_555
C2 C1 1_555 1_555
H9 C2 1_555 1_555
C3 C2 1_555 1_555
C4 C3 1_555 1_555
H10 C4 1_555 1_555
C5 N1 1_555 1_555
H11 C5 1_555 1_555
C6 O10 1_555 1_555
C7 C3 1_555 1_555
U2A O13 1_555 1_555
U3B O3 1_555 1_555
U3C O12 1_555 1_555
O3B U3 1_555 1_555
H2B O3B 1_555 1_555
O12C U3 1_555 1_555
O13A U2 1_555 1_555
U2 O10 1_555 1_555
U3 O2 1_555 1_555
U3 O3 1_555 1_555
C1 C6 1_555 1_555
C4 C5 1_555 1_555
U3B O3B 1_555 1_555

#END
