
#######################################################################
#
#                 Cambridge Crystallographic Data Centre
#                                CCDC 
#
#######################################################################
#
# If this CIF has been generated from an entry in the Cambridge 
# Structural Database, then it will include bibliographic, chemical, 
# crystal, experimental, refinement or atomic coordinate data resulting 
# from the CCDC's data processing and validation procedures.
#
#######################################################################

data_MAVSUY
_symmetry_cell_setting           orthorhombic
_symmetry_space_group_name_H-M   'P b c a'
_symmetry_Int_Tables_number      61
_space_group_name_Hall           '-P 2ac 2ab'
loop_
_symmetry_equiv_pos_site_id
_symmetry_equiv_pos_as_xyz
1 x,y,z
2 1/2-x,-y,1/2+z
3 -x,1/2+y,1/2-z
4 1/2+x,1/2-y,-z
5 -x,-y,-z
6 1/2+x,y,1/2-z
7 x,1/2-y,1/2+z
8 1/2-x,1/2+y,z
_cell_length_a                   15.858(3)
_cell_length_b                   7.9685(16)
_cell_length_c                   16.775(3)
_cell_angle_alpha                90
_cell_angle_beta                 90
_cell_angle_gamma                90
_cell_volume                     2119.76
loop_
_atom_site_label
_atom_site_type_symbol
_atom_site_fract_x
_atom_site_fract_y
_atom_site_fract_z
Cd1 Cd 0.00851(3) 0.02709(6) 0.62046(3)
S1 S 0.03572(10) -0.2367(2) 0.70923(10)
S2 S 0.11805(11) 0.01223(19) 0.50516(9)
C1 C -0.0650(4) -0.2049(7) 0.7398(3)
C2 C -0.1783(4) -0.2611(9) 0.8222(4)
H1 H -0.2014 -0.3169 0.8672
C3 C -0.2297(4) -0.1527(9) 0.7787(5)
H2 H -0.2878 -0.1391 0.7910
C4 C -0.1923(5) -0.0669(10) 0.7176(5)
H3 H -0.2249 0.0111 0.6879
C5 C 0.1182(4) -0.2056(8) 0.4876(3)
C6 C 0.1664(5) -0.4695(9) 0.5110(5)
H4 H 0.2023 -0.5438 0.5395
C7 C 0.1149(5) -0.5361(9) 0.4510(5)
H5 H 0.1142 -0.6526 0.4390
C8 C 0.0652(5) -0.4225(9) 0.4103(4)
H6 H 0.0296 -0.4614 0.3687
N1 N -0.1108(4) -0.0894(7) 0.6983(3)
N2 N -0.0975(3) -0.2897(7) 0.8031(3)
N3 N 0.0660(3) -0.2576(6) 0.4283(3)
N4 N 0.1675(4) -0.3084(8) 0.5299(4)
Cd1D Cd -0.00851(3) -0.02709(6) 0.37954(3)
Cd1B Cd -0.00851(3) -0.47291(6) 0.87954(3)
S2D S -0.11805(11) -0.01223(19) 0.49484(9)
N2B N 0.0975(3) 0.2103(7) 0.6969(3)
N3D N -0.0660(3) 0.2576(6) 0.5717(3)
loop_
_geom_bond_atom_site_label_1
_geom_bond_atom_site_label_2
_geom_bond_site_symmetry_1
_geom_bond_site_symmetry_2
Cd1 S1 1_555 1_555
S1 C1 1_555 1_555
S2 Cd1 1_555 1_555
C1 N1 1_555 1_555
C2 H1 1_555 1_555
C3 C2 1_555 1_555
H2 C3 1_555 1_555
C4 C3 1_555 1_555
H3 C4 1_555 1_555
C5 S2 1_555 1_555
C6 H4 1_555 1_555
C7 C6 1_555 1_555
H5 C7 1_555 1_555
C8 C7 1_555 1_555
H6 C8 1_555 1_555
N1 Cd1 1_555 1_555
N2 C1 1_555 1_555
N3 C5 1_555 1_555
N4 C5 1_555 1_555
Cd1D S2 1_555 1_555
Cd1B N2 1_555 1_555
S2D Cd1 1_555 1_555
N2B Cd1 1_555 1_555
N3D Cd1 1_555 1_555
C2 N2 1_555 1_555
C4 N1 1_555 1_555
C6 N4 1_555 1_555
C8 N3 1_555 1_555
N3 Cd1D 1_555 1_555
Cd1D S2D 1_555 1_555

#END
