
#######################################################################
#
#                 Cambridge Crystallographic Data Centre
#                                CCDC 
#
#######################################################################
#
# If this CIF has been generated from an entry in the Cambridge 
# Structural Database, then it will include bibliographic, chemical, 
# crystal, experimental, refinement or atomic coordinate data resulting 
# from the CCDC's data processing and validation procedures.
#
#######################################################################

data_MAVSEI
_symmetry_cell_setting           monoclinic
_symmetry_space_group_name_H-M   'P 21/c'
_symmetry_Int_Tables_number      14
_space_group_name_Hall           '-P 2ybc'
loop_
_symmetry_equiv_pos_site_id
_symmetry_equiv_pos_as_xyz
1 x,y,z
2 -x,1/2+y,1/2-z
3 -x,-y,-z
4 x,1/2-y,1/2+z
_cell_length_a                   10.466(6)
_cell_length_b                   18.575(13)
_cell_length_c                   12.637(7)
_cell_angle_alpha                90
_cell_angle_beta                 108.47(6)
_cell_angle_gamma                90
_cell_volume                     2330.16
loop_
_atom_site_label
_atom_site_type_symbol
_atom_site_fract_x
_atom_site_fract_y
_atom_site_fract_z
Co1 Co 0.58959(3) 0.057162(18) 0.39351(3)
O1 O 0.44382(19) 0.10626(11) 0.44025(15)
O2 O 0.40990(19) 0.05104(10) 0.58598(15)
O3 O -0.0783(2) 0.27138(12) 0.45083(16)
O4 O -0.2537(2) 0.44041(11) 0.81498(15)
O5 O -0.3628(2) 0.34063(11) 0.82094(16)
N1 N 0.4452(2) 0.04623(12) 0.22831(18)
N2 N -0.2571(2) 0.06724(12) -0.44738(17)
C1 C 0.3817(3) 0.09741(13) 0.5096(2)
C2 C 0.2652(3) 0.14690(13) 0.5000(2)
C3 C 0.1950(3) 0.14314(16) 0.5763(2)
H1 H 0.2240 0.1117 0.6365
C4 C 0.0815(3) 0.18574(17) 0.5641(2)
H2 H 0.0355 0.1831 0.6160
C5 C 0.0386(3) 0.23175(15) 0.4742(2)
C6 C 0.1079(3) 0.23704(15) 0.3982(2)
H3 H 0.0788 0.2687 0.3383
C7 C 0.2211(3) 0.19493(15) 0.4115(2)
H4 H 0.2683 0.1989 0.3606
C8 C -0.1237(3) 0.29247(16) 0.5391(2)
C9 C -0.0452(3) 0.33675(17) 0.6212(3)
H5 H 0.0414 0.3490 0.6224
C10 C -0.0967(3) 0.36297(16) 0.7024(2)
H6 H -0.0450 0.3939 0.7572
C11 C -0.2244(3) 0.34343(14) 0.7023(2)
C12 C -0.2999(3) 0.29764(16) 0.6201(3)
H7 H -0.3850 0.2834 0.6203
C13 C -0.2498(3) 0.27248(17) 0.5367(3)
H8 H -0.3018 0.2426 0.4805
C14 C -0.2824(3) 0.37556(15) 0.7857(2)
C15 C 0.3773(3) 0.10584(17) 0.1826(2)
H9 H 0.3845 0.1463 0.2275
C16 C 0.2977(3) 0.11015(18) 0.0732(2)
H10 H 0.2532 0.1529 0.0456
C17 C 0.2836(3) 0.05080(17) 0.0036(2)
C18 C 0.3508(3) -0.01067(18) 0.0507(3)
H11 H 0.3427 -0.0523 0.0081
C19 C 0.4317(3) -0.01060(16) 0.1629(2)
H12 H 0.4778 -0.0525 0.1926
C20 C 0.1932(3) 0.0547(2) -0.1163(2)
H13 H 0.2117 0.0142 -0.1577
H14 H 0.2120 0.0986 -0.1503
C21 C 0.0456(3) 0.05361(19) -0.1226(2)
H15 H 0.0280 0.0086 -0.0907
H16 H 0.0307 0.0922 -0.0762
C22 C -0.0559(3) 0.06133(16) -0.2380(2)
C23 C -0.0367(3) 0.03167(16) -0.3320(2)
H17 H 0.0442 0.0091 -0.3273
C24 C -0.1379(3) 0.03567(16) -0.4329(2)
H18 H -0.1224 0.0151 -0.4949
C25 C -0.2730(3) 0.09797(17) -0.3570(2)
H19 H -0.3536 0.1217 -0.3645
C26 C -0.1767(3) 0.09653(19) -0.2530(2)
H20 H -0.1931 0.1193 -0.1930
Co1B Co 0.41041(3) -0.057162(18) 0.60649(3)
Co1C Co -0.41041(3) 0.442838(18) 0.89351(3)
Co1_2 Co -0.41041(3) 0.057162(18) -0.60649(3)
O2B O 0.59010(19) -0.05104(10) 0.41402(15)
O4C O 0.7463(2) 0.05959(11) 0.31498(15)
O5C O 0.6372(2) 0.15937(11) 0.32094(16)
N2_2 N 0.7429(2) 0.06724(12) 0.55262(17)
loop_
_geom_bond_atom_site_label_1
_geom_bond_atom_site_label_2
_geom_bond_site_symmetry_1
_geom_bond_site_symmetry_2
Co1 O1 1_555 1_555
O1 C1 1_555 1_555
O2 C1 1_555 1_555
O3 C5 1_555 1_555
O4 C14 1_555 1_555
O5 C14 1_555 1_555
N1 Co1 1_555 1_555
N2 C24 1_555 1_555
C1 C2 1_555 1_555
C2 C3 1_555 1_555
C3 H1 1_555 1_555
C4 C3 1_555 1_555
H2 C4 1_555 1_555
C5 C4 1_555 1_555
C6 C5 1_555 1_555
H3 C6 1_555 1_555
C7 C2 1_555 1_555
H4 C7 1_555 1_555
C8 O3 1_555 1_555
C9 C8 1_555 1_555
H5 C9 1_555 1_555
C10 C9 1_555 1_555
H6 C10 1_555 1_555
C11 C10 1_555 1_555
C12 C11 1_555 1_555
H7 C12 1_555 1_555
C13 C8 1_555 1_555
H8 C13 1_555 1_555
C14 C11 1_555 1_555
C15 N1 1_555 1_555
H9 C15 1_555 1_555
C16 C15 1_555 1_555
H10 C16 1_555 1_555
C17 C16 1_555 1_555
C18 C17 1_555 1_555
H11 C18 1_555 1_555
C19 N1 1_555 1_555
H12 C19 1_555 1_555
C20 C17 1_555 1_555
H13 C20 1_555 1_555
H14 C20 1_555 1_555
C21 C20 1_555 1_555
H15 C21 1_555 1_555
H16 C21 1_555 1_555
C22 C21 1_555 1_555
C23 C22 1_555 1_555
H17 C23 1_555 1_555
C24 C23 1_555 1_555
H18 C24 1_555 1_555
C25 N2 1_555 1_555
H19 C25 1_555 1_555
C26 C22 1_555 1_555
H20 C26 1_555 1_555
Co1B O2 1_555 1_555
Co1C O4 1_555 1_555
Co1_2 N2 1_555 1_555
O2B Co1 1_555 1_555
O4C Co1 1_555 1_555
O5C Co1 1_555 1_555
N2_2 Co1 1_555 1_555
O5 Co1C 1_555 1_555
C6 C7 1_555 1_555
C12 C13 1_555 1_555
C18 C19 1_555 1_555
C25 C26 1_555 1_555

#END
