
#######################################################################
#
#                 Cambridge Crystallographic Data Centre
#                                CCDC 
#
#######################################################################
#
# If this CIF has been generated from an entry in the Cambridge 
# Structural Database, then it will include bibliographic, chemical, 
# crystal, experimental, refinement or atomic coordinate data resulting 
# from the CCDC's data processing and validation procedures.
#
#######################################################################

data_MAVSIM
_symmetry_cell_setting           monoclinic
_symmetry_space_group_name_H-M   'C 2/c'
_symmetry_Int_Tables_number      15
_space_group_name_Hall           '-C 2yn'
loop_
_symmetry_equiv_pos_site_id
_symmetry_equiv_pos_as_xyz
1 x,y,z
2 1/2+x,1/2+y,z
3 -x,y,1/2-z
4 1/2-x,1/2+y,1/2-z
5 -x,-y,-z
6 1/2-x,1/2-y,-z
7 x,-y,1/2+z
8 1/2+x,1/2-y,1/2+z
_cell_length_a                   22.376(7)
_cell_length_b                   13.685(5)
_cell_length_c                   12.770(4)
_cell_angle_alpha                90
_cell_angle_beta                 116.207(6)
_cell_angle_gamma                90
_cell_volume                     3508.4
loop_
_atom_site_label
_atom_site_type_symbol
_atom_site_fract_x
_atom_site_fract_y
_atom_site_fract_z
Co1 Co 1.04737(3) 0.02900(5) 0.89168(6)
O1 O 0.97940(19) 0.1422(3) 0.8567(4)
O2 O 0.90616(18) 0.1186(3) 0.6722(4)
O3 O 0.81058(18) 0.5299(3) 0.7646(5)
O4 O 0.98524(16) 0.9130(2) 0.8476(3)
O5 O 0.92475(17) 0.9513(2) 0.9398(3)
N1 N 1.12709(18) -0.0673(3) 0.9364(3)
C1 C 0.9298(3) 0.1664(4) 0.7626(6)
C2 C 0.8982(2) 0.2629(3) 0.7641(4)
C3 C 0.9314(3) 0.3292(4) 0.8528(5)
H1 H 0.9728 0.3133 0.9125
C4 C 0.9031(3) 0.4194(4) 0.8533(5)
H2 H 0.9255 0.4636 0.9133
C5 C 0.8430(3) 0.4428(4) 0.7663(6)
C6 C 0.8093(3) 0.3782(4) 0.6805(5)
H3 H 0.7673 0.3940 0.6225
C7 C 0.8373(2) 0.2890(4) 0.6789(5)
H4 H 0.8141 0.2455 0.6184
C8 C 0.9429(2) 0.8925(4) 0.8840(4)
C9 C 0.9107(2) 0.7940(4) 0.8554(4)
C10 C 0.8669(3) 0.7653(4) 0.8989(6)
H5 H 0.8586 0.8070 0.9484
C11 C 0.8356(3) 0.6772(5) 0.8709(6)
H6 H 0.8064 0.6591 0.9014
C12 C 0.8472(3) 0.6154(4) 0.7983(6)
C13 C 0.8913(3) 0.6416(5) 0.7550(6)
H7 H 0.8998 0.5991 0.7064
C14 C 0.9224(3) 0.7301(4) 0.7835(6)
H8 H 0.9521 0.7475 0.7537
C15 C 1.1325(3) -0.1410(4) 1.0068(5)
H9 H 1.1023 -0.1449 1.0384
C16 C 1.1806(3) -0.2124(4) 1.0359(5)
H10 H 1.1830 -0.2618 1.0876
C17 C 1.2253(2) -0.2104(4) 0.9879(4)
C18 C 1.2199(2) -0.1330(4) 0.9168(5)
H11 H 1.2496 -0.1269 0.8843
C19 C 1.1711(2) -0.0643(4) 0.8928(4)
H12 H 1.1687 -0.0129 0.8435
Co1B Co 0.95263(3) 0.02900(5) 0.60832(6)
Co1_2 Co 1.04737(3) 1.02900(5) 0.89168(6)
Co1D Co 0.95263(3) 0.97100(5) 1.10832(6)
Co1E Co 1.45263(3) -0.52900(5) 1.10832(6)
Co1B_2 Co 0.95263(3) 1.02900(5) 0.60832(6)
Co1F Co 1.04737(3) 0.97100(5) 0.39168(6)
O1B O 1.02060(19) 0.1422(3) 0.6433(4)
O2B O 1.09384(18) 0.1186(3) 0.8278(4)
O3B O 1.18942(18) 0.5299(3) 0.7354(5)
O4B O 1.01476(16) 0.9130(2) 0.6524(3)
O4_2 O 0.98524(16) -0.0870(2) 0.8476(3)
O4B_2 O 1.01476(16) -0.0870(2) 0.6524(3)
O5B O 1.07525(17) 0.9513(2) 0.5602(3)
O5D O 1.07525(17) 0.0487(2) 1.0602(3)
O5F O 0.92475(17) 0.0487(2) 0.4398(3)
N1E N 1.37291(18) -0.4327(3) 1.0636(3)
N1B N 0.87291(18) -0.0673(3) 0.5636(3)
C1B C 1.0702(3) 0.1664(4) 0.7374(6)
C2B C 1.1018(2) 0.2629(3) 0.7359(4)
C3B C 1.0686(3) 0.3292(4) 0.6472(5)
H1B H 1.0272 0.3133 0.5875
C4B C 1.0969(3) 0.4194(4) 0.6467(5)
H2B H 1.0745 0.4636 0.5867
C5B C 1.1570(3) 0.4428(4) 0.7337(6)
C6B C 1.1907(3) 0.3782(4) 0.8195(5)
H3B H 1.2327 0.3940 0.8775
C7B C 1.1627(2) 0.2890(4) 0.8211(5)
H4B H 1.1859 0.2455 0.8816
C8B C 1.0571(2) 0.8925(4) 0.6160(4)
C9B C 1.0893(2) 0.7940(4) 0.6446(4)
C10B C 1.1331(3) 0.7653(4) 0.6011(6)
H5B H 1.1414 0.8070 0.5516
C11B C 1.1644(3) 0.6772(5) 0.6291(6)
H6B H 1.1936 0.6591 0.5986
C12B C 1.1528(3) 0.6154(4) 0.7017(6)
C13B C 1.1087(3) 0.6416(5) 0.7450(6)
H7B H 1.1002 0.5991 0.7936
C14B C 1.0776(3) 0.7301(4) 0.7165(6)
H8B H 1.0479 0.7475 0.7463
C15E C 1.3675(3) -0.3590(4) 0.9932(5)
H9E H 1.3977 -0.3551 0.9616
C16E C 1.3194(3) -0.2876(4) 0.9641(5)
H10E H 1.3170 -0.2382 0.9124
C17E C 1.2747(2) -0.2896(4) 1.0121(4)
C18E C 1.2801(2) -0.3670(4) 1.0832(5)
H11E H 1.2504 -0.3731 1.1157
C19E C 1.3289(2) -0.4357(4) 1.1072(4)
H12E H 1.3313 -0.4871 1.1565
loop_
_geom_bond_atom_site_label_1
_geom_bond_atom_site_label_2
_geom_bond_site_symmetry_1
_geom_bond_site_symmetry_2
Co1 O1 1_555 1_555
O1 C1 1_555 1_555
O2 C1 1_555 1_555
O3 C5 1_555 1_555
O4 C8 1_555 1_555
O5 C8 1_555 1_555
N1 Co1 1_555 1_555
C1 C2 1_555 1_555
C2 C3 1_555 1_555
C3 H1 1_555 1_555
C4 C3 1_555 1_555
H2 C4 1_555 1_555
C5 C4 1_555 1_555
C6 C5 1_555 1_555
H3 C6 1_555 1_555
C7 C2 1_555 1_555
H4 C7 1_555 1_555
C8 C9 1_555 1_555
C9 C10 1_555 1_555
C10 H5 1_555 1_555
C11 C10 1_555 1_555
H6 C11 1_555 1_555
C12 O3 1_555 1_555
C13 C12 1_555 1_555
H7 C13 1_555 1_555
C14 C9 1_555 1_555
H8 C14 1_555 1_555
C15 N1 1_555 1_555
H9 C15 1_555 1_555
C16 C15 1_555 1_555
H10 C16 1_555 1_555
C17 C16 1_555 1_555
C18 C17 1_555 1_555
H11 C18 1_555 1_555
C19 N1 1_555 1_555
H12 C19 1_555 1_555
Co1B O2 1_555 1_555
Co1_2 O4 1_555 1_555
Co1D O5 1_555 1_555
Co1E N1E 1_555 1_555
Co1B_2 O4B 1_555 1_555
Co1F O5B 1_555 1_555
O1B Co1B 1_555 1_555
O2B Co1 1_555 1_555
O3B C5B 1_555 1_555
O4B C8B 1_555 1_555
O4_2 Co1 1_555 1_555
O4B_2 Co1B 1_555 1_555
O5B C8B 1_555 1_555
O5D Co1 1_555 1_555
O5F Co1B 1_555 1_555
N1E C15E 1_555 1_555
N1B Co1B 1_555 1_555
C1B O1B 1_555 1_555
C2B C1B 1_555 1_555
C3B C2B 1_555 1_555
H1B C3B 1_555 1_555
C4B C3B 1_555 1_555
H2B C4B 1_555 1_555
C5B C4B 1_555 1_555
C6B C5B 1_555 1_555
H3B C6B 1_555 1_555
C7B C2B 1_555 1_555
H4B C7B 1_555 1_555
C8B C9B 1_555 1_555
C9B C10B 1_555 1_555
C10B H5B 1_555 1_555
C11B C10B 1_555 1_555
H6B C11B 1_555 1_555
C12B O3B 1_555 1_555
C13B C12B 1_555 1_555
H7B C13B 1_555 1_555
C14B C9B 1_555 1_555
H8B C14B 1_555 1_555
C15E H9E 1_555 1_555
C16E C15E 1_555 1_555
H10E C16E 1_555 1_555
C17E C17 1_555 1_555
C18E C17E 1_555 1_555
H11E C18E 1_555 1_555
C19E N1E 1_555 1_555
H12E C19E 1_555 1_555
C6 C7 1_555 1_555
C11 C12 1_555 1_555
C13 C14 1_555 1_555
C18 C19 1_555 1_555
O2B C1B 1_555 1_555
C6B C7B 1_555 1_555
C11B C12B 1_555 1_555
C13B C14B 1_555 1_555
C16E C17E 1_555 1_555
C18E C19E 1_555 1_555

#END
