
#######################################################################
#
#                 Cambridge Crystallographic Data Centre
#                                CCDC 
#
#######################################################################
#
# If this CIF has been generated from an entry in the Cambridge 
# Structural Database, then it will include bibliographic, chemical, 
# crystal, experimental, refinement or atomic coordinate data resulting 
# from the CCDC's data processing and validation procedures.
#
#######################################################################

data_MAVTUA
_symmetry_cell_setting           orthorhombic
_symmetry_space_group_name_H-M   'P b c a'
_symmetry_Int_Tables_number      61
_space_group_name_Hall           '-P 2ac 2ab'
loop_
_symmetry_equiv_pos_site_id
_symmetry_equiv_pos_as_xyz
1 x,y,z
2 1/2-x,-y,1/2+z
3 -x,1/2+y,1/2-z
4 1/2+x,1/2-y,-z
5 -x,-y,-z
6 1/2+x,y,1/2-z
7 x,1/2-y,1/2+z
8 1/2-x,1/2+y,z
_cell_length_a                   13.4362(14)
_cell_length_b                   29.6111(12)
_cell_length_c                   37.4139(18)
_cell_angle_alpha                90
_cell_angle_beta                 90
_cell_angle_gamma                90
_cell_volume                     14885.5
loop_
_atom_site_label
_atom_site_type_symbol
_atom_site_fract_x
_atom_site_fract_y
_atom_site_fract_z
C1 C 0.9062(3) 0.37056(14) 0.28532(11)
C2 C 0.9589(3) 0.34401(13) 0.30668(10)
H1 H 1.0295 0.3459 0.3063
C3 C 0.9126(3) 0.31317(13) 0.32996(11)
C4 C 0.8090(3) 0.31214(12) 0.33190(12)
H2 H 0.7768 0.2937 0.3492
C5 C 0.7540(3) 0.33779(12) 0.30890(11)
C6 C 0.8026(3) 0.36926(12) 0.28623(10)
H3 H 0.7647 0.3893 0.2718
C7 C 0.9550(3) 0.40246(14) 0.25948(10)
C8 C 0.9731(3) 0.28278(13) 0.35372(11)
C9 C 0.6064(3) 0.30446(14) 0.28860(11)
C10 C 0.5028(3) 0.29870(12) 0.29040(9)
C11 C 0.4561(3) 0.26410(13) 0.27262(11)
H4 H 0.3871 0.2591 0.2764
C12 C 0.5077(3) 0.23645(12) 0.24929(10)
C13 C 0.6128(3) 0.24437(14) 0.24487(11)
H5 H 0.6495 0.2270 0.2281
C14 C 0.6600(3) 0.27671(11) 0.26472(10)
H6 H 0.7299 0.2805 0.2624
C15 C 0.4580(3) 0.19593(12) 0.23243(10)
C16 C 0.0613(3) 0.18884(14) 0.16783(11)
C17 C 0.1140(3) 0.21967(12) 0.14685(10)
H7 H 0.1845 0.2222 0.1480
C18 C 0.0571(3) 0.24646(13) 0.12411(11)
C19 C -0.0428(3) 0.24326(15) 0.12211(11)
H8 H -0.0784 0.2629 0.1066
C20 C -0.0947(3) 0.21169(14) 0.14239(11)
C21 C -0.0432(3) 0.18332(12) 0.16451(10)
H9 H -0.0768 0.1603 0.1774
C22 C 0.1158(3) 0.15597(14) 0.19183(11)
C23 C -0.2066(3) 0.20886(13) 0.14025(10)
C24 C 0.1016(3) 0.27442(13) 0.06772(11)
C25 C 0.0956(2) 0.31192(13) 0.04632(10)
C26 C 0.0965(3) 0.30914(14) 0.00944(10)
H10 H 0.0972 0.3358 -0.0047
C27 C 0.0963(3) 0.26726(16) -0.00642(12)
C28 C 0.1022(3) 0.22843(14) 0.01439(11)
H11 H 0.1046 0.1996 0.0032
C29 C 0.1044(3) 0.23167(14) 0.05165(11)
H12 H 0.1077 0.2052 0.0659
C30 C 0.0940(3) 0.26460(15) -0.04665(11)
Co1 Co 0.94247(4) 0.478676(18) 0.205358(15)
Co2 Co 0.29449(4) 0.128879(18) 0.233959(14)
Co3 Co 1.09747(4) 0.236560(17) 0.387200(15)
N1 N 0.4400(3) 0.32816(12) 0.31172(9)
N2 N 0.0865(3) 0.35533(13) 0.06262(9)
O1 O 0.9078(2) 0.43697(10) 0.24859(7)
O2 O 1.0419(2) 0.39212(9) 0.24984(7)
O3 O 1.0660(2) 0.28697(10) 0.35299(8)
O4 O 0.9333(2) 0.25496(9) 0.37391(8)
O5 O 0.65116(19) 0.33702(9) 0.30954(7)
O6 O 0.4763(2) 0.35154(10) 0.33496(7)
O7 O 0.3510(2) 0.32948(9) 0.30416(8)
O8 O 0.3723(2) 0.18857(9) 0.24127(8)
O9 O 0.5120(2) 0.17263(9) 0.21096(7)
O10 O 0.2114(2) 0.16019(9) 0.19347(8)
O11 O 0.0670(2) 0.12892(9) 0.21005(7)
O12 O -0.2421(2) 0.17851(10) 0.16038(7)
O13 O -0.2513(2) 0.23241(9) 0.11812(7)
O14 O 0.1115(2) 0.27854(9) 0.10323(7)
O15 O 0.0272(3) 0.35900(9) 0.08775(9)
O16 O 0.1302(3) 0.38708(11) 0.04959(9)
O17 O 0.09033(19) 0.30143(9) -0.06422(7)
O18 O 0.0985(2) 0.22777(10) -0.06222(8)
O28 O 1.0815(2) 0.44463(10) 0.19618(7)
H20 H 1.0684 0.4138 0.1879
H21 H 1.1197 0.4435 0.2185
O29 O 1.0143(2) 0.52324(10) 0.23885(8)
H22 H 1.0759 0.5226 0.2439
H23 H 0.9662 0.5453 0.2480
O30 O 0.8124(2) 0.51276(9) 0.21471(8)
H24 H 0.7586 0.4983 0.2012
H25 H 0.8194 0.5442 0.2070
O31 O 0.8653(2) 0.43373(9) 0.17218(8)
H26 H 0.9113 0.4111 0.1626
H27 H 0.8351 0.4505 0.1524
O32 O 0.9682(2) 0.52207(9) 0.16274(7)
H28 H 0.9711 0.5533 0.1713
H29 H 0.9141 0.5191 0.1453
O33 O 0.3820(2) 0.09898(10) 0.27433(8)
H30 H 0.3443 0.0747 0.2859
H31 H 0.4470 0.1140 0.2753
O34 O 0.2006(2) 0.14187(9) 0.27662(7)
H32 H 0.2398 0.1448 0.2986
H33 H 0.1318 0.1434 0.2680
O35 O 0.2064(2) 0.06953(9) 0.22807(7)
H34 H 0.2489 0.0428 0.2307
H35 H 0.1758 0.0695 0.2043
O36 O 0.40172(19) 0.10069(9) 0.19932(7)
H36 H 0.4056 0.1189 0.1775
H37 H 0.4669 0.1003 0.2111
O37 O 1.07265(19) 0.17949(9) 0.35723(7)
H38 H 1.0515 0.1882 0.3331
H39 H 1.1341 0.1618 0.3558
Co3E Co -0.40253(4) 0.236560(17) 0.112800(15)
Co3F Co 0.09747(4) 0.263440(17) -0.112800(15)
O13E O 1.2487(2) 0.23241(9) 0.38188(7)
O17F O 1.09033(19) 0.19857(9) 0.43578(7)
O18F O 1.0985(2) 0.27223(10) 0.43778(8)
C31 C 0.0085(3) 0.10589(12) 0.09669(11)
C32 C -0.0619(3) 0.08833(14) 0.12077(11)
H13 H -0.0407 0.0757 0.1428
C33 C -0.1644(3) 0.08945(12) 0.11217(10)
C34 C -0.1918(3) 0.10681(14) 0.07913(11)
H14 H -0.2601 0.1079 0.0725
C35 C -0.1206(3) 0.12226(14) 0.05610(11)
C36 C -0.0200(3) 0.12203(14) 0.06334(11)
H15 H 0.0275 0.1324 0.0464
C37 C 0.1146(3) 0.10315(12) 0.10756(10)
C38 C -0.2370(3) 0.07157(17) 0.13797(12)
C39 C -0.1489(3) 0.17757(12) 0.01083(12)
C40 C -0.1429(3) 0.18782(13) -0.02492(12)
C41 C -0.1490(3) 0.23248(15) -0.03760(12)
H16 H -0.1489 0.2387 -0.0625
C42 C -0.1550(3) 0.26701(11) -0.01295(10)
C43 C -0.1552(3) 0.25633(13) 0.02346(10)
H17 H -0.1574 0.2802 0.0404
C44 C -0.1525(3) 0.21195(14) 0.03561(11)
H18 H -0.1532 0.2055 0.0605
C45 C -0.1599(3) 0.31264(13) -0.02692(12)
Co4 Co 0.33083(4) 0.128048(18) 0.092827(15)
N3 N -0.1400(3) 0.15175(12) -0.05190(10)
O19 O 0.1754(2) 0.12799(9) 0.09006(7)
O20 O 0.1407(2) 0.07775(9) 0.13254(8)
O21 O -0.2046(2) 0.05765(9) 0.16778(7)
H19 H -0.1572 0.0330 0.1638
O22 O -0.3257(2) 0.06737(11) 0.12803(8)
O23 O -0.1512(2) 0.13372(10) 0.02119(8)
O24 O -0.0994(2) 0.11708(11) -0.04545(8)
O25 O -0.1792(2) 0.16049(10) -0.08070(8)
O26 O -0.1598(2) 0.31751(9) -0.06011(8)
O27 O -0.1690(2) 0.34550(10) -0.00496(8)
O38 O 0.3343(2) 0.08433(10) 0.04923(8)
H40 H 0.2732 0.0662 0.0488
H41 H 0.3394 0.1018 0.0271
O39 O 0.4885(2) 0.12542(10) 0.09019(8)
H42 H 0.5132 0.1497 0.0748
H43 H 0.5163 0.1290 0.1142
O40 O 0.3420(2) 0.17191(10) 0.13688(7)
H44 H 0.4052 0.1884 0.1358
H45 H 0.2822 0.1690 0.1517
O41 O 0.3307(2) 0.07570(9) 0.13153(8)
H46 H 0.3787 0.0577 0.1355
H47 H 0.2668 0.0756 0.1442
Co4C Co -0.16917(4) 0.371952(18) -0.092827(15)
O26C O 0.3402(2) 0.18249(9) 0.06011(8)
O42 O 0.8751(5) 0.4350(2) 0.10425(17)
H48 H 0.8382 0.4143 0.0957
H49 H 0.9350 0.4304 0.0979
H50 H 0.7534 0.0648 1.0024
H51 H 0.7897 0.0270 0.9849
O43 O 0.7880(4) 0.0410(2) 1.0047(2)
O44 O 0.7303(5) 0.3735(3) 0.15953(18)
H52 H 0.7819 0.3572 0.1618
H53 H 0.7349 0.3964 0.1732
O45 O 0.6752(5) 0.4196(3) 0.0799(2)
H54 H 0.6387 0.4013 0.0683
H55 H 0.6888 0.4077 0.1000
O46 O 0.5670(6) 0.4745(3) 0.0575(2)
H56 H 0.6064 0.4545 0.0657
H57 H 0.5749 0.4769 0.0351
O47 O 0.4017(7) 0.4917(4) 0.1497(3)
H58 H 0.3569 0.5115 0.1461
H59 H 0.3747 0.4668 0.1554
O48 O 0.3125(6) 0.4435(3) 0.1005(2)
H60 H 0.3414 0.4591 0.1164
H61 H 0.3472 0.4203 0.0958
O49 O 0.6918(5) 0.4408(2) -0.00593(17)
H62 H 0.6296 0.4387 -0.0021
H63 H 0.7141 0.4592 0.0096
O50 O 0.0240(7) 0.5229(3) 0.0401(3)
H64 H 0.0840 0.5156 0.0360
H65 H 0.0218 0.5402 0.0583
O51 O 0.6107(8) 0.4315(3) 0.1630(3)
H66 H 0.5493 0.4382 0.1618
H67 H 0.6248 0.4099 0.1488
loop_
_geom_bond_atom_site_label_1
_geom_bond_atom_site_label_2
_geom_bond_site_symmetry_1
_geom_bond_site_symmetry_2
C1 C2 1_555 1_555
C2 H1 1_555 1_555
C3 C2 1_555 1_555
C4 C3 1_555 1_555
H2 C4 1_555 1_555
C5 C4 1_555 1_555
C6 C1 1_555 1_555
H3 C6 1_555 1_555
C7 C1 1_555 1_555
C8 C3 1_555 1_555
C9 C10 1_555 1_555
C10 C11 1_555 1_555
C11 H4 1_555 1_555
C12 C11 1_555 1_555
C13 C12 1_555 1_555
H5 C13 1_555 1_555
C14 C9 1_555 1_555
H6 C14 1_555 1_555
C15 C12 1_555 1_555
C16 C17 1_555 1_555
C17 H7 1_555 1_555
C18 C17 1_555 1_555
C19 C18 1_555 1_555
H8 C19 1_555 1_555
C20 C19 1_555 1_555
C21 C16 1_555 1_555
H9 C21 1_555 1_555
C22 C16 1_555 1_555
C23 C20 1_555 1_555
C24 C25 1_555 1_555
C25 C26 1_555 1_555
C26 H10 1_555 1_555
C27 C26 1_555 1_555
C28 C27 1_555 1_555
H11 C28 1_555 1_555
C29 C24 1_555 1_555
H12 C29 1_555 1_555
C30 C27 1_555 1_555
C31 C32 1_555 1_555
C32 H13 1_555 1_555
C33 C32 1_555 1_555
C34 C33 1_555 1_555
H14 C34 1_555 1_555
C35 C34 1_555 1_555
C36 C31 1_555 1_555
H15 C36 1_555 1_555
C37 C31 1_555 1_555
C38 C33 1_555 1_555
C39 C40 1_555 1_555
C40 C41 1_555 1_555
C41 H16 1_555 1_555
C42 C41 1_555 1_555
C43 C42 1_555 1_555
H17 C43 1_555 1_555
C44 C39 1_555 1_555
H18 C44 1_555 1_555
C45 C42 1_555 1_555
Co1 O1 1_555 1_555
Co2 O8 1_555 1_555
Co3 O3 1_555 1_555
Co4 O19 1_555 1_555
N1 C10 1_555 1_555
N2 C25 1_555 1_555
N3 C40 1_555 1_555
O1 C7 1_555 1_555
O2 C7 1_555 1_555
O3 C8 1_555 1_555
O4 C8 1_555 1_555
O5 C5 1_555 1_555
O6 N1 1_555 1_555
O7 N1 1_555 1_555
O8 C15 1_555 1_555
O9 C15 1_555 1_555
O10 C22 1_555 1_555
O11 C22 1_555 1_555
O12 C23 1_555 1_555
O13 C23 1_555 1_555
O14 C18 1_555 1_555
O15 N2 1_555 1_555
O16 N2 1_555 1_555
O17 C30 1_555 1_555
O18 C30 1_555 1_555
O19 C37 1_555 1_555
O20 C37 1_555 1_555
O21 C38 1_555 1_555
H19 O21 1_555 1_555
O22 C38 1_555 1_555
O23 C35 1_555 1_555
O24 N3 1_555 1_555
O25 N3 1_555 1_555
O26 C45 1_555 1_555
O27 C45 1_555 1_555
O28 Co1 1_555 1_555
H20 O28 1_555 1_555
H21 O28 1_555 1_555
O29 Co1 1_555 1_555
H22 O29 1_555 1_555
H23 O29 1_555 1_555
O30 Co1 1_555 1_555
H24 O30 1_555 1_555
H25 O30 1_555 1_555
O31 Co1 1_555 1_555
H26 O31 1_555 1_555
H27 O31 1_555 1_555
O32 Co1 1_555 1_555
H28 O32 1_555 1_555
H29 O32 1_555 1_555
O33 Co2 1_555 1_555
H30 O33 1_555 1_555
H31 O33 1_555 1_555
O34 Co2 1_555 1_555
H32 O34 1_555 1_555
H33 O34 1_555 1_555
O35 Co2 1_555 1_555
H34 O35 1_555 1_555
H35 O35 1_555 1_555
O36 Co2 1_555 1_555
H36 O36 1_555 1_555
H37 O36 1_555 1_555
O37 Co3 1_555 1_555
H38 O37 1_555 1_555
H39 O37 1_555 1_555
O38 Co4 1_555 1_555
H40 O38 1_555 1_555
H41 O38 1_555 1_555
O39 Co4 1_555 1_555
H42 O39 1_555 1_555
H43 O39 1_555 1_555
O40 Co4 1_555 1_555
H44 O40 1_555 1_555
H45 O40 1_555 1_555
O41 Co4 1_555 1_555
H46 O41 1_555 1_555
H47 O41 1_555 1_555
O42 H48 1_555 1_555
H49 O42 1_555 1_555
H50 O43 1_555 1_555
H51 O43 1_555 1_555
O44 H52 1_555 1_555
H53 O44 1_555 1_555
O45 H54 1_555 1_555
H55 O45 1_555 1_555
O46 H56 1_555 1_555
H57 O46 1_555 1_555
O47 H58 1_555 1_555
H59 O47 1_555 1_555
O48 H60 1_555 1_555
H61 O48 1_555 1_555
O49 H62 1_555 1_555
H63 O49 1_555 1_555
O50 H64 1_555 1_555
H65 O50 1_555 1_555
O51 H66 1_555 1_555
H67 O51 1_555 1_555
Co3E O13 1_555 1_555
Co3F O17 1_555 1_555
Co4C O26 1_555 1_555
O13E Co3 1_555 1_555
O17F Co3 1_555 1_555
O18F Co3 1_555 1_555
O26C Co4 1_555 1_555
C5 C6 1_555 1_555
C9 O5 1_555 1_555
C13 C14 1_555 1_555
C20 C21 1_555 1_555
C24 O14 1_555 1_555
C28 C29 1_555 1_555
C35 C36 1_555 1_555
C39 O23 1_555 1_555
C43 C44 1_555 1_555
Co2 O10 1_555 1_555
Co3 O4 1_555 1_555
O18 Co3F 1_555 1_555

#END
