
#######################################################################
#
#                 Cambridge Crystallographic Data Centre
#                                CCDC 
#
#######################################################################
#
# If this CIF has been generated from an entry in the Cambridge 
# Structural Database, then it will include bibliographic, chemical, 
# crystal, experimental, refinement or atomic coordinate data resulting 
# from the CCDC's data processing and validation procedures.
#
#######################################################################

data_MAWDUL
_symmetry_cell_setting           triclinic
_symmetry_space_group_name_H-M   'P -1'
_symmetry_Int_Tables_number      2
_space_group_name_Hall           '-P 1'
loop_
_symmetry_equiv_pos_site_id
_symmetry_equiv_pos_as_xyz
1 x,y,z
2 -x,-y,-z
_cell_length_a                   16.861(3)
_cell_length_b                   18.896(4)
_cell_length_c                   42.547(9)
_cell_angle_alpha                88.032(9)
_cell_angle_beta                 88.979(10)
_cell_angle_gamma                66.792(9)
_cell_volume                     12451.3
loop_
_atom_site_label
_atom_site_type_symbol
_atom_site_fract_x
_atom_site_fract_y
_atom_site_fract_z
C1 C 0.2400(5) 0.0010(4) 0.89616(17)
C2 C 0.1978(5) -0.0011(4) 0.86512(18)
C3 C 0.3425(5) -0.0721(4) 0.93443(17)
C4 C 0.3038(6) -0.0723(4) 0.96418(19)
C5 C 0.3536(7) -0.0785(5) 0.9905(2)
H1 H 0.3310 -0.0810 1.0104
C6 C 0.4354(7) -0.0811(4) 0.9874(2)
H2 H 0.4677 -0.0843 1.0053
C7 C 0.4705(7) -0.0792(5) 0.9582(2)
H3 H 0.5259 -0.0802 0.9563
C8 C 0.4227(6) -0.0757(5) 0.93167(19)
C9 C 0.2125(7) -0.0662(6) 0.9671(2)
H4 H 0.1887 -0.0629 0.9465
H5 H 0.1787 -0.0208 0.9783
H6 H 0.2116 -0.1108 0.9783
C10 C 0.4607(7) -0.0747(7) 0.8987(2)
H7 H 0.5180 -0.0761 0.9005
H8 H 0.4252 -0.0285 0.8874
H9 H 0.4627 -0.1188 0.8877
C11 C 0.3838(5) -0.2943(4) 0.8570(2)
C12 C 0.4087(6) -0.2960(4) 0.89092(19)
C13 C 0.2998(6) -0.2163(5) 0.8153(2)
C14 C 0.3270(7) -0.1718(7) 0.7943(2)
C15 C 0.2940(11) -0.1541(8) 0.7641(3)
H10 H 0.3074 -0.1231 0.7492
C16 C 0.2295(9) -0.1954(13) 0.7590(4)
H11 H 0.2046 -0.1897 0.7392
C17 C 0.2085(12) -0.2366(9) 0.7802(4)
H12 H 0.1675 -0.2562 0.7755
C18 C 0.2431(7) -0.2501(7) 0.8066(3)
C19 C 0.2171(8) -0.2999(8) 0.8300(4)
H13 H 0.2477 -0.3051 0.8494
H14 H 0.2312 -0.3499 0.8215
H15 H 0.1561 -0.2761 0.8339
C20 C 0.3868(8) -0.1383(8) 0.8038(3)
H16 H 0.4040 -0.1538 0.8251
H17 H 0.3590 -0.0831 0.8021
H18 H 0.4367 -0.1558 0.7903
C21 C 0.2528(5) 0.2384(4) 0.86014(18)
C22 C 0.2135(5) 0.2727(4) 0.89212(16)
C23 C 0.3278(6) 0.2546(5) 0.8151(2)
C24 C 0.4146(8) 0.2113(5) 0.8107(2)
C25 C 0.4456(8) 0.1929(7) 0.7806(3)
H19 H 0.5039 0.1636 0.7772
C26 C 0.3897(10) 0.2182(9) 0.7554(3)
H20 H 0.4108 0.2070 0.7350
C27 C 0.3016(9) 0.2607(7) 0.7603(2)
H21 H 0.2636 0.2761 0.7435
C28 C 0.2724(6) 0.2792(5) 0.7903(2)
C29 C 0.1731(7) 0.3271(6) 0.7967(2)
H22 H 0.1637 0.3352 0.8189
H23 H 0.1404 0.2993 0.7896
H24 H 0.1551 0.3760 0.7857
C30 C 0.4769(7) 0.1838(5) 0.8385(2)
H25 H 0.5341 0.1548 0.8310
H26 H 0.4592 0.1519 0.8526
H27 H 0.4763 0.2276 0.8495
C31 C 0.3487(6) 0.4753(4) 0.88411(19)
C32 C 0.4066(6) 0.4291(5) 0.8569(2)
C33 C 0.2384(6) 0.4823(4) 0.91952(18)
C34 C 0.2681(7) 0.4661(5) 0.9496(2)
C35 C 0.2138(8) 0.5029(6) 0.9740(2)
H28 H 0.2338 0.4938 0.9945
C36 C 0.1295(9) 0.5533(6) 0.9677(3)
H29 H 0.0932 0.5783 0.9841
C37 C 0.1008(7) 0.5659(5) 0.9384(2)
H30 H 0.0433 0.5979 0.9348
C38 C 0.1529(6) 0.5334(4) 0.9127(2)
C39 C 0.1208(7) 0.5478(6) 0.8800(3)
H31 H 0.0618 0.5841 0.8798
H32 H 0.1245 0.5003 0.8713
H33 H 0.1553 0.5683 0.8675
C40 C 0.3532(9) 0.4114(7) 0.9562(3)
H34 H 0.3819 0.3907 0.9369
H35 H 0.3502 0.3704 0.9695
H36 H 0.3849 0.4361 0.9667
C41 C -0.0234(5) 0.2740(4) 0.86350(18)
C42 C -0.0385(6) 0.2322(5) 0.8929(2)
C43 C -0.0861(5) 0.3678(5) 0.82496(16)
C44 C -0.0746(6) 0.4364(6) 0.8271(2)
C45 C -0.0660(7) 0.4758(6) 0.7999(3)
H37 H -0.0583 0.5217 0.8013
C46 C -0.0687(8) 0.4465(8) 0.7706(3)
H38 H -0.0629 0.4729 0.7524
C47 C -0.0802(8) 0.3779(8) 0.76848(16)
H39 H -0.0820 0.3583 0.7489
C48 C -0.0889(7) 0.3385(6) 0.7957(2)
C49 C -0.1128(15) 0.2641(14) 0.7968(5)
H40 H -0.1182 0.2495 0.8183
H41 H -0.0680 0.2223 0.7867
H42 H -0.1664 0.2760 0.7862
C50 C -0.0684(10) 0.4677(7) 0.8540(5)
H43 H -0.0609 0.5149 0.8496
H44 H -0.0197 0.4326 0.8656
H45 H -0.1201 0.4783 0.8662
C51 C -0.3623(5) 0.4292(4) 0.89475(18)
C52 C -0.3418(6) 0.4669(5) 0.86434(19)
C53 C -0.3056(5) 0.3294(4) 0.93368(19)
C54 C -0.2603(6) 0.3326(5) 0.9602(2)
C55 C -0.2735(7) 0.2976(5) 0.9877(2)
H46 H -0.2463 0.3024 1.0059
C56 C -0.3234(7) 0.2574(6) 0.9896(2)
H47 H -0.3271 0.2317 1.0082
C57 C -0.3693(7) 0.2545(5) 0.9636(2)
H48 H -0.4064 0.2289 0.9652
C58 C -0.3609(6) 0.2899(4) 0.9344(2)
C59 C -0.4096(7) 0.2852(5) 0.9067(2)
H49 H -0.4430 0.2555 0.9121
H50 H -0.3701 0.2610 0.8900
H51 H -0.4475 0.3362 0.8999
C60 C -0.2032(6) 0.3752(6) 0.9590(2)
H52 H -0.2031 0.3961 0.9381
H53 H -0.1456 0.3408 0.9646
H54 H -0.2237 0.4164 0.9736
N1 N 0.2915(4) -0.0670(3) 0.90623(15)
N2 N 0.3320(5) -0.2276(4) 0.84651(17)
N3 N 0.2980(5) 0.2747(3) 0.84658(14)
N4 N 0.2937(4) 0.4471(4) 0.89323(16)
N5 N -0.0917(5) 0.3325(4) 0.85346(16)
N6 N -0.2960(4) 0.3698(4) 0.90484(15)
O1 O 0.2210(4) 0.0653(3) 0.90835(12)
O2 O 0.1481(4) 0.0623(3) 0.85285(12)
O3 O 0.2167(4) -0.0663(3) 0.85309(14)
O4 O 0.4126(4) -0.3578(3) 0.84290(13)
O5 O 0.4571(4) -0.3595(3) 0.90321(14)
O6 O 0.3792(4) -0.2332(3) 0.90506(14)
O7 O 0.2397(4) 0.1823(3) 0.85101(12)
O8 O 0.1700(4) 0.2437(3) 0.90658(12)
O9 O 0.2282(4) 0.3297(3) 0.90096(12)
O10 O 0.3614(4) 0.5320(3) 0.89341(14)
O11 O 0.4643(4) 0.4518(3) 0.84703(14)
O12 O 0.3937(4) 0.3737(3) 0.84731(14)
O13 O 0.0490(4) 0.2483(3) 0.85114(12)
O14 O 0.0222(4) 0.1800(3) 0.90443(16)
O15 O -0.1189(4) 0.2568(3) 0.90239(16)
O16 O -0.4378(4) 0.4595(3) 0.90569(13)
O17 O -0.4029(4) 0.5216(3) 0.85202(13)
O18 O -0.2659(4) 0.4383(3) 0.85456(14)
Mn1 Mn 0.14356(8) 0.15952(6) 0.87883(3)
Mn2 Mn 0.47337(8) -0.45505(6) 0.87426(3)
Cu1 Cu 0.29716(7) -0.14994(5) 0.87947(2)
Cu2 Cu 0.30134(7) 0.35746(5) 0.87126(2)
Cu3 Cu -0.19364(6) 0.34847(5) 0.87931(2)
S1 S 0.1542(3) -0.22037(15) 0.92424(9)
O37 O 0.1798(5) -0.1747(4) 0.8995(2)
C185 C 0.0694(8) -0.2388(7) 0.9072(4)
H253 H 0.0192 -0.1916 0.9052
H254 H 0.0560 -0.2749 0.9204
H255 H 0.0870 -0.2600 0.8868
C186 C 0.2332(8) -0.3150(5) 0.9248(3)
H256 H 0.2850 -0.3159 0.9341
H257 H 0.2453 -0.3326 0.9036
H258 H 0.2125 -0.3481 0.9368
O10_2 O 0.3614(4) -0.4680(3) 0.89341(14)
O11_2 O 0.4643(4) -0.5482(3) 0.84703(14)
O16_2 O 0.5622(4) -0.5405(3) 0.90569(13)
O17_2 O 0.5971(4) -0.4784(3) 0.85202(13)
Mn2_2 Mn 0.47337(8) 0.54495(6) 0.87426(3)
Mn2_3 Mn -0.52663(8) 0.54495(6) 0.87426(3)
C61 C 0.6376(5) 0.2864(5) 0.64511(19)
C62 C 0.6001(5) 0.2920(5) 0.61258(19)
C63 C 0.7255(6) 0.2018(4) 0.6843(2)
C64 C 0.8137(7) 0.1824(5) 0.6894(3)
C65 C 0.8487(10) 0.1572(7) 0.7183(4)
H55 H 0.9074 0.1433 0.7217
C66 C 0.7963(15) 0.1530(7) 0.7420(4)
H56 H 0.8199 0.1368 0.7619
C67 C 0.7081(10) 0.1718(5) 0.7381(3)
H57 H 0.6743 0.1677 0.7550
C68 C 0.6718(7) 0.1968(4) 0.7087(2)
C69 C 0.5787(7) 0.2190(6) 0.7036(2)
H58 H 0.5653 0.2340 0.6819
H59 H 0.5464 0.2613 0.7166
H60 H 0.5637 0.1760 0.7089
C70 C 0.8710(7) 0.1915(8) 0.6627(4)
H61 H 0.8372 0.2103 0.6440
H62 H 0.9168 0.1425 0.6588
H63 H 0.8952 0.2275 0.6685
C71 C 0.7704(5) -0.0067(4) 0.60289(18)
C72 C 0.8144(5) -0.0031(5) 0.63361(19)
C73 C 0.6718(7) 0.0658(5) 0.5645(2)
C74 C 0.7128(8) 0.0619(5) 0.5354(2)
C75 C 0.6558(14) 0.0665(6) 0.5071(3)
H64 H 0.6788 0.0614 0.4869
C76 C 0.5714(12) 0.0782(7) 0.5116(3)
H65 H 0.5381 0.0821 0.4940
C77 C 0.5330(11) 0.0845(7) 0.5400(3)
H66 H 0.4749 0.0928 0.5418
C78 C 0.5840(8) 0.0779(5) 0.5670(2)
C79 C 0.5412(7) 0.0850(8) 0.5979(3)
H67 H 0.4818 0.0931 0.5951
H68 H 0.5441 0.1280 0.6085
H69 H 0.5696 0.0387 0.6103
C80 C 0.8059(10) 0.0506(6) 0.5331(3)
H70 H 0.8229 0.0486 0.5114
H71 H 0.8408 0.0031 0.5438
H72 H 0.8135 0.0927 0.5428
C81 C 0.6583(5) -0.4795(4) 0.61870(19)
C82 C 0.6131(5) -0.4420(4) 0.64881(18)
C83 C 0.7496(8) -0.4740(7) 0.5770(2)
C84 C 0.8318(11) -0.5240(8) 0.5771(3)
C85 C 0.8773(13) -0.5531(9) 0.5486(4)
H73 H 0.9345 -0.5878 0.5475
C86 C 0.820(2) -0.5204(18) 0.5213(4)
H74 H 0.8452 -0.5347 0.5016
C87 C 0.7426(14) -0.475(2) 0.5217(4)
H75 H 0.7099 -0.4614 0.5034
C88 C 0.7078(11) -0.4481(14) 0.5501(3)
C89 C 0.6140(12) -0.389(2) 0.5510(4)
H76 H 0.5920 -0.3773 0.5299
H77 H 0.6119 -0.3429 0.5603
H78 H 0.5796 -0.4101 0.5632
C90 C 0.8820(11) -0.5491(10) 0.6080(4)
H79 H 0.9395 -0.5854 0.6038
H80 H 0.8534 -0.5727 0.6219
H81 H 0.8845 -0.5049 0.6177
C91 C 0.7560(5) -0.2423(4) 0.64048(18)
C92 C 0.7946(6) -0.2778(4) 0.60884(19)
C93 C 0.6787(6) -0.2554(5) 0.68503(19)
C94 C 0.5906(6) -0.1999(5) 0.6875(2)
C95 C 0.5595(7) -0.1795(6) 0.7178(2)
H82 H 0.5040 -0.1421 0.7203
C96 C 0.6069(8) -0.2123(6) 0.7441(2)
H83 H 0.5830 -0.1988 0.7640
C97 C 0.6897(8) -0.2648(6) 0.7409(2)
H84 H 0.7227 -0.2859 0.7587
C98 C 0.7248(7) -0.2869(5) 0.7116(2)
C99 C 0.8180(8) -0.3436(6) 0.7084(2)
H85 H 0.8322 -0.3522 0.6865
H86 H 0.8251 -0.3914 0.7189
H87 H 0.8554 -0.3228 0.7177
C100 C 0.5403(7) -0.1662(7) 0.6596(2)
H88 H 0.5741 -0.1878 0.6412
H89 H 0.5243 -0.1115 0.6590
H90 H 0.4892 -0.1770 0.6599
C101 C 1.3755(5) -0.4306(4) 0.61520(19)
C102 C 1.3567(6) -0.4697(5) 0.6455(2)
C103 C 1.3176(5) -0.3277(5) 0.5784(2)
C104 C 1.2717(7) -0.3349(6) 0.5501(2)
C105 C 1.2768(10) -0.2922(8) 0.5242(3)
H91 H 1.2453 -0.2928 0.5066
C106 C 1.3256(10) -0.2483(8) 0.5224(4)
H92 H 1.3299 -0.2236 0.5036
C107 C 1.3712(7) -0.2409(7) 0.5509(4)
H93 H 1.4016 -0.2092 0.5513
C108 C 1.3650(6) -0.2850(6) 0.5770(3)
C109 C 1.4084(10) -0.2777(8) 0.6047(3)
H94 H 1.4385 -0.2448 0.6000
H95 H 1.4489 -0.3277 0.6116
H96 H 1.3668 -0.2559 0.6211
C110 C 1.2267(10) -0.3828(8) 0.5497(3)
H97 H 1.2315 -0.4085 0.5699
H98 H 1.2506 -0.4203 0.5338
H99 H 1.1671 -0.3525 0.5452
C111 C 1.0323(6) -0.2817(4) 0.64182(19)
C112 C 1.0558(6) -0.2383(5) 0.6148(2)
C113 C 1.0851(14) -0.3989(10) 0.6723(3)
C114 C 1.0983(11) -0.4016(8) 0.7046(3)
C115 C 1.0827(11) -0.4561(9) 0.7236(3)
H100 H 1.0915 -0.4579 0.7452
C116 C 1.0538(13) -0.5078(9) 0.7104(4)
H101 H 1.0433 -0.5442 0.7231
C117 C 1.0406(16) -0.5051(12) 0.6781(5)
H102 H 1.0213 -0.5397 0.6692
C118 C 1.0563(17) -0.4506(13) 0.6591(3)
C119 C 1.036(3) -0.445(2) 0.6290(11)
H103 H 1.0516 -0.4063 0.6187
H104 H 0.9755 -0.4318 0.6269
H105 H 1.0675 -0.4939 0.6194
C120 C 1.138(2) -0.3454(13) 0.7176(7)
H106 H 1.1438 -0.3526 0.7400
H107 H 1.1000 -0.2931 0.7126
H108 H 1.1932 -0.3563 0.7082
N7 N 0.6937(4) 0.2183(4) 0.65283(16)
N8 N 0.7199(5) 0.0611(4) 0.59261(15)
N9 N 0.7067(5) -0.4460(4) 0.60640(17)
N10 N 0.7125(5) -0.2782(4) 0.65490(15)
N11 N 1.3082(4) -0.3702(4) 0.60525(16)
N12 N 1.0989(4) -0.3421(4) 0.65166(16)
O19 O 0.6093(4) 0.3472(3) 0.66110(12)
O20 O 0.5485(4) 0.3562(3) 0.60233(13)
O21 O 0.6246(4) 0.2301(3) 0.59714(13)
O22 O 0.7873(4) -0.0709(3) 0.59141(12)
O23 O 0.8610(4) -0.0667(3) 0.64644(13)
O24 O 0.8018(4) 0.0602(3) 0.64382(14)
O25 O 0.6467(3) -0.5359(3) 0.60877(13)
O26 O 0.5641(4) -0.4681(3) 0.66150(13)
O27 O 0.6315(4) -0.3879(3) 0.65928(13)
O28 O 0.7675(3) -0.1851(3) 0.64977(13)
O29 O 0.8406(4) -0.2481(3) 0.59427(13)
O30 O 0.7783(5) -0.3316(3) 0.60000(13)
O31 O 1.4490(4) -0.4590(3) 0.60372(14)
O32 O 1.4169(4) -0.5245(4) 0.65727(14)
O33 O 1.2800(4) -0.4418(4) 0.65572(18)
O34 O 0.9560(3) -0.2571(3) 0.65144(13)
O35 O 0.9951(4) -0.1834(4) 0.60227(16)
O36 O 1.1339(4) -0.2596(4) 0.60726(17)
Mn3 Mn 0.86682(8) -0.16572(6) 0.62174(3)
Mn4 Mn 0.53938(8) 0.44885(6) 0.63234(3)
Cu4 Cu 0.71706(6) 0.14502(5) 0.61890(2)
Cu5 Cu 0.70733(7) -0.36126(5) 0.63026(2)
Cu6 Cu 1.20515(7) -0.35365(6) 0.62971(3)
S2 S 0.8072(4) 0.2598(3) 0.59531(13)
O38 O 0.822(2) 0.178(2) 0.5932(7)
C187 C 0.9134(15) 0.2581(19) 0.5930(8)
H259 H 0.9488 0.2228 0.6088
H260 H 0.9113 0.3087 0.5964
H261 H 0.9374 0.2417 0.5726
C188 C 0.751(3) 0.316(2) 0.5637(13)
H262 H 0.6904 0.3257 0.5660
H263 H 0.7721 0.2893 0.5446
H264 H 0.7577 0.3639 0.5630
O25_2 O 0.6467(3) 0.4641(3) 0.60877(13)
O26_2 O 0.5641(4) 0.5319(3) 0.66150(13)
O31_2 O 0.4490(4) 0.5410(3) 0.60372(14)
O32_2 O 0.4169(4) 0.4755(4) 0.65727(14)
Mn4_2 Mn 0.53938(8) -0.55115(6) 0.63234(3)
Mn4_3 Mn 1.53938(8) -0.55115(6) 0.63234(3)
C121 C 0.7604(6) 0.9431(5) 0.7719(2)
H109 H 0.7994 0.9373 0.7892
H110 H 0.7343 0.9975 0.7660
C122 C 0.6918(7) 0.9189(6) 0.7831(2)
H111 H 0.7177 0.8661 0.7912
H112 H 0.6551 0.9203 0.7656
C123 C 0.6357(7) 0.9706(6) 0.8093(3)
H113 H 0.6732 0.9732 0.8258
H114 H 0.6056 1.0223 0.8006
C124 C 0.5710(10) 0.9427(8) 0.8234(3)
H115 H 0.5385 0.9772 0.8393
H116 H 0.6004 0.8921 0.8325
H117 H 0.5327 0.9411 0.8073
C125 C 0.8532(6) 0.8127(4) 0.7503(2)
H118 H 0.8070 0.7950 0.7540
H119 H 0.8838 0.7885 0.7315
C126 C 0.9149(7) 0.7854(5) 0.7777(2)
H120 H 0.8869 0.8114 0.7966
H121 H 0.9651 0.7973 0.7735
C127 C 0.9423(6) 0.6993(5) 0.7825(2)
H122 H 0.8920 0.6889 0.7883
H123 H 0.9638 0.6749 0.7626
C128 C 1.0094(8) 0.6635(7) 0.8067(3)
H124 H 1.0238 0.6090 0.8080
H125 H 0.9880 0.6854 0.8267
H126 H 1.0600 0.6727 0.8011
C129 C 0.8814(6) 0.9326(5) 0.7369(2)
H127 H 0.8526 0.9853 0.7290
H128 H 0.9096 0.9341 0.7564
C130 C 0.9503(6) 0.8880(5) 0.71316(19)
H129 H 0.9235 0.8765 0.6951
H130 H 0.9894 0.8397 0.7227
C131 C 1.0003(7) 0.9370(6) 0.7027(2)
H131 H 1.0273 0.9482 0.7207
H132 H 0.9610 0.9855 0.6934
C132 C 1.0710(7) 0.8926(8) 0.6780(3)
H133 H 1.1023 0.9235 0.6715
H134 H 1.0439 0.8824 0.6601
H135 H 1.1100 0.8449 0.6874
C133 C 0.7549(6) 0.9121(5) 0.7155(2)
H136 H 0.7895 0.8828 0.6983
H137 H 0.7116 0.8916 0.7206
C134 C 0.7097(7) 0.9951(5) 0.7045(2)
H138 H 0.7522 1.0138 0.6964
H139 H 0.6810 1.0261 0.7222
C135 C 0.6439(7) 1.0045(6) 0.6791(2)
H140 H 0.6371 1.0495 0.6659
H141 H 0.6652 0.9598 0.6659
C136 C 0.5578(7) 1.0133(6) 0.6925(3)
H142 H 0.5188 1.0177 0.6757
H143 H 0.5352 1.0588 0.7047
H144 H 0.5643 0.9691 0.7056
N13 N 0.8131(5) 0.8998(4) 0.74412(15)
C137 C 0.7487(6) 0.8440(6) 0.5257(2)
H145 H 0.7779 0.8393 0.5456
H146 H 0.7211 0.8984 0.5202
C138 C 0.6810(8) 0.8133(7) 0.5303(3)
H147 H 0.7070 0.7602 0.5379
H148 H 0.6537 0.8144 0.5103
C139 C 0.6126(9) 0.8616(8) 0.5541(6)
H149 H 0.6421 0.8769 0.5702
H150 H 0.5746 0.9083 0.5432
C140 C 0.5601(12) 0.8268(11) 0.5694(4)
H151 H 0.5223 0.8618 0.5842
H152 H 0.5964 0.7802 0.5803
H153 H 0.5265 0.8150 0.5540
C141 C 0.8545(8) 0.7200(6) 0.5068(4)
H154 H 0.8141 0.7094 0.5207
H155 H 0.8519 0.6973 0.4869
C142 C 0.9352(10) 0.6769(10) 0.5188(9)
H156 H 0.9389 0.6943 0.5397
H157 H 0.9780 0.6862 0.5057
C143 C 0.9564(16) 0.5922(13) 0.5206(10)
H158 H 0.9049 0.5812 0.5206
H159 H 0.9943 0.5655 0.5036
C144 C 0.9982(16) 0.5737(9) 0.5496(5)
H160 H 1.0154 0.5196 0.5543
H161 H 0.9597 0.6027 0.5657
H162 H 1.0483 0.5860 0.5488
C145 C 0.881(3) 0.839(2) 0.5049(6)
H163 H 0.9129 0.8173 0.5241
H164 H 0.8509 0.8940 0.5076
C146 C 0.9523(17) 0.8248(12) 0.4751(5)
H165 H 0.9808 0.7704 0.4710
H166 H 0.9231 0.8517 0.4562
C147 C 1.0156(15) 0.8555(14) 0.4851(5)
H167 H 0.9847 0.9097 0.4894
H168 H 1.0544 0.8523 0.4676
C148 C 1.0689(17) 0.8167(15) 0.5134(7)
H169 H 1.1054 0.8429 0.5185
H170 H 1.1039 0.7640 0.5090
H171 H 1.0315 0.8184 0.5309
C149 C 0.7778(6) 0.8169(6) 0.4679(2)
H172 H 0.8242 0.7940 0.4529
H173 H 0.7403 0.7892 0.4671
C150 C 0.7266(7) 0.8999(6) 0.4573(2)
H174 H 0.6762 0.9229 0.4707
H175 H 0.7619 0.9297 0.4587
C151 C 0.7000(8) 0.8993(8) 0.4243(3)
H176 H 0.6681 0.8666 0.4227
H177 H 0.7504 0.8794 0.4107
C152 C 0.6407(10) 0.9857(9) 0.4137(3)
H178 H 0.6225 0.9868 0.3924
H179 H 0.6730 1.0174 0.4152
H180 H 0.5910 1.0048 0.4272
N14 N 0.8167(5) 0.8048(4) 0.50061(18)
C153 C 0.4676(8) 0.4403(7) 0.7486(2)
H181 H 0.4868 0.3848 0.7479
H182 H 0.4433 0.4618 0.7283
C154 C 0.3960(9) 0.4703(8) 0.7738(3)
H183 H 0.4180 0.4454 0.7940
H184 H 0.3790 0.5254 0.7758
C155 C 0.3193(8) 0.4544(7) 0.7651(3)
H185 H 0.3363 0.3994 0.7630
H186 H 0.2969 0.4796 0.7451
C156 C 0.2472(9) 0.4846(11) 0.7911(4)
H187 H 0.1992 0.4722 0.7857
H188 H 0.2284 0.5394 0.7924
H189 H 0.2700 0.4606 0.8110
C157 C 0.5870(8) 0.4206(6) 0.7848(2)
H190 H 0.6364 0.4338 0.7877
H191 H 0.5466 0.4437 0.8016
C158 C 0.6163(9) 0.3383(7) 0.7890(2)
H192 H 0.6564 0.3135 0.7722
H193 H 0.5674 0.3237 0.7876
C159 C 0.6615(10) 0.3094(7) 0.8213(3)
H194 H 0.7073 0.3279 0.8233
H195 H 0.6200 0.3314 0.8380
C160 C 0.6989(10) 0.2237(8) 0.8254(3)
H196 H 0.7260 0.2094 0.8456
H197 H 0.7410 0.2015 0.8092
H198 H 0.6538 0.2050 0.8240
C161 C 0.6060(7) 0.4275(5) 0.7269(2)
H199 H 0.5737 0.4431 0.7075
H200 H 0.6286 0.3717 0.7286
C162 C 0.6816(6) 0.4520(6) 0.7248(2)
H201 H 0.7081 0.4462 0.7453
H202 H 0.6614 0.5058 0.7181
C163 C 0.7477(7) 0.4027(6) 0.7013(2)
H203 H 0.7184 0.3984 0.6825
H204 H 0.7777 0.3513 0.7103
C164 C 0.8134(9) 0.4381(10) 0.6925(3)
H205 H 0.8555 0.4053 0.6782
H206 H 0.8416 0.4432 0.7112
H207 H 0.7839 0.4880 0.6827
C165 C 0.5194(7) 0.5464(6) 0.7564(2)
H208 H 0.5717 0.5558 0.7578
H209 H 0.4868 0.5636 0.7756
C166 C 0.4648(7) 0.5955(6) 0.7281(3)
H210 H 0.4899 0.5713 0.7085
H211 H 0.4065 0.5973 0.7296
C167 C 0.4619(8) 0.6745(5) 0.7278(3)
H212 H 0.5204 0.6723 0.7269
H213 H 0.4357 0.6987 0.7472
C168 C 0.4109(9) 0.7239(7) 0.6999(3)
H214 H 0.4112 0.7745 0.7007
H215 H 0.3524 0.7276 0.7010
H216 H 0.4370 0.7006 0.6806
N15 N 0.5441(5) 0.4595(4) 0.75406(17)
C169 C 0.1220(6) 0.1482(5) 0.9977(2)
H217 H 0.1546 0.0934 0.9955
H218 H 0.0927 0.1676 0.9779
C170 C 0.0532(8) 0.1571(7) 1.0222(3)
H219 H 0.0190 0.2113 1.0254
H220 H 0.0795 0.1334 1.0420
C171 C -0.0065(7) 0.1166(7) 1.0102(3)
H221 H 0.0290 0.0642 1.0045
H222 H -0.0453 0.1145 1.0269
C172 C -0.0557(12) 0.1579(15) 0.9834(4)
H223 H -0.0912 0.1324 0.9764
H224 H -0.0173 0.1595 0.9668
H225 H -0.0917 0.2095 0.9891
C173 C 0.2282(7) 0.1646(6) 1.0337(2)
H226 H 0.2650 0.1927 1.0359
H227 H 0.1828 0.1832 1.0494
C174 C 0.2815(6) 0.0798(5) 1.0409(2)
H228 H 0.2476 0.0499 1.0367
H229 H 0.3321 0.0620 1.0275
C175 C 0.3088(7) 0.0680(7) 1.0749(2)
H230 H 0.3402 0.1000 1.0791
H231 H 0.2577 0.0848 1.0881
C176 C 0.3633(9) -0.0123(10) 1.0834(3)
H232 H 0.3786 -0.0161 1.1052
H233 H 0.4147 -0.0290 1.0707
H234 H 0.3321 -0.0442 1.0798
C177 C 0.2505(6) 0.1528(5) 0.9742(2)
H235 H 0.2809 0.0977 0.9777
H236 H 0.2184 0.1609 0.9548
C178 C 0.3163(6) 0.1886(6) 0.9702(2)
H237 H 0.3459 0.1849 0.9899
H238 H 0.2876 0.2426 0.9641
C179 C 0.3811(7) 0.1462(6) 0.9450(3)
H239 H 0.4180 0.0956 0.9532
H240 H 0.3503 0.1392 0.9271
C180 C 0.4360(7) 0.1885(7) 0.9342(3)
H241 H 0.4751 0.1601 0.9181
H242 H 0.4681 0.1940 0.9517
H243 H 0.3997 0.2386 0.9259
C181 C 0.1389(8) 0.2722(6) 1.0004(3)
H244 H 0.1074 0.2872 1.0200
H245 H 0.1815 0.2949 0.9994
C182 C 0.0770(8) 0.3061(7) 0.9738(3)
H246 H 0.0228 0.3014 0.9785
H247 H 0.1006 0.2787 0.9547
C183 C 0.0617(8) 0.3917(7) 0.9690(3)
H248 H 0.0394 0.4185 0.9883
H249 H 0.1161 0.3960 0.9640
C184 C 0.0001(10) 0.4279(7) 0.9434(5)
H250 H -0.0107 0.4817 0.9415
H251 H -0.0531 0.4221 0.9479
H252 H 0.0237 0.4035 0.9240
N16 N 0.1867(5) 0.1841(4) 1.00112(17)
S3 S 0.6051(4) 0.7081(3) 0.93085(13)
O39 O 0.5395(9) 0.7113(7) 0.9614(3)
C189 C 0.6560(9) 0.6058(7) 0.9249(4)
H265 H 0.6138 0.5876 0.9179
H266 H 0.6805 0.5797 0.9443
H267 H 0.7007 0.5957 0.9093
C190 C 0.6829(12) 0.7264(10) 0.9414(4)
H268 H 0.6634 0.7804 0.9453
H269 H 0.7259 0.7131 0.9250
H270 H 0.7073 0.6971 0.9602
S4 S 0.7118(2) 0.6393(3) 0.83126(8)
O40 O 0.7534(7) 0.6890(8) 0.8179(2)
C191 C 0.6091(9) 0.6974(8) 0.8345(4)
H271 H 0.6025 0.7327 0.8510
H272 H 0.5755 0.6676 0.8394
H273 H 0.5897 0.7257 0.8150
C192 C 0.7051(8) 0.5834(8) 0.7993(3)
H274 H 0.7615 0.5459 0.7946
H275 H 0.6824 0.6166 0.7812
H276 H 0.6676 0.5578 0.8050
S5 S 0.4105(4) 0.2953(3) 0.56341(15)
O41 O 0.4880(10) 0.2882(8) 0.5347(3)
C193 C 0.3558(12) 0.3976(9) 0.5684(6)
H277 H 0.3933 0.4164 0.5789
H278 H 0.3045 0.4078 0.5807
H279 H 0.3406 0.4231 0.5481
C194 C 0.3352(10) 0.2780(9) 0.5421(5)
H280 H 0.3551 0.2239 0.5384
H281 H 0.3266 0.3059 0.5223
H282 H 0.2817 0.2946 0.5535
S6 S -0.0100(2) -0.0089(2) 0.82281(7)
O42 O -0.0923(7) -0.0098(7) 0.8074(2)
C195 C 0.0664(10) -0.0114(12) 0.7924(4)
H283 H 0.0478 0.0380 0.7817
H284 H 0.0703 -0.0500 0.7777
H285 H 0.1220 -0.0235 0.8017
C196 C 0.0467(15) -0.0986(13) 0.8365(6)
H286 H 0.0157 -0.1108 0.8535
H287 H 0.1017 -0.1022 0.8439
H288 H 0.0553 -0.1342 0.8199
S7 S 0.9030(3) 1.0196(2) 0.91799(18)
O43 O 0.8900(6) 0.9514(4) 0.9090(2)
C197 C 0.8389(10) 1.1015(7) 0.9037(4)
H289 H 0.7803 1.1063 0.9062
H290 H 0.8514 1.1054 0.8818
H291 H 0.8465 1.1420 0.9146
C198 C 1.0045(10) 1.0132(8) 0.9117(4)
H292 H 1.0447 0.9647 0.9200
H293 H 1.0124 1.0544 0.9219
H294 H 1.0142 1.0170 0.8895
S8 S 0.9187(3) 0.0169(2) 0.43109(17)
O44 O 0.9970(9) -0.0001(7) 0.4023(4)
C199 C 0.8911(12) -0.0458(9) 0.4326(6)
H295 H 0.9336 -0.0891 0.4435
H296 H 0.8842 -0.0599 0.4117
H297 H 0.8371 -0.0304 0.4437
C200 C 0.8379(9) 0.0952(7) 0.4110(5)
H298 H 0.8562 0.1373 0.4086
H299 H 0.7851 0.1114 0.4229
H300 H 0.8287 0.0794 0.3907
S9 S 0.2891(7) 0.3662(8) 0.6491(3)
O45 O 0.2743(14) 0.3957(9) 0.6826(4)
C201 C 0.237(2) 0.3030(19) 0.6444(9)
H301 H 0.1757 0.3303 0.6474
H302 H 0.2582 0.2613 0.6597
H303 H 0.2478 0.2828 0.6236
C202 C 0.3993(13) 0.2960(19) 0.6483(9)
H304 H 0.4377 0.3219 0.6448
H305 H 0.4060 0.2612 0.6316
H306 H 0.4126 0.2676 0.6680
S10 S -0.1096(4) -0.2927(4) 0.88779(15)
O46 O -0.1195(11) -0.3066(10) 0.9190(3)
C203 C -0.0378(15) -0.2383(14) 0.8846(6)
H307 H 0.0148 -0.2663 0.8958
H308 H -0.0666 -0.1885 0.8934
H309 H -0.0248 -0.2323 0.8628
C204 C -0.1920(14) -0.2273(12) 0.8653(5)
H310 H -0.2385 -0.2443 0.8642
H311 H -0.1709 -0.2235 0.8445
H312 H -0.2123 -0.1777 0.8747
O49 O 0.8250(10) 0.9288(8) 0.8528(3)
S11? S 0.5388(4) 0.4794(3) 0.98327(11)
O47? O 0.6038(12) 0.5166(9) 0.9771(4)
C205? C 0.4550(15) 0.5442(11) 0.9737(4)
H313? H 0.4553 0.5538 0.9514
H314? H 0.4487 0.5899 0.9845
H315? H 0.4076 0.5300 0.9791
O48? O 0.4756(5) 0.5249(5) 0.51153(19)
C206? C 0.0869(15) 0.6182(12) 0.6787(3)
C207? C 0.1236(11) 0.6234(9) 0.7070(3)
C208? C 0.1171(10) 0.5797(9) 0.7331(3)
C209? C 0.0740(13) 0.5308(11) 0.7309(4)
C210? C 0.0373(17) 0.5255(13) 0.7025(5)
C211? C 0.0438(17) 0.5692(14) 0.6764(4)
C212? C -0.006(3) 0.566(3) 0.6480(12)
C213? C 0.1788(18) 0.6701(13) 0.7109(6)
C214? C 0.7643(19) 0.3088(17) 0.5637(10)
C215? C 0.926(2) 0.229(2) 0.5670(10)
C216? C 0.274(3) 0.086(2) 0.6790(8)
C217? C 0.275(2) -0.0563(14) 0.6798(9)
C218? C 0.888(5) 0.838(4) 0.4961(10)
C219? C 0.9392(11) 0.8184(11) 0.5309(5)
C220? C 1.0309(14) 0.8173(13) 0.5234(6)
C221? C 1.029(2) 0.888(2) 0.5078(10)
H316? H 0.1417 0.5832 0.7521
H317? H 0.0697 0.5015 0.7484
H318? H 0.0085 0.4927 0.7010
H319? H 0.0025 0.5985 0.6315
H320? H -0.0658 0.5836 0.6532
H321? H 0.0149 0.5140 0.6411
H322? H 0.1978 0.6652 0.7324
H323? H 0.1453 0.7233 0.7057
H324? H 0.2281 0.6510 0.6972
H325? H 0.7068 0.3138 0.5591
H326? H 0.7807 0.3409 0.5493
H327? H 0.7661 0.3245 0.5848
H328? H 0.9710 0.1781 0.5653
H329? H 0.9273 0.2473 0.5877
H330? H 0.9361 0.2629 0.5516
H331? H 0.2474 -0.0919 0.6833
H332? H 0.3234 -0.0698 0.6936
H333? H 0.2941 -0.0585 0.6583
H334? H 0.2466 0.1402 0.6834
H335? H 0.2903 0.0803 0.6572
H336? H 0.3241 0.0627 0.6919
H337? H 0.8628 0.8930 0.4916
H338? H 0.9275 0.8128 0.4792
H339? H 0.9088 0.8578 0.5459
H340? H 0.9434 0.7689 0.5396
H341? H 1.0628 0.8089 0.5429
H342? H 1.0615 0.7743 0.5101
H343? H 1.0873 0.8850 0.5053
H344? H 0.9968 0.9313 0.5204
H345? H 1.0029 0.8943 0.4876
O50? O 0.810(3) 0.171(2) 0.5840(7)
O51? O 0.1358(18) 0.0627(18) 0.6612(7)
S12? S 0.1985(10) 0.0404(7) 0.6876(3)
S13? S 0.8266(4) 0.2251(3) 0.56053(13)
S14? S 0.6746(7) 0.6467(6) 0.9555(2)
loop_
_geom_bond_atom_site_label_1
_geom_bond_atom_site_label_2
_geom_bond_site_symmetry_1
_geom_bond_site_symmetry_2
C1 C2 1_555 1_555
C2 O2 1_555 1_555
C3 C4 1_555 1_555
C4 C5 1_555 1_555
C5 H1 1_555 1_555
C6 C5 1_555 1_555
H2 C6 1_555 1_555
C7 C6 1_555 1_555
H3 C7 1_555 1_555
C8 C3 1_555 1_555
C9 C4 1_555 1_555
H4 C9 1_555 1_555
H5 C9 1_555 1_555
H6 C9 1_555 1_555
C10 C8 1_555 1_555
H7 C10 1_555 1_555
H8 C10 1_555 1_555
H9 C10 1_555 1_555
C11 C12 1_555 1_555
C12 O5 1_555 1_555
C13 C14 1_555 1_555
C14 C15 1_555 1_555
C15 H10 1_555 1_555
C16 C15 1_555 1_555
H11 C16 1_555 1_555
C17 C16 1_555 1_555
H12 C17 1_555 1_555
C18 C13 1_555 1_555
C19 C18 1_555 1_555
H13 C19 1_555 1_555
H14 C19 1_555 1_555
H15 C19 1_555 1_555
C20 C14 1_555 1_555
H16 C20 1_555 1_555
H17 C20 1_555 1_555
H18 C20 1_555 1_555
C21 C22 1_555 1_555
C22 O8 1_555 1_555
C23 C24 1_555 1_555
C24 C25 1_555 1_555
C25 H19 1_555 1_555
C26 C25 1_555 1_555
H20 C26 1_555 1_555
C27 C26 1_555 1_555
H21 C27 1_555 1_555
C28 C23 1_555 1_555
C29 C28 1_555 1_555
H22 C29 1_555 1_555
H23 C29 1_555 1_555
H24 C29 1_555 1_555
C30 C24 1_555 1_555
H25 C30 1_555 1_555
H26 C30 1_555 1_555
H27 C30 1_555 1_555
C31 C32 1_555 1_555
C32 O11 1_555 1_555
C33 C34 1_555 1_555
C34 C35 1_555 1_555
C35 H28 1_555 1_555
C36 C35 1_555 1_555
H29 C36 1_555 1_555
C37 C36 1_555 1_555
H30 C37 1_555 1_555
C38 C33 1_555 1_555
C39 C38 1_555 1_555
H31 C39 1_555 1_555
H32 C39 1_555 1_555
H33 C39 1_555 1_555
C40 C34 1_555 1_555
H34 C40 1_555 1_555
H35 C40 1_555 1_555
H36 C40 1_555 1_555
C41 C42 1_555 1_555
C42 O14 1_555 1_555
C43 C44 1_555 1_555
C44 C45 1_555 1_555
C45 H37 1_555 1_555
C46 C45 1_555 1_555
H38 C46 1_555 1_555
C47 C46 1_555 1_555
H39 C47 1_555 1_555
C48 C43 1_555 1_555
C49 C48 1_555 1_555
H40 C49 1_555 1_555
H41 C49 1_555 1_555
H42 C49 1_555 1_555
C50 C44 1_555 1_555
H43 C50 1_555 1_555
H44 C50 1_555 1_555
H45 C50 1_555 1_555
C51 C52 1_555 1_555
C52 O17 1_555 1_555
C53 C54 1_555 1_555
C54 C55 1_555 1_555
C55 H46 1_555 1_555
C56 C55 1_555 1_555
H47 C56 1_555 1_555
C57 C56 1_555 1_555
H48 C57 1_555 1_555
C58 C53 1_555 1_555
C59 C58 1_555 1_555
H49 C59 1_555 1_555
H50 C59 1_555 1_555
H51 C59 1_555 1_555
C60 C54 1_555 1_555
H52 C60 1_555 1_555
H53 C60 1_555 1_555
H54 C60 1_555 1_555
C61 C62 1_555 1_555
C62 O20 1_555 1_555
C63 C64 1_555 1_555
C64 C65 1_555 1_555
C65 H55 1_555 1_555
C66 C65 1_555 1_555
H56 C66 1_555 1_555
C67 C66 1_555 1_555
H57 C67 1_555 1_555
C68 C63 1_555 1_555
C69 C68 1_555 1_555
H58 C69 1_555 1_555
H59 C69 1_555 1_555
H60 C69 1_555 1_555
C70 C64 1_555 1_555
H61 C70 1_555 1_555
H62 C70 1_555 1_555
H63 C70 1_555 1_555
C71 C72 1_555 1_555
C72 O23 1_555 1_555
C73 C74 1_555 1_555
C74 C75 1_555 1_555
C75 H64 1_555 1_555
C76 C75 1_555 1_555
H65 C76 1_555 1_555
C77 C76 1_555 1_555
H66 C77 1_555 1_555
C78 C73 1_555 1_555
C79 C78 1_555 1_555
H67 C79 1_555 1_555
H68 C79 1_555 1_555
H69 C79 1_555 1_555
C80 C74 1_555 1_555
H70 C80 1_555 1_555
H71 C80 1_555 1_555
H72 C80 1_555 1_555
C81 C82 1_555 1_555
C82 O26 1_555 1_555
C83 C84 1_555 1_555
C84 C85 1_555 1_555
C85 H73 1_555 1_555
C86 C85 1_555 1_555
H74 C86 1_555 1_555
C87 C86 1_555 1_555
H75 C87 1_555 1_555
C88 C83 1_555 1_555
C89 C88 1_555 1_555
H76 C89 1_555 1_555
H77 C89 1_555 1_555
H78 C89 1_555 1_555
C90 C84 1_555 1_555
H79 C90 1_555 1_555
H80 C90 1_555 1_555
H81 C90 1_555 1_555
C91 C92 1_555 1_555
C92 O29 1_555 1_555
C93 C94 1_555 1_555
C94 C95 1_555 1_555
C95 H82 1_555 1_555
C96 C95 1_555 1_555
H83 C96 1_555 1_555
C97 C96 1_555 1_555
H84 C97 1_555 1_555
C98 C93 1_555 1_555
C99 C98 1_555 1_555
H85 C99 1_555 1_555
H86 C99 1_555 1_555
H87 C99 1_555 1_555
C100 C94 1_555 1_555
H88 C100 1_555 1_555
H89 C100 1_555 1_555
H90 C100 1_555 1_555
C101 C102 1_555 1_555
C102 O32 1_555 1_555
C103 C104 1_555 1_555
C104 C105 1_555 1_555
C105 H91 1_555 1_555
C106 C105 1_555 1_555
H92 C106 1_555 1_555
C107 C106 1_555 1_555
H93 C107 1_555 1_555
C108 C103 1_555 1_555
C109 C108 1_555 1_555
H94 C109 1_555 1_555
H95 C109 1_555 1_555
H96 C109 1_555 1_555
C110 C104 1_555 1_555
H97 C110 1_555 1_555
H98 C110 1_555 1_555
H99 C110 1_555 1_555
C111 C112 1_555 1_555
C112 O35 1_555 1_555
C113 C114 1_555 1_555
C114 C115 1_555 1_555
C115 H100 1_555 1_555
C116 C115 1_555 1_555
H101 C116 1_555 1_555
C117 C116 1_555 1_555
H102 C117 1_555 1_555
C118 C113 1_555 1_555
C119 C118 1_555 1_555
H103 C119 1_555 1_555
H104 C119 1_555 1_555
H105 C119 1_555 1_555
C120 C114 1_555 1_555
H106 C120 1_555 1_555
H107 C120 1_555 1_555
H108 C120 1_555 1_555
C121 H109 1_555 1_555
H110 C121 1_555 1_555
C122 C121 1_555 1_555
H111 C122 1_555 1_555
H112 C122 1_555 1_555
C123 C122 1_555 1_555
H113 C123 1_555 1_555
H114 C123 1_555 1_555
C124 C123 1_555 1_555
H115 C124 1_555 1_555
H116 C124 1_555 1_555
H117 C124 1_555 1_555
C125 H118 1_555 1_555
H119 C125 1_555 1_555
C126 C125 1_555 1_555
H120 C126 1_555 1_555
H121 C126 1_555 1_555
C127 C126 1_555 1_555
H122 C127 1_555 1_555
H123 C127 1_555 1_555
C128 C127 1_555 1_555
H124 C128 1_555 1_555
H125 C128 1_555 1_555
H126 C128 1_555 1_555
C129 H127 1_555 1_555
H128 C129 1_555 1_555
C130 C129 1_555 1_555
H129 C130 1_555 1_555
H130 C130 1_555 1_555
C131 C130 1_555 1_555
H131 C131 1_555 1_555
H132 C131 1_555 1_555
C132 C131 1_555 1_555
H133 C132 1_555 1_555
H134 C132 1_555 1_555
H135 C132 1_555 1_555
C133 H136 1_555 1_555
H137 C133 1_555 1_555
C134 C133 1_555 1_555
H138 C134 1_555 1_555
H139 C134 1_555 1_555
C135 C134 1_555 1_555
H140 C135 1_555 1_555
H141 C135 1_555 1_555
C136 C135 1_555 1_555
H142 C136 1_555 1_555
H143 C136 1_555 1_555
H144 C136 1_555 1_555
C137 H145 1_555 1_555
H146 C137 1_555 1_555
C138 C137 1_555 1_555
H147 C138 1_555 1_555
H148 C138 1_555 1_555
C139 C138 1_555 1_555
H149 C139 1_555 1_555
H150 C139 1_555 1_555
C140 C139 1_555 1_555
H151 C140 1_555 1_555
H152 C140 1_555 1_555
H153 C140 1_555 1_555
C141 H154 1_555 1_555
H155 C141 1_555 1_555
C142 C141 1_555 1_555
H156 C142 1_555 1_555
H157 C142 1_555 1_555
C143 C142 1_555 1_555
H158 C143 1_555 1_555
H159 C143 1_555 1_555
C144 C143 1_555 1_555
H160 C144 1_555 1_555
H161 C144 1_555 1_555
H162 C144 1_555 1_555
C145 H163 1_555 1_555
H164 C145 1_555 1_555
C146 C145 1_555 1_555
H165 C146 1_555 1_555
H166 C146 1_555 1_555
C147 C146 1_555 1_555
H167 C147 1_555 1_555
H168 C147 1_555 1_555
C148 C147 1_555 1_555
H169 C148 1_555 1_555
H170 C148 1_555 1_555
H171 C148 1_555 1_555
C149 H172 1_555 1_555
H173 C149 1_555 1_555
C150 C149 1_555 1_555
H174 C150 1_555 1_555
H175 C150 1_555 1_555
C151 C150 1_555 1_555
H176 C151 1_555 1_555
H177 C151 1_555 1_555
C152 C151 1_555 1_555
H178 C152 1_555 1_555
H179 C152 1_555 1_555
H180 C152 1_555 1_555
C153 H181 1_555 1_555
H182 C153 1_555 1_555
C154 C153 1_555 1_555
H183 C154 1_555 1_555
H184 C154 1_555 1_555
C155 C154 1_555 1_555
H185 C155 1_555 1_555
H186 C155 1_555 1_555
C156 C155 1_555 1_555
H187 C156 1_555 1_555
H188 C156 1_555 1_555
H189 C156 1_555 1_555
C157 H190 1_555 1_555
H191 C157 1_555 1_555
C158 C157 1_555 1_555
H192 C158 1_555 1_555
H193 C158 1_555 1_555
C159 C158 1_555 1_555
H194 C159 1_555 1_555
H195 C159 1_555 1_555
C160 C159 1_555 1_555
H196 C160 1_555 1_555
H197 C160 1_555 1_555
H198 C160 1_555 1_555
C161 H199 1_555 1_555
H200 C161 1_555 1_555
C162 C161 1_555 1_555
H201 C162 1_555 1_555
H202 C162 1_555 1_555
C163 C162 1_555 1_555
H203 C163 1_555 1_555
H204 C163 1_555 1_555
C164 C163 1_555 1_555
H205 C164 1_555 1_555
H206 C164 1_555 1_555
H207 C164 1_555 1_555
C165 H208 1_555 1_555
H209 C165 1_555 1_555
C166 C165 1_555 1_555
H210 C166 1_555 1_555
H211 C166 1_555 1_555
C167 C166 1_555 1_555
H212 C167 1_555 1_555
H213 C167 1_555 1_555
C168 C167 1_555 1_555
H214 C168 1_555 1_555
H215 C168 1_555 1_555
H216 C168 1_555 1_555
C169 H217 1_555 1_555
H218 C169 1_555 1_555
C170 C169 1_555 1_555
H219 C170 1_555 1_555
H220 C170 1_555 1_555
C171 C170 1_555 1_555
H221 C171 1_555 1_555
H222 C171 1_555 1_555
C172 C171 1_555 1_555
H223 C172 1_555 1_555
H224 C172 1_555 1_555
H225 C172 1_555 1_555
C173 H226 1_555 1_555
H227 C173 1_555 1_555
C174 C173 1_555 1_555
H228 C174 1_555 1_555
H229 C174 1_555 1_555
C175 C174 1_555 1_555
H230 C175 1_555 1_555
H231 C175 1_555 1_555
C176 C175 1_555 1_555
H232 C176 1_555 1_555
H233 C176 1_555 1_555
H234 C176 1_555 1_555
C177 H235 1_555 1_555
H236 C177 1_555 1_555
C178 C177 1_555 1_555
H237 C178 1_555 1_555
H238 C178 1_555 1_555
C179 C178 1_555 1_555
H239 C179 1_555 1_555
H240 C179 1_555 1_555
C180 C179 1_555 1_555
H241 C180 1_555 1_555
H242 C180 1_555 1_555
H243 C180 1_555 1_555
C181 H244 1_555 1_555
H245 C181 1_555 1_555
C182 C181 1_555 1_555
H246 C182 1_555 1_555
H247 C182 1_555 1_555
C183 C182 1_555 1_555
H248 C183 1_555 1_555
H249 C183 1_555 1_555
C184 C183 1_555 1_555
H250 C184 1_555 1_555
H251 C184 1_555 1_555
H252 C184 1_555 1_555
N1 C1 1_555 1_555
N2 C11 1_555 1_555
N3 C21 1_555 1_555
N4 C31 1_555 1_555
N5 C41 1_555 1_555
N6 C51 1_555 1_555
N7 C61 1_555 1_555
N8 C71 1_555 1_555
N9 C81 1_555 1_555
N10 C91 1_555 1_555
N11 C101 1_555 1_555
N12 C111 1_555 1_555
N13 C121 1_555 1_555
N14 C137 1_555 1_555
N15 C153 1_555 1_555
N16 C169 1_555 1_555
O1 C1 1_555 1_555
O2 Mn1 1_555 1_555
O3 C2 1_555 1_555
O4 C11 1_555 1_555
O5 Mn2 1_555 1_555
O6 C12 1_555 1_555
O7 C21 1_555 1_555
O8 Mn1 1_555 1_555
O9 C22 1_555 1_555
O10 C31 1_555 1_555
O11 Mn2_2 1_555 1_555
O12 C32 1_555 1_555
O13 C41 1_555 1_555
O14 Mn1 1_555 1_555
O15 C42 1_555 1_555
O16 C51 1_555 1_555
O17 Mn2_3 1_555 1_555
O18 C52 1_555 1_555
O19 C61 1_555 1_555
O20 Mn4 1_555 1_555
O21 C62 1_555 1_555
O22 C71 1_555 1_555
O23 Mn3 1_555 1_555
O24 C72 1_555 1_555
O25 C81 1_555 1_555
O26 Mn4_2 1_555 1_555
O27 C82 1_555 1_555
O28 C91 1_555 1_555
O29 Mn3 1_555 1_555
O30 C92 1_555 1_555
O31 C101 1_555 1_555
O32 Mn4_3 1_555 1_555
O33 C102 1_555 1_555
O34 C111 1_555 1_555
O35 Mn3 1_555 1_555
O36 C112 1_555 1_555
Mn1 O1 1_555 1_555
Mn2 O4 1_555 1_555
Mn3 O22 1_555 1_555
Mn4 O19 1_555 1_555
Cu1 N1 1_555 1_555
Cu2 N3 1_555 1_555
Cu3 N5 1_555 1_555
Cu4 N7 1_555 1_555
Cu5 N9 1_555 1_555
Cu6 N11 1_555 1_555
S1 O37 1_555 1_555
O37 Cu1 1_555 1_555
C185 S1 1_555 1_555
H253 C185 1_555 1_555
H254 C185 1_555 1_555
H255 C185 1_555 1_555
C186 S1 1_555 1_555
H256 C186 1_555 1_555
H257 C186 1_555 1_555
H258 C186 1_555 1_555
S2 O38 1_555 1_555
O38 Cu4 1_555 1_555
C187 S2 1_555 1_555
H259 C187 1_555 1_555
H260 C187 1_555 1_555
H261 C187 1_555 1_555
C188 S2 1_555 1_555
H262 C188 1_555 1_555
H263 C188 1_555 1_555
H264 C188 1_555 1_555
S3 O39 1_555 1_555
C189 S3 1_555 1_555
H265 C189 1_555 1_555
H266 C189 1_555 1_555
H267 C189 1_555 1_555
C190 S3 1_555 1_555
H268 C190 1_555 1_555
H269 C190 1_555 1_555
H270 C190 1_555 1_555
S4 O40 1_555 1_555
C191 S4 1_555 1_555
H271 C191 1_555 1_555
H272 C191 1_555 1_555
H273 C191 1_555 1_555
C192 S4 1_555 1_555
H274 C192 1_555 1_555
H275 C192 1_555 1_555
H276 C192 1_555 1_555
S5 O41 1_555 1_555
C193 S5 1_555 1_555
H277 C193 1_555 1_555
H278 C193 1_555 1_555
H279 C193 1_555 1_555
C194 S5 1_555 1_555
H280 C194 1_555 1_555
H281 C194 1_555 1_555
H282 C194 1_555 1_555
S6 O42 1_555 1_555
C195 S6 1_555 1_555
H283 C195 1_555 1_555
H284 C195 1_555 1_555
H285 C195 1_555 1_555
C196 S6 1_555 1_555
H286 C196 1_555 1_555
H287 C196 1_555 1_555
H288 C196 1_555 1_555
S7 O43 1_555 1_555
C197 S7 1_555 1_555
H289 C197 1_555 1_555
H290 C197 1_555 1_555
H291 C197 1_555 1_555
C198 S7 1_555 1_555
H292 C198 1_555 1_555
H293 C198 1_555 1_555
H294 C198 1_555 1_555
S8 O44 1_555 1_555
C199 S8 1_555 1_555
H295 C199 1_555 1_555
H296 C199 1_555 1_555
H297 C199 1_555 1_555
C200 S8 1_555 1_555
H298 C200 1_555 1_555
H299 C200 1_555 1_555
H300 C200 1_555 1_555
S9 O45 1_555 1_555
C201 S9 1_555 1_555
H301 C201 1_555 1_555
H302 C201 1_555 1_555
H303 C201 1_555 1_555
C202 S9 1_555 1_555
H304 C202 1_555 1_555
H305 C202 1_555 1_555
H306 C202 1_555 1_555
S10 O46 1_555 1_555
C203 S10 1_555 1_555
H307 C203 1_555 1_555
H308 C203 1_555 1_555
H309 C203 1_555 1_555
C204 S10 1_555 1_555
H310 C204 1_555 1_555
H311 C204 1_555 1_555
H312 C204 1_555 1_555
O10_2 Mn2 1_555 1_555
O11_2 Mn2 1_555 1_555
O16_2 Mn2 1_555 1_555
O17_2 Mn2 1_555 1_555
O25_2 Mn4 1_555 1_555
O26_2 Mn4 1_555 1_555
O31_2 Mn4 1_555 1_555
O32_2 Mn4 1_555 1_555
Mn2_2 O10 1_555 1_555
Mn2_3 O16 1_555 1_555
Mn4_2 O25 1_555 1_555
Mn4_3 O31 1_555 1_555
C3 N1 1_555 1_555
C7 C8 1_555 1_555
C13 N2 1_555 1_555
C17 C18 1_555 1_555
C23 N3 1_555 1_555
C27 C28 1_555 1_555
C33 N4 1_555 1_555
C37 C38 1_555 1_555
C43 N5 1_555 1_555
C47 C48 1_555 1_555
C53 N6 1_555 1_555
C57 C58 1_555 1_555
C63 N7 1_555 1_555
C67 C68 1_555 1_555
C73 N8 1_555 1_555
C77 C78 1_555 1_555
C83 N9 1_555 1_555
C87 C88 1_555 1_555
C93 N10 1_555 1_555
C97 C98 1_555 1_555
C103 N11 1_555 1_555
C107 C108 1_555 1_555
C113 N12 1_555 1_555
C117 C118 1_555 1_555
C125 N13 1_555 1_555
C129 N13 1_555 1_555
C133 N13 1_555 1_555
C141 N14 1_555 1_555
C145 N14 1_555 1_555
C149 N14 1_555 1_555
C157 N15 1_555 1_555
C161 N15 1_555 1_555
C165 N15 1_555 1_555
C173 N16 1_555 1_555
C177 N16 1_555 1_555
C181 N16 1_555 1_555
N2 Cu1 1_555 1_555
N4 Cu2 1_555 1_555
N6 Cu3 1_555 1_555
N8 Cu4 1_555 1_555
N10 Cu5 1_555 1_555
N12 Cu6 1_555 1_555
O3 Cu1 1_555 1_555
O6 Cu1 1_555 1_555
O7 Mn1 1_555 1_555
O9 Cu2 1_555 1_555
O12 Cu2 1_555 1_555
O13 Mn1 1_555 1_555
O15 Cu3 1_555 1_555
O18 Cu3 1_555 1_555
O21 Cu4 1_555 1_555
O24 Cu4 1_555 1_555
O27 Cu5 1_555 1_555
O28 Mn3 1_555 1_555
O30 Cu5 1_555 1_555
O33 Cu6 1_555 1_555
O34 Mn3 1_555 1_555
O36 Cu6 1_555 1_555

#END
