
#######################################################################
#
#                 Cambridge Crystallographic Data Centre
#                                CCDC 
#
#######################################################################
#
# If this CIF has been generated from an entry in the Cambridge 
# Structural Database, then it will include bibliographic, chemical, 
# crystal, experimental, refinement or atomic coordinate data resulting 
# from the CCDC's data processing and validation procedures.
#
#######################################################################

data_MAWDUK
_symmetry_cell_setting           monoclinic
_symmetry_space_group_name_H-M   'P 21/n'
_symmetry_Int_Tables_number      14
_space_group_name_Hall           '-P 2yn'
loop_
_symmetry_equiv_pos_site_id
_symmetry_equiv_pos_as_xyz
1 x,y,z
2 1/2-x,1/2+y,1/2-z
3 -x,-y,-z
4 1/2+x,1/2-y,1/2+z
_cell_length_a                   9.870(7)
_cell_length_b                   12.011(12)
_cell_length_c                   13.469(12)
_cell_angle_alpha                90
_cell_angle_beta                 106.42(8)
_cell_angle_gamma                90
_cell_volume                     1531.61
loop_
_atom_site_label
_atom_site_type_symbol
_atom_site_fract_x
_atom_site_fract_y
_atom_site_fract_z
Cu1 Cu 0.5000 0.5000 0.5000
N1 N 0.67349(15) 0.44343(13) 0.66653(13)
N2 N 0.76933(15) 0.50164(12) 0.70497(12)
N3 N 0.8663(2) 0.55789(16) 0.74412(17)
N4 N 0.26532(13) 0.52197(10) 0.71104(10)
N5 N 0.35506(13) 0.51793(10) 0.57929(10)
N6 N 0.12782(13) 0.66908(11) 1.00214(10)
N7 N 0.05106(14) 0.83646(11) 1.02374(10)
N8 N 0.41068(14) 0.33159(11) 1.04168(11)
N9 N 0.57703(14) 0.20255(12) 1.09595(11)
C1 C 0.26068(15) 0.51203(12) 0.81576(12)
C2 C 0.18984(15) 0.59186(12) 0.85581(12)
H3 H 0.1402 0.6507 0.8138
C3 C 0.19357(16) 0.58329(12) 0.95954(12)
C4 C 0.26570(15) 0.49839(13) 1.02301(12)
H4 H 0.2687 0.4951 1.0941
C5 C 0.33328(15) 0.41849(12) 0.97955(12)
C6 C 0.32978(16) 0.42385(13) 0.87542(12)
H5 H 0.3741 0.3678 0.8458
C7 C 0.37916(16) 0.49686(13) 0.67901(12)
H6 H 0.4652 0.4679 0.7223
C8 C 0.21864(16) 0.55886(13) 0.54537(13)
H7 H 0.1718 0.5810 0.4765
C9 C 0.16271(17) 0.56218(13) 0.62632(13)
H8 H 0.0709 0.5872 0.6251
C10 C 0.12493(16) 0.77736(13) 0.97527(13)
H9 H 0.1703 0.8071 0.9276
C11 C 0.00462(18) 0.76169(14) 1.08481(14)
H10 H -0.0525 0.7802 1.1286
C12 C 0.05218(18) 0.65834(14) 1.07322(14)
H11 H 0.0367 0.5922 1.1071
C13 C 0.52091(16) 0.27457(13) 1.02281(13)
H12 H 0.5531 0.2859 0.9634
C14 C 0.49829(18) 0.21237(14) 1.16583(13)
H13 H 0.5135 0.1697 1.2274
C15 C 0.39665(18) 0.29098(14) 1.13465(13)
H14 H 0.3297 0.3136 1.1693
Cu1C Cu 0.0000 1.0000 1.0000
Cu1C_2 Cu 1.0000 0.0000 0.0000
N1B N 0.32651(15) 0.55657(13) 0.33347(13)
N2B N 0.23067(15) 0.49836(12) 0.29503(12)
N3B N 0.1337(2) 0.44211(16) 0.25588(17)
N4B N 0.73468(13) 0.47803(10) 0.28896(10)
N5B N 0.64494(13) 0.48207(10) 0.42071(10)
N6B N 0.87218(13) 0.33092(11) -0.00214(10)
N7B N 0.94894(14) 0.16354(11) -0.02374(10)
N7C N 0.55106(14) 0.66354(11) 0.52374(10)
N7A N 0.44894(14) 0.33646(11) 0.47626(10)
N8B N 0.58932(14) 0.66841(11) -0.04168(11)
N9B N 0.42297(14) 0.79745(12) -0.09595(11)
C1B C 0.73932(15) 0.48797(12) 0.18424(12)
C2B C 0.81016(15) 0.40814(12) 0.14419(12)
H3B H 0.8598 0.3493 0.1862
C3B C 0.80643(16) 0.41671(12) 0.04046(12)
C4B C 0.73430(15) 0.50161(13) -0.02301(12)
H4B H 0.7313 0.5049 -0.0941
C5B C 0.66672(15) 0.58151(12) 0.02045(12)
C6B C 0.67022(16) 0.57615(13) 0.12458(12)
H5B H 0.6259 0.6322 0.1542
C7B C 0.62084(16) 0.50314(13) 0.32099(12)
H6B H 0.5348 0.5321 0.2777
C8B C 0.78136(16) 0.44114(13) 0.45463(13)
H7B H 0.8282 0.4190 0.5235
C9B C 0.83729(17) 0.43782(13) 0.37368(13)
H8B H 0.9291 0.4128 0.3749
C10B C 0.87507(16) 0.22264(13) 0.02473(13)
H9B H 0.8297 0.1929 0.0724
C11B C 0.99538(18) 0.23831(14) -0.08481(14)
H10B H 1.0525 0.2198 -0.1286
C12B C 0.94782(18) 0.34166(14) -0.07322(14)
H11B H 0.9633 0.4078 -0.1071
C13B C 0.47909(16) 0.72543(13) -0.02281(13)
H12B H 0.4469 0.7141 0.0366
C14B C 0.50171(18) 0.78763(14) -0.16583(13)
H13B H 0.4865 0.8303 -0.2274
C15B C 0.60335(18) 0.70902(14) -0.13465(13)
H14B H 0.6703 0.6864 -0.1693
O1 O 0.07546(16) 0.21820(13) 0.29065(12)
H1 H 0.106(2) 0.181(2) 0.252(2)
H2 H 0.110(2) 0.279(2) 0.285(2)
loop_
_geom_bond_atom_site_label_1
_geom_bond_atom_site_label_2
_geom_bond_site_symmetry_1
_geom_bond_site_symmetry_2
Cu1 N1 1_555 1_555
O1 H1 1_555 1_555
H2 O1 1_555 1_555
N1 N2 1_555 1_555
N2 N3 1_555 1_555
N4 C1 1_555 1_555
N5 Cu1 1_555 1_555
N6 C3 1_555 1_555
N7 C10 1_555 1_555
N8 C5 1_555 1_555
N9 C13 1_555 1_555
C1 C2 1_555 1_555
C2 H3 1_555 1_555
C3 C2 1_555 1_555
C4 C3 1_555 1_555
H4 C4 1_555 1_555
C5 C4 1_555 1_555
C6 C1 1_555 1_555
H5 C6 1_555 1_555
C7 N4 1_555 1_555
H6 C7 1_555 1_555
C8 N5 1_555 1_555
H7 C8 1_555 1_555
C9 N4 1_555 1_555
H8 C9 1_555 1_555
C10 N6 1_555 1_555
H9 C10 1_555 1_555
C11 N7 1_555 1_555
H10 C11 1_555 1_555
C12 N6 1_555 1_555
H11 C12 1_555 1_555
C13 N8 1_555 1_555
H12 C13 1_555 1_555
C14 N9 1_555 1_555
H13 C14 1_555 1_555
C15 N8 1_555 1_555
H14 C15 1_555 1_555
Cu1C N7 1_555 1_555
Cu1C_2 N7B 1_555 1_555
N1B Cu1 1_555 1_555
N2B N1B 1_555 1_555
N3B N2B 1_555 1_555
N4B C1B 1_555 1_555
N5B Cu1 1_555 1_555
N6B C3B 1_555 1_555
N7B C10B 1_555 1_555
N7C Cu1 1_555 1_555
N7A Cu1 1_555 1_555
N8B C5B 1_555 1_555
N9B C13B 1_555 1_555
C1B C2B 1_555 1_555
C2B H3B 1_555 1_555
C3B C2B 1_555 1_555
C4B C3B 1_555 1_555
H4B C4B 1_555 1_555
C5B C4B 1_555 1_555
C6B C1B 1_555 1_555
H5B C6B 1_555 1_555
C7B N4B 1_555 1_555
H6B C7B 1_555 1_555
C8B N5B 1_555 1_555
H7B C8B 1_555 1_555
C9B N4B 1_555 1_555
H8B C9B 1_555 1_555
C10B N6B 1_555 1_555
H9B C10B 1_555 1_555
C11B N7B 1_555 1_555
H10B C11B 1_555 1_555
C12B N6B 1_555 1_555
H11B C12B 1_555 1_555
C13B N8B 1_555 1_555
H12B C13B 1_555 1_555
C14B N9B 1_555 1_555
H13B C14B 1_555 1_555
C15B N8B 1_555 1_555
H14B C15B 1_555 1_555
N5 C7 1_555 1_555
C5 C6 1_555 1_555
C8 C9 1_555 1_555
C11 C12 1_555 1_555
C14 C15 1_555 1_555
N5B C7B 1_555 1_555
C5B C6B 1_555 1_555
C8B C9B 1_555 1_555
C11B C12B 1_555 1_555
C14B C15B 1_555 1_555

#END
