
#######################################################################
#
#                 Cambridge Crystallographic Data Centre
#                                CCDC 
#
#######################################################################
#
# If this CIF has been generated from an entry in the Cambridge 
# Structural Database, then it will include bibliographic, chemical, 
# crystal, experimental, refinement or atomic coordinate data resulting 
# from the CCDC's data processing and validation procedures.
#
#######################################################################

data_MAWFOG
_symmetry_cell_setting           monoclinic
_symmetry_space_group_name_H-M   'P 21/c'
_symmetry_Int_Tables_number      14
_space_group_name_Hall           '-P 2ybc'
loop_
_symmetry_equiv_pos_site_id
_symmetry_equiv_pos_as_xyz
1 x,y,z
2 -x,1/2+y,1/2-z
3 -x,-y,-z
4 x,1/2-y,1/2+z
_cell_length_a                   10.081(8)
_cell_length_b                   18.557(13)
_cell_length_c                   24.629(17)
_cell_angle_alpha                90
_cell_angle_beta                 92.85(6)
_cell_angle_gamma                90
_cell_volume                     4601.73
loop_
_atom_site_label
_atom_site_type_symbol
_atom_site_fract_x
_atom_site_fract_y
_atom_site_fract_z
Zn1 Zn 0.74586(6) 0.25467(3) 0.01154(2)
N3 N 0.6349(4) 0.42480(19) 0.12242(15)
N4 N 0.6754(4) 0.3460(2) 0.05766(16)
N5 N 1.0833(4) 0.60326(19) 0.10735(15)
N6 N 1.1537(4) 0.6664(2) 0.03885(16)
N7 N 0.5887(4) 0.72827(18) 0.10701(13)
N8 N 0.4385(4) 0.7367(2) 0.03894(13)
N9 N 0.8647(4) 0.0947(2) -0.10886(16)
N10 N 0.8181(4) 0.1651(2) -0.03848(16)
N11 N 0.4251(4) -0.0959(2) -0.11817(15)
N12 N 0.3539(4) -0.1718(2) -0.05689(17)
N13 N 0.9276(4) -0.21426(19) -0.12960(15)
N14 N 1.0698(4) -0.2443(2) -0.06242(13)
C1 C 0.7050(5) 0.5257(2) 0.18080(17)
C2 C 0.8446(5) 0.5212(2) 0.18058(16)
C3 C 0.9183(5) 0.5850(2) 0.17524(16)
C4 C 0.8544(5) 0.6525(2) 0.17374(17)
C5 C 0.7164(5) 0.6556(2) 0.17389(16)
C6 C 0.6413(5) 0.5918(2) 0.17833(16)
C7 C 0.6265(5) 0.4553(2) 0.17759(18)
H1 H 0.6636 0.4208 0.2050
H2 H 0.5326 0.4645 0.1853
C8 C 0.6665(5) 0.3558(3) 0.1107(2)
H3 H 0.6807 0.3191 0.1372
C9 C 0.6484(6) 0.4131(3) 0.03511(19)
H4 H 0.6467 0.4236 -0.0027
C10 C 0.6249(5) 0.4611(3) 0.0742(2)
H5 H 0.6052 0.5108 0.0693
C11 C 0.9137(5) 0.4490(2) 0.1834(2)
H6 H 0.9349 0.4339 0.1467
H7 H 0.8553 0.4133 0.1991
H8 H 0.9959 0.4531 0.2062
C12 C 1.0652(5) 0.5804(3) 0.16402(18)
H9 H 1.0971 0.5303 0.1694
H10 H 1.1172 0.6121 0.1895
C13 C 1.1713(5) 0.6530(2) 0.0910(2)
H11 H 1.2372 0.6753 0.1142
C14 C 1.0542(5) 0.6232(2) 0.02027(19)
H12 H 1.0211 0.6209 -0.0165
C15 C 1.0072(5) 0.5828(3) 0.06205(18)
H13 H 0.9375 0.5483 0.0600
C16 C 0.9355(5) 0.7212(2) 0.16881(19)
H14 H 0.9334 0.7365 0.1307
H15 H 1.0276 0.7120 0.1816
H16 H 0.8978 0.7592 0.1910
C17 C 0.6448(5) 0.7268(2) 0.16367(16)
H17 H 0.7076 0.7673 0.1697
H18 H 0.5726 0.7321 0.1892
C18 C 0.4642(4) 0.7465(3) 0.09144(16)
H19 H 0.4013 0.7645 0.1155
C19 C 0.5568(5) 0.7121(3) 0.0202(2)
H20 H 0.5709 0.7014 -0.0168
C20 C 0.6500(5) 0.7053(3) 0.06107(19)
H21 H 0.7385 0.6883 0.0588
C21 C 0.4891(5) 0.5959(3) 0.17657(19)
H22 H 0.4536 0.5843 0.1398
H23 H 0.4616 0.6447 0.1863
H24 H 0.4548 0.5613 0.2025
C22 C 0.8027(5) 0.0030(2) -0.17629(17)
C23 C 0.6627(5) 0.0043(2) -0.17698(16)
C24 C 0.5923(5) -0.0612(2) -0.18008(16)
C25 C 0.6613(5) -0.1269(2) -0.18559(16)
C26 C 0.7991(5) -0.1266(2) -0.18554(17)
C27 C 0.8714(5) -0.0616(2) -0.18101(17)
C28 C 0.8768(5) 0.0733(2) -0.16604(18)
H25 H 0.9716 0.0670 -0.1737
H26 H 0.8390 0.1113 -0.1904
C29 C 0.8356(5) 0.1618(3) -0.0919(2)
H27 H 0.8284 0.2023 -0.1154
C30 C 0.8428(5) 0.0945(3) -0.0212(2)
H28 H 0.8414 0.0788 0.0155
C31 C 0.8685(5) 0.0524(3) -0.06287(19)
H29 H 0.8863 0.0022 -0.0613
C32 C 0.5890(5) 0.0755(2) -0.17244(19)
H30 H 0.5062 0.0737 -0.1950
H31 H 0.6448 0.1148 -0.1849
H32 H 0.5686 0.0838 -0.1345
C33 C 0.4449(5) -0.0620(3) -0.17098(18)
H33 H 0.3972 -0.0895 -0.2003
H34 H 0.4098 -0.0122 -0.1713
C34 C 0.3454(5) -0.1516(3) -0.1077(2)
H35 H 0.2885 -0.1740 -0.1345
C35 C 0.4465(5) -0.1261(3) -0.03264(19)
H36 H 0.4758 -0.1277 0.0046
C36 C 0.4904(5) -0.0782(3) -0.06971(18)
H37 H 0.5530 -0.0405 -0.0634
C37 C 0.5847(5) -0.1970(2) -0.18955(19)
H38 H 0.6324 -0.2314 -0.2116
H39 H 0.4963 -0.1881 -0.2066
H40 H 0.5759 -0.2168 -0.1530
C38 C 0.8758(5) -0.1973(2) -0.18516(17)
H41 H 0.9505 -0.1935 -0.2096
H42 H 0.8166 -0.2367 -0.1987
C39 C 1.0490(5) -0.2398(2) -0.11564(17)
H43 H 1.1125 -0.2530 -0.1411
C40 C 0.9524(5) -0.2200(3) -0.0412(2)
H44 H 0.9361 -0.2170 -0.0036
C41 C 0.8649(5) -0.2014(3) -0.0824(2)
H45 H 0.7776 -0.1830 -0.0792
C42 C 1.0217(5) -0.0623(3) -0.1780(2)
H46 H 1.0546 -0.0240 -0.2012
H47 H 1.0533 -0.1091 -0.1907
H48 H 1.0544 -0.0544 -0.1404
Zn1B Zn 1.25414(6) 0.74533(3) -0.01154(2)
Zn1B_2 Zn 0.25414(6) 0.74533(3) -0.01154(2)
Zn1B_3 Zn 0.25414(6) -0.25467(3) -0.01154(2)
Zn1B_4 Zn 1.25414(6) -0.25467(3) -0.01154(2)
N6B N 0.8463(4) 0.3336(2) -0.03885(16)
N8B N 0.5615(4) 0.2633(2) -0.03894(13)
N12B N 0.6461(4) 0.1718(2) 0.05689(17)
N14B N 0.9302(4) 0.2443(2) 0.06242(13)
O1 O 0.7749(4) 0.18521(19) 0.23414(16)
O2 O 0.7588(6) 0.2999(2) 0.22809(17)
O3 O 0.7140(3) 0.2484(2) 0.30245(11)
N1 N 0.7488(4) 0.2449(3) 0.25451(14)
O4 O 0.2485(8) 0.3518(3) 0.2290(3)
O5 O 0.2746(5) 0.4628(2) 0.23799(18)
O6 O 0.2212(5) 0.3966(3) 0.3048(2)
N2 N 0.2483(6) 0.4032(3) 0.2560(2)
O7 O 0.2235(13) 0.4578(7) 0.4013(5)
C43 C 0.2275(11) 0.4028(6) 0.4397(4)
O9 O 0.2898(10) 0.4548(5) 0.1212(5)
C44 C 0.2297(15) 0.4055(8) 0.0896(5)
O8? O 0.3351(14) 0.4028(7) 0.4125(5)
O10? O 0.3283(15) 0.3696(8) 0.1145(7)
loop_
_geom_bond_atom_site_label_1
_geom_bond_atom_site_label_2
_geom_bond_site_symmetry_1
_geom_bond_site_symmetry_2
Zn1 N4 1_555 1_555
O1 N1 1_555 1_555
O2 N1 1_555 1_555
O3 N1 1_555 1_555
O4 N2 1_555 1_555
O5 N2 1_555 1_555
O6 N2 1_555 1_555
O7 C43 1_555 1_555
O9 C44 1_555 1_555
N3 C7 1_555 1_555
N4 C8 1_555 1_555
N5 C12 1_555 1_555
N6 C13 1_555 1_555
N7 C17 1_555 1_555
N8 C18 1_555 1_555
N9 C28 1_555 1_555
N10 Zn1 1_555 1_555
N11 C33 1_555 1_555
N12 C34 1_555 1_555
N13 C38 1_555 1_555
N14 C39 1_555 1_555
C1 C2 1_555 1_555
C2 C3 1_555 1_555
C3 C4 1_555 1_555
C4 C5 1_555 1_555
C5 C6 1_555 1_555
C6 C1 1_555 1_555
C7 C1 1_555 1_555
H1 C7 1_555 1_555
H2 C7 1_555 1_555
C8 N3 1_555 1_555
H3 C8 1_555 1_555
C9 N4 1_555 1_555
H4 C9 1_555 1_555
C10 N3 1_555 1_555
H5 C10 1_555 1_555
C11 C2 1_555 1_555
H6 C11 1_555 1_555
H7 C11 1_555 1_555
H8 C11 1_555 1_555
C12 C3 1_555 1_555
H9 C12 1_555 1_555
H10 C12 1_555 1_555
C13 N5 1_555 1_555
H11 C13 1_555 1_555
C14 N6 1_555 1_555
H12 C14 1_555 1_555
C15 N5 1_555 1_555
H13 C15 1_555 1_555
C16 C4 1_555 1_555
H14 C16 1_555 1_555
H15 C16 1_555 1_555
H16 C16 1_555 1_555
C17 C5 1_555 1_555
H17 C17 1_555 1_555
H18 C17 1_555 1_555
C18 N7 1_555 1_555
H19 C18 1_555 1_555
C19 N8 1_555 1_555
H20 C19 1_555 1_555
C20 N7 1_555 1_555
H21 C20 1_555 1_555
C21 C6 1_555 1_555
H22 C21 1_555 1_555
H23 C21 1_555 1_555
H24 C21 1_555 1_555
C22 C23 1_555 1_555
C23 C24 1_555 1_555
C24 C25 1_555 1_555
C25 C26 1_555 1_555
C26 C27 1_555 1_555
C27 C22 1_555 1_555
C28 C22 1_555 1_555
H25 C28 1_555 1_555
H26 C28 1_555 1_555
C29 N9 1_555 1_555
H27 C29 1_555 1_555
C30 N10 1_555 1_555
H28 C30 1_555 1_555
C31 N9 1_555 1_555
H29 C31 1_555 1_555
C32 C23 1_555 1_555
H30 C32 1_555 1_555
H31 C32 1_555 1_555
H32 C32 1_555 1_555
C33 C24 1_555 1_555
H33 C33 1_555 1_555
H34 C33 1_555 1_555
C34 N11 1_555 1_555
H35 C34 1_555 1_555
C35 N12 1_555 1_555
H36 C35 1_555 1_555
C36 N11 1_555 1_555
H37 C36 1_555 1_555
C37 C25 1_555 1_555
H38 C37 1_555 1_555
H39 C37 1_555 1_555
H40 C37 1_555 1_555
C38 C26 1_555 1_555
H41 C38 1_555 1_555
H42 C38 1_555 1_555
C39 N13 1_555 1_555
H43 C39 1_555 1_555
C40 N14 1_555 1_555
H44 C40 1_555 1_555
C41 N13 1_555 1_555
H45 C41 1_555 1_555
C42 C27 1_555 1_555
H46 C42 1_555 1_555
H47 C42 1_555 1_555
H48 C42 1_555 1_555
Zn1B N6 1_555 1_555
Zn1B_2 N8 1_555 1_555
Zn1B_3 N12 1_555 1_555
Zn1B_4 N14 1_555 1_555
N6B Zn1 1_555 1_555
N8B Zn1 1_555 1_555
N12B Zn1 1_555 1_555
N14B Zn1 1_555 1_555
N10 C29 1_555 1_555
C9 C10 1_555 1_555
C14 C15 1_555 1_555
C19 C20 1_555 1_555
C30 C31 1_555 1_555
C35 C36 1_555 1_555
C40 C41 1_555 1_555

#END
