
#######################################################################
#
#                 Cambridge Crystallographic Data Centre
#                                CCDC 
#
#######################################################################
#
# If this CIF has been generated from an entry in the Cambridge 
# Structural Database, then it will include bibliographic, chemical, 
# crystal, experimental, refinement or atomic coordinate data resulting 
# from the CCDC's data processing and validation procedures.
#
#######################################################################

data_MAWJOL
_symmetry_cell_setting           monoclinic
_symmetry_space_group_name_H-M   'P 21/n'
_symmetry_Int_Tables_number      14
_space_group_name_Hall           '-P 2yn'
loop_
_symmetry_equiv_pos_site_id
_symmetry_equiv_pos_as_xyz
1 x,y,z
2 1/2-x,1/2+y,1/2-z
3 -x,-y,-z
4 1/2+x,1/2-y,1/2+z
_cell_length_a                   7.2812(11)
_cell_length_b                   23.446(3)
_cell_length_c                   7.6503(7)
_cell_angle_alpha                90
_cell_angle_beta                 91.680(9)
_cell_angle_gamma                90
_cell_volume                     1305.46
loop_
_atom_site_label
_atom_site_type_symbol
_atom_site_fract_x
_atom_site_fract_y
_atom_site_fract_z
Mn1 Mn 0.36495(9) 0.27809(3) 0.44026(8)
O1 O 0.5636(4) 0.22999(13) 0.5936(4)
O2 O 0.1714(4) 0.23601(13) 0.6037(4)
C1 C 0.3585(5) 0.15379(18) 0.6654(6)
H1 H 0.3518 0.1440 0.5408
C2 C 0.5354(5) 0.18890(19) 0.6948(6)
C3 C 0.1934(5) 0.19243(19) 0.6992(5)
O3 O 0.3585(4) 0.21164(14) 0.2319(4)
O4 O 0.6422(4) 0.17495(13) 0.8188(4)
O5 O 0.0883(4) 0.17831(13) 0.8169(4)
N1 N 0.3888(5) 0.34997(16) 0.6434(5)
C4 C 0.3634(7) 0.3416(2) 0.8131(6)
H2 H 0.3260 0.3056 0.8491
C5 C 0.3896(7) 0.3832(2) 0.9381(6)
H3 H 0.3690 0.3755 1.0552
N2 N 0.4710(7) 0.47752(16) 1.0265(6)
C6 C 0.3545(7) 0.0979(2) 0.7651(8)
H4 H 0.2312 0.0823 0.7561
H5 H 0.3823 0.1055 0.8877
C7 C 0.4461(7) 0.4358(2) 0.8874(6)
C8 C 0.4889(9) 0.0537(2) 0.7002(10)
H6 H 0.4800 0.0197 0.7693
H7 H 0.6116 0.0685 0.7103
H8 H 0.4598 0.0449 0.5800
C9 C 0.4373(10) 0.4018(2) 0.5960(7)
H9 H 0.4514 0.4090 0.4775
C10 C 0.4685(11) 0.4462(2) 0.7126(8)
H10 H 0.5037 0.4820 0.6736
H11 H 0.467(3) 0.2211(17) 0.186(5)
H12 H 0.278(9) 0.226(3) 0.151(8)
Mn1C Mn -0.13505(9) 0.22191(3) -0.05974(8)
Mn1C_2 Mn 0.86495(9) 0.22191(3) 0.94026(8)
Mn1C_3 Mn -0.13505(9) 0.22191(3) 0.94026(8)
Mn1B Mn 0.63505(9) 0.72191(3) 1.55974(8)
Mn1_2 Mn -0.63505(9) 0.27809(3) 0.44026(8)
O1C O 0.0636(4) 0.27001(13) 0.0936(4)
O2C O -0.3286(4) 0.26399(13) 0.1037(4)
C1C C -0.1415(5) 0.34621(18) 0.1654(6)
H1C H -0.1482 0.3560 0.0408
C2C C 0.0354(5) 0.31110(19) 0.1948(6)
C3C C -0.3066(5) 0.30757(19) 0.1992(5)
O3C O -0.1415(4) 0.28836(14) -0.2681(4)
O4C O 0.1422(4) 0.32505(13) 0.3188(4)
O4_2 O -0.3578(4) 0.17495(13) -0.1812(4)
O5C O -0.4117(4) 0.32169(13) 0.3169(4)
O5C_2 O 0.5883(4) 0.32169(13) 0.3169(4)
O5_2 O 0.0883(4) 0.17831(13) -0.1831(4)
N1B N 0.6112(5) 0.65003(16) 1.3566(5)
N1C N -0.1112(5) 0.15003(16) 0.1434(5)
C4B C 0.6366(7) 0.6584(2) 1.1869(6)
H2B H 0.6740 0.6944 1.1509
C5B C 0.6104(7) 0.6168(2) 1.0619(6)
H3B H 0.6310 0.6245 0.9448
N2B N 0.5290(7) 0.52248(16) 0.9735(6)
C6C C -0.1455(7) 0.4021(2) 0.2651(8)
H4C H -0.2688 0.4177 0.2561
H5C H -0.1177 0.3945 0.3877
C7B C 0.5539(7) 0.5642(2) 1.1126(6)
C8C C -0.0111(9) 0.4463(2) 0.2002(10)
H6C H -0.0200 0.4803 0.2693
H7C H 0.1116 0.4315 0.2103
H8C H -0.0402 0.4551 0.0800
C9B C 0.5627(10) 0.5982(2) 1.4040(7)
H9B H 0.5486 0.5910 1.5225
C10B C 0.5315(11) 0.5538(2) 1.2874(8)
H10B H 0.4963 0.5180 1.3264
H11C H -0.033(3) 0.2789(17) -0.314(5)
H12C H -0.222(9) 0.274(3) -0.349(8)
loop_
_geom_bond_atom_site_label_1
_geom_bond_atom_site_label_2
_geom_bond_site_symmetry_1
_geom_bond_site_symmetry_2
Mn1 O1 1_555 1_555
O1 C2 1_555 1_555
O2 Mn1 1_555 1_555
C1 H1 1_555 1_555
C2 C1 1_555 1_555
C3 O2 1_555 1_555
O3 Mn1 1_555 1_555
O4 C2 1_555 1_555
O5 C3 1_555 1_555
N1 Mn1 1_555 1_555
C4 N1 1_555 1_555
H2 C4 1_555 1_555
C5 C4 1_555 1_555
H3 C5 1_555 1_555
N2 C7 1_555 1_555
C6 C1 1_555 1_555
H4 C6 1_555 1_555
H5 C6 1_555 1_555
C7 C5 1_555 1_555
C8 C6 1_555 1_555
H6 C8 1_555 1_555
H7 C8 1_555 1_555
H8 C8 1_555 1_555
C9 N1 1_555 1_555
H9 C9 1_555 1_555
C10 C7 1_555 1_555
H10 C10 1_555 1_555
H11 O3 1_555 1_555
H12 O3 1_555 1_555
Mn1C O1C 1_555 1_555
Mn1C_2 O4 1_555 1_555
Mn1C_3 O5 1_555 1_555
Mn1B N1B 1_555 1_555
Mn1_2 O5C 1_555 1_555
O1C C2C 1_555 1_555
O2C Mn1C 1_555 1_555
C1C H1C 1_555 1_555
C2C C1C 1_555 1_555
C3C O2C 1_555 1_555
O3C Mn1C 1_555 1_555
O4C Mn1 1_555 1_555
O4_2 Mn1C 1_555 1_555
O5C C3C 1_555 1_555
O5C_2 Mn1 1_555 1_555
O5_2 Mn1C 1_555 1_555
N1B C4B 1_555 1_555
N1C Mn1C 1_555 1_555
C4B H2B 1_555 1_555
C5B C4B 1_555 1_555
H3B C5B 1_555 1_555
N2B N2 1_555 1_555
C6C C1C 1_555 1_555
H4C C6C 1_555 1_555
H5C C6C 1_555 1_555
C7B C5B 1_555 1_555
C8C C6C 1_555 1_555
H6C C8C 1_555 1_555
H7C C8C 1_555 1_555
H8C C8C 1_555 1_555
C9B N1B 1_555 1_555
H9B C9B 1_555 1_555
C10B C7B 1_555 1_555
H10B C10B 1_555 1_555
H11C O3C 1_555 1_555
H12C O3C 1_555 1_555
C1 C3 1_555 1_555
C9 C10 1_555 1_555
C1C C3C 1_555 1_555
C2C O4C 1_555 1_555
N2B C7B 1_555 1_555
C9B C10B 1_555 1_555

#END
