
#######################################################################
#
#                 Cambridge Crystallographic Data Centre
#                                CCDC 
#
#######################################################################
#
# If this CIF has been generated from an entry in the Cambridge 
# Structural Database, then it will include bibliographic, chemical, 
# crystal, experimental, refinement or atomic coordinate data resulting 
# from the CCDC's data processing and validation procedures.
#
#######################################################################

data_MAWJIF
_symmetry_cell_setting           monoclinic
_symmetry_space_group_name_H-M   'P 21/n'
_symmetry_Int_Tables_number      14
_space_group_name_Hall           '-P 2yn'
loop_
_symmetry_equiv_pos_site_id
_symmetry_equiv_pos_as_xyz
1 x,y,z
2 1/2-x,1/2+y,1/2-z
3 -x,-y,-z
4 1/2+x,1/2-y,1/2+z
_cell_length_a                   7.2800(15)
_cell_length_b                   23.943(5)
_cell_length_c                   7.6140(15)
_cell_angle_alpha                90
_cell_angle_beta                 90.08(3)
_cell_angle_gamma                90
_cell_volume                     1327.16
loop_
_atom_site_label
_atom_site_type_symbol
_atom_site_fract_x
_atom_site_fract_y
_atom_site_fract_z
Mn1 Mn 0.34891(9) 0.27853(3) 0.44532(9)
O1 O 0.5484(5) 0.23289(14) 0.5992(5)
O2 O 0.1537(4) 0.23606(14) 0.6103(4)
C1 C 0.3473(6) 0.15628(18) 0.6658(6)
H1 H 0.3462 0.1471 0.5378
C2 C 0.5207(6) 0.19157(18) 0.6989(6)
C3 C 0.1761(6) 0.19236(18) 0.7009(6)
O3 O 0.3466(5) 0.21339(14) 0.2374(5)
O4 O 0.6249(5) 0.17745(14) 0.8215(5)
O5 O 0.0690(5) 0.17662(14) 0.8173(5)
N1 N 0.3572(6) 0.34847(16) 0.6446(5)
C4 C 0.3634(7) 0.3397(2) 0.8168(6)
H2 H 0.3563 0.3022 0.8573
C5 C 0.3796(7) 0.3817(2) 0.9415(6)
H3 H 0.3845 0.3732 1.0633
C6 C 0.3437(7) 0.1012(2) 0.7636(8)
H4 H 0.2219 0.0836 0.7470
H5 H 0.3598 0.1085 0.8907
C7 C 0.3884(7) 0.4368(2) 0.8831(7)
C8 C 0.4099(7) 0.4842(2) 1.0124(7)
H6 H 0.4050 0.4691 1.1333
H7 H 0.3060 0.5105 0.9981
C9 C 0.3621(8) 0.4018(2) 0.5892(7)
H8 H 0.3544 0.4091 0.4668
C10 C 0.3778(8) 0.4466(2) 0.7040(7)
H9 H 0.3813 0.4837 0.6601
C11 C 0.4916(8) 0.0606(2) 0.7034(10)
H10 H 0.4823 0.0259 0.7712
H11 H 0.6129 0.0773 0.7220
H12 H 0.4749 0.0524 0.5783
H13 H 0.259(16) 0.224(6) 0.160(16)
H14 H 0.452(11) 0.216(5) 0.177(15)
Mn1C Mn -0.15109(9) 0.22147(3) -0.05468(9)
Mn1C_2 Mn 0.84891(9) 0.22147(3) 0.94532(9)
Mn1C_3 Mn -0.15109(9) 0.22147(3) 0.94532(9)
Mn1B Mn 0.65109(9) 0.72147(3) 1.55468(9)
Mn1_2 Mn -0.65109(9) 0.27853(3) 0.44532(9)
O1C O 0.0484(5) 0.26711(14) 0.0992(5)
O2C O -0.3463(4) 0.26394(14) 0.1103(4)
C1C C -0.1527(6) 0.34372(18) 0.1658(6)
H1C H -0.1538 0.3529 0.0378
C2C C 0.0207(6) 0.30843(18) 0.1989(6)
C3C C -0.3239(6) 0.30764(18) 0.2009(6)
O3C O -0.1534(5) 0.28661(14) -0.2626(5)
O4C O 0.1249(5) 0.32255(14) 0.3215(5)
O4_2 O -0.3751(5) 0.17745(14) -0.1785(5)
O5C O -0.4310(5) 0.32338(14) 0.3173(5)
O5C_2 O 0.5690(5) 0.32338(14) 0.3173(5)
O5_2 O 0.0690(5) 0.17662(14) -0.1827(5)
N1B N 0.6428(6) 0.65153(16) 1.3554(5)
N1C N -0.1428(6) 0.15153(16) 0.1446(5)
C4B C 0.6366(7) 0.6603(2) 1.1832(6)
H2B H 0.6437 0.6978 1.1427
C5B C 0.6204(7) 0.6183(2) 1.0585(6)
H3B H 0.6155 0.6268 0.9367
C6C C -0.1563(7) 0.3988(2) 0.2636(8)
H4C H -0.2781 0.4164 0.2470
H5C H -0.1402 0.3915 0.3907
C7B C 0.6116(7) 0.5632(2) 1.1169(7)
C8B C 0.5901(7) 0.5158(2) 0.9876(7)
H6B H 0.5950 0.5309 0.8667
H7B H 0.6940 0.4895 1.0019
C9B C 0.6379(8) 0.5982(2) 1.4108(7)
H8B H 0.6456 0.5909 1.5332
C10B C 0.6222(8) 0.5534(2) 1.2960(7)
H9B H 0.6187 0.5163 1.3399
C11C C -0.0084(8) 0.4394(2) 0.2034(10)
H10C H -0.0177 0.4741 0.2712
H11C H 0.1129 0.4227 0.2220
H12C H -0.0251 0.4476 0.0783
H13C H -0.241(16) 0.276(6) -0.340(16)
H14C H -0.048(11) 0.284(5) -0.323(15)
loop_
_geom_bond_atom_site_label_1
_geom_bond_atom_site_label_2
_geom_bond_site_symmetry_1
_geom_bond_site_symmetry_2
Mn1 O1 1_555 1_555
O1 C2 1_555 1_555
O2 Mn1 1_555 1_555
C1 H1 1_555 1_555
C2 C1 1_555 1_555
C3 O2 1_555 1_555
O3 Mn1 1_555 1_555
O4 C2 1_555 1_555
O5 C3 1_555 1_555
N1 Mn1 1_555 1_555
C4 N1 1_555 1_555
H2 C4 1_555 1_555
C5 C4 1_555 1_555
H3 C5 1_555 1_555
C6 C1 1_555 1_555
H4 C6 1_555 1_555
H5 C6 1_555 1_555
C7 C5 1_555 1_555
C8 C7 1_555 1_555
H6 C8 1_555 1_555
H7 C8 1_555 1_555
C9 N1 1_555 1_555
H8 C9 1_555 1_555
C10 C7 1_555 1_555
H9 C10 1_555 1_555
C11 C6 1_555 1_555
H10 C11 1_555 1_555
H11 C11 1_555 1_555
H12 C11 1_555 1_555
H13 O3 1_555 1_555
H14 O3 1_555 1_555
Mn1C O1C 1_555 1_555
Mn1C_2 O4 1_555 1_555
Mn1C_3 O5 1_555 1_555
Mn1B N1B 1_555 1_555
Mn1_2 O5C 1_555 1_555
O1C C2C 1_555 1_555
O2C Mn1C 1_555 1_555
C1C H1C 1_555 1_555
C2C C1C 1_555 1_555
C3C O2C 1_555 1_555
O3C Mn1C 1_555 1_555
O4C Mn1 1_555 1_555
O4_2 Mn1C 1_555 1_555
O5C C3C 1_555 1_555
O5C_2 Mn1 1_555 1_555
O5_2 Mn1C 1_555 1_555
N1B C4B 1_555 1_555
N1C Mn1C 1_555 1_555
C4B H2B 1_555 1_555
C5B C4B 1_555 1_555
H3B C5B 1_555 1_555
C6C C1C 1_555 1_555
H4C C6C 1_555 1_555
H5C C6C 1_555 1_555
C7B C5B 1_555 1_555
C8B C8 1_555 1_555
H6B C8B 1_555 1_555
H7B C8B 1_555 1_555
C9B N1B 1_555 1_555
H8B C9B 1_555 1_555
C10B C7B 1_555 1_555
H9B C10B 1_555 1_555
C11C C6C 1_555 1_555
H10C C11C 1_555 1_555
H11C C11C 1_555 1_555
H12C C11C 1_555 1_555
H13C O3C 1_555 1_555
H14C O3C 1_555 1_555
C1 C3 1_555 1_555
C9 C10 1_555 1_555
C1C C3C 1_555 1_555
C2C O4C 1_555 1_555
C7B C8B 1_555 1_555
C9B C10B 1_555 1_555

#END
