
#######################################################################
#
#                 Cambridge Crystallographic Data Centre
#                                CCDC 
#
#######################################################################
#
# If this CIF has been generated from an entry in the Cambridge 
# Structural Database, then it will include bibliographic, chemical, 
# crystal, experimental, refinement or atomic coordinate data resulting 
# from the CCDC's data processing and validation procedures.
#
#######################################################################

data_MAWJUR
_symmetry_cell_setting           monoclinic
_symmetry_space_group_name_H-M   'P 21/n'
_symmetry_Int_Tables_number      14
_space_group_name_Hall           '-P 2yn'
loop_
_symmetry_equiv_pos_site_id
_symmetry_equiv_pos_as_xyz
1 x,y,z
2 1/2-x,1/2+y,1/2-z
3 -x,-y,-z
4 1/2+x,1/2-y,1/2+z
_cell_length_a                   7.4309(6)
_cell_length_b                   21.370(5)
_cell_length_c                   7.4721(10)
_cell_angle_alpha                90
_cell_angle_beta                 90.357(9)
_cell_angle_gamma                90
_cell_volume                     1186.53
loop_
_atom_site_label
_atom_site_type_symbol
_atom_site_fract_x
_atom_site_fract_y
_atom_site_fract_z
Mn1 Mn 0.51524(19) 0.21500(6) 0.52164(18)
N1 N 0.7142(11) 0.1332(4) 0.5236(11)
O1 O 0.1844(10) 0.2359(3) 1.2088(10)
O2 O 0.1783(10) 0.2349(3) 0.8266(9)
O3 O 0.3049(9) 0.2894(3) 0.5210(10)
O4 O 0.3870(10) 0.1688(3) 0.7425(9)
O5 O 0.3852(10) 0.1671(3) 1.3023(9)
C1 C 0.2706(12) 0.1866(5) 0.8519(13)
C2 C 0.2387(14) 0.1472(5) 1.0190(13)
H1 H 0.1103 0.1367 1.0194
C3 C 0.2751(13) 0.1865(4) 1.1906(12)
C4 C 0.3398(17) 0.0856(5) 1.0190(15)
H2 H 0.3429 0.0691 1.1399
H3 H 0.4630 0.0931 0.9824
C5 C 0.257(3) 0.0383(7) 0.898(2)
H4 H 0.3273 0.0005 0.9017
H5 H 0.1369 0.0296 0.9360
H6 H 0.2550 0.0542 0.7778
C6 C 0.8844(16) 0.1374(6) 0.480(2)
H7 H 0.9300 0.1771 0.4563
C7 C 1.0013(17) 0.0872(6) 0.467(2)
H8 H 1.1197 0.0933 0.4315
C8 C 0.9400(13) 0.0281(4) 0.5073(14)
C9 C 0.7652(16) 0.0240(6) 0.559(2)
H9 H 0.7169 -0.0147 0.5882
C10 C 0.6599(18) 0.0762(6) 0.567(2)
H10 H 0.5420 0.0715 0.6059
Mn1B Mn 1.48476(19) -0.21500(6) 0.47836(18)
Mn1C Mn 1.01524(19) 0.28500(6) 0.02164(18)
Mn1_2 Mn 0.51524(19) 0.21500(6) 1.52164(18)
Mn1C_2 Mn 1.01524(19) 0.28500(6) 1.02164(18)
Mn1C_3 Mn 0.01524(19) 0.28500(6) 1.02164(18)
N1B N 1.2858(11) -0.1332(4) 0.4764(11)
N1C N 0.2142(11) 0.3668(4) 1.0236(11)
O1C O 0.6844(10) 0.2641(3) 0.7088(10)
O2C O 0.6783(10) 0.2651(3) 0.3266(9)
O3C O -0.1951(9) 0.2106(3) 1.0210(10)
O4C O 0.8870(10) 0.3312(3) 0.2425(9)
O4C_2 O -0.1130(10) 0.3312(3) 1.2425(9)
O5_2 O 0.3852(10) 0.1671(3) 0.3023(9)
O5C O 0.8852(10) 0.3329(3) 0.8023(9)
O5C_2 O -0.1148(10) 0.3329(3) 0.8023(9)
C1C C 0.7706(12) 0.3134(5) 0.3519(13)
C2C C 0.7387(14) 0.3528(5) 0.5190(13)
H1C H 0.6103 0.3633 0.5194
C3C C 0.7751(13) 0.3135(4) 0.6906(12)
C4C C 0.8398(17) 0.4144(5) 0.5190(15)
H2C H 0.8429 0.4309 0.6399
H3C H 0.9630 0.4069 0.4824
C5C C 0.757(3) 0.4617(7) 0.398(2)
H4C H 0.8273 0.4995 0.4017
H5C H 0.6369 0.4704 0.4360
H6C H 0.7550 0.4458 0.2778
C6B C 1.1156(16) -0.1374(6) 0.520(2)
H7B H 1.0700 -0.1771 0.5437
C7B C 0.9987(17) -0.0872(6) 0.533(2)
H8B H 0.8803 -0.0933 0.5685
C8B C 1.0600(13) -0.0281(4) 0.4927(14)
C9B C 1.2348(16) -0.0240(6) 0.441(2)
H9B H 1.2831 0.0147 0.4118
C10B C 1.3401(18) -0.0762(6) 0.433(2)
H10B H 1.4580 -0.0715 0.3941
loop_
_geom_bond_atom_site_label_1
_geom_bond_atom_site_label_2
_geom_bond_site_symmetry_1
_geom_bond_site_symmetry_2
Mn1 N1 1_555 1_555
N1 C6 1_555 1_555
O1 C3 1_555 1_555
O2 C1 1_555 1_555
O3 Mn1 1_555 1_555
O4 Mn1 1_555 1_555
O5 C3 1_555 1_555
C1 O4 1_555 1_555
C2 C1 1_555 1_555
H1 C2 1_555 1_555
C3 C2 1_555 1_555
C4 C2 1_555 1_555
H2 C4 1_555 1_555
H3 C4 1_555 1_555
C5 C4 1_555 1_555
H4 C5 1_555 1_555
H5 C5 1_555 1_555
H6 C5 1_555 1_555
C6 H7 1_555 1_555
C7 C6 1_555 1_555
H8 C7 1_555 1_555
C8 C7 1_555 1_555
C9 C8 1_555 1_555
H9 C9 1_555 1_555
C10 N1 1_555 1_555
H10 C10 1_555 1_555
Mn1B N1B 1_555 1_555
Mn1C O4C 1_555 1_555
Mn1_2 O5 1_555 1_555
Mn1C_2 O5C 1_555 1_555
Mn1C_3 O1 1_555 1_555
N1B C6B 1_555 1_555
N1C Mn1C_3 1_555 1_555
O1C Mn1 1_555 1_555
O2C Mn1 1_555 1_555
O3C Mn1C_3 1_555 1_555
O4C C1C 1_555 1_555
O4C_2 Mn1C_3 1_555 1_555
O5_2 Mn1 1_555 1_555
O5C C3C 1_555 1_555
O5C_2 Mn1C_3 1_555 1_555
C1C O2C 1_555 1_555
C2C C1C 1_555 1_555
H1C C2C 1_555 1_555
C3C O1C 1_555 1_555
C4C C2C 1_555 1_555
H2C C4C 1_555 1_555
H3C C4C 1_555 1_555
C5C C4C 1_555 1_555
H4C C5C 1_555 1_555
H5C C5C 1_555 1_555
H6C C5C 1_555 1_555
C6B H7B 1_555 1_555
C7B C6B 1_555 1_555
H8B C7B 1_555 1_555
C8B C8 1_555 1_555
C9B C8B 1_555 1_555
H9B C9B 1_555 1_555
C10B N1B 1_555 1_555
H10B C10B 1_555 1_555
O2 Mn1C_3 1_555 1_555
C9 C10 1_555 1_555
C2C C3C 1_555 1_555
C7B C8B 1_555 1_555
C9B C10B 1_555 1_555

#END
