
#######################################################################
#
#                 Cambridge Crystallographic Data Centre
#                                CCDC 
#
#######################################################################
#
# If this CIF has been generated from an entry in the Cambridge 
# Structural Database, then it will include bibliographic, chemical, 
# crystal, experimental, refinement or atomic coordinate data resulting 
# from the CCDC's data processing and validation procedures.
#
#######################################################################

data_MAWKIG
_symmetry_cell_setting           orthorhombic
_symmetry_space_group_name_H-M   'P b c a'
_symmetry_Int_Tables_number      61
_space_group_name_Hall           '-P 2ac 2ab'
loop_
_symmetry_equiv_pos_site_id
_symmetry_equiv_pos_as_xyz
1 x,y,z
2 1/2-x,-y,1/2+z
3 -x,1/2+y,1/2-z
4 1/2+x,1/2-y,-z
5 -x,-y,-z
6 1/2+x,y,1/2-z
7 x,1/2-y,1/2+z
8 1/2-x,1/2+y,z
_cell_length_a                   29.3009(17)
_cell_length_b                   11.3200(6)
_cell_length_c                   12.0634(7)
_cell_angle_alpha                90
_cell_angle_beta                 90
_cell_angle_gamma                90
_cell_volume                     4001.26
loop_
_atom_site_label
_atom_site_type_symbol
_atom_site_fract_x
_atom_site_fract_y
_atom_site_fract_z
Mn1 Mn 0.32960(2) 0.22031(6) 0.54018(5)
N1 N 0.30962(15) 0.1470(4) 0.3675(3)
N2 N 0.32813(14) 0.1692(3) 0.2834(3)
N3 N 0.34801(16) 0.1881(4) 0.1997(3)
N4 N 0.38157(14) 0.3075(3) 0.4657(3)
N5 N 0.28641(13) 0.3532(3) 0.5022(3)
O1 O 0.36804(11) 0.0872(3) 0.5622(3)
O2 O 0.28247(11) 0.1358(3) 0.6113(3)
C1 C 0.40175(17) 0.0519(4) 0.4967(4)
C2 C 0.41876(17) -0.0625(5) 0.5076(5)
H1 H 0.4055 -0.1131 0.5592
C3 C 0.45438(19) -0.1027(5) 0.4445(5)
H2 H 0.4655 -0.1789 0.4545
C4 C 0.47378(18) -0.0287(5) 0.3653(5)
C5 C 0.45860(19) 0.0836(5) 0.3519(4)
H3 H 0.4720 0.1325 0.2992
C6 C 0.42213(17) 0.1266(5) 0.4183(4)
C7 C 0.41314(18) 0.2498(5) 0.4127(4)
H4 H 0.4318 0.2938 0.3661
C8 C 0.38840(18) 0.4386(5) 0.4625(5)
H5 H 0.4001 0.4581 0.3887
C9 C 0.4254(2) 0.4731(5) 0.5460(5)
H6 H 0.4140 0.4582 0.6203
H7 H 0.4518 0.4228 0.5346
C10 C 0.4400(3) 0.5984(6) 0.5386(6)
H8 H 0.4633 0.6134 0.5927
H9 H 0.4143 0.6490 0.5525
H10 H 0.4518 0.6139 0.4658
C11 C 0.34458(19) 0.5057(5) 0.4775(5)
H11 H 0.3482 0.5837 0.4452
H12 H 0.3392 0.5161 0.5562
C12 C 0.30263(19) 0.4474(4) 0.4260(4)
H13 H 0.2788 0.5056 0.4150
H14 H 0.3104 0.4136 0.3546
C13 C 0.24585(17) 0.3657(4) 0.5434(4)
H15 H 0.2293 0.4317 0.5213
C14 C 0.22405(16) 0.2859(4) 0.6207(4)
C15 C 0.18155(17) 0.3220(4) 0.6628(4)
H16 H 0.1695 0.3953 0.6439
C16 C 0.15798(17) 0.2472(4) 0.7326(4)
C17 C 0.17614(18) 0.1382(4) 0.7635(4)
H17 H 0.1599 0.0891 0.8111
C18 C 0.21787(17) 0.1035(4) 0.7237(4)
H18 H 0.2299 0.0311 0.7455
C19 C 0.24309(16) 0.1759(4) 0.6499(4)
Cl1 Cl 0.51988(5) -0.08130(17) 0.28739(13)
Cl2 Cl 0.10409(4) 0.28917(12) 0.78012(10)
Mn1F Mn 0.32960(2) 0.27969(6) 0.04018(5)
N3F N 0.34801(16) 0.3119(4) 0.6997(3)
loop_
_geom_bond_atom_site_label_1
_geom_bond_atom_site_label_2
_geom_bond_site_symmetry_1
_geom_bond_site_symmetry_2
Mn1 N1 1_555 1_555
N1 N2 1_555 1_555
N2 N3 1_555 1_555
N3 Mn1F 1_555 1_555
N4 Mn1 1_555 1_555
N5 Mn1 1_555 1_555
O1 Mn1 1_555 1_555
O2 Mn1 1_555 1_555
C1 O1 1_555 1_555
C2 C1 1_555 1_555
H1 C2 1_555 1_555
C3 C2 1_555 1_555
H2 C3 1_555 1_555
C4 C3 1_555 1_555
C5 C4 1_555 1_555
H3 C5 1_555 1_555
C6 C1 1_555 1_555
C7 N4 1_555 1_555
H4 C7 1_555 1_555
C8 N4 1_555 1_555
H5 C8 1_555 1_555
C9 C8 1_555 1_555
H6 C9 1_555 1_555
H7 C9 1_555 1_555
C10 C9 1_555 1_555
H8 C10 1_555 1_555
H9 C10 1_555 1_555
H10 C10 1_555 1_555
C11 C8 1_555 1_555
H11 C11 1_555 1_555
H12 C11 1_555 1_555
C12 N5 1_555 1_555
H13 C12 1_555 1_555
H14 C12 1_555 1_555
C13 N5 1_555 1_555
H15 C13 1_555 1_555
C14 C13 1_555 1_555
C15 C14 1_555 1_555
H16 C15 1_555 1_555
C16 C15 1_555 1_555
C17 C16 1_555 1_555
H17 C17 1_555 1_555
C18 C17 1_555 1_555
H18 C18 1_555 1_555
C19 O2 1_555 1_555
Cl1 C4 1_555 1_555
Cl2 C16 1_555 1_555
N3F Mn1 1_555 1_555
C5 C6 1_555 1_555
C6 C7 1_555 1_555
C11 C12 1_555 1_555
C14 C19 1_555 1_555
C18 C19 1_555 1_555

#END
