
#######################################################################
#
#                 Cambridge Crystallographic Data Centre
#                                CCDC 
#
#######################################################################
#
# If this CIF has been generated from an entry in the Cambridge 
# Structural Database, then it will include bibliographic, chemical, 
# crystal, experimental, refinement or atomic coordinate data resulting 
# from the CCDC's data processing and validation procedures.
#
#######################################################################

data_MAWLON
_symmetry_cell_setting           monoclinic
_symmetry_space_group_name_H-M   'P 21/c'
_symmetry_Int_Tables_number      14
_space_group_name_Hall           '-P 2ybc'
loop_
_symmetry_equiv_pos_site_id
_symmetry_equiv_pos_as_xyz
1 x,y,z
2 -x,1/2+y,1/2-z
3 -x,-y,-z
4 x,1/2-y,1/2+z
_cell_length_a                   8.901(1)
_cell_length_b                   17.268(2)
_cell_length_c                   11.510(1)
_cell_angle_alpha                90
_cell_angle_beta                 102.979(1)
_cell_angle_gamma                90
_cell_volume                     1723.92
loop_
_atom_site_label
_atom_site_type_symbol
_atom_site_fract_x
_atom_site_fract_y
_atom_site_fract_z
Ag1 Ag 0.43022(3) 0.338790(14) 0.01295(2)
S1 S 0.32709(7) 0.27160(4) -0.40367(5)
N1 N 0.2751(2) 0.41162(11) -0.24683(18)
C1 C 0.1811(3) 0.23107(13) -0.3381(2)
N2 N 0.5475(2) 0.43804(11) -0.17824(17)
N3 N 0.2308(2) 0.37471(13) -0.15632(18)
N4 N 0.5834(2) 0.41454(12) -0.06233(18)
C2 C 0.4651(3) 0.31494(15) -0.2807(2)
H1 H 0.5682 0.3101 -0.2946
H2 H 0.4624 0.2879 -0.2074
C3 C 0.4271(3) 0.40045(13) -0.2686(2)
H3 H 0.4278 0.4252 -0.3451
C4 C 0.6435(3) 0.49407(15) -0.1983(2)
H4 H 0.6415 0.5184 -0.2707
C5 C 0.1548(3) 0.44908(17) -0.3179(3)
H5 H 0.1574 0.4778 -0.3858
C6 C 0.7450(3) 0.50858(17) -0.0920(3)
H6 H 0.8246 0.5446 -0.0772
C7 C 0.2156(3) 0.18282(16) -0.2400(2)
H7 H 0.3175 0.1713 -0.2040
C8 C 0.7034(3) 0.45811(16) -0.0113(2)
H8 H 0.7531 0.4550 0.0687
C9 C 0.0814(3) 0.39022(18) -0.1713(3)
H9 H 0.0195 0.3724 -0.1217
C10 C 0.0300(3) 0.24755(18) -0.3935(3)
H10 H 0.0074 0.2804 -0.4592
C11 C 0.0954(5) 0.15185(19) -0.1962(3)
H11 H 0.1171 0.1203 -0.1290
C12 C -0.0542(5) 0.1671(2) -0.2505(4)
H12 H -0.1338 0.1457 -0.2207
C13 C -0.0872(4) 0.2140(2) -0.3490(4)
H13 H -0.1894 0.2236 -0.3864
C14 C 0.0302(3) 0.4366(2) -0.2710(3)
H14 H -0.0692 0.4553 -0.2997
Ag1C Ag 0.43022(3) 0.161210(14) -0.48705(2)
S1C S 0.32709(7) 0.22840(4) 0.09633(5)
B1 B 0.6282(6) 0.3796(3) -0.5584(5)
F1 F 0.6346(16) 0.3069(7) -0.5381(12)
F2 F 0.4823(5) 0.4097(3) -0.5406(3)
F3 F 0.6066(5) 0.3866(5) -0.6839(5)
F4 F 0.7361(13) 0.4173(8) -0.4981(12)
F5? F 0.619(4) 0.3992(13) -0.449(2)
F6? F 0.613(2) 0.4188(11) -0.6485(19)
F7? F 0.6052(15) 0.3002(6) -0.5478(10)
F8? F 0.7965(11) 0.3958(7) -0.5268(9)
loop_
_geom_bond_atom_site_label_1
_geom_bond_atom_site_label_2
_geom_bond_site_symmetry_1
_geom_bond_site_symmetry_2
Ag1 N3 1_555 1_555
S1 C1 1_555 1_555
N1 N3 1_555 1_555
C1 C7 1_555 1_555
N2 N4 1_555 1_555
N3 C9 1_555 1_555
N4 Ag1 1_555 1_555
C2 S1 1_555 1_555
H1 C2 1_555 1_555
H2 C2 1_555 1_555
C3 N1 1_555 1_555
H3 C3 1_555 1_555
C4 N2 1_555 1_555
H4 C4 1_555 1_555
C5 N1 1_555 1_555
H5 C5 1_555 1_555
C6 C4 1_555 1_555
H6 C6 1_555 1_555
C7 H7 1_555 1_555
C8 N4 1_555 1_555
H8 C8 1_555 1_555
C9 H9 1_555 1_555
C10 C1 1_555 1_555
H10 C10 1_555 1_555
C11 C7 1_555 1_555
H11 C11 1_555 1_555
C12 C11 1_555 1_555
H12 C12 1_555 1_555
C13 C10 1_555 1_555
H13 C13 1_555 1_555
C14 C5 1_555 1_555
H14 C14 1_555 1_555
B1 F1 1_555 1_555
F2 B1 1_555 1_555
F3 B1 1_555 1_555
F4 B1 1_555 1_555
Ag1C S1 1_555 1_555
S1C Ag1 1_555 1_555
N2 C3 1_555 1_555
C2 C3 1_555 1_555
C6 C8 1_555 1_555
C9 C14 1_555 1_555
C12 C13 1_555 1_555

#END
