
#######################################################################
#
#                 Cambridge Crystallographic Data Centre
#                                CCDC 
#
#######################################################################
#
# If this CIF has been generated from an entry in the Cambridge 
# Structural Database, then it will include bibliographic, chemical, 
# crystal, experimental, refinement or atomic coordinate data resulting 
# from the CCDC's data processing and validation procedures.
#
#######################################################################

data_MAWLAZ
_symmetry_cell_setting           monoclinic
_symmetry_space_group_name_H-M   'P 21/a'
_symmetry_Int_Tables_number      14
_space_group_name_Hall           '-P 2yab'
loop_
_symmetry_equiv_pos_site_id
_symmetry_equiv_pos_as_xyz
1 x,y,z
2 1/2-x,1/2+y,-z
3 -x,-y,-z
4 1/2+x,1/2-y,z
_cell_length_a                   21.368(1)
_cell_length_b                   10.170(1)
_cell_length_c                   21.555(2)
_cell_angle_alpha                90
_cell_angle_beta                 118.776(1)
_cell_angle_gamma                90
_cell_volume                     4105.72
loop_
_atom_site_label
_atom_site_type_symbol
_atom_site_fract_x
_atom_site_fract_y
_atom_site_fract_z
Ag1 Ag 0.45334(2) 0.23530(5) 0.20045(2)
Ag2 Ag 0.72690(3) 0.06318(6) 0.25989(3)
S1 S 0.49454(6) 0.40620(11) 0.29748(6)
S2 S 0.68809(5) 0.26773(11) 0.18743(7)
C1 C 0.5573(2) 0.3828(4) 0.1448(2)
N1 N 0.54784(16) 0.1398(3) 0.12865(16)
C2 C 0.5422(3) 0.5929(5) 0.1875(3)
H1 H 0.5124 0.6614 0.1855
N2 N 0.45003(18) 0.2738(4) 0.05021(18)
C3 C 0.3684(3) 0.6357(5) 0.2025(3)
H2 H 0.3995 0.7064 0.2133
C4 C 0.5698(2) -0.0048(5) 0.2075(2)
H3 H 0.5736 -0.0485 0.2471
C5 C 0.5757(2) 0.0369(4) 0.1109(2)
H4 H 0.5830 0.0316 0.0718
N3 N 0.35775(18) 0.5628(3) 0.24916(19)
C6 C 0.4133(3) 0.2927(5) -0.0201(2)
H5 H 0.4322 0.3038 -0.0506
N4 N 0.3091(2) 0.4665(4) 0.2159(2)
N5 N 0.34374(19) 0.6543(4) 0.3440(2)
C7 C 0.4879(2) 0.2542(5) 0.3994(2)
H6 H 0.5196 0.1994 0.3938
C8 C 0.63087(19) 0.3927(4) 0.1907(2)
N6 N 0.54369(18) 0.1151(4) 0.18879(18)
C9 C 0.7600(3) 0.4048(5) 0.1346(3)
H7 H 0.7192 0.3933 0.0911
C10 C 0.4629(2) 0.3670(4) 0.3589(2)
C11 C 0.5270(2) 0.2672(4) 0.0937(2)
H8 H 0.5472 0.2728 0.0615
C12 C 0.5911(3) -0.0580(4) 0.1608(3)
H9 H 0.6114 -0.1401 0.1633
C13 C 0.5141(2) 0.4859(4) 0.1433(2)
H10 H 0.4654 0.4829 0.1120
C14 C 0.4657(3) 0.2227(5) 0.4483(3)
H11 H 0.4816 0.1460 0.4750
C15 C 0.6138(3) 0.5989(5) 0.2345(3)
H12 H 0.6324 0.6696 0.2654
N7 N 0.27898(19) 0.6085(4) 0.3317(2)
C16 C 0.2579(3) 0.6910(7) 0.3655(3)
H13 H 0.2148 0.6847 0.3661
C17 C 0.8785(3) 0.4864(5) 0.2018(3)
H14 H 0.9174 0.5312 0.2039
C18 C 0.3631(3) 0.7613(6) 0.3855(3)
H15 H 0.4054 0.8083 0.4016
C19 C 0.3959(3) 0.4178(6) 0.4179(3)
H16 H 0.3660 0.4739 0.4256
C20 C 0.8241(2) 0.3712(5) 0.2600(3)
H17 H 0.8266 0.3371 0.3012
C21 C 0.8186(3) 0.4701(6) 0.1387(3)
H18 H 0.8170 0.5033 0.0977
C22 C 0.7630(2) 0.3567(4) 0.1959(2)
C23 C 0.6584(2) 0.4991(5) 0.2356(3)
H19 H 0.7071 0.5037 0.2668
C24 C 0.3907(2) 0.5797(4) 0.3253(2)
H20 H 0.4336 0.6332 0.3394
C25 C 0.4152(2) 0.4505(4) 0.3663(2)
C26 C 0.8817(3) 0.4371(6) 0.2623(3)
H21 H 0.9230 0.4481 0.3054
C27 C 0.4198(3) 0.3056(6) 0.4572(3)
H22 H 0.4050 0.2852 0.4901
C28 C 0.3251(3) 0.5865(6) 0.1371(3)
H23 H 0.3204 0.6163 0.0943
N8 N 0.40604(18) 0.2616(4) 0.0794(2)
C29 C 0.6247(3) 0.2798(5) 0.3507(3)
H24 H 0.6006 0.2112 0.3198
C30 C 0.6239(3) 0.4899(6) 0.3999(3)
H25 H 0.5992 0.5645 0.4008
C31 C 0.5887(2) 0.3886(5) 0.3539(2)
C32 C 0.6985(3) 0.2742(8) 0.3950(4)
H26 H 0.7241 0.2024 0.3924
C33 C 0.6970(4) 0.4793(9) 0.4450(4)
H27 H 0.7211 0.5457 0.4775
C34 C 0.3427(3) 0.2925(6) -0.0380(3)
H28 H 0.3038 0.3034 -0.0829
C35 C 0.3409(2) 0.2726(6) 0.0244(3)
H29 H 0.2991 0.2675 0.0277
C36 C 0.2896(3) 0.4831(6) 0.1475(3)
H30 H 0.2561 0.4310 0.1112
C37 C 0.7332(3) 0.3724(10) 0.4416(3)
H31 H 0.7821 0.3663 0.4716
C38 C 0.3084(4) 0.7878(8) 0.3996(4)
H32 H 0.3058 0.8567 0.4266
Ag2C Ag 0.22690(3) 0.43682(6) 0.25989(3)
N4C N 0.8091(2) 0.0335(4) 0.2159(2)
N7C N 0.77898(19) -0.1085(4) 0.3317(2)
B1 B 0.1069(3) 0.3155(7) -0.0411(3)
F1 F 0.08428(17) 0.3136(3) -0.11240(14)
F2 F 0.0690(7) 0.2381(15) -0.0241(5)
F3 F 0.1759(4) 0.2923(15) -0.0092(5)
F4 F 0.0985(8) 0.4469(7) -0.0245(4)
B2 B 0.0594(3) 0.6179(8) 0.3794(4)
F5 F 0.0517(3) 0.5076(4) 0.3419(2)
F6 F 0.0141(7) 0.6962(10) 0.3162(8)
F7 F 0.0230(11) 0.600(2) 0.4121(10)
F8 F 0.1211(9) 0.672(2) 0.3908(12)
F9? F 0.0578(13) 0.370(5) -0.0283(7)
F10? F 0.105(2) 0.1802(17) -0.0207(10)
F11? F 0.1723(12) 0.353(3) 0.0057(11)
F12? F 0.0085(5) 0.6890(11) 0.3727(8)
F13? F 0.0833(8) 0.5456(10) 0.4504(5)
F14? F 0.1168(8) 0.689(2) 0.4137(10)
loop_
_geom_bond_atom_site_label_1
_geom_bond_atom_site_label_2
_geom_bond_site_symmetry_1
_geom_bond_site_symmetry_2
Ag1 S1 1_555 1_555
Ag2 S2 1_555 1_555
S1 C10 1_555 1_555
S2 C8 1_555 1_555
C1 C8 1_555 1_555
N1 C5 1_555 1_555
C2 H1 1_555 1_555
N2 C6 1_555 1_555
C3 H2 1_555 1_555
C4 H3 1_555 1_555
C5 H4 1_555 1_555
N3 C3 1_555 1_555
C6 H5 1_555 1_555
N4 N3 1_555 1_555
N5 N7 1_555 1_555
C7 H6 1_555 1_555
C8 C23 1_555 1_555
N6 Ag1 1_555 1_555
C9 H7 1_555 1_555
C10 C7 1_555 1_555
C11 C1 1_555 1_555
H8 C11 1_555 1_555
C12 C4 1_555 1_555
H9 C12 1_555 1_555
C13 C1 1_555 1_555
H10 C13 1_555 1_555
C14 C7 1_555 1_555
H11 C14 1_555 1_555
C15 C2 1_555 1_555
H12 C15 1_555 1_555
N7 C16 1_555 1_555
C16 H13 1_555 1_555
C17 H14 1_555 1_555
C18 N5 1_555 1_555
H15 C18 1_555 1_555
C19 H16 1_555 1_555
C20 H17 1_555 1_555
C21 C9 1_555 1_555
H18 C21 1_555 1_555
C22 S2 1_555 1_555
C23 C15 1_555 1_555
H19 C23 1_555 1_555
C24 N3 1_555 1_555
H20 C24 1_555 1_555
C25 C10 1_555 1_555
C26 C17 1_555 1_555
H21 C26 1_555 1_555
C27 C14 1_555 1_555
H22 C27 1_555 1_555
C28 C3 1_555 1_555
H23 C28 1_555 1_555
N8 Ag1 1_555 1_555
C29 H24 1_555 1_555
C30 H25 1_555 1_555
C31 S1 1_555 1_555
C32 C29 1_555 1_555
H26 C32 1_555 1_555
C33 C30 1_555 1_555
H27 C33 1_555 1_555
C34 C6 1_555 1_555
H28 C34 1_555 1_555
C35 N8 1_555 1_555
H29 C35 1_555 1_555
C36 N4 1_555 1_555
H30 C36 1_555 1_555
C37 C32 1_555 1_555
H31 C37 1_555 1_555
C38 C16 1_555 1_555
H32 C38 1_555 1_555
B1 F1 1_555 1_555
F2 B1 1_555 1_555
F3 B1 1_555 1_555
F4 B1 1_555 1_555
B2 F5 1_555 1_555
F6 B2 1_555 1_555
F7 B2 1_555 1_555
F8 B2 1_555 1_555
Ag2C N4 1_555 1_555
N4C Ag2 1_555 1_555
N7C Ag2 1_555 1_555
N1 N6 1_555 1_555
N1 C11 1_555 1_555
C2 C13 1_555 1_555
N2 C11 1_555 1_555
N2 N8 1_555 1_555
C4 N6 1_555 1_555
C5 C12 1_555 1_555
N5 C24 1_555 1_555
C9 C22 1_555 1_555
N7 Ag2C 1_555 1_555
C17 C21 1_555 1_555
C18 C38 1_555 1_555
C19 C25 1_555 1_555
C19 C27 1_555 1_555
C20 C22 1_555 1_555
C20 C26 1_555 1_555
C24 C25 1_555 1_555
C28 C36 1_555 1_555
C29 C31 1_555 1_555
C30 C31 1_555 1_555
C33 C37 1_555 1_555
C34 C35 1_555 1_555

#END
