
#######################################################################
#
#                 Cambridge Crystallographic Data Centre
#                                CCDC 
#
#######################################################################
#
# If this CIF has been generated from an entry in the Cambridge 
# Structural Database, then it will include bibliographic, chemical, 
# crystal, experimental, refinement or atomic coordinate data resulting 
# from the CCDC's data processing and validation procedures.
#
#######################################################################

data_MAWMII
_symmetry_cell_setting           monoclinic
_symmetry_space_group_name_H-M   'P 21/c'
_symmetry_Int_Tables_number      14
_space_group_name_Hall           '-P 2ybc'
loop_
_symmetry_equiv_pos_site_id
_symmetry_equiv_pos_as_xyz
1 x,y,z
2 -x,1/2+y,1/2-z
3 -x,-y,-z
4 x,1/2-y,1/2+z
_cell_length_a                   10.668(1)
_cell_length_b                   17.659(1)
_cell_length_c                   12.544(1)
_cell_angle_alpha                90
_cell_angle_beta                 95.56(1)
_cell_angle_gamma                90
_cell_volume                     2352
loop_
_atom_site_label
_atom_site_type_symbol
_atom_site_fract_x
_atom_site_fract_y
_atom_site_fract_z
Ag1 Ag 0.58730(3) 0.213174(17) 0.46125(2)
S1 S 0.52195(9) 0.19266(5) 0.82753(8)
N1 N 0.5351(3) 0.08492(16) 0.6310(2)
N2 N 0.4746(3) 0.13039(17) 0.5542(2)
N3 N 0.7589(3) 0.14719(17) 0.5335(2)
N4 N 0.7576(3) 0.10434(17) 0.6242(2)
C1 C 0.8682(4) 0.0671(2) 0.6480(3)
C2 C 0.9414(4) 0.0853(3) 0.5683(4)
H1 H 1.0226 0.0680 0.5613
C3 C 0.4615(4) 0.0245(2) 0.6514(3)
C4 C 0.8701(3) 0.1351(2) 0.4985(3)
C5 C 0.3534(4) 0.0321(2) 0.5854(3)
H2 H 0.2848 -0.0006 0.5809
C6 C 0.3854(4) 0.2276(2) 0.7490(4)
C7 C 0.6513(3) 0.1091(2) 0.6894(3)
H3 H 0.6687 0.0742 0.7498
C8 C 0.6434(3) 0.1883(2) 0.7359(3)
H4 H 0.6245 0.2244 0.6783
H5 H 0.7239 0.2019 0.7735
C9 C 0.5014(5) -0.0342(2) 0.7331(4)
H6 H 0.4356 -0.0711 0.7356
H7 H 0.5177 -0.0107 0.8021
H8 H 0.5765 -0.0587 0.7143
C10 C 0.3642(4) 0.0971(2) 0.5264(3)
C11 C 0.9039(5) 0.1728(3) 0.3985(4)
H9 H 0.8314 0.1984 0.3645
H10 H 0.9321 0.1354 0.3507
H11 H 0.9700 0.2089 0.4162
C12 C 0.2717(4) 0.1332(3) 0.4461(3)
H12 H 0.2319 0.1749 0.4786
H13 H 0.2090 0.0967 0.4207
H14 H 0.3142 0.1513 0.3871
C13 C 0.8969(4) 0.0195(3) 0.7456(4)
H15 H 0.9091 0.0515 0.8076
H16 H 0.9722 -0.0092 0.7389
H17 H 0.8281 -0.0145 0.7531
C14 C 0.3891(5) 0.2868(3) 0.6792(4)
H18 H 0.4656 0.3084 0.6660
C15 C 0.2763(8) 0.3143(4) 0.6279(6)
H19 H 0.2780 0.3541 0.5796
C17 C 0.2721(5) 0.1938(3) 0.7689(6)
H20 H 0.2696 0.1528 0.8150
C18 C 0.1610(7) 0.2250(7) 0.7156(10)
H21 H 0.0833 0.2045 0.7277
C19 C 0.1657(11) 0.2840(7) 0.6474(10)
H22 H 0.0913 0.3037 0.6137
Ag1C Ag 0.58730(3) 0.286826(17) 0.96125(2)
S1C S 0.52195(9) 0.30734(5) 0.32753(8)
S2 S 0.78020(12) 0.37451(7) 0.55472(10)
O1 O 0.6653(4) 0.3463(2) 0.5893(3)
F1 F 0.8592(5) 0.5126(2) 0.5299(4)
O2 O 0.7884(5) 0.3626(3) 0.4442(3)
O3 O 0.8926(5) 0.3614(4) 0.6221(4)
F2 F 0.7638(5) 0.4952(3) 0.6671(4)
F3 F 0.6594(5) 0.4981(3) 0.5120(6)
C16 C 0.7624(7) 0.4755(4) 0.5633(6)
loop_
_geom_bond_atom_site_label_1
_geom_bond_atom_site_label_2
_geom_bond_site_symmetry_1
_geom_bond_site_symmetry_2
Ag1 N2 1_555 1_555
S1 C6 1_555 1_555
S2 O1 1_555 1_555
N1 N2 1_555 1_555
N2 C10 1_555 1_555
N3 Ag1 1_555 1_555
N4 N3 1_555 1_555
C1 N4 1_555 1_555
C2 C1 1_555 1_555
H1 C2 1_555 1_555
C3 N1 1_555 1_555
C4 N3 1_555 1_555
C5 C3 1_555 1_555
H2 C5 1_555 1_555
C6 C14 1_555 1_555
C7 N1 1_555 1_555
H3 C7 1_555 1_555
C8 S1 1_555 1_555
H4 C8 1_555 1_555
H5 C8 1_555 1_555
C9 C3 1_555 1_555
H6 C9 1_555 1_555
H7 C9 1_555 1_555
H8 C9 1_555 1_555
C10 C5 1_555 1_555
C11 C4 1_555 1_555
H9 C11 1_555 1_555
H10 C11 1_555 1_555
H11 C11 1_555 1_555
F1 C16 1_555 1_555
O2 S2 1_555 1_555
C12 C10 1_555 1_555
H12 C12 1_555 1_555
H13 C12 1_555 1_555
H14 C12 1_555 1_555
C13 C1 1_555 1_555
H15 C13 1_555 1_555
H16 C13 1_555 1_555
H17 C13 1_555 1_555
O3 S2 1_555 1_555
F2 C16 1_555 1_555
C14 H18 1_555 1_555
F3 C16 1_555 1_555
C15 C14 1_555 1_555
H19 C15 1_555 1_555
C16 S2 1_555 1_555
C17 C6 1_555 1_555
H20 C17 1_555 1_555
C18 C17 1_555 1_555
H21 C18 1_555 1_555
C19 C15 1_555 1_555
H22 C19 1_555 1_555
Ag1C S1 1_555 1_555
S1C Ag1 1_555 1_555
N4 C7 1_555 1_555
C2 C4 1_555 1_555
C7 C8 1_555 1_555
C18 C19 1_555 1_555

#END
