
#######################################################################
#
#                 Cambridge Crystallographic Data Centre
#                                CCDC 
#
#######################################################################
#
# If this CIF has been generated from an entry in the Cambridge 
# Structural Database, then it will include bibliographic, chemical, 
# crystal, experimental, refinement or atomic coordinate data resulting 
# from the CCDC's data processing and validation procedures.
#
#######################################################################

data_MAWMAA
_symmetry_cell_setting           monoclinic
_symmetry_space_group_name_H-M   'P 21/c'
_symmetry_Int_Tables_number      14
_space_group_name_Hall           '-P 2ybc'
loop_
_symmetry_equiv_pos_site_id
_symmetry_equiv_pos_as_xyz
1 x,y,z
2 -x,1/2+y,1/2-z
3 -x,-y,-z
4 x,1/2-y,1/2+z
_cell_length_a                   9.672(1)
_cell_length_b                   19.400(2)
_cell_length_c                   12.301(1)
_cell_angle_alpha                90
_cell_angle_beta                 100.521(2)
_cell_angle_gamma                90
_cell_volume                     2269.32
loop_
_atom_site_label
_atom_site_type_symbol
_atom_site_fract_x
_atom_site_fract_y
_atom_site_fract_z
Ag1 Ag 0.37962(3) 0.194525(16) 0.53563(2)
S1 S 0.29970(11) 0.22308(5) 0.15775(8)
N1 N 0.5153(3) 0.09102(15) 0.3829(2)
N2 N 0.5446(3) 0.12907(16) 0.4776(3)
C1 C 0.6036(4) 0.03597(19) 0.3871(4)
C2 C 0.4093(4) 0.11401(19) 0.2922(3)
H1 H 0.4184 0.0857 0.2279
N3 N 0.2288(3) 0.13248(15) 0.4052(2)
N4 N 0.2684(3) 0.10311(15) 0.3143(2)
C3 C 0.0498(5) 0.0738(2) 0.3069(4)
H2 H -0.0394 0.0549 0.2853
C4 C 0.0960(4) 0.1139(2) 0.4008(3)
C5 C 0.1704(5) 0.0325(3) 0.1468(4)
H3 H 0.0827 0.0103 0.1177
H4 H 0.2439 -0.0014 0.1598
H5 H 0.1913 0.0659 0.0946
C6 C 0.5984(5) -0.0144(2) 0.2946(4)
H6 H 0.5039 -0.0310 0.2726
H7 H 0.6599 -0.0524 0.3188
H8 H 0.6279 0.0079 0.2330
C7 C 0.1598(4) 0.0678(2) 0.2536(3)
C8 C 0.6898(4) 0.0390(2) 0.4879(4)
H9 H 0.7608 0.0080 0.5156
C9 C 0.4390(4) 0.18878(18) 0.2633(3)
H10 H 0.5275 0.1909 0.2370
H11 H 0.4477 0.2170 0.3293
C10 C 0.2009(4) 0.2707(2) 0.2411(3)
C11 C 0.6518(4) 0.0969(2) 0.5411(3)
C12 C 0.0180(5) 0.1374(3) 0.4885(4)
H12 H 0.0379 0.1852 0.5045
H13 H 0.0471 0.1106 0.5543
H14 H -0.0812 0.1315 0.4630
C13 C 0.7141(5) 0.1258(3) 0.6513(4)
H15 H 0.7337 0.1739 0.6438
H16 H 0.7998 0.1018 0.6801
H17 H 0.6490 0.1202 0.7009
C14 C -0.0108(7) 0.2908(4) 0.3123(6)
H18 H -0.1033 0.2797 0.3162
C15 C 0.0637(5) 0.2522(3) 0.2412(4)
H19 H 0.0209 0.2163 0.1974
C16 C 0.2641(6) 0.3250(3) 0.3056(4)
H20 H 0.3572 0.3365 0.3046
C17 C 0.1887(8) 0.3616(3) 0.3708(5)
H21 H 0.2299 0.3986 0.4127
C18 C 0.0554(9) 0.3437(5) 0.3737(6)
H22 H 0.0063 0.3683 0.4193
Ag1C Ag 0.37962(3) 0.305475(16) 0.03563(2)
S1C S 0.29970(11) 0.27692(5) 0.65775(8)
P1 P 0.66938(16) 0.36697(9) 0.53020(13)
F1 F 0.6264(18) 0.3895(8) 0.4113(8)
F2 F 0.8012(17) 0.3322(14) 0.5093(18)
F3 F 0.7187(14) 0.3474(11) 0.6550(9)
F4 F 0.5394(15) 0.4020(7) 0.5627(10)
F5 F 0.5863(18) 0.3021(5) 0.5205(12)
F6 F 0.752(2) 0.4366(8) 0.5552(10)
F7? F 0.711(5) 0.2943(10) 0.555(3)
F8? F 0.620(4) 0.4374(13) 0.491(3)
F9? F 0.684(2) 0.3842(13) 0.6517(13)
F10? F 0.5144(14) 0.348(2) 0.5285(16)
F11? F 0.8186(16) 0.3859(16) 0.5267(15)
F12? F 0.644(3) 0.346(2) 0.4058(14)
loop_
_geom_bond_atom_site_label_1
_geom_bond_atom_site_label_2
_geom_bond_site_symmetry_1
_geom_bond_site_symmetry_2
Ag1 N2 1_555 1_555
S1 C9 1_555 1_555
N1 N2 1_555 1_555
N2 C11 1_555 1_555
C1 N1 1_555 1_555
C2 N1 1_555 1_555
H1 C2 1_555 1_555
N3 Ag1 1_555 1_555
N4 C2 1_555 1_555
C3 H2 1_555 1_555
C4 N3 1_555 1_555
C5 H3 1_555 1_555
H4 C5 1_555 1_555
H5 C5 1_555 1_555
C6 C1 1_555 1_555
H6 C6 1_555 1_555
H7 C6 1_555 1_555
H8 C6 1_555 1_555
C7 N4 1_555 1_555
C8 C1 1_555 1_555
H9 C8 1_555 1_555
C9 C2 1_555 1_555
H10 C9 1_555 1_555
H11 C9 1_555 1_555
C10 S1 1_555 1_555
C11 C8 1_555 1_555
C12 C4 1_555 1_555
H12 C12 1_555 1_555
H13 C12 1_555 1_555
H14 C12 1_555 1_555
C13 C11 1_555 1_555
H15 C13 1_555 1_555
H16 C13 1_555 1_555
H17 C13 1_555 1_555
C14 H18 1_555 1_555
C15 C10 1_555 1_555
H19 C15 1_555 1_555
C16 C10 1_555 1_555
H20 C16 1_555 1_555
C17 C16 1_555 1_555
H21 C17 1_555 1_555
C18 C14 1_555 1_555
H22 C18 1_555 1_555
P1 F1 1_555 1_555
F2 P1 1_555 1_555
F3 P1 1_555 1_555
F4 P1 1_555 1_555
F5 P1 1_555 1_555
F6 P1 1_555 1_555
Ag1C S1 1_555 1_555
S1C Ag1 1_555 1_555
N3 N4 1_555 1_555
C3 C4 1_555 1_555
C3 C7 1_555 1_555
C5 C7 1_555 1_555
C14 C15 1_555 1_555
C17 C18 1_555 1_555

#END
