
#######################################################################
#
#                 Cambridge Crystallographic Data Centre
#                                CCDC 
#
#######################################################################
#
# If this CIF has been generated from an entry in the Cambridge 
# Structural Database, then it will include bibliographic, chemical, 
# crystal, experimental, refinement or atomic coordinate data resulting 
# from the CCDC's data processing and validation procedures.
#
#######################################################################

data_MAWMUU
_symmetry_cell_setting           monoclinic
_symmetry_space_group_name_H-M   'P 21/c'
_symmetry_Int_Tables_number      14
_space_group_name_Hall           '-P 2ybc'
loop_
_symmetry_equiv_pos_site_id
_symmetry_equiv_pos_as_xyz
1 x,y,z
2 -x,1/2+y,1/2-z
3 -x,-y,-z
4 x,1/2-y,1/2+z
_cell_length_a                   9.056(1)
_cell_length_b                   17.253(1)
_cell_length_c                   11.107(1)
_cell_angle_alpha                90
_cell_angle_beta                 101.500(2)
_cell_angle_gamma                90
_cell_volume                     1700.55
loop_
_atom_site_label
_atom_site_type_symbol
_atom_site_fract_x
_atom_site_fract_y
_atom_site_fract_z
Cu1 Cu 0.39616(4) 0.329750(19) -0.01869(3)
S1 S 0.31893(7) 0.26924(4) -0.42702(5)
N1 N 0.5338(2) 0.42512(11) -0.17811(16)
N2 N 0.5510(2) 0.39795(12) -0.06103(17)
C1 C 0.1766(3) 0.22788(14) -0.3559(2)
N3 N 0.2700(2) 0.40456(11) -0.25338(16)
C2 C 0.4550(3) 0.30840(13) -0.2995(2)
H1 H 0.5554 0.3043 -0.3171
H2 H 0.4526 0.2785 -0.2260
N4 N 0.2272(2) 0.36844(12) -0.15720(17)
C3 C 0.4205(2) 0.39359(13) -0.27702(19)
H3 H 0.4265 0.4225 -0.3519
C4 C 0.2122(3) 0.17420(15) -0.2623(2)
H4 H 0.3118 0.1594 -0.2338
C5 C 0.6395(3) 0.47816(15) -0.1876(2)
H5 H 0.6503 0.5044 -0.2585
C6 C 0.6689(3) 0.43662(17) 0.0016(2)
H6 H 0.7065 0.4308 0.0853
C7 C 0.1532(3) 0.44185(15) -0.3230(2)
H7 H 0.1555 0.4704 -0.3937
C8 C 0.0311(3) 0.43021(17) -0.2712(3)
H8 H -0.0661 0.4488 -0.2988
C9 C 0.0820(3) 0.38482(16) -0.1687(3)
H9 H 0.0222 0.3680 -0.1148
C10 C 0.0299(3) 0.24869(17) -0.4009(3)
H10 H 0.0067 0.2845 -0.4645
C11 C 0.0991(5) 0.1429(2) -0.2117(3)
H11 H 0.1220 0.1075 -0.1476
C12 C 0.7281(3) 0.48630(17) -0.0736(3)
H12 H 0.8112 0.5187 -0.0512
C13 C -0.0489(5) 0.1642(2) -0.2561(4)
H13 H -0.1253 0.1431 -0.2215
C14 C -0.0835(4) 0.2158(2) -0.3504(4)
H14 H -0.1836 0.2290 -0.3810
Cu1C Cu 0.39616(4) 0.170250(19) -0.51869(3)
S1C S 0.31893(7) 0.23076(4) 0.07298(5)
B1 B 0.6093(17) 0.3851(10) -0.5685(13)
F1 F 0.6421(16) 0.3136(6) -0.5460(14)
F2 F 0.6254(7) 0.4016(8) -0.6920(7)
F3 F 0.4847(7) 0.4139(5) -0.5519(7)
F4 F 0.7357(11) 0.4245(8) -0.5021(7)
B2? B 0.645(2) 0.3872(11) -0.5723(18)
F5? F 0.601(3) 0.3108(11) -0.555(2)
F6? F 0.7985(16) 0.4007(11) -0.5400(15)
F7? F 0.588(3) 0.408(3) -0.688(2)
F8? F 0.592(4) 0.4294(16) -0.489(3)
F9? F 0.626(4) 0.3052(11) -0.581(3)
F10? F 0.471(2) 0.3931(16) -0.548(2)
F11? F 0.698(2) 0.4080(13) -0.4571(18)
F12? F 0.643(3) 0.4246(11) -0.658(2)
loop_
_geom_bond_atom_site_label_1
_geom_bond_atom_site_label_2
_geom_bond_site_symmetry_1
_geom_bond_site_symmetry_2
Cu1 N2 1_555 1_555
S1 C1 1_555 1_555
N1 N2 1_555 1_555
N2 C6 1_555 1_555
C1 C4 1_555 1_555
N3 N4 1_555 1_555
C2 S1 1_555 1_555
H1 C2 1_555 1_555
H2 C2 1_555 1_555
N4 Cu1 1_555 1_555
C3 N1 1_555 1_555
H3 C3 1_555 1_555
C4 H4 1_555 1_555
C5 N1 1_555 1_555
H5 C5 1_555 1_555
C6 H6 1_555 1_555
C7 N3 1_555 1_555
H7 C7 1_555 1_555
C8 C7 1_555 1_555
H8 C8 1_555 1_555
C9 N4 1_555 1_555
H9 C9 1_555 1_555
C10 C1 1_555 1_555
H10 C10 1_555 1_555
C11 C4 1_555 1_555
H11 C11 1_555 1_555
C12 C5 1_555 1_555
H12 C12 1_555 1_555
C13 C11 1_555 1_555
H13 C13 1_555 1_555
C14 C10 1_555 1_555
H14 C14 1_555 1_555
B1 F1 1_555 1_555
F2 B1 1_555 1_555
F3 B1 1_555 1_555
F4 B1 1_555 1_555
Cu1C S1 1_555 1_555
S1C Cu1 1_555 1_555
N3 C3 1_555 1_555
C2 C3 1_555 1_555
C6 C12 1_555 1_555
C8 C9 1_555 1_555
C13 C14 1_555 1_555

#END
