
#######################################################################
#
#                 Cambridge Crystallographic Data Centre
#                                CCDC 
#
#######################################################################
#
# If this CIF has been generated from an entry in the Cambridge 
# Structural Database, then it will include bibliographic, chemical, 
# crystal, experimental, refinement or atomic coordinate data resulting 
# from the CCDC's data processing and validation procedures.
#
#######################################################################

data_MAWNAB
_symmetry_cell_setting           monoclinic
_symmetry_space_group_name_H-M   'P 21/c'
_symmetry_Int_Tables_number      14
_space_group_name_Hall           '-P 2ybc'
loop_
_symmetry_equiv_pos_site_id
_symmetry_equiv_pos_as_xyz
1 x,y,z
2 -x,1/2+y,1/2-z
3 -x,-y,-z
4 x,1/2-y,1/2+z
_cell_length_a                   10.460(1)
_cell_length_b                   17.394(1)
_cell_length_c                   11.542(1)
_cell_angle_alpha                90
_cell_angle_beta                 96.521(1)
_cell_angle_gamma                90
_cell_volume                     2086.38
loop_
_atom_site_label
_atom_site_type_symbol
_atom_site_fract_x
_atom_site_fract_y
_atom_site_fract_z
Cu1 Cu 0.38961(3) 0.172347(16) 0.53615(2)
S1 S 0.45447(5) 0.23791(3) 0.16074(5)
N1 N 0.44460(17) 0.09413(10) 0.32353(15)
N2 N 0.21976(16) 0.11022(10) 0.34183(15)
N3 N 0.49589(16) 0.11306(10) 0.43486(15)
N4 N 0.22015(17) 0.14100(11) 0.45173(15)
C1 C 0.6283(2) 0.03433(12) 0.3515(2)
H1 H 0.6988 0.0034 0.3417
C2 C 0.5244(2) 0.04753(13) 0.2709(2)
C3 C 0.7077(2) 0.23134(16) 0.2440(2)
H2 H 0.7127 0.1939 0.1872
C4 C 0.6084(2) 0.07598(12) 0.45117(19)
C5 C 0.3333(2) 0.21432(12) 0.25591(19)
H3 H 0.3548 0.2391 0.3309
H4 H 0.2504 0.2338 0.2222
C6 C 0.5909(2) 0.26484(14) 0.2604(2)
C7 C 0.1044(2) 0.07712(14) 0.3044(2)
C8 C 0.1035(2) 0.12516(15) 0.4823(2)
C9 C 0.3243(2) 0.12777(12) 0.27337(18)
H5 H 0.3027 0.1046 0.1962
C10 C 0.0307(2) 0.08562(15) 0.3935(2)
H6 H -0.0532 0.0681 0.3946
C11 C 0.6922(2) 0.08309(15) 0.5639(2)
H7 H 0.7286 0.1338 0.5704
H8 H 0.7600 0.0457 0.5668
H9 H 0.6419 0.0743 0.6273
C12 C 0.8176(3) 0.2551(2) 0.3146(3)
H10 H 0.8969 0.2337 0.3037
C13 C 0.5846(2) 0.31913(14) 0.3459(2)
H11 H 0.5061 0.3414 0.3570
C14 C 0.8113(3) 0.3090(2) 0.3991(3)
H12 H 0.8856 0.3242 0.4454
C15 C 0.4951(3) 0.02189(15) 0.1479(2)
H13 H 0.4151 -0.0057 0.1391
H14 H 0.5628 -0.0111 0.1278
H15 H 0.4886 0.0659 0.0974
C16 C 0.0760(3) 0.04026(18) 0.1875(2)
H16 H -0.0069 0.0160 0.1820
H17 H 0.1406 0.0024 0.1774
H18 H 0.0761 0.0787 0.1278
C17 C 0.6953(3) 0.34075(17) 0.4159(3)
H19 H 0.6907 0.3770 0.4744
C18 C 0.0667(3) 0.1510(2) 0.5965(2)
H20 H 0.1402 0.1481 0.6543
H21 H -0.0004 0.1184 0.6191
H22 H 0.0365 0.2031 0.5901
Cu1C Cu 0.38961(3) 0.327653(16) 0.03615(2)
S1C S 0.45447(5) 0.26209(3) 0.66074(5)
B1 B 0.2115(4) 0.1056(2) -0.0862(3)
F1 F 0.28241(17) 0.11555(11) -0.1811(2)
F2 F 0.2183(2) 0.02972(11) -0.05091(18)
F3 F 0.08811(18) 0.12436(16) -0.11985(18)
F4 F 0.2663(3) 0.14992(14) 0.0026(2)
B2? B 0.177(2) 0.1393(12) -0.0693(17)
F5? F 0.1606(14) 0.1608(7) 0.0343(11)
F6? F 0.3033(13) 0.1413(9) -0.0933(16)
F7? F 0.1149(14) 0.1909(9) -0.1393(12)
F8? F 0.139(2) 0.0656(11) -0.0806(17)
loop_
_geom_bond_atom_site_label_1
_geom_bond_atom_site_label_2
_geom_bond_site_symmetry_1
_geom_bond_site_symmetry_2
Cu1 N3 1_555 1_555
S1 C5 1_555 1_555
N1 N3 1_555 1_555
N2 N4 1_555 1_555
N3 C4 1_555 1_555
N4 Cu1 1_555 1_555
C1 H1 1_555 1_555
C2 N1 1_555 1_555
C3 H2 1_555 1_555
C4 C1 1_555 1_555
C5 H3 1_555 1_555
H4 C5 1_555 1_555
C6 S1 1_555 1_555
C7 N2 1_555 1_555
C8 N4 1_555 1_555
C9 N1 1_555 1_555
H5 C9 1_555 1_555
C10 C7 1_555 1_555
H6 C10 1_555 1_555
C11 C4 1_555 1_555
H7 C11 1_555 1_555
H8 C11 1_555 1_555
H9 C11 1_555 1_555
C12 C3 1_555 1_555
H10 C12 1_555 1_555
C13 C6 1_555 1_555
H11 C13 1_555 1_555
C14 C12 1_555 1_555
H12 C14 1_555 1_555
C15 C2 1_555 1_555
H13 C15 1_555 1_555
H14 C15 1_555 1_555
H15 C15 1_555 1_555
C16 C7 1_555 1_555
H16 C16 1_555 1_555
H17 C16 1_555 1_555
H18 C16 1_555 1_555
C17 C13 1_555 1_555
H19 C17 1_555 1_555
C18 C8 1_555 1_555
H20 C18 1_555 1_555
H21 C18 1_555 1_555
H22 C18 1_555 1_555
B1 F1 1_555 1_555
F2 B1 1_555 1_555
F3 B1 1_555 1_555
F4 B1 1_555 1_555
Cu1C S1 1_555 1_555
S1C Cu1 1_555 1_555
N2 C9 1_555 1_555
C1 C2 1_555 1_555
C3 C6 1_555 1_555
C5 C9 1_555 1_555
C8 C10 1_555 1_555
C14 C17 1_555 1_555

#END
