
#######################################################################
#
#                 Cambridge Crystallographic Data Centre
#                                CCDC 
#
#######################################################################
#
# If this CIF has been generated from an entry in the Cambridge 
# Structural Database, then it will include bibliographic, chemical, 
# crystal, experimental, refinement or atomic coordinate data resulting 
# from the CCDC's data processing and validation procedures.
#
#######################################################################

data_MAWSAF
_symmetry_cell_setting           triclinic
_symmetry_space_group_name_H-M   'P -1'
_symmetry_Int_Tables_number      2
_space_group_name_Hall           '-P 1'
loop_
_symmetry_equiv_pos_site_id
_symmetry_equiv_pos_as_xyz
1 x,y,z
2 -x,-y,-z
_cell_length_a                   7.1731(19)
_cell_length_b                   11.472(3)
_cell_length_c                   15.109(4)
_cell_angle_alpha                78.661(4)
_cell_angle_beta                 82.368(4)
_cell_angle_gamma                87.230(4)
_cell_volume                     1207.93
loop_
_atom_site_label
_atom_site_type_symbol
_atom_site_fract_x
_atom_site_fract_y
_atom_site_fract_z
Fe1 Fe 0.45506(12) 0.71621(7) 0.28760(6)
P1 P 0.0440(2) 0.68073(15) 0.42887(12)
P2 P 0.4310(2) 0.81736(15) 0.05855(11)
O1 O 0.1780(7) 0.7176(4) 0.3455(3)
O2 O -0.1037(7) 0.5953(4) 0.4188(4)
O3 O -0.0583(8) 0.7907(5) 0.4606(4)
H1 H -0.0406 0.8501 0.4194
O4 O 0.1533(7) 0.6227(4) 0.5111(3)
H2 H 0.1149 0.5546 0.5323
O5 O 0.4258(7) 0.7469(4) 0.1529(3)
O6 O 0.6174(6) 0.8701(4) 0.0160(3)
H3 H 0.6003 0.9392 -0.0113
O7 O 0.3701(8) 0.7383(5) -0.0050(3)
H4 H 0.3216 0.6770 0.0263
O8 O 0.2797(7) 0.9215(4) 0.0578(4)
O9 O 0.7494(7) 0.7033(5) 0.2575(3)
H5 H 0.8014 0.7085 0.2038
H6 H 0.8022 0.6814 0.3046
O10 O 0.5235(7) 0.6790(4) 0.4261(3)
H7 H 0.6473 0.6527 0.4217
H8 H 0.4083 0.6455 0.4639
N1 N 0.4572(8) 0.5254(5) 0.2907(4)
N2 N 0.4733(8) -0.0952(5) 0.2905(4)
C1 C 0.3733(11) 0.4460(6) 0.3596(5)
H11 H 0.3071 0.4748 0.4092
C2 C 0.3768(10) 0.3257(6) 0.3632(5)
H12 H 0.3149 0.2752 0.4141
C3 C 0.4717(9) 0.2785(6) 0.2917(4)
C4 C 0.5543(10) 0.3597(6) 0.2194(4)
H13 H 0.6162 0.3329 0.1680
C5 C 0.5482(10) 0.4806(6) 0.2208(5)
H14 H 0.6101 0.5330 0.1710
C6 C 0.4765(9) 0.1499(6) 0.2912(5)
C7 C 0.5452(10) 0.1039(6) 0.2153(5)
H15 H 0.5926 0.1552 0.1613
C8 C 0.5445(9) -0.0176(6) 0.2182(5)
H16 H 0.5972 -0.0466 0.1661
C9 C 0.4084(10) 0.0676(6) 0.3685(5)
H17 H 0.3622 0.0933 0.4228
C10 C 0.4091(10) -0.0524(6) 0.3648(5)
H18 H 0.3618 -0.1061 0.4174
Fe1_2 Fe 0.45506(12) -0.28379(7) 0.28760(6)
N2_2 N 0.4733(8) 0.9048(5) 0.2905(4)
O11 O 0.9244(8) 0.8163(6) 0.1028(4)
H9 H 1.0473 0.8388 0.0863
H10 H 0.8343 0.8385 0.0693
N3 N 0.1960(9) 0.5438(5) 0.0779(4)
N4 N -0.0572(8) -0.0111(5) 0.3452(4)
C11 C 0.1110(11) 0.5356(6) 0.1612(5)
H19 H 0.0950 0.6045 0.1866
C12 C 0.0448(10) 0.4306(6) 0.2126(5)
H20 H -0.0201 0.4296 0.2710
C13 C 0.0718(10) 0.3258(6) 0.1800(5)
C14 C 0.1631(14) 0.3363(7) 0.0919(5)
H21 H 0.1850 0.2687 0.0652
C15 C 0.2215(16) 0.4453(8) 0.0440(6)
H22 H 0.2823 0.4504 -0.0157
C16 C 0.0197(9) 0.2086(6) 0.2363(5)
C17 C 0.0540(11) 0.1044(6) 0.2025(5)
H23 H 0.1036 0.1074 0.1413
C18 C 0.0148(11) -0.0036(6) 0.2594(5)
H24 H 0.0400 -0.0739 0.2363
C19 C -0.0593(10) 0.1980(6) 0.3268(5)
H25 H -0.0903 0.2662 0.3519
C20 C -0.0915(11) 0.0864(6) 0.3793(5)
H26 H -0.1393 0.0796 0.4411
loop_
_geom_bond_atom_site_label_1
_geom_bond_atom_site_label_2
_geom_bond_site_symmetry_1
_geom_bond_site_symmetry_2
Fe1 O1 1_555 1_555
P1 O1 1_555 1_555
P2 O5 1_555 1_555
O2 P1 1_555 1_555
O3 P1 1_555 1_555
H1 O3 1_555 1_555
O4 P1 1_555 1_555
H2 O4 1_555 1_555
O5 Fe1 1_555 1_555
O6 P2 1_555 1_555
H3 O6 1_555 1_555
O7 P2 1_555 1_555
H4 O7 1_555 1_555
O8 P2 1_555 1_555
O9 Fe1 1_555 1_555
H5 O9 1_555 1_555
H6 O9 1_555 1_555
O10 Fe1 1_555 1_555
H7 O10 1_555 1_555
H8 O10 1_555 1_555
O11 H9 1_555 1_555
H10 O11 1_555 1_555
N1 Fe1 1_555 1_555
N2 C8 1_555 1_555
N3 C11 1_555 1_555
N4 C18 1_555 1_555
C1 N1 1_555 1_555
H11 C1 1_555 1_555
C2 C1 1_555 1_555
H12 C2 1_555 1_555
C3 C2 1_555 1_555
C4 C3 1_555 1_555
H13 C4 1_555 1_555
C5 N1 1_555 1_555
H14 C5 1_555 1_555
C6 C3 1_555 1_555
C7 C6 1_555 1_555
H15 C7 1_555 1_555
C8 C7 1_555 1_555
H16 C8 1_555 1_555
C9 C6 1_555 1_555
H17 C9 1_555 1_555
C10 N2 1_555 1_555
H18 C10 1_555 1_555
C11 H19 1_555 1_555
C12 C11 1_555 1_555
H20 C12 1_555 1_555
C13 C12 1_555 1_555
C14 C13 1_555 1_555
H21 C14 1_555 1_555
C15 N3 1_555 1_555
H22 C15 1_555 1_555
C16 C13 1_555 1_555
C17 C16 1_555 1_555
H23 C17 1_555 1_555
C18 C17 1_555 1_555
H24 C18 1_555 1_555
C19 C16 1_555 1_555
H25 C19 1_555 1_555
C20 N4 1_555 1_555
H26 C20 1_555 1_555
Fe1_2 N2 1_555 1_555
N2_2 Fe1 1_555 1_555
C4 C5 1_555 1_555
C9 C10 1_555 1_555
C14 C15 1_555 1_555
C19 C20 1_555 1_555

#END
