
#######################################################################
#
#                 Cambridge Crystallographic Data Centre
#                                CCDC 
#
#######################################################################
#
# If this CIF has been generated from an entry in the Cambridge 
# Structural Database, then it will include bibliographic, chemical, 
# crystal, experimental, refinement or atomic coordinate data resulting 
# from the CCDC's data processing and validation procedures.
#
#######################################################################

data_MAWSIO
_symmetry_cell_setting           triclinic
_symmetry_space_group_name_H-M   'P -1'
_symmetry_Int_Tables_number      2
_space_group_name_Hall           '-P 1'
loop_
_symmetry_equiv_pos_site_id
_symmetry_equiv_pos_as_xyz
1 x,y,z
2 -x,-y,-z
_cell_length_a                   6.62451(30)
_cell_length_b                   7.2474(4)
_cell_length_c                   12.2548(7)
_cell_angle_alpha                102.876(4)
_cell_angle_beta                 100.292(10)
_cell_angle_gamma                101.293(7)
_cell_volume                     547.041
loop_
_atom_site_label
_atom_site_type_symbol
_atom_site_fract_x
_atom_site_fract_y
_atom_site_fract_z
Zr1 Zr 0.6862(7) 0.4866(4) 0.33166(29)
F1 F 0.6869(20) 0.6094(14) 0.1934(6)
F2 F 0.5927(16) 0.2259(9) 0.2268(7)
F3 F 0.7767(17) 0.7466(9) 0.4368(7)
O1 O 0.7016(25) 0.3682(13) 0.4738(6)
O2 O 1.0022(9) 0.5122(14) 0.6625(10)
O3 O 0.6239(11) 0.5045(15) 0.6769(10)
P1 P 0.7667(10) 0.3943(8) 0.6125(5)
C1 C 0.7351(25) 0.1538(12) 0.6451(8)
N1 N 0.8607(19) 0.1635(14) 0.7610(7)
C2 C 0.7402(19) 0.1960(22) 0.8489(9)
C3 C 0.9106(25) -0.0200(20) 0.7499(7)
C4 C 1.0495(19) -0.0227(23) 0.8545(7)
C5 C 0.8677(26) 0.1929(17) 0.9614(9)
C6 C 0.9251(15) 0.0014(16) 0.9450(5)
Zr1A Zr 1.3138(7) -0.4866(4) 1.66834(29)
Zr1A_2 Zr 1.3138(7) 0.5134(4) 0.66834(29)
Zr1A_3 Zr 0.3138(7) 0.5134(4) 0.66834(29)
Zr1_2 Zr 0.6862(7) -0.5134(4) 1.33166(29)
Zr1_3 Zr 1.6862(7) -0.5134(4) 1.33166(29)
F1A F 1.3131(20) -0.6094(14) 1.8066(6)
F2A F 1.4073(16) -0.2259(9) 1.7732(7)
F3A F 1.2233(17) -0.7466(9) 1.5632(7)
O1A O 1.2984(25) -0.3682(13) 1.5262(6)
O2A O 0.9978(9) -0.5122(14) 1.3375(10)
O2A_2 O 0.9978(9) 0.4878(14) 0.3375(10)
O2_2 O 1.0022(9) -0.4878(14) 1.6625(10)
O3A O 1.3761(11) -0.5045(15) 1.3231(10)
O3A_2 O 0.3761(11) 0.4955(15) 0.3231(10)
O3_2 O 1.6239(11) -0.4955(15) 1.6769(10)
P1A P 1.2333(10) -0.3943(8) 1.3875(5)
C1A C 1.2649(25) -0.1538(12) 1.3549(8)
N1A N 1.1393(19) -0.1635(14) 1.2390(7)
C2A C 1.2598(19) -0.1960(22) 1.1511(9)
C3A C 1.0894(25) 0.0200(20) 1.2501(7)
C4A C 0.9505(19) 0.0227(23) 1.1455(7)
C5A C 1.1323(26) -0.1929(17) 1.0386(9)
C6A C 1.0749(15) -0.0014(16) 1.0550(5)
loop_
_geom_bond_atom_site_label_1
_geom_bond_atom_site_label_2
_geom_bond_site_symmetry_1
_geom_bond_site_symmetry_2
Zr1 F1 1_555 1_555
F2 Zr1 1_555 1_555
F3 Zr1 1_555 1_555
O1 Zr1 1_555 1_555
O2 P1 1_555 1_555
O3 P1 1_555 1_555
P1 O1 1_555 1_555
C1 P1 1_555 1_555
N1 C1 1_555 1_555
C2 N1 1_555 1_555
C3 N1 1_555 1_555
C4 C3 1_555 1_555
C5 C2 1_555 1_555
C6 C4 1_555 1_555
Zr1A F1A 1_555 1_555
Zr1A_2 O2 1_555 1_555
Zr1A_3 O3 1_555 1_555
Zr1_2 O2A 1_555 1_555
Zr1_3 O3A 1_555 1_555
F2A Zr1A 1_555 1_555
F3A Zr1A 1_555 1_555
O1A Zr1A 1_555 1_555
O2A P1A 1_555 1_555
O2A_2 Zr1 1_555 1_555
O2_2 Zr1A 1_555 1_555
O3A P1A 1_555 1_555
O3A_2 Zr1 1_555 1_555
O3_2 Zr1A 1_555 1_555
P1A O1A 1_555 1_555
C1A P1A 1_555 1_555
N1A C1A 1_555 1_555
C2A N1A 1_555 1_555
C3A N1A 1_555 1_555
C4A C3A 1_555 1_555
C5A C2A 1_555 1_555
C6A C6 1_555 1_555
C5 C6 1_555 1_555
C4A C6A 1_555 1_555
C5A C6A 1_555 1_555

#END
