
#######################################################################
#
#                 Cambridge Crystallographic Data Centre
#                                CCDC 
#
#######################################################################
#
# If this CIF has been generated from an entry in the Cambridge 
# Structural Database, then it will include bibliographic, chemical, 
# crystal, experimental, refinement or atomic coordinate data resulting 
# from the CCDC's data processing and validation procedures.
#
#######################################################################

data_MAWWAK05
_symmetry_cell_setting           monoclinic
_symmetry_space_group_name_H-M   'C 2/c'
_symmetry_Int_Tables_number      15
_space_group_name_Hall           '-C 2yn'
loop_
_symmetry_equiv_pos_site_id
_symmetry_equiv_pos_as_xyz
1 x,y,z
2 1/2+x,1/2+y,z
3 -x,y,1/2-z
4 1/2-x,1/2+y,1/2-z
5 -x,-y,-z
6 1/2-x,1/2-y,-z
7 x,-y,1/2+z
8 1/2+x,1/2-y,1/2+z
_cell_length_a                   8.6860(4)
_cell_length_b                   34.208(2)
_cell_length_c                   11.0156(10)
_cell_angle_alpha                90
_cell_angle_beta                 110.632(5)
_cell_angle_gamma                90
_cell_volume                     3063.15
loop_
_atom_site_label
_atom_site_type_symbol
_atom_site_fract_x
_atom_site_fract_y
_atom_site_fract_z
Sc1 Sc 0.5000 0.61286(7) 0.2500
Sc2 Sc 0.0000 0.63394(7) 0.2500
C1 C 0.2252(12) 0.6798(3) 0.1341(15)
C2 C 0.2352(16) 0.7157(3) 0.0630(19)
C3 C 0.359(2) 0.7205(4) 0.019(3)
C4 C 0.1243(19) 0.7452(4) 0.044(2)
C5 C 0.3424(10) 0.6239(4) 0.4703(8)
C6 C 0.4240(9) 0.6246(5) 0.6161(7)
C7 C 0.5944(11) 0.6241(5) 0.6709(9)
C8 C 0.3316(9) 0.6244(6) 0.6958(9)
C9 C 0.1829(9) 0.5665(3) 0.1394(14)
C10 C 0.0901(9) 0.5316(3) 0.0692(17)
C11 C -0.0753(11) 0.5292(4) 0.040(2)
C12 C 0.1669(11) 0.5028(4) 0.026(2)
N1 N -0.033(3) 0.7406(8) 0.065(4)
N2 N 0.1478(14) 0.6303(8) 0.652(2)
N3 N 0.333(2) 0.5040(7) 0.031(4)
O1 O 0.1075(11) 0.6769(2) 0.1753(11)
O2 O 0.3381(11) 0.6558(3) 0.1574(15)
O3 O 0.1951(10) 0.6338(3) 0.4243(10)
O4 O 0.4278(12) 0.6136(4) 0.4060(10)
O5 O 0.1068(10) 0.5908(2) 0.1816(12)
O6 O 0.3316(9) 0.5690(2) 0.1575(11)
O7 O -0.057(7) 0.761(2) 0.149(7)
O8 O -0.134(6) 0.717(2) -0.003(9)
O9 O 0.098(4) 0.6637(10) 0.662(6)
O10 O 0.062(3) 0.6010(11) 0.633(6)
O11 O 0.427(4) 0.480(2) 0.100(7)
O12 O 0.375(6) 0.5309(17) -0.024(8)
H1 H 0.4367 0.7001 0.0312
H2 H 0.6593 0.6236 0.6172
H3 H -0.1303 0.5500 0.0650
C1E C 0.2748(12) 0.8202(3) -0.1341(15)
C2E C 0.2648(16) 0.7843(3) -0.0630(19)
C3E C 0.141(2) 0.7795(4) -0.019(3)
C4E C 0.3757(19) 0.7548(4) -0.044(2)
N1E N 0.533(3) 0.7594(8) -0.065(4)
O1E O 0.3925(11) 0.8231(2) -0.1753(11)
O2E O 0.1619(11) 0.8442(3) -0.1574(15)
O7E O 0.557(7) 0.739(2) -0.149(7)
O8E O 0.634(6) 0.783(2) 0.003(9)
H1E H 0.0633 0.7999 -0.0312
C5B C 0.6576(10) 0.6239(4) 1.0297(8)
C6B C 0.5760(9) 0.6246(5) 0.8839(7)
C7B C 0.4056(11) 0.6241(5) 0.8291(9)
C8B C 0.6684(9) 0.6244(6) 0.8042(9)
N2B N 0.8522(14) 0.6303(8) 0.848(2)
O3B O 0.8049(10) 0.6338(3) 1.0757(10)
O4B O 0.5722(12) 0.6136(4) 1.0940(10)
O9B O 0.902(4) 0.6637(10) 0.838(6)
O10B O 0.938(3) 0.6010(11) 0.867(6)
H2B H 0.3407 0.6236 0.8828
C9D C -0.1829(9) 0.4335(3) -0.1394(14)
C10D C -0.0901(9) 0.4684(3) -0.0692(17)
C11D C 0.0753(11) 0.4708(4) -0.040(2)
C12D C -0.1669(11) 0.4972(4) -0.026(2)
N3D N -0.333(2) 0.4960(7) -0.031(4)
O5D O -0.1068(10) 0.4092(2) -0.1816(12)
O6D O -0.3316(9) 0.4310(2) -0.1575(11)
O11D O -0.427(4) 0.520(2) -0.100(7)
O12D O -0.375(6) 0.4691(17) 0.024(8)
H3D H 0.1303 0.4500 -0.0650
Sc1_2 Sc 0.5000 0.61286(7) 1.2500
Sc1D Sc -0.5000 0.38714(7) -0.2500
Sc1E Sc 0.0000 0.88714(7) -0.2500
Sc2_2 Sc 1.0000 0.63394(7) 1.2500
Sc2D Sc 0.0000 0.36606(7) -0.2500
Sc2E Sc 0.5000 0.86606(7) -0.2500
O1B O -0.1075(11) 0.6769(2) 0.3247(11)
O2B O 0.6619(11) 0.6558(3) 0.3426(15)
O3B_2 O -0.1951(10) 0.6338(3) 0.0757(10)
O4B_2 O 0.5722(12) 0.6136(4) 0.0940(10)
O5B O -0.1068(10) 0.5908(2) 0.3184(12)
O6B O 0.6684(9) 0.5690(2) 0.3425(11)
loop_
_geom_bond_atom_site_label_1
_geom_bond_atom_site_label_2
_geom_bond_site_symmetry_1
_geom_bond_site_symmetry_2
Sc1 O2 1_555 1_555
Sc2 O1 1_555 1_555
C1 C2 1_555 1_555
C2 C3 1_555 1_555
C3 H1 1_555 1_555
C4 C2 1_555 1_555
C5 C6 1_555 1_555
C6 C7 1_555 1_555
C7 H2 1_555 1_555
C8 C6 1_555 1_555
C9 C10 1_555 1_555
C10 C11 1_555 1_555
C11 H3 1_555 1_555
C12 C10 1_555 1_555
N1 C4 1_555 1_555
N2 C8 1_555 1_555
N3 C12 1_555 1_555
O1 C1 1_555 1_555
O2 C1 1_555 1_555
O3 Sc2 1_555 1_555
O4 Sc1 1_555 1_555
O5 Sc2 1_555 1_555
O6 Sc1 1_555 1_555
O7 N1 1_555 1_555
O8 N1 1_555 1_555
O9 N2 1_555 1_555
O10 N2 1_555 1_555
O11 N3 1_555 1_555
O12 N3 1_555 1_555
C1E C2E 1_555 1_555
C2E C3E 1_555 1_555
C3E C4 1_555 1_555
C4E C3 1_555 1_555
N1E C4E 1_555 1_555
O1E C1E 1_555 1_555
O2E C1E 1_555 1_555
O7E N1E 1_555 1_555
O8E N1E 1_555 1_555
H1E C3E 1_555 1_555
C5B C6B 1_555 1_555
C6B C7B 1_555 1_555
C7B C8 1_555 1_555
C8B C7 1_555 1_555
N2B C8B 1_555 1_555
O3B C5B 1_555 1_555
O4B C5B 1_555 1_555
O9B N2B 1_555 1_555
O10B N2B 1_555 1_555
H2B C7B 1_555 1_555
C9D C10D 1_555 1_555
C10D C11D 1_555 1_555
C11D C12 1_555 1_555
C12D C11 1_555 1_555
N3D C12D 1_555 1_555
O5D C9D 1_555 1_555
O6D C9D 1_555 1_555
O11D N3D 1_555 1_555
O12D N3D 1_555 1_555
H3D C11D 1_555 1_555
Sc1_2 O4B 1_555 1_555
Sc1D O6D 1_555 1_555
Sc1E O2E 1_555 1_555
Sc2_2 O3B 1_555 1_555
Sc2D O5D 1_555 1_555
Sc2E O1E 1_555 1_555
O1B Sc2 1_555 1_555
O2B Sc1 1_555 1_555
O3B_2 Sc2 1_555 1_555
O4B_2 Sc1 1_555 1_555
O5B Sc2 1_555 1_555
O6B Sc1 1_555 1_555
C5 O3 1_555 1_555
C5 O4 1_555 1_555
C9 O5 1_555 1_555
C9 O6 1_555 1_555
C2E C4E 1_555 1_555
C6B C8B 1_555 1_555
C10D C12D 1_555 1_555

#END
