
#######################################################################
#
#                 Cambridge Crystallographic Data Centre
#                                CCDC 
#
#######################################################################
#
# If this CIF has been generated from an entry in the Cambridge 
# Structural Database, then it will include bibliographic, chemical, 
# crystal, experimental, refinement or atomic coordinate data resulting 
# from the CCDC's data processing and validation procedures.
#
#######################################################################

data_MAWWAK12
_symmetry_cell_setting           monoclinic
_symmetry_space_group_name_H-M   'C 2/c'
_symmetry_Int_Tables_number      15
_space_group_name_Hall           '-C 2yn'
loop_
_symmetry_equiv_pos_site_id
_symmetry_equiv_pos_as_xyz
1 x,y,z
2 1/2+x,1/2+y,z
3 -x,y,1/2-z
4 1/2-x,1/2+y,1/2-z
5 -x,-y,-z
6 1/2-x,1/2-y,-z
7 x,-y,1/2+z
8 1/2+x,1/2-y,1/2+z
_cell_length_a                   8.6786(3)
_cell_length_b                   34.4286(13)
_cell_length_c                   11.0628(4)
_cell_angle_alpha                90
_cell_angle_beta                 110.482(2)
_cell_angle_gamma                90
_cell_volume                     3096.51
loop_
_atom_site_label
_atom_site_type_symbol
_atom_site_fract_x
_atom_site_fract_y
_atom_site_fract_z
Sc1 Sc 0.0000 0.63353(3) 0.2500
Sc2 Sc 0.5000 0.61288(3) 0.2500
O1 O 0.3386(5) 0.65594(13) 0.1568(6)
O2 O 0.1067(4) 0.67688(10) 0.1747(4)
O3 O 0.4272(4) 0.61364(14) 0.4080(3)
O4 O 0.1944(4) 0.63286(12) 0.4264(3)
O5 O 0.3325(4) 0.56879(10) 0.1576(4)
O6 O 0.1055(4) 0.59051(11) 0.1788(4)
O7 O -0.139(3) 0.7220(12) -0.004(3)
O8 O -0.040(4) 0.7621(8) 0.153(4)
O9 O 0.0894(19) 0.6641(7) 0.6488(17)
O10 O 0.0662(15) 0.5997(7) 0.6189(13)
O11 O 0.346(2) 0.5340(8) -0.071(2)
O12 O 0.4240(17) 0.4876(8) 0.059(3)
N1 N -0.019(3) 0.7413(7) 0.075(3)
N2 N 0.1474(13) 0.6277(6) 0.6532(9)
N3 N 0.3204(18) 0.5093(5) 0.000(2)
C1 C 0.2291(5) 0.68100(15) 0.1384(5)
C2 C 0.2378(7) 0.71642(16) 0.0680(6)
C3 C 0.3654(11) 0.7212(2) 0.0245(12)
C4 C 0.1258(13) 0.7455(2) 0.0424(13)
C5 C 0.3412(5) 0.62364(16) 0.4718(4)
C6 C 0.4230(5) 0.62339(17) 0.6166(4)
C7 C 0.5916(6) 0.6236(2) 0.6704(5)
C8 C 0.3309(6) 0.6242(2) 0.6968(5)
C9 C 0.1839(5) 0.56642(13) 0.1386(5)
C10 C 0.0913(5) 0.53150(14) 0.0680(5)
C11 C 0.1626(7) 0.50443(19) 0.0123(8)
C12 C -0.0725(6) 0.52708(18) 0.0518(8)
H1 H 0.4448 0.7019 0.0411
H2 H 0.6546 0.6228 0.6173
H3 H -0.1239 0.5470 0.0795
O1E O 0.1614(5) 0.84406(13) -0.1568(6)
O2E O 0.3933(4) 0.82312(10) -0.1747(4)
O7E O 0.639(3) 0.7780(12) 0.004(3)
O8E O 0.540(4) 0.7379(8) -0.153(4)
N1E N 0.519(3) 0.7587(7) -0.075(3)
C1E C 0.2709(5) 0.81900(15) -0.1384(5)
C2E C 0.2622(7) 0.78358(16) -0.0680(6)
C3E C 0.1346(11) 0.7788(2) -0.0245(12)
C4E C 0.3742(13) 0.7545(2) -0.0424(13)
H1E H 0.0552 0.7981 -0.0411
O3B O 0.5728(4) 0.61364(14) 1.0920(3)
O4B O 0.8056(4) 0.63286(12) 1.0736(3)
O9B O 0.9106(19) 0.6641(7) 0.8512(17)
O10B O 0.9338(15) 0.5997(7) 0.8811(13)
N2B N 0.8526(13) 0.6277(6) 0.8468(9)
C5B C 0.6588(5) 0.62364(16) 1.0282(4)
C6B C 0.5770(5) 0.62339(17) 0.8834(4)
C7B C 0.4084(6) 0.6236(2) 0.8296(5)
C8B C 0.6691(6) 0.6242(2) 0.8032(5)
H2B H 0.3454 0.6228 0.8827
O5D O -0.3325(4) 0.43121(10) -0.1576(4)
O6D O -0.1055(4) 0.40949(11) -0.1788(4)
O11D O -0.346(2) 0.4660(8) 0.071(2)
O12D O -0.4240(17) 0.5124(8) -0.059(3)
N3D N -0.3204(18) 0.4907(5) 0.000(2)
C9D C -0.1839(5) 0.43358(13) -0.1386(5)
C10D C -0.0913(5) 0.46850(14) -0.0680(5)
C11D C -0.1626(7) 0.49557(19) -0.0123(8)
C12D C 0.0725(6) 0.47292(18) -0.0518(8)
H3D H 0.1239 0.4530 -0.0795
Sc1_2 Sc 1.0000 0.63353(3) 1.2500
Sc1D Sc 0.0000 0.36647(3) -0.2500
Sc1E Sc 0.5000 0.86647(3) -0.2500
Sc2_2 Sc 0.5000 0.61288(3) 1.2500
Sc2D Sc -0.5000 0.38712(3) -0.2500
Sc2E Sc 0.0000 0.88712(3) -0.2500
O1B O 0.6614(5) 0.65594(13) 0.3432(6)
O2B O -0.1067(4) 0.67688(10) 0.3253(4)
O3B_2 O 0.5728(4) 0.61364(14) 0.0920(3)
O4B_2 O -0.1944(4) 0.63286(12) 0.0736(3)
O5B O 0.6675(4) 0.56879(10) 0.3424(4)
O6B O -0.1055(4) 0.59051(11) 0.3212(4)
loop_
_geom_bond_atom_site_label_1
_geom_bond_atom_site_label_2
_geom_bond_site_symmetry_1
_geom_bond_site_symmetry_2
Sc1 O2 1_555 1_555
Sc2 O1 1_555 1_555
O1 C1 1_555 1_555
O2 C1 1_555 1_555
O3 Sc2 1_555 1_555
O4 Sc1 1_555 1_555
O5 Sc2 1_555 1_555
O6 Sc1 1_555 1_555
O7 N1 1_555 1_555
O8 N1 1_555 1_555
O9 N2 1_555 1_555
O10 N2 1_555 1_555
O11 N3 1_555 1_555
O12 N3 1_555 1_555
N1 C4 1_555 1_555
N2 C8 1_555 1_555
N3 C11 1_555 1_555
C1 C2 1_555 1_555
C2 C3 1_555 1_555
C3 H1 1_555 1_555
C4 C2 1_555 1_555
C5 O3 1_555 1_555
C6 C5 1_555 1_555
C7 C6 1_555 1_555
C8 C6 1_555 1_555
C9 O5 1_555 1_555
C10 C9 1_555 1_555
C11 C10 1_555 1_555
C12 C10 1_555 1_555
H2 C7 1_555 1_555
H3 C12 1_555 1_555
O1E C1E 1_555 1_555
O2E C1E 1_555 1_555
O7E N1E 1_555 1_555
O8E N1E 1_555 1_555
N1E C4E 1_555 1_555
C1E C2E 1_555 1_555
C2E C3E 1_555 1_555
C3E C4 1_555 1_555
C4E C3 1_555 1_555
H1E C3E 1_555 1_555
O3B C5B 1_555 1_555
O4B C5B 1_555 1_555
O9B N2B 1_555 1_555
O10B N2B 1_555 1_555
N2B C8B 1_555 1_555
C5B C6B 1_555 1_555
C6B C7B 1_555 1_555
C7B C8 1_555 1_555
C8B C7 1_555 1_555
H2B C7B 1_555 1_555
O5D C9D 1_555 1_555
O6D C9D 1_555 1_555
O11D N3D 1_555 1_555
O12D N3D 1_555 1_555
N3D C11D 1_555 1_555
C9D C10D 1_555 1_555
C10D C11D 1_555 1_555
C11D C12 1_555 1_555
C12D C11 1_555 1_555
H3D C12D 1_555 1_555
Sc1_2 O4B 1_555 1_555
Sc1D O6D 1_555 1_555
Sc1E O2E 1_555 1_555
Sc2_2 O3B 1_555 1_555
Sc2D O5D 1_555 1_555
Sc2E O1E 1_555 1_555
O1B Sc2 1_555 1_555
O2B Sc1 1_555 1_555
O3B_2 Sc2 1_555 1_555
O4B_2 Sc1 1_555 1_555
O5B Sc2 1_555 1_555
O6B Sc1 1_555 1_555
O4 C5 1_555 1_555
O6 C9 1_555 1_555
C2E C4E 1_555 1_555
C6B C8B 1_555 1_555
C10D C12D 1_555 1_555

#END
