
#######################################################################
#
#                 Cambridge Crystallographic Data Centre
#                                CCDC 
#
#######################################################################
#
# If this CIF has been generated from an entry in the Cambridge 
# Structural Database, then it will include bibliographic, chemical, 
# crystal, experimental, refinement or atomic coordinate data resulting 
# from the CCDC's data processing and validation procedures.
#
#######################################################################

data_MAWWAK10
_symmetry_cell_setting           orthorhombic
_symmetry_space_group_name_H-M   'F d d 2'
_symmetry_Int_Tables_number      43
_space_group_name_Hall           'F 2 -2d'
loop_
_symmetry_equiv_pos_site_id
_symmetry_equiv_pos_as_xyz
1 x,y,z
2 x,1/2+y,1/2+z
3 1/2+x,y,1/2+z
4 1/2+x,1/2+y,z
5 1/4-x,1/4+y,1/4+z
6 1/4-x,3/4+y,3/4+z
7 3/4-x,1/4+y,3/4+z
8 3/4-x,3/4+y,1/4+z
9 1/4+x,1/4-y,1/4+z
10 1/4+x,3/4-y,3/4+z
11 3/4+x,1/4-y,3/4+z
12 3/4+x,3/4-y,1/4+z
13 1/2-x,-y,1/2+z
14 1/2-x,1/2-y,z
15 -x,-y,z
16 -x,1/2-y,1/2+z
_cell_length_a                   18.621(2)
_cell_length_b                   32.033(3)
_cell_length_c                   8.6911(5)
_cell_angle_alpha                90
_cell_angle_beta                 90
_cell_angle_gamma                90
_cell_volume                     5184.12
loop_
_atom_site_label
_atom_site_type_symbol
_atom_site_fract_x
_atom_site_fract_y
_atom_site_fract_z
Sc1 Sc 0.2548(2) 0.48834(9) 0.3164(5)
C1 C 0.2479(9) 0.4315(3) 0.5927(8)
C2 C 0.2783(10) 0.3904(3) 0.6466(9)
C3 C 0.2887(9) 0.3848(4) 0.8016(9)
C4 C 0.3252(8) 0.3498(4) 0.8600(9)
C5 C 0.3489(9) 0.3209(4) 0.7499(9)
C6 C 0.3384(9) 0.3268(4) 0.5972(10)
C7 C 0.3001(9) 0.3609(3) 0.5416(9)
C8 C 0.1485(5) 0.5297(5) 0.5540(11)
C9 C 0.0708(5) 0.5170(5) 0.5503(10)
C10 C 0.0349(3) 0.5082(3) 0.4134(11)
C11 C 0.0338(5) 0.5091(6) 0.6807(12)
C12 C 0.3945(8) 0.2852(4) 0.8099(10)
O1 O 0.2410(7) 0.4366(3) 0.4499(9)
O2 O 0.2285(7) 0.4586(3) 0.6864(9)
O3 O 0.1795(6) 0.5242(4) 0.4309(10)
O4 O 0.4100(7) 0.2596(3) 0.7071(10)
O5 O 0.4183(7) 0.2847(3) 0.9405(10)
O6 O 0.1703(6) 0.5421(3) 0.6805(10)
O7 O 0.3977(10) 0.3771(6) 1.047(2)
O8 O 0.3162(12) 0.3297(6) 1.1026(19)
O9 O 0.2205(17) 0.3558(3) 0.362(3)
O10 O 0.344(2) 0.3635(3) 0.319(3)
O11 O 0.0725(6) 0.5637(5) 0.254(2)
O12 O 0.0363(6) 0.5106(6) 0.1469(15)
N1 N 0.3493(9) 0.3527(5) 1.0171(12)
N2 N 0.2855(16) 0.3597(3) 0.3781(13)
N3 N 0.0463(5) 0.5289(4) 0.2682(12)
H1 H 0.2710 0.4043 0.8719
H2 H 0.3505 0.3056 0.5280
H3 H 0.0562 0.5124 0.7769
C8N C -0.1485(5) 0.4703(5) 0.5540(11)
C9N C -0.0708(5) 0.4830(5) 0.5503(10)
C10N C -0.0349(3) 0.4918(3) 0.4134(11)
C11N C -0.0338(5) 0.4909(6) 0.6807(12)
O3N O -0.1795(6) 0.4758(4) 0.4309(10)
O6N O -0.1703(6) 0.4579(3) 0.6805(10)
O11N O -0.0725(6) 0.4363(5) 0.254(2)
O12N O -0.0363(6) 0.4894(6) 0.1469(15)
N3N N -0.0463(5) 0.4711(4) 0.2682(12)
H3N H -0.0562 0.4876 0.7769
Sc1N Sc -0.2548(2) 0.51166(9) 0.3164(5)
C1N C -0.2479(9) 0.5685(3) 0.5927(8)
C2N C -0.2783(10) 0.6096(3) 0.6466(9)
C3N C -0.2887(9) 0.6152(4) 0.8016(9)
C4N C -0.3252(8) 0.6502(4) 0.8600(9)
C5N C -0.3489(9) 0.6791(4) 0.7499(9)
C6N C -0.3384(9) 0.6732(4) 0.5972(10)
C7N C -0.3001(9) 0.6391(3) 0.5416(9)
C12N C -0.3945(8) 0.7148(4) 0.8099(10)
O1N O -0.2410(7) 0.5634(3) 0.4499(9)
O2N O -0.2285(7) 0.5414(3) 0.6864(9)
O4N O -0.4100(7) 0.7404(3) 0.7071(10)
O5N O -0.4183(7) 0.7153(3) 0.9405(10)
O7N O -0.3977(10) 0.6229(6) 1.047(2)
O8N O -0.3162(12) 0.6703(6) 1.1026(19)
O9N O -0.2205(17) 0.6442(3) 0.362(3)
O10N O -0.344(2) 0.6365(3) 0.319(3)
N1N N -0.3493(9) 0.6473(5) 1.0171(12)
N2N N -0.2855(16) 0.6403(3) 0.3781(13)
H1N H -0.2710 0.5957 0.8719
H2N H -0.3505 0.6944 0.5280
Sc1B Sc -0.2452(2) 0.48834(9) 0.8164(5)
Sc1F Sc -0.5048(2) 0.73834(9) 1.0664(5)
Sc1G Sc 0.4952(2) 0.23834(9) 0.5664(5)
Sc1H Sc -0.4952(2) 0.76166(9) 0.5664(5)
Sc1I Sc 0.5048(2) 0.26166(9) 1.0664(5)
Sc1L Sc 0.2452(2) 0.51166(9) 0.8164(5)
O2B O -0.2715(7) 0.4586(3) 0.1864(9)
O2L O 0.2715(7) 0.5414(3) 0.1864(9)
O4F O 0.3400(7) 0.5096(3) 0.4571(10)
O4I O -0.3400(7) 0.4904(3) 0.4571(10)
O5D O -0.1683(7) 0.5347(3) 0.1905(10)
O5K O 0.1683(7) 0.4653(3) 0.1905(10)
O6B O -0.3297(6) 0.5421(3) 0.1805(10)
O6L O 0.3297(6) 0.4579(3) 0.1805(10)
O7D O -0.1477(10) 0.6271(6) 0.297(2)
O7K O 0.1477(10) 0.3729(6) 0.297(2)
O9F O -0.4705(17) 0.6058(3) 1.112(3)
O9I O 0.4705(17) 0.3942(3) 1.112(3)
loop_
_geom_bond_atom_site_label_1
_geom_bond_atom_site_label_2
_geom_bond_site_symmetry_1
_geom_bond_site_symmetry_2
Sc1 O1 1_555 1_555
C1 C2 1_555 1_555
C2 C3 1_555 1_555
C3 C4 1_555 1_555
C4 C5 1_555 1_555
C5 C6 1_555 1_555
C6 C7 1_555 1_555
C7 C2 1_555 1_555
C8 C9 1_555 1_555
C9 C10 1_555 1_555
C10 N3 1_555 1_555
C11 C9 1_555 1_555
C12 C5 1_555 1_555
O1 C1 1_555 1_555
O2 C1 1_555 1_555
O3 Sc1 1_555 1_555
O4 C12 1_555 1_555
O5 C12 1_555 1_555
O6 C8 1_555 1_555
O7 N1 1_555 1_555
O8 N1 1_555 1_555
O9 N2 1_555 1_555
O10 N2 1_555 1_555
O11 N3 1_555 1_555
O12 N3 1_555 1_555
N1 C4 1_555 1_555
N2 C7 1_555 1_555
H1 C3 1_555 1_555
H2 C6 1_555 1_555
H3 C11 1_555 1_555
C8N C9N 1_555 1_555
C9N C10N 1_555 1_555
C10N C10 1_555 1_555
C11N C11 1_555 1_555
O3N C8N 1_555 1_555
O6N C8N 1_555 1_555
O11N N3N 1_555 1_555
O12N O12 1_555 1_555
N3N C10N 1_555 1_555
H3N C11N 1_555 1_555
Sc1N O3N 1_555 1_555
C1N C2N 1_555 1_555
C2N C3N 1_555 1_555
C3N C4N 1_555 1_555
C4N C5N 1_555 1_555
C5N C6N 1_555 1_555
C6N C7N 1_555 1_555
C7N C2N 1_555 1_555
C12N C5N 1_555 1_555
O1N Sc1N 1_555 1_555
O2N C1N 1_555 1_555
O4N C12N 1_555 1_555
O5N C12N 1_555 1_555
O7N N1N 1_555 1_555
O8N N1N 1_555 1_555
O9N N2N 1_555 1_555
O10N N2N 1_555 1_555
N1N C4N 1_555 1_555
N2N C7N 1_555 1_555
H1N C3N 1_555 1_555
H2N C6N 1_555 1_555
Sc1B O6N 1_555 1_555
Sc1F O5N 1_555 1_555
Sc1G O4 1_555 1_555
Sc1H O4N 1_555 1_555
Sc1I O5 1_555 1_555
Sc1L O2 1_555 1_555
O2B Sc1N 1_555 1_555
O2L Sc1 1_555 1_555
O4F Sc1 1_555 1_555
O4I Sc1N 1_555 1_555
O5D Sc1N 1_555 1_555
O5K Sc1 1_555 1_555
O6B Sc1N 1_555 1_555
O6L Sc1 1_555 1_555
O7D O9N 1_555 1_555
O7K O9 1_555 1_555
O9F O7N 1_555 1_555
O9I O7 1_555 1_555
C8 O3 1_555 1_555
O6 Sc1L 1_555 1_555
C9N C11N 1_555 1_555
O12N N3N 1_555 1_555
C1N O1N 1_555 1_555
O2N Sc1B 1_555 1_555

#END
