
#######################################################################
#
#                 Cambridge Crystallographic Data Centre
#                                CCDC 
#
#######################################################################
#
# If this CIF has been generated from an entry in the Cambridge 
# Structural Database, then it will include bibliographic, chemical, 
# crystal, experimental, refinement or atomic coordinate data resulting 
# from the CCDC's data processing and validation procedures.
#
#######################################################################

data_MAWWAK11
_symmetry_cell_setting           orthorhombic
_symmetry_space_group_name_H-M   'F d d 2'
_symmetry_Int_Tables_number      43
_space_group_name_Hall           'F 2 -2d'
loop_
_symmetry_equiv_pos_site_id
_symmetry_equiv_pos_as_xyz
1 x,y,z
2 x,1/2+y,1/2+z
3 1/2+x,y,1/2+z
4 1/2+x,1/2+y,z
5 1/4-x,1/4+y,1/4+z
6 1/4-x,3/4+y,3/4+z
7 3/4-x,1/4+y,3/4+z
8 3/4-x,3/4+y,1/4+z
9 1/4+x,1/4-y,1/4+z
10 1/4+x,3/4-y,3/4+z
11 3/4+x,1/4-y,3/4+z
12 3/4+x,3/4-y,1/4+z
13 1/2-x,-y,1/2+z
14 1/2-x,1/2-y,z
15 -x,-y,z
16 -x,1/2-y,1/2+z
_cell_length_a                   18.365(4)
_cell_length_b                   31.823(5)
_cell_length_c                   8.7225(11)
_cell_angle_alpha                90
_cell_angle_beta                 90
_cell_angle_gamma                90
_cell_volume                     5097.69
loop_
_atom_site_label
_atom_site_type_symbol
_atom_site_fract_x
_atom_site_fract_y
_atom_site_fract_z
Sc1 Sc 0.2556(4) 0.48846(18) 0.3168(10)
C1 C 0.2417(18) 0.4309(5) 0.5932(12)
C2 C 0.2718(16) 0.3891(5) 0.6471(12)
C3 C 0.2817(15) 0.3831(6) 0.8023(13)
C4 C 0.3203(13) 0.3483(6) 0.8602(13)
C5 C 0.3420(14) 0.3187(5) 0.7515(12)
C6 C 0.3360(15) 0.3260(6) 0.5979(13)
C7 C 0.2993(17) 0.3610(5) 0.5426(12)
C8 C 0.1492(8) 0.5323(10) 0.5504(17)
C9 C 0.0713(8) 0.5181(9) 0.5492(16)
C10 C 0.0358(3) 0.5075(4) 0.4145(17)
C11 C 0.0341(9) 0.5094(10) 0.6795(18)
C12 C 0.3889(15) 0.2834(6) 0.8132(15)
O1 O 0.2374(13) 0.4364(5) 0.4515(13)
O2 O 0.2253(13) 0.4592(5) 0.6857(15)
O3 O 0.1802(10) 0.5266(7) 0.4266(16)
O4 O 0.4061(13) 0.2589(5) 0.7079(16)
O5 O 0.4102(11) 0.2819(5) 0.9465(15)
O6 O 0.1719(10) 0.5445(6) 0.6766(16)
O7 O 0.4004(15) 0.3739(8) 1.036(3)
O8 O 0.3122(19) 0.3300(8) 1.101(2)
O9 O 0.249(4) 0.3563(9) 0.323(4)
O10 O 0.368(3) 0.3810(6) 0.368(5)
O11 O 0.0675(6) 0.5623(6) 0.248(3)
O12 O 0.0356(8) 0.5061(9) 0.151(2)
N1 N 0.3476(14) 0.3513(7) 1.0128(15)
N2 N 0.307(3) 0.3670(7) 0.3816(15)
N3 N 0.0460(5) 0.5265(6) 0.2678(19)
H1 H 0.2606 0.4025 0.8721
H2 H 0.3582 0.3070 0.5278
H3 H 0.0549 0.5174 0.7749
C8N C -0.1492(8) 0.4677(10) 0.5504(17)
C9N C -0.0713(8) 0.4819(9) 0.5492(16)
C10N C -0.0358(3) 0.4925(4) 0.4145(17)
C11N C -0.0341(9) 0.4906(10) 0.6795(18)
O3N O -0.1802(10) 0.4734(7) 0.4266(16)
O6N O -0.1719(10) 0.4555(6) 0.6766(16)
O11N O -0.0675(6) 0.4377(6) 0.248(3)
O12N O -0.0356(8) 0.4939(9) 0.151(2)
N3N N -0.0460(5) 0.4735(6) 0.2678(19)
H3N H -0.0549 0.4826 0.7749
Sc1N Sc -0.2556(4) 0.51154(18) 0.3168(10)
C1N C -0.2417(18) 0.5691(5) 0.5932(12)
C2N C -0.2718(16) 0.6109(5) 0.6471(12)
C3N C -0.2817(15) 0.6169(6) 0.8023(13)
C4N C -0.3203(13) 0.6517(6) 0.8602(13)
C5N C -0.3420(14) 0.6813(5) 0.7515(12)
C6N C -0.3360(15) 0.6740(6) 0.5979(13)
C7N C -0.2993(17) 0.6390(5) 0.5426(12)
C12N C -0.3889(15) 0.7166(6) 0.8132(15)
O1N O -0.2374(13) 0.5636(5) 0.4515(13)
O2N O -0.2253(13) 0.5408(5) 0.6857(15)
O4N O -0.4061(13) 0.7411(5) 0.7079(16)
O5N O -0.4102(11) 0.7181(5) 0.9465(15)
O7N O -0.4004(15) 0.6261(8) 1.036(3)
O8N O -0.3122(19) 0.6700(8) 1.101(2)
O9N O -0.249(4) 0.6437(9) 0.323(4)
O10N O -0.368(3) 0.6190(6) 0.368(5)
N1N N -0.3476(14) 0.6487(7) 1.0128(15)
N2N N -0.307(3) 0.6330(7) 0.3816(15)
H1N H -0.2606 0.5975 0.8721
H2N H -0.3582 0.6930 0.5278
Sc1B Sc -0.2444(4) 0.48846(18) 0.8168(10)
Sc1F Sc -0.5056(4) 0.73846(18) 1.0668(10)
Sc1G Sc 0.4944(4) 0.23846(18) 0.5668(10)
Sc1H Sc -0.4944(4) 0.76154(18) 0.5668(10)
Sc1I Sc 0.5056(4) 0.26154(18) 1.0668(10)
Sc1L Sc 0.2444(4) 0.51154(18) 0.8168(10)
O2B O -0.2747(13) 0.4592(5) 0.1857(15)
O2L O 0.2747(13) 0.5408(5) 0.1857(15)
O4F O 0.3439(13) 0.5089(5) 0.4579(16)
O4I O -0.3439(13) 0.4911(5) 0.4579(16)
O5D O -0.1602(11) 0.5319(5) 0.1965(15)
O5K O 0.1602(11) 0.4681(5) 0.1965(15)
O6B O -0.3281(10) 0.5445(6) 0.1766(16)
O6L O 0.3281(10) 0.4555(6) 0.1766(16)
loop_
_geom_bond_atom_site_label_1
_geom_bond_atom_site_label_2
_geom_bond_site_symmetry_1
_geom_bond_site_symmetry_2
Sc1 O1 1_555 1_555
C1 C2 1_555 1_555
C2 C3 1_555 1_555
C3 C4 1_555 1_555
C4 C5 1_555 1_555
C5 C6 1_555 1_555
C6 C7 1_555 1_555
C7 C2 1_555 1_555
C8 C9 1_555 1_555
C9 C10 1_555 1_555
C10 N3 1_555 1_555
C11 C9 1_555 1_555
C12 C5 1_555 1_555
O1 C1 1_555 1_555
O2 C1 1_555 1_555
O3 Sc1 1_555 1_555
O4 C12 1_555 1_555
O5 C12 1_555 1_555
O6 C8 1_555 1_555
O7 N1 1_555 1_555
O8 N1 1_555 1_555
O9 N2 1_555 1_555
O10 N2 1_555 1_555
O11 N3 1_555 1_555
O12 N3 1_555 1_555
N1 C4 1_555 1_555
N2 C7 1_555 1_555
H1 C3 1_555 1_555
H2 C6 1_555 1_555
H3 C11 1_555 1_555
C8N C9N 1_555 1_555
C9N C10N 1_555 1_555
C10N C10 1_555 1_555
C11N C11 1_555 1_555
O3N C8N 1_555 1_555
O6N C8N 1_555 1_555
O11N N3N 1_555 1_555
O12N O12 1_555 1_555
N3N C10N 1_555 1_555
H3N C11N 1_555 1_555
Sc1N O3N 1_555 1_555
C1N C2N 1_555 1_555
C2N C3N 1_555 1_555
C3N C4N 1_555 1_555
C4N C5N 1_555 1_555
C5N C6N 1_555 1_555
C6N C7N 1_555 1_555
C7N C2N 1_555 1_555
C12N C5N 1_555 1_555
O1N Sc1N 1_555 1_555
O2N C1N 1_555 1_555
O4N C12N 1_555 1_555
O5N C12N 1_555 1_555
O7N N1N 1_555 1_555
O8N N1N 1_555 1_555
O9N N2N 1_555 1_555
O10N N2N 1_555 1_555
N1N C4N 1_555 1_555
N2N C7N 1_555 1_555
H1N C3N 1_555 1_555
H2N C6N 1_555 1_555
Sc1B O6N 1_555 1_555
Sc1F O5N 1_555 1_555
Sc1G O4 1_555 1_555
Sc1H O4N 1_555 1_555
Sc1I O5 1_555 1_555
Sc1L O2 1_555 1_555
O2B Sc1N 1_555 1_555
O2L Sc1 1_555 1_555
O4F Sc1 1_555 1_555
O4I Sc1N 1_555 1_555
O5D Sc1N 1_555 1_555
O5K Sc1 1_555 1_555
O6B Sc1N 1_555 1_555
O6L Sc1 1_555 1_555
C8 O3 1_555 1_555
O6 Sc1L 1_555 1_555
C9N C11N 1_555 1_555
O12N N3N 1_555 1_555
C1N O1N 1_555 1_555
O2N Sc1B 1_555 1_555

#END
