
#######################################################################
#
#                 Cambridge Crystallographic Data Centre
#                                CCDC 
#
#######################################################################
#
# If this CIF has been generated from an entry in the Cambridge 
# Structural Database, then it will include bibliographic, chemical, 
# crystal, experimental, refinement or atomic coordinate data resulting 
# from the CCDC's data processing and validation procedures.
#
#######################################################################

data_MAWWAK09
_symmetry_cell_setting           orthorhombic
_symmetry_space_group_name_H-M   'F d d 2'
_symmetry_Int_Tables_number      43
_space_group_name_Hall           'F 2 -2d'
loop_
_symmetry_equiv_pos_site_id
_symmetry_equiv_pos_as_xyz
1 x,y,z
2 x,1/2+y,1/2+z
3 1/2+x,y,1/2+z
4 1/2+x,1/2+y,z
5 1/4-x,1/4+y,1/4+z
6 1/4-x,3/4+y,3/4+z
7 3/4-x,1/4+y,3/4+z
8 3/4-x,3/4+y,1/4+z
9 1/4+x,1/4-y,1/4+z
10 1/4+x,3/4-y,3/4+z
11 3/4+x,1/4-y,3/4+z
12 3/4+x,3/4-y,1/4+z
13 1/2-x,-y,1/2+z
14 1/2-x,1/2-y,z
15 -x,-y,z
16 -x,1/2-y,1/2+z
_cell_length_a                   18.951(2)
_cell_length_b                   32.321(3)
_cell_length_c                   8.6859(5)
_cell_angle_alpha                90
_cell_angle_beta                 90
_cell_angle_gamma                90
_cell_volume                     5320.25
loop_
_atom_site_label
_atom_site_type_symbol
_atom_site_fract_x
_atom_site_fract_y
_atom_site_fract_z
Sc1 Sc 0.25496(16) 0.48866(8) 0.3157(5)
C1 C 0.2522(9) 0.4310(3) 0.5921(8)
C2 C 0.2821(10) 0.3905(3) 0.6466(8)
C3 C 0.2913(8) 0.3845(3) 0.8012(9)
C4 C 0.3301(8) 0.3508(4) 0.8588(9)
C5 C 0.3546(9) 0.3222(4) 0.7488(9)
C6 C 0.3418(9) 0.3273(4) 0.5970(10)
C7 C 0.3047(9) 0.3614(3) 0.5419(9)
C8 C 0.1477(5) 0.5274(5) 0.5539(10)
C9 C 0.0706(5) 0.5160(5) 0.5509(9)
C10 C 0.0346(3) 0.5079(3) 0.4150(10)
C11 C 0.0333(5) 0.5091(5) 0.6824(12)
C12 C 0.4014(8) 0.2876(3) 0.8085(10)
O1 O 0.2477(6) 0.4362(3) 0.4495(9)
O2 O 0.2335(6) 0.4582(3) 0.6866(9)
O3 O 0.1785(6) 0.5217(3) 0.4315(9)
O4 O 0.4154(7) 0.2614(3) 0.7060(10)
O5 O 0.4231(6) 0.2874(3) 0.9409(9)
O6 O 0.1698(6) 0.5391(3) 0.6793(10)
O7 O 0.3955(10) 0.3753(6) 1.059(2)
O8 O 0.3117(12) 0.3290(6) 1.097(2)
O9 O 0.236(2) 0.3533(5) 0.348(4)
O10 O 0.356(2) 0.3731(4) 0.330(3)
O11 O 0.0710(6) 0.5620(5) 0.251(2)
O12 O 0.0359(6) 0.5080(6) 0.1495(15)
N1 N 0.3483(9) 0.3520(5) 1.0191(12)
N2 N 0.2973(17) 0.3626(4) 0.3768(13)
N3 N 0.0459(5) 0.5274(4) 0.2684(12)
H1 H 0.2736 0.4040 0.8715
H2 H 0.3539 0.3060 0.5278
H3 H 0.0558 0.5125 0.7786
C8N C -0.1477(5) 0.4726(5) 0.5539(10)
C9N C -0.0706(5) 0.4840(5) 0.5509(9)
C10N C -0.0346(3) 0.4921(3) 0.4150(10)
C11N C -0.0333(5) 0.4909(5) 0.6824(12)
O3N O -0.1785(6) 0.4783(3) 0.4315(9)
O6N O -0.1698(6) 0.4609(3) 0.6793(10)
O11N O -0.0710(6) 0.4380(5) 0.251(2)
O12N O -0.0359(6) 0.4920(6) 0.1495(15)
N3N N -0.0459(5) 0.4726(4) 0.2684(12)
H3N H -0.0558 0.4875 0.7786
Sc1N Sc -0.25496(16) 0.51134(8) 0.3157(5)
C1N C -0.2522(9) 0.5690(3) 0.5921(8)
C2N C -0.2821(10) 0.6095(3) 0.6466(8)
C3N C -0.2913(8) 0.6155(3) 0.8012(9)
C4N C -0.3301(8) 0.6492(4) 0.8588(9)
C5N C -0.3546(9) 0.6778(4) 0.7488(9)
C6N C -0.3418(9) 0.6727(4) 0.5970(10)
C7N C -0.3047(9) 0.6386(3) 0.5419(9)
C12N C -0.4014(8) 0.7124(3) 0.8085(10)
O1N O -0.2477(6) 0.5638(3) 0.4495(9)
O2N O -0.2335(6) 0.5418(3) 0.6866(9)
O4N O -0.4154(7) 0.7386(3) 0.7060(10)
O5N O -0.4231(6) 0.7126(3) 0.9409(9)
O7N O -0.3955(10) 0.6247(6) 1.059(2)
O8N O -0.3117(12) 0.6710(6) 1.097(2)
O9N O -0.236(2) 0.6467(5) 0.348(4)
O10N O -0.356(2) 0.6269(4) 0.330(3)
N1N N -0.3483(9) 0.6480(5) 1.0191(12)
N2N N -0.2973(17) 0.6374(4) 0.3768(13)
H1N H -0.2736 0.5960 0.8715
H2N H -0.3539 0.6940 0.5278
Sc1B Sc -0.24504(16) 0.48866(8) 0.8157(5)
Sc1F Sc -0.50496(16) 0.73866(8) 1.0657(5)
Sc1G Sc 0.49504(16) 0.23866(8) 0.5657(5)
Sc1H Sc -0.49504(16) 0.76134(8) 0.5657(5)
Sc1I Sc 0.50496(16) 0.26134(8) 1.0657(5)
Sc1L Sc 0.24504(16) 0.51134(8) 0.8157(5)
O2B O -0.2665(6) 0.4582(3) 0.1866(9)
O2L O 0.2665(6) 0.5418(3) 0.1866(9)
O4F O 0.3346(7) 0.5114(3) 0.4560(10)
O4I O -0.3346(7) 0.4886(3) 0.4560(10)
O5D O -0.1731(6) 0.5374(3) 0.1909(9)
O5K O 0.1731(6) 0.4626(3) 0.1909(9)
O6B O -0.3302(6) 0.5391(3) 0.1793(10)
O6L O 0.3302(6) 0.4609(3) 0.1793(10)
loop_
_geom_bond_atom_site_label_1
_geom_bond_atom_site_label_2
_geom_bond_site_symmetry_1
_geom_bond_site_symmetry_2
Sc1 O1 1_555 1_555
C1 C2 1_555 1_555
C2 C3 1_555 1_555
C3 C4 1_555 1_555
C4 C5 1_555 1_555
C5 C6 1_555 1_555
C6 C7 1_555 1_555
C7 C2 1_555 1_555
C8 C9 1_555 1_555
C9 C10 1_555 1_555
C10 N3 1_555 1_555
C11 C9 1_555 1_555
C12 C5 1_555 1_555
O1 C1 1_555 1_555
O2 C1 1_555 1_555
O3 Sc1 1_555 1_555
O4 C12 1_555 1_555
O5 C12 1_555 1_555
O6 C8 1_555 1_555
O7 N1 1_555 1_555
O8 N1 1_555 1_555
O9 N2 1_555 1_555
O10 N2 1_555 1_555
O11 N3 1_555 1_555
O12 N3 1_555 1_555
N1 C4 1_555 1_555
N2 C7 1_555 1_555
H1 C3 1_555 1_555
H2 C6 1_555 1_555
H3 C11 1_555 1_555
C8N C9N 1_555 1_555
C9N C10N 1_555 1_555
C10N C10 1_555 1_555
C11N C11 1_555 1_555
O3N C8N 1_555 1_555
O6N C8N 1_555 1_555
O11N N3N 1_555 1_555
O12N O12 1_555 1_555
N3N C10N 1_555 1_555
H3N C11N 1_555 1_555
Sc1N O3N 1_555 1_555
C1N C2N 1_555 1_555
C2N C3N 1_555 1_555
C3N C4N 1_555 1_555
C4N C5N 1_555 1_555
C5N C6N 1_555 1_555
C6N C7N 1_555 1_555
C7N C2N 1_555 1_555
C12N C5N 1_555 1_555
O1N Sc1N 1_555 1_555
O2N C1N 1_555 1_555
O4N C12N 1_555 1_555
O5N C12N 1_555 1_555
O7N N1N 1_555 1_555
O8N N1N 1_555 1_555
O9N N2N 1_555 1_555
O10N N2N 1_555 1_555
N1N C4N 1_555 1_555
N2N C7N 1_555 1_555
H1N C3N 1_555 1_555
H2N C6N 1_555 1_555
Sc1B O6N 1_555 1_555
Sc1F O5N 1_555 1_555
Sc1G O4 1_555 1_555
Sc1H O4N 1_555 1_555
Sc1I O5 1_555 1_555
Sc1L O2 1_555 1_555
O2B Sc1N 1_555 1_555
O2L Sc1 1_555 1_555
O4F Sc1 1_555 1_555
O4I Sc1N 1_555 1_555
O5D Sc1N 1_555 1_555
O5K Sc1 1_555 1_555
O6B Sc1N 1_555 1_555
O6L Sc1 1_555 1_555
C8 O3 1_555 1_555
O6 Sc1L 1_555 1_555
C9N C11N 1_555 1_555
O12N N3N 1_555 1_555
C1N O1N 1_555 1_555
O2N Sc1B 1_555 1_555

#END
