
#######################################################################
#
#                 Cambridge Crystallographic Data Centre
#                                CCDC 
#
#######################################################################
#
# If this CIF has been generated from an entry in the Cambridge 
# Structural Database, then it will include bibliographic, chemical, 
# crystal, experimental, refinement or atomic coordinate data resulting 
# from the CCDC's data processing and validation procedures.
#
#######################################################################

data_MAWXOZ
_symmetry_cell_setting           orthorhombic
_symmetry_space_group_name_H-M   'P 21 21 21'
_symmetry_Int_Tables_number      19
_space_group_name_Hall           'P 2ac 2ab'
loop_
_symmetry_equiv_pos_site_id
_symmetry_equiv_pos_as_xyz
1 x,y,z
2 1/2+x,1/2-y,-z
3 -x,1/2+y,1/2-z
4 1/2-x,-y,1/2+z
_cell_length_a                   14.498(4)
_cell_length_b                   14.654(4)
_cell_length_c                   17.852(5)
_cell_angle_alpha                90
_cell_angle_beta                 90
_cell_angle_gamma                90
_cell_volume                     3792.72
loop_
_atom_site_label
_atom_site_type_symbol
_atom_site_fract_x
_atom_site_fract_y
_atom_site_fract_z
In1 In 0.47963(8) -0.47689(7) 0.75271(7)
In2 In 0.51161(8) -0.70763(7) 0.73019(6)
Se1 Se 0.45269(14) -0.58419(11) 0.63799(9)
Se2 Se 0.40695(12) -0.84366(12) 0.75853(11)
Se3 Se 0.31578(13) -0.40661(12) 0.76716(11)
Se4 Se 0.34652(13) -0.27626(11) 0.84097(9)
Se5 Se 0.53861(14) -0.60030(11) 0.84367(9)
In1B In 0.52037(8) -0.97689(7) 0.74729(7)
In2B In 0.48839(8) -0.20763(7) 0.76981(6)
Se2B Se 0.59305(12) -0.34366(12) 0.74147(11)
Se4B Se 0.65348(13) -0.77626(11) 0.65903(9)
Fe1 Fe 0.47053(18) -0.15485(16) 0.33406(12)
N1 N 0.4349(9) -0.2197(9) 0.4268(7)
N2 N 0.5651(8) -0.2531(7) 0.3277(6)
N3 N 0.3856(9) -0.2264(8) 0.2701(7)
N4 N 0.5095(9) -0.1032(7) 0.2370(7)
N5 N 0.3818(9) -0.0567(7) 0.3564(7)
N6 N 0.5539(11) -0.0781(9) 0.3974(7)
C1 C 0.3650(12) -0.2092(11) 0.4750(9)
H1 H 0.3206 -0.1654 0.4643
C2 C 0.3550(14) -0.2595(12) 0.5396(9)
H2 H 0.3059 -0.2483 0.5718
C3 C 0.4151(14) -0.3233(13) 0.5556(10)
H3 H 0.4071 -0.3576 0.5990
C4 C 0.4904(13) -0.3416(12) 0.5096(9)
C5 C 0.4954(11) -0.2886(11) 0.4441(8)
C6 C 0.6259(11) -0.2684(10) 0.2767(9)
H4 H 0.6252 -0.2325 0.2337
C7 C 0.6937(11) -0.3375(11) 0.2831(9)
H5 H 0.7370 -0.3459 0.2453
C8 C 0.6947(11) -0.3921(11) 0.3458(9)
H6 H 0.7377 -0.4388 0.3504
C9 C 0.6310(12) -0.3764(10) 0.4019(9)
C10 C 0.5664(12) -0.3082(9) 0.3909(8)
C11 C 0.5593(13) -0.4109(12) 0.5212(9)
H7 H 0.5574 -0.4457 0.5647
C12 C 0.6247(15) -0.4261(13) 0.4720(9)
H8 H 0.6687 -0.4705 0.4825
C13 C 0.3220(12) -0.2872(10) 0.2899(9)
H9 H 0.3113 -0.2975 0.3406
C14 C 0.2700(10) -0.3369(11) 0.2361(9)
H10 H 0.2261 -0.3793 0.2512
C15 C 0.2856(12) -0.3213(10) 0.1617(9)
H11 H 0.2528 -0.3542 0.1261
C16 C 0.3508(11) -0.2557(10) 0.1384(9)
C17 C 0.4014(12) -0.2101(11) 0.1947(8)
C18 C 0.5697(13) -0.0404(11) 0.2225(10)
H12 H 0.5958 -0.0090 0.2625
C19 C 0.5979(13) -0.0170(11) 0.1487(10)
H13 H 0.6435 0.0266 0.1410
C20 C 0.5571(15) -0.0594(13) 0.0897(11)
H14 H 0.5767 -0.0471 0.0411
C21 C 0.4862(13) -0.1209(11) 0.1020(9)
C22 C 0.4669(13) -0.1442(10) 0.1768(8)
C23 C 0.3736(12) -0.2351(10) 0.0624(8)
H15 H 0.3438 -0.2663 0.0240
C24 C 0.4374(14) -0.1714(11) 0.0450(9)
H16 H 0.4502 -0.1598 -0.0052
C25 C 0.2939(13) -0.0451(13) 0.3297(10)
H17 H 0.2729 -0.0818 0.2907
C26 C 0.2357(13) 0.0204(11) 0.3600(11)
H18 H 0.1759 0.0258 0.3418
C27 C 0.2644(13) 0.0764(11) 0.4154(9)
H19 H 0.2252 0.1211 0.4342
C28 C 0.3512(16) 0.0667(11) 0.4436(9)
C29 C 0.4103(13) 0.0030(10) 0.4106(8)
C30 C 0.6396(14) -0.0849(12) 0.4172(10)
H20 H 0.6749 -0.1287 0.3926
C31 C 0.6846(13) -0.0322(13) 0.4724(9)
H21 H 0.7474 -0.0382 0.4816
C32 C 0.6327(13) 0.0266(12) 0.5106(10)
H22 H 0.6588 0.0586 0.5503
C33 C 0.5395(14) 0.0415(12) 0.4925(10)
C34 C 0.5056(14) -0.0132(12) 0.4343(8)
C35 C 0.3900(14) 0.1189(12) 0.5004(11)
H23 H 0.3528 0.1626 0.5232
C36 C 0.4783(14) 0.1109(10) 0.5251(9)
H24 H 0.5000 0.1493 0.5627
O1 O 0.1594(9) -0.2918(9) 0.4152(6)
loop_
_geom_bond_atom_site_label_1
_geom_bond_atom_site_label_2
_geom_bond_site_symmetry_1
_geom_bond_site_symmetry_2
In1 Se1 1_555 1_555
In2 Se1 1_555 1_555
Se2 In2 1_555 1_555
Se3 In1 1_555 1_555
Se4 Se3 1_555 1_555
Se5 In1 1_555 1_555
Fe1 N1 1_555 1_555
N1 C1 1_555 1_555
N2 Fe1 1_555 1_555
N3 Fe1 1_555 1_555
N4 Fe1 1_555 1_555
N5 Fe1 1_555 1_555
N6 Fe1 1_555 1_555
C1 H1 1_555 1_555
C2 C1 1_555 1_555
H2 C2 1_555 1_555
C3 C2 1_555 1_555
H3 C3 1_555 1_555
C4 C3 1_555 1_555
C5 N1 1_555 1_555
C6 N2 1_555 1_555
H4 C6 1_555 1_555
C7 C6 1_555 1_555
H5 C7 1_555 1_555
C8 C7 1_555 1_555
H6 C8 1_555 1_555
C9 C8 1_555 1_555
C10 N2 1_555 1_555
C11 C4 1_555 1_555
H7 C11 1_555 1_555
C12 C9 1_555 1_555
H8 C12 1_555 1_555
C13 N3 1_555 1_555
H9 C13 1_555 1_555
C14 C13 1_555 1_555
H10 C14 1_555 1_555
C15 C14 1_555 1_555
H11 C15 1_555 1_555
C16 C15 1_555 1_555
C17 N3 1_555 1_555
C18 N4 1_555 1_555
H12 C18 1_555 1_555
C19 C18 1_555 1_555
H13 C19 1_555 1_555
C20 C19 1_555 1_555
H14 C20 1_555 1_555
C21 C20 1_555 1_555
C22 N4 1_555 1_555
C23 C16 1_555 1_555
H15 C23 1_555 1_555
C24 C21 1_555 1_555
H16 C24 1_555 1_555
C25 N5 1_555 1_555
H17 C25 1_555 1_555
C26 C25 1_555 1_555
H18 C26 1_555 1_555
C27 C26 1_555 1_555
H19 C27 1_555 1_555
C28 C27 1_555 1_555
C29 N5 1_555 1_555
C30 N6 1_555 1_555
H20 C30 1_555 1_555
C31 C30 1_555 1_555
H21 C31 1_555 1_555
C32 C31 1_555 1_555
H22 C32 1_555 1_555
C33 C32 1_555 1_555
C34 N6 1_555 1_555
C35 C28 1_555 1_555
H23 C35 1_555 1_555
C36 C33 1_555 1_555
H24 C36 1_555 1_555
In1B Se2 1_555 1_555
In2B Se4 1_555 1_555
Se2B In1 1_555 1_555
Se4B In2 1_555 1_555
In2 Se5 1_555 1_555
C4 C5 1_555 1_555
C5 C10 1_555 1_555
C9 C10 1_555 1_555
C11 C12 1_555 1_555
C16 C17 1_555 1_555
C17 C22 1_555 1_555
C21 C22 1_555 1_555
C23 C24 1_555 1_555
C28 C29 1_555 1_555
C29 C34 1_555 1_555
C33 C34 1_555 1_555
C35 C36 1_555 1_555
In2B Se2B 1_555 1_555

#END
