
#######################################################################
#
#                 Cambridge Crystallographic Data Centre
#                                CCDC 
#
#######################################################################
#
# If this CIF has been generated from an entry in the Cambridge 
# Structural Database, then it will include bibliographic, chemical, 
# crystal, experimental, refinement or atomic coordinate data resulting 
# from the CCDC's data processing and validation procedures.
#
#######################################################################

data_MAWXEP
_symmetry_cell_setting           orthorhombic
_symmetry_space_group_name_H-M   'P 21 21 21'
_symmetry_Int_Tables_number      19
_space_group_name_Hall           'P 2ac 2ab'
loop_
_symmetry_equiv_pos_site_id
_symmetry_equiv_pos_as_xyz
1 x,y,z
2 1/2+x,1/2-y,-z
3 -x,1/2+y,1/2-z
4 1/2-x,-y,1/2+z
_cell_length_a                   14.4859(19)
_cell_length_b                   14.583(2)
_cell_length_c                   18.137(3)
_cell_angle_alpha                90
_cell_angle_beta                 90
_cell_angle_gamma                90
_cell_volume                     3831.4
loop_
_atom_site_label
_atom_site_type_symbol
_atom_site_fract_x
_atom_site_fract_y
_atom_site_fract_z
In1 In 0.48056(8) -0.51986(7) 0.24803(7)
In2 In 0.50887(8) -0.28848(7) 0.26947(7)
Se1 Se 0.34678(12) -0.72177(11) 0.16246(10)
Se2 Se 0.31704(11) -0.59192(12) 0.23645(12)
Se3 Se 0.53415(13) -0.39527(12) 0.15701(10)
Se4 Se 0.45401(12) -0.41297(11) 0.36125(10)
Se5 Se 0.40296(11) -0.15188(12) 0.24333(12)
In1B In 0.51944(8) -0.01986(7) 0.25197(7)
In2B In 0.49113(8) -0.78848(7) 0.23053(7)
Se1B Se 0.65322(12) -0.22177(11) 0.33754(10)
Se5B Se 0.59704(11) -0.65188(12) 0.25667(12)
Ni1 Ni 0.02584(14) -0.15443(15) 0.16822(12)
N1 N -0.0132(8) -0.1024(8) 0.2710(7)
N2 N 0.1150(9) -0.2267(9) 0.2365(8)
N3 N -0.0733(9) -0.2581(9) 0.1698(8)
N4 N 0.0634(10) -0.2267(10) 0.0716(8)
N5 N -0.0580(9) -0.0697(10) 0.1017(8)
N6 N 0.1190(10) -0.0465(10) 0.1445(9)
C1 C -0.0771(12) -0.0406(11) 0.2864(11)
H1 H -0.1066 -0.0091 0.2478
C2 C -0.1021(13) -0.0208(14) 0.3618(13)
H2 H -0.1482 0.0224 0.3727
C3 C -0.0572(15) -0.0663(13) 0.4170(11)
H3 H -0.0739 -0.0553 0.4663
C4 C 0.0111(12) -0.1271(12) 0.4021(10)
C5 C 0.0342(10) -0.1440(11) 0.3281(9)
C6 C 0.1796(11) -0.2885(11) 0.2162(10)
H4 H 0.1908 -0.2986 0.1658
C7 C 0.2319(11) -0.3395(12) 0.2706(11)
H5 H 0.2763 -0.3828 0.2559
C8 C 0.2158(12) -0.3237(12) 0.3418(11)
H6 H 0.2503 -0.3551 0.3777
C9 C 0.1468(12) -0.2595(12) 0.3643(11)
C10 C 0.0979(11) -0.2139(11) 0.3107(10)
C11 C 0.0594(14) -0.1765(14) 0.4585(12)
H7 H 0.0453 -0.1663 0.5084
C12 C 0.1270(14) -0.2392(14) 0.4392(12)
H8 H 0.1605 -0.2690 0.4766
C13 C -0.1382(12) -0.2779(13) 0.2185(12)
H9 H -0.1385 -0.2445 0.2628
C14 C -0.2057(13) -0.3442(13) 0.2091(11)
H10 H -0.2523 -0.3517 0.2446
C15 C -0.2041(14) -0.3982(13) 0.1481(13)
H11 H -0.2476 -0.4454 0.1423
C16 C -0.1366(12) -0.3828(11) 0.0936(11)
C17 C -0.0707(12) -0.3128(11) 0.1077(10)
C18 C 0.1327(13) -0.2136(13) 0.0248(11)
H12 H 0.1754 -0.1673 0.0366
C19 C 0.1481(13) -0.2631(13) -0.0416(9)
H13 H 0.1977 -0.2512 -0.0736
C20 C 0.0824(12) -0.3308(13) -0.0543(10)
H14 H 0.0901 -0.3691 -0.0955
C21 C 0.0067(10) -0.3451(13) -0.0099(9)
C22 C 0.0015(12) -0.2930(11) 0.0572(9)
C23 C -0.1271(14) -0.4288(11) 0.0263(11)
H15 H -0.1706 -0.4744 0.0151
C24 C -0.0577(14) -0.4120(12) -0.0256(10)
H16 H -0.0549 -0.4454 -0.0698
C25 C -0.1454(13) -0.0814(11) 0.0793(10)
H17 H -0.1828 -0.1247 0.1034
C26 C -0.1820(16) -0.0305(14) 0.0208(12)
H18 H -0.2441 -0.0387 0.0074
C27 C -0.1297(14) 0.0301(15) -0.0165(11)
H19 H -0.1548 0.0634 -0.0561
C28 C -0.0388(14) 0.0426(12) 0.0038(12)
C29 C -0.0066(12) -0.0071(11) 0.0648(9)
C30 C 0.2040(11) -0.0377(14) 0.1687(11)
H20 H 0.2250 -0.0763 0.2066
C31 C 0.2670(12) 0.0311(11) 0.1377(12)
H21 H 0.3280 0.0373 0.1545
C32 C 0.2340(13) 0.0826(14) 0.0861(13)
H22 H 0.2719 0.1299 0.0682
C33 C 0.1405(11) 0.0729(11) 0.0530(10)
C34 C 0.0876(13) 0.0055(12) 0.0893(11)
C35 C 0.0224(13) 0.1038(11) -0.0293(10)
H23 H 0.0015 0.1362 -0.0708
C36 C 0.1064(9) 0.1195(9) -0.0070(7)
H24 H 0.1435 0.1624 -0.0318
O1 O 0.3351(9) -0.2863(9) 0.0860(7)
loop_
_geom_bond_atom_site_label_1
_geom_bond_atom_site_label_2
_geom_bond_site_symmetry_1
_geom_bond_site_symmetry_2
In1 Se2 1_555 1_555
In2 Se3 1_555 1_555
Ni1 N1 1_555 1_555
Se1 Se2 1_555 1_555
Se3 In1 1_555 1_555
Se4 In1 1_555 1_555
Se5 In2 1_555 1_555
N1 C1 1_555 1_555
N2 Ni1 1_555 1_555
N3 Ni1 1_555 1_555
N4 Ni1 1_555 1_555
N5 Ni1 1_555 1_555
N6 Ni1 1_555 1_555
C1 H1 1_555 1_555
C2 C1 1_555 1_555
H2 C2 1_555 1_555
C3 C2 1_555 1_555
H3 C3 1_555 1_555
C4 C3 1_555 1_555
C5 N1 1_555 1_555
C6 N2 1_555 1_555
H4 C6 1_555 1_555
C7 C6 1_555 1_555
H5 C7 1_555 1_555
C8 C7 1_555 1_555
H6 C8 1_555 1_555
C9 C8 1_555 1_555
C10 N2 1_555 1_555
C11 C4 1_555 1_555
H7 C11 1_555 1_555
C12 C9 1_555 1_555
H8 C12 1_555 1_555
C13 N3 1_555 1_555
H9 C13 1_555 1_555
C14 C13 1_555 1_555
H10 C14 1_555 1_555
C15 C14 1_555 1_555
H11 C15 1_555 1_555
C16 C15 1_555 1_555
C17 N3 1_555 1_555
C18 N4 1_555 1_555
H12 C18 1_555 1_555
C19 C18 1_555 1_555
H13 C19 1_555 1_555
C20 C19 1_555 1_555
H14 C20 1_555 1_555
C21 C20 1_555 1_555
C22 N4 1_555 1_555
C23 C16 1_555 1_555
H15 C23 1_555 1_555
C24 C21 1_555 1_555
H16 C24 1_555 1_555
C25 N5 1_555 1_555
H17 C25 1_555 1_555
C26 C25 1_555 1_555
H18 C26 1_555 1_555
C27 C26 1_555 1_555
H19 C27 1_555 1_555
C28 C27 1_555 1_555
C29 N5 1_555 1_555
C30 N6 1_555 1_555
H20 C30 1_555 1_555
C31 C30 1_555 1_555
H21 C31 1_555 1_555
C32 C31 1_555 1_555
H22 C32 1_555 1_555
C33 C32 1_555 1_555
C34 N6 1_555 1_555
C35 C28 1_555 1_555
H23 C35 1_555 1_555
C36 C33 1_555 1_555
H24 C36 1_555 1_555
In1B Se5 1_555 1_555
In2B Se1 1_555 1_555
Se1B In2 1_555 1_555
Se5B In1 1_555 1_555
In2 Se4 1_555 1_555
C4 C5 1_555 1_555
C5 C10 1_555 1_555
C9 C10 1_555 1_555
C11 C12 1_555 1_555
C16 C17 1_555 1_555
C17 C22 1_555 1_555
C21 C22 1_555 1_555
C23 C24 1_555 1_555
C28 C29 1_555 1_555
C29 C34 1_555 1_555
C33 C34 1_555 1_555
C35 C36 1_555 1_555
In2B Se5B 1_555 1_555

#END
