
#######################################################################
#
#                 Cambridge Crystallographic Data Centre
#                                CCDC 
#
#######################################################################
#
# If this CIF has been generated from an entry in the Cambridge 
# Structural Database, then it will include bibliographic, chemical, 
# crystal, experimental, refinement or atomic coordinate data resulting 
# from the CCDC's data processing and validation procedures.
#
#######################################################################

data_MAWXIT
_symmetry_cell_setting           orthorhombic
_symmetry_space_group_name_H-M   'P 21 21 21'
_symmetry_Int_Tables_number      19
_space_group_name_Hall           'P 2ac 2ab'
loop_
_symmetry_equiv_pos_site_id
_symmetry_equiv_pos_as_xyz
1 x,y,z
2 1/2-x,-y,1/2+z
3 -x,1/2+y,1/2-z
4 1/2+x,1/2-y,-z
_cell_length_a                   14.501(3)
_cell_length_b                   14.584(3)
_cell_length_c                   18.146(4)
_cell_angle_alpha                90
_cell_angle_beta                 90
_cell_angle_gamma                90
_cell_volume                     3837.56
loop_
_atom_site_label
_atom_site_type_symbol
_atom_site_fract_x
_atom_site_fract_y
_atom_site_fract_z
In1 In -0.01942(7) 0.48020(6) 0.25200(5)
In2 In 0.00899(7) 0.71143(6) 0.23055(5)
Se1 Se -0.18292(10) 0.40778(10) 0.26358(10)
Se2 Se -0.09700(9) 0.84832(10) 0.25640(10)
Se3 Se -0.04617(11) 0.58694(9) 0.13863(8)
Se4 Se 0.03422(11) 0.60503(10) 0.34310(8)
Se5 Se -0.15354(10) 0.27829(10) 0.33763(8)
In1B In 0.01942(7) 0.98020(6) 0.24800(5)
In2B In -0.00899(7) 0.21143(6) 0.26945(5)
Se2B Se 0.09700(9) 0.34832(10) 0.24360(10)
Se5B Se 0.15354(10) 0.77829(10) 0.16237(8)
Ni1 Ni -0.02609(13) 0.15419(12) -0.16819(9)
N1 N 0.0566(9) 0.0699(7) -0.1003(6)
N2 N -0.1186(8) 0.0484(7) -0.1442(6)
N3 N 0.0137(7) 0.1016(7) -0.2715(6)
N4 N -0.1138(8) 0.2284(8) -0.2358(6)
N5 N 0.0719(7) 0.2586(7) -0.1693(6)
N6 N -0.0648(8) 0.2273(8) -0.0716(6)
C1 C 0.1457(11) 0.0815(10) -0.0826(9)
H1 H 0.1829 0.1198 -0.1107
C2 C 0.1827(14) 0.0350(12) -0.0207(10)
H2 H 0.2420 0.0484 -0.0045
C3 C 0.1321(13) -0.0284(13) 0.0145(10)
H3 H 0.1592 -0.0633 0.0514
C4 C 0.0405(11) -0.0427(10) -0.0031(8)
C5 C 0.0077(10) 0.0064(9) -0.0630(7)
C6 C -0.2035(10) 0.0362(11) -0.1709(8)
H4 H -0.2226 0.0704 -0.2114
C7 C -0.2652(11) -0.0275(11) -0.1390(10)
H5 H -0.3255 -0.0322 -0.1560
C8 C -0.2359(10) -0.0805(11) -0.0846(9)
H6 H -0.2754 -0.1249 -0.0656
C9 C -0.1432(11) -0.0712(9) -0.0535(9)
C10 C -0.0880(10) -0.0046(10) -0.0869(7)
C11 C -0.0216(13) -0.1075(11) 0.0331(9)
H7 H -0.0021 -0.1403 0.0742
C12 C -0.1085(13) -0.1192(10) 0.0060(8)
H8 H -0.1466 -0.1620 0.0288
C13 C 0.0780(11) 0.0419(9) -0.2861(8)
H9 H 0.1085 0.0124 -0.2477
C14 C 0.1024(11) 0.0210(12) -0.3617(9)
H10 H 0.1485 -0.0214 -0.3719
C15 C 0.0575(11) 0.0639(10) -0.4172(9)
H11 H 0.0714 0.0495 -0.4659
C16 C -0.0087(11) 0.1289(10) -0.4018(9)
C17 C -0.0299(8) 0.1442(9) -0.3288(7)
C18 C -0.1781(10) 0.2895(8) -0.2172(8)
H12 H -0.1879 0.3017 -0.1676
C19 C -0.2323(10) 0.3368(9) -0.2704(8)
H13 H -0.2792 0.3761 -0.2555
C20 C -0.2146(10) 0.3237(10) -0.3434(8)
H14 H -0.2471 0.3575 -0.3782
C21 C -0.1482(11) 0.2603(11) -0.3671(9)
C22 C -0.0973(9) 0.2144(11) -0.3093(7)
C23 C -0.0580(12) 0.1786(11) -0.4597(9)
H15 H -0.0433 0.1692 -0.5090
C24 C -0.1242(12) 0.2376(11) -0.4410(8)
H16 H -0.1570 0.2658 -0.4787
C25 C 0.1377(10) 0.2749(10) -0.2166(8)
H17 H 0.1404 0.2386 -0.2587
C26 C 0.2038(10) 0.3426(11) -0.2084(9)
H18 H 0.2488 0.3502 -0.2444
C27 C 0.2035(11) 0.3976(10) -0.1487(10)
H19 H 0.2468 0.4440 -0.1429
C28 C 0.1350(11) 0.3816(9) -0.0959(9)
C29 C 0.0699(10) 0.3113(9) -0.1068(8)
C30 C -0.1347(10) 0.2148(10) -0.0264(7)
H20 H -0.1793 0.1718 -0.0389
C31 C -0.1447(11) 0.2629(12) 0.0391(8)
H21 H -0.1937 0.2504 0.0706
C32 C -0.0831(12) 0.3275(12) 0.0562(9)
H22 H -0.0909 0.3619 0.0989
C33 C -0.0068(10) 0.3440(11) 0.0107(7)
C34 C -0.0023(10) 0.2931(9) -0.0554(7)
C35 C 0.1284(13) 0.4297(10) -0.0262(9)
H23 H 0.1717 0.4750 -0.0159
C36 C 0.0622(12) 0.4121(12) 0.0247(9)
H24 H 0.0616 0.4444 0.0689
O1 O -0.3375(8) 0.2880(9) -0.0878(6)
loop_
_geom_bond_atom_site_label_1
_geom_bond_atom_site_label_2
_geom_bond_site_symmetry_1
_geom_bond_site_symmetry_2
In1 Se1 1_555 1_555
In2 Se2 1_555 1_555
Se1 Se5 1_555 1_555
Se2 In1B 1_555 1_555
Se3 In1 1_555 1_555
Se4 In1 1_555 1_555
Se5 In2B 1_555 1_555
Ni1 N1 1_555 1_555
N1 C1 1_555 1_555
N2 Ni1 1_555 1_555
N3 Ni1 1_555 1_555
N4 Ni1 1_555 1_555
N5 Ni1 1_555 1_555
N6 Ni1 1_555 1_555
C1 H1 1_555 1_555
C2 C1 1_555 1_555
H2 C2 1_555 1_555
C3 C2 1_555 1_555
H3 C3 1_555 1_555
C4 C3 1_555 1_555
C5 N1 1_555 1_555
C6 N2 1_555 1_555
H4 C6 1_555 1_555
C7 C6 1_555 1_555
H5 C7 1_555 1_555
C8 C7 1_555 1_555
H6 C8 1_555 1_555
C9 C8 1_555 1_555
C10 N2 1_555 1_555
C11 C4 1_555 1_555
H7 C11 1_555 1_555
C12 C9 1_555 1_555
H8 C12 1_555 1_555
C13 N3 1_555 1_555
H9 C13 1_555 1_555
C14 C13 1_555 1_555
H10 C14 1_555 1_555
C15 C14 1_555 1_555
H11 C15 1_555 1_555
C16 C15 1_555 1_555
C17 N3 1_555 1_555
C18 N4 1_555 1_555
H12 C18 1_555 1_555
C19 C18 1_555 1_555
H13 C19 1_555 1_555
C20 C19 1_555 1_555
H14 C20 1_555 1_555
C21 C20 1_555 1_555
C22 N4 1_555 1_555
C23 C16 1_555 1_555
H15 C23 1_555 1_555
C24 C21 1_555 1_555
H16 C24 1_555 1_555
C25 N5 1_555 1_555
H17 C25 1_555 1_555
C26 C25 1_555 1_555
H18 C26 1_555 1_555
C27 C26 1_555 1_555
H19 C27 1_555 1_555
C28 C27 1_555 1_555
C29 N5 1_555 1_555
C30 N6 1_555 1_555
H20 C30 1_555 1_555
C31 C30 1_555 1_555
H21 C31 1_555 1_555
C32 C31 1_555 1_555
H22 C32 1_555 1_555
C33 C32 1_555 1_555
C34 N6 1_555 1_555
C35 C28 1_555 1_555
H23 C35 1_555 1_555
C36 C33 1_555 1_555
H24 C36 1_555 1_555
In2B Se2B 1_555 1_555
Se2B In1 1_555 1_555
Se5B In2 1_555 1_555
In2 Se3 1_555 1_555
In2 Se4 1_555 1_555
C4 C5 1_555 1_555
C5 C10 1_555 1_555
C9 C10 1_555 1_555
C11 C12 1_555 1_555
C16 C17 1_555 1_555
C17 C22 1_555 1_555
C21 C22 1_555 1_555
C23 C24 1_555 1_555
C28 C29 1_555 1_555
C29 C34 1_555 1_555
C33 C34 1_555 1_555
C35 C36 1_555 1_555

#END
