
#######################################################################
#
#                 Cambridge Crystallographic Data Centre
#                                CCDC 
#
#######################################################################
#
# If this CIF has been generated from an entry in the Cambridge 
# Structural Database, then it will include bibliographic, chemical, 
# crystal, experimental, refinement or atomic coordinate data resulting 
# from the CCDC's data processing and validation procedures.
#
#######################################################################

data_MAXFIA
_symmetry_cell_setting           tetragonal
_symmetry_space_group_name_H-M   'P 43 21 2'
_symmetry_Int_Tables_number      96
_space_group_name_Hall           'P 4nw 2abw'
loop_
_symmetry_equiv_pos_site_id
_symmetry_equiv_pos_as_xyz
1 x,y,z
2 -x,-y,1/2+z
3 1/2-y,1/2+x,3/4+z
4 1/2+y,1/2-x,1/4+z
5 1/2-x,1/2+y,3/4-z
6 1/2+x,1/2-y,1/4-z
7 y,x,-z
8 -y,-x,1/2-z
_cell_length_a                   11.396(7)
_cell_length_b                   11.396(7)
_cell_length_c                   13.913(9)
_cell_angle_alpha                90
_cell_angle_beta                 90
_cell_angle_gamma                90
_cell_volume                     1806.86
loop_
_atom_site_label
_atom_site_type_symbol
_atom_site_fract_x
_atom_site_fract_y
_atom_site_fract_z
Ag1 Ag 0.10919(5) 0.10919(5) 0.0000
N1 N 0.2709(6) 0.1951(7) 0.0887(5)
C1 C 0.3228(7) 0.2879(8) 0.0497(6)
C2 C 0.4104(7) 0.3468(8) 0.0986(6)
H1 H 0.4126 0.4463 -0.0688
N2 N 0.4470(7) 0.3148(7) 0.1867(5)
C3 C 0.3923(7) 0.2205(10) 0.2242(5)
H2 H 0.4160 0.1925 0.2855
C4 C 0.1636(9) 0.3034(9) -0.1765(6)
H3 H 0.1001 0.2643 -0.2071
Ag1C Ag 0.60919(5) 0.39081(5) 0.2500
N1F N 0.1951(7) 0.2709(6) -0.0887(5)
C1F C 0.2879(8) 0.3228(7) -0.0497(6)
C2F C 0.3468(8) 0.4104(7) -0.0986(6)
N2F N 0.3148(7) 0.4470(7) -0.1867(5)
Ag1B Ag 0.39081(5) 0.60919(5) -0.2500
C3F C 0.2205(10) 0.3923(7) -0.2242(5)
H2F H 0.1925 0.4160 -0.2855
N2B N 0.1852(7) -0.0530(7) -0.0633(5)
N2E N -0.0530(7) 0.1852(7) 0.0633(5)
C4F C 0.3034(9) 0.1636(9) 0.1765(6)
H3F H 0.2643 0.1001 0.2071
H1F H 0.4463 0.4126 0.0688
B1 B 0.1258(8) -0.1258(8) 0.2500
F1 F 0.0577(7) -0.0986(9) 0.3263(5)
F2 F 0.2414(6) -0.1075(9) 0.2696(8)
F1G F 0.0986(9) -0.0577(7) 0.1737(5)
F2G F 0.1075(9) -0.2414(6) 0.2304(8)
C5 C 0.0088(14) -0.4667(12) 0.1059(9)
H4 H 0.0140 -0.5476 0.0824
H5 H -0.0736 -0.4418 0.1066
H6 H 0.0409 -0.4623 0.1711
N3 N 0.0641(12) -0.4030(14) 0.0535(9)
O1 O 0.1681(13) -0.4132(15) 0.0292(9)
O2 O -0.0002(14) -0.2958(12) 0.0216(10)
loop_
_geom_bond_atom_site_label_1
_geom_bond_atom_site_label_2
_geom_bond_site_symmetry_1
_geom_bond_site_symmetry_2
Ag1 N1 1_555 1_555
N1 C1 1_555 1_555
C1 C2 1_555 1_555
C2 N2 1_555 1_555
H1 C2F 1_555 1_555
N2 C3 1_555 1_555
C3 H2 1_555 1_555
C4 H3 1_555 1_555
B1 F1 1_555 1_555
F2 B1 1_555 1_555
C5 H4 1_555 1_555
H5 C5 1_555 1_555
H6 C5 1_555 1_555
N3 C5 1_555 1_555
O1 N3 1_555 1_555
O2 N3 1_555 1_555
Ag1C N2 1_555 1_555
N1F Ag1 1_555 1_555
C1F C1 1_555 1_555
C2F C1F 1_555 1_555
N2F C2F 1_555 1_555
Ag1B N2F 1_555 1_555
C3F C4 1_555 1_555
H2F C3F 1_555 1_555
N2B Ag1 1_555 1_555
N2E Ag1 1_555 1_555
C4F N1 1_555 1_555
H3F C4F 1_555 1_555
H1F C2 1_555 1_555
F1G B1 1_555 1_555
F2G B1 1_555 1_555
C3 C4F 1_555 1_555
C4 N1F 1_555 1_555
N1F C1F 1_555 1_555
N2F C3F 1_555 1_555

#END
