
#######################################################################
#
#                 Cambridge Crystallographic Data Centre
#                                CCDC 
#
#######################################################################
#
# If this CIF has been generated from an entry in the Cambridge 
# Structural Database, then it will include bibliographic, chemical, 
# crystal, experimental, refinement or atomic coordinate data resulting 
# from the CCDC's data processing and validation procedures.
#
#######################################################################

data_MAXFOG
_symmetry_cell_setting           monoclinic
_symmetry_space_group_name_H-M   'P 21/n'
_symmetry_Int_Tables_number      14
_space_group_name_Hall           '-P 2yn'
loop_
_symmetry_equiv_pos_site_id
_symmetry_equiv_pos_as_xyz
1 x,y,z
2 1/2+x,1/2-y,1/2+z
3 -x,-y,-z
4 1/2-x,1/2+y,1/2-z
_cell_length_a                   7.326(3)
_cell_length_b                   18.423(6)
_cell_length_c                   10.218(4)
_cell_angle_alpha                90
_cell_angle_beta                 100.35(4)
_cell_angle_gamma                90
_cell_volume                     1356.65
loop_
_atom_site_label
_atom_site_type_symbol
_atom_site_fract_x
_atom_site_fract_y
_atom_site_fract_z
Ag1 Ag 0.23180(7) -0.11570(3) -0.09629(6)
C1 C 0.3998(10) -0.3090(4) 0.1841(7)
H1 H 0.3339 -0.3472 0.2173
C2 C 0.3082(10) -0.2656(4) 0.0850(7)
H2 H 0.1801 -0.2739 0.0524
N1 N 0.3941(8) -0.2119(3) 0.0329(6)
C3 C 0.5755(9) -0.2015(4) 0.0821(7)
C4 C 0.6694(9) -0.1427(4) 0.0199(7)
N2 N 0.5598(8) -0.0922(3) -0.0479(6)
C5 C 0.6414(10) -0.0406(4) -0.1091(8)
H3 H 0.5683 -0.0030 -0.1558
C6 C 0.8321(9) -0.0413(4) -0.1052(7)
H4 H 0.8857 -0.0047 -0.1517
N3 N 0.9423(8) -0.0915(3) -0.0385(6)
C7 C 0.8601(9) -0.1413(4) 0.0255(7)
H5 H 0.9345 -0.1770 0.0767
C8 C 0.6675(10) -0.2448(4) 0.1844(7)
H6 H 0.7948 -0.2357 0.2186
N4 N 0.5807(8) -0.2992(3) 0.2363(6)
N5 N 0.2003(9) -0.0064(4) -0.2382(8)
C9 C 0.2197(11) 0.0196(5) -0.3340(9)
C10 C 0.2511(14) 0.0523(6) -0.4572(10)
H7 H 0.3705 0.0778 -0.4416
H8 H 0.1514 0.0869 -0.4890
H9 H 0.2525 0.0144 -0.5242
N4A N 0.0807(8) -0.2008(3) -0.2637(6)
Ag1A Ag 0.73180(7) -0.38430(3) 0.40371(6)
Ag1_2 Ag 1.23180(7) -0.11570(3) -0.09629(6)
N3_2 N -0.0577(8) -0.0915(3) -0.0385(6)
B1 B -0.7622(13) -0.1506(6) -1.6289(9)
F1 F -0.6124(8) -0.1879(3) -1.5632(7)
F2 F -0.8879(8) -0.1997(4) -1.6925(6)
F3 F -0.7108(10) -0.1050(4) -1.7179(7)
F4 F -0.8419(12) -0.1154(5) -1.5376(8)
loop_
_geom_bond_atom_site_label_1
_geom_bond_atom_site_label_2
_geom_bond_site_symmetry_1
_geom_bond_site_symmetry_2
Ag1 N1 1_555 1_555
C1 H1 1_555 1_555
C2 C1 1_555 1_555
H2 C2 1_555 1_555
N1 C2 1_555 1_555
C3 N1 1_555 1_555
C4 C3 1_555 1_555
N2 Ag1 1_555 1_555
C5 N2 1_555 1_555
H3 C5 1_555 1_555
C6 C5 1_555 1_555
H4 C6 1_555 1_555
N3 C6 1_555 1_555
C7 C4 1_555 1_555
H5 C7 1_555 1_555
C8 C3 1_555 1_555
H6 C8 1_555 1_555
N4 C1 1_555 1_555
N5 Ag1 1_555 1_555
C9 N5 1_555 1_555
C10 C9 1_555 1_555
H7 C10 1_555 1_555
H8 C10 1_555 1_555
H9 C10 1_555 1_555
B1 F1 1_555 1_555
F2 B1 1_555 1_555
F3 B1 1_555 1_555
F4 B1 1_555 1_555
N4A Ag1 1_555 1_555
Ag1A N4 1_555 1_555
Ag1_2 N3 1_555 1_555
N3_2 Ag1 1_555 1_555
C4 N2 1_555 1_555
N3 C7 1_555 1_555
C8 N4 1_555 1_555

#END
