
#######################################################################
#
#                 Cambridge Crystallographic Data Centre
#                                CCDC 
#
#######################################################################
#
# If this CIF has been generated from an entry in the Cambridge 
# Structural Database, then it will include bibliographic, chemical, 
# crystal, experimental, refinement or atomic coordinate data resulting 
# from the CCDC's data processing and validation procedures.
#
#######################################################################

data_MAXHIE
_symmetry_cell_setting           orthorhombic
_symmetry_space_group_name_H-M   'P 21 21 21'
_symmetry_Int_Tables_number      19
_space_group_name_Hall           'P 2ac 2ab'
loop_
_symmetry_equiv_pos_site_id
_symmetry_equiv_pos_as_xyz
1 x,y,z
2 1/2-x,-y,1/2+z
3 -x,1/2+y,1/2-z
4 1/2+x,1/2-y,-z
_cell_length_a                   8.6544(16)
_cell_length_b                   10.3809(18)
_cell_length_c                   10.7646(19)
_cell_angle_alpha                90
_cell_angle_beta                 90
_cell_angle_gamma                90
_cell_volume                     967.097
loop_
_atom_site_label
_atom_site_type_symbol
_atom_site_fract_x
_atom_site_fract_y
_atom_site_fract_z
Pr1 Pr -0.50720(9) 0.39847(4) -0.38654(4)
P1 P -0.3066(3) 0.5816(3) -0.1382(3)
P2 P -0.6576(3) 0.5857(3) -0.1075(3)
O1 O -0.3228(10) 0.4721(8) -0.2307(8)
O2 O -0.3291(10) 0.7153(8) -0.1974(7)
O3 O -0.1584(8) 0.5708(7) -0.0635(6)
O4 O -0.7805(9) 0.5448(7) -0.0156(6)
O5 O -0.6751(8) 0.7256(8) -0.1432(7)
O6 O -0.6546(10) 0.4971(9) -0.2208(9)
O7 O -0.4572(8) 0.6951(6) 0.0450(5)
H1 H -0.3690 0.6982 0.0787
O8 O -0.4669(9) 0.6434(5) -0.4167(5)
H2 H -0.4595 0.6792 -0.3463
H3 H -0.3846 0.6559 -0.4574
C1 C -0.4678(11) 0.5747(8) -0.0304(7)
C2 C -0.4594(12) 0.4575(8) 0.0549(8)
H10 H -0.3599 0.4545 0.0941
H11 H -0.4746 0.3806 0.0069
H12 H -0.5384 0.4637 0.1172
Pr1B Pr -0.49280(9) 0.89847(4) -0.11346(4)
Pr1A Pr -0.99280(9) 0.60153(4) 0.11346(4)
Pr1A_2 Pr 0.00720(9) 0.60153(4) 0.11346(4)
O2B O -0.6709(10) 0.2153(8) -0.3026(7)
O3A O -0.3416(8) 0.4292(7) -0.5635(6)
O4A O -0.7195(9) 0.4552(7) -0.5156(6)
O5B O -0.3249(8) 0.2256(8) -0.3568(7)
O7B O -0.5428(8) 0.1951(6) -0.5450(5)
H1B H -0.6310 0.1982 -0.5787
O9 O -0.2175(10) 0.2562(8) -0.0938(8)
H4 H -0.2883 0.2732 -0.1455
H5 H -0.1752 0.1852 -0.1129
N1 N -0.4304(12) 0.1514(8) -0.8044(8)
H6 H -0.3585 0.2086 -0.8280
H7 H -0.5206 0.1706 -0.8407
H8 H -0.4010 0.0718 -0.8271
H9 H -0.4414 0.1544 -0.7217
loop_
_geom_bond_atom_site_label_1
_geom_bond_atom_site_label_2
_geom_bond_site_symmetry_1
_geom_bond_site_symmetry_2
Pr1 O1 1_555 1_555
P1 O1 1_555 1_555
P2 O4 1_555 1_555
O2 P1 1_555 1_555
O3 P1 1_555 1_555
O4 Pr1A 1_555 1_555
O5 P2 1_555 1_555
O6 Pr1 1_555 1_555
O7 H1 1_555 1_555
O8 Pr1 1_555 1_555
H2 O8 1_555 1_555
H3 O8 1_555 1_555
O9 H4 1_555 1_555
H5 O9 1_555 1_555
N1 H6 1_555 1_555
H7 N1 1_555 1_555
H8 N1 1_555 1_555
H9 N1 1_555 1_555
C1 P1 1_555 1_555
C2 C1 1_555 1_555
H10 C2 1_555 1_555
H11 C2 1_555 1_555
H12 C2 1_555 1_555
Pr1B O2 1_555 1_555
Pr1A_2 O3 1_555 1_555
O2B Pr1 1_555 1_555
O3A Pr1 1_555 1_555
O4A Pr1 1_555 1_555
O5B Pr1 1_555 1_555
O7B Pr1 1_555 1_555
H1B O7B 1_555 1_555
P2 O6 1_555 1_555
P2 C1 1_555 1_555
O5 Pr1B 1_555 1_555
O7 C1 1_555 1_555
O7 Pr1B 1_555 1_555

#END
