
#######################################################################
#
#                 Cambridge Crystallographic Data Centre
#                                CCDC 
#
#######################################################################
#
# If this CIF has been generated from an entry in the Cambridge 
# Structural Database, then it will include bibliographic, chemical, 
# crystal, experimental, refinement or atomic coordinate data resulting 
# from the CCDC's data processing and validation procedures.
#
#######################################################################

data_MAXHAW
_symmetry_cell_setting           orthorhombic
_symmetry_space_group_name_H-M   'P 21 21 21'
_symmetry_Int_Tables_number      19
_space_group_name_Hall           'P 2ac 2ab'
loop_
_symmetry_equiv_pos_site_id
_symmetry_equiv_pos_as_xyz
1 x,y,z
2 1/2-x,-y,1/2+z
3 -x,1/2+y,1/2-z
4 1/2+x,1/2-y,-z
_cell_length_a                   8.7115(10)
_cell_length_b                   10.4316(13)
_cell_length_c                   10.8838(13)
_cell_angle_alpha                90
_cell_angle_beta                 90
_cell_angle_gamma                90
_cell_volume                     989.064
loop_
_atom_site_label
_atom_site_type_symbol
_atom_site_fract_x
_atom_site_fract_y
_atom_site_fract_z
La1 La -0.00787(5) 1.10152(3) 0.11264(3)
P1 P -0.1556(2) 0.9167(2) 0.3942(2)
P2 P 0.1944(2) 0.9187(2) 0.36069(19)
O1 O -0.1528(7) 1.0044(6) 0.2827(6)
O2 O -0.1758(6) 0.7759(5) 0.3596(5)
O3 O -0.2764(7) 0.9591(5) 0.4859(5)
O4 O 0.1721(7) 0.7866(6) 0.2997(5)
O5 O 0.1795(7) 1.0288(6) 0.2695(6)
O6 O 0.3428(6) 0.9300(5) 0.4345(5)
O7 O 0.0457(5) 0.8087(5) 0.5447(4)
H1 H 0.1348 0.7969 0.5661
O8 O 0.0373(6) 0.8559(4) 0.0824(5)
H2 H -0.0484 0.8185 0.0715
H3 H 0.0789 0.8247 0.1464
C1 C 0.0360(8) 0.9280(6) 0.4706(6)
C2 C 0.0452(10) 1.0442(8) 0.5521(8)
H10 H 0.1446 1.0480 0.5899
H11 H -0.0323 1.0387 0.6147
H12 H 0.0289 1.1200 0.5039
La1B La 0.00787(5) 0.60152(3) 0.38736(3)
La1A La -0.49213(5) 0.89848(3) 0.61264(3)
La1A_2 La 0.50787(5) 0.89848(3) 0.61264(3)
O2B O 0.1758(6) 1.2759(5) 0.1404(5)
O3A O -0.2236(7) 1.0409(5) -0.0141(5)
O4B O -0.1721(7) 1.2866(6) 0.2003(5)
O6A O 0.1572(6) 1.0700(5) -0.0655(5)
O7B O -0.0457(5) 1.3087(5) -0.0447(4)
H1B H -0.1348 1.2969 -0.0661
O9 O 0.2104(7) 0.7540(6) -0.1001(6)
H4 H 0.2633 0.7823 -0.1599
H5 H 0.2679 0.7118 -0.0518
N1 N 0.5707(10) 0.1527(7) 0.3009(7)
H6 H 0.5247 0.2284 0.2860
H7 H 0.6443 0.1634 0.3580
H8 H 0.5007 0.0962 0.3285
H9 H 0.6131 0.1229 0.2311
loop_
_geom_bond_atom_site_label_1
_geom_bond_atom_site_label_2
_geom_bond_site_symmetry_1
_geom_bond_site_symmetry_2
La1 O1 1_555 1_555
P1 O1 1_555 1_555
P2 O4 1_555 1_555
O2 P1 1_555 1_555
O3 P1 1_555 1_555
O4 La1B 1_555 1_555
O5 La1 1_555 1_555
O6 P2 1_555 1_555
O7 H1 1_555 1_555
O8 La1 1_555 1_555
H2 O8 1_555 1_555
H3 O8 1_555 1_555
O9 H4 1_555 1_555
H5 O9 1_555 1_555
N1 H6 1_555 1_555
H7 N1 1_555 1_555
H8 N1 1_555 1_555
H9 N1 1_555 1_555
C1 P1 1_555 1_555
C2 C1 1_555 1_555
H10 C2 1_555 1_555
H11 C2 1_555 1_555
H12 C2 1_555 1_555
La1B O2 1_555 1_555
La1A O3 1_555 1_555
La1A_2 O6 1_555 1_555
O2B La1 1_555 1_555
O3A La1 1_555 1_555
O4B La1 1_555 1_555
O6A La1 1_555 1_555
O7B La1 1_555 1_555
H1B O7B 1_555 1_555
P2 O5 1_555 1_555
P2 C1 1_555 1_555
O7 C1 1_555 1_555
O7 La1B 1_555 1_555

#END
