
#######################################################################
#
#                 Cambridge Crystallographic Data Centre
#                                CCDC 
#
#######################################################################
#
# If this CIF has been generated from an entry in the Cambridge 
# Structural Database, then it will include bibliographic, chemical, 
# crystal, experimental, refinement or atomic coordinate data resulting 
# from the CCDC's data processing and validation procedures.
#
#######################################################################

data_MAXHEA
_symmetry_cell_setting           orthorhombic
_symmetry_space_group_name_H-M   'P 21 21 21'
_symmetry_Int_Tables_number      19
_space_group_name_Hall           'P 2ac 2ab'
loop_
_symmetry_equiv_pos_site_id
_symmetry_equiv_pos_as_xyz
1 x,y,z
2 1/2-x,-y,1/2+z
3 -x,1/2+y,1/2-z
4 1/2+x,1/2-y,-z
_cell_length_a                   8.6912(11)
_cell_length_b                   10.3935(13)
_cell_length_c                   10.8180(13)
_cell_angle_alpha                90
_cell_angle_beta                 90
_cell_angle_gamma                90
_cell_volume                     977.211
loop_
_atom_site_label
_atom_site_type_symbol
_atom_site_fract_x
_atom_site_fract_y
_atom_site_fract_z
Ce1 Ce -0.00765(5) 0.60131(3) 0.38733(3)
P1 P -0.1563(2) 0.4160(2) 0.10661(18)
P2 P 0.1940(2) 0.4184(2) 0.13898(16)
O1 O -0.1535(7) 0.5040(6) 0.2191(6)
O2 O -0.2788(6) 0.4583(5) 0.0153(5)
O3 O -0.1755(6) 0.2745(5) 0.1410(5)
O4 O 0.1786(7) 0.5299(6) 0.2304(5)
O5 O 0.1743(6) 0.2851(5) 0.1992(5)
O6 O 0.3417(6) 0.4294(5) 0.0649(5)
O7 O 0.0475(6) 0.3068(5) -0.0446(4)
H1 H -0.0205 0.3053 -0.1011
O8 O 0.0362(6) 0.3570(4) 0.4172(4)
H2 H 0.0765 0.3255 0.3523
H3 H -0.0497 0.3199 0.4292
C1 C 0.0319(9) 0.4252(6) 0.0296(6)
C2 C 0.0422(10) 0.5434(7) -0.0541(6)
H10 H -0.0438 0.5443 -0.1098
H11 H 0.1362 0.5403 -0.1007
H12 H 0.0407 0.6200 -0.0044
Ce1B Ce 0.00765(5) 0.10131(3) 0.11267(3)
Ce1A Ce -0.49235(5) 0.39869(3) -0.11267(3)
Ce1A_2 Ce 0.50765(5) 0.39869(3) -0.11267(3)
O2A O -0.2212(6) 0.5417(5) 0.5153(5)
O3B O 0.1755(6) 0.7745(5) 0.3590(5)
O5B O -0.1743(6) 0.7851(5) 0.3008(5)
O6A O 0.1583(6) 0.5706(5) 0.5649(5)
O7B O -0.0475(6) 0.8068(5) 0.5446(4)
H1B H 0.0205 0.8053 0.6011
O9 O 0.7848(7) 0.7523(6) 0.9018(5)
H4 H 0.8736 0.7680 0.8726
H5 H 0.7386 0.8227 0.9168
N1 N 0.4291(8) 0.1513(7) 0.3049(6)
H6 H 0.3396 0.1406 0.2643
H7 H 0.4383 0.0903 0.3634
H8 H 0.5079 0.1449 0.2513
H9 H 0.4305 0.2295 0.3406
loop_
_geom_bond_atom_site_label_1
_geom_bond_atom_site_label_2
_geom_bond_site_symmetry_1
_geom_bond_site_symmetry_2
Ce1 O1 1_555 1_555
P1 O1 1_555 1_555
P2 O4 1_555 1_555
O2 P1 1_555 1_555
O3 P1 1_555 1_555
O4 Ce1 1_555 1_555
O5 P2 1_555 1_555
O6 P2 1_555 1_555
O7 H1 1_555 1_555
O8 Ce1 1_555 1_555
H2 O8 1_555 1_555
H3 O8 1_555 1_555
O9 H4 1_555 1_555
H5 O9 1_555 1_555
N1 H6 1_555 1_555
H7 N1 1_555 1_555
H8 N1 1_555 1_555
H9 N1 1_555 1_555
C1 P1 1_555 1_555
C2 C1 1_555 1_555
H10 C2 1_555 1_555
H11 C2 1_555 1_555
H12 C2 1_555 1_555
Ce1B O3 1_555 1_555
Ce1A O2 1_555 1_555
Ce1A_2 O6 1_555 1_555
O2A Ce1 1_555 1_555
O3B Ce1 1_555 1_555
O5B Ce1 1_555 1_555
O6A Ce1 1_555 1_555
O7B Ce1 1_555 1_555
H1B O7B 1_555 1_555
P2 C1 1_555 1_555
O5 Ce1B 1_555 1_555
O7 C1 1_555 1_555
O7 Ce1B 1_555 1_555

#END
