
#######################################################################
#
#                 Cambridge Crystallographic Data Centre
#                                CCDC 
#
#######################################################################
#
# If this CIF has been generated from an entry in the Cambridge 
# Structural Database, then it will include bibliographic, chemical, 
# crystal, experimental, refinement or atomic coordinate data resulting 
# from the CCDC's data processing and validation procedures.
#
#######################################################################

data_MAXHOK
_symmetry_cell_setting           orthorhombic
_symmetry_space_group_name_H-M   'P 21 21 21'
_symmetry_Int_Tables_number      19
_space_group_name_Hall           'P 2ac 2ab'
loop_
_symmetry_equiv_pos_site_id
_symmetry_equiv_pos_as_xyz
1 x,y,z
2 1/2-x,-y,1/2+z
3 -x,1/2+y,1/2-z
4 1/2+x,1/2-y,-z
_cell_length_a                   8.649(2)
_cell_length_b                   10.323(3)
_cell_length_c                   10.738(3)
_cell_angle_alpha                90
_cell_angle_beta                 90
_cell_angle_gamma                90
_cell_volume                     958.728
loop_
_atom_site_label
_atom_site_type_symbol
_atom_site_fract_x
_atom_site_fract_y
_atom_site_fract_z
Nd1 Nd -0.50709(7) 0.39826(4) -0.38698(4)
P1 P -0.3065(3) 0.5817(3) -0.1383(2)
P2 P -0.6574(3) 0.5847(3) -0.1072(3)
O1 O -0.3242(9) 0.4706(8) -0.2305(8)
O2 O -0.3288(8) 0.7153(7) -0.1985(7)
O3 O -0.1581(7) 0.5699(6) -0.0641(6)
O4 O -0.7824(8) 0.5433(7) -0.0148(6)
O5 O -0.6742(8) 0.7265(7) -0.1425(6)
O6 O -0.6561(9) 0.4942(7) -0.2195(8)
O7 O -0.4567(7) 0.6950(6) 0.0458(6)
H1 H -0.3685 0.6981 0.0795
O8 O -0.4673(7) 0.6412(5) -0.4160(5)
H2 H -0.4599 0.6771 -0.3457
H3 H -0.3850 0.6537 -0.4568
C1 C -0.4684(10) 0.5747(7) -0.0294(8)
C2 C -0.4608(12) 0.4570(9) 0.0566(9)
H10 H -0.3613 0.4538 0.0961
H11 H -0.4764 0.3795 0.0088
H12 H -0.5399 0.4637 0.1190
Nd1B Nd -0.49291(7) 0.89826(4) -0.11302(4)
Nd1A Nd -0.99291(7) 0.60174(4) 0.11302(4)
Nd1A_2 Nd 0.00709(7) 0.60174(4) 0.11302(4)
O2B O -0.6712(8) 0.2153(7) -0.3015(7)
O3A O -0.3419(7) 0.4301(6) -0.5641(6)
O4A O -0.7176(8) 0.4567(7) -0.5148(6)
O5B O -0.3258(8) 0.2265(7) -0.3575(6)
O7B O -0.5433(7) 0.1950(6) -0.5458(6)
H1B H -0.6315 0.1981 -0.5795
O9 O -0.2162(8) 0.2542(7) -0.0939(8)
H4 H -0.2870 0.2712 -0.1456
H5 H -0.1739 0.1832 -0.1130
N1 N -0.4297(11) 0.1522(8) -0.8036(9)
H6 H -0.3578 0.2095 -0.8273
H7 H -0.5199 0.1715 -0.8399
H8 H -0.4003 0.0727 -0.8263
H9 H -0.4407 0.1553 -0.7209
loop_
_geom_bond_atom_site_label_1
_geom_bond_atom_site_label_2
_geom_bond_site_symmetry_1
_geom_bond_site_symmetry_2
Nd1 O1 1_555 1_555
P1 O1 1_555 1_555
P2 O4 1_555 1_555
O2 P1 1_555 1_555
O3 P1 1_555 1_555
O4 Nd1A 1_555 1_555
O5 P2 1_555 1_555
O6 Nd1 1_555 1_555
O7 H1 1_555 1_555
O8 Nd1 1_555 1_555
H2 O8 1_555 1_555
H3 O8 1_555 1_555
O9 H4 1_555 1_555
H5 O9 1_555 1_555
N1 H6 1_555 1_555
H7 N1 1_555 1_555
H8 N1 1_555 1_555
H9 N1 1_555 1_555
C1 P1 1_555 1_555
C2 C1 1_555 1_555
H10 C2 1_555 1_555
H11 C2 1_555 1_555
H12 C2 1_555 1_555
Nd1B O2 1_555 1_555
Nd1A_2 O3 1_555 1_555
O2B Nd1 1_555 1_555
O3A Nd1 1_555 1_555
O4A Nd1 1_555 1_555
O5B Nd1 1_555 1_555
O7B Nd1 1_555 1_555
H1B O7B 1_555 1_555
P2 O6 1_555 1_555
P2 C1 1_555 1_555
O5 Nd1B 1_555 1_555
O7 C1 1_555 1_555
O7 Nd1B 1_555 1_555

#END
