
#######################################################################
#
#                 Cambridge Crystallographic Data Centre
#                                CCDC 
#
#######################################################################
#
# If this CIF has been generated from an entry in the Cambridge 
# Structural Database, then it will include bibliographic, chemical, 
# crystal, experimental, refinement or atomic coordinate data resulting 
# from the CCDC's data processing and validation procedures.
#
#######################################################################

data_MAXKUR
_symmetry_cell_setting           triclinic
_symmetry_space_group_name_H-M   'P -1'
_symmetry_Int_Tables_number      2
_space_group_name_Hall           '-P 1'
loop_
_symmetry_equiv_pos_site_id
_symmetry_equiv_pos_as_xyz
1 x,y,z
2 -x,-y,-z
_cell_length_a                   5.187(2)
_cell_length_b                   10.722(3)
_cell_length_c                   12.636(4)
_cell_angle_alpha                82.315(4)
_cell_angle_beta                 78.712(4)
_cell_angle_gamma                79.952(4)
_cell_volume                     674.969
loop_
_atom_site_label
_atom_site_type_symbol
_atom_site_fract_x
_atom_site_fract_y
_atom_site_fract_z
Ag1 Ag 0.20797(3) -0.596347(17) -0.149944(15)
S1 S 0.02836(10) -0.66061(5) 0.04486(5)
O1 O 0.7028(4) -0.66789(19) -0.14109(16)
O2 O 0.5704(3) -0.70139(18) -0.28545(15)
O3 O 0.9825(4) -0.7636(2) -0.26874(17)
N1 N -0.0545(4) -0.55877(19) 0.27400(17)
N2 N 0.7567(4) -0.7118(2) -0.23182(17)
C1 C -0.1597(6) -0.5575(3) 0.3801(2)
H5 H -0.3079 -0.4975 0.4004
C2 C -0.0585(7) -0.6407(3) 0.4600(2)
H6 H -0.1370 -0.6372 0.5325
C3 C 0.1620(7) -0.7296(3) 0.4302(3)
H7 H 0.2347 -0.7869 0.4825
C4 C 0.2747(6) -0.7326(2) 0.3207(2)
H8 H 0.4244 -0.7913 0.2992
C5 C 0.1606(5) -0.6471(2) 0.2446(2)
C6 C 0.2729(4) -0.6460(2) 0.1250(2)
H9 H 0.3435 -0.5672 0.0997
H10 H 0.4190 -0.7157 0.1141
C7 C 0.0059(4) -0.8316(2) 0.0688(2)
H11 H -0.1281 -0.8481 0.0309
H12 H -0.0540 -0.8530 0.1457
C8 C 0.2629(4) -0.9183(2) 0.03316(19)
C9 C 0.4009(4) -0.9907(2) 0.10941(19)
H13 H 0.3357 -0.9852 0.1829
C10 C 0.3630(4) -0.9281(2) -0.0772(2)
H14 H 0.2720 -0.8803 -0.1292
C10A C 0.6370(4) -1.0719(2) 0.0772(2)
C8A C 0.7371(4) -1.0817(2) -0.03316(19)
C7A C 0.9941(4) -1.1684(2) -0.0688(2)
S1A S 0.97164(10) -1.33939(5) -0.04486(5)
C6A C 0.7271(4) -1.3540(2) -0.1250(2)
C5A C 0.8394(5) -1.3529(2) -0.2446(2)
N1A N 1.0545(4) -1.44123(19) -0.27400(17)
C1A C 1.1597(6) -1.4425(3) -0.3801(2)
H5A H 1.3079 -1.5025 -0.4004
C2A C 1.0585(7) -1.3593(3) -0.4600(2)
H6A H 1.1370 -1.3628 -0.5325
C3A C 0.8380(7) -1.2704(3) -0.4302(3)
H7A H 0.7653 -1.2131 -0.4825
C4A C 0.7253(6) -1.2674(2) -0.3207(2)
H8A H 0.5756 -1.2087 -0.2992
H9A H 0.6565 -1.4328 -0.0997
H10A H 0.5810 -1.2843 -0.1141
H11A H 1.1281 -1.1519 -0.0309
H12A H 1.0540 -1.1470 -0.1457
C9A C 0.5991(4) -1.0093(2) -0.10941(19)
H13A H 0.6643 -1.0148 -0.1829
H14A H 0.7280 -1.1197 0.1292
N1A_2 N 0.0545(4) -0.44123(19) -0.27400(17)
Ag1A Ag 0.79203(3) -1.403653(17) 0.149944(15)
Ag1A_2 Ag -0.20797(3) -0.403653(17) 0.149944(15)
Ag1_2 Ag 1.20797(3) -1.596347(17) -0.149944(15)
O1A O 0.2972(4) -1.33211(19) 0.14109(16)
O2A O 0.4296(3) -1.29861(18) 0.28545(15)
O3A O 0.0175(4) -1.2364(2) 0.26874(17)
N2A N 0.2433(4) -1.2882(2) 0.23182(17)
N1_2 N 0.9455(4) -1.55877(19) 0.27400(17)
O4 O -0.3480(4) 0.0802(2) -0.40009(18)
H1 H -0.366(7) 0.1507(15) -0.379(3)
H2 H -0.484(5) 0.048(4) -0.383(3)
O5 O -0.7960(4) -0.0421(2) -0.3762(2)
H3 H -0.944(3) 0.001(3) -0.369(3)
H4 H -0.768(13) -0.053(6) -0.4407(13)
loop_
_geom_bond_atom_site_label_1
_geom_bond_atom_site_label_2
_geom_bond_site_symmetry_1
_geom_bond_site_symmetry_2
Ag1 S1 1_555 1_555
S1 C6 1_555 1_555
O1 Ag1 1_555 1_555
O2 Ag1 1_555 1_555
O3 N2 1_555 1_555
O4 H1 1_555 1_555
H2 O4 1_555 1_555
O5 H3 1_555 1_555
H4 O5 1_555 1_555
N1 C1 1_555 1_555
N2 O1 1_555 1_555
C1 H5 1_555 1_555
C2 C1 1_555 1_555
H6 C2 1_555 1_555
C3 C2 1_555 1_555
H7 C3 1_555 1_555
C4 C3 1_555 1_555
H8 C4 1_555 1_555
C5 N1 1_555 1_555
C6 C5 1_555 1_555
H9 C6 1_555 1_555
H10 C6 1_555 1_555
C7 S1 1_555 1_555
H11 C7 1_555 1_555
H12 C7 1_555 1_555
C8 C7 1_555 1_555
C9 C8 1_555 1_555
H13 C9 1_555 1_555
C10 C8 1_555 1_555
H14 C10 1_555 1_555
C10A C9 1_555 1_555
C8A C10A 1_555 1_555
C7A C8A 1_555 1_555
S1A C7A 1_555 1_555
C6A S1A 1_555 1_555
C5A C6A 1_555 1_555
N1A C5A 1_555 1_555
C1A N1A 1_555 1_555
H5A C1A 1_555 1_555
C2A C1A 1_555 1_555
H6A C2A 1_555 1_555
C3A C2A 1_555 1_555
H7A C3A 1_555 1_555
C4A C5A 1_555 1_555
H8A C4A 1_555 1_555
H9A C6A 1_555 1_555
H10A C6A 1_555 1_555
H11A C7A 1_555 1_555
H12A C7A 1_555 1_555
C9A C10 1_555 1_555
H13A C9A 1_555 1_555
H14A C10A 1_555 1_555
N1A_2 Ag1 1_555 1_555
Ag1A S1A 1_555 1_555
Ag1A_2 N1 1_555 1_555
Ag1_2 N1A 1_555 1_555
O1A Ag1A 1_555 1_555
O2A Ag1A 1_555 1_555
O3A N2A 1_555 1_555
N2A O1A 1_555 1_555
N1_2 Ag1A 1_555 1_555
O2 N2 1_555 1_555
C4 C5 1_555 1_555
C8A C9A 1_555 1_555
C3A C4A 1_555 1_555
O2A N2A 1_555 1_555

#END
