
#######################################################################
#
#                 Cambridge Crystallographic Data Centre
#                                CCDC 
#
#######################################################################
#
# If this CIF has been generated from an entry in the Cambridge 
# Structural Database, then it will include bibliographic, chemical, 
# crystal, experimental, refinement or atomic coordinate data resulting 
# from the CCDC's data processing and validation procedures.
#
#######################################################################

data_MAXLII
_symmetry_cell_setting           monoclinic
_symmetry_space_group_name_H-M   'C 2/c'
_symmetry_Int_Tables_number      15
_space_group_name_Hall           '-C 2yn'
loop_
_symmetry_equiv_pos_site_id
_symmetry_equiv_pos_as_xyz
1 x,y,z
2 -x,y,1/2-z
3 1/2+x,1/2+y,z
4 1/2-x,1/2+y,1/2-z
5 -x,-y,-z
6 x,-y,1/2+z
7 1/2-x,1/2-y,-z
8 1/2+x,1/2-y,1/2+z
_cell_length_a                   15.4249(9)
_cell_length_b                   20.8456(9)
_cell_length_c                   20.5195(15)
_cell_angle_alpha                90
_cell_angle_beta                 107.921(5)
_cell_angle_gamma                90
_cell_volume                     6277.75
loop_
_atom_site_label
_atom_site_type_symbol
_atom_site_fract_x
_atom_site_fract_y
_atom_site_fract_z
Sm1 Sm 0.0000 0.589170(19) 0.2500
S1 S 0.22205(14) 0.29624(10) 0.18037(10)
S2 S 0.20139(14) 0.39174(10) 0.17174(10)
N1 N 0.0492(4) 0.3446(3) 0.0812(3)
N2 N 0.2980(4) 0.3279(3) 0.0837(3)
N3 N -0.0878(4) 0.4810(3) 0.2083(3)
N4 N 0.0470(4) 0.6979(3) 0.2026(3)
O1 O 0.1762(5) 0.5249(3) 0.1420(4)
O3 O 0.0478(4) 0.5580(2) 0.1583(3)
O5 O 0.3608(4) 0.1200(3) 0.1762(3)
O7 O 0.2312(5) 0.1645(3) 0.1791(5)
C1 C 0.0889(6) 0.3977(4) 0.1120(4)
C2 C 0.0476(6) 0.4594(4) 0.1026(4)
C3 C -0.0417(6) 0.4623(4) 0.0587(4)
H14 H -0.0737 0.5008 0.0515
C4 C -0.0823(7) 0.4063(4) 0.0258(5)
H15 H -0.1415 0.4073 -0.0040
C5 C -0.0351(6) 0.3507(4) 0.0374(4)
H16 H -0.0627 0.3144 0.0135
C6 C 0.0934(6) 0.5175(3) 0.1364(4)
C7 C 0.2829(5) 0.2811(4) 0.1200(4)
C8 C 0.3156(5) 0.2186(4) 0.1164(4)
C9 C 0.3650(6) 0.2084(4) 0.0719(4)
H17 H 0.3897 0.1681 0.0694
C10 C 0.3777(6) 0.2547(6) 0.0329(4)
H18 H 0.4094 0.2479 0.0017
C11 C 0.3416(6) 0.3153(5) 0.0399(4)
H19 H 0.3493 0.3484 0.0117
C12 C 0.3006(6) 0.1644(4) 0.1592(5)
C13 C -0.0441(6) 0.4237(3) 0.2273(4)
C14 C -0.0871(8) 0.3644(4) 0.2031(6)
C15 C -0.1769(8) 0.3685(5) 0.1560(6)
H20 H -0.2070 0.3310 0.1373
C16 C -0.2182(8) 0.4238(5) 0.1383(6)
H21 H -0.2771 0.4254 0.1081
C17 C -0.1724(6) 0.4801(4) 0.1655(5)
H22 H -0.2026 0.5190 0.1532
C18 C -0.0377(7) 0.3058(4) 0.2303(7)
H23 H -0.0661 0.2666 0.2163
C19 C 0.0231(5) 0.7544(3) 0.2252(4)
C20 C 0.0437(6) 0.8141(3) 0.1996(4)
C21 C 0.0899(6) 0.8121(4) 0.1509(5)
H24 H 0.1038 0.8501 0.1325
C22 C 0.1153(6) 0.7536(5) 0.1296(5)
H25 H 0.1474 0.7518 0.0981
C23 C 0.0914(5) 0.6983(4) 0.1569(4)
H26 H 0.1075 0.6591 0.1423
C24 C 0.0190(8) 0.8726(4) 0.2276(5)
H27 H 0.0322 0.9117 0.2110
Sm1B Sm 0.5000 0.089170(19) 0.2500
Sm1B_2 Sm -0.5000 1.089170(19) 0.2500
S1B S -0.27795(14) 0.79624(10) 0.18037(10)
S2B S -0.29861(14) 0.89174(10) 0.17174(10)
N1B N -0.4508(4) 0.8446(3) 0.0812(3)
N2B N -0.2020(4) 0.8279(3) 0.0837(3)
N3A N 0.0878(4) 0.4810(3) 0.2917(3)
N4A N -0.0470(4) 0.6979(3) 0.2974(3)
O1B O -0.3238(5) 1.0249(3) 0.1420(4)
O3B O -0.4522(4) 1.0580(2) 0.1583(3)
O3A O -0.0478(4) 0.5580(2) 0.3417(3)
O5B O -0.1392(4) 0.6200(3) 0.1762(3)
O5C O 0.1392(4) 0.6200(3) 0.3238(3)
O7B O -0.2688(5) 0.6645(3) 0.1791(5)
C1B C -0.4111(6) 0.8977(4) 0.1120(4)
C2B C -0.4524(6) 0.9594(4) 0.1026(4)
C3B C -0.5417(6) 0.9623(4) 0.0587(4)
H14B H -0.5737 1.0008 0.0515
C4B C -0.5823(7) 0.9063(4) 0.0258(5)
H15B H -0.6415 0.9073 -0.0040
C5B C -0.5351(6) 0.8507(4) 0.0374(4)
H16B H -0.5627 0.8144 0.0135
C6B C -0.4066(6) 1.0175(3) 0.1364(4)
C7B C -0.2171(5) 0.7811(4) 0.1200(4)
C8B C -0.1844(5) 0.7186(4) 0.1164(4)
C9B C -0.1350(6) 0.7084(4) 0.0719(4)
H17B H -0.1103 0.6681 0.0694
C10B C -0.1223(6) 0.7547(6) 0.0329(4)
H18B H -0.0906 0.7479 0.0017
C11B C -0.1584(6) 0.8153(5) 0.0399(4)
H19B H -0.1507 0.8484 0.0117
C12B C -0.1994(6) 0.6644(4) 0.1592(5)
C13A C 0.0441(6) 0.4237(3) 0.2727(4)
C14A C 0.0871(8) 0.3644(4) 0.2969(6)
C15A C 0.1769(8) 0.3685(5) 0.3440(6)
H20A H 0.2070 0.3310 0.3627
C16A C 0.2182(8) 0.4238(5) 0.3617(6)
H21A H 0.2771 0.4254 0.3919
C17A C 0.1724(6) 0.4801(4) 0.3345(5)
H22A H 0.2026 0.5190 0.3468
C18A C 0.0377(7) 0.3058(4) 0.2697(7)
H23A H 0.0661 0.2666 0.2837
C19A C -0.0231(5) 0.7544(3) 0.2748(4)
C20A C -0.0437(6) 0.8141(3) 0.3004(4)
C21A C -0.0899(6) 0.8121(4) 0.3491(5)
H24A H -0.1038 0.8501 0.3675
C22A C -0.1153(6) 0.7536(5) 0.3704(5)
H25A H -0.1474 0.7518 0.4019
C23A C -0.0914(5) 0.6983(4) 0.3431(4)
H26A H -0.1075 0.6591 0.3577
C24A C -0.0190(8) 0.8726(4) 0.2724(5)
H27A H -0.0322 0.9117 0.2890
O2 O 0.4601(7) 0.2974(5) -0.1112(6)
H1 H 0.483(8) 0.316(7) -0.139(6)
H2 H 0.506(6) 0.279(7) -0.085(6)
O4 O -0.2484(9) 0.5380(5) -0.0421(6)
H3 H -0.208(7) 0.519(8) -0.054(7)
H4 H -0.293(6) 0.535(10) -0.077(5)
O6 O 0.172(2) 0.1352(17) 0.3074(17)
H5 H 0.1649 0.1027 0.2717
H6 H 0.2107 0.1082 0.3295
O8 O 0.618(2) 0.3474(13) -0.0154(11)
H7 H 0.6721 0.3469 0.0242
H8 H 0.6020 0.3894 -0.0359
O9 O -0.3885(14) 0.4795(14) -0.0100(15)
H9 H -0.4344 0.4724 -0.0448
H10 H -0.3588 0.5198 -0.0130
O11 O -0.419(3) 0.524(3) 0.098(3)
H12 H -0.3875 0.5158 0.0692
H13 H -0.4498 0.4801 0.0921
O10? O 0.731(3) 0.2755(16) -0.0308(18)
H11? H 0.7790 0.2801 0.0028
loop_
_geom_bond_atom_site_label_1
_geom_bond_atom_site_label_2
_geom_bond_site_symmetry_1
_geom_bond_site_symmetry_2
Sm1 N3 1_555 1_555
S1 S2 1_555 1_555
S2 C1 1_555 1_555
N1 C1 1_555 1_555
N2 C7 1_555 1_555
N3 C13 1_555 1_555
N4 Sm1 1_555 1_555
O1 C6 1_555 1_555
O2 H1 1_555 1_555
H2 O2 1_555 1_555
O3 Sm1 1_555 1_555
O4 H3 1_555 1_555
H4 O4 1_555 1_555
O5 C12 1_555 1_555
O6 H5 1_555 1_555
H6 O6 1_555 1_555
O7 C12 1_555 1_555
O8 H7 1_555 1_555
H8 O8 1_555 1_555
O9 H9 1_555 1_555
H10 O9 1_555 1_555
O11 H12 1_555 1_555
H13 O11 1_555 1_555
C1 C2 1_555 1_555
C2 C3 1_555 1_555
C3 H14 1_555 1_555
C4 C3 1_555 1_555
H15 C4 1_555 1_555
C5 N1 1_555 1_555
H16 C5 1_555 1_555
C6 O3 1_555 1_555
C7 S1 1_555 1_555
C8 C7 1_555 1_555
C9 C8 1_555 1_555
H17 C9 1_555 1_555
C10 C9 1_555 1_555
H18 C10 1_555 1_555
C11 N2 1_555 1_555
H19 C11 1_555 1_555
C12 C8 1_555 1_555
C13 C14 1_555 1_555
C14 C15 1_555 1_555
C15 H20 1_555 1_555
C16 C15 1_555 1_555
H21 C16 1_555 1_555
C17 N3 1_555 1_555
H22 C17 1_555 1_555
C18 C14 1_555 1_555
H23 C18 1_555 1_555
C19 N4 1_555 1_555
C20 C19 1_555 1_555
C21 C20 1_555 1_555
H24 C21 1_555 1_555
C22 C21 1_555 1_555
H25 C22 1_555 1_555
C23 N4 1_555 1_555
H26 C23 1_555 1_555
C24 C20 1_555 1_555
H27 C24 1_555 1_555
Sm1B O5 1_555 1_555
Sm1B_2 O3B 1_555 1_555
S1B S2B 1_555 1_555
S2B C1B 1_555 1_555
N1B C1B 1_555 1_555
N2B C7B 1_555 1_555
N3A Sm1 1_555 1_555
N4A Sm1 1_555 1_555
O1B C6B 1_555 1_555
O3B C6B 1_555 1_555
O3A Sm1 1_555 1_555
O5B Sm1 1_555 1_555
O5C Sm1 1_555 1_555
O7B C12B 1_555 1_555
C1B C2B 1_555 1_555
C2B C3B 1_555 1_555
C3B H14B 1_555 1_555
C4B C3B 1_555 1_555
H15B C4B 1_555 1_555
C5B N1B 1_555 1_555
H16B C5B 1_555 1_555
C6B C2B 1_555 1_555
C7B S1B 1_555 1_555
C8B C7B 1_555 1_555
C9B C8B 1_555 1_555
H17B C9B 1_555 1_555
C10B C9B 1_555 1_555
H18B C10B 1_555 1_555
C11B N2B 1_555 1_555
H19B C11B 1_555 1_555
C12B O5B 1_555 1_555
C13A C13 1_555 1_555
C14A C13A 1_555 1_555
C15A C14A 1_555 1_555
H20A C15A 1_555 1_555
C16A C15A 1_555 1_555
H21A C16A 1_555 1_555
C17A N3A 1_555 1_555
H22A C17A 1_555 1_555
C18A C18 1_555 1_555
H23A C18A 1_555 1_555
C19A C19 1_555 1_555
C20A C19A 1_555 1_555
C21A C20A 1_555 1_555
H24A C21A 1_555 1_555
C22A C21A 1_555 1_555
H25A C22A 1_555 1_555
C23A N4A 1_555 1_555
H26A C23A 1_555 1_555
C24A C24 1_555 1_555
H27A C24A 1_555 1_555
C2 C6 1_555 1_555
C4 C5 1_555 1_555
C10 C11 1_555 1_555
C16 C17 1_555 1_555
C22 C23 1_555 1_555
N3A C13A 1_555 1_555
N4A C19A 1_555 1_555
C4B C5B 1_555 1_555
C8B C12B 1_555 1_555
C10B C11B 1_555 1_555
C14A C18A 1_555 1_555
C16A C17A 1_555 1_555
C20A C24A 1_555 1_555
C22A C23A 1_555 1_555

#END
