
#######################################################################
#
#                 Cambridge Crystallographic Data Centre
#                                CCDC 
#
#######################################################################
#
# If this CIF has been generated from an entry in the Cambridge 
# Structural Database, then it will include bibliographic, chemical, 
# crystal, experimental, refinement or atomic coordinate data resulting 
# from the CCDC's data processing and validation procedures.
#
#######################################################################

data_MAXLEE
_symmetry_cell_setting           monoclinic
_symmetry_space_group_name_H-M   'C 2/c'
_symmetry_Int_Tables_number      15
_space_group_name_Hall           '-C 2yn'
loop_
_symmetry_equiv_pos_site_id
_symmetry_equiv_pos_as_xyz
1 x,y,z
2 -x,y,1/2-z
3 1/2+x,1/2+y,z
4 1/2-x,1/2+y,1/2-z
5 -x,-y,-z
6 x,-y,1/2+z
7 1/2-x,1/2-y,-z
8 1/2+x,1/2-y,1/2+z
_cell_length_a                   15.618(4)
_cell_length_b                   20.841(5)
_cell_length_c                   20.455(8)
_cell_angle_alpha                90
_cell_angle_beta                 108.21(2)
_cell_angle_gamma                90
_cell_volume                     6324.55
loop_
_atom_site_label
_atom_site_type_symbol
_atom_site_fract_x
_atom_site_fract_y
_atom_site_fract_z
Nd1 Nd 0.0000 0.58817(2) 0.2500
S1 S 0.22227(13) 0.29570(9) 0.18093(10)
S2 S 0.20056(13) 0.39090(9) 0.17187(10)
N1 N 0.0503(4) 0.3428(3) 0.0826(3)
N2 N 0.2977(4) 0.3280(3) 0.0847(3)
N3 N -0.0867(3) 0.4786(3) 0.2083(3)
N4 N 0.0459(4) 0.6985(2) 0.2024(3)
O1 O 0.1750(4) 0.5240(3) 0.1402(4)
O3 O 0.0479(4) 0.5569(2) 0.1569(3)
O5 O 0.3598(3) 0.1190(3) 0.1759(3)
O7 O 0.2317(4) 0.1643(3) 0.1791(4)
C1 C 0.0890(5) 0.3956(4) 0.1121(4)
C2 C 0.0479(5) 0.4574(3) 0.1019(4)
C3 C -0.0413(5) 0.4605(4) 0.0574(4)
H14 H -0.0727 0.4992 0.0499
C4 C -0.0811(6) 0.4049(4) 0.0253(5)
H15 H -0.1395 0.4061 -0.0051
C5 C -0.0360(5) 0.3489(4) 0.0377(4)
H16 H -0.0644 0.3124 0.0148
C6 C 0.0937(5) 0.5162(4) 0.1363(4)
C7 C 0.2833(4) 0.2817(4) 0.1203(4)
C8 C 0.3151(5) 0.2175(3) 0.1167(4)
C9 C 0.3637(5) 0.2083(5) 0.0717(5)
H17 H 0.3873 0.1679 0.0683
C10 C 0.3776(6) 0.2562(5) 0.0328(5)
H18 H 0.4089 0.2502 0.0013
C11 C 0.3427(5) 0.3153(5) 0.0420(4)
H19 H 0.3520 0.3491 0.0154
C12 C 0.2996(6) 0.1636(4) 0.1596(5)
C13 C -0.0444(5) 0.4212(3) 0.2271(4)
C14 C -0.0862(6) 0.3612(4) 0.2036(5)
C15 C -0.1744(7) 0.3653(5) 0.1570(5)
H20 H -0.2048 0.3276 0.1397
C16 C -0.2168(6) 0.4223(5) 0.1365(6)
H21 H -0.2746 0.4239 0.1052
C17 C -0.1710(5) 0.4780(4) 0.1638(5)
H22 H -0.2000 0.5171 0.1506
C18 C -0.0397(6) 0.3032(4) 0.2294(6)
H23 H -0.0687 0.2642 0.2156
C19 C 0.0233(4) 0.7558(3) 0.2250(4)
C20 C 0.0428(5) 0.8143(3) 0.1995(4)
C21 C 0.0883(6) 0.8119(4) 0.1507(5)
H24 H 0.1030 0.8499 0.1329
C22 C 0.1118(6) 0.7542(5) 0.1287(5)
H25 H 0.1419 0.7525 0.0960
C23 C 0.0898(5) 0.6993(4) 0.1562(4)
H26 H 0.1065 0.6602 0.1418
C24 C 0.0198(7) 0.8733(3) 0.2267(5)
H27 H 0.0339 0.9122 0.2103
Nd1B Nd 0.5000 0.08817(2) 0.2500
Nd1B_2 Nd -0.5000 0.08817(2) 0.2500
S1A S -0.22227(13) 0.29570(9) 0.31907(10)
S2A S -0.20056(13) 0.39090(9) 0.32813(10)
N1A N -0.0503(4) 0.3428(3) 0.4174(3)
N2A N -0.2977(4) 0.3280(3) 0.4153(3)
N3A N 0.0867(3) 0.4786(3) 0.2917(3)
N4A N -0.0459(4) 0.6985(2) 0.2976(3)
O1A O -0.1750(4) 0.5240(3) 0.3598(4)
O3A O -0.0479(4) 0.5569(2) 0.3431(3)
O5A O -0.3598(3) 0.1190(3) 0.3241(3)
O5B O -0.1402(3) 0.6190(3) 0.1759(3)
O5C O 0.1402(3) 0.6190(3) 0.3241(3)
O7A O -0.2317(4) 0.1643(3) 0.3209(4)
C1A C -0.0890(5) 0.3956(4) 0.3879(4)
C2A C -0.0479(5) 0.4574(3) 0.3981(4)
C3A C 0.0413(5) 0.4605(4) 0.4426(4)
H14A H 0.0727 0.4992 0.4501
C4A C 0.0811(6) 0.4049(4) 0.4747(5)
H15A H 0.1395 0.4061 0.5051
C5A C 0.0360(5) 0.3489(4) 0.4623(4)
H16A H 0.0644 0.3124 0.4852
C6A C -0.0937(5) 0.5162(4) 0.3637(4)
C7A C -0.2833(4) 0.2817(4) 0.3797(4)
C8A C -0.3151(5) 0.2175(3) 0.3833(4)
C9A C -0.3637(5) 0.2083(5) 0.4283(5)
H17A H -0.3873 0.1679 0.4317
C10A C -0.3776(6) 0.2562(5) 0.4672(5)
H18A H -0.4089 0.2502 0.4987
C11A C -0.3427(5) 0.3153(5) 0.4580(4)
H19A H -0.3520 0.3491 0.4846
C12A C -0.2996(6) 0.1636(4) 0.3404(5)
C13A C 0.0444(5) 0.4212(3) 0.2729(4)
C14A C 0.0862(6) 0.3612(4) 0.2964(5)
C15A C 0.1744(7) 0.3653(5) 0.3430(5)
H20A H 0.2048 0.3276 0.3603
C16A C 0.2168(6) 0.4223(5) 0.3635(6)
H21A H 0.2746 0.4239 0.3948
C17A C 0.1710(5) 0.4780(4) 0.3362(5)
H22A H 0.2000 0.5171 0.3494
C18A C 0.0397(6) 0.3032(4) 0.2706(6)
H23A H 0.0687 0.2642 0.2844
C19A C -0.0233(4) 0.7558(3) 0.2750(4)
C20A C -0.0428(5) 0.8143(3) 0.3005(4)
C21A C -0.0883(6) 0.8119(4) 0.3493(5)
H24A H -0.1030 0.8499 0.3671
C22A C -0.1118(6) 0.7542(5) 0.3713(5)
H25A H -0.1419 0.7525 0.4040
C23A C -0.0898(5) 0.6993(4) 0.3438(4)
H26A H -0.1065 0.6602 0.3582
C24A C -0.0198(7) 0.8733(3) 0.2733(5)
H27A H -0.0339 0.9122 0.2897
O2 O 0.4566(7) 0.2984(5) -0.1130(6)
H1 H 0.496(7) 0.295(7) -0.075(3)
H2 H 0.420(7) 0.323(6) -0.104(6)
O4 O -0.2471(7) 0.5386(5) -0.0420(5)
H3 H -0.210(7) 0.516(6) -0.053(6)
H4 H -0.290(6) 0.539(8) -0.079(4)
O6 O 0.191(2) 0.1312(16) 0.3087(15)
H5 H 0.1896 0.0910 0.2736
H6 H 0.2298 0.1042 0.3308
O8 O 0.6082(15) 0.3480(11) -0.0169(10)
H7 H 0.6619 0.3477 0.0230
H8 H 0.5921 0.3900 -0.0376
O9 O -0.3843(12) 0.4786(11) -0.0103(12)
H9 H -0.4302 0.4714 -0.0450
H10 H -0.3546 0.5188 -0.0132
O11 O -0.427(2) 0.5121(17) 0.1061(17)
H12 H -0.3948 0.5044 0.0768
H13 H -0.4416 0.4754 0.0943
O10? O 0.739(2) 0.2705(13) -0.0326(14)
H11? H 0.7866 0.2750 0.0011
loop_
_geom_bond_atom_site_label_1
_geom_bond_atom_site_label_2
_geom_bond_site_symmetry_1
_geom_bond_site_symmetry_2
Nd1 N3 1_555 1_555
S1 S2 1_555 1_555
S2 C1 1_555 1_555
N1 C1 1_555 1_555
N2 C7 1_555 1_555
N3 C13 1_555 1_555
N4 Nd1 1_555 1_555
O1 C6 1_555 1_555
O2 H1 1_555 1_555
H2 O2 1_555 1_555
O3 Nd1 1_555 1_555
O4 H3 1_555 1_555
H4 O4 1_555 1_555
O5 C12 1_555 1_555
O6 H5 1_555 1_555
H6 O6 1_555 1_555
O7 C12 1_555 1_555
O8 H7 1_555 1_555
H8 O8 1_555 1_555
O9 H9 1_555 1_555
H10 O9 1_555 1_555
O11 H12 1_555 1_555
H13 O11 1_555 1_555
C1 C2 1_555 1_555
C2 C3 1_555 1_555
C3 H14 1_555 1_555
C4 C3 1_555 1_555
H15 C4 1_555 1_555
C5 N1 1_555 1_555
H16 C5 1_555 1_555
C6 O3 1_555 1_555
C7 S1 1_555 1_555
C8 C7 1_555 1_555
C9 C8 1_555 1_555
H17 C9 1_555 1_555
C10 C9 1_555 1_555
H18 C10 1_555 1_555
C11 N2 1_555 1_555
H19 C11 1_555 1_555
C12 C8 1_555 1_555
C13 C14 1_555 1_555
C14 C15 1_555 1_555
C15 H20 1_555 1_555
C16 C15 1_555 1_555
H21 C16 1_555 1_555
C17 N3 1_555 1_555
H22 C17 1_555 1_555
C18 C14 1_555 1_555
H23 C18 1_555 1_555
C19 N4 1_555 1_555
C20 C19 1_555 1_555
C21 C20 1_555 1_555
H24 C21 1_555 1_555
C22 C21 1_555 1_555
H25 C22 1_555 1_555
C23 N4 1_555 1_555
H26 C23 1_555 1_555
C24 C20 1_555 1_555
H27 C24 1_555 1_555
Nd1B O5 1_555 1_555
Nd1B_2 O5A 1_555 1_555
S1A S2A 1_555 1_555
S2A C1A 1_555 1_555
N1A C1A 1_555 1_555
N2A C7A 1_555 1_555
N3A Nd1 1_555 1_555
N4A Nd1 1_555 1_555
O1A C6A 1_555 1_555
O3A Nd1 1_555 1_555
O5A C12A 1_555 1_555
O5B Nd1 1_555 1_555
O5C Nd1 1_555 1_555
O7A C12A 1_555 1_555
C1A C2A 1_555 1_555
C2A C3A 1_555 1_555
C3A H14A 1_555 1_555
C4A C3A 1_555 1_555
H15A C4A 1_555 1_555
C5A N1A 1_555 1_555
H16A C5A 1_555 1_555
C6A O3A 1_555 1_555
C7A S1A 1_555 1_555
C8A C7A 1_555 1_555
C9A C8A 1_555 1_555
H17A C9A 1_555 1_555
C10A C9A 1_555 1_555
H18A C10A 1_555 1_555
C11A N2A 1_555 1_555
H19A C11A 1_555 1_555
C12A C8A 1_555 1_555
C13A C13 1_555 1_555
C14A C13A 1_555 1_555
C15A C14A 1_555 1_555
H20A C15A 1_555 1_555
C16A C15A 1_555 1_555
H21A C16A 1_555 1_555
C17A N3A 1_555 1_555
H22A C17A 1_555 1_555
C18A C18 1_555 1_555
H23A C18A 1_555 1_555
C19A C19 1_555 1_555
C20A C19A 1_555 1_555
C21A C20A 1_555 1_555
H24A C21A 1_555 1_555
C22A C21A 1_555 1_555
H25A C22A 1_555 1_555
C23A N4A 1_555 1_555
H26A C23A 1_555 1_555
C24A C24 1_555 1_555
H27A C24A 1_555 1_555
C2 C6 1_555 1_555
C4 C5 1_555 1_555
C10 C11 1_555 1_555
C16 C17 1_555 1_555
C22 C23 1_555 1_555
N3A C13A 1_555 1_555
N4A C19A 1_555 1_555
C2A C6A 1_555 1_555
C4A C5A 1_555 1_555
C10A C11A 1_555 1_555
C14A C18A 1_555 1_555
C16A C17A 1_555 1_555
C20A C24A 1_555 1_555
C22A C23A 1_555 1_555

#END
