
#######################################################################
#
#                 Cambridge Crystallographic Data Centre
#                                CCDC 
#
#######################################################################
#
# If this CIF has been generated from an entry in the Cambridge 
# Structural Database, then it will include bibliographic, chemical, 
# crystal, experimental, refinement or atomic coordinate data resulting 
# from the CCDC's data processing and validation procedures.
#
#######################################################################

data_MAXLUU
_symmetry_cell_setting           monoclinic
_symmetry_space_group_name_H-M   'C 2/c'
_symmetry_Int_Tables_number      15
_space_group_name_Hall           '-C 2yn'
loop_
_symmetry_equiv_pos_site_id
_symmetry_equiv_pos_as_xyz
1 x,y,z
2 -x,y,1/2-z
3 1/2+x,1/2+y,z
4 1/2-x,1/2+y,1/2-z
5 -x,-y,-z
6 x,-y,1/2+z
7 1/2-x,1/2-y,-z
8 1/2+x,1/2-y,1/2+z
_cell_length_a                   15.5097(13)
_cell_length_b                   20.7884(13)
_cell_length_c                   20.520(2)
_cell_angle_alpha                90
_cell_angle_beta                 107.696(5)
_cell_angle_gamma                90
_cell_volume                     6303.04
loop_
_atom_site_label
_atom_site_type_symbol
_atom_site_fract_x
_atom_site_fract_y
_atom_site_fract_z
Eu1 Eu 0.0000 0.588249(12) 0.2500
S1 S -0.22230(9) 0.29547(7) 0.31909(6)
S2 S -0.20028(9) 0.39125(7) 0.32830(7)
N1 N -0.0492(3) 0.3434(2) 0.4176(2)
N2 N -0.2966(3) 0.3276(2) 0.4166(2)
N3 N 0.0878(3) 0.48024(19) 0.2918(2)
N4 N -0.0452(3) 0.69686(18) 0.2977(2)
O1 O -0.1736(3) 0.5251(2) 0.3605(3)
O3 O -0.0467(3) 0.55699(17) 0.3415(2)
O5 O -0.3629(3) 0.11973(19) 0.3229(2)
O7 O -0.2328(3) 0.1631(3) 0.3207(4)
C1 C -0.0884(4) 0.3968(3) 0.3878(3)
C2 C -0.0467(3) 0.4581(2) 0.3982(2)
C3 C 0.0414(4) 0.4608(3) 0.4415(3)
H16 H 0.0729 0.4995 0.4486
C4 C 0.0821(5) 0.4049(3) 0.4742(3)
H17 H 0.1404 0.4060 0.5046
C5 C 0.0356(4) 0.3489(3) 0.4611(3)
H18 H 0.0637 0.3121 0.4833
C6 C -0.0932(4) 0.5171(3) 0.3637(3)
C7 C -0.2830(3) 0.2804(2) 0.3797(2)
C8 C -0.3166(3) 0.2173(3) 0.3825(3)
C9 C -0.3658(4) 0.2084(3) 0.4279(3)
H19 H -0.3907 0.1682 0.4309
C10 C -0.3782(4) 0.2564(4) 0.4675(3)
H20 H -0.4098 0.2503 0.4990
C11 C -0.3422(4) 0.3153(3) 0.4597(3)
H21 H -0.3507 0.3490 0.4869
C12 C -0.3022(4) 0.1629(3) 0.3398(3)
C13 C 0.0450(4) 0.4226(2) 0.2730(3)
C14 C 0.0876(5) 0.3633(3) 0.2971(3)
C15 C 0.1747(5) 0.3651(4) 0.3421(4)
H22 H 0.2043 0.3270 0.3593
C16 C 0.2168(5) 0.4222(4) 0.3609(5)
H23 H 0.2750 0.4238 0.3914
C17 C 0.1710(4) 0.4789(3) 0.3336(3)
H24 H 0.2012 0.5179 0.3458
C18 C 0.0395(5) 0.3039(3) 0.2714(5)
H25 H 0.0674 0.2648 0.2867
C19 C -0.0232(3) 0.7540(2) 0.2753(2)
C20 C -0.0442(4) 0.8128(2) 0.3007(3)
C21 C -0.0884(4) 0.8115(3) 0.3494(3)
H26 H -0.1017 0.8497 0.3678
C22 C -0.1131(4) 0.7535(3) 0.3711(3)
H27 H -0.1446 0.7519 0.4031
C23 C -0.0898(4) 0.6977(3) 0.3438(3)
H28 H -0.1063 0.6585 0.3584
C24 C -0.0195(6) 0.8719(3) 0.2736(4)
H29 H -0.0321 0.9110 0.2907
Eu1B Eu -0.5000 0.088249(12) 0.2500
Eu1B_2 Eu 0.5000 0.088249(12) 0.2500
S1A S 0.22230(9) 0.29547(7) 0.18091(6)
S2A S 0.20028(9) 0.39125(7) 0.17170(7)
N1A N 0.0492(3) 0.3434(2) 0.0824(2)
N2A N 0.2966(3) 0.3276(2) 0.0834(2)
N3A N -0.0878(3) 0.48024(19) 0.2082(2)
N4A N 0.0452(3) 0.69686(18) 0.2023(2)
O1A O 0.1736(3) 0.5251(2) 0.1395(3)
O3A O 0.0467(3) 0.55699(17) 0.1585(2)
O5A O 0.3629(3) 0.11973(19) 0.1771(2)
O5B O 0.1371(3) 0.61973(19) 0.3229(2)
O5C O -0.1371(3) 0.61973(19) 0.1771(2)
O7A O 0.2328(3) 0.1631(3) 0.1793(4)
C1A C 0.0884(4) 0.3968(3) 0.1122(3)
C2A C 0.0467(3) 0.4581(2) 0.1018(2)
C3A C -0.0414(4) 0.4608(3) 0.0585(3)
H16A H -0.0729 0.4995 0.0514
C4A C -0.0821(5) 0.4049(3) 0.0258(3)
H17A H -0.1404 0.4060 -0.0046
C5A C -0.0356(4) 0.3489(3) 0.0389(3)
H18A H -0.0637 0.3121 0.0167
C6A C 0.0932(4) 0.5171(3) 0.1363(3)
C7A C 0.2830(3) 0.2804(2) 0.1203(2)
C8A C 0.3166(3) 0.2173(3) 0.1175(3)
C9A C 0.3658(4) 0.2084(3) 0.0721(3)
H19A H 0.3907 0.1682 0.0691
C10A C 0.3782(4) 0.2564(4) 0.0325(3)
H20A H 0.4098 0.2503 0.0010
C11A C 0.3422(4) 0.3153(3) 0.0403(3)
H21A H 0.3507 0.3490 0.0131
C12A C 0.3022(4) 0.1629(3) 0.1602(3)
C13A C -0.0450(4) 0.4226(2) 0.2270(3)
C14A C -0.0876(5) 0.3633(3) 0.2029(3)
C15A C -0.1747(5) 0.3651(4) 0.1579(4)
H22A H -0.2043 0.3270 0.1407
C16A C -0.2168(5) 0.4222(4) 0.1391(5)
H23A H -0.2750 0.4238 0.1086
C17A C -0.1710(4) 0.4789(3) 0.1664(3)
H24A H -0.2012 0.5179 0.1542
C18A C -0.0395(5) 0.3039(3) 0.2286(5)
H25A H -0.0674 0.2648 0.2133
C19A C 0.0232(3) 0.7540(2) 0.2247(2)
C20A C 0.0442(4) 0.8128(2) 0.1993(3)
C21A C 0.0884(4) 0.8115(3) 0.1506(3)
H26A H 0.1017 0.8497 0.1322
C22A C 0.1131(4) 0.7535(3) 0.1289(3)
H27A H 0.1446 0.7519 0.0969
C23A C 0.0898(4) 0.6977(3) 0.1562(3)
H28A H 0.1063 0.6585 0.1416
C24A C 0.0195(6) 0.8719(3) 0.2264(4)
H29A H 0.0321 0.9110 0.2093
O2 O 0.4575(5) 0.2995(4) -0.1126(4)
H1 H 0.4982 0.2982 -0.0740
H2 H 0.4195 0.3263 -0.1062
H3 H 0.4296 0.2645 -0.1260
O4 O -0.2464(6) 0.5385(4) -0.0416(4)
H4 H -0.2076 0.5158 -0.0523
H5 H -0.2900 0.5385 -0.0790
O6 O 0.1905(14) 0.0938(8) 0.2825(10)
H6 H 0.1693 0.0852 0.3152
H7 H 0.2300 0.1226 0.2841
O8 O 0.6092(11) 0.3487(9) -0.0120(7)
H8 H 0.6562 0.3485 0.0228
H9 H 0.5950 0.3855 -0.0302
O9 O -0.3869(10) 0.4793(11) -0.0121(11)
H10 H -0.4328 0.4721 -0.0469
H11 H -0.3609 0.5146 -0.0147
O11 O -0.4285(18) 0.509(2) 0.0996(18)
H14 H -0.3941 0.5116 0.0748
H15 H -0.4521 0.4719 0.0942
O10? O 0.736(2) 0.2742(18) -0.0326(14)
H12? H 0.7838 0.2787 0.0011
H13? H 0.7094 0.3016 -0.0630
loop_
_geom_bond_atom_site_label_1
_geom_bond_atom_site_label_2
_geom_bond_site_symmetry_1
_geom_bond_site_symmetry_2
Eu1 N3 1_555 1_555
S1 S2 1_555 1_555
S2 C1 1_555 1_555
N1 C1 1_555 1_555
N2 C7 1_555 1_555
N3 C13 1_555 1_555
N4 Eu1 1_555 1_555
O1 C6 1_555 1_555
O2 H1 1_555 1_555
H2 O2 1_555 1_555
H3 O2 1_555 1_555
O3 Eu1 1_555 1_555
O4 H4 1_555 1_555
H5 O4 1_555 1_555
O5 C12 1_555 1_555
O6 H6 1_555 1_555
H7 O6 1_555 1_555
O7 C12 1_555 1_555
O8 H8 1_555 1_555
H9 O8 1_555 1_555
O9 H10 1_555 1_555
H11 O9 1_555 1_555
O11 H14 1_555 1_555
H15 O11 1_555 1_555
C1 C2 1_555 1_555
C2 C3 1_555 1_555
C3 H16 1_555 1_555
C4 C3 1_555 1_555
H17 C4 1_555 1_555
C5 N1 1_555 1_555
H18 C5 1_555 1_555
C6 O3 1_555 1_555
C7 S1 1_555 1_555
C8 C7 1_555 1_555
C9 C8 1_555 1_555
H19 C9 1_555 1_555
C10 C9 1_555 1_555
H20 C10 1_555 1_555
C11 N2 1_555 1_555
H21 C11 1_555 1_555
C12 C8 1_555 1_555
C13 C14 1_555 1_555
C14 C15 1_555 1_555
C15 H22 1_555 1_555
C16 C15 1_555 1_555
H23 C16 1_555 1_555
C17 N3 1_555 1_555
H24 C17 1_555 1_555
C18 C14 1_555 1_555
H25 C18 1_555 1_555
C19 N4 1_555 1_555
C20 C19 1_555 1_555
C21 C20 1_555 1_555
H26 C21 1_555 1_555
C22 C21 1_555 1_555
H27 C22 1_555 1_555
C23 N4 1_555 1_555
H28 C23 1_555 1_555
C24 C20 1_555 1_555
H29 C24 1_555 1_555
Eu1B O5 1_555 1_555
Eu1B_2 O5A 1_555 1_555
S1A S2A 1_555 1_555
S2A C1A 1_555 1_555
N1A C1A 1_555 1_555
N2A C7A 1_555 1_555
N3A Eu1 1_555 1_555
N4A Eu1 1_555 1_555
O1A C6A 1_555 1_555
O3A Eu1 1_555 1_555
O5A C12A 1_555 1_555
O5B Eu1 1_555 1_555
O5C Eu1 1_555 1_555
O7A C12A 1_555 1_555
C1A C2A 1_555 1_555
C2A C3A 1_555 1_555
C3A H16A 1_555 1_555
C4A C3A 1_555 1_555
H17A C4A 1_555 1_555
C5A N1A 1_555 1_555
H18A C5A 1_555 1_555
C6A O3A 1_555 1_555
C7A S1A 1_555 1_555
C8A C7A 1_555 1_555
C9A C8A 1_555 1_555
H19A C9A 1_555 1_555
C10A C9A 1_555 1_555
H20A C10A 1_555 1_555
C11A N2A 1_555 1_555
H21A C11A 1_555 1_555
C12A C8A 1_555 1_555
C13A C13 1_555 1_555
C14A C13A 1_555 1_555
C15A C14A 1_555 1_555
H22A C15A 1_555 1_555
C16A C15A 1_555 1_555
H23A C16A 1_555 1_555
C17A N3A 1_555 1_555
H24A C17A 1_555 1_555
C18A C18 1_555 1_555
H25A C18A 1_555 1_555
C19A C19 1_555 1_555
C20A C19A 1_555 1_555
C21A C20A 1_555 1_555
H26A C21A 1_555 1_555
C22A C21A 1_555 1_555
H27A C22A 1_555 1_555
C23A N4A 1_555 1_555
H28A C23A 1_555 1_555
C24A C24 1_555 1_555
H29A C24A 1_555 1_555
C2 C6 1_555 1_555
C4 C5 1_555 1_555
C10 C11 1_555 1_555
C16 C17 1_555 1_555
C22 C23 1_555 1_555
N3A C13A 1_555 1_555
N4A C19A 1_555 1_555
C2A C6A 1_555 1_555
C4A C5A 1_555 1_555
C10A C11A 1_555 1_555
C14A C18A 1_555 1_555
C16A C17A 1_555 1_555
C20A C24A 1_555 1_555
C22A C23A 1_555 1_555

#END
