
#######################################################################
#
#                 Cambridge Crystallographic Data Centre
#                                CCDC 
#
#######################################################################
#
# If this CIF has been generated from an entry in the Cambridge 
# Structural Database, then it will include bibliographic, chemical, 
# crystal, experimental, refinement or atomic coordinate data resulting 
# from the CCDC's data processing and validation procedures.
#
#######################################################################

data_MAXLOO
_symmetry_cell_setting           monoclinic
_symmetry_space_group_name_H-M   'C 2/c'
_symmetry_Int_Tables_number      15
_space_group_name_Hall           '-C 2yn'
loop_
_symmetry_equiv_pos_site_id
_symmetry_equiv_pos_as_xyz
1 x,y,z
2 -x,y,1/2-z
3 1/2+x,1/2+y,z
4 1/2-x,1/2+y,1/2-z
5 -x,-y,-z
6 x,-y,1/2+z
7 1/2-x,1/2-y,-z
8 1/2+x,1/2-y,1/2+z
_cell_length_a                   15.4348(7)
_cell_length_b                   20.7072(7)
_cell_length_c                   20.5941(11)
_cell_angle_alpha                90
_cell_angle_beta                 107.509(3)
_cell_angle_gamma                90
_cell_volume                     6277.16
loop_
_atom_site_label
_atom_site_type_symbol
_atom_site_fract_x
_atom_site_fract_y
_atom_site_fract_z
Dy1 Dy 0.0000 0.588783(16) 0.2500
S1 S -0.22260(13) 0.29567(9) 0.31981(9)
S2 S -0.20051(13) 0.39162(10) 0.32872(9)
N1 N -0.0493(4) 0.3442(3) 0.4184(3)
N2 N -0.2967(4) 0.3277(3) 0.4172(3)
N3 N 0.0884(4) 0.4829(3) 0.2913(3)
N4 N -0.0451(4) 0.6958(2) 0.2976(3)
O1 O -0.1736(4) 0.5261(3) 0.3593(4)
O3 O -0.0467(3) 0.5572(2) 0.3395(3)
O5 O -0.3658(3) 0.1203(2) 0.3227(3)
O7 O -0.2342(4) 0.1632(3) 0.3197(4)
C1 C -0.0883(5) 0.3975(4) 0.3880(4)
C2 C -0.0466(5) 0.4594(3) 0.3972(3)
C3 C 0.0405(5) 0.4617(4) 0.4404(4)
H16 H 0.0726 0.5004 0.4473
C4 C 0.0807(7) 0.4055(4) 0.4740(5)
H17 H 0.1390 0.4068 0.5045
C5 C 0.0344(6) 0.3502(4) 0.4618(4)
H18 H 0.0621 0.3135 0.4849
C6 C -0.0926(5) 0.5170(3) 0.3626(4)
C7 C -0.2836(4) 0.2801(3) 0.3809(3)
C8 C -0.3183(5) 0.2178(3) 0.3832(3)
C9 C -0.3680(5) 0.2082(4) 0.4274(4)
H19 H -0.3947 0.1682 0.4291
C10 C -0.3782(6) 0.2547(5) 0.4672(4)
H20 H -0.4096 0.2480 0.4988
C11 C -0.3402(5) 0.3149(4) 0.4608(4)
H21 H -0.3465 0.3479 0.4897
C12 C -0.3040(6) 0.1632(4) 0.3402(5)
C13 C 0.0453(5) 0.4250(3) 0.2727(4)
C14 C 0.0883(7) 0.3659(4) 0.2971(5)
C15 C 0.1773(7) 0.3684(5) 0.3423(5)
H22 H 0.2078 0.3306 0.3600
C16 C 0.2166(7) 0.4246(5) 0.3593(6)
H23 H 0.2750 0.4266 0.3896
C17 C 0.1716(5) 0.4819(4) 0.3321(5)
H24 H 0.2023 0.5209 0.3436
C18 C 0.0377(7) 0.3061(4) 0.2700(7)
H25 H 0.0653 0.2666 0.2846
C19 C -0.0236(4) 0.7527(3) 0.2753(3)
C20 C -0.0434(5) 0.8119(3) 0.3000(4)
C21 C -0.0880(6) 0.8114(4) 0.3475(4)
H26 H -0.1016 0.8502 0.3650
C22 C -0.1144(6) 0.7517(4) 0.3707(4)
H27 H -0.1463 0.7505 0.4025
C23 C -0.0901(5) 0.6956(4) 0.3438(4)
H28 H -0.1058 0.6561 0.3586
C24 C -0.0207(8) 0.8709(4) 0.2731(5)
H29 H -0.0358 0.9100 0.2891
Dy1B Dy -0.5000 0.088783(16) 0.2500
Dy1B_2 Dy 0.5000 0.088783(16) 0.2500
S1A S 0.22260(13) 0.29567(9) 0.18019(9)
S2A S 0.20051(13) 0.39162(10) 0.17128(9)
N1A N 0.0493(4) 0.3442(3) 0.0816(3)
N2A N 0.2967(4) 0.3277(3) 0.0828(3)
N3A N -0.0884(4) 0.4829(3) 0.2087(3)
N4A N 0.0451(4) 0.6958(2) 0.2024(3)
O1A O 0.1736(4) 0.5261(3) 0.1407(4)
O3A O 0.0467(3) 0.5572(2) 0.1605(3)
O5A O 0.3658(3) 0.1203(2) 0.1773(3)
O5B O 0.1342(3) 0.6203(2) 0.3227(3)
O5C O -0.1342(3) 0.6203(2) 0.1773(3)
O7A O 0.2342(4) 0.1632(3) 0.1803(4)
C1A C 0.0883(5) 0.3975(4) 0.1120(4)
C2A C 0.0466(5) 0.4594(3) 0.1028(3)
C3A C -0.0405(5) 0.4617(4) 0.0596(4)
H16A H -0.0726 0.5004 0.0527
C4A C -0.0807(7) 0.4055(4) 0.0260(5)
H17A H -0.1390 0.4068 -0.0045
C5A C -0.0344(6) 0.3502(4) 0.0382(4)
H18A H -0.0621 0.3135 0.0151
C6A C 0.0926(5) 0.5170(3) 0.1374(4)
C7A C 0.2836(4) 0.2801(3) 0.1191(3)
C8A C 0.3183(5) 0.2178(3) 0.1168(3)
C9A C 0.3680(5) 0.2082(4) 0.0726(4)
H19A H 0.3947 0.1682 0.0709
C10A C 0.3782(6) 0.2547(5) 0.0328(4)
H20A H 0.4096 0.2480 0.0012
C11A C 0.3402(5) 0.3149(4) 0.0392(4)
H21A H 0.3465 0.3479 0.0103
C12A C 0.3040(6) 0.1632(4) 0.1598(5)
C13A C -0.0453(5) 0.4250(3) 0.2273(4)
C14A C -0.0883(7) 0.3659(4) 0.2029(5)
C15A C -0.1773(7) 0.3684(5) 0.1577(5)
H22A H -0.2078 0.3306 0.1400
C16A C -0.2166(7) 0.4246(5) 0.1407(6)
H23A H -0.2750 0.4266 0.1104
C17A C -0.1716(5) 0.4819(4) 0.1679(5)
H24A H -0.2023 0.5209 0.1564
C18A C -0.0377(7) 0.3061(4) 0.2300(7)
H25A H -0.0653 0.2666 0.2154
C19A C 0.0236(4) 0.7527(3) 0.2247(3)
C20A C 0.0434(5) 0.8119(3) 0.2000(4)
C21A C 0.0880(6) 0.8114(4) 0.1525(4)
H26A H 0.1016 0.8502 0.1350
C22A C 0.1144(6) 0.7517(4) 0.1293(4)
H27A H 0.1463 0.7505 0.0975
C23A C 0.0901(5) 0.6956(4) 0.1562(4)
H28A H 0.1058 0.6561 0.1414
C24A C 0.0207(8) 0.8709(4) 0.2269(5)
H29A H 0.0358 0.9100 0.2109
O2 O 0.4607(7) 0.2996(5) -0.1143(5)
H1 H 0.5013 0.2983 -0.0758
H2 H 0.4225 0.3265 -0.1079
H3 H 0.4327 0.2644 -0.1278
O4 O -0.2450(8) 0.5384(5) -0.0408(5)
H4 H -0.2061 0.5157 -0.0515
H5 H -0.2886 0.5384 -0.0782
O6 O 0.1875(16) 0.0929(9) 0.2798(11)
H6 H 0.1663 0.0842 0.3124
H7 H 0.2243 0.1244 0.2849
O8 O 0.6146(19) 0.3489(14) -0.0133(10)
H8 H 0.6617 0.3486 0.0216
H9 H 0.6005 0.3856 -0.0315
O9 O -0.3894(14) 0.4812(14) -0.0108(13)
H10 H -0.4353 0.4741 -0.0456
H11 H -0.3634 0.5165 -0.0135
O11 O -0.422(3) 0.513(3) 0.085(3)
H14 H -0.3873 0.5153 0.0603
H15 H -0.4454 0.4757 0.0797
O10? O 0.732(3) 0.283(3) -0.0274(15)
H12? H 0.7794 0.2878 0.0063
H13? H 0.7051 0.3107 -0.0578
loop_
_geom_bond_atom_site_label_1
_geom_bond_atom_site_label_2
_geom_bond_site_symmetry_1
_geom_bond_site_symmetry_2
Dy1 N3 1_555 1_555
S1 S2 1_555 1_555
S2 C1 1_555 1_555
N1 C1 1_555 1_555
N2 C7 1_555 1_555
N3 C13 1_555 1_555
N4 Dy1 1_555 1_555
O1 C6 1_555 1_555
O2 H1 1_555 1_555
H2 O2 1_555 1_555
H3 O2 1_555 1_555
O3 Dy1 1_555 1_555
O4 H4 1_555 1_555
H5 O4 1_555 1_555
O5 C12 1_555 1_555
O6 H6 1_555 1_555
H7 O6 1_555 1_555
O7 C12 1_555 1_555
O8 H8 1_555 1_555
H9 O8 1_555 1_555
O9 H10 1_555 1_555
H11 O9 1_555 1_555
O11 H14 1_555 1_555
H15 O11 1_555 1_555
C1 C2 1_555 1_555
C2 C3 1_555 1_555
C3 H16 1_555 1_555
C4 C3 1_555 1_555
H17 C4 1_555 1_555
C5 N1 1_555 1_555
H18 C5 1_555 1_555
C6 O3 1_555 1_555
C7 S1 1_555 1_555
C8 C7 1_555 1_555
C9 C8 1_555 1_555
H19 C9 1_555 1_555
C10 C9 1_555 1_555
H20 C10 1_555 1_555
C11 N2 1_555 1_555
H21 C11 1_555 1_555
C12 C8 1_555 1_555
C13 C14 1_555 1_555
C14 C15 1_555 1_555
C15 H22 1_555 1_555
C16 C15 1_555 1_555
H23 C16 1_555 1_555
C17 N3 1_555 1_555
H24 C17 1_555 1_555
C18 C14 1_555 1_555
H25 C18 1_555 1_555
C19 N4 1_555 1_555
C20 C19 1_555 1_555
C21 C20 1_555 1_555
H26 C21 1_555 1_555
C22 C21 1_555 1_555
H27 C22 1_555 1_555
C23 N4 1_555 1_555
H28 C23 1_555 1_555
C24 C20 1_555 1_555
H29 C24 1_555 1_555
Dy1B O5 1_555 1_555
Dy1B_2 O5A 1_555 1_555
S1A S2A 1_555 1_555
S2A C1A 1_555 1_555
N1A C1A 1_555 1_555
N2A C7A 1_555 1_555
N3A Dy1 1_555 1_555
N4A Dy1 1_555 1_555
O1A C6A 1_555 1_555
O3A Dy1 1_555 1_555
O5A C12A 1_555 1_555
O5B Dy1 1_555 1_555
O5C Dy1 1_555 1_555
O7A C12A 1_555 1_555
C1A C2A 1_555 1_555
C2A C3A 1_555 1_555
C3A H16A 1_555 1_555
C4A C3A 1_555 1_555
H17A C4A 1_555 1_555
C5A N1A 1_555 1_555
H18A C5A 1_555 1_555
C6A O3A 1_555 1_555
C7A S1A 1_555 1_555
C8A C7A 1_555 1_555
C9A C8A 1_555 1_555
H19A C9A 1_555 1_555
C10A C9A 1_555 1_555
H20A C10A 1_555 1_555
C11A N2A 1_555 1_555
H21A C11A 1_555 1_555
C12A C8A 1_555 1_555
C13A C13 1_555 1_555
C14A C13A 1_555 1_555
C15A C14A 1_555 1_555
H22A C15A 1_555 1_555
C16A C15A 1_555 1_555
H23A C16A 1_555 1_555
C17A N3A 1_555 1_555
H24A C17A 1_555 1_555
C18A C18 1_555 1_555
H25A C18A 1_555 1_555
C19A C19 1_555 1_555
C20A C19A 1_555 1_555
C21A C20A 1_555 1_555
H26A C21A 1_555 1_555
C22A C21A 1_555 1_555
H27A C22A 1_555 1_555
C23A N4A 1_555 1_555
H28A C23A 1_555 1_555
C24A C24 1_555 1_555
H29A C24A 1_555 1_555
C2 C6 1_555 1_555
C4 C5 1_555 1_555
C10 C11 1_555 1_555
C16 C17 1_555 1_555
C22 C23 1_555 1_555
N3A C13A 1_555 1_555
N4A C19A 1_555 1_555
C2A C6A 1_555 1_555
C4A C5A 1_555 1_555
C10A C11A 1_555 1_555
C14A C18A 1_555 1_555
C16A C17A 1_555 1_555
C20A C24A 1_555 1_555
C22A C23A 1_555 1_555

#END
