
#######################################################################
#
#                 Cambridge Crystallographic Data Centre
#                                CCDC 
#
#######################################################################
#
# If this CIF has been generated from an entry in the Cambridge 
# Structural Database, then it will include bibliographic, chemical, 
# crystal, experimental, refinement or atomic coordinate data resulting 
# from the CCDC's data processing and validation procedures.
#
#######################################################################

data_MAXLAY
_symmetry_cell_setting           monoclinic
_symmetry_space_group_name_H-M   'P 21/n'
_symmetry_Int_Tables_number      14
_space_group_name_Hall           '-P 2yn'
loop_
_symmetry_equiv_pos_site_id
_symmetry_equiv_pos_as_xyz
1 x,y,z
2 1/2+x,1/2-y,1/2+z
3 -x,-y,-z
4 1/2-x,1/2+y,1/2-z
_cell_length_a                   10.282(1)
_cell_length_b                   9.793(1)
_cell_length_c                   12.188(1)
_cell_angle_alpha                90
_cell_angle_beta                 105.482(2)
_cell_angle_gamma                90
_cell_volume                     1182.7
loop_
_atom_site_label
_atom_site_type_symbol
_atom_site_fract_x
_atom_site_fract_y
_atom_site_fract_z
I1 I 0.53661(5) 0.36098(4) 0.36059(4)
Cu1 Cu 0.45620(7) 0.39725(7) 0.54204(6)
S1 S 0.23106(13) 0.33504(13) 0.53523(11)
N1 N 0.5110(5) 0.2312(5) 0.6501(4)
C1 C -0.0337(5) 0.1321(5) 0.4639(4)
H1 H -0.0566 0.2212 0.4401
C2 C 0.0985(5) 0.0864(5) 0.4781(4)
C3 C 0.2037(6) 0.1787(5) 0.4523(4)
H2 H 0.1764 0.2021 0.3720
H3 H 0.2883 0.1292 0.4666
C4 C 0.2880(5) 0.2647(6) 0.6771(4)
H4 H 0.3023 0.3390 0.7317
H5 H 0.2174 0.2068 0.6909
C5 C 0.1310(5) -0.0454(5) 0.5149(4)
H6 H 0.2190 -0.0765 0.5257
C6 C 0.4153(6) 0.1830(5) 0.6975(4)
C7 C 0.6275(7) 0.1606(8) 0.6694(6)
H7 H 0.6947 0.1913 0.6373
C8 C 0.4335(8) 0.0660(6) 0.7643(5)
H8 H 0.3652 0.0358 0.7954
C9 C 0.6501(9) 0.0425(9) 0.7363(7)
H9 H 0.7316 -0.0039 0.7483
C10 C 0.5531(10) -0.0051(8) 0.7843(7)
H10 H 0.5674 -0.0833 0.8292
C5B C -0.1310(5) 0.0454(5) 0.4851(4)
C2B C -0.0985(5) -0.0864(5) 0.5219(4)
C1B C 0.0337(5) -0.1321(5) 0.5361(4)
H1B H 0.0566 -0.2212 0.5599
C3B C -0.2037(6) -0.1787(5) 0.5477(4)
S1B S -0.23106(13) -0.33504(13) 0.46477(11)
C4B C -0.2880(5) -0.2647(6) 0.3229(4)
H4B H -0.3023 -0.3390 0.2683
H5B H -0.2174 -0.2068 0.3091
C6B C -0.4153(6) -0.1830(5) 0.3025(4)
N1B N -0.5110(5) -0.2312(5) 0.3499(4)
C7B C -0.6275(7) -0.1606(8) 0.3306(6)
H7B H -0.6947 -0.1913 0.3627
C9B C -0.6501(9) -0.0425(9) 0.2637(7)
H9B H -0.7316 0.0039 0.2517
C10B C -0.5531(10) 0.0051(8) 0.2157(7)
C8B C -0.4335(8) -0.0660(6) 0.2357(5)
H8B H -0.3652 -0.0358 0.2046
H10B H -0.5674 0.0833 0.1708
H2B H -0.1764 -0.2021 0.6280
H3B H -0.2883 -0.1292 0.5334
H6B H -0.2190 0.0765 0.4743
I1B I 0.46339(5) 0.63902(4) 0.63941(4)
Cu1B Cu 0.54380(7) 0.60275(7) 0.45796(6)
Cu1B_2 Cu -0.45620(7) -0.39725(7) 0.45796(6)
S1B_2 S 0.76894(13) 0.66496(13) 0.46477(11)
N1B_2 N 0.4890(5) 0.7688(5) 0.3499(4)
loop_
_geom_bond_atom_site_label_1
_geom_bond_atom_site_label_2
_geom_bond_site_symmetry_1
_geom_bond_site_symmetry_2
I1 Cu1 1_555 1_555
Cu1 S1 1_555 1_555
S1 C3 1_555 1_555
N1 Cu1 1_555 1_555
C1 H1 1_555 1_555
C2 C1 1_555 1_555
C3 C2 1_555 1_555
H2 C3 1_555 1_555
H3 C3 1_555 1_555
C4 S1 1_555 1_555
H4 C4 1_555 1_555
H5 C4 1_555 1_555
C5 C2 1_555 1_555
H6 C5 1_555 1_555
C6 N1 1_555 1_555
C7 N1 1_555 1_555
H7 C7 1_555 1_555
C8 C6 1_555 1_555
H8 C8 1_555 1_555
C9 C7 1_555 1_555
H9 C9 1_555 1_555
C10 C8 1_555 1_555
H10 C10 1_555 1_555
C5B C1 1_555 1_555
C2B C5B 1_555 1_555
C1B C5 1_555 1_555
H1B C1B 1_555 1_555
C3B C2B 1_555 1_555
S1B C3B 1_555 1_555
C4B S1B 1_555 1_555
H4B C4B 1_555 1_555
H5B C4B 1_555 1_555
C6B C4B 1_555 1_555
N1B C6B 1_555 1_555
C7B N1B 1_555 1_555
H7B C7B 1_555 1_555
C9B C7B 1_555 1_555
H9B C9B 1_555 1_555
C10B C9B 1_555 1_555
C8B C6B 1_555 1_555
H8B C8B 1_555 1_555
H10B C10B 1_555 1_555
H2B C3B 1_555 1_555
H3B C3B 1_555 1_555
H6B C5B 1_555 1_555
I1B Cu1 1_555 1_555
Cu1B I1 1_555 1_555
Cu1B_2 S1B 1_555 1_555
S1B_2 Cu1B 1_555 1_555
N1B_2 Cu1B 1_555 1_555
C4 C6 1_555 1_555
C9 C10 1_555 1_555
C2B C1B 1_555 1_555
N1B Cu1B_2 1_555 1_555
C10B C8B 1_555 1_555
I1B Cu1B 1_555 1_555

#END
