
#######################################################################
#
#                 Cambridge Crystallographic Data Centre
#                                CCDC 
#
#######################################################################
#
# If this CIF has been generated from an entry in the Cambridge 
# Structural Database, then it will include bibliographic, chemical, 
# crystal, experimental, refinement or atomic coordinate data resulting 
# from the CCDC's data processing and validation procedures.
#
#######################################################################

data_MAXMAB
_symmetry_cell_setting           monoclinic
_symmetry_space_group_name_H-M   'C 2/c'
_symmetry_Int_Tables_number      15
_space_group_name_Hall           '-C 2yn'
loop_
_symmetry_equiv_pos_site_id
_symmetry_equiv_pos_as_xyz
1 x,y,z
2 -x,y,1/2-z
3 1/2+x,1/2+y,z
4 1/2-x,1/2+y,1/2-z
5 -x,-y,-z
6 x,-y,1/2+z
7 1/2-x,1/2-y,-z
8 1/2+x,1/2-y,1/2+z
_cell_length_a                   15.4639(6)
_cell_length_b                   20.7895(6)
_cell_length_c                   20.5303(7)
_cell_angle_alpha                90
_cell_angle_beta                 107.544(3)
_cell_angle_gamma                90
_cell_volume                     6293.22
loop_
_atom_site_label
_atom_site_type_symbol
_atom_site_fract_x
_atom_site_fract_y
_atom_site_fract_z
Tb1 Tb 0.0000 0.58849(3) 0.2500
S1 S -0.2222(2) 0.29545(16) 0.32072(18)
S2 S -0.2010(2) 0.39137(17) 0.32887(19)
N1 N -0.0490(8) 0.3446(5) 0.4196(6)
N2 N -0.2980(8) 0.3280(6) 0.4173(6)
N3 N 0.0870(7) 0.4822(5) 0.2897(6)
N4 N -0.0467(6) 0.6957(4) 0.2987(5)
O1 O -0.1737(8) 0.5248(5) 0.3590(7)
O3 O -0.0486(7) 0.5575(4) 0.3402(5)
O5 O -0.3644(6) 0.1196(4) 0.3247(6)
O7 O -0.2354(8) 0.1647(5) 0.3181(8)
C1 C -0.0887(9) 0.3981(6) 0.3893(7)
C2 C -0.0479(8) 0.4593(6) 0.3974(6)
C3 C 0.0409(9) 0.4608(6) 0.4411(7)
H16 H 0.0733 0.4992 0.4474
C4 C 0.0811(11) 0.4063(7) 0.4748(8)
H17 H 0.1393 0.4080 0.5054
C5 C 0.0354(11) 0.3505(7) 0.4629(8)
H18 H 0.0635 0.3140 0.4859
C6 C -0.0929(9) 0.5172(6) 0.3617(8)
C7 C -0.2828(8) 0.2799(6) 0.3817(7)
C8 C -0.3194(9) 0.2179(6) 0.3855(7)
C9 C -0.3669(9) 0.2080(7) 0.4288(8)
H19 H -0.3919 0.1677 0.4311
C10 C -0.3794(11) 0.2565(11) 0.4700(8)
H20 H -0.4111 0.2509 0.5015
C11 C -0.3411(9) 0.3145(8) 0.4608(8)
H21 H -0.3468 0.3479 0.4894
C12 C -0.3055(9) 0.1614(6) 0.3417(9)
C13 C 0.0458(10) 0.4251(6) 0.2735(8)
C14 C 0.0873(13) 0.3663(6) 0.2964(9)
C15 C 0.1799(12) 0.3703(7) 0.3463(9)
H22 H 0.2092 0.3332 0.3672
C16 C 0.2188(11) 0.4251(8) 0.3602(11)
H23 H 0.2788 0.4271 0.3875
C17 C 0.1713(9) 0.4832(7) 0.3345(8)
H24 H 0.1992 0.5225 0.3489
C18 C 0.0361(12) 0.3066(7) 0.2695(12)
H25 H 0.0632 0.2672 0.2847
C19 C -0.0240(7) 0.7532(5) 0.2743(6)
C20 C -0.0426(9) 0.8127(5) 0.2994(7)
C21 C -0.0891(11) 0.8097(7) 0.3456(8)
H26 H -0.1051 0.8482 0.3619
C22 C -0.1146(10) 0.7518(8) 0.3705(9)
H27 H -0.1462 0.7511 0.4025
C23 C -0.0894(9) 0.6962(7) 0.3440(8)
H28 H -0.1039 0.6569 0.3597
C24 C -0.0174(14) 0.8712(5) 0.2737(8)
H29 H -0.0271 0.9101 0.2927
Tb1B Tb -0.5000 0.08849(3) 0.2500
Tb1B_2 Tb 0.5000 0.08849(3) 0.2500
S1A S 0.2222(2) 0.29545(16) 0.17928(18)
S2A S 0.2010(2) 0.39137(17) 0.17113(19)
N1A N 0.0490(8) 0.3446(5) 0.0804(6)
N2A N 0.2980(8) 0.3280(6) 0.0827(6)
N3A N -0.0870(7) 0.4822(5) 0.2103(6)
N4A N 0.0467(6) 0.6957(4) 0.2013(5)
O1A O 0.1737(8) 0.5248(5) 0.1410(7)
O3A O 0.0486(7) 0.5575(4) 0.1598(5)
O5A O 0.3644(6) 0.1196(4) 0.1753(6)
O5B O 0.1356(6) 0.6196(4) 0.3247(6)
O5C O -0.1356(6) 0.6196(4) 0.1753(6)
O7A O 0.2354(8) 0.1647(5) 0.1819(8)
C1A C 0.0887(9) 0.3981(6) 0.1107(7)
C2A C 0.0479(8) 0.4593(6) 0.1026(6)
C3A C -0.0409(9) 0.4608(6) 0.0589(7)
H16A H -0.0733 0.4992 0.0526
C4A C -0.0811(11) 0.4063(7) 0.0252(8)
H17A H -0.1393 0.4080 -0.0054
C5A C -0.0354(11) 0.3505(7) 0.0371(8)
H18A H -0.0635 0.3140 0.0141
C6A C 0.0929(9) 0.5172(6) 0.1383(8)
C7A C 0.2828(8) 0.2799(6) 0.1183(7)
C8A C 0.3194(9) 0.2179(6) 0.1145(7)
C9A C 0.3669(9) 0.2080(7) 0.0712(8)
H19A H 0.3919 0.1677 0.0689
C10A C 0.3794(11) 0.2565(11) 0.0300(8)
H20A H 0.4111 0.2509 -0.0015
C11A C 0.3411(9) 0.3145(8) 0.0392(8)
H21A H 0.3468 0.3479 0.0106
C12A C 0.3055(9) 0.1614(6) 0.1583(9)
C13A C -0.0458(10) 0.4251(6) 0.2265(8)
C14A C -0.0873(13) 0.3663(6) 0.2036(9)
C15A C -0.1799(12) 0.3703(7) 0.1537(9)
H22A H -0.2092 0.3332 0.1328
C16A C -0.2188(11) 0.4251(8) 0.1398(11)
H23A H -0.2788 0.4271 0.1125
C17A C -0.1713(9) 0.4832(7) 0.1655(8)
H24A H -0.1992 0.5225 0.1511
C18A C -0.0361(12) 0.3066(7) 0.2305(12)
H25A H -0.0632 0.2672 0.2153
C19A C 0.0240(7) 0.7532(5) 0.2257(6)
C20A C 0.0426(9) 0.8127(5) 0.2006(7)
C21A C 0.0891(11) 0.8097(7) 0.1544(8)
H26A H 0.1051 0.8482 0.1381
C22A C 0.1146(10) 0.7518(8) 0.1295(9)
H27A H 0.1462 0.7511 0.0975
C23A C 0.0894(9) 0.6962(7) 0.1560(8)
H28A H 0.1039 0.6569 0.1403
C24A C 0.0174(14) 0.8712(5) 0.2263(8)
H29A H 0.0271 0.9101 0.2073
O2 O 0.4609(13) 0.3005(9) -0.1119(11)
H1 H 0.5012 0.2971 -0.0730
H2 H 0.4235 0.3259 -0.1029
H3 H 0.4356 0.2642 -0.1226
O4 O -0.2438(13) 0.5375(9) -0.0401(9)
H4 H -0.2049 0.5147 -0.0508
H5 H -0.2874 0.5375 -0.0775
O6 O 0.1885(18) 0.0947(16) 0.276(2)
H6 H 0.1889 0.0644 0.2483
H7 H 0.1653 0.1240 0.2935
O8 O 0.632(6) 0.344(3) -0.018(2)
H8 H 0.6792 0.3442 0.0165
H9 H 0.6180 0.3812 -0.0366
O9 O -0.391(3) 0.479(3) -0.009(3)
H10 H -0.4365 0.4716 -0.0437
H11 H -0.3646 0.5141 -0.0115
O11 O -0.407(4) 0.512(5) 0.078(4)
H14 H -0.3766 0.5177 0.1193
H15 H -0.4302 0.4747 0.0722
O10? O 0.720(3) 0.282(2) -0.021(2)
H12? H 0.7681 0.2869 0.0124
H13? H 0.6938 0.3098 -0.0517
loop_
_geom_bond_atom_site_label_1
_geom_bond_atom_site_label_2
_geom_bond_site_symmetry_1
_geom_bond_site_symmetry_2
Tb1 N3 1_555 1_555
S1 S2 1_555 1_555
S2 C1 1_555 1_555
N1 C1 1_555 1_555
N2 C7 1_555 1_555
N3 C13 1_555 1_555
N4 Tb1 1_555 1_555
O1 C6 1_555 1_555
O2 H1 1_555 1_555
H2 O2 1_555 1_555
H3 O2 1_555 1_555
O3 Tb1 1_555 1_555
O4 H4 1_555 1_555
H5 O4 1_555 1_555
O5 C12 1_555 1_555
O6 H6 1_555 1_555
H7 O6 1_555 1_555
O7 C12 1_555 1_555
O8 H8 1_555 1_555
H9 O8 1_555 1_555
O9 H10 1_555 1_555
H11 O9 1_555 1_555
O11 H14 1_555 1_555
H15 O11 1_555 1_555
C1 C2 1_555 1_555
C2 C3 1_555 1_555
C3 H16 1_555 1_555
C4 C3 1_555 1_555
H17 C4 1_555 1_555
C5 N1 1_555 1_555
H18 C5 1_555 1_555
C6 O3 1_555 1_555
C7 S1 1_555 1_555
C8 C7 1_555 1_555
C9 C8 1_555 1_555
H19 C9 1_555 1_555
C10 C9 1_555 1_555
H20 C10 1_555 1_555
C11 N2 1_555 1_555
H21 C11 1_555 1_555
C12 C8 1_555 1_555
C13 C14 1_555 1_555
C14 C15 1_555 1_555
C15 H22 1_555 1_555
C16 C15 1_555 1_555
H23 C16 1_555 1_555
C17 N3 1_555 1_555
H24 C17 1_555 1_555
C18 C14 1_555 1_555
H25 C18 1_555 1_555
C19 N4 1_555 1_555
C20 C19 1_555 1_555
C21 C20 1_555 1_555
H26 C21 1_555 1_555
C22 C21 1_555 1_555
H27 C22 1_555 1_555
C23 N4 1_555 1_555
H28 C23 1_555 1_555
C24 C20 1_555 1_555
H29 C24 1_555 1_555
Tb1B O5 1_555 1_555
Tb1B_2 O5A 1_555 1_555
S1A S2A 1_555 1_555
S2A C1A 1_555 1_555
N1A C1A 1_555 1_555
N2A C7A 1_555 1_555
N3A Tb1 1_555 1_555
N4A Tb1 1_555 1_555
O1A C6A 1_555 1_555
O3A Tb1 1_555 1_555
O5A C12A 1_555 1_555
O5B Tb1 1_555 1_555
O5C Tb1 1_555 1_555
O7A C12A 1_555 1_555
C1A C2A 1_555 1_555
C2A C3A 1_555 1_555
C3A H16A 1_555 1_555
C4A C3A 1_555 1_555
H17A C4A 1_555 1_555
C5A N1A 1_555 1_555
H18A C5A 1_555 1_555
C6A O3A 1_555 1_555
C7A S1A 1_555 1_555
C8A C7A 1_555 1_555
C9A C8A 1_555 1_555
H19A C9A 1_555 1_555
C10A C9A 1_555 1_555
H20A C10A 1_555 1_555
C11A N2A 1_555 1_555
H21A C11A 1_555 1_555
C12A C8A 1_555 1_555
C13A C13 1_555 1_555
C14A C13A 1_555 1_555
C15A C14A 1_555 1_555
H22A C15A 1_555 1_555
C16A C15A 1_555 1_555
H23A C16A 1_555 1_555
C17A N3A 1_555 1_555
H24A C17A 1_555 1_555
C18A C18 1_555 1_555
H25A C18A 1_555 1_555
C19A C19 1_555 1_555
C20A C19A 1_555 1_555
C21A C20A 1_555 1_555
H26A C21A 1_555 1_555
C22A C21A 1_555 1_555
H27A C22A 1_555 1_555
C23A N4A 1_555 1_555
H28A C23A 1_555 1_555
C24A C24 1_555 1_555
H29A C24A 1_555 1_555
C2 C6 1_555 1_555
C4 C5 1_555 1_555
C10 C11 1_555 1_555
C16 C17 1_555 1_555
C22 C23 1_555 1_555
N3A C13A 1_555 1_555
N4A C19A 1_555 1_555
C2A C6A 1_555 1_555
C4A C5A 1_555 1_555
C10A C11A 1_555 1_555
C14A C18A 1_555 1_555
C16A C17A 1_555 1_555
C20A C24A 1_555 1_555
C22A C23A 1_555 1_555

#END
