
#######################################################################
#
#                 Cambridge Crystallographic Data Centre
#                                CCDC 
#
#######################################################################
#
# If this CIF has been generated from an entry in the Cambridge 
# Structural Database, then it will include bibliographic, chemical, 
# crystal, experimental, refinement or atomic coordinate data resulting 
# from the CCDC's data processing and validation procedures.
#
#######################################################################

data_MAXTUC
_symmetry_cell_setting           monoclinic
_symmetry_space_group_name_H-M   'P 21/c'
_symmetry_Int_Tables_number      14
_space_group_name_Hall           '-P 2ybc'
loop_
_symmetry_equiv_pos_site_id
_symmetry_equiv_pos_as_xyz
1 x,y,z
2 -x,1/2+y,1/2-z
3 -x,-y,-z
4 x,1/2-y,1/2+z
_cell_length_a                   9.7090(19)
_cell_length_b                   11.915(2)
_cell_length_c                   21.337(4)
_cell_angle_alpha                90
_cell_angle_beta                 95.54(3)
_cell_angle_gamma                90
_cell_volume                     2456.79
loop_
_atom_site_label
_atom_site_type_symbol
_atom_site_fract_x
_atom_site_fract_y
_atom_site_fract_z
Tb1 Tb 0.264477(12) 0.975725(12) 0.504187(5)
O1 O 0.39181(17) 0.88512(17) 0.59091(8)
C1 C 0.5211(2) 0.8947(2) 0.60007(11)
O2 O 0.59323(18) 0.93822(18) 0.56029(8)
C2 C 0.5914(2) 0.8549(2) 0.66193(11)
O3 O 0.52283(19) 0.69610(19) 0.80436(8)
C3 C 0.5174(3) 0.7920(3) 0.70274(12)
H1 H 0.4236 0.7723 0.6912
O4 O 0.10229(17) 0.94622(17) 0.41637(8)
C4 C 0.5831(3) 0.7587(3) 0.76036(12)
O5 O -0.09919(17) 1.02956(17) 0.42718(8)
C5 C 0.7203(3) 0.7874(3) 0.77708(12)
H2 H 0.7647 0.7642 0.8166
O6 O 0.0808(2) 0.8200(2) 0.19662(9)
C6 C 0.7923(3) 0.8493(3) 0.73672(13)
H3 H 0.8859 0.8693 0.7487
O7 O 0.18449(18) 0.77975(17) 0.50574(8)
C7 C 0.7293(3) 0.8826(3) 0.67869(12)
H4 H 0.7799 0.9241 0.6505
O8 O 0.36765(17) 0.81605(17) 0.45499(8)
C8 C 0.3803(3) 0.6662(3) 0.79077(14)
H5 H 0.3248 0.7344 0.7829
H6 H 0.3487 0.6258 0.8267
H7 H 0.3698 0.6181 0.7534
O9 O 0.1880(2) 0.35790(19) 0.53692(10)
C9 C -0.0163(3) 0.9787(2) 0.39513(12)
O10 O 0.37115(19) 1.12833(18) 0.56927(9)
C10 C -0.0584(3) 0.9616(2) 0.32648(12)
O11 O 0.13405(19) 1.14885(18) 0.48347(9)
C11 C 0.0242(3) 0.8978(3) 0.29115(12)
H8 H 0.1048 0.8630 0.3111
C12 C -0.0088(3) 0.8838(3) 0.22686(12)
C13 C -0.1278(3) 0.9347(3) 0.19789(13)
H9 H -0.1516 0.9263 0.1539
C14 C -0.2111(3) 0.9975(3) 0.23374(14)
H10 H -0.2924 1.0316 0.2139
C15 C -0.1787(3) 1.0117(3) 0.29790(13)
H11 H -0.2370 1.0546 0.3220
C16 C 0.0399(3) 0.7879(3) 0.13311(12)
H12 H -0.0468 0.7454 0.1314
H13 H 0.1121 0.7411 0.1175
H14 H 0.0262 0.8552 0.1069
C17 C 0.2839(3) 0.7457(3) 0.47670(12)
C18 C 0.3051(3) 0.6230(3) 0.46901(12)
C19 C 0.2348(3) 0.5497(3) 0.50629(12)
H15 H 0.1749 0.5788 0.5350
C20 C 0.2527(3) 0.4356(3) 0.50135(13)
C21 C 0.3391(3) 0.3920(3) 0.45933(14)
H16 H 0.3506 0.3131 0.4559
C22 C 0.4083(3) 0.4640(3) 0.42259(14)
H17 H 0.4673 0.4341 0.3937
C23 C 0.3930(3) 0.5802(3) 0.42707(12)
H18 H 0.4418 0.6291 0.4019
C24 C 0.0976(3) 0.3985(3) 0.58052(14)
H19 H 0.1500 0.4450 0.6124
H20 H 0.0564 0.3349 0.6011
H21 H 0.0241 0.4436 0.5581
H22 H 0.451(2) 1.151(3) 0.5595(15)
H23 H 0.154(3) 1.2136(19) 0.4999(15)
H24 H 0.381(3) 1.135(3) 0.6087(8)
H25 H 0.0487(18) 1.149(3) 0.4807(14)
Tb1B Tb 0.735523(12) 1.024275(12) 0.495813(5)
Tb1B_2 Tb -0.264477(12) 1.024275(12) 0.495813(5)
O2B O 0.40677(18) 1.06178(18) 0.43971(8)
O5B O 0.09919(17) 0.97044(17) 0.57282(8)
loop_
_geom_bond_atom_site_label_1
_geom_bond_atom_site_label_2
_geom_bond_site_symmetry_1
_geom_bond_site_symmetry_2
Tb1 O1 1_555 1_555
O1 C1 1_555 1_555
C1 O2 1_555 1_555
O2 Tb1B 1_555 1_555
C2 C1 1_555 1_555
O3 C4 1_555 1_555
C3 C2 1_555 1_555
H1 C3 1_555 1_555
O4 Tb1 1_555 1_555
C4 C3 1_555 1_555
O5 C9 1_555 1_555
C5 C4 1_555 1_555
H2 C5 1_555 1_555
O6 C12 1_555 1_555
C6 C5 1_555 1_555
H3 C6 1_555 1_555
O7 Tb1 1_555 1_555
C7 C2 1_555 1_555
H4 C7 1_555 1_555
O8 Tb1 1_555 1_555
C8 O3 1_555 1_555
H5 C8 1_555 1_555
H6 C8 1_555 1_555
H7 C8 1_555 1_555
O9 C20 1_555 1_555
C9 O4 1_555 1_555
O10 Tb1 1_555 1_555
C10 C9 1_555 1_555
O11 Tb1 1_555 1_555
C11 C10 1_555 1_555
H8 C11 1_555 1_555
C12 C11 1_555 1_555
C13 C12 1_555 1_555
H9 C13 1_555 1_555
C14 C13 1_555 1_555
H10 C14 1_555 1_555
C15 C10 1_555 1_555
H11 C15 1_555 1_555
C16 O6 1_555 1_555
H12 C16 1_555 1_555
H13 C16 1_555 1_555
H14 C16 1_555 1_555
C17 O7 1_555 1_555
C18 C17 1_555 1_555
C19 C18 1_555 1_555
H15 C19 1_555 1_555
C20 C19 1_555 1_555
C21 C20 1_555 1_555
H16 C21 1_555 1_555
C22 C21 1_555 1_555
H17 C22 1_555 1_555
C23 C18 1_555 1_555
H18 C23 1_555 1_555
C24 O9 1_555 1_555
H19 C24 1_555 1_555
H20 C24 1_555 1_555
H21 C24 1_555 1_555
H22 O10 1_555 1_555
H23 O11 1_555 1_555
H24 O10 1_555 1_555
H25 O11 1_555 1_555
Tb1B_2 O5 1_555 1_555
O2B Tb1 1_555 1_555
O5B Tb1 1_555 1_555
C6 C7 1_555 1_555
O8 C17 1_555 1_555
C14 C15 1_555 1_555
C22 C23 1_555 1_555

#END
