
#######################################################################
#
#                 Cambridge Crystallographic Data Centre
#                                CCDC 
#
#######################################################################
#
# If this CIF has been generated from an entry in the Cambridge 
# Structural Database, then it will include bibliographic, chemical, 
# crystal, experimental, refinement or atomic coordinate data resulting 
# from the CCDC's data processing and validation procedures.
#
#######################################################################

data_MAXVEO
_symmetry_cell_setting           monoclinic
_symmetry_space_group_name_H-M   'P 21/c'
_symmetry_Int_Tables_number      14
_space_group_name_Hall           '-P 2ybc'
loop_
_symmetry_equiv_pos_site_id
_symmetry_equiv_pos_as_xyz
1 x,y,z
2 -x,1/2+y,1/2-z
3 -x,-y,-z
4 x,1/2-y,1/2+z
_cell_length_a                   13.383(3)
_cell_length_b                   22.317(5)
_cell_length_c                   7.6232(15)
_cell_angle_alpha                90
_cell_angle_beta                 104.42(3)
_cell_angle_gamma                90
_cell_volume                     2205.08
loop_
_atom_site_label
_atom_site_type_symbol
_atom_site_fract_x
_atom_site_fract_y
_atom_site_fract_z
Tb1 Tb 0.62542(3) 0.770439(16) 0.13486(4)
O1 O 0.6202(3) 0.6873(2) -0.0554(5)
O2 O 0.6628(3) 0.6308(2) -0.2613(5)
O3 O 0.6111(3) 0.4290(2) 0.2941(5)
O4 O 0.6981(3) 0.79943(19) -0.1072(5)
O5 O 0.8036(3) 0.7583(2) -0.2515(5)
O6 O 1.1078(3) 0.9514(2) 0.2081(6)
O7 O 0.4763(3) 0.7302(2) 0.1780(5)
O8 O 0.4942(3) 0.6791(2) 0.4373(5)
O9 O 0.0286(4) 0.6180(2) 0.0745(5)
C1 C 0.6394(5) 0.6347(3) -0.1118(8)
C2 C 0.6339(5) 0.5808(3) -0.0044(7)
C3 C 0.6513(5) 0.5256(3) -0.0712(8)
H1 H 0.6671 0.5230 -0.1858
C4 C 0.6462(5) 0.4731(3) 0.0268(8)
H2 H 0.6594 0.4351 -0.0193
C5 C 0.6213(5) 0.4775(3) 0.1923(8)
C6 C 0.6036(5) 0.5325(3) 0.2610(8)
H3 H 0.5874 0.5350 0.3753
C7 C 0.6095(5) 0.5836(3) 0.1642(8)
H4 H 0.5968 0.6214 0.2118
C8 C 0.6311(5) 0.3709(3) 0.2311(8)
H5 H 0.5818 0.3626 0.1151
H6 H 0.6237 0.3406 0.3200
H7 H 0.7014 0.3697 0.2149
C9 C 0.7879(5) 0.7964(3) -0.1388(8)
C10 C 0.8706(5) 0.8379(3) -0.0474(8)
C11 C 0.8476(5) 0.8894(3) 0.0405(8)
H8 H 0.7780 0.8975 0.0414
C12 C 0.9239(5) 0.9284(3) 0.1252(8)
H9 H 0.9069 0.9639 0.1803
C13 C 1.0257(5) 0.9156(3) 0.1296(8)
C14 C 1.0506(5) 0.8642(3) 0.0456(8)
H10 H 1.1205 0.8552 0.0495
C15 C 0.9734(5) 0.8268(3) -0.0424(8)
H11 H 0.9905 0.7924 -0.1019
C16 C 1.0875(5) 1.0036(3) 0.3006(9)
H12 H 1.0380 1.0291 0.2166
H13 H 1.1518 1.0258 0.3471
H14 H 1.0586 0.9919 0.4017
C17 C 0.4417(5) 0.6957(3) 0.2830(9)
C18 C 0.3334(5) 0.6758(3) 0.2226(8)
C19 C 0.2619(5) 0.7069(3) 0.0875(8)
H15 H 0.2842 0.7405 0.0306
C20 C 0.1589(5) 0.6896(3) 0.0354(8)
H16 H 0.1110 0.7115 -0.0543
C21 C 0.1268(6) 0.6392(3) 0.1169(9)
C22 C 0.1982(5) 0.6075(3) 0.2448(8)
H17 H 0.1769 0.5724 0.2962
C23 C 0.2990(5) 0.6254(3) 0.2992(8)
H18 H 0.3461 0.6033 0.3901
C24 C -0.0524(5) 0.6594(3) -0.0155(9)
H19 H -0.0534 0.6940 0.0631
H20 H -0.1193 0.6390 -0.0405
H21 H -0.0388 0.6729 -0.1296
Tb1C Tb 0.62542(3) 0.729561(16) -0.36514(4)
Tb1C_2 Tb 0.62542(3) 0.729561(16) 0.63486(4)
O1C O 0.6202(3) 0.8127(2) 0.4446(5)
O2C O 0.6628(3) 0.8692(2) 0.2387(5)
O4C O 0.6981(3) 0.70057(19) 0.3928(5)
O5C O 0.8036(3) 0.7417(2) 0.2485(5)
O8C O 0.4942(3) 0.8209(2) -0.0627(5)
loop_
_geom_bond_atom_site_label_1
_geom_bond_atom_site_label_2
_geom_bond_site_symmetry_1
_geom_bond_site_symmetry_2
Tb1 O1 1_555 1_555
O1 C1 1_555 1_555
O2 C1 1_555 1_555
O3 C5 1_555 1_555
O4 Tb1 1_555 1_555
O5 C9 1_555 1_555
O6 C13 1_555 1_555
O7 Tb1 1_555 1_555
O8 C17 1_555 1_555
O9 C21 1_555 1_555
C1 C2 1_555 1_555
C2 C3 1_555 1_555
C3 H1 1_555 1_555
C4 C3 1_555 1_555
H2 C4 1_555 1_555
C5 C4 1_555 1_555
C6 C5 1_555 1_555
H3 C6 1_555 1_555
C7 C2 1_555 1_555
H4 C7 1_555 1_555
C8 O3 1_555 1_555
H5 C8 1_555 1_555
H6 C8 1_555 1_555
H7 C8 1_555 1_555
C9 O4 1_555 1_555
C10 C9 1_555 1_555
C11 C10 1_555 1_555
H8 C11 1_555 1_555
C12 C11 1_555 1_555
H9 C12 1_555 1_555
C13 C12 1_555 1_555
C14 C13 1_555 1_555
H10 C14 1_555 1_555
C15 C10 1_555 1_555
H11 C15 1_555 1_555
C16 O6 1_555 1_555
H12 C16 1_555 1_555
H13 C16 1_555 1_555
H14 C16 1_555 1_555
C17 O7 1_555 1_555
C18 C17 1_555 1_555
C19 C18 1_555 1_555
H15 C19 1_555 1_555
C20 C19 1_555 1_555
H16 C20 1_555 1_555
C21 C20 1_555 1_555
C22 C21 1_555 1_555
H17 C22 1_555 1_555
C23 C18 1_555 1_555
H18 C23 1_555 1_555
C24 O9 1_555 1_555
H19 C24 1_555 1_555
H20 C24 1_555 1_555
H21 C24 1_555 1_555
Tb1C O1 1_555 1_555
Tb1C_2 O8 1_555 1_555
O1C Tb1 1_555 1_555
O2C Tb1 1_555 1_555
O4C Tb1 1_555 1_555
O5C Tb1 1_555 1_555
O8C Tb1 1_555 1_555
O2 Tb1C 1_555 1_555
O4 Tb1C 1_555 1_555
O5 Tb1C 1_555 1_555
C6 C7 1_555 1_555
C14 C15 1_555 1_555
C22 C23 1_555 1_555
Tb1C_2 O1C 1_555 1_555
Tb1C_2 O4C 1_555 1_555

#END
