
#######################################################################
#
#                 Cambridge Crystallographic Data Centre
#                                CCDC 
#
#######################################################################
#
# If this CIF has been generated from an entry in the Cambridge 
# Structural Database, then it will include bibliographic, chemical, 
# crystal, experimental, refinement or atomic coordinate data resulting 
# from the CCDC's data processing and validation procedures.
#
#######################################################################

data_MAXWUE
_symmetry_cell_setting           triclinic
_symmetry_space_group_name_H-M   'P -1'
_symmetry_Int_Tables_number      2
_space_group_name_Hall           '-P 1'
loop_
_symmetry_equiv_pos_site_id
_symmetry_equiv_pos_as_xyz
1 x,y,z
2 -x,-y,-z
_cell_length_a                   8.9683(5)
_cell_length_b                   9.3766(5)
_cell_length_c                   13.6302(8)
_cell_angle_alpha                74.3300(10)
_cell_angle_beta                 78.6840(10)
_cell_angle_gamma                84.7840(10)
_cell_volume                     1081.27
loop_
_atom_site_label
_atom_site_type_symbol
_atom_site_fract_x
_atom_site_fract_y
_atom_site_fract_z
I1 I 0.06494(3) 0.24245(3) 0.23882(2)
I2 I 0.23040(3) -0.10936(3) 0.45918(2)
Cu1 Cu 0.33520(6) 0.38094(5) 0.11405(4)
Cu2 Cu 0.04761(6) 0.14198(6) 0.43885(4)
Cl1 Cl 0.29476(13) 0.35763(12) -0.03819(7)
N1 N 0.4887(4) 0.2071(4) 0.1464(3)
N2 N 0.4326(3) 0.4399(3) 0.2118(2)
N3 N 0.2375(4) 0.5891(4) 0.1063(3)
N4 N 0.8464(4) 0.7337(4) 0.4934(3)
C1 C 0.5029(6) 0.0851(5) 0.1124(4)
H1 H 0.4421 0.0778 0.0662
C2 C 0.6034(6) -0.0301(5) 0.1429(4)
H2 H 0.6139 -0.1119 0.1155
C3 C 0.6891(5) -0.0220(5) 0.2156(4)
H3 H 0.7560 -0.0999 0.2391
C4 C 0.6740(5) 0.1028(4) 0.2526(3)
H4 H 0.7304 0.1105 0.3012
C5 C 0.5738(4) 0.2158(4) 0.2160(3)
C6 C 0.5493(4) 0.3564(4) 0.2471(3)
C7 C 0.6367(4) 0.4054(4) 0.3038(3)
H5 H 0.7207 0.3490 0.3255
C8 C 0.5966(4) 0.5403(4) 0.3274(3)
C9 C 0.4733(4) 0.6249(4) 0.2911(3)
H6 H 0.4435 0.7145 0.3075
C10 C 0.3960(4) 0.5730(4) 0.2299(3)
C11 C 0.2764(4) 0.6565(4) 0.1732(3)
C12 C 0.2118(5) 0.7901(5) 0.1853(3)
H7 H 0.2407 0.8345 0.2316
C13 C 0.1017(6) 0.8579(5) 0.1267(4)
H8 H 0.0554 0.9484 0.1336
C14 C 0.0620(6) 0.7898(5) 0.0586(4)
H9 H -0.0109 0.8340 0.0185
C15 C 0.1316(6) 0.6552(5) 0.0503(4)
H10 H 0.1041 0.6090 0.0045
C16 C 0.6852(4) 0.6001(4) 0.3878(3)
C17 C 0.8443(4) 0.5843(4) 0.3750(3)
H11 H 0.8987 0.5286 0.3318
C18 C 0.9178(5) 0.6534(5) 0.4283(3)
H12 H 1.0234 0.6439 0.4187
C19 C 0.6947(5) 0.7425(5) 0.5071(3)
H13 H 0.6424 0.7943 0.5535
C20 C 0.6117(4) 0.6793(4) 0.4564(3)
H14 H 0.5061 0.6899 0.4683
I2A I -0.23040(3) 0.10936(3) 0.54082(2)
Cu2A Cu -0.04761(6) -0.14198(6) 0.56115(4)
Cu2A_2 Cu 0.95239(6) 0.85802(6) 0.56115(4)
N4A N 0.1536(4) 0.2663(4) 0.5066(3)
loop_
_geom_bond_atom_site_label_1
_geom_bond_atom_site_label_2
_geom_bond_site_symmetry_1
_geom_bond_site_symmetry_2
I1 Cu1 1_555 1_555
I2 Cu2 1_555 1_555
Cu1 Cl1 1_555 1_555
Cu2 I1 1_555 1_555
N1 Cu1 1_555 1_555
N2 Cu1 1_555 1_555
N3 Cu1 1_555 1_555
N4 C18 1_555 1_555
C1 N1 1_555 1_555
H1 C1 1_555 1_555
C2 C1 1_555 1_555
H2 C2 1_555 1_555
C3 C2 1_555 1_555
H3 C3 1_555 1_555
C4 C3 1_555 1_555
H4 C4 1_555 1_555
C5 N1 1_555 1_555
C6 N2 1_555 1_555
C7 C6 1_555 1_555
H5 C7 1_555 1_555
C8 C7 1_555 1_555
C9 C8 1_555 1_555
H6 C9 1_555 1_555
C10 N2 1_555 1_555
C11 N3 1_555 1_555
C12 C11 1_555 1_555
H7 C12 1_555 1_555
C13 C12 1_555 1_555
H8 C13 1_555 1_555
C14 C13 1_555 1_555
H9 C14 1_555 1_555
C15 N3 1_555 1_555
H10 C15 1_555 1_555
C16 C8 1_555 1_555
C17 C16 1_555 1_555
H11 C17 1_555 1_555
C18 C17 1_555 1_555
H12 C18 1_555 1_555
C19 N4 1_555 1_555
H13 C19 1_555 1_555
C20 C16 1_555 1_555
H14 C20 1_555 1_555
I2A Cu2 1_555 1_555
Cu2A I2 1_555 1_555
Cu2A_2 N4 1_555 1_555
N4A Cu2 1_555 1_555
C4 C5 1_555 1_555
C5 C6 1_555 1_555
C9 C10 1_555 1_555
C10 C11 1_555 1_555
C14 C15 1_555 1_555
C19 C20 1_555 1_555
I2A Cu2A 1_555 1_555

#END
