
#######################################################################
#
#                 Cambridge Crystallographic Data Centre
#                                CCDC 
#
#######################################################################
#
# If this CIF has been generated from an entry in the Cambridge 
# Structural Database, then it will include bibliographic, chemical, 
# crystal, experimental, refinement or atomic coordinate data resulting 
# from the CCDC's data processing and validation procedures.
#
#######################################################################

data_MAXXOZ
_symmetry_cell_setting           monoclinic
_symmetry_space_group_name_H-M   'P 21/n'
_symmetry_Int_Tables_number      14
_space_group_name_Hall           '-P 2yn'
loop_
_symmetry_equiv_pos_site_id
_symmetry_equiv_pos_as_xyz
1 x,y,z
2 1/2-x,1/2+y,1/2-z
3 -x,-y,-z
4 1/2+x,1/2-y,1/2+z
_cell_length_a                   11.2411(8)
_cell_length_b                   14.4222(10)
_cell_length_c                   13.7402(10)
_cell_angle_alpha                90
_cell_angle_beta                 110.5590(10)
_cell_angle_gamma                90
_cell_volume                     2085.71
loop_
_atom_site_label
_atom_site_type_symbol
_atom_site_fract_x
_atom_site_fract_y
_atom_site_fract_z
Cu1 Cu 0.47402(4) 0.09924(3) 0.34870(4)
Cu2 Cu 0.55238(5) 0.00536(4) 0.10227(4)
S1 S 0.62244(10) 0.08443(8) -0.03755(9)
Cl1 Cl 0.51180(10) 0.13670(7) 0.18532(8)
Cl2 Cl 0.26157(10) 0.10347(8) 0.28698(9)
N1 N 0.6480(3) 0.0874(2) 0.4461(2)
N2 N 0.4953(3) -0.0421(2) 0.3535(2)
C1 C 0.6417(4) -0.1645(3) 0.4240(3)
H1 H 0.7220 -0.1840 0.4665
N3 N 0.5152(3) 0.2339(2) 0.3984(2)
C2 C 0.7122(3) 0.1626(3) 0.4910(3)
C3 C 0.7007(4) 0.0029(2) 0.4651(3)
C4 C 0.8371(3) 0.1561(3) 0.5588(3)
H2 H 0.8813 0.2090 0.5902
C5 C 0.4786(4) 0.3967(3) 0.3942(4)
H3 H 0.4230 0.4462 0.3697
C6 C 0.6817(4) 0.3370(3) 0.4945(3)
H4 H 0.7648 0.3459 0.5394
C7 C 0.6367(4) 0.2487(3) 0.4616(3)
C8 C 0.4091(4) -0.1042(3) 0.3032(3)
H5 H 0.3289 -0.0836 0.2618
C9 C 0.6124(4) -0.0721(3) 0.4131(3)
C10 C 0.4332(4) -0.1982(3) 0.3094(4)
H6 H 0.3710 -0.2402 0.2724
C11 C 0.6001(4) 0.4119(3) 0.4591(3)
H7 H 0.6283 0.4719 0.4795
C12 C 0.5508(4) -0.2281(3) 0.3712(3)
H8 H 0.5692 -0.2912 0.3776
C13 C 0.4386(4) 0.3069(3) 0.3652(3)
H9 H 0.3554 0.2971 0.3209
C14 C 1.0259(3) 0.0567(3) 0.6542(3)
C15 C 1.1109(4) 0.1288(3) 0.6896(3)
H10 H 1.0871 0.1885 0.6648
C16 C 1.0698(4) -0.0308(3) 0.6949(3)
H11 H 1.0169 -0.0822 0.6746
C17 C 1.1913(4) -0.0407(3) 0.7651(3)
H12 H 1.2183 -0.0998 0.7904
N4 N 1.2723(3) 0.0293(2) 0.7989(2)
C18 C 1.2301(4) 0.1135(3) 0.7610(3)
H13 H 1.2842 0.1640 0.7842
C19 C 0.8960(3) 0.0686(3) 0.5797(3)
C20 C 0.8248(4) -0.0082(3) 0.5297(3)
H14 H 0.8615 -0.0668 0.5401
C21 C 0.5639(4) 0.1912(3) -0.0525(3)
N5 N 0.5269(5) 0.2665(3) -0.0633(4)
Cu2B Cu 0.44762(5) -0.00536(4) -0.10227(4)
Cu2B_2 Cu 1.44762(5) -0.00536(4) 0.89773(4)
S1B S 0.37756(10) -0.08443(8) 0.03755(9)
N4B N 0.7277(3) -0.0293(2) 0.2011(2)
loop_
_geom_bond_atom_site_label_1
_geom_bond_atom_site_label_2
_geom_bond_site_symmetry_1
_geom_bond_site_symmetry_2
Cu1 Cl1 1_555 1_555
Cu2 S1 1_555 1_555
S1 C21 1_555 1_555
Cl1 Cu2 1_555 1_555
Cl2 Cu1 1_555 1_555
N1 Cu1 1_555 1_555
N2 Cu1 1_555 1_555
C1 H1 1_555 1_555
N3 Cu1 1_555 1_555
C2 N1 1_555 1_555
C3 N1 1_555 1_555
C4 C2 1_555 1_555
H2 C4 1_555 1_555
C5 H3 1_555 1_555
C6 H4 1_555 1_555
C7 N3 1_555 1_555
C8 N2 1_555 1_555
H5 C8 1_555 1_555
C9 N2 1_555 1_555
C10 C8 1_555 1_555
H6 C10 1_555 1_555
C11 C5 1_555 1_555
H7 C11 1_555 1_555
C12 C1 1_555 1_555
H8 C12 1_555 1_555
C13 N3 1_555 1_555
H9 C13 1_555 1_555
C14 C15 1_555 1_555
C15 H10 1_555 1_555
C16 C14 1_555 1_555
H11 C16 1_555 1_555
C17 C16 1_555 1_555
H12 C17 1_555 1_555
N4 C17 1_555 1_555
C18 C15 1_555 1_555
H13 C18 1_555 1_555
C19 C4 1_555 1_555
C20 C3 1_555 1_555
H14 C20 1_555 1_555
C21 N5 1_555 1_555
Cu2B S1 1_555 1_555
Cu2B_2 N4 1_555 1_555
S1B Cu2 1_555 1_555
N4B Cu2 1_555 1_555
C1 C9 1_555 1_555
C2 C7 1_555 1_555
C3 C9 1_555 1_555
C5 C13 1_555 1_555
C6 C7 1_555 1_555
C6 C11 1_555 1_555
C10 C12 1_555 1_555
C14 C19 1_555 1_555
N4 C18 1_555 1_555
C19 C20 1_555 1_555
Cu2B S1B 1_555 1_555

#END
