
#######################################################################
#
#                 Cambridge Crystallographic Data Centre
#                                CCDC 
#
#######################################################################
#
# If this CIF has been generated from an entry in the Cambridge 
# Structural Database, then it will include bibliographic, chemical, 
# crystal, experimental, refinement or atomic coordinate data resulting 
# from the CCDC's data processing and validation procedures.
#
#######################################################################

data_MAXXEP
_symmetry_cell_setting           monoclinic
_symmetry_space_group_name_H-M   'C 2/c'
_symmetry_Int_Tables_number      15
_space_group_name_Hall           '-C 2yn'
loop_
_symmetry_equiv_pos_site_id
_symmetry_equiv_pos_as_xyz
1 x,y,z
2 1/2+x,1/2+y,z
3 -x,y,1/2-z
4 1/2-x,1/2+y,1/2-z
5 -x,-y,-z
6 1/2-x,1/2-y,-z
7 x,-y,1/2+z
8 1/2+x,1/2-y,1/2+z
_cell_length_a                   22.767(5)
_cell_length_b                   13.547(3)
_cell_length_c                   15.010(3)
_cell_angle_alpha                90
_cell_angle_beta                 92.180(4)
_cell_angle_gamma                90
_cell_volume                     4626.1
loop_
_atom_site_label
_atom_site_type_symbol
_atom_site_fract_x
_atom_site_fract_y
_atom_site_fract_z
Cu1 Cu 0.38729(2) 0.73405(4) 0.04092(4)
Cu2 Cu 0.20262(3) 0.78671(5) 0.30723(4)
S1 S 0.29967(6) 0.73693(12) 0.32789(9)
S2 S 0.16234(6) 0.83517(12) 0.43917(10)
N1 N 0.44659(15) 0.8278(3) 0.0829(2)
N2 N 0.45243(16) 0.6415(3) 0.0851(3)
N3 N 0.65120(17) 1.1789(3) 0.2481(3)
C1 C 0.4758(2) 0.9934(3) 0.1060(3)
H1 H 0.4674 1.0605 0.1011
C2 C 0.54040(19) 0.8611(4) 0.1472(3)
H2 H 0.5763 0.8381 0.1704
C3 C 0.49824(19) 0.7950(3) 0.1169(3)
C4 C 0.57262(19) 1.0359(3) 0.1778(3)
C5 C 0.37598(19) 0.9451(4) 0.0356(3)
C6 C 0.50151(19) 0.6860(3) 0.1187(3)
C7 C 0.43496(19) 0.9245(3) 0.0761(3)
C8 C 0.5982(2) 1.2027(4) 0.2153(3)
H3 H 0.5870 1.2686 0.2168
C9 C 0.4501(2) 0.5430(4) 0.0868(3)
H4 H 0.4165 0.5117 0.0637
N4 N 0.34741(16) 0.8635(3) 0.0061(3)
C10 C 0.55906(19) 1.1356(4) 0.1795(3)
H5 H 0.5229 1.1572 0.1560
C11 C 0.6654(2) 1.0829(4) 0.2460(3)
H6 H 0.7024 1.0641 0.2680
C12 C 0.52940(18) 0.9623(3) 0.1433(3)
C13 C 0.6281(2) 1.0110(4) 0.2130(3)
H7 H 0.6399 0.9453 0.2142
C14 C 0.2668(2) 0.9653(4) -0.0409(4)
H8 H 0.2294 0.9705 -0.0675
C15 C 0.2936(2) 0.8749(4) -0.0327(3)
H9 H 0.2738 0.8195 -0.0548
C16 C 0.3518(2) 1.0378(4) 0.0287(3)
H10 H 0.3727 1.0928 0.0492
C17 C 0.2955(2) 1.0478(4) -0.0096(4)
H11 H 0.2777 1.1095 -0.0138
C18 C 0.5486(2) 0.6332(4) 0.1520(4)
H12 H 0.5823 0.6656 0.1735
C19 C 0.5457(2) 0.5316(4) 0.1535(4)
H13 H 0.5773 0.4946 0.1759
C20 C 0.4958(2) 0.4859(4) 0.1214(4)
H14 H 0.4925 0.4175 0.1230
N5 N 0.35032(18) 0.6519(3) -0.0508(3)
C21 C 0.3285(2) 0.6200(4) -0.1141(3)
S3 S 0.29878(8) 0.57419(11) -0.20589(10)
N6 N 0.0529(2) 0.7427(4) 0.4285(3)
C22 C 0.0977(2) 0.7813(4) 0.4321(3)
N7 N 0.3338(2) 0.7127(4) 0.1530(3)
C23 C 0.3179(2) 0.7240(4) 0.2243(4)
Cu2A Cu 0.70262(3) 1.28671(5) 0.30723(4)
Cu2E Cu 0.29738(3) 0.71329(5) -0.30723(4)
N3A N 0.15120(17) 0.6789(3) 0.2481(3)
S3E S 0.20122(8) 0.92581(11) 0.20589(10)
loop_
_geom_bond_atom_site_label_1
_geom_bond_atom_site_label_2
_geom_bond_site_symmetry_1
_geom_bond_site_symmetry_2
Cu1 N1 1_555 1_555
Cu2 S1 1_555 1_555
S1 C23 1_555 1_555
S2 Cu2 1_555 1_555
N1 C3 1_555 1_555
N2 Cu1 1_555 1_555
N3 C8 1_555 1_555
C1 H1 1_555 1_555
C2 H2 1_555 1_555
C3 C2 1_555 1_555
C4 C10 1_555 1_555
C5 C7 1_555 1_555
C6 N2 1_555 1_555
C7 N1 1_555 1_555
C8 H3 1_555 1_555
C9 N2 1_555 1_555
H4 C9 1_555 1_555
N4 Cu1 1_555 1_555
C10 C8 1_555 1_555
H5 C10 1_555 1_555
C11 N3 1_555 1_555
H6 C11 1_555 1_555
C12 C1 1_555 1_555
C13 C4 1_555 1_555
H7 C13 1_555 1_555
C14 H8 1_555 1_555
C15 N4 1_555 1_555
H9 C15 1_555 1_555
C16 C5 1_555 1_555
H10 C16 1_555 1_555
C17 C14 1_555 1_555
H11 C17 1_555 1_555
C18 C6 1_555 1_555
H12 C18 1_555 1_555
C19 C18 1_555 1_555
H13 C19 1_555 1_555
C20 C9 1_555 1_555
H14 C20 1_555 1_555
N5 Cu1 1_555 1_555
C21 N5 1_555 1_555
S3 C21 1_555 1_555
N6 C22 1_555 1_555
C22 S2 1_555 1_555
N7 Cu1 1_555 1_555
C23 N7 1_555 1_555
Cu2A N3 1_555 1_555
Cu2E S3 1_555 1_555
N3A Cu2 1_555 1_555
S3E Cu2 1_555 1_555
C1 C7 1_555 1_555
C2 C12 1_555 1_555
C3 C6 1_555 1_555
C4 C12 1_555 1_555
C5 N4 1_555 1_555
C11 C13 1_555 1_555
C14 C15 1_555 1_555
C16 C17 1_555 1_555
C19 C20 1_555 1_555

#END
