
#######################################################################
#
#                 Cambridge Crystallographic Data Centre
#                                CCDC 
#
#######################################################################
#
# If this CIF has been generated from an entry in the Cambridge 
# Structural Database, then it will include bibliographic, chemical, 
# crystal, experimental, refinement or atomic coordinate data resulting 
# from the CCDC's data processing and validation procedures.
#
#######################################################################

data_MAXXIT
_symmetry_cell_setting           triclinic
_symmetry_space_group_name_H-M   'P -1'
_symmetry_Int_Tables_number      2
_space_group_name_Hall           '-P 1'
loop_
_symmetry_equiv_pos_site_id
_symmetry_equiv_pos_as_xyz
1 x,y,z
2 -x,-y,-z
_cell_length_a                   7.2969(6)
_cell_length_b                   13.2198(10)
_cell_length_c                   13.2833(10)
_cell_angle_alpha                111.5430(10)
_cell_angle_beta                 96.8540(10)
_cell_angle_gamma                93.9090(10)
_cell_volume                     1174.59
loop_
_atom_site_label
_atom_site_type_symbol
_atom_site_fract_x
_atom_site_fract_y
_atom_site_fract_z
Cu1 Cu 0.34192(6) 0.58570(3) 0.29943(3)
Cu2 Cu 0.48282(6) 0.85991(3) 0.79492(4)
S1 S 0.67188(12) 0.51447(7) 0.27672(7)
S2 S 0.4686(2) 0.89291(8) 0.62616(8)
S3 S 0.77990(12) 0.93289(8) 0.90215(7)
N1 N 0.3970(4) 0.6785(2) 0.2093(2)
N2 N 0.2156(4) 0.4638(2) 0.3361(2)
C1 C 0.3485(4) 0.6238(2) 0.0999(2)
N3 N 0.5606(4) 0.2984(2) 0.2471(3)
N4 N 0.2295(3) 0.4860(2) 0.15479(19)
N5 N 0.3969(5) 0.6980(2) 0.4442(2)
C2 C 0.4679(5) 0.7781(3) 0.0652(3)
H1 H 0.4919 0.8117 0.0169
C3 C 0.1260(4) 0.3776(3) 0.2474(2)
C4 C 0.1422(4) 0.3885(2) 0.1424(2)
C5 C 0.4794(5) 0.7822(2) 0.2459(3)
H2 H 0.5122 0.8205 0.3210
C6 C 0.3825(4) 0.6713(3) 0.0262(3)
H3 H 0.3485 0.6322 -0.0487
C7 C 0.2547(4) 0.5116(2) 0.0676(2)
C8 C 0.5170(5) 0.8339(3) 0.1765(3)
H4 H 0.5749 0.9056 0.2043
C9 C 0.0806(4) 0.3100(2) 0.0395(2)
H5 H 0.0213 0.2423 0.0315
C10 C 0.1943(4) 0.4359(2) -0.0370(2)
H6 H 0.2113 0.4538 -0.0971
C11 C 0.1078(4) 0.3329(2) -0.0530(2)
C12 C 0.0283(4) 0.2889(3) 0.2563(3)
H7 H -0.0345 0.2318 0.1943
C13 C 0.2133(6) 0.4600(3) 0.4345(3)
H8 H 0.2761 0.5179 0.4958
C14 C 0.0260(6) 0.2870(3) 0.3590(3)
H9 H -0.0388 0.2285 0.3678
C15 C 0.1207(6) 0.3729(4) 0.4483(3)
H10 H 0.1224 0.3722 0.5182
N6 N 0.0449(4) 0.2879(2) -0.2460(2)
C16 C 0.0454(4) 0.2501(2) -0.1655(2)
C17 C -0.0075(5) 0.1411(3) -0.1851(3)
H11 H -0.0026 0.1167 -0.1276
C18 C -0.0679(6) 0.0692(3) -0.2921(3)
H12 H -0.1065 -0.0041 -0.3076
C19 C -0.0700(6) 0.1077(3) -0.3742(3)
H13 H -0.1103 0.0614 -0.4468
C20 C -0.0113(6) 0.2161(3) -0.3474(3)
H14 H -0.0106 0.2412 -0.4042
C21 C 0.6055(4) 0.3877(3) 0.2608(3)
N7 N 0.6870(4) 1.0567(2) 1.1069(2)
C22 C 0.7250(4) 1.0065(2) 1.0223(3)
C23 C 0.4277(5) 0.7778(3) 0.5208(3)
Cu2A Cu 0.51718(6) 0.14009(3) 0.20508(4)
Cu2A_2 Cu 0.51718(6) 1.14009(3) 1.20508(4)
N3A N 0.4394(4) 0.7016(2) 0.7529(3)
N7A N 0.3130(4) 0.9433(2) 0.8931(2)
loop_
_geom_bond_atom_site_label_1
_geom_bond_atom_site_label_2
_geom_bond_site_symmetry_1
_geom_bond_site_symmetry_2
Cu1 S1 1_555 1_555
Cu2 S2 1_555 1_555
S1 C21 1_555 1_555
S2 C23 1_555 1_555
S3 Cu2 1_555 1_555
N1 Cu1 1_555 1_555
N2 Cu1 1_555 1_555
C1 N1 1_555 1_555
N3 C21 1_555 1_555
N4 Cu1 1_555 1_555
N5 Cu1 1_555 1_555
C2 H1 1_555 1_555
C3 N2 1_555 1_555
C4 N4 1_555 1_555
C5 N1 1_555 1_555
H2 C5 1_555 1_555
C6 C1 1_555 1_555
H3 C6 1_555 1_555
C7 C1 1_555 1_555
C8 C2 1_555 1_555
H4 C8 1_555 1_555
C9 C4 1_555 1_555
H5 C9 1_555 1_555
C10 C7 1_555 1_555
H6 C10 1_555 1_555
C11 C9 1_555 1_555
C12 C3 1_555 1_555
H7 C12 1_555 1_555
C13 N2 1_555 1_555
H8 C13 1_555 1_555
C14 C12 1_555 1_555
H9 C14 1_555 1_555
C15 C13 1_555 1_555
H10 C15 1_555 1_555
N6 C16 1_555 1_555
C16 C11 1_555 1_555
C17 C16 1_555 1_555
H11 C17 1_555 1_555
C18 C17 1_555 1_555
H12 C18 1_555 1_555
C19 C18 1_555 1_555
H13 C19 1_555 1_555
C20 N6 1_555 1_555
H14 C20 1_555 1_555
N7 C22 1_555 1_555
C22 S3 1_555 1_555
C23 N5 1_555 1_555
Cu2A N3 1_555 1_555
Cu2A_2 N7 1_555 1_555
N3A Cu2 1_555 1_555
N7A Cu2 1_555 1_555
N4 C7 1_555 1_555
C2 C6 1_555 1_555
C3 C4 1_555 1_555
C5 C8 1_555 1_555
C10 C11 1_555 1_555
C14 C15 1_555 1_555
C19 C20 1_555 1_555

#END
