
#######################################################################
#
#                 Cambridge Crystallographic Data Centre
#                                CCDC 
#
#######################################################################
#
# If this CIF has been generated from an entry in the Cambridge 
# Structural Database, then it will include bibliographic, chemical, 
# crystal, experimental, refinement or atomic coordinate data resulting 
# from the CCDC's data processing and validation procedures.
#
#######################################################################

data_MAXZOB
_symmetry_cell_setting           tetragonal
_symmetry_space_group_name_H-M   'I 41/a c d'
_symmetry_Int_Tables_number      142
_space_group_name_Hall           '-I 4bd 2c'
loop_
_symmetry_equiv_pos_site_id
_symmetry_equiv_pos_as_xyz
1 x,y,z
2 1/4+y,3/4+x,3/4-z
3 1/4+y,1/4-x,3/4+z
4 1/4-y,3/4+x,1/4+z
5 1/4-y,1/4-x,1/4-z
6 1/2+x,1/2+y,1/2+z
7 3/4+y,1/4+x,1/4-z
8 3/4+y,3/4-x,1/4+z
9 3/4-y,1/4+x,3/4+z
10 x,-y,1/2-z
11 1/2-x,-y,1/2+z
12 1/2-x,y,-z
13 1/2+x,1/2-y,-z
14 -x,1/2-y,z
15 -x,1/2+y,1/2-z
16 3/4-y,3/4-x,3/4-z
17 -x,-y,-z
18 3/4-y,1/4-x,1/4+z
19 3/4-y,3/4+x,1/4-z
20 3/4+y,1/4-x,3/4-z
21 3/4+y,3/4+x,3/4+z
22 1/2-x,1/2-y,1/2-z
23 1/4-y,3/4-x,3/4+z
24 1/4-y,1/4+x,3/4-z
25 1/4+y,3/4-x,1/4-z
26 -x,y,1/2+z
27 1/2+x,y,1/2-z
28 1/2+x,-y,z
29 1/2-x,1/2+y,z
30 x,1/2+y,-z
31 x,1/2-y,1/2+z
32 1/4+y,1/4+x,1/4+z
_cell_length_a                   19.700(5)
_cell_length_b                   19.700(5)
_cell_length_c                   12.705(2)
_cell_angle_alpha                90
_cell_angle_beta                 90
_cell_angle_gamma                90
_cell_volume                     4930.68
loop_
_atom_site_label
_atom_site_type_symbol
_atom_site_fract_x
_atom_site_fract_y
_atom_site_fract_z
Ag1 Ag 0.74734(4) 0.50268(4) 0.62500
N1 N 0.6846(4) 0.4243(4) 0.5518(7)
C1 C 0.7130(5) 0.3671(5) 0.5109(8)
C2 C 0.6735(7) 0.3120(6) 0.4824(9)
C3 C 0.6067(9) 0.3146(7) 0.4998(11)
C4 C 0.5769(6) 0.3699(7) 0.5432(9)
C5 C 0.6188(6) 0.4241(6) 0.5698(9)
H1 H 0.69347 0.27311 0.45097
H2 H 0.57940 0.27666 0.48133
H3 H 0.52927 0.37164 0.55495
H4 H 0.59903 0.46272 0.60251
Ag1B Ag 0.75268(4) 0.50266(4) 0.37500
N1K N 0.8154(4) 0.4243(4) 0.4482(7)
N1D N 0.8257(4) 0.5654(4) 0.6982(7)
C1K C 0.7870(5) 0.3671(5) 0.4891(8)
C2K C 0.8265(7) 0.3120(6) 0.5176(9)
C3K C 0.8933(9) 0.3146(7) 0.5002(11)
C4K C 0.9231(6) 0.3699(7) 0.4568(9)
C5K C 0.8812(6) 0.4241(6) 0.4302(9)
H1K H 0.80653 0.27311 0.54903
H2K H 0.92060 0.27666 0.51867
H3K H 0.97073 0.37164 0.44505
H4K H 0.90097 0.46272 0.39749
Cl1 Cl 0.62458(15) 0.62542(15) 0.62500
O1 O 0.6790(4) 0.6271(5) 0.5582(7)
O2 O 0.5708(6) 0.6283(10) 0.5725(13)
O1D O 0.6229(5) 0.5710(4) 0.6918(7)
O2D O 0.6217(10) 0.6792(6) 0.6775(13)
loop_
_geom_bond_atom_site_label_1
_geom_bond_atom_site_label_2
_geom_bond_site_symmetry_1
_geom_bond_site_symmetry_2
Ag1 N1 1_555 1_555
N1 C1 1_555 1_555
C1 C2 1_555 1_555
C2 C3 1_555 1_555
C3 C4 1_555 1_555
C4 C5 1_555 1_555
C5 N1 1_555 1_555
Cl1 O1 1_555 1_555
O2 Cl1 1_555 1_555
H1 C2 1_555 1_555
H2 C3 1_555 1_555
H3 C4 1_555 1_555
H4 C5 1_555 1_555
Ag1B N1K 1_555 1_555
N1K C1K 1_555 1_555
N1D Ag1 1_555 1_555
C1K C1 1_555 1_555
C2K C1K 1_555 1_555
C3K C2K 1_555 1_555
C4K C3K 1_555 1_555
C5K N1K 1_555 1_555
O1D Cl1 1_555 1_555
O2D Cl1 1_555 1_555
H1K C2K 1_555 1_555
H2K C3K 1_555 1_555
H3K C4K 1_555 1_555
H4K C5K 1_555 1_555
C4K C5K 1_555 1_555

#END
