
#######################################################################
#
#                 Cambridge Crystallographic Data Centre
#                                CCDC 
#
#######################################################################
#
# If this CIF has been generated from an entry in the Cambridge 
# Structural Database, then it will include bibliographic, chemical, 
# crystal, experimental, refinement or atomic coordinate data resulting 
# from the CCDC's data processing and validation procedures.
#
#######################################################################

data_MAXZUH
_symmetry_cell_setting           monoclinic
_symmetry_space_group_name_H-M   'P 21/n'
_symmetry_Int_Tables_number      14
_space_group_name_Hall           '-P 2yn'
loop_
_symmetry_equiv_pos_site_id
_symmetry_equiv_pos_as_xyz
1 x,y,z
2 1/2-x,1/2+y,1/2-z
3 -x,-y,-z
4 1/2+x,1/2-y,1/2+z
_cell_length_a                   8.7310(8)
_cell_length_b                   7.0211(7)
_cell_length_c                   18.017(2)
_cell_angle_alpha                90
_cell_angle_beta                 100.5080(10)
_cell_angle_gamma                90
_cell_volume                     1085.94
loop_
_atom_site_label
_atom_site_type_symbol
_atom_site_fract_x
_atom_site_fract_y
_atom_site_fract_z
Ag1 Ag 1.12991(2) 0.96156(3) 0.307180(10)
N1 N 1.3483(2) 1.3037(3) 0.34556(13)
O1 O 1.26674(18) 1.2399(2) 0.28501(10)
O2 O 1.4310(2) 1.4456(3) 0.34105(10)
O3 O 1.3466(2) 1.2224(3) 0.40602(11)
N2 N 0.8696(2) 0.9355(2) 0.32042(10)
C1 C 0.8407(2) 0.8514(3) 0.38293(12)
C2 C 0.6888(3) 0.8213(3) 0.39403(15)
C3 C 0.5665(3) 0.8825(4) 0.33969(16)
C4 C 0.5959(3) 0.9713(4) 0.27600(17)
C5 C 0.7488(3) 0.9938(3) 0.26855(15)
N3 N 1.1154(2) 0.7821(3) 0.41630(11)
C6 C 0.9779(3) 0.7910(3) 0.43979(12)
C7 C 0.9655(3) 0.7485(3) 0.51355(14)
C8 C 1.0968(4) 0.6934(4) 0.56401(16)
C9 C 1.2362(4) 0.6821(4) 0.54034(18)
C10 C 1.2404(3) 0.7265(4) 0.46714(19)
H1 H 0.671(2) 0.760(3) 0.4402(11)
H2 H 0.465(3) 0.859(3) 0.3479(13)
H3 H 0.516(3) 1.019(3) 0.2380(13)
H4 H 0.773(2) 1.050(3) 0.2273(12)
H5 H 0.862(2) 0.759(3) 0.5295(12)
H6 H 1.090(3) 0.665(3) 0.6156(14)
H7 H 1.331(3) 0.648(4) 0.5718(15)
H8 H 1.337(3) 0.723(4) 0.4488(14)
Ag1A Ag 1.37009(2) 1.46156(3) 0.192820(10)
O1A O 1.23326(18) 0.7399(2) 0.21499(10)
O2A O 1.0690(2) 0.9456(3) 0.15895(10)
loop_
_geom_bond_atom_site_label_1
_geom_bond_atom_site_label_2
_geom_bond_site_symmetry_1
_geom_bond_site_symmetry_2
Ag1 O1 1_555 1_555
N1 O1 1_555 1_555
O1 Ag1A 1_555 1_555
O2 N1 1_555 1_555
O3 N1 1_555 1_555
N2 Ag1 1_555 1_555
C1 N2 1_555 1_555
C2 C1 1_555 1_555
C3 C2 1_555 1_555
C4 C3 1_555 1_555
C5 N2 1_555 1_555
N3 Ag1 1_555 1_555
C6 C1 1_555 1_555
C7 C6 1_555 1_555
C8 C7 1_555 1_555
C9 C8 1_555 1_555
C10 N3 1_555 1_555
H1 C2 1_555 1_555
H2 C3 1_555 1_555
H3 C4 1_555 1_555
H4 C5 1_555 1_555
H5 C7 1_555 1_555
H6 C8 1_555 1_555
H7 C9 1_555 1_555
H8 C10 1_555 1_555
Ag1A O2 1_555 1_555
O1A Ag1 1_555 1_555
O2A Ag1 1_555 1_555
C4 C5 1_555 1_555
N3 C6 1_555 1_555
C9 C10 1_555 1_555

#END
