
#######################################################################
#
#                 Cambridge Crystallographic Data Centre
#                                CCDC 
#
#######################################################################
#
# If this CIF has been generated from an entry in the Cambridge 
# Structural Database, then it will include bibliographic, chemical, 
# crystal, experimental, refinement or atomic coordinate data resulting 
# from the CCDC's data processing and validation procedures.
#
#######################################################################

data_MAYBUK
_symmetry_cell_setting           monoclinic
_symmetry_space_group_name_H-M   'P 21/c'
_symmetry_Int_Tables_number      14
_space_group_name_Hall           '-P 2ybc'
loop_
_symmetry_equiv_pos_site_id
_symmetry_equiv_pos_as_xyz
1 x,y,z
2 -x,1/2+y,1/2-z
3 -x,-y,-z
4 x,1/2-y,1/2+z
_cell_length_a                   10.9336(8)
_cell_length_b                   8.2360(6)
_cell_length_c                   17.9230(10)
_cell_angle_alpha                90
_cell_angle_beta                 104.027(2)
_cell_angle_gamma                90
_cell_volume                     1565.83
loop_
_atom_site_label
_atom_site_type_symbol
_atom_site_fract_x
_atom_site_fract_y
_atom_site_fract_z
Ag1 Ag 0.512199(12) 0.103902(18) 0.659257(7)
N1 N 0.37035(15) -0.1436(2) 0.72165(9)
O1 O 0.32805(15) -0.0270(2) 0.67791(10)
O2 O 0.48563(13) -0.1463(2) 0.75546(8)
O3 O 0.30077(14) -0.2562(2) 0.73088(10)
N2 N 0.48378(13) 0.21993(17) 0.53715(7)
C1 C 0.58198(16) 0.21726(19) 0.50585(8)
C2 C 0.57879(18) 0.2936(2) 0.43465(9)
C3 C 0.4719(2) 0.3720(2) 0.39642(10)
C4 C 0.36554(18) 0.3752(2) 0.42797(10)
C5 C 0.2500(2) 0.4523(2) 0.39138(11)
C6 C 0.1502(2) 0.4492(3) 0.42494(13)
C7 C 0.1618(2) 0.3737(3) 0.49680(14)
C8 C 0.27152(18) 0.2978(2) 0.53349(11)
C9 C 0.37559(16) 0.2963(2) 0.49950(9)
N3 N 0.68958(13) 0.04977(17) 0.61184(7)
C10 C 0.69794(16) 0.13124(18) 0.54976(9)
C11 C 0.81286(18) 0.1410(2) 0.52597(10)
C12 C 0.91756(18) 0.0643(2) 0.56873(11)
C13 C 0.91075(15) -0.0260(2) 0.63430(10)
C14 C 1.01534(17) -0.1092(2) 0.68075(12)
C15 C 1.00286(18) -0.1922(3) 0.74430(12)
C16 C 0.88565(18) -0.1948(2) 0.76478(11)
C17 C 0.78245(17) -0.1149(2) 0.72122(10)
C18 C 0.79319(15) -0.0294(2) 0.65456(9)
H1 H 0.6513(18) 0.287(2) 0.4146(11)
H2 H 0.463(3) 0.399(3) 0.3507(18)
H3 H 0.243(2) 0.502(3) 0.3420(13)
H4 H 0.071(3) 0.498(4) 0.3979(16)
H5 H 0.091(3) 0.381(3) 0.5179(17)
H6 H 0.280(2) 0.247(3) 0.5801(13)
H7 H 0.814(2) 0.196(3) 0.4801(13)
H8 H 0.995(2) 0.074(3) 0.5541(15)
H9 H 1.095(3) -0.099(3) 0.6666(17)
H10 H 1.073(2) -0.248(3) 0.7739(12)
H11 H 0.875(2) -0.251(3) 0.8102(15)
H12 H 0.705(2) -0.113(3) 0.7359(14)
Ag1A Ag 0.487801(12) -0.396098(18) 0.840743(7)
O2A O 0.51437(13) 0.3537(2) 0.74454(8)
O3A O 0.69923(14) 0.2438(2) 0.76912(10)
loop_
_geom_bond_atom_site_label_1
_geom_bond_atom_site_label_2
_geom_bond_site_symmetry_1
_geom_bond_site_symmetry_2
Ag1 O1 1_555 1_555
N1 O1 1_555 1_555
O2 Ag1 1_555 1_555
O3 N1 1_555 1_555
N2 Ag1 1_555 1_555
C1 N2 1_555 1_555
C2 C1 1_555 1_555
C3 C2 1_555 1_555
C4 C3 1_555 1_555
C5 C4 1_555 1_555
C6 C5 1_555 1_555
C7 C6 1_555 1_555
C8 C7 1_555 1_555
C9 N2 1_555 1_555
N3 Ag1 1_555 1_555
C10 C1 1_555 1_555
C11 C10 1_555 1_555
C12 C11 1_555 1_555
C13 C12 1_555 1_555
C14 C13 1_555 1_555
C15 C14 1_555 1_555
C16 C15 1_555 1_555
C17 C16 1_555 1_555
C18 N3 1_555 1_555
H1 C2 1_555 1_555
H2 C3 1_555 1_555
H3 C5 1_555 1_555
H4 C6 1_555 1_555
H5 C7 1_555 1_555
H6 C8 1_555 1_555
H7 C11 1_555 1_555
H8 C12 1_555 1_555
H9 C14 1_555 1_555
H10 C15 1_555 1_555
H11 C16 1_555 1_555
H12 C17 1_555 1_555
Ag1A O2 1_555 1_555
O2A Ag1 1_555 1_555
O3A Ag1 1_555 1_555
N1 O2 1_555 1_555
O3 Ag1A 1_555 1_555
C4 C9 1_555 1_555
C8 C9 1_555 1_555
N3 C10 1_555 1_555
C13 C18 1_555 1_555
C17 C18 1_555 1_555

#END
