
#######################################################################
#
#                 Cambridge Crystallographic Data Centre
#                                CCDC 
#
#######################################################################
#
# If this CIF has been generated from an entry in the Cambridge 
# Structural Database, then it will include bibliographic, chemical, 
# crystal, experimental, refinement or atomic coordinate data resulting 
# from the CCDC's data processing and validation procedures.
#
#######################################################################

data_MAYFIB
_symmetry_cell_setting           monoclinic
_symmetry_space_group_name_H-M   'P 21/c'
_symmetry_Int_Tables_number      14
_space_group_name_Hall           '-P 2ybc'
loop_
_symmetry_equiv_pos_site_id
_symmetry_equiv_pos_as_xyz
1 x,y,z
2 -x,1/2+y,1/2-z
3 -x,-y,-z
4 x,1/2-y,1/2+z
_cell_length_a                   4.840(2)
_cell_length_b                   17.571(6)
_cell_length_c                   7.342(4)
_cell_angle_alpha                90
_cell_angle_beta                 106.57(3)
_cell_angle_gamma                90
_cell_volume                     598.461
loop_
_atom_site_label
_atom_site_type_symbol
_atom_site_fract_x
_atom_site_fract_y
_atom_site_fract_z
P1 P 0.7180(2) -0.31141(5) 0.85097(13)
O1 O 0.8650(5) -0.23917(15) 0.9393(4)
O2 O 0.9053(5) -0.35739(14) 0.7575(4)
O3 O 0.4236(5) -0.29167(13) 0.7151(3)
O4 O 0.2503(7) -0.3489(2) 0.3228(4)
O5 O 0.3017(5) -0.45015(13) 0.6306(3)
O6 O 0.2207(5) -0.57576(12) 0.6013(3)
O7 O 0.3432(6) -0.8617(2) 0.4892(4)
H1 H 0.1906(6) -0.8719(2) 0.4096(4)
C1 C 0.1514(7) -0.5073(2) 0.5670(4)
H2 H 0.293(11) -0.3063(31) 0.2870(71)
H3 H 0.355(13) -0.3767(36) 0.3264(83)
Fe1 Fe 0.08888(10) -0.34550(3) 0.55690(7)
Fe1_2 Fe 1.08888(10) -0.34550(3) 0.55690(7)
O1C O -0.1350(5) -0.26083(15) 0.4393(4)
O2_2 O -0.0947(5) -0.35739(14) 0.7575(4)
Fe1B Fe -0.08888(10) -0.65450(3) 0.44310(7)
O1A O 0.1350(5) -0.73917(15) 0.5607(4)
P1A P 0.2820(2) -0.81141(5) 0.64903(13)
O2A O 0.0947(5) -0.85739(14) 0.7425(4)
Fe1A Fe -0.08888(10) -0.84550(3) 0.94310(7)
O3A O 0.5764(5) -0.79167(13) 0.7849(3)
O2B O 0.0947(5) -0.64261(14) 0.2425(4)
O3B O -0.4236(5) -0.70833(13) 0.2849(3)
O4B O -0.2503(7) -0.6511(2) 0.6772(4)
H2B H -0.293(11) -0.6937(31) 0.7130(71)
H3B H -0.355(13) -0.6233(36) 0.6736(83)
O5B O -0.3017(5) -0.54985(13) 0.3694(3)
C1B C -0.1514(7) -0.4927(2) 0.4330(4)
O6B O -0.2207(5) -0.42424(12) 0.3987(3)
O7A O 0.6568(6) -0.3617(2) 1.0108(4)
H1A H 0.8094(6) -0.3719(2) 1.0904(4)
Fe1C Fe 1.08888(10) -0.15450(3) 1.05690(7)
Fe1A_2 Fe 0.91112(10) -0.84550(3) 0.94310(7)
O8 O 0.8762(50) -0.5149(9) -0.0548(33)
O8B O 1.1238(50) -0.4851(9) 0.0548(33)
H4? H -0.335(11) 0.4931(35) 0.9703(77)
H5? H -0.269(10) 0.4660(31) 0.9353(74)
loop_
_geom_bond_atom_site_label_1
_geom_bond_atom_site_label_2
_geom_bond_site_symmetry_1
_geom_bond_site_symmetry_2
P1 O1 1_555 1_555
O1 Fe1C 1_555 1_555
O2 P1 1_555 1_555
O3 P1 1_555 1_555
O4 H2 1_555 1_555
O5 C1 1_555 1_555
O6 C1 1_555 1_555
O7 H1 1_555 1_555
C1 C1B 1_555 1_555
H3 O4 1_555 1_555
Fe1 O3 1_555 1_555
Fe1_2 O2 1_555 1_555
O1C Fe1 1_555 1_555
O2_2 Fe1 1_555 1_555
Fe1B O6 1_555 1_555
O1A Fe1B 1_555 1_555
P1A O7 1_555 1_555
O2A P1A 1_555 1_555
Fe1A O2A 1_555 1_555
O3A P1A 1_555 1_555
O2B Fe1B 1_555 1_555
O3B Fe1B 1_555 1_555
O4B Fe1B 1_555 1_555
H2B O4B 1_555 1_555
H3B O4B 1_555 1_555
O5B Fe1B 1_555 1_555
C1B O5B 1_555 1_555
O6B Fe1 1_555 1_555
O7A P1 1_555 1_555
H1A O7A 1_555 1_555
Fe1A_2 O3A 1_555 1_555
O4 Fe1 1_555 1_555
O5 Fe1 1_555 1_555
O1A P1A 1_555 1_555
C1B O6B 1_555 1_555

#END
