
#######################################################################
#
#                 Cambridge Crystallographic Data Centre
#                                CCDC 
#
#######################################################################
#
# If this CIF has been generated from an entry in the Cambridge 
# Structural Database, then it will include bibliographic, chemical, 
# crystal, experimental, refinement or atomic coordinate data resulting 
# from the CCDC's data processing and validation procedures.
#
#######################################################################

data_MAYFOH01
_symmetry_cell_setting           monoclinic
_symmetry_space_group_name_H-M   'P 21/n'
_symmetry_Int_Tables_number      14
_space_group_name_Hall           '-P 2yn'
loop_
_symmetry_equiv_pos_site_id
_symmetry_equiv_pos_as_xyz
1 x,y,z
2 1/2-x,1/2+y,1/2-z
3 -x,-y,-z
4 1/2+x,1/2-y,1/2+z
_cell_length_a                   8.1041(3)
_cell_length_b                   6.6254(2)
_cell_length_c                   12.0431(4)
_cell_angle_alpha                90
_cell_angle_beta                 108.423(2)
_cell_angle_gamma                90
_cell_volume                     613.489
loop_
_atom_site_label
_atom_site_type_symbol
_atom_site_fract_x
_atom_site_fract_y
_atom_site_fract_z
Fe1 Fe 0.77404(4) 0.18152(5) 0.59523(3)
P1 P 1.01365(7) 0.42453(9) 0.82646(5)
O1 O 1.1566(2) 0.5467(3) 0.79206(15)
H1 H 1.160(4) 0.669(2) 0.813(3)
O2 O 1.0869(2) 0.3465(3) 0.94998(14)
O3 O 0.8603(2) 0.5683(2) 0.81152(13)
O4 O 0.9633(2) 0.2471(2) 0.74104(13)
C1 C 1.0164(3) 0.1015(3) 0.47453(19)
O5 O 0.9412(2) 0.2523(3) 0.49823(14)
O6 O 1.1194(2) 0.0977(2) 0.41483(14)
O7 O 0.6937(2) 0.4734(3) 0.58613(14)
H2 H 0.682(4) 0.525(4) 0.5207(14)
H3 H 0.731(4) 0.558(4) 0.6391(17)
Fe1B Fe 1.22596(4) -0.18152(5) 0.40477(3)
Fe1A Fe 0.72596(4) -0.31848(5) -0.09523(3)
Fe1A_2 Fe 0.72596(4) 0.68152(5) 0.90477(3)
Fe1C Fe 1.27404(4) -0.68152(5) 0.09523(3)
Fe1C_2 Fe 1.27404(4) 0.31848(5) 1.09523(3)
P1B P 0.98635(7) -0.42453(9) 0.17354(5)
O1B O 0.8434(2) -0.5467(3) 0.20794(15)
H1B H 0.840(4) -0.669(2) 0.187(3)
O2B O 0.9131(2) -0.3465(3) 0.05002(14)
O2A O 1.4131(2) -0.1535(3) 0.55002(14)
O2C O 0.5869(2) 0.1535(3) 0.44998(14)
O3B O 1.1397(2) -0.5683(2) 0.18848(13)
O3A O 0.6397(2) 0.0683(2) 0.68848(13)
O3C O 1.3603(2) -0.0683(2) 0.31152(13)
O4B O 1.0367(2) -0.2471(2) 0.25896(13)
C1B C 0.9836(3) -0.1015(3) 0.52547(19)
O5B O 1.0588(2) -0.2523(3) 0.50177(14)
O6B O 0.8806(2) -0.0977(2) 0.58517(14)
O7B O 1.3063(2) -0.4734(3) 0.41387(14)
H2B H 1.318(4) -0.525(4) 0.4793(14)
H3B H 1.269(4) -0.558(4) 0.3609(17)
O8 O 1.3279(2) 0.4170(3) 0.63545(15)
H4 H 1.242(2) 0.468(4) 0.649(3)
H5 H 1.414(2) 0.488(4) 0.673(2)
loop_
_geom_bond_atom_site_label_1
_geom_bond_atom_site_label_2
_geom_bond_site_symmetry_1
_geom_bond_site_symmetry_2
Fe1 O4 1_555 1_555
P1 O1 1_555 1_555
O1 H1 1_555 1_555
O2 P1 1_555 1_555
O3 P1 1_555 1_555
O4 P1 1_555 1_555
C1 O5 1_555 1_555
O5 Fe1 1_555 1_555
O6 C1 1_555 1_555
O7 Fe1 1_555 1_555
H2 O7 1_555 1_555
H3 O7 1_555 1_555
O8 H4 1_555 1_555
H5 O8 1_555 1_555
Fe1B O6 1_555 1_555
Fe1A O2B 1_555 1_555
Fe1A_2 O3 1_555 1_555
Fe1C O3B 1_555 1_555
Fe1C_2 O2 1_555 1_555
P1B O1B 1_555 1_555
O1B H1B 1_555 1_555
O2B P1B 1_555 1_555
O2A Fe1B 1_555 1_555
O2C Fe1 1_555 1_555
O3B P1B 1_555 1_555
O3A Fe1 1_555 1_555
O3C Fe1B 1_555 1_555
O4B Fe1B 1_555 1_555
C1B C1 1_555 1_555
O5B Fe1B 1_555 1_555
O6B Fe1 1_555 1_555
O7B Fe1B 1_555 1_555
H2B O7B 1_555 1_555
H3B O7B 1_555 1_555
P1B O4B 1_555 1_555
C1B O5B 1_555 1_555
C1B O6B 1_555 1_555

#END
