
#######################################################################
#
#                 Cambridge Crystallographic Data Centre
#                                CCDC 
#
#######################################################################
#
# If this CIF has been generated from an entry in the Cambridge 
# Structural Database, then it will include bibliographic, chemical, 
# crystal, experimental, refinement or atomic coordinate data resulting 
# from the CCDC's data processing and validation procedures.
#
#######################################################################

data_MAYNOQ
_symmetry_cell_setting           triclinic
_symmetry_space_group_name_H-M   'P -1'
_symmetry_Int_Tables_number      2
_space_group_name_Hall           '-P 1'
loop_
_symmetry_equiv_pos_site_id
_symmetry_equiv_pos_as_xyz
1 x,y,z
2 -x,-y,-z
_cell_length_a                   6.9159(2)
_cell_length_b                   9.5429(3)
_cell_length_c                   11.5226(4)
_cell_angle_alpha                91.367(2)
_cell_angle_beta                 95.337(2)
_cell_angle_gamma                109.358(2)
_cell_volume                     713.151
loop_
_atom_site_label
_atom_site_type_symbol
_atom_site_fract_x
_atom_site_fract_y
_atom_site_fract_z
Bi1 Bi 0.792977(18) 0.531172(13) 0.109975(10)
Br1 Br 0.60841(6) 0.41277(4) 0.29379(3)
Br2 Br 0.47126(5) 0.68458(4) 0.05008(3)
Br3 Br 1.01676(5) 0.34454(4) 0.12106(3)
C1 C 0.7888(6) 0.8260(4) 0.5031(3)
H1 H 0.7500 0.8052 0.5795
C2 C 0.9294(6) 0.7687(4) 0.4605(3)
H2 H 0.9883 0.7105 0.5084
C3 C 0.9853(5) 0.7956(4) 0.3481(3)
C4 C 0.9051(5) 0.8878(4) 0.2795(3)
C5 C 0.7637(5) 0.9452(4) 0.3225(3)
H3 H 0.7076 1.0058 0.2755
C6 C 0.7031(5) 0.9146(4) 0.4347(3)
C7 C 0.5595(6) 0.9749(4) 0.4802(4)
C8 C 1.2007(6) 0.5961(4) 0.3880(3)
H4 H 1.0706 0.5255 0.4081
H5 H 1.2776 0.6558 0.4583
H6 H 1.2828 0.5413 0.3559
C9 C 1.2406(6) 1.0297(4) 0.1564(4)
H7 H 1.3057 0.9982 0.2255
H8 H 1.2559 1.1350 0.1679
H9 H 1.3071 1.0154 0.0877
S1 S 1.14752(13) 0.71604(9) 0.28149(7)
S2 S 0.96792(13) 0.91889(9) 0.13439(7)
Bi1A Bi 0.207023(18) 0.468828(13) -0.109975(10)
Bi1A_2 Bi 1.207023(18) 0.468828(13) -0.109975(10)
Bi1A_3 Bi 0.207023(18) 1.468828(13) 0.890025(10)
Br1A Br 0.39159(6) 0.58723(4) -0.29379(3)
Br2A Br 0.52874(5) 0.31542(4) -0.05008(3)
Br3A Br 0.98324(5) 0.65546(4) -0.12106(3)
Br3_2 Br 0.01676(5) 0.34454(4) 0.12106(3)
Br3A_2 Br -0.01676(5) 0.65546(4) -0.12106(3)
C1A C 0.2112(6) 1.1740(4) 0.4969(3)
H1A H 0.2500 1.1948 0.4205
C2A C 0.0706(6) 1.2313(4) 0.5395(3)
H2A H 0.0117 1.2895 0.4916
C3A C 0.0147(5) 1.2044(4) 0.6519(3)
C4A C 0.0949(5) 1.1122(4) 0.7205(3)
C5A C 0.2363(5) 1.0548(4) 0.6775(3)
H3A H 0.2924 0.9942 0.7245
C6A C 0.2969(5) 1.0854(4) 0.5653(3)
C7A C 0.4405(6) 1.0251(4) 0.5198(4)
C8A C -0.2007(6) 1.4039(4) 0.6120(3)
H4A H -0.0706 1.4745 0.5919
H5A H -0.2776 1.3442 0.5417
H6A H -0.2828 1.4587 0.6441
C9A C -0.2406(6) 0.9703(4) 0.8436(4)
H7A H -0.3057 1.0018 0.7745
H8A H -0.2559 0.8650 0.8321
H9A H -0.3071 0.9846 0.9123
S1A S -0.14752(13) 1.28396(9) 0.71851(7)
S1A_2 S -0.14752(13) 0.28396(9) -0.28149(7)
S2A S 0.03208(13) 1.08111(9) 0.86561(7)
loop_
_geom_bond_atom_site_label_1
_geom_bond_atom_site_label_2
_geom_bond_site_symmetry_1
_geom_bond_site_symmetry_2
Bi1 Br1 1_555 1_555
Br2 Bi1 1_555 1_555
Br3 Bi1 1_555 1_555
C1 H1 1_555 1_555
C2 C1 1_555 1_555
H2 C2 1_555 1_555
C3 C2 1_555 1_555
C4 C3 1_555 1_555
C5 C4 1_555 1_555
H3 C5 1_555 1_555
C6 C1 1_555 1_555
C7 C6 1_555 1_555
C8 H4 1_555 1_555
H5 C8 1_555 1_555
H6 C8 1_555 1_555
C9 H7 1_555 1_555
H8 C9 1_555 1_555
H9 C9 1_555 1_555
S1 Bi1 1_555 1_555
S2 C4 1_555 1_555
Bi1A Br2 1_555 1_555
Bi1A_2 Br3 1_555 1_555
Bi1A_3 S1A 1_555 1_555
Br1A Bi1A 1_555 1_555
Br2A Bi1 1_555 1_555
Br3A Bi1 1_555 1_555
Br3_2 Bi1A 1_555 1_555
Br3A_2 Bi1A 1_555 1_555
C1A H1A 1_555 1_555
C2A C1A 1_555 1_555
H2A C2A 1_555 1_555
C3A C2A 1_555 1_555
C4A C3A 1_555 1_555
C5A C4A 1_555 1_555
H3A C5A 1_555 1_555
C6A C1A 1_555 1_555
C7A C7 1_555 1_555
C8A H4A 1_555 1_555
H5A C8A 1_555 1_555
H6A C8A 1_555 1_555
C9A H7A 1_555 1_555
H8A C9A 1_555 1_555
H9A C9A 1_555 1_555
S1A C3A 1_555 1_555
S1A_2 Bi1A 1_555 1_555
S2A C4A 1_555 1_555
C3 S1 1_555 1_555
C5 C6 1_555 1_555
C8 S1 1_555 1_555
C9 S2 1_555 1_555
Bi1A Br2A 1_555 1_555
Bi1A_2 Br3A 1_555 1_555
C5A C6A 1_555 1_555
C6A C7A 1_555 1_555
C8A S1A 1_555 1_555
C9A S2A 1_555 1_555

#END
