
#######################################################################
#
#                 Cambridge Crystallographic Data Centre
#                                CCDC 
#
#######################################################################
#
# If this CIF has been generated from an entry in the Cambridge 
# Structural Database, then it will include bibliographic, chemical, 
# crystal, experimental, refinement or atomic coordinate data resulting 
# from the CCDC's data processing and validation procedures.
#
#######################################################################

data_MAYXOA
_symmetry_cell_setting           monoclinic
_symmetry_space_group_name_H-M   'P 21/n'
_symmetry_Int_Tables_number      14
_space_group_name_Hall           '-P 2yn'
loop_
_symmetry_equiv_pos_site_id
_symmetry_equiv_pos_as_xyz
1 x,y,z
2 1/2-x,1/2+y,1/2-z
3 -x,-y,-z
4 1/2+x,1/2-y,1/2+z
_cell_length_a                   15.1571(16)
_cell_length_b                   20.483(2)
_cell_length_c                   16.9026(19)
_cell_angle_alpha                90
_cell_angle_beta                 96.1070(10)
_cell_angle_gamma                90
_cell_volume                     5217.85
loop_
_atom_site_label
_atom_site_type_symbol
_atom_site_fract_x
_atom_site_fract_y
_atom_site_fract_z
Cd1 Cd 1.201706(15) 0.125347(12) 0.620515(15)
O1 O 1.20024(19) 0.20381(12) 0.72782(16)
O2 O 1.22097(18) 0.23903(12) 0.60930(15)
O3 O 1.2942(2) 0.55242(13) 0.76771(16)
O4 O 1.31141(16) 0.51023(13) 0.88766(14)
O5 O 1.20441(17) 0.10788(13) 0.48011(15)
H1 H 1.2322 0.1341 0.4479
H2 H 1.2143 0.0655 0.4715
N1 N 1.04733(18) 0.12507(14) 0.60141(18)
N2 N 0.73969(18) 0.02789(15) 0.55583(19)
N3 N 0.64971(18) 0.02813(15) 0.55806(19)
N4 N 0.70259(17) 0.12054(14) 0.60719(16)
N5 N 0.70329(19) 0.18508(15) 0.6353(2)
H5 H 0.7242 0.1858 0.6872
H6 H 0.7316 0.2133 0.6060
N6 N 0.35739(19) 0.11719(15) 0.6241(2)
C1 C 0.9161(2) 0.07662(17) 0.5351(2)
H9 H 0.8898 0.0522 0.4926
C2 C 1.0060(2) 0.08985(18) 0.5422(2)
H10 H 1.0394 0.0733 0.5037
C3 C 0.9976(2) 0.14779(19) 0.6562(2)
H11 H 1.0254 0.1720 0.6982
C4 C 0.9079(2) 0.13732(19) 0.6539(2)
H12 H 0.8759 0.1547 0.6930
C5 C 0.8659(2) 0.10053(17) 0.5927(2)
C6 C 0.7708(2) 0.08351(17) 0.5854(2)
C7 C 0.6283(2) 0.08412(17) 0.5887(2)
C8 C 0.5366(2) 0.09940(18) 0.6033(2)
C9 C 0.5053(3) 0.1581(2) 0.6292(3)
H13 H 0.5439 0.1930 0.6405
C10 C 0.4168(3) 0.1644(2) 0.6382(3)
H14 H 0.3972 0.2045 0.6553
C11 C 0.3880(3) 0.0604(2) 0.6006(3)
H15 H 0.3481 0.0261 0.5908
C12 C 0.4745(2) 0.0497(2) 0.5902(3)
H16 H 0.4922 0.0087 0.5742
C13 C 1.2177(2) 0.24885(17) 0.6823(2)
C14 C 1.2374(2) 0.31526(17) 0.7154(2)
C15 C 1.2315(3) 0.36976(18) 0.6672(2)
H17 H 1.2136 0.3654 0.6131
C16 C 1.2521(3) 0.43091(18) 0.6987(2)
H18 H 1.2488 0.4673 0.6656
C17 C 1.2774(2) 0.43824(17) 0.7795(2)
C18 C 1.2966(2) 0.50442(17) 0.8131(2)
C19 C 1.2809(3) 0.38406(19) 0.8274(2)
H19 H 1.2967 0.3884 0.8818
C20 C 1.2610(3) 0.32335(19) 0.7956(2)
H20 H 1.2637 0.2871 0.8289
Cd1A Cd 1.298294(15) 0.625347(12) 0.879485(15)
Cd1_2 Cd 0.201706(15) 0.125347(12) 0.620515(15)
O3A O 1.2058(2) 0.05242(13) 0.73229(16)
O4A O 1.18859(16) 0.01023(13) 0.61234(14)
N6_2 N 1.35739(19) 0.11719(15) 0.6241(2)
Cd2 Cd 0.307391(15) 0.324586(12) 0.389553(15)
O6 O 0.3216(3) 0.45265(17) 0.4185(2)
O7 O 0.2844(2) 0.40845(14) 0.30268(19)
O8 O 0.20328(17) 0.70014(14) 0.11176(15)
O9 O 0.2101(2) 0.75586(12) 0.22304(17)
O10 O 0.33414(19) 0.30764(15) 0.52304(16)
H3 H 0.3832 0.3216 0.5527
H4 H 0.2930 0.2920 0.5527
N7 N 0.4624(2) 0.31875(15) 0.3993(2)
N8 N 0.7750(2) 0.25469(18) 0.4992(2)
N9 N 0.8658(2) 0.25434(18) 0.4985(2)
N10 N 0.80981(18) 0.32820(15) 0.41360(19)
N11 N 0.8080(2) 0.37586(17) 0.3547(2)
H7 H 0.7776 0.3621 0.3093
H8 H 0.7882 0.4138 0.3727
N12 N 1.1555(2) 0.32174(16) 0.4040(2)
C21 C 0.5916(3) 0.2575(2) 0.4447(3)
H21 H 0.6156 0.2184 0.4649
C22 C 0.5010(3) 0.2646(2) 0.4300(3)
H22 H 0.4651 0.2300 0.4421
C23 C 0.5152(3) 0.3664(2) 0.3836(3)
H23 H 0.4895 0.4043 0.3613
C24 C 0.6067(3) 0.3643(2) 0.3977(3)
H24 H 0.6407 0.4001 0.3859
C25 C 0.6466(2) 0.30865(19) 0.4294(2)
C26 C 0.7421(2) 0.29895(19) 0.4482(2)
C27 C 0.8861(2) 0.29844(19) 0.4470(2)
C28 C 0.9763(2) 0.3101(2) 0.4293(2)
C29 C 1.0071(3) 0.3612(3) 0.3885(4)
H25 H 0.9681 0.3935 0.3681
C30 C 1.0948(3) 0.3652(3) 0.3772(4)
H26 H 1.1132 0.4007 0.3489
C31 C 1.1264(3) 0.2720(2) 0.4434(3)
H27 H 1.1670 0.2400 0.4622
C32 C 1.0392(3) 0.2646(2) 0.4583(3)
H28 H 1.0227 0.2291 0.4877
C33 C 0.2942(3) 0.4572(2) 0.3474(3)
C34 C 0.2704(3) 0.52255(19) 0.3106(2)
C35 C 0.2207(3) 0.52450(19) 0.2374(2)
H29 H 0.1997 0.4856 0.2139
C36 C 0.2013(3) 0.58230(18) 0.1981(2)
H30 H 0.1682 0.5821 0.1485
C37 C 0.2312(2) 0.64115(18) 0.2324(2)
C38 C 0.2138(2) 0.70302(18) 0.1864(2)
C39 C 0.2780(3) 0.6400(2) 0.3075(3)
H31 H 0.2964 0.6792 0.3318
C40 C 0.2981(3) 0.5814(2) 0.3470(3)
H32 H 0.3296 0.5814 0.3973
Cd2A Cd 0.192609(15) 0.824586(12) 0.110447(15)
Cd2_2 Cd 1.307391(15) 0.324586(12) 0.389553(15)
O8A O 0.29672(17) 0.20014(14) 0.38824(15)
O9A O 0.2899(2) 0.25586(12) 0.27696(17)
N12_2 N 0.1555(2) 0.32174(16) 0.4040(2)
C41 C 0.4811(5) 0.5400(4) 0.2183(6)
H33 H 0.4975 0.5060 0.2561
H34 H 0.5157 0.5361 0.1741
H35 H 0.4193 0.5362 0.1997
C42 C 0.4783(8) 0.6617(6) 0.2080(8)
H36 H 0.4774 0.6987 0.2429
H37 H 0.4216 0.6575 0.1773
H38 H 0.5234 0.6679 0.1730
C43 C 0.5253(5) 0.6169(5) 0.3325(6)
H39 H 0.5373 0.5825 0.3679
N13 N 0.4975(3) 0.6023(3) 0.2555(4)
O11 O 0.5354(4) 0.6718(3) 0.3580(4)
C44 C 0.9947(12) 0.3342(7) 0.7379(11)
H40 H 1.0090 0.2972 0.7068
H41 H 0.9399 0.3263 0.7598
H42 H 1.0412 0.3411 0.7802
C45 C 0.9325(11) 0.3951(8) 0.6217(8)
H43 H 0.9031 0.3601 0.5956
C46 C 1.0228(8) 0.4518(6) 0.7247(9)
H44 H 0.9879 0.4677 0.7647
H45 H 1.0214 0.4829 0.6821
H46 H 1.0829 0.4455 0.7475
N14 N 0.9878(5) 0.3918(4) 0.6950(6)
O12 O 0.9304(11) 0.4507(9) 0.5994(11)
O13 O 0.7754(4) 0.4768(2) 0.4722(2)
loop_
_geom_bond_atom_site_label_1
_geom_bond_atom_site_label_2
_geom_bond_site_symmetry_1
_geom_bond_site_symmetry_2
Cd1 O1 1_555 1_555
Cd2 O6 1_555 1_555
O1 C13 1_555 1_555
O2 Cd1 1_555 1_555
O3 C18 1_555 1_555
O4 C18 1_555 1_555
O5 Cd1 1_555 1_555
H1 O5 1_555 1_555
H2 O5 1_555 1_555
O6 C33 1_555 1_555
O7 Cd2 1_555 1_555
O8 C38 1_555 1_555
O9 C38 1_555 1_555
O10 Cd2 1_555 1_555
H3 O10 1_555 1_555
H4 O10 1_555 1_555
N1 Cd1 1_555 1_555
N2 N3 1_555 1_555
N3 C7 1_555 1_555
N4 N5 1_555 1_555
N5 H5 1_555 1_555
H6 N5 1_555 1_555
N6 C10 1_555 1_555
N7 Cd2 1_555 1_555
N8 N9 1_555 1_555
N9 C27 1_555 1_555
N10 N11 1_555 1_555
N11 H7 1_555 1_555
H8 N11 1_555 1_555
N12 C30 1_555 1_555
C1 H9 1_555 1_555
C2 N1 1_555 1_555
H10 C2 1_555 1_555
C3 N1 1_555 1_555
H11 C3 1_555 1_555
C4 C3 1_555 1_555
H12 C4 1_555 1_555
C5 C1 1_555 1_555
C6 N2 1_555 1_555
C7 N4 1_555 1_555
C8 C7 1_555 1_555
C9 C8 1_555 1_555
H13 C9 1_555 1_555
C10 C9 1_555 1_555
H14 C10 1_555 1_555
C11 N6 1_555 1_555
H15 C11 1_555 1_555
C12 C8 1_555 1_555
H16 C12 1_555 1_555
C13 O2 1_555 1_555
C14 C13 1_555 1_555
C15 C14 1_555 1_555
H17 C15 1_555 1_555
C16 C15 1_555 1_555
H18 C16 1_555 1_555
C17 C16 1_555 1_555
C18 C17 1_555 1_555
C19 C17 1_555 1_555
H19 C19 1_555 1_555
C20 C14 1_555 1_555
H20 C20 1_555 1_555
C21 H21 1_555 1_555
C22 N7 1_555 1_555
H22 C22 1_555 1_555
C23 N7 1_555 1_555
H23 C23 1_555 1_555
C24 C23 1_555 1_555
H24 C24 1_555 1_555
C25 C21 1_555 1_555
C26 N8 1_555 1_555
C27 N10 1_555 1_555
C28 C27 1_555 1_555
C29 C28 1_555 1_555
H25 C29 1_555 1_555
C30 C29 1_555 1_555
H26 C30 1_555 1_555
C31 N12 1_555 1_555
H27 C31 1_555 1_555
C32 C28 1_555 1_555
H28 C32 1_555 1_555
C33 O7 1_555 1_555
C34 C33 1_555 1_555
C35 C34 1_555 1_555
H29 C35 1_555 1_555
C36 C35 1_555 1_555
H30 C36 1_555 1_555
C37 C36 1_555 1_555
C38 C37 1_555 1_555
C39 C37 1_555 1_555
H31 C39 1_555 1_555
C40 C34 1_555 1_555
H32 C40 1_555 1_555
C41 H33 1_555 1_555
H34 C41 1_555 1_555
H35 C41 1_555 1_555
C42 H36 1_555 1_555
H37 C42 1_555 1_555
H38 C42 1_555 1_555
C43 H39 1_555 1_555
N13 C41 1_555 1_555
O11 C43 1_555 1_555
C44 H40 1_555 1_555
H41 C44 1_555 1_555
H42 C44 1_555 1_555
C45 H43 1_555 1_555
C46 H44 1_555 1_555
H45 C46 1_555 1_555
H46 C46 1_555 1_555
N14 C44 1_555 1_555
O12 C45 1_555 1_555
Cd1A O3 1_555 1_555
Cd1_2 N6 1_555 1_555
Cd2A O8 1_555 1_555
Cd2_2 N12 1_555 1_555
O3A Cd1 1_555 1_555
O4A Cd1 1_555 1_555
O8A Cd2 1_555 1_555
O9A Cd2 1_555 1_555
N6_2 Cd1 1_555 1_555
N12_2 Cd2 1_555 1_555
O4 Cd1A 1_555 1_555
O9 Cd2A 1_555 1_555
N4 C6 1_555 1_555
N10 C26 1_555 1_555
C1 C2 1_555 1_555
C4 C5 1_555 1_555
C5 C6 1_555 1_555
C11 C12 1_555 1_555
C19 C20 1_555 1_555
C21 C22 1_555 1_555
C24 C25 1_555 1_555
C25 C26 1_555 1_555
C31 C32 1_555 1_555
C39 C40 1_555 1_555
C42 N13 1_555 1_555
C43 N13 1_555 1_555
C45 N14 1_555 1_555
C46 N14 1_555 1_555

#END
