
#######################################################################
#
#                 Cambridge Crystallographic Data Centre
#                                CCDC 
#
#######################################################################
#
# If this CIF has been generated from an entry in the Cambridge 
# Structural Database, then it will include bibliographic, chemical, 
# crystal, experimental, refinement or atomic coordinate data resulting 
# from the CCDC's data processing and validation procedures.
#
#######################################################################

data_MAYXIU
_symmetry_cell_setting           monoclinic
_symmetry_space_group_name_H-M   'P 21/c'
_symmetry_Int_Tables_number      14
_space_group_name_Hall           '-P 2ybc'
loop_
_symmetry_equiv_pos_site_id
_symmetry_equiv_pos_as_xyz
1 x,y,z
2 -x,1/2+y,1/2-z
3 -x,-y,-z
4 x,1/2-y,1/2+z
_cell_length_a                   10.8387(11)
_cell_length_b                   11.6113(12)
_cell_length_c                   28.883(3)
_cell_angle_alpha                90
_cell_angle_beta                 99.010(2)
_cell_angle_gamma                90
_cell_volume                     3590.11
loop_
_atom_site_label
_atom_site_type_symbol
_atom_site_fract_x
_atom_site_fract_y
_atom_site_fract_z
Cu1 Cu 0.5000 0.5000 0.0000
O5 O 0.33883(19) 0.47960(19) 0.01990(8)
O6 O 0.2828(2) 0.5355(2) -0.05340(9)
N7 N 0.5106(2) 0.6610(2) 0.02610(10)
N8 N 0.4599(2) 1.0580(2) 0.10483(9)
N9 N 0.3462(2) 1.0105(2) 0.11284(11)
H5 H 0.2841 1.0639 0.1016
H6 H 0.3348 1.0112 0.1443
N10 N 0.6169(3) 1.1702(3) 0.09761(12)
N11 N 0.6384(3) 1.0648(3) 0.07910(12)
N12 N 0.3632(4) 1.4767(3) 0.16075(14)
C21 C 0.3403(4) 1.2744(4) 0.14556(16)
H19 H 0.2912 1.2089 0.1460
C22 C 0.2987(4) 1.3814(5) 0.15901(16)
H20 H 0.2193 1.3850 0.1673
C23 C 0.4767(5) 1.4670(4) 0.14986(18)
H21 H 0.5271 1.5322 0.1529
C24 C 0.5252(4) 1.3686(3) 0.13458(15)
H22 H 0.6046 1.3685 0.1262
C25 C 0.4551(3) 1.2685(3) 0.13168(12)
C26 C 0.5091(3) 1.1664(3) 0.11274(12)
C27 C 0.5438(3) 0.9983(3) 0.08347(12)
C28 C 0.5295(3) 0.8806(3) 0.06487(12)
C29 C 0.5863(3) 0.8532(3) 0.02640(13)
H23 H 0.6318 0.9086 0.0131
C30 C 0.5750(3) 0.7441(3) 0.00825(13)
H24 H 0.6136 0.7269 -0.0175
C31 C 0.4585(3) 0.6875(3) 0.06355(13)
H25 H 0.4144 0.6304 0.0765
C32 C 0.4663(3) 0.7947(3) 0.08399(13)
H26 H 0.4293 0.8089 0.1104
C33 C 0.2565(3) 0.5047(3) -0.01543(13)
C34 C 0.1234(3) 0.4995(3) -0.00727(12)
C35 C 0.0278(3) 0.5209(3) -0.04436(13)
H27 H 0.0465 0.5340 -0.0743
C36 C 0.0944(3) 0.4771(3) 0.03682(13)
H28 H 0.1579 0.4606 0.0615
Cu1_2 Cu -0.5000 0.5000 0.0000
O5B O -0.33883(19) 0.52040(19) -0.01990(8)
O5B_2 O 0.66117(19) 0.52040(19) -0.01990(8)
O6B O -0.2828(2) 0.4645(2) 0.05340(9)
N7B N 0.4894(2) 0.3390(2) -0.02610(10)
N8B N 0.5401(2) -0.0580(2) -0.10483(9)
N9B N 0.6538(2) -0.0105(2) -0.11284(11)
H5B H 0.7159 -0.0639 -0.1016
H6B H 0.6652 -0.0112 -0.1443
N10B N 0.3831(3) -0.1702(3) -0.09761(12)
N11B N 0.3616(3) -0.0648(3) -0.07910(12)
N12B N 0.6368(4) -0.4767(3) -0.16075(14)
C21B C 0.6597(4) -0.2744(4) -0.14556(16)
H19B H 0.7088 -0.2089 -0.1460
C22B C 0.7013(4) -0.3814(5) -0.15901(16)
H20B H 0.7807 -0.3850 -0.1673
C23B C 0.5233(5) -0.4670(4) -0.14986(18)
H21B H 0.4729 -0.5322 -0.1529
C24B C 0.4748(4) -0.3686(3) -0.13458(15)
H22B H 0.3954 -0.3685 -0.1262
C25B C 0.5449(3) -0.2685(3) -0.13168(12)
C26B C 0.4909(3) -0.1664(3) -0.11274(12)
C27B C 0.4562(3) 0.0017(3) -0.08347(12)
C28B C 0.4705(3) 0.1194(3) -0.06487(12)
C29B C 0.4137(3) 0.1468(3) -0.02640(13)
H23B H 0.3682 0.0914 -0.0131
C30B C 0.4250(3) 0.2559(3) -0.00825(13)
H24B H 0.3864 0.2731 0.0175
C31B C 0.5415(3) 0.3125(3) -0.06355(13)
H25B H 0.5856 0.3696 -0.0765
C32B C 0.5337(3) 0.2053(3) -0.08399(13)
H26B H 0.5707 0.1911 -0.1104
C33B C -0.2565(3) 0.4953(3) 0.01543(13)
C34B C -0.1234(3) 0.5005(3) 0.00727(12)
C35B C -0.0278(3) 0.4791(3) 0.04436(13)
H27B H -0.0465 0.4660 0.0743
C36B C -0.0944(3) 0.5229(3) -0.03682(13)
H28B H -0.1579 0.5394 -0.0615
Cu2 Cu 1.06031(3) 0.74888(3) 0.212591(13)
O1 O 0.87344(17) 0.73918(18) 0.20265(7)
O2 O 0.89657(19) 0.9150(2) 0.23160(9)
O3 O 0.2451(2) 0.9528(2) 0.20765(11)
O4 O 0.24044(18) 0.7659(2) 0.22470(8)
O7 O 1.0711(2) 0.5561(2) 0.19138(9)
H1 H 0.9946 0.5529 0.1791
H2 H 1.0825 0.5077 0.2137
N1 N 1.0517(2) 0.7898(2) 0.14412(9)
N2 N 0.8829(3) 0.8666(3) -0.02400(10)
N3 N 0.8833(3) 0.8626(3) -0.07160(9)
N4 N 1.0681(2) 0.8114(2) -0.03640(9)
N5 N 1.1976(2) 0.7887(2) -0.02631(9)
H3 H 1.2128 0.7218 -0.0432
H4 H 1.2375 0.8401 -0.0443
N6 N 1.0568(2) 0.7848(2) -0.21905(9)
C1 C 0.9421(3) 0.8731(3) 0.07424(11)
H7 H 0.8759 0.9182 0.0601
C2 C 0.9596(3) 0.8545(3) 0.12163(11)
H8 H 0.9044 0.8888 0.1391
C3 C 1.1315(3) 0.7450(3) 0.11861(11)
H9 H 1.1973 0.7008 0.1338
C4 C 1.1223(3) 0.7603(3) 0.07120(11)
H10 H 1.1815 0.7283 0.0550
C5 C 1.0243(3) 0.8238(3) 0.04761(10)
C6 C 0.9948(3) 0.8353(3) -0.00303(11)
C7 C 0.9949(3) 0.8300(3) -0.07865(11)
C8 C 1.0255(3) 0.8144(3) -0.12610(10)
C9 C 1.1091(3) 0.7343(3) -0.13857(11)
H11 H 1.1563 0.6890 -0.1158
C10 C 1.1213(3) 0.7225(3) -0.18489(11)
H12 H 1.1776 0.6683 -0.1928
C11 C 0.9778(3) 0.8636(3) -0.20713(11)
H13 H 0.9327 0.9084 -0.2306
C12 C 0.9606(3) 0.8811(3) -0.16164(11)
H14 H 0.9055 0.9375 -0.1546
C13 C 0.8295(3) 0.8315(3) 0.21765(11)
C14 C 0.6916(3) 0.8365(3) 0.21808(11)
C15 C 0.6336(3) 0.9429(3) 0.21950(12)
H15 H 0.6803 1.0103 0.2202
C16 C 0.5069(3) 0.9485(3) 0.21980(12)
H16 H 0.4687 1.0200 0.2206
C17 C 0.4356(3) 0.8498(3) 0.21898(11)
C18 C 0.2957(3) 0.8591(3) 0.21731(11)
C19 C 0.4939(3) 0.7438(3) 0.21838(12)
H17 H 0.4473 0.6766 0.2187
C20 C 0.6206(3) 0.7373(3) 0.21739(12)
H18 H 0.6586 0.6657 0.2162
Cu2_2 Cu 2.06031(3) 0.74888(3) 0.212591(13)
Cu2_3 Cu 0.06031(3) 0.74888(3) 0.212591(13)
Cu2C Cu 1.06031(3) 0.75112(3) -0.287409(13)
Cu2C_2 Cu 1.06031(3) 0.75112(3) 0.712591(13)
O1_2 O 1.87344(17) 0.73918(18) 0.20265(7)
O2_2 O 1.89657(19) 0.9150(2) 0.23160(9)
O3_2 O 1.2451(2) 0.9528(2) 0.20765(11)
O4_2 O 1.24044(18) 0.7659(2) 0.22470(8)
O4_3 O 2.24044(18) 0.7659(2) 0.22470(8)
O7_2 O 2.0711(2) 0.5561(2) 0.19138(9)
H1_2 H 1.9946 0.5529 0.1791
H2_2 H 2.0825 0.5077 0.2137
N1C N 1.0517(2) 0.7102(2) 0.64412(9)
N1_2 N 2.0517(2) 0.7898(2) 0.14412(9)
N2C N 0.8829(3) 0.6334(3) 0.47600(10)
N3C N 0.8833(3) 0.6374(3) 0.42840(9)
N4C N 1.0681(2) 0.6886(2) 0.46360(9)
N5C N 1.1976(2) 0.7113(2) 0.47369(9)
H3C H 1.2128 0.7782 0.4568
H4C H 1.2375 0.6599 0.4557
N6C N 1.0568(2) 0.7152(2) 0.28095(9)
N6C_2 N 2.0568(2) 0.7152(2) 0.28095(9)
C1C C 0.9421(3) 0.6269(3) 0.57424(11)
H7C H 0.8759 0.5818 0.5601
C2C C 0.9596(3) 0.6455(3) 0.62163(11)
H8C H 0.9044 0.6112 0.6391
C3C C 1.1315(3) 0.7550(3) 0.61861(11)
H9C H 1.1973 0.7992 0.6338
C4C C 1.1223(3) 0.7397(3) 0.57120(11)
H10C H 1.1815 0.7717 0.5550
C5C C 1.0243(3) 0.6762(3) 0.54761(10)
C6C C 0.9948(3) 0.6647(3) 0.49697(11)
C7C C 0.9949(3) 0.6700(3) 0.42135(11)
C8C C 1.0255(3) 0.6856(3) 0.37390(10)
C9C C 1.1091(3) 0.7657(3) 0.36143(11)
H11C H 1.1563 0.8110 0.3842
C10C C 1.1213(3) 0.7775(3) 0.31511(11)
H12C H 1.1776 0.8317 0.3072
C11C C 0.9778(3) 0.6364(3) 0.29287(11)
H13C H 0.9327 0.5916 0.2694
C12C C 0.9606(3) 0.6189(3) 0.33836(11)
H14C H 0.9055 0.5625 0.3454
C13_2 C 1.8295(3) 0.8315(3) 0.21765(11)
C14_2 C 1.6916(3) 0.8365(3) 0.21808(11)
C15_2 C 1.6336(3) 0.9429(3) 0.21950(12)
H15_2 H 1.6803 1.0103 0.2202
C16_2 C 1.5069(3) 0.9485(3) 0.21980(12)
H16_2 H 1.4687 1.0200 0.2206
C17_2 C 1.4356(3) 0.8498(3) 0.21898(11)
C18_2 C 1.2957(3) 0.8591(3) 0.21731(11)
C19_2 C 1.4939(3) 0.7438(3) 0.21838(12)
H17_2 H 1.4473 0.6766 0.2187
C20_2 C 1.6206(3) 0.7373(3) 0.21739(12)
H18_2 H 1.6586 0.6657 0.2162
O8 O 0.8001(3) 0.5423(3) 0.14822(12)
H29 H 0.7546 0.5440 0.1207
H30 H 0.8036 0.6091 0.1618
loop_
_geom_bond_atom_site_label_1
_geom_bond_atom_site_label_2
_geom_bond_site_symmetry_1
_geom_bond_site_symmetry_2
Cu1 O5 1_555 1_555
Cu2 O1 1_555 1_555
O1 C13 1_555 1_555
O2 C13 1_555 1_555
O3 C18 1_555 1_555
O4 C18 1_555 1_555
O5 C33 1_555 1_555
O6 C33 1_555 1_555
O7 Cu2 1_555 1_555
H1 O7 1_555 1_555
H2 O7 1_555 1_555
N1 Cu2 1_555 1_555
N2 N3 1_555 1_555
N3 C7 1_555 1_555
N4 N5 1_555 1_555
N5 H3 1_555 1_555
H4 N5 1_555 1_555
N6 C10 1_555 1_555
N7 Cu1 1_555 1_555
N8 N9 1_555 1_555
N9 H5 1_555 1_555
H6 N9 1_555 1_555
N10 N11 1_555 1_555
N11 C27 1_555 1_555
N12 C22 1_555 1_555
C1 H7 1_555 1_555
C2 N1 1_555 1_555
H8 C2 1_555 1_555
C3 N1 1_555 1_555
H9 C3 1_555 1_555
C4 C3 1_555 1_555
H10 C4 1_555 1_555
C5 C1 1_555 1_555
C6 N2 1_555 1_555
C7 N4 1_555 1_555
C8 C7 1_555 1_555
C9 C8 1_555 1_555
H11 C9 1_555 1_555
C10 C9 1_555 1_555
H12 C10 1_555 1_555
C11 N6 1_555 1_555
H13 C11 1_555 1_555
C12 C8 1_555 1_555
H14 C12 1_555 1_555
C13 C14 1_555 1_555
C14 C15 1_555 1_555
C15 H15 1_555 1_555
C16 C15 1_555 1_555
H16 C16 1_555 1_555
C17 C16 1_555 1_555
C18 C17 1_555 1_555
C19 C17 1_555 1_555
H17 C19 1_555 1_555
C20 C14 1_555 1_555
H18 C20 1_555 1_555
C21 H19 1_555 1_555
C22 C21 1_555 1_555
H20 C22 1_555 1_555
C23 N12 1_555 1_555
H21 C23 1_555 1_555
C24 C23 1_555 1_555
H22 C24 1_555 1_555
C25 C21 1_555 1_555
C26 N8 1_555 1_555
C27 N8 1_555 1_555
C28 C27 1_555 1_555
C29 C28 1_555 1_555
H23 C29 1_555 1_555
C30 N7 1_555 1_555
H24 C30 1_555 1_555
C31 N7 1_555 1_555
H25 C31 1_555 1_555
C32 C28 1_555 1_555
H26 C32 1_555 1_555
C33 C34 1_555 1_555
C34 C35 1_555 1_555
C35 H27 1_555 1_555
C36 C34 1_555 1_555
H28 C36 1_555 1_555
O8 H29 1_555 1_555
H30 O8 1_555 1_555
Cu1_2 O5B 1_555 1_555
Cu2_2 O1_2 1_555 1_555
Cu2_3 O4 1_555 1_555
Cu2C N6 1_555 1_555
Cu2C_2 N1C 1_555 1_555
O1_2 C13_2 1_555 1_555
O2_2 C13_2 1_555 1_555
O3_2 C18_2 1_555 1_555
O4_2 Cu2 1_555 1_555
O4_3 Cu2_2 1_555 1_555
O5B C33B 1_555 1_555
O5B_2 Cu1 1_555 1_555
O6B C33B 1_555 1_555
O7_2 Cu2_2 1_555 1_555
H1_2 O7_2 1_555 1_555
H2_2 O7_2 1_555 1_555
N1C C2C 1_555 1_555
N1_2 Cu2_2 1_555 1_555
N2C N3C 1_555 1_555
N3C C7C 1_555 1_555
N4C N5C 1_555 1_555
N5C H3C 1_555 1_555
H4C N5C 1_555 1_555
N6C Cu2 1_555 1_555
N6C_2 Cu2_2 1_555 1_555
N7B Cu1 1_555 1_555
N8B N9B 1_555 1_555
N9B H5B 1_555 1_555
H6B N9B 1_555 1_555
N10B N11B 1_555 1_555
N11B C27B 1_555 1_555
N12B C22B 1_555 1_555
C1C H7C 1_555 1_555
C2C C1C 1_555 1_555
H8C C2C 1_555 1_555
C3C N1C 1_555 1_555
H9C C3C 1_555 1_555
C4C C3C 1_555 1_555
H10C C4C 1_555 1_555
C5C C1C 1_555 1_555
C6C N2C 1_555 1_555
C7C N4C 1_555 1_555
C8C C7C 1_555 1_555
C9C C8C 1_555 1_555
H11C C9C 1_555 1_555
C10C N6C 1_555 1_555
H12C C10C 1_555 1_555
C11C N6C 1_555 1_555
H13C C11C 1_555 1_555
C12C C8C 1_555 1_555
H14C C12C 1_555 1_555
C13_2 C14_2 1_555 1_555
C14_2 C15_2 1_555 1_555
C15_2 H15_2 1_555 1_555
C16_2 C15_2 1_555 1_555
H16_2 C16_2 1_555 1_555
C17_2 C16_2 1_555 1_555
C18_2 O4_2 1_555 1_555
C19_2 C17_2 1_555 1_555
H17_2 C19_2 1_555 1_555
C20_2 C14_2 1_555 1_555
H18_2 C20_2 1_555 1_555
C21B H19B 1_555 1_555
C22B C21B 1_555 1_555
H20B C22B 1_555 1_555
C23B N12B 1_555 1_555
H21B C23B 1_555 1_555
C24B C23B 1_555 1_555
H22B C24B 1_555 1_555
C25B C21B 1_555 1_555
C26B N8B 1_555 1_555
C27B N8B 1_555 1_555
C28B C27B 1_555 1_555
C29B C28B 1_555 1_555
H23B C29B 1_555 1_555
C30B N7B 1_555 1_555
H24B C30B 1_555 1_555
C31B N7B 1_555 1_555
H25B C31B 1_555 1_555
C32B C28B 1_555 1_555
H26B C32B 1_555 1_555
C33B C34B 1_555 1_555
C34B C35B 1_555 1_555
C35B C36 1_555 1_555
H27B C35B 1_555 1_555
C36B C35 1_555 1_555
H28B C36B 1_555 1_555
N4 C6 1_555 1_555
N10 C26 1_555 1_555
C1 C2 1_555 1_555
C4 C5 1_555 1_555
C5 C6 1_555 1_555
C11 C12 1_555 1_555
C19 C20 1_555 1_555
C24 C25 1_555 1_555
C25 C26 1_555 1_555
C29 C30 1_555 1_555
C31 C32 1_555 1_555
N4C C6C 1_555 1_555
N10B C26B 1_555 1_555
C4C C5C 1_555 1_555
C5C C6C 1_555 1_555
C9C C10C 1_555 1_555
C11C C12C 1_555 1_555
C17_2 C18_2 1_555 1_555
C19_2 C20_2 1_555 1_555
C24B C25B 1_555 1_555
C25B C26B 1_555 1_555
C29B C30B 1_555 1_555
C31B C32B 1_555 1_555
C34B C36B 1_555 1_555

#END
