
#######################################################################
#
#                 Cambridge Crystallographic Data Centre
#                                CCDC 
#
#######################################################################
#
# If this CIF has been generated from an entry in the Cambridge 
# Structural Database, then it will include bibliographic, chemical, 
# crystal, experimental, refinement or atomic coordinate data resulting 
# from the CCDC's data processing and validation procedures.
#
#######################################################################

data_MAZGOK
_symmetry_cell_setting           monoclinic
_symmetry_space_group_name_H-M   'P 21/n'
_symmetry_Int_Tables_number      14
_space_group_name_Hall           '-P 2yn'
loop_
_symmetry_equiv_pos_site_id
_symmetry_equiv_pos_as_xyz
1 x,y,z
2 1/2-x,1/2+y,1/2-z
3 -x,-y,-z
4 1/2+x,1/2-y,1/2+z
_cell_length_a                   10.224(2)
_cell_length_b                   19.666(5)
_cell_length_c                   11.481(2)
_cell_angle_alpha                90
_cell_angle_beta                 92.953(18)
_cell_angle_gamma                90
_cell_volume                     2305.36
loop_
_atom_site_label
_atom_site_type_symbol
_atom_site_fract_x
_atom_site_fract_y
_atom_site_fract_z
Co1 Co 0.0000 0.0000 0.0000
S1 S 0.29173(5) -0.04550(3) 0.32993(4)
N1 N 0.08775(15) -0.01709(7) 0.16562(13)
N2 N -0.22162(15) -0.11614(8) 0.38727(13)
N3 N 0.83726(16) -0.22003(8) 0.74248(13)
N4 N -0.18816(14) -0.04800(7) 0.05055(12)
N5 N 1.08051(14) -0.09543(7) 0.94503(12)
C1 C 0.17206(18) -0.02943(9) 0.23551(15)
C2 C 0.22238(18) -0.16694(9) 0.58612(14)
C3 C 0.14126(19) -0.20321(10) 0.50663(15)
H1 H 0.1708 -0.2453 0.4771
C4 C 0.01975(18) -0.17928(10) 0.47028(15)
H2 H -0.0327 -0.2047 0.4152
C5 C -0.02766(18) -0.11821(9) 0.51307(15)
C6 C 0.05057(19) -0.08299(10) 0.59541(15)
H3 H 0.0190 -0.0420 0.6275
C7 C 0.17330(19) -0.10661(10) 0.63132(16)
H4 H 0.2250 -0.0816 0.6874
C8 C -0.15177(18) -0.08873(10) 0.46803(16)
H5 H -0.1808 -0.0474 0.5009
C9 C -0.33603(19) -0.07949(10) 0.34022(16)
H6 H -0.3398 -0.0339 0.3765
H7 H -0.4167 -0.1045 0.3577
C10 C 0.35607(18) -0.19080(10) 0.62046(15)
C11 C 0.4602(2) -0.14458(10) 0.63645(17)
H8 H 0.4444 -0.0975 0.6238
C12 C 0.5840(2) -0.16592(10) 0.66986(17)
H9 H 0.6529 -0.1337 0.6801
C13 C 0.60939(18) -0.23541(10) 0.68898(15)
C14 C 0.50704(19) -0.28112(10) 0.67190(15)
H10 H 0.5227 -0.3283 0.6841
C15 C 0.38303(19) -0.25936(10) 0.63762(15)
H11 H 0.3148 -0.2918 0.6255
C16 C 0.74002(19) -0.25934(10) 0.72756(15)
H12 H 0.7523 -0.3065 0.7420
C17 C 0.96212(19) -0.25105(10) 0.77888(18)
H13 H 0.9457 -0.2924 0.8250
H14 H 1.0079 -0.2650 0.7088
C18 C -0.20903(17) -0.05340(9) 0.16457(15)
H15 H -0.1379 -0.0434 0.2183
C19 C -0.32681(17) -0.07255(9) 0.20989(16)
C20 C -0.43013(18) -0.08752(11) 0.13125(18)
H16 H -0.5129 -0.1004 0.1582
C21 C -0.41119(19) -0.08351(11) 0.01287(18)
H17 H -0.4805 -0.0941 -0.0424
C22 C -0.29057(18) -0.06389(9) -0.02376(17)
H18 H -0.2788 -0.0614 -0.1052
C23 C 1.00705(18) -0.13936(9) 0.88245(15)
H19 H 0.9207 -0.1260 0.8579
C24 C 1.04923(17) -0.20372(9) 0.85087(15)
C25 C 1.17528(18) -0.22217(9) 0.88605(16)
H20 H 1.2080 -0.2657 0.8663
C26 C 1.25364(18) -0.17711(10) 0.95010(17)
H21 H 1.3408 -0.1889 0.9747
C27 C 1.20296(18) -0.11499(10) 0.97739(16)
H22 H 1.2572 -0.0841 1.0215
Co1_2 Co 1.0000 0.0000 1.0000
Co1_3 Co -1.0000 0.0000 -1.0000
S1B S -0.29173(5) 0.04550(3) -0.32993(4)
N1B N -0.08775(15) 0.01709(7) -0.16562(13)
N2B N 0.22162(15) 0.11614(8) -0.38727(13)
N3B N -0.83726(16) 0.22003(8) -0.74248(13)
N4B N 0.18816(14) 0.04800(7) -0.05055(12)
N5B N -1.08051(14) 0.09543(7) -0.94503(12)
N5_2 N 0.08051(14) -0.09543(7) -0.05497(12)
N5B_2 N -0.08051(14) 0.09543(7) 0.05497(12)
C1B C -0.17206(18) 0.02943(9) -0.23551(15)
C2B C -0.22238(18) 0.16694(9) -0.58612(14)
C3B C -0.14126(19) 0.20321(10) -0.50663(15)
H1B H -0.1708 0.2453 -0.4771
C4B C -0.01975(18) 0.17928(10) -0.47028(15)
H2B H 0.0327 0.2047 -0.4152
C5B C 0.02766(18) 0.11821(9) -0.51307(15)
C6B C -0.05057(19) 0.08299(10) -0.59541(15)
H3B H -0.0190 0.0420 -0.6275
C7B C -0.17330(19) 0.10661(10) -0.63132(16)
H4B H -0.2250 0.0816 -0.6874
C8B C 0.15177(18) 0.08873(10) -0.46803(16)
H5B H 0.1808 0.0474 -0.5009
C9B C 0.33603(19) 0.07949(10) -0.34022(16)
H6B H 0.3398 0.0339 -0.3765
H7B H 0.4167 0.1045 -0.3577
C10B C -0.35607(18) 0.19080(10) -0.62046(15)
C11B C -0.4602(2) 0.14458(10) -0.63645(17)
H8B H -0.4444 0.0975 -0.6238
C12B C -0.5840(2) 0.16592(10) -0.66986(17)
H9B H -0.6529 0.1337 -0.6801
C13B C -0.60939(18) 0.23541(10) -0.68898(15)
C14B C -0.50704(19) 0.28112(10) -0.67190(15)
H10B H -0.5227 0.3283 -0.6841
C15B C -0.38303(19) 0.25936(10) -0.63762(15)
H11B H -0.3148 0.2918 -0.6255
C16B C -0.74002(19) 0.25934(10) -0.72756(15)
H12B H -0.7523 0.3065 -0.7420
C17B C -0.96212(19) 0.25105(10) -0.77888(18)
H13B H -0.9457 0.2924 -0.8250
H14B H -1.0079 0.2650 -0.7088
C18B C 0.20903(17) 0.05340(9) -0.16457(15)
H15B H 0.1379 0.0434 -0.2183
C19B C 0.32681(17) 0.07255(9) -0.20989(16)
C20B C 0.43013(18) 0.08752(11) -0.13125(18)
H16B H 0.5129 0.1004 -0.1582
C21B C 0.41119(19) 0.08351(11) -0.01287(18)
H17B H 0.4805 0.0941 0.0424
C22B C 0.29057(18) 0.06389(9) 0.02376(17)
H18B H 0.2788 0.0614 0.1052
C23B C -1.00705(18) 0.13936(9) -0.88245(15)
H19B H -0.9207 0.1260 -0.8579
C24B C -1.04923(17) 0.20372(9) -0.85087(15)
C25B C -1.17528(18) 0.22217(9) -0.88605(16)
H20B H -1.2080 0.2657 -0.8663
C26B C -1.25364(18) 0.17711(10) -0.95010(17)
H21B H -1.3408 0.1889 -0.9747
C27B C -1.20296(18) 0.11499(10) -0.97739(16)
H22B H -1.2572 0.0841 -1.0215
loop_
_geom_bond_atom_site_label_1
_geom_bond_atom_site_label_2
_geom_bond_site_symmetry_1
_geom_bond_site_symmetry_2
Co1 N1 1_555 1_555
S1 C1 1_555 1_555
N1 C1 1_555 1_555
N2 C8 1_555 1_555
N3 C16 1_555 1_555
N4 Co1 1_555 1_555
N5 C23 1_555 1_555
C2 C3 1_555 1_555
C3 H1 1_555 1_555
C4 C3 1_555 1_555
H2 C4 1_555 1_555
C5 C4 1_555 1_555
C6 C5 1_555 1_555
H3 C6 1_555 1_555
C7 C2 1_555 1_555
H4 C7 1_555 1_555
C8 C5 1_555 1_555
H5 C8 1_555 1_555
C9 N2 1_555 1_555
H6 C9 1_555 1_555
H7 C9 1_555 1_555
C10 C2 1_555 1_555
C11 C10 1_555 1_555
H8 C11 1_555 1_555
C12 C11 1_555 1_555
H9 C12 1_555 1_555
C13 C12 1_555 1_555
C14 C13 1_555 1_555
H10 C14 1_555 1_555
C15 C10 1_555 1_555
H11 C15 1_555 1_555
C16 C13 1_555 1_555
H12 C16 1_555 1_555
C17 N3 1_555 1_555
H13 C17 1_555 1_555
H14 C17 1_555 1_555
C18 N4 1_555 1_555
H15 C18 1_555 1_555
C19 C9 1_555 1_555
C20 C19 1_555 1_555
H16 C20 1_555 1_555
C21 C20 1_555 1_555
H17 C21 1_555 1_555
C22 N4 1_555 1_555
H18 C22 1_555 1_555
C23 H19 1_555 1_555
C24 C17 1_555 1_555
C25 C24 1_555 1_555
H20 C25 1_555 1_555
C26 C25 1_555 1_555
H21 C26 1_555 1_555
C27 N5 1_555 1_555
H22 C27 1_555 1_555
Co1_2 N5 1_555 1_555
Co1_3 N5B 1_555 1_555
S1B C1B 1_555 1_555
N1B Co1 1_555 1_555
N2B C8B 1_555 1_555
N3B C16B 1_555 1_555
N4B Co1 1_555 1_555
N5B C23B 1_555 1_555
N5_2 Co1 1_555 1_555
N5B_2 Co1 1_555 1_555
C1B N1B 1_555 1_555
C2B C3B 1_555 1_555
C3B H1B 1_555 1_555
C4B C3B 1_555 1_555
H2B C4B 1_555 1_555
C5B C4B 1_555 1_555
C6B C5B 1_555 1_555
H3B C6B 1_555 1_555
C7B C2B 1_555 1_555
H4B C7B 1_555 1_555
C8B C5B 1_555 1_555
H5B C8B 1_555 1_555
C9B N2B 1_555 1_555
H6B C9B 1_555 1_555
H7B C9B 1_555 1_555
C10B C2B 1_555 1_555
C11B C10B 1_555 1_555
H8B C11B 1_555 1_555
C12B C11B 1_555 1_555
H9B C12B 1_555 1_555
C13B C12B 1_555 1_555
C14B C13B 1_555 1_555
H10B C14B 1_555 1_555
C15B C10B 1_555 1_555
H11B C15B 1_555 1_555
C16B C13B 1_555 1_555
H12B C16B 1_555 1_555
C17B N3B 1_555 1_555
H13B C17B 1_555 1_555
H14B C17B 1_555 1_555
C18B N4B 1_555 1_555
H15B C18B 1_555 1_555
C19B C9B 1_555 1_555
C20B C19B 1_555 1_555
H16B C20B 1_555 1_555
C21B C20B 1_555 1_555
H17B C21B 1_555 1_555
C22B N4B 1_555 1_555
H18B C22B 1_555 1_555
C23B H19B 1_555 1_555
C24B C17B 1_555 1_555
C25B C24B 1_555 1_555
H20B C25B 1_555 1_555
C26B C25B 1_555 1_555
H21B C26B 1_555 1_555
C27B N5B 1_555 1_555
H22B C27B 1_555 1_555
C6 C7 1_555 1_555
C14 C15 1_555 1_555
C18 C19 1_555 1_555
C21 C22 1_555 1_555
C23 C24 1_555 1_555
C26 C27 1_555 1_555
C6B C7B 1_555 1_555
C14B C15B 1_555 1_555
C18B C19B 1_555 1_555
C21B C22B 1_555 1_555
C23B C24B 1_555 1_555
C26B C27B 1_555 1_555

#END
