
#######################################################################
#
#                 Cambridge Crystallographic Data Centre
#                                CCDC 
#
#######################################################################
#
# If this CIF has been generated from an entry in the Cambridge 
# Structural Database, then it will include bibliographic, chemical, 
# crystal, experimental, refinement or atomic coordinate data resulting 
# from the CCDC's data processing and validation procedures.
#
#######################################################################

data_MAZHIF
_symmetry_cell_setting           cubic
_symmetry_space_group_name_H-M   'F 4 3 2'
_symmetry_Int_Tables_number      209
_space_group_name_Hall           'F 4 2 3'
loop_
_symmetry_equiv_pos_site_id
_symmetry_equiv_pos_as_xyz
1 x,y,z
2 -y,x,z
3 -x,-y,z
4 y,-x,z
5 x,-y,-z
6 y,x,-z
7 -x,y,-z
8 -y,-x,-z
9 z,x,y
10 -x,z,y
11 -z,-x,y
12 x,-z,y
13 z,-x,-y
14 x,z,-y
15 -z,x,-y
16 -x,-z,-y
17 y,z,x
18 -z,-y,-x
19 -z,y,x
20 z,y,-x
21 z,-y,x
22 y,-z,-x
23 -y,-z,x
24 -y,z,-x
25 x,1/2+y,1/2+z
26 -y,1/2+x,1/2+z
27 -x,1/2-y,1/2+z
28 y,1/2-x,1/2+z
29 x,1/2-y,1/2-z
30 y,1/2+x,1/2-z
31 -x,1/2+y,1/2-z
32 -y,1/2-x,1/2-z
33 z,1/2+x,1/2+y
34 -x,1/2+z,1/2+y
35 -z,1/2-x,1/2+y
36 x,1/2-z,1/2+y
37 z,1/2-x,1/2-y
38 x,1/2+z,1/2-y
39 -z,1/2+x,1/2-y
40 -x,1/2-z,1/2-y
41 y,1/2+z,1/2+x
42 -z,1/2-y,1/2-x
43 -z,1/2+y,1/2+x
44 z,1/2+y,1/2-x
45 z,1/2-y,1/2+x
46 y,1/2-z,1/2-x
47 -y,1/2-z,1/2+x
48 -y,1/2+z,1/2-x
49 1/2+x,y,1/2+z
50 1/2-y,x,1/2+z
51 1/2-x,-y,1/2+z
52 1/2+y,-x,1/2+z
53 1/2+x,-y,1/2-z
54 1/2+y,x,1/2-z
55 1/2-x,y,1/2-z
56 1/2-y,-x,1/2-z
57 1/2+z,x,1/2+y
58 1/2-x,z,1/2+y
59 1/2-z,-x,1/2+y
60 1/2+x,-z,1/2+y
61 1/2+z,-x,1/2-y
62 1/2+x,z,1/2-y
63 1/2-z,x,1/2-y
64 1/2-x,-z,1/2-y
65 1/2+y,z,1/2+x
66 1/2-z,-y,1/2-x
67 1/2-z,y,1/2+x
68 1/2+z,y,1/2-x
69 1/2+z,-y,1/2+x
70 1/2+y,-z,1/2-x
71 1/2-y,-z,1/2+x
72 1/2-y,z,1/2-x
73 1/2+x,1/2+y,z
74 1/2-y,1/2+x,z
75 1/2-x,1/2-y,z
76 1/2+y,1/2-x,z
77 1/2+x,1/2-y,-z
78 1/2+y,1/2+x,-z
79 1/2-x,1/2+y,-z
80 1/2-y,1/2-x,-z
81 1/2+z,1/2+x,y
82 1/2-x,1/2+z,y
83 1/2-z,1/2-x,y
84 1/2+x,1/2-z,y
85 1/2+z,1/2-x,-y
86 1/2+x,1/2+z,-y
87 1/2-z,1/2+x,-y
88 1/2-x,1/2-z,-y
89 1/2+y,1/2+z,x
90 1/2-z,1/2-y,-x
91 1/2-z,1/2+y,x
92 1/2+z,1/2+y,-x
93 1/2+z,1/2-y,x
94 1/2+y,1/2-z,-x
95 1/2-y,1/2-z,x
96 1/2-y,1/2+z,-x
_cell_length_a                   34.7494(14)
_cell_length_b                   34.7494(14)
_cell_length_c                   34.7494(14)
_cell_angle_alpha                90
_cell_angle_beta                 90
_cell_angle_gamma                90
_cell_volume                     41960.6
loop_
_atom_site_label
_atom_site_type_symbol
_atom_site_fract_x
_atom_site_fract_y
_atom_site_fract_z
Ag1 Ag 0.10308(4) -0.10308(4) 0.10308(4)
Co1 Co 0.135390(16) 0.135390(16) 0.364610(16)
N1 N 0.17260(15) 0.11623(12) 0.32770(15)
N2 N 0.09496(13) 0.10225(11) 0.34622(11)
N3 N 0.1093(2) -0.0593(2) 0.1471(2)
C1 C 0.21072(19) 0.1248(2) 0.32688(17)
H1 H 0.2231 0.1426 0.3436
C2 C 0.2296(2) 0.1033(2) 0.29754(19)
H2 H 0.2559 0.1051 0.2903
C3 C 0.20161(17) 0.07915(19) 0.28147(17)
H3 H 0.2055 0.0609 0.2615
C4 C 0.16620(18) 0.08703(18) 0.30063(14)
C5 C 0.13095(16) 0.07044(13) 0.29349(14)
C6 C 0.09678(15) 0.07790(13) 0.31356(12)
C7 C 0.0602(2) 0.06060(16) 0.30813(14)
H4 H 0.0535 0.0430 0.2883
C8 C 0.03578(16) 0.07395(15) 0.33707(17)
H5 H 0.0096 0.0673 0.3413
C9 C 0.05868(13) 0.09951(16) 0.35850(15)
H6 H 0.0491 0.1136 0.3799
C10 C 0.12866(18) 0.04199(15) 0.26102(16)
C11 C 0.1148(3) 0.05271(18) 0.22576(18)
H7 H 0.1084 0.0790 0.2220
C12 C 0.1098(3) 0.0294(2) 0.19724(19)
H8 H 0.0990 0.0381 0.1737
C13 C 0.1210(2) -0.01031(17) 0.2019(2)
C14 C 0.1347(2) -0.02248(17) 0.2365(2)
H9 H 0.1413 -0.0487 0.2403
C15 C 0.1390(2) 0.00453(19) 0.2666(2)
H10 H 0.1491 -0.0034 0.2907
C16 C 0.1158(2) -0.0374(2) 0.1721(2)
Co1L Co 0.364610(16) -0.135390(16) -0.135390(16)
Co1V Co -0.135390(16) -0.364610(16) 0.135390(16)
N1L N 0.32770(15) -0.17260(15) -0.11623(12)
N1V N -0.11623(12) -0.32770(15) 0.17260(15)
N1SA N 0.11623(12) 0.17230(15) 0.32740(15)
N1JB N 0.17230(15) 0.17260(15) 0.38377(12)
N2L N 0.34622(11) -0.09496(13) -0.10225(11)
N2V N -0.10225(11) -0.34622(11) 0.09496(13)
N2SA N 0.10225(11) 0.15378(11) 0.40504(13)
N2JB N 0.15378(11) 0.09496(13) 0.39775(11)
N3L N 0.1471(2) -0.1093(2) 0.0593(2)
N3V N 0.0593(2) -0.1471(2) 0.1093(2)
C1L C 0.32688(17) -0.21072(19) -0.1248(2)
C1V C -0.1248(2) -0.32688(17) 0.21072(19)
H1L H 0.3436 -0.2231 -0.1426
H1V H -0.1426 -0.3436 0.2231
C2L C 0.29754(19) -0.2296(2) -0.1033(2)
C2V C -0.1033(2) -0.29754(19) 0.2296(2)
H2L H 0.2903 -0.2559 -0.1051
H2V H -0.1051 -0.2903 0.2559
C3L C 0.28147(17) -0.20161(17) -0.07915(19)
C3V C -0.07915(19) -0.28147(17) 0.20161(17)
H3L H 0.2615 -0.2055 -0.0609
H3V H -0.0609 -0.2615 0.2055
C4L C 0.30063(14) -0.16620(18) -0.08703(18)
C4V C -0.08703(18) -0.30063(14) 0.16620(18)
C5L C 0.29349(14) -0.13095(16) -0.07044(13)
C5V C -0.07044(13) -0.29349(14) 0.13095(16)
C6L C 0.31356(12) -0.09678(15) -0.07790(13)
C6V C -0.07790(13) -0.31356(12) 0.09678(15)
C7L C 0.30813(14) -0.0602(2) -0.06060(16)
C7V C -0.06060(16) -0.30813(14) 0.0602(2)
H4L H 0.2883 -0.0535 -0.0430
H4V H -0.0430 -0.2883 0.0535
C8L C 0.33707(17) -0.03578(16) -0.07395(15)
C8V C -0.07395(15) -0.33707(17) 0.03578(16)
H5L H 0.3413 -0.0096 -0.0673
H5V H -0.0673 -0.3413 0.0096
C9L C 0.35850(15) -0.05868(13) -0.09951(16)
C9V C -0.09951(16) -0.35850(15) 0.05868(13)
H6L H 0.3799 -0.0491 -0.1136
H6V H -0.1136 -0.3799 0.0491
C10L C 0.26102(16) -0.12866(18) -0.04199(15)
C10V C -0.04199(15) -0.26102(16) 0.12866(18)
C11L C 0.22576(18) -0.1148(3) -0.05271(18)
C11V C -0.05271(18) -0.22576(18) 0.1148(3)
H7L H 0.2220 -0.1084 -0.0790
H7V H -0.0790 -0.2220 0.1084
C12L C 0.19724(19) -0.1098(3) -0.0294(2)
C12V C -0.0294(2) -0.19724(19) 0.1098(3)
H8L H 0.1737 -0.0990 -0.0381
H8V H -0.0381 -0.1737 0.0990
C13L C 0.2019(2) -0.1210(2) 0.01031(17)
C13V C 0.01031(17) -0.2019(2) 0.1210(2)
C14L C 0.2365(2) -0.1347(2) 0.02248(17)
C14V C 0.02248(17) -0.2365(2) 0.1347(2)
H9L H 0.2403 -0.1413 0.0487
H9V H 0.0487 -0.2403 0.1413
C15L C 0.2666(2) -0.1390(2) -0.00453(19)
C15V C -0.00453(19) -0.2666(2) 0.1390(2)
H10L H 0.2907 -0.1491 0.0034
H10V H 0.0034 -0.2907 0.1491
C16L C 0.1721(2) -0.1158(2) 0.0374(2)
C16V C 0.0374(2) -0.1721(2) 0.1158(2)
loop_
_geom_bond_atom_site_label_1
_geom_bond_atom_site_label_2
_geom_bond_site_symmetry_1
_geom_bond_site_symmetry_2
Ag1 N3 1_555 1_555
Co1 N1 1_555 1_555
N1 C1 1_555 1_555
N2 Co1 1_555 1_555
N3 C16 1_555 1_555
C1 H1 1_555 1_555
C2 C1 1_555 1_555
H2 C2 1_555 1_555
C3 C2 1_555 1_555
H3 C3 1_555 1_555
C4 N1 1_555 1_555
C5 C4 1_555 1_555
C6 N2 1_555 1_555
C7 C6 1_555 1_555
H4 C7 1_555 1_555
C8 C7 1_555 1_555
H5 C8 1_555 1_555
C9 N2 1_555 1_555
H6 C9 1_555 1_555
C10 C5 1_555 1_555
C11 C10 1_555 1_555
H7 C11 1_555 1_555
C12 C11 1_555 1_555
H8 C12 1_555 1_555
C13 C12 1_555 1_555
C14 C13 1_555 1_555
H9 C14 1_555 1_555
C15 C10 1_555 1_555
H10 C15 1_555 1_555
C16 C13 1_555 1_555
Co1L N1L 1_555 1_555
Co1V N1V 1_555 1_555
N1L C1L 1_555 1_555
N1V C1V 1_555 1_555
N1SA Co1 1_555 1_555
N1JB Co1 1_555 1_555
N2L Co1L 1_555 1_555
N2V Co1V 1_555 1_555
N2SA Co1 1_555 1_555
N2JB Co1 1_555 1_555
N3L Ag1 1_555 1_555
N3V Ag1 1_555 1_555
C1L H1L 1_555 1_555
C1V H1V 1_555 1_555
C2L C1L 1_555 1_555
C2V C1V 1_555 1_555
H2L C2L 1_555 1_555
H2V C2V 1_555 1_555
C3L C2L 1_555 1_555
C3V C2V 1_555 1_555
H3L C3L 1_555 1_555
H3V C3V 1_555 1_555
C4L N1L 1_555 1_555
C4V N1V 1_555 1_555
C5L C4L 1_555 1_555
C5V C4V 1_555 1_555
C6L N2L 1_555 1_555
C6V N2V 1_555 1_555
C7L C6L 1_555 1_555
C7V C6V 1_555 1_555
H4L C7L 1_555 1_555
H4V C7V 1_555 1_555
C8L C7L 1_555 1_555
C8V C7V 1_555 1_555
H5L C8L 1_555 1_555
H5V C8V 1_555 1_555
C9L N2L 1_555 1_555
C9V N2V 1_555 1_555
H6L C9L 1_555 1_555
H6V C9V 1_555 1_555
C10L C5L 1_555 1_555
C10V C5V 1_555 1_555
C11L C10L 1_555 1_555
C11V C10V 1_555 1_555
H7L C11L 1_555 1_555
H7V C11V 1_555 1_555
C12L C11L 1_555 1_555
C12V C11V 1_555 1_555
H8L C12L 1_555 1_555
H8V C12V 1_555 1_555
C13L C12L 1_555 1_555
C13V C12V 1_555 1_555
C14L C13L 1_555 1_555
C14V C13V 1_555 1_555
H9L C14L 1_555 1_555
H9V C14V 1_555 1_555
C15L C10L 1_555 1_555
C15V C10V 1_555 1_555
H10L C15L 1_555 1_555
H10V C15V 1_555 1_555
C16L N3L 1_555 1_555
C16V N3V 1_555 1_555
C3 C4 1_555 1_555
C5 C6 1_555 1_555
C8 C9 1_555 1_555
C14 C15 1_555 1_555
C3L C4L 1_555 1_555
C3V C4V 1_555 1_555
C5L C6L 1_555 1_555
C5V C6V 1_555 1_555
C8L C9L 1_555 1_555
C8V C9V 1_555 1_555
C13L C16L 1_555 1_555
C13V C16V 1_555 1_555
C14L C15L 1_555 1_555
C14V C15V 1_555 1_555

#END
