
#######################################################################
#
#                 Cambridge Crystallographic Data Centre
#                                CCDC 
#
#######################################################################
#
# If this CIF has been generated from an entry in the Cambridge 
# Structural Database, then it will include bibliographic, chemical, 
# crystal, experimental, refinement or atomic coordinate data resulting 
# from the CCDC's data processing and validation procedures.
#
#######################################################################

data_MAZHAX
_symmetry_cell_setting           monoclinic
_symmetry_space_group_name_H-M   'P 21/c'
_symmetry_Int_Tables_number      14
_space_group_name_Hall           '-P 2ybc'
loop_
_symmetry_equiv_pos_site_id
_symmetry_equiv_pos_as_xyz
1 x,y,z
2 -x,1/2+y,1/2-z
3 -x,-y,-z
4 x,1/2-y,1/2+z
_cell_length_a                   8.864(3)
_cell_length_b                   9.610(3)
_cell_length_c                   26.345(7)
_cell_angle_alpha                90
_cell_angle_beta                 92.707(16)
_cell_angle_gamma                90
_cell_volume                     2241.64
loop_
_atom_site_label
_atom_site_type_symbol
_atom_site_fract_x
_atom_site_fract_y
_atom_site_fract_z
Cd1 Cd 0.5000 0.5000 0.0000
Cl1 Cl 0.38586(6) 0.50328(9) 0.086596(18)
N1 N 0.7237(3) 0.2861(3) 0.19170(8)
H1 H 0.751(3) 0.284(3) 0.2222(10)
N2 N -0.3622(2) 0.4884(3) 0.39498(8)
H2 H -0.317(3) 0.559(2) 0.3871(9)
N3 N 0.7259(2) 0.39125(19) 0.03823(8)
N4 N -0.3838(2) 0.7747(2) 0.51545(8)
C1 C 0.2197(3) 0.2567(2) 0.26962(10)
C2 C 0.2558(3) 0.3185(2) 0.22370(9)
H3 H 0.1884 0.3850 0.2085
C3 C 0.3866(3) 0.2856(2) 0.19974(10)
H4 H 0.4061 0.3279 0.1681
C4 C 0.4896(3) 0.1917(3) 0.22131(11)
C5 C 0.4577(3) 0.1317(2) 0.26726(10)
H5 H 0.5279 0.0685 0.2829
C6 C 0.3246(3) 0.1622(3) 0.29098(10)
H6 H 0.3046 0.1180 0.3222
C7 C 0.6342(3) 0.1605(3) 0.19441(11)
H7 H 0.6928 0.0877 0.2133
H8 H 0.6090 0.1254 0.1597
C8 C 0.8686(3) 0.2655(3) 0.16801(10)
H9 H 0.8992 0.1669 0.1720
H10 H 0.9465 0.3233 0.1860
C9 C 0.0743(3) 0.2888(2) 0.29375(8)
C10 C 0.0034(3) 0.4170(2) 0.28692(8)
H11 H 0.0500 0.4869 0.2675
C11 C -0.1334(3) 0.4445(2) 0.30780(8)
H12 H -0.1787 0.5333 0.3026
C12 C -0.2064(3) 0.3456(3) 0.33623(9)
C13 C -0.1348(3) 0.2188(2) 0.34382(9)
H13 H -0.1813 0.1496 0.3635
C14 C 0.0032(3) 0.1904(2) 0.32340(9)
H14 H 0.0500 0.1028 0.3297
C15 C -0.3597(3) 0.3776(2) 0.35651(9)
H15 H -0.4290 0.4042 0.3276
H16 H -0.3998 0.2914 0.3714
C16 C -0.2816(3) 0.4495(2) 0.44234(9)
H17 H -0.3209 0.3590 0.4538
H18 H -0.1734 0.4369 0.4358
C17 C 0.7354(3) 0.3550(2) 0.08730(9)
H19 H 0.6476 0.3662 0.1063
C18 C 0.8625(3) 0.3026(3) 0.11228(10)
C19 C 0.9913(3) 0.2881(2) 0.08520(10)
H20 H 1.0826 0.2548 0.1012
C20 C 0.9840(3) 0.3234(3) 0.03407(10)
H21 H 1.0702 0.3126 0.0143
C21 C 0.8513(3) 0.3741(2) 0.01220(10)
H22 H 0.8481 0.3980 -0.0228
C22 C -0.3715(3) 0.6797(2) 0.47825(9)
H23 H -0.4180 0.6997 0.4458
C23 C -0.2951(3) 0.5547(2) 0.48446(10)
C24 C -0.2275(3) 0.5296(3) 0.53225(10)
H24 H -0.1712 0.4466 0.5382
C25 C -0.2415(4) 0.6240(3) 0.57092(10)
H25 H -0.1985 0.6060 0.6040
C26 C -0.3191(3) 0.7447(3) 0.56055(10)
H26 H -0.3270 0.8106 0.5872
Cd1C Cd -0.5000 1.0000 0.5000
Cd1C_2 Cd 1.5000 0.0000 -0.5000
Cl1B Cl 0.61414(6) 0.49672(9) -0.086596(18)
N1B N 0.2763(3) 0.7139(3) -0.19170(8)
H1B H 0.249(3) 0.716(3) -0.2222(10)
N2B N 1.3622(2) 0.5116(3) -0.39498(8)
H2B H 1.317(3) 0.441(2) -0.3871(9)
N3B N 0.2741(2) 0.60875(19) -0.03823(8)
N4B N 1.3838(2) 0.2253(2) -0.51545(8)
N4C N 0.6162(2) 0.7253(2) 0.01545(8)
N4A N 0.3838(2) 0.2747(2) -0.01545(8)
C1B C 0.7803(3) 0.7433(2) -0.26962(10)
C2B C 0.7442(3) 0.6815(2) -0.22370(9)
H3B H 0.8116 0.6150 -0.2085
C3B C 0.6134(3) 0.7144(2) -0.19974(10)
H4B H 0.5939 0.6721 -0.1681
C4B C 0.5104(3) 0.8083(3) -0.22131(11)
C5B C 0.5423(3) 0.8683(2) -0.26726(10)
H5B H 0.4721 0.9315 -0.2829
C6B C 0.6754(3) 0.8378(3) -0.29098(10)
H6B H 0.6954 0.8820 -0.3222
C7B C 0.3658(3) 0.8395(3) -0.19441(11)
H7B H 0.3072 0.9123 -0.2133
H8B H 0.3910 0.8746 -0.1597
C8B C 0.1314(3) 0.7345(3) -0.16801(10)
H9B H 0.1008 0.8331 -0.1720
H10B H 0.0535 0.6767 -0.1860
C9B C 0.9257(3) 0.7112(2) -0.29375(8)
C10B C 0.9966(3) 0.5830(2) -0.28692(8)
H11B H 0.9500 0.5131 -0.2675
C11B C 1.1334(3) 0.5555(2) -0.30780(8)
H12B H 1.1787 0.4667 -0.3026
C12B C 1.2064(3) 0.6544(3) -0.33623(9)
C13B C 1.1348(3) 0.7812(2) -0.34382(9)
H13B H 1.1813 0.8504 -0.3635
C14B C 0.9968(3) 0.8096(2) -0.32340(9)
H14B H 0.9500 0.8972 -0.3297
C15B C 1.3597(3) 0.6224(2) -0.35651(9)
H15B H 1.4290 0.5958 -0.3276
H16B H 1.3998 0.7086 -0.3714
C16B C 1.2816(3) 0.5505(2) -0.44234(9)
H17B H 1.3209 0.6410 -0.4538
H18B H 1.1734 0.5631 -0.4358
C17B C 0.2646(3) 0.6450(2) -0.08730(9)
H19B H 0.3524 0.6338 -0.1063
C18B C 0.1375(3) 0.6974(3) -0.11228(10)
C19B C 0.0087(3) 0.7119(2) -0.08520(10)
H20B H -0.0826 0.7452 -0.1012
C20B C 0.0160(3) 0.6766(3) -0.03407(10)
H21B H -0.0702 0.6874 -0.0143
C21B C 0.1487(3) 0.6259(2) -0.01220(10)
H22B H 0.1519 0.6020 0.0228
C22B C 1.3715(3) 0.3203(2) -0.47825(9)
H23B H 1.4180 0.3003 -0.4458
C23B C 1.2951(3) 0.4453(2) -0.48446(10)
C24B C 1.2275(3) 0.4704(3) -0.53225(10)
H24B H 1.1712 0.5534 -0.5382
C25B C 1.2415(4) 0.3760(3) -0.57092(10)
H25B H 1.1985 0.3940 -0.6040
C26B C 1.3191(3) 0.2553(3) -0.56055(10)
H26B H 1.3270 0.1894 -0.5872
loop_
_geom_bond_atom_site_label_1
_geom_bond_atom_site_label_2
_geom_bond_site_symmetry_1
_geom_bond_site_symmetry_2
Cd1 Cl1 1_555 1_555
N1 H1 1_555 1_555
N2 H2 1_555 1_555
N3 Cd1 1_555 1_555
N4 C22 1_555 1_555
C1 C2 1_555 1_555
C2 H3 1_555 1_555
C3 C2 1_555 1_555
H4 C3 1_555 1_555
C4 C3 1_555 1_555
C5 C4 1_555 1_555
H5 C5 1_555 1_555
C6 C1 1_555 1_555
H6 C6 1_555 1_555
C7 N1 1_555 1_555
H7 C7 1_555 1_555
H8 C7 1_555 1_555
C8 N1 1_555 1_555
H9 C8 1_555 1_555
H10 C8 1_555 1_555
C9 C1 1_555 1_555
C10 C9 1_555 1_555
H11 C10 1_555 1_555
C11 C10 1_555 1_555
H12 C11 1_555 1_555
C12 C11 1_555 1_555
C13 C12 1_555 1_555
H13 C13 1_555 1_555
C14 C9 1_555 1_555
H14 C14 1_555 1_555
C15 N2 1_555 1_555
H15 C15 1_555 1_555
H16 C15 1_555 1_555
C16 N2 1_555 1_555
H17 C16 1_555 1_555
H18 C16 1_555 1_555
C17 N3 1_555 1_555
H19 C17 1_555 1_555
C18 C8 1_555 1_555
C19 C18 1_555 1_555
H20 C19 1_555 1_555
C20 C19 1_555 1_555
H21 C20 1_555 1_555
C21 N3 1_555 1_555
H22 C21 1_555 1_555
C22 H23 1_555 1_555
C23 C16 1_555 1_555
C24 C23 1_555 1_555
H24 C24 1_555 1_555
C25 C24 1_555 1_555
H25 C25 1_555 1_555
C26 N4 1_555 1_555
H26 C26 1_555 1_555
Cd1C N4 1_555 1_555
Cd1C_2 N4B 1_555 1_555
Cl1B Cd1 1_555 1_555
N1B H1B 1_555 1_555
N2B H2B 1_555 1_555
N3B Cd1 1_555 1_555
N4B C22B 1_555 1_555
N4C Cd1 1_555 1_555
N4A Cd1 1_555 1_555
C1B C2B 1_555 1_555
C2B H3B 1_555 1_555
C3B C2B 1_555 1_555
H4B C3B 1_555 1_555
C4B C3B 1_555 1_555
C5B C4B 1_555 1_555
H5B C5B 1_555 1_555
C6B C1B 1_555 1_555
H6B C6B 1_555 1_555
C7B N1B 1_555 1_555
H7B C7B 1_555 1_555
H8B C7B 1_555 1_555
C8B N1B 1_555 1_555
H9B C8B 1_555 1_555
H10B C8B 1_555 1_555
C9B C1B 1_555 1_555
C10B C9B 1_555 1_555
H11B C10B 1_555 1_555
C11B C10B 1_555 1_555
H12B C11B 1_555 1_555
C12B C11B 1_555 1_555
C13B C12B 1_555 1_555
H13B C13B 1_555 1_555
C14B C9B 1_555 1_555
H14B C14B 1_555 1_555
C15B N2B 1_555 1_555
H15B C15B 1_555 1_555
H16B C15B 1_555 1_555
C16B N2B 1_555 1_555
H17B C16B 1_555 1_555
H18B C16B 1_555 1_555
C17B N3B 1_555 1_555
H19B C17B 1_555 1_555
C18B C8B 1_555 1_555
C19B C18B 1_555 1_555
H20B C19B 1_555 1_555
C20B C19B 1_555 1_555
H21B C20B 1_555 1_555
C21B N3B 1_555 1_555
H22B C21B 1_555 1_555
C22B H23B 1_555 1_555
C23B C16B 1_555 1_555
C24B C23B 1_555 1_555
H24B C24B 1_555 1_555
C25B C24B 1_555 1_555
H25B C25B 1_555 1_555
C26B N4B 1_555 1_555
H26B C26B 1_555 1_555
C4 C7 1_555 1_555
C5 C6 1_555 1_555
C12 C15 1_555 1_555
C13 C14 1_555 1_555
C17 C18 1_555 1_555
C20 C21 1_555 1_555
C22 C23 1_555 1_555
C25 C26 1_555 1_555
C4B C7B 1_555 1_555
C5B C6B 1_555 1_555
C12B C15B 1_555 1_555
C13B C14B 1_555 1_555
C17B C18B 1_555 1_555
C20B C21B 1_555 1_555
C22B C23B 1_555 1_555
C25B C26B 1_555 1_555

#END
