
#######################################################################
#
#                 Cambridge Crystallographic Data Centre
#                                CCDC 
#
#######################################################################
#
# If this CIF has been generated from an entry in the Cambridge 
# Structural Database, then it will include bibliographic, chemical, 
# crystal, experimental, refinement or atomic coordinate data resulting 
# from the CCDC's data processing and validation procedures.
#
#######################################################################

data_MAZRAH
_symmetry_cell_setting           monoclinic
_symmetry_space_group_name_H-M   'C 2/c'
_symmetry_Int_Tables_number      15
_space_group_name_Hall           '-C 2yn'
loop_
_symmetry_equiv_pos_site_id
_symmetry_equiv_pos_as_xyz
1 x,y,z
2 1/2+x,1/2+y,z
3 -x,y,1/2-z
4 1/2-x,1/2+y,1/2-z
5 -x,-y,-z
6 1/2-x,1/2-y,-z
7 x,-y,1/2+z
8 1/2+x,1/2-y,1/2+z
_cell_length_a                   30.5110(7)
_cell_length_b                   7.9025(3)
_cell_length_c                   20.1039(6)
_cell_angle_alpha                90
_cell_angle_beta                 126.911(2)
_cell_angle_gamma                90
_cell_volume                     3875.76
loop_
_atom_site_label
_atom_site_type_symbol
_atom_site_fract_x
_atom_site_fract_y
_atom_site_fract_z
Cu1 Cu 0.152253(19) 0.40747(7) 0.41171(3)
N1 N 0.10328(13) 0.2592(5) 0.4243(2)
C1 C 0.11121(16) 0.2713(6) 0.4981(2)
C2 C 0.07958(16) 0.1852(6) 0.5147(2)
C3 C 0.03645(16) 0.0833(6) 0.4545(2)
C4 C 0.02852(16) 0.0708(6) 0.3782(2)
C5 C 0.06278(18) 0.1583(6) 0.3666(3)
C6 C -0.00114(18) -0.0063(6) 0.4655(3)
N2 N 0.10020(12) 0.4355(5) 0.28862(19)
C7 C 0.05652(18) 0.5385(7) 0.2528(3)
C8 C 0.02189(17) 0.5690(7) 0.1687(3)
C9 C 0.03191(15) 0.4923(6) 0.1165(2)
C10 C 0.07745(17) 0.3880(6) 0.1535(3)
C11 C 0.11001(17) 0.3625(6) 0.2386(3)
C12 C -0.00504(17) 0.5252(6) 0.0261(2)
O1 O 0.21350(11) 0.3489(4) 0.52742(16)
O2 O 0.30431(11) 0.3710(4) 0.62080(17)
O3 O 0.37062(14) 0.7888(5) 0.4399(2)
O4 O 0.38309(11) 0.8750(4) 0.55628(17)
N3 N 0.21218(13) 0.5377(4) 0.41867(19)
C13 C 0.20980(16) 0.6402(5) 0.3635(2)
C14 C 0.25534(16) 0.7254(6) 0.3815(2)
C15 C 0.30524(16) 0.7107(5) 0.4603(2)
C16 C 0.30730(15) 0.6049(6) 0.5173(2)
C17 C 0.26064(15) 0.5197(5) 0.4942(2)
C18 C 0.26076(15) 0.4056(6) 0.5535(2)
C19 C 0.35741(16) 0.8006(6) 0.4871(2)
H7 H 0.1395 0.3416 0.5397
H8 H 0.0876 0.1965 0.5684
H9 H 0.0000 0.0015 0.3344
H10 H 0.0565 0.1490 0.3146
H11 H 0.0500 0.5941 0.2882
H12 H -0.0090 0.6412 0.1457
H13 H 0.0857 0.3325 0.1202
H14 H 0.1417 0.2933 0.2636
H15 H 0.1758 0.6558 0.3104
H16 H 0.2524 0.7943 0.3403
H17 H 0.3406 0.5909 0.5715
H18 H -0.0379 0.5821 0.0114
H19 H -0.0342 -0.0813 0.4202
Cu1D Cu -0.152253(19) -0.40747(7) 0.58829(3)
Cu1E Cu 0.347747(19) 1.09253(7) 0.58829(3)
Cu1D_2 Cu -0.152253(19) 0.59253(7) -0.41171(3)
N1D N -0.10328(13) -0.2592(5) 0.5757(2)
C1D C -0.11121(16) -0.2713(6) 0.5019(2)
C2D C -0.07958(16) -0.1852(6) 0.4853(2)
C3D C -0.03645(16) -0.0833(6) 0.5455(2)
C4D C -0.02852(16) -0.0708(6) 0.6218(2)
C5D C -0.06278(18) -0.1583(6) 0.6334(3)
C6D C 0.00114(18) 0.0063(6) 0.5345(3)
N2D N -0.10020(12) 0.5645(5) -0.28862(19)
N2D_2 N -0.10020(12) -0.4355(5) 0.71138(19)
C7D C -0.05652(18) 0.4615(7) -0.2528(3)
C8D C -0.02189(17) 0.4310(7) -0.1687(3)
C9D C -0.03191(15) 0.5077(6) -0.1165(2)
C10D C -0.07745(17) 0.6120(6) -0.1535(3)
C11D C -0.11001(17) 0.6375(6) -0.2386(3)
C12D C 0.00504(17) 0.4748(6) -0.0261(2)
O1E O 0.28650(11) 1.1511(4) 0.47258(16)
O1D O -0.21350(11) -0.3489(4) 0.47258(16)
O2E O 0.19569(11) 1.1290(4) 0.37920(17)
O3E O 0.12938(14) 0.7112(5) 0.5601(2)
O4E O 0.11691(11) 0.6250(4) 0.44372(17)
O4A O -0.11691(11) -0.6250(4) 0.55628(17)
N3E N 0.28782(13) 0.9623(4) 0.58133(19)
N3D N -0.21218(13) -0.5377(4) 0.58133(19)
C13E C 0.29020(16) 0.8598(5) 0.6365(2)
C14E C 0.24466(16) 0.7746(6) 0.6185(2)
C15E C 0.19476(16) 0.7893(5) 0.5397(2)
C16E C 0.19270(15) 0.8951(6) 0.4827(2)
C17E C 0.23936(15) 0.9803(5) 0.5058(2)
C18E C 0.23924(15) 1.0944(6) 0.4465(2)
C19E C 0.14259(16) 0.6994(6) 0.5129(2)
H7D H -0.1395 -0.3416 0.4603
H8D H -0.0876 -0.1965 0.4316
H9D H 0.0000 -0.0015 0.6656
H10D H -0.0565 -0.1490 0.6854
H11D H -0.0500 0.4059 -0.2882
H12D H 0.0090 0.3588 -0.1457
H13D H -0.0857 0.6675 -0.1202
H14D H -0.1417 0.7067 -0.2636
H15E H 0.3242 0.8442 0.6896
H16E H 0.2476 0.7057 0.6597
H17E H 0.1594 0.9091 0.4285
H18D H 0.0379 0.4179 -0.0114
H19D H 0.0342 0.0813 0.5798
O5 O 0.26320(16) 0.2930(5) 0.3174(2)
H1 H 0.2379(18) 0.212(5) 0.274(2)
H2 H 0.2650(19) 0.273(6) 0.3667(18)
O6 O 0.11533(15) 1.0730(5) 0.7346(2)
H3 H 0.1371(16) 1.030(6) 0.7925(16)
H4 H 0.1331(17) 1.039(6) 0.708(2)
O7 O 0.31943(15) 0.5625(5) 0.3098(2)
H5 H 0.3040(19) 0.461(4) 0.317(2)
H6 H 0.3430(18) 0.624(5) 0.3632(17)
loop_
_geom_bond_atom_site_label_1
_geom_bond_atom_site_label_2
_geom_bond_site_symmetry_1
_geom_bond_site_symmetry_2
Cu1 N1 1_555 1_555
N1 C1 1_555 1_555
C1 C2 1_555 1_555
C2 C3 1_555 1_555
C3 C4 1_555 1_555
C4 C5 1_555 1_555
C5 N1 1_555 1_555
C6 C3 1_555 1_555
N2 Cu1 1_555 1_555
C7 N2 1_555 1_555
C8 C7 1_555 1_555
C9 C8 1_555 1_555
C10 C9 1_555 1_555
C11 N2 1_555 1_555
C12 C9 1_555 1_555
O1 Cu1 1_555 1_555
O2 C18 1_555 1_555
O3 C19 1_555 1_555
O4 C19 1_555 1_555
N3 Cu1 1_555 1_555
C13 N3 1_555 1_555
C14 C13 1_555 1_555
C15 C14 1_555 1_555
C16 C15 1_555 1_555
C17 N3 1_555 1_555
C18 O1 1_555 1_555
C19 C15 1_555 1_555
O5 H1 1_555 1_555
O6 H3 1_555 1_555
O7 H5 1_555 1_555
H2 O5 1_555 1_555
H4 O6 1_555 1_555
H6 O7 1_555 1_555
H7 C1 1_555 1_555
H8 C2 1_555 1_555
H9 C4 1_555 1_555
H10 C5 1_555 1_555
H11 C7 1_555 1_555
H12 C8 1_555 1_555
H13 C10 1_555 1_555
H14 C11 1_555 1_555
H15 C13 1_555 1_555
H16 C14 1_555 1_555
H17 C16 1_555 1_555
H18 C12 1_555 1_555
H19 C6 1_555 1_555
Cu1D N1D 1_555 1_555
Cu1E O4 1_555 1_555
Cu1D_2 N2D 1_555 1_555
N1D C1D 1_555 1_555
C1D C2D 1_555 1_555
C2D C3D 1_555 1_555
C3D C4D 1_555 1_555
C4D C5D 1_555 1_555
C5D N1D 1_555 1_555
C6D C6 1_555 1_555
N2D C7D 1_555 1_555
N2D_2 Cu1D 1_555 1_555
C7D C8D 1_555 1_555
C8D C9D 1_555 1_555
C9D C10D 1_555 1_555
C10D C11D 1_555 1_555
C11D N2D 1_555 1_555
C12D C12 1_555 1_555
O1E Cu1E 1_555 1_555
O1D Cu1D 1_555 1_555
O2E C18E 1_555 1_555
O3E C19E 1_555 1_555
O4E Cu1 1_555 1_555
O4A Cu1D 1_555 1_555
N3E Cu1E 1_555 1_555
N3D Cu1D 1_555 1_555
C13E N3E 1_555 1_555
C14E C13E 1_555 1_555
C15E C14E 1_555 1_555
C16E C15E 1_555 1_555
C17E N3E 1_555 1_555
C18E O1E 1_555 1_555
C19E O4E 1_555 1_555
H7D C1D 1_555 1_555
H8D C2D 1_555 1_555
H9D C4D 1_555 1_555
H10D C5D 1_555 1_555
H11D C7D 1_555 1_555
H12D C8D 1_555 1_555
H13D C10D 1_555 1_555
H14D C11D 1_555 1_555
H15E C13E 1_555 1_555
H16E C14E 1_555 1_555
H17E C16E 1_555 1_555
H18D C12D 1_555 1_555
H19D C6D 1_555 1_555
C10 C11 1_555 1_555
C16 C17 1_555 1_555
C17 C18 1_555 1_555
C3D C6D 1_555 1_555
C9D C12D 1_555 1_555
C15E C19E 1_555 1_555
C16E C17E 1_555 1_555
C17E C18E 1_555 1_555

#END
