
#######################################################################
#
#                 Cambridge Crystallographic Data Centre
#                                CCDC 
#
#######################################################################
#
# If this CIF has been generated from an entry in the Cambridge 
# Structural Database, then it will include bibliographic, chemical, 
# crystal, experimental, refinement or atomic coordinate data resulting 
# from the CCDC's data processing and validation procedures.
#
#######################################################################

data_MAZSEM
_symmetry_cell_setting           triclinic
_symmetry_space_group_name_H-M   'P -1'
_symmetry_Int_Tables_number      2
_space_group_name_Hall           '-P 1'
loop_
_symmetry_equiv_pos_site_id
_symmetry_equiv_pos_as_xyz
1 x,y,z
2 -x,-y,-z
_cell_length_a                   11.461(2)
_cell_length_b                   11.695(2)
_cell_length_c                   19.430(4)
_cell_angle_alpha                84.95(3)
_cell_angle_beta                 79.63(3)
_cell_angle_gamma                86.53(3)
_cell_volume                     2549.19
loop_
_atom_site_label
_atom_site_type_symbol
_atom_site_fract_x
_atom_site_fract_y
_atom_site_fract_z
Nd1 Nd 0.17764(4) 0.07068(5) 0.48805(3)
Nd2 Nd 0.46453(5) 0.33285(5) 0.46908(3)
O1 O 0.0374(6) -0.0198(6) 0.4306(3)
O2 O 0.1806(6) -0.1344(6) 0.5411(3)
O3 O 0.4187(7) 0.2220(6) 0.3834(4)
O4 O 0.3576(6) 0.0437(6) 0.5326(4)
O5 O 0.2459(6) 0.2615(6) 0.5175(3)
O6 O 0.5768(6) 0.4358(6) 0.5379(4)
O7 O -0.1056(6) -0.0770(6) 0.3824(3)
O8 O 0.3420(7) -0.2369(6) 0.5621(4)
O9 O 0.2414(7) 0.1678(7) 0.3711(4)
O10 O 0.4747(6) 0.1749(6) 0.5589(4)
O11 O 0.3150(6) 0.3952(6) 0.5699(4)
O12 O 0.6846(6) 0.5397(6) 0.5893(4)
O13 O 0.0139(8) -0.0609(9) 0.2570(4)
O14 O 0.2557(7) -0.2706(7) 0.6994(4)
O15 O 0.2790(7) 0.2450(9) 0.2349(4)
O16 O 0.4791(7) 0.0644(7) 0.6854(4)
O17 O 0.1022(7) 0.4317(7) 0.6567(4)
O18 O 0.7772(7) 0.3469(7) 0.6559(5)
O19 O 0.3048(6) -0.0633(6) 0.4096(4)
H1 H 0.3652 -0.0992 0.4356
H2 H 0.3598 -0.0345 0.3702
O20 O 0.0234(6) 0.2238(6) 0.4777(4)
H3 H 0.0613 0.2787 0.4530
H4 H -0.0380 0.2048 0.4627
O21 O 0.5888(6) 0.4440(6) 0.3652(4)
H5 H 0.6281 0.5019 0.3678
H6 H 0.6259 0.3877 0.3446
C1 C -0.0038(9) -0.0437(9) 0.3779(5)
C2 C 0.2426(9) -0.1928(8) 0.5821(6)
C3 C 0.3381(10) 0.2122(9) 0.3474(6)
C4 C 0.4117(9) 0.0878(9) 0.5730(6)
C5 C 0.2307(9) 0.3318(10) 0.5648(6)
C6 C 0.6541(9) 0.4454(9) 0.5766(6)
C7 C 0.0735(10) -0.0283(11) 0.3078(5)
H9 H 0.1460 -0.0741 0.3074
H10 H 0.0928 0.0508 0.2977
C8 C 0.1822(9) -0.2039(9) 0.6582(5)
H11 H 0.1074 -0.2389 0.6622
H12 H 0.1673 -0.1287 0.6751
C9 C 0.3714(10) 0.2529(11) 0.2718(5)
H13 H 0.3898 0.3323 0.2692
H14 H 0.4407 0.2109 0.2498
C10 C 0.3985(10) 0.0265(10) 0.6466(6)
H15 H 0.3196 0.0432 0.6710
H16 H 0.4086 -0.0552 0.6439
C11 C 0.1152(10) 0.3396(11) 0.6119(7)
H17 H 0.0549 0.3509 0.5832
H18 H 0.1018 0.2684 0.6401
C12 C 0.7039(11) 0.3335(10) 0.6066(6)
H19 H 0.6389 0.2873 0.6284
H20 H 0.7495 0.2928 0.5692
C13 C 0.0650(12) -0.0512(12) 0.1880(6)
C14 C 0.2208(11) -0.2784(10) 0.7726(6)
C15 C 0.3043(13) 0.2768(13) 0.1640(7)
C16 C 0.4545(10) 0.0487(10) 0.7565(6)
C17 C 0.1282(10) 0.4061(11) 0.7223(8)
C18 C 0.7241(12) 0.3616(10) 0.7247(7)
C19 C 0.0060(14) -0.1002(15) 0.1456(7)
H21 H -0.0652 -0.1389 0.1657
C20 C 0.2974(12) -0.3394(11) 0.8104(7)
H22 H 0.3686 -0.3742 0.7853
C21 C 0.2122(14) 0.3235(14) 0.1341(7)
H23 H 0.1353 0.3325 0.1629
C22 C 0.3608(13) -0.0103(13) 0.7933(7)
H24 H 0.3091 -0.0453 0.7683
C23 C 0.2160(13) 0.3299(13) 0.7364(8)
H25 H 0.2638 0.2912 0.6988
C24 C 0.6070(14) 0.3986(12) 0.7446(8)
H26 H 0.5580 0.4131 0.7092
C25 C 0.0467(16) -0.0954(18) 0.0726(8)
H27 H 0.0063 -0.1323 0.0421
C26 C 0.2744(14) -0.3495(14) 0.8812(8)
H28 H 0.3275 -0.3948 0.9069
C27 C 0.230(2) 0.3555(18) 0.0612(9)
H29 H 0.1659 0.3903 0.0403
C28 C 0.3425(16) -0.0170(18) 0.8654(7)
H30 H 0.2757 -0.0567 0.8915
C29 C 0.2385(17) 0.3069(18) 0.8049(10)
H31 H 0.2983 0.2502 0.8153
C30 C 0.5622(17) 0.4158(14) 0.8140(10)
H32 H 0.4800 0.4392 0.8270
C31 C 0.1439(18) -0.033(2) 0.0471(8)
H33 H 0.1733 -0.0291 -0.0025
C32 C 0.1731(16) -0.2954(15) 0.9169(8)
H34 H 0.1571 -0.3023 0.9673
C33 C 0.3402(18) 0.336(2) 0.0207(8)
H35 H 0.3529 0.3583 -0.0287
C34 C 0.4186(18) 0.0297(19) 0.8997(8)
H36 H 0.4068 0.0201 0.9500
C35 C 0.1724(19) 0.3636(19) 0.8586(10)
H37 H 0.1868 0.3485 0.9058
C36 C 0.631(2) 0.3953(19) 0.8651(10)
H38 H 0.5993 0.4057 0.9135
C37 C 0.2033(15) 0.0183(19) 0.0904(8)
H39 H 0.2715 0.0617 0.0708
C38 C 0.0989(14) -0.2324(14) 0.8791(7)
H40 H 0.0281 -0.1958 0.9035
C39 C 0.4285(17) 0.291(2) 0.0520(8)
H41 H 0.5035 0.2725 0.0234
C40 C 0.5133(15) 0.0899(14) 0.8641(8)
H42 H 0.5629 0.1295 0.8881
C41 C 0.0864(18) 0.4458(17) 0.8428(9)
H43 H 0.0398 0.4861 0.8800
C42 C 0.748(2) 0.3568(19) 0.8438(9)
H44 H 0.7995 0.3466 0.8781
C43 C 0.1657(12) 0.0092(13) 0.1619(7)
H45 H 0.2060 0.0444 0.1932
C44 C 0.1196(12) -0.2228(12) 0.8068(6)
H46 H 0.0668 -0.1792 0.7802
C45 C 0.4140(14) 0.2596(18) 0.1232(8)
H47 H 0.4787 0.2295 0.1456
C46 C 0.5327(12) 0.0961(12) 0.7907(7)
H48 H 0.6014 0.1316 0.7636
C47 C 0.0642(12) 0.4665(13) 0.7747(8)
H49 H 0.0049 0.5236 0.7641
C48 C 0.7944(14) 0.3383(14) 0.7740(8)
H50 H 0.8742 0.3079 0.7608
Nd1A Nd -0.17764(4) -0.07068(5) 0.51195(3)
Nd2A Nd 0.53547(5) 0.66715(5) 0.53092(3)
Nd2A_2 Nd 0.53547(5) -0.33285(5) 0.53092(3)
O1A O -0.0374(6) 0.0198(6) 0.5694(3)
O6A O 0.4232(6) 0.5642(6) 0.4621(4)
O7A O 0.1056(6) 0.0770(6) 0.6176(3)
O8A O 0.6580(7) 0.2369(6) 0.4379(4)
O12A O 0.3154(6) 0.4603(6) 0.4107(4)
O22 O 0.0782(10) 0.4144(10) 0.3942(9)
H7 H 0.0351 0.4665 0.3729
H8 H 0.1633 0.4267 0.3841
loop_
_geom_bond_atom_site_label_1
_geom_bond_atom_site_label_2
_geom_bond_site_symmetry_1
_geom_bond_site_symmetry_2
Nd1 O1 1_555 1_555
Nd2 O3 1_555 1_555
O1 C1 1_555 1_555
O2 Nd1 1_555 1_555
O3 C3 1_555 1_555
O4 Nd1 1_555 1_555
O5 Nd1 1_555 1_555
O6 Nd2 1_555 1_555
O7 C1 1_555 1_555
O8 C2 1_555 1_555
O9 Nd1 1_555 1_555
O10 Nd2 1_555 1_555
O11 Nd2 1_555 1_555
O12 C6 1_555 1_555
O13 C7 1_555 1_555
O14 C8 1_555 1_555
O15 C9 1_555 1_555
O16 C10 1_555 1_555
O17 C11 1_555 1_555
O18 C12 1_555 1_555
O19 Nd1 1_555 1_555
H1 O19 1_555 1_555
H2 O19 1_555 1_555
O20 Nd1 1_555 1_555
H3 O20 1_555 1_555
H4 O20 1_555 1_555
O21 Nd2 1_555 1_555
H5 O21 1_555 1_555
H6 O21 1_555 1_555
O22 H7 1_555 1_555
H8 O22 1_555 1_555
C1 C7 1_555 1_555
C2 O2 1_555 1_555
C3 O9 1_555 1_555
C4 O4 1_555 1_555
C5 O5 1_555 1_555
C6 O6 1_555 1_555
C7 H9 1_555 1_555
H10 C7 1_555 1_555
C8 C2 1_555 1_555
H11 C8 1_555 1_555
H12 C8 1_555 1_555
C9 C3 1_555 1_555
H13 C9 1_555 1_555
H14 C9 1_555 1_555
C10 C4 1_555 1_555
H15 C10 1_555 1_555
H16 C10 1_555 1_555
C11 C5 1_555 1_555
H17 C11 1_555 1_555
H18 C11 1_555 1_555
C12 C6 1_555 1_555
H19 C12 1_555 1_555
H20 C12 1_555 1_555
C13 O13 1_555 1_555
C14 O14 1_555 1_555
C15 O15 1_555 1_555
C16 O16 1_555 1_555
C17 O17 1_555 1_555
C18 O18 1_555 1_555
C19 C13 1_555 1_555
H21 C19 1_555 1_555
C20 C14 1_555 1_555
H22 C20 1_555 1_555
C21 C15 1_555 1_555
H23 C21 1_555 1_555
C22 C16 1_555 1_555
H24 C22 1_555 1_555
C23 C17 1_555 1_555
H25 C23 1_555 1_555
C24 C18 1_555 1_555
H26 C24 1_555 1_555
C25 C19 1_555 1_555
H27 C25 1_555 1_555
C26 C20 1_555 1_555
H28 C26 1_555 1_555
C27 C21 1_555 1_555
H29 C27 1_555 1_555
C28 C22 1_555 1_555
H30 C28 1_555 1_555
C29 C23 1_555 1_555
H31 C29 1_555 1_555
C30 C24 1_555 1_555
H32 C30 1_555 1_555
C31 C25 1_555 1_555
H33 C31 1_555 1_555
C32 C26 1_555 1_555
H34 C32 1_555 1_555
C33 C27 1_555 1_555
H35 C33 1_555 1_555
C34 C28 1_555 1_555
H36 C34 1_555 1_555
C35 C29 1_555 1_555
H37 C35 1_555 1_555
C36 C30 1_555 1_555
H38 C36 1_555 1_555
C37 C31 1_555 1_555
H39 C37 1_555 1_555
C38 C32 1_555 1_555
H40 C38 1_555 1_555
C39 C33 1_555 1_555
H41 C39 1_555 1_555
C40 C34 1_555 1_555
H42 C40 1_555 1_555
C41 C35 1_555 1_555
H43 C41 1_555 1_555
C42 C36 1_555 1_555
H44 C42 1_555 1_555
C43 C13 1_555 1_555
H45 C43 1_555 1_555
C44 C14 1_555 1_555
H46 C44 1_555 1_555
C45 C15 1_555 1_555
H47 C45 1_555 1_555
C46 C16 1_555 1_555
H48 C46 1_555 1_555
C47 C17 1_555 1_555
H49 C47 1_555 1_555
C48 C18 1_555 1_555
H50 C48 1_555 1_555
Nd1A O1 1_555 1_555
Nd2A O6 1_555 1_555
Nd2A_2 O8 1_555 1_555
O1A Nd1 1_555 1_555
O6A Nd2 1_555 1_555
O7A Nd1 1_555 1_555
O8A Nd2 1_555 1_555
O12A Nd2 1_555 1_555
Nd2 O5 1_555 1_555
O7 Nd1A 1_555 1_555
O10 C4 1_555 1_555
O11 C5 1_555 1_555
O12 Nd2A 1_555 1_555
C37 C43 1_555 1_555
C38 C44 1_555 1_555
C39 C45 1_555 1_555
C40 C46 1_555 1_555
C41 C47 1_555 1_555
C42 C48 1_555 1_555
Nd1A O1A 1_555 1_555
Nd2A O6A 1_555 1_555

#END
