
#######################################################################
#
#                 Cambridge Crystallographic Data Centre
#                                CCDC 
#
#######################################################################
#
# If this CIF has been generated from an entry in the Cambridge 
# Structural Database, then it will include bibliographic, chemical, 
# crystal, experimental, refinement or atomic coordinate data resulting 
# from the CCDC's data processing and validation procedures.
#
#######################################################################

data_MAZTOX
_symmetry_cell_setting           triclinic
_symmetry_space_group_name_H-M   'P -1'
_symmetry_Int_Tables_number      2
_space_group_name_Hall           '-P 1'
loop_
_symmetry_equiv_pos_site_id
_symmetry_equiv_pos_as_xyz
1 x,y,z
2 -x,-y,-z
_cell_length_a                   6.4236(17)
_cell_length_b                   7.627(2)
_cell_length_c                   9.814(3)
_cell_angle_alpha                104.424(6)
_cell_angle_beta                 96.634(2)
_cell_angle_gamma                108.810(5)
_cell_volume                     430.615
loop_
_atom_site_label
_atom_site_type_symbol
_atom_site_fract_x
_atom_site_fract_y
_atom_site_fract_z
Cd1 Cd 1.0000 0.0000 0.0000
N1 N 0.6758(2) 0.1760(2) 0.35438(16)
N2 N 0.7938(3) 0.0952(2) 0.42601(17)
N3 N 0.8720(3) 0.0788(2) 0.20759(16)
N4 N 0.6464(4) 0.3633(3) -0.2021(2)
N5 N 0.7972(3) 0.1544(3) -0.10310(19)
N6 N 0.6867(3) 0.6989(2) -0.08579(19)
C1 C 0.5097(3) 0.2488(3) 0.4144(2)
H1 H 0.4675 0.1923 0.4923
H2 H 0.3724 0.2037 0.3381
C2 C 0.5937(3) 0.4681(3) 0.4739(2)
H3 H 0.6428 0.5265 0.3981
H4 H 0.7247 0.5143 0.5550
C3 C 0.9080(3) 0.0378(3) 0.3329(2)
H5 H 1.0071 -0.0267 0.3518
C4 C 0.7236(3) 0.1642(3) 0.2253(2)
H6 H 0.6604 0.2104 0.1557
C5 C 0.7325(3) 0.2603(3) -0.1428(2)
C6 C 0.6752(3) 0.5411(3) -0.1337(2)
Cd1_2 Cd 1.0000 1.0000 0.0000
Cd1_3 Cd 0.0000 1.0000 1.0000
Cd1_4 Cd 1.0000 -1.0000 0.0000
N1A N 0.3242(2) 0.8240(2) 0.64562(16)
N2A N 0.2062(3) 0.9048(2) 0.57399(17)
N3A N 0.1280(3) 0.9212(2) 0.79241(16)
N3A_2 N 1.1280(3) -0.0788(2) -0.20759(16)
N4A N 1.3536(4) -0.3633(3) 0.2021(2)
N5A N 1.2028(3) -0.1544(3) 0.10310(19)
N6A N 1.3133(3) -0.6989(2) 0.08579(19)
N6_2 N 0.6867(3) -0.3011(2) -0.08579(19)
N6A_2 N 1.3133(3) 0.3011(2) 0.08579(19)
C1A C 0.4903(3) 0.7512(3) 0.5856(2)
H1A H 0.5325 0.8077 0.5077
H2A H 0.6276 0.7963 0.6619
C2A C 0.4063(3) 0.5319(3) 0.5261(2)
H3A H 0.3572 0.4735 0.6019
H4A H 0.2753 0.4857 0.4450
C3A C 0.0920(3) 0.9622(3) 0.6671(2)
H5A H -0.0071 1.0267 0.6482
C4A C 0.2764(3) 0.8358(3) 0.7747(2)
H6A H 0.3396 0.7896 0.8443
C5A C 1.2675(3) -0.2603(3) 0.1428(2)
C6A C 1.3248(3) -0.5411(3) 0.1337(2)
loop_
_geom_bond_atom_site_label_1
_geom_bond_atom_site_label_2
_geom_bond_site_symmetry_1
_geom_bond_site_symmetry_2
Cd1 N3 1_555 1_555
N1 N2 1_555 1_555
N2 C3 1_555 1_555
N3 C3 1_555 1_555
N4 C5 1_555 1_555
N5 Cd1 1_555 1_555
N6 C6 1_555 1_555
C1 N1 1_555 1_555
H1 C1 1_555 1_555
H2 C1 1_555 1_555
C2 C1 1_555 1_555
H3 C2 1_555 1_555
H4 C2 1_555 1_555
C3 H5 1_555 1_555
C4 N1 1_555 1_555
H6 C4 1_555 1_555
C5 N5 1_555 1_555
C6 N4 1_555 1_555
Cd1_2 N6 1_555 1_555
Cd1_3 N3A 1_555 1_555
Cd1_4 N6A 1_555 1_555
N1A N2A 1_555 1_555
N2A C3A 1_555 1_555
N3A C3A 1_555 1_555
N3A_2 Cd1 1_555 1_555
N4A C5A 1_555 1_555
N5A Cd1 1_555 1_555
N6A C6A 1_555 1_555
N6_2 Cd1 1_555 1_555
N6A_2 Cd1 1_555 1_555
C1A N1A 1_555 1_555
H1A C1A 1_555 1_555
H2A C1A 1_555 1_555
C2A C2 1_555 1_555
H3A C2A 1_555 1_555
H4A C2A 1_555 1_555
C3A H5A 1_555 1_555
C4A N1A 1_555 1_555
H6A C4A 1_555 1_555
C5A N5A 1_555 1_555
C6A N4A 1_555 1_555
N3 C4 1_555 1_555
N3A C4A 1_555 1_555
C1A C2A 1_555 1_555

#END
