
#######################################################################
#
#                 Cambridge Crystallographic Data Centre
#                                CCDC 
#
#######################################################################
#
# If this CIF has been generated from an entry in the Cambridge 
# Structural Database, then it will include bibliographic, chemical, 
# crystal, experimental, refinement or atomic coordinate data resulting 
# from the CCDC's data processing and validation procedures.
#
#######################################################################

data_MAZVAL
_symmetry_cell_setting           monoclinic
_symmetry_space_group_name_H-M   'P 21/n'
_symmetry_Int_Tables_number      14
_space_group_name_Hall           '-P 2yn'
loop_
_symmetry_equiv_pos_site_id
_symmetry_equiv_pos_as_xyz
1 x,y,z
2 1/2-x,1/2+y,1/2-z
3 -x,-y,-z
4 1/2+x,1/2-y,1/2+z
_cell_length_a                   3.7790(4)
_cell_length_b                   11.2070(8)
_cell_length_c                   7.8410(7)
_cell_angle_alpha                90
_cell_angle_beta                 102.019(9)
_cell_angle_gamma                90
_cell_volume                     324.797
loop_
_atom_site_label
_atom_site_type_symbol
_atom_site_fract_x
_atom_site_fract_y
_atom_site_fract_z
V1 V 0.5000 0.5000 0.5000
F1 F 0.0000 0.5000 0.5000
O1 O 0.3863(4) 0.43415(13) 0.25861(16)
O2 O 0.3009(4) 0.32002(14) -0.11716(19)
C1 C 0.4523(5) 0.47278(17) 0.1173(3)
C2 C 0.4097(5) 0.41845(18) -0.0537(3)
O3 O 0.5368(4) 0.33348(12) 0.5817(2)
H1 H 0.6400 0.2814 0.5305
H2 H 0.4550 0.2992 0.6634
V1_2 V -0.5000 0.5000 0.5000
V1_3 V 0.5000 0.5000 -0.5000
F1_2 F 1.0000 0.5000 0.5000
O1B O 0.6137(4) 0.56585(13) -0.25861(16)
O1B_2 O 0.6137(4) 0.56585(13) 0.74139(16)
O2B O 0.6991(4) 0.67998(14) 0.11716(19)
C1B C 0.5477(5) 0.52722(17) -0.1173(3)
C2B C 0.5903(5) 0.58155(18) 0.0537(3)
O3B O 0.4632(4) 0.66652(12) 0.4183(2)
H1B H 0.3600 0.7186 0.4695
H2B H 0.5450 0.7008 0.3366
loop_
_geom_bond_atom_site_label_1
_geom_bond_atom_site_label_2
_geom_bond_site_symmetry_1
_geom_bond_site_symmetry_2
V1 F1 1_555 1_555
F1 V1_2 1_555 1_555
O1 V1 1_555 1_555
O2 C2 1_555 1_555
C1 O1 1_555 1_555
C2 C1 1_555 1_555
O3 V1 1_555 1_555
H1 O3 1_555 1_555
H2 O3 1_555 1_555
V1_3 O1B 1_555 1_555
F1_2 V1 1_555 1_555
O1B C1B 1_555 1_555
O1B_2 V1 1_555 1_555
O2B C2B 1_555 1_555
C1B C2 1_555 1_555
C2B C1 1_555 1_555
O3B V1 1_555 1_555
H1B O3B 1_555 1_555
H2B O3B 1_555 1_555
C1B C2B 1_555 1_555

#END
