
#######################################################################
#
#                 Cambridge Crystallographic Data Centre
#                                CCDC 
#
#######################################################################
#
# If this CIF has been generated from an entry in the Cambridge 
# Structural Database, then it will include bibliographic, chemical, 
# crystal, experimental, refinement or atomic coordinate data resulting 
# from the CCDC's data processing and validation procedures.
#
#######################################################################

data_MEBDII
_symmetry_cell_setting           monoclinic
_symmetry_space_group_name_H-M   'C c'
_symmetry_Int_Tables_number      9
_space_group_name_Hall           'C -2yc'
loop_
_symmetry_equiv_pos_site_id
_symmetry_equiv_pos_as_xyz
1 x,y,z
2 x,-y,1/2+z
3 1/2+x,1/2+y,z
4 1/2+x,1/2-y,1/2+z
_cell_length_a                   41.210(10)
_cell_length_b                   5.6258(14)
_cell_length_c                   11.794(3)
_cell_angle_alpha                90
_cell_angle_beta                 98.510(3)
_cell_angle_gamma                90
_cell_volume                     2704.21
loop_
_atom_site_label
_atom_site_type_symbol
_atom_site_fract_x
_atom_site_fract_y
_atom_site_fract_z
C1 C 0.66794(14) 0.7218(10) 0.8622(5)
C2 C 0.66736(17) 0.9033(12) 0.7818(5)
H1 H 0.6856 0.9313 0.7459
C3 C 0.63936(17) 1.0431(14) 0.7550(6)
H2 H 0.6390 1.1656 0.7019
C4 C 0.61209(15) 1.0000(11) 0.8073(5)
H3 H 0.5934 1.0931 0.7893
C5 C 0.61266(16) 0.8154(14) 0.8877(5)
C6 C 0.64055(17) 0.6756(13) 0.9152(6)
C7 C 0.64025(14) 0.4905(12) 0.9982(6)
H4 H 0.6588 0.3971 1.0186
C8 C 0.61363(16) 0.4513(13) 1.0463(6)
H5 H 0.6139 0.3295 1.0997
C9 C 0.58527(17) 0.5876(14) 1.0190(5)
H6 H 0.5668 0.5564 1.0533
C10 C 0.58504(18) 0.7705(14) 0.9399(6)
H7 H 0.5664 0.8636 0.9215
C11 C 0.70282(16) 0.5934(12) 0.8816(6)
H8 H 0.7009 0.4671 0.9375
C12 C 0.70954(16) 0.4692(12) 0.7760(6)
H9 H 0.7164 0.5830 0.7237
H10 H 0.6900 0.3908 0.7404
H11 H 0.7266 0.3538 0.7959
C13 C 0.72356(16) 0.8647(12) 1.0392(6)
H12 H 0.7197 0.7495 1.0970
H13 H 0.7043 0.9649 1.0230
C14 C 0.94039(15) 1.2182(11) 0.9991(6)
C15 C 0.94050(17) 1.3977(13) 0.9185(6)
H14 H 0.9221 1.4232 0.8639
C16 C 0.96773(16) 1.5368(13) 0.9195(6)
H15 H 0.9680 1.6529 0.8635
C17 C 0.99512(15) 1.5079(12) 1.0028(6)
H16 H 1.0131 1.6078 1.0040
C18 C 0.99538(17) 1.3321(13) 1.0829(5)
C19 C 0.96771(16) 1.1836(14) 1.0821(6)
C20 C 0.96881(17) 1.0024(12) 1.1687(6)
H17 H 0.9507 0.9043 1.1696
C21 C 0.99455(17) 0.9723(12) 1.2458(6)
H18 H 0.9944 0.8536 1.3006
C22 C 1.02250(17) 1.1149(14) 1.2479(6)
H19 H 1.0408 1.0900 1.3031
C23 C 1.02264(16) 1.2944(13) 1.1665(5)
H20 H 1.0411 1.3902 1.1680
C24 C 0.90590(17) 1.0899(13) 0.9872(6)
H21 H 0.9081 0.9653 1.0459
C25 C 0.89823(16) 0.9652(13) 0.8750(6)
H22 H 0.8801 0.8586 0.8773
H23 H 0.9171 0.8766 0.8603
H24 H 0.8925 1.0799 0.8151
C26 C 0.88524(15) 1.3670(13) 1.1223(6)
H25 H 0.9044 1.4686 1.1251
H26 H 0.8894 1.2518 1.1839
Co1 Co 0.77734(2) 0.56440(16) 0.99089(6)
Co2 Co 0.83105(2) 1.06415(17) 1.01890(6)
N1 N 0.72922(12) 0.7384(10) 0.9324(4)
H27 H 0.7326 0.8512 0.8801
N2 N 0.87912(12) 1.2446(9) 1.0120(4)
H28 H 0.8758 1.3573 0.9561
O1 O 0.78721(10) 0.9048(8) 1.0540(4)
O2 O 0.75357(10) 1.2890(8) 1.0300(3)
O3 O 0.76055(10) 1.0612(8) 1.2212(4)
O4 O 0.82123(10) 1.4042(8) 1.0728(4)
O5 O 0.85477(11) 1.7859(8) 1.0824(4)
O6 O 0.84793(10) 1.5601(8) 1.2658(4)
O7 O 0.79024(10) 0.5687(9) 0.8340(4)
H29 H 0.8040 0.7035 0.8263
H30 H 0.7708 0.5790 0.7782
O8 O 0.81879(10) 1.0661(9) 0.8479(4)
H31 H 0.8033 1.1916 0.8263
H32 H 0.8381 1.0921 0.8126
P1 P 0.75860(4) 1.0433(3) 1.09199(13)
P2 P 0.84997(4) 1.5422(3) 1.13921(13)
Co1_2 Co 0.77734(2) 1.56440(16) 0.99089(6)
Co2_2 Co 0.83105(2) 2.06415(17) 1.01890(6)
O2_2 O 0.75357(10) 0.2890(8) 1.0300(3)
O4_2 O 0.82123(10) 0.4042(8) 1.0728(4)
O5_2 O 0.85477(11) 0.7859(8) 1.0824(4)
loop_
_geom_bond_atom_site_label_1
_geom_bond_atom_site_label_2
_geom_bond_site_symmetry_1
_geom_bond_site_symmetry_2
C1 C2 1_555 1_555
C2 H1 1_555 1_555
C3 C2 1_555 1_555
H2 C3 1_555 1_555
C4 C3 1_555 1_555
H3 C4 1_555 1_555
C5 C4 1_555 1_555
C6 C1 1_555 1_555
C7 C6 1_555 1_555
H4 C7 1_555 1_555
C8 C7 1_555 1_555
H5 C8 1_555 1_555
C9 C8 1_555 1_555
H6 C9 1_555 1_555
C10 C5 1_555 1_555
H7 C10 1_555 1_555
C11 C1 1_555 1_555
H8 C11 1_555 1_555
C12 C11 1_555 1_555
H9 C12 1_555 1_555
H10 C12 1_555 1_555
H11 C12 1_555 1_555
C13 H12 1_555 1_555
H13 C13 1_555 1_555
C14 C15 1_555 1_555
C15 H14 1_555 1_555
C16 C15 1_555 1_555
H15 C16 1_555 1_555
C17 C16 1_555 1_555
H16 C17 1_555 1_555
C18 C17 1_555 1_555
C19 C14 1_555 1_555
C20 C19 1_555 1_555
H17 C20 1_555 1_555
C21 C20 1_555 1_555
H18 C21 1_555 1_555
C22 C21 1_555 1_555
H19 C22 1_555 1_555
C23 C18 1_555 1_555
H20 C23 1_555 1_555
C24 C14 1_555 1_555
H21 C24 1_555 1_555
C25 C24 1_555 1_555
H22 C25 1_555 1_555
H23 C25 1_555 1_555
H24 C25 1_555 1_555
C26 H25 1_555 1_555
H26 C26 1_555 1_555
Co1 N1 1_555 1_555
Co2 N2 1_555 1_555
N1 C11 1_555 1_555
H27 N1 1_555 1_555
N2 C24 1_555 1_555
H28 N2 1_555 1_555
O1 Co1 1_555 1_555
O2 P1 1_555 1_555
O3 P1 1_555 1_555
O4 Co2 1_555 1_555
O5 P2 1_555 1_555
O6 P2 1_555 1_555
O7 Co1 1_555 1_555
H29 O7 1_555 1_555
H30 O7 1_555 1_555
O8 Co2 1_555 1_555
H31 O8 1_555 1_555
H32 O8 1_555 1_555
P1 C13 1_555 1_555
P2 C26 1_555 1_555
Co1_2 O2 1_555 1_555
Co2_2 O5 1_555 1_555
O2_2 Co1 1_555 1_555
O4_2 Co1 1_555 1_555
O5_2 Co2 1_555 1_555
C5 C6 1_555 1_555
C9 C10 1_555 1_555
C13 N1 1_555 1_555
C18 C19 1_555 1_555
C22 C23 1_555 1_555
C26 N2 1_555 1_555
Co2 O1 1_555 1_555
O1 P1 1_555 1_555
O4 P2 1_555 1_555
O4 Co1_2 1_555 1_555

#END
