
#######################################################################
#
#                 Cambridge Crystallographic Data Centre
#                                CCDC 
#
#######################################################################
#
# If this CIF has been generated from an entry in the Cambridge 
# Structural Database, then it will include bibliographic, chemical, 
# crystal, experimental, refinement or atomic coordinate data resulting 
# from the CCDC's data processing and validation procedures.
#
#######################################################################

data_MEBFEE
_symmetry_cell_setting           monoclinic
_symmetry_space_group_name_H-M   'C 2/m'
_symmetry_Int_Tables_number      12
_space_group_name_Hall           '-C 2y'
loop_
_symmetry_equiv_pos_site_id
_symmetry_equiv_pos_as_xyz
1 x,y,z
2 -x,y,-z
3 1/2+x,1/2+y,z
4 1/2-x,1/2+y,-z
5 -x,-y,-z
6 x,-y,z
7 1/2-x,1/2-y,-z
8 1/2+x,1/2-y,z
_cell_length_a                   9.7659(8)
_cell_length_b                   6.8787(7)
_cell_length_c                   7.3870(5)
_cell_angle_alpha                90
_cell_angle_beta                 95.254(7)
_cell_angle_gamma                90
_cell_volume                     494.149
loop_
_atom_site_label
_atom_site_type_symbol
_atom_site_fract_x
_atom_site_fract_y
_atom_site_fract_z
Cu1 Cu 0.0000 0.5000 -0.5000
N1 N 0.0000 0.2018(7) -0.5000
N2 N 0.1224(4) 0.5000 -0.2733(6)
N3 N 0.2757(4) 0.5000 0.0093(6)
N4 N -0.1896(4) 0.5000 -0.3107(5)
C1 C 0.0299(4) 0.1000(6) -0.6455(5)
C2 C 0.1905(5) 0.5000 -0.1365(7)
C3 C 0.2251(5) 0.5000 0.1685(7)
H1 H 0.0516 0.1674 -0.7513
N1D N 0.0000 0.7982(7) -0.5000
N2A N -0.1224(4) 0.5000 -0.7267(6)
N4A N 0.1896(4) 0.5000 -0.6893(5)
C1A C -0.0299(4) 0.1000(6) -0.3545(5)
C1E C 0.0299(4) -0.1000(6) -0.6455(5)
C3A C -0.2251(5) 0.5000 -0.1685(7)
C1D C -0.0299(4) -0.1000(6) -0.3545(5)
H1A H -0.0516 0.1674 -0.2487
N4A_2 N 0.1896(4) 0.5000 0.3107(5)
N1D_2 N 0.0000 -0.2018(7) -0.5000
H1E H 0.0516 -0.1674 -0.7513
N3A N -0.2757(4) 0.5000 -0.0093(6)
H1D H -0.0516 -0.1674 -0.2487
Cu1_2 Cu 0.0000 0.5000 0.5000
Cu1_3 Cu 0.0000 -0.5000 -0.5000
C2A C -0.1905(5) 0.5000 0.1365(7)
N2A_2 N -0.1224(4) 0.5000 0.2733(6)
loop_
_geom_bond_atom_site_label_1
_geom_bond_atom_site_label_2
_geom_bond_site_symmetry_1
_geom_bond_site_symmetry_2
Cu1 N1 1_555 1_555
N1 C1 1_555 1_555
N2 Cu1 1_555 1_555
N3 C2 1_555 1_555
N4 Cu1 1_555 1_555
C1 H1 1_555 1_555
C2 N2 1_555 1_555
C3 N3 1_555 1_555
N1D Cu1 1_555 1_555
N2A Cu1 1_555 1_555
N4A Cu1 1_555 1_555
C1A N1 1_555 1_555
C1E C1 1_555 1_555
C3A N4 1_555 1_555
C1D C1A 1_555 1_555
H1A C1A 1_555 1_555
N4A_2 C3 1_555 1_555
N1D_2 C1E 1_555 1_555
H1E C1E 1_555 1_555
N3A C3A 1_555 1_555
H1D C1D 1_555 1_555
Cu1_2 N4A_2 1_555 1_555
Cu1_3 N1D_2 1_555 1_555
C2A N3A 1_555 1_555
N2A_2 Cu1_2 1_555 1_555
C1D N1D_2 1_555 1_555
C2A N2A_2 1_555 1_555

#END
