
#######################################################################
#
#                 Cambridge Crystallographic Data Centre
#                                CCDC 
#
#######################################################################
#
# If this CIF has been generated from an entry in the Cambridge 
# Structural Database, then it will include bibliographic, chemical, 
# crystal, experimental, refinement or atomic coordinate data resulting 
# from the CCDC's data processing and validation procedures.
#
#######################################################################

data_MEBZUO
_symmetry_cell_setting           orthorhombic
_symmetry_space_group_name_H-M   'P b c a'
_symmetry_Int_Tables_number      61
_space_group_name_Hall           '-P 2ac 2ab'
loop_
_symmetry_equiv_pos_site_id
_symmetry_equiv_pos_as_xyz
1 x,y,z
2 1/2-x,-y,1/2+z
3 1/2+x,1/2-y,-z
4 -x,1/2+y,1/2-z
5 -x,-y,-z
6 1/2+x,y,1/2-z
7 1/2-x,1/2+y,z
8 x,1/2-y,1/2+z
_cell_length_a                   18.342(4)
_cell_length_b                   7.124(1)
_cell_length_c                   14.778(3)
_cell_angle_alpha                90
_cell_angle_beta                 90
_cell_angle_gamma                90
_cell_volume                     1931.02
loop_
_atom_site_label
_atom_site_type_symbol
_atom_site_fract_x
_atom_site_fract_y
_atom_site_fract_z
O1 O 0.3195(2) 0.1677(7) 0.1522(3)
O2 O 0.1995(2) 0.2125(7) 0.1678(3)
O3 O 0.4423(2) -0.0171(6) 0.2774(3)
O4 O 0.4292(2) 0.2882(6) 0.2973(3)
N1 N 0.2014(2) 0.0738(7) 0.3354(3)
N2 N 0.3334(2) 0.0264(8) 0.4268(3)
C1 C 0.2656(3) 0.1080(8) 0.2948(4)
C2 C 0.2608(3) 0.1707(8) 0.1962(4)
C3 C 0.3320(3) 0.0853(8) 0.3411(3)
C4 C 0.4056(2) 0.1265(7) 0.3005(3)
C5 C 0.2698(3) -0.0123(10) 0.4665(4)
C6 C 0.2040(3) 0.0083(10) 0.4202(4)
O5 O 0.0754(3) 0.3603(7) 0.0855(3)
O6 O 0.0838(2) -0.0821(6) 0.0927(3)
O7 O 0.0270(3) 0.1587(7) 0.4038(3)
H1 H 0.157(4) -0.02(1) 0.448(4)
H2 H 0.264(3) -0.04(1) 0.534(4)
H3 H 0.056(5) 0.43(1) 0.095(6)
H4 H 0.124(6) 0.40(1) 0.108(7)
H5 H 0.094(4) -0.05(1) 0.036(5)
H6 H 0.122(5) -0.17(1) 0.114(6)
H7 H 0.041(9) 0.15(2) 0.454(11)
H8 H -0.001(7) 0.25(2) 0.394(10)
Sr1 Sr 0.07371(2) 0.13368(6) 0.23660(3)
O3E O -0.0577(2) -0.0171(6) 0.2226(3)
O3F O 0.0577(2) 0.4829(6) 0.2774(3)
O4F O 0.0708(2) -0.2118(6) 0.2973(3)
Sr1E Sr 0.57371(2) 0.13368(6) 0.26340(3)
Sr1F Sr 0.42629(2) -0.36632(6) 0.23660(3)
Sr1F_2 Sr 0.42629(2) 0.63368(6) 0.23660(3)
loop_
_geom_bond_atom_site_label_1
_geom_bond_atom_site_label_2
_geom_bond_site_symmetry_1
_geom_bond_site_symmetry_2
O1 C2 1_555 1_555
O2 C2 1_555 1_555
O3 C4 1_555 1_555
O4 C4 1_555 1_555
N1 C1 1_555 1_555
N2 C3 1_555 1_555
C1 C2 1_555 1_555
C3 C1 1_555 1_555
C4 C3 1_555 1_555
C5 N2 1_555 1_555
C6 N1 1_555 1_555
O5 H3 1_555 1_555
O6 H5 1_555 1_555
O7 H7 1_555 1_555
H1 C6 1_555 1_555
H2 C5 1_555 1_555
H4 O5 1_555 1_555
H6 O6 1_555 1_555
H8 O7 1_555 1_555
Sr1 O2 1_555 1_555
O3E Sr1 1_555 1_555
O3F Sr1 1_555 1_555
O4F Sr1 1_555 1_555
Sr1E O3 1_555 1_555
Sr1F O3 1_555 1_555
Sr1F_2 O4 1_555 1_555
C5 C6 1_555 1_555
O5 Sr1 1_555 1_555
O6 Sr1 1_555 1_555
O7 Sr1 1_555 1_555

#END
