
#######################################################################
#
#                 Cambridge Crystallographic Data Centre
#                                CCDC 
#
#######################################################################
#
# If this CIF has been generated from an entry in the Cambridge 
# Structural Database, then it will include bibliographic, chemical, 
# crystal, experimental, refinement or atomic coordinate data resulting 
# from the CCDC's data processing and validation procedures.
#
#######################################################################

data_MECJOT
_symmetry_cell_setting           tetragonal
_symmetry_space_group_name_H-M   'P 42/m b c'
_symmetry_Int_Tables_number      135
_space_group_name_Hall           '-P 4c 2ab'
loop_
_symmetry_equiv_pos_site_id
_symmetry_equiv_pos_as_xyz
1 x,y,z
2 -y,x,1/2+z
3 y,-x,1/2+z
4 1/2+y,1/2+x,1/2-z
5 -x,-y,z
6 1/2-x,1/2+y,-z
7 1/2+x,1/2-y,-z
8 1/2-y,1/2-x,1/2-z
9 -x,-y,-z
10 y,-x,1/2-z
11 -y,x,1/2-z
12 1/2-y,1/2-x,1/2+z
13 x,y,-z
14 1/2+x,1/2-y,z
15 1/2-x,1/2+y,z
16 1/2+y,1/2+x,1/2+z
_cell_length_a                   7.774(3)
_cell_length_b                   7.774(3)
_cell_length_c                   13.875(5)
_cell_angle_alpha                90
_cell_angle_beta                 90
_cell_angle_gamma                90
_cell_volume                     838.537
loop_
_atom_site_label
_atom_site_type_symbol
_atom_site_fract_x
_atom_site_fract_y
_atom_site_fract_z
Ag1 Ag 0.5000 1.0000 0.0000
S1 S 0.19580(7) 0.89574(8) 0.0000
C1 C 0.0977(2) 1.0064(2) 0.10182(13)
H1 H 0.1427 0.9566 0.1624
H2 H 0.1313 1.1293 0.1001
B1 B 0.5000 1.0000 0.2500
F1 F 0.50082(17) 0.8557(2) 0.19161(12)
S1H S 0.80420(7) 1.10426(8) 0.0000
F1L F 0.50082(17) 0.8557(2) -0.19161(12)
F1H F 0.49918(17) 1.1443(2) -0.19161(12)
F1D F 0.49918(17) 1.1443(2) 0.19161(12)
C1L C 0.0977(2) 1.0064(2) -0.10182(13)
C1D C -0.0977(2) 0.9936(2) 0.10182(13)
F1C F 0.3557(2) 1.00082(17) 0.30839(12)
F1G F 0.6443(2) 0.99918(17) 0.30839(12)
C1H C -0.0977(2) 0.9936(2) -0.10182(13)
H1L H 0.1427 0.9566 -0.1624
H2L H 0.1313 1.1293 -0.1001
S1H_2 S -0.19580(7) 1.10426(8) 0.0000
H1D H -0.1427 1.0434 0.1624
H2D H -0.1313 0.8707 0.1001
Ag1C Ag 0.5000 1.0000 0.5000
Ag1_2 Ag -0.5000 1.0000 0.0000
H1H H -0.1427 1.0434 -0.1624
H2H H -0.1313 0.8707 -0.1001
loop_
_geom_bond_atom_site_label_1
_geom_bond_atom_site_label_2
_geom_bond_site_symmetry_1
_geom_bond_site_symmetry_2
Ag1 S1 1_555 1_555
S1 C1 1_555 1_555
C1 H1 1_555 1_555
H2 C1 1_555 1_555
B1 F1 1_555 1_555
F1 Ag1 1_555 1_555
S1H Ag1 1_555 1_555
F1L Ag1 1_555 1_555
F1H Ag1 1_555 1_555
F1D Ag1 1_555 1_555
C1L S1 1_555 1_555
C1D C1 1_555 1_555
F1C B1 1_555 1_555
F1G B1 1_555 1_555
C1H C1L 1_555 1_555
H1L C1L 1_555 1_555
H2L C1L 1_555 1_555
S1H_2 C1D 1_555 1_555
H1D C1D 1_555 1_555
H2D C1D 1_555 1_555
Ag1C F1C 1_555 1_555
Ag1_2 S1H_2 1_555 1_555
H1H C1H 1_555 1_555
H2H C1H 1_555 1_555
B1 F1D 1_555 1_555
F1G Ag1C 1_555 1_555
C1H S1H_2 1_555 1_555

#END
