
#######################################################################
#
#                 Cambridge Crystallographic Data Centre
#                                CCDC 
#
#######################################################################
#
# If this CIF has been generated from an entry in the Cambridge 
# Structural Database, then it will include bibliographic, chemical, 
# crystal, experimental, refinement or atomic coordinate data resulting 
# from the CCDC's data processing and validation procedures.
#
#######################################################################

data_MECLEM
_symmetry_cell_setting           triclinic
_symmetry_space_group_name_H-M   'P -1'
_symmetry_Int_Tables_number      2
_space_group_name_Hall           '-P 1'
loop_
_symmetry_equiv_pos_site_id
_symmetry_equiv_pos_as_xyz
1 x,y,z
2 -x,-y,-z
_cell_length_a                   11.2372(2)
_cell_length_b                   11.4026(3)
_cell_length_c                   13.0812(3)
_cell_angle_alpha                70.580(1)
_cell_angle_beta                 78.680(1)
_cell_angle_gamma                61.164(1)
_cell_volume                     1383.46
loop_
_atom_site_label
_atom_site_type_symbol
_atom_site_fract_x
_atom_site_fract_y
_atom_site_fract_z
Cd1 Cd 0.482850(17) 0.491890(18) 0.850630(13)
Br1 Br 0.52681(3) 0.25110(3) 0.84803(2)
Br2 Br 0.34062(2) 0.49016(3) 1.055500(19)
Fe1 Fe 0.20616(3) 0.63348(3) 0.55569(3)
P1 P 0.26236(6) 0.46120(7) 0.36354(5)
P2 P 0.72937(6) 0.27969(6) 0.23894(5)
O1 O 0.39111(17) 0.46692(19) 0.31613(13)
O2 O 0.26469(18) 0.31581(19) 0.38666(14)
O3 O 0.13671(17) 0.56356(19) 0.29122(14)
C1 C 0.2144(2) 0.4875(3) 0.49443(19)
C2 C 0.0778(3) 0.5666(3) 0.5321(2)
H1 H 0.0015 0.6204 0.4902
C3 C 0.0807(3) 0.5477(3) 0.6445(2)
H2 H 0.0062 0.5867 0.6894
C4 C 0.2165(3) 0.4591(3) 0.6770(2)
H3 H 0.2462 0.4307 0.7467
C5 C 0.2991(2) 0.4215(2) 0.58535(19)
H4 H 0.3923 0.3639 0.5844
C6 C 0.7545(2) 0.2509(3) 0.37890(19)
C7 C 0.3512(3) 0.6974(3) 0.5425(2)
H5 H 0.4430 0.6402 0.5558
C8 C 0.2910(3) 0.7490(3) 0.4408(2)
H6 H 0.3366 0.7316 0.3760
C9 C 0.1494(3) 0.8317(3) 0.4555(2)
H7 H 0.0862 0.8780 0.4017
C10 C 0.1201(3) 0.8321(3) 0.5666(2)
H8 H 0.0349 0.8780 0.5980
C11 C 0.7021(2) 0.1340(2) 0.2407(2)
C12 C 0.6587(3) 0.1373(3) 0.1460(2)
H9 H 0.6487 0.2103 0.0836
C13 C 0.6308(3) 0.0315(3) 0.1453(2)
H10 H 0.6027 0.0334 0.0822
C14 C 0.6446(3) -0.0771(3) 0.2384(2)
H11 H 0.6242 -0.1469 0.2383
C15 C 0.6888(3) -0.0809(3) 0.3312(2)
H12 H 0.6997 -0.1546 0.3933
C16 C 0.7170(3) 0.0241(3) 0.3328(2)
H13 H 0.7461 0.0208 0.3960
C17 C 0.8985(2) 0.2420(3) 0.17491(19)
C18 C 0.9370(3) 0.3487(3) 0.1305(2)
H14 H 0.8740 0.4401 0.1285
C19 C 1.0692(3) 0.3188(3) 0.0893(2)
H15 H 1.0948 0.3901 0.0613
C20 C 1.1627(3) 0.1839(4) 0.0897(2)
H16 H 1.2510 0.1645 0.0621
C21 C 1.1248(3) 0.0781(3) 0.1310(3)
H17 H 1.1874 -0.0125 0.1304
C22 C 0.9934(3) 0.1065(3) 0.1737(2)
H18 H 0.9686 0.0345 0.2017
C23 C 0.3123(3) 0.2376(3) 0.3061(2)
H19 H 0.4065 0.2160 0.2843
H20 H 0.2583 0.2922 0.2423
C24 C 0.2982(3) 0.1062(3) 0.3569(2)
H21 H 0.3557 0.0508 0.4176
H22 H 0.3246 0.0548 0.3044
H23 H 0.2054 0.1287 0.3811
C25 C 0.1096(3) 0.7067(3) 0.2328(2)
H24 H 0.1936 0.7104 0.2005
H25 H 0.0705 0.7646 0.2824
C26 C 0.0123(3) 0.7587(3) 0.1462(3)
H26 H 0.0544 0.7052 0.0945
H27 H -0.0118 0.8550 0.1101
H28 H -0.0681 0.7490 0.1784
Cd1A Cd 0.517150(17) 0.508110(18) 0.149370(13)
Cd1A_2 Cd 0.517150(17) 0.508110(18) 1.149370(13)
Br1A Br 0.47319(3) 0.74890(3) 1.15197(2)
Br2A Br 0.65938(2) 0.50984(3) 0.944500(19)
Fe1A Fe 0.79384(3) 0.36652(3) 0.44431(3)
P1A P 0.73764(6) 0.53880(7) 0.63646(5)
P2A P 0.27063(6) 0.72031(6) 0.76106(5)
P2_2 P 0.72937(6) 0.27969(6) 1.23894(5)
O1A O 0.60889(17) 0.53308(19) 0.68387(13)
O1_2 O 0.39111(17) 0.46692(19) 1.31613(13)
O2A O 0.73531(18) 0.68419(19) 0.61334(14)
O3A O 0.86329(17) 0.43644(19) 0.70878(14)
C1A C 0.7856(2) 0.5125(3) 0.50557(19)
C2A C 0.9222(3) 0.4334(3) 0.4679(2)
H1A H 0.9985 0.3796 0.5098
C3A C 0.9193(3) 0.4523(3) 0.3555(2)
H2A H 0.9938 0.4133 0.3106
C4A C 0.7835(3) 0.5409(3) 0.3230(2)
H3A H 0.7538 0.5693 0.2533
C5A C 0.7009(2) 0.5785(2) 0.41465(19)
H4A H 0.6077 0.6361 0.4156
C6A C 0.2455(2) 0.7491(3) 0.62110(19)
C7A C 0.6488(3) 0.3026(3) 0.4575(2)
H5A H 0.5570 0.3598 0.4442
C8A C 0.7090(3) 0.2510(3) 0.5592(2)
H6A H 0.6634 0.2684 0.6240
C9A C 0.8506(3) 0.1683(3) 0.5445(2)
H7A H 0.9138 0.1220 0.5983
C10A C 0.8799(3) 0.1679(3) 0.4334(2)
H8A H 0.9651 0.1220 0.4020
C11A C 0.2979(2) 0.8660(2) 0.7593(2)
C12A C 0.3413(3) 0.8627(3) 0.8540(2)
H9A H 0.3513 0.7897 0.9164
C13A C 0.3692(3) 0.9685(3) 0.8547(2)
H10A H 0.3973 0.9666 0.9178
C14A C 0.3554(3) 1.0771(3) 0.7616(2)
H11A H 0.3758 1.1469 0.7617
C15A C 0.3112(3) 1.0809(3) 0.6688(2)
H12A H 0.3003 1.1546 0.6067
C16A C 0.2830(3) 0.9759(3) 0.6672(2)
H13A H 0.2539 0.9792 0.6040
C17A C 0.1015(2) 0.7580(3) 0.82509(19)
C18A C 0.0630(3) 0.6513(3) 0.8695(2)
H14A H 0.1260 0.5599 0.8715
C19A C -0.0692(3) 0.6812(3) 0.9107(2)
H15A H -0.0948 0.6099 0.9387
C20A C -0.1627(3) 0.8161(4) 0.9103(2)
H16A H -0.2510 0.8355 0.9379
C21A C -0.1248(3) 0.9219(3) 0.8690(3)
H17A H -0.1874 1.0125 0.8696
C22A C 0.0066(3) 0.8935(3) 0.8263(2)
H18A H 0.0314 0.9655 0.7983
C23A C 0.6877(3) 0.7624(3) 0.6939(2)
H19A H 0.5935 0.7840 0.7157
H20A H 0.7417 0.7078 0.7577
C24A C 0.7018(3) 0.8938(3) 0.6431(2)
H21A H 0.6443 0.9492 0.5824
H22A H 0.6754 0.9452 0.6956
H23A H 0.7946 0.8713 0.6189
C25A C 0.8904(3) 0.2933(3) 0.7672(2)
H24A H 0.8064 0.2896 0.7995
H25A H 0.9295 0.2354 0.7176
C26A C 0.9877(3) 0.2413(3) 0.8538(3)
H26A H 0.9456 0.2948 0.9055
H27A H 1.0118 0.1450 0.8899
H28A H 1.0681 0.2510 0.8216
loop_
_geom_bond_atom_site_label_1
_geom_bond_atom_site_label_2
_geom_bond_site_symmetry_1
_geom_bond_site_symmetry_2
Cd1 Br1 1_555 1_555
Br2 Cd1 1_555 1_555
Fe1 C1 1_555 1_555
P1 O1 1_555 1_555
P2 C6 1_555 1_555
O1 Cd1A 1_555 1_555
O2 P1 1_555 1_555
O3 P1 1_555 1_555
C1 P1 1_555 1_555
C2 Fe1 1_555 1_555
H1 C2 1_555 1_555
C3 Fe1 1_555 1_555
H2 C3 1_555 1_555
C4 Fe1 1_555 1_555
H3 C4 1_555 1_555
C5 Fe1 1_555 1_555
H4 C5 1_555 1_555
C6 Fe1A 1_555 1_555
C7 Fe1 1_555 1_555
H5 C7 1_555 1_555
C8 Fe1 1_555 1_555
H6 C8 1_555 1_555
C9 Fe1 1_555 1_555
H7 C9 1_555 1_555
C10 Fe1 1_555 1_555
H8 C10 1_555 1_555
C11 P2 1_555 1_555
C12 C11 1_555 1_555
H9 C12 1_555 1_555
C13 C12 1_555 1_555
H10 C13 1_555 1_555
C14 C13 1_555 1_555
H11 C14 1_555 1_555
C15 C14 1_555 1_555
H12 C15 1_555 1_555
C16 C11 1_555 1_555
H13 C16 1_555 1_555
C17 P2 1_555 1_555
C18 C17 1_555 1_555
H14 C18 1_555 1_555
C19 C18 1_555 1_555
H15 C19 1_555 1_555
C20 C19 1_555 1_555
H16 C20 1_555 1_555
C21 C20 1_555 1_555
H17 C21 1_555 1_555
C22 C17 1_555 1_555
H18 C22 1_555 1_555
C23 O2 1_555 1_555
H19 C23 1_555 1_555
H20 C23 1_555 1_555
C24 C23 1_555 1_555
H21 C24 1_555 1_555
H22 C24 1_555 1_555
H23 C24 1_555 1_555
C25 O3 1_555 1_555
H24 C25 1_555 1_555
H25 C25 1_555 1_555
C26 C25 1_555 1_555
H26 C26 1_555 1_555
H27 C26 1_555 1_555
H28 C26 1_555 1_555
Cd1A P2 1_555 1_555
Cd1A_2 Br2 1_555 1_555
Br1A Cd1A_2 1_555 1_555
Br2A Cd1 1_555 1_555
Fe1A C1A 1_555 1_555
P1A O1A 1_555 1_555
P2A Cd1 1_555 1_555
P2_2 Cd1A_2 1_555 1_555
O1A Cd1 1_555 1_555
O1_2 Cd1A_2 1_555 1_555
O2A P1A 1_555 1_555
O3A P1A 1_555 1_555
C1A P1A 1_555 1_555
C2A Fe1A 1_555 1_555
H1A C2A 1_555 1_555
C3A Fe1A 1_555 1_555
H2A C3A 1_555 1_555
C4A Fe1A 1_555 1_555
H3A C4A 1_555 1_555
C5A Fe1A 1_555 1_555
H4A C5A 1_555 1_555
C6A Fe1 1_555 1_555
C7A C6 1_555 1_555
H5A C7A 1_555 1_555
C8A Fe1A 1_555 1_555
H6A C8A 1_555 1_555
C9A Fe1A 1_555 1_555
H7A C9A 1_555 1_555
C10A C6 1_555 1_555
H8A C10A 1_555 1_555
C11A P2A 1_555 1_555
C12A C11A 1_555 1_555
H9A C12A 1_555 1_555
C13A C12A 1_555 1_555
H10A C13A 1_555 1_555
C14A C13A 1_555 1_555
H11A C14A 1_555 1_555
C15A C14A 1_555 1_555
H12A C15A 1_555 1_555
C16A C11A 1_555 1_555
H13A C16A 1_555 1_555
C17A P2A 1_555 1_555
C18A C17A 1_555 1_555
H14A C18A 1_555 1_555
C19A C18A 1_555 1_555
H15A C19A 1_555 1_555
C20A C19A 1_555 1_555
H16A C20A 1_555 1_555
C21A C20A 1_555 1_555
H17A C21A 1_555 1_555
C22A C17A 1_555 1_555
H18A C22A 1_555 1_555
C23A O2A 1_555 1_555
H19A C23A 1_555 1_555
H20A C23A 1_555 1_555
C24A C23A 1_555 1_555
H21A C24A 1_555 1_555
H22A C24A 1_555 1_555
H23A C24A 1_555 1_555
C25A O3A 1_555 1_555
H24A C25A 1_555 1_555
H25A C25A 1_555 1_555
C26A C25A 1_555 1_555
H26A C26A 1_555 1_555
H27A C26A 1_555 1_555
H28A C26A 1_555 1_555
C1 C2 1_555 1_555
C1 C5 1_555 1_555
C2 C3 1_555 1_555
C3 C4 1_555 1_555
C4 C5 1_555 1_555
C7 C8 1_555 1_555
C7 C6A 1_555 1_555
C8 C9 1_555 1_555
C9 C10 1_555 1_555
C10 C6A 1_555 1_555
C15 C16 1_555 1_555
C21 C22 1_555 1_555
Cd1A_2 Br2A 1_555 1_555
Fe1A C7A 1_555 1_555
Fe1A C10A 1_555 1_555
P2A C6A 1_555 1_555
C1A C2A 1_555 1_555
C1A C5A 1_555 1_555
C2A C3A 1_555 1_555
C3A C4A 1_555 1_555
C4A C5A 1_555 1_555
C7A C8A 1_555 1_555
C8A C9A 1_555 1_555
C9A C10A 1_555 1_555
C15A C16A 1_555 1_555
C21A C22A 1_555 1_555

#END
