
#######################################################################
#
#                 Cambridge Crystallographic Data Centre
#                                CCDC 
#
#######################################################################
#
# If this CIF has been generated from an entry in the Cambridge 
# Structural Database, then it will include bibliographic, chemical, 
# crystal, experimental, refinement or atomic coordinate data resulting 
# from the CCDC's data processing and validation procedures.
#
#######################################################################

data_MECMAJ
_symmetry_cell_setting           monoclinic
_symmetry_space_group_name_H-M   'C 2/c'
_symmetry_Int_Tables_number      15
_space_group_name_Hall           '-C 2yn'
loop_
_symmetry_equiv_pos_site_id
_symmetry_equiv_pos_as_xyz
1 x,y,z
2 1/2+x,1/2+y,z
3 -x,y,1/2-z
4 1/2-x,1/2+y,1/2-z
5 -x,-y,-z
6 1/2-x,1/2-y,-z
7 x,-y,1/2+z
8 1/2+x,1/2-y,1/2+z
_cell_length_a                   8.3341(2)
_cell_length_b                   37.7094(9)
_cell_length_c                   11.7195(3)
_cell_angle_alpha                90
_cell_angle_beta                 90.3959(9)
_cell_angle_gamma                90
_cell_volume                     3683.05
loop_
_atom_site_label
_atom_site_type_symbol
_atom_site_fract_x
_atom_site_fract_y
_atom_site_fract_z
Y1 Y 0.5000 0.324787(19) 0.2500
Y2 Y 0.5000 0.176790(19) 0.2500
K1 K 0.5000 0.44179(5) 0.2500
K2 K 1.0000 0.55993(5) 0.2500
C1 C 0.2530(7) 0.26270(18) 0.1385(6)
C2 C 0.0871(6) 0.27527(17) 0.1172(6)
C3 C 0.0380(7) 0.23599(18) 0.1142(5)
C4 C 0.2059(7) 0.22567(18) 0.1342(6)
O1 O 0.3896(5) 0.27816(11) 0.1490(4)
O2 O 0.0174(6) 0.30313(13) 0.1180(5)
O3 O -0.0892(5) 0.22007(13) 0.1023(4)
O4 O 0.2785(5) 0.19652(12) 0.1447(5)
C5 C 0.5452(6) 0.53287(15) 0.3829(5)
C6 C 0.6121(6) 0.56859(14) 0.3835(5)
C7 C 0.4470(6) 0.58303(14) 0.3989(5)
C8 C 0.3871(6) 0.54660(14) 0.3937(5)
O5 O 0.6028(5) 0.50166(11) 0.3728(4)
H1 H 0.719(4) 0.504(2) 0.385(6)
O6 O 0.7454(5) 0.58201(12) 0.3699(4)
O7 O 0.3921(5) 0.61312(11) 0.4105(4)
O8 O 0.2455(5) 0.53309(12) 0.3911(4)
H2 H 0.260(10) 0.5075(8) 0.383(7)
C9 C 0.1102(6) 0.43201(14) 0.1151(5)
C10 C -0.0558(6) 0.41768(15) 0.1008(5)
C11 C -0.1147(6) 0.45423(14) 0.1079(5)
C12 C 0.0455(6) 0.46791(15) 0.1168(5)
O9 O 0.2444(5) 0.41865(11) 0.1290(4)
O10 O -0.1110(5) 0.38760(11) 0.0898(4)
O11 O -0.2561(5) 0.46760(11) 0.1097(4)
O12 O 0.1013(5) 0.49907(11) 0.1268(4)
O13 O 0.4339(5) 0.37429(12) 0.3724(4)
H3 H 0.323(3) 0.373(2) 0.398(6)
H4 H 0.498(6) 0.378(2) 0.441(4)
O14 O 0.2639(5) 0.34776(11) 0.1691(5)
H5 H 0.166(5) 0.3350(16) 0.157(7)
H6 H 0.244(8) 0.3727(6) 0.169(7)
O15 O 0.3041(6) 0.30396(12) 0.3786(4)
H7 H 0.330(8) 0.295(2) 0.453(3)
H8 H 0.193(3) 0.310(2) 0.378(6)
O16 O 0.4264(5) 0.12864(12) 0.1238(4)
H9 H 0.317(4) 0.122(2) 0.107(6)
H10 H 0.485(7) 0.130(2) 0.053(4)
O17 O 0.4031(5) 0.22295(10) 0.3602(4)
H11 H 0.460(7) 0.2456(10) 0.355(7)
H12 H 0.289(3) 0.2314(17) 0.370(7)
O18 O 0.2699(5) 0.15374(12) 0.3431(5)
H13 H 0.172(6) 0.1646(17) 0.370(7)
H14 H 0.258(9) 0.1284(6) 0.355(7)
K1_2 K -0.5000 0.44179(5) 0.2500
K1_3 K 1.5000 0.44179(5) 0.2500
K2_2 K 0.0000 0.55993(5) 0.2500
K2A K 0.5000 0.05993(5) 0.2500
C1B C 0.7470(7) 0.26270(18) 0.3615(6)
C2B C 0.9129(6) 0.27527(17) 0.3828(6)
C3B C 0.9620(7) 0.23599(18) 0.3858(5)
C4B C 0.7941(7) 0.22567(18) 0.3658(6)
O1B O 0.6104(5) 0.27816(11) 0.3510(4)
O2B O 0.9826(6) 0.30313(13) 0.3820(5)
O3B O 1.0892(5) 0.22007(13) 0.3977(4)
O4B O 0.7215(5) 0.19652(12) 0.3553(5)
C5B C 0.4548(6) 0.53287(15) 0.1171(5)
C6B C 0.3879(6) 0.56859(14) 0.1165(5)
C7B C 0.5530(6) 0.58303(14) 0.1011(5)
C8B C 0.6129(6) 0.54660(14) 0.1063(5)
O5B O 0.3972(5) 0.50166(11) 0.1272(4)
H1B H 0.281(4) 0.504(2) 0.115(6)
O6B O 0.2546(5) 0.58201(12) 0.1301(4)
O6B_2 O 1.2546(5) 0.58201(12) 0.1301(4)
O7B O 0.6079(5) 0.61312(11) 0.0895(4)
O8B O 0.7545(5) 0.53309(12) 0.1089(4)
O8_2 O 1.2455(5) 0.53309(12) 0.3911(4)
H2B H 0.740(10) 0.5075(8) 0.117(7)
H2_2 H 1.260(10) 0.5075(8) 0.383(7)
C9B C 0.8898(6) 0.43201(14) 0.3849(5)
C10B C 1.0558(6) 0.41768(15) 0.3992(5)
C11B C 1.1147(6) 0.45423(14) 0.3921(5)
C12B C 0.9545(6) 0.46791(15) 0.3832(5)
O9B O 0.7556(5) 0.41865(11) 0.3710(4)
O10B O 1.1110(5) 0.38760(11) 0.4102(4)
O11B O 1.2561(5) 0.46760(11) 0.3903(4)
O11_2 O 0.7439(5) 0.46760(11) 0.1097(4)
O11B_2 O 0.2561(5) 0.46760(11) 0.3903(4)
O12B O 0.8987(5) 0.49907(11) 0.3732(4)
O12_2 O 1.1013(5) 0.49907(11) 0.1268(4)
O13B O 0.5661(5) 0.37429(12) 0.1276(4)
H3B H 0.677(3) 0.373(2) 0.102(6)
H4B H 0.502(6) 0.378(2) 0.059(4)
O14B O 0.7361(5) 0.34776(11) 0.3309(5)
H5B H 0.834(5) 0.3350(16) 0.343(7)
H6B H 0.756(8) 0.3727(6) 0.331(7)
O15B O 0.6959(6) 0.30396(12) 0.1214(4)
H7B H 0.670(8) 0.295(2) 0.047(3)
H8B H 0.807(3) 0.310(2) 0.122(6)
O16B O 0.5736(5) 0.12864(12) 0.3762(4)
O16A O 0.9264(5) 0.62864(12) 0.1238(4)
O16C O 1.0736(5) 0.62864(12) 0.3762(4)
H9B H 0.683(4) 0.122(2) 0.393(6)
H9A H 0.817(4) 0.622(2) 0.107(6)
H9C H 1.183(4) 0.622(2) 0.393(6)
H10B H 0.515(7) 0.130(2) 0.447(4)
H10A H 0.985(7) 0.630(2) 0.053(4)
H10C H 1.015(7) 0.630(2) 0.447(4)
O17B O 0.5969(5) 0.22295(10) 0.1398(4)
H11B H 0.540(7) 0.2456(10) 0.145(7)
H12B H 0.711(3) 0.2314(17) 0.130(7)
O18B O 0.7301(5) 0.15374(12) 0.1569(5)
H13B H 0.828(6) 0.1646(17) 0.130(7)
H14B H 0.742(9) 0.1284(6) 0.145(7)
loop_
_geom_bond_atom_site_label_1
_geom_bond_atom_site_label_2
_geom_bond_site_symmetry_1
_geom_bond_site_symmetry_2
Y1 O1 1_555 1_555
Y2 O4 1_555 1_555
K1 O5 1_555 1_555
K2 O6 1_555 1_555
C1 C2 1_555 1_555
C2 C3 1_555 1_555
C3 C4 1_555 1_555
C4 C1 1_555 1_555
O1 C1 1_555 1_555
O2 C2 1_555 1_555
O3 C3 1_555 1_555
O4 C4 1_555 1_555
C5 C6 1_555 1_555
C6 C7 1_555 1_555
C7 C8 1_555 1_555
C8 C5 1_555 1_555
O5 C5 1_555 1_555
H1 O5 1_555 1_555
O6 C6 1_555 1_555
O7 C7 1_555 1_555
O8 C8 1_555 1_555
H2 O8 1_555 1_555
C9 C10 1_555 1_555
C10 C11 1_555 1_555
C11 C12 1_555 1_555
C12 C9 1_555 1_555
O9 K1 1_555 1_555
O10 C10 1_555 1_555
O11 C11 1_555 1_555
O12 C12 1_555 1_555
O13 Y1 1_555 1_555
H3 O13 1_555 1_555
H4 O13 1_555 1_555
O14 Y1 1_555 1_555
H5 O14 1_555 1_555
H6 O14 1_555 1_555
O15 Y1 1_555 1_555
H7 O15 1_555 1_555
H8 O15 1_555 1_555
O16 Y2 1_555 1_555
H9 O16 1_555 1_555
H10 O16 1_555 1_555
O17 Y2 1_555 1_555
H11 O17 1_555 1_555
H12 O17 1_555 1_555
O18 Y2 1_555 1_555
H13 O18 1_555 1_555
H14 O18 1_555 1_555
K1_2 O11 1_555 1_555
K1_3 O11B 1_555 1_555
K2_2 O8 1_555 1_555
K2A O16 1_555 1_555
C1B C2B 1_555 1_555
C2B C3B 1_555 1_555
C3B C4B 1_555 1_555
C4B C1B 1_555 1_555
O1B Y1 1_555 1_555
O2B C2B 1_555 1_555
O3B C3B 1_555 1_555
O4B Y2 1_555 1_555
C5B C6B 1_555 1_555
C6B C7B 1_555 1_555
C7B C8B 1_555 1_555
C8B C5B 1_555 1_555
O5B K1 1_555 1_555
H1B O5B 1_555 1_555
O6B K2_2 1_555 1_555
O6B_2 K2 1_555 1_555
O7B C7B 1_555 1_555
O8B K2 1_555 1_555
O8_2 K2 1_555 1_555
H2B O8B 1_555 1_555
H2_2 O8_2 1_555 1_555
C9B C10B 1_555 1_555
C10B C11B 1_555 1_555
C11B C12B 1_555 1_555
C12B C9B 1_555 1_555
O9B K1 1_555 1_555
O10B C10B 1_555 1_555
O11B C11B 1_555 1_555
O11_2 K1 1_555 1_555
O11B_2 K1 1_555 1_555
O12B K2 1_555 1_555
O12_2 K2 1_555 1_555
O13B Y1 1_555 1_555
H3B O13B 1_555 1_555
H4B O13B 1_555 1_555
O14B Y1 1_555 1_555
H5B O14B 1_555 1_555
H6B O14B 1_555 1_555
O15B Y1 1_555 1_555
H7B O15B 1_555 1_555
H8B O15B 1_555 1_555
O16B Y2 1_555 1_555
O16A K2 1_555 1_555
O16C K2 1_555 1_555
H9B O16B 1_555 1_555
H9A O16A 1_555 1_555
H9C O16C 1_555 1_555
H10B O16B 1_555 1_555
H10A O16A 1_555 1_555
H10C O16C 1_555 1_555
O17B Y2 1_555 1_555
H11B O17B 1_555 1_555
H12B O17B 1_555 1_555
O18B Y2 1_555 1_555
H13B O18B 1_555 1_555
H14B O18B 1_555 1_555
K1 O13 1_555 1_555
K1 O13B 1_555 1_555
C9 O9 1_555 1_555
O12 K2_2 1_555 1_555
K2A O16B 1_555 1_555
C1B O1B 1_555 1_555
C4B O4B 1_555 1_555
C5B O5B 1_555 1_555
C6B O6B 1_555 1_555
C8B O8B 1_555 1_555
C9B O9B 1_555 1_555
C12B O12B 1_555 1_555

#END
