
#######################################################################
#
#                 Cambridge Crystallographic Data Centre
#                                CCDC 
#
#######################################################################
#
# If this CIF has been generated from an entry in the Cambridge 
# Structural Database, then it will include bibliographic, chemical, 
# crystal, experimental, refinement or atomic coordinate data resulting 
# from the CCDC's data processing and validation procedures.
#
#######################################################################

data_MECMEN
_symmetry_cell_setting           tetragonal
_symmetry_space_group_name_H-M   'P 4/m c c'
_symmetry_Int_Tables_number      124
_space_group_name_Hall           '-P 4 2c'
loop_
_symmetry_equiv_pos_site_id
_symmetry_equiv_pos_as_xyz
1 x,y,z
2 -y,x,z
3 x,-y,1/2-z
4 -x,-y,z
5 y,x,1/2-z
6 y,-x,z
7 -x,y,1/2-z
8 -y,-x,1/2-z
9 -x,-y,-z
10 y,-x,-z
11 -x,y,1/2+z
12 x,y,-z
13 -y,-x,1/2+z
14 -y,x,-z
15 x,-y,1/2+z
16 y,x,1/2+z
_cell_length_a                   6.2010(5)
_cell_length_b                   6.2010(5)
_cell_length_c                   11.639(1)
_cell_angle_alpha                90
_cell_angle_beta                 90
_cell_angle_gamma                90
_cell_volume                     447.547
loop_
_atom_site_label
_atom_site_type_symbol
_atom_site_fract_x
_atom_site_fract_y
_atom_site_fract_z
Y1 Y 0.5000 0.5000 0.7500
K1 K 1.0000 1.0000 0.7500
C1 C 0.5716(8) 0.9124(8) 0.5614(3)
O1 O 0.6673(5) 0.7895(5) 0.6386(2)
Y1H Y 0.5000 0.5000 0.2500
Y1H_2 Y 0.5000 1.5000 0.2500
Y1_2 Y 0.5000 1.5000 0.7500
Y1H_3 Y -0.5000 0.5000 0.2500
Y1_3 Y -0.5000 0.5000 0.7500
K1H K 1.0000 1.0000 0.2500
K1H_2 K 0.0000 1.0000 0.2500
K1_2 K 0.0000 1.0000 0.7500
K1H_3 K 0.0000 0.0000 0.2500
K1_3 K 0.0000 0.0000 0.7500
C1C C 0.4284(8) 1.0876(8) 0.5614(3)
C1H C 0.4284(8) 1.0876(8) 0.4386(3)
C1K C 0.5716(8) 0.9124(8) 0.4386(3)
C1A C 0.0876(8) 0.5716(8) 0.5614(3)
C1E C -0.0876(8) 0.4284(8) 0.5614(3)
C1I C -0.0876(8) 0.4284(8) 0.4386(3)
C1M C 0.0876(8) 0.5716(8) 0.4386(3)
O1K O 0.6673(5) 0.7895(5) 0.3614(2)
O1H O 0.3327(5) 1.2105(5) 0.3614(2)
O1C O 0.3327(5) 1.2105(5) 0.6386(2)
O1A O 0.2105(5) 0.6673(5) 0.6386(2)
O1M O 0.2105(5) 0.6673(5) 0.3614(2)
O1I O -0.2105(5) 0.3327(5) 0.3614(2)
O1E O -0.2105(5) 0.3327(5) 0.6386(2)
O1B O 0.6673(5) 0.2105(5) 0.8614(2)
O1C_2 O 0.3327(5) 0.2105(5) 0.6386(2)
O1D O 0.7895(5) 0.6673(5) 0.8614(2)
O1E_2 O 0.7895(5) 0.3327(5) 0.6386(2)
O1F O 0.3327(5) 0.7895(5) 0.8614(2)
O1G O 0.2105(5) 0.3327(5) 0.8614(2)
O1A_2 O 1.2105(5) 0.6673(5) 0.6386(2)
O1B_2 O 0.6673(5) 1.2105(5) 0.8614(2)
O1C_3 O 1.3327(5) 1.2105(5) 0.6386(2)
O1E_3 O 0.7895(5) 1.3327(5) 0.6386(2)
O1F_2 O 1.3327(5) 0.7895(5) 0.8614(2)
O1G_2 O 1.2105(5) 1.3327(5) 0.8614(2)
loop_
_geom_bond_atom_site_label_1
_geom_bond_atom_site_label_2
_geom_bond_site_symmetry_1
_geom_bond_site_symmetry_2
Y1 O1 1_555 1_555
K1 O1 1_555 1_555
C1 O1 1_555 1_555
Y1H O1K 1_555 1_555
Y1H_2 O1H 1_555 1_555
Y1_2 O1C 1_555 1_555
Y1H_3 O1I 1_555 1_555
Y1_3 O1E 1_555 1_555
K1H O1K 1_555 1_555
K1H_2 O1H 1_555 1_555
K1_2 O1C 1_555 1_555
K1H_3 O1I 1_555 1_555
K1_3 O1E 1_555 1_555
C1C C1 1_555 1_555
C1H C1C 1_555 1_555
C1K C1 1_555 1_555
C1A C1E 1_555 1_555
C1E C1I 1_555 1_555
C1I C1M 1_555 1_555
C1M C1A 1_555 1_555
O1K C1K 1_555 1_555
O1H C1H 1_555 1_555
O1C C1C 1_555 1_555
O1A Y1 1_555 1_555
O1M Y1H 1_555 1_555
O1I C1I 1_555 1_555
O1E C1E 1_555 1_555
O1B Y1 1_555 1_555
O1C_2 Y1 1_555 1_555
O1D Y1 1_555 1_555
O1E_2 Y1 1_555 1_555
O1F Y1 1_555 1_555
O1G Y1 1_555 1_555
O1A_2 K1 1_555 1_555
O1B_2 K1 1_555 1_555
O1C_3 K1 1_555 1_555
O1E_3 K1 1_555 1_555
O1F_2 K1 1_555 1_555
O1G_2 K1 1_555 1_555
K1 O1D 1_555 1_555
Y1_2 O1B_2 1_555 1_555
Y1_2 O1E_3 1_555 1_555
K1H_2 O1M 1_555 1_555
K1_2 O1A 1_555 1_555
K1_2 O1F 1_555 1_555
K1_3 O1C_2 1_555 1_555
K1_3 O1G 1_555 1_555
C1H C1K 1_555 1_555
C1A O1A 1_555 1_555
C1M O1M 1_555 1_555

#END
