
#######################################################################
#
#                 Cambridge Crystallographic Data Centre
#                                CCDC 
#
#######################################################################
#
# If this CIF has been generated from an entry in the Cambridge 
# Structural Database, then it will include bibliographic, chemical, 
# crystal, experimental, refinement or atomic coordinate data resulting 
# from the CCDC's data processing and validation procedures.
#
#######################################################################

data_MECNUD
_symmetry_cell_setting           triclinic
_symmetry_space_group_name_H-M   'P -1'
_symmetry_Int_Tables_number      2
_space_group_name_Hall           '-P 1'
loop_
_symmetry_equiv_pos_site_id
_symmetry_equiv_pos_as_xyz
1 x,y,z
2 -x,-y,-z
_cell_length_a                   9.2643(14)
_cell_length_b                   12.661(8)
_cell_length_c                   12.839(5)
_cell_angle_alpha                106.09(3)
_cell_angle_beta                 77.89(2)
_cell_angle_gamma                97.73(3)
_cell_volume                     1410.08
loop_
_atom_site_label
_atom_site_type_symbol
_atom_site_fract_x
_atom_site_fract_y
_atom_site_fract_z
Ru1 Ru 0.05981(3) 0.51822(2) 0.57315(2)
Ru2 Ru 0.06151(3) 0.50631(3) 0.91456(2)
Cl1 Cl 0.20086(10) 0.54278(9) 0.73116(7)
O1 O -0.1262(3) 0.5749(2) 0.6748(2)
O2 O -0.0051(3) 0.3630(2) 0.5861(2)
O3 O 0.1213(3) 0.6727(2) 0.5575(2)
O4 O 0.2454(3) 0.4659(2) 0.4674(2)
O5 O 0.1097(3) 0.3473(2) 0.8778(2)
O6 O 0.0105(3) 0.6653(2) 0.9553(2)
O7 O -0.1278(3) 0.4551(2) 0.8566(2)
O8 O 0.2501(3) 0.5523(2) 0.9756(2)
C1 C -0.2401(4) 0.5729(3) 0.6347(3)
C2 C -0.3748(4) 0.6168(3) 0.7075(3)
H1 H -0.4637(4) 0.6007(3) 0.6814(3)
C3 C -0.3740(4) 0.6785(3) 0.8088(3)
H2 H -0.2853(4) 0.6900(3) 0.8349(3)
C4 C -0.5003(5) 0.7294(4) 0.8819(3)
H3 H -0.5924(5) 0.7084(4) 0.8611(3)
C5 C -0.4945(5) 0.8038(4) 0.9764(4)
H4 H -0.4027(5) 0.8232(4) 0.9978(4)
C6 C -0.6238(7) 0.8588(5) 1.0512(5)
H5 H -0.5917(7) 0.9093(5) 1.1146(5)
H6 H -0.6963(7) 0.8043(5) 1.0743(5)
H7 H -0.6667(7) 0.8984(5) 1.0130(5)
C7 C -0.0802(4) 0.2979(3) 0.5185(3)
C8 C -0.1237(4) 0.1856(3) 0.5284(3)
H8 H -0.1688(4) 0.1364(3) 0.4738(3)
C9 C -0.1020(4) 0.1500(3) 0.6111(3)
H9 H -0.0585(4) 0.2006(3) 0.6658(3)
C10 C -0.1404(5) 0.0395(4) 0.6236(4)
H10 H -0.1832(5) -0.0117(4) 0.5690(4)
C11 C -0.1188(5) 0.0061(4) 0.7073(4)
H11 H -0.0761(5) 0.0583(4) 0.7614(4)
C12 C -0.1559(7) -0.1063(4) 0.7233(5)
H12 H -0.1288(7) -0.1086(4) 0.7908(5)
H13 H -0.1025(7) -0.1580(4) 0.6627(5)
H14 H -0.2603(7) -0.1252(4) 0.7269(5)
C13 C 0.0666(4) 0.2942(3) 0.9509(3)
C14 C 0.1070(5) 0.1824(4) 0.9298(4)
H15 H 0.0690(5) 0.1436(4) 0.9828(4)
C15 C 0.1950(5) 0.1329(4) 0.8392(4)
H16 H 0.2299(5) 0.1723(4) 0.7864(4)
C16 C 0.2420(7) 0.0225(4) 0.8147(5)
H17 H 0.2029(7) -0.0199(4) 0.8643(5)
C17 C 0.3368(8) -0.0207(6) 0.7263(5)
H18 H 0.3758(8) 0.0220(6) 0.6770(5)
C18 C 0.3861(10) -0.1348(6) 0.6999(7)
H19 H 0.4559(10) -0.1484(6) 0.6318(7)
H20 H 0.3018(10) -0.1878(6) 0.6931(7)
H21 H 0.4320(10) -0.1413(6) 0.7581(7)
C19 C -0.2464(4) 0.4369(3) 0.9221(3)
C20 C -0.3833(4) 0.4026(3) 0.8796(3)
H22 H -0.4718(4) 0.4015(3) 0.9297(3)
C21 C -0.3884(4) 0.3729(3) 0.7738(3)
H23 H -0.2988(4) 0.3735(3) 0.7248(3)
C22 C -0.5207(4) 0.3398(4) 0.7277(3)
H24 H -0.6109(4) 0.3452(4) 0.7762(3)
C23 C -0.5234(5) 0.3024(4) 0.6216(4)
H25 H -0.4328(5) 0.2975(4) 0.5735(4)
C24 C -0.6589(6) 0.2673(5) 0.5725(4)
H26 H -0.6317(6) 0.2438(5) 0.4937(4)
H27 H -0.7196(6) 0.3281(5) 0.5922(4)
H28 H -0.7131(6) 0.2073(5) 0.5996(4)
Ru1A Ru -0.05981(3) 0.48178(2) 0.42685(2)
Ru2A Ru -0.06151(3) 0.49369(3) 1.08544(2)
C7A C 0.0802(4) 0.7021(3) 0.4815(3)
C1A C 0.2401(4) 0.4271(3) 0.3653(3)
C13A C -0.0666(4) 0.7058(3) 1.0491(3)
C19A C 0.2464(4) 0.5631(3) 1.0779(3)
O4A O -0.2454(3) 0.5341(2) 0.5326(2)
O3A O -0.1213(3) 0.3273(2) 0.4425(2)
O6A O -0.0105(3) 0.3347(2) 1.0447(2)
O8A O -0.2501(3) 0.4477(2) 1.0244(2)
Cl1A Cl -0.20086(10) 0.45722(9) 0.26884(7)
O1A O 0.1262(3) 0.4251(2) 0.3252(2)
O2A O 0.0051(3) 0.6370(2) 0.4139(2)
Cl1A_2 Cl -0.20086(10) 0.45722(9) 1.26884(7)
O5A O -0.1097(3) 0.6527(2) 1.1222(2)
O7A O 0.1278(3) 0.5449(2) 1.1434(2)
C8A C 0.1237(4) 0.8144(3) 0.4716(3)
C2A C 0.3748(4) 0.3832(3) 0.2925(3)
C14A C -0.1070(5) 0.8176(4) 1.0702(4)
C20A C 0.3833(4) 0.5974(3) 1.1204(3)
Ru1A_2 Ru -0.05981(3) 0.48178(2) 1.42685(2)
H8A H 0.1688(4) 0.8636(3) 0.5262(3)
C9A C 0.1020(4) 0.8500(3) 0.3889(3)
H1A H 0.4637(4) 0.3993(3) 0.3186(3)
C3A C 0.3740(4) 0.3215(3) 0.1912(3)
H15A H -0.0690(5) 0.8564(4) 1.0172(4)
C15A C -0.1950(5) 0.8671(4) 1.1608(4)
H22A H 0.4718(4) 0.5985(3) 1.0703(3)
C21A C 0.3884(4) 0.6271(3) 1.2262(3)
H9A H 0.0585(4) 0.7994(3) 0.3342(3)
C10A C 0.1404(5) 0.9605(4) 0.3764(4)
H2A H 0.2853(4) 0.3100(3) 0.1651(3)
C4A C 0.5003(5) 0.2706(4) 0.1181(3)
H16A H -0.2299(5) 0.8277(4) 1.2136(4)
C16A C -0.2420(7) 0.9775(4) 1.1853(5)
H23A H 0.2988(4) 0.6265(3) 1.2752(3)
C22A C 0.5207(4) 0.6602(4) 1.2723(3)
H10A H 0.1832(5) 1.0117(4) 0.4310(4)
C11A C 0.1188(5) 0.9939(4) 0.2927(4)
H3A H 0.5924(5) 0.2916(4) 0.1389(3)
C5A C 0.4945(5) 0.1962(4) 0.0236(4)
H17A H -0.2029(7) 1.0199(4) 1.1357(5)
C17A C -0.3368(8) 1.0207(6) 1.2737(5)
H24A H 0.6109(4) 0.6548(4) 1.2238(3)
C23A C 0.5234(5) 0.6976(4) 1.3784(4)
H11A H 0.0761(5) 0.9417(4) 0.2386(4)
C12A C 0.1559(7) 1.1063(4) 0.2767(5)
H4A H 0.4027(5) 0.1768(4) 0.0022(4)
C6A C 0.6238(7) 0.1412(5) -0.0512(5)
H18A H -0.3758(8) 0.9780(6) 1.3230(5)
C18A C -0.3861(10) 1.1348(6) 1.3001(7)
H25A H 0.4328(5) 0.7025(4) 1.4265(4)
C24A C 0.6589(6) 0.7327(5) 1.4275(4)
H12A H 0.1288(7) 1.1086(4) 0.2092(5)
H13A H 0.1025(7) 1.1580(4) 0.3373(5)
H14A H 0.2603(7) 1.1252(4) 0.2731(5)
H5A H 0.5917(7) 0.0907(5) -0.1146(5)
H6A H 0.6963(7) 0.1957(5) -0.0743(5)
H7A H 0.6667(7) 0.1016(5) -0.0130(5)
H19A H -0.4559(10) 1.1484(6) 1.3682(7)
H20A H -0.3018(10) 1.1878(6) 1.3069(7)
H21A H -0.4320(10) 1.1413(6) 1.2419(7)
H26A H 0.6317(6) 0.7562(5) 1.5063(4)
H27A H 0.7196(6) 0.6719(5) 1.4078(4)
H28A H 0.7131(6) 0.7927(5) 1.4004(4)
loop_
_geom_bond_atom_site_label_1
_geom_bond_atom_site_label_2
_geom_bond_site_symmetry_1
_geom_bond_site_symmetry_2
Ru1 Cl1 1_555 1_555
Ru2 Cl1 1_555 1_555
O1 Ru1 1_555 1_555
O2 Ru1 1_555 1_555
O3 Ru1 1_555 1_555
O4 Ru1 1_555 1_555
O5 Ru2 1_555 1_555
O6 Ru2 1_555 1_555
O7 Ru2 1_555 1_555
O8 Ru2 1_555 1_555
C1 O1 1_555 1_555
C2 C1 1_555 1_555
H1 C2 1_555 1_555
C3 C2 1_555 1_555
H2 C3 1_555 1_555
C4 C3 1_555 1_555
H3 C4 1_555 1_555
C5 C4 1_555 1_555
H4 C5 1_555 1_555
C6 C5 1_555 1_555
H5 C6 1_555 1_555
H6 C6 1_555 1_555
H7 C6 1_555 1_555
C7 O2 1_555 1_555
C8 C7 1_555 1_555
H8 C8 1_555 1_555
C9 C8 1_555 1_555
H9 C9 1_555 1_555
C10 C9 1_555 1_555
H10 C10 1_555 1_555
C11 C10 1_555 1_555
H11 C11 1_555 1_555
C12 C11 1_555 1_555
H12 C12 1_555 1_555
H13 C12 1_555 1_555
H14 C12 1_555 1_555
C13 O5 1_555 1_555
C14 C13 1_555 1_555
H15 C14 1_555 1_555
C15 C14 1_555 1_555
H16 C15 1_555 1_555
C16 C15 1_555 1_555
H17 C16 1_555 1_555
C17 C16 1_555 1_555
H18 C17 1_555 1_555
C18 C17 1_555 1_555
H19 C18 1_555 1_555
H20 C18 1_555 1_555
H21 C18 1_555 1_555
C19 O7 1_555 1_555
C20 C19 1_555 1_555
H22 C20 1_555 1_555
C21 C20 1_555 1_555
H23 C21 1_555 1_555
C22 C21 1_555 1_555
H24 C22 1_555 1_555
C23 C22 1_555 1_555
H25 C23 1_555 1_555
C24 C23 1_555 1_555
H26 C24 1_555 1_555
H27 C24 1_555 1_555
H28 C24 1_555 1_555
Ru1A Ru1 1_555 1_555
Ru2A Ru2 1_555 1_555
C7A O3 1_555 1_555
C1A O4 1_555 1_555
C13A O6 1_555 1_555
C19A O8 1_555 1_555
O4A C1 1_555 1_555
O3A C7 1_555 1_555
O6A C13 1_555 1_555
O8A C19 1_555 1_555
Cl1A Ru1A 1_555 1_555
O1A Ru1A 1_555 1_555
O2A Ru1A 1_555 1_555
Cl1A_2 Ru2A 1_555 1_555
O5A Ru2A 1_555 1_555
O7A Ru2A 1_555 1_555
C8A C7A 1_555 1_555
C2A C1A 1_555 1_555
C14A C13A 1_555 1_555
C20A C19A 1_555 1_555
Ru1A_2 Cl1A_2 1_555 1_555
H8A C8A 1_555 1_555
C9A C8A 1_555 1_555
H1A C2A 1_555 1_555
C3A C2A 1_555 1_555
H15A C14A 1_555 1_555
C15A C14A 1_555 1_555
H22A C20A 1_555 1_555
C21A C20A 1_555 1_555
H9A C9A 1_555 1_555
C10A C9A 1_555 1_555
H2A C3A 1_555 1_555
C4A C3A 1_555 1_555
H16A C15A 1_555 1_555
C16A C15A 1_555 1_555
H23A C21A 1_555 1_555
C22A C21A 1_555 1_555
H10A C10A 1_555 1_555
C11A C10A 1_555 1_555
H3A C4A 1_555 1_555
C5A C4A 1_555 1_555
H17A C16A 1_555 1_555
C17A C16A 1_555 1_555
H24A C22A 1_555 1_555
C23A C22A 1_555 1_555
H11A C11A 1_555 1_555
C12A C11A 1_555 1_555
H4A C5A 1_555 1_555
C6A C5A 1_555 1_555
H18A C17A 1_555 1_555
C18A C17A 1_555 1_555
H25A C23A 1_555 1_555
C24A C23A 1_555 1_555
H12A C12A 1_555 1_555
H13A C12A 1_555 1_555
H14A C12A 1_555 1_555
H5A C6A 1_555 1_555
H6A C6A 1_555 1_555
H7A C6A 1_555 1_555
H19A C18A 1_555 1_555
H20A C18A 1_555 1_555
H21A C18A 1_555 1_555
H26A C24A 1_555 1_555
H27A C24A 1_555 1_555
H28A C24A 1_555 1_555
Ru1A O3A 1_555 1_555
Ru1A O4A 1_555 1_555
Ru2A O6A 1_555 1_555
Ru2A O8A 1_555 1_555
C7A O2A 1_555 1_555
C1A O1A 1_555 1_555
C13A O5A 1_555 1_555
C19A O7A 1_555 1_555

#END
