
#######################################################################
#
#                 Cambridge Crystallographic Data Centre
#                                CCDC 
#
#######################################################################
#
# If this CIF has been generated from an entry in the Cambridge 
# Structural Database, then it will include bibliographic, chemical, 
# crystal, experimental, refinement or atomic coordinate data resulting 
# from the CCDC's data processing and validation procedures.
#
#######################################################################

data_MECPAL
_symmetry_cell_setting           monoclinic
_symmetry_space_group_name_H-M   'P 21/c'
_symmetry_Int_Tables_number      14
_space_group_name_Hall           '-P 2ybc'
loop_
_symmetry_equiv_pos_site_id
_symmetry_equiv_pos_as_xyz
1 x,y,z
2 x,1/2-y,1/2+z
3 -x,-y,-z
4 -x,1/2+y,1/2-z
_cell_length_a                   12.132(4)
_cell_length_b                   11.570(2)
_cell_length_c                   13.674(2)
_cell_angle_alpha                90
_cell_angle_beta                 91.18(2)
_cell_angle_gamma                90
_cell_volume                     1918.97
loop_
_atom_site_label
_atom_site_type_symbol
_atom_site_fract_x
_atom_site_fract_y
_atom_site_fract_z
Ru1 Ru 0.42167(4) 0.00782(5) 0.45234(4)
Ru2 Ru 0.07478(4) 0.00266(5) 0.45052(4)
Cl1 Cl 0.24614(15) 0.0172(2) 0.34436(13)
O1 O 0.5064(4) -0.0392(5) 0.3333(4)
O2 O 0.3414(4) 0.0614(4) 0.5724(4)
C1 C 0.6088(6) -0.0650(6) 0.3454(5)
C2 C 0.6660(6) -0.1036(8) 0.2563(6)
H1 H 0.6487(6) -0.0510(8) 0.2029(6)
H2 H 0.6398(6) -0.1799(8) 0.2378(6)
O3 O 0.7815(4) -0.1072(5) 0.2721(4)
O4 O 0.4577(4) 0.1752(4) 0.4250(4)
O5 O 0.3923(4) -0.1619(4) 0.4786(4)
C3 C 0.5426(6) 0.2188(6) 0.4678(6)
C4 C 0.5614(7) 0.3449(7) 0.4489(6)
H3 H 0.5773(7) 0.3547(7) 0.3801(6)
H4 H 0.4935(7) 0.3861(7) 0.4614(6)
O6 O 0.6467(5) 0.3961(5) 0.5044(5)
O7 O 0.1618(4) -0.0802(4) 0.5573(4)
O8 O -0.0165(4) 0.0797(5) 0.3439(4)
C5 C 0.1180(6) -0.1015(6) 0.6375(5)
C6 C 0.1813(6) -0.1615(8) 0.7161(6)
H5 H 0.1689(6) -0.1233(8) 0.7781(6)
H6 H 0.1557(6) -0.2406(8) 0.7213(6)
O9 O 0.2952(4) -0.1610(5) 0.6966(4)
O10 O 0.1102(4) 0.1616(4) 0.5044(4)
O11 O 0.0331(4) -0.1540(4) 0.3949(4)
C7 C 0.0491(6) 0.2039(7) 0.5677(5)
C8 C 0.0719(8) 0.3248(7) 0.6051(7)
H7 H 0.0042(8) 0.3693(7) 0.6001(7)
H8 H 0.0930(8) 0.3203(7) 0.6738(7)
O12 O 0.1541(5) 0.3837(5) 0.5556(5)
C9 C 0.8370(9) -0.1403(9) 0.1865(7)
H9 H 0.9150(9) -0.1418(9) 0.1997(7)
H10 H 0.8126(9) -0.2157(9) 0.1664(7)
H11 H 0.8210(9) -0.0856(9) 0.1353(7)
C10 C 0.7524(8) 0.3650(9) 0.4718(8)
H12 H 0.8077(8) 0.4015(9) 0.5124(8)
H13 H 0.7605(8) 0.3897(9) 0.4053(8)
H14 H 0.7610(8) 0.2826(9) 0.4756(8)
C11 C 0.3589(8) -0.2130(9) 0.7729(7)
H15 H 0.4355(8) -0.2107(9) 0.7568(7)
H16 H 0.3362(8) -0.2919(9) 0.7809(7)
H17 H 0.3480(8) -0.1716(9) 0.8328(7)
C12 C 0.2625(9) 0.3493(9) 0.5855(8)
H18 H 0.3157(9) 0.3914(9) 0.5486(8)
H19 H 0.2714(9) 0.2680(9) 0.5741(8)
H20 H 0.2734(9) 0.3653(9) 0.6539(8)
Ru1B Ru 0.57833(4) -0.00782(5) 0.54766(4)
Ru2B Ru -0.07478(4) -0.00266(5) 0.54948(4)
C1B C 0.3912(6) 0.0650(6) 0.6546(5)
O2B O 0.6586(4) -0.0614(4) 0.4276(4)
C3B C 0.4574(6) -0.2188(6) 0.5322(6)
O5B O 0.6077(4) 0.1619(4) 0.5214(4)
C5B C -0.1180(6) 0.1015(6) 0.3625(5)
O8B O 0.0165(4) -0.0797(5) 0.6561(4)
C7B C -0.0491(6) -0.2039(7) 0.4323(5)
O11B O -0.0331(4) 0.1540(4) 0.6051(4)
Cl1B Cl 0.75386(15) -0.0172(2) 0.65564(13)
O1B O 0.4936(4) 0.0392(5) 0.6667(4)
O4B O 0.5423(4) -0.1752(4) 0.5750(4)
Cl1B_2 Cl -0.24614(15) -0.0172(2) 0.65564(13)
O7B O -0.1618(4) 0.0802(4) 0.4427(4)
O10B O -0.1102(4) -0.1616(4) 0.4956(4)
C2B C 0.3340(6) 0.1036(8) 0.7437(6)
C4B C 0.4386(7) -0.3449(7) 0.5511(6)
C6B C -0.1813(6) 0.1615(8) 0.2839(6)
C8B C -0.0719(8) -0.3248(7) 0.3949(7)
Ru1B_2 Ru -0.42167(4) -0.00782(5) 0.54766(4)
H1B H 0.3513(6) 0.0510(8) 0.7971(6)
H2B H 0.3602(6) 0.1799(8) 0.7622(6)
O3B O 0.2185(4) 0.1072(5) 0.7279(4)
H3B H 0.4227(7) -0.3547(7) 0.6199(6)
H4B H 0.5065(7) -0.3861(7) 0.5386(6)
O6B O 0.3533(5) -0.3961(5) 0.4956(5)
H5B H -0.1689(6) 0.1233(8) 0.2219(6)
H6B H -0.1557(6) 0.2406(8) 0.2787(6)
O9B O -0.2952(4) 0.1610(5) 0.3034(4)
H7B H -0.0042(8) -0.3693(7) 0.3999(7)
H8B H -0.0930(8) -0.3203(7) 0.3262(7)
O12B O -0.1541(5) -0.3837(5) 0.4444(5)
C9B C 0.1630(9) 0.1403(9) 0.8135(7)
C10B C 0.2476(8) -0.3650(9) 0.5282(8)
C11B C -0.3589(8) 0.2130(9) 0.2271(7)
C12B C -0.2625(9) -0.3493(9) 0.4145(8)
H9B H 0.0850(9) 0.1418(9) 0.8003(7)
H10B H 0.1874(9) 0.2157(9) 0.8336(7)
H11B H 0.1790(9) 0.0856(9) 0.8647(7)
H12B H 0.1923(8) -0.4015(9) 0.4876(8)
H13B H 0.2395(8) -0.3897(9) 0.5947(8)
H14B H 0.2390(8) -0.2826(9) 0.5244(8)
H15B H -0.4355(8) 0.2107(9) 0.2432(7)
H16B H -0.3362(8) 0.2919(9) 0.2191(7)
H17B H -0.3480(8) 0.1716(9) 0.1672(7)
H18B H -0.3157(9) -0.3914(9) 0.4514(8)
H19B H -0.2714(9) -0.2680(9) 0.4259(8)
H20B H -0.2734(9) -0.3653(9) 0.3461(8)
loop_
_geom_bond_atom_site_label_1
_geom_bond_atom_site_label_2
_geom_bond_site_symmetry_1
_geom_bond_site_symmetry_2
Ru1 Cl1 1_555 1_555
Ru2 Cl1 1_555 1_555
O1 Ru1 1_555 1_555
O2 Ru1 1_555 1_555
C1 O1 1_555 1_555
C2 C1 1_555 1_555
H1 C2 1_555 1_555
H2 C2 1_555 1_555
O3 C2 1_555 1_555
O4 Ru1 1_555 1_555
O5 Ru1 1_555 1_555
C3 O4 1_555 1_555
C4 C3 1_555 1_555
H3 C4 1_555 1_555
H4 C4 1_555 1_555
O6 C4 1_555 1_555
O7 Ru2 1_555 1_555
O8 Ru2 1_555 1_555
C5 O7 1_555 1_555
C6 C5 1_555 1_555
H5 C6 1_555 1_555
H6 C6 1_555 1_555
O9 C6 1_555 1_555
O10 Ru2 1_555 1_555
O11 Ru2 1_555 1_555
C7 O10 1_555 1_555
C8 C7 1_555 1_555
H7 C8 1_555 1_555
H8 C8 1_555 1_555
O12 C8 1_555 1_555
C9 O3 1_555 1_555
H9 C9 1_555 1_555
H10 C9 1_555 1_555
H11 C9 1_555 1_555
C10 O6 1_555 1_555
H12 C10 1_555 1_555
H13 C10 1_555 1_555
H14 C10 1_555 1_555
C11 O9 1_555 1_555
H15 C11 1_555 1_555
H16 C11 1_555 1_555
H17 C11 1_555 1_555
C12 O12 1_555 1_555
H18 C12 1_555 1_555
H19 C12 1_555 1_555
H20 C12 1_555 1_555
Ru1B Ru1 1_555 1_555
Ru2B Ru2 1_555 1_555
C1B O2 1_555 1_555
O2B C1 1_555 1_555
C3B O5 1_555 1_555
O5B C3 1_555 1_555
C5B O8 1_555 1_555
O8B C5 1_555 1_555
C7B O11 1_555 1_555
O11B C7 1_555 1_555
Cl1B Ru1B 1_555 1_555
O1B Ru1B 1_555 1_555
O4B Ru1B 1_555 1_555
Cl1B_2 Ru2B 1_555 1_555
O7B Ru2B 1_555 1_555
O10B Ru2B 1_555 1_555
C2B C1B 1_555 1_555
C4B C3B 1_555 1_555
C6B C5B 1_555 1_555
C8B C7B 1_555 1_555
Ru1B_2 Cl1B_2 1_555 1_555
H1B C2B 1_555 1_555
H2B C2B 1_555 1_555
O3B C2B 1_555 1_555
H3B C4B 1_555 1_555
H4B C4B 1_555 1_555
O6B C4B 1_555 1_555
H5B C6B 1_555 1_555
H6B C6B 1_555 1_555
O9B C6B 1_555 1_555
H7B C8B 1_555 1_555
H8B C8B 1_555 1_555
O12B C8B 1_555 1_555
C9B O3B 1_555 1_555
C10B O6B 1_555 1_555
C11B O9B 1_555 1_555
C12B O12B 1_555 1_555
H9B C9B 1_555 1_555
H10B C9B 1_555 1_555
H11B C9B 1_555 1_555
H12B C10B 1_555 1_555
H13B C10B 1_555 1_555
H14B C10B 1_555 1_555
H15B C11B 1_555 1_555
H16B C11B 1_555 1_555
H17B C11B 1_555 1_555
H18B C12B 1_555 1_555
H19B C12B 1_555 1_555
H20B C12B 1_555 1_555
Ru1B O2B 1_555 1_555
Ru1B O5B 1_555 1_555
Ru2B O8B 1_555 1_555
Ru2B O11B 1_555 1_555
C1B O1B 1_555 1_555
C3B O4B 1_555 1_555
C5B O7B 1_555 1_555
C7B O10B 1_555 1_555

#END
