
#######################################################################
#
#                 Cambridge Crystallographic Data Centre
#                                CCDC 
#
#######################################################################
#
# If this CIF has been generated from an entry in the Cambridge 
# Structural Database, then it will include bibliographic, chemical, 
# crystal, experimental, refinement or atomic coordinate data resulting 
# from the CCDC's data processing and validation procedures.
#
#######################################################################

data_MECWIB
_symmetry_cell_setting           cubic
_symmetry_space_group_name_H-M   'I a -3 d'
_symmetry_Int_Tables_number      230
_space_group_name_Hall           '-I 4bd 2c 3'
loop_
_symmetry_equiv_pos_site_id
_symmetry_equiv_pos_as_xyz
1 x,y,z
2 z,x,y
3 y,z,x
4 3/4+y,1/4+x,1/4-z
5 1/4+y,1/4-x,3/4+z
6 1/4-y,3/4+x,1/4+z
7 3/4+x,1/4+z,1/4-y
8 1/4-x,3/4+z,1/4+y
9 1/4+x,1/4-z,3/4+y
10 3/4+z,1/4+y,1/4-x
11 1/4+z,1/4-y,3/4+x
12 1/4-z,3/4+y,1/4+x
13 1/2+x,1/2+y,1/2+z
14 1/2+z,1/2+x,1/2+y
15 1/2+y,1/2+z,1/2+x
16 1/4+y,3/4+x,3/4-z
17 1/4-y,1/4-x,1/4-z
18 3/4+y,3/4-x,1/4+z
19 3/4-y,1/4+x,3/4+z
20 1/4+x,3/4+z,3/4-y
21 3/4-x,1/4+z,3/4+y
22 1/4-x,1/4-z,1/4-y
23 3/4+x,3/4-z,1/4+y
24 1/4+z,3/4+y,3/4-x
25 3/4+z,3/4-y,1/4+x
26 3/4-z,1/4+y,3/4+x
27 1/4-z,1/4-y,1/4-x
28 1/2-x,-y,1/2+z
29 -x,1/2+y,1/2-z
30 1/2+x,1/2-y,-z
31 1/2+z,1/2-x,-y
32 1/2-z,-x,1/2+y
33 -z,1/2+x,1/2-y
34 -y,1/2+z,1/2-x
35 1/2+y,1/2-z,-x
36 1/2-y,-z,1/2+x
37 3/4-y,3/4-x,3/4-z
38 3/4-x,3/4-z,3/4-y
39 3/4-z,3/4-y,3/4-x
40 -x,1/2-y,z
41 1/2-x,y,-z
42 x,-y,1/2-z
43 z,-x,1/2-y
44 -z,1/2-x,y
45 1/2-z,x,-y
46 1/2-y,z,-x
47 y,-z,1/2-x
48 -y,1/2-z,x
49 -x,-y,-z
50 -z,-x,-y
51 -y,-z,-x
52 1/4-y,3/4-x,3/4+z
53 3/4-y,3/4+x,1/4-z
54 3/4+y,1/4-x,3/4-z
55 1/4-x,3/4-z,3/4+y
56 3/4+x,1/4-z,3/4-y
57 3/4-x,3/4+z,1/4-y
58 1/4-z,3/4-y,3/4+x
59 3/4-z,3/4+y,1/4-x
60 3/4+z,1/4-y,3/4-x
61 1/2-x,1/2-y,1/2-z
62 1/2-z,1/2-x,1/2-y
63 1/2-y,1/2-z,1/2-x
64 3/4-y,1/4-x,1/4+z
65 3/4+y,3/4+x,3/4+z
66 1/4-y,1/4+x,3/4-z
67 1/4+y,3/4-x,1/4-z
68 3/4-x,1/4-z,1/4+y
69 1/4+x,3/4-z,1/4-y
70 3/4+x,3/4+z,3/4+y
71 1/4-x,1/4+z,3/4-y
72 3/4-z,1/4-y,1/4+x
73 1/4-z,1/4+y,3/4-x
74 1/4+z,3/4-y,1/4-x
75 3/4+z,3/4+y,3/4+x
76 1/2+x,y,1/2-z
77 x,1/2-y,1/2+z
78 1/2-x,1/2+y,z
79 1/2-z,1/2+x,y
80 1/2+z,x,1/2-y
81 z,1/2-x,1/2+y
82 y,1/2-z,1/2+x
83 1/2-y,1/2+z,x
84 1/2+y,z,1/2-x
85 1/4+y,1/4+x,1/4+z
86 1/4+x,1/4+z,1/4+y
87 1/4+z,1/4+y,1/4+x
88 x,1/2+y,-z
89 1/2+x,-y,z
90 -x,y,1/2+z
91 -z,x,1/2+y
92 z,1/2+x,-y
93 1/2+z,-x,y
94 1/2+y,-z,x
95 -y,z,1/2+x
96 y,1/2+z,-x
_cell_length_a                   26.531(1)
_cell_length_b                   26.531(1)
_cell_length_c                   26.531(1)
_cell_angle_alpha                90
_cell_angle_beta                 90
_cell_angle_gamma                90
_cell_volume                     18675
loop_
_atom_site_label
_atom_site_type_symbol
_atom_site_fract_x
_atom_site_fract_y
_atom_site_fract_z
Zn1 Zn 0.1250 0.838680(9) 0.088680(9)
N1 N 0.11956(7) 0.84801(7) 0.01344(7)
N2 N 0.13377(7) 0.87434(7) -0.06531(7)
C1 C 0.10406(9) 0.81082(8) -0.01949(8)
H1 H 0.0895 0.7794 -0.0102
C2 C 0.11308(9) 0.82659(8) -0.06732(9)
H2 H 0.1063 0.8079 -0.0971
C3 C 0.13673(8) 0.88554(8) -0.01610(8)
C4 C 0.15514(11) 0.93506(9) 0.00345(9)
H3 H 0.1404 0.9617 -0.0168
H4 H 0.1428 0.9393 0.0376
C5 C 0.2107(2) 0.9416(3) 0.0037(2)
H5 H 0.2191 0.9749 0.0171
H6 H 0.2236 0.9385 -0.0307
H7 H 0.2260 0.9155 0.0250
Zn1XA Zn 0.161320(9) 0.911320(9) -0.1250
Zn1MC Zn 0.088680(9) 0.6250 0.161320(9)
N1G N 0.13044(7) 0.76344(7) 0.09801(7)
N2G N 0.11623(7) 0.68469(7) 0.12434(7)
N2WA N 0.06531(7) 0.86623(7) 0.12566(7)
N2UB N 0.18469(7) 0.87566(7) 0.11623(7)
C1G C 0.14594(9) 0.73051(8) 0.06082(8)
H1G H 0.1605 0.7398 0.0294
C2G C 0.13692(9) 0.68268(9) 0.07659(8)
H2G H 0.1437 0.6529 0.0579
C3G C 0.11327(8) 0.73390(8) 0.13554(8)
C4G C 0.09486(11) 0.75345(9) 0.18506(9)
H3G H 0.1096 0.7332 0.2117
H4G H 0.1072 0.7876 0.1893
C5G C 0.0393(2) 0.7537(2) 0.1916(3)
H5G H 0.0309 0.7671 0.2249
H6G H 0.0264 0.7193 0.1885
H7G H 0.0240 0.7750 0.1655
O1 O 0.1981(15) 1.1250 0.0519(15)
H8? H 0.1751 0.9508 -0.0222
H9? H 0.1767 0.9288 0.0318
C6? C 0.1151(3) 0.9698(2) 0.0184(3)
H10? H 0.0942 0.9778 -0.0110
H11? H 0.1301 1.0009 0.0317
H12? H 0.0942 0.9541 0.0445
O2? O 0.2500 1.1031(10) 0.0000
H13? H 0.2298 1.1175 0.0203
H14? H 0.2423 1.0720 0.0007
O3? O 0.2099(17) 1.0949(17) 0.0314(17)
H15? H 0.1983 1.0651 0.0294
H16? H 0.2328 1.1134 0.0188
H17? H 0.1755 1.1250 0.0745
H18? H 0.2219 1.1309 0.0736
O4? O 0.1716(15) 1.1964 0.1156(15)
H19? H 0.2023 1.1905 0.1230
H20? H 0.1536 1.1825 0.0930
O5? O 0.199(3) 1.166(3) 0.069(4)
H21? H 0.1967 1.1644 0.1011
H22? H 0.1684 1.1719 0.0611
O6? O 0.281(3) 1.240(4) 0.209(3)
H23? H 0.2813 1.2642 0.2302
H24? H 0.2744 1.2249 0.1815
loop_
_geom_bond_atom_site_label_1
_geom_bond_atom_site_label_2
_geom_bond_site_symmetry_1
_geom_bond_site_symmetry_2
Zn1 N1 1_555 1_555
N1 C1 1_555 1_555
N2 C2 1_555 1_555
C1 H1 1_555 1_555
C2 C1 1_555 1_555
H2 C2 1_555 1_555
C3 N1 1_555 1_555
C4 C3 1_555 1_555
H3 C4 1_555 1_555
H4 C4 1_555 1_555
C5 C4 1_555 1_555
H5 C5 1_555 1_555
H6 C5 1_555 1_555
H7 C5 1_555 1_555
Zn1XA N2 1_555 1_555
Zn1MC N2G 1_555 1_555
N1G Zn1 1_555 1_555
N2G C2G 1_555 1_555
N2WA Zn1 1_555 1_555
N2UB Zn1 1_555 1_555
C1G N1G 1_555 1_555
H1G C1G 1_555 1_555
C2G C1G 1_555 1_555
H2G C2G 1_555 1_555
C3G N1G 1_555 1_555
C4G C3G 1_555 1_555
H3G C4G 1_555 1_555
H4G C4G 1_555 1_555
C5G C4G 1_555 1_555
H5G C5G 1_555 1_555
H6G C5G 1_555 1_555
H7G C5G 1_555 1_555
N2 C3 1_555 1_555
N2G C3G 1_555 1_555

#END
