
#######################################################################
#
#                 Cambridge Crystallographic Data Centre
#                                CCDC 
#
#######################################################################
#
# If this CIF has been generated from an entry in the Cambridge 
# Structural Database, then it will include bibliographic, chemical, 
# crystal, experimental, refinement or atomic coordinate data resulting 
# from the CCDC's data processing and validation procedures.
#
#######################################################################

data_MEDJUC
_symmetry_cell_setting           monoclinic
_symmetry_space_group_name_H-M   'C 2/c'
_symmetry_Int_Tables_number      15
_space_group_name_Hall           '-C 2yn'
loop_
_symmetry_equiv_pos_site_id
_symmetry_equiv_pos_as_xyz
1 x,y,z
2 -x,y,1/2-z
3 1/2+x,1/2+y,z
4 1/2-x,1/2+y,1/2-z
5 -x,-y,-z
6 x,-y,1/2+z
7 1/2-x,1/2-y,-z
8 1/2+x,1/2-y,1/2+z
_cell_length_a                   21.0790(10)
_cell_length_b                   11.4410(6)
_cell_length_c                   7.7200(3)
_cell_angle_alpha                90
_cell_angle_beta                 93.994(3)
_cell_angle_gamma                90
_cell_volume                     1857.27
loop_
_atom_site_label
_atom_site_type_symbol
_atom_site_fract_x
_atom_site_fract_y
_atom_site_fract_z
Ca1 Ca 0.0000 0.03980(4) 1.2500
O1 O 0.04711(5) 0.09489(10) 0.99365(14)
O2 O 0.07864(5) 0.11825(10) 0.72994(14)
O3 O -0.07630(6) 0.17367(12) 1.11200(15)
H1 H -0.0827(9) 0.1706(18) 1.0004(12)
H2 H -0.0996(9) 0.2304(14) 1.143(2)
C1 C 0.07467(7) 0.15460(15) 0.8834(2)
C2 C 0.10026(8) 0.27320(15) 0.9348(2)
C3 C 0.06320(8) 0.34445(15) 1.0302(2)
H3 H 0.0238 0.3161 1.0656
C4 C 0.08283(8) 0.45869(16) 1.0764(2)
H4 H 0.0560 0.5075 1.1391
C5 C 0.14031(8) 0.49945(16) 1.0311(2)
H5 H 0.1532 0.5765 1.0628
C6 C 0.18086(8) 0.42798(15) 0.9373(2)
C7 C 0.24163(8) 0.46787(16) 0.8961(2)
H6 H 0.2553 0.5438 0.9316
C8 C 0.28081(8) 0.39944(16) 0.8064(2)
H7 H 0.3213 0.4277 0.7794
C9 C 0.26091(8) 0.28643(16) 0.7541(2)
H8 H 0.2883 0.2389 0.6915
C10 C 0.20274(8) 0.24413(15) 0.7919(2)
H9 H 0.1903 0.1677 0.7555
C11 C 0.16068(7) 0.31362(15) 0.8851(2)
Ca1D Ca 0.0000 -0.03980(4) 0.7500
O1D O -0.04711(5) -0.09489(10) 1.00635(14)
O1A O -0.04711(5) 0.09489(10) 1.50635(14)
O1E O 0.04711(5) -0.09489(10) 1.49365(14)
O2D O -0.07864(5) -0.11825(10) 1.27006(14)
O2E O 0.07864(5) -0.11825(10) 1.22994(14)
O3A O 0.07630(6) 0.17367(12) 1.38800(15)
H1A H 0.0827(9) 0.1706(18) 1.4996(12)
H2A H 0.0996(9) 0.2304(14) 1.357(2)
C1D C -0.07467(7) -0.15460(15) 1.1166(2)
C2D C -0.10026(8) -0.27320(15) 1.0652(2)
C3D C -0.06320(8) -0.34445(15) 0.9698(2)
H3D H -0.0238 -0.3161 0.9344
C4D C -0.08283(8) -0.45869(16) 0.9236(2)
H4D H -0.0560 -0.5075 0.8609
C5D C -0.14031(8) -0.49945(16) 0.9689(2)
H5D H -0.1532 -0.5765 0.9372
C6D C -0.18086(8) -0.42798(15) 1.0627(2)
C7D C -0.24163(8) -0.46787(16) 1.1039(2)
H6D H -0.2553 -0.5438 1.0684
C8D C -0.28081(8) -0.39944(16) 1.1936(2)
H7D H -0.3213 -0.4277 1.2206
C9D C -0.26091(8) -0.28643(16) 1.2459(2)
H8D H -0.2883 -0.2389 1.3085
C10D C -0.20274(8) -0.24413(15) 1.2081(2)
H9D H -0.1903 -0.1677 1.2445
C11D C -0.16068(7) -0.31362(15) 1.1149(2)
loop_
_geom_bond_atom_site_label_1
_geom_bond_atom_site_label_2
_geom_bond_site_symmetry_1
_geom_bond_site_symmetry_2
Ca1 O1 1_555 1_555
O1 C1 1_555 1_555
O2 C1 1_555 1_555
O3 Ca1 1_555 1_555
H1 O3 1_555 1_555
H2 O3 1_555 1_555
C1 C2 1_555 1_555
C2 C3 1_555 1_555
C3 H3 1_555 1_555
C4 C3 1_555 1_555
H4 C4 1_555 1_555
C5 C4 1_555 1_555
H5 C5 1_555 1_555
C6 C5 1_555 1_555
C7 C6 1_555 1_555
H6 C7 1_555 1_555
C8 C7 1_555 1_555
H7 C8 1_555 1_555
C9 C8 1_555 1_555
H8 C9 1_555 1_555
C10 C9 1_555 1_555
H9 C10 1_555 1_555
C11 C2 1_555 1_555
Ca1D O1 1_555 1_555
O1D Ca1 1_555 1_555
O1A Ca1 1_555 1_555
O1E Ca1 1_555 1_555
O2D Ca1 1_555 1_555
O2E Ca1 1_555 1_555
O3A Ca1 1_555 1_555
H1A O3A 1_555 1_555
H2A O3A 1_555 1_555
C1D O1D 1_555 1_555
C2D C1D 1_555 1_555
C3D C2D 1_555 1_555
H3D C3D 1_555 1_555
C4D C3D 1_555 1_555
H4D C4D 1_555 1_555
C5D C4D 1_555 1_555
H5D C5D 1_555 1_555
C6D C5D 1_555 1_555
C7D C6D 1_555 1_555
H6D C7D 1_555 1_555
C8D C7D 1_555 1_555
H7D C8D 1_555 1_555
C9D C8D 1_555 1_555
H8D C9D 1_555 1_555
C10D C9D 1_555 1_555
H9D C10D 1_555 1_555
C11D C2D 1_555 1_555
O2 Ca1D 1_555 1_555
C6 C11 1_555 1_555
C10 C11 1_555 1_555
Ca1D O1D 1_555 1_555
O2D C1D 1_555 1_555
C6D C11D 1_555 1_555
C10D C11D 1_555 1_555

#END
