
#######################################################################
#
#                 Cambridge Crystallographic Data Centre
#                                CCDC 
#
#######################################################################
#
# If this CIF has been generated from an entry in the Cambridge 
# Structural Database, then it will include bibliographic, chemical, 
# crystal, experimental, refinement or atomic coordinate data resulting 
# from the CCDC's data processing and validation procedures.
#
#######################################################################

data_MEDJOW
_symmetry_cell_setting           monoclinic
_symmetry_space_group_name_H-M   'P 21/c'
_symmetry_Int_Tables_number      14
_space_group_name_Hall           '-P 2ybc'
loop_
_symmetry_equiv_pos_site_id
_symmetry_equiv_pos_as_xyz
1 x,y,z
2 -x,1/2+y,1/2-z
3 -x,-y,-z
4 x,1/2-y,1/2+z
_cell_length_a                   12.8896(4)
_cell_length_b                   8.0048(2)
_cell_length_c                   24.5300(5)
_cell_angle_alpha                90
_cell_angle_beta                 121.1900(10)
_cell_angle_gamma                90
_cell_volume                     2165.13
loop_
_atom_site_label
_atom_site_type_symbol
_atom_site_fract_x
_atom_site_fract_y
_atom_site_fract_z
Mg1 Mg 0.00172(8) 0.76819(11) 0.24870(4)
O1 O 0.10496(17) 0.6870(2) 0.34203(8)
O2 O 0.20189(19) 0.9184(2) 0.39368(9)
O3 O 0.08195(16) 1.0194(2) 0.27487(8)
H1 H 0.1309(19) 1.001(4) 0.3160(5)
H2 H 0.1338(18) 1.036(4) 0.2627(11)
O4 O -0.12473(17) 0.8492(2) 0.27004(9)
O5 O 0.13182(19) 0.6868(2) 0.23202(9)
H3 H 0.134(3) 0.718(3) 0.1986(10)
H4 H 0.136(3) 0.5784(12) 0.2308(13)
O6 O -0.21291(17) 0.6144(2) 0.27392(9)
O7 O -0.09957(19) 0.8507(2) 0.15824(9)
H5 H -0.105(3) 0.9587(13) 0.1520(13)
H6 H -0.116(3) 0.813(3) 0.1212(8)
C1 C 0.1754(3) 0.7674(4) 0.39284(13)
C2 C 0.2250(3) 0.6739(3) 0.45441(12)
C3 C 0.3512(3) 0.6791(3) 0.50196(13)
C4 C 0.4398(3) 0.7619(4) 0.49337(15)
H11 H 0.4158 0.8176 0.4544
C5 C 0.5587(3) 0.7612(5) 0.54091(17)
H12 H 0.6166 0.8177 0.5347
C6 C 0.5974(3) 0.6789(5) 0.59874(17)
H13 H 0.6808 0.6800 0.6312
C7 C 0.5165(3) 0.5982(4) 0.60841(15)
H14 H 0.5435 0.5432 0.6479
C8 C 0.3909(3) 0.5941(4) 0.56028(14)
C9 C 0.3053(3) 0.5072(4) 0.56976(14)
H15 H 0.3320 0.4502 0.6088
C10 C 0.1856(3) 0.5048(4) 0.52358(14)
H16 H 0.1291 0.4477 0.5307
C11 C 0.1456(3) 0.5872(4) 0.46524(14)
H17 H 0.0622 0.5827 0.4329
C12 C -0.1851(2) 0.7647(4) 0.28802(13)
C13 C -0.2203(3) 0.8519(3) 0.33046(13)
C14 C -0.3384(3) 0.8366(3) 0.32240(13)
C15 C -0.4348(3) 0.7466(4) 0.27194(14)
H18 H -0.4221 0.6897 0.2419
C16 C -0.5468(3) 0.7411(4) 0.26617(15)
H19 H -0.6107 0.6801 0.2321
C17 C -0.5680(3) 0.8241(4) 0.30977(16)
H20 H -0.6457 0.8188 0.3052
C18 C -0.4776(3) 0.9120(4) 0.35840(15)
H21 H -0.4929 0.9679 0.3877
C19 C -0.3605(3) 0.9224(4) 0.36655(14)
C20 C -0.2664(3) 1.0156(4) 0.41677(14)
H22 H -0.2814 1.0719 0.4461
C21 C -0.1550(3) 1.0261(4) 0.42391(13)
H23 H -0.0924 1.0880 0.4583
C22 C -0.1322(3) 0.9453(4) 0.38020(13)
H24 H -0.0544 0.9553 0.3851
Mg1A Mg -0.00172(8) 1.26819(11) 0.25130(4)
O3A O -0.08195(16) 0.5194(2) 0.22513(8)
H1A H -0.1309(19) 0.501(4) 0.1840(5)
H2A H -0.1338(18) 0.536(4) 0.2373(11)
O8 O -0.1462(2) 0.3629(3) 0.35837(11)
H7 H -0.191(3) 0.443(3) 0.3324(14)
H8 H -0.192(3) 0.332(4) 0.3731(15)
O9 O 0.1341(2) 1.1675(3) 0.44229(11)
H9 H 0.177(3) 1.088(4) 0.4373(16)
H10 H 0.187(3) 1.190(5) 0.4833(7)
loop_
_geom_bond_atom_site_label_1
_geom_bond_atom_site_label_2
_geom_bond_site_symmetry_1
_geom_bond_site_symmetry_2
Mg1 O1 1_555 1_555
O1 C1 1_555 1_555
O2 C1 1_555 1_555
O3 Mg1 1_555 1_555
H1 O3 1_555 1_555
H2 O3 1_555 1_555
O4 Mg1 1_555 1_555
O5 Mg1 1_555 1_555
H3 O5 1_555 1_555
H4 O5 1_555 1_555
O6 C12 1_555 1_555
O7 Mg1 1_555 1_555
H5 O7 1_555 1_555
H6 O7 1_555 1_555
O8 H7 1_555 1_555
H8 O8 1_555 1_555
O9 H9 1_555 1_555
H10 O9 1_555 1_555
C1 C2 1_555 1_555
C2 C3 1_555 1_555
C3 C4 1_555 1_555
C4 H11 1_555 1_555
C5 C4 1_555 1_555
H12 C5 1_555 1_555
C6 C5 1_555 1_555
H13 C6 1_555 1_555
C7 C6 1_555 1_555
H14 C7 1_555 1_555
C8 C3 1_555 1_555
C9 C8 1_555 1_555
H15 C9 1_555 1_555
C10 C9 1_555 1_555
H16 C10 1_555 1_555
C11 C2 1_555 1_555
H17 C11 1_555 1_555
C12 O4 1_555 1_555
C13 C12 1_555 1_555
C14 C13 1_555 1_555
C15 C14 1_555 1_555
H18 C15 1_555 1_555
C16 C15 1_555 1_555
H19 C16 1_555 1_555
C17 C16 1_555 1_555
H20 C17 1_555 1_555
C18 C17 1_555 1_555
H21 C18 1_555 1_555
C19 C14 1_555 1_555
C20 C19 1_555 1_555
H22 C20 1_555 1_555
C21 C20 1_555 1_555
H23 C21 1_555 1_555
C22 C13 1_555 1_555
H24 C22 1_555 1_555
Mg1A O3 1_555 1_555
O3A Mg1 1_555 1_555
H1A O3A 1_555 1_555
H2A O3A 1_555 1_555
C7 C8 1_555 1_555
C10 C11 1_555 1_555
C18 C19 1_555 1_555
C21 C22 1_555 1_555

#END
