
#######################################################################
#
#                 Cambridge Crystallographic Data Centre
#                                CCDC 
#
#######################################################################
#
# If this CIF has been generated from an entry in the Cambridge 
# Structural Database, then it will include bibliographic, chemical, 
# crystal, experimental, refinement or atomic coordinate data resulting 
# from the CCDC's data processing and validation procedures.
#
#######################################################################

data_MEDKAJ
_symmetry_cell_setting           monoclinic
_symmetry_space_group_name_H-M   'C 2/c'
_symmetry_Int_Tables_number      15
_space_group_name_Hall           '-C 2yn'
loop_
_symmetry_equiv_pos_site_id
_symmetry_equiv_pos_as_xyz
1 x,y,z
2 -x,y,1/2-z
3 1/2+x,1/2+y,z
4 1/2-x,1/2+y,1/2-z
5 -x,-y,-z
6 x,-y,1/2+z
7 1/2-x,1/2-y,-z
8 1/2+x,1/2-y,1/2+z
_cell_length_a                   21.2740(19)
_cell_length_b                   11.3397(10)
_cell_length_c                   7.9619(5)
_cell_angle_alpha                90
_cell_angle_beta                 94.520(4)
_cell_angle_gamma                90
_cell_volume                     1914.76
loop_
_atom_site_label
_atom_site_type_symbol
_atom_site_fract_x
_atom_site_fract_y
_atom_site_fract_z
Sr1 Sr 0.0000 0.54911(4) 0.7500
O1 O 0.08138(10) 0.3771(2) 0.7297(3)
O2 O 0.04972(10) 0.4005(2) 0.9857(2)
O3 O -0.07903(12) 0.6931(2) 0.5967(3)
H1 H -0.0826(18) 0.688(3) 0.4875(13)
H2 H -0.0992(17) 0.757(2) 0.616(4)
C1 C 0.07734(14) 0.3404(3) 0.8781(4)
C2 C 0.10307(14) 0.2211(3) 0.9292(4)
C3 C 0.06709(15) 0.1487(3) 1.0219(4)
H3 H 0.0275 0.1759 1.0538
C4 C 0.08798(16) 0.0349(3) 1.0702(4)
H4 H 0.0620 -0.0146 1.1317
C5 C 0.14525(16) -0.0041(3) 1.0292(4)
H5 H 0.1588 -0.0809 1.0629
C6 C 0.18528(15) 0.0676(3) 0.9368(4)
C7 C 0.24615(15) 0.0299(3) 0.8987(4)
H6 H 0.2607 -0.0459 0.9343
C8 C 0.28399(15) 0.1004(3) 0.8122(4)
H7 H 0.3244 0.0733 0.7870
C9 C 0.26332(15) 0.2138(3) 0.7598(4)
H8 H 0.2902 0.2626 0.6999
C10 C 0.20490(14) 0.2543(3) 0.7942(4)
H9 H 0.1918 0.3309 0.7579
C11 C 0.16387(15) 0.1830(3) 0.8835(4)
Sr1D Sr 0.0000 0.45089(4) 1.2500
Sr1D_2 Sr 0.0000 0.45089(4) 0.2500
O1A O -0.08138(10) 0.3771(2) 0.7703(3)
O2A O -0.04972(10) 0.4005(2) 0.5143(2)
O2D O -0.04972(10) 0.5995(2) 1.0143(2)
O2E O 0.04972(10) 0.5995(2) 0.4857(2)
O3A O 0.07903(12) 0.6931(2) 0.9033(3)
H1A H 0.0826(18) 0.688(3) 1.0125(13)
H2A H 0.0992(17) 0.757(2) 0.884(4)
C1A C -0.07734(14) 0.3404(3) 0.6219(4)
C2A C -0.10307(14) 0.2211(3) 0.5708(4)
C3A C -0.06709(15) 0.1487(3) 0.4781(4)
H3A H -0.0275 0.1759 0.4462
C4A C -0.08798(16) 0.0349(3) 0.4298(4)
H4A H -0.0620 -0.0146 0.3683
C5A C -0.14525(16) -0.0041(3) 0.4708(4)
H5A H -0.1588 -0.0809 0.4371
C6A C -0.18528(15) 0.0676(3) 0.5632(4)
C7A C -0.24615(15) 0.0299(3) 0.6013(4)
H6A H -0.2607 -0.0459 0.5657
C8A C -0.28399(15) 0.1004(3) 0.6878(4)
H7A H -0.3244 0.0733 0.7130
C9A C -0.26332(15) 0.2138(3) 0.7402(4)
H8A H -0.2902 0.2626 0.8001
C10A C -0.20490(14) 0.2543(3) 0.7058(4)
H9A H -0.1918 0.3309 0.7421
C11A C -0.16387(15) 0.1830(3) 0.6165(4)
loop_
_geom_bond_atom_site_label_1
_geom_bond_atom_site_label_2
_geom_bond_site_symmetry_1
_geom_bond_site_symmetry_2
Sr1 O1 1_555 1_555
O1 C1 1_555 1_555
O2 Sr1 1_555 1_555
O3 Sr1 1_555 1_555
H1 O3 1_555 1_555
H2 O3 1_555 1_555
C1 O2 1_555 1_555
C2 C1 1_555 1_555
C3 C2 1_555 1_555
H3 C3 1_555 1_555
C4 C3 1_555 1_555
H4 C4 1_555 1_555
C5 C4 1_555 1_555
H5 C5 1_555 1_555
C6 C5 1_555 1_555
C7 C6 1_555 1_555
H6 C7 1_555 1_555
C8 C7 1_555 1_555
H7 C8 1_555 1_555
C9 C8 1_555 1_555
H8 C9 1_555 1_555
C10 C9 1_555 1_555
H9 C10 1_555 1_555
C11 C2 1_555 1_555
Sr1D O2 1_555 1_555
Sr1D_2 O2A 1_555 1_555
O1A Sr1 1_555 1_555
O2A Sr1 1_555 1_555
O2D Sr1 1_555 1_555
O2E Sr1 1_555 1_555
O3A Sr1 1_555 1_555
H1A O3A 1_555 1_555
H2A O3A 1_555 1_555
C1A O1A 1_555 1_555
C2A C1A 1_555 1_555
C3A C2A 1_555 1_555
H3A C3A 1_555 1_555
C4A C3A 1_555 1_555
H4A C4A 1_555 1_555
C5A C4A 1_555 1_555
H5A C5A 1_555 1_555
C6A C5A 1_555 1_555
C7A C6A 1_555 1_555
H6A C7A 1_555 1_555
C8A C7A 1_555 1_555
H7A C8A 1_555 1_555
C9A C8A 1_555 1_555
H8A C9A 1_555 1_555
C10A C9A 1_555 1_555
H9A C10A 1_555 1_555
C11A C2A 1_555 1_555
C6 C11 1_555 1_555
C10 C11 1_555 1_555
Sr1D O2D 1_555 1_555
Sr1D_2 O2E 1_555 1_555
O2A C1A 1_555 1_555
C6A C11A 1_555 1_555
C10A C11A 1_555 1_555

#END
