
#######################################################################
#
#                 Cambridge Crystallographic Data Centre
#                                CCDC 
#
#######################################################################
#
# If this CIF has been generated from an entry in the Cambridge 
# Structural Database, then it will include bibliographic, chemical, 
# crystal, experimental, refinement or atomic coordinate data resulting 
# from the CCDC's data processing and validation procedures.
#
#######################################################################

data_MEDKEN
_symmetry_cell_setting           orthorhombic
_symmetry_space_group_name_H-M   'P b c n'
_symmetry_Int_Tables_number      60
_space_group_name_Hall           '-P 2n 2ab'
loop_
_symmetry_equiv_pos_site_id
_symmetry_equiv_pos_as_xyz
1 x,y,z
2 1/2-x,1/2-y,1/2+z
3 -x,y,1/2-z
4 1/2+x,1/2-y,-z
5 -x,-y,-z
6 1/2+x,1/2+y,1/2-z
7 x,-y,1/2+z
8 1/2-x,1/2+y,z
_cell_length_a                   20.464(3)
_cell_length_b                   11.9699(15)
_cell_length_c                   8.2812(10)
_cell_angle_alpha                90
_cell_angle_beta                 90
_cell_angle_gamma                90
_cell_volume                     2028.5
loop_
_atom_site_label
_atom_site_type_symbol
_atom_site_fract_x
_atom_site_fract_y
_atom_site_fract_z
Ba1 Ba 0.5000 1.058363(17) 0.2500
O1 O 0.55542(9) 0.89902(15) 0.0331(2)
O2 O 0.58514(11) 0.87800(18) 0.2876(3)
O3 O 0.58616(10) 1.20076(18) 0.0948(2)
H1 H 0.5914(16) 1.186(3) -0.0081(16)
H2 H 0.6251(9) 1.225(3) 0.120(4)
C1 C 0.60220(12) 0.7246(2) 0.1049(3)
C2 C 0.56422(13) 0.6626(2) 0.0018(3)
H3 H 0.5252 0.6939 -0.0404
C3 C 0.58220(15) 0.5532(2) -0.0425(4)
H4 H 0.5547 0.5107 -0.1117
C4 C 0.63869(19) 0.5084(2) 0.0137(3)
H5 H 0.6506 0.4347 -0.0173
C5 C 0.68027(13) 0.5699(2) 0.1178(3)
C6 C 0.66177(12) 0.67921(19) 0.1673(3)
C7 C 0.70534(16) 0.7392(3) 0.2701(3)
H6 H 0.6941 0.8123 0.3054
C8 C 0.76338(14) 0.6921(2) 0.3186(4)
H7 H 0.7920 0.7336 0.3863
C9 C 0.7814(2) 0.5833(4) 0.2697(4)
H8 H 0.8214 0.5514 0.3051
C10 C 0.74053(14) 0.5246(2) 0.1709(3)
H9 H 0.7527 0.4517 0.1370
C11 C 0.57986(12) 0.8419(2) 0.1458(3)
Ba1D Ba 0.5000 0.941637(17) -0.2500
Ba1D_2 Ba 0.5000 0.941637(17) 0.7500
O1B O 0.44458(9) 0.89902(15) 0.4669(2)
O1D O 0.44458(9) 1.10098(15) -0.0331(2)
O1F O 0.55542(9) 1.10098(15) 0.5331(2)
O2B O 0.41486(11) 0.87800(18) 0.2124(3)
O3B O 0.41384(10) 1.20076(18) 0.4052(2)
H1B H 0.4086(16) 1.186(3) 0.5081(16)
H2B H 0.3749(9) 1.225(3) 0.380(4)
C1B C 0.39780(12) 0.7246(2) 0.3951(3)
C2B C 0.43578(13) 0.6626(2) 0.4982(3)
H3B H 0.4748 0.6939 0.5404
C3B C 0.41780(15) 0.5532(2) 0.5425(4)
H4B H 0.4453 0.5107 0.6117
C4B C 0.36131(19) 0.5084(2) 0.4863(3)
H5B H 0.3494 0.4347 0.5173
C5B C 0.31973(13) 0.5699(2) 0.3822(3)
C6B C 0.33823(12) 0.67921(19) 0.3327(3)
C7B C 0.29466(16) 0.7392(3) 0.2299(3)
H6B H 0.3059 0.8123 0.1946
C8B C 0.23662(14) 0.6921(2) 0.1814(4)
H7B H 0.2080 0.7336 0.1137
C9B C 0.2186(2) 0.5833(4) 0.2303(4)
H8B H 0.1786 0.5514 0.1949
C10B C 0.25947(14) 0.5246(2) 0.3291(3)
H9B H 0.2473 0.4517 0.3630
C11B C 0.42014(12) 0.8419(2) 0.3542(3)
loop_
_geom_bond_atom_site_label_1
_geom_bond_atom_site_label_2
_geom_bond_site_symmetry_1
_geom_bond_site_symmetry_2
Ba1 O1 1_555 1_555
O1 C11 1_555 1_555
O2 Ba1 1_555 1_555
O3 Ba1 1_555 1_555
H1 O3 1_555 1_555
H2 O3 1_555 1_555
C1 C2 1_555 1_555
C2 H3 1_555 1_555
C3 C2 1_555 1_555
H4 C3 1_555 1_555
C4 C3 1_555 1_555
H5 C4 1_555 1_555
C5 C4 1_555 1_555
C6 C1 1_555 1_555
C7 C6 1_555 1_555
H6 C7 1_555 1_555
C8 C7 1_555 1_555
H7 C8 1_555 1_555
C9 C8 1_555 1_555
H8 C9 1_555 1_555
C10 C5 1_555 1_555
H9 C10 1_555 1_555
C11 O2 1_555 1_555
Ba1D O1 1_555 1_555
Ba1D_2 O1B 1_555 1_555
O1B Ba1 1_555 1_555
O1D Ba1 1_555 1_555
O1F Ba1 1_555 1_555
O2B Ba1 1_555 1_555
O3B Ba1 1_555 1_555
H1B O3B 1_555 1_555
H2B O3B 1_555 1_555
C1B C2B 1_555 1_555
C2B H3B 1_555 1_555
C3B C2B 1_555 1_555
H4B C3B 1_555 1_555
C4B C3B 1_555 1_555
H5B C4B 1_555 1_555
C5B C4B 1_555 1_555
C6B C1B 1_555 1_555
C7B C6B 1_555 1_555
H6B C7B 1_555 1_555
C8B C7B 1_555 1_555
H7B C8B 1_555 1_555
C9B C8B 1_555 1_555
H8B C9B 1_555 1_555
C10B C5B 1_555 1_555
H9B C10B 1_555 1_555
C11B O1B 1_555 1_555
C1 C11 1_555 1_555
C5 C6 1_555 1_555
C9 C10 1_555 1_555
Ba1D O1D 1_555 1_555
Ba1D_2 O1F 1_555 1_555
O2B C11B 1_555 1_555
C1B C11B 1_555 1_555
C5B C6B 1_555 1_555
C9B C10B 1_555 1_555

#END
