
#######################################################################
#
#                 Cambridge Crystallographic Data Centre
#                                CCDC 
#
#######################################################################
#
# If this CIF has been generated from an entry in the Cambridge 
# Structural Database, then it will include bibliographic, chemical, 
# crystal, experimental, refinement or atomic coordinate data resulting 
# from the CCDC's data processing and validation procedures.
#
#######################################################################

data_MEDKIR
_symmetry_cell_setting           monoclinic
_symmetry_space_group_name_H-M   'P 21/c'
_symmetry_Int_Tables_number      14
_space_group_name_Hall           '-P 2ybc'
loop_
_symmetry_equiv_pos_site_id
_symmetry_equiv_pos_as_xyz
1 x,y,z
2 -x,1/2+y,1/2-z
3 -x,-y,-z
4 x,1/2-y,1/2+z
_cell_length_a                   11.1247(11)
_cell_length_b                   13.8704(14)
_cell_length_c                   16.0515(19)
_cell_angle_alpha                90
_cell_angle_beta                 98.621(2)
_cell_angle_gamma                90
_cell_volume                     2448.83
loop_
_atom_site_label
_atom_site_type_symbol
_atom_site_fract_x
_atom_site_fract_y
_atom_site_fract_z
C1 C -0.0439(3) 0.4998(2) 0.8764(2)
C2 C 0.6545(3) 0.57619(19) 0.51747(18)
C3 C 0.6187(3) 0.5353(2) 0.58839(18)
H1 H 0.6350 0.4706 0.6004
C4 C 0.5589(2) 0.59009(19) 0.64180(17)
C5 C 0.5326(2) 0.68525(19) 0.62320(17)
H2 H 0.4943 0.7226 0.6595
C6 C 0.5635(2) 0.72545(18) 0.55029(17)
C7 C 0.6251(2) 0.67154(19) 0.49713(18)
H3 H 0.6463 0.6990 0.4485
C8 C 0.5268(3) 0.5436(2) 0.72019(19)
C9 C 0.5301(2) 0.82925(19) 0.52935(18)
C10 C 0.7999(3) 0.5436(2) 0.4188(2)
C11 C 0.8589(3) 0.4634(2) 0.37781(19)
C12 C 0.9835(3) 0.4634(2) 0.3780(2)
H4 H 1.0323 0.5114 0.4058
C13 C 1.0333(3) 0.3899(3) 0.3358(2)
H5 H 1.1172 0.3892 0.3372
C14 C 0.8486(3) 0.3218(2) 0.2930(2)
H6 H 0.8014 0.2745 0.2629
C15 C 0.7906(3) 0.3908(2) 0.3353(2)
H7 H 0.7070 0.3881 0.3350
C16 C 0.2714(3) 0.4336(2) 0.8364(2)
H8 H 0.3089 0.3847 0.8100
C17 C 0.1477(3) 0.4281(2) 0.8363(2)
H9 H 0.1037 0.3760 0.8111
C18 C 0.0888(3) 0.5013(2) 0.8741(2)
C19 C -0.1115(3) 0.4156(2) 0.8683(2)
H10 H -0.0739 0.3571 0.8604
C20 C -0.2351(3) 0.4184(2) 0.8719(2)
H11 H -0.2784 0.3608 0.8671
C21 C -0.2299(3) 0.5814(2) 0.8892(2)
H12 H -0.2699 0.6391 0.8960
C22 C -0.1066(3) 0.5839(2) 0.8871(2)
H13 H -0.0653 0.6423 0.8930
C23 C 0.1603(2) 0.5768(2) 0.90939(19)
H14 H 0.1249 0.6278 0.9344
C24 C 0.2838(2) 0.5764(2) 0.90759(19)
H15 H 0.3296 0.6280 0.9320
Co1 Co 0.52257(3) 0.50479(2) 0.87893(2)
N1 N 0.9683(3) 0.31979(19) 0.29307(18)
N2 N 0.7194(2) 0.51615(16) 0.46842(16)
H16 H 0.7055 0.4553 0.4707
N3 N 0.3408(2) 0.50620(16) 0.87285(15)
N4 N -0.2948(2) 0.49992(16) 0.88181(16)
O1 O 0.51457(17) 0.59900(13) 0.78187(12)
O2 O 0.5158(2) 0.45483(15) 0.72408(13)
O3 O 0.47330(16) 0.87209(13) 0.58160(12)
O4 O 0.55740(18) 0.86566(14) 0.46395(12)
O5 O 0.8257(2) 0.62762(16) 0.40703(17)
Co1_2 Co -0.47743(3) 0.50479(2) 0.87893(2)
Co1A Co 0.47743(3) 1.00479(2) 0.62107(2)
Co1C Co 0.52257(3) 0.99521(2) 0.37893(2)
N4_2 N 0.7052(2) 0.49992(16) 0.88181(16)
O3A O 0.52670(16) 0.37209(13) 0.91840(12)
O4C O 0.55740(18) 0.63434(14) 0.96395(12)
O6 O 0.7424(2) 0.32033(16) 0.54060(17)
H17 H 0.8144 0.3159 0.5668
H18 H 0.6934 0.3095 0.5754
O7 O 0.0317(2) 0.69965(18) 0.35282(18)
H19 H -0.0372 0.6815 0.3637
H20 H 0.0209 0.7345 0.3088
O8 O 0.6047(2) 0.28045(16) 0.67452(16)
H21 H 0.5667 0.2317 0.6892
H22 H 0.5731 0.3311 0.6918
loop_
_geom_bond_atom_site_label_1
_geom_bond_atom_site_label_2
_geom_bond_site_symmetry_1
_geom_bond_site_symmetry_2
C1 C18 1_555 1_555
C2 C3 1_555 1_555
C3 H1 1_555 1_555
C4 C3 1_555 1_555
C5 C4 1_555 1_555
H2 C5 1_555 1_555
C6 C5 1_555 1_555
C7 C2 1_555 1_555
H3 C7 1_555 1_555
C8 C4 1_555 1_555
C9 C6 1_555 1_555
C10 C11 1_555 1_555
C11 C12 1_555 1_555
C12 H4 1_555 1_555
C13 C12 1_555 1_555
H5 C13 1_555 1_555
C14 H6 1_555 1_555
C15 C11 1_555 1_555
H7 C15 1_555 1_555
C16 H8 1_555 1_555
C17 C16 1_555 1_555
H9 C17 1_555 1_555
C18 C17 1_555 1_555
C19 C1 1_555 1_555
H10 C19 1_555 1_555
C20 C19 1_555 1_555
H11 C20 1_555 1_555
C21 H12 1_555 1_555
C22 C1 1_555 1_555
H13 C22 1_555 1_555
C23 C18 1_555 1_555
H14 C23 1_555 1_555
C24 C23 1_555 1_555
H15 C24 1_555 1_555
Co1 N3 1_555 1_555
N1 C13 1_555 1_555
N2 C2 1_555 1_555
H16 N2 1_555 1_555
N3 C16 1_555 1_555
N4 C20 1_555 1_555
O1 C8 1_555 1_555
O2 C8 1_555 1_555
O3 C9 1_555 1_555
O4 C9 1_555 1_555
O5 C10 1_555 1_555
O6 H17 1_555 1_555
H18 O6 1_555 1_555
O7 H19 1_555 1_555
H20 O7 1_555 1_555
O8 H21 1_555 1_555
H22 O8 1_555 1_555
Co1_2 N4 1_555 1_555
Co1A O3 1_555 1_555
Co1C O4 1_555 1_555
N4_2 Co1 1_555 1_555
O3A Co1 1_555 1_555
O4C Co1 1_555 1_555
C6 C7 1_555 1_555
C10 N2 1_555 1_555
C14 C15 1_555 1_555
C14 N1 1_555 1_555
C21 C22 1_555 1_555
C21 N4 1_555 1_555
C24 N3 1_555 1_555
Co1 O1 1_555 1_555

#END
