
#######################################################################
#
#                 Cambridge Crystallographic Data Centre
#                                CCDC 
#
#######################################################################
#
# If this CIF has been generated from an entry in the Cambridge 
# Structural Database, then it will include bibliographic, chemical, 
# crystal, experimental, refinement or atomic coordinate data resulting 
# from the CCDC's data processing and validation procedures.
#
#######################################################################

data_MEDNAL
_symmetry_cell_setting           monoclinic
_symmetry_space_group_name_H-M   'P 21/c'
_symmetry_Int_Tables_number      14
_space_group_name_Hall           '-P 2ybc'
loop_
_symmetry_equiv_pos_site_id
_symmetry_equiv_pos_as_xyz
1 x,y,z
2 -x,1/2+y,1/2-z
3 -x,-y,-z
4 x,1/2-y,1/2+z
_cell_length_a                   18.309(3)
_cell_length_b                   16.716(3)
_cell_length_c                   18.722(3)
_cell_angle_alpha                90
_cell_angle_beta                 91.812(3)
_cell_angle_gamma                90
_cell_volume                     5727.06
loop_
_atom_site_label
_atom_site_type_symbol
_atom_site_fract_x
_atom_site_fract_y
_atom_site_fract_z
Ag1 Ag 0.18110(8) 0.16939(9) 0.25200(8)
Ag2 Ag 0.68141(8) 0.17927(10) 0.23462(7)
S1 S 0.1458(2) 0.1618(3) 0.3793(2)
S2 S 0.1338(3) 0.1654(3) 0.1248(2)
S3 S 0.6508(3) 0.1772(3) 0.3637(2)
S4 S 0.6347(3) 0.1688(3) 0.1086(2)
O1 O -0.2123(8) 0.2494(8) 0.2804(7)
O2 O -0.2261(8) 0.0782(9) 0.2045(7)
O3 O 0.2864(7) 0.0845(8) 0.2938(7)
O4 O 0.2797(7) 0.2497(8) 0.2077(7)
N1 N -0.0925(9) 0.2702(10) 0.2670(8)
H1 H -0.0609 0.2953 0.2405
N2 N -0.1727(8) 0.3218(10) 0.1851(8)
H2 H -0.1340 0.3356 0.1613
N3 N -0.1035(8) 0.0663(9) 0.2284(8)
H3 H -0.0721 0.0433 0.2585
N4 N -0.1849(9) 0.0141(10) 0.3054(8)
H4 H -0.1450 0.0018 0.3306
N5 N 0.4073(8) 0.0681(9) 0.2716(7)
H5 H 0.4367 0.0443 0.2420
N6 N 0.3224(8) 0.0156(9) 0.1945(7)
H6 H 0.3604 0.0023 0.1695
N7 N 0.4043(8) 0.2655(9) 0.2232(8)
H7 H 0.4358 0.2909 0.2515
N8 N 0.3264(8) 0.3155(9) 0.3040(7)
H8 H 0.3672 0.3288 0.3272
C1 C 0.1608(11) 0.0596(11) 0.4038(10)
H9 H 0.1267 0.0253 0.3763
H10 H 0.1528 0.0529 0.4549
H11 H 0.2111 0.0445 0.3935
C2 C 0.0504(11) 0.1722(12) 0.3775(10)
C3 C 0.0087(10) 0.1382(12) 0.4341(10)
H12 H 0.0330 0.1111 0.4726
C4 C -0.0679(10) 0.1452(12) 0.4324(10)
H13 H -0.0956 0.1192 0.4676
C5 C -0.1030(9) 0.1900(10) 0.3793(8)
H14 H -0.1545 0.1969 0.3789
C6 C -0.0612(9) 0.2250(10) 0.3260(8)
C7 C 0.0141(10) 0.2150(11) 0.3276(9)
H15 H 0.0412 0.2399 0.2914
C8 C -0.1600(10) 0.2792(11) 0.2476(9)
C9 C -0.2418(10) 0.3456(11) 0.1553(9)
C10 C -0.3030(11) 0.3573(12) 0.1939(10)
H16 H -0.3013 0.3490 0.2441
C11 C -0.3667(11) 0.3812(12) 0.1600(10)
H17 H -0.4094 0.3876 0.1869
C12 C -0.3697(12) 0.3963(13) 0.0867(11)
H18 H -0.4133 0.4149 0.0633
C13 C -0.3073(11) 0.3831(13) 0.0496(11)
H19 H -0.3083 0.3937 -0.0002
C14 C -0.2429(12) 0.3551(14) 0.0814(11)
H20 H -0.2014 0.3430 0.0541
C15 C 0.1540(13) 0.2613(14) 0.0875(12)
H21 H 0.1508 0.2580 0.0352
H22 H 0.2035 0.2775 0.1028
H23 H 0.1187 0.3008 0.1040
C16 C 0.0379(10) 0.1612(11) 0.1167(9)
C17 C -0.0042(11) 0.1931(13) 0.0640(11)
H24 H 0.0183 0.2215 0.0267
C18 C -0.0797(10) 0.1857(12) 0.0627(10)
H25 H -0.1077 0.2108 0.0255
C19 C -0.1158(11) 0.1418(11) 0.1154(9)
H26 H -0.1673 0.1346 0.1133
C20 C -0.0720(9) 0.1091(10) 0.1710(9)
C21 C 0.0014(9) 0.1203(10) 0.1739(8)
H27 H 0.0294 0.1010 0.2139
C22 C -0.1740(10) 0.0562(11) 0.2429(9)
C23 C -0.2500(11) -0.0115(12) 0.3339(10)
C24 C -0.3126(9) -0.0193(11) 0.2983(9)
H28 H -0.3155 -0.0070 0.2488
C25 C -0.3754(11) -0.0459(12) 0.3330(10)
H29 H -0.4207 -0.0470 0.3069
C26 C -0.3735(12) -0.0700(13) 0.4031(11)
H30 H -0.4155 -0.0913 0.4248
C27 C -0.3070(13) -0.0618(15) 0.4408(13)
H31 H -0.3041 -0.0747 0.4902
C28 C -0.2445(13) -0.0350(14) 0.4072(12)
H32 H -0.1989 -0.0324 0.4327
C29 C 0.6726(11) 0.2736(12) 0.4045(10)
H33 H 0.6404 0.3148 0.3837
H34 H 0.7236 0.2873 0.3956
H35 H 0.6657 0.2706 0.4561
C30 C 0.5554(8) 0.1679(10) 0.3727(8)
C31 C 0.5200(10) 0.2004(11) 0.4341(9)
H36 H 0.5470 0.2276 0.4709
C32 C 0.4471(11) 0.1907(12) 0.4370(10)
H37 H 0.4226 0.2163 0.4748
C33 C 0.4055(11) 0.1459(12) 0.3888(10)
H38 H 0.3548 0.1372 0.3950
C34 C 0.4424(10) 0.1131(11) 0.3286(10)
C35 C 0.5162(10) 0.1243(12) 0.3241(10)
H39 H 0.5408 0.1007 0.2854
C36 C 0.3366(9) 0.0581(10) 0.2583(8)
C37 C 0.2529(10) -0.0080(11) 0.1667(9)
C38 C 0.1910(11) -0.0179(13) 0.2046(11)
H40 H 0.1924 -0.0068 0.2544
C39 C 0.1253(10) -0.0440(11) 0.1717(9)
H41 H 0.0825 -0.0495 0.1987
C40 C 0.1235(12) -0.0620(13) 0.0984(11)
H42 H 0.0801 -0.0813 0.0752
C41 C 0.1849(11) -0.0510(12) 0.0619(11)
H43 H 0.1839 -0.0624 0.0121
C42 C 0.2494(12) -0.0238(13) 0.0938(11)
H44 H 0.2912 -0.0158 0.0659
C43 C 0.6511(12) 0.0653(14) 0.0828(12)
H45 H 0.6310 0.0293 0.1185
H46 H 0.7038 0.0562 0.0799
H47 H 0.6273 0.0549 0.0361
C44 C 0.5377(9) 0.1714(10) 0.1121(8)
C45 C 0.4951(10) 0.1312(11) 0.0597(9)
H48 H 0.5173 0.1015 0.0230
C46 C 0.4205(10) 0.1361(11) 0.0629(9)
H49 H 0.3901 0.1094 0.0285
C47 C 0.3894(10) 0.1810(11) 0.1178(9)
H50 H 0.3378 0.1836 0.1212
C48 C 0.4341(10) 0.2218(11) 0.1671(9)
C49 C 0.5065(10) 0.2157(11) 0.1634(9)
H51 H 0.5368 0.2431 0.1974
C50 C 0.3343(11) 0.2730(12) 0.2387(10)
C51 C 0.2623(11) 0.3384(13) 0.3352(10)
C52 C 0.1984(10) 0.3525(11) 0.3016(10)
H52 H 0.1945 0.3430 0.2516
C53 C 0.1375(12) 0.3803(13) 0.3359(11)
H53 H 0.0941 0.3920 0.3088
C54 C 0.1392(13) 0.3912(14) 0.4105(12)
H54 H 0.0970 0.4065 0.4353
C55 C 0.2048(12) 0.3786(13) 0.4450(11)
H55 H 0.2090 0.3897 0.4948
C56 C 0.2666(11) 0.3501(12) 0.4105(10)
H56 H 0.3105 0.3387 0.4370
Ag2_2 Ag -0.31859(8) 0.17927(10) 0.23462(7)
O1_2 O 0.7877(8) 0.2494(8) 0.2804(7)
O2_2 O 0.7739(8) 0.0782(9) 0.2045(7)
F1 F -0.0624(6) -0.0621(7) 0.3965(6)
F2 F -0.0243(7) -0.1467(7) 0.3107(6)
F3 F 0.0126(7) -0.0167(7) 0.3104(6)
F4 F 0.0559(6) -0.1022(7) 0.3958(6)
B1 B -0.0063(12) -0.0815(14) 0.3544(11)
F5 F -0.5549(6) 0.3960(6) 0.3916(5)
F6 F -0.5155(6) 0.4883(7) 0.3117(6)
F7 F -0.4814(7) 0.3574(7) 0.3025(6)
F8 F -0.4350(6) 0.4352(7) 0.3936(6)
B2 B -0.4974(13) 0.4169(15) 0.3509(12)
loop_
_geom_bond_atom_site_label_1
_geom_bond_atom_site_label_2
_geom_bond_site_symmetry_1
_geom_bond_site_symmetry_2
Ag1 S1 1_555 1_555
Ag2 S3 1_555 1_555
S1 C1 1_555 1_555
S2 Ag1 1_555 1_555
S3 C29 1_555 1_555
S4 Ag2 1_555 1_555
F1 B1 1_555 1_555
F2 B1 1_555 1_555
F3 B1 1_555 1_555
F4 B1 1_555 1_555
F5 B2 1_555 1_555
F6 B2 1_555 1_555
F7 B2 1_555 1_555
F8 B2 1_555 1_555
O1 C8 1_555 1_555
O2 C22 1_555 1_555
O3 Ag1 1_555 1_555
O4 Ag1 1_555 1_555
N1 H1 1_555 1_555
N2 H2 1_555 1_555
N3 H3 1_555 1_555
N4 H4 1_555 1_555
N5 H5 1_555 1_555
N6 H6 1_555 1_555
N7 H7 1_555 1_555
N8 H8 1_555 1_555
C1 H9 1_555 1_555
H10 C1 1_555 1_555
H11 C1 1_555 1_555
C2 S1 1_555 1_555
C3 C2 1_555 1_555
H12 C3 1_555 1_555
C4 C3 1_555 1_555
H13 C4 1_555 1_555
C5 C4 1_555 1_555
H14 C5 1_555 1_555
C6 N1 1_555 1_555
C7 C2 1_555 1_555
H15 C7 1_555 1_555
C8 N1 1_555 1_555
C9 N2 1_555 1_555
C10 C9 1_555 1_555
H16 C10 1_555 1_555
C11 C10 1_555 1_555
H17 C11 1_555 1_555
C12 C11 1_555 1_555
H18 C12 1_555 1_555
C13 C12 1_555 1_555
H19 C13 1_555 1_555
C14 C9 1_555 1_555
H20 C14 1_555 1_555
C15 S2 1_555 1_555
H21 C15 1_555 1_555
H22 C15 1_555 1_555
H23 C15 1_555 1_555
C16 S2 1_555 1_555
C17 C16 1_555 1_555
H24 C17 1_555 1_555
C18 C17 1_555 1_555
H25 C18 1_555 1_555
C19 C18 1_555 1_555
H26 C19 1_555 1_555
C20 N3 1_555 1_555
C21 C16 1_555 1_555
H27 C21 1_555 1_555
C22 N3 1_555 1_555
C23 N4 1_555 1_555
C24 C23 1_555 1_555
H28 C24 1_555 1_555
C25 C24 1_555 1_555
H29 C25 1_555 1_555
C26 C25 1_555 1_555
H30 C26 1_555 1_555
C27 C26 1_555 1_555
H31 C27 1_555 1_555
C28 C23 1_555 1_555
H32 C28 1_555 1_555
C29 H33 1_555 1_555
H34 C29 1_555 1_555
H35 C29 1_555 1_555
C30 S3 1_555 1_555
C31 C30 1_555 1_555
H36 C31 1_555 1_555
C32 C31 1_555 1_555
H37 C32 1_555 1_555
C33 C32 1_555 1_555
H38 C33 1_555 1_555
C34 N5 1_555 1_555
C35 C30 1_555 1_555
H39 C35 1_555 1_555
C36 O3 1_555 1_555
C37 N6 1_555 1_555
C38 C37 1_555 1_555
H40 C38 1_555 1_555
C39 C38 1_555 1_555
H41 C39 1_555 1_555
C40 C39 1_555 1_555
H42 C40 1_555 1_555
C41 C40 1_555 1_555
H43 C41 1_555 1_555
C42 C37 1_555 1_555
H44 C42 1_555 1_555
C43 S4 1_555 1_555
H45 C43 1_555 1_555
H46 C43 1_555 1_555
H47 C43 1_555 1_555
C44 S4 1_555 1_555
C45 C44 1_555 1_555
H48 C45 1_555 1_555
C46 C45 1_555 1_555
H49 C46 1_555 1_555
C47 C46 1_555 1_555
H50 C47 1_555 1_555
C48 N7 1_555 1_555
C49 C44 1_555 1_555
H51 C49 1_555 1_555
C50 O4 1_555 1_555
C51 N8 1_555 1_555
C52 C51 1_555 1_555
H52 C52 1_555 1_555
C53 C52 1_555 1_555
H53 C53 1_555 1_555
C54 C53 1_555 1_555
H54 C54 1_555 1_555
C55 C54 1_555 1_555
H55 C55 1_555 1_555
C56 C51 1_555 1_555
H56 C56 1_555 1_555
Ag2_2 O1 1_555 1_555
O1_2 Ag2 1_555 1_555
O2_2 Ag2 1_555 1_555
O2 Ag2_2 1_555 1_555
N2 C8 1_555 1_555
N4 C22 1_555 1_555
N5 C36 1_555 1_555
N6 C36 1_555 1_555
N7 C50 1_555 1_555
N8 C50 1_555 1_555
C5 C6 1_555 1_555
C6 C7 1_555 1_555
C13 C14 1_555 1_555
C19 C20 1_555 1_555
C20 C21 1_555 1_555
C27 C28 1_555 1_555
C33 C34 1_555 1_555
C34 C35 1_555 1_555
C41 C42 1_555 1_555
C47 C48 1_555 1_555
C48 C49 1_555 1_555
C55 C56 1_555 1_555

#END
