
#######################################################################
#
#                 Cambridge Crystallographic Data Centre
#                                CCDC 
#
#######################################################################
#
# If this CIF has been generated from an entry in the Cambridge 
# Structural Database, then it will include bibliographic, chemical, 
# crystal, experimental, refinement or atomic coordinate data resulting 
# from the CCDC's data processing and validation procedures.
#
#######################################################################

data_MEDNEP
_symmetry_cell_setting           orthorhombic
_symmetry_space_group_name_H-M   'P b c a'
_symmetry_Int_Tables_number      61
_space_group_name_Hall           '-P 2ac 2ab'
loop_
_symmetry_equiv_pos_site_id
_symmetry_equiv_pos_as_xyz
1 x,y,z
2 1/2+x,1/2-y,-z
3 -x,1/2+y,1/2-z
4 1/2-x,-y,1/2+z
5 -x,-y,-z
6 1/2-x,1/2+y,z
7 x,1/2-y,1/2+z
8 1/2+x,y,1/2-z
_cell_length_a                   18.2449(9)
_cell_length_b                   16.2679(8)
_cell_length_c                   18.9904(10)
_cell_angle_alpha                90
_cell_angle_beta                 90
_cell_angle_gamma                90
_cell_volume                     5636.47
loop_
_atom_site_label
_atom_site_type_symbol
_atom_site_fract_x
_atom_site_fract_y
_atom_site_fract_z
Ag1 Ag 0.812745(9) 0.175405(12) 0.239595(11)
S1 S 0.85539(3) 0.15271(4) 0.11653(3)
C1 C 0.95191(13) 0.16948(14) 0.11525(12)
C2 C 0.98445(12) 0.21461(14) 0.16863(12)
C3 C 1.05978(12) 0.22948(14) 0.16845(12)
N1 N 1.08751(11) 0.27533(13) 0.22526(11)
C4 C 1.15915(13) 0.28055(13) 0.24615(12)
O1 O 1.21018(9) 0.25032(11) 0.21258(10)
N2 N 1.16739(11) 0.32188(14) 0.30791(11)
C5 C 1.23481(13) 0.33868(13) 0.34131(13)
C6 C 1.29923(13) 0.35514(14) 0.30430(14)
C7 C 1.36287(14) 0.37558(16) 0.34094(17)
C8 C 1.36249(17) 0.38013(18) 0.41364(19)
C9 C 1.29849(18) 0.36423(19) 0.45030(17)
C10 C 1.23472(16) 0.34289(17) 0.41475(14)
C11 C 1.10260(14) 0.19746(16) 0.11360(13)
C12 C 1.06875(14) 0.15220(17) 0.06107(13)
C13 C 0.99402(14) 0.13806(15) 0.06028(13)
C14 C 0.85086(15) 0.04172(16) 0.10863(16)
S2 S 0.85661(3) 0.17545(4) 0.36479(3)
O2 O 1.21610(10) 0.07473(11) 0.28424(10)
C15 C 1.16575(13) 0.04854(13) 0.24766(13)
N3 N 1.09324(11) 0.05637(12) 0.26520(11)
C16 C 1.06318(13) 0.10152(14) 0.32119(12)
C17 C 0.98781(13) 0.11628(14) 0.31837(13)
C18 C 0.95319(14) 0.16144(13) 0.37078(13)
C19 C 0.99313(16) 0.19177(16) 0.42720(14)
C20 C 1.06793(15) 0.17746(17) 0.42960(14)
C21 C 1.10375(14) 0.13296(15) 0.37782(13)
N4 N 1.17513(11) 0.00808(13) 0.18549(11)
C22 C 1.24200(13) -0.01253(14) 0.15330(13)
C23 C 1.30743(14) -0.02295(14) 0.19056(14)
C24 C 1.37068(14) -0.04512(15) 0.15423(16)
C25 C 1.36983(16) -0.05793(18) 0.08270(18)
C26 C 1.30484(17) -0.0487(2) 0.04599(16)
C27 C 1.24102(15) -0.02608(18) 0.08090(15)
C28 C 0.84392(16) 0.27925(17) 0.39655(17)
H1 H 0.95353(12) 0.23707(14) 0.20761(12)
H2 H 1.29956(13) 0.35244(14) 0.25158(14)
H3 H 1.40954(14) 0.38700(16) 0.31448(17)
H4 H 1.40852(17) 0.39487(18) 0.43971(19)
H5 H 1.29790(18) 0.36828(19) 0.50306(17)
H6 H 1.18877(16) 0.33047(17) 0.44161(14)
H7 H 1.15687(14) 0.20709(16) 0.11281(13)
H8 H 1.09941(14) 0.12915(17) 0.02223(13)
H9 H 0.97065(14) 0.10624(15) 0.02116(13)
H10 H 0.95849(13) 0.09397(14) 0.27820(13)
H11 H 0.96832(16) 0.22344(16) 0.46556(14)
H12 H 1.09698(15) 0.19976(17) 0.47001(14)
H13 H 1.15806(14) 0.12357(15) 0.38058(13)
H14 H 1.30854(14) -0.01484(14) 0.24282(14)
H15 H 1.41783(14) -0.05204(15) 0.18050(16)
H16 H 1.41595(16) -0.07332(18) 0.05713(18)
H17 H 1.30377(17) -0.0590(2) -0.00606(16)
H18 H 1.19428(15) -0.01926(18) 0.05395(15)
H19 H 1.12959(11) -0.00913(13) 0.16022(11)
H20 H 1.05755(11) 0.02662(12) 0.23452(11)
H21 H 1.05115(11) 0.30747(13) 0.25329(11)
H22 H 1.12189(11) 0.34189(14) 0.33172(11)
H23 H 0.79850(15) 0.02377(16) 0.10882(16)
H24 H 0.87710(15) 0.01586(16) 0.14939(16)
H25 H 0.87471(15) 0.02430(16) 0.06373(16)
H26 H 0.79046(16) 0.29365(17) 0.39532(17)
H27 H 0.87166(16) 0.31813(17) 0.36584(17)
H28 H 0.86219(16) 0.28330(17) 0.44598(17)
Ag1G Ag 1.312745(9) 0.175405(12) 0.260405(11)
O1G O 0.71018(9) 0.25032(11) 0.28742(10)
O2G O 0.71610(10) 0.07473(11) 0.21576(10)
N5 N 0.50150(11) -0.08446(13) 0.36073(12)
O3 O 0.54777(11) -0.04389(13) 0.39446(11)
O4 O 0.50245(12) -0.08390(17) 0.29475(11)
O5 O 0.45426(11) -0.12521(13) 0.39247(11)
loop_
_geom_bond_atom_site_label_1
_geom_bond_atom_site_label_2
_geom_bond_site_symmetry_1
_geom_bond_site_symmetry_2
Ag1 S1 1_555 1_555
S1 C1 1_555 1_555
C1 C2 1_555 1_555
C2 C3 1_555 1_555
C3 N1 1_555 1_555
N1 C4 1_555 1_555
C4 O1 1_555 1_555
O1 Ag1G 1_555 1_555
N2 C4 1_555 1_555
C5 N2 1_555 1_555
C6 C5 1_555 1_555
C7 C6 1_555 1_555
C8 C7 1_555 1_555
C9 C8 1_555 1_555
C10 C5 1_555 1_555
C11 C3 1_555 1_555
C12 C11 1_555 1_555
C13 C1 1_555 1_555
C14 S1 1_555 1_555
S2 Ag1 1_555 1_555
O2 C15 1_555 1_555
C15 N3 1_555 1_555
N3 C16 1_555 1_555
C16 C17 1_555 1_555
C17 C18 1_555 1_555
C18 S2 1_555 1_555
C19 C18 1_555 1_555
C20 C19 1_555 1_555
C21 C16 1_555 1_555
N4 C15 1_555 1_555
C22 N4 1_555 1_555
C23 C22 1_555 1_555
C24 C23 1_555 1_555
C25 C24 1_555 1_555
C26 C25 1_555 1_555
C27 C22 1_555 1_555
C28 S2 1_555 1_555
N5 O3 1_555 1_555
O4 N5 1_555 1_555
O5 N5 1_555 1_555
H1 C2 1_555 1_555
H2 C6 1_555 1_555
H3 C7 1_555 1_555
H4 C8 1_555 1_555
H5 C9 1_555 1_555
H6 C10 1_555 1_555
H7 C11 1_555 1_555
H8 C12 1_555 1_555
H9 C13 1_555 1_555
H10 C17 1_555 1_555
H11 C19 1_555 1_555
H12 C20 1_555 1_555
H13 C21 1_555 1_555
H14 C23 1_555 1_555
H15 C24 1_555 1_555
H16 C25 1_555 1_555
H17 C26 1_555 1_555
H18 C27 1_555 1_555
H19 N4 1_555 1_555
H20 N3 1_555 1_555
H21 N1 1_555 1_555
H22 N2 1_555 1_555
H23 C14 1_555 1_555
H24 C14 1_555 1_555
H25 C14 1_555 1_555
H26 C28 1_555 1_555
H27 C28 1_555 1_555
H28 C28 1_555 1_555
Ag1G O2 1_555 1_555
O1G Ag1 1_555 1_555
O2G Ag1 1_555 1_555
C9 C10 1_555 1_555
C12 C13 1_555 1_555
C20 C21 1_555 1_555
C26 C27 1_555 1_555

#END
