
#######################################################################
#
#                 Cambridge Crystallographic Data Centre
#                                CCDC 
#
#######################################################################
#
# If this CIF has been generated from an entry in the Cambridge 
# Structural Database, then it will include bibliographic, chemical, 
# crystal, experimental, refinement or atomic coordinate data resulting 
# from the CCDC's data processing and validation procedures.
#
#######################################################################

data_MEDQOC
_symmetry_cell_setting           orthorhombic
_symmetry_space_group_name_H-M   'P c a 21'
_symmetry_Int_Tables_number      29
_space_group_name_Hall           'P 2c -2ac'
loop_
_symmetry_equiv_pos_site_id
_symmetry_equiv_pos_as_xyz
1 x,y,z
2 -x,-y,1/2+z
3 1/2+x,-y,z
4 1/2-x,y,1/2+z
_cell_length_a                   9.2626(8)
_cell_length_b                   16.0073(15)
_cell_length_c                   18.8522(17)
_cell_angle_alpha                90
_cell_angle_beta                 90
_cell_angle_gamma                90
_cell_volume                     2795.2
loop_
_atom_site_label
_atom_site_type_symbol
_atom_site_fract_x
_atom_site_fract_y
_atom_site_fract_z
Zn1 Zn 0.54057(3) 0.44447(3) 0.510349(19)
Zn2 Zn 0.69929(3) 0.94324(3) 0.578178(19)
N1 N 0.5206(3) 0.88840(17) 0.53223(15)
H1 H 0.4679 0.8635 0.5663
H2 H 0.4656 0.9285 0.5124
N2 N 0.2402(3) 0.11187(16) 0.67462(15)
H3 H 0.1959 0.0821 0.7088
H4 H 0.3357 0.1098 0.6830
N3 N 0.7212(3) 0.38956(17) 0.55472(16)
H5 H 0.7734 0.3653 0.5201
H6 H 0.7761 0.4295 0.5747
N4 N 0.5012(3) 0.38979(16) 0.41359(15)
H7 H 0.4059 0.3914 0.4045
H8 H 0.5468 0.4189 0.3794
O1 O 0.5258(2) 0.56594(16) 0.5053(3)
O2 O 0.6971(2) 0.54956(14) 0.42518(15)
O3 O 0.3854(2) 0.38649(14) 0.55939(13)
O4 O 0.3309(3) 0.47895(17) 0.64365(15)
O5 O 0.7175(2) 0.06445(16) 0.5795(3)
O6 O 0.5470(2) 0.04970(14) 0.66118(16)
O7 O 0.3555(2) 0.11458(14) 0.52916(13)
O8 O 0.4167(3) 0.02291(16) 0.44623(14)
C1 C 0.5570(3) 0.8272(2) 0.4786(2)
C2 C 0.5555(3) 0.74273(19) 0.49329(16)
H9 H 0.5244 0.7239 0.5374
C3 C 0.6006(3) 0.68583(19) 0.44214(18)
C4 C 0.6468(3) 0.7150(2) 0.3761(2)
H10 H 0.6779 0.6774 0.3417
C5 C 0.6460(4) 0.7996(2) 0.36208(18)
H11 H 0.6752 0.8188 0.3178
C6 C 0.6025(3) 0.8555(2) 0.4130(2)
H12 H 0.6037 0.9124 0.4034
C7 C 0.6102(3) 0.59474(19) 0.45762(17)
C8 C 0.1932(3) 0.1972(2) 0.67942(19)
C9 C 0.2716(3) 0.25960(19) 0.64483(16)
H13 H 0.3517 0.2454 0.6176
C10 C 0.2310(3) 0.34189(19) 0.65074(18)
C11 C 0.1086(4) 0.3637(3) 0.6886(2)
H14 H 0.0811 0.4194 0.6929
C12 C 0.0280(4) 0.3009(2) 0.7198(2)
H15 H -0.0564 0.3148 0.7437
C13 C 0.0692(4) 0.2186(3) 0.7164(2)
H16 H 0.0145 0.1776 0.7387
C14 C 0.3216(3) 0.40897(19) 0.61658(17)
C15 C 0.6857(3) 0.3274(2) 0.6078(2)
C16 C 0.6888(3) 0.24230(19) 0.59233(17)
H17 H 0.7208 0.2236 0.5483
C17 C 0.6431(3) 0.18574(18) 0.64373(17)
C18 C 0.6013(4) 0.2134(3) 0.7094(2)
H18 H 0.5723 0.1753 0.7438
C19 C 0.6020(3) 0.2983(2) 0.72478(18)
H19 H 0.5743 0.3167 0.7695
C20 C 0.6436(3) 0.3553(3) 0.6738(2)
H20 H 0.6432 0.4121 0.6840
C21 C 0.6335(3) 0.0939(2) 0.62796(17)
C22 C 0.5500(3) 0.3042(2) 0.41223(18)
C23 C 0.4697(3) 0.24203(18) 0.44379(16)
H21 H 0.3842 0.2555 0.4671
C24 C 0.5148(3) 0.16011(19) 0.44115(17)
C25 C 0.6447(4) 0.1410(3) 0.4086(2)
H22 H 0.6751 0.0857 0.4057
C26 C 0.7284(4) 0.2034(3) 0.3806(2)
H23 H 0.8177 0.1905 0.3608
C27 C 0.6818(3) 0.2848(3) 0.3814(2)
H24 H 0.7383 0.3267 0.3615
C28 C 0.4222(3) 0.09306(19) 0.47363(18)
Zn2B Zn 0.19929(3) 0.05676(3) 0.578178(19)
Zn2_2 Zn 0.69929(3) -0.05676(3) 0.578178(19)
N2B N 0.7402(3) 0.88813(16) 0.67462(15)
H3B H 0.6959 0.9179 0.7088
H4B H 0.8357 0.8902 0.6830
O5_2 O 0.7175(2) 1.06445(16) 0.5795(3)
O7B O 0.8555(2) 0.88542(14) 0.52916(13)
O9 O 0.3607(6) 0.0146(3) 0.2983(3)
H25 H 0.3852 0.0099 0.3415
H26 H 0.4515 0.0162 0.2918
O10 O 0.6377(5) 0.4813(3) 0.2903(3)
H27 H 0.6792 0.5194 0.3142
H28 H 0.6623 0.4928 0.2480
loop_
_geom_bond_atom_site_label_1
_geom_bond_atom_site_label_2
_geom_bond_site_symmetry_1
_geom_bond_site_symmetry_2
Zn1 N3 1_555 1_555
Zn2 N1 1_555 1_555
N1 H1 1_555 1_555
H2 N1 1_555 1_555
N2 H3 1_555 1_555
H4 N2 1_555 1_555
N3 H5 1_555 1_555
H6 N3 1_555 1_555
N4 Zn1 1_555 1_555
H7 N4 1_555 1_555
H8 N4 1_555 1_555
O1 Zn1 1_555 1_555
O2 C7 1_555 1_555
O3 Zn1 1_555 1_555
O4 C14 1_555 1_555
O5 C21 1_555 1_555
O6 C21 1_555 1_555
O7 C28 1_555 1_555
O8 C28 1_555 1_555
C1 N1 1_555 1_555
C2 C1 1_555 1_555
H9 C2 1_555 1_555
C3 C2 1_555 1_555
C4 C3 1_555 1_555
H10 C4 1_555 1_555
C5 C4 1_555 1_555
H11 C5 1_555 1_555
C6 C1 1_555 1_555
H12 C6 1_555 1_555
C7 O1 1_555 1_555
C8 N2 1_555 1_555
C9 C8 1_555 1_555
H13 C9 1_555 1_555
C10 C9 1_555 1_555
C11 C10 1_555 1_555
H14 C11 1_555 1_555
C12 C11 1_555 1_555
H15 C12 1_555 1_555
C13 C8 1_555 1_555
H16 C13 1_555 1_555
C14 O3 1_555 1_555
C15 N3 1_555 1_555
C16 C15 1_555 1_555
H17 C16 1_555 1_555
C17 C16 1_555 1_555
C18 C17 1_555 1_555
H18 C18 1_555 1_555
C19 C18 1_555 1_555
H19 C19 1_555 1_555
C20 C15 1_555 1_555
H20 C20 1_555 1_555
C21 C17 1_555 1_555
C22 N4 1_555 1_555
C23 C22 1_555 1_555
H21 C23 1_555 1_555
C24 C23 1_555 1_555
C25 C24 1_555 1_555
H22 C25 1_555 1_555
C26 C25 1_555 1_555
H23 C26 1_555 1_555
C27 C22 1_555 1_555
H24 C27 1_555 1_555
C28 C24 1_555 1_555
O9 H25 1_555 1_555
H26 O9 1_555 1_555
O10 H27 1_555 1_555
H28 O10 1_555 1_555
Zn2B N2 1_555 1_555
Zn2_2 O5 1_555 1_555
N2B Zn2 1_555 1_555
H3B N2B 1_555 1_555
H4B N2B 1_555 1_555
O5_2 Zn2 1_555 1_555
O7B Zn2 1_555 1_555
O7 Zn2B 1_555 1_555
C3 C7 1_555 1_555
C5 C6 1_555 1_555
C10 C14 1_555 1_555
C12 C13 1_555 1_555
C19 C20 1_555 1_555
C26 C27 1_555 1_555

#END
