
#######################################################################
#
#                 Cambridge Crystallographic Data Centre
#                                CCDC 
#
#######################################################################
#
# If this CIF has been generated from an entry in the Cambridge 
# Structural Database, then it will include bibliographic, chemical, 
# crystal, experimental, refinement or atomic coordinate data resulting 
# from the CCDC's data processing and validation procedures.
#
#######################################################################

data_MEDROC
_symmetry_cell_setting           monoclinic
_symmetry_space_group_name_H-M   'P 21/c'
_symmetry_Int_Tables_number      14
_space_group_name_Hall           '-P 2ybc'
loop_
_symmetry_equiv_pos_site_id
_symmetry_equiv_pos_as_xyz
1 x,y,z
2 x,1/2-y,1/2+z
3 -x,-y,-z
4 -x,1/2+y,1/2-z
_cell_length_a                   11.1040(10)
_cell_length_b                   15.4900(10)
_cell_length_c                   14.3900(10)
_cell_angle_alpha                90
_cell_angle_beta                 106.02(2)
_cell_angle_gamma                90
_cell_volume                     2378.97
loop_
_atom_site_label
_atom_site_type_symbol
_atom_site_fract_x
_atom_site_fract_y
_atom_site_fract_z
Co1 Co 0.14247(4) 0.16816(3) 0.14076(4)
N1 N 0.3253(3) 0.1692(2) 0.1435(2)
N2 N 0.9633(3) 0.1615(2) 0.1456(3)
N3 N 0.1051(3) 0.2903(2) 0.0872(3)
O1 O 0.1784(2) 0.06491(18) 0.2276(2)
O2 O 0.2122(3) 0.18133(19) 0.3194(2)
O3 O 0.4141(5) -0.1030(3) 0.6397(3)
H1 H 0.4283 -0.1423 0.6294
C1 C 0.3973(4) 0.2402(3) 0.1570(3)
H2 H 0.3600 0.2945 0.1672
C2 C 0.5216(4) 0.2385(3) 0.1594(3)
H3 H 0.5698 0.2913 0.1694
C3 C 0.5781(4) 0.1613(3) 0.1465(3)
C4 C 0.5039(4) 0.0876(3) 0.1328(3)
H4 H 0.5395 0.0323 0.1241
C5 C 0.3805(3) 0.0943(2) 0.1315(2)
H5 H 0.3303 0.0424 0.1221
C6 C 0.8848(3) 0.1010(2) 0.0986(2)
H6 H 0.9160 0.0581 0.0624
C7 C 0.7600(4) 0.0971(3) 0.0999(3)
H7 H 0.7063 0.0520 0.0647
C8 C 0.7131(4) 0.1585(3) 0.1493(3)
C9 C 0.7966(4) 0.2194(3) 0.2016(3)
H8 H 0.7690 0.2619 0.2403
C10 C 0.9188(4) 0.2183(3) 0.1977(3)
H9 H 0.9753 0.2612 0.2346
C11 C 0.0425(5) 0.3041(3) -0.0049(4)
H10 H 0.0251 0.2550 -0.0479
C12 C -0.0003(5) 0.3842(3) -0.0413(3)
H11 H -0.0452 0.3905 -0.1087
C13 C 0.0224(4) 0.4565(3) 0.0184(3)
C14 C 0.0878(4) 0.4424(3) 0.1136(3)
H12 H 0.1072 0.4904 0.1580
C15 C 0.1275(4) 0.3601(3) 0.1458(3)
H13 H 0.1735 0.3519 0.2126
C16 C 0.2176(4) 0.1011(3) 0.3116(3)
C17 C 0.2693(4) 0.0452(3) 0.3971(3)
C18 C 0.3362(4) 0.0823(3) 0.4834(3)
H14 H 0.3501 0.1439 0.4875
C19 C 0.3846(5) 0.0313(3) 0.5639(4)
H15 H 0.4316 0.0572 0.6240
C20 C 0.3662(5) -0.0564(3) 0.5581(4)
C21 C 0.2990(5) -0.0953(3) 0.4719(3)
H16 H 0.2853 -0.1569 0.4685
C22 C 0.2519(4) -0.0439(3) 0.3926(3)
H17 H 0.2056 -0.0704 0.3326
O4 O 0.1103(3) 0.10082(19) -0.0053(2)
H18 H 0.1653 0.1141 -0.0307
H19 H 0.0434 0.0960 -0.0372
C13B C -0.0224(4) 0.5435(3) -0.0184(3)
C12B C 0.0003(5) 0.6158(3) 0.0413(3)
C11B C -0.0425(5) 0.6959(3) 0.0049(4)
N3B N -0.1051(3) 0.7097(2) -0.0872(3)
C15B C -0.1275(4) 0.6399(3) -0.1458(3)
C14B C -0.0878(4) 0.5576(3) -0.1136(3)
H12B H -0.1072 0.5096 -0.1580
H13B H -0.1735 0.6481 -0.2126
H10B H -0.0251 0.7450 0.0479
H11B H 0.0452 0.6095 0.1087
N2_2 N -0.0367(3) 0.1615(2) 0.1456(3)
Co1_2 Co 1.14247(4) 0.16816(3) 0.14076(4)
Co1B Co -0.14247(4) 0.83184(3) -0.14076(4)
N1B N -0.3253(3) 0.8308(2) -0.1435(2)
N2B N -0.9633(3) 0.8385(2) -0.1456(3)
C1B C -0.3973(4) 0.7598(3) -0.1570(3)
H2B H -0.3600 0.7055 -0.1672
C2B C -0.5216(4) 0.7615(3) -0.1594(3)
H3B H -0.5698 0.7087 -0.1694
C3B C -0.5781(4) 0.8387(3) -0.1465(3)
C4B C -0.5039(4) 0.9124(3) -0.1328(3)
H4B H -0.5395 0.9677 -0.1241
C5B C -0.3805(3) 0.9057(2) -0.1315(2)
H5B H -0.3303 0.9576 -0.1221
C6B C -0.8848(3) 0.8990(2) -0.0986(2)
H6B H -0.9160 0.9419 -0.0624
C7B C -0.7600(4) 0.9029(3) -0.0999(3)
H7B H -0.7063 0.9480 -0.0647
C8B C -0.7131(4) 0.8415(3) -0.1493(3)
C9B C -0.7966(4) 0.7806(3) -0.2016(3)
H8B H -0.7690 0.7381 -0.2403
C10B C -0.9188(4) 0.7817(3) -0.1977(3)
H9B H -0.9753 0.7388 -0.2346
N2B_2 N 0.0367(3) 0.8385(2) -0.1456(3)
O1B O -0.1784(2) 0.93509(18) -0.2276(2)
O2B O -0.2122(3) 0.81867(19) -0.3194(2)
O3B O -0.4141(5) 1.1030(3) -0.6397(3)
H1B H -0.4283 1.1423 -0.6294
C16B C -0.2176(4) 0.8989(3) -0.3116(3)
C17B C -0.2693(4) 0.9548(3) -0.3971(3)
C18B C -0.3362(4) 0.9177(3) -0.4834(3)
H14B H -0.3501 0.8561 -0.4875
C19B C -0.3846(5) 0.9687(3) -0.5639(4)
H15B H -0.4316 0.9428 -0.6240
C20B C -0.3662(5) 1.0564(3) -0.5581(4)
C21B C -0.2990(5) 1.0953(3) -0.4719(3)
H16B H -0.2853 1.1569 -0.4685
C22B C -0.2519(4) 1.0439(3) -0.3926(3)
H17B H -0.2056 1.0704 -0.3326
O4B O -0.1103(3) 0.89918(19) 0.0053(2)
H18B H -0.1653 0.8859 0.0307
H19B H -0.0434 0.9040 0.0372
Co1B_2 Co -1.14247(4) 0.83184(3) -0.14076(4)
O5 O 0.2757(3) 0.3430(2) 0.3941(3)
H20 H 0.2628 0.2915 0.3910
H21 H 0.3391 0.3468 0.4042
O6 O 0.1105(3) -0.0987(2) 0.1453(2)
H22 H 0.1676 -0.1191 0.1372
H23 H 0.1342 -0.0549 0.1682
N4 N 0.3982(5) -0.1788(3) 0.1114(4)
O7 O 0.2961(4) -0.2116(3) 0.1110(3)
O8 O 0.4737(4) -0.2248(3) 0.0869(4)
O9 O 0.4217(6) -0.1059(3) 0.1334(5)
loop_
_geom_bond_atom_site_label_1
_geom_bond_atom_site_label_2
_geom_bond_site_symmetry_1
_geom_bond_site_symmetry_2
Co1 N1 1_555 1_555
N1 C1 1_555 1_555
N2 C6 1_555 1_555
N3 Co1 1_555 1_555
O1 Co1 1_555 1_555
O2 Co1 1_555 1_555
O3 H1 1_555 1_555
C1 H2 1_555 1_555
C2 C1 1_555 1_555
H3 C2 1_555 1_555
C3 C2 1_555 1_555
C4 C3 1_555 1_555
H4 C4 1_555 1_555
C5 N1 1_555 1_555
H5 C5 1_555 1_555
C6 H6 1_555 1_555
C7 C6 1_555 1_555
H7 C7 1_555 1_555
C8 C3 1_555 1_555
C9 C8 1_555 1_555
H8 C9 1_555 1_555
C10 N2 1_555 1_555
H9 C10 1_555 1_555
C11 N3 1_555 1_555
H10 C11 1_555 1_555
C12 C11 1_555 1_555
H11 C12 1_555 1_555
C13 C12 1_555 1_555
C14 C13 1_555 1_555
H12 C14 1_555 1_555
C15 N3 1_555 1_555
H13 C15 1_555 1_555
C16 O1 1_555 1_555
C17 C16 1_555 1_555
C18 C17 1_555 1_555
H14 C18 1_555 1_555
C19 C18 1_555 1_555
H15 C19 1_555 1_555
C20 O3 1_555 1_555
C21 C20 1_555 1_555
H16 C21 1_555 1_555
C22 C17 1_555 1_555
H17 C22 1_555 1_555
O4 Co1 1_555 1_555
H18 O4 1_555 1_555
H19 O4 1_555 1_555
O5 H20 1_555 1_555
H21 O5 1_555 1_555
O6 H22 1_555 1_555
H23 O6 1_555 1_555
N4 O7 1_555 1_555
O8 N4 1_555 1_555
O9 N4 1_555 1_555
C13B C13 1_555 1_555
C12B C13B 1_555 1_555
C11B C12B 1_555 1_555
N3B C11B 1_555 1_555
C15B N3B 1_555 1_555
C14B C13B 1_555 1_555
H12B C14B 1_555 1_555
H13B C15B 1_555 1_555
H10B C11B 1_555 1_555
H11B C12B 1_555 1_555
N2_2 Co1 1_555 1_555
Co1_2 N2 1_555 1_555
Co1B N3B 1_555 1_555
N1B Co1B 1_555 1_555
N2B C6B 1_555 1_555
C1B N1B 1_555 1_555
H2B C1B 1_555 1_555
C2B C1B 1_555 1_555
H3B C2B 1_555 1_555
C3B C2B 1_555 1_555
C4B C3B 1_555 1_555
H4B C4B 1_555 1_555
C5B N1B 1_555 1_555
H5B C5B 1_555 1_555
C6B H6B 1_555 1_555
C7B C6B 1_555 1_555
H7B C7B 1_555 1_555
C8B C3B 1_555 1_555
C9B C8B 1_555 1_555
H8B C9B 1_555 1_555
C10B N2B 1_555 1_555
H9B C10B 1_555 1_555
N2B_2 Co1B 1_555 1_555
O1B Co1B 1_555 1_555
O2B Co1B 1_555 1_555
O3B H1B 1_555 1_555
C16B O1B 1_555 1_555
C17B C16B 1_555 1_555
C18B C17B 1_555 1_555
H14B C18B 1_555 1_555
C19B C18B 1_555 1_555
H15B C19B 1_555 1_555
C20B O3B 1_555 1_555
C21B C20B 1_555 1_555
H16B C21B 1_555 1_555
C22B C17B 1_555 1_555
H17B C22B 1_555 1_555
O4B Co1B 1_555 1_555
H18B O4B 1_555 1_555
H19B O4B 1_555 1_555
Co1B_2 N2B 1_555 1_555
O2 C16 1_555 1_555
C4 C5 1_555 1_555
C7 C8 1_555 1_555
C9 C10 1_555 1_555
C14 C15 1_555 1_555
C19 C20 1_555 1_555
C21 C22 1_555 1_555
C15B C14B 1_555 1_555
C4B C5B 1_555 1_555
C7B C8B 1_555 1_555
C9B C10B 1_555 1_555
O2B C16B 1_555 1_555
C19B C20B 1_555 1_555
C21B C22B 1_555 1_555

#END
