
#######################################################################
#
#                 Cambridge Crystallographic Data Centre
#                                CCDC 
#
#######################################################################
#
# If this CIF has been generated from an entry in the Cambridge 
# Structural Database, then it will include bibliographic, chemical, 
# crystal, experimental, refinement or atomic coordinate data resulting 
# from the CCDC's data processing and validation procedures.
#
#######################################################################

data_MEDRIW
_symmetry_cell_setting           monoclinic
_symmetry_space_group_name_H-M   'P 21/c'
_symmetry_Int_Tables_number      14
_space_group_name_Hall           '-P 2ybc'
loop_
_symmetry_equiv_pos_site_id
_symmetry_equiv_pos_as_xyz
1 x,y,z
2 x,1/2-y,1/2+z
3 -x,-y,-z
4 -x,1/2+y,1/2-z
_cell_length_a                   11.023(3)
_cell_length_b                   15.398(8)
_cell_length_c                   14.315(8)
_cell_angle_alpha                90
_cell_angle_beta                 106.02
_cell_angle_gamma                90
_cell_volume                     2335.36
loop_
_atom_site_label
_atom_site_type_symbol
_atom_site_fract_x
_atom_site_fract_y
_atom_site_fract_z
Cu1 Cu 0.14247(3) 0.16817(2) 0.14087(3)
N1 N 0.3254(2) 0.16933(16) 0.14284(18)
N2 N 0.9633(2) 0.16155(16) 0.14646(18)
N3 N 0.1050(2) 0.29113(16) 0.08745(19)
O1 O 0.17880(19) 0.06489(13) 0.22800(15)
O2 O 0.2128(2) 0.18088(14) 0.31948(17)
O3 O 0.4146(4) -0.1025(2) 0.6397(2)
H1 H 0.4288 -0.1418 0.6295
C1 C 0.3977(3) 0.2400(2) 0.1574(2)
H2 H 0.3604 0.2942 0.1675
C2 C 0.5220(3) 0.2390(2) 0.1591(3)
H3 H 0.5702 0.2918 0.1691
C3 C 0.5782(3) 0.1616(2) 0.1468(2)
C4 C 0.5039(3) 0.0878(2) 0.1327(2)
H4 H 0.5394 0.0325 0.1239
C5 C 0.37959(19) 0.09410(14) 0.13131(17)
H5 H 0.3294 0.0422 0.1219
C6 C 0.88395(19) 0.10077(14) 0.09839(17)
H6 H 0.0849 0.9422 -0.0622
C7 C 0.7596(3) 0.0969(2) 0.0986(3)
H7 H 0.2941 0.9481 -0.0633
C8 C 0.7122(3) 0.15838(19) 0.1496(2)
C9 C 0.7963(3) 0.2190(2) 0.2017(2)
H8 H 0.7687 0.2615 0.2404
C10 C 0.0816(3) 0.7813(2) -0.1984(2)
H9 H 0.0252 0.7384 -0.2353
C11 C 0.0422(4) 0.3042(2) -0.0044(3)
H10 H 0.0248 0.2551 -0.0474
C12 C 0.0006(4) 0.3842(2) -0.0408(3)
H11 H -0.0443 0.3905 -0.1082
C13 C 0.0224(3) 0.45618(19) 0.0185(2)
C14 C 0.0893(3) 0.4424(2) 0.1138(2)
H12 H 0.1087 0.4904 0.1582
C15 C 0.1277(3) 0.3603(2) 0.1449(2)
H13 H 0.1737 0.3522 0.2118
C16 C 0.2175(3) 0.1009(2) 0.3115(2)
C17 C 0.2693(3) 0.0453(2) 0.3965(2)
C18 C 0.3367(3) 0.0819(2) 0.4836(2)
H14 H 0.3505 0.1435 0.4877
C19 C 0.3849(4) 0.0312(2) 0.5641(3)
H15 H 0.4319 0.0571 0.6242
C20 C 0.3664(4) -0.0568(3) 0.5587(3)
C21 C 0.2992(4) -0.0944(2) 0.4728(3)
H16 H 0.2855 -0.1560 0.4694
C22 C 0.2514(3) -0.0434(2) 0.3924(2)
H17 H 0.2051 -0.0699 0.3324
O4 O 0.1097(2) 0.10048(14) -0.00499(16)
H18 H 0.1647 0.1138 -0.0304
H19 H 0.0428 0.0957 -0.0368
N2_2 N -0.0367(2) 0.16155(16) 0.14646(18)
Cu1_2 Cu 1.14247(3) 0.16817(2) 0.14087(3)
Cu1B Cu 0.85753(3) 0.83183(2) -0.14087(3)
N1B N 0.6746(2) 0.83067(16) -0.14284(18)
C1B C 0.6023(3) 0.7600(2) -0.1574(2)
H2B H 0.6396 0.7058 -0.1675
C2B C 0.4780(3) 0.7610(2) -0.1591(3)
H3B H 0.4298 0.7082 -0.1691
C3B C 0.4218(3) 0.8384(2) -0.1468(2)
C4B C 0.4961(3) 0.9122(2) -0.1327(2)
H4B H 0.4606 0.9675 -0.1239
C5B C 0.62041(19) 0.90590(14) -0.13131(17)
H5B H 0.6706 0.9578 -0.1219
C8B C 0.2878(3) 0.84162(19) -0.1496(2)
C7B C 0.2404(3) 0.9031(2) -0.0986(3)
C6B C 0.11605(19) 0.89923(14) -0.09839(17)
N2B N 0.0367(2) 0.83845(16) -0.14646(18)
Cu1B_2 Cu -0.14247(3) 0.83183(2) -0.14087(3)
N1B_2 N -0.3254(2) 0.83067(16) -0.14284(18)
N3B N -0.1050(2) 0.70887(16) -0.08745(19)
O1B O -0.17880(19) 0.93511(13) -0.22800(15)
C16B C -0.2175(3) 0.8991(2) -0.3115(2)
O2B O -0.2128(2) 0.81912(14) -0.31948(17)
O4B O -0.1097(2) 0.89952(14) 0.00499(16)
H18B H -0.1647 0.8862 0.0304
H19B H -0.0428 0.9043 0.0368
C17B C -0.2693(3) 0.9547(2) -0.3965(2)
C18B C -0.3367(3) 0.9181(2) -0.4836(2)
H14B H -0.3505 0.8565 -0.4877
C19B C -0.3849(4) 0.9688(2) -0.5641(3)
H15B H -0.4319 0.9429 -0.6242
C20B C -0.3664(4) 1.0568(3) -0.5587(3)
O3B O -0.4146(4) 1.1025(2) -0.6397(2)
H1B H -0.4288 1.1418 -0.6295
C21B C -0.2992(4) 1.0944(2) -0.4728(3)
H16B H -0.2855 1.1560 -0.4694
C22B C -0.2514(3) 1.0434(2) -0.3924(2)
H17B H -0.2051 1.0699 -0.3324
C9B C 0.2037(3) 0.7810(2) -0.2017(2)
H8B H 0.2313 0.7385 -0.2404
C10B C 0.9184(3) 0.2187(2) 0.1984(2)
H9B H 0.9748 0.2616 0.2353
H6B H 0.9151 0.0578 0.0622
H7B H 0.7059 0.0519 0.0633
C13B C -0.0224(3) 0.54382(19) -0.0185(2)
C11B C -0.0422(4) 0.6958(2) 0.0044(3)
C15B C -0.1277(3) 0.6397(2) -0.1449(2)
C12B C -0.0006(4) 0.6158(2) 0.0408(3)
C14B C -0.0893(3) 0.5576(2) -0.1138(2)
H10B H -0.0248 0.7449 0.0474
H13B H -0.1737 0.6478 -0.2118
H11B H 0.0443 0.6095 0.1082
H12B H -0.1087 0.5096 -0.1582
O5 O -0.7244(3) 0.34314(18) 0.3942(2)
H20 H -0.7373 0.2916 0.3911
H21 H -0.6610 0.3469 0.4043
O6 O -0.8889(2) -0.09808(17) 0.14511(18)
H22 H -0.8318 -0.1185 0.1370
H23 H -0.8652 -0.0543 0.1680
N4 N -0.6022(4) -0.1793(2) 0.1109(3)
O7 O -0.7032(3) -0.2120(2) 0.1115(3)
O8 O -0.5273(3) -0.2253(3) 0.0862(3)
O9 O -0.5797(5) -0.1065(2) 0.1332(5)
loop_
_geom_bond_atom_site_label_1
_geom_bond_atom_site_label_2
_geom_bond_site_symmetry_1
_geom_bond_site_symmetry_2
Cu1 N1 1_555 1_555
N1 C1 1_555 1_555
N2 C6 1_555 1_555
N3 Cu1 1_555 1_555
O1 Cu1 1_555 1_555
O2 Cu1 1_555 1_555
O3 H1 1_555 1_555
C1 H2 1_555 1_555
C2 C1 1_555 1_555
H3 C2 1_555 1_555
C3 C2 1_555 1_555
C4 C3 1_555 1_555
H4 C4 1_555 1_555
C5 N1 1_555 1_555
H5 C5 1_555 1_555
C6 C7 1_555 1_555
H6 C6B 1_555 1_555
C7 C8 1_555 1_555
H7 C7B 1_555 1_555
C8 C3 1_555 1_555
C9 C8 1_555 1_555
H8 C9 1_555 1_555
C10 H9 1_555 1_555
C11 N3 1_555 1_555
H10 C11 1_555 1_555
C12 C11 1_555 1_555
H11 C12 1_555 1_555
C13 C12 1_555 1_555
C14 C13 1_555 1_555
H12 C14 1_555 1_555
C15 N3 1_555 1_555
H13 C15 1_555 1_555
C16 O1 1_555 1_555
C17 C16 1_555 1_555
C18 C17 1_555 1_555
H14 C18 1_555 1_555
C19 C18 1_555 1_555
H15 C19 1_555 1_555
C20 O3 1_555 1_555
C21 C20 1_555 1_555
H16 C21 1_555 1_555
C22 C17 1_555 1_555
H17 C22 1_555 1_555
O4 Cu1 1_555 1_555
H18 O4 1_555 1_555
H19 O4 1_555 1_555
O5 H20 1_555 1_555
H21 O5 1_555 1_555
O6 H22 1_555 1_555
H23 O6 1_555 1_555
N4 O7 1_555 1_555
O8 N4 1_555 1_555
O9 N4 1_555 1_555
N2_2 Cu1 1_555 1_555
Cu1_2 N2 1_555 1_555
Cu1B N1B 1_555 1_555
N1B C1B 1_555 1_555
C1B H2B 1_555 1_555
C2B C1B 1_555 1_555
H3B C2B 1_555 1_555
C3B C2B 1_555 1_555
C4B C3B 1_555 1_555
H4B C4B 1_555 1_555
C5B N1B 1_555 1_555
H5B C5B 1_555 1_555
C8B C3B 1_555 1_555
C7B C8B 1_555 1_555
C6B C7B 1_555 1_555
N2B C10 1_555 1_555
Cu1B_2 N2B 1_555 1_555
N1B_2 Cu1B_2 1_555 1_555
N3B Cu1B_2 1_555 1_555
O1B Cu1B_2 1_555 1_555
C16B O1B 1_555 1_555
O2B Cu1B_2 1_555 1_555
O4B Cu1B_2 1_555 1_555
H18B O4B 1_555 1_555
H19B O4B 1_555 1_555
C17B C16B 1_555 1_555
C18B C17B 1_555 1_555
H14B C18B 1_555 1_555
C19B C18B 1_555 1_555
H15B C19B 1_555 1_555
C20B C19B 1_555 1_555
O3B C20B 1_555 1_555
H1B O3B 1_555 1_555
C21B C20B 1_555 1_555
H16B C21B 1_555 1_555
C22B C17B 1_555 1_555
H17B C22B 1_555 1_555
C9B C10 1_555 1_555
H8B C9B 1_555 1_555
C10B N2 1_555 1_555
H9B C10B 1_555 1_555
H6B C6 1_555 1_555
H7B C7 1_555 1_555
C13B C13 1_555 1_555
C11B N3B 1_555 1_555
C15B N3B 1_555 1_555
C12B C13B 1_555 1_555
C14B C13B 1_555 1_555
H10B C11B 1_555 1_555
H13B C15B 1_555 1_555
H11B C12B 1_555 1_555
H12B C14B 1_555 1_555
O2 C16 1_555 1_555
C4 C5 1_555 1_555
C9 C10B 1_555 1_555
C14 C15 1_555 1_555
C19 C20 1_555 1_555
C21 C22 1_555 1_555
C4B C5B 1_555 1_555
C8B C9B 1_555 1_555
C6B N2B 1_555 1_555
C16B O2B 1_555 1_555
C21B C22B 1_555 1_555
C11B C12B 1_555 1_555
C15B C14B 1_555 1_555

#END
