
#######################################################################
#
#                 Cambridge Crystallographic Data Centre
#                                CCDC 
#
#######################################################################
#
# If this CIF has been generated from an entry in the Cambridge 
# Structural Database, then it will include bibliographic, chemical, 
# crystal, experimental, refinement or atomic coordinate data resulting 
# from the CCDC's data processing and validation procedures.
#
#######################################################################

data_MEDVUO
_symmetry_cell_setting           monoclinic
_symmetry_space_group_name_H-M   'P 21'
_symmetry_Int_Tables_number      4
_space_group_name_Hall           'P 2yb'
loop_
_symmetry_equiv_pos_site_id
_symmetry_equiv_pos_as_xyz
1 x,y,z
2 -x,1/2+y,-z
_cell_length_a                   10.2700(17)
_cell_length_b                   12.8186(16)
_cell_length_c                   20.588(3)
_cell_angle_alpha                90
_cell_angle_beta                 93.281(8)
_cell_angle_gamma                90
_cell_volume                     2705.91
loop_
_atom_site_label
_atom_site_type_symbol
_atom_site_fract_x
_atom_site_fract_y
_atom_site_fract_z
Cu1 Cu 0.5086(4) 0.3148(4) 0.65443(19)
Cu2 Cu 0.4870(4) 0.4657(3) 0.7561(2)
Cu3 Cu 0.5048(3) 0.8156(3) 0.84187(17)
Cu4 Cu 0.4885(4) -0.0380(3) 0.7370(2)
Cu5 Cu 0.5345(4) 0.1760(3) 0.90672(19)
Cu6 Cu 0.4902(5) 0.6699(3) 0.5902(2)
Br1 Br 0.6708(3) 0.2231(3) 0.60096(16)
Br2 Br 0.3226(4) 0.4824(3) 0.83204(18)
Br3 Br 0.6626(3) 0.7195(2) 0.90805(15)
Br4 Br 0.3190(4) -0.0182(3) 0.65320(17)
Br5 Br 0.5145(3) 0.1908(2) 0.77201(15)
Br6 Br 0.6714(3) 0.3191(3) 0.95072(16)
Br7 Br 0.4837(3) 0.6945(3) 0.72152(16)
Br8 Br 0.6366(4) 0.7975(3) 0.55086(17)
O1 O 0.375(2) 0.4181(17) 0.6780(11)
C1 C 0.243(3) 0.371(3) 0.686(2)
H1 H 0.2225 0.3693 0.7323
H2 H 0.1745 0.4103 0.6609
C2 C 0.254(3) 0.264(3) 0.6602(18)
H3 H 0.2506 0.2109 0.6955
C3 C 0.137(4) 0.255(4) 0.6110(19)
H4 H 0.1336 0.1852 0.5899
H5 H 0.1378 0.3096 0.5773
C4 C 0.024(3) 0.270(5) 0.656(3)
H6 H 0.0367 0.3354 0.6801
H7 H 0.0233 0.2116 0.6870
H8 H -0.0584 0.2719 0.6301
N1 N 0.363(2) 0.242(2) 0.6170(12)
H9 H 0.3421 0.2652 0.5754
H10 H 0.3793 0.1714 0.6155
O2 O 0.620(2) 0.4229(16) 0.6921(11)
C5 C 0.742(3) 0.396(3) 0.7333(16)
H11 H 0.7313 0.3251 0.7518
H12 H 0.8163 0.3934 0.7049
C6 C 0.773(3) 0.471(2) 0.7880(14)
H13 H 0.8379 0.4400 0.8206
C7 C 0.825(3) 0.576(2) 0.7616(16)
H14 H 0.7563 0.6059 0.7313
H15 H 0.8383 0.6247 0.7985
C8 C 0.953(3) 0.569(4) 0.726(2)
H16 H 1.0145 0.5227 0.7499
H17 H 0.9913 0.6386 0.7229
H18 H 0.9345 0.5411 0.6819
N2 N 0.643(2) 0.489(2) 0.8184(12)
H19 H 0.6406 0.5564 0.8338
H20 H 0.6373 0.4450 0.8534
O3 O 0.3805(17) -0.0737(13) 0.8070(9)
C9 C 0.248(2) -0.123(2) 0.8022(12)
H21 H 0.2398 -0.1688 0.7635
H22 H 0.1802 -0.0683 0.7977
C10 C 0.232(2) -0.185(2) 0.8625(13)
H23 H 0.2298 -0.1364 0.9004
C11 C 0.099(3) -0.243(3) 0.8544(15)
H24 H 0.0285 -0.1905 0.8481
H25 H 0.0982 -0.2866 0.8147
C12 C 0.071(3) -0.312(3) 0.9128(16)
H26 H 0.1398 -0.3649 0.9187
H27 H -0.0134 -0.3460 0.9051
H28 H 0.0703 -0.2687 0.9521
N3 N 0.350(2) -0.2562(18) 0.8726(13)
H29 H 0.3360 -0.3173 0.8498
H30 H 0.3633 -0.2723 0.9160
O4 O 0.6170(19) -0.0833(14) 0.8053(9)
C13 C 0.739(2) -0.112(2) 0.7725(13)
H31 H 0.8139 -0.1155 0.8050
H32 H 0.7287 -0.1808 0.7512
C14 C 0.763(2) -0.030(2) 0.7227(13)
H33 H 0.7838 0.0379 0.7455
C15 C 0.885(3) -0.067(3) 0.6887(17)
H34 H 0.9614 -0.0695 0.7204
H35 H 0.8702 -0.1381 0.6710
C16 C 0.912(4) 0.009(4) 0.633(2)
H36 H 0.8908 0.0801 0.6467
H37 H 0.8574 -0.0099 0.5945
H38 H 1.0040 0.0050 0.6238
N4 N 0.634(2) -0.019(2) 0.6832(10)
H39 H 0.6305 -0.0679 0.6504
H40 H 0.6295 0.0460 0.6643
O5 O 0.4062(18) 0.0516(15) 0.9041(11)
H41 H 0.397(5) 0.003(17) 0.874(11)
C17 C 0.273(3) 0.091(2) 0.9182(16)
H42 H 0.2051 0.0472 0.8954
H43 H 0.2606 0.0871 0.9655
C18 C 0.259(2) 0.202(2) 0.8956(14)
H44 H 0.2581 0.2021 0.8471
C19 C 0.130(3) 0.252(3) 0.9158(16)
H45 H 0.1159 0.2342 0.9617
H46 H 0.1361 0.3286 0.9122
C20 C 0.014(3) 0.213(4) 0.872(2)
H47 H 0.0176 0.2435 0.8289
H48 H -0.0675 0.2329 0.8913
H49 H 0.0182 0.1365 0.8689
N5 N 0.384(2) 0.2524(18) 0.9219(12)
H50 H 0.3793 0.2618 0.9660
H51 H 0.3903 0.3172 0.9032
O6 O 0.575(2) 0.084(2) 1.0154(10)
H52 H 0.5102 0.0929 0.9856
C21 C 0.673(3) 0.001(3) 0.9978(19)
H53 H 0.7204 -0.0241 1.0378
H54 H 0.6263 -0.0585 0.9767
C22 C 0.767(3) 0.046(3) 0.9527(14)
H55 H 0.8045 0.1104 0.9738
C23 C 0.882(3) -0.026(3) 0.9378(16)
H56 H 0.9238 0.0008 0.8990
H57 H 0.8483 -0.0967 0.9274
C24 C 0.986(4) -0.033(4) 0.995(2)
H58 H 1.0509 0.0222 0.9914
H59 H 1.0299 -0.1014 0.9941
H60 H 0.9441 -0.0259 1.0365
N6 N 0.682(2) 0.0805(18) 0.8943(11)
H61 H 0.6481 0.0215 0.8742
H62 H 0.7348 0.1119 0.8656
O7 O 0.339(3) 0.5578(18) 0.5885(16)
H63 H 0.350(5) 0.507(4) 0.616(3)
C25 C 0.225(4) 0.620(3) 0.613(2)
H64 H 0.1463 0.5759 0.6162
H65 H 0.2474 0.6531 0.6554
C26 C 0.207(3) 0.699(2) 0.5597(18)
H66 H 0.1914 0.6666 0.5158
C27 C 0.096(3) 0.770(3) 0.577(2)
H67 H 0.1224 0.8124 0.6159
H68 H 0.0190 0.7278 0.5876
C28 C 0.060(5) 0.842(4) 0.520(3)
H69 H -0.0223 0.8182 0.4978
H70 H 0.1291 0.8402 0.4890
H71 H 0.0489 0.9134 0.5355
N7 N 0.334(3) 0.758(2) 0.5663(14)
H72 H 0.3274 0.8092 0.5975
H73 H 0.3471 0.7914 0.5275
O8 O 0.616(3) 0.561(2) 0.6001(13)
H74 H 0.667(11) 0.555(11) 0.635(2)
C29 C 0.688(4) 0.524(3) 0.547(2)
H75 H 0.6329 0.5281 0.5064
H76 H 0.7145 0.4514 0.5546
H77 H 0.7658 0.5673 0.5428
Cu3_2 Cu 0.5048(3) -0.1844(3) 0.84187(17)
Cu4_2 Cu 0.4885(4) 0.9620(3) 0.7370(2)
O3_2 O 0.3805(17) 0.9263(13) 0.8070(9)
N3_2 N 0.350(2) 0.7438(18) 0.8726(13)
H29_2 H 0.3360 0.6827 0.8498
H30_2 H 0.3633 0.7277 0.9160
O4_2 O 0.6170(19) 0.9167(14) 0.8053(9)
loop_
_geom_bond_atom_site_label_1
_geom_bond_atom_site_label_2
_geom_bond_site_symmetry_1
_geom_bond_site_symmetry_2
Cu1 Br1 1_555 1_555
Cu2 Br2 1_555 1_555
Cu3 Br3 1_555 1_555
Cu4 Br4 1_555 1_555
Cu5 Br5 1_555 1_555
Cu6 Br7 1_555 1_555
Br5 Cu1 1_555 1_555
Br6 Cu5 1_555 1_555
Br7 Cu2 1_555 1_555
Br8 Cu6 1_555 1_555
O1 Cu1 1_555 1_555
C1 O1 1_555 1_555
H1 C1 1_555 1_555
H2 C1 1_555 1_555
C2 C1 1_555 1_555
H3 C2 1_555 1_555
C3 C2 1_555 1_555
H4 C3 1_555 1_555
H5 C3 1_555 1_555
C4 C3 1_555 1_555
H6 C4 1_555 1_555
H7 C4 1_555 1_555
H8 C4 1_555 1_555
N1 Cu1 1_555 1_555
H9 N1 1_555 1_555
H10 N1 1_555 1_555
O2 Cu1 1_555 1_555
C5 O2 1_555 1_555
H11 C5 1_555 1_555
H12 C5 1_555 1_555
C6 C5 1_555 1_555
H13 C6 1_555 1_555
C7 C6 1_555 1_555
H14 C7 1_555 1_555
H15 C7 1_555 1_555
C8 C7 1_555 1_555
H16 C8 1_555 1_555
H17 C8 1_555 1_555
H18 C8 1_555 1_555
N2 Cu2 1_555 1_555
H19 N2 1_555 1_555
H20 N2 1_555 1_555
O3 Cu4 1_555 1_555
C9 O3 1_555 1_555
H21 C9 1_555 1_555
H22 C9 1_555 1_555
C10 C9 1_555 1_555
H23 C10 1_555 1_555
C11 C10 1_555 1_555
H24 C11 1_555 1_555
H25 C11 1_555 1_555
C12 C11 1_555 1_555
H26 C12 1_555 1_555
H27 C12 1_555 1_555
H28 C12 1_555 1_555
N3 C10 1_555 1_555
H29 N3 1_555 1_555
H30 N3 1_555 1_555
O4 Cu4 1_555 1_555
C13 O4 1_555 1_555
H31 C13 1_555 1_555
H32 C13 1_555 1_555
C14 C13 1_555 1_555
H33 C14 1_555 1_555
C15 C14 1_555 1_555
H34 C15 1_555 1_555
H35 C15 1_555 1_555
C16 C15 1_555 1_555
H36 C16 1_555 1_555
H37 C16 1_555 1_555
H38 C16 1_555 1_555
N4 Cu4 1_555 1_555
H39 N4 1_555 1_555
H40 N4 1_555 1_555
O5 Cu5 1_555 1_555
H41 O5 1_555 1_555
C17 O5 1_555 1_555
H42 C17 1_555 1_555
H43 C17 1_555 1_555
C18 C17 1_555 1_555
H44 C18 1_555 1_555
C19 C18 1_555 1_555
H45 C19 1_555 1_555
H46 C19 1_555 1_555
C20 C19 1_555 1_555
H47 C20 1_555 1_555
H48 C20 1_555 1_555
H49 C20 1_555 1_555
N5 Cu5 1_555 1_555
H50 N5 1_555 1_555
H51 N5 1_555 1_555
O6 H52 1_555 1_555
C21 O6 1_555 1_555
H53 C21 1_555 1_555
H54 C21 1_555 1_555
C22 C21 1_555 1_555
H55 C22 1_555 1_555
C23 C22 1_555 1_555
H56 C23 1_555 1_555
H57 C23 1_555 1_555
C24 C23 1_555 1_555
H58 C24 1_555 1_555
H59 C24 1_555 1_555
H60 C24 1_555 1_555
N6 Cu5 1_555 1_555
H61 N6 1_555 1_555
H62 N6 1_555 1_555
O7 Cu6 1_555 1_555
H63 O7 1_555 1_555
C25 O7 1_555 1_555
H64 C25 1_555 1_555
H65 C25 1_555 1_555
C26 C25 1_555 1_555
H66 C26 1_555 1_555
C27 C26 1_555 1_555
H67 C27 1_555 1_555
H68 C27 1_555 1_555
C28 C27 1_555 1_555
H69 C28 1_555 1_555
H70 C28 1_555 1_555
H71 C28 1_555 1_555
N7 Cu6 1_555 1_555
H72 N7 1_555 1_555
H73 N7 1_555 1_555
O8 Cu6 1_555 1_555
H74 O8 1_555 1_555
C29 O8 1_555 1_555
H75 C29 1_555 1_555
H76 C29 1_555 1_555
H77 C29 1_555 1_555
Cu3_2 O3 1_555 1_555
Cu4_2 O3_2 1_555 1_555
O3_2 Cu3 1_555 1_555
N3_2 Cu3 1_555 1_555
H29_2 N3_2 1_555 1_555
H30_2 N3_2 1_555 1_555
O4_2 Cu3 1_555 1_555
Cu2 O1 1_555 1_555
Cu2 O2 1_555 1_555
Cu3 Br7 1_555 1_555
Cu4 Br5 1_555 1_555
C2 N1 1_555 1_555
C6 N2 1_555 1_555
N3 Cu3_2 1_555 1_555
O4 Cu3_2 1_555 1_555
C14 N4 1_555 1_555
C18 N5 1_555 1_555
C22 N6 1_555 1_555
C26 N7 1_555 1_555
Cu4_2 O4_2 1_555 1_555

#END
