
#######################################################################
#
#                 Cambridge Crystallographic Data Centre
#                                CCDC 
#
#######################################################################
#
# If this CIF has been generated from an entry in the Cambridge 
# Structural Database, then it will include bibliographic, chemical, 
# crystal, experimental, refinement or atomic coordinate data resulting 
# from the CCDC's data processing and validation procedures.
#
#######################################################################

data_MEFHUC
_symmetry_cell_setting           rhombohedral
_symmetry_space_group_name_H-M   'R -3'
_symmetry_Int_Tables_number      148
_space_group_name_Hall           '-R 3'
loop_
_symmetry_equiv_pos_site_id
_symmetry_equiv_pos_as_xyz
1 x,y,z
2 -y,x-y,z
3 -x+y,-x,z
4 2/3+x,1/3+y,1/3+z
5 2/3-y,1/3+x-y,1/3+z
6 2/3-x+y,1/3-x,1/3+z
7 1/3+x,2/3+y,2/3+z
8 1/3-y,2/3+x-y,2/3+z
9 1/3-x+y,2/3-x,2/3+z
10 -x,-y,-z
11 y,-x+y,-z
12 x-y,x,-z
13 1/3-x,2/3-y,2/3-z
14 1/3+y,2/3-x+y,2/3-z
15 1/3+x-y,2/3+x,2/3-z
16 2/3-x,1/3-y,1/3-z
17 2/3+y,1/3-x+y,1/3-z
18 2/3+x-y,1/3+x,1/3-z
_cell_length_a                   36.061(3)
_cell_length_b                   36.061(3)
_cell_length_c                   24.163(3)
_cell_angle_alpha                90
_cell_angle_beta                 90
_cell_angle_gamma                120
_cell_volume                     27211.8
loop_
_atom_site_label
_atom_site_type_symbol
_atom_site_fract_x
_atom_site_fract_y
_atom_site_fract_z
Cl1 Cl 0.2724(2) 0.7938(2) 0.6101(3)
Cl2 Cl 0.2197(2) 0.8074(2) 0.5373(3)
Cl3 Cl 0.1978(4) 0.7248(4) 0.5617(5)
C39 C 0.2209(5) 0.7753(5) 0.5891(8)
H23 H 0.2039 0.7754 0.6206
Cl4 Cl 0.0762(2) 0.7381(2) 0.1825(2)
Cl5 Cl 0.0077(3) 0.6580(3) 0.1444(4)
Cl6 Cl 0.0876(4) 0.6645(4) 0.1943(5)
C40 C 0.0459(9) 0.6766(9) 0.1973(12)
H24 H 0.0323 0.6701 0.2339
O1 O 0.4615(2) 1.4059(2) 0.4857(3)
O2 O 0.52333(18) 1.08652(18) 0.4562(3)
O3 O 0.4630(2) 1.0663(2) 0.5317(3)
O4 O 0.49417(17) 1.00512(16) 0.5544(2)
O5 O 0.4150(2) 1.0153(2) 0.5874(3)
O6 O 0.5672(3) 1.08445(19) 0.3933(3)
O7 O 0.4280(2) 1.4239(2) 0.5476(3)
O8 O 0.3263(3) 1.2011(3) 0.9954(3)
O9 O 0.4383(3) 1.3738(3) 0.3640(5)
O10 O 0.3792(4) 1.1911(4) 1.0126(4)
O11 O 0.3758(3) 1.0353(2) 0.6601(4)
H1 H 0.3833 1.0197 0.6448
O12 O 0.3164(4) 1.2278(5) 0.9007(5)
H2 H 0.3138 1.2262 0.9345
O13 O 0.4715(3) 1.3419(3) 0.5013(4)
H3 H 0.4744 1.3632 0.4851
C1 C 0.6355(3) 1.2171(2) 0.3827(4)
H4 H 0.6603 1.2308 0.3613
C2 C 0.5769(2) 1.1516(2) 0.4182(3)
C3 C 0.5619(3) 1.1754(3) 0.4458(4)
C4 C 0.3994(3) 1.2120(3) 0.6293(4)
H5 H 0.4021 1.2114 0.5911
C5 C 0.4218(3) 1.0835(3) 0.5895(4)
C6 C 0.5545(3) 1.1044(3) 0.4235(3)
C7 C 0.6137(3) 1.1729(3) 0.3866(4)
C8 C 0.4392(4) 1.1249(3) 0.5665(4)
H6 H 0.4563 1.1320 0.5351
C9 C 0.4428(3) 1.3321(3) 0.5452(4)
C10 C 0.6445(2) 1.2882(2) 0.4090(3)
C11 C 0.6209(2) 1.2412(2) 0.4102(3)
C12 C 0.5834(3) 1.2190(3) 0.4422(4)
H7 H 0.5730 1.2343 0.4613
C13 C 0.4397(3) 1.3989(3) 0.5282(5)
C14 C 0.6888(2) 1.3108(2) 0.4082(4)
C15 C 0.4343(3) 1.0533(3) 0.5685(4)
C16 C 0.4311(4) 1.1549(3) 0.5902(4)
H8 H 0.4444 1.1825 0.5760
C17 C 0.4274(3) 1.3592(3) 0.5613(4)
C18 C 0.3944(3) 1.0743(3) 0.6336(4)
C19 C 0.3835(4) 1.2087(4) 0.7423(5)
C20 C 0.4342(3) 1.2970(3) 0.5753(4)
H9 H 0.4458 1.2803 0.5642
C21 C 0.4087(3) 1.2854(3) 0.6221(5)
C22 C 0.4040(4) 1.1448(3) 0.6340(4)
C23 C 0.3982(3) 1.2471(3) 0.6544(4)
C24 C 0.3966(3) 1.1784(4) 0.6614(5)
C25 C 0.3862(4) 1.1042(3) 0.6550(4)
H10 H 0.3678 1.0968 0.6851
C26 C 0.3883(3) 1.2437(4) 0.7101(5)
H11 H 0.3845 1.2648 0.7268
C27 C 0.3912(3) 1.3124(3) 0.6375(5)
H12 H 0.3735 1.3059 0.6683
C28 C 0.3877(4) 1.1763(4) 0.7152(4)
H13 H 0.3841 1.1528 0.7355
C29 C 0.4115(4) 1.3344(4) 0.3757(7)
H14 H 0.3998 1.3268 0.4109
N1 N 0.4013(4) 1.3059(5) 0.3378(7)
C30 C 0.3564(5) 1.1993(5) 0.9805(6)
C31 C 0.4013(3) 1.3477(3) 0.6055(6)
H15 H 0.3895 1.3646 0.6149
C32 C 0.3427(3) 1.2152(4) 0.8856(5)
C33 C 0.3647(4) 1.2022(4) 0.9173(6)
C34 C 0.3978(6) 1.1946(8) 0.8391(5)
H16 H 0.4169 1.1873 0.8235
C35 C 0.3916(4) 1.1894(6) 0.9003(8)
H17 H 0.4047 1.1787 0.9233
C36 C 0.3768(7) 1.2589(10) 0.3556(15)
H18 H 0.3714 1.2409 0.3238
H19 H 0.3935 1.2536 0.3820
H20 H 0.3501 1.2526 0.3721
C37 C 0.3499(5) 1.2191(6) 0.8257(6)
H21 H 0.3354 1.2282 0.8025
C38 C 0.3793(4) 1.2085(5) 0.8053(5)
O14 O 0.5256(3) 1.1558(3) 0.4792(5)
H22 H 0.5151 1.1297 0.4777
C41 C 0.4232(10) 1.3160(9) 0.2850(11)
H25 H 0.4113 1.2908 0.2623
H26 H 0.4199 1.3378 0.2667
H27 H 0.4531 1.3261 0.2909
Zn1 Zn 0.48233(3) 1.02922(3) 0.48560(4)
Zn2 Zn 0.46397(4) 1.43633(3) 0.40679(4)
O1J O 0.4059(2) 0.9444(3) 0.5143(3)
O1K O 0.0556(3) 1.4615(2) 0.5143(3)
O1B O -0.0556(3) 0.5385(2) 0.4857(3)
O2A O 0.91348(18) 1.43681(25) 0.4562(3)
O2B O 0.56319(25) 1.47667(18) 0.4562(3)
O2I O 0.47667(18) 0.91348(18) 0.5438(3)
O3J O 0.0663(2) 0.6033(3) 0.4683(3)
O3K O 0.3967(3) 1.4630(2) 0.4683(3)
O3I O 0.5370(2) 0.9337(2) 0.4683(3)
O3A O 0.9337(2) 1.3967(3) 0.5317(3)
O4I O 0.50583(17) 0.99488(16) 0.4456(2)
O4K O 0.48905(23) 1.49417(17) 0.4456(2)
O4A O 0.99488(16) 1.48905(23) 0.5544(2)
O4J O 1.00512(16) 1.51095(23) 0.4456(2)
O4J_2 O 0.00512(16) 0.51095(23) 0.4456(2)
O5J O 0.0153(2) 0.6003(3) 0.4126(3)
O5K O 0.3997(3) 1.4150(2) 0.4126(3)
O6A O 0.91555(19) 1.48275(36) 0.3933(3)
O6B O 0.51725(36) 1.4328(3) 0.3933(3)
O6I O 0.4328(3) 0.91555(19) 0.6067(3)
O6A_2 O -0.08445(19) 0.48275(36) 0.3933(3)
O7J O 0.4239(2) 0.9959(3) 0.4524(3)
O7K O 0.0041(3) 1.4280(2) 0.4524(3)
O7A O 0.5761(2) 1.0041(3) 0.5476(3)
O7K_2 O 1.0041(3) 1.4280(2) 0.4524(3)
O8J O 0.2011(3) 0.8748(4) 0.0046(3)
O8K O 0.1252(4) 1.3263(3) 0.0046(3)
O8D O 0.4656(3) 1.4585(4) 0.3287(3)
O8N O 0.4585(4) 0.9930(3) 0.6713(3)
O8C O -0.0070(3) 0.5344(3) 0.3287(3)
O9J O 0.3738(3) 0.9355(4) 0.6360(5)
O9B O -0.0645(4) 0.5617(3) 0.3640(5)
O10J O 0.1911(4) 0.8119(6) -0.0126(4)
O10K O 0.1881(6) 1.3792(4) -0.0126(4)
O11J O 0.0353(2) 0.6595(4) 0.3399(4)
O11K O 0.3405(4) 1.3758(3) 0.3399(4)
H1J H 0.0197 0.6364 0.3552
H1K H 0.3636 1.3833 0.3552
O12J O 0.2278(5) 0.9114(6) 0.0993(5)
O12K O 0.0886(6) 1.3164(4) 0.0993(5)
H2J H 0.2262 0.9124 0.0655
H2K H 0.0876 1.3138 0.0655
O13J O 0.3419(3) 0.8704(4) 0.4987(4)
O13K O 0.1296(4) 1.4715(3) 0.4987(4)
H3J H 0.3632 0.8888 0.5149
H3K H 0.1112 1.4744 0.5149
C1A C 0.7829(2) 1.4184(4) 0.3827(4)
C1B C 0.5816(4) 1.3645(3) 0.3827(4)
H4A H 0.7692 1.4295 0.3613
H4B H 0.5705 1.3397 0.3613
C2A C 0.8484(2) 1.4253(3) 0.4182(3)
C2B C 0.5747(3) 1.4231(2) 0.4182(3)
C3A C 0.8246(3) 1.3865(4) 0.4458(4)
C3B C 0.6135(4) 1.4381(3) 0.4458(4)
C4J C 0.2120(3) 0.8126(4) 0.3707(4)
C4K C 0.1874(4) 1.3994(3) 0.3707(4)
H5J H 0.2114 0.8093 0.4089
H5K H 0.1907 1.4021 0.4089
C5J C 0.0835(3) 0.6617(4) 0.4105(4)
C5K C 0.3383(4) 1.4218(3) 0.4105(4)
C6A C 0.8956(3) 1.4501(4) 0.4235(3)
C6B C 0.5499(4) 1.4455(3) 0.4235(3)
C7A C 0.8271(3) 1.4408(4) 0.3866(4)
C7B C 0.5592(4) 1.3863(3) 0.3866(4)
C8J C 0.1249(3) 0.6857(5) 0.4335(4)
C8K C 0.3143(5) 1.4392(4) 0.4335(4)
H6J H 0.1320 0.6757 0.4649
H6K H 0.3243 1.4563 0.4649
C9J C 0.3321(3) 0.8893(4) 0.4548(4)
C9K C 0.1107(4) 1.4428(3) 0.4548(4)
C10A C 0.7118(2) 1.3563(3) 0.4090(3)
C10B C 0.6437(3) 1.3555(2) 0.4090(3)
C11A C 0.7588(2) 1.3797(3) 0.4102(3)
C11B C 0.6203(3) 1.3791(2) 0.4102(3)
C12A C 0.7810(3) 1.3644(4) 0.4422(4)
C12B C 0.6356(4) 1.4166(3) 0.4422(4)
H7A H 0.7657 1.3387 0.4613
H7B H 0.6613 1.4270 0.4613
C13J C 0.3989(3) 0.9592(4) 0.4718(5)
C13K C 0.0408(4) 1.4397(3) 0.4718(5)
C14A C 0.6892(2) 1.3780(3) 0.4082(4)
C14B C 0.6220(3) 1.3112(2) 0.4082(4)
C15J C 0.0533(3) 0.6190(4) 0.4315(4)
C15K C 0.3810(4) 1.4343(3) 0.4315(4)
C16J C 0.1549(3) 0.7238(5) 0.4098(4)
C16K C 0.2762(5) 1.4311(4) 0.4098(4)
H8J H 0.1825 0.7381 0.4240
H8K H 0.2619 1.4444 0.4240
C17J C 0.3592(3) 0.9318(4) 0.4387(4)
C17K C 0.0682(4) 1.4274(3) 0.4387(4)
C18J C 0.0743(3) 0.6799(4) 0.3664(4)
C18K C 0.3201(4) 1.3944(3) 0.3664(4)
C19J C 0.2087(4) 0.8252(6) 0.2577(5)
C19K C 0.1748(6) 1.3835(4) 0.2577(5)
C20J C 0.2970(3) 0.8628(4) 0.4247(4)
C20K C 0.1372(4) 1.4342(3) 0.4247(4)
H9J H 0.2803 0.8345 0.4358
H9K H 0.1655 1.4458 0.4358
C21J C 0.2854(3) 0.8767(4) 0.3779(5)
C21K C 0.1233(4) 1.4087(3) 0.3779(5)
C22J C 0.1448(3) 0.7408(5) 0.3660(4)
C22K C 0.2592(5) 1.4040(4) 0.3660(4)
C23J C 0.2471(3) 0.8489(4) 0.3456(4)
C23K C 0.1511(4) 1.3982(3) 0.3456(4)
C24J C 0.1784(4) 0.7818(5) 0.3386(5)
C24K C 0.2182(5) 1.3966(3) 0.3386(5)
C25J C 0.1042(3) 0.7180(5) 0.3450(4)
C25K C 0.2820(5) 1.3862(4) 0.3450(4)
H10J H 0.0968 0.7290 0.3149
H10K H 0.2710 1.3678 0.3149
C26J C 0.2437(4) 0.8554(5) 0.2899(5)
C26K C 0.1446(5) 1.3883(3) 0.2899(5)
H11J H 0.2648 0.8803 0.2732
H11K H 0.1197 1.3845 0.2732
C27J C 0.3124(3) 0.9212(4) 0.3625(5)
C27K C 0.0788(4) 1.3912(3) 0.3625(5)
H12J H 0.3059 0.9324 0.3317
H12K H 0.0676 1.3735 0.3317
C28J C 0.1763(4) 0.7886(6) 0.2848(4)
C28K C 0.2114(6) 1.3877(4) 0.2848(4)
H13J H 0.1528 0.7687 0.2645
H13K H 0.2313 1.3841 0.2645
C29J C 0.3344(4) 0.9229(6) 0.6243(7)
C29B C -0.0771(6) 0.5885(4) 0.3757(7)
H14J H 0.3268 0.9270 0.5891
H14B H -0.0730 0.6002 0.4109
N1J N 0.3059(5) 0.9046(6) 0.6622(7)
N1B N -0.0954(6) 0.5987(4) 0.3378(7)
C30J C 0.1993(5) 0.8429(7) 0.0195(6)
C30K C 0.1571(7) 1.3564(5) 0.0195(6)
C31J C 0.3477(3) 0.9464(4) 0.3945(6)
C31K C 0.0536(4) 1.4013(3) 0.3945(6)
H15J H 0.3646 0.9751 0.3851
H15K H 0.0249 1.3895 0.3851
C32J C 0.2152(4) 0.8725(5) 0.1144(5)
C32K C 0.1275(5) 1.3427(3) 0.1144(5)
C33J C 0.2022(4) 0.8375(6) 0.0827(6)
C33K C 0.1625(6) 1.3647(4) 0.0827(6)
C34J C 0.1946(8) 0.7968(10) 0.1609(5)
C34K C 0.2032(10) 1.3978(6) 0.1609(5)
H16J H 0.1873 0.7704 0.1765
H16K H 0.2296 1.4169 0.1765
C35J C 0.1894(6) 0.7978(7) 0.0997(8)
C35K C 0.2022(7) 1.3916(4) 0.0997(8)
H17J H 0.1787 0.7740 0.0767
H17K H 0.2260 1.4047 0.0767
C36J C 0.2589(10) 0.8821(12) 0.6444(15)
C36B C -0.1179(12) 0.6232(7) 0.3556(15)
H18J H 0.2409 0.8695 0.6762
H18B H -0.1305 0.6286 0.3238
H19J H 0.2536 0.8601 0.6180
H19B H -0.1399 0.6065 0.3820
H20J H 0.2526 0.9025 0.6279
H20B H -0.0975 0.6499 0.3721
C37J C 0.2191(6) 0.8692(8) 0.1743(6)
C37K C 0.1308(8) 1.3499(5) 0.1743(6)
H21J H 0.2282 0.8928 0.1975
H21K H 0.1072 1.3354 0.1975
C38J C 0.2085(5) 0.8292(6) 0.1947(5)
C38K C 0.1708(6) 1.3793(4) 0.1947(5)
O14A O 0.8442(3) 1.3698(4) 0.4792(5)
O14B O 0.6302(4) 1.4744(3) 0.4792(5)
H22A H 0.8703 1.3854 0.4777
H22B H 0.6146 1.4849 0.4777
C41J C 0.3160(9) 0.8928(13) 0.7150(11)
C41B C -0.1072(13) 0.5768(10) 0.2850(11)
H25J H 0.2908 0.8795 0.7377
H25B H -0.1205 0.5887 0.2623
H26J H 0.3378 0.9179 0.7333
H26B H -0.0821 0.5801 0.2667
H27J H 0.3261 0.8730 0.7091
H27B H -0.1270 0.5469 0.2909
Zn1I Zn 0.51767(3) 0.97078(3) 0.51440(4)
Zn1A Zn 0.97078(3) 1.45311(4) 0.48560(4)
Zn1K Zn 0.45311(4) 1.48233(3) 0.51440(4)
Zn1B Zn 0.54689(4) 1.51767(3) 0.48560(4)
Zn1J Zn 0.02922(3) 0.54689(4) 0.51440(4)
Zn1A_2 Zn -0.02922(3) 1.45311(4) 0.48560(4)
Zn2J Zn 0.43633(3) 0.97236(5) 0.59321(4)
Zn2B Zn -0.02764(5) 0.53603(4) 0.40679(4)
Zn2A Zn 0.56367(3) 1.02764(5) 0.40679(4)
Zn2H Zn 0.30569(5) 1.20270(4) 1.07346(4)
Zn2B_2 Zn 0.97236(5) 1.53603(4) 0.40679(4)
Zn2O Zn 0.20270(4) 0.89700(3) -0.07346(4)
Zn2K Zn 0.02764(5) 1.46397(4) 0.59321(4)
Zn2P Zn 0.10300(3) 1.30569(5) -0.07346(4)
H28? H 0.3860 0.8726 0.6394
O15? O 0.3714(6) 0.8466(5) 0.6440(8)
loop_
_geom_bond_atom_site_label_1
_geom_bond_atom_site_label_2
_geom_bond_site_symmetry_1
_geom_bond_site_symmetry_2
O1 C13 1_555 1_555
O2 C6 1_555 1_555
O3 C15 1_555 1_555
O4 Zn1 1_555 1_555
O5 C15 1_555 1_555
O6 C6 1_555 1_555
O7 C13 1_555 1_555
O8 C30 1_555 1_555
O9 C29 1_555 1_555
O10 C30 1_555 1_555
O11 H1 1_555 1_555
O12 H2 1_555 1_555
O13 H3 1_555 1_555
C1 H4 1_555 1_555
C2 C3 1_555 1_555
C3 C12 1_555 1_555
C4 H5 1_555 1_555
C5 C8 1_555 1_555
C6 C2 1_555 1_555
C7 C1 1_555 1_555
C8 H6 1_555 1_555
C9 O13 1_555 1_555
C10 C11 1_555 1_555
C11 C1 1_555 1_555
C12 C11 1_555 1_555
H7 C12 1_555 1_555
C13 C17 1_555 1_555
C14 C10 1_555 1_555
C15 C5 1_555 1_555
C16 C8 1_555 1_555
H8 C16 1_555 1_555
C17 C9 1_555 1_555
C18 O11 1_555 1_555
C19 C26 1_555 1_555
C20 C9 1_555 1_555
H9 C20 1_555 1_555
C21 C20 1_555 1_555
C22 C16 1_555 1_555
C23 C4 1_555 1_555
C24 C4 1_555 1_555
C25 C18 1_555 1_555
H10 C25 1_555 1_555
C26 C23 1_555 1_555
H11 C26 1_555 1_555
C27 C21 1_555 1_555
H12 C27 1_555 1_555
C28 C19 1_555 1_555
H13 C28 1_555 1_555
C29 H14 1_555 1_555
N1 C29 1_555 1_555
C30 C33 1_555 1_555
C31 C17 1_555 1_555
H15 C31 1_555 1_555
C32 O12 1_555 1_555
C33 C32 1_555 1_555
C34 H16 1_555 1_555
C35 C33 1_555 1_555
H17 C35 1_555 1_555
C36 N1 1_555 1_555
H18 C36 1_555 1_555
H19 C36 1_555 1_555
H20 C36 1_555 1_555
C37 C32 1_555 1_555
H21 C37 1_555 1_555
C38 C19 1_555 1_555
O14 C3 1_555 1_555
H22 O14 1_555 1_555
Cl1 C39 1_555 1_555
Cl2 C39 1_555 1_555
Cl3 C39 1_555 1_555
Cl4 C40 1_555 1_555
Cl5 C40 1_555 1_555
Cl6 C40 1_555 1_555
C39 H23 1_555 1_555
C40 H24 1_555 1_555
C41 N1 1_555 1_555
H25 C41 1_555 1_555
H26 C41 1_555 1_555
H27 C41 1_555 1_555
Zn1 O2 1_555 1_555
Zn2 O1 1_555 1_555
O1J C13J 1_555 1_555
O1K C13K 1_555 1_555
O1B Zn2B 1_555 1_555
O2A C6A 1_555 1_555
O2B C6B 1_555 1_555
O2I Zn1I 1_555 1_555
O3J C15J 1_555 1_555
O3K C15K 1_555 1_555
O3I Zn1I 1_555 1_555
O3A Zn1A 1_555 1_555
O4I Zn1 1_555 1_555
O4K Zn2 1_555 1_555
O4A Zn1A 1_555 1_555
O4J Zn1A 1_555 1_555
O4J_2 Zn1J 1_555 1_555
O5J C15J 1_555 1_555
O5K Zn2 1_555 1_555
O6A C6A 1_555 1_555
O6B Zn2 1_555 1_555
O6I Zn2J 1_555 1_555
O6A_2 Zn2B 1_555 1_555
O7J Zn1 1_555 1_555
O7K C13K 1_555 1_555
O7A Zn1I 1_555 1_555
O7K_2 Zn1A 1_555 1_555
O8J C30J 1_555 1_555
O8K C30K 1_555 1_555
O8D Zn2 1_555 1_555
O8N Zn2J 1_555 1_555
O8C Zn2B 1_555 1_555
O9J C29J 1_555 1_555
O9B C29B 1_555 1_555
O10J C30J 1_555 1_555
O10K C30K 1_555 1_555
O11J H1J 1_555 1_555
O11K H1K 1_555 1_555
O12J H2J 1_555 1_555
O12K H2K 1_555 1_555
O13J H3J 1_555 1_555
O13K H3K 1_555 1_555
C1A H4A 1_555 1_555
C1B H4B 1_555 1_555
C2A C3A 1_555 1_555
C2B C3B 1_555 1_555
C3A C12A 1_555 1_555
C3B C12B 1_555 1_555
C4J H5J 1_555 1_555
C4K H5K 1_555 1_555
C5J C8J 1_555 1_555
C5K C8K 1_555 1_555
C6A C2A 1_555 1_555
C6B O6B 1_555 1_555
C7A C1A 1_555 1_555
C7B C1B 1_555 1_555
C8J H6J 1_555 1_555
C8K H6K 1_555 1_555
C9J O13J 1_555 1_555
C9K O13K 1_555 1_555
C10A C14 1_555 1_555
C10B C11B 1_555 1_555
C11A C1A 1_555 1_555
C11B C1B 1_555 1_555
C12A C11A 1_555 1_555
C12B C11B 1_555 1_555
H7A C12A 1_555 1_555
H7B C12B 1_555 1_555
C13J O7J 1_555 1_555
C13K C17K 1_555 1_555
C14A C10A 1_555 1_555
C14B C10 1_555 1_555
C15J C5J 1_555 1_555
C15K O5K 1_555 1_555
C16J C8J 1_555 1_555
C16K C8K 1_555 1_555
H8J C16J 1_555 1_555
H8K C16K 1_555 1_555
C17J C9J 1_555 1_555
C17K C9K 1_555 1_555
C18J O11J 1_555 1_555
C18K O11K 1_555 1_555
C19J C26J 1_555 1_555
C19K C26K 1_555 1_555
C20J C9J 1_555 1_555
C20K C9K 1_555 1_555
H9J C20J 1_555 1_555
H9K C20K 1_555 1_555
C21J C20J 1_555 1_555
C21K C20K 1_555 1_555
C22J C16J 1_555 1_555
C22K C16K 1_555 1_555
C23J C4J 1_555 1_555
C23K C4K 1_555 1_555
C24J C4J 1_555 1_555
C24K C4K 1_555 1_555
C25J C18J 1_555 1_555
C25K C18K 1_555 1_555
H10J C25J 1_555 1_555
H10K C25K 1_555 1_555
C26J C23J 1_555 1_555
C26K C23K 1_555 1_555
H11J C26J 1_555 1_555
H11K C26K 1_555 1_555
C27J C21J 1_555 1_555
C27K C21K 1_555 1_555
H12J C27J 1_555 1_555
H12K C27K 1_555 1_555
C28J C19J 1_555 1_555
C28K C19K 1_555 1_555
H13J C28J 1_555 1_555
H13K C28K 1_555 1_555
C29J H14J 1_555 1_555
C29B H14B 1_555 1_555
N1J C29J 1_555 1_555
N1B C29B 1_555 1_555
C30J C33J 1_555 1_555
C30K C33K 1_555 1_555
C31J C17J 1_555 1_555
C31K C17K 1_555 1_555
H15J C31J 1_555 1_555
H15K C31K 1_555 1_555
C32J O12J 1_555 1_555
C32K O12K 1_555 1_555
C33J C32J 1_555 1_555
C33K C32K 1_555 1_555
C34J H16J 1_555 1_555
C34K H16K 1_555 1_555
C35J C33J 1_555 1_555
C35K C33K 1_555 1_555
H17J C35J 1_555 1_555
H17K C35K 1_555 1_555
C36J N1J 1_555 1_555
C36B N1B 1_555 1_555
H18J C36J 1_555 1_555
H18B C36B 1_555 1_555
H19J C36J 1_555 1_555
H19B C36B 1_555 1_555
H20J C36J 1_555 1_555
H20B C36B 1_555 1_555
C37J C32J 1_555 1_555
C37K C32K 1_555 1_555
H21J C37J 1_555 1_555
H21K C37K 1_555 1_555
C38J C19J 1_555 1_555
C38K C19K 1_555 1_555
O14A C3A 1_555 1_555
O14B C3B 1_555 1_555
H22A O14A 1_555 1_555
H22B O14B 1_555 1_555
C41J N1J 1_555 1_555
C41B N1B 1_555 1_555
H25J C41J 1_555 1_555
H25B C41B 1_555 1_555
H26J C41J 1_555 1_555
H26B C41B 1_555 1_555
H27J C41J 1_555 1_555
H27B C41B 1_555 1_555
Zn1I O4 1_555 1_555
Zn1A O2A 1_555 1_555
Zn1K O7 1_555 1_555
Zn1B O2B 1_555 1_555
Zn1J O3J 1_555 1_555
Zn1A_2 O7K 1_555 1_555
Zn2J O4 1_555 1_555
Zn2B O4J_2 1_555 1_555
Zn2A O6 1_555 1_555
Zn2H O8 1_555 1_555
Zn2B_2 O4J 1_555 1_555
Zn2O O8J 1_555 1_555
Zn2K O1K 1_555 1_555
Zn2P O8K 1_555 1_555
O3 Zn1 1_555 1_555
O5 Zn2J 1_555 1_555
O9 Zn2 1_555 1_555
C2 C7 1_555 1_555
C5 C18 1_555 1_555
C21 C23 1_555 1_555
C22 C24 1_555 1_555
C22 C25 1_555 1_555
C24 C28 1_555 1_555
C27 C31 1_555 1_555
C34 C35 1_555 1_555
C34 C38 1_555 1_555
C37 C38 1_555 1_555
O1J Zn2J 1_555 1_555
O3K Zn1K 1_555 1_555
O4I Zn1I 1_555 1_555
O4I Zn2A 1_555 1_555
O4K Zn1K 1_555 1_555
O4K Zn1B 1_555 1_555
O5J Zn2B 1_555 1_555
O6A Zn2B_2 1_555 1_555
O9J Zn2J 1_555 1_555
O9B Zn2B 1_555 1_555
C2A C7A 1_555 1_555
C2B C6B 1_555 1_555
C2B C7B 1_555 1_555
C5J C18J 1_555 1_555
C5K C15K 1_555 1_555
C5K C18K 1_555 1_555
C10A C11A 1_555 1_555
C10B C14A 1_555 1_555
C10B C14B 1_555 1_555
C13J C17J 1_555 1_555
C21J C23J 1_555 1_555
C21K C23K 1_555 1_555
C22J C24J 1_555 1_555
C22J C25J 1_555 1_555
C22K C24K 1_555 1_555
C22K C25K 1_555 1_555
C24J C28J 1_555 1_555
C24K C28K 1_555 1_555
C27J C31J 1_555 1_555
C27K C31K 1_555 1_555
C34J C35J 1_555 1_555
C34J C38J 1_555 1_555
C34K C35K 1_555 1_555
C34K C38K 1_555 1_555
C37J C38J 1_555 1_555
C37K C38K 1_555 1_555

#END
