
#######################################################################
#
#                 Cambridge Crystallographic Data Centre
#                                CCDC 
#
#######################################################################
#
# If this CIF has been generated from an entry in the Cambridge 
# Structural Database, then it will include bibliographic, chemical, 
# crystal, experimental, refinement or atomic coordinate data resulting 
# from the CCDC's data processing and validation procedures.
#
#######################################################################

data_MEFJOY
_symmetry_cell_setting           cubic
_symmetry_space_group_name_H-M   'I 2 3'
_symmetry_Int_Tables_number      197
_space_group_name_Hall           'I 2 2 3'
loop_
_symmetry_equiv_pos_site_id
_symmetry_equiv_pos_as_xyz
1 x,y,z
2 -x,-y,z
3 -x,y,-z
4 x,-y,-z
5 z,x,y
6 z,-x,-y
7 -z,-x,y
8 -z,x,-y
9 y,z,x
10 -y,z,-x
11 y,-z,-x
12 -y,-z,x
13 1/2+x,1/2+y,1/2+z
14 1/2-x,1/2-y,1/2+z
15 1/2-x,1/2+y,1/2-z
16 1/2+x,1/2-y,1/2-z
17 1/2+z,1/2+x,1/2+y
18 1/2+z,1/2-x,1/2-y
19 1/2-z,1/2-x,1/2+y
20 1/2-z,1/2+x,1/2-y
21 1/2+y,1/2+z,1/2+x
22 1/2-y,1/2+z,1/2-x
23 1/2+y,1/2-z,1/2-x
24 1/2-y,1/2-z,1/2+x
_cell_length_a                   23.3024(2)
_cell_length_b                   23.3024(2)
_cell_length_c                   23.3024(2)
_cell_angle_alpha                90
_cell_angle_beta                 90
_cell_angle_gamma                90
_cell_volume                     12653.2
loop_
_atom_site_label
_atom_site_type_symbol
_atom_site_fract_x
_atom_site_fract_y
_atom_site_fract_z
Zn1 Zn 0.0000 0.5000 -0.06322(4)
Zn2 Zn 0.17884(5) 0.70760(6) -0.23701(5)
O1 O 0.0544(3) 0.5641(3) -0.0466(3)
O2 O 0.0649(3) 0.5579(3) 0.0479(2)
O3 O 0.1690(3) 0.6956(3) -0.1555(3)
O4 O 0.2429(3) 0.7420(3) -0.1148(4)
O5 O 0.2625(5) 0.7335(5) 0.0986(5)
O6 O 0.2131(4) 0.6679(3) 0.1438(3)
O7 O 0.0000 0.5000 -0.1468(3)
O8 O 0.2511(3) 0.7489(3) -0.2511(3)
C1 C 0.1222(3) 0.6229(3) -0.0015(5)
C2 C 0.1372(4) 0.6477(4) -0.0532(4)
H1 H 0.1182 0.6371 -0.0867
C3 C 0.1810(4) 0.6887(4) -0.0551(4)
C4 C 0.2080(4) 0.7069(4) -0.0076(4)
H2 H 0.2352 0.7361 -0.0094
C5 C 0.1939(4) 0.6803(4) 0.0461(4)
C6 C 0.1504(4) 0.6399(4) 0.0489(4)
H3 H 0.1399 0.6242 0.0841
C7 C 0.0763(3) 0.5782(3) 0.0019(5)
C8 C 0.1981(4) 0.7106(4) -0.1153(4)
C9 C 0.2249(5) 0.6985(5) 0.1001(5)
C10 C -0.0090(6) 0.5344(8) -0.1780(8)
C11 C -0.0795(11) 0.6174(9) -0.2072(16)
C12 C -0.0228(13) 0.6468(15) -0.1996(16)
C13 C 0.0238(11) 0.6244(11) -0.2379(12)
C14 C -0.1105(11) 0.5143(11) -0.1717(12)
C15 C -0.0934(9) 0.4499(11) -0.1835(11)
N1 N -0.0665(7) 0.5559(8) -0.1930(9)
N2 N 0.0359(7) 0.5729(8) -0.2010(10)
Zn1B Zn 0.0000 0.5000 0.06322(4)
Zn1T Zn 0.0000 0.43678(4) -0.5000
Zn1V Zn 0.0000 0.56322(4) -0.5000
Zn1F Zn 0.06322(4) 1.0000 -0.5000
Zn1D Zn -0.06322(4) 1.0000 -0.5000
Zn2B Zn -0.17884(5) 0.70760(6) 0.23701(5)
Zn2A Zn -0.17884(5) 0.29240(6) -0.23701(5)
Zn2C Zn 0.17884(5) 0.29240(6) 0.23701(5)
Zn2P Zn 0.26299(5) 0.67884(5) 0.20760(6)
Zn2S Zn -0.26299(5) 0.67884(5) -0.20760(6)
Zn2I Zn 0.29240(6) 0.76299(5) -0.17884(5)
Zn2F Zn 0.23701(5) 0.82116(5) -0.29240(6)
Zn2H Zn -0.29240(6) 0.76299(5) 0.17884(5)
Zn2J Zn -0.29240(6) 0.23701(5) -0.17884(5)
Zn2R Zn -0.26299(5) 0.32116(5) 0.20760(6)
Zn2K Zn 0.29240(6) 0.23701(5) 0.17884(5)
Zn2Q Zn 0.26299(5) 0.32116(5) -0.20760(6)
Zn2T Zn 0.20760(6) 0.26299(5) -0.32116(5)
Zn2W Zn -0.20760(6) 0.73701(5) -0.32116(5)
Zn2E Zn -0.23701(5) 0.82116(5) 0.29240(6)
O1B O -0.0544(3) 0.5641(3) 0.0466(3)
O1A O -0.0544(3) 0.4359(3) -0.0466(3)
O1C O 0.0544(3) 0.4359(3) 0.0466(3)
O1T O 0.0641(3) 0.4534(3) -0.4456(3)
O1F O 0.0466(3) 0.9456(3) -0.4359(3)
O1U O -0.0641(3) 0.4534(3) -0.5544(3)
O2B O -0.0649(3) 0.5579(3) -0.0479(2)
O2A O -0.0649(3) 0.4421(3) 0.0479(2)
O2C O 0.0649(3) 0.4421(3) -0.0479(2)
O2T O 0.0579(3) 0.5479(2) -0.4351(3)
O2F O -0.0479(2) 0.9351(3) -0.4421(3)
O2V O 0.0579(3) 0.4521(2) -0.5649(3)
O2W O -0.0579(3) 0.4521(2) -0.4351(3)
O3B O -0.1690(3) 0.6956(3) 0.1555(3)
O3A O -0.1690(3) 0.3044(3) -0.1555(3)
O3C O 0.1690(3) 0.3044(3) 0.1555(3)
O3T O 0.1956(3) 0.3445(3) -0.3310(3)
O3F O 0.1555(3) 0.8310(3) -0.3044(3)
O3P O 0.3445(3) 0.6690(3) 0.1956(3)
O3S O -0.3445(3) 0.6690(3) -0.1956(3)
O4B O -0.2429(3) 0.7420(3) 0.1148(4)
O4A O -0.2429(3) 0.2580(3) -0.1148(4)
O4C O 0.2429(3) 0.2580(3) 0.1148(4)
O4T O 0.2420(3) 0.3852(4) -0.2571(3)
O4F O 0.1148(4) 0.7571(3) -0.2580(3)
O4E O -0.1148(4) 0.7571(3) 0.2580(3)
O4D O -0.1148(4) 0.2429(3) -0.2580(3)
O4G O 0.1148(4) 0.2429(3) 0.2580(3)
O4V O 0.2420(3) 0.6148(4) 0.2571(3)
O4W O -0.2420(3) 0.6148(4) -0.2571(3)
O5B O -0.2625(5) 0.7335(5) -0.0986(5)
O5A O -0.2625(5) 0.2665(5) 0.0986(5)
O5C O 0.2625(5) 0.2665(5) -0.0986(5)
O5T O 0.2335(5) 0.5986(5) -0.2375(5)
O5F O -0.0986(5) 0.7375(5) -0.2665(5)
O6B O -0.2131(4) 0.6679(3) -0.1438(3)
O6A O -0.2131(4) 0.3321(3) 0.1438(3)
O6C O 0.2131(4) 0.3321(3) -0.1438(3)
O6T O 0.1679(3) 0.6438(3) -0.2869(4)
O6F O -0.1438(3) 0.7869(4) -0.3321(3)
O6U O -0.1679(3) 0.6438(3) 0.2869(4)
O6W O -0.1679(3) 0.3562(3) -0.2869(4)
O6V O 0.1679(3) 0.3562(3) 0.2869(4)
O7B O 0.0000 0.5000 0.1468(3)
O7T O 0.0000 0.3532(3) -0.5000
O8B O -0.2511(3) 0.7489(3) 0.2511(3)
O8A O -0.2511(3) 0.2511(3) -0.2511(3)
O8C O 0.2511(3) 0.2511(3) 0.2511(3)
O8M O 0.2489(3) 0.7511(3) 0.2489(3)
O8O O -0.2489(3) 0.7511(3) -0.2489(3)
C1B C -0.1222(3) 0.6229(3) 0.0015(5)
C1A C -0.1222(3) 0.3771(3) -0.0015(5)
C1C C 0.1222(3) 0.3771(3) 0.0015(5)
C1T C 0.1229(3) 0.4985(5) -0.3778(3)
C1F C 0.0015(5) 0.8778(3) -0.3771(3)
C2B C -0.1372(4) 0.6477(4) 0.0532(4)
C2A C -0.1372(4) 0.3523(4) -0.0532(4)
C2C C 0.1372(4) 0.3523(4) 0.0532(4)
C2T C 0.1477(4) 0.4468(4) -0.3628(4)
C2F C 0.0532(4) 0.8628(4) -0.3523(4)
H1B H -0.1182 0.6371 0.0867
H1A H -0.1182 0.3629 -0.0867
H1C H 0.1182 0.3629 0.0867
H1T H 0.1371 0.4133 -0.3818
H1F H 0.0867 0.8818 -0.3629
C3B C -0.1810(4) 0.6887(4) 0.0551(4)
C3A C -0.1810(4) 0.3113(4) -0.0551(4)
C3C C 0.1810(4) 0.3113(4) 0.0551(4)
C3T C 0.1887(4) 0.4449(4) -0.3190(4)
C3F C 0.0551(4) 0.8190(4) -0.3113(4)
C4B C -0.2080(4) 0.7069(4) 0.0076(4)
C4A C -0.2080(4) 0.2931(4) -0.0076(4)
C4C C 0.2080(4) 0.2931(4) 0.0076(4)
C4T C 0.2069(4) 0.4924(4) -0.2920(4)
C4F C 0.0076(4) 0.7920(4) -0.2931(4)
H2B H -0.2352 0.7361 0.0094
H2A H -0.2352 0.2639 -0.0094
H2C H 0.2352 0.2639 0.0094
H2T H 0.2361 0.4906 -0.2648
H2F H 0.0094 0.7648 -0.2639
C5B C -0.1939(4) 0.6803(4) -0.0461(4)
C5A C -0.1939(4) 0.3197(4) 0.0461(4)
C5C C 0.1939(4) 0.3197(4) -0.0461(4)
C5T C 0.1803(4) 0.5461(4) -0.3061(4)
C5F C -0.0461(4) 0.8061(4) -0.3197(4)
C6B C -0.1504(4) 0.6399(4) -0.0489(4)
C6A C -0.1504(4) 0.3601(4) 0.0489(4)
C6C C 0.1504(4) 0.3601(4) -0.0489(4)
C6T C 0.1399(4) 0.5489(4) -0.3496(4)
C6F C -0.0489(4) 0.8496(4) -0.3601(4)
H3B H -0.1399 0.6242 -0.0841
H3A H -0.1399 0.3758 0.0841
H3C H 0.1399 0.3758 -0.0841
H3T H 0.1242 0.5841 -0.3601
H3F H -0.0841 0.8601 -0.3758
C7B C -0.0763(3) 0.5782(3) -0.0019(5)
C7A C -0.0763(3) 0.4218(3) 0.0019(5)
C7C C 0.0763(3) 0.4218(3) -0.0019(5)
C7T C 0.0782(3) 0.5019(5) -0.4237(3)
C7F C -0.0019(5) 0.9237(3) -0.4218(3)
C8B C -0.1981(4) 0.7106(4) 0.1153(4)
C8A C -0.1981(4) 0.2894(4) -0.1153(4)
C8C C 0.1981(4) 0.2894(4) 0.1153(4)
C8T C 0.2106(4) 0.3847(4) -0.3019(4)
C8F C 0.1153(4) 0.8019(4) -0.2894(4)
C9B C -0.2249(5) 0.6985(5) -0.1001(5)
C9A C -0.2249(5) 0.3015(5) 0.1001(5)
C9C C 0.2249(5) 0.3015(5) -0.1001(5)
C9T C 0.1985(5) 0.6001(5) -0.2751(5)
C9F C -0.1001(5) 0.7751(5) -0.3015(5)
C10A C 0.0090(6) 0.4656(8) -0.1780(8)
C10B C 0.0090(6) 0.5344(8) 0.1780(8)
C10C C -0.0090(6) 0.4656(8) 0.1780(8)
C10T C 0.0344(8) 0.3220(8) -0.5090(6)
C10U C -0.0344(8) 0.3220(8) -0.4910(6)
C11A C 0.0795(11) 0.3826(9) -0.2072(16)
C11B C 0.0795(11) 0.6174(9) 0.2072(16)
C11C C -0.0795(11) 0.3826(9) 0.2072(16)
C11T C 0.1174(9) 0.2928(16) -0.5795(11)
C11U C -0.1174(9) 0.2928(16) -0.4205(11)
C12A C 0.0228(13) 0.3532(15) -0.1996(16)
C12B C 0.0228(13) 0.6468(15) 0.1996(16)
C12C C -0.0228(13) 0.3532(15) 0.1996(16)
C12T C 0.1468(15) 0.3004(16) -0.5228(13)
C12U C -0.1468(15) 0.3004(16) -0.4772(13)
C13A C -0.0238(11) 0.3756(11) -0.2379(12)
C13B C -0.0238(11) 0.6244(11) 0.2379(12)
C13C C 0.0238(11) 0.3756(11) 0.2379(12)
C13T C 0.1244(11) 0.2621(12) -0.4762(11)
C13U C -0.1244(11) 0.2621(12) -0.5238(11)
C14A C 0.1105(11) 0.4857(11) -0.1717(12)
C14B C 0.1105(11) 0.5143(11) 0.1717(12)
C14C C -0.1105(11) 0.4857(11) 0.1717(12)
C14T C 0.0143(11) 0.3283(12) -0.6105(11)
C14U C -0.0143(11) 0.3283(12) -0.3895(11)
C15A C 0.0934(9) 0.5501(11) -0.1835(11)
C15B C 0.0934(9) 0.4499(11) 0.1835(11)
C15C C -0.0934(9) 0.5501(11) 0.1835(11)
C15T C -0.0501(11) 0.3165(11) -0.5934(9)
C15U C 0.0501(11) 0.3165(11) -0.4066(9)
N1A N 0.0665(7) 0.4441(8) -0.1930(9)
N1B N 0.0665(7) 0.5559(8) 0.1930(9)
N1C N -0.0665(7) 0.4441(8) 0.1930(9)
N1T N 0.0559(8) 0.3070(9) -0.5665(7)
N1U N -0.0559(8) 0.3070(9) -0.4335(7)
N2A N -0.0359(7) 0.4271(8) -0.2010(10)
N2B N -0.0359(7) 0.5729(8) 0.2010(10)
N2C N 0.0359(7) 0.4271(8) 0.2010(10)
N2T N 0.0729(8) 0.2990(10) -0.4641(7)
N2U N -0.0729(8) 0.2990(10) -0.5359(7)
loop_
_geom_bond_atom_site_label_1
_geom_bond_atom_site_label_2
_geom_bond_site_symmetry_1
_geom_bond_site_symmetry_2
Zn1 O1 1_555 1_555
Zn2 O3 1_555 1_555
O1 C7 1_555 1_555
O2 C7 1_555 1_555
O3 C8 1_555 1_555
O4 C8 1_555 1_555
O5 C9 1_555 1_555
O6 C9 1_555 1_555
O7 Zn1 1_555 1_555
O8 Zn2 1_555 1_555
C1 C2 1_555 1_555
C2 H1 1_555 1_555
C3 C2 1_555 1_555
C4 C3 1_555 1_555
H2 C4 1_555 1_555
C5 C4 1_555 1_555
C6 C1 1_555 1_555
H3 C6 1_555 1_555
C7 C1 1_555 1_555
C8 C3 1_555 1_555
C9 C5 1_555 1_555
C10 O7 1_555 1_555
C11 C12 1_555 1_555
C12 C13 1_555 1_555
C13 N2 1_555 1_555
C14 C15 1_555 1_555
C15 N2A 1_555 1_555
N1 C10 1_555 1_555
N2 C10 1_555 1_555
Zn1B O2 1_555 1_555
Zn1T O1T 1_555 1_555
Zn1V O2T 1_555 1_555
Zn1F O1F 1_555 1_555
Zn1D O2F 1_555 1_555
Zn2B O3B 1_555 1_555
Zn2A O3A 1_555 1_555
Zn2C O3C 1_555 1_555
Zn2P O6 1_555 1_555
Zn2S O3S 1_555 1_555
Zn2I O4 1_555 1_555
Zn2F O8 1_555 1_555
Zn2H O4B 1_555 1_555
Zn2J O4A 1_555 1_555
Zn2R O6A 1_555 1_555
Zn2K O4C 1_555 1_555
Zn2Q O4T 1_555 1_555
Zn2T O3T 1_555 1_555
Zn2W O6F 1_555 1_555
Zn2E O8B 1_555 1_555
O1B Zn1B 1_555 1_555
O1A Zn1 1_555 1_555
O1C Zn1B 1_555 1_555
O1T C7T 1_555 1_555
O1F C7F 1_555 1_555
O1U Zn1T 1_555 1_555
O2B Zn1 1_555 1_555
O2A Zn1B 1_555 1_555
O2C Zn1 1_555 1_555
O2T C7T 1_555 1_555
O2F C7F 1_555 1_555
O2V Zn1T 1_555 1_555
O2W Zn1T 1_555 1_555
O3B C8B 1_555 1_555
O3A C8A 1_555 1_555
O3C C8C 1_555 1_555
O3T C8T 1_555 1_555
O3F Zn2F 1_555 1_555
O3P Zn2P 1_555 1_555
O4B C8B 1_555 1_555
O4A C8A 1_555 1_555
O4C C8C 1_555 1_555
O4T C8T 1_555 1_555
O4F Zn2 1_555 1_555
O4E Zn2B 1_555 1_555
O4D Zn2A 1_555 1_555
O4G Zn2C 1_555 1_555
O4V Zn2P 1_555 1_555
O4W Zn2S 1_555 1_555
O5B C9B 1_555 1_555
O5A C9A 1_555 1_555
O5C C9C 1_555 1_555
O5T C9T 1_555 1_555
O5F C9F 1_555 1_555
O6B Zn2S 1_555 1_555
O6A C9A 1_555 1_555
O6C Zn2Q 1_555 1_555
O6T Zn2 1_555 1_555
O6F C9F 1_555 1_555
O6U Zn2B 1_555 1_555
O6W Zn2A 1_555 1_555
O6V Zn2C 1_555 1_555
O7B Zn1B 1_555 1_555
O7T Zn1T 1_555 1_555
O8B Zn2B 1_555 1_555
O8A Zn2A 1_555 1_555
O8C Zn2C 1_555 1_555
O8M Zn2P 1_555 1_555
O8O Zn2S 1_555 1_555
C1B C2B 1_555 1_555
C1A C2A 1_555 1_555
C1C C2C 1_555 1_555
C1T C2T 1_555 1_555
C1F C2F 1_555 1_555
C2B H1B 1_555 1_555
C2A H1A 1_555 1_555
C2C H1C 1_555 1_555
C2T H1T 1_555 1_555
C2F H1F 1_555 1_555
C3B C2B 1_555 1_555
C3A C2A 1_555 1_555
C3C C2C 1_555 1_555
C3T C2T 1_555 1_555
C3F C2F 1_555 1_555
C4B C3B 1_555 1_555
C4A C3A 1_555 1_555
C4C C3C 1_555 1_555
C4T C3T 1_555 1_555
C4F C3F 1_555 1_555
H2B C4B 1_555 1_555
H2A C4A 1_555 1_555
H2C C4C 1_555 1_555
H2T C4T 1_555 1_555
H2F C4F 1_555 1_555
C5B C4B 1_555 1_555
C5A C4A 1_555 1_555
C5C C4C 1_555 1_555
C5T C4T 1_555 1_555
C5F C4F 1_555 1_555
C6B C1B 1_555 1_555
C6A C1A 1_555 1_555
C6C C1C 1_555 1_555
C6T C1T 1_555 1_555
C6F C1F 1_555 1_555
H3B C6B 1_555 1_555
H3A C6A 1_555 1_555
H3C C6C 1_555 1_555
H3T C6T 1_555 1_555
H3F C6F 1_555 1_555
C7B O1B 1_555 1_555
C7A O1A 1_555 1_555
C7C O1C 1_555 1_555
C7T C1T 1_555 1_555
C7F C1F 1_555 1_555
C8B C3B 1_555 1_555
C8A C3A 1_555 1_555
C8C C3C 1_555 1_555
C8T C3T 1_555 1_555
C8F O3F 1_555 1_555
C9B O6B 1_555 1_555
C9A C5A 1_555 1_555
C9C O6C 1_555 1_555
C9T O6T 1_555 1_555
C9F C5F 1_555 1_555
C10A O7 1_555 1_555
C10B O7B 1_555 1_555
C10C O7B 1_555 1_555
C10T O7T 1_555 1_555
C10U O7T 1_555 1_555
C11A C12A 1_555 1_555
C11B C12B 1_555 1_555
C11C C12C 1_555 1_555
C11T C12T 1_555 1_555
C11U C12U 1_555 1_555
C12A C13A 1_555 1_555
C12B C13B 1_555 1_555
C12C C13C 1_555 1_555
C12T C13T 1_555 1_555
C12U C13U 1_555 1_555
C13A N2A 1_555 1_555
C13B N2B 1_555 1_555
C13C N2C 1_555 1_555
C13T N2T 1_555 1_555
C13U N2U 1_555 1_555
C14A C15A 1_555 1_555
C14B C15B 1_555 1_555
C14C C15C 1_555 1_555
C14T C15T 1_555 1_555
C14U C15U 1_555 1_555
C15A N2 1_555 1_555
C15B N2C 1_555 1_555
C15C N2B 1_555 1_555
C15T N2U 1_555 1_555
C15U N2T 1_555 1_555
N1A C10A 1_555 1_555
N1B C10B 1_555 1_555
N1C C10C 1_555 1_555
N1T C10T 1_555 1_555
N1U C10U 1_555 1_555
N2A C10A 1_555 1_555
N2B C10B 1_555 1_555
N2C C10C 1_555 1_555
N2T C10T 1_555 1_555
N2U C10U 1_555 1_555
O8 Zn2I 1_555 1_555
C5 C6 1_555 1_555
C10 C10A 1_555 1_555
C11 N1 1_555 1_555
C14 N1 1_555 1_555
Zn2H O8B 1_555 1_555
Zn2J O8A 1_555 1_555
Zn2K O8C 1_555 1_555
Zn2W O8O 1_555 1_555
O2B C7B 1_555 1_555
O2A C7A 1_555 1_555
O2C C7C 1_555 1_555
O4F C8F 1_555 1_555
C1B C7B 1_555 1_555
C1A C7A 1_555 1_555
C1C C7C 1_555 1_555
C3F C8F 1_555 1_555
C5B C6B 1_555 1_555
C5B C9B 1_555 1_555
C5A C6A 1_555 1_555
C5C C6C 1_555 1_555
C5C C9C 1_555 1_555
C5T C6T 1_555 1_555
C5T C9T 1_555 1_555
C5F C6F 1_555 1_555
C10B C10C 1_555 1_555
C10T C10U 1_555 1_555
C11A N1A 1_555 1_555
C11B N1B 1_555 1_555
C11C N1C 1_555 1_555
C11T N1T 1_555 1_555
C11U N1U 1_555 1_555
C14A N1A 1_555 1_555
C14B N1B 1_555 1_555
C14C N1C 1_555 1_555
C14T N1T 1_555 1_555
C14U N1U 1_555 1_555

#END
