
#######################################################################
#
#                 Cambridge Crystallographic Data Centre
#                                CCDC 
#
#######################################################################
#
# If this CIF has been generated from an entry in the Cambridge 
# Structural Database, then it will include bibliographic, chemical, 
# crystal, experimental, refinement or atomic coordinate data resulting 
# from the CCDC's data processing and validation procedures.
#
#######################################################################

data_MEFJUD
_symmetry_cell_setting           monoclinic
_symmetry_space_group_name_H-M   'C 2/c'
_symmetry_Int_Tables_number      15
_space_group_name_Hall           '-C 2yn'
loop_
_symmetry_equiv_pos_site_id
_symmetry_equiv_pos_as_xyz
1 x,y,z
2 1/2+x,1/2+y,z
3 -x,y,1/2-z
4 1/2-x,1/2+y,1/2-z
5 -x,-y,-z
6 1/2-x,1/2-y,-z
7 x,-y,1/2+z
8 1/2+x,1/2-y,1/2+z
_cell_length_a                   17.068(6)
_cell_length_b                   10.358(4)
_cell_length_c                   17.138(6)
_cell_angle_alpha                90
_cell_angle_beta                 113.925(5)
_cell_angle_gamma                90
_cell_volume                     2769.5
loop_
_atom_site_label
_atom_site_type_symbol
_atom_site_fract_x
_atom_site_fract_y
_atom_site_fract_z
Cd1 Cd 0.141914(12) -0.179960(16) 0.009605(10)
C1 C 0.56151(19) -0.2408(3) 0.03704(18)
H1 H 0.5615 -0.3172 0.0085
C2 C 0.6348(2) -0.1676(3) 0.0677(2)
H2 H 0.6834 -0.1940 0.0603
C3 C 0.6349(2) -0.0539(3) 0.10990(19)
H3 H 0.6838 -0.0025 0.1314
C4 C 0.56195(19) -0.0178(3) 0.11967(17)
H4 H 0.5608 0.0584 0.1478
C5 C 0.49004(17) -0.0964(2) 0.08707(15)
C6 C 0.40919(17) -0.0649(2) 0.09354(15)
C7 C 0.39025(19) 0.0257(3) 0.14276(18)
H5 H 0.4271 0.0859 0.1799
C8 C 0.3050(2) 0.0070(3) 0.12467(18)
H6 H 0.2737 0.0540 0.1485
C9 C 0.12984(19) 0.1184(3) -0.19570(17)
H7 H 0.1368 0.2074 -0.1956
C10 C 0.12991(19) 0.0565(3) -0.12430(17)
H8 H 0.1368 0.1063 -0.0768
C11 C 0.1118(2) -0.1378(3) -0.18876(18)
H9 H 0.1063 -0.2270 -0.1871
C12 C 0.1102(2) -0.0826(3) -0.26251(17)
H10 H 0.1029 -0.1341 -0.3094
C13 C 0.11942(16) 0.0476(2) -0.26666(15)
C14 C 0.12108(17) 0.1096(3) -0.34597(16)
N1 N 0.27315(14) -0.0889(2) 0.06767(13)
N2 N 0.33823(14) -0.1323(2) 0.04813(12)
N3 N 0.49043(14) -0.20736(19) 0.04633(13)
N4 N 0.12070(14) -0.0698(2) -0.11979(12)
O1 O 0.14580(15) 0.22310(19) -0.34216(12)
O2 O 0.09920(14) 0.04019(19) -0.41140(11)
Cd1E Cd 0.358086(12) -0.320040(16) -0.009605(10)
Cd1F Cd 0.141914(12) 0.179960(16) -0.490395(10)
N2E N 0.16177(14) -0.3677(2) -0.04813(12)
N3E N 0.00957(14) -0.29264(19) -0.04633(13)
O1F O 0.14580(15) -0.22310(19) 0.15784(12)
O2F O 0.09920(14) -0.04019(19) 0.08860(11)
loop_
_geom_bond_atom_site_label_1
_geom_bond_atom_site_label_2
_geom_bond_site_symmetry_1
_geom_bond_site_symmetry_2
Cd1 N1 1_555 1_555
C1 H1 1_555 1_555
C2 C1 1_555 1_555
H2 C2 1_555 1_555
C3 C2 1_555 1_555
H3 C3 1_555 1_555
C4 C3 1_555 1_555
H4 C4 1_555 1_555
C5 C4 1_555 1_555
C6 C5 1_555 1_555
C7 C6 1_555 1_555
H5 C7 1_555 1_555
C8 C7 1_555 1_555
H6 C8 1_555 1_555
C9 H7 1_555 1_555
C10 C9 1_555 1_555
H8 C10 1_555 1_555
C11 H9 1_555 1_555
C12 C11 1_555 1_555
H10 C12 1_555 1_555
C13 C9 1_555 1_555
C14 C13 1_555 1_555
N1 C8 1_555 1_555
N2 C6 1_555 1_555
N3 C1 1_555 1_555
N4 Cd1 1_555 1_555
O1 C14 1_555 1_555
O2 C14 1_555 1_555
Cd1E N2 1_555 1_555
Cd1F O1 1_555 1_555
N2E Cd1 1_555 1_555
N3E Cd1 1_555 1_555
O1F Cd1 1_555 1_555
O2F Cd1 1_555 1_555
C5 N3 1_555 1_555
C10 N4 1_555 1_555
C11 N4 1_555 1_555
C12 C13 1_555 1_555
N1 N2 1_555 1_555
N3 Cd1E 1_555 1_555
O2 Cd1F 1_555 1_555

#END
