
#######################################################################
#
#                 Cambridge Crystallographic Data Centre
#                                CCDC 
#
#######################################################################
#
# If this CIF has been generated from an entry in the Cambridge 
# Structural Database, then it will include bibliographic, chemical, 
# crystal, experimental, refinement or atomic coordinate data resulting 
# from the CCDC's data processing and validation procedures.
#
#######################################################################

data_MEFJOX
_symmetry_cell_setting           monoclinic
_symmetry_space_group_name_H-M   'P 21/n'
_symmetry_Int_Tables_number      14
_space_group_name_Hall           '-P 2yn'
loop_
_symmetry_equiv_pos_site_id
_symmetry_equiv_pos_as_xyz
1 x,y,z
2 1/2-x,1/2+y,1/2-z
3 -x,-y,-z
4 1/2+x,1/2-y,1/2+z
_cell_length_a                   14.2184(7)
_cell_length_b                   16.1171(7)
_cell_length_c                   25.1619(12)
_cell_angle_alpha                90
_cell_angle_beta                 91.885(2)
_cell_angle_gamma                90
_cell_volume                     5762.97
loop_
_atom_site_label
_atom_site_type_symbol
_atom_site_fract_x
_atom_site_fract_y
_atom_site_fract_z
Cd1 Cd 0.27320(2) 0.889339(19) 0.203180(13)
Cd2 Cd 0.12866(2) 1.14716(2) 0.208725(15)
C1 C 0.2219(4) 0.7798(4) 0.1151(2)
C2 C 0.1982(3) 0.6989(3) 0.08702(17)
C3 C 0.1132(4) 0.6592(3) 0.09492(18)
C4 C 0.0435(4) 0.6916(3) 0.1267(2)
H1 H 0.0548 0.7418 0.1440
C5 C -0.0412(4) 0.6526(4) 0.1336(2)
H2 H -0.0857 0.6756 0.1555
C6 C -0.0592(5) 0.5772(4) 0.1070(3)
H3 H -0.1171 0.5512 0.1103
C7 C 0.0051(5) 0.5432(4) 0.0772(3)
H4 H -0.0080 0.4928 0.0605
C8 C 0.0920(4) 0.5807(3) 0.0702(2)
C9 C 0.1608(5) 0.5457(3) 0.0397(2)
H5 H 0.1492 0.4938 0.0247
C10 C 0.2456(4) 0.5836(3) 0.03020(19)
C11 C 0.3146(5) 0.5480(4) -0.0030(2)
H6 H 0.3044 0.4955 -0.0175
C12 C 0.3942(5) 0.5893(4) -0.0136(2)
H7 H 0.4374 0.5657 -0.0362
C13 C 0.4129(4) 0.6679(4) 0.0089(2)
H8 H 0.4682 0.6956 0.0012
C14 C 0.3510(4) 0.7033(3) 0.0418(2)
H9 H 0.3649 0.7548 0.0566
C15 C 0.2644(4) 0.6630(3) 0.05418(18)
C16 C 0.0904(4) 0.9443(4) 0.22253(17)
C17 C -0.0100(3) 0.9589(3) 0.2345(2)
C18 C -0.0300(4) 0.9923(3) 0.2854(3)
C19 C 0.0415(5) 1.0084(4) 0.3256(3)
H10 H 0.1036 0.9961 0.3183
C20 C 0.0226(7) 1.0407(4) 0.3739(3)
H11 H 0.0698 1.0511 0.3995
C21 C -0.0714(9) 1.0572(5) 0.3828(4)
H12 H -0.0835 1.0796 0.4159
C22 C -0.1460(7) 1.0457(5) 0.3510(4)
H13 H -0.2068 1.0596 0.3603
C23 C -0.1228(7) 1.0074(4) 0.2979(5)
C24 C -0.1917(6) 0.9922(5) 0.2616(6)
H14 H -0.2528 1.0063 0.2703
C25 C -0.1782(6) 0.9558(5) 0.2105(5)
C26 C -0.2465(8) 0.9350(6) 0.1735(6)
H15 H -0.3090 0.9436 0.1818
C27 C -0.2282(9) 0.9026(7) 0.1257(6)
H16 H -0.2772 0.8925 0.1011
C28 C -0.1363(7) 0.8842(4) 0.1129(3)
H17 H -0.1247 0.8580 0.0808
C29 C -0.0591(5) 0.9050(3) 0.1484(3)
H18 H 0.0028 0.8960 0.1389
C30 C -0.0791(4) 0.9383(3) 0.1969(3)
C31 C 0.4247(4) 0.9714(3) 0.16182(19)
C32 C 0.4949(3) 1.0240(3) 0.1340(2)
C33 C 0.5126(3) 1.1060(3) 0.1500(2)
C34 C 0.4742(3) 1.1417(4) 0.1965(2)
H19 H 0.4373 1.1086 0.2178
C35 C 0.4892(5) 1.2210(4) 0.2106(3)
H20 H 0.4615 1.2426 0.2406
C36 C 0.5469(6) 1.2710(5) 0.1798(4)
H21 H 0.5572 1.3259 0.1896
C37 C 0.5874(4) 1.2411(4) 0.1364(3)
H22 H 0.6258 1.2756 0.1169
C38 C 0.5728(4) 1.1569(4) 0.1193(3)
C39 C 0.6149(3) 1.1236(4) 0.0759(3)
H23 H 0.6540 1.1568 0.0559
C40 C 0.6001(4) 1.0413(5) 0.0610(2)
C41 C 0.6434(4) 1.0050(6) 0.0146(3)
H24 H 0.6841 1.0367 -0.0053
C42 C 0.6250(5) 0.9269(6) 0.0007(3)
H25 H 0.6539 0.9045 -0.0287
C43 C 0.5644(5) 0.8789(4) 0.0287(3)
H26 H 0.5521 0.8249 0.0174
C44 C 0.5224(3) 0.9078(3) 0.0719(2)
H27 H 0.4823 0.8734 0.0903
C45 C 0.5386(3) 0.9907(3) 0.0901(2)
C46 C 0.3353(3) 0.8476(4) 0.3073(2)
C47 C 0.3759(4) 0.8387(2) 0.36283(18)
C48 C 0.3167(4) 0.8243(3) 0.4051(2)
C49 C 0.2156(4) 0.8252(3) 0.3984(2)
H28 H 0.1885 0.8340 0.3647
C50 C 0.1597(5) 0.8138(4) 0.4397(4)
H29 H 0.0946 0.8149 0.4346
C51 C 0.1993(7) 0.8002(4) 0.4899(4)
H30 H 0.1597 0.7937 0.5183
C52 C 0.2942(7) 0.7959(3) 0.4994(3)
H31 H 0.3187 0.7849 0.5334
C53 C 0.3559(5) 0.8087(3) 0.4558(2)
C54 C 0.4519(6) 0.8066(3) 0.4632(2)
H32 H 0.4776 0.7932 0.4966
C55 C 0.5115(4) 0.8238(3) 0.4223(3)
C56 C 0.6106(6) 0.8284(4) 0.4297(3)
H33 H 0.6378 0.8153 0.4628
C57 C 0.6653(5) 0.8509(4) 0.3909(4)
H34 H 0.7298 0.8542 0.3978
C58 C 0.6294(5) 0.8705(3) 0.3381(3)
H35 H 0.6691 0.8864 0.3112
C59 C 0.5343(4) 0.8647(3) 0.3294(2)
H36 H 0.5086 0.8761 0.2957
C60 C 0.4740(3) 0.8415(2) 0.3707(2)
C61 C -0.0855(7) 1.0914(4) 0.0742(4)
H37 H -0.1067 1.0738 0.0407
C62 C -0.1371(5) 1.1216(4) 0.1156(4)
H38 H -0.2022 1.1279 0.1156
C63 C -0.0752(5) 1.1407(3) 0.1569(3)
C64 C -0.0901(6) 1.1758(4) 0.2103(4)
C65 C -0.1767(7) 1.1948(4) 0.2229(4)
H39 H -0.2273 1.1833 0.1997
C66 C -0.1899(7) 1.2309(6) 0.2699(6)
H40 H -0.2503 1.2445 0.2800
C67 C -0.1084(9) 1.2492(4) 0.3056(4)
H41 H -0.1132 1.2766 0.3379
C68 C -0.0267(6) 1.2225(4) 0.2869(4)
H42 H 0.0267 1.2298 0.3087
N1 N -0.0142(4) 1.1859(3) 0.2394(3)
N2 N 0.0155(4) 1.1252(3) 0.1433(2)
N3 N 0.0071(5) 1.0939(3) 0.0955(3)
H43 H 0.0546 1.0762 0.0784
O1 O 0.3401(2) 0.99512(18) 0.16006(12)
O3 O 0.4489(2) 0.9079(2) 0.18462(14)
O4 O 0.1438(2) 1.0035(2) 0.21358(12)
O5 O 0.1192(2) 0.8709(2) 0.22258(12)
O6 O 0.3132(2) 0.9205(2) 0.29127(13)
O7 O 0.3252(2) 0.7861(2) 0.27875(13)
O8 O 0.2682(2) 0.7726(2) 0.15771(15)
O9 O 0.1935(3) 0.8451(2) 0.09680(16)
O10 O 0.2472(2) 1.1363(2) 0.14757(15)
H44 H 0.2750 1.0921 0.1520
O11 O 0.2249(3) 1.1317(2) 0.28021(16)
H45 H 0.2254 1.1746 0.2978
Cd2A Cd 0.37134(2) 0.64716(2) 0.291275(15)
O7A O 0.1748(2) 1.2861(2) 0.22125(13)
O2 O 0.1622(3) 1.0040(3) 0.06124(19)
loop_
_geom_bond_atom_site_label_1
_geom_bond_atom_site_label_2
_geom_bond_site_symmetry_1
_geom_bond_site_symmetry_2
Cd1 O1 1_555 1_555
Cd2 N1 1_555 1_555
C1 C2 1_555 1_555
C2 C3 1_555 1_555
C3 C4 1_555 1_555
C4 H1 1_555 1_555
C5 C4 1_555 1_555
H2 C5 1_555 1_555
C6 C5 1_555 1_555
H3 C6 1_555 1_555
C7 C6 1_555 1_555
H4 C7 1_555 1_555
C8 C3 1_555 1_555
C9 C8 1_555 1_555
H5 C9 1_555 1_555
C10 C9 1_555 1_555
C11 C10 1_555 1_555
H6 C11 1_555 1_555
C12 C11 1_555 1_555
H7 C12 1_555 1_555
C13 C12 1_555 1_555
H8 C13 1_555 1_555
C14 C13 1_555 1_555
H9 C14 1_555 1_555
C15 C2 1_555 1_555
C16 C17 1_555 1_555
C17 C18 1_555 1_555
C18 C19 1_555 1_555
C19 H10 1_555 1_555
C20 C19 1_555 1_555
H11 C20 1_555 1_555
C21 C20 1_555 1_555
H12 C21 1_555 1_555
C22 C21 1_555 1_555
H13 C22 1_555 1_555
C23 C18 1_555 1_555
C24 C23 1_555 1_555
H14 C24 1_555 1_555
C25 C24 1_555 1_555
C26 C25 1_555 1_555
H15 C26 1_555 1_555
C27 C26 1_555 1_555
H16 C27 1_555 1_555
C28 C27 1_555 1_555
H17 C28 1_555 1_555
C29 C28 1_555 1_555
H18 C29 1_555 1_555
C30 C17 1_555 1_555
C31 C32 1_555 1_555
C32 C33 1_555 1_555
C33 C34 1_555 1_555
C34 H19 1_555 1_555
C35 C34 1_555 1_555
H20 C35 1_555 1_555
C36 C35 1_555 1_555
H21 C36 1_555 1_555
C37 C36 1_555 1_555
H22 C37 1_555 1_555
C38 C33 1_555 1_555
C39 C38 1_555 1_555
H23 C39 1_555 1_555
C40 C39 1_555 1_555
C41 C40 1_555 1_555
H24 C41 1_555 1_555
C42 C41 1_555 1_555
H25 C42 1_555 1_555
C43 C42 1_555 1_555
H26 C43 1_555 1_555
C44 C43 1_555 1_555
H27 C44 1_555 1_555
C45 C32 1_555 1_555
C46 C47 1_555 1_555
C47 C48 1_555 1_555
C48 C49 1_555 1_555
C49 H28 1_555 1_555
C50 C49 1_555 1_555
H29 C50 1_555 1_555
C51 C50 1_555 1_555
H30 C51 1_555 1_555
C52 C51 1_555 1_555
H31 C52 1_555 1_555
C53 C48 1_555 1_555
C54 C53 1_555 1_555
H32 C54 1_555 1_555
C55 C54 1_555 1_555
C56 C55 1_555 1_555
H33 C56 1_555 1_555
C57 C56 1_555 1_555
H34 C57 1_555 1_555
C58 C57 1_555 1_555
H35 C58 1_555 1_555
C59 C58 1_555 1_555
H36 C59 1_555 1_555
C60 C47 1_555 1_555
C61 H37 1_555 1_555
C62 C61 1_555 1_555
H38 C62 1_555 1_555
C63 C62 1_555 1_555
C64 C63 1_555 1_555
C65 C64 1_555 1_555
H39 C65 1_555 1_555
C66 C65 1_555 1_555
H40 C66 1_555 1_555
C67 C66 1_555 1_555
H41 C67 1_555 1_555
C68 C67 1_555 1_555
H42 C68 1_555 1_555
N1 C64 1_555 1_555
N2 Cd2 1_555 1_555
N3 C61 1_555 1_555
H43 N3 1_555 1_555
O1 C31 1_555 1_555
O3 Cd1 1_555 1_555
O4 Cd1 1_555 1_555
O5 Cd1 1_555 1_555
O6 Cd1 1_555 1_555
O7 Cd1 1_555 1_555
O8 Cd1 1_555 1_555
O9 C1 1_555 1_555
O10 Cd2 1_555 1_555
H44 O10 1_555 1_555
O11 Cd2 1_555 1_555
H45 O11 1_555 1_555
Cd2A O7 1_555 1_555
O7A Cd2 1_555 1_555
Cd2 O4 1_555 1_555
C1 O8 1_555 1_555
C7 C8 1_555 1_555
C10 C15 1_555 1_555
C14 C15 1_555 1_555
C16 O4 1_555 1_555
C16 O5 1_555 1_555
C22 C23 1_555 1_555
C25 C30 1_555 1_555
C29 C30 1_555 1_555
C31 O3 1_555 1_555
C37 C38 1_555 1_555
C40 C45 1_555 1_555
C44 C45 1_555 1_555
C46 O6 1_555 1_555
C46 O7 1_555 1_555
C52 C53 1_555 1_555
C55 C60 1_555 1_555
C59 C60 1_555 1_555
C63 N2 1_555 1_555
C68 N1 1_555 1_555
N2 N3 1_555 1_555

#END
