
#######################################################################
#
#                 Cambridge Crystallographic Data Centre
#                                CCDC 
#
#######################################################################
#
# If this CIF has been generated from an entry in the Cambridge 
# Structural Database, then it will include bibliographic, chemical, 
# crystal, experimental, refinement or atomic coordinate data resulting 
# from the CCDC's data processing and validation procedures.
#
#######################################################################

data_MEFKUE
_symmetry_cell_setting           monoclinic
_symmetry_space_group_name_H-M   'C 2/c'
_symmetry_Int_Tables_number      15
_space_group_name_Hall           '-C 2yn'
loop_
_symmetry_equiv_pos_site_id
_symmetry_equiv_pos_as_xyz
1 x,y,z
2 1/2+x,1/2+y,z
3 -x,y,1/2-z
4 1/2-x,1/2+y,1/2-z
5 -x,-y,-z
6 1/2-x,1/2-y,-z
7 x,-y,1/2+z
8 1/2+x,1/2-y,1/2+z
_cell_length_a                   24.126(6)
_cell_length_b                   8.357(2)
_cell_length_c                   27.559(7)
_cell_angle_alpha                90
_cell_angle_beta                 112.233(4)
_cell_angle_gamma                90
_cell_volume                     5143.36
loop_
_atom_site_label
_atom_site_type_symbol
_atom_site_fract_x
_atom_site_fract_y
_atom_site_fract_z
Ag1 Ag 0.36531(4) 1.28509(11) 0.11042(5)
C1 C 0.3074(3) 1.6659(9) 0.1051(3)
C2 C 0.3118(3) 1.6423(8) 0.0561(3)
C3 C 0.2789(3) 1.5226(9) 0.0200(3)
H1 H 0.2550 1.4529 0.0299
C4 C 0.2811(4) 1.5061(10) -0.0276(3)
H2 H 0.2590 1.4262 -0.0501
C5 C 0.3174(4) 1.6116(10) -0.0436(3)
H3 H 0.3184 1.6014 -0.0769
C6 C 0.3504(4) 1.7268(9) -0.0106(3)
H4 H 0.3739 1.7942 -0.0217
C7 C 0.3501(3) 1.7470(8) 0.0405(3)
C8 C 0.3842(3) 1.8631(8) 0.0756(3)
C9 C 0.3817(3) 1.8799(10) 0.1257(3)
C10 C 0.4177(4) 1.9952(12) 0.1635(4)
H5 H 0.4450 2.0583 0.1557
C11 C 0.4117(6) 2.0124(16) 0.2114(4)
H6 H 0.4357 2.0834 0.2366
C12 C 0.3685(7) 1.9199(19) 0.2207(5)
H7 H 0.3617 1.9385 0.2513
C13 C 0.3373(6) 1.8099(12) 0.1891(4)
H8 H 0.3118 1.7464 0.1990
C14 C 0.3414(4) 1.7841(10) 0.1395(3)
C15 C 0.2659(4) 1.5598(11) 0.1204(4)
H9 H 0.2357 1.5119 0.0897
H10 H 0.2460 1.6208 0.1391
C16 C 0.2722(8) 1.3070(19) 0.1976(6)
H11 H 0.2986 1.2504 0.2284
H12 H 0.2489 1.3843 0.2081
C17 C 0.2321(7) 1.192(2) 0.1572(6)
H13 H 0.2556 1.1164 0.1464
H14 H 0.2056 1.2495 0.1266
C18 C 0.1955(9) 1.105(2) 0.1857(7)
H15 H 0.2220 1.0393 0.2134
H16 H 0.1653 1.0389 0.1611
H17 H 0.1769 1.1828 0.2002
C19 C 0.4213(3) 1.9783(9) 0.0583(4)
H18 H 0.4319 1.9301 0.0309
H19 H 0.4579 2.0045 0.0876
C20 C 0.4302(5) 2.2868(11) 0.0206(5)
H20 H 0.4154 2.3959 0.0153
H21 H 0.4678 2.2858 0.0508
C21 C 0.4412(8) 2.2304(17) -0.0279(6)
H22 H 0.4632 2.1305 -0.0192
H23 H 0.4026 2.2075 -0.0553
C22 C 0.4729(7) 2.337(2) -0.0490(7)
H24 H 0.4530 2.4391 -0.0562
H25 H 0.4739 2.2933 -0.0808
H26 H 0.5131 2.3511 -0.0240
C23 C 0.4974(6) 1.509(2) 0.1756(7)
C24 C 0.5465(9) 1.627(3) 0.2011(10)
H27 H 0.5503 1.6971 0.1749
H28 H 0.5835 1.5705 0.2181
H29 H 0.5374 1.6883 0.2265
N1 N 0.4454(5) 1.4428(18) 0.1402(7)
S1 S 0.31443(16) 1.4040(4) 0.16335(16)
S2 S 0.37681(9) 2.1602(3) 0.03348(11)
Ag1_2 Ag 0.36531(4) 2.28509(11) 0.11042(5)
S2_2 S 0.37681(9) 1.1602(3) 0.03348(11)
Cl1 Cl 0.09981(11) 0.6486(4) 0.14129(11)
O3 O 0.1606(3) 0.635(2) 0.1697(5)
O5 O 0.0822(12) 0.795(2) 0.1135(12)
O6 O 0.0566(6) 0.585(4) 0.1578(8)
O7 O 0.113(2) 0.527(4) 0.1109(17)
O1? O 0.0786(8) 0.686(4) 0.0876(4)
O2? O 0.0771(12) 0.749(3) 0.1717(9)
O4? O 0.0759(13) 0.489(2) 0.1431(9)
loop_
_geom_bond_atom_site_label_1
_geom_bond_atom_site_label_2
_geom_bond_site_symmetry_1
_geom_bond_site_symmetry_2
Ag1 N1 1_555 1_555
C1 C2 1_555 1_555
C2 C3 1_555 1_555
C3 H1 1_555 1_555
C4 C3 1_555 1_555
H2 C4 1_555 1_555
C5 C4 1_555 1_555
H3 C5 1_555 1_555
C6 C5 1_555 1_555
H4 C6 1_555 1_555
C7 C2 1_555 1_555
C8 C7 1_555 1_555
C9 C8 1_555 1_555
C10 C9 1_555 1_555
H5 C10 1_555 1_555
C11 C10 1_555 1_555
H6 C11 1_555 1_555
C12 C11 1_555 1_555
H7 C12 1_555 1_555
C13 C12 1_555 1_555
H8 C13 1_555 1_555
C14 C1 1_555 1_555
C15 C1 1_555 1_555
H9 C15 1_555 1_555
H10 C15 1_555 1_555
C16 H11 1_555 1_555
H12 C16 1_555 1_555
C17 C16 1_555 1_555
H13 C17 1_555 1_555
H14 C17 1_555 1_555
C18 C17 1_555 1_555
H15 C18 1_555 1_555
H16 C18 1_555 1_555
H17 C18 1_555 1_555
C19 C8 1_555 1_555
H18 C19 1_555 1_555
H19 C19 1_555 1_555
C20 H20 1_555 1_555
H21 C20 1_555 1_555
C21 C20 1_555 1_555
H22 C21 1_555 1_555
H23 C21 1_555 1_555
C22 C21 1_555 1_555
H24 C22 1_555 1_555
H25 C22 1_555 1_555
H26 C22 1_555 1_555
C23 C24 1_555 1_555
C24 H27 1_555 1_555
H28 C24 1_555 1_555
H29 C24 1_555 1_555
Cl1 O3 1_555 1_555
N1 C23 1_555 1_555
O5 Cl1 1_555 1_555
O6 Cl1 1_555 1_555
O7 Cl1 1_555 1_555
S1 Ag1 1_555 1_555
S2 C19 1_555 1_555
Ag1_2 S2 1_555 1_555
S2_2 Ag1 1_555 1_555
C6 C7 1_555 1_555
C9 C14 1_555 1_555
C13 C14 1_555 1_555
C15 S1 1_555 1_555
C16 S1 1_555 1_555
C20 S2 1_555 1_555

#END
