
#######################################################################
#
#                 Cambridge Crystallographic Data Centre
#                                CCDC 
#
#######################################################################
#
# If this CIF has been generated from an entry in the Cambridge 
# Structural Database, then it will include bibliographic, chemical, 
# crystal, experimental, refinement or atomic coordinate data resulting 
# from the CCDC's data processing and validation procedures.
#
#######################################################################

data_MEFMEQ
_symmetry_cell_setting           monoclinic
_symmetry_space_group_name_H-M   'P 21/n'
_symmetry_Int_Tables_number      14
_space_group_name_Hall           '-P 2yn'
loop_
_symmetry_equiv_pos_site_id
_symmetry_equiv_pos_as_xyz
1 x,y,z
2 1/2-x,1/2+y,1/2-z
3 -x,-y,-z
4 1/2+x,1/2-y,1/2+z
_cell_length_a                   10.676(3)
_cell_length_b                   10.220(3)
_cell_length_c                   21.095(5)
_cell_angle_alpha                90
_cell_angle_beta                 100.699(6)
_cell_angle_gamma                90
_cell_volume                     2261.64
loop_
_atom_site_label
_atom_site_type_symbol
_atom_site_fract_x
_atom_site_fract_y
_atom_site_fract_z
Cu1 Cu 0.32442(9) 0.72980(10) 1.19993(4)
S1 S 0.7101(2) 0.4555(2) 1.03241(11)
S2 S 0.8028(2) 0.5982(2) 0.99339(10)
O1 O 0.4674(5) 0.7582(6) 1.2698(3)
O2 O 0.5124(7) 0.7382(7) 1.3768(3)
O3 O 0.2232(6) 0.7900(5) 1.2649(3)
H1 H 0.200(8) 0.868(8) 1.263(4)
O4 O 0.2946(6) 0.5234(5) 1.2743(3)
O5 O 0.1784(6) 0.4370(6) 1.3413(3)
N1 N 0.4404(6) 0.6488(8) 1.1462(3)
N2 N 1.1663(6) 0.6849(6) 1.1378(3)
C1 C 0.4597(8) 0.5229(10) 1.1464(4)
H2 H 0.4143 0.4704 1.1702
C2 C 0.5431(9) 0.4639(9) 1.1135(5)
H3 H 0.5558 0.3739 1.1159
C3 C 0.6085(7) 0.5408(10) 1.0766(4)
C4 C 0.5905(8) 0.6731(10) 1.0762(4)
H4 H 0.6349 0.7283 1.0532
C5 C 0.5049(9) 0.7216(9) 1.1111(5)
H5 H 0.4908 0.8115 1.1101
C6 C 0.9427(7) 0.6278(8) 1.0518(4)
C7 C 0.9600(8) 0.5821(8) 1.1140(4)
H6 H 0.8978 0.5321 1.1282
C8 C 1.0719(9) 0.6127(8) 1.1546(4)
H7 H 1.0836 0.5814 1.1967
C9 C 1.1463(8) 0.7281(8) 1.0765(4)
H8 H 1.2096 0.7777 1.0632
C10 C 1.0352(8) 0.7021(8) 1.0322(4)
H9 H 1.0241 0.7344 0.9903
C11 C 0.4363(11) 0.7536(9) 1.3254(5)
C12 C 0.2975(9) 0.7712(8) 1.3273(3)
H10 H 0.2890 0.8499 1.3527
C13 C 0.2390(9) 0.6566(8) 1.3586(4)
H11 H 0.2867 0.6437 1.4020
H12 H 0.1521 0.6787 1.3620
C14 C 0.2383(9) 0.5290(9) 1.3211(4)
Cu1A Cu 0.17558(9) 0.22980(10) 1.30007(4)
Cu1_2 Cu 1.32442(9) 0.72980(10) 1.19993(4)
O5A O 0.3216(6) 0.9370(6) 1.1587(3)
N2_2 N 0.1663(6) 0.6849(6) 1.1378(3)
O6 O 0.8239(16) 0.421(3) 0.2449(8)
O7 O 0.881(2) -0.0073(15) 0.0447(11)
O8 O 0.667(4) 0.138(2) 0.1147(16)
O9 O 0.3647(19) 0.9745(18) 0.0018(10)
O10 O 0.620(2) 0.200(4) 0.227(2)
O11 O 0.871(3) 0.926(2) 0.1803(13)
loop_
_geom_bond_atom_site_label_1
_geom_bond_atom_site_label_2
_geom_bond_site_symmetry_1
_geom_bond_site_symmetry_2
Cu1 O1 1_555 1_555
S1 S2 1_555 1_555
S2 C6 1_555 1_555
O1 C11 1_555 1_555
O2 C11 1_555 1_555
O3 Cu1 1_555 1_555
H1 O3 1_555 1_555
O4 Cu1 1_555 1_555
O5 C14 1_555 1_555
N1 Cu1 1_555 1_555
N2 C8 1_555 1_555
C1 N1 1_555 1_555
H2 C1 1_555 1_555
C2 C1 1_555 1_555
H3 C2 1_555 1_555
C3 S1 1_555 1_555
C4 C3 1_555 1_555
H4 C4 1_555 1_555
C5 N1 1_555 1_555
H5 C5 1_555 1_555
C6 C7 1_555 1_555
C7 H6 1_555 1_555
C8 C7 1_555 1_555
H7 C8 1_555 1_555
C9 N2 1_555 1_555
H8 C9 1_555 1_555
C10 C6 1_555 1_555
H9 C10 1_555 1_555
C11 C12 1_555 1_555
C12 O3 1_555 1_555
H10 C12 1_555 1_555
C13 C12 1_555 1_555
H11 C13 1_555 1_555
H12 C13 1_555 1_555
C14 O4 1_555 1_555
Cu1A O5 1_555 1_555
Cu1_2 N2 1_555 1_555
O5A Cu1 1_555 1_555
N2_2 Cu1 1_555 1_555
C2 C3 1_555 1_555
C4 C5 1_555 1_555
C9 C10 1_555 1_555
C13 C14 1_555 1_555

#END
