
#######################################################################
#
#                 Cambridge Crystallographic Data Centre
#                                CCDC 
#
#######################################################################
#
# If this CIF has been generated from an entry in the Cambridge 
# Structural Database, then it will include bibliographic, chemical, 
# crystal, experimental, refinement or atomic coordinate data resulting 
# from the CCDC's data processing and validation procedures.
#
#######################################################################

data_MEFREW
_symmetry_cell_setting           monoclinic
_symmetry_space_group_name_H-M   'P 21/c'
_symmetry_Int_Tables_number      14
_space_group_name_Hall           '-P 2ybc'
loop_
_symmetry_equiv_pos_site_id
_symmetry_equiv_pos_as_xyz
1 x,y,z
2 -x,1/2+y,1/2-z
3 -x,-y,-z
4 x,1/2-y,1/2+z
_cell_length_a                   14.4674(17)
_cell_length_b                   7.0989(8)
_cell_length_c                   15.5305(19)
_cell_angle_alpha                90
_cell_angle_beta                 98.555(6)
_cell_angle_gamma                90
_cell_volume                     1577.28
loop_
_atom_site_label
_atom_site_type_symbol
_atom_site_fract_x
_atom_site_fract_y
_atom_site_fract_z
C1 C 0.80107(16) 0.5186(4) 0.05509(15)
C2 C 0.71103(16) 0.4164(3) 0.06384(16)
H1 H 0.6732 0.4943 0.0962
H2 H 0.6760 0.3945 0.0065
C3 C 0.65425(15) 0.1354(3) 0.12226(14)
C4 C 0.56310(16) 0.1760(3) 0.09225(15)
H3 H 0.5482 0.2841 0.0593
C5 C 0.49110(14) 0.0551(4) 0.11082(14)
C6 C 0.39527(16) 0.0963(4) 0.08298(16)
H4 H 0.3787 0.2045 0.0506
C7 C 0.32750(16) -0.0215(4) 0.10337(16)
H5 H 0.2650 0.0085 0.0858
C8 C 0.35069(18) -0.1859(4) 0.15013(19)
H6 H 0.3036 -0.2651 0.1634
C9 C 0.44248(17) -0.2325(4) 0.17693(17)
H7 H 0.4574 -0.3443 0.2070
C10 C 0.51428(15) -0.1111(4) 0.15892(14)
C11 C 0.61006(15) -0.1486(3) 0.19077(15)
H8 H 0.6263 -0.2566 0.2235
H9 H 0.8597 -0.1047 0.0369
H10 H 0.9540 -0.0797 0.0479
H11 H 0.8936 0.2590 0.3332
H12 H 0.8911 0.4263 0.2961
C12 C 0.67761(14) -0.0281(3) 0.17365(14)
C13 C 0.79968(15) -0.1922(3) 0.26384(17)
H15 H 0.7794 -0.3135 0.2393
H16 H 0.7713 -0.1726 0.3159
C14 C 0.90496(15) -0.1887(3) 0.28637(15)
Cd1 Cd 0.900261(11) 0.17700(3) 0.165076(11)
O1 O 0.87834(11) 0.4417(3) 0.08272(12)
O2 O 0.79036(15) 0.6723(3) 0.01933(19)
O3 O 0.72964(10) 0.2414(3) 0.10741(11)
O4 O 0.77167(10) -0.0469(2) 0.20254(11)
O5 O 0.95120(10) -0.0648(3) 0.25666(12)
O6 O 0.93975(11) -0.3183(2) 0.33554(12)
O7 O 0.90047(13) -0.0148(3) 0.04664(13)
O8 O 0.86228(12) 0.3245(2) 0.28579(13)
Cd1A Cd 1.099739(11) -0.32300(3) 0.334924(11)
O6A O 1.06025(11) 0.1817(2) 0.16446(12)
H13 H 0.9424 0.1393 0.4791
H14 H 1.0087 0.0842 0.4183
O9 O 0.96102(18) 0.1750(3) 0.43001(14)
loop_
_geom_bond_atom_site_label_1
_geom_bond_atom_site_label_2
_geom_bond_site_symmetry_1
_geom_bond_site_symmetry_2
C1 C2 1_555 1_555
C2 H1 1_555 1_555
H2 C2 1_555 1_555
C3 C4 1_555 1_555
C4 H3 1_555 1_555
C5 C4 1_555 1_555
C6 C5 1_555 1_555
H4 C6 1_555 1_555
C7 C6 1_555 1_555
H5 C7 1_555 1_555
C8 C7 1_555 1_555
H6 C8 1_555 1_555
C9 C8 1_555 1_555
H7 C9 1_555 1_555
C10 C5 1_555 1_555
C11 C10 1_555 1_555
H8 C11 1_555 1_555
H9 O7 1_555 1_555
H10 O7 1_555 1_555
H11 O8 1_555 1_555
H12 O8 1_555 1_555
H13 O9 1_555 1_555
H14 O9 1_555 1_555
C12 C3 1_555 1_555
C13 H15 1_555 1_555
H16 C13 1_555 1_555
C14 C13 1_555 1_555
Cd1 O1 1_555 1_555
O1 C1 1_555 1_555
O2 C1 1_555 1_555
O3 C2 1_555 1_555
O4 C12 1_555 1_555
O5 C14 1_555 1_555
O6 C14 1_555 1_555
O7 Cd1 1_555 1_555
O8 Cd1 1_555 1_555
Cd1A O6 1_555 1_555
O6A Cd1 1_555 1_555
C3 O3 1_555 1_555
C9 C10 1_555 1_555
C11 C12 1_555 1_555
C13 O4 1_555 1_555
Cd1 O3 1_555 1_555
Cd1 O4 1_555 1_555
Cd1 O5 1_555 1_555

#END
