
#######################################################################
#
#                 Cambridge Crystallographic Data Centre
#                                CCDC 
#
#######################################################################
#
# If this CIF has been generated from an entry in the Cambridge 
# Structural Database, then it will include bibliographic, chemical, 
# crystal, experimental, refinement or atomic coordinate data resulting 
# from the CCDC's data processing and validation procedures.
#
#######################################################################

data_MEFRAS
_symmetry_cell_setting           orthorhombic
_symmetry_space_group_name_H-M   'P n a 21'
_symmetry_Int_Tables_number      33
_space_group_name_Hall           'P 2c -2n'
loop_
_symmetry_equiv_pos_site_id
_symmetry_equiv_pos_as_xyz
1 x,y,z
2 -x,-y,1/2+z
3 1/2+x,1/2-y,z
4 1/2-x,1/2+y,1/2+z
_cell_length_a                   17.8984(5)
_cell_length_b                   12.7479(3)
_cell_length_c                   14.0723(4)
_cell_angle_alpha                90
_cell_angle_beta                 90
_cell_angle_gamma                90
_cell_volume                     3210.83
loop_
_atom_site_label
_atom_site_type_symbol
_atom_site_fract_x
_atom_site_fract_y
_atom_site_fract_z
O1 O 0.64147(12) 0.35178(19) 1.1823(2)
C1 C 0.58693(17) 0.3052(2) 1.1469(2)
Ni1 Ni 0.854825(18) -0.03376(3) 0.78695(4)
C2 C 0.8575(2) -0.0291(3) 1.2596(4)
H1 H 0.9092 -0.0258 1.2538
C3 C 0.8121(2) 0.0345(2) 1.2008(3)
C4 C 0.7340(2) 0.0264(3) 1.2104(3)
C5 C 0.71564(19) 0.1620(3) 1.0899(3)
C6 C 0.7045(2) -0.0434(3) 1.2747(4)
H2 H 0.6529 -0.0497 1.2789
C7 C 0.79547(19) 0.1678(3) 1.0774(3)
C8 C 0.6867(2) 0.0924(3) 1.1545(3)
H3 H 0.6351 0.0880 1.1620
C9 C 0.7477(3) -0.1036(3) 1.3326(4)
H4 H 0.7260 -0.1492 1.3761
C10 C 0.8260(3) -0.0956(3) 1.3252(3)
H5 H 0.8564 -0.1354 1.3648
C11 C 0.8414(2) 0.1057(3) 1.1334(3)
H6 H 0.8929 0.1110 1.1264
O2 O 0.81939(12) 0.23654(18) 1.01233(18)
C12 C 0.91196(18) 0.1300(3) 0.9242(3)
C13 C 0.89591(18) 0.2267(3) 0.9831(3)
H7 H 0.9273 0.2253 1.0392
H8 H 0.9095 0.2883 0.9465
O3 O 0.85641(13) 0.08183(19) 0.88980(19)
O4 O 0.97828(15) 0.1095(2) 0.9108(2)
N1 N 0.80833(16) -0.1439(2) 0.8847(2)
C14 C 0.8097(3) -0.1273(3) 0.9789(3)
H9 H 0.8288 -0.0639 1.0008
C15 C 0.7783(2) -0.2345(3) 0.8556(3)
H10 H 0.7745 -0.2477 0.7908
O5 O 0.52000(13) 0.3099(2) 1.17342(19)
O6 O 0.67685(13) 0.22613(19) 1.03378(19)
C16 C 0.59945(18) 0.2412(3) 1.0562(3)
H11 H 0.5759 0.1732 1.0635
H12 H 0.5754 0.2767 1.0034
C17 C 0.7559(3) -0.2907(4) 1.0132(4)
H13 H 0.7388 -0.3404 1.0564
C18 C 0.7528(3) -0.3090(3) 0.9188(4)
H14 H 0.7334 -0.3720 0.8964
C19 C 0.7849(4) -0.1973(4) 1.0440(4)
H15 H 0.7875 -0.1822 1.1085
N2 N 0.74610(16) 0.0087(2) 0.7434(2)
C20 C 0.70939(19) 0.0887(3) 0.7836(4)
H16 H 0.7326 0.1259 0.8322
C21 C 0.7107(2) -0.0440(3) 0.6741(3)
H17 H 0.7355 -0.0992 0.6447
C22 C 0.6023(3) 0.0621(4) 0.6870(4)
H18 H 0.5538 0.0788 0.6688
C23 C 0.6396(2) -0.0201(4) 0.6447(4)
H19 H 0.6169 -0.0589 0.5968
C24 C 0.6377(2) 0.1183(4) 0.7557(4)
H20 H 0.6144 0.1758 0.7837
O7 O 0.95905(14) -0.0810(2) 0.8343(2)
H21 H 0.9829 -0.1055 0.7898
N3 N 0.90189(17) 0.0782(2) 0.6887(2)
C25 C 0.9484(3) 0.0591(4) 0.6223(4)
H22 H 0.9606 -0.0109 0.6120
C26 C 0.8856(3) 0.1847(4) 0.7002(4)
H23 H 0.8508 0.2035 0.7463
C27 C 0.9838(3) 0.1348(4) 0.5621(5)
H24 H 1.0150 0.1146 0.5124
C28 C 0.9174(4) 0.2624(4) 0.6481(5)
H25 H 0.9048 0.3325 0.6570
C29 C 0.9708(4) 0.2308(5) 0.5794(5)
H26 H 0.9970 0.2819 0.5461
H32 H 0.980(2) -0.028(2) 0.843(3)
O1C O 0.85853(12) -0.14822(19) 0.6823(2)
Ni1C Ni 0.645175(18) 0.46624(3) 1.28695(4)
C30 C 0.4939(3) 0.0053(4) 0.4734(5)
H27 H 0.5068 -0.0457 0.5178
C31 C 0.4247(4) 0.0302(5) 0.4577(5)
H28 H 0.3881 -0.0048 0.4922
N4 N 0.4016(3) 0.1059(4) 0.3926(5)
C32 C 0.4577(3) 0.1545(4) 0.3400(4)
H29 H 0.4461 0.2044 0.2941
C33 C 0.5290(3) 0.1275(5) 0.3573(5)
H30 H 0.5677 0.1586 0.3235
C34 C 0.5437(4) 0.0538(5) 0.4252(5)
H31 H 0.5935 0.0378 0.4372
loop_
_geom_bond_atom_site_label_1
_geom_bond_atom_site_label_2
_geom_bond_site_symmetry_1
_geom_bond_site_symmetry_2
O1 C1 1_555 1_555
C1 O5 1_555 1_555
Ni1 O3 1_555 1_555
C2 H1 1_555 1_555
C3 C2 1_555 1_555
C4 C3 1_555 1_555
C5 C7 1_555 1_555
C6 C4 1_555 1_555
H2 C6 1_555 1_555
C7 C11 1_555 1_555
C8 C4 1_555 1_555
H3 C8 1_555 1_555
C9 C6 1_555 1_555
H4 C9 1_555 1_555
C10 C2 1_555 1_555
H5 C10 1_555 1_555
C11 C3 1_555 1_555
H6 C11 1_555 1_555
O2 C7 1_555 1_555
C12 C13 1_555 1_555
C13 O2 1_555 1_555
H7 C13 1_555 1_555
H8 C13 1_555 1_555
O3 C12 1_555 1_555
O4 C12 1_555 1_555
N1 Ni1 1_555 1_555
C14 N1 1_555 1_555
H9 C14 1_555 1_555
C15 N1 1_555 1_555
H10 C15 1_555 1_555
O6 C5 1_555 1_555
C16 C1 1_555 1_555
H11 C16 1_555 1_555
H12 C16 1_555 1_555
C17 H13 1_555 1_555
C18 C15 1_555 1_555
H14 C18 1_555 1_555
C19 C14 1_555 1_555
H15 C19 1_555 1_555
N2 Ni1 1_555 1_555
C20 N2 1_555 1_555
H16 C20 1_555 1_555
C21 N2 1_555 1_555
H17 C21 1_555 1_555
C22 H18 1_555 1_555
C23 C21 1_555 1_555
H19 C23 1_555 1_555
C24 C20 1_555 1_555
H20 C24 1_555 1_555
O7 Ni1 1_555 1_555
H21 O7 1_555 1_555
N3 Ni1 1_555 1_555
C25 N3 1_555 1_555
H22 C25 1_555 1_555
C26 N3 1_555 1_555
H23 C26 1_555 1_555
C27 C25 1_555 1_555
H24 C27 1_555 1_555
C28 C26 1_555 1_555
H25 C28 1_555 1_555
C29 C27 1_555 1_555
H26 C29 1_555 1_555
C30 H27 1_555 1_555
C31 C30 1_555 1_555
H28 C31 1_555 1_555
N4 C31 1_555 1_555
C32 N4 1_555 1_555
H29 C32 1_555 1_555
C33 C32 1_555 1_555
H30 C33 1_555 1_555
C34 C30 1_555 1_555
H31 C34 1_555 1_555
H32 O7 1_555 1_555
O1C Ni1 1_555 1_555
Ni1C O1 1_555 1_555
C5 C8 1_555 1_555
C9 C10 1_555 1_555
O6 C16 1_555 1_555
C17 C18 1_555 1_555
C17 C19 1_555 1_555
C22 C23 1_555 1_555
C22 C24 1_555 1_555
C28 C29 1_555 1_555
C33 C34 1_555 1_555

#END
