
#######################################################################
#
#                 Cambridge Crystallographic Data Centre
#                                CCDC 
#
#######################################################################
#
# If this CIF has been generated from an entry in the Cambridge 
# Structural Database, then it will include bibliographic, chemical, 
# crystal, experimental, refinement or atomic coordinate data resulting 
# from the CCDC's data processing and validation procedures.
#
#######################################################################

data_MEFSAS
_symmetry_cell_setting           monoclinic
_symmetry_space_group_name_H-M   'P 21/n'
_symmetry_Int_Tables_number      14
_space_group_name_Hall           '-P 2yn'
loop_
_symmetry_equiv_pos_site_id
_symmetry_equiv_pos_as_xyz
1 x,y,z
2 1/2-x,1/2+y,1/2-z
3 -x,-y,-z
4 1/2+x,1/2-y,1/2+z
_cell_length_a                   7.6800(15)
_cell_length_b                   19.870(4)
_cell_length_c                   10.650(2)
_cell_angle_alpha                90
_cell_angle_beta                 95.15(3)
_cell_angle_gamma                90
_cell_volume                     1618.65
loop_
_atom_site_label
_atom_site_type_symbol
_atom_site_fract_x
_atom_site_fract_y
_atom_site_fract_z
Co1 Co 0.76385(4) 0.859364(15) 0.21972(3)
O1 O 0.8778(2) 0.76655(9) 0.29997(18)
O2 O 1.0482(2) 0.85207(8) 0.26374(17)
O3 O 1.5055(2) 0.84360(9) 0.22140(19)
O4 O 1.3082(3) 0.78173(10) 0.10538(17)
N1 N 1.2884(3) 0.68265(11) 0.5353(2)
N2 N 0.7648(3) 0.90755(11) 0.4005(2)
N3 N 0.7417(3) 0.96148(11) 0.1678(2)
C1 C 1.1575(3) 0.71586(12) 0.4693(2)
H1 H 1.0455 0.7126 0.4956
C2 C 1.1815(3) 0.75490(12) 0.3634(2)
C3 C 1.3488(3) 0.76022(12) 0.3232(2)
C4 C 1.4828(3) 0.72550(14) 0.3902(3)
H2 H 1.5960 0.7278 0.3660
C5 C 1.4474(3) 0.68726(14) 0.4935(3)
H3 H 1.5388 0.6635 0.5361
C6 C 1.0272(3) 0.79330(12) 0.3044(2)
C7 C 1.3883(3) 0.79849(12) 0.2058(2)
C8 C 0.7804(5) 0.88045(16) 0.5147(3)
H4 H 0.7918 0.8340 0.5220
C9 C 0.7805(6) 0.9191(2) 0.6252(3)
H5 H 0.7957 0.8985 0.7039
C10 C 0.7582(6) 0.9872(2) 0.6159(4)
H6 H 0.7569 1.0132 0.6884
C11 C 0.7373(5) 1.01760(16) 0.4973(3)
C12 C 0.7098(6) 1.08830(18) 0.4777(4)
H7 H 0.7038 1.1163 0.5471
C13 C 0.6924(5) 1.11504(16) 0.3613(4)
H8 H 0.6729 1.1610 0.3519
C14 C 0.7034(4) 1.07404(14) 0.2511(4)
C15 C 0.6893(4) 1.09892(15) 0.1274(4)
H9 H 0.6715 1.1447 0.1128
C16 C 0.7018(5) 1.05620(17) 0.0283(4)
H10 H 0.6922 1.0724 -0.0540
C17 C 0.7292(4) 0.98736(15) 0.0525(3)
H11 H 0.7391 0.9586 -0.0154
C18 C 0.7289(4) 1.00379(13) 0.2671(3)
C19 C 0.7445(4) 0.97535(14) 0.3910(3)
Co1_2 Co 1.76385(4) 0.859364(15) 0.21972(3)
Co1C Co 1.26385(4) 0.640636(15) 0.71972(3)
O3_2 O 0.5055(2) 0.84360(9) 0.22140(19)
N1C N 0.7884(3) 0.81735(11) 0.0353(2)
loop_
_geom_bond_atom_site_label_1
_geom_bond_atom_site_label_2
_geom_bond_site_symmetry_1
_geom_bond_site_symmetry_2
Co1 O1 1_555 1_555
O1 C6 1_555 1_555
O2 Co1 1_555 1_555
O3 C7 1_555 1_555
O4 C7 1_555 1_555
N1 C1 1_555 1_555
N2 Co1 1_555 1_555
N3 Co1 1_555 1_555
C1 H1 1_555 1_555
C2 C1 1_555 1_555
C3 C2 1_555 1_555
C4 C3 1_555 1_555
H2 C4 1_555 1_555
C5 N1 1_555 1_555
H3 C5 1_555 1_555
C6 O2 1_555 1_555
C7 C3 1_555 1_555
C8 N2 1_555 1_555
H4 C8 1_555 1_555
C9 C8 1_555 1_555
H5 C9 1_555 1_555
C10 C9 1_555 1_555
H6 C10 1_555 1_555
C11 C10 1_555 1_555
C12 C11 1_555 1_555
H7 C12 1_555 1_555
C13 C12 1_555 1_555
H8 C13 1_555 1_555
C14 C13 1_555 1_555
C15 C14 1_555 1_555
H9 C15 1_555 1_555
C16 C15 1_555 1_555
H10 C16 1_555 1_555
C17 N3 1_555 1_555
H11 C17 1_555 1_555
C18 N3 1_555 1_555
C19 N2 1_555 1_555
Co1_2 O3 1_555 1_555
Co1C N1 1_555 1_555
O3_2 Co1 1_555 1_555
N1C Co1 1_555 1_555
C2 C6 1_555 1_555
C4 C5 1_555 1_555
C11 C19 1_555 1_555
C14 C18 1_555 1_555
C16 C17 1_555 1_555
C18 C19 1_555 1_555

#END
