
#######################################################################
#
#                 Cambridge Crystallographic Data Centre
#                                CCDC 
#
#######################################################################
#
# If this CIF has been generated from an entry in the Cambridge 
# Structural Database, then it will include bibliographic, chemical, 
# crystal, experimental, refinement or atomic coordinate data resulting 
# from the CCDC's data processing and validation procedures.
#
#######################################################################

data_MEFTEY
_symmetry_cell_setting           monoclinic
_symmetry_space_group_name_H-M   'P 21/c'
_symmetry_Int_Tables_number      14
_space_group_name_Hall           '-P 2ybc'
loop_
_symmetry_equiv_pos_site_id
_symmetry_equiv_pos_as_xyz
1 x,y,z
2 -x,1/2+y,1/2-z
3 -x,-y,-z
4 x,1/2-y,1/2+z
_cell_length_a                   9.7080(10)
_cell_length_b                   15.7052(10)
_cell_length_c                   7.5065(7)
_cell_angle_alpha                90
_cell_angle_beta                 105.506(8)
_cell_angle_gamma                90
_cell_volume                     1102.83
loop_
_atom_site_label
_atom_site_type_symbol
_atom_site_fract_x
_atom_site_fract_y
_atom_site_fract_z
C1 C 0.2887(5) 0.3864(3) 0.6809(8)
H1 H 0.2322 0.4342 0.6812
C2 C 0.3620(6) 0.2571(3) 0.7128(6)
H2 H 0.3691 0.1990 0.7371
C3 C 0.4558(5) 0.3054(3) 0.6583(6)
H3 H 0.5406 0.2856 0.6381
C4 C 0.7493(5) 0.3686(3) 0.4376(6)
H4 H 0.7895 0.3631 0.5642
C5 C 0.7159(6) 0.3554(3) 0.1418(7)
H5 H 0.7271 0.3403 0.0267
C6 C 0.6111(5) 0.4028(3) 0.1740(5)
H6 H 0.5355 0.4262 0.0839
C7 C 0.8141(4) 0.5102(2) 0.8506(5)
C8 C 1.0009(4) 0.6150(3) 1.0665(5)
N1 N 0.4105(4) 0.3876(2) 0.6361(4)
N2 N 0.2559(4) 0.3084(3) 0.7257(6)
H7 H 0.1803 0.2939 0.7572
N3 N 0.6325(4) 0.4115(2) 0.3616(4)
N4 N 0.8025(4) 0.3338(2) 0.3076(6)
H8 H 0.8784 0.3031 0.3265
N5 N 0.7007(4) 0.5147(2) 0.7567(5)
N6 N 1.0039(4) 0.6843(2) 1.1097(6)
Cd1 Cd 0.5000 0.5000 0.5000
Ni1 Ni 1.0000 0.5000 1.0000
C1B C 0.7113(5) 0.6136(3) 0.3191(8)
H1B H 0.7678 0.5658 0.3188
C2B C 0.6380(6) 0.7429(3) 0.2872(6)
H2B H 0.6309 0.8010 0.2629
C3B C 0.5442(5) 0.6946(3) 0.3417(6)
H3B H 0.4594 0.7144 0.3619
C4B C 0.2507(5) 0.6314(3) 0.5624(6)
H4B H 0.2105 0.6369 0.4358
C5B C 0.2841(6) 0.6446(3) 0.8582(7)
H5B H 0.2729 0.6597 0.9733
C6B C 0.3889(5) 0.5972(3) 0.8260(5)
H6B H 0.4645 0.5738 0.9161
C7B C 0.1859(4) 0.4898(2) 0.1494(5)
C7B_2 C 1.1859(4) 0.4898(2) 1.1494(5)
C8B C 0.9991(4) 0.3850(3) 0.9335(5)
N1B N 0.5895(4) 0.6124(2) 0.3639(4)
N2B N 0.7441(4) 0.6916(3) 0.2743(6)
H7B H 0.8197 0.7061 0.2428
N3B N 0.3675(4) 0.5885(2) 0.6384(4)
N4B N 0.1975(4) 0.6662(2) 0.6924(6)
H8B H 0.1216 0.6969 0.6735
N5B N 0.2993(4) 0.4853(2) 0.2433(5)
N6B N 0.9961(4) 0.3157(2) 0.8903(6)
Ni1_2 Ni 0.0000 0.5000 0.0000
loop_
_geom_bond_atom_site_label_1
_geom_bond_atom_site_label_2
_geom_bond_site_symmetry_1
_geom_bond_site_symmetry_2
C1 H1 1_555 1_555
C2 H2 1_555 1_555
C3 C2 1_555 1_555
H3 C3 1_555 1_555
C4 H4 1_555 1_555
C5 H5 1_555 1_555
C6 C5 1_555 1_555
H6 C6 1_555 1_555
C7 N5 1_555 1_555
C8 N6 1_555 1_555
N1 C1 1_555 1_555
N2 C1 1_555 1_555
H7 N2 1_555 1_555
N3 C4 1_555 1_555
N4 C4 1_555 1_555
H8 N4 1_555 1_555
N5 Cd1 1_555 1_555
Cd1 N1 1_555 1_555
Ni1 C7 1_555 1_555
C1B H1B 1_555 1_555
C2B H2B 1_555 1_555
C3B C2B 1_555 1_555
H3B C3B 1_555 1_555
C4B H4B 1_555 1_555
C5B H5B 1_555 1_555
C6B C5B 1_555 1_555
H6B C6B 1_555 1_555
C7B N5B 1_555 1_555
C7B_2 Ni1 1_555 1_555
C8B Ni1 1_555 1_555
N1B Cd1 1_555 1_555
N2B C1B 1_555 1_555
H7B N2B 1_555 1_555
N3B Cd1 1_555 1_555
N4B C4B 1_555 1_555
H8B N4B 1_555 1_555
N5B Cd1 1_555 1_555
N6B C8B 1_555 1_555
Ni1_2 C7B 1_555 1_555
C2 N2 1_555 1_555
C3 N1 1_555 1_555
C5 N4 1_555 1_555
C6 N3 1_555 1_555
C8 Ni1 1_555 1_555
N3 Cd1 1_555 1_555
C1B N1B 1_555 1_555
C2B N2B 1_555 1_555
C3B N1B 1_555 1_555
C4B N3B 1_555 1_555
C5B N4B 1_555 1_555
C6B N3B 1_555 1_555

#END
