
#######################################################################
#
#                 Cambridge Crystallographic Data Centre
#                                CCDC 
#
#######################################################################
#
# If this CIF has been generated from an entry in the Cambridge 
# Structural Database, then it will include bibliographic, chemical, 
# crystal, experimental, refinement or atomic coordinate data resulting 
# from the CCDC's data processing and validation procedures.
#
#######################################################################

data_MEFYON
_symmetry_cell_setting           monoclinic
_symmetry_space_group_name_H-M   'C 2/c'
_symmetry_Int_Tables_number      15
_space_group_name_Hall           '-C 2yn'
loop_
_symmetry_equiv_pos_site_id
_symmetry_equiv_pos_as_xyz
1 x,y,z
2 -x,y,1/2-z
3 1/2+x,1/2+y,z
4 1/2-x,1/2+y,1/2-z
5 -x,-y,-z
6 x,-y,1/2+z
7 1/2-x,1/2-y,-z
8 1/2+x,1/2-y,1/2+z
_cell_length_a                   25.255(4)
_cell_length_b                   13.1898(19)
_cell_length_c                   14.415(2)
_cell_angle_alpha                90
_cell_angle_beta                 118.656(2)
_cell_angle_gamma                90
_cell_volume                     4213.61
loop_
_atom_site_label
_atom_site_type_symbol
_atom_site_fract_x
_atom_site_fract_y
_atom_site_fract_z
Co1 Co 0.170487(12) 0.210889(19) 0.721079(19)
O1 O 0.16478(7) 0.26931(10) 0.99556(10)
O2 O 0.26451(7) 0.25375(12) 0.79304(12)
H1 H 0.2789 0.2339 0.7560
C1 C -0.02894(12) 0.1259(2) 0.31177(19)
C2 C -0.02354(12) 0.2167(2) 0.5588(2)
H2 H -0.0609 0.2400 0.5478
O3 O 0.16312(7) 0.28629(10) 0.84070(10)
O4 O 0.18060(6) -0.11405(10) 1.11682(10)
N1 N 0.14365(7) 0.44896(12) 0.50217(12)
N2 N 0.18545(7) 0.09099(11) 0.83192(11)
O5 O 0.26822(7) -0.16230(12) 1.12712(12)
N3 N 0.15903(8) 0.34237(12) 0.63007(12)
C3 C 0.22070(9) -0.11268(14) 1.08829(14)
C4 C 0.20933(9) -0.07571(15) 0.90715(15)
H3 H 0.2184 -0.1430 0.9012
N4 N -0.01239(9) 0.16141(17) 0.49048(16)
N5 N 0.07524(8) 0.18553(13) 0.63313(13)
C5 C 0.20776(9) -0.04215(14) 0.99703(14)
C6 C 0.18402(8) 0.12332(14) 0.91937(14)
C7 C 0.12894(9) 0.48625(16) 0.39679(15)
H4 H 0.1477 0.4429 0.3674
H5 H 0.1453 0.5531 0.4031
C8 C 0.19401(9) 0.05958(15) 1.00195(14)
H6 H 0.1916 0.0841 1.0603
C9 C 0.06209(9) 0.48962(14) 0.32261(16)
C10 C 0.16989(9) 0.23565(14) 0.91965(14)
C11 C 0.03037(11) 0.23126(19) 0.6461(2)
H7 H 0.0362 0.2669 0.7059
C12 C 0.14534(9) 0.35119(15) 0.53022(15)
H8 H 0.1378 0.2967 0.4846
C13 C 0.19719(9) -0.00726(14) 0.82654(14)
H9 H 0.1972 -0.0306 0.7657
C14 C 0.01968(11) 0.4908(2) 0.35632(17)
H10 H 0.0322 0.4916 0.4284
C15 C 0.15728(10) 0.50588(16) 0.58980(16)
H11 H 0.1594 0.5762 0.5948
C16 C 0.16711(10) 0.43974(15) 0.66788(16)
H12 H 0.1778 0.4575 0.7371
C17 C 0.04751(10) 0.14505(18) 0.53819(17)
H13 H 0.0670 0.1094 0.5077
C18 C -0.04155(11) 0.4907(2) 0.28494(17)
H14 H -0.0693 0.4914 0.3101
C19 C -0.05712(12) 0.1275(3) 0.3831(2)
H15 H -0.0914 0.1732 0.3545
H16 H -0.0715 0.0602 0.3869
C20 C -0.01434(16) 0.0374(2) 0.2806(2)
H17 H -0.0238 -0.0240 0.3008
C21 C -0.01431(17) 0.2152(2) 0.2803(2)
H18 H -0.0239 0.2765 0.3004
H19 H 0.2881(12) 0.2421(19) 0.854(2)
Co1A Co -0.170487(12) 0.210889(19) -0.221079(19)
Co1D Co -0.170487(12) -0.210889(19) -0.721079(19)
Co1E Co 0.170487(12) -0.210889(19) 1.221079(19)
O1A O -0.16478(7) 0.26931(10) -0.49556(10)
O2A O -0.26451(7) 0.25375(12) -0.29304(12)
H1A H -0.2789 0.2339 -0.2560
C1A C 0.02894(12) 0.1259(2) 0.18823(19)
C2A C 0.02354(12) 0.2167(2) -0.0588(2)
H2A H 0.0609 0.2400 -0.0478
O3A O -0.16312(7) 0.28629(10) -0.34070(10)
O4A O -0.18060(6) -0.11405(10) -0.61682(10)
O4D O -0.18060(6) 0.11405(10) -0.11682(10)
O4E O 0.18060(6) 0.11405(10) 0.61682(10)
N1A N -0.14365(7) 0.44896(12) -0.00217(12)
N2A N -0.18545(7) 0.09099(11) -0.33192(11)
O5A O -0.26822(7) -0.16230(12) -0.62712(12)
N3A N -0.15903(8) 0.34237(12) -0.13007(12)
C3A C -0.22070(9) -0.11268(14) -0.58829(14)
C4A C -0.20933(9) -0.07571(15) -0.40715(15)
H3A H -0.2184 -0.1430 -0.4012
N4A N 0.01239(9) 0.16141(17) 0.00952(16)
N5A N -0.07524(8) 0.18553(13) -0.13313(13)
C5A C -0.20776(9) -0.04215(14) -0.49703(14)
C6A C -0.18402(8) 0.12332(14) -0.41937(14)
C7A C -0.12894(9) 0.48625(16) 0.10321(15)
H4A H -0.1477 0.4429 0.1326
H5A H -0.1453 0.5531 0.0969
C8A C -0.19401(9) 0.05958(15) -0.50195(14)
H6A H -0.1916 0.0841 -0.5603
C9A C -0.06209(9) 0.48962(14) 0.17739(16)
C10A C -0.16989(9) 0.23565(14) -0.41965(14)
C11A C -0.03037(11) 0.23126(19) -0.1461(2)
H7A H -0.0362 0.2669 -0.2059
C12A C -0.14534(9) 0.35119(15) -0.03022(15)
H8A H -0.1378 0.2967 0.0154
C13A C -0.19719(9) -0.00726(14) -0.32654(14)
H9A H -0.1972 -0.0306 -0.2657
C14A C -0.01968(11) 0.4908(2) 0.14368(17)
H10A H -0.0322 0.4916 0.0716
C15A C -0.15728(10) 0.50588(16) -0.08980(16)
H11A H -0.1594 0.5762 -0.0948
C16A C -0.16711(10) 0.43974(15) -0.16788(16)
H12A H -0.1778 0.4575 -0.2371
C17A C -0.04751(10) 0.14505(18) -0.03819(17)
H13A H -0.0670 0.1094 -0.0077
C18A C 0.04155(11) 0.4907(2) 0.21506(17)
H14A H 0.0693 0.4914 0.1899
C19A C 0.05712(12) 0.1275(3) 0.1169(2)
H15A H 0.0914 0.1732 0.1455
H16A H 0.0715 0.0602 0.1131
C20A C 0.01434(16) 0.0374(2) 0.2194(2)
H17A H 0.0238 -0.0240 0.1992
C21A C 0.01431(17) 0.2152(2) 0.2197(2)
H18A H 0.0239 0.2765 0.1996
H19A H -0.2881(12) 0.2421(19) -0.354(2)
loop_
_geom_bond_atom_site_label_1
_geom_bond_atom_site_label_2
_geom_bond_site_symmetry_1
_geom_bond_site_symmetry_2
Co1 O2 1_555 1_555
O1 C10 1_555 1_555
O2 H1 1_555 1_555
C1 C19 1_555 1_555
C2 H2 1_555 1_555
O3 Co1 1_555 1_555
O4 C3 1_555 1_555
N1 C7 1_555 1_555
N2 Co1 1_555 1_555
O5 C3 1_555 1_555
N3 Co1 1_555 1_555
C3 C5 1_555 1_555
C4 H3 1_555 1_555
N4 C2 1_555 1_555
N5 Co1 1_555 1_555
C5 C4 1_555 1_555
C6 N2 1_555 1_555
C7 H4 1_555 1_555
H5 C7 1_555 1_555
C8 C5 1_555 1_555
H6 C8 1_555 1_555
C9 C7 1_555 1_555
C10 O3 1_555 1_555
C11 C2 1_555 1_555
H7 C11 1_555 1_555
C12 N1 1_555 1_555
H8 C12 1_555 1_555
C13 N2 1_555 1_555
H9 C13 1_555 1_555
C14 C9 1_555 1_555
H10 C14 1_555 1_555
C15 N1 1_555 1_555
H11 C15 1_555 1_555
C16 N3 1_555 1_555
H12 C16 1_555 1_555
C17 N4 1_555 1_555
H13 C17 1_555 1_555
C18 C14 1_555 1_555
H14 C18 1_555 1_555
C19 N4 1_555 1_555
H15 C19 1_555 1_555
H16 C19 1_555 1_555
C20 C1 1_555 1_555
H17 C20 1_555 1_555
C21 C1 1_555 1_555
H18 C21 1_555 1_555
H19 O2 1_555 1_555
Co1A O2A 1_555 1_555
Co1D O4A 1_555 1_555
Co1E O4 1_555 1_555
O1A C10A 1_555 1_555
O2A H1A 1_555 1_555
C1A C19A 1_555 1_555
C2A H2A 1_555 1_555
O3A Co1A 1_555 1_555
O4A C3A 1_555 1_555
O4D Co1A 1_555 1_555
O4E Co1 1_555 1_555
N1A C7A 1_555 1_555
N2A Co1A 1_555 1_555
O5A C3A 1_555 1_555
N3A Co1A 1_555 1_555
C3A C5A 1_555 1_555
C4A H3A 1_555 1_555
N4A C2A 1_555 1_555
N5A Co1A 1_555 1_555
C5A C4A 1_555 1_555
C6A N2A 1_555 1_555
C7A H4A 1_555 1_555
H5A C7A 1_555 1_555
C8A C5A 1_555 1_555
H6A C8A 1_555 1_555
C9A C18 1_555 1_555
C10A O3A 1_555 1_555
C11A C2A 1_555 1_555
H7A C11A 1_555 1_555
C12A N1A 1_555 1_555
H8A C12A 1_555 1_555
C13A N2A 1_555 1_555
H9A C13A 1_555 1_555
C14A C9A 1_555 1_555
H10A C14A 1_555 1_555
C15A N1A 1_555 1_555
H11A C15A 1_555 1_555
C16A N3A 1_555 1_555
H12A C16A 1_555 1_555
C17A N4A 1_555 1_555
H13A C17A 1_555 1_555
C18A C9 1_555 1_555
H14A C18A 1_555 1_555
C19A N4A 1_555 1_555
H15A C19A 1_555 1_555
H16A C19A 1_555 1_555
C20A C20 1_555 1_555
H17A C20A 1_555 1_555
C21A C21 1_555 1_555
H18A C21A 1_555 1_555
H19A O2A 1_555 1_555
N3 C12 1_555 1_555
C4 C13 1_555 1_555
N5 C11 1_555 1_555
N5 C17 1_555 1_555
C6 C8 1_555 1_555
C6 C10 1_555 1_555
C15 C16 1_555 1_555
C1A C20A 1_555 1_555
C1A C21A 1_555 1_555
N3A C12A 1_555 1_555
C4A C13A 1_555 1_555
N5A C11A 1_555 1_555
N5A C17A 1_555 1_555
C6A C8A 1_555 1_555
C6A C10A 1_555 1_555
C7A C9A 1_555 1_555
C14A C18A 1_555 1_555
C15A C16A 1_555 1_555

#END
