
#######################################################################
#
#                 Cambridge Crystallographic Data Centre
#                                CCDC 
#
#######################################################################
#
# If this CIF has been generated from an entry in the Cambridge 
# Structural Database, then it will include bibliographic, chemical, 
# crystal, experimental, refinement or atomic coordinate data resulting 
# from the CCDC's data processing and validation procedures.
#
#######################################################################

data_MEFZUS
_symmetry_cell_setting           monoclinic
_symmetry_space_group_name_H-M   'C 2/c'
_symmetry_Int_Tables_number      15
_space_group_name_Hall           '-C 2yn'
loop_
_symmetry_equiv_pos_site_id
_symmetry_equiv_pos_as_xyz
1 x,y,z
2 1/2+x,1/2+y,z
3 -x,y,1/2-z
4 1/2-x,1/2+y,1/2-z
5 -x,-y,-z
6 1/2-x,1/2-y,-z
7 x,-y,1/2+z
8 1/2+x,1/2-y,1/2+z
_cell_length_a                   14.606(3)
_cell_length_b                   7.704(2)
_cell_length_c                   21.836(4)
_cell_angle_alpha                90
_cell_angle_beta                 95.77(3)
_cell_angle_gamma                90
_cell_volume                     2444.64
loop_
_atom_site_label
_atom_site_type_symbol
_atom_site_fract_x
_atom_site_fract_y
_atom_site_fract_z
Cu1 Cu -0.26627(2) 0.52823(5) 0.18253(2)
N1 N -0.2605(2) 0.7326(3) 0.12743(12)
C1 C -0.3218(2) 0.7181(4) 0.07876(13)
N2 N -0.3201(2) 0.8554(4) 0.04187(13)
H1 H -0.3544(2) 0.8720(4) 0.00800(13)
C2 C -0.2533(3) 0.9658(5) 0.0680(2)
H2 H -0.2360(3) 1.0720(5) 0.0524(2)
C3 C -0.2172(3) 0.8886(4) 0.1214(2)
H3 H -0.1708(3) 0.9343(4) 0.1490(2)
C4 C -0.3802(2) 0.5642(4) 0.07315(13)
H4 H -0.4243(2) 0.5459(4) 0.04001(13)
N3 N -0.3657(2) 0.4568(3) 0.11759(10)
C5 C -0.4167(2) 0.2946(4) 0.11904(13)
H5 H -0.3826(2) 0.2026(4) 0.10116(13)
H6 H -0.4756(2) 0.3065(4) 0.09455(13)
C6 C -0.4325(2) 0.2462(4) 0.18476(13)
H7 H -0.4650(2) 0.3403(4) 0.20260(13)
H8 H -0.4714(2) 0.1441(4) 0.18384(13)
C7 C -0.3444(2) 0.2098(4) 0.22571(12)
O1 O -0.27568(14) 0.3092(3) 0.22532(11)
O2 O -0.34297(15) 0.0799(3) 0.26069(11)
O3 O -0.3969(2) 0.6517(5) 0.2370(2)
H9 H -0.3497(2) 0.5800(5) 0.2588(2)
H10 H -0.4053(2) 0.7654(5) 0.2547(2)
O2C O -0.15703(15) 0.5799(3) 0.23931(11)
Cu1C Cu -0.23373(2) 0.02823(5) 0.31747(2)
Cl1 Cl -0.41492(6) 0.14080(11) 0.91564(4)
O4 O -0.4254(12) 0.2559(21) 0.9635(8)
O5 O -0.3249(14) 0.1455(37) 0.9007(30)
O6 O -0.4786(27) 0.1878(36) 0.8669(9)
O7 O -0.4412(38) -0.0260(41) 0.9355(14)
O8? O 0.6564(17) 0.1794(23) 0.8772(6)
O9? O 0.5015(13) 0.1656(30) 0.8775(15)
O10? O 0.5923(27) -0.0455(38) 0.9271(11)
O11? O 0.5977(37) 0.2361(36) 0.9709(8)
loop_
_geom_bond_atom_site_label_1
_geom_bond_atom_site_label_2
_geom_bond_site_symmetry_1
_geom_bond_site_symmetry_2
Cu1 N1 1_555 1_555
N1 C1 1_555 1_555
C1 N2 1_555 1_555
N2 H1 1_555 1_555
C2 N2 1_555 1_555
H2 C2 1_555 1_555
C3 N1 1_555 1_555
H3 C3 1_555 1_555
C4 C1 1_555 1_555
H4 C4 1_555 1_555
N3 Cu1 1_555 1_555
C5 N3 1_555 1_555
H5 C5 1_555 1_555
H6 C5 1_555 1_555
C6 C5 1_555 1_555
H7 C6 1_555 1_555
H8 C6 1_555 1_555
C7 C6 1_555 1_555
O1 Cu1 1_555 1_555
O2 C7 1_555 1_555
O3 Cu1 1_555 1_555
H9 O3 1_555 1_555
H10 O3 1_555 1_555
Cl1 O4 1_555 1_555
O5 Cl1 1_555 1_555
O6 Cl1 1_555 1_555
O7 Cl1 1_555 1_555
O2C Cu1 1_555 1_555
Cu1C O2 1_555 1_555
C2 C3 1_555 1_555
C4 N3 1_555 1_555
C7 O1 1_555 1_555

#END
