
#######################################################################
#
#                 Cambridge Crystallographic Data Centre
#                                CCDC 
#
#######################################################################
#
# If this CIF has been generated from an entry in the Cambridge 
# Structural Database, then it will include bibliographic, chemical, 
# crystal, experimental, refinement or atomic coordinate data resulting 
# from the CCDC's data processing and validation procedures.
#
#######################################################################

data_MEFZUU
_symmetry_cell_setting           orthorhombic
_symmetry_space_group_name_H-M   'F m m m'
_symmetry_Int_Tables_number      69
_space_group_name_Hall           '-F 2 2'
loop_
_symmetry_equiv_pos_site_id
_symmetry_equiv_pos_as_xyz
1 x,y,z
2 -x,-y,z
3 -x,y,-z
4 x,-y,-z
5 x,1/2+y,1/2+z
6 -x,1/2-y,1/2+z
7 -x,1/2+y,1/2-z
8 x,1/2-y,1/2-z
9 1/2+x,y,1/2+z
10 1/2-x,-y,1/2+z
11 1/2-x,y,1/2-z
12 1/2+x,-y,1/2-z
13 1/2+x,1/2+y,z
14 1/2-x,1/2-y,z
15 1/2-x,1/2+y,-z
16 1/2+x,1/2-y,-z
17 -x,-y,-z
18 x,y,-z
19 x,-y,z
20 -x,y,z
21 -x,1/2-y,1/2-z
22 x,1/2+y,1/2-z
23 x,1/2-y,1/2+z
24 -x,1/2+y,1/2+z
25 1/2-x,-y,1/2-z
26 1/2+x,y,1/2-z
27 1/2+x,-y,1/2+z
28 1/2-x,y,1/2+z
29 1/2-x,1/2-y,-z
30 1/2+x,1/2+y,-z
31 1/2+x,1/2-y,z
32 1/2-x,1/2+y,z
_cell_length_a                   24.4424(12)
_cell_length_b                   29.282(2)
_cell_length_c                   30.7048(13)
_cell_angle_alpha                90
_cell_angle_beta                 90
_cell_angle_gamma                90
_cell_volume                     21976.1
loop_
_atom_site_label
_atom_site_type_symbol
_atom_site_fract_x
_atom_site_fract_y
_atom_site_fract_z
Mn1 Mn 0.5000 0.7500 -0.2500
Mn2 Mn 0.7500 1.0000 -0.2500
Mn3 Mn 0.82957(6) 1.0000 -0.14617(4)
Mn4 Mn 0.80734(5) 0.77817(4) 0.0000
Cl1 Cl 0.5000 0.8094(2) -0.30623(16)
Cl2 Cl 0.89445(16) 0.81145(17) 0.0000
O1 O 0.7237(2) 0.94758(16) -0.20629(14)
O2 O 0.7737(3) 0.9474(2) -0.1470(2)
O3 O 0.7648(2) 0.81700(16) -0.04715(14)
O4 O 0.6897(2) 0.77399(18) -0.04809(15)
O5 O 0.6605(3) 1.0000 -0.2793(2)
O6 O 0.8290(7) 1.0000 -0.0751(4)
O7 O 0.8849(7) 0.9433(5) -0.1368(5)
N1 N 0.5824(2) 0.7500 -0.2500
N2 N 0.5000 0.7982(2) -0.20344(19)
N3 N 0.8614(6) 0.8623(5) -0.1509(4)
C1 C 0.6716(3) 0.7655(2) -0.2340(2)
H1 H 0.7022 0.7782 -0.2207
C2 C 0.6157(2) 0.77562(19) -0.22400(17)
C3 C 0.5995(2) 0.8075(2) -0.19294(17)
C4 C 0.5452(2) 0.81766(18) -0.18438(16)
C5 C 0.5276(3) 0.8507(2) -0.1524(2)
H2 H 0.5501 0.8687 -0.1350
C6 C 0.6426(2) 0.8299(2) -0.16633(17)
C7 C 0.6684(3) 0.8697(2) -0.17980(18)
H3 H 0.6574 0.8837 -0.2055
C8 C 0.7098(3) 0.8885(2) -0.15587(18)
C9 C 0.7261(3) 0.8681(2) -0.1177(2)
H4 H 0.7544 0.8809 -0.1014
C10 C 0.7007(2) 0.8284(2) -0.10315(18)
C11 C 0.6586(2) 0.8100(2) -0.12754(18)
H5 H 0.6409 0.7838 -0.1178
C12 C 0.7375(3) 0.9317(2) -0.1708(2)
C13 C 0.7200(3) 0.8048(2) -0.0625(2)
C14 C 0.8725(9) 0.8996(10) -0.1227(7)
H6 H 0.8713 0.8943 -0.0928
C15 C 0.8536(10) 0.8161(6) -0.1354(7)
H7 H 0.8569 0.8155 -0.1043
H8 H 0.8178 0.8056 -0.1436
H9 H 0.8807 0.7965 -0.1481
C16 C 0.8609(13) 0.8719(7) -0.1972(5)
H10 H 0.8666 0.9039 -0.2018
H11 H 0.8896 0.8549 -0.2112
H12 H 0.8263 0.8631 -0.2092
Mn2A Mn 0.2500 1.0000 -0.2500
Mn2F Mn 0.2500 0.5000 -0.2500
Mn2G Mn 0.7500 0.5000 -0.2500
Mn3A Mn 0.17043(6) 1.0000 -0.14617(4)
Mn3J Mn 0.67043(6) 1.0000 -0.35383(4)
Mn3F Mn 0.17043(6) 0.5000 -0.35383(4)
Mn3G Mn 0.82957(6) 0.5000 -0.35383(4)
Mn4B Mn 0.19266(5) 0.77817(4) 0.0000
Mn4M Mn 0.69266(5) 0.72183(4) 0.0000
Mn4O Mn 0.30734(5) 0.72183(4) 0.0000
Mn4E Mn 0.19266(5) 0.72183(4) -0.5000
Mn4H Mn 0.30734(5) 0.77817(4) -0.5000
Mn4G Mn 0.80734(5) 0.72183(4) -0.5000
Mn4J Mn 0.69266(5) 0.77817(4) -0.5000
Cl1G Cl 0.5000 0.6906(2) -0.19377(16)
Cl2B Cl 0.10555(16) 0.81145(17) 0.0000
O1S O 0.2763(2) 0.94758(16) -0.20629(14)
O1T O 0.2763(2) 0.55242(16) -0.29371(14)
O1G O 0.7237(2) 0.55242(16) -0.29371(14)
O1J O 0.7763(2) 0.94758(16) -0.29371(14)
O1R O 0.7237(2) 1.05242(16) -0.20629(14)
O1X O 0.7763(2) 1.05242(16) -0.29371(14)
O2S O 0.2263(3) 0.9474(2) -0.1470(2)
O2T O 0.2263(3) 0.5526(2) -0.3530(2)
O2G O 0.7737(3) 0.5526(2) -0.3530(2)
O2R O 0.7737(3) 1.0526(2) -0.1470(2)
O2A O 0.2263(3) 1.0526(2) -0.1470(2)
O3S O 0.2352(2) 0.81700(16) -0.04715(14)
O3T O 0.2352(2) 0.68300(16) -0.45285(14)
O3G O 0.7648(2) 0.68300(16) -0.45285(14)
O3Q O 0.7648(2) 0.81700(16) 0.04715(14)
O3B O 0.2352(2) 0.81700(16) 0.04715(14)
O4S O 0.3103(2) 0.77399(18) -0.04809(15)
O4T O 0.3103(2) 0.72601(18) -0.45191(15)
O4G O 0.6897(2) 0.72601(18) -0.45191(15)
O4M O 0.8103(2) 0.72601(18) -0.04809(15)
O4BA O 0.8103(2) 0.72601(18) 0.04809(15)
O4DA O 0.1897(2) 0.72601(18) -0.04809(15)
O4O O 0.1897(2) 0.72601(18) 0.04809(15)
O5J O 0.8395(3) 1.0000 -0.2207(2)
O5K O 0.1605(3) 1.0000 -0.2207(2)
O6A O 0.1710(7) 1.0000 -0.0751(4)
O7R O 0.8849(7) 1.0567(5) -0.1368(5)
O7S O 0.1151(7) 0.9433(5) -0.1368(5)
O7A O 0.1151(7) 1.0567(5) -0.1368(5)
N1S N 0.4176(2) 0.7500 -0.2500
N2G N 0.5000 0.7018(2) -0.29656(19)
N3R N 0.8614(6) 1.1377(5) -0.1509(4)
N3S N 0.1386(6) 0.8623(5) -0.1509(4)
N3A N 0.1386(6) 1.1377(5) -0.1509(4)
C1G C 0.6716(3) 0.7345(2) -0.2660(2)
C1S C 0.3284(3) 0.7655(2) -0.2340(2)
C1T C 0.3284(3) 0.7345(2) -0.2660(2)
H1G H 0.7022 0.7218 -0.2793
H1T H 0.2978 0.7218 -0.2793
H1S H 0.2978 0.7782 -0.2207
C2G C 0.6157(2) 0.72438(19) -0.27600(17)
C2T C 0.3843(2) 0.72438(19) -0.27600(17)
C2S C 0.3843(2) 0.77562(19) -0.22400(17)
C3G C 0.5995(2) 0.6925(2) -0.30706(17)
C3T C 0.4005(2) 0.6925(2) -0.30706(17)
C3S C 0.4005(2) 0.8075(2) -0.19294(17)
C4G C 0.5452(2) 0.68234(18) -0.31562(16)
C4T C 0.4548(2) 0.68234(18) -0.31562(16)
C4S C 0.4548(2) 0.81766(18) -0.18438(16)
C5S C 0.4724(3) 0.8507(2) -0.1524(2)
C5T C 0.4724(3) 0.6493(2) -0.3476(2)
C5G C 0.5276(3) 0.6493(2) -0.3476(2)
H2S H 0.4499 0.8687 -0.1350
H2G H 0.5501 0.6313 -0.3650
H2T H 0.4499 0.6313 -0.3650
C6S C 0.3574(2) 0.8299(2) -0.16633(17)
C6T C 0.3574(2) 0.6701(2) -0.33367(17)
C6G C 0.6426(2) 0.6701(2) -0.33367(17)
C7S C 0.3316(3) 0.8697(2) -0.17980(18)
C7T C 0.3316(3) 0.6303(2) -0.32020(18)
C7G C 0.6684(3) 0.6303(2) -0.32020(18)
H3S H 0.3426 0.8837 -0.2055
H3T H 0.3426 0.6163 -0.2945
H3G H 0.6574 0.6163 -0.2945
C8S C 0.2902(3) 0.8885(2) -0.15587(18)
C8T C 0.2902(3) 0.6115(2) -0.34413(18)
C8G C 0.7098(3) 0.6115(2) -0.34413(18)
C9S C 0.2739(3) 0.8681(2) -0.1177(2)
C9T C 0.2739(3) 0.6319(2) -0.3823(2)
C9G C 0.7261(3) 0.6319(2) -0.3823(2)
H4S H 0.2456 0.8809 -0.1014
H4T H 0.2456 0.6191 -0.3986
H4G H 0.7544 0.6191 -0.3986
C10S C 0.2993(2) 0.8284(2) -0.10315(18)
C10T C 0.2993(2) 0.6716(2) -0.39685(18)
C10G C 0.7007(2) 0.6716(2) -0.39685(18)
C11S C 0.3414(2) 0.8100(2) -0.12754(18)
C11T C 0.3414(2) 0.6900(2) -0.37246(18)
C11G C 0.6586(2) 0.6900(2) -0.37246(18)
H5S H 0.3591 0.7838 -0.1178
H5T H 0.3591 0.7162 -0.3822
H5G H 0.6409 0.7162 -0.3822
C12S C 0.2625(3) 0.9317(2) -0.1708(2)
C12T C 0.2625(3) 0.5683(2) -0.3292(2)
C12G C 0.7375(3) 0.5683(2) -0.3292(2)
C13S C 0.2800(3) 0.8048(2) -0.0625(2)
C13T C 0.2800(3) 0.6952(2) -0.4375(2)
C13G C 0.7200(3) 0.6952(2) -0.4375(2)
C14R C 0.8725(9) 1.1004(10) -0.1227(7)
C14S C 0.1275(9) 0.8996(10) -0.1227(7)
C14A C 0.1275(9) 1.1004(10) -0.1227(7)
H6R H 0.8713 1.1057 -0.0928
H6S H 0.1287 0.8943 -0.0928
H6A H 0.1287 1.1057 -0.0928
C15R C 0.8536(10) 1.1839(6) -0.1354(7)
C15S C 0.1464(10) 0.8161(6) -0.1354(7)
C15A C 0.1464(10) 1.1839(6) -0.1354(7)
H7R H 0.8569 1.1845 -0.1043
H7S H 0.1431 0.8155 -0.1043
H7A H 0.1431 1.1845 -0.1043
H8R H 0.8178 1.1944 -0.1436
H8S H 0.1822 0.8056 -0.1436
H8A H 0.1822 1.1944 -0.1436
H9R H 0.8807 1.2035 -0.1481
H9S H 0.1193 0.7965 -0.1481
H9A H 0.1193 1.2035 -0.1481
C16R C 0.8609(13) 1.1281(7) -0.1972(5)
C16S C 0.1391(13) 0.8719(7) -0.1972(5)
C16A C 0.1391(13) 1.1281(7) -0.1972(5)
H10R H 0.8666 1.0961 -0.2018
H10S H 0.1334 0.9039 -0.2018
H10A H 0.1334 1.0961 -0.2018
H11R H 0.8896 1.1451 -0.2112
H11S H 0.1104 0.8549 -0.2112
H11A H 0.1104 1.1451 -0.2112
H12R H 0.8263 1.1369 -0.2092
H12S H 0.1737 0.8631 -0.2092
H12A H 0.1737 1.1369 -0.2092
loop_
_geom_bond_atom_site_label_1
_geom_bond_atom_site_label_2
_geom_bond_site_symmetry_1
_geom_bond_site_symmetry_2
Mn1 Cl1 1_555 1_555
Mn2 O1 1_555 1_555
Mn3 O2 1_555 1_555
Mn4 Cl2 1_555 1_555
O1 C12 1_555 1_555
O2 C12 1_555 1_555
O3 Mn4 1_555 1_555
O4 C13 1_555 1_555
O5 Mn2 1_555 1_555
O6 Mn3 1_555 1_555
O7 Mn3 1_555 1_555
N1 Mn1 1_555 1_555
N2 Mn1 1_555 1_555
N3 C14 1_555 1_555
C1 H1 1_555 1_555
C2 N1 1_555 1_555
C3 C2 1_555 1_555
C4 N2 1_555 1_555
C5 C4 1_555 1_555
H2 C5 1_555 1_555
C6 C3 1_555 1_555
C7 C6 1_555 1_555
H3 C7 1_555 1_555
C8 C7 1_555 1_555
C9 C8 1_555 1_555
H4 C9 1_555 1_555
C10 C9 1_555 1_555
C11 C6 1_555 1_555
H5 C11 1_555 1_555
C12 C8 1_555 1_555
C13 O3 1_555 1_555
C14 O7 1_555 1_555
H6 C14 1_555 1_555
C15 N3 1_555 1_555
H7 C15 1_555 1_555
H8 C15 1_555 1_555
H9 C15 1_555 1_555
C16 N3 1_555 1_555
H10 C16 1_555 1_555
H11 C16 1_555 1_555
H12 C16 1_555 1_555
Mn2A O1S 1_555 1_555
Mn2F O1T 1_555 1_555
Mn2G O1G 1_555 1_555
Mn3A O2S 1_555 1_555
Mn3J O5 1_555 1_555
Mn3F O2T 1_555 1_555
Mn3G O2G 1_555 1_555
Mn4B Cl2B 1_555 1_555
Mn4M O4 1_555 1_555
Mn4O O4S 1_555 1_555
Mn4E O3T 1_555 1_555
Mn4H O4T 1_555 1_555
Mn4G O3G 1_555 1_555
Mn4J O4G 1_555 1_555
Cl1G Mn1 1_555 1_555
O1S C12S 1_555 1_555
O1T C12T 1_555 1_555
O1G C12G 1_555 1_555
O1J Mn2 1_555 1_555
O1R Mn2 1_555 1_555
O1X Mn2 1_555 1_555
O2S C12S 1_555 1_555
O2T C12T 1_555 1_555
O2G C12G 1_555 1_555
O2R Mn3 1_555 1_555
O2A Mn3A 1_555 1_555
O3S Mn4B 1_555 1_555
O3T C13T 1_555 1_555
O3G C13G 1_555 1_555
O3Q Mn4 1_555 1_555
O3B Mn4B 1_555 1_555
O4S C13S 1_555 1_555
O4T C13T 1_555 1_555
O4G C13G 1_555 1_555
O4M Mn4 1_555 1_555
O4BA Mn4 1_555 1_555
O4DA Mn4B 1_555 1_555
O4O Mn4B 1_555 1_555
O5J Mn2 1_555 1_555
O5K Mn2A 1_555 1_555
O6A Mn3A 1_555 1_555
O7R Mn3 1_555 1_555
O7S Mn3A 1_555 1_555
O7A Mn3A 1_555 1_555
N1S Mn1 1_555 1_555
N2G Mn1 1_555 1_555
N3R C14R 1_555 1_555
N3S C14S 1_555 1_555
N3A C14A 1_555 1_555
C1G C1 1_555 1_555
C1S C1T 1_555 1_555
C1T H1T 1_555 1_555
H1G C1G 1_555 1_555
H1S C1S 1_555 1_555
C2G N1 1_555 1_555
C2T N1S 1_555 1_555
C2S N1S 1_555 1_555
C3G C2G 1_555 1_555
C3T C2T 1_555 1_555
C3S C2S 1_555 1_555
C4G N2G 1_555 1_555
C4T N2G 1_555 1_555
C4S N2 1_555 1_555
C5S C5 1_555 1_555
C5T C4T 1_555 1_555
C5G C4G 1_555 1_555
H2S C5S 1_555 1_555
H2G C5G 1_555 1_555
H2T C5T 1_555 1_555
C6S C3S 1_555 1_555
C6T C3T 1_555 1_555
C6G C3G 1_555 1_555
C7S C6S 1_555 1_555
C7T C6T 1_555 1_555
C7G C6G 1_555 1_555
H3S C7S 1_555 1_555
H3T C7T 1_555 1_555
H3G C7G 1_555 1_555
C8S C7S 1_555 1_555
C8T C7T 1_555 1_555
C8G C7G 1_555 1_555
C9S C8S 1_555 1_555
C9T C8T 1_555 1_555
C9G C8G 1_555 1_555
H4S C9S 1_555 1_555
H4T C9T 1_555 1_555
H4G C9G 1_555 1_555
C10S C9S 1_555 1_555
C10T C9T 1_555 1_555
C10G C9G 1_555 1_555
C11S C6S 1_555 1_555
C11T C6T 1_555 1_555
C11G C6G 1_555 1_555
H5S C11S 1_555 1_555
H5T C11T 1_555 1_555
H5G C11G 1_555 1_555
C12S C8S 1_555 1_555
C12T C8T 1_555 1_555
C12G C8G 1_555 1_555
C13S O3S 1_555 1_555
C13T C10T 1_555 1_555
C13G C10G 1_555 1_555
C14R O7R 1_555 1_555
C14S O7S 1_555 1_555
C14A O7A 1_555 1_555
H6R C14R 1_555 1_555
H6S C14S 1_555 1_555
H6A C14A 1_555 1_555
C15R N3R 1_555 1_555
C15S N3S 1_555 1_555
C15A N3A 1_555 1_555
H7R C15R 1_555 1_555
H7S C15S 1_555 1_555
H7A C15A 1_555 1_555
H8R C15R 1_555 1_555
H8S C15S 1_555 1_555
H8A C15A 1_555 1_555
H9R C15R 1_555 1_555
H9S C15S 1_555 1_555
H9A C15A 1_555 1_555
C16R N3R 1_555 1_555
C16S N3S 1_555 1_555
C16A N3A 1_555 1_555
H10R C16R 1_555 1_555
H10S C16S 1_555 1_555
H10A C16A 1_555 1_555
H11R C16R 1_555 1_555
H11S C16S 1_555 1_555
H11A C16A 1_555 1_555
H12R C16R 1_555 1_555
H12S C16S 1_555 1_555
H12A C16A 1_555 1_555
Mn3 O5J 1_555 1_555
C1 C2 1_555 1_555
C3 C4 1_555 1_555
C10 C11 1_555 1_555
C10 C13 1_555 1_555
Mn3A O5K 1_555 1_555
C1G C2G 1_555 1_555
C1S C2S 1_555 1_555
C1T C2T 1_555 1_555
C3G C4G 1_555 1_555
C3T C4T 1_555 1_555
C3S C4S 1_555 1_555
C4S C5S 1_555 1_555
C5T C5G 1_555 1_555
C10S C11S 1_555 1_555
C10S C13S 1_555 1_555
C10T C11T 1_555 1_555
C10G C11G 1_555 1_555

#END
