
#######################################################################
#
#                 Cambridge Crystallographic Data Centre
#                                CCDC 
#
#######################################################################
#
# If this CIF has been generated from an entry in the Cambridge 
# Structural Database, then it will include bibliographic, chemical, 
# crystal, experimental, refinement or atomic coordinate data resulting 
# from the CCDC's data processing and validation procedures.
#
#######################################################################

data_MEGBUW
_symmetry_cell_setting           monoclinic
_symmetry_space_group_name_H-M   'P 21/n'
_symmetry_Int_Tables_number      14
_space_group_name_Hall           '-P 2yn'
loop_
_symmetry_equiv_pos_site_id
_symmetry_equiv_pos_as_xyz
1 x,y,z
2 1/2-x,1/2+y,1/2-z
3 -x,-y,-z
4 1/2+x,1/2-y,1/2+z
_cell_length_a                   8.7501(7)
_cell_length_b                   4.5191(4)
_cell_length_c                   15.1448(12)
_cell_angle_alpha                90
_cell_angle_beta                 105.7730(10)
_cell_angle_gamma                90
_cell_volume                     576.315
loop_
_atom_site_label
_atom_site_type_symbol
_atom_site_fract_x
_atom_site_fract_y
_atom_site_fract_z
Ni1 Ni 0.0000 0.0000 0.5000
N1 N 0.23564(15) -0.1635(3) 0.54054(9)
H1 H 0.229(2) -0.344(5) 0.5537(13)
H2 H 0.254(3) -0.152(5) 0.4878(15)
O1 O 0.45428(13) -0.2372(2) 0.88514(7)
O2 O 0.59442(12) 0.1784(2) 0.92734(7)
C1 C 0.35593(17) -0.0128(3) 0.60894(10)
C2 C 0.37896(17) -0.0794(3) 0.70122(10)
H3 H 0.3184 -0.2263 0.7184
C3 C 0.49253(17) 0.0732(3) 0.76809(10)
C4 C 0.58531(17) 0.2900(3) 0.74253(10)
H4 H 0.6606 0.3933 0.7870
C5 C 0.56476(18) 0.3508(3) 0.65018(10)
H5 H 0.6284 0.4919 0.6328
C6 C 0.44969(18) 0.2021(3) 0.58358(10)
H6 H 0.4353 0.2464 0.5219
C7 C 0.51514(17) 0.0003(3) 0.86828(10)
Ni1C Ni 0.5000 -0.5000 1.0000
Ni1C_2 Ni 0.5000 0.5000 1.0000
Ni1C_3 Ni -0.5000 0.5000 0.0000
Ni1C_4 Ni -0.5000 -0.5000 0.0000
N1B N -0.23564(15) 0.1635(3) 0.45946(9)
H1B H -0.229(2) 0.344(5) 0.4463(13)
H2B H -0.254(3) 0.152(5) 0.5122(15)
O1B O -0.45428(13) 0.2372(2) 0.11486(7)
O1C O -0.04572(13) -0.2628(2) 0.38514(7)
O1A O 0.04572(13) 0.2628(2) 0.61486(7)
O2B O -0.59442(12) -0.1784(2) 0.07266(7)
O2C O 0.09442(12) 0.3216(2) 0.42734(7)
O2A O -0.09442(12) -0.3216(2) 0.57266(7)
C1B C -0.35593(17) 0.0128(3) 0.39106(10)
C2B C -0.37896(17) 0.0794(3) 0.29878(10)
H3B H -0.3184 0.2263 0.2816
C3B C -0.49253(17) -0.0732(3) 0.23191(10)
C4B C -0.58531(17) -0.2900(3) 0.25747(10)
H4B H -0.6606 -0.3933 0.2130
C5B C -0.56476(18) -0.3508(3) 0.34982(10)
H5B H -0.6284 -0.4919 0.3672
C6B C -0.44969(18) -0.2021(3) 0.41642(10)
H6B H -0.4353 -0.2464 0.4781
C7B C -0.51514(17) -0.0003(3) 0.13172(10)
loop_
_geom_bond_atom_site_label_1
_geom_bond_atom_site_label_2
_geom_bond_site_symmetry_1
_geom_bond_site_symmetry_2
Ni1 N1 1_555 1_555
N1 H1 1_555 1_555
H2 N1 1_555 1_555
O1 C7 1_555 1_555
O2 C7 1_555 1_555
C1 N1 1_555 1_555
C2 C1 1_555 1_555
H3 C2 1_555 1_555
C3 C2 1_555 1_555
C4 C3 1_555 1_555
H4 C4 1_555 1_555
C5 C4 1_555 1_555
H5 C5 1_555 1_555
C6 C1 1_555 1_555
H6 C6 1_555 1_555
C7 C3 1_555 1_555
Ni1C O1 1_555 1_555
Ni1C_2 O2 1_555 1_555
Ni1C_3 O1B 1_555 1_555
Ni1C_4 O2B 1_555 1_555
N1B Ni1 1_555 1_555
H1B N1B 1_555 1_555
H2B N1B 1_555 1_555
O1B C7B 1_555 1_555
O1C Ni1 1_555 1_555
O1A Ni1 1_555 1_555
O2B C7B 1_555 1_555
O2C Ni1 1_555 1_555
O2A Ni1 1_555 1_555
C1B N1B 1_555 1_555
C2B C1B 1_555 1_555
H3B C2B 1_555 1_555
C3B C2B 1_555 1_555
C4B C3B 1_555 1_555
H4B C4B 1_555 1_555
C5B C4B 1_555 1_555
H5B C5B 1_555 1_555
C6B C1B 1_555 1_555
H6B C6B 1_555 1_555
C7B C3B 1_555 1_555
C5 C6 1_555 1_555
C5B C6B 1_555 1_555

#END
