
#######################################################################
#
#                 Cambridge Crystallographic Data Centre
#                                CCDC 
#
#######################################################################
#
# If this CIF has been generated from an entry in the Cambridge 
# Structural Database, then it will include bibliographic, chemical, 
# crystal, experimental, refinement or atomic coordinate data resulting 
# from the CCDC's data processing and validation procedures.
#
#######################################################################

data_MEGBAB
_symmetry_cell_setting           monoclinic
_symmetry_space_group_name_H-M   'P 21/c'
_symmetry_Int_Tables_number      14
_space_group_name_Hall           '-P 2ybc'
loop_
_symmetry_equiv_pos_site_id
_symmetry_equiv_pos_as_xyz
1 x,y,z
2 -x,1/2+y,1/2-z
3 -x,-y,-z
4 x,1/2-y,1/2+z
_cell_length_a                   12.954(3)
_cell_length_b                   7.4866(15)
_cell_length_c                   16.085(3)
_cell_angle_alpha                90
_cell_angle_beta                 101.53(3)
_cell_angle_gamma                90
_cell_volume                     1528.47
loop_
_atom_site_label
_atom_site_type_symbol
_atom_site_fract_x
_atom_site_fract_y
_atom_site_fract_z
Cu1 Cu 0.12953(3) 0.18668(6) 0.31557(3)
N1 N 0.2289(2) 0.3779(4) 0.3707(2)
C1 C 0.3276(3) 0.3538(5) 0.3578(2)
C2 C 0.4086(3) 0.4721(6) 0.3880(3)
H1 H 0.4758(3) 0.4540(6) 0.3773(3)
C3 C 0.3868(4) 0.6185(6) 0.4346(3)
H2 H 0.4389(4) 0.7019(6) 0.4549(3)
C4 C 0.2885(4) 0.6380(6) 0.4502(3)
H3 H 0.2735(4) 0.7330(6) 0.4832(3)
C5 C 0.2098(3) 0.5164(6) 0.4171(3)
H4 H 0.1424(3) 0.5324(6) 0.4276(3)
C6 C 0.3404(3) 0.1916(6) 0.3092(2)
H5 H 0.4050(3) 0.1619(6) 0.2960(2)
N2 N 0.2600(2) 0.0943(4) 0.2861(2)
C7 C 0.2640(3) -0.0697(6) 0.2370(3)
H6 H 0.2654(3) -0.1727(6) 0.2738(3)
H7 H 0.3279(3) -0.0707(6) 0.2142(3)
C8 C 0.1684(3) -0.0816(6) 0.1644(2)
H8 H 0.1652(3) 0.0254(6) 0.1300(2)
H9 H 0.1774(3) -0.1827(6) 0.1287(2)
C9 C 0.0648(3) -0.1023(5) 0.1937(2)
O1 O 0.0439(2) -0.0061(4) 0.2526(2)
O2 O 0.0016(2) -0.2176(4) 0.1561(2)
O3 O 0.1509(3) 0.0487(5) 0.4464(2)
H10 H 0.1118(3) -0.0515(5) 0.4416(2)
H11 H 0.2152(3) -0.0014(5) 0.4537(2)
O2A O -0.0016(2) 0.2824(4) 0.3439(2)
Cu1A Cu -0.12953(3) -0.31332(6) 0.18443(3)
O4 O 0.02824(8) -0.2413(2) 0.47817(7)
H12 H -0.01067(8) -0.2376(2) 0.51865(7)
H13 H -0.01385(8) -0.1978(2) 0.43117(7)
O5 O 0.11150(8) 0.3614(2) 0.16970(7)
H14 H 0.07585(8) 0.4426(2) 0.19409(7)
H15 H 0.12565(8) 0.4003(2) 0.12023(7)
Cl1 Cl 0.38276(8) 0.4362(2) 0.12000(7)
O6 O 0.33345(8) 0.2563(2) 0.09309(7)
O7 O 0.30688(8) 0.5226(2) 0.15532(7)
O8 O 0.46655(8) 0.3793(2) 0.18197(7)
O9 O 0.42911(8) 0.5949(2) 0.08662(7)
O10? O 0.34161(8) 0.3461(2) 0.06009(7)
O11? O 0.40477(8) 0.4853(2) 0.04380(7)
loop_
_geom_bond_atom_site_label_1
_geom_bond_atom_site_label_2
_geom_bond_site_symmetry_1
_geom_bond_site_symmetry_2
Cu1 N1 1_555 1_555
N1 C1 1_555 1_555
C1 C2 1_555 1_555
C2 H1 1_555 1_555
C3 C2 1_555 1_555
H2 C3 1_555 1_555
C4 C3 1_555 1_555
H3 C4 1_555 1_555
C5 N1 1_555 1_555
H4 C5 1_555 1_555
C6 C1 1_555 1_555
H5 C6 1_555 1_555
N2 Cu1 1_555 1_555
C7 N2 1_555 1_555
H6 C7 1_555 1_555
H7 C7 1_555 1_555
C8 C7 1_555 1_555
H8 C8 1_555 1_555
H9 C8 1_555 1_555
C9 C8 1_555 1_555
O1 Cu1 1_555 1_555
O2 C9 1_555 1_555
O3 Cu1 1_555 1_555
H10 O3 1_555 1_555
H11 O3 1_555 1_555
O4 H12 1_555 1_555
H13 O4 1_555 1_555
O5 H14 1_555 1_555
H15 O5 1_555 1_555
Cl1 O6 1_555 1_555
O7 Cl1 1_555 1_555
O8 Cl1 1_555 1_555
O9 Cl1 1_555 1_555
O2A Cu1 1_555 1_555
Cu1A O2 1_555 1_555
C4 C5 1_555 1_555
C6 N2 1_555 1_555
C9 O1 1_555 1_555

#END
