
#######################################################################
#
#                 Cambridge Crystallographic Data Centre
#                                CCDC 
#
#######################################################################
#
# If this CIF has been generated from an entry in the Cambridge 
# Structural Database, then it will include bibliographic, chemical, 
# crystal, experimental, refinement or atomic coordinate data resulting 
# from the CCDC's data processing and validation procedures.
#
#######################################################################

data_MEGBAB01
_symmetry_cell_setting           monoclinic
_symmetry_space_group_name_H-M   'P 21/c'
_symmetry_Int_Tables_number      14
_space_group_name_Hall           '-P 2ybc'
loop_
_symmetry_equiv_pos_site_id
_symmetry_equiv_pos_as_xyz
1 x,y,z
2 -x,1/2+y,1/2-z
3 -x,-y,-z
4 x,1/2-y,1/2+z
_cell_length_a                   12.8651(14)
_cell_length_b                   7.4508(8)
_cell_length_c                   15.8758(18)
_cell_angle_alpha                90
_cell_angle_beta                 101.305(2)
_cell_angle_gamma                90
_cell_volume                     1492.25
loop_
_atom_site_label
_atom_site_type_symbol
_atom_site_fract_x
_atom_site_fract_y
_atom_site_fract_z
Cu1 Cu 0.13085(3) 0.18931(5) 0.31614(2)
N1 N 0.23120(19) 0.3806(3) 0.37099(16)
C1 C 0.2115(3) 0.5227(4) 0.4163(2)
H1 H 0.1426 0.5411 0.4261
C2 C 0.2908(3) 0.6441(5) 0.4494(2)
H2 H 0.2755 0.7420 0.4823
C3 C 0.3911(3) 0.6218(5) 0.4344(2)
H3 H 0.4447 0.7055 0.4551
C4 C 0.4122(3) 0.4731(5) 0.3878(2)
H4 H 0.4805 0.4534 0.3768
C5 C 0.3303(2) 0.3543(4) 0.35803(19)
C6 C 0.3430(2) 0.1910(4) 0.3097(2)
H5 H 0.4089 0.1591 0.2969
N2 N 0.26140(18) 0.0946(3) 0.28572(16)
C7 C 0.2646(2) -0.0693(4) 0.2361(2)
H6 H 0.2650 -0.1740 0.2735
H7 H 0.3298 -0.0717 0.2128
C8 C 0.1686(2) -0.0779(4) 0.1627(2)
H8 H 0.1661 0.0321 0.1285
H9 H 0.1773 -0.1792 0.1254
C9 C 0.0644(2) -0.0987(4) 0.19259(19)
O1 O 0.04416(16) -0.0033(3) 0.25270(13)
O2 O 0.00054(16) -0.2136(3) 0.15456(13)
O3 O 0.1523(2) 0.0509(4) 0.44649(17)
H10 H 0.122(3) -0.027(4) 0.460(2)
H11 H 0.201(2) 0.064(5) 0.481(2)
O9 O 0.1114(2) 0.3627(4) 0.16894(17)
H14 H 0.075(2) 0.428(4) 0.185(3)
H15 H 0.162(2) 0.415(5) 0.167(3)
Cu1A Cu -0.13085(3) -0.31069(5) 0.18386(2)
O2A O -0.00054(16) 0.2864(3) 0.34544(13)
Cl1 Cl 0.38308(7) 0.43761(14) 0.12200(6)
O4 O 0.3068(3) 0.5309(5) 0.1585(3)
O5 O 0.4665(2) 0.3791(4) 0.1863(2)
O6 O 0.3312(3) 0.2906(7) 0.0793(3)
O7 O 0.4246(4) 0.5467(9) 0.0671(4)
O8 O 0.0322(2) 0.7625(4) 0.47862(18)
H12 H 0.011(3) 0.759(6) 0.5201(16)
H13 H -0.016(2) 0.783(5) 0.4433(18)
loop_
_geom_bond_atom_site_label_1
_geom_bond_atom_site_label_2
_geom_bond_site_symmetry_1
_geom_bond_site_symmetry_2
Cu1 N1 1_555 1_555
N1 C1 1_555 1_555
C1 H1 1_555 1_555
C2 C1 1_555 1_555
H2 C2 1_555 1_555
C3 C2 1_555 1_555
H3 C3 1_555 1_555
C4 C3 1_555 1_555
H4 C4 1_555 1_555
C5 N1 1_555 1_555
C6 C5 1_555 1_555
H5 C6 1_555 1_555
N2 Cu1 1_555 1_555
C7 N2 1_555 1_555
H6 C7 1_555 1_555
H7 C7 1_555 1_555
C8 C7 1_555 1_555
H8 C8 1_555 1_555
H9 C8 1_555 1_555
C9 C8 1_555 1_555
O1 Cu1 1_555 1_555
O2 C9 1_555 1_555
O3 Cu1 1_555 1_555
H10 O3 1_555 1_555
H11 O3 1_555 1_555
Cl1 O4 1_555 1_555
O5 Cl1 1_555 1_555
O6 Cl1 1_555 1_555
O7 Cl1 1_555 1_555
O8 H12 1_555 1_555
H13 O8 1_555 1_555
O9 Cu1 1_555 1_555
H14 O9 1_555 1_555
H15 O9 1_555 1_555
Cu1A O2 1_555 1_555
O2A Cu1 1_555 1_555
C4 C5 1_555 1_555
C6 N2 1_555 1_555
C9 O1 1_555 1_555

#END
