
#######################################################################
#
#                 Cambridge Crystallographic Data Centre
#                                CCDC 
#
#######################################################################
#
# If this CIF has been generated from an entry in the Cambridge 
# Structural Database, then it will include bibliographic, chemical, 
# crystal, experimental, refinement or atomic coordinate data resulting 
# from the CCDC's data processing and validation procedures.
#
#######################################################################

data_MEGBOQ
_symmetry_cell_setting           monoclinic
_symmetry_space_group_name_H-M   'P 21/n'
_symmetry_Int_Tables_number      14
_space_group_name_Hall           '-P 2yn'
loop_
_symmetry_equiv_pos_site_id
_symmetry_equiv_pos_as_xyz
1 x,y,z
2 1/2-x,1/2+y,1/2-z
3 -x,-y,-z
4 1/2+x,1/2-y,1/2+z
_cell_length_a                   8.8029(8)
_cell_length_b                   4.5297(4)
_cell_length_c                   15.2002(14)
_cell_angle_alpha                90
_cell_angle_beta                 105.6280(10)
_cell_angle_gamma                90
_cell_volume                     583.693
loop_
_atom_site_label
_atom_site_type_symbol
_atom_site_fract_x
_atom_site_fract_y
_atom_site_fract_z
Co1 Co 0.0000 0.0000 0.5000
N1 N 0.24159(13) -0.1686(3) 0.54228(7)
H1 H 0.235(2) -0.349(5) 0.5577(13)
H2 H 0.264(2) -0.162(5) 0.4901(14)
O1 O 0.45329(12) -0.2294(2) 0.88574(6)
O2 O 0.59396(11) 0.1832(2) 0.92638(6)
C1 C 0.35956(16) -0.0168(3) 0.60992(10)
C2 C 0.38166(15) -0.0808(3) 0.70198(9)
H3 H 0.3215 -0.2269 0.7194
C3 C 0.49391(15) 0.0737(3) 0.76823(8)
C4 C 0.58599(15) 0.2896(3) 0.74256(9)
H4 H 0.6605 0.3934 0.7868
C5 C 0.56585(16) 0.3492(3) 0.65042(9)
H5 H 0.6288 0.4901 0.6329
C6 C 0.45199(15) 0.1989(3) 0.58441(8)
H6 H 0.4375 0.2428 0.5229
C7 C 0.51497(16) 0.0044(3) 0.86784(9)
Co1C Co 0.5000 -0.5000 1.0000
Co1C_2 Co 0.5000 0.5000 1.0000
Co1C_3 Co -0.5000 0.5000 0.0000
Co1C_4 Co -0.5000 -0.5000 0.0000
N1B N -0.24159(13) 0.1686(3) 0.45772(7)
H1B H -0.235(2) 0.349(5) 0.4423(13)
H2B H -0.264(2) 0.162(5) 0.5099(14)
O1B O -0.45329(12) 0.2294(2) 0.11426(6)
O1C O -0.04671(12) -0.2706(2) 0.38574(6)
O1A O 0.04671(12) 0.2706(2) 0.61426(6)
O2B O -0.59396(11) -0.1832(2) 0.07362(6)
O2C O 0.09396(11) 0.3168(2) 0.42638(6)
O2A O -0.09396(11) -0.3168(2) 0.57362(6)
C1B C -0.35956(16) 0.0168(3) 0.39008(10)
C2B C -0.38166(15) 0.0808(3) 0.29802(9)
H3B H -0.3215 0.2269 0.2806
C3B C -0.49391(15) -0.0737(3) 0.23177(8)
C4B C -0.58599(15) -0.2896(3) 0.25744(9)
H4B H -0.6605 -0.3934 0.2132
C5B C -0.56585(16) -0.3492(3) 0.34958(9)
H5B H -0.6288 -0.4901 0.3671
C6B C -0.45199(15) -0.1989(3) 0.41559(8)
H6B H -0.4375 -0.2428 0.4771
C7B C -0.51497(16) -0.0044(3) 0.13216(9)
loop_
_geom_bond_atom_site_label_1
_geom_bond_atom_site_label_2
_geom_bond_site_symmetry_1
_geom_bond_site_symmetry_2
Co1 N1 1_555 1_555
N1 H1 1_555 1_555
H2 N1 1_555 1_555
O1 C7 1_555 1_555
O2 C7 1_555 1_555
C1 N1 1_555 1_555
C2 C1 1_555 1_555
H3 C2 1_555 1_555
C3 C2 1_555 1_555
C4 C3 1_555 1_555
H4 C4 1_555 1_555
C5 C4 1_555 1_555
H5 C5 1_555 1_555
C6 C1 1_555 1_555
H6 C6 1_555 1_555
C7 C3 1_555 1_555
Co1C O1 1_555 1_555
Co1C_2 O2 1_555 1_555
Co1C_3 O1B 1_555 1_555
Co1C_4 O2B 1_555 1_555
N1B Co1 1_555 1_555
H1B N1B 1_555 1_555
H2B N1B 1_555 1_555
O1B C7B 1_555 1_555
O1C Co1 1_555 1_555
O1A Co1 1_555 1_555
O2B C7B 1_555 1_555
O2C Co1 1_555 1_555
O2A Co1 1_555 1_555
C1B N1B 1_555 1_555
C2B C1B 1_555 1_555
H3B C2B 1_555 1_555
C3B C2B 1_555 1_555
C4B C3B 1_555 1_555
H4B C4B 1_555 1_555
C5B C4B 1_555 1_555
H5B C5B 1_555 1_555
C6B C1B 1_555 1_555
H6B C6B 1_555 1_555
C7B C3B 1_555 1_555
C5 C6 1_555 1_555
C5B C6B 1_555 1_555

#END
