
#######################################################################
#
#                 Cambridge Crystallographic Data Centre
#                                CCDC 
#
#######################################################################
#
# If this CIF has been generated from an entry in the Cambridge 
# Structural Database, then it will include bibliographic, chemical, 
# crystal, experimental, refinement or atomic coordinate data resulting 
# from the CCDC's data processing and validation procedures.
#
#######################################################################

data_MEGFIN
_symmetry_cell_setting           tetragonal
_symmetry_space_group_name_H-M   'I 41/a'
_symmetry_Int_Tables_number      88
_space_group_name_Hall           '-I 4ad'
loop_
_symmetry_equiv_pos_site_id
_symmetry_equiv_pos_as_xyz
1 x,y,z
2 3/4-y,1/4+x,1/4+z
3 1/2-x,-y,1/2+z
4 3/4+y,3/4-x,3/4+z
5 1/2+x,1/2+y,1/2+z
6 1/4-y,3/4+x,3/4+z
7 -x,1/2-y,z
8 1/4+y,1/4-x,1/4+z
9 -x,-y,-z
10 1/4+y,3/4-x,3/4-z
11 1/2+x,y,1/2-z
12 1/4-y,1/4+x,1/4-z
13 1/2-x,1/2-y,1/2-z
14 3/4+y,1/4-x,1/4-z
15 x,1/2+y,-z
16 3/4-y,3/4+x,3/4-z
_cell_length_a                   40.352(13)
_cell_length_b                   40.352(13)
_cell_length_c                   17.813(8)
_cell_angle_alpha                90
_cell_angle_beta                 90
_cell_angle_gamma                90
_cell_volume                     29004.6
loop_
_atom_site_label
_atom_site_type_symbol
_atom_site_fract_x
_atom_site_fract_y
_atom_site_fract_z
O11 O -0.4787(16) 0.3799(10) -0.051(2)
N10 N -0.4825(5) 0.3983(6) 0.0592(11)
C43 C -0.471(2) 0.3749(13) 0.012(2)
H41 H -0.4578 0.3570 0.0277
C44 C -0.4992(7) 0.4285(8) 0.0369(12)
H42 H -0.4847 0.4471 0.0455
H43 H -0.5190 0.4312 0.0660
H44 H -0.5047 0.4274 -0.0154
C45 C -0.4718(6) 0.3971(8) 0.1336(12)
H45 H -0.4658 0.3747 0.1463
H46 H -0.4893 0.4044 0.1661
H47 H -0.4528 0.4113 0.1396
O12 O -0.623(2) 1.271(5) 0.083(11)
N11 N -0.6504(7) 1.2298(8) 0.0272(17)
C46 C -0.6312(10) 1.242(4) 0.085(4)
C47 C -0.6674(7) 1.2491(8) -0.0205(13)
H48 H -0.6872 1.2570 0.0037
H49 H -0.6733 1.2365 -0.0642
H50 H -0.6540 1.2676 -0.0351
C48 C -0.6572(12) 1.1937(10) 0.019(3)
H51 H -0.6745 1.1904 -0.0174
H52 H -0.6639 1.1847 0.0663
H53 H -0.6374 1.1826 0.0022
Mn1 Mn -0.27871(3) 0.36363(3) 0.28477(7)
O1 O -0.25856(16) 0.40168(15) 0.3197(3)
O2 O -0.19639(17) 0.36620(16) 0.1438(4)
O3 O -0.29359(15) 0.32279(16) 0.2395(3)
N1 N -0.24296(19) 0.35654(18) 0.2126(4)
N2 N -0.2453(2) 0.32621(19) 0.1745(4)
C1 C -0.2332(2) 0.4191(2) 0.2903(5)
C2 C -0.2134(2) 0.4078(2) 0.2300(5)
C3 C -0.1879(2) 0.4284(2) 0.2033(5)
H1 H -0.1751 0.4214 0.1629
C4 C -0.1816(2) 0.4586(2) 0.2356(6)
H2 H -0.1644 0.4718 0.2179
C5 C -0.2009(3) 0.4692(3) 0.2940(6)
H3 H -0.1969 0.4898 0.3158
C6 C -0.2266(3) 0.4495(3) 0.3210(6)
H4 H -0.2395 0.4571 0.3606
C7 C -0.2177(2) 0.3758(2) 0.1936(5)
C8 C -0.2725(3) 0.3108(2) 0.1925(6)
C9 C -0.2783(3) 0.2769(3) 0.1625(8)
H5 H -0.2801 0.2615 0.2035
H6 H -0.2602 0.2706 0.1307
H7 H -0.2985 0.2766 0.1340
N3 N -0.3577(2) 0.0594(2) -0.4506(5)
C10 C -0.3648(3) 0.0587(3) -0.3773(7)
H8 H -0.3809 0.0440 -0.3608
C11 C -0.3496(4) 0.0785(5) -0.3252(7)
H9 H -0.3554 0.0768 -0.2748
C12 C -0.3259(4) 0.1008(5) -0.3474(7)
C13 C -0.3170(4) 0.1000(4) -0.4216(7)
H10 H -0.2995 0.1129 -0.4388
C14 C -0.3342(3) 0.0800(3) -0.4702(6)
H11 H -0.3287 0.0812 -0.5209
C15 C -0.3115(5) 0.1268(7) -0.2951(9)
H12 H -0.3291 0.1413 -0.2780
H13 H -0.2955 0.1401 -0.3223
Mn2 Mn -0.20524(4) 0.32543(3) 0.08560(8)
O4 O -0.23236(18) 0.34809(16) 0.0188(4)
O5 O -0.22834(18) 0.24906(17) -0.0617(3)
O6 O -0.17910(15) 0.29544(16) 0.1457(3)
N4 N -0.21301(19) 0.28448(19) 0.0327(4)
N5 N -0.19733(18) 0.25630(18) 0.0634(4)
C16 C -0.2480(3) 0.3374(3) -0.0420(7)
C17 C -0.2464(3) 0.3049(3) -0.0697(6)
C18 C -0.2618(4) 0.2976(3) -0.1380(7)
H14 H -0.2596 0.2764 -0.1580
C19 C -0.2806(4) 0.3210(5) -0.1770(9)
H15 H -0.2913 0.3158 -0.2218
C20 C -0.2825(4) 0.3531(4) -0.1447(11)
H16 H -0.2945 0.3694 -0.1696
C21 C -0.2678(4) 0.3607(3) -0.0804(9)
H17 H -0.2706 0.3818 -0.0602
C22 C -0.2288(3) 0.2782(3) -0.0325(6)
C23 C -0.1809(2) 0.2652(2) 0.1230(6)
C24 C -0.1605(3) 0.2392(3) 0.1645(6)
H18 H -0.1375 0.2455 0.1639
H19 H -0.1630 0.2181 0.1403
H20 H -0.1680 0.2376 0.2155
O7 O -0.1584(3) 0.3375(2) 0.0237(6)
N6 N -0.1017(4) 0.3411(5) 0.0167(12)
C25 C -0.1302(5) 0.3310(5) 0.0469(10)
H21 H -0.1288 0.3178 0.0895
C26 C -0.0990(7) 0.3619(5) -0.0381(17)
H22 H -0.1206 0.3700 -0.0517
H23 H -0.0891 0.3511 -0.0805
H24 H -0.0853 0.3802 -0.0229
C27 C -0.0689(5) 0.3289(9) 0.052(2)
H25 H -0.0507 0.3343 0.0199
H26 H -0.0699 0.3054 0.0596
H27 H -0.0658 0.3396 0.1001
Mn3 Mn -0.21571(4) 0.21050(3) 0.00138(7)
O8 O -0.32524(18) 0.29882(17) 0.5411(4)
O9 O -0.31609(15) 0.36483(15) 0.3580(3)
O10 O -0.24230(17) 0.28697(16) 0.4457(3)
N7 N -0.2902(2) 0.32631(19) 0.4276(4)
N8 N -0.26260(19) 0.3312(2) 0.3810(4)
C28 C -0.3474(3) 0.3214(3) 0.5234(6)
C29 C -0.3451(2) 0.3442(2) 0.4620(5)
C30 C -0.3702(3) 0.3667(3) 0.4502(6)
H28 H -0.3684 0.3813 0.4100
C31 C -0.3979(3) 0.3684(3) 0.4959(8)
H29 H -0.4146 0.3837 0.4862
C32 C -0.4003(3) 0.3467(4) 0.5572(8)
H30 H -0.4186 0.3476 0.5888
C33 C -0.3759(3) 0.3243(3) 0.5705(7)
H31 H -0.3778 0.3103 0.6118
C34 C -0.3161(2) 0.3449(2) 0.4132(5)
C35 C -0.2389(2) 0.3101(2) 0.3953(5)
C36 C -0.2066(3) 0.3113(3) 0.3538(6)
H32 H -0.2046 0.3323 0.3287
H33 H -0.1887 0.3087 0.3886
H34 H -0.2060 0.2938 0.3174
N9 N -0.2415(3) 0.1798(2) -0.0882(5)
C37 C -0.2314(4) 0.1497(3) -0.1072(6)
H35 H -0.2116 0.1421 -0.0868
C38 C -0.2487(5) 0.1285(4) -0.1563(8)
H36 H -0.2401 0.1077 -0.1679
C39 C -0.2775(5) 0.1385(4) -0.1863(9)
C40 C -0.2888(4) 0.1694(4) -0.1646(9)
H37 H -0.3087 0.1773 -0.1838
C41 C -0.2709(4) 0.1889(4) -0.1150(7)
H38 H -0.2799 0.2091 -0.0997
C42 C -0.2971(6) 0.1134(5) -0.2373(15)
H39 H -0.2818 0.0965 -0.2549
H40 H -0.3138 0.1024 -0.2070
Mn1L Mn -0.22129(3) 0.13637(3) 0.21523(7)
O1L O -0.24144(16) 0.09832(15) 0.1803(3)
O2L O -0.30361(17) 0.13380(16) 0.3562(4)
O3L O -0.20641(15) 0.17721(16) 0.2605(3)
N1L N -0.25704(19) 0.14346(18) 0.2874(4)
N2L N -0.2547(2) 0.17379(19) 0.3255(4)
C1L C -0.2668(2) 0.0809(2) 0.2097(5)
C2L C -0.2866(2) 0.0922(2) 0.2700(5)
C3L C -0.3121(2) 0.0716(2) 0.2967(5)
H1L H -0.3249 0.0786 0.3371
C4L C -0.3184(2) 0.0414(2) 0.2644(6)
H2L H -0.3356 0.0282 0.2821
C5L C -0.2991(3) 0.0308(3) 0.2060(6)
H3L H -0.3031 0.0102 0.1842
C6L C -0.2734(3) 0.0505(3) 0.1790(6)
H4L H -0.2605 0.0429 0.1394
C7L C -0.2823(2) 0.1242(2) 0.3064(5)
C8L C -0.2275(3) 0.1892(2) 0.3075(6)
C9L C -0.2217(3) 0.2231(3) 0.3375(8)
H5L H -0.2199 0.2385 0.2965
H6L H -0.2398 0.2294 0.3693
H7L H -0.2015 0.2234 0.3660
N3C N -0.1906(2) 0.1077(2) 0.2994(5)
Mn2L Mn -0.29476(4) 0.17457(3) 0.41440(8)
O4L O -0.26764(18) 0.15191(16) 0.4812(4)
O5L O -0.27166(18) 0.25094(17) 0.5617(3)
O6L O -0.32090(15) 0.20456(16) 0.3543(3)
N4L N -0.28699(19) 0.21552(19) 0.4673(4)
N5L N -0.30267(18) 0.24370(18) 0.4366(4)
C16L C -0.2520(3) 0.1626(3) 0.5420(7)
C17L C -0.2536(3) 0.1951(3) 0.5697(6)
C18L C -0.2382(4) 0.2024(3) 0.6380(7)
H14L H -0.2404 0.2236 0.6580
C19L C -0.2194(4) 0.1790(5) 0.6770(9)
H15L H -0.2087 0.1842 0.7218
C20L C -0.2175(4) 0.1469(4) 0.6447(11)
H16L H -0.2055 0.1306 0.6696
C21L C -0.2322(4) 0.1393(3) 0.5804(9)
H17L H -0.2294 0.1182 0.5602
C22L C -0.2712(3) 0.2218(3) 0.5325(6)
C23L C -0.3191(2) 0.2348(2) 0.3770(6)
C24L C -0.3395(3) 0.2608(3) 0.3355(6)
H18L H -0.3625 0.2545 0.3361
H19L H -0.3370 0.2819 0.3597
H20L H -0.3320 0.2624 0.2845
O7L O -0.3416(3) 0.1625(2) 0.4763(6)
N6L N -0.3983(4) 0.1589(5) 0.4833(12)
C25L C -0.3698(5) 0.1690(5) 0.4531(10)
H21L H -0.3712 0.1822 0.4105
C26L C -0.4010(7) 0.1381(5) 0.5381(17)
H22L H -0.3794 0.1300 0.5517
H23L H -0.4109 0.1489 0.5805
H24L H -0.4147 0.1198 0.5229
C27L C -0.4311(5) 0.1711(9) 0.448(2)
H25L H -0.4493 0.1657 0.4801
H26L H -0.4301 0.1946 0.4404
H27L H -0.4342 0.1604 0.3999
O8L O -0.17476(18) 0.20118(17) -0.0411(4)
O9L O -0.18391(15) 0.13517(15) 0.1420(3)
O10L O -0.25770(17) 0.21303(16) 0.0543(3)
N7L N -0.2098(2) 0.17369(19) 0.0724(4)
N8L N -0.23740(19) 0.1688(2) 0.1190(4)
C28L C -0.1526(3) 0.1786(3) -0.0234(6)
C29L C -0.1549(2) 0.1558(2) 0.0380(5)
C30L C -0.1298(3) 0.1333(3) 0.0498(6)
H28L H -0.1316 0.1187 0.0900
C31L C -0.1021(3) 0.1316(3) 0.0041(8)
H29L H -0.0854 0.1163 0.0138
C32L C -0.0997(3) 0.1533(4) -0.0572(8)
H30L H -0.0814 0.1524 -0.0888
C33L C -0.1241(3) 0.1757(3) -0.0705(7)
H31L H -0.1222 0.1897 -0.1118
C34L C -0.1839(2) 0.1551(2) 0.0868(5)
C35L C -0.2611(2) 0.1899(2) 0.1047(5)
C36L C -0.2934(3) 0.1887(3) 0.1462(6)
H32L H -0.2954 0.1677 0.1713
H33L H -0.3113 0.1913 0.1114
H34L H -0.2940 0.2062 0.1826
Mn1I Mn -0.38637(3) 0.02871(3) -0.53477(7)
N3O N -0.3094(2) 0.3923(2) 0.2006(5)
Mn3L Mn -0.28429(4) 0.28950(3) 0.49862(7)
Mn1E Mn -0.11363(3) 0.47129(3) 1.03477(7)
N3L N -0.1423(2) 0.4406(2) 0.9506(5)
C10L C -0.1352(3) 0.4413(3) 0.8773(7)
H8L H -0.1191 0.4560 0.8608
C11L C -0.1504(4) 0.4215(5) 0.8252(7)
H9L H -0.1446 0.4232 0.7748
C12L C -0.1741(4) 0.3992(5) 0.8474(7)
C13L C -0.1830(4) 0.4000(4) 0.9216(7)
H10L H -0.2005 0.3871 0.9388
C14L C -0.1658(3) 0.4200(3) 0.9702(6)
H11L H -0.1713 0.4188 1.0209
C15L C -0.1885(5) 0.3732(7) 0.7951(9)
H12L H -0.1709 0.3587 0.7780
H13L H -0.2045 0.3599 0.8223
N9L N -0.2585(3) 0.3202(2) 0.5882(5)
C37L C -0.2686(4) 0.3503(3) 0.6072(6)
H35L H -0.2884 0.3579 0.5868
C38L C -0.2513(5) 0.3715(4) 0.6563(8)
H36L H -0.2599 0.3923 0.6679
C39L C -0.2225(5) 0.3615(4) 0.6863(9)
C40L C -0.2112(4) 0.3306(4) 0.6646(9)
H37L H -0.1913 0.3227 0.6838
C41L C -0.2291(4) 0.3111(4) 0.6150(7)
H38L H -0.2201 0.2909 0.5997
C42L C -0.2029(6) 0.3866(5) 0.7373(15)
H39L H -0.2182 0.4035 0.7549
H40L H -0.1862 0.3976 0.7070
O13? O 0.383(2) 1.223(4) 0.116(5)
O14? O 0.9814(7) 0.6782(8) -0.032(3)
N12? N 0.9640(13) 0.7164(15) 0.014(4)
C49? C 0.985(3) 0.660(6) 0.069(7)
C50? C 0.927(2) 0.736(2) -0.017(4)
H54? H 0.9232 0.7303 -0.0683
H55? H 0.9300 0.7598 -0.0133
H56? H 0.9091 0.7294 0.0137
C51? C 0.9648(13) 0.7180(15) 0.113(3)
H57? H 0.9426 0.7162 0.1317
H58? H 0.9742 0.7387 0.1286
H59? H 0.9780 0.7001 0.1316
O15? O 0.322(3) 0.425(5) -0.109(5)
N13? N 0.3237(11) 0.4012(12) 0.021(2)
C52? C 0.3193(11) 0.444(2) -0.024(3)
C53? C 0.340(2) 0.399(3) 0.063(5)
C54? C 0.2974(14) 0.3802(11) 0.016(3)
O16? O 0.358(7) 0.399(5) 0.019(14)
N14? N 0.353(8) 0.358(7) 0.030(7)
C55? C 0.347(3) 0.406(3) 0.091(6)
C56? C 0.349(4) 0.337(3) 0.004(4)
C57? C 0.300(2) 0.402(3) 0.011(5)
O17? O 0.2459(16) 0.5534(9) -0.057(3)
O18? O 0.3044(15) 0.482(2) -0.036(5)
N15? N 0.2798(15) 0.512(2) -0.104(6)
C58? C 0.263(2) 0.5332(18) -0.024(6)
C59? C 0.268(3) 0.539(5) -0.140(8)
C60? C 0.293(2) 0.5089(17) 0.012(5)
C61? C 0.282(2) 0.498(3) -0.191(11)
N16? N 0.4198(15) 0.851(2) 0.065(4)
C62? C 0.3879(18) 0.8527(17) 0.176(5)
N17? N 0.5466(14) 0.2940(19) 0.113(4)
loop_
_geom_bond_atom_site_label_1
_geom_bond_atom_site_label_2
_geom_bond_site_symmetry_1
_geom_bond_site_symmetry_2
Mn1 O1 1_555 1_555
O1 C1 1_555 1_555
O2 C7 1_555 1_555
O3 Mn1 1_555 1_555
N1 Mn1 1_555 1_555
N2 N1 1_555 1_555
C1 C2 1_555 1_555
C2 C3 1_555 1_555
C3 H1 1_555 1_555
C4 C3 1_555 1_555
H2 C4 1_555 1_555
C5 C4 1_555 1_555
H3 C5 1_555 1_555
C6 C1 1_555 1_555
H4 C6 1_555 1_555
C7 N1 1_555 1_555
C8 O3 1_555 1_555
C9 C8 1_555 1_555
H5 C9 1_555 1_555
H6 C9 1_555 1_555
H7 C9 1_555 1_555
N3 C10 1_555 1_555
C10 H8 1_555 1_555
C11 C10 1_555 1_555
H9 C11 1_555 1_555
C12 C11 1_555 1_555
C13 C12 1_555 1_555
H10 C13 1_555 1_555
C14 N3 1_555 1_555
H11 C14 1_555 1_555
C15 C12 1_555 1_555
H12 C15 1_555 1_555
H13 C15 1_555 1_555
Mn2 O2 1_555 1_555
O4 Mn2 1_555 1_555
O5 C22 1_555 1_555
O6 Mn2 1_555 1_555
N4 Mn2 1_555 1_555
N5 N4 1_555 1_555
C16 O4 1_555 1_555
C17 C16 1_555 1_555
C18 C17 1_555 1_555
H14 C18 1_555 1_555
C19 C18 1_555 1_555
H15 C19 1_555 1_555
C20 C19 1_555 1_555
H16 C20 1_555 1_555
C21 C16 1_555 1_555
H17 C21 1_555 1_555
C22 N4 1_555 1_555
C23 O6 1_555 1_555
C24 C23 1_555 1_555
H18 C24 1_555 1_555
H19 C24 1_555 1_555
H20 C24 1_555 1_555
O7 Mn2 1_555 1_555
N6 C25 1_555 1_555
C25 O7 1_555 1_555
H21 C25 1_555 1_555
C26 N6 1_555 1_555
H22 C26 1_555 1_555
H23 C26 1_555 1_555
H24 C26 1_555 1_555
C27 N6 1_555 1_555
H25 C27 1_555 1_555
H26 C27 1_555 1_555
H27 C27 1_555 1_555
Mn3 O5 1_555 1_555
O8 C28 1_555 1_555
O9 Mn1 1_555 1_555
O10 C35 1_555 1_555
N7 N8 1_555 1_555
N8 Mn1 1_555 1_555
C28 C29 1_555 1_555
C29 C30 1_555 1_555
C30 H28 1_555 1_555
C31 C30 1_555 1_555
H29 C31 1_555 1_555
C32 C31 1_555 1_555
H30 C32 1_555 1_555
C33 C28 1_555 1_555
H31 C33 1_555 1_555
C34 O9 1_555 1_555
C35 N8 1_555 1_555
C36 C35 1_555 1_555
H32 C36 1_555 1_555
H33 C36 1_555 1_555
H34 C36 1_555 1_555
N9 Mn3 1_555 1_555
C37 N9 1_555 1_555
H35 C37 1_555 1_555
C38 C37 1_555 1_555
H36 C38 1_555 1_555
C39 C38 1_555 1_555
C40 C39 1_555 1_555
H37 C40 1_555 1_555
C41 N9 1_555 1_555
H38 C41 1_555 1_555
C42 C15 1_555 1_555
H39 C42 1_555 1_555
H40 C42 1_555 1_555
O11 C43 1_555 1_555
N10 C43 1_555 1_555
C43 H41 1_555 1_555
C44 N10 1_555 1_555
H42 C44 1_555 1_555
H43 C44 1_555 1_555
H44 C44 1_555 1_555
C45 N10 1_555 1_555
H45 C45 1_555 1_555
H46 C45 1_555 1_555
H47 C45 1_555 1_555
O12 C46 1_555 1_555
N11 C46 1_555 1_555
C47 N11 1_555 1_555
H48 C47 1_555 1_555
H49 C47 1_555 1_555
H50 C47 1_555 1_555
C48 N11 1_555 1_555
H51 C48 1_555 1_555
H52 C48 1_555 1_555
H53 C48 1_555 1_555
Mn1L O1L 1_555 1_555
O1L C1L 1_555 1_555
O2L C7L 1_555 1_555
O3L Mn1L 1_555 1_555
N1L Mn1L 1_555 1_555
N2L N1L 1_555 1_555
C1L C2L 1_555 1_555
C2L C3L 1_555 1_555
C3L H1L 1_555 1_555
C4L C3L 1_555 1_555
H2L C4L 1_555 1_555
C5L C4L 1_555 1_555
H3L C5L 1_555 1_555
C6L C1L 1_555 1_555
H4L C6L 1_555 1_555
C7L N1L 1_555 1_555
C8L O3L 1_555 1_555
C9L C8L 1_555 1_555
H5L C9L 1_555 1_555
H6L C9L 1_555 1_555
H7L C9L 1_555 1_555
N3C Mn1L 1_555 1_555
Mn2L O2L 1_555 1_555
O4L Mn2L 1_555 1_555
O5L C22L 1_555 1_555
O6L Mn2L 1_555 1_555
N4L Mn2L 1_555 1_555
N5L N4L 1_555 1_555
C16L O4L 1_555 1_555
C17L C16L 1_555 1_555
C18L C17L 1_555 1_555
H14L C18L 1_555 1_555
C19L C18L 1_555 1_555
H15L C19L 1_555 1_555
C20L C19L 1_555 1_555
H16L C20L 1_555 1_555
C21L C16L 1_555 1_555
H17L C21L 1_555 1_555
C22L N4L 1_555 1_555
C23L O6L 1_555 1_555
C24L C23L 1_555 1_555
H18L C24L 1_555 1_555
H19L C24L 1_555 1_555
H20L C24L 1_555 1_555
O7L Mn2L 1_555 1_555
N6L C25L 1_555 1_555
C25L O7L 1_555 1_555
H21L C25L 1_555 1_555
C26L N6L 1_555 1_555
H22L C26L 1_555 1_555
H23L C26L 1_555 1_555
H24L C26L 1_555 1_555
C27L N6L 1_555 1_555
H25L C27L 1_555 1_555
H26L C27L 1_555 1_555
H27L C27L 1_555 1_555
O8L Mn3 1_555 1_555
O9L Mn1L 1_555 1_555
O10L Mn3 1_555 1_555
N7L Mn3 1_555 1_555
N8L Mn1L 1_555 1_555
C28L O8L 1_555 1_555
C29L C28L 1_555 1_555
C30L C29L 1_555 1_555
H28L C30L 1_555 1_555
C31L C30L 1_555 1_555
H29L C31L 1_555 1_555
C32L C31L 1_555 1_555
H30L C32L 1_555 1_555
C33L C28L 1_555 1_555
H31L C33L 1_555 1_555
C34L O9L 1_555 1_555
C35L O10L 1_555 1_555
C36L C35L 1_555 1_555
H32L C36L 1_555 1_555
H33L C36L 1_555 1_555
H34L C36L 1_555 1_555
Mn1I N3 1_555 1_555
N3O Mn1 1_555 1_555
Mn3L O8 1_555 1_555
Mn1E N3L 1_555 1_555
N3L C10L 1_555 1_555
C10L H8L 1_555 1_555
C11L C10L 1_555 1_555
H9L C11L 1_555 1_555
C12L C11L 1_555 1_555
C13L C12L 1_555 1_555
H10L C13L 1_555 1_555
C14L N3L 1_555 1_555
H11L C14L 1_555 1_555
C15L C12L 1_555 1_555
H12L C15L 1_555 1_555
H13L C15L 1_555 1_555
N9L Mn3L 1_555 1_555
C37L N9L 1_555 1_555
H35L C37L 1_555 1_555
C38L C37L 1_555 1_555
H36L C38L 1_555 1_555
C39L C38L 1_555 1_555
C40L C39L 1_555 1_555
H37L C40L 1_555 1_555
C41L N9L 1_555 1_555
H38L C41L 1_555 1_555
C42L C15L 1_555 1_555
H39L C42L 1_555 1_555
H40L C42L 1_555 1_555
N2 Mn2 1_555 1_555
N2 C8 1_555 1_555
C2 C7 1_555 1_555
C5 C6 1_555 1_555
C13 C14 1_555 1_555
N5 C23 1_555 1_555
N5 Mn3 1_555 1_555
C17 C22 1_555 1_555
C20 C21 1_555 1_555
O10 Mn3L 1_555 1_555
N7 C34 1_555 1_555
N7 Mn3L 1_555 1_555
C29 C34 1_555 1_555
C32 C33 1_555 1_555
C39 C42 1_555 1_555
C40 C41 1_555 1_555
N2L Mn2L 1_555 1_555
N2L C8L 1_555 1_555
C2L C7L 1_555 1_555
C5L C6L 1_555 1_555
O5L Mn3L 1_555 1_555
N5L Mn3L 1_555 1_555
N5L C23L 1_555 1_555
C17L C22L 1_555 1_555
C20L C21L 1_555 1_555
N7L N8L 1_555 1_555
N7L C34L 1_555 1_555
N8L C35L 1_555 1_555
C29L C34L 1_555 1_555
C32L C33L 1_555 1_555
C13L C14L 1_555 1_555
C39L C42L 1_555 1_555
C40L C41L 1_555 1_555

#END
