
#######################################################################
#
#                 Cambridge Crystallographic Data Centre
#                                CCDC 
#
#######################################################################
#
# If this CIF has been generated from an entry in the Cambridge 
# Structural Database, then it will include bibliographic, chemical, 
# crystal, experimental, refinement or atomic coordinate data resulting 
# from the CCDC's data processing and validation procedures.
#
#######################################################################

data_MEGLCP
_symmetry_cell_setting           monoclinic
_symmetry_space_group_name_H-M   'C 2/m'
_symmetry_Int_Tables_number      12
_space_group_name_Hall           '-C 2y'
loop_
_symmetry_equiv_pos_site_id
_symmetry_equiv_pos_as_xyz
1 x,y,z
2 1/2+x,1/2+y,z
3 -x,y,-z
4 1/2-x,1/2+y,-z
5 -x,-y,-z
6 1/2-x,1/2-y,-z
7 x,-y,z
8 1/2+x,1/2-y,z
_cell_length_a                   14.059(2)
_cell_length_b                   7.280(2)
_cell_length_c                   9.131(3)
_cell_angle_alpha                90
_cell_angle_beta                 125.80(3)
_cell_angle_gamma                90
_cell_volume                     757.983
loop_
_atom_site_label
_atom_site_type_symbol
_atom_site_fract_x
_atom_site_fract_y
_atom_site_fract_z
Co1 Co 0.00000 0.00000 0.00000
N1 N 0.00000 0.30800 0.00000
N2 N 0.16440 0.00000 0.12160
N3 N 0.04380 0.00000 0.23870
C1 C 0.22700 0.00000 0.29750
C2 C 0.15590 0.00000 0.36690
C3 C 0.35850 0.00000 0.41680
C4 C 0.20580 0.00000 0.56430
O1 O -0.03380 0.00000 0.28070
O2 O 0.21630 0.00000 0.03820
C5 C 0.06640 0.40330 -0.03270
H1 H -0.12900 0.00000 0.14700
H2 H 0.38600 -0.11100 0.37500
H3 H 0.40200 0.00000 0.55800
H4 H 0.13400 0.00000 0.57400
H5 H 0.25000 0.12100 0.63100
H6 H 0.09500 0.30400 -0.08300
N1D N 0.00000 -0.30800 0.00000
N2D N -0.16440 0.00000 -0.12160
N3D N -0.04380 0.00000 -0.23870
C5B C -0.06640 0.40330 0.03270
H2F H 0.38600 0.11100 0.37500
H5F H 0.25000 -0.12100 0.63100
C5F C 0.06640 0.59670 -0.03270
C1D C -0.22700 0.00000 -0.29750
O2D O -0.21630 0.00000 -0.03820
C2D C -0.15590 0.00000 -0.36690
O1D O 0.03380 0.00000 -0.28070
C5D C -0.06640 0.59670 0.03270
H6B H -0.09500 0.30400 0.08300
N1D_2 N 0.00000 0.69200 0.00000
H6F H 0.09500 0.69600 -0.08300
C3D C -0.35850 0.00000 -0.41680
C4D C -0.20580 0.00000 -0.56430
H1D H 0.12900 0.00000 -0.14700
H2D H -0.38600 0.11100 -0.37500
H2B H -0.38600 -0.11100 -0.37500
H3D H -0.40200 0.00000 -0.55800
H4D H -0.13400 0.00000 -0.57400
H5D H -0.25000 -0.12100 -0.63100
H5B H -0.25000 0.12100 -0.63100
H6D H -0.09500 0.69600 0.08300
Co1_2 Co 0.00000 1.00000 0.00000
loop_
_geom_bond_atom_site_label_1
_geom_bond_atom_site_label_2
_geom_bond_site_symmetry_1
_geom_bond_site_symmetry_2
Co1 N1 1_555 1_555
N1 C5 1_555 1_555
N2 Co1 1_555 1_555
N3 Co1 1_555 1_555
C1 N2 1_555 1_555
C2 N3 1_555 1_555
C3 C1 1_555 1_555
C4 C2 1_555 1_555
O1 N3 1_555 1_555
O2 N2 1_555 1_555
C5 H6 1_555 1_555
H1 O1 1_555 1_555
H2 C3 1_555 1_555
H3 C3 1_555 1_555
H4 C4 1_555 1_555
H5 C4 1_555 1_555
N1D Co1 1_555 1_555
N2D Co1 1_555 1_555
N3D Co1 1_555 1_555
C5B N1 1_555 1_555
H2F C3 1_555 1_555
H5F C4 1_555 1_555
C5F C5 1_555 1_555
C1D N2D 1_555 1_555
O2D N2D 1_555 1_555
C2D N3D 1_555 1_555
O1D N3D 1_555 1_555
C5D C5B 1_555 1_555
H6B C5B 1_555 1_555
N1D_2 C5F 1_555 1_555
H6F C5F 1_555 1_555
C3D C1D 1_555 1_555
C4D C2D 1_555 1_555
H1D O1D 1_555 1_555
H2D C3D 1_555 1_555
H2B C3D 1_555 1_555
H3D C3D 1_555 1_555
H4D C4D 1_555 1_555
H5D C4D 1_555 1_555
H5B C4D 1_555 1_555
H6D C5D 1_555 1_555
Co1_2 N1D_2 1_555 1_555
C1 C2 1_555 1_555
C1D C2D 1_555 1_555
C5D N1D_2 1_555 1_555

#END
