
#######################################################################
#
#                 Cambridge Crystallographic Data Centre
#                                CCDC 
#
#######################################################################
#
# If this CIF has been generated from an entry in the Cambridge 
# Structural Database, then it will include bibliographic, chemical, 
# crystal, experimental, refinement or atomic coordinate data resulting 
# from the CCDC's data processing and validation procedures.
#
#######################################################################

data_MEGMOB
_symmetry_cell_setting           monoclinic
_symmetry_space_group_name_H-M   'C 2/c'
_symmetry_Int_Tables_number      15
_space_group_name_Hall           '-C 2yn'
loop_
_symmetry_equiv_pos_site_id
_symmetry_equiv_pos_as_xyz
1 x,y,z
2 1/2+x,1/2+y,z
3 -x,y,1/2-z
4 1/2-x,1/2+y,1/2-z
5 -x,-y,-z
6 1/2-x,1/2-y,-z
7 x,-y,1/2+z
8 1/2+x,1/2-y,1/2+z
_cell_length_a                   28.8790(18)
_cell_length_b                   10.8803(7)
_cell_length_c                   12.8559(8)
_cell_angle_alpha                90
_cell_angle_beta                 113.6850(10)
_cell_angle_gamma                90
_cell_volume                     3699.23
loop_
_atom_site_label
_atom_site_type_symbol
_atom_site_fract_x
_atom_site_fract_y
_atom_site_fract_z
Co1 Co 0.137124(11) 0.47644(3) 0.00603(3)
Br1 Br 0.450578(9) 0.76495(3) 0.30212(2)
O1 O 0.20855(6) 0.54588(14) 0.07291(15)
O2 O 0.19233(7) 0.74326(15) 0.09200(18)
O3 O 0.36495(7) 1.02930(14) 0.16204(14)
O4 O 0.36975(7) 1.00312(15) 0.33516(14)
O5 O 0.10159(7) 0.65463(14) -0.01881(15)
H1 H 0.1292 0.6943 0.0106
H2 H 0.0887 0.6746 -0.0886
N1 N 0.06779(7) 0.37824(17) -0.05739(16)
N2 N 0.16275(7) 0.29258(16) 0.02944(16)
C1 C 0.02107(10) 0.4219(2) -0.0994(2)
H3 H 0.0165 0.5066 -0.1044
C2 C -0.02184(10) 0.3461(3) -0.1366(3)
H4 H -0.0541 0.3803 -0.1651
C3 C -0.01576(10) 0.2225(3) -0.1306(2)
H5 H -0.0439 0.1714 -0.1548
C4 C 0.03300(9) 0.1714(2) -0.0879(2)
C5 C 0.04361(11) 0.0423(2) -0.0773(3)
H6 H 0.0169 -0.0132 -0.1013
C6 C 0.09098(11) 0.0000(2) -0.0338(3)
H7 H 0.0964 -0.0845 -0.0272
C7 C 0.13365(9) 0.0806(2) 0.0029(2)
C8 C 0.18380(11) 0.0424(2) 0.0480(2)
H8 H 0.1914 -0.0411 0.0551
C9 C 0.22188(10) 0.1272(2) 0.0818(2)
H9 H 0.2555 0.1021 0.1112
C10 C 0.20966(9) 0.2519(2) 0.0717(2)
H10 H 0.2358 0.3089 0.0959
C11 C 0.12458(9) 0.20824(19) -0.00578(19)
C12 C 0.07411(9) 0.2538(2) -0.0512(2)
C13 C 0.22189(9) 0.6555(2) 0.1014(2)
C14 C 0.27783(9) 0.6820(2) 0.1500(2)
C15 C 0.29471(9) 0.8025(2) 0.1688(2)
H11 H 0.2712 0.8659 0.1506
C16 C 0.34575(9) 0.8307(2) 0.21413(19)
C17 C 0.38001(9) 0.7333(2) 0.2413(2)
C18 C 0.36390(10) 0.6124(2) 0.2243(2)
H12 H 0.3873 0.5487 0.2434
C19 C 0.31272(10) 0.5869(2) 0.1787(2)
H13 H 0.3016 0.5058 0.1673
C20 C 0.36180(8) 0.9634(2) 0.23859(19)
Co1E Co 0.362876(11) 1.02356(3) -0.00603(3)
Co1C Co 0.362876(11) 0.97644(3) 0.49397(3)
O3E O 0.13505(7) 0.47070(14) -0.16204(14)
O4C O 0.13025(7) 0.50312(15) 0.16484(14)
O6 O 0.14994(10) 0.78685(19) 0.2639(2)
H14 H 0.1589 0.7749 0.2092
H15 H 0.1462 0.7174 0.2899
loop_
_geom_bond_atom_site_label_1
_geom_bond_atom_site_label_2
_geom_bond_site_symmetry_1
_geom_bond_site_symmetry_2
Co1 O1 1_555 1_555
Br1 C17 1_555 1_555
O1 C13 1_555 1_555
O2 C13 1_555 1_555
O3 C20 1_555 1_555
O4 C20 1_555 1_555
O5 Co1 1_555 1_555
H1 O5 1_555 1_555
H2 O5 1_555 1_555
N1 Co1 1_555 1_555
N2 Co1 1_555 1_555
C1 N1 1_555 1_555
H3 C1 1_555 1_555
C2 C1 1_555 1_555
H4 C2 1_555 1_555
C3 C2 1_555 1_555
H5 C3 1_555 1_555
C4 C3 1_555 1_555
C5 C4 1_555 1_555
H6 C5 1_555 1_555
C6 C5 1_555 1_555
H7 C6 1_555 1_555
C7 C6 1_555 1_555
C8 C7 1_555 1_555
H8 C8 1_555 1_555
C9 C8 1_555 1_555
H9 C9 1_555 1_555
C10 N2 1_555 1_555
H10 C10 1_555 1_555
C11 N2 1_555 1_555
C12 N1 1_555 1_555
C13 C14 1_555 1_555
C14 C15 1_555 1_555
C15 H11 1_555 1_555
C16 C15 1_555 1_555
C17 C16 1_555 1_555
C18 C17 1_555 1_555
H12 C18 1_555 1_555
C19 C14 1_555 1_555
H13 C19 1_555 1_555
C20 C16 1_555 1_555
O6 H14 1_555 1_555
H15 O6 1_555 1_555
Co1E O3 1_555 1_555
Co1C O4 1_555 1_555
O3E Co1 1_555 1_555
O4C Co1 1_555 1_555
C4 C12 1_555 1_555
C7 C11 1_555 1_555
C9 C10 1_555 1_555
C11 C12 1_555 1_555
C18 C19 1_555 1_555

#END
