
#######################################################################
#
#                 Cambridge Crystallographic Data Centre
#                                CCDC 
#
#######################################################################
#
# If this CIF has been generated from an entry in the Cambridge 
# Structural Database, then it will include bibliographic, chemical, 
# crystal, experimental, refinement or atomic coordinate data resulting 
# from the CCDC's data processing and validation procedures.
#
#######################################################################

data_MEGNOD
_symmetry_cell_setting           monoclinic
_symmetry_space_group_name_H-M   'P 21/c'
_symmetry_Int_Tables_number      14
_space_group_name_Hall           '-P 2ybc'
loop_
_symmetry_equiv_pos_site_id
_symmetry_equiv_pos_as_xyz
1 x,y,z
2 -x,1/2+y,1/2-z
3 -x,-y,-z
4 x,1/2-y,1/2+z
_cell_length_a                   18.0206(3)
_cell_length_b                   14.8154(2)
_cell_length_c                   16.1806(3)
_cell_angle_alpha                90
_cell_angle_beta                 96.0266(14)
_cell_angle_gamma                90
_cell_volume                     4296.06
loop_
_atom_site_label
_atom_site_type_symbol
_atom_site_fract_x
_atom_site_fract_y
_atom_site_fract_z
Ce1 Ce 0.378059(9) 0.025211(12) -0.005556(10)
Ce2 Ce 0.114910(9) 0.013498(12) -0.001187(11)
Cl1 Cl 0.25182(4) -0.08876(6) 0.02308(6)
O1 O 0.44827(13) 0.13195(19) -0.07843(18)
O2 O 0.57120(14) 0.11238(18) -0.06065(18)
O3 O 0.31588(14) 0.1357(2) 0.07472(19)
O4 O 0.47701(15) 0.4321(2) -0.40076(18)
O5 O 0.19574(13) 0.13934(18) 0.02984(17)
O6 O 0.59980(15) 0.4314(2) -0.37726(17)
O7 O 0.28305(13) 0.43157(19) 0.38866(16)
O8 O 0.16016(12) 0.44828(18) 0.36526(14)
O9 O 0.06214(14) 0.10088(19) 0.10954(17)
O10 O -0.06236(14) 0.10581(19) 0.08978(18)
O11 O 0.00408(14) 0.41606(18) 0.43284(16)
O12 O -0.11270(14) 0.4108(2) 0.37873(18)
C1 C 0.51324(18) 0.1507(2) -0.0928(2)
C2 C 0.52130(17) 0.2236(2) -0.1564(2)
C3 C 0.47212(19) 0.2227(3) -0.2270(2)
H1 H 0.4348 0.1792 -0.2326
C4 C 0.47662(19) 0.2857(3) -0.2906(2)
H2 H 0.4420 0.2838 -0.3375
C5 C 0.53120(18) 0.3498(2) -0.2847(2)
C6 C 0.58299(17) 0.3560(2) -0.2112(2)
C7 C 0.57832(17) 0.2909(2) -0.1470(2)
C8 C 0.6300(2) 0.2975(3) -0.0747(2)
H3 H 0.6289 0.2546 -0.0329
C9 C 0.6809(2) 0.3650(3) -0.0654(3)
H4 H 0.7141 0.3679 -0.0174
C10 C 0.6839(2) 0.4301(3) -0.1273(3)
H5 H 0.7186 0.4767 -0.1198
C11 C 0.6368(2) 0.4261(3) -0.1983(2)
H6 H 0.6397 0.4699 -0.2391
C12 C 0.5362(2) 0.4095(3) -0.3591(2)
C13 C 0.25128(19) 0.1670(2) 0.0758(2)
C14 C 0.24047(18) 0.2387(2) 0.1394(2)
C15 C 0.2843(2) 0.2319(3) 0.2136(3)
H7 H 0.3201 0.1865 0.2207
C16 C 0.2765(2) 0.2917(3) 0.2789(2)
H8 H 0.3077 0.2860 0.3282
C17 C 0.22375(17) 0.3585(2) 0.2719(2)
C18 C 0.17671(16) 0.3689(2) 0.1957(2)
C19 C 0.18616(17) 0.3091(2) 0.1279(2)
C20 C 0.1427(2) 0.3249(3) 0.0511(2)
H9 H 0.1487 0.2875 0.0061
C21 C 0.0927(2) 0.3933(3) 0.0417(2)
H10 H 0.0653 0.4027 -0.0096
C22 C 0.0819(2) 0.4496(3) 0.1083(3)
H11 H 0.0467 0.4956 0.1013
C23 C 0.12217(18) 0.4384(2) 0.1834(2)
H12 H 0.1140 0.4765 0.2272
C24 C 0.22129(17) 0.4179(2) 0.3472(2)
C25 C 0.0004(2) 0.1337(3) 0.1218(2)
C26 C -0.00218(18) 0.2117(2) 0.1799(2)
C27 C 0.0364(2) 0.2058(3) 0.2568(3)
H13 H 0.0705 0.1591 0.2681
C28 C 0.0257(2) 0.2689(3) 0.3194(2)
H14 H 0.0525 0.2635 0.3714
C29 C -0.02417(19) 0.3383(3) 0.3042(2)
C30 C -0.05941(19) 0.3531(2) 0.2220(2)
C31 C -0.04859(19) 0.2884(3) 0.1593(2)
C32 C -0.0818(2) 0.3040(3) 0.0774(2)
H15 H -0.0762 0.2618 0.0359
C33 C -0.1217(3) 0.3804(4) 0.0592(3)
H16 H -0.1425 0.3905 0.0049
C34 C -0.1319(3) 0.4433(4) 0.1200(3)
H17 H -0.1592 0.4953 0.1056
C35 C -0.1031(2) 0.4310(3) 0.2003(3)
H18 H -0.1118 0.4732 0.2407
C36 C -0.0454(2) 0.3928(3) 0.3749(2)
Ce1B Ce 0.621941(9) -0.025211(12) 0.005556(10)
Ce1C Ce 0.378059(9) 0.474789(12) -0.505556(10)
Ce1A Ce 0.621941(9) 0.525211(12) -0.494444(10)
Ce1C_2 Ce 0.378059(9) 0.474789(12) 0.494444(10)
Ce2C Ce 0.114910(9) 0.486502(12) 0.498813(11)
Ce2B Ce -0.114910(9) -0.013498(12) 0.001187(11)
Ce2A Ce -0.114910(9) 0.513498(12) 0.501187(11)
O2B O 0.42880(14) -0.11238(18) 0.06065(18)
O4C O 0.47701(15) 0.0679(2) 0.09924(18)
O6A O 0.40020(15) -0.0686(2) -0.12274(17)
O7C O 0.28305(13) 0.06843(19) -0.11134(16)
O8C O 0.16016(12) 0.05172(18) -0.13474(14)
O10B O 0.06236(14) -0.10581(19) -0.08978(18)
O11A O -0.00408(14) -0.08394(18) 0.06716(16)
O11C O 0.00408(14) 0.08394(18) -0.06716(16)
O12A O 0.11270(14) -0.0892(2) 0.12127(18)
N1 N 0.2377(7) -0.2679(8) 0.2812(6)
N2 N 0.3064(9) -0.1503(10) 0.2671(9)
C37 C 0.2889(6) -0.2642(8) 0.3476(7)
H19 H 0.2939 -0.3046 0.3918
C38 C 0.3335(8) -0.1878(9) 0.3378(8)
H20 H 0.3738 -0.1679 0.3738
C39 C 0.2531(11) -0.2056(12) 0.2279(10)
H21 H 0.2317 -0.2002 0.1733
C40 C 0.1830(7) -0.3370(9) 0.2628(8)
H22 H 0.1497 -0.3196 0.2152
H23 H 0.1551 -0.3452 0.3097
H24 H 0.2074 -0.3925 0.2513
C41 C 0.3332(8) -0.0684(8) 0.2288(7)
H25 H 0.2915 -0.0313 0.2067
H26 H 0.3623 -0.0841 0.1837
C42 C 0.3265(8) 0.0294(9) 0.3517(9)
H27 H 0.2844 0.0559 0.3180
H28 H 0.3077 -0.0138 0.3896
C43 C 0.3802(8) -0.0189(9) 0.2947(8)
H29 H 0.4108 0.0254 0.2700
H30 H 0.4129 -0.0606 0.3273
C44 C 0.3720(10) 0.1030(9) 0.4005(8)
H31 H 0.4028 0.1317 0.3624
H32 H 0.3369 0.1483 0.4157
C45 C 0.4229(9) 0.0797(11) 0.4794(9)
H33 H 0.4190 0.0159 0.4913
H34 H 0.4743 0.0926 0.4709
C46 C 0.4010(11) 0.1346(13) 0.5528(8)
H35 H 0.4316 0.1171 0.6024
H36 H 0.3495 0.1236 0.5598
H37 H 0.4081 0.1976 0.5425
C47? C 0.2634(8) -0.2786(10) 0.3330(9)
C48? C 0.3188(10) -0.2121(12) 0.3435(10)
C49? C 0.2514(15) -0.1936(15) 0.2245(13)
C50? C 0.1711(9) -0.3233(12) 0.2146(10)
C51? C 0.3588(8) -0.0877(8) 0.2540(11)
C52? C 0.3160(9) 0.0023(10) 0.2564(10)
C53? C 0.3854(10) 0.0281(13) 0.3166(10)
C54? C 0.3793(13) 0.0463(12) 0.4048(9)
C55? C 0.3580(10) 0.1164(14) 0.4689(12)
C56? C 0.4320(13) 0.1466(17) 0.5219(12)
H38? H 0.2531 -0.3218 0.3719
H39? H 0.3532 -0.2035 0.3898
H40? H 0.2303 -0.1653 0.1763
H41? H 0.1608 -0.3034 0.1580
H42? H 0.1266 -0.3185 0.2422
H43? H 0.1874 -0.3850 0.2154
H44? H 0.3745 -0.0964 0.1991
H45? H 0.4031 -0.0853 0.2935
H46? H 0.2696 -0.0010 0.2816
H47? H 0.3105 0.0354 0.2044
H48? H 0.4215 -0.0203 0.3143
H49? H 0.4071 0.0814 0.2939
H50? H 0.4292 0.0304 0.4287
H51? H 0.3488 -0.0044 0.4185
H52? H 0.3238 0.0899 0.5046
H53? H 0.3339 0.1680 0.4407
H54? H 0.4684 0.1632 0.4854
H55? H 0.4508 0.0976 0.5568
H56? H 0.4218 0.1974 0.5558
N3? N 0.2279(10) -0.2686(10) 0.2560(8)
N4? N 0.3122(12) -0.1641(13) 0.2743(12)
loop_
_geom_bond_atom_site_label_1
_geom_bond_atom_site_label_2
_geom_bond_site_symmetry_1
_geom_bond_site_symmetry_2
Ce1 Cl1 1_555 1_555
Ce2 Cl1 1_555 1_555
O1 Ce1 1_555 1_555
O2 C1 1_555 1_555
O3 Ce1 1_555 1_555
O4 C12 1_555 1_555
O5 Ce2 1_555 1_555
O6 C12 1_555 1_555
O7 C24 1_555 1_555
O8 C24 1_555 1_555
O9 Ce2 1_555 1_555
O10 C25 1_555 1_555
O11 C36 1_555 1_555
O12 C36 1_555 1_555
C1 O1 1_555 1_555
C2 C1 1_555 1_555
C3 C2 1_555 1_555
H1 C3 1_555 1_555
C4 C3 1_555 1_555
H2 C4 1_555 1_555
C5 C4 1_555 1_555
C6 C5 1_555 1_555
C7 C2 1_555 1_555
C8 C7 1_555 1_555
H3 C8 1_555 1_555
C9 C8 1_555 1_555
H4 C9 1_555 1_555
C10 C9 1_555 1_555
H5 C10 1_555 1_555
C11 C6 1_555 1_555
H6 C11 1_555 1_555
C12 C5 1_555 1_555
C13 O3 1_555 1_555
C14 C13 1_555 1_555
C15 C14 1_555 1_555
H7 C15 1_555 1_555
C16 C15 1_555 1_555
H8 C16 1_555 1_555
C17 C16 1_555 1_555
C18 C17 1_555 1_555
C19 C14 1_555 1_555
C20 C19 1_555 1_555
H9 C20 1_555 1_555
C21 C20 1_555 1_555
H10 C21 1_555 1_555
C22 C21 1_555 1_555
H11 C22 1_555 1_555
C23 C18 1_555 1_555
H12 C23 1_555 1_555
C24 C17 1_555 1_555
C25 O9 1_555 1_555
C26 C25 1_555 1_555
C27 C26 1_555 1_555
H13 C27 1_555 1_555
C28 C27 1_555 1_555
H14 C28 1_555 1_555
C29 C28 1_555 1_555
C30 C29 1_555 1_555
C31 C26 1_555 1_555
C32 C31 1_555 1_555
H15 C32 1_555 1_555
C33 C32 1_555 1_555
H16 C33 1_555 1_555
C34 C33 1_555 1_555
H17 C34 1_555 1_555
C35 C30 1_555 1_555
H18 C35 1_555 1_555
C36 C29 1_555 1_555
N1 C37 1_555 1_555
N2 C38 1_555 1_555
C37 H19 1_555 1_555
C38 C37 1_555 1_555
H20 C38 1_555 1_555
C39 N1 1_555 1_555
H21 C39 1_555 1_555
C40 N1 1_555 1_555
H22 C40 1_555 1_555
H23 C40 1_555 1_555
H24 C40 1_555 1_555
C41 N2 1_555 1_555
H25 C41 1_555 1_555
H26 C41 1_555 1_555
C42 H27 1_555 1_555
H28 C42 1_555 1_555
C43 C41 1_555 1_555
H29 C43 1_555 1_555
H30 C43 1_555 1_555
C44 C42 1_555 1_555
H31 C44 1_555 1_555
H32 C44 1_555 1_555
C45 C44 1_555 1_555
H33 C45 1_555 1_555
H34 C45 1_555 1_555
C46 C45 1_555 1_555
H35 C46 1_555 1_555
H36 C46 1_555 1_555
H37 C46 1_555 1_555
Ce1B O2 1_555 1_555
Ce1C O4 1_555 1_555
Ce1A O6 1_555 1_555
Ce1C_2 O7 1_555 1_555
Ce2C O8 1_555 1_555
Ce2B O10 1_555 1_555
Ce2A O11 1_555 1_555
O2B Ce1 1_555 1_555
O4C Ce1 1_555 1_555
O6A Ce1 1_555 1_555
O7C Ce1 1_555 1_555
O8C Ce2 1_555 1_555
O10B Ce2 1_555 1_555
O11A Ce2 1_555 1_555
O11C Ce2 1_555 1_555
O12A Ce2 1_555 1_555
O5 C13 1_555 1_555
O11 Ce2C 1_555 1_555
O12 Ce2A 1_555 1_555
C6 C7 1_555 1_555
C10 C11 1_555 1_555
C18 C19 1_555 1_555
C22 C23 1_555 1_555
C30 C31 1_555 1_555
C34 C35 1_555 1_555
N2 C39 1_555 1_555
C42 C43 1_555 1_555
Ce2B O11A 1_555 1_555
Ce2B O11C 1_555 1_555

#END
