
#######################################################################
#
#                 Cambridge Crystallographic Data Centre
#                                CCDC 
#
#######################################################################
#
# If this CIF has been generated from an entry in the Cambridge 
# Structural Database, then it will include bibliographic, chemical, 
# crystal, experimental, refinement or atomic coordinate data resulting 
# from the CCDC's data processing and validation procedures.
#
#######################################################################

data_MEGNIX
_symmetry_cell_setting           monoclinic
_symmetry_space_group_name_H-M   'P 21/c'
_symmetry_Int_Tables_number      14
_space_group_name_Hall           '-P 2ybc'
loop_
_symmetry_equiv_pos_site_id
_symmetry_equiv_pos_as_xyz
1 x,y,z
2 -x,1/2+y,1/2-z
3 -x,-y,-z
4 x,1/2-y,1/2+z
_cell_length_a                   18.0824(2)
_cell_length_b                   14.75579(17)
_cell_length_c                   16.3179(2)
_cell_angle_alpha                90
_cell_angle_beta                 96.2061(13)
_cell_angle_gamma                90
_cell_volume                     4328.43
loop_
_atom_site_label
_atom_site_type_symbol
_atom_site_fract_x
_atom_site_fract_y
_atom_site_fract_z
La1 La 0.378838(9) 0.025318(10) -0.005352(10)
La2 La 0.115031(9) 0.014143(11) -0.000741(10)
Cl1 Cl 0.25217(4) -0.09004(5) 0.02433(6)
O1 O 0.44780(13) 0.13339(16) -0.08086(17)
O2 O 0.57030(13) 0.11322(15) -0.06261(17)
O3 O 0.31770(13) 0.13733(17) 0.07618(17)
O4 O 0.48169(15) 0.43149(17) -0.40321(16)
O5 O 0.19758(13) 0.14042(15) 0.03068(16)
O6 O 0.60354(15) 0.42808(18) -0.37698(16)
O7 O 0.28163(12) 0.43156(16) 0.38925(14)
O8 O 0.15934(12) 0.44684(15) 0.36510(13)
O9 O 0.06178(14) 0.10471(16) 0.10817(16)
O10 O -0.06244(13) 0.10751(16) 0.08897(16)
O11 O 0.00262(13) 0.41673(15) 0.43167(15)
O12 O -0.11360(13) 0.41230(18) 0.37657(17)
C1 C 0.51267(18) 0.1520(2) -0.0946(2)
C2 C 0.52136(17) 0.2244(2) -0.1583(2)
C3 C 0.47261(18) 0.2232(2) -0.2282(2)
H1 H 0.4350 0.1799 -0.2338
C4 C 0.47814(19) 0.2860(2) -0.2918(2)
H2 H 0.4438 0.2843 -0.3386
C5 C 0.53323(18) 0.3496(2) -0.2861(2)
C6 C 0.58374(17) 0.3563(2) -0.2124(2)
C7 C 0.57830(17) 0.2918(2) -0.1479(2)
C8 C 0.62894(19) 0.2986(2) -0.0758(2)
H3 H 0.6271 0.2560 -0.0341
C9 C 0.6801(2) 0.3659(3) -0.0664(2)
H4 H 0.7129 0.3690 -0.0185
C10 C 0.6839(2) 0.4306(3) -0.1282(2)
H5 H 0.7186 0.4772 -0.1205
C11 C 0.63765(19) 0.4262(2) -0.1991(2)
H6 H 0.6413 0.4697 -0.2398
C12 C 0.5397(2) 0.4080(2) -0.3600(2)
C13 C 0.25316(19) 0.1681(2) 0.0772(2)
C14 C 0.24180(18) 0.2395(2) 0.1398(2)
C15 C 0.28540(19) 0.2339(2) 0.2136(2)
H7 H 0.3217 0.1891 0.2204
C16 C 0.27769(19) 0.2925(2) 0.2787(2)
H8 H 0.3093 0.2869 0.3273
C17 C 0.22391(16) 0.3587(2) 0.2722(2)
C18 C 0.17720(16) 0.36899(19) 0.19663(19)
C19 C 0.18696(17) 0.3099(2) 0.1282(2)
C20 C 0.1438(2) 0.3255(2) 0.0527(2)
H9 H 0.1503 0.2884 0.0079
C21 C 0.0926(2) 0.3938(2) 0.0436(2)
H10 H 0.0650 0.4031 -0.0072
C22 C 0.0817(2) 0.4489(2) 0.1095(2)
H11 H 0.0461 0.4945 0.1027
C23 C 0.12211(17) 0.4380(2) 0.1845(2)
H12 H 0.1135 0.4759 0.2280
C24 C 0.22094(17) 0.4171(2) 0.34731(19)
C25 C 0.0000(2) 0.1365(2) 0.1202(2)
C26 C -0.00241(18) 0.2143(2) 0.1792(2)
C27 C 0.0357(2) 0.2077(2) 0.2560(2)
H13 H 0.0694 0.1606 0.2674
C28 C 0.0248(2) 0.2707(2) 0.3181(2)
H14 H 0.0518 0.2653 0.3697
C29 C -0.02497(18) 0.3400(2) 0.3033(2)
C30 C -0.06068(18) 0.3556(2) 0.2212(2)
C31 C -0.04955(18) 0.2910(2) 0.1591(2)
C32 C -0.0830(2) 0.3069(3) 0.0776(2)
H15 H -0.0775 0.2649 0.0362
C33 C -0.1229(3) 0.3833(3) 0.0604(3)
H16 H -0.1440 0.3935 0.0067
C34 C -0.1330(2) 0.4465(3) 0.1203(3)
H17 H -0.1599 0.4989 0.1061
C35 C -0.1042(2) 0.4333(2) 0.2001(3)
H18 H -0.1132 0.4753 0.2404
C36 C -0.04619(19) 0.3939(2) 0.3743(2)
La1B La 0.621162(9) -0.025318(10) 0.005352(10)
La1C La 0.378838(9) 0.474682(10) -0.505352(10)
La1A La 0.621162(9) 0.525318(10) -0.494648(10)
La1C_2 La 0.378838(9) 0.474682(10) 0.494648(10)
La2C La 0.115031(9) 0.485857(11) 0.499259(10)
La2B La -0.115031(9) -0.014143(11) 0.000741(10)
La2A La -0.115031(9) 0.514143(11) 0.500741(10)
O2B O 0.42970(13) -0.11322(15) 0.06261(17)
O4C O 0.48169(15) 0.06851(17) 0.09679(16)
O6A O 0.39646(15) -0.07192(18) -0.12302(16)
O7C O 0.28163(12) 0.06844(16) -0.11075(14)
O8C O 0.15934(12) 0.05316(15) -0.13490(13)
O10B O 0.06244(13) -0.10751(16) -0.08897(16)
O11A O -0.00262(13) -0.08327(15) 0.06833(15)
O11C O 0.00262(13) 0.08327(15) -0.06833(15)
O12A O 0.11360(13) -0.08770(18) 0.12343(17)
N1 N 0.2373(4) -0.2640(4) 0.2755(4)
N2 N 0.3115(5) -0.1512(5) 0.2701(4)
C37 C 0.2776(5) -0.2698(5) 0.3468(4)
H19 H 0.2752 -0.3113 0.3893
C38 C 0.3293(5) -0.1899(5) 0.3408(4)
H20 H 0.3670 -0.1719 0.3807
C39 C 0.2538(8) -0.1987(8) 0.2299(5)
H21 H 0.2303 -0.1855 0.1777
C40 C 0.1798(4) -0.3348(4) 0.2517(6)
H22 H 0.1375 -0.3073 0.2208
H23 H 0.1648 -0.3626 0.3004
H24 H 0.2003 -0.3801 0.2184
C41 C 0.3423(6) -0.0701(6) 0.2338(6)
H25 H 0.3740 -0.0883 0.1924
H26 H 0.3020 -0.0337 0.2070
C42 C 0.3275(6) 0.0293(6) 0.3510(7)
H27 H 0.2870 0.0585 0.3171
H28 H 0.3075 -0.0145 0.3871
C43 C 0.3853(6) -0.0160(6) 0.2967(6)
H29 H 0.4133 0.0304 0.2712
H30 H 0.4200 -0.0540 0.3307
C44 C 0.3771(8) 0.0971(7) 0.3988(6)
H31 H 0.4120 0.1172 0.3614
H32 H 0.3456 0.1488 0.4070
C45 C 0.4226(8) 0.0820(8) 0.4801(7)
H33 H 0.4204 0.0184 0.4947
H34 H 0.4741 0.0968 0.4748
C46 C 0.3972(9) 0.1363(9) 0.5459(7)
H35 H 0.4260 0.1217 0.5971
H36 H 0.3457 0.1236 0.5502
H37 H 0.4031 0.1994 0.5339
C47? C 0.2311(9) -0.2975(10) 0.3099(8)
C48? C 0.2981(10) -0.2393(11) 0.3401(9)
C49? C 0.2522(16) -0.2089(17) 0.2179(12)
C50? C 0.1549(8) -0.3208(10) 0.1769(9)
C51? C 0.3486(10) -0.0976(10) 0.2665(12)
C52? C 0.3168(12) -0.0002(11) 0.2520(12)
C53? C 0.3807(13) 0.0372(15) 0.3141(12)
C54? C 0.3786(16) 0.0370(13) 0.4054(11)
C55? C 0.3521(13) 0.1117(18) 0.4647(16)
C56? C 0.4256(17) 0.150(2) 0.5107(17)
H38? H 0.2082 -0.3400 0.3409
H39? H 0.3292 -0.2451 0.3890
H40? H 0.2482 -0.1809 0.1666
H41? H 0.1636 -0.3073 0.1212
H42? H 0.1068 -0.2987 0.1869
H43? H 0.1570 -0.3851 0.1854
H44? H 0.3739 -0.1120 0.2187
H45? H 0.3868 -0.0934 0.3129
H46? H 0.3181 0.0216 0.1962
H47? H 0.2677 0.0078 0.2698
H48? H 0.4253 0.0043 0.3038
H49? H 0.3884 0.0996 0.2985
H50? H 0.4293 0.0234 0.4278
H51? H 0.3497 -0.0163 0.4160
H52? H 0.3242 0.1589 0.4336
H53? H 0.3210 0.0854 0.5034
H54? H 0.4578 0.1699 0.4711
H55? H 0.4499 0.1041 0.5452
H56? H 0.4142 0.2010 0.5442
N3? N 0.2116(7) -0.2771(8) 0.2334(7)
N4? N 0.3020(10) -0.1800(10) 0.2824(9)
loop_
_geom_bond_atom_site_label_1
_geom_bond_atom_site_label_2
_geom_bond_site_symmetry_1
_geom_bond_site_symmetry_2
La1 Cl1 1_555 1_555
La2 Cl1 1_555 1_555
O1 La1 1_555 1_555
O2 C1 1_555 1_555
O3 La1 1_555 1_555
O4 C12 1_555 1_555
O5 La2 1_555 1_555
O6 C12 1_555 1_555
O7 C24 1_555 1_555
O8 C24 1_555 1_555
O9 La2 1_555 1_555
O10 C25 1_555 1_555
O11 C36 1_555 1_555
O12 C36 1_555 1_555
C1 O1 1_555 1_555
C2 C1 1_555 1_555
C3 C2 1_555 1_555
H1 C3 1_555 1_555
C4 C3 1_555 1_555
H2 C4 1_555 1_555
C5 C4 1_555 1_555
C6 C5 1_555 1_555
C7 C2 1_555 1_555
C8 C7 1_555 1_555
H3 C8 1_555 1_555
C9 C8 1_555 1_555
H4 C9 1_555 1_555
C10 C9 1_555 1_555
H5 C10 1_555 1_555
C11 C6 1_555 1_555
H6 C11 1_555 1_555
C12 C5 1_555 1_555
C13 O3 1_555 1_555
C14 C13 1_555 1_555
C15 C14 1_555 1_555
H7 C15 1_555 1_555
C16 C15 1_555 1_555
H8 C16 1_555 1_555
C17 C16 1_555 1_555
C18 C17 1_555 1_555
C19 C14 1_555 1_555
C20 C19 1_555 1_555
H9 C20 1_555 1_555
C21 C20 1_555 1_555
H10 C21 1_555 1_555
C22 C21 1_555 1_555
H11 C22 1_555 1_555
C23 C18 1_555 1_555
H12 C23 1_555 1_555
C24 C17 1_555 1_555
C25 O9 1_555 1_555
C26 C25 1_555 1_555
C27 C26 1_555 1_555
H13 C27 1_555 1_555
C28 C27 1_555 1_555
H14 C28 1_555 1_555
C29 C28 1_555 1_555
C30 C29 1_555 1_555
C31 C26 1_555 1_555
C32 C31 1_555 1_555
H15 C32 1_555 1_555
C33 C32 1_555 1_555
H16 C33 1_555 1_555
C34 C33 1_555 1_555
H17 C34 1_555 1_555
C35 C30 1_555 1_555
H18 C35 1_555 1_555
C36 C29 1_555 1_555
N1 C37 1_555 1_555
N2 C38 1_555 1_555
C37 H19 1_555 1_555
C38 C37 1_555 1_555
H20 C38 1_555 1_555
C39 N1 1_555 1_555
H21 C39 1_555 1_555
C40 N1 1_555 1_555
H22 C40 1_555 1_555
H23 C40 1_555 1_555
H24 C40 1_555 1_555
C41 N2 1_555 1_555
H25 C41 1_555 1_555
H26 C41 1_555 1_555
C42 H27 1_555 1_555
H28 C42 1_555 1_555
C43 C41 1_555 1_555
H29 C43 1_555 1_555
H30 C43 1_555 1_555
C44 C42 1_555 1_555
H31 C44 1_555 1_555
H32 C44 1_555 1_555
C45 C44 1_555 1_555
H33 C45 1_555 1_555
H34 C45 1_555 1_555
C46 C45 1_555 1_555
H35 C46 1_555 1_555
H36 C46 1_555 1_555
H37 C46 1_555 1_555
La1B O2 1_555 1_555
La1C O4 1_555 1_555
La1A O6 1_555 1_555
La1C_2 O7 1_555 1_555
La2C O8 1_555 1_555
La2B O10 1_555 1_555
La2A O11 1_555 1_555
O2B La1 1_555 1_555
O4C La1 1_555 1_555
O6A La1 1_555 1_555
O7C La1 1_555 1_555
O8C La2 1_555 1_555
O10B La2 1_555 1_555
O11A La2 1_555 1_555
O11C La2 1_555 1_555
O12A La2 1_555 1_555
O5 C13 1_555 1_555
O11 La2C 1_555 1_555
O12 La2A 1_555 1_555
C6 C7 1_555 1_555
C10 C11 1_555 1_555
C18 C19 1_555 1_555
C22 C23 1_555 1_555
C30 C31 1_555 1_555
C34 C35 1_555 1_555
N2 C39 1_555 1_555
C42 C43 1_555 1_555
La2B O11A 1_555 1_555
La2B O11C 1_555 1_555

#END
