
#######################################################################
#
#                 Cambridge Crystallographic Data Centre
#                                CCDC 
#
#######################################################################
#
# If this CIF has been generated from an entry in the Cambridge 
# Structural Database, then it will include bibliographic, chemical, 
# crystal, experimental, refinement or atomic coordinate data resulting 
# from the CCDC's data processing and validation procedures.
#
#######################################################################

data_MEGNUJ
_symmetry_cell_setting           monoclinic
_symmetry_space_group_name_H-M   'P 21/c'
_symmetry_Int_Tables_number      14
_space_group_name_Hall           '-P 2ybc'
loop_
_symmetry_equiv_pos_site_id
_symmetry_equiv_pos_as_xyz
1 x,y,z
2 -x,1/2+y,1/2-z
3 -x,-y,-z
4 x,1/2-y,1/2+z
_cell_length_a                   17.9610(2)
_cell_length_b                   14.81098(16)
_cell_length_c                   16.1045(2)
_cell_angle_alpha                90
_cell_angle_beta                 95.7691(11)
_cell_angle_gamma                90
_cell_volume                     4262.42
loop_
_atom_site_label
_atom_site_type_symbol
_atom_site_fract_x
_atom_site_fract_y
_atom_site_fract_z
Pr1 Pr 0.377902(9) 0.025015(12) -0.005443(10)
Pr2 Pr 0.115055(9) 0.012901(12) -0.001096(11)
Cl1 Cl 0.25169(4) -0.08769(6) 0.02308(6)
O1 O 0.44857(14) 0.13084(17) -0.07793(18)
O2 O 0.57177(14) 0.11176(17) -0.06045(18)
O3 O 0.31584(14) 0.13498(18) 0.07448(18)
O4 O 0.47458(15) 0.43213(19) -0.39967(18)
O5 O 0.19477(13) 0.13819(16) 0.02944(17)
O6 O 0.59832(16) 0.4324(2) -0.37776(17)
O7 O 0.28393(13) 0.43167(18) 0.38878(16)
O8 O 0.16061(13) 0.44961(17) 0.36610(14)
O9 O 0.06242(14) 0.09859(18) 0.10964(17)
O10 O -0.06251(14) 0.10510(18) 0.08921(17)
O11 O 0.00583(14) 0.41581(17) 0.43343(16)
O12 O -0.11191(14) 0.4096(2) 0.38053(18)
C1 C 0.5135(2) 0.1500(2) -0.0921(2)
C2 C 0.52137(19) 0.2227(2) -0.1567(2)
C3 C 0.4715(2) 0.2220(3) -0.2264(2)
H1 H 0.4338 0.1787 -0.2318
C4 C 0.4763(2) 0.2857(3) -0.2901(2)
H2 H 0.4416 0.2839 -0.3370
C5 C 0.53073(18) 0.3502(2) -0.2848(2)
C6 C 0.58239(18) 0.3560(2) -0.2115(2)
C7 C 0.57826(18) 0.2902(2) -0.1469(2)
C8 C 0.6303(2) 0.2962(3) -0.0746(2)
H3 H 0.6295 0.2531 -0.0327
C9 C 0.6813(2) 0.3642(3) -0.0659(3)
H4 H 0.7149 0.3671 -0.0181
C10 C 0.6838(2) 0.4300(3) -0.1281(3)
H5 H 0.7183 0.4769 -0.1208
C11 C 0.6363(2) 0.4260(3) -0.1987(2)
H6 H 0.6391 0.4698 -0.2397
C12 C 0.5345(2) 0.4099(2) -0.3586(2)
C13 C 0.2503(2) 0.1659(2) 0.0756(2)
C14 C 0.24016(19) 0.2374(2) 0.1399(2)
C15 C 0.2837(2) 0.2313(3) 0.2142(3)
H7 H 0.3194 0.1858 0.2215
C16 C 0.2763(2) 0.2908(3) 0.2792(2)
H8 H 0.3076 0.2849 0.3285
C17 C 0.22398(18) 0.3582(2) 0.2722(2)
C18 C 0.17722(17) 0.3687(2) 0.1956(2)
C19 C 0.18639(18) 0.3084(2) 0.1277(2)
C20 C 0.1432(2) 0.3237(3) 0.0509(2)
H9 H 0.1491 0.2860 0.0059
C21 C 0.0927(2) 0.3930(3) 0.0415(2)
H10 H 0.0650 0.4021 -0.0098
C22 C 0.0824(2) 0.4504(3) 0.1082(3)
H11 H 0.0474 0.4967 0.1015
C23 C 0.12332(19) 0.4386(2) 0.1829(2)
H12 H 0.1158 0.4772 0.2268
C24 C 0.22213(18) 0.4184(2) 0.3474(2)
C25 C 0.0006(2) 0.1322(2) 0.1214(2)
C26 C -0.00171(19) 0.2106(2) 0.1802(2)
C27 C 0.0370(2) 0.2039(3) 0.2582(3)
H13 H 0.0705 0.1567 0.2698
C28 C 0.0265(2) 0.2677(3) 0.3202(2)
H14 H 0.0536 0.2626 0.3723
C29 C -0.02306(19) 0.3371(3) 0.3051(2)
C30 C -0.0584(2) 0.3517(2) 0.2227(2)
C31 C -0.04777(19) 0.2872(2) 0.1598(2)
C32 C -0.0814(2) 0.3032(3) 0.0771(3)
H15 H -0.0756 0.2612 0.0352
C33 C -0.1214(3) 0.3787(3) 0.0594(3)
H16 H -0.1428 0.3887 0.0052
C34 C -0.1311(3) 0.4424(3) 0.1211(3)
H17 H -0.1587 0.4944 0.1071
C35 C -0.1014(2) 0.4304(3) 0.2013(3)
H18 H -0.1090 0.4733 0.2418
C36 C -0.0437(2) 0.3922(2) 0.3762(2)
Pr1B Pr 0.622098(9) -0.025015(12) 0.005443(10)
Pr1C Pr 0.377902(9) 0.474985(12) -0.505443(10)
Pr1A Pr 0.622098(9) 0.525015(12) -0.494557(10)
Pr1C_2 Pr 0.377902(9) 0.474985(12) 0.494557(10)
Pr2C Pr 0.115055(9) 0.487099(12) 0.498904(11)
Pr2B Pr -0.115055(9) -0.012901(12) 0.001096(11)
Pr2A Pr -0.115055(9) 0.512901(12) 0.501096(11)
O2B O 0.42823(14) -0.11176(17) 0.06045(18)
O4C O 0.47458(15) 0.06787(19) 0.10033(18)
O6A O 0.40168(16) -0.0676(2) -0.12224(17)
O7C O 0.28393(13) 0.06833(18) -0.11122(16)
O8C O 0.16061(13) 0.05039(17) -0.13390(14)
O10B O 0.06251(14) -0.10510(18) -0.08921(17)
O11A O -0.00583(14) -0.08419(17) 0.06657(16)
O11C O 0.00583(14) 0.08419(17) -0.06657(16)
O12A O 0.11191(14) -0.0904(2) 0.11947(18)
N1 N 0.2369(6) -0.2681(7) 0.2801(5)
N2 N 0.3058(7) -0.1489(8) 0.2687(8)
C37 C 0.2885(6) -0.2648(7) 0.3476(6)
H19 H 0.2935 -0.3058 0.3915
C38 C 0.3331(7) -0.1879(8) 0.3389(7)
H20 H 0.3735 -0.1686 0.3752
C39 C 0.2539(9) -0.2048(9) 0.2276(9)
H21 H 0.2340 -0.1992 0.1723
C40 C 0.1820(6) -0.3371(7) 0.2607(7)
H22 H 0.1371 -0.3106 0.2339
H23 H 0.1711 -0.3665 0.3113
H24 H 0.2011 -0.3806 0.2241
C41 C 0.3323(6) -0.0617(7) 0.2341(7)
H25 H 0.2893 -0.0237 0.2177
H26 H 0.3569 -0.0744 0.1844
C42 C 0.3260(6) 0.0285(9) 0.3542(8)
H27 H 0.2835 0.0565 0.3223
H28 H 0.3089 -0.0166 0.3916
C43 C 0.3862(6) -0.0106(8) 0.2962(7)
H29 H 0.4123 0.0371 0.2697
H30 H 0.4221 -0.0504 0.3266
C44 C 0.3802(9) 0.0990(8) 0.4003(7)
H31 H 0.4150 0.1184 0.3617
H32 H 0.3508 0.1514 0.4126
C45 C 0.4244(8) 0.0711(9) 0.4788(8)
H33 H 0.4771 0.0709 0.4699
H34 H 0.4107 0.0098 0.4921
C46 C 0.4135(10) 0.1320(12) 0.5538(8)
H35 H 0.4459 0.1122 0.6014
H36 H 0.3624 0.1286 0.5662
H37 H 0.4254 0.1932 0.5407
C47? C 0.2615(9) -0.2801(10) 0.3313(9)
C48? C 0.3172(10) -0.2144(11) 0.3436(10)
C49? C 0.2484(13) -0.1935(14) 0.2257(13)
C50? C 0.1689(8) -0.3212(11) 0.2084(9)
C51? C 0.3594(8) -0.0881(8) 0.2491(12)
C52? C 0.3340(11) 0.0054(10) 0.2760(10)
C53? C 0.3753(10) 0.0253(13) 0.3673(11)
C54? C 0.3329(9) 0.0879(13) 0.4215(11)
C55? C 0.3618(10) 0.1353(15) 0.4985(12)
C56? C 0.4478(10) 0.1404(18) 0.5153(14)
H38? H 0.2507 -0.3233 0.3703
H39? H 0.3508 -0.2058 0.3908
H40? H 0.2250 -0.1619 0.1805
H41? H 0.1630 -0.3006 0.1516
H42? H 0.1227 -0.3133 0.2328
H43? H 0.1823 -0.3840 0.2097
H44? H 0.3596 -0.0883 0.1889
H45? H 0.4105 -0.0978 0.2732
H46? H 0.2802 0.0064 0.2775
H47? H 0.3474 0.0510 0.2369
H48? H 0.3839 -0.0317 0.3963
H49? H 0.4238 0.0518 0.3612
H50? H 0.3120 0.1347 0.3841
H51? H 0.2908 0.0527 0.4366
H52? H 0.3426 0.1054 0.5455
H53? H 0.3422 0.1963 0.4962
H54? H 0.4690 0.1502 0.4636
H55? H 0.4665 0.0848 0.5398
H56? H 0.4614 0.1894 0.5528
N3? N 0.2257(10) -0.2710(10) 0.2539(8)
N4? N 0.3121(11) -0.1667(12) 0.2734(12)
loop_
_geom_bond_atom_site_label_1
_geom_bond_atom_site_label_2
_geom_bond_site_symmetry_1
_geom_bond_site_symmetry_2
Pr1 Cl1 1_555 1_555
Pr2 Cl1 1_555 1_555
O1 Pr1 1_555 1_555
O2 C1 1_555 1_555
O3 Pr1 1_555 1_555
O4 C12 1_555 1_555
O5 Pr2 1_555 1_555
O6 C12 1_555 1_555
O7 C24 1_555 1_555
O8 C24 1_555 1_555
O9 Pr2 1_555 1_555
O10 C25 1_555 1_555
O11 C36 1_555 1_555
O12 C36 1_555 1_555
C1 O1 1_555 1_555
C2 C1 1_555 1_555
C3 C2 1_555 1_555
H1 C3 1_555 1_555
C4 C3 1_555 1_555
H2 C4 1_555 1_555
C5 C4 1_555 1_555
C6 C5 1_555 1_555
C7 C2 1_555 1_555
C8 C7 1_555 1_555
H3 C8 1_555 1_555
C9 C8 1_555 1_555
H4 C9 1_555 1_555
C10 C9 1_555 1_555
H5 C10 1_555 1_555
C11 C6 1_555 1_555
H6 C11 1_555 1_555
C12 C5 1_555 1_555
C13 O3 1_555 1_555
C14 C13 1_555 1_555
C15 C14 1_555 1_555
H7 C15 1_555 1_555
C16 C15 1_555 1_555
H8 C16 1_555 1_555
C17 C16 1_555 1_555
C18 C17 1_555 1_555
C19 C14 1_555 1_555
C20 C19 1_555 1_555
H9 C20 1_555 1_555
C21 C20 1_555 1_555
H10 C21 1_555 1_555
C22 C21 1_555 1_555
H11 C22 1_555 1_555
C23 C18 1_555 1_555
H12 C23 1_555 1_555
C24 C17 1_555 1_555
C25 O9 1_555 1_555
C26 C25 1_555 1_555
C27 C26 1_555 1_555
H13 C27 1_555 1_555
C28 C27 1_555 1_555
H14 C28 1_555 1_555
C29 C28 1_555 1_555
C30 C29 1_555 1_555
C31 C26 1_555 1_555
C32 C31 1_555 1_555
H15 C32 1_555 1_555
C33 C32 1_555 1_555
H16 C33 1_555 1_555
C34 C33 1_555 1_555
H17 C34 1_555 1_555
C35 C30 1_555 1_555
H18 C35 1_555 1_555
C36 C29 1_555 1_555
N1 C37 1_555 1_555
N2 C38 1_555 1_555
C37 H19 1_555 1_555
C38 C37 1_555 1_555
H20 C38 1_555 1_555
C39 N1 1_555 1_555
H21 C39 1_555 1_555
C40 N1 1_555 1_555
H22 C40 1_555 1_555
H23 C40 1_555 1_555
H24 C40 1_555 1_555
C41 N2 1_555 1_555
H25 C41 1_555 1_555
H26 C41 1_555 1_555
C42 H27 1_555 1_555
H28 C42 1_555 1_555
C43 C41 1_555 1_555
H29 C43 1_555 1_555
H30 C43 1_555 1_555
C44 C42 1_555 1_555
H31 C44 1_555 1_555
H32 C44 1_555 1_555
C45 C44 1_555 1_555
H33 C45 1_555 1_555
H34 C45 1_555 1_555
C46 C45 1_555 1_555
H35 C46 1_555 1_555
H36 C46 1_555 1_555
H37 C46 1_555 1_555
Pr1B O2 1_555 1_555
Pr1C O4 1_555 1_555
Pr1A O6 1_555 1_555
Pr1C_2 O7 1_555 1_555
Pr2C O8 1_555 1_555
Pr2B O10 1_555 1_555
Pr2A O11 1_555 1_555
O2B Pr1 1_555 1_555
O4C Pr1 1_555 1_555
O6A Pr1 1_555 1_555
O7C Pr1 1_555 1_555
O8C Pr2 1_555 1_555
O10B Pr2 1_555 1_555
O11A Pr2 1_555 1_555
O11C Pr2 1_555 1_555
O12A Pr2 1_555 1_555
O5 C13 1_555 1_555
O11 Pr2C 1_555 1_555
O12 Pr2A 1_555 1_555
C6 C7 1_555 1_555
C10 C11 1_555 1_555
C18 C19 1_555 1_555
C22 C23 1_555 1_555
C30 C31 1_555 1_555
C34 C35 1_555 1_555
N2 C39 1_555 1_555
C42 C43 1_555 1_555
Pr2B O11A 1_555 1_555
Pr2B O11C 1_555 1_555

#END
