
#######################################################################
#
#                 Cambridge Crystallographic Data Centre
#                                CCDC 
#
#######################################################################
#
# If this CIF has been generated from an entry in the Cambridge 
# Structural Database, then it will include bibliographic, chemical, 
# crystal, experimental, refinement or atomic coordinate data resulting 
# from the CCDC's data processing and validation procedures.
#
#######################################################################

data_MEGPAR
_symmetry_cell_setting           monoclinic
_symmetry_space_group_name_H-M   'P 21/c'
_symmetry_Int_Tables_number      14
_space_group_name_Hall           '-P 2ybc'
loop_
_symmetry_equiv_pos_site_id
_symmetry_equiv_pos_as_xyz
1 x,y,z
2 -x,1/2+y,1/2-z
3 -x,-y,-z
4 x,1/2-y,1/2+z
_cell_length_a                   17.9082(4)
_cell_length_b                   14.8189(3)
_cell_length_c                   16.0623(4)
_cell_angle_alpha                90
_cell_angle_beta                 95.729(2)
_cell_angle_gamma                90
_cell_volume                     4241.32
loop_
_atom_site_label
_atom_site_type_symbol
_atom_site_fract_x
_atom_site_fract_y
_atom_site_fract_z
Nd1 Nd 0.377983(9) 0.024920(11) -0.005390(9)
Nd2 Nd 0.115198(9) 0.012618(11) -0.001139(9)
Cl1 Cl 0.25183(4) -0.08647(6) 0.02321(6)
O1 O 0.44890(14) 0.12933(17) -0.07751(16)
O2 O 0.57262(14) 0.11102(16) -0.06093(16)
O3 O 0.31539(14) 0.13322(17) 0.07478(16)
O4 O 0.47380(15) 0.43190(18) -0.39989(15)
O5 O 0.19436(13) 0.13749(15) 0.02984(15)
O6 O 0.59749(15) 0.43247(18) -0.37888(15)
O7 O 0.28491(13) 0.43100(17) 0.38873(14)
O8 O 0.16141(13) 0.45046(16) 0.36640(13)
O9 O 0.06233(14) 0.09641(17) 0.11002(15)
O10 O -0.06261(14) 0.10420(17) 0.08936(15)
O11 O 0.00765(13) 0.41510(17) 0.43403(14)
O12 O -0.11028(14) 0.40830(19) 0.38273(16)
C1 C 0.51406(19) 0.1489(2) -0.0924(2)
C2 C 0.52157(18) 0.2217(2) -0.1567(2)
C3 C 0.47162(19) 0.2209(2) -0.2267(2)
H1 H 0.4342 0.1772 -0.2324
C4 C 0.4759(2) 0.2853(2) -0.2900(2)
H2 H 0.4407 0.2838 -0.3367
C5 C 0.53015(18) 0.3497(2) -0.2849(2)
C6 C 0.58201(18) 0.3556(2) -0.2115(2)
C7 C 0.57819(18) 0.2897(2) -0.14731(19)
C8 C 0.6305(2) 0.2959(2) -0.0745(2)
H3 H 0.6297 0.2528 -0.0325
C9 C 0.6813(2) 0.3640(3) -0.0659(2)
H4 H 0.7152 0.3668 -0.0183
C10 C 0.6832(2) 0.4303(3) -0.1279(2)
H5 H 0.7176 0.4773 -0.1204
C11 C 0.6356(2) 0.4262(2) -0.1987(2)
H6 H 0.6379 0.4703 -0.2396
C12 C 0.5337(2) 0.4100(2) -0.3595(2)
C13 C 0.25031(19) 0.1650(2) 0.0761(2)
C14 C 0.23957(18) 0.2363(2) 0.1396(2)
C15 C 0.2833(2) 0.2297(3) 0.2148(2)
H7 H 0.3186 0.1837 0.2223
C16 C 0.2761(2) 0.2902(2) 0.2798(2)
H8 H 0.3074 0.2843 0.3292
C17 C 0.22434(17) 0.3576(2) 0.27271(19)
C18 C 0.17729(17) 0.3686(2) 0.19583(19)
C19 C 0.18651(18) 0.3075(2) 0.12819(19)
C20 C 0.1434(2) 0.3236(2) 0.0506(2)
H9 H 0.1496 0.2861 0.0054
C21 C 0.0932(2) 0.3930(3) 0.0410(2)
H10 H 0.0654 0.4022 -0.0104
C22 C 0.0833(2) 0.4505(2) 0.1085(2)
H11 H 0.0486 0.4973 0.1016
C23 C 0.12359(19) 0.4385(2) 0.1832(2)
H12 H 0.1159 0.4770 0.2273
C24 C 0.22248(18) 0.4183(2) 0.34792(18)
C25 C 0.0009(2) 0.1311(2) 0.1217(2)
C26 C -0.00128(18) 0.2088(2) 0.1801(2)
C27 C 0.0375(2) 0.2025(3) 0.2583(2)
H13 H 0.0709 0.1551 0.2700
C28 C 0.0275(2) 0.2664(3) 0.3207(2)
H14 H 0.0551 0.2612 0.3727
C29 C -0.02197(19) 0.3360(2) 0.3064(2)
C30 C -0.05744(19) 0.3509(2) 0.2232(2)
C31 C -0.04746(19) 0.2860(2) 0.1610(2)
C32 C -0.0808(2) 0.3024(3) 0.0775(2)
H15 H -0.0746 0.2608 0.0353
C33 C -0.1212(3) 0.3784(3) 0.0602(3)
H16 H -0.1433 0.3883 0.0060
C34 C -0.1303(2) 0.4420(3) 0.1219(3)
H17 H -0.1573 0.4944 0.1079
C35 C -0.1006(2) 0.4293(3) 0.2028(3)
H18 H -0.1085 0.4716 0.2438
C36 C -0.0423(2) 0.3908(2) 0.3775(2)
Nd1B Nd 0.622017(9) -0.024920(11) 0.005390(9)
Nd1C Nd 0.377983(9) 0.475080(11) -0.505390(9)
Nd1A Nd 0.622017(9) 0.524920(11) -0.494610(9)
Nd1C_2 Nd 0.377983(9) 0.475080(11) 0.494610(9)
Nd2C Nd 0.115198(9) 0.487382(11) 0.498861(9)
Nd2B Nd -0.115198(9) -0.012618(11) 0.001139(9)
Nd2A Nd -0.115198(9) 0.512618(11) 0.501139(9)
O2B O 0.42738(14) -0.11102(16) 0.06093(16)
O4C O 0.47380(15) 0.06810(18) 0.10011(15)
O6A O 0.40251(15) -0.06753(18) -0.12112(15)
O7C O 0.28491(13) 0.06900(17) -0.11127(14)
O8C O 0.16141(13) 0.04954(16) -0.13360(13)
O10B O 0.06261(14) -0.10420(17) -0.08936(15)
O11A O -0.00765(13) -0.08490(17) 0.06597(14)
O11C O 0.00765(13) 0.08490(17) -0.06597(14)
O12A O 0.11028(14) -0.09170(19) 0.11727(16)
N1 N 0.2368(6) -0.2684(7) 0.2784(5)
N2 N 0.3061(8) -0.1490(8) 0.2687(8)
C37 C 0.2877(5) -0.2658(6) 0.3468(6)
H19 H 0.2925 -0.3074 0.3903
C38 C 0.3328(7) -0.1868(7) 0.3394(7)
H20 H 0.3723 -0.1666 0.3766
C39 C 0.2491(8) -0.1981(9) 0.2315(7)
H21 H 0.2224 -0.1846 0.1804
C40 C 0.1822(6) -0.3371(7) 0.2595(7)
H22 H 0.1449 -0.3160 0.2168
H23 H 0.1587 -0.3518 0.3089
H24 H 0.2061 -0.3899 0.2399
C41 C 0.3317(6) -0.0600(6) 0.2375(7)
H25 H 0.2882 -0.0214 0.2258
H26 H 0.3531 -0.0700 0.1850
C42 C 0.3294(6) 0.0279(8) 0.3564(8)
H27 H 0.2857 0.0538 0.3247
H28 H 0.3140 -0.0176 0.3946
C43 C 0.3895(6) -0.0102(8) 0.2971(7)
H29 H 0.4149 0.0375 0.2696
H30 H 0.4259 -0.0504 0.3263
C44 C 0.3811(8) 0.1016(8) 0.4024(7)
H31 H 0.4166 0.1218 0.3646
H32 H 0.3502 0.1529 0.4139
C45 C 0.4232(8) 0.0730(9) 0.4812(7)
H33 H 0.4762 0.0711 0.4734
H34 H 0.4079 0.0122 0.4942
C46 C 0.4124(10) 0.1342(11) 0.5558(8)
H35 H 0.4444 0.1143 0.6037
H36 H 0.3610 0.1315 0.5679
H37 H 0.4249 0.1951 0.5425
C47? C 0.2594(9) -0.2819(10) 0.3307(9)
C48? C 0.3171(11) -0.2159(11) 0.3421(10)
C49? C 0.2555(13) -0.2023(14) 0.2193(11)
C50? C 0.1676(9) -0.3216(11) 0.2079(10)
C51? C 0.3590(9) -0.0892(9) 0.2494(12)
C52? C 0.3340(11) 0.0034(11) 0.2793(10)
C53? C 0.3819(10) 0.0262(14) 0.3679(11)
C54? C 0.3381(10) 0.0812(14) 0.4266(11)
C55? C 0.3623(10) 0.1372(14) 0.4997(12)
C56? C 0.4485(10) 0.1431(18) 0.5205(15)
H38? H 0.2477 -0.3244 0.3700
H39? H 0.3523 -0.2090 0.3883
H40? H 0.2418 -0.1805 0.1657
H41? H 0.1648 -0.3055 0.1498
H42? H 0.1205 -0.3087 0.2292
H43? H 0.1784 -0.3849 0.2141
H44? H 0.3587 -0.0880 0.1890
H45? H 0.4102 -0.1003 0.2730
H46? H 0.2808 0.0024 0.2863
H47? H 0.3427 0.0493 0.2383
H48? H 0.3978 -0.0300 0.3953
H49? H 0.4267 0.0593 0.3572
H50? H 0.3074 0.1213 0.3897
H51? H 0.3034 0.0382 0.4472
H52? H 0.3405 0.1130 0.5479
H53? H 0.3426 0.1977 0.4899
H54? H 0.4718 0.1524 0.4698
H55? H 0.4667 0.0880 0.5465
H56? H 0.4605 0.1927 0.5579
N3? N 0.2243(10) -0.2721(11) 0.2525(8)
N4? N 0.3101(13) -0.1663(13) 0.2733(12)
loop_
_geom_bond_atom_site_label_1
_geom_bond_atom_site_label_2
_geom_bond_site_symmetry_1
_geom_bond_site_symmetry_2
Nd1 Cl1 1_555 1_555
Nd2 Cl1 1_555 1_555
O1 Nd1 1_555 1_555
O2 C1 1_555 1_555
O3 Nd1 1_555 1_555
O4 C12 1_555 1_555
O5 Nd2 1_555 1_555
O6 C12 1_555 1_555
O7 C24 1_555 1_555
O8 C24 1_555 1_555
O9 Nd2 1_555 1_555
O10 C25 1_555 1_555
O11 C36 1_555 1_555
O12 C36 1_555 1_555
C1 O1 1_555 1_555
C2 C1 1_555 1_555
C3 C2 1_555 1_555
H1 C3 1_555 1_555
C4 C3 1_555 1_555
H2 C4 1_555 1_555
C5 C4 1_555 1_555
C6 C5 1_555 1_555
C7 C2 1_555 1_555
C8 C7 1_555 1_555
H3 C8 1_555 1_555
C9 C8 1_555 1_555
H4 C9 1_555 1_555
C10 C9 1_555 1_555
H5 C10 1_555 1_555
C11 C6 1_555 1_555
H6 C11 1_555 1_555
C12 C5 1_555 1_555
C13 O3 1_555 1_555
C14 C13 1_555 1_555
C15 C14 1_555 1_555
H7 C15 1_555 1_555
C16 C15 1_555 1_555
H8 C16 1_555 1_555
C17 C16 1_555 1_555
C18 C17 1_555 1_555
C19 C14 1_555 1_555
C20 C19 1_555 1_555
H9 C20 1_555 1_555
C21 C20 1_555 1_555
H10 C21 1_555 1_555
C22 C21 1_555 1_555
H11 C22 1_555 1_555
C23 C18 1_555 1_555
H12 C23 1_555 1_555
C24 C17 1_555 1_555
C25 O9 1_555 1_555
C26 C25 1_555 1_555
C27 C26 1_555 1_555
H13 C27 1_555 1_555
C28 C27 1_555 1_555
H14 C28 1_555 1_555
C29 C28 1_555 1_555
C30 C29 1_555 1_555
C31 C26 1_555 1_555
C32 C31 1_555 1_555
H15 C32 1_555 1_555
C33 C32 1_555 1_555
H16 C33 1_555 1_555
C34 C33 1_555 1_555
H17 C34 1_555 1_555
C35 C30 1_555 1_555
H18 C35 1_555 1_555
C36 C29 1_555 1_555
N1 C37 1_555 1_555
N2 C38 1_555 1_555
C37 H19 1_555 1_555
C38 C37 1_555 1_555
H20 C38 1_555 1_555
C39 N1 1_555 1_555
H21 C39 1_555 1_555
C40 N1 1_555 1_555
H22 C40 1_555 1_555
H23 C40 1_555 1_555
H24 C40 1_555 1_555
C41 N2 1_555 1_555
H25 C41 1_555 1_555
H26 C41 1_555 1_555
C42 H27 1_555 1_555
H28 C42 1_555 1_555
C43 C41 1_555 1_555
H29 C43 1_555 1_555
H30 C43 1_555 1_555
C44 C42 1_555 1_555
H31 C44 1_555 1_555
H32 C44 1_555 1_555
C45 C44 1_555 1_555
H33 C45 1_555 1_555
H34 C45 1_555 1_555
C46 C45 1_555 1_555
H35 C46 1_555 1_555
H36 C46 1_555 1_555
H37 C46 1_555 1_555
Nd1B O2 1_555 1_555
Nd1C O4 1_555 1_555
Nd1A O6 1_555 1_555
Nd1C_2 O7 1_555 1_555
Nd2C O8 1_555 1_555
Nd2B O10 1_555 1_555
Nd2A O11 1_555 1_555
O2B Nd1 1_555 1_555
O4C Nd1 1_555 1_555
O6A Nd1 1_555 1_555
O7C Nd1 1_555 1_555
O8C Nd2 1_555 1_555
O10B Nd2 1_555 1_555
O11A Nd2 1_555 1_555
O11C Nd2 1_555 1_555
O12A Nd2 1_555 1_555
O5 C13 1_555 1_555
O11 Nd2C 1_555 1_555
O12 Nd2A 1_555 1_555
C6 C7 1_555 1_555
C10 C11 1_555 1_555
C18 C19 1_555 1_555
C22 C23 1_555 1_555
C30 C31 1_555 1_555
C34 C35 1_555 1_555
N2 C39 1_555 1_555
C42 C43 1_555 1_555
Nd2B O11A 1_555 1_555
Nd2B O11C 1_555 1_555

#END
