
#######################################################################
#
#                 Cambridge Crystallographic Data Centre
#                                CCDC 
#
#######################################################################
#
# If this CIF has been generated from an entry in the Cambridge 
# Structural Database, then it will include bibliographic, chemical, 
# crystal, experimental, refinement or atomic coordinate data resulting 
# from the CCDC's data processing and validation procedures.
#
#######################################################################

data_MEGPIZ
_symmetry_cell_setting           monoclinic
_symmetry_space_group_name_H-M   'P 21/c'
_symmetry_Int_Tables_number      14
_space_group_name_Hall           '-P 2ybc'
loop_
_symmetry_equiv_pos_site_id
_symmetry_equiv_pos_as_xyz
1 x,y,z
2 -x,1/2+y,1/2-z
3 -x,-y,-z
4 x,1/2-y,1/2+z
_cell_length_a                   17.7876(2)
_cell_length_b                   14.81893(16)
_cell_length_c                   15.94964(19)
_cell_angle_alpha                90
_cell_angle_beta                 94.9429(11)
_cell_angle_gamma                90
_cell_volume                     4188.58
loop_
_atom_site_label
_atom_site_type_symbol
_atom_site_fract_x
_atom_site_fract_y
_atom_site_fract_z
Eu1 Eu 0.378106(9) 0.024720(11) -0.004786(9)
Eu2 Eu 0.116139(9) 0.011984(11) -0.001158(9)
Cl1 Cl 0.25207(5) -0.08439(7) 0.02369(6)
O1 O 0.44934(15) 0.1257(2) -0.07738(18)
O2 O 0.57390(15) 0.10769(19) -0.06305(18)
O3 O 0.31539(15) 0.1308(2) 0.07393(18)
O4 O 0.47146(16) 0.4303(2) -0.40133(17)
O5 O 0.19324(14) 0.13517(17) 0.03079(16)
O6 O 0.59570(16) 0.4324(2) -0.38252(16)
O7 O 0.28800(14) 0.43033(19) 0.38978(15)
O8 O 0.16426(14) 0.45323(18) 0.36853(14)
O9 O 0.06173(15) 0.09084(19) 0.11054(16)
O10 O -0.06367(15) 0.10238(18) 0.08794(16)
O11 O 0.01392(15) 0.41254(19) 0.43511(15)
O12 O -0.10616(15) 0.4048(2) 0.38914(18)
C1 C 0.5145(2) 0.1456(3) -0.0933(2)
C2 C 0.5217(2) 0.2189(2) -0.1580(2)
C3 C 0.4715(2) 0.2175(3) -0.2283(2)
H1 H 0.4344 0.1732 -0.2337
C4 C 0.4753(2) 0.2818(3) -0.2919(2)
H2 H 0.4403 0.2797 -0.3387
C5 C 0.5293(2) 0.3476(3) -0.2868(2)
C6 C 0.58146(19) 0.3541(2) -0.2135(2)
C7 C 0.5782(2) 0.2878(3) -0.1489(2)
C8 C 0.6298(2) 0.2947(3) -0.0762(2)
H3 H 0.6293 0.2515 -0.0340
C9 C 0.6803(2) 0.3642(3) -0.0678(2)
H4 H 0.7141 0.3676 -0.0200
C10 C 0.6816(2) 0.4304(3) -0.1304(2)
H5 H 0.7157 0.4779 -0.1232
C11 C 0.6343(2) 0.4260(3) -0.2008(2)
H6 H 0.6361 0.4706 -0.2416
C12 C 0.5325(2) 0.4084(3) -0.3619(2)
C13 C 0.2498(2) 0.1625(3) 0.0762(2)
C14 C 0.2394(2) 0.2343(2) 0.1408(2)
C15 C 0.2831(2) 0.2272(3) 0.2156(2)
H7 H 0.3179 0.1803 0.2228
C16 C 0.2770(2) 0.2879(3) 0.2810(2)
H8 H 0.3082 0.2813 0.3306
C17 C 0.22584(19) 0.3576(2) 0.2740(2)
C18 C 0.17865(18) 0.3679(2) 0.19734(19)
C19 C 0.1867(2) 0.3067(2) 0.1288(2)
C20 C 0.1434(2) 0.3227(3) 0.0521(2)
H9 H 0.1487 0.2844 0.0068
C21 C 0.0940(2) 0.3931(3) 0.0427(2)
H10 H 0.0664 0.4025 -0.0088
C22 C 0.0850(2) 0.4507(3) 0.1097(2)
H11 H 0.0506 0.4980 0.1030
C23 C 0.1256(2) 0.4391(2) 0.1848(2)
H12 H 0.1186 0.4785 0.2288
C24 C 0.2252(2) 0.4194(2) 0.3494(2)
C25 C 0.0002(2) 0.1273(3) 0.1208(2)
C26 C -0.0009(2) 0.2053(3) 0.1806(2)
C27 C 0.0387(2) 0.1979(3) 0.2578(2)
H13 H 0.0716 0.1497 0.2684
C28 C 0.0304(2) 0.2618(3) 0.3215(2)
H14 H 0.0588 0.2562 0.3731
C29 C -0.0189(2) 0.3323(3) 0.3083(2)
C30 C -0.0559(2) 0.3478(3) 0.2254(2)
C31 C -0.0462(2) 0.2832(3) 0.1621(2)
C32 C -0.0810(2) 0.3005(3) 0.0793(2)
H15 H -0.0766 0.2585 0.0366
C33 C -0.1201(3) 0.3774(3) 0.0631(3)
H16 H -0.1416 0.3883 0.0089
C34 C -0.1288(3) 0.4403(3) 0.1257(3)
H17 H -0.1560 0.4929 0.1129
C35 C -0.0983(2) 0.4261(3) 0.2052(3)
H18 H -0.1054 0.4685 0.2468
C36 C -0.0381(2) 0.3876(3) 0.3813(2)
Eu1B Eu 0.621894(9) -0.024720(11) 0.004786(9)
Eu1C Eu 0.378106(9) 0.475280(11) -0.504786(9)
Eu1A Eu 0.621894(9) 0.524720(11) -0.495214(9)
Eu1C_2 Eu 0.378106(9) 0.475280(11) 0.495214(9)
Eu2C Eu 0.116139(9) 0.488016(11) 0.498842(9)
Eu2B Eu -0.116139(9) -0.011984(11) 0.001158(9)
Eu2A Eu -0.116139(9) 0.511984(11) 0.501158(9)
O2B O 0.42610(15) -0.10769(19) 0.06305(18)
O4C O 0.47146(16) 0.0697(2) 0.09867(17)
O6A O 0.40430(16) -0.0676(2) -0.11748(16)
O7C O 0.28800(14) 0.06967(19) -0.11022(15)
O8C O 0.16426(14) 0.04677(18) -0.13147(14)
O10B O 0.06367(15) -0.10238(18) -0.08794(16)
O11A O -0.01392(15) -0.08746(19) 0.06489(15)
O11C O 0.01392(15) 0.08746(19) -0.06489(15)
O12A O 0.10616(15) -0.0952(2) 0.11086(18)
N1 N 0.2340(4) -0.2665(4) 0.2716(4)
N2 N 0.3051(4) -0.1519(5) 0.2692(4)
C37 C 0.2780(9) -0.2692(11) 0.3425(9)
H19 H 0.2765 -0.3118 0.3851
C38 C 0.3286(5) -0.1938(6) 0.3412(5)
H20 H 0.3680 -0.1779 0.3806
C39 C 0.2504(13) -0.1962(12) 0.2275(10)
H21 H 0.2272 -0.1803 0.1751
C40 C 0.1772(5) -0.3373(6) 0.2491(6)
H22 H 0.1377 -0.3128 0.2111
H23 H 0.1564 -0.3583 0.2991
H24 H 0.2008 -0.3867 0.2226
C41 C 0.3372(5) -0.0660(6) 0.2397(5)
H25 H 0.2950 -0.0276 0.2207
H26 H 0.3633 -0.0804 0.1904
C42 C 0.3906(5) -0.0094(7) 0.2970(6)
H27 H 0.4144 0.0379 0.2665
H28 H 0.4290 -0.0458 0.3278
C43 C 0.3302(5) 0.0304(7) 0.3574(6)
H29 H 0.2868 0.0578 0.3264
H30 H 0.3141 -0.0139 0.3969
C44 C 0.3860(7) 0.1006(7) 0.3991(5)
H31 H 0.4230 0.1142 0.3596
H32 H 0.3580 0.1557 0.4070
C45 C 0.4279(7) 0.0769(8) 0.4816(6)
H33 H 0.4815 0.0865 0.4786
H34 H 0.4199 0.0137 0.4942
C46 C 0.3996(9) 0.1357(9) 0.5507(7)
H35 H 0.4281 0.1226 0.6031
H36 H 0.3472 0.1233 0.5556
H37 H 0.4058 0.1981 0.5368
C47? C 0.2207(9) -0.3158(11) 0.3054(8)
C48? C 0.2867(19) -0.270(2) 0.3439(18)
C49? C 0.247(3) -0.206(2) 0.226(2)
C50? C 0.1547(9) -0.3222(11) 0.1639(9)
C51? C 0.3496(9) -0.1215(10) 0.3010(11)
C52? C 0.3398(12) -0.0162(11) 0.2890(10)
C53? C 0.3818(11) 0.0192(14) 0.3761(11)
C54? C 0.3380(10) 0.0807(14) 0.4329(12)
C55? C 0.3672(11) 0.1532(14) 0.4914(14)
C56? C 0.4512(11) 0.1386(19) 0.5221(16)
H38? H 0.1925 -0.3601 0.3297
H39? H 0.3162 -0.2851 0.3927
H40? H 0.2405 -0.1630 0.1831
H41? H 0.1499 -0.2839 0.1151
H42? H 0.1064 -0.3283 0.1859
H43? H 0.1724 -0.3806 0.1485
H44? H 0.3875 -0.1373 0.2633
H45? H 0.3745 -0.1275 0.3573
H46? H 0.2870 0.0012 0.2833
H47? H 0.3643 0.0055 0.2408
H48? H 0.3986 -0.0333 0.4089
H49? H 0.4267 0.0515 0.3628
H50? H 0.2997 0.1097 0.3951
H51? H 0.3112 0.0398 0.4672
H52? H 0.3375 0.1546 0.5396
H53? H 0.3615 0.2110 0.4631
H54? H 0.4678 0.1862 0.5602
H55? H 0.4810 0.1390 0.4747
H56? H 0.4570 0.0816 0.5505
N3? N 0.2090(8) -0.2819(8) 0.2287(8)
N4? N 0.2952(8) -0.2002(9) 0.2936(8)
loop_
_geom_bond_atom_site_label_1
_geom_bond_atom_site_label_2
_geom_bond_site_symmetry_1
_geom_bond_site_symmetry_2
Eu1 Cl1 1_555 1_555
Eu2 Cl1 1_555 1_555
O1 Eu1 1_555 1_555
O2 C1 1_555 1_555
O3 Eu1 1_555 1_555
O4 C12 1_555 1_555
O5 Eu2 1_555 1_555
O6 C12 1_555 1_555
O7 C24 1_555 1_555
O8 C24 1_555 1_555
O9 Eu2 1_555 1_555
O10 C25 1_555 1_555
O11 C36 1_555 1_555
O12 C36 1_555 1_555
C1 O1 1_555 1_555
C2 C1 1_555 1_555
C3 C2 1_555 1_555
H1 C3 1_555 1_555
C4 C3 1_555 1_555
H2 C4 1_555 1_555
C5 C4 1_555 1_555
C6 C5 1_555 1_555
C7 C2 1_555 1_555
C8 C7 1_555 1_555
H3 C8 1_555 1_555
C9 C8 1_555 1_555
H4 C9 1_555 1_555
C10 C9 1_555 1_555
H5 C10 1_555 1_555
C11 C6 1_555 1_555
H6 C11 1_555 1_555
C12 C5 1_555 1_555
C13 O3 1_555 1_555
C14 C13 1_555 1_555
C15 C14 1_555 1_555
H7 C15 1_555 1_555
C16 C15 1_555 1_555
H8 C16 1_555 1_555
C17 C16 1_555 1_555
C18 C17 1_555 1_555
C19 C14 1_555 1_555
C20 C19 1_555 1_555
H9 C20 1_555 1_555
C21 C20 1_555 1_555
H10 C21 1_555 1_555
C22 C21 1_555 1_555
H11 C22 1_555 1_555
C23 C18 1_555 1_555
H12 C23 1_555 1_555
C24 C17 1_555 1_555
C25 O9 1_555 1_555
C26 C25 1_555 1_555
C27 C26 1_555 1_555
H13 C27 1_555 1_555
C28 C27 1_555 1_555
H14 C28 1_555 1_555
C29 C28 1_555 1_555
C30 C29 1_555 1_555
C31 C26 1_555 1_555
C32 C31 1_555 1_555
H15 C32 1_555 1_555
C33 C32 1_555 1_555
H16 C33 1_555 1_555
C34 C33 1_555 1_555
H17 C34 1_555 1_555
C35 C30 1_555 1_555
H18 C35 1_555 1_555
C36 C29 1_555 1_555
N1 C37 1_555 1_555
N2 C38 1_555 1_555
C37 H19 1_555 1_555
C38 C37 1_555 1_555
H20 C38 1_555 1_555
C39 N1 1_555 1_555
H21 C39 1_555 1_555
C40 N1 1_555 1_555
H22 C40 1_555 1_555
H23 C40 1_555 1_555
H24 C40 1_555 1_555
C41 N2 1_555 1_555
H25 C41 1_555 1_555
H26 C41 1_555 1_555
C42 C41 1_555 1_555
H27 C42 1_555 1_555
H28 C42 1_555 1_555
C43 C42 1_555 1_555
H29 C43 1_555 1_555
H30 C43 1_555 1_555
C44 C43 1_555 1_555
H31 C44 1_555 1_555
H32 C44 1_555 1_555
C45 C44 1_555 1_555
H33 C45 1_555 1_555
H34 C45 1_555 1_555
C46 C45 1_555 1_555
H35 C46 1_555 1_555
H36 C46 1_555 1_555
H37 C46 1_555 1_555
Eu1B O2 1_555 1_555
Eu1C O4 1_555 1_555
Eu1A O6 1_555 1_555
Eu1C_2 O7 1_555 1_555
Eu2C O8 1_555 1_555
Eu2B O10 1_555 1_555
Eu2A O11 1_555 1_555
O2B Eu1 1_555 1_555
O4C Eu1 1_555 1_555
O6A Eu1 1_555 1_555
O7C Eu1 1_555 1_555
O8C Eu2 1_555 1_555
O10B Eu2 1_555 1_555
O11A Eu2 1_555 1_555
O11C Eu2 1_555 1_555
O12A Eu2 1_555 1_555
O5 C13 1_555 1_555
O11 Eu2C 1_555 1_555
O12 Eu2A 1_555 1_555
C6 C7 1_555 1_555
C10 C11 1_555 1_555
C18 C19 1_555 1_555
C22 C23 1_555 1_555
C30 C31 1_555 1_555
C34 C35 1_555 1_555
N2 C39 1_555 1_555
Eu2B O11A 1_555 1_555
Eu2B O11C 1_555 1_555

#END
