
#######################################################################
#
#                 Cambridge Crystallographic Data Centre
#                                CCDC 
#
#######################################################################
#
# If this CIF has been generated from an entry in the Cambridge 
# Structural Database, then it will include bibliographic, chemical, 
# crystal, experimental, refinement or atomic coordinate data resulting 
# from the CCDC's data processing and validation procedures.
#
#######################################################################

data_MEGPOF
_symmetry_cell_setting           monoclinic
_symmetry_space_group_name_H-M   'P 21/c'
_symmetry_Int_Tables_number      14
_space_group_name_Hall           '-P 2ybc'
loop_
_symmetry_equiv_pos_site_id
_symmetry_equiv_pos_as_xyz
1 x,y,z
2 -x,1/2+y,1/2-z
3 -x,-y,-z
4 x,1/2-y,1/2+z
_cell_length_a                   17.7374(3)
_cell_length_b                   14.7992(3)
_cell_length_c                   15.9201(3)
_cell_angle_alpha                90
_cell_angle_beta                 94.7447(17)
_cell_angle_gamma                90
_cell_volume                     4164.69
loop_
_atom_site_label
_atom_site_type_symbol
_atom_site_fract_x
_atom_site_fract_y
_atom_site_fract_z
Gd1 Gd 0.378316(8) 0.024717(10) -0.004639(9)
Gd2 Gd 0.116458(8) 0.011929(11) -0.001180(9)
Cl1 Cl 0.25214(5) -0.08359(6) 0.02419(6)
O1 O 0.44968(15) 0.1243(2) -0.07737(18)
O2 O 0.57452(15) 0.1066(2) -0.06429(19)
O3 O 0.31538(15) 0.1297(2) 0.07397(18)
O4 O 0.47129(16) 0.4292(2) -0.40174(18)
O5 O 0.19317(14) 0.13442(18) 0.03118(17)
O6 O 0.59588(16) 0.4314(2) -0.38331(17)
O7 O 0.28888(14) 0.4299(2) 0.39017(15)
O8 O 0.16506(13) 0.45361(19) 0.36867(14)
O9 O 0.06179(14) 0.08915(19) 0.11054(16)
O10 O -0.06371(15) 0.10142(19) 0.08769(16)
O11 O 0.01549(15) 0.4114(2) 0.43510(16)
O12 O -0.10481(15) 0.4039(2) 0.39108(18)
C1 C 0.5148(2) 0.1440(3) -0.0942(2)
C2 C 0.52216(19) 0.2176(2) -0.1585(2)
C3 C 0.4713(2) 0.2159(3) -0.2290(2)
H1 H 0.4338 0.1718 -0.2340
C4 C 0.4757(2) 0.2801(3) -0.2932(2)
H2 H 0.4414 0.2773 -0.3406
C5 C 0.52903(19) 0.3465(3) -0.2877(2)
C6 C 0.58104(18) 0.3534(2) -0.2143(2)
C7 C 0.57807(19) 0.2870(3) -0.1495(2)
C8 C 0.6299(2) 0.2941(3) -0.0766(2)
H3 H 0.6301 0.2503 -0.0347
C9 C 0.6792(2) 0.3648(3) -0.0679(3)
H4 H 0.7122 0.3691 -0.0196
C10 C 0.6812(2) 0.4304(3) -0.1299(3)
H5 H 0.7152 0.4781 -0.1224
C11 C 0.6337(2) 0.4258(3) -0.2019(2)
H6 H 0.6358 0.4701 -0.2430
C12 C 0.5322(2) 0.4075(3) -0.3630(2)
C13 C 0.2499(2) 0.1618(3) 0.0769(2)
C14 C 0.23958(19) 0.2336(3) 0.1410(2)
C15 C 0.2830(2) 0.2261(3) 0.2164(2)
H7 H 0.3175 0.1788 0.2238
C16 C 0.2767(2) 0.2870(3) 0.2815(2)
H8 H 0.3077 0.2802 0.3312
C17 C 0.22597(18) 0.3569(2) 0.2747(2)
C18 C 0.17894(18) 0.3679(2) 0.1971(2)
C19 C 0.18690(18) 0.3064(2) 0.1297(2)
C20 C 0.1434(2) 0.3220(3) 0.0516(2)
H9 H 0.1488 0.2836 0.0062
C21 C 0.0943(2) 0.3922(3) 0.0428(2)
H10 H 0.0662 0.4012 -0.0085
C22 C 0.0853(2) 0.4509(3) 0.1094(2)
H11 H 0.0513 0.4986 0.1022
C23 C 0.1258(2) 0.4392(3) 0.1851(2)
H12 H 0.1185 0.4784 0.2294
C24 C 0.22604(19) 0.4189(2) 0.3501(2)
C25 C 0.0003(2) 0.1263(3) 0.1211(2)
C26 C -0.0009(2) 0.2044(3) 0.1809(2)
C27 C 0.0393(2) 0.1970(3) 0.2574(2)
H13 H 0.0730 0.1492 0.2673
C28 C 0.0308(2) 0.2603(3) 0.3215(2)
H14 H 0.0589 0.2541 0.3731
C29 C -0.0185(2) 0.3311(3) 0.3088(2)
C30 C -0.0553(2) 0.3467(3) 0.2268(2)
C31 C -0.04630(19) 0.2821(3) 0.1623(2)
C32 C -0.0810(2) 0.2994(3) 0.0799(2)
H15 H -0.0765 0.2576 0.0371
C33 C -0.1207(3) 0.3773(4) 0.0639(3)
H16 H -0.1427 0.3882 0.0098
C34 C -0.1288(3) 0.4406(3) 0.1267(3)
H17 H -0.1554 0.4936 0.1139
C35 C -0.0982(2) 0.4262(3) 0.2072(3)
H18 H -0.1054 0.4684 0.2491
C36 C -0.0366(2) 0.3866(3) 0.3825(2)
Gd1B Gd 0.621684(8) -0.024717(10) 0.004639(9)
Gd1C Gd 0.378316(8) 0.475283(10) -0.504639(9)
Gd1A Gd 0.621684(8) 0.524717(10) -0.495361(9)
Gd1C_2 Gd 0.378316(8) 0.475283(10) 0.495361(9)
Gd2C Gd 0.116458(8) 0.488071(11) 0.498820(9)
Gd2B Gd -0.116458(8) -0.011929(11) 0.001180(9)
Gd2A Gd -0.116458(8) 0.511929(11) 0.501180(9)
O2B O 0.42548(15) -0.1066(2) 0.06429(19)
O4C O 0.47129(16) 0.0708(2) 0.09826(18)
O6A O 0.40412(16) -0.0686(2) -0.11669(17)
O7C O 0.28888(14) 0.0701(2) -0.10983(15)
O8C O 0.16506(13) 0.04639(19) -0.13133(14)
O10B O 0.06371(15) -0.10142(19) -0.08769(16)
O11A O -0.01549(15) -0.0886(2) 0.06490(16)
O11C O 0.01549(15) 0.0886(2) -0.06490(16)
O12A O 0.10481(15) -0.0961(2) 0.10892(18)
N1 N 0.2345(4) -0.2684(4) 0.2711(4)
N2 N 0.3025(4) -0.1495(5) 0.2698(4)
C37 C 0.2845(4) -0.2683(7) 0.3408(5)
H19 H 0.2882 -0.3129 0.3822
C38 C 0.3246(5) -0.1986(6) 0.3404(5)
H20 H 0.3629 -0.1830 0.3812
C39 C 0.2469(4) -0.1940(5) 0.2280(4)
H21 H 0.2210 -0.1763 0.1775
C40 C 0.1794(5) -0.3376(6) 0.2499(6)
H22 H 0.1516 -0.3228 0.1974
H23 H 0.1453 -0.3418 0.2934
H24 H 0.2046 -0.3945 0.2446
C41 C 0.3310(5) -0.0613(6) 0.2391(6)
H25 H 0.2873 -0.0230 0.2252
H26 H 0.3538 -0.0731 0.1868
C42 C 0.3426(6) 0.0374(8) 0.3685(7)
H27 H 0.3039 0.0800 0.3476
H28 H 0.3216 -0.0069 0.4050
C43 C 0.3871(6) -0.0073(7) 0.2951(6)
H29 H 0.4097 0.0395 0.2626
H30 H 0.4271 -0.0464 0.3193
C44 C 0.4169(6) 0.0850(8) 0.4104(6)
H31 H 0.4595 0.0497 0.3943
H32 H 0.4202 0.1435 0.3835
C45 C 0.4298(7) 0.1012(9) 0.5072(6)
H33 H 0.4364 0.0440 0.5367
H34 H 0.4747 0.1377 0.5201
C46 C 0.3599(8) 0.1501(10) 0.5338(9)
H35 H 0.3673 0.1654 0.5925
H36 H 0.3166 0.1114 0.5245
H37 H 0.3519 0.2043 0.5011
C47? C 0.2173(8) -0.3202(10) 0.3061(7)
C48? C 0.2681(8) -0.2740(10) 0.3448(10)
C49? C 0.2534(6) -0.2098(8) 0.2215(7)
C50? C 0.1525(8) -0.3148(11) 0.1630(8)
C51? C 0.3495(7) -0.1462(9) 0.3280(9)
C52? C 0.3592(12) -0.0859(10) 0.2528(9)
C53? C 0.3328(11) -0.0005(12) 0.2968(11)
C54? C 0.3820(12) 0.0245(14) 0.3819(12)
C55? C 0.3483(11) 0.1008(14) 0.4323(12)
C56? C 0.4055(15) 0.1522(16) 0.4885(15)
H38? H 0.1921 -0.3700 0.3259
H39? H 0.2876 -0.2839 0.4000
H40? H 0.2574 -0.1718 0.1756
H41? H 0.1537 -0.2777 0.1137
H42? H 0.1028 -0.3128 0.1826
H43? H 0.1648 -0.3759 0.1495
H44? H 0.3958 -0.1785 0.3452
H45? H 0.3337 -0.1119 0.3754
H46? H 0.3262 -0.1025 0.2036
H47? H 0.4112 -0.0822 0.2387
H48? H 0.2806 -0.0088 0.3092
H49? H 0.3342 0.0500 0.2581
H50? H 0.3873 -0.0291 0.4170
H51? H 0.4322 0.0422 0.3683
H52? H 0.3223 0.1428 0.3932
H53? H 0.3110 0.0751 0.4667
H54? H 0.4436 0.1764 0.4554
H55? H 0.4287 0.1123 0.5307
H56? H 0.3808 0.2007 0.5154
N3? N 0.2072(6) -0.2812(6) 0.2286(7)
N4? N 0.2902(6) -0.2075(7) 0.2941(7)
loop_
_geom_bond_atom_site_label_1
_geom_bond_atom_site_label_2
_geom_bond_site_symmetry_1
_geom_bond_site_symmetry_2
Gd1 Cl1 1_555 1_555
Gd2 Cl1 1_555 1_555
O1 Gd1 1_555 1_555
O2 C1 1_555 1_555
O3 Gd1 1_555 1_555
O4 C12 1_555 1_555
O5 Gd2 1_555 1_555
O6 C12 1_555 1_555
O7 C24 1_555 1_555
O8 C24 1_555 1_555
O9 Gd2 1_555 1_555
O10 C25 1_555 1_555
O11 C36 1_555 1_555
O12 C36 1_555 1_555
C1 O1 1_555 1_555
C2 C1 1_555 1_555
C3 C2 1_555 1_555
H1 C3 1_555 1_555
C4 C3 1_555 1_555
H2 C4 1_555 1_555
C5 C4 1_555 1_555
C6 C5 1_555 1_555
C7 C2 1_555 1_555
C8 C7 1_555 1_555
H3 C8 1_555 1_555
C9 C8 1_555 1_555
H4 C9 1_555 1_555
C10 C9 1_555 1_555
H5 C10 1_555 1_555
C11 C6 1_555 1_555
H6 C11 1_555 1_555
C12 C5 1_555 1_555
C13 O3 1_555 1_555
C14 C13 1_555 1_555
C15 C14 1_555 1_555
H7 C15 1_555 1_555
C16 C15 1_555 1_555
H8 C16 1_555 1_555
C17 C16 1_555 1_555
C18 C17 1_555 1_555
C19 C14 1_555 1_555
C20 C19 1_555 1_555
H9 C20 1_555 1_555
C21 C20 1_555 1_555
H10 C21 1_555 1_555
C22 C21 1_555 1_555
H11 C22 1_555 1_555
C23 C18 1_555 1_555
H12 C23 1_555 1_555
C24 C17 1_555 1_555
C25 O9 1_555 1_555
C26 C25 1_555 1_555
C27 C26 1_555 1_555
H13 C27 1_555 1_555
C28 C27 1_555 1_555
H14 C28 1_555 1_555
C29 C28 1_555 1_555
C30 C29 1_555 1_555
C31 C26 1_555 1_555
C32 C31 1_555 1_555
H15 C32 1_555 1_555
C33 C32 1_555 1_555
H16 C33 1_555 1_555
C34 C33 1_555 1_555
H17 C34 1_555 1_555
C35 C30 1_555 1_555
H18 C35 1_555 1_555
C36 C29 1_555 1_555
N1 C37 1_555 1_555
N2 C38 1_555 1_555
C37 H19 1_555 1_555
C38 C37 1_555 1_555
H20 C38 1_555 1_555
C39 N1 1_555 1_555
H21 C39 1_555 1_555
C40 N1 1_555 1_555
H22 C40 1_555 1_555
H23 C40 1_555 1_555
H24 C40 1_555 1_555
C41 N2 1_555 1_555
H25 C41 1_555 1_555
H26 C41 1_555 1_555
C42 H27 1_555 1_555
H28 C42 1_555 1_555
C43 C41 1_555 1_555
H29 C43 1_555 1_555
H30 C43 1_555 1_555
C44 C42 1_555 1_555
H31 C44 1_555 1_555
H32 C44 1_555 1_555
C45 C44 1_555 1_555
H33 C45 1_555 1_555
H34 C45 1_555 1_555
C46 C45 1_555 1_555
H35 C46 1_555 1_555
H36 C46 1_555 1_555
H37 C46 1_555 1_555
Gd1B O2 1_555 1_555
Gd1C O4 1_555 1_555
Gd1A O6 1_555 1_555
Gd1C_2 O7 1_555 1_555
Gd2C O8 1_555 1_555
Gd2B O10 1_555 1_555
Gd2A O11 1_555 1_555
O2B Gd1 1_555 1_555
O4C Gd1 1_555 1_555
O6A Gd1 1_555 1_555
O7C Gd1 1_555 1_555
O8C Gd2 1_555 1_555
O10B Gd2 1_555 1_555
O11A Gd2 1_555 1_555
O11C Gd2 1_555 1_555
O12A Gd2 1_555 1_555
O5 C13 1_555 1_555
O11 Gd2C 1_555 1_555
O12 Gd2A 1_555 1_555
C6 C7 1_555 1_555
C10 C11 1_555 1_555
C18 C19 1_555 1_555
C22 C23 1_555 1_555
C30 C31 1_555 1_555
C34 C35 1_555 1_555
N2 C39 1_555 1_555
C42 C43 1_555 1_555
Gd2B O11A 1_555 1_555
Gd2B O11C 1_555 1_555

#END
