
#######################################################################
#
#                 Cambridge Crystallographic Data Centre
#                                CCDC 
#
#######################################################################
#
# If this CIF has been generated from an entry in the Cambridge 
# Structural Database, then it will include bibliographic, chemical, 
# crystal, experimental, refinement or atomic coordinate data resulting 
# from the CCDC's data processing and validation procedures.
#
#######################################################################

data_MEGPUL
_symmetry_cell_setting           monoclinic
_symmetry_space_group_name_H-M   'P 21/c'
_symmetry_Int_Tables_number      14
_space_group_name_Hall           '-P 2ybc'
loop_
_symmetry_equiv_pos_site_id
_symmetry_equiv_pos_as_xyz
1 x,y,z
2 -x,1/2+y,1/2-z
3 -x,-y,-z
4 x,1/2-y,1/2+z
_cell_length_a                   17.6908(5)
_cell_length_b                   14.8181(5)
_cell_length_c                   15.8924(5)
_cell_angle_alpha                90
_cell_angle_beta                 94.582(3)
_cell_angle_gamma                90
_cell_volume                     4152.78
loop_
_atom_site_label
_atom_site_type_symbol
_atom_site_fract_x
_atom_site_fract_y
_atom_site_fract_z
Tb1 Tb 0.378340(11) 0.024710(14) -0.004440(12)
Tb2 Tb 0.117106(11) 0.011779(14) -0.001262(12)
Cl1 Cl 0.25211(7) -0.08281(8) 0.02495(8)
O1 O 0.4500(2) 0.1229(3) -0.0777(2)
O2 O 0.5753(2) 0.1053(2) -0.0652(2)
O3 O 0.3153(2) 0.1289(3) 0.0736(2)
O4 O 0.4701(2) 0.4287(3) -0.4026(2)
O5 O 0.19270(19) 0.1337(2) 0.0315(2)
O6 O 0.5951(2) 0.4313(3) -0.3846(2)
O7 O 0.29041(19) 0.4298(2) 0.3902(2)
O8 O 0.16653(18) 0.4547(2) 0.36966(19)
O9 O 0.06161(19) 0.0866(2) 0.1104(2)
O10 O -0.06361(19) 0.1003(2) 0.0871(2)
O11 O 0.0187(2) 0.4098(3) 0.4353(2)
O12 O -0.1025(2) 0.4030(3) 0.3933(2)
C1 C 0.5153(3) 0.1425(3) -0.0949(3)
C2 C 0.5225(3) 0.2165(3) -0.1592(3)
C3 C 0.4719(3) 0.2144(4) -0.2287(3)
H1 H 0.4347 0.1699 -0.2333
C4 C 0.4752(3) 0.2786(4) -0.2935(3)
H2 H 0.4405 0.2757 -0.3405
C5 C 0.5290(3) 0.3454(3) -0.2885(3)
C6 C 0.5805(3) 0.3534(3) -0.2147(3)
C7 C 0.5779(3) 0.2866(3) -0.1504(3)
C8 C 0.6295(3) 0.2938(4) -0.0778(3)
H3 H 0.6298 0.2500 -0.0359
C9 C 0.6786(3) 0.3647(4) -0.0690(3)
H4 H 0.7117 0.3688 -0.0207
C10 C 0.6801(3) 0.4309(4) -0.1308(3)
H5 H 0.7137 0.4790 -0.1230
C11 C 0.6327(3) 0.4259(4) -0.2029(3)
H6 H 0.6346 0.4700 -0.2443
C12 C 0.5314(3) 0.4072(3) -0.3633(3)
C13 C 0.2497(3) 0.1611(3) 0.0771(3)
C14 C 0.2400(3) 0.2329(3) 0.1416(3)
C15 C 0.2832(3) 0.2255(4) 0.2164(3)
H7 H 0.3178 0.1782 0.2236
C16 C 0.2773(3) 0.2862(4) 0.2823(3)
H8 H 0.3080 0.2788 0.3321
C17 C 0.2267(2) 0.3574(3) 0.2752(3)
C18 C 0.1794(2) 0.3680(3) 0.1981(3)
C19 C 0.1875(3) 0.3066(3) 0.1302(3)
C20 C 0.1437(3) 0.3217(4) 0.0528(3)
H9 H 0.1483 0.2824 0.0079
C21 C 0.0947(3) 0.3930(4) 0.0432(3)
H10 H 0.0671 0.4025 -0.0083
C22 C 0.0861(3) 0.4516(4) 0.1105(3)
H11 H 0.0522 0.4995 0.1036
C23 C 0.1262(3) 0.4396(3) 0.1854(3)
H12 H 0.1190 0.4790 0.2297
C24 C 0.2277(3) 0.4195(3) 0.3508(3)
C25 C 0.0000(3) 0.1246(3) 0.1207(3)
C26 C -0.0008(3) 0.2028(3) 0.1807(3)
C27 C 0.0397(3) 0.1949(4) 0.2577(3)
H13 H 0.0730 0.1468 0.2673
C28 C 0.0316(3) 0.2581(4) 0.3223(3)
H14 H 0.0599 0.2517 0.3738
C29 C -0.0176(3) 0.3293(3) 0.3098(3)
C30 C -0.0547(3) 0.3456(3) 0.2279(3)
C31 C -0.0462(3) 0.2810(3) 0.1628(3)
C32 C -0.0811(3) 0.2988(4) 0.0805(3)
H15 H -0.0771 0.2569 0.0375
C33 C -0.1204(4) 0.3771(4) 0.0647(4)
H16 H -0.1424 0.3884 0.0106
C34 C -0.1280(3) 0.4405(4) 0.1287(4)
H17 H -0.1546 0.4938 0.1165
C35 C -0.0971(3) 0.4251(4) 0.2083(4)
H18 H -0.1039 0.4671 0.2505
C36 C -0.0347(3) 0.3854(3) 0.3842(3)
Tb1B Tb 0.621660(11) -0.024710(14) 0.004440(12)
Tb1C Tb 0.378340(11) 0.475290(14) -0.504440(12)
Tb1A Tb 0.621660(11) 0.524710(14) -0.495560(12)
Tb1C_2 Tb 0.378340(11) 0.475290(14) 0.495560(12)
Tb2C Tb 0.117106(11) 0.488221(14) 0.498738(12)
Tb2B Tb -0.117106(11) -0.011779(14) 0.001262(12)
Tb2A Tb -0.117106(11) 0.511779(14) 0.501262(12)
O2B O 0.4247(2) -0.1053(2) 0.0652(2)
O4C O 0.4701(2) 0.0713(3) 0.0974(2)
O6A O 0.4049(2) -0.0687(3) -0.1154(2)
O7C O 0.29041(19) 0.0702(2) -0.1098(2)
O8C O 0.16653(18) 0.0453(2) -0.13034(19)
O10B O 0.06361(19) -0.1003(2) -0.0871(2)
O11A O -0.0187(2) -0.0902(3) 0.0647(2)
O11C O 0.0187(2) 0.0902(3) -0.0647(2)
O12A O 0.1025(2) -0.0970(3) 0.1067(2)
N1 N 0.2341(5) -0.2679(6) 0.2708(6)
N2 N 0.3010(5) -0.1480(6) 0.2706(6)
C37 C 0.2826(6) -0.2699(10) 0.3402(7)
H19 H 0.2863 -0.3152 0.3808
C38 C 0.3233(7) -0.1973(8) 0.3402(6)
H20 H 0.3615 -0.1814 0.3811
C39 C 0.2459(6) -0.1930(6) 0.2284(6)
H21 H 0.2200 -0.1753 0.1779
C40 C 0.1781(6) -0.3378(8) 0.2471(8)
H22 H 0.1508 -0.3219 0.1946
H23 H 0.1433 -0.3429 0.2902
H24 H 0.2034 -0.3945 0.2411
C41 C 0.3290(6) -0.0590(8) 0.2409(7)
H25 H 0.2853 -0.0200 0.2308
H26 H 0.3492 -0.0692 0.1867
C42 C 0.3496(7) 0.0406(10) 0.3713(8)
H27 H 0.3257 -0.0025 0.4067
H28 H 0.3135 0.0869 0.3520
C43 C 0.3886(7) -0.0067(9) 0.2954(7)
H29 H 0.4114 0.0388 0.2616
H30 H 0.4282 -0.0473 0.3178
C44 C 0.4264(7) 0.0817(10) 0.4161(7)
H31 H 0.4672 0.0396 0.4079
H32 H 0.4377 0.1370 0.3871
C45 C 0.4278(8) 0.1029(11) 0.5126(7)
H33 H 0.4315 0.0471 0.5447
H34 H 0.4717 0.1397 0.5298
C46 C 0.3540(9) 0.1539(12) 0.5308(10)
H35 H 0.3568 0.1719 0.5890
H36 H 0.3111 0.1150 0.5191
H37 H 0.3485 0.2065 0.4956
C47? C 0.2163(9) -0.3218(11) 0.3052(9)
C48? C 0.2686(10) -0.2739(11) 0.3459(12)
C49? C 0.2533(7) -0.2106(9) 0.2234(9)
C50? C 0.1522(9) -0.3150(12) 0.1612(10)
C51? C 0.3500(9) -0.1418(11) 0.3262(10)
C52? C 0.3591(13) -0.0822(11) 0.2489(10)
C53? C 0.3341(12) -0.0029(14) 0.3020(12)
C54? C 0.3849(13) 0.0232(14) 0.3847(13)
C55? C 0.3551(11) 0.1060(14) 0.4319(13)
C56? C 0.4141(15) 0.1530(16) 0.4924(16)
H38? H 0.1910 -0.3719 0.3242
H39? H 0.2879 -0.2844 0.4012
H40? H 0.2573 -0.1724 0.1776
H41? H 0.1540 -0.2774 0.1122
H42? H 0.1020 -0.3134 0.1803
H43? H 0.1646 -0.3759 0.1471
H44? H 0.3971 -0.1723 0.3440
H45? H 0.3340 -0.1064 0.3730
H46? H 0.4108 -0.0776 0.2331
H47? H 0.3242 -0.0964 0.2005
H48? H 0.2835 -0.0161 0.3182
H49? H 0.3301 0.0500 0.2659
H50? H 0.3877 -0.0282 0.4227
H51? H 0.4360 0.0359 0.3698
H52? H 0.3351 0.1496 0.3904
H53? H 0.3134 0.0866 0.4636
H54? H 0.4532 0.1780 0.4609
H55? H 0.4360 0.1099 0.5324
H56? H 0.3902 0.2004 0.5217
N3? N 0.2071(7) -0.2818(7) 0.2287(9)
N4? N 0.2909(7) -0.2072(9) 0.2968(9)
loop_
_geom_bond_atom_site_label_1
_geom_bond_atom_site_label_2
_geom_bond_site_symmetry_1
_geom_bond_site_symmetry_2
Tb1 Cl1 1_555 1_555
Tb2 Cl1 1_555 1_555
O1 Tb1 1_555 1_555
O2 C1 1_555 1_555
O3 Tb1 1_555 1_555
O4 C12 1_555 1_555
O5 Tb2 1_555 1_555
O6 C12 1_555 1_555
O7 C24 1_555 1_555
O8 C24 1_555 1_555
O9 Tb2 1_555 1_555
O10 C25 1_555 1_555
O11 C36 1_555 1_555
O12 C36 1_555 1_555
C1 O1 1_555 1_555
C2 C1 1_555 1_555
C3 C2 1_555 1_555
H1 C3 1_555 1_555
C4 C3 1_555 1_555
H2 C4 1_555 1_555
C5 C4 1_555 1_555
C6 C5 1_555 1_555
C7 C2 1_555 1_555
C8 C7 1_555 1_555
H3 C8 1_555 1_555
C9 C8 1_555 1_555
H4 C9 1_555 1_555
C10 C9 1_555 1_555
H5 C10 1_555 1_555
C11 C6 1_555 1_555
H6 C11 1_555 1_555
C12 C5 1_555 1_555
C13 O3 1_555 1_555
C14 C13 1_555 1_555
C15 C14 1_555 1_555
H7 C15 1_555 1_555
C16 C15 1_555 1_555
H8 C16 1_555 1_555
C17 C16 1_555 1_555
C18 C17 1_555 1_555
C19 C14 1_555 1_555
C20 C19 1_555 1_555
H9 C20 1_555 1_555
C21 C20 1_555 1_555
H10 C21 1_555 1_555
C22 C21 1_555 1_555
H11 C22 1_555 1_555
C23 C18 1_555 1_555
H12 C23 1_555 1_555
C24 C17 1_555 1_555
C25 O9 1_555 1_555
C26 C25 1_555 1_555
C27 C26 1_555 1_555
H13 C27 1_555 1_555
C28 C27 1_555 1_555
H14 C28 1_555 1_555
C29 C28 1_555 1_555
C30 C29 1_555 1_555
C31 C26 1_555 1_555
C32 C31 1_555 1_555
H15 C32 1_555 1_555
C33 C32 1_555 1_555
H16 C33 1_555 1_555
C34 C33 1_555 1_555
H17 C34 1_555 1_555
C35 C30 1_555 1_555
H18 C35 1_555 1_555
C36 C29 1_555 1_555
N1 C37 1_555 1_555
N2 C38 1_555 1_555
C37 H19 1_555 1_555
C38 C37 1_555 1_555
H20 C38 1_555 1_555
C39 N1 1_555 1_555
H21 C39 1_555 1_555
C40 N1 1_555 1_555
H22 C40 1_555 1_555
H23 C40 1_555 1_555
H24 C40 1_555 1_555
C41 N2 1_555 1_555
H25 C41 1_555 1_555
H26 C41 1_555 1_555
C42 H27 1_555 1_555
H28 C42 1_555 1_555
C43 C41 1_555 1_555
H29 C43 1_555 1_555
H30 C43 1_555 1_555
C44 C42 1_555 1_555
H31 C44 1_555 1_555
H32 C44 1_555 1_555
C45 C44 1_555 1_555
H33 C45 1_555 1_555
H34 C45 1_555 1_555
C46 C45 1_555 1_555
H35 C46 1_555 1_555
H36 C46 1_555 1_555
H37 C46 1_555 1_555
Tb1B O2 1_555 1_555
Tb1C O4 1_555 1_555
Tb1A O6 1_555 1_555
Tb1C_2 O7 1_555 1_555
Tb2C O8 1_555 1_555
Tb2B O10 1_555 1_555
Tb2A O11 1_555 1_555
O2B Tb1 1_555 1_555
O4C Tb1 1_555 1_555
O6A Tb1 1_555 1_555
O7C Tb1 1_555 1_555
O8C Tb2 1_555 1_555
O10B Tb2 1_555 1_555
O11A Tb2 1_555 1_555
O11C Tb2 1_555 1_555
O12A Tb2 1_555 1_555
O5 C13 1_555 1_555
O11 Tb2C 1_555 1_555
O12 Tb2A 1_555 1_555
C6 C7 1_555 1_555
C10 C11 1_555 1_555
C18 C19 1_555 1_555
C22 C23 1_555 1_555
C30 C31 1_555 1_555
C34 C35 1_555 1_555
N2 C39 1_555 1_555
C42 C43 1_555 1_555
Tb2B O11A 1_555 1_555
Tb2B O11C 1_555 1_555

#END
