
#######################################################################
#
#                 Cambridge Crystallographic Data Centre
#                                CCDC 
#
#######################################################################
#
# If this CIF has been generated from an entry in the Cambridge 
# Structural Database, then it will include bibliographic, chemical, 
# crystal, experimental, refinement or atomic coordinate data resulting 
# from the CCDC's data processing and validation procedures.
#
#######################################################################

data_MEGPEV
_symmetry_cell_setting           monoclinic
_symmetry_space_group_name_H-M   'P 21/c'
_symmetry_Int_Tables_number      14
_space_group_name_Hall           '-P 2ybc'
loop_
_symmetry_equiv_pos_site_id
_symmetry_equiv_pos_as_xyz
1 x,y,z
2 -x,1/2+y,1/2-z
3 -x,-y,-z
4 x,1/2-y,1/2+z
_cell_length_a                   17.8177(4)
_cell_length_b                   14.8107(3)
_cell_length_c                   15.9935(4)
_cell_angle_alpha                90
_cell_angle_beta                 95.176(2)
_cell_angle_gamma                90
_cell_volume                     4203.36
loop_
_atom_site_label
_atom_site_type_symbol
_atom_site_fract_x
_atom_site_fract_y
_atom_site_fract_z
Sm1 Sm 0.378008(12) 0.024810(15) -0.005075(13)
Sm2 Sm 0.115786(12) 0.012169(15) -0.001149(14)
Cl1 Cl 0.25198(7) -0.08503(9) 0.02344(9)
O1 O 0.4492(2) 0.1269(3) -0.0775(3)
O2 O 0.5735(2) 0.1085(3) -0.0627(3)
O3 O 0.3152(2) 0.1309(3) 0.0739(3)
O4 O 0.4718(2) 0.4309(3) -0.4002(3)
O5 O 0.1936(2) 0.1358(2) 0.0303(2)
O6 O 0.5957(2) 0.4321(3) -0.3811(2)
O7 O 0.2867(2) 0.4302(3) 0.3891(2)
O8 O 0.1629(2) 0.4519(3) 0.3674(2)
O9 O 0.0621(2) 0.0927(3) 0.1102(2)
O10 O -0.0628(2) 0.1028(3) 0.0880(2)
O11 O 0.0115(2) 0.4133(3) 0.4347(2)
O12 O -0.1077(2) 0.4065(3) 0.3866(3)
C1 C 0.5143(3) 0.1462(3) -0.0929(3)
C2 C 0.5221(3) 0.2198(3) -0.1575(3)
C3 C 0.4715(3) 0.2181(4) -0.2269(4)
H1 H 0.4340 0.1742 -0.2318
C4 C 0.4759(3) 0.2826(4) -0.2915(3)
H2 H 0.4414 0.2801 -0.3387
C5 C 0.5294(3) 0.3481(3) -0.2861(3)
C6 C 0.5817(3) 0.3545(3) -0.2123(3)
C7 C 0.5782(3) 0.2884(3) -0.1484(3)
C8 C 0.6300(3) 0.2952(4) -0.0758(3)
H3 H 0.6293 0.2518 -0.0339
C9 C 0.6808(3) 0.3640(4) -0.0664(4)
H4 H 0.7143 0.3673 -0.0184
C10 C 0.6824(3) 0.4304(4) -0.1295(4)
H5 H 0.7167 0.4777 -0.1225
C11 C 0.6345(3) 0.4259(4) -0.2004(3)
H6 H 0.6363 0.4702 -0.2414
C12 C 0.5328(3) 0.4085(4) -0.3610(3)
C13 C 0.2500(3) 0.1629(4) 0.0760(3)
C14 C 0.2396(3) 0.2347(4) 0.1406(3)
C15 C 0.2827(3) 0.2278(4) 0.2155(4)
H7 H 0.3174 0.1809 0.2229
C16 C 0.2765(3) 0.2887(4) 0.2814(4)
H8 H 0.3075 0.2823 0.3310
C17 C 0.2254(3) 0.3573(3) 0.2736(3)
C18 C 0.1779(3) 0.3681(3) 0.1972(3)
C19 C 0.1866(3) 0.3068(3) 0.1284(3)
C20 C 0.1434(3) 0.3228(4) 0.0516(3)
H9 H 0.1489 0.2847 0.0064
C21 C 0.0938(4) 0.3926(4) 0.0421(4)
H10 H 0.0661 0.4015 -0.0094
C22 C 0.0841(3) 0.4508(4) 0.1088(4)
H11 H 0.0500 0.4983 0.1016
C23 C 0.1243(3) 0.4387(3) 0.1843(3)
H12 H 0.1165 0.4775 0.2284
C24 C 0.2243(3) 0.4186(3) 0.3495(3)
C25 C 0.0001(3) 0.1284(4) 0.1216(3)
C26 C -0.0006(3) 0.2068(4) 0.1807(3)
C27 C 0.0385(3) 0.1997(4) 0.2574(4)
H13 H 0.0721 0.1521 0.2680
C28 C 0.0288(3) 0.2635(4) 0.3216(3)
H14 H 0.0562 0.2577 0.3736
C29 C -0.0200(3) 0.3327(4) 0.3073(3)
C30 C -0.0560(3) 0.3486(4) 0.2253(3)
C31 C -0.0469(3) 0.2840(4) 0.1604(3)
C32 C -0.0811(4) 0.3007(4) 0.0790(4)
H15 H -0.0767 0.2582 0.0369
C33 C -0.1204(4) 0.3777(5) 0.0611(4)
H16 H -0.1414 0.3885 0.0067
C34 C -0.1295(4) 0.4411(5) 0.1243(5)
H17 H -0.1569 0.4934 0.1113
C35 C -0.0992(4) 0.4275(4) 0.2043(4)
H18 H -0.1066 0.4701 0.2456
C36 C -0.0398(3) 0.3887(4) 0.3803(3)
Sm1B Sm 0.621992(12) -0.024810(15) 0.005075(13)
Sm1C Sm 0.378008(12) 0.475190(15) -0.505075(13)
Sm1A Sm 0.621992(12) 0.524810(15) -0.494925(13)
Sm1C_2 Sm 0.378008(12) 0.475190(15) 0.494925(13)
Sm2C Sm 0.115786(12) 0.487831(15) 0.498851(14)
Sm2B Sm -0.115786(12) -0.012169(15) 0.001149(14)
Sm2A Sm -0.115786(12) 0.512169(15) 0.501149(14)
O2B O 0.4265(2) -0.1085(3) 0.0627(3)
O4C O 0.4718(2) 0.0691(3) 0.0998(3)
O6A O 0.4043(2) -0.0679(3) -0.1189(2)
O7C O 0.2867(2) 0.0698(3) -0.1109(2)
O8C O 0.1629(2) 0.0481(3) -0.1326(2)
O10B O 0.0628(2) -0.1028(3) -0.0880(2)
O11A O -0.0115(2) -0.0867(3) 0.0653(2)
O11C O 0.0115(2) 0.0867(3) -0.0653(2)
O12A O 0.1077(2) -0.0935(3) 0.1134(3)
N1 N 0.2364(8) -0.2677(8) 0.2794(7)
N2 N 0.3046(10) -0.1470(10) 0.2685(10)
C37 C 0.2867(8) -0.2662(9) 0.3464(8)
H19 H 0.2912 -0.3077 0.3903
C38 C 0.3326(9) -0.1881(10) 0.3373(8)
H20 H 0.3739 -0.1699 0.3729
C39 C 0.2525(12) -0.2034(12) 0.2276(12)
H21 H 0.2320 -0.1971 0.1723
C40 C 0.1810(8) -0.3377(9) 0.2564(10)
H22 H 0.1376 -0.3112 0.2259
H23 H 0.1663 -0.3662 0.3062
H24 H 0.2026 -0.3819 0.2218
C41 C 0.3274(10) -0.0583(10) 0.2352(10)
H25 H 0.2842 -0.0183 0.2282
H26 H 0.3467 -0.0664 0.1809
C42 C 0.3316(10) 0.0268(13) 0.3556(12)
H27 H 0.2874 0.0487 0.3217
H28 H 0.3156 -0.0177 0.3948
C43 C 0.3888(10) -0.0169(13) 0.2977(11)
H29 H 0.4193 0.0276 0.2720
H30 H 0.4207 -0.0622 0.3267
C44 C 0.3727(13) 0.1069(11) 0.4042(10)
H31 H 0.4006 0.1405 0.3652
H32 H 0.3348 0.1471 0.4233
C45 C 0.4271(11) 0.0808(15) 0.4801(12)
H33 H 0.4781 0.0922 0.4663
H34 H 0.4226 0.0164 0.4894
C46 C 0.4153(17) 0.1302(18) 0.5628(11)
H35 H 0.4494 0.1062 0.6072
H36 H 0.3643 0.1215 0.5762
H37 H 0.4248 0.1935 0.5564
C47? C 0.2572(13) -0.2854(13) 0.3285(12)
C48? C 0.3133(14) -0.2163(15) 0.3415(12)
C49? C 0.2466(19) -0.1932(18) 0.2234(18)
C50? C 0.1680(12) -0.3193(15) 0.2003(13)
C51? C 0.3559(13) -0.0866(13) 0.2521(17)
C52? C 0.352(2) 0.0102(16) 0.2870(14)
C53? C 0.3873(15) 0.030(2) 0.3784(15)
C54? C 0.3345(14) 0.077(2) 0.4377(16)
C55? C 0.3677(17) 0.149(2) 0.500(2)
C56? C 0.4545(17) 0.146(3) 0.520(2)
H38? H 0.2455 -0.3302 0.3659
H39? H 0.3466 -0.2086 0.3892
H40? H 0.2233 -0.1618 0.1778
H41? H 0.1606 -0.2913 0.1460
H42? H 0.1218 -0.3176 0.2268
H43? H 0.1833 -0.3809 0.1940
H44? H 0.3481 -0.0806 0.1916
H45? H 0.4078 -0.1057 0.2644
H46? H 0.2997 0.0277 0.2837
H47? H 0.3768 0.0497 0.2494
H48? H 0.4044 -0.0263 0.4040
H49? H 0.4313 0.0682 0.3750
H50? H 0.2936 0.1051 0.4027
H51? H 0.3124 0.0302 0.4700
H52? H 0.3444 0.1421 0.5519
H53? H 0.3541 0.2079 0.4772
H54? H 0.4784 0.1519 0.4686
H55? H 0.4686 0.0889 0.5457
H56? H 0.4701 0.1940 0.5572
N3? N 0.2256(12) -0.2714(12) 0.2512(11)
N4? N 0.3090(15) -0.1655(15) 0.2736(15)
loop_
_geom_bond_atom_site_label_1
_geom_bond_atom_site_label_2
_geom_bond_site_symmetry_1
_geom_bond_site_symmetry_2
Sm1 Cl1 1_555 1_555
Sm2 Cl1 1_555 1_555
O1 Sm1 1_555 1_555
O2 C1 1_555 1_555
O3 Sm1 1_555 1_555
O4 C12 1_555 1_555
O5 Sm2 1_555 1_555
O6 C12 1_555 1_555
O7 C24 1_555 1_555
O8 C24 1_555 1_555
O9 Sm2 1_555 1_555
O10 C25 1_555 1_555
O11 C36 1_555 1_555
O12 C36 1_555 1_555
C1 O1 1_555 1_555
C2 C1 1_555 1_555
C3 C2 1_555 1_555
H1 C3 1_555 1_555
C4 C3 1_555 1_555
H2 C4 1_555 1_555
C5 C4 1_555 1_555
C6 C5 1_555 1_555
C7 C2 1_555 1_555
C8 C7 1_555 1_555
H3 C8 1_555 1_555
C9 C8 1_555 1_555
H4 C9 1_555 1_555
C10 C9 1_555 1_555
H5 C10 1_555 1_555
C11 C6 1_555 1_555
H6 C11 1_555 1_555
C12 C5 1_555 1_555
C13 O3 1_555 1_555
C14 C13 1_555 1_555
C15 C14 1_555 1_555
H7 C15 1_555 1_555
C16 C15 1_555 1_555
H8 C16 1_555 1_555
C17 C16 1_555 1_555
C18 C17 1_555 1_555
C19 C14 1_555 1_555
C20 C19 1_555 1_555
H9 C20 1_555 1_555
C21 C20 1_555 1_555
H10 C21 1_555 1_555
C22 C21 1_555 1_555
H11 C22 1_555 1_555
C23 C18 1_555 1_555
H12 C23 1_555 1_555
C24 C17 1_555 1_555
C25 O9 1_555 1_555
C26 C25 1_555 1_555
C27 C26 1_555 1_555
H13 C27 1_555 1_555
C28 C27 1_555 1_555
H14 C28 1_555 1_555
C29 C28 1_555 1_555
C30 C29 1_555 1_555
C31 C26 1_555 1_555
C32 C31 1_555 1_555
H15 C32 1_555 1_555
C33 C32 1_555 1_555
H16 C33 1_555 1_555
C34 C33 1_555 1_555
H17 C34 1_555 1_555
C35 C30 1_555 1_555
H18 C35 1_555 1_555
C36 C29 1_555 1_555
N1 C37 1_555 1_555
N2 C38 1_555 1_555
C37 H19 1_555 1_555
C38 C37 1_555 1_555
H20 C38 1_555 1_555
C39 N1 1_555 1_555
H21 C39 1_555 1_555
C40 N1 1_555 1_555
H22 C40 1_555 1_555
H23 C40 1_555 1_555
H24 C40 1_555 1_555
C41 N2 1_555 1_555
H25 C41 1_555 1_555
H26 C41 1_555 1_555
C42 H27 1_555 1_555
H28 C42 1_555 1_555
C43 C41 1_555 1_555
H29 C43 1_555 1_555
H30 C43 1_555 1_555
C44 C42 1_555 1_555
H31 C44 1_555 1_555
H32 C44 1_555 1_555
C45 C44 1_555 1_555
H33 C45 1_555 1_555
H34 C45 1_555 1_555
C46 C45 1_555 1_555
H35 C46 1_555 1_555
H36 C46 1_555 1_555
H37 C46 1_555 1_555
Sm1B O2 1_555 1_555
Sm1C O4 1_555 1_555
Sm1A O6 1_555 1_555
Sm1C_2 O7 1_555 1_555
Sm2C O8 1_555 1_555
Sm2B O10 1_555 1_555
Sm2A O11 1_555 1_555
O2B Sm1 1_555 1_555
O4C Sm1 1_555 1_555
O6A Sm1 1_555 1_555
O7C Sm1 1_555 1_555
O8C Sm2 1_555 1_555
O10B Sm2 1_555 1_555
O11A Sm2 1_555 1_555
O11C Sm2 1_555 1_555
O12A Sm2 1_555 1_555
O5 C13 1_555 1_555
O11 Sm2C 1_555 1_555
O12 Sm2A 1_555 1_555
C6 C7 1_555 1_555
C10 C11 1_555 1_555
C18 C19 1_555 1_555
C22 C23 1_555 1_555
C30 C31 1_555 1_555
C34 C35 1_555 1_555
N2 C39 1_555 1_555
C42 C43 1_555 1_555
Sm2B O11A 1_555 1_555
Sm2B O11C 1_555 1_555

#END
