
#######################################################################
#
#                 Cambridge Crystallographic Data Centre
#                                CCDC 
#
#######################################################################
#
# If this CIF has been generated from an entry in the Cambridge 
# Structural Database, then it will include bibliographic, chemical, 
# crystal, experimental, refinement or atomic coordinate data resulting 
# from the CCDC's data processing and validation procedures.
#
#######################################################################

data_MEGQEW
_symmetry_cell_setting           monoclinic
_symmetry_space_group_name_H-M   'P 21/c'
_symmetry_Int_Tables_number      14
_space_group_name_Hall           '-P 2ybc'
loop_
_symmetry_equiv_pos_site_id
_symmetry_equiv_pos_as_xyz
1 x,y,z
2 -x,1/2+y,1/2-z
3 -x,-y,-z
4 x,1/2-y,1/2+z
_cell_length_a                   17.6148(5)
_cell_length_b                   14.7818(5)
_cell_length_c                   15.8066(5)
_cell_angle_alpha                90
_cell_angle_beta                 94.043(3)
_cell_angle_gamma                90
_cell_volume                     4105.46
loop_
_atom_site_label
_atom_site_type_symbol
_atom_site_fract_x
_atom_site_fract_y
_atom_site_fract_z
Ho1 Ho 0.378560(14) 0.024631(18) -0.004114(16)
Ho2 Ho 0.117714(14) 0.011582(18) -0.001410(16)
Cl1 Cl 0.25239(8) -0.08141(11) 0.02619(11)
O1 O 0.4507(3) 0.1208(3) -0.0771(3)
O2 O 0.5765(2) 0.1038(3) -0.0660(3)
O3 O 0.3152(3) 0.1278(4) 0.0731(3)
O4 O 0.4683(3) 0.4273(4) -0.4032(3)
O5 O 0.1921(2) 0.1325(3) 0.0320(3)
O6 O 0.5944(3) 0.4307(4) -0.3875(3)
O7 O 0.2924(2) 0.4292(3) 0.3906(3)
O8 O 0.1683(2) 0.4569(3) 0.3708(2)
O9 O 0.0616(2) 0.0837(3) 0.1105(3)
O10 O -0.0641(2) 0.0991(3) 0.0870(3)
O11 O 0.0219(3) 0.4077(3) 0.4355(3)
O12 O -0.1001(3) 0.4013(3) 0.3966(3)
C1 C 0.5159(4) 0.1406(4) -0.0951(4)
C2 C 0.5224(3) 0.2145(4) -0.1594(4)
C3 C 0.4721(4) 0.2124(5) -0.2299(4)
H1 H 0.4352 0.1673 -0.2347
C4 C 0.4754(4) 0.2774(5) -0.2951(4)
H2 H 0.4409 0.2743 -0.3424
C5 C 0.5287(3) 0.3449(5) -0.2897(4)
C6 C 0.5803(3) 0.3523(4) -0.2161(4)
C7 C 0.5784(3) 0.2854(4) -0.1513(4)
C8 C 0.6295(4) 0.2931(5) -0.0781(4)
H3 H 0.6300 0.2489 -0.0362
C9 C 0.6780(4) 0.3654(5) -0.0690(5)
H4 H 0.7105 0.3705 -0.0202
C10 C 0.6792(4) 0.4308(5) -0.1313(5)
H5 H 0.7128 0.4791 -0.1239
C11 C 0.6315(4) 0.4258(5) -0.2042(4)
H6 H 0.6329 0.4706 -0.2454
C12 C 0.5305(4) 0.4068(5) -0.3650(4)
C13 C 0.2489(3) 0.1595(5) 0.0771(4)
C14 C 0.2402(3) 0.2323(4) 0.1414(4)
C15 C 0.2830(4) 0.2235(5) 0.2168(5)
H7 H 0.3161 0.1748 0.2243
C16 C 0.2782(4) 0.2855(5) 0.2824(4)
H8 H 0.3096 0.2786 0.3318
C17 C 0.2276(3) 0.3575(4) 0.2757(4)
C18 C 0.1806(3) 0.3680(4) 0.1986(4)
C19 C 0.1877(3) 0.3059(4) 0.1309(4)
C20 C 0.1441(4) 0.3215(5) 0.0528(4)
H9 H 0.1489 0.2823 0.0074
C21 C 0.0956(4) 0.3927(5) 0.0438(4)
H10 H 0.0675 0.4019 -0.0075
C22 C 0.0880(4) 0.4518(5) 0.1108(4)
H11 H 0.0549 0.5006 0.1037
C23 C 0.1273(3) 0.4400(4) 0.1857(4)
H12 H 0.1197 0.4796 0.2300
C24 C 0.2285(3) 0.4196(4) 0.3521(4)
C25 C -0.0005(4) 0.1224(5) 0.1201(4)
C26 C -0.0004(3) 0.2007(4) 0.1803(4)
C27 C 0.0403(4) 0.1917(5) 0.2579(4)
H13 H 0.0727 0.1425 0.2675
C28 C 0.0333(4) 0.2558(5) 0.3220(4)
H14 H 0.0623 0.2496 0.3732
C29 C -0.0157(3) 0.3278(4) 0.3104(4)
C30 C -0.0534(3) 0.3437(4) 0.2291(4)
C31 C -0.0455(3) 0.2794(4) 0.1636(4)
C32 C -0.0809(4) 0.2971(5) 0.0815(4)
H15 H -0.0772 0.2553 0.0380
C33 C -0.1205(5) 0.3759(6) 0.0671(5)
H16 H -0.1429 0.3873 0.0132
C34 C -0.1281(4) 0.4393(6) 0.1309(5)
H17 H -0.1551 0.4924 0.1192
C35 C -0.0958(4) 0.4234(5) 0.2107(5)
H18 H -0.1019 0.4655 0.2534
C36 C -0.0314(4) 0.3833(4) 0.3855(4)
Ho1B Ho 0.621440(14) -0.024631(18) 0.004114(16)
Ho1C Ho 0.378560(14) 0.475369(18) -0.504114(16)
Ho1A Ho 0.621440(14) 0.524631(18) -0.495886(16)
Ho1C_2 Ho 0.378560(14) 0.475369(18) 0.495886(16)
Ho2C Ho 0.117714(14) 0.488418(18) 0.498590(16)
Ho2B Ho -0.117714(14) -0.011582(18) 0.001410(16)
Ho2A Ho -0.117714(14) 0.511582(18) 0.501410(16)
O2B O 0.4235(2) -0.1038(3) 0.0660(3)
O4C O 0.4683(3) 0.0727(4) 0.0968(3)
O6A O 0.4056(3) -0.0693(4) -0.1125(3)
O7C O 0.2924(2) 0.0708(3) -0.1094(3)
O8C O 0.1683(2) 0.0431(3) -0.1292(2)
O10B O 0.0641(2) -0.0991(3) -0.0870(3)
O11A O -0.0219(3) -0.0923(3) 0.0645(3)
O11C O 0.0219(3) 0.0923(3) -0.0645(3)
O12A O 0.1001(3) -0.0987(3) 0.1034(3)
N1 N 0.2334(8) -0.2687(9) 0.2704(8)
N2 N 0.2996(7) -0.1469(9) 0.2714(8)
C37 C 0.2824(9) -0.2710(14) 0.3403(10)
H19 H 0.2868 -0.3168 0.3807
C38 C 0.3210(10) -0.1989(11) 0.3401(9)
H20 H 0.3590 -0.1835 0.3813
C39 C 0.2443(8) -0.1920(8) 0.2280(8)
H21 H 0.2182 -0.1736 0.1777
C40 C 0.1793(9) -0.3398(11) 0.2482(11)
H22 H 0.1514 -0.3250 0.1957
H23 H 0.1446 -0.3457 0.2921
H24 H 0.2059 -0.3958 0.2422
C41 C 0.3279(8) -0.0593(10) 0.2456(10)
H25 H 0.2836 -0.0204 0.2377
H26 H 0.3463 -0.0682 0.1899
C42 C 0.3591(9) 0.0538(14) 0.3708(10)
H27 H 0.3305 0.1062 0.3496
H28 H 0.3273 0.0177 0.4054
C43 C 0.3889(10) -0.0037(12) 0.2959(10)
H29 H 0.4122 0.0370 0.2571
H30 H 0.4282 -0.0444 0.3190
C44 C 0.4355(9) 0.0826(13) 0.4219(9)
H31 H 0.4712 0.0329 0.4197
H32 H 0.4567 0.1335 0.3929
C45 C 0.4302(9) 0.1093(15) 0.5165(9)
H33 H 0.4725 0.1487 0.5339
H34 H 0.4344 0.0552 0.5513
C46 C 0.3543(10) 0.1584(15) 0.5319(12)
H35 H 0.3550 0.1776 0.5900
H36 H 0.3124 0.1176 0.5199
H37 H 0.3485 0.2101 0.4954
C47? C 0.2174(12) -0.3222(14) 0.3077(11)
C48? C 0.2684(12) -0.2747(14) 0.3461(15)
C49? C 0.2554(9) -0.2094(11) 0.2238(11)
C50? C 0.1553(11) -0.3134(15) 0.1636(12)
C51? C 0.3509(10) -0.1431(13) 0.3279(12)
C52? C 0.3595(15) -0.0837(13) 0.2500(11)
C53? C 0.3296(13) -0.0093(16) 0.3068(13)
C54? C 0.3782(14) 0.0194(15) 0.3889(14)
C55? C 0.3489(12) 0.1009(15) 0.4386(15)
C56? C 0.4091(16) 0.1590(17) 0.4869(18)
H38? H 0.1920 -0.3723 0.3271
H39? H 0.2871 -0.2857 0.4016
H40? H 0.2597 -0.1712 0.1776
H41? H 0.1576 -0.2752 0.1147
H42? H 0.1048 -0.3119 0.1828
H43? H 0.1679 -0.3743 0.1489
H44? H 0.3982 -0.1737 0.3451
H45? H 0.3348 -0.1077 0.3751
H46? H 0.4116 -0.0752 0.2351
H47? H 0.3258 -0.0991 0.2009
H48? H 0.2802 -0.0287 0.3237
H49? H 0.3211 0.0444 0.2721
H50? H 0.3821 -0.0322 0.4268
H51? H 0.4292 0.0334 0.3733
H52? H 0.3196 0.1396 0.3989
H53? H 0.3144 0.0783 0.4788
H54? H 0.4450 0.1803 0.4485
H55? H 0.4351 0.1235 0.5308
H56? H 0.3850 0.2097 0.5118
N3? N 0.2092(8) -0.2813(9) 0.2307(12)
N4? N 0.2929(9) -0.2065(11) 0.2984(12)
loop_
_geom_bond_atom_site_label_1
_geom_bond_atom_site_label_2
_geom_bond_site_symmetry_1
_geom_bond_site_symmetry_2
Ho1 Cl1 1_555 1_555
Ho2 Cl1 1_555 1_555
O1 Ho1 1_555 1_555
O2 C1 1_555 1_555
O3 Ho1 1_555 1_555
O4 C12 1_555 1_555
O5 Ho2 1_555 1_555
O6 C12 1_555 1_555
O7 C24 1_555 1_555
O8 C24 1_555 1_555
O9 Ho2 1_555 1_555
O10 C25 1_555 1_555
O11 C36 1_555 1_555
O12 C36 1_555 1_555
C1 O1 1_555 1_555
C2 C1 1_555 1_555
C3 C2 1_555 1_555
H1 C3 1_555 1_555
C4 C3 1_555 1_555
H2 C4 1_555 1_555
C5 C4 1_555 1_555
C6 C5 1_555 1_555
C7 C2 1_555 1_555
C8 C7 1_555 1_555
H3 C8 1_555 1_555
C9 C8 1_555 1_555
H4 C9 1_555 1_555
C10 C9 1_555 1_555
H5 C10 1_555 1_555
C11 C6 1_555 1_555
H6 C11 1_555 1_555
C12 C5 1_555 1_555
C13 O3 1_555 1_555
C14 C13 1_555 1_555
C15 C14 1_555 1_555
H7 C15 1_555 1_555
C16 C15 1_555 1_555
H8 C16 1_555 1_555
C17 C16 1_555 1_555
C18 C17 1_555 1_555
C19 C14 1_555 1_555
C20 C19 1_555 1_555
H9 C20 1_555 1_555
C21 C20 1_555 1_555
H10 C21 1_555 1_555
C22 C21 1_555 1_555
H11 C22 1_555 1_555
C23 C18 1_555 1_555
H12 C23 1_555 1_555
C24 C17 1_555 1_555
C25 O9 1_555 1_555
C26 C25 1_555 1_555
C27 C26 1_555 1_555
H13 C27 1_555 1_555
C28 C27 1_555 1_555
H14 C28 1_555 1_555
C29 C28 1_555 1_555
C30 C29 1_555 1_555
C31 C26 1_555 1_555
C32 C31 1_555 1_555
H15 C32 1_555 1_555
C33 C32 1_555 1_555
H16 C33 1_555 1_555
C34 C33 1_555 1_555
H17 C34 1_555 1_555
C35 C30 1_555 1_555
H18 C35 1_555 1_555
C36 C29 1_555 1_555
N1 C37 1_555 1_555
N2 C38 1_555 1_555
C37 H19 1_555 1_555
C38 C37 1_555 1_555
H20 C38 1_555 1_555
C39 N1 1_555 1_555
H21 C39 1_555 1_555
C40 N1 1_555 1_555
H22 C40 1_555 1_555
H23 C40 1_555 1_555
H24 C40 1_555 1_555
C41 N2 1_555 1_555
H25 C41 1_555 1_555
H26 C41 1_555 1_555
C42 H27 1_555 1_555
H28 C42 1_555 1_555
C43 C41 1_555 1_555
H29 C43 1_555 1_555
H30 C43 1_555 1_555
C44 C42 1_555 1_555
H31 C44 1_555 1_555
H32 C44 1_555 1_555
C45 C44 1_555 1_555
H33 C45 1_555 1_555
H34 C45 1_555 1_555
C46 C45 1_555 1_555
H35 C46 1_555 1_555
H36 C46 1_555 1_555
H37 C46 1_555 1_555
Ho1B O2 1_555 1_555
Ho1C O4 1_555 1_555
Ho1A O6 1_555 1_555
Ho1C_2 O7 1_555 1_555
Ho2C O8 1_555 1_555
Ho2B O10 1_555 1_555
Ho2A O11 1_555 1_555
O2B Ho1 1_555 1_555
O4C Ho1 1_555 1_555
O6A Ho1 1_555 1_555
O7C Ho1 1_555 1_555
O8C Ho2 1_555 1_555
O10B Ho2 1_555 1_555
O11A Ho2 1_555 1_555
O11C Ho2 1_555 1_555
O12A Ho2 1_555 1_555
O5 C13 1_555 1_555
O11 Ho2C 1_555 1_555
O12 Ho2A 1_555 1_555
C6 C7 1_555 1_555
C10 C11 1_555 1_555
C18 C19 1_555 1_555
C22 C23 1_555 1_555
C30 C31 1_555 1_555
C34 C35 1_555 1_555
N2 C39 1_555 1_555
C42 C43 1_555 1_555
Ho2B O11A 1_555 1_555
Ho2B O11C 1_555 1_555

#END
