
#######################################################################
#
#                 Cambridge Crystallographic Data Centre
#                                CCDC 
#
#######################################################################
#
# If this CIF has been generated from an entry in the Cambridge 
# Structural Database, then it will include bibliographic, chemical, 
# crystal, experimental, refinement or atomic coordinate data resulting 
# from the CCDC's data processing and validation procedures.
#
#######################################################################

data_MEGQOG
_symmetry_cell_setting           monoclinic
_symmetry_space_group_name_H-M   'P 21/c'
_symmetry_Int_Tables_number      14
_space_group_name_Hall           '-P 2ybc'
loop_
_symmetry_equiv_pos_site_id
_symmetry_equiv_pos_as_xyz
1 x,y,z
2 -x,1/2+y,1/2-z
3 -x,-y,-z
4 x,1/2-y,1/2+z
_cell_length_a                   17.6892(3)
_cell_length_b                   14.7676(4)
_cell_length_c                   15.8400(4)
_cell_angle_alpha                90
_cell_angle_beta                 94.1242(19)
_cell_angle_gamma                90
_cell_volume                     4127.12
loop_
_atom_site_label
_atom_site_type_symbol
_atom_site_fract_x
_atom_site_fract_y
_atom_site_fract_z
Y1 Y 0.37866(2) 0.02467(3) -0.00389(3)
Y2 Y 0.11774(2) 0.01193(3) -0.00136(3)
Cl1 Cl 0.25234(5) -0.08147(8) 0.02692(8)
O1 O 0.45068(15) 0.1202(2) -0.0777(2)
O2 O 0.57641(15) 0.1030(2) -0.0672(2)
O3 O 0.31568(15) 0.1278(2) 0.0734(2)
O4 O 0.46850(17) 0.4266(3) -0.4040(2)
O5 O 0.19248(15) 0.1324(2) 0.0329(2)
O6 O 0.59417(16) 0.4301(3) -0.3882(2)
O7 O 0.29285(14) 0.4291(2) 0.39158(19)
O8 O 0.16853(14) 0.4564(2) 0.37114(18)
O9 O 0.06125(15) 0.0839(2) 0.10973(19)
O10 O -0.06494(15) 0.0994(2) 0.08571(19)
O11 O 0.02303(16) 0.4071(2) 0.4353(2)
O12 O -0.09926(15) 0.4023(2) 0.3970(2)
C1 C 0.5161(2) 0.1411(3) -0.0962(3)
C2 C 0.5222(2) 0.2144(3) -0.1608(3)
C3 C 0.4722(2) 0.2123(3) -0.2306(3)
H1 H 0.4352 0.1675 -0.2350
C4 C 0.4754(2) 0.2759(4) -0.2955(3)
H2 H 0.4411 0.2721 -0.3428
C5 C 0.5284(2) 0.3438(3) -0.2905(3)
C6 C 0.5798(2) 0.3511(3) -0.2177(3)
C7 C 0.5776(2) 0.2848(3) -0.1523(3)
C8 C 0.6282(2) 0.2940(4) -0.0793(3)
H3 H 0.6282 0.2507 -0.0367
C9 C 0.6768(3) 0.3656(4) -0.0707(3)
H4 H 0.7100 0.3702 -0.0226
C10 C 0.6774(2) 0.4320(4) -0.1332(3)
H5 H 0.7098 0.4814 -0.1257
C11 C 0.6312(2) 0.4254(3) -0.2047(3)
H6 H 0.6330 0.4698 -0.2462
C12 C 0.5309(2) 0.4051(3) -0.3660(3)
C13 C 0.2498(2) 0.1598(3) 0.0777(3)
C14 C 0.2405(2) 0.2324(3) 0.1419(3)
C15 C 0.2832(2) 0.2244(4) 0.2174(3)
H7 H 0.3168 0.1761 0.2249
C16 C 0.2781(2) 0.2861(3) 0.2828(3)
H8 H 0.3090 0.2791 0.3323
C17 C 0.2279(2) 0.3576(3) 0.2757(3)
C18 C 0.1807(2) 0.3675(3) 0.1997(3)
C19 C 0.1874(2) 0.3060(3) 0.1317(3)
C20 C 0.1446(2) 0.3212(3) 0.0540(3)
H9 H 0.1498 0.2825 0.0085
C21 C 0.0957(2) 0.3929(4) 0.0457(3)
H10 H 0.0678 0.4022 -0.0056
C22 C 0.0868(2) 0.4521(4) 0.1126(3)
H11 H 0.0529 0.5001 0.1057
C23 C 0.1274(2) 0.4403(3) 0.1879(3)
H12 H 0.1205 0.4800 0.2323
C24 C 0.2293(2) 0.4193(3) 0.3515(3)
C25 C -0.0002(2) 0.1230(3) 0.1204(3)
C26 C -0.0009(2) 0.2009(3) 0.1812(3)
C27 C 0.0400(2) 0.1927(4) 0.2572(3)
H13 H 0.0733 0.1443 0.2662
C28 C 0.0329(2) 0.2558(3) 0.3216(3)
H14 H 0.0617 0.2493 0.3727
C29 C -0.0163(2) 0.3273(3) 0.3101(3)
C30 C -0.0536(2) 0.3437(3) 0.2291(3)
C31 C -0.0463(2) 0.2793(3) 0.1641(3)
C32 C -0.0814(3) 0.2986(4) 0.0826(3)
H15 H -0.0781 0.2570 0.0389
C33 C -0.1200(3) 0.3774(4) 0.0679(4)
H16 H -0.1417 0.3894 0.0139
C34 C -0.1274(3) 0.4400(4) 0.1318(4)
H17 H -0.1543 0.4933 0.1205
C35 C -0.0956(2) 0.4238(4) 0.2114(3)
H18 H -0.1015 0.4657 0.2542
C36 C -0.0312(2) 0.3833(3) 0.3857(3)
Y1B Y 0.62134(2) -0.02467(3) 0.00389(3)
Y1C Y 0.37866(2) 0.47533(3) -0.50389(3)
Y1A Y 0.62134(2) 0.52467(3) -0.49611(3)
Y1C_2 Y 0.37866(2) 0.47533(3) 0.49611(3)
Y2C Y 0.11774(2) 0.48807(3) 0.49864(3)
Y2B Y -0.11774(2) -0.01193(3) 0.00136(3)
Y2A Y -0.11774(2) 0.51193(3) 0.50136(3)
O2B O 0.42359(15) -0.1030(2) 0.0672(2)
O4C O 0.46850(17) 0.0734(3) 0.0960(2)
O6A O 0.40583(16) -0.0699(3) -0.1118(2)
O7C O 0.29285(14) 0.0709(2) -0.10842(19)
O8C O 0.16853(14) 0.0436(2) -0.12886(18)
O10B O 0.06494(15) -0.0994(2) -0.08571(19)
O11A O -0.02303(16) -0.0929(2) 0.0647(2)
O11C O 0.02303(16) 0.0929(2) -0.0647(2)
O12A O 0.09926(15) -0.0977(2) 0.1030(2)
N1 N 0.2332(6) -0.2669(7) 0.2720(6)
N2 N 0.3024(6) -0.1508(7) 0.2705(6)
C37 C 0.2722(10) -0.2664(11) 0.3454(9)
H19 H 0.2670 -0.3056 0.3905
C38 C 0.3237(7) -0.1942(9) 0.3418(7)
H20 H 0.3638 -0.1799 0.3807
C39 C 0.2472(15) -0.1967(14) 0.2262(12)
H21 H 0.2239 -0.1814 0.1737
C40 C 0.1800(6) -0.3388(8) 0.2445(9)
H22 H 0.1468 -0.3174 0.1982
H23 H 0.1507 -0.3557 0.2907
H24 H 0.2077 -0.3904 0.2266
C41 C 0.3367(9) -0.0715(10) 0.2386(9)
H25 H 0.2974 -0.0327 0.2125
H26 H 0.3698 -0.0890 0.1951
C42 C 0.3451(9) 0.0369(12) 0.3750(10)
H27 H 0.3303 -0.0014 0.4208
H28 H 0.3012 0.0704 0.3519
C43 C 0.3810(10) -0.0201(12) 0.3050(10)
H29 H 0.4129 0.0212 0.2758
H30 H 0.4148 -0.0633 0.3344
C44 C 0.4123(11) 0.1036(12) 0.4065(9)
H31 H 0.4571 0.0873 0.3780
H32 H 0.3983 0.1647 0.3893
C45 C 0.4333(9) 0.1035(14) 0.5046(9)
H33 H 0.4422 0.0423 0.5254
H34 H 0.4783 0.1396 0.5187
C46 C 0.3636(11) 0.1453(14) 0.5423(12)
H35 H 0.3719 0.1476 0.6028
H36 H 0.3198 0.1090 0.5270
H37 H 0.3557 0.2055 0.5206
C47? C 0.2182(7) -0.3218(9) 0.3025(7)
C48? C 0.2812(11) -0.2780(11) 0.3441(11)
C49? C 0.2501(16) -0.2082(15) 0.2247(13)
C50? C 0.1557(6) -0.3140(9) 0.1595(8)
C51? C 0.3468(8) -0.1395(9) 0.3225(10)
C52? C 0.3301(11) -0.0481(11) 0.2759(11)
C53? C 0.3995(11) 0.0115(14) 0.3037(11)
C54? C 0.4068(11) 0.0315(12) 0.4001(10)
C55? C 0.3537(9) 0.1024(14) 0.4376(12)
C56? C 0.4039(13) 0.1597(14) 0.5006(13)
H38? H 0.1900 -0.3692 0.3228
H39? H 0.3093 -0.2965 0.3930
H40? H 0.2511 -0.1671 0.1803
H41? H 0.1575 -0.2748 0.1114
H42? H 0.1052 -0.3150 0.1779
H43? H 0.1702 -0.3742 0.1442
H44? H 0.3963 -0.1615 0.3092
H45? H 0.3481 -0.1297 0.3832
H46? H 0.3259 -0.0566 0.2150
H47? H 0.2836 -0.0212 0.2930
H48? H 0.3956 0.0685 0.2731
H49? H 0.4452 -0.0187 0.2883
H50? H 0.4585 0.0506 0.4147
H51? H 0.3996 -0.0253 0.4292
H52? H 0.3304 0.1404 0.3930
H53? H 0.3140 0.0724 0.4663
H54? H 0.4427 0.1892 0.4712
H55? H 0.4270 0.1212 0.5439
H56? H 0.3734 0.2045 0.5259
N3? N 0.2079(6) -0.2808(7) 0.2281(7)
N4? N 0.2913(6) -0.2057(8) 0.2988(7)
loop_
_geom_bond_atom_site_label_1
_geom_bond_atom_site_label_2
_geom_bond_site_symmetry_1
_geom_bond_site_symmetry_2
Y1 Cl1 1_555 1_555
Y2 Cl1 1_555 1_555
O1 Y1 1_555 1_555
O2 C1 1_555 1_555
O3 Y1 1_555 1_555
O4 C12 1_555 1_555
O5 Y2 1_555 1_555
O6 C12 1_555 1_555
O7 C24 1_555 1_555
O8 C24 1_555 1_555
O9 Y2 1_555 1_555
O10 C25 1_555 1_555
O11 C36 1_555 1_555
O12 C36 1_555 1_555
C1 O1 1_555 1_555
C2 C1 1_555 1_555
C3 C2 1_555 1_555
H1 C3 1_555 1_555
C4 C3 1_555 1_555
H2 C4 1_555 1_555
C5 C4 1_555 1_555
C6 C5 1_555 1_555
C7 C2 1_555 1_555
C8 C7 1_555 1_555
H3 C8 1_555 1_555
C9 C8 1_555 1_555
H4 C9 1_555 1_555
C10 C9 1_555 1_555
H5 C10 1_555 1_555
C11 C6 1_555 1_555
H6 C11 1_555 1_555
C12 C5 1_555 1_555
C13 O3 1_555 1_555
C14 C13 1_555 1_555
C15 C14 1_555 1_555
H7 C15 1_555 1_555
C16 C15 1_555 1_555
H8 C16 1_555 1_555
C17 C16 1_555 1_555
C18 C17 1_555 1_555
C19 C14 1_555 1_555
C20 C19 1_555 1_555
H9 C20 1_555 1_555
C21 C20 1_555 1_555
H10 C21 1_555 1_555
C22 C21 1_555 1_555
H11 C22 1_555 1_555
C23 C18 1_555 1_555
H12 C23 1_555 1_555
C24 C17 1_555 1_555
C25 O9 1_555 1_555
C26 C25 1_555 1_555
C27 C26 1_555 1_555
H13 C27 1_555 1_555
C28 C27 1_555 1_555
H14 C28 1_555 1_555
C29 C28 1_555 1_555
C30 C29 1_555 1_555
C31 C26 1_555 1_555
C32 C31 1_555 1_555
H15 C32 1_555 1_555
C33 C32 1_555 1_555
H16 C33 1_555 1_555
C34 C33 1_555 1_555
H17 C34 1_555 1_555
C35 C30 1_555 1_555
H18 C35 1_555 1_555
C36 C29 1_555 1_555
N1 C37 1_555 1_555
N2 C38 1_555 1_555
C37 H19 1_555 1_555
C38 C37 1_555 1_555
H20 C38 1_555 1_555
C39 N1 1_555 1_555
H21 C39 1_555 1_555
C40 N1 1_555 1_555
H22 C40 1_555 1_555
H23 C40 1_555 1_555
H24 C40 1_555 1_555
C41 N2 1_555 1_555
H25 C41 1_555 1_555
H26 C41 1_555 1_555
C42 H27 1_555 1_555
H28 C42 1_555 1_555
C43 C41 1_555 1_555
H29 C43 1_555 1_555
H30 C43 1_555 1_555
C44 C42 1_555 1_555
H31 C44 1_555 1_555
H32 C44 1_555 1_555
C45 C44 1_555 1_555
H33 C45 1_555 1_555
H34 C45 1_555 1_555
C46 C45 1_555 1_555
H35 C46 1_555 1_555
H36 C46 1_555 1_555
H37 C46 1_555 1_555
Y1B O2 1_555 1_555
Y1C O4 1_555 1_555
Y1A O6 1_555 1_555
Y1C_2 O7 1_555 1_555
Y2C O8 1_555 1_555
Y2B O10 1_555 1_555
Y2A O11 1_555 1_555
O2B Y1 1_555 1_555
O4C Y1 1_555 1_555
O6A Y1 1_555 1_555
O7C Y1 1_555 1_555
O8C Y2 1_555 1_555
O10B Y2 1_555 1_555
O11A Y2 1_555 1_555
O11C Y2 1_555 1_555
O12A Y2 1_555 1_555
O5 C13 1_555 1_555
O11 Y2C 1_555 1_555
O12 Y2A 1_555 1_555
C6 C7 1_555 1_555
C10 C11 1_555 1_555
C18 C19 1_555 1_555
C22 C23 1_555 1_555
C30 C31 1_555 1_555
C34 C35 1_555 1_555
N2 C39 1_555 1_555
C42 C43 1_555 1_555
Y2B O11A 1_555 1_555
Y2B O11C 1_555 1_555

#END
