
#######################################################################
#
#                 Cambridge Crystallographic Data Centre
#                                CCDC 
#
#######################################################################
#
# If this CIF has been generated from an entry in the Cambridge 
# Structural Database, then it will include bibliographic, chemical, 
# crystal, experimental, refinement or atomic coordinate data resulting 
# from the CCDC's data processing and validation procedures.
#
#######################################################################

data_MEGQAS
_symmetry_cell_setting           monoclinic
_symmetry_space_group_name_H-M   'P 21/c'
_symmetry_Int_Tables_number      14
_space_group_name_Hall           '-P 2ybc'
loop_
_symmetry_equiv_pos_site_id
_symmetry_equiv_pos_as_xyz
1 x,y,z
2 -x,1/2+y,1/2-z
3 -x,-y,-z
4 x,1/2-y,1/2+z
_cell_length_a                   17.66597(18)
_cell_length_b                   14.78124(14)
_cell_length_c                   15.84149(16)
_cell_angle_alpha                90
_cell_angle_beta                 94.3097(9)
_cell_angle_gamma                90
_cell_volume                     4124.91
loop_
_atom_site_label
_atom_site_type_symbol
_atom_site_fract_x
_atom_site_fract_y
_atom_site_fract_z
Dy1 Dy 0.378438(9) 0.024605(10) -0.004156(9)
Dy2 Dy 0.117500(9) 0.011639(11) -0.001260(9)
Cl1 Cl 0.25226(5) -0.08217(6) 0.02562(6)
O1 O 0.45051(16) 0.12171(18) -0.07760(18)
O2 O 0.57552(15) 0.10445(18) -0.06563(17)
O3 O 0.31561(16) 0.12857(19) 0.07354(18)
O4 O 0.46946(16) 0.4280(2) -0.40278(18)
O5 O 0.19261(15) 0.13352(17) 0.03156(16)
O6 O 0.59467(16) 0.43058(19) -0.38618(17)
O7 O 0.29141(15) 0.42965(19) 0.39060(16)
O8 O 0.16738(14) 0.45585(17) 0.37016(14)
O9 O 0.06125(15) 0.08535(18) 0.11076(16)
O10 O -0.06410(15) 0.09984(18) 0.08676(16)
O11 O 0.02046(16) 0.40846(18) 0.43551(16)
O12 O -0.10127(16) 0.40216(18) 0.39529(17)
C1 C 0.5157(2) 0.1416(2) -0.0949(2)
C2 C 0.5225(2) 0.2155(2) -0.1598(2)
C3 C 0.4715(2) 0.2133(3) -0.2299(3)
H1 H 0.4343 0.1687 -0.2347
C4 C 0.4754(2) 0.2780(3) -0.2942(2)
H2 H 0.4409 0.2750 -0.3415
C5 C 0.5284(2) 0.3451(3) -0.2892(2)
C6 C 0.5804(2) 0.3526(2) -0.2160(2)
C7 C 0.5777(2) 0.2857(2) -0.1509(2)
C8 C 0.6293(2) 0.2936(3) -0.0786(2)
H3 H 0.6298 0.2494 -0.0368
C9 C 0.6784(2) 0.3649(3) -0.0690(3)
H4 H 0.7114 0.3690 -0.0206
C10 C 0.6793(2) 0.4311(3) -0.1310(3)
H5 H 0.7125 0.4798 -0.1233
C11 C 0.6320(2) 0.4258(3) -0.2037(2)
H6 H 0.6338 0.4703 -0.2450
C12 C 0.5311(2) 0.4065(3) -0.3644(2)
C13 C 0.2496(2) 0.1605(2) 0.0768(2)
C14 C 0.2398(2) 0.2324(2) 0.1418(2)
C15 C 0.2832(2) 0.2251(3) 0.2165(3)
H7 H 0.3173 0.1773 0.2237
C16 C 0.2781(2) 0.2863(3) 0.2821(2)
H8 H 0.3095 0.2795 0.3315
C17 C 0.2270(2) 0.3573(2) 0.2751(2)
C18 C 0.1799(2) 0.3677(2) 0.1984(2)
C19 C 0.1878(2) 0.3061(2) 0.1306(2)
C20 C 0.1441(2) 0.3219(3) 0.0529(2)
H9 H 0.1490 0.2829 0.0076
C21 C 0.0954(2) 0.3930(3) 0.0437(2)
H10 H 0.0676 0.4023 -0.0078
C22 C 0.0869(2) 0.4520(3) 0.1108(2)
H11 H 0.0530 0.5001 0.1040
C23 C 0.1271(2) 0.4400(2) 0.1857(2)
H12 H 0.1203 0.4798 0.2299
C24 C 0.2281(2) 0.4199(2) 0.3514(2)
C25 C 0.0002(2) 0.1230(2) 0.1204(2)
C26 C -0.0003(2) 0.2014(3) 0.1812(2)
C27 C 0.0403(2) 0.1931(3) 0.2576(2)
H13 H 0.0735 0.1447 0.2670
C28 C 0.0327(2) 0.2567(3) 0.3223(2)
H14 H 0.0611 0.2504 0.3737
C29 C -0.0166(2) 0.3283(3) 0.3100(2)
C30 C -0.0538(2) 0.3447(3) 0.2283(2)
C31 C -0.0456(2) 0.2799(2) 0.1637(2)
C32 C -0.0807(2) 0.2977(3) 0.0813(3)
H15 H -0.0768 0.2559 0.0380
C33 C -0.1200(3) 0.3764(3) 0.0662(3)
H16 H -0.1422 0.3878 0.0121
C34 C -0.1277(3) 0.4400(3) 0.1300(3)
H17 H -0.1541 0.4934 0.1179
C35 C -0.0969(2) 0.4245(3) 0.2097(3)
H18 H -0.1040 0.4661 0.2524
C36 C -0.0329(2) 0.3843(2) 0.3852(2)
Dy1B Dy 0.621562(9) -0.024605(10) 0.004156(9)
Dy1C Dy 0.378438(9) 0.475395(10) -0.504156(9)
Dy1A Dy 0.621562(9) 0.524605(10) -0.495844(9)
Dy1C_2 Dy 0.378438(9) 0.475395(10) 0.495844(9)
Dy2C Dy 0.117500(9) 0.488361(11) 0.498740(9)
Dy2B Dy -0.117500(9) -0.011639(11) 0.001260(9)
Dy2A Dy -0.117500(9) 0.511639(11) 0.501260(9)
O2B O 0.42448(15) -0.10445(18) 0.06563(17)
O4C O 0.46946(16) 0.0720(2) 0.09722(18)
O6A O 0.40533(16) -0.06942(19) -0.11382(17)
O7C O 0.29141(15) 0.07035(19) -0.10940(16)
O8C O 0.16738(14) 0.04415(17) -0.12984(14)
O10B O 0.06410(15) -0.09984(18) -0.08676(16)
O11A O -0.02046(16) -0.09154(18) 0.06449(16)
O11C O 0.02046(16) 0.09154(18) -0.06449(16)
O12A O 0.10127(16) -0.09784(18) 0.10471(17)
N1 N 0.2330(5) -0.2682(5) 0.2703(5)
N2 N 0.3025(5) -0.1493(5) 0.2706(5)
C37 C 0.2817(8) -0.2690(12) 0.3411(8)
H19 H 0.2843 -0.3136 0.3826
C38 C 0.3228(6) -0.1991(7) 0.3410(6)
H20 H 0.3609 -0.1841 0.3823
C39 C 0.2498(15) -0.1955(13) 0.2266(11)
H21 H 0.2280 -0.1797 0.1734
C40 C 0.1791(6) -0.3380(6) 0.2470(7)
H22 H 0.1517 -0.3224 0.1944
H23 H 0.1442 -0.3442 0.2902
H24 H 0.2054 -0.3942 0.2406
C41 C 0.3233(6) -0.0537(6) 0.2472(7)
H25 H 0.2785 -0.0165 0.2509
H26 H 0.3346 -0.0543 0.1882
C42 C 0.3474(6) 0.0413(8) 0.3743(7)
H27 H 0.3100 0.0860 0.3544
H28 H 0.3249 -0.0026 0.4104
C43 C 0.3903(6) -0.0051(7) 0.2979(6)
H29 H 0.4135 0.0400 0.2637
H30 H 0.4287 -0.0479 0.3195
C44 C 0.4240(6) 0.0860(8) 0.4179(6)
H31 H 0.4657 0.0463 0.4064
H32 H 0.4321 0.1424 0.3886
C45 C 0.4316(6) 0.1070(9) 0.5150(6)
H33 H 0.4392 0.0519 0.5478
H34 H 0.4736 0.1478 0.5291
C46 C 0.3554(7) 0.1518(9) 0.5315(8)
H35 H 0.3565 0.1707 0.5896
H36 H 0.3149 0.1092 0.5200
H37 H 0.3473 0.2035 0.4953
C47? C 0.2183(8) -0.3210(9) 0.3056(7)
C48? C 0.2693(13) -0.2752(15) 0.3454(12)
C49? C 0.248(2) -0.2058(19) 0.2266(16)
C50? C 0.1552(8) -0.3174(9) 0.1611(8)
C51? C 0.3518(8) -0.1450(9) 0.3256(8)
C52? C 0.3583(10) -0.0794(9) 0.2521(8)
C53? C 0.3356(9) -0.0043(10) 0.3105(9)
C54? C 0.3924(9) 0.0279(11) 0.3861(10)
C55? C 0.3554(9) 0.1061(11) 0.4343(10)
C56? C 0.4120(12) 0.1524(12) 0.4955(12)
H38? H 0.1934 -0.3714 0.3253
H39? H 0.2895 -0.2868 0.4003
H40? H 0.2468 -0.1620 0.1843
H41? H 0.1566 -0.2802 0.1116
H42? H 0.1047 -0.3178 0.1795
H43? H 0.1699 -0.3780 0.1479
H44? H 0.3989 -0.1780 0.3376
H45? H 0.3395 -0.1131 0.3763
H46? H 0.4093 -0.0735 0.2340
H47? H 0.3219 -0.0903 0.2042
H48? H 0.2892 -0.0233 0.3345
H49? H 0.3229 0.0482 0.2756
H50? H 0.4043 -0.0222 0.4244
H51? H 0.4393 0.0488 0.3645
H52? H 0.3339 0.1500 0.3937
H53? H 0.3143 0.0819 0.4649
H54? H 0.4518 0.1781 0.4651
H55? H 0.4333 0.1091 0.5358
H56? H 0.3871 0.1995 0.5247
N3? N 0.2071(7) -0.2817(7) 0.2278(7)
N4? N 0.2901(7) -0.2066(8) 0.2962(7)
loop_
_geom_bond_atom_site_label_1
_geom_bond_atom_site_label_2
_geom_bond_site_symmetry_1
_geom_bond_site_symmetry_2
Dy1 Cl1 1_555 1_555
Dy2 Cl1 1_555 1_555
O1 Dy1 1_555 1_555
O2 C1 1_555 1_555
O3 Dy1 1_555 1_555
O4 C12 1_555 1_555
O5 Dy2 1_555 1_555
O6 C12 1_555 1_555
O7 C24 1_555 1_555
O8 C24 1_555 1_555
O9 Dy2 1_555 1_555
O10 C25 1_555 1_555
O11 C36 1_555 1_555
O12 C36 1_555 1_555
C1 O1 1_555 1_555
C2 C1 1_555 1_555
C3 C2 1_555 1_555
H1 C3 1_555 1_555
C4 C3 1_555 1_555
H2 C4 1_555 1_555
C5 C4 1_555 1_555
C6 C5 1_555 1_555
C7 C2 1_555 1_555
C8 C7 1_555 1_555
H3 C8 1_555 1_555
C9 C8 1_555 1_555
H4 C9 1_555 1_555
C10 C9 1_555 1_555
H5 C10 1_555 1_555
C11 C6 1_555 1_555
H6 C11 1_555 1_555
C12 C5 1_555 1_555
C13 O3 1_555 1_555
C14 C13 1_555 1_555
C15 C14 1_555 1_555
H7 C15 1_555 1_555
C16 C15 1_555 1_555
H8 C16 1_555 1_555
C17 C16 1_555 1_555
C18 C17 1_555 1_555
C19 C14 1_555 1_555
C20 C19 1_555 1_555
H9 C20 1_555 1_555
C21 C20 1_555 1_555
H10 C21 1_555 1_555
C22 C21 1_555 1_555
H11 C22 1_555 1_555
C23 C18 1_555 1_555
H12 C23 1_555 1_555
C24 C17 1_555 1_555
C25 O9 1_555 1_555
C26 C25 1_555 1_555
C27 C26 1_555 1_555
H13 C27 1_555 1_555
C28 C27 1_555 1_555
H14 C28 1_555 1_555
C29 C28 1_555 1_555
C30 C29 1_555 1_555
C31 C26 1_555 1_555
C32 C31 1_555 1_555
H15 C32 1_555 1_555
C33 C32 1_555 1_555
H16 C33 1_555 1_555
C34 C33 1_555 1_555
H17 C34 1_555 1_555
C35 C30 1_555 1_555
H18 C35 1_555 1_555
C36 C29 1_555 1_555
N1 C37 1_555 1_555
N2 C38 1_555 1_555
C37 H19 1_555 1_555
C38 C37 1_555 1_555
H20 C38 1_555 1_555
C39 N1 1_555 1_555
H21 C39 1_555 1_555
C40 N1 1_555 1_555
H22 C40 1_555 1_555
H23 C40 1_555 1_555
H24 C40 1_555 1_555
C41 N2 1_555 1_555
H25 C41 1_555 1_555
H26 C41 1_555 1_555
C42 H27 1_555 1_555
H28 C42 1_555 1_555
C43 C41 1_555 1_555
H29 C43 1_555 1_555
H30 C43 1_555 1_555
C44 C42 1_555 1_555
H31 C44 1_555 1_555
H32 C44 1_555 1_555
C45 C44 1_555 1_555
H33 C45 1_555 1_555
H34 C45 1_555 1_555
C46 C45 1_555 1_555
H35 C46 1_555 1_555
H36 C46 1_555 1_555
H37 C46 1_555 1_555
Dy1B O2 1_555 1_555
Dy1C O4 1_555 1_555
Dy1A O6 1_555 1_555
Dy1C_2 O7 1_555 1_555
Dy2C O8 1_555 1_555
Dy2B O10 1_555 1_555
Dy2A O11 1_555 1_555
O2B Dy1 1_555 1_555
O4C Dy1 1_555 1_555
O6A Dy1 1_555 1_555
O7C Dy1 1_555 1_555
O8C Dy2 1_555 1_555
O10B Dy2 1_555 1_555
O11A Dy2 1_555 1_555
O11C Dy2 1_555 1_555
O12A Dy2 1_555 1_555
O5 C13 1_555 1_555
O11 Dy2C 1_555 1_555
O12 Dy2A 1_555 1_555
C6 C7 1_555 1_555
C10 C11 1_555 1_555
C18 C19 1_555 1_555
C22 C23 1_555 1_555
C30 C31 1_555 1_555
C34 C35 1_555 1_555
N2 C39 1_555 1_555
C42 C43 1_555 1_555
Dy2B O11A 1_555 1_555
Dy2B O11C 1_555 1_555

#END
