
#######################################################################
#
#                 Cambridge Crystallographic Data Centre
#                                CCDC 
#
#######################################################################
#
# If this CIF has been generated from an entry in the Cambridge 
# Structural Database, then it will include bibliographic, chemical, 
# crystal, experimental, refinement or atomic coordinate data resulting 
# from the CCDC's data processing and validation procedures.
#
#######################################################################

data_MEGQIA
_symmetry_cell_setting           monoclinic
_symmetry_space_group_name_H-M   'P 21/c'
_symmetry_Int_Tables_number      14
_space_group_name_Hall           '-P 2ybc'
loop_
_symmetry_equiv_pos_site_id
_symmetry_equiv_pos_as_xyz
1 x,y,z
2 -x,1/2+y,1/2-z
3 -x,-y,-z
4 x,1/2-y,1/2+z
_cell_length_a                   17.6322(6)
_cell_length_b                   14.7719(4)
_cell_length_c                   15.7947(4)
_cell_angle_alpha                90
_cell_angle_beta                 94.131(3)
_cell_angle_gamma                90
_cell_volume                     4103.22
loop_
_atom_site_label
_atom_site_type_symbol
_atom_site_fract_x
_atom_site_fract_y
_atom_site_fract_z
Er1 Er 0.378632(9) 0.024556(11) -0.003879(9)
Er2 Er 0.118025(9) 0.011599(11) -0.001425(9)
Cl1 Cl 0.25229(6) -0.08079(7) 0.02652(7)
O1 O 0.45074(17) 0.1194(2) -0.0770(2)
O2 O 0.57653(17) 0.1029(2) -0.06734(19)
O3 O 0.31528(17) 0.1271(2) 0.07309(19)
O4 O 0.46857(18) 0.4276(2) -0.40309(19)
O5 O 0.19216(16) 0.13220(19) 0.03231(18)
O6 O 0.59420(18) 0.4302(2) -0.38807(18)
O7 O 0.29287(16) 0.4295(2) 0.39110(17)
O8 O 0.16894(15) 0.45797(19) 0.37083(15)
O9 O 0.06152(17) 0.08290(19) 0.11017(17)
O10 O -0.06427(16) 0.09812(19) 0.08619(17)
O11 O 0.02362(16) 0.4073(2) 0.43571(17)
O12 O -0.09886(17) 0.4017(2) 0.39822(18)
C1 C 0.5168(2) 0.1395(3) -0.0958(3)
C2 C 0.5231(2) 0.2136(3) -0.1605(2)
C3 C 0.4721(2) 0.2115(3) -0.2310(3)
H1 H 0.4355 0.1662 -0.2359
C4 C 0.4747(2) 0.2764(3) -0.2952(3)
H2 H 0.4394 0.2737 -0.3419
C5 C 0.5282(2) 0.3440(3) -0.2907(2)
C6 C 0.5801(2) 0.3524(3) -0.2169(2)
C7 C 0.5777(2) 0.2853(3) -0.1517(2)
C8 C 0.6288(2) 0.2928(3) -0.0788(2)
H3 H 0.6295 0.2485 -0.0369
C9 C 0.6772(3) 0.3652(3) -0.0698(3)
H4 H 0.7102 0.3697 -0.0213
C10 C 0.6779(3) 0.4327(3) -0.1325(3)
H5 H 0.7102 0.4822 -0.1248
C11 C 0.6309(2) 0.4254(3) -0.2049(3)
H6 H 0.6326 0.4694 -0.2469
C12 C 0.5306(2) 0.4059(3) -0.3656(3)
C13 C 0.2490(2) 0.1595(3) 0.0773(3)
C14 C 0.2396(2) 0.2312(3) 0.1423(3)
C15 C 0.2831(3) 0.2230(3) 0.2176(3)
H7 H 0.3168 0.1747 0.2251
C16 C 0.2778(3) 0.2854(3) 0.2829(3)
H8 H 0.3089 0.2785 0.3326
C17 C 0.2278(2) 0.3573(3) 0.2759(2)
C18 C 0.1806(2) 0.3677(3) 0.1989(2)
C19 C 0.1877(2) 0.3057(3) 0.1312(2)
C20 C 0.1444(3) 0.3213(3) 0.0530(3)
H9 H 0.1494 0.2822 0.0076
C21 C 0.0956(3) 0.3932(3) 0.0440(3)
H10 H 0.0673 0.4023 -0.0073
C22 C 0.0878(3) 0.4527(3) 0.1112(3)
H11 H 0.0544 0.5014 0.1044
C23 C 0.1285(2) 0.4405(3) 0.1866(3)
H12 H 0.1222 0.4806 0.2309
C24 C 0.2293(2) 0.4205(3) 0.3517(2)
C25 C -0.0006(2) 0.1215(3) 0.1200(2)
C26 C -0.0010(2) 0.1995(3) 0.1811(2)
C27 C 0.0407(2) 0.1906(3) 0.2580(3)
H13 H 0.0734 0.1416 0.2671
C28 C 0.0340(3) 0.2548(3) 0.3223(3)
H14 H 0.0635 0.2487 0.3732
C29 C -0.0155(2) 0.3268(3) 0.3114(2)
C30 C -0.0533(2) 0.3433(3) 0.2301(3)
C31 C -0.0455(2) 0.2782(3) 0.1647(2)
C32 C -0.0810(3) 0.2965(3) 0.0823(3)
H15 H -0.0780 0.2544 0.0389
C33 C -0.1191(3) 0.3757(3) 0.0673(3)
H16 H -0.1401 0.3880 0.0128
C34 C -0.1276(3) 0.4390(3) 0.1318(3)
H17 H -0.1551 0.4919 0.1204
C35 C -0.0954(3) 0.4231(3) 0.2115(3)
H18 H -0.1013 0.4653 0.2542
C36 C -0.0309(2) 0.3828(3) 0.3866(2)
Er1B Er 0.621368(9) -0.024556(11) 0.003879(9)
Er1C Er 0.378632(9) 0.475444(11) -0.503879(9)
Er1A Er 0.621368(9) 0.524556(11) -0.496121(9)
Er1C_2 Er 0.378632(9) 0.475444(11) 0.496121(9)
Er2C Er 0.118025(9) 0.488401(11) 0.498575(9)
Er2B Er -0.118025(9) -0.011599(11) 0.001425(9)
Er2A Er -0.118025(9) 0.511599(11) 0.501425(9)
O2B O 0.42347(17) -0.1029(2) 0.06734(19)
O4C O 0.46857(18) 0.0724(2) 0.09691(19)
O6A O 0.40580(18) -0.0698(2) -0.11193(18)
O7C O 0.29287(16) 0.0705(2) -0.10890(17)
O8C O 0.16894(15) 0.04203(19) -0.12917(15)
O10B O 0.06427(16) -0.09812(19) -0.08619(17)
O11A O -0.02362(16) -0.0927(2) 0.06429(17)
O11C O 0.02362(16) 0.0927(2) -0.06429(17)
O12A O 0.09886(17) -0.0983(2) 0.10178(18)
N1 N 0.2322(5) -0.2684(5) 0.2681(5)
N2 N 0.2987(5) -0.1464(6) 0.2728(5)
C37 C 0.2808(6) -0.2722(9) 0.3389(6)
H19 H 0.2848 -0.3189 0.3785
C38 C 0.3208(6) -0.1978(7) 0.3407(6)
H20 H 0.3586 -0.1826 0.3824
C39 C 0.2444(5) -0.1917(6) 0.2291(5)
H21 H 0.2189 -0.1723 0.1788
C40 C 0.1780(6) -0.3404(7) 0.2446(7)
H22 H 0.1502 -0.3253 0.1920
H23 H 0.1432 -0.3471 0.2883
H24 H 0.2048 -0.3962 0.2382
C41 C 0.3276(5) -0.0562(7) 0.2487(7)
H25 H 0.2840 -0.0159 0.2451
H26 H 0.3434 -0.0623 0.1914
C42 C 0.3534(6) 0.0443(9) 0.3770(7)
H27 H 0.3175 0.0909 0.3577
H28 H 0.3294 0.0017 0.4135
C43 C 0.3922(6) -0.0050(8) 0.2996(7)
H29 H 0.4150 0.0394 0.2639
H30 H 0.4314 -0.0468 0.3211
C44 C 0.4311(7) 0.0851(9) 0.4205(7)
H31 H 0.4715 0.0421 0.4126
H32 H 0.4429 0.1400 0.3905
C45 C 0.4314(7) 0.1075(10) 0.5166(7)
H33 H 0.4730 0.1481 0.5336
H34 H 0.4367 0.0528 0.5504
C46 C 0.3533(7) 0.1540(10) 0.5280(9)
H35 H 0.3518 0.1744 0.5856
H36 H 0.3130 0.1113 0.5152
H37 H 0.3472 0.2048 0.4902
C47? C 0.2161(7) -0.3221(8) 0.3048(6)
C48? C 0.2682(8) -0.2733(9) 0.3465(9)
C49? C 0.2537(5) -0.2109(7) 0.2234(7)
C50? C 0.1544(7) -0.3146(9) 0.1589(7)
C51? C 0.3488(7) -0.1425(8) 0.3289(8)
C52? C 0.3584(10) -0.0798(8) 0.2544(8)
C53? C 0.3358(9) -0.0039(10) 0.3102(9)
C54? C 0.3937(9) 0.0265(11) 0.3856(10)
C55? C 0.3551(8) 0.1023(10) 0.4362(10)
C56? C 0.4126(11) 0.1525(11) 0.4939(11)
H38? H 0.1907 -0.3726 0.3236
H39? H 0.2868 -0.2835 0.4023
H40? H 0.2582 -0.1725 0.1774
H41? H 0.1567 -0.2764 0.1100
H42? H 0.1038 -0.3138 0.1776
H43? H 0.1676 -0.3755 0.1444
H44? H 0.3960 -0.1735 0.3456
H45? H 0.3323 -0.1093 0.3773
H46? H 0.4102 -0.0757 0.2378
H47? H 0.3228 -0.0909 0.2058
H48? H 0.2887 -0.0211 0.3341
H49? H 0.3248 0.0485 0.2743
H50? H 0.4067 -0.0246 0.4224
H51? H 0.4400 0.0493 0.3636
H52? H 0.3296 0.1446 0.3967
H53? H 0.3170 0.0754 0.4698
H54? H 0.4515 0.1768 0.4610
H55? H 0.4350 0.1116 0.5358
H56? H 0.3878 0.2009 0.5215
N3? N 0.2079(5) -0.2815(6) 0.2272(7)
N4? N 0.2908(5) -0.2062(7) 0.2969(7)
loop_
_geom_bond_atom_site_label_1
_geom_bond_atom_site_label_2
_geom_bond_site_symmetry_1
_geom_bond_site_symmetry_2
Er1 Cl1 1_555 1_555
Er2 Cl1 1_555 1_555
O1 Er1 1_555 1_555
O2 C1 1_555 1_555
O3 Er1 1_555 1_555
O4 C12 1_555 1_555
O5 Er2 1_555 1_555
O6 C12 1_555 1_555
O7 C24 1_555 1_555
O8 C24 1_555 1_555
O9 Er2 1_555 1_555
O10 C25 1_555 1_555
O11 C36 1_555 1_555
O12 C36 1_555 1_555
C1 O1 1_555 1_555
C2 C1 1_555 1_555
C3 C2 1_555 1_555
H1 C3 1_555 1_555
C4 C3 1_555 1_555
H2 C4 1_555 1_555
C5 C4 1_555 1_555
C6 C5 1_555 1_555
C7 C2 1_555 1_555
C8 C7 1_555 1_555
H3 C8 1_555 1_555
C9 C8 1_555 1_555
H4 C9 1_555 1_555
C10 C9 1_555 1_555
H5 C10 1_555 1_555
C11 C6 1_555 1_555
H6 C11 1_555 1_555
C12 C5 1_555 1_555
C13 O3 1_555 1_555
C14 C13 1_555 1_555
C15 C14 1_555 1_555
H7 C15 1_555 1_555
C16 C15 1_555 1_555
H8 C16 1_555 1_555
C17 C16 1_555 1_555
C18 C17 1_555 1_555
C19 C14 1_555 1_555
C20 C19 1_555 1_555
H9 C20 1_555 1_555
C21 C20 1_555 1_555
H10 C21 1_555 1_555
C22 C21 1_555 1_555
H11 C22 1_555 1_555
C23 C18 1_555 1_555
H12 C23 1_555 1_555
C24 C17 1_555 1_555
C25 O9 1_555 1_555
C26 C25 1_555 1_555
C27 C26 1_555 1_555
H13 C27 1_555 1_555
C28 C27 1_555 1_555
H14 C28 1_555 1_555
C29 C28 1_555 1_555
C30 C29 1_555 1_555
C31 C26 1_555 1_555
C32 C31 1_555 1_555
H15 C32 1_555 1_555
C33 C32 1_555 1_555
H16 C33 1_555 1_555
C34 C33 1_555 1_555
H17 C34 1_555 1_555
C35 C30 1_555 1_555
H18 C35 1_555 1_555
C36 C29 1_555 1_555
N1 C37 1_555 1_555
N2 C38 1_555 1_555
C37 H19 1_555 1_555
C38 C37 1_555 1_555
H20 C38 1_555 1_555
C39 N1 1_555 1_555
H21 C39 1_555 1_555
C40 N1 1_555 1_555
H22 C40 1_555 1_555
H23 C40 1_555 1_555
H24 C40 1_555 1_555
C41 N2 1_555 1_555
H25 C41 1_555 1_555
H26 C41 1_555 1_555
C42 H27 1_555 1_555
H28 C42 1_555 1_555
C43 C41 1_555 1_555
H29 C43 1_555 1_555
H30 C43 1_555 1_555
C44 C42 1_555 1_555
H31 C44 1_555 1_555
H32 C44 1_555 1_555
C45 C44 1_555 1_555
H33 C45 1_555 1_555
H34 C45 1_555 1_555
C46 C45 1_555 1_555
H35 C46 1_555 1_555
H36 C46 1_555 1_555
H37 C46 1_555 1_555
Er1B O2 1_555 1_555
Er1C O4 1_555 1_555
Er1A O6 1_555 1_555
Er1C_2 O7 1_555 1_555
Er2C O8 1_555 1_555
Er2B O10 1_555 1_555
Er2A O11 1_555 1_555
O2B Er1 1_555 1_555
O4C Er1 1_555 1_555
O6A Er1 1_555 1_555
O7C Er1 1_555 1_555
O8C Er2 1_555 1_555
O10B Er2 1_555 1_555
O11A Er2 1_555 1_555
O11C Er2 1_555 1_555
O12A Er2 1_555 1_555
O5 C13 1_555 1_555
O11 Er2C 1_555 1_555
O12 Er2A 1_555 1_555
C6 C7 1_555 1_555
C10 C11 1_555 1_555
C18 C19 1_555 1_555
C22 C23 1_555 1_555
C30 C31 1_555 1_555
C34 C35 1_555 1_555
N2 C39 1_555 1_555
C42 C43 1_555 1_555
Er2B O11A 1_555 1_555
Er2B O11C 1_555 1_555

#END
