
#######################################################################
#
#                 Cambridge Crystallographic Data Centre
#                                CCDC 
#
#######################################################################
#
# If this CIF has been generated from an entry in the Cambridge 
# Structural Database, then it will include bibliographic, chemical, 
# crystal, experimental, refinement or atomic coordinate data resulting 
# from the CCDC's data processing and validation procedures.
#
#######################################################################

data_MEGVUQ
_symmetry_cell_setting           triclinic
_symmetry_space_group_name_H-M   'P -1'
_symmetry_Int_Tables_number      2
_space_group_name_Hall           '-P 1'
loop_
_symmetry_equiv_pos_site_id
_symmetry_equiv_pos_as_xyz
1 x,y,z
2 -x,-y,-z
_cell_length_a                   7.5576(17)
_cell_length_b                   8.4054(18)
_cell_length_c                   13.795(3)
_cell_angle_alpha                96.672(3)
_cell_angle_beta                 98.394(3)
_cell_angle_gamma                98.975(3)
_cell_volume                     847.618
loop_
_atom_site_label
_atom_site_type_symbol
_atom_site_fract_x
_atom_site_fract_y
_atom_site_fract_z
O1 O 0.3699(6) -0.1699(7) 0.5870(4)
O2 O 0.3550(6) -0.1121(6) 0.7889(3)
O3 O 0.2134(6) -0.1005(7) 0.9150(4)
C1 C 0.3190(9) -0.1654(9) 0.8685(5)
C2 C 0.3972(10) -0.3084(9) 0.9019(5)
H1 H 0.3565 -0.4019 0.8508
H2 H 0.5287 -0.2830 0.9104
O4 O 0.6358(7) -0.2946(6) 0.7229(5)
O5 O 0.8572(7) -0.1078(6) 0.8024(4)
C3 C 0.7922(10) -0.2557(9) 0.7690(5)
C4 C 0.9109(11) -0.3810(9) 0.7835(6)
H3 H 1.0213 -0.3490 0.7572
H4 H 0.9450 -0.3822 0.8539
O6 O 1.0405(7) -0.1032(7) 0.6339(4)
O7 O 0.7484(6) -0.0902(7) 0.5835(4)
C5 C 0.8915(8) -0.1438(9) 0.5734(5)
Er1 Er 0.59743(4) -0.01346(4) 0.70874(2)
Er2 Er 0.13632(4) 0.07526(4) 0.79348(2)
C6 C 0.4445(8) -0.2366(9) 1.0863(5)
O8 O 0.4530(6) -0.1841(7) 0.4016(4)
O9 O 0.6643(6) -0.1482(6) 0.3119(4)
O10 O 0.8735(6) -0.8239(6) 0.7257(4)
O11 O 0.6138(6) -0.2221(7) 1.1011(4)
O12 O 0.3567(6) -0.1570(7) 1.1401(4)
O13 O 0.0179(7) 0.1704(7) 0.9362(4)
O14 O 1.1093(6) -0.6375(6) 0.7817(4)
C7 C 0.9473(9) -0.6730(9) 0.7494(5)
C8 C 0.8883(9) -0.2645(9) 0.4831(5)
H5 H 0.9552 -0.2109 0.4375
H6 H 0.9493 -0.3519 0.5027
C9 C 0.6000(9) -0.2147(8) 0.3804(5)
C10 C 0.3423(9) -0.3521(8) 0.9980(5)
H7 H 0.3636 -0.4611 1.0056
H8 H 0.2133 -0.3522 0.9950
C11 C 0.6963(9) -0.3366(9) 0.4299(5)
H9 H 0.6257 -0.3797 0.4774
H10 H 0.7019 -0.4266 0.3803
C12 C 0.8250(11) -0.5498(9) 0.7355(7)
H11 H 0.7890 -0.5487 0.6652
H12 H 0.7159 -0.5830 0.7627
H13 H 0.061(9) 0.125(11) 0.984(5)
H14 H -0.095(3) 0.158(11) 0.936(6)
H15 H 0.263(5) -0.160(12) 0.589(6)
H16 H 0.393(10) -0.174(13) 0.529(3)
O5_2 O -0.1428(7) -0.1078(6) 0.8024(4)
O6_2 O 0.0405(7) -0.1032(7) 0.6339(4)
Er1A Er 0.40257(4) 0.01346(4) 0.29126(2)
Er1_2 Er 0.59743(4) -1.01346(4) 0.70874(2)
Er1A_2 Er 0.40257(4) 0.01346(4) 1.29126(2)
Er2_2 Er 1.13632(4) 0.07526(4) 0.79348(2)
Er2A Er 0.86368(4) -0.07526(4) 0.20652(2)
Er2_3 Er 1.13632(4) -0.92474(4) 0.79348(2)
Er2A_2 Er 0.86368(4) -0.07526(4) 1.20652(2)
O8A O 0.5470(6) 0.1841(7) 0.5984(4)
O9A O 0.3357(6) 0.1482(6) 0.6881(4)
O10_2 O 0.8735(6) 0.1761(6) 0.7257(4)
O10_3 O -0.1265(6) 0.1761(6) 0.7257(4)
O11A O 0.3862(6) 0.2221(7) 0.8989(4)
O12A O 0.6433(6) 0.1570(7) 0.8599(4)
O14_2 O 0.1093(6) 0.3625(6) 0.7817(4)
loop_
_geom_bond_atom_site_label_1
_geom_bond_atom_site_label_2
_geom_bond_site_symmetry_1
_geom_bond_site_symmetry_2
O1 Er1 1_555 1_555
O2 C1 1_555 1_555
O3 C1 1_555 1_555
C1 C2 1_555 1_555
C2 H1 1_555 1_555
H2 C2 1_555 1_555
O4 C3 1_555 1_555
O5 C3 1_555 1_555
C3 C4 1_555 1_555
C4 H3 1_555 1_555
H4 C4 1_555 1_555
O6 C5 1_555 1_555
O7 C5 1_555 1_555
C5 C8 1_555 1_555
Er1 O2 1_555 1_555
Er2 O2 1_555 1_555
C6 O11 1_555 1_555
O8 C9 1_555 1_555
O9 C9 1_555 1_555
O10 C7 1_555 1_555
O11 Er2A_2 1_555 1_555
O12 C6 1_555 1_555
O13 Er2 1_555 1_555
O14 C7 1_555 1_555
C7 C12 1_555 1_555
C8 H5 1_555 1_555
H6 C8 1_555 1_555
C9 C11 1_555 1_555
C10 C2 1_555 1_555
H7 C10 1_555 1_555
H8 C10 1_555 1_555
C11 C8 1_555 1_555
H9 C11 1_555 1_555
H10 C11 1_555 1_555
C12 C4 1_555 1_555
H11 C12 1_555 1_555
H12 C12 1_555 1_555
H13 O13 1_555 1_555
H14 O13 1_555 1_555
H15 O1 1_555 1_555
H16 O1 1_555 1_555
O5_2 Er2 1_555 1_555
O6_2 Er2 1_555 1_555
Er1A O8 1_555 1_555
Er1_2 O10 1_555 1_555
Er1A_2 O12 1_555 1_555
Er2_2 O5 1_555 1_555
Er2A O9 1_555 1_555
Er2_3 O10 1_555 1_555
O8A Er1 1_555 1_555
O9A Er1 1_555 1_555
O10_2 Er1 1_555 1_555
O10_3 Er2 1_555 1_555
O11A Er2 1_555 1_555
O12A Er1 1_555 1_555
O14_2 Er2 1_555 1_555
O3 Er2 1_555 1_555
O4 Er1 1_555 1_555
O5 Er1 1_555 1_555
O6 Er2_2 1_555 1_555
O7 Er1 1_555 1_555
Er2 O9A 1_555 1_555
C6 C10 1_555 1_555
O9 Er1A 1_555 1_555
O14 Er2_3 1_555 1_555
Er2_2 O10_2 1_555 1_555

#END
