
#######################################################################
#
#                 Cambridge Crystallographic Data Centre
#                                CCDC 
#
#######################################################################
#
# If this CIF has been generated from an entry in the Cambridge 
# Structural Database, then it will include bibliographic, chemical, 
# crystal, experimental, refinement or atomic coordinate data resulting 
# from the CCDC's data processing and validation procedures.
#
#######################################################################

data_MEGZII01
_symmetry_cell_setting           monoclinic
_symmetry_space_group_name_H-M   'P 21/n'
_symmetry_Int_Tables_number      14
_space_group_name_Hall           '-P 2yn'
loop_
_symmetry_equiv_pos_site_id
_symmetry_equiv_pos_as_xyz
1 x,y,z
2 1/2-x,1/2+y,1/2-z
3 -x,-y,-z
4 1/2+x,1/2-y,1/2+z
_cell_length_a                   7.3871(15)
_cell_length_b                   16.445(3)
_cell_length_c                   9.992(2)
_cell_angle_alpha                90
_cell_angle_beta                 94.97(3)
_cell_angle_gamma                90
_cell_volume                     1209.27
loop_
_atom_site_label
_atom_site_type_symbol
_atom_site_fract_x
_atom_site_fract_y
_atom_site_fract_z
Cd1 Cd 0.255116(19) 0.968111(12) 0.018247(19)
S1 S 0.31548(9) 0.96409(5) 0.26835(8)
S2 S 0.79267(9) 1.12501(6) 0.18006(8)
O1 O -0.0350(2) 0.94385(13) 0.09897(18)
O2 O 0.4479(2) 1.08498(12) 0.01655(19)
N1 N -0.0414(2) 0.92696(14) 0.2296(2)
N2 N 0.4325(2) 1.13960(13) 0.1144(2)
C1 C -0.2046(3) 0.9044(2) 0.2707(3)
H1 H -0.3059 0.9028 0.2086
C2 C -0.2227(4) 0.8840(2) 0.4007(3)
H2 H -0.3353 0.8688 0.4275
C3 C -0.0711(4) 0.8863(2) 0.4928(3)
H3 H -0.0800 0.8717 0.5819
C4 C 0.0914(4) 0.9102(2) 0.4503(3)
H4 H 0.1927 0.9119 0.5123
C5 C 0.1113(3) 0.93217(17) 0.3174(3)
C6 C 0.2651(3) 1.17112(18) 0.1274(3)
H5 H 0.1679 1.1552 0.0678
C7 C 0.2368(4) 1.22569(19) 0.2265(4)
H6 H 0.1222 1.2482 0.2322
C8 C 0.3794(4) 1.24731(19) 0.3180(4)
H7 H 0.3616 1.2828 0.3881
C9 C 0.5476(3) 1.21534(19) 0.3031(3)
H8 H 0.6443 1.2300 0.3642
C10 C 0.5791(3) 1.16148(17) 0.1995(3)
Cd1B Cd -0.255116(19) 1.031889(12) -0.018247(19)
Cd1B_2 Cd 0.744884(19) 1.031889(12) -0.018247(19)
S2B S 0.20733(9) 0.87499(6) -0.18006(8)
O1B O 0.0350(2) 1.05615(13) -0.09897(18)
O2B O 0.5521(2) 0.91502(12) -0.01655(19)
loop_
_geom_bond_atom_site_label_1
_geom_bond_atom_site_label_2
_geom_bond_site_symmetry_1
_geom_bond_site_symmetry_2
Cd1 S1 1_555 1_555
S1 C5 1_555 1_555
S2 C10 1_555 1_555
O1 Cd1 1_555 1_555
O2 Cd1 1_555 1_555
N1 O1 1_555 1_555
N2 O2 1_555 1_555
C1 N1 1_555 1_555
H1 C1 1_555 1_555
C2 C1 1_555 1_555
H2 C2 1_555 1_555
C3 C2 1_555 1_555
H3 C3 1_555 1_555
C4 C3 1_555 1_555
H4 C4 1_555 1_555
C5 N1 1_555 1_555
C6 N2 1_555 1_555
H5 C6 1_555 1_555
C7 C6 1_555 1_555
H6 C7 1_555 1_555
C8 C7 1_555 1_555
H7 C8 1_555 1_555
C9 C8 1_555 1_555
H8 C9 1_555 1_555
C10 N2 1_555 1_555
Cd1B O1 1_555 1_555
Cd1B_2 S2 1_555 1_555
S2B Cd1 1_555 1_555
O1B Cd1 1_555 1_555
O2B Cd1 1_555 1_555
O2 Cd1B_2 1_555 1_555
C4 C5 1_555 1_555
C9 C10 1_555 1_555
Cd1B O1B 1_555 1_555
Cd1B_2 O2B 1_555 1_555

#END
