
#######################################################################
#
#                 Cambridge Crystallographic Data Centre
#                                CCDC 
#
#######################################################################
#
# If this CIF has been generated from an entry in the Cambridge 
# Structural Database, then it will include bibliographic, chemical, 
# crystal, experimental, refinement or atomic coordinate data resulting 
# from the CCDC's data processing and validation procedures.
#
#######################################################################

data_MEGZII
_symmetry_cell_setting           monoclinic
_symmetry_space_group_name_H-M   'P 21/c'
_symmetry_Int_Tables_number      14
_space_group_name_Hall           '-P 2ybc'
loop_
_symmetry_equiv_pos_site_id
_symmetry_equiv_pos_as_xyz
1 x,y,z
2 -x,1/2+y,1/2-z
3 -x,-y,-z
4 x,1/2-y,1/2+z
_cell_length_a                   10.0858(9)
_cell_length_b                   3.8057(4)
_cell_length_c                   14.5664(13)
_cell_angle_alpha                90
_cell_angle_beta                 100.648(2)
_cell_angle_gamma                90
_cell_volume                     549.482
loop_
_atom_site_label
_atom_site_type_symbol
_atom_site_fract_x
_atom_site_fract_y
_atom_site_fract_z
Cd1 Cd 0.5000 0.0000 0.0000
S1 S 0.74905(6) -0.13548(18) 0.03545(4)
O1 O 0.53113(18) -0.4725(4) -0.10234(13)
N1 N 0.6545(2) -0.4767(4) -0.12570(15)
C1 C 0.6641(2) -0.6343(7) -0.20834(15)
H1 H 0.5866 -0.7206 -0.2464
C2 C 0.7853(3) -0.6671(7) -0.23603(16)
H2 H 0.7911 -0.7763 -0.2923
C3 C 0.8996(3) -0.5352(6) -0.1791(2)
H3 H 0.9836 -0.5609 -0.1960
C4 C 0.8884(2) -0.3655(7) -0.09730(17)
H4 H 0.9651 -0.2691 -0.0606
C5 C 0.7636(2) -0.3350(6) -0.06810(14)
Cd1_2 Cd 0.5000 -1.0000 0.0000
Cd1_3 Cd 0.5000 1.0000 0.0000
S1B S 0.25095(6) 0.13548(18) -0.03545(4)
O1B O 0.46887(18) 0.4725(4) 0.10234(13)
O1_2 O 0.53113(18) 0.5275(4) -0.10234(13)
O1B_2 O 0.46887(18) -0.5275(4) 0.10234(13)
N1B N 0.3455(2) 0.4767(4) 0.12570(15)
C1B C 0.3359(2) 0.6343(7) 0.20834(15)
H1B H 0.4134 0.7206 0.2464
C2B C 0.2147(3) 0.6671(7) 0.23603(16)
H2B H 0.2089 0.7763 0.2923
C3B C 0.1004(3) 0.5352(6) 0.1791(2)
H3B H 0.0164 0.5609 0.1960
C4B C 0.1116(2) 0.3655(7) 0.09730(17)
H4B H 0.0349 0.2691 0.0606
C5B C 0.2364(2) 0.3350(6) 0.06810(14)
loop_
_geom_bond_atom_site_label_1
_geom_bond_atom_site_label_2
_geom_bond_site_symmetry_1
_geom_bond_site_symmetry_2
Cd1 S1 1_555 1_555
S1 C5 1_555 1_555
O1 Cd1 1_555 1_555
N1 O1 1_555 1_555
C1 N1 1_555 1_555
H1 C1 1_555 1_555
C2 C1 1_555 1_555
H2 C2 1_555 1_555
C3 C2 1_555 1_555
H3 C3 1_555 1_555
C4 C3 1_555 1_555
H4 C4 1_555 1_555
C5 N1 1_555 1_555
Cd1_2 O1 1_555 1_555
Cd1_3 O1B 1_555 1_555
S1B Cd1 1_555 1_555
O1B Cd1 1_555 1_555
O1_2 Cd1 1_555 1_555
O1B_2 Cd1 1_555 1_555
N1B O1B 1_555 1_555
C1B N1B 1_555 1_555
H1B C1B 1_555 1_555
C2B C1B 1_555 1_555
H2B C2B 1_555 1_555
C3B C2B 1_555 1_555
H3B C3B 1_555 1_555
C4B C3B 1_555 1_555
H4B C4B 1_555 1_555
C5B S1B 1_555 1_555
C4 C5 1_555 1_555
Cd1_2 O1B_2 1_555 1_555
Cd1_3 O1_2 1_555 1_555
N1B C5B 1_555 1_555
C4B C5B 1_555 1_555

#END
