
#######################################################################
#
#                 Cambridge Crystallographic Data Centre
#                                CCDC 
#
#######################################################################
#
# If this CIF has been generated from an entry in the Cambridge 
# Structural Database, then it will include bibliographic, chemical, 
# crystal, experimental, refinement or atomic coordinate data resulting 
# from the CCDC's data processing and validation procedures.
#
#######################################################################

data_MEHGUD
_symmetry_cell_setting           monoclinic
_symmetry_space_group_name_H-M   'P 21'
_symmetry_Int_Tables_number      4
_space_group_name_Hall           'P 2yb'
loop_
_symmetry_equiv_pos_site_id
_symmetry_equiv_pos_as_xyz
1 x,y,z
2 -x,1/2+y,-z
_cell_length_a                   9.5690(19)
_cell_length_b                   17.605(4)
_cell_length_c                   10.472(2)
_cell_angle_alpha                90
_cell_angle_beta                 114.97(3)
_cell_angle_gamma                90
_cell_volume                     1599.24
loop_
_atom_site_label
_atom_site_type_symbol
_atom_site_fract_x
_atom_site_fract_y
_atom_site_fract_z
Zn1 Zn 0.59752(2) 0.045068(14) 0.67621(2)
N1 N 0.3933(2) 0.08300(11) 0.66123(18)
N2 N 0.7143(2) 0.10601(11) 0.85835(19)
N3 N 0.8002(2) -0.00298(10) 0.71217(19)
N4 N 0.4834(2) -0.03893(10) 0.51309(18)
C1 C 0.2519(2) 0.06387(12) 0.5595(2)
C2 C 0.1335(2) 0.10891(13) 0.5756(2)
C3 C 0.2072(3) 0.15410(13) 0.6916(2)
C4 C 0.3716(2) 0.13759(12) 0.7452(2)
C5 C 0.4890(3) 0.17005(13) 0.8621(2)
H1 H 0.456(3) 0.2054(16) 0.911(3)
C6 C 0.6481(3) 0.15602(13) 0.9153(2)
C7 C 0.7637(3) 0.19224(17) 1.0379(3)
C8 C 0.9016(3) 0.16203(15) 1.0557(3)
C9 C 0.8708(3) 0.10947(13) 0.9403(2)
C10 C 0.9806(2) 0.06746(13) 0.9153(2)
H2 H 1.095(3) 0.0741(15) 0.977(3)
C11 C 0.9496(2) 0.01491(13) 0.8069(2)
C12 C 1.0602(2) -0.02978(13) 0.7784(2)
C13 C 0.9709(3) -0.07572(13) 0.6650(2)
C14 C 0.8145(2) -0.05756(12) 0.6291(2)
C15 C 0.7085(3) -0.10126(13) 0.5174(2)
C16 C 0.5514(3) -0.09379(13) 0.4652(2)
C17 C 0.4325(3) -0.14327(13) 0.3545(2)
H3 H 0.444(3) -0.1436(18) 0.261(3)
C18 C 0.2782(3) -0.10428(13) 0.3307(2)
H4 H 0.217(4) -0.1416(19) 0.347(3)
C19 C 0.3291(2) -0.04149(12) 0.4401(2)
C20 C 0.2234(3) 0.00657(13) 0.4587(2)
H5 H 0.121(4) -0.0026(18) 0.393(3)
C21 C -0.0351(3) 0.10336(17) 0.4775(3)
H6 H -0.083(4) 0.1474(18) 0.455(3)
H7 H -0.093(3) 0.0769(17) 0.527(3)
H8 H -0.046(4) 0.081(2) 0.396(4)
C22 C 0.1403(3) 0.20958(15) 0.7572(3)
C23 C -0.0316(3) 0.21650(16) 0.7041(3)
H9 H -0.073(4) 0.2406(19) 0.610(3)
H10 H -0.061(4) 0.243(2) 0.774(3)
H11 H -0.086(4) 0.163(2) 0.687(3)
C24 C 0.7325(3) 0.25145(19) 1.1257(3)
H12 H 0.6216 0.2617 1.0867
H13 H 0.7876 0.2983 1.1250
H14 H 0.7681 0.2330 1.2226
C25 C 1.0579(3) 0.18162(19) 1.1711(3)
H15 H 1.105(3) 0.1785(16) 1.274(3)
H16 H 1.143(6) 0.138(3) 1.198(5)
C26 C 1.1210(4) 0.2552(2) 1.1402(4)
H17 H 1.133(6) 0.243(3) 1.037(5)
H18 H 1.021(6) 0.302(3) 1.133(5)
H19 H 1.244(6) 0.269(3) 1.235(5)
C27 C 1.2313(3) -0.02621(16) 0.8537(3)
H20 H 1.265(5) -0.061(2) 0.932(4)
H21 H 1.281(4) -0.031(2) 0.797(4)
H22 H 1.261(5) 0.023(3) 0.892(4)
C28 C 0.9744(3) -0.13425(14) 0.5673(2)
C29 C 0.8046(3) -0.15543(15) 0.4733(3)
H23 H 0.787(5) -0.214(3) 0.484(4)
H24 H 0.786(4) -0.148(2) 0.371(3)
C30 C 0.4394(3) -0.22705(13) 0.3970(2)
H25 H 0.536(3) -0.2505(17) 0.402(3)
H26 H 0.356(4) -0.2553(17) 0.329(3)
C31 C 0.4349(3) -0.23807(13) 0.5393(2)
H27 H 0.520(3) -0.2157(16) 0.615(3)
H28 H 0.324(4) -0.2140(19) 0.532(3)
C32 C 0.4378(3) -0.32056(14) 0.5786(3)
C33 C 0.4848(5) -0.40672(19) 0.7631(4)
H29 H 0.5224 -0.4074 0.8659
H30 H 0.5520 -0.4383 0.7357
H31 H 0.3795 -0.4268 0.7198
C34 C 0.1890(4) -0.07461(19) 0.1810(3)
H32 H 0.095(4) -0.048(3) 0.160(4)
H33 H 0.256(4) -0.040(2) 0.158(3)
H34 H 0.157(5) -0.119(3) 0.113(4)
O1 O 0.2152(13) 0.2563(5) 0.8371(11)
O2 O 1.0852(2) -0.16402(11) 0.5583(2)
O3 O 0.4009(2) -0.37332(10) 0.49687(19)
O4 O 0.4857(3) -0.32968(11) 0.71614(19)
Zn1A Zn 0.40248(2) -0.454932(14) 0.32379(2)
O3A O 0.5991(2) 0.12668(10) 0.50313(19)
Cl1 Cl 0.57827(9) -0.10462(6) 0.86510(10)
Cl2 Cl 0.7600(8) -0.0325(4) 1.1473(8)
C35 C 0.7570(4) -0.08773(18) 1.0066(3)
Cl3? Cl 0.7140(9) -0.0370(5) 1.1322(9)
O5? O 0.2272(17) 0.2398(8) 0.8724(14)
loop_
_geom_bond_atom_site_label_1
_geom_bond_atom_site_label_2
_geom_bond_site_symmetry_1
_geom_bond_site_symmetry_2
Zn1 N1 1_555 1_555
Cl1 C35 1_555 1_555
Cl2 C35 1_555 1_555
N1 C1 1_555 1_555
N2 Zn1 1_555 1_555
N3 Zn1 1_555 1_555
N4 Zn1 1_555 1_555
C1 C2 1_555 1_555
C2 C3 1_555 1_555
C3 C4 1_555 1_555
C4 N1 1_555 1_555
C5 C4 1_555 1_555
H1 C5 1_555 1_555
C6 N2 1_555 1_555
C7 C6 1_555 1_555
C8 C7 1_555 1_555
C9 N2 1_555 1_555
C10 C9 1_555 1_555
H2 C10 1_555 1_555
C11 N3 1_555 1_555
C12 C11 1_555 1_555
C13 C12 1_555 1_555
C14 N3 1_555 1_555
C15 C14 1_555 1_555
C16 N4 1_555 1_555
C17 C16 1_555 1_555
H3 C17 1_555 1_555
C18 C17 1_555 1_555
H4 C18 1_555 1_555
C19 N4 1_555 1_555
C20 C1 1_555 1_555
H5 C20 1_555 1_555
C21 C2 1_555 1_555
H6 C21 1_555 1_555
H7 C21 1_555 1_555
H8 C21 1_555 1_555
C22 C3 1_555 1_555
C23 C22 1_555 1_555
H9 C23 1_555 1_555
H10 C23 1_555 1_555
H11 C23 1_555 1_555
C24 C7 1_555 1_555
H12 C24 1_555 1_555
H13 C24 1_555 1_555
H14 C24 1_555 1_555
C25 C8 1_555 1_555
H15 C25 1_555 1_555
H16 C25 1_555 1_555
C26 C25 1_555 1_555
H17 C26 1_555 1_555
H18 C26 1_555 1_555
H19 C26 1_555 1_555
C27 C12 1_555 1_555
H20 C27 1_555 1_555
H21 C27 1_555 1_555
H22 C27 1_555 1_555
C28 C13 1_555 1_555
C29 C15 1_555 1_555
H23 C29 1_555 1_555
H24 C29 1_555 1_555
C30 C17 1_555 1_555
H25 C30 1_555 1_555
H26 C30 1_555 1_555
C31 C30 1_555 1_555
H27 C31 1_555 1_555
H28 C31 1_555 1_555
C32 C31 1_555 1_555
C33 H29 1_555 1_555
H30 C33 1_555 1_555
H31 C33 1_555 1_555
C34 C18 1_555 1_555
H32 C34 1_555 1_555
H33 C34 1_555 1_555
H34 C34 1_555 1_555
O1 C22 1_555 1_555
O2 C28 1_555 1_555
O3 C32 1_555 1_555
O4 C32 1_555 1_555
Zn1A O3 1_555 1_555
O3A Zn1 1_555 1_555
C5 C6 1_555 1_555
C8 C9 1_555 1_555
C10 C11 1_555 1_555
C13 C14 1_555 1_555
C15 C16 1_555 1_555
C18 C19 1_555 1_555
C19 C20 1_555 1_555
C28 C29 1_555 1_555
C33 O4 1_555 1_555

#END
