
#######################################################################
#
#                 Cambridge Crystallographic Data Centre
#                                CCDC 
#
#######################################################################
#
# If this CIF has been generated from an entry in the Cambridge 
# Structural Database, then it will include bibliographic, chemical, 
# crystal, experimental, refinement or atomic coordinate data resulting 
# from the CCDC's data processing and validation procedures.
#
#######################################################################

data_MEHKIU
_symmetry_cell_setting           monoclinic
_symmetry_space_group_name_H-M   'P 21/c'
_symmetry_Int_Tables_number      14
_space_group_name_Hall           '-P 2ybc'
loop_
_symmetry_equiv_pos_site_id
_symmetry_equiv_pos_as_xyz
1 x,y,z
2 -x,1/2+y,1/2-z
3 -x,-y,-z
4 x,1/2-y,1/2+z
_cell_length_a                   11.031(2)
_cell_length_b                   12.815(3)
_cell_length_c                   9.3410(2)
_cell_angle_alpha                90
_cell_angle_beta                 104.16(3)
_cell_angle_gamma                90
_cell_volume                     1280.34
loop_
_atom_site_label
_atom_site_type_symbol
_atom_site_fract_x
_atom_site_fract_y
_atom_site_fract_z
Cu1 Cu 0.0000 0.0000 0.0000
Cl1 Cl -0.65765(4) -0.20499(4) 0.26572(6)
N1 N 0.06727(13) -0.02366(10) 0.21881(15)
O1 O -0.16815(10) -0.04350(9) 0.01654(12)
O2 O -0.21582(11) 0.10377(9) 0.11915(13)
O3 O -0.28961(13) -0.21223(10) 0.03436(17)
H1 H -0.2374 -0.1756 0.0094
O4 O 0.01139(11) -0.30882(9) 0.42523(13)
H2 H 0.0782 -0.3277 0.4102
C1 C -0.23577(16) 0.01124(12) 0.08387(18)
C2 C -0.34244(15) -0.04452(13) 0.12298(17)
C3 C -0.36209(16) -0.15195(13) 0.09946(19)
C4 C -0.46104(17) -0.20144(14) 0.1424(2)
H3 H -0.4751 -0.2725 0.1264
C5 C -0.53707(16) -0.14315(14) 0.2085(2)
C6 C -0.52075(16) -0.03662(14) 0.23237(19)
H4 H -0.5734 0.0013 0.2768
C7 C -0.42336(16) 0.01141(13) 0.18783(19)
H5 H -0.4118 0.0829 0.2016
C8 C 0.15524(15) 0.04049(13) 0.29766(18)
H6 H 0.1816 0.0970 0.2507
C9 C 0.20778(16) 0.02487(13) 0.44691(19)
H7 H 0.2681 0.0704 0.4994
C10 C 0.16872(16) -0.05993(13) 0.51653(18)
H8 H 0.2041 -0.0724 0.6161
C11 C 0.07692(15) -0.12612(12) 0.43750(18)
C12 C 0.02905(15) -0.10490(12) 0.28791(17)
H9 H -0.0321 -0.1489 0.2334
C13 C 0.02994(17) -0.21702(13) 0.51204(18)
H10 H 0.0897 -0.2315 0.6048
H11 H -0.0485 -0.1976 0.5342
Cu1C Cu 0.0000 -0.5000 0.5000
Cu1C_2 Cu 0.0000 0.5000 -0.5000
Cl1B Cl 0.65765(4) 0.20499(4) -0.26572(6)
N1B N -0.06727(13) 0.02366(10) -0.21881(15)
O1B O 0.16815(10) 0.04350(9) -0.01654(12)
O2B O 0.21582(11) -0.10377(9) -0.11915(13)
O3B O 0.28961(13) 0.21223(10) -0.03436(17)
H1B H 0.2374 0.1756 -0.0094
O4B O -0.01139(11) 0.30882(9) -0.42523(13)
O4C O 0.01139(11) -0.19118(9) -0.07477(13)
O4A O -0.01139(11) 0.19118(9) 0.07477(13)
H2B H -0.0782 0.3277 -0.4102
H2C H 0.0782 -0.1723 -0.0898
H2A H -0.0782 0.1723 0.0898
C1B C 0.23577(16) -0.01124(12) -0.08387(18)
C2B C 0.34244(15) 0.04452(13) -0.12298(17)
C3B C 0.36209(16) 0.15195(13) -0.09946(19)
C4B C 0.46104(17) 0.20144(14) -0.1424(2)
H3B H 0.4751 0.2725 -0.1264
C5B C 0.53707(16) 0.14315(14) -0.2085(2)
C6B C 0.52075(16) 0.03662(14) -0.23237(19)
H4B H 0.5734 -0.0013 -0.2768
C7B C 0.42336(16) -0.01141(13) -0.18783(19)
H5B H 0.4118 -0.0829 -0.2016
C8B C -0.15524(15) -0.04049(13) -0.29766(18)
H6B H -0.1816 -0.0970 -0.2507
C9B C -0.20778(16) -0.02487(13) -0.44691(19)
H7B H -0.2681 -0.0704 -0.4994
C10B C -0.16872(16) 0.05993(13) -0.51653(18)
H8B H -0.2041 0.0724 -0.6161
C11B C -0.07692(15) 0.12612(12) -0.43750(18)
C12B C -0.02905(15) 0.10490(12) -0.28791(17)
H9B H 0.0321 0.1489 -0.2334
C13B C -0.02994(17) 0.21702(13) -0.51204(18)
H10B H -0.0897 0.2315 -0.6048
H11B H 0.0485 0.1976 -0.5342
loop_
_geom_bond_atom_site_label_1
_geom_bond_atom_site_label_2
_geom_bond_site_symmetry_1
_geom_bond_site_symmetry_2
Cu1 N1 1_555 1_555
Cl1 C5 1_555 1_555
N1 C8 1_555 1_555
O1 Cu1 1_555 1_555
O2 C1 1_555 1_555
O3 H1 1_555 1_555
O4 H2 1_555 1_555
C1 O1 1_555 1_555
C2 C1 1_555 1_555
C3 O3 1_555 1_555
C4 C3 1_555 1_555
H3 C4 1_555 1_555
C5 C4 1_555 1_555
C6 C5 1_555 1_555
H4 C6 1_555 1_555
C7 C2 1_555 1_555
H5 C7 1_555 1_555
C8 H6 1_555 1_555
C9 C8 1_555 1_555
H7 C9 1_555 1_555
C10 C9 1_555 1_555
H8 C10 1_555 1_555
C11 C10 1_555 1_555
C12 N1 1_555 1_555
H9 C12 1_555 1_555
C13 O4 1_555 1_555
H10 C13 1_555 1_555
H11 C13 1_555 1_555
Cu1C O4 1_555 1_555
Cu1C_2 O4B 1_555 1_555
Cl1B C5B 1_555 1_555
N1B Cu1 1_555 1_555
O1B Cu1 1_555 1_555
O2B C1B 1_555 1_555
O3B H1B 1_555 1_555
O4B H2B 1_555 1_555
O4C Cu1 1_555 1_555
O4A Cu1 1_555 1_555
H2C O4C 1_555 1_555
H2A O4A 1_555 1_555
C1B O1B 1_555 1_555
C2B C1B 1_555 1_555
C3B O3B 1_555 1_555
C4B C3B 1_555 1_555
H3B C4B 1_555 1_555
C5B C4B 1_555 1_555
C6B C5B 1_555 1_555
H4B C6B 1_555 1_555
C7B C2B 1_555 1_555
H5B C7B 1_555 1_555
C8B N1B 1_555 1_555
H6B C8B 1_555 1_555
C9B C8B 1_555 1_555
H7B C9B 1_555 1_555
C10B C9B 1_555 1_555
H8B C10B 1_555 1_555
C11B C10B 1_555 1_555
C12B N1B 1_555 1_555
H9B C12B 1_555 1_555
C13B O4B 1_555 1_555
H10B C13B 1_555 1_555
H11B C13B 1_555 1_555
C2 C3 1_555 1_555
C6 C7 1_555 1_555
C11 C12 1_555 1_555
C11 C13 1_555 1_555
C2B C3B 1_555 1_555
C6B C7B 1_555 1_555
C11B C12B 1_555 1_555
C11B C13B 1_555 1_555

#END
