
#######################################################################
#
#                 Cambridge Crystallographic Data Centre
#                                CCDC 
#
#######################################################################
#
# If this CIF has been generated from an entry in the Cambridge 
# Structural Database, then it will include bibliographic, chemical, 
# crystal, experimental, refinement or atomic coordinate data resulting 
# from the CCDC's data processing and validation procedures.
#
#######################################################################

data_MEHMUH
_symmetry_cell_setting           orthorhombic
_symmetry_space_group_name_H-M   'P 21 21 21'
_symmetry_Int_Tables_number      19
_space_group_name_Hall           'P 2ac 2ab'
loop_
_symmetry_equiv_pos_site_id
_symmetry_equiv_pos_as_xyz
1 x,y,z
2 1/2-x,-y,1/2+z
3 1/2+x,1/2-y,-z
4 -x,1/2+y,1/2-z
_cell_length_a                   5.538(1)
_cell_length_b                   8.414(1)
_cell_length_c                   25.270(8)
_cell_angle_alpha                90
_cell_angle_beta                 90
_cell_angle_gamma                90
_cell_volume                     1177.5
loop_
_atom_site_label
_atom_site_type_symbol
_atom_site_fract_x
_atom_site_fract_y
_atom_site_fract_z
Zn1 Zn 0.2040(2) 0.4614(1) 0.23140(4)
P1 P 0.6937(5) 0.2863(3) 0.21305(8)
P2 P 0.5069(5) 0.5191(3) 0.12889(8)
O1 O 0.876(1) 0.4004(8) 0.2349(3)
O2 O 0.776(1) 0.1161(7) 0.2135(2)
O3 O 0.453(1) 0.3051(9) 0.2402(2)
O4 O 0.269(1) 0.5325(8) 0.1575(2)
C1 C 0.653(2) 0.333(1) 0.1438(3)
C2 C 0.710(2) 0.676(1) 0.1439(3)
C3 C 0.455(2) 0.515(1) 0.0585(3)
C4 C 0.614(2) 0.583(1) 0.0228(4)
C5 C 0.573(2) 0.565(2) -0.0316(4)
C6 C 0.378(2) 0.484(1) -0.0490(4)
C7 C 0.219(2) 0.420(1) -0.0144(4)
C8 C 0.256(2) 0.434(1) 0.0400(3)
Zn1C Zn 0.7960(2) -0.0386(1) 0.26860(4)
O2C O 0.224(1) 0.6161(7) 0.2865(2)
O1_2 O -0.124(1) 0.4004(8) 0.2349(3)
Zn1_2 Zn 1.2040(2) 0.4614(1) 0.23140(4)
O5 O 0.243(2) -0.018(1) -0.3459(2)
loop_
_geom_bond_atom_site_label_1
_geom_bond_atom_site_label_2
_geom_bond_site_symmetry_1
_geom_bond_site_symmetry_2
Zn1 O3 1_555 1_555
P1 O1 1_555 1_555
P2 O4 1_555 1_555
O1 Zn1_2 1_555 1_555
O2 P1 1_555 1_555
O3 P1 1_555 1_555
O4 Zn1 1_555 1_555
C1 P1 1_555 1_555
C2 P2 1_555 1_555
C3 P2 1_555 1_555
C4 C3 1_555 1_555
C5 C4 1_555 1_555
C6 C5 1_555 1_555
C7 C6 1_555 1_555
C8 C3 1_555 1_555
Zn1C O2 1_555 1_555
O2C Zn1 1_555 1_555
O1_2 Zn1 1_555 1_555
P2 C1 1_555 1_555
C7 C8 1_555 1_555

#END
