
#######################################################################
#
#                 Cambridge Crystallographic Data Centre
#                                CCDC 
#
#######################################################################
#
# If this CIF has been generated from an entry in the Cambridge 
# Structural Database, then it will include bibliographic, chemical, 
# crystal, experimental, refinement or atomic coordinate data resulting 
# from the CCDC's data processing and validation procedures.
#
#######################################################################

data_MEHPAQ
_symmetry_cell_setting           orthorhombic
_symmetry_space_group_name_H-M   'P 21 21 21'
_symmetry_Int_Tables_number      19
_space_group_name_Hall           'P 2ac 2ab'
loop_
_symmetry_equiv_pos_site_id
_symmetry_equiv_pos_as_xyz
1 x,y,z
2 1/2-x,-y,1/2+z
3 1/2+x,1/2-y,-z
4 -x,1/2+y,1/2-z
_cell_length_a                   7.2214(5)
_cell_length_b                   10.295(1)
_cell_length_c                   11.041(1)
_cell_angle_alpha                90
_cell_angle_beta                 90
_cell_angle_gamma                90
_cell_volume                     820.836
loop_
_atom_site_label
_atom_site_type_symbol
_atom_site_fract_x
_atom_site_fract_y
_atom_site_fract_z
Cu1 Cu -0.39940(9) 0.06697(7) -0.02927(6)
O1 O -0.3112(6) -0.1161(4) -0.0193(5)
O3 O -0.5186(6) 0.2373(4) -0.0169(4)
O4 O -0.6246(6) 0.3797(4) 0.1186(4)
O5 O -0.9751(6) -0.0291(4) 0.3156(4)
O6 O -0.7851(5) 0.0501(5) 0.4530(3)
N1 N -0.3086(6) 0.1091(5) 0.1371(4)
C1 C -0.5280(8) 0.2837(6) 0.0899(5)
C2 C -0.4211(8) 0.2166(5) 0.1899(5)
C3 C -0.5495(8) 0.1678(6) 0.2880(5)
C4 C -0.7080(8) 0.0818(7) 0.2438(5)
C5 C -0.8270(8) 0.0324(6) 0.3459(5)
H1 H -0.3302 0.2848 0.2292
H2 H -0.2239 -0.1307 0.0291
H3 H -0.3807 -0.1801 -0.0403
H4 H -0.3201 0.0355 0.1870
H6 H -0.1832 0.1359 0.1326
H8 H -0.5059 0.1163 0.3573
H9 H -0.6115 0.2346 0.3265
H10 H -0.6661 0.0223 0.1892
H11 H -0.7707 0.1530 0.1867
O4B O -0.1246(6) 0.1203(4) -0.1186(4)
Cu1B Cu -0.89940(9) 0.43303(7) 0.02927(6)
Cu1A Cu -1.10060(9) -0.06697(7) 0.47073(6)
O5A O -0.5249(6) 0.0291(4) -0.1844(4)
O6A O -0.7149(5) -0.0501(5) -0.0470(3)
O2 O 0.0143(6) -0.1537(4) 0.0945(4)
H5 H -0.0042 -0.1031 0.1656
H7 H 0.0943 -0.1105 0.0560
loop_
_geom_bond_atom_site_label_1
_geom_bond_atom_site_label_2
_geom_bond_site_symmetry_1
_geom_bond_site_symmetry_2
Cu1 O1 1_555 1_555
O1 H2 1_555 1_555
O2 H5 1_555 1_555
O3 Cu1 1_555 1_555
O4 C1 1_555 1_555
O5 C5 1_555 1_555
O6 C5 1_555 1_555
N1 Cu1 1_555 1_555
C1 O3 1_555 1_555
C2 N1 1_555 1_555
C3 C2 1_555 1_555
C4 C3 1_555 1_555
C5 C4 1_555 1_555
H1 C2 1_555 1_555
H3 O1 1_555 1_555
H4 N1 1_555 1_555
H6 N1 1_555 1_555
H7 O2 1_555 1_555
H8 C3 1_555 1_555
H9 C3 1_555 1_555
H10 C4 1_555 1_555
H11 C4 1_555 1_555
O4B Cu1 1_555 1_555
Cu1B O4 1_555 1_555
Cu1A O5 1_555 1_555
O5A Cu1 1_555 1_555
O6A Cu1 1_555 1_555
O6 Cu1A 1_555 1_555
C1 C2 1_555 1_555

#END
