
#######################################################################
#
#                 Cambridge Crystallographic Data Centre
#                                CCDC 
#
#######################################################################
#
# If this CIF has been generated from an entry in the Cambridge 
# Structural Database, then it will include bibliographic, chemical, 
# crystal, experimental, refinement or atomic coordinate data resulting 
# from the CCDC's data processing and validation procedures.
#
#######################################################################

data_MEHSUO
_symmetry_cell_setting           monoclinic
_symmetry_space_group_name_H-M   'P 21/n'
_symmetry_Int_Tables_number      14
_space_group_name_Hall           '-P 2yn'
loop_
_symmetry_equiv_pos_site_id
_symmetry_equiv_pos_as_xyz
1 x,y,z
2 1/2-x,1/2+y,1/2-z
3 -x,-y,-z
4 1/2+x,1/2-y,1/2+z
_cell_length_a                   15.3338(2)
_cell_length_b                   15.7555(3)
_cell_length_c                   20.0979(3)
_cell_angle_alpha                90
_cell_angle_beta                 102.298(5)
_cell_angle_gamma                90
_cell_volume                     4744.07
loop_
_atom_site_label
_atom_site_type_symbol
_atom_site_fract_x
_atom_site_fract_y
_atom_site_fract_z
N9 N 0.6929(6) 0.2198(6) 0.3110(5)
O13 O 0.7711(6) 0.2140(6) 0.3359(6)
O14 O 0.6635(6) 0.2315(8) 0.2481(5)
C29 C 0.6283(8) 0.2158(9) 0.3513(6)
H23 H 0.5705 0.2215 0.3231
H24 H 0.6327 0.1628 0.3743
H25 H 0.6383 0.2605 0.3838
C30 C 0.5000 0.0000 0.5000
O15 O 0.641(1) 0.032(1) 0.5678(8)
C31 C 0.571(2) 0.058(2) 0.511(1)
O15B O 0.359(1) -0.032(1) 0.4322(8)
C31B C 0.429(2) -0.058(2) 0.489(1)
Pb1 Pb 0.30203(2) -0.37869(2) 0.15079(1)
Pb2 Pb 0.28440(2) 0.06257(2) 0.07649(1)
N1 N 0.3788(4) -0.5175(4) 0.1705(3)
C1 C 0.3298(5) -0.5857(5) 0.1779(4)
C2 C 0.3669(6) -0.6647(5) 0.1934(4)
C3 C 0.4563(6) -0.6728(5) 0.2016(4)
C4 C 0.5078(6) -0.6039(5) 0.1939(4)
C5 C 0.4680(5) -0.5262(5) 0.1794(4)
N2 N 0.5156(4) -0.4525(4) 0.1727(3)
C6 C 0.6131(5) -0.4503(5) 0.1885(4)
N3 N 0.4705(4) -0.3797(4) 0.1531(3)
C7 C 0.5124(5) -0.3115(5) 0.1430(4)
C8 C 0.4642(5) -0.2321(5) 0.1263(3)
N4 N 0.3743(4) -0.2322(4) 0.1238(3)
C9 C 0.3320(5) -0.1581(5) 0.1124(3)
N5 N 0.3707(4) -0.0846(4) 0.1017(3)
C10 C 0.4591(5) -0.0840(5) 0.1032(4)
C11 C 0.5081(5) -0.1589(5) 0.1165(4)
C12 C 0.2343(5) -0.1557(5) 0.1083(3)
C13 C 0.1986(5) -0.0969(5) 0.1463(4)
C14 C 0.1058(5) -0.0904(6) 0.1391(4)
C15 C 0.0509(5) -0.1436(6) 0.0949(5)
C16 C 0.0847(5) -0.2049(6) 0.0573(4)
C17 C 0.1777(5) -0.2103(6) 0.0649(4)
C18 C 0.5004(5) -0.0050(5) 0.0917(3)
N6 N 0.4517(4) 0.0624(4) 0.0761(3)
N7 N 0.4899(4) 0.1376(4) 0.0685(3)
C19 C 0.5874(5) 0.1466(6) 0.0863(5)
C20 C 0.4335(5) 0.2065(5) 0.0495(3)
N8 N 0.3481(4) 0.1962(4) 0.0493(3)
C21 C 0.2928(5) 0.2624(5) 0.0313(4)
C22 C 0.3194(6) 0.3416(5) 0.0145(4)
C23 C 0.4094(6) 0.3513(5) 0.0149(4)
C24 C 0.4659(5) 0.2852(5) 0.0319(4)
S1 S 0.3624(1) -0.3116(1) 0.3126(1)
O1 O 0.3890(4) -0.3831(4) 0.2781(3)
O2 O 0.3282(4) -0.3310(4) 0.3713(3)
O3 O 0.3098(4) -0.2528(5) 0.2657(3)
C25 C 0.4655(5) -0.2543(5) 0.3447(4)
F1 F 0.5200(4) -0.3000(4) 0.3901(3)
F2 F 0.4495(4) -0.1836(3) 0.3749(3)
F3 F 0.5052(3) -0.2340(4) 0.2945(3)
S2 S 0.3139(2) -0.4023(2) -0.0275(1)
O4 O 0.3840(4) -0.4455(5) -0.0497(3)
O5 O 0.2858(6) -0.4384(6) 0.0279(4)
O6 O 0.3263(5) -0.3118(5) -0.0177(4)
C26 C 0.2228(7) -0.4083(9) -0.0984(6)
F4 F 0.1526(4) -0.3692(6) -0.0827(4)
F5 F 0.2349(7) -0.3820(6) -0.1518(3)
F6 F 0.2043(5) -0.4977(5) -0.1038(4)
S3 S 0.1155(1) -0.4121(1) 0.2386(1)
O7 O 0.0873(4) -0.3417(4) 0.1955(3)
O8 O 0.1897(4) -0.4578(4) 0.2249(3)
O9 O 0.1225(4) -0.3956(4) 0.3111(3)
C27 C 0.0230(6) -0.4868(6) 0.2190(4)
F7 F -0.0478(4) -0.4585(5) 0.2399(3)
F8 F 0.0000(4) -0.5022(4) 0.1534(2)
F9 F 0.0460(4) -0.5605(3) 0.2497(3)
S4 S 0.2291(1) 0.0545(1) -0.0932(1)
O10 O 0.3066(4) 0.0231(4) -0.0441(3)
O11 O 0.1780(4) 0.1106(4) -0.0604(3)
O12 O 0.2461(5) 0.0776(5) -0.1574(3)
C28 C 0.1585(6) -0.0395(6) -0.1101(5)
F10 F 0.1377(4) -0.0640(4) -0.0532(3)
F11 F 0.1984(4) -0.1013(4) -0.1355(3)
F12 F 0.0836(4) -0.0214(4) -0.1556(3)
H1 H 0.2670 -0.5794 0.1722
H2 H 0.3306 -0.7123 0.1982
H3 H 0.4836 -0.7266 0.2127
H4 H 0.5705 -0.6099 0.1986
H5 H 0.6329 -0.3948 0.1808
H6 H 0.6346 -0.4653 0.2349
H7 H 0.6352 -0.4895 0.1602
H8 H 0.5752 -0.3131 0.1465
H9 H 0.5706 -0.1591 0.1188
H10 H 0.2370 -0.0608 0.1773
H11 H 0.0812 -0.0495 0.1646
H12 H -0.0119 -0.1385 0.0898
H13 H 0.0460 -0.2421 0.0275
H14 H 0.2023 -0.2518 0.0400
H15 H 0.5631 -0.0021 0.0954
H16 H 0.6032 0.2033 0.0779
H17 H 0.6084 0.1336 0.1331
H18 H 0.6136 0.1088 0.0594
H19 H 0.2312 0.2540 0.0301
H20 H 0.2783 0.3872 0.0033
H21 H 0.4314 0.4044 0.0031
H22 H 0.5275 0.2917 0.0321
Pb1A Pb 0.19797(2) -0.87869(2) 0.34921(1)
Pb1A_2 Pb 0.19797(2) 0.12131(2) 0.34921(1)
Pb2A Pb 0.21560(2) -0.43743(2) 0.42351(1)
N1A N 0.1212(4) -1.0175(4) 0.3295(3)
C1A C 0.1702(5) -1.0857(5) 0.3221(4)
C2A C 0.1331(6) -1.1647(5) 0.3066(4)
C3A C 0.0437(6) -1.1728(5) 0.2984(4)
C4A C -0.0078(6) -1.1039(5) 0.3061(4)
C5A C 0.0320(5) -1.0262(5) 0.3206(4)
N2A N -0.0156(4) -0.9525(4) 0.3273(3)
C6A C -0.1131(5) -0.9503(5) 0.3115(4)
N3A N 0.0295(4) -0.8797(4) 0.3469(3)
C7A C -0.0124(5) -0.8115(5) 0.3570(4)
C8A C 0.0358(5) -0.7321(5) 0.3737(3)
N4A N 0.1257(4) -0.7322(4) 0.3762(3)
C9A C 0.1680(5) -0.6581(5) 0.3876(3)
N5A N 0.1293(4) -0.5846(4) 0.3983(3)
C10A C 0.0409(5) -0.5840(5) 0.3968(4)
C11A C -0.0081(5) -0.6589(5) 0.3835(4)
C12A C 0.2657(5) -0.6557(5) 0.3917(3)
C13A C 0.3014(5) -0.5969(5) 0.3537(4)
C14A C 0.3942(5) -0.5904(6) 0.3609(4)
C15A C 0.4491(5) -0.6436(6) 0.4051(5)
C16A C 0.4153(5) -0.7049(6) 0.4427(4)
C17A C 0.3223(5) -0.7103(6) 0.4351(4)
C18A C -0.0004(5) -0.5050(5) 0.4083(3)
N6A N 0.0483(4) -0.4376(4) 0.4239(3)
N7A N 0.0101(4) -0.3624(4) 0.4315(3)
C19A C -0.0874(5) -0.3534(6) 0.4137(5)
C20A C 0.0665(5) -0.2935(5) 0.4505(3)
N8A N 0.1519(4) -0.3038(4) 0.4507(3)
C21A C 0.2072(5) -0.2376(5) 0.4687(4)
C22A C 0.1806(6) -0.1584(5) 0.4855(4)
C23A C 0.0906(6) -0.1487(5) 0.4851(4)
C24A C 0.0341(5) -0.2148(5) 0.4681(4)
S1A S 0.1376(1) 0.1884(1) 0.1874(1)
O1A O 0.1110(4) 0.1169(4) 0.2219(3)
O1A_2 O 0.1110(4) -0.8831(4) 0.2219(3)
O2A O 0.1718(4) 0.1690(4) 0.1287(3)
O3A O 0.1902(4) 0.2472(5) 0.2343(3)
C25A C 0.0345(5) 0.2457(5) 0.1553(4)
F1A F -0.0200(4) 0.2000(4) 0.1099(3)
F2A F 0.0505(4) 0.3164(3) 0.1251(3)
F3A F -0.0052(3) 0.2660(4) 0.2055(3)
S2A S 0.1861(2) -0.9023(2) 0.5275(1)
O4A O 0.1160(4) -0.9455(5) 0.5497(3)
O5A O 0.2142(6) -0.9384(6) 0.4721(4)
O6A O 0.1737(5) -0.8118(5) 0.5177(4)
C26A C 0.2772(7) -0.9083(9) 0.5984(6)
F4A F 0.3474(4) -0.8692(6) 0.5827(4)
F5A F 0.2651(7) -0.8820(6) 0.6518(3)
F6A F 0.2957(5) -0.9977(5) 0.6038(4)
S3A S 0.3845(1) 0.0879(1) 0.2614(1)
O7A O 0.4127(4) 0.1583(4) 0.3045(3)
O8A O 0.3103(4) 0.0422(4) 0.2751(3)
O8A_2 O 0.3103(4) -0.9578(4) 0.2751(3)
O9A O 0.3775(4) 0.1044(4) 0.1889(3)
C27A C 0.4770(6) 0.0132(6) 0.2810(4)
F7A F 0.5478(4) 0.0415(5) 0.2601(3)
F8A F 0.5000(4) -0.0022(4) 0.3466(2)
F9A F 0.4540(4) -0.0605(3) 0.2503(3)
S4A S 0.2709(1) -0.4455(1) 0.5932(1)
O10A O 0.1934(4) -0.4769(4) 0.5441(3)
O11A O 0.3220(4) -0.3894(4) 0.5604(3)
O12A O 0.2539(5) -0.4224(5) 0.6574(3)
C28A C 0.3415(6) -0.5395(6) 0.6101(5)
F10A F 0.3623(4) -0.5640(4) 0.5532(3)
F11A F 0.3016(4) -0.6013(4) 0.6355(3)
F12A F 0.4164(4) -0.5214(4) 0.6556(3)
H1A H 0.2330 -1.0794 0.3278
H2A H 0.1694 -1.2123 0.3018
H3A H 0.0164 -1.2266 0.2873
H4A H -0.0705 -1.1099 0.3014
H5A H -0.1329 -0.8948 0.3192
H6A H -0.1346 -0.9653 0.2651
H7A H -0.1352 -0.9895 0.3398
H8A H -0.0752 -0.8131 0.3535
H9A H -0.0706 -0.6591 0.3812
H10A H 0.2630 -0.5608 0.3227
H11A H 0.4188 -0.5495 0.3354
H12A H 0.5119 -0.6385 0.4102
H13A H 0.4540 -0.7421 0.4725
H14A H 0.2977 -0.7518 0.4600
H15A H -0.0631 -0.5021 0.4046
H16A H -0.1032 -0.2967 0.4221
H17A H -0.1084 -0.3664 0.3669
H18A H -0.1136 -0.3912 0.4406
H19A H 0.2688 -0.2460 0.4699
H20A H 0.2217 -0.1128 0.4967
H21A H 0.0686 -0.0956 0.4969
H22A H -0.0275 -0.2083 0.4679
loop_
_geom_bond_atom_site_label_1
_geom_bond_atom_site_label_2
_geom_bond_site_symmetry_1
_geom_bond_site_symmetry_2
Pb1 N1 1_555 1_555
Pb2 N5 1_555 1_555
N1 C1 1_555 1_555
C1 C2 1_555 1_555
C2 C3 1_555 1_555
C3 C4 1_555 1_555
C4 C5 1_555 1_555
C5 N1 1_555 1_555
N2 C5 1_555 1_555
C6 N2 1_555 1_555
N3 Pb1 1_555 1_555
C7 N3 1_555 1_555
C8 C7 1_555 1_555
N4 Pb1 1_555 1_555
C9 N4 1_555 1_555
N5 C9 1_555 1_555
C10 N5 1_555 1_555
C11 C8 1_555 1_555
C12 C9 1_555 1_555
C13 C12 1_555 1_555
C14 C13 1_555 1_555
C15 C14 1_555 1_555
C16 C15 1_555 1_555
C17 C12 1_555 1_555
C18 C10 1_555 1_555
N6 Pb2 1_555 1_555
N7 N6 1_555 1_555
C19 N7 1_555 1_555
C20 N7 1_555 1_555
N8 Pb2 1_555 1_555
C21 N8 1_555 1_555
C22 C21 1_555 1_555
C23 C22 1_555 1_555
C24 C20 1_555 1_555
S1 O1 1_555 1_555
O1 Pb1 1_555 1_555
O2 S1 1_555 1_555
O3 S1 1_555 1_555
C25 S1 1_555 1_555
F1 C25 1_555 1_555
F2 C25 1_555 1_555
F3 C25 1_555 1_555
S2 O4 1_555 1_555
O5 Pb1 1_555 1_555
O6 S2 1_555 1_555
C26 S2 1_555 1_555
F4 C26 1_555 1_555
F5 C26 1_555 1_555
F6 C26 1_555 1_555
S3 O7 1_555 1_555
O8 Pb1 1_555 1_555
O9 S3 1_555 1_555
C27 S3 1_555 1_555
F7 C27 1_555 1_555
F8 C27 1_555 1_555
F9 C27 1_555 1_555
S4 O10 1_555 1_555
O10 Pb2 1_555 1_555
O11 S4 1_555 1_555
O12 S4 1_555 1_555
C28 S4 1_555 1_555
F10 C28 1_555 1_555
F11 C28 1_555 1_555
F12 C28 1_555 1_555
N9 O13 1_555 1_555
O14 N9 1_555 1_555
C29 N9 1_555 1_555
C30 C31 1_555 1_555
O15 C31 1_555 1_555
H1 C1 1_555 1_555
H2 C2 1_555 1_555
H3 C3 1_555 1_555
H4 C4 1_555 1_555
H5 C6 1_555 1_555
H6 C6 1_555 1_555
H7 C6 1_555 1_555
H8 C7 1_555 1_555
H9 C11 1_555 1_555
H10 C13 1_555 1_555
H11 C14 1_555 1_555
H12 C15 1_555 1_555
H13 C16 1_555 1_555
H14 C17 1_555 1_555
H15 C18 1_555 1_555
H16 C19 1_555 1_555
H17 C19 1_555 1_555
H18 C19 1_555 1_555
H19 C21 1_555 1_555
H20 C22 1_555 1_555
H21 C23 1_555 1_555
H22 C24 1_555 1_555
H23 C29 1_555 1_555
H24 C29 1_555 1_555
H25 C29 1_555 1_555
Pb1A N1A 1_555 1_555
Pb1A_2 O1A 1_555 1_555
Pb2A O2 1_555 1_555
N1A C1A 1_555 1_555
C1A C2A 1_555 1_555
C2A C3A 1_555 1_555
C3A C4A 1_555 1_555
C4A C5A 1_555 1_555
C5A N1A 1_555 1_555
N2A C5A 1_555 1_555
C6A N2A 1_555 1_555
N3A Pb1A 1_555 1_555
C7A N3A 1_555 1_555
C8A C7A 1_555 1_555
N4A Pb1A 1_555 1_555
C9A N4A 1_555 1_555
N5A Pb2A 1_555 1_555
C10A N5A 1_555 1_555
C11A C8A 1_555 1_555
C12A C9A 1_555 1_555
C13A C12A 1_555 1_555
C14A C13A 1_555 1_555
C15A C14A 1_555 1_555
C16A C15A 1_555 1_555
C17A C12A 1_555 1_555
C18A C10A 1_555 1_555
N6A Pb2A 1_555 1_555
N7A N6A 1_555 1_555
C19A N7A 1_555 1_555
C20A N7A 1_555 1_555
N8A Pb2A 1_555 1_555
C21A N8A 1_555 1_555
C22A C21A 1_555 1_555
C23A C22A 1_555 1_555
C24A C20A 1_555 1_555
S1A O1A 1_555 1_555
O1A_2 Pb1A 1_555 1_555
O2A Pb2 1_555 1_555
O3A S1A 1_555 1_555
C25A S1A 1_555 1_555
F1A C25A 1_555 1_555
F2A C25A 1_555 1_555
F3A C25A 1_555 1_555
S2A O4A 1_555 1_555
O5A Pb1A 1_555 1_555
O6A S2A 1_555 1_555
C26A S2A 1_555 1_555
F4A C26A 1_555 1_555
F5A C26A 1_555 1_555
F6A C26A 1_555 1_555
S3A O7A 1_555 1_555
O8A Pb1A_2 1_555 1_555
O8A_2 Pb1A 1_555 1_555
O9A Pb2 1_555 1_555
C27A S3A 1_555 1_555
F7A C27A 1_555 1_555
F8A C27A 1_555 1_555
F9A C27A 1_555 1_555
S4A O10A 1_555 1_555
O10A Pb2A 1_555 1_555
O11A S4A 1_555 1_555
O12A S4A 1_555 1_555
C28A S4A 1_555 1_555
F10A C28A 1_555 1_555
F11A C28A 1_555 1_555
F12A C28A 1_555 1_555
O15B C31B 1_555 1_555
C31B C30 1_555 1_555
H1A C1A 1_555 1_555
H2A C2A 1_555 1_555
H3A C3A 1_555 1_555
H4A C4A 1_555 1_555
H5A C6A 1_555 1_555
H6A C6A 1_555 1_555
H7A C6A 1_555 1_555
H8A C7A 1_555 1_555
H9A C11A 1_555 1_555
H10A C13A 1_555 1_555
H11A C14A 1_555 1_555
H12A C15A 1_555 1_555
H13A C16A 1_555 1_555
H14A C17A 1_555 1_555
H15A C18A 1_555 1_555
H16A C19A 1_555 1_555
H17A C19A 1_555 1_555
H18A C19A 1_555 1_555
H19A C21A 1_555 1_555
H20A C22A 1_555 1_555
H21A C23A 1_555 1_555
H22A C24A 1_555 1_555
N2 N3 1_555 1_555
C8 N4 1_555 1_555
C10 C11 1_555 1_555
C16 C17 1_555 1_555
C18 N6 1_555 1_555
C20 N8 1_555 1_555
C23 C24 1_555 1_555
S2 O5 1_555 1_555
S3 O8 1_555 1_555
O9 Pb2A 1_555 1_555
N2A N3A 1_555 1_555
C8A N4A 1_555 1_555
C9A N5A 1_555 1_555
C10A C11A 1_555 1_555
C16A C17A 1_555 1_555
C18A N6A 1_555 1_555
C20A N8A 1_555 1_555
C23A C24A 1_555 1_555
S1A O2A 1_555 1_555
S2A O5A 1_555 1_555
S3A O8A 1_555 1_555
S3A O9A 1_555 1_555

#END
