
#######################################################################
#
#                 Cambridge Crystallographic Data Centre
#                                CCDC 
#
#######################################################################
#
# If this CIF has been generated from an entry in the Cambridge 
# Structural Database, then it will include bibliographic, chemical, 
# crystal, experimental, refinement or atomic coordinate data resulting 
# from the CCDC's data processing and validation procedures.
#
#######################################################################

data_MEHSOI
_symmetry_cell_setting           orthorhombic
_symmetry_space_group_name_H-M   'F d d 2'
_symmetry_Int_Tables_number      43
_space_group_name_Hall           'F 2 -2d'
loop_
_symmetry_equiv_pos_site_id
_symmetry_equiv_pos_as_xyz
1 x,y,z
2 -x,-y,z
3 1/4+x,1/4-y,1/4+z
4 1/4-x,1/4+y,1/4+z
5 x,1/2+y,1/2+z
6 -x,1/2-y,1/2+z
7 1/4+x,3/4-y,3/4+z
8 1/4-x,3/4+y,3/4+z
9 1/2+x,y,1/2+z
10 1/2-x,-y,1/2+z
11 3/4+x,1/4-y,3/4+z
12 3/4-x,1/4+y,3/4+z
13 1/2+x,1/2+y,z
14 1/2-x,1/2-y,z
15 3/4+x,3/4-y,1/4+z
16 3/4-x,3/4+y,1/4+z
_cell_length_a                   42.9522(1)
_cell_length_b                   40.2922(4)
_cell_length_c                   9.4120(4)
_cell_angle_alpha                90
_cell_angle_beta                 90
_cell_angle_gamma                90
_cell_volume                     16288.8
loop_
_atom_site_label
_atom_site_type_symbol
_atom_site_fract_x
_atom_site_fract_y
_atom_site_fract_z
Pb1 Pb 0.07011(1) 0.23066(1) 0.6548
Pb2 Pb 0.17890(1) 0.36500(1) 0.33866(5)
N1 N 0.0912(2) 0.2805(2) 0.7816(9)
C1 C 0.0719(2) 0.2992(3) 0.860(1)
C2 C 0.0794(3) 0.3249(3) 0.933(1)
C3 C 0.1099(3) 0.3361(2) 0.922(1)
C4 C 0.1314(3) 0.3183(3) 0.839(1)
C5 C 0.1201(2) 0.2903(2) 0.770(1)
N2 N 0.1408(2) 0.2718(2) 0.6810(9)
C6 C 0.1739(2) 0.2752(2) 0.689(1)
C7 C 0.1899(2) 0.2950(2) 0.569(1)
O1 O 0.1791(2) 0.3283(2) 0.5669(9)
N3 N 0.1270(2) 0.2474(2) 0.6021(8)
C8 C 0.1435(2) 0.2276(2) 0.522(1)
C9 C 0.1279(2) 0.2017(2) 0.444(1)
N4 N 0.0956(2) 0.2007(2) 0.4501(8)
C10 C 0.0818(2) 0.1762(2) 0.378(1)
C11 C 0.1438(2) 0.1782(2) 0.372(1)
C12 C 0.1274(2) 0.1530(2) 0.304(1)
N5 N 0.0965(2) 0.1515(2) 0.3072(9)
C13 C 0.1448(2) 0.1258(2) 0.235(1)
N6 N 0.1290(1) 0.1043(2) 0.1570(8)
N7 N 0.1444(2) 0.0795(1) 0.0892(8)
C14 C 0.1786(2) 0.0776(2) 0.095(1)
C15 C 0.1898(2) 0.0597(2) 0.225(1)
O2 O 0.1825(1) 0.0245(2) 0.2188(9)
C16 C 0.1253(2) 0.0572(2) 0.0121(9)
N8 N 0.0957(2) 0.0645(2) 0.0031(9)
C17 C 0.0763(2) 0.0449(2) -0.075(1)
C18 C 0.0880(3) 0.0161(2) -0.137(1)
C19 C 0.1194(2) 0.0074(2) -0.121(1)
C20 C 0.1387(2) 0.0290(2) -0.048(1)
S1 S 0.12304(6) 0.17478(5) 0.8477(3)
O3 O 0.1097(2) 0.1522(2) 0.9527(9)
O4 O 0.1115(2) 0.2092(2) 0.8574(9)
O5 O 0.1255(3) 0.1633(2) 0.7051(8)
C21 C 0.1631(3) 0.1768(2) 0.909(1)
F1 F 0.1653(2) 0.1880(2) 1.0415(8)
F2 F 0.1768(1) 0.1474(2) 0.903(1)
F3 F 0.1804(1) 0.1978(2) 0.829(1)
S2 S 0.20319(5) 0.37904(6) -0.0633(3)
O6 O 0.1971(2) 0.4136(2) -0.061(1)
O7 O 0.1974(2) 0.3614(2) -0.1962(9)
O8 O 0.1924(2) 0.3619(2) 0.0616(8)
C22 C 0.2461(3) 0.3777(4) -0.043(2)
F4 F 0.2560(2) 0.3462(2) -0.031(1)
F5 F 0.2538(2) 0.3927(2) 0.075(1)
F6 F 0.2596(2) 0.3929(3) -0.151(1)
S3 S -0.01680(6) 0.25919(7) 0.7057(3)
O9 O 0.0155(2) 0.2644(2) 0.6803(8)
O10 O -0.0272(2) 0.2718(2) 0.844(1)
O11 O -0.0284(2) 0.2272(2) 0.662(2)
C23 C -0.0346(2) 0.2872(3) 0.579(1)
F7 F -0.0268(2) 0.3188(1) 0.6023(9)
F8 F -0.0275(2) 0.2800(2) 0.4462(8)
F9 F -0.0660(1) 0.2865(2) 0.597(1)
S4 S 0.26587(7) 0.3313(1) 0.3688(4)
O12 O 0.2329(2) 0.3292(2) 0.3395(9)
O13 O 0.2849(2) 0.3507(4) 0.284(1)
O14 O 0.2809(2) 0.3006(3) 0.398(2)
C24 C 0.2696(3) 0.3477(4) 0.541(2)
F10 F 0.2534(4) 0.3797(4) 0.545(2)
F11 F 0.2548(2) 0.3319(2) 0.6435(9)
F12 F 0.2966(2) 0.3559(2) 0.585(1)
H1 H 0.0506 0.2928 0.8614
H2 H 0.0647 0.3358 0.9929
H3 H 0.1161 0.3558 0.9692
H4 H 0.1526 0.3250 0.8306
H5 H 0.1826 0.2535 0.6891
H6 H 0.1787 0.2859 0.7764
H7 H 0.1853 0.2849 0.4802
H8 H 0.2118 0.2950 0.5839
H9 H 0.1655 0.2302 0.5156
H10 H 0.0597 0.1760 0.3773
H11 H 0.1659 0.1789 0.3681
H12 H 0.1667 0.1238 0.2460
H13 H 0.1868 0.0994 0.0957
H14 H 0.1859 0.0661 0.0133
H15 H 0.1801 0.0691 0.3061
H16 H 0.2118 0.0623 0.2321
H17 H 0.0551 0.0508 -0.0866
H18 H 0.0746 0.0022 -0.1911
H19 H 0.1272 -0.0128 -0.1583
H20 H 0.1603 0.0248 -0.0391
Pb1G Pb 0.17989(1) -0.01934(1) 0.4048
Pb2G Pb 0.07110(1) 0.11500(1) 0.08866(5)
Pb2G_2 Pb 0.07110(1) 0.11500(1) 1.08866(5)
N5C N 0.1535(2) 0.4015(2) 0.5572(9)
N6C N 0.1210(1) 0.3543(2) 0.4070(8)
O2C O 0.0675(1) 0.2745(2) 0.4688(9)
N8C N 0.1543(2) 0.3145(2) 0.2531(9)
O3C O 0.1403(2) 0.4022(2) 0.2027(9)
loop_
_geom_bond_atom_site_label_1
_geom_bond_atom_site_label_2
_geom_bond_site_symmetry_1
_geom_bond_site_symmetry_2
Pb1 N1 1_555 1_555
Pb2 O1 1_555 1_555
N1 C1 1_555 1_555
C1 C2 1_555 1_555
C2 C3 1_555 1_555
C3 C4 1_555 1_555
C4 C5 1_555 1_555
C5 N1 1_555 1_555
N2 C5 1_555 1_555
C6 N2 1_555 1_555
C7 C6 1_555 1_555
O1 C7 1_555 1_555
N3 Pb1 1_555 1_555
C8 N3 1_555 1_555
C9 C8 1_555 1_555
N4 Pb1 1_555 1_555
C10 N4 1_555 1_555
C11 C9 1_555 1_555
C12 C11 1_555 1_555
N5 C10 1_555 1_555
C13 C12 1_555 1_555
N6 C13 1_555 1_555
N7 N6 1_555 1_555
C14 N7 1_555 1_555
C15 C14 1_555 1_555
O2 C15 1_555 1_555
C16 N7 1_555 1_555
N8 C16 1_555 1_555
C17 N8 1_555 1_555
C18 C17 1_555 1_555
C19 C18 1_555 1_555
C20 C16 1_555 1_555
S1 O3 1_555 1_555
O3 Pb2G_2 1_555 1_555
O4 Pb1 1_555 1_555
O5 S1 1_555 1_555
C21 S1 1_555 1_555
F1 C21 1_555 1_555
F2 C21 1_555 1_555
F3 C21 1_555 1_555
S2 O6 1_555 1_555
O7 S2 1_555 1_555
O8 Pb2 1_555 1_555
C22 S2 1_555 1_555
F4 C22 1_555 1_555
F5 C22 1_555 1_555
F6 C22 1_555 1_555
S3 O9 1_555 1_555
O9 Pb1 1_555 1_555
O10 S3 1_555 1_555
O11 S3 1_555 1_555
C23 S3 1_555 1_555
F7 C23 1_555 1_555
F8 C23 1_555 1_555
F9 C23 1_555 1_555
S4 O12 1_555 1_555
O12 Pb2 1_555 1_555
O13 S4 1_555 1_555
O14 S4 1_555 1_555
C24 S4 1_555 1_555
F10 C24 1_555 1_555
F11 C24 1_555 1_555
F12 C24 1_555 1_555
H1 C1 1_555 1_555
H2 C2 1_555 1_555
H3 C3 1_555 1_555
H4 C4 1_555 1_555
H5 C6 1_555 1_555
H6 C6 1_555 1_555
H7 C7 1_555 1_555
H8 C7 1_555 1_555
H9 C8 1_555 1_555
H10 C10 1_555 1_555
H11 C11 1_555 1_555
H12 C13 1_555 1_555
H13 C14 1_555 1_555
H14 C14 1_555 1_555
H15 C15 1_555 1_555
H16 C15 1_555 1_555
H17 C17 1_555 1_555
H18 C18 1_555 1_555
H19 C19 1_555 1_555
H20 C20 1_555 1_555
Pb1G O2 1_555 1_555
Pb2G N5 1_555 1_555
N5C Pb2 1_555 1_555
N6C Pb2 1_555 1_555
O2C Pb1 1_555 1_555
N8C Pb2 1_555 1_555
O3C Pb2 1_555 1_555
N2 N3 1_555 1_555
C9 N4 1_555 1_555
C12 N5 1_555 1_555
N6 Pb2G 1_555 1_555
N8 Pb2G 1_555 1_555
C19 C20 1_555 1_555
S1 O4 1_555 1_555
S2 O8 1_555 1_555

#END
