
#######################################################################
#
#                 Cambridge Crystallographic Data Centre
#                                CCDC 
#
#######################################################################
#
# If this CIF has been generated from an entry in the Cambridge 
# Structural Database, then it will include bibliographic, chemical, 
# crystal, experimental, refinement or atomic coordinate data resulting 
# from the CCDC's data processing and validation procedures.
#
#######################################################################

data_MEJBOU
_symmetry_cell_setting           orthorhombic
_symmetry_space_group_name_H-M   'P b c n'
_symmetry_Int_Tables_number      60
_space_group_name_Hall           '-P 2n 2ab'
loop_
_symmetry_equiv_pos_site_id
_symmetry_equiv_pos_as_xyz
1 x,y,z
2 1/2-x,1/2-y,1/2+z
3 -x,y,1/2-z
4 1/2+x,1/2-y,-z
5 -x,-y,-z
6 1/2+x,1/2+y,1/2-z
7 x,-y,1/2+z
8 1/2-x,1/2+y,z
_cell_length_a                   21.1373(5)
_cell_length_b                   26.3031(7)
_cell_length_c                   24.5471(6)
_cell_angle_alpha                90
_cell_angle_beta                 90
_cell_angle_gamma                90
_cell_volume                     13647.6
loop_
_atom_site_label
_atom_site_type_symbol
_atom_site_fract_x
_atom_site_fract_y
_atom_site_fract_z
Ru1 Ru 0.256319(17) 0.473680(14) 0.142995(16)
Ru2 Ru 0.254077(16) 0.576797(13) 0.129215(15)
Ru3 Ru 0.250178(15) 0.680701(14) 0.113118(16)
Fe1 Fe 0.17213(4) 0.32809(3) 0.12179(3)
S1 S 0.33361(5) 0.52642(4) 0.17466(5)
S2 S 0.25057(5) 0.51266(5) 0.06103(5)
S3 S 0.17880(5) 0.52489(4) 0.17774(5)
S4 S 0.17432(5) 0.62614(4) 0.08462(4)
S5 S 0.32792(5) 0.62854(4) 0.08084(5)
S6 S 0.25734(5) 0.64250(5) 0.19636(5)
O1 O 0.25977(17) 0.42984(14) 0.21450(16)
O2 O 0.2865(2) 0.40496(15) 0.29707(16)
O3 O 0.32402(17) 0.42276(13) 0.11328(15)
O4 O 0.42037(17) 0.40382(15) 0.08663(15)
O5 O 0.19012(16) 0.42009(13) 0.11692(14)
O6 O 0.09966(16) 0.38307(13) 0.10409(15)
O7 O 0.24703(14) 0.72020(13) 0.03904(15)
O8 O 0.24875(18) 0.73569(16) -0.04813(17)
O9 O 0.31518(15) 0.73745(12) 0.13443(14)
O10 O 0.40496(17) 0.77742(13) 0.14057(17)
O11 O 0.18406(16) 0.73340(12) 0.14237(13)
O12 O 0.12773(19) 0.77658(14) 0.20159(16)
O13 O 0.17694(17) 0.35008(14) 0.20560(15)
H1 H 0.2016 0.3750 0.2089
H2 H 0.1906 0.3250 0.2240
O14 O 0.26967(18) 0.32821(13) 0.11623(16)
H3 H 0.2843 0.3031 0.1332
H4 H 0.2863 0.3556 0.1255
C1 C 0.3243(2) 0.53020(19) 0.2467(2)
C2 C 0.2986(2) 0.4921(2) 0.2798(2)
C3 C 0.2930(3) 0.5014(2) 0.3361(2)
H5 H 0.2752 0.4759 0.3588
C4 C 0.3125(3) 0.5464(2) 0.3592(2)
H6 H 0.3062 0.5526 0.3969
C5 C 0.3416(3) 0.5830(2) 0.3266(2)
H7 H 0.3570 0.6136 0.3424
C6 C 0.3482(2) 0.5745(2) 0.2710(2)
H8 H 0.3693 0.5990 0.2492
C7 C 0.2807(2) 0.43911(19) 0.2620(2)
C8 C 0.3235(2) 0.50583(18) 0.0262(2)
C9 C 0.3714(2) 0.47000(18) 0.0377(2)
C10 C 0.4240(3) 0.4691(2) 0.0025(2)
H9 H 0.4568 0.4452 0.0092
C11 C 0.4294(3) 0.5015(2) -0.0411(2)
H10 H 0.4655 0.4997 -0.0640
C12 C 0.3824(3) 0.5366(2) -0.0516(2)
H11 H 0.3863 0.5594 -0.0815
C13 C 0.3296(2) 0.53852(19) -0.0183(2)
H12 H 0.2971 0.5624 -0.0259
C14 C 0.3722(2) 0.43005(18) 0.0825(2)
C15 C 0.1099(2) 0.51677(18) 0.13700(19)
C16 C 0.0951(2) 0.47272(18) 0.1068(2)
C17 C 0.0397(2) 0.47273(19) 0.0752(2)
H13 H 0.0291 0.4432 0.0548
C18 C 0.0004(2) 0.5146(2) 0.0731(2)
H14 H -0.0354 0.5146 0.0497
C19 C 0.0135(2) 0.55686(19) 0.1054(2)
H15 H -0.0144 0.5851 0.1055
C20 C 0.0672(2) 0.55753(19) 0.1374(2)
H16 H 0.0754 0.5861 0.1599
C21 C 0.1305(2) 0.42343(18) 0.10936(19)
C22 C 0.1794(2) 0.62042(18) 0.0125(2)
C23 C 0.2084(2) 0.65480(19) -0.0237(2)
C24 C 0.2081(3) 0.6428(2) -0.0795(2)
H17 H 0.2280 0.6654 -0.1043
C25 C 0.1802(3) 0.5996(2) -0.0992(2)
H18 H 0.1820 0.5921 -0.1371
C26 C 0.1494(3) 0.5669(2) -0.0640(2)
H19 H 0.1291 0.5373 -0.0776
C27 C 0.1482(2) 0.57772(19) -0.0087(2)
H20 H 0.1259 0.5558 0.0153
C28 C 0.2370(2) 0.7061(2) -0.0096(2)
C29 C 0.3970(2) 0.64087(19) 0.1205(2)
C30 C 0.4124(2) 0.68793(19) 0.1444(2)
C31 C 0.4703(3) 0.6923(2) 0.1718(2)
H21 H 0.4810 0.7237 0.1885
C32 C 0.5119(3) 0.6525(2) 0.1749(3)
H22 H 0.5504 0.6562 0.1945
C33 C 0.4978(3) 0.6069(2) 0.1495(3)
H23 H 0.5271 0.5796 0.1506
C34 C 0.4410(2) 0.60147(19) 0.1227(2)
H24 H 0.4315 0.5701 0.1052
C35 C 0.3754(2) 0.73607(19) 0.1393(2)
C36 C 0.1840(2) 0.64928(19) 0.23026(19)
C37 C 0.1710(3) 0.6125(2) 0.2699(2)
H25 H 0.2008 0.5861 0.2765
C38 C 0.1154(3) 0.6142(2) 0.2995(2)
H26 H 0.1065 0.5884 0.3255
C39 C 0.0728(3) 0.6530(2) 0.2914(3)
H27 H 0.0343 0.6538 0.3112
C40 C 0.0866(3) 0.6910(2) 0.2542(2)
H28 H 0.0578 0.7184 0.2498
C41 C 0.1420(2) 0.68986(19) 0.2228(2)
C42 C 0.1521(2) 0.73600(19) 0.1872(2)
O15 O 0.1720(3) 0.3049(2) 0.0368(2)
C43 C 0.1990(4) 0.3433(3) -0.0024(3)
H29 H 0.2309 0.3638 0.0174
H30 H 0.2215 0.3246 -0.0315
C44 C 0.1508(4) 0.3811(3) -0.0302(4)
H31 H 0.1262 0.4000 -0.0026
H32 H 0.1731 0.4057 -0.0540
O16 O 0.1101(3) 0.3476(2) -0.0620(2)
H33 H 0.1304 0.3216 -0.0712
Fe1G Fe 0.32787(4) 0.82809(3) 0.12179(3)
O9G O 0.18482(15) 0.23745(12) 0.13443(14)
O10G O 0.09504(17) 0.27742(13) 0.14057(17)
O17 O 0.3634(2) 0.7501(2) -0.1026(2)
H34 H 0.3524 0.7343 -0.1317
H35 H 0.3353 0.7436 -0.0782
O18 O 0.3249(2) 0.69302(18) -0.19869(19)
H36 H 0.3391 0.7096 -0.2263
H37 H 0.3314 0.6613 -0.2049
O19 O 0.1800(3) 0.7905(2) -0.1270(2)
H38 H 0.1999 0.7742 -0.1031
O20 O 0.1994(3) 0.70739(19) -0.2048(2)
H39 H 0.2369 0.7022 -0.1949
C45 C 0.2182(4) 0.7944(3) -0.1755(3)
H40 H 0.2627 0.7862 -0.1666
H41 H 0.2168 0.8297 -0.1894
C46 C 0.1932(4) 0.7565(3) -0.2213(3)
H42 H 0.1481 0.7637 -0.2290
H43 H 0.2174 0.7618 -0.2553
N1 N 0.46392(19) 0.25949(15) 0.01257(15)
C47 C 0.4277(2) 0.2328(2) 0.05558(18)
H44 H 0.4000 0.2072 0.0381
H45 H 0.4000 0.2578 0.0741
C48 C 0.4689(3) 0.2058(2) 0.0990(2)
H46 H 0.4427 0.1972 0.1306
H47 H 0.5032 0.2286 0.1105
H48 H 0.4870 0.1747 0.0835
C49 C 0.5091(3) 0.2237(2) -0.0166(3)
H49 H 0.5263 0.2415 -0.0489
H50 H 0.5451 0.2164 0.0081
C50 C 0.4812(3) 0.1739(2) -0.0350(3)
H51 H 0.5136 0.1539 -0.0538
H52 H 0.4458 0.1804 -0.0598
H53 H 0.4659 0.1549 -0.0032
C51 C 0.4996(3) 0.3019(2) 0.0386(2)
H54 H 0.5287 0.2871 0.0659
H55 H 0.4690 0.3236 0.0584
C52 C 0.5378(4) 0.3355(3) 0.0012(3)
H56 H 0.5377 0.3704 0.0152
H57 H 0.5190 0.3350 -0.0354
H58 H 0.5813 0.3229 -0.0007
C53 C 0.4183(3) 0.2801(2) -0.0284(2)
H59 H 0.3937 0.2513 -0.0434
H60 H 0.4429 0.2950 -0.0588
C54 C 0.3719(3) 0.3200(2) -0.0079(3)
H61 H 0.3447 0.3311 -0.0380
H62 H 0.3953 0.3493 0.0064
H63 H 0.3457 0.3054 0.0211
N2 N 0.0000 0.3971(2) 0.2500
C55 C -0.0003(3) 0.3642(2) 0.1993(2)
H64 H -0.0012 0.3867 0.1670
H65 H 0.0398 0.3448 0.1980
C56 C -0.0546(3) 0.3271(2) 0.1950(3)
H66 H -0.0510 0.3080 0.1609
H67 H -0.0947 0.3458 0.1954
H68 H -0.0534 0.3036 0.2259
C57 C 0.0589(3) 0.4295(2) 0.2464(2)
H69 H 0.0576 0.4488 0.2117
H70 H 0.0962 0.4068 0.2448
C58 C 0.0685(3) 0.4670(2) 0.2927(2)
H71 H 0.1081 0.4857 0.2870
H72 H 0.0707 0.4485 0.3273
H73 H 0.0330 0.4909 0.2937
C55B C 0.0003(3) 0.3642(2) 0.3007(2)
H64B H 0.0012 0.3867 0.3330
H65B H -0.0398 0.3448 0.3020
C56B C 0.0546(3) 0.3271(2) 0.3050(3)
H66B H 0.0510 0.3080 0.3391
H67B H 0.0947 0.3458 0.3046
H68B H 0.0534 0.3036 0.2741
C57B C -0.0589(3) 0.4295(2) 0.2536(2)
H69B H -0.0576 0.4488 0.2883
H70B H -0.0962 0.4068 0.2552
C58B C -0.0685(3) 0.4670(2) 0.2073(2)
H71B H -0.1081 0.4857 0.2130
H72B H -0.0707 0.4485 0.1727
H73B H -0.0330 0.4909 0.2063
N3 N 0.5000 0.4026(2) 0.2500
C59 C 0.4524(5) 0.3695(4) 0.2789(4)
H74 H 0.4299 0.3481 0.2519
H75 H 0.4208 0.3912 0.2974
C60 C 0.4865(4) 0.3343(3) 0.3223(3)
H76 H 0.4552 0.3119 0.3395
H77 H 0.5065 0.3555 0.3502
H78 H 0.5188 0.3137 0.3041
C61 C 0.4638(5) 0.4346(4) 0.2096(4)
H79 H 0.4316 0.4554 0.2286
H80 H 0.4421 0.4126 0.1828
C62 C 0.5149(5) 0.4716(3) 0.1787(3)
H81 H 0.4931 0.4920 0.1512
H82 H 0.5474 0.4507 0.1612
H83 H 0.5349 0.4941 0.2055
C59B C 0.5476(5) 0.3695(4) 0.2211(4)
H74B H 0.5701 0.3481 0.2481
H75B H 0.5792 0.3912 0.2026
C60B C 0.5135(4) 0.3343(3) 0.1777(3)
H76B H 0.5448 0.3119 0.1605
H77B H 0.4935 0.3555 0.1498
H78B H 0.4812 0.3137 0.1959
C61B C 0.5362(5) 0.4346(4) 0.2904(4)
H79B H 0.5684 0.4554 0.2714
H80B H 0.5579 0.4126 0.3172
C62B C 0.4851(5) 0.4716(3) 0.3213(3)
H81B H 0.5069 0.4920 0.3488
H82B H 0.4526 0.4507 0.3388
H83B H 0.4651 0.4941 0.2945
C63? C 0.4646(5) 0.3706(4) 0.2092(4)
C64? C 0.4496(5) 0.4356(4) 0.2776(5)
loop_
_geom_bond_atom_site_label_1
_geom_bond_atom_site_label_2
_geom_bond_site_symmetry_1
_geom_bond_site_symmetry_2
Ru1 Ru2 1_555 1_555
Ru2 Ru3 1_555 1_555
Ru3 S4 1_555 1_555
Fe1 O5 1_555 1_555
S1 Ru1 1_555 1_555
S2 Ru1 1_555 1_555
S3 Ru1 1_555 1_555
S4 Ru2 1_555 1_555
S5 Ru2 1_555 1_555
S6 Ru2 1_555 1_555
O1 Ru1 1_555 1_555
O2 C7 1_555 1_555
O3 Ru1 1_555 1_555
O4 C14 1_555 1_555
O5 Ru1 1_555 1_555
O6 Fe1 1_555 1_555
O7 Ru3 1_555 1_555
O8 C28 1_555 1_555
O9 Ru3 1_555 1_555
O10 C35 1_555 1_555
O11 Ru3 1_555 1_555
O12 C42 1_555 1_555
O13 Fe1 1_555 1_555
H1 O13 1_555 1_555
H2 O13 1_555 1_555
O14 Fe1 1_555 1_555
H3 O14 1_555 1_555
H4 O14 1_555 1_555
C1 S1 1_555 1_555
C2 C1 1_555 1_555
C3 C2 1_555 1_555
H5 C3 1_555 1_555
C4 C3 1_555 1_555
H6 C4 1_555 1_555
C5 C4 1_555 1_555
H7 C5 1_555 1_555
C6 C1 1_555 1_555
H8 C6 1_555 1_555
C7 O1 1_555 1_555
C8 S2 1_555 1_555
C9 C8 1_555 1_555
C10 C9 1_555 1_555
H9 C10 1_555 1_555
C11 C10 1_555 1_555
H10 C11 1_555 1_555
C12 C11 1_555 1_555
H11 C12 1_555 1_555
C13 C8 1_555 1_555
H12 C13 1_555 1_555
C14 O3 1_555 1_555
C15 S3 1_555 1_555
C16 C15 1_555 1_555
C17 C16 1_555 1_555
H13 C17 1_555 1_555
C18 C17 1_555 1_555
H14 C18 1_555 1_555
C19 C18 1_555 1_555
H15 C19 1_555 1_555
C20 C15 1_555 1_555
H16 C20 1_555 1_555
C21 O5 1_555 1_555
C22 S4 1_555 1_555
C23 C22 1_555 1_555
C24 C23 1_555 1_555
H17 C24 1_555 1_555
C25 C24 1_555 1_555
H18 C25 1_555 1_555
C26 C25 1_555 1_555
H19 C26 1_555 1_555
C27 C22 1_555 1_555
H20 C27 1_555 1_555
C28 O7 1_555 1_555
C29 S5 1_555 1_555
C30 C29 1_555 1_555
C31 C30 1_555 1_555
H21 C31 1_555 1_555
C32 C31 1_555 1_555
H22 C32 1_555 1_555
C33 C32 1_555 1_555
H23 C33 1_555 1_555
C34 C29 1_555 1_555
H24 C34 1_555 1_555
C35 O9 1_555 1_555
C36 S6 1_555 1_555
C37 C36 1_555 1_555
H25 C37 1_555 1_555
C38 C37 1_555 1_555
H26 C38 1_555 1_555
C39 C38 1_555 1_555
H27 C39 1_555 1_555
C40 C39 1_555 1_555
H28 C40 1_555 1_555
C41 C36 1_555 1_555
C42 O11 1_555 1_555
O15 Fe1 1_555 1_555
C43 O15 1_555 1_555
H29 C43 1_555 1_555
H30 C43 1_555 1_555
C44 C43 1_555 1_555
H31 C44 1_555 1_555
H32 C44 1_555 1_555
O16 C44 1_555 1_555
H33 O16 1_555 1_555
O17 H34 1_555 1_555
H35 O17 1_555 1_555
O18 H36 1_555 1_555
H37 O18 1_555 1_555
O19 H38 1_555 1_555
O20 H39 1_555 1_555
C45 O19 1_555 1_555
H40 C45 1_555 1_555
H41 C45 1_555 1_555
C46 O20 1_555 1_555
H42 C46 1_555 1_555
H43 C46 1_555 1_555
N1 C47 1_555 1_555
C47 H44 1_555 1_555
H45 C47 1_555 1_555
C48 C47 1_555 1_555
H46 C48 1_555 1_555
H47 C48 1_555 1_555
H48 C48 1_555 1_555
C49 N1 1_555 1_555
H49 C49 1_555 1_555
H50 C49 1_555 1_555
C50 C49 1_555 1_555
H51 C50 1_555 1_555
H52 C50 1_555 1_555
H53 C50 1_555 1_555
C51 N1 1_555 1_555
H54 C51 1_555 1_555
H55 C51 1_555 1_555
C52 C51 1_555 1_555
H56 C52 1_555 1_555
H57 C52 1_555 1_555
H58 C52 1_555 1_555
C53 N1 1_555 1_555
H59 C53 1_555 1_555
H60 C53 1_555 1_555
C54 C53 1_555 1_555
H61 C54 1_555 1_555
H62 C54 1_555 1_555
H63 C54 1_555 1_555
N2 C55 1_555 1_555
C55 H64 1_555 1_555
H65 C55 1_555 1_555
C56 C55 1_555 1_555
H66 C56 1_555 1_555
H67 C56 1_555 1_555
H68 C56 1_555 1_555
C57 N2 1_555 1_555
H69 C57 1_555 1_555
H70 C57 1_555 1_555
C58 C57 1_555 1_555
H71 C58 1_555 1_555
H72 C58 1_555 1_555
H73 C58 1_555 1_555
N3 C59 1_555 1_555
C59 H74 1_555 1_555
H75 C59 1_555 1_555
C60 C59 1_555 1_555
H76 C60 1_555 1_555
H77 C60 1_555 1_555
H78 C60 1_555 1_555
C61 N3 1_555 1_555
H79 C61 1_555 1_555
H80 C61 1_555 1_555
C62 C61 1_555 1_555
H81 C62 1_555 1_555
H82 C62 1_555 1_555
H83 C62 1_555 1_555
Fe1G O9 1_555 1_555
O9G Fe1 1_555 1_555
O10G Fe1 1_555 1_555
C55B N2 1_555 1_555
H64B C55B 1_555 1_555
H65B C55B 1_555 1_555
C56B C55B 1_555 1_555
H66B C56B 1_555 1_555
H67B C56B 1_555 1_555
H68B C56B 1_555 1_555
C57B N2 1_555 1_555
H69B C57B 1_555 1_555
H70B C57B 1_555 1_555
C58B C57B 1_555 1_555
H71B C58B 1_555 1_555
H72B C58B 1_555 1_555
H73B C58B 1_555 1_555
C59B N3 1_555 1_555
H74B C59B 1_555 1_555
H75B C59B 1_555 1_555
C60B C59B 1_555 1_555
H76B C60B 1_555 1_555
H77B C60B 1_555 1_555
H78B C60B 1_555 1_555
C61B N3 1_555 1_555
H79B C61B 1_555 1_555
H80B C61B 1_555 1_555
C62B C61B 1_555 1_555
H81B C62B 1_555 1_555
H82B C62B 1_555 1_555
H83B C62B 1_555 1_555
Ru2 S1 1_555 1_555
Ru2 S2 1_555 1_555
Ru2 S3 1_555 1_555
Ru3 S5 1_555 1_555
Ru3 S6 1_555 1_555
O6 C21 1_555 1_555
O10 Fe1G 1_555 1_555
C2 C7 1_555 1_555
C5 C6 1_555 1_555
C9 C14 1_555 1_555
C12 C13 1_555 1_555
C16 C21 1_555 1_555
C19 C20 1_555 1_555
C23 C28 1_555 1_555
C26 C27 1_555 1_555
C30 C35 1_555 1_555
C33 C34 1_555 1_555
C40 C41 1_555 1_555
C41 C42 1_555 1_555
C45 C46 1_555 1_555

#END
