
#######################################################################
#
#                 Cambridge Crystallographic Data Centre
#                                CCDC 
#
#######################################################################
#
# If this CIF has been generated from an entry in the Cambridge 
# Structural Database, then it will include bibliographic, chemical, 
# crystal, experimental, refinement or atomic coordinate data resulting 
# from the CCDC's data processing and validation procedures.
#
#######################################################################

data_MEJCEJ
_symmetry_cell_setting           monoclinic
_symmetry_space_group_name_H-M   'C 2/c'
_symmetry_Int_Tables_number      15
_space_group_name_Hall           '-C 2yn'
loop_
_symmetry_equiv_pos_site_id
_symmetry_equiv_pos_as_xyz
1 x,y,z
2 -x,y,1/2-z
3 1/2+x,1/2+y,z
4 1/2-x,1/2+y,1/2-z
5 -x,-y,-z
6 x,-y,1/2+z
7 1/2-x,1/2-y,-z
8 1/2+x,1/2-y,1/2+z
_cell_length_a                   22.735(5)
_cell_length_b                   8.162(10)
_cell_length_c                   14.660(8)
_cell_angle_alpha                90
_cell_angle_beta                 116.16(2)
_cell_angle_gamma                90
_cell_volume                     2441.7
loop_
_atom_site_label
_atom_site_type_symbol
_atom_site_fract_x
_atom_site_fract_y
_atom_site_fract_z
Rh1 Rh 0.2965(1) 0.2132(1) 0.0765(1)
O1 O 0.3541(1) 0.3180(4) 0.0184(2)
O2 O 0.2989(1) -0.0031(3) 0.0087(2)
O3 O 0.2333(1) 0.1126(4) 0.1256(2)
O4 O 0.2890(1) 0.4337(3) 0.1345(2)
N1 N 0.1193(2) 0.3575(5) -0.2221(2)
C1 C 0.3273(2) 0.3829(5) -0.0686(3)
C2 C 0.2556(2) -0.0306(5) -0.0807(3)
C3 C 0.0839(2) 0.3981(5) -0.3021(3)
C4 C 0.0410(2) 0.4491(4) -0.4035(2)
C5 C 0.2587(3) -0.1949(6) -0.1252(4)
C6 C 0.3718(2) 0.4582(7) -0.1068(4)
C7 C 0.0668(2) 0.5211(6) -0.4626(3)
C8 C 0.0262(2) 0.5726(6) -0.5596(3)
H1 H 0.2590 -0.1795 -0.1899
H2 H 0.2211 -0.2588 -0.1339
H3 H 0.2978 -0.2511 -0.0801
H4 H 0.4022 0.5297 -0.0558
H5 H 0.3465 0.5198 -0.1673
H6 H 0.3955 0.3735 -0.1219
H7 H -0.1118 0.4649 -0.5631
H8 H -0.0435 0.3789 -0.4002
Rh1F Rh 0.2035(1) 0.2868(1) -0.0765(1)
O1F O 0.1459(1) 0.1820(4) -0.0184(2)
C1F C 0.1727(2) 0.1171(5) 0.0686(3)
O3F O 0.2667(1) 0.3874(4) -0.1256(2)
O2F O 0.2011(1) 0.5031(3) -0.0087(2)
C2F C 0.2444(2) 0.5306(5) 0.0807(3)
O4F O 0.2110(1) 0.0663(3) -0.1345(2)
N1F N 0.3807(2) 0.1425(5) 0.2221(2)
C4D C -0.0410(2) 0.5509(4) -0.5965(2)
C3D C -0.0839(2) 0.6019(5) -0.6979(3)
N1D N -0.1193(2) 0.6425(5) -0.7779(2)
Rh1B Rh -0.2035(1) 0.7132(1) -0.9235(1)
C7D C -0.0668(2) 0.4789(6) -0.5374(3)
C8D C -0.0262(2) 0.4274(6) -0.4404(3)
H8D H 0.0435 0.6211 -0.5998
H7D H 0.1118 0.5351 -0.4369
C5F C 0.2413(3) 0.6949(6) 0.1252(4)
H1F H 0.2410 0.6795 0.1899
H2F H 0.2789 0.7588 0.1339
H3F H 0.2022 0.7511 0.0801
C6F C 0.1282(2) 0.0418(7) 0.1068(4)
H4F H 0.0978 -0.0297 0.0558
H5F H 0.1535 -0.0198 0.1673
H6F H 0.1045 0.1265 0.1219
O5 O 0.5000 -0.1945(14) 0.2500
C9 C 0.5508(5) -0.2974(15) 0.3141(10)
C10 C 0.5266(6) -0.4456(15) 0.2993(10)
H9 H 0.5876 -0.2917 0.2975
H10 H 0.5656 -0.2654 0.3845
H11 H 0.5116 -0.4730 0.3499
H12 H 0.5595 -0.5248 0.3034
C10A C 0.4734(6) -0.4456(15) 0.2007(10)
C9A C 0.4492(5) -0.2974(15) 0.1859(10)
H9A H 0.4124 -0.2917 0.2025
H10A H 0.4344 -0.2654 0.1155
H11A H 0.4884 -0.4730 0.1501
H12A H 0.4405 -0.5248 0.1966
loop_
_geom_bond_atom_site_label_1
_geom_bond_atom_site_label_2
_geom_bond_site_symmetry_1
_geom_bond_site_symmetry_2
Rh1 O1 1_555 1_555
O1 C1 1_555 1_555
O2 Rh1 1_555 1_555
O3 Rh1 1_555 1_555
O4 Rh1 1_555 1_555
N1 C3 1_555 1_555
C1 C6 1_555 1_555
C2 O2 1_555 1_555
C3 C4 1_555 1_555
C4 C7 1_555 1_555
C5 C2 1_555 1_555
C6 H4 1_555 1_555
C7 C8 1_555 1_555
C8 C4D 1_555 1_555
O5 C9 1_555 1_555
C9 C10 1_555 1_555
C10 H11 1_555 1_555
H1 C5 1_555 1_555
H2 C5 1_555 1_555
H3 C5 1_555 1_555
H5 C6 1_555 1_555
H6 C6 1_555 1_555
H7 C7D 1_555 1_555
H8 C8D 1_555 1_555
H9 C9 1_555 1_555
H10 C9 1_555 1_555
H12 C10 1_555 1_555
Rh1F Rh1 1_555 1_555
O1F Rh1F 1_555 1_555
C1F O3 1_555 1_555
O3F C1 1_555 1_555
O2F Rh1F 1_555 1_555
C2F O4 1_555 1_555
O4F C2 1_555 1_555
N1F Rh1 1_555 1_555
C4D C3D 1_555 1_555
C3D N1D 1_555 1_555
N1D Rh1B 1_555 1_555
C7D C4D 1_555 1_555
C8D C4 1_555 1_555
H8D C8 1_555 1_555
H7D C7 1_555 1_555
C5F C2F 1_555 1_555
H1F C5F 1_555 1_555
H2F C5F 1_555 1_555
H3F C5F 1_555 1_555
C6F C1F 1_555 1_555
H4F C6F 1_555 1_555
H5F C6F 1_555 1_555
H6F C6F 1_555 1_555
C10A C10 1_555 1_555
C9A O5 1_555 1_555
H9A C9A 1_555 1_555
H10A C9A 1_555 1_555
H11A C10A 1_555 1_555
H12A C10A 1_555 1_555
N1 Rh1F 1_555 1_555
Rh1F O3F 1_555 1_555
Rh1F O4F 1_555 1_555
O1F C1F 1_555 1_555
O2F C2F 1_555 1_555
C7D C8D 1_555 1_555
C10A C9A 1_555 1_555

#END
