
#######################################################################
#
#                 Cambridge Crystallographic Data Centre
#                                CCDC 
#
#######################################################################
#
# If this CIF has been generated from an entry in the Cambridge 
# Structural Database, then it will include bibliographic, chemical, 
# crystal, experimental, refinement or atomic coordinate data resulting 
# from the CCDC's data processing and validation procedures.
#
#######################################################################

data_MEJCAH
_symmetry_cell_setting           cubic
_symmetry_space_group_name_H-M   'I 2 3'
_symmetry_Int_Tables_number      197
_space_group_name_Hall           'I 2 2 3'
loop_
_symmetry_equiv_pos_site_id
_symmetry_equiv_pos_as_xyz
1 x,y,z
2 z,x,y
3 y,z,x
4 x,-y,-z
5 -z,x,-y
6 -y,-z,x
7 -z,-x,y
8 y,-z,-x
9 -y,z,-x
10 -x,-y,z
11 z,-x,-y
12 -x,y,-z
13 1/2+x,1/2+y,1/2+z
14 1/2+z,1/2+x,1/2+y
15 1/2+y,1/2+z,1/2+x
16 1/2+x,1/2-y,1/2-z
17 1/2-z,1/2+x,1/2-y
18 1/2-y,1/2-z,1/2+x
19 1/2-z,1/2-x,1/2+y
20 1/2+y,1/2-z,1/2-x
21 1/2-y,1/2+z,1/2-x
22 1/2-x,1/2-y,1/2+z
23 1/2+z,1/2-x,1/2-y
24 1/2-x,1/2+y,1/2-z
_cell_length_a                   21.836(4)
_cell_length_b                   21.836(4)
_cell_length_c                   21.836(4)
_cell_angle_alpha                90
_cell_angle_beta                 90
_cell_angle_gamma                90
_cell_volume                     10411.6
loop_
_atom_site_label
_atom_site_type_symbol
_atom_site_fract_x
_atom_site_fract_y
_atom_site_fract_z
Ru1 Ru 0.18192(26) 0.18192(26) 0.18192(26)
Ru2 Ru 0.25464(21) 0.25464(21) 0.25464(21)
Ru3 Ru 0.32711(25) 0.32711(25) 0.32711(25)
S1 S 0.14516(30) 0.25472(19) 0.24728(28)
O1 O 0.0830(9) 0.0686(9) 0.25051(19)
O2 O 0.0858(9) 0.15366(22) 0.1995(4)
C1 C 0.11508(27) 0.21638(13) 0.31396(12)
C2 C 0.1132(4) 0.24685(12) 0.37018(11)
H1 H 0.1239(10) 0.2894(12) 0.37249(15)
C3 C 0.0983(4) 0.21477(11) 0.42336(11)
H2 H 0.0977(6) 0.23553(18) 0.46217(33)
C4 C 0.0835(4) 0.15260(11) 0.42012(11)
H3 H 0.0723(11) 0.13073(18) 0.45660(28)
C5 C 0.0835(4) 0.12262(12) 0.36354(11)
H4 H 0.0727(12) 0.0801(12) 0.36121(15)
C6 C 0.0973(4) 0.15502(12) 0.31028(11)
C7 C 0.0887(6) 0.12565(12) 0.24933(13)
S2 S 0.25622(29) 0.36430(29) 0.26147(19)
O3 O 0.25681(20) 0.3966(7) 0.4552(11)
O4 O 0.3042(4) 0.4176(11) 0.37063(22)
C8 C 0.19116(12) 0.38779(29) 0.30507(12)
C9 C 0.13435(15) 0.3943(4) 0.27650(10)
H5 H 0.12939(22) 0.3823(8) 0.2345(12)
C10 C 0.08106(11) 0.3971(13) 0.31167(11)
H6 H 0.04166(33) 0.397(4) 0.29200(17)
C11 C 0.08493(11) 0.3972(16) 0.37559(11)
H7 H 0.04837(27) 0.401(4) 0.39985(18)
C12 C 0.14227(10) 0.3951(12) 0.40415(11)
H8 H 0.14510(15) 0.3975(29) 0.4480(11)
C13 C 0.19548(11) 0.3927(6) 0.36874(12)
C14 C 0.25646(14) 0.4019(5) 0.39818(12)
Gd1 Gd 0.00000 0.00000 0.2042(5)
C15 C 0.0561(6) 0.0561(6) 0.0561(6)
O5 O 0.0369(10) 0.0368(10) 0.1065(7)
C16 C -0.0675(13) 0.0675(13) 0.0675(13)
O6 O -0.0450(9) 0.0448(10) 0.1129(8)
O7 O 0.00000 0.00000 0.3004(12)
O5A O 0.1065(7) 0.0369(10) 0.0368(10)
O5B O 0.0368(10) 0.1065(7) 0.0369(10)
O6F O -0.1129(8) 0.0450(9) 0.0448(10)
O6H O -0.0448(10) 0.1129(8) 0.0450(9)
S1A S 0.24728(28) 0.14516(30) 0.25472(19)
O1A O 0.25051(19) 0.0830(9) 0.0686(9)
O2A O 0.1995(4) 0.0858(9) 0.15366(22)
C1A C 0.31396(12) 0.11508(27) 0.21638(13)
C2A C 0.37018(11) 0.1132(4) 0.24685(12)
H1A H 0.37249(15) 0.1239(10) 0.2894(12)
C3A C 0.42336(11) 0.0983(4) 0.21477(11)
H2A H 0.46217(33) 0.0977(6) 0.23553(18)
C4A C 0.42012(11) 0.0835(4) 0.15260(11)
H3A H 0.45660(28) 0.0723(11) 0.13073(18)
C5A C 0.36354(11) 0.0835(4) 0.12262(12)
H4A H 0.36121(15) 0.0727(12) 0.0801(12)
C6A C 0.31028(11) 0.0973(4) 0.15502(12)
C7A C 0.24933(13) 0.0887(6) 0.12565(12)
S1B S 0.25472(19) 0.24728(28) 0.14516(30)
O1B O 0.0686(9) 0.25051(19) 0.0830(9)
O2B O 0.15366(22) 0.1995(4) 0.0858(9)
C1B C 0.21638(13) 0.31396(12) 0.11508(27)
C2B C 0.24685(12) 0.37018(11) 0.1132(4)
H1B H 0.2894(12) 0.37249(15) 0.1239(10)
C3B C 0.21477(11) 0.42336(11) 0.0983(4)
H2B H 0.23553(18) 0.46217(33) 0.0977(6)
C4B C 0.15260(11) 0.42012(11) 0.0835(4)
H3B H 0.13073(18) 0.45660(28) 0.0723(11)
C5B C 0.12262(12) 0.36354(11) 0.0835(4)
H4B H 0.0801(12) 0.36121(15) 0.0727(12)
C6B C 0.15502(12) 0.31028(11) 0.0973(4)
C7B C 0.12565(12) 0.24933(13) 0.0887(6)
Gd1A Gd 0.2042(5) 0.00000 0.00000
Gd1B Gd 0.00000 0.2042(5) 0.00000
S2A S 0.26147(19) 0.25622(29) 0.36430(29)
O3A O 0.4552(11) 0.25681(20) 0.3966(7)
O4A O 0.37063(22) 0.3042(4) 0.4176(11)
C8A C 0.30507(12) 0.19116(12) 0.38779(29)
C9A C 0.27650(10) 0.13435(15) 0.3943(4)
H5A H 0.2345(12) 0.12939(22) 0.3823(8)
C10A C 0.31167(11) 0.08106(11) 0.3971(13)
H6A H 0.29200(17) 0.04166(33) 0.397(4)
C11A C 0.37559(11) 0.08493(11) 0.3972(16)
H7A H 0.39985(18) 0.04837(27) 0.401(4)
C12A C 0.40415(11) 0.14227(10) 0.3951(12)
H8A H 0.4480(11) 0.14510(15) 0.3975(29)
C13A C 0.36874(12) 0.19548(11) 0.3927(6)
C14A C 0.39818(12) 0.25646(14) 0.4019(5)
S2B S 0.36430(29) 0.26147(19) 0.25622(29)
O3B O 0.3966(7) 0.4552(11) 0.25681(20)
O4B O 0.4176(11) 0.37063(22) 0.3042(4)
C8B C 0.38779(29) 0.30507(12) 0.19116(12)
C9B C 0.3943(4) 0.27650(10) 0.13435(15)
H5B H 0.3823(8) 0.2345(12) 0.12939(22)
C10B C 0.3971(13) 0.31167(11) 0.08106(11)
H6B H 0.397(4) 0.29200(17) 0.04166(33)
C11B C 0.3972(16) 0.37559(11) 0.08493(11)
H7B H 0.401(4) 0.39985(18) 0.04837(27)
C12B C 0.3951(12) 0.40415(11) 0.14227(10)
H8B H 0.3975(29) 0.4480(11) 0.14510(15)
C13B C 0.3927(6) 0.36874(12) 0.19548(11)
C14B C 0.4019(5) 0.39818(12) 0.25646(14)
S2S S -0.13570(29) 0.23853(19) 0.24378(29)
O3S O -0.1034(7) 0.0448(11) 0.24319(20)
O4S O -0.0824(11) 0.12937(22) 0.1958(4)
C8S C -0.11221(29) 0.19493(12) 0.30884(12)
C9S C -0.1057(4) 0.22350(10) 0.36565(15)
H5S H -0.1177(8) 0.2655(12) 0.37061(22)
C10S C -0.1029(13) 0.18833(11) 0.41894(11)
H6S H -0.103(4) 0.20800(17) 0.45834(33)
C11S C -0.1028(16) 0.12441(11) 0.41507(11)
H7S H -0.099(4) 0.10015(18) 0.45163(27)
C12S C -0.1049(12) 0.09585(11) 0.35773(10)
H8S H -0.1025(29) 0.0520(11) 0.35490(15)
C13S C -0.1073(6) 0.13126(12) 0.30452(11)
C14S C -0.0981(5) 0.10182(12) 0.24354(14)
C15I C -0.0561(6) -0.0561(6) 0.0561(6)
O5I O -0.0369(10) -0.0368(10) 0.1065(7)
O5F O -0.1065(7) -0.0369(10) 0.0368(10)
O5E O -0.0368(10) -0.1065(7) 0.0369(10)
C16I C 0.0675(13) -0.0675(13) 0.0675(13)
O6I O 0.0450(9) -0.0448(10) 0.1129(8)
O6A O 0.1129(8) -0.0450(9) 0.0448(10)
O6G O 0.0448(10) -0.1129(8) 0.0450(9)
S1I S -0.14516(30) -0.25472(19) 0.24728(28)
O1I O -0.0830(9) -0.0686(9) 0.25051(19)
O2I O -0.0858(9) -0.15366(22) 0.1995(4)
C1I C -0.11508(27) -0.21638(13) 0.31396(12)
C2I C -0.1132(4) -0.24685(12) 0.37018(11)
H1I H -0.1239(10) -0.2894(12) 0.37249(15)
C3I C -0.0983(4) -0.21477(11) 0.42336(11)
H2I H -0.0977(6) -0.23553(18) 0.46217(33)
C4I C -0.0835(4) -0.15260(11) 0.42012(11)
H3I H -0.0723(11) -0.13073(18) 0.45660(28)
C5I C -0.0835(4) -0.12262(12) 0.36354(11)
H4I H -0.0727(12) -0.0801(12) 0.36121(15)
C6I C -0.0973(4) -0.15502(12) 0.31028(11)
C7I C -0.0887(6) -0.12565(12) 0.24933(13)
S2T S 0.13570(29) -0.23853(19) 0.24378(29)
O3T O 0.1034(7) -0.0448(11) 0.24319(20)
O4T O 0.0824(11) -0.12937(22) 0.1958(4)
C8T C 0.11221(29) -0.19493(12) 0.30884(12)
C9T C 0.1057(4) -0.22350(10) 0.36565(15)
H5T H 0.1177(8) -0.2655(12) 0.37061(22)
C10T C 0.1029(13) -0.18833(11) 0.41894(11)
H6T H 0.103(4) -0.20800(17) 0.45834(33)
C11T C 0.1028(16) -0.12441(11) 0.41507(11)
H7T H 0.099(4) -0.10015(18) 0.45163(27)
C12T C 0.1049(12) -0.09585(11) 0.35773(10)
H8T H 0.1025(29) -0.0520(11) 0.35490(15)
C13T C 0.1073(6) -0.13126(12) 0.30452(11)
C14T C 0.0981(5) -0.10182(12) 0.24354(14)
S2W S 0.24378(29) -0.13570(29) 0.23853(19)
O3W O 0.24319(20) -0.1034(7) 0.0448(11)
O4W O 0.1958(4) -0.0824(11) 0.12937(22)
C8W C 0.30884(12) -0.11221(29) 0.19493(12)
C9W C 0.36565(15) -0.1057(4) 0.22350(10)
H5W H 0.37061(22) -0.1177(8) 0.2655(12)
C10W C 0.41894(11) -0.1029(13) 0.18833(11)
H6W H 0.45834(33) -0.103(4) 0.20800(17)
C11W C 0.41507(11) -0.1028(16) 0.12441(11)
H7W H 0.45163(27) -0.099(4) 0.10015(18)
C12W C 0.35773(10) -0.1049(12) 0.09585(11)
H8W H 0.35490(15) -0.1025(29) 0.0520(11)
C13W C 0.30452(11) -0.1073(6) 0.13126(12)
C14W C 0.24354(14) -0.0981(5) 0.10182(12)
O7A O 0.3004(12) 0.00000 0.00000
S1J S 0.24728(28) -0.14516(30) -0.25472(19)
O1J O 0.25051(19) -0.0830(9) -0.0686(9)
O2J O 0.1995(4) -0.0858(9) -0.15366(22)
C1J C 0.31396(12) -0.11508(27) -0.21638(13)
C2J C 0.37018(11) -0.1132(4) -0.24685(12)
H1J H 0.37249(15) -0.1239(10) -0.2894(12)
C3J C 0.42336(11) -0.0983(4) -0.21477(11)
H2J H 0.46217(33) -0.0977(6) -0.23553(18)
C4J C 0.42012(11) -0.0835(4) -0.15260(11)
H3J H 0.45660(28) -0.0723(11) -0.13073(18)
C5J C 0.36354(11) -0.0835(4) -0.12262(12)
H4J H 0.36121(15) -0.0727(12) -0.0801(12)
C6J C 0.31028(11) -0.0973(4) -0.15502(12)
C7J C 0.24933(13) -0.0887(6) -0.12565(12)
O7B O 0.00000 0.3004(12) 0.00000
S1H S -0.25472(19) 0.24728(28) -0.14516(30)
O1H O -0.0686(9) 0.25051(19) -0.0830(9)
O2H O -0.15366(22) 0.1995(4) -0.0858(9)
C1H C -0.21638(13) 0.31396(12) -0.11508(27)
C2H C -0.24685(12) 0.37018(11) -0.1132(4)
H1H H -0.2894(12) 0.37249(15) -0.1239(10)
C3H C -0.21477(11) 0.42336(11) -0.0983(4)
H2H H -0.23553(18) 0.46217(33) -0.0977(6)
C4H C -0.15260(11) 0.42012(11) -0.0835(4)
H3H H -0.13073(18) 0.45660(28) -0.0723(11)
C5H C -0.12262(12) 0.36354(11) -0.0835(4)
H4H H -0.0801(12) 0.36121(15) -0.0727(12)
C6H C -0.15502(12) 0.31028(11) -0.0973(4)
C7H C -0.12565(12) 0.24933(13) -0.0887(6)
Ru1I Ru -0.18192(26) -0.18192(26) 0.18192(26)
Ru2I Ru -0.25464(21) -0.25464(21) 0.25464(21)
Ru3S Ru -0.17289(25) 0.17289(25) 0.17289(25)
Gd1P Gd 0.2958(5) 0.50000 0.50000
Gd1F Gd -0.2042(5) 0.00000 0.00000
O5J O 0.1065(7) -0.0369(10) -0.0368(10)
O6J O 0.1129(8) 0.0450(9) -0.0448(10)
O3U O 0.24319(20) 0.1034(7) -0.0448(11)
O3R O 0.0448(11) 0.24319(20) -0.1034(7)
O5H O -0.0368(10) 0.1065(7) -0.0369(10)
O6B O 0.0448(10) 0.1129(8) -0.0450(9)
O3V O -0.0448(11) 0.24319(20) 0.1034(7)
Gd1Q Gd 0.50000 0.2958(5) 0.50000
Gd1O Gd 0.50000 0.50000 0.2958(5)
Ru2S Ru -0.24536(21) 0.24536(21) 0.24536(21)
Gd1E Gd 0.00000 -0.2042(5) 0.00000
Ru2T Ru 0.24536(21) -0.24536(21) 0.24536(21)
Ru3T Ru 0.17289(25) -0.17289(25) 0.17289(25)
Ru1J Ru 0.18192(26) -0.18192(26) -0.18192(26)
Ru2J Ru 0.25464(21) -0.25464(21) -0.25464(21)
Ru1H Ru -0.18192(26) 0.18192(26) -0.18192(26)
Ru2H Ru -0.25464(21) 0.25464(21) -0.25464(21)
S1F S -0.24728(28) -0.14516(30) 0.25472(19)
S1E S -0.25472(19) -0.24728(28) 0.14516(30)
O2F O -0.1995(4) -0.0858(9) 0.15366(22)
O2E O -0.15366(22) -0.1995(4) 0.0858(9)
Ru3I Ru -0.32711(25) -0.32711(25) 0.32711(25)
S2I S -0.25622(29) -0.36430(29) 0.26147(19)
S2F S -0.26147(19) -0.25622(29) 0.36430(29)
S2E S -0.36430(29) -0.26147(19) 0.25622(29)
S2O S -0.24378(29) 0.13570(29) 0.23853(19)
S2V S -0.23853(19) 0.24378(29) 0.13570(29)
O4O O -0.1958(4) 0.0824(11) 0.12937(22)
O4V O -0.12937(22) 0.1958(4) 0.0824(11)
loop_
_geom_bond_atom_site_label_1
_geom_bond_atom_site_label_2
_geom_bond_site_symmetry_1
_geom_bond_site_symmetry_2
Ru1 Ru2 1_555 1_555
Ru2 Ru3 1_555 1_555
Ru3 S2 1_555 1_555
S1 Ru1 1_555 1_555
O1 C7 1_555 1_555
O2 Ru1 1_555 1_555
C1 S1 1_555 1_555
C2 C1 1_555 1_555
H1 C2 1_555 1_555
C3 C2 1_555 1_555
H2 C3 1_555 1_555
C4 C3 1_555 1_555
H3 C4 1_555 1_555
C5 C4 1_555 1_555
H4 C5 1_555 1_555
C6 C1 1_555 1_555
C7 O2 1_555 1_555
S2 Ru2 1_555 1_555
O3 C14 1_555 1_555
O4 Ru3 1_555 1_555
C8 S2 1_555 1_555
C9 C8 1_555 1_555
H5 C9 1_555 1_555
C10 C9 1_555 1_555
H6 C10 1_555 1_555
C11 C10 1_555 1_555
H7 C11 1_555 1_555
C12 C11 1_555 1_555
H8 C12 1_555 1_555
C13 C8 1_555 1_555
C14 O4 1_555 1_555
Gd1 O1 1_555 1_555
C15 O5 1_555 1_555
O5 Gd1 1_555 1_555
C16 O6 1_555 1_555
O6 Gd1 1_555 1_555
O7 Gd1 1_555 1_555
O5A C15 1_555 1_555
O5B C15 1_555 1_555
O6F C16 1_555 1_555
O6H C16 1_555 1_555
S1A Ru1 1_555 1_555
O1A C7A 1_555 1_555
O2A Ru1 1_555 1_555
C1A S1A 1_555 1_555
C2A C1A 1_555 1_555
H1A C2A 1_555 1_555
C3A C2A 1_555 1_555
H2A C3A 1_555 1_555
C4A C3A 1_555 1_555
H3A C4A 1_555 1_555
C5A C4A 1_555 1_555
H4A C5A 1_555 1_555
C6A C1A 1_555 1_555
C7A O2A 1_555 1_555
S1B Ru1 1_555 1_555
O1B C7B 1_555 1_555
O2B Ru1 1_555 1_555
C1B S1B 1_555 1_555
C2B C1B 1_555 1_555
H1B C2B 1_555 1_555
C3B C2B 1_555 1_555
H2B C3B 1_555 1_555
C4B C3B 1_555 1_555
H3B C4B 1_555 1_555
C5B C4B 1_555 1_555
H4B C5B 1_555 1_555
C6B C1B 1_555 1_555
C7B O2B 1_555 1_555
Gd1A O5A 1_555 1_555
Gd1B O5B 1_555 1_555
S2A Ru2 1_555 1_555
O3A C14A 1_555 1_555
O4A Ru3 1_555 1_555
C8A S2A 1_555 1_555
C9A C8A 1_555 1_555
H5A C9A 1_555 1_555
C10A C9A 1_555 1_555
H6A C10A 1_555 1_555
C11A C10A 1_555 1_555
H7A C11A 1_555 1_555
C12A C11A 1_555 1_555
H8A C12A 1_555 1_555
C13A C8A 1_555 1_555
C14A O4A 1_555 1_555
S2B Ru2 1_555 1_555
O3B C14B 1_555 1_555
O4B Ru3 1_555 1_555
C8B S2B 1_555 1_555
C9B C8B 1_555 1_555
H5B C9B 1_555 1_555
C10B C9B 1_555 1_555
H6B C10B 1_555 1_555
C11B C10B 1_555 1_555
H7B C11B 1_555 1_555
C12B C11B 1_555 1_555
H8B C12B 1_555 1_555
C13B C8B 1_555 1_555
C14B O4B 1_555 1_555
S2S C8S 1_555 1_555
O3S Gd1 1_555 1_555
O4S C14S 1_555 1_555
C8S C9S 1_555 1_555
C9S H5S 1_555 1_555
C10S C9S 1_555 1_555
H6S C10S 1_555 1_555
C11S C10S 1_555 1_555
H7S C11S 1_555 1_555
C12S C11S 1_555 1_555
H8S C12S 1_555 1_555
C13S C8S 1_555 1_555
C14S O3S 1_555 1_555
C15I O5I 1_555 1_555
O5I Gd1 1_555 1_555
O5F C15I 1_555 1_555
O5E C15I 1_555 1_555
C16I O6I 1_555 1_555
O6I Gd1 1_555 1_555
O6A Gd1A 1_555 1_555
O6G C16I 1_555 1_555
S1I C1I 1_555 1_555
O1I Gd1 1_555 1_555
O2I C7I 1_555 1_555
C1I C2I 1_555 1_555
C2I H1I 1_555 1_555
C3I C2I 1_555 1_555
H2I C3I 1_555 1_555
C4I C3I 1_555 1_555
H3I C4I 1_555 1_555
C5I C4I 1_555 1_555
H4I C5I 1_555 1_555
C6I C1I 1_555 1_555
C7I O1I 1_555 1_555
S2T C8T 1_555 1_555
O3T Gd1 1_555 1_555
O4T C14T 1_555 1_555
C8T C9T 1_555 1_555
C9T H5T 1_555 1_555
C10T C9T 1_555 1_555
H6T C10T 1_555 1_555
C11T C10T 1_555 1_555
H7T C11T 1_555 1_555
C12T C11T 1_555 1_555
H8T C12T 1_555 1_555
C13T C8T 1_555 1_555
C14T O3T 1_555 1_555
S2W C8W 1_555 1_555
O3W Gd1A 1_555 1_555
O4W C14W 1_555 1_555
C8W C9W 1_555 1_555
C9W H5W 1_555 1_555
C10W C9W 1_555 1_555
H6W C10W 1_555 1_555
C11W C10W 1_555 1_555
H7W C11W 1_555 1_555
C12W C11W 1_555 1_555
H8W C12W 1_555 1_555
C13W C8W 1_555 1_555
C14W O3W 1_555 1_555
O7A Gd1A 1_555 1_555
S1J C1J 1_555 1_555
O1J Gd1A 1_555 1_555
O2J C7J 1_555 1_555
C1J C2J 1_555 1_555
C2J H1J 1_555 1_555
C3J C2J 1_555 1_555
H2J C3J 1_555 1_555
C4J C3J 1_555 1_555
H3J C4J 1_555 1_555
C5J C4J 1_555 1_555
H4J C5J 1_555 1_555
C6J C1J 1_555 1_555
C7J O1J 1_555 1_555
O7B Gd1B 1_555 1_555
S1H C1H 1_555 1_555
O1H Gd1B 1_555 1_555
O2H C7H 1_555 1_555
C1H C2H 1_555 1_555
C2H H1H 1_555 1_555
C3H C2H 1_555 1_555
H2H C3H 1_555 1_555
C4H C3H 1_555 1_555
H3H C4H 1_555 1_555
C5H C4H 1_555 1_555
H4H C5H 1_555 1_555
C6H C1H 1_555 1_555
C7H O1H 1_555 1_555
Ru1I S1I 1_555 1_555
Ru2I S1I 1_555 1_555
Ru3S S2S 1_555 1_555
Gd1P O3 1_555 1_555
Gd1F O6F 1_555 1_555
O5J Gd1A 1_555 1_555
O6J Gd1A 1_555 1_555
O3U Gd1A 1_555 1_555
O3R Gd1B 1_555 1_555
O5H Gd1B 1_555 1_555
O6B Gd1B 1_555 1_555
O3V Gd1B 1_555 1_555
Gd1Q O3A 1_555 1_555
Gd1O O3B 1_555 1_555
Ru2S S2S 1_555 1_555
Gd1E O5E 1_555 1_555
Ru2T S2T 1_555 1_555
Ru3T S2T 1_555 1_555
Ru1J S1J 1_555 1_555
Ru2J S1J 1_555 1_555
Ru1H S1H 1_555 1_555
Ru2H S1H 1_555 1_555
S1F Ru1I 1_555 1_555
S1E Ru1I 1_555 1_555
O2F Ru1I 1_555 1_555
O2E Ru1I 1_555 1_555
Ru3I Ru2I 1_555 1_555
S2I Ru2I 1_555 1_555
S2F Ru2I 1_555 1_555
S2E Ru2I 1_555 1_555
S2O Ru3S 1_555 1_555
S2V Ru3S 1_555 1_555
O4O Ru3S 1_555 1_555
O4V Ru3S 1_555 1_555
Ru2 S1 1_555 1_555
Ru2 S1A 1_555 1_555
Ru2 S1B 1_555 1_555
Ru3 S2A 1_555 1_555
Ru3 S2B 1_555 1_555
C5 C6 1_555 1_555
C6 C7 1_555 1_555
C12 C13 1_555 1_555
C13 C14 1_555 1_555
O6H Gd1B 1_555 1_555
O1A Gd1A 1_555 1_555
C5A C6A 1_555 1_555
C6A C7A 1_555 1_555
O1B Gd1B 1_555 1_555
C5B C6B 1_555 1_555
C6B C7B 1_555 1_555
C12A C13A 1_555 1_555
C13A C14A 1_555 1_555
C12B C13B 1_555 1_555
C13B C14B 1_555 1_555
O4S Ru3S 1_555 1_555
C12S C13S 1_555 1_555
C13S C14S 1_555 1_555
O5F Gd1F 1_555 1_555
C16I O6A 1_555 1_555
O6G Gd1E 1_555 1_555
O2I Ru1I 1_555 1_555
C5I C6I 1_555 1_555
C6I C7I 1_555 1_555
O4T Ru3T 1_555 1_555
C12T C13T 1_555 1_555
C13T C14T 1_555 1_555
S2W Ru2T 1_555 1_555
S2W Ru3T 1_555 1_555
O4W Ru3T 1_555 1_555
C12W C13W 1_555 1_555
C13W C14W 1_555 1_555
O2J Ru1J 1_555 1_555
C5J C6J 1_555 1_555
C6J C7J 1_555 1_555
O2H Ru1H 1_555 1_555
C5H C6H 1_555 1_555
C6H C7H 1_555 1_555
Ru1I Ru2I 1_555 1_555
Ru2I S1F 1_555 1_555
Ru2I S1E 1_555 1_555
Ru3S Ru2S 1_555 1_555
Ru2S S2O 1_555 1_555
Ru2S S2V 1_555 1_555
Ru2T Ru3T 1_555 1_555
Ru1J Ru2J 1_555 1_555
Ru1H Ru2H 1_555 1_555
Ru3I S2I 1_555 1_555
Ru3I S2F 1_555 1_555
Ru3I S2E 1_555 1_555

#END
