
#######################################################################
#
#                 Cambridge Crystallographic Data Centre
#                                CCDC 
#
#######################################################################
#
# If this CIF has been generated from an entry in the Cambridge 
# Structural Database, then it will include bibliographic, chemical, 
# crystal, experimental, refinement or atomic coordinate data resulting 
# from the CCDC's data processing and validation procedures.
#
#######################################################################

data_MEJLET
_symmetry_cell_setting           triclinic
_symmetry_space_group_name_H-M   'P -1'
_symmetry_Int_Tables_number      2
_space_group_name_Hall           '-P 1'
loop_
_symmetry_equiv_pos_site_id
_symmetry_equiv_pos_as_xyz
1 x,y,z
2 -x,-y,-z
_cell_length_a                   4.8606(4)
_cell_length_b                   6.7240(5)
_cell_length_c                   13.1788(11)
_cell_angle_alpha                98.071(1)
_cell_angle_beta                 98.236(1)
_cell_angle_gamma                95.585(1)
_cell_volume                     419.012
loop_
_atom_site_label
_atom_site_type_symbol
_atom_site_fract_x
_atom_site_fract_y
_atom_site_fract_z
Zn1 Zn 0.75484(7) -0.29625(5) 0.07919(3)
O1 O 0.5918(5) -0.0797(4) 0.1565(2)
O2 O 0.1653(5) -0.2376(3) 0.11098(19)
O3 O 0.2953(5) 0.2797(4) 0.06599(19)
O4 O 0.6856(5) 0.4729(4) 0.1471(2)
C1 C 0.3332(6) -0.0905(5) 0.1594(3)
C2 C 0.4760(7) 0.3463(5) 0.1440(3)
C3 C 0.2364(7) 0.0771(5) 0.2294(3)
H1 H 0.0502 0.1018 0.1979
C4 C 0.4347(7) 0.2746(5) 0.2453(3)
H2 H 0.6174 0.2510 0.2806
C5 C 0.3287(10) 0.4417(6) 0.3123(3)
H3 H 0.4764 0.5538 0.3342
H4 H 0.1732 0.4898 0.2719
C6 C 0.2347(12) 0.3716(8) 0.4066(4)
H5 H 0.2063 0.4687 0.4605
C7 C 0.1906(13) 0.1797(9) 0.4166(4)
H6 H 0.1413 0.1494 0.4788
C8 C 0.2142(12) 0.0081(7) 0.3352(4)
H7 H 0.0513 -0.0917 0.3274
H8 H 0.3785 -0.0559 0.3569
Zn1_2 Zn -0.24516(7) -0.29625(5) 0.07919(3)
Zn1A Zn 0.24516(7) 0.29625(5) -0.07919(3)
Zn1_3 Zn 0.75484(7) 0.70375(5) 0.07919(3)
O2_2 O 1.1653(5) -0.2376(3) 0.11098(19)
O3A O 0.7047(5) -0.2797(4) -0.06599(19)
O4_2 O 0.6856(5) -0.5271(4) 0.1471(2)
loop_
_geom_bond_atom_site_label_1
_geom_bond_atom_site_label_2
_geom_bond_site_symmetry_1
_geom_bond_site_symmetry_2
Zn1 O1 1_555 1_555
O1 C1 1_555 1_555
O2 C1 1_555 1_555
O3 C2 1_555 1_555
O4 C2 1_555 1_555
C1 C3 1_555 1_555
C2 C4 1_555 1_555
C3 H1 1_555 1_555
C4 C3 1_555 1_555
H2 C4 1_555 1_555
C5 C4 1_555 1_555
H3 C5 1_555 1_555
H4 C5 1_555 1_555
C6 C5 1_555 1_555
H5 C6 1_555 1_555
C7 C6 1_555 1_555
H6 C7 1_555 1_555
C8 C3 1_555 1_555
H7 C8 1_555 1_555
H8 C8 1_555 1_555
Zn1_2 O2 1_555 1_555
Zn1A O3 1_555 1_555
Zn1_3 O4 1_555 1_555
O2_2 Zn1 1_555 1_555
O3A Zn1 1_555 1_555
O4_2 Zn1 1_555 1_555
C7 C8 1_555 1_555

#END
