
#######################################################################
#
#                 Cambridge Crystallographic Data Centre
#                                CCDC 
#
#######################################################################
#
# If this CIF has been generated from an entry in the Cambridge 
# Structural Database, then it will include bibliographic, chemical, 
# crystal, experimental, refinement or atomic coordinate data resulting 
# from the CCDC's data processing and validation procedures.
#
#######################################################################

data_MEJNUL
_symmetry_cell_setting           triclinic
_symmetry_space_group_name_H-M   'P -1'
_symmetry_Int_Tables_number      2
_space_group_name_Hall           '-P 1'
loop_
_symmetry_equiv_pos_site_id
_symmetry_equiv_pos_as_xyz
1 x,y,z
2 -x,-y,-z
_cell_length_a                   9.4561(14)
_cell_length_b                   11.2506(17)
_cell_length_c                   13.545(2)
_cell_angle_alpha                102.925(2)
_cell_angle_beta                 102.831(3)
_cell_angle_gamma                100.013(2)
_cell_volume                     1331
loop_
_atom_site_label
_atom_site_type_symbol
_atom_site_fract_x
_atom_site_fract_y
_atom_site_fract_z
Ni1 Ni 0.46732(4) 0.36691(4) 0.52591(3)
Na1 Na 0.18481(15) 0.58075(14) 0.51355(12)
O1 O 0.2447(3) 0.4242(2) 0.6322(2)
H1 H 0.204(5) 0.324(5) 0.573(4)
N1 N 0.3942(3) 0.4517(3) 0.6409(2)
C1 C 0.4780(4) 0.5314(3) 0.7260(2)
C2 C 0.4313(4) 0.5895(3) 0.8207(3)
C3 C 0.3637(5) 0.4956(5) 0.8723(3)
H2 H 0.432(6) 0.434(5) 0.890(4)
H3 H 0.271(6) 0.448(5) 0.826(4)
H4 H 0.346(5) 0.544(4) 0.935(4)
C4 C 0.3355(5) 0.6815(5) 0.8019(3)
H5 H 0.375(5) 0.742(4) 0.760(4)
H6 H 0.327(4) 0.732(4) 0.864(3)
H7 H 0.233(6) 0.625(5) 0.758(4)
N2 N 0.5810(3) 0.6614(3) 0.8937(2)
O2 O 0.5831(3) 0.7210(3) 0.9860(2)
C5 C 0.6951(4) 0.6543(3) 0.8539(3)
C6 C 0.8541(4) 0.7142(4) 0.9173(3)
C7 C 0.9629(7) 0.6923(15) 0.8629(6)
H8 H 0.9547 0.6036 0.8395
H9 H 1.0606 0.7324 0.9091
H10 H 0.9471 0.7258 0.8032
C8 C 0.8680(11) 0.8567(9) 0.9536(14)
H11 H 0.9684 0.8977 0.9946
H12 H 0.8005 0.8730 0.9957
H13 H 0.8439 0.8881 0.8932
C9 C 0.8853(7) 0.6847(17) 1.0173(6)
H14 H 0.8800 0.5964 1.0055
H15 H 0.8133 0.7068 1.0536
H16 H 0.9836 0.7311 1.0591
C10 C 0.6371(4) 0.5792(3) 0.7442(3)
N3 N 0.7175(3) 0.5702(3) 0.6781(2)
O3 O 0.6471(2) 0.5013(2) 0.57707(17)
O4 O 0.1715(3) 0.2213(2) 0.5039(2)
N4 N 0.2972(3) 0.2212(3) 0.4696(2)
C11 C 0.2979(4) 0.1163(3) 0.4071(2)
C12 C 0.1811(4) -0.0036(3) 0.3752(3)
C13 C 0.1721(6) -0.0554(4) 0.4687(3)
H17 H 0.271(6) -0.068(4) 0.500(4)
H18 H 0.095(6) -0.149(5) 0.444(4)
H19 H 0.150(5) 0.010(4) 0.524(4)
C14 C 0.0305(5) 0.0000(5) 0.3099(4)
H20 H 0.044(5) 0.029(4) 0.248(4)
H21 H -0.013(5) 0.049(4) 0.351(4)
H22 H -0.034(6) -0.082(6) 0.277(4)
N5 N 0.2481(3) -0.0867(3) 0.3049(2)
O5 O 0.1740(3) -0.2016(2) 0.2620(2)
C15 C 0.3753(4) -0.0323(3) 0.2926(3)
C16 C 0.4518(4) -0.1029(3) 0.2205(3)
C17 C 0.4970(10) -0.2089(7) 0.2645(6)
H23 H 0.4103 -0.2618 0.2712
H24 H 0.5678 -0.1738 0.3324
H25 H 0.5414 -0.2575 0.2177
C18 C 0.3456(6) -0.1543(7) 0.1114(4)
H26 H 0.3193 -0.0862 0.0854
H27 H 0.2572 -0.2087 0.1141
H28 H 0.3930 -0.2007 0.0653
C19 C 0.5945(7) -0.0232(6) 0.2138(6)
H29 H 0.5721 0.0453 0.1867
H30 H 0.6383 -0.0737 0.1676
H31 H 0.6633 0.0090 0.2826
C20 C 0.4184(4) 0.0973(3) 0.3592(3)
N6 N 0.5439(3) 0.1730(3) 0.3700(2)
O6 O 0.5742(3) 0.2893(2) 0.4350(2)
O7 O -0.0050(3) 0.6271(3) 0.5949(2)
H32 H -0.046(8) 0.592(7) 0.637(6)
H33 H -0.046(6) 0.690(5) 0.578(4)
O8 O 0.0595(4) 0.6227(3) 0.3577(3)
H34 H -0.024(8) 0.600(7) 0.333(6)
H35 H 0.104(7) 0.691(6) 0.331(5)
Ni1A Ni 0.53268(4) 0.63309(4) 0.47409(3)
Na1A Na 0.81519(15) 0.41925(14) 0.48645(12)
Na1A_2 Na -0.18481(15) 0.41925(14) 0.48645(12)
O3A O 0.3529(2) 0.4987(2) 0.42293(17)
O6A O 0.4258(3) 0.7107(2) 0.5650(2)
O7A O 0.0050(3) 0.3729(3) 0.4051(2)
H32A H 0.046(8) 0.408(7) 0.363(6)
H33A H 0.046(6) 0.310(5) 0.422(4)
loop_
_geom_bond_atom_site_label_1
_geom_bond_atom_site_label_2
_geom_bond_site_symmetry_1
_geom_bond_site_symmetry_2
Ni1 N1 1_555 1_555
Na1 O1 1_555 1_555
O1 H1 1_555 1_555
N1 O1 1_555 1_555
C1 N1 1_555 1_555
C2 C1 1_555 1_555
C3 C2 1_555 1_555
H2 C3 1_555 1_555
H3 C3 1_555 1_555
H4 C3 1_555 1_555
C4 C2 1_555 1_555
H5 C4 1_555 1_555
H6 C4 1_555 1_555
H7 C4 1_555 1_555
N2 C2 1_555 1_555
O2 N2 1_555 1_555
C5 N2 1_555 1_555
C6 C5 1_555 1_555
C7 C6 1_555 1_555
H8 C7 1_555 1_555
H9 C7 1_555 1_555
H10 C7 1_555 1_555
C8 C6 1_555 1_555
H11 C8 1_555 1_555
H12 C8 1_555 1_555
H13 C8 1_555 1_555
C9 C6 1_555 1_555
H14 C9 1_555 1_555
H15 C9 1_555 1_555
H16 C9 1_555 1_555
C10 C1 1_555 1_555
N3 C10 1_555 1_555
O3 Ni1 1_555 1_555
O4 N4 1_555 1_555
N4 Ni1 1_555 1_555
C11 N4 1_555 1_555
C12 C11 1_555 1_555
C13 C12 1_555 1_555
H17 C13 1_555 1_555
H18 C13 1_555 1_555
H19 C13 1_555 1_555
C14 C12 1_555 1_555
H20 C14 1_555 1_555
H21 C14 1_555 1_555
H22 C14 1_555 1_555
N5 C12 1_555 1_555
O5 N5 1_555 1_555
C15 N5 1_555 1_555
C16 C15 1_555 1_555
C17 C16 1_555 1_555
H23 C17 1_555 1_555
H24 C17 1_555 1_555
H25 C17 1_555 1_555
C18 C16 1_555 1_555
H26 C18 1_555 1_555
H27 C18 1_555 1_555
H28 C18 1_555 1_555
C19 C16 1_555 1_555
H29 C19 1_555 1_555
H30 C19 1_555 1_555
H31 C19 1_555 1_555
C20 C11 1_555 1_555
N6 C20 1_555 1_555
O6 Ni1 1_555 1_555
O7 Na1 1_555 1_555
H32 O7 1_555 1_555
H33 O7 1_555 1_555
O8 Na1 1_555 1_555
H34 O8 1_555 1_555
H35 O8 1_555 1_555
Ni1A O3 1_555 1_555
Na1A O3 1_555 1_555
Na1A_2 O7 1_555 1_555
O3A Ni1 1_555 1_555
O6A Na1 1_555 1_555
O7A Na1 1_555 1_555
H32A O7A 1_555 1_555
H33A O7A 1_555 1_555
Na1 O3A 1_555 1_555
C5 C10 1_555 1_555
N3 O3 1_555 1_555
C15 C20 1_555 1_555
N6 O6 1_555 1_555
O6 Na1A 1_555 1_555
Ni1A O3A 1_555 1_555
Ni1A O6A 1_555 1_555
Na1A_2 O7A 1_555 1_555

#END
