
#######################################################################
#
#                 Cambridge Crystallographic Data Centre
#                                CCDC 
#
#######################################################################
#
# If this CIF has been generated from an entry in the Cambridge 
# Structural Database, then it will include bibliographic, chemical, 
# crystal, experimental, refinement or atomic coordinate data resulting 
# from the CCDC's data processing and validation procedures.
#
#######################################################################

data_MEJPIC
_symmetry_cell_setting           monoclinic
_symmetry_space_group_name_H-M   'P 21/n'
_symmetry_Int_Tables_number      14
_space_group_name_Hall           '-P 2yn'
loop_
_symmetry_equiv_pos_site_id
_symmetry_equiv_pos_as_xyz
1 x,y,z
2 1/2-x,1/2+y,1/2-z
3 -x,-y,-z
4 1/2+x,1/2-y,1/2+z
_cell_length_a                   15.665(1)
_cell_length_b                   13.5120(8)
_cell_length_c                   33.082(2)
_cell_angle_alpha                90
_cell_angle_beta                 99.933(1)
_cell_angle_gamma                90
_cell_volume                     6897.35
loop_
_atom_site_label
_atom_site_type_symbol
_atom_site_fract_x
_atom_site_fract_y
_atom_site_fract_z
C1 C 0.9267(4) 0.2763(6) 0.6399(2)
C2 C 0.8728(5) 0.3109(6) 0.5765(2)
C3 C 0.8813(5) 0.2093(6) 0.5798(3)
C4 C 0.8560(6) 0.1475(7) 0.5471(3)
H1 H 0.8606 0.0791 0.5498
C5 C 0.8234(6) 0.1911(9) 0.5100(3)
H2 H 0.8052 0.1509 0.4873
C6 C 0.8169(7) 0.2922(9) 0.5053(3)
H3 H 0.7970 0.3193 0.4796
C7 C 0.8404(7) 0.3550(7) 0.5396(3)
H4 H 0.8342 0.4233 0.5373
C8 C 0.9524(5) 0.0931(6) 0.6352(3)
H5 H 0.9108 0.0412 0.6260
H6 H 0.9639 0.0925 0.6650
C9 C 1.0357(5) 0.0739(6) 0.6190(2)
C10 C 1.0516(6) -0.0160(6) 0.6024(3)
H7 H 1.0093 -0.0650 0.5997
C11 C 1.1299(6) -0.0348(7) 0.5898(2)
H8 H 1.1398 -0.0969 0.5794
C12 C 1.1932(5) 0.0365(6) 0.5922(2)
C13 C 1.1770(5) 0.1294(7) 0.6075(3)
H9 H 1.2182 0.1794 0.6087
C14 C 1.0987(5) 0.1469(6) 0.6210(3)
H10 H 1.0886 0.2087 0.6316
C15 C 1.2772(6) 0.0172(7) 0.5791(2)
C16 C 1.1089(4) 0.4379(5) 0.6818(2)
C17 C 1.1352(5) 0.4659(6) 0.6209(2)
C18 C 1.2154(5) 0.4518(6) 0.6462(2)
C19 C 1.2914(6) 0.4546(8) 0.6309(3)
H11 H 1.3447 0.4449 0.6477
C20 C 1.2854(7) 0.4722(10) 0.5899(3)
H12 H 1.3363 0.4761 0.5790
C21 C 1.2064(7) 0.4845(8) 0.5636(3)
H13 H 1.2051 0.4937 0.5356
C22 C 1.1301(6) 0.4830(7) 0.5793(3)
H14 H 1.0769 0.4932 0.5623
C23 C 1.2606(5) 0.4005(6) 0.7201(2)
H15 H 1.2342 0.4010 0.7445
H16 H 1.3078 0.4479 0.7240
C24 C 1.2957(5) 0.2987(6) 0.7142(2)
C25 C 1.2439(5) 0.2176(7) 0.7153(3)
H17 H 1.1881 0.2256 0.7209
C26 C 1.2728(5) 0.1253(7) 0.7082(3)
H18 H 1.2373 0.0708 0.7098
C27 C 1.3552(5) 0.1117(6) 0.6985(2)
C28 C 1.4091(5) 0.1923(7) 0.6995(2)
H19 H 1.4655 0.1840 0.6948
C29 C 1.3799(5) 0.2860(7) 0.7074(2)
H20 H 1.4168 0.3402 0.7082
C30 C 1.3861(6) 0.0141(7) 0.6867(2)
C31 C 0.7753(5) 0.5582(5) 0.5979(2)
C32 C 0.8587(5) 0.6309(6) 0.5615(2)
C33 C 0.7722(5) 0.6506(6) 0.5424(2)
C34 C 0.7540(7) 0.7090(7) 0.5078(3)
H21 H 0.6971 0.7224 0.4957
C35 C 0.8207(8) 0.7460(8) 0.4923(3)
H22 H 0.8092 0.7843 0.4686
C36 C 0.9090(8) 0.7290(8) 0.5107(3)
H23 H 0.9536 0.7571 0.4993
C37 C 0.9281(6) 0.6701(7) 0.5458(3)
H24 H 0.9850 0.6577 0.5581
C38 C 0.6265(5) 0.5987(6) 0.5585(3)
H25 H 0.6039 0.6458 0.5373
H26 H 0.6042 0.6160 0.5832
C39 C 0.5968(5) 0.4957(6) 0.5450(2)
C40 C 0.5437(5) 0.4444(7) 0.5663(3)
H27 H 0.5252 0.4729 0.5889
C41 C 0.5172(5) 0.3480(7) 0.5537(3)
H28 H 0.4813 0.3129 0.5682
C42 C 0.5442(5) 0.3042(6) 0.5198(2)
C43 C 0.5952(5) 0.3604(7) 0.4983(3)
H29 H 0.6122 0.3343 0.4749
C44 C 0.6210(5) 0.4548(7) 0.5111(3)
H30 H 0.6556 0.4910 0.4964
C45 C 0.5184(5) 0.2007(7) 0.5070(2)
C46 C 0.8901(5) 0.6602(6) 0.6883(2)
C47 C 1.0192(5) 0.7026(6) 0.6827(2)
C48 C 0.9793(5) 0.7858(6) 0.6942(2)
C49 C 1.0217(7) 0.8786(6) 0.6994(2)
H31 H 0.9945 0.9347 0.7074
C50 C 1.1035(7) 0.8810(8) 0.6922(3)
H32 H 1.1339 0.9403 0.6961
C51 C 1.1448(6) 0.7989(8) 0.6791(3)
H33 H 1.2002 0.8059 0.6730
C52 C 1.1050(5) 0.7062(7) 0.6748(2)
H34 H 1.1331 0.6504 0.6672
C53 C 0.8260(5) 0.8245(6) 0.7013(2)
H35 H 0.8476 0.8782 0.7198
H36 H 0.7817 0.7899 0.7130
C54 C 0.7850(5) 0.8680(5) 0.6595(2)
C55 C 0.7163(5) 0.9333(6) 0.6568(2)
H37 H 0.6971 0.9533 0.6806
C56 C 0.6765(5) 0.9686(6) 0.6200(2)
H38 H 0.6300 1.0119 0.6190
C57 C 0.7033(4) 0.9419(5) 0.5843(2)
C58 C 0.7742(4) 0.8830(6) 0.5866(2)
H39 H 0.7957 0.8684 0.5628
C59 C 0.8148(5) 0.8445(6) 0.6234(2)
H40 H 0.8623 0.8028 0.6241
C60 C 0.6558(5) 0.9724(5) 0.5425(2)
C61 C 0.9653(4) 0.2887(5) 0.6845(2)
H41 H 0.9309 0.2515 0.7009
H42 H 1.0234 0.2612 0.6893
C62 C 1.0591(4) 0.4237(6) 0.7161(2)
H43 H 1.0866 0.3734 0.7349
H44 H 1.0574 0.4850 0.7312
C63 C 0.7455(4) 0.4958(6) 0.6310(2)
H45 H 0.6904 0.5196 0.6366
H46 H 0.7390 0.4272 0.6224
C64 C 0.8080(5) 0.6032(6) 0.6869(2)
H47 H 0.7965 0.5947 0.7146
H48 H 0.7603 0.6402 0.6714
C65 C 0.9045(4) 0.4148(6) 0.7240(2)
H49 H 0.9196 0.4763 0.7386
H50 H 0.9041 0.3625 0.7440
C66 C 0.8153(4) 0.4239(6) 0.6976(2)
H51 H 0.8005 0.3623 0.6830
H52 H 0.7726 0.4361 0.7150
N1 N 0.9021(4) 0.3525(5) 0.61535(18)
N2 N 0.9160(4) 0.1897(5) 0.6206(2)
N3 N 1.0704(4) 0.4604(5) 0.64455(18)
N4 N 1.1961(4) 0.4302(5) 0.68469(18)
N5 N 0.8581(4) 0.5708(4) 0.59598(17)
N6 N 0.7212(4) 0.6040(4) 0.56671(18)
N7 N 0.9617(4) 0.6235(4) 0.67886(18)
N8 N 0.8959(4) 0.7572(5) 0.69844(17)
N9 N 0.9692(4) 0.3922(5) 0.69770(16)
N10 N 0.8134(4) 0.5055(4) 0.66784(18)
Zn1 Zn 0.93855(5) 0.49283(6) 0.64148(2)
Eu1 Eu 1.42727(2) 0.00055(3) 0.542874(11)
O1 O 1.3290(4) 0.0903(5) 0.5784(2)
O2 O 1.2957(4) -0.0670(5) 0.56790(17)
O3 O 1.4782(4) -0.0980(5) 0.60504(17)
O4 O 1.3268(4) -0.0561(5) 0.68563(19)
H53 H 1.3466 -0.1088 0.6792
O5 O 1.4949(6) 0.1118(7) 0.6058(3)
O6 O 1.4571(4) -0.0012(5) 0.6778(2)
O8 O 0.4600(3) 0.1621(4) 0.52381(17)
O9 O 0.5571(4) 0.1624(4) 0.48034(17)
O10 O 0.6928(3) 0.9690(4) 0.51242(15)
O11 O 0.5773(3) 0.9976(4) 0.53889(16)
Eu1_2 Eu 0.42727(2) 0.00055(3) 0.542874(11)
Eu1B Eu 0.57273(2) -0.00055(3) 0.457126(11)
Eu1B_2 Eu 0.57273(2) 0.99945(3) 0.457126(11)
Eu1_3 Eu 0.42727(2) 1.00055(3) 0.542874(11)
O8_2 O 1.4600(3) 0.1621(4) 0.52381(17)
O9B O 1.4429(4) -0.1624(4) 0.51966(17)
O10B O 1.3072(3) 0.0310(4) 0.48758(15)
O11_2 O 1.5773(3) -0.0024(4) 0.53889(16)
O11B O 1.4227(3) 0.0024(4) 0.46111(16)
Zn2 Zn 0.56187(6) 0.59201(8) 0.71294(3)
Br1 Br 0.57017(7) 0.42741(8) 0.68767(3)
Br2 Br 0.67716(7) 0.61794(9) 0.77036(3)
Br3 Br 0.42550(7) 0.61870(9) 0.73475(4)
Br4 Br 0.57803(7) 0.70919(9) 0.66003(4)
O7 O 1.3526(7) 0.7782(8) 0.6474(3)
loop_
_geom_bond_atom_site_label_1
_geom_bond_atom_site_label_2
_geom_bond_site_symmetry_1
_geom_bond_site_symmetry_2
C1 C61 1_555 1_555
C2 C3 1_555 1_555
C3 C4 1_555 1_555
C4 H1 1_555 1_555
C5 C4 1_555 1_555
H2 C5 1_555 1_555
C6 C5 1_555 1_555
H3 C6 1_555 1_555
C7 C2 1_555 1_555
H4 C7 1_555 1_555
C8 H5 1_555 1_555
H6 C8 1_555 1_555
C9 C8 1_555 1_555
C10 C9 1_555 1_555
H7 C10 1_555 1_555
C11 C10 1_555 1_555
H8 C11 1_555 1_555
C12 C11 1_555 1_555
C13 C12 1_555 1_555
H9 C13 1_555 1_555
C14 C9 1_555 1_555
H10 C14 1_555 1_555
C15 C12 1_555 1_555
C16 C62 1_555 1_555
C17 C18 1_555 1_555
C18 C19 1_555 1_555
C19 H11 1_555 1_555
C20 C19 1_555 1_555
H12 C20 1_555 1_555
C21 C20 1_555 1_555
H13 C21 1_555 1_555
C22 C17 1_555 1_555
H14 C22 1_555 1_555
C23 H15 1_555 1_555
H16 C23 1_555 1_555
C24 C23 1_555 1_555
C25 C24 1_555 1_555
H17 C25 1_555 1_555
C26 C25 1_555 1_555
H18 C26 1_555 1_555
C27 C26 1_555 1_555
C28 C27 1_555 1_555
H19 C28 1_555 1_555
C29 C24 1_555 1_555
H20 C29 1_555 1_555
C30 C27 1_555 1_555
C31 C63 1_555 1_555
C32 C33 1_555 1_555
C33 C34 1_555 1_555
C34 H21 1_555 1_555
C35 C34 1_555 1_555
H22 C35 1_555 1_555
C36 C35 1_555 1_555
H23 C36 1_555 1_555
C37 C32 1_555 1_555
H24 C37 1_555 1_555
C38 H25 1_555 1_555
H26 C38 1_555 1_555
C39 C38 1_555 1_555
C40 C39 1_555 1_555
H27 C40 1_555 1_555
C41 C40 1_555 1_555
H28 C41 1_555 1_555
C42 C41 1_555 1_555
C43 C42 1_555 1_555
H29 C43 1_555 1_555
C44 C39 1_555 1_555
H30 C44 1_555 1_555
C45 C42 1_555 1_555
C46 C64 1_555 1_555
C47 C48 1_555 1_555
C48 C49 1_555 1_555
C49 H31 1_555 1_555
C50 C49 1_555 1_555
H32 C50 1_555 1_555
C51 C50 1_555 1_555
H33 C51 1_555 1_555
C52 C47 1_555 1_555
H34 C52 1_555 1_555
C53 H35 1_555 1_555
H36 C53 1_555 1_555
C54 C53 1_555 1_555
C55 C54 1_555 1_555
H37 C55 1_555 1_555
C56 C55 1_555 1_555
H38 C56 1_555 1_555
C57 C56 1_555 1_555
C58 C57 1_555 1_555
H39 C58 1_555 1_555
C59 C54 1_555 1_555
H40 C59 1_555 1_555
C60 C57 1_555 1_555
C61 H41 1_555 1_555
H42 C61 1_555 1_555
C62 H43 1_555 1_555
H44 C62 1_555 1_555
C63 H45 1_555 1_555
H46 C63 1_555 1_555
C64 H47 1_555 1_555
H48 C64 1_555 1_555
C65 H49 1_555 1_555
H50 C65 1_555 1_555
C66 C65 1_555 1_555
H51 C66 1_555 1_555
H52 C66 1_555 1_555
N1 C1 1_555 1_555
N2 C1 1_555 1_555
N3 C16 1_555 1_555
N4 C16 1_555 1_555
N5 C31 1_555 1_555
N6 C31 1_555 1_555
N7 C46 1_555 1_555
N8 C46 1_555 1_555
N9 C61 1_555 1_555
N10 C63 1_555 1_555
Zn1 N1 1_555 1_555
Zn2 Br1 1_555 1_555
Eu1 O1 1_555 1_555
Br2 Zn2 1_555 1_555
Br3 Zn2 1_555 1_555
Br4 Zn2 1_555 1_555
O1 C15 1_555 1_555
O2 C15 1_555 1_555
O3 Eu1 1_555 1_555
O4 C30 1_555 1_555
H53 O4 1_555 1_555
O5 Eu1 1_555 1_555
O6 C30 1_555 1_555
O8 C45 1_555 1_555
O9 C45 1_555 1_555
O10 C60 1_555 1_555
O11 C60 1_555 1_555
Eu1_2 O8 1_555 1_555
Eu1B O9 1_555 1_555
Eu1B_2 O10 1_555 1_555
Eu1_3 O11 1_555 1_555
O8_2 Eu1 1_555 1_555
O9B Eu1 1_555 1_555
O10B Eu1 1_555 1_555
O11_2 Eu1 1_555 1_555
O11B Eu1 1_555 1_555
C2 N1 1_555 1_555
C3 N2 1_555 1_555
C6 C7 1_555 1_555
C8 N2 1_555 1_555
C13 C14 1_555 1_555
C17 N3 1_555 1_555
C18 N4 1_555 1_555
C21 C22 1_555 1_555
C23 N4 1_555 1_555
C28 C29 1_555 1_555
C32 N5 1_555 1_555
C33 N6 1_555 1_555
C36 C37 1_555 1_555
C38 N6 1_555 1_555
C43 C44 1_555 1_555
C47 N7 1_555 1_555
C48 N8 1_555 1_555
C51 C52 1_555 1_555
C53 N8 1_555 1_555
C58 C59 1_555 1_555
C62 N9 1_555 1_555
C64 N10 1_555 1_555
C65 N9 1_555 1_555
C66 N10 1_555 1_555
N3 Zn1 1_555 1_555
N5 Zn1 1_555 1_555
N7 Zn1 1_555 1_555
N9 Zn1 1_555 1_555
N10 Zn1 1_555 1_555
Eu1 O2 1_555 1_555
O11 Eu1B_2 1_555 1_555

#END
