
#######################################################################
#
#                 Cambridge Crystallographic Data Centre
#                                CCDC 
#
#######################################################################
#
# If this CIF has been generated from an entry in the Cambridge 
# Structural Database, then it will include bibliographic, chemical, 
# crystal, experimental, refinement or atomic coordinate data resulting 
# from the CCDC's data processing and validation procedures.
#
#######################################################################

data_MEJQAV
_symmetry_cell_setting           monoclinic
_symmetry_space_group_name_H-M   'P 21/n'
_symmetry_Int_Tables_number      14
_space_group_name_Hall           '-P 2yn'
loop_
_symmetry_equiv_pos_site_id
_symmetry_equiv_pos_as_xyz
1 x,y,z
2 1/2-x,1/2+y,1/2-z
3 -x,-y,-z
4 1/2+x,1/2-y,1/2+z
_cell_length_a                   15.6340(8)
_cell_length_b                   13.4910(7)
_cell_length_c                   33.0790(18)
_cell_angle_alpha                90
_cell_angle_beta                 99.748(1)
_cell_angle_gamma                90
_cell_volume                     6876.23
loop_
_atom_site_label
_atom_site_type_symbol
_atom_site_fract_x
_atom_site_fract_y
_atom_site_fract_z
C1 C -0.2248(4) 0.0574(4) 0.09719(17)
C2 C -0.1412(4) 0.1313(5) 0.06081(18)
C3 C -0.2264(4) 0.1500(5) 0.04201(19)
C4 C -0.2462(5) 0.2098(6) 0.0075(2)
H1 H -0.3033 0.2240 -0.0041
C5 C -0.1788(6) 0.2462(7) -0.0082(2)
H2 H -0.1899 0.2848 -0.0317
C6 C -0.0926(6) 0.2283(7) 0.0095(3)
H3 H -0.0484 0.2553 -0.0026
C7 C -0.0713(5) 0.1717(6) 0.0445(2)
H4 H -0.0139 0.1608 0.0566
C8 C -0.3733(4) 0.0991(5) 0.0585(2)
H5 H -0.3957 0.1171 0.0832
H6 H -0.3958 0.1462 0.0372
C9 C -0.4037(4) -0.0043(5) 0.04523(19)
C10 C -0.4574(4) -0.0557(6) 0.0663(2)
H7 H -0.4768 -0.0265 0.0886
C11 C -0.4831(4) -0.1517(6) 0.0545(2)
H8 H -0.5182 -0.1869 0.0695
C12 C -0.4565(4) -0.1964(5) 0.01987(19)
C13 C -0.4034(4) -0.1410(6) -0.0012(2)
H9 H -0.3842 -0.1680 -0.0240
C14 C -0.3791(4) -0.0465(6) 0.0114(2)
H10 H -0.3448 -0.0101 -0.0036
C15 C -0.4818(4) -0.2997(6) 0.0079(2)
C16 C -0.1098(4) 0.1632(4) 0.18816(16)
C17 C 0.0201(4) 0.2042(5) 0.18229(17)
C18 C -0.0207(4) 0.2886(5) 0.19439(16)
C19 C 0.0210(5) 0.3800(5) 0.19964(19)
H11 H -0.0061 0.4362 0.2078
C20 C 0.1036(6) 0.3822(6) 0.1921(2)
H12 H 0.1336 0.4419 0.1956
C21 C 0.1453(5) 0.3012(7) 0.1797(2)
H13 H 0.2016 0.3082 0.1745
C22 C 0.1056(4) 0.2089(6) 0.1747(2)
H14 H 0.1340 0.1535 0.1668
C23 C -0.1749(4) 0.3268(5) 0.20107(17)
H15 H -0.2193 0.2918 0.2126
H16 H -0.1541 0.3808 0.2195
C24 C -0.2150(4) 0.3694(4) 0.15968(17)
C25 C -0.2837(4) 0.4359(5) 0.15737(19)
H17 H -0.3020 0.4571 0.1813
C26 C -0.3250(4) 0.4708(5) 0.11971(19)
H18 H -0.3719 0.5137 0.1184
C27 C -0.2971(4) 0.4425(4) 0.08425(17)
C28 C -0.2262(4) 0.3822(5) 0.08652(17)
H19 H -0.2052 0.3662 0.0627
C29 C -0.1852(4) 0.3448(5) 0.12354(17)
H20 H -0.1377 0.3030 0.1244
C30 C -0.3455(4) 0.4714(5) 0.04254(19)
C31 C -0.0709(3) -0.2223(4) 0.14011(18)
C32 C -0.1254(4) -0.1885(5) 0.07701(18)
C33 C -0.1159(4) -0.2914(5) 0.0805(2)
C34 C -0.1421(4) -0.3536(6) 0.0476(2)
H21 H -0.1382 -0.4221 0.0502
C35 C -0.1745(5) -0.3087(7) 0.0104(3)
H22 H -0.1925 -0.3486 -0.0124
C36 C -0.1812(5) -0.2070(7) 0.0059(2)
H23 H -0.2020 -0.1803 -0.0198
C37 C -0.1574(5) -0.1439(6) 0.0392(2)
H24 H -0.1626 -0.0755 0.0366
C38 C -0.0454(4) -0.4057(5) 0.1355(2)
H25 H -0.0330 -0.4059 0.1653
H26 H -0.0871 -0.4580 0.1268
C39 C 0.0367(4) -0.4254(5) 0.11886(18)
C40 C 0.0531(5) -0.5164(5) 0.1020(2)
H27 H 0.0105 -0.5652 0.0992
C41 C 0.1311(4) -0.5361(6) 0.0893(2)
H28 H 0.1409 -0.5983 0.0789
C42 C 0.1943(4) -0.4644(5) 0.09203(18)
C43 C 0.1801(4) -0.3716(5) 0.1076(2)
H29 H 0.2221 -0.3222 0.1092
C44 C 0.1004(4) -0.3538(5) 0.1210(2)
H30 H 0.0905 -0.2918 0.1316
C45 C 0.2790(4) -0.4840(6) 0.07854(19)
C46 C 0.1097(4) -0.0604(4) 0.18207(17)
C47 C 0.1367(4) -0.0314(5) 0.12087(19)
C48 C 0.2164(4) -0.0479(5) 0.14574(19)
C49 C 0.2923(4) -0.0438(7) 0.1304(2)
H31 H 0.3455 -0.0540 0.1473
C50 C 0.2874(5) -0.0244(8) 0.0901(3)
H32 H 0.3387 -0.0190 0.0795
C51 C 0.2086(6) -0.0123(7) 0.0636(3)
H33 H 0.2079 -0.0037 0.0357
C52 C 0.1315(5) -0.0130(6) 0.0790(2)
H34 H 0.0785 -0.0017 0.0621
C53 C 0.2618(4) -0.0976(5) 0.21955(19)
H35 H 0.3092 -0.0503 0.2233
H36 H 0.2355 -0.0967 0.2441
C54 C 0.2969(4) -0.1991(5) 0.21405(18)
C55 C 0.2452(4) -0.2800(6) 0.2157(2)
H37 H 0.1901 -0.2720 0.2222
C56 C 0.2736(4) -0.3725(6) 0.2080(2)
H38 H 0.2372 -0.4266 0.2090
C57 C 0.3559(4) -0.3870(5) 0.19856(19)
C58 C 0.4099(4) -0.3058(6) 0.1988(2)
H39 H 0.4662 -0.3141 0.1937
C59 C 0.3806(4) -0.2127(6) 0.20644(19)
H40 H 0.4172 -0.1583 0.2065
C60 C 0.3873(5) -0.4843(6) 0.1864(2)
C61 C -0.2532(4) -0.0031(5) 0.13091(18)
H41 H -0.2596 -0.0722 0.1228
H42 H -0.3086 0.0207 0.1365
C62 C -0.1917(4) 0.1056(5) 0.18661(19)
H43 H -0.2394 0.1427 0.1711
H44 H -0.2034 0.0969 0.2143
C63 C -0.0329(4) -0.2099(5) 0.18417(18)
H45 H 0.0255 -0.2368 0.1889
H46 H -0.0670 -0.2477 0.2007
C64 C 0.0593(3) -0.0753(5) 0.21606(17)
H47 H 0.0580 -0.0144 0.2315
H48 H 0.0862 -0.1265 0.2346
C65 C -0.1842(4) -0.0751(5) 0.19794(18)
H49 H -0.2268 -0.0626 0.2155
H50 H -0.1991 -0.1371 0.1836
C66 C -0.0949(3) -0.0837(5) 0.22391(17)
H51 H -0.0949 -0.1364 0.2438
H52 H -0.0803 -0.0222 0.2387
N1 N -0.1415(3) 0.0718(4) 0.09568(14)
N2 N -0.2792(3) 0.1039(4) 0.06654(14)
N3 N -0.0381(3) 0.1259(4) 0.17860(14)
N4 N -0.1033(3) 0.2594(4) 0.19865(14)
N5 N -0.0964(3) -0.1465(4) 0.11533(14)
N6 N -0.0830(3) -0.3096(4) 0.12100(15)
N7 N 0.0711(3) -0.0371(4) 0.14445(14)
N8 N 0.1975(3) -0.0675(4) 0.18455(14)
N9 N -0.1866(3) 0.0072(3) 0.16743(15)
N10 N -0.0297(3) -0.1050(4) 0.19768(13)
O1 O -0.4431(3) -0.3395(4) -0.01918(14)
O2 O -0.5389(3) -0.3398(3) 0.02475(14)
O3 O 0.4778(3) -0.5939(4) 0.10429(15)
O4 O -0.3088(3) 0.4694(3) 0.01207(13)
O5 O 0.4969(6) -0.3881(8) 0.1059(3)
O6 O -0.4246(3) 0.4965(3) 0.03879(13)
O8 O 0.2964(3) -0.5683(4) 0.06658(14)
O9 O 0.3320(3) -0.4124(4) 0.07840(16)
O10 O 0.4576(4) -0.4987(4) 0.17694(17)
O11 O 0.3279(3) -0.5564(4) 0.18537(16)
H53 H 0.3480 -0.6086 0.1785
Zn1 Zn -0.06069(4) -0.00551(5) 0.141300(19)
Tb1 Tb 0.426930(19) -0.50033(3) 0.042110(9)
O1B O 0.4431(3) -0.6605(4) 0.01918(14)
O2_2 O 0.4611(3) -0.3398(3) 0.02475(14)
O4B O 0.3088(3) -0.4694(3) -0.01207(13)
O6B O 0.4246(3) -0.4965(3) -0.03879(13)
O6_2 O 0.5754(3) -0.5035(3) 0.03879(13)
Tb1B Tb -0.426930(19) -0.49967(3) -0.042110(9)
Tb1_2 Tb -0.573070(19) -0.50033(3) 0.042110(9)
Tb1B_2 Tb -0.426930(19) 0.50033(3) -0.042110(9)
Tb1_3 Tb -0.573070(19) 0.49967(3) 0.042110(9)
O7 O -0.3534(5) -0.2800(6) -0.1473(4)
Zn2 Zn 0.43838(5) -0.09465(6) 0.78732(2)
Br1 Br 0.57504(5) -0.12161(8) 0.76563(3)
Br2 Br 0.32325(5) -0.12058(7) 0.72984(3)
Br3 Br 0.42195(6) -0.21181(7) 0.84042(3)
Br4 Br 0.42936(5) 0.07048(6) 0.81237(3)
loop_
_geom_bond_atom_site_label_1
_geom_bond_atom_site_label_2
_geom_bond_site_symmetry_1
_geom_bond_site_symmetry_2
C1 C61 1_555 1_555
C2 C3 1_555 1_555
C3 C4 1_555 1_555
C4 H1 1_555 1_555
C5 C4 1_555 1_555
H2 C5 1_555 1_555
C6 C5 1_555 1_555
H3 C6 1_555 1_555
C7 C2 1_555 1_555
H4 C7 1_555 1_555
C8 H5 1_555 1_555
H6 C8 1_555 1_555
C9 C8 1_555 1_555
C10 C9 1_555 1_555
H7 C10 1_555 1_555
C11 C10 1_555 1_555
H8 C11 1_555 1_555
C12 C11 1_555 1_555
C13 C12 1_555 1_555
H9 C13 1_555 1_555
C14 C9 1_555 1_555
H10 C14 1_555 1_555
C15 C12 1_555 1_555
C16 C62 1_555 1_555
C17 C18 1_555 1_555
C18 C19 1_555 1_555
C19 H11 1_555 1_555
C20 C19 1_555 1_555
H12 C20 1_555 1_555
C21 C20 1_555 1_555
H13 C21 1_555 1_555
C22 C17 1_555 1_555
H14 C22 1_555 1_555
C23 H15 1_555 1_555
H16 C23 1_555 1_555
C24 C23 1_555 1_555
C25 C24 1_555 1_555
H17 C25 1_555 1_555
C26 C25 1_555 1_555
H18 C26 1_555 1_555
C27 C26 1_555 1_555
C28 C27 1_555 1_555
H19 C28 1_555 1_555
C29 C24 1_555 1_555
H20 C29 1_555 1_555
C30 C27 1_555 1_555
C31 C63 1_555 1_555
C32 C33 1_555 1_555
C33 C34 1_555 1_555
C34 H21 1_555 1_555
C35 C34 1_555 1_555
H22 C35 1_555 1_555
C36 C35 1_555 1_555
H23 C36 1_555 1_555
C37 C32 1_555 1_555
H24 C37 1_555 1_555
C38 H25 1_555 1_555
H26 C38 1_555 1_555
C39 C38 1_555 1_555
C40 C39 1_555 1_555
H27 C40 1_555 1_555
C41 C40 1_555 1_555
H28 C41 1_555 1_555
C42 C41 1_555 1_555
C43 C42 1_555 1_555
H29 C43 1_555 1_555
C44 C39 1_555 1_555
H30 C44 1_555 1_555
C45 C42 1_555 1_555
C46 C64 1_555 1_555
C47 C48 1_555 1_555
C48 C49 1_555 1_555
C49 H31 1_555 1_555
C50 C49 1_555 1_555
H32 C50 1_555 1_555
C51 C50 1_555 1_555
H33 C51 1_555 1_555
C52 C47 1_555 1_555
H34 C52 1_555 1_555
C53 H35 1_555 1_555
H36 C53 1_555 1_555
C54 C53 1_555 1_555
C55 C54 1_555 1_555
H37 C55 1_555 1_555
C56 C55 1_555 1_555
H38 C56 1_555 1_555
C57 C56 1_555 1_555
C58 C57 1_555 1_555
H39 C58 1_555 1_555
C59 C54 1_555 1_555
H40 C59 1_555 1_555
C60 C57 1_555 1_555
C61 H41 1_555 1_555
H42 C61 1_555 1_555
C62 H43 1_555 1_555
H44 C62 1_555 1_555
C63 H45 1_555 1_555
H46 C63 1_555 1_555
C64 H47 1_555 1_555
H48 C64 1_555 1_555
C65 H49 1_555 1_555
H50 C65 1_555 1_555
C66 C65 1_555 1_555
H51 C66 1_555 1_555
H52 C66 1_555 1_555
N1 C1 1_555 1_555
N2 C1 1_555 1_555
N3 C16 1_555 1_555
N4 C16 1_555 1_555
N5 C31 1_555 1_555
N6 C31 1_555 1_555
N7 C46 1_555 1_555
N8 C46 1_555 1_555
N9 C61 1_555 1_555
N10 C63 1_555 1_555
O1 C15 1_555 1_555
O2 C15 1_555 1_555
O3 Tb1 1_555 1_555
O4 C30 1_555 1_555
O5 Tb1 1_555 1_555
O6 C30 1_555 1_555
O8 C45 1_555 1_555
O9 C45 1_555 1_555
O10 C60 1_555 1_555
O11 C60 1_555 1_555
H53 O11 1_555 1_555
Zn1 N1 1_555 1_555
Zn2 Br1 1_555 1_555
Br2 Zn2 1_555 1_555
Br3 Zn2 1_555 1_555
Br4 Zn2 1_555 1_555
Tb1 O8 1_555 1_555
O1B Tb1 1_555 1_555
O2_2 Tb1 1_555 1_555
O4B Tb1 1_555 1_555
O6B Tb1 1_555 1_555
O6_2 Tb1 1_555 1_555
Tb1B O1 1_555 1_555
Tb1_2 O2 1_555 1_555
Tb1B_2 O4 1_555 1_555
Tb1_3 O6 1_555 1_555
C2 N1 1_555 1_555
C3 N2 1_555 1_555
C6 C7 1_555 1_555
C8 N2 1_555 1_555
C13 C14 1_555 1_555
C17 N3 1_555 1_555
C18 N4 1_555 1_555
C21 C22 1_555 1_555
C23 N4 1_555 1_555
C28 C29 1_555 1_555
C32 N5 1_555 1_555
C33 N6 1_555 1_555
C36 C37 1_555 1_555
C38 N6 1_555 1_555
C43 C44 1_555 1_555
C47 N7 1_555 1_555
C48 N8 1_555 1_555
C51 C52 1_555 1_555
C53 N8 1_555 1_555
C58 C59 1_555 1_555
C62 N9 1_555 1_555
C64 N10 1_555 1_555
C65 N9 1_555 1_555
C66 N10 1_555 1_555
N3 Zn1 1_555 1_555
N5 Zn1 1_555 1_555
N7 Zn1 1_555 1_555
N9 Zn1 1_555 1_555
N10 Zn1 1_555 1_555
O6 Tb1B_2 1_555 1_555
O9 Tb1 1_555 1_555

#END
