
#######################################################################
#
#                 Cambridge Crystallographic Data Centre
#                                CCDC 
#
#######################################################################
#
# If this CIF has been generated from an entry in the Cambridge 
# Structural Database, then it will include bibliographic, chemical, 
# crystal, experimental, refinement or atomic coordinate data resulting 
# from the CCDC's data processing and validation procedures.
#
#######################################################################

data_MEJQID
_symmetry_cell_setting           orthorhombic
_symmetry_space_group_name_H-M   'P n a 21'
_symmetry_Int_Tables_number      33
_space_group_name_Hall           'P 2c -2n'
loop_
_symmetry_equiv_pos_site_id
_symmetry_equiv_pos_as_xyz
1 x,y,z
2 -x,-y,1/2+z
3 1/2+x,1/2-y,z
4 1/2-x,1/2+y,1/2+z
_cell_length_a                   18.6627(5)
_cell_length_b                   10.5533(4)
_cell_length_c                   8.9082(3)
_cell_angle_alpha                90
_cell_angle_beta                 90
_cell_angle_gamma                90
_cell_volume                     1754.5
loop_
_atom_site_label
_atom_site_type_symbol
_atom_site_fract_x
_atom_site_fract_y
_atom_site_fract_z
Zn1 Zn -0.39907(5) 0.01529(10) 0.1295(3)
C1 C -0.4974(8) 0.0235(11) -0.1303(19)
H1 H -0.4700 -0.0376 -0.1788
N1 N -0.4782(5) 0.0749(9) 0.0039(11)
N2 N -0.5361(5) 0.2312(9) 0.1567(13)
C2 C -0.5948(6) 0.3059(11) 0.1564(18)
H2 H -0.6004 0.3587 0.2392
N3 N -0.5593(5) 0.0684(9) -0.1873(12)
C3 C -0.6402(6) 0.2391(11) -0.0652(17)
N4 N -0.6438(5) 0.3128(10) 0.0559(12)
C4 C -0.5812(6) 0.1569(10) -0.0796(14)
C5 C -0.5323(6) 0.1598(10) 0.0332(13)
N5 N -0.6932(5) 0.2490(11) -0.1709(14)
H3 H -0.7277 0.3019 -0.1582
H4 H -0.6919 0.2022 -0.2499
O1 O -0.3387(4) -0.1152(8) 0.0368(10)
N6 N -0.1659(5) -0.3503(9) -0.2800(12)
O2 O -0.3060(5) 0.0332(8) -0.1271(12)
C6 C -0.3043(6) -0.0753(11) -0.0776(14)
C7 C -0.2570(6) -0.2980(11) -0.1048(14)
H5 H -0.2870 -0.3239 -0.0271
C8 C -0.2560(6) -0.1725(11) -0.1543(15)
C9 C -0.2111(7) -0.3833(12) -0.1772(18)
H6 H -0.2132 -0.4683 -0.1498
C10 C -0.1662(6) -0.2302(12) -0.3287(16)
H7 H -0.1362 -0.2072 -0.4076
C11 C -0.2104(6) -0.1388(12) -0.2634(16)
H8 H -0.2083 -0.0550 -0.2956
Zn1A Zn -0.60093(5) -0.01529(10) -0.3705(3)
Zn1C Zn -0.10093(5) -0.48471(10) -0.3705(3)
N3A N -0.4407(5) -0.0684(9) 0.3127(12)
N6C N -0.3341(5) 0.1497(9) 0.2200(12)
O3 O -0.0611(10) -0.086(2) -0.620(3)
C12 C 0.0463(12) -0.044(2) -0.787(3)
H9 H 0.0341 -0.0091 -0.6902
H10 H 0.0516 0.0240 -0.8578
H11 H 0.0905 -0.0897 -0.7791
N7 N -0.0146(12) -0.135(2) -0.840(3)
C13 C -0.1532(15) -0.207(4) -0.737(4)
H12 H -0.1784 -0.1844 -0.6469
H13 H -0.1470 -0.2974 -0.7404
H14 H -0.1802 -0.1800 -0.8228
C14 C -0.0290(14) -0.221(3) -0.978(3)
H15 H -0.0753 -0.2599 -0.9685
H16 H 0.0072 -0.2854 -0.9839
H17 H -0.0279 -0.1705 -1.0679
C15 C -0.0791(14) -0.142(2) -0.738(3)
loop_
_geom_bond_atom_site_label_1
_geom_bond_atom_site_label_2
_geom_bond_site_symmetry_1
_geom_bond_site_symmetry_2
Zn1 N1 1_555 1_555
C1 H1 1_555 1_555
N1 C1 1_555 1_555
N2 C2 1_555 1_555
C2 H2 1_555 1_555
N3 C1 1_555 1_555
C3 N4 1_555 1_555
N4 C2 1_555 1_555
C4 N3 1_555 1_555
C5 N1 1_555 1_555
N5 C3 1_555 1_555
H3 N5 1_555 1_555
H4 N5 1_555 1_555
O1 Zn1 1_555 1_555
N6 C9 1_555 1_555
O2 C6 1_555 1_555
C6 O1 1_555 1_555
C7 H5 1_555 1_555
C8 C6 1_555 1_555
C9 C7 1_555 1_555
H6 C9 1_555 1_555
C10 N6 1_555 1_555
H7 C10 1_555 1_555
C11 C8 1_555 1_555
H8 C11 1_555 1_555
O3 C15 1_555 1_555
C12 H9 1_555 1_555
H10 C12 1_555 1_555
H11 C12 1_555 1_555
N7 C12 1_555 1_555
C13 H12 1_555 1_555
H13 C13 1_555 1_555
H14 C13 1_555 1_555
C14 N7 1_555 1_555
H15 C14 1_555 1_555
H16 C14 1_555 1_555
H17 C14 1_555 1_555
C15 N7 1_555 1_555
Zn1A N3 1_555 1_555
Zn1C N6 1_555 1_555
N3A Zn1 1_555 1_555
N6C Zn1 1_555 1_555
N2 C5 1_555 1_555
C3 C4 1_555 1_555
C4 C5 1_555 1_555
C7 C8 1_555 1_555
C10 C11 1_555 1_555
C13 C15 1_555 1_555

#END
