
#######################################################################
#
#                 Cambridge Crystallographic Data Centre
#                                CCDC 
#
#######################################################################
#
# If this CIF has been generated from an entry in the Cambridge 
# Structural Database, then it will include bibliographic, chemical, 
# crystal, experimental, refinement or atomic coordinate data resulting 
# from the CCDC's data processing and validation procedures.
#
#######################################################################

data_MEJQOJ
_symmetry_cell_setting           orthorhombic
_symmetry_space_group_name_H-M   'P n a 21'
_symmetry_Int_Tables_number      33
_space_group_name_Hall           'P 2c -2n'
loop_
_symmetry_equiv_pos_site_id
_symmetry_equiv_pos_as_xyz
1 x,y,z
2 -x,-y,1/2+z
3 1/2+x,1/2-y,z
4 1/2-x,1/2+y,1/2+z
_cell_length_a                   18.4474(7)
_cell_length_b                   10.6981(6)
_cell_length_c                   8.9454(4)
_cell_angle_alpha                90
_cell_angle_beta                 90
_cell_angle_gamma                90
_cell_volume                     1765.39
loop_
_atom_site_label
_atom_site_type_symbol
_atom_site_fract_x
_atom_site_fract_y
_atom_site_fract_z
Zn1 Zn 0.39753(2) -0.01460(5) -0.13167(10)
C1 C 0.4990(4) -0.0198(6) 0.1255(10)
H1 H 0.4720 0.0420 0.1730
N1 N 0.4784(2) -0.0708(5) -0.0061(5)
N2 N 0.5343(2) -0.2308(5) -0.1607(5)
C2 C 0.5921(3) -0.3041(6) -0.1558(8)
H2 H 0.5969 -0.3586 -0.2362
N3 N 0.5606(2) -0.0643(5) 0.1824(5)
C3 C 0.6410(3) -0.2380(6) 0.0669(7)
N4 N 0.6450(2) -0.3121(5) -0.0527(6)
C4 C 0.5816(3) -0.1536(6) 0.0780(6)
C5 C 0.5316(2) -0.1564(5) -0.0357(7)
N5 N 0.6936(2) -0.2476(6) 0.1699(6)
H3 H 0.7283 -0.3002 0.1575
H4 H 0.6926 -0.2011 0.2483
O1 O 0.33892(18) 0.1164(4) -0.0386(5)
N6 N 0.1713(2) 0.3547(5) 0.2885(6)
O2 O 0.3081(2) -0.0274(4) 0.1288(5)
C6 C 0.3052(3) 0.0777(6) 0.0793(7)
C7 C 0.2619(3) 0.3001(6) 0.1114(7)
H5 H 0.2938 0.3256 0.0368
C8 C 0.2594(3) 0.1778(6) 0.1525(6)
C9 C 0.2176(3) 0.3861(6) 0.1795(7)
H6 H 0.2198 0.4690 0.1488
C10 C 0.1705(3) 0.2359(6) 0.3342(6)
H7 H 0.1397 0.2139 0.4123
C11 C 0.2129(3) 0.1449(6) 0.2710(7)
H8 H 0.2111 0.0630 0.3058
Zn1A Zn 0.60247(2) 0.01460(5) 0.36833(10)
Zn1C Zn 0.10247(2) 0.48540(5) 0.36833(10)
N3A N 0.4394(2) 0.0643(5) -0.3176(5)
N6C N 0.3287(2) -0.1453(5) -0.2115(6)
N7 N 0.0125(3) 0.1136(6) -0.2028(8)
O3 O 0.0919(3) 0.0657(7) -0.3891(8)
C12 C 0.1242(5) 0.2068(8) -0.1917(10)
H9 H 0.1402 0.2755 -0.2544
H10 H 0.1664 0.1610 -0.1574
C13 C 0.0803(5) 0.2548(10) -0.0602(14)
H11 H 0.0749 0.3449 -0.0652
H12 H 0.1034 0.2329 0.0336
C14 C 0.0745(4) 0.1241(8) -0.2740(9)
C15 C 0.0068(4) 0.1899(9) -0.0753(10)
H13 H -0.0034 0.1399 0.0127
H14 H -0.0316 0.2509 -0.0877
C16 C -0.0445(5) 0.0321(9) -0.2491(12)
H15 H -0.0855 0.0427 -0.1842
H16 H -0.0281 -0.0529 -0.2443
H17 H -0.0582 0.0519 -0.3499
loop_
_geom_bond_atom_site_label_1
_geom_bond_atom_site_label_2
_geom_bond_site_symmetry_1
_geom_bond_site_symmetry_2
Zn1 N1 1_555 1_555
C1 H1 1_555 1_555
N1 C1 1_555 1_555
N2 C2 1_555 1_555
C2 H2 1_555 1_555
N3 C1 1_555 1_555
C3 N4 1_555 1_555
N4 C2 1_555 1_555
C4 N3 1_555 1_555
C5 N1 1_555 1_555
N5 C3 1_555 1_555
H3 N5 1_555 1_555
H4 N5 1_555 1_555
O1 Zn1 1_555 1_555
N6 C9 1_555 1_555
O2 C6 1_555 1_555
C6 O1 1_555 1_555
C7 H5 1_555 1_555
C8 C6 1_555 1_555
C9 C7 1_555 1_555
H6 C9 1_555 1_555
C10 N6 1_555 1_555
H7 C10 1_555 1_555
C11 C8 1_555 1_555
H8 C11 1_555 1_555
N7 C14 1_555 1_555
O3 C14 1_555 1_555
C12 H9 1_555 1_555
H10 C12 1_555 1_555
C13 C12 1_555 1_555
H11 C13 1_555 1_555
H12 C13 1_555 1_555
C14 C12 1_555 1_555
C15 N7 1_555 1_555
H13 C15 1_555 1_555
H14 C15 1_555 1_555
C16 N7 1_555 1_555
H15 C16 1_555 1_555
H16 C16 1_555 1_555
H17 C16 1_555 1_555
Zn1A N3 1_555 1_555
Zn1C N6 1_555 1_555
N3A Zn1 1_555 1_555
N6C Zn1 1_555 1_555
N2 C5 1_555 1_555
C3 C4 1_555 1_555
C4 C5 1_555 1_555
C7 C8 1_555 1_555
C10 C11 1_555 1_555
C13 C15 1_555 1_555

#END
