
#######################################################################
#
#                 Cambridge Crystallographic Data Centre
#                                CCDC 
#
#######################################################################
#
# If this CIF has been generated from an entry in the Cambridge 
# Structural Database, then it will include bibliographic, chemical, 
# crystal, experimental, refinement or atomic coordinate data resulting 
# from the CCDC's data processing and validation procedures.
#
#######################################################################

data_MEJTEB
_symmetry_cell_setting           monoclinic
_symmetry_space_group_name_H-M   'P 21/c'
_symmetry_Int_Tables_number      14
_space_group_name_Hall           '-P 2ybc'
loop_
_symmetry_equiv_pos_site_id
_symmetry_equiv_pos_as_xyz
1 x,y,z
2 -x,1/2+y,1/2-z
3 -x,-y,-z
4 x,1/2-y,1/2+z
_cell_length_a                   15.143(16)
_cell_length_b                   17.320(19)
_cell_length_c                   14.260(15)
_cell_angle_alpha                90
_cell_angle_beta                 116.966(17)
_cell_angle_gamma                90
_cell_volume                     3333.43
loop_
_atom_site_label
_atom_site_type_symbol
_atom_site_fract_x
_atom_site_fract_y
_atom_site_fract_z
La1 La 0.13099(6) 0.43507(4) 0.10804(6)
F1 F 0.2982(9) 0.3380(6) -0.3137(9)
F2 F -0.5062(9) 0.3210(8) -0.2195(9)
F3 F -0.1739(13) 0.2245(7) 0.3242(11)
O1 O 0.1257(9) 0.3945(6) -0.0709(8)
O2 O -0.0012(8) 0.4707(6) -0.1019(7)
O3 O -0.0592(10) 0.3339(6) -0.3264(9)
O4 O 0.1727(8) 0.2124(5) -0.3943(8)
O5 O -0.0341(9) 0.3587(6) 0.0358(8)
O6 O -0.1655(7) 0.4394(6) -0.0367(8)
O7 O -0.2442(11) 0.4313(7) 0.1534(10)
O8 O -0.5559(12) 0.4361(8) -0.1119(11)
O9 O 0.2314(12) 0.3602(8) 0.3087(11)
O10 O 0.0799(11) 0.3979(7) 0.2525(8)
O11 O 0.0911(10) 0.4551(7) 0.4775(9)
O12 O -0.2196(12) 0.3601(9) 0.3946(11)
N1 N 0.2679(11) 0.5243(7) 0.2639(10)
N2 N 0.3265(12) 0.4204(7) 0.1570(11)
N3 N 0.0868(9) 0.3973(6) -0.2809(8)
N4 N 0.0559(9) 0.2745(7) -0.3604(9)
H1 H 0.0170 0.2358 -0.3872
N5 N -0.2783(11) 0.3477(7) 0.0182(11)
N6 N -0.3985(12) 0.4334(8) 0.0182(11)
H2 H -0.4137 0.4699 0.0491
N7 N 0.0511(12) 0.3331(7) 0.4104(10)
N8 N -0.0642(12) 0.4063(8) 0.4343(10)
H3 H -0.0786 0.4486 0.4559
C1 C 0.2361(16) 0.5767(10) 0.3132(14)
H4 H 0.1686 0.5814 0.2927
C2 C 0.3023(18) 0.6232(12) 0.3932(16)
H5 H 0.2782 0.6573 0.4266
C3 C 0.4057(15) 0.6204(13) 0.4258(15)
H6 H 0.4512 0.6528 0.4767
C4 C 0.4334(19) 0.5607(12) 0.3707(15)
C5 C 0.539(2) 0.5511(15) 0.4035(19)
H7 H 0.5858 0.5810 0.4573
C6 C 0.5675(15) 0.4967(16) 0.3528(17)
H8 H 0.6346 0.4907 0.3722
C7 C 0.4979(13) 0.4492(11) 0.2716(14)
C8 C 0.5263(16) 0.3948(13) 0.2176(18)
H9 H 0.5931 0.3873 0.2365
C9 C 0.4577(14) 0.3539(12) 0.1391(16)
H10 H 0.4764 0.3157 0.1058
C10 C 0.3545(16) 0.3696(11) 0.1064(16)
H11 H 0.3066 0.3435 0.0488
C11 C 0.3963(15) 0.4618(10) 0.2378(13)
C12 C 0.3672(13) 0.5169(10) 0.2928(12)
C13 C 0.0579(10) 0.4395(7) -0.1306(10)
C14 C 0.0502(13) 0.4601(8) -0.2378(11)
H12 H -0.0184 0.4709 -0.2861
H13 H 0.0884 0.5065 -0.2314
C15 C 0.0199(13) 0.3353(9) -0.3247(11)
C16 C 0.1507(12) 0.2700(8) -0.3569(11)
C17 C 0.2095(13) 0.3377(9) -0.3138(11)
C18 C 0.1790(11) 0.3978(8) -0.2762(10)
H14 H 0.2207 0.4398 -0.2469
C19 C -0.1199(11) 0.3812(8) 0.0141(10)
C20 C -0.1783(13) 0.3260(9) 0.0533(12)
H15 H -0.1762 0.2740 0.0291
H16 H -0.1455 0.3252 0.1296
C21 C -0.3016(16) 0.4055(10) 0.0691(15)
C22 C -0.4722(16) 0.4081(10) -0.0765(15)
C23 C -0.4433(16) 0.3479(10) -0.1289(15)
C24 C -0.3491(13) 0.3216(9) -0.0802(14)
H17 H -0.3302 0.2839 -0.1140
C25 C 0.1534(15) 0.3652(8) 0.3175(12)
C26 C 0.1525(15) 0.3256(9) 0.4145(12)
H18 H 0.1692 0.2714 0.4157
H19 H 0.2018 0.3494 0.4784
C27 C 0.0291(15) 0.4019(9) 0.4424(11)
C28 C -0.1384(17) 0.3513(11) 0.3958(14)
C29 C -0.1068(19) 0.2828(10) 0.3618(15)
C30 C -0.0157(16) 0.2745(10) 0.3717(12)
H20 H 0.0026 0.2283 0.3520
La1B La -0.13099(6) 0.56493(4) -0.10804(6)
La1C La 0.13099(6) 0.06493(4) -0.39196(6)
O2B O 0.0012(8) 0.5293(6) 0.1019(7)
O4C O 0.1727(8) 0.2876(5) 0.1057(8)
O6B O 0.1655(7) 0.5606(6) 0.0367(8)
loop_
_geom_bond_atom_site_label_1
_geom_bond_atom_site_label_2
_geom_bond_site_symmetry_1
_geom_bond_site_symmetry_2
La1 O1 1_555 1_555
F1 C17 1_555 1_555
F2 C23 1_555 1_555
F3 C29 1_555 1_555
O1 C13 1_555 1_555
O2 La1 1_555 1_555
O3 C15 1_555 1_555
O4 C16 1_555 1_555
O5 La1 1_555 1_555
O6 C19 1_555 1_555
O7 C21 1_555 1_555
O8 C22 1_555 1_555
O9 La1 1_555 1_555
O10 La1 1_555 1_555
O11 C27 1_555 1_555
O12 C28 1_555 1_555
N1 La1 1_555 1_555
N2 La1 1_555 1_555
N3 C14 1_555 1_555
N4 H1 1_555 1_555
N5 C20 1_555 1_555
N6 H2 1_555 1_555
N7 C26 1_555 1_555
N8 H3 1_555 1_555
C1 N1 1_555 1_555
H4 C1 1_555 1_555
C2 C1 1_555 1_555
H5 C2 1_555 1_555
C3 C2 1_555 1_555
H6 C3 1_555 1_555
C4 C3 1_555 1_555
C5 C4 1_555 1_555
H7 C5 1_555 1_555
C6 C5 1_555 1_555
H8 C6 1_555 1_555
C7 C6 1_555 1_555
C8 C7 1_555 1_555
H9 C8 1_555 1_555
C9 C8 1_555 1_555
H10 C9 1_555 1_555
C10 N2 1_555 1_555
H11 C10 1_555 1_555
C11 N2 1_555 1_555
C12 N1 1_555 1_555
C13 O2 1_555 1_555
C14 C13 1_555 1_555
H12 C14 1_555 1_555
H13 C14 1_555 1_555
C15 N3 1_555 1_555
C16 N4 1_555 1_555
C17 C16 1_555 1_555
C18 N3 1_555 1_555
H14 C18 1_555 1_555
C19 O5 1_555 1_555
C20 C19 1_555 1_555
H15 C20 1_555 1_555
H16 C20 1_555 1_555
C21 N5 1_555 1_555
C22 N6 1_555 1_555
C23 C22 1_555 1_555
C24 N5 1_555 1_555
H17 C24 1_555 1_555
C25 O9 1_555 1_555
C26 C25 1_555 1_555
H18 C26 1_555 1_555
H19 C26 1_555 1_555
C27 N7 1_555 1_555
C28 N8 1_555 1_555
C29 C28 1_555 1_555
C30 N7 1_555 1_555
H20 C30 1_555 1_555
La1B O2 1_555 1_555
La1C O4 1_555 1_555
O2B La1 1_555 1_555
O4C La1 1_555 1_555
O6B La1 1_555 1_555
O6 La1B 1_555 1_555
O10 C25 1_555 1_555
N4 C15 1_555 1_555
N6 C21 1_555 1_555
N8 C27 1_555 1_555
C4 C12 1_555 1_555
C7 C11 1_555 1_555
C9 C10 1_555 1_555
C11 C12 1_555 1_555
C17 C18 1_555 1_555
C23 C24 1_555 1_555
C29 C30 1_555 1_555
La1B O2B 1_555 1_555

#END
