
#######################################################################
#
#                 Cambridge Crystallographic Data Centre
#                                CCDC 
#
#######################################################################
#
# If this CIF has been generated from an entry in the Cambridge 
# Structural Database, then it will include bibliographic, chemical, 
# crystal, experimental, refinement or atomic coordinate data resulting 
# from the CCDC's data processing and validation procedures.
#
#######################################################################

data_MEJTIF
_symmetry_cell_setting           monoclinic
_symmetry_space_group_name_H-M   'P 21/c'
_symmetry_Int_Tables_number      14
_space_group_name_Hall           '-P 2ybc'
loop_
_symmetry_equiv_pos_site_id
_symmetry_equiv_pos_as_xyz
1 x,y,z
2 -x,1/2+y,1/2-z
3 -x,-y,-z
4 x,1/2-y,1/2+z
_cell_length_a                   14.645(6)
_cell_length_b                   17.114(7)
_cell_length_c                   14.141(6)
_cell_angle_alpha                90
_cell_angle_beta                 117.206(6)
_cell_angle_gamma                90
_cell_volume                     3152.12
loop_
_atom_site_label
_atom_site_type_symbol
_atom_site_fract_x
_atom_site_fract_y
_atom_site_fract_z
La1 La 0.36548(2) 0.434950(17) -0.02015(2)
C1 C 0.1340(5) 0.3739(3) -0.2422(4)
H1 H 0.1834 0.3444 -0.2501
C2 C 0.0303(5) 0.3626(5) -0.3152(5)
H2 H 0.0123 0.3267 -0.3702
C3 C -0.0453(5) 0.4055(4) -0.3046(6)
H3 H -0.1146 0.3969 -0.3492
C4 C -0.0124(5) 0.4632(4) -0.2228(5)
C5 C -0.0840(5) 0.5123(4) -0.2079(5)
H4 H -0.1539 0.5069 -0.2530
C6 C -0.0517(5) 0.5669(4) -0.1284(6)
H5 H -0.0992 0.5991 -0.1209
C7 C 0.0540(5) 0.5744(4) -0.0579(6)
C8 C 0.0873(6) 0.6265(4) 0.0256(6)
H6 H 0.0403 0.6588 0.0339
C9 C 0.1941(5) 0.6310(4) 0.0997(6)
H7 H 0.2186 0.6664 0.1558
C10 C 0.2601(5) 0.5790(4) 0.0834(5)
H8 H 0.3297 0.5802 0.1310
C11 C 0.1262(4) 0.5257(3) -0.0661(5)
C12 C 0.0934(5) 0.4705(3) -0.1517(4)
C13 C 0.4409(4) 0.4393(3) -0.1867(4)
C14 C 0.4502(5) 0.4613(3) -0.2871(4)
H9 H 0.4110 0.5085 -0.3178
H10 H 0.5215 0.4720 -0.2683
C15 C 0.4792(4) 0.3361(3) -0.3464(4)
C16 C 0.3428(4) 0.2711(3) -0.5024(4)
C17 C 0.2778(5) 0.3371(3) -0.5159(5)
H11 H 0.2113 0.3382 -0.5714
C18 C 0.3143(4) 0.3979(3) -0.4469(4)
H12 H 0.2717 0.4404 -0.4551
C19 C 0.6853(5) 0.3207(3) 0.2190(5)
H13 H 0.6505 0.3142 0.2627
H14 H 0.6857 0.2705 0.1874
C20 C 0.8062(5) 0.4021(4) 0.3608(5)
C21 C 0.9888(5) 0.4062(4) 0.4000(5)
C22 C 0.9663(5) 0.3481(4) 0.3193(5)
H15 H 1.0176 0.3294 0.3037
C23 C 0.8690(5) 0.3211(4) 0.2661(5)
H16 H 0.8540 0.2842 0.2128
C24 C 0.3270(5) 0.3672(3) 0.1592(5)
C25 C 0.3308(5) 0.3314(4) 0.2611(5)
H17 H 0.2828 0.3591 0.2787
H18 H 0.3089 0.2773 0.2474
C26 C 0.4648(5) 0.4034(3) 0.4086(4)
C27 C 0.6342(6) 0.3445(4) 0.5172(5)
C28 C 0.5986(4) 0.2765(3) 0.4505(4)
H19 H 0.6423 0.2344 0.4614
C29 C 0.5014(5) 0.2743(4) 0.3721(5)
H20 H 0.4798 0.2299 0.3297
C30 C 0.6268(5) 0.3782(3) 0.1322(5)
N1 N 0.1647(4) 0.4245(3) -0.1630(4)
N2 N 0.2276(4) 0.5276(3) 0.0023(4)
N3 N 0.4124(4) 0.3983(3) -0.3655(4)
N4 N 0.4389(4) 0.2761(3) -0.4183(4)
H21 H 0.4789 0.2370 -0.4094
N5 N 0.7931(4) 0.3458(3) 0.2876(4)
N6 N 0.9050(4) 0.4315(3) 0.4136(4)
H22 H 0.9156 0.4685 0.4586
N7 N 0.4322(4) 0.3348(3) 0.3515(4)
N8 N 0.5601(4) 0.4031(3) 0.4879(4)
H23 H 0.5784 0.4447 0.5262
O1 O 0.5025(3) 0.4707(2) -0.1002(3)
O2 O 0.3705(3) 0.3959(2) -0.1945(3)
O3 O 0.5342(3) 0.3602(2) 0.0728(3)
O4 O 0.6702(3) 0.4390(2) 0.1239(3)
O5 O 0.4091(3) 0.3993(3) 0.1698(3)
O6 O 0.2496(3) 0.3625(2) 0.0783(3)
O7 O 0.5640(3) 0.3343(2) -0.2724(3)
O8 O 0.3201(3) 0.2124(2) -0.5595(3)
O9 O 0.7391(3) 0.4251(2) 0.3800(3)
O10 O 1.0730(3) 0.4364(2) 0.4529(3)
O11 O 0.4044(3) 0.4586(2) 0.3890(3)
O12 O 0.7181(3) 0.3517(2) 0.5955(3)
La1B La 0.63452(2) 0.565050(17) 0.02015(2)
La1C La 0.36548(2) 0.065050(17) -0.52015(2)
O1B O 0.4975(3) 0.5293(2) 0.1002(3)
O4B O 0.3298(3) 0.5610(2) -0.1239(3)
O8C O 0.3201(3) 0.2876(2) -0.0595(3)
loop_
_geom_bond_atom_site_label_1
_geom_bond_atom_site_label_2
_geom_bond_site_symmetry_1
_geom_bond_site_symmetry_2
La1 N1 1_555 1_555
C1 H1 1_555 1_555
C2 C1 1_555 1_555
H2 C2 1_555 1_555
C3 C2 1_555 1_555
H3 C3 1_555 1_555
C4 C3 1_555 1_555
C5 C4 1_555 1_555
H4 C5 1_555 1_555
C6 C5 1_555 1_555
H5 C6 1_555 1_555
C7 C6 1_555 1_555
C8 C7 1_555 1_555
H6 C8 1_555 1_555
C9 C8 1_555 1_555
H7 C9 1_555 1_555
C10 C9 1_555 1_555
H8 C10 1_555 1_555
C11 C7 1_555 1_555
C12 C4 1_555 1_555
C13 C14 1_555 1_555
C14 H9 1_555 1_555
H10 C14 1_555 1_555
C15 N3 1_555 1_555
C16 C17 1_555 1_555
C17 H11 1_555 1_555
C18 C17 1_555 1_555
H12 C18 1_555 1_555
C19 H13 1_555 1_555
H14 C19 1_555 1_555
C20 N5 1_555 1_555
C21 C22 1_555 1_555
C22 H15 1_555 1_555
C23 C22 1_555 1_555
H16 C23 1_555 1_555
C24 C25 1_555 1_555
C25 H17 1_555 1_555
H18 C25 1_555 1_555
C26 N7 1_555 1_555
C27 C28 1_555 1_555
C28 H19 1_555 1_555
C29 C28 1_555 1_555
H20 C29 1_555 1_555
C30 C19 1_555 1_555
N1 C1 1_555 1_555
N2 La1 1_555 1_555
N3 C14 1_555 1_555
N4 C15 1_555 1_555
H21 N4 1_555 1_555
N5 C19 1_555 1_555
N6 C20 1_555 1_555
H22 N6 1_555 1_555
N7 C25 1_555 1_555
N8 C26 1_555 1_555
H23 N8 1_555 1_555
O1 La1 1_555 1_555
O2 La1 1_555 1_555
O3 La1 1_555 1_555
O4 C30 1_555 1_555
O5 La1 1_555 1_555
O6 La1 1_555 1_555
O7 C15 1_555 1_555
O8 C16 1_555 1_555
O9 C20 1_555 1_555
O10 C21 1_555 1_555
O11 C26 1_555 1_555
O12 C27 1_555 1_555
La1B O1 1_555 1_555
La1C O8 1_555 1_555
O1B La1 1_555 1_555
O4B La1 1_555 1_555
O8C La1 1_555 1_555
C10 N2 1_555 1_555
C11 C12 1_555 1_555
C11 N2 1_555 1_555
C12 N1 1_555 1_555
C13 O1 1_555 1_555
C13 O2 1_555 1_555
C16 N4 1_555 1_555
C18 N3 1_555 1_555
C21 N6 1_555 1_555
C23 N5 1_555 1_555
C24 O5 1_555 1_555
C24 O6 1_555 1_555
C27 N8 1_555 1_555
C29 N7 1_555 1_555
C30 O3 1_555 1_555
O4 La1B 1_555 1_555
La1B O1B 1_555 1_555

#END
