
#######################################################################
#
#                 Cambridge Crystallographic Data Centre
#                                CCDC 
#
#######################################################################
#
# If this CIF has been generated from an entry in the Cambridge 
# Structural Database, then it will include bibliographic, chemical, 
# crystal, experimental, refinement or atomic coordinate data resulting 
# from the CCDC's data processing and validation procedures.
#
#######################################################################

data_MEJVOO
_symmetry_cell_setting           orthorhombic
_symmetry_space_group_name_H-M   'F d d 2'
_symmetry_Int_Tables_number      43
_space_group_name_Hall           'F 2 -2d'
loop_
_symmetry_equiv_pos_site_id
_symmetry_equiv_pos_as_xyz
1 x,y,z
2 -x,-y,z
3 1/4+x,1/4-y,1/4+z
4 1/4-x,1/4+y,1/4+z
5 x,1/2+y,1/2+z
6 -x,1/2-y,1/2+z
7 1/4+x,3/4-y,3/4+z
8 1/4-x,3/4+y,3/4+z
9 1/2+x,y,1/2+z
10 1/2-x,-y,1/2+z
11 3/4+x,1/4-y,3/4+z
12 3/4-x,1/4+y,3/4+z
13 1/2+x,1/2+y,z
14 1/2-x,1/2-y,z
15 3/4+x,3/4-y,1/4+z
16 3/4-x,3/4+y,1/4+z
_cell_length_a                   29.620(6)
_cell_length_b                   61.500(12)
_cell_length_c                   5.3200(11)
_cell_angle_alpha                90
_cell_angle_beta                 90
_cell_angle_gamma                90
_cell_volume                     9691.07
loop_
_atom_site_label
_atom_site_type_symbol
_atom_site_fract_x
_atom_site_fract_y
_atom_site_fract_z
Zn1 Zn 0.942294(16) 0.241575(7) -0.11560(10)
Zn2 Zn 0.7500 0.2500 -0.1341(3)
P1 P 0.84747(4) 0.23280(2) -0.3272(3)
P2 P 0.97861(3) 0.221146(16) -0.6178(2)
N1 N 0.54933(16) 0.18880(8) 1.4817(10)
H1 H 0.5291 0.1923 1.5874
N2 N 0.69111(18) 0.07427(7) 0.5393(10)
H2 H 0.6913 0.0605 0.5313
N3 N 0.7398(3) 0.22234(13) 0.0850(12)
N4 N 0.65817(15) 0.18277(6) 0.7616(9)
N5 N 0.64494(14) 0.14627(6) 0.8743(10)
N6 N 0.69325(14) 0.15454(7) 0.5346(10)
C1 C 0.7552(3) 0.20173(16) 0.0880(15)
H3 H 0.7780 0.1980 -0.0245
C2 C 0.7396(2) 0.18591(13) 0.2452(15)
H4 H 0.7509 0.1718 0.2396
C3 C 0.7098(3) 0.22747(12) 0.251(2)
H5 H 0.7004 0.2419 0.2594
C4 C 0.6910(2) 0.21296(10) 0.4148(17)
H6 H 0.6684 0.2174 0.5248
C5 C 0.70561(18) 0.19194(8) 0.4164(11)
C6 C 0.68533(17) 0.17579(8) 0.5810(10)
C7 C 0.63858(16) 0.16781(7) 0.9004(11)
C8 C 0.67201(17) 0.14090(8) 0.6892(10)
C9 C 0.67866(16) 0.11699(7) 0.6373(12)
C10 C 0.7062(2) 0.11094(9) 0.4378(12)
H7 H 0.7199 0.1212 0.3350
C11 C 0.7123(2) 0.08883(9) 0.3995(14)
H8 H 0.7317 0.0841 0.2731
C12 C 0.6646(2) 0.07962(9) 0.7320(12)
H9 H 0.6507 0.0690 0.8290
C13 C 0.6583(2) 0.10158(8) 0.7839(12)
H10 H 0.6403 0.1058 0.9184
C14 C 0.60770(16) 0.17509(7) 1.1030(11)
C15 C 0.58769(19) 0.15999(8) 1.2675(12)
H11 H 0.5935 0.1452 1.2509
C16 C 0.5599(2) 0.16735(10) 1.4502(12)
H12 H 0.5472 0.1573 1.5601
C17 C 0.59686(18) 0.19703(8) 1.1323(13)
H13 H 0.6093 0.2075 1.0265
C18 C 0.56740(19) 0.20289(9) 1.3213(11)
H14 H 0.5598 0.2175 1.3372
O1 O 0.85513(15) 0.23158(9) -0.6197(10)
O2 O 0.85828(17) 0.20945(7) -0.2209(11)
H15 H 0.8680 0.2026 -0.3483
O3 O 0.79868(15) 0.23862(8) -0.2934(13)
O4 O 0.88001(12) 0.24815(6) -0.2010(8)
O5 O 0.96379(11) 0.21881(5) -0.3434(7)
O6 O 0.94054(12) 0.23168(8) -0.7680(7)
O7 O 0.98466(14) 0.19755(6) -0.7138(8)
H16 H 0.9615 0.1984 -0.8037
O8 O 1.02242(13) 0.23271(6) -0.6517(9)
Zn1M Zn 0.557706(16) 0.258425(7) -0.11560(10)
Zn1_2 Zn 0.942294(16) 0.241575(7) -1.11560(10)
Zn1E Zn 1.057706(16) 0.258425(7) -0.61560(10)
Zn1_3 Zn 0.942294(16) 0.241575(7) 0.88440(10)
Zn1E_2 Zn 1.057706(16) 0.258425(7) 0.38440(10)
P1M P 0.65253(4) 0.26720(2) -0.3272(3)
P2_2 P 0.97861(3) 0.221146(16) 0.3822(2)
N1M N 0.95067(16) 0.31120(8) 1.4817(10)
H1M H 0.9709 0.3077 1.5874
N2M N 0.80889(18) 0.42573(7) 0.5393(10)
H2M H 0.8087 0.4395 0.5313
N3M N 0.7602(3) 0.27766(13) 0.0850(12)
N4M N 0.84183(15) 0.31723(6) 0.7616(9)
N5M N 0.85506(14) 0.35373(6) 0.8743(10)
N6M N 0.80675(14) 0.34546(7) 0.5346(10)
C1M C 0.7448(3) 0.29827(16) 0.0880(15)
H3M H 0.7220 0.3020 -0.0245
C2M C 0.7604(2) 0.31409(13) 0.2452(15)
H4M H 0.7491 0.3282 0.2396
C3M C 0.7902(3) 0.27253(12) 0.251(2)
H5M H 0.7996 0.2581 0.2594
C4M C 0.8090(2) 0.28704(10) 0.4148(17)
H6M H 0.8316 0.2826 0.5248
C5M C 0.79439(18) 0.30806(8) 0.4164(11)
C6M C 0.81467(17) 0.32421(8) 0.5810(10)
C7M C 0.86142(16) 0.33219(7) 0.9004(11)
C8M C 0.82799(17) 0.35910(8) 0.6892(10)
C9M C 0.82134(16) 0.38301(7) 0.6373(12)
C10M C 0.7938(2) 0.38906(9) 0.4378(12)
H7M H 0.7801 0.3788 0.3350
C11M C 0.7877(2) 0.41117(9) 0.3995(14)
H8M H 0.7683 0.4159 0.2731
C12M C 0.8354(2) 0.42038(9) 0.7320(12)
H9M H 0.8493 0.4310 0.8290
C13M C 0.8417(2) 0.39842(8) 0.7839(12)
H10M H 0.8597 0.3942 0.9184
C14M C 0.89230(16) 0.32491(7) 1.1030(11)
C15M C 0.91231(19) 0.34001(8) 1.2675(12)
H11M H 0.9065 0.3548 1.2509
C16M C 0.9401(2) 0.33265(10) 1.4502(12)
H12M H 0.9528 0.3427 1.5601
C17M C 0.90314(18) 0.30297(8) 1.1323(13)
H13M H 0.8907 0.2925 1.0265
C18M C 0.93260(19) 0.29711(9) 1.3213(11)
H14M H 0.9402 0.2825 1.3372
O1M O 0.64487(15) 0.26842(9) -0.6197(10)
O2M O 0.64172(17) 0.29055(7) -0.2209(11)
H15M H 0.6320 0.2974 -0.3483
O3M O 0.70132(15) 0.26138(8) -0.2934(13)
O4M O 0.61999(12) 0.25185(6) -0.2010(8)
O5_2 O 0.96379(11) 0.21881(5) 0.6566(7)
O5M O 0.53621(11) 0.28119(5) -0.3434(7)
O6_2 O 0.94054(12) 0.23168(8) 0.2320(7)
O6M O 0.55946(12) 0.26832(8) 0.2320(7)
O7_2 O 0.98466(14) 0.19755(6) 0.2862(8)
H16_2 H 0.9615 0.1984 0.1963
O8_2 O 1.02242(13) 0.23271(6) 0.3483(9)
O8E O 0.97758(13) 0.26729(6) -0.1517(9)
O8H O 0.52242(13) 0.23271(6) -0.1517(9)
N7 N 0.5750(2) 0.08923(9) 0.3129(12)
O9 O 0.5710(3) 0.10756(9) 0.2280(16)
O10 O 0.5521(3) 0.08435(14) 0.5026(19)
O11 O 0.5988(2) 0.07493(10) 0.2161(13)
O12 O 0.5268(3) 0.12363(14) 0.7679(18)
H17 H 0.532(4) 0.1136(14) 0.875(17)
H18 H 0.526(5) 0.122(2) 0.609(6)
loop_
_geom_bond_atom_site_label_1
_geom_bond_atom_site_label_2
_geom_bond_site_symmetry_1
_geom_bond_site_symmetry_2
Zn1 O4 1_555 1_555
Zn2 N3 1_555 1_555
P1 O1 1_555 1_555
P2 O5 1_555 1_555
N1 H1 1_555 1_555
N2 H2 1_555 1_555
N3 C1 1_555 1_555
N4 C6 1_555 1_555
N5 C7 1_555 1_555
N6 C6 1_555 1_555
N7 O9 1_555 1_555
C1 H3 1_555 1_555
C2 C1 1_555 1_555
H4 C2 1_555 1_555
C3 N3 1_555 1_555
H5 C3 1_555 1_555
C4 C3 1_555 1_555
H6 C4 1_555 1_555
C5 C2 1_555 1_555
C6 C5 1_555 1_555
C7 N4 1_555 1_555
C8 N5 1_555 1_555
C9 C8 1_555 1_555
C10 C9 1_555 1_555
H7 C10 1_555 1_555
C11 N2 1_555 1_555
H8 C11 1_555 1_555
C12 N2 1_555 1_555
H9 C12 1_555 1_555
C13 C9 1_555 1_555
H10 C13 1_555 1_555
C14 C7 1_555 1_555
C15 C14 1_555 1_555
H11 C15 1_555 1_555
C16 N1 1_555 1_555
H12 C16 1_555 1_555
C17 C14 1_555 1_555
H13 C17 1_555 1_555
C18 N1 1_555 1_555
H14 C18 1_555 1_555
O2 P1 1_555 1_555
H15 O2 1_555 1_555
O3 Zn2 1_555 1_555
O4 P1 1_555 1_555
O5 Zn1 1_555 1_555
O6 P2 1_555 1_555
O7 P2 1_555 1_555
H16 O7 1_555 1_555
O8 P2 1_555 1_555
O10 N7 1_555 1_555
O11 N7 1_555 1_555
O12 H17 1_555 1_555
H18 O12 1_555 1_555
Zn1M O4M 1_555 1_555
Zn1_2 O6 1_555 1_555
Zn1E O8 1_555 1_555
Zn1_3 O5_2 1_555 1_555
Zn1E_2 O8_2 1_555 1_555
P1M O1M 1_555 1_555
P2_2 O5_2 1_555 1_555
N1M H1M 1_555 1_555
N2M H2M 1_555 1_555
N3M Zn2 1_555 1_555
N4M C6M 1_555 1_555
N5M C7M 1_555 1_555
N6M C6M 1_555 1_555
C1M N3M 1_555 1_555
H3M C1M 1_555 1_555
C2M C1M 1_555 1_555
H4M C2M 1_555 1_555
C3M N3M 1_555 1_555
H5M C3M 1_555 1_555
C4M C3M 1_555 1_555
H6M C4M 1_555 1_555
C5M C2M 1_555 1_555
C6M C5M 1_555 1_555
C7M N4M 1_555 1_555
C8M N5M 1_555 1_555
C9M C8M 1_555 1_555
C10M C9M 1_555 1_555
H7M C10M 1_555 1_555
C11M N2M 1_555 1_555
H8M C11M 1_555 1_555
C12M N2M 1_555 1_555
H9M C12M 1_555 1_555
C13M C9M 1_555 1_555
H10M C13M 1_555 1_555
C14M C7M 1_555 1_555
C15M C14M 1_555 1_555
H11M C15M 1_555 1_555
C16M N1M 1_555 1_555
H12M C16M 1_555 1_555
C17M C14M 1_555 1_555
H13M C17M 1_555 1_555
C18M N1M 1_555 1_555
H14M C18M 1_555 1_555
O2M P1M 1_555 1_555
H15M O2M 1_555 1_555
O3M Zn2 1_555 1_555
O4M P1M 1_555 1_555
O5M Zn1M 1_555 1_555
O6_2 Zn1 1_555 1_555
O6M Zn1M 1_555 1_555
O7_2 P2_2 1_555 1_555
H16_2 O7_2 1_555 1_555
O8_2 P2_2 1_555 1_555
O8E Zn1 1_555 1_555
O8H Zn1M 1_555 1_555
P1 O3 1_555 1_555
N6 C8 1_555 1_555
C4 C5 1_555 1_555
C10 C11 1_555 1_555
C12 C13 1_555 1_555
C15 C16 1_555 1_555
C17 C18 1_555 1_555
P1M O3M 1_555 1_555
P2_2 O6_2 1_555 1_555
N6M C8M 1_555 1_555
C4M C5M 1_555 1_555
C10M C11M 1_555 1_555
C12M C13M 1_555 1_555
C15M C16M 1_555 1_555
C17M C18M 1_555 1_555

#END
