
#######################################################################
#
#                 Cambridge Crystallographic Data Centre
#                                CCDC 
#
#######################################################################
#
# If this CIF has been generated from an entry in the Cambridge 
# Structural Database, then it will include bibliographic, chemical, 
# crystal, experimental, refinement or atomic coordinate data resulting 
# from the CCDC's data processing and validation procedures.
#
#######################################################################

data_MEKDEM
_symmetry_cell_setting           monoclinic
_symmetry_space_group_name_H-M   'C 2/c'
_symmetry_Int_Tables_number      15
_space_group_name_Hall           '-C 2yn'
loop_
_symmetry_equiv_pos_site_id
_symmetry_equiv_pos_as_xyz
1 x,y,z
2 1/2+x,1/2+y,z
3 -x,y,1/2-z
4 1/2-x,1/2+y,1/2-z
5 -x,-y,-z
6 1/2-x,1/2-y,-z
7 x,-y,1/2+z
8 1/2+x,1/2-y,1/2+z
_cell_length_a                   23.7270(19)
_cell_length_b                   9.2329(7)
_cell_length_c                   17.1160(14)
_cell_angle_alpha                90
_cell_angle_beta                 112.2420(10)
_cell_angle_gamma                90
_cell_volume                     3470.59
loop_
_atom_site_label
_atom_site_type_symbol
_atom_site_fract_x
_atom_site_fract_y
_atom_site_fract_z
Zn1 Zn 0.5000 0.33894(3) 0.2500
Zn2 Zn 0.623020(11) 0.40753(3) 0.418490(15)
S1 S 0.58569(3) 0.63931(8) 0.54665(5)
S2 S 0.67777(3) 0.31976(7) 0.34144(4)
O1 O 0.70525(7) 0.68900(17) 0.61113(9)
O2 O 0.64636(6) 0.12509(14) 0.22129(8)
O3 O 0.46023(7) 0.44536(15) 0.14894(9)
H1 H 0.4748 0.5220 0.1414
N1 N 0.67645(8) 0.54544(18) 0.50242(10)
N2 N 0.73969(8) 0.55951(19) 0.53068(12)
N3 N 0.92928(11) 0.7926(3) 0.75447(15)
N4 N 0.56605(7) 0.20792(17) 0.23996(10)
N5 N 0.54633(7) 0.10452(18) 0.17520(10)
N6 N 0.61310(8) -0.24167(18) -0.00727(11)
C1 C 0.75430(10) 0.6439(2) 0.59443(14)
C2 C 0.65632(10) 0.6218(2) 0.55075(14)
C3 C 0.81408(10) 0.6957(3) 0.64916(14)
C4 C 0.86568(11) 0.6517(3) 0.63656(17)
H2 H 0.8629 0.5892 0.5926
C5 C 0.92177(12) 0.7032(4) 0.6912(2)
H3 H 0.9563 0.6727 0.6825
C6 C 0.87973(13) 0.8345(3) 0.76496(17)
H4 H 0.8840 0.8988 0.8087
C7 C 0.82135(11) 0.7890(3) 0.71505(16)
H5 H 0.7879 0.8209 0.7259
C8 C 0.59497(9) 0.0612(2) 0.16626(12)
C9 C 0.62532(9) 0.2180(2) 0.26595(12)
C10 C 0.60107(9) -0.0421(2) 0.10575(12)
C11 C 0.55292(9) -0.1305(2) 0.05978(13)
H6 H 0.5158 -0.1236 0.0661
C12 C 0.56084(10) -0.2288(2) 0.00460(13)
H7 H 0.5285 -0.2888 -0.0258
C13 C 0.65864(10) -0.1541(2) 0.03572(15)
H8 H 0.6948 -0.1609 0.0267
C14 C 0.65485(10) -0.0541(2) 0.09278(15)
H9 H 0.6879 0.0047 0.1222
Zn2B Zn 0.376980(11) 0.40753(3) 0.081510(15)
Zn2F Zn 0.623020(11) -0.40753(3) -0.081510(15)
Zn2D Zn 0.376980(11) -0.40753(3) 0.581510(15)
S1B S 0.41431(3) 0.63931(8) -0.04665(5)
S2B S 0.32223(3) 0.31976(7) 0.15856(4)
O1B O 0.29475(7) 0.68900(17) -0.11113(9)
O2B O 0.35364(6) 0.12509(14) 0.27871(8)
O3B O 0.53977(7) 0.44536(15) 0.35106(9)
H1B H 0.5252 0.5220 0.3586
N1B N 0.32355(8) 0.54544(18) -0.00242(10)
N2B N 0.26031(8) 0.55951(19) -0.03068(12)
N3B N 0.07072(11) 0.7926(3) -0.25447(15)
N4B N 0.43395(7) 0.20792(17) 0.26004(10)
N5B N 0.45367(7) 0.10452(18) 0.32480(10)
N6B N 0.38690(8) -0.24167(18) 0.50727(11)
N6F N 0.61310(8) 0.24167(18) 0.49273(11)
N6D N 0.38690(8) 0.24167(18) 0.00727(11)
C1B C 0.24570(10) 0.6439(2) -0.09443(14)
C2B C 0.34368(10) 0.6218(2) -0.05075(14)
C3B C 0.18592(10) 0.6957(3) -0.14916(14)
C4B C 0.13432(11) 0.6517(3) -0.13656(17)
H2B H 0.1371 0.5892 -0.0926
C5B C 0.07823(12) 0.7032(4) -0.1912(2)
H3B H 0.0437 0.6727 -0.1825
C6B C 0.12027(13) 0.8345(3) -0.26496(17)
H4B H 0.1160 0.8988 -0.3087
C7B C 0.17865(11) 0.7890(3) -0.21505(16)
H5B H 0.2121 0.8209 -0.2259
C8B C 0.40503(9) 0.0612(2) 0.33374(12)
C9B C 0.37468(9) 0.2180(2) 0.23405(12)
C10B C 0.39893(9) -0.0421(2) 0.39425(12)
C11B C 0.44708(9) -0.1305(2) 0.44022(13)
H6B H 0.4842 -0.1236 0.4339
C12B C 0.43916(10) -0.2288(2) 0.49540(13)
H7B H 0.4715 -0.2888 0.5258
C13B C 0.34136(10) -0.1541(2) 0.46428(15)
H8B H 0.3052 -0.1609 0.4733
C14B C 0.34515(10) -0.0541(2) 0.40722(15)
H9B H 0.3121 0.0047 0.3778
loop_
_geom_bond_atom_site_label_1
_geom_bond_atom_site_label_2
_geom_bond_site_symmetry_1
_geom_bond_site_symmetry_2
Zn1 O3 1_555 1_555
Zn2 S2 1_555 1_555
S1 C2 1_555 1_555
S2 C9 1_555 1_555
O1 C1 1_555 1_555
O2 C8 1_555 1_555
O3 H1 1_555 1_555
N1 Zn2 1_555 1_555
N2 N1 1_555 1_555
N3 C5 1_555 1_555
N4 Zn1 1_555 1_555
N5 N4 1_555 1_555
N6 C12 1_555 1_555
C1 N2 1_555 1_555
C2 O1 1_555 1_555
C3 C1 1_555 1_555
C4 C3 1_555 1_555
H2 C4 1_555 1_555
C5 C4 1_555 1_555
H3 C5 1_555 1_555
C6 N3 1_555 1_555
H4 C6 1_555 1_555
C7 C3 1_555 1_555
H5 C7 1_555 1_555
C8 N5 1_555 1_555
C9 O2 1_555 1_555
C10 C8 1_555 1_555
C11 C10 1_555 1_555
H6 C11 1_555 1_555
C12 C11 1_555 1_555
H7 C12 1_555 1_555
C13 N6 1_555 1_555
H8 C13 1_555 1_555
C14 C10 1_555 1_555
H9 C14 1_555 1_555
Zn2B O3 1_555 1_555
Zn2F N6 1_555 1_555
Zn2D N6B 1_555 1_555
S1B C2B 1_555 1_555
S2B Zn2B 1_555 1_555
O1B C1B 1_555 1_555
O2B C8B 1_555 1_555
O3B Zn1 1_555 1_555
H1B O3B 1_555 1_555
N1B Zn2B 1_555 1_555
N2B N1B 1_555 1_555
N3B C5B 1_555 1_555
N4B Zn1 1_555 1_555
N5B N4B 1_555 1_555
N6B C12B 1_555 1_555
N6F Zn2 1_555 1_555
N6D Zn2B 1_555 1_555
C1B N2B 1_555 1_555
C2B O1B 1_555 1_555
C3B C1B 1_555 1_555
C4B C3B 1_555 1_555
H2B C4B 1_555 1_555
C5B C4B 1_555 1_555
H3B C5B 1_555 1_555
C6B N3B 1_555 1_555
H4B C6B 1_555 1_555
C7B C3B 1_555 1_555
H5B C7B 1_555 1_555
C8B N5B 1_555 1_555
C9B S2B 1_555 1_555
C10B C8B 1_555 1_555
C11B C10B 1_555 1_555
H6B C11B 1_555 1_555
C12B C11B 1_555 1_555
H7B C12B 1_555 1_555
C13B N6B 1_555 1_555
H8B C13B 1_555 1_555
C14B C10B 1_555 1_555
H9B C14B 1_555 1_555
Zn2 O3B 1_555 1_555
N1 C2 1_555 1_555
N4 C9 1_555 1_555
C6 C7 1_555 1_555
C13 C14 1_555 1_555
O2B C9B 1_555 1_555
N1B C2B 1_555 1_555
N4B C9B 1_555 1_555
C6B C7B 1_555 1_555
C13B C14B 1_555 1_555

#END
