
#######################################################################
#
#                 Cambridge Crystallographic Data Centre
#                                CCDC 
#
#######################################################################
#
# If this CIF has been generated from an entry in the Cambridge 
# Structural Database, then it will include bibliographic, chemical, 
# crystal, experimental, refinement or atomic coordinate data resulting 
# from the CCDC's data processing and validation procedures.
#
#######################################################################

data_MEKDIQ
_symmetry_cell_setting           monoclinic
_symmetry_space_group_name_H-M   'P 21/n'
_symmetry_Int_Tables_number      14
_space_group_name_Hall           '-P 2yn'
loop_
_symmetry_equiv_pos_site_id
_symmetry_equiv_pos_as_xyz
1 x,y,z
2 1/2-x,1/2+y,1/2-z
3 -x,-y,-z
4 1/2+x,1/2-y,1/2+z
_cell_length_a                   8.815(4)
_cell_length_b                   12.671(5)
_cell_length_c                   11.906(5)
_cell_angle_alpha                90
_cell_angle_beta                 100.050(5)
_cell_angle_gamma                90
_cell_volume                     1309.43
loop_
_atom_site_label
_atom_site_type_symbol
_atom_site_fract_x
_atom_site_fract_y
_atom_site_fract_z
Zn1 Zn 0.0000 1.0000 1.0000
S1 S -0.07076(6) 0.54385(5) 1.66422(4)
O1 O -0.07080(15) 0.65549(11) 1.47488(11)
O3 O 0.12670(16) 1.09685(11) 1.13056(11)
H1 H 0.2181 1.0727 1.1468
H2 H 0.0827 1.1062 1.1882
N1 N -0.04751(18) 0.88194(12) 1.12691(13)
N2 N -0.30156(18) 0.62913(13) 1.37228(13)
N3 N -0.29216(17) 0.57625(12) 1.47626(13)
C1 C -0.1242(2) 0.74218(15) 1.28904(16)
C2 C 0.0217(2) 0.78550(17) 1.30081(18)
H3 H 0.0966 0.7684 1.3633
C3 C 0.0549(2) 0.85435(17) 1.21872(18)
H4 H 0.1534 0.8830 1.2277
C4 C -0.1883(2) 0.83890(16) 1.11550(17)
H5 H -0.2608 0.8571 1.0520
C5 C -0.2309(2) 0.76915(16) 1.19304(17)
H6 H -0.3296 0.7405 1.1814
C6 C -0.1704(2) 0.67377(15) 1.37564(16)
C7 C -0.1530(2) 0.59064(15) 1.53596(16)
Zn1C Zn -0.5000 0.5000 1.5000
Zn1C_2 Zn 0.5000 1.5000 0.5000
S1B S 0.07076(6) 1.45615(5) 0.33578(4)
O1B O 0.07080(15) 1.34451(11) 0.52512(11)
O3B O -0.12670(16) 0.90315(11) 0.86944(11)
H1B H -0.2181 0.9273 0.8532
H2B H -0.0827 0.8938 0.8118
N1B N 0.04751(18) 1.11806(12) 0.87309(13)
N2B N 0.30156(18) 1.37087(13) 0.62772(13)
N3B N 0.29216(17) 1.42375(12) 0.52374(13)
N3C N 0.20784(17) 0.92375(12) 0.97626(13)
N3A N -0.20784(17) 1.07625(12) 1.02374(13)
C1B C 0.1242(2) 1.25782(15) 0.71096(16)
C2B C -0.0217(2) 1.21450(17) 0.69919(18)
H3B H -0.0966 1.2316 0.6367
C3B C -0.0549(2) 1.14565(17) 0.78128(18)
H4B H -0.1534 1.1170 0.7723
C4B C 0.1883(2) 1.16110(16) 0.88450(17)
H5B H 0.2608 1.1429 0.9480
C5B C 0.2309(2) 1.23085(16) 0.80696(17)
H6B H 0.3296 1.2595 0.8186
C6B C 0.1704(2) 1.32623(15) 0.62436(16)
C7B C 0.1530(2) 1.40936(15) 0.46404(16)
O2 O 0.4029(3) 0.5984(2) 1.13500(19)
N4 N 0.2012(3) 0.59844(18) 0.99027(18)
C8 C 0.0500(4) 0.6428(3) 0.9476(3)
H7 H 0.0246 0.6936 1.0012
H8 H -0.0255 0.5875 0.9379
H9 H 0.0511 0.6767 0.8757
C9 C 0.2574(4) 0.5183(2) 0.9215(3)
H10 H 0.3612 0.5000 0.9547
H11 H 0.2550 0.5447 0.8457
H12 H 0.1931 0.4568 0.9186
C10 C 0.2795(4) 0.6301(3) 1.0905(3)
H13 H 0.2339 0.6815 1.1292
loop_
_geom_bond_atom_site_label_1
_geom_bond_atom_site_label_2
_geom_bond_site_symmetry_1
_geom_bond_site_symmetry_2
Zn1 O3 1_555 1_555
S1 C7 1_555 1_555
O1 C6 1_555 1_555
O2 C10 1_555 1_555
O3 H1 1_555 1_555
H2 O3 1_555 1_555
N1 Zn1 1_555 1_555
N2 N3 1_555 1_555
N3 C7 1_555 1_555
N4 C8 1_555 1_555
C1 C2 1_555 1_555
C2 H3 1_555 1_555
C3 N1 1_555 1_555
H4 C3 1_555 1_555
C4 N1 1_555 1_555
H5 C4 1_555 1_555
C5 C1 1_555 1_555
H6 C5 1_555 1_555
C6 N2 1_555 1_555
C7 O1 1_555 1_555
C8 H7 1_555 1_555
H8 C8 1_555 1_555
H9 C8 1_555 1_555
C9 N4 1_555 1_555
H10 C9 1_555 1_555
H11 C9 1_555 1_555
H12 C9 1_555 1_555
C10 N4 1_555 1_555
H13 C10 1_555 1_555
Zn1C N3 1_555 1_555
Zn1C_2 N3B 1_555 1_555
S1B C7B 1_555 1_555
O1B C6B 1_555 1_555
O3B Zn1 1_555 1_555
H1B O3B 1_555 1_555
H2B O3B 1_555 1_555
N1B Zn1 1_555 1_555
N2B N3B 1_555 1_555
N3B C7B 1_555 1_555
N3C Zn1 1_555 1_555
N3A Zn1 1_555 1_555
C1B C2B 1_555 1_555
C2B H3B 1_555 1_555
C3B N1B 1_555 1_555
H4B C3B 1_555 1_555
C4B N1B 1_555 1_555
H5B C4B 1_555 1_555
C5B C1B 1_555 1_555
H6B C5B 1_555 1_555
C6B N2B 1_555 1_555
C7B O1B 1_555 1_555
C1 C6 1_555 1_555
C2 C3 1_555 1_555
C4 C5 1_555 1_555
C1B C6B 1_555 1_555
C2B C3B 1_555 1_555
C4B C5B 1_555 1_555

#END
