
#######################################################################
#
#                 Cambridge Crystallographic Data Centre
#                                CCDC 
#
#######################################################################
#
# If this CIF has been generated from an entry in the Cambridge 
# Structural Database, then it will include bibliographic, chemical, 
# crystal, experimental, refinement or atomic coordinate data resulting 
# from the CCDC's data processing and validation procedures.
#
#######################################################################

data_MEKGOZ
_symmetry_cell_setting           triclinic
_symmetry_space_group_name_H-M   'P -1'
_symmetry_Int_Tables_number      2
_space_group_name_Hall           '-P 1'
loop_
_symmetry_equiv_pos_site_id
_symmetry_equiv_pos_as_xyz
1 x,y,z
2 -x,-y,-z
_cell_length_a                   10.385(5)
_cell_length_b                   11.587(6)
_cell_length_c                   16.145(8)
_cell_angle_alpha                71.728(5)
_cell_angle_beta                 78.920(6)
_cell_angle_gamma                70.204(6)
_cell_volume                     1727.71
loop_
_atom_site_label
_atom_site_type_symbol
_atom_site_fract_x
_atom_site_fract_y
_atom_site_fract_z
Ag1 Ag 0.73400(4) 0.38405(3) 0.39194(2)
Ag2 Ag 0.48609(4) 0.30471(4) 0.59880(2)
N1 N 0.7289(4) 0.4433(3) 0.5192(2)
N2 N 0.6469(4) 0.4033(4) 0.5935(2)
N3 N 0.7627(4) 0.5067(3) 0.6251(2)
N4 N 0.8952(4) 0.6342(3) 0.6212(2)
N5 N 1.0296(4) 0.7636(3) 0.6078(2)
H1 H 1.0551 0.7592 0.5546
H2 H 1.0608 0.8073 0.6288
N6 N 0.4923(4) 0.2543(3) 0.4774(2)
N7 N 0.5839(4) 0.2748(4) 0.4035(2)
N8 N 0.4641(4) 0.1632(3) 0.3854(2)
N9 N 0.4560(4) 0.1041(4) 0.2627(3)
N10 N 0.4574(5) 0.0512(4) 0.1377(3)
H3 H 0.5098 0.0983 0.1119
H4 H 0.4334 0.0119 0.1089
N11 N 0.6605(4) 0.6786(4) 0.2840(2)
N12 N 0.7471(4) 0.5598(3) 0.2799(2)
N13 N 0.7830(4) 0.6991(3) 0.1584(2)
N14 N 0.9384(5) 0.6666(4) 0.0389(2)
N15 N 1.1021(6) 0.6193(5) -0.0742(3)
H5 H 1.1177 0.5400 -0.0466
H6 H 1.1476 0.6417 -0.1238
C1 C 0.7653(6) 0.5660(5) 0.7582(3)
H7 H 0.7069 0.5184 0.7901
C2 C 0.8121(6) 0.6352(5) 0.7950(3)
H8 H 0.7845 0.6358 0.8532
C3 C 0.8983(5) 0.7023(4) 0.7462(3)
H9 H 0.9301 0.7493 0.7705
C4 C 0.9383(5) 0.7000(4) 0.6595(3)
C5 C 0.8104(5) 0.5716(4) 0.6709(3)
C6 C 0.7964(5) 0.5042(4) 0.5407(3)
H10 H 0.8598 0.5411 0.5027
C7 C 0.6686(5) 0.4423(5) 0.6556(3)
H11 H 0.6258 0.4279 0.7124
C8 C 0.4129(5) 0.0388(4) 0.2232(3)
C9 C 0.3302(5) -0.0381(4) 0.2685(4)
H12 H 0.3039 -0.0839 0.2402
C10 C 0.2879(5) -0.0456(5) 0.3555(4)
H13 H 0.2313 -0.0954 0.3864
C11 C 0.3302(5) 0.0214(4) 0.3967(3)
H14 H 0.3034 0.0184 0.4555
C12 C 0.4121(5) 0.0914(4) 0.3475(3)
C13 C 0.4231(5) 0.1870(4) 0.4646(3)
H15 H 0.3551 0.1592 0.5044
C14 C 0.5636(5) 0.2195(5) 0.3507(3)
H16 H 0.6116 0.2189 0.2959
C15 C 0.8053(6) 0.8799(5) 0.0360(3)
H17 H 0.7369 0.9363 0.0629
C16 C 0.8743(7) 0.9215(6) -0.0449(4)
H18 H 0.8519 1.0079 -0.0736
C17 C 0.9730(7) 0.8378(6) -0.0822(3)
H19 H 1.0190 0.8659 -0.1364
C18 C 1.0052(6) 0.7097(5) -0.0393(3)
C19 C 0.8435(5) 0.7530(5) 0.0733(3)
C20 C 0.6853(5) 0.7588(4) 0.2114(3)
H20 H 0.6416 0.8460 0.1977
C21 C 0.8179(5) 0.5758(4) 0.2035(3)
H21 H 0.8838 0.5108 0.1830
Ag1A Ag 1.26600(4) 0.61595(3) 0.60806(2)
Ag1A_2 Ag 0.26600(4) 0.61595(3) 0.60806(2)
Ag1_2 Ag -0.26600(4) 0.38405(3) 0.39194(2)
Ag2A Ag 0.51391(4) 0.69529(4) 0.40120(2)
N1A N 0.2711(4) 0.5567(3) 0.4808(2)
N2A N 0.3531(4) 0.5967(4) 0.4065(2)
N3A N 0.2373(4) 0.4933(3) 0.3749(2)
N4A N 0.1048(4) 0.3658(3) 0.3788(2)
N5A N 0.9704(4) 0.2364(3) 0.3922(2)
N5_2 N 0.0296(4) 0.7636(3) 0.6078(2)
N5A_2 N -0.0296(4) 0.2364(3) 0.3922(2)
H1A H 0.9449 0.2408 0.4454
H1A_2 H -0.0551 0.2408 0.4454
H1_2 H 0.0551 0.7592 0.5546
H2A H 0.9392 0.1927 0.3712
H2A_2 H -0.0608 0.1927 0.3712
H2_2 H 0.0608 0.8073 0.6288
N6A N 0.5077(4) 0.7457(3) 0.5226(2)
N7A N 0.4161(4) 0.7252(4) 0.5965(2)
N8A N 0.5359(4) 0.8368(3) 0.6146(2)
N9A N 0.5440(4) 0.8959(4) 0.7373(3)
N10A N 0.5426(5) 0.9488(4) 0.8623(3)
H3A H 0.4902 0.9017 0.8881
H4A H 0.5666 0.9881 0.8911
N11A N 0.3395(4) 0.3214(4) 0.7160(2)
N12A N 0.2529(4) 0.4402(3) 0.7201(2)
N13A N 0.2170(4) 0.3009(3) 0.8416(2)
N14A N 0.0616(5) 0.3334(4) 0.9611(2)
N15A N -0.1021(6) 0.3807(5) 1.0742(3)
H5A H -0.1177 0.4600 1.0466
H6A H -0.1476 0.3583 1.1238
C1A C 0.2347(6) 0.4340(5) 0.2418(3)
H7A H 0.2931 0.4816 0.2099
C2A C 0.1879(6) 0.3648(5) 0.2050(3)
H8A H 0.2155 0.3642 0.1468
C3A C 0.1017(5) 0.2977(4) 0.2538(3)
H9A H 0.0699 0.2507 0.2295
C4A C 0.0617(5) 0.3000(4) 0.3405(3)
C5A C 0.1896(5) 0.4284(4) 0.3291(3)
C6A C 0.2036(5) 0.4958(4) 0.4593(3)
H10A H 0.1402 0.4589 0.4973
C7A C 0.3314(5) 0.5577(5) 0.3444(3)
H11A H 0.3742 0.5721 0.2876
C8A C 0.5871(5) 0.9612(4) 0.7768(3)
C9A C 0.6698(5) 1.0381(4) 0.7315(4)
H12A H 0.6961 1.0839 0.7598
C10A C 0.7121(5) 1.0456(5) 0.6445(4)
H13A H 0.7687 1.0954 0.6136
C11A C 0.6698(5) 0.9786(4) 0.6033(3)
H14A H 0.6966 0.9816 0.5445
C12A C 0.5879(5) 0.9086(4) 0.6525(3)
C13A C 0.5769(5) 0.8130(4) 0.5354(3)
H15A H 0.6449 0.8408 0.4956
C14A C 0.4364(5) 0.7805(5) 0.6493(3)
H16A H 0.3884 0.7811 0.7041
C15A C 0.1947(6) 0.1201(5) 0.9640(3)
H17A H 0.2631 0.0637 0.9371
C16A C 0.1257(7) 0.0785(6) 1.0449(4)
H18A H 0.1481 -0.0079 1.0736
C17A C 0.0270(7) 0.1622(6) 1.0822(3)
H19A H -0.0190 0.1341 1.1364
C18A C -0.0052(6) 0.2903(5) 1.0393(3)
C19A C 0.1565(5) 0.2470(5) 0.9267(3)
C20A C 0.3147(5) 0.2412(4) 0.7886(3)
H20A H 0.3584 0.1540 0.8023
C21A C 0.1821(5) 0.4242(4) 0.7965(3)
H21A H 0.1162 0.4892 0.8170
S1 S 0.89005(17) 0.94295(14) 0.35703(9)
F1 F 1.0931(5) 0.8273(6) 0.2669(5)
F2 F 0.9024(7) 0.8868(6) 0.2143(3)
F3 F 0.9440(6) 0.7264(4) 0.3228(4)
O1 O 0.7528(5) 0.9401(5) 0.3791(4)
O2 O 0.9767(8) 0.8802(8) 0.4266(3)
O3 O 0.9109(5) 1.0600(4) 0.3052(3)
C22 C 0.9614(7) 0.8413(6) 0.2862(6)
S2 S 0.4679(2) 0.71282(18) 0.07267(11)
F4 F 0.2959(9) 0.7910(6) -0.0321(4)
F5 F 0.3318(8) 0.5912(5) 0.0376(4)
F6 F 0.2193(8) 0.7349(7) 0.1037(6)
O4 O 0.4485(6) 0.8357(4) 0.0756(4)
O5 O 0.5774(8) 0.6736(7) 0.0048(4)
O6 O 0.4977(7) 0.6065(6) 0.1519(3)
C23 C 0.3252(15) 0.7079(9) 0.0397(7)
O7 O 0.6201(10) 0.3589(8) 0.1607(5)
H22 H 0.6724 0.3778 0.1855
H23 H 0.6292 0.3780 0.1050
loop_
_geom_bond_atom_site_label_1
_geom_bond_atom_site_label_2
_geom_bond_site_symmetry_1
_geom_bond_site_symmetry_2
Ag1 N1 1_555 1_555
Ag2 N2 1_555 1_555
S1 O1 1_555 1_555
S2 O4 1_555 1_555
F1 C22 1_555 1_555
F2 C22 1_555 1_555
F3 C22 1_555 1_555
F4 C23 1_555 1_555
F5 C23 1_555 1_555
F6 C23 1_555 1_555
O2 S1 1_555 1_555
O3 S1 1_555 1_555
O5 S2 1_555 1_555
O6 S2 1_555 1_555
N1 N2 1_555 1_555
N2 C7 1_555 1_555
N3 C5 1_555 1_555
N4 C4 1_555 1_555
N5 H1 1_555 1_555
H2 N5 1_555 1_555
N6 Ag2 1_555 1_555
N7 Ag1 1_555 1_555
N8 C12 1_555 1_555
N9 C8 1_555 1_555
N10 H3 1_555 1_555
H4 N10 1_555 1_555
N11 N12 1_555 1_555
N12 Ag1 1_555 1_555
N13 C19 1_555 1_555
N14 C18 1_555 1_555
N15 H5 1_555 1_555
H6 N15 1_555 1_555
C1 H7 1_555 1_555
C2 C1 1_555 1_555
H8 C2 1_555 1_555
C3 C2 1_555 1_555
H9 C3 1_555 1_555
C4 N5 1_555 1_555
C5 N4 1_555 1_555
C6 N1 1_555 1_555
H10 C6 1_555 1_555
C7 N3 1_555 1_555
H11 C7 1_555 1_555
C8 N10 1_555 1_555
C9 C8 1_555 1_555
H12 C9 1_555 1_555
C10 C9 1_555 1_555
H13 C10 1_555 1_555
C11 C10 1_555 1_555
H14 C11 1_555 1_555
C12 N9 1_555 1_555
C13 N6 1_555 1_555
H15 C13 1_555 1_555
C14 N7 1_555 1_555
H16 C14 1_555 1_555
C15 H17 1_555 1_555
C16 C15 1_555 1_555
H18 C16 1_555 1_555
C17 C16 1_555 1_555
H19 C17 1_555 1_555
C18 N15 1_555 1_555
C19 N14 1_555 1_555
C20 N11 1_555 1_555
H20 C20 1_555 1_555
C21 N12 1_555 1_555
H21 C21 1_555 1_555
C22 S1 1_555 1_555
C23 S2 1_555 1_555
O7 H22 1_555 1_555
H23 O7 1_555 1_555
Ag1A N5 1_555 1_555
Ag1A_2 N1A 1_555 1_555
Ag1_2 N5A_2 1_555 1_555
Ag2A N11 1_555 1_555
N1A N2A 1_555 1_555
N2A Ag2A 1_555 1_555
N3A C5A 1_555 1_555
N4A C4A 1_555 1_555
N5A Ag1 1_555 1_555
N5_2 Ag1A_2 1_555 1_555
N5A_2 H1A_2 1_555 1_555
H1A N5A 1_555 1_555
H1_2 N5_2 1_555 1_555
H2A N5A 1_555 1_555
H2A_2 N5A_2 1_555 1_555
H2_2 N5_2 1_555 1_555
N6A Ag2A 1_555 1_555
N7A Ag1A_2 1_555 1_555
N8A C12A 1_555 1_555
N9A C8A 1_555 1_555
N10A H3A 1_555 1_555
H4A N10A 1_555 1_555
N11A Ag2 1_555 1_555
N12A Ag1A_2 1_555 1_555
N13A C19A 1_555 1_555
N14A C18A 1_555 1_555
N15A H5A 1_555 1_555
H6A N15A 1_555 1_555
C1A H7A 1_555 1_555
C2A C1A 1_555 1_555
H8A C2A 1_555 1_555
C3A C2A 1_555 1_555
H9A C3A 1_555 1_555
C4A N5A_2 1_555 1_555
C5A N4A 1_555 1_555
C6A N1A 1_555 1_555
H10A C6A 1_555 1_555
C7A N2A 1_555 1_555
H11A C7A 1_555 1_555
C8A N10A 1_555 1_555
C9A C8A 1_555 1_555
H12A C9A 1_555 1_555
C10A C9A 1_555 1_555
H13A C10A 1_555 1_555
C11A C10A 1_555 1_555
H14A C11A 1_555 1_555
C12A N9A 1_555 1_555
C13A N6A 1_555 1_555
H15A C13A 1_555 1_555
C14A N7A 1_555 1_555
H16A C14A 1_555 1_555
C15A H17A 1_555 1_555
C16A C15A 1_555 1_555
H18A C16A 1_555 1_555
C17A C16A 1_555 1_555
H19A C17A 1_555 1_555
C18A N15A 1_555 1_555
C19A N14A 1_555 1_555
C20A N11A 1_555 1_555
H20A C20A 1_555 1_555
C21A N12A 1_555 1_555
H21A C21A 1_555 1_555
N3 C6 1_555 1_555
N6 N7 1_555 1_555
N8 C13 1_555 1_555
N8 C14 1_555 1_555
N13 C20 1_555 1_555
N13 C21 1_555 1_555
C1 C5 1_555 1_555
C3 C4 1_555 1_555
C11 C12 1_555 1_555
C15 C19 1_555 1_555
C17 C18 1_555 1_555
N3A C6A 1_555 1_555
N3A C7A 1_555 1_555
N6A N7A 1_555 1_555
N8A C13A 1_555 1_555
N8A C14A 1_555 1_555
N11A N12A 1_555 1_555
N13A C20A 1_555 1_555
N13A C21A 1_555 1_555
C1A C5A 1_555 1_555
C3A C4A 1_555 1_555
C11A C12A 1_555 1_555
C15A C19A 1_555 1_555
C17A C18A 1_555 1_555

#END
