
#######################################################################
#
#                 Cambridge Crystallographic Data Centre
#                                CCDC 
#
#######################################################################
#
# If this CIF has been generated from an entry in the Cambridge 
# Structural Database, then it will include bibliographic, chemical, 
# crystal, experimental, refinement or atomic coordinate data resulting 
# from the CCDC's data processing and validation procedures.
#
#######################################################################

data_MEKGEP
_symmetry_cell_setting           monoclinic
_symmetry_space_group_name_H-M   'P 21/n'
_symmetry_Int_Tables_number      14
_space_group_name_Hall           '-P 2yn'
loop_
_symmetry_equiv_pos_site_id
_symmetry_equiv_pos_as_xyz
1 x,y,z
2 1/2-x,1/2+y,1/2-z
3 -x,-y,-z
4 1/2+x,1/2-y,1/2+z
_cell_length_a                   13.2563(2)
_cell_length_b                   20.4398(4)
_cell_length_c                   17.2388(3)
_cell_angle_alpha                90
_cell_angle_beta                 107.2350(10)
_cell_angle_gamma                90
_cell_volume                     4461.22
loop_
_atom_site_label
_atom_site_type_symbol
_atom_site_fract_x
_atom_site_fract_y
_atom_site_fract_z
Ag1 Ag 0.07866(2) 0.020077(10) 0.774237(16)
Ag2 Ag 0.03855(2) -0.482076(10) 0.670744(16)
C1 C 0.1152(2) -0.13049(12) 0.76926(16)
C2 C 0.2001(2) -0.11583(15) 0.83906(18)
H1 H 0.2073 -0.0734 0.8594
C3 C 0.2704(2) -0.16133(17) 0.87680(19)
H2 H 0.3249 -0.1501 0.9229
C4 C 0.2627(2) -0.22554(16) 0.84743(19)
H3 H 0.3122 -0.2565 0.8740
C5 C 0.1838(2) -0.24297(14) 0.78073(17)
H4 H 0.1807 -0.2855 0.7609
C6 C 0.1050(2) -0.19647(12) 0.74042(15)
C7 C 0.0185(2) -0.21029(12) 0.67325(15)
C8 C -0.0553(2) -0.16207(12) 0.63665(15)
C9 C -0.1486(2) -0.17418(14) 0.57117(17)
H5 H -0.1636 -0.2165 0.5512
C10 C -0.2158(2) -0.12475(15) 0.53762(18)
H6 H -0.2759 -0.1332 0.4947
C11 C -0.1944(2) -0.06066(15) 0.56780(19)
H7 H -0.2404 -0.0270 0.5440
C12 C -0.1077(2) -0.04703(14) 0.63107(18)
H8 H -0.0956 -0.0044 0.6503
C13 C -0.0358(2) -0.09674(12) 0.66797(16)
C14 C 0.0104(2) -0.29325(13) 0.56444(16)
H9 H 0.0147 -0.2657 0.5226
C15 C 0.0076(2) -0.35871(13) 0.56336(17)
H10 H 0.0099 -0.3846 0.5195
C16 C 0.0009(2) -0.33038(12) 0.68162(17)
H11 H -0.0021 -0.3318 0.7348
C17 C 0.1341(2) 0.40221(12) 0.78488(15)
C18 C 0.2114(2) 0.44953(14) 0.82205(18)
H12 H 0.2057 0.4918 0.8013
C19 C 0.2943(2) 0.43369(16) 0.88818(18)
H13 H 0.3435 0.4655 0.9129
C20 C 0.3054(2) 0.36959(16) 0.91900(18)
H14 H 0.3635 0.3592 0.9629
C21 C 0.2333(2) 0.32263(14) 0.88615(16)
H15 H 0.2421 0.2806 0.9077
C22 C 0.1442(2) 0.33736(13) 0.81885(15)
C23 C 0.0660(2) 0.29200(12) 0.78137(16)
C24 C -0.0171(2) 0.30824(12) 0.71256(15)
C25 C -0.1002(2) 0.26487(13) 0.67161(17)
H16 H -0.1006 0.2223 0.6906
C26 C -0.1784(2) 0.28439(14) 0.60579(18)
H17 H -0.2316 0.2553 0.5798
C27 C -0.1793(2) 0.34893(15) 0.57642(18)
H18 H -0.2330 0.3618 0.5307
C28 C -0.1039(2) 0.39223(14) 0.61346(16)
H19 H -0.1069 0.4347 0.5935
C29 C -0.0199(2) 0.37390(12) 0.68270(15)
C30 C 0.0612(2) 0.20879(13) 0.88796(16)
H20 H 0.0556 0.2361 0.9297
C31 C 0.0748(2) 0.17173(13) 0.77145(17)
H21 H 0.0806 0.1706 0.7190
C32 C 0.0620(2) 0.14284(13) 0.88750(17)
H22 H 0.0580 0.1166 0.9306
N1 N 0.04794(18) -0.08224(10) 0.73202(13)
N2 N 0.00576(17) -0.27501(10) 0.64056(12)
N3 N 0.00087(18) -0.38227(10) 0.63647(13)
N4 N 0.05349(18) 0.41879(10) 0.71933(13)
N5 N 0.07052(18) 0.22721(10) 0.81332(13)
N6 N 0.06971(19) 0.11973(10) 0.81492(14)
N12 N 0.2021(2) -0.48089(11) 0.56936(15)
O5 O 0.11526(19) -0.50346(12) 0.53150(14)
O6 O 0.27618(18) -0.47891(10) 0.53899(13)
O7 O 0.21661(17) -0.46095(11) 0.64072(14)
Ag2_2 Ag 0.03855(2) 0.517924(10) 0.670744(16)
N4_2 N 0.05349(18) -0.58121(10) 0.71933(13)
Ag3 Ag 0.288701(19) 0.217859(10) 0.313297(16)
C33 C 0.1539(2) 0.57149(12) 0.19247(15)
C34 C 0.0677(2) 0.58829(13) 0.12342(16)
H23 H 0.0624 0.6307 0.1030
C35 C -0.0062(2) 0.54371(15) 0.08722(17)
H24 H -0.0616 0.5558 0.0422
C36 C -0.0007(2) 0.47938(14) 0.11652(18)
H25 H -0.0528 0.4494 0.0911
C37 C 0.0802(2) 0.46040(13) 0.18163(16)
H26 H 0.0827 0.4176 0.2006
C38 C 0.1610(2) 0.50545(12) 0.22113(15)
C39 C 0.2480(2) 0.48942(12) 0.28699(15)
C40 C 0.3250(2) 0.53585(12) 0.32268(15)
C41 C 0.4193(2) 0.52232(13) 0.38523(17)
H27 H 0.4332 0.4796 0.4040
C42 C 0.4905(2) 0.57035(15) 0.41876(17)
H28 H 0.5522 0.5602 0.4594
C43 C 0.4698(2) 0.63536(15) 0.39140(18)
H29 H 0.5166 0.6684 0.4161
C44 C 0.3827(2) 0.65041(13) 0.32957(18)
H30 H 0.3713 0.6935 0.3117
C45 C 0.3086(2) 0.60161(12) 0.29175(16)
C46 C 0.2712(2) 0.36792(12) 0.28630(17)
H31 H 0.2727 0.3637 0.2329
C47 C 0.2617(2) 0.41064(12) 0.40150(15)
H32 H 0.2554 0.4401 0.4409
C48 C 0.2758(2) 0.34581(13) 0.40960(16)
H33 H 0.2810 0.3225 0.4569
N7 N 0.28158(17) 0.31867(10) 0.33814(14)
N8 N 0.25837(16) 0.42463(9) 0.32144(12)
N9 N 0.22472(17) 0.61758(10) 0.22833(13)
Ag3A Ag 0.211299(19) 0.717859(10) 0.186703(16)
N9A N 0.27528(17) 0.11758(10) 0.27167(13)
N10 N 0.4723(3) -0.19490(14) 0.4331(2)
O1 O 0.5606(3) -0.21407(17) 0.4792(2)
O3 O 0.4081(2) -0.17917(14) 0.46847(16)
O4 O 0.4501(4) -0.19501(13) 0.3596(2)
N11 N 0.0613(3) 0.10943(17) 0.59412(18)
O8 O 0.0041(4) 0.0665(2) 0.5721(4)
O9 O 0.0319(2) 0.16550(13) 0.57351(16)
O10 O 0.1482(3) 0.09621(18) 0.63746(18)
O2 O 0.2103(3) -0.10762(15) 0.38818(18)
H34 H 0.279(3) -0.114(2) 0.417(3)
loop_
_geom_bond_atom_site_label_1
_geom_bond_atom_site_label_2
_geom_bond_site_symmetry_1
_geom_bond_site_symmetry_2
Ag1 N1 1_555 1_555
Ag2 N3 1_555 1_555
Ag3 N7 1_555 1_555
C1 C2 1_555 1_555
C2 H1 1_555 1_555
C3 C2 1_555 1_555
H2 C3 1_555 1_555
C4 C3 1_555 1_555
H3 C4 1_555 1_555
C5 C4 1_555 1_555
H4 C5 1_555 1_555
C6 C1 1_555 1_555
C7 C6 1_555 1_555
C8 C7 1_555 1_555
C9 C8 1_555 1_555
H5 C9 1_555 1_555
C10 C9 1_555 1_555
H6 C10 1_555 1_555
C11 C10 1_555 1_555
H7 C11 1_555 1_555
C12 C11 1_555 1_555
H8 C12 1_555 1_555
C13 C8 1_555 1_555
C14 H9 1_555 1_555
C15 C14 1_555 1_555
H10 C15 1_555 1_555
C16 H11 1_555 1_555
C17 C18 1_555 1_555
C18 H12 1_555 1_555
C19 C18 1_555 1_555
H13 C19 1_555 1_555
C20 C19 1_555 1_555
H14 C20 1_555 1_555
C21 C20 1_555 1_555
H15 C21 1_555 1_555
C22 C17 1_555 1_555
C23 C22 1_555 1_555
C24 C23 1_555 1_555
C25 C24 1_555 1_555
H16 C25 1_555 1_555
C26 C25 1_555 1_555
H17 C26 1_555 1_555
C27 C26 1_555 1_555
H18 C27 1_555 1_555
C28 C27 1_555 1_555
H19 C28 1_555 1_555
C29 C24 1_555 1_555
C30 H20 1_555 1_555
C31 H21 1_555 1_555
C32 C30 1_555 1_555
H22 C32 1_555 1_555
C33 C34 1_555 1_555
C34 H23 1_555 1_555
C35 C34 1_555 1_555
H24 C35 1_555 1_555
C36 C35 1_555 1_555
H25 C36 1_555 1_555
C37 C36 1_555 1_555
H26 C37 1_555 1_555
C38 C33 1_555 1_555
C39 C38 1_555 1_555
C40 C39 1_555 1_555
C41 C40 1_555 1_555
H27 C41 1_555 1_555
C42 C41 1_555 1_555
H28 C42 1_555 1_555
C43 C42 1_555 1_555
H29 C43 1_555 1_555
C44 C43 1_555 1_555
H30 C44 1_555 1_555
C45 C40 1_555 1_555
C46 H31 1_555 1_555
C47 H32 1_555 1_555
C48 C47 1_555 1_555
H33 C48 1_555 1_555
N1 C1 1_555 1_555
N2 C7 1_555 1_555
N3 C15 1_555 1_555
N4 C17 1_555 1_555
N5 C23 1_555 1_555
N6 Ag1 1_555 1_555
N7 C46 1_555 1_555
N8 C39 1_555 1_555
N9 C33 1_555 1_555
N10 O1 1_555 1_555
N11 O8 1_555 1_555
N12 O5 1_555 1_555
O2 H34 1_555 1_555
O3 N10 1_555 1_555
O4 N10 1_555 1_555
O6 N12 1_555 1_555
O7 Ag2 1_555 1_555
O9 N11 1_555 1_555
O10 N11 1_555 1_555
Ag2_2 N4 1_555 1_555
Ag3A N9 1_555 1_555
N4_2 Ag2 1_555 1_555
N9A Ag3 1_555 1_555
C5 C6 1_555 1_555
C12 C13 1_555 1_555
C13 N1 1_555 1_555
C14 N2 1_555 1_555
C16 N2 1_555 1_555
C16 N3 1_555 1_555
C21 C22 1_555 1_555
C28 C29 1_555 1_555
C29 N4 1_555 1_555
C30 N5 1_555 1_555
C31 N5 1_555 1_555
C31 N6 1_555 1_555
C32 N6 1_555 1_555
C37 C38 1_555 1_555
C44 C45 1_555 1_555
C45 N9 1_555 1_555
C46 N8 1_555 1_555
C47 N8 1_555 1_555
C48 N7 1_555 1_555
N12 O7 1_555 1_555

#END
