
#######################################################################
#
#                 Cambridge Crystallographic Data Centre
#                                CCDC 
#
#######################################################################
#
# If this CIF has been generated from an entry in the Cambridge 
# Structural Database, then it will include bibliographic, chemical, 
# crystal, experimental, refinement or atomic coordinate data resulting 
# from the CCDC's data processing and validation procedures.
#
#######################################################################

data_MEKGUG
_symmetry_cell_setting           orthorhombic
_symmetry_space_group_name_H-M   'P 21 21 21'
_symmetry_Int_Tables_number      19
_space_group_name_Hall           'P 2ac 2ab'
loop_
_symmetry_equiv_pos_site_id
_symmetry_equiv_pos_as_xyz
1 x,y,z
2 1/2-x,-y,1/2+z
3 1/2+x,1/2-y,-z
4 -x,1/2+y,1/2-z
_cell_length_a                   11.8673(6)
_cell_length_b                   11.8673(6)
_cell_length_c                   18.2622(18)
_cell_angle_alpha                90
_cell_angle_beta                 90
_cell_angle_gamma                90
_cell_volume                     2571.92
loop_
_atom_site_label
_atom_site_type_symbol
_atom_site_fract_x
_atom_site_fract_y
_atom_site_fract_z
Co1 Co 0.10768(5) 1.15369(4) 0.21138(3)
O1 O -0.0326(2) 1.0404(2) 0.21062(15)
N1 N 0.2310(3) 1.0668(3) 0.14987(17)
C1 C 0.3590(4) 0.7121(3) 0.0473(2)
O3 O -0.0528(2) 1.2110(2) 0.25385(15)
N2 N 0.3245(3) -0.0808(2) -0.18832(15)
C2 C -0.0934(4) 1.1157(3) 0.23892(18)
O4 O 0.0458(2) 1.2321(2) 0.10845(13)
O5 O -0.1989(2) 0.7965(2) 0.26986(13)
N3 N 0.2848(3) 0.7871(3) 0.07715(17)
H3 H 0.2190 0.7616 0.0879
C3 C 0.2434(3) 0.2634(3) -0.05576(19)
O6 O 0.1505(3) 0.2377(2) -0.03151(15)
N4 N 0.3106(3) 0.1897(2) -0.09176(15)
H4 H 0.3754 0.2142 -0.1055
C4 C -0.1812(3) 0.8945(3) 0.2935(2)
O7 O -0.1119(3) 0.9209(2) 0.34195(13)
C5 C 0.3115(4) 0.5951(3) 0.0350(2)
H5 H 0.2579 0.5782 0.0744
O8 O 0.4551(3) 0.7380(2) 0.03164(17)
C6 C 0.2929(3) 0.3808(3) -0.04673(19)
H6 H 0.3462 0.3940 -0.0868
C7 C 0.4038(4) 0.5078(3) 0.0364(2)
H7 H 0.4432 0.5121 0.0829
H8 H 0.4576 0.5240 -0.0021
C8 C 0.2490(4) 0.5892(3) -0.0384(2)
H9 H 0.1881 0.6438 -0.0388
H10 H 0.3004 0.6079 -0.0779
C9 C 0.3574(3) 0.3889(3) 0.02607(19)
H11 H 0.3074 0.3705 0.0663
H12 H 0.4190 0.3352 0.0262
C10 C 0.2011(4) 0.4707(3) -0.0506(2)
H13 H 0.1445 0.4552 -0.0136
H14 H 0.1649 0.4675 -0.0981
C11 C 0.4032(4) 1.0756(3) 0.0837(2)
H15 H 0.4636 1.1188 0.0674
C12 C 0.2230(4) 0.9568(3) 0.1332(2)
H16 H 0.1609 0.9165 0.1498
C13 C 0.3969(4) 0.9620(3) 0.0669(2)
H17 H 0.4530 0.9272 0.0394
C14 C 0.3192(4) 1.1236(3) 0.1247(2)
H18 H 0.3244 1.2001 0.1355
C15 C 0.3043(4) 0.9010(3) 0.0921(2)
C16 C -0.3739(4) 0.9677(3) 0.2668(2)
H19 H -0.4008 0.8950 0.2745
C17 C -0.2580(3) 0.9865(3) 0.26663(18)
C18 C -0.2932(4) 1.1815(3) 0.2411(2)
H20 H -0.2670 1.2541 0.2323
C19 C -0.4499(4) 1.0549(4) 0.2558(2)
H21 H -0.5271 1.0414 0.2564
C20 C -0.2161(3) 1.0953(3) 0.25092(18)
C21 C -0.4082(4) 1.1627(4) 0.2438(2)
H22 H -0.4578 1.2226 0.2376
C22 C 0.2473(3) -0.1402(3) -0.1504(2)
H23 H 0.2339 -0.2145 -0.1639
C23 C 0.3423(3) 0.0256(3) -0.16744(19)
H24 H 0.3955 0.0680 -0.1928
C24 C 0.2064(4) 0.0129(3) -0.0718(2)
H25 H 0.1667 0.0437 -0.0327
C25 C 0.1879(4) -0.0966(3) -0.0931(2)
H26 H 0.1351 -0.1407 -0.0686
C26 C 0.2847(3) 0.0765(3) -0.10904(19)
Co1A Co 0.39232(5) -0.15369(4) -0.28862(3)
Co1C Co -0.10768(5) 0.65369(4) 0.28862(3)
N2A N 0.1755(3) 1.0808(2) 0.31168(15)
O5C O 0.1989(2) 1.2965(2) 0.23014(13)
O2 O 0.0658(3) 0.7243(5) 0.09624(19)
H1 H 0.0179 0.7238 0.0616
H2 H 0.0281 0.7392 0.1436
loop_
_geom_bond_atom_site_label_1
_geom_bond_atom_site_label_2
_geom_bond_site_symmetry_1
_geom_bond_site_symmetry_2
Co1 O1 1_555 1_555
O1 C2 1_555 1_555
N1 Co1 1_555 1_555
C1 N3 1_555 1_555
O2 H1 1_555 1_555
H2 O2 1_555 1_555
O3 Co1 1_555 1_555
N2 C22 1_555 1_555
C2 O3 1_555 1_555
O4 Co1 1_555 1_555
O5 C4 1_555 1_555
N3 H3 1_555 1_555
C3 O6 1_555 1_555
N4 C3 1_555 1_555
H4 N4 1_555 1_555
C4 O7 1_555 1_555
C5 C1 1_555 1_555
H5 C5 1_555 1_555
O8 C1 1_555 1_555
C6 C3 1_555 1_555
H6 C6 1_555 1_555
C7 C5 1_555 1_555
H7 C7 1_555 1_555
H8 C7 1_555 1_555
C8 C5 1_555 1_555
H9 C8 1_555 1_555
H10 C8 1_555 1_555
C9 C6 1_555 1_555
H11 C9 1_555 1_555
H12 C9 1_555 1_555
C10 C6 1_555 1_555
H13 C10 1_555 1_555
H14 C10 1_555 1_555
C11 H15 1_555 1_555
C12 N1 1_555 1_555
H16 C12 1_555 1_555
C13 C11 1_555 1_555
H17 C13 1_555 1_555
C14 N1 1_555 1_555
H18 C14 1_555 1_555
C15 N3 1_555 1_555
C16 H19 1_555 1_555
C17 C4 1_555 1_555
C18 H20 1_555 1_555
C19 C16 1_555 1_555
H21 C19 1_555 1_555
C20 C2 1_555 1_555
C21 C18 1_555 1_555
H22 C21 1_555 1_555
C22 H23 1_555 1_555
C23 N2 1_555 1_555
H24 C23 1_555 1_555
C24 H25 1_555 1_555
C25 C22 1_555 1_555
H26 C25 1_555 1_555
C26 N4 1_555 1_555
Co1A N2 1_555 1_555
Co1C O5 1_555 1_555
N2A Co1 1_555 1_555
O5C Co1 1_555 1_555
C7 C9 1_555 1_555
C8 C10 1_555 1_555
C11 C14 1_555 1_555
C12 C15 1_555 1_555
C13 C15 1_555 1_555
C16 C17 1_555 1_555
C17 C20 1_555 1_555
C18 C20 1_555 1_555
C19 C21 1_555 1_555
C23 C26 1_555 1_555
C24 C25 1_555 1_555
C24 C26 1_555 1_555

#END
