
#######################################################################
#
#                 Cambridge Crystallographic Data Centre
#                                CCDC 
#
#######################################################################
#
# If this CIF has been generated from an entry in the Cambridge 
# Structural Database, then it will include bibliographic, chemical, 
# crystal, experimental, refinement or atomic coordinate data resulting 
# from the CCDC's data processing and validation procedures.
#
#######################################################################

data_MEKGOA
_symmetry_cell_setting           monoclinic
_symmetry_space_group_name_H-M   'C 2/c'
_symmetry_Int_Tables_number      15
_space_group_name_Hall           '-C 2yn'
loop_
_symmetry_equiv_pos_site_id
_symmetry_equiv_pos_as_xyz
1 x,y,z
2 -x,y,1/2-z
3 1/2+x,1/2+y,z
4 1/2-x,1/2+y,1/2-z
5 -x,-y,-z
6 x,-y,1/2+z
7 1/2-x,1/2-y,-z
8 1/2+x,1/2-y,1/2+z
_cell_length_a                   25.8523(14)
_cell_length_b                   17.0220(14)
_cell_length_c                   13.9949(9)
_cell_angle_alpha                90
_cell_angle_beta                 110.317(2)
_cell_angle_gamma                90
_cell_volume                     5775.42
loop_
_atom_site_label
_atom_site_type_symbol
_atom_site_fract_x
_atom_site_fract_y
_atom_site_fract_z
C1 C 0.80473(6) 0.93022(10) 0.32453(12)
H1 H 0.7810 0.9260 0.3614
C2 C 0.80742(7) 1.00057(10) 0.27779(13)
H2 H 0.7856 1.0426 0.2832
C3 C 0.84248(7) 1.00916(9) 0.22275(12)
H3 H 0.8445 1.0562 0.1903
C4 C 0.87457(6) 0.94476(8) 0.21794(10)
C5 C 0.86895(6) 0.87554(8) 0.26639(11)
H4 H 0.8901 0.8324 0.2619
C6 C 0.92581(7) 1.00123(9) 0.11441(13)
C7 C 0.97157(6) 0.98321(9) 0.07299(12)
H5 H 0.9920 0.9370 0.1083
C8 C 0.94529(7) 0.96453(11) -0.04016(13)
H6 H 0.9226 1.0085 -0.0746
H7 H 0.9216 0.9190 -0.0488
C9 C 1.01129(7) 1.05177(11) 0.08878(14)
H8 H 0.9909 1.0988 0.0589
H9 H 1.0294 1.0610 0.1612
C10 C 0.79911(6) 0.58706(9) 0.43493(12)
H10 H 0.7766 0.5919 0.3670
C11 C 0.79724(8) 0.51839(10) 0.48564(14)
H11 H 0.7733 0.4784 0.4522
C12 C 0.83088(8) 0.50874(10) 0.58622(13)
H12 H 0.8298 0.4630 0.6217
C13 C 0.86633(6) 0.56986(8) 0.63222(10)
C14 C 0.86472(5) 0.63804(8) 0.57655(10)
H13 H 0.8876 0.6795 0.6086
C15 C 0.91277(7) 0.51292(9) 0.80339(12)
C16 C 0.96135(7) 0.52686(9) 0.90076(11)
H14 H 0.9746 0.5807 0.8998
C17 C 0.94351(8) 0.51776(14) 0.99233(13)
H15 H 0.9280 0.4658 0.9917
H16 H 0.9150 0.5560 0.9883
C18 C 1.00816(8) 0.47063(13) 0.90813(13)
H17 H 0.9949 0.4170 0.9044
H18 H 1.0206 0.4793 0.8510
C19 C 0.71387(6) 0.73517(9) 0.26283(11)
C20 C 0.67604(6) 0.74663(9) 0.15393(11)
C21 C 0.61904(6) 0.74705(8) 0.12928(11)
H19 H 0.6040 0.7394 0.1801
C22 C 0.58432(5) 0.75888(9) 0.02908(10)
C23 C 0.60672(7) 0.77243(13) -0.04645(12)
H20 H 0.5837 0.7804 -0.1134
C24 C 0.66343(7) 0.77397(17) -0.02184(14)
H21 H 0.6784 0.7840 -0.0722
C25 C 0.69802(7) 0.76058(14) 0.07752(14)
H22 H 0.7361 0.7609 0.0933
C26 C 0.52250(5) 0.75812(8) 0.00174(10)
N1 N 0.83496(5) 0.86756(7) 0.31894(9)
N2 N 0.91498(5) 0.94408(7) 0.17142(10)
H23 H 0.9350 0.9025 0.1804
N3 N 0.83208(5) 0.64713(7) 0.47953(8)
N4 N 0.90553(6) 0.56859(8) 0.73124(9)
H24 H 0.9276 0.6081 0.7479
O1 O 0.76438(4) 0.72630(7) 0.27654(8)
O2 O 0.88631(4) 0.70251(6) 0.33237(8)
O3 O 0.69321(5) 0.73640(10) 0.33079(9)
O4 O 0.90065(4) 0.79415(6) 0.51701(8)
H25 H 0.9033 0.8410 0.5393
H26 H 0.9206 0.7085 0.3575
H27 H 0.8836 0.6530 0.3232
H28 H 0.9330 0.7761 0.5301
O5 O 0.50351(4) 0.75931(7) 0.07266(8)
O6 O 0.78519(4) 0.81621(6) 0.47264(8)
H29 H 0.7510 0.8063 0.4444
H30 H 0.7946 0.8023 0.5347
O7 O 0.49314(4) 0.75635(7) -0.09087(8)
O8 O 0.89940(7) 1.06219(8) 0.09527(14)
O9 O 0.88246(7) 0.45595(8) 0.79047(11)
Co1 Co 0.833134(6) 0.756419(10) 0.397507(12)
C1D C 1.19527(6) 1.06978(10) -0.32453(12)
H1D H 1.2190 1.0740 -0.3614
C2D C 1.19258(7) 0.99943(10) -0.27779(13)
H2D H 1.2144 0.9574 -0.2832
C3D C 1.15752(7) 0.99084(9) -0.22275(12)
H3D H 1.1555 0.9438 -0.1903
C4D C 1.12543(6) 1.05524(8) -0.21794(10)
C5D C 1.13105(6) 1.12446(8) -0.26639(11)
H4D H 1.1099 1.1676 -0.2619
C6D C 1.07419(7) 0.99877(9) -0.11441(13)
C7D C 1.02843(6) 1.01679(9) -0.07299(12)
H5D H 1.0080 1.0630 -0.1083
C8D C 1.05471(7) 1.03547(11) 0.04016(13)
H6D H 1.0774 0.9915 0.0746
H7D H 1.0784 1.0810 0.0488
C9D C 0.98871(7) 0.94823(11) -0.08878(14)
H8D H 1.0091 0.9012 -0.0589
H9D H 0.9706 0.9390 -0.1612
C10D C 1.20089(6) 0.41294(9) 1.56507(12)
H10D H 1.2234 0.4081 1.6330
C11D C 1.20276(8) 0.48161(10) 1.51436(14)
H11D H 1.2267 0.5216 1.5478
C12D C 1.16912(8) 0.49126(10) 1.41378(13)
H12D H 1.1702 0.5370 1.3783
C13D C 1.13367(6) 0.43014(8) 1.36778(10)
C14D C 1.13528(5) 0.36196(8) 1.42345(10)
H13D H 1.1124 0.3205 1.3914
C15D C 1.08723(7) 0.48708(9) 1.19661(12)
C16D C 1.03865(7) 0.47314(9) 1.09924(11)
H14D H 1.0254 0.4193 1.1002
C17D C 1.05649(8) 0.48224(14) 1.00767(13)
H15D H 1.0720 0.5342 1.0083
H16D H 1.0850 0.4440 1.0117
C18D C 0.99184(8) 0.52937(13) 1.09187(13)
H17D H 1.0051 0.5830 1.0956
H18D H 0.9794 0.5207 1.1490
C19D C 1.28613(6) 1.26483(9) -0.26283(11)
C20D C 1.32396(6) 1.25337(9) -0.15393(11)
C21D C 1.38096(6) 1.25295(8) -0.12928(11)
H19D H 1.3960 1.2606 -0.1801
C22D C 1.41568(5) 1.24112(9) -0.02908(10)
C23D C 1.39328(7) 1.22757(13) 0.04645(12)
H20D H 1.4163 1.2196 0.1134
C24D C 1.33657(7) 1.22603(17) 0.02184(14)
H21D H 1.3216 1.2160 0.0722
C25D C 1.30198(7) 1.23942(14) -0.07752(14)
H22D H 1.2639 1.2391 -0.0933
C26D C 1.47750(5) 1.24188(8) -0.00174(10)
N1D N 1.16504(5) 1.13244(7) -0.31894(9)
N2D N 1.08502(5) 1.05592(7) -0.17142(10)
H23D H 1.0650 1.0975 -0.1804
N3D N 1.16792(5) 0.35287(7) 1.52047(8)
N3D_2 N 1.16792(5) 1.35287(7) -0.47953(8)
N4D N 1.09447(6) 0.43141(8) 1.26876(9)
H24D H 1.0724 0.3919 1.2521
O1D O 1.23562(4) 1.27370(7) -0.27654(8)
O2D O 1.11369(4) 1.29749(6) -0.33237(8)
O3D O 1.30679(5) 1.26360(10) -0.33079(9)
O4D O 1.09935(4) 1.20585(6) -0.51701(8)
H25D H 1.0967 1.1590 -0.5393
H26D H 1.0794 1.2915 -0.3575
H27D H 1.1164 1.3470 -0.3232
H28D H 1.0670 1.2239 -0.5301
O5D O 1.49649(4) 1.24069(7) -0.07266(8)
O6D O 1.21481(4) 1.18379(6) -0.47264(8)
H29D H 1.2490 1.1937 -0.4444
H30D H 1.2054 1.1977 -0.5347
O7D O 1.50686(4) 1.24365(7) 0.09087(8)
O8D O 1.10060(7) 0.93781(8) -0.09527(14)
O9D O 1.11754(7) 0.54405(8) 1.20953(11)
Co1D Co 1.166866(6) 1.243581(10) -0.397507(12)
Co1D_2 Co 1.166866(6) 0.243581(10) 1.602493(12)
O10 O 1.0000 0.67577(10) 0.7500
H32 H 0.9986 0.7063 0.7971
H32A H 1.0014 0.7063 0.7029
O11 O 1.0000 0.82551(9) 1.2500
H31 H 1.0002 0.7980 1.1994
H31A H 0.9998 0.7980 1.3006
loop_
_geom_bond_atom_site_label_1
_geom_bond_atom_site_label_2
_geom_bond_site_symmetry_1
_geom_bond_site_symmetry_2
C1 H1 1_555 1_555
C2 C1 1_555 1_555
H2 C2 1_555 1_555
C3 C2 1_555 1_555
H3 C3 1_555 1_555
C4 C3 1_555 1_555
C5 C4 1_555 1_555
H4 C5 1_555 1_555
C6 C7 1_555 1_555
C7 H5 1_555 1_555
C8 C7 1_555 1_555
H6 C8 1_555 1_555
H7 C8 1_555 1_555
C9 C7 1_555 1_555
H8 C9 1_555 1_555
H9 C9 1_555 1_555
C10 H10 1_555 1_555
C11 C10 1_555 1_555
H11 C11 1_555 1_555
C12 C11 1_555 1_555
H12 C12 1_555 1_555
C13 C12 1_555 1_555
C14 C13 1_555 1_555
H13 C14 1_555 1_555
C15 C16 1_555 1_555
C16 H14 1_555 1_555
C17 C16 1_555 1_555
H15 C17 1_555 1_555
H16 C17 1_555 1_555
C18 C16 1_555 1_555
H17 C18 1_555 1_555
H18 C18 1_555 1_555
C19 C20 1_555 1_555
C20 C21 1_555 1_555
C21 H19 1_555 1_555
C22 C21 1_555 1_555
C23 C22 1_555 1_555
H20 C23 1_555 1_555
C24 C23 1_555 1_555
H21 C24 1_555 1_555
C25 C20 1_555 1_555
H22 C25 1_555 1_555
C26 C22 1_555 1_555
N1 C1 1_555 1_555
N2 C4 1_555 1_555
H23 N2 1_555 1_555
N3 C10 1_555 1_555
N4 C13 1_555 1_555
H24 N4 1_555 1_555
O1 C19 1_555 1_555
O2 H26 1_555 1_555
O3 C19 1_555 1_555
O4 H25 1_555 1_555
H27 O2 1_555 1_555
H28 O4 1_555 1_555
O5 C26 1_555 1_555
O6 H29 1_555 1_555
H30 O6 1_555 1_555
O7 C26 1_555 1_555
O8 C6 1_555 1_555
O9 C15 1_555 1_555
Co1 N1 1_555 1_555
O10 H32 1_555 1_555
O11 H31 1_555 1_555
C1D H1D 1_555 1_555
C2D C1D 1_555 1_555
H2D C2D 1_555 1_555
C3D C2D 1_555 1_555
H3D C3D 1_555 1_555
C4D C3D 1_555 1_555
C5D C4D 1_555 1_555
H4D C5D 1_555 1_555
C6D C7D 1_555 1_555
C7D H5D 1_555 1_555
C8D C9 1_555 1_555
H6D C8D 1_555 1_555
H7D C8D 1_555 1_555
C9D C8 1_555 1_555
H8D C9D 1_555 1_555
H9D C9D 1_555 1_555
C10D H10D 1_555 1_555
C11D C10D 1_555 1_555
H11D C11D 1_555 1_555
C12D C11D 1_555 1_555
H12D C12D 1_555 1_555
C13D C12D 1_555 1_555
C14D C13D 1_555 1_555
H13D C14D 1_555 1_555
C15D C16D 1_555 1_555
C16D H14D 1_555 1_555
C17D C18 1_555 1_555
H15D C17D 1_555 1_555
H16D C17D 1_555 1_555
C18D C17 1_555 1_555
H17D C18D 1_555 1_555
H18D C18D 1_555 1_555
C19D C20D 1_555 1_555
C20D C21D 1_555 1_555
C21D H19D 1_555 1_555
C22D C21D 1_555 1_555
C23D C22D 1_555 1_555
H20D C23D 1_555 1_555
C24D C23D 1_555 1_555
H21D C24D 1_555 1_555
C25D C20D 1_555 1_555
H22D C25D 1_555 1_555
C26D C22D 1_555 1_555
N1D C1D 1_555 1_555
N2D C4D 1_555 1_555
H23D N2D 1_555 1_555
N3D C10D 1_555 1_555
N3D_2 Co1D 1_555 1_555
N4D C13D 1_555 1_555
H24D N4D 1_555 1_555
O1D C19D 1_555 1_555
O2D H26D 1_555 1_555
O3D C19D 1_555 1_555
O4D H25D 1_555 1_555
H27D O2D 1_555 1_555
H28D O4D 1_555 1_555
O5D C26D 1_555 1_555
O6D H29D 1_555 1_555
H30D O6D 1_555 1_555
O7D C26D 1_555 1_555
O8D C6D 1_555 1_555
O9D C15D 1_555 1_555
Co1D N1D 1_555 1_555
Co1D_2 N3D 1_555 1_555
H31A O11 1_555 1_555
H32A O10 1_555 1_555
C5 N1 1_555 1_555
C6 N2 1_555 1_555
C14 N3 1_555 1_555
C15 N4 1_555 1_555
C24 C25 1_555 1_555
N3 Co1 1_555 1_555
O1 Co1 1_555 1_555
O2 Co1 1_555 1_555
O4 Co1 1_555 1_555
O6 Co1 1_555 1_555
C5D N1D 1_555 1_555
C6D N2D 1_555 1_555
C7D C8D 1_555 1_555
C7D C9D 1_555 1_555
C14D N3D 1_555 1_555
C15D N4D 1_555 1_555
C16D C17D 1_555 1_555
C16D C18D 1_555 1_555
C24D C25D 1_555 1_555
O1D Co1D 1_555 1_555
O2D Co1D 1_555 1_555
O4D Co1D 1_555 1_555
O6D Co1D 1_555 1_555

#END
