
#######################################################################
#
#                 Cambridge Crystallographic Data Centre
#                                CCDC 
#
#######################################################################
#
# If this CIF has been generated from an entry in the Cambridge 
# Structural Database, then it will include bibliographic, chemical, 
# crystal, experimental, refinement or atomic coordinate data resulting 
# from the CCDC's data processing and validation procedures.
#
#######################################################################

data_MEKHAM
_symmetry_cell_setting           monoclinic
_symmetry_space_group_name_H-M   'P 21/n'
_symmetry_Int_Tables_number      14
_space_group_name_Hall           '-P 2yn'
loop_
_symmetry_equiv_pos_site_id
_symmetry_equiv_pos_as_xyz
1 x,y,z
2 1/2-x,1/2+y,1/2-z
3 -x,-y,-z
4 1/2+x,1/2-y,1/2+z
_cell_length_a                   19.313(3)
_cell_length_b                   12.0597(19)
_cell_length_c                   29.931(5)
_cell_angle_alpha                90
_cell_angle_beta                 96.289(3)
_cell_angle_gamma                90
_cell_volume                     6929.25
loop_
_atom_site_label
_atom_site_type_symbol
_atom_site_fract_x
_atom_site_fract_y
_atom_site_fract_z
Ag1 Ag -0.27381(3) -0.17924(6) -0.09786(2)
Ag2 Ag -0.48914(3) -0.45385(6) -0.15341(2)
Ag3 Ag -0.46430(3) -0.18049(6) -0.11728(2)
Ag4 Ag -0.28877(3) -0.44575(6) -0.14310(2)
N1 N -0.5836(3) -0.3487(6) -0.1432(2)
N2 N -0.5715(3) -0.2488(6) -0.1213(2)
N3 N -0.6837(3) -0.2678(6) -0.1394(2)
N4 N -0.7907(4) -0.3102(7) -0.1771(2)
N5 N -0.8927(4) -0.3636(9) -0.2178(3)
H1 H -0.8703 -0.4172 -0.2285
H2 H -0.9365 -0.3555 -0.2259
N6 N -0.1767(3) -0.2783(6) -0.1048(2)
N7 N -0.1831(3) -0.3688(6) -0.1330(2)
N8 N -0.0726(3) -0.3435(5) -0.1095(2)
N9 N 0.0305(3) -0.2845(6) -0.0709(2)
N10 N 0.1266(4) -0.2190(9) -0.0269(3)
H3 H 0.1009 -0.1667 -0.0183
H4 H 0.1699 -0.2225 -0.0167
N11 N -0.4201(3) -0.4250(6) -0.0828(2)
N12 N -0.3481(3) -0.4300(6) -0.0824(2)
N13 N -0.3722(3) -0.4160(5) -0.0125(2)
N14 N -0.4236(3) -0.3891(6) 0.0530(2)
N15 N -0.4799(4) -0.3575(6) 0.1152(2)
H5 H -0.5184 -0.3625 0.0980
H6 H -0.4803 -0.3450 0.1435
N16 N -0.3370(3) -0.1452(6) -0.0410(2)
N17 N -0.4092(3) -0.1481(5) -0.0483(2)
N18 N -0.3784(3) -0.1130(5) 0.0226(2)
N19 N -0.4481(4) -0.0752(5) 0.0769(2)
N20 N -0.5269(4) -0.0448(6) 0.1278(2)
H7 H -0.5585 -0.0382 0.1054
H8 H -0.5377 -0.0380 0.1548
N21 N -0.4028(3) -0.1871(6) -0.1773(2)
N22 N -0.3309(3) -0.1862(5) -0.1715(2)
N23 N -0.3674(3) -0.1864(5) -0.2437(2)
N24 N -0.3039(3) -0.1710(5) -0.3041(2)
N25 N -0.2322(3) -0.1599(6) -0.3607(2)
H9 H -0.1982 -0.1469 -0.3403
H10 H -0.2251 -0.1624 -0.3885
N26 N -0.3567(3) -0.4599(6) -0.2082(2)
N27 N -0.4279(3) -0.4693(6) -0.2127(2)
N28 N -0.3922(3) -0.4800(5) -0.2795(2)
N29 N -0.3244(3) -0.4749(6) -0.3377(2)
N30 N -0.2476(4) -0.4660(6) -0.3905(3)
H11 H -0.2144 -0.4634 -0.3690
H12 H -0.2384 -0.4644 -0.4180
C1 C -0.6514(4) -0.3571(8) -0.1533(3)
H13 H -0.6737 -0.4171 -0.1681
C2 C -0.6329(4) -0.2031(8) -0.1206(3)
H14 H -0.6401 -0.1337 -0.1084
C3 C -0.7575(4) -0.2430(8) -0.1480(3)
C4 C -0.7849(4) -0.1561(8) -0.1271(3)
H15 H -0.7580 -0.1130 -0.1061
C5 C -0.8567(5) -0.1345(9) -0.1391(4)
H16 H -0.8786 -0.0749 -0.1268
C6 C -0.8930(5) -0.2044(10) -0.1695(4)
H17 H -0.9403 -0.1929 -0.1777
C7 C -0.8593(4) -0.2922(9) -0.1882(3)
C8 C -0.1196(4) -0.4046(7) -0.1349(3)
H18 H -0.1083 -0.4653 -0.1518
C9 C -0.1115(4) -0.2657(8) -0.0906(3)
H19 H -0.0937 -0.2115 -0.0704
C10 C 0.0004(4) -0.3586(7) -0.0993(3)
C11 C 0.0335(4) -0.4442(8) -0.1178(3)
H20 H 0.0102 -0.4926 -0.1385
C12 C 0.1055(5) -0.4552(9) -0.1037(4)
H21 H 0.1312 -0.5120 -0.1150
C13 C 0.1361(5) -0.3819(10) -0.0737(4)
H22 H 0.1834 -0.3882 -0.0641
C14 C 0.0980(5) -0.2984(9) -0.0575(3)
C15 C -0.4323(4) -0.4175(7) -0.0408(3)
H23 H -0.4766 -0.4138 -0.0315
C16 C -0.3218(4) -0.4235(7) -0.0409(3)
H24 H -0.2743 -0.4240 -0.0315
C17 C -0.3637(4) -0.4028(7) 0.0356(3)
C18 C -0.2985(5) -0.4019(8) 0.0580(3)
H25 H -0.2590 -0.4130 0.0433
C19 C -0.2941(5) -0.3834(9) 0.1044(3)
H26 H -0.2509 -0.3828 0.1215
C20 C -0.3531(6) -0.3664(9) 0.1244(3)
H27 H -0.3507 -0.3528 0.1551
C21 C -0.4180(5) -0.3696(8) 0.0977(3)
C22 C -0.3208(4) -0.1253(7) 0.0013(3)
H28 H -0.2754 -0.1200 0.0151
C23 C -0.4319(4) -0.1269(7) -0.0096(3)
H29 H -0.4787 -0.1222 -0.0049
C24 C -0.3843(4) -0.0939(7) 0.0698(3)
C25 C -0.3276(5) -0.0976(8) 0.1002(3)
H30 H -0.2830 -0.1055 0.0917
C26 C -0.3390(5) -0.0888(9) 0.1444(4)
H31 H -0.3021 -0.0947 0.1670
C27 C -0.4054(6) -0.0714(8) 0.1552(3)
H32 H -0.4140 -0.0634 0.1850
C28 C -0.4598(5) -0.0660(7) 0.1206(3)
C29 C -0.4227(4) -0.1872(7) -0.2200(3)
H33 H -0.4689 -0.1878 -0.2326
C30 C -0.3124(4) -0.1844(6) -0.2120(3)
H34 H -0.2663 -0.1821 -0.2183
C31 C -0.3668(4) -0.1862(7) -0.2915(3)
C32 C -0.4275(5) -0.2062(7) -0.3193(3)
H35 H -0.4702 -0.2171 -0.3083
C33 C -0.4197(5) -0.2085(7) -0.3643(3)
H36 H -0.4588 -0.2202 -0.3848
C34 C -0.3561(5) -0.1942(7) -0.3802(3)
H37 H -0.3515 -0.1959 -0.4108
C35 C -0.2992(4) -0.1769(7) -0.3485(3)
C36 C -0.4494(4) -0.4825(7) -0.2550(3)
H38 H -0.4955 -0.4922 -0.2669
C37 C -0.3371(4) -0.4667(7) -0.2482(3)
H39 H -0.2911 -0.4629 -0.2544
C38 C -0.3891(5) -0.4863(7) -0.3276(3)
C39 C -0.4470(5) -0.4956(8) -0.3576(3)
H40 H -0.4914 -0.5032 -0.3486
C40 C -0.4354(6) -0.4929(9) -0.4018(3)
H41 H -0.4730 -0.4997 -0.4239
C41 C -0.3714(6) -0.4809(8) -0.4139(3)
H42 H -0.3645 -0.4779 -0.4442
C42 C -0.3155(5) -0.4729(7) -0.3811(3)
Ag1A Ag -0.22619(3) -0.67924(6) -0.40214(2)
Ag2B Ag -0.51086(3) -0.54615(6) 0.15341(2)
Ag3B Ag -0.53570(3) 0.18049(6) 0.11728(2)
Ag4A Ag -0.21123(3) 0.05425(6) -0.35690(2)
N15B N -0.5201(4) -0.6425(6) -0.1152(2)
H5B H -0.4816 -0.6375 -0.0980
H6B H -0.5197 -0.6550 -0.1435
N20B N -0.4731(4) 0.0448(6) -0.1278(2)
H7B H -0.4415 0.0382 -0.1054
H8B H -0.4623 0.0380 -0.1548
N25A N -0.2678(3) -0.6599(6) -0.1393(2)
H9A H -0.3018 -0.6469 -0.1597
H10A H -0.2749 -0.6624 -0.1115
N30A N -0.2524(4) 0.0340(6) -0.1095(3)
H11A H -0.2856 0.0366 -0.1310
H12A H -0.2616 0.0356 -0.0820
P1 P -0.15751(12) -0.2730(2) -0.48389(8)
F1 F -0.1339(5) -0.3503(10) -0.4458(3)
F2 F -0.1124(6) -0.1922(8) -0.4627(6)
F3 F -0.1859(5) -0.2024(9) -0.5234(3)
F4 F -0.2056(6) -0.3548(8) -0.5069(5)
F5 F -0.1001(5) -0.3243(10) -0.5061(3)
F6 F -0.2187(4) -0.2352(12) -0.4614(3)
P2 P -0.38379(15) -0.6643(4) -0.54285(10)
F7 F -0.3411(8) -0.5632(10) -0.5484(5)
F8 F -0.4269(4) -0.6389(10) -0.5884(2)
F9 F -0.4283(8) -0.7553(13) -0.5425(7)
F10 F -0.3381(3) -0.6745(9) -0.4972(2)
F11 F -0.3295(4) -0.7203(11) -0.5647(3)
F12 F -0.4367(5) -0.6103(17) -0.5186(3)
P3 P -0.39750(12) -0.8355(2) -0.23754(9)
F13 F -0.3618(6) -0.7327(9) -0.2287(5)
F14 F -0.4361(3) -0.7869(7) -0.2814(2)
F15 F -0.4341(7) -0.9394(7) -0.2484(6)
F16 F -0.3610(4) -0.8873(8) -0.1935(2)
F17 F -0.4599(5) -0.8082(13) -0.2161(3)
F18 F -0.3398(5) -0.8808(12) -0.2591(3)
P4 P -0.86444(18) -0.6970(4) -0.22094(14)
F19 F -0.9175(4) -0.7893(8) -0.2342(4)
F20 F -0.8198(7) -0.7705(12) -0.1880(5)
F21 F -0.8143(4) -0.6005(9) -0.2034(3)
F22 F -0.9140(8) -0.6169(11) -0.2440(6)
F23 F -0.8237(6) -0.7306(15) -0.2554(4)
F24 F -0.9022(7) -0.6680(12) -0.1820(5)
N31 N -0.4210(8) -0.416(2) -0.7815(5)
C43 C -0.2994(7) -0.4815(16) -0.7361(6)
H43 H -0.2707 -0.4167 -0.7315
H44 H -0.2762 -0.5357 -0.7526
H45 H -0.3080 -0.5117 -0.7076
C44 C -0.3671(9) -0.4508(13) -0.7622(4)
O1 O -0.1451(9) -0.4893(12) -0.0284(5)
O2 O 0.0000 -0.5000 -1.0000
loop_
_geom_bond_atom_site_label_1
_geom_bond_atom_site_label_2
_geom_bond_site_symmetry_1
_geom_bond_site_symmetry_2
Ag1 N6 1_555 1_555
Ag2 N1 1_555 1_555
Ag3 N2 1_555 1_555
Ag4 N7 1_555 1_555
P1 F1 1_555 1_555
P2 F7 1_555 1_555
P3 F13 1_555 1_555
P4 F19 1_555 1_555
F2 P1 1_555 1_555
F3 P1 1_555 1_555
F4 P1 1_555 1_555
F5 P1 1_555 1_555
F6 P1 1_555 1_555
F8 P2 1_555 1_555
F9 P2 1_555 1_555
F10 P2 1_555 1_555
F11 P2 1_555 1_555
F12 P2 1_555 1_555
F14 P3 1_555 1_555
F15 P3 1_555 1_555
F16 P3 1_555 1_555
F17 P3 1_555 1_555
F18 P3 1_555 1_555
F20 P4 1_555 1_555
F21 P4 1_555 1_555
F22 P4 1_555 1_555
F23 P4 1_555 1_555
F24 P4 1_555 1_555
N1 N2 1_555 1_555
N2 C2 1_555 1_555
N3 C1 1_555 1_555
N4 C3 1_555 1_555
N5 H1 1_555 1_555
H2 N5 1_555 1_555
N6 N7 1_555 1_555
N7 C8 1_555 1_555
N8 C8 1_555 1_555
N9 C10 1_555 1_555
N10 H3 1_555 1_555
H4 N10 1_555 1_555
N11 Ag2 1_555 1_555
N12 Ag4 1_555 1_555
N13 C15 1_555 1_555
N14 C17 1_555 1_555
N15 H5 1_555 1_555
H6 N15 1_555 1_555
N16 Ag1 1_555 1_555
N17 Ag3 1_555 1_555
N18 C22 1_555 1_555
N19 C24 1_555 1_555
N20 H7 1_555 1_555
H8 N20 1_555 1_555
N21 Ag3 1_555 1_555
N22 Ag1 1_555 1_555
N23 C29 1_555 1_555
N24 C31 1_555 1_555
N25 H9 1_555 1_555
H10 N25 1_555 1_555
N26 Ag4 1_555 1_555
N27 Ag2 1_555 1_555
N28 C36 1_555 1_555
N29 C38 1_555 1_555
N30 H11 1_555 1_555
H12 N30 1_555 1_555
C1 N1 1_555 1_555
H13 C1 1_555 1_555
C2 N3 1_555 1_555
H14 C2 1_555 1_555
C3 N3 1_555 1_555
C4 C3 1_555 1_555
H15 C4 1_555 1_555
C5 C4 1_555 1_555
H16 C5 1_555 1_555
C6 C5 1_555 1_555
H17 C6 1_555 1_555
C7 N4 1_555 1_555
C8 H18 1_555 1_555
C9 N6 1_555 1_555
H19 C9 1_555 1_555
C10 N8 1_555 1_555
C11 C10 1_555 1_555
H20 C11 1_555 1_555
C12 C11 1_555 1_555
H21 C12 1_555 1_555
C13 C12 1_555 1_555
H22 C13 1_555 1_555
C14 N9 1_555 1_555
C15 N11 1_555 1_555
H23 C15 1_555 1_555
C16 N12 1_555 1_555
H24 C16 1_555 1_555
C17 N13 1_555 1_555
C18 C17 1_555 1_555
H25 C18 1_555 1_555
C19 C18 1_555 1_555
H26 C19 1_555 1_555
C20 C19 1_555 1_555
H27 C20 1_555 1_555
C21 N14 1_555 1_555
C22 N16 1_555 1_555
H28 C22 1_555 1_555
C23 N17 1_555 1_555
H29 C23 1_555 1_555
C24 N18 1_555 1_555
C25 C24 1_555 1_555
H30 C25 1_555 1_555
C26 C25 1_555 1_555
H31 C26 1_555 1_555
C27 C26 1_555 1_555
H32 C27 1_555 1_555
C28 N19 1_555 1_555
C29 N21 1_555 1_555
H33 C29 1_555 1_555
C30 N22 1_555 1_555
H34 C30 1_555 1_555
C31 N23 1_555 1_555
C32 C31 1_555 1_555
H35 C32 1_555 1_555
C33 C32 1_555 1_555
H36 C33 1_555 1_555
C34 C33 1_555 1_555
H37 C34 1_555 1_555
C35 N24 1_555 1_555
C36 N27 1_555 1_555
H38 C36 1_555 1_555
C37 N26 1_555 1_555
H39 C37 1_555 1_555
C38 N28 1_555 1_555
C39 C38 1_555 1_555
H40 C39 1_555 1_555
C40 C39 1_555 1_555
H41 C40 1_555 1_555
C41 C40 1_555 1_555
H42 C41 1_555 1_555
C42 N29 1_555 1_555
N31 C44 1_555 1_555
C43 H43 1_555 1_555
H44 C43 1_555 1_555
H45 C43 1_555 1_555
C44 C43 1_555 1_555
Ag1A N30 1_555 1_555
Ag2B N15 1_555 1_555
Ag3B N20 1_555 1_555
Ag4A N25 1_555 1_555
N15B Ag2 1_555 1_555
H5B N15B 1_555 1_555
H6B N15B 1_555 1_555
N20B Ag3 1_555 1_555
H7B N20B 1_555 1_555
H8B N20B 1_555 1_555
N25A Ag4 1_555 1_555
H9A N25A 1_555 1_555
H10A N25A 1_555 1_555
N30A Ag1 1_555 1_555
H11A N30A 1_555 1_555
H12A N30A 1_555 1_555
N5 C7 1_555 1_555
N8 C9 1_555 1_555
N10 C14 1_555 1_555
N11 N12 1_555 1_555
N13 C16 1_555 1_555
N15 C21 1_555 1_555
N16 N17 1_555 1_555
N18 C23 1_555 1_555
N20 C28 1_555 1_555
N21 N22 1_555 1_555
N23 C30 1_555 1_555
N25 C35 1_555 1_555
N26 N27 1_555 1_555
N28 C37 1_555 1_555
N30 C42 1_555 1_555
C6 C7 1_555 1_555
C13 C14 1_555 1_555
C20 C21 1_555 1_555
C27 C28 1_555 1_555
C34 C35 1_555 1_555
C41 C42 1_555 1_555

#END
