
#######################################################################
#
#                 Cambridge Crystallographic Data Centre
#                                CCDC 
#
#######################################################################
#
# If this CIF has been generated from an entry in the Cambridge 
# Structural Database, then it will include bibliographic, chemical, 
# crystal, experimental, refinement or atomic coordinate data resulting 
# from the CCDC's data processing and validation procedures.
#
#######################################################################

data_MEKLUJ
_symmetry_cell_setting           tetragonal
_symmetry_space_group_name_H-M   'P 42/m b c'
_symmetry_Int_Tables_number      135
_space_group_name_Hall           '-P 4c 2ab'
loop_
_symmetry_equiv_pos_site_id
_symmetry_equiv_pos_as_xyz
1 x,y,z
2 -y,x,1/2+z
3 y,-x,1/2+z
4 1/2+y,1/2+x,1/2-z
5 x,y,-z
6 1/2+x,1/2-y,z
7 1/2-x,1/2+y,z
8 1/2+y,1/2+x,1/2+z
9 -x,-y,-z
10 y,-x,1/2-z
11 -y,x,1/2-z
12 1/2-y,1/2-x,1/2+z
13 -x,-y,z
14 1/2-x,1/2+y,-z
15 1/2+x,1/2-y,-z
16 1/2-y,1/2-x,1/2-z
_cell_length_a                   17.2018(4)
_cell_length_b                   17.2018(4)
_cell_length_c                   7.3742(2)
_cell_angle_alpha                90
_cell_angle_beta                 90
_cell_angle_gamma                90
_cell_volume                     2182.04
loop_
_atom_site_label
_atom_site_type_symbol
_atom_site_fract_x
_atom_site_fract_y
_atom_site_fract_z
Co1 Co 0.51894(3) 0.69980(3) -1.0000
N1 N 0.64514(14) 0.54572(13) -0.7074(3)
N2 N 0.59547(19) 0.59410(19) -1.0000
N3 N 0.25576(14) 0.58932(14) -2.2944(3)
N4 N 0.2208(2) 0.6451(2) -2.0000
N5 N 0.20048(18) 0.44268(18) -1.5000
N6 N 0.0657(2) 0.4098(2) -1.5000
N7 N 0.1050(2) 0.5368(2) -1.5000
H1 H 0.0568 0.5502 -1.5000
H2 H 0.1407 0.5717 -1.5000
C1 C 0.62330(15) 0.56588(15) -0.8467(4)
C2 C 0.24127(15) 0.61296(15) -2.1530(4)
C3 C 0.2171(2) 0.3659(2) -1.5000
H3 H 0.2689 0.3505 -1.5000
C4 C 0.1608(3) 0.3103(3) -1.5000
H4 H 0.1730 0.2576 -1.5000
C5 C 0.0855(3) 0.3358(3) -1.5000
H5 H 0.0461 0.2988 -1.5000
C6 C 0.1242(2) 0.4618(2) -1.5000
Co1B Co 0.69980(3) 0.48106(3) -0.5000
N1A N 0.45428(13) 0.64514(14) -1.2074(3)
C1A C 0.43412(15) 0.62330(15) -1.3467(4)
N2A N 0.40590(19) 0.59547(19) -1.5000
Co1A Co 0.30020(3) 0.51894(3) -1.5000
N1L N 0.35486(14) 0.45428(13) -1.7074(3)
Co1B_2 Co 0.69980(3) 0.48106(3) -1.5000
Co1A_2 Co 0.30020(3) 0.51894(3) -2.5000
C2D C 0.24127(15) 0.61296(15) -1.8470(4)
N3D N 0.25576(14) 0.58932(14) -1.7056(3)
N1H N 0.35486(14) 0.45428(13) -1.2926(3)
N3_2 N 0.25576(14) 0.58932(14) -1.2944(3)
C1J C 0.43412(15) 0.62330(15) -1.6533(4)
N1J N 0.45428(13) 0.64514(14) -1.7926(3)
Co1_2 Co 0.51894(3) 0.69980(3) -2.0000
N3B N 0.58932(14) 0.74424(14) -1.7944(3)
C2B C 0.61296(15) 0.75873(15) -1.6530(4)
N4B N 0.6451(2) 0.7792(2) -1.5000
C2I C 0.61296(15) 0.75873(15) -1.3470(4)
N3I N 0.58932(14) 0.74424(14) -1.2056(3)
N1J_2 N 0.45428(13) 0.64514(14) -0.7926(3)
N3B_2 N 0.58932(14) 0.74424(14) -0.7944(3)
N5B N 0.44268(18) 0.79952(18) -1.0000
C3B C 0.3659(2) 0.7829(2) -1.0000
H3B H 0.3505 0.7311 -1.0000
C4B C 0.3103(3) 0.8392(3) -1.0000
H4B H 0.2576 0.8270 -1.0000
C5B C 0.3358(3) 0.9145(3) -1.0000
N6B N 0.4098(2) 0.9343(2) -1.0000
C6B C 0.4618(2) 0.8758(2) -1.0000
N7B N 0.5368(2) 0.8950(2) -1.0000
H1B H 0.5502 0.9432 -1.0000
H2B H 0.5717 0.8593 -1.0000
H5B H 0.2988 0.9539 -1.0000
C1D C 0.62330(15) 0.56588(15) -1.1533(4)
N1D N 0.64514(14) 0.54572(13) -1.2926(3)
loop_
_geom_bond_atom_site_label_1
_geom_bond_atom_site_label_2
_geom_bond_site_symmetry_1
_geom_bond_site_symmetry_2
Co1 N2 1_555 1_555
N1 C1 1_555 1_555
N2 C1 1_555 1_555
N3 C2 1_555 1_555
N4 C2 1_555 1_555
N5 C3 1_555 1_555
N6 C5 1_555 1_555
N7 H1 1_555 1_555
H2 N7 1_555 1_555
C3 H3 1_555 1_555
C4 C3 1_555 1_555
H4 C4 1_555 1_555
C5 C4 1_555 1_555
H5 C5 1_555 1_555
C6 N5 1_555 1_555
Co1B N1 1_555 1_555
N1A Co1 1_555 1_555
C1A N1A 1_555 1_555
N2A C1A 1_555 1_555
Co1A N5 1_555 1_555
N1L Co1A 1_555 1_555
Co1B_2 N1D 1_555 1_555
Co1A_2 N3 1_555 1_555
C2D N4 1_555 1_555
N3D Co1A 1_555 1_555
N1H Co1A 1_555 1_555
N3_2 Co1A 1_555 1_555
C1J N2A 1_555 1_555
N1J C1J 1_555 1_555
Co1_2 N1J 1_555 1_555
N3B Co1_2 1_555 1_555
C2B N3B 1_555 1_555
N4B C2B 1_555 1_555
C2I N4B 1_555 1_555
N3I Co1 1_555 1_555
N1J_2 Co1 1_555 1_555
N3B_2 Co1 1_555 1_555
N5B Co1 1_555 1_555
C3B N5B 1_555 1_555
H3B C3B 1_555 1_555
C4B C3B 1_555 1_555
H4B C4B 1_555 1_555
C5B C4B 1_555 1_555
N6B C5B 1_555 1_555
C6B N5B 1_555 1_555
N7B C6B 1_555 1_555
H1B N7B 1_555 1_555
H2B N7B 1_555 1_555
H5B C5B 1_555 1_555
C1D N2 1_555 1_555
N1D C1D 1_555 1_555
N6 C6 1_555 1_555
N7 C6 1_555 1_555
N2A Co1A 1_555 1_555
C2D N3D 1_555 1_555
C2I N3I 1_555 1_555
N6B C6B 1_555 1_555

#END
