
#######################################################################
#
#                 Cambridge Crystallographic Data Centre
#                                CCDC 
#
#######################################################################
#
# If this CIF has been generated from an entry in the Cambridge 
# Structural Database, then it will include bibliographic, chemical, 
# crystal, experimental, refinement or atomic coordinate data resulting 
# from the CCDC's data processing and validation procedures.
#
#######################################################################

data_MEKMAQ
_symmetry_cell_setting           tetragonal
_symmetry_space_group_name_H-M   'P 42/m b c'
_symmetry_Int_Tables_number      135
_space_group_name_Hall           '-P 4c 2ab'
loop_
_symmetry_equiv_pos_site_id
_symmetry_equiv_pos_as_xyz
1 x,y,z
2 -y,x,1/2+z
3 y,-x,1/2+z
4 1/2+y,1/2+x,1/2-z
5 x,y,-z
6 1/2+x,1/2-y,z
7 1/2-x,1/2+y,z
8 1/2+y,1/2+x,1/2+z
9 -x,-y,-z
10 y,-x,1/2-z
11 -y,x,1/2-z
12 1/2-y,1/2-x,1/2+z
13 -x,-y,z
14 1/2-x,1/2+y,-z
15 1/2+x,1/2-y,-z
16 1/2-y,1/2-x,1/2-z
_cell_length_a                   17.0863(6)
_cell_length_b                   17.0863(6)
_cell_length_c                   7.3099(2)
_cell_angle_alpha                90
_cell_angle_beta                 90
_cell_angle_gamma                90
_cell_volume                     2134.06
loop_
_atom_site_label
_atom_site_type_symbol
_atom_site_fract_x
_atom_site_fract_y
_atom_site_fract_z
Ni1 Ni 0.51877(3) 0.69862(3) -1.0000
N1 N 0.64518(16) 0.54569(15) -0.7054(3)
N2 N 0.5941(2) 0.5942(2) -1.0000
N3 N 0.25686(16) 0.58805(15) -2.2963(3)
N4 N 0.2202(2) 0.6441(3) -2.0000
N5 N 0.2028(2) 0.4428(2) -1.5000
N6 N 0.0668(2) 0.4096(2) -1.5000
N7 N 0.1059(2) 0.5374(2) -1.5000
H1 H 0.0573 0.5506 -1.5000
H2 H 0.1416 0.5729 -1.5000
C1 C 0.62246(17) 0.56624(18) -0.8457(4)
C2 C 0.24151(17) 0.61162(17) -2.1540(4)
C3 C 0.2191(3) 0.3661(3) -1.5000
H3 H 0.2713 0.3506 -1.5000
C4 C 0.1627(3) 0.3095(3) -1.5000
H4 H 0.1750 0.2565 -1.5000
C5 C 0.0870(4) 0.3355(3) -1.5000
H5 H 0.0472 0.2983 -1.5000
C6 C 0.1258(3) 0.4622(3) -1.5000
Ni1B Ni 0.69862(3) 0.48123(3) -0.5000
N1A N 0.45431(15) 0.64518(16) -1.2054(3)
C1A C 0.43376(18) 0.62246(17) -1.3457(4)
N2A N 0.4058(2) 0.5941(2) -1.5000
Ni1A Ni 0.30138(3) 0.51877(3) -1.5000
N1L N 0.35482(16) 0.45431(15) -1.7054(3)
Ni1B_2 Ni 0.69862(3) 0.48123(3) -1.5000
Ni1A_2 Ni 0.30138(3) 0.51877(3) -2.5000
C2D C 0.24151(17) 0.61162(17) -1.8460(4)
N3D N 0.25686(16) 0.58805(15) -1.7037(3)
N1H N 0.35482(16) 0.45431(15) -1.2946(3)
N3_2 N 0.25686(16) 0.58805(15) -1.2963(3)
C1J C 0.43376(18) 0.62246(17) -1.6543(4)
N1J N 0.45431(15) 0.64518(16) -1.7946(3)
Ni1_2 Ni 0.51877(3) 0.69862(3) -2.0000
N3B N 0.58805(15) 0.74314(16) -1.7963(3)
C2B C 0.61162(17) 0.75849(17) -1.6540(4)
N4B N 0.6441(3) 0.7798(2) -1.5000
C2I C 0.61162(17) 0.75849(17) -1.3460(4)
N3I N 0.58805(15) 0.74314(16) -1.2037(3)
N1J_2 N 0.45431(15) 0.64518(16) -0.7946(3)
N3B_2 N 0.58805(15) 0.74314(16) -0.7963(3)
N5B N 0.4428(2) 0.7972(2) -1.0000
C3B C 0.3661(3) 0.7809(3) -1.0000
H3B H 0.3506 0.7287 -1.0000
C4B C 0.3095(3) 0.8373(3) -1.0000
H4B H 0.2565 0.8250 -1.0000
C5B C 0.3355(3) 0.9130(4) -1.0000
N6B N 0.4096(2) 0.9332(2) -1.0000
C6B C 0.4622(3) 0.8742(3) -1.0000
N7B N 0.5374(2) 0.8941(2) -1.0000
H1B H 0.5506 0.9427 -1.0000
H2B H 0.5729 0.8584 -1.0000
H5B H 0.2983 0.9528 -1.0000
C1D C 0.62246(17) 0.56624(18) -1.1543(4)
N1D N 0.64518(16) 0.54569(15) -1.2946(3)
loop_
_geom_bond_atom_site_label_1
_geom_bond_atom_site_label_2
_geom_bond_site_symmetry_1
_geom_bond_site_symmetry_2
Ni1 N2 1_555 1_555
N1 C1 1_555 1_555
N2 C1 1_555 1_555
N3 C2 1_555 1_555
N4 C2 1_555 1_555
N5 C3 1_555 1_555
N6 C5 1_555 1_555
N7 H1 1_555 1_555
H2 N7 1_555 1_555
C3 H3 1_555 1_555
C4 C3 1_555 1_555
H4 C4 1_555 1_555
C5 C4 1_555 1_555
H5 C5 1_555 1_555
C6 N5 1_555 1_555
Ni1B N1 1_555 1_555
N1A Ni1 1_555 1_555
C1A N1A 1_555 1_555
N2A C1A 1_555 1_555
Ni1A N5 1_555 1_555
N1L Ni1A 1_555 1_555
Ni1B_2 N1D 1_555 1_555
Ni1A_2 N3 1_555 1_555
C2D N4 1_555 1_555
N3D Ni1A 1_555 1_555
N1H Ni1A 1_555 1_555
N3_2 Ni1A 1_555 1_555
C1J N2A 1_555 1_555
N1J C1J 1_555 1_555
Ni1_2 N1J 1_555 1_555
N3B Ni1_2 1_555 1_555
C2B N3B 1_555 1_555
N4B C2B 1_555 1_555
C2I N4B 1_555 1_555
N3I Ni1 1_555 1_555
N1J_2 Ni1 1_555 1_555
N3B_2 Ni1 1_555 1_555
N5B Ni1 1_555 1_555
C3B N5B 1_555 1_555
H3B C3B 1_555 1_555
C4B C3B 1_555 1_555
H4B C4B 1_555 1_555
C5B C4B 1_555 1_555
N6B C5B 1_555 1_555
C6B N5B 1_555 1_555
N7B C6B 1_555 1_555
H1B N7B 1_555 1_555
H2B N7B 1_555 1_555
H5B C5B 1_555 1_555
C1D N2 1_555 1_555
N1D C1D 1_555 1_555
N6 C6 1_555 1_555
N7 C6 1_555 1_555
N2A Ni1A 1_555 1_555
C2D N3D 1_555 1_555
C2I N3I 1_555 1_555
N6B C6B 1_555 1_555

#END
