
#######################################################################
#
#                 Cambridge Crystallographic Data Centre
#                                CCDC 
#
#######################################################################
#
# If this CIF has been generated from an entry in the Cambridge 
# Structural Database, then it will include bibliographic, chemical, 
# crystal, experimental, refinement or atomic coordinate data resulting 
# from the CCDC's data processing and validation procedures.
#
#######################################################################

data_MEKPAT
_symmetry_cell_setting           monoclinic
_symmetry_space_group_name_H-M   'C 2/c'
_symmetry_Int_Tables_number      15
_space_group_name_Hall           '-C 2yn'
loop_
_symmetry_equiv_pos_site_id
_symmetry_equiv_pos_as_xyz
1 x,y,z
2 1/2+x,1/2+y,z
3 x,-y,1/2+z
4 1/2+x,1/2-y,1/2+z
5 -x,-y,-z
6 1/2-x,1/2-y,-z
7 -x,y,1/2-z
8 1/2-x,1/2+y,1/2-z
_cell_length_a                   25.827(5)
_cell_length_b                   9.6430(19)
_cell_length_c                   7.4525(15)
_cell_angle_alpha                90
_cell_angle_beta                 94.74(3)
_cell_angle_gamma                90
_cell_volume                     1849.7
loop_
_atom_site_label
_atom_site_type_symbol
_atom_site_fract_x
_atom_site_fract_y
_atom_site_fract_z
B1 B 0.0000 0.7925(14) 0.2500
F1 F -0.0082(4) 0.6947(8) 0.1122(10)
F2 F -0.0495(6) 0.8025(16) 0.260(3)
F3 F 0.0000(5) 0.9062(10) 0.1215(13)
F1F F 0.0082(4) 0.6947(8) 0.3878(10)
F2F F 0.0495(6) 0.8025(16) 0.240(3)
F3F F 0.0000(5) 0.9062(10) 0.3785(13)
Ag1 Ag -0.5000 0.33330(6) -0.2500
Cu1 Cu -0.7500 0.2500 0.0000
N1 N -0.68068(16) 0.2559(4) -0.0993(5)
N2 N -0.58237(16) 0.3051(4) -0.2067(5)
C1 C -0.65818(18) 0.3805(5) -0.0761(6)
C2 C -0.60915(18) 0.4035(5) -0.1277(6)
H1 H -0.4060 0.4902 -0.3927
C3 C -0.39408(19) 0.1815(5) -0.2632(6)
C4 C -0.3448(2) 0.1583(5) -0.3188(7)
H2 H -0.3293 0.0720 -0.2982
C5 C -0.30849(18) 0.4894(5) -0.5026(6)
C6 C -0.4221(2) 0.0719(6) -0.1686(9)
H3 H -0.4506 0.0379 -0.2469
H4 H -0.3986 -0.0030 -0.1360
H5 H -0.4349 0.1101 -0.0619
O1 O -0.26599(13) 0.4461(3) -0.5577(5)
O2 O -0.32422(14) 0.6104(4) -0.5092(5)
O3 O -0.70820(16) 0.1671(4) 0.2869(5)
H6 H -0.7302 0.1245 0.3459
H7 H -0.7020 0.2473 0.3681
N1E N -0.81932(16) 0.2441(4) 0.0993(5)
N2F N -0.41763(16) 0.3051(4) -0.2933(5)
C2F C -0.39085(18) 0.4035(5) -0.3723(6)
C1F C -0.34182(18) 0.3805(5) -0.4239(6)
N1F N -0.31932(16) 0.2559(4) -0.4007(5)
Cu1C Cu -0.2500 0.2500 -0.5000
O1C O -0.76599(13) 0.0539(3) -0.0577(5)
C3F C -0.60592(19) 0.1815(5) -0.2368(6)
C4F C -0.6552(2) 0.1583(5) -0.1812(7)
H2F H -0.6707 0.0720 -0.2018
C6F C -0.5779(2) 0.0719(6) -0.3314(9)
H3F H -0.5494 0.0379 -0.2531
H4F H -0.6014 -0.0030 -0.3640
H5F H -0.5651 0.1101 -0.4381
H1F H -0.5940 0.4902 -0.1073
C5F C -0.69151(18) 0.4894(5) 0.0026(6)
O1F O -0.73401(13) 0.4461(3) 0.0577(5)
O3E O -0.79180(16) 0.3329(4) -0.2869(5)
H6E H -0.7698 0.3755 -0.3459
H7E H -0.7980 0.2527 -0.3681
O2F O -0.67578(14) 0.6104(4) 0.0092(5)
loop_
_geom_bond_atom_site_label_1
_geom_bond_atom_site_label_2
_geom_bond_site_symmetry_1
_geom_bond_site_symmetry_2
Ag1 N2 1_555 1_555
Cu1 N1 1_555 1_555
N1 C1 1_555 1_555
N2 C2 1_555 1_555
C1 C2 1_555 1_555
C2 H1F 1_555 1_555
H1 C2F 1_555 1_555
C3 C4 1_555 1_555
C4 H2 1_555 1_555
C5 O1 1_555 1_555
C6 C3 1_555 1_555
H3 C6 1_555 1_555
H4 C6 1_555 1_555
H5 C6 1_555 1_555
O1 Cu1C 1_555 1_555
O2 C5 1_555 1_555
O3 Cu1 1_555 1_555
H6 O3 1_555 1_555
H7 O3 1_555 1_555
B1 F1 1_555 1_555
F2 B1 1_555 1_555
F3 B1 1_555 1_555
N1E Cu1 1_555 1_555
N2F Ag1 1_555 1_555
C2F N2F 1_555 1_555
C1F C5 1_555 1_555
N1F C4 1_555 1_555
Cu1C N1F 1_555 1_555
O1C Cu1 1_555 1_555
C3F N2 1_555 1_555
C4F N1 1_555 1_555
H2F C4F 1_555 1_555
C6F C3F 1_555 1_555
H3F C6F 1_555 1_555
H4F C6F 1_555 1_555
H5F C6F 1_555 1_555
C5F C1 1_555 1_555
O1F Cu1 1_555 1_555
O3E Cu1 1_555 1_555
H6E O3E 1_555 1_555
H7E O3E 1_555 1_555
O2F C5F 1_555 1_555
F1F B1 1_555 1_555
F2F B1 1_555 1_555
F3F B1 1_555 1_555
C3 N2F 1_555 1_555
C2F C1F 1_555 1_555
C1F N1F 1_555 1_555
C3F C4F 1_555 1_555
C5F O1F 1_555 1_555

#END
