
#######################################################################
#
#                 Cambridge Crystallographic Data Centre
#                                CCDC 
#
#######################################################################
#
# If this CIF has been generated from an entry in the Cambridge 
# Structural Database, then it will include bibliographic, chemical, 
# crystal, experimental, refinement or atomic coordinate data resulting 
# from the CCDC's data processing and validation procedures.
#
#######################################################################

data_MEKPEX
_symmetry_cell_setting           monoclinic
_symmetry_space_group_name_H-M   'C 2/c'
_symmetry_Int_Tables_number      15
_space_group_name_Hall           '-C 2yn'
loop_
_symmetry_equiv_pos_site_id
_symmetry_equiv_pos_as_xyz
1 x,y,z
2 1/2+x,1/2+y,z
3 x,-y,1/2+z
4 1/2+x,1/2-y,1/2+z
5 -x,-y,-z
6 1/2-x,1/2-y,-z
7 -x,y,1/2-z
8 1/2-x,1/2+y,1/2-z
_cell_length_a                   25.855(5)
_cell_length_b                   9.782(2)
_cell_length_c                   7.1201(14)
_cell_angle_alpha                90
_cell_angle_beta                 96.90(3)
_cell_angle_gamma                90
_cell_volume                     1787.73
loop_
_atom_site_label
_atom_site_type_symbol
_atom_site_fract_x
_atom_site_fract_y
_atom_site_fract_z
Ag1 Ag 0.0000 0.13783(5) -0.2500
Cu1 Cu -0.2500 0.2500 0.0000
N1 N -0.17965(13) 0.2448(3) -0.0896(4)
N2 N -0.08101(13) 0.1912(4) -0.1837(5)
C1 C -0.15766(16) 0.1210(4) -0.0583(5)
C2 C -0.10802(15) 0.0966(4) -0.1016(5)
H1 H 0.0928 0.0118 -0.4271
C3 C 0.10399(16) 0.3128(4) -0.2757(6)
C4 C 0.15324(16) 0.3395(4) -0.3280(6)
H2 H 0.1679 0.4256 -0.3048
C5 C 0.19168(15) 0.0137(4) -0.5141(5)
C6 C 0.0761(2) 0.4179(5) -0.1740(9)
H3 H 0.0659 0.3789 -0.0604
H4 H 0.0989 0.4942 -0.1421
H5 H 0.0458 0.4483 -0.2540
O1 O 0.23504(11) 0.0570(3) -0.5608(4)
O2 O 0.17660(12) -0.1053(3) -0.5203(4)
O3 O -0.20686(14) 0.3340(3) 0.3022(4)
H6 H -0.2203 0.3981 0.3694
H7 H -0.1994 0.2679 0.3935
N1E N -0.32035(13) 0.2552(3) 0.0896(4)
N2F N 0.08101(13) 0.1912(4) -0.3163(5)
C2F C 0.10802(15) 0.0966(4) -0.3984(5)
C1F C 0.15766(16) 0.1210(4) -0.4417(5)
N1F N 0.17965(13) 0.2448(3) -0.4104(4)
Cu1C Cu 0.2500 0.2500 -0.5000
O1C O -0.26496(11) 0.4430(3) -0.0608(4)
C3F C -0.10399(16) 0.3128(4) -0.2243(6)
C4F C -0.15324(16) 0.3395(4) -0.1720(6)
H2F H -0.1679 0.4256 -0.1952
C6F C -0.0761(2) 0.4179(5) -0.3260(9)
H3F H -0.0659 0.3789 -0.4396
H4F H -0.0989 0.4942 -0.3579
H5F H -0.0458 0.4483 -0.2460
H1F H -0.0928 0.0118 -0.0729
C5F C -0.19168(15) 0.0137(4) 0.0141(5)
O1F O -0.23504(11) 0.0570(3) 0.0608(4)
O3E O -0.29314(14) 0.1660(3) -0.3022(4)
H6E H -0.2797 0.1019 -0.3694
H7E H -0.3006 0.2321 -0.3935
O2F O -0.17660(12) -0.1053(3) 0.0203(4)
N3 N -0.5000 0.6904(6) 0.2500
O4 O -0.4771(3) 0.6243(7) 0.1414(8)
O5 O -0.5000 0.8101(7) 0.2500
O4F O -0.5229(3) 0.6243(7) 0.3586(8)
loop_
_geom_bond_atom_site_label_1
_geom_bond_atom_site_label_2
_geom_bond_site_symmetry_1
_geom_bond_site_symmetry_2
Ag1 N2 1_555 1_555
Cu1 N1 1_555 1_555
N1 C1 1_555 1_555
N2 C2 1_555 1_555
N3 O4 1_555 1_555
C1 C2 1_555 1_555
C2 H1F 1_555 1_555
H1 C2F 1_555 1_555
C3 C4 1_555 1_555
C4 H2 1_555 1_555
C5 O1 1_555 1_555
C6 C3 1_555 1_555
H3 C6 1_555 1_555
H4 C6 1_555 1_555
H5 C6 1_555 1_555
O1 Cu1C 1_555 1_555
O2 C5 1_555 1_555
O3 Cu1 1_555 1_555
O5 N3 1_555 1_555
H6 O3 1_555 1_555
H7 O3 1_555 1_555
N1E Cu1 1_555 1_555
N2F Ag1 1_555 1_555
C2F N2F 1_555 1_555
C1F C5 1_555 1_555
N1F C4 1_555 1_555
Cu1C N1F 1_555 1_555
O1C Cu1 1_555 1_555
C3F N2 1_555 1_555
C4F N1 1_555 1_555
H2F C4F 1_555 1_555
C6F C3F 1_555 1_555
H3F C6F 1_555 1_555
H4F C6F 1_555 1_555
H5F C6F 1_555 1_555
C5F C1 1_555 1_555
O1F Cu1 1_555 1_555
O3E Cu1 1_555 1_555
H6E O3E 1_555 1_555
H7E O3E 1_555 1_555
O2F C5F 1_555 1_555
O4F N3 1_555 1_555
C3 N2F 1_555 1_555
C2F C1F 1_555 1_555
C1F N1F 1_555 1_555
C3F C4F 1_555 1_555
C5F O1F 1_555 1_555

#END
