
#######################################################################
#
#                 Cambridge Crystallographic Data Centre
#                                CCDC 
#
#######################################################################
#
# If this CIF has been generated from an entry in the Cambridge 
# Structural Database, then it will include bibliographic, chemical, 
# crystal, experimental, refinement or atomic coordinate data resulting 
# from the CCDC's data processing and validation procedures.
#
#######################################################################

data_MEKPOI
_symmetry_cell_setting           triclinic
_symmetry_space_group_name_H-M   'P -1'
_symmetry_Int_Tables_number      2
_space_group_name_Hall           '-P 1'
loop_
_symmetry_equiv_pos_site_id
_symmetry_equiv_pos_as_xyz
1 x,y,z
2 -x,-y,-z
_cell_length_a                   8.184(5)
_cell_length_b                   8.792(2)
_cell_length_c                   10.887(2)
_cell_angle_alpha                75.65(2)
_cell_angle_beta                 76.55(3)
_cell_angle_gamma                74.36(3)
_cell_volume                     719.189
loop_
_atom_site_label
_atom_site_type_symbol
_atom_site_fract_x
_atom_site_fract_y
_atom_site_fract_z
Cu1 Cu 0.08146(4) 0.02543(5) 0.83250(3)
Cu2 Cu 0.48458(4) -0.13481(5) 0.66614(3)
O1 O 0.2440(3) -0.1232(3) 0.7396(2)
O2 O 0.4930(3) 0.0595(3) 0.7206(3)
O3 O 0.2608(3) 0.1043(3) 0.8747(2)
N1 N -0.0916(4) -0.0991(4) 0.8264(3)
N2 N 0.4576(4) -0.3044(5) 0.5834(4)
N3 N -0.4053(4) 0.6829(4) 0.8272(3)
N4 N -0.2376(6) 0.4541(4) 0.9563(4)
N5 N -0.0917(4) 0.1853(4) 0.9205(3)
N6 N 0.2876(4) 0.1272(4) 0.4498(3)
N7 N 0.0480(4) 0.2080(5) 0.6193(3)
N8 N -0.2037(6) 0.4320(6) 0.6038(4)
C1 C 0.0061(5) -0.2498(5) 0.7838(4)
C2 C 0.1659(4) -0.2161(4) 0.6908(4)
C3 C 0.3024(5) -0.3627(5) 0.6622(5)
C4 C 0.4085(4) 0.1214(4) 0.8152(3)
C5 C 0.4894(6) 0.2248(6) 0.8614(5)
H1 H 0.4011 0.2987 0.9061
H2 H 0.5539 0.2840 0.7890
H3 H 0.5653 0.1582 0.9187
C6 C -0.3288(4) 0.5703(4) 0.8819(3)
C7 C -0.1647(4) 0.3151(4) 0.9296(3)
C8 C 0.1743(4) 0.1740(4) 0.5245(3)
C9 C -0.0818(5) 0.3325(5) 0.6043(3)
H4 H -0.170(7) -0.033(6) 0.779(5)
H5 H -0.156(6) -0.131(6) 0.910(5)
H6 H 0.536(5) -0.378(5) 0.587(4)
H7 H 0.461(7) -0.261(6) 0.502(6)
H8 H -0.073(6) -0.286(5) 0.741(4)
H9 H 0.046(6) -0.326(6) 0.861(5)
H10 H 0.128(5) -0.151(5) 0.602(4)
H11 H 0.274(6) -0.423(5) 0.607(5)
H12 H 0.340(6) -0.426(6) 0.746(5)
Cu1A Cu -0.08146(4) -0.02543(5) 1.16750(3)
Cu2_2 Cu -0.51542(4) 0.86519(5) 0.66614(3)
Cu2A Cu 0.51542(4) 0.13481(5) 0.33386(3)
N3_2 N 0.5947(4) -0.3171(4) 0.8272(3)
N5A N 0.0917(4) -0.1853(4) 1.0795(3)
N6A N 0.7124(4) -0.1272(4) 0.5502(3)
loop_
_geom_bond_atom_site_label_1
_geom_bond_atom_site_label_2
_geom_bond_site_symmetry_1
_geom_bond_site_symmetry_2
Cu1 O1 1_555 1_555
Cu2 O1 1_555 1_555
O1 C2 1_555 1_555
O2 Cu2 1_555 1_555
O3 Cu1 1_555 1_555
N1 Cu1 1_555 1_555
N2 Cu2 1_555 1_555
N3 C6 1_555 1_555
N4 C6 1_555 1_555
N5 Cu1 1_555 1_555
N6 C8 1_555 1_555
N7 Cu1 1_555 1_555
N8 C9 1_555 1_555
C1 N1 1_555 1_555
C2 C1 1_555 1_555
C3 N2 1_555 1_555
C4 O2 1_555 1_555
C5 C4 1_555 1_555
H1 C5 1_555 1_555
H2 C5 1_555 1_555
H3 C5 1_555 1_555
C7 N4 1_555 1_555
C8 N7 1_555 1_555
C9 N7 1_555 1_555
H4 N1 1_555 1_555
H5 N1 1_555 1_555
H6 N2 1_555 1_555
H7 N2 1_555 1_555
H8 C1 1_555 1_555
H9 C1 1_555 1_555
H10 C2 1_555 1_555
H11 C3 1_555 1_555
H12 C3 1_555 1_555
Cu1A N5 1_555 1_555
Cu2_2 N3 1_555 1_555
Cu2A N6 1_555 1_555
N3_2 Cu2 1_555 1_555
N5A Cu1 1_555 1_555
N6A Cu2 1_555 1_555
O3 C4 1_555 1_555
N5 C7 1_555 1_555
C2 C3 1_555 1_555
Cu1A N5A 1_555 1_555

#END
