
#######################################################################
#
#                 Cambridge Crystallographic Data Centre
#                                CCDC 
#
#######################################################################
#
# If this CIF has been generated from an entry in the Cambridge 
# Structural Database, then it will include bibliographic, chemical, 
# crystal, experimental, refinement or atomic coordinate data resulting 
# from the CCDC's data processing and validation procedures.
#
#######################################################################

data_MELDAJ
_symmetry_cell_setting           monoclinic
_symmetry_space_group_name_H-M   'P 21/c'
_symmetry_Int_Tables_number      14
_space_group_name_Hall           '-P 2ybc'
loop_
_symmetry_equiv_pos_site_id
_symmetry_equiv_pos_as_xyz
1 x,y,z
2 -x,1/2+y,1/2-z
3 -x,-y,-z
4 x,1/2-y,1/2+z
_cell_length_a                   16.984(3)
_cell_length_b                   9.8207(14)
_cell_length_c                   27.682(5)
_cell_angle_alpha                90
_cell_angle_beta                 95.812(7)
_cell_angle_gamma                90
_cell_volume                     4593.48
loop_
_atom_site_label
_atom_site_type_symbol
_atom_site_fract_x
_atom_site_fract_y
_atom_site_fract_z
Zn1 Zn 0.338783(11) 0.19559(2) 0.276998(7)
P1 P 0.94408(3) -0.37276(6) 0.159340(19)
P2 P 0.38316(3) -0.15236(5) 0.270790(17)
O1 O 0.94911(9) -0.49859(17) 0.12973(6)
O2 O 0.36297(8) -0.00575(14) 0.27430(5)
N1 N 0.70996(8) -0.30312(17) 0.15702(5)
N2 N 0.77568(8) -0.31393(16) 0.25675(5)
N3 N 0.61962(8) -0.24880(17) 0.28785(5)
N4 N 0.55856(8) -0.22528(17) 0.18817(5)
C1 C 0.66658(10) -0.3021(2) 0.11238(7)
C2 C 0.71603(11) -0.3410(2) 0.07517(7)
H1 H 0.7000 -0.3504 0.0414
C3 C 0.78966(11) -0.3616(2) 0.09771(7)
H2 H 0.8354 -0.3867 0.0827
C4 C 0.78560(10) -0.3379(2) 0.14925(7)
C5 C 0.84971(10) -0.3536(2) 0.18559(7)
C6 C 0.84312(10) -0.35074(19) 0.23620(6)
C7 C 0.90312(10) -0.3911(2) 0.27466(7)
H3 H 0.9550 -0.4222 0.2705
C8 C 0.87198(10) -0.3766(2) 0.31719(7)
H4 H 0.8977 -0.3953 0.3486
C9 C 0.79233(10) -0.32727(19) 0.30611(6)
C10 C 0.74022(10) -0.3036(2) 0.34152(6)
C11 C 0.66088(10) -0.2643(2) 0.33268(6)
C12 C 0.61054(11) -0.2299(2) 0.37005(7)
H5 H 0.6250 -0.2298 0.4041
C13 C 0.53873(11) -0.1979(2) 0.34696(7)
H6 H 0.4932 -0.1714 0.3619
C14 C 0.54422(10) -0.2115(2) 0.29569(7)
C15 C 0.48456(10) -0.1804(2) 0.25841(7)
C16 C 0.49670(10) -0.1695(2) 0.20885(7)
C17 C 0.44291(11) -0.1046(2) 0.17174(7)
H7 H 0.3972 -0.0529 0.1768
C18 C 0.47018(12) -0.1319(3) 0.12873(8)
H8 H 0.4466 -0.1048 0.0976
C19 C 0.54194(10) -0.2099(2) 0.13886(7)
C20 C 0.58779(11) -0.2583(2) 0.10346(7)
C21 C 0.95463(10) -0.2179(2) 0.12475(7)
C22 C 1.00604(12) -0.2218(3) 0.08844(8)
H9 H 1.0299 -0.3053 0.0804
C23 C 1.02214(13) -0.1023(3) 0.06402(8)
H10 H 1.0571 -0.1052 0.0394
C24 C 0.98831(14) 0.0192(3) 0.07497(9)
H11 H 1.0001 0.0996 0.0581
C25 C 0.93689(14) 0.0247(3) 0.11072(8)
H12 H 0.9131 0.1085 0.1184
C26 C 0.92028(12) -0.0949(2) 0.13548(8)
H13 H 0.8850 -0.0916 0.1600
C27 C 1.02686(10) -0.3630(2) 0.20509(7)
C28 C 1.07641(11) -0.4761(2) 0.21164(8)
H14 H 1.0666 -0.5547 0.1919
C29 C 1.14028(11) -0.4730(2) 0.24725(8)
H15 H 1.1750 -0.5490 0.2514
C30 C 1.15343(12) -0.3602(3) 0.27649(8)
H16 H 1.1962 -0.3603 0.3014
C31 C 1.10463(12) -0.2456(3) 0.26999(8)
H17 H 1.1140 -0.1680 0.2903
C32 C 1.04255(11) -0.2469(2) 0.23357(8)
H18 H 1.0104 -0.1682 0.2279
C33 C 0.77082(11) -0.3260(2) 0.39377(7)
C34 C 0.74612(14) -0.4378(3) 0.41862(8)
H19 H 0.7106 -0.5015 0.4024
C35 C 0.77310(17) -0.4575(4) 0.46743(9)
H20 H 0.7563 -0.5352 0.4841
C36 C 0.82317(17) -0.3665(4) 0.49135(9)
H21 H 0.8399 -0.3790 0.5249
C37 C 0.84948(18) -0.2567(4) 0.46700(11)
H22 H 0.8858 -0.1948 0.4835
C38 C 0.82349(14) -0.2348(3) 0.41808(9)
H23 H 0.8417 -0.1581 0.4015
C39 C 0.35524(10) -0.2407(2) 0.32365(7)
C40 C 0.36268(12) -0.3802(2) 0.33022(8)
H24 H 0.3931 -0.4323 0.3099
C41 C 0.32539(13) -0.4434(3) 0.36660(9)
H25 H 0.3301 -0.5390 0.3710
C42 C 0.28180(13) -0.3688(3) 0.39621(8)
H26 H 0.2562 -0.4134 0.4208
C43 C 0.27488(15) -0.2320(3) 0.39075(9)
H27 H 0.2452 -0.1812 0.4118
C44 C 0.31125(13) -0.1652(2) 0.35430(8)
H28 H 0.3061 -0.0694 0.3504
C45 C 0.32244(10) -0.2348(2) 0.22207(7)
C46 C 0.34171(13) -0.3594(2) 0.20230(8)
H29 H 0.3879 -0.4070 0.2150
C47 C 0.29282(15) -0.4134(3) 0.16387(9)
H30 H 0.3056 -0.4983 0.1502
C48 C 0.22547(15) -0.3439(3) 0.14529(9)
H31 H 0.1926 -0.3810 0.1187
C49 C 0.20596(12) -0.2216(2) 0.16511(8)
H32 H 0.1596 -0.1748 0.1522
C50 C 0.25359(11) -0.1666(2) 0.20372(7)
H33 H 0.2396 -0.0828 0.2177
C51 C 0.55046(13) -0.2524(3) 0.05228(8)
C52 C 0.48376(17) -0.3286(4) 0.03903(11)
H34 H 0.4642 -0.3899 0.0615
C53 C 0.4450(2) -0.3151(6) -0.00776(13)
H35 H 0.3992 -0.3680 -0.0173
C54 C 0.4732(2) -0.2252(6) -0.04003(11)
H36 H 0.4463 -0.2152 -0.0716
C55 C 0.5394(3) -0.1506(4) -0.02685(11)
H37 H 0.5587 -0.0893 -0.0495
C56 C 0.5788(2) -0.1630(3) 0.01918(9)
H38 H 0.6250 -0.1107 0.0281
Zn1A Zn 0.661217(11) -0.30441(2) 0.223002(7)
N1A N 0.29004(8) 0.19688(17) 0.34298(5)
N2A N 0.22432(8) 0.18607(16) 0.24325(5)
N3A N 0.38038(8) 0.25120(17) 0.21215(5)
N4A N 0.44144(8) 0.27472(17) 0.31183(5)
O3 O 0.0455(6) -0.0982(9) 0.4650(3)
O4? O 0.1160(6) -0.1357(11) 0.4828(4)
O5? O 0.0120(7) -0.1103(12) 0.4503(4)
O6? O 0.0501(4) -0.0506(7) 0.4709(3)
O7? O 0.2084(9) -0.1322(15) 0.5145(5)
O8? O 0.1127(8) -0.0639(15) 0.5226(5)
O9? O 0.1761(9) -0.2208(15) 0.5003(5)
loop_
_geom_bond_atom_site_label_1
_geom_bond_atom_site_label_2
_geom_bond_site_symmetry_1
_geom_bond_site_symmetry_2
Zn1 O2 1_555 1_555
P1 O1 1_555 1_555
P2 O2 1_555 1_555
N1 C1 1_555 1_555
N2 C6 1_555 1_555
N3 C11 1_555 1_555
N4 C16 1_555 1_555
C1 C2 1_555 1_555
C2 H1 1_555 1_555
C3 C2 1_555 1_555
H2 C3 1_555 1_555
C4 N1 1_555 1_555
C5 P1 1_555 1_555
C6 C5 1_555 1_555
C7 C6 1_555 1_555
H3 C7 1_555 1_555
C8 C7 1_555 1_555
H4 C8 1_555 1_555
C9 N2 1_555 1_555
C10 C9 1_555 1_555
C11 C10 1_555 1_555
C12 C11 1_555 1_555
H5 C12 1_555 1_555
C13 C12 1_555 1_555
H6 C13 1_555 1_555
C14 N3 1_555 1_555
C15 P2 1_555 1_555
C16 C15 1_555 1_555
C17 C16 1_555 1_555
H7 C17 1_555 1_555
C18 C17 1_555 1_555
H8 C18 1_555 1_555
C19 N4 1_555 1_555
C20 C1 1_555 1_555
C21 P1 1_555 1_555
C22 C21 1_555 1_555
H9 C22 1_555 1_555
C23 C22 1_555 1_555
H10 C23 1_555 1_555
C24 C23 1_555 1_555
H11 C24 1_555 1_555
C25 C24 1_555 1_555
H12 C25 1_555 1_555
C26 C21 1_555 1_555
H13 C26 1_555 1_555
C27 P1 1_555 1_555
C28 C27 1_555 1_555
H14 C28 1_555 1_555
C29 C28 1_555 1_555
H15 C29 1_555 1_555
C30 C29 1_555 1_555
H16 C30 1_555 1_555
C31 C30 1_555 1_555
H17 C31 1_555 1_555
C32 C27 1_555 1_555
H18 C32 1_555 1_555
C33 C10 1_555 1_555
C34 C33 1_555 1_555
H19 C34 1_555 1_555
C35 C34 1_555 1_555
H20 C35 1_555 1_555
C36 C35 1_555 1_555
H21 C36 1_555 1_555
C37 C36 1_555 1_555
H22 C37 1_555 1_555
C38 C33 1_555 1_555
H23 C38 1_555 1_555
C39 P2 1_555 1_555
C40 C39 1_555 1_555
H24 C40 1_555 1_555
C41 C40 1_555 1_555
H25 C41 1_555 1_555
C42 C41 1_555 1_555
H26 C42 1_555 1_555
C43 C42 1_555 1_555
H27 C43 1_555 1_555
C44 C39 1_555 1_555
H28 C44 1_555 1_555
C45 P2 1_555 1_555
C46 C45 1_555 1_555
H29 C46 1_555 1_555
C47 C46 1_555 1_555
H30 C47 1_555 1_555
C48 C47 1_555 1_555
H31 C48 1_555 1_555
C49 C48 1_555 1_555
H32 C49 1_555 1_555
C50 C45 1_555 1_555
H33 C50 1_555 1_555
C51 C20 1_555 1_555
C52 C51 1_555 1_555
H34 C52 1_555 1_555
C53 C52 1_555 1_555
H35 C53 1_555 1_555
C54 C53 1_555 1_555
H36 C54 1_555 1_555
C55 C54 1_555 1_555
H37 C55 1_555 1_555
C56 C51 1_555 1_555
H38 C56 1_555 1_555
Zn1A N1 1_555 1_555
N1A Zn1 1_555 1_555
N2A Zn1 1_555 1_555
N3A Zn1 1_555 1_555
N4A Zn1 1_555 1_555
N2 Zn1A 1_555 1_555
N3 Zn1A 1_555 1_555
N4 Zn1A 1_555 1_555
C3 C4 1_555 1_555
C4 C5 1_555 1_555
C8 C9 1_555 1_555
C13 C14 1_555 1_555
C14 C15 1_555 1_555
C18 C19 1_555 1_555
C19 C20 1_555 1_555
C25 C26 1_555 1_555
C31 C32 1_555 1_555
C37 C38 1_555 1_555
C43 C44 1_555 1_555
C49 C50 1_555 1_555
C55 C56 1_555 1_555

#END
