
#######################################################################
#
#                 Cambridge Crystallographic Data Centre
#                                CCDC 
#
#######################################################################
#
# If this CIF has been generated from an entry in the Cambridge 
# Structural Database, then it will include bibliographic, chemical, 
# crystal, experimental, refinement or atomic coordinate data resulting 
# from the CCDC's data processing and validation procedures.
#
#######################################################################

data_MELJET01
_symmetry_cell_setting           monoclinic
_symmetry_space_group_name_H-M   'P 21/c'
_symmetry_Int_Tables_number      14
_space_group_name_Hall           '-P 2ybc'
loop_
_symmetry_equiv_pos_site_id
_symmetry_equiv_pos_as_xyz
1 x,y,z
2 -x,1/2+y,1/2-z
3 -x,-y,-z
4 x,1/2-y,1/2+z
_cell_length_a                   8.3600(17)
_cell_length_b                   8.4780(17)
_cell_length_c                   22.484(6)
_cell_angle_alpha                90
_cell_angle_beta                 107.92(3)
_cell_angle_gamma                90
_cell_volume                     1516.27
loop_
_atom_site_label
_atom_site_type_symbol
_atom_site_fract_x
_atom_site_fract_y
_atom_site_fract_z
Cd1 Cd 0.08446(4) 0.48165(4) 0.862887(15)
Cd2 Cd -0.36031(4) 0.68779(4) 0.517450(15)
O1 O 0.1177(4) 0.6149(5) 0.78065(17)
O2 O -0.4003(4) 0.9176(4) 0.46181(16)
H1 H -0.4988 0.9612 0.4530
H2 H -0.3212 0.9956 0.4737
O3 O -0.0083(4) 0.7567(4) 0.69670(15)
O4 O -0.3548(4) 0.8752(4) 0.62600(15)
O5 O -0.3565(4) 0.6160(4) 0.61307(15)
O6 O 0.0991(4) 0.3144(4) 0.94188(14)
O7 O -0.1508(4) 0.3561(5) 0.95433(17)
O8 O -0.3630(4) 0.1282(4) 1.01667(14)
O9 O -0.2649(4) 0.3486(4) 1.06911(16)
N1 N -0.1692(5) 0.5996(5) 0.81283(17)
N2 N 0.1956(4) 0.1279(4) 1.04362(17)
C1 C -0.1759(6) 0.6589(5) 0.7567(2)
C2 C -0.3289(5) 0.7044(5) 0.7139(2)
C3 C -0.4726(6) 0.7006(6) 0.7321(2)
H3 H -0.5746 0.7354 0.7051
C4 C -0.4638(6) 0.6448(7) 0.7910(2)
H4 H -0.5586 0.6441 0.8044
C5 C -0.3117(6) 0.5902(6) 0.8293(2)
H5 H -0.3067 0.5457 0.8677
C6 C -0.0088(6) 0.6780(6) 0.7441(2)
C7 C -0.3453(5) 0.7375(6) 0.6461(2)
C8 C 0.0384(5) 0.1889(5) 1.0270(2)
C9 C -0.0691(5) 0.1562(5) 1.06181(19)
C10 C -0.0104(6) 0.0650(6) 1.1153(2)
H6 H -0.0804 0.0425 1.1393
C11 C 0.1524(6) 0.0075(6) 1.1330(2)
H7 H 0.1943 -0.0515 1.1693
C12 C 0.2512(6) 0.0402(6) 1.0951(2)
H8 H 0.3598 -0.0002 1.1059
C13 C -0.0116(6) 0.2961(5) 0.9698(2)
C14 C -0.2461(5) 0.2175(5) 1.0465(2)
Cd1A Cd -0.08446(4) 0.98165(4) 0.637113(15)
Cd1B Cd -0.08446(4) 0.51835(4) 1.137113(15)
Cd2A Cd 0.36031(4) 0.18779(4) 0.982550(15)
Cd2C Cd -0.36031(4) -0.18779(4) 1.017450(15)
Cd2A_2 Cd -0.63969(4) 0.18779(4) 0.982550(15)
O3A O 0.0083(4) 0.2567(4) 0.80330(15)
O4A O 0.3548(4) 0.3752(4) 0.87400(15)
O6A O -0.0991(4) 0.8144(4) 0.55812(14)
O8C O -0.3630(4) 0.3718(4) 0.51667(14)
O8A O -0.6370(4) 0.6282(4) 0.48333(14)
O9B O 0.2649(4) 0.6514(4) 0.93089(16)
N2A N -0.1956(4) 0.6279(4) 0.45638(17)
loop_
_geom_bond_atom_site_label_1
_geom_bond_atom_site_label_2
_geom_bond_site_symmetry_1
_geom_bond_site_symmetry_2
Cd1 O1 1_555 1_555
Cd2 O2 1_555 1_555
O1 C6 1_555 1_555
O2 H1 1_555 1_555
H2 O2 1_555 1_555
O3 C6 1_555 1_555
O4 C7 1_555 1_555
O5 Cd2 1_555 1_555
O6 Cd1 1_555 1_555
O7 C13 1_555 1_555
O8 C14 1_555 1_555
O9 C14 1_555 1_555
N1 Cd1 1_555 1_555
N2 C8 1_555 1_555
C1 N1 1_555 1_555
C2 C1 1_555 1_555
C3 C2 1_555 1_555
H3 C3 1_555 1_555
C4 C3 1_555 1_555
H4 C4 1_555 1_555
C5 N1 1_555 1_555
H5 C5 1_555 1_555
C6 C1 1_555 1_555
C7 O5 1_555 1_555
C8 C9 1_555 1_555
C9 C10 1_555 1_555
C10 H6 1_555 1_555
C11 C10 1_555 1_555
H7 C11 1_555 1_555
C12 N2 1_555 1_555
H8 C12 1_555 1_555
C13 O6 1_555 1_555
C14 C9 1_555 1_555
Cd1A O3 1_555 1_555
Cd1B O9 1_555 1_555
Cd2A O6 1_555 1_555
Cd2C O8 1_555 1_555
Cd2A_2 O8 1_555 1_555
O3A Cd1 1_555 1_555
O4A Cd1 1_555 1_555
O6A Cd2 1_555 1_555
O8C Cd2 1_555 1_555
O8A Cd2 1_555 1_555
O9B Cd1 1_555 1_555
N2A Cd2 1_555 1_555
O4 Cd1A 1_555 1_555
N2 Cd2A 1_555 1_555
C2 C7 1_555 1_555
C4 C5 1_555 1_555
C8 C13 1_555 1_555
C11 C12 1_555 1_555
Cd1A O6A 1_555 1_555

#END
