
#######################################################################
#
#                 Cambridge Crystallographic Data Centre
#                                CCDC 
#
#######################################################################
#
# If this CIF has been generated from an entry in the Cambridge 
# Structural Database, then it will include bibliographic, chemical, 
# crystal, experimental, refinement or atomic coordinate data resulting 
# from the CCDC's data processing and validation procedures.
#
#######################################################################

data_MELLAR
_symmetry_cell_setting           triclinic
_symmetry_space_group_name_H-M   'P -1'
_symmetry_Int_Tables_number      2
_space_group_name_Hall           '-P 1'
loop_
_symmetry_equiv_pos_site_id
_symmetry_equiv_pos_as_xyz
1 x,y,z
2 -x,-y,-z
_cell_length_a                   12.3573(11)
_cell_length_b                   14.1055(14)
_cell_length_c                   14.1822(15)
_cell_angle_alpha                104.195(2)
_cell_angle_beta                 110.017(2)
_cell_angle_gamma                104.945(3)
_cell_volume                     2087.22
loop_
_atom_site_label
_atom_site_type_symbol
_atom_site_fract_x
_atom_site_fract_y
_atom_site_fract_z
Cu1 Cu 0.37128(19) 0.41959(18) 0.41441(17)
Cu2 Cu 0.13136(19) 0.08183(18) 0.03933(16)
Cu3 Cu 0.37451(19) 0.46467(18) 0.00414(18)
O1 O 0.5293(11) 0.4275(10) 0.5165(9)
C1 C 0.5571(17) 0.3406(15) 0.5088(13)
C2 C 0.6691(18) 0.3386(16) 0.5124(14)
H1 H 0.7287 0.3994 0.5181
C3 C 0.6954(19) 0.2490(17) 0.5077(15)
H2 H 0.7731 0.2497 0.5120
C4 C 0.609(2) 0.1594(18) 0.4971(17)
H3 H 0.6270 0.0980 0.4932
C5 C 0.497(2) 0.1595(17) 0.4920(16)
H4 H 0.4374 0.0974 0.4842
C6 C 0.4683(18) 0.2493(16) 0.4982(14)
C7 C 0.3489(18) 0.2536(17) 0.4999(15)
H5 H 0.2983 0.1850 0.4952
H6 H 0.3675 0.3064 0.5687
N1 N 0.2762(14) 0.2807(12) 0.4098(12)
H7 H 0.267(14) 0.240(13) 0.354(13)
C8 C 0.1536(17) 0.2764(15) 0.4059(15)
H8 H 0.1139 0.2086 0.4113
C9 C 0.167(2) 0.3641(17) 0.5013(17)
H9 H 0.2162 0.3579 0.5686
H10 H 0.2108 0.4326 0.5012
C10 C 0.041(2) 0.3593(19) 0.497(2)
H11 H 0.0024 0.2958 0.5085
H12 H 0.0524 0.4208 0.5553
C11 C -0.044(2) 0.3574(19) 0.390(2)
H13 H -0.1262 0.3490 0.3879
H14 H -0.0106 0.4247 0.3823
C12 C -0.0567(18) 0.2684(17) 0.2975(19)
H15 H -0.1108 0.2699 0.2292
H16 H -0.0958 0.2009 0.3023
C13 C 0.0692(16) 0.2763(15) 0.2985(15)
H17 H 0.0551 0.2113 0.2416
C14 C 0.1153(17) 0.3690(15) 0.2656(15)
O2 O 0.2292(11) 0.4334(10) 0.3182(9)
O3 O 0.0416(12) 0.3794(11) 0.1895(12)
O4 O -0.0176(10) -0.0145(10) -0.0923(9)
C15 C -0.0339(16) -0.0029(14) -0.1872(13)
C16 C -0.1444(16) -0.0007(15) -0.2552(14)
H18 H -0.2111 -0.0090 -0.2362
C17 C -0.1563(18) 0.0135(16) -0.3503(16)
H19 H -0.2309 0.0163 -0.3950
C18 C -0.061(2) 0.0237(17) -0.3808(16)
H20 H -0.0711 0.0317 -0.4468
C19 C 0.0484(18) 0.0220(16) -0.3134(14)
H21 H 0.1140 0.0294 -0.3338
C20 C 0.0646(16) 0.0096(14) -0.2163(14)
C21 C 0.1857(16) 0.0122(15) -0.1407(13)
H22 H 0.1727 -0.0545 -0.1287
H23 H 0.2444 0.0203 -0.1730
N2 N 0.2381(13) 0.1006(13) -0.0364(11)
H24 H 0.234(16) 0.153(14) -0.047(14)
C22 C 0.3696(15) 0.1241(14) 0.0340(13)
H25 H 0.4153 0.1263 -0.0112
C23 C 0.3844(16) 0.0384(15) 0.0790(15)
H26 H 0.3499 -0.0296 0.0195
H27 H 0.3387 0.0328 0.1232
C24 C 0.5218(17) 0.0652(17) 0.1476(16)
H28 H 0.5307 0.0117 0.1793
H29 H 0.5659 0.0645 0.1018
C25 C 0.5786(17) 0.1722(17) 0.2362(16)
H30 H 0.5386 0.1711 0.2850
H31 H 0.6671 0.1886 0.2779
C26 C 0.5637(15) 0.2566(16) 0.1911(15)
H32 H 0.6092 0.2614 0.1467
H33 H 0.5996 0.3249 0.2506
C27 C 0.4258(15) 0.2331(14) 0.1221(13)
H34 H 0.4237 0.2847 0.0857
C28 C 0.3601(16) 0.2524(15) 0.1952(13)
O5 O 0.2583(10) 0.1831(10) 0.1779(9)
O6 O 0.4108(11) 0.3387(10) 0.2703(10)
O7 O 0.5101(11) 0.5934(10) 0.0306(10)
C29 C 0.5280(17) 0.6820(15) 0.1067(15)
C30 C 0.6389(18) 0.7398(16) 0.1988(16)
H35 H 0.7082 0.7206 0.2079
C31 C 0.647(2) 0.8253(18) 0.2769(18)
H36 H 0.7223 0.8636 0.3395
C32 C 0.548(2) 0.8557(18) 0.2655(19)
H37 H 0.5557 0.9141 0.3198
C33 C 0.438(2) 0.7999(16) 0.1737(19)
H38 H 0.3702 0.8209 0.1651
C34 C 0.4267(17) 0.7136(15) 0.0944(16)
C35 C 0.3060(17) 0.6456(15) -0.0009(16)
H39 H 0.2450 0.6787 -0.0033
H40 H 0.3169 0.6369 -0.0674
N3 N 0.2609(13) 0.5409(12) 0.0075(13)
H41 H 0.264(16) 0.554(15) 0.070(15)
C36 C 0.1302(15) 0.4760(14) -0.0718(14)
H42 H 0.0822 0.5223 -0.0697
C37 C 0.1165(18) 0.4356(17) -0.1864(15)
H43 H 0.1486 0.4953 -0.2059
H44 H 0.1651 0.3911 -0.1912
C38 C -0.0189(18) 0.3723(18) -0.2640(16)
H45 H -0.0651 0.4194 -0.2663
H46 H -0.0256 0.3415 -0.3367
C39 C -0.0763(19) 0.2849(17) -0.2312(16)
H47 H -0.1648 0.2482 -0.2807
H48 H -0.0360 0.2337 -0.2362
C40 C -0.0618(16) 0.3287(16) -0.1178(15)
H49 H -0.0991 0.2709 -0.0980
H50 H -0.1058 0.3772 -0.1137
C41 C 0.0762(15) 0.3876(14) -0.0378(14)
H51 H 0.0796 0.4210 0.0338
C42 C 0.1421(16) 0.3097(15) -0.0275(14)
O8 O 0.2509(11) 0.3314(10) -0.0254(10)
O9 O 0.0885(11) 0.2279(11) -0.0192(11)
O10 O 0.4760(14) 0.5031(12) 0.1940(12)
H52 H 0.43(2) 0.535(18) 0.22(2)
H53 H 0.47(2) 0.451(14) 0.22(2)
Cu1A Cu 0.62872(19) 0.58041(18) 0.58559(17)
Cu2A Cu -0.13136(19) -0.08183(18) -0.03933(16)
Cu3A Cu 0.62549(19) 0.53533(18) -0.00414(18)
O1A O 0.4707(11) 0.5725(10) 0.4835(9)
O4A O 0.0176(10) 0.0145(10) 0.0923(9)
O7A O 0.4899(11) 0.4066(10) -0.0306(10)
O11 O 0.3017(15) 0.5824(12) 0.2350(12)
H54 H 0.27(2) 0.538(19) 0.26(2)
H55 H 0.33(3) 0.64(2) 0.27(2)
O12 O -0.1264(15) 0.1759(15) 0.0242(16)
H56 H -0.070(19) 0.17(2) -0.004(19)
H57 H -0.09(2) 0.242(10) 0.073(17)
loop_
_geom_bond_atom_site_label_1
_geom_bond_atom_site_label_2
_geom_bond_site_symmetry_1
_geom_bond_site_symmetry_2
Cu1 O1 1_555 1_555
Cu2 O4 1_555 1_555
Cu3 O7 1_555 1_555
O1 C1 1_555 1_555
C1 C2 1_555 1_555
C2 H1 1_555 1_555
C3 C2 1_555 1_555
H2 C3 1_555 1_555
C4 C3 1_555 1_555
H3 C4 1_555 1_555
C5 C4 1_555 1_555
H4 C5 1_555 1_555
C6 C1 1_555 1_555
C7 C6 1_555 1_555
H5 C7 1_555 1_555
H6 C7 1_555 1_555
N1 Cu1 1_555 1_555
H7 N1 1_555 1_555
C8 N1 1_555 1_555
H8 C8 1_555 1_555
C9 C8 1_555 1_555
H9 C9 1_555 1_555
H10 C9 1_555 1_555
C10 C9 1_555 1_555
H11 C10 1_555 1_555
H12 C10 1_555 1_555
C11 C10 1_555 1_555
H13 C11 1_555 1_555
H14 C11 1_555 1_555
C12 C11 1_555 1_555
H15 C12 1_555 1_555
H16 C12 1_555 1_555
C13 C8 1_555 1_555
H17 C13 1_555 1_555
C14 C13 1_555 1_555
O2 Cu1 1_555 1_555
O3 C14 1_555 1_555
O4 C15 1_555 1_555
C15 C16 1_555 1_555
C16 H18 1_555 1_555
C17 C16 1_555 1_555
H19 C17 1_555 1_555
C18 C17 1_555 1_555
H20 C18 1_555 1_555
C19 C18 1_555 1_555
H21 C19 1_555 1_555
C20 C15 1_555 1_555
C21 C20 1_555 1_555
H22 C21 1_555 1_555
H23 C21 1_555 1_555
N2 Cu2 1_555 1_555
H24 N2 1_555 1_555
C22 N2 1_555 1_555
H25 C22 1_555 1_555
C23 C22 1_555 1_555
H26 C23 1_555 1_555
H27 C23 1_555 1_555
C24 C23 1_555 1_555
H28 C24 1_555 1_555
H29 C24 1_555 1_555
C25 C24 1_555 1_555
H30 C25 1_555 1_555
H31 C25 1_555 1_555
C26 C25 1_555 1_555
H32 C26 1_555 1_555
H33 C26 1_555 1_555
C27 C22 1_555 1_555
H34 C27 1_555 1_555
C28 C27 1_555 1_555
O5 Cu2 1_555 1_555
O6 Cu1 1_555 1_555
O7 C29 1_555 1_555
C29 C30 1_555 1_555
C30 H35 1_555 1_555
C31 C30 1_555 1_555
H36 C31 1_555 1_555
C32 C31 1_555 1_555
H37 C32 1_555 1_555
C33 C32 1_555 1_555
H38 C33 1_555 1_555
C34 C29 1_555 1_555
C35 C34 1_555 1_555
H39 C35 1_555 1_555
H40 C35 1_555 1_555
N3 Cu3 1_555 1_555
H41 N3 1_555 1_555
C36 N3 1_555 1_555
H42 C36 1_555 1_555
C37 C36 1_555 1_555
H43 C37 1_555 1_555
H44 C37 1_555 1_555
C38 C37 1_555 1_555
H45 C38 1_555 1_555
H46 C38 1_555 1_555
C39 C38 1_555 1_555
H47 C39 1_555 1_555
H48 C39 1_555 1_555
C40 C39 1_555 1_555
H49 C40 1_555 1_555
H50 C40 1_555 1_555
C41 C36 1_555 1_555
H51 C41 1_555 1_555
C42 C41 1_555 1_555
O8 Cu3 1_555 1_555
O9 Cu2 1_555 1_555
O10 Cu3 1_555 1_555
H52 O10 1_555 1_555
H53 O10 1_555 1_555
O11 H54 1_555 1_555
H55 O11 1_555 1_555
O12 H56 1_555 1_555
H57 O12 1_555 1_555
Cu1A O1 1_555 1_555
Cu2A O4 1_555 1_555
Cu3A O7 1_555 1_555
O1A Cu1 1_555 1_555
O4A Cu2 1_555 1_555
O7A Cu3 1_555 1_555
C5 C6 1_555 1_555
C7 N1 1_555 1_555
C12 C13 1_555 1_555
C14 O2 1_555 1_555
C19 C20 1_555 1_555
C21 N2 1_555 1_555
C26 C27 1_555 1_555
C28 O5 1_555 1_555
C28 O6 1_555 1_555
C33 C34 1_555 1_555
C35 N3 1_555 1_555
C40 C41 1_555 1_555
C42 O8 1_555 1_555
C42 O9 1_555 1_555
Cu1A O1A 1_555 1_555
Cu2A O4A 1_555 1_555
Cu3A O7A 1_555 1_555

#END
