
#######################################################################
#
#                 Cambridge Crystallographic Data Centre
#                                CCDC 
#
#######################################################################
#
# If this CIF has been generated from an entry in the Cambridge 
# Structural Database, then it will include bibliographic, chemical, 
# crystal, experimental, refinement or atomic coordinate data resulting 
# from the CCDC's data processing and validation procedures.
#
#######################################################################

data_MELNIA
_symmetry_cell_setting           triclinic
_symmetry_space_group_name_H-M   'P -1'
_symmetry_Int_Tables_number      2
_space_group_name_Hall           '-P 1'
loop_
_symmetry_equiv_pos_site_id
_symmetry_equiv_pos_as_xyz
1 x,y,z
2 -x,-y,-z
_cell_length_a                   7.4930(10)
_cell_length_b                   9.7580(10)
_cell_length_c                   13.5170(10)
_cell_angle_alpha                68.890(10)
_cell_angle_beta                 88.890(10)
_cell_angle_gamma                73.320(10)
_cell_volume                     879.287
loop_
_atom_site_label
_atom_site_type_symbol
_atom_site_fract_x
_atom_site_fract_y
_atom_site_fract_z
Cu1 Cu -0.26850(3) -0.15746(3) -0.188500(19)
N1 N -0.3169(2) -0.3090(2) -0.04929(14)
N2 N -0.1391(2) -0.35196(19) -0.21096(13)
C1 C -0.4041(3) -0.2831(3) 0.03214(18)
H1 H -0.4572 -0.1821 0.0274
C2 C -0.4180(4) -0.4030(3) 0.12412(19)
H2 H -0.4789 -0.3810 0.1797
C3 C -0.3429(4) -0.5519(3) 0.13301(18)
H3 H -0.3530 -0.6317 0.1943
C4 C -0.2495(3) -0.5845(3) 0.04862(18)
C5 C -0.1659(4) -0.7351(3) 0.0481(2)
H4 H -0.1697 -0.8203 0.1072
C6 C -0.0810(4) -0.7566(3) -0.0367(2)
H5 H -0.0294 -0.8562 -0.0351
C7 C -0.0688(3) -0.6289(2) -0.12929(19)
C8 C 0.0186(3) -0.6421(3) -0.2199(2)
H6 H 0.0710 -0.7384 -0.2240
C9 C 0.0257(3) -0.5115(3) -0.3018(2)
H7 H 0.0832 -0.5187 -0.3621
C10 C -0.0533(3) -0.3680(3) -0.29481(18)
H8 H -0.0458 -0.2805 -0.3507
C11 C -0.1470(3) -0.4800(2) -0.12979(16)
C12 C -0.2409(3) -0.4568(2) -0.04089(16)
C13 C -0.6722(3) -0.0156(2) -0.30858(16)
C14 C -0.8111(3) 0.0184(3) -0.39977(17)
H9 H -0.8361 -0.0764 -0.3936
H10 H -0.7549 0.0531 -0.4660
C15 C -0.9962(3) 0.1392(2) -0.40560(18)
H11 H -0.9699 0.2289 -0.4016
H12 H -1.0640 0.1707 -0.4744
C16 C -1.1218(3) 0.0882(2) -0.31981(18)
O1 O -0.5142(2) -0.11544(18) -0.30054(13)
O2 O -0.7148(2) 0.0513(2) -0.24461(15)
O3 O -1.1160(2) -0.05264(17) -0.28813(13)
O4 O -1.2258(3) 0.18511(19) -0.28816(17)
O5 O -0.3968(2) 0.02086(18) -0.15039(13)
H15 H -0.5155 0.0419 -0.1765
H16 H -0.3610 0.0976 -0.1966
O3_2 O -0.1160(2) -0.05264(17) -0.28813(13)
Cu1_2 Cu -1.26850(3) -0.15746(3) -0.188500(19)
C17 C -0.5179(3) -0.3552(2) -0.43128(16)
C18 C -0.4417(3) -0.4495(3) -0.4977(2)
H13 H -0.3153 -0.5138 -0.4687
H14 H -0.4354 -0.3809 -0.5696
O6 O -0.6530(3) -0.3635(2) -0.38225(15)
O7 O -0.4230(3) -0.2596(2) -0.43306(16)
H17 H -0.4651 -0.1991 -0.3931
C18A C -0.5583(3) -0.5505(3) -0.5023(2)
C17A C -0.4821(3) -0.6448(2) -0.56872(16)
O6A O -0.3470(3) -0.6365(2) -0.61775(15)
O7A O -0.5770(3) -0.7404(2) -0.56694(16)
H17A H -0.5349 -0.8009 -0.6069
H13A H -0.6847 -0.4862 -0.5313
H14A H -0.5646 -0.6191 -0.4304
loop_
_geom_bond_atom_site_label_1
_geom_bond_atom_site_label_2
_geom_bond_site_symmetry_1
_geom_bond_site_symmetry_2
Cu1 N1 1_555 1_555
N1 C1 1_555 1_555
N2 Cu1 1_555 1_555
C1 H1 1_555 1_555
C2 C1 1_555 1_555
H2 C2 1_555 1_555
C3 C2 1_555 1_555
H3 C3 1_555 1_555
C4 C3 1_555 1_555
C5 C4 1_555 1_555
H4 C5 1_555 1_555
C6 C5 1_555 1_555
H5 C6 1_555 1_555
C7 C6 1_555 1_555
C8 C7 1_555 1_555
H6 C8 1_555 1_555
C9 C8 1_555 1_555
H7 C9 1_555 1_555
C10 N2 1_555 1_555
H8 C10 1_555 1_555
C11 N2 1_555 1_555
C12 N1 1_555 1_555
C13 C14 1_555 1_555
C14 H9 1_555 1_555
H10 C14 1_555 1_555
C15 C14 1_555 1_555
H11 C15 1_555 1_555
H12 C15 1_555 1_555
C16 C15 1_555 1_555
C17 C18 1_555 1_555
C18 H13 1_555 1_555
H14 C18 1_555 1_555
O1 Cu1 1_555 1_555
O2 C13 1_555 1_555
O3 C16 1_555 1_555
O4 C16 1_555 1_555
O5 Cu1 1_555 1_555
O6 C17 1_555 1_555
O7 C17 1_555 1_555
H15 O5 1_555 1_555
H16 O5 1_555 1_555
H17 O7 1_555 1_555
O3_2 Cu1 1_555 1_555
Cu1_2 O3 1_555 1_555
C18A C18 1_555 1_555
C17A C18A 1_555 1_555
O6A C17A 1_555 1_555
O7A C17A 1_555 1_555
H17A O7A 1_555 1_555
H13A C18A 1_555 1_555
H14A C18A 1_555 1_555
C4 C12 1_555 1_555
C7 C11 1_555 1_555
C9 C10 1_555 1_555
C11 C12 1_555 1_555
C13 O1 1_555 1_555

#END
