
#######################################################################
#
#                 Cambridge Crystallographic Data Centre
#                                CCDC 
#
#######################################################################
#
# If this CIF has been generated from an entry in the Cambridge 
# Structural Database, then it will include bibliographic, chemical, 
# crystal, experimental, refinement or atomic coordinate data resulting 
# from the CCDC's data processing and validation procedures.
#
#######################################################################

data_MELYIM
_symmetry_cell_setting           triclinic
_symmetry_space_group_name_H-M   'P -1'
_symmetry_Int_Tables_number      2
_space_group_name_Hall           '-P 1'
loop_
_symmetry_equiv_pos_site_id
_symmetry_equiv_pos_as_xyz
1 x,y,z
2 -x,-y,-z
_cell_length_a                   7.8698(11)
_cell_length_b                   8.8455(14)
_cell_length_c                   11.0814(12)
_cell_angle_alpha                106.727(4)
_cell_angle_beta                 91.021(4)
_cell_angle_gamma                107.385(5)
_cell_volume                     700.451
loop_
_atom_site_label
_atom_site_type_symbol
_atom_site_fract_x
_atom_site_fract_y
_atom_site_fract_z
Cd1 Cd 1.0000 0.0000 0.0000
Cl1 Cl 0.66093(6) -0.18979(6) -0.06304(5)
N1 N 0.9130(2) 0.1504(2) 0.18585(14)
N2 N 0.7722(2) 0.2881(2) 0.32333(14)
N3 N 0.7658(2) 0.3209(2) 0.85020(14)
N4 N 0.9280(2) 0.1765(2) 0.89648(15)
C1 C 0.7715(2) 0.2018(2) 0.20193(17)
H1 H 0.6808 0.1804 0.1359
C2 C 1.0060(3) 0.2051(3) 0.30336(19)
H2 H 1.1151 0.1868 0.3220
C3 C 0.9212(3) 0.2892(3) 0.38939(18)
H3 H 0.9575 0.3390 0.4778
C4 C 0.6377(3) 0.3663(3) 0.37486(18)
H4 H 0.5477 0.3505 0.3049
H5 H 0.6967 0.4875 0.4142
C5 C 0.5448(2) 0.2930(2) 0.47230(17)
C6 C 0.3974(3) 0.1514(3) 0.4351(2)
H6 H 0.3542 0.1003 0.3477
C7 C 0.3124(3) 0.0838(3) 0.5239(3)
H7 H 0.2085 -0.0116 0.4976
C8 C 0.3774(3) 0.1538(3) 0.6512(2)
H8 H 0.3187 0.1056 0.7117
C9 C 0.5279(3) 0.2939(2) 0.69052(18)
C10 C 0.6085(2) 0.3642(2) 0.60029(17)
H9 H 0.7089 0.4627 0.6266
C11 C 0.6065(3) 0.3678(3) 0.82744(18)
H10 H 0.6399 0.4906 0.8517
H11 H 0.5151 0.3288 0.8814
C12 C 0.7661(3) 0.1888(2) 0.88664(17)
H12 H 0.6619 0.1132 0.9033
C13 C 0.9386(3) 0.3971(3) 0.8350(2)
H13 H 0.9816 0.4941 0.8093
C14 C 1.0369(3) 0.3076(3) 0.8635(2)
H14 H 1.1626 0.3320 0.8611
Cd1_2 Cd 1.0000 0.0000 1.0000
Cd1_3 Cd 1.0000 0.0000 -1.0000
Cl1A Cl 1.33907(6) 0.18979(6) 0.06304(5)
N1A N 1.0870(2) -0.1504(2) -0.18585(14)
N2A N 1.2278(2) -0.2881(2) -0.32333(14)
N3A N 1.2342(2) -0.3209(2) -0.85020(14)
N4A N 1.0720(2) -0.1765(2) -0.89648(15)
N4_2 N 0.9280(2) 0.1765(2) -0.10352(15)
N4A_2 N 1.0720(2) -0.1765(2) 0.10352(15)
C1A C 1.2285(2) -0.2018(2) -0.20193(17)
H1A H 1.3192 -0.1804 -0.1359
C2A C 0.9940(3) -0.2051(3) -0.30336(19)
H2A H 0.8849 -0.1868 -0.3220
C3A C 1.0788(3) -0.2892(3) -0.38939(18)
H3A H 1.0425 -0.3390 -0.4778
C4A C 1.3623(3) -0.3663(3) -0.37486(18)
H4A H 1.4523 -0.3505 -0.3049
H5A H 1.3033 -0.4875 -0.4142
C5A C 1.4552(2) -0.2930(2) -0.47230(17)
C6A C 1.6026(3) -0.1514(3) -0.4351(2)
H6A H 1.6458 -0.1003 -0.3477
C7A C 1.6876(3) -0.0838(3) -0.5239(3)
H7A H 1.7915 0.0116 -0.4976
C8A C 1.6226(3) -0.1538(3) -0.6512(2)
H8A H 1.6813 -0.1056 -0.7117
C9A C 1.4721(3) -0.2939(2) -0.69052(18)
C10A C 1.3915(2) -0.3642(2) -0.60029(17)
H9A H 1.2911 -0.4627 -0.6266
C11A C 1.3935(3) -0.3678(3) -0.82744(18)
H10A H 1.3601 -0.4906 -0.8517
H11A H 1.4849 -0.3288 -0.8814
C12A C 1.2339(3) -0.1888(2) -0.88664(17)
H12A H 1.3381 -0.1132 -0.9033
C13A C 1.0614(3) -0.3971(3) -0.8350(2)
H13A H 1.0184 -0.4941 -0.8093
C14A C 0.9631(3) -0.3076(3) -0.8635(2)
H14A H 0.8374 -0.3320 -0.8611
loop_
_geom_bond_atom_site_label_1
_geom_bond_atom_site_label_2
_geom_bond_site_symmetry_1
_geom_bond_site_symmetry_2
Cd1 Cl1 1_555 1_555
N1 Cd1 1_555 1_555
N2 C1 1_555 1_555
N3 C11 1_555 1_555
N4 C12 1_555 1_555
C1 N1 1_555 1_555
H1 C1 1_555 1_555
C2 N1 1_555 1_555
H2 C2 1_555 1_555
C3 N2 1_555 1_555
H3 C3 1_555 1_555
C4 N2 1_555 1_555
H4 C4 1_555 1_555
H5 C4 1_555 1_555
C5 C4 1_555 1_555
C6 C5 1_555 1_555
H6 C6 1_555 1_555
C7 C6 1_555 1_555
H7 C7 1_555 1_555
C8 C7 1_555 1_555
H8 C8 1_555 1_555
C9 C8 1_555 1_555
C10 C5 1_555 1_555
H9 C10 1_555 1_555
C11 C9 1_555 1_555
H10 C11 1_555 1_555
H11 C11 1_555 1_555
C12 N3 1_555 1_555
H12 C12 1_555 1_555
C13 N3 1_555 1_555
H13 C13 1_555 1_555
C14 N4 1_555 1_555
H14 C14 1_555 1_555
Cd1_2 N4 1_555 1_555
Cd1_3 N4A 1_555 1_555
Cl1A Cd1 1_555 1_555
N1A Cd1 1_555 1_555
N2A C1A 1_555 1_555
N3A C11A 1_555 1_555
N4A C12A 1_555 1_555
N4_2 Cd1 1_555 1_555
N4A_2 Cd1 1_555 1_555
C1A N1A 1_555 1_555
H1A C1A 1_555 1_555
C2A N1A 1_555 1_555
H2A C2A 1_555 1_555
C3A N2A 1_555 1_555
H3A C3A 1_555 1_555
C4A N2A 1_555 1_555
H4A C4A 1_555 1_555
H5A C4A 1_555 1_555
C5A C4A 1_555 1_555
C6A C5A 1_555 1_555
H6A C6A 1_555 1_555
C7A C6A 1_555 1_555
H7A C7A 1_555 1_555
C8A C7A 1_555 1_555
H8A C8A 1_555 1_555
C9A C8A 1_555 1_555
C10A C5A 1_555 1_555
H9A C10A 1_555 1_555
C11A C9A 1_555 1_555
H10A C11A 1_555 1_555
H11A C11A 1_555 1_555
C12A N3A 1_555 1_555
H12A C12A 1_555 1_555
C13A N3A 1_555 1_555
H13A C13A 1_555 1_555
C14A N4A 1_555 1_555
H14A C14A 1_555 1_555
C2 C3 1_555 1_555
C9 C10 1_555 1_555
C13 C14 1_555 1_555
C2A C3A 1_555 1_555
C9A C10A 1_555 1_555
C13A C14A 1_555 1_555

#END
