
#######################################################################
#
#                 Cambridge Crystallographic Data Centre
#                                CCDC 
#
#######################################################################
#
# If this CIF has been generated from an entry in the Cambridge 
# Structural Database, then it will include bibliographic, chemical, 
# crystal, experimental, refinement or atomic coordinate data resulting 
# from the CCDC's data processing and validation procedures.
#
#######################################################################

data_MELZOT
_symmetry_cell_setting           monoclinic
_symmetry_space_group_name_H-M   'P 21/n'
_symmetry_Int_Tables_number      14
_space_group_name_Hall           '-P 2yn'
loop_
_symmetry_equiv_pos_site_id
_symmetry_equiv_pos_as_xyz
1 x,y,z
2 1/2-x,1/2+y,1/2-z
3 -x,-y,-z
4 1/2+x,1/2-y,1/2+z
_cell_length_a                   7.0258(4)
_cell_length_b                   24.3784(10)
_cell_length_c                   8.4301(5)
_cell_angle_alpha                90
_cell_angle_beta                 109.407(5)
_cell_angle_gamma                90
_cell_volume                     1361.85
loop_
_atom_site_label
_atom_site_type_symbol
_atom_site_fract_x
_atom_site_fract_y
_atom_site_fract_z
C1 C 0.5553(3) 0.66287(9) 0.8391(3)
C2 C 0.5858(4) 0.70960(9) 0.9380(3)
H1 H 0.5646 0.7445 0.8910
C3 C 0.6496(4) 0.70154(10) 1.1106(3)
H2 H 0.6711 0.7318 1.1816
C4 C 0.6821(4) 0.64923(10) 1.1798(3)
H3 H 0.7242 0.6451 1.2960
C5 C 0.6528(4) 0.60283(10) 1.0784(3)
H4 H 0.6764 0.5679 1.1248
C6 C 0.5873(3) 0.61054(9) 0.9060(3)
C7 C 0.5466(3) 0.56792(9) 0.7705(3)
C8 C 0.1358(3) 0.56675(10) -0.0093(3)
H5 H 0.1468 0.5287 -0.0029
C9 C 0.0555(3) 0.59085(9) -0.1670(3)
C10 C 0.0354(4) 0.64753(10) -0.1766(3)
H6 H -0.0173 0.6649 -0.2804
C11 C 0.0949(4) 0.67783(9) -0.0295(3)
H7 H 0.0803 0.7158 -0.0322
C12 C 0.1769(4) 0.65038(10) 0.1223(3)
H8 H 0.2193 0.6709 0.2208
C13 C 0.0000(3) 0.55361(9) -0.3166(3)
N1 N 0.4966(3) 0.59000(7) 0.6148(2)
N2 N 0.1981(3) 0.59570(8) 0.1338(2)
N3 N -0.0055(3) 0.57547(9) -0.4633(2)
O1 O 0.6079(3) 0.68358(7) 0.5467(2)
O2 O 0.2638(3) 0.67189(6) 0.5454(2)
O3 O 0.5596(3) 0.51834(6) 0.80118(19)
O4 O -0.0363(3) 0.50483(7) -0.3005(2)
S1 S 0.47395(9) 0.65647(2) 0.61822(6)
Ag1 Ag 0.38708(3) 0.547033(7) 0.375271(19)
H9 H -0.017(4) 0.5524(11) -0.548(4)
H10 H 0.048(4) 0.6061(13) -0.460(3)
O3B O 0.4404(3) 0.48166(6) 0.19882(19)
Ag1B Ag 0.61292(3) 0.452967(7) 0.624729(19)
loop_
_geom_bond_atom_site_label_1
_geom_bond_atom_site_label_2
_geom_bond_site_symmetry_1
_geom_bond_site_symmetry_2
C1 C2 1_555 1_555
C2 H1 1_555 1_555
C3 C2 1_555 1_555
H2 C3 1_555 1_555
C4 C3 1_555 1_555
H3 C4 1_555 1_555
C5 C4 1_555 1_555
H4 C5 1_555 1_555
C6 C1 1_555 1_555
C7 C6 1_555 1_555
C8 H5 1_555 1_555
C9 C8 1_555 1_555
C10 C9 1_555 1_555
H6 C10 1_555 1_555
C11 C10 1_555 1_555
H7 C11 1_555 1_555
C12 C11 1_555 1_555
H8 C12 1_555 1_555
C13 C9 1_555 1_555
N1 C7 1_555 1_555
N2 C8 1_555 1_555
N3 C13 1_555 1_555
O1 S1 1_555 1_555
O2 S1 1_555 1_555
O3 C7 1_555 1_555
O4 C13 1_555 1_555
S1 C1 1_555 1_555
Ag1 N1 1_555 1_555
H9 N3 1_555 1_555
H10 N3 1_555 1_555
O3B Ag1 1_555 1_555
Ag1B O3 1_555 1_555
C5 C6 1_555 1_555
C12 N2 1_555 1_555
N1 S1 1_555 1_555
N2 Ag1 1_555 1_555

#END
