
#######################################################################
#
#                 Cambridge Crystallographic Data Centre
#                                CCDC 
#
#######################################################################
#
# If this CIF has been generated from an entry in the Cambridge 
# Structural Database, then it will include bibliographic, chemical, 
# crystal, experimental, refinement or atomic coordinate data resulting 
# from the CCDC's data processing and validation procedures.
#
#######################################################################

data_MELZUZ
_symmetry_cell_setting           triclinic
_symmetry_space_group_name_H-M   'P -1'
_symmetry_Int_Tables_number      2
_space_group_name_Hall           '-P 1'
loop_
_symmetry_equiv_pos_site_id
_symmetry_equiv_pos_as_xyz
1 x,y,z
2 -x,-y,-z
_cell_length_a                   6.0521(12)
_cell_length_b                   9.0182(18)
_cell_length_c                   16.184(3)
_cell_angle_alpha                101.061(4)
_cell_angle_beta                 97.499(4)
_cell_angle_gamma                101.286(4)
_cell_volume                     837.074
loop_
_atom_site_label
_atom_site_type_symbol
_atom_site_fract_x
_atom_site_fract_y
_atom_site_fract_z
Cd1 Cd 0.0000 0.5000 0.0000
Cd2 Cd -0.07142(8) 0.17132(5) 0.32131(3)
N1 N -0.3485(8) 0.3584(6) 0.0054(4)
N2 N 0.1944(9) 0.0821(6) 0.2466(3)
N3 N -0.3257(10) 0.2502(7) 0.4092(4)
N4 N 0.0834(10) 0.5482(6) 0.1545(4)
N5 N 0.0610(9) 0.4184(6) 0.2806(3)
N6 N 0.4039(9) 0.6176(6) 0.2825(4)
N7 N 0.0453(9) 0.6923(5) 0.3019(4)
O1 O -0.1497(9) -0.0580(5) 0.3680(3)
H1 H -0.0298 -0.0950 0.3746
H2 H -0.2638 -0.1366 0.3518
Se1 Se -0.84672(10) 0.21906(7) -0.00918(5)
Se2 Se 0.60984(12) 0.04076(9) 0.17132(5)
Se3 Se -0.74410(11) 0.27447(9) 0.47727(4)
C1 C -0.5433(14) 0.3068(8) 0.0012(4)
C2 C 0.3582(9) 0.0748(7) 0.2188(3)
C3 C -0.4875(11) 0.2513(8) 0.4311(4)
C4 C 0.0056(11) 0.4045(7) 0.1865(4)
H3 H -0.1590 0.3701 0.1690
H4 H 0.0730 0.3239 0.1582
C5 C 0.3125(11) 0.4700(8) 0.3079(5)
H5 H 0.3848 0.3900 0.2822
H6 H 0.3500 0.4851 0.3695
C6 C 0.2961(10) 0.7373(6) 0.3202(4)
H7 H 0.3462 0.8296 0.2989
H8 H 0.3466 0.7634 0.3817
C7 C -0.0233(10) 0.6708(7) 0.2077(3)
H9 H 0.0233 0.7695 0.1922
H10 H -0.1888 0.6387 0.1929
C8 C -0.0277(11) 0.5483(7) 0.3254(4)
H11 H -0.1936 0.5195 0.3136
H12 H 0.0207 0.5628 0.3865
C9 C 0.3283(12) 0.5942(8) 0.1909(4)
H13 H 0.4000 0.5160 0.1627
H14 H 0.3900 0.6901 0.1748
Cd1_2 Cd -1.0000 0.5000 0.0000
Cd1_3 Cd 1.0000 0.5000 0.0000
Cd2A Cd 0.07142(8) 0.82868(5) -0.32131(3)
Cd2_2 Cd 0.92858(8) 0.17132(5) 0.32131(3)
Cd2_3 Cd -1.07142(8) 0.17132(5) 0.32131(3)
N1A N 0.3485(8) 0.6416(6) -0.0054(4)
N2_2 N -0.8056(9) 0.0821(6) 0.2466(3)
N2A N -0.1944(9) 0.9179(6) -0.2466(3)
N3_2 N 0.6743(10) 0.2502(7) 0.4092(4)
N3A N 0.3257(10) 0.7498(7) -0.4092(4)
N4A N -0.0834(10) 0.4518(6) -0.1545(4)
N5A N -0.0610(9) 0.5816(6) -0.2806(3)
N6A N -0.4039(9) 0.3824(6) -0.2825(4)
N7A N -0.0453(9) 0.3077(5) -0.3019(4)
O1A O 0.1497(9) 1.0580(5) -0.3680(3)
H1A H 0.0298 1.0950 -0.3746
H2A H 0.2638 1.1366 -0.3518
Se1A Se 0.84672(10) 0.78094(7) 0.00918(5)
Se1_2 Se 0.15328(10) 0.21906(7) -0.00918(5)
Se1A_2 Se -0.15328(10) 0.78094(7) 0.00918(5)
Se2_2 Se -0.39016(12) 0.04076(9) 0.17132(5)
Se2A Se 0.39016(12) 0.95924(9) -0.17132(5)
Se3_2 Se 0.25590(11) 0.27447(9) 0.47727(4)
Se3A Se -0.25590(11) 0.72553(9) -0.47727(4)
C1A C 0.5433(14) 0.6932(8) -0.0012(4)
C2_2 C -0.6418(9) 0.0748(7) 0.2188(3)
C3_2 C 0.5125(11) 0.2513(8) 0.4311(4)
C4A C -0.0056(11) 0.5955(7) -0.1865(4)
H3A H 0.1590 0.6299 -0.1690
H4A H -0.0730 0.6761 -0.1582
C5A C -0.3125(11) 0.5300(8) -0.3079(5)
H5A H -0.3848 0.6100 -0.2822
H6A H -0.3500 0.5149 -0.3695
C6A C -0.2961(10) 0.2627(6) -0.3202(4)
H7A H -0.3462 0.1704 -0.2989
H8A H -0.3466 0.2366 -0.3817
C7A C 0.0233(10) 0.3292(7) -0.2077(3)
H9A H -0.0233 0.2305 -0.1922
H10A H 0.1888 0.3613 -0.1929
C8A C 0.0277(11) 0.4517(7) -0.3254(4)
H11A H 0.1936 0.4805 -0.3136
H12A H -0.0207 0.4372 -0.3865
C9A C -0.3283(12) 0.4058(8) -0.1909(4)
H13A H -0.4000 0.4840 -0.1627
H14A H -0.3900 0.3099 -0.1748
loop_
_geom_bond_atom_site_label_1
_geom_bond_atom_site_label_2
_geom_bond_site_symmetry_1
_geom_bond_site_symmetry_2
Cd1 N1 1_555 1_555
Cd2 N2 1_555 1_555
N1 C1 1_555 1_555
N2 C2 1_555 1_555
N3 Cd2 1_555 1_555
N4 Cd1 1_555 1_555
N5 Cd2 1_555 1_555
N6 C5 1_555 1_555
N7 C6 1_555 1_555
O1 Cd2 1_555 1_555
H1 O1 1_555 1_555
H2 O1 1_555 1_555
Se1 C1 1_555 1_555
Se2 C2 1_555 1_555
Se3 C3 1_555 1_555
C3 N3 1_555 1_555
C4 N4 1_555 1_555
H3 C4 1_555 1_555
H4 C4 1_555 1_555
C5 N5 1_555 1_555
H5 C5 1_555 1_555
H6 C5 1_555 1_555
C6 N6 1_555 1_555
H7 C6 1_555 1_555
H8 C6 1_555 1_555
C7 N4 1_555 1_555
H9 C7 1_555 1_555
H10 C7 1_555 1_555
C8 N5 1_555 1_555
H11 C8 1_555 1_555
H12 C8 1_555 1_555
C9 N4 1_555 1_555
H13 C9 1_555 1_555
H14 C9 1_555 1_555
Cd1_2 Se1 1_555 1_555
Cd1_3 Se1A 1_555 1_555
Cd2A N2A 1_555 1_555
Cd2_2 Se2 1_555 1_555
Cd2_3 Se3 1_555 1_555
N1A Cd1 1_555 1_555
N2_2 Cd2_3 1_555 1_555
N3_2 Cd2_2 1_555 1_555
N3A Cd2A 1_555 1_555
N4A Cd1 1_555 1_555
N5A Cd2A 1_555 1_555
N6A C5A 1_555 1_555
N7A C6A 1_555 1_555
O1A Cd2A 1_555 1_555
H1A O1A 1_555 1_555
H2A O1A 1_555 1_555
Se1A C1A 1_555 1_555
Se1_2 Cd1 1_555 1_555
Se1A_2 Cd1 1_555 1_555
Se2_2 Cd2 1_555 1_555
Se2A Cd2A 1_555 1_555
Se3_2 Cd2 1_555 1_555
Se3A Cd2A 1_555 1_555
C1A N1A 1_555 1_555
C2_2 N2_2 1_555 1_555
C3_2 N3_2 1_555 1_555
C4A N4A 1_555 1_555
H3A C4A 1_555 1_555
H4A C4A 1_555 1_555
C5A N5A 1_555 1_555
H5A C5A 1_555 1_555
H6A C5A 1_555 1_555
C6A N6A 1_555 1_555
H7A C6A 1_555 1_555
H8A C6A 1_555 1_555
C7A N4A 1_555 1_555
H9A C7A 1_555 1_555
H10A C7A 1_555 1_555
C8A N5A 1_555 1_555
H11A C8A 1_555 1_555
H12A C8A 1_555 1_555
C9A N4A 1_555 1_555
H13A C9A 1_555 1_555
H14A C9A 1_555 1_555
N5 C4 1_555 1_555
N6 C9 1_555 1_555
N7 C7 1_555 1_555
N7 C8 1_555 1_555
N5A C4A 1_555 1_555
N6A C9A 1_555 1_555
N7A C7A 1_555 1_555
N7A C8A 1_555 1_555
Se2_2 C2_2 1_555 1_555
Se3_2 C3_2 1_555 1_555

#END
