
#######################################################################
#
#                 Cambridge Crystallographic Data Centre
#                                CCDC 
#
#######################################################################
#
# If this CIF has been generated from an entry in the Cambridge 
# Structural Database, then it will include bibliographic, chemical, 
# crystal, experimental, refinement or atomic coordinate data resulting 
# from the CCDC's data processing and validation procedures.
#
#######################################################################

data_MEMGAN
_symmetry_cell_setting           orthorhombic
_symmetry_space_group_name_H-M   'C c 2 m'
_symmetry_Int_Tables_number      40
_space_group_name_Hall           'C -2c -2c'
loop_
_symmetry_equiv_pos_site_id
_symmetry_equiv_pos_as_xyz
1 x,y,z
2 x,y,1/2-z
3 -x,y,1/2+z
4 -x,y,-z
5 1/2+x,1/2+y,z
6 1/2+x,1/2+y,1/2-z
7 1/2-x,1/2+y,1/2+z
8 1/2-x,1/2+y,-z
_cell_length_a                   8.8871(14)
_cell_length_b                   11.4931(19)
_cell_length_c                   16.457(3)
_cell_angle_alpha                90
_cell_angle_beta                 90
_cell_angle_gamma                90
_cell_volume                     1680.92
loop_
_atom_site_label
_atom_site_type_symbol
_atom_site_fract_x
_atom_site_fract_y
_atom_site_fract_z
Cu1 Cu 0.0000 0.00191(17) 0.0000
O1 O 0.0156(4) -0.1149(5) 0.0892(3)
O2 O 0.2541(4) -0.1165(4) 0.0492(3)
O3 O 0.4711(5) -0.3845(5) 0.0865(3)
O4 O 0.2306(4) -0.3842(4) 0.0507(3)
C1 C 0.1482(5) -0.1543(5) 0.25000(19)
H6 H 0.0856 -0.0894 0.2500
C2 C 0.1959(6) -0.2038(6) 0.1749(4)
C3 C 0.2947(6) -0.2987(6) 0.1777(4)
C4 C 0.3407(7) -0.3410(7) 0.2500
H7 H 0.4081 -0.4029 0.2500
C5 C 0.1545(7) -0.1430(6) 0.0985(4)
C6 C 0.3342(7) -0.3598(6) 0.0976(4)
Cu1D Cu 0.5000 -0.49809(17) 0.0000
Cu1E Cu 0.5000 -0.49809(17) 0.5000
Cu1A Cu 0.0000 0.00191(17) 0.5000
O1A O 0.0156(4) -0.1149(5) 0.4108(3)
O1C O -0.0156(4) -0.1149(5) -0.0892(3)
O2A O 0.2541(4) -0.1165(4) 0.4508(3)
O3A O 0.4711(5) -0.3845(5) 0.4135(3)
O3D O -0.0289(5) 0.1155(5) 0.0865(3)
O3G O 0.0289(5) 0.1155(5) -0.0865(3)
O4A O 0.2306(4) -0.3842(4) 0.4493(3)
C2A C 0.1959(6) -0.2038(6) 0.3251(4)
C3A C 0.2947(6) -0.2987(6) 0.3223(4)
C5A C 0.1545(7) -0.1430(6) 0.4015(4)
C6A C 0.3342(7) -0.3598(6) 0.4024(4)
O5 O 0.5513(3) 0.9154(4) 0.3903(2)
H1 H 0.4577 0.9052 0.3777
H2 H 0.5615 0.9720 0.4182
N1 N -0.2694(5) 0.2359(5) -0.10014(19)
H3 H -0.2601 0.1904 -0.0567
H4 H -0.3505 0.2806 -0.0947
H5 H -0.1881 0.2806 -0.1048
C7 C -0.2652(10) 0.2303(9) -0.2500
H8 H -0.3367 0.2941 -0.2500
H9 H -0.1649 0.2636 -0.2500
C8 C -0.2855(5) 0.1618(5) -0.1748(3)
H10 H -0.2113 0.0999 -0.1733
H11 H -0.3845 0.1263 -0.1752
N1A N -0.2694(5) 0.2359(5) -0.39986(19)
H3A H -0.2601 0.1904 -0.4433
H4A H -0.3505 0.2806 -0.4053
H5A H -0.1881 0.2806 -0.3952
C8A C -0.2855(5) 0.1618(5) -0.3252(3)
H10A H -0.2113 0.0999 -0.3267
H11A H -0.3845 0.1263 -0.3248
loop_
_geom_bond_atom_site_label_1
_geom_bond_atom_site_label_2
_geom_bond_site_symmetry_1
_geom_bond_site_symmetry_2
Cu1 O1 1_555 1_555
O1 C5 1_555 1_555
O2 C5 1_555 1_555
O3 C6 1_555 1_555
O4 C6 1_555 1_555
O5 H1 1_555 1_555
H2 O5 1_555 1_555
N1 H3 1_555 1_555
H4 N1 1_555 1_555
H5 N1 1_555 1_555
C1 H6 1_555 1_555
C2 C1 1_555 1_555
C3 C2 1_555 1_555
C4 C3 1_555 1_555
H7 C4 1_555 1_555
C5 C2 1_555 1_555
C6 C3 1_555 1_555
C7 H8 1_555 1_555
H9 C7 1_555 1_555
C8 N1 1_555 1_555
H10 C8 1_555 1_555
H11 C8 1_555 1_555
Cu1D O3 1_555 1_555
Cu1E O3A 1_555 1_555
Cu1A O1A 1_555 1_555
O1A C5A 1_555 1_555
O1C Cu1 1_555 1_555
O2A C5A 1_555 1_555
O3A C6A 1_555 1_555
O3D Cu1 1_555 1_555
O3G Cu1 1_555 1_555
O4A C6A 1_555 1_555
N1A H3A 1_555 1_555
H4A N1A 1_555 1_555
H5A N1A 1_555 1_555
C2A C1 1_555 1_555
C3A C4 1_555 1_555
C5A C2A 1_555 1_555
C6A C3A 1_555 1_555
C8A C7 1_555 1_555
H10A C8A 1_555 1_555
H11A C8A 1_555 1_555
C7 C8 1_555 1_555
N1A C8A 1_555 1_555
C2A C3A 1_555 1_555

#END
