
#######################################################################
#
#                 Cambridge Crystallographic Data Centre
#                                CCDC 
#
#######################################################################
#
# If this CIF has been generated from an entry in the Cambridge 
# Structural Database, then it will include bibliographic, chemical, 
# crystal, experimental, refinement or atomic coordinate data resulting 
# from the CCDC's data processing and validation procedures.
#
#######################################################################

data_MEMHER
_symmetry_cell_setting           orthorhombic
_symmetry_space_group_name_H-M   'P b c a'
_symmetry_Int_Tables_number      61
_space_group_name_Hall           '-P 2ac 2ab'
loop_
_symmetry_equiv_pos_site_id
_symmetry_equiv_pos_as_xyz
1 x,y,z
2 1/2+x,y,1/2-z
3 1/2-x,1/2+y,z
4 x,1/2-y,1/2+z
5 -x,-y,-z
6 1/2-x,-y,1/2+z
7 1/2+x,1/2-y,-z
8 -x,1/2+y,1/2-z
_cell_length_a                   11.938(5)
_cell_length_b                   26.044(5)
_cell_length_c                   13.645(5)
_cell_angle_alpha                90
_cell_angle_beta                 90
_cell_angle_gamma                90
_cell_volume                     4242.41
loop_
_atom_site_label
_atom_site_type_symbol
_atom_site_fract_x
_atom_site_fract_y
_atom_site_fract_z
Mn1 Mn -0.46691(4) 0.116180(17) -0.27740(3)
N1 N -0.5575(2) 0.07087(10) -0.39561(18)
N2 N -0.7140(2) 0.11383(11) -0.20336(19)
N3 N -0.5069(2) 0.03478(11) -0.2240(2)
N4 N -0.6391(2) 0.14149(12) -0.2216(2)
N5 N -0.4910(2) 0.16542(10) -0.4143(2)
C1 C -0.5885(3) 0.02246(12) -0.3785(2)
C2 C -0.5627(3) 0.00338(12) -0.2769(2)
C3 C -0.5777(3) 0.09288(13) -0.4824(2)
N6 N -0.3859(3) 0.19540(10) -0.2433(2)
N7 N -0.4308(3) 0.11422(12) -0.1109(2)
C4 C -0.6410(3) -0.00692(14) -0.4513(3)
H1 H -0.6631 -0.0405 -0.4389
C5 C -0.6589(3) 0.01503(15) -0.5410(3)
H2 H -0.6918 -0.0041 -0.5909
N8 N -0.7906(2) 0.08730(13) -0.1862(3)
C6 C -0.4810(4) 0.02368(17) -0.1213(3)
H3 H -0.558(5) 0.0277(19) -0.085(3)
H4 H -0.449(4) -0.006(2) -0.116(3)
C7 C -0.6283(3) 0.06532(15) -0.5578(3)
H5 H -0.6414 0.0806 -0.6184
C8 C -0.5409(3) 0.14779(13) -0.4895(2)
C9 C -0.3540(3) 0.15560(16) -0.0839(3)
H6 H -0.350(3) 0.1610(15) -0.006(3)
H7 H -0.273(5) 0.145(2) -0.112(4)
C10 C -0.3981(4) 0.06218(16) -0.0840(3)
H8 H -0.391(4) 0.0604(18) -0.015(4)
H9 H -0.321(5) 0.052(2) -0.123(4)
C11 C -0.4428(4) 0.23425(14) -0.3007(3)
H10 H -0.531(5) 0.239(2) -0.274(4)
H11 H -0.401(4) 0.268(2) -0.301(3)
C12 C -0.3854(4) 0.20381(16) -0.1369(3)
H12 H -0.464(4) 0.2119(16) -0.117(3)
H13 H -0.334(5) 0.2351(19) -0.118(3)
C13 C -0.4476(4) 0.21797(14) -0.4084(3)
H14 H -0.373(4) 0.2142(19) -0.442(4)
H15 H -0.492(4) 0.2382(19) -0.442(4)
C14 C -0.5638(5) 0.17721(17) -0.5820(3)
H16 H -0.5356 0.2116 -0.5754
H17 H -0.6431 0.1783 -0.5936
H18 H -0.5273 0.1606 -0.6361
C15 C -0.6039(5) -0.04797(16) -0.2452(4)
H19 H -0.5807 -0.0543 -0.1790
H20 H -0.5733 -0.0739 -0.2874
H21 H -0.6842 -0.0488 -0.2489
N8A N -0.2906(2) 0.08730(13) -0.3138(3)
Mn1A Mn -0.96691(4) 0.116180(17) -0.22260(3)
P1 P -0.16276(9) 0.14792(4) -0.61054(8)
F1 F -0.1635(3) 0.10937(15) -0.6994(2)
F2 F -0.2934(2) 0.14121(15) -0.5981(3)
F3 F -0.0317(3) 0.15298(14) -0.6206(3)
F4 F -0.1591(4) 0.18491(17) -0.5198(3)
F5 F -0.1772(4) 0.19536(16) -0.6790(3)
F6 F -0.1443(4) 0.09966(14) -0.5404(3)
loop_
_geom_bond_atom_site_label_1
_geom_bond_atom_site_label_2
_geom_bond_site_symmetry_1
_geom_bond_site_symmetry_2
Mn1 N1 1_555 1_555
P1 F1 1_555 1_555
N1 C1 1_555 1_555
N2 N4 1_555 1_555
N3 Mn1 1_555 1_555
N4 Mn1 1_555 1_555
N5 Mn1 1_555 1_555
C1 C2 1_555 1_555
C2 N3 1_555 1_555
C3 N1 1_555 1_555
N6 Mn1 1_555 1_555
N7 Mn1 1_555 1_555
C4 C1 1_555 1_555
H1 C4 1_555 1_555
C5 C4 1_555 1_555
H2 C5 1_555 1_555
N8 N2 1_555 1_555
C6 N3 1_555 1_555
H3 C6 1_555 1_555
H4 C6 1_555 1_555
C7 C3 1_555 1_555
H5 C7 1_555 1_555
C8 N5 1_555 1_555
C9 N7 1_555 1_555
H6 C9 1_555 1_555
H7 C9 1_555 1_555
C10 N7 1_555 1_555
H8 C10 1_555 1_555
H9 C10 1_555 1_555
C11 N6 1_555 1_555
H10 C11 1_555 1_555
H11 C11 1_555 1_555
C12 N6 1_555 1_555
H12 C12 1_555 1_555
H13 C12 1_555 1_555
C13 N5 1_555 1_555
H14 C13 1_555 1_555
H15 C13 1_555 1_555
C14 C8 1_555 1_555
H16 C14 1_555 1_555
H17 C14 1_555 1_555
H18 C14 1_555 1_555
F2 P1 1_555 1_555
F3 P1 1_555 1_555
F4 P1 1_555 1_555
F5 P1 1_555 1_555
C15 C2 1_555 1_555
H19 C15 1_555 1_555
H20 C15 1_555 1_555
H21 C15 1_555 1_555
F6 P1 1_555 1_555
N8A Mn1 1_555 1_555
Mn1A N8 1_555 1_555
C3 C8 1_555 1_555
C5 C7 1_555 1_555
C6 C10 1_555 1_555
C9 C12 1_555 1_555
C11 C13 1_555 1_555

#END
