
#######################################################################
#
#                 Cambridge Crystallographic Data Centre
#                                CCDC 
#
#######################################################################
#
# If this CIF has been generated from an entry in the Cambridge 
# Structural Database, then it will include bibliographic, chemical, 
# crystal, experimental, refinement or atomic coordinate data resulting 
# from the CCDC's data processing and validation procedures.
#
#######################################################################

data_MEMYOS
_symmetry_cell_setting           monoclinic
_symmetry_space_group_name_H-M   'P 21/n'
_symmetry_Int_Tables_number      14
_space_group_name_Hall           '-P 2yn'
loop_
_symmetry_equiv_pos_site_id
_symmetry_equiv_pos_as_xyz
1 x,y,z
2 1/2-x,1/2+y,1/2-z
3 -x,-y,-z
4 1/2+x,1/2-y,1/2+z
_cell_length_a                   11.161(5)
_cell_length_b                   11.94(1)
_cell_length_c                   15.513(8)
_cell_angle_alpha                90
_cell_angle_beta                 97.07(4)
_cell_angle_gamma                90
_cell_volume                     2051.58
loop_
_atom_site_label
_atom_site_type_symbol
_atom_site_fract_x
_atom_site_fract_y
_atom_site_fract_z
Cu1 Cu 0.14022(3) 0.00330(3) 0.15283(2)
O1 O 0.0836(2) -0.1426(2) 0.1807(1)
O2 O 0.0890(2) 0.0472(2) 0.2615(1)
O4 O 0.1398(2) 0.4383(2) 0.3005(1)
O5 O 0.0681(2) -0.3775(2) -0.0655(1)
N1 N 0.1571(2) -0.0362(2) 0.0319(1)
N2 N 0.1894(2) 0.1537(2) 0.1255(2)
N3 N 0.0700(2) 0.2954(2) 0.3784(2)
N4 N 0.0309(3) -0.3988(2) 0.0745(2)
C1 C 0.0425(2) 0.1758(3) 0.3710(2)
C2 C 0.0341(3) -0.3341(3) 0.1524(2)
C3 C 0.0746(3) -0.2226(3) 0.1266(2)
C4 C 0.0916(2) 0.1482(2) 0.2869(2)
C5 C 0.0954(2) -0.2246(2) 0.0404(2)
C6 C 0.1328(2) 0.2433(2) 0.2499(2)
C7 C 0.0655(3) -0.3382(3) 0.0080(2)
C8 C 0.1166(2) 0.3372(3) 0.3083(2)
C9 C 0.1837(2) 0.2459(2) 0.1683(2)
C10 C 0.1336(2) -0.1312(3) -0.0073(2)
C11 C 0.1900(3) 0.0622(3) -0.0161(2)
C12 C 0.2496(3) 0.1495(3) 0.0459(2)
C13 C 0.1064(3) 0.1081(3) 0.4459(2)
C14 C -0.0938(3) 0.1556(3) 0.3608(2)
C15 C 0.0398(3) 0.3616(3) 0.4497(2)
C16 C 0.1460(3) -0.1458(3) -0.1018(2)
C17 C 0.2287(3) 0.3540(3) 0.1372(2)
H1 H 0.002(3) -0.466(3) 0.075(2)
H2 H 0.090(4) -0.368(4) 0.191(3)
H4 H -0.033(3) -0.326(3) 0.166(2)
H10 H 0.246(3) 0.045(3) -0.056(2)
H11 H 0.253(3) 0.222(3) 0.018(2)
H12 H 0.335(3) 0.127(3) 0.062(2)
H13 H 0.120(3) 0.095(3) -0.050(2)
H14 H 0.089(3) 0.025(3) 0.434(2)
H15 H 0.187(3) 0.122(3) 0.452(2)
H16 H 0.085(3) 0.126(3) 0.498(2)
H17 H -0.134(3) 0.208(3) 0.317(2)
H18 H -0.124(3) 0.175(3) 0.414(2)
H19 H -0.107(3) 0.078(3) 0.344(2)
H20 H 0.083(3) 0.422(3) 0.452(2)
H21 H 0.051(4) 0.326(4) 0.499(3)
H22 H -0.047(4) 0.384(4) 0.432(3)
H23 H 0.198(3) 0.372(3) 0.080(2)
H24 H 0.128(3) -0.081(3) -0.132(2)
H25 H 0.092(4) -0.211(4) -0.123(3)
H26 H 0.307(3) 0.351(3) 0.134(2)
H27 H 0.228(4) -0.153(4) -0.112(3)
H28 H 0.216(3) 0.418(3) 0.171(2)
O4A O 0.3602(2) -0.0617(2) 0.1995(1)
Cu1A Cu 0.35978(3) 0.50330(3) 0.34717(2)
O3 O 0.5790(3) 0.0648(3) 0.1745(2)
H3 H 0.529(3) 0.046(3) 0.177(3)
H5 H 0.578(4) 0.132(4) 0.179(3)
O6 O 0.0668(3) 0.1958(3) 0.6800(2)
H6 H 0.120(4) 0.205(4) 0.725(3)
H7 H 0.092(5) 0.148(5) 0.687(3)
O7 O 0.2923(3) 0.0877(4) 0.7061(2)
H8 H 0.312(4) 0.085(4) 0.677(3)
H9 H 0.344(5) 0.031(5) 0.758(4)
loop_
_geom_bond_atom_site_label_1
_geom_bond_atom_site_label_2
_geom_bond_site_symmetry_1
_geom_bond_site_symmetry_2
Cu1 O1 1_555 1_555
O1 C3 1_555 1_555
O2 Cu1 1_555 1_555
O3 H3 1_555 1_555
O4 C8 1_555 1_555
O5 C7 1_555 1_555
O6 H6 1_555 1_555
O7 H8 1_555 1_555
N1 Cu1 1_555 1_555
N2 Cu1 1_555 1_555
N3 C1 1_555 1_555
N4 C2 1_555 1_555
C1 C4 1_555 1_555
C2 C3 1_555 1_555
C3 C5 1_555 1_555
C4 O2 1_555 1_555
C5 C7 1_555 1_555
C6 C4 1_555 1_555
C7 N4 1_555 1_555
C8 N3 1_555 1_555
C9 N2 1_555 1_555
C10 N1 1_555 1_555
C11 N1 1_555 1_555
C12 N2 1_555 1_555
C13 C1 1_555 1_555
C14 C1 1_555 1_555
C15 N3 1_555 1_555
C16 C10 1_555 1_555
C17 C9 1_555 1_555
H1 N4 1_555 1_555
H2 C2 1_555 1_555
H4 C2 1_555 1_555
H5 O3 1_555 1_555
H7 O6 1_555 1_555
H9 O7 1_555 1_555
H10 C11 1_555 1_555
H11 C12 1_555 1_555
H12 C12 1_555 1_555
H13 C11 1_555 1_555
H14 C13 1_555 1_555
H15 C13 1_555 1_555
H16 C13 1_555 1_555
H17 C14 1_555 1_555
H18 C14 1_555 1_555
H19 C14 1_555 1_555
H20 C15 1_555 1_555
H21 C15 1_555 1_555
H22 C15 1_555 1_555
H23 C17 1_555 1_555
H24 C16 1_555 1_555
H25 C16 1_555 1_555
H26 C17 1_555 1_555
H27 C16 1_555 1_555
H28 C17 1_555 1_555
O4A Cu1 1_555 1_555
Cu1A O4 1_555 1_555
C5 C10 1_555 1_555
C6 C9 1_555 1_555
C6 C8 1_555 1_555
C11 C12 1_555 1_555

#END
