
#######################################################################
#
#                 Cambridge Crystallographic Data Centre
#                                CCDC 
#
#######################################################################
#
# If this CIF has been generated from an entry in the Cambridge 
# Structural Database, then it will include bibliographic, chemical, 
# crystal, experimental, refinement or atomic coordinate data resulting 
# from the CCDC's data processing and validation procedures.
#
#######################################################################

data_MENBOX09
_symmetry_cell_setting           triclinic
_symmetry_space_group_name_H-M   'P -1'
_symmetry_Int_Tables_number      2
_space_group_name_Hall           '-P 1'
loop_
_symmetry_equiv_pos_site_id
_symmetry_equiv_pos_as_xyz
1 x,y,z
2 -x,-y,-z
_cell_length_a                   6.6643(8)
_cell_length_b                   9.6222(11)
_cell_length_c                   10.0889(11)
_cell_angle_alpha                112.675(2)
_cell_angle_beta                 94.0070(10)
_cell_angle_gamma                106.411(2)
_cell_volume                     560.823
loop_
_atom_site_label
_atom_site_type_symbol
_atom_site_fract_x
_atom_site_fract_y
_atom_site_fract_z
Ni1 Ni 0.08473(15) -0.36276(10) -0.23382(9)
Ni2 Ni 0.0000 0.0000 0.0000
O1 O 0.0994(8) -0.2153(5) -0.3368(5)
O2 O 0.2124(8) 0.0155(6) -0.1327(5)
O3 O 0.6000(8) 0.5246(6) -0.1568(5)
O4 O 0.7762(8) 0.4823(6) -0.3402(5)
O5 O 0.2400(8) 0.0512(6) -0.8223(5)
O6 O 0.1356(9) -0.1874(6) -0.8140(5)
O7 O 0.1179(11) -0.5114(6) -0.1344(6)
O8 O 0.3957(9) -0.2317(7) -0.1161(6)
O9 O 0.1934(9) -0.5027(7) -0.4048(5)
O10 O -0.0439(8) -0.2397(5) -0.0653(4)
C1 C 0.2611(10) 0.0268(8) -0.3576(7)
C2 C 0.3838(10) 0.1895(8) -0.2836(7)
H1 H 0.4116 0.2400 -0.1817
C3 C 0.4641(11) 0.2751(8) -0.3641(7)
C4 C 0.4116(11) 0.2033(8) -0.5157(7)
H2 H 0.4605 0.2623 -0.5684
C5 C 0.2844(10) 0.0413(8) -0.5901(7)
C6 C 0.2163(10) -0.0463(8) -0.5090(7)
H3 H 0.1399 -0.1552 -0.5577
C7 C 0.1844(10) -0.0640(8) -0.2686(7)
C8 C 0.6219(11) 0.4398(8) -0.2803(7)
C9 C 0.2168(11) -0.0380(9) -0.7536(7)
Ni1A Ni -0.08473(15) 0.36276(10) 0.23382(9)
Ni1_2 Ni 1.08473(15) 0.63724(10) -0.23382(9)
Ni1A_2 Ni -1.08473(15) -0.63724(10) 0.23382(9)
Ni2_2 Ni 0.0000 0.0000 -1.0000
Ni2_3 Ni 0.0000 0.0000 1.0000
O1A O -0.0994(8) 0.2153(5) 0.3368(5)
O2A O -0.2124(8) -0.0155(6) 0.1327(5)
O3A O -0.6000(8) -0.5246(6) 0.1568(5)
O4A O -0.7762(8) -0.4823(6) 0.3402(5)
O4_2 O -0.2238(8) -0.5177(6) -0.3402(5)
O4A_2 O 0.2238(8) 0.5177(6) 0.3402(5)
O5A O -0.2400(8) -0.0512(6) 0.8223(5)
O5_2 O 0.2400(8) 0.0512(6) 0.1777(5)
O5A_2 O -0.2400(8) -0.0512(6) -0.1777(5)
O6A O -0.1356(9) 0.1874(6) 0.8140(5)
O7A O -0.1179(11) 0.5114(6) 0.1344(6)
O8A O -0.3957(9) 0.2317(7) 0.1161(6)
O9A O -0.1934(9) 0.5027(7) 0.4048(5)
O10A O 0.0439(8) 0.2397(5) 0.0653(4)
C1A C -0.2611(10) -0.0268(8) 0.3576(7)
C2A C -0.3838(10) -0.1895(8) 0.2836(7)
H1A H -0.4116 -0.2400 0.1817
C3A C -0.4641(11) -0.2751(8) 0.3641(7)
C4A C -0.4116(11) -0.2033(8) 0.5157(7)
H2A H -0.4605 -0.2623 0.5684
C5A C -0.2844(10) -0.0413(8) 0.5901(7)
C6A C -0.2163(10) 0.0463(8) 0.5090(7)
H3A H -0.1399 0.1552 0.5577
C7A C -0.1844(10) 0.0640(8) 0.2686(7)
C8A C -0.6219(11) -0.4398(8) 0.2803(7)
C9A C -0.2168(11) 0.0380(9) 0.7536(7)
loop_
_geom_bond_atom_site_label_1
_geom_bond_atom_site_label_2
_geom_bond_site_symmetry_1
_geom_bond_site_symmetry_2
Ni1 O1 1_555 1_555
Ni2 O2 1_555 1_555
O1 C7 1_555 1_555
O2 C7 1_555 1_555
O3 C8 1_555 1_555
O4 C8 1_555 1_555
O5 C9 1_555 1_555
O6 C9 1_555 1_555
O7 Ni1 1_555 1_555
O8 Ni1 1_555 1_555
O9 Ni1 1_555 1_555
O10 Ni1 1_555 1_555
C1 C2 1_555 1_555
C2 H1 1_555 1_555
C3 C2 1_555 1_555
C4 C3 1_555 1_555
H2 C4 1_555 1_555
C5 C4 1_555 1_555
C6 C1 1_555 1_555
H3 C6 1_555 1_555
C7 C1 1_555 1_555
C8 C3 1_555 1_555
C9 C5 1_555 1_555
Ni1A O1A 1_555 1_555
Ni1_2 O4 1_555 1_555
Ni1A_2 O4A 1_555 1_555
Ni2_2 O5 1_555 1_555
Ni2_3 O5A 1_555 1_555
O1A C7A 1_555 1_555
O2A Ni2 1_555 1_555
O3A C8A 1_555 1_555
O4A C8A 1_555 1_555
O4_2 Ni1 1_555 1_555
O4A_2 Ni1A 1_555 1_555
O5A C9A 1_555 1_555
O5_2 Ni2 1_555 1_555
O5A_2 Ni2 1_555 1_555
O6A C9A 1_555 1_555
O7A Ni1A 1_555 1_555
O8A Ni1A 1_555 1_555
O9A Ni1A 1_555 1_555
O10A Ni2 1_555 1_555
C1A C2A 1_555 1_555
C2A H1A 1_555 1_555
C3A C2A 1_555 1_555
C4A C3A 1_555 1_555
H2A C4A 1_555 1_555
C5A C4A 1_555 1_555
C6A C1A 1_555 1_555
H3A C6A 1_555 1_555
C7A O2A 1_555 1_555
C8A C3A 1_555 1_555
C9A C5A 1_555 1_555
Ni2 O10 1_555 1_555
C5 C6 1_555 1_555
Ni1A O10A 1_555 1_555
C1A C7A 1_555 1_555
C5A C6A 1_555 1_555

#END
