
#######################################################################
#
#                 Cambridge Crystallographic Data Centre
#                                CCDC 
#
#######################################################################
#
# If this CIF has been generated from an entry in the Cambridge 
# Structural Database, then it will include bibliographic, chemical, 
# crystal, experimental, refinement or atomic coordinate data resulting 
# from the CCDC's data processing and validation procedures.
#
#######################################################################

data_MENBOX03
_symmetry_cell_setting           triclinic
_symmetry_space_group_name_H-M   'P -1'
_symmetry_Int_Tables_number      2
_space_group_name_Hall           '-P 1'
loop_
_symmetry_equiv_pos_site_id
_symmetry_equiv_pos_as_xyz
1 x,y,z
2 -x,-y,-z
_cell_length_a                   10.0453(4)
_cell_length_b                   10.0964(5)
_cell_length_c                   13.1545(6)
_cell_angle_alpha                75.7238(15)
_cell_angle_beta                 68.5836(12)
_cell_angle_gamma                65.4318(12)
_cell_volume                     1122.48
loop_
_atom_site_label
_atom_site_type_symbol
_atom_site_fract_x
_atom_site_fract_y
_atom_site_fract_z
Ni1 Ni 0.0000 0.5000 0.5000
Ni2 Ni -0.15554(5) 0.73160(4) 0.28054(3)
O1 O 0.1120(2) 0.6298(2) 0.3885(2)
O2 O -0.0684(2) 0.8353(2) 0.3407(2)
O3 O -0.0441(2) 1.3137(2) 0.3467(2)
O4 O 0.1327(2) 1.3201(2) 0.4081(2)
O5 O 0.6152(2) 0.8394(2) 0.3601(2)
O6 O 0.5463(2) 0.6559(2) 0.4693(2)
O7 O -0.1540(2) 0.5659(2) 0.4104(2)
O8 O -0.1737(3) 0.9026(2) 0.1552(2)
O9 O -0.2250(3) 0.6308(3) 0.2001(2)
O10 O 0.0574(3) 0.6145(3) 0.1828(2)
C1 C 0.1337(3) 0.8568(3) 0.3806(2)
C2 C 0.0736(3) 1.0090(3) 0.3673(2)
C3 C 0.1505(3) 1.0889(3) 0.3793(2)
C4 C 0.2930(3) 1.0159(3) 0.3982(2)
C5 C 0.3558(3) 0.8631(3) 0.4082(2)
C6 C 0.2746(3) 0.7833(3) 0.4034(2)
C7 C 0.0522(3) 0.7671(3) 0.3696(2)
C8 C 0.0758(3) 1.2527(3) 0.3761(2)
C9 C 0.5166(3) 0.7793(3) 0.4156(2)
H1 H -0.0184 1.0578 0.3502
H2 H 0.3460 1.0690 0.4041
H3 H 0.3134 0.6815 0.4153
H4 H -0.255(6) 0.591(5) 0.443(4)
H5 H -0.113(6) 0.483(6) 0.382(4)
Ni1_2 Ni 0.0000 1.5000 0.5000
Ni1_3 Ni 0.0000 -0.5000 0.5000
Ni2A Ni 0.15554(5) 0.26840(4) 0.71946(3)
Ni2_2 Ni 0.84446(5) 0.73160(4) 0.28054(3)
Ni2A_2 Ni -0.84446(5) 0.26840(4) 0.71946(3)
O1A O -0.1120(2) 0.3702(2) 0.6115(2)
O2A O 0.0684(2) 0.1647(2) 0.6593(2)
O3A O 0.0441(2) -0.3137(2) 0.6533(2)
O4A O -0.1327(2) -0.3201(2) 0.5919(2)
O4_2 O 0.1327(2) 0.3201(2) 0.4081(2)
O4A_2 O -0.1327(2) 0.6799(2) 0.5919(2)
O5A O -0.6152(2) 0.1606(2) 0.6399(2)
O5_2 O -0.3848(2) 0.8394(2) 0.3601(2)
O5A_2 O 0.3848(2) 0.1606(2) 0.6399(2)
O6A O -0.5463(2) 0.3441(2) 0.5307(2)
O7A O 0.1540(2) 0.4341(2) 0.5896(2)
O8A O 0.1737(3) 0.0974(2) 0.8448(2)
O9A O 0.2250(3) 0.3692(3) 0.7999(2)
O10A O -0.0574(3) 0.3855(3) 0.8172(2)
C1A C -0.1337(3) 0.1432(3) 0.6194(2)
C2A C -0.0736(3) -0.0090(3) 0.6327(2)
C3A C -0.1505(3) -0.0889(3) 0.6207(2)
C4A C -0.2930(3) -0.0159(3) 0.6018(2)
C5A C -0.3558(3) 0.1369(3) 0.5918(2)
C6A C -0.2746(3) 0.2167(3) 0.5966(2)
C7A C -0.0522(3) 0.2329(3) 0.6304(2)
C8A C -0.0758(3) -0.2527(3) 0.6239(2)
C9A C -0.5166(3) 0.2207(3) 0.5844(2)
H1A H 0.0184 -0.0578 0.6498
H2A H -0.3460 -0.0690 0.5959
H3A H -0.3134 0.3185 0.5847
H4A H 0.255(6) 0.409(5) 0.557(4)
H5A H 0.113(6) 0.517(6) 0.618(4)
Ni3 Ni 0.5000 0.5000 0.0000
Ni4 Ni 0.62374(5) 0.26363(4) 0.22764(3)
O11 O 0.3852(2) 0.3629(2) 0.0861(2)
O12 O 0.5472(2) 0.1619(2) 0.1566(2)
O13 O 0.5046(3) -0.3158(2) 0.1716(2)
O14 O 0.3409(2) -0.3256(2) 0.0985(2)
O15 O -0.1432(2) 0.1577(2) 0.1535(2)
O16 O -0.0787(2) 0.3443(2) 0.0449(2)
O17 O 0.6287(2) 0.4339(2) 0.10570(19)
O18 O 0.6371(3) 0.0932(2) 0.3525(2)
O19 O 0.6758(3) 0.3628(2) 0.3228(2)
O20 O 0.3989(2) 0.3819(3) 0.3101(2)
C10 C 0.3464(3) 0.1405(3) 0.1149(2)
C11 C 0.4041(3) -0.0114(3) 0.1299(2)
C12 C 0.3231(3) -0.0913(3) 0.1225(2)
C13 C 0.1783(3) -0.0168(3) 0.1077(2)
C14 C 0.1169(3) 0.1350(3) 0.0981(2)
C15 C 0.2025(3) 0.2145(3) 0.0970(2)
C16 C 0.4333(3) 0.2291(3) 0.1190(2)
C17 C 0.3933(3) -0.2551(3) 0.1320(2)
C18 C -0.0463(3) 0.2187(3) 0.0968(2)
H6 H 0.4973 -0.0607 0.1451
H7 H 0.1229 -0.0690 0.1044
H8 H 0.1643 0.3163 0.0845
H9 H 0.746(6) 0.400(6) 0.072(4)
H10 H 0.578(7) 0.530(7) 0.136(5)
Ni3_2 Ni 0.5000 -0.5000 0.0000
Ni3_3 Ni 0.5000 1.5000 0.0000
Ni4A Ni 0.37626(5) 0.73637(4) -0.22764(3)
Ni4_2 Ni -0.37626(5) 0.26363(4) 0.22764(3)
Ni4A_2 Ni 1.37626(5) 0.73637(4) -0.22764(3)
O11A O 0.6148(2) 0.6371(2) -0.0861(2)
O12A O 0.4528(2) 0.8381(2) -0.1566(2)
O13A O 0.4954(3) 1.3158(2) -0.1716(2)
O14A O 0.6591(2) 1.3256(2) -0.0985(2)
O14_2 O 0.3409(2) 0.6744(2) 0.0985(2)
O14A_2 O 0.6591(2) 0.3256(2) -0.0985(2)
O15A O 1.1432(2) 0.8423(2) -0.1535(2)
O15_2 O 0.8568(2) 0.1577(2) 0.1535(2)
O15A_2 O 0.1432(2) 0.8423(2) -0.1535(2)
O16A O 1.0787(2) 0.6557(2) -0.0449(2)
O17A O 0.3713(2) 0.5661(2) -0.10570(19)
O18A O 0.3629(3) 0.9068(2) -0.3525(2)
O19A O 0.3242(3) 0.6372(2) -0.3228(2)
O20A O 0.6011(2) 0.6181(3) -0.3101(2)
C10A C 0.6536(3) 0.8595(3) -0.1149(2)
C11A C 0.5959(3) 1.0114(3) -0.1299(2)
C12A C 0.6769(3) 1.0913(3) -0.1225(2)
C13A C 0.8217(3) 1.0168(3) -0.1077(2)
C14A C 0.8831(3) 0.8650(3) -0.0981(2)
C15A C 0.7975(3) 0.7855(3) -0.0970(2)
C16A C 0.5667(3) 0.7709(3) -0.1190(2)
C17A C 0.6067(3) 1.2551(3) -0.1320(2)
C18A C 1.0463(3) 0.7813(3) -0.0968(2)
H6A H 0.5027 1.0607 -0.1451
H7A H 0.8771 1.0690 -0.1044
H8A H 0.8357 0.6837 -0.0845
H9A H 0.254(6) 0.600(6) -0.072(4)
H10A H 0.422(7) 0.470(7) -0.136(5)
loop_
_geom_bond_atom_site_label_1
_geom_bond_atom_site_label_2
_geom_bond_site_symmetry_1
_geom_bond_site_symmetry_2
Ni1 O1 1_555 1_555
Ni2 O2 1_555 1_555
O1 C7 1_555 1_555
O2 C7 1_555 1_555
O3 C8 1_555 1_555
O4 C8 1_555 1_555
O5 C9 1_555 1_555
O6 C9 1_555 1_555
O7 Ni1 1_555 1_555
O8 Ni2 1_555 1_555
O9 Ni2 1_555 1_555
O10 Ni2 1_555 1_555
C1 C2 1_555 1_555
C2 C3 1_555 1_555
C3 C4 1_555 1_555
C4 C5 1_555 1_555
C5 C6 1_555 1_555
C6 C1 1_555 1_555
C7 C1 1_555 1_555
C8 C3 1_555 1_555
C9 C5 1_555 1_555
H1 C2 1_555 1_555
H2 C4 1_555 1_555
H3 C6 1_555 1_555
H4 O7 1_555 1_555
H5 O7 1_555 1_555
Ni3 O11 1_555 1_555
Ni4 O12 1_555 1_555
O11 C16 1_555 1_555
O12 C16 1_555 1_555
O13 C17 1_555 1_555
O14 C17 1_555 1_555
O15 C18 1_555 1_555
O16 C18 1_555 1_555
O17 Ni3 1_555 1_555
O18 Ni4 1_555 1_555
O19 Ni4 1_555 1_555
O20 Ni4 1_555 1_555
C10 C11 1_555 1_555
C11 C12 1_555 1_555
C12 C13 1_555 1_555
C13 C14 1_555 1_555
C14 C15 1_555 1_555
C15 C10 1_555 1_555
C16 C10 1_555 1_555
C17 C12 1_555 1_555
C18 C14 1_555 1_555
H6 C11 1_555 1_555
H7 C13 1_555 1_555
H8 C15 1_555 1_555
H9 O17 1_555 1_555
H10 O17 1_555 1_555
Ni1_2 O4 1_555 1_555
Ni1_3 O4A 1_555 1_555
Ni2A O2A 1_555 1_555
Ni2_2 O5 1_555 1_555
Ni2A_2 O5A 1_555 1_555
O1A Ni1 1_555 1_555
O2A C7A 1_555 1_555
O3A C8A 1_555 1_555
O4A C8A 1_555 1_555
O4_2 Ni1 1_555 1_555
O4A_2 Ni1 1_555 1_555
O5A C9A 1_555 1_555
O5_2 Ni2 1_555 1_555
O5A_2 Ni2A 1_555 1_555
O6A C9A 1_555 1_555
O7A Ni1 1_555 1_555
O8A Ni2A 1_555 1_555
O9A Ni2A 1_555 1_555
O10A Ni2A 1_555 1_555
C1A C2A 1_555 1_555
C2A C3A 1_555 1_555
C3A C4A 1_555 1_555
C4A C5A 1_555 1_555
C5A C6A 1_555 1_555
C6A C1A 1_555 1_555
C7A O1A 1_555 1_555
C8A C3A 1_555 1_555
C9A C5A 1_555 1_555
H1A C2A 1_555 1_555
H2A C4A 1_555 1_555
H3A C6A 1_555 1_555
H4A O7A 1_555 1_555
H5A O7A 1_555 1_555
Ni3_2 O14 1_555 1_555
Ni3_3 O14A 1_555 1_555
Ni4A O12A 1_555 1_555
Ni4_2 O15 1_555 1_555
Ni4A_2 O15A 1_555 1_555
O11A Ni3 1_555 1_555
O12A C16A 1_555 1_555
O13A C17A 1_555 1_555
O14A C17A 1_555 1_555
O14_2 Ni3 1_555 1_555
O14A_2 Ni3 1_555 1_555
O15A C18A 1_555 1_555
O15_2 Ni4 1_555 1_555
O15A_2 Ni4A 1_555 1_555
O16A C18A 1_555 1_555
O17A Ni3 1_555 1_555
O18A Ni4A 1_555 1_555
O19A Ni4A 1_555 1_555
O20A Ni4A 1_555 1_555
C10A C11A 1_555 1_555
C11A C12A 1_555 1_555
C12A C13A 1_555 1_555
C13A C14A 1_555 1_555
C14A C15A 1_555 1_555
C15A C10A 1_555 1_555
C16A O11A 1_555 1_555
C17A C12A 1_555 1_555
C18A C14A 1_555 1_555
H6A C11A 1_555 1_555
H7A C13A 1_555 1_555
H8A C15A 1_555 1_555
H9A O17A 1_555 1_555
H10A O17A 1_555 1_555
Ni2 O7 1_555 1_555
Ni4 O17 1_555 1_555
Ni2A O7A 1_555 1_555
C1A C7A 1_555 1_555
Ni4A O17A 1_555 1_555
C10A C16A 1_555 1_555

#END
