
#######################################################################
#
#                 Cambridge Crystallographic Data Centre
#                                CCDC 
#
#######################################################################
#
# If this CIF has been generated from an entry in the Cambridge 
# Structural Database, then it will include bibliographic, chemical, 
# crystal, experimental, refinement or atomic coordinate data resulting 
# from the CCDC's data processing and validation procedures.
#
#######################################################################

data_MENBOX04
_symmetry_cell_setting           triclinic
_symmetry_space_group_name_H-M   'P -1'
_symmetry_Int_Tables_number      2
_space_group_name_Hall           '-P 1'
loop_
_symmetry_equiv_pos_site_id
_symmetry_equiv_pos_as_xyz
1 x,y,z
2 -x,-y,-z
_cell_length_a                   10.0508(5)
_cell_length_b                   10.1032(5)
_cell_length_c                   13.1931(8)
_cell_angle_alpha                75.7076(19)
_cell_angle_beta                 68.6728(15)
_cell_angle_gamma                65.4070(15)
_cell_volume                     1127.51
loop_
_atom_site_label
_atom_site_type_symbol
_atom_site_fract_x
_atom_site_fract_y
_atom_site_fract_z
Ni1 Ni 0.0000 0.5000 0.5000
Ni2 Ni -0.14962(3) 0.73206(3) 0.27906(2)
O1 O 0.11335(17) 0.63018(15) 0.39286(13)
O2 O -0.06439(17) 0.83492(16) 0.34113(13)
O3 O -0.03888(18) 1.31349(16) 0.34475(14)
O4 O 0.13660(16) 1.32046(16) 0.40738(13)
O5 O 0.62018(17) 0.83895(16) 0.35686(15)
O6 O 0.55109(17) 0.65688(17) 0.46794(14)
O7 O -0.14970(17) 0.56540(15) 0.40710(12)
O8 O -0.1652(2) 0.90314(18) 0.15408(14)
O9 O -0.2147(2) 0.6327(2) 0.19388(18)
O10 O 0.0659(2) 0.6141(2) 0.18489(15)
C1 C 0.1376(2) 0.8563(2) 0.38111(15)
C2 C 0.0771(2) 1.0089(2) 0.36809(16)
C3 C 0.1546(2) 1.0888(2) 0.37895(15)
C4 C 0.2979(2) 1.0157(2) 0.39665(16)
C5 C 0.3610(2) 0.8632(2) 0.40649(16)
C6 C 0.2787(2) 0.7835(2) 0.40279(16)
C7 C 0.0551(2) 0.7672(2) 0.37151(16)
C8 C 0.0798(2) 1.2526(2) 0.37540(16)
C9 C 0.5214(2) 0.7798(2) 0.41326(17)
H1 H -0.0156 1.0577 0.3521
H2 H 0.3512 1.0688 0.4019
H3 H 0.3176 0.6817 0.4147
H4 H -0.252(4) 0.594(3) 0.442(2)
H5 H -0.099(4) 0.466(4) 0.376(3)
Ni1_2 Ni 0.0000 1.5000 0.5000
Ni1_3 Ni 0.0000 -0.5000 0.5000
Ni2A Ni 0.14962(3) 0.26794(3) 0.72094(2)
Ni2_2 Ni 0.85038(3) 0.73206(3) 0.27906(2)
Ni2A_2 Ni -0.85038(3) 0.26794(3) 0.72094(2)
O1A O -0.11335(17) 0.36982(15) 0.60714(13)
O2A O 0.06439(17) 0.16508(16) 0.65887(13)
O3A O 0.03888(18) -0.31349(16) 0.65525(14)
O4A O -0.13660(16) -0.32046(16) 0.59262(13)
O4_2 O 0.13660(16) 0.32046(16) 0.40738(13)
O4A_2 O -0.13660(16) 0.67954(16) 0.59262(13)
O5A O -0.62018(17) 0.16105(16) 0.64314(15)
O5_2 O -0.37982(17) 0.83895(16) 0.35686(15)
O5A_2 O 0.37982(17) 0.16105(16) 0.64314(15)
O6A O -0.55109(17) 0.34312(17) 0.53206(14)
O7A O 0.14970(17) 0.43460(15) 0.59290(12)
O8A O 0.1652(2) 0.09686(18) 0.84592(14)
O9A O 0.2147(2) 0.3673(2) 0.80612(18)
O10A O -0.0659(2) 0.3859(2) 0.81511(15)
C1A C -0.1376(2) 0.1437(2) 0.61889(15)
C2A C -0.0771(2) -0.0089(2) 0.63191(16)
C3A C -0.1546(2) -0.0888(2) 0.62105(15)
C4A C -0.2979(2) -0.0157(2) 0.60335(16)
C5A C -0.3610(2) 0.1368(2) 0.59351(16)
C6A C -0.2787(2) 0.2165(2) 0.59721(16)
C7A C -0.0551(2) 0.2328(2) 0.62849(16)
C8A C -0.0798(2) -0.2526(2) 0.62460(16)
C9A C -0.5214(2) 0.2202(2) 0.58674(17)
H1A H 0.0156 -0.0577 0.6479
H2A H -0.3512 -0.0688 0.5981
H3A H -0.3176 0.3183 0.5853
H4A H 0.252(4) 0.406(3) 0.558(2)
H5A H 0.099(4) 0.534(4) 0.624(3)
Ni3 Ni 0.5000 0.5000 0.0000
Ni4 Ni 0.62816(3) 0.26469(3) 0.22623(2)
O11 O 0.38395(17) 0.36538(16) 0.09049(13)
O12 O 0.55026(17) 0.16324(16) 0.15670(13)
O13 O 0.51155(19) -0.31437(17) 0.16757(15)
O14 O 0.34597(17) -0.32359(16) 0.09634(13)
O15 O -0.13936(17) 0.15906(16) 0.15188(14)
O16 O -0.07400(18) 0.34429(18) 0.04264(16)
O17 O 0.63210(16) 0.43440(15) 0.10380(12)
O18 O 0.6407(2) 0.09398(17) 0.35072(13)
O19 O 0.6802(2) 0.36287(19) 0.32192(14)
O20 O 0.40417(19) 0.38332(19) 0.31013(15)
C10 C 0.3485(2) 0.1422(2) 0.11590(15)
C11 C 0.4076(2) -0.0105(2) 0.13010(16)
C12 C 0.3276(2) -0.0898(2) 0.12178(15)
C13 C 0.1829(2) -0.0161(2) 0.10686(17)
C14 C 0.1202(2) 0.1359(2) 0.09789(16)
C15 C 0.2053(2) 0.2157(2) 0.09777(16)
C16 C 0.4348(2) 0.2307(2) 0.12103(16)
C17 C 0.3987(2) -0.2542(2) 0.12987(16)
C18 C -0.0421(2) 0.2197(2) 0.09546(17)
H6 H 0.5009 -0.0597 0.1452
H7 H 0.1282 -0.0688 0.1029
H8 H 0.1667 0.3174 0.0857
H9 H 0.743(4) 0.405(4) 0.070(3)
H10 H 0.581(4) 0.533(4) 0.135(2)
Ni3_2 Ni 0.5000 -0.5000 0.0000
Ni3_3 Ni 0.5000 1.5000 0.0000
Ni4A Ni 0.37184(3) 0.73531(3) -0.22623(2)
Ni4_2 Ni -0.37184(3) 0.26469(3) 0.22623(2)
Ni4A_2 Ni 1.37184(3) 0.73531(3) -0.22623(2)
O11A O 0.61605(17) 0.63462(16) -0.09049(13)
O12A O 0.44974(17) 0.83676(16) -0.15670(13)
O13A O 0.48845(19) 1.31437(17) -0.16757(15)
O14A O 0.65403(17) 1.32359(16) -0.09634(13)
O14_2 O 0.34597(17) 0.67641(16) 0.09634(13)
O14A_2 O 0.65403(17) 0.32359(16) -0.09634(13)
O15A O 1.13936(17) 0.84094(16) -0.15188(14)
O15_2 O 0.86064(17) 0.15906(16) 0.15188(14)
O15A_2 O 0.13936(17) 0.84094(16) -0.15188(14)
O16A O 1.07400(18) 0.65571(18) -0.04264(16)
O17A O 0.36790(16) 0.56560(15) -0.10380(12)
O18A O 0.3593(2) 0.90602(17) -0.35072(13)
O19A O 0.3198(2) 0.63713(19) -0.32192(14)
O20A O 0.59583(19) 0.61668(19) -0.31013(15)
C10A C 0.6515(2) 0.8578(2) -0.11590(15)
C11A C 0.5924(2) 1.0105(2) -0.13010(16)
C12A C 0.6724(2) 1.0898(2) -0.12178(15)
C13A C 0.8171(2) 1.0161(2) -0.10686(17)
C14A C 0.8798(2) 0.8641(2) -0.09789(16)
C15A C 0.7947(2) 0.7843(2) -0.09777(16)
C16A C 0.5652(2) 0.7693(2) -0.12103(16)
C17A C 0.6013(2) 1.2542(2) -0.12987(16)
C18A C 1.0421(2) 0.7803(2) -0.09546(17)
H6A H 0.4991 1.0597 -0.1452
H7A H 0.8718 1.0688 -0.1029
H8A H 0.8333 0.6826 -0.0857
H9A H 0.257(4) 0.595(4) -0.070(3)
H10A H 0.419(4) 0.467(4) -0.135(2)
loop_
_geom_bond_atom_site_label_1
_geom_bond_atom_site_label_2
_geom_bond_site_symmetry_1
_geom_bond_site_symmetry_2
Ni1 O1 1_555 1_555
Ni2 O2 1_555 1_555
O1 C7 1_555 1_555
O2 C7 1_555 1_555
O3 C8 1_555 1_555
O4 C8 1_555 1_555
O5 C9 1_555 1_555
O6 C9 1_555 1_555
O7 Ni1 1_555 1_555
O8 Ni2 1_555 1_555
O9 Ni2 1_555 1_555
O10 Ni2 1_555 1_555
C1 C2 1_555 1_555
C2 C3 1_555 1_555
C3 C4 1_555 1_555
C4 C5 1_555 1_555
C5 C6 1_555 1_555
C6 C1 1_555 1_555
C7 C1 1_555 1_555
C8 C3 1_555 1_555
C9 C5 1_555 1_555
H1 C2 1_555 1_555
H2 C4 1_555 1_555
H3 C6 1_555 1_555
H4 O7 1_555 1_555
H5 O7 1_555 1_555
Ni3 O11 1_555 1_555
Ni4 O12 1_555 1_555
O11 C16 1_555 1_555
O12 C16 1_555 1_555
O13 C17 1_555 1_555
O14 C17 1_555 1_555
O15 C18 1_555 1_555
O16 C18 1_555 1_555
O17 Ni3 1_555 1_555
O18 Ni4 1_555 1_555
O19 Ni4 1_555 1_555
O20 Ni4 1_555 1_555
C10 C11 1_555 1_555
C11 C12 1_555 1_555
C12 C13 1_555 1_555
C13 C14 1_555 1_555
C14 C15 1_555 1_555
C15 C10 1_555 1_555
C16 C10 1_555 1_555
C17 C12 1_555 1_555
C18 C14 1_555 1_555
H6 C11 1_555 1_555
H7 C13 1_555 1_555
H8 C15 1_555 1_555
H9 O17 1_555 1_555
H10 O17 1_555 1_555
Ni1_2 O4 1_555 1_555
Ni1_3 O4A 1_555 1_555
Ni2A O2A 1_555 1_555
Ni2_2 O5 1_555 1_555
Ni2A_2 O5A 1_555 1_555
O1A Ni1 1_555 1_555
O2A C7A 1_555 1_555
O3A C8A 1_555 1_555
O4A C8A 1_555 1_555
O4_2 Ni1 1_555 1_555
O4A_2 Ni1 1_555 1_555
O5A C9A 1_555 1_555
O5_2 Ni2 1_555 1_555
O5A_2 Ni2A 1_555 1_555
O6A C9A 1_555 1_555
O7A Ni1 1_555 1_555
O8A Ni2A 1_555 1_555
O9A Ni2A 1_555 1_555
O10A Ni2A 1_555 1_555
C1A C2A 1_555 1_555
C2A C3A 1_555 1_555
C3A C4A 1_555 1_555
C4A C5A 1_555 1_555
C5A C6A 1_555 1_555
C6A C1A 1_555 1_555
C7A O1A 1_555 1_555
C8A C3A 1_555 1_555
C9A C5A 1_555 1_555
H1A C2A 1_555 1_555
H2A C4A 1_555 1_555
H3A C6A 1_555 1_555
H4A O7A 1_555 1_555
H5A O7A 1_555 1_555
Ni3_2 O14 1_555 1_555
Ni3_3 O14A 1_555 1_555
Ni4A O12A 1_555 1_555
Ni4_2 O15 1_555 1_555
Ni4A_2 O15A 1_555 1_555
O11A Ni3 1_555 1_555
O12A C16A 1_555 1_555
O13A C17A 1_555 1_555
O14A C17A 1_555 1_555
O14_2 Ni3 1_555 1_555
O14A_2 Ni3 1_555 1_555
O15A C18A 1_555 1_555
O15_2 Ni4 1_555 1_555
O15A_2 Ni4A 1_555 1_555
O16A C18A 1_555 1_555
O17A Ni3 1_555 1_555
O18A Ni4A 1_555 1_555
O19A Ni4A 1_555 1_555
O20A Ni4A 1_555 1_555
C10A C11A 1_555 1_555
C11A C12A 1_555 1_555
C12A C13A 1_555 1_555
C13A C14A 1_555 1_555
C14A C15A 1_555 1_555
C15A C10A 1_555 1_555
C16A O11A 1_555 1_555
C17A C12A 1_555 1_555
C18A C14A 1_555 1_555
H6A C11A 1_555 1_555
H7A C13A 1_555 1_555
H8A C15A 1_555 1_555
H9A O17A 1_555 1_555
H10A O17A 1_555 1_555
Ni2 O7 1_555 1_555
Ni4 O17 1_555 1_555
Ni2A O7A 1_555 1_555
C1A C7A 1_555 1_555
Ni4A O17A 1_555 1_555
C10A C16A 1_555 1_555

#END
