
#######################################################################
#
#                 Cambridge Crystallographic Data Centre
#                                CCDC 
#
#######################################################################
#
# If this CIF has been generated from an entry in the Cambridge 
# Structural Database, then it will include bibliographic, chemical, 
# crystal, experimental, refinement or atomic coordinate data resulting 
# from the CCDC's data processing and validation procedures.
#
#######################################################################

data_MENBOX10
_symmetry_cell_setting           triclinic
_symmetry_space_group_name_H-M   'P -1'
_symmetry_Int_Tables_number      2
_space_group_name_Hall           '-P 1'
loop_
_symmetry_equiv_pos_site_id
_symmetry_equiv_pos_as_xyz
1 x,y,z
2 -x,-y,-z
_cell_length_a                   10.0431(7)
_cell_length_b                   10.0905(7)
_cell_length_c                   13.1685(9)
_cell_angle_alpha                75.7390(10)
_cell_angle_beta                 68.6270(10)
_cell_angle_gamma                65.4220(10)
_cell_volume                     1123.03
loop_
_atom_site_label
_atom_site_type_symbol
_atom_site_fract_x
_atom_site_fract_y
_atom_site_fract_z
Ni1 Ni 0.0000 1.0000 0.0000
Ni2 Ni 0.15237(10) 0.76817(10) 0.22023(8)
O1 O 0.1528(5) 0.9348(5) 0.0911(4)
O2 O 0.2200(7) 0.8689(6) 0.3027(5)
O3 O -0.0632(6) 0.8856(6) 0.3172(5)
O4 O 0.1696(7) 0.5960(6) 0.3449(5)
O5 O -0.1131(5) 0.8704(6) 0.1088(4)
O6 O 0.0665(5) 0.6654(6) 0.1591(4)
O7 O 0.0414(6) 0.1860(6) 0.1546(5)
O8 O -0.1344(5) 0.1798(5) 0.0917(4)
O9 O -0.6186(5) 0.6612(6) 0.1423(5)
O10 O -0.5491(6) 0.8436(6) 0.0318(5)
C1 C -0.1355(8) 0.6434(8) 0.1187(5)
C2 C -0.0766(8) 0.4913(8) 0.1329(6)
H1 H 0.0146 0.4426 0.1510
C3 C -0.1531(8) 0.4100(8) 0.1203(5)
C4 C -0.2950(8) 0.4851(8) 0.1018(6)
H2 H -0.3480 0.4325 0.0952
C5 C -0.3596(8) 0.6377(8) 0.0928(6)
C6 C -0.2756(7) 0.7159(8) 0.0961(6)
H3 H -0.3132 0.8177 0.0832
C7 C -0.0533(8) 0.7332(9) 0.1294(6)
C8 C -0.0768(8) 0.2475(8) 0.1240(6)
C9 C -0.5186(8) 0.7207(8) 0.0847(6)
Ni1_2 Ni 0.0000 0.0000 0.0000
Ni1_3 Ni 0.0000 2.0000 0.0000
Ni2A Ni -0.15237(10) 1.23183(10) -0.22023(8)
Ni2_2 Ni -0.84763(10) 0.76817(10) 0.22023(8)
Ni2A_2 Ni 0.84763(10) 1.23183(10) -0.22023(8)
O1A O -0.1528(5) 1.0652(5) -0.0911(4)
O2A O -0.2200(7) 1.1311(6) -0.3027(5)
O3A O 0.0632(6) 1.1144(6) -0.3172(5)
O4A O -0.1696(7) 1.4040(6) -0.3449(5)
O5A O 0.1131(5) 1.1296(6) -0.1088(4)
O6A O -0.0665(5) 1.3346(6) -0.1591(4)
O7A O -0.0414(6) 1.8140(6) -0.1546(5)
O8A O 0.1344(5) 1.8202(5) -0.0917(4)
O8_2 O -0.1344(5) 1.1798(5) 0.0917(4)
O8A_2 O 0.1344(5) 0.8202(5) -0.0917(4)
O9A O 0.6186(5) 1.3388(6) -0.1423(5)
O9_2 O 0.3814(5) 0.6612(6) 0.1423(5)
O9A_2 O -0.3814(5) 1.3388(6) -0.1423(5)
O10A O 0.5491(6) 1.1564(6) -0.0318(5)
C1A C 0.1355(8) 1.3566(8) -0.1187(5)
C2A C 0.0766(8) 1.5087(8) -0.1329(6)
H1A H -0.0146 1.5574 -0.1510
C3A C 0.1531(8) 1.5900(8) -0.1203(5)
C4A C 0.2950(8) 1.5149(8) -0.1018(6)
H2A H 0.3480 1.5675 -0.0952
C5A C 0.3596(8) 1.3623(8) -0.0928(6)
C6A C 0.2756(7) 1.2841(8) -0.0961(6)
H3A H 0.3132 1.1823 -0.0832
C7A C 0.0533(8) 1.2668(9) -0.1294(6)
C8A C 0.0768(8) 1.7525(8) -0.1240(6)
C9A C 0.5186(8) 1.2793(8) -0.0847(6)
Ni3 Ni 0.37374(10) 0.23581(10) 0.27296(8)
Ni4 Ni 0.5000 0.0000 0.5000
O11 O 0.3695(5) 0.0655(5) 0.3951(4)
O12 O 0.3611(6) 0.4064(6) 0.1482(4)
O13 O 0.3214(6) 0.1376(6) 0.1776(5)
O14 O 0.5983(6) 0.1173(6) 0.1900(5)
O15 O 0.6156(5) 0.1349(5) 0.4119(4)
O16 O 0.4521(6) 0.3377(6) 0.3430(4)
O17 O 0.4923(6) 0.8156(6) 0.3302(5)
O18 O 0.6564(6) 0.8242(6) 0.4030(4)
O19 O 1.1425(5) 0.3413(6) 0.3476(4)
O20 O 1.0767(6) 0.1563(6) 0.4551(5)
C10 C 0.6534(8) 0.3579(8) 0.3842(6)
C11 C 0.5933(8) 0.5107(8) 0.3703(6)
H4 H 0.4995 0.5602 0.3559
C12 C 0.6758(8) 0.5893(8) 0.3783(6)
C13 C 0.8192(8) 0.5165(8) 0.3929(6)
H5 H 0.8739 0.5691 0.3969
C14 C 0.8816(8) 0.3646(8) 0.4015(6)
C15 C 0.7968(8) 0.2849(8) 0.4023(6)
H6 H 0.8354 0.1831 0.4149
C16 C 0.5658(7) 0.2694(8) 0.3804(6)
C17 C 0.6033(8) 0.7536(8) 0.3686(6)
C18 C 1.0435(8) 0.2803(8) 0.4045(6)
Ni3A Ni 0.62626(10) -0.23581(10) 0.72704(8)
Ni3_2 Ni 1.37374(10) 0.23581(10) 0.27296(8)
Ni3A_2 Ni -0.37374(10) -0.23581(10) 0.72704(8)
Ni4_2 Ni 0.5000 1.0000 0.5000
Ni4_3 Ni 0.5000 -1.0000 0.5000
O11A O 0.6305(5) -0.0655(5) 0.6049(4)
O12A O 0.6389(6) -0.4064(6) 0.8518(4)
O13A O 0.6786(6) -0.1376(6) 0.8224(5)
O14A O 0.4017(6) -0.1173(6) 0.8100(5)
O15A O 0.3844(5) -0.1349(5) 0.5881(4)
O16A O 0.5479(6) -0.3377(6) 0.6570(4)
O17A O 0.5077(6) -0.8156(6) 0.6698(5)
O18A O 0.3436(6) -0.8242(6) 0.5970(4)
O18_2 O 0.6564(6) -0.1758(6) 0.4030(4)
O18A_2 O 0.3436(6) 0.1758(6) 0.5970(4)
O19A O -0.1425(5) -0.3413(6) 0.6524(4)
O19_2 O 0.1425(5) 0.3413(6) 0.3476(4)
O19A_2 O 0.8575(5) -0.3413(6) 0.6524(4)
O20A O -0.0767(6) -0.1563(6) 0.5449(5)
C10A C 0.3466(8) -0.3579(8) 0.6158(6)
C11A C 0.4067(8) -0.5107(8) 0.6297(6)
H4A H 0.5005 -0.5602 0.6441
C12A C 0.3242(8) -0.5893(8) 0.6217(6)
C13A C 0.1808(8) -0.5165(8) 0.6071(6)
H5A H 0.1261 -0.5691 0.6031
C14A C 0.1184(8) -0.3646(8) 0.5985(6)
C15A C 0.2032(8) -0.2849(8) 0.5977(6)
H6A H 0.1646 -0.1831 0.5851
C16A C 0.4342(7) -0.2694(8) 0.6196(6)
C17A C 0.3967(8) -0.7536(8) 0.6314(6)
C18A C -0.0435(8) -0.2803(8) 0.5955(6)
loop_
_geom_bond_atom_site_label_1
_geom_bond_atom_site_label_2
_geom_bond_site_symmetry_1
_geom_bond_site_symmetry_2
Ni1 O1 1_555 1_555
Ni2 O1 1_555 1_555
O2 Ni2 1_555 1_555
O3 Ni2 1_555 1_555
O4 Ni2 1_555 1_555
O5 Ni1 1_555 1_555
O6 Ni2 1_555 1_555
O7 C8 1_555 1_555
O8 C8 1_555 1_555
O9 C9 1_555 1_555
O10 C9 1_555 1_555
C1 C2 1_555 1_555
C2 H1 1_555 1_555
C3 C2 1_555 1_555
C4 C3 1_555 1_555
H2 C4 1_555 1_555
C5 C4 1_555 1_555
C6 C1 1_555 1_555
H3 C6 1_555 1_555
C7 O5 1_555 1_555
C8 C3 1_555 1_555
C9 C5 1_555 1_555
Ni3 O11 1_555 1_555
Ni4 O11 1_555 1_555
O12 Ni3 1_555 1_555
O13 Ni3 1_555 1_555
O14 Ni3 1_555 1_555
O15 Ni4 1_555 1_555
O16 Ni3 1_555 1_555
O17 C17 1_555 1_555
O18 C17 1_555 1_555
O19 C18 1_555 1_555
O20 C18 1_555 1_555
C10 C11 1_555 1_555
C11 H4 1_555 1_555
C12 C11 1_555 1_555
C13 C12 1_555 1_555
H5 C13 1_555 1_555
C14 C13 1_555 1_555
C15 C10 1_555 1_555
H6 C15 1_555 1_555
C16 O15 1_555 1_555
C17 C12 1_555 1_555
C18 C14 1_555 1_555
Ni1_2 O8 1_555 1_555
Ni1_3 O8A 1_555 1_555
Ni2A O1A 1_555 1_555
Ni2_2 O9 1_555 1_555
Ni2A_2 O9A 1_555 1_555
O1A Ni1 1_555 1_555
O2A Ni2A 1_555 1_555
O3A Ni2A 1_555 1_555
O4A Ni2A 1_555 1_555
O5A Ni1 1_555 1_555
O6A Ni2A 1_555 1_555
O7A C8A 1_555 1_555
O8A C8A 1_555 1_555
O8_2 Ni1 1_555 1_555
O8A_2 Ni1 1_555 1_555
O9A C9A 1_555 1_555
O9_2 Ni2 1_555 1_555
O9A_2 Ni2A 1_555 1_555
O10A C9A 1_555 1_555
C1A C2A 1_555 1_555
C2A H1A 1_555 1_555
C3A C2A 1_555 1_555
C4A C3A 1_555 1_555
H2A C4A 1_555 1_555
C5A C4A 1_555 1_555
C6A C1A 1_555 1_555
H3A C6A 1_555 1_555
C7A O5A 1_555 1_555
C8A C3A 1_555 1_555
C9A C5A 1_555 1_555
Ni3A O11A 1_555 1_555
Ni3_2 O19 1_555 1_555
Ni3A_2 O19A 1_555 1_555
Ni4_2 O18 1_555 1_555
Ni4_3 O18A 1_555 1_555
O11A Ni4 1_555 1_555
O12A Ni3A 1_555 1_555
O13A Ni3A 1_555 1_555
O14A Ni3A 1_555 1_555
O15A Ni4 1_555 1_555
O16A Ni3A 1_555 1_555
O17A C17A 1_555 1_555
O18A C17A 1_555 1_555
O18_2 Ni4 1_555 1_555
O18A_2 Ni4 1_555 1_555
O19A C18A 1_555 1_555
O19_2 Ni3 1_555 1_555
O19A_2 Ni3A 1_555 1_555
O20A C18A 1_555 1_555
C10A C11A 1_555 1_555
C11A H4A 1_555 1_555
C12A C11A 1_555 1_555
C13A C12A 1_555 1_555
H5A C13A 1_555 1_555
C14A C13A 1_555 1_555
C15A C10A 1_555 1_555
H6A C15A 1_555 1_555
C16A O15A 1_555 1_555
C17A C12A 1_555 1_555
C18A C14A 1_555 1_555
O6 C7 1_555 1_555
C1 C7 1_555 1_555
C5 C6 1_555 1_555
O16 C16 1_555 1_555
C10 C16 1_555 1_555
C14 C15 1_555 1_555
O6A C7A 1_555 1_555
C1A C7A 1_555 1_555
C5A C6A 1_555 1_555
O16A C16A 1_555 1_555
C10A C16A 1_555 1_555
C14A C15A 1_555 1_555

#END
