
#######################################################################
#
#                 Cambridge Crystallographic Data Centre
#                                CCDC 
#
#######################################################################
#
# If this CIF has been generated from an entry in the Cambridge 
# Structural Database, then it will include bibliographic, chemical, 
# crystal, experimental, refinement or atomic coordinate data resulting 
# from the CCDC's data processing and validation procedures.
#
#######################################################################

data_MENBOX08
_symmetry_cell_setting           triclinic
_symmetry_space_group_name_H-M   'P -1'
_symmetry_Int_Tables_number      2
_space_group_name_Hall           '-P 1'
loop_
_symmetry_equiv_pos_site_id
_symmetry_equiv_pos_as_xyz
1 x,y,z
2 -x,-y,-z
_cell_length_a                   10.0511(6)
_cell_length_b                   10.1076(7)
_cell_length_c                   13.1964(7)
_cell_angle_alpha                75.624(3)
_cell_angle_beta                 68.638(2)
_cell_angle_gamma                65.382(3)
_cell_volume                     1127.66
loop_
_atom_site_label
_atom_site_type_symbol
_atom_site_fract_x
_atom_site_fract_y
_atom_site_fract_z
Ni1 Ni 0.0000 0.5000 0.5000
Ni2 Ni -0.14709(3) 0.73233(3) 0.27858(2)
O1 O 0.11417(17) 0.63053(16) 0.39472(13)
O2 O -0.06251(17) 0.83480(16) 0.34150(13)
O3 O -0.03566(19) 1.31321(16) 0.34375(14)
O4 O 0.13821(17) 1.32073(16) 0.40718(13)
O5 O 0.62269(18) 0.83864(16) 0.35568(15)
O6 O 0.55328(18) 0.65710(17) 0.46710(14)
O7 O -0.14744(17) 0.56511(15) 0.40565(12)
O8 O -0.1614(2) 0.90333(18) 0.15351(14)
O9 O -0.2104(2) 0.6334(2) 0.19174(17)
O10 O 0.0690(2) 0.6144(2) 0.18583(16)
C1 C 0.1390(2) 0.8564(2) 0.38170(15)
C2 C 0.0788(2) 1.0089(2) 0.36835(16)
C3 C 0.1567(2) 1.0887(2) 0.37913(16)
C4 C 0.3004(2) 1.0154(2) 0.39586(16)
C5 C 0.3632(2) 0.8631(2) 0.40603(16)
C6 C 0.2810(2) 0.7832(2) 0.40250(16)
C7 C 0.0571(2) 0.7670(2) 0.37230(16)
C8 C 0.0817(2) 1.2527(2) 0.37505(16)
C9 C 0.5239(2) 0.7799(2) 0.41220(17)
H1 H -0.0137 1.0578 0.3522
H2 H 0.3544 1.0683 0.4002
H3 H 0.3202 0.6814 0.4139
H4 H -0.246(4) 0.595(3) 0.438(2)
H5 H -0.091(4) 0.457(4) 0.377(2)
Ni1_2 Ni 0.0000 1.5000 0.5000
Ni1_3 Ni 0.0000 -0.5000 0.5000
Ni2A Ni 0.14709(3) 0.26767(3) 0.72142(2)
Ni2_2 Ni 0.85291(3) 0.73233(3) 0.27858(2)
Ni2A_2 Ni -0.85291(3) 0.26767(3) 0.72142(2)
O1A O -0.11417(17) 0.36947(16) 0.60528(13)
O2A O 0.06251(17) 0.16520(16) 0.65850(13)
O3A O 0.03566(19) -0.31321(16) 0.65625(14)
O4A O -0.13821(17) -0.32073(16) 0.59282(13)
O4_2 O 0.13821(17) 0.32073(16) 0.40718(13)
O4A_2 O -0.13821(17) 0.67927(16) 0.59282(13)
O5A O -0.62269(18) 0.16136(16) 0.64432(15)
O5_2 O -0.37731(18) 0.83864(16) 0.35568(15)
O5A_2 O 0.37731(18) 0.16136(16) 0.64432(15)
O6A O -0.55328(18) 0.34290(17) 0.53290(14)
O7A O 0.14744(17) 0.43489(15) 0.59435(12)
O8A O 0.1614(2) 0.09667(18) 0.84649(14)
O9A O 0.2104(2) 0.3666(2) 0.80826(17)
O10A O -0.0690(2) 0.3856(2) 0.81417(16)
C1A C -0.1390(2) 0.1436(2) 0.61830(15)
C2A C -0.0788(2) -0.0089(2) 0.63165(16)
C3A C -0.1567(2) -0.0887(2) 0.62087(16)
C4A C -0.3004(2) -0.0154(2) 0.60414(16)
C5A C -0.3632(2) 0.1369(2) 0.59397(16)
C6A C -0.2810(2) 0.2168(2) 0.59750(16)
C7A C -0.0571(2) 0.2330(2) 0.62770(16)
C8A C -0.0817(2) -0.2527(2) 0.62495(16)
C9A C -0.5239(2) 0.2201(2) 0.58780(17)
H1A H 0.0137 -0.0578 0.6478
H2A H -0.3544 -0.0683 0.5998
H3A H -0.3202 0.3186 0.5861
H4A H 0.246(4) 0.405(3) 0.562(2)
H5A H 0.091(4) 0.543(4) 0.623(2)
Ni3 Ni 0.5000 0.5000 0.0000
Ni4 Ni 0.63044(3) 0.26511(3) 0.22555(2)
O11 O 0.38372(17) 0.36607(16) 0.09247(13)
O12 O 0.55139(17) 0.16382(16) 0.15690(13)
O13 O 0.51436(19) -0.31386(17) 0.16576(15)
O14 O 0.34826(17) -0.32288(16) 0.09571(13)
O15 O -0.13751(17) 0.15982(16) 0.15091(14)
O16 O -0.07142(19) 0.34423(18) 0.04135(16)
O17 O 0.63381(17) 0.43477(15) 0.10275(12)
O18 O 0.6426(2) 0.09417(17) 0.35021(13)
O19 O 0.6832(2) 0.36308(19) 0.32078(15)
O20 O 0.4077(2) 0.3834(2) 0.31037(15)
C10 C 0.3502(2) 0.1426(2) 0.11606(15)
C11 C 0.4094(2) -0.0103(2) 0.13007(16)
C12 C 0.3292(2) -0.0895(2) 0.12179(16)
C13 C 0.1845(2) -0.0159(2) 0.10708(16)
C14 C 0.1221(2) 0.1364(2) 0.09744(16)
C15 C 0.2067(2) 0.2163(2) 0.09789(16)
C16 C 0.4352(2) 0.2314(2) 0.12196(16)
C17 C 0.4015(2) -0.2538(2) 0.12904(17)
C18 C -0.0396(2) 0.2196(2) 0.09442(17)
H6 H 0.5028 -0.0596 0.1450
H7 H 0.1295 -0.0685 0.1037
H8 H 0.1678 0.3180 0.0862
H9 H 0.747(4) 0.406(3) 0.066(2)
H10 H 0.576(4) 0.537(4) 0.132(2)
Ni3_2 Ni 0.5000 -0.5000 0.0000
Ni3_3 Ni 0.5000 1.5000 0.0000
Ni4A Ni 0.36956(3) 0.73489(3) -0.22555(2)
Ni4_2 Ni -0.36956(3) 0.26511(3) 0.22555(2)
Ni4A_2 Ni 1.36956(3) 0.73489(3) -0.22555(2)
O11A O 0.61628(17) 0.63393(16) -0.09247(13)
O12A O 0.44861(17) 0.83618(16) -0.15690(13)
O13A O 0.48564(19) 1.31386(17) -0.16576(15)
O14A O 0.65174(17) 1.32288(16) -0.09571(13)
O14_2 O 0.34826(17) 0.67712(16) 0.09571(13)
O14A_2 O 0.65174(17) 0.32288(16) -0.09571(13)
O15A O 1.13751(17) 0.84018(16) -0.15091(14)
O15_2 O 0.86249(17) 0.15982(16) 0.15091(14)
O15A_2 O 0.13751(17) 0.84018(16) -0.15091(14)
O16A O 1.07142(19) 0.65577(18) -0.04135(16)
O17A O 0.36619(17) 0.56523(15) -0.10275(12)
O18A O 0.3574(2) 0.90583(17) -0.35021(13)
O19A O 0.3168(2) 0.63692(19) -0.32078(15)
O20A O 0.5923(2) 0.6166(2) -0.31037(15)
C10A C 0.6498(2) 0.8574(2) -0.11606(15)
C11A C 0.5906(2) 1.0103(2) -0.13007(16)
C12A C 0.6708(2) 1.0895(2) -0.12179(16)
C13A C 0.8155(2) 1.0159(2) -0.10708(16)
C14A C 0.8779(2) 0.8636(2) -0.09744(16)
C15A C 0.7933(2) 0.7837(2) -0.09789(16)
C16A C 0.5648(2) 0.7686(2) -0.12196(16)
C17A C 0.5985(2) 1.2538(2) -0.12904(17)
C18A C 1.0396(2) 0.7804(2) -0.09442(17)
H6A H 0.4972 1.0596 -0.1450
H7A H 0.8705 1.0685 -0.1037
H8A H 0.8322 0.6820 -0.0862
H9A H 0.253(4) 0.594(3) -0.066(2)
H10A H 0.424(4) 0.463(4) -0.132(2)
loop_
_geom_bond_atom_site_label_1
_geom_bond_atom_site_label_2
_geom_bond_site_symmetry_1
_geom_bond_site_symmetry_2
Ni1 O1 1_555 1_555
Ni2 O2 1_555 1_555
O1 C7 1_555 1_555
O2 C7 1_555 1_555
O3 C8 1_555 1_555
O4 C8 1_555 1_555
O5 C9 1_555 1_555
O6 C9 1_555 1_555
O7 Ni1 1_555 1_555
O8 Ni2 1_555 1_555
O9 Ni2 1_555 1_555
O10 Ni2 1_555 1_555
C1 C2 1_555 1_555
C2 C3 1_555 1_555
C3 C4 1_555 1_555
C4 C5 1_555 1_555
C5 C6 1_555 1_555
C6 C1 1_555 1_555
C7 C1 1_555 1_555
C8 C3 1_555 1_555
C9 C5 1_555 1_555
H1 C2 1_555 1_555
H2 C4 1_555 1_555
H3 C6 1_555 1_555
H4 O7 1_555 1_555
H5 O7 1_555 1_555
Ni3 O11 1_555 1_555
Ni4 O12 1_555 1_555
O11 C16 1_555 1_555
O12 C16 1_555 1_555
O13 C17 1_555 1_555
O14 C17 1_555 1_555
O15 C18 1_555 1_555
O16 C18 1_555 1_555
O17 Ni3 1_555 1_555
O18 Ni4 1_555 1_555
O19 Ni4 1_555 1_555
O20 Ni4 1_555 1_555
C10 C11 1_555 1_555
C11 C12 1_555 1_555
C12 C13 1_555 1_555
C13 C14 1_555 1_555
C14 C15 1_555 1_555
C15 C10 1_555 1_555
C16 C10 1_555 1_555
C17 C12 1_555 1_555
C18 C14 1_555 1_555
H6 C11 1_555 1_555
H7 C13 1_555 1_555
H8 C15 1_555 1_555
H9 O17 1_555 1_555
H10 O17 1_555 1_555
Ni1_2 O4 1_555 1_555
Ni1_3 O4A 1_555 1_555
Ni2A O2A 1_555 1_555
Ni2_2 O5 1_555 1_555
Ni2A_2 O5A 1_555 1_555
O1A Ni1 1_555 1_555
O2A C7A 1_555 1_555
O3A C8A 1_555 1_555
O4A C8A 1_555 1_555
O4_2 Ni1 1_555 1_555
O4A_2 Ni1 1_555 1_555
O5A C9A 1_555 1_555
O5_2 Ni2 1_555 1_555
O5A_2 Ni2A 1_555 1_555
O6A C9A 1_555 1_555
O7A Ni1 1_555 1_555
O8A Ni2A 1_555 1_555
O9A Ni2A 1_555 1_555
O10A Ni2A 1_555 1_555
C1A C2A 1_555 1_555
C2A C3A 1_555 1_555
C3A C4A 1_555 1_555
C4A C5A 1_555 1_555
C5A C6A 1_555 1_555
C6A C1A 1_555 1_555
C7A O1A 1_555 1_555
C8A C3A 1_555 1_555
C9A C5A 1_555 1_555
H1A C2A 1_555 1_555
H2A C4A 1_555 1_555
H3A C6A 1_555 1_555
H4A O7A 1_555 1_555
H5A O7A 1_555 1_555
Ni3_2 O14 1_555 1_555
Ni3_3 O14A 1_555 1_555
Ni4A O12A 1_555 1_555
Ni4_2 O15 1_555 1_555
Ni4A_2 O15A 1_555 1_555
O11A Ni3 1_555 1_555
O12A C16A 1_555 1_555
O13A C17A 1_555 1_555
O14A C17A 1_555 1_555
O14_2 Ni3 1_555 1_555
O14A_2 Ni3 1_555 1_555
O15A C18A 1_555 1_555
O15_2 Ni4 1_555 1_555
O15A_2 Ni4A 1_555 1_555
O16A C18A 1_555 1_555
O17A Ni3 1_555 1_555
O18A Ni4A 1_555 1_555
O19A Ni4A 1_555 1_555
O20A Ni4A 1_555 1_555
C10A C11A 1_555 1_555
C11A C12A 1_555 1_555
C12A C13A 1_555 1_555
C13A C14A 1_555 1_555
C14A C15A 1_555 1_555
C15A C10A 1_555 1_555
C16A O11A 1_555 1_555
C17A C12A 1_555 1_555
C18A C14A 1_555 1_555
H6A C11A 1_555 1_555
H7A C13A 1_555 1_555
H8A C15A 1_555 1_555
H9A O17A 1_555 1_555
H10A O17A 1_555 1_555
Ni2 O7 1_555 1_555
Ni4 O17 1_555 1_555
Ni2A O7A 1_555 1_555
C1A C7A 1_555 1_555
Ni4A O17A 1_555 1_555
C10A C16A 1_555 1_555

#END
