
#######################################################################
#
#                 Cambridge Crystallographic Data Centre
#                                CCDC 
#
#######################################################################
#
# If this CIF has been generated from an entry in the Cambridge 
# Structural Database, then it will include bibliographic, chemical, 
# crystal, experimental, refinement or atomic coordinate data resulting 
# from the CCDC's data processing and validation procedures.
#
#######################################################################

data_MENBOX06
_symmetry_cell_setting           triclinic
_symmetry_space_group_name_H-M   'P -1'
_symmetry_Int_Tables_number      2
_space_group_name_Hall           '-P 1'
loop_
_symmetry_equiv_pos_site_id
_symmetry_equiv_pos_as_xyz
1 x,y,z
2 -x,-y,-z
_cell_length_a                   6.6827(6)
_cell_length_b                   9.6566(8)
_cell_length_c                   10.1084(10)
_cell_angle_alpha                112.735(3)
_cell_angle_beta                 93.964(4)
_cell_angle_gamma                106.524(3)
_cell_volume                     564.837
loop_
_atom_site_label
_atom_site_type_symbol
_atom_site_fract_x
_atom_site_fract_y
_atom_site_fract_z
Ni1 Ni 0.0000 1.0000 0.5000
Ni2 Ni 0.08478(5) 0.63798(3) 0.26645(3)
O1 O 0.2147(2) 1.0162(2) 0.36811(18)
O2 O 0.1003(2) 0.78569(19) 0.16484(18)
O3 O 0.1344(3) 0.8135(2) -0.31355(19)
O4 O 0.2387(2) 1.0505(2) -0.32156(18)
O5 O 0.7774(2) 1.4826(2) 0.16062(18)
O6 O 0.5989(3) 1.5250(2) 0.3431(2)
O7 O -0.0430(2) 0.76050(18) 0.43480(17)
O8 O 0.1966(3) 0.5001(2) 0.0952(2)
O9 O 0.1202(3) 0.4892(2) 0.3644(2)
O10 O 0.3939(3) 0.7701(2) 0.3851(2)
C1 C 0.2625(3) 1.0273(2) 0.1433(2)
C2 C 0.2157(3) 0.9538(2) -0.0093(2)
C3 C 0.2840(3) 1.0421(2) -0.0892(2)
C4 C 0.4125(3) 1.2025(2) -0.0157(2)
C5 C 0.4663(3) 1.2747(2) 0.1365(2)
C6 C 0.3846(3) 1.1891(2) 0.2159(2)
C7 C 0.1858(3) 0.9354(2) 0.2318(2)
C8 C 0.2161(3) 0.9633(2) -0.2533(2)
C9 C 0.6225(3) 1.4406(2) 0.2200(2)
H1 H 0.1386 0.8453 -0.0582
H2 H 0.4620 1.2609 -0.0686
H3 H 0.4115 1.2400 0.3177
H4 H -0.184(5) 0.685(4) 0.405(3)
H5 H 0.019(7) 0.790(6) 0.525(5)
Ni1_2 Ni 0.0000 1.0000 -0.5000
Ni1_3 Ni 0.0000 1.0000 1.5000
Ni2A Ni -0.08478(5) 1.36202(3) 0.73355(3)
Ni2_2 Ni 1.08478(5) 1.63798(3) 0.26645(3)
Ni2A_2 Ni -1.08478(5) 0.36202(3) 0.73355(3)
O1A O -0.2147(2) 0.9838(2) 0.63189(18)
O2A O -0.1003(2) 1.21431(19) 0.83516(18)
O3A O -0.1344(3) 1.1865(2) 1.31355(19)
O4A O -0.2387(2) 0.9495(2) 1.32156(18)
O4_2 O 0.2387(2) 1.0505(2) 0.67844(18)
O4A_2 O -0.2387(2) 0.9495(2) 0.32156(18)
O5A O -0.7774(2) 0.5174(2) 0.83938(18)
O5_2 O -0.2226(2) 0.4826(2) 0.16062(18)
O5A_2 O 0.2226(2) 1.5174(2) 0.83938(18)
O6A O -0.5989(3) 0.4750(2) 0.6569(2)
O7A O 0.0430(2) 1.23950(18) 0.56520(17)
O8A O -0.1966(3) 1.4999(2) 0.9048(2)
O9A O -0.1202(3) 1.5108(2) 0.6356(2)
O10A O -0.3939(3) 1.2299(2) 0.6149(2)
C1A C -0.2625(3) 0.9727(2) 0.8567(2)
C2A C -0.2157(3) 1.0462(2) 1.0093(2)
C3A C -0.2840(3) 0.9579(2) 1.0892(2)
C4A C -0.4125(3) 0.7975(2) 1.0157(2)
C5A C -0.4663(3) 0.7253(2) 0.8635(2)
C6A C -0.3846(3) 0.8109(2) 0.7841(2)
C7A C -0.1858(3) 1.0646(2) 0.7682(2)
C8A C -0.2161(3) 1.0367(2) 1.2533(2)
C9A C -0.6225(3) 0.5594(2) 0.7800(2)
H1A H -0.1386 1.1547 1.0582
H2A H -0.4620 0.7391 1.0686
H3A H -0.4115 0.7600 0.6823
H4A H 0.184(5) 1.315(4) 0.595(3)
H5A H -0.019(7) 1.210(6) 0.475(5)
loop_
_geom_bond_atom_site_label_1
_geom_bond_atom_site_label_2
_geom_bond_site_symmetry_1
_geom_bond_site_symmetry_2
Ni1 O1 1_555 1_555
Ni2 O2 1_555 1_555
O1 C7 1_555 1_555
O2 C7 1_555 1_555
O3 C8 1_555 1_555
O4 C8 1_555 1_555
O5 C9 1_555 1_555
O6 C9 1_555 1_555
O7 Ni1 1_555 1_555
O8 Ni2 1_555 1_555
O9 Ni2 1_555 1_555
O10 Ni2 1_555 1_555
C1 C2 1_555 1_555
C2 C3 1_555 1_555
C3 C4 1_555 1_555
C4 C5 1_555 1_555
C5 C6 1_555 1_555
C6 C1 1_555 1_555
C7 C1 1_555 1_555
C8 C3 1_555 1_555
C9 C5 1_555 1_555
H1 C2 1_555 1_555
H2 C4 1_555 1_555
H3 C6 1_555 1_555
H4 O7 1_555 1_555
H5 O7 1_555 1_555
Ni1_2 O4 1_555 1_555
Ni1_3 O4A 1_555 1_555
Ni2A O2A 1_555 1_555
Ni2_2 O5 1_555 1_555
Ni2A_2 O5A 1_555 1_555
O1A Ni1 1_555 1_555
O2A C7A 1_555 1_555
O3A C8A 1_555 1_555
O4A C8A 1_555 1_555
O4_2 Ni1 1_555 1_555
O4A_2 Ni1 1_555 1_555
O5A C9A 1_555 1_555
O5_2 Ni2 1_555 1_555
O5A_2 Ni2A 1_555 1_555
O6A C9A 1_555 1_555
O7A Ni1 1_555 1_555
O8A Ni2A 1_555 1_555
O9A Ni2A 1_555 1_555
O10A Ni2A 1_555 1_555
C1A C2A 1_555 1_555
C2A C3A 1_555 1_555
C3A C4A 1_555 1_555
C4A C5A 1_555 1_555
C5A C6A 1_555 1_555
C6A C1A 1_555 1_555
C7A O1A 1_555 1_555
C8A C3A 1_555 1_555
C9A C5A 1_555 1_555
H1A C2A 1_555 1_555
H2A C4A 1_555 1_555
H3A C6A 1_555 1_555
H4A O7A 1_555 1_555
H5A O7A 1_555 1_555
Ni2 O7 1_555 1_555
Ni2A O7A 1_555 1_555
C1A C7A 1_555 1_555

#END
