
#######################################################################
#
#                 Cambridge Crystallographic Data Centre
#                                CCDC 
#
#######################################################################
#
# If this CIF has been generated from an entry in the Cambridge 
# Structural Database, then it will include bibliographic, chemical, 
# crystal, experimental, refinement or atomic coordinate data resulting 
# from the CCDC's data processing and validation procedures.
#
#######################################################################

data_MENBOX
_symmetry_cell_setting           triclinic
_symmetry_space_group_name_H-M   'P -1'
_symmetry_Int_Tables_number      2
_space_group_name_Hall           '-P 1'
loop_
_symmetry_equiv_pos_site_id
_symmetry_equiv_pos_as_xyz
1 x,y,z
2 -x,-y,-z
_cell_length_a                   10.040(5)
_cell_length_b                   10.092(5)
_cell_length_c                   13.165(5)
_cell_angle_alpha                75.719(5)
_cell_angle_beta                 68.643(5)
_cell_angle_gamma                65.409(5)
_cell_volume                     1122.5
loop_
_atom_site_label
_atom_site_type_symbol
_atom_site_fract_x
_atom_site_fract_y
_atom_site_fract_z
Ni1 Ni 0.0000 0.0000 0.0000
Ni2 Ni 0.87408(3) -0.76427(3) -0.22699(2)
C1 C 0.2956(2) -0.7149(2) -0.09744(18)
H1 H 0.3338 -0.8167 -0.0850
C2 C 0.1529(2) -0.6415(2) -0.11582(18)
C3 C 0.0943(2) -0.4895(2) -0.12997(18)
H2 H 0.0005 -0.4402 -0.1445
C4 C 0.1748(2) -0.4097(2) -0.12266(17)
C5 C 0.3191(2) -0.4836(2) -0.10742(18)
H3 H 0.3741 -0.4310 -0.1037
C6 C 0.3812(2) -0.6358(2) -0.09768(18)
C7 C 0.5438(2) -0.7191(3) -0.0960(2)
C8 C 0.1036(2) -0.2455(2) -0.13081(19)
C9 C 0.0661(2) -0.7300(2) -0.12070(18)
O1 O -0.00803(19) -0.18509(18) -0.16946(16)
O2 O 0.15692(17) -0.17609(17) -0.09739(15)
O3 O 0.57629(18) -0.84401(19) -0.04360(16)
O4 O 0.64105(17) -0.65833(17) -0.15288(14)
O5 O 0.11596(17) -0.86450(17) -0.08873(14)
O6 O -0.04856(17) -0.66270(17) -0.15678(14)
O7 O 1.0974(2) -0.8818(2) -0.31043(17)
H4 H 1.184(3) -0.865(3) -0.347(2)
H5 H 1.134(3) -0.959(3) -0.272(2)
O8 O 0.8221(2) -0.8633(2) -0.32182(15)
H6 H 0.886(3) -0.875(3) -0.3801(17)
H7 H 0.738(3) -0.823(3) -0.343(3)
O9 O 0.8616(2) -0.59450(19) -0.35140(15)
H8 H 0.770(2) -0.552(3) -0.363(2)
H9 H 0.874(3) -0.527(3) -0.331(3)
O10 O -0.13031(17) 0.06607(17) -0.10456(13)
H10 H -0.228(2) 0.084(3) -0.082(2)
H11 H -0.109(3) -0.024(2) -0.115(2)
Ni1_2 Ni 0.0000 -1.0000 0.0000
Ni1_3 Ni 0.0000 1.0000 0.0000
Ni2A Ni -0.87408(3) 0.76427(3) 0.22699(2)
Ni2_2 Ni -0.12592(3) -0.76427(3) -0.22699(2)
Ni2_3 Ni -0.12592(3) 0.23573(3) -0.22699(2)
Ni2A_2 Ni 0.12592(3) 0.76427(3) 0.22699(2)
Ni2A_3 Ni 0.12592(3) -0.23573(3) 0.22699(2)
C1A C -0.2956(2) 0.7149(2) 0.09744(18)
H1A H -0.3338 0.8167 0.0850
C2A C -0.1529(2) 0.6415(2) 0.11582(18)
C3A C -0.0943(2) 0.4895(2) 0.12997(18)
H2A H -0.0005 0.4402 0.1445
C4A C -0.1748(2) 0.4097(2) 0.12266(17)
C5A C -0.3191(2) 0.4836(2) 0.10742(18)
H3A H -0.3741 0.4310 0.1037
C6A C -0.3812(2) 0.6358(2) 0.09768(18)
C7A C -0.5438(2) 0.7191(3) 0.0960(2)
C8A C -0.1036(2) 0.2455(2) 0.13081(19)
C9A C -0.0661(2) 0.7300(2) 0.12070(18)
O1A O 0.00803(19) 0.18509(18) 0.16946(16)
O2A O -0.15692(17) 0.17609(17) 0.09739(15)
O3A O -0.57629(18) 0.84401(19) 0.04360(16)
O4A O -0.64105(17) 0.65833(17) 0.15288(14)
O5A O -0.11596(17) 0.86450(17) 0.08873(14)
O5_2 O 0.11596(17) 0.13550(17) -0.08873(14)
O5A_2 O -0.11596(17) -0.13550(17) 0.08873(14)
O6A O 0.04856(17) 0.66270(17) 0.15678(14)
O6_2 O 0.95144(17) -0.66270(17) -0.15678(14)
O6A_2 O -0.95144(17) 0.66270(17) 0.15678(14)
O7A O -1.0974(2) 0.8818(2) 0.31043(17)
H4A H -1.184(3) 0.865(3) 0.347(2)
H5A H -1.134(3) 0.959(3) 0.272(2)
O8A O -0.8221(2) 0.8633(2) 0.32182(15)
H6A H -0.886(3) 0.875(3) 0.3801(17)
H7A H -0.738(3) 0.823(3) 0.343(3)
O9A O -0.8616(2) 0.59450(19) 0.35140(15)
H8A H -0.770(2) 0.552(3) 0.363(2)
H9A H -0.874(3) 0.527(3) 0.331(3)
O10A O 0.13031(17) -0.06607(17) 0.10456(13)
O10_2 O 0.86969(17) -0.93393(17) -0.10456(13)
O10A_2 O -0.86969(17) 0.93393(17) 0.10456(13)
H10A H 0.228(2) -0.084(3) 0.082(2)
H10_2 H 0.772(2) -0.916(3) -0.082(2)
H10A_2 H -0.772(2) 0.916(3) 0.082(2)
H11A H 0.109(3) 0.024(2) 0.115(2)
H11_2 H 0.891(3) -1.024(2) -0.115(2)
H11A_2 H -0.891(3) 1.024(2) 0.115(2)
Ni3 Ni -0.5000 1.0000 -0.5000
Ni4 Ni -1.34778(3) 1.76820(3) -0.27960(2)
C10 C -0.6529(2) 1.4112(2) -0.37873(17)
C11 C -0.5758(2) 1.4911(2) -0.36759(18)
H12 H -0.4833 1.4424 -0.3512
C12 C -0.3637(2) 0.3560(2) -0.61919(18)
C13 C -0.2233(2) 0.2839(2) -0.59752(18)
H13 H -0.1841 0.1820 -0.5862
C14 C -0.8588(2) 1.6367(2) -0.40726(18)
C15 C -0.7959(2) 1.4846(2) -0.39715(18)
H14 H -0.8492 1.4315 -0.4027
C16 C -0.5779(2) 1.2475(2) -0.37572(18)
C17 C -0.4461(2) 0.2667(2) -0.62952(18)
C18 C -1.0188(2) 1.7203(2) -0.41480(19)
O11 O -1.04891(17) 1.84302(18) -0.46889(14)
O12 O -1.11833(17) 1.66093(17) -0.35751(16)
O13 O -0.56637(17) 0.33467(17) -0.65882(14)
O14 O -0.38693(17) 0.12989(17) -0.60941(14)
O15 O -0.63522(17) 1.18017(17) -0.40757(14)
O16 O -0.45874(18) 1.18654(18) -0.34567(15)
O17 O -1.3321(2) 1.5979(2) -0.15424(15)
H15 H -1.361(4) 1.529(3) -0.163(3)
H16 H -1.243(2) 1.551(3) -0.144(3)
O18 O -1.5614(2) 1.8860(2) -0.18510(16)
H17 H -1.658(2) 1.888(4) -0.173(3)
H18 H -1.575(4) 1.883(4) -0.1152(16)
O19 O -1.2813(2) 1.8676(2) -0.19621(19)
H19 H -1.327(4) 1.952(2) -0.183(3)
H20 H -1.205(3) 1.820(4) -0.172(3)
O20 O -0.34808(17) 0.93427(17) -0.40872(14)
H21 H -0.373(3) 1.025(2) -0.393(2)
H22 H -0.250(2) 0.917(3) -0.438(2)
Ni3_2 Ni -0.5000 0.0000 -0.5000
Ni3_3 Ni -0.5000 2.0000 -0.5000
Ni4_2 Ni -0.34778(3) 0.76820(3) -0.27960(2)
Ni4A Ni -0.65222(3) 1.23180(3) -0.72040(2)
Ni4A_2 Ni -0.65222(3) 0.23180(3) -0.72040(2)
Ni4_3 Ni -0.34778(3) 1.76820(3) -0.27960(2)
Ni4A_3 Ni 0.34778(3) 0.23180(3) -0.72040(2)
C10A C -0.3471(2) 0.5888(2) -0.62127(17)
C11A C -0.4242(2) 0.5089(2) -0.63241(18)
H12A H -0.5167 0.5576 -0.6488
C12A C -0.6363(2) 1.6440(2) -0.38081(18)
C13A C -0.7767(2) 1.7161(2) -0.40248(18)
H13A H -0.8159 1.8180 -0.4138
C14A C -0.1412(2) 0.3633(2) -0.59274(18)
C15A C -0.2041(2) 0.5154(2) -0.60285(18)
H14A H -0.1508 0.5685 -0.5973
C16A C -0.4221(2) 0.7525(2) -0.62428(18)
C17A C -0.5539(2) 1.7333(2) -0.37048(18)
C18A C 0.0188(2) 0.2797(2) -0.58520(19)
O11A O 0.04891(17) 0.15698(18) -0.53111(14)
O12A O 0.11833(17) 0.33907(17) -0.64249(16)
O13A O -0.43363(17) 1.66533(17) -0.34118(14)
O13A_2 O -1.43363(17) 1.66533(17) -0.34118(14)
O13_2 O 0.43363(17) 0.33467(17) -0.65882(14)
O14_2 O -0.38693(17) 1.12989(17) -0.60941(14)
O14A O -0.61307(17) 0.87011(17) -0.39059(14)
O14A_2 O -0.61307(17) 1.87011(17) -0.39059(14)
O15A O -0.36478(17) 0.81983(17) -0.59243(14)
O16A O -0.54126(18) 0.81346(18) -0.65433(15)
O17A O 0.3321(2) 0.4021(2) -0.84576(15)
H15A H 0.361(4) 0.471(3) -0.837(3)
H16A H 0.243(2) 0.449(3) -0.856(3)
O18A O 0.5614(2) 0.1140(2) -0.81490(16)
H17A H 0.658(2) 0.112(4) -0.827(3)
H18A H 0.575(4) 0.117(4) -0.8848(16)
O19A O 0.2813(2) 0.1324(2) -0.80379(19)
H19A H 0.327(4) 0.048(2) -0.817(3)
H20A H 0.205(3) 0.180(4) -0.828(3)
O20A O -0.65192(17) 1.06573(17) -0.59128(14)
O20_2 O -1.34808(17) 1.93427(17) -0.40872(14)
O20A_2 O 0.34808(17) 0.06573(17) -0.59128(14)
H21A H -0.627(3) 0.975(2) -0.607(2)
H21_2 H -1.373(3) 2.025(2) -0.393(2)
H21A_2 H 0.373(3) -0.025(2) -0.607(2)
H22A H -0.750(2) 1.083(3) -0.562(2)
H22_2 H -1.250(2) 1.917(3) -0.438(2)
H22A_2 H 0.250(2) 0.083(3) -0.562(2)
loop_
_geom_bond_atom_site_label_1
_geom_bond_atom_site_label_2
_geom_bond_site_symmetry_1
_geom_bond_site_symmetry_2
Ni1 O2 1_555 1_555
Ni2 O4 1_555 1_555
C1 H1 1_555 1_555
C2 C1 1_555 1_555
C3 C2 1_555 1_555
H2 C3 1_555 1_555
C4 C3 1_555 1_555
C5 C4 1_555 1_555
H3 C5 1_555 1_555
C6 C1 1_555 1_555
C7 C6 1_555 1_555
C8 C4 1_555 1_555
C9 C2 1_555 1_555
O1 C8 1_555 1_555
O2 C8 1_555 1_555
O3 C7 1_555 1_555
O4 C7 1_555 1_555
O5 C9 1_555 1_555
O6 C9 1_555 1_555
O7 Ni2 1_555 1_555
H4 O7 1_555 1_555
H5 O7 1_555 1_555
O8 Ni2 1_555 1_555
H6 O8 1_555 1_555
H7 O8 1_555 1_555
O9 Ni2 1_555 1_555
H8 O9 1_555 1_555
H9 O9 1_555 1_555
O10 Ni1 1_555 1_555
H10 O10 1_555 1_555
H11 O10 1_555 1_555
Ni3 O15 1_555 1_555
Ni4 O12 1_555 1_555
C10 C11 1_555 1_555
C11 H12 1_555 1_555
C12 C13 1_555 1_555
C13 H13 1_555 1_555
C14 C15 1_555 1_555
C15 C10 1_555 1_555
H14 C15 1_555 1_555
C16 C10 1_555 1_555
C17 C12 1_555 1_555
C18 C14 1_555 1_555
O11 C18 1_555 1_555
O12 C18 1_555 1_555
O13 C17 1_555 1_555
O14 C17 1_555 1_555
O15 C16 1_555 1_555
O16 C16 1_555 1_555
O17 Ni4 1_555 1_555
H15 O17 1_555 1_555
H16 O17 1_555 1_555
O18 Ni4 1_555 1_555
H17 O18 1_555 1_555
H18 O18 1_555 1_555
O19 Ni4 1_555 1_555
H19 O19 1_555 1_555
H20 O19 1_555 1_555
O20 Ni3 1_555 1_555
H21 O20 1_555 1_555
H22 O20 1_555 1_555
Ni1_2 O5 1_555 1_555
Ni1_3 O5A 1_555 1_555
Ni2A O4A 1_555 1_555
Ni2_2 O6 1_555 1_555
Ni2_3 O10 1_555 1_555
Ni2A_2 O6A 1_555 1_555
Ni2A_3 O10A 1_555 1_555
C1A H1A 1_555 1_555
C2A C1A 1_555 1_555
C3A C2A 1_555 1_555
H2A C3A 1_555 1_555
C4A C3A 1_555 1_555
C5A C4A 1_555 1_555
H3A C5A 1_555 1_555
C6A C1A 1_555 1_555
C7A C6A 1_555 1_555
C8A C4A 1_555 1_555
C9A C2A 1_555 1_555
O1A C8A 1_555 1_555
O2A Ni1 1_555 1_555
O3A C7A 1_555 1_555
O4A C7A 1_555 1_555
O5A C9A 1_555 1_555
O5_2 Ni1 1_555 1_555
O5A_2 Ni1 1_555 1_555
O6A C9A 1_555 1_555
O6_2 Ni2 1_555 1_555
O6A_2 Ni2A 1_555 1_555
O7A Ni2A 1_555 1_555
H4A O7A 1_555 1_555
H5A O7A 1_555 1_555
O8A Ni2A 1_555 1_555
H6A O8A 1_555 1_555
H7A O8A 1_555 1_555
O9A Ni2A 1_555 1_555
H8A O9A 1_555 1_555
H9A O9A 1_555 1_555
O10A Ni1 1_555 1_555
O10_2 Ni2 1_555 1_555
O10A_2 Ni2A 1_555 1_555
H10A O10A 1_555 1_555
H10_2 O10_2 1_555 1_555
H10A_2 O10A_2 1_555 1_555
H11A O10A 1_555 1_555
H11_2 O10_2 1_555 1_555
H11A_2 O10A_2 1_555 1_555
Ni3_2 O14 1_555 1_555
Ni3_3 O14A_2 1_555 1_555
Ni4_2 O20 1_555 1_555
Ni4A O20A 1_555 1_555
Ni4A_2 O13 1_555 1_555
Ni4_3 O13A 1_555 1_555
Ni4A_3 O12A 1_555 1_555
C10A C11A 1_555 1_555
C11A C12 1_555 1_555
H12A C11A 1_555 1_555
C12A C11 1_555 1_555
C13A C14 1_555 1_555
H13A C13A 1_555 1_555
C14A C13 1_555 1_555
C15A C10A 1_555 1_555
H14A C15A 1_555 1_555
C16A C10A 1_555 1_555
C17A C12A 1_555 1_555
C18A C14A 1_555 1_555
O11A C18A 1_555 1_555
O12A C18A 1_555 1_555
O13A C17A 1_555 1_555
O13A_2 Ni4 1_555 1_555
O13_2 Ni4A_3 1_555 1_555
O14_2 Ni3 1_555 1_555
O14A Ni3 1_555 1_555
O14A_2 C17A 1_555 1_555
O15A Ni3 1_555 1_555
O16A C16A 1_555 1_555
O17A Ni4A_3 1_555 1_555
H15A O17A 1_555 1_555
H16A O17A 1_555 1_555
O18A Ni4A_3 1_555 1_555
H17A O18A 1_555 1_555
H18A O18A 1_555 1_555
O19A Ni4A_3 1_555 1_555
H19A O19A 1_555 1_555
H20A O19A 1_555 1_555
O20A Ni3 1_555 1_555
O20_2 Ni4 1_555 1_555
O20A_2 Ni4A_3 1_555 1_555
H21A O20A 1_555 1_555
H21_2 O20_2 1_555 1_555
H21A_2 O20A_2 1_555 1_555
H22A O20A 1_555 1_555
H22_2 O20_2 1_555 1_555
H22A_2 O20A_2 1_555 1_555
C5 C6 1_555 1_555
C5A C6A 1_555 1_555
C8A O2A 1_555 1_555
C12A C13A 1_555 1_555
C14A C15A 1_555 1_555
C16A O15A 1_555 1_555

#END
