
#######################################################################
#
#                 Cambridge Crystallographic Data Centre
#                                CCDC 
#
#######################################################################
#
# If this CIF has been generated from an entry in the Cambridge 
# Structural Database, then it will include bibliographic, chemical, 
# crystal, experimental, refinement or atomic coordinate data resulting 
# from the CCDC's data processing and validation procedures.
#
#######################################################################

data_MENBOX01
_symmetry_cell_setting           triclinic
_symmetry_space_group_name_H-M   'P -1'
_symmetry_Int_Tables_number      2
_space_group_name_Hall           '-P 1'
loop_
_symmetry_equiv_pos_site_id
_symmetry_equiv_pos_as_xyz
1 x,y,z
2 -x,-y,-z
_cell_length_a                   6.6960(3)
_cell_length_b                   9.6446(3)
_cell_length_c                   10.1114(3)
_cell_angle_alpha                112.638(1)
_cell_angle_beta                 94.008(1)
_cell_angle_gamma                106.48
_cell_volume                     565.972
loop_
_atom_site_label
_atom_site_type_symbol
_atom_site_fract_x
_atom_site_fract_y
_atom_site_fract_z
Ni1 Ni 0.0000 0.0000 0.0000
Ni2 Ni -0.08464(4) 0.36281(3) 0.23383(3)
O1 O -0.1000(2) 0.2151(2) 0.3360(2)
O2 O -0.2125(2) -0.0156(2) 0.1327(2)
O3 O -0.2401(2) -0.0513(2) 0.8220(2)
O4 O -0.1357(3) 0.1867(2) 0.8140(2)
O5 O -0.5994(3) -0.5251(2) 0.1567(2)
O6 O -0.7779(3) -0.4821(2) 0.3403(2)
O7 O 0.0425(3) 0.2390(2) 0.06566(15)
O8 O -0.1963(3) 0.5017(2) 0.4041(2)
O9 O -0.3932(4) 0.2314(3) 0.1160(3)
O10 O -0.1223(4) 0.5096(3) 0.1350(2)
C1 C -0.1843(3) 0.0651(2) 0.2684(2)
C2 C -0.2616(3) -0.0271(2) 0.3571(2)
C3 C -0.2156(3) 0.0459(2) 0.5096(2)
C4 C -0.2849(3) -0.0421(2) 0.5892(2)
C5 C -0.4123(3) -0.2021(2) 0.5160(2)
C6 C -0.4654(3) -0.2749(2) 0.3638(2)
C7 C -0.3832(3) -0.1886(2) 0.2845(2)
C8 C -0.2179(3) 0.0366(2) 0.7534(2)
C9 C -0.6220(3) -0.4406(2) 0.2805(2)
H1 H -0.1428(48) 0.1538(37) 0.5594(35)
H2 H -0.4622(48) -0.2620(37) 0.5644(35)
H3 H -0.4153(47) -0.2302(37) 0.1949(37)
H4 H -0.0056(55) 0.2323(41) -0.0233(42)
H5 H 0.1701(58) 0.2985(42) 0.0825(40)
H6 H -0.1257(60) 0.5798(46) 0.4364(42)
H7 H -0.2033(56) 0.4665(43) 0.4651(43)
H8 H -0.3906(69) 0.2973(48) 0.1343(49)
H9 H -0.4277(64) 0.1549(47) 0.0711(47)
H10 H -0.0446(58) 0.6067(48) 0.1571(42)
H11 H -0.0325(63) 0.5112(51) 0.1185(47)
O1A O 0.1000(2) -0.2151(2) -0.3360(2)
O2A O 0.2125(2) 0.0156(2) -0.1327(2)
O3A O 0.2401(2) 0.0513(2) -0.8220(2)
O4A O 0.1357(3) -0.1867(2) -0.8140(2)
O5A O 0.5994(3) 0.5251(2) -0.1567(2)
O6A O 0.7779(3) 0.4821(2) -0.3403(2)
C1A C 0.1843(3) -0.0651(2) -0.2684(2)
C2A C 0.2616(3) 0.0271(2) -0.3571(2)
C3A C 0.2156(3) -0.0459(2) -0.5096(2)
C4A C 0.2849(3) 0.0421(2) -0.5892(2)
C5A C 0.4123(3) 0.2021(2) -0.5160(2)
C6A C 0.4654(3) 0.2749(2) -0.3638(2)
C7A C 0.3832(3) 0.1886(2) -0.2845(2)
C8A C 0.2179(3) -0.0366(2) -0.7534(2)
C9A C 0.6220(3) 0.4406(2) -0.2805(2)
H1A H 0.1428(48) -0.1538(37) -0.5594(35)
H2A H 0.4622(48) 0.2620(37) -0.5644(35)
H3A H 0.4153(47) 0.2302(37) -0.1949(37)
O7A O -0.0425(3) -0.2390(2) -0.06566(15)
H4A H 0.0056(55) -0.2323(41) 0.0233(42)
H5A H -0.1701(58) -0.2985(42) -0.0825(40)
Ni2A Ni 0.08464(4) -0.36281(3) -0.23383(3)
O8A O 0.1963(3) -0.5017(2) -0.4041(2)
H6A H 0.1257(60) -0.5798(46) -0.4364(42)
H7A H 0.2033(56) -0.4665(43) -0.4651(43)
O9A O 0.3932(4) -0.2314(3) -0.1160(3)
H8A H 0.3906(69) -0.2973(48) -0.1343(49)
H9A H 0.4277(64) -0.1549(47) -0.0711(47)
O10A O 0.1223(4) -0.5096(3) -0.1350(2)
H10A H 0.0446(58) -0.6067(48) -0.1571(42)
H11A H 0.0325(63) -0.5112(51) -0.1185(47)
O3_2 O -0.2401(2) -0.0513(2) -0.1780(2)
O3A_2 O 0.2401(2) 0.0513(2) 0.1780(2)
O6_2 O 0.2221(3) 0.5179(2) 0.3403(2)
Ni1_2 Ni 0.0000 0.0000 1.0000
Ni2_2 Ni -1.08464(4) -0.63719(3) 0.23383(3)
Ni1_3 Ni 0.0000 0.0000 -1.0000
Ni2A_2 Ni 1.08464(4) 0.63719(3) -0.23383(3)
O6A_2 O -0.2221(3) -0.5179(2) -0.3403(2)
loop_
_geom_bond_atom_site_label_1
_geom_bond_atom_site_label_2
_geom_bond_site_symmetry_1
_geom_bond_site_symmetry_2
Ni1 O2 1_555 1_555
Ni2 O1 1_555 1_555
O1 C1 1_555 1_555
O2 C1 1_555 1_555
O3 C8 1_555 1_555
O4 C8 1_555 1_555
O5 C9 1_555 1_555
O6 C9 1_555 1_555
O7 Ni1 1_555 1_555
O8 Ni2 1_555 1_555
O9 Ni2 1_555 1_555
O10 Ni2 1_555 1_555
C1 C2 1_555 1_555
C2 C3 1_555 1_555
C3 C4 1_555 1_555
C4 C5 1_555 1_555
C5 C6 1_555 1_555
C6 C7 1_555 1_555
C7 C2 1_555 1_555
C8 C4 1_555 1_555
C9 C6 1_555 1_555
H1 C3 1_555 1_555
H2 C5 1_555 1_555
H3 C7 1_555 1_555
H4 O7 1_555 1_555
H5 O7 1_555 1_555
H6 O8 1_555 1_555
H7 O8 1_555 1_555
H8 O9 1_555 1_555
H9 O9 1_555 1_555
H10 O10 1_555 1_555
H11 O10 1_555 1_555
O1A C1A 1_555 1_555
O2A Ni1 1_555 1_555
O3A C8A 1_555 1_555
O4A C8A 1_555 1_555
O5A C9A 1_555 1_555
O6A C9A 1_555 1_555
C1A O2A 1_555 1_555
C2A C1A 1_555 1_555
C3A C2A 1_555 1_555
C4A C3A 1_555 1_555
C5A C4A 1_555 1_555
C6A C5A 1_555 1_555
C7A C2A 1_555 1_555
C8A C4A 1_555 1_555
C9A C6A 1_555 1_555
H1A C3A 1_555 1_555
H2A C5A 1_555 1_555
H3A C7A 1_555 1_555
O7A Ni1 1_555 1_555
H4A O7A 1_555 1_555
H5A O7A 1_555 1_555
Ni2A O1A 1_555 1_555
O8A Ni2A 1_555 1_555
H6A O8A 1_555 1_555
H7A O8A 1_555 1_555
O9A Ni2A 1_555 1_555
H8A O9A 1_555 1_555
H9A O9A 1_555 1_555
O10A Ni2A 1_555 1_555
H10A O10A 1_555 1_555
H11A O10A 1_555 1_555
O3_2 Ni1 1_555 1_555
O3A_2 Ni1 1_555 1_555
O6_2 Ni2 1_555 1_555
Ni1_2 O3 1_555 1_555
Ni2_2 O6 1_555 1_555
Ni1_3 O3A 1_555 1_555
Ni2A_2 O6A 1_555 1_555
O6A_2 Ni2A 1_555 1_555
Ni2 O7 1_555 1_555
C6A C7A 1_555 1_555
O7A Ni2A 1_555 1_555

#END
