
#######################################################################
#
#                 Cambridge Crystallographic Data Centre
#                                CCDC 
#
#######################################################################
#
# If this CIF has been generated from an entry in the Cambridge 
# Structural Database, then it will include bibliographic, chemical, 
# crystal, experimental, refinement or atomic coordinate data resulting 
# from the CCDC's data processing and validation procedures.
#
#######################################################################

data_MENBOX07
_symmetry_cell_setting           triclinic
_symmetry_space_group_name_H-M   'P -1'
_symmetry_Int_Tables_number      2
_space_group_name_Hall           '-P 1'
loop_
_symmetry_equiv_pos_site_id
_symmetry_equiv_pos_as_xyz
1 x,y,z
2 -x,-y,-z
_cell_length_a                   6.6978(5)
_cell_length_b                   9.6542(8)
_cell_length_c                   10.1056(7)
_cell_angle_alpha                112.708(3)
_cell_angle_beta                 93.919(2)
_cell_angle_gamma                106.591(2)
_cell_volume                     565.791
loop_
_atom_site_label
_atom_site_type_symbol
_atom_site_fract_x
_atom_site_fract_y
_atom_site_fract_z
Ni1 Ni 0.0000 1.0000 0.5000
Ni2 Ni 0.08490(4) 0.63815(3) 0.26665(3)
O1 O 0.2145(2) 1.01666(19) 0.36835(16)
O2 O 0.1009(2) 0.78569(19) 0.16484(17)
O3 O 0.1344(3) 0.8138(2) -0.31328(18)
O4 O 0.2389(2) 1.05095(19) -0.32138(17)
O5 O 0.7774(2) 1.4825(2) 0.16063(17)
O6 O 0.5993(2) 1.5255(2) 0.34333(19)
O7 O -0.0422(2) 0.76073(18) 0.43492(16)
O8 O 0.1965(3) 0.5004(2) 0.09560(19)
O9 O 0.1204(3) 0.4889(2) 0.3644(2)
O10 O 0.3936(2) 0.7706(2) 0.3854(2)
C1 C 0.2627(3) 1.0276(2) 0.1435(2)
C2 C 0.2159(3) 0.9542(2) -0.0091(2)
C3 C 0.2845(3) 1.0424(2) -0.0887(2)
C4 C 0.4127(3) 1.2025(2) -0.0155(2)
C5 C 0.4670(3) 1.2749(2) 0.1367(2)
C6 C 0.3855(3) 1.1893(2) 0.2162(2)
C7 C 0.1861(3) 0.9360(2) 0.2322(2)
C8 C 0.2166(3) 0.9635(2) -0.2528(2)
C9 C 0.6233(3) 1.4407(2) 0.2201(2)
H1 H 0.1385 0.8458 -0.0580
H2 H 0.4618 1.2609 -0.0685
H3 H 0.4129 1.2400 0.3179
H4 H -0.179(6) 0.685(5) 0.403(4)
H5 H 0.039(6) 0.782(5) 0.534(4)
Ni1_2 Ni 0.0000 1.0000 -0.5000
Ni1_3 Ni 0.0000 1.0000 1.5000
Ni2A Ni -0.08490(4) 1.36185(3) 0.73335(3)
Ni2_2 Ni 1.08490(4) 1.63815(3) 0.26665(3)
Ni2A_2 Ni -1.08490(4) 0.36185(3) 0.73335(3)
O1A O -0.2145(2) 0.98334(19) 0.63165(16)
O2A O -0.1009(2) 1.21431(19) 0.83516(17)
O3A O -0.1344(3) 1.1862(2) 1.31328(18)
O4A O -0.2389(2) 0.94905(19) 1.32138(17)
O4_2 O 0.2389(2) 1.05095(19) 0.67862(17)
O4A_2 O -0.2389(2) 0.94905(19) 0.32138(17)
O5A O -0.7774(2) 0.5175(2) 0.83937(17)
O5_2 O -0.2226(2) 0.4825(2) 0.16063(17)
O5A_2 O 0.2226(2) 1.5175(2) 0.83937(17)
O6A O -0.5993(2) 0.4745(2) 0.65667(19)
O7A O 0.0422(2) 1.23927(18) 0.56508(16)
O8A O -0.1965(3) 1.4996(2) 0.90440(19)
O9A O -0.1204(3) 1.5111(2) 0.6356(2)
O10A O -0.3936(2) 1.2294(2) 0.6146(2)
C1A C -0.2627(3) 0.9724(2) 0.8565(2)
C2A C -0.2159(3) 1.0458(2) 1.0091(2)
C3A C -0.2845(3) 0.9576(2) 1.0887(2)
C4A C -0.4127(3) 0.7975(2) 1.0155(2)
C5A C -0.4670(3) 0.7251(2) 0.8633(2)
C6A C -0.3855(3) 0.8107(2) 0.7838(2)
C7A C -0.1861(3) 1.0640(2) 0.7678(2)
C8A C -0.2166(3) 1.0365(2) 1.2528(2)
C9A C -0.6233(3) 0.5593(2) 0.7799(2)
H1A H -0.1385 1.1542 1.0580
H2A H -0.4618 0.7391 1.0685
H3A H -0.4129 0.7600 0.6821
H4A H 0.179(6) 1.315(5) 0.597(4)
H5A H -0.039(6) 1.218(5) 0.466(4)
loop_
_geom_bond_atom_site_label_1
_geom_bond_atom_site_label_2
_geom_bond_site_symmetry_1
_geom_bond_site_symmetry_2
Ni1 O1 1_555 1_555
Ni2 O2 1_555 1_555
O1 C7 1_555 1_555
O2 C7 1_555 1_555
O3 C8 1_555 1_555
O4 C8 1_555 1_555
O5 C9 1_555 1_555
O6 C9 1_555 1_555
O7 Ni1 1_555 1_555
O8 Ni2 1_555 1_555
O9 Ni2 1_555 1_555
O10 Ni2 1_555 1_555
C1 C2 1_555 1_555
C2 C3 1_555 1_555
C3 C4 1_555 1_555
C4 C5 1_555 1_555
C5 C6 1_555 1_555
C6 C1 1_555 1_555
C7 C1 1_555 1_555
C8 C3 1_555 1_555
C9 C5 1_555 1_555
H1 C2 1_555 1_555
H2 C4 1_555 1_555
H3 C6 1_555 1_555
H4 O7 1_555 1_555
H5 O7 1_555 1_555
Ni1_2 O4 1_555 1_555
Ni1_3 O4A 1_555 1_555
Ni2A O2A 1_555 1_555
Ni2_2 O5 1_555 1_555
Ni2A_2 O5A 1_555 1_555
O1A Ni1 1_555 1_555
O2A C7A 1_555 1_555
O3A C8A 1_555 1_555
O4A C8A 1_555 1_555
O4_2 Ni1 1_555 1_555
O4A_2 Ni1 1_555 1_555
O5A C9A 1_555 1_555
O5_2 Ni2 1_555 1_555
O5A_2 Ni2A 1_555 1_555
O6A C9A 1_555 1_555
O7A Ni1 1_555 1_555
O8A Ni2A 1_555 1_555
O9A Ni2A 1_555 1_555
O10A Ni2A 1_555 1_555
C1A C2A 1_555 1_555
C2A C3A 1_555 1_555
C3A C4A 1_555 1_555
C4A C5A 1_555 1_555
C5A C6A 1_555 1_555
C6A C1A 1_555 1_555
C7A O1A 1_555 1_555
C8A C3A 1_555 1_555
C9A C5A 1_555 1_555
H1A C2A 1_555 1_555
H2A C4A 1_555 1_555
H3A C6A 1_555 1_555
H4A O7A 1_555 1_555
H5A O7A 1_555 1_555
Ni2 O7 1_555 1_555
Ni2A O7A 1_555 1_555
C1A C7A 1_555 1_555

#END
