
#######################################################################
#
#                 Cambridge Crystallographic Data Centre
#                                CCDC 
#
#######################################################################
#
# If this CIF has been generated from an entry in the Cambridge 
# Structural Database, then it will include bibliographic, chemical, 
# crystal, experimental, refinement or atomic coordinate data resulting 
# from the CCDC's data processing and validation procedures.
#
#######################################################################

data_MENBOX12
_symmetry_cell_setting           triclinic
_symmetry_space_group_name_H-M   'P -1'
_symmetry_Int_Tables_number      2
_space_group_name_Hall           '-P 1'
loop_
_symmetry_equiv_pos_site_id
_symmetry_equiv_pos_as_xyz
1 x,y,z
2 -x,-y,-z
_cell_length_a                   6.6816(13)
_cell_length_b                   9.6419(19)
_cell_length_c                   10.096(2)
_cell_angle_alpha                112.72(3)
_cell_angle_beta                 93.98(3)
_cell_angle_gamma                106.47(3)
_cell_volume                     563.44
loop_
_atom_site_label
_atom_site_type_symbol
_atom_site_fract_x
_atom_site_fract_y
_atom_site_fract_z
Ni1 Ni 0.0000 1.0000 1.0000
Ni2 Ni 0.0847(2) 0.63737(15) 0.76623(13)
O1 O -0.0420(12) 0.7605(8) 0.9334(7)
H1 H 0.0110 0.7490 1.0192
H2 H -0.1946 0.7044 0.9075
O2 O -0.2390(12) 0.9498(9) 0.8222(7)
O3 O -0.1360(15) 1.1863(9) 0.8139(8)
C1 C -0.2847(15) 0.9576(11) 0.5876(10)
O4 O 0.1955(14) 0.4970(10) 0.5949(8)
C2 C -0.4102(16) 0.7984(12) 0.5169(10)
H3 H -0.4575 0.7405 0.5707
C3 C -0.2160(14) 1.0455(12) 0.5095(10)
H4 H -0.1396 1.1542 0.5591
C4 C -0.2177(17) 1.0362(12) 0.7532(10)
O5 O 0.1188(18) 0.4886(11) 0.8644(9)
O6 O 0.3946(15) 0.7679(13) 0.8843(10)
O7 O -0.7781(13) 0.5167(9) 0.3399(7)
C5 C -0.4659(15) 0.7247(11) 0.3633(10)
O8 O -0.5995(14) 0.4751(9) 0.1565(8)
C6 C -0.6227(17) 0.5591(11) 0.2799(10)
C7 C -0.3843(15) 0.8109(12) 0.2842(10)
H5 H -0.4127 0.7603 0.1823
C8 C -0.2600(14) 0.9728(11) 0.3565(10)
O9 O -0.1001(12) 1.2147(8) 0.3355(7)
C9 C -0.1848(15) 1.0654(12) 0.2695(10)
O10 O -0.2140(12) 0.9846(9) 0.1326(7)
Ni1_2 Ni 0.0000 1.0000 0.0000
Ni1_3 Ni 0.0000 1.0000 2.0000
Ni2A Ni -0.0847(2) 1.36263(15) 1.23377(13)
Ni2A_2 Ni -1.0847(2) 0.36263(15) 0.23377(13)
Ni2A_3 Ni -0.0847(2) 1.36263(15) 0.23377(13)
Ni2A_4 Ni -1.0847(2) 0.36263(15) 1.23377(13)
O1A O 0.0420(12) 1.2395(8) 1.0666(7)
H1A H -0.0110 1.2510 0.9808
H2A H 0.1946 1.2956 1.0925
O2_2 O -0.2390(12) 0.9498(9) 1.8222(7)
O2A O 0.2390(12) 1.0502(9) 1.1778(7)
O3_2 O -0.1360(15) 1.1863(9) 1.8139(8)
C1_2 C -0.2847(15) 0.9576(11) 1.5876(10)
O4A O -0.1955(14) 1.5030(10) 1.4051(8)
C2_2 C -0.4102(16) 0.7984(12) 1.5169(10)
H3_2 H -0.4575 0.7405 1.5707
C3_2 C -0.2160(14) 1.0455(12) 1.5095(10)
H4_2 H -0.1396 1.1542 1.5591
C4_2 C -0.2177(17) 1.0362(12) 1.7532(10)
O5A O -0.1188(18) 1.5114(11) 1.1356(9)
O6A O -0.3946(15) 1.2321(13) 1.1157(10)
O7_2 O -0.7781(13) 0.5167(9) 1.3399(7)
O7A O -0.2219(13) 0.4833(9) 0.6601(7)
O7_3 O 0.2219(13) 1.5167(9) 1.3399(7)
C5_2 C -0.4659(15) 0.7247(11) 1.3633(10)
O8_2 O -0.5995(14) 0.4751(9) 1.1565(8)
C6_2 C -0.6227(17) 0.5591(11) 1.2799(10)
C7_2 C -0.3843(15) 0.8109(12) 1.2842(10)
H5_2 H -0.4127 0.7603 1.1823
C8_2 C -0.2600(14) 0.9728(11) 1.3565(10)
O9_2 O -0.1001(12) 1.2147(8) 1.3355(7)
O9A O 0.1001(12) 0.7853(8) 0.6645(7)
C9_2 C -0.1848(15) 1.0654(12) 1.2695(10)
O10_2 O -0.2140(12) 0.9846(9) 1.1326(7)
O10A O 0.2140(12) 1.0154(9) 0.8674(7)
loop_
_geom_bond_atom_site_label_1
_geom_bond_atom_site_label_2
_geom_bond_site_symmetry_1
_geom_bond_site_symmetry_2
Ni1 O1 1_555 1_555
Ni2 O1 1_555 1_555
O1 H1 1_555 1_555
H2 O1 1_555 1_555
O2 Ni1 1_555 1_555
O3 C4 1_555 1_555
C1 C2 1_555 1_555
O4 Ni2 1_555 1_555
C2 H3 1_555 1_555
C3 C1 1_555 1_555
H4 C3 1_555 1_555
C4 O2 1_555 1_555
O5 Ni2 1_555 1_555
O6 Ni2 1_555 1_555
O7 C6 1_555 1_555
C5 C2 1_555 1_555
O8 C6 1_555 1_555
C6 C5 1_555 1_555
C7 C5 1_555 1_555
H5 C7 1_555 1_555
C8 C3 1_555 1_555
O9 C9 1_555 1_555
C9 C8 1_555 1_555
O10 C9 1_555 1_555
Ni1_2 O10 1_555 1_555
Ni1_3 O2_2 1_555 1_555
Ni2A O1A 1_555 1_555
Ni2A_2 O7 1_555 1_555
Ni2A_3 O9 1_555 1_555
Ni2A_4 O7_2 1_555 1_555
O1A Ni1 1_555 1_555
H1A O1A 1_555 1_555
H2A O1A 1_555 1_555
O2_2 C4_2 1_555 1_555
O2A Ni1 1_555 1_555
O3_2 C4_2 1_555 1_555
C1_2 C2_2 1_555 1_555
O4A Ni2A 1_555 1_555
C2_2 H3_2 1_555 1_555
C3_2 C1_2 1_555 1_555
H4_2 C3_2 1_555 1_555
C4_2 C1_2 1_555 1_555
O5A Ni2A 1_555 1_555
O6A Ni2A 1_555 1_555
O7_2 C6_2 1_555 1_555
O7A Ni2 1_555 1_555
O7_3 Ni2A 1_555 1_555
C5_2 C2_2 1_555 1_555
O8_2 C6_2 1_555 1_555
C6_2 C5_2 1_555 1_555
C7_2 C5_2 1_555 1_555
H5_2 C7_2 1_555 1_555
C8_2 C3_2 1_555 1_555
O9_2 Ni2A 1_555 1_555
O9A Ni2 1_555 1_555
C9_2 C8_2 1_555 1_555
O10_2 Ni1 1_555 1_555
O10A Ni1 1_555 1_555
C1 C4 1_555 1_555
C7 C8 1_555 1_555
C7_2 C8_2 1_555 1_555
O9_2 C9_2 1_555 1_555
C9_2 O10_2 1_555 1_555

#END
