
#######################################################################
#
#                 Cambridge Crystallographic Data Centre
#                                CCDC 
#
#######################################################################
#
# If this CIF has been generated from an entry in the Cambridge 
# Structural Database, then it will include bibliographic, chemical, 
# crystal, experimental, refinement or atomic coordinate data resulting 
# from the CCDC's data processing and validation procedures.
#
#######################################################################

data_MENBOX02
_symmetry_cell_setting           triclinic
_symmetry_space_group_name_H-M   'P -1'
_symmetry_Int_Tables_number      2
_space_group_name_Hall           '-P 1'
loop_
_symmetry_equiv_pos_site_id
_symmetry_equiv_pos_as_xyz
1 x,y,z
2 -x,-y,-z
_cell_length_a                   10.0138(4)
_cell_length_b                   10.0901(4)
_cell_length_c                   13.2226(5)
_cell_angle_alpha                75.3466(8)
_cell_angle_beta                 67.8473(9)
_cell_angle_gamma                65.7244(9)
_cell_volume                     1120.36
loop_
_atom_site_label
_atom_site_type_symbol
_atom_site_fract_x
_atom_site_fract_y
_atom_site_fract_z
Ni1 Ni 0.0000 0.5000 0.5000
Ni2 Ni -0.16316(4) 0.73214(3) 0.28522(3)
O1 O 0.1102(2) 0.63093(18) 0.38423(14)
O2 O -0.0715(2) 0.83683(18) 0.33953(15)
O3 O -0.0482(2) 1.31441(18) 0.35035(15)
O4 O 0.1308(2) 1.32056(18) 0.40919(15)
O5 O 0.6095(2) 0.84189(19) 0.37023(16)
O6 O 0.5380(2) 0.65540(18) 0.47397(14)
O7 O -0.1593(2) 0.56509(19) 0.41590(15)
O8 O -0.1851(2) 0.90282(19) 0.15897(15)
O9 O -0.2412(2) 0.6301(2) 0.21389(18)
O10 O 0.0474(2) 0.6156(2) 0.18441(15)
C1 C 0.1316(2) 0.8571(2) 0.37933(19)
C2 C 0.0717(2) 1.0097(2) 0.36640(19)
C3 C 0.1477(2) 1.0899(2) 0.38032(18)
C4 C 0.2886(2) 1.0167(2) 0.40140(19)
C5 C 0.3507(2) 0.8640(2) 0.41201(19)
C6 C 0.2696(2) 0.7844(2) 0.40406(19)
C7 C 0.0500(2) 0.7688(2) 0.36715(19)
C8 C 0.0723(2) 1.2534(2) 0.37807(19)
C9 C 0.5095(2) 0.7803(2) 0.42219(19)
H1 H -0.0212 1.0595 0.3480
H2 H 0.3422 1.0709 0.4085
H3 H 0.3088 0.6805 0.4156
H4 H -0.256(5) 0.591(4) 0.447(3)
H5 H -0.111(5) 0.480(5) 0.380(3)
Ni1_2 Ni 0.0000 1.5000 0.5000
Ni1_3 Ni 0.0000 -0.5000 0.5000
Ni2A Ni 0.16316(4) 0.26786(3) 0.71478(3)
Ni2_2 Ni 0.83684(4) 0.73214(3) 0.28522(3)
Ni2A_2 Ni -0.83684(4) 0.26786(3) 0.71478(3)
O1A O -0.1102(2) 0.36907(18) 0.61577(14)
O2A O 0.0715(2) 0.16317(18) 0.66047(15)
O3A O 0.0482(2) -0.31441(18) 0.64965(15)
O4A O -0.1308(2) -0.32056(18) 0.59081(15)
O4_2 O 0.1308(2) 0.32056(18) 0.40919(15)
O4A_2 O -0.1308(2) 0.67944(18) 0.59081(15)
O5A O -0.6095(2) 0.15811(19) 0.62977(16)
O5_2 O -0.3905(2) 0.84189(19) 0.37023(16)
O5A_2 O 0.3905(2) 0.15811(19) 0.62977(16)
O6A O -0.5380(2) 0.34460(18) 0.52603(14)
O7A O 0.1593(2) 0.43491(19) 0.58410(15)
O8A O 0.1851(2) 0.09718(19) 0.84103(15)
O9A O 0.2412(2) 0.3699(2) 0.78611(18)
O10A O -0.0474(2) 0.3844(2) 0.81559(15)
C1A C -0.1316(2) 0.1429(2) 0.62067(19)
C2A C -0.0717(2) -0.0097(2) 0.63360(19)
C3A C -0.1477(2) -0.0899(2) 0.61968(18)
C4A C -0.2886(2) -0.0167(2) 0.59860(19)
C5A C -0.3507(2) 0.1360(2) 0.58799(19)
C6A C -0.2696(2) 0.2156(2) 0.59594(19)
C7A C -0.0500(2) 0.2312(2) 0.63285(19)
C8A C -0.0723(2) -0.2534(2) 0.62193(19)
C9A C -0.5095(2) 0.2197(2) 0.57781(19)
H1A H 0.0212 -0.0595 0.6520
H2A H -0.3422 -0.0709 0.5915
H3A H -0.3088 0.3195 0.5844
H4A H 0.256(5) 0.409(4) 0.553(3)
H5A H 0.111(5) 0.520(5) 0.620(3)
Ni3 Ni 0.5000 0.5000 0.0000
Ni4 Ni 0.62203(4) 0.26389(3) 0.22709(2)
O11 O 0.3850(2) 0.36173(18) 0.08608(14)
O12 O 0.5433(2) 0.16103(18) 0.15921(15)
O13 O 0.5011(2) -0.31642(19) 0.17087(16)
O14 O 0.3378(2) -0.32812(19) 0.09922(15)
O15 O -0.1456(2) 0.15545(18) 0.15297(15)
O16 O -0.0784(2) 0.34044(19) 0.04062(15)
O17 O 0.6289(2) 0.43379(18) 0.10439(14)
O18 O 0.6360(2) 0.09514(19) 0.35373(15)
O19 O 0.6792(2) 0.36440(19) 0.31955(14)
O20 O 0.3976(2) 0.3833(2) 0.31091(15)
C10 C 0.3441(2) 0.1394(2) 0.11526(18)
C11 C 0.4016(2) -0.0127(2) 0.12964(19)
C12 C 0.3211(2) -0.0928(2) 0.12137(18)
C13 C 0.1771(2) -0.0192(2) 0.10558(19)
C14 C 0.1158(2) 0.1335(2) 0.09548(19)
C15 C 0.2017(2) 0.2133(2) 0.09586(19)
C16 C 0.4313(2) 0.2279(2) 0.11999(18)
C17 C 0.3909(2) -0.2574(2) 0.13150(19)
C18 C -0.0467(2) 0.2161(2) 0.09367(19)
H6 H 0.4965 -0.0629 0.1452
H7 H 0.1208 -0.0729 0.1017
H8 H 0.1634 0.3172 0.0830
H9 H 0.745(5) 0.403(4) 0.072(3)
H10 H 0.589(4) 0.525(4) 0.134(3)
Ni3_2 Ni 0.5000 -0.5000 0.0000
Ni3_3 Ni 0.5000 1.5000 0.0000
Ni4A Ni 0.37797(4) 0.73611(3) -0.22709(2)
Ni4_2 Ni -0.37797(4) 0.26389(3) 0.22709(2)
Ni4A_2 Ni 1.37797(4) 0.73611(3) -0.22709(2)
O11A O 0.6150(2) 0.63827(18) -0.08608(14)
O12A O 0.4567(2) 0.83897(18) -0.15921(15)
O13A O 0.4989(2) 1.31642(19) -0.17087(16)
O14A O 0.6622(2) 1.32812(19) -0.09922(15)
O14_2 O 0.3378(2) 0.67188(19) 0.09922(15)
O14A_2 O 0.6622(2) 0.32812(19) -0.09922(15)
O15A O 1.1456(2) 0.84455(18) -0.15297(15)
O15_2 O 0.8544(2) 0.15545(18) 0.15297(15)
O15A_2 O 0.1456(2) 0.84455(18) -0.15297(15)
O16A O 1.0784(2) 0.65956(19) -0.04062(15)
O17A O 0.3711(2) 0.56621(18) -0.10439(14)
O18A O 0.3640(2) 0.90486(19) -0.35373(15)
O19A O 0.3208(2) 0.63560(19) -0.31955(14)
O20A O 0.6024(2) 0.6167(2) -0.31091(15)
C10A C 0.6559(2) 0.8606(2) -0.11526(18)
C11A C 0.5984(2) 1.0127(2) -0.12964(19)
C12A C 0.6789(2) 1.0928(2) -0.12137(18)
C13A C 0.8229(2) 1.0192(2) -0.10558(19)
C14A C 0.8842(2) 0.8665(2) -0.09548(19)
C15A C 0.7983(2) 0.7867(2) -0.09586(19)
C16A C 0.5687(2) 0.7721(2) -0.11999(18)
C17A C 0.6091(2) 1.2574(2) -0.13150(19)
C18A C 1.0467(2) 0.7839(2) -0.09367(19)
H6A H 0.5035 1.0629 -0.1452
H7A H 0.8792 1.0729 -0.1017
H8A H 0.8366 0.6828 -0.0830
H9A H 0.255(5) 0.597(4) -0.072(3)
H10A H 0.411(4) 0.475(4) -0.134(3)
loop_
_geom_bond_atom_site_label_1
_geom_bond_atom_site_label_2
_geom_bond_site_symmetry_1
_geom_bond_site_symmetry_2
Ni1 O1 1_555 1_555
Ni2 O2 1_555 1_555
O1 C7 1_555 1_555
O2 C7 1_555 1_555
O3 C8 1_555 1_555
O4 C8 1_555 1_555
O5 C9 1_555 1_555
O6 C9 1_555 1_555
O7 Ni1 1_555 1_555
O8 Ni2 1_555 1_555
O9 Ni2 1_555 1_555
O10 Ni2 1_555 1_555
C1 C2 1_555 1_555
C2 C3 1_555 1_555
C3 C4 1_555 1_555
C4 C5 1_555 1_555
C5 C6 1_555 1_555
C6 C1 1_555 1_555
C7 C1 1_555 1_555
C8 C3 1_555 1_555
C9 C5 1_555 1_555
H1 C2 1_555 1_555
H2 C4 1_555 1_555
H3 C6 1_555 1_555
H4 O7 1_555 1_555
H5 O7 1_555 1_555
Ni3 O11 1_555 1_555
Ni4 O12 1_555 1_555
O11 C16 1_555 1_555
O12 C16 1_555 1_555
O13 C17 1_555 1_555
O14 C17 1_555 1_555
O15 C18 1_555 1_555
O16 C18 1_555 1_555
O17 Ni3 1_555 1_555
O18 Ni4 1_555 1_555
O19 Ni4 1_555 1_555
O20 Ni4 1_555 1_555
C10 C11 1_555 1_555
C11 C12 1_555 1_555
C12 C13 1_555 1_555
C13 C14 1_555 1_555
C14 C15 1_555 1_555
C15 C10 1_555 1_555
C16 C10 1_555 1_555
C17 C12 1_555 1_555
C18 C14 1_555 1_555
H6 C11 1_555 1_555
H7 C13 1_555 1_555
H8 C15 1_555 1_555
H9 O17 1_555 1_555
H10 O17 1_555 1_555
Ni1_2 O4 1_555 1_555
Ni1_3 O4A 1_555 1_555
Ni2A O2A 1_555 1_555
Ni2_2 O5 1_555 1_555
Ni2A_2 O5A 1_555 1_555
O1A Ni1 1_555 1_555
O2A C7A 1_555 1_555
O3A C8A 1_555 1_555
O4A C8A 1_555 1_555
O4_2 Ni1 1_555 1_555
O4A_2 Ni1 1_555 1_555
O5A C9A 1_555 1_555
O5_2 Ni2 1_555 1_555
O5A_2 Ni2A 1_555 1_555
O6A C9A 1_555 1_555
O7A Ni1 1_555 1_555
O8A Ni2A 1_555 1_555
O9A Ni2A 1_555 1_555
O10A Ni2A 1_555 1_555
C1A C2A 1_555 1_555
C2A C3A 1_555 1_555
C3A C4A 1_555 1_555
C4A C5A 1_555 1_555
C5A C6A 1_555 1_555
C6A C1A 1_555 1_555
C7A O1A 1_555 1_555
C8A C3A 1_555 1_555
C9A C5A 1_555 1_555
H1A C2A 1_555 1_555
H2A C4A 1_555 1_555
H3A C6A 1_555 1_555
H4A O7A 1_555 1_555
H5A O7A 1_555 1_555
Ni3_2 O14 1_555 1_555
Ni3_3 O14A 1_555 1_555
Ni4A O12A 1_555 1_555
Ni4_2 O15 1_555 1_555
Ni4A_2 O15A 1_555 1_555
O11A Ni3 1_555 1_555
O12A C16A 1_555 1_555
O13A C17A 1_555 1_555
O14A C17A 1_555 1_555
O14_2 Ni3 1_555 1_555
O14A_2 Ni3 1_555 1_555
O15A C18A 1_555 1_555
O15_2 Ni4 1_555 1_555
O15A_2 Ni4A 1_555 1_555
O16A C18A 1_555 1_555
O17A Ni3 1_555 1_555
O18A Ni4A 1_555 1_555
O19A Ni4A 1_555 1_555
O20A Ni4A 1_555 1_555
C10A C11A 1_555 1_555
C11A C12A 1_555 1_555
C12A C13A 1_555 1_555
C13A C14A 1_555 1_555
C14A C15A 1_555 1_555
C15A C10A 1_555 1_555
C16A O11A 1_555 1_555
C17A C12A 1_555 1_555
C18A C14A 1_555 1_555
H6A C11A 1_555 1_555
H7A C13A 1_555 1_555
H8A C15A 1_555 1_555
H9A O17A 1_555 1_555
H10A O17A 1_555 1_555
Ni2 O7 1_555 1_555
Ni4 O17 1_555 1_555
Ni2A O7A 1_555 1_555
C1A C7A 1_555 1_555
Ni4A O17A 1_555 1_555
C10A C16A 1_555 1_555

#END
