
#######################################################################
#
#                 Cambridge Crystallographic Data Centre
#                                CCDC 
#
#######################################################################
#
# If this CIF has been generated from an entry in the Cambridge 
# Structural Database, then it will include bibliographic, chemical, 
# crystal, experimental, refinement or atomic coordinate data resulting 
# from the CCDC's data processing and validation procedures.
#
#######################################################################

data_MENFUH
_symmetry_cell_setting           monoclinic
_symmetry_space_group_name_H-M   'P 21/n'
_symmetry_Int_Tables_number      14
_space_group_name_Hall           '-P 2yn'
loop_
_symmetry_equiv_pos_site_id
_symmetry_equiv_pos_as_xyz
1 x,y,z
2 1/2-x,1/2+y,1/2-z
3 -x,-y,-z
4 1/2+x,1/2-y,1/2+z
_cell_length_a                   8.639(2)
_cell_length_b                   9.617(3)
_cell_length_c                   16.951(4)
_cell_angle_alpha                90
_cell_angle_beta                 99.324(5)
_cell_angle_gamma                90
_cell_volume                     1389.7
loop_
_atom_site_label
_atom_site_type_symbol
_atom_site_fract_x
_atom_site_fract_y
_atom_site_fract_z
Cd1 Cd 0.275301(17) 0.000529(16) 0.131012(9)
N1 N 0.5271(2) 0.0839(2) 0.17162(12)
O1 O 0.2477(3) -0.0241(2) 0.26060(11)
H1 H 0.277(3) -0.096(3) 0.2897(16)
H2 H 0.233(4) 0.040(3) 0.2964(19)
O2 O 0.0439(2) -0.1302(2) 0.11065(13)
H3 H 0.084(4) -0.205(4) 0.1076(19)
H4 H -0.012(5) -0.129(4) 0.072(2)
O3 O 0.3748(2) -0.15712(16) 0.05608(10)
O4 O 0.3129(2) -0.30375(19) 0.14639(10)
O5 O 0.1741(2) 0.23971(17) 0.14765(10)
O6 O 0.1678(2) 0.14968(17) 0.02808(9)
C1 C 0.5533(3) 0.1730(3) 0.23243(16)
H5 H 0.4691 0.1998 0.2569
C2 C 0.6987(4) 0.2273(4) 0.26082(18)
H6 H 0.7128 0.2885 0.3038
C3 C 0.8229(3) 0.1889(4) 0.2242(2)
H7 H 0.9230 0.2233 0.2423
C4 C 0.7974(3) 0.1001(3) 0.1612(2)
H8 H 0.8798 0.0741 0.1352
C5 C 0.6482(3) 0.0483(3) 0.13573(18)
H9 H 0.6318 -0.0128 0.0927
C6 C 0.3714(3) -0.2773(2) 0.08481(13)
C7 C 0.4401(2) -0.3928(2) 0.04179(13)
C8 C 0.4639(3) -0.3735(2) -0.03601(14)
H10 H 0.4402 -0.2880 -0.0606
C9 C 0.4774(3) -0.5201(2) 0.07813(15)
H11 H 0.4632 -0.5344 0.1307
C10 C 0.1414(3) 0.2488(2) 0.07319(14)
C11 C 0.0680(2) 0.3793(2) 0.03542(13)
C12 C 0.1034(3) 0.4245(2) -0.03750(14)
H12 H 0.1735 0.3742 -0.0626
C13 C -0.0347(3) 0.4558(3) 0.07308(15)
H13 H -0.0576 0.4269 0.1223
Cd1B Cd 0.724699(17) -1.000529(16) -0.131012(9)
Cd1B_2 Cd -0.275301(17) 0.999471(16) -0.131012(9)
N1B N 0.4729(2) -1.0839(2) -0.17162(12)
O1B O 0.7523(3) -0.9759(2) -0.26060(11)
H1B H 0.723(3) -0.904(3) -0.2897(16)
H2B H 0.767(4) -1.040(3) -0.2964(19)
O2B O 0.9561(2) -0.8698(2) -0.11065(13)
H3B H 0.916(4) -0.795(4) -0.1076(19)
H4B H 1.012(5) -0.871(4) -0.072(2)
O3B O 0.6252(2) -0.84288(16) -0.05608(10)
O4B O 0.6871(2) -0.69625(19) -0.14639(10)
O5B O -0.1741(2) 0.76029(17) -0.14765(10)
O5B_2 O 0.8259(2) -1.23971(17) -0.14765(10)
O6B O -0.1678(2) 0.85032(17) -0.02808(9)
O6B_2 O 0.8322(2) -1.14968(17) -0.02808(9)
C1B C 0.4467(3) -1.1730(3) -0.23243(16)
H5B H 0.5309 -1.1998 -0.2569
C2B C 0.3013(4) -1.2273(4) -0.26082(18)
H6B H 0.2872 -1.2885 -0.3038
C3B C 0.1771(3) -1.1889(4) -0.2242(2)
H7B H 0.0770 -1.2233 -0.2423
C4B C 0.2026(3) -1.1001(3) -0.1612(2)
H8B H 0.1202 -1.0741 -0.1352
C5B C 0.3518(3) -1.0483(3) -0.13573(18)
H9B H 0.3682 -0.9872 -0.0927
C6B C 0.6286(3) -0.7227(2) -0.08481(13)
C7B C 0.5599(2) -0.6072(2) -0.04179(13)
C8B C 0.5361(3) -0.6265(2) 0.03601(14)
H10B H 0.5598 -0.7120 0.0606
C9B C 0.5226(3) -0.4799(2) -0.07813(15)
H11B H 0.5368 -0.4656 -0.1307
C10B C -0.1414(3) 0.7512(2) -0.07319(14)
C11B C -0.0680(2) 0.6207(2) -0.03542(13)
C12B C -0.1034(3) 0.5755(2) 0.03750(14)
H12B H -0.1735 0.6258 0.0626
C13B C 0.0347(3) 0.5442(3) -0.07308(15)
H13B H 0.0576 0.5731 -0.1223
loop_
_geom_bond_atom_site_label_1
_geom_bond_atom_site_label_2
_geom_bond_site_symmetry_1
_geom_bond_site_symmetry_2
Cd1 N1 1_555 1_555
N1 C1 1_555 1_555
O1 Cd1 1_555 1_555
H1 O1 1_555 1_555
H2 O1 1_555 1_555
O2 Cd1 1_555 1_555
H3 O2 1_555 1_555
H4 O2 1_555 1_555
O3 Cd1 1_555 1_555
O4 C6 1_555 1_555
O5 Cd1 1_555 1_555
O6 Cd1 1_555 1_555
C1 H5 1_555 1_555
C2 C1 1_555 1_555
H6 C2 1_555 1_555
C3 C2 1_555 1_555
H7 C3 1_555 1_555
C4 C3 1_555 1_555
H8 C4 1_555 1_555
C5 N1 1_555 1_555
H9 C5 1_555 1_555
C6 O3 1_555 1_555
C7 C6 1_555 1_555
C8 C7 1_555 1_555
H10 C8 1_555 1_555
C9 C7 1_555 1_555
H11 C9 1_555 1_555
C10 O5 1_555 1_555
C11 C10 1_555 1_555
C12 C11 1_555 1_555
H12 C12 1_555 1_555
C13 C11 1_555 1_555
H13 C13 1_555 1_555
Cd1B N1B 1_555 1_555
Cd1B_2 O5B 1_555 1_555
N1B C1B 1_555 1_555
O1B Cd1B 1_555 1_555
H1B O1B 1_555 1_555
H2B O1B 1_555 1_555
O2B Cd1B 1_555 1_555
H3B O2B 1_555 1_555
H4B O2B 1_555 1_555
O3B Cd1B 1_555 1_555
O4B C6B 1_555 1_555
O5B C10B 1_555 1_555
O5B_2 Cd1B 1_555 1_555
O6B Cd1B_2 1_555 1_555
O6B_2 Cd1B 1_555 1_555
C1B H5B 1_555 1_555
C2B C1B 1_555 1_555
H6B C2B 1_555 1_555
C3B C2B 1_555 1_555
H7B C3B 1_555 1_555
C4B C3B 1_555 1_555
H8B C4B 1_555 1_555
C5B N1B 1_555 1_555
H9B C5B 1_555 1_555
C6B O3B 1_555 1_555
C7B C6B 1_555 1_555
C8B C9 1_555 1_555
H10B C8B 1_555 1_555
C9B C8 1_555 1_555
H11B C9B 1_555 1_555
C10B O6B 1_555 1_555
C11B C10B 1_555 1_555
C12B C13 1_555 1_555
H12B C12B 1_555 1_555
C13B C12 1_555 1_555
H13B C13B 1_555 1_555
O6 C10 1_555 1_555
C4 C5 1_555 1_555
C4B C5B 1_555 1_555
C7B C8B 1_555 1_555
C7B C9B 1_555 1_555
C11B C12B 1_555 1_555
C11B C13B 1_555 1_555

#END
