
#######################################################################
#
#                 Cambridge Crystallographic Data Centre
#                                CCDC 
#
#######################################################################
#
# If this CIF has been generated from an entry in the Cambridge 
# Structural Database, then it will include bibliographic, chemical, 
# crystal, experimental, refinement or atomic coordinate data resulting 
# from the CCDC's data processing and validation procedures.
#
#######################################################################

data_MENGIV
_symmetry_cell_setting           triclinic
_symmetry_space_group_name_H-M   'P -1'
_symmetry_Int_Tables_number      2
_space_group_name_Hall           '-P 1'
loop_
_symmetry_equiv_pos_site_id
_symmetry_equiv_pos_as_xyz
1 x,y,z
2 -x,-y,-z
_cell_length_a                   8.6714(3)
_cell_length_b                   10.8418(3)
_cell_length_c                   11.8514(5)
_cell_angle_alpha                76.563(2)
_cell_angle_beta                 77.804(2)
_cell_angle_gamma                68.245(2)
_cell_volume                     996.807
loop_
_atom_site_label
_atom_site_type_symbol
_atom_site_fract_x
_atom_site_fract_y
_atom_site_fract_z
Co1 Co 0.0000 0.0000 1.0000
Co2 Co -0.09792(4) 0.22120(3) 0.76607(3)
Co3 Co 0.0000 0.5000 0.5000
Cl1 Cl 0.04700(7) 0.21313(5) 0.91070(5)
Cl2 Cl -0.08369(7) -0.00083(5) 0.81272(5)
Cl3 Cl -0.36211(7) 0.36674(6) 0.77951(6)
Cl4 Cl 0.04571(7) 0.25833(5) 0.58491(5)
O1 O 0.2463(2) 0.44397(19) 0.43518(16)
H1 H 0.319(3) 0.377(3) 0.464(2)
H2 H 0.284(3) 0.491(3) 0.388(3)
O2 O 0.24701(18) -0.10804(15) 0.94454(14)
C1 C 0.3921(3) -0.0729(3) 0.9494(2)
H3 H 0.3927 -0.0614 1.0297
H4 H 0.3902 0.0121 0.8952
C2 C 0.5423(3) -0.1869(3) 0.9135(3)
H5 H 0.5832 -0.2538 0.9827
H6 H 0.6341 -0.1542 0.8693
C3 C 0.4810(4) -0.2469(3) 0.8374(3)
H7 H 0.5479 -0.3435 0.8384
H8 H 0.4863 -0.1987 0.7555
C4 C 0.3025(3) -0.2288(2) 0.8919(2)
H9 H 0.2322 -0.2171 0.8318
H10 H 0.2964 -0.3078 0.9522
O3 O -0.0519(2) 0.46862(15) 0.34626(14)
C5 C -0.2032(3) 0.5445(2) 0.29269(19)
H11 H -0.2215 0.6422 0.2784
H12 H -0.3020 0.5281 0.3443
C6 C -0.1762(3) 0.4950(2) 0.1774(2)
H13 H -0.2500 0.4426 0.1810
H14 H -0.1992 0.5716 0.1116
C7 C 0.0068(3) 0.4065(3) 0.1631(2)
H15 H 0.0243 0.3319 0.1217
H16 H 0.0790 0.4595 0.1194
C8 C 0.0420(3) 0.3545(2) 0.2864(2)
H17 H 0.0029 0.2771 0.3210
H18 H 0.1634 0.3261 0.2905
Cl1A Cl -0.04700(7) -0.21313(5) 1.08930(5)
Cl2A Cl 0.08369(7) 0.00083(5) 1.18728(5)
O2A O -0.24701(18) 0.10804(15) 1.05546(14)
Cl4A Cl -0.04571(7) 0.74167(5) 0.41509(5)
O1A O -0.2463(2) 0.55603(19) 0.56482(16)
O3A O 0.0519(2) 0.53138(15) 0.65374(14)
Co2A Co 0.09792(4) -0.22120(3) 1.23393(3)
C1A C -0.3921(3) 0.0729(3) 1.0506(2)
C4A C -0.3025(3) 0.2288(2) 1.1081(2)
Co2A_2 Co 0.09792(4) 0.77880(3) 0.23393(3)
H1A H -0.319(3) 0.623(3) 0.536(2)
H2A H -0.284(3) 0.509(3) 0.612(3)
C5A C 0.2032(3) 0.4555(2) 0.70731(19)
C8A C -0.0420(3) 0.6455(2) 0.7136(2)
Cl3A Cl 0.36211(7) -0.36674(6) 1.22049(6)
Cl4A_2 Cl -0.04571(7) -0.25833(5) 1.41509(5)
H3A H -0.3927 0.0614 0.9703
H4A H -0.3902 -0.0121 1.1048
C2A C -0.5423(3) 0.1869(3) 1.0865(3)
C3A C -0.4810(4) 0.2469(3) 1.1626(3)
H9A H -0.2322 0.2171 1.1682
H10A H -0.2964 0.3078 1.0478
H11A H 0.2215 0.3578 0.7216
H12A H 0.3020 0.4719 0.6557
C6A C 0.1762(3) 0.5050(2) 0.8226(2)
C7A C -0.0068(3) 0.5935(3) 0.8369(2)
H17A H -0.0029 0.7229 0.6790
H18A H -0.1634 0.6739 0.7095
H5A H -0.5832 0.2538 1.0173
H6A H -0.6341 0.1542 1.1307
H7A H -0.5479 0.3435 1.1616
H8A H -0.4863 0.1987 1.2445
H13A H 0.2500 0.5574 0.8190
H14A H 0.1992 0.4284 0.8884
H15A H -0.0243 0.6681 0.8783
H16A H -0.0790 0.5405 0.8806
O4 O 0.4950(2) 0.23637(18) 0.51517(17)
C9 C 0.5132(3) 0.1317(2) 0.6159(2)
H19 H 0.4146 0.1016 0.6364
H20 H 0.5263 0.1632 0.6841
C10 C 0.6690(3) 0.0194(2) 0.5800(2)
H21 H 0.6407 -0.0464 0.5500
H22 H 0.7327 -0.0282 0.6467
C11 C 0.7677(4) 0.0904(3) 0.4846(3)
H23 H 0.8742 0.0810 0.5094
H24 H 0.7939 0.0519 0.4121
C12 C 0.6593(3) 0.2354(3) 0.4644(3)
H25 H 0.6961 0.2897 0.5027
H26 H 0.6631 0.2722 0.3796
loop_
_geom_bond_atom_site_label_1
_geom_bond_atom_site_label_2
_geom_bond_site_symmetry_1
_geom_bond_site_symmetry_2
Co1 Cl1 1_555 1_555
Co2 Cl1 1_555 1_555
Co3 Cl4 1_555 1_555
Cl2 Co1 1_555 1_555
Cl3 Co2 1_555 1_555
Cl4 Co2 1_555 1_555
O1 Co3 1_555 1_555
H1 O1 1_555 1_555
H2 O1 1_555 1_555
O2 Co1 1_555 1_555
C1 O2 1_555 1_555
H3 C1 1_555 1_555
H4 C1 1_555 1_555
C2 C1 1_555 1_555
H5 C2 1_555 1_555
H6 C2 1_555 1_555
C3 C2 1_555 1_555
H7 C3 1_555 1_555
H8 C3 1_555 1_555
C4 O2 1_555 1_555
H9 C4 1_555 1_555
H10 C4 1_555 1_555
O3 Co3 1_555 1_555
C5 O3 1_555 1_555
H11 C5 1_555 1_555
H12 C5 1_555 1_555
C6 C5 1_555 1_555
H13 C6 1_555 1_555
H14 C6 1_555 1_555
C7 C6 1_555 1_555
H15 C7 1_555 1_555
H16 C7 1_555 1_555
C8 O3 1_555 1_555
H17 C8 1_555 1_555
H18 C8 1_555 1_555
O4 C9 1_555 1_555
C9 H19 1_555 1_555
H20 C9 1_555 1_555
C10 C9 1_555 1_555
H21 C10 1_555 1_555
H22 C10 1_555 1_555
C11 C10 1_555 1_555
H23 C11 1_555 1_555
H24 C11 1_555 1_555
C12 O4 1_555 1_555
H25 C12 1_555 1_555
H26 C12 1_555 1_555
Cl1A Co1 1_555 1_555
Cl2A Co1 1_555 1_555
O2A Co1 1_555 1_555
Cl4A Co3 1_555 1_555
O1A Co3 1_555 1_555
O3A Co3 1_555 1_555
Co2A Cl1A 1_555 1_555
C1A O2A 1_555 1_555
C4A O2A 1_555 1_555
Co2A_2 Cl4A 1_555 1_555
H1A O1A 1_555 1_555
H2A O1A 1_555 1_555
C5A O3A 1_555 1_555
C8A O3A 1_555 1_555
Cl3A Co2A 1_555 1_555
Cl4A_2 Co2A 1_555 1_555
H3A C1A 1_555 1_555
H4A C1A 1_555 1_555
C2A C1A 1_555 1_555
C3A C4A 1_555 1_555
H9A C4A 1_555 1_555
H10A C4A 1_555 1_555
H11A C5A 1_555 1_555
H12A C5A 1_555 1_555
C6A C5A 1_555 1_555
C7A C8A 1_555 1_555
H17A C8A 1_555 1_555
H18A C8A 1_555 1_555
H5A C2A 1_555 1_555
H6A C2A 1_555 1_555
H7A C3A 1_555 1_555
H8A C3A 1_555 1_555
H13A C6A 1_555 1_555
H14A C6A 1_555 1_555
H15A C7A 1_555 1_555
H16A C7A 1_555 1_555
Co2 Cl2 1_555 1_555
C3 C4 1_555 1_555
C7 C8 1_555 1_555
C11 C12 1_555 1_555
Cl2A Co2A 1_555 1_555
C2A C3A 1_555 1_555
C6A C7A 1_555 1_555

#END
