
#######################################################################
#
#                 Cambridge Crystallographic Data Centre
#                                CCDC 
#
#######################################################################
#
# If this CIF has been generated from an entry in the Cambridge 
# Structural Database, then it will include bibliographic, chemical, 
# crystal, experimental, refinement or atomic coordinate data resulting 
# from the CCDC's data processing and validation procedures.
#
#######################################################################

data_MENGER
_symmetry_cell_setting           monoclinic
_symmetry_space_group_name_H-M   'P 21/c'
_symmetry_Int_Tables_number      14
_space_group_name_Hall           '-P 2ybc'
loop_
_symmetry_equiv_pos_site_id
_symmetry_equiv_pos_as_xyz
1 x,y,z
2 x,1/2-y,1/2+z
3 -x,-y,-z
4 -x,1/2+y,1/2-z
_cell_length_a                   10.9390(3)
_cell_length_b                   12.1510(4)
_cell_length_c                   12.6313(3)
_cell_angle_alpha                90
_cell_angle_beta                 103.068(2)
_cell_angle_gamma                90
_cell_volume                     1635.47
loop_
_atom_site_label
_atom_site_type_symbol
_atom_site_fract_x
_atom_site_fract_y
_atom_site_fract_z
Co1 Co 0.5000 0.5000 0.0000
Co2 Co 0.71063(3) 0.47359(3) 0.22579(3)
Co3 Co 1.0000 0.5000 0.5000
Cl1 Cl 0.49854(6) 0.50308(6) 0.19444(5)
Cl2 Cl 0.73657(6) 0.52806(6) 0.05902(5)
Cl3 Cl 0.77143(7) 0.29723(6) 0.25794(5)
Cl4 Cl 0.80623(6) 0.57385(6) 0.37511(5)
O1 O 1.07727(19) 0.65599(16) 0.51336(17)
H1 H 1.120(3) 0.664(3) 0.565(3)
C1 C 1.0313(3) 0.7619(2) 0.4705(2)
H2 H 0.9983 0.7561 0.3918
H3 H 1.1001 0.8154 0.4854
H4 H 0.9644 0.7862 0.5052
O2 O 0.52518(18) 0.33389(15) 0.01191(15)
C2 C 0.6092(4) 0.2726(3) -0.0405(3)
H5 H 0.5934 0.2921 -0.1185
H6 H 0.6976 0.2904 -0.0062
C3 C 0.5859(4) 0.1581(3) -0.0282(4)
H7 H 0.6656 0.1199 0.0037
H8 H 0.5501 0.1250 -0.1002
C4 C 0.4982(4) 0.1445(3) 0.0426(3)
H9 H 0.5403 0.1085 0.1115
H10 H 0.4260 0.0985 0.0066
C5 C 0.4549(3) 0.2564(2) 0.0643(3)
H11 H 0.3636 0.2640 0.0337
H12 H 0.4718 0.2704 0.1435
O3 O 1.07433(19) 0.46593(15) 0.36677(15)
C6 C 1.1290(3) 0.3618(2) 0.3435(2)
H13 H 1.0627 0.3089 0.3099
H14 H 1.1802 0.3289 0.4108
C7 C 1.2100(3) 0.3916(3) 0.2652(3)
H15 H 1.2953 0.4135 0.3046
H16 H 1.2165 0.3293 0.2163
C8 C 1.1406(3) 0.4873(3) 0.2028(3)
H17 H 1.1980 0.5342 0.1720
H18 H 1.0716 0.4614 0.1431
C9 C 1.0904(3) 0.5486(3) 0.2870(3)
H19 H 1.1502 0.6062 0.3216
H20 H 1.0092 0.5839 0.2538
Cl1B Cl 0.50146(6) 0.49692(6) -0.19444(5)
Cl2B Cl 0.26343(6) 0.47194(6) -0.05902(5)
O2B O 0.47482(18) 0.66611(15) -0.01191(15)
Cl4B Cl 1.19377(6) 0.42615(6) 0.62489(5)
O1B O 0.92273(19) 0.34401(16) 0.48664(17)
O3B O 0.92567(19) 0.53407(15) 0.63323(15)
Co2B Co 0.28937(3) 0.52641(3) -0.22579(3)
C2B C 0.3908(4) 0.7274(3) 0.0405(3)
C5B C 0.5451(3) 0.7436(2) -0.0643(3)
Co2B_2 Co 1.28937(3) 0.52641(3) 0.77421(3)
H1B H 0.880(3) 0.336(3) 0.435(3)
C1B C 0.9687(3) 0.2381(2) 0.5295(2)
C6B C 0.8710(3) 0.6382(2) 0.6565(2)
C9B C 0.9096(3) 0.4514(3) 0.7130(3)
Cl3B Cl 0.22857(7) 0.70277(6) -0.25794(5)
Cl4B_2 Cl 0.19377(6) 0.42615(6) -0.37511(5)
H5B H 0.4066 0.7079 0.1185
H6B H 0.3024 0.7096 0.0062
C3B C 0.4141(4) 0.8419(3) 0.0282(4)
C4B C 0.5018(4) 0.8555(3) -0.0426(3)
H11B H 0.6364 0.7360 -0.0337
H12B H 0.5282 0.7296 -0.1435
H2B H 1.0017 0.2439 0.6082
H3B H 0.8999 0.1846 0.5146
H4B H 1.0356 0.2138 0.4948
H13B H 0.9373 0.6911 0.6901
H14B H 0.8198 0.6711 0.5892
C7B C 0.7900(3) 0.6084(3) 0.7348(3)
C8B C 0.8594(3) 0.5127(3) 0.7972(3)
H19B H 0.8498 0.3938 0.6784
H20B H 0.9908 0.4161 0.7462
H7B H 0.3344 0.8801 -0.0037
H8B H 0.4499 0.8750 0.1002
H9B H 0.4597 0.8915 -0.1115
H10B H 0.5740 0.9015 -0.0066
H15B H 0.7047 0.5865 0.6954
H16B H 0.7835 0.6707 0.7837
H17B H 0.8020 0.4658 0.8280
H18B H 0.9284 0.5386 0.8569
loop_
_geom_bond_atom_site_label_1
_geom_bond_atom_site_label_2
_geom_bond_site_symmetry_1
_geom_bond_site_symmetry_2
Co1 Cl1 1_555 1_555
Co2 Cl1 1_555 1_555
Co3 Cl4 1_555 1_555
Cl2 Co1 1_555 1_555
Cl3 Co2 1_555 1_555
Cl4 Co2 1_555 1_555
O1 Co3 1_555 1_555
H1 O1 1_555 1_555
C1 O1 1_555 1_555
H2 C1 1_555 1_555
H3 C1 1_555 1_555
H4 C1 1_555 1_555
O2 Co1 1_555 1_555
C2 O2 1_555 1_555
H5 C2 1_555 1_555
H6 C2 1_555 1_555
C3 C2 1_555 1_555
H7 C3 1_555 1_555
H8 C3 1_555 1_555
C4 C3 1_555 1_555
H9 C4 1_555 1_555
H10 C4 1_555 1_555
C5 O2 1_555 1_555
H11 C5 1_555 1_555
H12 C5 1_555 1_555
O3 Co3 1_555 1_555
C6 O3 1_555 1_555
H13 C6 1_555 1_555
H14 C6 1_555 1_555
C7 C6 1_555 1_555
H15 C7 1_555 1_555
H16 C7 1_555 1_555
C8 C7 1_555 1_555
H17 C8 1_555 1_555
H18 C8 1_555 1_555
C9 O3 1_555 1_555
H19 C9 1_555 1_555
H20 C9 1_555 1_555
Cl1B Co1 1_555 1_555
Cl2B Co1 1_555 1_555
O2B Co1 1_555 1_555
Cl4B Co3 1_555 1_555
O1B Co3 1_555 1_555
O3B Co3 1_555 1_555
Co2B Cl1B 1_555 1_555
C2B O2B 1_555 1_555
C5B O2B 1_555 1_555
Co2B_2 Cl4B 1_555 1_555
H1B O1B 1_555 1_555
C1B O1B 1_555 1_555
C6B O3B 1_555 1_555
C9B O3B 1_555 1_555
Cl3B Co2B 1_555 1_555
Cl4B_2 Co2B 1_555 1_555
H5B C2B 1_555 1_555
H6B C2B 1_555 1_555
C3B C2B 1_555 1_555
C4B C5B 1_555 1_555
H11B C5B 1_555 1_555
H12B C5B 1_555 1_555
H2B C1B 1_555 1_555
H3B C1B 1_555 1_555
H4B C1B 1_555 1_555
H13B C6B 1_555 1_555
H14B C6B 1_555 1_555
C7B C6B 1_555 1_555
C8B C9B 1_555 1_555
H19B C9B 1_555 1_555
H20B C9B 1_555 1_555
H7B C3B 1_555 1_555
H8B C3B 1_555 1_555
H9B C4B 1_555 1_555
H10B C4B 1_555 1_555
H15B C7B 1_555 1_555
H16B C7B 1_555 1_555
H17B C8B 1_555 1_555
H18B C8B 1_555 1_555
Co2 Cl2 1_555 1_555
C4 C5 1_555 1_555
C8 C9 1_555 1_555
Cl2B Co2B 1_555 1_555
C3B C4B 1_555 1_555
C7B C8B 1_555 1_555

#END
