
#######################################################################
#
#                 Cambridge Crystallographic Data Centre
#                                CCDC 
#
#######################################################################
#
# If this CIF has been generated from an entry in the Cambridge 
# Structural Database, then it will include bibliographic, chemical, 
# crystal, experimental, refinement or atomic coordinate data resulting 
# from the CCDC's data processing and validation procedures.
#
#######################################################################

data_MENMAU
_symmetry_cell_setting           monoclinic
_symmetry_space_group_name_H-M   'P 21/n'
_symmetry_Int_Tables_number      14
_space_group_name_Hall           '-P 2yn'
loop_
_symmetry_equiv_pos_site_id
_symmetry_equiv_pos_as_xyz
1 x,y,z
2 1/2-x,1/2+y,1/2-z
3 -x,-y,-z
4 1/2+x,1/2-y,1/2+z
_cell_length_a                   11.730(10)
_cell_length_b                   9.863(6)
_cell_length_c                   12.230(10)
_cell_angle_alpha                90
_cell_angle_beta                 109.07(2)
_cell_angle_gamma                90
_cell_volume                     1337.27
loop_
_atom_site_label
_atom_site_type_symbol
_atom_site_fract_x
_atom_site_fract_y
_atom_site_fract_z
Zn1 Zn 0.12741(10) 0.10062(9) 0.09783(8)
N1 N 0.0729(5) 0.0677(6) 0.2403(5)
O1 O 0.1100(5) -0.0832(4) 0.0237(5)
O2 O 0.2697(6) -0.0458(6) -0.0368(6)
O3 O 0.1392(5) -0.6052(5) 0.1471(5)
O4 O 0.1256(5) -0.7459(5) -0.0025(5)
C1 C 0.1909(7) -0.1238(7) -0.0238(6)
C2 C 0.1846(6) -0.2693(7) -0.0614(6)
C3 C 0.2114(7) -0.3015(8) -0.1631(6)
H1 H 0.2319 -0.2326 -0.2053
C4 C 0.2076(8) -0.4355(8) -0.2009(7)
H2 H 0.2230 -0.4561 -0.2689
C5 C 0.1799(7) -0.5393(7) -0.1341(6)
H3 H 0.1759 -0.6287 -0.1593
C6 C 0.1582(6) -0.5097(6) -0.0295(6)
C7 C 0.1557(6) -0.3738(6) 0.0037(6)
H4 H 0.1350 -0.3527 0.0689
C8 C 0.1375(7) -0.6265(7) 0.0439(7)
C9 C 0.0587(8) -0.0604(8) 0.2724(6)
H5 H 0.0684 -0.1311 0.2260
C10 C 0.0302(8) -0.0922(8) 0.3720(7)
H6 H 0.0212 -0.1822 0.3905
C11 C 0.0148(7) 0.0146(8) 0.4452(6)
C12 C 0.0274(7) 0.1486(8) 0.4089(6)
H7 H 0.0157 0.2220 0.4518
C13 C 0.0571(7) 0.1706(8) 0.3091(6)
H8 H 0.0666 0.2594 0.2882
O5 O 0.3153(5) 0.0962(5) 0.1934(5)
H9 H 0.3636 0.0894 0.1548
H10 H 0.3312 0.0290 0.2394
Zn1B Zn -0.12741(10) -0.10062(9) 0.90217(8)
Zn1_2 Zn 0.12741(10) -0.89938(9) 0.09783(8)
Zn1_3 Zn 0.12741(10) 1.10062(9) 0.09783(8)
N1B N -0.0729(5) -0.0677(6) 0.7597(5)
O1_2 O 0.1100(5) 0.9168(4) 0.0237(5)
O1B O -0.1100(5) 0.0832(4) 0.9763(5)
O2_2 O 0.2697(6) 0.9542(6) -0.0368(6)
O3_2 O 0.1392(5) 0.3948(5) 0.1471(5)
O4_2 O 0.1256(5) 0.2541(5) -0.0025(5)
O4B O -0.1256(5) -0.2541(5) 1.0025(5)
C1_2 C 0.1909(7) 0.8762(7) -0.0238(6)
C2_2 C 0.1846(6) 0.7307(7) -0.0614(6)
C3_2 C 0.2114(7) 0.6985(8) -0.1631(6)
H1_2 H 0.2319 0.7674 -0.2053
C4_2 C 0.2076(8) 0.5645(8) -0.2009(7)
H2_2 H 0.2230 0.5439 -0.2689
C5_2 C 0.1799(7) 0.4607(7) -0.1341(6)
H3_2 H 0.1759 0.3713 -0.1593
C6_2 C 0.1582(6) 0.4903(6) -0.0295(6)
C7_2 C 0.1557(6) 0.6262(6) 0.0037(6)
H4_2 H 0.1350 0.6473 0.0689
C8_2 C 0.1375(7) 0.3735(7) 0.0439(7)
C9B C -0.0587(8) 0.0604(8) 0.7276(6)
H5B H -0.0684 0.1311 0.7740
C10B C -0.0302(8) 0.0922(8) 0.6280(7)
H6B H -0.0212 0.1822 0.6095
C11B C -0.0148(7) -0.0146(8) 0.5548(6)
C12B C -0.0274(7) -0.1486(8) 0.5911(6)
H7B H -0.0157 -0.2220 0.5482
C13B C -0.0571(7) -0.1706(8) 0.6909(6)
H8B H -0.0666 -0.2594 0.7118
O5B O -0.3153(5) -0.0962(5) 0.8066(5)
H9B H -0.3636 -0.0894 0.8452
H10B H -0.3312 -0.0290 0.7606
O6 O 0.4785(12) 0.0710(14) 0.0620(11)
H11 H 0.4680 0.0230 0.0018
H12 H 0.5506 0.0703 0.1082
loop_
_geom_bond_atom_site_label_1
_geom_bond_atom_site_label_2
_geom_bond_site_symmetry_1
_geom_bond_site_symmetry_2
Zn1 N1 1_555 1_555
N1 C9 1_555 1_555
O1 Zn1 1_555 1_555
O2 C1 1_555 1_555
O3 C8 1_555 1_555
O4 C8 1_555 1_555
C1 O1 1_555 1_555
C2 C1 1_555 1_555
C3 C2 1_555 1_555
H1 C3 1_555 1_555
C4 C3 1_555 1_555
H2 C4 1_555 1_555
C5 C4 1_555 1_555
H3 C5 1_555 1_555
C6 C5 1_555 1_555
C7 C2 1_555 1_555
H4 C7 1_555 1_555
C8 C6 1_555 1_555
C9 H5 1_555 1_555
C10 C9 1_555 1_555
H6 C10 1_555 1_555
C11 C10 1_555 1_555
C12 C11 1_555 1_555
H7 C12 1_555 1_555
C13 N1 1_555 1_555
H8 C13 1_555 1_555
O5 Zn1 1_555 1_555
H9 O5 1_555 1_555
H10 O5 1_555 1_555
O6 H11 1_555 1_555
H12 O6 1_555 1_555
Zn1B N1B 1_555 1_555
Zn1_2 O4 1_555 1_555
Zn1_3 O1_2 1_555 1_555
N1B C9B 1_555 1_555
O1_2 C1_2 1_555 1_555
O1B Zn1B 1_555 1_555
O2_2 C1_2 1_555 1_555
O3_2 C8_2 1_555 1_555
O4_2 Zn1 1_555 1_555
O4B Zn1B 1_555 1_555
C1_2 C2_2 1_555 1_555
C2_2 C3_2 1_555 1_555
C3_2 H1_2 1_555 1_555
C4_2 C3_2 1_555 1_555
H2_2 C4_2 1_555 1_555
C5_2 C4_2 1_555 1_555
H3_2 C5_2 1_555 1_555
C6_2 C5_2 1_555 1_555
C7_2 C2_2 1_555 1_555
H4_2 C7_2 1_555 1_555
C8_2 O4_2 1_555 1_555
C9B H5B 1_555 1_555
C10B C9B 1_555 1_555
H6B C10B 1_555 1_555
C11B C11 1_555 1_555
C12B C11B 1_555 1_555
H7B C12B 1_555 1_555
C13B N1B 1_555 1_555
H8B C13B 1_555 1_555
O5B Zn1B 1_555 1_555
H9B O5B 1_555 1_555
H10B O5B 1_555 1_555
C6 C7 1_555 1_555
C12 C13 1_555 1_555
C6_2 C7_2 1_555 1_555
C6_2 C8_2 1_555 1_555
C10B C11B 1_555 1_555
C12B C13B 1_555 1_555

#END
