
#######################################################################
#
#                 Cambridge Crystallographic Data Centre
#                                CCDC 
#
#######################################################################
#
# If this CIF has been generated from an entry in the Cambridge 
# Structural Database, then it will include bibliographic, chemical, 
# crystal, experimental, refinement or atomic coordinate data resulting 
# from the CCDC's data processing and validation procedures.
#
#######################################################################

data_MENTOP
_symmetry_cell_setting           monoclinic
_symmetry_space_group_name_H-M   'P 21/c'
_symmetry_Int_Tables_number      14
_space_group_name_Hall           '-P 2ybc'
loop_
_symmetry_equiv_pos_site_id
_symmetry_equiv_pos_as_xyz
1 x,y,z
2 -x,1/2+y,1/2-z
3 -x,-y,-z
4 x,1/2-y,1/2+z
_cell_length_a                   11.8544(14)
_cell_length_b                   13.0110(13)
_cell_length_c                   11.8523(13)
_cell_angle_alpha                90
_cell_angle_beta                 102.379(2)
_cell_angle_gamma                90
_cell_volume                     1785.57
loop_
_atom_site_label
_atom_site_type_symbol
_atom_site_fract_x
_atom_site_fract_y
_atom_site_fract_z
Zn1 Zn 0.45104(5) 0.24968(4) 0.32992(4)
Zn2 Zn 0.42308(5) 0.55547(4) 0.26777(4)
O1 O 0.3638(3) 0.4244(3) 0.3082(3)
O2 O 0.3415(3) 0.3045(3) 0.4268(3)
O3 O 0.4221(3) 0.4490(3) 0.6403(3)
O4 O 0.3330(3) 0.3236(3) 0.7179(3)
O5 O 0.6659(3) 0.1707(3) 0.1963(3)
O6 O 0.5655(3) 0.3029(3) 0.2461(3)
O7 O 0.5537(3) 0.3121(3) -0.0321(3)
O8 O 0.5917(3) 0.4633(3) -0.1040(3)
C1 C 0.3215(4) 0.3933(4) 0.3918(4)
C2 C 0.2483(4) 0.4647(3) 0.4471(3)
H1 H 0.2931 0.5277 0.4684
C3 C 0.1351(4) 0.4957(4) 0.3631(4)
H2 H 0.1080 0.5602 0.3886
H3 H 0.1507 0.5065 0.2869
C4 C 0.0434(5) 0.4177(5) 0.3553(5)
H4 H -0.0185 0.4204 0.2922
C5 C 0.0437(5) 0.3445(5) 0.4320(5)
H5 H -0.0182 0.2990 0.4198
C6 C 0.1373(4) 0.3298(4) 0.5378(4)
H6 H 0.1786 0.2667 0.5298
H7 H 0.1025 0.3222 0.6043
C7 C 0.2232(4) 0.4187(4) 0.5595(3)
H8 H 0.1859 0.4734 0.5950
C8 C 0.3356(4) 0.3941(4) 0.6453(4)
C9 C 0.6453(4) 0.2663(4) 0.2037(4)
C10 C 0.7276(4) 0.3413(4) 0.1659(4)
H9 H 0.7733 0.3707 0.2373
C11 C 0.8156(4) 0.2932(4) 0.1036(4)
H10 H 0.8697 0.2515 0.1578
H11 H 0.7756 0.2486 0.0423
C12 C 0.8813(5) 0.3748(4) 0.0528(5)
H12 H 0.9442 0.3537 0.0235
C13 C 0.8558(5) 0.4729(5) 0.0473(4)
H13 H 0.9033 0.5175 0.0174
C14 C 0.7542(4) 0.5166(4) 0.0867(4)
H14 H 0.7174 0.5683 0.0320
H15 H 0.7801 0.5496 0.1611
C15 C 0.6668(4) 0.4325(3) 0.0968(3)
H16 H 0.6115 0.4610 0.1391
C16 C 0.6001(4) 0.3998(4) -0.0225(4)
Zn1C Zn 0.45104(5) 0.25032(4) 0.82992(4)
Zn1C_2 Zn 0.45104(5) 0.25032(4) -0.17008(4)
Zn2B Zn 0.57692(5) 0.44453(4) 0.73223(4)
Zn2A Zn 0.57692(5) 0.05547(4) 0.23223(4)
Zn2B_2 Zn 0.57692(5) 0.44453(4) -0.26777(4)
O3B O 0.5779(3) 0.5510(3) 0.3597(3)
O4C O 0.3330(3) 0.1764(3) 0.2179(3)
O5A O 0.3341(3) 0.6707(3) 0.3037(3)
O7C O 0.5537(3) 0.1879(3) 0.4679(3)
O8B O 0.4083(3) 0.5367(3) 0.1040(3)
loop_
_geom_bond_atom_site_label_1
_geom_bond_atom_site_label_2
_geom_bond_site_symmetry_1
_geom_bond_site_symmetry_2
Zn1 O2 1_555 1_555
Zn2 O1 1_555 1_555
O1 C1 1_555 1_555
O2 C1 1_555 1_555
O3 C8 1_555 1_555
O4 C8 1_555 1_555
O5 C9 1_555 1_555
O6 Zn1 1_555 1_555
O7 C16 1_555 1_555
O8 C16 1_555 1_555
C1 C2 1_555 1_555
C2 H1 1_555 1_555
C3 C2 1_555 1_555
H2 C3 1_555 1_555
H3 C3 1_555 1_555
C4 C3 1_555 1_555
H4 C4 1_555 1_555
C5 C4 1_555 1_555
H5 C5 1_555 1_555
C6 C5 1_555 1_555
H6 C6 1_555 1_555
H7 C6 1_555 1_555
C7 C2 1_555 1_555
H8 C7 1_555 1_555
C8 C7 1_555 1_555
C9 O6 1_555 1_555
C10 C9 1_555 1_555
H9 C10 1_555 1_555
C11 C10 1_555 1_555
H10 C11 1_555 1_555
H11 C11 1_555 1_555
C12 C11 1_555 1_555
H12 C12 1_555 1_555
C13 C12 1_555 1_555
H13 C13 1_555 1_555
C14 C13 1_555 1_555
H14 C14 1_555 1_555
H15 C14 1_555 1_555
C15 C10 1_555 1_555
H16 C15 1_555 1_555
C16 C15 1_555 1_555
Zn1C O4 1_555 1_555
Zn1C_2 O7 1_555 1_555
Zn2B O3 1_555 1_555
Zn2A O5 1_555 1_555
Zn2B_2 O8 1_555 1_555
O3B Zn2 1_555 1_555
O4C Zn1 1_555 1_555
O5A Zn2 1_555 1_555
O7C Zn1 1_555 1_555
O8B Zn2 1_555 1_555
C6 C7 1_555 1_555
C14 C15 1_555 1_555

#END
