
#######################################################################
#
#                 Cambridge Crystallographic Data Centre
#                                CCDC 
#
#######################################################################
#
# If this CIF has been generated from an entry in the Cambridge 
# Structural Database, then it will include bibliographic, chemical, 
# crystal, experimental, refinement or atomic coordinate data resulting 
# from the CCDC's data processing and validation procedures.
#
#######################################################################

data_MEPBIT
_symmetry_cell_setting           monoclinic
_symmetry_space_group_name_H-M   'P 21/c'
_symmetry_Int_Tables_number      14
_space_group_name_Hall           '-P 2ybc'
loop_
_symmetry_equiv_pos_site_id
_symmetry_equiv_pos_as_xyz
1 x,y,z
2 -x,1/2+y,1/2-z
3 -x,-y,-z
4 x,1/2-y,1/2+z
_cell_length_a                   13.0365(10)
_cell_length_b                   22.8692(15)
_cell_length_c                   10.6315(8)
_cell_angle_alpha                90
_cell_angle_beta                 94.383(6)
_cell_angle_gamma                90
_cell_volume                     3160.35
loop_
_atom_site_label
_atom_site_type_symbol
_atom_site_fract_x
_atom_site_fract_y
_atom_site_fract_z
Sn1 Sn 0.27619(2) 0.241772(11) 0.57612(2)
P1 P 0.09415(8) 0.23200(4) 0.30528(9)
P2 P 0.44939(9) 0.21293(5) 0.33716(10)
O1 O 0.1424(2) 0.22931(12) 0.4390(2)
O2 O 0.3841(2) 0.20414(13) 0.4460(3)
O3 O 0.1656(2) 0.22296(12) 0.2019(3)
O4 O 0.4038(2) 0.24656(12) 0.2250(3)
C1 C 0.3063(4) 0.32537(17) 0.5004(4)
H1 H 0.3803 0.3309 0.5059
H2 H 0.2830 0.3250 0.4115
C2 C 0.2586(4) 0.37805(17) 0.5602(4)
H3 H 0.2861 0.3811 0.6473
H4 H 0.1850 0.3721 0.5599
C3 C 0.2785(4) 0.4352(2) 0.4930(5)
H5 H 0.3521 0.4418 0.4951
H6 H 0.2525 0.4319 0.4053
C4 C 0.2281(6) 0.4873(2) 0.5520(7)
H7 H 0.1549 0.4818 0.5470
H8 H 0.2440 0.5222 0.5074
H9 H 0.2536 0.4908 0.6388
C5 C 0.2639(4) 0.15385(17) 0.6382(4)
H10 H 0.3318 0.1402 0.6687
H11 H 0.2210 0.1531 0.7088
C6 C 0.2192(4) 0.11129(17) 0.5376(4)
H12 H 0.1460 0.1185 0.5221
H13 H 0.2512 0.1183 0.4595
C7 C 0.2362(6) 0.0479(2) 0.5769(5)
H14 H 0.3090 0.0413 0.5974
H15 H 0.2008 0.0403 0.6522
C8 C 0.1976(7) 0.0055(2) 0.4742(6)
H16 H 0.1245 0.0098 0.4582
H17 H 0.2133 -0.0338 0.5009
H18 H 0.2305 0.0138 0.3984
C9 C -0.00550(19) 0.17621(10) 0.2875(3)
C10 C 0.02072(18) 0.11996(11) 0.2522(3)
H19 H 0.0883 0.1113 0.2369
C11 C -0.0541(2) 0.07662(9) 0.2399(3)
H20 H -0.0366 0.0390 0.2163
C12 C -0.1552(2) 0.08953(11) 0.2629(3)
H21 H -0.2053 0.0605 0.2546
C13 C -0.18142(17) 0.14578(13) 0.2982(3)
H22 H -0.2490 0.1544 0.3135
C14 C -0.1066(2) 0.18912(9) 0.3105(3)
H23 H -0.1241 0.2268 0.3341
C15 C 0.0280(2) 0.30117(9) 0.2849(2)
C16 C -0.0074(3) 0.32013(11) 0.1652(2)
H24 H 0.0022 0.2970 0.0951
C17 C -0.0572(3) 0.37370(13) 0.1501(2)
H25 H -0.0809 0.3864 0.0700
C18 C -0.0716(3) 0.40831(10) 0.2548(3)
H26 H -0.1049 0.4441 0.2447
C19 C -0.0362(3) 0.38935(11) 0.3745(2)
H27 H -0.0459 0.4125 0.4445
C20 C 0.0136(2) 0.33578(12) 0.38959(19)
H28 H 0.0373 0.3231 0.4697
C21 C 0.4890(3) 0.14081(10) 0.2892(3)
C22 C 0.4663(3) 0.09225(13) 0.3606(3)
H29 H 0.4333 0.0970 0.4344
C23 C 0.4928(3) 0.03662(11) 0.3216(3)
H30 H 0.4776 0.0041 0.3694
C24 C 0.5422(3) 0.02954(11) 0.2113(3)
H31 H 0.5599 -0.0077 0.1852
C25 C 0.5649(3) 0.07810(14) 0.1398(3)
H32 H 0.5979 0.0734 0.0660
C26 C 0.5383(3) 0.13373(11) 0.1788(3)
H33 H 0.5536 0.1662 0.1310
C27 C 0.5672(2) 0.24993(13) 0.3930(3)
C28 C 0.5974(3) 0.30158(14) 0.3376(3)
H34 H 0.5573 0.3175 0.2700
C29 C 0.6874(3) 0.32939(15) 0.3833(4)
H35 H 0.7076 0.3639 0.3462
C30 C 0.7473(2) 0.30555(19) 0.4843(4)
H36 H 0.8076 0.3242 0.5148
C31 C 0.7171(2) 0.25390(19) 0.5397(3)
H37 H 0.7572 0.2379 0.6072
C32 C 0.6270(3) 0.22609(13) 0.4940(3)
H38 H 0.6068 0.1915 0.5310
Sn1C Sn 0.27619(2) 0.258228(11) 0.07612(2)
O3C O 0.1656(2) 0.27704(12) 0.7019(3)
O4C O 0.4038(2) 0.25344(12) 0.7250(3)
loop_
_geom_bond_atom_site_label_1
_geom_bond_atom_site_label_2
_geom_bond_site_symmetry_1
_geom_bond_site_symmetry_2
Sn1 O1 1_555 1_555
P1 O1 1_555 1_555
P2 O2 1_555 1_555
O2 Sn1 1_555 1_555
O3 P1 1_555 1_555
O4 P2 1_555 1_555
C1 Sn1 1_555 1_555
H1 C1 1_555 1_555
H2 C1 1_555 1_555
C2 C1 1_555 1_555
H3 C2 1_555 1_555
H4 C2 1_555 1_555
C3 C2 1_555 1_555
H5 C3 1_555 1_555
H6 C3 1_555 1_555
C4 C3 1_555 1_555
H7 C4 1_555 1_555
H8 C4 1_555 1_555
H9 C4 1_555 1_555
C5 Sn1 1_555 1_555
H10 C5 1_555 1_555
H11 C5 1_555 1_555
C6 C5 1_555 1_555
H12 C6 1_555 1_555
H13 C6 1_555 1_555
C7 C6 1_555 1_555
H14 C7 1_555 1_555
H15 C7 1_555 1_555
C8 C7 1_555 1_555
H16 C8 1_555 1_555
H17 C8 1_555 1_555
H18 C8 1_555 1_555
C9 P1 1_555 1_555
C10 C9 1_555 1_555
H19 C10 1_555 1_555
C11 C10 1_555 1_555
H20 C11 1_555 1_555
C12 C11 1_555 1_555
H21 C12 1_555 1_555
C13 C12 1_555 1_555
H22 C13 1_555 1_555
C14 C9 1_555 1_555
H23 C14 1_555 1_555
C15 P1 1_555 1_555
C16 C15 1_555 1_555
H24 C16 1_555 1_555
C17 C16 1_555 1_555
H25 C17 1_555 1_555
C18 C17 1_555 1_555
H26 C18 1_555 1_555
C19 C18 1_555 1_555
H27 C19 1_555 1_555
C20 C15 1_555 1_555
H28 C20 1_555 1_555
C21 P2 1_555 1_555
C22 C21 1_555 1_555
H29 C22 1_555 1_555
C23 C22 1_555 1_555
H30 C23 1_555 1_555
C24 C23 1_555 1_555
H31 C24 1_555 1_555
C25 C24 1_555 1_555
H32 C25 1_555 1_555
C26 C21 1_555 1_555
H33 C26 1_555 1_555
C27 P2 1_555 1_555
C28 C27 1_555 1_555
H34 C28 1_555 1_555
C29 C28 1_555 1_555
H35 C29 1_555 1_555
C30 C29 1_555 1_555
H36 C30 1_555 1_555
C31 C30 1_555 1_555
H37 C31 1_555 1_555
C32 C27 1_555 1_555
H38 C32 1_555 1_555
Sn1C O3 1_555 1_555
O3C Sn1 1_555 1_555
O4C Sn1 1_555 1_555
O4 Sn1C 1_555 1_555
C13 C14 1_555 1_555
C19 C20 1_555 1_555
C25 C26 1_555 1_555
C31 C32 1_555 1_555

#END
