
#######################################################################
#
#                 Cambridge Crystallographic Data Centre
#                                CCDC 
#
#######################################################################
#
# If this CIF has been generated from an entry in the Cambridge 
# Structural Database, then it will include bibliographic, chemical, 
# crystal, experimental, refinement or atomic coordinate data resulting 
# from the CCDC's data processing and validation procedures.
#
#######################################################################

data_MEPBOZ
_symmetry_cell_setting           triclinic
_symmetry_space_group_name_H-M   'P -1'
_symmetry_Int_Tables_number      2
_space_group_name_Hall           '-P 1'
loop_
_symmetry_equiv_pos_site_id
_symmetry_equiv_pos_as_xyz
1 x,y,z
2 -x,-y,-z
_cell_length_a                   12.932(2)
_cell_length_b                   14.785(4)
_cell_length_c                   15.072(3)
_cell_angle_alpha                96.86(3)
_cell_angle_beta                 109.63(2)
_cell_angle_gamma                114.88(2)
_cell_volume                     2344.89
loop_
_atom_site_label
_atom_site_type_symbol
_atom_site_fract_x
_atom_site_fract_y
_atom_site_fract_z
Sn1 Sn 0.0000 0.0000 0.0000
Sn2 Sn 0.35031(2) 0.33300(2) 0.334381(18)
P1 P 0.29167(8) 0.23994(7) 0.08094(7)
P2 P 0.09837(8) 0.06952(7) 0.26380(7)
P3 P 0.39948(8) 0.40240(7) 0.58943(7)
O1 O 0.0497(3) 0.0223(2) 0.1547(2)
O2 O 0.3148(2) 0.3030(2) 0.17912(18)
O3 O 0.3922(2) 0.3579(2) 0.49077(19)
O4 O 0.4848(2) 0.5186(2) 0.6384(2)
O5 O 0.1887(2) 0.1855(2) 0.3053(2)
O6 O 0.1882(2) 0.1275(2) 0.0395(2)
C1 C 0.0768(2) -0.10439(16) 0.00352(17)
C2 C 0.00242(18) -0.20764(18) -0.05717(17)
H1 H -0.0784 -0.2303 -0.1050
C3 C 0.0488(2) -0.27707(15) -0.0464(2)
H2 H -0.0009 -0.3462 -0.0870
C4 C 0.1695(2) -0.24324(19) 0.0251(2)
H3 H 0.2006 -0.2897 0.0323
C5 C 0.24388(19) -0.1400(2) 0.08575(19)
H4 H 0.3247 -0.1173 0.1336
C6 C 0.1975(2) -0.07056(16) 0.07498(18)
H5 H 0.2472 -0.0015 0.1156
C7 C 0.2302(2) 0.40186(19) 0.30959(19)
C8 C 0.2521(2) 0.4823(2) 0.2668(2)
H6 H 0.3186 0.5062 0.2487
C9 C 0.1746(3) 0.5269(2) 0.2510(2)
H7 H 0.1892 0.5807 0.2224
C10 C 0.0751(2) 0.4912(2) 0.2781(2)
H8 H 0.0232 0.5211 0.2676
C11 C 0.0532(2) 0.4108(2) 0.3209(2)
H9 H -0.0133 0.3869 0.3391
C12 C 0.1307(2) 0.3661(2) 0.3367(2)
H10 H 0.1161 0.3124 0.3653
C13 C 0.47370(18) 0.26883(17) 0.36169(16)
C14 C 0.5924(2) 0.32603(16) 0.44088(16)
H11 H 0.6137 0.3878 0.4846
C15 C 0.67930(18) 0.2910(2) 0.45481(17)
H12 H 0.7587 0.3293 0.5078
C16 C 0.6474(2) 0.1987(2) 0.3895(2)
H13 H 0.7056 0.1753 0.3989
C17 C 0.5287(2) 0.14152(17) 0.31035(18)
H14 H 0.5074 0.0798 0.2667
C18 C 0.44184(18) 0.17657(17) 0.29643(15)
H15 H 0.3624 0.1383 0.2434
C19 C 0.43451(18) 0.23929(19) 0.09130(18)
C20 C 0.5504(2) 0.32182(18) 0.16068(19)
H16 H 0.5539 0.3774 0.2001
C21 C 0.66109(17) 0.3213(2) 0.1711(2)
H17 H 0.7386 0.3765 0.2175
C22 C 0.6558(2) 0.2382(2) 0.1121(2)
H18 H 0.7299 0.2378 0.1191
C23 C 0.5399(3) 0.1556(2) 0.0427(2)
H19 H 0.5364 0.1001 0.0033
C24 C 0.4293(2) 0.15620(18) 0.03233(18)
H20 H 0.3517 0.1010 -0.0141
C25 C 0.2596(3) 0.3069(2) -0.00808(16)
C26 C 0.1992(3) 0.25291(18) -0.10854(18)
H21 H 0.1748 0.1823 -0.1295
C27 C 0.1754(3) 0.3044(3) -0.17773(15)
H22 H 0.1350 0.2682 -0.2449
C28 C 0.2119(4) 0.4098(3) -0.1464(2)
H23 H 0.1959 0.4443 -0.1927
C29 C 0.2722(4) 0.4639(2) -0.0460(2)
H24 H 0.2967 0.5344 -0.0251
C30 C 0.2961(4) 0.4124(2) 0.02320(17)
H25 H 0.3365 0.4485 0.0904
C31 C 0.1736(2) 0.00212(19) 0.32568(17)
C32 C 0.2705(2) 0.05292(19) 0.42077(17)
H26 H 0.2923 0.1199 0.4542
C33 C 0.3347(2) 0.0036(3) 0.46585(16)
H27 H 0.3995 0.0376 0.5295
C34 C 0.3021(3) -0.0965(3) 0.4158(2)
H28 H 0.3451 -0.1295 0.4460
C35 C 0.2052(3) -0.14734(19) 0.3207(2)
H29 H 0.1834 -0.2143 0.2873
C36 C 0.1410(2) -0.09802(19) 0.27565(16)
H30 H 0.0762 -0.1320 0.2120
C37 C -0.0378(2) 0.0440(2) 0.2877(2)
C38 C -0.1095(2) 0.0884(2) 0.2437(2)
H31 H -0.0846 0.1317 0.2064
C39 C -0.2185(2) 0.0680(3) 0.2555(3)
H32 H -0.2665 0.0976 0.2261
C40 C -0.2557(2) 0.0032(3) 0.3114(3)
H33 H -0.3286 -0.0104 0.3193
C41 C -0.1840(3) -0.0411(2) 0.3553(3)
H34 H -0.2089 -0.0844 0.3927
C42 C -0.0750(2) -0.0207(2) 0.3435(2)
H35 H -0.0271 -0.0504 0.3729
C43 C 0.4460(2) 0.33342(19) 0.67229(15)
C44 C 0.4992(2) 0.2736(2) 0.65246(15)
H36 H 0.5069 0.2646 0.5933
C45 C 0.5411(3) 0.2275(2) 0.72106(19)
H37 H 0.5767 0.1875 0.7078
C46 C 0.5297(3) 0.2410(2) 0.80951(18)
H38 H 0.5577 0.2101 0.8554
C47 C 0.4764(3) 0.3008(2) 0.82935(15)
H39 H 0.4688 0.3099 0.8885
C48 C 0.4346(2) 0.3470(2) 0.76074(17)
H40 H 0.3990 0.3870 0.7740
C49 C 0.24289(16) 0.37032(18) 0.57649(19)
C50 C 0.2140(2) 0.44779(15) 0.60025(19)
H41 H 0.2758 0.5179 0.6231
C51 C 0.0928(2) 0.4204(2) 0.5898(2)
H42 H 0.0734 0.4723 0.6057
C52 C 0.00043(18) 0.3156(2) 0.5557(2)
H43 H -0.0807 0.2973 0.5487
C53 C 0.02933(19) 0.23813(17) 0.5319(2)
H44 H -0.0325 0.1680 0.5091
C54 C 0.1506(2) 0.26548(16) 0.5423(2)
H45 H 0.1699 0.2136 0.5264
Sn2A Sn -0.35031(2) -0.33300(2) -0.334381(18)
Sn2A_2 Sn 0.64969(2) 0.66700(2) 0.665619(18)
P1A P -0.29167(8) -0.23994(7) -0.08094(7)
P2A P -0.09837(8) -0.06952(7) -0.26380(7)
P3A P 0.60052(8) 0.59760(7) 0.41057(7)
O1A O -0.0497(3) -0.0223(2) -0.1547(2)
O2A O -0.3148(2) -0.3030(2) -0.17912(18)
O3A O 0.6078(2) 0.6421(2) 0.50923(19)
O3A_2 O -0.3922(2) -0.3579(2) -0.49077(19)
O4A O 0.5152(2) 0.4814(2) 0.3616(2)
O4_2 O -0.5152(2) -0.4814(2) -0.3616(2)
O5A O -0.1887(2) -0.1855(2) -0.3053(2)
O6A O -0.1882(2) -0.1275(2) -0.0395(2)
C1A C -0.0768(2) 0.10439(16) -0.00352(17)
C2A C -0.00242(18) 0.20764(18) 0.05717(17)
H1A H 0.0784 0.2303 0.1050
C3A C -0.0488(2) 0.27707(15) 0.0464(2)
H2A H 0.0009 0.3462 0.0870
C4A C -0.1695(2) 0.24324(19) -0.0251(2)
H3A H -0.2006 0.2897 -0.0323
C5A C -0.24388(19) 0.1400(2) -0.08575(19)
H4A H -0.3247 0.1173 -0.1336
C6A C -0.1975(2) 0.07056(16) -0.07498(18)
H5A H -0.2472 0.0015 -0.1156
C7A C -0.2302(2) -0.40186(19) -0.30959(19)
C8A C -0.2521(2) -0.4823(2) -0.2668(2)
H6A H -0.3186 -0.5062 -0.2487
C9A C -0.1746(3) -0.5269(2) -0.2510(2)
H7A H -0.1892 -0.5807 -0.2224
C10A C -0.0751(2) -0.4912(2) -0.2781(2)
H8A H -0.0232 -0.5211 -0.2676
C11A C -0.0532(2) -0.4108(2) -0.3209(2)
H9A H 0.0133 -0.3869 -0.3391
C12A C -0.1307(2) -0.3661(2) -0.3367(2)
H10A H -0.1161 -0.3124 -0.3653
C13A C -0.47370(18) -0.26883(17) -0.36169(16)
C14A C -0.5924(2) -0.32603(16) -0.44088(16)
H11A H -0.6137 -0.3878 -0.4846
C15A C -0.67930(18) -0.2910(2) -0.45481(17)
H12A H -0.7587 -0.3293 -0.5078
C16A C -0.6474(2) -0.1987(2) -0.3895(2)
H13A H -0.7056 -0.1753 -0.3989
C17A C -0.5287(2) -0.14152(17) -0.31035(18)
H14A H -0.5074 -0.0798 -0.2667
C18A C -0.44184(18) -0.17657(17) -0.29643(15)
H15A H -0.3624 -0.1383 -0.2434
C19A C -0.43451(18) -0.23929(19) -0.09130(18)
C20A C -0.5504(2) -0.32182(18) -0.16068(19)
H16A H -0.5539 -0.3774 -0.2001
C21A C -0.66109(17) -0.3213(2) -0.1711(2)
H17A H -0.7386 -0.3765 -0.2175
C22A C -0.6558(2) -0.2382(2) -0.1121(2)
H18A H -0.7299 -0.2378 -0.1191
C23A C -0.5399(3) -0.1556(2) -0.0427(2)
H19A H -0.5364 -0.1001 -0.0033
C24A C -0.4293(2) -0.15620(18) -0.03233(18)
H20A H -0.3517 -0.1010 0.0141
C25A C -0.2596(3) -0.3069(2) 0.00808(16)
C26A C -0.1992(3) -0.25291(18) 0.10854(18)
H21A H -0.1748 -0.1823 0.1295
C27A C -0.1754(3) -0.3044(3) 0.17773(15)
H22A H -0.1350 -0.2682 0.2449
C28A C -0.2119(4) -0.4098(3) 0.1464(2)
H23A H -0.1959 -0.4443 0.1927
C29A C -0.2722(4) -0.4639(2) 0.0460(2)
H24A H -0.2967 -0.5344 0.0251
C30A C -0.2961(4) -0.4124(2) -0.02320(17)
H25A H -0.3365 -0.4485 -0.0904
C31A C -0.1736(2) -0.00212(19) -0.32568(17)
C32A C -0.2705(2) -0.05292(19) -0.42077(17)
H26A H -0.2923 -0.1199 -0.4542
C33A C -0.3347(2) -0.0036(3) -0.46585(16)
H27A H -0.3995 -0.0376 -0.5295
C34A C -0.3021(3) 0.0965(3) -0.4158(2)
H28A H -0.3451 0.1295 -0.4460
C35A C -0.2052(3) 0.14734(19) -0.3207(2)
H29A H -0.1834 0.2143 -0.2873
C36A C -0.1410(2) 0.09802(19) -0.27565(16)
H30A H -0.0762 0.1320 -0.2120
C37A C 0.0378(2) -0.0440(2) -0.2877(2)
C38A C 0.1095(2) -0.0884(2) -0.2437(2)
H31A H 0.0846 -0.1317 -0.2064
C39A C 0.2185(2) -0.0680(3) -0.2555(3)
H32A H 0.2665 -0.0976 -0.2261
C40A C 0.2557(2) -0.0032(3) -0.3114(3)
H33A H 0.3286 0.0104 -0.3193
C41A C 0.1840(3) 0.0411(2) -0.3553(3)
H34A H 0.2089 0.0844 -0.3927
C42A C 0.0750(2) 0.0207(2) -0.3435(2)
H35A H 0.0271 0.0504 -0.3729
C43A C 0.5540(2) 0.66658(19) 0.32771(15)
C44A C 0.5008(2) 0.7264(2) 0.34754(15)
H36A H 0.4931 0.7354 0.4067
C45A C 0.4589(3) 0.7725(2) 0.27894(19)
H37A H 0.4233 0.8125 0.2922
C46A C 0.4703(3) 0.7590(2) 0.19049(18)
H38A H 0.4423 0.7899 0.1446
C47A C 0.5236(3) 0.6992(2) 0.17065(15)
H39A H 0.5312 0.6901 0.1115
C48A C 0.5654(2) 0.6530(2) 0.23926(17)
H40A H 0.6010 0.6130 0.2260
C49A C 0.75711(16) 0.62968(18) 0.42351(19)
C50A C 0.7860(2) 0.55221(15) 0.39975(19)
H41A H 0.7242 0.4821 0.3769
C51A C 0.9072(2) 0.5796(2) 0.4102(2)
H42A H 0.9266 0.5277 0.3943
C52A C 0.99957(18) 0.6844(2) 0.4443(2)
H43A H 1.0807 0.7027 0.4513
C53A C 0.97067(19) 0.76187(17) 0.4681(2)
H44A H 1.0325 0.8320 0.4909
C54A C 0.8494(2) 0.73452(16) 0.4577(2)
H45A H 0.8301 0.7864 0.4736
loop_
_geom_bond_atom_site_label_1
_geom_bond_atom_site_label_2
_geom_bond_site_symmetry_1
_geom_bond_site_symmetry_2
Sn1 O1 1_555 1_555
Sn2 O2 1_555 1_555
P1 O2 1_555 1_555
P2 O1 1_555 1_555
P3 O3 1_555 1_555
O3 Sn2 1_555 1_555
O4 P3 1_555 1_555
O5 Sn2 1_555 1_555
O6 Sn1 1_555 1_555
C1 Sn1 1_555 1_555
C2 C1 1_555 1_555
H1 C2 1_555 1_555
C3 C2 1_555 1_555
H2 C3 1_555 1_555
C4 C3 1_555 1_555
H3 C4 1_555 1_555
C5 C4 1_555 1_555
H4 C5 1_555 1_555
C6 C1 1_555 1_555
H5 C6 1_555 1_555
C7 Sn2 1_555 1_555
C8 C7 1_555 1_555
H6 C8 1_555 1_555
C9 C8 1_555 1_555
H7 C9 1_555 1_555
C10 C9 1_555 1_555
H8 C10 1_555 1_555
C11 C10 1_555 1_555
H9 C11 1_555 1_555
C12 C7 1_555 1_555
H10 C12 1_555 1_555
C13 Sn2 1_555 1_555
C14 C13 1_555 1_555
H11 C14 1_555 1_555
C15 C14 1_555 1_555
H12 C15 1_555 1_555
C16 C15 1_555 1_555
H13 C16 1_555 1_555
C17 C16 1_555 1_555
H14 C17 1_555 1_555
C18 C13 1_555 1_555
H15 C18 1_555 1_555
C19 P1 1_555 1_555
C20 C19 1_555 1_555
H16 C20 1_555 1_555
C21 C20 1_555 1_555
H17 C21 1_555 1_555
C22 C21 1_555 1_555
H18 C22 1_555 1_555
C23 C22 1_555 1_555
H19 C23 1_555 1_555
C24 C19 1_555 1_555
H20 C24 1_555 1_555
C25 P1 1_555 1_555
C26 C25 1_555 1_555
H21 C26 1_555 1_555
C27 C26 1_555 1_555
H22 C27 1_555 1_555
C28 C27 1_555 1_555
H23 C28 1_555 1_555
C29 C28 1_555 1_555
H24 C29 1_555 1_555
C30 C25 1_555 1_555
H25 C30 1_555 1_555
C31 P2 1_555 1_555
C32 C31 1_555 1_555
H26 C32 1_555 1_555
C33 C32 1_555 1_555
H27 C33 1_555 1_555
C34 C33 1_555 1_555
H28 C34 1_555 1_555
C35 C34 1_555 1_555
H29 C35 1_555 1_555
C36 C31 1_555 1_555
H30 C36 1_555 1_555
C37 P2 1_555 1_555
C38 C37 1_555 1_555
H31 C38 1_555 1_555
C39 C38 1_555 1_555
H32 C39 1_555 1_555
C40 C39 1_555 1_555
H33 C40 1_555 1_555
C41 C40 1_555 1_555
H34 C41 1_555 1_555
C42 C37 1_555 1_555
H35 C42 1_555 1_555
C43 P3 1_555 1_555
C44 C43 1_555 1_555
H36 C44 1_555 1_555
C45 C44 1_555 1_555
H37 C45 1_555 1_555
C46 C45 1_555 1_555
H38 C46 1_555 1_555
C47 C46 1_555 1_555
H39 C47 1_555 1_555
C48 C43 1_555 1_555
H40 C48 1_555 1_555
C49 P3 1_555 1_555
C50 C49 1_555 1_555
H41 C50 1_555 1_555
C51 C50 1_555 1_555
H42 C51 1_555 1_555
C52 C51 1_555 1_555
H43 C52 1_555 1_555
C53 C52 1_555 1_555
H44 C53 1_555 1_555
C54 C49 1_555 1_555
H45 C54 1_555 1_555
Sn2A O2A 1_555 1_555
Sn2A_2 O4 1_555 1_555
P1A O2A 1_555 1_555
P2A O1A 1_555 1_555
P3A O3A 1_555 1_555
O1A Sn1 1_555 1_555
O3A Sn2A_2 1_555 1_555
O3A_2 Sn2A 1_555 1_555
O4A Sn2 1_555 1_555
O4_2 Sn2A 1_555 1_555
O5A Sn2A 1_555 1_555
O6A Sn1 1_555 1_555
C1A Sn1 1_555 1_555
C2A C1A 1_555 1_555
H1A C2A 1_555 1_555
C3A C2A 1_555 1_555
H2A C3A 1_555 1_555
C4A C3A 1_555 1_555
H3A C4A 1_555 1_555
C5A C4A 1_555 1_555
H4A C5A 1_555 1_555
C6A C1A 1_555 1_555
H5A C6A 1_555 1_555
C7A Sn2A 1_555 1_555
C8A C7A 1_555 1_555
H6A C8A 1_555 1_555
C9A C8A 1_555 1_555
H7A C9A 1_555 1_555
C10A C9A 1_555 1_555
H8A C10A 1_555 1_555
C11A C10A 1_555 1_555
H9A C11A 1_555 1_555
C12A C7A 1_555 1_555
H10A C12A 1_555 1_555
C13A Sn2A 1_555 1_555
C14A C13A 1_555 1_555
H11A C14A 1_555 1_555
C15A C14A 1_555 1_555
H12A C15A 1_555 1_555
C16A C15A 1_555 1_555
H13A C16A 1_555 1_555
C17A C16A 1_555 1_555
H14A C17A 1_555 1_555
C18A C13A 1_555 1_555
H15A C18A 1_555 1_555
C19A P1A 1_555 1_555
C20A C19A 1_555 1_555
H16A C20A 1_555 1_555
C21A C20A 1_555 1_555
H17A C21A 1_555 1_555
C22A C21A 1_555 1_555
H18A C22A 1_555 1_555
C23A C22A 1_555 1_555
H19A C23A 1_555 1_555
C24A C19A 1_555 1_555
H20A C24A 1_555 1_555
C25A P1A 1_555 1_555
C26A C25A 1_555 1_555
H21A C26A 1_555 1_555
C27A C26A 1_555 1_555
H22A C27A 1_555 1_555
C28A C27A 1_555 1_555
H23A C28A 1_555 1_555
C29A C28A 1_555 1_555
H24A C29A 1_555 1_555
C30A C25A 1_555 1_555
H25A C30A 1_555 1_555
C31A P2A 1_555 1_555
C32A C31A 1_555 1_555
H26A C32A 1_555 1_555
C33A C32A 1_555 1_555
H27A C33A 1_555 1_555
C34A C33A 1_555 1_555
H28A C34A 1_555 1_555
C35A C34A 1_555 1_555
H29A C35A 1_555 1_555
C36A C31A 1_555 1_555
H30A C36A 1_555 1_555
C37A P2A 1_555 1_555
C38A C37A 1_555 1_555
H31A C38A 1_555 1_555
C39A C38A 1_555 1_555
H32A C39A 1_555 1_555
C40A C39A 1_555 1_555
H33A C40A 1_555 1_555
C41A C40A 1_555 1_555
H34A C41A 1_555 1_555
C42A C37A 1_555 1_555
H35A C42A 1_555 1_555
C43A P3A 1_555 1_555
C44A C43A 1_555 1_555
H36A C44A 1_555 1_555
C45A C44A 1_555 1_555
H37A C45A 1_555 1_555
C46A C45A 1_555 1_555
H38A C46A 1_555 1_555
C47A C46A 1_555 1_555
H39A C47A 1_555 1_555
C48A C43A 1_555 1_555
H40A C48A 1_555 1_555
C49A P3A 1_555 1_555
C50A C49A 1_555 1_555
H41A C50A 1_555 1_555
C51A C50A 1_555 1_555
H42A C51A 1_555 1_555
C52A C51A 1_555 1_555
H43A C52A 1_555 1_555
C53A C52A 1_555 1_555
H44A C53A 1_555 1_555
C54A C49A 1_555 1_555
H45A C54A 1_555 1_555
P1 O6 1_555 1_555
P2 O5 1_555 1_555
C5 C6 1_555 1_555
C11 C12 1_555 1_555
C17 C18 1_555 1_555
C23 C24 1_555 1_555
C29 C30 1_555 1_555
C35 C36 1_555 1_555
C41 C42 1_555 1_555
C47 C48 1_555 1_555
C53 C54 1_555 1_555
P1A O6A 1_555 1_555
P2A O5A 1_555 1_555
P3A O4A 1_555 1_555
C5A C6A 1_555 1_555
C11A C12A 1_555 1_555
C17A C18A 1_555 1_555
C23A C24A 1_555 1_555
C29A C30A 1_555 1_555
C35A C36A 1_555 1_555
C41A C42A 1_555 1_555
C47A C48A 1_555 1_555
C53A C54A 1_555 1_555

#END
