
#######################################################################
#
#                 Cambridge Crystallographic Data Centre
#                                CCDC 
#
#######################################################################
#
# If this CIF has been generated from an entry in the Cambridge 
# Structural Database, then it will include bibliographic, chemical, 
# crystal, experimental, refinement or atomic coordinate data resulting 
# from the CCDC's data processing and validation procedures.
#
#######################################################################

data_MEPFUJ
_symmetry_cell_setting           monoclinic
_symmetry_space_group_name_H-M   'P 21/c'
_symmetry_Int_Tables_number      14
_space_group_name_Hall           '-P 2ybc'
loop_
_symmetry_equiv_pos_site_id
_symmetry_equiv_pos_as_xyz
1 x,y,z
2 -x,1/2+y,1/2-z
3 -x,-y,-z
4 x,1/2-y,1/2+z
_cell_length_a                   15.9648(19)
_cell_length_b                   8.3045(9)
_cell_length_c                   14.8557(17)
_cell_angle_alpha                90
_cell_angle_beta                 111.048(2)
_cell_angle_gamma                90
_cell_volume                     1838.15
loop_
_atom_site_label
_atom_site_type_symbol
_atom_site_fract_x
_atom_site_fract_y
_atom_site_fract_z
Zn1 Zn 0.77234(6) 0.21252(10) 0.54350(6)
C1 C 0.7103(6) 0.3629(9) 0.6604(6)
C2 C 0.6912(6) 0.4250(9) 0.7462(6)
H1 H 0.7112 0.3448 0.7990
H2 H 0.6258 0.4413 0.7284
C3 C 0.7401(5) 0.5833(9) 0.7805(5)
C4 C 0.6991(5) 0.7283(10) 0.7459(6)
H3 H 0.6396 0.7293 0.7001
C5 C 0.7433(5) 0.8720(9) 0.7771(6)
H4 H 0.7139 0.9704 0.7518
C6 C 0.8296(5) 0.8755(9) 0.8443(6)
C7 C 0.8706(5) 0.7303(9) 0.8783(5)
H5 H 0.9302 0.7290 0.9241
C8 C 0.8259(6) 0.5862(10) 0.8464(6)
H6 H 0.8555 0.4875 0.8707
C9 C 0.8773(5) 1.0331(9) 0.8790(6)
H7 H 0.8677 1.1033 0.8223
H8 H 0.9425 1.0115 0.9085
C10 C 0.8483(6) 1.1246(9) 0.9515(6)
C11 C 0.5863(7) 0.0845(13) 0.4255(7)
H9 H 0.5699 0.1947 0.4143
C12 C 0.5225(7) -0.0322(15) 0.3833(8)
H10 H 0.4628 -0.0041 0.3440
C13 C 0.5481(8) -0.1874(14) 0.4001(9)
H11 H 0.5059 -0.2696 0.3701
C14 C 0.6327(7) -0.2306(12) 0.4588(8)
H12 H 0.6494 -0.3402 0.4725
C15 C 0.6926(5) -0.1071(10) 0.4972(5)
C16 C 0.7876(5) -0.1375(9) 0.5593(5)
C17 C 0.8234(6) -0.2912(9) 0.5897(6)
H13 H 0.7865 -0.3843 0.5719
C18 C 0.9116(6) -0.3039(11) 0.6451(6)
H14 H 0.9364 -0.4071 0.6666
C19 C 0.9655(6) -0.1706(10) 0.6707(6)
H15 H 1.0272 -0.1796 0.7098
C20 C 0.9272(6) -0.0228(10) 0.6377(6)
H16 H 0.9642 0.0703 0.6539
N1 N 0.6698(5) 0.0475(8) 0.4811(5)
N2 N 0.8406(4) -0.0052(7) 0.5842(4)
O1 O 0.7852(4) 0.2984(7) 0.6729(4)
O2 O 0.6540(4) 0.3789(8) 0.5774(4)
O3 O 0.7656(4) 1.1457(7) 0.9324(4)
O4 O 0.9035(4) 1.1764(8) 1.0266(5)
Zn1C Zn 0.77234(6) 1.28748(10) 1.04350(6)
O3C O 0.7656(4) 0.3543(7) 0.4324(4)
O4C O 0.9035(4) 0.3236(8) 0.5266(5)
O5 O 0.4984(11) 0.4386(18) 0.4282(12)
loop_
_geom_bond_atom_site_label_1
_geom_bond_atom_site_label_2
_geom_bond_site_symmetry_1
_geom_bond_site_symmetry_2
Zn1 N1 1_555 1_555
C1 C2 1_555 1_555
C2 H1 1_555 1_555
H2 C2 1_555 1_555
C3 C2 1_555 1_555
C4 C3 1_555 1_555
H3 C4 1_555 1_555
C5 C4 1_555 1_555
H4 C5 1_555 1_555
C6 C5 1_555 1_555
C7 C6 1_555 1_555
H5 C7 1_555 1_555
C8 C3 1_555 1_555
H6 C8 1_555 1_555
C9 C6 1_555 1_555
H7 C9 1_555 1_555
H8 C9 1_555 1_555
C10 C9 1_555 1_555
C11 H9 1_555 1_555
C12 C11 1_555 1_555
H10 C12 1_555 1_555
C13 C12 1_555 1_555
H11 C13 1_555 1_555
C14 C13 1_555 1_555
H12 C14 1_555 1_555
C15 C14 1_555 1_555
C16 C15 1_555 1_555
C17 C16 1_555 1_555
H13 C17 1_555 1_555
C18 C17 1_555 1_555
H14 C18 1_555 1_555
C19 C18 1_555 1_555
H15 C19 1_555 1_555
C20 C19 1_555 1_555
H16 C20 1_555 1_555
N1 C11 1_555 1_555
N2 Zn1 1_555 1_555
O1 Zn1 1_555 1_555
O2 Zn1 1_555 1_555
O3 C10 1_555 1_555
O4 C10 1_555 1_555
Zn1C O3 1_555 1_555
O3C Zn1 1_555 1_555
O4C Zn1 1_555 1_555
C1 O1 1_555 1_555
C1 O2 1_555 1_555
C7 C8 1_555 1_555
C15 N1 1_555 1_555
C16 N2 1_555 1_555
C20 N2 1_555 1_555
O4 Zn1C 1_555 1_555

#END
