
#######################################################################
#
#                 Cambridge Crystallographic Data Centre
#                                CCDC 
#
#######################################################################
#
# If this CIF has been generated from an entry in the Cambridge 
# Structural Database, then it will include bibliographic, chemical, 
# crystal, experimental, refinement or atomic coordinate data resulting 
# from the CCDC's data processing and validation procedures.
#
#######################################################################

data_MEPFET
_symmetry_cell_setting           monoclinic
_symmetry_space_group_name_H-M   'P 21/n'
_symmetry_Int_Tables_number      14
_space_group_name_Hall           '-P 2yn'
loop_
_symmetry_equiv_pos_site_id
_symmetry_equiv_pos_as_xyz
1 x,y,z
2 1/2-x,1/2+y,1/2-z
3 -x,-y,-z
4 1/2+x,1/2-y,1/2+z
_cell_length_a                   12.7352(16)
_cell_length_b                   8.8125(11)
_cell_length_c                   18.677(2)
_cell_angle_alpha                90
_cell_angle_beta                 102.633(2)
_cell_angle_gamma                90
_cell_volume                     2045.36
loop_
_atom_site_label
_atom_site_type_symbol
_atom_site_fract_x
_atom_site_fract_y
_atom_site_fract_z
Co1 Co 0.34990(3) 0.77041(4) 0.82655(2)
O1 O 0.19049(16) 0.6958(2) 0.79086(12)
O2 O 0.21152(16) 0.9160(2) 0.84633(11)
O3 O 0.07789(16) 1.0936(2) 0.71824(11)
O4 O -0.0011(2) 1.2239(3) 0.79373(16)
O5 O 0.3450(2) 0.8970(3) 0.73348(14)
N1 N 0.36411(19) 0.6737(3) 0.93277(12)
N2 N 0.49756(19) 0.8675(3) 0.88729(13)
C1 C 0.1512(2) 0.8144(3) 0.81411(14)
C2 C 0.0318(2) 0.8238(3) 0.80552(14)
C3 C -0.0224(2) 0.6937(3) 0.82016(17)
H1 H 0.0160 0.6044 0.8328
C4 C -0.1311(3) 0.6948(4) 0.8163(2)
H2 H -0.1655 0.6068 0.8264
C5 C -0.1890(3) 0.8248(4) 0.7976(2)
H3 H -0.2630 0.8252 0.7940
C6 C -0.1365(3) 0.9568(4) 0.78411(19)
H4 H -0.1759 1.0457 0.7729
C7 C -0.0267(2) 0.9587(3) 0.78697(15)
C8 C 0.0223(2) 1.1036(3) 0.76600(16)
C9 C 0.2953(3) 0.5831(4) 0.95546(18)
H5 H 0.2329 0.5554 0.9220
C10 C 0.3110(3) 0.5268(4) 1.02663(19)
H6 H 0.2594 0.4650 1.0402
C11 C 0.4028(3) 0.5634(4) 1.07603(18)
H7 H 0.4152 0.5254 1.1236
C12 C 0.4792(3) 0.6597(4) 1.05465(16)
C13 C 0.5782(3) 0.7064(4) 1.10282(19)
H8 H 0.5959 0.6688 1.1505
C14 C 0.6448(3) 0.8023(4) 1.08041(19)
H9 H 0.7079 0.8311 1.1129
C15 C 0.6217(3) 0.8625(3) 1.00734(18)
C16 C 0.6871(3) 0.9673(4) 0.9812(2)
H10 H 0.7502 1.0017 1.0119
C17 C 0.6584(3) 1.0188(4) 0.9108(2)
H11 H 0.7020 1.0877 0.8931
C18 C 0.5628(3) 0.9669(4) 0.86539(19)
H12 H 0.5438 1.0037 0.8176
C19 C 0.5269(2) 0.8168(3) 0.95789(16)
C20 C 0.4550(2) 0.7133(3) 0.98203(15)
H19 H 0.398(2) 0.863(4) 0.717(2)
H20 H 0.337(3) 0.9926(14) 0.734(2)
Co1A Co 0.15010(3) 1.27041(4) 0.67345(2)
O3A O 0.42211(16) 0.5936(2) 0.78176(11)
O6 O 0.6161(5) 0.8076(7) 0.6027(3)
H13 H 0.5836 0.7877 0.6349
C21 C 0.5614(6) 0.7373(10) 0.5342(4)
H14 H 0.5883 0.7792 0.4936
H15 H 0.5745 0.6288 0.5360
C22 C 0.4470(6) 0.7672(11) 0.5239(5)
H16 H 0.4348 0.8330 0.5622
H17 H 0.4094 0.6733 0.5256
H18 H 0.4212 0.8149 0.4772
loop_
_geom_bond_atom_site_label_1
_geom_bond_atom_site_label_2
_geom_bond_site_symmetry_1
_geom_bond_site_symmetry_2
Co1 O1 1_555 1_555
O1 C1 1_555 1_555
O2 Co1 1_555 1_555
O3 C8 1_555 1_555
O4 C8 1_555 1_555
O5 Co1 1_555 1_555
N1 Co1 1_555 1_555
N2 Co1 1_555 1_555
C1 O2 1_555 1_555
C2 C1 1_555 1_555
C3 C2 1_555 1_555
H1 C3 1_555 1_555
C4 C3 1_555 1_555
H2 C4 1_555 1_555
C5 C4 1_555 1_555
H3 C5 1_555 1_555
C6 C5 1_555 1_555
H4 C6 1_555 1_555
C7 C2 1_555 1_555
C8 C7 1_555 1_555
C9 N1 1_555 1_555
H5 C9 1_555 1_555
C10 C9 1_555 1_555
H6 C10 1_555 1_555
C11 C10 1_555 1_555
H7 C11 1_555 1_555
C12 C11 1_555 1_555
C13 C12 1_555 1_555
H8 C13 1_555 1_555
C14 C13 1_555 1_555
H9 C14 1_555 1_555
C15 C14 1_555 1_555
C16 C15 1_555 1_555
H10 C16 1_555 1_555
C17 C16 1_555 1_555
H11 C17 1_555 1_555
C18 N2 1_555 1_555
H12 C18 1_555 1_555
C19 N2 1_555 1_555
C20 N1 1_555 1_555
O6 H13 1_555 1_555
C21 O6 1_555 1_555
H14 C21 1_555 1_555
H15 C21 1_555 1_555
C22 C21 1_555 1_555
H16 C22 1_555 1_555
H17 C22 1_555 1_555
H18 C22 1_555 1_555
H19 O5 1_555 1_555
H20 O5 1_555 1_555
Co1A O3 1_555 1_555
O3A Co1 1_555 1_555
C6 C7 1_555 1_555
C12 C20 1_555 1_555
C15 C19 1_555 1_555
C17 C18 1_555 1_555
C19 C20 1_555 1_555

#END
