
#######################################################################
#
#                 Cambridge Crystallographic Data Centre
#                                CCDC 
#
#######################################################################
#
# If this CIF has been generated from an entry in the Cambridge 
# Structural Database, then it will include bibliographic, chemical, 
# crystal, experimental, refinement or atomic coordinate data resulting 
# from the CCDC's data processing and validation procedures.
#
#######################################################################

data_MEPGIY
_symmetry_cell_setting           triclinic
_symmetry_space_group_name_H-M   'P -1'
_symmetry_Int_Tables_number      2
_space_group_name_Hall           '-P 1'
loop_
_symmetry_equiv_pos_site_id
_symmetry_equiv_pos_as_xyz
1 x,y,z
2 -x,-y,-z
_cell_length_a                   5.8397(4)
_cell_length_b                   9.8664(7)
_cell_length_c                   14.1739(10)
_cell_angle_alpha                82.0150(10)
_cell_angle_beta                 80.4540(10)
_cell_angle_gamma                82.3570(10)
_cell_volume                     792.466
loop_
_atom_site_label
_atom_site_type_symbol
_atom_site_fract_x
_atom_site_fract_y
_atom_site_fract_z
Cd1 Cd 0.69915(4) 0.02869(2) 0.088462(15)
Cl1 Cl 0.46244(15) -0.11522(9) 0.22046(6)
O1 O 0.9752(4) 0.2873(2) 0.26865(17)
H1 H 1.0686 0.2306 0.2945
O2 O 0.9222(4) 0.1086(2) 0.19714(17)
O3 O 0.3642(4) 0.1247(2) 0.01055(15)
O4 O 0.1067(4) 0.3082(2) -0.01914(18)
O7 O 1.0784(4) -0.1078(2) 0.07012(15)
H2 H 1.1645 -0.1137 0.1137
H3 H 1.0371 -0.1826 0.0588
N1 N 0.5694(4) 0.2557(2) 0.11736(17)
C1 C 0.8706(5) 0.2273(3) 0.2151(2)
C2 C 0.6746(5) 0.3170(3) 0.1741(2)
C3 C 0.6009(6) 0.4503(3) 0.1942(2)
H4 H 0.6746 0.4907 0.2347
C4 C 0.4162(6) 0.5222(3) 0.1531(2)
H5 H 0.3664 0.6128 0.1643
C5 C 0.3064(6) 0.4597(3) 0.0957(2)
H6 H 0.1800 0.5064 0.0682
C6 C 0.3879(5) 0.3250(3) 0.0794(2)
C7 C 0.2756(5) 0.2478(3) 0.0179(2)
Cd1A Cd 0.30085(4) -0.02869(2) -0.088462(15)
Cd1A_2 Cd 1.30085(4) -0.02869(2) -0.088462(15)
Cl1A Cl 0.53756(15) 0.11522(9) -0.22046(6)
O1A O 0.0248(4) -0.2873(2) -0.26865(17)
H1A H -0.0686 -0.2306 -0.2945
O2A O 0.0778(4) -0.1086(2) -0.19714(17)
O3A O 0.6358(4) -0.1247(2) -0.01055(15)
O4A O 0.8933(4) -0.3082(2) 0.01914(18)
O7A O 0.9216(4) 0.1078(2) -0.07012(15)
O7_2 O 0.0784(4) -0.1078(2) 0.07012(15)
O7A_2 O -0.0784(4) 0.1078(2) -0.07012(15)
H2A H 0.8355 0.1137 -0.1137
H2_2 H 0.1645 -0.1137 0.1137
H2A_2 H -0.1645 0.1137 -0.1137
H3A H 0.9629 0.1826 -0.0588
H3_2 H 0.0371 -0.1826 0.0588
H3A_2 H -0.0371 0.1826 -0.0588
N1A N 0.4306(4) -0.2557(2) -0.11736(17)
C1A C 0.1294(5) -0.2273(3) -0.2151(2)
C2A C 0.3254(5) -0.3170(3) -0.1741(2)
C3A C 0.3991(6) -0.4503(3) -0.1942(2)
H4A H 0.3254 -0.4907 -0.2347
C4A C 0.5838(6) -0.5222(3) -0.1531(2)
H5A H 0.6336 -0.6128 -0.1643
C5A C 0.6936(6) -0.4597(3) -0.0957(2)
H6A H 0.8200 -0.5064 -0.0682
C6A C 0.6121(5) -0.3250(3) -0.0794(2)
C7A C 0.7244(5) -0.2478(3) -0.0179(2)
Cu1 Cu 1.0000 0.0000 0.5000
O5 O 0.7299(4) 0.0952(2) 0.44405(17)
O6 O 0.5021(5) 0.2929(3) 0.4382(2)
N2 N 0.9743(5) 0.1670(3) 0.56324(19)
C8 C 0.6644(6) 0.2166(4) 0.4672(2)
C9 C 0.8039(6) 0.2632(3) 0.5351(2)
C10 C 0.7667(7) 0.3895(4) 0.5667(3)
H7 H 0.6487 0.4547 0.5467
C11 C 0.9064(7) 0.4195(4) 0.6287(3)
H8 H 0.8858 0.5058 0.6501
C12 C 1.0771(7) 0.3198(4) 0.6587(3)
H9 H 1.1712 0.3377 0.7014
C13 C 1.1064(7) 0.1941(4) 0.6247(3)
H10 H 1.2208 0.1266 0.6450
O5A O 1.2701(4) -0.0952(2) 0.55595(17)
O6A O 1.4979(5) -0.2929(3) 0.5618(2)
N2A N 1.0257(5) -0.1670(3) 0.43676(19)
C8A C 1.3356(6) -0.2166(4) 0.5328(2)
C9A C 1.1961(6) -0.2632(3) 0.4649(2)
C10A C 1.2333(7) -0.3895(4) 0.4333(3)
H7A H 1.3513 -0.4547 0.4533
C11A C 1.0936(7) -0.4195(4) 0.3713(3)
H8A H 1.1142 -0.5058 0.3499
C12A C 0.9229(7) -0.3198(4) 0.3413(3)
H9A H 0.8288 -0.3377 0.2986
C13A C 0.8936(7) -0.1941(4) 0.3753(3)
H10A H 0.7792 -0.1266 0.3550
O8 O 0.2689(4) 0.1242(3) 0.35277(18)
H11 H 0.3362 0.0588 0.3214
H12 H 0.3504 0.1571 0.3866
loop_
_geom_bond_atom_site_label_1
_geom_bond_atom_site_label_2
_geom_bond_site_symmetry_1
_geom_bond_site_symmetry_2
Cd1 Cl1 1_555 1_555
Cu1 O5 1_555 1_555
O1 H1 1_555 1_555
O2 Cd1 1_555 1_555
O3 Cd1 1_555 1_555
O4 C7 1_555 1_555
O5 C8 1_555 1_555
O6 C8 1_555 1_555
O7 Cd1 1_555 1_555
H2 O7 1_555 1_555
H3 O7 1_555 1_555
N1 Cd1 1_555 1_555
N2 Cu1 1_555 1_555
C1 O1 1_555 1_555
C2 N1 1_555 1_555
C3 C2 1_555 1_555
H4 C3 1_555 1_555
C4 C3 1_555 1_555
H5 C4 1_555 1_555
C5 C4 1_555 1_555
H6 C5 1_555 1_555
C6 N1 1_555 1_555
C7 O3 1_555 1_555
C8 C9 1_555 1_555
C9 N2 1_555 1_555
C10 C9 1_555 1_555
H7 C10 1_555 1_555
C11 C10 1_555 1_555
H8 C11 1_555 1_555
C12 C11 1_555 1_555
H9 C12 1_555 1_555
C13 N2 1_555 1_555
H10 C13 1_555 1_555
O8 H11 1_555 1_555
H12 O8 1_555 1_555
Cd1A O3 1_555 1_555
Cd1A_2 O7 1_555 1_555
Cl1A Cd1A 1_555 1_555
O1A H1A 1_555 1_555
O2A Cd1A 1_555 1_555
O3A Cd1 1_555 1_555
O4A C7A 1_555 1_555
O5A Cu1 1_555 1_555
O6A C8A 1_555 1_555
O7A Cd1 1_555 1_555
O7_2 Cd1A 1_555 1_555
O7A_2 Cd1A 1_555 1_555
H2A O7A 1_555 1_555
H2_2 O7_2 1_555 1_555
H2A_2 O7A_2 1_555 1_555
H3A O7A 1_555 1_555
H3_2 O7_2 1_555 1_555
H3A_2 O7A_2 1_555 1_555
N1A Cd1A 1_555 1_555
N2A Cu1 1_555 1_555
C1A O1A 1_555 1_555
C2A N1A 1_555 1_555
C3A C2A 1_555 1_555
H4A C3A 1_555 1_555
C4A C3A 1_555 1_555
H5A C4A 1_555 1_555
C5A C4A 1_555 1_555
H6A C5A 1_555 1_555
C6A N1A 1_555 1_555
C7A O3A 1_555 1_555
C8A O5A 1_555 1_555
C9A N2A 1_555 1_555
C10A C9A 1_555 1_555
H7A C10A 1_555 1_555
C11A C10A 1_555 1_555
H8A C11A 1_555 1_555
C12A C11A 1_555 1_555
H9A C12A 1_555 1_555
C13A N2A 1_555 1_555
H10A C13A 1_555 1_555
O2 C1 1_555 1_555
C1 C2 1_555 1_555
C5 C6 1_555 1_555
C6 C7 1_555 1_555
C12 C13 1_555 1_555
Cd1A O3A 1_555 1_555
Cd1A_2 O7A 1_555 1_555
O2A C1A 1_555 1_555
C1A C2A 1_555 1_555
C5A C6A 1_555 1_555
C6A C7A 1_555 1_555
C8A C9A 1_555 1_555
C12A C13A 1_555 1_555

#END
