
#######################################################################
#
#                 Cambridge Crystallographic Data Centre
#                                CCDC 
#
#######################################################################
#
# If this CIF has been generated from an entry in the Cambridge 
# Structural Database, then it will include bibliographic, chemical, 
# crystal, experimental, refinement or atomic coordinate data resulting 
# from the CCDC's data processing and validation procedures.
#
#######################################################################

data_MEPHOF
_symmetry_cell_setting           triclinic
_symmetry_space_group_name_H-M   'P -1'
_symmetry_Int_Tables_number      2
_space_group_name_Hall           '-P 1'
loop_
_symmetry_equiv_pos_site_id
_symmetry_equiv_pos_as_xyz
1 x,y,z
2 -x,-y,-z
_cell_length_a                   10.029(1)
_cell_length_b                   10.416(1)
_cell_length_c                   14.322(1)
_cell_angle_alpha                77.055(2)
_cell_angle_beta                 73.698(2)
_cell_angle_gamma                71.776(2)
_cell_volume                     1348.62
loop_
_atom_site_label
_atom_site_type_symbol
_atom_site_fract_x
_atom_site_fract_y
_atom_site_fract_z
Pb1 Pb 0.07412(3) 0.57533(2) 0.083053(18)
O2 O 0.3095(6) 0.4378(5) 0.1284(4)
H3 H 0.3530 0.4747 0.1372
H4 H 0.3551 0.3836 0.0873
P1 P -0.0414(2) 0.44783(17) 0.30783(13)
O3 O -0.0279(6) 0.4297(5) 0.2006(3)
O4 O -0.1915(6) 0.4482(6) 0.3711(4)
O5 O 0.0046(6) 0.5714(5) 0.3088(4)
C1 C 0.0883(8) 0.2974(7) 0.3541(5)
H5 H 0.0578 0.2165 0.3574
H6 H 0.1815 0.2888 0.3084
N1 N 0.1032(7) 0.3042(6) 0.4530(4)
C2 C 0.2513(8) 0.3077(9) 0.4488(6)
H7 H 0.3197 0.2315 0.4180
H8 H 0.2632 0.2962 0.5153
C3 C 0.2855(9) 0.4378(9) 0.3929(6)
H9 H 0.3823 0.4358 0.3941
H10 H 0.2808 0.4473 0.3249
N2 N 0.1798(7) 0.5554(7) 0.4386(4)
H11 H 0.0905 0.5517 0.4406
H12 H 0.1873 0.5452 0.5012
C4 C 0.1943(10) 0.6930(9) 0.3895(6)
H13 H 0.1727 0.7109 0.3251
H14 H 0.2931 0.6957 0.3801
C5 C 0.0934(11) 0.8036(9) 0.4497(6)
H15 H 0.1228 0.7896 0.5110
H16 H 0.1058 0.8915 0.4140
C6 C 0.0653(10) 0.1898(7) 0.5263(6)
H17 H 0.1206 0.1046 0.5018
H18 H 0.0924 0.1893 0.5863
P2 P 0.24819(19) 0.26206(16) -0.01579(12)
O6 O 0.1280(5) 0.3979(4) -0.0058(3)
O7 O 0.3909(5) 0.2720(5) -0.0064(4)
O8 O 0.2602(6) 0.2126(5) -0.1110(4)
C7 C 0.1844(7) 0.1421(7) 0.0880(5)
H19 H 0.1642 0.1794 0.1483
H20 H 0.0950 0.1312 0.0814
N3 N 0.2913(6) 0.0053(5) 0.0951(4)
C8 C 0.3368(8) -0.0266(7) 0.1889(5)
H21 H 0.3917 -0.1216 0.1978
H22 H 0.2521 -0.0144 0.2427
C9 C 0.4273(8) 0.0626(7) 0.1926(5)
H23 H 0.4590 0.0359 0.2538
H24 H 0.3707 0.1573 0.1893
N4 N 0.5563(6) 0.0472(6) 0.1066(5)
H25 H 0.6061 -0.0415 0.1106
H26 H 0.5243 0.0696 0.0508
C10 C 0.6563(8) 0.1292(7) 0.0984(6)
H27 H 0.6829 0.1147 0.1608
H28 H 0.6086 0.2254 0.0835
C11 C 0.7907(9) 0.0901(7) 0.0186(6)
H29 H 0.8417 -0.0038 0.0380
H30 H 0.8527 0.1470 0.0152
C12 C 0.2330(9) -0.1029(7) 0.0850(6)
H31 H 0.2990 -0.1911 0.1001
H32 H 0.1419 -0.0995 0.1325
Pb1A Pb -0.07412(3) 0.42467(2) 0.916947(18)
Pb1A_2 Pb -0.07412(3) 0.42467(2) -0.083053(18)
Pb1_2 Pb 1.07412(3) -0.42467(2) 0.083053(18)
Pb1A_3 Pb 0.92588(3) -0.57533(2) -0.083053(18)
O2A O -0.3095(6) 0.5622(5) 0.8716(4)
H3A H -0.3530 0.5253 0.8628
H4A H -0.3551 0.6164 0.9127
P1A P 0.0414(2) 0.55217(17) 0.69217(13)
O3A O 0.0279(6) 0.5703(5) 0.7994(3)
O4A O 0.1915(6) 0.5518(6) 0.6289(4)
O5A O -0.0046(6) 0.4286(5) 0.6912(4)
C1A C -0.0883(8) 0.7026(7) 0.6459(5)
H5A H -0.0578 0.7835 0.6426
H6A H -0.1815 0.7112 0.6916
N1A N -0.1032(7) 0.6958(6) 0.5470(4)
C2A C -0.2513(8) 0.6923(9) 0.5512(6)
H7A H -0.3197 0.7685 0.5820
H8A H -0.2632 0.7038 0.4847
C3A C -0.2855(9) 0.5622(9) 0.6071(6)
H9A H -0.3823 0.5642 0.6059
H10A H -0.2808 0.5527 0.6751
N2A N -0.1798(7) 0.4446(7) 0.5614(4)
H11A H -0.0905 0.4483 0.5594
H12A H -0.1873 0.4548 0.4988
C4A C -0.1943(10) 0.3070(9) 0.6105(6)
H13A H -0.1727 0.2891 0.6749
H14A H -0.2931 0.3043 0.6199
C5A C -0.0934(11) 0.1964(9) 0.5503(6)
H15A H -0.1228 0.2104 0.4890
H16A H -0.1058 0.1085 0.5860
C6A C -0.0653(10) 0.8102(7) 0.4737(6)
H17A H -0.1206 0.8954 0.4982
H18A H -0.0924 0.8107 0.4137
P2A P 0.75181(19) -0.26206(16) 0.01579(12)
O6A O 0.8720(5) -0.3979(4) 0.0058(3)
O6A_2 O -0.1280(5) 0.6021(4) 0.0058(3)
O6_2 O 0.1280(5) 0.3979(4) 0.9942(3)
O6A_3 O -0.1280(5) 0.6021(4) 1.0058(3)
O7A O 0.6091(5) -0.2720(5) 0.0064(4)
O8A O 0.7398(6) -0.2126(5) 0.1110(4)
C7A C 0.8156(7) -0.1421(7) -0.0880(5)
H19A H 0.8358 -0.1794 -0.1483
H20A H 0.9050 -0.1312 -0.0814
N3A N 0.7087(6) -0.0053(5) -0.0951(4)
C8A C 0.6632(8) 0.0266(7) -0.1889(5)
H21A H 0.6083 0.1216 -0.1978
H22A H 0.7479 0.0144 -0.2427
C9A C 0.5727(8) -0.0626(7) -0.1926(5)
H23A H 0.5410 -0.0359 -0.2538
H24A H 0.6293 -0.1573 -0.1893
N4A N 0.4437(6) -0.0472(6) -0.1066(5)
H25A H 0.3939 0.0415 -0.1106
H26A H 0.4757 -0.0696 -0.0508
C10A C 0.3437(8) -0.1292(7) -0.0984(6)
H27A H 0.3171 -0.1147 -0.1608
H28A H 0.3914 -0.2254 -0.0835
C11A C 0.2093(9) -0.0901(7) -0.0186(6)
H29A H 0.1583 0.0038 -0.0380
H30A H 0.1473 -0.1470 -0.0152
C12A C 0.7670(9) 0.1029(7) -0.0850(6)
H31A H 0.7010 0.1911 -0.1001
H32A H 0.8581 0.0995 -0.1325
O1 O 0.1877(7) 0.6762(7) -0.1283(5)
H1 H 0.2269 0.6990 -0.1790
H2 H 0.1033 0.6967 -0.1248
O9 O 0.1008(8) 0.1706(6) 0.7749(5)
H33 H 0.1518 0.1712 0.8118
H34 H 0.0770 0.2571 0.7409
O10 O 0.5989(8) 0.6511(10) 0.2928(6)
H35 H 0.6631 0.5890 0.3174
H36 H 0.6483 0.7085 0.2292
O11 O 0.5324(12) 0.1320(11) 0.5904(6)
H37 H 0.4944 0.1959 0.6254
H38 H 0.4900 0.0664 0.6101
O12 O 0.5096(8) 0.5410(8) 0.1557(5)
H39 H 0.5423 0.5513 0.1988
H40 H 0.5478 0.6069 0.1014
O15 O 0.624(2) 0.372(2) 0.3035(16)
O16 O 0.8853(13) 0.0666(12) 0.2817(9)
O17 O 0.6642(19) 0.0135(17) 0.3453(13)
O13? O 0.6348(13) 0.2609(12) 0.4005(9)
O14? O 0.381(2) 0.903(2) 0.6023(17)
loop_
_geom_bond_atom_site_label_1
_geom_bond_atom_site_label_2
_geom_bond_site_symmetry_1
_geom_bond_site_symmetry_2
Pb1 O2 1_555 1_555
O1 H1 1_555 1_555
H2 O1 1_555 1_555
O2 H3 1_555 1_555
H4 O2 1_555 1_555
P1 O3 1_555 1_555
O3 Pb1 1_555 1_555
O4 P1 1_555 1_555
O5 P1 1_555 1_555
C1 P1 1_555 1_555
H5 C1 1_555 1_555
H6 C1 1_555 1_555
N1 C1 1_555 1_555
C2 N1 1_555 1_555
H7 C2 1_555 1_555
H8 C2 1_555 1_555
C3 C2 1_555 1_555
H9 C3 1_555 1_555
H10 C3 1_555 1_555
N2 C3 1_555 1_555
H11 N2 1_555 1_555
H12 N2 1_555 1_555
C4 N2 1_555 1_555
H13 C4 1_555 1_555
H14 C4 1_555 1_555
C5 C4 1_555 1_555
H15 C5 1_555 1_555
H16 C5 1_555 1_555
C6 N1 1_555 1_555
H17 C6 1_555 1_555
H18 C6 1_555 1_555
P2 O6 1_555 1_555
O6 Pb1 1_555 1_555
O7 P2 1_555 1_555
O8 P2 1_555 1_555
C7 P2 1_555 1_555
H19 C7 1_555 1_555
H20 C7 1_555 1_555
N3 C7 1_555 1_555
C8 N3 1_555 1_555
H21 C8 1_555 1_555
H22 C8 1_555 1_555
C9 C8 1_555 1_555
H23 C9 1_555 1_555
H24 C9 1_555 1_555
N4 C9 1_555 1_555
H25 N4 1_555 1_555
H26 N4 1_555 1_555
C10 N4 1_555 1_555
H27 C10 1_555 1_555
H28 C10 1_555 1_555
C11 C10 1_555 1_555
H29 C11 1_555 1_555
H30 C11 1_555 1_555
C12 N3 1_555 1_555
H31 C12 1_555 1_555
H32 C12 1_555 1_555
O9 H33 1_555 1_555
H34 O9 1_555 1_555
O10 H35 1_555 1_555
H36 O10 1_555 1_555
O11 H37 1_555 1_555
H38 O11 1_555 1_555
O12 H39 1_555 1_555
H40 O12 1_555 1_555
Pb1A O2A 1_555 1_555
Pb1A_2 O6 1_555 1_555
Pb1_2 O6A 1_555 1_555
Pb1A_3 O6A 1_555 1_555
O2A H3A 1_555 1_555
H4A O2A 1_555 1_555
P1A O3A 1_555 1_555
O3A Pb1A 1_555 1_555
O4A P1A 1_555 1_555
O5A P1A 1_555 1_555
C1A P1A 1_555 1_555
H5A C1A 1_555 1_555
H6A C1A 1_555 1_555
N1A C1A 1_555 1_555
C2A N1A 1_555 1_555
H7A C2A 1_555 1_555
H8A C2A 1_555 1_555
C3A C2A 1_555 1_555
H9A C3A 1_555 1_555
H10A C3A 1_555 1_555
N2A C3A 1_555 1_555
H11A N2A 1_555 1_555
H12A N2A 1_555 1_555
C4A N2A 1_555 1_555
H13A C4A 1_555 1_555
H14A C4A 1_555 1_555
C5A C6 1_555 1_555
H15A C5A 1_555 1_555
H16A C5A 1_555 1_555
C6A C5 1_555 1_555
H17A C6A 1_555 1_555
H18A C6A 1_555 1_555
P2A O6A 1_555 1_555
O6A_2 Pb1 1_555 1_555
O6_2 Pb1A 1_555 1_555
O6A_3 Pb1A 1_555 1_555
O7A P2A 1_555 1_555
O8A P2A 1_555 1_555
C7A P2A 1_555 1_555
H19A C7A 1_555 1_555
H20A C7A 1_555 1_555
N3A C7A 1_555 1_555
C8A N3A 1_555 1_555
H21A C8A 1_555 1_555
H22A C8A 1_555 1_555
C9A C8A 1_555 1_555
H23A C9A 1_555 1_555
H24A C9A 1_555 1_555
N4A C9A 1_555 1_555
H25A N4A 1_555 1_555
H26A N4A 1_555 1_555
C10A N4A 1_555 1_555
H27A C10A 1_555 1_555
H28A C10A 1_555 1_555
C11A C12 1_555 1_555
H29A C11A 1_555 1_555
H30A C11A 1_555 1_555
C12A C11 1_555 1_555
H31A C12A 1_555 1_555
H32A C12A 1_555 1_555
Pb1A_2 O6A_2 1_555 1_555
N1A C6A 1_555 1_555
C4A C5A 1_555 1_555
N3A C12A 1_555 1_555
C10A C11A 1_555 1_555

#END
