
#######################################################################
#
#                 Cambridge Crystallographic Data Centre
#                                CCDC 
#
#######################################################################
#
# If this CIF has been generated from an entry in the Cambridge 
# Structural Database, then it will include bibliographic, chemical, 
# crystal, experimental, refinement or atomic coordinate data resulting 
# from the CCDC's data processing and validation procedures.
#
#######################################################################

data_MEPRCV
_symmetry_cell_setting           monoclinic
_symmetry_space_group_name_H-M   'P 21/c'
_symmetry_Int_Tables_number      14
_space_group_name_Hall           '-P 2ybc'
loop_
_symmetry_equiv_pos_site_id
_symmetry_equiv_pos_as_xyz
1 x,y,z
2 -x,1/2+y,1/2-z
3 -x,-y,-z
4 x,1/2-y,1/2+z
_cell_length_a                   9.745(7)
_cell_length_b                   3.932(4)
_cell_length_c                   19.035(9)
_cell_angle_alpha                90
_cell_angle_beta                 111.8(2)
_cell_angle_gamma                90
_cell_volume                     677.21
loop_
_atom_site_label
_atom_site_type_symbol
_atom_site_fract_x
_atom_site_fract_y
_atom_site_fract_z
Cu1 Cu 0.00000 0.00000 0.00000
Cl1 Cl -0.17600 -0.65000 -0.08860
N1 N 0.12900 -0.00400 -0.06600
C1 C 0.27900 0.13500 -0.03100
C2 C 0.36600 0.14400 -0.07800
C3 C 0.30600 0.02800 -0.15400
C4 C 0.16100 -0.11300 -0.18200
C5 C 0.07000 -0.12100 -0.14100
C6 C 0.40400 0.07700 -0.20400
Cl1_2 Cl -0.17600 0.35000 -0.08860
N1B N -0.12900 0.00400 0.06600
C1B C -0.27900 -0.13500 0.03100
C2B C -0.36600 -0.14400 0.07800
C3B C -0.30600 -0.02800 0.15400
C4B C -0.16100 0.11300 0.18200
C5B C -0.07000 0.12100 0.14100
C6B C -0.40400 -0.07700 0.20400
Cl1B Cl 0.17600 -0.35000 0.08860
Cl1B_2 Cl 0.17600 0.65000 0.08860
Cu1_2 Cu 0.00000 -1.00000 0.00000
Cu1_3 Cu 0.00000 1.00000 0.00000
loop_
_geom_bond_atom_site_label_1
_geom_bond_atom_site_label_2
_geom_bond_site_symmetry_1
_geom_bond_site_symmetry_2
Cu1 Cl1 1_555 1_555
Cl1 Cu1_2 1_555 1_555
N1 Cu1 1_555 1_555
C1 N1 1_555 1_555
C2 C1 1_555 1_555
C3 C2 1_555 1_555
C4 C3 1_555 1_555
C5 N1 1_555 1_555
C6 C3 1_555 1_555
Cl1_2 Cu1 1_555 1_555
N1B Cu1 1_555 1_555
C1B N1B 1_555 1_555
C2B C1B 1_555 1_555
C3B C2B 1_555 1_555
C4B C3B 1_555 1_555
C5B N1B 1_555 1_555
C6B C3B 1_555 1_555
Cl1B Cu1 1_555 1_555
Cl1B_2 Cu1 1_555 1_555
Cu1_2 Cl1B 1_555 1_555
Cu1_3 Cl1_2 1_555 1_555
C4 C5 1_555 1_555
C4B C5B 1_555 1_555
Cl1B_2 Cu1_3 1_555 1_555

#END
