
#######################################################################
#
#                 Cambridge Crystallographic Data Centre
#                                CCDC 
#
#######################################################################
#
# If this CIF has been generated from an entry in the Cambridge 
# Structural Database, then it will include bibliographic, chemical, 
# crystal, experimental, refinement or atomic coordinate data resulting 
# from the CCDC's data processing and validation procedures.
#
#######################################################################

data_MEPVEI
_symmetry_cell_setting           monoclinic
_symmetry_space_group_name_H-M   'P 21/c'
_symmetry_Int_Tables_number      14
_space_group_name_Hall           '-P 2ybc'
loop_
_symmetry_equiv_pos_site_id
_symmetry_equiv_pos_as_xyz
1 x,y,z
2 -x,1/2+y,1/2-z
3 -x,-y,-z
4 x,1/2-y,1/2+z
_cell_length_a                   12.699(7)
_cell_length_b                   11.877(7)
_cell_length_c                   8.427(4)
_cell_angle_alpha                90
_cell_angle_beta                 107.530(10)
_cell_angle_gamma                90
_cell_volume                     1211.98
loop_
_atom_site_label
_atom_site_type_symbol
_atom_site_fract_x
_atom_site_fract_y
_atom_site_fract_z
Ag1 Ag 0.2844(1) 0.1490(1) 0.1009(1)
N1 N 0.1765(2) 0.2856(2) 0.1582(3)
N2 N 0.3853(2) 0.3723(2) 0.4313(3)
O1 O 0.1557(2) 0.0000(2) 0.1292(3)
C1 C 0.0678(3) 0.2704(3) 0.1268(4)
C2 C -0.0017(3) 0.3518(3) 0.1496(5)
C3 C 0.0410(3) 0.4569(3) 0.1992(4)
C4 C 0.1524(2) 0.4764(3) 0.2262(4)
C5 C 0.2182(2) 0.3871(3) 0.2106(3)
C6 C 0.1960(3) 0.5925(3) 0.2682(4)
C7 C 0.3418(2) 0.3909(2) 0.2684(3)
C8 C 0.4063(2) 0.4002(3) 0.1630(4)
C9 C 0.5181(3) 0.3799(3) 0.2269(4)
C10 C 0.5622(3) 0.3572(3) 0.3918(4)
C11 C 0.4948(3) 0.3581(3) 0.4910(4)
C12 C 0.3570(3) 0.4348(3) -0.0158(4)
O2 O 0.1698(2) 0.6490(2) 0.3682(3)
O3 O 0.2639(2) 0.6298(2) 0.1907(3)
O4 O 0.3946(2) 0.3924(2) -0.1198(3)
O5 O 0.2817(2) 0.5082(2) -0.0433(3)
H1 H 0.1956 -0.0215 0.2338
H2 H 0.1605 -0.0655 0.0792
H3 H 0.0374 0.1983 0.0854
H4 H -0.0784 0.3359 0.1325
H5 H -0.0061 0.5164 0.2145
H6 H 0.5643 0.3818 0.1553
H7 H 0.6394 0.3404 0.4375
H8 H 0.5273 0.3484 0.6088
H9 H 0.2672 0.5796 0.1033
N2C N 0.3853(2) 0.1277(2) -0.0687(3)
O4C O 0.3946(2) 0.1076(2) 0.3802(3)
Ag1C Ag 0.2844(1) 0.3510(1) 0.6009(1)
Ag1C_2 Ag 0.2844(1) 0.3510(1) -0.3991(1)
loop_
_geom_bond_atom_site_label_1
_geom_bond_atom_site_label_2
_geom_bond_site_symmetry_1
_geom_bond_site_symmetry_2
Ag1 N1 1_555 1_555
N1 C1 1_555 1_555
N2 C7 1_555 1_555
O1 Ag1 1_555 1_555
C1 C2 1_555 1_555
C2 C3 1_555 1_555
C3 C4 1_555 1_555
C4 C5 1_555 1_555
C5 N1 1_555 1_555
C6 C4 1_555 1_555
C7 C5 1_555 1_555
C8 C7 1_555 1_555
C9 C8 1_555 1_555
C10 C9 1_555 1_555
C11 N2 1_555 1_555
C12 C8 1_555 1_555
O2 C6 1_555 1_555
O3 C6 1_555 1_555
O4 C12 1_555 1_555
O5 C12 1_555 1_555
H1 O1 1_555 1_555
H2 O1 1_555 1_555
H3 C1 1_555 1_555
H4 C2 1_555 1_555
H5 C3 1_555 1_555
H6 C9 1_555 1_555
H7 C10 1_555 1_555
H8 C11 1_555 1_555
H9 O3 1_555 1_555
N2C Ag1 1_555 1_555
O4C Ag1 1_555 1_555
Ag1C N2 1_555 1_555
Ag1C_2 O4 1_555 1_555
C10 C11 1_555 1_555

#END
