
#######################################################################
#
#                 Cambridge Crystallographic Data Centre
#                                CCDC 
#
#######################################################################
#
# If this CIF has been generated from an entry in the Cambridge 
# Structural Database, then it will include bibliographic, chemical, 
# crystal, experimental, refinement or atomic coordinate data resulting 
# from the CCDC's data processing and validation procedures.
#
#######################################################################

data_MEPVEJ
_symmetry_cell_setting           monoclinic
_symmetry_space_group_name_H-M   'P 21/c'
_symmetry_Int_Tables_number      14
_space_group_name_Hall           '-P 2ybc'
loop_
_symmetry_equiv_pos_site_id
_symmetry_equiv_pos_as_xyz
1 x,y,z
2 -x,1/2+y,1/2-z
3 -x,-y,-z
4 x,1/2-y,1/2+z
_cell_length_a                   7.864(3)
_cell_length_b                   14.328(6)
_cell_length_c                   6.737(2)
_cell_angle_alpha                90
_cell_angle_beta                 100.07(3)
_cell_angle_gamma                90
_cell_volume                     747.4
loop_
_atom_site_label
_atom_site_type_symbol
_atom_site_fract_x
_atom_site_fract_y
_atom_site_fract_z
Cu1 Cu 0.56579(6) 0.91679(3) 0.93504(8)
S1 S 0.26751(12) 0.95751(7) 0.89166(15)
S2 S 0.67109(14) 0.89774(7) 0.62859(16)
N1 N 0.2974(4) 0.8801(3) 1.2635(5)
H1 H 0.4037 0.8965 1.2973
N2 N 0.0407(4) 0.8712(3) 1.0862(6)
H2 H -0.0400 0.8740 0.9822
N3 N 0.6101(5) 0.7060(2) 0.5689(5)
C1 C 0.0188(6) 0.8330(4) 1.2809(9)
H3 H -0.0363 0.7723 1.2658
H4 H -0.0488 0.8746 1.3501
C2 C 0.6360(5) 0.7841(3) 0.5960(5)
C3 C 0.2005(5) 0.9008(2) 1.0900(6)
C4 C 0.2035(6) 0.8259(3) 1.3919(7)
H5 H 0.2158 0.8526 1.5259
H6 H 0.2425 0.7616 1.4024
Cu1B Cu 0.43421(6) 1.08321(3) 1.06496(8)
Cu1C Cu 0.56579(6) 0.58321(3) 0.43504(8)
S1B S 0.73249(12) 1.04249(7) 1.10834(15)
N3C N 0.6101(5) 0.7940(2) 1.0689(5)
loop_
_geom_bond_atom_site_label_1
_geom_bond_atom_site_label_2
_geom_bond_site_symmetry_1
_geom_bond_site_symmetry_2
Cu1 S1 1_555 1_555
S1 C3 1_555 1_555
S2 Cu1 1_555 1_555
N1 H1 1_555 1_555
N2 H2 1_555 1_555
N3 C2 1_555 1_555
C1 N2 1_555 1_555
H3 C1 1_555 1_555
H4 C1 1_555 1_555
C2 S2 1_555 1_555
C3 N1 1_555 1_555
C4 N1 1_555 1_555
H5 C4 1_555 1_555
H6 C4 1_555 1_555
Cu1B S1 1_555 1_555
Cu1C N3 1_555 1_555
S1B Cu1 1_555 1_555
N3C Cu1 1_555 1_555
N2 C3 1_555 1_555
C1 C4 1_555 1_555
Cu1B S1B 1_555 1_555

#END
