
#######################################################################
#
#                 Cambridge Crystallographic Data Centre
#                                CCDC 
#
#######################################################################
#
# If this CIF has been generated from an entry in the Cambridge 
# Structural Database, then it will include bibliographic, chemical, 
# crystal, experimental, refinement or atomic coordinate data resulting 
# from the CCDC's data processing and validation procedures.
#
#######################################################################

data_MEPYHG
_symmetry_cell_setting           orthorhombic
_symmetry_space_group_name_H-M   'F d d 2'
_symmetry_Int_Tables_number      43
_space_group_name_Hall           'F 2 -2d'
loop_
_symmetry_equiv_pos_site_id
_symmetry_equiv_pos_as_xyz
1 x,y,z
2 x,1/2+y,1/2+z
3 1/2+x,y,1/2+z
4 1/2+x,1/2+y,z
5 1/4-x,1/4+y,1/4+z
6 1/4-x,3/4+y,3/4+z
7 3/4-x,1/4+y,3/4+z
8 3/4-x,3/4+y,1/4+z
9 1/4+x,1/4-y,1/4+z
10 1/4+x,3/4-y,3/4+z
11 3/4+x,1/4-y,3/4+z
12 3/4+x,3/4-y,1/4+z
13 1/2-x,-y,1/2+z
14 1/2-x,1/2-y,z
15 -x,-y,z
16 -x,1/2-y,1/2+z
_cell_length_a                   46.465(21)
_cell_length_b                   18.903(12)
_cell_length_c                   4.238(5)
_cell_angle_alpha                90
_cell_angle_beta                 90
_cell_angle_gamma                90
_cell_volume                     3722.35
loop_
_atom_site_label
_atom_site_type_symbol
_atom_site_fract_x
_atom_site_fract_y
_atom_site_fract_z
Hg1 Hg 0.03490 0.21100 0.00000
Cl1 Cl -0.01320 0.17680 0.02900
Cl2 Cl 0.08060 0.25710 -0.02720
O1 O 0.04530 0.13120 0.49860
N1 N 0.06360 0.07640 0.51040
C1 C 0.08910 0.08250 0.33970
C2 C 0.10600 0.02270 0.28250
C3 C 0.09720 -0.04310 0.39590
C4 C 0.07170 -0.04930 0.56650
C5 C 0.05480 0.01050 0.62380
C6 C 0.02770 0.00670 0.80310
C7 C 0.00000 0.00000 0.58520
O1_2 O 0.04530 0.13120 -0.50140
Hg1_2 Hg 0.03490 0.21100 1.00000
C6N C -0.02770 -0.00670 0.80310
C5N C -0.05480 -0.01050 0.62380
N1N N -0.06360 -0.07640 0.51040
C4N C -0.07170 0.04930 0.56650
O1N O -0.04530 -0.13120 0.49860
C1N C -0.08910 -0.08250 0.33970
C3N C -0.09720 0.04310 0.39590
Hg1N Hg -0.03490 -0.21100 0.00000
Hg1N_2 Hg -0.03490 -0.21100 1.00000
C2N C -0.10600 -0.02270 0.28250
Cl1N Cl 0.01320 -0.17680 0.02900
Cl2N Cl -0.08060 -0.25710 -0.02720
O1N_2 O -0.04530 -0.13120 -0.50140
loop_
_geom_bond_atom_site_label_1
_geom_bond_atom_site_label_2
_geom_bond_site_symmetry_1
_geom_bond_site_symmetry_2
Hg1 Cl1 1_555 1_555
Cl2 Hg1 1_555 1_555
O1 Hg1 1_555 1_555
N1 O1 1_555 1_555
C1 N1 1_555 1_555
C2 C1 1_555 1_555
C3 C2 1_555 1_555
C4 C3 1_555 1_555
C5 N1 1_555 1_555
C6 C5 1_555 1_555
C7 C6 1_555 1_555
O1_2 Hg1 1_555 1_555
Hg1_2 O1 1_555 1_555
C6N C7 1_555 1_555
C5N C6N 1_555 1_555
N1N C5N 1_555 1_555
C4N C5N 1_555 1_555
O1N N1N 1_555 1_555
C1N N1N 1_555 1_555
C3N C4N 1_555 1_555
Hg1N O1N 1_555 1_555
Hg1N_2 O1N 1_555 1_555
C2N C1N 1_555 1_555
Cl1N Hg1N 1_555 1_555
Cl2N Hg1N 1_555 1_555
O1N_2 Hg1N 1_555 1_555
C4 C5 1_555 1_555
C3N C2N 1_555 1_555

#END
