
#######################################################################
#
#                 Cambridge Crystallographic Data Centre
#                                CCDC 
#
#######################################################################
#
# If this CIF has been generated from an entry in the Cambridge 
# Structural Database, then it will include bibliographic, chemical, 
# crystal, experimental, refinement or atomic coordinate data resulting 
# from the CCDC's data processing and validation procedures.
#
#######################################################################

data_MEQBIU
_symmetry_cell_setting           monoclinic
_symmetry_space_group_name_H-M   'C 2/c'
_symmetry_Int_Tables_number      15
_space_group_name_Hall           '-C 2yn'
loop_
_symmetry_equiv_pos_site_id
_symmetry_equiv_pos_as_xyz
1 x,y,z
2 1/2+x,1/2+y,z
3 -x,y,1/2-z
4 1/2-x,1/2+y,1/2-z
5 -x,-y,-z
6 1/2-x,1/2-y,-z
7 x,-y,1/2+z
8 1/2+x,1/2-y,1/2+z
_cell_length_a                   31.852(13)
_cell_length_b                   9.772(4)
_cell_length_c                   13.657(6)
_cell_angle_alpha                90
_cell_angle_beta                 99.285(7)
_cell_angle_gamma                90
_cell_volume                     4195.15
loop_
_atom_site_label
_atom_site_type_symbol
_atom_site_fract_x
_atom_site_fract_y
_atom_site_fract_z
Zn1 Zn 0.126525(16) 0.05840(5) 0.96106(4)
C1 C 0.06596(14) 0.2799(4) 0.9314(3)
C2 C 0.04012(15) -0.0776(4) 0.9018(3)
H1 H 0.0548 -0.1602 0.9098
C3 C 0.15842(14) -0.1214(4) 1.0763(3)
C4 C 0.00324(14) 0.4152(4) 0.8802(3)
C5 C 0.18798(13) -0.2119(4) 1.1431(3)
C6 C 0.04760(14) 0.4098(4) 0.9178(3)
C7 C -0.00377(16) -0.0813(5) 0.8717(3)
H2 H -0.0180 -0.1644 0.8617
C8 C -0.09717(16) 0.5609(4) 0.7897(3)
C9 C -0.00313(14) 0.1631(4) 0.8745(3)
C10 C -0.02086(14) 0.2978(4) 0.8615(3)
C11 C 0.04089(14) 0.1573(4) 0.9077(3)
C12 C 0.19105(13) -0.2069(4) 1.2467(3)
C13 C -0.05959(15) 0.4805(5) 0.8244(3)
C14 C 0.13216(16) 0.3721(5) 0.9884(3)
H3 H 0.1610 0.3597 1.0115
C15 C 0.22315(15) -0.2812(5) 1.3048(4)
H4 H 0.2263 -0.2760 1.3736
C16 C -0.02557(15) 0.0398(4) 0.8571(3)
H5 H -0.0548 0.0402 0.8359
C17 C 0.21518(15) -0.2939(5) 1.1008(4)
H6 H 0.2128 -0.2983 1.0321
C18 C 0.11623(16) 0.5046(5) 0.9775(4)
H7 H 0.1339 0.5797 0.9943
C19 C 0.07411(16) 0.5218(4) 0.9414(3)
H8 H 0.0630 0.6097 0.9324
C20 C 0.25021(16) -0.3622(6) 1.2609(5)
H9 H 0.2714 -0.4119 1.3003
C21 C 0.24612(16) -0.3702(6) 1.1599(5)
H10 H 0.2641 -0.4267 1.1308
C22 C -0.13633(14) 0.5160(5) 0.7633(4)
H11 H -0.1453 0.4254 0.7620
C23 C -0.1618(2) 0.6317(10) 0.7374(5)
H12 H -0.1911 0.6316 0.7168
C24 C -0.1372(3) 0.7398(8) 0.7472(6)
H13 H -0.1465 0.8291 0.7335
C25 C 0.15789(14) -0.1371(4) 1.2958(3)
O1 O 0.15796(10) 0.0046(3) 1.0950(2)
O2 O 0.13730(11) -0.1683(3) 0.9988(3)
O3 O -0.09435(16) 0.7010(4) 0.7820(4)
O4 O 0.11984(10) -0.1442(3) 1.2567(2)
O5 O 0.17038(10) -0.0806(3) 1.3784(2)
N1 N 0.10770(12) 0.2623(4) 0.9672(3)
N2 N 0.06206(11) 0.0366(3) 0.9195(3)
N3 N -0.02130(12) 0.5299(3) 0.8578(3)
N4 N -0.06106(11) 0.3415(4) 0.8251(2)
H14 H -0.0830 0.2910 0.8063
Zn1F Zn 0.126525(16) -0.05840(5) 1.46106(4)
O5F O 0.17038(10) 0.0806(3) 0.8784(2)
loop_
_geom_bond_atom_site_label_1
_geom_bond_atom_site_label_2
_geom_bond_site_symmetry_1
_geom_bond_site_symmetry_2
Zn1 O1 1_555 1_555
C1 C6 1_555 1_555
C2 H1 1_555 1_555
C3 C5 1_555 1_555
C4 C6 1_555 1_555
C5 C12 1_555 1_555
C6 C19 1_555 1_555
C7 C2 1_555 1_555
H2 C7 1_555 1_555
C8 C13 1_555 1_555
C9 C10 1_555 1_555
C10 C4 1_555 1_555
C11 C1 1_555 1_555
C12 C15 1_555 1_555
C13 N3 1_555 1_555
C14 H3 1_555 1_555
C15 H4 1_555 1_555
C16 C7 1_555 1_555
H5 C16 1_555 1_555
C17 C5 1_555 1_555
H6 C17 1_555 1_555
C18 C14 1_555 1_555
H7 C18 1_555 1_555
C19 C18 1_555 1_555
H8 C19 1_555 1_555
C20 C15 1_555 1_555
H9 C20 1_555 1_555
C21 C17 1_555 1_555
H10 C21 1_555 1_555
C22 C8 1_555 1_555
H11 C22 1_555 1_555
C23 C22 1_555 1_555
H12 C23 1_555 1_555
C24 C23 1_555 1_555
H13 C24 1_555 1_555
C25 C12 1_555 1_555
O1 C3 1_555 1_555
O2 Zn1 1_555 1_555
O3 C8 1_555 1_555
O4 C25 1_555 1_555
O5 C25 1_555 1_555
N1 Zn1 1_555 1_555
N2 Zn1 1_555 1_555
N3 C4 1_555 1_555
N4 C10 1_555 1_555
H14 N4 1_555 1_555
Zn1F O5 1_555 1_555
O5F Zn1 1_555 1_555
C1 N1 1_555 1_555
C2 N2 1_555 1_555
C3 O2 1_555 1_555
C9 C11 1_555 1_555
C9 C16 1_555 1_555
C11 N2 1_555 1_555
C13 N4 1_555 1_555
C14 N1 1_555 1_555
C20 C21 1_555 1_555
C24 O3 1_555 1_555

#END
