
#######################################################################
#
#                 Cambridge Crystallographic Data Centre
#                                CCDC 
#
#######################################################################
#
# If this CIF has been generated from an entry in the Cambridge 
# Structural Database, then it will include bibliographic, chemical, 
# crystal, experimental, refinement or atomic coordinate data resulting 
# from the CCDC's data processing and validation procedures.
#
#######################################################################

data_MEQGOF
_symmetry_cell_setting           monoclinic
_symmetry_space_group_name_H-M   'C 2/c'
_symmetry_Int_Tables_number      15
_space_group_name_Hall           '-C 2yn'
loop_
_symmetry_equiv_pos_site_id
_symmetry_equiv_pos_as_xyz
1 x,y,z
2 1/2+x,1/2+y,z
3 -x,y,1/2-z
4 1/2-x,1/2+y,1/2-z
5 -x,-y,-z
6 1/2-x,1/2-y,-z
7 x,-y,1/2+z
8 1/2+x,1/2-y,1/2+z
_cell_length_a                   7.7105(15)
_cell_length_b                   16.322(3)
_cell_length_c                   8.0745(16)
_cell_angle_alpha                90
_cell_angle_beta                 114.85(3)
_cell_angle_gamma                90
_cell_volume                     922.095
loop_
_atom_site_label
_atom_site_type_symbol
_atom_site_fract_x
_atom_site_fract_y
_atom_site_fract_z
Co1 Co 0.0000 0.5000 0.5000
Cl1 Cl 0.0000 0.39681(5) 0.2500
O1 O 0.2393(2) 0.44202(10) 0.69173(19)
O2 O 0.1820(2) 0.42683(10) 0.94166(19)
N1 N 0.4832(2) 0.33039(11) 1.1109(2)
C1 C 0.2731(3) 0.41530(13) 0.8480(3)
C2 C 0.4506(3) 0.36056(14) 0.9298(3)
H1 H 0.5615 0.3914 0.9382
H2 H 0.4351 0.3143 0.8493
C3 C 0.5000 0.37773(19) 1.2500
H3 H 0.5000 0.4347 1.2500
C4 C 0.4897(3) 0.25007(13) 1.1624(3)
H4 H 0.4816 0.2043 1.0908
Co1F Co 0.0000 0.5000 0.0000
Co1F_2 Co 0.0000 0.5000 1.0000
Co1F_3 Co 1.0000 0.5000 2.0000
Co1_2 Co 1.0000 0.5000 1.5000
Cl1F Cl 0.0000 0.60319(5) 0.7500
O1B O 0.7607(2) 0.44202(10) 1.80827(19)
O1D O -0.2393(2) 0.55798(10) 0.30827(19)
O2B O 0.8180(2) 0.42683(10) 1.55834(19)
O2F O 0.1820(2) 0.57317(10) 0.44166(19)
O2B_2 O -0.1820(2) 0.42683(10) 0.55834(19)
N1B N 0.5168(2) 0.33039(11) 1.3891(2)
C1B C 0.7269(3) 0.41530(13) 1.6520(3)
C2B C 0.5494(3) 0.36056(14) 1.5702(3)
H1B H 0.4385 0.3914 1.5618
H2B H 0.5649 0.3143 1.6507
C4B C 0.5103(3) 0.25007(13) 1.3376(3)
H4B H 0.5184 0.2043 1.4092
loop_
_geom_bond_atom_site_label_1
_geom_bond_atom_site_label_2
_geom_bond_site_symmetry_1
_geom_bond_site_symmetry_2
Co1 Cl1 1_555 1_555
Cl1 Co1F 1_555 1_555
O1 Co1 1_555 1_555
O2 C1 1_555 1_555
N1 C2 1_555 1_555
C1 O1 1_555 1_555
C2 C1 1_555 1_555
H1 C2 1_555 1_555
H2 C2 1_555 1_555
C3 N1 1_555 1_555
H3 C3 1_555 1_555
C4 N1 1_555 1_555
H4 C4 1_555 1_555
Co1F_2 O2 1_555 1_555
Co1F_3 O1B 1_555 1_555
Co1_2 O2B 1_555 1_555
Cl1F Co1 1_555 1_555
O1B C1B 1_555 1_555
O1D Co1 1_555 1_555
O2B C1B 1_555 1_555
O2F Co1 1_555 1_555
O2B_2 Co1 1_555 1_555
N1B C3 1_555 1_555
C1B C2B 1_555 1_555
C2B N1B 1_555 1_555
H1B C2B 1_555 1_555
H2B C2B 1_555 1_555
C4B C4 1_555 1_555
H4B C4B 1_555 1_555
Co1F_2 Cl1F 1_555 1_555
N1B C4B 1_555 1_555

#END
