
#######################################################################
#
#                 Cambridge Crystallographic Data Centre
#                                CCDC 
#
#######################################################################
#
# If this CIF has been generated from an entry in the Cambridge 
# Structural Database, then it will include bibliographic, chemical, 
# crystal, experimental, refinement or atomic coordinate data resulting 
# from the CCDC's data processing and validation procedures.
#
#######################################################################

data_MEQHAS01
_symmetry_cell_setting           monoclinic
_symmetry_space_group_name_H-M   'C 2/c'
_symmetry_Int_Tables_number      15
_space_group_name_Hall           '-C 2yn'
loop_
_symmetry_equiv_pos_site_id
_symmetry_equiv_pos_as_xyz
1 x,y,z
2 -x,y,1/2-z
3 1/2+x,1/2+y,z
4 1/2-x,1/2+y,1/2-z
5 -x,-y,-z
6 x,-y,1/2+z
7 1/2-x,1/2-y,-z
8 1/2+x,1/2-y,1/2+z
_cell_length_a                   37.21(4)
_cell_length_b                   6.232(7)
_cell_length_c                   8.806(10)
_cell_angle_alpha                90
_cell_angle_beta                 99.585(13)
_cell_angle_gamma                90
_cell_volume                     2013.54
loop_
_atom_site_label
_atom_site_type_symbol
_atom_site_fract_x
_atom_site_fract_y
_atom_site_fract_z
Co1 Co 0.2500 0.7500 0.5000
O1 O 0.29309(11) 0.6566(7) 0.6685(5)
O2 O 0.26775(12) 0.4363(7) 0.8217(5)
O3 O 0.28010(12) 1.0227(7) 0.4435(5)
H1 H 0.2768 1.1038 0.5176
H2 H 0.2665 1.0734 0.3646
C1 C 0.29522(14) 0.5390(10) 0.7857(7)
C2 C 0.33213(15) 0.5234(10) 0.8890(7)
H3 H 0.3448 0.6587 0.8852
H4 H 0.3283 0.5018 0.9943
C3 C 0.35615(16) 0.3441(10) 0.8461(7)
C4 C 0.3420(2) 0.1854(12) 0.7444(9)
H5 H 0.3176 0.1892 0.6993
C5 C 0.36501(19) 0.0139(11) 0.7078(8)
H6 H 0.3552 -0.0904 0.6373
C6 C 0.40020(18) 0.0005(11) 0.7726(9)
H7 H 0.4144 -0.1131 0.7478
C7 C 0.41591(17) 0.1588(11) 0.8790(8)
C8 C 0.39381(16) 0.3346(11) 0.9165(7)
C9 C 0.41033(18) 0.4936(11) 1.0252(8)
H8 H 0.3964 0.6061 1.0537
C10 C 0.4465(2) 0.4782(14) 1.0863(10)
H9 H 0.4569 0.5838 1.1544
C11 C 0.4684(2) 0.3093(16) 1.0502(11)
H10 H 0.4929 0.3028 1.0948
C12 C 0.4535(2) 0.1520(13) 0.9477(9)
H11 H 0.4681 0.0404 0.9233
Co1C Co 0.2500 0.2500 1.0000
Co1C_2 Co 0.2500 1.2500 0.0000
O1F O 0.20691(11) 0.8434(7) 0.3315(5)
O2F O 0.23225(12) 1.0637(7) 0.1783(5)
O2C O 0.23225(12) 0.9363(7) 0.6783(5)
O2E O 0.26775(12) 0.5637(7) 0.3217(5)
O3F O 0.21990(12) 0.4773(7) 0.5565(5)
H1F H 0.2232 0.3962 0.4824
H2F H 0.2335 0.4266 0.6354
C1F C 0.20478(14) 0.9610(10) 0.2143(7)
C2F C 0.16787(15) 0.9766(10) 0.1110(7)
H3F H 0.1552 0.8413 0.1148
H4F H 0.1717 0.9982 0.0057
C3F C 0.14385(16) 1.1559(10) 0.1539(7)
C4F C 0.1580(2) 1.3146(12) 0.2556(9)
H5F H 0.1824 1.3108 0.3007
C5F C 0.13499(19) 1.4861(11) 0.2922(8)
H6F H 0.1448 1.5904 0.3627
C6F C 0.09980(18) 1.4995(11) 0.2274(9)
H7F H 0.0856 1.6131 0.2522
C7F C 0.08409(17) 1.3412(11) 0.1210(8)
C8F C 0.10619(16) 1.1654(11) 0.0835(7)
C9F C 0.08967(18) 1.0064(11) -0.0252(8)
H8F H 0.1036 0.8939 -0.0537
C10F C 0.0535(2) 1.0218(14) -0.0863(10)
H9F H 0.0431 0.9162 -0.1544
C11F C 0.0316(2) 1.1907(16) -0.0502(11)
H10F H 0.0071 1.1972 -0.0948
C12F C 0.0465(2) 1.3480(13) 0.0523(9)
H11F H 0.0319 1.4596 0.0767
loop_
_geom_bond_atom_site_label_1
_geom_bond_atom_site_label_2
_geom_bond_site_symmetry_1
_geom_bond_site_symmetry_2
Co1 O1 1_555 1_555
O1 C1 1_555 1_555
O2 C1 1_555 1_555
O3 Co1 1_555 1_555
H1 O3 1_555 1_555
H2 O3 1_555 1_555
C1 C2 1_555 1_555
C2 H3 1_555 1_555
H4 C2 1_555 1_555
C3 C2 1_555 1_555
C4 C3 1_555 1_555
H5 C4 1_555 1_555
C5 C4 1_555 1_555
H6 C5 1_555 1_555
C6 C5 1_555 1_555
H7 C6 1_555 1_555
C7 C6 1_555 1_555
C8 C3 1_555 1_555
C9 C8 1_555 1_555
H8 C9 1_555 1_555
C10 C9 1_555 1_555
H9 C10 1_555 1_555
C11 C10 1_555 1_555
H10 C11 1_555 1_555
C12 C7 1_555 1_555
H11 C12 1_555 1_555
Co1C O2 1_555 1_555
Co1C_2 O2F 1_555 1_555
O1F Co1 1_555 1_555
O2F C1F 1_555 1_555
O2C Co1 1_555 1_555
O2E Co1 1_555 1_555
O3F Co1 1_555 1_555
H1F O3F 1_555 1_555
H2F O3F 1_555 1_555
C1F O1F 1_555 1_555
C2F C1F 1_555 1_555
H3F C2F 1_555 1_555
H4F C2F 1_555 1_555
C3F C2F 1_555 1_555
C4F C3F 1_555 1_555
H5F C4F 1_555 1_555
C5F C4F 1_555 1_555
H6F C5F 1_555 1_555
C6F C5F 1_555 1_555
H7F C6F 1_555 1_555
C7F C6F 1_555 1_555
C8F C3F 1_555 1_555
C9F C8F 1_555 1_555
H8F C9F 1_555 1_555
C10F C9F 1_555 1_555
H9F C10F 1_555 1_555
C11F C10F 1_555 1_555
H10F C11F 1_555 1_555
C12F C7F 1_555 1_555
H11F C12F 1_555 1_555
C7 C8 1_555 1_555
C11 C12 1_555 1_555
C7F C8F 1_555 1_555
C11F C12F 1_555 1_555

#END
