
#######################################################################
#
#                 Cambridge Crystallographic Data Centre
#                                CCDC 
#
#######################################################################
#
# If this CIF has been generated from an entry in the Cambridge 
# Structural Database, then it will include bibliographic, chemical, 
# crystal, experimental, refinement or atomic coordinate data resulting 
# from the CCDC's data processing and validation procedures.
#
#######################################################################

data_MEQHAS02
_symmetry_cell_setting           monoclinic
_symmetry_space_group_name_H-M   'C 2/c'
_symmetry_Int_Tables_number      15
_space_group_name_Hall           '-C 2yn'
loop_
_symmetry_equiv_pos_site_id
_symmetry_equiv_pos_as_xyz
1 x,y,z
2 -x,y,1/2-z
3 1/2+x,1/2+y,z
4 1/2-x,1/2+y,1/2-z
5 -x,-y,-z
6 x,-y,1/2+z
7 1/2-x,1/2-y,-z
8 1/2+x,1/2-y,1/2+z
_cell_length_a                   36.936(7)
_cell_length_b                   6.2014(11)
_cell_length_c                   8.7561(16)
_cell_angle_alpha                90
_cell_angle_beta                 99.454(4)
_cell_angle_gamma                90
_cell_volume                     1978.39
loop_
_atom_site_label
_atom_site_type_symbol
_atom_site_fract_x
_atom_site_fract_y
_atom_site_fract_z
Co1 Co 0.2500 0.2500 0.0000
O1 O 0.29329(4) 0.3437(2) 0.16868(16)
O2 O 0.26823(4) 0.5661(2) 0.32093(16)
O3 O 0.22009(4) 0.5211(3) 0.05749(19)
H1 H 0.1969 0.5128 0.0323
H2 H 0.2283 0.5812 0.1434
C1 C 0.39388(6) 0.6647(4) 0.4166(2)
C2 C 0.35614(5) 0.6567(3) 0.3476(2)
C3 C 0.34245(6) 0.8169(4) 0.2452(3)
H3 H 0.3179 0.8124 0.1995
C4 C 0.36459(6) 0.9872(4) 0.2077(3)
H4 H 0.3546 1.0929 0.1380
C5 C 0.40057(7) 0.9979(4) 0.2730(3)
H5 H 0.4150 1.1110 0.2474
C6 C 0.41627(6) 0.8389(4) 0.3794(3)
C7 C 0.45355(7) 0.8451(5) 0.4481(3)
H6 H 0.4682 0.9577 0.4235
C8 C 0.46863(7) 0.6921(5) 0.5489(4)
H7 H 0.4933 0.7001 0.5923
C9 C 0.44689(6) 0.5202(4) 0.5881(3)
H8 H 0.4573 0.4149 0.6573
C10 C 0.41054(6) 0.5079(4) 0.5244(3)
H9 H 0.3964 0.3947 0.5522
C11 C 0.33220(5) 0.4755(3) 0.3897(2)
H10 H 0.3451 0.3400 0.3846
H11 H 0.3284 0.4953 0.4959
C12 C 0.29530(5) 0.4610(3) 0.2867(2)
Co1C Co 0.2500 0.7500 0.5000
Co1C_2 Co 0.2500 -0.2500 0.5000
O1C O 0.20671(4) -0.1563(2) 0.33132(16)
O1F O 0.20671(4) 0.1563(2) -0.16868(16)
O2C O 0.23177(4) 0.0661(2) 0.17907(16)
O2E O 0.26823(4) 0.4339(2) -0.17907(16)
O3F O 0.27991(4) -0.0211(3) -0.05749(19)
H1F H 0.3031 -0.0128 -0.0323
H2F H 0.2717 -0.0812 -0.1434
C1C C 0.10612(6) 0.1647(4) 0.0834(2)
C2C C 0.14386(5) 0.1567(3) 0.1524(2)
C3C C 0.15755(6) 0.3169(4) 0.2548(3)
H3C H 0.1821 0.3124 0.3005
C4C C 0.13541(6) 0.4872(4) 0.2923(3)
H4C H 0.1454 0.5929 0.3620
C5C C 0.09943(7) 0.4979(4) 0.2270(3)
H5C H 0.0850 0.6110 0.2526
C6C C 0.08373(6) 0.3389(4) 0.1206(3)
C7C C 0.04645(7) 0.3451(5) 0.0519(3)
H6C H 0.0318 0.4577 0.0765
C8C C 0.03137(7) 0.1921(5) -0.0489(4)
H7C H 0.0067 0.2001 -0.0923
C9C C 0.05311(6) 0.0202(4) -0.0881(3)
H8C H 0.0427 -0.0851 -0.1573
C10C C 0.08946(6) 0.0079(4) -0.0244(3)
H9C H 0.1036 -0.1053 -0.0522
C11C C 0.16780(5) -0.0245(3) 0.1103(2)
H10C H 0.1549 -0.1600 0.1154
H11C H 0.1716 -0.0047 0.0041
C12C C 0.20470(5) -0.0390(3) 0.2133(2)
loop_
_geom_bond_atom_site_label_1
_geom_bond_atom_site_label_2
_geom_bond_site_symmetry_1
_geom_bond_site_symmetry_2
Co1 O1 1_555 1_555
O1 C12 1_555 1_555
O2 C12 1_555 1_555
O3 Co1 1_555 1_555
H1 O3 1_555 1_555
H2 O3 1_555 1_555
C1 C2 1_555 1_555
C2 C3 1_555 1_555
C3 H3 1_555 1_555
C4 C3 1_555 1_555
H4 C4 1_555 1_555
C5 C4 1_555 1_555
H5 C5 1_555 1_555
C6 C1 1_555 1_555
C7 C6 1_555 1_555
H6 C7 1_555 1_555
C8 C7 1_555 1_555
H7 C8 1_555 1_555
C9 C8 1_555 1_555
H8 C9 1_555 1_555
C10 C1 1_555 1_555
H9 C10 1_555 1_555
C11 C2 1_555 1_555
H10 C11 1_555 1_555
H11 C11 1_555 1_555
C12 C11 1_555 1_555
Co1C O2 1_555 1_555
Co1C_2 O1C 1_555 1_555
O1C C12C 1_555 1_555
O1F Co1 1_555 1_555
O2C Co1 1_555 1_555
O2E Co1 1_555 1_555
O3F Co1 1_555 1_555
H1F O3F 1_555 1_555
H2F O3F 1_555 1_555
C1C C2C 1_555 1_555
C2C C3C 1_555 1_555
C3C H3C 1_555 1_555
C4C C3C 1_555 1_555
H4C C4C 1_555 1_555
C5C C4C 1_555 1_555
H5C C5C 1_555 1_555
C6C C1C 1_555 1_555
C7C C6C 1_555 1_555
H6C C7C 1_555 1_555
C8C C7C 1_555 1_555
H7C C8C 1_555 1_555
C9C C8C 1_555 1_555
H8C C9C 1_555 1_555
C10C C1C 1_555 1_555
H9C C10C 1_555 1_555
C11C C2C 1_555 1_555
H10C C11C 1_555 1_555
H11C C11C 1_555 1_555
C12C O2C 1_555 1_555
C5 C6 1_555 1_555
C9 C10 1_555 1_555
C5C C6C 1_555 1_555
C9C C10C 1_555 1_555
C11C C12C 1_555 1_555

#END
