
#######################################################################
#
#                 Cambridge Crystallographic Data Centre
#                                CCDC 
#
#######################################################################
#
# If this CIF has been generated from an entry in the Cambridge 
# Structural Database, then it will include bibliographic, chemical, 
# crystal, experimental, refinement or atomic coordinate data resulting 
# from the CCDC's data processing and validation procedures.
#
#######################################################################

data_MEQHAS
_symmetry_cell_setting           monoclinic
_symmetry_space_group_name_H-M   'C 2/c'
_symmetry_Int_Tables_number      15
_space_group_name_Hall           '-C 2yn'
loop_
_symmetry_equiv_pos_site_id
_symmetry_equiv_pos_as_xyz
1 x,y,z
2 1/2+x,1/2+y,z
3 -x,y,1/2-z
4 1/2-x,1/2+y,1/2-z
5 -x,-y,-z
6 1/2-x,1/2-y,-z
7 x,-y,1/2+z
8 1/2+x,1/2-y,1/2+z
_cell_length_a                   36.954(5)
_cell_length_b                   6.1913(10)
_cell_length_c                   8.7464(13)
_cell_angle_alpha                90
_cell_angle_beta                 99.524(9)
_cell_angle_gamma                90
_cell_volume                     1973.54
loop_
_atom_site_label
_atom_site_type_symbol
_atom_site_fract_x
_atom_site_fract_y
_atom_site_fract_z
Co1 Co 0.2500 0.7500 0.0000
O1 O 0.28065(7) 1.0200(4) -0.0574(3)
O2 O 0.29298(6) 0.6564(4) 0.1682(3)
O3 O 0.26818(6) 0.4347(4) 0.3216(3)
C1 C 0.29509(9) 0.5387(5) 0.2864(4)
C2 C 0.33229(9) 0.5243(5) 0.3898(4)
C3 C 0.35604(9) 0.3439(6) 0.3470(4)
C4 C 0.34241(10) 0.1835(6) 0.2449(4)
C5 C 0.36452(11) 0.0126(6) 0.2089(4)
C6 C 0.40021(11) 0.0011(6) 0.2735(5)
C7 C 0.41627(10) 0.1616(7) 0.3796(4)
C8 C 0.45350(11) 0.1542(8) 0.4486(5)
C9 C 0.46841(11) 0.3101(8) 0.5499(5)
C10 C 0.44648(10) 0.4789(7) 0.5884(5)
C11 C 0.41056(10) 0.4914(6) 0.5245(4)
C12 C 0.39376(10) 0.3354(6) 0.4176(4)
H1 H 0.3286 0.5041 0.4961
H2 H 0.3451 0.6602 0.3846
H3 H 0.2663 1.0357 -0.1432
H4 H 0.2678 0.9955 0.0127
H5 H 0.3179 0.1883 0.1985
H6 H 0.3544 -0.0938 0.1396
H7 H 0.4145 -0.1132 0.2485
H8 H 0.4682 0.0411 0.4247
H9 H 0.4931 0.3041 0.5934
H10 H 0.4567 0.5839 0.6587
H11 H 0.3966 0.6056 0.5516
Co1F Co 0.2500 0.2500 0.5000
Co1F_2 Co 0.2500 1.2500 -0.5000
O1E O 0.21935(7) 0.4800(4) 0.0574(3)
O2E O 0.20702(6) 0.8436(4) -0.1682(3)
O3E O 0.23182(6) 1.0653(4) -0.3216(3)
O3F O 0.26818(6) 0.5653(4) -0.1784(3)
O3C O 0.23182(6) 0.9347(4) 0.1784(3)
C1E C 0.20491(9) 0.9613(5) -0.2864(4)
C2E C 0.16771(9) 0.9757(5) -0.3898(4)
C3E C 0.14396(9) 1.1561(6) -0.3470(4)
C4E C 0.15759(10) 1.3165(6) -0.2449(4)
C5E C 0.13548(11) 1.4874(6) -0.2089(4)
C6E C 0.09979(11) 1.4989(6) -0.2735(5)
C7E C 0.08373(10) 1.3384(7) -0.3796(4)
C8E C 0.04650(11) 1.3458(8) -0.4486(5)
C9E C 0.03159(11) 1.1899(8) -0.5499(5)
C10E C 0.05352(10) 1.0211(7) -0.5884(5)
C11E C 0.08944(10) 1.0086(6) -0.5245(4)
C12E C 0.10624(10) 1.1646(6) -0.4176(4)
H1E H 0.1714 0.9959 -0.4961
H2E H 0.1549 0.8398 -0.3846
H3E H 0.2337 0.4643 0.1432
H4E H 0.2322 0.5045 -0.0127
H5E H 0.1821 1.3117 -0.1985
H6E H 0.1456 1.5938 -0.1396
H7E H 0.0855 1.6132 -0.2485
H8E H 0.0318 1.4589 -0.4247
H9E H 0.0069 1.1959 -0.5934
H10E H 0.0433 0.9161 -0.6587
H11E H 0.1034 0.8944 -0.5516
loop_
_geom_bond_atom_site_label_1
_geom_bond_atom_site_label_2
_geom_bond_site_symmetry_1
_geom_bond_site_symmetry_2
Co1 O1 1_555 1_555
O1 H3 1_555 1_555
O2 Co1 1_555 1_555
O3 C1 1_555 1_555
C1 O2 1_555 1_555
C2 C1 1_555 1_555
C3 C2 1_555 1_555
C4 C3 1_555 1_555
C5 C4 1_555 1_555
C6 C5 1_555 1_555
C7 C6 1_555 1_555
C8 C7 1_555 1_555
C9 C8 1_555 1_555
C10 C9 1_555 1_555
C11 C10 1_555 1_555
C12 C3 1_555 1_555
H1 C2 1_555 1_555
H2 C2 1_555 1_555
H4 O1 1_555 1_555
H5 C4 1_555 1_555
H6 C5 1_555 1_555
H7 C6 1_555 1_555
H8 C8 1_555 1_555
H9 C9 1_555 1_555
H10 C10 1_555 1_555
H11 C11 1_555 1_555
Co1F O3 1_555 1_555
Co1F_2 O3E 1_555 1_555
O1E Co1 1_555 1_555
O2E Co1 1_555 1_555
O3E C1E 1_555 1_555
O3F Co1 1_555 1_555
O3C Co1 1_555 1_555
C1E O2E 1_555 1_555
C2E C1E 1_555 1_555
C3E C2E 1_555 1_555
C4E C3E 1_555 1_555
C5E C4E 1_555 1_555
C6E C5E 1_555 1_555
C7E C6E 1_555 1_555
C8E C7E 1_555 1_555
C9E C8E 1_555 1_555
C10E C9E 1_555 1_555
C11E C10E 1_555 1_555
C12E C3E 1_555 1_555
H1E C2E 1_555 1_555
H2E C2E 1_555 1_555
H3E O1E 1_555 1_555
H4E O1E 1_555 1_555
H5E C4E 1_555 1_555
H6E C5E 1_555 1_555
H7E C6E 1_555 1_555
H8E C8E 1_555 1_555
H9E C9E 1_555 1_555
H10E C10E 1_555 1_555
H11E C11E 1_555 1_555
C7 C12 1_555 1_555
C11 C12 1_555 1_555
C7E C12E 1_555 1_555
C11E C12E 1_555 1_555

#END
