
#######################################################################
#
#                 Cambridge Crystallographic Data Centre
#                                CCDC 
#
#######################################################################
#
# If this CIF has been generated from an entry in the Cambridge 
# Structural Database, then it will include bibliographic, chemical, 
# crystal, experimental, refinement or atomic coordinate data resulting 
# from the CCDC's data processing and validation procedures.
#
#######################################################################

data_MEQKOJ
_symmetry_cell_setting           triclinic
_symmetry_space_group_name_H-M   'P -1'
_symmetry_Int_Tables_number      2
_space_group_name_Hall           '-P 1'
loop_
_symmetry_equiv_pos_site_id
_symmetry_equiv_pos_as_xyz
1 x,y,z
2 -x,-y,-z
_cell_length_a                   7.945(3)
_cell_length_b                   8.170(3)
_cell_length_c                   9.642(3)
_cell_angle_alpha                71.059(5)
_cell_angle_beta                 76.441(5)
_cell_angle_gamma                72.690(4)
_cell_volume                     558.543
loop_
_atom_site_label
_atom_site_type_symbol
_atom_site_fract_x
_atom_site_fract_y
_atom_site_fract_z
Co1 Co 0.37364(8) 0.36815(8) 0.48750(8)
S1 S 0.21315(16) 0.39574(18) 0.28195(16)
S2 S 0.64935(16) 0.24144(15) 0.30400(15)
O1 O 0.4570(4) 0.6052(3) 0.3810(4)
N1 N -0.1453(5) 0.5128(5) 0.3957(5)
N2 N 0.6366(5) -0.1158(5) 0.3880(5)
N3 N 0.3658(5) 0.7437(5) 0.2861(5)
C1 C 0.0017(6) 0.4663(6) 0.3479(5)
C2 C 0.6408(6) 0.0314(6) 0.3534(5)
C3 C 0.2263(6) 0.8590(6) 0.3373(6)
C4 C 0.1386(6) 1.0053(6) 0.2389(7)
C5 C 0.1888(7) 1.0348(7) 0.0903(7)
C6 C 0.3281(7) 0.9076(7) 0.0423(6)
C7 C 0.4151(7) 0.7640(7) 0.1419(6)
C8 C 0.0970(8) 1.1993(7) -0.0168(7)
H1 H 0.5096 0.6801 0.1079
H2 H 0.1887 0.8406 0.4389
H3 H 0.0426 1.0860 0.2753
H4 H 0.3633 0.9197 -0.0589
H5 H 0.1431 1.1922 -0.1166
H6 H 0.1184 1.3030 -0.0044
H7 H -0.0290 1.2075 0.0025
Co1A Co 0.62636(8) 0.63185(8) 0.51250(8)
Co1A_2 Co -0.37364(8) 0.63185(8) 0.51250(8)
Co1A_3 Co 0.62636(8) -0.36815(8) 0.51250(8)
O1A O 0.5430(4) 0.3948(3) 0.6190(4)
N1A N 0.1453(5) 0.4872(5) 0.6043(5)
N2A N 0.3634(5) 0.1158(5) 0.6120(5)
loop_
_geom_bond_atom_site_label_1
_geom_bond_atom_site_label_2
_geom_bond_site_symmetry_1
_geom_bond_site_symmetry_2
Co1 S1 1_555 1_555
S1 C1 1_555 1_555
S2 Co1 1_555 1_555
O1 Co1 1_555 1_555
N1 C1 1_555 1_555
N2 C2 1_555 1_555
N3 O1 1_555 1_555
C2 S2 1_555 1_555
C3 N3 1_555 1_555
C4 C3 1_555 1_555
C5 C4 1_555 1_555
C6 C5 1_555 1_555
C7 N3 1_555 1_555
C8 C5 1_555 1_555
H1 C7 1_555 1_555
H2 C3 1_555 1_555
H3 C4 1_555 1_555
H4 C6 1_555 1_555
H5 C8 1_555 1_555
H6 C8 1_555 1_555
H7 C8 1_555 1_555
Co1A O1 1_555 1_555
Co1A_2 N1 1_555 1_555
Co1A_3 N2 1_555 1_555
O1A Co1 1_555 1_555
N1A Co1 1_555 1_555
N2A Co1 1_555 1_555
C6 C7 1_555 1_555
Co1A O1A 1_555 1_555

#END
