
#######################################################################
#
#                 Cambridge Crystallographic Data Centre
#                                CCDC 
#
#######################################################################
#
# If this CIF has been generated from an entry in the Cambridge 
# Structural Database, then it will include bibliographic, chemical, 
# crystal, experimental, refinement or atomic coordinate data resulting 
# from the CCDC's data processing and validation procedures.
#
#######################################################################

data_MEQUNI
_symmetry_cell_setting           monoclinic
_symmetry_space_group_name_H-M   'P 1 1 21/b'
_symmetry_Int_Tables_number      14
_space_group_name_Hall           '-P 2bc'
loop_
_symmetry_equiv_pos_site_id
_symmetry_equiv_pos_as_xyz
1 x,y,z
2 -x,1/2-y,1/2+z
3 -x,-y,-z
4 x,1/2+y,1/2-z
_cell_length_a                   3.66(1)
_cell_length_b                   12.98(2)
_cell_length_c                   14.74(3)
_cell_angle_alpha                90
_cell_angle_beta                 90
_cell_angle_gamma                91.15
_cell_volume                     700.109
loop_
_atom_site_label
_atom_site_type_symbol
_atom_site_fract_x
_atom_site_fract_y
_atom_site_fract_z
Ni1 Ni 1.00000 0.50000 0.50000
S1 S 0.47300 0.61300 0.55800
N1 N 0.06800 0.59000 0.38600
C1 C -0.07200 0.55900 0.30600
C2 C -0.09200 0.63000 0.22800
C3 C 0.03700 0.73300 0.23800
C4 C 0.19800 0.75900 0.32400
C5 C 0.34500 0.86300 0.33900
C6 C 0.49600 0.88300 0.42100
C7 C 0.54400 0.81100 0.49200
C8 C 0.40900 0.70800 0.47500
C9 C 0.21400 0.68600 0.39400
S1_2 S 1.47300 0.61300 0.55800
N1_2 N 1.06800 0.59000 0.38600
C1_2 C 0.92800 0.55900 0.30600
C2_2 C 0.90800 0.63000 0.22800
C3_2 C 1.03700 0.73300 0.23800
C4_2 C 1.19800 0.75900 0.32400
C5_2 C 1.34500 0.86300 0.33900
C6_2 C 1.49600 0.88300 0.42100
C7_2 C 1.54400 0.81100 0.49200
C8_2 C 1.40900 0.70800 0.47500
C9_2 C 1.21400 0.68600 0.39400
S1B S 0.52700 0.38700 0.44200
S1B_2 S 1.52700 0.38700 0.44200
N1B N 0.93200 0.41000 0.61400
Ni1_2 Ni 0.00000 0.50000 0.50000
Ni1_3 Ni 2.00000 0.50000 0.50000
loop_
_geom_bond_atom_site_label_1
_geom_bond_atom_site_label_2
_geom_bond_site_symmetry_1
_geom_bond_site_symmetry_2
Ni1 S1 1_555 1_555
S1 C8 1_555 1_555
N1 C1 1_555 1_555
C1 C2 1_555 1_555
C2 C3 1_555 1_555
C3 C4 1_555 1_555
C4 C5 1_555 1_555
C5 C6 1_555 1_555
C6 C7 1_555 1_555
C7 C8 1_555 1_555
C8 C9 1_555 1_555
C9 N1 1_555 1_555
S1_2 Ni1 1_555 1_555
N1_2 Ni1 1_555 1_555
C1_2 N1_2 1_555 1_555
C2_2 C1_2 1_555 1_555
C3_2 C2_2 1_555 1_555
C4_2 C3_2 1_555 1_555
C5_2 C4_2 1_555 1_555
C6_2 C5_2 1_555 1_555
C7_2 C6_2 1_555 1_555
C8_2 S1_2 1_555 1_555
C9_2 N1_2 1_555 1_555
S1B Ni1 1_555 1_555
S1B_2 Ni1 1_555 1_555
N1B Ni1 1_555 1_555
Ni1_2 S1 1_555 1_555
Ni1_3 S1_2 1_555 1_555
N1 Ni1_2 1_555 1_555
C4 C9 1_555 1_555
C4_2 C9_2 1_555 1_555
C7_2 C8_2 1_555 1_555
C8_2 C9_2 1_555 1_555
S1B Ni1_2 1_555 1_555
S1B_2 Ni1_3 1_555 1_555

#END
