
#######################################################################
#
#                 Cambridge Crystallographic Data Centre
#                                CCDC 
#
#######################################################################
#
# If this CIF has been generated from an entry in the Cambridge 
# Structural Database, then it will include bibliographic, chemical, 
# crystal, experimental, refinement or atomic coordinate data resulting 
# from the CCDC's data processing and validation procedures.
#
#######################################################################

data_MEQVAF
_symmetry_cell_setting           monoclinic
_symmetry_space_group_name_H-M   'C 2/m'
_symmetry_Int_Tables_number      12
_space_group_name_Hall           '-C 2y'
loop_
_symmetry_equiv_pos_site_id
_symmetry_equiv_pos_as_xyz
1 x,y,z
2 1/2+x,1/2+y,z
3 x,-y,z
4 1/2+x,1/2-y,z
5 -x,-y,-z
6 1/2-x,1/2-y,-z
7 -x,y,-z
8 1/2-x,1/2+y,-z
_cell_length_a                   18.4317(4)
_cell_length_b                   26.0293(6)
_cell_length_c                   10.9047(2)
_cell_angle_alpha                90
_cell_angle_beta                 121.001(1)
_cell_angle_gamma                90
_cell_volume                     4484.38
loop_
_atom_site_label
_atom_site_type_symbol
_atom_site_fract_x
_atom_site_fract_y
_atom_site_fract_z
Sc1 Sc 0.42658(5) 0.0000 0.05163(8)
O12 O 0.3275(2) 0.0000 0.1121(3)
O13 O 0.46833(17) 0.05984(10) 0.2144(3)
O14 O 0.3384(3) 0.05970(14) -0.0867(3)
O15 O 0.5511(3) 0.0000 0.1154(6)
O13B O 0.46833(17) -0.05984(10) 0.2144(3)
O14B O 0.3384(3) -0.05970(14) -0.0867(3)
O15D O 0.4489(3) 0.0000 -0.1154(6)
Sc1D Sc 0.57342(5) 0.0000 -0.05163(8)
O12D O 0.6725(2) 0.0000 -0.1121(3)
O13D O 0.53167(17) -0.05984(10) -0.2144(3)
O13F O 0.53167(17) 0.05984(10) -0.2144(3)
O14D O 0.6616(3) -0.05970(14) 0.0867(3)
O14F O 0.6616(3) 0.05970(14) 0.0867(3)
S1 S 0.19244(5) 0.39475(3) 0.42467(8)
Na1 Na 0.32966(13) 0.5000 0.5058(2)
O1 O 0.20255(17) 0.40760(10) 0.5624(3)
C1 C 0.51128(18) 0.27801(12) 0.8028(3)
S2 S 0.36932(5) 0.41258(3) 0.03344(10)
Na2 Na 0.5000 0.5000 0.5000
O2 O 0.10611(15) 0.38019(10) 0.3158(3)
C2 C 0.42332(18) 0.25646(12) 0.7491(3)
H1 H 0.4045 0.2658 0.8165
H2 H 0.4249 0.2185 0.7447
Na3 Na 0.5000 0.5000 1.0000
C3 C 0.36080(18) 0.27766(12) 0.6010(3)
O3 O 0.3166(3) 0.43395(14) 0.0848(6)
O4 O 0.3597(2) 0.5000 0.7554(4)
C4 C 0.31204(18) 0.32061(12) 0.5857(3)
H3 H 0.3176 0.3369 0.6681
O5 O 0.3244(3) 0.40977(15) -0.1185(4)
C5 C 0.25499(18) 0.33997(11) 0.4500(3)
O6 O 0.44922(15) 0.43909(9) 0.0950(3)
C6 C 0.24537(18) 0.31597(12) 0.3282(3)
H4 H 0.2054 0.3289 0.2361
O7 O 0.55108(13) 0.20118(8) 0.7385(2)
C7 C 0.29366(18) 0.27339(12) 0.3406(3)
O8 O 0.39826(14) 0.21292(9) 0.4817(2)
C8 C 0.35207(18) 0.25465(12) 0.4778(3)
O9 O 0.22419(16) 0.43582(9) 0.3731(3)
C9 C 0.28617(18) 0.24891(12) 0.2083(3)
H5 H 0.2282 0.2540 0.1254
H6 H 0.2969 0.2115 0.2237
O10 O 0.3588(3) 0.5000 0.3113(5)
C10 C 0.35025(18) 0.27333(11) 0.1777(3)
O11 O 0.4473(2) 0.43959(16) 0.6025(3)
C11 C 0.57216(19) 0.25071(12) 0.7882(3)
C12 C 0.33358(19) 0.32318(12) 0.1217(3)
H7 H 0.2814 0.3391 0.0966
C13 C 0.39217(19) 0.34954(12) 0.1024(3)
C14 C 0.53052(19) 0.32729(12) 0.8590(3)
H8 H 0.4904 0.3460 0.8711
C10F C 0.64975(18) 0.27333(11) 0.8223(3)
C9F C 0.71383(18) 0.24891(12) 0.7917(3)
C7F C 0.70634(18) 0.27339(12) 0.6594(3)
C6F C 0.75463(18) 0.31597(12) 0.6718(3)
C5F C 0.74501(18) 0.33997(11) 0.5500(3)
S1F S 0.80756(5) 0.39475(3) 0.57533(8)
O1F O 0.79745(17) 0.40760(10) 0.4376(3)
O2F O 0.89389(15) 0.38019(10) 0.6842(3)
O9F O 0.77581(16) 0.43582(9) 0.6269(3)
C4F C 0.68796(18) 0.32061(12) 0.4143(3)
C3F C 0.63920(18) 0.27766(12) 0.3990(3)
C2F C 0.57668(18) 0.25646(12) 0.2509(3)
C1F C 0.48872(18) 0.27801(12) 0.1972(3)
C11F C 0.42784(19) 0.25071(12) 0.2118(3)
O7F O 0.44892(13) 0.20118(8) 0.2615(2)
C14F C 0.46948(19) 0.32729(12) 0.1410(3)
H8F H 0.5096 0.3460 0.1289
H1F H 0.5955 0.2658 0.1835
H2F H 0.5751 0.2185 0.2553
C8F C 0.64793(18) 0.25465(12) 0.5222(3)
O8F O 0.60174(14) 0.21292(9) 0.5183(2)
H3F H 0.6824 0.3369 0.3319
H4F H 0.7946 0.3289 0.7639
H5F H 0.7718 0.2540 0.8746
H6F H 0.7031 0.2115 0.7763
C12F C 0.66642(19) 0.32318(12) 0.8783(3)
H7F H 0.7186 0.3391 0.9034
C13F C 0.60783(19) 0.34954(12) 0.8976(3)
S2F S 0.63068(5) 0.41258(3) 0.96656(10)
O3F O 0.6834(3) 0.43395(14) 0.9152(6)
O5F O 0.6756(3) 0.40977(15) 1.1185(4)
O6F O 0.55078(15) 0.43909(9) 0.9050(3)
O10D O 0.6412(3) 0.5000 0.6887(5)
O11B O 0.4473(2) 0.56041(16) 0.6025(3)
O11D O 0.5527(2) 0.56041(16) 0.3975(3)
O11F O 0.5527(2) 0.43959(16) 0.3975(3)
Na1D Na 0.67034(13) 0.5000 0.4942(2)
S1B S 0.19244(5) 0.60525(3) 0.42467(8)
O1B O 0.20255(17) 0.59240(10) 0.5624(3)
C1B C 0.51128(18) 0.72199(12) 0.8028(3)
S2B S 0.36932(5) 0.58742(3) 0.03344(10)
O2B O 0.10611(15) 0.61981(10) 0.3158(3)
C2B C 0.42332(18) 0.74354(12) 0.7491(3)
H1B H 0.4045 0.7342 0.8165
H2B H 0.4249 0.7815 0.7447
C3B C 0.36080(18) 0.72234(12) 0.6010(3)
O3B O 0.3166(3) 0.56605(14) 0.0848(6)
C4B C 0.31204(18) 0.67939(12) 0.5857(3)
H3B H 0.3176 0.6631 0.6681
O5B O 0.3244(3) 0.59023(15) -0.1185(4)
C5B C 0.25499(18) 0.66003(11) 0.4500(3)
O6B O 0.44922(15) 0.56091(9) 0.0950(3)
C6B C 0.24537(18) 0.68403(12) 0.3282(3)
H4B H 0.2054 0.6711 0.2361
O7B O 0.55108(13) 0.79882(8) 0.7385(2)
C7B C 0.29366(18) 0.72661(12) 0.3406(3)
O8B O 0.39826(14) 0.78708(9) 0.4817(2)
C8B C 0.35207(18) 0.74535(12) 0.4778(3)
O9B O 0.22419(16) 0.56418(9) 0.3731(3)
C9B C 0.28617(18) 0.75109(12) 0.2083(3)
H5B H 0.2282 0.7460 0.1254
H6B H 0.2969 0.7885 0.2237
C10B C 0.35025(18) 0.72667(11) 0.1777(3)
C11B C 0.57216(19) 0.74929(12) 0.7882(3)
C12B C 0.33358(19) 0.67682(12) 0.1217(3)
H7B H 0.2814 0.6609 0.0966
C13B C 0.39217(19) 0.65046(12) 0.1024(3)
C14B C 0.53052(19) 0.67271(12) 0.8590(3)
H8B H 0.4904 0.6540 0.8711
C10D C 0.64975(18) 0.72667(11) 0.8223(3)
C9D C 0.71383(18) 0.75109(12) 0.7917(3)
C7D C 0.70634(18) 0.72661(12) 0.6594(3)
C6D C 0.75463(18) 0.68403(12) 0.6718(3)
C5D C 0.74501(18) 0.66003(11) 0.5500(3)
S1D S 0.80756(5) 0.60525(3) 0.57533(8)
O1D O 0.79745(17) 0.59240(10) 0.4376(3)
O2D O 0.89389(15) 0.61981(10) 0.6842(3)
O9D O 0.77581(16) 0.56418(9) 0.6269(3)
C4D C 0.68796(18) 0.67939(12) 0.4143(3)
C3D C 0.63920(18) 0.72234(12) 0.3990(3)
C2D C 0.57668(18) 0.74354(12) 0.2509(3)
C1D C 0.48872(18) 0.72199(12) 0.1972(3)
C11D C 0.42784(19) 0.74929(12) 0.2118(3)
O7D O 0.44892(13) 0.79882(8) 0.2615(2)
C14D C 0.46948(19) 0.67271(12) 0.1410(3)
H8D H 0.5096 0.6540 0.1289
H1D H 0.5955 0.7342 0.1835
H2D H 0.5751 0.7815 0.2553
C8D C 0.64793(18) 0.74535(12) 0.5222(3)
O8D O 0.60174(14) 0.78708(9) 0.5183(2)
H3D H 0.6824 0.6631 0.3319
H4D H 0.7946 0.6711 0.7639
H5D H 0.7718 0.7460 0.8746
H6D H 0.7031 0.7885 0.7763
C12D C 0.66642(19) 0.67682(12) 0.8783(3)
H7D H 0.7186 0.6609 0.9034
C13D C 0.60783(19) 0.65046(12) 0.8976(3)
S2D S 0.63068(5) 0.58742(3) 0.96656(10)
O3D O 0.6834(3) 0.56605(14) 0.9152(6)
O5D O 0.6756(3) 0.59023(15) 1.1185(4)
O6D O 0.55078(15) 0.56091(9) 0.9050(3)
O4D O 0.6403(2) 0.5000 0.2446(4)
O4D_2 O 0.6403(2) 0.5000 1.2446(4)
O6_2 O 0.44922(15) 0.43909(9) 1.0950(3)
O6B_2 O 0.44922(15) 0.56091(9) 1.0950(3)
Na3_2 Na 0.5000 0.5000 0.0000
O16 O 0.3448(3) 0.0000 0.3720(4)
O17 O 0.35258(16) 0.12043(10) 0.2555(3)
O18 O 0.42579(19) 0.15608(11) 0.0023(3)
O19 O 0.5000 0.6486(2) 0.5000
O20 O 0.5000 0.0463(6) 0.5000
loop_
_geom_bond_atom_site_label_1
_geom_bond_atom_site_label_2
_geom_bond_site_symmetry_1
_geom_bond_site_symmetry_2
Sc1 O12 1_555 1_555
S1 O1 1_555 1_555
Na1 O4 1_555 1_555
C1 C2 1_555 1_555
S2 O3 1_555 1_555
Na2 O10 1_555 1_555
O2 S1 1_555 1_555
C2 H1 1_555 1_555
H2 C2 1_555 1_555
Na3 O4 1_555 1_555
C3 C2 1_555 1_555
C4 C3 1_555 1_555
H3 C4 1_555 1_555
O5 S2 1_555 1_555
C5 S1 1_555 1_555
O6 S2 1_555 1_555
C6 C5 1_555 1_555
H4 C6 1_555 1_555
O7 C11 1_555 1_555
C7 C6 1_555 1_555
O8 C8 1_555 1_555
C8 C3 1_555 1_555
O9 S1 1_555 1_555
C9 C7 1_555 1_555
H5 C9 1_555 1_555
H6 C9 1_555 1_555
O10 Na1 1_555 1_555
C10 C9 1_555 1_555
O11 Na1 1_555 1_555
C11 C1 1_555 1_555
C12 C10 1_555 1_555
H7 C12 1_555 1_555
O13 Sc1 1_555 1_555
C13 S2 1_555 1_555
O14 Sc1 1_555 1_555
C14 C1 1_555 1_555
H8 C14 1_555 1_555
O15 Sc1 1_555 1_555
C10F C11 1_555 1_555
C9F C10F 1_555 1_555
C7F C9F 1_555 1_555
C6F C7F 1_555 1_555
C5F C6F 1_555 1_555
S1F C5F 1_555 1_555
O1F S1F 1_555 1_555
O2F S1F 1_555 1_555
O9F S1F 1_555 1_555
C4F C5F 1_555 1_555
C3F C4F 1_555 1_555
C2F C3F 1_555 1_555
C1F C2F 1_555 1_555
C11F C10 1_555 1_555
O7F C11F 1_555 1_555
C14F C13 1_555 1_555
H8F C14F 1_555 1_555
H1F C2F 1_555 1_555
H2F C2F 1_555 1_555
C8F C7F 1_555 1_555
O8F C8F 1_555 1_555
H3F C4F 1_555 1_555
H4F C6F 1_555 1_555
H5F C9F 1_555 1_555
H6F C9F 1_555 1_555
C12F C10F 1_555 1_555
H7F C12F 1_555 1_555
C13F C14 1_555 1_555
S2F C13F 1_555 1_555
O3F S2F 1_555 1_555
O5F S2F 1_555 1_555
O6F Na3 1_555 1_555
O10D Na2 1_555 1_555
O11B Na1 1_555 1_555
O11D Na2 1_555 1_555
O11F Na2 1_555 1_555
Na1D O9F 1_555 1_555
S1B O1B 1_555 1_555
C1B C2B 1_555 1_555
S2B O3B 1_555 1_555
O2B S1B 1_555 1_555
C2B H1B 1_555 1_555
H2B C2B 1_555 1_555
C3B C2B 1_555 1_555
C4B C3B 1_555 1_555
H3B C4B 1_555 1_555
O5B S2B 1_555 1_555
C5B S1B 1_555 1_555
O6B S2B 1_555 1_555
C6B C5B 1_555 1_555
H4B C6B 1_555 1_555
O7B C11B 1_555 1_555
C7B C6B 1_555 1_555
O8B C8B 1_555 1_555
C8B C3B 1_555 1_555
O9B Na1 1_555 1_555
C9B C7B 1_555 1_555
H5B C9B 1_555 1_555
H6B C9B 1_555 1_555
C10B C9B 1_555 1_555
C11B C1B 1_555 1_555
C12B C10B 1_555 1_555
H7B C12B 1_555 1_555
C13B S2B 1_555 1_555
C14B C1B 1_555 1_555
H8B C14B 1_555 1_555
C10D C11B 1_555 1_555
C9D C10D 1_555 1_555
C7D C9D 1_555 1_555
C6D C7D 1_555 1_555
C5D C6D 1_555 1_555
S1D C5D 1_555 1_555
O1D S1D 1_555 1_555
O2D S1D 1_555 1_555
O9D Na1D 1_555 1_555
C4D C5D 1_555 1_555
C3D C4D 1_555 1_555
C2D C3D 1_555 1_555
C1D C2D 1_555 1_555
C11D C10B 1_555 1_555
O7D C11D 1_555 1_555
C14D C13B 1_555 1_555
H8D C14D 1_555 1_555
H1D C2D 1_555 1_555
H2D C2D 1_555 1_555
C8D C7D 1_555 1_555
O8D C8D 1_555 1_555
H3D C4D 1_555 1_555
H4D C6D 1_555 1_555
H5D C9D 1_555 1_555
H6D C9D 1_555 1_555
C12D C10D 1_555 1_555
H7D C12D 1_555 1_555
C13D C14B 1_555 1_555
S2D C13D 1_555 1_555
O3D S2D 1_555 1_555
O5D S2D 1_555 1_555
O6D Na3 1_555 1_555
O4D Na1D 1_555 1_555
O13B Sc1 1_555 1_555
O14B Sc1 1_555 1_555
O15D Sc1 1_555 1_555
Sc1D O15 1_555 1_555
O12D Sc1D 1_555 1_555
O13D Sc1D 1_555 1_555
O13F Sc1D 1_555 1_555
O14D Sc1D 1_555 1_555
O14F Sc1D 1_555 1_555
O4D_2 Na3 1_555 1_555
O6_2 Na3 1_555 1_555
O6B_2 Na3 1_555 1_555
Na3_2 O6 1_555 1_555
Na1 O9 1_555 1_555
Na2 O11 1_555 1_555
Na2 O11B 1_555 1_555
C4 C5 1_555 1_555
C7 C8 1_555 1_555
C12 C13 1_555 1_555
C3F C8F 1_555 1_555
C1F C11F 1_555 1_555
C1F C14F 1_555 1_555
C12F C13F 1_555 1_555
S2F O6F 1_555 1_555
O10D Na1D 1_555 1_555
O11D Na1D 1_555 1_555
O11F Na1D 1_555 1_555
S1B O9B 1_555 1_555
C4B C5B 1_555 1_555
O6B Na3_2 1_555 1_555
C7B C8B 1_555 1_555
C12B C13B 1_555 1_555
S1D O9D 1_555 1_555
C3D C8D 1_555 1_555
C1D C11D 1_555 1_555
C1D C14D 1_555 1_555
C12D C13D 1_555 1_555
S2D O6D 1_555 1_555
O4D Na3_2 1_555 1_555
O15D Sc1D 1_555 1_555

#END
