
#######################################################################
#
#                 Cambridge Crystallographic Data Centre
#                                CCDC 
#
#######################################################################
#
# If this CIF has been generated from an entry in the Cambridge 
# Structural Database, then it will include bibliographic, chemical, 
# crystal, experimental, refinement or atomic coordinate data resulting 
# from the CCDC's data processing and validation procedures.
#
#######################################################################

data_MEQXIP
_symmetry_cell_setting           orthorhombic
_symmetry_space_group_name_H-M   'P 21 21 21'
_symmetry_Int_Tables_number      19
_space_group_name_Hall           'P 2ac 2ab'
loop_
_symmetry_equiv_pos_site_id
_symmetry_equiv_pos_as_xyz
1 x,y,z
2 1/2-x,-y,1/2+z
3 -x,1/2+y,1/2-z
4 1/2+x,1/2-y,-z
_cell_length_a                   12.946(1)
_cell_length_b                   20.246(1)
_cell_length_c                   27.034(1)
_cell_angle_alpha                90
_cell_angle_beta                 90
_cell_angle_gamma                90
_cell_volume                     7085.74
loop_
_atom_site_label
_atom_site_type_symbol
_atom_site_fract_x
_atom_site_fract_y
_atom_site_fract_z
Ti1 Ti 0.72840(10) 0.50509(7) 0.84799(5)
Ti2 Ti 0.74194(8) 0.49916(6) 0.96516(5)
O1 O 0.6842(4) 0.5509(2) 0.90902(19)
H1 H 0.681(7) 0.585(3) 0.910(2)
O2 O 0.7861(4) 0.4526(2) 0.90424(19)
H2 H 0.786(7) 0.417(3) 0.903(2)
O3 O 0.6239(4) 0.4347(3) 0.8401(2)
C1 C 0.5373(7) 0.4530(5) 0.8179(3)
O4 O 0.6280(5) 0.5505(3) 0.8089(2)
C2 C 0.5366(7) 0.5170(6) 0.8011(3)
C3 C 0.4514(9) 0.5429(8) 0.7762(5)
H3 H 0.4554 0.5860 0.7625
C4 C 0.3660(11) 0.5089(10) 0.7715(6)
H4 H 0.3059 0.5293 0.7583
C5 C 0.3634(10) 0.4381(9) 0.7869(5)
H5 H 0.3038 0.4117 0.7816
C6 C 0.4526(8) 0.4116(6) 0.8096(4)
C7 C 0.4456(9) 0.3422(6) 0.8282(4)
O5 O 0.3651(6) 0.3089(5) 0.8203(3)
N1 N 0.5224(6) 0.3189(5) 0.8529(3)
H6 H 0.563(7) 0.344(4) 0.864(4)
C8 C 0.5185(8) 0.2575(5) 0.8800(4)
H7 H 0.4635 0.2307 0.8635
C9 C 0.6177(8) 0.2145(5) 0.8773(4)
H8 H 0.6780 0.2446 0.8779
H9 H 0.6209 0.1873 0.9077
C10 C 0.6291(15) 0.1706(9) 0.8349(6)
H10 H 0.5643 0.1455 0.8278
C11 C 0.663(3) 0.2142(13) 0.7899(10)
H11 H 0.7154 0.1904 0.7705
H12 H 0.6929 0.2557 0.8020
H13 H 0.6034 0.2237 0.7690
C12 C 0.7187(14) 0.1273(8) 0.8388(6)
H14 H 0.7800 0.1535 0.8470
H15 H 0.7297 0.1047 0.8072
H16 H 0.7067 0.0945 0.8648
C13 C 0.4857(6) 0.2634(4) 0.9316(4)
O6 O 0.4483(5) 0.2171(3) 0.9549(3)
N2 N 0.5015(5) 0.3226(4) 0.9542(3)
H17 H 0.524(7) 0.352(4) 0.938(3)
C14 C 0.4801(6) 0.3322(4) 1.0070(3)
H18 H 0.5317 0.3074 1.0266
H19 H 0.4110 0.3138 1.0147
C15 C 0.4829(6) 0.4031(4) 1.0221(3)
C16 C 0.4079(6) 0.4275(5) 1.0535(4)
H20 H 0.3509 0.4004 1.0622
C17 C 0.4143(7) 0.4915(6) 1.0726(4)
H21 H 0.3630 0.5067 1.0950
C18 C 0.4957(7) 0.5336(5) 1.0590(4)
H22 H 0.5000 0.5773 1.0717
C19 C 0.5689(5) 0.5097(4) 1.0269(3)
O7 O 0.6524(4) 0.5442(2) 1.01139(18)
C20 C 0.5633(5) 0.4462(4) 1.0094(3)
O8 O 0.6418(3) 0.4292(2) 0.97784(17)
O9 O 0.8312(4) 0.5769(2) 0.83968(19)
C21 C 0.9103(6) 0.5616(4) 0.8105(3)
O10 O 0.8167(4) 0.4655(3) 0.8002(2)
C22 C 0.9039(6) 0.4995(5) 0.7877(3)
C23 C 0.9784(7) 0.4761(5) 0.7564(4)
H23 H 0.9715 0.4344 0.7406
C24 C 1.0661(8) 0.5162(6) 0.7485(5)
H24 H 1.1215 0.5000 0.7289
C25 C 1.0724(7) 0.5785(5) 0.7689(4)
H25 H 1.1297 0.6058 0.7609
C26 C 0.9967(6) 0.6023(4) 0.8008(3)
C27 C 1.0120(6) 0.6685(4) 0.8244(3)
O11 O 1.0952(5) 0.6984(3) 0.8173(3)
N3 N 0.9363(5) 0.6927(3) 0.8522(3)
H26 H 0.891(5) 0.667(4) 0.856(3)
C28 C 0.9472(6) 0.7519(4) 0.8804(3)
H27 H 0.9989 0.7801 0.8629
C29 C 0.8487(6) 0.7918(4) 0.8841(3)
H28 H 0.7946 0.7636 0.8992
H29 H 0.8609 0.8293 0.9069
C30 C 0.8082(9) 0.8184(6) 0.8364(4)
H30 H 0.7816 0.7792 0.8179
C31 C 0.8797(12) 0.8481(9) 0.8051(6)
H31 H 0.8734 0.8962 0.8075
H32 H 0.8666 0.8342 0.7710
H33 H 0.9496 0.8348 0.8148
C32 C 0.7155(10) 0.8630(6) 0.8440(5)
H34 H 0.6672 0.8420 0.8670
H35 H 0.6811 0.8704 0.8122
H36 H 0.7384 0.9054 0.8576
C33 C 0.9894(6) 0.7390(4) 0.9318(4)
O12 O 1.0260(5) 0.7850(3) 0.9573(3)
N4 N 0.9805(6) 0.6778(4) 0.9510(3)
H37 H 0.984(7) 0.648(4) 0.932(3)
C34 C 1.0095(7) 0.6631(4) 1.0014(3)
H38 H 0.9595 0.6843 1.0241
H39 H 1.0784 0.6823 1.0081
C35 C 1.0128(6) 0.5899(4) 1.0120(3)
C36 C 1.0978(7) 0.5602(6) 1.0348(4)
H40 H 1.1585 0.5856 1.0402
C37 C 1.0963(8) 0.4970(6) 1.0494(5)
H41 H 1.1540 0.4798 1.0669
C38 C 1.0122(7) 0.4556(5) 1.0397(4)
H42 H 1.0114 0.4106 1.0497
C39 C 0.9299(6) 0.4843(4) 1.0144(3)
O13 O 0.8417(3) 0.4506(2) 1.00304(18)
C40 C 0.9300(5) 0.5493(4) 1.0011(3)
O14 O 0.8433(3) 0.5692(2) 0.97617(18)
K1 K 0.27420(13) 0.17863(8) 0.99736(7)
O15 O 0.1998(7) 0.3013(4) 0.9919(4)
C41 C 0.1374(10) 0.3357(6) 0.9688(5)
H43 H 0.0665 0.3298 0.9767
N5 N 0.1579(6) 0.3784(5) 0.9354(3)
C42 C 0.2581(13) 0.3921(12) 0.9222(9)
H44 H 0.2686 0.4400 0.9218
H45 H 0.2718 0.3741 0.8891
H46 H 0.3054 0.3719 0.9461
C43 C 0.0797(9) 0.4220(7) 0.9108(6)
H47 H 0.0115 0.4012 0.9127
H48 H 0.0988 0.4283 0.8760
H49 H 0.0779 0.4649 0.9275
O16 O 0.1939(7) 0.1734(6) 0.9089(3)
C44 C 0.2245(8) 0.1775(7) 0.8678(5)
H50 H 0.2661 0.2147 0.8600
N6 N 0.2067(8) 0.1364(6) 0.8331(4)
C45 C 0.1522(16) 0.0759(8) 0.8454(8)
H51 H 0.1655 0.0645 0.8801
H52 H 0.1766 0.0401 0.8240
H53 H 0.0779 0.0823 0.8405
C46 C 0.2495(14) 0.1504(10) 0.7824(6)
H54 H 0.2319 0.1957 0.7728
H55 H 0.2196 0.1194 0.7586
H56 H 0.3247 0.1453 0.7829
O17 O 0.3417(5) 0.1763(4) 1.0962(3)
C47 C 0.3636(17) 0.1781(12) 1.1396(9)
H57 H 0.3356 0.1454 1.1610
N7 N 0.4257(8) 0.2245(5) 1.1590(4)
C48 C 0.474(2) 0.2697(16) 1.1334(11)
H58 H 0.5383 0.2513 1.1202
H59 H 0.4900 0.3074 1.1548
H60 H 0.4300 0.2843 1.1060
C49 C 0.449(3) 0.219(2) 1.2102(14)
H61 H 0.3840 0.2159 1.2290
H62 H 0.4877 0.2576 1.2211
H63 H 0.4897 0.1789 1.2159
K2 K 0.70761(14) 0.67335(9) 1.01221(8)
O18 O 0.7828(6) 0.7935(4) 1.0178(3)
C50 C 0.8389(9) 0.8420(6) 1.0280(4)
H64 H 0.8965 0.8500 1.0070
N8 N 0.8250(7) 0.8829(4) 1.0653(4)
C51 C 0.8971(13) 0.9359(8) 1.0743(6)
H65 H 0.9633 0.9255 1.0585
H66 H 0.9074 0.9410 1.1100
H67 H 0.8697 0.9770 1.0605
C52 C 0.7383(13) 0.8787(11) 1.0984(6)
H68 H 0.7172 0.8325 1.1019
H69 H 0.6807 0.9046 1.0851
H70 H 0.7580 0.8964 1.1308
O19 O 0.6290(8) 0.6792(4) 0.9147(3)
C53 C 0.6156(18) 0.6892(8) 0.8667(14)
H71 H 0.6615 0.6697 0.8436
N9 N 0.5387(9) 0.7262(6) 0.8512(4)
C54 C 0.4568(18) 0.7604(10) 0.8709(9)
H72 H 0.3922 0.7375 0.8628
H73 H 0.4552 0.8051 0.8571
H74 H 0.4644 0.7629 0.9070
C55 C 0.555(2) 0.7375(16) 0.7975(9)
H75 H 0.5298 0.7817 0.7887
H76 H 0.5167 0.7042 0.7786
H77 H 0.6286 0.7342 0.7899
O20 O 0.7785(11) 0.6392(8) 1.1015(5)
C56 C 0.821(2) 0.5803(15) 1.1221(11)
H78 H 0.8344 0.5419 1.1030
N10 N 0.843(2) 0.5842(15) 1.1777(10)
C57 C 0.760(3) 0.6349(16) 1.1951(11)
H79 H 0.6997 0.6111 1.2082
H80 H 0.7381 0.6621 1.1669
H81 H 0.7887 0.6632 1.2209
C58 C 0.899(3) 0.530(2) 1.1730(16)
H82 H 0.9700 0.5393 1.1842
H83 H 0.9006 0.5168 1.1382
H84 H 0.8694 0.4949 1.1931
K1C K 0.77420(13) 0.32137(8) 1.00264(7)
K2C K 1.20761(14) 0.82665(9) 0.98779(8)
O8C O 0.1418(3) 0.0708(2) 1.02216(17)
O13C O 0.3417(3) 0.0494(2) 0.99696(18)
O12C O 0.5260(5) 0.7150(3) 1.0427(3)
loop_
_geom_bond_atom_site_label_1
_geom_bond_atom_site_label_2
_geom_bond_site_symmetry_1
_geom_bond_site_symmetry_2
Ti1 O1 1_555 1_555
Ti2 O1 1_555 1_555
O1 H1 1_555 1_555
O2 Ti1 1_555 1_555
H2 O2 1_555 1_555
O3 Ti1 1_555 1_555
C1 O3 1_555 1_555
O4 Ti1 1_555 1_555
C2 C1 1_555 1_555
C3 C2 1_555 1_555
H3 C3 1_555 1_555
C4 C3 1_555 1_555
H4 C4 1_555 1_555
C5 C4 1_555 1_555
H5 C5 1_555 1_555
C6 C1 1_555 1_555
C7 C6 1_555 1_555
O5 C7 1_555 1_555
N1 C7 1_555 1_555
H6 N1 1_555 1_555
C8 N1 1_555 1_555
H7 C8 1_555 1_555
C9 C8 1_555 1_555
H8 C9 1_555 1_555
H9 C9 1_555 1_555
C10 C9 1_555 1_555
H10 C10 1_555 1_555
C11 C10 1_555 1_555
H11 C11 1_555 1_555
H12 C11 1_555 1_555
H13 C11 1_555 1_555
C12 C10 1_555 1_555
H14 C12 1_555 1_555
H15 C12 1_555 1_555
H16 C12 1_555 1_555
C13 C8 1_555 1_555
O6 C13 1_555 1_555
N2 C13 1_555 1_555
H17 N2 1_555 1_555
C14 N2 1_555 1_555
H18 C14 1_555 1_555
H19 C14 1_555 1_555
C15 C14 1_555 1_555
C16 C15 1_555 1_555
H20 C16 1_555 1_555
C17 C16 1_555 1_555
H21 C17 1_555 1_555
C18 C17 1_555 1_555
H22 C18 1_555 1_555
C19 C18 1_555 1_555
O7 Ti2 1_555 1_555
C20 C15 1_555 1_555
O8 Ti2 1_555 1_555
O9 Ti1 1_555 1_555
C21 O9 1_555 1_555
O10 Ti1 1_555 1_555
C22 C21 1_555 1_555
C23 C22 1_555 1_555
H23 C23 1_555 1_555
C24 C23 1_555 1_555
H24 C24 1_555 1_555
C25 C24 1_555 1_555
H25 C25 1_555 1_555
C26 C21 1_555 1_555
C27 C26 1_555 1_555
O11 C27 1_555 1_555
N3 C27 1_555 1_555
H26 N3 1_555 1_555
C28 N3 1_555 1_555
H27 C28 1_555 1_555
C29 C28 1_555 1_555
H28 C29 1_555 1_555
H29 C29 1_555 1_555
C30 C29 1_555 1_555
H30 C30 1_555 1_555
C31 C30 1_555 1_555
H31 C31 1_555 1_555
H32 C31 1_555 1_555
H33 C31 1_555 1_555
C32 C30 1_555 1_555
H34 C32 1_555 1_555
H35 C32 1_555 1_555
H36 C32 1_555 1_555
C33 C28 1_555 1_555
O12 C33 1_555 1_555
N4 C33 1_555 1_555
H37 N4 1_555 1_555
C34 N4 1_555 1_555
H38 C34 1_555 1_555
H39 C34 1_555 1_555
C35 C34 1_555 1_555
C36 C35 1_555 1_555
H40 C36 1_555 1_555
C37 C36 1_555 1_555
H41 C37 1_555 1_555
C38 C37 1_555 1_555
H42 C38 1_555 1_555
C39 C38 1_555 1_555
O13 Ti2 1_555 1_555
C40 C35 1_555 1_555
O14 Ti2 1_555 1_555
K1 O6 1_555 1_555
O15 K1 1_555 1_555
C41 O15 1_555 1_555
H43 C41 1_555 1_555
N5 C41 1_555 1_555
C42 N5 1_555 1_555
H44 C42 1_555 1_555
H45 C42 1_555 1_555
H46 C42 1_555 1_555
C43 N5 1_555 1_555
H47 C43 1_555 1_555
H48 C43 1_555 1_555
H49 C43 1_555 1_555
O16 K1 1_555 1_555
C44 O16 1_555 1_555
H50 C44 1_555 1_555
N6 C44 1_555 1_555
C45 N6 1_555 1_555
H51 C45 1_555 1_555
H52 C45 1_555 1_555
H53 C45 1_555 1_555
C46 N6 1_555 1_555
H54 C46 1_555 1_555
H55 C46 1_555 1_555
H56 C46 1_555 1_555
O17 K1 1_555 1_555
C47 O17 1_555 1_555
H57 C47 1_555 1_555
N7 C47 1_555 1_555
C48 N7 1_555 1_555
H58 C48 1_555 1_555
H59 C48 1_555 1_555
H60 C48 1_555 1_555
C49 N7 1_555 1_555
H61 C49 1_555 1_555
H62 C49 1_555 1_555
H63 C49 1_555 1_555
K2 O7 1_555 1_555
O18 K2 1_555 1_555
C50 O18 1_555 1_555
H64 C50 1_555 1_555
N8 C50 1_555 1_555
C51 N8 1_555 1_555
H65 C51 1_555 1_555
H66 C51 1_555 1_555
H67 C51 1_555 1_555
C52 N8 1_555 1_555
H68 C52 1_555 1_555
H69 C52 1_555 1_555
H70 C52 1_555 1_555
O19 K2 1_555 1_555
C53 O19 1_555 1_555
H71 C53 1_555 1_555
N9 C53 1_555 1_555
C54 N9 1_555 1_555
H72 C54 1_555 1_555
H73 C54 1_555 1_555
H74 C54 1_555 1_555
C55 N9 1_555 1_555
H75 C55 1_555 1_555
H76 C55 1_555 1_555
H77 C55 1_555 1_555
O20 K2 1_555 1_555
C56 O20 1_555 1_555
H78 C56 1_555 1_555
N10 C56 1_555 1_555
C57 N10 1_555 1_555
H79 C57 1_555 1_555
H80 C57 1_555 1_555
H81 C57 1_555 1_555
C58 N10 1_555 1_555
H82 C58 1_555 1_555
H83 C58 1_555 1_555
H84 C58 1_555 1_555
K1C O8 1_555 1_555
K2C O12 1_555 1_555
O8C K1 1_555 1_555
O13C K1 1_555 1_555
O12C K2 1_555 1_555
Ti2 O2 1_555 1_555
O4 C2 1_555 1_555
C5 C6 1_555 1_555
C19 O7 1_555 1_555
C19 C20 1_555 1_555
C20 O8 1_555 1_555
O10 C22 1_555 1_555
C25 C26 1_555 1_555
C39 O13 1_555 1_555
C39 C40 1_555 1_555
O13 K1C 1_555 1_555
C40 O14 1_555 1_555
O14 K2 1_555 1_555

#END
