
#######################################################################
#
#                 Cambridge Crystallographic Data Centre
#                                CCDC 
#
#######################################################################
#
# If this CIF has been generated from an entry in the Cambridge 
# Structural Database, then it will include bibliographic, chemical, 
# crystal, experimental, refinement or atomic coordinate data resulting 
# from the CCDC's data processing and validation procedures.
#
#######################################################################

data_MEQZOY
_symmetry_cell_setting           triclinic
_symmetry_space_group_name_H-M   'P -1'
_symmetry_Int_Tables_number      2
_space_group_name_Hall           '-P 1'
loop_
_symmetry_equiv_pos_site_id
_symmetry_equiv_pos_as_xyz
1 x,y,z
2 -x,-y,-z
_cell_length_a                   7.3523(8)
_cell_length_b                   14.6970(15)
_cell_length_c                   14.8462(15)
_cell_angle_alpha                78.423(4)
_cell_angle_beta                 77.953(4)
_cell_angle_gamma                76.328(4)
_cell_volume                     1504.99
loop_
_atom_site_label
_atom_site_type_symbol
_atom_site_fract_x
_atom_site_fract_y
_atom_site_fract_z
Cu1 Cu 0.5000 1.0000 1.0000
Cu2 Cu 0.67272(11) 0.83680(6) 0.69966(5)
N1 N 0.6534(7) 0.9713(4) 0.6402(3)
N2 N 0.6281(7) 1.0302(4) 0.7047(3)
N3 N 0.6119(7) 0.8965(3) 0.8121(3)
N4 N 0.6098(7) 0.7459(4) 0.8853(3)
N5 N 0.6641(7) 0.7232(4) 0.7965(3)
N6 N 0.5658(10) 1.0411(5) 0.8659(4)
H1 H 0.548(8) 1.086(4) 0.852(4)
N7 N 0.5425(10) 0.8698(5) 0.9750(5)
H2 H 0.546(9) 0.837(4) 1.005(4)
N8 N 0.7453(7) 0.7745(4) 0.5883(3)
N9 N 0.6413(7) 0.7215(4) 0.5637(3)
H3 H 0.5298 0.7118 0.5945
C1 C 0.6794(8) 1.0265(5) 0.5586(4)
H4 H 0.6998 1.0051 0.5004
C2 C 0.6735(9) 1.1191(5) 0.5675(4)
H5 H 0.6902 1.1710 0.5189
C3 C 0.6384(9) 1.1198(5) 0.6617(4)
H6 H 0.6239 1.1732 0.6914
C4 C 0.5992(8) 0.9904(5) 0.7997(4)
C5 C 0.5864(8) 0.8424(4) 0.8947(4)
C6 C 0.5853(8) 0.6674(4) 0.9477(4)
H7 H 0.5481 0.6647 1.0133
C7 C 0.6229(8) 0.5930(5) 0.9011(4)
H8 H 0.6181 0.5287 0.9264
C8 C 0.6696(8) 0.6313(4) 0.8084(4)
H9 H 0.7021 0.5954 0.7588
C9 C 0.9033(9) 0.7682(5) 0.5259(4)
H10 H 1.0055 0.7975 0.5259
C10 C 0.9008(10) 0.7138(5) 0.4610(4)
H11 H 0.9969 0.6989 0.4094
C11 C 0.7305(9) 0.6860(5) 0.4866(4)
H12 H 0.6840 0.6482 0.4553
O1 O 0.3249(5) 0.8576(3) 0.7052(3)
O2 O 0.0062(5) 0.8558(3) 0.6871(3)
O3 O 0.2676(6) 0.7296(3) 0.6425(3)
S1 S 0.1879(2) 0.79981(13) 0.70540(11)
C12 C 0.1483(8) 0.7343(5) 0.8198(4)
C13 C 0.0952(10) 0.7832(5) 0.8935(5)
H13 H 0.0800 0.8502 0.8844
C14 C 0.0643(11) 0.7306(6) 0.9826(5)
H14 H 0.0274 0.7626 1.0351
C15 C 0.0856(9) 0.6346(6) 0.9963(5)
H15 H 0.0647 0.6008 1.0579
C16 C 0.1359(9) 0.5866(5) 0.9233(4)
H16 H 0.1498 0.5196 0.9327
C17 C 0.1667(9) 0.6376(5) 0.8349(4)
H17 H 0.2016 0.6048 0.7829
Cu2A Cu 0.32728(11) 1.16320(6) 1.30034(5)
Cu2_2 Cu -0.32728(11) 0.83680(6) 0.69966(5)
Cu2_3 Cu 1.67272(11) 0.83680(6) 0.69966(5)
N1A N 0.3466(7) 1.0287(4) 1.3598(3)
N2A N 0.3719(7) 0.9698(4) 1.2953(3)
N3A N 0.3881(7) 1.1035(3) 1.1879(3)
N4A N 0.3902(7) 1.2541(4) 1.1147(3)
N5A N 0.3359(7) 1.2768(4) 1.2035(3)
N6A N 0.4342(10) 0.9589(5) 1.1341(4)
H1A H 0.452(8) 0.914(4) 1.148(4)
N7A N 0.4575(10) 1.1302(5) 1.0250(5)
H2A H 0.454(9) 1.163(4) 0.995(4)
N8A N 0.2547(7) 1.2255(4) 1.4117(3)
N9A N 0.3587(7) 1.2785(4) 1.4363(3)
H3A H 0.4702 1.2882 1.4055
C1A C 0.3206(8) 0.9735(5) 1.4414(4)
H4A H 0.3002 0.9949 1.4996
C2A C 0.3265(9) 0.8809(5) 1.4325(4)
H5A H 0.3098 0.8290 1.4811
C3A C 0.3616(9) 0.8802(5) 1.3383(4)
H6A H 0.3761 0.8268 1.3086
C4A C 0.4008(8) 1.0096(5) 1.2003(4)
C5A C 0.4136(8) 1.1576(4) 1.1053(4)
C6A C 0.4147(8) 1.3326(4) 1.0523(4)
H7A H 0.4519 1.3353 0.9867
C7A C 0.3771(8) 1.4070(5) 1.0989(4)
H8A H 0.3819 1.4713 1.0736
C8A C 0.3304(8) 1.3687(4) 1.1916(4)
H9A H 0.2979 1.4046 1.2412
C9A C 0.0967(9) 1.2318(5) 1.4741(4)
H10A H -0.0055 1.2025 1.4741
C10A C 0.0992(10) 1.2862(5) 1.5390(4)
H11A H 0.0031 1.3011 1.5906
C11A C 0.2695(9) 1.3140(5) 1.5134(4)
H12A H 0.3160 1.3518 1.5447
O1_2 O 1.3249(5) 0.8576(3) 0.7052(3)
O1A O 0.6751(5) 1.1424(3) 1.2948(3)
O2_2 O 1.0062(5) 0.8558(3) 0.6871(3)
O2A O -0.0062(5) 1.1442(3) 1.3129(3)
O3_2 O 1.2676(6) 0.7296(3) 0.6425(3)
S1_2 S 1.1879(2) 0.79981(13) 0.70540(11)
C12_2 C 1.1483(8) 0.7343(5) 0.8198(4)
C13_2 C 1.0952(10) 0.7832(5) 0.8935(5)
H13_2 H 1.0800 0.8502 0.8844
C14_2 C 1.0643(11) 0.7306(6) 0.9826(5)
H14_2 H 1.0274 0.7626 1.0351
C15_2 C 1.0856(9) 0.6346(6) 0.9963(5)
H15_2 H 1.0647 0.6008 1.0579
C16_2 C 1.1359(9) 0.5866(5) 0.9233(4)
H16_2 H 1.1498 0.5196 0.9327
C17_2 C 1.1667(9) 0.6376(5) 0.8349(4)
H17_2 H 1.2016 0.6048 0.7829
O4 O 0.4928(6) 0.7474(3) 0.1583(3)
O5 O 0.3826(6) 0.6030(3) 0.1625(3)
O6 O 0.2621(6) 0.6962(3) 0.2888(3)
S2 S 0.4193(3) 0.66630(12) 0.21680(11)
C18 C 0.6051(9) 0.5990(4) 0.2773(4)
C19 C 0.5674(10) 0.5296(5) 0.3508(4)
H18 H 0.4419 0.5189 0.3714
C20 C 0.7151(12) 0.4751(5) 0.3950(5)
H19 H 0.6895 0.4268 0.4461
C21 C 0.8967(12) 0.4896(5) 0.3664(5)
H20 H 0.9959 0.4510 0.3973
C22 C 0.9359(11) 0.5595(5) 0.2935(5)
H21 H 1.0617 0.5701 0.2736
C23 C 0.7878(10) 0.6150(5) 0.2487(5)
H22 H 0.8129 0.6640 0.1983
O7 O 0.1855(13) 1.0247(7) 0.7792(6)
O9 O 0.1757(15) 1.0312(8) 0.9649(8)
O9A O 0.8243(15) 0.9688(8) 1.0351(8)
O8? O 0.1091(15) 1.0969(8) 0.7265(7)
O10? O 0.0000 1.0000 1.0000
loop_
_geom_bond_atom_site_label_1
_geom_bond_atom_site_label_2
_geom_bond_site_symmetry_1
_geom_bond_site_symmetry_2
Cu1 N6 1_555 1_555
Cu2 N1 1_555 1_555
N1 N2 1_555 1_555
N2 C3 1_555 1_555
N3 Cu2 1_555 1_555
N4 N5 1_555 1_555
N5 Cu2 1_555 1_555
N6 H1 1_555 1_555
N7 Cu1 1_555 1_555
H2 N7 1_555 1_555
N8 Cu2 1_555 1_555
N9 N8 1_555 1_555
H3 N9 1_555 1_555
C1 N1 1_555 1_555
H4 C1 1_555 1_555
C2 C1 1_555 1_555
H5 C2 1_555 1_555
C3 C2 1_555 1_555
H6 C3 1_555 1_555
C4 N2 1_555 1_555
C5 N3 1_555 1_555
C6 N4 1_555 1_555
H7 C6 1_555 1_555
C7 C6 1_555 1_555
H8 C7 1_555 1_555
C8 N5 1_555 1_555
H9 C8 1_555 1_555
C9 N8 1_555 1_555
H10 C9 1_555 1_555
C10 C9 1_555 1_555
H11 C10 1_555 1_555
C11 N9 1_555 1_555
H12 C11 1_555 1_555
O1 Cu2 1_555 1_555
O2 S1 1_555 1_555
O3 S1 1_555 1_555
S1 O1 1_555 1_555
C12 S1 1_555 1_555
C13 C12 1_555 1_555
H13 C13 1_555 1_555
C14 C13 1_555 1_555
H14 C14 1_555 1_555
C15 C14 1_555 1_555
H15 C15 1_555 1_555
C16 C15 1_555 1_555
H16 C16 1_555 1_555
C17 C12 1_555 1_555
H17 C17 1_555 1_555
O4 S2 1_555 1_555
O5 S2 1_555 1_555
O6 S2 1_555 1_555
S2 C18 1_555 1_555
C18 C19 1_555 1_555
C19 H18 1_555 1_555
C20 C19 1_555 1_555
H19 C20 1_555 1_555
C21 C20 1_555 1_555
H20 C21 1_555 1_555
C22 C21 1_555 1_555
H21 C22 1_555 1_555
C23 C18 1_555 1_555
H22 C23 1_555 1_555
Cu2A N1A 1_555 1_555
Cu2_2 O2 1_555 1_555
Cu2_3 O1_2 1_555 1_555
N1A N2A 1_555 1_555
N2A C3A 1_555 1_555
N3A Cu2A 1_555 1_555
N4A N5A 1_555 1_555
N5A Cu2A 1_555 1_555
N6A Cu1 1_555 1_555
H1A N6A 1_555 1_555
N7A Cu1 1_555 1_555
H2A N7A 1_555 1_555
N8A Cu2A 1_555 1_555
N9A N8A 1_555 1_555
H3A N9A 1_555 1_555
C1A N1A 1_555 1_555
H4A C1A 1_555 1_555
C2A C1A 1_555 1_555
H5A C2A 1_555 1_555
C3A C2A 1_555 1_555
H6A C3A 1_555 1_555
C4A N2A 1_555 1_555
C5A N3A 1_555 1_555
C6A N4A 1_555 1_555
H7A C6A 1_555 1_555
C7A C6A 1_555 1_555
H8A C7A 1_555 1_555
C8A N5A 1_555 1_555
H9A C8A 1_555 1_555
C9A N8A 1_555 1_555
H10A C9A 1_555 1_555
C10A C9A 1_555 1_555
H11A C10A 1_555 1_555
C11A N9A 1_555 1_555
H12A C11A 1_555 1_555
O1_2 S1_2 1_555 1_555
O1A Cu2A 1_555 1_555
O2_2 Cu2 1_555 1_555
O2A Cu2A 1_555 1_555
O3_2 S1_2 1_555 1_555
S1_2 O2_2 1_555 1_555
C12_2 S1_2 1_555 1_555
C13_2 C12_2 1_555 1_555
H13_2 C13_2 1_555 1_555
C14_2 C13_2 1_555 1_555
H14_2 C14_2 1_555 1_555
C15_2 C14_2 1_555 1_555
H15_2 C15_2 1_555 1_555
C16_2 C15_2 1_555 1_555
H16_2 C16_2 1_555 1_555
C17_2 C12_2 1_555 1_555
H17_2 C17_2 1_555 1_555
N3 C4 1_555 1_555
N4 C5 1_555 1_555
N6 C4 1_555 1_555
N7 C5 1_555 1_555
C7 C8 1_555 1_555
C10 C11 1_555 1_555
C16 C17 1_555 1_555
C22 C23 1_555 1_555
N3A C4A 1_555 1_555
N4A C5A 1_555 1_555
N6A C4A 1_555 1_555
N7A C5A 1_555 1_555
C7A C8A 1_555 1_555
C10A C11A 1_555 1_555
C16_2 C17_2 1_555 1_555

#END
