
#######################################################################
#
#                 Cambridge Crystallographic Data Centre
#                                CCDC 
#
#######################################################################
#
# If this CIF has been generated from an entry in the Cambridge 
# Structural Database, then it will include bibliographic, chemical, 
# crystal, experimental, refinement or atomic coordinate data resulting 
# from the CCDC's data processing and validation procedures.
#
#######################################################################

data_MERXIR
_symmetry_cell_setting           triclinic
_symmetry_space_group_name_H-M   'P -1'
_symmetry_Int_Tables_number      2
_space_group_name_Hall           '-P 1'
loop_
_symmetry_equiv_pos_site_id
_symmetry_equiv_pos_as_xyz
1 x,y,z
2 -x,-y,-z
_cell_length_a                   8.264(6)
_cell_length_b                   11.2990(9)
_cell_length_c                   11.3100(8)
_cell_angle_alpha                96.849(6)
_cell_angle_beta                 102.612(6)
_cell_angle_gamma                111.286(7)
_cell_volume                     937.117
loop_
_atom_site_label
_atom_site_type_symbol
_atom_site_fract_x
_atom_site_fract_y
_atom_site_fract_z
P1 P 0.42961(7) 0.31269(5) 0.26777(5)
K1 K 0.55732(6) 0.36255(5) 0.60413(4)
S1 S 0.34180(8) 0.15995(5) 0.34146(5)
S2 S 0.65845(7) 0.46024(5) 0.36516(5)
C1 C 0.4519(3) 0.2640(2) 0.11531(18)
C2 C 0.5254(3) 0.3614(2) 0.0526(2)
H1 H 0.5741 0.4503 0.0941
C3 C 0.5277(3) 0.3298(2) -0.06776(19)
H2 H 0.5773 0.3967 -0.1092
C4 C 0.4574(3) 0.1999(2) -0.12924(19)
C5 C 0.3922(3) 0.1020(2) -0.0671(2)
H3 H 0.3501 0.0132 -0.1073
C6 C 0.3892(3) 0.1353(2) 0.0548(2)
H4 H 0.3432 0.0683 0.0971
C7 C 0.3790(4) 0.0478(2) -0.3202(2)
H5 H 0.3830 0.0468 -0.4062
H6 H 0.2529 0.0059 -0.3188
H7 H 0.4480 0.0004 -0.2829
C8 C 0.0875(3) 0.3194(2) 0.1873(2)
C9 C 0.0443(3) 0.4239(3) 0.1326(3)
H8 H 0.0805 0.5006 0.1988
H9 H -0.0861 0.3909 0.0924
H10 H 0.1105 0.4479 0.0711
C10 C 0.0029(3) 0.2903(3) 0.2926(2)
H11 H 0.0498 0.3697 0.3575
H12 H 0.0332 0.2230 0.3272
H13 H -0.1289 0.2595 0.2609
C11 C 0.0252(3) 0.1973(2) 0.0869(2)
H14 H 0.0525 0.1301 0.1239
H15 H 0.0885 0.2176 0.0233
H16 H -0.1056 0.1655 0.0489
C12 C 0.8890(3) 0.2528(3) 0.5628(2)
H17 H 0.9688 0.3415 0.5595
H18 H 0.8016 0.2093 0.4798
C13 C 0.9996(4) 0.1755(3) 0.6017(3)
H19 H 0.9286 0.0810 0.5682
H20 H 1.1112 0.2033 0.5745
C14 C 1.0426(3) 0.2094(3) 0.7415(3)
H21 H 1.1474 0.2939 0.7774
H22 H 1.0682 0.1410 0.7791
C15 C 0.8702(3) 0.2168(3) 0.7602(2)
H23 H 0.7846 0.1305 0.7647
H24 H 0.8971 0.2798 0.8379
O1 O 0.28732(18) 0.38101(13) 0.23995(13)
O2 O 0.4566(2) 0.17980(15) -0.25084(14)
O3 O 0.7955(2) 0.25837(19) 0.65533(15)
K1A K 0.44268(6) 0.63745(5) 0.39587(4)
K1_2 K 0.55732(6) 0.36255(5) -0.39587(4)
S2A S 0.34155(7) 0.53976(5) 0.63484(5)
O1A O 0.71268(18) 0.61899(13) 0.76005(13)
O2_2 O 0.4566(2) 0.17980(15) 0.74916(14)
loop_
_geom_bond_atom_site_label_1
_geom_bond_atom_site_label_2
_geom_bond_site_symmetry_1
_geom_bond_site_symmetry_2
P1 S1 1_555 1_555
K1 S1 1_555 1_555
S2 P1 1_555 1_555
C1 P1 1_555 1_555
C2 C1 1_555 1_555
H1 C2 1_555 1_555
C3 C2 1_555 1_555
H2 C3 1_555 1_555
C4 C3 1_555 1_555
C5 C4 1_555 1_555
H3 C5 1_555 1_555
C6 C1 1_555 1_555
H4 C6 1_555 1_555
C7 H5 1_555 1_555
H6 C7 1_555 1_555
H7 C7 1_555 1_555
C8 C9 1_555 1_555
C9 H8 1_555 1_555
H9 C9 1_555 1_555
H10 C9 1_555 1_555
C10 C8 1_555 1_555
H11 C10 1_555 1_555
H12 C10 1_555 1_555
H13 C10 1_555 1_555
C11 C8 1_555 1_555
H14 C11 1_555 1_555
H15 C11 1_555 1_555
H16 C11 1_555 1_555
C12 H17 1_555 1_555
H18 C12 1_555 1_555
C13 C12 1_555 1_555
H19 C13 1_555 1_555
H20 C13 1_555 1_555
C14 C13 1_555 1_555
H21 C14 1_555 1_555
H22 C14 1_555 1_555
C15 C14 1_555 1_555
H23 C15 1_555 1_555
H24 C15 1_555 1_555
O1 P1 1_555 1_555
O2 C4 1_555 1_555
O3 K1 1_555 1_555
K1A S2 1_555 1_555
K1_2 O2 1_555 1_555
S2A K1 1_555 1_555
O1A K1 1_555 1_555
O2_2 K1 1_555 1_555
K1 S2 1_555 1_555
C5 C6 1_555 1_555
C7 O2 1_555 1_555
C8 O1 1_555 1_555
C12 O3 1_555 1_555
C15 O3 1_555 1_555
O1 K1A 1_555 1_555
K1A S2A 1_555 1_555

#END
