
#######################################################################
#
#                 Cambridge Crystallographic Data Centre
#                                CCDC 
#
#######################################################################
#
# If this CIF has been generated from an entry in the Cambridge 
# Structural Database, then it will include bibliographic, chemical, 
# crystal, experimental, refinement or atomic coordinate data resulting 
# from the CCDC's data processing and validation procedures.
#
#######################################################################

data_MERXOX
_symmetry_cell_setting           monoclinic
_symmetry_space_group_name_H-M   'P 21/n'
_symmetry_Int_Tables_number      14
_space_group_name_Hall           '-P 2yn'
loop_
_symmetry_equiv_pos_site_id
_symmetry_equiv_pos_as_xyz
1 x,y,z
2 1/2-x,1/2+y,1/2-z
3 -x,-y,-z
4 1/2+x,1/2-y,1/2+z
_cell_length_a                   10.6833(9)
_cell_length_b                   10.9392(8)
_cell_length_c                   17.6407(14)
_cell_angle_alpha                90
_cell_angle_beta                 106.174(7)
_cell_angle_gamma                90
_cell_volume                     1980.01
loop_
_atom_site_label
_atom_site_type_symbol
_atom_site_fract_x
_atom_site_fract_y
_atom_site_fract_z
P1 P -0.42057(5) 0.31741(5) 0.40624(3)
S1 S -0.37255(5) 0.33368(5) 0.52257(3)
K1 K -0.32678(5) 0.62690(4) 0.48219(3)
O1 O -0.57293(15) 0.35320(14) 0.37836(9)
O2 O -0.40167(17) -0.21516(14) 0.34402(9)
C1 C -0.4161(2) 0.15741(19) 0.38168(12)
C2 C -0.4907(2) -0.0473(2) 0.39287(12)
H1 H -0.5465 -0.1021 0.4098
C3 C -0.3248(2) -0.0115(2) 0.32631(13)
H2 H -0.2675 -0.0408 0.2978
O3 O -0.0733(2) 0.65443(19) 0.46062(13)
O4 O -0.1672(2) 0.83771(19) 0.54914(13)
C4 C -0.3317(2) 0.1119(2) 0.34143(13)
H3 H -0.2772 0.1671 0.3237
C5 C -0.0179(3) 0.5940(3) 0.4060(2)
H4 H 0.0711 0.5680 0.4331
H5 H -0.0707 0.5223 0.3843
H6 H -0.0160 0.6502 0.3631
C6 C -0.0366(3) 0.7942(3) 0.5658(2)
H7 H 0.0232 0.8594 0.5934
H8 H -0.0262 0.7235 0.6021
C7 C -0.4959(2) 0.0751(2) 0.40687(13)
H9 H -0.5548 0.1048 0.4342
C8 C -0.6395(3) 0.5076(2) 0.27585(15)
H10 H -0.6504 0.5620 0.3177
H11 H -0.7045 0.5279 0.2262
H12 H -0.5519 0.5180 0.2695
C9 C -0.7920(3) 0.3544(4) 0.30594(18)
H13 H -0.8122 0.4166 0.3407
H14 H -0.7957 0.2731 0.3286
H15 H -0.8556 0.3591 0.2539
C10 C 0.0019(3) 0.7568(3) 0.4950(2)
H16 H 0.0957 0.7356 0.5098
H17 H -0.0129 0.8249 0.4566
C11 C -0.4028(2) -0.09172(19) 0.35344(12)
C12 C -0.3318(3) -0.2599(2) 0.29155(15)
H18 H -0.3488 -0.3475 0.2826
H19 H -0.2383 -0.2466 0.3149
H20 H -0.3605 -0.2162 0.2412
C13 C -0.1776(3) 0.9649(3) 0.53943(18)
H21 H -0.1299 1.0051 0.5886
H22 H -0.1407 0.9897 0.4968
H23 H -0.2696 0.9887 0.5261
C14 C -0.6302(3) 0.2881(2) 0.23798(14)
H24 H -0.6415 0.2040 0.2540
H25 H -0.5404 0.2994 0.2354
H26 H -0.6907 0.3038 0.1859
C15 C -0.6578(2) 0.3763(2) 0.29767(13)
S2 S -0.31354(6) 0.41126(5) 0.35205(3)
S1B S -0.62745(5) 0.66632(5) 0.47743(3)
K1B K -0.67322(5) 0.37310(4) 0.51781(3)
K1_2 K -0.32678(5) -0.37310(4) 0.48219(3)
O1B O -0.42707(15) 0.64680(14) 0.62164(9)
O2_2 O -0.40167(17) 0.78484(14) 0.34402(9)
loop_
_geom_bond_atom_site_label_1
_geom_bond_atom_site_label_2
_geom_bond_site_symmetry_1
_geom_bond_site_symmetry_2
P1 S1 1_555 1_555
S1 K1 1_555 1_555
K1 O3 1_555 1_555
O1 P1 1_555 1_555
O2 C11 1_555 1_555
C1 P1 1_555 1_555
C2 H1 1_555 1_555
C3 H2 1_555 1_555
O3 C5 1_555 1_555
O4 K1 1_555 1_555
C4 C1 1_555 1_555
H3 C4 1_555 1_555
C5 H4 1_555 1_555
H5 C5 1_555 1_555
H6 C5 1_555 1_555
C6 O4 1_555 1_555
H7 C6 1_555 1_555
H8 C6 1_555 1_555
C7 C1 1_555 1_555
H9 C7 1_555 1_555
C8 H10 1_555 1_555
H11 C8 1_555 1_555
H12 C8 1_555 1_555
C9 H13 1_555 1_555
H14 C9 1_555 1_555
H15 C9 1_555 1_555
C10 O3 1_555 1_555
H16 C10 1_555 1_555
H17 C10 1_555 1_555
C11 C2 1_555 1_555
C12 O2 1_555 1_555
H18 C12 1_555 1_555
H19 C12 1_555 1_555
H20 C12 1_555 1_555
C13 O4 1_555 1_555
H21 C13 1_555 1_555
H22 C13 1_555 1_555
H23 C13 1_555 1_555
C14 H24 1_555 1_555
H25 C14 1_555 1_555
H26 C14 1_555 1_555
C15 O1 1_555 1_555
S2 P1 1_555 1_555
S1B K1 1_555 1_555
K1B S1 1_555 1_555
K1_2 O2 1_555 1_555
O1B K1 1_555 1_555
O2_2 K1 1_555 1_555
K1 S2 1_555 1_555
O1 K1B 1_555 1_555
C2 C7 1_555 1_555
C3 C4 1_555 1_555
C3 C11 1_555 1_555
C6 C10 1_555 1_555
C8 C15 1_555 1_555
C9 C15 1_555 1_555
C14 C15 1_555 1_555
S1B K1B 1_555 1_555

#END
