
#######################################################################
#
#                 Cambridge Crystallographic Data Centre
#                                CCDC 
#
#######################################################################
#
# If this CIF has been generated from an entry in the Cambridge 
# Structural Database, then it will include bibliographic, chemical, 
# crystal, experimental, refinement or atomic coordinate data resulting 
# from the CCDC's data processing and validation procedures.
#
#######################################################################

data_MERYAK
_symmetry_cell_setting           tetragonal
_symmetry_space_group_name_H-M   'I 41/a'
_symmetry_Int_Tables_number      88
_space_group_name_Hall           '-I 4ad'
loop_
_symmetry_equiv_pos_site_id
_symmetry_equiv_pos_as_xyz
1 x,y,z
2 3/4-y,1/4+x,1/4+z
3 1/2+x,1/2+y,1/2+z
4 1/4-y,3/4+x,3/4+z
5 1/4+y,1/4-x,1/4+z
6 1/2-x,-y,1/2+z
7 3/4+y,3/4-x,3/4+z
8 -x,1/2-y,z
9 -x,-y,-z
10 1/4+y,3/4-x,3/4-z
11 1/2-x,1/2-y,1/2-z
12 3/4+y,1/4-x,1/4-z
13 3/4-y,3/4+x,3/4-z
14 1/2+x,y,1/2-z
15 1/4-y,1/4+x,1/4-z
16 x,1/2+y,-z
_cell_length_a                   26.4622(16)
_cell_length_b                   26.4622(16)
_cell_length_c                   11.2432(6)
_cell_angle_alpha                90
_cell_angle_beta                 90
_cell_angle_gamma                90
_cell_volume                     7873.03
loop_
_atom_site_label
_atom_site_type_symbol
_atom_site_fract_x
_atom_site_fract_y
_atom_site_fract_z
P1 P 0.96224(6) 0.12318(5) 0.32362(12)
K1 K 0.93896(5) 0.16344(5) 0.01964(11)
S1 S 0.95962(6) 0.19686(5) 0.29242(13)
S2 S 1.01256(6) 0.08531(6) 0.22764(13)
S3 S 0.89620(6) 0.08207(6) 0.27753(14)
O1 O 0.97886(19) 0.09223(15) 0.8481(3)
O2 O 0.8640(2) 0.1089(2) -0.0925(5)
C1 C 0.9714(2) 0.1127(2) 0.4816(4)
C2 C 0.9782(2) 0.1532(2) 0.5610(5)
H1 H 0.9802 0.1867 0.5311
C3 C 0.9819(2) 0.1447(2) 0.6819(5)
H2 H 0.9872 0.1724 0.7344
C4 C 0.9778(2) 0.0961(2) 0.7268(5)
C5 C 0.9741(2) 0.0554(2) 0.6498(5)
H3 H 0.9741 0.0218 0.6798
C6 C 0.9705(2) 0.0641(2) 0.5293(5)
H4 H 0.9673 0.0361 0.4771
C7 C 0.9696(4) 0.0434(2) 0.8975(5)
H5 H 0.9710 0.0454 0.9845
H6 H 0.9954 0.0197 0.8691
H7 H 0.9361 0.0316 0.8729
C8 C 0.8384(3) 0.1114(3) 0.3451(6)
C9 C 0.8000(3) 0.0670(3) 0.3436(9)
H8 H 0.7678 0.0782 0.3779
H9 H 0.8134 0.0388 0.3905
H10 H 0.7945 0.0559 0.2614
C10 C 0.8478(3) 0.1291(3) 0.4688(7)
H11 H 0.8168 0.1441 0.5010
H12 H 0.8748 0.1544 0.4684
H13 H 0.8579 0.1003 0.5183
C11 C 0.8202(3) 0.1533(3) 0.2680(9)
H14 H 0.7901 0.1686 0.3036
H15 H 0.8118 0.1399 0.1891
H16 H 0.8469 0.1788 0.2604
C12 C 0.8261(5) 0.0759(6) -0.0536(12)
H17 H 0.8232 0.0771 0.0341
H18 H 0.8342 0.0408 -0.0776
C13 C 0.7791(4) 0.0919(6) -0.1078(13)
H19 H 0.7588 0.1123 -0.0516
H20 H 0.7589 0.0624 -0.1336
C14 C 0.7957(4) 0.1234(6) -0.2142(11)
H21 H 0.7863 0.1065 -0.2895
H22 H 0.7795 0.1571 -0.2121
C15 C 0.8491(4) 0.1283(4) -0.2059(8)
H23 H 0.8591 0.1642 -0.2132
H24 H 0.8657 0.1090 -0.2703
K1N K 1.08656(5) 0.18896(5) 0.23036(11)
K1K K 0.91344(5) 0.31104(5) 0.23036(11)
K1_2 K 0.93896(5) 0.16344(5) 1.01964(11)
S1N S 1.05314(5) 0.20962(6) -0.04242(13)
S1K S 0.94686(5) 0.29038(6) -0.04242(13)
S2K S 0.83531(6) 0.23744(6) 0.02236(13)
O1_2 O 0.97886(19) 0.09223(15) -0.1519(3)
loop_
_geom_bond_atom_site_label_1
_geom_bond_atom_site_label_2
_geom_bond_site_symmetry_1
_geom_bond_site_symmetry_2
P1 S1 1_555 1_555
K1 S1 1_555 1_555
S1 K1N 1_555 1_555
S2 P1 1_555 1_555
S3 P1 1_555 1_555
O1 C4 1_555 1_555
O2 K1 1_555 1_555
C1 P1 1_555 1_555
C2 C1 1_555 1_555
H1 C2 1_555 1_555
C3 C2 1_555 1_555
H2 C3 1_555 1_555
C4 C3 1_555 1_555
C5 C4 1_555 1_555
H3 C5 1_555 1_555
C6 C1 1_555 1_555
H4 C6 1_555 1_555
C7 O1 1_555 1_555
H5 C7 1_555 1_555
H6 C7 1_555 1_555
H7 C7 1_555 1_555
C8 S3 1_555 1_555
C9 C8 1_555 1_555
H8 C9 1_555 1_555
H9 C9 1_555 1_555
H10 C9 1_555 1_555
C10 C8 1_555 1_555
H11 C10 1_555 1_555
H12 C10 1_555 1_555
H13 C10 1_555 1_555
C11 C8 1_555 1_555
H14 C11 1_555 1_555
H15 C11 1_555 1_555
H16 C11 1_555 1_555
C12 O2 1_555 1_555
H17 C12 1_555 1_555
H18 C12 1_555 1_555
C13 C12 1_555 1_555
H19 C13 1_555 1_555
H20 C13 1_555 1_555
C14 C13 1_555 1_555
H21 C14 1_555 1_555
H22 C14 1_555 1_555
C15 O2 1_555 1_555
H23 C15 1_555 1_555
H24 C15 1_555 1_555
K1N S2 1_555 1_555
K1K S1 1_555 1_555
K1_2 O1 1_555 1_555
S1N K1 1_555 1_555
S1K K1 1_555 1_555
S2K K1 1_555 1_555
O1_2 K1 1_555 1_555
K1 S2 1_555 1_555
C5 C6 1_555 1_555
C14 C15 1_555 1_555
K1N S1N 1_555 1_555
K1K S1K 1_555 1_555
K1K S2K 1_555 1_555

#END
