
#######################################################################
#
#                 Cambridge Crystallographic Data Centre
#                                CCDC 
#
#######################################################################
#
# If this CIF has been generated from an entry in the Cambridge 
# Structural Database, then it will include bibliographic, chemical, 
# crystal, experimental, refinement or atomic coordinate data resulting 
# from the CCDC's data processing and validation procedures.
#
#######################################################################

data_MESBAN
_symmetry_cell_setting           triclinic
_symmetry_space_group_name_H-M   'P -1'
_symmetry_Int_Tables_number      2
_space_group_name_Hall           '-P 1'
loop_
_symmetry_equiv_pos_site_id
_symmetry_equiv_pos_as_xyz
1 x,y,z
2 -x,-y,-z
_cell_length_a                   5.1480(4)
_cell_length_b                   8.0354(7)
_cell_length_c                   12.3827(11)
_cell_angle_alpha                91.341(11)
_cell_angle_beta                 101.400(10)
_cell_angle_gamma                90.857(10)
_cell_volume                     501.882
loop_
_atom_site_label
_atom_site_type_symbol
_atom_site_fract_x
_atom_site_fract_y
_atom_site_fract_z
Ga1 Ga 0.04034(6) 0.55789(3) 0.81078(2)
Ga2 Ga 0.49701(7) 0.88497(3) 0.26073(2)
P1 P 0.50026(15) 0.73148(8) 0.71883(6)
P2 P 0.06260(16) 0.74151(9) 0.37395(6)
P3 P 0.13050(17) 0.74926(9) 1.05157(6)
O1 O 0.3484(4) 0.5880(2) 0.75657(18)
O2 O 0.1246(4) 0.5740(2) 0.32857(18)
O3 O 0.7955(4) 0.7224(2) 0.76479(18)
O4 O 0.1821(5) 0.6826(2) 0.94358(18)
O5 O -0.0237(5) 0.6336(2) 1.1120(2)
O6 O 0.2234(4) 0.8853(2) 0.33597(18)
O7 O -0.2321(4) 0.7816(2) 0.34764(18)
O8 O 0.3967(4) 0.9002(2) 0.75180(18)
O9 O 0.4046(4) 0.7955(2) 1.12373(18)
C1 C 0.4394(6) 0.7233(4) 0.5710(2)
C2 C 0.1442(6) 0.7434(3) 0.5216(2)
C3 C -0.0610(6) 0.9336(3) 1.0318(2)
H1 H 0.532921 0.815599 0.540477
H2 H 0.488354 0.61403 0.541284
H3 H 0.097515 0.851009 0.554085
H4 H 0.054444 0.649117 0.552013
H5 H -0.074560 0.989280 1.103470
H6 H -0.242700 0.910370 0.987380
C3A C 0.0610(6) 1.0664(3) 0.9682(2)
P3A P -0.13050(17) 1.25074(9) 0.94843(6)
O4A O -0.1821(5) 1.3174(2) 1.05642(18)
O5A O 0.0237(5) 1.3664(2) 0.8880(2)
O9A O -0.4046(4) 1.2045(2) 0.87627(18)
H5A H 0.074560 1.010720 0.896530
H6A H 0.242700 1.089630 1.012620
P1A P -0.50026(15) 0.26852(8) 0.28117(6)
P2A P -0.06260(16) 0.25849(9) 0.62605(6)
O1A O -0.3484(4) 0.4120(2) 0.24343(18)
O2A O -0.1246(4) 0.4260(2) 0.67143(18)
O3A O -0.7955(4) 0.2776(2) 0.23521(18)
O6A O -0.2234(4) 0.1147(2) 0.66403(18)
O7A O 0.2321(4) 0.2184(2) 0.65236(18)
O8A O -0.3967(4) 0.0998(2) 0.24820(18)
C1A C -0.4394(6) 0.2767(4) 0.4290(2)
C2A C -0.1442(6) 0.2566(3) 0.4784(2)
H1A H -0.532921 0.184401 0.459523
H2A H -0.488354 0.38597 0.458716
H3A H -0.097515 0.148991 0.445915
H4A H -0.054444 0.350883 0.447987
Ga1A Ga -0.04034(6) 0.44211(3) 0.18922(2)
Ga2A Ga -0.49701(7) 0.11503(3) 0.73927(2)
O3_2 O -0.2045(4) 0.7224(2) 0.76479(18)
O5A_2 O 0.0237(5) 0.3664(2) 0.8880(2)
O7_2 O 0.7679(4) 0.7816(2) 0.34764(18)
O8A_2 O 0.6033(4) 1.0998(2) 0.24820(18)
O9_2 O 0.4046(4) 0.7955(2) 0.12373(18)
Ga1_2 Ga 1.04034(6) 0.55789(3) 0.81078(2)
Ga1A_2 Ga -0.04034(6) 0.44211(3) 1.18922(2)
Ga2_2 Ga -0.50299(7) 0.88497(3) 0.26073(2)
Ga2A_2 Ga 0.50299(7) 1.11503(3) 0.73927(2)
Ga2_3 Ga 0.49701(7) 0.88497(3) 1.26073(2)
Ga1A_3 Ga -0.04034(6) 1.44211(3) 1.18922(2)
Ga1_3 Ga 0.04034(6) 1.55789(3) 0.81078(2)
Ga2A_3 Ga -0.49701(7) 1.11503(3) 0.73927(2)
Ga1A_4 Ga -1.04034(6) 0.44211(3) 0.18922(2)
Ga2A_4 Ga 0.50299(7) 0.11503(3) 0.73927(2)
Ga2_4 Ga -0.50299(7) -0.11503(3) 0.26073(2)
O3A_2 O 0.2045(4) 0.2776(2) 0.23521(18)
O4A_2 O -0.1821(5) 0.3174(2) 0.05642(18)
O5_2 O -0.0237(5) 0.6336(2) 0.1120(2)
O7A_2 O -0.7679(4) 0.2184(2) 0.65236(18)
O8_2 O -0.6033(4) -0.0998(2) 0.75180(18)
O9A_2 O -0.4046(4) 0.2045(2) 0.87627(18)
loop_
_geom_bond_atom_site_label_1
_geom_bond_atom_site_label_2
_geom_bond_site_symmetry_1
_geom_bond_site_symmetry_2
Ga1 O1 1_555 1_555
Ga2 O6 1_555 1_555
P1 O1 1_555 1_555
P2 O2 1_555 1_555
P3 O4 1_555 1_555
O2 Ga1A 1_555 1_555
O3 P1 1_555 1_555
O4 Ga1 1_555 1_555
O5 P3 1_555 1_555
O6 P2 1_555 1_555
O7 P2 1_555 1_555
O8 P1 1_555 1_555
O9 P3 1_555 1_555
C1 P1 1_555 1_555
C2 P2 1_555 1_555
C3 P3 1_555 1_555
H1 C1 1_555 1_555
H2 C1 1_555 1_555
H3 C2 1_555 1_555
H4 C2 1_555 1_555
H5 C3 1_555 1_555
H6 C3 1_555 1_555
C3A C3 1_555 1_555
P3A C3A 1_555 1_555
O4A P3A 1_555 1_555
O5A P3A 1_555 1_555
O9A P3A 1_555 1_555
H5A C3A 1_555 1_555
H6A C3A 1_555 1_555
P1A O1A 1_555 1_555
P2A O2A 1_555 1_555
O1A Ga1A 1_555 1_555
O2A Ga1 1_555 1_555
O3A P1A 1_555 1_555
O6A P2A 1_555 1_555
O7A P2A 1_555 1_555
O8A P1A 1_555 1_555
C1A P1A 1_555 1_555
C2A P2A 1_555 1_555
H1A C1A 1_555 1_555
H2A C1A 1_555 1_555
H3A C2A 1_555 1_555
H4A C2A 1_555 1_555
Ga1A O3A_2 1_555 1_555
Ga2A O6A 1_555 1_555
O3_2 Ga1 1_555 1_555
O5A_2 Ga1 1_555 1_555
O7_2 Ga2 1_555 1_555
O8A_2 Ga2 1_555 1_555
O9_2 Ga2 1_555 1_555
Ga1_2 O3 1_555 1_555
Ga1A_2 O5 1_555 1_555
Ga2_2 O7 1_555 1_555
Ga2A_2 O8 1_555 1_555
Ga2_3 O9 1_555 1_555
Ga1A_3 O4A 1_555 1_555
Ga1_3 O5A 1_555 1_555
Ga2A_3 O9A 1_555 1_555
Ga1A_4 O3A 1_555 1_555
Ga2A_4 O7A 1_555 1_555
Ga2_4 O8A 1_555 1_555
O4A_2 Ga1A 1_555 1_555
O5_2 Ga1A 1_555 1_555
O7A_2 Ga2A 1_555 1_555
O8_2 Ga2A 1_555 1_555
O9A_2 Ga2A 1_555 1_555
C1 C2 1_555 1_555
C1A C2A 1_555 1_555

#END
