
#######################################################################
#
#                 Cambridge Crystallographic Data Centre
#                                CCDC 
#
#######################################################################
#
# If this CIF has been generated from an entry in the Cambridge 
# Structural Database, then it will include bibliographic, chemical, 
# crystal, experimental, refinement or atomic coordinate data resulting 
# from the CCDC's data processing and validation procedures.
#
#######################################################################

data_MESFUM
_symmetry_cell_setting           orthorhombic
_symmetry_space_group_name_H-M   'C m c a'
_symmetry_Int_Tables_number      64
_space_group_name_Hall           '-C 2ac 2'
loop_
_symmetry_equiv_pos_site_id
_symmetry_equiv_pos_as_xyz
1 x,y,z
2 1/2+x,1/2+y,z
3 -x,1/2-y,1/2+z
4 -x,1/2+y,1/2-z
5 x,-y,-z
6 1/2-x,-y,1/2+z
7 1/2-x,y,1/2-z
8 1/2+x,1/2-y,-z
9 -x,-y,-z
10 1/2-x,1/2-y,-z
11 x,1/2+y,1/2-z
12 x,1/2-y,1/2+z
13 -x,y,z
14 1/2+x,y,1/2-z
15 1/2+x,-y,1/2+z
16 1/2-x,1/2+y,z
_cell_length_a                   7.7745(3)
_cell_length_b                   17.4427(4)
_cell_length_c                   12.3174(4)
_cell_angle_alpha                90
_cell_angle_beta                 90
_cell_angle_gamma                90
_cell_volume                     1670.34
loop_
_atom_site_label
_atom_site_type_symbol
_atom_site_fract_x
_atom_site_fract_y
_atom_site_fract_z
Ag1 Ag 0.29482(7) 0.5000 0.0000
N1 N 0.2748(4) 0.43880(15) -0.1551(2)
C1 C 0.2500 0.4737(3) -0.2500
H3 H 0.2500 0.5282(3) -0.2500
C2 C 0.2749(5) 0.3619(2) -0.1561(3)
H4 H 0.2926(5) 0.3349(2) -0.0901(3)
C3 C 0.2500 0.3215(3) -0.2500
H5 H 0.2500 0.2670(3) -0.2500
Ag1E Ag 0.20518(7) 0.5000 -0.5000
N1F N 0.2252(4) 0.43880(15) -0.3449(2)
N1D N 0.2748(4) 0.56120(15) 0.1551(2)
C2F C 0.2251(5) 0.3619(2) -0.3439(3)
H4F H 0.2074(5) 0.3349(2) -0.4099(3)
F1 F 0.0000 0.4098(2) 0.0369(4)
F4 F 0.1418(16) 0.3479(6) 0.1634(9)
F6 F 0.0000 0.2822(13) 0.0379(20)
B1 B 0.0000 0.3458(4) 0.0994(5)
F4L F -0.1418(16) 0.3479(6) 0.1634(9)
O1 O 0.0000 0.3783(3) 0.4157(4)
H2 H -0.0891 0.3711(3) 0.3798(4)
H2L H 0.0891 0.3711(3) 0.3798(4)
F2? F 0.0724(64) 0.2881(14) 0.0536(24)
F3? F 0.1843(25) 0.3323(15) 0.1045(14)
F5? F 0.0000 0.3535(14) 0.2036(11)
H1? H 0.0000 0.3207(3) 0.4435(4)
loop_
_geom_bond_atom_site_label_1
_geom_bond_atom_site_label_2
_geom_bond_site_symmetry_1
_geom_bond_site_symmetry_2
Ag1 N1 1_555 1_555
F1 B1 1_555 1_555
F4 B1 1_555 1_555
F6 B1 1_555 1_555
O1 H2 1_555 1_555
N1 C1 1_555 1_555
C1 H3 1_555 1_555
C2 N1 1_555 1_555
H4 C2 1_555 1_555
C3 C2 1_555 1_555
H5 C3 1_555 1_555
B1 F4L 1_555 1_555
Ag1E N1F 1_555 1_555
H2L O1 1_555 1_555
N1F C1 1_555 1_555
N1D Ag1 1_555 1_555
C2F C3 1_555 1_555
H4F C2F 1_555 1_555
N1F C2F 1_555 1_555

#END
