
#######################################################################
#
#                 Cambridge Crystallographic Data Centre
#                                CCDC 
#
#######################################################################
#
# If this CIF has been generated from an entry in the Cambridge 
# Structural Database, then it will include bibliographic, chemical, 
# crystal, experimental, refinement or atomic coordinate data resulting 
# from the CCDC's data processing and validation procedures.
#
#######################################################################

data_MESFOF
_symmetry_cell_setting           triclinic
_symmetry_space_group_name_H-M   'P -1'
_symmetry_Int_Tables_number      2
_space_group_name_Hall           '-P 1'
loop_
_symmetry_equiv_pos_site_id
_symmetry_equiv_pos_as_xyz
1 x,y,z
2 -x,-y,-z
_cell_length_a                   6.9405(2)
_cell_length_b                   7.1938(3)
_cell_length_c                   8.2566(4)
_cell_angle_alpha                82.237(3)
_cell_angle_beta                 66.892(3)
_cell_angle_gamma                74.971(3)
_cell_volume                     365.938
loop_
_atom_site_label
_atom_site_type_symbol
_atom_site_fract_x
_atom_site_fract_y
_atom_site_fract_z
Mn1 Mn 0.0000 0.0000 0.0000
S1 S 0.2857(2) 0.40697(19) -0.50764(17)
O1 O 0.0284(5) 0.1745(4) 0.1866(3)
O2 O 0.3499(5) -0.1318(4) -0.0781(4)
N1 N 0.0137(5) 0.0911(4) 0.3421(4)
N2 N 0.4218(5) -0.3124(5) -0.0395(4)
N3 N 0.0799(7) 0.2219(5) -0.1927(5)
C1 C -0.1802(6) 0.0927(6) 0.4704(5)
H1 H -0.3047 0.1575 0.4516
C2 C 0.1937(6) 0.0017(6) 0.3710(5)
H2 H 0.3276 0.0037 0.2832
C3 C 0.5735(6) -0.3586(6) 0.0328(5)
H3 H 0.6255 -0.2619 0.0550
C4 C 0.3493(6) -0.4542(6) -0.0730(5)
H4 H 0.2463 -0.4240 -0.1239
C5 C 0.1651(6) 0.3018(5) -0.3258(5)
C2A C -0.1937(6) -0.0017(6) 0.6290(5)
N1A N -0.0137(5) -0.0911(4) 0.6579(4)
O1A O -0.0284(5) -0.1745(4) 0.8134(3)
C1A C 0.1802(6) -0.0927(6) 0.5296(5)
H1A H 0.3047 -0.1575 0.5484
H2A H -0.3276 -0.0037 0.7168
C4A C 0.6507(6) -0.5458(6) 0.0730(5)
N2A N 0.5782(5) -0.6876(5) 0.0395(4)
O2A O 0.6501(5) -0.8682(4) 0.0781(4)
C3A C 0.4265(6) -0.6414(6) -0.0328(5)
H3A H 0.3745 -0.7381 -0.0550
H4A H 0.7537 -0.5760 0.1239
S1A S -0.2857(2) -0.40697(19) 0.50764(17)
N3A N -0.0799(7) -0.2219(5) 0.1927(5)
C5A C -0.1651(6) -0.3018(5) 0.3258(5)
O1A_2 O -0.0284(5) -0.1745(4) -0.1866(3)
O2A_2 O -0.3499(5) 0.1318(4) 0.0781(4)
Mn1_2 Mn 0.0000 0.0000 1.0000
Mn1_3 Mn 1.0000 -1.0000 0.0000
loop_
_geom_bond_atom_site_label_1
_geom_bond_atom_site_label_2
_geom_bond_site_symmetry_1
_geom_bond_site_symmetry_2
Mn1 O1 1_555 1_555
S1 C5 1_555 1_555
O1 N1 1_555 1_555
O2 Mn1 1_555 1_555
N1 C1 1_555 1_555
N2 O2 1_555 1_555
N3 Mn1 1_555 1_555
C1 H1 1_555 1_555
C2 N1 1_555 1_555
H2 C2 1_555 1_555
C3 N2 1_555 1_555
H3 C3 1_555 1_555
C4 N2 1_555 1_555
H4 C4 1_555 1_555
C5 N3 1_555 1_555
C2A C1 1_555 1_555
N1A C2A 1_555 1_555
O1A N1A 1_555 1_555
C1A C2 1_555 1_555
H1A C1A 1_555 1_555
H2A C2A 1_555 1_555
C4A C3 1_555 1_555
N2A C4A 1_555 1_555
O2A N2A 1_555 1_555
C3A C4 1_555 1_555
H3A C3A 1_555 1_555
H4A C4A 1_555 1_555
S1A C5A 1_555 1_555
N3A Mn1 1_555 1_555
C5A N3A 1_555 1_555
O1A_2 Mn1 1_555 1_555
O2A_2 Mn1 1_555 1_555
Mn1_2 O1A 1_555 1_555
Mn1_3 O2A 1_555 1_555
N1A C1A 1_555 1_555
N2A C3A 1_555 1_555

#END
