
#######################################################################
#
#                 Cambridge Crystallographic Data Centre
#                                CCDC 
#
#######################################################################
#
# If this CIF has been generated from an entry in the Cambridge 
# Structural Database, then it will include bibliographic, chemical, 
# crystal, experimental, refinement or atomic coordinate data resulting 
# from the CCDC's data processing and validation procedures.
#
#######################################################################

data_MESGAT
_symmetry_cell_setting           monoclinic
_symmetry_space_group_name_H-M   'P 21/c'
_symmetry_Int_Tables_number      14
_space_group_name_Hall           '-P 2ybc'
loop_
_symmetry_equiv_pos_site_id
_symmetry_equiv_pos_as_xyz
1 x,y,z
2 -x,1/2+y,1/2-z
3 -x,-y,-z
4 x,1/2-y,1/2+z
_cell_length_a                   13.2673(1)
_cell_length_b                   15.1401(2)
_cell_length_c                   9.9519(1)
_cell_angle_alpha                90
_cell_angle_beta                 96.595(1)
_cell_angle_gamma                90
_cell_volume                     1985.79
loop_
_atom_site_label
_atom_site_type_symbol
_atom_site_fract_x
_atom_site_fract_y
_atom_site_fract_z
Ag1 Ag 0.21490(2) 0.12302(2) 0.42903(3)
Ag2 Ag -0.20432(2) 0.07977(2) 0.10480(3)
C1 C -0.0044(3) 0.1307(3) 0.5385(3)
H1 H 0.0367(3) 0.1391(3) 0.6221(3)
C2 C -0.1070(4) 0.1454(3) 0.5321(4)
H2 H -0.1372(4) 0.1642(3) 0.6092(4)
C3 C -0.1639(3) 0.1320(3) 0.4103(4)
H3 H -0.2350(3) 0.1420(3) 0.4032(4)
C4 C -0.0224(3) 0.0929(2) 0.3166(3)
H4 H 0.0076(3) 0.0738(2) 0.2395(3)
C5 C 0.3531(3) -0.0438(3) 0.3604(4)
H5 H 0.3796(3) -0.0362(3) 0.4525(4)
C6 C 0.3893(3) -0.1120(3) 0.2867(4)
H6 H 0.4378(3) -0.1529(3) 0.3275(4)
C7 C 0.3528(3) -0.1185(3) 0.1537(4)
H7 H 0.3777(3) -0.1637(3) 0.1002(4)
C8 C 0.2501(3) 0.0001(2) 0.1752(3)
H8 H 0.2000(3) 0.0397(2) 0.1348(3)
C9 C 0.3328(3) 0.0905(2) 0.7375(4)
H9 H 0.3543(3) 0.0371(2) 0.6996(4)
C10 C 0.3680(3) 0.1106(3) 0.8679(4)
H10 H 0.4131(3) 0.0723(3) 0.9212(4)
C11 C 0.3353(3) 0.1892(2) 0.9195(3)
H11 H 0.3597(3) 0.2056(2) 1.0096(3)
C12 C 0.2405(2) 0.2173(2) 0.7199(3)
H12 H 0.1948(2) 0.2552(2) 0.6668(3)
N1 N 0.0393(2) 0.1048(2) 0.4305(3)
N2 N -0.1225(2) 0.1054(2) 0.3012(3)
N3 N 0.2815(2) 0.0120(2) 0.3048(3)
N4 N 0.2823(2) -0.0623(2) 0.0963(3)
N5 N 0.2686(2) 0.1437(2) 0.6606(3)
N6 N 0.2703(2) 0.2427(2) 0.8457(3)
Ag1C Ag 0.21490(2) 0.37698(2) 0.92903(3)
Ag2B Ag 0.20432(2) -0.07977(2) -0.10480(3)
N4B N -0.2823(2) 0.0623(2) -0.0963(3)
N6C N 0.2703(2) 0.2573(2) 0.3457(3)
F1 F 0.4400(6) -0.1188(5) 0.6393(5)
F2 F 0.3740(3) -0.1682(4) 0.8139(7)
F3 F 0.5006(4) -0.0718(2) 0.8413(5)
F4 F 0.5279(2) -0.2095(2) 0.7837(3)
B1 B 0.4623(4) -0.1420(3) 0.7645(5)
F5 F 0.1023(3) 0.0796(2) -0.1364(4)
F6 F 0.0189(3) 0.2065(2) -0.1633(3)
F7 F 0.0701(4) 0.1549(2) 0.0454(3)
F8 F -0.0524(3) 0.0840(4) -0.0879(6)
B2 B 0.0312(3) 0.1329(3) -0.0826(4)
loop_
_geom_bond_atom_site_label_1
_geom_bond_atom_site_label_2
_geom_bond_site_symmetry_1
_geom_bond_site_symmetry_2
Ag1 N1 1_555 1_555
Ag2 N2 1_555 1_555
F1 B1 1_555 1_555
F2 B1 1_555 1_555
F3 B1 1_555 1_555
F4 B1 1_555 1_555
F5 B2 1_555 1_555
F6 B2 1_555 1_555
F7 B2 1_555 1_555
F8 B2 1_555 1_555
C1 H1 1_555 1_555
C2 C1 1_555 1_555
H2 C2 1_555 1_555
C3 C2 1_555 1_555
H3 C3 1_555 1_555
C4 H4 1_555 1_555
C5 H5 1_555 1_555
C6 C5 1_555 1_555
H6 C6 1_555 1_555
C7 C6 1_555 1_555
H7 C7 1_555 1_555
C8 H8 1_555 1_555
C9 H9 1_555 1_555
C10 C9 1_555 1_555
H10 C10 1_555 1_555
C11 C10 1_555 1_555
H11 C11 1_555 1_555
C12 H12 1_555 1_555
N1 C1 1_555 1_555
N2 C3 1_555 1_555
N3 Ag1 1_555 1_555
N4 C7 1_555 1_555
N5 Ag1 1_555 1_555
N6 C11 1_555 1_555
Ag1C N6 1_555 1_555
Ag2B N4 1_555 1_555
N4B Ag2 1_555 1_555
N6C Ag1 1_555 1_555
C4 N1 1_555 1_555
C4 N2 1_555 1_555
C5 N3 1_555 1_555
C8 N3 1_555 1_555
C8 N4 1_555 1_555
C9 N5 1_555 1_555
C12 N5 1_555 1_555
C12 N6 1_555 1_555

#END
