
#######################################################################
#
#                 Cambridge Crystallographic Data Centre
#                                CCDC 
#
#######################################################################
#
# If this CIF has been generated from an entry in the Cambridge 
# Structural Database, then it will include bibliographic, chemical, 
# crystal, experimental, refinement or atomic coordinate data resulting 
# from the CCDC's data processing and validation procedures.
#
#######################################################################

data_MESGEX
_symmetry_cell_setting           orthorhombic
_symmetry_space_group_name_H-M   'P b c a'
_symmetry_Int_Tables_number      61
_space_group_name_Hall           '-P 2ac 2ab'
loop_
_symmetry_equiv_pos_site_id
_symmetry_equiv_pos_as_xyz
1 x,y,z
2 1/2-x,-y,1/2+z
3 -x,1/2+y,1/2-z
4 1/2+x,1/2-y,-z
5 -x,-y,-z
6 1/2+x,y,1/2-z
7 x,1/2-y,1/2+z
8 1/2-x,1/2+y,z
_cell_length_a                   16.2618(4)
_cell_length_b                   16.2445(2)
_cell_length_c                   17.7223(4)
_cell_angle_alpha                90
_cell_angle_beta                 90
_cell_angle_gamma                90
_cell_volume                     4681.61
loop_
_atom_site_label
_atom_site_type_symbol
_atom_site_fract_x
_atom_site_fract_y
_atom_site_fract_z
Ag1 Ag 0.21979(2) 0.01978(2) 0.61393(2)
Ag2 Ag -0.02868(2) -0.27412(2) 0.62382(2)
N1 N 0.1825(2) -0.0855(2) 0.6879(2)
N2 N 0.0984(2) -0.2055(2) 0.6912(2)
N3 N 0.3244(2) 0.0653(2) 0.5411(2)
N4 N 0.4509(2) 0.1372(2) 0.5490(2)
N5 N 0.0950(2) 0.0649(2) 0.5438(2)
N6 N 0.0307(2) 0.1710(2) 0.4729(2)
N7 N 0.1020(2) 0.2191(2) 0.7688(2)
N8 N 0.1906(2) 0.1506(2) 0.6830(2)
C1 C 0.2140(2) -0.1062(2) 0.7550(2)
H1 H 0.2539(2) -0.0714(2) 0.7776(2)
C2 C 0.1901(3) -0.1771(2) 0.7923(2)
H2 H 0.2127(3) -0.1914(2) 0.8399(2)
C3 C 0.1326(3) -0.2258(2) 0.7579(2)
H3 H 0.1162(3) -0.2755(2) 0.7818(2)
C4 C 0.1259(2) -0.1365(2) 0.6602(2)
H4 H 0.1027(2) -0.1218(2) 0.6129(2)
C5 C 0.3453(2) 0.0382(2) 0.4722(2)
H5 H 0.3082(2) 0.0038(2) 0.4454(2)
C6 C 0.4186(3) 0.0589(3) 0.4398(2)
H6 H 0.4330(3) 0.0396(3) 0.3909(2)
C7 C 0.4708(2) 0.1085(2) 0.4802(2)
H7 H 0.5225(2) 0.1230(2) 0.4590(2)
C8 C 0.3782(2) 0.1136(2) 0.5755(2)
H8 H 0.3634(2) 0.1333(2) 0.6241(2)
C9 C 0.0279(2) 0.0608(2) 0.5873(2)
H9 H 0.0267(2) 0.0218(2) 0.6273(2)
C10 C -0.0395(2) 0.1107(2) 0.5765(2)
H10 H -0.0868(2) 0.1069(2) 0.6078(2)
C11 C -0.0349(2) 0.1662(2) 0.5186(2)
H11 H -0.0798(2) 0.2026(2) 0.5104(2)
C12 C 0.0921(2) 0.1192(2) 0.4878(2)
H12 H 0.1384(2) 0.1213(2) 0.4552(2)
C13 C 0.1003(2) 0.2839(2) 0.7224(2)
H13 H 0.0681(2) 0.3305(2) 0.7357(2)
C14 C 0.1440(2) 0.2852(2) 0.6558(2)
H14 H 0.1431(2) 0.3318(2) 0.6233(2)
C15 C 0.1885(2) 0.2167(2) 0.6386(2)
H15 H 0.2193(2) 0.2161(2) 0.5931(2)
C16 C 0.1477(2) 0.1549(2) 0.7469(2)
H16 H 0.1496(2) 0.1085(2) 0.7796(2)
Ag2G Ag 0.52868(2) 0.22588(2) 0.62382(2)
Ag2D Ag 0.02868(2) 0.27412(2) 0.37618(2)
Ag2B Ag 0.02868(2) 0.22588(2) 0.87618(2)
N4G N 0.0491(2) -0.3628(2) 0.5490(2)
N6D N -0.0307(2) -0.1710(2) 0.5271(2)
N7B N -0.1020(2) -0.2809(2) 0.7312(2)
F1 F 0.2424(2) 0.6424(2) -0.10980(14)
F2 F 0.2360(2) 0.7548(2) -0.03734(15)
F3 F 0.3452(2) 0.6695(2) -0.0281(2)
F4 F 0.2238(2) 0.6307(2) 0.01512(15)
B1 B 0.2623(3) 0.6743(3) -0.0407(2)
F5 F 0.3993(9) -0.0289(12) 0.8000(10)
F6 F 0.4392(6) 0.0860(5) 0.7413(6)
F7 F 0.5193(4) -0.0259(4) 0.7389(5)
F11 F 0.4048(2) -0.02879(15) 0.67261(13)
B2 B 0.4386(3) 0.0021(3) 0.7380(3)
F8? F 0.4200(15) -0.0417(19) 0.8010(15)
F9? F 0.4177(15) 0.0794(10) 0.7444(10)
F10? F 0.5192(17) 0.0130(18) 0.7308(13)
loop_
_geom_bond_atom_site_label_1
_geom_bond_atom_site_label_2
_geom_bond_site_symmetry_1
_geom_bond_site_symmetry_2
Ag1 N1 1_555 1_555
Ag2 N2 1_555 1_555
F1 B1 1_555 1_555
F2 B1 1_555 1_555
F3 B1 1_555 1_555
F4 B1 1_555 1_555
F5 B2 1_555 1_555
F6 B2 1_555 1_555
F7 B2 1_555 1_555
F11 B2 1_555 1_555
N1 C1 1_555 1_555
N2 C3 1_555 1_555
N3 Ag1 1_555 1_555
N4 C7 1_555 1_555
N5 Ag1 1_555 1_555
N6 C11 1_555 1_555
N7 C13 1_555 1_555
N8 Ag1 1_555 1_555
C1 H1 1_555 1_555
C2 C1 1_555 1_555
H2 C2 1_555 1_555
C3 C2 1_555 1_555
H3 C3 1_555 1_555
C4 N1 1_555 1_555
H4 C4 1_555 1_555
C5 N3 1_555 1_555
H5 C5 1_555 1_555
C6 C5 1_555 1_555
H6 C6 1_555 1_555
C7 C6 1_555 1_555
H7 C7 1_555 1_555
C8 N3 1_555 1_555
H8 C8 1_555 1_555
C9 N5 1_555 1_555
H9 C9 1_555 1_555
C10 C9 1_555 1_555
H10 C10 1_555 1_555
C11 C10 1_555 1_555
H11 C11 1_555 1_555
C12 N5 1_555 1_555
H12 C12 1_555 1_555
C13 H13 1_555 1_555
C14 C13 1_555 1_555
H14 C14 1_555 1_555
C15 N8 1_555 1_555
H15 C15 1_555 1_555
C16 N7 1_555 1_555
H16 C16 1_555 1_555
Ag2G N4 1_555 1_555
Ag2D N6 1_555 1_555
Ag2B N7 1_555 1_555
N4G Ag2 1_555 1_555
N6D Ag2 1_555 1_555
N7B Ag2 1_555 1_555
N2 C4 1_555 1_555
N4 C8 1_555 1_555
N6 C12 1_555 1_555
N8 C16 1_555 1_555
C14 C15 1_555 1_555

#END
