
#######################################################################
#
#                 Cambridge Crystallographic Data Centre
#                                CCDC 
#
#######################################################################
#
# If this CIF has been generated from an entry in the Cambridge 
# Structural Database, then it will include bibliographic, chemical, 
# crystal, experimental, refinement or atomic coordinate data resulting 
# from the CCDC's data processing and validation procedures.
#
#######################################################################

data_MESHEX
_symmetry_cell_setting           triclinic
_symmetry_space_group_name_H-M   'P -1'
_symmetry_Int_Tables_number      2
_space_group_name_Hall           '-P 1'
loop_
_symmetry_equiv_pos_site_id
_symmetry_equiv_pos_as_xyz
1 x,y,z
2 -x,-y,-z
_cell_length_a                   7.2337(7)
_cell_length_b                   11.0126(13)
_cell_length_c                   16.7266(16)
_cell_angle_alpha                104.590(3)
_cell_angle_beta                 54.736(5)
_cell_angle_gamma                97.602(8)
_cell_volume                     1052.73
loop_
_atom_site_label
_atom_site_type_symbol
_atom_site_fract_x
_atom_site_fract_y
_atom_site_fract_z
Ni1 Ni 0.00000 0.00000 0.00000
Ni2 Ni 0.00000 0.50000 0.00000
S1 S -0.36361(13) 0.39221(7) 0.10853(6)
S2 S -0.34263(13) -0.13151(7) 0.04337(7)
O1 O -0.2838(5) 0.1230(3) 0.49405(19)
H1 H -0.2668 0.1406 0.54
O2 O 0.0861(5) 0.0791(3) 0.4021(2)
O3 O -0.2306(5) 0.2372(3) -0.3617(2)
O4 O 0.1337(5) 0.1844(3) -0.4534(2)
H2 H 0.1082 0.1535 -0.4961
N1 N -0.2070(4) 0.1517(2) 0.0622(2)
N2 N -0.1930(4) -0.3596(2) 0.0272(2)
N3 N -0.0601(4) 0.0044(2) 0.1409(2)
N4 N -0.0061(4) 0.4090(2) -0.12614(19)
C1 C -0.2723(5) 0.2503(3) 0.0812(2)
C2 C -0.2546(5) -0.2655(3) 0.0339(2)
C3 C 0.1121(6) -0.0196(3) 0.1432(3)
H3 H 0.2459 -0.0522 0.083
C4 C 0.1020(6) 0.0014(4) 0.2299(3)
H4 H 0.227 -0.0159 0.228
C5 C -0.0954(6) 0.0483(3) 0.3197(3)
C6 C -0.2788(6) 0.0676(3) 0.3198(3)
H5 H -0.4165 0.0959 0.3797
C7 C -0.2552(5) 0.0444(3) 0.2295(3)
H6 H -0.3803 0.057 0.2299
C8 C -0.0957(6) 0.0845(4) 0.4115(3)
C9 C -0.1919(5) 0.4175(3) -0.1235(3)
H7 H -0.3155 0.4632 -0.0655
C10 C -0.2099(6) 0.3627(3) -0.2014(3)
H8 H -0.3436 0.3701 -0.1959
C11 C -0.0277(5) 0.2964(3) -0.2882(2)
C12 C 0.1680(6) 0.2879(3) -0.2929(3)
H9 H 0.295 0.2445 -0.3507
C13 C 0.1704(5) 0.3447(3) -0.2110(2)
H10 H 0.3017 0.3383 -0.2143
C14 C -0.0462(6) 0.2361(4) -0.3730(3)
S2A S 0.34263(13) 0.13151(7) -0.04337(7)
N2A N 0.1930(4) 0.3596(2) -0.0272(2)
C2A C 0.2546(5) 0.2655(3) -0.0339(2)
S1A S 0.36361(13) -0.39221(7) -0.10853(6)
N1A N 0.2070(4) -0.1517(2) -0.0622(2)
C1A C 0.2723(5) -0.2503(3) -0.0812(2)
O1A O 0.2838(5) -0.1230(3) -0.49405(19)
H1A H 0.2668 -0.1406 -0.54
O2A O -0.0861(5) -0.0791(3) -0.4021(2)
N3A N 0.0601(4) -0.0044(2) -0.1409(2)
C3A C -0.1121(6) 0.0196(3) -0.1432(3)
H3A H -0.2459 0.0522 -0.083
C4A C -0.1020(6) -0.0014(4) -0.2299(3)
H4A H -0.227 0.0159 -0.228
C5A C 0.0954(6) -0.0483(3) -0.3197(3)
C6A C 0.2788(6) -0.0676(3) -0.3198(3)
H5A H 0.4165 -0.0959 -0.3797
C7A C 0.2552(5) -0.0444(3) -0.2295(3)
H6A H 0.3803 -0.057 -0.2299
C8A C 0.0957(6) -0.0845(4) -0.4115(3)
O3A O 0.2306(5) 0.7628(3) 0.3617(2)
O4A O -0.1337(5) 0.8156(3) 0.4534(2)
H2A H -0.1082 0.8465 0.4961
N4A N 0.0061(4) 0.5910(2) 0.12614(19)
C9A C 0.1919(5) 0.5825(3) 0.1235(3)
H7A H 0.3155 0.5368 0.0655
C10A C 0.2099(6) 0.6373(3) 0.2014(3)
H8A H 0.3436 0.6299 0.1959
C11A C 0.0277(5) 0.7036(3) 0.2882(2)
C12A C -0.1680(6) 0.7121(3) 0.2929(3)
H9A H -0.295 0.7555 0.3507
C13A C -0.1704(5) 0.6553(3) 0.2110(2)
H10A H -0.3017 0.6617 0.2143
C14A C 0.0462(6) 0.7639(4) 0.3730(3)
S1A_2 S 0.36361(13) 0.60779(7) -0.10853(6)
N2_2 N -0.1930(4) 0.6404(2) 0.0272(2)
Ni2_2 Ni 0.00000 -0.50000 0.00000
C15 C 0.0054(9) 0.6577(5) 0.7409(4)
H11 H -0.0916 0.6922 0.8091
C16 C -0.0623(9) 0.6552(5) 0.6769(4)
H12 H -0.2037 0.6875 0.7031
C17 C 0.0771(8) 0.6062(4) 0.5775(4)
H13 H 0.0327 0.6075 0.5355
C18 C 0.2904(7) 0.5531(4) 0.5367(3)
C19 C 0.3583(8) 0.5549(4) 0.6023(3)
C20 C 0.2062(9) 0.6113(4) 0.7056(3)
H14 H 0.2481 0.6159 0.7494
C21 C 0.4355(8) 0.4978(4) 0.4363(3)
H15 H 0.3928 0.4961 0.3932
C21A C 0.5645(8) 0.5022(4) 0.5637(3)
C18A C 0.7096(7) 0.4469(4) 0.4633(3)
C17A C 0.9229(8) 0.3938(4) 0.4225(4)
C16A C 1.0623(9) 0.3448(5) 0.3231(4)
C15A C 0.9946(9) 0.3423(5) 0.2591(4)
H11A H 1.0916 0.3078 0.1909
C20A C 0.7938(9) 0.3887(4) 0.2944(3)
C19A C 0.6417(8) 0.4451(4) 0.3977(3)
H14A H 0.7519 0.3841 0.2506
H12A H 1.2037 0.3125 0.2969
H13A H 0.9673 0.3925 0.4645
H15A H 0.6072 0.5039 0.6068
loop_
_geom_bond_atom_site_label_1
_geom_bond_atom_site_label_2
_geom_bond_site_symmetry_1
_geom_bond_site_symmetry_2
Ni1 S2 1_555 1_555
Ni2 S1 1_555 1_555
S1 C1 1_555 1_555
S2 C2 1_555 1_555
O1 H1 1_555 1_555
O2 C8 1_555 1_555
O3 C14 1_555 1_555
O4 H2 1_555 1_555
N1 Ni1 1_555 1_555
N2 C2 1_555 1_555
N3 Ni1 1_555 1_555
N4 Ni2 1_555 1_555
C1 N1 1_555 1_555
C3 N3 1_555 1_555
H3 C3 1_555 1_555
C4 C3 1_555 1_555
H4 C4 1_555 1_555
C5 C4 1_555 1_555
C6 C5 1_555 1_555
H5 C6 1_555 1_555
C7 N3 1_555 1_555
H6 C7 1_555 1_555
C8 O1 1_555 1_555
C9 N4 1_555 1_555
H7 C9 1_555 1_555
C10 C9 1_555 1_555
H8 C10 1_555 1_555
C11 C10 1_555 1_555
C12 C11 1_555 1_555
H9 C12 1_555 1_555
C13 N4 1_555 1_555
H10 C13 1_555 1_555
C14 O4 1_555 1_555
C15 H11 1_555 1_555
C16 C15 1_555 1_555
H12 C16 1_555 1_555
C17 C16 1_555 1_555
H13 C17 1_555 1_555
C18 C17 1_555 1_555
C19 C18 1_555 1_555
C20 C15 1_555 1_555
H14 C20 1_555 1_555
C21 C18 1_555 1_555
H15 C21 1_555 1_555
C21A C19 1_555 1_555
C18A C21A 1_555 1_555
C17A C18A 1_555 1_555
C16A C17A 1_555 1_555
C15A C16A 1_555 1_555
H11A C15A 1_555 1_555
C20A C15A 1_555 1_555
C19A C21 1_555 1_555
H14A C20A 1_555 1_555
H12A C16A 1_555 1_555
H13A C17A 1_555 1_555
H15A C21A 1_555 1_555
S2A Ni1 1_555 1_555
N2A Ni2 1_555 1_555
C2A S2A 1_555 1_555
S1A C1A 1_555 1_555
N1A Ni1 1_555 1_555
C1A N1A 1_555 1_555
O1A H1A 1_555 1_555
O2A C8A 1_555 1_555
N3A Ni1 1_555 1_555
C3A N3A 1_555 1_555
H3A C3A 1_555 1_555
C4A C3A 1_555 1_555
H4A C4A 1_555 1_555
C5A C4A 1_555 1_555
C6A C5A 1_555 1_555
H5A C6A 1_555 1_555
C7A N3A 1_555 1_555
H6A C7A 1_555 1_555
C8A O1A 1_555 1_555
O3A C14A 1_555 1_555
O4A H2A 1_555 1_555
N4A Ni2 1_555 1_555
C9A N4A 1_555 1_555
H7A C9A 1_555 1_555
C10A C9A 1_555 1_555
H8A C10A 1_555 1_555
C11A C10A 1_555 1_555
C12A C11A 1_555 1_555
H9A C12A 1_555 1_555
C13A N4A 1_555 1_555
H10A C13A 1_555 1_555
C14A O4A 1_555 1_555
S1A_2 Ni2 1_555 1_555
N2_2 Ni2 1_555 1_555
Ni2_2 N2 1_555 1_555
C5 C8 1_555 1_555
C6 C7 1_555 1_555
C11 C14 1_555 1_555
C12 C13 1_555 1_555
C19 C20 1_555 1_555
C18A C19A 1_555 1_555
C20A C19A 1_555 1_555
N2A C2A 1_555 1_555
S1A Ni2_2 1_555 1_555
C5A C8A 1_555 1_555
C6A C7A 1_555 1_555
C11A C14A 1_555 1_555
C12A C13A 1_555 1_555

#END
