
#######################################################################
#
#                 Cambridge Crystallographic Data Centre
#                                CCDC 
#
#######################################################################
#
# If this CIF has been generated from an entry in the Cambridge 
# Structural Database, then it will include bibliographic, chemical, 
# crystal, experimental, refinement or atomic coordinate data resulting 
# from the CCDC's data processing and validation procedures.
#
#######################################################################

data_MESTOU
_symmetry_cell_setting           monoclinic
_symmetry_space_group_name_H-M   'P 21/m'
_symmetry_Int_Tables_number      11
_space_group_name_Hall           '-P 2yb'
loop_
_symmetry_equiv_pos_site_id
_symmetry_equiv_pos_as_xyz
1 x,y,z
2 -x,1/2+y,-z
3 -x,-y,-z
4 x,1/2-y,z
_cell_length_a                   8.7924(9)
_cell_length_b                   35.595(4)
_cell_length_c                   9.2583(10)
_cell_angle_alpha                90
_cell_angle_beta                 96.602(2)
_cell_angle_gamma                90
_cell_volume                     2878.31
loop_
_atom_site_label
_atom_site_type_symbol
_atom_site_fract_x
_atom_site_fract_y
_atom_site_fract_z
Zn1 Zn 0.2112(3) 0.40684(8) 0.4558(4)
Zn2 Zn 0.2209(3) 0.32637(8) 0.9598(4)
O1 O 0.0943(17) 0.2815(4) 0.8676(18)
O2 O 0.3534(17) 0.2813(4) 1.0480(18)
O3 O 0.3437(17) 0.3674(4) 0.5835(19)
O4 O 0.0783(16) 0.3988(4) 0.6273(17)
O5 O 0.0785(17) 0.4504(4) 0.3621(18)
O6 O 0.3480(17) 0.3998(4) 0.2855(18)
O7 O 0.3306(16) 0.4520(4) 0.5628(18)
O8 O 0.0792(17) 0.3662(4) 0.3285(18)
O9 O 0.0858(16) 0.3663(4) 0.8355(18)
O10 O 0.3559(18) 0.3643(5) 0.0816(20)
O11 O 0.0895(18) 0.3325(4) 0.1327(19)
O12 O 0.3487(19) 0.3333(5) 0.7876(20)
C1 C 0.2921(43) 0.2500 1.0147(41)
C2 C 0.1364(27) 0.3767(7) 0.7216(29)
O13 O 0.0865(18) 0.5128(4) 0.3515(18)
C3 C 0.2909(26) 0.3592(7) 0.6948(29)
C4 C 0.1465(40) 0.2500 0.9129(40)
C5 C 0.1433(27) 0.3566(7) 0.2227(29)
C6 C 0.2723(29) 0.4835(7) 0.5163(29)
C7 C 0.2937(26) 0.3754(6) 0.1882(29)
O14 O 0.3084(20) 0.5127(5) 0.5841(20)
C8 C 0.1357(28) 0.4820(7) 0.4006(28)
Zn1_2 Zn 0.2112(3) 0.40684(8) -0.5442(4)
Zn1_3 Zn 0.2112(3) 0.40684(8) 1.4558(4)
Zn2_2 Zn 0.2209(3) 0.32637(8) -0.0402(4)
Zn2C Zn 0.2209(3) 0.17363(8) 0.9598(4)
O1C O 0.0943(17) 0.2185(4) 0.8676(18)
O1_2 O 0.0943(17) 0.2815(4) -0.1324(18)
O2C O 0.3534(17) 0.2187(4) 1.0480(18)
O2_2 O 0.3534(17) 0.2813(4) 0.0480(18)
O3_2 O 0.3437(17) 0.3674(4) -0.4165(19)
O4_2 O 0.0783(16) 0.3988(4) -0.3727(17)
O5_2 O 0.0785(17) 0.4504(4) -0.6379(18)
O6_2 O 0.3480(17) 0.3998(4) 1.2855(18)
O6_3 O 0.3480(17) 0.3998(4) -0.7145(18)
O7_2 O 0.3306(16) 0.4520(4) -0.4372(18)
O8_2 O 0.0792(17) 0.3662(4) 1.3285(18)
O8_3 O 0.0792(17) 0.3662(4) -0.6715(18)
O9_2 O 0.0858(16) 0.3663(4) -0.1645(18)
O10_2 O 0.3559(18) 0.3643(5) 1.0816(20)
O11_2 O 0.0895(18) 0.3325(4) 1.1327(19)
O12_2 O 0.3487(19) 0.3333(5) -0.2124(20)
C2_2 C 0.1364(27) 0.3767(7) -0.2784(29)
O13_2 O 0.0865(18) 0.5128(4) -0.6485(18)
C3_2 C 0.2909(26) 0.3592(7) -0.3052(29)
C5_2 C 0.1433(27) 0.3566(7) 1.2227(29)
C6_2 C 0.2723(29) 0.4835(7) -0.4837(29)
C7_2 C 0.2937(26) 0.3754(6) 1.1882(29)
O14_2 O 0.3084(20) 0.5127(5) -0.4159(20)
C8_2 C 0.1357(28) 0.4820(7) -0.5994(28)
N1 N 0.7836(24) 0.4180(6) 0.5243(25)
N2 N 0.6563(22) 0.3463(6) 0.5611(23)
C9 C 0.7478(30) 0.3565(8) 0.4343(31)
C10 C 0.6838(32) 0.4123(8) 0.6424(34)
C11 C 0.6970(31) 0.3677(8) 0.6851(33)
C12 C 0.7280(29) 0.3952(8) 0.3884(30)
N3 N -0.0970(27) 0.5168(7) 0.0947(27)
C13 C -0.0267(33) 0.5408(8) 0.0036(33)
C14 C -0.1292(35) 0.4774(9) 0.0387(35)
N3B N 0.0970(27) 0.4832(7) -0.0947(27)
C13B C 0.0267(33) 0.4592(8) -0.0036(33)
C14B C 0.1292(35) 0.5226(9) -0.0387(35)
O15 O 0.5638(28) 0.5229(7) 0.7865(30)
O16 O 0.3650(31) 0.4491(8) 0.8643(33)
O17 O 0.6279(39) 0.4012(10) 1.0216(40)
O18 O 0.4351(42) 0.3013(10) 1.3514(46)
loop_
_geom_bond_atom_site_label_1
_geom_bond_atom_site_label_2
_geom_bond_site_symmetry_1
_geom_bond_site_symmetry_2
Zn1 O3 1_555 1_555
Zn2 O1 1_555 1_555
O1 C4 1_555 1_555
O2 Zn2 1_555 1_555
O3 C3 1_555 1_555
O4 Zn1 1_555 1_555
O5 Zn1 1_555 1_555
O6 Zn1 1_555 1_555
O7 Zn1 1_555 1_555
O8 Zn1 1_555 1_555
O9 Zn2 1_555 1_555
O10 C7 1_555 1_555
O11 C5 1_555 1_555
O12 Zn2 1_555 1_555
C1 O2 1_555 1_555
C2 O4 1_555 1_555
O13 C8 1_555 1_555
C3 O12 1_555 1_555
C4 C1 1_555 1_555
C5 O8 1_555 1_555
C6 O7 1_555 1_555
C7 O6 1_555 1_555
O14 C6 1_555 1_555
C8 O5 1_555 1_555
N1 C10 1_555 1_555
N2 C9 1_555 1_555
N3 C13 1_555 1_555
C9 C12 1_555 1_555
C10 C11 1_555 1_555
C11 N2 1_555 1_555
C12 N1 1_555 1_555
C13 C14B 1_555 1_555
C14 N3 1_555 1_555
Zn1_2 O3_2 1_555 1_555
Zn1_3 O6_2 1_555 1_555
Zn2_2 O10 1_555 1_555
Zn2C O1C 1_555 1_555
O1C C4 1_555 1_555
O1_2 Zn2_2 1_555 1_555
O2C C1 1_555 1_555
O2_2 Zn2_2 1_555 1_555
O3_2 C3_2 1_555 1_555
O4_2 Zn1_2 1_555 1_555
O5_2 Zn1_2 1_555 1_555
O6_2 C7_2 1_555 1_555
O6_3 Zn1_2 1_555 1_555
O7_2 Zn1_2 1_555 1_555
O8_2 Zn1_3 1_555 1_555
O8_3 Zn1_2 1_555 1_555
O9_2 Zn2_2 1_555 1_555
O10_2 Zn2 1_555 1_555
O11_2 Zn2 1_555 1_555
O12_2 Zn2_2 1_555 1_555
C2_2 O4_2 1_555 1_555
O13_2 C8_2 1_555 1_555
C3_2 O12_2 1_555 1_555
C5_2 O8_2 1_555 1_555
C6_2 O7_2 1_555 1_555
C7_2 O10_2 1_555 1_555
O14_2 C6_2 1_555 1_555
C8_2 O5_2 1_555 1_555
N3B C13B 1_555 1_555
C13B C14 1_555 1_555
C14B N3B 1_555 1_555
O9 C2 1_555 1_555
O11 Zn2_2 1_555 1_555
C2 C3 1_555 1_555
C5 C7 1_555 1_555
C6 C8 1_555 1_555
Zn2C O2C 1_555 1_555
O9_2 C2_2 1_555 1_555
O11_2 C5_2 1_555 1_555
C2_2 C3_2 1_555 1_555
C5_2 C7_2 1_555 1_555
C6_2 C8_2 1_555 1_555

#END
