
#######################################################################
#
#                 Cambridge Crystallographic Data Centre
#                                CCDC 
#
#######################################################################
#
# If this CIF has been generated from an entry in the Cambridge 
# Structural Database, then it will include bibliographic, chemical, 
# crystal, experimental, refinement or atomic coordinate data resulting 
# from the CCDC's data processing and validation procedures.
#
#######################################################################

data_MESTAG
_symmetry_cell_setting           triclinic
_symmetry_space_group_name_H-M   'P -1'
_symmetry_Int_Tables_number      2
_space_group_name_Hall           '-P 1'
loop_
_symmetry_equiv_pos_site_id
_symmetry_equiv_pos_as_xyz
1 x,y,z
2 -x,-y,-z
_cell_length_a                   5.8208(9)
_cell_length_b                   7.6266(11)
_cell_length_c                   8.5782(13)
_cell_angle_alpha                88.272(3)
_cell_angle_beta                 73.81
_cell_angle_gamma                86.599(3)
_cell_volume                     365.028
loop_
_atom_site_label
_atom_site_type_symbol
_atom_site_fract_x
_atom_site_fract_y
_atom_site_fract_z
Zn1 Zn -0.91503(12) -0.17532(9) 0.09538(9)
O1 O -1.0285(7) -0.1115(6) 0.3331(5)
O2 O -0.7770(7) 0.0478(5) -0.0354(5)
O3 O -1.0510(7) -0.4160(5) 0.1931(5)
O4 O -1.1448(8) -0.6730(5) 0.1160(5)
O5 O -0.4521(7) 0.2076(5) -0.0926(5)
O6 O -0.7937(8) 0.1057(6) 0.3417(5)
C1 C -0.5643(10) 0.0757(8) -0.0379(7)
C2 C -1.0572(10) -0.5281(8) 0.0891(7)
C3 C -0.9471(11) 0.0004(8) 0.4061(7)
Zn1A Zn -1.08497(12) 0.17532(9) 0.90462(9)
Zn1A_2 Zn -1.08497(12) 0.17532(9) -0.09538(9)
Zn1A_3 Zn -1.08497(12) -0.82468(9) -0.09538(9)
Zn1A_4 Zn -0.08497(12) 0.17532(9) -0.09538(9)
Zn1_2 Zn 0.08497(12) -0.17532(9) 0.09538(9)
O1A O -0.9715(7) 0.1115(6) 0.6669(5)
O2A O -0.2230(7) -0.0478(5) 0.0354(5)
O2A_2 O -1.2230(7) -0.0478(5) 0.0354(5)
O2_2 O -0.7770(7) 0.0478(5) 0.9646(5)
O2A_3 O -1.2230(7) -0.0478(5) 1.0354(5)
O3A O -0.9490(7) -0.5840(5) -0.1931(5)
O3A_2 O -0.9490(7) 0.4160(5) 0.8069(5)
O4A O -0.8552(8) -0.3270(5) -0.1160(5)
O4_2 O -1.1448(8) 0.3270(5) 1.1160(5)
O5A O -0.5479(7) -0.2076(5) 0.0926(5)
O5_2 O -1.4521(7) 0.2076(5) 0.9074(5)
O6A O -1.2063(8) -0.1057(6) 0.6583(5)
C1A C -0.4357(10) -0.0757(8) 0.0379(7)
C2A C -0.9428(10) -0.4719(8) -0.0891(7)
C3A C -1.0529(11) -0.0004(8) 0.5939(7)
N1 N -0.3405(9) -0.3687(7) 0.5077(6)
H1 H -0.2994(9) -0.2800(7) 0.5595(6)
H2 H -0.2265(9) -0.3847(7) 0.4131(6)
C4 C -0.3519(11) -0.5309(9) 0.6081(8)
H3 H -0.4653(11) -0.5114(9) 0.7137(8)
H4 H -0.1958(11) -0.5611(9) 0.6242(8)
C5 C -0.5720(12) -0.3207(9) 0.4743(8)
H5 H -0.6929(12) -0.2943(9) 0.5754(8)
H6 H -0.5567(12) -0.2165(9) 0.4053(8)
N1A N -0.6595(9) -0.6313(7) 0.4923(6)
H1A H -0.7006(9) -0.7200(7) 0.4405(6)
H2A H -0.7735(9) -0.6153(7) 0.5869(6)
C4A C -0.6481(11) -0.4691(9) 0.3919(8)
H3A H -0.5347(11) -0.4886(9) 0.2863(8)
H4A H -0.8042(11) -0.4389(9) 0.3758(8)
C5A C -0.4280(12) -0.6793(9) 0.5257(8)
H5A H -0.3071(12) -0.7057(9) 0.4246(8)
H6A H -0.4433(12) -0.7835(9) 0.5947(8)
loop_
_geom_bond_atom_site_label_1
_geom_bond_atom_site_label_2
_geom_bond_site_symmetry_1
_geom_bond_site_symmetry_2
Zn1 O1 1_555 1_555
O1 C3 1_555 1_555
O2 Zn1 1_555 1_555
O3 Zn1 1_555 1_555
O4 C2 1_555 1_555
O5 C1 1_555 1_555
O6 C3 1_555 1_555
C1 O2 1_555 1_555
C2 O3 1_555 1_555
C3 C3A 1_555 1_555
N1 H1 1_555 1_555
H2 N1 1_555 1_555
C4 N1 1_555 1_555
H3 C4 1_555 1_555
H4 C4 1_555 1_555
C5 N1 1_555 1_555
H5 C5 1_555 1_555
H6 C5 1_555 1_555
Zn1A O1A 1_555 1_555
Zn1A_2 O2 1_555 1_555
Zn1A_3 O4 1_555 1_555
Zn1A_4 O5 1_555 1_555
Zn1_2 O2A 1_555 1_555
O1A C3A 1_555 1_555
O2A Zn1A_4 1_555 1_555
O2A_2 Zn1 1_555 1_555
O2_2 Zn1A 1_555 1_555
O2A_3 Zn1A 1_555 1_555
O3A Zn1A_3 1_555 1_555
O3A_2 Zn1A 1_555 1_555
O4A Zn1 1_555 1_555
O4_2 Zn1A 1_555 1_555
O5A Zn1 1_555 1_555
O5_2 Zn1A 1_555 1_555
O6A C3A 1_555 1_555
C1A C1 1_555 1_555
C2A C2 1_555 1_555
N1A H1A 1_555 1_555
H2A N1A 1_555 1_555
C4A C5 1_555 1_555
H3A C4A 1_555 1_555
H4A C4A 1_555 1_555
C5A C4 1_555 1_555
H5A C5A 1_555 1_555
H6A C5A 1_555 1_555
Zn1A_2 O2A_2 1_555 1_555
O2A C1A 1_555 1_555
O3A C2A 1_555 1_555
O4A C2A 1_555 1_555
O5A C1A 1_555 1_555
N1A C4A 1_555 1_555
N1A C5A 1_555 1_555

#END
