
#######################################################################
#
#                 Cambridge Crystallographic Data Centre
#                                CCDC 
#
#######################################################################
#
# If this CIF has been generated from an entry in the Cambridge 
# Structural Database, then it will include bibliographic, chemical, 
# crystal, experimental, refinement or atomic coordinate data resulting 
# from the CCDC's data processing and validation procedures.
#
#######################################################################

data_MESWEM
_symmetry_cell_setting           monoclinic
_symmetry_space_group_name_H-M   'C 2/m'
_symmetry_Int_Tables_number      12
_space_group_name_Hall           '-C 2y'
loop_
_symmetry_equiv_pos_site_id
_symmetry_equiv_pos_as_xyz
1 x,y,z
2 1/2+x,1/2+y,z
3 x,-y,z
4 1/2+x,1/2-y,z
5 -x,-y,-z
6 1/2-x,1/2-y,-z
7 -x,y,-z
8 1/2-x,1/2+y,-z
_cell_length_a                   17.417(3)
_cell_length_b                   6.7140(10)
_cell_length_c                   11.080(2)
_cell_angle_alpha                90
_cell_angle_beta                 114.60(3)
_cell_angle_gamma                90
_cell_volume                     1178.07
loop_
_atom_site_label
_atom_site_type_symbol
_atom_site_fract_x
_atom_site_fract_y
_atom_site_fract_z
Hg1 Hg 0.34957(2) 0.0000 0.55063(3)
I1 I 0.43625(4) 0.0000 0.81467(5)
I2 I 0.17342(4) 0.0000 0.47040(6)
S1 S 0.40742(14) 0.0000 0.3818(2)
C1 C 0.3225(5) 0.0000 0.2302(8)
N1 N 0.3302(5) 0.0000 0.1141(7)
H1 H 0.3772 0.0000 0.1059
N2 N 0.2407(4) 0.0000 0.2054(7)
H2 H 0.2204 0.0000 0.2640
C2 C 0.2506(5) 0.0000 0.0100(7)
C3 C 0.1932(5) 0.0000 0.0662(9)
C4 C 0.1069(6) 0.0000 -0.0055(9)
H3 H 0.0699 0.0000 0.0355
C5 C 0.0784(6) 0.0000 -0.1432(11)
H4 H 0.0208 0.0000 -0.1973
C6 C 0.1365(6) 0.0000 -0.1996(9)
H5 H 0.1155 0.0000 -0.2917
C7 C 0.2224(6) 0.0000 -0.1289(9)
H6 H 0.2594 0.0000 -0.1698
I2E I 0.32658(4) -0.5000 0.52960(6)
I2E_2 I 0.32658(4) 0.5000 0.52960(6)
Hg1E Hg 0.15043(2) -0.5000 0.44937(3)
Hg1E_2 Hg 0.15043(2) 0.5000 0.44937(3)
loop_
_geom_bond_atom_site_label_1
_geom_bond_atom_site_label_2
_geom_bond_site_symmetry_1
_geom_bond_site_symmetry_2
Hg1 I1 1_555 1_555
I2 Hg1 1_555 1_555
S1 Hg1 1_555 1_555
C1 S1 1_555 1_555
N1 C1 1_555 1_555
H1 N1 1_555 1_555
N2 C1 1_555 1_555
H2 N2 1_555 1_555
C2 N1 1_555 1_555
C3 N2 1_555 1_555
C4 C3 1_555 1_555
H3 C4 1_555 1_555
C5 C4 1_555 1_555
H4 C5 1_555 1_555
C6 C5 1_555 1_555
H5 C6 1_555 1_555
C7 C2 1_555 1_555
H6 C7 1_555 1_555
I2E Hg1 1_555 1_555
I2E_2 Hg1 1_555 1_555
Hg1E I2 1_555 1_555
Hg1E_2 I2 1_555 1_555
C2 C3 1_555 1_555
C6 C7 1_555 1_555
I2E Hg1E 1_555 1_555
I2E_2 Hg1E_2 1_555 1_555

#END
