
#######################################################################
#
#                 Cambridge Crystallographic Data Centre
#                                CCDC 
#
#######################################################################
#
# If this CIF has been generated from an entry in the Cambridge 
# Structural Database, then it will include bibliographic, chemical, 
# crystal, experimental, refinement or atomic coordinate data resulting 
# from the CCDC's data processing and validation procedures.
#
#######################################################################

data_METHHG10
_symmetry_cell_setting           monoclinic
_symmetry_space_group_name_H-M   'P 21/c'
_symmetry_Int_Tables_number      14
_space_group_name_Hall           '-P 2ybc'
loop_
_symmetry_equiv_pos_site_id
_symmetry_equiv_pos_as_xyz
1 x,y,z
2 -x,1/2+y,1/2-z
3 -x,-y,-z
4 x,1/2-y,1/2+z
_cell_length_a                   7.048(9)
_cell_length_b                   5.826(4)
_cell_length_c                   25.323(53)
_cell_angle_alpha                90
_cell_angle_beta                 93.2(2)
_cell_angle_gamma                90
_cell_volume                     1038.18
loop_
_atom_site_label
_atom_site_type_symbol
_atom_site_fract_x
_atom_site_fract_y
_atom_site_fract_z
Hg1 Hg 0.26910 0.38610 0.31964
S1 S 0.29700 0.42500 0.04860
O1 O 0.30000 -0.01800 0.27200
O2 O -0.11100 0.34800 0.29700
N1 N 0.28500 0.42900 0.23900
C1 C 0.20600 0.00800 0.22600
C2 C 0.16900 0.24600 0.20400
C3 C 0.25400 0.23200 0.14500
C4 C 0.21700 0.46000 0.11300
C5 C 0.24000 0.69700 0.01300
C6 C 0.27300 0.38300 0.40300
C1A C -0.20600 0.50800 0.27400
O2A O 0.11100 -0.15200 0.20300
O1A O -0.30000 0.48200 0.22800
C2A C -0.16900 0.74600 0.29600
Hg1A Hg -0.26910 -0.11390 0.18036
Hg1A_2 Hg -0.26910 0.88610 0.18036
N1A N -0.28500 0.92900 0.26100
C3A C -0.25400 0.73200 0.35500
O1A_2 O -0.30000 -0.51800 0.22800
N1A_2 N -0.28500 -0.07100 0.26100
C6A C -0.27300 -0.11700 0.09700
C4A C -0.21700 0.96000 0.38700
S1A S -0.29700 0.92500 0.45140
C5A C -0.24000 1.19700 0.48700
loop_
_geom_bond_atom_site_label_1
_geom_bond_atom_site_label_2
_geom_bond_site_symmetry_1
_geom_bond_site_symmetry_2
Hg1 O1 1_555 1_555
S1 C4 1_555 1_555
O1 C1 1_555 1_555
O2 Hg1 1_555 1_555
N1 Hg1 1_555 1_555
C1 C2 1_555 1_555
C2 N1 1_555 1_555
C3 C2 1_555 1_555
C4 C3 1_555 1_555
C5 S1 1_555 1_555
C6 Hg1 1_555 1_555
C1A O2 1_555 1_555
O2A C1 1_555 1_555
O1A C1A 1_555 1_555
C2A C1A 1_555 1_555
Hg1A O2A 1_555 1_555
Hg1A_2 O1A 1_555 1_555
N1A C2A 1_555 1_555
C3A C2A 1_555 1_555
O1A_2 Hg1A 1_555 1_555
N1A_2 Hg1A 1_555 1_555
C6A Hg1A 1_555 1_555
C4A C3A 1_555 1_555
S1A C4A 1_555 1_555
C5A S1A 1_555 1_555
Hg1A_2 N1A 1_555 1_555

#END
