
#######################################################################
#
#                 Cambridge Crystallographic Data Centre
#                                CCDC 
#
#######################################################################
#
# If this CIF has been generated from an entry in the Cambridge 
# Structural Database, then it will include bibliographic, chemical, 
# crystal, experimental, refinement or atomic coordinate data resulting 
# from the CCDC's data processing and validation procedures.
#
#######################################################################

data_METKEC
_symmetry_cell_setting           rhombohedral
_symmetry_space_group_name_H-M   'R 3'
_symmetry_Int_Tables_number      146
_space_group_name_Hall           'R 3'
loop_
_symmetry_equiv_pos_site_id
_symmetry_equiv_pos_as_xyz
1 x,y,z
2 -y,x-y,z
3 -x+y,-x,z
4 2/3+x,1/3+y,1/3+z
5 2/3-y,1/3+x-y,1/3+z
6 2/3-x+y,1/3-x,1/3+z
7 1/3+x,2/3+y,2/3+z
8 1/3-y,2/3+x-y,2/3+z
9 1/3-x+y,2/3-x,2/3+z
_cell_length_a                   25.1227(18)
_cell_length_b                   25.1227(18)
_cell_length_c                   10.6173(12)
_cell_angle_alpha                90
_cell_angle_beta                 90
_cell_angle_gamma                120.00
_cell_volume                     5803.33
loop_
_atom_site_label
_atom_site_type_symbol
_atom_site_fract_x
_atom_site_fract_y
_atom_site_fract_z
Nd1 Nd 0.530064(9) 1.011941(9) 0.000002(19)
P1 P 0.55349(6) 0.89660(6) 0.16653(11)
P2 P 0.57605(6) 1.14313(6) 0.21095(13)
P3 P 0.45874(6) 1.10221(6) -0.09352(12)
P4 P 0.42904(6) 0.86522(6) -0.14026(12)
O1 O 0.48092(15) 0.98384(15) 0.2154(3)
O2 O 0.56711(17) 0.95015(17) 0.0815(3)
O3 O 0.5183(2) 0.83425(18) 0.0926(4)
H1 H 0.4985 0.8356 0.0289
O4 O 0.60802(19) 0.90047(18) 0.2330(3)
O5 O 0.58571(17) 1.10385(17) 0.1185(4)
O6 O 0.55339(19) 1.18399(17) 0.1564(4)
O7 O 0.6354(2) 1.1841(2) 0.2873(5)
H2 H 0.6572 1.2226 0.2747
O8 O 0.51789(16) 1.01846(16) -0.2198(3)
O9 O 0.46217(16) 1.05436(17) -0.0160(3)
O10 O 0.39055(18) 1.08681(18) -0.1020(4)
H3 H 0.3824 1.1158 -0.1063
O11 O 0.4981(2) 1.16777(18) -0.0447(4)
H4 H 0.5172 1.1715 0.0239
O12 O 0.44162(16) 0.91618(16) -0.0495(3)
O13 O 0.45430(19) 0.82481(17) -0.1033(4)
O14 O 0.35822(18) 0.82739(19) -0.1665(4)
H5 H 0.3384 0.7895 -0.1468
N1 N 0.51466(19) 0.9937(2) 0.3188(4)
N2 N 0.46787(17) 1.00065(19) -0.2885(4)
C1 C 0.5269(2) 0.9494(2) 0.3601(5)
C2 C 0.5654(3) 0.9614(3) 0.4598(5)
H6 H 0.5745 0.9315 0.4860
C3 C 0.5915(3) 1.0175(4) 0.5236(6)
H7 H 0.6182 1.0257 0.5909
C4 C 0.5758(3) 1.0608(3) 0.4821(5)
H8 H 0.5912 1.0981 0.5241
C5 C 0.5376(3) 1.0487(2) 0.3794(4)
C6 C 0.4999(2) 0.8907(2) 0.2861(5)
H9 H 0.4617 0.8829 0.2471
H10 H 0.4909 0.8567 0.3420
C7 C 0.5205(3) 1.0935(3) 0.3277(5)
H11 H 0.5187 1.1184 0.3958
H12 H 0.4801 1.0713 0.2895
C8 C 0.4496(2) 1.0425(2) -0.3145(4)
C9 C 0.4000(3) 1.0249(3) -0.3956(5)
H13 H 0.3855 1.0519 -0.4114
C10 C 0.3723(3) 0.9683(3) -0.4523(6)
H14 H 0.3413 0.9579 -0.5115
C11 C 0.3914(3) 0.9262(3) -0.4197(5)
H15 H 0.3717 0.8870 -0.4543
C12 C 0.4390(2) 0.9429(2) -0.3371(4)
C13 C 0.4835(3) 1.1035(2) -0.2531(5)
H16 H 0.4776 1.1329 -0.3014
H17 H 0.5271 1.1171 -0.2533
C14 C 0.4599(3) 0.8993(3) -0.2929(5)
H18 H 0.5044 0.9213 -0.2884
H19 H 0.4476 0.8668 -0.3545
Nd1D Nd 0.654726(9) 0.851456(13) 0.333335(19)
O4H O 0.62578(26) 1.05865(19) -0.1003(3)
O15 O 0.2980(3) 0.7133(3) -0.1071(11)
H20 H 0.2599 0.6869 -0.1063
H21 H 0.3300 0.7099 -0.1078
O16 O 0.6983(9) 1.2859(9) 0.1799(19)
H22 H 0.7358 1.3127 0.1680
H23 H 0.6672 1.2905 0.1736
loop_
_geom_bond_atom_site_label_1
_geom_bond_atom_site_label_2
_geom_bond_site_symmetry_1
_geom_bond_site_symmetry_2
Nd1 O1 1_555 1_555
P1 O2 1_555 1_555
P2 O5 1_555 1_555
P3 O9 1_555 1_555
P4 O12 1_555 1_555
O1 N1 1_555 1_555
O2 Nd1 1_555 1_555
O3 P1 1_555 1_555
H1 O3 1_555 1_555
O4 P1 1_555 1_555
O5 Nd1 1_555 1_555
O6 P2 1_555 1_555
O7 P2 1_555 1_555
H2 O7 1_555 1_555
O8 Nd1 1_555 1_555
O9 Nd1 1_555 1_555
O10 P3 1_555 1_555
H3 O10 1_555 1_555
O11 P3 1_555 1_555
H4 O11 1_555 1_555
O12 Nd1 1_555 1_555
O13 P4 1_555 1_555
O14 P4 1_555 1_555
H5 O14 1_555 1_555
N1 C1 1_555 1_555
N2 O8 1_555 1_555
C1 C2 1_555 1_555
C2 H6 1_555 1_555
C3 C2 1_555 1_555
H7 C3 1_555 1_555
C4 C3 1_555 1_555
H8 C4 1_555 1_555
C5 N1 1_555 1_555
C6 P1 1_555 1_555
H9 C6 1_555 1_555
H10 C6 1_555 1_555
C7 P2 1_555 1_555
H11 C7 1_555 1_555
H12 C7 1_555 1_555
C8 N2 1_555 1_555
C9 C8 1_555 1_555
H13 C9 1_555 1_555
C10 C9 1_555 1_555
H14 C10 1_555 1_555
C11 C10 1_555 1_555
H15 C11 1_555 1_555
C12 N2 1_555 1_555
C13 P3 1_555 1_555
H16 C13 1_555 1_555
H17 C13 1_555 1_555
C14 P4 1_555 1_555
H18 C14 1_555 1_555
H19 C14 1_555 1_555
O15 H20 1_555 1_555
H21 O15 1_555 1_555
O16 H22 1_555 1_555
H23 O16 1_555 1_555
Nd1D O4 1_555 1_555
O4H Nd1 1_555 1_555
C1 C6 1_555 1_555
C4 C5 1_555 1_555
C5 C7 1_555 1_555
C8 C13 1_555 1_555
C11 C12 1_555 1_555
C12 C14 1_555 1_555

#END
