
#######################################################################
#
#                 Cambridge Crystallographic Data Centre
#                                CCDC 
#
#######################################################################
#
# If this CIF has been generated from an entry in the Cambridge 
# Structural Database, then it will include bibliographic, chemical, 
# crystal, experimental, refinement or atomic coordinate data resulting 
# from the CCDC's data processing and validation procedures.
#
#######################################################################

data_METLOM
_symmetry_cell_setting           monoclinic
_symmetry_space_group_name_H-M   'C 2/c'
_symmetry_Int_Tables_number      15
_space_group_name_Hall           '-C 2yn'
loop_
_symmetry_equiv_pos_site_id
_symmetry_equiv_pos_as_xyz
1 x,y,z
2 1/2+x,1/2+y,z
3 x,-y,1/2+z
4 1/2+x,1/2-y,1/2+z
5 -x,-y,-z
6 1/2-x,1/2-y,-z
7 -x,y,1/2-z
8 1/2-x,1/2+y,1/2-z
_cell_length_a                   23.068(5)
_cell_length_b                   9.5315(19)
_cell_length_c                   20.497(4)
_cell_angle_alpha                90
_cell_angle_beta                 101.43(3)
_cell_angle_gamma                90
_cell_volume                     4417.35
loop_
_atom_site_label
_atom_site_type_symbol
_atom_site_fract_x
_atom_site_fract_y
_atom_site_fract_z
Sn1 Sn 0.17906(4) 0.25108(9) 0.52205(4)
Te1 Te 0.08585(4) 0.36244(11) 0.44695(5)
Te2 Te 0.15480(5) 0.14154(11) 0.62946(5)
Se1 Se 0.23331(7) 0.07159(18) 0.45641(9)
Se1E Se 0.26669(7) 0.42841(18) 0.54359(9)
Sn1E Sn 0.32094(4) 0.24892(9) 0.47795(4)
N1 N 0.2595(5) 0.1559(11) 0.7878(6)
H1 H 0.2283 0.1165 0.7606
H2 H 0.2627 0.1159 0.8281
N2 N 0.3918(5) -0.0086(12) 0.8233(6)
H3 H 0.3914 0.0265 0.8640
H4 H 0.3785 -0.0975 0.8222
N3 N 0.3655(5) 0.2884(12) 0.7058(6)
H5 H 0.3326 0.3356 0.6871
H6 H 0.3806 0.2541 0.6718
N4 N 0.1899(5) 0.4929(11) 0.8344(5)
H7 H 0.2235 0.5310 0.8574
H8 H 0.1620 0.5057 0.8591
N5 N 0.4501(5) 0.6202(13) 0.4704(6)
H9 H 0.4363 0.5349 0.4562
H10 H 0.4878 0.6285 0.4654
N6 N 0.4386(6) 0.4933(13) 0.6338(6)
H11 H 0.4758 0.4621 0.6483
H12 H 0.4181 0.4226 0.6110
N7 N 0.4938(5) -0.1858(12) 0.9014(5)
H13 H 0.5033 -0.1103 0.9277
H14 H 0.4585 -0.2170 0.9075
N8 N 0.3621(6) 0.7574(12) 0.5294(6)
H15 H 0.3641 0.8492 0.5398
H16 H 0.3321 0.7183 0.5452
C1 C 0.3546(7) 0.7366(14) 0.4576(7)
H17 H 0.3339 0.6490 0.4455
H18 H 0.3305 0.8119 0.4347
C2 C 0.4125(6) 0.7334(15) 0.4353(7)
H19 H 0.4324 0.8229 0.4447
H20 H 0.4059 0.7175 0.3876
C3 C 0.2475(6) 0.3075(14) 0.7939(6)
H21 H 0.2366 0.3470 0.7495
H22 H 0.2837 0.3532 0.8159
C4 C 0.1999(6) 0.3410(15) 0.8312(7)
H23 H 0.1635 0.2957 0.8097
H24 H 0.2108 0.3039 0.8761
C5 C 0.4882(7) -0.1432(16) 0.8338(7)
H25 H 0.5277 -0.1299 0.8251
H26 H 0.4702 -0.2197 0.8057
C6 C 0.4520(6) -0.0081(15) 0.8120(7)
H27 H 0.4507 0.0066 0.7649
H28 H 0.4728 0.0709 0.8356
C7 C 0.4064(8) 0.3932(17) 0.7358(8)
H29 H 0.4448 0.3496 0.7498
H30 H 0.3939 0.4272 0.7754
C8 C 0.4134(9) 0.5207(16) 0.6912(8)
H31 H 0.4378 0.5900 0.7184
H32 H 0.3747 0.5623 0.6761
Li1 Li 0.3352(9) 0.110(2) 0.7517(10)
Li2 Li 0.4423(11) 0.656(3) 0.5675(12)
Li1G Li 0.1648(9) 0.610(2) 0.7483(10)
Li2F Li 0.5577(11) -0.344(3) 0.9325(12)
N4G N 0.3101(5) -0.0071(11) 0.6656(5)
N7F N 0.5062(5) 0.8142(12) 0.5986(5)
H7G H 0.2765 0.0310 0.6426
H8G H 0.3380 0.0057 0.6409
H13F H 0.4967 0.8897 0.5723
H14F H 0.5415 0.7830 0.5925
loop_
_geom_bond_atom_site_label_1
_geom_bond_atom_site_label_2
_geom_bond_site_symmetry_1
_geom_bond_site_symmetry_2
Sn1 Te1 1_555 1_555
Te2 Sn1 1_555 1_555
Se1 Sn1 1_555 1_555
N1 H1 1_555 1_555
H2 N1 1_555 1_555
N2 H3 1_555 1_555
H4 N2 1_555 1_555
N3 H5 1_555 1_555
H6 N3 1_555 1_555
N4 H7 1_555 1_555
H8 N4 1_555 1_555
N5 H9 1_555 1_555
H10 N5 1_555 1_555
N6 H11 1_555 1_555
H12 N6 1_555 1_555
N7 H13 1_555 1_555
H14 N7 1_555 1_555
N8 H15 1_555 1_555
H16 N8 1_555 1_555
C1 N8 1_555 1_555
H17 C1 1_555 1_555
H18 C1 1_555 1_555
C2 N5 1_555 1_555
H19 C2 1_555 1_555
H20 C2 1_555 1_555
C3 N1 1_555 1_555
H21 C3 1_555 1_555
H22 C3 1_555 1_555
C4 N4 1_555 1_555
H23 C4 1_555 1_555
H24 C4 1_555 1_555
C5 N7 1_555 1_555
H25 C5 1_555 1_555
H26 C5 1_555 1_555
C6 N2 1_555 1_555
H27 C6 1_555 1_555
H28 C6 1_555 1_555
C7 N3 1_555 1_555
H29 C7 1_555 1_555
H30 C7 1_555 1_555
C8 N6 1_555 1_555
H31 C8 1_555 1_555
H32 C8 1_555 1_555
Li1 N1 1_555 1_555
Li2 N5 1_555 1_555
Se1E Sn1 1_555 1_555
Sn1E Se1 1_555 1_555
Li1G N4 1_555 1_555
Li2F N7 1_555 1_555
N4G Li1 1_555 1_555
N7F Li2 1_555 1_555
H7G N4G 1_555 1_555
H8G N4G 1_555 1_555
H13F N7F 1_555 1_555
H14F N7F 1_555 1_555
N2 Li1 1_555 1_555
N3 Li1 1_555 1_555
N6 Li2 1_555 1_555
N8 Li2 1_555 1_555
C1 C2 1_555 1_555
C3 C4 1_555 1_555
C5 C6 1_555 1_555
C7 C8 1_555 1_555
Se1E Sn1E 1_555 1_555

#END
