
#######################################################################
#
#                 Cambridge Crystallographic Data Centre
#                                CCDC 
#
#######################################################################
#
# If this CIF has been generated from an entry in the Cambridge 
# Structural Database, then it will include bibliographic, chemical, 
# crystal, experimental, refinement or atomic coordinate data resulting 
# from the CCDC's data processing and validation procedures.
#
#######################################################################

data_METLIG
_symmetry_cell_setting           monoclinic
_symmetry_space_group_name_H-M   'C 2/c'
_symmetry_Int_Tables_number      15
_space_group_name_Hall           '-C 2yn'
loop_
_symmetry_equiv_pos_site_id
_symmetry_equiv_pos_as_xyz
1 x,y,z
2 1/2+x,1/2+y,z
3 x,-y,1/2+z
4 1/2+x,1/2-y,1/2+z
5 -x,-y,-z
6 1/2-x,1/2-y,-z
7 -x,y,1/2-z
8 1/2-x,1/2+y,1/2-z
_cell_length_a                   23.713(2)
_cell_length_b                   9.6760(13)
_cell_length_c                   20.5540(16)
_cell_angle_alpha                90
_cell_angle_beta                 100.65(6)
_cell_angle_gamma                90
_cell_volume                     4634.82
loop_
_atom_site_label
_atom_site_type_symbol
_atom_site_fract_x
_atom_site_fract_y
_atom_site_fract_z
Sn1 Sn 0.17549(2) 0.75240(5) 0.02317(2)
Te1 Te 0.08291(2) 0.64337(5) -0.05546(2)
Te2 Te 0.15033(2) 0.86359(5) 0.13350(2)
Te3 Te 0.26536(2) 0.55822(5) 0.04497(3)
Te3E Te 0.23464(2) 0.94178(5) -0.04497(3)
Sn1E Sn 0.32451(2) 0.74760(5) -0.02317(2)
N1 N 0.4926(2) 0.1780(6) 0.3989(3)
H2 H 0.4629 0.1700 0.4203
N2 N 0.6329(3) 0.2379(6) 0.4665(3)
H3 H 0.6617 0.2765 0.4499
H4 H 0.6318 0.1469 0.4574
N3 N 0.4387(3) -0.4966(7) 0.1378(3)
H6 H 0.4742 -0.5318 0.1414
N4 N 0.5479(2) 0.3759(6) 0.5248(3)
H7 H 0.5114 0.3689 0.5307
H8 H 0.5614 0.4607 0.5370
N5 N 0.3084(3) 0.0028(6) 0.1674(3)
H9 H 0.3342 -0.0101 0.1409
H10 H 0.2754 -0.0354 0.1464
N6 N 0.2380(2) 0.3332(6) 0.2109(3)
H11 H 0.2347 0.3693 0.1701
H12 H 0.2679 0.3749 0.2368
N7 N 0.3674(3) -0.2925(6) 0.2089(3)
H13 H 0.3361 -0.3436 0.1931
H14 H 0.3799 -0.2601 0.1731
N8 N 0.3921(2) 0.0035(6) 0.3217(3)
H15 H 0.3795 0.0914 0.3190
H16 H 0.3911 -0.0272 0.3627
C1 C 0.6408(3) 0.2609(8) 0.5383(4)
H17 H 0.6635 0.1865 0.5615
H18 H 0.6613 0.3469 0.5494
C2 C 0.2510(3) 0.1847(7) 0.2072(4)
H19 H 0.2165 0.1365 0.1866
H20 H 0.2621 0.1494 0.2518
C3 C 0.4102(4) -0.3904(8) 0.2385(4)
H21 H 0.4008 -0.4202 0.2802
H22 H 0.4468 -0.3429 0.2485
C4 C 0.5840(3) 0.2672(8) 0.5601(4)
H23 H 0.5900 0.2849 0.6073
H24 H 0.5648 0.1789 0.5519
C5 C 0.4512(3) 0.0011(8) 0.3113(4)
H25 H 0.4509 -0.0171 0.2648
H26 H 0.4708 -0.0753 0.3362
C6 C 0.4176(4) -0.5185(8) 0.1978(4)
H27 H 0.4436 -0.5810 0.2254
H28 H 0.3807 -0.5647 0.1868
C7 C 0.2982(3) 0.1521(8) 0.1690(4)
H29 H 0.2875 0.1863 0.1241
H30 H 0.3332 0.1986 0.1896
C8 C 0.4864(3) 0.1348(8) 0.3312(4)
H31 H 0.5244 0.1216 0.3212
H32 H 0.4684 0.2094 0.3035
Li1 Li 0.5557(5) 0.3307(13) 0.4272(6)
Li2 Li 0.3363(5) -0.1181(13) 0.2525(6)
Li2G Li 0.1637(5) 0.3819(13) 0.2475(6)
N6G N 0.2620(2) -0.1668(6) 0.2891(3)
H11G H 0.2653 -0.1307 0.3299
H12G H 0.2321 -0.1251 0.2632
H1? H 0.5278 0.1896 0.4235
H5? H 0.4157 -0.5388 0.1038
loop_
_geom_bond_atom_site_label_1
_geom_bond_atom_site_label_2
_geom_bond_site_symmetry_1
_geom_bond_site_symmetry_2
Sn1 Te1 1_555 1_555
Te2 Sn1 1_555 1_555
Te3 Sn1 1_555 1_555
N1 H2 1_555 1_555
N2 H3 1_555 1_555
H4 N2 1_555 1_555
N3 H6 1_555 1_555
N4 H7 1_555 1_555
H8 N4 1_555 1_555
N5 H9 1_555 1_555
H10 N5 1_555 1_555
N6 H11 1_555 1_555
H12 N6 1_555 1_555
N7 H13 1_555 1_555
H14 N7 1_555 1_555
N8 H15 1_555 1_555
H16 N8 1_555 1_555
C1 N2 1_555 1_555
H17 C1 1_555 1_555
H18 C1 1_555 1_555
C2 N6 1_555 1_555
H19 C2 1_555 1_555
H20 C2 1_555 1_555
C3 N7 1_555 1_555
H21 C3 1_555 1_555
H22 C3 1_555 1_555
C4 N4 1_555 1_555
H23 C4 1_555 1_555
H24 C4 1_555 1_555
C5 N8 1_555 1_555
H25 C5 1_555 1_555
H26 C5 1_555 1_555
C6 N3 1_555 1_555
H27 C6 1_555 1_555
H28 C6 1_555 1_555
C7 N5 1_555 1_555
H29 C7 1_555 1_555
H30 C7 1_555 1_555
C8 N1 1_555 1_555
H31 C8 1_555 1_555
H32 C8 1_555 1_555
Li1 N1 1_555 1_555
Li2 N5 1_555 1_555
Te3E Sn1 1_555 1_555
Sn1E Te3 1_555 1_555
Li2G N6 1_555 1_555
N6G Li2 1_555 1_555
H11G N6G 1_555 1_555
H12G N6G 1_555 1_555
N2 Li1 1_555 1_555
N4 Li1 1_555 1_555
N7 Li2 1_555 1_555
N8 Li2 1_555 1_555
C1 C4 1_555 1_555
C2 C7 1_555 1_555
C3 C6 1_555 1_555
C5 C8 1_555 1_555
Te3E Sn1E 1_555 1_555

#END
