
#######################################################################
#
#                 Cambridge Crystallographic Data Centre
#                                CCDC 
#
#######################################################################
#
# If this CIF has been generated from an entry in the Cambridge 
# Structural Database, then it will include bibliographic, chemical, 
# crystal, experimental, refinement or atomic coordinate data resulting 
# from the CCDC's data processing and validation procedures.
#
#######################################################################

data_METMAZ
_symmetry_cell_setting           monoclinic
_symmetry_space_group_name_H-M   'C 2/c'
_symmetry_Int_Tables_number      15
_space_group_name_Hall           '-C 2yn'
loop_
_symmetry_equiv_pos_site_id
_symmetry_equiv_pos_as_xyz
1 x,y,z
2 1/2+x,1/2+y,z
3 x,-y,1/2+z
4 1/2+x,1/2-y,1/2+z
5 -x,-y,-z
6 1/2-x,1/2-y,-z
7 -x,y,1/2-z
8 1/2-x,1/2+y,1/2-z
_cell_length_a                   22.1038(14)
_cell_length_b                   9.2765(5)
_cell_length_c                   20.0282(11)
_cell_angle_alpha                90
_cell_angle_beta                 101.706(7)
_cell_angle_gamma                90
_cell_volume                     4021.29
loop_
_atom_site_label
_atom_site_type_symbol
_atom_site_fract_x
_atom_site_fract_y
_atom_site_fract_z
Sn1 Sn 0.321757(8) 0.24723(2) -0.020001(9)
S1 S 0.40761(3) 0.14629(9) 0.05228(4)
S2 S 0.34326(4) 0.34572(9) -0.11971(4)
S3 S 0.23320(3) 0.08051(8) -0.04097(4)
S3E S 0.26680(3) 0.41949(8) 0.04097(4)
Sn1E Sn 0.178243(8) 0.25277(2) 0.020001(9)
Li1 Li 0.3322(2) -0.1113(5) -0.2538(3)
Li2 Li 0.4419(2) -0.6602(6) -0.4389(3)
N1 N 0.30743(14) 0.0027(3) -0.34249(14)
H1 H 0.3314(15) -0.011(4) -0.3689(17)
H2 H 0.2721(17) -0.032(4) -0.3625(18)
C1 C 0.30227(16) 0.1582(4) -0.33296(19)
H3 H 0.3417(16) 0.195(4) -0.3090(17)
H4 H 0.2918(15) 0.205(4) -0.3707(19)
C2 C 0.25476(15) 0.1909(3) -0.29097(17)
H5 H 0.2672(14) 0.150(4) -0.2475(18)
H6 H 0.2169(16) 0.155(4) -0.3143(18)
N2 N 0.24705(13) 0.3453(3) -0.27954(16)
H7 H 0.2760(17) 0.371(4) -0.247(2)
H8 H 0.2489(15) 0.390(4) -0.3141(19)
N3 N 0.36508(15) -0.2884(3) -0.29788(16)
H9 H 0.384(2) -0.259(4) -0.326(2)
H10 H 0.3322(19) -0.325(5) -0.323(2)
C3 C 0.40340(18) -0.4064(4) -0.26659(18)
H11 H 0.387(2) -0.439(5) -0.233(2)
H12 H 0.4437(17) -0.362(4) -0.2494(18)
C4 C 0.41263(19) -0.5277(4) -0.31357(19)
H13 H 0.4318(17) -0.601(4) -0.2870(19)
H14 H 0.375(2) -0.555(5) -0.342(2)
N4 N 0.44378(17) -0.4928(3) -0.36884(17)
H15 H 0.422(2) -0.440(5) -0.391(2)
H16 H 0.481(3) -0.470(6) -0.345(3)
N5 N 0.44828(16) -0.6124(4) -0.53600(16)
H17 H 0.4331(19) -0.542(5) -0.552(2)
H18 H 0.4809(18) -0.622(4) -0.546(2)
C5 C 0.41175(17) -0.7299(4) -0.57205(17)
H19 H 0.4025(15) -0.717(3) -0.6200(19)
H20 H 0.4338(18) -0.810(5) -0.562(2)
C6 C 0.35061(15) -0.7389(4) -0.55030(17)
H21 H 0.3312(15) -0.648(4) -0.5573(18)
H22 H 0.3287(16) -0.811(4) -0.5726(19)
N6 N 0.36012(15) -0.7623(4) -0.47674(16)
H23 H 0.330(2) -0.734(4) -0.468(2)
H24 H 0.3644(19) -0.849(5) -0.472(2)
N7 N 0.49509(15) 0.1770(4) -0.09078(15)
H25 H 0.4642(18) 0.195(4) -0.0822(19)
H26 H 0.514(2) 0.103(5) -0.072(2)
C7 C 0.48806(18) 0.1465(4) -0.16218(18)
H27 H 0.4683(18) 0.218(4) -0.186(2)
H28 H 0.5274(18) 0.139(4) -0.177(2)
C8 C 0.45094(16) 0.0128(4) -0.1880(2)
H29 H 0.4484(18) 0.006(5) -0.231(2)
H30 H 0.4701(18) -0.064(5) -0.169(2)
N8 N 0.38744(13) 0.0130(3) -0.17884(17)
H31 H 0.389(2) -0.013(5) -0.141(2)
H32 H 0.3742(17) 0.100(5) -0.182(2)
N2G N 0.25295(13) -0.1547(3) -0.22046(16)
N7F N 0.50491(15) -0.8230(4) -0.40922(15)
Li1G Li 0.1678(2) 0.3887(5) -0.2462(3)
Li2F Li 0.5581(2) 0.3398(6) -0.0611(3)
H7G H 0.2240(17) -0.129(4) -0.253(2)
H8G H 0.2511(15) -0.110(4) -0.1859(19)
H25F H 0.5358(18) -0.805(4) -0.4178(19)
H26F H 0.486(2) -0.897(5) -0.428(2)
loop_
_geom_bond_atom_site_label_1
_geom_bond_atom_site_label_2
_geom_bond_site_symmetry_1
_geom_bond_site_symmetry_2
Sn1 S1 1_555 1_555
S2 Sn1 1_555 1_555
S3 Sn1 1_555 1_555
Li1 N1 1_555 1_555
Li2 N4 1_555 1_555
N1 H1 1_555 1_555
H2 N1 1_555 1_555
C1 N1 1_555 1_555
H3 C1 1_555 1_555
H4 C1 1_555 1_555
C2 C1 1_555 1_555
H5 C2 1_555 1_555
H6 C2 1_555 1_555
N2 C2 1_555 1_555
H7 N2 1_555 1_555
H8 N2 1_555 1_555
N3 Li1 1_555 1_555
H9 N3 1_555 1_555
H10 N3 1_555 1_555
C3 N3 1_555 1_555
H11 C3 1_555 1_555
H12 C3 1_555 1_555
C4 C3 1_555 1_555
H13 C4 1_555 1_555
H14 C4 1_555 1_555
N4 C4 1_555 1_555
H15 N4 1_555 1_555
H16 N4 1_555 1_555
N5 Li2 1_555 1_555
H17 N5 1_555 1_555
H18 N5 1_555 1_555
C5 N5 1_555 1_555
H19 C5 1_555 1_555
H20 C5 1_555 1_555
C6 C5 1_555 1_555
H21 C6 1_555 1_555
H22 C6 1_555 1_555
N6 Li2 1_555 1_555
H23 N6 1_555 1_555
H24 N6 1_555 1_555
N7 H25 1_555 1_555
H26 N7 1_555 1_555
C7 N7 1_555 1_555
H27 C7 1_555 1_555
H28 C7 1_555 1_555
C8 C7 1_555 1_555
H29 C8 1_555 1_555
H30 C8 1_555 1_555
N8 Li1 1_555 1_555
H31 N8 1_555 1_555
H32 N8 1_555 1_555
S3E Sn1 1_555 1_555
Sn1E S3 1_555 1_555
N2G Li1 1_555 1_555
N7F Li2 1_555 1_555
Li1G N2 1_555 1_555
Li2F N7 1_555 1_555
H7G N2G 1_555 1_555
H8G N2G 1_555 1_555
H25F N7F 1_555 1_555
H26F N7F 1_555 1_555
C6 N6 1_555 1_555
C8 N8 1_555 1_555
S3E Sn1E 1_555 1_555

#END
