
#######################################################################
#
#                 Cambridge Crystallographic Data Centre
#                                CCDC 
#
#######################################################################
#
# If this CIF has been generated from an entry in the Cambridge 
# Structural Database, then it will include bibliographic, chemical, 
# crystal, experimental, refinement or atomic coordinate data resulting 
# from the CCDC's data processing and validation procedures.
#
#######################################################################

data_METMUT
_symmetry_cell_setting           monoclinic
_symmetry_space_group_name_H-M   'C 2/c'
_symmetry_Int_Tables_number      15
_space_group_name_Hall           '-C 2yn'
loop_
_symmetry_equiv_pos_site_id
_symmetry_equiv_pos_as_xyz
1 x,y,z
2 1/2+x,1/2+y,z
3 x,-y,1/2+z
4 1/2+x,1/2-y,1/2+z
5 -x,-y,-z
6 1/2-x,1/2-y,-z
7 -x,y,1/2-z
8 1/2-x,1/2+y,1/2-z
_cell_length_a                   21.164(2)
_cell_length_b                   11.4128(9)
_cell_length_c                   12.6597(10)
_cell_angle_alpha                90.00
_cell_angle_beta                 101.2060(10)
_cell_angle_gamma                90.00
_cell_volume                     2999.53
loop_
_atom_site_label
_atom_site_type_symbol
_atom_site_fract_x
_atom_site_fract_y
_atom_site_fract_z
Ni1 Ni 0.5000 0.18458(4) 0.2500
O1 O 0.52260(9) 0.1859(2) 0.09506(15)
O2 O 0.60651(14) 0.1041(2) 0.0553(3)
O3 O 0.59265(13) 0.2863(3) 0.0347(3)
N1 N 0.57537(12) 0.1907(2) 0.0608(2)
N2 N 0.59556(10) 0.1955(2) 0.3346(2)
N3 N 0.5000 -0.0043(3) 0.2500
N4 N 0.5000 -0.6284(3) 0.2500
C1 C 0.63693(13) 0.2738(2) 0.3076(2)
H1 H 0.62446(13) 0.3148(2) 0.2434(2)
C2 C 0.69666(13) 0.2973(2) 0.3690(2)
H2 H 0.72297(13) 0.3531(2) 0.3459(2)
C3 C 0.71798(12) 0.2383(2) 0.4654(2)
C4 C 0.67521(12) 0.1555(2) 0.4929(2)
H3 H 0.68668(12) 0.1128(2) 0.5563(2)
C5 C 0.61631(12) 0.1368(2) 0.4271(2)
H4 H 0.58934(12) 0.0804(2) 0.4475(2)
C6 C 0.52109(14) -0.0674(2) 0.1737(2)
H5 H 0.53583(14) -0.0271(2) 0.1195(2)
C7 C 0.52211(14) -0.1886(2) 0.1714(2)
H6 H 0.53763(14) -0.2272(2) 0.1170(2)
C8 C 0.5000 -0.2529(3) 0.2500
C9 C 0.5000 -0.3829(3) 0.2500
C10 C 0.48364(14) -0.4457(2) 0.1546(2)
H7 H 0.47246(14) -0.4068(2) 0.0891(2)
C11 C 0.48414(14) -0.5666(2) 0.1582(2)
H8 H 0.47292(14) -0.6075(2) 0.0938(2)
C3E C 0.78202(12) 0.2617(2) 0.5346(2)
C2E C 0.80334(13) 0.2027(2) 0.6310(2)
C1E C 0.86307(13) 0.2262(2) 0.6924(2)
N2E N 0.90444(10) 0.3045(2) 0.6654(2)
C5E C 0.88369(12) 0.3632(2) 0.5729(2)
C4E C 0.82479(12) 0.3445(2) 0.5071(2)
H3E H 0.81332(12) 0.3872(2) 0.4437(2)
H4E H 0.91066(12) 0.4196(2) 0.5525(2)
H1E H 0.87554(13) 0.1852(2) 0.7566(2)
H2E H 0.77703(13) 0.1469(2) 0.6541(2)
C7F C 0.47789(14) -0.1886(2) 0.3286(2)
C6F C 0.47891(14) -0.0674(2) 0.3263(2)
H5F H 0.46417(14) -0.0271(2) 0.3805(2)
H6F H 0.46237(14) -0.2272(2) 0.3830(2)
C11F C 0.51586(14) -0.5666(2) 0.3418(2)
C10F C 0.51636(14) -0.4457(2) 0.3454(2)
H7F H 0.52754(14) -0.4068(2) 0.4109(2)
H8F H 0.52708(14) -0.6075(2) 0.4062(2)
O1F O 0.47740(9) 0.1859(2) 0.40494(15)
O2F O 0.39349(14) 0.1041(2) 0.4447(3)
O3F O 0.40735(13) 0.2863(3) 0.4653(3)
N1F N 0.42463(12) 0.1907(2) 0.4392(2)
N2F N 0.40444(10) 0.1955(2) 0.1654(2)
N4_2 N 0.5000 0.3716(3) 0.2500
Ni1_2 Ni 0.5000 -0.81542(4) 0.2500
Ni1C Ni 1.0000 0.31542(4) 0.7500
C12 C 0.7968(3) -0.0398(4) 0.4078(3)
H9 H 0.8129(3) -0.0808(4) 0.4708(3)
C13 C 0.7328(2) -0.0537(3) 0.3571(4)
H10 H 0.7061(4) -0.1040(4) 0.3861(6)
C14 C 0.70878(14) 0.0076(4) 0.2629(4)
H11 H 0.66598(15) -0.0017(5) 0.2290(5)
C15 C 0.7487(2) 0.0827(3) 0.2195(3)
H12 H 0.7326(3) 0.1237(5) 0.1565(3)
C16 C 0.8127(2) 0.0966(3) 0.2702(4)
H13 H 0.8394(3) 0.1469(4) 0.2412(6)
C17 C 0.8367(2) 0.0353(5) 0.3644(4)
H14 H 0.8795(2) 0.0446(6) 0.3983(6)
loop_
_geom_bond_atom_site_label_1
_geom_bond_atom_site_label_2
_geom_bond_site_symmetry_1
_geom_bond_site_symmetry_2
Ni1 O1 1_555 1_555
O1 N1 1_555 1_555
O2 N1 1_555 1_555
O3 N1 1_555 1_555
N2 Ni1 1_555 1_555
N3 Ni1 1_555 1_555
N4 C11 1_555 1_555
C1 N2 1_555 1_555
H1 C1 1_555 1_555
C2 C1 1_555 1_555
H2 C2 1_555 1_555
C3 C2 1_555 1_555
C4 C3 1_555 1_555
H3 C4 1_555 1_555
C5 N2 1_555 1_555
H4 C5 1_555 1_555
C6 N3 1_555 1_555
H5 C6 1_555 1_555
C7 C6 1_555 1_555
H6 C7 1_555 1_555
C8 C7 1_555 1_555
C9 C8 1_555 1_555
C10 C9 1_555 1_555
H7 C10 1_555 1_555
C11 C10 1_555 1_555
H8 C11 1_555 1_555
C12 H9 1_555 1_555
C13 C12 1_555 1_555
H10 C13 1_555 1_555
C14 C13 1_555 1_555
H11 C14 1_555 1_555
C15 C14 1_555 1_555
H12 C15 1_555 1_555
C16 C15 1_555 1_555
H13 C16 1_555 1_555
C17 C12 1_555 1_555
H14 C17 1_555 1_555
C3E C3 1_555 1_555
C2E C3E 1_555 1_555
C1E C2E 1_555 1_555
N2E C1E 1_555 1_555
C5E N2E 1_555 1_555
C4E C3E 1_555 1_555
H3E C4E 1_555 1_555
H4E C5E 1_555 1_555
H1E C1E 1_555 1_555
H2E C2E 1_555 1_555
C7F C8 1_555 1_555
C6F N3 1_555 1_555
H5F C6F 1_555 1_555
H6F C7F 1_555 1_555
C11F N4 1_555 1_555
C10F C9 1_555 1_555
H7F C10F 1_555 1_555
H8F C11F 1_555 1_555
O1F Ni1 1_555 1_555
O2F N1F 1_555 1_555
O3F N1F 1_555 1_555
N1F O1F 1_555 1_555
N2F Ni1 1_555 1_555
N4_2 Ni1 1_555 1_555
Ni1_2 N4 1_555 1_555
Ni1C N2E 1_555 1_555
C4 C5 1_555 1_555
C16 C17 1_555 1_555
C5E C4E 1_555 1_555
C7F C6F 1_555 1_555
C11F C10F 1_555 1_555

#END
