
#######################################################################
#
#                 Cambridge Crystallographic Data Centre
#                                CCDC 
#
#######################################################################
#
# If this CIF has been generated from an entry in the Cambridge 
# Structural Database, then it will include bibliographic, chemical, 
# crystal, experimental, refinement or atomic coordinate data resulting 
# from the CCDC's data processing and validation procedures.
#
#######################################################################

data_METMON
_symmetry_cell_setting           monoclinic
_symmetry_space_group_name_H-M   'C 2/c'
_symmetry_Int_Tables_number      15
_space_group_name_Hall           '-C 2yn'
loop_
_symmetry_equiv_pos_site_id
_symmetry_equiv_pos_as_xyz
1 x,y,z
2 1/2+x,1/2+y,z
3 x,-y,1/2+z
4 1/2+x,1/2-y,1/2+z
5 -x,-y,-z
6 1/2-x,1/2-y,-z
7 -x,y,1/2-z
8 1/2-x,1/2+y,1/2-z
_cell_length_a                   21.5155(17)
_cell_length_b                   11.4059(9)
_cell_length_c                   13.3137(10)
_cell_angle_alpha                90
_cell_angle_beta                 103.2940(10)
_cell_angle_gamma                90
_cell_volume                     3179.68
loop_
_atom_site_label
_atom_site_type_symbol
_atom_site_fract_x
_atom_site_fract_y
_atom_site_fract_z
Ni1 Ni 0.00000 0.31022(22) 0.75000
O1 O -0.0213(5) 0.3066(9) 0.8970(7)
O2 O -0.0990(5) 0.4032(12) 0.9352(9)
O3 O -0.0952(5) 0.2190(10) 0.9549(9)
N1 N -0.0727(6) 0.3092(12) 0.9301(9)
N2 N 0.00000 0.5030(14) 0.75000
N3 N 0.00000 1.1242(14) 0.75000
N4 N 0.0955(5) 0.2987(10) 0.8364(8)
C1 C -0.0114(6) 0.5653(13) 0.8274(10)
C2 C -0.0132(6) 0.6820(13) 0.8333(10)
C3 C 0.00000 0.7472(19) 0.75000
C4 C 0.00000 0.8780(18) 0.75000
C5 C 0.0197(6) 0.9423(12) 0.8395(10)
C6 C 0.0180(6) 1.0624(13) 0.8381(11)
C7 C 0.1152(6) 0.3567(12) 0.9262(12)
C8 C 0.1753(6) 0.3403(11) 0.9930(11)
C9 C 0.2167(6) 0.2614(12) 0.9656(11)
C10 C 0.1984(6) 0.2042(12) 0.8701(11)
C11 C 0.1375(7) 0.2262(13) 0.8121(10)
H1 H -0.020 0.519 0.888
H2 H -0.025 0.722 0.896
H3 H 0.036 0.899 0.908
H4 H 0.031 1.106 0.907
H5 H 0.085 0.416 0.946
H6 H 0.188 0.386 1.061
H7 H 0.228 0.148 0.845
H8 H 0.123 0.184 0.744
C2F C 0.0132(6) 0.6820(13) 0.6667(10)
C1F C 0.0114(6) 0.5653(13) 0.6726(10)
H1F H 0.020 0.519 0.612
H2F H 0.025 0.722 0.604
C6F C -0.0180(6) 1.0624(13) 0.6619(11)
C5F C -0.0197(6) 0.9423(12) 0.6605(10)
H3F H -0.036 0.899 0.592
H4F H -0.031 1.106 0.593
C9E C 0.2833(6) 0.2386(12) 1.0344(11)
C8E C 0.3247(6) 0.1597(11) 1.0070(11)
C7E C 0.3848(6) 0.1433(12) 1.0738(12)
N4E N 0.4045(5) 0.2013(10) 1.1636(8)
C11E C 0.3625(7) 0.2738(13) 1.1879(10)
C10E C 0.3016(6) 0.2958(12) 1.1299(11)
H7E H 0.272 0.352 1.155
H8E H 0.377 0.316 1.256
H5E H 0.415 0.084 1.054
H6E H 0.312 0.114 0.939
O1F O 0.0213(5) 0.3066(9) 0.6030(7)
O2F O 0.0990(5) 0.4032(12) 0.5648(9)
O3F O 0.0952(5) 0.2190(10) 0.5451(9)
N1F N 0.0727(6) 0.3092(12) 0.5699(9)
N3_2 N 0.00000 0.1242(14) 0.75000
N4F N -0.0955(5) 0.2987(10) 0.6636(8)
Ni1_2 Ni 0.00000 1.31022(22) 0.75000
Ni1C Ni 0.50000 0.18978(22) 1.25000
Cl1 Cl 0.62508(22) 0.4379(4) 0.5946(4)
Cl2 Cl 0.7286(3) 0.3682(6) 0.7928(4)
C12 C 0.7035(7) 0.4977(15) 0.6198(15)
C13 C 0.7463(11) 0.4681(16) 0.7081(14)
C14 C 0.8080(10) 0.5160(19) 0.7279(15)
C15 C 0.8227(10) 0.5902(21) 0.6518(20)
C16 C 0.7788(10) 0.6170(16) 0.5656(16)
C17 C 0.7185(8) 0.5734(15) 0.5479(13)
H9 H 0.841 0.498 0.795
H10 H 0.869 0.625 0.662
H11 H 0.792 0.671 0.512
H12 H 0.685 0.596 0.483
loop_
_geom_bond_atom_site_label_1
_geom_bond_atom_site_label_2
_geom_bond_site_symmetry_1
_geom_bond_site_symmetry_2
Ni1 O1 1_555 1_555
Cl1 C12 1_555 1_555
Cl2 C13 1_555 1_555
O1 N1 1_555 1_555
O2 N1 1_555 1_555
O3 N1 1_555 1_555
N2 Ni1 1_555 1_555
N3 C6 1_555 1_555
N4 Ni1 1_555 1_555
C1 N2 1_555 1_555
C2 C1 1_555 1_555
C3 C2 1_555 1_555
C4 C3 1_555 1_555
C5 C4 1_555 1_555
C6 C5 1_555 1_555
C7 N4 1_555 1_555
C8 C7 1_555 1_555
C9 C8 1_555 1_555
C10 C9 1_555 1_555
C11 N4 1_555 1_555
C12 C13 1_555 1_555
C13 C14 1_555 1_555
C14 C15 1_555 1_555
C15 C16 1_555 1_555
C16 C17 1_555 1_555
C17 C12 1_555 1_555
H1 C1 1_555 1_555
H2 C2 1_555 1_555
H3 C5 1_555 1_555
H4 C6 1_555 1_555
H5 C7 1_555 1_555
H6 C8 1_555 1_555
H7 C10 1_555 1_555
H8 C11 1_555 1_555
H9 C14 1_555 1_555
H10 C15 1_555 1_555
H11 C16 1_555 1_555
H12 C17 1_555 1_555
C2F C3 1_555 1_555
C1F N2 1_555 1_555
H1F C1F 1_555 1_555
H2F C2F 1_555 1_555
C6F N3 1_555 1_555
C5F C4 1_555 1_555
H3F C5F 1_555 1_555
H4F C6F 1_555 1_555
C9E C9 1_555 1_555
C8E C9E 1_555 1_555
C7E C8E 1_555 1_555
N4E C7E 1_555 1_555
C11E N4E 1_555 1_555
C10E C9E 1_555 1_555
H7E C10E 1_555 1_555
H8E C11E 1_555 1_555
H5E C7E 1_555 1_555
H6E C8E 1_555 1_555
O1F Ni1 1_555 1_555
O2F N1F 1_555 1_555
O3F N1F 1_555 1_555
N1F O1F 1_555 1_555
N3_2 Ni1 1_555 1_555
N4F Ni1 1_555 1_555
Ni1_2 N3 1_555 1_555
Ni1C N4E 1_555 1_555
C10 C11 1_555 1_555
C2F C1F 1_555 1_555
C6F C5F 1_555 1_555
C11E C10E 1_555 1_555

#END
