
#######################################################################
#
#                 Cambridge Crystallographic Data Centre
#                                CCDC 
#
#######################################################################
#
# If this CIF has been generated from an entry in the Cambridge 
# Structural Database, then it will include bibliographic, chemical, 
# crystal, experimental, refinement or atomic coordinate data resulting 
# from the CCDC's data processing and validation procedures.
#
#######################################################################

data_METMIH
_symmetry_cell_setting           monoclinic
_symmetry_space_group_name_H-M   'P 21/n'
_symmetry_Int_Tables_number      14
_space_group_name_Hall           '-P 2yn'
loop_
_symmetry_equiv_pos_site_id
_symmetry_equiv_pos_as_xyz
1 x,y,z
2 1/2+x,1/2-y,1/2+z
3 -x,-y,-z
4 1/2-x,1/2+y,1/2-z
_cell_length_a                   9.0610(7)
_cell_length_b                   12.2937(12)
_cell_length_c                   22.772(2)
_cell_angle_alpha                90
_cell_angle_beta                 94.646(10)
_cell_angle_gamma                90
_cell_volume                     2528.31
loop_
_atom_site_label
_atom_site_type_symbol
_atom_site_fract_x
_atom_site_fract_y
_atom_site_fract_z
Sn1 Sn 0.55936(4) 0.37815(3) 0.033090(16)
Te1 Te 0.65355(5) 0.36509(3) 0.146900(17)
Te2 Te 0.56681(5) 0.19447(3) -0.028776(18)
S1 S 0.30988(17) 0.46966(10) 0.01498(6)
S1B S 0.69012(17) 0.53034(10) -0.01498(6)
Sn1B Sn 0.44064(4) 0.62185(3) -0.033090(16)
N1 N 0.2545(6) 0.7812(4) 0.3652(2)
H1 H 0.163(9) 0.806(5) 0.351(3)
H2 H 0.264(8) 0.828(6) 0.398(3)
C1 C 0.3732(7) 0.8139(5) 0.3287(3)
H3 H 0.3493 0.7866 0.2891
H4 H 0.4640 0.7785 0.3441
C2 C 0.4025(7) 0.9348(5) 0.3249(3)
H5 H 0.4719 0.9470 0.2953
H6 H 0.3107 0.9710 0.3116
N2 N 0.4615(7) 0.9853(4) 0.3800(3)
H7 H 0.411(9) 0.971(6) 0.407(3)
H8 H 0.533(10) 0.959(6) 0.392(3)
N3 N 0.5415(9) 0.8051(6) 0.5371(4)
H9 H 0.548(12) 0.862(8) 0.528(5)
H10 H 0.622(12) 0.812(8) 0.534(5)
C3 C 0.4709(15) 0.7322(9) 0.4965(4)
H11 H 0.5467 0.7038 0.4729
H12 H 0.4043 0.7749 0.4701
C4 C 0.3928(14) 0.6460(9) 0.5136(5)
H13 H 0.4640 0.5950 0.5320
H14 H 0.3337 0.6717 0.5445
N4 N 0.2964(9) 0.5852(5) 0.4739(4)
H15 H 0.233(11) 0.518(8) 0.481(4)
H16 H 0.362(9) 0.546(7) 0.459(4)
N5 N 0.3934(7) 0.2236(5) 0.3097(3)
H17 H 0.306(11) 0.213(7) 0.308(4)
H18 H 0.413(10) 0.195(7) 0.277(2)
C5 C 0.4216(9) 0.3374(6) 0.2988(4)
H19 H 0.4033 0.3523 0.2570
H20 H 0.5247 0.3536 0.3103
C6 C 0.3270(9) 0.4068(7) 0.3318(5)
H21 H 0.3394 0.3862 0.3730
H22 H 0.2246 0.3932 0.3180
N6 N 0.3571(7) 0.5273(5) 0.3270(3)
H23 H 0.363(10) 0.555(7) 0.295(4)
H24 H 0.440(11) 0.545(7) 0.340(4)
N7 N -0.3131(7) 0.5738(5) 0.3721(3)
H25 H -0.304(10) 0.635(7) 0.362(4)
H26 H -0.278(10) 0.561(7) 0.409(4)
C7 C -0.2241(7) 0.5027(5) 0.3377(3)
H27 H -0.2765 0.4920 0.2993
H28 H -0.2163 0.4324 0.3570
C8 C -0.0700(7) 0.5423(5) 0.3288(3)
H29 H -0.0212 0.4879 0.3064
H30 H -0.0781 0.6080 0.3051
N8 N 0.0232(6) 0.5652(4) 0.3820(3)
H31 H -0.014(9) 0.613(6) 0.404(3)
H32 H 0.039(8) 0.510(4) 0.404(3)
N9 N 1.0501(7) 1.1377(5) 0.3208(3)
H33 H 1.033(10) 1.079(7) 0.325(4)
H34 H 1.074(10) 1.158(7) 0.359(4)
C9 C 0.9338(8) 1.2069(6) 0.2953(3)
H35 H 0.9399 1.2080 0.2530
H36 H 0.9530 1.2803 0.3096
C10 C 0.7764(7) 1.1775(6) 0.3071(3)
H37 H 0.7110 1.2318 0.2882
H38 H 0.7526 1.1086 0.2879
N10 N 0.7423(6) 1.1683(4) 0.3682(2)
H39 H 0.791(7) 1.219(4) 0.388(3)
H40 H 0.765(8) 1.107(3) 0.382(3)
Li1 Li 0.2390(12) 0.6156(8) 0.3824(5)
Li2 Li 0.5180(12) 1.1501(8) 0.3804(5)
Li2B Li 0.4820(12) 0.8499(8) 0.6196(5)
Li2_2 Li 0.5180(12) 0.1501(8) 0.3804(5)
N3B N 0.4585(9) 1.1949(6) 0.4629(4)
N5_2 N 0.3934(7) 1.2236(5) 0.3097(3)
H9B H 0.452(12) 1.138(8) 0.472(5)
H10B H 0.378(12) 1.188(8) 0.466(5)
H17_2 H 0.306(11) 1.213(7) 0.308(4)
H18_2 H 0.413(10) 1.195(7) 0.277(2)
loop_
_geom_bond_atom_site_label_1
_geom_bond_atom_site_label_2
_geom_bond_site_symmetry_1
_geom_bond_site_symmetry_2
Sn1 Te1 1_555 1_555
Te2 Sn1 1_555 1_555
S1 Sn1 1_555 1_555
N1 H1 1_555 1_555
H2 N1 1_555 1_555
C1 N1 1_555 1_555
H3 C1 1_555 1_555
H4 C1 1_555 1_555
C2 C1 1_555 1_555
H5 C2 1_555 1_555
H6 C2 1_555 1_555
N2 C2 1_555 1_555
H7 N2 1_555 1_555
H8 N2 1_555 1_555
N3 H9 1_555 1_555
H10 N3 1_555 1_555
C3 N3 1_555 1_555
H11 C3 1_555 1_555
H12 C3 1_555 1_555
C4 C3 1_555 1_555
H13 C4 1_555 1_555
H14 C4 1_555 1_555
N4 C4 1_555 1_555
H15 N4 1_555 1_555
H16 N4 1_555 1_555
N5 H17 1_555 1_555
H18 N5 1_555 1_555
C5 N5 1_555 1_555
H19 C5 1_555 1_555
H20 C5 1_555 1_555
C6 C5 1_555 1_555
H21 C6 1_555 1_555
H22 C6 1_555 1_555
N6 C6 1_555 1_555
H23 N6 1_555 1_555
H24 N6 1_555 1_555
N7 H25 1_555 1_555
H26 N7 1_555 1_555
C7 N7 1_555 1_555
H27 C7 1_555 1_555
H28 C7 1_555 1_555
C8 C7 1_555 1_555
H29 C8 1_555 1_555
H30 C8 1_555 1_555
N8 C8 1_555 1_555
H31 N8 1_555 1_555
H32 N8 1_555 1_555
N9 H33 1_555 1_555
H34 N9 1_555 1_555
C9 N9 1_555 1_555
H35 C9 1_555 1_555
H36 C9 1_555 1_555
C10 C9 1_555 1_555
H37 C10 1_555 1_555
H38 C10 1_555 1_555
N10 C10 1_555 1_555
H39 N10 1_555 1_555
H40 N10 1_555 1_555
Li1 N1 1_555 1_555
Li2 N2 1_555 1_555
S1B Sn1 1_555 1_555
Sn1B S1 1_555 1_555
Li2B N3 1_555 1_555
Li2_2 N5 1_555 1_555
N3B Li2 1_555 1_555
N5_2 Li2 1_555 1_555
H9B N3B 1_555 1_555
H10B N3B 1_555 1_555
H17_2 N5_2 1_555 1_555
H18_2 N5_2 1_555 1_555
N4 Li1 1_555 1_555
N6 Li1 1_555 1_555
N8 Li1 1_555 1_555
N10 Li2 1_555 1_555
S1B Sn1B 1_555 1_555

#END
