
#######################################################################
#
#                 Cambridge Crystallographic Data Centre
#                                CCDC 
#
#######################################################################
#
# If this CIF has been generated from an entry in the Cambridge 
# Structural Database, then it will include bibliographic, chemical, 
# crystal, experimental, refinement or atomic coordinate data resulting 
# from the CCDC's data processing and validation procedures.
#
#######################################################################

data_METNAA
_symmetry_cell_setting           monoclinic
_symmetry_space_group_name_H-M   'C 2/c'
_symmetry_Int_Tables_number      15
_space_group_name_Hall           '-C 2yn'
loop_
_symmetry_equiv_pos_site_id
_symmetry_equiv_pos_as_xyz
1 x,y,z
2 1/2+x,1/2+y,z
3 x,-y,1/2+z
4 1/2+x,1/2-y,1/2+z
5 -x,-y,-z
6 1/2-x,1/2-y,-z
7 -x,y,1/2-z
8 1/2-x,1/2+y,1/2-z
_cell_length_a                   21.5968(13)
_cell_length_b                   11.4000(7)
_cell_length_c                   12.9303(8)
_cell_angle_alpha                90.00
_cell_angle_beta                 103.1040(10)
_cell_angle_gamma                90.00
_cell_volume                     3100.59
loop_
_atom_site_label
_atom_site_type_symbol
_atom_site_fract_x
_atom_site_fract_y
_atom_site_fract_z
Ni1 Ni 0.5000 0.18519(2) 0.7500
O1 O 0.47578(5) 0.19033(9) 0.89934(9)
O2 O 0.40067(6) 0.27309(12) 0.95884(12)
O3 O 0.38948(6) 0.09478(12) 0.90594(13)
N1 N 0.42032(6) 0.18584(12) 0.92132(11)
N2 N 0.59462(6) 0.19771(10) 0.83882(10)
N3 N 0.5000 0.3726(2) 0.7500
N4 N 0.5000 0.99708(15) 0.7500
C1 C 0.51643(7) 0.43430(13) 0.84093(13)
H1 H 0.52772(7) 0.39335(13) 0.90464(13)
C2 C 0.51733(8) 0.55535(13) 0.84425(13)
H2 H 0.52942(8) 0.59414(13) 0.90896(13)
C3 C 0.5000 0.6192(2) 0.7500
C4 C 0.5000 0.7492(2) 0.7500
C5 C 0.48895(7) 0.81325(13) 0.83603(12)
H3 H 0.48106(7) 0.77471(13) 0.89513(12)
C6 C 0.48981(7) 0.93446(13) 0.83273(13)
H4 H 0.48290(7) 0.97524(13) 0.89138(13)
C7 C 0.63544(7) 0.27272(14) 0.80902(13)
H5 H 0.62221(7) 0.31210(14) 0.74481(13)
C8 C 0.69579(7) 0.29425(14) 0.86860(13)
H6 H 0.72223(7) 0.34612(14) 0.84353(13)
C9 C 0.71758(6) 0.23874(13) 0.96642(12)
C10 C 0.67535(7) 0.16073(13) 0.99684(13)
H7 H 0.68716(7) 0.12077(13) 1.06100(13)
C11 C 0.61564(7) 0.14263(14) 0.93142(13)
H8 H 0.58871(7) 0.08910(14) 0.95325(13)
C9E C 0.78242(6) 0.26126(13) 1.03358(12)
C8E C 0.80421(7) 0.20575(14) 1.13140(13)
C7E C 0.86456(7) 0.22728(14) 1.19098(13)
N2E N 0.90538(6) 0.30229(10) 1.16118(10)
C11E C 0.88436(7) 0.35737(14) 1.06858(13)
C10E C 0.82465(7) 0.33927(13) 1.00316(13)
H7E H 0.81284(7) 0.37923(13) 0.93900(13)
H8E H 0.91129(7) 0.41090(14) 1.04675(13)
H5E H 0.87779(7) 0.18790(14) 1.25519(13)
H6E H 0.77777(7) 0.15388(14) 1.15647(13)
C2F C 0.48267(8) 0.55535(13) 0.65575(13)
C1F C 0.48357(7) 0.43430(13) 0.65907(13)
H1F H 0.47228(7) 0.39335(13) 0.59536(13)
H2F H 0.47058(8) 0.59414(13) 0.59104(13)
C6F C 0.51019(7) 0.93446(13) 0.66727(13)
C5F C 0.51105(7) 0.81325(13) 0.66397(12)
H3F H 0.51894(7) 0.77471(13) 0.60487(12)
H4F H 0.51710(7) 0.97524(13) 0.60862(13)
O1F O 0.52422(5) 0.19033(9) 0.60066(9)
O2F O 0.59933(6) 0.27309(12) 0.54116(12)
O3F O 0.61052(6) 0.09478(12) 0.59406(13)
N1F N 0.57968(6) 0.18584(12) 0.57868(11)
N2F N 0.40538(6) 0.19771(10) 0.66118(10)
N4_2 N 0.5000 -0.00292(15) 0.7500
Ni1_2 Ni 0.5000 1.18519(2) 0.7500
Ni1C Ni 1.0000 0.31481(2) 1.2500
O4 O 0.66156(10) 0.3658(2) 1.2476(2)
O5 O 0.61116(8) 0.3903(2) 1.0860(2)
N5 N 0.65696(9) 0.4069(2) 1.1596(2)
C12 C 0.70925(8) 0.4797(2) 1.1404(2)
C13 C 0.70109(10) 0.5374(2) 1.0443(2)
H9 H 0.66327(10) 0.5312(2) 0.9931(2)
C14 C 0.75081(12) 0.6046(2) 1.0268(2)
H10 H 0.74691(12) 0.6435(2) 0.9625(2)
C15 C 0.80628(12) 0.6143(2) 1.1040(2)
H11 H 0.83919(12) 0.6609(2) 1.0916(2)
C16 C 0.81356(9) 0.5558(2) 1.1994(2)
H12 H 0.85128(9) 0.5629(2) 1.2507(2)
C17 C 0.76493(9) 0.4865(2) 1.2189(2)
H13 H 0.76935(9) 0.4458(2) 1.2825(2)
loop_
_geom_bond_atom_site_label_1
_geom_bond_atom_site_label_2
_geom_bond_site_symmetry_1
_geom_bond_site_symmetry_2
Ni1 O1 1_555 1_555
O1 N1 1_555 1_555
O2 N1 1_555 1_555
O3 N1 1_555 1_555
N2 Ni1 1_555 1_555
N3 Ni1 1_555 1_555
N4 C6 1_555 1_555
C1 N3 1_555 1_555
H1 C1 1_555 1_555
C2 C1 1_555 1_555
H2 C2 1_555 1_555
C3 C2 1_555 1_555
C4 C3 1_555 1_555
C5 C4 1_555 1_555
H3 C5 1_555 1_555
C6 C5 1_555 1_555
H4 C6 1_555 1_555
C7 N2 1_555 1_555
H5 C7 1_555 1_555
C8 C7 1_555 1_555
H6 C8 1_555 1_555
C9 C8 1_555 1_555
C10 C9 1_555 1_555
H7 C10 1_555 1_555
C11 N2 1_555 1_555
H8 C11 1_555 1_555
O4 N5 1_555 1_555
O5 N5 1_555 1_555
N5 C12 1_555 1_555
C12 C13 1_555 1_555
C13 H9 1_555 1_555
C14 C13 1_555 1_555
H10 C14 1_555 1_555
C15 C14 1_555 1_555
H11 C15 1_555 1_555
C16 C15 1_555 1_555
H12 C16 1_555 1_555
C17 C12 1_555 1_555
H13 C17 1_555 1_555
C9E C9 1_555 1_555
C8E C9E 1_555 1_555
C7E C8E 1_555 1_555
N2E C7E 1_555 1_555
C11E N2E 1_555 1_555
C10E C9E 1_555 1_555
H7E C10E 1_555 1_555
H8E C11E 1_555 1_555
H5E C7E 1_555 1_555
H6E C8E 1_555 1_555
C2F C3 1_555 1_555
C1F N3 1_555 1_555
H1F C1F 1_555 1_555
H2F C2F 1_555 1_555
C6F N4 1_555 1_555
C5F C4 1_555 1_555
H3F C5F 1_555 1_555
H4F C6F 1_555 1_555
O1F Ni1 1_555 1_555
O2F N1F 1_555 1_555
O3F N1F 1_555 1_555
N1F O1F 1_555 1_555
N2F Ni1 1_555 1_555
N4_2 Ni1 1_555 1_555
Ni1_2 N4 1_555 1_555
Ni1C N2E 1_555 1_555
C10 C11 1_555 1_555
C16 C17 1_555 1_555
C11E C10E 1_555 1_555
C2F C1F 1_555 1_555
C6F C5F 1_555 1_555

#END
