
#######################################################################
#
#                 Cambridge Crystallographic Data Centre
#                                CCDC 
#
#######################################################################
#
# If this CIF has been generated from an entry in the Cambridge 
# Structural Database, then it will include bibliographic, chemical, 
# crystal, experimental, refinement or atomic coordinate data resulting 
# from the CCDC's data processing and validation procedures.
#
#######################################################################

data_METNOO
_symmetry_cell_setting           monoclinic
_symmetry_space_group_name_H-M   'C 2/c'
_symmetry_Int_Tables_number      15
_space_group_name_Hall           '-C 2yn'
loop_
_symmetry_equiv_pos_site_id
_symmetry_equiv_pos_as_xyz
1 x,y,z
2 1/2+x,1/2+y,z
3 x,-y,1/2+z
4 1/2+x,1/2-y,1/2+z
5 -x,-y,-z
6 1/2-x,1/2-y,-z
7 -x,y,1/2-z
8 1/2-x,1/2+y,1/2-z
_cell_length_a                   21.7003(11)
_cell_length_b                   11.4961(6)
_cell_length_c                   12.8598(6)
_cell_angle_alpha                90.00
_cell_angle_beta                 102.5260(10)
_cell_angle_gamma                90.00
_cell_volume                     3131.76
loop_
_atom_site_label
_atom_site_type_symbol
_atom_site_fract_x
_atom_site_fract_y
_atom_site_fract_z
Co1 Co 0.5000 0.18447(2) 0.7500
O1 O 0.47594(5) 0.18757(8) 0.89985(8)
O2 O 0.38972(6) 0.09492(11) 0.90964(13)
O3 O 0.40105(6) 0.27366(13) 0.95800(11)
N1 N 0.42054(6) 0.18543(10) 0.92266(10)
N2 N 0.59618(5) 0.19846(9) 0.84000(9)
N3 N 0.5000 0.37417(13) 0.7500
N4 N 0.5000 0.99342(13) 0.7500
C1 C 0.63659(6) 0.27306(13) 0.80989(11)
H1 H 0.62355(6) 0.31208(13) 0.74552(11)
C2 C 0.69667(7) 0.29503(13) 0.86952(12)
H2 H 0.72283(7) 0.34738(13) 0.84472(12)
C3 C 0.71794(6) 0.23880(11) 0.96663(10)
C4 C 0.67612(6) 0.16116(13) 0.99740(11)
H3 H 0.68788(6) 0.12125(13) 1.06155(11)
C5 C 0.61667(6) 0.14300(12) 0.93239(11)
H4 H 0.58989(6) 0.08964(12) 0.95434(11)
C6 C 0.51679(6) 0.43526(12) 0.84111(10)
H5 H 0.52828(6) 0.39456(12) 0.90488(10)
C7 C 0.51779(7) 0.55550(12) 0.84457(10)
H6 H 0.53021(7) 0.59396(12) 0.90936(10)
C8 C 0.5000 0.6188(2) 0.7500
C9 C 0.5000 0.7477(2) 0.7500
C10 C 0.48856(7) 0.81119(11) 0.83631(11)
H7 H 0.48035(7) 0.77278(11) 0.89549(11)
C11 C 0.48947(6) 0.93139(12) 0.83360(10)
H8 H 0.48243(6) 0.97174(12) 0.89262(10)
C3E C 0.78206(6) 0.26120(11) 1.03337(10)
C2E C 0.80333(7) 0.20497(13) 1.13048(12)
C1E C 0.86341(6) 0.22694(13) 1.19011(11)
N2E N 0.90382(5) 0.30154(9) 1.16000(9)
C5E C 0.88333(6) 0.35700(12) 1.06761(11)
C4E C 0.82388(6) 0.33884(13) 1.00260(11)
H3E H 0.81212(6) 0.37875(13) 0.93845(11)
H4E H 0.91011(6) 0.41036(12) 1.04566(11)
H1E H 0.87645(6) 0.18792(13) 1.25448(11)
H2E H 0.77717(7) 0.15262(13) 1.15528(12)
C7F C 0.48221(7) 0.55550(12) 0.65543(10)
C6F C 0.48321(6) 0.43526(12) 0.65889(10)
H5F H 0.47172(6) 0.39456(12) 0.59512(10)
H6F H 0.46979(7) 0.59396(12) 0.59064(10)
C11F C 0.51053(6) 0.93139(12) 0.66640(10)
C10F C 0.51144(7) 0.81119(11) 0.66369(11)
H7F H 0.51965(7) 0.77278(11) 0.60451(11)
H8F H 0.51757(6) 0.97174(12) 0.60738(10)
O1F O 0.52406(5) 0.18757(8) 0.60015(8)
O2F O 0.61028(6) 0.09492(11) 0.59036(13)
O3F O 0.59895(6) 0.27366(13) 0.54200(11)
N1F N 0.57946(6) 0.18543(10) 0.57734(10)
N2F N 0.40382(5) 0.19846(9) 0.66000(9)
N4_2 N 0.5000 -0.00658(13) 0.7500
Co1_2 Co 0.5000 1.18447(2) 0.7500
Co1C Co 1.0000 0.31553(2) 1.2500
O4 O 0.33827(11) 0.6379(3) 0.7522(2)
O5 O 0.38819(8) 0.6076(2) 0.9137(2)
N5 N 0.34275(8) 0.5940(2) 0.8398(2)
C12 C 0.29033(8) 0.5212(2) 0.85732(14)
C13 C 0.29826(10) 0.4622(2) 0.95274(15)
H9 H 0.33583(10) 0.4673(2) 1.00361(15)
C14 C 0.24845(12) 0.3949(2) 0.9704(2)
H10 H 0.25211(12) 0.3554(2) 1.0346(2)
C15 C 0.19366(11) 0.3865(2) 0.8934(2)
H11 H 0.16099(11) 0.3394(2) 0.9052(2)
C16 C 0.18652(9) 0.4472(2) 0.7984(2)
H12 H 0.14911(9) 0.4414(2) 0.7473(2)
C17 C 0.23503(8) 0.5161(2) 0.78002(13)
H13 H 0.23069(8) 0.5582(2) 0.71709(13)
loop_
_geom_bond_atom_site_label_1
_geom_bond_atom_site_label_2
_geom_bond_site_symmetry_1
_geom_bond_site_symmetry_2
Co1 O1 1_555 1_555
O1 N1 1_555 1_555
O2 N1 1_555 1_555
O3 N1 1_555 1_555
O4 N5 1_555 1_555
O5 N5 1_555 1_555
N2 Co1 1_555 1_555
N3 Co1 1_555 1_555
N4 C11 1_555 1_555
N5 C12 1_555 1_555
C1 N2 1_555 1_555
H1 C1 1_555 1_555
C2 C1 1_555 1_555
H2 C2 1_555 1_555
C3 C2 1_555 1_555
C4 C3 1_555 1_555
H3 C4 1_555 1_555
C5 N2 1_555 1_555
H4 C5 1_555 1_555
C6 N3 1_555 1_555
H5 C6 1_555 1_555
C7 C6 1_555 1_555
H6 C7 1_555 1_555
C8 C7 1_555 1_555
C9 C8 1_555 1_555
C10 C9 1_555 1_555
H7 C10 1_555 1_555
C11 C10 1_555 1_555
H8 C11 1_555 1_555
C12 C13 1_555 1_555
C13 H9 1_555 1_555
C14 C13 1_555 1_555
H10 C14 1_555 1_555
C15 C14 1_555 1_555
H11 C15 1_555 1_555
C16 C15 1_555 1_555
H12 C16 1_555 1_555
C17 C12 1_555 1_555
H13 C17 1_555 1_555
C3E C3 1_555 1_555
C2E C3E 1_555 1_555
C1E C2E 1_555 1_555
N2E C1E 1_555 1_555
C5E N2E 1_555 1_555
C4E C3E 1_555 1_555
H3E C4E 1_555 1_555
H4E C5E 1_555 1_555
H1E C1E 1_555 1_555
H2E C2E 1_555 1_555
C7F C8 1_555 1_555
C6F N3 1_555 1_555
H5F C6F 1_555 1_555
H6F C7F 1_555 1_555
C11F N4 1_555 1_555
C10F C9 1_555 1_555
H7F C10F 1_555 1_555
H8F C11F 1_555 1_555
O1F Co1 1_555 1_555
O2F N1F 1_555 1_555
O3F N1F 1_555 1_555
N1F O1F 1_555 1_555
N2F Co1 1_555 1_555
N4_2 Co1 1_555 1_555
Co1_2 N4 1_555 1_555
Co1C N2E 1_555 1_555
C4 C5 1_555 1_555
C16 C17 1_555 1_555
C5E C4E 1_555 1_555
C7F C6F 1_555 1_555
C11F C10F 1_555 1_555

#END
