
#######################################################################
#
#                 Cambridge Crystallographic Data Centre
#                                CCDC 
#
#######################################################################
#
# If this CIF has been generated from an entry in the Cambridge 
# Structural Database, then it will include bibliographic, chemical, 
# crystal, experimental, refinement or atomic coordinate data resulting 
# from the CCDC's data processing and validation procedures.
#
#######################################################################

data_METNUU
_symmetry_cell_setting           monoclinic
_symmetry_space_group_name_H-M   'C 2/c'
_symmetry_Int_Tables_number      15
_space_group_name_Hall           '-C 2yn'
loop_
_symmetry_equiv_pos_site_id
_symmetry_equiv_pos_as_xyz
1 x,y,z
2 1/2+x,1/2+y,z
3 x,-y,1/2+z
4 1/2+x,1/2-y,1/2+z
5 -x,-y,-z
6 1/2-x,1/2-y,-z
7 -x,y,1/2-z
8 1/2-x,1/2+y,1/2-z
_cell_length_a                   21.7636(13)
_cell_length_b                   11.5176(7)
_cell_length_c                   12.8555(8)
_cell_angle_alpha                90.00
_cell_angle_beta                 102.7410(10)
_cell_angle_gamma                90.00
_cell_volume                     3143.07
loop_
_atom_site_label
_atom_site_type_symbol
_atom_site_fract_x
_atom_site_fract_y
_atom_site_fract_z
Co1 Co 0.5000 0.18384(3) 0.7500
O1 O 0.48141(6) 0.18623(12) 0.90273(10)
O2 O 0.41022(8) 0.2842(2) 0.9589(2)
O3 O 0.39850(9) 0.1007(2) 0.9340(2)
N1 N 0.42801(8) 0.19038(14) 0.93179(13)
N2 N 0.5000 0.3742(2) 0.7500
N3 N 0.5000 0.9923(2) 0.7500
N4 N 0.59721(7) 0.19652(13) 0.83609(12)
C1 C 0.51681(9) 0.4350(2) 0.84078(15)
H1 H 0.52850(9) 0.3944(2) 0.90464(15)
C2 C 0.51762(9) 0.5549(2) 0.8442(2)
H2 H 0.52987(9) 0.5933(2) 0.9092(2)
C3 C 0.5000 0.6181(2) 0.7500
C4 C 0.5000 0.7471(2) 0.7500
C5 C 0.48407(9) 0.8105(2) 0.8326(2)
H3 H 0.47291(9) 0.7723(2) 0.8894(2)
C6 C 0.48491(9) 0.9306(2) 0.82965(15)
H4 H 0.47445(9) 0.9710(2) 0.88597(15)
C7 C 0.63697(9) 0.2749(2) 0.8093(2)
H5 H 0.62366(9) 0.3160(2) 0.7461(2)
C8 C 0.69628(9) 0.2979(2) 0.8702(2)
H6 H 0.72164(9) 0.3531(2) 0.8475(2)
C9 C 0.71830(8) 0.2384(2) 0.96568(14)
C10 C 0.67726(9) 0.1565(2) 0.9930(2)
H7 H 0.68933(9) 0.1142(2) 1.0557(2)
C11 C 0.61869(9) 0.1382(2) 0.9269(2)
H8 H 0.59273(9) 0.0821(2) 0.9467(2)
C2F C 0.48238(9) 0.5549(2) 0.6558(2)
C1F C 0.48319(9) 0.4350(2) 0.65922(15)
H1F H 0.47150(9) 0.3944(2) 0.59536(15)
H2F H 0.47013(9) 0.5933(2) 0.5908(2)
C6F C 0.51509(9) 0.9306(2) 0.67035(15)
C5F C 0.51593(9) 0.8105(2) 0.6674(2)
H3F H 0.52709(9) 0.7723(2) 0.6106(2)
H4F H 0.52555(9) 0.9710(2) 0.61403(15)
C9E C 0.78170(8) 0.2616(2) 1.03432(14)
C8E C 0.80372(9) 0.2021(2) 1.1298(2)
C7E C 0.86303(9) 0.2251(2) 1.1907(2)
N4E N 0.90279(7) 0.30348(13) 1.16391(12)
C11E C 0.88131(9) 0.3618(2) 1.0731(2)
C10E C 0.82274(9) 0.3435(2) 1.0070(2)
H7E H 0.81067(9) 0.3858(2) 0.9443(2)
H8E H 0.90727(9) 0.4179(2) 1.0533(2)
H5E H 0.87634(9) 0.1840(2) 1.2539(2)
H6E H 0.77836(9) 0.1469(2) 1.1525(2)
O1F O 0.51859(6) 0.18623(12) 0.59727(10)
O2F O 0.58978(8) 0.2842(2) 0.5411(2)
O3F O 0.60150(9) 0.1007(2) 0.5660(2)
N1F N 0.57199(8) 0.19038(14) 0.56821(13)
N3_2 N 0.5000 -0.0077(2) 0.7500
N4F N 0.40279(7) 0.19652(13) 0.66391(12)
Co1_2 Co 0.5000 1.18384(3) 0.7500
Co1C Co 1.0000 0.31616(3) 1.2500
C13 C 0.3190(5) -0.1270(10) 0.6336(8)
C15 C 0.1947(7) -0.0341(14) 0.5992(9)
C17 C 0.1580(7) 0.0431(16) 0.6316(11)
C18 C 0.1820(9) 0.1065(13) 0.7292(12)
C21 C 0.2496(5) 0.0913(8) 0.7771(7)
C23 C 0.2697(5) -0.0563(8) 0.6624(7)
C24 C 0.2717(4) 0.0207(6) 0.7343(6)
C12? C 0.3056(7) -0.0178(15) 0.7306(9)
C14? C 0.3158(10) -0.0726(31) 0.6713(36)
C16? C 0.2217(23) 0.0273(15) 0.6753(38)
C19? C 0.2162(6) -0.0699(9) 0.5482(7)
C20? C 0.1577(15) 0.0957(37) 0.6785(34)
C22? C 0.2737(5) -0.1166(6) 0.5636(10)
C25? C 0.2110(5) -0.0085(29) 0.6267(26)
loop_
_geom_bond_atom_site_label_1
_geom_bond_atom_site_label_2
_geom_bond_site_symmetry_1
_geom_bond_site_symmetry_2
Co1 O1 1_555 1_555
O1 N1 1_555 1_555
O2 N1 1_555 1_555
O3 N1 1_555 1_555
N2 Co1 1_555 1_555
N3 C6 1_555 1_555
N4 Co1 1_555 1_555
C1 N2 1_555 1_555
H1 C1 1_555 1_555
C2 C1 1_555 1_555
H2 C2 1_555 1_555
C3 C2 1_555 1_555
C4 C3 1_555 1_555
C5 C4 1_555 1_555
H3 C5 1_555 1_555
C6 C5 1_555 1_555
H4 C6 1_555 1_555
C7 N4 1_555 1_555
H5 C7 1_555 1_555
C8 C7 1_555 1_555
H6 C8 1_555 1_555
C9 C8 1_555 1_555
C10 C9 1_555 1_555
H7 C10 1_555 1_555
C11 N4 1_555 1_555
H8 C11 1_555 1_555
C13 C23 1_555 1_555
C15 C17 1_555 1_555
C17 C18 1_555 1_555
C18 C21 1_555 1_555
C21 C24 1_555 1_555
C23 C15 1_555 1_555
C24 C23 1_555 1_555
C2F C3 1_555 1_555
C1F N2 1_555 1_555
H1F C1F 1_555 1_555
H2F C2F 1_555 1_555
C6F N3 1_555 1_555
C5F C4 1_555 1_555
H3F C5F 1_555 1_555
H4F C6F 1_555 1_555
C9E C9 1_555 1_555
C8E C9E 1_555 1_555
C7E C8E 1_555 1_555
N4E C7E 1_555 1_555
C11E N4E 1_555 1_555
C10E C9E 1_555 1_555
H7E C10E 1_555 1_555
H8E C11E 1_555 1_555
H5E C7E 1_555 1_555
H6E C8E 1_555 1_555
O1F Co1 1_555 1_555
O2F N1F 1_555 1_555
O3F N1F 1_555 1_555
N1F O1F 1_555 1_555
N3_2 Co1 1_555 1_555
N4F Co1 1_555 1_555
Co1_2 N3 1_555 1_555
Co1C N4E 1_555 1_555
C10 C11 1_555 1_555
C2F C1F 1_555 1_555
C6F C5F 1_555 1_555
C11E C10E 1_555 1_555

#END
