
#######################################################################
#
#                 Cambridge Crystallographic Data Centre
#                                CCDC 
#
#######################################################################
#
# If this CIF has been generated from an entry in the Cambridge 
# Structural Database, then it will include bibliographic, chemical, 
# crystal, experimental, refinement or atomic coordinate data resulting 
# from the CCDC's data processing and validation procedures.
#
#######################################################################

data_METNEE
_symmetry_cell_setting           monoclinic
_symmetry_space_group_name_H-M   'C 2/c'
_symmetry_Int_Tables_number      15
_space_group_name_Hall           '-C 2yn'
loop_
_symmetry_equiv_pos_site_id
_symmetry_equiv_pos_as_xyz
1 x,y,z
2 1/2+x,1/2+y,z
3 x,-y,1/2+z
4 1/2+x,1/2-y,1/2+z
5 -x,-y,-z
6 1/2-x,1/2-y,-z
7 -x,y,1/2-z
8 1/2-x,1/2+y,1/2-z
_cell_length_a                   21.6458(13)
_cell_length_b                   11.5193(7)
_cell_length_c                   13.3717(8)
_cell_angle_alpha                90
_cell_angle_beta                 102.6680(10)
_cell_angle_gamma                90
_cell_volume                     3253
loop_
_atom_site_label
_atom_site_type_symbol
_atom_site_fract_x
_atom_site_fract_y
_atom_site_fract_z
Co1 Co 0.50000 0.19016(4) 0.25000
O1 O 0.52268(12) 0.19234(19) 0.10362(18)
O2 O 0.59497(18) 0.2782(3) 0.0443(3)
O3 O 0.59968(17) 0.0966(3) 0.0656(3)
N1 N 0.57394(14) 0.18931(22) 0.07131(21)
N2 N 0.50000 0.3796(3) 0.25000
N3 N 0.50000 0.9971(3) 0.25000
N4 N 0.40266(12) 0.20227(20) 0.16163(21)
C1 C 0.48119(17) 0.4410(3) 0.16274(24)
C2 C 0.48054(18) 0.5601(3) 0.15989(25)
C3 C 0.50000 0.6240(4) 0.25000
C4 C 0.50000 0.7524(4) 0.25000
C5 C 0.51297(17) 0.8164(3) 0.1680(3)
C6 C 0.51238(16) 0.9360(3) 0.17129(25)
C7 C 0.38360(16) 0.1470(3) 0.0718(3)
C8 C 0.32542(16) 0.1627(3) 0.0063(3)
C9 C 0.28189(14) 0.2397(3) 0.03389(23)
C10 C 0.30137(16) 0.2958(3) 0.1275(3)
C11 C 0.36086(16) 0.2751(3) 0.18729(25)
H1 H 0.467 0.398 0.096
H2 H 0.466 0.602 0.092
H3 H 0.523 0.775 0.108
H4 H 0.521 0.981 0.112
H5 H 0.413 0.089 0.052
H6 H 0.314 0.119 -0.060
H7 H 0.272 0.349 0.153
H8 H 0.373 0.318 0.254
C2F C 0.51946(18) 0.5601(3) 0.34011(25)
C1F C 0.51881(17) 0.4410(3) 0.33726(24)
H1F H 0.533 0.398 0.404
H2F H 0.534 0.602 0.408
C6F C 0.48762(16) 0.9360(3) 0.32871(25)
C5F C 0.48703(17) 0.8164(3) 0.3320(3)
H3F H 0.477 0.775 0.392
H4F H 0.479 0.981 0.388
C9E C 0.21811(14) 0.2603(3) -0.03389(23)
C8E C 0.17458(16) 0.3373(3) -0.0063(3)
C7E C 0.11640(16) 0.3530(3) -0.0718(3)
N4E N 0.09734(12) 0.29773(20) -0.16163(21)
C11E C 0.13914(16) 0.2249(3) -0.18729(25)
C10E C 0.19863(16) 0.2042(3) -0.1275(3)
H7E H 0.228 0.151 -0.153
H8E H 0.127 0.182 -0.254
H5E H 0.087 0.411 -0.052
H6E H 0.186 0.381 0.060
O1F O 0.47732(12) 0.19234(19) 0.39638(18)
O2F O 0.40503(18) 0.2782(3) 0.4557(3)
O3F O 0.40032(17) 0.0966(3) 0.4344(3)
N1F N 0.42606(14) 0.18931(22) 0.42869(21)
N3_2 N 0.50000 -0.0029(3) 0.25000
N4F N 0.59734(12) 0.20227(20) 0.33837(21)
Co1_2 Co 0.50000 1.19016(4) 0.25000
Co1C Co 0.00000 0.30984(4) -0.25000
Cl1 Cl 0.87574(8) 0.05856(14) 0.40568(16)
Cl2 Cl 0.77554(16) 0.12838(22) 0.20873(16)
C12 C 0.80008(22) 0.0019(4) 0.3821(3)
C13 C 0.7558(3) 0.0315(4) 0.2936(4)
C14 C 0.6956(3) -0.0144(5) 0.2765(4)
C15 C 0.6808(3) -0.0898(5) 0.3495(5)
C16 C 0.7214(3) -0.1155(4) 0.4327(5)
C17 C 0.78215(24) -0.0708(4) 0.4490(4)
H9 H 0.663 0.007 0.212
H10 H 0.636 -0.122 0.333
H11 H 0.709 -0.169 0.483
H12 H 0.814 -0.095 0.514
loop_
_geom_bond_atom_site_label_1
_geom_bond_atom_site_label_2
_geom_bond_site_symmetry_1
_geom_bond_site_symmetry_2
Co1 O1 1_555 1_555
Cl1 C12 1_555 1_555
Cl2 C13 1_555 1_555
O1 N1 1_555 1_555
O2 N1 1_555 1_555
O3 N1 1_555 1_555
N2 Co1 1_555 1_555
N3 C6 1_555 1_555
N4 Co1 1_555 1_555
C1 N2 1_555 1_555
C2 C1 1_555 1_555
C3 C2 1_555 1_555
C4 C3 1_555 1_555
C5 C4 1_555 1_555
C6 C5 1_555 1_555
C7 N4 1_555 1_555
C8 C7 1_555 1_555
C9 C8 1_555 1_555
C10 C9 1_555 1_555
C11 N4 1_555 1_555
C12 C13 1_555 1_555
C13 C14 1_555 1_555
C14 C15 1_555 1_555
C15 C16 1_555 1_555
C16 C17 1_555 1_555
C17 C12 1_555 1_555
H1 C1 1_555 1_555
H2 C2 1_555 1_555
H3 C5 1_555 1_555
H4 C6 1_555 1_555
H5 C7 1_555 1_555
H6 C8 1_555 1_555
H7 C10 1_555 1_555
H8 C11 1_555 1_555
H9 C14 1_555 1_555
H10 C15 1_555 1_555
H11 C16 1_555 1_555
H12 C17 1_555 1_555
C2F C3 1_555 1_555
C1F N2 1_555 1_555
H1F C1F 1_555 1_555
H2F C2F 1_555 1_555
C6F N3 1_555 1_555
C5F C4 1_555 1_555
H3F C5F 1_555 1_555
H4F C6F 1_555 1_555
C9E C9 1_555 1_555
C8E C9E 1_555 1_555
C7E C8E 1_555 1_555
N4E C7E 1_555 1_555
C11E N4E 1_555 1_555
C10E C9E 1_555 1_555
H7E C10E 1_555 1_555
H8E C11E 1_555 1_555
H5E C7E 1_555 1_555
H6E C8E 1_555 1_555
O1F Co1 1_555 1_555
O2F N1F 1_555 1_555
O3F N1F 1_555 1_555
N1F O1F 1_555 1_555
N3_2 Co1 1_555 1_555
N4F Co1 1_555 1_555
Co1_2 N3 1_555 1_555
Co1C N4E 1_555 1_555
C10 C11 1_555 1_555
C2F C1F 1_555 1_555
C6F C5F 1_555 1_555
C11E C10E 1_555 1_555

#END
