
#######################################################################
#
#                 Cambridge Crystallographic Data Centre
#                                CCDC 
#
#######################################################################
#
# If this CIF has been generated from an entry in the Cambridge 
# Structural Database, then it will include bibliographic, chemical, 
# crystal, experimental, refinement or atomic coordinate data resulting 
# from the CCDC's data processing and validation procedures.
#
#######################################################################

data_METPEG
_symmetry_cell_setting           monoclinic
_symmetry_space_group_name_H-M   'C 2/c'
_symmetry_Int_Tables_number      15
_space_group_name_Hall           '-C 2yn'
loop_
_symmetry_equiv_pos_site_id
_symmetry_equiv_pos_as_xyz
1 x,y,z
2 1/2+x,1/2+y,z
3 x,-y,1/2+z
4 1/2+x,1/2-y,1/2+z
5 -x,-y,-z
6 1/2-x,1/2-y,-z
7 -x,y,1/2-z
8 1/2-x,1/2+y,1/2-z
_cell_length_a                   21.678(3)
_cell_length_b                   11.4111(10)
_cell_length_c                   12.9139(16)
_cell_angle_alpha                90
_cell_angle_beta                 103.401(11)
_cell_angle_gamma                90
_cell_volume                     3107.53
loop_
_atom_site_label
_atom_site_type_symbol
_atom_site_fract_x
_atom_site_fract_y
_atom_site_fract_z
Ni1 Ni 0.50000 0.81181(7) 0.75000
N1 N 0.42463(17) 0.8116(4) 0.9277(3)
N2 N 0.50000 1.0007(4) 0.75000
N3 N 0.50000 1.6246(4) 0.75000
N4 N 0.59531(15) 0.8002(3) 0.8377(3)
O1 O 0.47796(13) 0.8079(3) 0.90007(23)
O2 O 0.39452(19) 0.9018(3) 0.9181(4)
O3 O 0.40643(19) 0.7238(4) 0.9640(4)
C1 C 0.48682(21) 1.0630(4) 0.8299(4)
C2 C 0.48590(21) 1.1846(4) 0.8332(4)
C3 C 0.50000 1.2485(5) 0.75000
C4 C 0.50000 1.3790(5) 0.75000
C5 C 0.51702(22) 1.4418(4) 0.8443(4)
C6 C 0.51621(21) 1.5629(4) 0.8405(4)
C7 C 0.61605(19) 0.8566(4) 0.9296(4)
C8 C 0.67570(19) 0.8395(4) 0.9953(4)
C9 C 0.71735(18) 0.7609(4) 0.9658(3)
C10 C 0.69623(19) 0.7039(4) 0.8692(4)
C11 C 0.63570(20) 0.7252(4) 0.8083(4)
H1 H 0.477 1.019 0.892
H2 H 0.475 1.227 0.895
H3 H 0.529 1.400 0.915
H4 H 0.527 1.607 0.910
H5 H 0.587 0.915 0.953
H6 H 0.689 0.884 1.064
H7 H 0.725 0.648 0.843
H8 H 0.621 0.682 0.739
C2F C 0.51410(21) 1.1846(4) 0.6668(4)
C1F C 0.51318(21) 1.0630(4) 0.6701(4)
H1F H 0.523 1.019 0.608
H2F H 0.525 1.227 0.605
C6F C 0.48379(21) 1.5629(4) 0.6595(4)
C5F C 0.48298(22) 1.4418(4) 0.6557(4)
H3F H 0.471 1.400 0.585
H4F H 0.473 1.607 0.590
C9E C 0.78265(18) 0.7391(4) 1.0342(3)
C8E C 0.82430(19) 0.6605(4) 1.0047(4)
C7E C 0.88395(19) 0.6434(4) 1.0704(4)
N4E N 0.90469(15) 0.6998(3) 1.1623(3)
C11E C 0.86430(20) 0.7748(4) 1.1917(4)
C10E C 0.80377(19) 0.7961(4) 1.1308(4)
H7E H 0.775 0.852 1.157
H8E H 0.879 0.818 1.261
H5E H 0.913 0.585 1.047
H6E H 0.811 0.616 0.936
N1F N 0.57537(17) 0.8116(4) 0.5723(3)
O1F O 0.52204(13) 0.8079(3) 0.59993(23)
O2F O 0.60548(19) 0.9018(3) 0.5819(4)
O3F O 0.59357(19) 0.7238(4) 0.5360(4)
N3_2 N 0.50000 0.6246(4) 0.75000
N4F N 0.40469(15) 0.8002(3) 0.6623(3)
Ni1_2 Ni 0.50000 1.81181(7) 0.75000
Ni1C Ni 1.00000 0.68819(7) 1.25000
Cl1 Cl 0.15618(15) 0.1243(3) 0.2082(4)
C12 C 0.2089(3) 0.0324(7) 0.1637(8)
C13 C 0.2688(3) 0.0251(6) 0.2307(6)
C14 C 0.3090(3) -0.0462(7) 0.1980(8)
C15 C 0.3016(5) -0.1132(7) 0.1085(7)
C16 C 0.2394(7) -0.0978(9) 0.0445(8)
C17 C 0.1918(5) -0.0252(9) 0.0773(8)
H9 H 0.283 0.070 0.302
H10 H 0.352 -0.052 0.247
H11 H 0.333 -0.168 0.085
H12 H 0.216 -0.125 -0.033
H13 H 0.144 -0.012 0.040
loop_
_geom_bond_atom_site_label_1
_geom_bond_atom_site_label_2
_geom_bond_site_symmetry_1
_geom_bond_site_symmetry_2
Ni1 N2 1_555 1_555
Cl1 C12 1_555 1_555
N1 O1 1_555 1_555
N2 C1 1_555 1_555
N3 C6 1_555 1_555
N4 Ni1 1_555 1_555
O1 Ni1 1_555 1_555
O2 N1 1_555 1_555
O3 N1 1_555 1_555
C1 C2 1_555 1_555
C2 C3 1_555 1_555
C3 C4 1_555 1_555
C4 C5 1_555 1_555
C5 C6 1_555 1_555
C6 H4 1_555 1_555
C7 N4 1_555 1_555
C8 C7 1_555 1_555
C9 C8 1_555 1_555
C10 C9 1_555 1_555
C11 N4 1_555 1_555
C12 C13 1_555 1_555
C13 C14 1_555 1_555
C14 C15 1_555 1_555
C15 C16 1_555 1_555
C16 C17 1_555 1_555
C17 C12 1_555 1_555
H1 C1 1_555 1_555
H2 C2 1_555 1_555
H3 C5 1_555 1_555
H5 C7 1_555 1_555
H6 C8 1_555 1_555
H7 C10 1_555 1_555
H8 C11 1_555 1_555
H9 C13 1_555 1_555
H10 C14 1_555 1_555
H11 C15 1_555 1_555
H12 C16 1_555 1_555
H13 C17 1_555 1_555
C2F C3 1_555 1_555
C1F N2 1_555 1_555
H1F C1F 1_555 1_555
H2F C2F 1_555 1_555
C6F N3 1_555 1_555
C5F C4 1_555 1_555
H3F C5F 1_555 1_555
H4F C6F 1_555 1_555
C9E C9 1_555 1_555
C8E C9E 1_555 1_555
C7E C8E 1_555 1_555
N4E C7E 1_555 1_555
C11E N4E 1_555 1_555
C10E C9E 1_555 1_555
H7E C10E 1_555 1_555
H8E C11E 1_555 1_555
H5E C7E 1_555 1_555
H6E C8E 1_555 1_555
N1F O1F 1_555 1_555
O1F Ni1 1_555 1_555
O2F N1F 1_555 1_555
O3F N1F 1_555 1_555
N3_2 Ni1 1_555 1_555
N4F Ni1 1_555 1_555
Ni1_2 N3 1_555 1_555
Ni1C N4E 1_555 1_555
C10 C11 1_555 1_555
C2F C1F 1_555 1_555
C6F C5F 1_555 1_555
C11E C10E 1_555 1_555

#END
