
#######################################################################
#
#                 Cambridge Crystallographic Data Centre
#                                CCDC 
#
#######################################################################
#
# If this CIF has been generated from an entry in the Cambridge 
# Structural Database, then it will include bibliographic, chemical, 
# crystal, experimental, refinement or atomic coordinate data resulting 
# from the CCDC's data processing and validation procedures.
#
#######################################################################

data_METQUX
_symmetry_cell_setting           triclinic
_symmetry_space_group_name_H-M   'P -1'
_symmetry_Int_Tables_number      2
_space_group_name_Hall           '-P 1'
loop_
_symmetry_equiv_pos_site_id
_symmetry_equiv_pos_as_xyz
1 x,y,z
2 -x,-y,-z
_cell_length_a                   6.8436(4)
_cell_length_b                   9.1166(7)
_cell_length_c                   9.7167(6)
_cell_angle_alpha                105.346(6)
_cell_angle_beta                 97.746(5)
_cell_angle_gamma                109.346(7)
_cell_volume                     534.865
loop_
_atom_site_label
_atom_site_type_symbol
_atom_site_fract_x
_atom_site_fract_y
_atom_site_fract_z
Ni1 Ni 0.0000 0.0000 0.0000
O1 O 0.2532(3) 0.1662(2) -0.04415(18)
O2 O 0.1993(2) -0.0961(2) 0.08667(18)
O3 O 0.0284(2) 0.16030(17) 0.20953(15)
O4 O 0.2733(4) 0.3947(2) 0.2146(3)
O5 O -0.3472(2) 0.25221(19) 0.13085(16)
O6 O -0.4653(3) 0.1265(2) 0.28888(18)
C1 C 0.2124(3) 0.5401(3) 0.4987(2)
C2 C 0.0571(3) 0.4107(2) 0.3818(2)
C3 C -0.1588(3) 0.3713(2) 0.3828(2)
C4 C 0.1263(4) 0.3160(3) 0.2587(3)
C5 C -0.3379(3) 0.2381(3) 0.2568(2)
H1 H 0.374(7) 0.175(5) 0.007(5)
H2 H 0.247(7) 0.248(6) -0.028(5)
H3 H 0.234(7) -0.139(6) 0.023(5)
H4 H 0.292(7) -0.026(6) 0.150(5)
H5 H 0.361(7) 0.571(5) 0.502(5)
C3A C 0.1588(3) 0.6287(2) 0.6172(2)
C2A C -0.0571(3) 0.5893(2) 0.6182(2)
C1A C -0.2124(3) 0.4599(3) 0.5013(2)
H5A H -0.361(7) 0.429(5) 0.498(5)
C4A C -0.1263(4) 0.6840(3) 0.7413(3)
O3A O -0.0284(2) 0.83970(17) 0.79047(15)
O4A O -0.2733(4) 0.6053(2) 0.7854(3)
C5A C 0.3379(3) 0.7619(3) 0.7432(2)
O5A O 0.3472(2) 0.74779(19) 0.86915(16)
O6A O 0.4653(3) 0.8735(2) 0.71112(18)
O1A O -0.2532(3) -0.1662(2) 0.04415(18)
H1A H -0.374(7) -0.175(5) -0.007(5)
H2A H -0.247(7) -0.248(6) 0.028(5)
O2A O -0.1993(2) 0.0961(2) -0.08667(18)
H3A H -0.234(7) 0.139(6) -0.023(5)
H4A H -0.292(7) 0.026(6) -0.150(5)
O3A_2 O -0.0284(2) -0.16030(17) -0.20953(15)
Ni1_2 Ni 0.0000 1.0000 1.0000
O7 O 0.4079(4) -0.2697(3) 0.2641(3)
H6 H 0.408(7) -0.362(6) 0.246(5)
H7 H 0.316(7) -0.269(5) 0.194(5)
O8 O -0.1420(15) -0.4536(5) 0.0781(6)
H8 H -0.107(9) -0.508(7) 0.092(7)
H9 H -0.284(8) -0.492(7) 0.078(6)
N1 N -0.1719(3) -0.0506(3) 0.3719(2)
C6 C -0.0327(5) -0.1458(3) 0.3802(3)
C7 C -0.1858(4) 0.0353(4) 0.5218(3)
H10 H -0.122(7) 0.019(6) 0.323(5)
H11 H -0.309(7) -0.126(6) 0.318(5)
H12 H -0.022(7) -0.191(5) 0.283(5)
H13 H -0.099(7) -0.229(6) 0.417(5)
H14 H -0.271(7) 0.093(5) 0.508(5)
H15 H -0.255(7) -0.045(6) 0.565(5)
C7A C 0.1858(4) -0.0353(4) 0.4782(3)
N1A N 0.1719(3) 0.0506(3) 0.6281(2)
C6A C 0.0327(5) 0.1458(3) 0.6198(3)
H12A H 0.022(7) 0.191(5) 0.717(5)
H13A H 0.099(7) 0.229(6) 0.583(5)
H10A H 0.122(7) -0.019(6) 0.677(5)
H11A H 0.309(7) 0.126(6) 0.682(5)
H14A H 0.271(7) -0.093(5) 0.492(5)
H15A H 0.255(7) 0.045(6) 0.435(5)
loop_
_geom_bond_atom_site_label_1
_geom_bond_atom_site_label_2
_geom_bond_site_symmetry_1
_geom_bond_site_symmetry_2
Ni1 O1 1_555 1_555
O1 H1 1_555 1_555
O2 Ni1 1_555 1_555
O3 Ni1 1_555 1_555
O4 C4 1_555 1_555
O5 C5 1_555 1_555
O6 C5 1_555 1_555
C1 C2 1_555 1_555
C2 C3 1_555 1_555
C3 C5 1_555 1_555
C4 O3 1_555 1_555
H2 O1 1_555 1_555
H3 O2 1_555 1_555
H4 O2 1_555 1_555
H5 C1 1_555 1_555
O7 H6 1_555 1_555
H7 O7 1_555 1_555
O8 H8 1_555 1_555
H9 O8 1_555 1_555
N1 C6 1_555 1_555
C6 H12 1_555 1_555
C7 N1 1_555 1_555
H10 N1 1_555 1_555
H11 N1 1_555 1_555
H13 C6 1_555 1_555
H14 C7 1_555 1_555
H15 C7 1_555 1_555
C3A C1 1_555 1_555
C2A C3A 1_555 1_555
C1A C3 1_555 1_555
H5A C1A 1_555 1_555
C4A C2A 1_555 1_555
O3A C4A 1_555 1_555
O4A C4A 1_555 1_555
C5A C3A 1_555 1_555
O5A C5A 1_555 1_555
O6A C5A 1_555 1_555
O1A Ni1 1_555 1_555
H1A O1A 1_555 1_555
H2A O1A 1_555 1_555
O2A Ni1 1_555 1_555
H3A O2A 1_555 1_555
H4A O2A 1_555 1_555
O3A_2 Ni1 1_555 1_555
Ni1_2 O3A 1_555 1_555
C7A C6 1_555 1_555
N1A C7A 1_555 1_555
C6A C7 1_555 1_555
H12A C6A 1_555 1_555
H13A C6A 1_555 1_555
H10A N1A 1_555 1_555
H11A N1A 1_555 1_555
H14A C7A 1_555 1_555
H15A C7A 1_555 1_555
C2 C4 1_555 1_555
C2A C1A 1_555 1_555
N1A C6A 1_555 1_555

#END
