
#######################################################################
#
#                 Cambridge Crystallographic Data Centre
#                                CCDC 
#
#######################################################################
#
# If this CIF has been generated from an entry in the Cambridge 
# Structural Database, then it will include bibliographic, chemical, 
# crystal, experimental, refinement or atomic coordinate data resulting 
# from the CCDC's data processing and validation procedures.
#
#######################################################################

data_METQOR
_symmetry_cell_setting           triclinic
_symmetry_space_group_name_H-M   'P -1'
_symmetry_Int_Tables_number      2
_space_group_name_Hall           '-P 1'
loop_
_symmetry_equiv_pos_site_id
_symmetry_equiv_pos_as_xyz
1 x,y,z
2 -x,-y,-z
_cell_length_a                   6.8668(14)
_cell_length_b                   9.1137(18)
_cell_length_c                   9.6982(19)
_cell_angle_alpha                104.63(3)
_cell_angle_beta                 98.04(3)
_cell_angle_gamma                109.66(3)
_cell_volume                     535.919
loop_
_atom_site_label
_atom_site_type_symbol
_atom_site_fract_x
_atom_site_fract_y
_atom_site_fract_z
Co1 Co 0.0000 0.0000 0.0000
O1 O 0.2567(3) 0.1717(3) -0.0432(2)
O2 O 0.2038(3) -0.0978(3) 0.0871(2)
O3 O 0.0286(3) 0.1627(2) 0.2127(2)
O4 O 0.2740(6) 0.3972(3) 0.2162(5)
O5 O -0.3451(3) 0.2554(2) 0.1302(2)
O6 O -0.4640(3) 0.1262(3) 0.2880(2)
C1 C 0.2129(5) 0.5413(3) 0.4996(3)
C2 C 0.0573(5) 0.4126(3) 0.3823(3)
C3 C -0.1581(4) 0.3723(3) 0.3828(3)
C4 C 0.1265(5) 0.3187(4) 0.2606(4)
C5 C -0.3363(4) 0.2395(3) 0.2565(3)
H1 H 0.391(10) 0.183(7) 0.003(7)
H2 H 0.245(10) 0.252(8) -0.018(7)
H3 H 0.248(9) -0.143(7) 0.018(7)
H4 H 0.291(10) -0.034(8) 0.143(7)
H5 H 0.365(9) 0.568(7) 0.505(6)
C3A C 0.1581(4) 0.6277(3) 0.6172(3)
C2A C -0.0573(5) 0.5874(3) 0.6177(3)
C1A C -0.2129(5) 0.4587(3) 0.5004(3)
H5A H -0.365(9) 0.432(7) 0.495(6)
C4A C -0.1265(5) 0.6813(4) 0.7394(4)
O3A O -0.0286(3) 0.8373(2) 0.7873(2)
O4A O -0.2740(6) 0.6028(3) 0.7838(5)
C5A C 0.3363(4) 0.7605(3) 0.7435(3)
O5A O 0.3451(3) 0.7446(2) 0.8698(2)
O6A O 0.4640(3) 0.8738(3) 0.7120(2)
O1A O -0.2567(3) -0.1717(3) 0.0432(2)
H1A H -0.391(10) -0.183(7) -0.003(7)
H2A H -0.245(10) -0.252(8) 0.018(7)
O2A O -0.2038(3) 0.0978(3) -0.0871(2)
H3A H -0.248(9) 0.143(7) -0.018(7)
H4A H -0.291(10) 0.034(8) -0.143(7)
O3A_2 O -0.0286(3) -0.1627(2) -0.2127(2)
Co1_2 Co 0.0000 1.0000 1.0000
O7 O 0.4073(4) -0.2681(3) 0.2666(3)
H12 H 0.388(10) -0.364(7) 0.246(7)
H13 H 0.315(9) -0.260(7) 0.210(6)
O8 O -0.1308(18) -0.4480(6) 0.0833(7)
H14 H -0.080(13) -0.497(9) 0.095(9)
H15 H -0.251(9) -0.485(9) 0.079(8)
N1 N -0.1736(4) -0.0497(3) 0.3726(3)
C6 C -0.0358(5) -0.1458(4) 0.3807(4)
C7 C -0.1848(5) 0.0355(4) 0.5230(4)
H6 H -0.123(9) 0.023(7) 0.326(7)
H7 H -0.316(10) -0.125(7) 0.320(7)
H8 H -0.025(9) -0.192(7) 0.282(7)
H9 H -0.105(9) -0.232(7) 0.422(7)
H10 H -0.269(9) 0.096(7) 0.513(6)
H11 H -0.256(9) -0.048(7) 0.569(6)
C7A C 0.1848(5) -0.0355(4) 0.4770(4)
N1A N 0.1736(4) 0.0497(3) 0.6274(3)
C6A C 0.0358(5) 0.1458(4) 0.6193(4)
H8A H 0.025(9) 0.192(7) 0.718(7)
H9A H 0.105(9) 0.232(7) 0.578(7)
H6A H 0.123(9) -0.023(7) 0.674(7)
H7A H 0.316(10) 0.125(7) 0.680(7)
H10A H 0.269(9) -0.096(7) 0.487(6)
H11A H 0.256(9) 0.048(7) 0.431(6)
loop_
_geom_bond_atom_site_label_1
_geom_bond_atom_site_label_2
_geom_bond_site_symmetry_1
_geom_bond_site_symmetry_2
Co1 O1 1_555 1_555
O1 H1 1_555 1_555
O2 Co1 1_555 1_555
O3 Co1 1_555 1_555
O4 C4 1_555 1_555
O5 C5 1_555 1_555
O6 C5 1_555 1_555
O7 H12 1_555 1_555
O8 H14 1_555 1_555
N1 C6 1_555 1_555
C1 C2 1_555 1_555
C2 C3 1_555 1_555
C3 C5 1_555 1_555
C4 O3 1_555 1_555
C6 H8 1_555 1_555
C7 N1 1_555 1_555
H2 O1 1_555 1_555
H3 O2 1_555 1_555
H4 O2 1_555 1_555
H5 C1 1_555 1_555
H6 N1 1_555 1_555
H7 N1 1_555 1_555
H9 C6 1_555 1_555
H10 C7 1_555 1_555
H11 C7 1_555 1_555
H13 O7 1_555 1_555
H15 O8 1_555 1_555
C3A C1 1_555 1_555
C2A C3A 1_555 1_555
C1A C3 1_555 1_555
H5A C1A 1_555 1_555
C4A C2A 1_555 1_555
O3A C4A 1_555 1_555
O4A C4A 1_555 1_555
C5A C3A 1_555 1_555
O5A C5A 1_555 1_555
O6A C5A 1_555 1_555
C7A C6 1_555 1_555
N1A C7A 1_555 1_555
C6A C7 1_555 1_555
H8A C6A 1_555 1_555
H9A C6A 1_555 1_555
H6A N1A 1_555 1_555
H7A N1A 1_555 1_555
H10A C7A 1_555 1_555
H11A C7A 1_555 1_555
O1A Co1 1_555 1_555
H1A O1A 1_555 1_555
H2A O1A 1_555 1_555
O2A Co1 1_555 1_555
H3A O2A 1_555 1_555
H4A O2A 1_555 1_555
O3A_2 Co1 1_555 1_555
Co1_2 O3A 1_555 1_555
C2 C4 1_555 1_555
C2A C1A 1_555 1_555
N1A C6A 1_555 1_555

#END
