
#######################################################################
#
#                 Cambridge Crystallographic Data Centre
#                                CCDC 
#
#######################################################################
#
# If this CIF has been generated from an entry in the Cambridge 
# Structural Database, then it will include bibliographic, chemical, 
# crystal, experimental, refinement or atomic coordinate data resulting 
# from the CCDC's data processing and validation procedures.
#
#######################################################################

data_METQOR01
_symmetry_cell_setting           triclinic
_symmetry_space_group_name_H-M   'P -1'
_symmetry_Int_Tables_number      2
_space_group_name_Hall           '-P 1'
loop_
_symmetry_equiv_pos_site_id
_symmetry_equiv_pos_as_xyz
1 x,y,z
2 -x,-y,-z
_cell_length_a                   6.8910(8)
_cell_length_b                   9.1326(9)
_cell_length_c                   9.7230(10)
_cell_angle_alpha                104.854(8)
_cell_angle_beta                 98.147(8)
_cell_angle_gamma                109.648(8)
_cell_volume                     539.27
loop_
_atom_site_label
_atom_site_type_symbol
_atom_site_fract_x
_atom_site_fract_y
_atom_site_fract_z
C1 C 0.2874(2) -0.54061(17) -0.00023(16)
H1 H 0.141(4) -0.568(3) 0.000(2)
C2 C 0.4433(2) -0.41146(17) 0.11697(15)
C3 C 0.3739(3) -0.31718(19) 0.23849(18)
C4 C 0.3422(2) -0.62829(16) -0.11746(15)
C7 C 0.1641(2) -0.76169(17) -0.24351(16)
O1 O 0.47170(17) -0.16197(12) 0.28676(11)
O2 O 0.2278(4) -0.39597(19) 0.2830(3)
O3 O 0.15430(18) -0.74611(15) -0.36918(12)
O4 O 0.0379(2) -0.87452(15) -0.21206(14)
O5 O 0.24398(19) -0.17301(16) 0.54165(14)
H6 H 0.120(5) -0.187(4) 0.492(4)
H7 H 0.247(6) -0.258(5) 0.518(4)
O6 O 0.29641(18) 0.09671(14) 0.41332(13)
H8 H 0.261(4) 0.142(3) 0.476(3)
H9 H 0.192(5) 0.026(3) 0.349(3)
Co1 Co 0.5000 0.0000 0.5000
C1A C 0.7126(2) -0.45939(17) 0.00023(16)
H1A H 0.859(4) -0.432(3) 0.000(2)
C2A C 0.5567(2) -0.58854(17) -0.11697(15)
C3A C 0.6261(3) -0.68282(19) -0.23849(18)
C4A C 0.6578(2) -0.37171(16) 0.11746(15)
C7A C 0.8359(2) -0.23831(17) 0.24351(16)
O1A O 0.52830(17) -0.83803(12) -0.28676(11)
O1A_2 O 0.52830(17) 0.16197(12) 0.71324(11)
O2A O 0.7722(4) -0.60403(19) -0.2830(3)
O3A O 0.84570(18) -0.25389(15) 0.36918(12)
O4A O 0.9621(2) -0.12548(15) 0.21206(14)
O5A O 0.75602(19) 0.17301(16) 0.45835(14)
H6A H 0.880(5) 0.187(4) 0.508(4)
H7A H 0.753(6) 0.258(5) 0.482(4)
O6A O 0.70359(18) -0.09671(14) 0.58668(13)
H8A H 0.739(4) -0.142(3) 0.524(3)
H9A H 0.808(5) -0.026(3) 0.651(3)
Co1_2 Co 0.5000 -1.0000 -0.5000
C5 C 0.3151(3) 0.0338(3) 0.0225(2)
H2 H 0.250(4) -0.048(3) 0.061(3)
H3 H 0.239(4) 0.097(3) 0.017(3)
C6 C 0.5334(3) 0.1443(2) 0.1197(2)
H4 H 0.606(4) 0.229(3) 0.083(3)
H5 H 0.522(4) 0.190(3) 0.211(3)
N1 N 0.3273(2) -0.0507(2) -0.12718(16)
H14 H 0.377(4) 0.021(3) -0.171(3)
H15 H 0.198(5) -0.122(4) -0.180(3)
C5A C 0.6849(3) -0.0338(3) -0.0225(2)
H2A H 0.750(4) 0.048(3) -0.061(3)
H3A H 0.761(4) -0.097(3) -0.017(3)
C6A C 0.4666(3) -0.1443(2) -0.1197(2)
H4A H 0.394(4) -0.229(3) -0.083(3)
H5A H 0.478(4) -0.190(3) -0.211(3)
N1A N 0.6727(2) 0.0507(2) 0.12718(16)
H14A H 0.623(4) -0.021(3) 0.171(3)
H15A H 0.802(5) 0.122(4) 0.180(3)
O7 O 0.6541(11) -0.5488(5) 0.4224(5)
H10 H 0.560(3) -0.531(3) 0.400(2)
H11 H 0.726(12) -0.587(9) 0.381(7)
O8 O -0.0924(3) -0.2694(2) -0.2352(2)
H12 H -0.092(5) -0.361(4) -0.254(4)
H13 H -0.182(8) -0.267(6) -0.304(5)
loop_
_geom_bond_atom_site_label_1
_geom_bond_atom_site_label_2
_geom_bond_site_symmetry_1
_geom_bond_site_symmetry_2
C1 H1 1_555 1_555
C2 C1 1_555 1_555
C3 C2 1_555 1_555
C4 C1 1_555 1_555
C5 H2 1_555 1_555
H3 C5 1_555 1_555
C6 C5 1_555 1_555
H4 C6 1_555 1_555
H5 C6 1_555 1_555
C7 C4 1_555 1_555
O1 C3 1_555 1_555
O2 C3 1_555 1_555
O3 C7 1_555 1_555
O4 C7 1_555 1_555
O5 H6 1_555 1_555
H7 O5 1_555 1_555
O6 H8 1_555 1_555
H9 O6 1_555 1_555
O7 H10 1_555 1_555
H11 O7 1_555 1_555
O8 H12 1_555 1_555
H13 O8 1_555 1_555
Co1 O1 1_555 1_555
N1 C5 1_555 1_555
H14 N1 1_555 1_555
H15 N1 1_555 1_555
C1A H1A 1_555 1_555
C2A C4 1_555 1_555
C3A C2A 1_555 1_555
C4A C2 1_555 1_555
C5A H2A 1_555 1_555
H3A C5A 1_555 1_555
C6A N1 1_555 1_555
H4A C6A 1_555 1_555
H5A C6A 1_555 1_555
C7A C4A 1_555 1_555
O1A C3A 1_555 1_555
O1A_2 Co1 1_555 1_555
O2A C3A 1_555 1_555
O3A C7A 1_555 1_555
O4A C7A 1_555 1_555
O5A Co1 1_555 1_555
H6A O5A 1_555 1_555
H7A O5A 1_555 1_555
O6A Co1 1_555 1_555
H8A O6A 1_555 1_555
H9A O6A 1_555 1_555
Co1_2 O1A 1_555 1_555
N1A C6 1_555 1_555
H14A N1A 1_555 1_555
H15A N1A 1_555 1_555
O5 Co1 1_555 1_555
O6 Co1 1_555 1_555
C1A C2A 1_555 1_555
C1A C4A 1_555 1_555
C5A C6A 1_555 1_555
C5A N1A 1_555 1_555

#END
