
#######################################################################
#
#                 Cambridge Crystallographic Data Centre
#                                CCDC 
#
#######################################################################
#
# If this CIF has been generated from an entry in the Cambridge 
# Structural Database, then it will include bibliographic, chemical, 
# crystal, experimental, refinement or atomic coordinate data resulting 
# from the CCDC's data processing and validation procedures.
#
#######################################################################

data_METSAG
_symmetry_cell_setting           monoclinic
_symmetry_space_group_name_H-M   'P 21/n'
_symmetry_Int_Tables_number      14
_space_group_name_Hall           '-P 2yn'
loop_
_symmetry_equiv_pos_site_id
_symmetry_equiv_pos_as_xyz
1 x,y,z
2 1/2-x,1/2+y,1/2-z
3 -x,-y,-z
4 1/2+x,1/2-y,1/2+z
_cell_length_a                   7.8409(2)
_cell_length_b                   21.4009(7)
_cell_length_c                   13.1791(3)
_cell_angle_alpha                90
_cell_angle_beta                 97.195(2)
_cell_angle_gamma                90
_cell_volume                     2194.07
loop_
_atom_site_label
_atom_site_type_symbol
_atom_site_fract_x
_atom_site_fract_y
_atom_site_fract_z
Cu1 Cu 0.56712(5) 0.09899(2) 0.66860(3)
C1 C 0.2411(4) 0.21107(16) 0.7969(2)
C2 C 0.2750(4) 0.25289(16) 0.8778(2)
H1 H 0.3878 0.2595 0.9069
C3 C 0.1438(4) 0.28457(16) 0.9151(2)
C4 C -0.0248(5) 0.27449(19) 0.8724(3)
H2 H -0.1142 0.2951 0.8987
C5 C -0.0605(5) 0.2336(2) 0.7903(3)
H3 H -0.1733 0.2274 0.7608
C6 C 0.0720(5) 0.20242(18) 0.7531(3)
H4 H 0.0483 0.1753 0.6981
C7 C 0.3838(4) 0.17441(17) 0.7599(3)
C8 C 0.1854(5) 0.32871(17) 1.0033(3)
C9 C 0.4664(4) -0.02542(17) 0.7290(2)
C10 C 0.5874(5) -0.07974(18) 0.8781(3)
N1 N 0.6616(4) -0.02807(15) 0.9154(2)
C11 C 0.6375(4) 0.02455(17) 0.8607(2)
C12 C 0.6167(7) -0.1377(2) 0.9390(3)
H5 H 0.7022 -0.1301 0.9965
H6 H 0.6557 -0.1701 0.8971
H7 H 0.5113 -0.1504 0.9629
N2 N 0.7086(5) 0.07697(15) 0.8994(2)
H8 H 0.7689 0.0767 0.9586
H9 H 0.6945 0.1112 0.8653
N3 N 0.5485(4) 0.02706(13) 0.76478(19)
C19 C 0.4813(5) -0.07939(19) 0.7839(3)
H17 H 0.4227 -0.1152 0.7597
C20 C 0.3609(5) -0.0202(2) 0.6267(3)
H18 H 0.2787 0.0129 0.6281
H19 H 0.3015 -0.0589 0.6106
H20 H 0.4347 -0.0114 0.5756
O1 O 0.3448(3) 0.13265(12) 0.69321(18)
O2 O 0.5372(3) 0.18595(12) 0.7953(2)
O3 O 0.3390(3) 0.34437(15) 1.0266(2)
O4 O 0.0599(3) 0.34829(13) 1.04698(19)
O5 O 0.8004(4) 0.07415(18) 0.6585(3)
H23 H 0.880(6) 0.048(2) 0.662(5)
H24 H 0.847(6) 0.091(2) 0.611(3)
Cu1C Cu 0.06712(5) 0.40101(2) 1.16860(3)
O4C O 0.5599(3) 0.15171(13) 0.54698(19)
C13 C 0.9360(5) 0.02829(18) 0.1679(3)
C14 C 1.0695(5) 0.08408(19) 0.3043(3)
C15 C 1.0308(5) 0.13806(19) 0.2519(3)
H10 H 1.0612 0.1766 0.2813
C16 C 0.9445(5) 0.13412(18) 0.1533(3)
C17 C 0.8990(7) 0.1917(2) 0.0906(3)
H11 H 0.9437 0.1881 0.0262
H12 H 0.9481 0.2277 0.1266
H13 H 0.7763 0.1960 0.0787
C18 C 1.1605(6) 0.0833(2) 0.4116(3)
H14 H 1.1147 0.0504 0.4495
H15 H 1.1439 0.1227 0.4439
H16 H 1.2811 0.0764 0.4099
N4 N 0.8973(4) 0.07929(15) 0.1114(2)
N5 N 1.0254(4) 0.02806(15) 0.2635(2)
N6 N 0.8844(5) -0.02695(17) 0.1279(3)
H21 H 0.8282 -0.0288 0.0676
H22 H 0.9074 -0.0606 0.1624
loop_
_geom_bond_atom_site_label_1
_geom_bond_atom_site_label_2
_geom_bond_site_symmetry_1
_geom_bond_site_symmetry_2
Cu1 N3 1_555 1_555
C1 C2 1_555 1_555
C2 H1 1_555 1_555
C3 C2 1_555 1_555
C4 C3 1_555 1_555
H2 C4 1_555 1_555
C5 C4 1_555 1_555
H3 C5 1_555 1_555
C6 C1 1_555 1_555
H4 C6 1_555 1_555
C7 C1 1_555 1_555
C8 C3 1_555 1_555
C9 N3 1_555 1_555
C10 N1 1_555 1_555
N1 C11 1_555 1_555
C11 N2 1_555 1_555
C12 C10 1_555 1_555
H5 C12 1_555 1_555
H6 C12 1_555 1_555
H7 C12 1_555 1_555
N2 H8 1_555 1_555
H9 N2 1_555 1_555
C13 N4 1_555 1_555
C14 C15 1_555 1_555
C15 H10 1_555 1_555
C16 C15 1_555 1_555
C17 C16 1_555 1_555
H11 C17 1_555 1_555
H12 C17 1_555 1_555
H13 C17 1_555 1_555
C18 C14 1_555 1_555
H14 C18 1_555 1_555
H15 C18 1_555 1_555
H16 C18 1_555 1_555
N3 C11 1_555 1_555
C19 C9 1_555 1_555
H17 C19 1_555 1_555
C20 C9 1_555 1_555
H18 C20 1_555 1_555
H19 C20 1_555 1_555
H20 C20 1_555 1_555
N4 C16 1_555 1_555
N5 C13 1_555 1_555
N6 C13 1_555 1_555
H21 N6 1_555 1_555
H22 N6 1_555 1_555
O1 Cu1 1_555 1_555
O2 Cu1 1_555 1_555
O3 C8 1_555 1_555
O4 C8 1_555 1_555
O5 Cu1 1_555 1_555
H23 O5 1_555 1_555
H24 O5 1_555 1_555
Cu1C O4 1_555 1_555
O4C Cu1 1_555 1_555
C5 C6 1_555 1_555
C7 O1 1_555 1_555
C7 O2 1_555 1_555
C10 C19 1_555 1_555
C14 N5 1_555 1_555

#END
