
#######################################################################
#
#                 Cambridge Crystallographic Data Centre
#                                CCDC 
#
#######################################################################
#
# If this CIF has been generated from an entry in the Cambridge 
# Structural Database, then it will include bibliographic, chemical, 
# crystal, experimental, refinement or atomic coordinate data resulting 
# from the CCDC's data processing and validation procedures.
#
#######################################################################

data_METZEQ
_symmetry_cell_setting           monoclinic
_symmetry_space_group_name_H-M   'P 21/a'
_symmetry_Int_Tables_number      14
_space_group_name_Hall           '-P 2yab'
loop_
_symmetry_equiv_pos_site_id
_symmetry_equiv_pos_as_xyz
1 x,y,z
2 1/2+x,1/2-y,z
3 -x,-y,-z
4 1/2-x,1/2+y,-z
_cell_length_a                   8.343(3)
_cell_length_b                   12.337(6)
_cell_length_c                   9.390(3)
_cell_angle_alpha                90
_cell_angle_beta                 97.35(3)
_cell_angle_gamma                90
_cell_volume                     958.549
loop_
_atom_site_label
_atom_site_type_symbol
_atom_site_fract_x
_atom_site_fract_y
_atom_site_fract_z
Cu1 Cu 0.0000 0.0000 0.0000
Cl1 Cl 0.2369(4) 0.0772(3) 0.3273(3)
S1 S 0.2329(4) -0.1244(2) -0.1645(3)
S2 S 0.4050(4) -0.2903(3) 0.1312(3)
O1 O 0.1878(10) -0.0168(6) -0.1018(9)
O2 O 0.5408(11) -0.3567(7) 0.0844(9)
O3 O 0.1833(13) 0.1025(9) 0.1826(10)
O4 O 0.3278(17) -0.0185(10) 0.3353(13)
O5 O 0.0996(15) 0.0606(13) 0.3938(14)
O6 O 0.3327(17) 0.1611(10) 0.3926(14)
C1 C 0.2830(19) -0.0925(13) -0.3369(12)
H1 H 0.1858 -0.0824 -0.4021
H2 H 0.3448 -0.1507 -0.3705
H3 H 0.3458 -0.0271 -0.3319
C2 C 0.4346(17) -0.1440(11) -0.0798(15)
H4 H 0.4793 -0.2073 -0.1218
H5 H 0.4990 -0.0820 -0.1009
C3 C 0.4511(14) -0.1586(11) 0.0778(13)
H6 H 0.3801 -0.1077 0.1176
H7 H 0.5611 -0.1414 0.1178
C4 C 0.4506(17) -0.2760(12) 0.3178(12)
H8 H 0.5590 -0.2495 0.3405
H9 H 0.3766 -0.2257 0.3522
H10 H 0.4413 -0.3451 0.3631
S1B S -0.2329(4) 0.1244(2) 0.1645(3)
S2B S -0.4050(4) 0.2903(3) -0.1312(3)
O1B O -0.1878(10) 0.0168(6) 0.1018(9)
O2B O -0.5408(11) 0.3567(7) -0.0844(9)
C1B C -0.2830(19) 0.0925(13) 0.3369(12)
H1B H -0.1858 0.0824 0.4021
H2B H -0.3448 0.1507 0.3705
H3B H -0.3458 0.0271 0.3319
C2B C -0.4346(17) 0.1440(11) 0.0798(15)
H4B H -0.4793 0.2073 0.1218
H5B H -0.4990 0.0820 0.1009
C3B C -0.4511(14) 0.1586(11) -0.0778(13)
H6B H -0.3801 0.1077 -0.1176
H7B H -0.5611 0.1414 -0.1178
C4B C -0.4506(17) 0.2760(12) -0.3178(12)
H8B H -0.5590 0.2495 -0.3405
H9B H -0.3766 0.2257 -0.3522
H10B H -0.4413 0.3451 -0.3631
Cl1B Cl -0.2369(4) -0.0772(3) -0.3273(3)
O3B O -0.1833(13) -0.1025(9) -0.1826(10)
O4B O -0.3278(17) 0.0185(10) -0.3353(13)
O5B O -0.0996(15) -0.0606(13) -0.3938(14)
O6B O -0.3327(17) -0.1611(10) -0.3926(14)
O2A O 0.0408(11) -0.1433(7) 0.0844(9)
O2C O -0.0408(11) 0.1433(7) -0.0844(9)
Cu1A Cu 0.5000 -0.5000 0.0000
Cu1A_2 Cu -0.5000 0.5000 0.0000
loop_
_geom_bond_atom_site_label_1
_geom_bond_atom_site_label_2
_geom_bond_site_symmetry_1
_geom_bond_site_symmetry_2
Cu1 O1 1_555 1_555
Cl1 O3 1_555 1_555
S1 O1 1_555 1_555
S2 O2 1_555 1_555
O2 Cu1A 1_555 1_555
O3 Cu1 1_555 1_555
O4 Cl1 1_555 1_555
O5 Cl1 1_555 1_555
O6 Cl1 1_555 1_555
C1 S1 1_555 1_555
H1 C1 1_555 1_555
H2 C1 1_555 1_555
H3 C1 1_555 1_555
C2 S1 1_555 1_555
H4 C2 1_555 1_555
H5 C2 1_555 1_555
C3 S2 1_555 1_555
H6 C3 1_555 1_555
H7 C3 1_555 1_555
C4 S2 1_555 1_555
H8 C4 1_555 1_555
H9 C4 1_555 1_555
H10 C4 1_555 1_555
S1B O1B 1_555 1_555
S2B O2B 1_555 1_555
O1B Cu1 1_555 1_555
O2B Cu1A_2 1_555 1_555
C1B S1B 1_555 1_555
H1B C1B 1_555 1_555
H2B C1B 1_555 1_555
H3B C1B 1_555 1_555
C2B S1B 1_555 1_555
H4B C2B 1_555 1_555
H5B C2B 1_555 1_555
C3B S2B 1_555 1_555
H6B C3B 1_555 1_555
H7B C3B 1_555 1_555
C4B S2B 1_555 1_555
H8B C4B 1_555 1_555
H9B C4B 1_555 1_555
H10B C4B 1_555 1_555
Cl1B O3B 1_555 1_555
O3B Cu1 1_555 1_555
O4B Cl1B 1_555 1_555
O5B Cl1B 1_555 1_555
O6B Cl1B 1_555 1_555
O2A Cu1 1_555 1_555
O2C Cu1 1_555 1_555
C2 C3 1_555 1_555
C2B C3B 1_555 1_555

#END
