
#######################################################################
#
#                 Cambridge Crystallographic Data Centre
#                                CCDC 
#
#######################################################################
#
# If this CIF has been generated from an entry in the Cambridge 
# Structural Database, then it will include bibliographic, chemical, 
# crystal, experimental, refinement or atomic coordinate data resulting 
# from the CCDC's data processing and validation procedures.
#
#######################################################################

data_MEVBOF
_symmetry_cell_setting           triclinic
_symmetry_space_group_name_H-M   'P -1'
_symmetry_Int_Tables_number      2
_space_group_name_Hall           '-P 1'
loop_
_symmetry_equiv_pos_site_id
_symmetry_equiv_pos_as_xyz
1 x,y,z
2 -x,-y,-z
_cell_length_a                   9.6646(11)
_cell_length_b                   10.5520(13)
_cell_length_c                   12.6177(15)
_cell_angle_alpha                107.239(2)
_cell_angle_beta                 99.844(2)
_cell_angle_gamma                113.682(2)
_cell_volume                     1061.8
loop_
_atom_site_label
_atom_site_type_symbol
_atom_site_fract_x
_atom_site_fract_y
_atom_site_fract_z
Cu1 Cu 0.35129(6) -0.14226(6) 0.38373(4)
Cu2 Cu 0.24713(6) -0.00441(6) 0.69830(4)
Cu3 Cu 0.05368(6) 0.05931(6) 0.40788(4)
I1 I 0.32751(3) -0.38976(3) 0.24632(2)
I2 I 0.38739(3) 0.11572(3) 0.92350(2)
I3 I -0.02195(3) -0.25983(3) 0.65500(2)
S1 S 0.38335(10) -0.08345(10) 0.58115(8)
S2 S 0.20730(10) 0.14292(10) 0.60272(7)
S3 S 0.17476(11) -0.06716(12) 0.31812(8)
N1 N 0.4704(4) -0.3005(4) 0.5602(3)
H1 H 0.4585 -0.3215 0.4853
N2 N 0.4794(4) -0.1839(4) 0.7384(3)
H2 H 0.4562 -0.1315 0.7941
N3 N 0.2522(4) 0.3467(4) 0.8116(3)
H3 H 0.2969 0.3088 0.8508
N4 N 0.1451(5) 0.3782(4) 0.6608(3)
H4 H 0.1129 0.3657 0.5871
N5 N 0.0068(4) -0.1125(4) 0.1042(3)
H5 H -0.0399 -0.0609 0.1337
N6 N 0.1736(6) -0.2013(5) 0.1010(3)
H6 H 0.2514 -0.2186 0.1280
C1 C 0.4465(4) -0.1946(4) 0.6286(3)
C2 C 0.5194(5) -0.3784(5) 0.6257(3)
H7 H 0.6135 -0.3867 0.6111
H8 H 0.4308 -0.4808 0.6049
C3 C 0.5610(5) -0.2730(5) 0.7535(3)
H9 H 0.5186 -0.3310 0.8000
H10 H 0.6782 -0.2073 0.7919
C4 C 0.2003(4) 0.2951(4) 0.6957(3)
C5 C 0.2263(6) 0.4751(5) 0.8671(4)
H11 H 0.3290 0.5675 0.9175
H12 H 0.1560 0.4522 0.9149
C6 C 0.1448(5) 0.4931(5) 0.7604(4)
H13 H 0.0343 0.4729 0.7561
H14 H 0.2065 0.5958 0.7634
C7 C 0.1155(4) -0.1303(4) 0.1686(3)
C8 C -0.0261(6) -0.1884(5) -0.0213(4)
H15 H -0.0078 -0.1165 -0.0597
H16 H -0.1377 -0.2720 -0.0604
C9 C 0.0945(6) -0.2487(5) -0.0246(3)
H17 H 0.0397 -0.3601 -0.0671
H18 H 0.1718 -0.2022 -0.0618
Cu1A Cu 0.64871(6) 0.14226(6) 0.61627(4)
Cu3A Cu -0.05368(6) -0.05931(6) 0.59212(4)
I3A I 0.02195(3) 0.25983(3) 0.34500(2)
S1A S 0.61665(10) 0.08345(10) 0.41885(8)
S2A S -0.20730(10) -0.14292(10) 0.39728(7)
loop_
_geom_bond_atom_site_label_1
_geom_bond_atom_site_label_2
_geom_bond_site_symmetry_1
_geom_bond_site_symmetry_2
Cu1 I1 1_555 1_555
Cu2 I2 1_555 1_555
Cu3 S2 1_555 1_555
I3 Cu2 1_555 1_555
S1 Cu1 1_555 1_555
S2 Cu2 1_555 1_555
S3 Cu1 1_555 1_555
N1 H1 1_555 1_555
N2 H2 1_555 1_555
N3 H3 1_555 1_555
N4 H4 1_555 1_555
N5 H5 1_555 1_555
N6 H6 1_555 1_555
C1 S1 1_555 1_555
C2 N1 1_555 1_555
H7 C2 1_555 1_555
H8 C2 1_555 1_555
C3 N2 1_555 1_555
H9 C3 1_555 1_555
H10 C3 1_555 1_555
C4 S2 1_555 1_555
C5 N3 1_555 1_555
H11 C5 1_555 1_555
H12 C5 1_555 1_555
C6 N4 1_555 1_555
H13 C6 1_555 1_555
H14 C6 1_555 1_555
C7 S3 1_555 1_555
C8 N5 1_555 1_555
H15 C8 1_555 1_555
H16 C8 1_555 1_555
C9 N6 1_555 1_555
H17 C9 1_555 1_555
H18 C9 1_555 1_555
Cu1A S1 1_555 1_555
Cu3A I3 1_555 1_555
I3A Cu3 1_555 1_555
S1A Cu1 1_555 1_555
S2A Cu3 1_555 1_555
Cu2 S1 1_555 1_555
Cu3 S3 1_555 1_555
S2 Cu3A 1_555 1_555
N1 C1 1_555 1_555
N2 C1 1_555 1_555
N3 C4 1_555 1_555
N4 C4 1_555 1_555
N5 C7 1_555 1_555
N6 C7 1_555 1_555
C2 C3 1_555 1_555
C5 C6 1_555 1_555
C8 C9 1_555 1_555
Cu1A S1A 1_555 1_555
Cu3A S2A 1_555 1_555

#END
