
#######################################################################
#
#                 Cambridge Crystallographic Data Centre
#                                CCDC 
#
#######################################################################
#
# If this CIF has been generated from an entry in the Cambridge 
# Structural Database, then it will include bibliographic, chemical, 
# crystal, experimental, refinement or atomic coordinate data resulting 
# from the CCDC's data processing and validation procedures.
#
#######################################################################

data_MEVBIZ
_symmetry_cell_setting           monoclinic
_symmetry_space_group_name_H-M   'C 2/c'
_symmetry_Int_Tables_number      15
_space_group_name_Hall           '-C 2yn'
loop_
_symmetry_equiv_pos_site_id
_symmetry_equiv_pos_as_xyz
1 x,y,z
2 1/2+x,1/2+y,z
3 -x,y,1/2-z
4 1/2-x,1/2+y,1/2-z
5 -x,-y,-z
6 1/2-x,1/2-y,-z
7 x,-y,1/2+z
8 1/2+x,1/2-y,1/2+z
_cell_length_a                   12.4153(11)
_cell_length_b                   13.7177(12)
_cell_length_c                   15.0099(16)
_cell_angle_alpha                90
_cell_angle_beta                 94.3440(10)
_cell_angle_gamma                90
_cell_volume                     2548.98
loop_
_atom_site_label
_atom_site_type_symbol
_atom_site_fract_x
_atom_site_fract_y
_atom_site_fract_z
Cd1 Cd -0.014885(11) 0.563568(10) 0.385151(10)
C1 C 0.12018(16) 0.85088(15) 0.32692(14)
C2 C 0.11703(17) 0.75145(15) 0.32510(14)
H1 H 0.1670 0.7116 0.2997
C3 C -0.02077(16) 0.79874(16) 0.39302(14)
H2 H -0.0835 0.7984 0.4231
C4 C 0.19959(17) 0.91803(15) 0.29604(14)
H3 H 0.1961 0.9829 0.3137
C5 C 0.27692(18) 0.89267(15) 0.24420(14)
H4 H 0.2787 0.8289 0.2234
C6 C 0.36032(16) 0.96167(15) 0.21814(13)
C7 C 0.39303(17) 0.63831(15) 0.41057(14)
C8 C 0.5530(2) 0.65102(18) 0.3681(2)
H5 H 0.6217 0.6362 0.3514
C9 C 0.41270(18) 0.73570(16) 0.39936(16)
H6 H 0.3658 0.7870 0.4084
C10 C 0.29816(17) 0.59827(16) 0.44656(14)
H7 H 0.2419 0.6417 0.4534
C11 C 0.28121(17) 0.50681(16) 0.47124(14)
H8 H 0.3320 0.4591 0.4607
C12 C 0.18298(17) 0.47982(17) 0.51510(14)
N1 N 0.02854(15) 0.71922(13) 0.36668(12)
N2 N 0.03122(14) 0.87944(13) 0.37081(12)
H9 H 0.0128 0.9384 0.3818
N3 N 0.51458(17) 0.74225(15) 0.37243(15)
N4 N 0.48272(15) 0.58450(16) 0.39016(14)
O1 O 0.36971(12) 1.04452(10) 0.25328(10)
O2 O 0.42127(12) 0.93272(10) 0.15825(10)
O3 O 0.10727(12) 0.54228(12) 0.51965(10)
O4 O 0.17741(14) 0.39665(13) 0.55066(12)
H10 H 0.550(2) 0.796(2) 0.367(2)
Cd1A Cd 0.485115(11) 1.063568(10) 0.385151(10)
Cd1C Cd 0.514885(11) 1.063568(10) 0.114849(10)
Cd1D Cd 0.014885(11) 0.436432(10) 0.614849(10)
O1A O -0.13029(12) 0.54452(10) 0.25328(10)
O2C O 0.07873(12) 0.43272(10) 0.34175(10)
O3D O -0.10727(12) 0.45772(12) 0.48035(10)
O4D O -0.17741(14) 0.60335(13) 0.44934(12)
O5 O 0.2611(10) 0.2324(8) 0.5627(8)
loop_
_geom_bond_atom_site_label_1
_geom_bond_atom_site_label_2
_geom_bond_site_symmetry_1
_geom_bond_site_symmetry_2
Cd1 N1 1_555 1_555
C1 C2 1_555 1_555
C2 H1 1_555 1_555
C3 H2 1_555 1_555
C4 C1 1_555 1_555
H3 C4 1_555 1_555
C5 C4 1_555 1_555
H4 C5 1_555 1_555
C6 C5 1_555 1_555
C7 C9 1_555 1_555
C8 H5 1_555 1_555
C9 H6 1_555 1_555
C10 C7 1_555 1_555
H7 C10 1_555 1_555
C11 C10 1_555 1_555
H8 C11 1_555 1_555
C12 C11 1_555 1_555
N1 C2 1_555 1_555
N2 C1 1_555 1_555
H9 N2 1_555 1_555
N3 C8 1_555 1_555
N4 C7 1_555 1_555
O1 C6 1_555 1_555
O2 C6 1_555 1_555
O3 Cd1 1_555 1_555
O4 C12 1_555 1_555
H10 N3 1_555 1_555
Cd1A O1 1_555 1_555
Cd1C O2 1_555 1_555
Cd1D O3 1_555 1_555
O1A Cd1 1_555 1_555
O2C Cd1 1_555 1_555
O3D Cd1 1_555 1_555
O4D Cd1 1_555 1_555
C3 N1 1_555 1_555
C3 N2 1_555 1_555
C8 N4 1_555 1_555
C9 N3 1_555 1_555
C12 O3 1_555 1_555
O4 Cd1D 1_555 1_555
Cd1D O3D 1_555 1_555

#END
