
#######################################################################
#
#                 Cambridge Crystallographic Data Centre
#                                CCDC 
#
#######################################################################
#
# If this CIF has been generated from an entry in the Cambridge 
# Structural Database, then it will include bibliographic, chemical, 
# crystal, experimental, refinement or atomic coordinate data resulting 
# from the CCDC's data processing and validation procedures.
#
#######################################################################

data_MEVDAS
_symmetry_cell_setting           monoclinic
_symmetry_space_group_name_H-M   'C c'
_symmetry_Int_Tables_number      9
_space_group_name_Hall           'C -2yc'
loop_
_symmetry_equiv_pos_site_id
_symmetry_equiv_pos_as_xyz
1 x,y,z
2 x,-y,1/2+z
3 1/2+x,1/2+y,z
4 1/2+x,1/2-y,1/2+z
_cell_length_a                   26.164(3)
_cell_length_b                   13.625(1)
_cell_length_c                   8.783(1)
_cell_angle_alpha                90
_cell_angle_beta                 93.77(1)
_cell_angle_gamma                90
_cell_volume                     3124.23
loop_
_atom_site_label
_atom_site_type_symbol
_atom_site_fract_x
_atom_site_fract_y
_atom_site_fract_z
Sb1 Sb -0.13583(6) 0.19795(11) 0.83052(17)
Sb2 Sb 0.03964(6) 0.18133(12) 0.78023(17)
Ag1 Ag -0.04737(9) 0.09627(13) 0.8559(2)
S1 S -0.2547(4) 0.1859(8) 0.9587(13)
C1 C -0.1984(13) 0.135(2) 0.943(4)
C2 C -0.1891(17) 0.039(3) 1.016(9)
H1 H -0.1589 -0.0013 1.0253
C3 C -0.245(2) 0.023(3) 1.072(9)
H2 H -0.2530 -0.0358 1.1242
C4 C -0.2768(14) 0.093(3) 1.052(5)
H3 H -0.3109 0.0900 1.0852
S2 S -0.2326(4) 0.2720(9) 0.5782(13)
C5 C -0.1714(15) 0.229(2) 0.606(5)
C6 C -0.1477(13) 0.221(3) 0.475(4)
H4 H -0.1134 0.1987 0.4609
C7 C -0.186(3) 0.251(5) 0.368(6)
H5 H -0.1757 0.2507 0.2652
C8 C -0.225(2) 0.280(5) 0.383(6)
H6 H -0.2492 0.3022 0.3050
S3 S -0.1835(5) 0.4166(9) 0.928(3)
C9 C -0.1350(10) 0.339(2) 0.927(3)
C10 C -0.0872(14) 0.385(2) 0.999(5)
H7 H -0.0530 0.3591 1.0081
C11 C -0.104(2) 0.481(3) 1.048(8)
H8 H -0.0804 0.5295 1.0885
C12 C -0.151(3) 0.498(5) 1.036(11)
H9 H -0.1666 0.5510 1.0889
S4 S 0.0635(6) 0.4059(7) 0.6427(12)
C13 C 0.0300(14) 0.3007(19) 0.616(3)
C14 C -0.0047(18) 0.295(3) 0.491(5)
H10 H -0.0264 0.2409 0.4618
C15 C -0.002(2) 0.381(5) 0.416(5)
H11 H -0.0196 0.3924 0.3187
C16 C 0.027(2) 0.449(4) 0.484(5)
H12 H 0.0282 0.5161 0.4503
S5 S 0.1401(4) 0.3065(10) 0.9478(14)
C17 C 0.0832(12) 0.2587(19) 0.959(3)
C18 C 0.0645(11) 0.266(2) 1.116(3)
H13 H 0.0323 0.2436 1.1494
C19 C 0.1029(16) 0.313(4) 1.202(4)
H14 H 0.1008 0.3215 1.3100
C20 C 0.140(2) 0.342(4) 1.139(5)
H15 H 0.1664 0.3802 1.1898
S6 S 0.1481(6) 0.1467(11) 0.601(2)
C21 C 0.0988(14) 0.098(2) 0.687(5)
C22 C 0.1040(18) 0.000(3) 0.709(5)
H16 H 0.0806 -0.0427 0.7568
C23 C 0.151(3) -0.031(4) 0.646(6)
H17 H 0.1651 -0.0961 0.6554
C24 C 0.1745(16) 0.041(5) 0.581(6)
H18 H 0.2033 0.0316 0.5196
N1 N -0.0536(13) 0.0968(17) 1.213(3)
O1 O -0.0478(13) 0.0344(17) 1.119(3)
O2 O -0.0583(19) 0.0789(15) 1.352(3)
O3 O -0.0623(15) 0.1841(15) 1.162(3)
O2A O -0.0583(19) -0.0789(15) 0.852(3)
Ag1A Ag -0.04737(9) -0.09627(13) 1.3559(2)
loop_
_geom_bond_atom_site_label_1
_geom_bond_atom_site_label_2
_geom_bond_site_symmetry_1
_geom_bond_site_symmetry_2
Sb1 Ag1 1_555 1_555
Sb2 Ag1 1_555 1_555
Ag1 O1 1_555 1_555
S1 C1 1_555 1_555
C1 Sb1 1_555 1_555
C2 C1 1_555 1_555
H1 C2 1_555 1_555
C3 C2 1_555 1_555
H2 C3 1_555 1_555
C4 S1 1_555 1_555
H3 C4 1_555 1_555
S2 C5 1_555 1_555
C5 Sb1 1_555 1_555
C6 C5 1_555 1_555
H4 C6 1_555 1_555
C7 C6 1_555 1_555
H5 C7 1_555 1_555
C8 S2 1_555 1_555
H6 C8 1_555 1_555
S3 C9 1_555 1_555
C9 Sb1 1_555 1_555
C10 C9 1_555 1_555
H7 C10 1_555 1_555
C11 C10 1_555 1_555
H8 C11 1_555 1_555
C12 S3 1_555 1_555
H9 C12 1_555 1_555
S4 C13 1_555 1_555
C13 Sb2 1_555 1_555
C14 C13 1_555 1_555
H10 C14 1_555 1_555
C15 C14 1_555 1_555
H11 C15 1_555 1_555
C16 S4 1_555 1_555
H12 C16 1_555 1_555
S5 C17 1_555 1_555
C17 Sb2 1_555 1_555
C18 C17 1_555 1_555
H13 C18 1_555 1_555
C19 C18 1_555 1_555
H14 C19 1_555 1_555
C20 S5 1_555 1_555
H15 C20 1_555 1_555
S6 C21 1_555 1_555
C21 Sb2 1_555 1_555
C22 C21 1_555 1_555
H16 C22 1_555 1_555
C23 C22 1_555 1_555
H17 C23 1_555 1_555
C24 S6 1_555 1_555
H18 C24 1_555 1_555
N1 O1 1_555 1_555
O2 N1 1_555 1_555
O3 N1 1_555 1_555
O2A Ag1 1_555 1_555
Ag1A O2 1_555 1_555
C3 C4 1_555 1_555
C7 C8 1_555 1_555
C11 C12 1_555 1_555
C15 C16 1_555 1_555
C19 C20 1_555 1_555
C23 C24 1_555 1_555

#END
