
#######################################################################
#
#                 Cambridge Crystallographic Data Centre
#                                CCDC 
#
#######################################################################
#
# If this CIF has been generated from an entry in the Cambridge 
# Structural Database, then it will include bibliographic, chemical, 
# crystal, experimental, refinement or atomic coordinate data resulting 
# from the CCDC's data processing and validation procedures.
#
#######################################################################

data_MEVLOO
_symmetry_cell_setting           triclinic
_symmetry_space_group_name_H-M   'P -1'
_symmetry_Int_Tables_number      2
_space_group_name_Hall           '-P 1'
loop_
_symmetry_equiv_pos_site_id
_symmetry_equiv_pos_as_xyz
1 x,y,z
2 -x,-y,-z
_cell_length_a                   7.3104(2)
_cell_length_b                   12.91410(10)
_cell_length_c                   15.7795(3)
_cell_angle_alpha                87.418(2)
_cell_angle_beta                 80.6940(10)
_cell_angle_gamma                89.963(2)
_cell_volume                     1468.57
loop_
_atom_site_label
_atom_site_type_symbol
_atom_site_fract_x
_atom_site_fract_y
_atom_site_fract_z
N1 N 0.3155(11) 0.5965(6) 0.8418(5)
N2 N 0.3680(10) 0.4102(6) 0.9185(4)
Cd1 Cd 0.42051(9) 0.45151(5) 0.76950(4)
O1 O 0.3529(9) 0.5374(6) 0.6375(4)
O2 O 0.1298(8) 0.4401(5) 0.7128(3)
O3 O -0.3208(10) 0.4035(5) 0.6908(4)
O4 O -0.2553(9) 0.5674(5) 0.7087(4)
O5 O 0.3663(9) 0.2705(5) 0.7585(4)
C1 C 0.1899(12) 0.5082(6) 0.4891(5)
H1 H 0.3184 0.5135 0.4819
C2 C -0.1030(12) 0.4897(6) 0.5835(5)
C3 C 0.0903(12) 0.4985(6) 0.5718(5)
C4 C 0.1971(13) 0.4919(7) 0.6458(5)
C5 C -0.2295(12) 0.4861(8) 0.6685(5)
C11 C 0.2979(16) 0.6911(8) 0.8057(7)
H3 H 0.3412 0.7023 0.7473
C12 C 0.2187(19) 0.7721(9) 0.8513(8)
H4 H 0.2046 0.8358 0.8233
C13 C 0.1614(18) 0.7594(9) 0.9366(8)
H5 H 0.1108 0.8151 0.9675
C14 C 0.1773(13) 0.6641(7) 0.9787(6)
C15 C 0.1184(14) 0.6455(9) 1.0677(7)
H6 H 0.0606 0.6983 1.1000
C16 C 0.1431(14) 0.5559(10) 1.1058(7)
H7 H 0.1081 0.5474 1.1651
C17 C 0.2256(13) 0.4677(7) 1.0567(6)
C18 C 0.2571(14) 0.3718(8) 1.0943(6)
H8 H 0.2225 0.3595 1.1532
C19 C 0.3395(14) 0.2947(8) 1.0444(6)
H9 H 0.3582 0.2292 1.0684
C20 C 0.3941(13) 0.3176(8) 0.9568(6)
H10 H 0.4517 0.2660 0.9230
C21 C 0.2824(12) 0.4818(7) 0.9682(5)
C22 C 0.2584(13) 0.5821(7) 0.9284(5)
C2A C 0.1030(12) 0.5103(6) 0.4165(5)
C3A C -0.0903(12) 0.5015(6) 0.4282(5)
C1A C -0.1899(12) 0.4918(6) 0.5109(5)
H1A H -0.3184 0.4865 0.5181
C4A C -0.1971(13) 0.5081(7) 0.3542(5)
O1A O -0.3529(9) 0.4626(6) 0.3625(4)
O2A O -0.1298(8) 0.5599(5) 0.2872(3)
C5A C 0.2295(12) 0.5139(8) 0.3315(5)
O3A O 0.3208(10) 0.5965(5) 0.3092(4)
O4A O 0.2553(9) 0.4326(5) 0.2913(4)
Cd1A Cd -0.42051(9) 0.54849(5) 0.23050(4)
N1A N -0.3155(11) 0.4035(6) 0.1582(5)
N2A N -0.3680(10) 0.5898(6) 0.0815(4)
C11A C -0.2979(16) 0.3089(8) 0.1943(7)
H3A H -0.3412 0.2977 0.2527
C12A C -0.2187(19) 0.2279(9) 0.1487(8)
H4A H -0.2046 0.1642 0.1767
C13A C -0.1614(18) 0.2406(9) 0.0634(8)
H5A H -0.1108 0.1849 0.0325
C14A C -0.1773(13) 0.3359(7) 0.0213(6)
C15A C -0.1184(14) 0.3545(9) -0.0677(7)
H6A H -0.0606 0.3017 -0.1000
C16A C -0.1431(14) 0.4441(10) -0.1058(7)
H7A H -0.1081 0.4526 -0.1651
C17A C -0.2256(13) 0.5323(7) -0.0567(6)
C18A C -0.2571(14) 0.6282(8) -0.0943(6)
H8A H -0.2225 0.6405 -0.1532
C19A C -0.3395(14) 0.7053(8) -0.0444(6)
H9A H -0.3582 0.7708 -0.0684
C20A C -0.3941(13) 0.6824(8) 0.0432(6)
H10A H -0.4517 0.7340 0.0770
C21A C -0.2824(12) 0.5182(7) 0.0318(5)
C22A C -0.2584(13) 0.4179(7) 0.0716(5)
O5A O -0.3663(9) 0.7295(5) 0.2415(4)
O3_2 O 0.6792(10) 0.4035(5) 0.6908(4)
Cd1_2 Cd -0.57949(9) 0.45151(5) 0.76950(4)
Cd1A_2 Cd 0.57949(9) 0.54849(5) 0.23050(4)
O3A_2 O -0.6792(10) 0.5965(5) 0.3092(4)
N3 N 0.0942(10) -0.0531(6) 0.6397(4)
N4 N 0.2446(11) 0.1347(6) 0.5830(4)
Cd2 Cd 0.10059(10) 0.09014(5) 0.72423(4)
O6 O -0.1573(9) 0.0225(4) 0.8048(4)
O7 O -0.3449(9) 0.1586(5) 0.8048(4)
O8 O -0.6805(9) 0.0224(5) 0.7968(4)
O9 O -0.8420(9) 0.1296(5) 0.8841(4)
O10 O -0.0262(9) 0.2490(5) 0.7221(5)
C6 C -0.3101(12) -0.0039(7) 0.9826(5)
H2 H -0.1814 -0.0068 0.9706
C7 C -0.4072(12) 0.0304(6) 0.9186(5)
C8 C -0.5998(12) 0.0342(6) 0.9350(5)
C9 C -0.2977(12) 0.0731(7) 0.8347(5)
C10 C -0.7148(13) 0.0666(7) 0.8689(5)
C23 C 0.0169(14) -0.1458(7) 0.6678(6)
H11 H -0.0421 -0.1533 0.7246
C24 C 0.0206(15) -0.2297(8) 0.6170(7)
H12 H -0.0343 -0.2925 0.6386
C25 C 0.1088(15) -0.2177(8) 0.5328(7)
H13 H 0.1159 -0.2734 0.4971
C26 C 0.1854(14) -0.1244(7) 0.5017(6)
C27 C 0.2749(16) -0.1074(9) 0.4133(7)
H14 H 0.2799 -0.1613 0.3759
C28 C 0.3503(15) -0.0159(11) 0.3847(6)
H15 H 0.4089 -0.0072 0.3279
C29 C 0.3419(13) 0.0706(8) 0.4411(6)
C30 C 0.4147(15) 0.1709(9) 0.4143(6)
H16 H 0.4720 0.1837 0.3577
C31 C 0.4013(15) 0.2470(8) 0.4697(7)
H17 H 0.4477 0.3128 0.4516
C32 C 0.3181(15) 0.2272(7) 0.5540(7)
H18 H 0.3129 0.2803 0.5922
C33 C 0.2561(13) 0.0573(7) 0.5263(5)
C34 C 0.1744(13) -0.0425(7) 0.5580(6)
C8A C -0.4002(12) -0.0342(6) 1.0650(5)
C7A C -0.5928(12) -0.0304(6) 1.0814(5)
C6A C -0.6899(12) 0.0039(7) 1.0174(5)
H2A H -0.8186 0.0068 1.0294
C9A C -0.7023(12) -0.0731(7) 1.1653(5)
O6A O -0.8427(9) -0.0225(4) 1.1952(4)
O7A O -0.6551(9) -0.1586(5) 1.1952(4)
C10A C -0.2852(13) -0.0666(7) 1.1311(5)
O8A O -0.3195(9) -0.0224(5) 1.2032(4)
O9A O -0.1580(9) -0.1296(5) 1.1159(4)
Cd2A Cd -1.10059(10) -0.09014(5) 1.27577(4)
N3A N -1.0942(10) 0.0531(6) 1.3603(4)
N4A N -1.2446(11) -0.1347(6) 1.4170(4)
C23A C -1.0169(14) 0.1458(7) 1.3322(6)
H11A H -0.9579 0.1533 1.2754
C24A C -1.0206(15) 0.2297(8) 1.3830(7)
H12A H -0.9657 0.2925 1.3614
C25A C -1.1088(15) 0.2177(8) 1.4672(7)
H13A H -1.1159 0.2734 1.5029
C26A C -1.1854(14) 0.1244(7) 1.4983(6)
C27A C -1.2749(16) 0.1074(9) 1.5867(7)
H14A H -1.2799 0.1613 1.6241
C28A C -1.3503(15) 0.0159(11) 1.6153(6)
H15A H -1.4089 0.0072 1.6721
C29A C -1.3419(13) -0.0706(8) 1.5589(6)
C30A C -1.4147(15) -0.1709(9) 1.5857(6)
H16A H -1.4720 -0.1837 1.6423
C31A C -1.4013(15) -0.2470(8) 1.5303(7)
H17A H -1.4477 -0.3128 1.5484
C32A C -1.3181(15) -0.2272(7) 1.4460(7)
H18A H -1.3129 -0.2803 1.4078
C33A C -1.2561(13) -0.0573(7) 1.4737(5)
C34A C -1.1744(13) 0.0425(7) 1.4420(6)
O10A O -0.9738(9) -0.2490(5) 1.2779(5)
O8_2 O 0.3195(9) 0.0224(5) 0.7968(4)
Cd2_2 Cd -0.89941(10) 0.09014(5) 0.72423(4)
Cd2A_2 Cd -0.10059(10) -0.09014(5) 1.27577(4)
O8A_2 O -1.3195(9) -0.0224(5) 1.2032(4)
loop_
_geom_bond_atom_site_label_1
_geom_bond_atom_site_label_2
_geom_bond_site_symmetry_1
_geom_bond_site_symmetry_2
N1 Cd1 1_555 1_555
N2 Cd1 1_555 1_555
N3 Cd2 1_555 1_555
N4 Cd2 1_555 1_555
Cd1 O1 1_555 1_555
Cd2 O6 1_555 1_555
O1 C4 1_555 1_555
O2 Cd1 1_555 1_555
O3 C5 1_555 1_555
O4 C5 1_555 1_555
O5 Cd1 1_555 1_555
O6 C9 1_555 1_555
O7 C9 1_555 1_555
O8 C10 1_555 1_555
O9 C10 1_555 1_555
O10 Cd2 1_555 1_555
C1 H1 1_555 1_555
C2 C3 1_555 1_555
C3 C1 1_555 1_555
C4 O2 1_555 1_555
C5 C2 1_555 1_555
C6 H2 1_555 1_555
C7 C6 1_555 1_555
C8 C7 1_555 1_555
C9 C7 1_555 1_555
C10 C8 1_555 1_555
C11 N1 1_555 1_555
H3 C11 1_555 1_555
C12 C11 1_555 1_555
H4 C12 1_555 1_555
C13 C12 1_555 1_555
H5 C13 1_555 1_555
C14 C13 1_555 1_555
C15 C14 1_555 1_555
H6 C15 1_555 1_555
C16 C15 1_555 1_555
H7 C16 1_555 1_555
C17 C16 1_555 1_555
C18 C17 1_555 1_555
H8 C18 1_555 1_555
C19 C18 1_555 1_555
H9 C19 1_555 1_555
C20 N2 1_555 1_555
H10 C20 1_555 1_555
C21 N2 1_555 1_555
C22 N1 1_555 1_555
C23 N3 1_555 1_555
H11 C23 1_555 1_555
C24 C23 1_555 1_555
H12 C24 1_555 1_555
C25 C24 1_555 1_555
H13 C25 1_555 1_555
C26 C25 1_555 1_555
C27 C26 1_555 1_555
H14 C27 1_555 1_555
C28 C27 1_555 1_555
H15 C28 1_555 1_555
C29 C28 1_555 1_555
C30 C29 1_555 1_555
H16 C30 1_555 1_555
C31 C30 1_555 1_555
H17 C31 1_555 1_555
C32 N4 1_555 1_555
H18 C32 1_555 1_555
C33 N4 1_555 1_555
C34 N3 1_555 1_555
C2A C1 1_555 1_555
C3A C2A 1_555 1_555
C1A C2 1_555 1_555
H1A C1A 1_555 1_555
C4A C3A 1_555 1_555
O1A C4A 1_555 1_555
O2A C4A 1_555 1_555
C5A C2A 1_555 1_555
O3A C5A 1_555 1_555
O4A C5A 1_555 1_555
C8A C6 1_555 1_555
C7A C8A 1_555 1_555
C6A C8 1_555 1_555
H2A C6A 1_555 1_555
C9A C7A 1_555 1_555
O6A C9A 1_555 1_555
O7A C9A 1_555 1_555
C10A C8A 1_555 1_555
O8A C10A 1_555 1_555
O9A C10A 1_555 1_555
Cd1A O1A 1_555 1_555
N1A Cd1A 1_555 1_555
N2A Cd1A 1_555 1_555
C11A N1A 1_555 1_555
H3A C11A 1_555 1_555
C12A C11A 1_555 1_555
H4A C12A 1_555 1_555
C13A C12A 1_555 1_555
H5A C13A 1_555 1_555
C14A C13A 1_555 1_555
C15A C14A 1_555 1_555
H6A C15A 1_555 1_555
C16A C15A 1_555 1_555
H7A C16A 1_555 1_555
C17A C16A 1_555 1_555
C18A C17A 1_555 1_555
H8A C18A 1_555 1_555
C19A C18A 1_555 1_555
H9A C19A 1_555 1_555
C20A N2A 1_555 1_555
H10A C20A 1_555 1_555
C21A N2A 1_555 1_555
C22A N1A 1_555 1_555
O5A Cd1A 1_555 1_555
Cd2A O6A 1_555 1_555
N3A Cd2A 1_555 1_555
N4A Cd2A 1_555 1_555
C23A N3A 1_555 1_555
H11A C23A 1_555 1_555
C24A C23A 1_555 1_555
H12A C24A 1_555 1_555
C25A C24A 1_555 1_555
H13A C25A 1_555 1_555
C26A C25A 1_555 1_555
C27A C26A 1_555 1_555
H14A C27A 1_555 1_555
C28A C27A 1_555 1_555
H15A C28A 1_555 1_555
C29A C28A 1_555 1_555
C30A C29A 1_555 1_555
H16A C30A 1_555 1_555
C31A C30A 1_555 1_555
H17A C31A 1_555 1_555
C32A N4A 1_555 1_555
H18A C32A 1_555 1_555
C33A N4A 1_555 1_555
C34A N3A 1_555 1_555
O10A Cd2A 1_555 1_555
O3_2 Cd1 1_555 1_555
O8_2 Cd2 1_555 1_555
Cd1_2 O3 1_555 1_555
Cd2_2 O8 1_555 1_555
Cd1A_2 O3A 1_555 1_555
Cd2A_2 O8A 1_555 1_555
O3A_2 Cd1A 1_555 1_555
O8A_2 Cd2A 1_555 1_555
C3 C4 1_555 1_555
C14 C22 1_555 1_555
C17 C21 1_555 1_555
C19 C20 1_555 1_555
C21 C22 1_555 1_555
C26 C34 1_555 1_555
C29 C33 1_555 1_555
C31 C32 1_555 1_555
C33 C34 1_555 1_555
C3A C1A 1_555 1_555
O2A Cd1A 1_555 1_555
C7A C6A 1_555 1_555
C14A C22A 1_555 1_555
C17A C21A 1_555 1_555
C19A C20A 1_555 1_555
C21A C22A 1_555 1_555
C26A C34A 1_555 1_555
C29A C33A 1_555 1_555
C31A C32A 1_555 1_555
C33A C34A 1_555 1_555

#END
