
#######################################################################
#
#                 Cambridge Crystallographic Data Centre
#                                CCDC 
#
#######################################################################
#
# If this CIF has been generated from an entry in the Cambridge 
# Structural Database, then it will include bibliographic, chemical, 
# crystal, experimental, refinement or atomic coordinate data resulting 
# from the CCDC's data processing and validation procedures.
#
#######################################################################

data_MEVLII
_symmetry_cell_setting           monoclinic
_symmetry_space_group_name_H-M   'P 21/c'
_symmetry_Int_Tables_number      14
_space_group_name_Hall           '-P 2ybc'
loop_
_symmetry_equiv_pos_site_id
_symmetry_equiv_pos_as_xyz
1 x,y,z
2 x,1/2-y,1/2+z
3 -x,-y,-z
4 -x,1/2+y,1/2-z
_cell_length_a                   7.3798(2)
_cell_length_b                   12.7140(5)
_cell_length_c                   15.7889(5)
_cell_angle_alpha                90
_cell_angle_beta                 102.530(2)
_cell_angle_gamma                90
_cell_volume                     1446.14
loop_
_atom_site_label
_atom_site_type_symbol
_atom_site_fract_x
_atom_site_fract_y
_atom_site_fract_z
Cu1 Cu 0.10615(7) 0.04478(5) 0.25331(4)
N1 N 0.2422(5) -0.0475(3) 0.3469(3)
N2 N 0.0748(5) 0.1327(3) 0.3531(2)
O1 O 0.2155(4) -0.0096(3) 0.1615(2)
O3 O 0.8954(4) 0.1001(3) 0.1651(2)
O4 O 0.4464(5) 0.0996(3) 0.2112(2)
O5 O 0.8013(4) -0.0494(3) 0.2112(2)
C1 C 0.3150(6) -0.0049(4) -0.0004(3)
H1 H 0.1890 -0.0082 -0.0005
C2 C 0.4398(6) 0.0134(4) 0.0779(3)
C3 C 0.6298(6) 0.0181(4) 0.0776(3)
C4 C 0.3657(6) 0.0369(4) 0.1574(3)
C5 C 0.7812(6) 0.0236(4) 0.1586(3)
C6 C 0.3220(6) -0.1401(5) 0.3416(4)
H2 H 0.3285 -0.1655 0.2871
C7 C 0.3961(7) -0.2008(5) 0.4141(5)
H3 H 0.4506 -0.2654 0.4078
C8 C 0.3882(7) -0.1646(5) 0.4945(4)
H4 H 0.4351 -0.2053 0.5432
C9 C 0.3092(6) -0.0659(5) 0.5039(3)
C10 C 0.2982(7) -0.0194(5) 0.5847(4)
H5 H 0.3458 -0.0552 0.6361
C11 C 0.2192(7) 0.0762(5) 0.5875(3)
H6 H 0.2148 0.1053 0.6411
C12 C 0.1422(6) 0.1337(5) 0.5102(3)
C13 C 0.0566(8) 0.2326(5) 0.5078(4)
H7 H 0.0489 0.2669 0.5589
C14 C -0.0152(8) 0.2777(5) 0.4293(4)
H8 H -0.0709 0.3436 0.4267
C15 C -0.0053(7) 0.2251(5) 0.3528(4)
H9 H -0.0572 0.2564 0.2999
C16 C 0.1503(6) 0.0877(4) 0.4307(3)
C17 C 0.2367(6) -0.0119(4) 0.4273(3)
C3B C 0.3702(6) -0.0181(4) -0.0776(3)
C2B C 0.5602(6) -0.0134(4) -0.0779(3)
C1B C 0.6850(6) 0.0049(4) 0.0004(3)
H1B H 0.8110 0.0082 0.0005
C4B C 0.6343(6) -0.0369(4) -0.1574(3)
O1B O 0.7845(4) 0.0096(3) -0.1615(2)
O4B O 0.5536(5) -0.0996(3) -0.2112(2)
C5B C 0.2188(6) -0.0236(4) -0.1586(3)
O3B O 0.1046(4) -0.1001(3) -0.1651(2)
O5B O 0.1987(4) 0.0494(3) -0.2112(2)
Cu1B Cu 0.89385(7) -0.04478(5) -0.25331(4)
N1B N 0.7578(5) 0.0475(3) -0.3469(3)
N2B N 0.9252(5) -0.1327(3) -0.3531(2)
C6B C 0.6780(6) 0.1401(5) -0.3416(4)
H2B H 0.6715 0.1655 -0.2871
C7B C 0.6039(7) 0.2008(5) -0.4141(5)
H3B H 0.5494 0.2654 -0.4078
C8B C 0.6118(7) 0.1646(5) -0.4945(4)
H4B H 0.5649 0.2053 -0.5432
C9B C 0.6908(6) 0.0659(5) -0.5039(3)
C10B C 0.7018(7) 0.0194(5) -0.5847(4)
H5B H 0.6542 0.0552 -0.6361
C11B C 0.7808(7) -0.0762(5) -0.5875(3)
H6B H 0.7852 -0.1053 -0.6411
C12B C 0.8578(6) -0.1337(5) -0.5102(3)
C13B C 0.9434(8) -0.2326(5) -0.5078(4)
H7B H 0.9511 -0.2669 -0.5589
C14B C 1.0152(8) -0.2777(5) -0.4293(4)
H8B H 1.0709 -0.3436 -0.4267
C15B C 1.0053(7) -0.2251(5) -0.3528(4)
H9B H 1.0572 -0.2564 -0.2999
C16B C 0.8497(6) -0.0877(4) -0.4307(3)
C17B C 0.7633(6) 0.0119(4) -0.4273(3)
O3_2 O -0.1046(4) 0.1001(3) 0.1651(2)
Cu1_2 Cu 1.10615(7) 0.04478(5) 0.25331(4)
Cu1B_2 Cu -0.10615(7) -0.04478(5) -0.25331(4)
O3B_2 O 1.1046(4) -0.1001(3) -0.1651(2)
O2 O -0.4570(6) -0.2205(4) 0.1825(3)
loop_
_geom_bond_atom_site_label_1
_geom_bond_atom_site_label_2
_geom_bond_site_symmetry_1
_geom_bond_site_symmetry_2
Cu1 N1 1_555 1_555
N1 C6 1_555 1_555
N2 Cu1 1_555 1_555
O1 Cu1 1_555 1_555
O3 C5 1_555 1_555
O4 C4 1_555 1_555
O5 C5 1_555 1_555
C1 H1 1_555 1_555
C2 C1 1_555 1_555
C3 C2 1_555 1_555
C4 O1 1_555 1_555
C5 C3 1_555 1_555
C6 H2 1_555 1_555
C7 C6 1_555 1_555
H3 C7 1_555 1_555
C8 C7 1_555 1_555
H4 C8 1_555 1_555
C9 C8 1_555 1_555
C10 C9 1_555 1_555
H5 C10 1_555 1_555
C11 C10 1_555 1_555
H6 C11 1_555 1_555
C12 C11 1_555 1_555
C13 C12 1_555 1_555
H7 C13 1_555 1_555
C14 C13 1_555 1_555
H8 C14 1_555 1_555
C15 N2 1_555 1_555
H9 C15 1_555 1_555
C16 N2 1_555 1_555
C17 N1 1_555 1_555
C3B C1 1_555 1_555
C2B C3B 1_555 1_555
C1B C3 1_555 1_555
H1B C1B 1_555 1_555
C4B C2B 1_555 1_555
O1B C4B 1_555 1_555
O4B C4B 1_555 1_555
C5B C3B 1_555 1_555
O3B C5B 1_555 1_555
O5B C5B 1_555 1_555
Cu1B O1B 1_555 1_555
N1B Cu1B 1_555 1_555
N2B Cu1B 1_555 1_555
C6B N1B 1_555 1_555
H2B C6B 1_555 1_555
C7B C6B 1_555 1_555
H3B C7B 1_555 1_555
C8B C7B 1_555 1_555
H4B C8B 1_555 1_555
C9B C8B 1_555 1_555
C10B C9B 1_555 1_555
H5B C10B 1_555 1_555
C11B C10B 1_555 1_555
H6B C11B 1_555 1_555
C12B C11B 1_555 1_555
C13B C12B 1_555 1_555
H7B C13B 1_555 1_555
C14B C13B 1_555 1_555
H8B C14B 1_555 1_555
C15B N2B 1_555 1_555
H9B C15B 1_555 1_555
C16B N2B 1_555 1_555
C17B N1B 1_555 1_555
O3_2 Cu1 1_555 1_555
Cu1_2 O3 1_555 1_555
Cu1B_2 O3B 1_555 1_555
O3B_2 Cu1B 1_555 1_555
C2 C4 1_555 1_555
C9 C17 1_555 1_555
C12 C16 1_555 1_555
C14 C15 1_555 1_555
C16 C17 1_555 1_555
C2B C1B 1_555 1_555
C9B C17B 1_555 1_555
C12B C16B 1_555 1_555
C14B C15B 1_555 1_555
C16B C17B 1_555 1_555

#END
