
#######################################################################
#
#                 Cambridge Crystallographic Data Centre
#                                CCDC 
#
#######################################################################
#
# If this CIF has been generated from an entry in the Cambridge 
# Structural Database, then it will include bibliographic, chemical, 
# crystal, experimental, refinement or atomic coordinate data resulting 
# from the CCDC's data processing and validation procedures.
#
#######################################################################

data_MEVLII01
_symmetry_cell_setting           monoclinic
_symmetry_space_group_name_H-M   'P 21/c'
_symmetry_Int_Tables_number      14
_space_group_name_Hall           '-P 2ybc'
loop_
_symmetry_equiv_pos_site_id
_symmetry_equiv_pos_as_xyz
1 x,y,z
2 x,1/2-y,1/2+z
3 -x,-y,-z
4 -x,1/2+y,1/2-z
_cell_length_a                   7.386(3)
_cell_length_b                   12.723(4)
_cell_length_c                   15.831(3)
_cell_angle_alpha                90.00
_cell_angle_beta                 102.66(2)
_cell_angle_gamma                90.00
_cell_volume                     1451.5
loop_
_atom_site_label
_atom_site_type_symbol
_atom_site_fract_x
_atom_site_fract_y
_atom_site_fract_z
Cu1 Cu 0.39380(6) 0.95533(4) 0.24663(2)
C1 C -0.2810(2) 0.9764(3) 0.34127(17)
C2 C 0.1344(5) 0.9635(3) 0.3422(2)
C3 C 0.0596(5) 0.9865(3) 0.42189(19)
C4 C -0.1866(4) 0.9953(3) 0.4999(2)
H1 H -0.3125 0.9916 0.4996
C5 C -0.1287(5) 0.9826(3) 0.42211(19)
C6 C 0.1779(5) 1.1398(3) 0.1589(3)
H2 H 0.1710 1.1644 0.2134
C7 C 0.1031(5) 1.2016(3) 0.0865(3)
H3 H 0.0487 1.2661 0.0931
C8 C 0.1113(6) 1.1657(4) 0.0058(3)
H4 H 0.0644 1.2066 -0.0427
C9 C 0.1902(5) 1.0671(3) -0.0039(2)
C10 C 0.2033(6) 1.0189(4) -0.0853(2)
H5 H 0.1567 1.0544 -0.1368
C11 C 0.2811(6) 0.9245(4) -0.0875(2)
H6 H 0.2863 0.8957 -0.1409
C12 C 0.3571(5) 0.8657(3) -0.0102(2)
C13 C 0.4405(6) 0.7681(4) -0.0083(3)
H7 H 0.4465 0.7339 -0.0596
C14 C 0.5145(6) 0.7222(4) 0.0703(3)
H8 H 0.5712 0.6567 0.0726
C15 C 0.5044(6) 0.7743(3) 0.1471(2)
H9 H 0.5561 0.7426 0.1998
C16 C 0.3497(5) 0.9118(3) 0.0690(2)
C17 C 0.2641(5) 1.0108(3) 0.0725(2)
N1 N 0.4242(4) 0.8667(2) 0.14713(16)
N2 N 0.2580(4) 1.0477(2) 0.15294(18)
O1 O 0.2851(4) 1.0100(3) 0.33878(15)
O2 O 0.0530(4) 0.9010(2) 0.28852(16)
O3 O -0.3950(3) 0.8995(2) 0.33473(14)
O4 O -0.3017(4) 1.0498(2) 0.28903(15)
C4B C 0.1866(4) 1.0047(3) 0.5001(2)
H1B H 0.3125 1.0084 0.5004
C5B C 0.1287(5) 1.0174(3) 0.57789(19)
C1B C 0.2810(2) 1.0236(3) 0.65873(17)
O3B O 0.3950(3) 1.1005(2) 0.66527(14)
O4B O 0.3017(4) 0.9502(2) 0.71097(15)
C3B C -0.0596(5) 1.0135(3) 0.57811(19)
C2B C -0.1344(5) 1.0365(3) 0.6578(2)
O1B O -0.2851(4) 0.9900(3) 0.66122(15)
O2B O -0.0530(4) 1.0990(2) 0.71148(16)
Cu1B Cu -0.39380(6) 1.04467(4) 0.75337(2)
C6B C -0.1779(5) 0.8602(3) 0.8411(3)
H2B H -0.1710 0.8356 0.7866
C7B C -0.1031(5) 0.7984(3) 0.9135(3)
H3B H -0.0487 0.7339 0.9069
C8B C -0.1113(6) 0.8343(4) 0.9942(3)
H4B H -0.0644 0.7934 1.0427
C9B C -0.1902(5) 0.9329(3) 1.0039(2)
C10B C -0.2033(6) 0.9811(4) 1.0853(2)
H5B H -0.1567 0.9456 1.1368
C11B C -0.2811(6) 1.0755(4) 1.0875(2)
H6B H -0.2863 1.1043 1.1409
C12B C -0.3571(5) 1.1343(3) 1.0102(2)
C13B C -0.4405(6) 1.2319(4) 1.0083(3)
H7B H -0.4465 1.2661 1.0596
C14B C -0.5145(6) 1.2778(4) 0.9297(3)
H8B H -0.5712 1.3433 0.9274
C15B C -0.5044(6) 1.2257(3) 0.8529(2)
H9B H -0.5561 1.2574 0.8002
C16B C -0.3497(5) 1.0882(3) 0.9310(2)
C17B C -0.2641(5) 0.9892(3) 0.9275(2)
N1B N -0.4242(4) 1.1333(2) 0.85287(16)
N2B N -0.2580(4) 0.9523(2) 0.84706(18)
O3_2 O 0.6050(3) 0.8995(2) 0.33473(14)
O4_2 O 0.6983(4) 1.0498(2) 0.28903(15)
Cu1_2 Cu -0.60620(6) 0.95533(4) 0.24663(2)
Cu1B_2 Cu 0.60620(6) 1.04467(4) 0.75337(2)
O3B_2 O -0.6050(3) 1.1005(2) 0.66527(14)
O4B_2 O -0.6983(4) 0.9502(2) 0.71097(15)
O5 O 0.0437(5) 0.7201(3) 0.1832(2)
loop_
_geom_bond_atom_site_label_1
_geom_bond_atom_site_label_2
_geom_bond_site_symmetry_1
_geom_bond_site_symmetry_2
Cu1 N1 1_555 1_555
C1 C5 1_555 1_555
C2 C3 1_555 1_555
C3 C5 1_555 1_555
C4 H1 1_555 1_555
C5 C4 1_555 1_555
C6 H2 1_555 1_555
C7 C6 1_555 1_555
H3 C7 1_555 1_555
C8 C7 1_555 1_555
H4 C8 1_555 1_555
C9 C8 1_555 1_555
C10 C9 1_555 1_555
H5 C10 1_555 1_555
C11 C10 1_555 1_555
H6 C11 1_555 1_555
C12 C11 1_555 1_555
C13 C12 1_555 1_555
H7 C13 1_555 1_555
C14 C13 1_555 1_555
H8 C14 1_555 1_555
C15 C14 1_555 1_555
H9 C15 1_555 1_555
C16 C12 1_555 1_555
C17 C9 1_555 1_555
N1 C15 1_555 1_555
N2 Cu1 1_555 1_555
O1 Cu1 1_555 1_555
O2 C2 1_555 1_555
O3 C1 1_555 1_555
O4 C1 1_555 1_555
C4B C3 1_555 1_555
H1B C4B 1_555 1_555
C5B C4B 1_555 1_555
C1B C5B 1_555 1_555
O3B C1B 1_555 1_555
O4B C1B 1_555 1_555
C3B C4 1_555 1_555
C2B C3B 1_555 1_555
O1B C2B 1_555 1_555
O2B C2B 1_555 1_555
Cu1B O1B 1_555 1_555
C6B H2B 1_555 1_555
C7B C6B 1_555 1_555
H3B C7B 1_555 1_555
C8B C7B 1_555 1_555
H4B C8B 1_555 1_555
C9B C8B 1_555 1_555
C10B C9B 1_555 1_555
H5B C10B 1_555 1_555
C11B C10B 1_555 1_555
H6B C11B 1_555 1_555
C12B C11B 1_555 1_555
C13B C12B 1_555 1_555
H7B C13B 1_555 1_555
C14B C13B 1_555 1_555
H8B C14B 1_555 1_555
C15B C14B 1_555 1_555
H9B C15B 1_555 1_555
C16B C12B 1_555 1_555
C17B C9B 1_555 1_555
N1B Cu1B 1_555 1_555
N2B Cu1B 1_555 1_555
O3_2 Cu1 1_555 1_555
O4_2 Cu1 1_555 1_555
Cu1_2 O3 1_555 1_555
Cu1B_2 O3B 1_555 1_555
O3B_2 Cu1B 1_555 1_555
O4B_2 Cu1B 1_555 1_555
C2 O1 1_555 1_555
C6 N2 1_555 1_555
C16 N1 1_555 1_555
C16 C17 1_555 1_555
C17 N2 1_555 1_555
O4 Cu1_2 1_555 1_555
C5B C3B 1_555 1_555
O4B Cu1B_2 1_555 1_555
C6B N2B 1_555 1_555
C15B N1B 1_555 1_555
C16B N1B 1_555 1_555
C16B C17B 1_555 1_555
C17B N2B 1_555 1_555

#END
