
#######################################################################
#
#                 Cambridge Crystallographic Data Centre
#                                CCDC 
#
#######################################################################
#
# If this CIF has been generated from an entry in the Cambridge 
# Structural Database, then it will include bibliographic, chemical, 
# crystal, experimental, refinement or atomic coordinate data resulting 
# from the CCDC's data processing and validation procedures.
#
#######################################################################

data_MEVRAG
_symmetry_cell_setting           monoclinic
_symmetry_space_group_name_H-M   'P 21/n'
_symmetry_Int_Tables_number      14
_space_group_name_Hall           '-P 2yn'
loop_
_symmetry_equiv_pos_site_id
_symmetry_equiv_pos_as_xyz
1 x,y,z
2 1/2+x,1/2-y,1/2+z
3 -x,-y,-z
4 1/2-x,1/2+y,1/2-z
_cell_length_a                   11.653(2)
_cell_length_b                   7.3533(12)
_cell_length_c                   13.443(2)
_cell_angle_alpha                90
_cell_angle_beta                 106.190(12)
_cell_angle_gamma                90
_cell_volume                     1106.22
loop_
_atom_site_label
_atom_site_type_symbol
_atom_site_fract_x
_atom_site_fract_y
_atom_site_fract_z
Cu1 Cu 0.73261(3) 0.71726(5) 0.48792(2)
Cl1 Cl 0.72904(7) 0.59965(11) 0.64217(6)
Cl2 Cl 0.75918(7) 0.88033(11) 0.35349(6)
N1 N 0.59361(19) 0.8873(3) 0.49430(16)
C1 C 0.6161(2) 1.0527(4) 0.5397(2)
C2 C 0.4796(2) 0.8372(4) 0.4560(2)
H1 H 0.4633 0.7235 0.4250
N2 N 0.89359(19) 0.5888(3) 0.49796(17)
C3 C 0.7414(2) 1.1131(4) 0.5843(2)
H2 H 0.7799 1.0357 0.6413
H3 H 0.7421 1.2363 0.6082
H4 H 0.7832 1.1065 0.5321
C4 C 0.8976(2) 0.4497(4) 0.4342(2)
H5 H 0.8267 0.4120 0.3873
C5 C 0.9972(2) 0.6406(4) 0.5650(2)
C6 C 0.9991(3) 0.7970(5) 0.6356(3)
H6 H 0.9851 0.9077 0.5962
H7 H 1.0756 0.8031 0.6862
H8 H 0.9377 0.7813 0.6699
N3 N 0.6138(2) 0.4894(4) 0.38692(19)
C7 C 0.5697(3) 0.3725(4) 0.3344(2)
C8 C 0.5158(3) 0.2221(4) 0.2678(2)
H9 H 0.5638 0.1150 0.2880
H10 H 0.5110 0.2517 0.1972
H11 H 0.4370 0.2002 0.2743
C2B C 0.5204(2) 1.1628(4) 0.5440(2)
N1B N 0.40639(19) 1.1127(3) 0.50570(16)
C1B C 0.3839(2) 0.9473(4) 0.4603(2)
C3B C 0.2586(2) 0.8869(4) 0.4157(2)
H2B H 0.2201 0.9643 0.3587
H3B H 0.2579 0.7637 0.3918
H4B H 0.2168 0.8935 0.4679
H1B H 0.5367 1.2765 0.5750
C5B C 1.0028(2) 0.3594(4) 0.4350(2)
N2B N 1.10641(19) 0.4112(3) 0.50204(17)
C4B C 1.1024(2) 0.5503(4) 0.5658(2)
H5B H 1.1733 0.5880 0.6127
C6B C 1.0009(3) 0.2030(5) 0.3644(3)
H6B H 1.0149 0.0923 0.4038
H7B H 0.9244 0.1969 0.3138
H8B H 1.0623 0.2187 0.3301
Cu1B Cu 0.26739(3) 1.28274(5) 0.51208(2)
Cl1B Cl 0.27096(7) 1.40035(11) 0.35783(6)
Cl2B Cl 0.24082(7) 1.11967(11) 0.64651(6)
N3B N 0.3862(2) 1.5106(4) 0.61308(19)
C7B C 0.4303(3) 1.6275(4) 0.6656(2)
C8B C 0.4842(3) 1.7779(4) 0.7322(2)
H9B H 0.4362 1.8850 0.7120
H10B H 0.4890 1.7483 0.8028
H11B H 0.5630 1.7998 0.7257
Cu1B_2 Cu 1.26739(3) 0.28274(5) 0.51208(2)
N2B_2 N 0.10641(19) 1.4112(3) 0.50204(17)
loop_
_geom_bond_atom_site_label_1
_geom_bond_atom_site_label_2
_geom_bond_site_symmetry_1
_geom_bond_site_symmetry_2
Cu1 Cl1 1_555 1_555
Cl2 Cu1 1_555 1_555
N1 Cu1 1_555 1_555
C1 N1 1_555 1_555
C2 N1 1_555 1_555
H1 C2 1_555 1_555
N2 Cu1 1_555 1_555
C3 C1 1_555 1_555
H2 C3 1_555 1_555
H3 C3 1_555 1_555
H4 C3 1_555 1_555
C4 N2 1_555 1_555
H5 C4 1_555 1_555
C5 N2 1_555 1_555
C6 C5 1_555 1_555
H6 C6 1_555 1_555
H7 C6 1_555 1_555
H8 C6 1_555 1_555
N3 Cu1 1_555 1_555
C7 N3 1_555 1_555
C8 C7 1_555 1_555
H9 C8 1_555 1_555
H10 C8 1_555 1_555
H11 C8 1_555 1_555
C2B C1 1_555 1_555
N1B C2B 1_555 1_555
C1B C2 1_555 1_555
C3B C1B 1_555 1_555
H2B C3B 1_555 1_555
H3B C3B 1_555 1_555
H4B C3B 1_555 1_555
H1B C2B 1_555 1_555
C5B C4 1_555 1_555
N2B C5B 1_555 1_555
C4B C5 1_555 1_555
H5B C4B 1_555 1_555
C6B C5B 1_555 1_555
H6B C6B 1_555 1_555
H7B C6B 1_555 1_555
H8B C6B 1_555 1_555
Cu1B N1B 1_555 1_555
Cl1B Cu1B 1_555 1_555
Cl2B Cu1B 1_555 1_555
N3B Cu1B 1_555 1_555
C7B N3B 1_555 1_555
C8B C7B 1_555 1_555
H9B C8B 1_555 1_555
H10B C8B 1_555 1_555
H11B C8B 1_555 1_555
Cu1B_2 N2B 1_555 1_555
N2B_2 Cu1B 1_555 1_555
N1B C1B 1_555 1_555
N2B C4B 1_555 1_555

#END
