
#######################################################################
#
#                 Cambridge Crystallographic Data Centre
#                                CCDC 
#
#######################################################################
#
# If this CIF has been generated from an entry in the Cambridge 
# Structural Database, then it will include bibliographic, chemical, 
# crystal, experimental, refinement or atomic coordinate data resulting 
# from the CCDC's data processing and validation procedures.
#
#######################################################################

data_MEVYIX
_symmetry_cell_setting           monoclinic
_symmetry_space_group_name_H-M   'P 21/c'
_symmetry_Int_Tables_number      14
_space_group_name_Hall           '-P 2ybc'
loop_
_symmetry_equiv_pos_site_id
_symmetry_equiv_pos_as_xyz
1 x,y,z
2 -x,1/2+y,1/2-z
3 -x,-y,-z
4 x,1/2-y,1/2+z
_cell_length_a                   7.583(3)
_cell_length_b                   15.831(6)
_cell_length_c                   21.906(8)
_cell_angle_alpha                90
_cell_angle_beta                 98.516(3)
_cell_angle_gamma                90
_cell_volume                     2600.74
loop_
_atom_site_label
_atom_site_type_symbol
_atom_site_fract_x
_atom_site_fract_y
_atom_site_fract_z
Zn1 Zn -0.06451(2) 0.622158(11) 0.714672(8)
O1 O -0.21883(16) 0.54529(7) 0.74818(6)
O2 O 0.00514(16) 0.45411(8) 0.76070(7)
O3 O -0.79388(15) 0.22499(7) 0.79980(6)
O4 O -0.58272(17) 0.16416(8) 0.86719(6)
O5 O 0.9256(2) 0.74280(12) 0.91104(8)
O6 O 0.3534(2) 0.50254(9) 0.39196(7)
N1 N 0.15225(17) 0.66275(8) 0.77281(6)
N2 N 0.7742(2) 0.70378(11) 0.88055(7)
N3 N 0.02911(17) 0.59469(8) 0.63468(6)
N4 N 0.30194(19) 0.49616(9) 0.45026(7)
C1 C 0.2999(3) 0.61485(10) 0.78018(9)
C2 C 0.4614(3) 0.64161(11) 0.81024(9)
C3 C 0.4744(3) 0.72219(11) 0.83570(7)
C4 C 0.3214(3) 0.77116(11) 0.82951(8)
C5 C 0.1641(3) 0.74000(10) 0.79765(8)
C6 C 0.6445(3) 0.75430(13) 0.86763(9)
C7 C -0.0049(3) 0.65017(10) 0.58845(8)
C8 C 0.0624(3) 0.64167(11) 0.53383(8)
C9 C 0.1692(3) 0.57299(10) 0.52502(8)
C10 C 0.2016(3) 0.51452(11) 0.57240(8)
C11 C 0.1296(3) 0.52711(11) 0.62583(8)
C12 C 0.2375(3) 0.56456(12) 0.46607(9)
C13 C -0.2764(2) 0.41148(9) 0.78608(7)
C14 C -0.4586(2) 0.42012(9) 0.76680(8)
C15 C -0.5772(2) 0.36017(10) 0.78215(8)
C16 C -0.5140(2) 0.29122(9) 0.81793(7)
C17 C -0.3329(2) 0.28438(10) 0.83923(8)
C18 C -0.2141(2) 0.34347(10) 0.82278(8)
C19 C -0.1499(2) 0.47331(10) 0.76378(7)
C20 C -0.6376(2) 0.22133(9) 0.83015(8)
H1 H 0.2921 0.5605 0.7640
H2 H 0.5607 0.6065 0.8136
H3 H 0.990(6) 0.699(3) 0.9271(18)
H4 H 0.3247 0.8249 0.8468
H5 H 0.0629 0.7739 0.7933
H6 H 0.6572 0.8111 0.8783
H7 H -0.0770 0.6964 0.5934
H8 H 0.0364 0.6819 0.5029
H9 H 0.376(4) 0.4540(18) 0.3841(12)
H10 H 0.2715 0.4672 0.5682
H11 H 0.1514 0.4871 0.6571
H12 H 0.2331 0.6109 0.4398
H13 H -0.5012 0.4668 0.7433
H14 H -0.6987 0.3660 0.7685
H15 H -0.2909 0.2396 0.8648
H16 H -0.0926 0.3376 0.8364
Zn1A Zn -0.93549(2) 0.122158(11) 0.785328(8)
O3A O -0.20612(15) 0.72499(7) 0.70020(6)
O7 O 0.4650(4) 0.24025(15) 0.98388(10)
N5 N 0.1156(3) 0.60383(14) 0.94885(9)
N6 N 0.3640(3) 0.30885(14) 0.95959(9)
C21 C 0.1206(3) 0.54202(17) 0.90740(10)
C22 C 0.2009(3) 0.46555(16) 0.92026(9)
C23 C 0.2809(3) 0.44822(15) 0.98042(9)
C24 C 0.2726(3) 0.51129(17) 1.02396(10)
C25 C 0.1912(3) 0.58644(18) 1.00653(11)
C26 C 0.3730(4) 0.36927(16) 0.99751(10)
H17 H 0.456(5) 0.208(3) 0.9572(16)
H18 H 0.0658 0.5518 0.8672
H19 H 0.2023 0.4255 0.8892
H20 H 0.3222 0.5025 1.0649
H21 H 0.1883 0.6278 1.0365
H22 H 0.4388 0.3632 1.0366
loop_
_geom_bond_atom_site_label_1
_geom_bond_atom_site_label_2
_geom_bond_site_symmetry_1
_geom_bond_site_symmetry_2
Zn1 O1 1_555 1_555
O1 C19 1_555 1_555
O2 C19 1_555 1_555
O3 C20 1_555 1_555
O4 C20 1_555 1_555
O5 N2 1_555 1_555
O6 N4 1_555 1_555
N1 Zn1 1_555 1_555
N2 C6 1_555 1_555
N3 Zn1 1_555 1_555
N4 C12 1_555 1_555
C1 N1 1_555 1_555
C2 C1 1_555 1_555
C3 C2 1_555 1_555
C4 C3 1_555 1_555
C5 N1 1_555 1_555
C6 C3 1_555 1_555
C7 N3 1_555 1_555
C8 C7 1_555 1_555
C9 C8 1_555 1_555
C10 C9 1_555 1_555
C11 N3 1_555 1_555
C12 C9 1_555 1_555
C13 C14 1_555 1_555
C14 C15 1_555 1_555
C15 C16 1_555 1_555
C16 C17 1_555 1_555
C17 C18 1_555 1_555
C18 C13 1_555 1_555
C19 C13 1_555 1_555
C20 C16 1_555 1_555
H1 C1 1_555 1_555
H2 C2 1_555 1_555
H3 O5 1_555 1_555
H4 C4 1_555 1_555
H5 C5 1_555 1_555
H6 C6 1_555 1_555
H7 C7 1_555 1_555
H8 C8 1_555 1_555
H9 O6 1_555 1_555
H10 C10 1_555 1_555
H11 C11 1_555 1_555
H12 C12 1_555 1_555
H13 C14 1_555 1_555
H14 C15 1_555 1_555
H15 C17 1_555 1_555
H16 C18 1_555 1_555
O7 N6 1_555 1_555
N5 C21 1_555 1_555
N6 C26 1_555 1_555
C21 C22 1_555 1_555
C22 C23 1_555 1_555
C23 C24 1_555 1_555
C24 C25 1_555 1_555
C25 N5 1_555 1_555
C26 C23 1_555 1_555
H17 O7 1_555 1_555
H18 C21 1_555 1_555
H19 C22 1_555 1_555
H20 C24 1_555 1_555
H21 C25 1_555 1_555
H22 C26 1_555 1_555
Zn1A O3 1_555 1_555
O3A Zn1 1_555 1_555
C4 C5 1_555 1_555
C10 C11 1_555 1_555

#END
