
#######################################################################
#
#                 Cambridge Crystallographic Data Centre
#                                CCDC 
#
#######################################################################
#
# If this CIF has been generated from an entry in the Cambridge 
# Structural Database, then it will include bibliographic, chemical, 
# crystal, experimental, refinement or atomic coordinate data resulting 
# from the CCDC's data processing and validation procedures.
#
#######################################################################

data_MEWBEX
_symmetry_cell_setting           monoclinic
_symmetry_space_group_name_H-M   'P 21/n'
_symmetry_Int_Tables_number      14
_space_group_name_Hall           '-P 2yn'
loop_
_symmetry_equiv_pos_site_id
_symmetry_equiv_pos_as_xyz
1 x,y,z
2 1/2-x,1/2+y,1/2-z
3 -x,-y,-z
4 1/2+x,1/2-y,1/2+z
_cell_length_a                   7.7161(17)
_cell_length_b                   17.550(4)
_cell_length_c                   20.947(4)
_cell_angle_alpha                90
_cell_angle_beta                 96.800(4)
_cell_angle_gamma                90
_cell_volume                     2816.64
loop_
_atom_site_label
_atom_site_type_symbol
_atom_site_fract_x
_atom_site_fract_y
_atom_site_fract_z
Cu1 Cu 1.0000 0.5000 0.0000
C1 C 0.8452(6) 1.2336(2) -0.1386(2)
C2 C 0.8060(5) 1.1653(2) -0.10151(19)
C3 C 0.7251(5) 1.1715(2) -0.0455(2)
H1 H 0.6854 1.2186 -0.0330
C4 C 0.7040(5) 1.1079(2) -0.0088(2)
H2 H 0.6517 1.1128 0.0288
C5 C 0.7592(5) 1.0363(2) -0.02669(18)
C6 C 0.8380(5) 1.0305(2) -0.08253(19)
H3 H 0.8762 0.9832 -0.0953
C7 C 0.8607(5) 1.0943(2) -0.11976(19)
H4 H 0.9132 1.0894 -0.1573
C8 C 0.7389(5) 0.9695(2) 0.01565(19)
C9 C 0.7683(5) 0.8950(2) -0.00365(18)
H5 H 0.7972 0.8853 -0.0447
C10 C 0.7540(5) 0.83558(19) 0.03927(18)
C11 C 0.7072(5) 0.8537(2) 0.09959(18)
H6 H 0.6958 0.8154 0.1295
C12 C 0.6774(5) 0.9291(2) 0.11507(18)
C13 C 0.6253(5) 0.9511(2) 0.17864(18)
C14 C 0.5242(5) 1.0156(2) 0.18392(19)
H7 H 0.4924 1.0455 0.1478
C15 C 0.4702(5) 1.0358(2) 0.24194(19)
H8 H 0.4004 1.0786 0.2445
C16 C 0.5196(5) 0.9925(2) 0.29668(18)
C17 C 0.6242(5) 0.9290(2) 0.29215(19)
H9 H 0.6586 0.8998 0.3285
C18 C 0.6777(5) 0.9089(2) 0.23352(19)
H10 H 0.7494 0.8667 0.2310
C19 C 0.4600(6) 1.0145(2) 0.3597(2)
C20 C 0.7944(5) 0.75539(19) 0.02344(17)
C21 C 0.9191(5) 0.73870(19) -0.01677(18)
H11 H 0.9689 0.7778 -0.0384
C22 C 0.9695(5) 0.6647(2) -0.02478(19)
H12 H 1.0543 0.6549 -0.0517
C23 C 0.7732(5) 0.6214(2) 0.04100(19)
H13 H 0.7197 0.5811 0.0598
C24 C 0.7177(5) 0.6942(2) 0.05158(18)
H14 H 0.6294 0.7025 0.0774
N1 N 0.6925(4) 0.98644(16) 0.07362(15)
N2 N 0.9010(4) 0.60580(17) 0.00477(15)
O1 O 0.5313(4) 0.98064(14) 0.40897(13)
O2 O 0.3418(4) 1.06386(16) 0.35908(14)
O3 O 0.9397(5) 1.23445(17) -0.18056(16)
O4 O 0.7673(4) 1.29571(17) -0.11906(16)
H15 H 0.7916 1.3324 -0.1405
O5 O 1.3019(4) 0.54357(17) 0.02770(15)
H16 H 1.3236 0.5847 0.0087
H17 H 1.2828 0.5552 0.0656
C1B C 1.1548(6) -0.2336(2) 0.1386(2)
C2B C 1.1940(5) -0.1653(2) 0.10151(19)
C3B C 1.2749(5) -0.1715(2) 0.0455(2)
H1B H 1.3146 -0.2186 0.0330
C4B C 1.2960(5) -0.1079(2) 0.0088(2)
H2B H 1.3483 -0.1128 -0.0288
C5B C 1.2408(5) -0.0363(2) 0.02669(18)
C6B C 1.1620(5) -0.0305(2) 0.08253(19)
H3B H 1.1238 0.0168 0.0953
C7B C 1.1393(5) -0.0943(2) 0.11976(19)
H4B H 1.0868 -0.0894 0.1573
C8B C 1.2611(5) 0.0305(2) -0.01565(19)
C9B C 1.2317(5) 0.1050(2) 0.00365(18)
H5B H 1.2028 0.1147 0.0447
C10B C 1.2460(5) 0.16442(19) -0.03927(18)
C11B C 1.2928(5) 0.1463(2) -0.09959(18)
H6B H 1.3042 0.1846 -0.1295
C12B C 1.3226(5) 0.0709(2) -0.11507(18)
C13B C 1.3747(5) 0.0489(2) -0.17864(18)
C14B C 1.4758(5) -0.0156(2) -0.18392(19)
H7B H 1.5076 -0.0455 -0.1478
C15B C 1.5298(5) -0.0358(2) -0.24194(19)
H8B H 1.5996 -0.0786 -0.2445
C16B C 1.4804(5) 0.0075(2) -0.29668(18)
C17B C 1.3758(5) 0.0710(2) -0.29215(19)
H9B H 1.3414 0.1002 -0.3285
C18B C 1.3223(5) 0.0911(2) -0.23352(19)
H10B H 1.2506 0.1333 -0.2310
C19B C 1.5400(6) -0.0145(2) -0.3597(2)
C20B C 1.2056(5) 0.24461(19) -0.02344(17)
C21B C 1.0809(5) 0.26130(19) 0.01677(18)
H11B H 1.0311 0.2222 0.0384
C22B C 1.0305(5) 0.3353(2) 0.02478(19)
H12B H 0.9457 0.3451 0.0517
C23B C 1.2268(5) 0.3786(2) -0.04100(19)
H13B H 1.2803 0.4189 -0.0598
C24B C 1.2823(5) 0.3058(2) -0.05158(18)
H14B H 1.3706 0.2975 -0.0774
N1B N 1.3075(4) 0.01356(16) -0.07362(15)
N2B N 1.0990(4) 0.39420(17) -0.00477(15)
O1B O 1.4687(4) 0.01936(14) -0.40897(13)
O2B O 1.6582(4) -0.06386(16) -0.35908(14)
O3B O 1.0603(5) -0.23445(17) 0.18056(16)
O4B O 1.2327(4) -0.29571(17) 0.11906(16)
H15B H 1.2084 -0.3324 0.1405
O5B O 0.6981(4) 0.45643(17) -0.02770(15)
H16B H 0.6764 0.4153 -0.0087
H17B H 0.7172 0.4448 -0.0656
Cu1A Cu 0.5000 1.0000 0.5000
Cu1A_2 Cu 1.5000 0.0000 -0.5000
O1A O 0.9687(4) 0.48064(14) 0.09103(13)
O1C O 1.0313(4) 0.51936(14) -0.09103(13)
C25 C 0.6692(8) 0.6406(4) -0.1720(3)
H18 H 0.7059 0.6773 -0.2016
H19 H 0.6144 0.5984 -0.1955
H20 H 0.7689 0.6229 -0.1442
C26 C 0.5118(8) 0.7558(3) -0.1443(3)
H21 H 0.5739 0.7741 -0.1783
H22 H 0.5493 0.7833 -0.1055
H23 H 0.3889 0.7633 -0.1558
C27 C 0.4770(6) 0.6364(3) -0.0897(2)
H24 H 0.5082 0.5854 -0.0843
N3 N 0.5471(5) 0.6755(2) -0.13415(19)
O6 O 0.3740(4) 0.6624(2) -0.05498(17)
C28 C 0.4517(16) 1.2769(5) -0.2557(5)
H25 H 0.4153 1.2642 -0.2148
H26 H 0.5656 1.2561 -0.2586
H27 H 0.3703 1.2562 -0.2895
C29 C 0.4063(11) 1.3970(6) -0.2090(4)
H28 H 0.3787 1.3613 -0.1770
H29 H 0.3054 1.4274 -0.2228
H30 H 0.4999 1.4294 -0.1912
C30 C 0.5028(11) 1.3864(4) -0.3123(4)
H31 H 0.4860 1.4387 -0.3166
N4 N 0.4576(6) 1.3570(2) -0.2622(2)
O7 O 0.5670(7) 1.3545(2) -0.3567(2)
loop_
_geom_bond_atom_site_label_1
_geom_bond_atom_site_label_2
_geom_bond_site_symmetry_1
_geom_bond_site_symmetry_2
Cu1 N2 1_555 1_555
C1 C2 1_555 1_555
C2 C3 1_555 1_555
C3 H1 1_555 1_555
C4 C3 1_555 1_555
H2 C4 1_555 1_555
C5 C4 1_555 1_555
C6 C5 1_555 1_555
H3 C6 1_555 1_555
C7 C2 1_555 1_555
H4 C7 1_555 1_555
C8 C5 1_555 1_555
C9 C8 1_555 1_555
H5 C9 1_555 1_555
C10 C9 1_555 1_555
C11 C10 1_555 1_555
H6 C11 1_555 1_555
C12 C11 1_555 1_555
C13 C12 1_555 1_555
C14 C13 1_555 1_555
H7 C14 1_555 1_555
C15 C14 1_555 1_555
H8 C15 1_555 1_555
C16 C15 1_555 1_555
C17 C16 1_555 1_555
H9 C17 1_555 1_555
C18 C13 1_555 1_555
H10 C18 1_555 1_555
C19 C16 1_555 1_555
C20 C10 1_555 1_555
C21 C20 1_555 1_555
H11 C21 1_555 1_555
C22 C21 1_555 1_555
H12 C22 1_555 1_555
C23 H13 1_555 1_555
C24 C20 1_555 1_555
H14 C24 1_555 1_555
N1 C8 1_555 1_555
N2 C22 1_555 1_555
O1 C19 1_555 1_555
O2 C19 1_555 1_555
O3 C1 1_555 1_555
O4 C1 1_555 1_555
H15 O4 1_555 1_555
O5 Cu1 1_555 1_555
H16 O5 1_555 1_555
H17 O5 1_555 1_555
C25 H18 1_555 1_555
H19 C25 1_555 1_555
H20 C25 1_555 1_555
C26 H21 1_555 1_555
H22 C26 1_555 1_555
H23 C26 1_555 1_555
C27 H24 1_555 1_555
N3 C25 1_555 1_555
O6 C27 1_555 1_555
C28 H25 1_555 1_555
H26 C28 1_555 1_555
H27 C28 1_555 1_555
C29 H28 1_555 1_555
H29 C29 1_555 1_555
H30 C29 1_555 1_555
C30 H31 1_555 1_555
N4 C28 1_555 1_555
O7 C30 1_555 1_555
C1B C2B 1_555 1_555
C2B C3B 1_555 1_555
C3B H1B 1_555 1_555
C4B C3B 1_555 1_555
H2B C4B 1_555 1_555
C5B C4B 1_555 1_555
C6B C5B 1_555 1_555
H3B C6B 1_555 1_555
C7B C2B 1_555 1_555
H4B C7B 1_555 1_555
C8B C5B 1_555 1_555
C9B C8B 1_555 1_555
H5B C9B 1_555 1_555
C10B C9B 1_555 1_555
C11B C10B 1_555 1_555
H6B C11B 1_555 1_555
C12B C11B 1_555 1_555
C13B C12B 1_555 1_555
C14B C13B 1_555 1_555
H7B C14B 1_555 1_555
C15B C14B 1_555 1_555
H8B C15B 1_555 1_555
C16B C15B 1_555 1_555
C17B C16B 1_555 1_555
H9B C17B 1_555 1_555
C18B C13B 1_555 1_555
H10B C18B 1_555 1_555
C19B C16B 1_555 1_555
C20B C10B 1_555 1_555
C21B C20B 1_555 1_555
H11B C21B 1_555 1_555
C22B C21B 1_555 1_555
H12B C22B 1_555 1_555
C23B H13B 1_555 1_555
C24B C20B 1_555 1_555
H14B C24B 1_555 1_555
N1B C8B 1_555 1_555
N2B Cu1 1_555 1_555
O1B C19B 1_555 1_555
O2B C19B 1_555 1_555
O3B C1B 1_555 1_555
O4B C1B 1_555 1_555
H15B O4B 1_555 1_555
O5B Cu1 1_555 1_555
H16B O5B 1_555 1_555
H17B O5B 1_555 1_555
Cu1A O1 1_555 1_555
Cu1A_2 O1B 1_555 1_555
O1A Cu1 1_555 1_555
O1C Cu1 1_555 1_555
C6 C7 1_555 1_555
C12 N1 1_555 1_555
C17 C18 1_555 1_555
C23 C24 1_555 1_555
C23 N2 1_555 1_555
C26 N3 1_555 1_555
C27 N3 1_555 1_555
C29 N4 1_555 1_555
C30 N4 1_555 1_555
C6B C7B 1_555 1_555
C12B N1B 1_555 1_555
C17B C18B 1_555 1_555
C22B N2B 1_555 1_555
C23B C24B 1_555 1_555
C23B N2B 1_555 1_555

#END
