
#######################################################################
#
#                 Cambridge Crystallographic Data Centre
#                                CCDC 
#
#######################################################################
#
# If this CIF has been generated from an entry in the Cambridge 
# Structural Database, then it will include bibliographic, chemical, 
# crystal, experimental, refinement or atomic coordinate data resulting 
# from the CCDC's data processing and validation procedures.
#
#######################################################################

data_MEWFEB
_symmetry_cell_setting           monoclinic
_symmetry_space_group_name_H-M   'C 2/c'
_symmetry_Int_Tables_number      15
_space_group_name_Hall           '-C 2yn'
loop_
_symmetry_equiv_pos_site_id
_symmetry_equiv_pos_as_xyz
1 x,y,z
2 -x,y,1/2-z
3 1/2+x,1/2+y,z
4 1/2-x,1/2+y,1/2-z
5 -x,-y,-z
6 x,-y,1/2+z
7 1/2-x,1/2-y,-z
8 1/2+x,1/2-y,1/2+z
_cell_length_a                   18.6093(19)
_cell_length_b                   11.5447(13)
_cell_length_c                   12.1216(13)
_cell_angle_alpha                90
_cell_angle_beta                 95.625(4)
_cell_angle_gamma                90
_cell_volume                     2591.65
loop_
_atom_site_label
_atom_site_type_symbol
_atom_site_fract_x
_atom_site_fract_y
_atom_site_fract_z
Co1 Co 0.50000 0.74238(2) 0.75000
O1 O 0.56526(5) 0.74192(8) 0.89887(8)
N1 N 0.59538(5) 0.74697(8) 0.65303(8)
N2 N 0.50000 0.93206(11) 0.75000
N3 N 0.50000 1.54917(12) 0.75000
C1 C 0.59232(6) 0.70962(12) 0.54799(10)
C2 C 0.65075(7) 0.71019(13) 0.48560(10)
C3 C 0.71766(6) 0.75068(9) 0.53140(10)
C4 C 0.72032(7) 0.79164(13) 0.63952(11)
C5 C 0.65925(7) 0.78805(12) 0.69653(11)
C6 C 0.48157(7) 0.99302(10) 0.83731(10)
C7 C 0.48067(7) 1.11296(10) 0.84048(10)
C8 C 0.50000 1.17564(13) 0.75000
C9 C 0.50000 1.30435(13) 0.75000
C10 C 0.55676(7) 1.36752(10) 0.71325(11)
C11 C 0.55528(7) 1.48777(10) 0.71687(12)
H1 H 0.54840 0.68170 0.51520
H2 H 0.64530 0.68350 0.41290
H3 H 0.76320 0.82160 0.67380
H4 H 0.66290 0.81570 0.76890
H5 H 0.46880 0.95260 0.89880
H6 H 0.46720 1.15130 0.90270
H7 H 0.59550 1.32940 0.68640
H8 H 0.59480 1.52800 0.69510
H9 H 0.5930(7) 0.6840(9) 0.9229(13)
H10 H 0.5878(8) 0.8051(9) 0.9250(13)
N1F N 0.90462(5) 0.75303(8) 0.34697(8)
C1F C 0.90768(6) 0.79038(12) 0.45201(10)
C2F C 0.84925(7) 0.78981(13) 0.51440(10)
C3F C 0.78234(6) 0.74932(9) 0.46860(10)
C4F C 0.77968(7) 0.70836(13) 0.36048(11)
C5F C 0.84075(7) 0.71195(12) 0.30347(11)
H1F H 0.95160 0.81830 0.48480
H2F H 0.85470 0.81650 0.58710
H3F H 0.73680 0.67840 0.32620
H4F H 0.83710 0.68430 0.23110
C6A C 0.51843(7) 0.99302(10) 0.66269(10)
C7A C 0.51933(7) 1.11296(10) 0.65952(10)
C10A C 0.44324(7) 1.36752(10) 0.78675(11)
C11A C 0.44472(7) 1.48777(10) 0.78313(12)
H5A H 0.53120 0.95260 0.60120
H6A H 0.53280 1.15130 0.59730
H7A H 0.40450 1.32940 0.81360
H8A H 0.40520 1.52800 0.80490
O1A O 0.43474(5) 0.74192(8) 0.60113(8)
H9A H 0.4070(7) 0.6840(9) 0.5771(13)
H10A H 0.4122(8) 0.8051(9) 0.5750(13)
Co1_2 Co 0.50000 1.74238(2) 0.75000
Co1F Co 1.00000 0.75762(2) 0.25000
N1A N 0.40462(5) 0.74697(8) 0.84697(8)
N3_2 N 0.50000 0.54917(12) 0.75000
O2 O 0.73251(11) 1.0878(2) 0.67235(12)
O3 O 0.67234(8) 1.07423(15) 0.81345(14)
O4 O 0.77569(8) 0.99156(14) 0.81568(13)
N4 N 0.72726(8) 1.05039(14) 0.76769(11)
O5 O 0.63340(8) 1.06829(14) 0.48099(11)
H11 H 0.6676(7) 1.0786(14) 0.5353(10)
H12 H 0.6542(8) 1.0272(13) 0.4316(10)
O6 O 0.84438(9) 1.06853(16) 0.53876(15)
H13 H 0.8124(7) 1.0682(15) 0.5868(10)
H14 H 0.8192(8) 1.0679(15) 0.4727(8)
loop_
_geom_bond_atom_site_label_1
_geom_bond_atom_site_label_2
_geom_bond_site_symmetry_1
_geom_bond_site_symmetry_2
Co1 O1 1_555 1_555
O1 H9 1_555 1_555
N1 Co1 1_555 1_555
N2 Co1 1_555 1_555
N3 C11 1_555 1_555
C1 N1 1_555 1_555
C2 C1 1_555 1_555
C3 C2 1_555 1_555
C4 C3 1_555 1_555
C5 N1 1_555 1_555
C6 N2 1_555 1_555
C7 C6 1_555 1_555
C8 C7 1_555 1_555
C9 C8 1_555 1_555
C10 C9 1_555 1_555
C11 C10 1_555 1_555
H1 C1 1_555 1_555
H2 C2 1_555 1_555
H3 C4 1_555 1_555
H4 C5 1_555 1_555
H5 C6 1_555 1_555
H6 C7 1_555 1_555
H7 C10 1_555 1_555
H8 C11 1_555 1_555
H10 O1 1_555 1_555
O2 N4 1_555 1_555
O3 N4 1_555 1_555
O4 N4 1_555 1_555
O5 H11 1_555 1_555
H12 O5 1_555 1_555
O6 H13 1_555 1_555
H14 O6 1_555 1_555
N1F C1F 1_555 1_555
C1F C2F 1_555 1_555
C2F C3F 1_555 1_555
C3F C3 1_555 1_555
C4F C3F 1_555 1_555
C5F N1F 1_555 1_555
H1F C1F 1_555 1_555
H2F C2F 1_555 1_555
H3F C4F 1_555 1_555
H4F C5F 1_555 1_555
C6A N2 1_555 1_555
C7A C8 1_555 1_555
C10A C9 1_555 1_555
C11A N3 1_555 1_555
H5A C6A 1_555 1_555
H6A C7A 1_555 1_555
H7A C10A 1_555 1_555
H8A C11A 1_555 1_555
O1A Co1 1_555 1_555
H9A O1A 1_555 1_555
H10A O1A 1_555 1_555
Co1_2 N3 1_555 1_555
Co1F N1F 1_555 1_555
N1A Co1 1_555 1_555
N3_2 Co1 1_555 1_555
C4 C5 1_555 1_555
C4F C5F 1_555 1_555
C6A C7A 1_555 1_555
C10A C11A 1_555 1_555

#END
