
#######################################################################
#
#                 Cambridge Crystallographic Data Centre
#                                CCDC 
#
#######################################################################
#
# If this CIF has been generated from an entry in the Cambridge 
# Structural Database, then it will include bibliographic, chemical, 
# crystal, experimental, refinement or atomic coordinate data resulting 
# from the CCDC's data processing and validation procedures.
#
#######################################################################

data_MEWNIL
_symmetry_cell_setting           monoclinic
_symmetry_space_group_name_H-M   'P 21/c'
_symmetry_Int_Tables_number      14
_space_group_name_Hall           '-P 2ybc'
loop_
_symmetry_equiv_pos_site_id
_symmetry_equiv_pos_as_xyz
1 x,y,z
2 x,1/2-y,1/2+z
3 -x,-y,-z
4 -x,1/2+y,1/2-z
_cell_length_a                   5.781(1)
_cell_length_b                   14.840(1)
_cell_length_c                   8.920(1)
_cell_angle_alpha                90
_cell_angle_beta                 93.46(1)
_cell_angle_gamma                90
_cell_volume                     763.852
loop_
_atom_site_label
_atom_site_type_symbol
_atom_site_fract_x
_atom_site_fract_y
_atom_site_fract_z
Tm1 Tm 0.13149(4) 0.130564(13) 0.05856(2)
O1 O -0.1594(8) 0.2374(3) 0.0136(6)
H1 H -0.1181 0.2870 0.0548
H2 H -0.2849 0.2195 0.0487
O2 O 0.1707(7) -0.0436(3) 0.0925(4)
H3 H 0.1617 -0.0564 0.1848
H4 H 0.3036 -0.0598 0.0669
O3 O -0.0132(7) 0.1067(3) -0.3485(4)
O4 O 0.2737(7) 0.0998(3) -0.1684(4)
O5 O 0.1372(7) -0.0849(2) -0.2227(4)
O6 O 0.4862(7) -0.0965(3) -0.1111(4)
O7 O 0.3256(7) 0.2353(2) -0.4820(4)
O8 O 0.2257(7) 0.1910(2) -0.7127(4)
C1 C 0.3545(9) 0.0459(3) -0.4077(5)
C2 C 0.4450(9) -0.0383(3) -0.3646(5)
C3 C 0.4114(9) 0.0846(3) -0.5445(5)
C4 C 0.1932(10) 0.0902(3) -0.3018(5)
C5 C 0.3529(9) -0.0776(3) -0.2232(6)
C6 C 0.3119(9) 0.1772(3) -0.5853(6)
C3B C 0.5886(9) -0.0846(3) -0.4555(5)
C1B C 0.6455(9) -0.0459(3) -0.5923(5)
C2B C 0.5550(9) 0.0383(3) -0.6354(5)
C5B C 0.6471(9) 0.0776(3) -0.7768(6)
O5B O 0.8628(7) 0.0849(2) -0.7773(4)
O6B O 0.5138(7) 0.0965(3) -0.8889(4)
C4B C 0.8068(10) -0.0902(3) -0.6982(5)
O3B O 1.0132(7) -0.1067(3) -0.6515(4)
O4B O 0.7263(7) -0.0998(3) -0.8316(4)
C6B C 0.6881(9) -0.1772(3) -0.4147(6)
O7B O 0.6744(7) -0.2353(2) -0.5180(4)
O8B O 0.7743(7) -0.1910(2) -0.2873(4)
O2B O -0.1707(7) 0.0436(3) -0.0925(4)
H3B H -0.1617 0.0564 -0.1848
H4B H -0.3036 0.0598 -0.0669
Tm1B Tm -0.13149(4) -0.130564(13) -0.05856(2)
O1B O 0.1594(8) -0.2374(3) -0.0136(6)
H1B H 0.1181 -0.2870 -0.0548
H2B H 0.2849 -0.2195 -0.0487
O5B_2 O -0.1372(7) 0.0849(2) 0.2227(4)
O6B_2 O 0.5138(7) 0.0965(3) 0.1111(4)
O7A O 0.3256(7) 0.2647(2) 0.0180(4)
O8_2 O 0.2257(7) 0.1910(2) 0.2873(4)
Tm1B_2 Tm 0.86851(4) -0.130564(13) -0.05856(2)
Tm1A Tm 0.13149(4) 0.369436(13) -0.44144(2)
Tm1_2 Tm 0.13149(4) 0.130564(13) -0.94144(2)
Tm1_3 Tm 1.13149(4) 0.130564(13) -0.94144(2)
Tm1B_3 Tm 0.86851(4) -0.130564(13) -1.05856(2)
Tm1C Tm 0.86851(4) -0.369436(13) -0.55856(2)
O4B_2 O -0.2737(7) -0.0998(3) 0.1684(4)
O6_2 O -0.5138(7) -0.0965(3) -0.1111(4)
O7C O -0.3256(7) -0.2647(2) -0.0180(4)
O8B_2 O -0.2257(7) -0.1910(2) -0.2873(4)
loop_
_geom_bond_atom_site_label_1
_geom_bond_atom_site_label_2
_geom_bond_site_symmetry_1
_geom_bond_site_symmetry_2
Tm1 O1 1_555 1_555
O1 H1 1_555 1_555
H2 O1 1_555 1_555
O2 Tm1 1_555 1_555
H3 O2 1_555 1_555
H4 O2 1_555 1_555
O3 C4 1_555 1_555
O4 Tm1 1_555 1_555
O5 C5 1_555 1_555
O6 C5 1_555 1_555
O7 C6 1_555 1_555
O8 C6 1_555 1_555
C1 C2 1_555 1_555
C2 C5 1_555 1_555
C3 C1 1_555 1_555
C4 O4 1_555 1_555
C6 C3 1_555 1_555
C3B C2 1_555 1_555
C1B C3B 1_555 1_555
C2B C3 1_555 1_555
C5B C2B 1_555 1_555
O5B C5B 1_555 1_555
O6B C5B 1_555 1_555
C4B C1B 1_555 1_555
O3B C4B 1_555 1_555
O4B C4B 1_555 1_555
C6B C3B 1_555 1_555
O7B C6B 1_555 1_555
O8B C6B 1_555 1_555
O2B Tm1 1_555 1_555
H3B O2B 1_555 1_555
H4B O2B 1_555 1_555
Tm1B O2 1_555 1_555
O1B Tm1B 1_555 1_555
H1B O1B 1_555 1_555
H2B O1B 1_555 1_555
O5B_2 Tm1 1_555 1_555
O6B_2 Tm1 1_555 1_555
O7A Tm1 1_555 1_555
O8_2 Tm1 1_555 1_555
Tm1B_2 O6 1_555 1_555
Tm1A O7 1_555 1_555
Tm1_2 O8 1_555 1_555
Tm1_3 O5B 1_555 1_555
Tm1B_3 O4B 1_555 1_555
Tm1C O7B 1_555 1_555
O4B_2 Tm1B 1_555 1_555
O6_2 Tm1B 1_555 1_555
O7C Tm1B 1_555 1_555
O8B_2 Tm1B 1_555 1_555
O5 Tm1B 1_555 1_555
C1 C4 1_555 1_555
C1B C2B 1_555 1_555
O6B Tm1_2 1_555 1_555
O8B Tm1B_2 1_555 1_555
O2B Tm1B 1_555 1_555

#END
