
#######################################################################
#
#                 Cambridge Crystallographic Data Centre
#                                CCDC 
#
#######################################################################
#
# If this CIF has been generated from an entry in the Cambridge 
# Structural Database, then it will include bibliographic, chemical, 
# crystal, experimental, refinement or atomic coordinate data resulting 
# from the CCDC's data processing and validation procedures.
#
#######################################################################

data_MEWNAD
_symmetry_cell_setting           orthorhombic
_symmetry_space_group_name_H-M   'P n n m'
_symmetry_Int_Tables_number      58
_space_group_name_Hall           '-P 2 2n'
loop_
_symmetry_equiv_pos_site_id
_symmetry_equiv_pos_as_xyz
1 x,y,z
2 x,y,-z
3 1/2+x,1/2-y,1/2+z
4 1/2-x,1/2+y,1/2+z
5 -x,-y,-z
6 -x,-y,z
7 1/2-x,1/2+y,1/2-z
8 1/2+x,1/2-y,1/2-z
_cell_length_a                   13.642(2)
_cell_length_b                   6.769(1)
_cell_length_c                   10.321(2)
_cell_angle_alpha                90
_cell_angle_beta                 90
_cell_angle_gamma                90
_cell_volume                     953.069
loop_
_atom_site_label
_atom_site_type_symbol
_atom_site_fract_x
_atom_site_fract_y
_atom_site_fract_z
La1 La 0.200114(13) 0.13226(2) 0.0000
C1 C 0.04798(15) 0.0378(3) 0.3833(2)
C2 C 0.0965(2) 0.0736(5) 0.5000
C3 C 0.09937(18) 0.0720(4) 0.2561(2)
O1 O 0.10650(14) -0.0698(3) 0.17664(17)
O2 O 0.13399(17) 0.2388(3) 0.23184(19)
C4 C 0.2046(2) 0.1249(5) 0.5000
O3 O 0.26177(19) -0.0192(4) 0.5000
O4 O 0.2304(2) 0.2997(4) 0.5000
O5 O 0.0218(2) 0.2759(5) 0.0000
H1 H -0.0078 0.2351 0.0637
O6 O 0.33910(18) 0.1095(3) 0.1623(2)
H2 H 0.3461 -0.0056 0.1851
H3 H 0.3544 0.1868 0.2241
C1E C -0.04798(15) -0.0378(3) 0.3833(2)
C2E C -0.0965(2) -0.0736(5) 0.5000
C1D C -0.04798(15) -0.0378(3) 0.6167(2)
C1A C 0.04798(15) 0.0378(3) 0.6167(2)
C3A C 0.09937(18) 0.0720(4) 0.7439(2)
O1A O 0.10650(14) -0.0698(3) 0.82336(17)
O2A O 0.13399(17) 0.2388(3) 0.76816(19)
C3D C -0.09937(18) -0.0720(4) 0.7439(2)
O1D O -0.10650(14) 0.0698(3) 0.82336(17)
O2D O -0.13399(17) -0.2388(3) 0.76816(19)
C4E C -0.2046(2) -0.1249(5) 0.5000
O3E O -0.26177(19) 0.0192(4) 0.5000
O4E O -0.2304(2) -0.2997(4) 0.5000
C3E C -0.09937(18) -0.0720(4) 0.2561(2)
O1E O -0.10650(14) 0.0698(3) 0.17664(17)
O2E O -0.13399(17) -0.2388(3) 0.23184(19)
H1A H -0.0078 0.2351 -0.0637
O6A O 0.33910(18) 0.1095(3) -0.1623(2)
H2A H 0.3461 -0.0056 -0.1851
H3A H 0.3544 0.1868 -0.2241
La1A La 0.200114(13) 0.13226(2) 1.0000
O1A_2 O 0.10650(14) -0.0698(3) -0.17664(17)
O2A_2 O 0.13399(17) 0.2388(3) -0.23184(19)
O3C O 0.23823(19) 0.4808(4) 0.0000
O4C O 0.2696(2) -0.2003(4) 0.0000
La1C La 0.299886(13) -0.36774(2) 0.5000
La1C_2 La 0.299886(13) 0.63226(2) 0.5000
La1D La -0.200114(13) -0.13226(2) 1.0000
La1B La -0.299886(13) 0.36774(2) 0.5000
La1B_2 La -0.299886(13) -0.63226(2) 0.5000
La1D_2 La -0.200114(13) -0.13226(2) 0.0000
O1_2 O 0.10650(14) -0.0698(3) 1.17664(17)
O2_2 O 0.13399(17) 0.2388(3) 1.23184(19)
O3C_2 O 0.23823(19) 0.4808(4) 1.0000
O4C_2 O 0.2696(2) -0.2003(4) 1.0000
O5_2 O 0.0218(2) 0.2759(5) 1.0000
O6_2 O 0.33910(18) 0.1095(3) 1.1623(2)
O6A_2 O 0.33910(18) 0.1095(3) 0.8377(2)
H1_2 H -0.0078 0.2351 1.0637
H1A_2 H -0.0078 0.2351 0.9363
H2_2 H 0.3461 -0.0056 1.1851
H3_2 H 0.3544 0.1868 1.2241
H2A_2 H 0.3461 -0.0056 0.8149
H3A_2 H 0.3544 0.1868 0.7759
loop_
_geom_bond_atom_site_label_1
_geom_bond_atom_site_label_2
_geom_bond_site_symmetry_1
_geom_bond_site_symmetry_2
La1 O1 1_555 1_555
C1 C2 1_555 1_555
C2 C4 1_555 1_555
C3 C1 1_555 1_555
O1 C3 1_555 1_555
O2 La1 1_555 1_555
C4 O3 1_555 1_555
O3 La1C 1_555 1_555
O4 C4 1_555 1_555
O5 La1 1_555 1_555
H1 O5 1_555 1_555
O6 La1 1_555 1_555
H2 O6 1_555 1_555
H3 O6 1_555 1_555
C1E C1 1_555 1_555
C2E C1E 1_555 1_555
C1D C2E 1_555 1_555
C1A C2 1_555 1_555
C3A C1A 1_555 1_555
O1A C3A 1_555 1_555
O2A C3A 1_555 1_555
C3D C1D 1_555 1_555
O1D C3D 1_555 1_555
O2D C3D 1_555 1_555
C4E C2E 1_555 1_555
O3E C4E 1_555 1_555
O4E C4E 1_555 1_555
C3E C1E 1_555 1_555
O1E C3E 1_555 1_555
O2E C3E 1_555 1_555
H1A O5 1_555 1_555
O6A La1 1_555 1_555
H2A O6A 1_555 1_555
H3A O6A 1_555 1_555
La1A O1A 1_555 1_555
O1A_2 La1 1_555 1_555
O2A_2 La1 1_555 1_555
O3C La1 1_555 1_555
O4C La1 1_555 1_555
La1C_2 O4 1_555 1_555
La1D O1D 1_555 1_555
La1B O3E 1_555 1_555
La1B_2 O4E 1_555 1_555
La1D_2 O1E 1_555 1_555
O1_2 La1A 1_555 1_555
O2_2 La1A 1_555 1_555
O3C_2 La1A 1_555 1_555
O4C_2 La1A 1_555 1_555
O5_2 La1A 1_555 1_555
O6_2 La1A 1_555 1_555
O6A_2 La1A 1_555 1_555
H1_2 O5_2 1_555 1_555
H1A_2 O5_2 1_555 1_555
H2_2 O6_2 1_555 1_555
H3_2 O6_2 1_555 1_555
H2A_2 O6A_2 1_555 1_555
H3A_2 O6A_2 1_555 1_555
C3 O2 1_555 1_555
C1D C1A 1_555 1_555
O2A La1A 1_555 1_555
O2D La1D 1_555 1_555
O2E La1D_2 1_555 1_555

#END
