
#######################################################################
#
#                 Cambridge Crystallographic Data Centre
#                                CCDC 
#
#######################################################################
#
# If this CIF has been generated from an entry in the Cambridge 
# Structural Database, then it will include bibliographic, chemical, 
# crystal, experimental, refinement or atomic coordinate data resulting 
# from the CCDC's data processing and validation procedures.
#
#######################################################################

data_MEWNEH
_symmetry_cell_setting           tetragonal
_symmetry_space_group_name_H-M   'P 4/n c c'
_symmetry_Int_Tables_number      130
_space_group_name_Hall           '-P 4a 2ac'
loop_
_symmetry_equiv_pos_site_id
_symmetry_equiv_pos_as_xyz
1 x,y,z
2 1/2-y,x,z
3 y,1/2-x,z
4 1/2+y,1/2+x,1/2-z
5 1/2-x,1/2-y,z
6 -x,1/2+y,1/2-z
7 1/2+x,-y,1/2-z
8 -y,-x,1/2-z
9 -x,-y,-z
10 1/2+y,-x,-z
11 -y,1/2+x,-z
12 1/2-y,1/2-x,1/2+z
13 1/2+x,1/2+y,-z
14 x,1/2-y,1/2+z
15 1/2-x,y,1/2+z
16 y,x,1/2+z
_cell_length_a                   18.443(3)
_cell_length_b                   18.443(3)
_cell_length_c                   10.374(2)
_cell_angle_alpha                90
_cell_angle_beta                 90
_cell_angle_gamma                90
_cell_volume                     3528.66
loop_
_atom_site_label
_atom_site_type_symbol
_atom_site_fract_x
_atom_site_fract_y
_atom_site_fract_z
Tm1 Tm 0.026318(12) -0.254572(10) 0.34775(2)
O1 O 0.1384(2) -0.24785(18) 0.2197(4)
H1 H 0.1749 -0.2629 0.2618
H2 H 0.1464 -0.2051 0.1924
O2 O -0.0895(2) -0.2112(3) 0.3600(5)
H3 H -0.0950 -0.1711 0.3208
H4 H -0.1049 -0.2080 0.4371
O3 O -0.1110(2) -0.3665(2) 0.1764(5)
O4 O 0.0056(2) -0.3440(2) 0.2155(4)
O5 O 0.16299(19) -0.38995(19) 0.0732(4)
O6 O 0.0828(2) -0.32039(18) -0.0198(4)
O7 O -0.19659(19) -0.4756(2) 0.0258(4)
O8 O -0.1570(2) -0.5175(2) 0.2138(4)
C1 C -0.0214(2) -0.4391(2) 0.0718(5)
C2 C 0.0484(3) -0.4425(2) 0.0203(5)
C3 C -0.0701(2) -0.4959(2) 0.0493(5)
C4 C -0.0450(3) -0.3784(3) 0.1599(5)
C5 C 0.1015(2) -0.3797(3) 0.0278(4)
C6 C -0.1470(3) -0.4954(3) 0.1013(5)
C3H C 0.0701(2) -0.5041(2) -0.0493(5)
C1H C 0.0214(2) -0.5609(2) -0.0718(5)
C2H C -0.0484(3) -0.5575(2) -0.0203(5)
C5H C -0.1015(2) -0.6203(3) -0.0278(4)
O5H O -0.16299(19) -0.61005(19) -0.0732(4)
O6H O -0.0828(2) -0.67961(18) 0.0198(4)
C4H C 0.0450(3) -0.6216(3) -0.1599(5)
O3H O 0.1110(2) -0.6335(2) -0.1764(5)
O4H O -0.0056(2) -0.6560(2) -0.2155(4)
C6H C 0.1470(3) -0.5046(3) -0.1013(5)
O7H O 0.19659(19) -0.5244(2) -0.0258(4)
O8H O 0.1570(2) -0.4825(2) -0.2138(4)
Tm1H Tm -0.026318(12) -0.745428(10) -0.34775(2)
O1H O -0.1384(2) -0.75215(18) -0.2197(4)
H1H H -0.1749 -0.7371 -0.2618
H2H H -0.1464 -0.7949 -0.1924
O2H O 0.0895(2) -0.7888(3) -0.3600(5)
H3H H 0.0950 -0.8289 -0.3208
H4H H 0.1049 -0.7920 -0.4371
O5C O 0.11005(19) -0.33701(19) 0.4268(4)
O6M O 0.0828(2) -0.17961(18) 0.4802(4)
O7K O -0.0244(2) -0.30341(19) 0.5258(4)
O8A O 0.0175(2) -0.1570(2) 0.2138(4)
Tm1C Tm 0.245428(10) -0.473682(12) 0.15225(2)
Tm1M Tm 0.026318(12) -0.245428(10) -0.15225(2)
Tm1K Tm -0.245428(10) -0.526318(12) -0.15225(2)
Tm1B Tm -0.254572(10) -0.526318(12) 0.34775(2)
Tm1E Tm -0.026318(12) -0.754572(10) 0.15225(2)
Tm1J Tm 0.254572(10) -0.473682(12) -0.34775(2)
O5K O -0.11005(19) -0.66299(19) -0.4268(4)
O6E O -0.0828(2) -0.82039(18) -0.4802(4)
O7C O 0.0244(2) -0.69659(19) -0.5258(4)
O8I O -0.0175(2) -0.8430(2) -0.2138(4)
O9 O -0.2076(10) -0.1892(10) 0.5007(19)
O10? O -0.1756(11) -0.2521(9) 0.5737(17)
loop_
_geom_bond_atom_site_label_1
_geom_bond_atom_site_label_2
_geom_bond_site_symmetry_1
_geom_bond_site_symmetry_2
Tm1 O1 1_555 1_555
O1 H1 1_555 1_555
H2 O1 1_555 1_555
O2 Tm1 1_555 1_555
H3 O2 1_555 1_555
H4 O2 1_555 1_555
O3 C4 1_555 1_555
O4 Tm1 1_555 1_555
O5 C5 1_555 1_555
O6 C5 1_555 1_555
O7 C6 1_555 1_555
O8 C6 1_555 1_555
C1 C2 1_555 1_555
C2 C5 1_555 1_555
C3 C1 1_555 1_555
C4 O4 1_555 1_555
C6 C3 1_555 1_555
C3H C2 1_555 1_555
C1H C3H 1_555 1_555
C2H C3 1_555 1_555
C5H C2H 1_555 1_555
O5H C5H 1_555 1_555
O6H C5H 1_555 1_555
C4H C1H 1_555 1_555
O3H C4H 1_555 1_555
O4H C4H 1_555 1_555
C6H C3H 1_555 1_555
O7H C6H 1_555 1_555
O8H C6H 1_555 1_555
Tm1H O4H 1_555 1_555
O1H Tm1H 1_555 1_555
H1H O1H 1_555 1_555
H2H O1H 1_555 1_555
O2H Tm1H 1_555 1_555
H3H O2H 1_555 1_555
H4H O2H 1_555 1_555
O5C Tm1 1_555 1_555
O6M Tm1 1_555 1_555
O7K Tm1 1_555 1_555
O8A Tm1 1_555 1_555
Tm1C O5 1_555 1_555
Tm1M O6 1_555 1_555
Tm1K O7 1_555 1_555
Tm1B O8 1_555 1_555
Tm1E O6H 1_555 1_555
Tm1J O8H 1_555 1_555
O5K Tm1H 1_555 1_555
O6E Tm1H 1_555 1_555
O7C Tm1H 1_555 1_555
O8I Tm1H 1_555 1_555
C1 C4 1_555 1_555
C1H C2H 1_555 1_555
O5H Tm1K 1_555 1_555
O7H Tm1C 1_555 1_555

#END
