
#######################################################################
#
#                 Cambridge Crystallographic Data Centre
#                                CCDC 
#
#######################################################################
#
# If this CIF has been generated from an entry in the Cambridge 
# Structural Database, then it will include bibliographic, chemical, 
# crystal, experimental, refinement or atomic coordinate data resulting 
# from the CCDC's data processing and validation procedures.
#
#######################################################################

data_MEXBAS
_symmetry_cell_setting           monoclinic
_symmetry_space_group_name_H-M   'C 2/c'
_symmetry_Int_Tables_number      15
_space_group_name_Hall           '-C 2yn'
loop_
_symmetry_equiv_pos_site_id
_symmetry_equiv_pos_as_xyz
1 x,y,z
2 1/2+x,1/2+y,z
3 x,-y,1/2+z
4 1/2+x,1/2-y,1/2+z
5 -x,-y,-z
6 1/2-x,1/2-y,-z
7 -x,y,1/2-z
8 1/2-x,1/2+y,1/2-z
_cell_length_a                   21.5985(13)
_cell_length_b                   20.2480(12)
_cell_length_c                   8.0207(5)
_cell_angle_alpha                90
_cell_angle_beta                 103.2650(10)
_cell_angle_gamma                90
_cell_volume                     3414.08
loop_
_atom_site_label
_atom_site_type_symbol
_atom_site_fract_x
_atom_site_fract_y
_atom_site_fract_z
Rh1 Rh 0.221555(17) 0.205224(18) 0.04622(4)
C1 C 0.2048(3) 0.0631(3) 0.1640(6)
H1 H 0.2425 0.0602 0.1224
C2 C 0.1857(3) 0.0071(3) 0.2399(7)
H2 H 0.2101 -0.0324 0.2521
C3 C 0.1304(3) 0.0109(3) 0.2964(8)
H3 H 0.1154 -0.0265 0.3468
C4 C 0.0973(3) 0.0689(3) 0.2795(8)
H4 H 0.0587 0.0718 0.3170
C5 C 0.1200(2) 0.1240(3) 0.2070(7)
C6 C 0.0888(3) 0.1858(3) 0.1989(7)
C7 C 0.0598(2) 0.2363(3) 0.2042(7)
C8 C 0.0290(3) 0.2970(3) 0.2231(7)
C9 C 0.0559(3) 0.3572(3) 0.1937(8)
H5 H 0.0943 0.3573 0.1550
C10 C 0.0283(3) 0.4167(3) 0.2191(8)
C11 C 0.1042(5) 0.4795(4) 0.1171(12)
H6 H 0.1402 0.4567 0.1916
H7 H 0.1158 0.5256 0.1028
H8 H 0.0936 0.4577 0.0050
C12 C 0.2407(2) 0.3188(3) 0.2680(6)
C13 C 0.2392(3) 0.3544(3) 0.4321(6)
H9 H 0.2581 0.3262 0.5299
H10 H 0.1951 0.3646 0.4345
H11 H 0.2636 0.3955 0.4384
C14 C 0.3560(2) 0.2028(3) 0.1867(6)
C15 C 0.4167(3) 0.1783(4) 0.3022(8)
H12 H 0.4402 0.1515 0.2356
H13 H 0.4066 0.1513 0.3938
H14 H 0.4428 0.2160 0.3524
N1 N 0.17390(19) 0.1201(2) 0.1461(5)
O1 O 0.0509(3) 0.4773(2) 0.1920(6)
O2 O 0.21556(16) 0.26233(17) 0.2506(4)
O3 O 0.26750(18) 0.34747(17) 0.1630(4)
O4 O 0.30618(16) 0.16966(17) 0.1845(4)
O5 O 0.35952(16) 0.25449(18) 0.1024(4)
C8F C -0.0290(3) 0.2970(3) 0.2769(7)
C7F C -0.0598(2) 0.2363(3) 0.2958(7)
C6F C -0.0888(3) 0.1858(3) 0.3011(7)
C5F C -0.1200(2) 0.1240(3) 0.2930(7)
C4F C -0.0973(3) 0.0689(3) 0.2205(8)
C3F C -0.1304(3) 0.0109(3) 0.2036(8)
C2F C -0.1857(3) 0.0071(3) 0.2601(7)
C1F C -0.2048(3) 0.0631(3) 0.3360(6)
H1F H -0.2425 0.0602 0.3776
N1F N -0.17390(19) 0.1201(2) 0.3539(5)
H2F H -0.2101 -0.0324 0.2479
H3F H -0.1154 -0.0265 0.1532
H4F H -0.0587 0.0718 0.1830
C9F C -0.0559(3) 0.3572(3) 0.3063(8)
H5F H -0.0943 0.3573 0.3450
C10F C -0.0283(3) 0.4167(3) 0.2809(8)
O1F O -0.0509(3) 0.4773(2) 0.3080(6)
C11F C -0.1042(5) 0.4795(4) 0.3829(12)
H6F H -0.1402 0.4567 0.3084
H7F H -0.1158 0.5256 0.3972
H8F H -0.0936 0.4577 0.4950
C12E C 0.2593(2) 0.1812(3) -0.2680(6)
C13E C 0.2608(3) 0.1456(3) -0.4321(6)
H9E H 0.2419 0.1738 -0.5299
H10E H 0.3049 0.1354 -0.4345
H11E H 0.2364 0.1045 -0.4384
O2E O 0.28444(16) 0.23767(17) -0.2506(4)
O3E O 0.23250(18) 0.15253(17) -0.1630(4)
C14E C 0.1440(2) 0.2972(3) -0.1867(6)
C15E C 0.0833(3) 0.3217(4) -0.3022(8)
H12E H 0.0598 0.3485 -0.2356
H13E H 0.0934 0.3487 -0.3938
H14E H 0.0572 0.2840 -0.3524
O4E O 0.19382(16) 0.33034(17) -0.1845(4)
O5E O 0.14048(16) 0.24551(18) -0.1024(4)
Rh1F Rh -0.221555(17) 0.205224(18) 0.45378(4)
Rh1E Rh 0.278445(17) 0.294776(18) -0.04622(4)
Rh1C Rh -0.278445(17) 0.294776(18) 0.54622(4)
O2F O -0.21556(16) 0.26233(17) 0.2494(4)
O3C O -0.23250(18) 0.15253(17) 0.6630(4)
O4F O -0.30618(16) 0.16966(17) 0.3155(4)
O5C O -0.14048(16) 0.24551(18) 0.6024(4)
C16 C 0.0000 0.1669(5) 0.7500
H15 H -0.0282 0.1969 0.6691
H16 H 0.0282 0.1969 0.8309
Cl1 Cl 0.0570(2) 0.1402(3) 0.6113(6)
Cl1F Cl -0.0570(2) 0.1402(3) 0.8887(6)
H17? H -0.0384 0.1933 0.7008
H18? H 0.0384 0.1933 0.7992
Cl2? Cl 0.0105(3) 0.0927(3) 0.6482(7)
loop_
_geom_bond_atom_site_label_1
_geom_bond_atom_site_label_2
_geom_bond_site_symmetry_1
_geom_bond_site_symmetry_2
Rh1 N1 1_555 1_555
C1 H1 1_555 1_555
C2 C1 1_555 1_555
H2 C2 1_555 1_555
C3 C2 1_555 1_555
H3 C3 1_555 1_555
C4 C3 1_555 1_555
H4 C4 1_555 1_555
C5 C4 1_555 1_555
C6 C5 1_555 1_555
C7 C6 1_555 1_555
C8 C7 1_555 1_555
C9 C8 1_555 1_555
H5 C9 1_555 1_555
C10 C9 1_555 1_555
C11 H6 1_555 1_555
H7 C11 1_555 1_555
H8 C11 1_555 1_555
C12 C13 1_555 1_555
C13 H9 1_555 1_555
H10 C13 1_555 1_555
H11 C13 1_555 1_555
C14 C15 1_555 1_555
C15 H12 1_555 1_555
H13 C15 1_555 1_555
H14 C15 1_555 1_555
N1 C1 1_555 1_555
O1 C10 1_555 1_555
O2 Rh1 1_555 1_555
O3 C12 1_555 1_555
O4 Rh1 1_555 1_555
O5 C14 1_555 1_555
C16 H15 1_555 1_555
H16 C16 1_555 1_555
Cl1 C16 1_555 1_555
C8F C8 1_555 1_555
C7F C8F 1_555 1_555
C6F C7F 1_555 1_555
C5F C6F 1_555 1_555
C4F C5F 1_555 1_555
C3F C4F 1_555 1_555
C2F C3F 1_555 1_555
C1F C2F 1_555 1_555
H1F C1F 1_555 1_555
N1F C5F 1_555 1_555
H2F C2F 1_555 1_555
H3F C3F 1_555 1_555
H4F C4F 1_555 1_555
C9F C8F 1_555 1_555
H5F C9F 1_555 1_555
C10F C10 1_555 1_555
O1F C10F 1_555 1_555
C11F O1F 1_555 1_555
H6F C11F 1_555 1_555
H7F C11F 1_555 1_555
H8F C11F 1_555 1_555
Cl1F C16 1_555 1_555
C12E C13E 1_555 1_555
C13E H9E 1_555 1_555
H10E C13E 1_555 1_555
H11E C13E 1_555 1_555
O2E C12E 1_555 1_555
O3E Rh1 1_555 1_555
C14E C15E 1_555 1_555
C15E H12E 1_555 1_555
H13E C15E 1_555 1_555
H14E C15E 1_555 1_555
O4E C14E 1_555 1_555
O5E Rh1 1_555 1_555
Rh1F N1F 1_555 1_555
Rh1E Rh1 1_555 1_555
Rh1C Rh1F 1_555 1_555
O2F Rh1F 1_555 1_555
O3C Rh1F 1_555 1_555
O4F Rh1F 1_555 1_555
O5C Rh1F 1_555 1_555
C5 N1 1_555 1_555
C11 O1 1_555 1_555
C12 O2 1_555 1_555
C14 O4 1_555 1_555
O3 Rh1E 1_555 1_555
O5 Rh1E 1_555 1_555
C1F N1F 1_555 1_555
C9F C10F 1_555 1_555
C12E O3E 1_555 1_555
O2E Rh1E 1_555 1_555
C14E O5E 1_555 1_555
O4E Rh1E 1_555 1_555

#END
