
#######################################################################
#
#                 Cambridge Crystallographic Data Centre
#                                CCDC 
#
#######################################################################
#
# If this CIF has been generated from an entry in the Cambridge 
# Structural Database, then it will include bibliographic, chemical, 
# crystal, experimental, refinement or atomic coordinate data resulting 
# from the CCDC's data processing and validation procedures.
#
#######################################################################

data_MEXHOO
_symmetry_cell_setting           monoclinic
_symmetry_space_group_name_H-M   'C 2/c'
_symmetry_Int_Tables_number      15
_space_group_name_Hall           '-C 2yn'
loop_
_symmetry_equiv_pos_site_id
_symmetry_equiv_pos_as_xyz
1 x,y,z
2 -x,y,1/2-z
3 1/2+x,1/2+y,z
4 1/2-x,1/2+y,1/2-z
5 -x,-y,-z
6 x,-y,1/2+z
7 1/2-x,1/2-y,-z
8 1/2+x,1/2-y,1/2+z
_cell_length_a                   17.550(3)
_cell_length_b                   8.0828(12)
_cell_length_c                   15.425(2)
_cell_angle_alpha                90
_cell_angle_beta                 100.558(2)
_cell_angle_gamma                90
_cell_volume                     2151.04
loop_
_atom_site_label
_atom_site_type_symbol
_atom_site_fract_x
_atom_site_fract_y
_atom_site_fract_z
C1 C 0.10405(16) 0.0141(4) 0.37387(19)
C2 C 0.04841(14) 0.0098(3) 0.43769(16)
C3 C -0.01428(14) 0.1202(3) 0.43241(16)
C4 C 0.06111(15) -0.1071(3) 0.50427(17)
H1 H 0.1026 -0.1797 0.5068
C5 C 0.14154(18) 0.5409(4) 0.2821(2)
C6 C 0.2275(3) 0.7161(6) 0.2379(5)
H2 H 0.2177 0.8342 0.2379
H3 H 0.2623 0.6929 0.1973
C7 C 0.2605(2) 0.6587(6) 0.3262(5)
H4 H 0.2711 0.7506 0.3671
H5 H 0.3080 0.5972 0.3264
C8 C 0.0982(4) 0.6567(8) 0.1358(3)
H6 H 0.1209 0.7198 0.0943
H7 H 0.0560 0.7178 0.1519
H8 H 0.0793 0.5535 0.1094
C9 C 0.2002(4) 0.4805(7) 0.4328(3)
H9 H 0.2485 0.5044 0.4710
H10 H 0.1938 0.3629 0.4266
H11 H 0.1583 0.5257 0.4575
N1 N 0.15590(19) 0.6252(4) 0.2134(2)
N2 N 0.19989(19) 0.5522(4) 0.3487(3)
O1 O 0.08341(11) 0.0970(3) 0.30113(13)
O2 O -0.02943(11) 0.2381(2) 0.36978(12)
O3 O 0.08044(12) 0.4612(3) 0.28274(14)
O4 O 0.16535(14) -0.0572(4) 0.39070(16)
Zr1 Zr 0.0000 0.26734(5) 0.2500
C1D C -0.10405(16) -0.0141(4) 0.62613(19)
C2D C -0.04841(14) -0.0098(3) 0.56231(16)
C3D C 0.01428(14) -0.1202(3) 0.56759(16)
C4D C -0.06111(15) 0.1071(3) 0.49573(17)
H1D H -0.1026 0.1797 0.4932
O1D O -0.08341(11) -0.0970(3) 0.69887(13)
O2D O 0.02943(11) -0.2381(2) 0.63022(12)
O4D O -0.16535(14) 0.0572(4) 0.60930(16)
C5A C -0.14154(18) 0.5409(4) 0.2179(2)
C6A C -0.2275(3) 0.7161(6) 0.2621(5)
H2A H -0.2177 0.8342 0.2621
H3A H -0.2623 0.6929 0.3027
C7A C -0.2605(2) 0.6587(6) 0.1738(5)
H4A H -0.2711 0.7506 0.1329
H5A H -0.3080 0.5972 0.1736
C8A C -0.0982(4) 0.6567(8) 0.3642(3)
H6A H -0.1209 0.7198 0.4057
H7A H -0.0560 0.7178 0.3481
H8A H -0.0793 0.5535 0.3906
C9A C -0.2002(4) 0.4805(7) 0.0672(3)
H9A H -0.2485 0.5044 0.0290
H10A H -0.1938 0.3629 0.0734
H11A H -0.1583 0.5257 0.0425
N1A N -0.15590(19) 0.6252(4) 0.2866(2)
N2A N -0.19989(19) 0.5522(4) 0.1513(3)
O3A O -0.08044(12) 0.4612(3) 0.21726(14)
O1A O -0.08341(11) 0.0970(3) 0.19887(13)
O2A O 0.02943(11) 0.2381(2) 0.13022(12)
Zr1D Zr 0.0000 -0.26734(5) 0.7500
loop_
_geom_bond_atom_site_label_1
_geom_bond_atom_site_label_2
_geom_bond_site_symmetry_1
_geom_bond_site_symmetry_2
C1 C2 1_555 1_555
C2 C3 1_555 1_555
C3 O2 1_555 1_555
C4 C2 1_555 1_555
H1 C4 1_555 1_555
C5 N1 1_555 1_555
C6 H2 1_555 1_555
H3 C6 1_555 1_555
C7 C6 1_555 1_555
H4 C7 1_555 1_555
H5 C7 1_555 1_555
C8 H6 1_555 1_555
H7 C8 1_555 1_555
H8 C8 1_555 1_555
C9 H9 1_555 1_555
H10 C9 1_555 1_555
H11 C9 1_555 1_555
N1 C6 1_555 1_555
N2 C5 1_555 1_555
O1 C1 1_555 1_555
O2 Zr1 1_555 1_555
O3 C5 1_555 1_555
O4 C1 1_555 1_555
Zr1 O1 1_555 1_555
C1D C2D 1_555 1_555
C2D C3D 1_555 1_555
C3D C4 1_555 1_555
C4D C3 1_555 1_555
H1D C4D 1_555 1_555
O1D C1D 1_555 1_555
O2D C3D 1_555 1_555
O4D C1D 1_555 1_555
C5A N1A 1_555 1_555
C6A H2A 1_555 1_555
H3A C6A 1_555 1_555
C7A C6A 1_555 1_555
H4A C7A 1_555 1_555
H5A C7A 1_555 1_555
C8A H6A 1_555 1_555
H7A C8A 1_555 1_555
H8A C8A 1_555 1_555
C9A H9A 1_555 1_555
H10A C9A 1_555 1_555
H11A C9A 1_555 1_555
N1A C6A 1_555 1_555
N2A C5A 1_555 1_555
O3A Zr1 1_555 1_555
O1A Zr1 1_555 1_555
O2A Zr1 1_555 1_555
Zr1D O1D 1_555 1_555
C7 N2 1_555 1_555
C8 N1 1_555 1_555
C9 N2 1_555 1_555
O3 Zr1 1_555 1_555
C2D C4D 1_555 1_555
O2D Zr1D 1_555 1_555
C5A O3A 1_555 1_555
C7A N2A 1_555 1_555
C8A N1A 1_555 1_555
C9A N2A 1_555 1_555

#END
