
#######################################################################
#
#                 Cambridge Crystallographic Data Centre
#                                CCDC 
#
#######################################################################
#
# If this CIF has been generated from an entry in the Cambridge 
# Structural Database, then it will include bibliographic, chemical, 
# crystal, experimental, refinement or atomic coordinate data resulting 
# from the CCDC's data processing and validation procedures.
#
#######################################################################

data_MEXHII
_symmetry_cell_setting           monoclinic
_symmetry_space_group_name_H-M   'C 2/c'
_symmetry_Int_Tables_number      15
_space_group_name_Hall           '-C 2yn'
loop_
_symmetry_equiv_pos_site_id
_symmetry_equiv_pos_as_xyz
1 x,y,z
2 -x,y,1/2-z
3 1/2+x,1/2+y,z
4 1/2-x,1/2+y,1/2-z
5 -x,-y,-z
6 x,-y,1/2+z
7 1/2-x,1/2-y,-z
8 1/2+x,1/2-y,1/2+z
_cell_length_a                   18.761(2)
_cell_length_b                   8.4049(10)
_cell_length_c                   14.8816(17)
_cell_angle_alpha                90
_cell_angle_beta                 102.2390(10)
_cell_angle_gamma                90
_cell_volume                     2293.26
loop_
_atom_site_label
_atom_site_type_symbol
_atom_site_fract_x
_atom_site_fract_y
_atom_site_fract_z
C1 C 0.01168(12) 0.8750(3) 0.06523(15)
C2 C -0.04708(11) 0.9809(3) 0.06010(16)
C3 C -0.10053(13) 0.9651(4) 0.12208(19)
C4 C 0.05755(12) 0.8979(3) 0.00446(16)
H1 H 0.0968 0.8292 0.0072
C5 C 0.13245(14) 0.4514(3) 0.28509(18)
C6 C 0.1951(3) 0.2463(6) 0.2172(4)
H2 H 0.1811 0.1438 0.2380
H3 H 0.2043 0.2328 0.1559
C7 C 0.2608(3) 0.3007(6) 0.2785(6)
H4 H 0.2813 0.3874 0.2491
H5 H 0.2961 0.2146 0.2880
C8 C 0.25001(19) 0.3551(5) 0.3685(4)
H6 H 0.2447 0.2635 0.4061
H7 H 0.2927 0.4139 0.3993
C9 C 0.1770(2) 0.5490(5) 0.4385(2)
H8 H 0.2201 0.5396 0.4862
H9 H 0.1357 0.5104 0.4607
H10 H 0.1694 0.6587 0.4211
C10 C 0.0730(3) 0.3413(7) 0.1388(3)
H11 H 0.0849 0.2712 0.0932
H12 H 0.0594 0.4435 0.1117
H13 H 0.0331 0.2977 0.1617
N1 N 0.18563(12) 0.4566(3) 0.35990(19)
N2 N 0.13613(17) 0.3589(3) 0.2142(2)
O1 O 0.07673(10) 0.5374(2) 0.28218(12)
O2 O -0.07967(9) 0.8873(2) 0.19808(13)
O3 O 0.02342(9) 0.7526(2) 0.12481(12)
O4 O -0.16069(11) 1.0250(4) 0.10048(17)
Zr1 Zr 0.0000 0.72101(4) 0.2500
C1D C -0.01168(12) 1.1250(3) -0.06523(15)
C2D C 0.04708(11) 1.0191(3) -0.06010(16)
C3D C 0.10053(13) 1.0349(4) -0.12208(19)
C4D C -0.05755(12) 1.1021(3) -0.00446(16)
H1D H -0.0968 1.1708 -0.0072
O2D O 0.07967(9) 1.1127(2) -0.19808(13)
O3D O -0.02342(9) 1.2474(2) -0.12481(12)
O4D O 0.16069(11) 0.9750(4) -0.10048(17)
C5A C -0.13245(14) 0.4514(3) 0.21491(18)
C6A C -0.1951(3) 0.2463(6) 0.2828(4)
H2A H -0.1811 0.1438 0.2620
H3A H -0.2043 0.2328 0.3441
C7A C -0.2608(3) 0.3007(6) 0.2215(6)
H4A H -0.2813 0.3874 0.2509
H5A H -0.2961 0.2146 0.2120
C8A C -0.25001(19) 0.3551(5) 0.1315(4)
H6A H -0.2447 0.2635 0.0939
H7A H -0.2927 0.4139 0.1007
C9A C -0.1770(2) 0.5490(5) 0.0615(2)
H8A H -0.2201 0.5396 0.0138
H9A H -0.1357 0.5104 0.0393
H10A H -0.1694 0.6587 0.0789
C10A C -0.0730(3) 0.3413(7) 0.3612(3)
H11A H -0.0849 0.2712 0.4068
H12A H -0.0594 0.4435 0.3883
H13A H -0.0331 0.2977 0.3383
N1A N -0.18563(12) 0.4566(3) 0.14010(19)
N2A N -0.13613(17) 0.3589(3) 0.2858(2)
O1A O -0.07673(10) 0.5374(2) 0.21782(12)
O2A O 0.07967(9) 0.8873(2) 0.30192(13)
O3A O -0.02342(9) 0.7526(2) 0.37519(12)
Zr1D Zr 0.0000 1.27899(4) -0.2500
loop_
_geom_bond_atom_site_label_1
_geom_bond_atom_site_label_2
_geom_bond_site_symmetry_1
_geom_bond_site_symmetry_2
C1 C2 1_555 1_555
C2 C3 1_555 1_555
C3 O2 1_555 1_555
C4 C1 1_555 1_555
H1 C4 1_555 1_555
C5 N1 1_555 1_555
C6 H2 1_555 1_555
H3 C6 1_555 1_555
C7 C6 1_555 1_555
H4 C7 1_555 1_555
H5 C7 1_555 1_555
C8 C7 1_555 1_555
H6 C8 1_555 1_555
H7 C8 1_555 1_555
C9 H8 1_555 1_555
H9 C9 1_555 1_555
H10 C9 1_555 1_555
C10 H11 1_555 1_555
H12 C10 1_555 1_555
H13 C10 1_555 1_555
N1 C8 1_555 1_555
N2 C5 1_555 1_555
O1 C5 1_555 1_555
O2 Zr1 1_555 1_555
O3 C1 1_555 1_555
O4 C3 1_555 1_555
Zr1 O1 1_555 1_555
C1D C2D 1_555 1_555
C2D C4 1_555 1_555
C3D C2D 1_555 1_555
C4D C2 1_555 1_555
H1D C4D 1_555 1_555
O2D C3D 1_555 1_555
O3D C1D 1_555 1_555
O4D C3D 1_555 1_555
C5A N1A 1_555 1_555
C6A H2A 1_555 1_555
H3A C6A 1_555 1_555
C7A C6A 1_555 1_555
H4A C7A 1_555 1_555
H5A C7A 1_555 1_555
C8A C7A 1_555 1_555
H6A C8A 1_555 1_555
H7A C8A 1_555 1_555
C9A H8A 1_555 1_555
H9A C9A 1_555 1_555
H10A C9A 1_555 1_555
C10A H11A 1_555 1_555
H12A C10A 1_555 1_555
H13A C10A 1_555 1_555
N1A C8A 1_555 1_555
N2A C5A 1_555 1_555
O1A Zr1 1_555 1_555
O2A Zr1 1_555 1_555
O3A Zr1 1_555 1_555
Zr1D O2D 1_555 1_555
C6 N2 1_555 1_555
C9 N1 1_555 1_555
C10 N2 1_555 1_555
O3 Zr1 1_555 1_555
C1D C4D 1_555 1_555
O3D Zr1D 1_555 1_555
C5A O1A 1_555 1_555
C6A N2A 1_555 1_555
C9A N1A 1_555 1_555
C10A N2A 1_555 1_555

#END
