
#######################################################################
#
#                 Cambridge Crystallographic Data Centre
#                                CCDC 
#
#######################################################################
#
# If this CIF has been generated from an entry in the Cambridge 
# Structural Database, then it will include bibliographic, chemical, 
# crystal, experimental, refinement or atomic coordinate data resulting 
# from the CCDC's data processing and validation procedures.
#
#######################################################################

data_MEXHUU
_symmetry_cell_setting           triclinic
_symmetry_space_group_name_H-M   'P -1'
_symmetry_Int_Tables_number      2
_space_group_name_Hall           '-P 1'
loop_
_symmetry_equiv_pos_site_id
_symmetry_equiv_pos_as_xyz
1 x,y,z
2 -x,-y,-z
_cell_length_a                   10.389(2)
_cell_length_b                   11.0920(10)
_cell_length_c                   12.105(2)
_cell_angle_alpha                63.47(3)
_cell_angle_beta                 79.75(2)
_cell_angle_gamma                71.08(3)
_cell_volume                     1179.7
loop_
_atom_site_label
_atom_site_type_symbol
_atom_site_fract_x
_atom_site_fract_y
_atom_site_fract_z
Cu1 Cu 0.38105(3) 1.33009(3) 0.12726(3)
N1 N 0.3870(2) 1.1263(2) 0.2105(2)
N2 N -0.2404(2) 0.6278(2) -0.0103(2)
N3 N 0.3422(3) 0.7212(3) 0.3637(2)
H1 H 0.353(3) 0.686(3) 0.311(2)
N4 N 0.0555(3) 0.5102(3) 0.2416(2)
H2 H 0.111(3) 0.562(3) 0.214(3)
O1 O 0.3441(3) 1.5323(2) 0.0619(2)
O2 O 0.4349(2) 1.5789(2) 0.20428(18)
O3 O 0.2229(2) 1.7265(2) 0.1090(2)
O4 O 0.4322(2) 1.7294(2) -0.01280(18)
O5 O 0.4686(2) 1.3056(2) 0.2695(2)
H3 H 0.5446(18) 1.251(3) 0.284(3)
H4 H 0.474(4) 1.3836(18) 0.251(3)
O6 O 0.3448(3) 0.6518(2) 0.57191(19)
O7 O 0.0307(3) 0.2996(3) 0.3841(3)
C1 C 0.4035(3) 1.0521(3) 0.1435(3)
H5 H 0.4239 1.0942 0.0593
C2 C 0.3919(3) 0.9193(3) 0.1921(3)
H6 H 0.4033 0.8731 0.1416
C3 C 0.3626(3) 0.8524(3) 0.3190(3)
C4 C 0.3509(3) 0.9258(3) 0.3902(3)
H7 H 0.3347 0.8849 0.4753
C5 C 0.3638(3) 1.0592(3) 0.3320(3)
H8 H 0.3559 1.1069 0.3805
C6 C 0.3258(3) 0.6324(3) 0.4860(3)
C7 C 0.2840(3) 0.5079(3) 0.5039(3)
C8 C 0.3220(3) 0.3856(3) 0.6112(3)
H9 H 0.3719 0.3824 0.6696
C9 C 0.2842(4) 0.2693(3) 0.6295(3)
H10 H 0.3099 0.1869 0.7003
C10 C 0.2090(3) 0.2740(3) 0.5440(3)
H11 H 0.1854 0.1944 0.5572
C11 C 0.1680(3) 0.3970(3) 0.4378(3)
C12 C 0.2061(3) 0.5133(3) 0.4189(3)
H12 H 0.1793 0.5960 0.3485
C13 C 0.0795(3) 0.3964(3) 0.3530(3)
C14 C -0.0426(3) 0.5437(3) 0.1590(3)
C15 C -0.0365(3) 0.6471(3) 0.0409(3)
H13 H 0.0330 0.6907 0.0166
C16 C -0.1348(3) 0.6846(3) -0.0406(3)
H14 H -0.1282 0.7524 -0.1204
C17 C -0.2423(3) 0.5272(3) 0.1045(3)
H15 H -0.3129 0.4853 0.1275
C18 C -0.1476(3) 0.4817(3) 0.1902(3)
H16 H -0.1538 0.4104 0.2682
S1 S 0.35897(7) 1.64365(7) 0.09048(6)
Cu1A Cu -0.38105(3) 0.66991(3) -0.12726(3)
Cu1A_2 Cu 0.61895(3) 1.66991(3) -0.12726(3)
N2A N 0.2404(2) 1.3722(2) 0.0103(2)
O4A O 0.5678(2) 1.2706(2) 0.01280(18)
N5 N 0.0872(3) 0.9732(3) 0.7526(3)
O8 O 0.2884(3) 0.8735(3) 0.6849(3)
C19 C 0.2186(4) 0.9110(4) 0.7613(3)
H17 H 0.2605 0.8947 0.8304
C20 C 0.0111(6) 1.0277(7) 0.8395(5)
H18 H 0.0717 1.0157 0.8972
H19 H -0.0559 0.9783 0.8832
H20 H -0.0336 1.1257 0.7962
C21 C 0.0159(4) 0.9925(5) 0.6498(4)
H21 H 0.0778 0.9484 0.6009
H22 H -0.0188 1.0909 0.5994
H23 H -0.0583 0.9509 0.6814
loop_
_geom_bond_atom_site_label_1
_geom_bond_atom_site_label_2
_geom_bond_site_symmetry_1
_geom_bond_site_symmetry_2
Cu1 N1 1_555 1_555
N1 C1 1_555 1_555
N2 C16 1_555 1_555
N3 H1 1_555 1_555
N4 H2 1_555 1_555
O1 Cu1 1_555 1_555
O2 S1 1_555 1_555
O3 S1 1_555 1_555
O4 S1 1_555 1_555
O5 Cu1 1_555 1_555
H3 O5 1_555 1_555
H4 O5 1_555 1_555
O6 C6 1_555 1_555
O7 C13 1_555 1_555
C1 H5 1_555 1_555
C2 C1 1_555 1_555
H6 C2 1_555 1_555
C3 N3 1_555 1_555
C4 C3 1_555 1_555
H7 C4 1_555 1_555
C5 N1 1_555 1_555
H8 C5 1_555 1_555
C6 N3 1_555 1_555
C7 C6 1_555 1_555
C8 C7 1_555 1_555
H9 C8 1_555 1_555
C9 C8 1_555 1_555
H10 C9 1_555 1_555
C10 C9 1_555 1_555
H11 C10 1_555 1_555
C11 C10 1_555 1_555
C12 C7 1_555 1_555
H12 C12 1_555 1_555
C13 N4 1_555 1_555
C14 N4 1_555 1_555
C15 C14 1_555 1_555
H13 C15 1_555 1_555
C16 C15 1_555 1_555
H14 C16 1_555 1_555
C17 N2 1_555 1_555
H15 C17 1_555 1_555
C18 C14 1_555 1_555
H16 C18 1_555 1_555
S1 O1 1_555 1_555
N5 C19 1_555 1_555
O8 C19 1_555 1_555
C19 H17 1_555 1_555
C20 N5 1_555 1_555
H18 C20 1_555 1_555
H19 C20 1_555 1_555
H20 C20 1_555 1_555
C21 N5 1_555 1_555
H21 C21 1_555 1_555
H22 C21 1_555 1_555
H23 C21 1_555 1_555
Cu1A N2 1_555 1_555
Cu1A_2 O4 1_555 1_555
N2A Cu1 1_555 1_555
O4A Cu1 1_555 1_555
C2 C3 1_555 1_555
C4 C5 1_555 1_555
C11 C12 1_555 1_555
C11 C13 1_555 1_555
C17 C18 1_555 1_555

#END
