
#######################################################################
#
#                 Cambridge Crystallographic Data Centre
#                                CCDC 
#
#######################################################################
#
# If this CIF has been generated from an entry in the Cambridge 
# Structural Database, then it will include bibliographic, chemical, 
# crystal, experimental, refinement or atomic coordinate data resulting 
# from the CCDC's data processing and validation procedures.
#
#######################################################################

data_MEXJIK
_symmetry_cell_setting           monoclinic
_symmetry_space_group_name_H-M   'C 2/c'
_symmetry_Int_Tables_number      15
_space_group_name_Hall           '-C 2yn'
loop_
_symmetry_equiv_pos_site_id
_symmetry_equiv_pos_as_xyz
1 x,y,z
2 -x,y,1/2-z
3 1/2+x,1/2+y,z
4 1/2-x,1/2+y,1/2-z
5 -x,-y,-z
6 x,-y,1/2+z
7 1/2-x,1/2-y,-z
8 1/2+x,1/2-y,1/2+z
_cell_length_a                   13.247(4)
_cell_length_b                   12.075(4)
_cell_length_c                   20.822(7)
_cell_angle_alpha                90
_cell_angle_beta                 90.979(5)
_cell_angle_gamma                90
_cell_volume                     3330.15
loop_
_atom_site_label
_atom_site_type_symbol
_atom_site_fract_x
_atom_site_fract_y
_atom_site_fract_z
K1 K 0.5000 0.32471(3) 0.7500
K2 K 0.5000 0.0000 0.5000
Al1 Al 0.52871(2) 0.22259(3) 0.595808(16)
O1 O 0.5000 0.54941(12) 0.7500
N1 N 0.50523(8) 0.23469(9) 0.50846(5)
N2 N 0.60258(8) 0.34150(9) 0.62545(5)
N3 N 0.59582(7) 0.09033(8) 0.61187(5)
N4 N 0.40721(7) 0.21492(9) 0.63840(5)
C1 C 0.57959(13) 0.61739(15) 0.77418(9)
H1 H 0.6445 0.5961 0.7547
H2 H 0.5862 0.6096 0.8214
C2 C 0.55312(18) 0.73207(19) 0.75688(16)
H3 H 0.5692 0.7829 0.7929
H4 H 0.5910 0.7561 0.7188
C3 C 0.40625(11) 0.24265(14) 0.47861(7)
H5 H 0.4061 0.2036 0.4374
H6 H 0.3893 0.3207 0.4715
H7 H 0.3562 0.2090 0.5067
C4 C 0.58075(12) 0.27839(15) 0.46587(7)
H8 H 0.5837 0.2323 0.4272
H9 H 0.6468 0.2781 0.4878
H10 H 0.5629 0.3544 0.4537
C5 C 0.59360(13) 0.44990(12) 0.59569(8)
H11 H 0.6505 0.4617 0.5670
H12 H 0.5942 0.5071 0.6291
H13 H 0.5301 0.4540 0.5709
C6 C 0.69696(10) 0.33235(13) 0.66072(8)
H14 H 0.7531 0.3352 0.6307
H15 H 0.6988 0.2619 0.6841
H16 H 0.7030 0.3937 0.6913
C7 C 0.68988(10) 0.06920(12) 0.57922(7)
H17 H 0.6982 -0.0108 0.5731
H18 H 0.7463 0.0979 0.6052
H19 H 0.6885 0.1061 0.5373
C8 C 0.59875(13) 0.03606(14) 0.67380(7)
H20 H 0.6057 -0.0440 0.6677
H21 H 0.5361 0.0516 0.6965
H22 H 0.6564 0.0639 0.6991
C9 C 0.34632(11) 0.11493(15) 0.63898(8)
H23 H 0.3036 0.1123 0.6001
H24 H 0.3036 0.1151 0.6769
H25 H 0.3906 0.0500 0.6403
C10 C 0.34249(10) 0.31184(15) 0.63825(8)
H26 H 0.2979 0.3102 0.6002
H27 H 0.3841 0.3789 0.6373
H28 H 0.3017 0.3119 0.6771
C1A C 0.42041(13) 0.61739(15) 0.72582(9)
H1A H 0.3555 0.5961 0.7453
H2A H 0.4138 0.6096 0.6786
C2A C 0.44688(18) 0.73207(19) 0.74312(16)
H3A H 0.4308 0.7829 0.7071
H4A H 0.4090 0.7561 0.7812
Al1A Al 0.47129(2) 0.22259(3) 0.904192(16)
N1A N 0.49477(8) 0.23469(9) 0.99154(5)
N2A N 0.39742(8) 0.34150(9) 0.87455(5)
N3A N 0.40418(7) 0.09033(8) 0.88813(5)
N4A N 0.59279(7) 0.21492(9) 0.86160(5)
C3A C 0.59375(11) 0.24265(14) 1.02139(7)
H5A H 0.5939 0.2036 1.0626
H6A H 0.6107 0.3207 1.0285
H7A H 0.6438 0.2090 0.9933
C4A C 0.41925(12) 0.27839(15) 1.03413(7)
H8A H 0.4163 0.2323 1.0728
H9A H 0.3532 0.2781 1.0122
H10A H 0.4371 0.3544 1.0463
C5A C 0.40640(13) 0.44990(12) 0.90431(8)
H11A H 0.3495 0.4617 0.9330
H12A H 0.4058 0.5071 0.8709
H13A H 0.4699 0.4540 0.9291
C6A C 0.30304(10) 0.33235(13) 0.83928(8)
H14A H 0.2469 0.3352 0.8693
H15A H 0.3012 0.2619 0.8159
H16A H 0.2970 0.3937 0.8087
C7A C 0.31012(10) 0.06920(12) 0.92078(7)
H17A H 0.3018 -0.0108 0.9269
H18A H 0.2537 0.0979 0.8948
H19A H 0.3115 0.1061 0.9627
C8A C 0.40125(13) 0.03606(14) 0.82620(7)
H20A H 0.3943 -0.0440 0.8323
H21A H 0.4639 0.0516 0.8035
H22A H 0.3436 0.0639 0.8009
C9A C 0.65368(11) 0.11493(15) 0.86102(8)
H23A H 0.6964 0.1123 0.8999
H24A H 0.6964 0.1151 0.8231
H25A H 0.6094 0.0500 0.8597
C10A C 0.65751(10) 0.31184(15) 0.86175(8)
H26A H 0.7021 0.3102 0.8998
H27A H 0.6159 0.3789 0.8627
H28A H 0.6983 0.3119 0.8229
K2A K 0.5000 0.0000 1.0000
N1D N 0.49477(8) -0.23469(9) 0.49154(5)
N3D N 0.40418(7) -0.09033(8) 0.38813(5)
loop_
_geom_bond_atom_site_label_1
_geom_bond_atom_site_label_2
_geom_bond_site_symmetry_1
_geom_bond_site_symmetry_2
K1 O1 1_555 1_555
K2 N1 1_555 1_555
Al1 N1 1_555 1_555
O1 C1 1_555 1_555
N1 C3 1_555 1_555
N2 K1 1_555 1_555
N3 K2 1_555 1_555
N4 K1 1_555 1_555
C1 H1 1_555 1_555
H2 C1 1_555 1_555
C2 C1 1_555 1_555
H3 C2 1_555 1_555
H4 C2 1_555 1_555
C3 H5 1_555 1_555
H6 C3 1_555 1_555
H7 C3 1_555 1_555
C4 N1 1_555 1_555
H8 C4 1_555 1_555
H9 C4 1_555 1_555
H10 C4 1_555 1_555
C5 N2 1_555 1_555
H11 C5 1_555 1_555
H12 C5 1_555 1_555
H13 C5 1_555 1_555
C6 N2 1_555 1_555
H14 C6 1_555 1_555
H15 C6 1_555 1_555
H16 C6 1_555 1_555
C7 N3 1_555 1_555
H17 C7 1_555 1_555
H18 C7 1_555 1_555
H19 C7 1_555 1_555
C8 N3 1_555 1_555
H20 C8 1_555 1_555
H21 C8 1_555 1_555
H22 C8 1_555 1_555
C9 N4 1_555 1_555
H23 C9 1_555 1_555
H24 C9 1_555 1_555
H25 C9 1_555 1_555
C10 N4 1_555 1_555
H26 C10 1_555 1_555
H27 C10 1_555 1_555
H28 C10 1_555 1_555
C1A O1 1_555 1_555
H1A C1A 1_555 1_555
H2A C1A 1_555 1_555
C2A C2 1_555 1_555
H3A C2A 1_555 1_555
H4A C2A 1_555 1_555
Al1A N1A 1_555 1_555
N1A C3A 1_555 1_555
N2A K1 1_555 1_555
N3A Al1A 1_555 1_555
N4A K1 1_555 1_555
C3A H5A 1_555 1_555
H6A C3A 1_555 1_555
H7A C3A 1_555 1_555
C4A N1A 1_555 1_555
H8A C4A 1_555 1_555
H9A C4A 1_555 1_555
H10A C4A 1_555 1_555
C5A N2A 1_555 1_555
H11A C5A 1_555 1_555
H12A C5A 1_555 1_555
H13A C5A 1_555 1_555
C6A N2A 1_555 1_555
H14A C6A 1_555 1_555
H15A C6A 1_555 1_555
H16A C6A 1_555 1_555
C7A N3A 1_555 1_555
H17A C7A 1_555 1_555
H18A C7A 1_555 1_555
H19A C7A 1_555 1_555
C8A N3A 1_555 1_555
H20A C8A 1_555 1_555
H21A C8A 1_555 1_555
H22A C8A 1_555 1_555
C9A N4A 1_555 1_555
H23A C9A 1_555 1_555
H24A C9A 1_555 1_555
H25A C9A 1_555 1_555
C10A N4A 1_555 1_555
H26A C10A 1_555 1_555
H27A C10A 1_555 1_555
H28A C10A 1_555 1_555
K2A N1A 1_555 1_555
N1D K2 1_555 1_555
N3D K2 1_555 1_555
Al1 N2 1_555 1_555
Al1 N3 1_555 1_555
Al1 N4 1_555 1_555
C1A C2A 1_555 1_555
Al1A N2A 1_555 1_555
Al1A N4A 1_555 1_555
N3A K2A 1_555 1_555

#END
