
#######################################################################
#
#                 Cambridge Crystallographic Data Centre
#                                CCDC 
#
#######################################################################
#
# If this CIF has been generated from an entry in the Cambridge 
# Structural Database, then it will include bibliographic, chemical, 
# crystal, experimental, refinement or atomic coordinate data resulting 
# from the CCDC's data processing and validation procedures.
#
#######################################################################

data_MEXJAC
_symmetry_cell_setting           cubic
_symmetry_space_group_name_H-M   'P 21 3'
_symmetry_Int_Tables_number      198
_space_group_name_Hall           'P 2ac 2ab 3'
loop_
_symmetry_equiv_pos_site_id
_symmetry_equiv_pos_as_xyz
1 x,y,z
2 1/2-x,-y,1/2+z
3 -x,1/2+y,1/2-z
4 1/2+x,1/2-y,-z
5 z,x,y
6 1/2+z,1/2-x,-y
7 1/2-z,-x,1/2+y
8 -z,1/2+x,1/2-y
9 y,z,x
10 -y,1/2+z,1/2-x
11 1/2+y,1/2-z,-x
12 1/2-y,-z,1/2+x
_cell_length_a                   14.1341(16)
_cell_length_b                   14.1341(16)
_cell_length_c                   14.1341(16)
_cell_angle_alpha                90
_cell_angle_beta                 90
_cell_angle_gamma                90
_cell_volume                     2823.61
loop_
_atom_site_label
_atom_site_type_symbol
_atom_site_fract_x
_atom_site_fract_y
_atom_site_fract_z
O1 O 0.9837(2) -0.17185(19) 0.4744(2)
C1 C 0.9099(3) -0.1640(3) 0.4268(3)
C2 C 0.8710(2) -0.2536(3) 0.3796(3)
C3 C 0.9151(3) -0.2914(3) 0.2996(3)
C4 C 0.8963(4) 0.2099(3) 0.4875(4)
H1 H 0.9575 0.2290 0.5023
C5 C 0.8521(6) 0.3734(5) 0.5058(7)
H2 H 0.8541 0.4090 0.4479
H3 H 0.9125 0.3772 0.5367
H4 H 0.8042 0.3990 0.5465
C6 C 0.7318(5) 0.2501(7) 0.4593(7)
H5 H 0.7297 0.1860 0.4370
H6 H 0.7099 0.2918 0.4103
H7 H 0.6920 0.2564 0.5139
I1 I 1.03806(2) -0.22509(2) 0.248693(19)
N1 N 0.8303(4) 0.2748(3) 0.4848(4)
O2 O 0.8674(2) -0.08834(19) 0.4139(2)
O3 O 0.8828(2) 0.1250(2) 0.4717(2)
Sm1 Sm 0.999507(13) 0.000493(13) 0.500493(13)
O1E O 0.9744(2) -0.4837(2) 0.17185(19)
C1E C 0.9268(3) -0.4099(3) 0.1640(3)
C2E C 0.8796(3) -0.3710(2) 0.2536(3)
C3E C 0.7996(3) -0.4151(3) 0.2914(3)
I1E I 0.748693(19) -0.53806(2) 0.22509(2)
O2E O 0.9139(2) -0.3674(2) 0.08834(19)
O1K O 0.67185(19) -0.4744(2) 0.4837(2)
C1K C 0.6640(3) -0.4268(3) 0.4099(3)
C2K C 0.7536(3) -0.3796(3) 0.3710(2)
C3K C 0.7914(3) -0.2996(3) 0.4151(3)
I1K I 0.72509(2) -0.248693(19) 0.53806(2)
O2K O 0.58834(19) -0.4139(2) 0.3674(2)
C4F C 1.0125(4) 0.1037(4) 0.7099(3)
H1F H 0.9977 0.0425 0.7290
C5F C 0.9942(7) 0.1479(6) 0.8734(5)
H2F H 1.0521 0.1459 0.9090
H3F H 0.9633 0.0875 0.8772
H4F H 0.9535 0.1958 0.8990
C6F C 1.0407(7) 0.2682(5) 0.7501(7)
H5F H 1.0630 0.2703 0.6860
H6F H 1.0897 0.2901 0.7918
H7F H 0.9861 0.3080 0.7564
N1F N 1.0152(4) 0.1697(4) 0.7748(3)
O3F O 1.0283(2) 0.1172(2) 0.6250(2)
C4I C 0.7901(3) -0.0125(4) 0.6037(4)
H1I H 0.7710 0.0023 0.5425
C5I C 0.6266(5) 0.0058(7) 0.6479(6)
H2I H 0.5910 -0.0521 0.6459
H3I H 0.6228 0.0367 0.5875
H4I H 0.6010 0.0465 0.6958
C6I C 0.7499(7) -0.0407(7) 0.7682(5)
H5I H 0.8140 -0.0630 0.7703
H6I H 0.7082 -0.0897 0.7901
H7I H 0.7436 0.0139 0.8080
N1I N 0.7252(3) -0.0152(4) 0.6697(4)
O3I O 0.8750(2) -0.0283(2) 0.6172(2)
O1F O 1.0256(2) 0.0163(2) 0.32815(19)
O1I O 1.17185(19) -0.0256(2) 0.5163(2)
O2F O 1.0861(2) 0.1326(2) 0.41166(19)
O2I O 1.08834(19) -0.0861(2) 0.6326(2)
Sm1B Sm 1.000493(13) -0.499507(13) -0.000493(13)
Sm1C Sm 0.499507(13) -0.500493(13) 0.499507(13)
loop_
_geom_bond_atom_site_label_1
_geom_bond_atom_site_label_2
_geom_bond_site_symmetry_1
_geom_bond_site_symmetry_2
O1 C1 1_555 1_555
C1 C2 1_555 1_555
C2 C3 1_555 1_555
C3 I1 1_555 1_555
C4 H1 1_555 1_555
C5 H2 1_555 1_555
H3 C5 1_555 1_555
H4 C5 1_555 1_555
C6 H5 1_555 1_555
H6 C6 1_555 1_555
H7 C6 1_555 1_555
N1 C4 1_555 1_555
O2 C1 1_555 1_555
O3 C4 1_555 1_555
Sm1 O1 1_555 1_555
O1E C1E 1_555 1_555
C1E C2E 1_555 1_555
C2E C3 1_555 1_555
C3E C2E 1_555 1_555
I1E C3E 1_555 1_555
O2E C1E 1_555 1_555
O1K C1K 1_555 1_555
C1K C2K 1_555 1_555
C2K C3E 1_555 1_555
C3K C2 1_555 1_555
I1K C3K 1_555 1_555
O2K C1K 1_555 1_555
C4F H1F 1_555 1_555
C5F H2F 1_555 1_555
H3F C5F 1_555 1_555
H4F C5F 1_555 1_555
C6F H5F 1_555 1_555
H6F C6F 1_555 1_555
H7F C6F 1_555 1_555
N1F C4F 1_555 1_555
O3F Sm1 1_555 1_555
C4I H1I 1_555 1_555
C5I H2I 1_555 1_555
H3I C5I 1_555 1_555
H4I C5I 1_555 1_555
C6I H5I 1_555 1_555
H6I C6I 1_555 1_555
H7I C6I 1_555 1_555
N1I C4I 1_555 1_555
O3I Sm1 1_555 1_555
O1F Sm1 1_555 1_555
O1I Sm1 1_555 1_555
O2F Sm1 1_555 1_555
O2I Sm1 1_555 1_555
Sm1B O1E 1_555 1_555
Sm1C O1K 1_555 1_555
C5 N1 1_555 1_555
C6 N1 1_555 1_555
O2 Sm1 1_555 1_555
O3 Sm1 1_555 1_555
O2E Sm1B 1_555 1_555
C2K C3K 1_555 1_555
O2K Sm1C 1_555 1_555
C4F O3F 1_555 1_555
C5F N1F 1_555 1_555
C6F N1F 1_555 1_555
C4I O3I 1_555 1_555
C5I N1I 1_555 1_555
C6I N1I 1_555 1_555

#END
