
#######################################################################
#
#                 Cambridge Crystallographic Data Centre
#                                CCDC 
#
#######################################################################
#
# If this CIF has been generated from an entry in the Cambridge 
# Structural Database, then it will include bibliographic, chemical, 
# crystal, experimental, refinement or atomic coordinate data resulting 
# from the CCDC's data processing and validation procedures.
#
#######################################################################

data_MEXLAE
_symmetry_cell_setting           triclinic
_symmetry_space_group_name_H-M   'P -1'
_symmetry_Int_Tables_number      2
_space_group_name_Hall           '-P 1'
loop_
_symmetry_equiv_pos_site_id
_symmetry_equiv_pos_as_xyz
1 x,y,z
2 -x,-y,-z
_cell_length_a                   9.561(4)
_cell_length_b                   10.594(5)
_cell_length_c                   12.436(5)
_cell_angle_alpha                107.095(7)
_cell_angle_beta                 102.454(6)
_cell_angle_gamma                106.551(6)
_cell_volume                     1090.74
loop_
_atom_site_label
_atom_site_type_symbol
_atom_site_fract_x
_atom_site_fract_y
_atom_site_fract_z
C1 C 0.3229(3) 0.2312(2) -0.08418(19)
C2 C -0.1263(3) 0.3036(2) 0.1570(2)
C3 C -0.0113(3) 0.2767(2) 0.09487(18)
C4 C 0.0924(3) 0.3922(2) 0.0854(2)
H1 H 0.0902 0.4823 0.1182
C5 C 0.1986(3) 0.3753(2) 0.0281(2)
H2 H 0.2643 0.4533 0.0203
C6 C 0.2080(3) 0.2425(2) -0.01795(18)
C7 C 0.1067(2) 0.1253(2) -0.00744(17)
C8 C -0.0065(2) 0.1415(2) 0.04555(17)
C9 C 0.1271(2) -0.0137(2) -0.04162(17)
C10 C 0.3621(3) 0.1884(2) 0.23544(18)
H3 H 0.3323 0.2661 0.2552
C11 C 0.2936(3) 0.0631(2) 0.24410(18)
H4 H 0.2085 0.0380 0.2692
C12 C 0.4870(3) 0.0555(2) 0.17763(18)
H5 H 0.5576 0.0225 0.1495
C13 C 0.3365(3) -0.1710(2) 0.19313(19)
H6 H 0.4237 -0.1977 0.1848
H7 H 0.2499 -0.2302 0.1207
C14 C 0.2956(3) -0.1986(2) 0.29720(19)
C15 C 0.1425(3) -0.2315(3) 0.2937(3)
H8 H 0.0691 -0.2373 0.2279
C16 C 0.0982(4) -0.2559(3) 0.3875(3)
H9 H -0.0041 -0.2765 0.3847
C17 C 0.2054(4) -0.2496(3) 0.4845(3)
H10 H 0.1758 -0.2662 0.5471
C18 C 0.3566(3) -0.2188(3) 0.4884(2)
H11 H 0.4283 -0.2161 0.5536
C19 C 0.4047(3) -0.1913(2) 0.39615(19)
C20 C 0.5728(3) -0.1577(2) 0.4074(2)
H12 H 0.5976 -0.1098 0.3545
H13 H 0.6361 -0.0934 0.4882
C21 C 0.6999(3) -0.3245(3) 0.4543(2)
H14 H 0.7494 -0.2738 0.5356
C22 C 0.5629(3) -0.3891(2) 0.26958(19)
H15 H 0.5005 -0.3883 0.2013
C23 C 0.7029(3) -0.4498(3) 0.3882(2)
H16 H 0.7557 -0.5006 0.4172
Co1 Co 0.58835(3) 0.33412(3) 0.13769(2)
N1 N 0.4836(2) 0.18355(19) 0.19274(15)
N2 N 0.3755(2) -0.02007(18) 0.20818(15)
N3 N 0.6159(2) -0.49056(18) 0.27147(16)
N4 N 0.6099(2) -0.28740(18) 0.37783(15)
O1 O 0.46596(18) 0.30258(17) -0.02288(13)
O2 O 0.2749(2) 0.16438(19) -0.19247(14)
O3 O -0.22850(19) 0.33483(18) 0.09643(15)
O4 O -0.1135(2) 0.29987(19) 0.25620(15)
O5 O 0.24715(17) -0.02029(16) -0.05752(13)
C1A C -0.3229(3) -0.2312(2) 0.08418(19)
C2A C 0.1263(3) -0.3036(2) -0.1570(2)
C3A C 0.0113(3) -0.2767(2) -0.09487(18)
C4A C -0.0924(3) -0.3922(2) -0.0854(2)
H1A H -0.0902 -0.4823 -0.1182
C5A C -0.1986(3) -0.3753(2) -0.0281(2)
H2A H -0.2643 -0.4533 -0.0203
C6A C -0.2080(3) -0.2425(2) 0.01795(18)
C7A C -0.1067(2) -0.1253(2) 0.00744(17)
C8A C 0.0065(2) -0.1415(2) -0.04555(17)
C9A C -0.1271(2) 0.0137(2) 0.04162(17)
O1A O -0.46596(18) -0.30258(17) 0.02288(13)
O2A O -0.2749(2) -0.16438(19) 0.19247(14)
O3A O 0.22850(19) -0.33483(18) -0.09643(15)
O4A O 0.1135(2) -0.29987(19) -0.25620(15)
O5A O -0.24715(17) 0.02029(16) 0.05752(13)
C10A C -0.3621(3) -0.1884(2) -0.23544(18)
H3A H -0.3323 -0.2661 -0.2552
C11A C -0.2936(3) -0.0631(2) -0.24410(18)
H4A H -0.2085 -0.0380 -0.2692
C12A C -0.4870(3) -0.0555(2) -0.17763(18)
H5A H -0.5576 -0.0225 -0.1495
C13A C -0.3365(3) 0.1710(2) -0.19313(19)
H6A H -0.4237 0.1977 -0.1848
H7A H -0.2499 0.2302 -0.1207
C14A C -0.2956(3) 0.1986(2) -0.29720(19)
C15A C -0.1425(3) 0.2315(3) -0.2937(3)
H8A H -0.0691 0.2373 -0.2279
C16A C -0.0982(4) 0.2559(3) -0.3875(3)
H9A H 0.0041 0.2765 -0.3847
C17A C -0.2054(4) 0.2496(3) -0.4845(3)
H10A H -0.1758 0.2662 -0.5471
C18A C -0.3566(3) 0.2188(3) -0.4884(2)
H11A H -0.4283 0.2161 -0.5536
C19A C -0.4047(3) 0.1913(2) -0.39615(19)
C20A C -0.5728(3) 0.1577(2) -0.4074(2)
H12A H -0.5976 0.1098 -0.3545
H13A H -0.6361 0.0934 -0.4882
C21A C -0.6999(3) 0.3245(3) -0.4543(2)
H14A H -0.7494 0.2738 -0.5356
C22A C -0.5629(3) 0.3891(2) -0.26958(19)
H15A H -0.5005 0.3883 -0.2013
C23A C -0.7029(3) 0.4498(3) -0.3882(2)
H16A H -0.7557 0.5006 -0.4172
Co1A Co -0.58835(3) -0.33412(3) -0.13769(2)
N1A N -0.4836(2) -0.18355(19) -0.19274(15)
N2A N -0.3755(2) 0.02007(18) -0.20818(15)
N3A N -0.6159(2) 0.49056(18) -0.27147(16)
N4A N -0.6099(2) 0.28740(18) -0.37783(15)
Co1_2 Co -0.41165(3) 0.33412(3) 0.13769(2)
Co1_3 Co 0.58835(3) -0.66588(3) 0.13769(2)
Co1A_2 Co -0.58835(3) 0.66588(3) -0.13769(2)
Co1A_3 Co 0.41165(3) -0.33412(3) -0.13769(2)
N3_2 N 0.6159(2) 0.50944(18) 0.27147(16)
N3A_2 N -0.6159(2) -0.50944(18) -0.27147(16)
O3_2 O 0.77150(19) 0.33483(18) 0.09643(15)
O3A_2 O -0.77150(19) -0.33483(18) -0.09643(15)
O6 O 0.9984(3) 0.0915(3) 0.3137(2)
H17 H 0.912(6) -0.001(6) 0.285(5)
H18 H 0.982(5) 0.161(5) 0.304(4)
loop_
_geom_bond_atom_site_label_1
_geom_bond_atom_site_label_2
_geom_bond_site_symmetry_1
_geom_bond_site_symmetry_2
C1 C6 1_555 1_555
C2 C3 1_555 1_555
C3 C4 1_555 1_555
C4 H1 1_555 1_555
C5 C4 1_555 1_555
H2 C5 1_555 1_555
C6 C5 1_555 1_555
C7 C6 1_555 1_555
C8 C3 1_555 1_555
C9 C7 1_555 1_555
C10 H3 1_555 1_555
C11 C10 1_555 1_555
H4 C11 1_555 1_555
C12 H5 1_555 1_555
C13 H6 1_555 1_555
H7 C13 1_555 1_555
C14 C13 1_555 1_555
C15 C14 1_555 1_555
H8 C15 1_555 1_555
C16 C15 1_555 1_555
H9 C16 1_555 1_555
C17 C16 1_555 1_555
H10 C17 1_555 1_555
C18 C17 1_555 1_555
H11 C18 1_555 1_555
C19 C14 1_555 1_555
C20 C19 1_555 1_555
H12 C20 1_555 1_555
H13 C20 1_555 1_555
C21 H14 1_555 1_555
C22 H15 1_555 1_555
C23 C21 1_555 1_555
H16 C23 1_555 1_555
Co1 N1 1_555 1_555
N1 C10 1_555 1_555
N2 C11 1_555 1_555
N3 C22 1_555 1_555
N4 C20 1_555 1_555
O1 C1 1_555 1_555
O2 C1 1_555 1_555
O3 C2 1_555 1_555
O4 C2 1_555 1_555
O5 C9 1_555 1_555
O6 H17 1_555 1_555
H18 O6 1_555 1_555
C1A C6A 1_555 1_555
C2A C3A 1_555 1_555
C3A C4A 1_555 1_555
C4A H1A 1_555 1_555
C5A C4A 1_555 1_555
H2A C5A 1_555 1_555
C6A C5A 1_555 1_555
C7A C6A 1_555 1_555
C8A C9 1_555 1_555
C9A C8 1_555 1_555
O1A C1A 1_555 1_555
O2A C1A 1_555 1_555
O3A C2A 1_555 1_555
O4A C2A 1_555 1_555
O5A C9A 1_555 1_555
C10A H3A 1_555 1_555
C11A C10A 1_555 1_555
H4A C11A 1_555 1_555
C12A H5A 1_555 1_555
C13A H6A 1_555 1_555
H7A C13A 1_555 1_555
C14A C13A 1_555 1_555
C15A C14A 1_555 1_555
H8A C15A 1_555 1_555
C16A C15A 1_555 1_555
H9A C16A 1_555 1_555
C17A C16A 1_555 1_555
H10A C17A 1_555 1_555
C18A C17A 1_555 1_555
H11A C18A 1_555 1_555
C19A C14A 1_555 1_555
C20A C19A 1_555 1_555
H12A C20A 1_555 1_555
H13A C20A 1_555 1_555
C21A H14A 1_555 1_555
C22A H15A 1_555 1_555
C23A C21A 1_555 1_555
H16A C23A 1_555 1_555
Co1A O1A 1_555 1_555
N1A C10A 1_555 1_555
N2A C11A 1_555 1_555
N3A C22A 1_555 1_555
N4A C20A 1_555 1_555
Co1_2 O3 1_555 1_555
Co1_3 N3 1_555 1_555
Co1A_2 N3A 1_555 1_555
Co1A_3 O3A 1_555 1_555
N3_2 Co1 1_555 1_555
N3A_2 Co1A 1_555 1_555
O3_2 Co1 1_555 1_555
O3A_2 Co1A 1_555 1_555
C7 C8 1_555 1_555
C12 N1 1_555 1_555
C12 N2 1_555 1_555
C13 N2 1_555 1_555
C18 C19 1_555 1_555
C21 N4 1_555 1_555
C22 N4 1_555 1_555
C23 N3 1_555 1_555
Co1 O1 1_555 1_555
C3A C8A 1_555 1_555
C7A C8A 1_555 1_555
C7A C9A 1_555 1_555
C12A N1A 1_555 1_555
C12A N2A 1_555 1_555
C13A N2A 1_555 1_555
C18A C19A 1_555 1_555
C21A N4A 1_555 1_555
C22A N4A 1_555 1_555
C23A N3A 1_555 1_555
Co1A N1A 1_555 1_555

#END
