
#######################################################################
#
#                 Cambridge Crystallographic Data Centre
#                                CCDC 
#
#######################################################################
#
# If this CIF has been generated from an entry in the Cambridge 
# Structural Database, then it will include bibliographic, chemical, 
# crystal, experimental, refinement or atomic coordinate data resulting 
# from the CCDC's data processing and validation procedures.
#
#######################################################################

data_MEXXEU
_symmetry_cell_setting           monoclinic
_symmetry_space_group_name_H-M   'P 21/n'
_symmetry_Int_Tables_number      14
_space_group_name_Hall           '-P 2yn'
loop_
_symmetry_equiv_pos_site_id
_symmetry_equiv_pos_as_xyz
1 x,y,z
2 1/2-x,1/2+y,1/2-z
3 -x,-y,-z
4 1/2+x,1/2-y,1/2+z
_cell_length_a                   13.046(4)
_cell_length_b                   10.276(3)
_cell_length_c                   17.437(5)
_cell_angle_alpha                90
_cell_angle_beta                 105.568(5)
_cell_angle_gamma                90
_cell_volume                     2251.86
loop_
_atom_site_label
_atom_site_type_symbol
_atom_site_fract_x
_atom_site_fract_y
_atom_site_fract_z
C1 C 0.9109(4) 1.2264(6) 0.6107(3)
C2 C 0.8788(3) 1.1320(5) 0.5416(3)
C3 C 0.8303(4) 1.1750(5) 0.4656(3)
H1 H 0.8162 1.2632 0.4563
C4 C 0.8023(4) 1.0873(5) 0.4025(3)
H2 H 0.7706 1.1180 0.3515
C5 C 0.8205(3) 0.9566(5) 0.4142(3)
C6 C 0.8688(3) 0.9139(5) 0.4902(3)
H3 H 0.8825 0.8257 0.4996
C7 C 0.8971(3) 1.0020(5) 0.5527(3)
H4 H 0.9296 0.9713 0.6036
C8 C 0.7889(3) 0.8580(4) 0.3466(2)
H5 H 0.8515 0.8356 0.3294
H6 H 0.7642 0.7793 0.3667
C9 C 0.6006(4) 0.9025(4) 0.2694(3)
C10 C 0.5488(4) 0.8353(5) 0.3240(3)
C11 C 0.4732(4) 0.7424(5) 0.2930(3)
H7 H 0.4560 0.7238 0.2388
C12 C 0.4229(4) 0.6768(5) 0.3411(3)
H8 H 0.3725 0.6133 0.3196
C13 C 0.4470(4) 0.7052(5) 0.4216(3)
H9 H 0.4128 0.6603 0.4539
C14 C 0.5218(4) 0.8000(5) 0.4547(3)
C15 C 0.5724(3) 0.8635(4) 0.4048(3)
H10 H 0.6232 0.9266 0.4259
C16 C 0.5460(4) 0.8339(5) 0.5405(3)
C17 C 0.4840(4) 0.7881(5) 0.5886(3)
H11 H 0.4258 0.7349 0.5671
C18 C 0.5091(4) 0.8216(5) 0.6680(3)
H12 H 0.4672 0.7876 0.6987
C19 C 0.6483(4) 0.9450(5) 0.6579(3)
H13 H 0.7047 1.0002 0.6808
C20 C 0.6296(4) 0.9141(5) 0.5777(3)
H14 H 0.6739 0.9477 0.5488
C21 C 0.7248(4) 0.9568(5) 0.2095(3)
C22 C 0.6233(4) 0.9894(4) 0.1623(3)
C23 C 0.6128(4) 1.0407(5) 0.0860(3)
H15 H 0.5467 1.0656 0.0537
C24 C 0.7025(5) 1.0528(5) 0.0605(3)
H16 H 0.6967 1.0827 0.0091
C25 C 0.8021(5) 1.0217(5) 0.1093(3)
H17 H 0.8615 1.0335 0.0902
C26 C 0.8161(4) 0.9736(5) 0.1856(3)
H18 H 0.8831 0.9539 0.2185
Br1 Br 0.25500(4) 0.88562(6) 0.14695(3)
N1 N 0.5893(3) 0.8994(4) 0.7036(2)
N2 N 0.5465(3) 0.9561(4) 0.2007(2)
N3 N 0.7066(3) 0.9034(4) 0.2782(2)
O1 O 0.8729(3) 1.3376(3) 0.59808(18)
O2 O 0.9719(3) 1.1888(4) 0.6723(2)
Zn1 Zn 0.39633(4) 1.03479(6) 0.18244(3)
N1B N 0.4107(3) 1.1006(4) 0.2964(2)
O1C O 0.3729(3) 1.1624(3) 0.09808(18)
Zn1B Zn 0.60367(4) 0.96521(6) 0.81756(3)
Zn1C Zn 0.89633(4) 1.46521(6) 0.68244(3)
loop_
_geom_bond_atom_site_label_1
_geom_bond_atom_site_label_2
_geom_bond_site_symmetry_1
_geom_bond_site_symmetry_2
C1 C2 1_555 1_555
C2 C3 1_555 1_555
C3 H1 1_555 1_555
C4 C3 1_555 1_555
H2 C4 1_555 1_555
C5 C4 1_555 1_555
C6 C5 1_555 1_555
H3 C6 1_555 1_555
C7 C2 1_555 1_555
H4 C7 1_555 1_555
C8 C5 1_555 1_555
H5 C8 1_555 1_555
H6 C8 1_555 1_555
C9 C10 1_555 1_555
C10 C11 1_555 1_555
C11 H7 1_555 1_555
C12 C11 1_555 1_555
H8 C12 1_555 1_555
C13 C12 1_555 1_555
H9 C13 1_555 1_555
C14 C13 1_555 1_555
C15 C10 1_555 1_555
H10 C15 1_555 1_555
C16 C14 1_555 1_555
C17 C16 1_555 1_555
H11 C17 1_555 1_555
C18 C17 1_555 1_555
H12 C18 1_555 1_555
C19 H13 1_555 1_555
C20 C16 1_555 1_555
H14 C20 1_555 1_555
C21 C22 1_555 1_555
C22 C23 1_555 1_555
C23 H15 1_555 1_555
C24 C23 1_555 1_555
H16 C24 1_555 1_555
C25 C24 1_555 1_555
H17 C25 1_555 1_555
C26 C21 1_555 1_555
H18 C26 1_555 1_555
Br1 Zn1 1_555 1_555
N1 C18 1_555 1_555
N2 C9 1_555 1_555
N3 C8 1_555 1_555
O1 C1 1_555 1_555
O2 C1 1_555 1_555
Zn1 N2 1_555 1_555
N1B Zn1 1_555 1_555
O1C Zn1 1_555 1_555
Zn1B N1 1_555 1_555
Zn1C O1 1_555 1_555
C6 C7 1_555 1_555
C9 N3 1_555 1_555
C14 C15 1_555 1_555
C19 C20 1_555 1_555
C19 N1 1_555 1_555
C21 N3 1_555 1_555
C22 N2 1_555 1_555
C25 C26 1_555 1_555

#END
