
#######################################################################
#
#                 Cambridge Crystallographic Data Centre
#                                CCDC 
#
#######################################################################
#
# If this CIF has been generated from an entry in the Cambridge 
# Structural Database, then it will include bibliographic, chemical, 
# crystal, experimental, refinement or atomic coordinate data resulting 
# from the CCDC's data processing and validation procedures.
#
#######################################################################

data_MEXYOF
_symmetry_cell_setting           monoclinic
_symmetry_space_group_name_H-M   'P 21/n'
_symmetry_Int_Tables_number      14
_space_group_name_Hall           '-P 2yn'
loop_
_symmetry_equiv_pos_site_id
_symmetry_equiv_pos_as_xyz
1 x,y,z
2 1/2-x,1/2+y,1/2-z
3 -x,-y,-z
4 1/2+x,1/2-y,1/2+z
_cell_length_a                   7.7557(2)
_cell_length_b                   21.9826(4)
_cell_length_c                   9.8160(3)
_cell_angle_alpha                90
_cell_angle_beta                 102.9198(9)
_cell_angle_gamma                90
_cell_volume                     1631.17
loop_
_atom_site_label
_atom_site_type_symbol
_atom_site_fract_x
_atom_site_fract_y
_atom_site_fract_z
Cu1 Cu 1.0000 0.0000 1.0000
O1 O 0.8896(2) 0.01963(7) 0.80335(17)
O2 O 1.0298(2) 0.10518(7) 0.87420(19)
C1 C 0.9232(3) 0.07523(10) 0.7846(3)
C2 C 0.8213(3) 0.10380(10) 0.6512(3)
C3 C 0.8126(3) 0.16662(11) 0.6372(3)
H1 H 0.8811 0.1918 0.7077
C4 C 0.7035(3) 0.19281(11) 0.5198(3)
C5 C 0.6935(4) 0.26077(11) 0.5131(3)
O3 O 0.7857(3) 0.29380(8) 0.5971(2)
O4 O 0.5731(3) 0.28024(8) 0.4062(2)
H2 H 0.5673 0.3184 0.4090
C6 C 0.6058(3) 0.15605(11) 0.4137(3)
H3 H 0.5312 0.1741 0.3339
C7 C 0.6184(3) 0.09252(11) 0.4255(3)
C8 C 0.7262(3) 0.06708(11) 0.5443(3)
H4 H 0.7353 0.0241 0.5528
C9 C 0.5177(3) 0.05198(11) 0.3112(3)
H5 H 0.5166 0.0100 0.3472
H6 H 0.3937 0.0662 0.2831
N1 N 0.5968(3) 0.05183(9) 0.1882(2)
C10 C 0.7446(3) 0.02185(12) 0.1787(3)
H7 H 0.8097 -0.0039 0.2497
N2 N 0.7882(3) 0.03271(9) 0.0578(2)
C11 C 0.6573(4) 0.07157(14) -0.0133(3)
H8 H 0.6508 0.0873 -0.1045
C12 C 0.5407(4) 0.08363(13) 0.0671(3)
H9 H 0.4396 0.1092 0.0438
O1B O 1.1104(2) -0.01963(7) 0.19665(17)
O2B O 0.9702(2) -0.10518(7) 0.12580(19)
C1B C 1.0768(3) -0.07523(10) 0.2154(3)
C2B C 1.1787(3) -0.10380(10) 0.3488(3)
C3B C 1.1874(3) -0.16662(11) 0.3628(3)
H1B H 1.1189 -0.1918 0.2923
C4B C 1.2965(3) -0.19281(11) 0.4802(3)
C5B C 1.3065(4) -0.26077(11) 0.4869(3)
O3B O 1.2143(3) -0.29380(8) 0.4029(2)
O4B O 1.4269(3) -0.28024(8) 0.5938(2)
H2B H 1.4327 -0.3184 0.5910
C6B C 1.3942(3) -0.15605(11) 0.5863(3)
H3B H 1.4688 -0.1741 0.6661
C7B C 1.3816(3) -0.09252(11) 0.5745(3)
C8B C 1.2738(3) -0.06708(11) 0.4557(3)
H4B H 1.2647 -0.0241 0.4472
C9B C 1.4823(3) -0.05198(11) 0.6888(3)
H5B H 1.4834 -0.0100 0.6528
H6B H 1.6063 -0.0662 0.7169
N1B N 1.4032(3) -0.05183(9) 0.8118(2)
C10B C 1.2554(3) -0.02185(12) 0.8213(3)
H7B H 1.1903 0.0039 0.7503
N2B N 1.2118(3) -0.03271(9) 0.9422(2)
C11B C 1.3427(4) -0.07157(14) 1.0133(3)
H8B H 1.3492 -0.0873 1.1045
C12B C 1.4593(4) -0.08363(13) 0.9329(3)
H9B H 1.5604 -0.1092 0.9562
Cu1_2 Cu 1.0000 0.0000 0.0000
O1B_2 O 1.1104(2) -0.01963(7) 1.19665(17)
O2B_2 O 0.9702(2) -0.10518(7) 1.12580(19)
N2_2 N 0.7882(3) 0.03271(9) 1.0578(2)
O5 O 0.2637(9) 0.0770(3) 0.5737(7)
C13 C 0.3333(12) 0.1585(4) 0.6889(9)
H10 H 0.3105 0.1378 0.7715
H11 H 0.2924 0.2007 0.6875
H12 H 0.4605 0.1579 0.6922
C14 C 0.2389(8) 0.1273(3) 0.5631(7)
N3 N 0.1612(6) 0.1601(2) 0.4477(5)
C15 C 0.0641(12) 0.1288(4) 0.3219(10)
H13 H 0.0565 0.0853 0.3416
H14 H 0.1263 0.1344 0.2462
H15 H -0.0553 0.1459 0.2937
C16 C 0.1624(9) 0.2266(3) 0.4381(8)
H16 H 0.0558 0.2430 0.4627
H17 H 0.1646 0.2387 0.3424
H18 H 0.2675 0.2427 0.5028
O6? O 0.2206(8) 0.0701(2) 0.5518(6)
C17? C 0.1988(10) 0.1242(3) 0.5056(8)
C18? C 0.0858(14) 0.1268(4) 0.3636(11)
H19? H 0.0803 0.0864 0.3204
H20? H 0.1354 0.1560 0.3073
H21? H -0.0336 0.1397 0.3685
N4? N 0.2419(8) 0.1766(3) 0.5720(6)
C19? C 0.3559(14) 0.1755(5) 0.7143(7)
H22? H 0.2904 0.1917 0.7807
H23? H 0.4613 0.2004 0.7167
H24? H 0.3919 0.1335 0.7398
C20? C 0.1893(11) 0.2358(3) 0.5194(9)
H25? H 0.1415 0.2583 0.5888
H26? H 0.0982 0.2322 0.4327
H27? H 0.2918 0.2575 0.5006
loop_
_geom_bond_atom_site_label_1
_geom_bond_atom_site_label_2
_geom_bond_site_symmetry_1
_geom_bond_site_symmetry_2
Cu1 O1 1_555 1_555
O1 C1 1_555 1_555
O2 Cu1 1_555 1_555
C1 O2 1_555 1_555
C2 C1 1_555 1_555
C3 C2 1_555 1_555
H1 C3 1_555 1_555
C4 C3 1_555 1_555
C5 C4 1_555 1_555
O3 C5 1_555 1_555
O4 C5 1_555 1_555
H2 O4 1_555 1_555
C6 C4 1_555 1_555
H3 C6 1_555 1_555
C7 C6 1_555 1_555
C8 C2 1_555 1_555
H4 C8 1_555 1_555
C9 C7 1_555 1_555
H5 C9 1_555 1_555
H6 C9 1_555 1_555
N1 C9 1_555 1_555
C10 N1 1_555 1_555
H7 C10 1_555 1_555
N2 C10 1_555 1_555
C11 N2 1_555 1_555
H8 C11 1_555 1_555
C12 N1 1_555 1_555
H9 C12 1_555 1_555
O5 C14 1_555 1_555
C13 H10 1_555 1_555
H11 C13 1_555 1_555
H12 C13 1_555 1_555
C14 C13 1_555 1_555
N3 C14 1_555 1_555
C15 N3 1_555 1_555
H13 C15 1_555 1_555
H14 C15 1_555 1_555
H15 C15 1_555 1_555
C16 N3 1_555 1_555
H16 C16 1_555 1_555
H17 C16 1_555 1_555
H18 C16 1_555 1_555
O1B C1B 1_555 1_555
O2B C1B 1_555 1_555
C1B C2B 1_555 1_555
C2B C3B 1_555 1_555
C3B H1B 1_555 1_555
C4B C3B 1_555 1_555
C5B C4B 1_555 1_555
O3B C5B 1_555 1_555
O4B C5B 1_555 1_555
H2B O4B 1_555 1_555
C6B C4B 1_555 1_555
H3B C6B 1_555 1_555
C7B C6B 1_555 1_555
C8B C2B 1_555 1_555
H4B C8B 1_555 1_555
C9B C7B 1_555 1_555
H5B C9B 1_555 1_555
H6B C9B 1_555 1_555
N1B C9B 1_555 1_555
C10B N1B 1_555 1_555
H7B C10B 1_555 1_555
N2B Cu1 1_555 1_555
C11B N2B 1_555 1_555
H8B C11B 1_555 1_555
C12B N1B 1_555 1_555
H9B C12B 1_555 1_555
Cu1_2 N2 1_555 1_555
O1B_2 Cu1 1_555 1_555
O2B_2 Cu1 1_555 1_555
N2_2 Cu1 1_555 1_555
C7 C8 1_555 1_555
C11 C12 1_555 1_555
O1B Cu1_2 1_555 1_555
O2B Cu1_2 1_555 1_555
C7B C8B 1_555 1_555
C10B N2B 1_555 1_555
C11B C12B 1_555 1_555

#END
