
#######################################################################
#
#                 Cambridge Crystallographic Data Centre
#                                CCDC 
#
#######################################################################
#
# If this CIF has been generated from an entry in the Cambridge 
# Structural Database, then it will include bibliographic, chemical, 
# crystal, experimental, refinement or atomic coordinate data resulting 
# from the CCDC's data processing and validation procedures.
#
#######################################################################

data_MEYFIF
_symmetry_cell_setting           triclinic
_symmetry_space_group_name_H-M   'P -1'
_symmetry_Int_Tables_number      2
_space_group_name_Hall           '-P 1'
loop_
_symmetry_equiv_pos_site_id
_symmetry_equiv_pos_as_xyz
1 x,y,z
2 -x,-y,-z
_cell_length_a                   6.3906(2)
_cell_length_b                   10.1350(5)
_cell_length_c                   13.5013(7)
_cell_angle_alpha                81.185(3)
_cell_angle_beta                 78.675(3)
_cell_angle_gamma                79.651(3)
_cell_volume                     837.155
loop_
_atom_site_label
_atom_site_type_symbol
_atom_site_fract_x
_atom_site_fract_y
_atom_site_fract_z
Sr1 Sr 0.03288(4) 0.44383(3) 0.78203(2)
Sr2 Sr -0.99212(5) -0.03951(3) 1.28578(2)
O1 O -0.6725(4) 0.0922(3) 1.1932(2)
O2 O -0.3824(4) -0.0166(3) 1.2559(2)
O3 O -0.1274(5) 0.1438(3) 1.1481(2)
O4 O -0.1717(5) 0.3379(3) 0.9556(2)
O5 O -0.1251(5) 0.1920(3) 0.8476(2)
C1 C -0.4739(5) 0.0726(3) 1.1961(2)
C2 C -0.3352(5) 0.1642(3) 1.1211(2)
H1 H -0.399(7) 0.253(5) 1.121(3)
H2 H -0.069(10) 0.184(6) 1.134(5)
C3 C -0.3203(6) 0.1334(4) 1.0134(3)
H3 H -0.266(9) 0.045(5) 1.004(4)
H4 H -0.457(11) 0.141(6) 0.989(5)
C4 C -0.1970(5) 0.2274(3) 0.9338(2)
O6 O -0.3680(4) 0.4800(3) 0.7584(2)
O7 O -0.6550(4) 0.5861(3) 0.6915(2)
O8 O -0.1081(5) 0.6365(3) 0.6501(2)
O9 O -0.0678(5) 0.7043(3) 0.3600(2)
O10 O -0.1988(5) 0.8577(3) 0.4615(2)
C5 C -0.4569(5) 0.5670(3) 0.6969(2)
C6 C -0.3174(5) 0.6601(3) 0.6238(2)
H5 H -0.371(6) 0.747(4) 0.628(3)
H6 H -0.051(9) 0.676(6) 0.644(5)
C7 C -0.3010(6) 0.6376(4) 0.5143(3)
H7 H -0.239(10) 0.550(6) 0.503(5)
H8 H -0.451(10) 0.655(6) 0.489(5)
C8 C -0.1813(5) 0.7394(3) 0.4400(2)
O11 O 0.2724(5) 0.4641(3) 0.9242(2)
H9 H 0.359(8) 0.468(5) 0.894(4)
H10 H 0.262(9) 0.531(6) 0.955(4)
O12 O -0.7280(5) -0.0508(3) 1.4164(2)
H11 H -0.624(9) -0.056(5) 1.387(4)
H12 H -0.740(8) 0.018(5) 1.443(4)
O13 O -0.1295(4) 0.6581(3) 0.8827(2)
H13 H -0.199(9) 0.716(6) 0.862(4)
H14 H -0.182(10) 0.641(6) 0.960(5)
O14 O -1.1546(4) 0.1698(3) 1.3843(2)
H15 H -1.235(8) 0.240(5) 1.359(4)
H16 H -1.202(9) 0.151(5) 1.455(4)
O15 O 0.3854(6) 0.2738(4) 0.7825(5)
H17 H 0.538(10) 0.279(7) 0.751(5)
H18 H 0.399(10) 0.206(7) 0.757(5)
O7_2 O 0.3450(4) 0.5861(3) 0.6915(2)
O9A O 0.0678(5) 0.2957(3) 0.6400(2)
O2_2 O -1.3824(4) -0.0166(3) 1.2559(2)
O3_2 O -1.1274(5) 0.1438(3) 1.1481(2)
O5A O -0.8749(5) -0.1920(3) 1.1524(2)
O9_2 O -1.0678(5) -0.2957(3) 1.3600(2)
O10_2 O -1.1988(5) -0.1423(3) 1.4615(2)
Sr2_2 Sr 0.00788(5) -0.03951(3) 1.28578(2)
Sr2A Sr -0.00788(5) 0.03951(3) 0.71422(2)
Sr1_2 Sr -0.96712(4) 0.44383(3) 0.78203(2)
Sr1A Sr -0.03288(4) 0.55617(3) 0.21797(2)
Sr2_3 Sr 0.00788(5) 0.96049(3) 0.28578(2)
H2_2 H -1.069(10) 0.184(6) 1.134(5)
loop_
_geom_bond_atom_site_label_1
_geom_bond_atom_site_label_2
_geom_bond_site_symmetry_1
_geom_bond_site_symmetry_2
Sr1 O4 1_555 1_555
Sr2 O1 1_555 1_555
O1 C1 1_555 1_555
O2 C1 1_555 1_555
O3 C2 1_555 1_555
O4 C4 1_555 1_555
O5 Sr1 1_555 1_555
C1 C2 1_555 1_555
C2 H1 1_555 1_555
H2 O3 1_555 1_555
C3 C2 1_555 1_555
H3 C3 1_555 1_555
H4 C3 1_555 1_555
C4 O5 1_555 1_555
O6 Sr1 1_555 1_555
O7 C5 1_555 1_555
O8 Sr1 1_555 1_555
O9 C8 1_555 1_555
O10 C8 1_555 1_555
C5 O6 1_555 1_555
C6 O8 1_555 1_555
H5 C6 1_555 1_555
H6 O8 1_555 1_555
C7 C6 1_555 1_555
H7 C7 1_555 1_555
H8 C7 1_555 1_555
C8 C7 1_555 1_555
O11 Sr1 1_555 1_555
H9 O11 1_555 1_555
H10 O11 1_555 1_555
O12 Sr2 1_555 1_555
H11 O12 1_555 1_555
H12 O12 1_555 1_555
O13 Sr1 1_555 1_555
H13 O13 1_555 1_555
H14 O13 1_555 1_555
O14 Sr2 1_555 1_555
H15 O14 1_555 1_555
H16 O14 1_555 1_555
O15 Sr1 1_555 1_555
H17 O15 1_555 1_555
H18 O15 1_555 1_555
O7_2 Sr1 1_555 1_555
O9A Sr1 1_555 1_555
O2_2 Sr2 1_555 1_555
O3_2 Sr2 1_555 1_555
O5A Sr2 1_555 1_555
O9_2 Sr2 1_555 1_555
O10_2 Sr2 1_555 1_555
Sr2_2 O2 1_555 1_555
Sr2A O5 1_555 1_555
Sr1_2 O7 1_555 1_555
Sr1A O9 1_555 1_555
Sr2_3 O9 1_555 1_555
H2_2 O3_2 1_555 1_555
O3 Sr2_2 1_555 1_555
C3 C4 1_555 1_555
O10 Sr2_3 1_555 1_555
C5 C6 1_555 1_555
O9A Sr2A 1_555 1_555

#END
