
#######################################################################
#
#                 Cambridge Crystallographic Data Centre
#                                CCDC 
#
#######################################################################
#
# If this CIF has been generated from an entry in the Cambridge 
# Structural Database, then it will include bibliographic, chemical, 
# crystal, experimental, refinement or atomic coordinate data resulting 
# from the CCDC's data processing and validation procedures.
#
#######################################################################

data_MEYFEB
_symmetry_cell_setting           monoclinic
_symmetry_space_group_name_H-M   'P 21/n'
_symmetry_Int_Tables_number      14
_space_group_name_Hall           '-P 2yn'
loop_
_symmetry_equiv_pos_site_id
_symmetry_equiv_pos_as_xyz
1 x,y,z
2 1/2-x,1/2+y,1/2-z
3 -x,-y,-z
4 1/2+x,1/2-y,1/2+z
_cell_length_a                   10.595(2)
_cell_length_b                   7.2680(10)
_cell_length_c                   10.805(2)
_cell_angle_alpha                90
_cell_angle_beta                 95.57(3)
_cell_angle_gamma                90
_cell_volume                     828.105
loop_
_atom_site_label
_atom_site_type_symbol
_atom_site_fract_x
_atom_site_fract_y
_atom_site_fract_z
Cd1 Cd 0.390330(16) 0.19664(2) 0.201137(15)
O1 O 0.5669(2) 0.3374(3) 0.28708(18)
O2 O 0.77147(18) 0.3940(3) 0.29920(17)
C1 C 0.6699(2) 0.3479(3) 0.2394(2)
C2 C 0.6755(3) 0.3039(3) 0.1010(2)
H1 H 0.740(4) 0.211(4) 0.096(3)
O3 O 0.55383(19) 0.2382(3) 0.05182(18)
H2 H 0.557(4) 0.196(5) -0.021(4)
C3 C 0.7143(3) 0.4764(4) 0.0348(2)
H3 H 0.787(3) 0.530(5) 0.084(3)
H4 H 0.643(4) 0.568(5) 0.028(3)
C4 C 0.7594(2) 0.4372(3) -0.0920(2)
O4 O 0.8457(2) 0.3198(3) -0.09868(19)
O5 O 0.7128(2) 0.5240(3) -0.18612(17)
O6 O 0.4773(2) -0.1001(3) 0.19762(19)
H5 H 0.553(4) -0.092(6) 0.205(4)
H6 H 0.463(6) -0.173(7) 0.257(6)
O7 O 0.2573(2) 0.0959(3) 0.04517(19)
H7 H 0.260(3) 0.104(5) -0.027(4)
H8 H 0.182(4) 0.112(6) 0.051(4)
O4C O 0.3457(2) 0.1802(3) 0.40132(19)
O5B O 0.2872(2) 0.4760(3) 0.18612(17)
Cd1C Cd 0.890330(16) 0.30336(2) -0.298863(15)
Cd1B Cd 0.609670(16) 0.80336(2) -0.201137(15)
O8 O 0.0129(2) 0.1672(3) 0.0962(2)
H9 H -0.035(5) 0.217(7) 0.034(5)
H10 H -0.026(5) 0.057(9) 0.119(5)
loop_
_geom_bond_atom_site_label_1
_geom_bond_atom_site_label_2
_geom_bond_site_symmetry_1
_geom_bond_site_symmetry_2
Cd1 O1 1_555 1_555
O1 C1 1_555 1_555
O2 C1 1_555 1_555
C1 C2 1_555 1_555
C2 H1 1_555 1_555
O3 Cd1 1_555 1_555
H2 O3 1_555 1_555
C3 C2 1_555 1_555
H3 C3 1_555 1_555
H4 C3 1_555 1_555
C4 C3 1_555 1_555
O4 C4 1_555 1_555
O5 C4 1_555 1_555
O6 Cd1 1_555 1_555
H5 O6 1_555 1_555
H6 O6 1_555 1_555
O7 Cd1 1_555 1_555
H7 O7 1_555 1_555
H8 O7 1_555 1_555
O8 H9 1_555 1_555
H10 O8 1_555 1_555
O4C Cd1 1_555 1_555
O5B Cd1 1_555 1_555
Cd1C O4 1_555 1_555
Cd1B O5 1_555 1_555
C2 O3 1_555 1_555

#END
