
#######################################################################
#
#                 Cambridge Crystallographic Data Centre
#                                CCDC 
#
#######################################################################
#
# If this CIF has been generated from an entry in the Cambridge 
# Structural Database, then it will include bibliographic, chemical, 
# crystal, experimental, refinement or atomic coordinate data resulting 
# from the CCDC's data processing and validation procedures.
#
#######################################################################

data_MEYHAZ
_symmetry_cell_setting           triclinic
_symmetry_space_group_name_H-M   'P -1'
_symmetry_Int_Tables_number      2
_space_group_name_Hall           '-P 1'
loop_
_symmetry_equiv_pos_site_id
_symmetry_equiv_pos_as_xyz
1 x,y,z
2 -x,-y,-z
_cell_length_a                   7.693(2)
_cell_length_b                   8.768(2)
_cell_length_c                   10.653(2)
_cell_angle_alpha                79.13(3)
_cell_angle_beta                 69.61(3)
_cell_angle_gamma                69.19(3)
_cell_volume                     627.881
loop_
_atom_site_label
_atom_site_type_symbol
_atom_site_fract_x
_atom_site_fract_y
_atom_site_fract_z
Cs1 Cs 0.202861(18) 0.173539(18) 0.927655(14)
O1 O 0.6011(2) 0.2702(2) 0.84753(19)
O2 O 0.6092(3) 0.3216(2) 0.6328(2)
H1 H 0.482(6) 0.381(5) 0.666(4)
C1 C 0.6873(3) 0.2538(3) 0.7290(2)
C2 C 0.9001(3) 0.1491(3) 0.6761(2)
H2 H 0.902(4) 0.077(3) 0.621(3)
O3 O 0.9696(2) 0.0616(2) 0.78344(18)
H3 H 0.992(5) -0.024(4) 0.773(3)
C3 C 1.0262(3) 0.2571(3) 0.5962(3)
H4 H 0.996(4) 0.311(4) 0.510(3)
H5 H 1.018(4) 0.335(4) 0.654(3)
C4 C 1.2355(3) 0.1483(3) 0.5520(2)
O4 O 1.3554(2) 0.1494(3) 0.6047(2)
O5 O 1.2761(3) 0.0529(3) 0.4622(2)
H6 H 1.358(5) 0.011(5) 0.442(4)
O6 O 0.4199(2) 0.1250(2) 1.1437(2)
O7 O 0.2388(2) 0.3677(2) 1.2247(2)
H7 H 0.154(6) 0.335(4) 1.236(4)
C5 C 0.4055(3) 0.2565(3) 1.1721(2)
C6 C 0.5820(3) 0.3117(3) 1.1503(2)
H8 H 0.542(4) 0.432(3) 1.123(3)
O8 O 0.7512(2) 0.2160(2) 1.0598(2)
H9 H 0.725(5) 0.223(5) 0.993(4)
C7 C 0.6211(3) 0.2927(3) 1.2848(2)
H10 H 0.513(4) 0.347(3) 1.347(3)
H11 H 0.653(4) 0.178(4) 1.318(3)
C8 C 0.7856(3) 0.3587(3) 1.2707(2)
O9 O 0.9564(2) 0.2586(2) 1.2489(2)
O10 O 0.7477(2) 0.5079(2) 1.2774(2)
Cs1A Cs -0.202861(18) -0.173539(18) 1.072345(14)
O3_2 O -0.0304(2) 0.0616(2) 0.78344(18)
O3A O 0.0304(2) -0.0616(2) 1.21656(18)
O4_2 O 0.3554(2) 0.1494(3) 0.6047(2)
O6A O 0.5801(2) -0.1250(2) 0.8563(2)
O8_2 O -0.2488(2) 0.2160(2) 1.0598(2)
O8A O 0.2488(2) -0.2160(2) 0.9402(2)
O9_2 O -0.0436(2) 0.2586(2) 1.2489(2)
O10A O 0.2523(2) 0.4921(2) 0.7226(2)
Cs1_2 Cs 1.202861(18) 0.173539(18) 0.927655(14)
Cs1A_2 Cs 0.797139(18) -0.173539(18) 1.072345(14)
Cs1A_3 Cs 0.797139(18) 0.826461(18) 1.072345(14)
H3_2 H -0.008(5) -0.024(4) 0.773(3)
H3A H 0.008(5) 0.024(4) 1.227(3)
H9_2 H -0.275(5) 0.223(5) 0.993(4)
H9A H 0.275(5) -0.223(5) 1.007(4)
loop_
_geom_bond_atom_site_label_1
_geom_bond_atom_site_label_2
_geom_bond_site_symmetry_1
_geom_bond_site_symmetry_2
Cs1 O1 1_555 1_555
O1 C1 1_555 1_555
O2 H1 1_555 1_555
C1 O2 1_555 1_555
C2 C1 1_555 1_555
H2 C2 1_555 1_555
O3 C2 1_555 1_555
H3 O3 1_555 1_555
C3 C2 1_555 1_555
H4 C3 1_555 1_555
H5 C3 1_555 1_555
C4 C3 1_555 1_555
O4 C4 1_555 1_555
O5 C4 1_555 1_555
H6 O5 1_555 1_555
O6 Cs1 1_555 1_555
O7 H7 1_555 1_555
C5 O6 1_555 1_555
C6 C5 1_555 1_555
H8 C6 1_555 1_555
O8 C6 1_555 1_555
H9 O8 1_555 1_555
C7 C6 1_555 1_555
H10 C7 1_555 1_555
H11 C7 1_555 1_555
C8 C7 1_555 1_555
O9 C8 1_555 1_555
O10 C8 1_555 1_555
Cs1A O3_2 1_555 1_555
O3_2 Cs1 1_555 1_555
O3A Cs1 1_555 1_555
O4_2 Cs1 1_555 1_555
O6A Cs1 1_555 1_555
O8_2 Cs1 1_555 1_555
O8A Cs1 1_555 1_555
O9_2 Cs1 1_555 1_555
O10A Cs1 1_555 1_555
Cs1_2 O3 1_555 1_555
Cs1A_2 O3 1_555 1_555
Cs1A_3 O10 1_555 1_555
H3_2 O3_2 1_555 1_555
H3A O3A 1_555 1_555
H9_2 O8_2 1_555 1_555
H9A O8A 1_555 1_555
O4 Cs1_2 1_555 1_555
O6 Cs1A_2 1_555 1_555
O7 C5 1_555 1_555
O8 Cs1_2 1_555 1_555
O8 Cs1A_2 1_555 1_555
O9 Cs1_2 1_555 1_555
Cs1A O3A 1_555 1_555
Cs1A O8_2 1_555 1_555
Cs1A O8A 1_555 1_555
O6A Cs1A_2 1_555 1_555

#END
