
#######################################################################
#
#                 Cambridge Crystallographic Data Centre
#                                CCDC 
#
#######################################################################
#
# If this CIF has been generated from an entry in the Cambridge 
# Structural Database, then it will include bibliographic, chemical, 
# crystal, experimental, refinement or atomic coordinate data resulting 
# from the CCDC's data processing and validation procedures.
#
#######################################################################

data_MEYJAD
_symmetry_cell_setting           triclinic
_symmetry_space_group_name_H-M   'P -1'
_symmetry_Int_Tables_number      2
_space_group_name_Hall           '-P 1'
loop_
_symmetry_equiv_pos_site_id
_symmetry_equiv_pos_as_xyz
1 x,y,z
2 -x,-y,-z
_cell_length_a                   8.0981(10)
_cell_length_b                   12.2931(16)
_cell_length_c                   14.6297(19)
_cell_angle_alpha                78.1570(10)
_cell_angle_beta                 80.9940(10)
_cell_angle_gamma                74.0050(10)
_cell_volume                     1362.45
loop_
_atom_site_label
_atom_site_type_symbol
_atom_site_fract_x
_atom_site_fract_y
_atom_site_fract_z
C1 C 1.3142(3) 0.3183(2) 0.07919(19)
H1 H 1.3551 0.2655 0.1311
C2 C 1.3056(3) 0.4339(2) 0.0780(2)
C3 C 1.2521(3) 0.5131(2) -0.0004(2)
C4 C 1.2061(3) 0.4727(2) -0.07410(19)
C5 C 1.1521(4) 0.5460(2) -0.1597(2)
H2 H 1.1486 0.6236 -0.1678
C6 C 1.1066(4) 0.5061(2) -0.2282(2)
H3 H 1.0762 0.5564 -0.2832
C7 C 1.1031(3) 0.3889(2) -0.21953(18)
C8 C 1.0514(3) 0.3453(2) -0.28993(18)
C9 C 1.0460(3) 0.2312(2) -0.27268(17)
C10 C 1.0920(3) 0.1658(2) -0.18593(17)
H4 H 1.0835 0.0902 -0.1736
C11 C 1.1533(3) 0.3139(2) -0.13621(17)
C12 C 1.2113(3) 0.3552(2) -0.06447(18)
C13 C 1.3562(4) 0.4655(3) 0.1625(2)
H5 H 1.4617 0.4895 0.1453
H6 H 1.3727 0.3999 0.2119
H7 H 1.2663 0.5270 0.1838
C14 C 1.2401(4) 0.6392(2) -0.0079(2)
H8 H 1.2584 0.6537 0.0513
H9 H 1.1277 0.6833 -0.0241
H10 H 1.3266 0.6608 -0.0556
C15 C 1.0046(4) 0.4209(3) -0.3819(2)
H11 H 1.0232 0.3743 -0.4296
H12 H 1.0754 0.4745 -0.3995
H13 H 0.8852 0.4621 -0.3752
C16 C 0.9960(4) 0.1749(3) -0.3422(2)
H14 H 0.8834 0.2166 -0.3596
H15 H 0.9943 0.0973 -0.3144
H16 H 1.0785 0.1746 -0.3970
C17 C 1.0626(3) 0.1183(2) 0.19563(17)
C18 C 0.9035(3) 0.1503(2) 0.26445(17)
C19 C 0.7429(3) 0.1420(2) 0.24992(17)
H17 H 0.7328 0.1112 0.1987
C20 C 0.5973(3) 0.1787(2) 0.30994(18)
H18 H 0.4904 0.1711 0.3004
C21 C 0.6139(3) 0.2269(2) 0.38465(16)
C22 C 0.7735(4) 0.2343(3) 0.40152(18)
H19 H 0.7830 0.2660 0.4523
C23 C 0.9190(4) 0.1942(2) 0.34246(18)
H20 H 1.0271 0.1965 0.3548
C24 C 0.4685(3) 0.2485(2) 0.56979(16)
C25 C 0.4716(4) 0.1374(2) 0.61449(18)
H21 H 0.4519 0.0851 0.5824
C26 C 0.5045(3) 0.1051(2) 0.70747(18)
H22 H 0.5049 0.0310 0.7386
C27 C 0.5368(3) 0.1833(2) 0.75415(16)
C28 C 0.5344(3) 0.2939(2) 0.70755(17)
H23 H 0.5568 0.3461 0.7388
C29 C 0.4992(3) 0.3272(2) 0.61512(17)
H24 H 0.4962 0.4017 0.5841
C30 C 0.5822(3) 0.1482(2) 0.85360(17)
Cd1 Cd 1.27446(2) 0.086184(14) 0.012979(11)
N1 N 1.2686(3) 0.27842(17) 0.01212(14)
N2 N 1.1463(3) 0.20235(17) -0.12011(14)
O1 O 1.0385(2) 0.09173(16) 0.11947(12)
O2 O 1.2029(2) 0.12224(18) 0.21453(13)
O3 O 0.2866(3) 0.2449(2) 0.43810(14)
O4 O 0.4012(3) 0.41442(18) 0.42760(13)
O5 O 0.5341(2) 0.06058(14) 0.90363(11)
O6 O 0.6625(3) 0.20462(18) 0.88124(14)
S1 S 0.42270(9) 0.29193(7) 0.45114(4)
O7 O 1.2279(2) -0.06950(15) -0.03637(12)
H25 H 1.1343 -0.0542 -0.0612
H26 H 1.2345 -0.1211 0.0124
Cd1_2 Cd 0.27446(2) 0.086184(14) 1.012979(11)
Cd1A Cd 0.72554(2) -0.086184(14) 0.987021(11)
O5_2 O 1.5341(2) 0.06058(14) -0.09637(11)
O5A O 1.4659(2) -0.06058(14) 0.09637(11)
loop_
_geom_bond_atom_site_label_1
_geom_bond_atom_site_label_2
_geom_bond_site_symmetry_1
_geom_bond_site_symmetry_2
C1 H1 1_555 1_555
C2 C1 1_555 1_555
C3 C2 1_555 1_555
C4 C3 1_555 1_555
C5 C4 1_555 1_555
H2 C5 1_555 1_555
C6 C5 1_555 1_555
H3 C6 1_555 1_555
C7 C6 1_555 1_555
C8 C7 1_555 1_555
C9 C8 1_555 1_555
C10 C9 1_555 1_555
H4 C10 1_555 1_555
C11 C7 1_555 1_555
C12 C4 1_555 1_555
C13 C2 1_555 1_555
H5 C13 1_555 1_555
H6 C13 1_555 1_555
H7 C13 1_555 1_555
C14 C3 1_555 1_555
H8 C14 1_555 1_555
H9 C14 1_555 1_555
H10 C14 1_555 1_555
C15 C8 1_555 1_555
H11 C15 1_555 1_555
H12 C15 1_555 1_555
H13 C15 1_555 1_555
C16 C9 1_555 1_555
H14 C16 1_555 1_555
H15 C16 1_555 1_555
H16 C16 1_555 1_555
C17 C18 1_555 1_555
C18 C19 1_555 1_555
C19 H17 1_555 1_555
C20 C19 1_555 1_555
H18 C20 1_555 1_555
C21 C20 1_555 1_555
C22 C21 1_555 1_555
H19 C22 1_555 1_555
C23 C18 1_555 1_555
H20 C23 1_555 1_555
C24 C25 1_555 1_555
C25 H21 1_555 1_555
C26 C25 1_555 1_555
H22 C26 1_555 1_555
C27 C26 1_555 1_555
C28 C27 1_555 1_555
H23 C28 1_555 1_555
C29 C24 1_555 1_555
H24 C29 1_555 1_555
C30 C27 1_555 1_555
Cd1 N1 1_555 1_555
N1 C1 1_555 1_555
N2 C10 1_555 1_555
O1 C17 1_555 1_555
O2 C17 1_555 1_555
O3 S1 1_555 1_555
O4 S1 1_555 1_555
O5 C30 1_555 1_555
O6 C30 1_555 1_555
S1 C21 1_555 1_555
O7 Cd1 1_555 1_555
H25 O7 1_555 1_555
H26 O7 1_555 1_555
Cd1_2 O5 1_555 1_555
Cd1A O5 1_555 1_555
O5_2 Cd1 1_555 1_555
O5A Cd1 1_555 1_555
C11 C12 1_555 1_555
C11 N2 1_555 1_555
C12 N1 1_555 1_555
C22 C23 1_555 1_555
C24 S1 1_555 1_555
C28 C29 1_555 1_555
Cd1 N2 1_555 1_555
Cd1 O1 1_555 1_555

#END
