
#######################################################################
#
#                 Cambridge Crystallographic Data Centre
#                                CCDC 
#
#######################################################################
#
# If this CIF has been generated from an entry in the Cambridge 
# Structural Database, then it will include bibliographic, chemical, 
# crystal, experimental, refinement or atomic coordinate data resulting 
# from the CCDC's data processing and validation procedures.
#
#######################################################################

data_MEYJEH
_symmetry_cell_setting           monoclinic
_symmetry_space_group_name_H-M   'P 21/c'
_symmetry_Int_Tables_number      14
_space_group_name_Hall           '-P 2ybc'
loop_
_symmetry_equiv_pos_site_id
_symmetry_equiv_pos_as_xyz
1 x,y,z
2 -x,1/2+y,1/2-z
3 -x,-y,-z
4 x,1/2-y,1/2+z
_cell_length_a                   13.5444(14)
_cell_length_b                   11.9489(13)
_cell_length_c                   18.518(2)
_cell_angle_alpha                90
_cell_angle_beta                 105.8260(10)
_cell_angle_gamma                90
_cell_volume                     2883.36
loop_
_atom_site_label
_atom_site_type_symbol
_atom_site_fract_x
_atom_site_fract_y
_atom_site_fract_z
Cd1 Cd 0.94398(3) 0.15673(3) 0.01535(2)
C1 C 1.0405(4) 0.2585(5) -0.1159(3)
H1 H 1.0686 0.1853 -0.1133
C2 C 1.0679(4) 0.3352(5) -0.1645(3)
C3 C 1.1362(5) 0.2969(5) -0.2113(3)
H2 H 1.1012 0.3081 -0.2645
H3 H 1.1520 0.2173 -0.2019
H4 H 1.2001 0.3402 -0.1979
C4 C 1.0315(4) 0.4420(5) -0.1669(3)
C5 C 1.0595(5) 0.5286(5) -0.2171(3)
H5 H 1.1328 0.5229 -0.2136
H6 H 1.0446 0.6035 -0.2011
H7 H 1.0194 0.5159 -0.2691
C6 C 0.9643(4) 0.4696(4) -0.1222(3)
C7 C 0.9393(4) 0.3845(4) -0.0777(3)
C8 C 0.8659(4) 0.4066(4) -0.0349(3)
C9 C 0.9193(4) 0.5774(5) -0.1209(3)
H8 H 0.9374 0.6362 -0.1493
C10 C 0.8520(4) 0.5986(5) -0.0808(3)
H9 H 0.8234 0.6714 -0.0823
C11 C 0.8224(4) 0.5141(4) -0.0361(3)
C12 C 0.7495(4) 0.5319(5) 0.0055(3)
C13 C 0.7015(5) 0.6461(5) 0.0062(3)
H10 H 0.6555 0.6444 0.0389
H11 H 0.6623 0.6662 -0.0449
H12 H 0.7556 0.7017 0.0250
C14 C 0.6456(5) 0.4514(6) 0.0880(4)
H13 H 0.6654 0.5115 0.1252
H14 H 0.6433 0.3802 0.1138
H15 H 0.5778 0.4676 0.0542
C15 C 0.7234(4) 0.4437(5) 0.0431(3)
C16 C 0.7713(4) 0.3418(5) 0.0412(3)
H16 H 0.7523 0.2815 0.0681
C17 C 0.8401(5) 0.0875(6) 0.1140(4)
C18 C 0.7704(4) 0.0540(5) 0.1622(3)
C19 C 0.7058(4) -0.0363(5) 0.1433(3)
H17 H 0.7057 -0.0792 0.1001
C20 C 0.6407(4) -0.0656(5) 0.1865(3)
H18 H 0.5968 -0.1287 0.1737
C21 C 0.7713(4) 0.1161(5) 0.2249(3)
H19 H 0.8174 0.1771 0.2391
C22 C 0.7045(4) 0.0891(5) 0.2672(3)
H20 H 0.7029 0.1336 0.3094
C23 C 0.6409(4) -0.0016(5) 0.2481(3)
C24 C 0.4325(4) -0.0131(4) 0.2411(3)
C25 C 0.4014(4) 0.0952(5) 0.2221(3)
H21 H 0.4458 0.1562 0.2411
C26 C 0.3045(4) 0.1136(5) 0.1750(3)
H22 H 0.2830 0.1880 0.1609
C27 C 0.3683(4) -0.1023(5) 0.2146(3)
H23 H 0.3906 -0.1768 0.2276
C28 C 0.2707(4) -0.0814(5) 0.1688(3)
H24 H 0.2252 -0.1422 0.1514
C29 C 0.2384(4) 0.0257(4) 0.1480(3)
C30 C 0.1323(4) 0.0472(5) 0.0983(3)
N1 N 0.9788(3) 0.2800(4) -0.0735(2)
N2 N 0.8417(3) 0.3211(4) 0.0049(2)
O1 O 0.9131(3) 0.1514(4) 0.1399(2)
O2 O 0.8159(3) 0.0532(3) 0.0472(2)
O3 O 0.5725(3) 0.0429(3) 0.36227(19)
O4 O 0.5655(3) -0.1540(3) 0.3190(2)
O5 O 0.1095(3) 0.1462(3) 0.0778(2)
O6 O 0.0711(2) -0.0331(3) 0.08092(18)
S1 S 0.55609(10) -0.03595(13) 0.30184(7)
Cd1_2 Cd -0.05602(3) 0.15673(3) 0.01535(2)
Cd1B Cd 0.05602(3) -0.15673(3) -0.01535(2)
O5_2 O 1.1095(3) 0.1462(3) 0.0778(2)
O6B O 0.9289(2) 0.0331(3) -0.08092(18)
O7 O 0.5072(7) 0.2427(7) 0.4235(5)
H25 H 0.5383 0.1922 0.4059
H26 H 0.5450 0.3006 0.4328
O8 O 0.5974(5) 0.4537(8) 0.4635(4)
H27 H 0.6605 0.4580 0.4872
H28 H 0.5738 0.5196 0.4540
O9 O 0.4977(8) 0.6674(8) 0.4236(6)
H29 H 0.4947 0.7323 0.4042
H30 H 0.4584 0.6652 0.4524
loop_
_geom_bond_atom_site_label_1
_geom_bond_atom_site_label_2
_geom_bond_site_symmetry_1
_geom_bond_site_symmetry_2
Cd1 N1 1_555 1_555
C1 H1 1_555 1_555
C2 C1 1_555 1_555
C3 C2 1_555 1_555
H2 C3 1_555 1_555
H3 C3 1_555 1_555
H4 C3 1_555 1_555
C4 C2 1_555 1_555
C5 C4 1_555 1_555
H5 C5 1_555 1_555
H6 C5 1_555 1_555
H7 C5 1_555 1_555
C6 C4 1_555 1_555
C7 C6 1_555 1_555
C8 C7 1_555 1_555
C9 C6 1_555 1_555
H8 C9 1_555 1_555
C10 C9 1_555 1_555
H9 C10 1_555 1_555
C11 C8 1_555 1_555
C12 C11 1_555 1_555
C13 C12 1_555 1_555
H10 C13 1_555 1_555
H11 C13 1_555 1_555
H12 C13 1_555 1_555
C14 H13 1_555 1_555
H14 C14 1_555 1_555
H15 C14 1_555 1_555
C15 C12 1_555 1_555
C16 C15 1_555 1_555
H16 C16 1_555 1_555
C17 C18 1_555 1_555
C18 C19 1_555 1_555
C19 H17 1_555 1_555
C20 C19 1_555 1_555
H18 C20 1_555 1_555
C21 C18 1_555 1_555
H19 C21 1_555 1_555
C22 C21 1_555 1_555
H20 C22 1_555 1_555
C23 C20 1_555 1_555
C24 C25 1_555 1_555
C25 H21 1_555 1_555
C26 C25 1_555 1_555
H22 C26 1_555 1_555
C27 C24 1_555 1_555
H23 C27 1_555 1_555
C28 C27 1_555 1_555
H24 C28 1_555 1_555
C29 C26 1_555 1_555
C30 C29 1_555 1_555
N1 C1 1_555 1_555
N2 Cd1 1_555 1_555
O1 Cd1 1_555 1_555
O2 Cd1 1_555 1_555
O3 S1 1_555 1_555
O4 S1 1_555 1_555
O5 C30 1_555 1_555
O6 C30 1_555 1_555
S1 C23 1_555 1_555
O7 H25 1_555 1_555
H26 O7 1_555 1_555
O8 H27 1_555 1_555
H28 O8 1_555 1_555
O9 H29 1_555 1_555
H30 O9 1_555 1_555
Cd1_2 O5 1_555 1_555
Cd1B O6 1_555 1_555
O5_2 Cd1 1_555 1_555
O6B Cd1 1_555 1_555
C7 N1 1_555 1_555
C8 N2 1_555 1_555
C10 C11 1_555 1_555
C14 C15 1_555 1_555
C16 N2 1_555 1_555
C17 O1 1_555 1_555
C17 O2 1_555 1_555
C22 C23 1_555 1_555
C24 S1 1_555 1_555
C28 C29 1_555 1_555

#END
