
#######################################################################
#
#                 Cambridge Crystallographic Data Centre
#                                CCDC 
#
#######################################################################
#
# If this CIF has been generated from an entry in the Cambridge 
# Structural Database, then it will include bibliographic, chemical, 
# crystal, experimental, refinement or atomic coordinate data resulting 
# from the CCDC's data processing and validation procedures.
#
#######################################################################

data_MEYJUX
_symmetry_cell_setting           triclinic
_symmetry_space_group_name_H-M   'P -1'
_symmetry_Int_Tables_number      2
_space_group_name_Hall           '-P 1'
loop_
_symmetry_equiv_pos_site_id
_symmetry_equiv_pos_as_xyz
1 x,y,z
2 -x,-y,-z
_cell_length_a                   10.0002(9)
_cell_length_b                   10.1568(8)
_cell_length_c                   10.2186(8)
_cell_angle_alpha                89.906(6)
_cell_angle_beta                 66.363(5)
_cell_angle_gamma                75.805(5)
_cell_volume                     916.318
loop_
_atom_site_label
_atom_site_type_symbol
_atom_site_fract_x
_atom_site_fract_y
_atom_site_fract_z
Co1 Co 1.0000 0.0000 0.0000
O1 O 0.7623(2) 0.10514(19) 0.08758(19)
O2 O 0.6465(2) 0.01954(19) 0.2881(2)
O3 O 0.4723(3) 0.6279(2) 0.3208(3)
H1 H 0.4860 0.6984 0.3526
O4 O 0.2746(3) 0.6306(3) 0.5213(3)
N1 N 1.0309(2) 0.2026(2) -0.0276(2)
N2 N 1.1426(3) 0.2249(2) -0.1442(2)
H2 H 1.2075 0.1619 -0.2111
N3 N 1.0226(2) -0.0046(2) 0.2018(2)
N4 N 1.1443(3) -0.1002(3) 0.1982(2)
H3 H 1.2121 -0.1507 0.1218
C1 C 0.9562(3) 0.3252(3) 0.0465(3)
H4 H 0.8712 0.3414 0.1334
C2 C 1.0226(3) 0.4263(2) -0.0235(3)
C3 C 1.1419(3) 0.3571(3) -0.1453(3)
H5 H 1.2102 0.3948 -0.2159
C4 C 0.9484(3) 0.0473(3) 0.3382(3)
H6 H 0.8582 0.1164 0.3735
C5 C 1.0220(3) -0.0144(3) 0.4229(3)
C6 C 1.1475(4) -0.1072(3) 0.3273(3)
H7 H 1.2223 -0.1652 0.3484
C7 C 0.6456(3) 0.1019(3) 0.1966(3)
C8 C 0.3607(3) 0.5777(3) 0.4030(4)
C9 C 0.4962(3) 0.2089(3) 0.2225(3)
C10 C 0.5017(3) 0.3397(3) 0.2947(3)
H8 H 0.5870 0.3710 0.2307
H9 H 0.5151 0.3201 0.3823
C11 C 0.3527(3) 0.4524(3) 0.3301(3)
C12 C 0.3383(4) 0.4845(3) 0.1885(3)
H10 H 0.2466 0.5565 0.2079
H11 H 0.4240 0.5161 0.1259
C13 C 0.3335(4) 0.3563(3) 0.1148(4)
H12 H 0.3238 0.3772 0.0248
C14 C 0.4808(4) 0.2433(3) 0.0821(3)
H13 H 0.4791 0.1622 0.0333
H14 H 0.5671 0.2740 0.0192
C15 C 0.3576(3) 0.1627(3) 0.3218(3)
H15 H 0.3540 0.0806 0.2764
H16 H 0.3662 0.1415 0.4112
C16 C 0.2125(3) 0.2752(3) 0.3530(4)
H17 H 0.1251 0.2444 0.4162
C17 C 0.2187(3) 0.4023(3) 0.4275(4)
H18 H 0.1256 0.4737 0.4507
H19 H 0.2282 0.3810 0.5165
C18 C 0.1981(4) 0.3083(4) 0.2132(4)
H20 H 0.1935 0.2276 0.1662
H21 H 0.1054 0.3792 0.2333
N1A N 0.9691(2) 0.7974(2) 0.0276(2)
N2A N 0.8574(3) 0.7751(2) 0.1442(2)
H2A H 0.7925 0.8381 0.2111
C1A C 1.0438(3) 0.6748(3) -0.0465(3)
H4A H 1.1288 0.6586 -0.1334
C2A C 0.9774(3) 0.5737(2) 0.0235(3)
C3A C 0.8581(3) 0.6429(3) 0.1453(3)
H5A H 0.7898 0.6052 0.2159
N3A N 0.9774(2) 0.0046(2) 0.7982(2)
N4A N 0.8557(3) 0.1002(3) 0.8018(2)
H3A H 0.7879 0.1507 0.8782
C4A C 1.0516(3) -0.0473(3) 0.6618(3)
H6A H 1.1418 -0.1164 0.6265
C5A C 0.9780(3) 0.0144(3) 0.5771(3)
C6A C 0.8525(4) 0.1072(3) 0.6727(3)
H7A H 0.7777 0.1652 0.6516
O1A O 1.2377(2) -0.10514(19) -0.08758(19)
O2A O 1.3535(2) -0.01954(19) -0.2881(2)
O3A O 1.5277(3) -0.6279(2) -0.3208(3)
H1A H 1.5140 -0.6984 -0.3526
O4A O 1.7254(3) -0.6306(3) -0.5213(3)
C7A C 1.3544(3) -0.1019(3) -0.1966(3)
C8A C 1.6393(3) -0.5777(3) -0.4030(4)
C9A C 1.5038(3) -0.2089(3) -0.2225(3)
C10A C 1.4983(3) -0.3397(3) -0.2947(3)
H8A H 1.4130 -0.3710 -0.2307
H9A H 1.4849 -0.3201 -0.3823
C11A C 1.6473(3) -0.4524(3) -0.3301(3)
C12A C 1.6617(4) -0.4845(3) -0.1885(3)
H10A H 1.7534 -0.5565 -0.2079
H11A H 1.5760 -0.5161 -0.1259
C13A C 1.6665(4) -0.3563(3) -0.1148(4)
H12A H 1.6762 -0.3772 -0.0248
C14A C 1.5192(4) -0.2433(3) -0.0821(3)
H13A H 1.5209 -0.1622 -0.0333
H14A H 1.4329 -0.2740 -0.0192
C15A C 1.6424(3) -0.1627(3) -0.3218(3)
H15A H 1.6460 -0.0806 -0.2764
H16A H 1.6338 -0.1415 -0.4112
C16A C 1.7875(3) -0.2752(3) -0.3530(4)
H17A H 1.8749 -0.2444 -0.4162
C17A C 1.7813(3) -0.4023(3) -0.4275(4)
H18A H 1.8744 -0.4737 -0.4507
H19A H 1.7718 -0.3810 -0.5165
C18A C 1.8019(4) -0.3083(4) -0.2132(4)
H20A H 1.8065 -0.2276 -0.1662
H21A H 1.8946 -0.3792 -0.2333
Co1_2 Co 1.0000 0.0000 1.0000
Co1_3 Co 1.0000 1.0000 0.0000
N1A_2 N 0.9691(2) -0.2026(2) 0.0276(2)
N3A_2 N 0.9774(2) 0.0046(2) -0.2018(2)
O5 O 0.5378(3) 0.1396(2) 0.5727(2)
H22 H 0.5745 0.1077 0.4849
H23 H 0.4784 0.0935 0.6223
loop_
_geom_bond_atom_site_label_1
_geom_bond_atom_site_label_2
_geom_bond_site_symmetry_1
_geom_bond_site_symmetry_2
Co1 O1 1_555 1_555
O1 C7 1_555 1_555
O2 C7 1_555 1_555
O3 H1 1_555 1_555
O4 C8 1_555 1_555
N1 Co1 1_555 1_555
N2 N1 1_555 1_555
H2 N2 1_555 1_555
N3 Co1 1_555 1_555
N4 N3 1_555 1_555
H3 N4 1_555 1_555
C1 N1 1_555 1_555
H4 C1 1_555 1_555
C2 C1 1_555 1_555
C3 N2 1_555 1_555
H5 C3 1_555 1_555
C4 N3 1_555 1_555
H6 C4 1_555 1_555
C5 C4 1_555 1_555
C6 N4 1_555 1_555
H7 C6 1_555 1_555
C7 C9 1_555 1_555
C8 O3 1_555 1_555
C9 C10 1_555 1_555
C10 H8 1_555 1_555
H9 C10 1_555 1_555
C11 C8 1_555 1_555
C12 C11 1_555 1_555
H10 C12 1_555 1_555
H11 C12 1_555 1_555
C13 C12 1_555 1_555
H12 C13 1_555 1_555
C14 C9 1_555 1_555
H13 C14 1_555 1_555
H14 C14 1_555 1_555
C15 C9 1_555 1_555
H15 C15 1_555 1_555
H16 C15 1_555 1_555
C16 C15 1_555 1_555
H17 C16 1_555 1_555
C17 C11 1_555 1_555
H18 C17 1_555 1_555
H19 C17 1_555 1_555
C18 C13 1_555 1_555
H20 C18 1_555 1_555
H21 C18 1_555 1_555
O5 H22 1_555 1_555
H23 O5 1_555 1_555
N1A N2A 1_555 1_555
N2A H2A 1_555 1_555
C1A N1A 1_555 1_555
H4A C1A 1_555 1_555
C2A C2 1_555 1_555
C3A N2A 1_555 1_555
H5A C3A 1_555 1_555
N3A N4A 1_555 1_555
N4A H3A 1_555 1_555
C4A N3A 1_555 1_555
H6A C4A 1_555 1_555
C5A C5 1_555 1_555
C6A N4A 1_555 1_555
H7A C6A 1_555 1_555
O1A Co1 1_555 1_555
O2A C7A 1_555 1_555
O3A H1A 1_555 1_555
O4A C8A 1_555 1_555
C7A O1A 1_555 1_555
C8A O3A 1_555 1_555
C9A C7A 1_555 1_555
C10A C9A 1_555 1_555
H8A C10A 1_555 1_555
H9A C10A 1_555 1_555
C11A C8A 1_555 1_555
C12A C11A 1_555 1_555
H10A C12A 1_555 1_555
H11A C12A 1_555 1_555
C13A C12A 1_555 1_555
H12A C13A 1_555 1_555
C14A C9A 1_555 1_555
H13A C14A 1_555 1_555
H14A C14A 1_555 1_555
C15A C9A 1_555 1_555
H15A C15A 1_555 1_555
H16A C15A 1_555 1_555
C16A C15A 1_555 1_555
H17A C16A 1_555 1_555
C17A C11A 1_555 1_555
H18A C17A 1_555 1_555
H19A C17A 1_555 1_555
C18A C13A 1_555 1_555
H20A C18A 1_555 1_555
H21A C18A 1_555 1_555
Co1_2 N3A 1_555 1_555
Co1_3 N1A 1_555 1_555
N1A_2 Co1 1_555 1_555
N3A_2 Co1 1_555 1_555
C2 C3 1_555 1_555
C5 C6 1_555 1_555
C10 C11 1_555 1_555
C13 C14 1_555 1_555
C16 C17 1_555 1_555
C16 C18 1_555 1_555
C1A C2A 1_555 1_555
C2A C3A 1_555 1_555
C4A C5A 1_555 1_555
C5A C6A 1_555 1_555
C10A C11A 1_555 1_555
C13A C14A 1_555 1_555
C16A C17A 1_555 1_555
C16A C18A 1_555 1_555

#END
