
#######################################################################
#
#                 Cambridge Crystallographic Data Centre
#                                CCDC 
#
#######################################################################
#
# If this CIF has been generated from an entry in the Cambridge 
# Structural Database, then it will include bibliographic, chemical, 
# crystal, experimental, refinement or atomic coordinate data resulting 
# from the CCDC's data processing and validation procedures.
#
#######################################################################

data_MEYJIL
_symmetry_cell_setting           monoclinic
_symmetry_space_group_name_H-M   'P 21/c'
_symmetry_Int_Tables_number      14
_space_group_name_Hall           '-P 2ybc'
loop_
_symmetry_equiv_pos_site_id
_symmetry_equiv_pos_as_xyz
1 x,y,z
2 -x,1/2+y,1/2-z
3 -x,-y,-z
4 x,1/2-y,1/2+z
_cell_length_a                   6.8035(14)
_cell_length_b                   21.209(4)
_cell_length_c                   9.0101(18)
_cell_angle_alpha                90
_cell_angle_beta                 92.64(3)
_cell_angle_gamma                90
_cell_volume                     1298.74
loop_
_atom_site_label
_atom_site_type_symbol
_atom_site_fract_x
_atom_site_fract_y
_atom_site_fract_z
C1 C 0.7176(6) 0.67393(19) 0.1686(4)
H1 H 0.7901 0.7046 0.2292
H2 H 0.6041 0.6607 0.2221
Cd1 Cd 0.99124(3) 0.584555(11) 0.38677(2)
Cl1 Cl 0.67275(12) 0.60967(4) 0.52426(9)
Cl2 Cl 1.17901(11) 0.53525(4) 0.64079(8)
Cl3 Cl 1.29096(12) 0.53942(4) 0.25900(9)
Cl4 Cl 1.12874(14) 0.69575(4) 0.42916(10)
N1 N 0.8456(4) 0.61834(13) 0.1428(3)
C2 C 0.7220(5) 0.56807(17) 0.0717(4)
H3 H 0.6393 0.5494 0.1448
H4 H 0.8057 0.5352 0.0343
C3 C 0.9936(5) 0.6366(2) 0.0345(4)
H5 H 1.0901 0.6032 0.0274
H6 H 1.0617 0.6744 0.0689
C4 C 0.5919(6) 0.59557(17) -0.0572(4)
H7 H 0.5877 0.5668 -0.1411
H8 H 0.4587 0.6018 -0.0260
C5 C 0.6483(7) 0.70448(19) 0.0203(4)
H9 H 0.5103 0.7158 0.0224
H10 H 0.7237 0.7423 0.0028
N2 N 0.6788(4) 0.65695(13) -0.1002(3)
Cd2 Cd 0.5000 0.5000 0.5000
C6 C 0.8938(5) 0.6489(2) -0.1206(4)
H11 H 0.9476 0.6866 -0.1642
H12 H 0.9161 0.6135 -0.1861
H13 H 0.623(5) 0.6717(17) -0.177(4)
C1B C 0.2824(6) 0.32607(19) 0.8314(4)
H1B H 0.2099 0.2954 0.7708
H2B H 0.3959 0.3393 0.7779
Cd1B Cd 0.00876(3) 0.415445(11) 0.61323(2)
Cl1B Cl 0.32725(12) 0.39033(4) 0.47574(9)
Cl2B Cl -0.17901(11) 0.46475(4) 0.35921(8)
Cl3B Cl -0.29096(12) 0.46058(4) 0.74100(9)
Cl4B Cl -0.12874(14) 0.30425(4) 0.57084(10)
N1B N 0.1544(4) 0.38166(13) 0.8572(3)
C2B C 0.2780(5) 0.43193(17) 0.9283(4)
H3B H 0.3607 0.4506 0.8552
H4B H 0.1943 0.4648 0.9657
C3B C 0.0064(5) 0.3634(2) 0.9655(4)
H5B H -0.0901 0.3968 0.9726
H6B H -0.0617 0.3256 0.9311
C4B C 0.4081(6) 0.40443(17) 1.0572(4)
H7B H 0.4123 0.4332 1.1411
H8B H 0.5413 0.3982 1.0260
C5B C 0.3517(7) 0.29552(19) 0.9797(4)
H9B H 0.4897 0.2842 0.9776
H10B H 0.2763 0.2577 0.9972
N2B N 0.3212(4) 0.34305(13) 1.1002(3)
C6B C 0.1062(5) 0.3511(2) 1.1206(4)
H11B H 0.0524 0.3134 1.1642
H12B H 0.0839 0.3865 1.1861
H13B H 0.377(5) 0.3283(17) 1.177(4)
Cd1_2 Cd -0.00876(3) 0.584555(11) 0.38677(2)
Cd1B_2 Cd 1.00876(3) 0.415445(11) 0.61323(2)
Cl2_2 Cl 0.17901(11) 0.53525(4) 0.64079(8)
Cl2B_2 Cl 0.82099(11) 0.46475(4) 0.35921(8)
Cl3_2 Cl 0.29096(12) 0.53942(4) 0.25900(9)
Cl3B_2 Cl 0.70904(12) 0.46058(4) 0.74100(9)
Cd2_2 Cd -0.5000 0.5000 0.5000
Cd2_3 Cd 1.5000 0.5000 0.5000
O1 O 0.3815(5) 0.71058(16) 0.7324(3)
H14 H 0.315(5) 0.7038(19) 0.649(3)
H15 H 0.308(5) 0.7397(16) 0.771(4)
loop_
_geom_bond_atom_site_label_1
_geom_bond_atom_site_label_2
_geom_bond_site_symmetry_1
_geom_bond_site_symmetry_2
C1 H1 1_555 1_555
H2 C1 1_555 1_555
Cd1 Cl1 1_555 1_555
Cl1 Cd2 1_555 1_555
Cl2 Cd1 1_555 1_555
Cl3 Cd1 1_555 1_555
Cl4 Cd1 1_555 1_555
N1 C1 1_555 1_555
C2 N1 1_555 1_555
H3 C2 1_555 1_555
H4 C2 1_555 1_555
C3 N1 1_555 1_555
H5 C3 1_555 1_555
H6 C3 1_555 1_555
C4 C2 1_555 1_555
H7 C4 1_555 1_555
H8 C4 1_555 1_555
C5 C1 1_555 1_555
H9 C5 1_555 1_555
H10 C5 1_555 1_555
N2 C4 1_555 1_555
Cd2 Cl1B 1_555 1_555
C6 C3 1_555 1_555
H11 C6 1_555 1_555
H12 C6 1_555 1_555
H13 N2 1_555 1_555
O1 H14 1_555 1_555
H15 O1 1_555 1_555
C1B H1B 1_555 1_555
H2B C1B 1_555 1_555
Cd1B Cl1B 1_555 1_555
Cl2B Cd1B 1_555 1_555
Cl3B Cd1B 1_555 1_555
Cl4B Cd1B 1_555 1_555
N1B C1B 1_555 1_555
C2B N1B 1_555 1_555
H3B C2B 1_555 1_555
H4B C2B 1_555 1_555
C3B N1B 1_555 1_555
H5B C3B 1_555 1_555
H6B C3B 1_555 1_555
C4B C2B 1_555 1_555
H7B C4B 1_555 1_555
H8B C4B 1_555 1_555
C5B C1B 1_555 1_555
H9B C5B 1_555 1_555
H10B C5B 1_555 1_555
N2B C4B 1_555 1_555
C6B C3B 1_555 1_555
H11B C6B 1_555 1_555
H12B C6B 1_555 1_555
H13B N2B 1_555 1_555
Cd1_2 Cl2B 1_555 1_555
Cd1B_2 Cl2 1_555 1_555
Cl2_2 Cd2 1_555 1_555
Cl2B_2 Cd1 1_555 1_555
Cl3_2 Cd2 1_555 1_555
Cl3B_2 Cd2 1_555 1_555
Cd2_2 Cl2B 1_555 1_555
Cd2_3 Cl2 1_555 1_555
Cd1 N1 1_555 1_555
Cl3 Cd2_3 1_555 1_555
C5 N2 1_555 1_555
N2 C6 1_555 1_555
Cd2 Cl2B_2 1_555 1_555
Cd1B N1B 1_555 1_555
Cd1B Cl2_2 1_555 1_555
Cl3B Cd2_2 1_555 1_555
C5B N2B 1_555 1_555
N2B C6B 1_555 1_555
Cd1_2 Cl2_2 1_555 1_555
Cd1_2 Cl3_2 1_555 1_555
Cd1B_2 Cl2B_2 1_555 1_555
Cd1B_2 Cl3B_2 1_555 1_555

#END
