
#######################################################################
#
#                 Cambridge Crystallographic Data Centre
#                                CCDC 
#
#######################################################################
#
# If this CIF has been generated from an entry in the Cambridge 
# Structural Database, then it will include bibliographic, chemical, 
# crystal, experimental, refinement or atomic coordinate data resulting 
# from the CCDC's data processing and validation procedures.
#
#######################################################################

data_MEYJOR
_symmetry_cell_setting           monoclinic
_symmetry_space_group_name_H-M   'C 2/c'
_symmetry_Int_Tables_number      15
_space_group_name_Hall           '-C 2yn'
loop_
_symmetry_equiv_pos_site_id
_symmetry_equiv_pos_as_xyz
1 x,y,z
2 -x,y,1/2-z
3 1/2+x,1/2+y,z
4 1/2-x,1/2+y,1/2-z
5 -x,-y,-z
6 x,-y,1/2+z
7 1/2-x,1/2-y,-z
8 1/2+x,1/2-y,1/2+z
_cell_length_a                   14.5363(12)
_cell_length_b                   14.9862(13)
_cell_length_c                   18.3813(17)
_cell_angle_alpha                90
_cell_angle_beta                 105.384(7)
_cell_angle_gamma                90
_cell_volume                     3860.78
loop_
_atom_site_label
_atom_site_type_symbol
_atom_site_fract_x
_atom_site_fract_y
_atom_site_fract_z
Cd1 Cd 0.5000 0.209765(19) 0.2500
O1 O 0.52757(16) 0.24394(13) 0.37859(12)
O2 O 0.52525(16) 0.11352(13) 0.43394(12)
O3 O 0.28963(19) 0.40998(18) 0.51619(15)
H1 H 0.2328 0.4291 0.5087
O4 O 0.2789(2) 0.3313(2) 0.61387(16)
N1 N 0.61043(18) 0.09640(16) 0.27108(15)
N2 N 0.61718(19) 0.04162(16) 0.33006(15)
H2 H 0.5875 0.0494 0.3643
N3 N 0.88300(19) -0.18159(16) 0.23721(15)
N4 N 0.8645(2) -0.13287(17) 0.17452(16)
H3 H 0.8902 -0.1418 0.1380
C1 C 0.6657(2) 0.0608(2) 0.23276(18)
H4 H 0.6747 0.0847 0.1884
C2 C 0.7095(2) -0.01746(18) 0.26681(17)
C3 C 0.6760(2) -0.0265(2) 0.32876(18)
H5 H 0.6913 -0.0722 0.3641
C4 C 0.8292(2) -0.1464(2) 0.27713(18)
H6 H 0.8269 -0.1677 0.3241
C5 C 0.7762(2) -0.0740(2) 0.24144(17)
C6 C 0.8013(3) -0.0684(2) 0.1751(2)
H7 H 0.7783 -0.0270 0.1369
C7 C 0.5296(2) 0.19788(19) 0.43565(17)
C8 C 0.3238(3) 0.3549(2) 0.5714(2)
C9 C 0.5325(2) 0.24696(19) 0.50917(18)
C10 C 0.4302(2) 0.2778(2) 0.50451(17)
H8 H 0.4080 0.3170 0.4614
H9 H 0.3882 0.2264 0.4975
C11 C 0.4266(2) 0.3272(2) 0.57656(17)
C12 C 0.4627(3) 0.2660(2) 0.64389(18)
H10 H 0.4593 0.2966 0.6896
H11 H 0.4224 0.2134 0.6382
C13 C 0.5646(3) 0.2382(3) 0.65038(19)
H12 H 0.5870 0.1992 0.6943
C14 C 0.5676(3) 0.1874(2) 0.57865(17)
H13 H 0.6324 0.1682 0.5824
H14 H 0.5276 0.1347 0.5735
C15 C 0.5961(3) 0.3306(2) 0.5186(2)
H15 H 0.6613 0.3133 0.5215
H16 H 0.5739 0.3694 0.4753
C16 C 0.5929(3) 0.3806(3) 0.5906(2)
H17 H 0.6338 0.4335 0.5961
C17 C 0.6298(3) 0.3201(3) 0.6587(2)
H18 H 0.6300 0.3520 0.7047
H19 H 0.6946 0.3015 0.6617
C18 C 0.4910(3) 0.4099(2) 0.5856(2)
H20 H 0.4685 0.4494 0.5427
H21 H 0.4892 0.4421 0.6309
O1A O 0.47243(16) 0.24394(13) 0.12141(12)
O2A O 0.47475(16) 0.11352(13) 0.06606(12)
O3A O 0.71037(19) 0.40998(18) -0.01619(15)
H1A H 0.7672 0.4291 -0.0087
O4A O 0.7211(2) 0.3313(2) -0.11387(16)
N1A N 0.38957(18) 0.09640(16) 0.22892(15)
N2A N 0.38282(19) 0.04162(16) 0.16994(15)
H2A H 0.4125 0.0494 0.1357
N3A N 0.11700(19) -0.18159(16) 0.26279(15)
N4A N 0.1355(2) -0.13287(17) 0.32548(16)
H3A H 0.1098 -0.1418 0.3620
C1A C 0.3343(2) 0.0608(2) 0.26724(18)
H4A H 0.3253 0.0847 0.3116
C2A C 0.2905(2) -0.01746(18) 0.23319(17)
C3A C 0.3240(2) -0.0265(2) 0.17124(18)
H5A H 0.3087 -0.0722 0.1359
C4A C 0.1708(2) -0.1464(2) 0.22287(18)
H6A H 0.1731 -0.1677 0.1759
C5A C 0.2238(2) -0.0740(2) 0.25856(17)
C6A C 0.1987(3) -0.0684(2) 0.3249(2)
H7A H 0.2217 -0.0270 0.3631
C7A C 0.4704(2) 0.19788(19) 0.06435(17)
C8A C 0.6762(3) 0.3549(2) -0.0714(2)
C9A C 0.4675(2) 0.24696(19) -0.00917(18)
C10A C 0.5698(2) 0.2778(2) -0.00451(17)
H8A H 0.5920 0.3170 0.0386
H9A H 0.6118 0.2264 0.0025
C11A C 0.5734(2) 0.3272(2) -0.07656(17)
C12A C 0.5373(3) 0.2660(2) -0.14389(18)
H10A H 0.5407 0.2966 -0.1896
H11A H 0.5776 0.2134 -0.1382
C13A C 0.4354(3) 0.2382(3) -0.15038(19)
H12A H 0.4130 0.1992 -0.1943
C14A C 0.4324(3) 0.1874(2) -0.07865(17)
H13A H 0.3676 0.1682 -0.0824
H14A H 0.4724 0.1347 -0.0735
C15A C 0.4039(3) 0.3306(2) -0.0186(2)
H15A H 0.3387 0.3133 -0.0215
H16A H 0.4261 0.3694 0.0247
C16A C 0.4071(3) 0.3806(3) -0.0906(2)
H17A H 0.3662 0.4335 -0.0961
C17A C 0.3702(3) 0.3201(3) -0.1587(2)
H18A H 0.3700 0.3520 -0.2047
H19A H 0.3054 0.3015 -0.1617
C18A C 0.5090(3) 0.4099(2) -0.0856(2)
H20A H 0.5315 0.4494 -0.0427
H21A H 0.5108 0.4421 -0.1309
Cd1B Cd 0.0000 -0.290235(19) 0.2500
Cd1B_2 Cd 1.0000 -0.290235(19) 0.2500
N3B N 0.38300(19) 0.31841(16) 0.23721(15)
N3C N 0.61700(19) 0.31841(16) 0.26279(15)
O5 O 0.37647(16) 0.02616(14) 0.47978(14)
H22 H 0.4186 0.0545 0.4646
H23 H 0.4033 -0.0175 0.5066
loop_
_geom_bond_atom_site_label_1
_geom_bond_atom_site_label_2
_geom_bond_site_symmetry_1
_geom_bond_site_symmetry_2
Cd1 O1 1_555 1_555
O1 C7 1_555 1_555
O2 C7 1_555 1_555
O3 H1 1_555 1_555
O4 C8 1_555 1_555
N1 Cd1 1_555 1_555
N2 N1 1_555 1_555
H2 N2 1_555 1_555
N3 N4 1_555 1_555
N4 H3 1_555 1_555
C1 N1 1_555 1_555
H4 C1 1_555 1_555
C2 C1 1_555 1_555
C3 N2 1_555 1_555
H5 C3 1_555 1_555
C4 N3 1_555 1_555
H6 C4 1_555 1_555
C5 C2 1_555 1_555
C6 N4 1_555 1_555
H7 C6 1_555 1_555
C7 C9 1_555 1_555
C8 O3 1_555 1_555
C9 C10 1_555 1_555
C10 H8 1_555 1_555
H9 C10 1_555 1_555
C11 C8 1_555 1_555
C12 C11 1_555 1_555
H10 C12 1_555 1_555
H11 C12 1_555 1_555
C13 C12 1_555 1_555
H12 C13 1_555 1_555
C14 C9 1_555 1_555
H13 C14 1_555 1_555
H14 C14 1_555 1_555
C15 C9 1_555 1_555
H15 C15 1_555 1_555
H16 C15 1_555 1_555
C16 C15 1_555 1_555
H17 C16 1_555 1_555
C17 C13 1_555 1_555
H18 C17 1_555 1_555
H19 C17 1_555 1_555
C18 C11 1_555 1_555
H20 C18 1_555 1_555
H21 C18 1_555 1_555
O5 H22 1_555 1_555
H23 O5 1_555 1_555
O1A Cd1 1_555 1_555
O2A C7A 1_555 1_555
O3A H1A 1_555 1_555
O4A C8A 1_555 1_555
N1A Cd1 1_555 1_555
N2A N1A 1_555 1_555
H2A N2A 1_555 1_555
N3A N4A 1_555 1_555
N4A H3A 1_555 1_555
C1A N1A 1_555 1_555
H4A C1A 1_555 1_555
C2A C1A 1_555 1_555
C3A N2A 1_555 1_555
H5A C3A 1_555 1_555
C4A N3A 1_555 1_555
H6A C4A 1_555 1_555
C5A C2A 1_555 1_555
C6A N4A 1_555 1_555
H7A C6A 1_555 1_555
C7A O1A 1_555 1_555
C8A O3A 1_555 1_555
C9A C7A 1_555 1_555
C10A C9A 1_555 1_555
H8A C10A 1_555 1_555
H9A C10A 1_555 1_555
C11A C8A 1_555 1_555
C12A C11A 1_555 1_555
H10A C12A 1_555 1_555
H11A C12A 1_555 1_555
C13A C12A 1_555 1_555
H12A C13A 1_555 1_555
C14A C9A 1_555 1_555
H13A C14A 1_555 1_555
H14A C14A 1_555 1_555
C15A C9A 1_555 1_555
H15A C15A 1_555 1_555
H16A C15A 1_555 1_555
C16A C15A 1_555 1_555
H17A C16A 1_555 1_555
C17A C13A 1_555 1_555
H18A C17A 1_555 1_555
H19A C17A 1_555 1_555
C18A C11A 1_555 1_555
H20A C18A 1_555 1_555
H21A C18A 1_555 1_555
Cd1B N3A 1_555 1_555
Cd1B_2 N3 1_555 1_555
N3B Cd1 1_555 1_555
N3C Cd1 1_555 1_555
C2 C3 1_555 1_555
C4 C5 1_555 1_555
C5 C6 1_555 1_555
C10 C11 1_555 1_555
C13 C14 1_555 1_555
C16 C17 1_555 1_555
C16 C18 1_555 1_555
C2A C3A 1_555 1_555
C4A C5A 1_555 1_555
C5A C6A 1_555 1_555
C10A C11A 1_555 1_555
C13A C14A 1_555 1_555
C16A C17A 1_555 1_555
C16A C18A 1_555 1_555

#END
