
#######################################################################
#
#                 Cambridge Crystallographic Data Centre
#                                CCDC 
#
#######################################################################
#
# If this CIF has been generated from an entry in the Cambridge 
# Structural Database, then it will include bibliographic, chemical, 
# crystal, experimental, refinement or atomic coordinate data resulting 
# from the CCDC's data processing and validation procedures.
#
#######################################################################

data_MEYKEI
_symmetry_cell_setting           triclinic
_symmetry_space_group_name_H-M   'P -1'
_symmetry_Int_Tables_number      2
_space_group_name_Hall           '-P 1'
loop_
_symmetry_equiv_pos_site_id
_symmetry_equiv_pos_as_xyz
1 x,y,z
2 -x,-y,-z
_cell_length_a                   5.9018(6)
_cell_length_b                   7.6619(9)
_cell_length_c                   9.2433(10)
_cell_angle_alpha                88.980(12)
_cell_angle_beta                 75.434(11)
_cell_angle_gamma                87.049(12)
_cell_volume                     403.997
loop_
_atom_site_label
_atom_site_type_symbol
_atom_site_fract_x
_atom_site_fract_y
_atom_site_fract_z
Cd1 Cd 0.0000 1.0000 0.0000
S1 S 0.78837(6) 0.69895(5) -0.05077(4)
N1 N -0.2199(2) 0.93227(17) 0.34860(14)
N2 N -0.0184(2) 0.89156(17) 0.24645(13)
N3 N 0.3573(2) 0.8507(2) -0.07795(16)
C1 C 0.1508(2) 0.79239(19) 0.28360(16)
H1 H 0.2896 0.7678 0.2094
C2 C 0.1333(2) 0.72252(17) 0.42723(15)
C3 C -0.0738(2) 0.76561(18) 0.53186(15)
H2 H -0.0996 0.7249 0.6309
C4 C -0.2431(2) 0.87072(19) 0.48660(16)
H3 H -0.3831 0.9001 0.5584
C5 C 0.4953(2) 0.52484(19) 0.35120(15)
H4 H 0.4933 0.5416 0.2505
C6 C 0.3232(2) 0.60956(17) 0.46355(14)
C7 C 0.3307(2) 0.58394(19) 0.61293(15)
H5 H 0.2171 0.6409 0.6895
C8 C 0.5364(2) 0.78950(19) -0.06813(15)
N1A N 1.2199(2) 0.06773(17) 0.65140(14)
N2A N 1.0184(2) 0.10844(17) 0.75355(13)
C1A C 0.8492(2) 0.20761(19) 0.71640(16)
H1A H 0.7104 0.2322 0.7906
C2A C 0.8667(2) 0.27748(17) 0.57277(15)
C3A C 1.0738(2) 0.23439(18) 0.46814(15)
H2A H 1.0996 0.2751 0.3691
C4A C 1.2431(2) 0.12928(19) 0.51340(16)
H3A H 1.3831 0.0999 0.4416
C5A C 0.5047(2) 0.47516(19) 0.64880(15)
H4A H 0.5067 0.4584 0.7495
C6A C 0.6768(2) 0.39044(17) 0.53645(14)
C7A C 0.6693(2) 0.41606(19) 0.38707(15)
H5A H 0.7829 0.3591 0.3105
S1A S -0.78837(6) 1.30105(5) 0.05077(4)
N3A N -0.3573(2) 1.1493(2) 0.07795(16)
C8A C -0.5364(2) 1.21050(19) 0.06813(15)
Cd1_2 Cd -1.0000 1.0000 0.0000
Cd1_3 Cd 1.0000 0.0000 1.0000
Cd1_4 Cd 1.0000 1.0000 0.0000
S1_2 S -0.21163(6) 0.69895(5) -0.05077(4)
S1A_2 S 0.21163(6) 1.30105(5) 0.05077(4)
N2A_2 N 0.0184(2) 1.10844(17) -0.24645(13)
loop_
_geom_bond_atom_site_label_1
_geom_bond_atom_site_label_2
_geom_bond_site_symmetry_1
_geom_bond_site_symmetry_2
Cd1 N2 1_555 1_555
S1 C8 1_555 1_555
N1 N2 1_555 1_555
N2 C1 1_555 1_555
N3 Cd1 1_555 1_555
C1 H1 1_555 1_555
C2 C1 1_555 1_555
C3 C2 1_555 1_555
H2 C3 1_555 1_555
C4 N1 1_555 1_555
H3 C4 1_555 1_555
C5 H4 1_555 1_555
C6 C2 1_555 1_555
C7 C6 1_555 1_555
H5 C7 1_555 1_555
C8 N3 1_555 1_555
N1A N2A 1_555 1_555
N2A C1A 1_555 1_555
C1A H1A 1_555 1_555
C2A C1A 1_555 1_555
C3A C2A 1_555 1_555
H2A C3A 1_555 1_555
C4A N1A 1_555 1_555
H3A C4A 1_555 1_555
C5A C7 1_555 1_555
H4A C5A 1_555 1_555
C6A C2A 1_555 1_555
C7A C5 1_555 1_555
H5A C7A 1_555 1_555
S1A C8A 1_555 1_555
N3A Cd1 1_555 1_555
C8A N3A 1_555 1_555
Cd1_2 S1A 1_555 1_555
Cd1_3 N2A 1_555 1_555
Cd1_4 S1 1_555 1_555
S1_2 Cd1 1_555 1_555
S1A_2 Cd1 1_555 1_555
N2A_2 Cd1 1_555 1_555
C3 C4 1_555 1_555
C5 C6 1_555 1_555
C3A C4A 1_555 1_555
C5A C6A 1_555 1_555
C6A C7A 1_555 1_555

#END
