
#######################################################################
#
#                 Cambridge Crystallographic Data Centre
#                                CCDC 
#
#######################################################################
#
# If this CIF has been generated from an entry in the Cambridge 
# Structural Database, then it will include bibliographic, chemical, 
# crystal, experimental, refinement or atomic coordinate data resulting 
# from the CCDC's data processing and validation procedures.
#
#######################################################################

data_MEYKUY
_symmetry_cell_setting           monoclinic
_symmetry_space_group_name_H-M   'C 2/c'
_symmetry_Int_Tables_number      15
_space_group_name_Hall           '-C 2yn'
loop_
_symmetry_equiv_pos_site_id
_symmetry_equiv_pos_as_xyz
1 x,y,z
2 -x,y,1/2-z
3 1/2+x,1/2+y,z
4 1/2-x,1/2+y,1/2-z
5 -x,-y,-z
6 x,-y,1/2+z
7 1/2-x,1/2-y,-z
8 1/2+x,1/2-y,1/2+z
_cell_length_a                   10.548(2)
_cell_length_b                   18.669(4)
_cell_length_c                   24.795(6)
_cell_angle_alpha                90
_cell_angle_beta                 92.687(5)
_cell_angle_gamma                90
_cell_volume                     4877.28
loop_
_atom_site_label
_atom_site_type_symbol
_atom_site_fract_x
_atom_site_fract_y
_atom_site_fract_z
Co1 Co 0.5000 0.5000 0.5000
Co2 Co 1.0000 0.56680(4) 0.7500
Co3 Co 0.99629(6) 0.49587(3) 0.86241(2)
O1 O 0.4093(4) 0.5383(2) 0.56859(17)
H1 H 0.441(5) 0.5763(16) 0.583(2)
H2 H 0.340(2) 0.552(3) 0.5533(7)
O2 O 0.8698(3) 0.43158(18) 0.90284(14)
H3 H 0.795(2) 0.434(2) 0.889(2)
H4 H 0.878(4) 0.3887(11) 0.914(2)
N1 N 0.9013(3) 0.64413(18) 0.79407(13)
N2 N 0.8065(4) 0.74782(19) 0.81202(15)
H5 H 0.782(5) 0.7913(10) 0.809(2)
N3 N 0.8137(4) 0.6751(2) 0.95065(15)
N4 N 0.9017(3) 0.59333(19) 0.88509(13)
N5 N 0.7374(5) 0.7874(2) 0.92845(17)
H6 H 0.717(5) 0.801(2) 0.9594(9)
H7 H 0.724(5) 0.8216(18) 0.9067(14)
N6 N 0.8874(6) 0.5628(3) 0.97387(18)
H8 H 0.861(6) 0.569(3) 1.0050(11)
H9 H 0.903(6) 0.5193(11) 0.968(2)
C1 C 0.8600(4) 0.7070(2) 0.77525(17)
H10 H 0.8678 0.7212 0.7396
C2 C 0.8165(4) 0.7097(2) 0.85977(17)
C3 C 0.7877(4) 0.7251(3) 0.91368(18)
C4 C 0.8670(4) 0.6126(3) 0.93572(18)
C5 C 0.8738(4) 0.6458(2) 0.84816(15)
N7 N 0.5194(5) 0.6087(2) 0.4740(2)
N8 N 0.5759(5) 0.7002(2) 0.42269(19)
H11 H 0.599(5) 0.732(2) 0.4003(19)
N9 N 0.5949(4) 0.7931(2) 0.55542(17)
N10 N 0.5265(5) 0.6701(2) 0.5605(2)
N11 N 0.6494(5) 0.8469(2) 0.47551(18)
H12 H 0.671(5) 0.8876(14) 0.4878(18)
H13 H 0.657(6) 0.848(3) 0.4416(5)
N12 N 0.5595(6) 0.7381(3) 0.6365(2)
H14 H 0.521(6) 0.708(2) 0.656(2)
H15 H 0.547(7) 0.7789(14) 0.650(2)
C6 C 0.5426(6) 0.6313(3) 0.4254(3)
H16 H 0.5364 0.6017 0.3952
C7 C 0.5737(5) 0.7256(2) 0.4757(2)
C8 C 0.6071(5) 0.7902(3) 0.5015(2)
C9 C 0.5587(6) 0.7339(3) 0.5812(2)
C10 C 0.5393(5) 0.6683(3) 0.5057(2)
C11 C 0.7456(5) 0.5094(2) 0.58061(18)
C12 C 0.6864(4) 0.5216(2) 0.63414(17)
H17 H 0.6117 0.4914 0.6353
H18 H 0.6577 0.5709 0.6351
C13 C 0.7696(4) 0.5074(2) 0.68605(17)
C14 C 0.6950(4) 0.5242(2) 0.73587(18)
H19 H 0.6105 0.5039 0.7309
H20 H 0.6860 0.5757 0.7390
C15 C 0.7567(4) 0.4952(2) 0.78852(18)
C16 C 0.8005(4) 0.4270(2) 0.68523(19)
O3 O 0.6761(4) 0.51159(19) 0.53803(14)
O4 O 0.8635(3) 0.4991(2) 0.57762(13)
O5 O 0.8779(3) 0.49242(15) 0.79150(11)
O6 O 0.6882(3) 0.4760(2) 0.82554(14)
O7 O 0.9030(3) 0.40625(16) 0.66689(13)
O8 O 0.7175(4) 0.38575(19) 0.70148(18)
O9 O 0.8818(3) 0.54856(14) 0.68448(11)
Co3A Co 1.00371(6) 0.49587(3) 0.63759(2)
O2A O 1.1302(3) 0.43158(18) 0.59716(14)
H3A H 1.205(2) 0.434(2) 0.611(2)
H4A H 1.122(4) 0.3887(11) 0.586(2)
N1A N 1.0987(3) 0.64413(18) 0.70593(13)
N2A N 1.1935(4) 0.74782(19) 0.68798(15)
H5A H 1.218(5) 0.7913(10) 0.691(2)
N3A N 1.1863(4) 0.6751(2) 0.54935(15)
N4A N 1.0983(3) 0.59333(19) 0.61491(13)
N5A N 1.2626(5) 0.7874(2) 0.57155(17)
H6A H 1.283(5) 0.801(2) 0.5406(9)
H7A H 1.276(5) 0.8216(18) 0.5933(14)
N6A N 1.1126(6) 0.5628(3) 0.52613(18)
H8A H 1.139(6) 0.569(3) 0.4950(11)
H9A H 1.097(6) 0.5193(11) 0.532(2)
C1A C 1.1400(4) 0.7070(2) 0.72475(17)
H10A H 1.1322 0.7212 0.7604
C2A C 1.1835(4) 0.7097(2) 0.64023(17)
C3A C 1.2123(4) 0.7251(3) 0.58632(18)
C4A C 1.1330(4) 0.6126(3) 0.56428(18)
C5A C 1.1262(4) 0.6458(2) 0.65184(15)
C11A C 1.2544(5) 0.5094(2) 0.91939(18)
C12A C 1.3136(4) 0.5216(2) 0.86586(17)
H17A H 1.3883 0.4914 0.8647
H18A H 1.3423 0.5709 0.8649
C13A C 1.2304(4) 0.5074(2) 0.81395(17)
C14A C 1.3050(4) 0.5242(2) 0.76413(18)
H19A H 1.3895 0.5039 0.7691
H20A H 1.3140 0.5757 0.7610
C15A C 1.2433(4) 0.4952(2) 0.71148(18)
C16A C 1.1995(4) 0.4270(2) 0.81477(19)
O3A O 1.3239(4) 0.51159(19) 0.96197(14)
O4A O 1.1365(3) 0.4991(2) 0.92238(13)
O5A O 1.1221(3) 0.49242(15) 0.70850(11)
O6A O 1.3118(3) 0.4760(2) 0.67446(14)
O7A O 1.0970(3) 0.40625(16) 0.83311(13)
O8A O 1.2825(4) 0.38575(19) 0.79852(18)
O9A O 1.1182(3) 0.54856(14) 0.81552(11)
N7D N 0.4806(5) 0.3913(2) 0.5260(2)
N8D N 0.4241(5) 0.2998(2) 0.57731(19)
H11D H 0.401(5) 0.268(2) 0.5997(19)
N9D N 0.4051(4) 0.2069(2) 0.44458(17)
N10D N 0.4735(5) 0.3299(2) 0.4395(2)
N11D N 0.3506(5) 0.1531(2) 0.52449(18)
H12D H 0.329(5) 0.1124(14) 0.5122(18)
H13D H 0.343(6) 0.152(3) 0.5584(5)
N12D N 0.4405(6) 0.2619(3) 0.3635(2)
H14D H 0.479(6) 0.292(2) 0.344(2)
H15D H 0.453(7) 0.2211(14) 0.350(2)
C6D C 0.4574(6) 0.3687(3) 0.5746(3)
H16D H 0.4636 0.3983 0.6048
C7D C 0.4263(5) 0.2744(2) 0.5243(2)
C8D C 0.3929(5) 0.2098(3) 0.4985(2)
C9D C 0.4413(6) 0.2661(3) 0.4188(2)
C10D C 0.4607(5) 0.3317(3) 0.4943(2)
O1D O 0.5907(4) 0.4617(2) 0.43141(17)
H1D H 0.559(5) 0.4237(16) 0.417(2)
H2D H 0.660(2) 0.448(3) 0.4467(7)
Co1A Co 1.5000 0.5000 1.0000
O3D O 0.3239(4) 0.48841(19) 0.46197(14)
O10 O 0.1704(4) 0.31752(19) 0.36005(15)
H21 H 0.163(4) 0.3570(16) 0.343(2)
H22 H 0.245(2) 0.304(3) 0.355(2)
O11 O 1.0000 0.3144(4) 0.7500
H23 H 0.946(6) 0.3420(12) 0.734(4)
H23A H 1.054(6) 0.3420(12) 0.766(4)
O12 O 0.5574(7) 0.6585(3) 0.3006(3)
O13 O 0.4363(18) 0.6138(9) 0.6758(8)
O14? O 0.475(2) 0.6761(7) 0.7328(5)
loop_
_geom_bond_atom_site_label_1
_geom_bond_atom_site_label_2
_geom_bond_site_symmetry_1
_geom_bond_site_symmetry_2
Co1 O1 1_555 1_555
Co2 N1 1_555 1_555
Co3 O2 1_555 1_555
O1 H1 1_555 1_555
H2 O1 1_555 1_555
O2 H3 1_555 1_555
H4 O2 1_555 1_555
N1 C1 1_555 1_555
N2 H5 1_555 1_555
N3 C3 1_555 1_555
N4 Co3 1_555 1_555
N5 H6 1_555 1_555
H7 N5 1_555 1_555
N6 H8 1_555 1_555
H9 N6 1_555 1_555
C1 N2 1_555 1_555
H10 C1 1_555 1_555
C2 N2 1_555 1_555
C3 N5 1_555 1_555
C4 N3 1_555 1_555
C5 N1 1_555 1_555
N7 Co1 1_555 1_555
N8 H11 1_555 1_555
N9 C8 1_555 1_555
N10 C9 1_555 1_555
N11 H12 1_555 1_555
H13 N11 1_555 1_555
N12 H14 1_555 1_555
H15 N12 1_555 1_555
C6 N7 1_555 1_555
H16 C6 1_555 1_555
C7 N8 1_555 1_555
C8 N11 1_555 1_555
C9 N9 1_555 1_555
C10 N7 1_555 1_555
C11 C12 1_555 1_555
C12 H17 1_555 1_555
H18 C12 1_555 1_555
C13 C12 1_555 1_555
C14 C13 1_555 1_555
H19 C14 1_555 1_555
H20 C14 1_555 1_555
C15 C14 1_555 1_555
C16 C13 1_555 1_555
O3 Co1 1_555 1_555
O4 C11 1_555 1_555
O5 Co2 1_555 1_555
O6 C15 1_555 1_555
O7 C16 1_555 1_555
O8 C16 1_555 1_555
O9 Co2 1_555 1_555
O10 H21 1_555 1_555
H22 O10 1_555 1_555
O11 H23 1_555 1_555
Co3A O4 1_555 1_555
O2A Co3A 1_555 1_555
H3A O2A 1_555 1_555
H4A O2A 1_555 1_555
N1A Co2 1_555 1_555
N2A H5A 1_555 1_555
N3A C3A 1_555 1_555
N4A Co3A 1_555 1_555
N5A H6A 1_555 1_555
H7A N5A 1_555 1_555
N6A H8A 1_555 1_555
H9A N6A 1_555 1_555
C1A N1A 1_555 1_555
H10A C1A 1_555 1_555
C2A N2A 1_555 1_555
C3A N5A 1_555 1_555
C4A N3A 1_555 1_555
C5A N1A 1_555 1_555
C11A C12A 1_555 1_555
C12A H17A 1_555 1_555
H18A C12A 1_555 1_555
C13A C12A 1_555 1_555
C14A C13A 1_555 1_555
H19A C14A 1_555 1_555
H20A C14A 1_555 1_555
C15A C14A 1_555 1_555
C16A C13A 1_555 1_555
O3A C11A 1_555 1_555
O4A Co3 1_555 1_555
O5A Co2 1_555 1_555
O6A C15A 1_555 1_555
O7A Co3 1_555 1_555
O8A C16A 1_555 1_555
O9A Co2 1_555 1_555
N7D Co1 1_555 1_555
N8D H11D 1_555 1_555
N9D C8D 1_555 1_555
N10D C9D 1_555 1_555
N11D H12D 1_555 1_555
H13D N11D 1_555 1_555
N12D H14D 1_555 1_555
H15D N12D 1_555 1_555
C6D N7D 1_555 1_555
H16D C6D 1_555 1_555
C7D N8D 1_555 1_555
C8D N11D 1_555 1_555
C9D N9D 1_555 1_555
C10D N7D 1_555 1_555
O1D Co1 1_555 1_555
H1D O1D 1_555 1_555
H2D O1D 1_555 1_555
Co1A O3A 1_555 1_555
O3D Co1 1_555 1_555
H23A O11 1_555 1_555
Co3 O5 1_555 1_555
Co3 O9A 1_555 1_555
N4 C4 1_555 1_555
N4 C5 1_555 1_555
N6 C4 1_555 1_555
C2 C3 1_555 1_555
C2 C5 1_555 1_555
N8 C6 1_555 1_555
N10 C10 1_555 1_555
N12 C9 1_555 1_555
C7 C8 1_555 1_555
C7 C10 1_555 1_555
C11 O3 1_555 1_555
C13 O9 1_555 1_555
C15 O5 1_555 1_555
O7 Co3A 1_555 1_555
O9 Co3A 1_555 1_555
Co3A O5A 1_555 1_555
N2A C1A 1_555 1_555
N4A C4A 1_555 1_555
N4A C5A 1_555 1_555
N6A C4A 1_555 1_555
C2A C3A 1_555 1_555
C2A C5A 1_555 1_555
C11A O4A 1_555 1_555
C13A O9A 1_555 1_555
C15A O5A 1_555 1_555
C16A O7A 1_555 1_555
N8D C6D 1_555 1_555
N10D C10D 1_555 1_555
N12D C9D 1_555 1_555
C7D C8D 1_555 1_555
C7D C10D 1_555 1_555

#END
