
#######################################################################
#
#                 Cambridge Crystallographic Data Centre
#                                CCDC 
#
#######################################################################
#
# If this CIF has been generated from an entry in the Cambridge 
# Structural Database, then it will include bibliographic, chemical, 
# crystal, experimental, refinement or atomic coordinate data resulting 
# from the CCDC's data processing and validation procedures.
#
#######################################################################

data_MEYKAC01
_symmetry_cell_setting           orthorhombic
_symmetry_space_group_name_H-M   'P c c n'
_symmetry_Int_Tables_number      56
_space_group_name_Hall           '-P 2ab 2ac'
loop_
_symmetry_equiv_pos_site_id
_symmetry_equiv_pos_as_xyz
1 x,y,z
2 1/2-x,1/2-y,z
3 -x,1/2+y,1/2-z
4 1/2+x,-y,1/2-z
5 -x,-y,-z
6 1/2+x,1/2+y,-z
7 x,1/2-y,1/2+z
8 1/2-x,y,1/2+z
_cell_length_a                   11.685(4)
_cell_length_b                   20.497(7)
_cell_length_c                   6.396(2)
_cell_angle_alpha                90
_cell_angle_beta                 90
_cell_angle_gamma                90
_cell_volume                     1531.89
loop_
_atom_site_label
_atom_site_type_symbol
_atom_site_fract_x
_atom_site_fract_y
_atom_site_fract_z
Cu1 Cu -0.16371(5) 0.63555(3) 0.11077(10)
N1 N -0.0063(3) 0.60944(19) 0.1723(7)
O1 O -0.0936(3) 0.71953(15) 0.0617(6)
O2 O 0.0719(3) 0.77309(17) 0.0902(7)
O3 O 0.0970(3) 0.42459(18) 0.2809(7)
O4 O 0.2782(3) 0.45276(16) 0.3317(6)
O5 O -0.3110(3) 0.66531(18) -0.0015(6)
C1 C 0.0695(4) 0.6587(2) 0.1526(8)
C2 C 0.1849(4) 0.6482(2) 0.1817(9)
H1 H 0.2366 0.6826 0.1720
C3 C 0.2226(4) 0.5858(2) 0.2256(8)
H2 H 0.3004 0.5776 0.2412
C4 C 0.1442(4) 0.5357(2) 0.2462(8)
C5 C 0.0295(4) 0.5502(2) 0.2179(8)
H3 H -0.0241 0.5169 0.2315
C6 C 0.0163(5) 0.7234(2) 0.0998(9)
C7 C 0.1747(4) 0.4654(2) 0.2886(8)
H4 H -0.353(4) 0.642(2) 0.068(9)
H5 H -0.330(4) 0.7039(11) 0.008(9)
Cu1C Cu 0.33629(5) 0.36445(3) 0.38923(10)
Cu1G Cu -0.33629(5) 0.63555(3) -0.38923(10)
O4C O -0.2218(3) 0.54724(16) 0.1683(6)
O5G O -0.1890(3) 0.66531(18) 0.4985(6)
H4G H -0.147(4) 0.642(2) 0.568(9)
H5G H -0.170(4) 0.7039(11) 0.508(9)
loop_
_geom_bond_atom_site_label_1
_geom_bond_atom_site_label_2
_geom_bond_site_symmetry_1
_geom_bond_site_symmetry_2
Cu1 N1 1_555 1_555
N1 C1 1_555 1_555
O1 Cu1 1_555 1_555
O2 C6 1_555 1_555
O3 C7 1_555 1_555
O4 C7 1_555 1_555
O5 Cu1 1_555 1_555
C1 C2 1_555 1_555
C2 H1 1_555 1_555
C3 C2 1_555 1_555
H2 C3 1_555 1_555
C4 C3 1_555 1_555
C5 N1 1_555 1_555
H3 C5 1_555 1_555
C6 O1 1_555 1_555
C7 C4 1_555 1_555
H4 O5 1_555 1_555
H5 O5 1_555 1_555
Cu1C O4 1_555 1_555
Cu1G O5 1_555 1_555
O4C Cu1 1_555 1_555
O5G Cu1 1_555 1_555
H4G O5G 1_555 1_555
H5G O5G 1_555 1_555
C1 C6 1_555 1_555
C4 C5 1_555 1_555

#END
