
#######################################################################
#
#                 Cambridge Crystallographic Data Centre
#                                CCDC 
#
#######################################################################
#
# If this CIF has been generated from an entry in the Cambridge 
# Structural Database, then it will include bibliographic, chemical, 
# crystal, experimental, refinement or atomic coordinate data resulting 
# from the CCDC's data processing and validation procedures.
#
#######################################################################

data_MEYLUZ
_symmetry_cell_setting           monoclinic
_symmetry_space_group_name_H-M   'C 2/c'
_symmetry_Int_Tables_number      15
_space_group_name_Hall           '-C 2yn'
loop_
_symmetry_equiv_pos_site_id
_symmetry_equiv_pos_as_xyz
1 x,y,z
2 -x,y,1/2-z
3 1/2+x,1/2+y,z
4 1/2-x,1/2+y,1/2-z
5 -x,-y,-z
6 x,-y,1/2+z
7 1/2-x,1/2-y,-z
8 1/2+x,1/2-y,1/2+z
_cell_length_a                   5.8362(3)
_cell_length_b                   24.3364(12)
_cell_length_c                   13.8996(7)
_cell_angle_alpha                90
_cell_angle_beta                 96.559(3)
_cell_angle_gamma                90
_cell_volume                     1961.27
loop_
_atom_site_label
_atom_site_type_symbol
_atom_site_fract_x
_atom_site_fract_y
_atom_site_fract_z
Cu1 Cu 0.0000 0.403098(18) 0.7500
N1 N 0.1646(4) 0.33582(8) 0.69228(14)
C1 C 0.0921(4) 0.28613(9) 0.71758(15)
C2 C 0.1888(4) 0.23813(10) 0.68507(17)
H1 H 0.1344 0.2039 0.7019
C3 C 0.3669(4) 0.24195(11) 0.62738(17)
C4 C 0.3352(5) 0.33850(11) 0.63607(19)
H2 H 0.3858 0.3730 0.6191
C5 C 0.4394(5) 0.29338(12) 0.6021(2)
H3 H 0.5570 0.2973 0.5627
N2 N 0.2011(5) 0.44176(12) 0.8470(2)
C6 C 0.3173(5) 0.46451(11) 0.9049(2)
C7 C 0.4870(5) 0.19197(12) 0.5942(2)
O1 O 0.3986(4) 0.14627(9) 0.6206(2)
O2 O 0.6459(5) 0.19470(11) 0.5489(3)
C8 C 0.5043(9) 0.09644(16) 0.5914(4)
H4 H 0.5383 0.1000 0.5250
H5 H 0.3976 0.0661 0.5943
C9 C 0.7256(14) 0.0843(3) 0.6566(5)
H6 H 0.8472 0.1073 0.6385
H7 H 0.7667 0.0464 0.6498
H8 H 0.7027 0.0914 0.7228
Cu2 Cu 0.5000 0.5000 1.0000
N1A N -0.1646(4) 0.33582(8) 0.80772(14)
C1A C -0.0921(4) 0.28613(9) 0.78242(15)
C2A C -0.1888(4) 0.23813(10) 0.81493(17)
H1A H -0.1344 0.2039 0.7981
C3A C -0.3669(4) 0.24195(11) 0.87262(17)
C4A C -0.3352(5) 0.33850(11) 0.86393(19)
H2A H -0.3858 0.3730 0.8809
C5A C -0.4394(5) 0.29338(12) 0.8979(2)
H3A H -0.5570 0.2973 0.9373
C7A C -0.4870(5) 0.19197(12) 0.9058(2)
O1A O -0.3986(4) 0.14627(9) 0.8794(2)
O2A O -0.6459(5) 0.19470(11) 0.9511(3)
C8A C -0.5043(9) 0.09644(16) 0.9086(4)
H4A H -0.5383 0.1000 0.9750
H5A H -0.3976 0.0661 0.9057
C9A C -0.7256(14) 0.0843(3) 0.8434(5)
H6A H -0.8472 0.1073 0.8615
H7A H -0.7667 0.0464 0.8502
H8A H -0.7027 0.0914 0.7772
N2A N -0.2011(5) 0.44176(12) 0.6530(2)
C6A C -0.3173(5) 0.46451(11) 0.5951(2)
C6D C 0.6827(5) 0.53549(11) 1.0951(2)
Cu2A Cu -0.5000 0.5000 0.5000
loop_
_geom_bond_atom_site_label_1
_geom_bond_atom_site_label_2
_geom_bond_site_symmetry_1
_geom_bond_site_symmetry_2
Cu1 N1 1_555 1_555
N1 C1 1_555 1_555
C1 C2 1_555 1_555
C2 H1 1_555 1_555
C3 C2 1_555 1_555
C4 N1 1_555 1_555
H2 C4 1_555 1_555
C5 C3 1_555 1_555
H3 C5 1_555 1_555
N2 Cu1 1_555 1_555
C6 N2 1_555 1_555
C7 C3 1_555 1_555
O1 C7 1_555 1_555
O2 C7 1_555 1_555
C8 O1 1_555 1_555
H4 C8 1_555 1_555
H5 C8 1_555 1_555
C9 C8 1_555 1_555
H6 C9 1_555 1_555
H7 C9 1_555 1_555
H8 C9 1_555 1_555
Cu2 C6 1_555 1_555
N1A Cu1 1_555 1_555
C1A C1 1_555 1_555
C2A C1A 1_555 1_555
H1A C2A 1_555 1_555
C3A C2A 1_555 1_555
C4A N1A 1_555 1_555
H2A C4A 1_555 1_555
C5A C3A 1_555 1_555
H3A C5A 1_555 1_555
C7A C3A 1_555 1_555
O1A C7A 1_555 1_555
O2A C7A 1_555 1_555
C8A O1A 1_555 1_555
H4A C8A 1_555 1_555
H5A C8A 1_555 1_555
C9A C8A 1_555 1_555
H6A C9A 1_555 1_555
H7A C9A 1_555 1_555
H8A C9A 1_555 1_555
N2A Cu1 1_555 1_555
C6A N2A 1_555 1_555
C6D Cu2 1_555 1_555
Cu2A C6A 1_555 1_555
C4 C5 1_555 1_555
N1A C1A 1_555 1_555
C4A C5A 1_555 1_555

#END
