
#######################################################################
#
#                 Cambridge Crystallographic Data Centre
#                                CCDC 
#
#######################################################################
#
# If this CIF has been generated from an entry in the Cambridge 
# Structural Database, then it will include bibliographic, chemical, 
# crystal, experimental, refinement or atomic coordinate data resulting 
# from the CCDC's data processing and validation procedures.
#
#######################################################################

data_MEYMAG
_symmetry_cell_setting           orthorhombic
_symmetry_space_group_name_H-M   'C m c a'
_symmetry_Int_Tables_number      64
_space_group_name_Hall           '-C 2ac 2'
loop_
_symmetry_equiv_pos_site_id
_symmetry_equiv_pos_as_xyz
1 x,y,z
2 -x,1/2-y,1/2+z
3 -x,1/2+y,1/2-z
4 x,-y,-z
5 1/2+x,1/2+y,z
6 1/2-x,-y,1/2+z
7 1/2-x,y,1/2-z
8 1/2+x,1/2-y,-z
9 -x,-y,-z
10 x,1/2+y,1/2-z
11 x,1/2-y,1/2+z
12 -x,y,z
13 1/2-x,1/2-y,-z
14 1/2+x,y,1/2-z
15 1/2+x,-y,1/2+z
16 1/2-x,1/2+y,z
_cell_length_a                   22.0906(5)
_cell_length_b                   8.4465(2)
_cell_length_c                   15.4257(4)
_cell_angle_alpha                90
_cell_angle_beta                 90
_cell_angle_gamma                90
_cell_volume                     2878.25
loop_
_atom_site_label
_atom_site_type_symbol
_atom_site_fract_x
_atom_site_fract_y
_atom_site_fract_z
Cu1 Cu 0.5000 0.10015(3) 0.336978(16)
C1 C 0.5000 -0.0935(2) 0.27641(15)
N1 N 0.5000 -0.2045(2) 0.23423(12)
C2 C 0.33008(7) 0.40998(15) 0.62135(10)
C3 C 0.46631(5) 0.24696(14) 0.50271(9)
C4 C 0.43232(6) 0.32686(16) 0.56498(9)
H1 H 0.4512 0.3827 0.6093
C5 C 0.36941(6) 0.32123(15) 0.55927(9)
C6 C 0.37993(6) 0.15909(18) 0.43390(10)
H2 H 0.3620 0.1008 0.3897
C7 C 0.34281(6) 0.23391(17) 0.49318(10)
H3 H 0.3009 0.2260 0.4889
N2 N 0.44064(5) 0.16646(14) 0.43702(8)
O1 O 0.36299(5) 0.49917(14) 0.67399(8)
O2 O 0.27555(5) 0.40219(13) 0.62242(9)
C8 C 0.33044(8) 0.5988(2) 0.73410(12)
H4 H 0.3048 0.6702 0.7025
H5 H 0.3587 0.6584 0.7682
H6 H 0.3061 0.5341 0.7716
C2K C 0.66992(7) 0.40998(15) 0.62135(10)
C3K C 0.53369(5) 0.24696(14) 0.50271(9)
C4K C 0.56768(6) 0.32686(16) 0.56498(9)
H1K H 0.5488 0.3827 0.6093
C5K C 0.63059(6) 0.32123(15) 0.55927(9)
C6K C 0.62007(6) 0.15909(18) 0.43390(10)
H2K H 0.6380 0.1008 0.3897
C7K C 0.65719(6) 0.23391(17) 0.49318(10)
H3K H 0.6991 0.2260 0.4889
N2K N 0.55936(5) 0.16646(14) 0.43702(8)
O1K O 0.63701(5) 0.49917(14) 0.67399(8)
O2K O 0.72445(5) 0.40219(13) 0.62242(9)
C8K C 0.66956(8) 0.5988(2) 0.73410(12)
H4K H 0.6952 0.6702 0.7025
H5K H 0.6413 0.6584 0.7682
H6K H 0.6939 0.5341 0.7716
Cu1B Cu 0.5000 -0.39985(3) 0.163022(16)
N1B N 0.5000 0.2955(2) 0.26577(12)
loop_
_geom_bond_atom_site_label_1
_geom_bond_atom_site_label_2
_geom_bond_site_symmetry_1
_geom_bond_site_symmetry_2
Cu1 C1 1_555 1_555
C1 N1 1_555 1_555
N1 Cu1B 1_555 1_555
C2 C5 1_555 1_555
C3 C4 1_555 1_555
C4 H1 1_555 1_555
C5 C4 1_555 1_555
C6 H2 1_555 1_555
C7 C5 1_555 1_555
H3 C7 1_555 1_555
N2 Cu1 1_555 1_555
O1 C2 1_555 1_555
O2 C2 1_555 1_555
C8 O1 1_555 1_555
H4 C8 1_555 1_555
H5 C8 1_555 1_555
H6 C8 1_555 1_555
C2K C5K 1_555 1_555
C3K C3 1_555 1_555
C4K C3K 1_555 1_555
H1K C4K 1_555 1_555
C5K C4K 1_555 1_555
C6K H2K 1_555 1_555
C7K C5K 1_555 1_555
H3K C7K 1_555 1_555
N2K Cu1 1_555 1_555
O1K C2K 1_555 1_555
O2K C2K 1_555 1_555
C8K O1K 1_555 1_555
H4K C8K 1_555 1_555
H5K C8K 1_555 1_555
H6K C8K 1_555 1_555
N1B Cu1 1_555 1_555
C3 N2 1_555 1_555
C6 C7 1_555 1_555
C6 N2 1_555 1_555
C3K N2K 1_555 1_555
C6K C7K 1_555 1_555
C6K N2K 1_555 1_555

#END
