
#######################################################################
#
#                 Cambridge Crystallographic Data Centre
#                                CCDC 
#
#######################################################################
#
# If this CIF has been generated from an entry in the Cambridge 
# Structural Database, then it will include bibliographic, chemical, 
# crystal, experimental, refinement or atomic coordinate data resulting 
# from the CCDC's data processing and validation procedures.
#
#######################################################################

data_MEYNEJ
_symmetry_cell_setting           monoclinic
_symmetry_space_group_name_H-M   'P 21/n'
_symmetry_Int_Tables_number      14
_space_group_name_Hall           '-P 2yn'
loop_
_symmetry_equiv_pos_site_id
_symmetry_equiv_pos_as_xyz
1 x,y,z
2 1/2+x,1/2-y,1/2+z
3 -x,-y,-z
4 1/2-x,1/2+y,1/2-z
_cell_length_a                   11.1496(1)
_cell_length_b                   11.9034(2)
_cell_length_c                   20.6542(2)
_cell_angle_alpha                90
_cell_angle_beta                 99.227(1)
_cell_angle_gamma                90
_cell_volume                     2705.72
loop_
_atom_site_label
_atom_site_type_symbol
_atom_site_fract_x
_atom_site_fract_y
_atom_site_fract_z
Cu1 Cu -0.00222(6) 0.61915(5) 0.24754(3)
O1 O 0.0847(3) 0.6706(3) 0.1798(2)
O2 O -0.1295(3) 0.5645(3) 0.1811(2)
O3 O -0.0915(3) 0.5686(3) 0.3142(2)
O4 O 0.1281(3) 0.6724(3) 0.3130(2)
N1 N 0.4126(6) 0.9183(5) 0.2440(3)
N2 N -0.4136(6) 0.3166(5) 0.2502(3)
C1 C 0.2888(5) 0.7759(5) 0.3728(3)
C2 C 0.2361(6) 0.7234(6) 0.4297(3)
H1 H 0.1539(6) 0.7484(6) 0.4283(3)
H2 H 0.2839(6) 0.7459(6) 0.4705(3)
H3 H 0.2375(6) 0.6431(6) 0.4260(3)
C3 C 0.2823(7) 0.9049(5) 0.3802(3)
H4 H 0.3148(7) 0.9404(5) 0.3450(3)
H5 H 0.3289(7) 0.9271(5) 0.4214(3)
H6 H 0.1992(7) 0.9274(5) 0.3787(3)
C4 C 0.4204(6) 0.7358(6) 0.3757(3)
H7 H 0.4542(6) 0.7687(6) 0.3402(3)
H8 H 0.4217(6) 0.6555(6) 0.3720(3)
H9 H 0.4676(6) 0.7582(6) 0.4167(3)
C5 C 0.2131(5) 0.7394(4) 0.3074(3)
C6 C 0.2368(4) 0.7763(4) 0.2449(2)
C7 C 0.1719(5) 0.7385(4) 0.1835(2)
C8 C 0.2022(5) 0.7761(4) 0.1172(3)
C9 C 0.3305(6) 0.7362(6) 0.1088(3)
H10 H 0.3894(6) 0.7680(6) 0.1429(3)
H11 H 0.3477(6) 0.7600(6) 0.0669(3)
H12 H 0.3342(6) 0.6557(6) 0.1114(3)
C10 C 0.1919(7) 0.9048(5) 0.1103(3)
H13 H 0.2482(7) 0.9398(5) 0.1444(3)
H14 H 0.1107(7) 0.9278(5) 0.1139(3)
H15 H 0.2105(7) 0.9271(5) 0.0683(3)
C11 C 0.1115(6) 0.7241(6) 0.0618(3)
H16 H 0.1305(6) 0.7481(6) 0.0203(3)
H17 H 0.0307(6) 0.7479(6) 0.0658(3)
H18 H 0.1163(6) 0.6437(6) 0.0647(3)
C12 C 0.3338(6) 0.8553(5) 0.2441(3)
C13 C -0.2076(5) 0.4572(5) 0.3764(3)
C14 C -0.1914(7) 0.3286(5) 0.3822(3)
H19 H -0.2462(7) 0.2926(5) 0.3478(3)
H20 H -0.2087(7) 0.3042(5) 0.4240(3)
H21 H -0.1093(7) 0.3092(5) 0.3783(3)
C15 C -0.1198(6) 0.5121(6) 0.4318(3)
H22 H -0.1286(6) 0.5922(6) 0.4290(3)
H23 H -0.0379(6) 0.4919(6) 0.4278(3)
H24 H -0.1377(6) 0.4865(6) 0.4733(3)
C16 C -0.3374(6) 0.4940(6) 0.3843(3)
H25 H -0.3951(6) 0.4607(6) 0.3502(3)
H26 H -0.3435(6) 0.5744(6) 0.3813(3)
H27 H -0.3543(6) 0.4699(6) 0.4263(3)
C17 C -0.1774(5) 0.4987(4) 0.3097(3)
C18 C -0.2409(5) 0.4598(4) 0.2485(3)
C19 C -0.2148(5) 0.4973(4) 0.1865(3)
C20 C -0.2881(5) 0.4583(5) 0.1207(3)
C21 C -0.2352(6) 0.5122(6) 0.0639(3)
H28 H -0.2384(6) 0.5925(6) 0.0675(3)
H29 H -0.2818(6) 0.4890(6) 0.0229(3)
H30 H -0.1523(6) 0.4889(6) 0.0657(3)
C22 C -0.4210(6) 0.4983(6) 0.1159(3)
H31 H -0.4565(6) 0.4658(6) 0.1509(3)
H32 H -0.4665(6) 0.4754(6) 0.0745(3)
H33 H -0.4228(6) 0.5787(6) 0.1192(3)
C23 C -0.2814(7) 0.3300(5) 0.1128(3)
H34 H -0.3141(7) 0.2939(5) 0.1477(3)
H35 H -0.1982(7) 0.3078(5) 0.1143(3)
H36 H -0.3277(7) 0.3083(5) 0.0714(3)
C24 C -0.3372(6) 0.3811(5) 0.2494(3)
N1C N 0.0874(6) 0.4183(5) 0.2560(3)
N2C N -0.0864(6) 0.8166(5) 0.2498(3)
Cu1C Cu 0.50222(6) 1.11915(5) 0.25246(3)
Cu1C_2 Cu -0.49778(6) 0.11915(5) 0.25246(3)
loop_
_geom_bond_atom_site_label_1
_geom_bond_atom_site_label_2
_geom_bond_site_symmetry_1
_geom_bond_site_symmetry_2
Cu1 O1 1_555 1_555
O1 C7 1_555 1_555
O2 Cu1 1_555 1_555
O3 Cu1 1_555 1_555
O4 Cu1 1_555 1_555
N1 C12 1_555 1_555
N2 C24 1_555 1_555
C1 C2 1_555 1_555
C2 H1 1_555 1_555
H2 C2 1_555 1_555
H3 C2 1_555 1_555
C3 C1 1_555 1_555
H4 C3 1_555 1_555
H5 C3 1_555 1_555
H6 C3 1_555 1_555
C4 C1 1_555 1_555
H7 C4 1_555 1_555
H8 C4 1_555 1_555
H9 C4 1_555 1_555
C5 O4 1_555 1_555
C6 C5 1_555 1_555
C7 C6 1_555 1_555
C8 C7 1_555 1_555
C9 C8 1_555 1_555
H10 C9 1_555 1_555
H11 C9 1_555 1_555
H12 C9 1_555 1_555
C10 C8 1_555 1_555
H13 C10 1_555 1_555
H14 C10 1_555 1_555
H15 C10 1_555 1_555
C11 C8 1_555 1_555
H16 C11 1_555 1_555
H17 C11 1_555 1_555
H18 C11 1_555 1_555
C12 C6 1_555 1_555
C13 C14 1_555 1_555
C14 H19 1_555 1_555
H20 C14 1_555 1_555
H21 C14 1_555 1_555
C15 C13 1_555 1_555
H22 C15 1_555 1_555
H23 C15 1_555 1_555
H24 C15 1_555 1_555
C16 C13 1_555 1_555
H25 C16 1_555 1_555
H26 C16 1_555 1_555
H27 C16 1_555 1_555
C17 O3 1_555 1_555
C18 C17 1_555 1_555
C19 O2 1_555 1_555
C20 C19 1_555 1_555
C21 C20 1_555 1_555
H28 C21 1_555 1_555
H29 C21 1_555 1_555
H30 C21 1_555 1_555
C22 C20 1_555 1_555
H31 C22 1_555 1_555
H32 C22 1_555 1_555
H33 C22 1_555 1_555
C23 C20 1_555 1_555
H34 C23 1_555 1_555
H35 C23 1_555 1_555
H36 C23 1_555 1_555
C24 C18 1_555 1_555
N1C Cu1 1_555 1_555
N2C Cu1 1_555 1_555
Cu1C N1 1_555 1_555
Cu1C_2 N2 1_555 1_555
C1 C5 1_555 1_555
C13 C17 1_555 1_555
C18 C19 1_555 1_555

#END
