
#######################################################################
#
#                 Cambridge Crystallographic Data Centre
#                                CCDC 
#
#######################################################################
#
# If this CIF has been generated from an entry in the Cambridge 
# Structural Database, then it will include bibliographic, chemical, 
# crystal, experimental, refinement or atomic coordinate data resulting 
# from the CCDC's data processing and validation procedures.
#
#######################################################################

data_MEYVOB
_symmetry_cell_setting           orthorhombic
_symmetry_space_group_name_H-M   'P 21 21 21'
_symmetry_Int_Tables_number      19
_space_group_name_Hall           'P 2ac 2ab'
loop_
_symmetry_equiv_pos_site_id
_symmetry_equiv_pos_as_xyz
1 x,y,z
2 1/2-x,-y,1/2+z
3 -x,1/2+y,1/2-z
4 1/2+x,1/2-y,-z
_cell_length_a                   11.3920(6)
_cell_length_b                   15.0023(9)
_cell_length_c                   23.3490(8)
_cell_angle_alpha                90
_cell_angle_beta                 90
_cell_angle_gamma                90
_cell_volume                     3990.49
loop_
_atom_site_label
_atom_site_type_symbol
_atom_site_fract_x
_atom_site_fract_y
_atom_site_fract_z
Cu1 Cu 0.51451(5) 0.62599(5) 0.24159(2)
N1 N 0.6602(3) 0.6226(4) 0.29018(15)
C1 C 0.7688(4) 0.6269(5) 0.2679(2)
H1 H 0.7762 0.6292 0.2283
C2 C 0.8685(4) 0.6281(5) 0.29998(18)
H2 H 0.9416 0.6288 0.2823
C3 C 0.8603(4) 0.6284(5) 0.3599(2)
C4 C 0.7481(4) 0.6204(5) 0.38280(19)
H3 H 0.7379 0.6160 0.4222
C5 C 0.6529(4) 0.6191(4) 0.3472(2)
H4 H 0.5787 0.6156 0.3637
C6 C 0.9642(5) 0.6350(5) 0.39590(19)
N2 N 1.0770(3) 0.6270(5) 0.37957(16)
O1 O 1.1119(3) 0.6034(4) 0.33001(15)
N3 N 0.9624(4) 0.6544(3) 0.45312(17)
O2 O 0.8721(4) 0.6666(4) 0.48382(16)
C7 C 1.1606(5) 0.6618(4) 0.4243(2)
C8 C 1.0823(5) 0.6525(4) 0.4788(2)
C9 C 1.2744(5) 0.6108(6) 0.4240(3)
H5 H 1.2600 0.5502 0.4352
H6 H 1.3283 0.6378 0.4505
H7 H 1.3075 0.6119 0.3862
C10 C 1.1845(6) 0.7580(4) 0.4064(3)
H8 H 1.1123 0.7910 0.4067
H9 H 1.2175 0.7588 0.3686
H10 H 1.2388 0.7846 0.4328
C11 C 1.0934(6) 0.7272(5) 0.5217(2)
H11 H 1.0845 0.7834 0.5025
H12 H 1.1693 0.7246 0.5395
H13 H 1.0336 0.7211 0.5504
C12 C 1.0959(7) 0.5621(5) 0.5080(3)
H14 H 1.0890 0.5156 0.4801
H15 H 1.0358 0.5552 0.5365
H16 H 1.1716 0.5588 0.5260
N4 N 0.3697(3) 0.6293(4) 0.19242(15)
C13 C 0.3770(4) 0.6264(5) 0.13554(19)
H17 H 0.4513 0.6255 0.1191
C14 C 0.2812(4) 0.6246(5) 0.09962(19)
H18 H 0.2914 0.6214 0.0602
C15 C 0.1700(4) 0.6277(4) 0.12282(18)
C16 C 0.1614(5) 0.6291(5) 0.1826(2)
H19 H 0.0882 0.6292 0.2003
C17 C 0.2624(5) 0.6302(4) 0.2150(2)
H20 H 0.2553 0.6318 0.2547
C18 C 0.0664(4) 0.6223(6) 0.08669(19)
N5 N 0.0664(4) 0.6046(4) 0.02924(19)
O3 O 0.1555(4) 0.5919(4) -0.00225(17)
N6 N -0.0472(4) 0.6302(5) 0.10342(17)
O4 O -0.0817(4) 0.6517(4) 0.15367(16)
C19 C -0.0545(5) 0.6094(5) 0.0039(2)
C20 C -0.1325(5) 0.6031(4) 0.0577(2)
C21 C -0.0601(7) 0.7002(5) -0.0256(3)
H21 H -0.0486 0.7465 0.0022
H22 H -0.1355 0.7075 -0.0434
H23 H 0.0002 0.7038 -0.0543
C22 C -0.0715(7) 0.5360(5) -0.0399(3)
H24 H -0.0681 0.4791 -0.0211
H25 H -0.0106 0.5395 -0.0682
H26 H -0.1465 0.5430 -0.0580
C23 C -0.2379(6) 0.6626(6) 0.0597(3)
H27 H -0.2150 0.7225 0.0507
H28 H -0.2716 0.6609 0.0974
H29 H -0.2948 0.6424 0.0323
C24 C -0.1698(7) 0.5079(5) 0.0720(3)
H30 H -0.1024 0.4695 0.0709
H31 H -0.2266 0.4879 0.0445
H32 H -0.2037 0.5065 0.1097
N7 N 0.4357(5) 0.5213(4) 0.2938(3)
C25 C 0.4047(7) 0.4556(5) 0.3103(3)
N8 N 0.5521(7) 0.3744(6) 0.1500(2)
C26 C 0.5738(6) 0.4513(5) 0.1716(2)
N9 N 0.5883(6) 0.5207(4) 0.1852(3)
N10 N 0.5576(6) 0.2300(4) 0.2008(3)
C27 C 0.5557(7) 0.3002(6) 0.1793(3)
N11 N 0.3577(7) 0.3852(5) 0.3317(3)
C28 C 0.3890(6) 0.3060(6) 0.3185(3)
N12 N 0.4095(6) 0.2314(5) 0.3113(3)
N10B N 0.4424(6) 0.7300(4) 0.2992(3)
N12B N 0.5905(6) 0.7314(5) 0.1887(3)
Cu1B Cu 0.48549(5) 0.12599(5) 0.25841(2)
N13 N 0.8925(9) 0.3785(8) 0.4214(4)
C29 C 0.9784(9) 0.3787(7) 0.3978(4)
C30 C 1.0880(8) 0.3798(7) 0.3661(4)
H33 H 1.0886 0.4297 0.3404
H34 H 1.0955 0.3255 0.3446
H35 H 1.1525 0.3848 0.3923
N14 N 0.1149(7) 0.3845(7) 0.0885(3)
C32 C 0.2194(10) 0.3761(9) 0.1840(4)
H36 H 0.2501 0.3171 0.1896
H37 H 0.1671 0.3907 0.2148
H38 H 0.2829 0.4181 0.1831
C33 C 0.1569(7) 0.3795(7) 0.1308(4)
N15 N 0.9095(13) 0.3608(9) 0.2404(6)
C31 C 0.8175(11) 0.3703(8) 0.2664(5)
C34 C 0.7201(9) 0.3788(8) 0.3020(4)
H39 H 0.6635 0.3336 0.2926
H40 H 0.6855 0.4366 0.2968
H41 H 0.7439 0.3719 0.3412
loop_
_geom_bond_atom_site_label_1
_geom_bond_atom_site_label_2
_geom_bond_site_symmetry_1
_geom_bond_site_symmetry_2
Cu1 N1 1_555 1_555
N1 C1 1_555 1_555
C1 H1 1_555 1_555
C2 C1 1_555 1_555
H2 C2 1_555 1_555
C3 C2 1_555 1_555
C4 C3 1_555 1_555
H3 C4 1_555 1_555
C5 N1 1_555 1_555
H4 C5 1_555 1_555
C6 C3 1_555 1_555
N2 C6 1_555 1_555
O1 N2 1_555 1_555
N3 C6 1_555 1_555
O2 N3 1_555 1_555
C7 N2 1_555 1_555
C8 N3 1_555 1_555
C9 C7 1_555 1_555
H5 C9 1_555 1_555
H6 C9 1_555 1_555
H7 C9 1_555 1_555
C10 C7 1_555 1_555
H8 C10 1_555 1_555
H9 C10 1_555 1_555
H10 C10 1_555 1_555
C11 C8 1_555 1_555
H11 C11 1_555 1_555
H12 C11 1_555 1_555
H13 C11 1_555 1_555
C12 C8 1_555 1_555
H14 C12 1_555 1_555
H15 C12 1_555 1_555
H16 C12 1_555 1_555
N4 Cu1 1_555 1_555
C13 N4 1_555 1_555
H17 C13 1_555 1_555
C14 C13 1_555 1_555
H18 C14 1_555 1_555
C15 C14 1_555 1_555
C16 C15 1_555 1_555
H19 C16 1_555 1_555
C17 N4 1_555 1_555
H20 C17 1_555 1_555
C18 C15 1_555 1_555
N5 C18 1_555 1_555
O3 N5 1_555 1_555
N6 C18 1_555 1_555
O4 N6 1_555 1_555
C19 N5 1_555 1_555
C20 N6 1_555 1_555
C21 C19 1_555 1_555
H21 C21 1_555 1_555
H22 C21 1_555 1_555
H23 C21 1_555 1_555
C22 C19 1_555 1_555
H24 C22 1_555 1_555
H25 C22 1_555 1_555
H26 C22 1_555 1_555
C23 C20 1_555 1_555
H27 C23 1_555 1_555
H28 C23 1_555 1_555
H29 C23 1_555 1_555
C24 C20 1_555 1_555
H30 C24 1_555 1_555
H31 C24 1_555 1_555
H32 C24 1_555 1_555
N7 Cu1 1_555 1_555
C25 N7 1_555 1_555
N8 C26 1_555 1_555
C26 N9 1_555 1_555
N9 Cu1 1_555 1_555
N10 C27 1_555 1_555
C27 N8 1_555 1_555
N11 C25 1_555 1_555
C28 N11 1_555 1_555
N12 C28 1_555 1_555
N13 C29 1_555 1_555
N14 C33 1_555 1_555
N15 C31 1_555 1_555
C29 C30 1_555 1_555
C30 H33 1_555 1_555
H34 C30 1_555 1_555
H35 C30 1_555 1_555
C31 C34 1_555 1_555
C32 H36 1_555 1_555
H37 C32 1_555 1_555
H38 C32 1_555 1_555
C33 C32 1_555 1_555
C34 H39 1_555 1_555
H40 C34 1_555 1_555
H41 C34 1_555 1_555
N10B Cu1 1_555 1_555
N12B Cu1 1_555 1_555
Cu1B N10 1_555 1_555
C4 C5 1_555 1_555
C7 C8 1_555 1_555
C16 C17 1_555 1_555
C19 C20 1_555 1_555
N12 Cu1B 1_555 1_555

#END
