
#######################################################################
#
#                 Cambridge Crystallographic Data Centre
#                                CCDC 
#
#######################################################################
#
# If this CIF has been generated from an entry in the Cambridge 
# Structural Database, then it will include bibliographic, chemical, 
# crystal, experimental, refinement or atomic coordinate data resulting 
# from the CCDC's data processing and validation procedures.
#
#######################################################################

data_MEYWUI
_symmetry_cell_setting           triclinic
_symmetry_space_group_name_H-M   'P -1'
_symmetry_Int_Tables_number      2
_space_group_name_Hall           '-P 1'
loop_
_symmetry_equiv_pos_site_id
_symmetry_equiv_pos_as_xyz
1 x,y,z
2 -x,-y,-z
_cell_length_a                   9.105(2)
_cell_length_b                   12.472(3)
_cell_length_c                   17.450(4)
_cell_angle_alpha                97.639(4)
_cell_angle_beta                 96.240(5)
_cell_angle_gamma                97.378(5)
_cell_volume                     1931.72
loop_
_atom_site_label
_atom_site_type_symbol
_atom_site_fract_x
_atom_site_fract_y
_atom_site_fract_z
Nd1 Nd 0.32921(3) 1.02380(2) 0.244067(14)
O1 O 0.5772(4) 1.1025(3) 0.3134(2)
O2 O 0.3608(4) 0.9120(3) 0.3489(2)
O3 O 1.0872(4) 0.9362(3) 0.2659(2)
O4 O 0.1963(4) 0.9376(4) 0.1150(2)
O5 O 0.4710(4) 1.1021(4) 0.1510(2)
S1 S 0.1717(3) 1.2434(3) 0.49477(14)
S2 S 0.6456(3) 0.7448(2) 0.11096(14)
S3 S -0.0087(3) 1.32027(18) 0.17746(15)
S4 S 0.71216(16) 1.15929(13) 0.28307(9)
S5 S 0.48906(15) 0.87762(12) 0.39730(9)
S6 S 1.01231(17) 0.91931(14) 0.33797(9)
S7 S 0.03348(19) 0.89448(18) 0.08890(10)
S8 S 0.44394(16) 1.14129(13) 0.07295(8)
N1 N 0.2748(6) 1.1429(5) 0.3640(3)
N2 N 0.4807(6) 0.8769(5) 0.1967(3)
N3 N 0.1807(7) 1.1674(5) 0.1984(3)
C1 C 0.2329(7) 1.1859(6) 0.4174(4)
C2 C 0.5488(7) 0.8202(5) 0.1625(3)
C3 C 0.1039(7) 1.2319(5) 0.1906(3)
C4 C 0.8411(8) 1.0595(8) 0.2775(5)
H1 H 0.7968 0.9986 0.2378
H2 H 0.9314 1.0929 0.2601
C5 C 0.8027(9) 1.2567(7) 0.3637(5)
H3 H 0.8193 1.2199 0.4088
H4 H 0.8994 1.2874 0.3516
C6 C 0.7163(13) 1.3456(7) 0.3831(7)
H5 H 0.6206 1.3148 0.3963
H6 H 0.6973 1.3809 0.3375
C7 C 0.7931(17) 1.4312(8) 0.4504(7)
H7 H 0.7323 1.4880 0.4591
H8 H 0.8883 1.4620 0.4380
H9 H 0.8074 1.3978 0.4966
C8 C 0.4738(7) 0.9388(5) 0.4951(3)
H10 H 0.3708 0.9257 0.5052
H11 H 0.5343 0.9061 0.5322
C9 C 0.4270(8) 0.7387(5) 0.4070(4)
H12 H 0.4938 0.7161 0.4470
H13 H 0.3280 0.7330 0.4232
C10 C 0.4227(11) 0.6631(6) 0.3304(5)
H14 H 0.3591 0.6874 0.2899
H15 H 0.5224 0.6665 0.3153
C11 C 0.3637(16) 0.5454(7) 0.3379(7)
H16 H 0.3631 0.4994 0.2891
H17 H 0.2640 0.5416 0.3514
H18 H 0.4269 0.5211 0.3778
C12 C 0.8840(9) 1.0157(7) 0.3498(5)
H19 H 0.7949 0.9806 0.3672
H20 H 0.9290 1.0758 0.3900
C13 C 0.8903(8) 0.7937(5) 0.3096(5)
H21 H 0.8132 0.7890 0.3437
H22 H 0.8425 0.7904 0.2567
C14 C 0.9778(11) 0.6991(7) 0.3142(6)
H23 H 1.0581 0.7060 0.2821
H24 H 1.0218 0.7007 0.3676
C15 C 0.8824(18) 0.5971(9) 0.2879(9)
H25 H 0.9392 0.5379 0.2918
H26 H 0.8410 0.5949 0.2346
H27 H 0.8030 0.5904 0.3197
C16 C -0.0073(9) 0.9407(7) -0.0042(5)
H28 H 0.0607 0.9151 -0.0393
H29 H -0.1082 0.9096 -0.0270
C17 C 0.0324(13) 0.7547(9) 0.0512(7)
H30 H -0.0692 0.7212 0.0317
H31 H 0.0910 0.7499 0.0079
C18 C 0.092(3) 0.6967(12) 0.1096(11)
H32 H 0.1817 0.7420 0.1376
H33 H 0.0206 0.6891 0.1464
C19 C 0.128(2) 0.5978(16) 0.0870(13)
H34 H 0.1751 0.5713 0.1311
H35 H 0.1947 0.6024 0.0484
H36 H 0.0386 0.5486 0.0653
C20 C 0.5428(7) 1.0568(5) 0.0103(3)
H37 H 0.5552 1.0885 -0.0368
H38 H 0.6412 1.0537 0.0368
C21 C 0.5717(9) 1.2670(6) 0.0834(4)
H39 H 0.6701 1.2551 0.1048
H40 H 0.5791 1.2888 0.0324
C22 C 0.5208(14) 1.3584(7) 0.1364(6)
H41 H 0.4499 1.3232 0.1662
H42 H 0.6073 1.3914 0.1733
C23 C 0.468(4) 1.4296(16) 0.1146(12)
H43 H 0.4523 1.4803 0.1585
H44 H 0.3736 1.4016 0.0836
H45 H 0.5330 1.4663 0.0836
C8A C 0.5262(7) 1.0612(5) 0.5049(3)
S5A S 0.51094(15) 1.12238(12) 0.60270(9)
O2A O 0.6392(4) 1.0880(3) 0.6511(2)
C9A C 0.5730(8) 1.2613(5) 0.5930(4)
H12A H 0.5062 1.2839 0.5530
H13A H 0.6720 1.2670 0.5768
C10A C 0.5773(11) 1.3369(6) 0.6696(5)
H14A H 0.6409 1.3126 0.7101
H15A H 0.4776 1.3335 0.6847
C11A C 0.6363(16) 1.4546(7) 0.6621(7)
H16A H 0.6369 1.5006 0.7109
H17A H 0.7360 1.4584 0.6486
H18A H 0.5731 1.4789 0.6222
H10A H 0.6292 1.0743 0.4948
H11A H 0.4657 1.0939 0.4678
C16A C 0.0073(9) 1.0593(7) 0.0042(5)
S7A S -0.03348(19) 1.10552(18) -0.08890(10)
O4A O -0.1963(4) 1.0624(4) -0.1150(2)
C17A C -0.0324(13) 1.2453(9) -0.0512(7)
H30A H 0.0692 1.2788 -0.0317
H31A H -0.0910 1.2501 -0.0079
C18A C -0.092(3) 1.3033(12) -0.1096(11)
H32A H -0.1817 1.2580 -0.1376
H33A H -0.0206 1.3109 -0.1464
C19A C -0.128(2) 1.4022(16) -0.0870(13)
H34A H -0.1751 1.4287 -0.1311
H35A H -0.1947 1.3976 -0.0484
H36A H -0.0386 1.4514 -0.0653
H28A H -0.0607 1.0849 0.0393
H29A H 0.1082 1.0904 0.0270
C20A C 0.4572(7) 0.9432(5) -0.0103(3)
S8A S 0.55606(16) 0.85871(13) -0.07295(8)
O5A O 0.5290(4) 0.8979(4) -0.1510(2)
C21A C 0.4283(9) 0.7330(6) -0.0834(4)
H39A H 0.3299 0.7449 -0.1048
H40A H 0.4209 0.7112 -0.0324
C22A C 0.4792(14) 0.6416(7) -0.1364(6)
H41A H 0.5501 0.6768 -0.1662
H42A H 0.3927 0.6086 -0.1733
C23A C 0.532(4) 0.5704(16) -0.1146(12)
H43A H 0.5477 0.5197 -0.1585
H44A H 0.6264 0.5984 -0.0836
H45A H 0.4670 0.5337 -0.0836
H37A H 0.4448 0.9115 0.0368
H38A H 0.3588 0.9463 -0.0368
O1_2 O -0.4228(4) 1.1025(3) 0.3134(2)
O3_2 O 0.0872(4) 0.9362(3) 0.2659(2)
S4_2 S -0.28784(16) 1.15929(13) 0.28307(9)
S6_2 S 0.01231(17) 0.91931(14) 0.33797(9)
C4_2 C -0.1589(8) 1.0595(8) 0.2775(5)
H1_2 H -0.2032 0.9986 0.2378
H2_2 H -0.0686 1.0929 0.2601
C5_2 C -0.1973(9) 1.2567(7) 0.3637(5)
H3_2 H -0.1807 1.2199 0.4088
H4_2 H -0.1006 1.2874 0.3516
C6_2 C -0.2837(13) 1.3456(7) 0.3831(7)
H5_2 H -0.3794 1.3148 0.3963
H6_2 H -0.3027 1.3809 0.3375
C7_2 C -0.2069(17) 1.4312(8) 0.4504(7)
H7_2 H -0.2677 1.4880 0.4591
H8_2 H -0.1117 1.4620 0.4380
H9_2 H -0.1926 1.3978 0.4966
C12_2 C -0.1160(9) 1.0157(7) 0.3498(5)
H19_2 H -0.2051 0.9806 0.3672
H20_2 H -0.0710 1.0758 0.3900
C13_2 C -0.1097(8) 0.7937(5) 0.3096(5)
H21_2 H -0.1868 0.7890 0.3437
H22_2 H -0.1575 0.7904 0.2567
C14_2 C -0.0222(11) 0.6991(7) 0.3142(6)
H23_2 H 0.0581 0.7060 0.2821
H24_2 H 0.0218 0.7007 0.3676
C15_2 C -0.1176(18) 0.5971(9) 0.2879(9)
H25_2 H -0.0608 0.5379 0.2918
H26_2 H -0.1590 0.5949 0.2346
H27_2 H -0.1970 0.5904 0.3197
Nd1_2 Nd -0.67079(3) 1.02380(2) 0.244067(14)
Nd1_3 Nd 1.32921(3) 1.02380(2) 0.244067(14)
Nd1A Nd 0.67079(3) 0.97620(2) 0.755933(14)
Nd1A_2 Nd -0.32921(3) 0.97620(2) -0.244067(14)
Nd1A_3 Nd 0.67079(3) 0.97620(2) -0.244067(14)
O2_2 O -0.6392(4) 0.9120(3) 0.3489(2)
O3_3 O -0.9128(4) 0.9362(3) 0.2659(2)
O4_2 O -0.8037(4) 0.9376(4) 0.1150(2)
O5_2 O -0.5290(4) 1.1021(4) 0.1510(2)
N1_2 N -0.7252(6) 1.1429(5) 0.3640(3)
N2_2 N -0.5193(6) 0.8769(5) 0.1967(3)
N3_2 N -0.8193(7) 1.1674(5) 0.1984(3)
C2_2 C -0.4512(7) 0.8202(5) 0.1625(3)
C3_2 C -0.8961(7) 1.2319(5) 0.1906(3)
C1_2 C -0.7671(7) 1.1859(6) 0.4174(4)
S2_2 S -0.3544(3) 0.7448(2) 0.11096(14)
S3_2 S -1.0087(3) 1.32027(18) 0.17746(15)
S1_2 S -0.8283(3) 1.2434(3) 0.49477(14)
loop_
_geom_bond_atom_site_label_1
_geom_bond_atom_site_label_2
_geom_bond_site_symmetry_1
_geom_bond_site_symmetry_2
Nd1 O1 1_555 1_555
O1 S4 1_555 1_555
O2 Nd1 1_555 1_555
O3 S6 1_555 1_555
O4 Nd1 1_555 1_555
O5 Nd1 1_555 1_555
S1 C1 1_555 1_555
S2 C2 1_555 1_555
S3 C3 1_555 1_555
S4 C4 1_555 1_555
S5 O2 1_555 1_555
S6 C12 1_555 1_555
S7 O4 1_555 1_555
S8 O5 1_555 1_555
N1 Nd1 1_555 1_555
N2 Nd1 1_555 1_555
N3 Nd1 1_555 1_555
C1 N1 1_555 1_555
C2 N2 1_555 1_555
C3 N3 1_555 1_555
C4 H1 1_555 1_555
H2 C4 1_555 1_555
C5 S4 1_555 1_555
H3 C5 1_555 1_555
H4 C5 1_555 1_555
C6 C5 1_555 1_555
H5 C6 1_555 1_555
H6 C6 1_555 1_555
C7 C6 1_555 1_555
H7 C7 1_555 1_555
H8 C7 1_555 1_555
H9 C7 1_555 1_555
C8 S5 1_555 1_555
H10 C8 1_555 1_555
H11 C8 1_555 1_555
C9 S5 1_555 1_555
H12 C9 1_555 1_555
H13 C9 1_555 1_555
C10 C9 1_555 1_555
H14 C10 1_555 1_555
H15 C10 1_555 1_555
C11 C10 1_555 1_555
H16 C11 1_555 1_555
H17 C11 1_555 1_555
H18 C11 1_555 1_555
C12 C4 1_555 1_555
H19 C12 1_555 1_555
H20 C12 1_555 1_555
C13 S6 1_555 1_555
H21 C13 1_555 1_555
H22 C13 1_555 1_555
C14 C13 1_555 1_555
H23 C14 1_555 1_555
H24 C14 1_555 1_555
C15 C14 1_555 1_555
H25 C15 1_555 1_555
H26 C15 1_555 1_555
H27 C15 1_555 1_555
C16 S7 1_555 1_555
H28 C16 1_555 1_555
H29 C16 1_555 1_555
C17 S7 1_555 1_555
H30 C17 1_555 1_555
H31 C17 1_555 1_555
C18 C17 1_555 1_555
H32 C18 1_555 1_555
H33 C18 1_555 1_555
C19 C18 1_555 1_555
H34 C19 1_555 1_555
H35 C19 1_555 1_555
H36 C19 1_555 1_555
C20 S8 1_555 1_555
H37 C20 1_555 1_555
H38 C20 1_555 1_555
C21 S8 1_555 1_555
H39 C21 1_555 1_555
H40 C21 1_555 1_555
C22 C21 1_555 1_555
H41 C22 1_555 1_555
H42 C22 1_555 1_555
C23 C22 1_555 1_555
H43 C23 1_555 1_555
H44 C23 1_555 1_555
H45 C23 1_555 1_555
C8A C8 1_555 1_555
S5A C8A 1_555 1_555
O2A S5A 1_555 1_555
C9A S5A 1_555 1_555
H12A C9A 1_555 1_555
H13A C9A 1_555 1_555
C10A C9A 1_555 1_555
H14A C10A 1_555 1_555
H15A C10A 1_555 1_555
C11A C10A 1_555 1_555
H16A C11A 1_555 1_555
H17A C11A 1_555 1_555
H18A C11A 1_555 1_555
H10A C8A 1_555 1_555
H11A C8A 1_555 1_555
C16A C16 1_555 1_555
S7A C16A 1_555 1_555
O4A S7A 1_555 1_555
C17A S7A 1_555 1_555
H30A C17A 1_555 1_555
H31A C17A 1_555 1_555
C18A C17A 1_555 1_555
H32A C18A 1_555 1_555
H33A C18A 1_555 1_555
C19A C18A 1_555 1_555
H34A C19A 1_555 1_555
H35A C19A 1_555 1_555
H36A C19A 1_555 1_555
H28A C16A 1_555 1_555
H29A C16A 1_555 1_555
C20A C20 1_555 1_555
S8A C20A 1_555 1_555
O5A S8A 1_555 1_555
C21A S8A 1_555 1_555
H39A C21A 1_555 1_555
H40A C21A 1_555 1_555
C22A C21A 1_555 1_555
H41A C22A 1_555 1_555
H42A C22A 1_555 1_555
C23A C22A 1_555 1_555
H43A C23A 1_555 1_555
H44A C23A 1_555 1_555
H45A C23A 1_555 1_555
H37A C20A 1_555 1_555
H38A C20A 1_555 1_555
O1_2 S4_2 1_555 1_555
O3_2 Nd1 1_555 1_555
S4_2 C4_2 1_555 1_555
S6_2 O3_2 1_555 1_555
C4_2 H1_2 1_555 1_555
H2_2 C4_2 1_555 1_555
C5_2 S4_2 1_555 1_555
H3_2 C5_2 1_555 1_555
H4_2 C5_2 1_555 1_555
C6_2 C5_2 1_555 1_555
H5_2 C6_2 1_555 1_555
H6_2 C6_2 1_555 1_555
C7_2 C6_2 1_555 1_555
H7_2 C7_2 1_555 1_555
H8_2 C7_2 1_555 1_555
H9_2 C7_2 1_555 1_555
C12_2 S6_2 1_555 1_555
H19_2 C12_2 1_555 1_555
H20_2 C12_2 1_555 1_555
C13_2 S6_2 1_555 1_555
H21_2 C13_2 1_555 1_555
H22_2 C13_2 1_555 1_555
C14_2 C13_2 1_555 1_555
H23_2 C14_2 1_555 1_555
H24_2 C14_2 1_555 1_555
C15_2 C14_2 1_555 1_555
H25_2 C15_2 1_555 1_555
H26_2 C15_2 1_555 1_555
H27_2 C15_2 1_555 1_555
Nd1_2 O1_2 1_555 1_555
Nd1_3 O3 1_555 1_555
Nd1A O2A 1_555 1_555
Nd1A_2 O4A 1_555 1_555
Nd1A_3 O5A 1_555 1_555
O2_2 Nd1_2 1_555 1_555
O3_3 Nd1_2 1_555 1_555
O4_2 Nd1_2 1_555 1_555
O5_2 Nd1_2 1_555 1_555
N1_2 Nd1_2 1_555 1_555
N2_2 Nd1_2 1_555 1_555
N3_2 Nd1_2 1_555 1_555
C2_2 N2_2 1_555 1_555
C3_2 N3_2 1_555 1_555
C1_2 N1_2 1_555 1_555
S2_2 C2_2 1_555 1_555
S3_2 C3_2 1_555 1_555
S1_2 C1_2 1_555 1_555
C4_2 C12_2 1_555 1_555

#END
