
#######################################################################
#
#                 Cambridge Crystallographic Data Centre
#                                CCDC 
#
#######################################################################
#
# If this CIF has been generated from an entry in the Cambridge 
# Structural Database, then it will include bibliographic, chemical, 
# crystal, experimental, refinement or atomic coordinate data resulting 
# from the CCDC's data processing and validation procedures.
#
#######################################################################

data_MEYXET
_symmetry_cell_setting           monoclinic
_symmetry_space_group_name_H-M   'C 2/c'
_symmetry_Int_Tables_number      15
_space_group_name_Hall           '-C 2yn'
loop_
_symmetry_equiv_pos_site_id
_symmetry_equiv_pos_as_xyz
1 x,y,z
2 1/2+x,1/2+y,z
3 x,-y,1/2+z
4 1/2+x,1/2-y,1/2+z
5 -x,-y,-z
6 1/2-x,1/2-y,-z
7 -x,y,1/2-z
8 1/2-x,1/2+y,1/2-z
_cell_length_a                   11.395(2)
_cell_length_b                   26.852(7)
_cell_length_c                   12.688(3)
_cell_angle_alpha                90
_cell_angle_beta                 116.149(4)
_cell_angle_gamma                90
_cell_volume                     3484.91
loop_
_atom_site_label
_atom_site_type_symbol
_atom_site_fract_x
_atom_site_fract_y
_atom_site_fract_z
Mn1 Mn 0.0000 -0.12945(4) -0.7500
O1 O -0.1002(5) -0.12976(18) -0.9393(3)
H1 H -0.0525 -0.1297 -0.9828
H2 H -0.1911 -0.1300 -0.9774
O2 O -0.1832(4) -0.12898(17) -0.7527(4)
O3 O -0.3317(5) -0.1211(2) -0.9396(4)
O4 O 0.0580(5) 0.12980(17) -0.5524(3)
O5 O -0.2201(6) -0.38652(18) -0.7990(5)
N1 N 0.0000 -0.2148(2) -0.7500
N2 N 0.0000 -0.0423(3) -0.7500
N3 N 0.0294(5) 0.14446(18) -0.6558(4)
N4 N -0.1047(6) -0.4021(2) -0.7747(4)
C1 C -0.0194(14) -0.0167(3) -0.8394(7)
H3 H -0.0363 -0.0337 -0.9084
C2 C -0.0176(13) 0.0344(3) -0.8431(7)
H4 H -0.0289 0.0503 -0.9121
C3 C 0.0000 0.0612(3) -0.7500
C4 C 0.0000 0.1151(3) -0.7500
C5 C 0.0395(7) 0.1984(2) -0.6825(5)
C6 C 0.1862(7) 0.2078(3) -0.6389(6)
H5 H 0.2285 0.2073 -0.5546
H6 H 0.1992 0.2396 -0.6662
H7 H 0.2227 0.1822 -0.6684
C7 C -0.0125(9) 0.2303(3) -0.6154(7)
H8 H -0.1043 0.2241 -0.6430
H9 H 0.0010 0.2648 -0.6270
H10 H 0.0326 0.2224 -0.5334
C8 C -0.0993(7) -0.2411(2) -0.8300(6)
H11 H -0.1702 -0.2239 -0.8861
C9 C -0.1015(8) -0.2921(2) -0.8333(6)
H12 H -0.1716 -0.3087 -0.8917
C10 C 0.0000 -0.3185(3) -0.7500
C11 C 0.0000 -0.3732(3) -0.7500
C12 C -0.0718(7) -0.4558(2) -0.7566(6)
C13 C -0.1685(9) -0.4839(3) -0.8667(8)
H13 H -0.2544 -0.4827 -0.8704
H14 H -0.1413 -0.5180 -0.8628
H15 H -0.1699 -0.4685 -0.9356
C14 C -0.0847(11) -0.4711(3) -0.6477(8)
H16 H -0.1751 -0.4701 -0.6632
H17 H -0.0355 -0.4486 -0.5848
H18 H -0.0516 -0.5043 -0.6258
C15 C -0.2987(6) -0.1256(2) -0.8315(5)
C16 C -0.4050(6) -0.12542(19) -0.7901(5)
C17 C -0.3677(6) -0.1259(2) -0.6721(5)
C18 C -0.5361(7) -0.1252(2) -0.8691(5)
C18F C -0.4639(7) -0.1252(2) -0.6309(5)
C16F C -0.5950(6) -0.12542(19) -0.7099(5)
C15F C -0.7013(6) -0.1256(2) -0.6685(5)
O2F O -0.8168(4) -0.12898(17) -0.7473(4)
O3F O -0.6683(5) -0.1211(2) -0.5604(4)
C17F C -0.6323(6) -0.1259(2) -0.8279(5)
N3F N -0.0294(5) 0.14446(18) -0.8442(4)
O4F O -0.0580(5) 0.12980(17) -0.9476(3)
C5F C -0.0395(7) 0.1984(2) -0.8175(5)
C6F C -0.1862(7) 0.2078(3) -0.8611(6)
H5F H -0.2285 0.2073 -0.9454
H6F H -0.1992 0.2396 -0.8338
H7F H -0.2227 0.1822 -0.8316
C7F C 0.0125(9) 0.2303(3) -0.8846(7)
H8F H 0.1043 0.2241 -0.8570
H9F H -0.0010 0.2648 -0.8730
H10F H -0.0326 0.2224 -0.9666
C1F C 0.0194(14) -0.0167(3) -0.6606(7)
H3F H 0.0363 -0.0337 -0.5916
C2F C 0.0176(13) 0.0344(3) -0.6569(7)
H4F H 0.0289 0.0503 -0.5879
N4F N 0.1047(6) -0.4021(2) -0.7253(4)
O5F O 0.2201(6) -0.38652(18) -0.7010(5)
C12F C 0.0718(7) -0.4558(2) -0.7434(6)
C13F C 0.1685(9) -0.4839(3) -0.6333(8)
H13F H 0.2544 -0.4827 -0.6296
H14F H 0.1413 -0.5180 -0.6372
H15F H 0.1699 -0.4685 -0.5644
C14F C 0.0847(11) -0.4711(3) -0.8523(8)
H16F H 0.1751 -0.4701 -0.8368
H17F H 0.0355 -0.4486 -0.9152
H18F H 0.0516 -0.5043 -0.8742
C8F C 0.0993(7) -0.2411(2) -0.6700(6)
H11F H 0.1702 -0.2239 -0.6139
C9F C 0.1015(8) -0.2921(2) -0.6667(6)
H12F H 0.1716 -0.3087 -0.6083
O1F O 0.1002(5) -0.12976(18) -0.5607(3)
H1F H 0.0525 -0.1297 -0.5172
H2F H 0.1911 -0.1300 -0.5226
O2F_2 O 0.1832(4) -0.12898(17) -0.7473(4)
Mn1_2 Mn -1.0000 -0.12945(4) -0.7500
loop_
_geom_bond_atom_site_label_1
_geom_bond_atom_site_label_2
_geom_bond_site_symmetry_1
_geom_bond_site_symmetry_2
Mn1 O1 1_555 1_555
O1 H1 1_555 1_555
H2 O1 1_555 1_555
O2 Mn1 1_555 1_555
O3 C15 1_555 1_555
O4 N3 1_555 1_555
O5 N4 1_555 1_555
N1 Mn1 1_555 1_555
N2 Mn1 1_555 1_555
N3 C4 1_555 1_555
N4 C11 1_555 1_555
C1 N2 1_555 1_555
H3 C1 1_555 1_555
C2 C1 1_555 1_555
H4 C2 1_555 1_555
C3 C2 1_555 1_555
C4 C3 1_555 1_555
C5 N3 1_555 1_555
C6 C5 1_555 1_555
H5 C6 1_555 1_555
H6 C6 1_555 1_555
H7 C6 1_555 1_555
C7 C5 1_555 1_555
H8 C7 1_555 1_555
H9 C7 1_555 1_555
H10 C7 1_555 1_555
C8 N1 1_555 1_555
H11 C8 1_555 1_555
C9 C8 1_555 1_555
H12 C9 1_555 1_555
C10 C9 1_555 1_555
C11 C10 1_555 1_555
C12 N4 1_555 1_555
C13 C12 1_555 1_555
H13 C13 1_555 1_555
H14 C13 1_555 1_555
H15 C13 1_555 1_555
C14 C12 1_555 1_555
H16 C14 1_555 1_555
H17 C14 1_555 1_555
H18 C14 1_555 1_555
C15 O2 1_555 1_555
C16 C15 1_555 1_555
C17 C16 1_555 1_555
C18 C16 1_555 1_555
C18F C17 1_555 1_555
C16F C18F 1_555 1_555
C15F C16F 1_555 1_555
O2F C15F 1_555 1_555
O3F C15F 1_555 1_555
C17F C18 1_555 1_555
N3F C4 1_555 1_555
O4F N3F 1_555 1_555
C5F C5 1_555 1_555
C6F C5F 1_555 1_555
H5F C6F 1_555 1_555
H6F C6F 1_555 1_555
H7F C6F 1_555 1_555
C7F C5F 1_555 1_555
H8F C7F 1_555 1_555
H9F C7F 1_555 1_555
H10F C7F 1_555 1_555
C1F N2 1_555 1_555
H3F C1F 1_555 1_555
C2F C3 1_555 1_555
H4F C2F 1_555 1_555
N4F C11 1_555 1_555
O5F N4F 1_555 1_555
C12F C12 1_555 1_555
C13F C12F 1_555 1_555
H13F C13F 1_555 1_555
H14F C13F 1_555 1_555
H15F C13F 1_555 1_555
C14F C12F 1_555 1_555
H16F C14F 1_555 1_555
H17F C14F 1_555 1_555
H18F C14F 1_555 1_555
C8F N1 1_555 1_555
H11F C8F 1_555 1_555
C9F C10 1_555 1_555
H12F C9F 1_555 1_555
O1F Mn1 1_555 1_555
H1F O1F 1_555 1_555
H2F O1F 1_555 1_555
O2F_2 Mn1 1_555 1_555
Mn1_2 O2F 1_555 1_555
C16F C17F 1_555 1_555
N3F C5F 1_555 1_555
C1F C2F 1_555 1_555
N4F C12F 1_555 1_555
C8F C9F 1_555 1_555

#END
