
#######################################################################
#
#                 Cambridge Crystallographic Data Centre
#                                CCDC 
#
#######################################################################
#
# If this CIF has been generated from an entry in the Cambridge 
# Structural Database, then it will include bibliographic, chemical, 
# crystal, experimental, refinement or atomic coordinate data resulting 
# from the CCDC's data processing and validation procedures.
#
#######################################################################

data_MEZCID
_symmetry_cell_setting           orthorhombic
_symmetry_space_group_name_H-M   'P b c a'
_symmetry_Int_Tables_number      61
_space_group_name_Hall           '-P 2ac 2ab'
loop_
_symmetry_equiv_pos_site_id
_symmetry_equiv_pos_as_xyz
1 x,y,z
2 1/2+x,y,1/2-z
3 x,1/2-y,1/2+z
4 1/2-x,1/2+y,z
5 -x,-y,-z
6 1/2-x,-y,1/2+z
7 -x,1/2+y,1/2-z
8 1/2+x,1/2-y,-z
_cell_length_a                   20.9907(18)
_cell_length_b                   16.3968(13)
_cell_length_c                   21.7003(19)
_cell_angle_alpha                90
_cell_angle_beta                 90
_cell_angle_gamma                90
_cell_volume                     7468.82
loop_
_atom_site_label
_atom_site_type_symbol
_atom_site_fract_x
_atom_site_fract_y
_atom_site_fract_z
Pr1 Pr 0.345380(13) -0.258740(19) 0.138310(14)
P1 P 0.23906(6) -0.07840(10) 0.08256(7)
P2 P 0.10452(7) 0.06071(10) 0.24274(7)
O1 O 0.28198(19) -0.1446(2) 0.10610(18)
O2 O 0.12510(19) 0.1322(3) 0.20405(19)
O3 O 0.23831(17) 0.1502(3) 0.10745(18)
O4 O 0.2716(3) -0.1916(4) 0.3118(2)
O5 O 0.2617(2) -0.2580(3) 0.22556(19)
O6 O 0.3452(2) -0.1839(3) 0.2416(2)
O7 O 0.4254(3) -0.1488(4) 0.1065(3)
O8 O 0.4660(2) -0.2439(3) 0.1583(3)
O9 O 0.5280(3) -0.1548(4) 0.1149(3)
O10 O 0.3470(3) -0.2692(3) 0.0217(2)
O11 O 0.3995(2) -0.3629(3) 0.0693(2)
O12 O 0.3901(2) -0.3687(3) -0.0299(2)
N1 N 0.2842(2) 0.1170(3) 0.1414(2)
N2 N 0.2922(3) -0.2115(4) 0.2615(2)
N3 N 0.4744(3) -0.1819(4) 0.1261(3)
N4 N 0.3791(2) -0.3338(4) 0.0188(3)
C1 C 0.1657(3) -0.1180(4) 0.0522(3)
C2 C 0.1681(3) -0.1926(4) 0.0219(3)
H3 H 0.2067 -0.2228 0.0207
C3 C 0.1139(4) -0.2229(5) -0.0067(4)
H4 H 0.1155 -0.2741 -0.0272
C4 C 0.0577(3) -0.1796(5) -0.0056(3)
H5 H 0.0211 -0.2003 -0.0260
C5 C 0.0548(3) -0.1056(4) 0.0255(3)
H6 H 0.0157 -0.0764 0.0273
C6 C 0.1087(3) -0.0741(4) 0.0540(3)
H7 H 0.1069 -0.0230 0.0746
C7 C 0.2747(3) -0.0183(4) 0.0225(3)
C8 C 0.3405(3) -0.0078(4) 0.0211(3)
H8 H 0.3666 -0.0344 0.0506
C9 C 0.3673(3) 0.0411(5) -0.0232(3)
H9 H 0.4121 0.0492 -0.0235
C10 C 0.3298(4) 0.0787(5) -0.0673(3)
H10 H 0.3488 0.1114 -0.0984
C11 C 0.2650(4) 0.0682(5) -0.0655(3)
H11 H 0.2389 0.0950 -0.0950
C12 C 0.2373(3) 0.0193(4) -0.0215(3)
H12 H 0.1925 0.0115 -0.0213
C13 C 0.3364(3) 0.1625(4) 0.1533(3)
H13 H 0.3392 0.2164 0.1375
C14 C 0.3857(3) 0.1316(5) 0.1880(4)
H14 H 0.4222 0.1639 0.1966
C15 C 0.3811(3) 0.0528(5) 0.2101(3)
H15 H 0.4148 0.0301 0.2337
C16 C 0.3277(3) 0.0075(4) 0.1978(3)
H16 H 0.3245 -0.0465 0.2134
C17 C 0.2780(3) 0.0396(4) 0.1626(3)
C18 C 0.2186(2) -0.0082(4) 0.1452(3)
H17 H 0.1854 0.0308 0.1302
C19 C 0.1907(3) -0.0584(4) 0.1989(3)
H18 H 0.1537 -0.0897 0.1833
H19 H 0.2233 -0.0983 0.2124
C20 C 0.1692(3) -0.0092(4) 0.2554(3)
H20 H 0.2062 0.0221 0.2711
H21 H 0.1564 -0.0480 0.2882
C21 C 0.0775(4) 0.0925(4) 0.3169(3)
C22 C 0.0364(4) 0.0474(7) 0.3518(3)
H22 H 0.0212 -0.0031 0.3362
C23 C 0.0166(4) 0.0735(9) 0.4092(4)
H23 H -0.0104 0.0393 0.4329
C24 C 0.0339(8) 0.1436(8) 0.4315(4)
H24 H 0.0180 0.1626 0.4699
C25 C 0.0739(12) 0.1868(7) 0.3991(5)
H25 H 0.0908 0.2354 0.4165
C26 C 0.0926(9) 0.1645(7) 0.3406(5)
H26 H 0.1169 0.2017 0.3167
C27 C 0.0405(3) 0.0052(4) 0.2076(3)
C28 C 0.0277(3) -0.0751(4) 0.2245(3)
H27 H 0.0550 -0.1027 0.2526
C29 C -0.0250(4) -0.1144(5) 0.2002(4)
H28 H -0.0346 -0.1687 0.2125
C30 C -0.0631(4) -0.0757(6) 0.1590(4)
H29 H -0.0995 -0.1029 0.1432
C31 C -0.0498(4) 0.0016(6) 0.1400(3)
H30 H -0.0761 0.0270 0.1100
C32 C 0.0021(3) 0.0439(5) 0.1643(3)
H31 H 0.0111 0.0980 0.1514
O2C O 0.37490(19) -0.3678(3) 0.20405(19)
O3C O 0.26169(17) -0.3498(3) 0.10745(18)
Pr1C Pr 0.154620(13) 0.241260(19) 0.138310(14)
O13 O -0.1232(5) -0.7128(7) 0.2110(5)
H1 H -0.0966 -0.6966 0.1841
H2 H -0.1630 -0.7071 0.2049
loop_
_geom_bond_atom_site_label_1
_geom_bond_atom_site_label_2
_geom_bond_site_symmetry_1
_geom_bond_site_symmetry_2
Pr1 O1 1_555 1_555
P1 O1 1_555 1_555
P2 O2 1_555 1_555
O2 Pr1C 1_555 1_555
O3 N1 1_555 1_555
O4 N2 1_555 1_555
O5 Pr1 1_555 1_555
O6 Pr1 1_555 1_555
O7 Pr1 1_555 1_555
O8 Pr1 1_555 1_555
O9 N3 1_555 1_555
O10 Pr1 1_555 1_555
O11 Pr1 1_555 1_555
O12 N4 1_555 1_555
O13 H1 1_555 1_555
H2 O13 1_555 1_555
N1 C13 1_555 1_555
N2 O5 1_555 1_555
N3 O7 1_555 1_555
N4 O10 1_555 1_555
C1 P1 1_555 1_555
C2 C1 1_555 1_555
H3 C2 1_555 1_555
C3 C2 1_555 1_555
H4 C3 1_555 1_555
C4 C3 1_555 1_555
H5 C4 1_555 1_555
C5 C4 1_555 1_555
H6 C5 1_555 1_555
C6 C1 1_555 1_555
H7 C6 1_555 1_555
C7 P1 1_555 1_555
C8 C7 1_555 1_555
H8 C8 1_555 1_555
C9 C8 1_555 1_555
H9 C9 1_555 1_555
C10 C9 1_555 1_555
H10 C10 1_555 1_555
C11 C10 1_555 1_555
H11 C11 1_555 1_555
C12 C7 1_555 1_555
H12 C12 1_555 1_555
C13 H13 1_555 1_555
C14 C13 1_555 1_555
H14 C14 1_555 1_555
C15 C14 1_555 1_555
H15 C15 1_555 1_555
C16 C15 1_555 1_555
H16 C16 1_555 1_555
C17 N1 1_555 1_555
C18 P1 1_555 1_555
H17 C18 1_555 1_555
C19 C18 1_555 1_555
H18 C19 1_555 1_555
H19 C19 1_555 1_555
C20 P2 1_555 1_555
H20 C20 1_555 1_555
H21 C20 1_555 1_555
C21 P2 1_555 1_555
C22 C21 1_555 1_555
H22 C22 1_555 1_555
C23 C22 1_555 1_555
H23 C23 1_555 1_555
C24 C23 1_555 1_555
H24 C24 1_555 1_555
C25 C24 1_555 1_555
H25 C25 1_555 1_555
C26 C21 1_555 1_555
H26 C26 1_555 1_555
C27 P2 1_555 1_555
C28 C27 1_555 1_555
H27 C28 1_555 1_555
C29 C28 1_555 1_555
H28 C29 1_555 1_555
C30 C29 1_555 1_555
H29 C30 1_555 1_555
C31 C30 1_555 1_555
H30 C31 1_555 1_555
C32 C27 1_555 1_555
H31 C32 1_555 1_555
O2C Pr1 1_555 1_555
O3C Pr1 1_555 1_555
Pr1C O3 1_555 1_555
O6 N2 1_555 1_555
O8 N3 1_555 1_555
O11 N4 1_555 1_555
C5 C6 1_555 1_555
C11 C12 1_555 1_555
C16 C17 1_555 1_555
C17 C18 1_555 1_555
C19 C20 1_555 1_555
C25 C26 1_555 1_555
C31 C32 1_555 1_555

#END
