
#######################################################################
#
#                 Cambridge Crystallographic Data Centre
#                                CCDC 
#
#######################################################################
#
# If this CIF has been generated from an entry in the Cambridge 
# Structural Database, then it will include bibliographic, chemical, 
# crystal, experimental, refinement or atomic coordinate data resulting 
# from the CCDC's data processing and validation procedures.
#
#######################################################################

data_MEZGED
_symmetry_cell_setting           monoclinic
_symmetry_space_group_name_H-M   'P 21/c'
_symmetry_Int_Tables_number      14
_space_group_name_Hall           '-P 2ybc'
loop_
_symmetry_equiv_pos_site_id
_symmetry_equiv_pos_as_xyz
1 x,y,z
2 x,1/2-y,1/2+z
3 -x,-y,-z
4 -x,1/2+y,1/2-z
_cell_length_a                   10.8295(3)
_cell_length_b                   16.9416(5)
_cell_length_c                   14.9596(5)
_cell_angle_alpha                90
_cell_angle_beta                 93.6260(13)
_cell_angle_gamma                90
_cell_volume                     2739.13
loop_
_atom_site_label
_atom_site_type_symbol
_atom_site_fract_x
_atom_site_fract_y
_atom_site_fract_z
Ni1 Ni 0.5000 0.5000 0.5000
O1 O 0.38485(14) 0.60422(9) 0.51792(10)
N1 N 0.39309(15) 0.43568(10) 0.58281(11)
N2 N 0.37720(15) 0.46280(10) 0.39646(11)
C1 C 0.27679(19) 0.41805(12) 0.52933(14)
C2 C 0.30689(19) 0.39725(12) 0.43400(14)
C3 C 0.4313(2) 0.44231(13) 0.31113(14)
C4 C 0.5073(2) 0.50998(14) 0.27584(14)
C5 C 0.3720(2) 0.47241(14) 0.67010(14)
H1 H 0.415(3) 0.6503(16) 0.5209(19)
H2 H 0.328(3) 0.6076(18) 0.4750(18)
H3 H 0.4333 0.3879 0.5944
H4 H 0.3217 0.5039 0.3844
H5 H 0.2214 0.4646 0.5286
H6 H 0.2338 0.3733 0.5564
H7 H 0.3565 0.3482 0.4342
H8 H 0.2294 0.3883 0.3967
H9 H 0.3640 0.4287 0.2659
H10 H 0.4849 0.3953 0.3204
H11 H 0.5265 0.4976 0.2136
H12 H 0.4558 0.5583 0.2739
H13 H 0.3252 0.5222 0.6599
H14 H 0.3211 0.4365 0.7049
C5B C 0.6280(2) 0.52759(14) 0.32990(14)
N1B N 0.60691(15) 0.56432(10) 0.41719(11)
C1B C 0.72321(19) 0.58195(12) 0.47067(14)
C2B C 0.69311(19) 0.60275(12) 0.56600(14)
N2B N 0.62280(15) 0.53720(10) 0.60354(11)
C3B C 0.5687(2) 0.55769(13) 0.68887(14)
C4B C 0.4927(2) 0.49002(14) 0.72416(14)
H11B H 0.4735 0.5024 0.7864
H12B H 0.5442 0.4417 0.7261
H9B H 0.6360 0.5713 0.7341
H10B H 0.5151 0.6047 0.6796
H4B H 0.6783 0.4961 0.6156
H7B H 0.6435 0.6518 0.5658
H8B H 0.7706 0.6117 0.6033
H5B H 0.7786 0.5354 0.4714
H6B H 0.7662 0.6267 0.4436
H3B H 0.5667 0.6121 0.4056
H13B H 0.6748 0.4778 0.3401
H14B H 0.6789 0.5635 0.2951
O1B O 0.61515(14) 0.39578(9) 0.48208(10)
H1B H 0.585(3) 0.3497(16) 0.4791(19)
H2B H 0.672(3) 0.3924(18) 0.5250(18)
Ni2 Ni -0.05830(2) 0.226190(13) 0.280410(15)
N3 N -0.24350(16) 0.24376(10) 0.24529(11)
N4 N -0.11892(16) 0.15442(9) 0.38047(10)
N5 N 0.12864(16) 0.20977(10) 0.31834(11)
N6 N 0.00371(16) 0.29631(9) 0.17786(10)
C6 C -0.3101(2) 0.21693(13) 0.32309(15)
C7 C -0.2520(2) 0.14054(13) 0.35837(14)
C8 C -0.0468(2) 0.08163(12) 0.39740(14)
C9 C 0.0892(2) 0.09926(13) 0.42205(14)
C10 C 0.1634(2) 0.12875(13) 0.34544(14)
C11 C 0.1968(2) 0.23968(14) 0.24241(14)
C12 C 0.1339(2) 0.31369(12) 0.20427(14)
C13 C -0.0701(2) 0.36785(12) 0.15532(13)
C14 C -0.2064(2) 0.34962(13) 0.13548(14)
C15 C -0.2767(2) 0.32481(13) 0.21583(14)
O2 O -0.22188(12) 0.11039(8) 0.12278(9)
O3 O -0.03561(12) 0.13084(8) 0.19233(8)
O4 O -0.05499(14) 0.17231(8) -0.14061(8)
O5 O -0.06560(15) 0.21343(8) 0.00119(9)
C16 C -0.04684(16) 0.05333(10) 0.06132(11)
C17 C -0.03135(16) 0.07742(10) -0.02690(11)
C18 C -0.01418(16) -0.02333(10) 0.08671(11)
C19 C -0.10573(17) 0.10403(10) 0.12955(11)
C20 C -0.05380(17) 0.16177(10) -0.05700(11)
H15 H -0.2651 0.2100 0.1979
H16 H -0.1127 0.1837 0.4332
H17 H 0.1479 0.2425 0.3671
H18 H 0.0026 0.2652 0.1266
H19 H -0.3985 0.2082 0.3049
H20 H -0.3046 0.2577 0.3706
H21 H -0.2926 0.1232 0.4125
H22 H -0.2629 0.0986 0.3125
H23 H -0.0534 0.0480 0.3431
H24 H -0.0819 0.0519 0.4468
H25 H 0.0940 0.1394 0.4702
H26 H 0.1289 0.0506 0.4467
H27 H 0.2527 0.1273 0.3643
H28 H 0.1494 0.0930 0.2934
H29 H 0.1983 0.1987 0.1953
H30 H 0.2833 0.2519 0.2632
H31 H 0.1386 0.3561 0.2498
H32 H 0.1766 0.3321 0.1516
H33 H -0.0372 0.3936 0.1024
H34 H -0.0611 0.4054 0.2060
H35 H -0.2136 0.3069 0.0903
H36 H -0.2469 0.3970 0.1084
H37 H -0.2578 0.3620 0.2659
H38 H -0.3668 0.3274 0.1998
H39 H -0.0233 -0.0393 0.1468
C18B C 0.01418(16) 0.02333(10) -0.08671(11)
C16B C 0.04684(16) -0.05333(10) -0.06132(11)
C17B C 0.03135(16) -0.07742(10) 0.02690(11)
C20B C 0.05380(17) -0.16177(10) 0.05700(11)
O4B O 0.05499(14) -0.17231(8) 0.14061(8)
O5B O 0.06560(15) -0.21343(8) -0.00119(9)
C19B C 0.10573(17) -0.10403(10) -0.12955(11)
O2B O 0.22188(12) -0.11039(8) -0.12278(9)
O3B O 0.03561(12) -0.13084(8) -0.19233(8)
H39B H 0.0233 0.0393 -0.1468
Ni2B Ni 0.05830(2) -0.226190(13) -0.280410(15)
N3B N 0.24350(16) -0.24376(10) -0.24529(11)
N4B N 0.11892(16) -0.15442(9) -0.38047(10)
N5B N -0.12864(16) -0.20977(10) -0.31834(11)
N6B N -0.00371(16) -0.29631(9) -0.17786(10)
C6B C 0.3101(2) -0.21693(13) -0.32309(15)
C7B C 0.2520(2) -0.14054(13) -0.35837(14)
C8B C 0.0468(2) -0.08163(12) -0.39740(14)
C9B C -0.0892(2) -0.09926(13) -0.42205(14)
C10B C -0.1634(2) -0.12875(13) -0.34544(14)
C11B C -0.1968(2) -0.23968(14) -0.24241(14)
C12B C -0.1339(2) -0.31369(12) -0.20427(14)
C13B C 0.0701(2) -0.36785(12) -0.15532(13)
C14B C 0.2064(2) -0.34962(13) -0.13548(14)
C15B C 0.2767(2) -0.32481(13) -0.21583(14)
H15B H 0.2651 -0.2100 -0.1979
H16B H 0.1127 -0.1837 -0.4332
H17B H -0.1479 -0.2425 -0.3671
H18B H -0.0026 -0.2652 -0.1266
H19B H 0.3985 -0.2082 -0.3049
H20B H 0.3046 -0.2577 -0.3706
H21B H 0.2926 -0.1232 -0.4125
H22B H 0.2629 -0.0986 -0.3125
H23B H 0.0534 -0.0480 -0.3431
H24B H 0.0819 -0.0519 -0.4468
H25B H -0.0940 -0.1394 -0.4702
H26B H -0.1289 -0.0506 -0.4467
H27B H -0.2527 -0.1273 -0.3643
H28B H -0.1494 -0.0930 -0.2934
H29B H -0.1983 -0.1987 -0.1953
H30B H -0.2833 -0.2519 -0.2632
H31B H -0.1386 -0.3561 -0.2498
H32B H -0.1766 -0.3321 -0.1516
H33B H 0.0372 -0.3936 -0.1024
H34B H 0.0611 -0.4054 -0.2060
H35B H 0.2136 -0.3069 -0.0903
H36B H 0.2469 -0.3970 -0.1084
H37B H 0.2578 -0.3620 -0.2659
H38B H 0.3668 -0.3274 -0.1998
O4A O -0.05499(14) 0.32769(8) 0.35939(8)
Ni2A Ni -0.05830(2) 0.273810(13) -0.219590(15)
Ni2C Ni 0.05830(2) -0.273810(13) 0.219590(15)
O4C O 0.05499(14) -0.32769(8) -0.35939(8)
O6 O 0.6171(6) 1.0018(3) 0.5361(5)
Cl1 Cl 0.56740(10) 0.78843(7) 0.45060(7)
O7 O 0.4901(2) 0.76585(13) 0.52103(15)
O8 O 0.5410(2) 0.73697(12) 0.37519(14)
O9 O 0.5434(3) 0.86856(12) 0.42446(17)
O10 O 0.6948(3) 0.7793(2) 0.4816(3)
Cl2? Cl 0.5838(12) 0.8020(8) 0.4670(9)
O11? O 0.540(2) 0.8302(13) 0.5482(13)
O12? O 0.502(2) 0.7348(12) 0.4352(15)
O13? O 0.569(3) 0.8595(15) 0.3952(15)
O14? O 0.708(3) 0.773(2) 0.477(3)
loop_
_geom_bond_atom_site_label_1
_geom_bond_atom_site_label_2
_geom_bond_site_symmetry_1
_geom_bond_site_symmetry_2
Ni1 O1 1_555 1_555
O1 H1 1_555 1_555
N1 Ni1 1_555 1_555
N2 Ni1 1_555 1_555
C1 N1 1_555 1_555
C2 N2 1_555 1_555
C3 N2 1_555 1_555
C4 C3 1_555 1_555
C5 N1 1_555 1_555
Ni2 N3 1_555 1_555
N3 C6 1_555 1_555
N4 Ni2 1_555 1_555
N5 Ni2 1_555 1_555
N6 Ni2 1_555 1_555
C6 C7 1_555 1_555
C7 N4 1_555 1_555
C8 N4 1_555 1_555
C9 C8 1_555 1_555
C10 N5 1_555 1_555
C11 N5 1_555 1_555
C12 N6 1_555 1_555
C13 N6 1_555 1_555
C14 C13 1_555 1_555
C15 N3 1_555 1_555
O2 C19 1_555 1_555
O3 Ni2 1_555 1_555
O4 C20 1_555 1_555
O5 C20 1_555 1_555
C16 C17 1_555 1_555
C17 C20 1_555 1_555
C18 C16 1_555 1_555
C19 O3 1_555 1_555
Cl1 O7 1_555 1_555
O8 Cl1 1_555 1_555
O9 Cl1 1_555 1_555
O10 Cl1 1_555 1_555
H2 O1 1_555 1_555
H3 N1 1_555 1_555
H4 N2 1_555 1_555
H5 C1 1_555 1_555
H6 C1 1_555 1_555
H7 C2 1_555 1_555
H8 C2 1_555 1_555
H9 C3 1_555 1_555
H10 C3 1_555 1_555
H11 C4 1_555 1_555
H12 C4 1_555 1_555
H13 C5 1_555 1_555
H14 C5 1_555 1_555
H15 N3 1_555 1_555
H16 N4 1_555 1_555
H17 N5 1_555 1_555
H18 N6 1_555 1_555
H19 C6 1_555 1_555
H20 C6 1_555 1_555
H21 C7 1_555 1_555
H22 C7 1_555 1_555
H23 C8 1_555 1_555
H24 C8 1_555 1_555
H25 C9 1_555 1_555
H26 C9 1_555 1_555
H27 C10 1_555 1_555
H28 C10 1_555 1_555
H29 C11 1_555 1_555
H30 C11 1_555 1_555
H31 C12 1_555 1_555
H32 C12 1_555 1_555
H33 C13 1_555 1_555
H34 C13 1_555 1_555
H35 C14 1_555 1_555
H36 C14 1_555 1_555
H37 C15 1_555 1_555
H38 C15 1_555 1_555
H39 C18 1_555 1_555
C5B C4 1_555 1_555
N1B Ni1 1_555 1_555
C1B N1B 1_555 1_555
C2B C1B 1_555 1_555
N2B Ni1 1_555 1_555
C3B N2B 1_555 1_555
C4B C5 1_555 1_555
H11B C4B 1_555 1_555
H12B C4B 1_555 1_555
H9B C3B 1_555 1_555
H10B C3B 1_555 1_555
H4B N2B 1_555 1_555
H7B C2B 1_555 1_555
H8B C2B 1_555 1_555
H5B C1B 1_555 1_555
H6B C1B 1_555 1_555
H3B N1B 1_555 1_555
H13B C5B 1_555 1_555
H14B C5B 1_555 1_555
C18B C17 1_555 1_555
C16B C18B 1_555 1_555
C17B C18 1_555 1_555
C20B C17B 1_555 1_555
O4B C20B 1_555 1_555
O5B C20B 1_555 1_555
C19B C16B 1_555 1_555
O2B C19B 1_555 1_555
O3B C19B 1_555 1_555
H39B C18B 1_555 1_555
O1B Ni1 1_555 1_555
H1B O1B 1_555 1_555
H2B O1B 1_555 1_555
Ni2B O3B 1_555 1_555
N3B Ni2B 1_555 1_555
N4B Ni2B 1_555 1_555
N5B Ni2B 1_555 1_555
N6B Ni2B 1_555 1_555
C6B N3B 1_555 1_555
C7B N4B 1_555 1_555
C8B N4B 1_555 1_555
C9B C8B 1_555 1_555
C10B N5B 1_555 1_555
C11B N5B 1_555 1_555
C12B N6B 1_555 1_555
C13B N6B 1_555 1_555
C14B C13B 1_555 1_555
C15B N3B 1_555 1_555
H15B N3B 1_555 1_555
H16B N4B 1_555 1_555
H17B N5B 1_555 1_555
H18B N6B 1_555 1_555
H19B C6B 1_555 1_555
H20B C6B 1_555 1_555
H21B C7B 1_555 1_555
H22B C7B 1_555 1_555
H23B C8B 1_555 1_555
H24B C8B 1_555 1_555
H25B C9B 1_555 1_555
H26B C9B 1_555 1_555
H27B C10B 1_555 1_555
H28B C10B 1_555 1_555
H29B C11B 1_555 1_555
H30B C11B 1_555 1_555
H31B C12B 1_555 1_555
H32B C12B 1_555 1_555
H33B C13B 1_555 1_555
H34B C13B 1_555 1_555
H35B C14B 1_555 1_555
H36B C14B 1_555 1_555
H37B C15B 1_555 1_555
H38B C15B 1_555 1_555
O4A Ni2 1_555 1_555
Ni2A O4 1_555 1_555
Ni2C O4B 1_555 1_555
O4C Ni2B 1_555 1_555
C1 C2 1_555 1_555
C9 C10 1_555 1_555
C11 C12 1_555 1_555
C14 C15 1_555 1_555
C16 C19 1_555 1_555
C5B N1B 1_555 1_555
C2B N2B 1_555 1_555
C3B C4B 1_555 1_555
C16B C17B 1_555 1_555
C6B C7B 1_555 1_555
C9B C10B 1_555 1_555
C11B C12B 1_555 1_555
C14B C15B 1_555 1_555

#END
