
#######################################################################
#
#                 Cambridge Crystallographic Data Centre
#                                CCDC 
#
#######################################################################
#
# If this CIF has been generated from an entry in the Cambridge 
# Structural Database, then it will include bibliographic, chemical, 
# crystal, experimental, refinement or atomic coordinate data resulting 
# from the CCDC's data processing and validation procedures.
#
#######################################################################

data_MEZSAL
_symmetry_cell_setting           monoclinic
_symmetry_space_group_name_H-M   'P 2/c'
_symmetry_Int_Tables_number      13
_space_group_name_Hall           '-P 2yc'
loop_
_symmetry_equiv_pos_site_id
_symmetry_equiv_pos_as_xyz
1 x,y,z
2 x,-y,1/2+z
3 -x,-y,-z
4 -x,y,1/2-z
_cell_length_a                   14.002(3)
_cell_length_b                   4.8064(10)
_cell_length_c                   9.274(3)
_cell_angle_alpha                90
_cell_angle_beta                 90.50(2)
_cell_angle_gamma                90
_cell_volume                     624.109
loop_
_atom_site_label
_atom_site_type_symbol
_atom_site_fract_x
_atom_site_fract_y
_atom_site_fract_z
Co1 Co 0.24956(3) 0.01644(11) -0.00521(5)
O1 O 0.2858(2) 0.0042(5) 0.2019(3)
O2 O 0.3646(2) 0.1324(6) 0.3971(3)
O3 O 0.1349(2) -0.1997(5) -0.0625(3)
O4 O 0.2140(2) -0.5881(6) -0.0197(3)
C1 C 0.1440(3) -0.4591(7) -0.0776(4)
C2 C 0.0702(3) -0.6152(8) -0.1662(4)
H1 H 0.1136(38) -0.729(13) -0.2373(60)
H2 H 0.0358(33) -0.740(11) -0.1105(50)
C3 C 0.0000 -0.4328(14) -0.2500
H3 H -0.0343(34) -0.316(11) -0.1926(50)
C4 C 0.3549(2) 0.1353(8) 0.2616(4)
C5 C 0.4242(3) 0.2940(9) 0.1685(4)
H4 H 0.3892(49) 0.417(15) 0.1052(77)
H5 H 0.4518(32) 0.170(11) 0.1134(50)
C6 C 0.5000 0.4639(13) 0.2500
H6 H 0.5292(31) 0.5833(98) 0.1772(46)
C5C C 0.5758(3) 0.2940(9) 0.3315(4)
C4C C 0.6451(2) 0.1353(8) 0.2384(4)
O1C O 0.7142(2) 0.0042(5) 0.2981(3)
O2C O 0.6354(2) 0.1324(6) 0.1029(3)
H4C H 0.6108(49) 0.417(15) 0.3948(77)
H5C H 0.5482(32) 0.170(11) 0.3866(50)
H6C H 0.4708(31) 0.5833(98) 0.3228(46)
C2C C -0.0702(3) -0.6152(8) -0.3338(4)
C1C C -0.1440(3) -0.4591(7) -0.4224(4)
O3C O -0.1349(2) -0.1997(5) -0.4375(3)
O4C O -0.2140(2) -0.5881(6) -0.4803(3)
H1C H -0.1136(38) -0.729(13) -0.2627(60)
H2C H -0.0358(33) -0.740(11) -0.3895(50)
H3C H 0.0343(34) -0.316(11) -0.3074(50)
Co1C Co 0.75044(3) 0.01644(11) 0.50521(5)
O2A O 0.3646(2) -0.1324(6) -0.1029(3)
O4_2 O 0.2140(2) 0.4119(6) -0.0197(3)
Co1A Co 0.24956(3) -0.01644(11) 0.49479(5)
Co1_2 Co 0.24956(3) -0.98356(11) -0.00521(5)
Co1B Co 0.75044(3) -0.01644(11) 0.00521(5)
Co1C_2 Co -0.24956(3) 0.01644(11) -0.49479(5)
Co1C_3 Co -0.24956(3) -0.98356(11) -0.49479(5)
O2B O 0.6354(2) -0.1324(6) 0.6029(3)
O3C_2 O 0.8651(2) -0.1997(5) 0.5625(3)
O4C_2 O 0.7860(2) 0.4119(6) 0.5197(3)
loop_
_geom_bond_atom_site_label_1
_geom_bond_atom_site_label_2
_geom_bond_site_symmetry_1
_geom_bond_site_symmetry_2
Co1 O1 1_555 1_555
O1 C4 1_555 1_555
O2 C4 1_555 1_555
O3 Co1 1_555 1_555
O4 C1 1_555 1_555
C1 O3 1_555 1_555
C2 C1 1_555 1_555
H1 C2 1_555 1_555
H2 C2 1_555 1_555
C3 C2 1_555 1_555
H3 C3 1_555 1_555
C4 C5 1_555 1_555
C5 H4 1_555 1_555
H5 C5 1_555 1_555
C6 C5 1_555 1_555
H6 C6 1_555 1_555
C5C C6 1_555 1_555
C4C C5C 1_555 1_555
O1C C4C 1_555 1_555
O2C C4C 1_555 1_555
H4C C5C 1_555 1_555
H5C C5C 1_555 1_555
H6C C6 1_555 1_555
C2C C3 1_555 1_555
C1C C2C 1_555 1_555
O3C C1C 1_555 1_555
O4C C1C 1_555 1_555
H1C C2C 1_555 1_555
H2C C2C 1_555 1_555
H3C C3 1_555 1_555
Co1C O1C 1_555 1_555
O2A Co1 1_555 1_555
O4_2 Co1 1_555 1_555
Co1A O2 1_555 1_555
Co1_2 O4 1_555 1_555
Co1B O2C 1_555 1_555
Co1C_2 O3C 1_555 1_555
Co1C_3 O4C 1_555 1_555
O2B Co1C 1_555 1_555
O3C_2 Co1C 1_555 1_555
O4C_2 Co1C 1_555 1_555

#END
