
#######################################################################
#
#                 Cambridge Crystallographic Data Centre
#                                CCDC 
#
#######################################################################
#
# If this CIF has been generated from an entry in the Cambridge 
# Structural Database, then it will include bibliographic, chemical, 
# crystal, experimental, refinement or atomic coordinate data resulting 
# from the CCDC's data processing and validation procedures.
#
#######################################################################

data_MGPHCU
_symmetry_cell_setting           orthorhombic
_symmetry_space_group_name_H-M   'P 21 21 2'
_symmetry_Int_Tables_number      18
_space_group_name_Hall           'P 2 2ab'
loop_
_symmetry_equiv_pos_site_id
_symmetry_equiv_pos_as_xyz
1 x,y,z
2 1/2+x,1/2-y,-z
3 1/2-x,1/2+y,-z
4 -x,-y,z
_cell_length_a                   6.551(7)
_cell_length_b                   20.589(10)
_cell_length_c                   6.832(8)
_cell_angle_alpha                90
_cell_angle_beta                 90
_cell_angle_gamma                90
_cell_volume                     921.49
loop_
_atom_site_label
_atom_site_type_symbol
_atom_site_fract_x
_atom_site_fract_y
_atom_site_fract_z
Cu1 Cu 0.00000 0.00000 0.27480
Mg1 Mg 0.50000 0.00000 -0.10910
O1 O -0.01730 0.07160 0.09250
O2 O 0.21790 0.04060 -0.12400
O3 O -0.02370 0.06520 -0.52030
O4 O 0.30150 0.08720 -0.57870
O5 O 0.60890 0.06630 -0.30790
O6 O 0.57090 0.06410 0.11420
C1 C 0.07890 0.14550 -0.15310
C2 C 0.11890 0.15390 -0.35400
C3 C 0.12650 0.21580 -0.42980
C4 C 0.09670 0.26960 -0.31230
C5 C 0.05040 0.26130 -0.11650
C6 C 0.04210 0.19950 -0.03860
C7 C 0.09840 0.07990 -0.05680
C8 C 0.13650 0.09750 -0.49420
H1 H 0.52100 0.06100 -0.41700
H2 H 0.70900 0.07700 -0.36300
H3 H 0.50100 0.08200 0.22200
H4 H 0.69900 0.07400 0.13600
H5 H 0.18100 0.22000 -0.57600
H6 H 0.10900 0.31400 -0.38100
H7 H -0.01700 0.29800 -0.04000
H8 H -0.01500 0.19200 0.10000
O1C O 0.01730 -0.07160 0.09250
O2C O -0.21790 -0.04060 -0.12400
O3C O 0.02370 -0.06520 -0.52030
O4C O -0.30150 -0.08720 -0.57870
C1C C -0.07890 -0.14550 -0.15310
C2C C -0.11890 -0.15390 -0.35400
C3C C -0.12650 -0.21580 -0.42980
C4C C -0.09670 -0.26960 -0.31230
C5C C -0.05040 -0.26130 -0.11650
C6C C -0.04210 -0.19950 -0.03860
C7C C -0.09840 -0.07990 -0.05680
C8C C -0.13650 -0.09750 -0.49420
H5C H -0.18100 -0.22000 -0.57600
H6C H -0.10900 -0.31400 -0.38100
H7C H 0.01700 -0.29800 -0.04000
H8C H 0.01500 -0.19200 0.10000
O5C O 0.39110 -0.06630 -0.30790
H1C H 0.47900 -0.06100 -0.41700
H2C H 0.29100 -0.07700 -0.36300
O6C O 0.42910 -0.06410 0.11420
H3C H 0.49900 -0.08200 0.22200
H4C H 0.30100 -0.07400 0.13600
O3_2 O -0.02370 0.06520 0.47970
O3C_2 O 0.02370 -0.06520 0.47970
O2C_2 O 0.78210 -0.04060 -0.12400
Cu1_2 Cu 0.00000 0.00000 -0.72520
Mg1_2 Mg -0.50000 0.00000 -0.10910
loop_
_geom_bond_atom_site_label_1
_geom_bond_atom_site_label_2
_geom_bond_site_symmetry_1
_geom_bond_site_symmetry_2
Cu1 O1 1_555 1_555
Mg1 O2 1_555 1_555
O1 C7 1_555 1_555
O2 C7 1_555 1_555
O3 C8 1_555 1_555
O4 C8 1_555 1_555
O5 Mg1 1_555 1_555
O6 Mg1 1_555 1_555
C1 C2 1_555 1_555
C2 C3 1_555 1_555
C3 C4 1_555 1_555
C4 C5 1_555 1_555
C5 C6 1_555 1_555
C6 C1 1_555 1_555
C7 C1 1_555 1_555
C8 C2 1_555 1_555
H1 O5 1_555 1_555
H2 O5 1_555 1_555
H3 O6 1_555 1_555
H4 O6 1_555 1_555
H5 C3 1_555 1_555
H6 C4 1_555 1_555
H7 C5 1_555 1_555
H8 C6 1_555 1_555
O1C Cu1 1_555 1_555
O2C C7C 1_555 1_555
O3C C8C 1_555 1_555
O4C C8C 1_555 1_555
C1C C2C 1_555 1_555
C2C C3C 1_555 1_555
C3C C4C 1_555 1_555
C4C C5C 1_555 1_555
C5C C6C 1_555 1_555
C6C C1C 1_555 1_555
C7C O1C 1_555 1_555
C8C C2C 1_555 1_555
H5C C3C 1_555 1_555
H6C C4C 1_555 1_555
H7C C5C 1_555 1_555
H8C C6C 1_555 1_555
O5C Mg1 1_555 1_555
H1C O5C 1_555 1_555
H2C O5C 1_555 1_555
O6C Mg1 1_555 1_555
H3C O6C 1_555 1_555
H4C O6C 1_555 1_555
O3_2 Cu1 1_555 1_555
O3C_2 Cu1 1_555 1_555
O2C_2 Mg1 1_555 1_555
Cu1_2 O3 1_555 1_555
Mg1_2 O2C 1_555 1_555
O3C Cu1_2 1_555 1_555
C1C C7C 1_555 1_555

#END
