
#######################################################################
#
#                 Cambridge Crystallographic Data Centre
#                                CCDC 
#
#######################################################################
#
# If this CIF has been generated from an entry in the Cambridge 
# Structural Database, then it will include bibliographic, chemical, 
# crystal, experimental, refinement or atomic coordinate data resulting 
# from the CCDC's data processing and validation procedures.
#
#######################################################################

data_MIBLIT
_symmetry_cell_setting           monoclinic
_symmetry_space_group_name_H-M   'C 2/c'
_symmetry_Int_Tables_number      15
_space_group_name_Hall           '-C 2yn'
loop_
_symmetry_equiv_pos_site_id
_symmetry_equiv_pos_as_xyz
1 x,y,z
2 1/2+x,1/2+y,z
3 -x,y,1/2-z
4 1/2-x,1/2+y,1/2-z
5 -x,-y,-z
6 1/2-x,1/2-y,-z
7 x,-y,1/2+z
8 1/2+x,1/2-y,1/2+z
_cell_length_a                   31.874(7)
_cell_length_b                   17.852(4)
_cell_length_c                   28.471(6)
_cell_angle_alpha                90
_cell_angle_beta                 118.117(4)
_cell_angle_gamma                90
_cell_volume                     14288.6
loop_
_atom_site_label
_atom_site_type_symbol
_atom_site_fract_x
_atom_site_fract_y
_atom_site_fract_z
O27 O 0.0607(8) 0.0629(13) 0.5494(8)
Sb1 Sb 0.94408(3) 0.39987(5) 0.73178(4)
Sb2 Sb 0.92340(3) 0.31783(6) 0.81856(4)
Sb3 Sb 1.01062(3) 0.22997(6) 0.90893(4)
Sb4 Sb 0.92228(3) 0.14321(6) 0.81765(4)
Sb5 Sb 0.94447(3) 0.05933(5) 0.73320(4)
Sb6 Sb 0.89179(3) 0.14185(6) 0.60192(4)
Sb7 Sb 0.86508(3) 0.22939(6) 0.68027(4)
Sb8 Sb 0.89109(3) 0.31707(6) 0.60161(4)
O1 O 0.9018(3) 0.3109(5) 0.7346(4)
O2 O 0.9613(3) 0.3956(5) 0.8083(4)
O3 O 0.9277(3) 0.3883(6) 0.6583(4)
O4 O 1.0000 0.3203(8) 0.7500
O5 O 1.0000 0.4657(7) 0.7500
O6 O 0.9704(3) 0.2294(5) 0.8253(4)
O7 O 0.8821(3) 0.2319(5) 0.8062(4)
O8 O 0.9627(3) 0.3123(6) 0.8953(4)
O9 O 0.9609(3) 0.1490(5) 0.8950(4)
O10 O 0.9470(3) 0.3104(5) 0.5917(4)
O11 O 1.0507(3) 0.1467(5) 0.9064(4)
O12 O 0.9025(3) 0.1481(5) 0.7354(3)
O13 O 0.9611(3) 0.0654(5) 0.8094(4)
O14 O 0.9271(3) 0.0684(5) 0.6596(4)
O15 O 1.0000 0.1363(7) 0.7500
O16 O 1.0000 -0.0060(7) 0.7500
O17 O 0.8419(3) 0.1476(6) 0.6263(4)
O18 O 0.9179(3) 0.2306(5) 0.6590(4)
O19 O 0.8622(3) 0.2293(6) 0.5529(4)
O20 O 0.8416(3) 0.3101(5) 0.6255(4)
O21 O 1.0253(4) 0.5490(8) 0.8448(6)
O22 O 1.0337(7) -0.1040(11) 0.8490(10)
O23 O 1.0008(7) -0.0084(11) 0.9423(6)
O24 O 0.7472(5) 0.1360(12) 0.4186(7)
O25 O 0.8393(11) 0.2278(17) 0.4354(14)
O26 O 0.7410(4) 0.3233(8) 0.4619(5)
N1 N 1.0282(7) 0.4984(12) 0.9581(8)
C1 C 0.8946(3) 0.4914(5) 0.7147(5)
C2 C 0.8463(3) 0.4783(5) 0.6832(4)
H1 H 0.8353 0.4295 0.6695
C3 C 0.8139(2) 0.5365(6) 0.6717(5)
H2 H 0.7809 0.5275 0.6502
C4 C 0.8299(4) 0.6078(5) 0.6917(6)
H3 H 0.8078 0.6476 0.6838
C5 C 0.8782(4) 0.6210(5) 0.7232(6)
H4 H 0.8892 0.6697 0.7368
C6 C 0.9106(3) 0.5628(6) 0.7347(5)
H5 H 0.9437 0.5718 0.7562
C7 C 0.8724(3) 0.3905(6) 0.8226(5)
C8 C 0.8357(4) 0.3582(5) 0.8291(5)
H6 H 0.8346 0.3055 0.8326
C9 C 0.8007(3) 0.4032(7) 0.8304(5)
H7 H 0.7757 0.3812 0.8348
C10 C 0.8023(4) 0.4805(7) 0.8253(5)
H8 H 0.7784 0.5112 0.8262
C11 C 0.8390(4) 0.5127(5) 0.8188(5)
H9 H 0.8401 0.5655 0.8153
C12 C 0.8740(4) 0.4677(6) 0.8175(5)
H10 H 0.8991 0.4898 0.8131
C13 C 1.0356(4) 0.2353(7) 0.9936(3)
C14 C 1.0424(5) 0.1703(6) 1.0232(5)
H11 H 1.0358 0.1228 1.0062
C15 C 1.0589(6) 0.1748(7) 1.0779(5)
H12 H 1.0636 0.1304 1.0981
C16 C 1.0686(6) 0.2442(9) 1.1029(3)
H13 H 1.0799 0.2473 1.1402
C17 C 1.0617(5) 0.3092(6) 1.0732(5)
H14 H 1.0683 0.3567 1.0903
C18 C 1.0453(5) 0.3047(6) 1.0186(5)
H15 H 1.0406 0.3491 0.9983
C19 C 0.8665(3) 0.0732(5) 0.8145(4)
C20 C 0.8229(4) 0.1056(4) 0.8026(5)
H16 H 0.8179 0.1575 0.7944
C21 C 0.7868(3) 0.0621(6) 0.8026(5)
H17 H 0.7570 0.0842 0.7944
C22 C 0.7942(3) -0.0138(6) 0.8145(5)
H18 H 0.7695 -0.0435 0.8145
C23 C 0.8377(4) -0.0462(5) 0.8265(5)
H19 H 0.8428 -0.0981 0.8347
C24 C 0.8739(3) -0.0027(6) 0.8265(5)
H20 H 0.9037 -0.0248 0.8347
C25 C 0.8953(3) -0.0294(5) 0.7197(4)
C26 C 0.8477(3) -0.0214(5) 0.6824(4)
H21 H 0.8367 0.0241 0.6631
C27 C 0.8161(2) -0.0800(6) 0.6733(4)
H22 H 0.7835 -0.0746 0.6478
C28 C 0.8320(3) -0.1466(5) 0.7015(5)
H23 H 0.8104 -0.1867 0.6953
C29 C 0.8797(4) -0.1546(5) 0.7388(5)
H24 H 0.8906 -0.2001 0.7581
C30 C 0.9113(3) -0.0960(6) 0.7479(4)
H25 H 0.9438 -0.1014 0.7734
C31 C 0.8574(4) 0.0562(7) 0.5417(5)
C32 C 0.8296(6) 0.0007(9) 0.5475(5)
H26 H 0.8245 0.0006 0.5778
C33 C 0.8092(6) -0.0547(8) 0.5089(6)
H27 H 0.7902 -0.0927 0.5129
C34 C 0.8167(6) -0.0547(8) 0.4646(5)
H28 H 0.8028 -0.0925 0.4383
C35 C 0.8445(6) 0.0009(10) 0.4588(5)
H29 H 0.8496 0.0009 0.4285
C36 C 0.8648(5) 0.0563(8) 0.4973(6)
H30 H 0.8838 0.0942 0.4934
C37 C 0.8023(3) 0.2308(6) 0.6888(4)
C38 C 0.7898(3) 0.2928(5) 0.7090(5)
H31 H 0.8105 0.3348 0.7216
C39 C 0.7470(4) 0.2934(6) 0.7107(5)
H32 H 0.7384 0.3358 0.7245
C40 C 0.7166(3) 0.2320(7) 0.6923(5)
H33 H 0.6874 0.2324 0.6935
C41 C 0.7292(3) 0.1700(6) 0.6721(5)
H34 H 0.7085 0.1280 0.6595
C42 C 0.7720(4) 0.1694(5) 0.6704(5)
H35 H 0.7806 0.1270 0.6566
C43 C 0.8560(4) 0.3997(6) 0.5415(4)
C44 C 0.8552(4) 0.3930(6) 0.4925(5)
H36 H 0.8698 0.3511 0.4854
C45 C 0.8331(5) 0.4476(8) 0.4537(4)
H37 H 0.8326 0.4431 0.4202
C46 C 0.8118(6) 0.5089(7) 0.4640(5)
H38 H 0.7967 0.5462 0.4375
C47 C 0.8126(6) 0.5156(8) 0.5130(6)
H39 H 0.7980 0.5575 0.5200
C48 C 0.8347(6) 0.4610(8) 0.5518(4)
H40 H 0.8352 0.4655 0.5853
C49 C 1.0494(9) 0.5382(18) 0.9974(11)
C50 C 1.0751(10) 0.5868(17) 1.0417(11)
H41 H 1.0863 0.6306 1.0300
H42 H 1.1024 0.5599 1.0693
H43 H 1.0541 0.6033 1.0562
Na1 Na 1.0235(2) 0.4337(4) 0.8829(3)
Na2 Na 1.0256(2) 0.0210(4) 0.8811(3)
Na3 Na 0.7915(3) 0.2202(6) 0.4816(3)
Sb1B Sb 1.05592(3) 0.39987(5) 0.76822(4)
Sb2B Sb 1.07660(3) 0.31783(6) 0.68144(4)
Sb3B Sb 0.98938(3) 0.22997(6) 0.59107(4)
Sb4B Sb 1.07772(3) 0.14321(6) 0.68235(4)
Sb5B Sb 1.05553(3) 0.05933(5) 0.76680(4)
Sb6B Sb 1.10821(3) 0.14185(6) 0.89808(4)
Sb7B Sb 1.13492(3) 0.22939(6) 0.81973(4)
Sb8B Sb 1.10891(3) 0.31707(6) 0.89839(4)
O1B O 1.0982(3) 0.3109(5) 0.7654(4)
O2B O 1.0387(3) 0.3956(5) 0.6917(4)
O3B O 1.0723(3) 0.3883(6) 0.8417(4)
O6B O 1.0296(3) 0.2294(5) 0.6747(4)
O7B O 1.1179(3) 0.2319(5) 0.6938(4)
O8B O 1.0373(3) 0.3123(6) 0.6047(4)
O9B O 1.0391(3) 0.1490(5) 0.6050(4)
O10B O 1.0530(3) 0.3104(5) 0.9083(4)
O11B O 0.9493(3) 0.1467(5) 0.5936(4)
O12B O 1.0975(3) 0.1481(5) 0.7646(3)
O13B O 1.0389(3) 0.0654(5) 0.6906(4)
O14B O 1.0729(3) 0.0684(5) 0.8404(4)
O17B O 1.1581(3) 0.1476(6) 0.8737(4)
O18B O 1.0821(3) 0.2306(5) 0.8410(4)
O19B O 1.1378(3) 0.2293(6) 0.9471(4)
O20B O 1.1584(3) 0.3101(5) 0.8745(4)
O21B O 0.9747(4) 0.5490(8) 0.6552(6)
O22B O 0.9663(7) -0.1040(11) 0.6510(10)
O23B O 0.9992(7) -0.0084(11) 0.5577(6)
O24B O 1.2528(5) 0.1360(12) 1.0814(7)
O25B O 1.1607(11) 0.2278(17) 1.0646(14)
O26E O 0.7590(4) 0.1767(8) 0.5381(5)
O26G O 1.2410(4) 0.1767(8) 0.9619(5)
O26B O 1.2590(4) 0.3233(8) 1.0381(5)
N1B N 0.9718(7) 0.4984(12) 0.5419(8)
C1B C 1.1054(3) 0.4914(5) 0.7853(5)
C2B C 1.1537(3) 0.4783(5) 0.8168(4)
H1B H 1.1647 0.4295 0.8305
C3B C 1.1861(2) 0.5365(6) 0.8283(5)
H2B H 1.2191 0.5275 0.8498
C4B C 1.1701(4) 0.6078(5) 0.8083(6)
H3B H 1.1922 0.6476 0.8162
C5B C 1.1218(4) 0.6210(5) 0.7768(6)
H4B H 1.1108 0.6697 0.7632
C6B C 1.0894(3) 0.5628(6) 0.7653(5)
H5B H 1.0563 0.5718 0.7438
C7B C 1.1276(3) 0.3905(6) 0.6774(5)
C8B C 1.1643(4) 0.3582(5) 0.6709(5)
H6B H 1.1654 0.3055 0.6674
C9B C 1.1993(3) 0.4032(7) 0.6696(5)
H7B H 1.2243 0.3812 0.6652
C10B C 1.1977(4) 0.4805(7) 0.6747(5)
H8B H 1.2216 0.5112 0.6738
C11B C 1.1610(4) 0.5127(5) 0.6812(5)
H9B H 1.1599 0.5655 0.6847
C12B C 1.1260(4) 0.4677(6) 0.6825(5)
H10B H 1.1009 0.4898 0.6869
C13B C 0.9644(4) 0.2353(7) 0.5064(3)
C14B C 0.9576(5) 0.1703(6) 0.4768(5)
H11B H 0.9642 0.1228 0.4938
C15B C 0.9411(6) 0.1748(7) 0.4221(5)
H12B H 0.9364 0.1304 0.4019
C16B C 0.9314(6) 0.2442(9) 0.3971(3)
H13B H 0.9201 0.2473 0.3598
C17B C 0.9383(5) 0.3092(6) 0.4268(5)
H14B H 0.9317 0.3567 0.4097
C18B C 0.9547(5) 0.3047(6) 0.4814(5)
H15B H 0.9594 0.3491 0.5017
C19B C 1.1335(3) 0.0732(5) 0.6855(4)
C20B C 1.1771(4) 0.1056(4) 0.6974(5)
H16B H 1.1821 0.1575 0.7056
C21B C 1.2132(3) 0.0621(6) 0.6974(5)
H17B H 1.2430 0.0842 0.7056
C22B C 1.2058(3) -0.0138(6) 0.6855(5)
H18B H 1.2305 -0.0435 0.6855
C23B C 1.1623(4) -0.0462(5) 0.6735(5)
H19B H 1.1572 -0.0981 0.6653
C24B C 1.1261(3) -0.0027(6) 0.6735(5)
H20B H 1.0963 -0.0248 0.6653
C25B C 1.1047(3) -0.0294(5) 0.7803(4)
C26B C 1.1523(3) -0.0214(5) 0.8176(4)
H21B H 1.1633 0.0241 0.8369
C27B C 1.1839(2) -0.0800(6) 0.8267(4)
H22B H 1.2165 -0.0746 0.8522
C28B C 1.1680(3) -0.1466(5) 0.7985(5)
H23B H 1.1896 -0.1867 0.8047
C29B C 1.1203(4) -0.1546(5) 0.7612(5)
H24B H 1.1094 -0.2001 0.7419
C30B C 1.0887(3) -0.0960(6) 0.7521(4)
H25B H 1.0562 -0.1014 0.7266
C31B C 1.1426(4) 0.0562(7) 0.9583(5)
C32B C 1.1704(6) 0.0007(9) 0.9525(5)
H26B H 1.1755 0.0006 0.9222
C33B C 1.1908(6) -0.0547(8) 0.9911(6)
H27B H 1.2098 -0.0927 0.9871
C34B C 1.1833(6) -0.0547(8) 1.0354(5)
H28B H 1.1972 -0.0925 1.0617
C35B C 1.1555(6) 0.0009(10) 1.0412(5)
H29B H 1.1504 0.0009 1.0715
C36B C 1.1352(5) 0.0563(8) 1.0027(6)
H30B H 1.1162 0.0942 1.0066
C37B C 1.1977(3) 0.2308(6) 0.8112(4)
C38B C 1.2102(3) 0.2928(5) 0.7910(5)
H31B H 1.1895 0.3348 0.7784
C39B C 1.2530(4) 0.2934(6) 0.7893(5)
H32B H 1.2616 0.3358 0.7755
C40B C 1.2834(3) 0.2320(7) 0.8077(5)
H33B H 1.3126 0.2324 0.8065
C41B C 1.2708(3) 0.1700(6) 0.8279(5)
H34B H 1.2915 0.1280 0.8405
C42B C 1.2280(4) 0.1694(5) 0.8296(5)
H35B H 1.2194 0.1270 0.8434
C43B C 1.1440(4) 0.3997(6) 0.9585(4)
C44B C 1.1448(4) 0.3930(6) 1.0075(5)
H36B H 1.1302 0.3511 1.0146
C45B C 1.1669(5) 0.4476(8) 1.0463(4)
H37B H 1.1674 0.4431 1.0798
C46B C 1.1882(6) 0.5089(7) 1.0360(5)
H38B H 1.2033 0.5462 1.0625
C47B C 1.1874(6) 0.5156(8) 0.9870(6)
H39B H 1.2020 0.5575 0.9800
C48B C 1.1653(6) 0.4610(8) 0.9482(4)
H40B H 1.1648 0.4655 0.9147
C49B C 0.9506(9) 0.5382(18) 0.5026(11)
C50B C 0.9249(10) 0.5868(17) 0.4583(11)
H41B H 0.9137 0.6306 0.4700
H42B H 0.8976 0.5599 0.4307
H43B H 0.9459 0.6033 0.4438
Na1B Na 0.9765(2) 0.4337(4) 0.6171(3)
Na2B Na 0.9744(2) 0.0210(4) 0.6189(3)
Na3B Na 1.2085(3) 0.2202(6) 1.0184(3)
Na3E Na 0.7085(3) 0.2798(6) 0.5184(3)
loop_
_geom_bond_atom_site_label_1
_geom_bond_atom_site_label_2
_geom_bond_site_symmetry_1
_geom_bond_site_symmetry_2
Sb1 O1 1_555 1_555
Sb2 O1 1_555 1_555
Sb3 O6 1_555 1_555
Sb4 O6 1_555 1_555
Sb5 O12 1_555 1_555
Sb6 O14 1_555 1_555
Sb7 O1 1_555 1_555
Sb8 O3 1_555 1_555
O2 Sb1 1_555 1_555
O3 Sb1 1_555 1_555
O4 Sb1 1_555 1_555
O5 Sb1 1_555 1_555
O6 Sb2 1_555 1_555
O7 Sb2 1_555 1_555
O8 Sb2 1_555 1_555
O9 Sb3 1_555 1_555
O10 Sb8 1_555 1_555
O11 Sb3 1_555 1_555
O12 Sb4 1_555 1_555
O13 Sb4 1_555 1_555
O14 Sb5 1_555 1_555
O15 Sb5 1_555 1_555
O16 Sb5 1_555 1_555
O17 Sb6 1_555 1_555
O18 Sb6 1_555 1_555
O19 Sb6 1_555 1_555
O20 Sb7 1_555 1_555
O21 Na1 1_555 1_555
O22 Na2 1_555 1_555
O23 Na2 1_555 1_555
O24 Na3 1_555 1_555
O25 Na3 1_555 1_555
O26 Na3 1_555 1_555
N1 C49 1_555 1_555
C1 Sb1 1_555 1_555
C2 C1 1_555 1_555
H1 C2 1_555 1_555
C3 C2 1_555 1_555
H2 C3 1_555 1_555
C4 C3 1_555 1_555
H3 C4 1_555 1_555
C5 C4 1_555 1_555
H4 C5 1_555 1_555
C6 C1 1_555 1_555
H5 C6 1_555 1_555
C7 Sb2 1_555 1_555
C8 C7 1_555 1_555
H6 C8 1_555 1_555
C9 C8 1_555 1_555
H7 C9 1_555 1_555
C10 C9 1_555 1_555
H8 C10 1_555 1_555
C11 C10 1_555 1_555
H9 C11 1_555 1_555
C12 C7 1_555 1_555
H10 C12 1_555 1_555
C13 Sb3 1_555 1_555
C14 C13 1_555 1_555
H11 C14 1_555 1_555
C15 C14 1_555 1_555
H12 C15 1_555 1_555
C16 C15 1_555 1_555
H13 C16 1_555 1_555
C17 C16 1_555 1_555
H14 C17 1_555 1_555
C18 C13 1_555 1_555
H15 C18 1_555 1_555
C19 Sb4 1_555 1_555
C20 C19 1_555 1_555
H16 C20 1_555 1_555
C21 C20 1_555 1_555
H17 C21 1_555 1_555
C22 C21 1_555 1_555
H18 C22 1_555 1_555
C23 C22 1_555 1_555
H19 C23 1_555 1_555
C24 C19 1_555 1_555
H20 C24 1_555 1_555
C25 Sb5 1_555 1_555
C26 C25 1_555 1_555
H21 C26 1_555 1_555
C27 C26 1_555 1_555
H22 C27 1_555 1_555
C28 C27 1_555 1_555
H23 C28 1_555 1_555
C29 C28 1_555 1_555
H24 C29 1_555 1_555
C30 C25 1_555 1_555
H25 C30 1_555 1_555
C31 Sb6 1_555 1_555
C32 C31 1_555 1_555
H26 C32 1_555 1_555
C33 C32 1_555 1_555
H27 C33 1_555 1_555
C34 C33 1_555 1_555
H28 C34 1_555 1_555
C35 C34 1_555 1_555
H29 C35 1_555 1_555
C36 C31 1_555 1_555
H30 C36 1_555 1_555
C37 Sb7 1_555 1_555
C38 C37 1_555 1_555
H31 C38 1_555 1_555
C39 C38 1_555 1_555
H32 C39 1_555 1_555
C40 C39 1_555 1_555
H33 C40 1_555 1_555
C41 C40 1_555 1_555
H34 C41 1_555 1_555
C42 C37 1_555 1_555
H35 C42 1_555 1_555
C43 Sb8 1_555 1_555
C44 C43 1_555 1_555
H36 C44 1_555 1_555
C45 C44 1_555 1_555
H37 C45 1_555 1_555
C46 C45 1_555 1_555
H38 C46 1_555 1_555
C47 C46 1_555 1_555
H39 C47 1_555 1_555
C48 C43 1_555 1_555
H40 C48 1_555 1_555
C49 C50 1_555 1_555
C50 H41 1_555 1_555
H42 C50 1_555 1_555
H43 C50 1_555 1_555
Na1 O2 1_555 1_555
Na2 O11 1_555 1_555
Na3 O19 1_555 1_555
Sb1B O4 1_555 1_555
Sb2B O1B 1_555 1_555
Sb3B O10 1_555 1_555
Sb4B O6B 1_555 1_555
Sb5B O15 1_555 1_555
Sb6B O11 1_555 1_555
Sb7B O1B 1_555 1_555
Sb8B O3B 1_555 1_555
O1B Sb1B 1_555 1_555
O2B Sb1B 1_555 1_555
O3B Na1 1_555 1_555
O6B Sb2B 1_555 1_555
O7B Sb2B 1_555 1_555
O8B Sb2B 1_555 1_555
O9B Sb3B 1_555 1_555
O10B Sb3 1_555 1_555
O11B Sb6 1_555 1_555
O12B Sb4B 1_555 1_555
O13B Sb4B 1_555 1_555
O14B Na2 1_555 1_555
O17B Sb6B 1_555 1_555
O18B Sb6B 1_555 1_555
O19B Sb6B 1_555 1_555
O20B Sb7B 1_555 1_555
O21B Na1B 1_555 1_555
O22B Na2B 1_555 1_555
O23B Na2B 1_555 1_555
O24B Na3B 1_555 1_555
O25B Na3B 1_555 1_555
O26E Na3 1_555 1_555
O26G Na3B 1_555 1_555
O26B Na3B 1_555 1_555
N1B C49B 1_555 1_555
C1B Sb1B 1_555 1_555
C2B C1B 1_555 1_555
H1B C2B 1_555 1_555
C3B C2B 1_555 1_555
H2B C3B 1_555 1_555
C4B C3B 1_555 1_555
H3B C4B 1_555 1_555
C5B C4B 1_555 1_555
H4B C5B 1_555 1_555
C6B C1B 1_555 1_555
H5B C6B 1_555 1_555
C7B Sb2B 1_555 1_555
C8B C7B 1_555 1_555
H6B C8B 1_555 1_555
C9B C8B 1_555 1_555
H7B C9B 1_555 1_555
C10B C9B 1_555 1_555
H8B C10B 1_555 1_555
C11B C10B 1_555 1_555
H9B C11B 1_555 1_555
C12B C7B 1_555 1_555
H10B C12B 1_555 1_555
C13B Sb3B 1_555 1_555
C14B C13B 1_555 1_555
H11B C14B 1_555 1_555
C15B C14B 1_555 1_555
H12B C15B 1_555 1_555
C16B C15B 1_555 1_555
H13B C16B 1_555 1_555
C17B C16B 1_555 1_555
H14B C17B 1_555 1_555
C18B C13B 1_555 1_555
H15B C18B 1_555 1_555
C19B Sb4B 1_555 1_555
C20B C19B 1_555 1_555
H16B C20B 1_555 1_555
C21B C20B 1_555 1_555
H17B C21B 1_555 1_555
C22B C21B 1_555 1_555
H18B C22B 1_555 1_555
C23B C22B 1_555 1_555
H19B C23B 1_555 1_555
C24B C19B 1_555 1_555
H20B C24B 1_555 1_555
C25B Sb5B 1_555 1_555
C26B C25B 1_555 1_555
H21B C26B 1_555 1_555
C27B C26B 1_555 1_555
H22B C27B 1_555 1_555
C28B C27B 1_555 1_555
H23B C28B 1_555 1_555
C29B C28B 1_555 1_555
H24B C29B 1_555 1_555
C30B C25B 1_555 1_555
H25B C30B 1_555 1_555
C31B Sb6B 1_555 1_555
C32B C31B 1_555 1_555
H26B C32B 1_555 1_555
C33B C32B 1_555 1_555
H27B C33B 1_555 1_555
C34B C33B 1_555 1_555
H28B C34B 1_555 1_555
C35B C34B 1_555 1_555
H29B C35B 1_555 1_555
C36B C31B 1_555 1_555
H30B C36B 1_555 1_555
C37B Sb7B 1_555 1_555
C38B C37B 1_555 1_555
H31B C38B 1_555 1_555
C39B C38B 1_555 1_555
H32B C39B 1_555 1_555
C40B C39B 1_555 1_555
H33B C40B 1_555 1_555
C41B C40B 1_555 1_555
H34B C41B 1_555 1_555
C42B C37B 1_555 1_555
H35B C42B 1_555 1_555
C43B Sb8B 1_555 1_555
C44B C43B 1_555 1_555
H36B C44B 1_555 1_555
C45B C44B 1_555 1_555
H37B C45B 1_555 1_555
C46B C45B 1_555 1_555
H38B C46B 1_555 1_555
C47B C46B 1_555 1_555
H39B C47B 1_555 1_555
C48B C43B 1_555 1_555
H40B C48B 1_555 1_555
C49B C50B 1_555 1_555
C50B H41B 1_555 1_555
H42B C50B 1_555 1_555
H43B C50B 1_555 1_555
Na1B O3 1_555 1_555
Na2B O14 1_555 1_555
Na3B O19B 1_555 1_555
Na3E O26 1_555 1_555
Sb2 O2 1_555 1_555
Sb3 O8 1_555 1_555
Sb4 O7 1_555 1_555
Sb4 O9 1_555 1_555
Sb5 O13 1_555 1_555
Sb7 O12 1_555 1_555
Sb7 O17 1_555 1_555
Sb7 O18 1_555 1_555
Sb8 O18 1_555 1_555
Sb8 O19 1_555 1_555
Sb8 O20 1_555 1_555
O5 Sb1B 1_555 1_555
O10 Na1B 1_555 1_555
O13 Na2 1_555 1_555
O16 Sb5B 1_555 1_555
N1 Na1 1_555 1_555
C5 C6 1_555 1_555
C11 C12 1_555 1_555
C17 C18 1_555 1_555
C23 C24 1_555 1_555
C29 C30 1_555 1_555
C35 C36 1_555 1_555
C41 C42 1_555 1_555
C47 C48 1_555 1_555
Na1 O10B 1_555 1_555
Sb1B O3B 1_555 1_555
Sb2B O2B 1_555 1_555
Sb3B O6B 1_555 1_555
Sb3B O8B 1_555 1_555
Sb3B O11B 1_555 1_555
Sb4B O7B 1_555 1_555
Sb4B O9B 1_555 1_555
Sb5B O12B 1_555 1_555
Sb5B O13B 1_555 1_555
Sb5B O14B 1_555 1_555
Sb6B O14B 1_555 1_555
Sb7B O12B 1_555 1_555
Sb7B O17B 1_555 1_555
Sb7B O18B 1_555 1_555
Sb8B O10B 1_555 1_555
Sb8B O18B 1_555 1_555
Sb8B O19B 1_555 1_555
Sb8B O20B 1_555 1_555
O2B Na1B 1_555 1_555
O11B Na2B 1_555 1_555
O13B Na2B 1_555 1_555
O26E Na3E 1_555 1_555
N1B Na1B 1_555 1_555
C5B C6B 1_555 1_555
C11B C12B 1_555 1_555
C17B C18B 1_555 1_555
C23B C24B 1_555 1_555
C29B C30B 1_555 1_555
C35B C36B 1_555 1_555
C41B C42B 1_555 1_555
C47B C48B 1_555 1_555

#END
