
#######################################################################
#
#                 Cambridge Crystallographic Data Centre
#                                CCDC 
#
#######################################################################
#
# If this CIF has been generated from an entry in the Cambridge 
# Structural Database, then it will include bibliographic, chemical, 
# crystal, experimental, refinement or atomic coordinate data resulting 
# from the CCDC's data processing and validation procedures.
#
#######################################################################

data_MIBQAP
_symmetry_cell_setting           monoclinic
_symmetry_space_group_name_H-M   'P 21/a'
_symmetry_Int_Tables_number      14
_space_group_name_Hall           '-P 2yab'
loop_
_symmetry_equiv_pos_site_id
_symmetry_equiv_pos_as_xyz
1 x,y,z
2 1/2+x,1/2-y,z
3 -x,-y,-z
4 1/2-x,1/2+y,-z
_cell_length_a                   10.2227(4)
_cell_length_b                   6.4498(2)
_cell_length_c                   19.7438(8)
_cell_angle_alpha                90
_cell_angle_beta                 94.117(2)
_cell_angle_gamma                90
_cell_volume                     1298.44
loop_
_atom_site_label
_atom_site_type_symbol
_atom_site_fract_x
_atom_site_fract_y
_atom_site_fract_z
S1 S 0.29214(5) 0.96080(10) 0.29491(3)
O1 O 0.40386(15) 0.9028(3) 0.25725(9)
O2 O 0.17735(15) 0.8257(3) 0.28936(9)
O3 O 0.57048(17) 0.8191(3) 0.14150(9)
N1 N 0.4152(2) 1.4420(4) 0.22577(12)
C1 C 0.2472(3) 1.2015(4) 0.27361(14)
C2 C 0.3389(2) 1.3331(4) 0.24811(13)
C3 C 0.3527(2) 0.9419(4) 0.38368(12)
C4 C 0.4777(2) 1.0707(5) 0.39329(14)
H1 H 0.4590 1.2140 0.3792
H2 H 0.5446 1.0125 0.3656
H3 H 0.5101 1.0685 0.4412
C5 C 0.3811(3) 0.7127(4) 0.39871(14)
H4 H 0.4167 0.6974 0.4459
H5 H 0.4452 0.6612 0.3681
H6 H 0.2998 0.6328 0.3918
C6 C 0.2481(2) 1.0245(5) 0.42785(14)
H7 H 0.2798 1.0150 0.4758
H8 H 0.1679 0.9420 0.4200
H9 H 0.2292 1.1696 0.4162
C7 C 0.6851(3) 0.7623(6) 0.10745(17)
H10 H 0.6652 0.6429 0.0769
H11 H 0.7571 0.7223 0.1411
C8 C 0.7246(3) 0.9437(6) 0.06769(18)
H12 H 0.7133 0.9144 0.0184
H13 H 0.8175 0.9800 0.0797
C9 C 0.6354(3) 1.1169(5) 0.08646(17)
H14 H 0.6786 1.2057 0.1224
H15 H 0.6090 1.2038 0.0465
C10 C 0.5202(3) 1.0067(5) 0.11165(16)
H16 H 0.4784 1.0921 0.1457
H17 H 0.4543 0.9766 0.0737
Li1 Li 0.5234(4) 0.7008(7) 0.2274(2)
H18 H 0.162(2) 1.242(4) 0.2786(12)
O2A O 0.67735(15) 0.6743(3) 0.28936(9)
N1_2 N 0.4152(2) 0.4420(4) 0.22577(12)
Li1A Li 0.0234(4) 0.7992(7) 0.2274(2)
Li1_2 Li 0.5234(4) 1.7008(7) 0.2274(2)
loop_
_geom_bond_atom_site_label_1
_geom_bond_atom_site_label_2
_geom_bond_site_symmetry_1
_geom_bond_site_symmetry_2
S1 O1 1_555 1_555
O1 Li1 1_555 1_555
O2 S1 1_555 1_555
O3 C7 1_555 1_555
N1 C2 1_555 1_555
C1 S1 1_555 1_555
C2 C1 1_555 1_555
C3 S1 1_555 1_555
C4 C3 1_555 1_555
H1 C4 1_555 1_555
H2 C4 1_555 1_555
H3 C4 1_555 1_555
C5 C3 1_555 1_555
H4 C5 1_555 1_555
H5 C5 1_555 1_555
H6 C5 1_555 1_555
C6 C3 1_555 1_555
H7 C6 1_555 1_555
H8 C6 1_555 1_555
H9 C6 1_555 1_555
C7 H10 1_555 1_555
H11 C7 1_555 1_555
C8 C7 1_555 1_555
H12 C8 1_555 1_555
H13 C8 1_555 1_555
C9 C8 1_555 1_555
H14 C9 1_555 1_555
H15 C9 1_555 1_555
C10 O3 1_555 1_555
H16 C10 1_555 1_555
H17 C10 1_555 1_555
Li1 O3 1_555 1_555
H18 C1 1_555 1_555
O2A Li1 1_555 1_555
N1_2 Li1 1_555 1_555
Li1A O2 1_555 1_555
Li1_2 N1 1_555 1_555
C9 C10 1_555 1_555

#END
