
#######################################################################
#
#                 Cambridge Crystallographic Data Centre
#                                CCDC 
#
#######################################################################
#
# If this CIF has been generated from an entry in the Cambridge 
# Structural Database, then it will include bibliographic, chemical, 
# crystal, experimental, refinement or atomic coordinate data resulting 
# from the CCDC's data processing and validation procedures.
#
#######################################################################

data_MIBZUS
_symmetry_cell_setting           orthorhombic
_symmetry_space_group_name_H-M   'P 21 21 2'
_symmetry_Int_Tables_number      18
_space_group_name_Hall           'P 2 2ab'
loop_
_symmetry_equiv_pos_site_id
_symmetry_equiv_pos_as_xyz
1 x,y,z
2 -x,-y,z
3 1/2+x,1/2-y,-z
4 1/2-x,1/2+y,-z
_cell_length_a                   15.374(6)
_cell_length_b                   14.999(4)
_cell_length_c                   10.784(4)
_cell_angle_alpha                90
_cell_angle_beta                 90
_cell_angle_gamma                90
_cell_volume                     2486.73
loop_
_atom_site_label
_atom_site_type_symbol
_atom_site_fract_x
_atom_site_fract_y
_atom_site_fract_z
Cu1 Cu 0.02634(8) -0.22892(8) -0.17573(11)
Cu2 Cu 0.06377(8) -0.29661(8) 0.32623(12)
O1 O 0.0960(5) -0.3195(5) 0.1571(6)
O2 O 0.0550(4) -0.1861(4) -0.3393(6)
N1 N -0.0503(5) -0.1260(5) -0.1316(8)
N2 N 0.0301(6) -0.2414(6) -0.0002(7)
N3 N 0.0967(5) -0.3409(5) -0.1717(8)
N4 N -0.0375(5) -0.3799(5) -0.6633(8)
N5 N 0.0453(5) -0.2844(6) -0.5008(7)
N6 N 0.1606(5) -0.2128(6) -0.6333(7)
C1 C -0.0867(8) -0.0683(8) -0.2165(13)
C2 C -0.1340(7) 0.0029(7) -0.1757(14)
C3 C -0.1474(8) 0.0148(8) -0.0521(14)
C4 C -0.1112(8) -0.0429(8) 0.0332(13)
C5 C -0.0632(7) -0.1140(7) -0.0139(10)
C6 C -0.0245(7) -0.1825(7) 0.0721(9)
C7 C 0.0811(7) -0.3001(7) 0.0485(9)
C8 C 0.1374(7) -0.3480(8) -0.0484(10)
C9 C 0.2285(7) -0.3032(10) -0.0494(11)
C10 C -0.0756(7) -0.4220(8) -0.7600(10)
C11 C -0.1438(8) -0.4802(8) -0.7369(11)
C12 C -0.1707(8) -0.4964(9) -0.6235(12)
C13 C -0.1316(7) -0.4535(7) -0.5213(10)
C14 C -0.0666(7) -0.3930(7) -0.5485(10)
C15 C -0.0228(7) -0.3413(8) -0.4464(9)
C16 C 0.0733(7) -0.2147(8) -0.4439(9)
C17 C 0.1364(7) -0.1608(7) -0.5239(9)
C18 C 0.0939(9) -0.0730(7) -0.5627(13)
Cl1 Cl -0.15221(18) -0.39164(18) -0.1486(2)
O3 O -0.1331(6) -0.3032(5) -0.1884(10)
O4 O -0.2328(6) -0.4182(7) -0.1956(10)
O5 O -0.0878(7) -0.4510(6) -0.1978(13)
O6 O -0.1535(7) -0.3945(8) -0.0200(8)
H1 H 0.0623 -0.3884 -0.1857
H2 H 0.1379 -0.3393 -0.2310
H3 H 0.2097 -0.2436 -0.6182
H4 H 0.1704 -0.1761 -0.6979
H5 H -0.0792 -0.0779 -0.3010
H6 H -0.1570 0.0432 -0.2324
H7 H -0.1814 0.0623 -0.0249
H8 H -0.1185 -0.0347 0.1180
H9 H 0.0098 -0.1534 0.1359
H10 H -0.0704 -0.2163 0.1121
H11 H 0.1434 -0.4110 -0.0258
H12 H 0.2597 -0.3197 0.0242
H13 H 0.2218 -0.2396 -0.0520
H14 H 0.2603 -0.3227 -0.1211
H15 H -0.0565 -0.4121 -0.8406
H16 H -0.1711 -0.5085 -0.8031
H17 H -0.2159 -0.5364 -0.6105
H18 H -0.1487 -0.4653 -0.4402
H19 H -0.0652 -0.3047 -0.4034
H20 H 0.0028 -0.3821 -0.3869
H21 H 0.1888 -0.1479 -0.4755
H22 H 0.0764 -0.0406 -0.4901
H23 H 0.0438 -0.0853 -0.6130
H24 H 0.1348 -0.0381 -0.6093
N5_2 N 0.0453(5) -0.2844(6) 0.4992(7)
Cu2_2 Cu 0.06377(8) -0.29661(8) -0.67377(12)
N4_2 N -0.0375(5) -0.3799(5) 0.3367(8)
N6_2 N 0.1606(5) -0.2128(6) 0.3667(7)
H3_2 H 0.2097 -0.2436 0.3818
H4_2 H 0.1704 -0.1761 0.3021
Cl2 Cl -0.19005(19) -0.1709(2) 0.3950(3)
O7 O -0.2179(7) -0.2544(6) 0.3462(13)
O8 O -0.1849(7) -0.1744(10) 0.5249(9)
O9 O -0.2530(8) -0.1078(8) 0.3608(11)
O10 O -0.1104(7) -0.1489(8) 0.3411(11)
loop_
_geom_bond_atom_site_label_1
_geom_bond_atom_site_label_2
_geom_bond_site_symmetry_1
_geom_bond_site_symmetry_2
Cu1 O2 1_555 1_555
Cu2 O1 1_555 1_555
O1 C7 1_555 1_555
O2 C16 1_555 1_555
N1 Cu1 1_555 1_555
N2 Cu1 1_555 1_555
N3 Cu1 1_555 1_555
N4 C10 1_555 1_555
N5 C15 1_555 1_555
N6 C17 1_555 1_555
C1 N1 1_555 1_555
C2 C1 1_555 1_555
C3 C2 1_555 1_555
C4 C3 1_555 1_555
C5 N1 1_555 1_555
C6 N2 1_555 1_555
C7 N2 1_555 1_555
C8 N3 1_555 1_555
C9 C8 1_555 1_555
C10 C11 1_555 1_555
C11 C12 1_555 1_555
C12 C13 1_555 1_555
C13 C14 1_555 1_555
C14 N4 1_555 1_555
C15 C14 1_555 1_555
C16 N5 1_555 1_555
C17 C16 1_555 1_555
C18 C17 1_555 1_555
Cl1 O3 1_555 1_555
O3 Cu1 1_555 1_555
O4 Cl1 1_555 1_555
O5 Cl1 1_555 1_555
O6 Cl1 1_555 1_555
Cl2 O7 1_555 1_555
O8 Cl2 1_555 1_555
O9 Cl2 1_555 1_555
O10 Cl2 1_555 1_555
H1 N3 1_555 1_555
H2 N3 1_555 1_555
H3 N6 1_555 1_555
H4 N6 1_555 1_555
H5 C1 1_555 1_555
H6 C2 1_555 1_555
H7 C3 1_555 1_555
H8 C4 1_555 1_555
H9 C6 1_555 1_555
H10 C6 1_555 1_555
H11 C8 1_555 1_555
H12 C9 1_555 1_555
H13 C9 1_555 1_555
H14 C9 1_555 1_555
H15 C10 1_555 1_555
H16 C11 1_555 1_555
H17 C12 1_555 1_555
H18 C13 1_555 1_555
H19 C15 1_555 1_555
H20 C15 1_555 1_555
H21 C17 1_555 1_555
H22 C18 1_555 1_555
H23 C18 1_555 1_555
H24 C18 1_555 1_555
N5_2 Cu2 1_555 1_555
Cu2_2 N4 1_555 1_555
N4_2 Cu2 1_555 1_555
N6_2 Cu2 1_555 1_555
H3_2 N6_2 1_555 1_555
H4_2 N6_2 1_555 1_555
N5 Cu2_2 1_555 1_555
N6 Cu2_2 1_555 1_555
C4 C5 1_555 1_555
C5 C6 1_555 1_555
C7 C8 1_555 1_555

#END
