
#######################################################################
#
#                 Cambridge Crystallographic Data Centre
#                                CCDC 
#
#######################################################################
#
# If this CIF has been generated from an entry in the Cambridge 
# Structural Database, then it will include bibliographic, chemical, 
# crystal, experimental, refinement or atomic coordinate data resulting 
# from the CCDC's data processing and validation procedures.
#
#######################################################################

data_MICBAD
_symmetry_cell_setting           monoclinic
_symmetry_space_group_name_H-M   'P 21/c'
_symmetry_Int_Tables_number      14
_space_group_name_Hall           '-P 2ybc'
loop_
_symmetry_equiv_pos_site_id
_symmetry_equiv_pos_as_xyz
1 x,y,z
2 -x,1/2+y,1/2-z
3 -x,-y,-z
4 x,1/2-y,1/2+z
_cell_length_a                   7.4717(15)
_cell_length_b                   16.283(3)
_cell_length_c                   9.5645(19)
_cell_angle_alpha                90
_cell_angle_beta                 91.32(3)
_cell_angle_gamma                90
_cell_volume                     1163.32
loop_
_atom_site_label
_atom_site_type_symbol
_atom_site_fract_x
_atom_site_fract_y
_atom_site_fract_z
Zn1 Zn 0.22332(5) 0.31633(2) 0.29168(4)
O1 O 0.2230(3) 0.41504(14) 1.1772(2)
O2 O 0.3839(3) 0.35427(14) 1.0128(2)
O3 O 0.1304(3) 0.27634(15) 0.6941(2)
O4 O 0.0638(3) 0.32824(14) 0.4484(2)
O5 O -0.0257(3) 0.40973(14) 0.6577(2)
H1 H -0.1201 0.4067 0.6126
O6 O 0.5545(3) 0.27833(14) 0.6265(2)
H2 H 0.5050 0.2372 0.5949
O7 O 0.6666(3) 0.41165(13) 0.5317(2)
O8 O 0.4548(3) 0.32494(14) 0.3865(2)
N1 N 0.2606(3) 0.55920(16) 0.7562(3)
H3 H 0.2747 0.5599 0.6672
N2 N 0.3609(3) 0.42404(15) 0.7567(3)
H4 H 0.4298 0.3907 0.8024
P1 P 0.11111(10) 0.34781(5) 0.59809(8)
P2 P 0.51135(10) 0.35337(5) 0.52935(8)
C1 C 0.2021(4) 0.6285(2) 0.8178(3)
H5 H 0.1818 0.6755 0.7643
C2 C 0.1728(4) 0.6300(2) 0.9569(3)
H6 H 0.1318 0.6773 1.0002
C3 C 0.2059(4) 0.5589(2) 1.0327(3)
H7 H 0.1847 0.5590 1.1281
C4 C 0.2684(4) 0.48862(19) 0.9724(3)
C5 C 0.2982(4) 0.48890(18) 0.8254(3)
C6 C 0.2969(4) 0.4127(2) 1.0584(3)
C7 C 0.3213(4) 0.40500(18) 0.6087(3)
H8 H 0.3026 0.4572 0.5595
Zn1_2 Zn 0.22332(5) 0.31633(2) 1.29168(4)
Zn1C Zn 0.22332(5) 0.18367(2) 0.79168(4)
O1_2 O 0.2230(3) 0.41504(14) 0.1772(2)
O3C O 0.1304(3) 0.22366(15) 0.1941(2)
loop_
_geom_bond_atom_site_label_1
_geom_bond_atom_site_label_2
_geom_bond_site_symmetry_1
_geom_bond_site_symmetry_2
Zn1 O4 1_555 1_555
O1 C6 1_555 1_555
O2 C6 1_555 1_555
O3 P1 1_555 1_555
O4 P1 1_555 1_555
O5 H1 1_555 1_555
O6 H2 1_555 1_555
O7 P2 1_555 1_555
O8 Zn1 1_555 1_555
N1 H3 1_555 1_555
N2 H4 1_555 1_555
P1 O5 1_555 1_555
P2 O6 1_555 1_555
C1 N1 1_555 1_555
H5 C1 1_555 1_555
C2 C1 1_555 1_555
H6 C2 1_555 1_555
C3 C2 1_555 1_555
H7 C3 1_555 1_555
C4 C3 1_555 1_555
C5 N1 1_555 1_555
C6 C4 1_555 1_555
C7 N2 1_555 1_555
H8 C7 1_555 1_555
Zn1_2 O1 1_555 1_555
Zn1C O3 1_555 1_555
O1_2 Zn1 1_555 1_555
O3C Zn1 1_555 1_555
O8 P2 1_555 1_555
N2 C5 1_555 1_555
P1 C7 1_555 1_555
P2 C7 1_555 1_555
C4 C5 1_555 1_555

#END
