
#######################################################################
#
#                 Cambridge Crystallographic Data Centre
#                                CCDC 
#
#######################################################################
#
# If this CIF has been generated from an entry in the Cambridge 
# Structural Database, then it will include bibliographic, chemical, 
# crystal, experimental, refinement or atomic coordinate data resulting 
# from the CCDC's data processing and validation procedures.
#
#######################################################################

data_MICBEH
_symmetry_cell_setting           triclinic
_symmetry_space_group_name_H-M   'P -1'
_symmetry_Int_Tables_number      2
_space_group_name_Hall           '-P 1'
loop_
_symmetry_equiv_pos_site_id
_symmetry_equiv_pos_as_xyz
1 x,y,z
2 -x,-y,-z
_cell_length_a                   7.311(2)
_cell_length_b                   11.202(4)
_cell_length_c                   13.026(4)
_cell_angle_alpha                107.764(3)
_cell_angle_beta                 102.889(3)
_cell_angle_gamma                95.178(3)
_cell_volume                     975.834
loop_
_atom_site_label
_atom_site_type_symbol
_atom_site_fract_x
_atom_site_fract_y
_atom_site_fract_z
Co1 Co 0.29174(6) 0.46694(4) 0.91488(4)
Co2 Co 0.20817(6) 0.87000(4) 0.89186(4)
O1 O -0.0090(3) 1.0585(2) 1.20578(19)
O2 O 0.0549(6) 1.2075(3) 1.3726(2)
O3 O 0.4105(3) 0.9292(2) 0.8149(2)
H1 H 0.5239 0.9204 0.8411
H2 H 0.4307 1.0047 0.8139
O4 O -0.1937(3) 0.6355(2) 0.99631(19)
O5 O 0.0634(3) 0.5704(2) 0.89773(18)
O6 O 0.1769(3) 0.3216(2) 0.7638(2)
H3 H 0.1672 0.3348 0.7021
H4 H 0.2382 0.2601 0.7597
O7 O -0.0098(3) 0.7951(2) 0.94269(19)
O8 O 0.4557(3) 0.5625(2) 0.8281(2)
H5 H 0.3938 0.6146 0.8057
H6 H 0.5187 0.5323 0.7815
O9 O 0.1666(3) 0.6904(2) 0.7582(2)
H7 H 0.1040 0.7133 0.7062
H8 H 0.1114 0.6549 0.7949
O10 O 0.5600(3) 0.8319(2) 1.19914(19)
O11 O 0.4112(3) 0.8091(2) 0.99779(18)
O12 O 0.2687(3) 1.0553(2) 1.01421(19)
H9 H 0.3409 1.1125 1.0046
H10 H 0.1780 1.0971 1.0204
O13 O 0.4561(3) 0.61212(19) 1.05431(18)
N1 N 0.2666(4) 0.8158(3) 1.3523(2)
H11 H 0.2916 0.7353 1.3099
N2 N 0.1435(4) 0.8499(3) 1.1853(2)
H12 H 0.0856 0.9008 1.1517
P1 P 0.42058(11) 0.75004(7) 1.09048(7)
P2 P -0.00405(11) 0.67709(7) 0.97855(7)
C1 C 0.1867(4) 0.8904(3) 1.2965(3)
C2 C 0.1554(5) 1.0106(3) 1.3618(3)
C3 C 0.2069(6) 1.0432(4) 1.4764(3)
H13 H 0.1881 1.1219 1.5194
C4 C 0.2861(6) 0.9626(4) 1.5305(3)
H14 H 0.3198 0.9865 1.6080
C5 C 0.3123(6) 0.8491(4) 1.4666(3)
H15 H 0.3619 0.7927 1.5004
C6 C 0.0617(5) 1.1000(3) 1.3102(3)
C7 C 0.1803(4) 0.7322(3) 1.1130(3)
H16 H 0.1714 0.6676 1.1490
Co1A Co -0.29174(6) 0.53306(4) 1.08512(4)
Co1A_2 Co 0.70826(6) 0.53306(4) 1.08512(4)
Co2A Co -0.20817(6) 1.13000(4) 1.10814(4)
O1A O 0.0090(3) 0.9415(2) 0.79422(19)
O4A O 0.1937(3) 0.3645(2) 1.00369(19)
O13A O 0.5439(3) 0.38788(19) 0.94569(18)
O15 O 0.1012(16) 0.3842(5) 0.5751(4)
O16 O 0.2834(10) 0.5552(4) 1.2866(4)
O18 O 0.299(2) 0.5516(10) 0.5096(9)
O19 O 0.5320(15) 0.7252(10) 1.6643(9)
H17 H 0.4725 0.6588 1.6103
H18 H 0.6112 0.7561 1.7283
O14? O 0.255(4) 0.378(2) 0.5762(16)
O17? O 0.422(5) 0.605(3) 1.333(2)
loop_
_geom_bond_atom_site_label_1
_geom_bond_atom_site_label_2
_geom_bond_site_symmetry_1
_geom_bond_site_symmetry_2
Co1 O5 1_555 1_555
Co2 O3 1_555 1_555
O1 C6 1_555 1_555
O2 C6 1_555 1_555
O3 H1 1_555 1_555
H2 O3 1_555 1_555
O4 P2 1_555 1_555
O5 P2 1_555 1_555
O6 Co1 1_555 1_555
H3 O6 1_555 1_555
H4 O6 1_555 1_555
O7 Co2 1_555 1_555
O8 Co1 1_555 1_555
H5 O8 1_555 1_555
H6 O8 1_555 1_555
O9 Co2 1_555 1_555
H7 O9 1_555 1_555
H8 O9 1_555 1_555
O10 P1 1_555 1_555
O11 Co2 1_555 1_555
O12 Co2 1_555 1_555
H9 O12 1_555 1_555
H10 O12 1_555 1_555
O13 Co1 1_555 1_555
N1 H11 1_555 1_555
N2 H12 1_555 1_555
P1 O11 1_555 1_555
P2 O7 1_555 1_555
C1 N1 1_555 1_555
C2 C1 1_555 1_555
C3 C2 1_555 1_555
H13 C3 1_555 1_555
C4 C3 1_555 1_555
H14 C4 1_555 1_555
C5 N1 1_555 1_555
H15 C5 1_555 1_555
C6 C2 1_555 1_555
C7 N2 1_555 1_555
H16 C7 1_555 1_555
O19 H17 1_555 1_555
H18 O19 1_555 1_555
Co1A O4 1_555 1_555
Co1A_2 O13 1_555 1_555
Co2A O1 1_555 1_555
O1A Co2 1_555 1_555
O4A Co1 1_555 1_555
O13A Co1 1_555 1_555
O13 P1 1_555 1_555
N2 C1 1_555 1_555
P1 C7 1_555 1_555
P2 C7 1_555 1_555
C4 C5 1_555 1_555
Co1A_2 O13A 1_555 1_555

#END
