
#######################################################################
#
#                 Cambridge Crystallographic Data Centre
#                                CCDC 
#
#######################################################################
#
# If this CIF has been generated from an entry in the Cambridge 
# Structural Database, then it will include bibliographic, chemical, 
# crystal, experimental, refinement or atomic coordinate data resulting 
# from the CCDC's data processing and validation procedures.
#
#######################################################################

data_MICCUY
_symmetry_cell_setting           orthorhombic
_symmetry_space_group_name_H-M   'P n a 21'
_symmetry_Int_Tables_number      33
_space_group_name_Hall           'P 2c -2n'
loop_
_symmetry_equiv_pos_site_id
_symmetry_equiv_pos_as_xyz
1 x,y,z
2 -x,-y,1/2+z
3 1/2+x,1/2-y,z
4 1/2-x,1/2+y,1/2+z
_cell_length_a                   36.680(15)
_cell_length_b                   5.819(2)
_cell_length_c                   33.079(14)
_cell_angle_alpha                90
_cell_angle_beta                 90
_cell_angle_gamma                90
_cell_volume                     7060.41
loop_
_atom_site_label
_atom_site_type_symbol
_atom_site_fract_x
_atom_site_fract_y
_atom_site_fract_z
C1 C 0.47856(18) 0.9074(10) -0.05042(18)
C2 C 0.48124(15) 0.8414(10) -0.09272(17)
C3 C 0.49941(14) 0.9843(9) -0.11707(16)
H1 H 0.5091 1.1202 -0.1069
C4 C 0.50395(18) 0.9278(11) -0.15907(17)
C5 C 0.48717(14) 0.7250(10) -0.17389(18)
H2 H 0.4882 0.6865 -0.2011
C6 C 0.46948(17) 0.5882(10) -0.14662(19)
C7 C 0.46758(14) 0.6256(9) -0.10598(17)
H3 H 0.4580 0.5175 -0.0882
C8 C 0.55560(15) 1.1368(11) -0.17718(19)
C9 C 0.58144(18) 0.9869(10) -0.16137(18)
H4 H 0.5743 0.8438 -0.1517
C10 C 0.61792(17) 1.0511(12) -0.16001(19)
H5 H 0.6352 0.9508 -0.1494
C11 C 0.62857(14) 1.2651(9) -0.17448(17)
C12 C 0.60273(16) 1.4149(11) -0.19029(18)
H6 H 0.6099 1.5581 -0.2000
C13 C 0.56625(15) 1.3508(11) -0.19164(17)
H7 H 0.5490 1.4510 -0.2022
C14 C 0.66534(15) 1.3392(10) -0.17377(18)
C15 C 0.41833(13) 0.3352(9) -0.16062(14)
C16 C 0.40859(15) 0.1186(9) -0.1747(2)
H8 H 0.4265 0.0148 -0.1825
C17 C 0.37204(16) 0.0572(10) -0.17708(16)
H9 H 0.3655 -0.0877 -0.1865
C18 C 0.34521(15) 0.2125(10) -0.16544(17)
C19 C 0.35495(16) 0.4291(11) -0.15140(18)
H10 H 0.3370 0.5329 -0.1436
C20 C 0.39151(18) 0.4904(10) -0.1490(2)
H11 H 0.3980 0.6354 -0.1396
C21 C 0.30586(15) 0.1449(10) -0.16698(18)
C22 C 0.49990(17) 0.9250(12) 0.10459(18)
C23 C 0.50468(13) 0.8543(8) 0.14653(15)
C24 C 0.52325(17) 0.9938(9) 0.17138(19)
H12 H 0.5328 1.1287 0.1606
C25 C 0.52917(15) 0.9509(11) 0.21168(18)
C26 C 0.51296(13) 0.7365(9) 0.22734(16)
H13 H 0.5161 0.6939 0.2542
C27 C 0.49359(16) 0.6039(10) 0.20182(18)
C28 C 0.49099(15) 0.6379(10) 0.16060(18)
H14 H 0.4811 0.5286 0.1433
C29 C 0.58161(14) 1.1435(10) 0.23375(17)
C30 C 0.6073(2) 0.9979(10) 0.2163(2)
H15 H 0.5995 0.8582 0.2057
C31 C 0.64417(17) 1.0533(11) 0.21406(19)
H16 H 0.6614 0.9556 0.2027
C32 C 0.65320(18) 1.2673(11) 0.2303(2)
C33 C 0.62777(15) 1.4160(11) 0.24610(17)
H17 H 0.6351 1.5564 0.2568
C34 C 0.59225(16) 1.3573(9) 0.24598(15)
H18 H 0.5748 1.4634 0.2543
C35 C 0.69360(15) 1.3381(10) 0.22942(19)
C36 C 0.44325(14) 0.3489(11) 0.21572(16)
C37 C 0.41611(17) 0.5017(10) 0.2040(2)
H19 H 0.4223 0.6465 0.1943
C38 C 0.37967(16) 0.4383(12) 0.20679(18)
H20 H 0.3615 0.5405 0.1989
C39 C 0.37036(15) 0.2220(10) 0.22133(16)
C40 C 0.39749(14) 0.0692(10) 0.23306(18)
H21 H 0.3913 -0.0756 0.2428
C41 C 0.43394(15) 0.1326(9) 0.23026(17)
H22 H 0.4521 0.0304 0.2381
C42 C 0.33136(14) 0.1539(10) 0.22577(18)
C43 C 0.54681(18) 1.2987(11) -0.01738(19)
H23 H 0.5270 1.3975 -0.0202
C44 C 0.5792(2) 1.5136(10) -0.0774(2)
H24 H 0.5557 1.5808 -0.0823
H25 H 0.5878 1.4408 -0.1017
H26 H 0.5961 1.6313 -0.0695
C45 C 0.60670(15) 1.1683(11) -0.04215(18)
H27 H 0.6290 1.2481 -0.0361
H28 H 0.6089 1.0924 -0.0678
H29 H 0.6020 1.0565 -0.0215
C46 C 0.40734(18) 1.0500(12) 0.0709(2)
H30 H 0.4150 1.1919 0.0807
C47 C 0.37769(17) 0.6806(12) 0.0873(2)
H31 H 0.3632 0.6416 0.0642
H32 H 0.3669 0.6149 0.1111
H33 H 0.4019 0.6213 0.0839
C48 C 0.35142(19) 1.0642(12) 0.1154(2)
H34 H 0.3627 1.1269 0.1391
H35 H 0.3318 0.9642 0.1231
H36 H 0.3420 1.1869 0.0990
C49 C 0.24886(15) 0.1576(10) 0.40002(17)
H37 H 0.2298 0.1200 0.3827
C50 C 0.25458(18) 0.0228(11) 0.4368(2)
H38 H 0.2377 -0.0882 0.4444
C51 C 0.28253(15) 0.0582(10) 0.45802(18)
C52 C 0.30583(13) 0.2267(10) 0.44853(16)
H39 H 0.3268 0.2491 0.4639
C53 C 0.29879(16) 0.3644(10) 0.41653(17)
H40 H 0.3142 0.4883 0.4116
C54 C 0.28873(16) -0.1024(10) 0.49529(17)
H41 H 0.2700 -0.2204 0.4955
H42 H 0.3122 -0.1781 0.4925
C55 C 0.28783(16) 0.0232(10) 0.5348(2)
H43 H 0.3065 0.1413 0.5349
H44 H 0.2932 -0.0833 0.5566
C56 C 0.25119(16) 0.1325(11) 0.54220(17)
H45 H 0.2322 0.0222 0.5359
H46 H 0.2483 0.2625 0.5241
C57 C 0.22432(17) 0.1762(10) 0.65247(18)
H47 H 0.2083 0.1014 0.6698
C58 C 0.22925(16) 0.0887(11) 0.61212(19)
H48 H 0.2203 -0.0551 0.6049
C59 C 0.24636(16) 0.2152(11) 0.58629(19)
C60 C 0.26439(18) 0.4169(11) 0.5965(2)
H49 H 0.2785 0.4994 0.5783
C61 C 0.25921(18) 0.4883(11) 0.6386(2)
H50 H 0.2684 0.6297 0.6468
Cd1 Cd 0.263595(10) 0.49724(6) 0.328506(11)
Cd2 Cd 0.262091(10) -0.01066(6) 0.231353(11)
Cd3 Cd 0.482983(9) 1.06630(6) 0.028313(16)
N1 N 0.57618(13) 1.3349(9) -0.04377(14)
N2 N 0.37921(17) 0.9305(10) 0.09160(16)
N3 N 0.27005(13) 0.3289(9) 0.39126(14)
N4 N 0.24178(13) 0.3580(9) 0.66544(15)
O1 O 0.47318(11) 1.1134(7) -0.04089(12)
O2 O 0.47728(10) 0.7601(7) -0.02127(11)
O3 O 0.52027(10) 1.0754(8) -0.18496(13)
O4 O 0.69159(10) 1.1973(6) -0.16045(11)
O5 O 0.67629(11) 1.5302(6) -0.18238(11)
O6 O 0.45526(11) 0.3828(7) -0.16348(13)
O7 O 0.28098(9) 0.2882(6) -0.16004(11)
O8 O 0.29963(10) -0.0675(7) -0.17521(13)
O9 O 0.49352(11) 0.7723(7) 0.07715(12)
O10 O 0.49973(12) 1.1292(7) 0.09521(12)
O11 O 0.54515(11) 1.0857(8) 0.23964(12)
O12 O 0.71720(10) 1.2093(6) 0.21819(11)
O13 O 0.70118(10) 1.5491(7) 0.24234(11)
O14 O 0.48021(11) 0.3887(7) 0.21754(13)
O15 O 0.32289(10) -0.0460(7) 0.23416(14)
O16 O 0.30638(10) 0.2968(7) 0.21822(12)
O17 O 0.54416(11) 1.1482(7) 0.00963(12)
O18 O 0.42248(11) 0.9674(7) 0.03907(13)
O19 O 0.46246(11) 1.4334(6) 0.03503(12)
H51 H 0.4674 1.4873 0.0619
H52 H 0.4747 1.5299 0.0158
O20 O 0.26213(10) 0.5972(7) 0.25658(11)
H53 H 0.2809 0.5423 0.2449
H54 H 0.2430 0.5411 0.2459
O21 O 0.26296(11) 0.1063(7) 0.30178(12)
H55 H 0.2446 0.0411 0.3126
H56 H 0.2817 0.0419 0.3118
Cd1A Cd 0.736405(10) 1.50276(6) -0.171494(11)
Cd1C Cd 0.236405(10) -0.00276(6) -0.171494(11)
Cd2_2 Cd 0.262091(10) 0.98934(6) 0.231353(11)
Cd2B Cd 0.762091(10) 1.51066(6) 0.231353(11)
Cd2C Cd 0.237909(10) 0.48934(6) 0.731353(11)
N4C N 0.25822(13) -0.1420(9) 0.16544(15)
O4A O 0.30841(10) 0.8027(6) 0.33955(11)
O5A O 0.32371(11) 0.4698(6) 0.31762(11)
O7C O 0.21902(9) 0.7882(6) 0.33996(11)
O8C O 0.20037(10) 0.4325(7) 0.32479(13)
O12B O 0.21720(10) 0.2907(6) 0.21819(11)
O13B O 0.20118(10) -0.0491(7) 0.24234(11)
O20_2 O 0.26213(10) -0.4028(7) 0.25658(11)
C62 C 0.89699(17) 0.1447(11) 0.5496(2)
H57 H 0.9207 0.1585 0.5401
C63 C 0.9211(2) -0.0523(12) 0.6134(2)
H58 H 0.9360 -0.1666 0.6005
H59 H 0.9114 -0.1134 0.6381
H60 H 0.9357 0.0807 0.6193
C64 C 0.8530(2) -0.0606(12) 0.5949(2)
H61 H 0.8384 0.0718 0.6010
H62 H 0.8529 -0.1636 0.6176
H63 H 0.8431 -0.1374 0.5716
N5 N 0.89097(16) 0.0128(9) 0.58629(19)
O22 O 0.87127(12) 0.2434(8) 0.52966(19)
C65 C 0.14153(18) 0.8185(13) 0.5054(2)
H64 H 0.1204 0.7997 0.5205
C66 C 0.18558(17) 0.6210(11) 0.4563(2)
H65 H 0.1886 0.4662 0.4468
H66 H 0.2040 0.6552 0.4760
H67 H 0.1877 0.7254 0.4339
C67 C 0.1204(2) 0.4932(13) 0.4581(3)
H68 H 0.1153 0.3719 0.4769
H69 H 0.1288 0.4285 0.4330
H70 H 0.0986 0.5807 0.4533
N6 N 0.14906(15) 0.6459(10) 0.47503(18)
O23 O 0.16116(13) 0.9943(8) 0.51338(15)
loop_
_geom_bond_atom_site_label_1
_geom_bond_atom_site_label_2
_geom_bond_site_symmetry_1
_geom_bond_site_symmetry_2
C1 C2 1_555 1_555
C2 C3 1_555 1_555
C3 H1 1_555 1_555
C4 C3 1_555 1_555
C5 C4 1_555 1_555
H2 C5 1_555 1_555
C6 C5 1_555 1_555
C7 C2 1_555 1_555
H3 C7 1_555 1_555
C8 C9 1_555 1_555
C9 H4 1_555 1_555
C10 C9 1_555 1_555
H5 C10 1_555 1_555
C11 C10 1_555 1_555
C12 C11 1_555 1_555
H6 C12 1_555 1_555
C13 C8 1_555 1_555
H7 C13 1_555 1_555
C14 C11 1_555 1_555
C15 C16 1_555 1_555
C16 H8 1_555 1_555
C17 C16 1_555 1_555
H9 C17 1_555 1_555
C18 C17 1_555 1_555
C19 C18 1_555 1_555
H10 C19 1_555 1_555
C20 C15 1_555 1_555
H11 C20 1_555 1_555
C21 C18 1_555 1_555
C22 C23 1_555 1_555
C23 C24 1_555 1_555
C24 H12 1_555 1_555
C25 C24 1_555 1_555
C26 C25 1_555 1_555
H13 C26 1_555 1_555
C27 C26 1_555 1_555
C28 C23 1_555 1_555
H14 C28 1_555 1_555
C29 C30 1_555 1_555
C30 H15 1_555 1_555
C31 C30 1_555 1_555
H16 C31 1_555 1_555
C32 C31 1_555 1_555
C33 C32 1_555 1_555
H17 C33 1_555 1_555
C34 C29 1_555 1_555
H18 C34 1_555 1_555
C35 C32 1_555 1_555
C36 C37 1_555 1_555
C37 H19 1_555 1_555
C38 C37 1_555 1_555
H20 C38 1_555 1_555
C39 C38 1_555 1_555
C40 C39 1_555 1_555
H21 C40 1_555 1_555
C41 C36 1_555 1_555
H22 C41 1_555 1_555
C42 C39 1_555 1_555
C43 H23 1_555 1_555
C44 H24 1_555 1_555
H25 C44 1_555 1_555
H26 C44 1_555 1_555
C45 H27 1_555 1_555
H28 C45 1_555 1_555
H29 C45 1_555 1_555
C46 H30 1_555 1_555
C47 H31 1_555 1_555
H32 C47 1_555 1_555
H33 C47 1_555 1_555
C48 H34 1_555 1_555
H35 C48 1_555 1_555
H36 C48 1_555 1_555
C49 H37 1_555 1_555
C50 C49 1_555 1_555
H38 C50 1_555 1_555
C51 C50 1_555 1_555
C52 C51 1_555 1_555
H39 C52 1_555 1_555
C53 C52 1_555 1_555
H40 C53 1_555 1_555
C54 C51 1_555 1_555
H41 C54 1_555 1_555
H42 C54 1_555 1_555
C55 C54 1_555 1_555
H43 C55 1_555 1_555
H44 C55 1_555 1_555
C56 C55 1_555 1_555
H45 C56 1_555 1_555
H46 C56 1_555 1_555
C57 H47 1_555 1_555
C58 C57 1_555 1_555
H48 C58 1_555 1_555
C59 C56 1_555 1_555
C60 C59 1_555 1_555
H49 C60 1_555 1_555
C61 C60 1_555 1_555
H50 C61 1_555 1_555
Cd1 N3 1_555 1_555
Cd2 O15 1_555 1_555
Cd3 O1 1_555 1_555
N1 C43 1_555 1_555
N2 C46 1_555 1_555
N3 C49 1_555 1_555
N4 C57 1_555 1_555
O1 C1 1_555 1_555
O2 C1 1_555 1_555
O3 C4 1_555 1_555
O4 C14 1_555 1_555
O5 C14 1_555 1_555
O6 C6 1_555 1_555
O7 C21 1_555 1_555
O8 C21 1_555 1_555
O9 C22 1_555 1_555
O10 C22 1_555 1_555
O11 C25 1_555 1_555
O12 C35 1_555 1_555
O13 C35 1_555 1_555
O14 C27 1_555 1_555
O15 C42 1_555 1_555
O16 C42 1_555 1_555
O17 C43 1_555 1_555
O18 C46 1_555 1_555
O19 Cd3 1_555 1_555
H51 O19 1_555 1_555
H52 O19 1_555 1_555
O20 Cd1 1_555 1_555
H53 O20 1_555 1_555
H54 O20 1_555 1_555
O21 Cd1 1_555 1_555
H55 O21 1_555 1_555
H56 O21 1_555 1_555
C62 H57 1_555 1_555
C63 H58 1_555 1_555
H59 C63 1_555 1_555
H60 C63 1_555 1_555
C64 H61 1_555 1_555
H62 C64 1_555 1_555
H63 C64 1_555 1_555
N5 C62 1_555 1_555
O22 C62 1_555 1_555
C65 H64 1_555 1_555
C66 H65 1_555 1_555
H66 C66 1_555 1_555
H67 C66 1_555 1_555
C67 H68 1_555 1_555
H69 C67 1_555 1_555
H70 C67 1_555 1_555
N6 C65 1_555 1_555
O23 C65 1_555 1_555
Cd1A O4 1_555 1_555
Cd1C O7 1_555 1_555
Cd2_2 O20 1_555 1_555
Cd2B O12 1_555 1_555
Cd2C N4 1_555 1_555
N4C Cd2 1_555 1_555
O4A Cd1 1_555 1_555
O5A Cd1 1_555 1_555
O7C Cd1 1_555 1_555
O8C Cd1 1_555 1_555
O12B Cd2 1_555 1_555
O13B Cd2 1_555 1_555
O20_2 Cd2 1_555 1_555
C6 C7 1_555 1_555
C8 O3 1_555 1_555
C12 C13 1_555 1_555
C15 O6 1_555 1_555
C19 C20 1_555 1_555
C27 C28 1_555 1_555
C29 O11 1_555 1_555
C33 C34 1_555 1_555
C36 O14 1_555 1_555
C40 C41 1_555 1_555
C44 N1 1_555 1_555
C45 N1 1_555 1_555
C47 N2 1_555 1_555
C48 N2 1_555 1_555
C53 N3 1_555 1_555
C58 C59 1_555 1_555
C61 N4 1_555 1_555
Cd2 O16 1_555 1_555
Cd2 O21 1_555 1_555
Cd3 O2 1_555 1_555
Cd3 O9 1_555 1_555
Cd3 O10 1_555 1_555
Cd3 O17 1_555 1_555
Cd3 O18 1_555 1_555
O5 Cd1A 1_555 1_555
O8 Cd1C 1_555 1_555
O13 Cd2B 1_555 1_555
C63 N5 1_555 1_555
C64 N5 1_555 1_555
C66 N6 1_555 1_555
C67 N6 1_555 1_555

#END
