
#######################################################################
#
#                 Cambridge Crystallographic Data Centre
#                                CCDC 
#
#######################################################################
#
# If this CIF has been generated from an entry in the Cambridge 
# Structural Database, then it will include bibliographic, chemical, 
# crystal, experimental, refinement or atomic coordinate data resulting 
# from the CCDC's data processing and validation procedures.
#
#######################################################################

data_MICDOR
_symmetry_cell_setting           orthorhombic
_symmetry_space_group_name_H-M   'C m c 21'
_symmetry_Int_Tables_number      36
_space_group_name_Hall           'C 2n -2'
loop_
_symmetry_equiv_pos_site_id
_symmetry_equiv_pos_as_xyz
1 x,y,z
2 -x,-y,1/2+z
3 x,-y,1/2+z
4 -x,y,z
5 1/2+x,1/2+y,z
6 1/2-x,1/2-y,1/2+z
7 1/2+x,1/2-y,1/2+z
8 1/2-x,1/2+y,z
_cell_length_a                   20.383(4)
_cell_length_b                   6.7190(10)
_cell_length_c                   6.5650(10)
_cell_angle_alpha                90
_cell_angle_beta                 90
_cell_angle_gamma                90
_cell_volume                     899.099
loop_
_atom_site_label
_atom_site_type_symbol
_atom_site_fract_x
_atom_site_fract_y
_atom_site_fract_z
Mn1 Mn 0.29172(5) -0.65020(15) -1.00184(16)
Se1 Se 0.31509(3) -0.29757(8) -0.87911(18)
N1 N 0.3767(3) -0.1994(8) -0.3677(13)
H1 H 0.3737 -0.2092 -0.2151
H2 H 0.3812 -0.0481 -0.3655
C1 C 0.4393(4) -0.2682(13) -0.4475(13)
H3 H 0.4408 -0.4100 -0.4302
H4 H 0.4397 -0.2396 -0.5992
C2 C 0.5000 -0.1827(16) -0.3484(18)
H5 H 0.5000 -0.1977 -0.1698
H6 H 0.5000 -0.0342 -0.3392
Se1B Se 0.31509(3) -0.70243(8) -1.37911(18)
Mn1E Mn 0.20828(5) -0.84980(15) -0.50184(16)
Se1G Se 0.18491(3) -0.79757(8) -0.87911(18)
Mn1B Mn 0.29172(5) -0.34980(15) -0.50184(16)
Se1B_2 Se 0.31509(3) -0.70243(8) -0.37911(18)
Mn1_2 Mn 0.29172(5) -0.65020(15) -0.00184(16)
Se1E Se 0.18491(3) -0.20243(8) -0.37911(18)
C1C C 0.5607(4) -0.2682(13) -0.4475(13)
N1C N 0.6233(3) -0.1994(8) -0.3677(13)
Mn1A Mn 0.70828(5) -0.34980(15) -0.50184(16)
H1C H 0.6263 -0.2092 -0.2151
H2C H 0.6188 -0.0481 -0.3655
H3C H 0.5592 -0.4100 -0.4302
H4C H 0.5603 -0.2396 -0.5992
Mn1G Mn 0.20828(5) -0.15020(15) -1.00184(16)
N1B N 0.3767(3) -0.8006(8) -0.8677(13)
H1B H 0.3737 -0.7908 -0.7151
H2B H 0.3812 -0.9519 -0.8655
loop_
_geom_bond_atom_site_label_1
_geom_bond_atom_site_label_2
_geom_bond_site_symmetry_1
_geom_bond_site_symmetry_2
Mn1 Se1 1_555 1_555
Se1 Mn1B 1_555 1_555
N1 H1 1_555 1_555
H2 N1 1_555 1_555
C1 N1 1_555 1_555
H3 C1 1_555 1_555
H4 C1 1_555 1_555
C2 C1 1_555 1_555
H5 C2 1_555 1_555
H6 C2 1_555 1_555
Se1B Mn1 1_555 1_555
Mn1E Se1G 1_555 1_555
Se1G Mn1 1_555 1_555
Mn1B N1 1_555 1_555
Se1B_2 Mn1E 1_555 1_555
Mn1_2 Se1B_2 1_555 1_555
Se1E Mn1B 1_555 1_555
C1C C2 1_555 1_555
N1C C1C 1_555 1_555
Mn1A N1C 1_555 1_555
H1C N1C 1_555 1_555
H2C N1C 1_555 1_555
H3C C1C 1_555 1_555
H4C C1C 1_555 1_555
Mn1G Se1 1_555 1_555
N1B Mn1 1_555 1_555
H1B N1B 1_555 1_555
H2B N1B 1_555 1_555
Mn1B Se1B_2 1_555 1_555

#END
