
#######################################################################
#
#                 Cambridge Crystallographic Data Centre
#                                CCDC 
#
#######################################################################
#
# If this CIF has been generated from an entry in the Cambridge 
# Structural Database, then it will include bibliographic, chemical, 
# crystal, experimental, refinement or atomic coordinate data resulting 
# from the CCDC's data processing and validation procedures.
#
#######################################################################

data_MICDAF
_symmetry_cell_setting           monoclinic
_symmetry_space_group_name_H-M   'C 2/c'
_symmetry_Int_Tables_number      15
_space_group_name_Hall           '-C 2yn'
loop_
_symmetry_equiv_pos_site_id
_symmetry_equiv_pos_as_xyz
1 x,y,z
2 -x,y,1/2-z
3 1/2+x,1/2+y,z
4 1/2-x,1/2+y,1/2-z
5 -x,-y,-z
6 x,-y,1/2+z
7 1/2-x,1/2-y,-z
8 1/2+x,1/2-y,1/2+z
_cell_length_a                   16.488(3)
_cell_length_b                   9.4509(15)
_cell_length_c                   27.363(4)
_cell_angle_alpha                90
_cell_angle_beta                 102.758(3)
_cell_angle_gamma                90
_cell_volume                     4158.61
loop_
_atom_site_label
_atom_site_type_symbol
_atom_site_fract_x
_atom_site_fract_y
_atom_site_fract_z
C1 C 0.8338(2) 0.6348(4) 0.69861(13)
C2 C 0.8305(2) 0.6203(4) 0.64487(13)
C3 C 0.8599(3) 0.7266(4) 0.61909(13)
H1 H 0.8839 0.8063 0.6364
C4 C 0.8546(3) 0.7174(4) 0.56788(14)
H2 H 0.8764 0.7886 0.5511
C5 C 0.8167(3) 0.6016(4) 0.54237(13)
C6 C 0.7884(3) 0.4918(4) 0.56752(14)
H3 H 0.7645 0.4124 0.5500
C7 C 0.7954(2) 0.5000(4) 0.61832(13)
H4 H 0.7769 0.4255 0.6352
C8 C 0.8292(3) 0.4915(4) 0.46493(13)
C9 C 0.8909(2) 0.3995(4) 0.48766(14)
H5 H 0.9178 0.4104 0.5211
C10 C 0.9112(3) 0.2909(4) 0.45918(13)
C11 C 0.8730(3) 0.2751(4) 0.40910(13)
H6 H 0.8876 0.2004 0.3906
C12 C 0.8130(2) 0.3717(4) 0.38669(12)
C13 C 0.7910(2) 0.4794(4) 0.41494(12)
H7 H 0.7502 0.5440 0.4004
C14 C 0.7716(2) 0.3560(4) 0.33204(13)
C15 C 0.9891(3) 0.1600(4) 0.52859(13)
C16 C 0.9271(3) 0.1197(4) 0.55163(15)
H8 H 0.8720 0.1248 0.5340
C17 C 0.9446(3) 0.0718(4) 0.60029(14)
H9 H 0.9018 0.0449 0.6155
C18 C 1.0271(2) 0.0639(4) 0.62669(13)
C19 C 1.0893(2) 0.1059(4) 0.60266(13)
H10 H 1.1445 0.1004 0.6199
C20 C 1.0714(3) 0.1550(4) 0.55452(14)
H11 H 1.1137 0.1845 0.5394
C21 C 1.0491(3) 0.0036(4) 0.67846(13)
Mn1 Mn 0.78049(3) 0.90220(5) 0.749812(19)
Mn2 Mn 1.0000 0.78537(8) 0.7500
O1 O 0.86220(16) 0.7531(2) 0.71991(9)
O2 O 0.81074(18) 0.5367(3) 0.72284(9)
O3 O 0.8048(2) 0.6048(3) 0.49065(9)
O4 O 0.72439(17) 0.4540(3) 0.31181(9)
O5 O 0.78578(19) 0.2446(3) 0.31037(9)
O6 O 0.9750(2) 0.1968(3) 0.47824(10)
O7 O 1.12275(17) 0.0213(3) 0.70343(9)
O8 O 0.99478(19) -0.0614(3) 0.69360(11)
O9 O 1.0318(2) 0.6256(4) 0.69985(14)
H12 H 1.0237 0.6604 0.6705
H13 H 1.0807 0.6030 0.7094
O10 O 0.67011(18) 0.8011(3) 0.70547(10)
H14 H 0.6302 0.8600 0.7000
H15 H 0.6565 0.7319 0.7218
C1A C 1.1662(2) 0.6348(4) 0.80139(13)
C2A C 1.1695(2) 0.6203(4) 0.85513(13)
C3A C 1.1401(3) 0.7266(4) 0.88091(13)
H1A H 1.1161 0.8063 0.8636
C4A C 1.1454(3) 0.7174(4) 0.93212(14)
H2A H 1.1236 0.7886 0.9489
C5A C 1.1833(3) 0.6016(4) 0.95763(13)
C6A C 1.2116(3) 0.4918(4) 0.93248(14)
H3A H 1.2355 0.4124 0.9500
C7A C 1.2046(2) 0.5000(4) 0.88168(13)
H4A H 1.2231 0.4255 0.8648
C8A C 1.1708(3) 0.4915(4) 1.03507(13)
C9A C 1.1091(2) 0.3995(4) 1.01234(14)
H5A H 1.0822 0.4104 0.9789
C10A C 1.0888(3) 0.2909(4) 1.04082(13)
C11A C 1.1270(3) 0.2751(4) 1.09090(13)
H6A H 1.1124 0.2004 1.1094
C12A C 1.1870(2) 0.3717(4) 1.11331(12)
C13A C 1.2090(2) 0.4794(4) 1.08506(12)
H7A H 1.2498 0.5440 1.0996
C14A C 1.2284(2) 0.3560(4) 1.16796(13)
C15A C 1.0109(3) 0.1600(4) 0.97141(13)
C16A C 1.0729(3) 0.1197(4) 0.94837(15)
H8A H 1.1280 0.1248 0.9660
C17A C 1.0554(3) 0.0718(4) 0.89971(14)
H9A H 1.0982 0.0449 0.8845
C18A C 0.9729(2) 0.0639(4) 0.87331(13)
C19A C 0.9107(2) 0.1059(4) 0.89734(13)
H10A H 0.8555 0.1004 0.8801
C20A C 0.9286(3) 0.1550(4) 0.94548(14)
H11A H 0.8863 0.1845 0.9606
C21A C 0.9509(3) 0.0036(4) 0.82154(13)
Mn1A Mn 1.21951(3) 0.90220(5) 0.750188(19)
O1A O 1.13780(16) 0.7531(2) 0.78009(9)
O2A O 1.18926(18) 0.5367(3) 0.77716(9)
O3A O 1.1952(2) 0.6048(3) 1.00935(9)
O4A O 1.27561(17) 0.4540(3) 1.18819(9)
O5A O 1.21422(19) 0.2446(3) 1.18963(9)
O6A O 1.0250(2) 0.1968(3) 1.02176(10)
O7A O 0.87725(17) 0.0213(3) 0.79657(9)
O8A O 1.00522(19) -0.0614(3) 0.80640(11)
O9A O 0.9682(2) 0.6256(4) 0.80015(14)
H12A H 0.9763 0.6604 0.8295
H13A H 0.9193 0.6030 0.7906
O10A O 1.32989(18) 0.8011(3) 0.79453(10)
H14A H 1.3698 0.8600 0.8000
H15A H 1.3435 0.7319 0.7782
Mn1_2 Mn 0.78049(3) -0.09780(5) 0.749812(19)
Mn1A_2 Mn 1.21951(3) -0.09780(5) 0.750188(19)
Mn1B Mn 1.28049(3) 0.40220(5) 0.749812(19)
Mn1C Mn 0.71951(3) 0.40220(5) 0.750188(19)
Mn1D Mn 1.21951(3) 0.09780(5) 1.250188(19)
Mn1E Mn 0.78049(3) 0.09780(5) 0.249812(19)
Mn1F Mn 0.71951(3) 0.59780(5) 0.250188(19)
Mn1G Mn 1.28049(3) 0.59780(5) 1.249812(19)
Mn2_2 Mn 1.0000 -0.21463(8) 0.7500
O2B O 1.31074(18) 1.0367(3) 0.72284(9)
O2C O 0.68926(18) 1.0367(3) 0.77716(9)
O4F O 0.77561(17) 1.0460(3) 0.68819(9)
O4G O 1.22439(17) 1.0460(3) 0.81181(9)
O5D O 1.21422(19) 0.7554(3) 0.68963(9)
O5E O 0.78578(19) 0.7554(3) 0.81037(9)
O7_2 O 1.12275(17) 1.0213(3) 0.70343(9)
O7A_2 O 0.87725(17) 1.0213(3) 0.79657(9)
O8_2 O 0.99478(19) 0.9386(3) 0.69360(11)
O8A_2 O 1.00522(19) 0.9386(3) 0.80640(11)
loop_
_geom_bond_atom_site_label_1
_geom_bond_atom_site_label_2
_geom_bond_site_symmetry_1
_geom_bond_site_symmetry_2
C1 C2 1_555 1_555
C2 C3 1_555 1_555
C3 H1 1_555 1_555
C4 C3 1_555 1_555
H2 C4 1_555 1_555
C5 C4 1_555 1_555
C6 C5 1_555 1_555
H3 C6 1_555 1_555
C7 C2 1_555 1_555
H4 C7 1_555 1_555
C8 C9 1_555 1_555
C9 H5 1_555 1_555
C10 C9 1_555 1_555
C11 C10 1_555 1_555
H6 C11 1_555 1_555
C12 C11 1_555 1_555
C13 C8 1_555 1_555
H7 C13 1_555 1_555
C14 C12 1_555 1_555
C15 C16 1_555 1_555
C16 H8 1_555 1_555
C17 C16 1_555 1_555
H9 C17 1_555 1_555
C18 C17 1_555 1_555
C19 C18 1_555 1_555
H10 C19 1_555 1_555
C20 C15 1_555 1_555
H11 C20 1_555 1_555
C21 C18 1_555 1_555
Mn1 O1 1_555 1_555
Mn2 O1 1_555 1_555
O1 C1 1_555 1_555
O2 C1 1_555 1_555
O3 C5 1_555 1_555
O4 C14 1_555 1_555
O5 C14 1_555 1_555
O6 C10 1_555 1_555
O7 C21 1_555 1_555
O8 C21 1_555 1_555
O9 Mn2 1_555 1_555
H12 O9 1_555 1_555
H13 O9 1_555 1_555
O10 Mn1 1_555 1_555
H14 O10 1_555 1_555
H15 O10 1_555 1_555
C1A C2A 1_555 1_555
C2A C3A 1_555 1_555
C3A H1A 1_555 1_555
C4A C3A 1_555 1_555
H2A C4A 1_555 1_555
C5A C4A 1_555 1_555
C6A C5A 1_555 1_555
H3A C6A 1_555 1_555
C7A C2A 1_555 1_555
H4A C7A 1_555 1_555
C8A C9A 1_555 1_555
C9A H5A 1_555 1_555
C10A C9A 1_555 1_555
C11A C10A 1_555 1_555
H6A C11A 1_555 1_555
C12A C11A 1_555 1_555
C13A C8A 1_555 1_555
H7A C13A 1_555 1_555
C14A C12A 1_555 1_555
C15A C16A 1_555 1_555
C16A H8A 1_555 1_555
C17A C16A 1_555 1_555
H9A C17A 1_555 1_555
C18A C17A 1_555 1_555
C19A C18A 1_555 1_555
H10A C19A 1_555 1_555
C20A C15A 1_555 1_555
H11A C20A 1_555 1_555
C21A C18A 1_555 1_555
Mn1A O1A 1_555 1_555
O1A Mn2 1_555 1_555
O2A C1A 1_555 1_555
O3A C5A 1_555 1_555
O4A C14A 1_555 1_555
O5A C14A 1_555 1_555
O6A C10A 1_555 1_555
O7A C21A 1_555 1_555
O8A C21A 1_555 1_555
O9A Mn2 1_555 1_555
H12A O9A 1_555 1_555
H13A O9A 1_555 1_555
O10A Mn1A 1_555 1_555
H14A O10A 1_555 1_555
H15A O10A 1_555 1_555
Mn1_2 O7A 1_555 1_555
Mn1A_2 O7 1_555 1_555
Mn1B O2A 1_555 1_555
Mn1C O2 1_555 1_555
Mn1D O5A 1_555 1_555
Mn1E O5 1_555 1_555
Mn1F O4 1_555 1_555
Mn1G O4A 1_555 1_555
Mn2_2 O8 1_555 1_555
O2B Mn1A 1_555 1_555
O2C Mn1 1_555 1_555
O4F Mn1 1_555 1_555
O4G Mn1A 1_555 1_555
O5D Mn1A 1_555 1_555
O5E Mn1 1_555 1_555
O7_2 Mn1A 1_555 1_555
O7A_2 Mn1 1_555 1_555
O8_2 Mn2 1_555 1_555
O8A_2 Mn2 1_555 1_555
C6 C7 1_555 1_555
C8 O3 1_555 1_555
C12 C13 1_555 1_555
C15 O6 1_555 1_555
C19 C20 1_555 1_555
C1A O1A 1_555 1_555
C6A C7A 1_555 1_555
C8A O3A 1_555 1_555
C12A C13A 1_555 1_555
C15A O6A 1_555 1_555
C19A C20A 1_555 1_555
O8A Mn2_2 1_555 1_555

#END
