
#######################################################################
#
#                 Cambridge Crystallographic Data Centre
#                                CCDC 
#
#######################################################################
#
# If this CIF has been generated from an entry in the Cambridge 
# Structural Database, then it will include bibliographic, chemical, 
# crystal, experimental, refinement or atomic coordinate data resulting 
# from the CCDC's data processing and validation procedures.
#
#######################################################################

data_MICFOV
_symmetry_cell_setting           monoclinic
_symmetry_space_group_name_H-M   'P 21/n'
_symmetry_Int_Tables_number      14
_space_group_name_Hall           '-P 2yn'
loop_
_symmetry_equiv_pos_site_id
_symmetry_equiv_pos_as_xyz
1 x,y,z
2 1/2-x,1/2+y,1/2-z
3 -x,-y,-z
4 1/2+x,1/2-y,1/2+z
_cell_length_a                   13.880(5)
_cell_length_b                   30.531(6)
_cell_length_c                   16.747(5)
_cell_angle_alpha                90
_cell_angle_beta                 101.941(5)
_cell_angle_gamma                90
_cell_volume                     6943.31
loop_
_atom_site_label
_atom_site_type_symbol
_atom_site_fract_x
_atom_site_fract_y
_atom_site_fract_z
C1 C 0.3326(4) 0.6997(2) 0.8017(4)
H1 H 0.3578 0.6737 0.8325
H2 H 0.3532 0.6979 0.7499
C2 C 0.3838(5) 0.7382(2) 0.8463(5)
H3 H 0.3565 0.7435 0.8943
H4 H 0.3700 0.7638 0.8115
C3 C 0.5075(5) 0.7668(2) 0.6468(4)
H5 H 0.4907 0.7963 0.6422
C4 C 0.5694(5) 1.0593(2) 0.6323(4)
H6 H 0.5656 1.0897 0.6288
C5 C -0.1039(5) 0.9100(2) 0.8405(4)
H7 H -0.0894 0.9397 0.8431
C6 C 0.4939(5) 0.7333(2) 0.8727(5)
H8 H 0.5203 0.7241 0.8262
H9 H 0.5079 0.7104 0.9136
C7 C 0.5465(5) 0.7752(3) 0.9078(5)
H10 H 0.6161 0.7698 0.9229
H11 H 0.5225 0.7841 0.9551
H12 H 0.5341 0.7980 0.8675
C8 C 0.4713(4) 0.6987(2) 0.6166(4)
C9 C 0.5009(5) 0.9944(2) 0.6075(4)
C10 C -0.0652(4) 0.8426(2) 0.8751(4)
C11 C 0.1087(5) 0.6487(2) 0.8434(4)
H13 H 0.0561 0.6630 0.8637
H14 H 0.0793 0.6256 0.8065
C12 C 0.5610(4) 0.6846(2) 0.6621(4)
C13 C 0.5856(5) 0.9729(2) 0.6466(4)
C14 C -0.1510(5) 0.8259(2) 0.8291(4)
C15 C 0.1792(5) 0.6278(2) 0.9154(4)
H15 H 0.2330 0.6143 0.8957
H16 H 0.1446 0.6048 0.9380
C16 C 0.6268(5) 0.7165(2) 0.7028(4)
C17 C 0.6658(5) 0.9994(2) 0.6802(4)
C18 C -0.2178(5) 0.8567(2) 0.7844(4)
C19 C 0.2218(5) 0.6599(2) 0.9835(4)
H17 H 0.2716 0.6450 1.0235
H18 H 0.2539 0.6837 0.9606
C20 C 0.1451(5) 0.6789(3) 1.0261(4)
H19 H 0.1761 0.6989 1.0679
H20 H 0.1143 0.6557 1.0503
H21 H 0.0962 0.6942 0.9872
C21 C 0.4850(5) 0.6280(2) 0.6089(4)
H22 H 0.4691 0.5991 0.5942
C22 C 0.4786(5) 0.9238(2) 0.6031(4)
H23 H 0.4478 0.8969 0.5912
C23 C -0.0711(5) 0.7718(2) 0.8866(4)
H24 H -0.0528 0.7434 0.9033
C24 C 0.0730(5) 0.7206(2) 0.6725(4)
H25 H 0.1064 0.7421 0.6452
H26 H 0.0513 0.6970 0.6343
C25 C -0.0175(5) 0.7421(2) 0.6966(4)
H27 H -0.0502 0.7203 0.7238
H28 H 0.0052 0.7653 0.7356
C26 C 0.3237(4) 0.6605(2) 0.5311(4)
H29 H 0.3156 0.6333 0.5007
H30 H 0.3171 0.6844 0.4920
C27 C 0.3323(5) 0.9709(2) 0.5392(4)
H31 H 0.3037 0.9439 0.5146
H32 H 0.3315 0.9921 0.4958
C28 C 0.0867(4) 0.8089(2) 0.9598(4)
H33 H 0.1034 0.7807 0.9854
H34 H 0.0899 0.8305 1.0027
C29 C -0.0928(5) 0.7614(2) 0.6259(4)
H35 H -0.1383 0.7798 0.6477
H36 H -0.0590 0.7797 0.5932
C30 C 0.2440(5) 0.6642(2) 0.5786(4)
H37 H 0.1812 0.6660 0.5406
H38 H 0.2532 0.6913 0.6094
C31 C 0.2702(5) 0.9883(2) 0.5983(4)
H39 H 0.3020 1.0140 0.6258
H40 H 0.2062 0.9971 0.5674
C32 C 0.1614(5) 0.8205(2) 0.9089(4)
H41 H 0.2252 0.8245 0.9449
H42 H 0.1428 0.8481 0.8814
C33 C -0.1508(5) 0.7264(2) 0.5718(4)
H43 H -0.1968 0.7401 0.5283
H44 H -0.1858 0.7086 0.6035
H45 H -0.1063 0.7083 0.5493
C34 C 0.2398(5) 0.6263(2) 0.6380(4)
C35 C 0.2564(5) 0.9551(2) 0.6613(4)
C36 C 0.1703(4) 0.7861(2) 0.8458(4)
C37 C 0.2744(4) 0.8208(2) 0.6277(4)
H46 H 0.3400 0.8293 0.6221
H47 H 0.2773 0.7905 0.6456
C38 C 0.2054(5) 0.8240(2) 0.5448(4)
H48 H 0.1879 0.8544 0.5338
H49 H 0.1454 0.8081 0.5468
C39 C 0.2485(5) 0.8058(2) 0.4737(4)
H50 H 0.2718 0.7762 0.4868
H51 H 0.1965 0.8044 0.4251
C40 C 0.3327(5) 0.8332(2) 0.4552(4)
H52 H 0.3567 0.8201 0.4110
H53 H 0.3849 0.8344 0.5028
H54 H 0.3096 0.8623 0.4402
C41 C 0.0807(4) 0.8797(2) 0.7073(4)
H55 H 0.0431 0.8539 0.7154
H56 H 0.0767 0.9000 0.7511
C42 C 0.0314(5) 0.9007(2) 0.6276(4)
H57 H 0.0290 0.8798 0.5837
H58 H 0.0704 0.9255 0.6168
C43 C -0.0724(5) 0.9161(3) 0.6287(4)
H59 H -0.1119 0.8911 0.6379
H60 H -0.0701 0.9363 0.6737
C44 C -0.1210(5) 0.9384(3) 0.5498(5)
H61 H -0.1863 0.9474 0.5531
H62 H -0.1244 0.9183 0.5051
H63 H -0.0830 0.9635 0.5410
C45 C 0.3391(5) 0.8759(2) 0.8257(4)
H64 H 0.3098 0.8965 0.8579
H65 H 0.3533 0.8493 0.8577
C46 C 0.4367(5) 0.8952(2) 0.8141(4)
H66 H 0.4692 0.8741 0.7852
H67 H 0.4235 0.9212 0.7803
C47 C 0.5054(5) 0.9071(2) 0.8933(4)
H68 H 0.5173 0.8812 0.9275
H69 H 0.4733 0.9286 0.9215
C48 C 0.6038(6) 0.9254(3) 0.8830(5)
H70 H 0.6435 0.9322 0.9356
H71 H 0.5931 0.9516 0.8505
H72 H 0.6371 0.9041 0.8563
C49 C 0.3881(5) 1.0367(2) 0.8047(4)
H73 H 0.4088 1.0104 0.7804
H74 H 0.4000 1.0614 0.7716
C50 C 0.4506(6) 1.0420(3) 0.8893(5)
H75 H 0.4214 1.0645 0.9178
H76 H 0.4493 1.0148 0.9189
C51 C 0.5539(6) 1.0539(3) 0.8915(6)
H77 H 0.5932 1.0450 0.9439
H78 H 0.5768 1.0373 0.8497
C52 C 0.5713(9) 1.1003(3) 0.8793(8)
H79 H 0.6401 1.1050 0.8810
H80 H 0.5515 1.1171 0.9217
H81 H 0.5337 1.1094 0.8272
C53 C 0.1223(5) 1.0587(2) 0.7048(5)
H82 H 0.1182 1.0901 0.7120
H83 H 0.1410 1.0535 0.6529
C54 C 0.0248(7) 1.0392(4) 0.7025(7)
H84 H 0.0024 1.0476 0.7515
H85 H 0.0307 1.0075 0.7024
C55 C -0.0561(7) 1.0541(4) 0.6240(8)
H86 H -0.0376 1.0445 0.5740
H87 H -0.1203 1.0421 0.6260
C56 C -0.0570(9) 1.1020(3) 0.6289(6)
H88 H -0.1040 1.1135 0.5835
H89 H 0.0073 1.1131 0.6275
H90 H -0.0750 1.1107 0.6789
C57 C 0.1850(11) 0.9907(3) 0.8840(7)
H91 H 0.1281 0.9759 0.8519
H92 H 0.2358 0.9686 0.8973
C58 C 0.1595(14) 0.9999(4) 0.9551(7)
H93 H 0.1016 1.0185 0.9440
H94 H 0.2123 1.0167 0.9883
C59 C 0.1373(14) 0.9602(5) 1.0053(7)
H95 H 0.0691 0.9515 0.9868
H96 H 0.1786 0.9357 0.9967
C60 C 0.1543(9) 0.9701(3) 1.0879(6)
H97 H 0.1407 0.9448 1.1178
H98 H 0.1122 0.9938 1.0967
H99 H 0.2219 0.9786 1.1063
N1 N 0.5966(4) 0.75884(18) 0.6931(3)
N2 N 0.6561(4) 1.04336(19) 0.6720(3)
N3 N -0.1906(4) 0.89950(18) 0.7921(3)
N4 N 0.4395(4) 0.74039(18) 0.6066(3)
N5 N 0.4875(4) 1.03785(18) 0.5971(3)
N6 N -0.0357(4) 0.88468(17) 0.8850(3)
N7 N 0.7146(4) 0.70831(18) 0.7487(3)
H100 H 0.7509 0.7295 0.7715
H101 H 0.7353 0.6818 0.7558
N8 N 0.7531(4) 0.98395(19) 0.7196(4)
H102 H 0.8002 1.0018 0.7385
H103 H 0.7620 0.9562 0.7260
N9 N -0.3036(4) 0.84708(18) 0.7376(3)
H104 H -0.3406 0.8676 0.7131
H105 H -0.3227 0.8203 0.7316
N10 N 0.5688(4) 0.63906(18) 0.6558(3)
N11 N 0.5704(4) 0.92758(18) 0.6431(3)
N12 N -0.1546(4) 0.78088(17) 0.8371(3)
N13 N 0.4227(4) 0.66181(17) 0.5831(3)
N14 N 0.4319(4) 0.96311(17) 0.5804(3)
N15 N -0.0127(4) 0.80728(17) 0.9117(3)
O1 O 0.2060(3) 0.63279(14) 0.7001(3)
O2 O 0.2319(3) 0.96679(14) 0.7256(3)
O3 O 0.1952(3) 0.79622(13) 0.7812(2)
O4 O 0.2697(3) 0.58944(15) 0.6178(3)
O5 O 0.2682(3) 0.91546(14) 0.6441(3)
O6 O 0.1507(3) 0.74718(14) 0.8629(3)
Sn1 Sn 0.17426(3) 0.695357(14) 0.77622(3)
Sn2 Sn 0.23189(3) 0.860680(14) 0.71902(3)
Sn3 Sn 0.23393(4) 1.032468(15) 0.80104(3)
O4A O 0.2303(3) 1.08944(15) 0.8822(3)
Sn3A Sn 0.26607(4) 0.532468(15) 0.69896(3)
O7 O 0.7565(5) 0.6183(2) 0.7463(5)
H106 H 0.770(6) 0.5935(14) 0.765(5)
H107 H 0.699(3) 0.617(3) 0.722(5)
loop_
_geom_bond_atom_site_label_1
_geom_bond_atom_site_label_2
_geom_bond_site_symmetry_1
_geom_bond_site_symmetry_2
C1 H1 1_555 1_555
H2 C1 1_555 1_555
C2 C1 1_555 1_555
H3 C2 1_555 1_555
H4 C2 1_555 1_555
C3 H5 1_555 1_555
C4 H6 1_555 1_555
C5 H7 1_555 1_555
C6 C2 1_555 1_555
H8 C6 1_555 1_555
H9 C6 1_555 1_555
C7 C6 1_555 1_555
H10 C7 1_555 1_555
H11 C7 1_555 1_555
H12 C7 1_555 1_555
C8 C12 1_555 1_555
C9 C13 1_555 1_555
C10 C14 1_555 1_555
C11 H13 1_555 1_555
H14 C11 1_555 1_555
C12 C16 1_555 1_555
C13 C17 1_555 1_555
C14 C18 1_555 1_555
C15 C11 1_555 1_555
H15 C15 1_555 1_555
H16 C15 1_555 1_555
C16 N1 1_555 1_555
C17 N2 1_555 1_555
C18 N3 1_555 1_555
C19 C15 1_555 1_555
H17 C19 1_555 1_555
H18 C19 1_555 1_555
C20 C19 1_555 1_555
H19 C20 1_555 1_555
H20 C20 1_555 1_555
H21 C20 1_555 1_555
C21 H22 1_555 1_555
C22 H23 1_555 1_555
C23 H24 1_555 1_555
C24 H25 1_555 1_555
H26 C24 1_555 1_555
C25 C24 1_555 1_555
H27 C25 1_555 1_555
H28 C25 1_555 1_555
C26 H29 1_555 1_555
H30 C26 1_555 1_555
C27 H31 1_555 1_555
H32 C27 1_555 1_555
C28 H33 1_555 1_555
H34 C28 1_555 1_555
C29 C25 1_555 1_555
H35 C29 1_555 1_555
H36 C29 1_555 1_555
C30 C26 1_555 1_555
H37 C30 1_555 1_555
H38 C30 1_555 1_555
C31 C27 1_555 1_555
H39 C31 1_555 1_555
H40 C31 1_555 1_555
C32 C28 1_555 1_555
H41 C32 1_555 1_555
H42 C32 1_555 1_555
C33 C29 1_555 1_555
H43 C33 1_555 1_555
H44 C33 1_555 1_555
H45 C33 1_555 1_555
C34 C30 1_555 1_555
C35 C31 1_555 1_555
C36 C32 1_555 1_555
C37 H46 1_555 1_555
H47 C37 1_555 1_555
C38 C37 1_555 1_555
H48 C38 1_555 1_555
H49 C38 1_555 1_555
C39 C38 1_555 1_555
H50 C39 1_555 1_555
H51 C39 1_555 1_555
C40 C39 1_555 1_555
H52 C40 1_555 1_555
H53 C40 1_555 1_555
H54 C40 1_555 1_555
C41 H55 1_555 1_555
H56 C41 1_555 1_555
C42 C41 1_555 1_555
H57 C42 1_555 1_555
H58 C42 1_555 1_555
C43 C42 1_555 1_555
H59 C43 1_555 1_555
H60 C43 1_555 1_555
C44 C43 1_555 1_555
H61 C44 1_555 1_555
H62 C44 1_555 1_555
H63 C44 1_555 1_555
C45 H64 1_555 1_555
H65 C45 1_555 1_555
C46 C45 1_555 1_555
H66 C46 1_555 1_555
H67 C46 1_555 1_555
C47 C46 1_555 1_555
H68 C47 1_555 1_555
H69 C47 1_555 1_555
C48 C47 1_555 1_555
H70 C48 1_555 1_555
H71 C48 1_555 1_555
H72 C48 1_555 1_555
C49 H73 1_555 1_555
H74 C49 1_555 1_555
C50 C49 1_555 1_555
H75 C50 1_555 1_555
H76 C50 1_555 1_555
C51 C50 1_555 1_555
H77 C51 1_555 1_555
H78 C51 1_555 1_555
C52 C51 1_555 1_555
H79 C52 1_555 1_555
H80 C52 1_555 1_555
H81 C52 1_555 1_555
C53 H82 1_555 1_555
H83 C53 1_555 1_555
C54 C53 1_555 1_555
H84 C54 1_555 1_555
H85 C54 1_555 1_555
C55 C54 1_555 1_555
H86 C55 1_555 1_555
H87 C55 1_555 1_555
C56 C55 1_555 1_555
H88 C56 1_555 1_555
H89 C56 1_555 1_555
H90 C56 1_555 1_555
C57 H91 1_555 1_555
H92 C57 1_555 1_555
C58 C57 1_555 1_555
H93 C58 1_555 1_555
H94 C58 1_555 1_555
C59 C58 1_555 1_555
H95 C59 1_555 1_555
H96 C59 1_555 1_555
C60 C59 1_555 1_555
H97 C60 1_555 1_555
H98 C60 1_555 1_555
H99 C60 1_555 1_555
N1 C3 1_555 1_555
N2 C4 1_555 1_555
N3 C5 1_555 1_555
N4 C3 1_555 1_555
N5 C4 1_555 1_555
N6 C5 1_555 1_555
N7 C16 1_555 1_555
H100 N7 1_555 1_555
H101 N7 1_555 1_555
N8 C17 1_555 1_555
H102 N8 1_555 1_555
H103 N8 1_555 1_555
N9 C18 1_555 1_555
H104 N9 1_555 1_555
H105 N9 1_555 1_555
N10 C12 1_555 1_555
N11 C13 1_555 1_555
N12 C14 1_555 1_555
N13 C8 1_555 1_555
N14 C9 1_555 1_555
N15 C10 1_555 1_555
O1 C34 1_555 1_555
O2 C35 1_555 1_555
O3 C36 1_555 1_555
O4 C34 1_555 1_555
O5 C35 1_555 1_555
O6 C36 1_555 1_555
Sn1 C1 1_555 1_555
Sn2 C37 1_555 1_555
Sn3 C49 1_555 1_555
O7 H106 1_555 1_555
H107 O7 1_555 1_555
O4A Sn3 1_555 1_555
Sn3A O4 1_555 1_555
C8 N4 1_555 1_555
C9 N5 1_555 1_555
C10 N6 1_555 1_555
C11 Sn1 1_555 1_555
C21 N10 1_555 1_555
C21 N13 1_555 1_555
C22 N11 1_555 1_555
C22 N14 1_555 1_555
C23 N12 1_555 1_555
C23 N15 1_555 1_555
C24 Sn1 1_555 1_555
C26 N13 1_555 1_555
C27 N14 1_555 1_555
C28 N15 1_555 1_555
C41 Sn2 1_555 1_555
C45 Sn2 1_555 1_555
C53 Sn3 1_555 1_555
C57 Sn3 1_555 1_555
O1 Sn1 1_555 1_555
O2 Sn3 1_555 1_555
O3 Sn2 1_555 1_555
O5 Sn2 1_555 1_555
O6 Sn1 1_555 1_555

#END
