
#######################################################################
#
#                 Cambridge Crystallographic Data Centre
#                                CCDC 
#
#######################################################################
#
# If this CIF has been generated from an entry in the Cambridge 
# Structural Database, then it will include bibliographic, chemical, 
# crystal, experimental, refinement or atomic coordinate data resulting 
# from the CCDC's data processing and validation procedures.
#
#######################################################################

data_MICFAF
_symmetry_cell_setting           orthorhombic
_symmetry_space_group_name_H-M   'C m c 21'
_symmetry_Int_Tables_number      36
_space_group_name_Hall           'C 2n -2'
loop_
_symmetry_equiv_pos_site_id
_symmetry_equiv_pos_as_xyz
1 x,y,z
2 -x,-y,1/2+z
3 x,-y,1/2+z
4 -x,y,z
5 1/2+x,1/2+y,z
6 1/2-x,1/2-y,1/2+z
7 1/2+x,1/2-y,1/2+z
8 1/2-x,1/2+y,z
_cell_length_a                   19.9731(18)
_cell_length_b                   6.6268(7)
_cell_length_c                   6.4394(6)
_cell_angle_alpha                90
_cell_angle_beta                 90
_cell_angle_gamma                90
_cell_volume                     852.304
loop_
_atom_site_label
_atom_site_type_symbol
_atom_site_fract_x
_atom_site_fract_y
_atom_site_fract_z
Zn1 Zn 0.29439(18) -0.3437(6) 0.4927(13)
Se1 Se 0.31096(13) -0.6922(4) 0.6199(12)
N1 N 0.1218(8) -0.6814(30) 0.641(4)
C1 C 0.0539(11) -0.7694(29) 0.541(4)
C2 C 0.00000 -0.670(5) 0.655(4)
Zn1B Zn 0.29439(18) -0.6563(6) -0.0073(13)
Se1B Se 0.31096(13) -0.3078(4) 0.1199(12)
Zn1B_2 Zn 0.29439(18) -0.6563(6) 0.9927(13)
Se1G Se 0.18904(13) -1.1922(4) 0.6199(12)
Zn1G Zn 0.20561(18) -0.8437(6) 0.4927(13)
Se1E Se 0.18904(13) -0.8078(4) 0.1199(12)
Zn1E Zn 0.20561(18) -1.1563(6) -0.0073(13)
C1C C -0.0539(11) -0.7694(29) 0.541(4)
N1C N -0.1218(8) -0.6814(30) 0.641(4)
Zn1D Zn -0.20561(18) -0.8437(6) 0.4927(13)
Se1G_2 Se 0.18904(13) -0.1922(4) 0.6199(12)
N1G N 0.3782(8) -0.1814(30) 0.641(4)
loop_
_geom_bond_atom_site_label_1
_geom_bond_atom_site_label_2
_geom_bond_site_symmetry_1
_geom_bond_site_symmetry_2
Zn1 Se1 1_555 1_555
Se1 Zn1B_2 1_555 1_555
N1 C1 1_555 1_555
C1 C2 1_555 1_555
C2 C1C 1_555 1_555
Zn1B Se1B 1_555 1_555
Se1B Zn1 1_555 1_555
Se1G Zn1G 1_555 1_555
Zn1G Se1 1_555 1_555
Se1E Zn1B 1_555 1_555
Zn1E Se1E 1_555 1_555
C1C N1C 1_555 1_555
N1C Zn1D 1_555 1_555
Se1G_2 Zn1 1_555 1_555
N1G Zn1 1_555 1_555
N1 Zn1G 1_555 1_555
Zn1G Se1E 1_555 1_555

#END
