
#######################################################################
#
#                 Cambridge Crystallographic Data Centre
#                                CCDC 
#
#######################################################################
#
# If this CIF has been generated from an entry in the Cambridge 
# Structural Database, then it will include bibliographic, chemical, 
# crystal, experimental, refinement or atomic coordinate data resulting 
# from the CCDC's data processing and validation procedures.
#
#######################################################################

data_MICLIU
_symmetry_cell_setting           triclinic
_symmetry_space_group_name_H-M   'P -1'
_symmetry_Int_Tables_number      2
_space_group_name_Hall           '-P 1'
loop_
_symmetry_equiv_pos_site_id
_symmetry_equiv_pos_as_xyz
1 x,y,z
2 -x,-y,-z
_cell_length_a                   10.1585(15)
_cell_length_b                   10.1852(15)
_cell_length_c                   31.774(5)
_cell_angle_alpha                82.814(4)
_cell_angle_beta                 80.953(3)
_cell_angle_gamma                84.325(3)
_cell_volume                     3210.6
loop_
_atom_site_label
_atom_site_type_symbol
_atom_site_fract_x
_atom_site_fract_y
_atom_site_fract_z
Cd1 Cd 0.31715(2) 0.33653(3) 0.666991(9)
Cd2 Cd -1.0000 0.0000 1.0000
F1 F -0.0927(2) 0.0503(3) 0.83643(8)
F2 F -0.3996(2) 0.4253(3) 0.83924(9)
F3 F -0.2873(2) -0.0990(3) 0.82983(9)
F4 F -0.5937(2) 0.2765(3) 0.83198(8)
F5 F -0.5631(3) 0.6716(3) 0.79813(10)
F6 F -1.0105(3) 0.6881(3) 0.77699(10)
F7 F -0.6384(3) 0.6384(3) 0.88237(9)
F8 F -1.0859(3) 0.6551(3) 0.86121(10)
F9 F 0.7590(2) 0.6399(2) 0.50688(8)
F10 F 0.9761(2) 0.7577(2) 0.51412(8)
F11 F 0.5883(3) 1.0140(2) 0.57468(8)
F12 F 0.7576(3) 1.0352(3) 0.50191(9)
O1 O 0.1630(4) 0.2949(6) 0.62574(13)
O2 O -0.0242(5) 0.3774(5) 0.62013(16)
O3 O 0.0596(5) 0.2394(4) 0.58221(13)
O4 O 0.4725(3) 0.4344(4) 0.70114(11)
O5 O 0.5060(4) 0.2423(4) 0.72471(16)
O6 O 0.6296(4) 0.3769(4) 0.73838(13)
O7 O -0.8209(3) -0.0495(4) 1.03977(12)
O8 O -0.8285(4) 0.1365(4) 1.05864(17)
O9 O -0.6578(4) 0.0132(4) 1.06286(14)
N1 N 0.1555(3) 0.3682(3) 0.72741(10)
N2 N -0.8434(3) -0.0428(3) 0.93949(10)
N3 N -0.6955(3) 1.1067(3) 0.68780(10)
N4 N -0.9729(3) 0.2264(3) 0.97335(10)
N5 N 0.4811(3) 0.3083(3) 0.60709(9)
N6 N 0.3029(3) 0.5636(3) 0.63603(10)
N7 N 0.0689(4) 0.3079(4) 0.60983(12)
N8 N 0.5410(4) 0.3563(5) 0.72264(12)
N9 N -0.7659(4) 0.0319(4) 1.05447(13)
C1 C 0.1940(4) 0.3435(4) 0.76619(13)
H1 H 0.2851 0.3346 0.7679
C2 C 0.0248(4) 0.3828(4) 0.72630(12)
H2 H -0.0048 0.4031 0.6998
C3 C 0.1058(3) 0.3308(4) 0.80349(12)
H3 H 0.1374 0.3145 0.8297
C4 C -0.0689(4) 0.3693(4) 0.76248(13)
H4 H -0.1595 0.3788 0.7600
C5 C -0.0297(3) 0.3420(4) 0.80218(12)
C6 C -0.1289(4) 0.3250(5) 0.84260(12)
H5 H -0.0825 0.2829 0.8658
H6 H -0.1665 0.4119 0.8500
C7 C -0.2408(4) 0.2432(5) 0.83861(12)
C8 C -0.2177(4) 0.1099(5) 0.83565(13)
C9 C -0.3696(4) 0.2949(5) 0.83716(12)
C10 C -0.3174(4) 0.0310(5) 0.83180(13)
C11 C -0.4692(4) 0.2169(5) 0.83304(12)
C12 C -0.4461(4) 0.0830(5) 0.82990(12)
C13 C -0.5571(4) 0.0013(5) 0.82486(13)
H7 H -0.5188 -0.0854 0.8175
H8 H -0.6020 0.0439 0.8014
C14 C -0.6587(4) -0.0165(4) 0.86484(13)
C15 C -0.6184(4) -0.0473(4) 0.90469(14)
H9 H -0.5278 -0.0592 0.9071
C16 C -0.7931(4) -0.0041(4) 0.86381(12)
H10 H -0.8249 0.0134 0.8376
C17 C -0.7128(4) -0.0603(4) 0.94079(13)
H11 H -0.6838 -0.0823 0.9673
C18 C -0.8809(4) -0.0171(4) 0.90077(13)
H12 H -0.9719 -0.0075 0.8989
C19 C -0.5917(4) 1.0205(4) 0.69223(14)
H13 H -0.5066 1.0501 0.6845
C20 C -0.8153(4) 1.0586(4) 0.69912(14)
H14 H -0.8907 1.1167 0.6962
C21 C -0.6023(5) 0.8869(5) 0.70796(15)
H15 H -0.5257 0.8303 0.7106
C22 C -0.8340(5) 0.9283(5) 0.71482(15)
H16 H -0.9199 0.9004 0.7222
C23 C -0.7251(6) 0.8406(5) 0.71934(13)
C24 C -0.7409(6) 0.6960(4) 0.73693(14)
H17 H -0.8071 0.6618 0.7232
H18 H -0.6565 0.6441 0.7301
C25 C -0.7834(6) 0.6799(4) 0.78496(16)
C26 C -0.6939(6) 0.6669(4) 0.81320(18)
C27 C -0.9162(6) 0.6767(4) 0.80290(18)
C28 C -0.7326(6) 0.6501(4) 0.85664(16)
C29 C -0.9553(5) 0.6592(4) 0.84644(18)
C30 C -0.8631(6) 0.6464(4) 0.87423(15)
C31 C -0.9086(5) 0.6319(4) 0.92232(14)
H19 H -0.9909 0.6874 0.9286
H20 H -0.8414 0.6625 0.9365
C32 C -0.9318(5) 0.4887(4) 0.93996(13)
C33 C -0.8262(4) 0.3966(4) 0.94628(14)
H21 H -0.7389 0.4210 0.9396
C34 C -1.0581(4) 0.4469(4) 0.95135(13)
H22 H -1.1325 0.5062 0.9483
C35 C -0.8505(4) 0.2678(4) 0.96264(14)
H23 H -0.7777 0.2068 0.9664
C36 C -1.0739(4) 0.3154(4) 0.96741(12)
H24 H -1.1602 0.2885 0.9744
C37 C 0.6110(3) 0.3122(4) 0.60807(12)
H25 H 0.6402 0.2999 0.6347
C38 C 0.4435(3) 0.3206(4) 0.56852(12)
H26 H 0.3538 0.3143 0.5669
C39 C 0.7050(3) 0.3331(4) 0.57233(12)
H27 H 0.7944 0.3361 0.5751
C40 C 0.5302(3) 0.3422(3) 0.53075(12)
H28 H 0.4987 0.3516 0.5045
C41 C 0.6654(3) 0.3497(4) 0.53239(12)
C42 C 0.7616(3) 0.3732(4) 0.49098(11)
H29 H 0.7890 0.2887 0.4799
H30 H 0.7148 0.4289 0.4701
C43 C 0.8845(3) 0.4378(4) 0.49575(11)
C44 C 0.8792(3) 0.5679(4) 0.50337(12)
C45 C 0.9896(4) 0.6292(4) 0.50756(12)
C46 C 0.4170(4) 0.6217(4) 0.62512(13)
H31 H 0.4960 0.5725 0.6303
C47 C 0.1924(4) 0.6388(4) 0.62967(12)
H32 H 0.1110 0.6014 0.6375
C48 C 0.4244(4) 0.7520(4) 0.60635(13)
H33 H 0.5070 0.7868 0.5982
C49 C 0.1916(4) 0.7698(4) 0.61204(13)
H34 H 0.1108 0.8180 0.6084
C50 C 0.3089(4) 0.8292(4) 0.59993(12)
C51 C 0.3135(4) 0.9723(4) 0.58044(14)
H35 H 0.2245 1.0073 0.5752
H36 H 0.3406 1.0242 0.6007
C52 C 0.4089(5) 0.9876(4) 0.53891(15)
C53 C 0.5416(6) 1.0054(4) 0.53798(14)
C54 C 0.6286(5) 1.0167(4) 0.50049(17)
Cd1A Cd -2.31715(2) -0.33653(3) 1.333009(9)
Cd1_2 Cd -0.68285(2) 1.33653(3) 0.666991(9)
Cd1A_2 Cd 1.68285(2) 0.66347(3) 0.333009(9)
Cd1A_3 Cd 0.68285(2) 1.66347(3) 0.333009(9)
Cd1A_4 Cd -1.31715(2) -1.33653(3) 1.333009(9)
F1A F -1.9073(2) -0.0503(3) 1.16357(8)
F2A F -1.6004(2) -0.4253(3) 1.16076(9)
F3A F -1.7127(2) 0.0990(3) 1.17017(9)
F4A F -1.4063(2) -0.2765(3) 1.16802(8)
F5A F -1.4369(3) -0.6716(3) 1.20187(10)
F6A F -0.9895(3) -0.6881(3) 1.22301(10)
F7A F -1.3616(3) -0.6384(3) 1.11763(9)
F8A F -0.9141(3) -0.6551(3) 1.13879(10)
F9A F 1.2410(2) 0.3601(2) 0.49312(8)
F10A F 1.0239(2) 0.2423(2) 0.48588(8)
F11A F 0.4117(3) 0.9860(2) 0.42532(8)
F12A F 0.2424(3) 0.9648(3) 0.49809(9)
O1A O -2.1630(4) -0.2949(6) 1.37426(13)
O2A O -1.9758(5) -0.3774(5) 1.37987(16)
O3A O -2.0596(5) -0.2394(4) 1.41779(13)
O4A O -2.4725(3) -0.4344(4) 1.29886(11)
O5A O -2.5060(4) -0.2423(4) 1.27529(16)
O6A O -2.6296(4) -0.3769(4) 1.26162(13)
O7A O -1.1791(3) 0.0495(4) 0.96023(12)
O8A O -1.1715(4) -0.1365(4) 0.94136(17)
O9A O -1.3422(4) -0.0132(4) 0.93714(14)
N1A N -2.1555(3) -0.3682(3) 1.27259(10)
N2A N -1.1566(3) 0.0428(3) 1.06051(10)
N3A N -1.3045(3) -1.1067(3) 1.31220(10)
N3_2 N 0.3045(3) 0.1067(3) 0.68780(10)
N3A_2 N -2.3045(3) -0.1067(3) 1.31220(10)
N4A N -1.0271(3) -0.2264(3) 1.02665(10)
N5A N 1.5189(3) 0.6917(3) 0.39291(9)
N5A_2 N -2.4811(3) -0.3083(3) 1.39291(9)
N6A N 0.6971(3) 1.4364(3) 0.36397(10)
N6A_2 N -2.3029(3) -0.5636(3) 1.36397(10)
N7A N -2.0689(4) -0.3079(4) 1.39017(12)
N8A N -2.5410(4) -0.3563(5) 1.27736(12)
N9A N -1.2341(4) -0.0319(4) 0.94553(13)
C1A C -2.1940(4) -0.3435(4) 1.23381(13)
H1A H -2.2851 -0.3346 1.2321
C2A C -2.0248(4) -0.3828(4) 1.27370(12)
H2A H -1.9952 -0.4031 1.3002
C3A C -2.1058(3) -0.3308(4) 1.19651(12)
H3A H -2.1374 -0.3145 1.1703
C4A C -1.9311(4) -0.3693(4) 1.23752(13)
H4A H -1.8405 -0.3788 1.2400
C5A C -1.9703(3) -0.3420(4) 1.19782(12)
C6A C -1.8711(4) -0.3250(5) 1.15740(12)
H5A H -1.9175 -0.2829 1.1342
H6A H -1.8335 -0.4119 1.1500
C7A C -1.7592(4) -0.2432(5) 1.16139(12)
C8A C -1.7823(4) -0.1099(5) 1.16435(13)
C9A C -1.6304(4) -0.2949(5) 1.16284(12)
C10A C -1.6826(4) -0.0310(5) 1.16820(13)
C11A C -1.5308(4) -0.2169(5) 1.16696(12)
C12A C -1.5539(4) -0.0830(5) 1.17010(12)
C13A C -1.4429(4) -0.0013(5) 1.17514(13)
H7A H -1.4812 0.0854 1.1825
H8A H -1.3980 -0.0439 1.1986
C14A C -1.3413(4) 0.0165(4) 1.13516(13)
C15A C -1.3816(4) 0.0473(4) 1.09531(14)
H9A H -1.4722 0.0592 1.0929
C16A C -1.2069(4) 0.0041(4) 1.13619(12)
H10A H -1.1751 -0.0134 1.1624
C17A C -1.2872(4) 0.0603(4) 1.05921(13)
H11A H -1.3162 0.0823 1.0327
C18A C -1.1191(4) 0.0171(4) 1.09923(13)
H12A H -1.0281 0.0075 1.1011
C19A C -1.4083(4) -1.0205(4) 1.30777(14)
H13A H -1.4934 -1.0501 1.3155
C20A C -1.1847(4) -1.0586(4) 1.30088(14)
H14A H -1.1093 -1.1167 1.3038
C21A C -1.3977(5) -0.8869(5) 1.29204(15)
H15A H -1.4743 -0.8303 1.2894
C22A C -1.1660(5) -0.9283(5) 1.28518(15)
H16A H -1.0801 -0.9004 1.2778
C23A C -1.2749(6) -0.8406(5) 1.28066(13)
C24A C -1.2591(6) -0.6960(4) 1.26307(14)
H17A H -1.1929 -0.6618 1.2768
H18A H -1.3435 -0.6441 1.2699
C25A C -1.2166(6) -0.6799(4) 1.21504(16)
C26A C -1.3061(6) -0.6669(4) 1.18680(18)
C27A C -1.0838(6) -0.6767(4) 1.19710(18)
C28A C -1.2674(6) -0.6501(4) 1.14336(16)
C29A C -1.0447(5) -0.6592(4) 1.15356(18)
C30A C -1.1369(6) -0.6464(4) 1.12577(15)
C31A C -1.0914(5) -0.6319(4) 1.07768(14)
H19A H -1.0091 -0.6874 1.0714
H20A H -1.1586 -0.6625 1.0635
C32A C -1.0682(5) -0.4887(4) 1.06004(13)
C33A C -1.1738(4) -0.3966(4) 1.05372(14)
H21A H -1.2611 -0.4210 1.0604
C34A C -0.9419(4) -0.4469(4) 1.04865(13)
H22A H -0.8675 -0.5062 1.0517
C35A C -1.1495(4) -0.2678(4) 1.03736(14)
H23A H -1.2223 -0.2068 1.0336
C36A C -0.9261(4) -0.3154(4) 1.03259(12)
H24A H -0.8398 -0.2885 1.0256
C37A C 1.3890(3) 0.6878(4) 0.39193(12)
H25A H 1.3598 0.7001 0.3653
C38A C 1.5565(3) 0.6794(4) 0.43148(12)
H26A H 1.6462 0.6857 0.4331
C39A C 1.2950(3) 0.6669(4) 0.42767(12)
H27A H 1.2056 0.6639 0.4249
C40A C 1.4698(3) 0.6578(3) 0.46925(12)
H28A H 1.5013 0.6484 0.4955
C41A C 1.3346(3) 0.6503(4) 0.46761(12)
C42A C 1.2384(3) 0.6268(4) 0.50902(11)
H29A H 1.2110 0.7113 0.5201
H30A H 1.2852 0.5711 0.5299
C43A C 1.1155(3) 0.5622(4) 0.50425(11)
C44A C 1.1208(3) 0.4321(4) 0.49663(12)
C45A C 1.0104(4) 0.3708(4) 0.49244(12)
C46A C 0.5830(4) 1.3783(4) 0.37488(13)
H31A H 0.5040 1.4275 0.3697
C47A C 0.8076(4) 1.3612(4) 0.37033(12)
H32A H 0.8890 1.3986 0.3625
C48A C 0.5756(4) 1.2480(4) 0.39365(13)
H33A H 0.4930 1.2132 0.4018
C49A C 0.8084(4) 1.2302(4) 0.38796(13)
H34A H 0.8892 1.1820 0.3916
C50A C 0.6911(4) 1.1708(4) 0.40007(12)
C51A C 0.6865(4) 1.0277(4) 0.41956(14)
H35A H 0.7755 0.9927 0.4248
H36A H 0.6594 0.9758 0.3993
C52A C 0.5911(5) 1.0124(4) 0.46109(15)
C53A C 0.4584(6) 0.9946(4) 0.46202(14)
C54A C 0.3714(5) 0.9833(4) 0.49951(17)
C55 C 0.7802(4) 0.8200(6) 0.68920(17)
C56 C 0.7682(5) 0.8942(7) 0.72399(18)
H37 H 0.7454 0.8541 0.7518
C57 C 0.7902(6) 1.0256(7) 0.7169(2)
H38 H 0.7813 1.0748 0.7401
C58 C 0.8260(5) 1.0874(6) 0.6755(2)
H39 H 0.8415 1.1769 0.6713
C59 C 0.8381(4) 1.0170(6) 0.64144(17)
H40 H 0.8615 1.0583 0.6138
C60 C 0.8150(4) 0.8802(5) 0.64786(17)
C61 C 0.8240(4) 0.8037(6) 0.61347(18)
H41 H 0.8444 0.8429 0.5854
C62 C 0.8030(5) 0.6720(6) 0.6211(2)
H42 H 0.8112 0.6215 0.5982
C63 C 0.7694(5) 0.6125(6) 0.6628(2)
H43 H 0.7546 0.5228 0.6675
C64 C 0.7580(5) 0.6838(6) 0.69640(19)
H44 H 0.7356 0.6435 0.7242
C65 C 0.5526(5) 0.3191(7) 0.9524(2)
H45 H 0.5811 0.2670 0.9301
C66 C 0.5723(5) 0.4515(7) 0.94627(18)
H46 H 0.6127 0.4896 0.9199
C67 C 0.5309(4) 0.5302(6) 0.98040(15)
C68 C 0.5509(5) 0.6657(6) 0.9753(2)
H47 H 0.5923 0.7053 0.9492
C69 C 0.4899(5) 0.2616(6) 0.9918(2)
H48 H 0.4762 0.1717 0.9953
C65A C 0.4474(5) 0.6809(7) 1.0476(2)
H45A H 0.4189 0.7330 1.0699
C66A C 0.4277(5) 0.5485(7) 1.05373(18)
H46A H 0.3873 0.5104 1.0801
C67A C 0.4691(4) 0.4698(6) 1.01960(15)
C68A C 0.4491(5) 0.3343(6) 1.0247(2)
H47A H 0.4077 0.2947 1.0508
C69A C 0.5101(5) 0.7384(6) 1.0082(2)
H48A H 0.5238 0.8283 1.0047
loop_
_geom_bond_atom_site_label_1
_geom_bond_atom_site_label_2
_geom_bond_site_symmetry_1
_geom_bond_site_symmetry_2
Cd1 O1 1_555 1_555
Cd2 O7 1_555 1_555
F1 C8 1_555 1_555
F2 C9 1_555 1_555
F3 C10 1_555 1_555
F4 C11 1_555 1_555
F5 C26 1_555 1_555
F6 C27 1_555 1_555
F7 C28 1_555 1_555
F8 C29 1_555 1_555
F9 C44 1_555 1_555
F10 C45 1_555 1_555
F11 C53 1_555 1_555
F12 C54 1_555 1_555
O1 N7 1_555 1_555
O2 N7 1_555 1_555
O3 N7 1_555 1_555
O4 Cd1 1_555 1_555
O5 N8 1_555 1_555
O6 N8 1_555 1_555
O7 N9 1_555 1_555
O8 N9 1_555 1_555
O9 N9 1_555 1_555
N1 Cd1 1_555 1_555
N2 Cd2 1_555 1_555
N3 C19 1_555 1_555
N4 Cd2 1_555 1_555
N5 Cd1 1_555 1_555
N6 Cd1 1_555 1_555
N8 O4 1_555 1_555
C1 N1 1_555 1_555
H1 C1 1_555 1_555
C2 N1 1_555 1_555
H2 C2 1_555 1_555
C3 C1 1_555 1_555
H3 C3 1_555 1_555
C4 C2 1_555 1_555
H4 C4 1_555 1_555
C5 C3 1_555 1_555
C6 C5 1_555 1_555
H5 C6 1_555 1_555
H6 C6 1_555 1_555
C7 C6 1_555 1_555
C8 C7 1_555 1_555
C9 C7 1_555 1_555
C10 C8 1_555 1_555
C11 C9 1_555 1_555
C12 C10 1_555 1_555
C13 C12 1_555 1_555
H7 C13 1_555 1_555
H8 C13 1_555 1_555
C14 C13 1_555 1_555
C15 C14 1_555 1_555
H9 C15 1_555 1_555
C16 C14 1_555 1_555
H10 C16 1_555 1_555
C17 N2 1_555 1_555
H11 C17 1_555 1_555
C18 N2 1_555 1_555
H12 C18 1_555 1_555
C19 H13 1_555 1_555
C20 N3 1_555 1_555
H14 C20 1_555 1_555
C21 C19 1_555 1_555
H15 C21 1_555 1_555
C22 C20 1_555 1_555
H16 C22 1_555 1_555
C23 C21 1_555 1_555
C24 C23 1_555 1_555
H17 C24 1_555 1_555
H18 C24 1_555 1_555
C25 C24 1_555 1_555
C26 C25 1_555 1_555
C27 C25 1_555 1_555
C28 C26 1_555 1_555
C29 C27 1_555 1_555
C30 C28 1_555 1_555
C31 C30 1_555 1_555
H19 C31 1_555 1_555
H20 C31 1_555 1_555
C32 C31 1_555 1_555
C33 C32 1_555 1_555
H21 C33 1_555 1_555
C34 C32 1_555 1_555
H22 C34 1_555 1_555
C35 N4 1_555 1_555
H23 C35 1_555 1_555
C36 N4 1_555 1_555
H24 C36 1_555 1_555
C37 N5 1_555 1_555
H25 C37 1_555 1_555
C38 N5 1_555 1_555
H26 C38 1_555 1_555
C39 C37 1_555 1_555
H27 C39 1_555 1_555
C40 C38 1_555 1_555
H28 C40 1_555 1_555
C41 C39 1_555 1_555
C42 C41 1_555 1_555
H29 C42 1_555 1_555
H30 C42 1_555 1_555
C43 C42 1_555 1_555
C44 C43 1_555 1_555
C45 C44 1_555 1_555
C46 N6 1_555 1_555
H31 C46 1_555 1_555
C47 N6 1_555 1_555
H32 C47 1_555 1_555
C48 C46 1_555 1_555
H33 C48 1_555 1_555
C49 C47 1_555 1_555
H34 C49 1_555 1_555
C50 C48 1_555 1_555
C51 C50 1_555 1_555
H35 C51 1_555 1_555
H36 C51 1_555 1_555
C52 C51 1_555 1_555
C53 C52 1_555 1_555
C54 C53 1_555 1_555
C55 C56 1_555 1_555
C56 H37 1_555 1_555
C57 C56 1_555 1_555
H38 C57 1_555 1_555
C58 C57 1_555 1_555
H39 C58 1_555 1_555
C59 C58 1_555 1_555
H40 C59 1_555 1_555
C60 C55 1_555 1_555
C61 C60 1_555 1_555
H41 C61 1_555 1_555
C62 C61 1_555 1_555
H42 C62 1_555 1_555
C63 C62 1_555 1_555
H43 C63 1_555 1_555
C64 C55 1_555 1_555
H44 C64 1_555 1_555
C65 H45 1_555 1_555
C66 C65 1_555 1_555
H46 C66 1_555 1_555
C67 C66 1_555 1_555
C68 C67 1_555 1_555
H47 C68 1_555 1_555
C69 C65 1_555 1_555
H48 C69 1_555 1_555
Cd1A O1A 1_555 1_555
Cd1_2 N3 1_555 1_555
Cd1A_2 N5A 1_555 1_555
Cd1A_3 N6A 1_555 1_555
Cd1A_4 N3A 1_555 1_555
F1A C8A 1_555 1_555
F2A C9A 1_555 1_555
F3A C10A 1_555 1_555
F4A C11A 1_555 1_555
F5A C26A 1_555 1_555
F6A C27A 1_555 1_555
F7A C28A 1_555 1_555
F8A C29A 1_555 1_555
F9A C44A 1_555 1_555
F10A C45A 1_555 1_555
F11A C53A 1_555 1_555
F12A C54A 1_555 1_555
O1A N7A 1_555 1_555
O2A N7A 1_555 1_555
O3A N7A 1_555 1_555
O4A Cd1A 1_555 1_555
O5A N8A 1_555 1_555
O6A N8A 1_555 1_555
O7A Cd2 1_555 1_555
O8A N9A 1_555 1_555
O9A N9A 1_555 1_555
N1A Cd1A 1_555 1_555
N2A Cd2 1_555 1_555
N3A C19A 1_555 1_555
N3_2 Cd1 1_555 1_555
N3A_2 Cd1A 1_555 1_555
N4A Cd2 1_555 1_555
N5A C37A 1_555 1_555
N5A_2 Cd1A 1_555 1_555
N6A C46A 1_555 1_555
N6A_2 Cd1A 1_555 1_555
N8A O4A 1_555 1_555
N9A O7A 1_555 1_555
C1A N1A 1_555 1_555
H1A C1A 1_555 1_555
C2A N1A 1_555 1_555
H2A C2A 1_555 1_555
C3A C1A 1_555 1_555
H3A C3A 1_555 1_555
C4A C2A 1_555 1_555
H4A C4A 1_555 1_555
C5A C3A 1_555 1_555
C6A C5A 1_555 1_555
H5A C6A 1_555 1_555
H6A C6A 1_555 1_555
C7A C6A 1_555 1_555
C8A C7A 1_555 1_555
C9A C7A 1_555 1_555
C10A C8A 1_555 1_555
C11A C9A 1_555 1_555
C12A C10A 1_555 1_555
C13A C12A 1_555 1_555
H7A C13A 1_555 1_555
H8A C13A 1_555 1_555
C14A C13A 1_555 1_555
C15A C14A 1_555 1_555
H9A C15A 1_555 1_555
C16A C14A 1_555 1_555
H10A C16A 1_555 1_555
C17A N2A 1_555 1_555
H11A C17A 1_555 1_555
C18A N2A 1_555 1_555
H12A C18A 1_555 1_555
C19A H13A 1_555 1_555
C20A N3A 1_555 1_555
H14A C20A 1_555 1_555
C21A C19A 1_555 1_555
H15A C21A 1_555 1_555
C22A C20A 1_555 1_555
H16A C22A 1_555 1_555
C23A C21A 1_555 1_555
C24A C23A 1_555 1_555
H17A C24A 1_555 1_555
H18A C24A 1_555 1_555
C25A C24A 1_555 1_555
C26A C25A 1_555 1_555
C27A C25A 1_555 1_555
C28A C26A 1_555 1_555
C29A C27A 1_555 1_555
C30A C28A 1_555 1_555
C31A C30A 1_555 1_555
H19A C31A 1_555 1_555
H20A C31A 1_555 1_555
C32A C31A 1_555 1_555
C33A C32A 1_555 1_555
H21A C33A 1_555 1_555
C34A C32A 1_555 1_555
H22A C34A 1_555 1_555
C35A N4A 1_555 1_555
H23A C35A 1_555 1_555
C36A N4A 1_555 1_555
H24A C36A 1_555 1_555
C37A H25A 1_555 1_555
C38A N5A 1_555 1_555
H26A C38A 1_555 1_555
C39A C37A 1_555 1_555
H27A C39A 1_555 1_555
C40A C38A 1_555 1_555
H28A C40A 1_555 1_555
C41A C39A 1_555 1_555
C42A C41A 1_555 1_555
H29A C42A 1_555 1_555
H30A C42A 1_555 1_555
C43A C45 1_555 1_555
C44A C43A 1_555 1_555
C45A C43 1_555 1_555
C46A H31A 1_555 1_555
C47A N6A 1_555 1_555
H32A C47A 1_555 1_555
C48A C46A 1_555 1_555
H33A C48A 1_555 1_555
C49A C47A 1_555 1_555
H34A C49A 1_555 1_555
C50A C48A 1_555 1_555
C51A C50A 1_555 1_555
H35A C51A 1_555 1_555
H36A C51A 1_555 1_555
C52A C54 1_555 1_555
C53A C52A 1_555 1_555
C54A C52 1_555 1_555
C65A H45A 1_555 1_555
C66A C65A 1_555 1_555
H46A C66A 1_555 1_555
C67A C67 1_555 1_555
C68A C69 1_555 1_555
H47A C68A 1_555 1_555
C69A C68 1_555 1_555
H48A C69A 1_555 1_555
C4 C5 1_555 1_555
C11 C12 1_555 1_555
C15 C17 1_555 1_555
C16 C18 1_555 1_555
C22 C23 1_555 1_555
C29 C30 1_555 1_555
C33 C35 1_555 1_555
C34 C36 1_555 1_555
C40 C41 1_555 1_555
C49 C50 1_555 1_555
C59 C60 1_555 1_555
C63 C64 1_555 1_555
C4A C5A 1_555 1_555
C11A C12A 1_555 1_555
C15A C17A 1_555 1_555
C16A C18A 1_555 1_555
C22A C23A 1_555 1_555
C29A C30A 1_555 1_555
C33A C35A 1_555 1_555
C34A C36A 1_555 1_555
C40A C41A 1_555 1_555
C42A C43A 1_555 1_555
C44A C45A 1_555 1_555
C49A C50A 1_555 1_555
C51A C52A 1_555 1_555
C53A C54A 1_555 1_555
C65A C69A 1_555 1_555
C66A C67A 1_555 1_555
C67A C68A 1_555 1_555

#END
