
#######################################################################
#
#                 Cambridge Crystallographic Data Centre
#                                CCDC 
#
#######################################################################
#
# If this CIF has been generated from an entry in the Cambridge 
# Structural Database, then it will include bibliographic, chemical, 
# crystal, experimental, refinement or atomic coordinate data resulting 
# from the CCDC's data processing and validation procedures.
#
#######################################################################

data_MICMUG
_symmetry_cell_setting           monoclinic
_symmetry_space_group_name_H-M   'P 21/n'
_symmetry_Int_Tables_number      14
_space_group_name_Hall           '-P 2yn'
loop_
_symmetry_equiv_pos_site_id
_symmetry_equiv_pos_as_xyz
1 x,y,z
2 1/2-x,1/2+y,1/2-z
3 -x,-y,-z
4 1/2+x,1/2-y,1/2+z
_cell_length_a                   9.1945(9)
_cell_length_b                   4.2514(4)
_cell_length_c                   20.4706(19)
_cell_angle_alpha                90
_cell_angle_beta                 96.759(1)
_cell_angle_gamma                90
_cell_volume                     794.624
loop_
_atom_site_label
_atom_site_type_symbol
_atom_site_fract_x
_atom_site_fract_y
_atom_site_fract_z
I1 I 0.3219(1) 0.6118(2) 0.1633(1)
Cu1 Cu 0.1864(2) 1.1054(4) 0.2072(1)
N1 N -0.0277(11) 1.1080(20) 0.1637(5)
C1 C -0.0671(15) 0.9640(30) 0.1051(7)
C2 C -0.2111(16) 0.9590(30) 0.0758(7)
C3 C -0.3146(15) 1.1090(40) 0.1090(9)
C4 C -0.2753(16) 1.2600(40) 0.1667(9)
C5 C -0.1290(15) 1.2510(40) 0.1925(7)
C6 C -0.2530(20) 0.8010(50) 0.0098(8)
H1 H 0.0046 0.8646 0.0840
H2 H -0.4126 1.1052 0.0915
H3 H -0.3441 1.3658 0.1883
H4 H -0.1014 1.3518 0.2324
H5 H -0.2904 0.9553 -0.0220
H6 H -0.3265 0.6445 0.0140
H7 H -0.1680 0.7024 -0.0044
Cu1_2 Cu 0.1864(2) 0.1054(4) 0.2072(1)
Cu1A Cu 0.3136(2) 0.6054(4) 0.2928(1)
I1_2 I 0.3219(1) 1.6118(2) 0.1633(1)
I1A I 0.1781(1) 1.1118(2) 0.3367(1)
Cu1A_2 Cu 0.3136(2) 1.6054(4) 0.2928(1)
Cu1_3 Cu 0.1864(2) 2.1054(4) 0.2072(1)
loop_
_geom_bond_atom_site_label_1
_geom_bond_atom_site_label_2
_geom_bond_site_symmetry_1
_geom_bond_site_symmetry_2
I1 Cu1 1_555 1_555
Cu1 N1 1_555 1_555
N1 C1 1_555 1_555
C1 C2 1_555 1_555
C2 C3 1_555 1_555
C3 C4 1_555 1_555
C4 C5 1_555 1_555
C5 N1 1_555 1_555
C6 C2 1_555 1_555
H1 C1 1_555 1_555
H2 C3 1_555 1_555
H3 C4 1_555 1_555
H4 C5 1_555 1_555
H5 C6 1_555 1_555
H6 C6 1_555 1_555
H7 C6 1_555 1_555
Cu1_2 I1 1_555 1_555
Cu1A I1 1_555 1_555
I1_2 Cu1 1_555 1_555
I1A Cu1 1_555 1_555
Cu1A_2 I1_2 1_555 1_555
Cu1_3 I1_2 1_555 1_555
Cu1A I1A 1_555 1_555
I1A Cu1A_2 1_555 1_555

#END
