
#######################################################################
#
#                 Cambridge Crystallographic Data Centre
#                                CCDC 
#
#######################################################################
#
# If this CIF has been generated from an entry in the Cambridge 
# Structural Database, then it will include bibliographic, chemical, 
# crystal, experimental, refinement or atomic coordinate data resulting 
# from the CCDC's data processing and validation procedures.
#
#######################################################################

data_MICMAN
_symmetry_cell_setting           triclinic
_symmetry_space_group_name_H-M   'P -1'
_symmetry_Int_Tables_number      2
_space_group_name_Hall           '-P 1'
loop_
_symmetry_equiv_pos_site_id
_symmetry_equiv_pos_as_xyz
1 x,y,z
2 -x,-y,-z
_cell_length_a                   10.363(5)
_cell_length_b                   10.392(5)
_cell_length_c                   10.412(5)
_cell_angle_alpha                73.869(5)
_cell_angle_beta                 80.082(5)
_cell_angle_gamma                79.906(5)
_cell_volume                     1051.39
loop_
_atom_site_label
_atom_site_type_symbol
_atom_site_fract_x
_atom_site_fract_y
_atom_site_fract_z
Cd1 Cd 1.0000 0.5000 0.5000
F1 F 0.74567(13) 0.99355(15) 0.97401(13)
F2 F 0.83392(14) 1.23150(13) 0.92409(13)
F3 F 0.75552(11) 0.00083(13) 0.38595(13)
F4 F 0.56587(13) 0.04124(13) 0.22937(11)
O1 O 1.17284(13) 0.39905(15) 0.62926(14)
O2 O 1.2906(2) 0.32388(19) 0.46893(17)
O3 O 1.36137(16) 0.27879(19) 0.6614(2)
N1 N 0.95252(14) 0.59025(14) 0.69503(14)
N2 N 0.89040(13) 0.31445(13) 0.60296(13)
N3 N 1.27730(14) 0.33375(14) 0.58590(15)
C1 C 0.84410(18) 0.57654(18) 0.78635(18)
H1 H 0.7769 0.5333 0.7708
C2 C 1.04544(18) 0.65117(19) 0.72075(18)
H2 H 1.1238 0.6609 0.6584
C3 C 0.82499(18) 0.62219(18) 0.90214(18)
H3 H 0.7467 0.6093 0.9641
C4 C 1.03329(19) 0.7006(2) 0.83334(18)
H4 H 1.1018 0.7439 0.8463
C5 C 0.92080(19) 0.68681(17) 0.92721(16)
C6 C 0.9030(2) 0.7380(2) 1.05329(19)
H5 H 0.8080 0.7475 1.0895
H6 H 0.9508 0.6704 1.1226
C7 C 0.9531(2) 0.8726(2) 1.02728(17)
C8 C 0.8722(2) 0.9946(2) 0.98839(18)
C9 C 0.9182(2) 1.1172(2) 0.96192(18)
C10 C 0.96358(16) 0.19206(17) 0.61959(17)
H7 H 1.0566 0.1864 0.6157
C11 C 0.75873(16) 0.32002(16) 0.61231(16)
H8 H 0.7057 0.4056 0.6031
C12 C 0.90919(17) 0.07399(17) 0.64221(17)
H9 H 0.9643 -0.0106 0.6534
C13 C 0.69684(16) 0.20632(17) 0.63489(17)
H10 H 0.6034 0.2143 0.6411
C14 C 0.77339(17) 0.08032(16) 0.64840(16)
C15 C 0.71064(19) -0.04706(17) 0.6697(2)
H11 H 0.7793 -0.1196 0.6475
H12 H 0.6743 -0.0776 0.7659
C16 C 0.60128(16) -0.02357(15) 0.58339(17)
C17 C 0.62840(16) -0.00019(16) 0.44487(18)
C18 C 0.53042(17) 0.02182(16) 0.36355(17)
Cd1_2 Cd 1.0000 1.5000 1.5000
Cd1_3 Cd 0.0000 -0.5000 0.5000
F1A F 1.25433(13) 1.00645(15) 1.02599(13)
F2A F 1.16608(14) 0.76850(13) 1.07591(13)
F3A F 0.24448(11) -0.00083(13) 0.61405(13)
F4A F 0.43413(13) -0.04124(13) 0.77063(11)
O1A O 0.82716(13) 0.60095(15) 0.37074(14)
O2A O 0.7094(2) 0.67612(19) 0.53107(17)
O3A O 0.63863(16) 0.72121(19) 0.3386(2)
N1A N 1.04748(14) 1.40975(14) 1.30497(14)
N1A_2 N 1.04748(14) 0.40975(14) 0.30497(14)
N2A N 0.10960(13) -0.31445(13) 0.39704(13)
N2A_2 N 1.10960(13) 0.68555(13) 0.39704(13)
N3A N 0.72270(14) 0.66625(14) 0.41410(15)
C1A C 1.15590(18) 1.42346(18) 1.21365(18)
H1A H 1.2231 1.4667 1.2292
C2A C 0.95456(18) 1.34883(19) 1.27925(18)
H2A H 0.8762 1.3391 1.3416
C3A C 1.17501(18) 1.37781(18) 1.09786(18)
H3A H 1.2533 1.3907 1.0359
C4A C 0.96671(19) 1.2994(2) 1.16666(18)
H4A H 0.8982 1.2561 1.1537
C5A C 1.07920(19) 1.31319(17) 1.07279(16)
C6A C 1.0970(2) 1.2620(2) 0.94671(19)
H5A H 1.1920 1.2525 0.9105
H6A H 1.0492 1.3296 0.8774
C7A C 1.0469(2) 1.1274(2) 0.97272(17)
C8A C 1.1278(2) 1.0054(2) 1.01161(18)
C9A C 1.0818(2) 0.8828(2) 1.03808(18)
C10A C 0.03642(16) -0.19206(17) 0.38041(17)
H7A H -0.0566 -0.1864 0.3843
C11A C 0.24127(16) -0.32002(16) 0.38769(16)
H8A H 0.2943 -0.4056 0.3969
C12A C 0.09081(17) -0.07399(17) 0.35779(17)
H9A H 0.0357 0.0106 0.3466
C13A C 0.30316(16) -0.20632(17) 0.36511(17)
H10A H 0.3966 -0.2143 0.3589
C14A C 0.22661(17) -0.08032(16) 0.35160(16)
C15A C 0.28936(19) 0.04706(17) 0.3303(2)
H11A H 0.2207 0.1196 0.3525
H12A H 0.3257 0.0776 0.2341
C16A C 0.39872(16) 0.02357(15) 0.41661(17)
C17A C 0.37160(16) 0.00019(16) 0.55513(18)
C18A C 0.46958(17) -0.02182(16) 0.63645(17)
C19 C 0.4598(2) 0.5500(3) 0.8695(3)
C20 C 0.5150(2) 0.4166(3) 0.9150(3)
H13 H 0.5265 0.3575 0.8576
C21 C 0.4463(2) 0.6321(3) 0.9578(3)
H14 H 0.4094 0.7242 0.9297
C22 C 0.4164(3) 0.6049(4) 0.7307(4)
H15 H 0.4337 0.5328 0.6836
H16 H 0.4659 0.6792 0.6792
H17 H 0.3217 0.6381 0.7395
C19A C 0.5402(2) 0.4500(3) 1.1305(3)
C20A C 0.4850(2) 0.5834(3) 1.0850(3)
H13A H 0.4735 0.6425 1.1424
C21A C 0.5537(2) 0.3679(3) 1.0422(3)
H14A H 0.5906 0.2758 1.0703
C22A C 0.5836(3) 0.3951(4) 1.2693(4)
H15A H 0.5663 0.4672 1.3164
H16A H 0.5341 0.3208 1.3208
H17A H 0.6783 0.3619 1.2605
loop_
_geom_bond_atom_site_label_1
_geom_bond_atom_site_label_2
_geom_bond_site_symmetry_1
_geom_bond_site_symmetry_2
Cd1 O1 1_555 1_555
F1 C8 1_555 1_555
F2 C9 1_555 1_555
F3 C17 1_555 1_555
F4 C18 1_555 1_555
O1 N3 1_555 1_555
O2 N3 1_555 1_555
O3 N3 1_555 1_555
N1 Cd1 1_555 1_555
N2 Cd1 1_555 1_555
C1 N1 1_555 1_555
H1 C1 1_555 1_555
C2 N1 1_555 1_555
H2 C2 1_555 1_555
C3 C1 1_555 1_555
H3 C3 1_555 1_555
C4 C2 1_555 1_555
H4 C4 1_555 1_555
C5 C3 1_555 1_555
C6 C5 1_555 1_555
H5 C6 1_555 1_555
H6 C6 1_555 1_555
C7 C6 1_555 1_555
C8 C7 1_555 1_555
C9 C8 1_555 1_555
C10 N2 1_555 1_555
H7 C10 1_555 1_555
C11 N2 1_555 1_555
H8 C11 1_555 1_555
C12 C10 1_555 1_555
H9 C12 1_555 1_555
C13 C11 1_555 1_555
H10 C13 1_555 1_555
C14 C12 1_555 1_555
C15 C14 1_555 1_555
H11 C15 1_555 1_555
H12 C15 1_555 1_555
C16 C15 1_555 1_555
C17 C16 1_555 1_555
C18 C17 1_555 1_555
C19 C20 1_555 1_555
C20 H13 1_555 1_555
C21 C19 1_555 1_555
H14 C21 1_555 1_555
C22 C19 1_555 1_555
H15 C22 1_555 1_555
H16 C22 1_555 1_555
H17 C22 1_555 1_555
Cd1_2 N1A 1_555 1_555
Cd1_3 N2A 1_555 1_555
F1A C8A 1_555 1_555
F2A C9A 1_555 1_555
F3A C17A 1_555 1_555
F4A C18A 1_555 1_555
O1A Cd1 1_555 1_555
O2A N3A 1_555 1_555
O3A N3A 1_555 1_555
N1A C1A 1_555 1_555
N1A_2 Cd1 1_555 1_555
N2A C10A 1_555 1_555
N2A_2 Cd1 1_555 1_555
N3A O1A 1_555 1_555
C1A H1A 1_555 1_555
C2A N1A 1_555 1_555
H2A C2A 1_555 1_555
C3A C1A 1_555 1_555
H3A C3A 1_555 1_555
C4A C2A 1_555 1_555
H4A C4A 1_555 1_555
C5A C3A 1_555 1_555
C6A C5A 1_555 1_555
H5A C6A 1_555 1_555
H6A C6A 1_555 1_555
C7A C9 1_555 1_555
C8A C7A 1_555 1_555
C9A C7 1_555 1_555
C10A H7A 1_555 1_555
C11A N2A 1_555 1_555
H8A C11A 1_555 1_555
C12A C10A 1_555 1_555
H9A C12A 1_555 1_555
C13A C11A 1_555 1_555
H10A C13A 1_555 1_555
C14A C12A 1_555 1_555
C15A C14A 1_555 1_555
H11A C15A 1_555 1_555
H12A C15A 1_555 1_555
C16A C18 1_555 1_555
C17A C16A 1_555 1_555
C18A C16 1_555 1_555
C19A C20A 1_555 1_555
C20A C21 1_555 1_555
H13A C20A 1_555 1_555
C21A C20 1_555 1_555
H14A C21A 1_555 1_555
C22A C19A 1_555 1_555
H15A C22A 1_555 1_555
H16A C22A 1_555 1_555
H17A C22A 1_555 1_555
C4 C5 1_555 1_555
C13 C14 1_555 1_555
C4A C5A 1_555 1_555
C6A C7A 1_555 1_555
C8A C9A 1_555 1_555
C13A C14A 1_555 1_555
C15A C16A 1_555 1_555
C17A C18A 1_555 1_555
C19A C21A 1_555 1_555

#END
