
#######################################################################
#
#                 Cambridge Crystallographic Data Centre
#                                CCDC 
#
#######################################################################
#
# If this CIF has been generated from an entry in the Cambridge 
# Structural Database, then it will include bibliographic, chemical, 
# crystal, experimental, refinement or atomic coordinate data resulting 
# from the CCDC's data processing and validation procedures.
#
#######################################################################

data_MICMUH
_symmetry_cell_setting           monoclinic
_symmetry_space_group_name_H-M   'P 21/n'
_symmetry_Int_Tables_number      14
_space_group_name_Hall           '-P 2yn'
loop_
_symmetry_equiv_pos_site_id
_symmetry_equiv_pos_as_xyz
1 x,y,z
2 1/2-x,1/2+y,1/2-z
3 -x,-y,-z
4 1/2+x,1/2-y,1/2+z
_cell_length_a                   13.582(2)
_cell_length_b                   29.425(5)
_cell_length_c                   16.240(3)
_cell_angle_alpha                90
_cell_angle_beta                 106.624(3)
_cell_angle_gamma                90
_cell_volume                     6219.04
loop_
_atom_site_label
_atom_site_type_symbol
_atom_site_fract_x
_atom_site_fract_y
_atom_site_fract_z
Cd1 Cd 0.78161(2) 0.305578(8) 0.498600(17)
F1 F 0.88504(17) 0.52546(8) 0.27033(18)
F2 F 0.52700(17) 0.50570(7) 0.18309(17)
F3 F 0.86042(18) 0.61153(7) 0.31165(17)
F4 F 0.50205(17) 0.59102(8) 0.22916(18)
F5 F 0.90551(19) 0.09759(9) 0.7997(2)
F6 F 0.5515(2) 0.11557(9) 0.7528(2)
F7 F 0.8762(3) 0.01029(10) 0.7570(3)
F8 F 0.5222(2) 0.02838(9) 0.7131(2)
O1 O 0.9539(2) 0.32220(10) 0.50120(19)
O2 O 1.0036(2) 0.27799(11) 0.6095(2)
O3 O 1.1137(2) 0.30351(10) 0.54919(19)
O4 O 0.6050(3) 0.32132(11) 0.4971(2)
O5 O 0.5702(3) 0.26828(16) 0.4043(3)
O6 O 0.4517(2) 0.29501(12) 0.4528(2)
N1 N 0.7514(2) 0.36058(9) 0.3858(2)
N2 N 0.7030(2) 0.74807(9) 0.09789(19)
N3 N 0.7742(2) 0.25196(9) 0.60255(19)
N4 N 0.6974(2) -0.13151(10) 0.9034(2)
N5 N 1.0253(2) 0.30108(10) 0.5539(2)
N6 N 0.5399(3) 0.29481(12) 0.4497(2)
C1 C 0.6659(3) 0.38519(12) 0.3585(3)
H1 H 0.6110 0.3789 0.3822
C2 C 0.8261(3) 0.37066(13) 0.3504(3)
H2 H 0.8882 0.3538 0.3685
C3 C 0.6522(3) 0.41938(12) 0.2977(3)
H3 H 0.5894 0.4358 0.2805
C4 C 0.8191(3) 0.40403(13) 0.2893(3)
H4 H 0.8747 0.4094 0.2661
C5 C 0.7304(3) 0.42942(11) 0.2624(2)
C6 C 0.7193(3) 0.46545(11) 0.1938(2)
H5 H 0.7809 0.4647 0.1729
H6 H 0.6591 0.4579 0.1447
C7 C 0.7061(3) 0.51289(11) 0.2240(2)
C8 C 0.7886(3) 0.54127(12) 0.2588(3)
C9 C 0.6112(3) 0.53130(12) 0.2158(3)
C10 C 0.7763(3) 0.58571(12) 0.2807(3)
C11 C 0.5985(3) 0.57574(12) 0.2396(3)
C12 C 0.6808(3) 0.60439(11) 0.2707(2)
C13 C 0.6675(3) 0.65377(12) 0.2911(3)
H7 H 0.7183 0.6616 0.3464
H8 H 0.5980 0.6581 0.2981
C14 C 0.6809(3) 0.68577(11) 0.2222(2)
C15 C 0.7563(3) 0.71898(11) 0.2414(2)
H9 H 0.8019 0.7211 0.2978
C16 C 0.6173(3) 0.68424(11) 0.1376(3)
H10 H 0.5651 0.6618 0.1209
C17 C 0.7650(3) 0.74891(12) 0.1790(2)
H11 H 0.8175 0.7713 0.1939
C18 C 0.6309(3) 0.71560(11) 0.0787(2)
H12 H 0.5870 0.7141 0.0216
C19 C 0.8295(3) 0.25628(12) 0.6847(2)
H13 H 0.8758 0.2812 0.6997
C20 C 0.7106(3) 0.21608(12) 0.5834(3)
H14 H 0.6708 0.2120 0.5254
C21 C 0.8236(3) 0.22698(11) 0.7486(2)
H15 H 0.8648 0.2318 0.8060
C22 C 0.7002(3) 0.18486(12) 0.6440(3)
H16 H 0.6545 0.1599 0.6273
C23 C 0.7567(3) 0.19010(11) 0.7288(2)
C24 C 0.7475(3) 0.15919(12) 0.8004(3)
H17 H 0.6900 0.1701 0.8214
H18 H 0.8112 0.1616 0.8486
C25 C 0.7293(3) 0.10958(12) 0.7757(2)
C26 C 0.8090(3) 0.08136(14) 0.7765(3)
C27 C 0.6345(3) 0.08998(14) 0.7543(3)
C28 C 0.7928(4) 0.03572(14) 0.7547(3)
C29 C 0.6186(3) 0.04479(13) 0.7340(3)
C30 C 0.6967(4) 0.01637(13) 0.7311(3)
C31 C 0.6783(5) -0.03272(14) 0.7029(3)
H19 H 0.7302 -0.0418 0.6740
H20 H 0.6098 -0.0352 0.6604
C32 C 0.6834(4) -0.06552(12) 0.7763(3)
C33 C 0.7728(4) -0.07189(15) 0.8416(3)
H21 H 0.8315 -0.0537 0.8442
C34 C 0.6010(4) -0.09065(14) 0.7797(3)
H22 H 0.5366 -0.0862 0.7381
C35 C 0.7770(4) -0.10480(15) 0.9034(3)
H23 H 0.8395 -0.1086 0.9478
C36 C 0.6108(3) -0.12303(13) 0.8441(3)
H24 H 0.5515 -0.1399 0.8451
Cd1A Cd 0.71839(2) 0.805578(8) 0.001400(17)
Cd1A_2 Cd 0.71839(2) -0.194422(8) 1.001400(17)
N2A N 0.7970(2) 0.24807(9) 0.40211(19)
N4A N 0.8026(2) 0.36849(10) 0.5966(2)
C37 C 0.7964(4) 0.56878(16) 0.5050(3)
C38 C 0.7611(4) 0.52394(15) 0.4886(3)
C39 C 0.6583(4) 0.51564(18) 0.4689(4)
H25 H 0.6345 0.4853 0.4570
C40 C 0.5878(5) 0.5497(2) 0.4656(4)
H26 H 0.5167 0.5428 0.4529
C41 C 0.6206(6) 0.5932(2) 0.4806(4)
H27 H 0.5727 0.6170 0.4779
C42 C 0.7243(5) 0.60255(17) 0.5000(3)
H28 H 0.7467 0.6332 0.5101
C43 C 0.8370(4) 0.48590(17) 0.4929(4)
H29 H 0.8000 0.4570 0.4796
H30 H 0.8850 0.4845 0.5509
H31 H 0.8753 0.4915 0.4511
C44 C 0.9078(5) 0.57896(19) 0.5267(4)
H32 H 0.9460 0.5507 0.5267
H33 H 0.9305 0.5930 0.5837
H34 H 0.9205 0.5999 0.4839
C45 C 0.5978(5) 0.28867(19) 0.7507(4)
C46 C 0.5973(5) 0.25957(17) 0.8209(4)
C47 C 0.5281(5) 0.2249(2) 0.8081(4)
H35 H 0.5264 0.2062 0.8553
C48 C 0.4611(5) 0.2165(2) 0.7293(5)
H36 H 0.4148 0.1916 0.7222
C49 C 0.4599(5) 0.2448(2) 0.6568(4)
H37 H 0.4137 0.2401 0.6013
C50 C 0.5305(6) 0.2790(2) 0.6744(5)
H38 H 0.5323 0.2981 0.6276
C51 C 0.6707(5) 0.32737(19) 0.7671(5)
H39 H 0.6624 0.3445 0.7138
H40 H 0.7412 0.3159 0.7877
H41 H 0.6568 0.3474 0.8108
C52 C 0.6708(6) 0.2673(2) 0.9054(4)
H42 H 0.6607 0.2444 0.9460
H43 H 0.6598 0.2977 0.9261
H44 H 0.7409 0.2652 0.9007
C53 C 0.0232(4) 0.13255(15) 0.5936(3)
C54 C 0.1115(4) 0.14014(14) 0.5715(3)
C55 C 0.1390(4) 0.11126(16) 0.5129(3)
H45 H 0.2005 0.1166 0.4976
C56 C 0.0762(5) 0.07486(17) 0.4771(3)
H46 H 0.0934 0.0555 0.4366
C57 C -0.0115(4) 0.06744(17) 0.5017(3)
H47 H -0.0543 0.0423 0.4784
C58 C -0.0383(4) 0.09542(19) 0.5586(4)
H48 H -0.0992 0.0896 0.5745
C59 C 0.1818(5) 0.17870(17) 0.6109(4)
H49 H 0.1526 0.1955 0.6505
H50 H 0.1892 0.1992 0.5654
H51 H 0.2493 0.1666 0.6424
C60 C -0.0099(5) 0.16279(18) 0.6560(4)
H52 H -0.0750 0.1517 0.6630
H53 H -0.0188 0.1939 0.6337
H54 H 0.0428 0.1624 0.7117
C61 C 0.5309(13) 0.1337(7) 0.4417(8)
C62 C 0.5147(6) 0.0880(5) 0.4936(7)
C63 C 0.5851(6) 0.0637(3) 0.4973(5)
H55 H 0.5783 0.0387 0.5323
C64 C 0.6680(6) 0.0563(3) 0.4743(5)
H56 H 0.7114 0.0304 0.4839
C65 C 0.6772(10) 0.1050(6) 0.4230(6)
H57 H 0.7339 0.1113 0.4015
C66 C 0.6023(15) 0.1336(3) 0.4144(9)
H58 H 0.6057 0.1592 0.3797
C67 C 0.4523(10) 0.1617(5) 0.4399(13)
H59 H 0.4581 0.1892 0.4074
H60 H 0.4542 0.1701 0.4987
H61 H 0.3872 0.1464 0.4121
C68 C 0.4301(5) 0.0941(4) 0.5213(5)
H62 H 0.4205 0.0675 0.5546
H63 H 0.3695 0.0980 0.4717
H64 H 0.4392 0.1213 0.5577
loop_
_geom_bond_atom_site_label_1
_geom_bond_atom_site_label_2
_geom_bond_site_symmetry_1
_geom_bond_site_symmetry_2
Cd1 O1 1_555 1_555
F1 C8 1_555 1_555
F2 C9 1_555 1_555
F3 C10 1_555 1_555
F4 C11 1_555 1_555
F5 C26 1_555 1_555
F6 C27 1_555 1_555
F7 C28 1_555 1_555
F8 C29 1_555 1_555
O1 N5 1_555 1_555
O2 N5 1_555 1_555
O3 N5 1_555 1_555
O4 Cd1 1_555 1_555
O5 N6 1_555 1_555
O6 N6 1_555 1_555
N1 Cd1 1_555 1_555
N2 C17 1_555 1_555
N3 Cd1 1_555 1_555
N4 C35 1_555 1_555
N6 O4 1_555 1_555
C1 N1 1_555 1_555
H1 C1 1_555 1_555
C2 N1 1_555 1_555
H2 C2 1_555 1_555
C3 C1 1_555 1_555
H3 C3 1_555 1_555
C4 C2 1_555 1_555
H4 C4 1_555 1_555
C5 C3 1_555 1_555
C6 C5 1_555 1_555
H5 C6 1_555 1_555
H6 C6 1_555 1_555
C7 C6 1_555 1_555
C8 C7 1_555 1_555
C9 C7 1_555 1_555
C10 C8 1_555 1_555
C11 C9 1_555 1_555
C12 C10 1_555 1_555
C13 C12 1_555 1_555
H7 C13 1_555 1_555
H8 C13 1_555 1_555
C14 C13 1_555 1_555
C15 C14 1_555 1_555
H9 C15 1_555 1_555
C16 C14 1_555 1_555
H10 C16 1_555 1_555
C17 C15 1_555 1_555
H11 C17 1_555 1_555
C18 N2 1_555 1_555
H12 C18 1_555 1_555
C19 N3 1_555 1_555
H13 C19 1_555 1_555
C20 N3 1_555 1_555
H14 C20 1_555 1_555
C21 C19 1_555 1_555
H15 C21 1_555 1_555
C22 C20 1_555 1_555
H16 C22 1_555 1_555
C23 C21 1_555 1_555
C24 C23 1_555 1_555
H17 C24 1_555 1_555
H18 C24 1_555 1_555
C25 C24 1_555 1_555
C26 C25 1_555 1_555
C27 C25 1_555 1_555
C28 C26 1_555 1_555
C29 C27 1_555 1_555
C30 C28 1_555 1_555
C31 C30 1_555 1_555
H19 C31 1_555 1_555
H20 C31 1_555 1_555
C32 C31 1_555 1_555
C33 C32 1_555 1_555
H21 C33 1_555 1_555
C34 C32 1_555 1_555
H22 C34 1_555 1_555
C35 C33 1_555 1_555
H23 C35 1_555 1_555
C36 N4 1_555 1_555
H24 C36 1_555 1_555
C37 C38 1_555 1_555
C38 C39 1_555 1_555
C39 H25 1_555 1_555
C40 C39 1_555 1_555
H26 C40 1_555 1_555
C41 C40 1_555 1_555
H27 C41 1_555 1_555
C42 C37 1_555 1_555
H28 C42 1_555 1_555
C43 C38 1_555 1_555
H29 C43 1_555 1_555
H30 C43 1_555 1_555
H31 C43 1_555 1_555
C44 C37 1_555 1_555
H32 C44 1_555 1_555
H33 C44 1_555 1_555
H34 C44 1_555 1_555
C45 C46 1_555 1_555
C46 C47 1_555 1_555
C47 H35 1_555 1_555
C48 C47 1_555 1_555
H36 C48 1_555 1_555
C49 C48 1_555 1_555
H37 C49 1_555 1_555
C50 C45 1_555 1_555
H38 C50 1_555 1_555
C51 C45 1_555 1_555
H39 C51 1_555 1_555
H40 C51 1_555 1_555
H41 C51 1_555 1_555
C52 C46 1_555 1_555
H42 C52 1_555 1_555
H43 C52 1_555 1_555
H44 C52 1_555 1_555
C53 C54 1_555 1_555
C54 C55 1_555 1_555
C55 H45 1_555 1_555
C56 C55 1_555 1_555
H46 C56 1_555 1_555
C57 C56 1_555 1_555
H47 C57 1_555 1_555
C58 C53 1_555 1_555
H48 C58 1_555 1_555
C59 C54 1_555 1_555
H49 C59 1_555 1_555
H50 C59 1_555 1_555
H51 C59 1_555 1_555
C60 C53 1_555 1_555
H52 C60 1_555 1_555
H53 C60 1_555 1_555
H54 C60 1_555 1_555
C61 C62 1_555 1_555
C62 C63 1_555 1_555
C63 H55 1_555 1_555
C64 C63 1_555 1_555
H56 C64 1_555 1_555
C65 C64 1_555 1_555
H57 C65 1_555 1_555
C66 C61 1_555 1_555
H58 C66 1_555 1_555
C67 C61 1_555 1_555
H59 C67 1_555 1_555
H60 C67 1_555 1_555
H61 C67 1_555 1_555
C68 C62 1_555 1_555
H62 C68 1_555 1_555
H63 C68 1_555 1_555
H64 C68 1_555 1_555
Cd1A N2 1_555 1_555
Cd1A_2 N4 1_555 1_555
N2A Cd1 1_555 1_555
N4A Cd1 1_555 1_555
C4 C5 1_555 1_555
C11 C12 1_555 1_555
C16 C18 1_555 1_555
C22 C23 1_555 1_555
C29 C30 1_555 1_555
C34 C36 1_555 1_555
C41 C42 1_555 1_555
C49 C50 1_555 1_555
C57 C58 1_555 1_555
C65 C66 1_555 1_555

#END
