
#######################################################################
#
#                 Cambridge Crystallographic Data Centre
#                                CCDC 
#
#######################################################################
#
# If this CIF has been generated from an entry in the Cambridge 
# Structural Database, then it will include bibliographic, chemical, 
# crystal, experimental, refinement or atomic coordinate data resulting 
# from the CCDC's data processing and validation procedures.
#
#######################################################################

data_MICMOB
_symmetry_cell_setting           monoclinic
_symmetry_space_group_name_H-M   'P 21/n'
_symmetry_Int_Tables_number      14
_space_group_name_Hall           '-P 2yn'
loop_
_symmetry_equiv_pos_site_id
_symmetry_equiv_pos_as_xyz
1 x,y,z
2 1/2-x,1/2+y,1/2-z
3 -x,-y,-z
4 1/2+x,1/2-y,1/2+z
_cell_length_a                   13.3493(10)
_cell_length_b                   29.331(2)
_cell_length_c                   16.2557(13)
_cell_angle_alpha                90
_cell_angle_beta                 106.792(2)
_cell_angle_gamma                90
_cell_volume                     6093.49
loop_
_atom_site_label
_atom_site_type_symbol
_atom_site_fract_x
_atom_site_fract_y
_atom_site_fract_z
Cd1 Cd 0.77255(4) 0.692226(12) 0.50166(2)
F1 F 0.6330(3) 0.88581(13) 0.1832(2)
F2 F 0.9969(3) 0.90670(14) 0.2835(3)
F3 F 0.6031(3) 0.97272(13) 0.2187(3)
F4 F 0.9676(3) 0.99291(13) 0.3246(3)
F5 F 0.5363(3) 0.89299(15) 0.7320(3)
F6 F 0.9012(3) 0.89745(15) 0.8088(3)
F7 F 0.5254(3) 0.97990(14) 0.6906(3)
F8 F 0.8919(3) 0.98631(15) 0.7670(3)
O1 O 0.6026(5) 0.67971(15) 0.4949(3)
O2 O 0.5537(4) 0.72957(18) 0.3970(3)
O3 O 0.4366(4) 0.70819(17) 0.4550(3)
O4 O 0.9575(3) 0.67919(15) 0.5124(3)
O5 O 1.0003(4) 0.72636(16) 0.6171(3)
O6 O 1.1105(4) 0.70651(16) 0.5499(3)
N1 N 0.7856(4) 0.74876(14) 0.4042(3)
N2 N 0.7636(4) 0.74757(14) 0.6013(3)
N3 N 0.7507(4) 1.13501(14) 0.1044(3)
N4 N 0.7066(4) 1.13259(14) 0.8963(3)
N5 N 0.5232(5) 0.70399(17) 0.4503(3)
N6 N 1.0218(4) 0.70484(16) 0.5604(3)
C1 C 0.7313(5) 0.74555(17) 0.3221(3)
H1 H 0.6825 0.7213 0.3050
C2 C 0.8553(5) 0.78431(17) 0.4280(4)
H2 H 0.8947 0.7873 0.4866
C3 C 0.7426(5) 0.77613(18) 0.2596(3)
H3 H 0.7018 0.7725 0.2015
C4 C 0.8697(6) 0.81586(18) 0.3692(4)
H4 H 0.9178 0.8402 0.3881
C5 C 0.8143(5) 0.81223(17) 0.2828(4)
C6 C 0.8335(6) 0.84344(19) 0.2144(4)
H5 H 0.7860 0.8349 0.1575
H6 H 0.9064 0.8396 0.2122
C7 C 0.8151(5) 0.89373(18) 0.2334(3)
C8 C 0.7183(4) 0.91209(19) 0.2184(4)
C9 C 0.8984(5) 0.9227(2) 0.2670(4)
C10 C 0.7014(5) 0.9573(2) 0.2382(4)
C11 C 0.8834(5) 0.9661(2) 0.2882(4)
C12 C 0.7865(4) 0.98552(17) 0.2741(3)
C13 C 0.7697(6) 1.03367(18) 0.3008(4)
H7 H 0.8283 1.0420 0.3516
H8 H 0.7044 1.0347 0.3180
C14 C 0.7625(5) 1.06857(17) 0.2304(4)
C15 C 0.6711(6) 1.0853(3) 0.1826(6)
H9 H 0.6085 1.0760 0.1946
C16 C 0.8461(6) 1.0857(2) 0.2147(5)
H10 H 0.9134 1.0758 0.2479
C17 C 0.6648(7) 1.1156(3) 0.1165(7)
H11 H 0.5981 1.1229 0.0786
C18 C 0.8381(5) 1.1184(2) 0.1501(4)
H12 H 0.9006 1.1288 0.1395
C19 C 0.8142(4) 0.74299(17) 0.6849(3)
H13 H 0.8597 0.7176 0.7022
C20 C 0.6998(5) 0.78467(17) 0.5790(3)
H14 H 0.6628 0.7887 0.5201
C21 C 0.8042(5) 0.77321(17) 0.7477(3)
H15 H 0.8415 0.7681 0.8063
C22 C 0.6861(5) 0.81659(18) 0.6368(4)
H16 H 0.6414 0.8421 0.6177
C23 C 0.7391(5) 0.81096(17) 0.7246(4)
C24 C 0.7274(5) 0.84233(19) 0.7948(3)
H17 H 0.6645 0.8331 0.8112
H18 H 0.7887 0.8382 0.8458
C25 C 0.7180(4) 0.89194(18) 0.7716(3)
C26 C 0.6294(5) 0.9143(2) 0.7435(4)
C27 C 0.8055(5) 0.9180(2) 0.7785(4)
C28 C 0.6215(5) 0.9598(2) 0.7213(4)
C29 C 0.8021(4) 0.9633(2) 0.7574(4)
C30 C 0.7057(4) 0.98553(18) 0.7247(3)
C31 C 0.7008(6) 1.03492(18) 0.6983(4)
H19 H 0.6366 1.0397 0.6501
H20 H 0.7614 1.0416 0.6768
C32 C 0.7007(5) 1.06880(18) 0.7697(4)
C33 C 0.6177(6) 1.0906(2) 0.7745(4)
H21 H 0.5527 1.0855 0.7323
C34 C 0.7891(9) 1.0774(3) 0.8270(7)
H22 H 0.8528 1.0643 0.8235
C35 C 0.6230(5) 1.1212(2) 0.8401(4)
H23 H 0.5595 1.1346 0.8434
C36 C 0.7865(8) 1.1083(3) 0.8971(6)
H24 H 0.8469 1.1104 0.9453
Cd1A Cd 0.72745(4) 1.192226(12) -0.00166(2)
Cd1A_2 Cd 0.72745(4) 1.192226(12) 0.99834(2)
N3A N 0.7493(4) 0.63501(14) 0.3956(3)
N4A N 0.7934(4) 0.63259(14) 0.6037(3)
N7 N 0.4508(11) 0.8322(5) 0.4328(8)
C37 C 0.5241(8) 0.8637(3) 0.4276(6)
C38 C 0.4847(11) 0.9016(5) 0.4849(8)
C39 C 0.5494(8) 0.9332(4) 0.4962(6)
C40 C 0.6406(10) 0.9402(4) 0.4625(7)
C41 C 0.6688(10) 0.9024(4) 0.4165(8)
C42 C 0.5940(10) 0.8630(4) 0.3997(8)
C43 C 0.4137(12) 0.8945(5) 0.5077(10)
N8 N 0.6172(8) 0.9077(4) 0.9738(6)
C45 C 0.7308(8) 0.9134(5) 0.9962(6)
C46 C 0.7395(13) 0.9685(6) 1.0012(9)
C48 C 0.8296(11) 0.9841(5) 1.0223(8)
C49 C 0.9232(14) 0.9480(6) 1.0396(11)
C51 C 0.9080(10) 0.9108(5) 1.0314(8)
C52 C 0.7887(10) 0.8915(5) 1.0036(8)
C54 C 0.630(2) 0.9879(10) 0.9686(17)
N9 N -0.0047(7) 0.8276(3) 0.6614(6)
C56 C 0.0161(6) 0.8597(3) 0.5956(5)
C57 C 0.0916(9) 0.8566(4) 0.5714(7)
C59 C 0.1330(11) 0.8892(4) 0.5109(9)
C61 C 0.0423(11) 0.9275(5) 0.4902(9)
C63 C -0.0201(8) 0.9296(3) 0.5164(6)
C64 C -0.0444(13) 0.8979(6) 0.5712(11)
C66 C 0.1510(12) 0.8215(5) 0.5959(9)
N10 N 0.1431(11) 0.7697(5) 0.3887(9)
C67 C 0.0732(9) 0.7531(4) 0.3241(7)
C68 C 0.0959(12) 0.7885(5) 0.2618(9)
C69 C 0.0366(9) 0.7823(4) 0.1809(7)
C70 C -0.0399(8) 0.7430(3) 0.1681(7)
C71 C -0.0485(11) 0.7145(5) 0.2407(9)
C72 C 0.0095(8) 0.7159(3) 0.3253(6)
C73 C 0.1686(13) 0.8264(5) 0.2809(10)
N11? N -0.1159(18) 0.7314(8) 0.1080(15)
C44? C 0.5539(13) 0.8288(6) 0.3517(11)
C47? C 0.8224(17) 0.9297(7) 1.0084(13)
C50? C 0.682(3) 0.9996(11) 0.9985(19)
C53? C 0.593(2) 0.9464(10) 0.9677(17)
C55? C 0.7720(11) 0.8592(6) 1.0044(8)
C58? C -0.067(2) 0.8678(10) 0.5996(19)
C60? C -0.1212(17) 0.8993(8) 0.5924(14)
C62? C -0.101(2) 0.9362(9) 0.5441(17)
C65? C 0.0758(17) 0.8991(7) 0.5147(14)
C74? C -0.153(2) 0.6711(10) 0.2209(18)
loop_
_geom_bond_atom_site_label_1
_geom_bond_atom_site_label_2
_geom_bond_site_symmetry_1
_geom_bond_site_symmetry_2
Cd1 O1 1_555 1_555
F1 C8 1_555 1_555
F2 C9 1_555 1_555
F3 C10 1_555 1_555
F4 C11 1_555 1_555
F5 C26 1_555 1_555
F6 C27 1_555 1_555
F7 C28 1_555 1_555
F8 C29 1_555 1_555
O1 N5 1_555 1_555
O2 N5 1_555 1_555
O3 N5 1_555 1_555
O4 Cd1 1_555 1_555
O5 N6 1_555 1_555
O6 N6 1_555 1_555
N1 Cd1 1_555 1_555
N2 Cd1 1_555 1_555
N3 C17 1_555 1_555
N4 C35 1_555 1_555
N6 O4 1_555 1_555
N7 C37 1_555 1_555
N8 C45 1_555 1_555
N9 C56 1_555 1_555
N10 C67 1_555 1_555
C1 N1 1_555 1_555
H1 C1 1_555 1_555
C2 N1 1_555 1_555
H2 C2 1_555 1_555
C3 C1 1_555 1_555
H3 C3 1_555 1_555
C4 C2 1_555 1_555
H4 C4 1_555 1_555
C5 C3 1_555 1_555
C6 C5 1_555 1_555
H5 C6 1_555 1_555
H6 C6 1_555 1_555
C7 C6 1_555 1_555
C8 C7 1_555 1_555
C9 C7 1_555 1_555
C10 C8 1_555 1_555
C11 C9 1_555 1_555
C12 C10 1_555 1_555
C13 C12 1_555 1_555
H7 C13 1_555 1_555
H8 C13 1_555 1_555
C14 C13 1_555 1_555
C15 C14 1_555 1_555
H9 C15 1_555 1_555
C16 C14 1_555 1_555
H10 C16 1_555 1_555
C17 C15 1_555 1_555
H11 C17 1_555 1_555
C18 N3 1_555 1_555
H12 C18 1_555 1_555
C19 N2 1_555 1_555
H13 C19 1_555 1_555
C20 N2 1_555 1_555
H14 C20 1_555 1_555
C21 C19 1_555 1_555
H15 C21 1_555 1_555
C22 C20 1_555 1_555
H16 C22 1_555 1_555
C23 C21 1_555 1_555
C24 C23 1_555 1_555
H17 C24 1_555 1_555
H18 C24 1_555 1_555
C25 C24 1_555 1_555
C26 C25 1_555 1_555
C27 C25 1_555 1_555
C28 C26 1_555 1_555
C29 C27 1_555 1_555
C30 C28 1_555 1_555
C31 C30 1_555 1_555
H19 C31 1_555 1_555
H20 C31 1_555 1_555
C32 C31 1_555 1_555
C33 C32 1_555 1_555
H21 C33 1_555 1_555
C34 C32 1_555 1_555
H22 C34 1_555 1_555
C35 C33 1_555 1_555
H23 C35 1_555 1_555
C36 N4 1_555 1_555
H24 C36 1_555 1_555
C37 C38 1_555 1_555
C38 C39 1_555 1_555
C39 C40 1_555 1_555
C40 C41 1_555 1_555
C41 C42 1_555 1_555
C42 C37 1_555 1_555
C43 C38 1_555 1_555
C45 C46 1_555 1_555
C46 C48 1_555 1_555
C48 C49 1_555 1_555
C49 C51 1_555 1_555
C51 C52 1_555 1_555
C52 C45 1_555 1_555
C54 C46 1_555 1_555
C56 C57 1_555 1_555
C57 C59 1_555 1_555
C59 C61 1_555 1_555
C61 C63 1_555 1_555
C63 C64 1_555 1_555
C64 C56 1_555 1_555
C66 C57 1_555 1_555
C67 C68 1_555 1_555
C68 C69 1_555 1_555
C69 C70 1_555 1_555
C70 C71 1_555 1_555
C71 C72 1_555 1_555
C72 C67 1_555 1_555
C73 C68 1_555 1_555
Cd1A N3 1_555 1_555
Cd1A_2 N4 1_555 1_555
N3A Cd1 1_555 1_555
N4A Cd1 1_555 1_555
C4 C5 1_555 1_555
C11 C12 1_555 1_555
C16 C18 1_555 1_555
C22 C23 1_555 1_555
C29 C30 1_555 1_555
C34 C36 1_555 1_555

#END
