
#######################################################################
#
#                 Cambridge Crystallographic Data Centre
#                                CCDC 
#
#######################################################################
#
# If this CIF has been generated from an entry in the Cambridge 
# Structural Database, then it will include bibliographic, chemical, 
# crystal, experimental, refinement or atomic coordinate data resulting 
# from the CCDC's data processing and validation procedures.
#
#######################################################################

data_MICNES
_symmetry_cell_setting           monoclinic
_symmetry_space_group_name_H-M   'C 2/c'
_symmetry_Int_Tables_number      15
_space_group_name_Hall           '-C 2yn'
loop_
_symmetry_equiv_pos_site_id
_symmetry_equiv_pos_as_xyz
1 x,y,z
2 1/2+x,1/2+y,z
3 -x,y,1/2-z
4 1/2-x,1/2+y,1/2-z
5 -x,-y,-z
6 1/2-x,1/2-y,-z
7 x,-y,1/2+z
8 1/2+x,1/2-y,1/2+z
_cell_length_a                   18.9509(17)
_cell_length_b                   19.1159(17)
_cell_length_c                   17.1188(16)
_cell_angle_alpha                90
_cell_angle_beta                 121.116(2)
_cell_angle_gamma                90
_cell_volume                     5309.26
loop_
_atom_site_label
_atom_site_type_symbol
_atom_site_fract_x
_atom_site_fract_y
_atom_site_fract_z
Cd1 Cd 0.5000 0.125384(9) 0.7500
F1 F 0.60101(9) 0.48953(8) 0.93325(10)
F2 F 0.49441(10) 0.59510(7) 0.87998(10)
F3 F 0.35189(8) -0.21660(6) 0.43890(9)
F4 F 0.34735(9) -0.34769(6) 0.48843(10)
O1 O 0.35606(11) 0.15518(8) 0.70976(11)
O2 O 0.40463(10) 0.08546(8) 0.82514(12)
O3 O 0.27915(10) 0.12113(8) 0.76092(12)
N1 N 0.54087(10) 0.21033(8) 0.86748(11)
N2 N 0.42660(11) 0.03574(8) 0.64458(11)
N3 N 0.34560(11) 0.12053(8) 0.76568(12)
C1 C 0.61827(15) 0.21952(11) 0.93417(16)
C2 C 0.48568(14) 0.25567(12) 0.86327(18)
C3 C 0.64394(15) 0.27402(12) 0.99593(16)
C4 C 0.50639(15) 0.31183(12) 0.92212(18)
C5 C 0.58776(13) 0.32258(10) 0.98937(14)
C6 C 0.61680(17) 0.38311(12) 1.05637(18)
C7 C 0.55617(14) 0.44302(10) 1.02745(14)
C8 C 0.55122(14) 0.49396(11) 0.96738(15)
C9 C 0.49671(15) 0.54903(10) 0.94113(14)
C10 C 0.41298(15) 0.03428(11) 0.56017(14)
C11 C 0.38714(15) -0.01239(10) 0.66484(15)
C12 C 0.35934(16) -0.01206(11) 0.49451(15)
C13 C 0.33259(15) -0.05968(11) 0.60299(15)
C14 C 0.31570(12) -0.05910(9) 0.51427(13)
C15 C 0.25238(15) -0.10655(11) 0.44068(15)
C16 C 0.25151(13) -0.18000(9) 0.47234(13)
C17 C 0.30091(13) -0.23198(10) 0.46933(14)
C18 C 0.29855(13) -0.29971(10) 0.49529(14)
H1 H 0.6647(17) 0.1811(13) 0.9436(18)
H2 H 0.4281(15) 0.2496(11) 0.8132(16)
H3 H 0.7037(16) 0.2801(12) 1.0461(19)
H4 H 0.4628(16) 0.3434(12) 0.9126(17)
H5 H 0.6662(19) 0.3958(14) 1.068(2)
H6 H 0.6321(17) 0.3645(12) 1.113(2)
H7 H 0.4421(14) 0.0690(12) 0.5477(16)
H8 H 0.4002(15) -0.0113(12) 0.7248(17)
H9 H 0.3485(14) -0.0113(11) 0.4371(17)
H10 H 0.3052(14) -0.0884(12) 0.6190(16)
H11 H 0.2631(13) -0.1095(10) 0.3932(16)
H12 H 0.1988(15) -0.0882(11) 0.4198(15)
Cd1F Cd 0.5000 0.874616(9) 1.2500
Cd1G Cd 0.0000 -0.625384(9) 0.2500
F1D F 0.39899(9) 0.51047(8) 1.06675(10)
F2D F 0.50559(10) 0.40490(7) 1.12002(10)
F3E F 0.14811(8) -0.28340(6) 0.56110(9)
F4E F 0.15265(9) -0.15231(6) 0.51157(10)
O1B O 0.64394(11) 0.15518(8) 0.79024(11)
O2B O 0.59537(10) 0.08546(8) 0.67486(12)
O3B O 0.72085(10) 0.12113(8) 0.73908(12)
N1D N 0.45913(10) 0.78967(8) 1.13252(11)
N1B N 0.45913(10) 0.21033(8) 0.63252(11)
N2E N 0.07340(11) -0.53574(8) 0.35542(11)
N2B N 0.57340(11) 0.03574(8) 0.85542(11)
N3B N 0.65440(11) 0.12053(8) 0.73432(12)
C1D C 0.38173(15) 0.78048(11) 1.06583(16)
C2D C 0.51432(14) 0.74433(12) 1.13673(18)
C3D C 0.35606(15) 0.72598(12) 1.00407(16)
C4D C 0.49361(15) 0.68817(12) 1.07788(18)
C5D C 0.41224(13) 0.67742(10) 1.01063(14)
C6D C 0.38320(17) 0.61689(12) 0.94363(18)
C7D C 0.44383(14) 0.55698(10) 0.97255(14)
C8D C 0.44878(14) 0.50604(11) 1.03262(15)
C9D C 0.50329(15) 0.45097(10) 1.05887(14)
C10E C 0.08702(15) -0.53428(11) 0.43983(14)
C11E C 0.11286(15) -0.48761(10) 0.33516(15)
C12E C 0.14066(16) -0.48794(11) 0.50549(15)
C13E C 0.16741(15) -0.44032(11) 0.39701(15)
C14E C 0.18430(12) -0.44090(9) 0.48573(13)
C15E C 0.24762(15) -0.39345(11) 0.55932(15)
C16E C 0.24849(13) -0.32000(9) 0.52766(13)
C17E C 0.19909(13) -0.26802(10) 0.53067(14)
C18E C 0.20145(13) -0.20029(10) 0.50471(14)
H1D H 0.3353(17) 0.8189(13) 1.0564(18)
H2D H 0.5719(15) 0.7504(11) 1.1868(16)
H3D H 0.2963(16) 0.7199(12) 0.9539(19)
H4D H 0.5372(16) 0.6566(12) 1.0874(17)
H5D H 0.3338(19) 0.6042(14) 0.932(2)
H6D H 0.3679(17) 0.6355(12) 0.887(2)
H7E H 0.0579(14) -0.5690(12) 0.4523(16)
H8E H 0.0998(15) -0.4887(12) 0.2752(17)
H9E H 0.1515(14) -0.4887(11) 0.5629(17)
H10E H 0.1948(14) -0.4116(12) 0.3810(16)
H11E H 0.2369(13) -0.3905(10) 0.6068(16)
H12E H 0.3012(15) -0.4118(11) 0.5802(15)
C19 C 0.24780(14) 0.37971(11) 0.71189(15)
C20 C 0.26208(15) 0.44970(11) 0.73769(15)
C21 C 0.33001(15) 0.48469(13) 0.74875(15)
C22 C 0.38481(17) 0.45200(16) 0.73261(18)
C23 C 0.37158(19) 0.38316(17) 0.7044(2)
C24 C 0.30390(17) 0.34702(15) 0.69474(19)
C25 C 0.17415(14) 0.34259(11) 0.69937(14)
C26 C 0.09692(15) 0.37406(12) 0.65354(17)
C27 C 0.02829(19) 0.33918(16) 0.6394(2)
C28 C 0.0347(2) 0.27221(16) 0.6721(2)
C29 C 0.1106(2) 0.24110(15) 0.7185(2)
C30 C 0.17911(18) 0.27494(13) 0.73150(18)
H13 H 0.2262(14) 0.4700(11) 0.7487(16)
H14 H 0.3416(15) 0.5361(13) 0.7721(18)
H15 H 0.4309(17) 0.4752(14) 0.7333(19)
H16 H 0.412(2) 0.3518(16) 0.698(3)
H17 H 0.2961(17) 0.2968(14) 0.6826(19)
H18 H 0.0917(15) 0.4183(12) 0.6324(17)
H19 H -0.021(2) 0.3570(14) 0.610(2)
H20 H -0.0103(18) 0.2496(15) 0.666(2)
H21 H 0.1138(17) 0.1985(15) 0.742(2)
H22 H 0.2294(15) 0.2585(11) 0.7602(17)
loop_
_geom_bond_atom_site_label_1
_geom_bond_atom_site_label_2
_geom_bond_site_symmetry_1
_geom_bond_site_symmetry_2
Cd1 O1 1_555 1_555
F1 C8 1_555 1_555
F2 C9 1_555 1_555
F3 C17 1_555 1_555
F4 C18 1_555 1_555
O1 N3 1_555 1_555
O2 N3 1_555 1_555
O3 N3 1_555 1_555
N1 Cd1 1_555 1_555
N2 Cd1 1_555 1_555
C1 N1 1_555 1_555
C2 N1 1_555 1_555
C3 C1 1_555 1_555
C4 C2 1_555 1_555
C5 C3 1_555 1_555
C6 C5 1_555 1_555
C7 C6 1_555 1_555
C8 C7 1_555 1_555
C9 C8 1_555 1_555
C10 N2 1_555 1_555
C11 N2 1_555 1_555
C12 C10 1_555 1_555
C13 C11 1_555 1_555
C14 C12 1_555 1_555
C15 C14 1_555 1_555
C16 C15 1_555 1_555
C17 C16 1_555 1_555
C18 C17 1_555 1_555
C19 C20 1_555 1_555
C20 C21 1_555 1_555
C21 C22 1_555 1_555
C22 C23 1_555 1_555
C23 C24 1_555 1_555
C24 C19 1_555 1_555
C25 C19 1_555 1_555
C26 C25 1_555 1_555
C27 C26 1_555 1_555
C28 C27 1_555 1_555
C29 C28 1_555 1_555
C30 C25 1_555 1_555
H1 C1 1_555 1_555
H2 C2 1_555 1_555
H3 C3 1_555 1_555
H4 C4 1_555 1_555
H5 C6 1_555 1_555
H6 C6 1_555 1_555
H7 C10 1_555 1_555
H8 C11 1_555 1_555
H9 C12 1_555 1_555
H10 C13 1_555 1_555
H11 C15 1_555 1_555
H12 C15 1_555 1_555
H13 C20 1_555 1_555
H14 C21 1_555 1_555
H15 C22 1_555 1_555
H16 C23 1_555 1_555
H17 C24 1_555 1_555
H18 C26 1_555 1_555
H19 C27 1_555 1_555
H20 C28 1_555 1_555
H21 C29 1_555 1_555
H22 C30 1_555 1_555
Cd1F N1D 1_555 1_555
Cd1G N2E 1_555 1_555
F1D C8D 1_555 1_555
F2D C9D 1_555 1_555
F3E C17E 1_555 1_555
F4E C18E 1_555 1_555
O1B Cd1 1_555 1_555
O2B N3B 1_555 1_555
O3B N3B 1_555 1_555
N1D C1D 1_555 1_555
N1B Cd1 1_555 1_555
N2E C10E 1_555 1_555
N2B Cd1 1_555 1_555
N3B O1B 1_555 1_555
C1D C3D 1_555 1_555
C2D N1D 1_555 1_555
C3D C5D 1_555 1_555
C4D C2D 1_555 1_555
C5D C4D 1_555 1_555
C6D C5D 1_555 1_555
C7D C9 1_555 1_555
C8D C7D 1_555 1_555
C9D C7 1_555 1_555
C10E C12E 1_555 1_555
C11E N2E 1_555 1_555
C12E C14E 1_555 1_555
C13E C11E 1_555 1_555
C14E C13E 1_555 1_555
C15E C14E 1_555 1_555
C16E C18 1_555 1_555
C17E C16E 1_555 1_555
C18E C16 1_555 1_555
H1D C1D 1_555 1_555
H2D C2D 1_555 1_555
H3D C3D 1_555 1_555
H4D C4D 1_555 1_555
H5D C6D 1_555 1_555
H6D C6D 1_555 1_555
H7E C10E 1_555 1_555
H8E C11E 1_555 1_555
H9E C12E 1_555 1_555
H10E C13E 1_555 1_555
H11E C15E 1_555 1_555
H12E C15E 1_555 1_555
C4 C5 1_555 1_555
C13 C14 1_555 1_555
C29 C30 1_555 1_555
C6D C7D 1_555 1_555
C8D C9D 1_555 1_555
C15E C16E 1_555 1_555
C17E C18E 1_555 1_555

#END
