
#######################################################################
#
#                 Cambridge Crystallographic Data Centre
#                                CCDC 
#
#######################################################################
#
# If this CIF has been generated from an entry in the Cambridge 
# Structural Database, then it will include bibliographic, chemical, 
# crystal, experimental, refinement or atomic coordinate data resulting 
# from the CCDC's data processing and validation procedures.
#
#######################################################################

data_MICPUK
_symmetry_cell_setting           orthorhombic
_symmetry_space_group_name_H-M   'P c c n'
_symmetry_Int_Tables_number      56
_space_group_name_Hall           '-P 2ab 2ac'
loop_
_symmetry_equiv_pos_site_id
_symmetry_equiv_pos_as_xyz
1 x,y,z
2 1/2-x,1/2-y,z
3 -x,1/2+y,1/2-z
4 1/2+x,-y,1/2-z
5 -x,-y,-z
6 1/2+x,1/2+y,-z
7 x,1/2-y,1/2+z
8 1/2-x,y,1/2+z
_cell_length_a                   16.9863(11)
_cell_length_b                   20.7220(13)
_cell_length_c                   16.8879(10)
_cell_angle_alpha                90
_cell_angle_beta                 90
_cell_angle_gamma                90
_cell_volume                     5944.37
loop_
_atom_site_label
_atom_site_type_symbol
_atom_site_fract_x
_atom_site_fract_y
_atom_site_fract_z
Cd1 Cd 1.2500 0.7500 0.392412(15)
F1 F 0.94287(10) 1.02354(8) 0.61038(10)
F2 F 0.96257(10) 0.80589(8) 0.68921(11)
F3 F 0.78765(10) 1.01299(7) 0.60550(10)
F4 F 0.80695(9) 0.79542(7) 0.68606(10)
F5 F 0.68384(9) 0.98599(7) 0.72649(9)
F6 F 0.71477(10) 0.80949(7) 0.55281(10)
F7 F 0.52798(9) 0.98171(7) 0.70386(10)
F8 F 0.55911(10) 0.80054(8) 0.53837(10)
O1 O 1.14899(13) 0.67597(11) 0.43075(16)
O2 O 1.15518(16) 0.62741(12) 0.31790(14)
O3 O 1.11291(16) 0.57663(11) 0.42003(15)
N1 N 1.17950(12) 0.81052(11) 0.48589(13)
N2 N 0.32451(13) 0.79917(11) 0.79286(13)
N3 N 1.13920(14) 0.62615(12) 0.38985(14)
C1 C 1.21335(15) 0.83773(13) 0.54978(16)
H1 H 1.2685 0.8326 0.5570
C2 C 1.10149(15) 0.81834(14) 0.47758(17)
H2 H 1.0762 0.7985 0.4337
C3 C 1.17177(15) 0.87265(13) 0.60509(15)
H3 H 1.1981 0.8907 0.6495
C4 C 1.05623(15) 0.85385(13) 0.52965(16)
H4 H 1.0015 0.8594 0.5203
C5 C 1.09133(15) 0.88143(12) 0.59580(15)
C6 C 1.04678(15) 0.92101(14) 0.65621(17)
H5 H 1.0639 0.9076 0.7098
H6 H 1.0614 0.9669 0.6495
C7 C 0.95853(16) 0.91547(13) 0.65166(16)
C8 C 0.91073(16) 0.96633(13) 0.63073(16)
C9 C 0.91983(16) 0.85806(12) 0.66920(17)
C10 C 0.82939(16) 0.96120(12) 0.62818(16)
C11 C 0.83889(15) 0.85211(12) 0.66667(17)
C12 C 0.79132(15) 0.90373(12) 0.64595(14)
C13 C 0.70461(15) 0.89810(12) 0.64013(14)
C14 C 0.65413(15) 0.94125(12) 0.67762(15)
C15 C 0.66966(16) 0.85122(12) 0.59256(15)
C16 C 0.57396(15) 0.93837(12) 0.66652(16)
C17 C 0.58924(16) 0.84783(12) 0.58386(15)
C18 C 0.53871(15) 0.89247(13) 0.61865(15)
C19 C 0.45098(15) 0.89244(14) 0.60351(15)
H7 H 0.4402 0.8696 0.5532
H8 H 0.4325 0.9375 0.5977
C20 C 0.40557(13) 0.86015(12) 0.66966(15)
C21 C 0.37006(17) 0.89502(13) 0.72921(18)
H9 H 0.3723 0.9408 0.7287
C22 C 0.39868(16) 0.79368(13) 0.67289(16)
H10 H 0.4215 0.7677 0.6327
C23 C 0.33122(18) 0.86337(14) 0.78958(19)
H11 H 0.3082 0.8884 0.8307
C24 C 0.35860(16) 0.76540(13) 0.73466(17)
H12 H 0.3550 0.7197 0.7360
Cd1F Cd 0.2500 0.7500 0.892412(15)
Cd1F_2 Cd 2.2500 0.7500 0.892412(15)
F1A F 1.55713(10) 0.47646(8) 0.61038(10)
F2A F 1.53743(10) 0.69411(8) 0.68921(11)
F3A F 1.71235(10) 0.48701(7) 0.60550(10)
F4A F 1.69305(9) 0.70458(7) 0.68606(10)
F5A F 1.81616(9) 0.51401(7) 0.72649(9)
F6A F 1.78523(10) 0.69051(7) 0.55281(10)
F7A F 1.97202(9) 0.51829(7) 0.70386(10)
F8A F 1.94089(10) 0.69946(8) 0.53837(10)
O1A O 1.35101(13) 0.82403(11) 0.43075(16)
O2A O 1.34482(16) 0.87259(12) 0.31790(14)
O3A O 1.38709(16) 0.92337(11) 0.42003(15)
N1A N 1.32050(12) 0.68948(11) 0.48589(13)
N2A N 2.17549(13) 0.70083(11) 0.79286(13)
N2F N 1.32451(13) 0.70083(11) 0.29286(13)
N2G N 1.17549(13) 0.79917(11) 0.29286(13)
N3A N 1.36080(14) 0.87385(12) 0.38985(14)
C1A C 1.28665(15) 0.66227(13) 0.54978(16)
H1A H 1.2315 0.6674 0.5570
C2A C 1.39851(15) 0.68166(14) 0.47758(17)
H2A H 1.4238 0.7015 0.4337
C3A C 1.32823(15) 0.62735(13) 0.60509(15)
H3A H 1.3019 0.6093 0.6495
C4A C 1.44377(15) 0.64615(13) 0.52965(16)
H4A H 1.4985 0.6406 0.5203
C5A C 1.40867(15) 0.61857(12) 0.59580(15)
C6A C 1.45322(15) 0.57899(14) 0.65621(17)
H5A H 1.4361 0.5924 0.7098
H6A H 1.4386 0.5331 0.6495
C7A C 1.54147(16) 0.58453(13) 0.65166(16)
C8A C 1.58927(16) 0.53367(13) 0.63073(16)
C9A C 1.58017(16) 0.64194(12) 0.66920(17)
C10A C 1.67061(16) 0.53880(12) 0.62818(16)
C11A C 1.66111(15) 0.64789(12) 0.66667(17)
C12A C 1.70868(15) 0.59627(12) 0.64595(14)
C13A C 1.79539(15) 0.60190(12) 0.64013(14)
C14A C 1.84587(15) 0.55875(12) 0.67762(15)
C15A C 1.83034(16) 0.64878(12) 0.59256(15)
C16A C 1.92604(15) 0.56163(12) 0.66652(16)
C17A C 1.91076(16) 0.65217(12) 0.58386(15)
C18A C 1.96129(15) 0.60753(13) 0.61865(15)
C19A C 2.04902(15) 0.60756(14) 0.60351(15)
H7A H 2.0598 0.6304 0.5532
H8A H 2.0675 0.5625 0.5977
C20A C 2.09443(13) 0.63985(12) 0.66966(15)
C21A C 2.12994(17) 0.60498(13) 0.72921(18)
H9A H 2.1277 0.5592 0.7287
C22A C 2.10132(16) 0.70632(13) 0.67289(16)
H10A H 2.0785 0.7323 0.6327
C23A C 2.16878(18) 0.63663(14) 0.78958(19)
H11A H 2.1918 0.6116 0.8307
C24A C 2.14140(16) 0.73460(13) 0.73466(17)
H12A H 2.1450 0.7803 0.7360
O4 O 0.3908(2) 0.38312(18) 0.62577(19)
O5 O 0.12094(18) 0.33703(16) 0.65190(17)
C25 C 0.3147(3) 0.3973(2) 0.6141(2)
C26 C 0.2555(2) 0.35855(18) 0.63969(19)
H13 H 0.2669 0.3192 0.6662
C27 C 0.1756(3) 0.37782(18) 0.6261(2)
C28 C 0.1586(3) 0.4341(2) 0.5873(2)
H14 H 0.1058 0.4474 0.5782
C29 C 0.2210(4) 0.4701(2) 0.5626(3)
H15 H 0.2088 0.5090 0.5355
C30 C 0.2980(3) 0.45677(19) 0.5721(2)
H16 H 0.3384 0.4843 0.5527
C31 C 0.4130(3) 0.3254(3) 0.6628(4)
H17 H 0.4705 0.3230 0.6657
H18 H 0.3929 0.2887 0.6323
H19 H 0.3910 0.3242 0.7165
C32 C 0.0400(3) 0.3555(3) 0.6395(3)
H20 H 0.0052 0.3219 0.6605
H21 H 0.0302 0.3609 0.5827
H22 H 0.0295 0.3963 0.6669
loop_
_geom_bond_atom_site_label_1
_geom_bond_atom_site_label_2
_geom_bond_site_symmetry_1
_geom_bond_site_symmetry_2
Cd1 O1 1_555 1_555
F1 C8 1_555 1_555
F2 C9 1_555 1_555
F3 C10 1_555 1_555
F4 C11 1_555 1_555
F5 C14 1_555 1_555
F6 C15 1_555 1_555
F7 C16 1_555 1_555
F8 C17 1_555 1_555
O1 N3 1_555 1_555
O2 N3 1_555 1_555
O3 N3 1_555 1_555
O4 C25 1_555 1_555
O5 C27 1_555 1_555
N1 Cd1 1_555 1_555
N2 C23 1_555 1_555
C1 N1 1_555 1_555
H1 C1 1_555 1_555
C2 N1 1_555 1_555
H2 C2 1_555 1_555
C3 C1 1_555 1_555
H3 C3 1_555 1_555
C4 C2 1_555 1_555
H4 C4 1_555 1_555
C5 C3 1_555 1_555
C6 C5 1_555 1_555
H5 C6 1_555 1_555
H6 C6 1_555 1_555
C7 C6 1_555 1_555
C8 C7 1_555 1_555
C9 C7 1_555 1_555
C10 C8 1_555 1_555
C11 C9 1_555 1_555
C12 C10 1_555 1_555
C13 C12 1_555 1_555
C14 C13 1_555 1_555
C15 C13 1_555 1_555
C16 C14 1_555 1_555
C17 C15 1_555 1_555
C18 C16 1_555 1_555
C19 C18 1_555 1_555
H7 C19 1_555 1_555
H8 C19 1_555 1_555
C20 C19 1_555 1_555
C21 C20 1_555 1_555
H9 C21 1_555 1_555
C22 C20 1_555 1_555
H10 C22 1_555 1_555
C23 C21 1_555 1_555
H11 C23 1_555 1_555
C24 N2 1_555 1_555
H12 C24 1_555 1_555
C25 C26 1_555 1_555
C26 H13 1_555 1_555
C27 C26 1_555 1_555
C28 C27 1_555 1_555
H14 C28 1_555 1_555
C29 C28 1_555 1_555
H15 C29 1_555 1_555
C30 C25 1_555 1_555
H16 C30 1_555 1_555
C31 O4 1_555 1_555
H17 C31 1_555 1_555
H18 C31 1_555 1_555
H19 C31 1_555 1_555
C32 O5 1_555 1_555
H20 C32 1_555 1_555
H21 C32 1_555 1_555
H22 C32 1_555 1_555
Cd1F N2 1_555 1_555
Cd1F_2 N2A 1_555 1_555
F1A C8A 1_555 1_555
F2A C9A 1_555 1_555
F3A C10A 1_555 1_555
F4A C11A 1_555 1_555
F5A C14A 1_555 1_555
F6A C15A 1_555 1_555
F7A C16A 1_555 1_555
F8A C17A 1_555 1_555
O1A Cd1 1_555 1_555
O2A N3A 1_555 1_555
O3A N3A 1_555 1_555
N1A Cd1 1_555 1_555
N2A C23A 1_555 1_555
N2F Cd1 1_555 1_555
N2G Cd1 1_555 1_555
N3A O1A 1_555 1_555
C1A N1A 1_555 1_555
H1A C1A 1_555 1_555
C2A N1A 1_555 1_555
H2A C2A 1_555 1_555
C3A C1A 1_555 1_555
H3A C3A 1_555 1_555
C4A C2A 1_555 1_555
H4A C4A 1_555 1_555
C5A C3A 1_555 1_555
C6A C5A 1_555 1_555
H5A C6A 1_555 1_555
H6A C6A 1_555 1_555
C7A C6A 1_555 1_555
C8A C7A 1_555 1_555
C9A C7A 1_555 1_555
C10A C8A 1_555 1_555
C11A C9A 1_555 1_555
C12A C10A 1_555 1_555
C13A C12A 1_555 1_555
C14A C13A 1_555 1_555
C15A C13A 1_555 1_555
C16A C14A 1_555 1_555
C17A C15A 1_555 1_555
C18A C16A 1_555 1_555
C19A C18A 1_555 1_555
H7A C19A 1_555 1_555
H8A C19A 1_555 1_555
C20A C19A 1_555 1_555
C21A C20A 1_555 1_555
H9A C21A 1_555 1_555
C22A C20A 1_555 1_555
H10A C22A 1_555 1_555
C23A C21A 1_555 1_555
H11A C23A 1_555 1_555
C24A N2A 1_555 1_555
H12A C24A 1_555 1_555
C4 C5 1_555 1_555
C11 C12 1_555 1_555
C17 C18 1_555 1_555
C22 C24 1_555 1_555
C29 C30 1_555 1_555
C4A C5A 1_555 1_555
C11A C12A 1_555 1_555
C17A C18A 1_555 1_555
C22A C24A 1_555 1_555

#END
