
#######################################################################
#
#                 Cambridge Crystallographic Data Centre
#                                CCDC 
#
#######################################################################
#
# If this CIF has been generated from an entry in the Cambridge 
# Structural Database, then it will include bibliographic, chemical, 
# crystal, experimental, refinement or atomic coordinate data resulting 
# from the CCDC's data processing and validation procedures.
#
#######################################################################

data_MICQUL
_symmetry_cell_setting           triclinic
_symmetry_space_group_name_H-M   'P -1'
_symmetry_Int_Tables_number      2
_space_group_name_Hall           '-P 1'
loop_
_symmetry_equiv_pos_site_id
_symmetry_equiv_pos_as_xyz
1 x,y,z
2 -x,-y,-z
_cell_length_a                   11.289(3)
_cell_length_b                   16.583(4)
_cell_length_c                   18.834(5)
_cell_angle_alpha                78.838(4)
_cell_angle_beta                 82.185(4)
_cell_angle_gamma                84.608(5)
_cell_volume                     3418.7
loop_
_atom_site_label
_atom_site_type_symbol
_atom_site_fract_x
_atom_site_fract_y
_atom_site_fract_z
Cd1 Cd 0.95719(2) 0.287821(16) 0.223472(12)
F1 F 1.0002(3) 0.39802(16) -0.19149(15)
F2 F 1.2569(2) 0.14527(16) -0.18414(13)
F3 F 0.8606(3) 0.34805(18) -0.28391(15)
F4 F 1.2306(2) 0.04269(15) -0.27326(13)
F5 F 0.8179(2) 0.23523(17) -0.35882(14)
F6 F 1.0993(2) -0.00244(14) -0.37103(12)
F7 F 1.5434(2) 0.36471(17) 0.34415(13)
F8 F 1.6353(3) 0.33200(18) 0.47633(15)
F9 F 1.3402(2) 0.62101(17) 0.39922(14)
F10 F 0.4706(4) -0.0268(2) 0.2003(3)
F11 F 0.4340(4) 0.2009(4) 0.0018(2)
F12 F 0.5242(4) -0.1530(2) 0.1256(2)
O1 O 1.1420(2) 0.18378(16) 0.22898(14)
O2 O 1.0013(2) 0.0978(2) 0.22364(15)
O3 O 1.1798(3) 0.04684(19) 0.25999(17)
O4 O 0.8542(3) 0.43484(18) 0.16526(16)
O5 O 0.8121(3) 0.39673(19) 0.28541(16)
O6 O 0.7110(3) 0.5072(2) 0.2253(3)
N1 N 1.0290(3) 0.2999(2) 0.09339(15)
N2 N 0.9283(3) 0.22382(19) -0.64731(15)
N3 N 1.1138(2) 0.36605(18) 0.24696(15)
N4 N 0.7733(3) 0.23761(19) 0.19964(16)
N5 N 1.1072(3) 0.1087(2) 0.23747(16)
N6 N 0.7909(3) 0.4474(2) 0.22545(19)
C1 C 1.0584(3) 0.3732(2) 0.04856(19)
H1 H 1.0406 0.4229 0.0671
C2 C 1.0512(5) 0.2296(3) 0.0642(2)
H2 H 1.0307 0.1789 0.0946
C3 C 1.1160(3) 0.3776(2) -0.02616(19)
H3 H 1.1362 0.4290 -0.0552
C4 C 1.1036(5) 0.2276(3) -0.0095(2)
H4 H 1.1130 0.1775 -0.0277
C5 C 1.1416(4) 0.3030(3) -0.05525(19)
C6 C 1.2073(4) 0.3048(3) -0.1345(2)
H5 H 1.2843 0.2712 -0.1316
H6 H 1.2256 0.3622 -0.1562
C7 C 1.1323(4) 0.2714(3) -0.1863(2)
C8 C 1.0290(5) 0.3221(3) -0.2138(2)
C9 C 1.1602(4) 0.1966(3) -0.21119(19)
C10 C 0.9585(4) 0.2964(3) -0.2613(2)
C11 C 1.0940(4) 0.1678(2) -0.26261(18)
C12 C 0.9885(4) 0.2187(2) -0.2874(2)
C13 C 1.1296(4) 0.0927(3) -0.2926(2)
C14 C 0.9202(4) 0.1895(3) -0.33679(19)
C15 C 1.0611(4) 0.0689(2) -0.34273(19)
C16 C 0.9522(4) 0.1151(2) -0.36415(19)
C17 C 0.8746(4) 0.0863(3) -0.4161(2)
H7 H 0.7890 0.0924 -0.3963
H8 H 0.8956 0.0271 -0.4168
C18 C 0.8919(4) 0.1360(2) -0.49669(18)
C19 C 0.7931(4) 0.1740(2) -0.53473(19)
H9 H 0.7134 0.1703 -0.5112
C20 C 1.0122(4) 0.1452(3) -0.5363(2)
H10 H 1.0811 0.1225 -0.5136
C21 C 0.8150(4) 0.2169(2) -0.60734(19)
H11 H 0.7479 0.2427 -0.6305
C22 C 1.0239(3) 0.1895(3) -0.61094(19)
H12 H 1.1023 0.1953 -0.6362
C23 C 1.2258(3) 0.3680(2) 0.20523(19)
H13 H 1.2396 0.3384 0.1661
C24 C 1.0994(3) 0.4076(2) 0.30455(19)
H14 H 1.0242 0.4062 0.3342
C25 C 1.3210(3) 0.4124(3) 0.2184(2)
H15 H 1.3954 0.4118 0.1880
C26 C 1.1899(4) 0.4531(3) 0.3233(2)
H16 H 1.1745 0.4792 0.3647
C27 C 1.3049(3) 0.4585(3) 0.2781(2)
C28 C 1.4015(4) 0.5140(3) 0.2900(2)
H17 H 1.3695 0.5722 0.2804
H18 H 1.4727 0.5080 0.2540
C29 C 1.4421(3) 0.4939(3) 0.3687(2)
C30 C 1.5166(4) 0.4215(3) 0.3925(2)
C31 C 1.5627(4) 0.4056(3) 0.4580(2)
C32 C 1.5385(3) 0.4636(2) 0.5090(2)
C33 C 1.4144(3) 0.5503(3) 0.4189(2)
C34 C 0.7315(4) 0.1624(3) 0.2355(2)
H19 H 0.7792 0.1283 0.2688
C35 C 0.7025(4) 0.2840(3) 0.1488(2)
H20 H 0.7292 0.3351 0.1223
C36 C 0.6205(3) 0.1334(3) 0.2251(3)
H21 H 0.5951 0.0822 0.2523
C37 C 0.5918(4) 0.2584(3) 0.1345(2)
H22 H 0.5475 0.2923 0.0991
C38 C 0.5477(3) 0.1826(3) 0.1729(3)
C39 C 0.4284(4) 0.1518(3) 0.1572(3)
H23 H 0.3859 0.1237 0.2035
H24 H 0.3760 0.2000 0.1376
C40 C 0.4503(4) 0.0928(3) 0.1031(3)
C41 C 0.4761(5) 0.0069(4) 0.1257(5)
C42 C 0.4528(6) 0.1136(5) 0.0330(5)
C43 C 0.5098(6) -0.0771(7) 0.0802(6)
C44 C 0.4914(5) 0.0349(4) -0.0248(4)
Cd1_2 Cd 0.95719(2) 0.287821(16) 1.223472(12)
Cd1_3 Cd 0.95719(2) 0.287821(16) -0.776528(12)
Cd1A Cd 2.04281(2) 0.712179(16) 0.776528(12)
Cd1A_2 Cd 0.04281(2) -0.287821(16) -0.223472(12)
F1_2 F 1.0002(3) 0.39802(16) 0.80851(15)
F2_2 F 1.2569(2) 0.14527(16) 0.81586(13)
F3_2 F 0.8606(3) 0.34805(18) 0.71609(15)
F4_2 F 1.2306(2) 0.04269(15) 0.72674(13)
F5_2 F 0.8179(2) 0.23523(17) 0.64118(14)
F6_2 F 1.0993(2) -0.00244(14) 0.62897(12)
F7A F 1.4566(2) 0.63529(17) 0.65585(13)
F8A F 1.3647(3) 0.66800(18) 0.52367(15)
F9A F 1.6598(2) 0.37899(17) 0.60078(14)
F10A F 0.5294(4) 0.0268(2) -0.2003(3)
F11A F 0.5660(4) -0.2009(4) -0.0018(2)
F12A F 0.4758(4) 0.1530(2) -0.1256(2)
O1_2 O 1.1420(2) 0.18378(16) 1.22898(14)
O2_2 O 1.0013(2) 0.0978(2) 1.22364(15)
O3_2 O 1.1798(3) 0.04684(19) 1.25999(17)
O4_2 O 0.8542(3) 0.43484(18) 1.16526(16)
O5_2 O 0.8121(3) 0.39673(19) 1.28541(16)
O6_2 O 0.7110(3) 0.5072(2) 1.2253(3)
N1_2 N 1.0290(3) 0.2999(2) 1.09339(15)
N2_2 N 0.9283(3) 0.22382(19) 0.35269(15)
N2_3 N 0.9283(3) 0.22382(19) 1.35269(15)
N3A N 1.8862(2) 0.63395(18) 0.75304(15)
N3_2 N 1.1138(2) 0.36605(18) 1.24696(15)
N4A N 0.2267(3) -0.23761(19) -0.19964(16)
N4_2 N 0.7733(3) 0.23761(19) 1.19964(16)
N5_2 N 1.1072(3) 0.1087(2) 1.23747(16)
N6_2 N 0.7909(3) 0.4474(2) 1.22545(19)
C1_2 C 1.0584(3) 0.3732(2) 1.04856(19)
H1_2 H 1.0406 0.4229 1.0671
C2_2 C 1.0512(5) 0.2296(3) 1.0642(2)
H2_2 H 1.0307 0.1789 1.0946
C3_2 C 1.1160(3) 0.3776(2) 0.97384(19)
H3_2 H 1.1362 0.4290 0.9448
C4_2 C 1.1036(5) 0.2276(3) 0.9905(2)
H4_2 H 1.1130 0.1775 0.9723
C5_2 C 1.1416(4) 0.3030(3) 0.94475(19)
C6_2 C 1.2073(4) 0.3048(3) 0.8655(2)
H5_2 H 1.2843 0.2712 0.8684
H6_2 H 1.2256 0.3622 0.8438
C7_2 C 1.1323(4) 0.2714(3) 0.8137(2)
C8_2 C 1.0290(5) 0.3221(3) 0.7862(2)
C9_2 C 1.1602(4) 0.1966(3) 0.78881(19)
C10_2 C 0.9585(4) 0.2964(3) 0.7387(2)
C11_2 C 1.0940(4) 0.1678(2) 0.73739(18)
C12_2 C 0.9885(4) 0.2187(2) 0.7126(2)
C13_2 C 1.1296(4) 0.0927(3) 0.7074(2)
C14_2 C 0.9202(4) 0.1895(3) 0.66321(19)
C15_2 C 1.0611(4) 0.0689(2) 0.65727(19)
C16_2 C 0.9522(4) 0.1151(2) 0.63585(19)
C17_2 C 0.8746(4) 0.0863(3) 0.5839(2)
H7_2 H 0.7890 0.0924 0.6037
H8_2 H 0.8956 0.0271 0.5832
C18_2 C 0.8919(4) 0.1360(2) 0.50331(18)
C19_2 C 0.7931(4) 0.1740(2) 0.46527(19)
H9_2 H 0.7134 0.1703 0.4888
C20_2 C 1.0122(4) 0.1452(3) 0.4637(2)
H10_2 H 1.0811 0.1225 0.4864
C21_2 C 0.8150(4) 0.2169(2) 0.39266(19)
H11_2 H 0.7479 0.2427 0.3695
C22_2 C 1.0239(3) 0.1895(3) 0.38906(19)
H12_2 H 1.1023 0.1953 0.3638
C23A C 1.7742(3) 0.6320(2) 0.79477(19)
H13A H 1.7604 0.6616 0.8339
C24A C 1.9006(3) 0.5924(2) 0.69545(19)
H14A H 1.9758 0.5938 0.6658
C25A C 1.6790(3) 0.5876(3) 0.7816(2)
H15A H 1.6046 0.5882 0.8120
C26A C 1.8101(4) 0.5469(3) 0.6767(2)
H16A H 1.8255 0.5208 0.6353
C27A C 1.6951(3) 0.5415(3) 0.7219(2)
C28A C 1.5985(4) 0.4860(3) 0.7100(2)
H17A H 1.6305 0.4278 0.7196
H18A H 1.5273 0.4920 0.7460
C29A C 1.5579(3) 0.5061(3) 0.6313(2)
C30A C 1.4834(4) 0.5785(3) 0.6075(2)
C31A C 1.4373(4) 0.5944(3) 0.5420(2)
C32A C 1.4615(3) 0.5364(2) 0.4910(2)
C33A C 1.5856(3) 0.4497(3) 0.5811(2)
C34A C 0.2685(4) -0.1624(3) -0.2355(2)
H19A H 0.2208 -0.1283 -0.2688
C35A C 0.2975(4) -0.2840(3) -0.1488(2)
H20A H 0.2708 -0.3351 -0.1223
C36A C 0.3795(3) -0.1334(3) -0.2251(3)
H21A H 0.4049 -0.0822 -0.2523
C37A C 0.4082(4) -0.2584(3) -0.1345(2)
H22A H 0.4525 -0.2923 -0.0991
C38A C 0.4523(3) -0.1826(3) -0.1729(3)
C39A C 0.5716(4) -0.1518(3) -0.1572(3)
H23A H 0.6141 -0.1237 -0.2035
H24A H 0.6240 -0.2000 -0.1376
C40A C 0.5497(4) -0.0928(3) -0.1031(3)
C41A C 0.5239(5) -0.0069(4) -0.1257(5)
C42A C 0.5472(6) -0.1136(5) -0.0330(5)
C43A C 0.4902(6) 0.0771(7) -0.0802(6)
C44A C 0.5086(5) -0.0349(4) 0.0248(4)
C45 C 0.3765(7) 0.1754(5) 0.5147(4)
C46 C 0.3659(8) 0.2210(6) 0.4433(5)
C47 C 0.3585(7) 0.1751(5) 0.3812(4)
C48 C 0.3465(7) 0.0884(5) 0.3919(5)
C49 C 0.3521(7) 0.0464(6) 0.4686(5)
C50 C 0.3690(8) 0.0843(6) 0.5256(5)
C51 C 0.3816(8) 0.2212(5) 0.5819(4)
C52 C 0.3178(11) 0.2940(6) 0.5834(5)
C53 C 0.3282(11) 0.3450(8) 0.6418(5)
C54 C 0.4072(10) 0.3078(6) 0.6874(6)
C55 C 0.4814(10) 0.2223(9) 0.6927(6)
C56 C 0.4691(9) 0.1797(8) 0.6339(5)
C57 C 0.5446(4) 0.4705(4) 0.9786(2)
C58 C 0.5046(6) 0.4223(5) 0.9333(3)
H25 H 0.4216 0.4266 0.9283
C59 C 0.5757(8) 0.3722(6) 0.8980(4)
H26 H 0.5421 0.3406 0.8697
C60 C 0.7094(8) 0.3633(6) 0.9011(4)
H27 H 0.7620 0.3271 0.8759
C61 C 0.7495(7) 0.4129(5) 0.9442(5)
H28 H 0.8331 0.4119 0.9469
C62 C 0.6692(5) 0.4653(4) 0.9845(4)
H29 H 0.6994 0.4961 1.0149
C57A C 0.4554(4) 0.5295(4) 1.0214(2)
C58A C 0.4954(6) 0.5777(5) 1.0667(3)
H25A H 0.5784 0.5734 1.0717
C59A C 0.4243(8) 0.6278(6) 1.1020(4)
H26A H 0.4579 0.6594 1.1303
C60A C 0.2906(8) 0.6367(6) 1.0989(4)
H27A H 0.2380 0.6729 1.1241
C61A C 0.2505(7) 0.5871(5) 1.0558(5)
H28A H 0.1669 0.5881 1.0531
C62A C 0.3308(5) 0.5347(4) 1.0155(4)
H29A H 0.3006 0.5039 0.9851
C63? C 0.0778(10) 0.9517(6) 0.0379(6)
C64? C 0.1103(5) 0.9469(4) 0.1134(3)
C65? C 0.1955(11) 0.9062(6) 0.1481(6)
C66? C 0.2670(12) 0.8419(9) 0.1085(8)
C67? C 0.2336(10) 0.8279(7) 0.0410(6)
C68? C 0.1766(9) 0.8885(5) -0.0001(4)
C69? C 0.3838(16) 0.2574(13) 0.6472(13)
C70? C 0.3556(16) 0.3393(13) 0.6830(10)
C71? C 0.2421(15) 0.2865(12) 0.5594(10)
C72? C 0.2577(13) 0.3962(11) 0.6395(9)
C73? C 0.2083(11) 0.3675(9) 0.5818(7)
C74? C 0.0970(11) 0.4367(9) 0.5421(5)
C75? C 0.0938(11) 0.5340(10) 0.5247(5)
C76? C 0.0154(12) 0.5832(10) 0.4889(5)
C77? C 0.2148(9) 0.8869(8) 0.0664(11)
C78? C 0.1166(9) 0.9556(8) -0.0431(7)
C79? C 0.0149(11) 0.9843(7) 0.0873(6)
C80? C 0.0000 1.0000 0.0000
loop_
_geom_bond_atom_site_label_1
_geom_bond_atom_site_label_2
_geom_bond_site_symmetry_1
_geom_bond_site_symmetry_2
Cd1 O1 1_555 1_555
F1 C8 1_555 1_555
F2 C9 1_555 1_555
F3 C10 1_555 1_555
F4 C13 1_555 1_555
F5 C14 1_555 1_555
F6 C15 1_555 1_555
F7 C30 1_555 1_555
F8 C31 1_555 1_555
F9 C33 1_555 1_555
F10 C41 1_555 1_555
F11 C42 1_555 1_555
F12 C43 1_555 1_555
O1 N5 1_555 1_555
O2 N5 1_555 1_555
O3 N5 1_555 1_555
O4 N6 1_555 1_555
O5 Cd1 1_555 1_555
O6 N6 1_555 1_555
N1 Cd1 1_555 1_555
N2 C21 1_555 1_555
N3 Cd1 1_555 1_555
N4 Cd1 1_555 1_555
N6 O5 1_555 1_555
C1 N1 1_555 1_555
H1 C1 1_555 1_555
C2 N1 1_555 1_555
H2 C2 1_555 1_555
C3 C1 1_555 1_555
H3 C3 1_555 1_555
C4 C2 1_555 1_555
H4 C4 1_555 1_555
C5 C3 1_555 1_555
C6 C5 1_555 1_555
H5 C6 1_555 1_555
H6 C6 1_555 1_555
C7 C6 1_555 1_555
C8 C7 1_555 1_555
C9 C7 1_555 1_555
C10 C8 1_555 1_555
C11 C9 1_555 1_555
C12 C10 1_555 1_555
C13 C11 1_555 1_555
C14 C12 1_555 1_555
C15 C13 1_555 1_555
C16 C14 1_555 1_555
C17 C16 1_555 1_555
H7 C17 1_555 1_555
H8 C17 1_555 1_555
C18 C17 1_555 1_555
C19 C18 1_555 1_555
H9 C19 1_555 1_555
C20 C18 1_555 1_555
H10 C20 1_555 1_555
C21 C19 1_555 1_555
H11 C21 1_555 1_555
C22 N2 1_555 1_555
H12 C22 1_555 1_555
C23 N3 1_555 1_555
H13 C23 1_555 1_555
C24 N3 1_555 1_555
H14 C24 1_555 1_555
C25 C23 1_555 1_555
H15 C25 1_555 1_555
C26 C24 1_555 1_555
H16 C26 1_555 1_555
C27 C25 1_555 1_555
C28 C27 1_555 1_555
H17 C28 1_555 1_555
H18 C28 1_555 1_555
C29 C28 1_555 1_555
C30 C29 1_555 1_555
C31 C30 1_555 1_555
C32 C31 1_555 1_555
C33 C29 1_555 1_555
C34 N4 1_555 1_555
H19 C34 1_555 1_555
C35 N4 1_555 1_555
H20 C35 1_555 1_555
C36 C34 1_555 1_555
H21 C36 1_555 1_555
C37 C35 1_555 1_555
H22 C37 1_555 1_555
C38 C36 1_555 1_555
C39 C38 1_555 1_555
H23 C39 1_555 1_555
H24 C39 1_555 1_555
C40 C39 1_555 1_555
C41 C40 1_555 1_555
C42 C40 1_555 1_555
C43 C41 1_555 1_555
C44 C42 1_555 1_555
C45 C46 1_555 1_555
C46 C47 1_555 1_555
C47 C48 1_555 1_555
C48 C49 1_555 1_555
C49 C50 1_555 1_555
C50 C45 1_555 1_555
C51 C45 1_555 1_555
C52 C51 1_555 1_555
C53 C52 1_555 1_555
C54 C53 1_555 1_555
C55 C54 1_555 1_555
C56 C51 1_555 1_555
C57 C58 1_555 1_555
C58 H25 1_555 1_555
C59 C58 1_555 1_555
H26 C59 1_555 1_555
C60 C59 1_555 1_555
H27 C60 1_555 1_555
C61 C60 1_555 1_555
H28 C61 1_555 1_555
C62 C57 1_555 1_555
H29 C62 1_555 1_555
Cd1_2 O1_2 1_555 1_555
Cd1_3 N2 1_555 1_555
Cd1A N3A 1_555 1_555
Cd1A_2 N4A 1_555 1_555
F1_2 C8_2 1_555 1_555
F2_2 C9_2 1_555 1_555
F3_2 C10_2 1_555 1_555
F4_2 C13_2 1_555 1_555
F5_2 C14_2 1_555 1_555
F6_2 C15_2 1_555 1_555
F7A C30A 1_555 1_555
F8A C31A 1_555 1_555
F9A C33A 1_555 1_555
F10A C41A 1_555 1_555
F11A C42A 1_555 1_555
F12A C43A 1_555 1_555
O1_2 N5_2 1_555 1_555
O2_2 N5_2 1_555 1_555
O3_2 N5_2 1_555 1_555
O4_2 N6_2 1_555 1_555
O5_2 Cd1_2 1_555 1_555
O6_2 N6_2 1_555 1_555
N1_2 Cd1_2 1_555 1_555
N2_2 Cd1 1_555 1_555
N2_3 Cd1_2 1_555 1_555
N3A C23A 1_555 1_555
N3_2 Cd1_2 1_555 1_555
N4A C34A 1_555 1_555
N4_2 Cd1_2 1_555 1_555
N6_2 O5_2 1_555 1_555
C1_2 N1_2 1_555 1_555
H1_2 C1_2 1_555 1_555
C2_2 N1_2 1_555 1_555
H2_2 C2_2 1_555 1_555
C3_2 C1_2 1_555 1_555
H3_2 C3_2 1_555 1_555
C4_2 C2_2 1_555 1_555
H4_2 C4_2 1_555 1_555
C5_2 C3_2 1_555 1_555
C6_2 C5_2 1_555 1_555
H5_2 C6_2 1_555 1_555
H6_2 C6_2 1_555 1_555
C7_2 C6_2 1_555 1_555
C8_2 C7_2 1_555 1_555
C9_2 C7_2 1_555 1_555
C10_2 C8_2 1_555 1_555
C11_2 C9_2 1_555 1_555
C12_2 C10_2 1_555 1_555
C13_2 C11_2 1_555 1_555
C14_2 C12_2 1_555 1_555
C15_2 C13_2 1_555 1_555
C16_2 C14_2 1_555 1_555
C17_2 C16_2 1_555 1_555
H7_2 C17_2 1_555 1_555
H8_2 C17_2 1_555 1_555
C18_2 C17_2 1_555 1_555
C19_2 C18_2 1_555 1_555
H9_2 C19_2 1_555 1_555
C20_2 C18_2 1_555 1_555
H10_2 C20_2 1_555 1_555
C21_2 N2_2 1_555 1_555
H11_2 C21_2 1_555 1_555
C22_2 N2_2 1_555 1_555
H12_2 C22_2 1_555 1_555
C23A H13A 1_555 1_555
C24A N3A 1_555 1_555
H14A C24A 1_555 1_555
C25A C23A 1_555 1_555
H15A C25A 1_555 1_555
C26A C24A 1_555 1_555
H16A C26A 1_555 1_555
C27A C25A 1_555 1_555
C28A C27A 1_555 1_555
H17A C28A 1_555 1_555
H18A C28A 1_555 1_555
C29A C28A 1_555 1_555
C30A C29A 1_555 1_555
C31A C30A 1_555 1_555
C32A C32 1_555 1_555
C33A C32 1_555 1_555
C34A H19A 1_555 1_555
C35A N4A 1_555 1_555
H20A C35A 1_555 1_555
C36A C34A 1_555 1_555
H21A C36A 1_555 1_555
C37A C35A 1_555 1_555
H22A C37A 1_555 1_555
C38A C36A 1_555 1_555
C39A C38A 1_555 1_555
H23A C39A 1_555 1_555
H24A C39A 1_555 1_555
C40A C39A 1_555 1_555
C41A C40A 1_555 1_555
C42A C40A 1_555 1_555
C43A C44 1_555 1_555
C44A C43 1_555 1_555
C57A C57 1_555 1_555
C58A C57A 1_555 1_555
H25A C58A 1_555 1_555
C59A C58A 1_555 1_555
H26A C59A 1_555 1_555
C60A C59A 1_555 1_555
H27A C60A 1_555 1_555
C61A C60A 1_555 1_555
H28A C61A 1_555 1_555
C62A C57A 1_555 1_555
H29A C62A 1_555 1_555
C4 C5 1_555 1_555
C11 C12 1_555 1_555
C15 C16 1_555 1_555
C20 C22 1_555 1_555
C26 C27 1_555 1_555
C33 C32A 1_555 1_555
C37 C38 1_555 1_555
C44 C44A 1_555 1_555
C55 C56 1_555 1_555
C61 C62 1_555 1_555
C4_2 C5_2 1_555 1_555
C11_2 C12_2 1_555 1_555
C15_2 C16_2 1_555 1_555
C19_2 C21_2 1_555 1_555
C20_2 C22_2 1_555 1_555
C26A C27A 1_555 1_555
C29A C33A 1_555 1_555
C31A C32A 1_555 1_555
C37A C38A 1_555 1_555
C41A C43A 1_555 1_555
C42A C44A 1_555 1_555
C61A C62A 1_555 1_555

#END
