
#######################################################################
#
#                 Cambridge Crystallographic Data Centre
#                                CCDC 
#
#######################################################################
#
# If this CIF has been generated from an entry in the Cambridge 
# Structural Database, then it will include bibliographic, chemical, 
# crystal, experimental, refinement or atomic coordinate data resulting 
# from the CCDC's data processing and validation procedures.
#
#######################################################################

data_MICQAR
_symmetry_cell_setting           orthorhombic
_symmetry_space_group_name_H-M   'P c c n'
_symmetry_Int_Tables_number      56
_space_group_name_Hall           '-P 2ab 2ac'
loop_
_symmetry_equiv_pos_site_id
_symmetry_equiv_pos_as_xyz
1 x,y,z
2 1/2-x,1/2-y,z
3 -x,1/2+y,1/2-z
4 1/2+x,-y,1/2-z
5 -x,-y,-z
6 1/2+x,1/2+y,-z
7 x,1/2-y,1/2+z
8 1/2-x,y,1/2+z
_cell_length_a                   17.079(3)
_cell_length_b                   21.562(3)
_cell_length_c                   16.213(3)
_cell_angle_alpha                90
_cell_angle_beta                 90
_cell_angle_gamma                90
_cell_volume                     5970.56
loop_
_atom_site_label
_atom_site_type_symbol
_atom_site_fract_x
_atom_site_fract_y
_atom_site_fract_z
Cd1 Cd 1.2500 0.2500 0.610060(13)
F1 F 0.95893(7) 0.02478(6) 0.79871(8)
F2 F 0.91787(8) 0.20351(6) 0.95969(9)
F3 F 0.80453(7) 0.01431(6) 0.77471(8)
F4 F 0.76350(8) 0.18953(6) 0.94316(9)
F5 F 0.69383(7) -0.00846(6) 0.89496(9)
F6 F 0.67964(8) 0.19897(6) 0.80197(9)
F7 F 0.53999(8) -0.01774(6) 0.88362(9)
F8 F 0.52597(8) 0.18744(7) 0.78491(10)
O1 O 1.17769(10) 0.35424(10) 0.66726(12)
O2 O 1.13033(12) 0.31115(9) 0.55975(12)
O3 O 1.08397(13) 0.39781(11) 0.60279(13)
N1 N 1.16862(10) 0.20277(8) 0.71020(11)
N2 N 0.31219(10) 0.18536(9) 1.01090(11)
N3 N 1.12979(11) 0.35495(10) 0.60973(13)
C1 C 1.15785(13) 0.14106(11) 0.71210(15)
C2 C 1.13414(13) 0.23567(10) 0.76996(14)
C3 C 1.11377(13) 0.11149(11) 0.77131(15)
C4 C 1.08943(14) 0.20932(11) 0.83135(15)
C5 C 1.07785(11) 0.14571(10) 0.83284(13)
C6 C 1.02970(13) 0.11573(12) 0.89989(15)
C7 C 0.94291(13) 0.11366(10) 0.88082(13)
C8 C 0.91056(12) 0.06670(10) 0.83395(13)
C9 C 0.89055(14) 0.15579(10) 0.91409(14)
C10 C 0.83147(12) 0.06065(10) 0.82220(14)
C11 C 0.81126(13) 0.14938(10) 0.90444(14)
C12 C 0.77888(13) 0.10193(10) 0.85804(14)
C13 C 0.69298(13) 0.09542(10) 0.84832(14)
C14 C 0.65368(13) 0.04098(10) 0.86696(14)
C15 C 0.64627(14) 0.14427(11) 0.82179(15)
C16 C 0.57342(13) 0.03637(11) 0.86031(14)
C17 C 0.56684(13) 0.13829(11) 0.81340(14)
C18 C 0.52705(12) 0.08450(11) 0.83314(14)
C19 C 0.43889(14) 0.08051(14) 0.82715(17)
C20 C 0.39606(12) 0.11721(10) 0.89255(13)
C21 C 0.31529(12) 0.12383(11) 0.88811(15)
C22 C 0.43284(13) 0.14530(12) 0.95836(14)
C23 C 0.27628(13) 0.15753(11) 0.94722(14)
C24 C 0.38974(13) 0.17855(12) 1.01509(15)
H7 H 1.1837(13) 0.1192(11) 0.6703(14)
H8 H 1.1430(13) 0.2799(11) 0.7662(14)
H9 H 1.1098(14) 0.0667(12) 0.7688(15)
H10 H 1.0691(16) 0.2337(12) 0.8707(16)
H11 H 1.0499(13) 0.0741(11) 0.9047(13)
H12 H 1.0378(14) 0.1350(11) 0.9499(16)
H13 H 0.4245(15) 0.0371(13) 0.8334(16)
H14 H 0.4226(15) 0.0944(12) 0.7752(17)
H15 H 0.2898(14) 0.1061(11) 0.8444(14)
H16 H 0.4870(13) 0.1431(10) 0.9653(14)
H17 H 0.2230(13) 0.1628(10) 0.9459(13)
H18 H 0.4139(13) 0.1971(10) 1.0583(14)
Cd1F Cd 0.2500 0.2500 1.110060(13)
Cd1F_2 Cd 2.2500 0.2500 1.110060(13)
F1A F 1.54107(7) 0.47522(6) 0.79871(8)
F2A F 1.58213(8) 0.29649(6) 0.95969(9)
F3A F 1.69547(7) 0.48569(6) 0.77471(8)
F4A F 1.73650(8) 0.31047(6) 0.94316(9)
F5A F 1.80617(7) 0.50846(6) 0.89496(9)
F6A F 1.82036(8) 0.30103(6) 0.80197(9)
F7A F 1.96001(8) 0.51774(6) 0.88362(9)
F8A F 1.97403(8) 0.31256(7) 0.78491(10)
O1A O 1.32231(10) 0.14576(10) 0.66726(12)
O2A O 1.36967(12) 0.18885(9) 0.55975(12)
O3A O 1.41603(13) 0.10219(11) 0.60279(13)
N1A N 1.33138(10) 0.29723(8) 0.71020(11)
N2A N 2.18781(10) 0.31464(9) 1.01090(11)
N2F N 1.31219(10) 0.31464(9) 0.51090(11)
N2G N 1.18781(10) 0.18536(9) 0.51090(11)
N3A N 1.37021(11) 0.14505(10) 0.60973(13)
C1A C 1.34215(13) 0.35894(11) 0.71210(15)
C2A C 1.36586(13) 0.26433(10) 0.76996(14)
C3A C 1.38623(13) 0.38851(11) 0.77131(15)
C4A C 1.41057(14) 0.29068(11) 0.83135(15)
C5A C 1.42215(11) 0.35429(10) 0.83284(13)
C6A C 1.47030(13) 0.38427(12) 0.89989(15)
C7A C 1.55709(13) 0.38634(10) 0.88082(13)
C8A C 1.58944(12) 0.43330(10) 0.83395(13)
C9A C 1.60945(14) 0.34421(10) 0.91409(14)
C10A C 1.66853(12) 0.43935(10) 0.82220(14)
C11A C 1.68874(13) 0.35062(10) 0.90444(14)
C12A C 1.72112(13) 0.39807(10) 0.85804(14)
C13A C 1.80702(13) 0.40458(10) 0.84832(14)
C14A C 1.84632(13) 0.45902(10) 0.86696(14)
C15A C 1.85373(14) 0.35573(11) 0.82179(15)
C16A C 1.92658(13) 0.46363(11) 0.86031(14)
C17A C 1.93316(13) 0.36171(11) 0.81340(14)
C18A C 1.97295(12) 0.41550(11) 0.83314(14)
C19A C 2.06111(14) 0.41949(14) 0.82715(17)
C20A C 2.10394(12) 0.38279(10) 0.89255(13)
C21A C 2.18471(12) 0.37617(11) 0.88811(15)
C22A C 2.06716(13) 0.35470(12) 0.95836(14)
C23A C 2.22372(13) 0.34247(11) 0.94722(14)
C24A C 2.11026(13) 0.32145(12) 1.01509(15)
H7A H 1.3163(13) 0.3808(11) 0.6703(14)
H8A H 1.3570(13) 0.2201(11) 0.7662(14)
H9A H 1.3902(14) 0.4333(12) 0.7688(15)
H10A H 1.4309(16) 0.2663(12) 0.8707(16)
H11A H 1.4501(13) 0.4259(11) 0.9047(13)
H12A H 1.4622(14) 0.3650(11) 0.9499(16)
H13A H 2.0755(15) 0.4629(13) 0.8334(16)
H14A H 2.0774(15) 0.4056(12) 0.7752(17)
H15A H 2.2102(14) 0.3939(11) 0.8444(14)
H16A H 2.0130(13) 0.3569(10) 0.9653(14)
H17A H 2.2770(13) 0.3372(10) 0.9459(13)
H18A H 2.0861(13) 0.3029(10) 1.0583(14)
N4 N 0.17218(15) 0.62263(13) 0.87042(15)
C25 C 0.24594(16) 0.59923(12) 0.89184(15)
C26 C 0.31475(19) 0.63248(15) 0.87552(17)
C27 C 0.38715(18) 0.60800(15) 0.89262(18)
C28 C 0.39429(19) 0.55068(14) 0.92743(19)
C29 C 0.3276(2) 0.51776(15) 0.9451(2)
C30 C 0.25441(19) 0.54090(13) 0.92728(18)
C31 C 0.1661(2) 0.68746(18) 0.8482(3)
H1 H 0.2130 0.6999 0.8174
H2 H 0.1616 0.7126 0.8983
H3 H 0.1197 0.6937 0.8137
C32 C 0.10597(18) 0.60098(19) 0.9148(3)
H4 H 0.1130 0.5570 0.9281
H5 H 0.0589 0.6061 0.8809
H6 H 0.1003 0.6249 0.9658
H19 H 0.3101(16) 0.6733(14) 0.8576(17)
H20 H 0.4318(18) 0.6327(14) 0.8819(17)
H21 H 0.4445(17) 0.5358(13) 0.9412(17)
H22 H 0.3320(18) 0.4799(15) 0.9737(19)
H23 H 0.2060(16) 0.5177(12) 0.9392(16)
loop_
_geom_bond_atom_site_label_1
_geom_bond_atom_site_label_2
_geom_bond_site_symmetry_1
_geom_bond_site_symmetry_2
Cd1 O2 1_555 1_555
F1 C8 1_555 1_555
F2 C9 1_555 1_555
F3 C10 1_555 1_555
F4 C11 1_555 1_555
F5 C14 1_555 1_555
F6 C15 1_555 1_555
F7 C16 1_555 1_555
F8 C17 1_555 1_555
O1 N3 1_555 1_555
O2 N3 1_555 1_555
O3 N3 1_555 1_555
N1 Cd1 1_555 1_555
N2 C23 1_555 1_555
N4 C25 1_555 1_555
C1 N1 1_555 1_555
C2 N1 1_555 1_555
C3 C1 1_555 1_555
C4 C2 1_555 1_555
C5 C3 1_555 1_555
C6 C5 1_555 1_555
C7 C6 1_555 1_555
C8 C7 1_555 1_555
C9 C7 1_555 1_555
C10 C8 1_555 1_555
C11 C9 1_555 1_555
C12 C10 1_555 1_555
C13 C12 1_555 1_555
C14 C13 1_555 1_555
C15 C13 1_555 1_555
C16 C14 1_555 1_555
C17 C15 1_555 1_555
C18 C16 1_555 1_555
C19 C18 1_555 1_555
C20 C19 1_555 1_555
C21 C20 1_555 1_555
C22 C20 1_555 1_555
C23 C21 1_555 1_555
C24 N2 1_555 1_555
C25 C26 1_555 1_555
C26 C27 1_555 1_555
C27 C28 1_555 1_555
C28 C29 1_555 1_555
C29 C30 1_555 1_555
C30 C25 1_555 1_555
C31 N4 1_555 1_555
H1 C31 1_555 1_555
H2 C31 1_555 1_555
H3 C31 1_555 1_555
C32 N4 1_555 1_555
H4 C32 1_555 1_555
H5 C32 1_555 1_555
H6 C32 1_555 1_555
H7 C1 1_555 1_555
H8 C2 1_555 1_555
H9 C3 1_555 1_555
H10 C4 1_555 1_555
H11 C6 1_555 1_555
H12 C6 1_555 1_555
H13 C19 1_555 1_555
H14 C19 1_555 1_555
H15 C21 1_555 1_555
H16 C22 1_555 1_555
H17 C23 1_555 1_555
H18 C24 1_555 1_555
H19 C26 1_555 1_555
H20 C27 1_555 1_555
H21 C28 1_555 1_555
H22 C29 1_555 1_555
H23 C30 1_555 1_555
Cd1F N2 1_555 1_555
Cd1F_2 N2A 1_555 1_555
F1A C8A 1_555 1_555
F2A C9A 1_555 1_555
F3A C10A 1_555 1_555
F4A C11A 1_555 1_555
F5A C14A 1_555 1_555
F6A C15A 1_555 1_555
F7A C16A 1_555 1_555
F8A C17A 1_555 1_555
O1A N3A 1_555 1_555
O2A Cd1 1_555 1_555
O3A N3A 1_555 1_555
N1A Cd1 1_555 1_555
N2A C23A 1_555 1_555
N2F Cd1 1_555 1_555
N2G Cd1 1_555 1_555
N3A O2A 1_555 1_555
C1A N1A 1_555 1_555
C2A N1A 1_555 1_555
C3A C1A 1_555 1_555
C4A C2A 1_555 1_555
C5A C3A 1_555 1_555
C6A C5A 1_555 1_555
C7A C6A 1_555 1_555
C8A C7A 1_555 1_555
C9A C7A 1_555 1_555
C10A C8A 1_555 1_555
C11A C9A 1_555 1_555
C12A C10A 1_555 1_555
C13A C12A 1_555 1_555
C14A C13A 1_555 1_555
C15A C13A 1_555 1_555
C16A C14A 1_555 1_555
C17A C15A 1_555 1_555
C18A C16A 1_555 1_555
C19A C18A 1_555 1_555
C20A C19A 1_555 1_555
C21A C20A 1_555 1_555
C22A C20A 1_555 1_555
C23A C21A 1_555 1_555
C24A N2A 1_555 1_555
H7A C1A 1_555 1_555
H8A C2A 1_555 1_555
H9A C3A 1_555 1_555
H10A C4A 1_555 1_555
H11A C6A 1_555 1_555
H12A C6A 1_555 1_555
H13A C19A 1_555 1_555
H14A C19A 1_555 1_555
H15A C21A 1_555 1_555
H16A C22A 1_555 1_555
H17A C23A 1_555 1_555
H18A C24A 1_555 1_555
C4 C5 1_555 1_555
C11 C12 1_555 1_555
C17 C18 1_555 1_555
C22 C24 1_555 1_555
C4A C5A 1_555 1_555
C11A C12A 1_555 1_555
C17A C18A 1_555 1_555
C22A C24A 1_555 1_555

#END
