
#######################################################################
#
#                 Cambridge Crystallographic Data Centre
#                                CCDC 
#
#######################################################################
#
# If this CIF has been generated from an entry in the Cambridge 
# Structural Database, then it will include bibliographic, chemical, 
# crystal, experimental, refinement or atomic coordinate data resulting 
# from the CCDC's data processing and validation procedures.
#
#######################################################################

data_MICQOF
_symmetry_cell_setting           orthorhombic
_symmetry_space_group_name_H-M   'P n n n'
_symmetry_Int_Tables_number      48
_space_group_name_Hall           '-P 2ab 2bc'
loop_
_symmetry_equiv_pos_site_id
_symmetry_equiv_pos_as_xyz
1 x,y,z
2 1/2-x,1/2-y,z
3 x,1/2-y,1/2-z
4 1/2-x,y,1/2-z
5 -x,-y,-z
6 1/2+x,1/2+y,-z
7 -x,1/2+y,1/2+z
8 1/2+x,-y,1/2+z
_cell_length_a                   13.451(5)
_cell_length_b                   15.719(5)
_cell_length_c                   26.935(5)
_cell_angle_alpha                90
_cell_angle_beta                 90
_cell_angle_gamma                90
_cell_volume                     5695.04
loop_
_atom_site_label
_atom_site_type_symbol
_atom_site_fract_x
_atom_site_fract_y
_atom_site_fract_z
N5 N 0.2500 0.2500 0.502(3)
C23 C 0.2500 0.2500 0.4070(12)
C24 C 0.340(2) 0.231(2) 0.4295(11)
C25 C 0.342(3) 0.226(2) 0.4801(13)
C26 C 0.2500 0.2500 0.355(2)
C27 C 0.332(3) 0.232(3) 0.3295(15)
C28 C 0.430(3) 0.215(3) 0.4011(17)
C29 C 0.412(4) 0.215(3) 0.362(2)
C24A C 0.160(2) 0.269(2) 0.4295(11)
C25A C 0.158(3) 0.274(2) 0.4801(13)
C27A C 0.168(3) 0.268(3) 0.3295(15)
C28A C 0.070(3) 0.285(3) 0.4011(17)
C29A C 0.088(4) 0.285(3) 0.362(2)
N6 N 0.400(2) 0.6994(17) 0.4262(11)
C30 C 0.2500 0.7500 0.4650(12)
C31 C 0.289(2) 0.741(2) 0.4195(12)
C32 C 0.2500 0.7500 0.3742(15)
C33 C 0.347(3) 0.722(2) 0.3726(14)
C34 C 0.350(3) 0.719(3) 0.4677(16)
C35 C 0.427(4) 0.691(3) 0.3795(19)
C36 C 0.424(4) 0.702(3) 0.4752(19)
N6A N 0.100(2) 0.8006(17) 0.4262(11)
C31A C 0.211(2) 0.759(2) 0.4195(12)
C33A C 0.153(3) 0.778(2) 0.3726(14)
C34A C 0.150(3) 0.781(3) 0.4677(16)
C35A C 0.073(4) 0.809(3) 0.3795(19)
C36A C 0.076(4) 0.798(3) 0.4752(19)
Cd1 Cd 0.2500 0.2500 0.7500
Cd2 Cd 0.7500 0.2500 0.2500
F1 F 0.3584(6) -0.0814(5) 0.5717(3)
F2 F 0.0971(5) 0.0290(5) 0.4780(3)
F3 F 0.4733(5) -0.0927(4) 0.4905(3)
F4 F 0.1167(5) 0.0518(5) 0.3857(3)
F5 F 0.4888(6) -0.0898(5) 0.3965(3)
F6 F 0.2284(6) 0.0295(6) 0.3045(3)
O1 O 0.4249(6) 0.2936(5) 0.7812(3)
O2 O 0.5637(10) 0.2500 0.7500
O3 O 0.6857(7) 0.2899(7) 0.3411(4)
O4 O 0.7500 0.2500 0.4100(5)
N1 N 0.2221(6) 0.1467(6) 0.6876(3)
N2 N 0.4722(11) 0.2500 0.7500
N3 N 0.6300(6) 0.1450(7) 0.2647(3)
N4 N 0.7500 0.2500 0.3653(5)
C1 C 0.2731(8) 0.1485(7) 0.6452(4)
H1 H 0.3246 0.1894 0.6417
C2 C 0.1501(8) 0.0887(7) 0.6927(4)
H2 H 0.1130 0.0870 0.7227
C3 C 0.2550(9) 0.0940(7) 0.6061(4)
H3 H 0.2930 0.0981 0.5765
C4 C 0.1281(9) 0.0308(8) 0.6552(4)
H4 H 0.0772 -0.0102 0.6600
C5 C 0.1803(9) 0.0328(8) 0.6106(4)
C6 C 0.1555(9) -0.0304(7) 0.5707(4)
H5 H 0.0857 -0.0213 0.5604
H6 H 0.1600 -0.0882 0.5850
C7 C 0.2205(9) -0.0272(7) 0.5247(4)
C8 C 0.3205(8) -0.0604(7) 0.5288(4)
C9 C 0.1904(8) -0.0074(8) 0.4811(5)
C10 C 0.3795(9) -0.0629(7) 0.4874(6)
C11 C 0.2495(9) -0.0060(7) 0.4351(4)
C12 C 0.3426(8) -0.0413(6) 0.4404(4)
C13 C 0.2101(9) 0.0166(8) 0.3894(5)
C14 C 0.3968(8) -0.0531(6) 0.3943(5)
C15 C 0.2658(9) 0.0092(8) 0.3479(4)
C16 C 0.3633(9) -0.0297(7) 0.3497(4)
C17 C 0.4178(9) -0.0467(8) 0.3020(4)
H7 H 0.4535 -0.1016 0.3049
H8 H 0.3688 -0.0523 0.2748
C18 C 0.4909(8) 0.0216(7) 0.2888(4)
C19 C 0.5799(9) 0.0286(8) 0.3140(5)
H9 H 0.5945 -0.0099 0.3402
C20 C 0.4746(8) 0.0782(9) 0.2508(5)
H10 H 0.4145 0.0757 0.2324
C21 C 0.6473(8) 0.0902(8) 0.3016(4)
H11 H 0.7078 0.0942 0.3197
C22 C 0.5457(9) 0.1387(9) 0.2394(4)
H12 H 0.5338 0.1768 0.2127
Cd2_2 Cd -0.2500 0.2500 0.2500
Cd2_3 Cd 0.7500 0.2500 1.2500
Cd2_4 Cd -0.2500 0.2500 1.2500
F1A F 0.1416(6) 0.5814(5) 0.5717(3)
F1B F 0.3584(6) 0.5814(5) 0.9283(3)
F1C F 0.1416(6) -0.0814(5) 0.9283(3)
F2A F 0.4029(5) 0.4710(5) 0.4780(3)
F2B F 0.0971(5) 0.4710(5) 1.0220(3)
F2C F 0.4029(5) 0.0290(5) 1.0220(3)
F3A F 0.0267(5) 0.5927(4) 0.4905(3)
F3B F 0.4733(5) 0.5927(4) 1.0095(3)
F3C F 0.0267(5) -0.0927(4) 1.0095(3)
F4A F 0.3833(5) 0.4482(5) 0.3857(3)
F4B F 0.1167(5) 0.4482(5) 1.1143(3)
F4C F 0.3833(5) 0.0518(5) 1.1143(3)
F5A F 0.0112(6) 0.5898(5) 0.3965(3)
F5B F 0.4888(6) 0.5898(5) 1.1035(3)
F5C F 0.0112(6) -0.0898(5) 1.1035(3)
F6A F 0.2716(6) 0.4705(6) 0.3045(3)
F6B F 0.2284(6) 0.4705(6) 1.1955(3)
F6C F 0.2716(6) 0.0295(6) 1.1955(3)
O1B O 0.4249(6) 0.2064(5) 0.7188(3)
O1A O 0.0751(6) 0.2064(5) 0.7812(3)
O1C O 0.0751(6) 0.2936(5) 0.7188(3)
O2A O -0.0637(10) 0.2500 0.7500
O3A O 0.8143(7) 0.2101(7) 0.3411(4)
O3B O 0.6857(7) 0.2101(7) 0.1589(4)
O3C O 0.8143(7) 0.2899(7) 0.1589(4)
O4B O 0.7500 0.2500 0.0900(5)
N1A N 0.2779(6) 0.3533(6) 0.6876(3)
N1B N 0.2221(6) 0.3533(6) 0.8124(3)
N1C N 0.2779(6) 0.1467(6) 0.8124(3)
N2A N 0.0278(11) 0.2500 0.7500
N3A N -0.1300(6) 0.3550(7) 0.2647(3)
N3B N 0.6300(6) 0.3550(7) 1.2353(3)
N3C N -0.1300(6) 0.1450(7) 1.2353(3)
N3A_2 N 0.8700(6) 0.3550(7) 0.2647(3)
N3B_2 N 0.6300(6) 0.3550(7) 0.2353(3)
N3C_2 N 0.8700(6) 0.1450(7) 0.2353(3)
N4B N 0.7500 0.2500 0.1347(5)
C1A C 0.2269(8) 0.3515(7) 0.6452(4)
C1B C 0.2731(8) 0.3515(7) 0.8548(4)
C1C C 0.2269(8) 0.1485(7) 0.8548(4)
H1A H 0.1754 0.3106 0.6417
H1B H 0.3246 0.3106 0.8583
H1C H 0.1754 0.1894 0.8583
C2A C 0.3499(8) 0.4113(7) 0.6927(4)
C2B C 0.1501(8) 0.4113(7) 0.8073(4)
C2C C 0.3499(8) 0.0887(7) 0.8073(4)
H2A H 0.3870 0.4130 0.7227
H2B H 0.1130 0.4130 0.7773
H2C H 0.3870 0.0870 0.7773
C3A C 0.2450(9) 0.4060(7) 0.6061(4)
C3B C 0.2550(9) 0.4060(7) 0.8939(4)
C3C C 0.2450(9) 0.0940(7) 0.8939(4)
H3A H 0.2070 0.4019 0.5765
H3B H 0.2930 0.4019 0.9235
H3C H 0.2070 0.0981 0.9235
C4A C 0.3719(9) 0.4692(8) 0.6552(4)
C4B C 0.1281(9) 0.4692(8) 0.8448(4)
C4C C 0.3719(9) 0.0308(8) 0.8448(4)
H4A H 0.4228 0.5102 0.6600
H4B H 0.0772 0.5102 0.8400
H4C H 0.4228 -0.0102 0.8400
C5A C 0.3197(9) 0.4672(8) 0.6106(4)
C5B C 0.1803(9) 0.4672(8) 0.8894(4)
C5C C 0.3197(9) 0.0328(8) 0.8894(4)
C6A C 0.3445(9) 0.5304(7) 0.5707(4)
C6B C 0.1555(9) 0.5304(7) 0.9293(4)
C6C C 0.3445(9) -0.0304(7) 0.9293(4)
H5A H 0.4143 0.5213 0.5604
H5B H 0.0857 0.5213 0.9396
H5C H 0.4143 -0.0213 0.9396
H6A H 0.3400 0.5882 0.5850
H6B H 0.1600 0.5882 0.9150
H6C H 0.3400 -0.0882 0.9150
C7A C 0.2795(9) 0.5272(7) 0.5247(4)
C7B C 0.2205(9) 0.5272(7) 0.9753(4)
C7C C 0.2795(9) -0.0272(7) 0.9753(4)
C8A C 0.1795(8) 0.5604(7) 0.5288(4)
C8B C 0.3205(8) 0.5604(7) 0.9712(4)
C8C C 0.1795(8) -0.0604(7) 0.9712(4)
C9A C 0.3096(8) 0.5074(8) 0.4811(5)
C9B C 0.1904(8) 0.5074(8) 1.0189(5)
C9C C 0.3096(8) -0.0074(8) 1.0189(5)
C10A C 0.1205(9) 0.5629(7) 0.4874(6)
C10B C 0.3795(9) 0.5629(7) 1.0126(6)
C10C C 0.1205(9) -0.0629(7) 1.0126(6)
C11A C 0.2505(9) 0.5060(7) 0.4351(4)
C11B C 0.2495(9) 0.5060(7) 1.0649(4)
C11C C 0.2505(9) -0.0060(7) 1.0649(4)
C12A C 0.1574(8) 0.5413(6) 0.4404(4)
C12B C 0.3426(8) 0.5413(6) 1.0596(4)
C12C C 0.1574(8) -0.0413(6) 1.0596(4)
C13A C 0.2899(9) 0.4834(8) 0.3894(5)
C13B C 0.2101(9) 0.4834(8) 1.1106(5)
C13C C 0.2899(9) 0.0166(8) 1.1106(5)
C14A C 0.1032(8) 0.5531(6) 0.3943(5)
C14B C 0.3968(8) 0.5531(6) 1.1057(5)
C14C C 0.1032(8) -0.0531(6) 1.1057(5)
C15A C 0.2342(9) 0.4908(8) 0.3479(4)
C15B C 0.2658(9) 0.4908(8) 1.1521(4)
C15C C 0.2342(9) 0.0092(8) 1.1521(4)
C16A C 0.1367(9) 0.5297(7) 0.3497(4)
C16B C 0.3633(9) 0.5297(7) 1.1503(4)
C16C C 0.1367(9) -0.0297(7) 1.1503(4)
C17A C 0.0822(9) 0.5467(8) 0.3020(4)
C17B C 0.4178(9) 0.5467(8) 1.1980(4)
C17C C 0.0822(9) -0.0467(8) 1.1980(4)
H7A H 0.0465 0.6016 0.3049
H7B H 0.4535 0.6016 1.1951
H7C H 0.0465 -0.1016 1.1951
H8A H 0.1312 0.5523 0.2748
H8B H 0.3688 0.5523 1.2252
H8C H 0.1312 -0.0523 1.2252
C18A C 0.0091(8) 0.4784(7) 0.2888(4)
C18B C 0.4909(8) 0.4784(7) 1.2112(4)
C18C C 0.0091(8) 0.0216(7) 1.2112(4)
C19A C -0.0799(9) 0.4714(8) 0.3140(5)
C19B C 0.5799(9) 0.4714(8) 1.1860(5)
C19C C -0.0799(9) 0.0286(8) 1.1860(5)
H9A H -0.0945 0.5099 0.3402
H9B H 0.5945 0.5099 1.1598
H9C H -0.0945 -0.0099 1.1598
C20A C 0.0254(8) 0.4218(9) 0.2508(5)
C20B C 0.4746(8) 0.4218(9) 1.2492(5)
C20C C 0.0254(8) 0.0782(9) 1.2492(5)
H10A H 0.0855 0.4243 0.2324
H10B H 0.4145 0.4243 1.2676
H10C H 0.0855 0.0757 1.2676
C21A C -0.1473(8) 0.4098(8) 0.3016(4)
C21B C 0.6473(8) 0.4098(8) 1.1984(4)
C21C C -0.1473(8) 0.0902(8) 1.1984(4)
H11A H -0.2078 0.4058 0.3197
H11B H 0.7078 0.4058 1.1803
H11C H -0.2078 0.0942 1.1803
C22A C -0.0457(9) 0.3613(9) 0.2394(4)
C22B C 0.5457(9) 0.3613(9) 1.2606(4)
C22C C -0.0457(9) 0.1387(9) 1.2606(4)
H12A H -0.0338 0.3232 0.2127
H12B H 0.5338 0.3232 1.2873
H12C H -0.0338 0.1768 1.2873
loop_
_geom_bond_atom_site_label_1
_geom_bond_atom_site_label_2
_geom_bond_site_symmetry_1
_geom_bond_site_symmetry_2
Cd1 O1 1_555 1_555
Cd2 O3 1_555 1_555
F1 C8 1_555 1_555
F2 C9 1_555 1_555
F3 C10 1_555 1_555
F4 C13 1_555 1_555
F5 C14 1_555 1_555
F6 C15 1_555 1_555
O1 N2 1_555 1_555
O2 N2 1_555 1_555
O3 N4 1_555 1_555
O4 N4 1_555 1_555
N1 Cd1 1_555 1_555
N2 O1B 1_555 1_555
N3 Cd2 1_555 1_555
N4 O3A 1_555 1_555
C1 N1 1_555 1_555
H1 C1 1_555 1_555
C2 N1 1_555 1_555
H2 C2 1_555 1_555
C3 C1 1_555 1_555
H3 C3 1_555 1_555
C4 C2 1_555 1_555
H4 C4 1_555 1_555
C5 C3 1_555 1_555
C6 C5 1_555 1_555
H5 C6 1_555 1_555
H6 C6 1_555 1_555
C7 C6 1_555 1_555
C8 C7 1_555 1_555
C9 C7 1_555 1_555
C10 C8 1_555 1_555
C11 C9 1_555 1_555
C12 C10 1_555 1_555
C13 C11 1_555 1_555
C14 C12 1_555 1_555
C15 C13 1_555 1_555
C16 C14 1_555 1_555
C17 C16 1_555 1_555
H7 C17 1_555 1_555
H8 C17 1_555 1_555
C18 C17 1_555 1_555
C19 C18 1_555 1_555
H9 C19 1_555 1_555
C20 C18 1_555 1_555
H10 C20 1_555 1_555
C21 N3 1_555 1_555
H11 C21 1_555 1_555
C22 N3 1_555 1_555
H12 C22 1_555 1_555
N5 C25 1_555 1_555
N6 C31 1_555 1_555
C23 C24 1_555 1_555
C24 C25 1_555 1_555
C26 C23 1_555 1_555
C27 C26 1_555 1_555
C28 C24 1_555 1_555
C29 C27 1_555 1_555
C30 C31 1_555 1_555
C31 C32 1_555 1_555
C32 C33 1_555 1_555
C33 N6 1_555 1_555
C34 N6 1_555 1_555
C35 N6 1_555 1_555
C36 N6 1_555 1_555
Cd2_2 N3A 1_555 1_555
Cd2_3 N3B 1_555 1_555
Cd2_4 N3C 1_555 1_555
F1A C8A 1_555 1_555
F1B C8B 1_555 1_555
F1C C8C 1_555 1_555
F2A C9A 1_555 1_555
F2B C9B 1_555 1_555
F2C C9C 1_555 1_555
F3A C10A 1_555 1_555
F3B C10B 1_555 1_555
F3C C10C 1_555 1_555
F4A C13A 1_555 1_555
F4B C13B 1_555 1_555
F4C C13C 1_555 1_555
F5A C14A 1_555 1_555
F5B C14B 1_555 1_555
F5C C14C 1_555 1_555
F6A C15A 1_555 1_555
F6B C15B 1_555 1_555
F6C C15C 1_555 1_555
O1B Cd1 1_555 1_555
O1A Cd1 1_555 1_555
O1C Cd1 1_555 1_555
O2A N2A 1_555 1_555
O3A Cd2 1_555 1_555
O3B Cd2 1_555 1_555
O3C Cd2 1_555 1_555
O4B N4B 1_555 1_555
N1A Cd1 1_555 1_555
N1B Cd1 1_555 1_555
N1C Cd1 1_555 1_555
N2A O1A 1_555 1_555
N3A C21A 1_555 1_555
N3B C21B 1_555 1_555
N3C C21C 1_555 1_555
N3A_2 Cd2 1_555 1_555
N3B_2 Cd2 1_555 1_555
N3C_2 Cd2 1_555 1_555
N4B O3B 1_555 1_555
C1A N1A 1_555 1_555
C1B N1B 1_555 1_555
C1C N1C 1_555 1_555
H1A C1A 1_555 1_555
H1B C1B 1_555 1_555
H1C C1C 1_555 1_555
C2A N1A 1_555 1_555
C2B N1B 1_555 1_555
C2C N1C 1_555 1_555
H2A C2A 1_555 1_555
H2B C2B 1_555 1_555
H2C C2C 1_555 1_555
C3A C1A 1_555 1_555
C3B C1B 1_555 1_555
C3C C1C 1_555 1_555
H3A C3A 1_555 1_555
H3B C3B 1_555 1_555
H3C C3C 1_555 1_555
C4A C2A 1_555 1_555
C4B C2B 1_555 1_555
C4C C2C 1_555 1_555
H4A C4A 1_555 1_555
H4B C4B 1_555 1_555
H4C C4C 1_555 1_555
C5A C3A 1_555 1_555
C5B C3B 1_555 1_555
C5C C3C 1_555 1_555
C6A C5A 1_555 1_555
C6B C5B 1_555 1_555
C6C C5C 1_555 1_555
H5A C6A 1_555 1_555
H5B C6B 1_555 1_555
H5C C6C 1_555 1_555
H6A C6A 1_555 1_555
H6B C6B 1_555 1_555
H6C C6C 1_555 1_555
C7A C6A 1_555 1_555
C7B C6B 1_555 1_555
C7C C6C 1_555 1_555
C8A C7A 1_555 1_555
C8B C7B 1_555 1_555
C8C C7C 1_555 1_555
C9A C7A 1_555 1_555
C9B C7B 1_555 1_555
C9C C7C 1_555 1_555
C10A C8A 1_555 1_555
C10B C8B 1_555 1_555
C10C C8C 1_555 1_555
C11A C9A 1_555 1_555
C11B C9B 1_555 1_555
C11C C9C 1_555 1_555
C12A C10A 1_555 1_555
C12B C10B 1_555 1_555
C12C C10C 1_555 1_555
C13A C11A 1_555 1_555
C13B C11B 1_555 1_555
C13C C11C 1_555 1_555
C14A C12A 1_555 1_555
C14B C12B 1_555 1_555
C14C C12C 1_555 1_555
C15A C13A 1_555 1_555
C15B C13B 1_555 1_555
C15C C13C 1_555 1_555
C16A C14A 1_555 1_555
C16B C14B 1_555 1_555
C16C C14C 1_555 1_555
C17A C16A 1_555 1_555
C17B C16B 1_555 1_555
C17C C16C 1_555 1_555
H7A C17A 1_555 1_555
H7B C17B 1_555 1_555
H7C C17C 1_555 1_555
H8A C17A 1_555 1_555
H8B C17B 1_555 1_555
H8C C17C 1_555 1_555
C18A C17A 1_555 1_555
C18B C17B 1_555 1_555
C18C C17C 1_555 1_555
C19A C18A 1_555 1_555
C19B C18B 1_555 1_555
C19C C18C 1_555 1_555
H9A C19A 1_555 1_555
H9B C19B 1_555 1_555
H9C C19C 1_555 1_555
C20A C18A 1_555 1_555
C20B C18B 1_555 1_555
C20C C18C 1_555 1_555
H10A C20A 1_555 1_555
H10B C20B 1_555 1_555
H10C C20C 1_555 1_555
C21A C19A 1_555 1_555
C21B C19B 1_555 1_555
C21C C19C 1_555 1_555
H11A C21A 1_555 1_555
H11B C21B 1_555 1_555
H11C C21C 1_555 1_555
C22A N3A 1_555 1_555
C22B N3B 1_555 1_555
C22C N3C 1_555 1_555
H12A C22A 1_555 1_555
H12B C22B 1_555 1_555
H12C C22C 1_555 1_555
N6A C31A 1_555 1_555
C24A C23 1_555 1_555
C25A N5 1_555 1_555
C27A C26 1_555 1_555
C28A C24A 1_555 1_555
C29A C27A 1_555 1_555
C31A C30 1_555 1_555
C33A C32 1_555 1_555
C34A C30 1_555 1_555
C35A N6A 1_555 1_555
C36A N6A 1_555 1_555
C4 C5 1_555 1_555
C11 C12 1_555 1_555
C15 C16 1_555 1_555
C19 C21 1_555 1_555
C20 C22 1_555 1_555
C28 C29 1_555 1_555
C30 C34 1_555 1_555
C31 C33 1_555 1_555
C31 C34 1_555 1_555
C31 C31A 1_555 1_555
C32 C31A 1_555 1_555
C33 C35 1_555 1_555
C34 C36 1_555 1_555
O1C N2A 1_555 1_555
O3C N4B 1_555 1_555
C4A C5A 1_555 1_555
C4B C5B 1_555 1_555
C4C C5C 1_555 1_555
C11A C12A 1_555 1_555
C11B C12B 1_555 1_555
C11C C12C 1_555 1_555
C15A C16A 1_555 1_555
C15B C16B 1_555 1_555
C15C C16C 1_555 1_555
C20A C22A 1_555 1_555
C20B C22B 1_555 1_555
C20C C22C 1_555 1_555
N6A C33A 1_555 1_555
N6A C34A 1_555 1_555
C24A C25A 1_555 1_555
C28A C29A 1_555 1_555
C31A C33A 1_555 1_555
C31A C34A 1_555 1_555
C33A C35A 1_555 1_555
C34A C36A 1_555 1_555

#END
