
#######################################################################
#
#                 Cambridge Crystallographic Data Centre
#                                CCDC 
#
#######################################################################
#
# If this CIF has been generated from an entry in the Cambridge 
# Structural Database, then it will include bibliographic, chemical, 
# crystal, experimental, refinement or atomic coordinate data resulting 
# from the CCDC's data processing and validation procedures.
#
#######################################################################

data_MICREW
_symmetry_cell_setting           triclinic
_symmetry_space_group_name_H-M   'P -1'
_symmetry_Int_Tables_number      2
_space_group_name_Hall           '-P 1'
loop_
_symmetry_equiv_pos_site_id
_symmetry_equiv_pos_as_xyz
1 x,y,z
2 -x,-y,-z
_cell_length_a                   11.0195(16)
_cell_length_b                   12.3205(18)
_cell_length_c                   13.694(2)
_cell_angle_alpha                109.396(3)
_cell_angle_beta                 96.894(3)
_cell_angle_gamma                97.120(3)
_cell_volume                     1714.14
loop_
_atom_site_label
_atom_site_type_symbol
_atom_site_fract_x
_atom_site_fract_y
_atom_site_fract_z
Cd1 Cd 0.99965(2) 0.290179(19) 0.214209(17)
F1 F 0.3850(4) 0.4748(4) 0.1198(3)
F2 F 0.5678(4) 0.7296(3) 0.4441(3)
F3 F 0.3826(3) 0.6456(3) 0.0375(2)
F4 F 0.6063(4) 0.9376(4) 0.4814(3)
F5 F 0.4279(3) 0.8596(4) 0.0576(3)
F6 F 0.6179(4) 1.1144(4) 0.3941(5)
F7 F 0.79750(19) -0.04900(19) -0.38607(16)
F8 F 0.8485(2) -0.23046(19) -0.52192(18)
F9 F 1.0052(2) 0.32192(19) -0.34430(19)
O1 O 0.8718(3) 0.0921(3) 0.1665(2)
O2 O 0.9641(3) 0.1800(3) 0.3256(2)
O3 O 0.8403(4) 0.0150(3) 0.2837(3)
O4 O 1.1244(3) 0.4772(2) 0.2328(2)
O5 O 1.1133(3) 0.4345(2) 0.3729(2)
O6 O 1.2379(3) 0.5902(3) 0.3821(3)
N1 N 0.8225(3) 0.3631(3) 0.2556(2)
N2 N 0.1846(3) 1.2203(2) 0.1996(3)
N3 N 0.9433(3) 0.2548(2) 0.0346(2)
N4 N 1.1607(3) 0.5032(3) 0.3307(2)
N5 N 0.8912(3) 0.0946(3) 0.2592(3)
C1 C 0.7232(3) 0.3375(3) 0.1813(3)
H2 H 0.7283 0.2898 0.1118
C2 C 0.8130(4) 0.4286(4) 0.3531(3)
H3 H 0.8831 0.4480 0.4073
C3 C 0.6131(3) 0.3765(3) 0.1994(3)
H4 H 0.5454 0.3574 0.1432
C4 C 0.7049(4) 0.4695(4) 0.3784(3)
H5 H 0.7014 0.5149 0.4489
C5 C 0.6022(3) 0.4439(3) 0.3005(3)
C6 C 0.4843(3) 0.4916(3) 0.3228(3)
H6 H 0.4113 0.4313 0.2819
H7 H 0.4799 0.5117 0.3983
C7 C 0.4822(3) 0.5993(3) 0.2931(4)
C8 C 0.4309(4) 0.5781(4) 0.1803(5)
C9 C 0.5232(5) 0.7084(5) 0.3474(5)
C10 C 0.4248(5) 0.6645(5) 0.1403(4)
C11 C 0.5212(4) 0.8145(4) 0.3112(3)
C12 C 0.4721(4) 0.7702(6) 0.2046(4)
C13 C 0.5704(6) 0.9220(6) 0.3707(5)
C14 C 0.4707(4) 0.8735(4) 0.1557(5)
C15 C 0.5721(4) 1.0149(4) 0.3527(7)
C16 C 0.5176(4) 0.9812(4) 0.2222(4)
C17 C 0.5277(4) 1.0865(4) 0.1921(5)
H8 H 0.5492 1.0664 0.1209
H9 H 0.5955 1.1472 0.2416
C18 C 0.4074(3) 1.1357(3) 0.1931(4)
C19 C 0.3635(4) 1.1776(3) 0.2866(3)
H10 H 0.4092 1.1782 0.3503
C20 C 0.3394(4) 1.1396(4) 0.1042(4)
H11 H 0.3677 1.1127 0.0389
C21 C 0.2518(3) 1.2187(3) 0.2865(3)
H12 H 0.2221 1.2469 0.3510
C22 C 0.2292(4) 1.1829(4) 0.1097(3)
H13 H 0.1837 1.1861 0.0475
C23 C 0.9315(3) 0.3430(3) -0.0006(3)
H14 H 0.9529 0.4208 0.0483
C24 C 0.9143(4) 0.1461(3) -0.0358(3)
H15 H 0.9222 0.0825 -0.0123
C25 C 0.8896(3) 0.3259(3) -0.1042(3)
H16 H 0.8821 0.3911 -0.1255
C26 C 0.8735(4) 0.1224(3) -0.1408(3)
H17 H 0.8554 0.0439 -0.1883
C27 C 0.8585(3) 0.2130(3) -0.1777(3)
C28 C 0.8090(3) 0.1907(3) -0.2914(3)
H18 H 0.7958 0.2656 -0.2992
H19 H 0.7274 0.1383 -0.3118
C29 C 0.8943(3) 0.1360(3) -0.3661(2)
C30 C 0.8823(3) 0.0190(3) -0.4126(2)
C31 C 0.9532(3) -0.0366(3) -0.4878(2)
C32 C 0.9383(3) -0.1581(3) -0.5391(3)
C33 C 0.9879(3) 0.2047(3) -0.3915(3)
Cd1_2 Cd 1.99965(2) -0.709821(19) 0.214209(17)
Cd1_3 Cd -0.00035(2) 1.290179(19) 0.214209(17)
Cd1A Cd 1.00035(2) -0.290179(19) -1.214209(17)
F1_2 F 1.3850(4) -0.5252(4) 0.1198(3)
F2_2 F 1.5678(4) -0.2704(3) 0.4441(3)
F3_2 F 1.3826(3) -0.3544(3) 0.0375(2)
F4_2 F 1.6063(4) -0.0624(4) 0.4814(3)
F5_2 F 1.4279(3) -0.1404(4) 0.0576(3)
F6_2 F 1.6179(4) 0.1144(4) 0.3941(5)
F7A F 1.20250(19) 0.04900(19) -0.61393(16)
F8A F 1.1515(2) 0.23046(19) -0.47808(18)
F9A F 0.9948(2) -0.32192(19) -0.65570(19)
O1_2 O 1.8718(3) -0.9079(3) 0.1665(2)
O2_2 O 1.9641(3) -0.8200(3) 0.3256(2)
O3_2 O 1.8403(4) -0.9850(3) 0.2837(3)
O4_2 O 2.1244(3) -0.5228(2) 0.2328(2)
O5_2 O 2.1133(3) -0.5655(2) 0.3729(2)
O6_2 O 2.2379(3) -0.4098(3) 0.3821(3)
N1_2 N 1.8225(3) -0.6369(3) 0.2556(2)
N2_2 N 1.1846(3) 0.2203(2) 0.1996(3)
N2_3 N 2.1846(3) -0.7797(2) 0.1996(3)
N3A N 1.0567(3) -0.2548(2) -1.0346(2)
N3_2 N 1.9433(3) -0.7452(2) 0.0346(2)
N4_2 N 2.1607(3) -0.4968(3) 0.3307(2)
N5_2 N 1.8912(3) -0.9054(3) 0.2592(3)
C1_2 C 1.7232(3) -0.6625(3) 0.1813(3)
H2_2 H 1.7283 -0.7102 0.1118
C2_2 C 1.8130(4) -0.5714(4) 0.3531(3)
H3_2 H 1.8831 -0.5520 0.4073
C3_2 C 1.6131(3) -0.6235(3) 0.1994(3)
H4_2 H 1.5454 -0.6426 0.1432
C4_2 C 1.7049(4) -0.5305(4) 0.3784(3)
H5_2 H 1.7014 -0.4851 0.4489
C5_2 C 1.6022(3) -0.5561(3) 0.3005(3)
C6_2 C 1.4843(3) -0.5084(3) 0.3228(3)
H6_2 H 1.4113 -0.5687 0.2819
H7_2 H 1.4799 -0.4883 0.3983
C7_2 C 1.4822(3) -0.4007(3) 0.2931(4)
C8_2 C 1.4309(4) -0.4219(4) 0.1803(5)
C9_2 C 1.5232(5) -0.2916(5) 0.3474(5)
C10_2 C 1.4248(5) -0.3355(5) 0.1403(4)
C11_2 C 1.5212(4) -0.1855(4) 0.3112(3)
C12_2 C 1.4721(4) -0.2298(6) 0.2046(4)
C13_2 C 1.5704(6) -0.0780(6) 0.3707(5)
C14_2 C 1.4707(4) -0.1265(4) 0.1557(5)
C15_2 C 1.5721(4) 0.0149(4) 0.3527(7)
C16_2 C 1.5176(4) -0.0188(4) 0.2222(4)
C17_2 C 1.5277(4) 0.0865(4) 0.1921(5)
H8_2 H 1.5492 0.0664 0.1209
H9_2 H 1.5955 0.1472 0.2416
C18_2 C 1.4074(3) 0.1357(3) 0.1931(4)
C19_2 C 1.3635(4) 0.1776(3) 0.2866(3)
H10_2 H 1.4092 0.1782 0.3503
C20_2 C 1.3394(4) 0.1396(4) 0.1042(4)
H11_2 H 1.3677 0.1127 0.0389
C21_2 C 1.2518(3) 0.2187(3) 0.2865(3)
H12_2 H 1.2221 0.2469 0.3510
C22_2 C 1.2292(4) 0.1829(4) 0.1097(3)
H13_2 H 1.1837 0.1861 0.0475
C23A C 1.0685(3) -0.3430(3) -0.9994(3)
H14A H 1.0471 -0.4208 -1.0483
C24A C 1.0857(4) -0.1461(3) -0.9642(3)
H15A H 1.0778 -0.0825 -0.9877
C25A C 1.1104(3) -0.3259(3) -0.8958(3)
H16A H 1.1179 -0.3911 -0.8745
C26A C 1.1265(4) -0.1224(3) -0.8592(3)
H17A H 1.1446 -0.0439 -0.8117
C27A C 1.1415(3) -0.2130(3) -0.8223(3)
C28A C 1.1910(3) -0.1907(3) -0.7086(3)
H18A H 1.2042 -0.2656 -0.7008
H19A H 1.2726 -0.1383 -0.6882
C29A C 1.1057(3) -0.1360(3) -0.6339(2)
C30A C 1.1177(3) -0.0190(3) -0.5874(2)
C31A C 1.0468(3) 0.0366(3) -0.5122(2)
C32A C 1.0617(3) 0.1581(3) -0.4609(3)
C33A C 1.0121(3) -0.2047(3) -0.6085(3)
O7 O 0.7340(3) 0.8061(3) 0.1146(3)
H1 H 0.7544 0.8772 0.1519
C34 C 0.7908(6) 0.7389(6) 0.1655(7)
H20 H 0.8817 0.7588 0.1705
H21 H 0.7731 0.7630 0.2381
C35 C 0.7583(7) 0.6232(6) 0.1222(9)
H22 H 0.8003 0.5867 0.1670
H23 H 0.7825 0.5964 0.0527
H24 H 0.6682 0.6014 0.1150
loop_
_geom_bond_atom_site_label_1
_geom_bond_atom_site_label_2
_geom_bond_site_symmetry_1
_geom_bond_site_symmetry_2
Cd1 O1 1_555 1_555
F1 C8 1_555 1_555
F2 C9 1_555 1_555
F3 C10 1_555 1_555
F4 C13 1_555 1_555
F5 C14 1_555 1_555
F6 C15 1_555 1_555
F7 C30 1_555 1_555
F8 C32 1_555 1_555
F9 C33 1_555 1_555
O1 N5 1_555 1_555
O2 Cd1 1_555 1_555
O3 N5 1_555 1_555
O4 Cd1 1_555 1_555
O5 Cd1 1_555 1_555
O6 N4 1_555 1_555
O7 H1 1_555 1_555
N1 Cd1 1_555 1_555
N2 C21 1_555 1_555
N3 Cd1 1_555 1_555
N4 O4 1_555 1_555
N5 O2 1_555 1_555
C1 N1 1_555 1_555
H2 C1 1_555 1_555
C2 N1 1_555 1_555
H3 C2 1_555 1_555
C3 C1 1_555 1_555
H4 C3 1_555 1_555
C4 C2 1_555 1_555
H5 C4 1_555 1_555
C5 C3 1_555 1_555
C6 C5 1_555 1_555
H6 C6 1_555 1_555
H7 C6 1_555 1_555
C7 C6 1_555 1_555
C8 C7 1_555 1_555
C9 C7 1_555 1_555
C10 C8 1_555 1_555
C11 C9 1_555 1_555
C12 C10 1_555 1_555
C13 C11 1_555 1_555
C14 C12 1_555 1_555
C15 C13 1_555 1_555
C16 C14 1_555 1_555
C17 C16 1_555 1_555
H8 C17 1_555 1_555
H9 C17 1_555 1_555
C18 C17 1_555 1_555
C19 C18 1_555 1_555
H10 C19 1_555 1_555
C20 C18 1_555 1_555
H11 C20 1_555 1_555
C21 C19 1_555 1_555
H12 C21 1_555 1_555
C22 N2 1_555 1_555
H13 C22 1_555 1_555
C23 N3 1_555 1_555
H14 C23 1_555 1_555
C24 N3 1_555 1_555
H15 C24 1_555 1_555
C25 C23 1_555 1_555
H16 C25 1_555 1_555
C26 C24 1_555 1_555
H17 C26 1_555 1_555
C27 C25 1_555 1_555
C28 C27 1_555 1_555
H18 C28 1_555 1_555
H19 C28 1_555 1_555
C29 C28 1_555 1_555
C30 C29 1_555 1_555
C31 C30 1_555 1_555
C32 C31 1_555 1_555
C33 C29 1_555 1_555
C34 O7 1_555 1_555
H20 C34 1_555 1_555
H21 C34 1_555 1_555
C35 C34 1_555 1_555
H22 C35 1_555 1_555
H23 C35 1_555 1_555
H24 C35 1_555 1_555
Cd1_2 O1_2 1_555 1_555
Cd1_3 N2 1_555 1_555
Cd1A N3A 1_555 1_555
F1_2 C8_2 1_555 1_555
F2_2 C9_2 1_555 1_555
F3_2 C10_2 1_555 1_555
F4_2 C13_2 1_555 1_555
F5_2 C14_2 1_555 1_555
F6_2 C15_2 1_555 1_555
F7A C30A 1_555 1_555
F8A C32A 1_555 1_555
F9A C33A 1_555 1_555
O1_2 N5_2 1_555 1_555
O2_2 Cd1_2 1_555 1_555
O3_2 N5_2 1_555 1_555
O4_2 Cd1_2 1_555 1_555
O5_2 Cd1_2 1_555 1_555
O6_2 N4_2 1_555 1_555
N1_2 Cd1_2 1_555 1_555
N2_2 Cd1 1_555 1_555
N2_3 Cd1_2 1_555 1_555
N3A C23A 1_555 1_555
N3_2 Cd1_2 1_555 1_555
N4_2 O4_2 1_555 1_555
N5_2 O2_2 1_555 1_555
C1_2 N1_2 1_555 1_555
H2_2 C1_2 1_555 1_555
C2_2 N1_2 1_555 1_555
H3_2 C2_2 1_555 1_555
C3_2 C1_2 1_555 1_555
H4_2 C3_2 1_555 1_555
C4_2 C2_2 1_555 1_555
H5_2 C4_2 1_555 1_555
C5_2 C3_2 1_555 1_555
C6_2 C5_2 1_555 1_555
H6_2 C6_2 1_555 1_555
H7_2 C6_2 1_555 1_555
C7_2 C6_2 1_555 1_555
C8_2 C7_2 1_555 1_555
C9_2 C7_2 1_555 1_555
C10_2 C8_2 1_555 1_555
C11_2 C9_2 1_555 1_555
C12_2 C10_2 1_555 1_555
C13_2 C11_2 1_555 1_555
C14_2 C12_2 1_555 1_555
C15_2 C13_2 1_555 1_555
C16_2 C14_2 1_555 1_555
C17_2 C16_2 1_555 1_555
H8_2 C17_2 1_555 1_555
H9_2 C17_2 1_555 1_555
C18_2 C17_2 1_555 1_555
C19_2 C18_2 1_555 1_555
H10_2 C19_2 1_555 1_555
C20_2 C18_2 1_555 1_555
H11_2 C20_2 1_555 1_555
C21_2 N2_2 1_555 1_555
H12_2 C21_2 1_555 1_555
C22_2 N2_2 1_555 1_555
H13_2 C22_2 1_555 1_555
C23A H14A 1_555 1_555
C24A N3A 1_555 1_555
H15A C24A 1_555 1_555
C25A C23A 1_555 1_555
H16A C25A 1_555 1_555
C26A C24A 1_555 1_555
H17A C26A 1_555 1_555
C27A C25A 1_555 1_555
C28A C27A 1_555 1_555
H18A C28A 1_555 1_555
H19A C28A 1_555 1_555
C29A C28A 1_555 1_555
C30A C29A 1_555 1_555
C31A C31 1_555 1_555
C32A C33 1_555 1_555
C33A C32 1_555 1_555
O5 N4 1_555 1_555
C4 C5 1_555 1_555
C11 C12 1_555 1_555
C15 C16 1_555 1_555
C20 C22 1_555 1_555
C26 C27 1_555 1_555
O5_2 N4_2 1_555 1_555
C4_2 C5_2 1_555 1_555
C11_2 C12_2 1_555 1_555
C15_2 C16_2 1_555 1_555
C19_2 C21_2 1_555 1_555
C20_2 C22_2 1_555 1_555
C26A C27A 1_555 1_555
C29A C33A 1_555 1_555
C30A C31A 1_555 1_555
C31A C32A 1_555 1_555

#END
