
#######################################################################
#
#                 Cambridge Crystallographic Data Centre
#                                CCDC 
#
#######################################################################
#
# If this CIF has been generated from an entry in the Cambridge 
# Structural Database, then it will include bibliographic, chemical, 
# crystal, experimental, refinement or atomic coordinate data resulting 
# from the CCDC's data processing and validation procedures.
#
#######################################################################

data_MICROG
_symmetry_cell_setting           monoclinic
_symmetry_space_group_name_H-M   'C 2/c'
_symmetry_Int_Tables_number      15
_space_group_name_Hall           '-C 2yn'
loop_
_symmetry_equiv_pos_site_id
_symmetry_equiv_pos_as_xyz
1 x,y,z
2 1/2+x,1/2+y,z
3 -x,y,1/2-z
4 1/2-x,1/2+y,1/2-z
5 -x,-y,-z
6 1/2-x,1/2-y,-z
7 x,-y,1/2+z
8 1/2+x,1/2-y,1/2+z
_cell_length_a                   28.8753(16)
_cell_length_b                   13.9207(8)
_cell_length_c                   15.2183(9)
_cell_angle_alpha                90
_cell_angle_beta                 111.8580(10)
_cell_angle_gamma                90
_cell_volume                     5677.44
loop_
_atom_site_label
_atom_site_type_symbol
_atom_site_fract_x
_atom_site_fract_y
_atom_site_fract_z
O4 O 0.84102(19) 0.6978(4) 0.7509(4)
O5 O 0.87442(17) 0.6257(4) 0.8926(3)
C23 C 0.7899(2) 0.6642(4) 0.8398(5)
C24 C 0.7454(2) 0.6879(4) 0.7658(6)
H13 H 0.7459 0.7035 0.7053
C25 C 0.7008(3) 0.6890(4) 0.7798(7)
H14 H 0.6709 0.7054 0.7288
C26 C 0.6994(3) 0.6675(5) 0.8635(8)
H15 H 0.6684 0.6694 0.8719
C27 C 0.7428(3) 0.6418(5) 0.9399(7)
H16 H 0.7413 0.6251 0.9994
C28 C 0.7883(3) 0.6411(4) 0.9273(5)
H17 H 0.8181 0.6248 0.9786
C29 C 0.8369(2) 0.6653(5) 0.8210(5)
C30 C 0.9220(3) 0.6264(8) 0.8807(6)
H18 H 0.9474 0.5964 0.9359
H19 H 0.9316 0.6928 0.8746
H20 H 0.9190 0.5903 0.8235
Cd1 Cd 1.0000 0.69910(3) 1.2500
F1 F 0.74976(16) 0.3544(3) 1.0203(5)
F2 F 0.8614(2) 0.3884(3) 0.8678(3)
F3 F 0.65950(17) 0.3957(3) 0.9274(4)
F4 F 0.79081(15) 0.4397(3) 0.7027(3)
F5 F 0.5880(2) 0.4611(4) 0.7613(4)
F6 F 0.70199(17) 0.4855(3) 0.6103(5)
O1 O 0.92695(14) 0.7643(3) 1.2959(3)
O2 O 0.97243(14) 0.6612(3) 1.3972(3)
O3 O 0.93106(19) 0.7679(3) 1.4408(3)
N1 N 0.94481(14) 0.5747(3) 1.1728(3)
N2 N 0.53867(15) 0.3142(3) 0.3662(3)
N3 N 0.94311(16) 0.7313(3) 1.3790(3)
C1 C 0.89995(19) 0.5636(4) 1.1760(4)
H1 H 0.8889 0.6098 1.2098
C2 C 0.9592(2) 0.5087(4) 1.1251(4)
H2 H 0.9911 0.5158 1.1215
C3 C 0.86812(19) 0.4883(4) 1.1326(4)
H3 H 0.8361 0.4840 1.1366
C4 C 0.9308(2) 0.4311(4) 1.0807(4)
H4 H 0.9434 0.3858 1.0484
C5 C 0.88352(18) 0.4192(3) 1.0834(3)
C6 C 0.85008(19) 0.3363(4) 1.0371(4)
H5 H 0.8380 0.3059 1.0834
H6 H 0.8694 0.2877 1.0176
C7 C 0.8054(2) 0.3681(4) 0.9507(5)
C8 C 0.7598(3) 0.3761(5) 0.9429(6)
C9 C 0.8167(4) 0.3940(4) 0.8655(5)
C10 C 0.7156(2) 0.4104(4) 0.8492(5)
C11 C 0.7807(3) 0.4221(5) 0.7841(6)
C12 C 0.6691(3) 0.4184(5) 0.8463(6)
C13 C 0.7342(3) 0.4282(4) 0.7808(6)
C14 C 0.6311(3) 0.4513(4) 0.7698(5)
C15 C 0.6912(3) 0.4640(5) 0.6880(6)
C16 C 0.6467(2) 0.4744(4) 0.6819(5)
C17 C 0.6058(2) 0.5135(4) 0.5956(4)
H7 H 0.6192 0.5683 0.5709
H8 H 0.5788 0.5385 0.6146
C18 C 0.5836(2) 0.4417(4) 0.5166(4)
C19 C 0.6039(2) 0.3525(4) 0.5128(4)
H9 H 0.6339 0.3330 0.5623
C20 C 0.5396(2) 0.4658(4) 0.4418(4)
H10 H 0.5243 0.5265 0.4405
C21 C 0.5809(2) 0.2914(4) 0.4372(4)
H11 H 0.5958 0.2309 0.4360
C22 C 0.51861(19) 0.4009(4) 0.3701(4)
H12 H 0.4883 0.4180 0.3205
Cd1A Cd 0.5000 0.19910(3) 0.2500
Cd1A_2 Cd 1.5000 0.19910(3) 2.2500
F1B F 1.25024(16) 0.3544(3) 1.4797(5)
F2B F 1.1386(2) 0.3884(3) 1.6322(3)
F3B F 1.34050(17) 0.3957(3) 1.5726(4)
F4B F 1.20919(15) 0.4397(3) 1.7973(3)
F5B F 1.4120(2) 0.4611(4) 1.7387(4)
F6B F 1.29801(17) 0.4855(3) 1.8897(5)
O1B O 1.07305(14) 0.7643(3) 1.2041(3)
O2B O 1.02757(14) 0.6612(3) 1.1028(3)
O3B O 1.06894(19) 0.7679(3) 1.0592(3)
N1B N 1.05519(14) 0.5747(3) 1.3272(3)
N2B N 1.46133(15) 0.3142(3) 2.1338(3)
N2A N 1.03867(15) 0.8142(3) 1.3662(3)
N2C N 0.96133(15) 0.8142(3) 1.1338(3)
N3B N 1.05689(16) 0.7313(3) 1.1210(3)
C1B C 1.10005(19) 0.5636(4) 1.3240(4)
H1B H 1.1111 0.6098 1.2902
C2B C 1.0408(2) 0.5087(4) 1.3749(4)
H2B H 1.0089 0.5158 1.3785
C3B C 1.13188(19) 0.4883(4) 1.3674(4)
H3B H 1.1639 0.4840 1.3634
C4B C 1.0692(2) 0.4311(4) 1.4193(4)
H4B H 1.0566 0.3858 1.4516
C5B C 1.11648(18) 0.4192(3) 1.4166(3)
C6B C 1.14992(19) 0.3363(4) 1.4629(4)
H5B H 1.1620 0.3059 1.4166
H6B H 1.1306 0.2877 1.4824
C7B C 1.1946(2) 0.3681(4) 1.5493(5)
C8B C 1.2402(3) 0.3761(5) 1.5571(6)
C9B C 1.1833(4) 0.3940(4) 1.6345(5)
C10B C 1.2844(2) 0.4104(4) 1.6508(5)
C11B C 1.2193(3) 0.4221(5) 1.7159(6)
C12B C 1.3309(3) 0.4184(5) 1.6537(6)
C13B C 1.2658(3) 0.4282(4) 1.7192(6)
C14B C 1.3689(3) 0.4513(4) 1.7302(5)
C15B C 1.3088(3) 0.4640(5) 1.8120(6)
C16B C 1.3533(2) 0.4744(4) 1.8181(5)
C17B C 1.3942(2) 0.5135(4) 1.9044(4)
H7B H 1.3808 0.5683 1.9291
H8B H 1.4212 0.5385 1.8854
C18B C 1.4164(2) 0.4417(4) 1.9834(4)
C19B C 1.3961(2) 0.3525(4) 1.9872(4)
H9B H 1.3661 0.3330 1.9377
C20B C 1.4604(2) 0.4658(4) 2.0582(4)
H10B H 1.4757 0.5265 2.0595
C21B C 1.4191(2) 0.2914(4) 2.0628(4)
H11B H 1.4042 0.2309 2.0640
C22B C 1.48139(19) 0.4009(4) 2.1299(4)
H12B H 1.5117 0.4180 2.1795
C31? C 0.5029(5) 0.3077(7) 0.6182(8)
C32? C 0.4817(7) 0.2988(13) 0.7015(12)
loop_
_geom_bond_atom_site_label_1
_geom_bond_atom_site_label_2
_geom_bond_site_symmetry_1
_geom_bond_site_symmetry_2
Cd1 O1 1_555 1_555
F1 C8 1_555 1_555
F2 C9 1_555 1_555
F3 C12 1_555 1_555
F4 C11 1_555 1_555
F5 C14 1_555 1_555
F6 C15 1_555 1_555
O1 N3 1_555 1_555
O2 N3 1_555 1_555
O3 N3 1_555 1_555
O4 C29 1_555 1_555
O5 C29 1_555 1_555
N1 Cd1 1_555 1_555
N2 C21 1_555 1_555
C1 N1 1_555 1_555
H1 C1 1_555 1_555
C2 N1 1_555 1_555
H2 C2 1_555 1_555
C3 C1 1_555 1_555
H3 C3 1_555 1_555
C4 C2 1_555 1_555
H4 C4 1_555 1_555
C5 C3 1_555 1_555
C6 C5 1_555 1_555
H5 C6 1_555 1_555
H6 C6 1_555 1_555
C7 C6 1_555 1_555
C8 C7 1_555 1_555
C9 C7 1_555 1_555
C10 C8 1_555 1_555
C11 C9 1_555 1_555
C12 C10 1_555 1_555
C13 C10 1_555 1_555
C14 C12 1_555 1_555
C15 C13 1_555 1_555
C16 C14 1_555 1_555
C17 C16 1_555 1_555
H7 C17 1_555 1_555
H8 C17 1_555 1_555
C18 C17 1_555 1_555
C19 C18 1_555 1_555
H9 C19 1_555 1_555
C20 C18 1_555 1_555
H10 C20 1_555 1_555
C21 C19 1_555 1_555
H11 C21 1_555 1_555
C22 N2 1_555 1_555
H12 C22 1_555 1_555
C23 C24 1_555 1_555
C24 H13 1_555 1_555
C25 C24 1_555 1_555
H14 C25 1_555 1_555
C26 C25 1_555 1_555
H15 C26 1_555 1_555
C27 C26 1_555 1_555
H16 C27 1_555 1_555
C28 C23 1_555 1_555
H17 C28 1_555 1_555
C29 C23 1_555 1_555
C30 O5 1_555 1_555
H18 C30 1_555 1_555
H19 C30 1_555 1_555
H20 C30 1_555 1_555
Cd1A N2 1_555 1_555
Cd1A_2 N2B 1_555 1_555
F1B C8B 1_555 1_555
F2B C9B 1_555 1_555
F3B C12B 1_555 1_555
F4B C11B 1_555 1_555
F5B C14B 1_555 1_555
F6B C15B 1_555 1_555
O1B Cd1 1_555 1_555
O2B N3B 1_555 1_555
O3B N3B 1_555 1_555
N1B Cd1 1_555 1_555
N2B C21B 1_555 1_555
N2A Cd1 1_555 1_555
N2C Cd1 1_555 1_555
N3B O1B 1_555 1_555
C1B N1B 1_555 1_555
H1B C1B 1_555 1_555
C2B N1B 1_555 1_555
H2B C2B 1_555 1_555
C3B C1B 1_555 1_555
H3B C3B 1_555 1_555
C4B C2B 1_555 1_555
H4B C4B 1_555 1_555
C5B C3B 1_555 1_555
C6B C5B 1_555 1_555
H5B C6B 1_555 1_555
H6B C6B 1_555 1_555
C7B C6B 1_555 1_555
C8B C7B 1_555 1_555
C9B C7B 1_555 1_555
C10B C8B 1_555 1_555
C11B C9B 1_555 1_555
C12B C10B 1_555 1_555
C13B C10B 1_555 1_555
C14B C12B 1_555 1_555
C15B C13B 1_555 1_555
C16B C14B 1_555 1_555
C17B C16B 1_555 1_555
H7B C17B 1_555 1_555
H8B C17B 1_555 1_555
C18B C17B 1_555 1_555
C19B C18B 1_555 1_555
H9B C19B 1_555 1_555
C20B C18B 1_555 1_555
H10B C20B 1_555 1_555
C21B C19B 1_555 1_555
H11B C21B 1_555 1_555
C22B N2B 1_555 1_555
H12B C22B 1_555 1_555
C4 C5 1_555 1_555
C11 C13 1_555 1_555
C15 C16 1_555 1_555
C20 C22 1_555 1_555
C27 C28 1_555 1_555
C4B C5B 1_555 1_555
C11B C13B 1_555 1_555
C15B C16B 1_555 1_555
C20B C22B 1_555 1_555

#END
