
#######################################################################
#
#                 Cambridge Crystallographic Data Centre
#                                CCDC 
#
#######################################################################
#
# If this CIF has been generated from an entry in the Cambridge 
# Structural Database, then it will include bibliographic, chemical, 
# crystal, experimental, refinement or atomic coordinate data resulting 
# from the CCDC's data processing and validation procedures.
#
#######################################################################

data_MICSOH
_symmetry_cell_setting           monoclinic
_symmetry_space_group_name_H-M   'C c'
_symmetry_Int_Tables_number      9
_space_group_name_Hall           'C -2yc'
loop_
_symmetry_equiv_pos_site_id
_symmetry_equiv_pos_as_xyz
1 x,y,z
2 x,-y,1/2+z
3 1/2+x,1/2+y,z
4 1/2+x,1/2-y,1/2+z
_cell_length_a                   16.286(2)
_cell_length_b                   40.817(5)
_cell_length_c                   16.875(2)
_cell_angle_alpha                90
_cell_angle_beta                 99.467(2)
_cell_angle_gamma                90
_cell_volume                     11064.8
loop_
_atom_site_label
_atom_site_type_symbol
_atom_site_fract_x
_atom_site_fract_y
_atom_site_fract_z
Cd1 Cd 0.65797(4) 0.372913(12) 0.01198(4)
Cd2 Cd 0.65555(5) 0.123656(13) 0.51360(4)
F1 F 0.9422(3) 0.22749(9) -0.0583(3)
F2 F 0.6983(3) 0.17585(9) -0.0058(3)
F3 F 1.0363(3) 0.18706(10) 0.0392(3)
F4 F 0.7122(4) 0.12748(10) 0.0898(3)
F5 F 1.0487(3) 0.13473(9) 0.1295(2)
F6 F 0.9750(3) 0.08794(9) 0.2013(2)
F7 F 0.9776(3) 0.40016(9) -0.2934(3)
F8 F 0.7146(3) 0.36498(12) -0.4176(3)
F9 F 1.0505(3) 0.35156(9) -0.3601(3)
F10 F 0.7015(3) 0.31765(10) -0.5162(3)
F11 F 1.0375(3) 0.30187(11) -0.4581(3)
F12 F 0.9446(3) 0.26412(10) -0.5622(3)
F13 F 0.3308(3) 0.34724(9) 0.3140(2)
F14 F 0.5989(3) 0.38024(11) 0.4322(3)
F15 F 0.2616(3) 0.39705(9) 0.3801(3)
F16 F 0.6140(3) 0.42920(10) 0.5282(3)
F17 F 0.2782(3) 0.44701(10) 0.4767(3)
F18 F 0.3768(3) 0.48432(10) 0.5808(3)
F19 F 0.3354(3) 0.15618(9) 0.8239(3)
F20 F 0.6003(3) 0.11824(12) 0.9404(3)
F21 F 0.2613(3) 0.10998(10) 0.8972(3)
F22 F 0.6101(3) 0.06977(9) 1.0390(3)
F23 F 0.2722(3) 0.05793(11) 0.9874(3)
F24 F 0.3669(3) 0.01891(9) 1.0909(3)
O1 O 0.7916(5) 0.37372(10) 0.0882(4)
O2 O 0.8601(4) 0.41852(14) 0.0829(4)
O3 O 0.8214(5) 0.40319(14) 0.1938(4)
O4 O 0.5224(4) 0.37552(10) -0.0634(4)
O5 O 0.4556(5) 0.32952(14) -0.0743(3)
O6 O 0.4783(4) 0.35423(14) -0.1793(3)
O7 O 0.5203(4) 0.12718(10) 0.4400(4)
O8 O 0.4473(4) 0.17237(12) 0.4335(3)
O9 O 0.5134(5) 0.16007(13) 0.3377(4)
O10 O 0.7906(5) 0.12221(12) 0.5866(4)
O11 O 0.7991(5) 0.09137(14) 0.6901(4)
O12 O 0.8710(5) 0.08073(16) 0.5981(5)
N1 N 0.6918(4) 0.31737(13) -0.0106(4)
N2 N 0.7110(4) 0.10687(14) 0.4001(4)
N3 N 0.7124(4) 0.38866(13) -0.1008(3)
N4 N 0.6928(4) 0.17774(13) -0.5119(4)
N5 N 0.6023(4) 0.35622(13) 0.1223(4)
N6 N 0.6246(4) 0.57208(14) 0.5408(4)
N7 N 0.6000(4) 0.13966(13) 0.6256(4)
N8 N 0.6180(4) -0.06862(13) 1.0343(4)
N9 N 0.8261(4) 0.39933(14) 0.1232(4)
N10 N 0.4865(4) 0.35252(14) -0.1058(4)
N11 N 0.4939(4) 0.15345(15) 0.4044(4)
N12 N 0.8221(4) 0.09781(14) 0.6270(4)
C1 C 0.6380(5) 0.29246(16) -0.0261(5)
H1 H 0.5817 0.2959 -0.0197
C2 C 0.7718(5) 0.31069(16) -0.0201(5)
H2 H 0.8126 0.3274 -0.0078
C3 C 0.6605(6) 0.26227(18) -0.0506(5)
H3 H 0.6199 0.2454 -0.0583
C4 C 0.7958(5) 0.28082(15) -0.0469(5)
H4 H 0.8521 0.2776 -0.0533
C5 C 0.7393(5) 0.25545(15) -0.0645(4)
C6 C 0.7646(6) 0.22380(16) -0.0971(5)
H5 H 0.7958 0.2285 -0.1414
H6 H 0.7138 0.2116 -0.1202
C7 C 0.8183(5) 0.20181(14) -0.0359(4)
C8 C 0.9030(5) 0.20373(15) -0.0219(4)
C9 C 0.7808(5) 0.17803(15) 0.0066(4)
C10 C 0.9534(5) 0.18311(15) 0.0295(4)
C11 C 0.8294(5) 0.15543(14) 0.0583(4)
C12 C 0.9175(5) 0.15760(13) 0.0696(4)
C13 C 0.7926(5) 0.12954(16) 0.0983(4)
C14 C 0.9647(4) 0.13427(16) 0.1193(4)
C15 C 0.9262(5) 0.11001(15) 0.1552(4)
C16 C 0.8401(5) 0.10651(14) 0.1447(4)
C17 C 0.7988(5) 0.07886(14) 0.1830(4)
H7 H 0.8392 0.0607 0.1958
H8 H 0.7514 0.0705 0.1438
C18 C 0.7672(5) 0.08894(14) 0.2592(4)
C19 C 0.8224(5) 0.09331(15) 0.3319(4)
H9 H 0.8806 0.0904 0.3340
C20 C 0.6854(5) 0.09381(16) 0.2607(5)
H10 H 0.6462 0.0909 0.2129
C21 C 0.7910(5) 0.10183(16) 0.3999(4)
H11 H 0.8286 0.1042 0.4490
C22 C 0.6572(5) 0.10317(18) 0.3325(4)
H12 H 0.5995 0.1068 0.3322
C23 C 0.7931(5) 0.38700(16) -0.1046(4)
H13 H 0.8305 0.3808 -0.0577
C24 C 0.6590(6) 0.39746(18) -0.1656(4)
H14 H 0.6012 0.3986 -0.1630
C25 C 0.8249(5) 0.39394(14) -0.1734(4)
H15 H 0.8830 0.3924 -0.1741
C26 C 0.6868(5) 0.40516(17) -0.2379(5)
H16 H 0.6479 0.4116 -0.2835
C27 C 0.7694(5) 0.40334(14) -0.2430(4)
C28 C 0.8023(5) 0.41251(15) -0.3198(4)
H17 H 0.8439 0.4303 -0.3077
H18 H 0.7558 0.4210 -0.3598
C29 C 0.8425(5) 0.38347(16) -0.3563(4)
C30 C 0.9291(6) 0.37838(16) -0.3417(4)
C31 C 0.7952(5) 0.36149(18) -0.4048(4)
C32 C 0.9673(5) 0.35378(15) -0.3759(4)
C33 C 0.8315(5) 0.33545(15) -0.4444(4)
C34 C 0.9197(5) 0.33163(15) -0.4289(4)
C35 C 0.7834(5) 0.31425(16) -0.4997(5)
C36 C 0.9557(5) 0.30628(16) -0.4692(5)
C37 C 0.9048(5) 0.28726(16) -0.5257(4)
C38 C 0.8215(5) 0.29063(15) -0.5429(4)
C39 C 0.7685(6) 0.26906(15) -0.6061(5)
H19 H 0.7186 0.2815 -0.6305
H20 H 0.8011 0.2640 -0.6492
C40 C 0.7414(5) 0.23771(16) -0.5733(4)
C41 C 0.7953(5) 0.21173(15) -0.5594(4)
H21 H 0.8502 0.2138 -0.5709
C42 C 0.6644(6) 0.23365(17) -0.5521(5)
H22 H 0.6268 0.2516 -0.5566
C43 C 0.7708(5) 0.18289(16) -0.5292(5)
H23 H 0.8101 0.1655 -0.5197
C44 C 0.6404(5) 0.20382(17) -0.5242(5)
H24 H 0.5853 0.2015 -0.5132
C45 C 0.6523(5) 0.35260(18) 0.1953(5)
H25 H 0.7107 0.3553 0.1981
C46 C 0.5192(5) 0.35297(15) 0.1219(4)
H26 H 0.4823 0.3559 0.0727
C47 C 0.6228(6) 0.34527(18) 0.2646(4)
H27 H 0.6601 0.3428 0.3138
C48 C 0.4859(5) 0.34552(15) 0.1907(4)
H28 H 0.4275 0.3433 0.1879
C49 C 0.5379(5) 0.34147(15) 0.2619(4)
C50 C 0.5030(5) 0.33371(15) 0.3382(4)
H29 H 0.4600 0.3164 0.3264
H30 H 0.5482 0.3251 0.3793
C51 C 0.4655(5) 0.36308(15) 0.3711(4)
C52 C 0.3809(5) 0.36857(16) 0.3603(4)
C53 C 0.5142(5) 0.38536(17) 0.4198(4)
C54 C 0.3442(5) 0.39382(15) 0.3937(4)
C55 C 0.4824(5) 0.41164(15) 0.4586(4)
C56 C 0.3940(4) 0.41629(14) 0.4457(4)
C57 C 0.5296(5) 0.43358(16) 0.5152(5)
C58 C 0.3613(5) 0.44162(16) 0.4873(5)
C59 C 0.4111(5) 0.46095(14) 0.5388(4)
C60 C 0.4994(5) 0.45724(15) 0.5556(4)
C61 C 0.5532(6) 0.47676(15) 0.6205(5)
H31 H 0.6042 0.4641 0.6408
H32 H 0.5225 0.4802 0.6658
C62 C 0.5781(5) 0.51038(14) 0.5893(4)
C63 C 0.6569(5) 0.51526(17) 0.5678(5)
H33 H 0.6959 0.4979 0.5700
C64 C 0.5236(5) 0.53699(16) 0.5849(5)
H34 H 0.4695 0.5347 0.5983
C65 C 0.6756(5) 0.54639(16) 0.5435(5)
H35 H 0.7283 0.5497 0.5276
C66 C 0.5514(5) 0.56696(15) 0.5604(4)
H36 H 0.5143 0.5850 0.5576
C67 C 0.6511(6) 0.14518(18) 0.6964(5)
H37 H 0.7093 0.1435 0.6969
C68 C 0.5176(4) 0.14291(15) 0.6283(4)
H38 H 0.4793 0.1392 0.5803
C69 C 0.6252(6) 0.15297(18) 0.7665(4)
H39 H 0.6643 0.1560 0.8143
C70 C 0.4861(5) 0.15134(15) 0.6972(4)
H40 H 0.4278 0.1535 0.6957
C71 C 0.5402(5) 0.15646(15) 0.7671(4)
C72 C 0.5095(5) 0.16594(16) 0.8445(4)
H41 H 0.5570 0.1740 0.8838
H42 H 0.4687 0.1840 0.8331
C73 C 0.4695(5) 0.13785(15) 0.8803(4)
C74 C 0.3831(5) 0.13456(15) 0.8698(4)
C75 C 0.5145(5) 0.11503(18) 0.9301(4)
C76 C 0.3449(5) 0.11058(16) 0.9070(4)
C77 C 0.4810(5) 0.09008(15) 0.9715(4)
C78 C 0.3920(5) 0.08725(15) 0.9585(4)
C79 C 0.5252(5) 0.06754(16) 1.0269(4)
C80 C 0.3567(5) 0.06269(16) 1.0007(4)
C81 C 0.4038(5) 0.04197(15) 1.0510(4)
C82 C 0.4928(5) 0.04465(15) 1.0683(4)
C83 C 0.5447(6) 0.02291(15) 1.1299(4)
H43 H 0.5123 0.0174 1.1729
H44 H 0.5953 0.0349 1.1546
C84 C 0.5704(5) -0.00903(15) 1.0916(4)
C85 C 0.5120(5) -0.03411(15) 1.0718(4)
H45 H 0.4554 -0.0313 1.0778
C86 C 0.6529(5) -0.01419(17) 1.0816(5)
H46 H 0.6939 0.0024 1.0947
C87 C 0.5403(5) -0.06335(15) 1.0431(4)
H47 H 0.5011 -0.0805 1.0290
C88 C 0.6732(6) -0.04445(17) 1.0516(5)
H48 H 0.7288 -0.0480 1.0431
Cd1A Cd 0.65797(4) 0.627087(12) 0.51198(4)
Cd2_2 Cd 0.65555(5) 0.123656(13) -0.48640(4)
Cd2A Cd 0.65555(5) -0.123656(13) 1.01360(4)
N4_2 N 0.6928(4) 0.17774(13) 0.4881(4)
N6A N 0.6246(4) 0.42792(14) 0.0408(4)
N8A N 0.6180(4) 0.06862(13) 0.5343(4)
O13 O 0.8870(4) 0.23597(13) 0.1482(3)
O14 O 0.9226(7) 0.27298(18) 0.2410(4)
C89 C 0.8180(8) 0.2253(2) 0.1828(5)
C90 C 0.7444(7) 0.2393(2) 0.1621(5)
H49 H 0.7376 0.2586 0.1300
C91 C 0.6777(8) 0.2246(3) 0.1894(7)
H50 H 0.6235 0.2337 0.1751
C92 C 0.6888(10) 0.1971(3) 0.2371(6)
H51 H 0.6425 0.1872 0.2552
C93 C 0.7656(10) 0.1843(2) 0.2578(5)
H52 H 0.7733 0.1656 0.2917
C94 C 0.8308(8) 0.19763(19) 0.2314(4)
H53 H 0.8848 0.1884 0.2456
C95 C 0.9325(9) 0.2613(2) 0.1777(7)
C96 C 0.9994(7) 0.27036(19) 0.1337(5)
H54 H 1.0303 0.2890 0.1602
H55 H 0.9755 0.2764 0.0785
H56 H 1.0371 0.2517 0.1328
O15 O 0.5764(7) 0.45863(17) 0.3123(4)
O16 O 0.6452(5) 0.50286(17) 0.2835(4)
C97 C 0.5016(9) 0.4773(2) 0.3183(6)
C98 C 0.5034(7) 0.5042(2) 0.3714(5)
H57 H 0.5545 0.5115 0.4018
C99 C 0.4301(9) 0.5193(2) 0.3782(6)
H58 H 0.4293 0.5375 0.4133
C100 C 0.3597(10) 0.5084(2) 0.3350(6)
H59 H 0.3093 0.5194 0.3396
C101 C 0.3562(8) 0.4820(2) 0.2839(5)
H60 H 0.3046 0.4748 0.2541
C102 C 0.4295(7) 0.4661(2) 0.2770(5)
H61 H 0.4291 0.4474 0.2433
C103 C 0.6394(11) 0.4741(3) 0.2922(6)
C104 C 0.7049(9) 0.4494(3) 0.2783(6)
H62 H 0.7533 0.4609 0.2644
H63 H 0.6819 0.4348 0.2342
H64 H 0.7218 0.4365 0.3273
O17 O 0.7464(7) 0.2953(2) 0.7152(5)
O18 O 0.6695(6) 0.25190(16) 0.7497(4)
C105 C 0.8106(11) 0.2745(3) 0.7094(6)
C106 C 0.8842(10) 0.2834(3) 0.7556(6)
H65 H 0.8852 0.3013 0.7916
C107 C 0.9569(9) 0.2668(3) 0.7511(6)
H66 H 1.0065 0.2733 0.7854
C108 C 0.9601(9) 0.2408(3) 0.6979(7)
H67 H 1.0106 0.2295 0.6951
C109 C 0.8868(11) 0.2325(3) 0.6497(7)
H68 H 0.8866 0.2152 0.6120
C110 C 0.8123(10) 0.2489(2) 0.6550(5)
H69 H 0.7624 0.2425 0.6212
C111 C 0.6758(10) 0.2825(3) 0.7372(6)
C112 C 0.6123(10) 0.3057(3) 0.7515(6)
H70 H 0.5654 0.2939 0.7676
H71 H 0.5929 0.3181 0.7021
H72 H 0.6357 0.3209 0.7943
O19 O 0.4279(4) 0.01078(12) 0.8788(3)
O20 O 0.4068(4) -0.03000(13) 0.7922(4)
C113 C 0.4919(7) 0.02353(19) 0.8424(5)
C114 C 0.4747(6) 0.04846(17) 0.7896(4)
H73 H 0.4193 0.0560 0.7736
C115 C 0.5408(8) 0.06280(18) 0.7595(5)
H74 H 0.5303 0.0803 0.7220
C116 C 0.6213(8) 0.0519(2) 0.7836(6)
H75 H 0.6664 0.0624 0.7644
C117 C 0.6359(7) 0.0259(3) 0.8351(6)
H76 H 0.6905 0.0174 0.8498
C118 C 0.5694(6) 0.0120(2) 0.8658(4)
H77 H 0.5789 -0.0056 0.9032
C119 C 0.3878(6) -0.0153(2) 0.8481(5)
C120 C 0.3225(6) -0.02593(17) 0.8973(4)
H78 H 0.2965 -0.0463 0.8752
H79 H 0.2800 -0.0088 0.8954
H80 H 0.3489 -0.0295 0.9531
loop_
_geom_bond_atom_site_label_1
_geom_bond_atom_site_label_2
_geom_bond_site_symmetry_1
_geom_bond_site_symmetry_2
Cd1 O1 1_555 1_555
Cd2 O7 1_555 1_555
F1 C8 1_555 1_555
F2 C9 1_555 1_555
F3 C10 1_555 1_555
F4 C13 1_555 1_555
F5 C14 1_555 1_555
F6 C15 1_555 1_555
F7 C30 1_555 1_555
F8 C31 1_555 1_555
F9 C32 1_555 1_555
F10 C35 1_555 1_555
F11 C36 1_555 1_555
F12 C37 1_555 1_555
F13 C52 1_555 1_555
F14 C53 1_555 1_555
F15 C54 1_555 1_555
F16 C57 1_555 1_555
F17 C58 1_555 1_555
F18 C59 1_555 1_555
F19 C74 1_555 1_555
F20 C75 1_555 1_555
F21 C76 1_555 1_555
F22 C79 1_555 1_555
F23 C80 1_555 1_555
F24 C81 1_555 1_555
O1 N9 1_555 1_555
O2 N9 1_555 1_555
O3 N9 1_555 1_555
O4 Cd1 1_555 1_555
O5 N10 1_555 1_555
O6 N10 1_555 1_555
O7 N11 1_555 1_555
O8 N11 1_555 1_555
O9 N11 1_555 1_555
O10 Cd2 1_555 1_555
O11 N12 1_555 1_555
O12 N12 1_555 1_555
O13 C89 1_555 1_555
O14 C95 1_555 1_555
O15 C97 1_555 1_555
O16 C103 1_555 1_555
O17 C105 1_555 1_555
O18 C111 1_555 1_555
O19 C113 1_555 1_555
O20 C119 1_555 1_555
N1 Cd1 1_555 1_555
N2 Cd2 1_555 1_555
N3 Cd1 1_555 1_555
N4 C43 1_555 1_555
N5 Cd1 1_555 1_555
N6 C65 1_555 1_555
N7 Cd2 1_555 1_555
N8 C87 1_555 1_555
N10 O4 1_555 1_555
N12 O10 1_555 1_555
C1 N1 1_555 1_555
H1 C1 1_555 1_555
C2 N1 1_555 1_555
H2 C2 1_555 1_555
C3 C1 1_555 1_555
H3 C3 1_555 1_555
C4 C2 1_555 1_555
H4 C4 1_555 1_555
C5 C3 1_555 1_555
C6 C5 1_555 1_555
H5 C6 1_555 1_555
H6 C6 1_555 1_555
C7 C6 1_555 1_555
C8 C7 1_555 1_555
C9 C7 1_555 1_555
C10 C8 1_555 1_555
C11 C9 1_555 1_555
C12 C10 1_555 1_555
C13 C11 1_555 1_555
C14 C12 1_555 1_555
C15 C14 1_555 1_555
C16 C13 1_555 1_555
C17 C16 1_555 1_555
H7 C17 1_555 1_555
H8 C17 1_555 1_555
C18 C17 1_555 1_555
C19 C18 1_555 1_555
H9 C19 1_555 1_555
C20 C18 1_555 1_555
H10 C20 1_555 1_555
C21 N2 1_555 1_555
H11 C21 1_555 1_555
C22 N2 1_555 1_555
H12 C22 1_555 1_555
C23 N3 1_555 1_555
H13 C23 1_555 1_555
C24 N3 1_555 1_555
H14 C24 1_555 1_555
C25 C23 1_555 1_555
H15 C25 1_555 1_555
C26 C24 1_555 1_555
H16 C26 1_555 1_555
C27 C25 1_555 1_555
C28 C27 1_555 1_555
H17 C28 1_555 1_555
H18 C28 1_555 1_555
C29 C28 1_555 1_555
C30 C29 1_555 1_555
C31 C29 1_555 1_555
C32 C30 1_555 1_555
C33 C31 1_555 1_555
C34 C32 1_555 1_555
C35 C33 1_555 1_555
C36 C34 1_555 1_555
C37 C36 1_555 1_555
C38 C35 1_555 1_555
C39 C38 1_555 1_555
H19 C39 1_555 1_555
H20 C39 1_555 1_555
C40 C39 1_555 1_555
C41 C40 1_555 1_555
H21 C41 1_555 1_555
C42 C40 1_555 1_555
H22 C42 1_555 1_555
C43 C41 1_555 1_555
H23 C43 1_555 1_555
C44 N4 1_555 1_555
H24 C44 1_555 1_555
C45 N5 1_555 1_555
H25 C45 1_555 1_555
C46 N5 1_555 1_555
H26 C46 1_555 1_555
C47 C45 1_555 1_555
H27 C47 1_555 1_555
C48 C46 1_555 1_555
H28 C48 1_555 1_555
C49 C47 1_555 1_555
C50 C49 1_555 1_555
H29 C50 1_555 1_555
H30 C50 1_555 1_555
C51 C50 1_555 1_555
C52 C51 1_555 1_555
C53 C51 1_555 1_555
C54 C52 1_555 1_555
C55 C53 1_555 1_555
C56 C54 1_555 1_555
C57 C55 1_555 1_555
C58 C56 1_555 1_555
C59 C58 1_555 1_555
C60 C57 1_555 1_555
C61 C60 1_555 1_555
H31 C61 1_555 1_555
H32 C61 1_555 1_555
C62 C61 1_555 1_555
C63 C62 1_555 1_555
H33 C63 1_555 1_555
C64 C62 1_555 1_555
H34 C64 1_555 1_555
C65 C63 1_555 1_555
H35 C65 1_555 1_555
C66 N6 1_555 1_555
H36 C66 1_555 1_555
C67 N7 1_555 1_555
H37 C67 1_555 1_555
C68 N7 1_555 1_555
H38 C68 1_555 1_555
C69 C67 1_555 1_555
H39 C69 1_555 1_555
C70 C68 1_555 1_555
H40 C70 1_555 1_555
C71 C69 1_555 1_555
C72 C71 1_555 1_555
H41 C72 1_555 1_555
H42 C72 1_555 1_555
C73 C72 1_555 1_555
C74 C73 1_555 1_555
C75 C73 1_555 1_555
C76 C74 1_555 1_555
C77 C75 1_555 1_555
C78 C76 1_555 1_555
C79 C77 1_555 1_555
C80 C78 1_555 1_555
C81 C80 1_555 1_555
C82 C79 1_555 1_555
C83 C82 1_555 1_555
H43 C83 1_555 1_555
H44 C83 1_555 1_555
C84 C83 1_555 1_555
C85 C84 1_555 1_555
H45 C85 1_555 1_555
C86 C84 1_555 1_555
H46 C86 1_555 1_555
C87 C85 1_555 1_555
H47 C87 1_555 1_555
C88 N8 1_555 1_555
H48 C88 1_555 1_555
C89 C90 1_555 1_555
C90 H49 1_555 1_555
C91 C90 1_555 1_555
H50 C91 1_555 1_555
C92 C91 1_555 1_555
H51 C92 1_555 1_555
C93 C92 1_555 1_555
H52 C93 1_555 1_555
C94 C89 1_555 1_555
H53 C94 1_555 1_555
C95 O13 1_555 1_555
C96 C95 1_555 1_555
H54 C96 1_555 1_555
H55 C96 1_555 1_555
H56 C96 1_555 1_555
C97 C98 1_555 1_555
C98 H57 1_555 1_555
C99 C98 1_555 1_555
H58 C99 1_555 1_555
C100 C99 1_555 1_555
H59 C100 1_555 1_555
C101 C100 1_555 1_555
H60 C101 1_555 1_555
C102 C97 1_555 1_555
H61 C102 1_555 1_555
C103 O15 1_555 1_555
C104 C103 1_555 1_555
H62 C104 1_555 1_555
H63 C104 1_555 1_555
H64 C104 1_555 1_555
C105 C106 1_555 1_555
C106 H65 1_555 1_555
C107 C106 1_555 1_555
H66 C107 1_555 1_555
C108 C107 1_555 1_555
H67 C108 1_555 1_555
C109 C108 1_555 1_555
H68 C109 1_555 1_555
C110 C105 1_555 1_555
H69 C110 1_555 1_555
C111 O17 1_555 1_555
C112 C111 1_555 1_555
H70 C112 1_555 1_555
H71 C112 1_555 1_555
H72 C112 1_555 1_555
C113 C114 1_555 1_555
C114 H73 1_555 1_555
C115 C114 1_555 1_555
H74 C115 1_555 1_555
C116 C115 1_555 1_555
H75 C116 1_555 1_555
C117 C116 1_555 1_555
H76 C117 1_555 1_555
C118 C113 1_555 1_555
H77 C118 1_555 1_555
C119 O19 1_555 1_555
C120 C119 1_555 1_555
H78 C120 1_555 1_555
H79 C120 1_555 1_555
H80 C120 1_555 1_555
Cd1A N6 1_555 1_555
Cd2_2 N4 1_555 1_555
Cd2A N8 1_555 1_555
N4_2 Cd2 1_555 1_555
N6A Cd1 1_555 1_555
N8A Cd2 1_555 1_555
C4 C5 1_555 1_555
C11 C12 1_555 1_555
C15 C16 1_555 1_555
C19 C21 1_555 1_555
C20 C22 1_555 1_555
C26 C27 1_555 1_555
C33 C34 1_555 1_555
C37 C38 1_555 1_555
C42 C44 1_555 1_555
C48 C49 1_555 1_555
C55 C56 1_555 1_555
C59 C60 1_555 1_555
C64 C66 1_555 1_555
C70 C71 1_555 1_555
C77 C78 1_555 1_555
C81 C82 1_555 1_555
C86 C88 1_555 1_555
C93 C94 1_555 1_555
C101 C102 1_555 1_555
C109 C110 1_555 1_555
C117 C118 1_555 1_555

#END
