
#######################################################################
#
#                 Cambridge Crystallographic Data Centre
#                                CCDC 
#
#######################################################################
#
# If this CIF has been generated from an entry in the Cambridge 
# Structural Database, then it will include bibliographic, chemical, 
# crystal, experimental, refinement or atomic coordinate data resulting 
# from the CCDC's data processing and validation procedures.
#
#######################################################################

data_MICSUN
_symmetry_cell_setting           monoclinic
_symmetry_space_group_name_H-M   'P 21/n'
_symmetry_Int_Tables_number      14
_space_group_name_Hall           '-P 2yn'
loop_
_symmetry_equiv_pos_site_id
_symmetry_equiv_pos_as_xyz
1 x,y,z
2 1/2-x,1/2+y,1/2-z
3 -x,-y,-z
4 1/2+x,1/2-y,1/2+z
_cell_length_a                   8.864(5)
_cell_length_b                   28.744(5)
_cell_length_c                   13.854(5)
_cell_angle_alpha                90
_cell_angle_beta                 90.858(5)
_cell_angle_gamma                90
_cell_volume                     3529.42
loop_
_atom_site_label
_atom_site_type_symbol
_atom_site_fract_x
_atom_site_fract_y
_atom_site_fract_z
O7 O 0.4831(8) 0.1388(3) 0.3997(5)
C34 C 0.4787(16) -0.0165(4) 0.5090(7)
C35 C 0.3947(13) 0.0263(2) 0.4656(5)
C36 C 0.442(3) -0.0645(5) 0.5323(13)
C37 C 0.3511(14) -0.0528(3) 0.5154(6)
C38 C 0.2629(17) -0.0121(5) 0.4699(8)
C39 C 0.2217(15) -0.0469(4) 0.4861(7)
C34B C 0.5213(16) 0.0165(4) 0.4910(7)
C35B C 0.6053(13) -0.0263(2) 0.5344(5)
C36B C 0.558(3) 0.0645(5) 0.4677(13)
C37B C 0.6489(14) 0.0528(3) 0.4846(6)
C38B C 0.7371(17) 0.0121(5) 0.5301(8)
C39B C 0.7783(15) 0.0469(4) 0.5139(7)
Cd1 Cd 0.63430(4) 0.260441(11) 1.08238(2)
F1 F 0.7621(4) 0.04585(13) 0.7763(3)
F2 F 0.3075(4) 0.10511(13) 0.6606(3)
F3 F 0.6443(4) -0.03902(11) 0.8067(2)
F4 F 0.0767(4) 0.05494(12) 0.6644(3)
F5 F 0.4129(4) -0.08990(13) 0.8058(2)
F6 F -0.0502(5) -0.02849(14) 0.7047(4)
F7 F 0.8559(3) 0.42504(11) 1.4934(2)
F8 F 0.8344(3) 0.51755(11) 1.4920(2)
F9 F 0.3308(3) 0.40993(9) 1.50958(19)
O1 O 0.5744(5) 0.19626(13) 1.1908(3)
O2 O 0.3888(4) 0.23216(15) 1.1213(3)
O3 O 0.3409(6) 0.18058(18) 1.2303(4)
O4 O 0.8813(5) 0.22642(16) 1.1128(3)
O5 O 0.8729(5) 0.29047(15) 1.0329(3)
O6 O 1.0851(5) 0.2546(2) 1.0520(4)
N1 N 0.6320(4) 0.21407(12) 0.9465(2)
N2 N 0.6401(4) 0.29990(12) 1.2252(2)
N3 N 0.4317(6) 0.20231(17) 1.1826(3)
N4 N 0.9508(5) 0.2572(2) 1.0659(4)
N5 N -0.0233(5) -0.17902(13) 0.5098(3)
C1 C 0.5999(5) 0.16920(15) 0.9555(3)
H1 H 0.5816 0.1573 1.0182
C2 C 0.6596(5) 0.22990(15) 0.8574(3)
H2 H 0.6839 0.2618 0.8495
C3 C 0.5918(5) 0.13886(14) 0.8779(3)
H3 H 0.5681 0.1070 0.8880
C4 C 0.6541(5) 0.20168(14) 0.7763(3)
H4 H 0.6748 0.2142 0.7144
C5 C 0.6182(4) 0.15494(14) 0.7860(3)
C6 C 0.6111(5) 0.12391(15) 0.6977(3)
H5 H 0.5577 0.1407 0.6450
H6 H 0.7151 0.1176 0.6762
C7 C 0.5322(5) 0.07819(16) 0.7152(3)
C8 C 0.6206(7) 0.03935(17) 0.7564(3)
C9 C 0.3869(6) 0.0701(2) 0.6988(4)
C10 C 0.5557(6) -0.00253(19) 0.7725(4)
C11 C 0.3101(5) 0.02451(18) 0.7188(3)
C12 C 0.4079(6) -0.00922(19) 0.7551(3)
C13 C 0.1585(7) 0.0187(2) 0.7036(5)
C14 C 0.3303(7) -0.0547(2) 0.7720(4)
C15 C 0.0890(7) -0.02240(18) 0.7183(4)
C16 C 0.1850(7) -0.06244(18) 0.7571(3)
C17 C 0.1067(7) -0.10827(18) 0.7720(3)
H7 H 0.0150 -0.1031 0.8105
H8 H 0.1743 -0.1293 0.8092
C18 C 0.0622(6) -0.13166(16) 0.6771(3)
C19 C -0.0788(7) -0.12654(19) 0.6365(4)
H9 H -0.1507 -0.1069 0.6662
C20 C 0.1635(6) -0.16024(17) 0.6296(3)
H10 H 0.2640 -0.1638 0.6532
C21 C -0.1164(7) -0.14976(18) 0.5527(4)
H11 H -0.2133 -0.1446 0.5245
C22 C 0.1148(6) -0.18354(16) 0.5471(3)
H12 H 0.1836 -0.2037 0.5159
C23 C 0.7244(5) 0.28485(15) 1.2997(3)
H13 H 0.7905 0.2593 1.2901
C24 C 0.5496(5) 0.33582(16) 1.2400(3)
H14 H 0.4899 0.3469 1.1873
C25 C 0.7189(5) 0.30503(15) 1.3901(3)
H15 H 0.7804 0.2933 1.4414
C26 C 0.5375(5) 0.35807(16) 1.3284(3)
H16 H 0.4710 0.3837 1.3357
C27 C 0.6237(5) 0.34234(15) 1.4056(3)
C28 C 0.6122(7) 0.36363(16) 1.5055(3)
H17 H 0.5258 0.3495 1.5392
H18 H 0.7050 0.3562 1.5431
C29 C 0.5916(5) 0.41557(15) 1.5025(3)
C30 C 0.7188(6) 0.44526(17) 1.4960(3)
C31 C 0.7074(5) 0.49185(17) 1.4954(3)
C32 C 0.5673(5) 0.51378(15) 1.4975(3)
C33 C 0.4541(5) 0.43675(16) 1.5045(3)
Cd1A Cd -0.13430(4) 0.760441(11) 0.41762(2)
Cd1A_2 Cd -0.13430(4) -0.239559(11) 0.41762(2)
Cd1B Cd 0.36570(4) 0.739559(11) 1.91762(2)
F1A F -0.2621(4) 0.54585(13) 0.7237(3)
F2A F 0.1925(4) 0.60511(13) 0.8394(3)
F3A F -0.1443(4) 0.46098(11) 0.6933(2)
F4A F 0.4233(4) 0.55494(12) 0.8356(3)
F5A F 0.0871(4) 0.41010(13) 0.6942(2)
F6A F 0.5502(5) 0.47151(14) 0.7953(4)
F7B F 0.1441(3) 0.57496(11) 1.5066(2)
F8B F 0.1656(3) 0.48245(11) 1.5080(2)
F9B F 0.6692(3) 0.59007(9) 1.49042(19)
O1A O -0.0744(5) 0.69626(13) 0.3092(3)
O2A O 0.1112(4) 0.73216(15) 0.3787(3)
O3A O 0.1591(6) 0.68058(18) 0.2697(4)
O4A O -0.3813(5) 0.72642(16) 0.3872(3)
O5A O -0.3729(5) 0.79047(15) 0.4671(3)
O6A O -0.5851(5) 0.7546(2) 0.4480(4)
N1A N -0.1320(4) 0.71407(12) 0.5535(2)
N2B N 0.3599(4) 0.70010(12) 1.7748(2)
N2A N -0.1401(4) 0.79990(12) 0.2748(2)
N3A N 0.0683(6) 0.70231(17) 0.3174(3)
N4A N -0.4508(5) 0.7572(2) 0.4341(4)
N5A N 0.5233(5) 0.32098(13) 0.9902(3)
N5_2 N -0.0233(5) 0.82098(13) 0.5098(3)
C1A C -0.0999(5) 0.66920(15) 0.5445(3)
H1A H -0.0816 0.6573 0.4818
C2A C -0.1596(5) 0.72990(15) 0.6426(3)
H2A H -0.1839 0.7618 0.6505
C3A C -0.0918(5) 0.63886(14) 0.6221(3)
H3A H -0.0681 0.6070 0.6120
C4A C -0.1541(5) 0.70168(14) 0.7237(3)
H4A H -0.1748 0.7142 0.7856
C5A C -0.1182(4) 0.65494(14) 0.7140(3)
C6A C -0.1111(5) 0.62391(15) 0.8023(3)
H5A H -0.0577 0.6407 0.8550
H6A H -0.2151 0.6176 0.8238
C7A C -0.0322(5) 0.57819(16) 0.7848(3)
C8A C -0.1206(7) 0.53935(17) 0.7436(3)
C9A C 0.1131(6) 0.5701(2) 0.8012(4)
C10A C -0.0557(6) 0.49747(19) 0.7275(4)
C11A C 0.1899(5) 0.52451(18) 0.7812(3)
C12A C 0.0921(6) 0.49078(19) 0.7449(3)
C13A C 0.3415(7) 0.5187(2) 0.7964(5)
C14A C 0.1697(7) 0.4453(2) 0.7280(4)
C15A C 0.4110(7) 0.47760(18) 0.7817(4)
C16A C 0.3150(7) 0.43756(18) 0.7429(3)
C17A C 0.3933(7) 0.39173(18) 0.7280(3)
H7A H 0.4850 0.3969 0.6895
H8A H 0.3257 0.3707 0.6908
C18A C 0.4378(6) 0.36834(16) 0.8229(3)
C19A C 0.5788(7) 0.37346(19) 0.8635(4)
H9A H 0.6507 0.3931 0.8338
C20A C 0.3365(6) 0.33976(17) 0.8704(3)
H10A H 0.2360 0.3362 0.8468
C21A C 0.6164(7) 0.35024(18) 0.9473(4)
H11A H 0.7133 0.3554 0.9755
C22A C 0.3852(6) 0.31646(16) 0.9529(3)
H12A H 0.3164 0.2963 0.9841
C23B C 0.2756(5) 0.71515(15) 1.7003(3)
H13B H 0.2095 0.7407 1.7099
C24B C 0.4504(5) 0.66418(16) 1.7600(3)
H14B H 0.5101 0.6531 1.8127
C25B C 0.2811(5) 0.69497(15) 1.6099(3)
H15B H 0.2196 0.7067 1.5586
C26B C 0.4625(5) 0.64193(16) 1.6716(3)
H16B H 0.5290 0.6163 1.6643
C27B C 0.3763(5) 0.65766(15) 1.5944(3)
C28B C 0.3878(7) 0.63637(16) 1.4945(3)
H17B H 0.4742 0.6505 1.4608
H18B H 0.2950 0.6438 1.4569
C29B C 0.4084(5) 0.58443(15) 1.4975(3)
C30B C 0.2812(6) 0.55474(17) 1.5040(3)
C31B C 0.2926(5) 0.50815(17) 1.5046(3)
C32B C 0.4327(5) 0.48622(15) 1.5025(3)
C33B C 0.5459(5) 0.56325(16) 1.4955(3)
loop_
_geom_bond_atom_site_label_1
_geom_bond_atom_site_label_2
_geom_bond_site_symmetry_1
_geom_bond_site_symmetry_2
Cd1 O1 1_555 1_555
F1 C8 1_555 1_555
F2 C9 1_555 1_555
F3 C10 1_555 1_555
F4 C13 1_555 1_555
F5 C14 1_555 1_555
F6 C15 1_555 1_555
F7 C30 1_555 1_555
F8 C31 1_555 1_555
F9 C33 1_555 1_555
O1 N3 1_555 1_555
O2 Cd1 1_555 1_555
O3 N3 1_555 1_555
O4 Cd1 1_555 1_555
O5 Cd1 1_555 1_555
O6 N4 1_555 1_555
N1 Cd1 1_555 1_555
N2 Cd1 1_555 1_555
N3 O2 1_555 1_555
N4 O4 1_555 1_555
N5 C21 1_555 1_555
C1 N1 1_555 1_555
H1 C1 1_555 1_555
C2 N1 1_555 1_555
H2 C2 1_555 1_555
C3 C1 1_555 1_555
H3 C3 1_555 1_555
C4 C2 1_555 1_555
H4 C4 1_555 1_555
C5 C3 1_555 1_555
C6 C5 1_555 1_555
H5 C6 1_555 1_555
H6 C6 1_555 1_555
C7 C6 1_555 1_555
C8 C7 1_555 1_555
C9 C7 1_555 1_555
C10 C8 1_555 1_555
C11 C9 1_555 1_555
C12 C10 1_555 1_555
C13 C11 1_555 1_555
C14 C12 1_555 1_555
C15 C13 1_555 1_555
C16 C14 1_555 1_555
C17 C16 1_555 1_555
H7 C17 1_555 1_555
H8 C17 1_555 1_555
C18 C17 1_555 1_555
C19 C18 1_555 1_555
H9 C19 1_555 1_555
C20 C18 1_555 1_555
H10 C20 1_555 1_555
C21 C19 1_555 1_555
H11 C21 1_555 1_555
C22 N5 1_555 1_555
H12 C22 1_555 1_555
C23 N2 1_555 1_555
H13 C23 1_555 1_555
C24 N2 1_555 1_555
H14 C24 1_555 1_555
C25 C23 1_555 1_555
H15 C25 1_555 1_555
C26 C24 1_555 1_555
H16 C26 1_555 1_555
C27 C25 1_555 1_555
C28 C27 1_555 1_555
H17 C28 1_555 1_555
H18 C28 1_555 1_555
C29 C28 1_555 1_555
C30 C29 1_555 1_555
C31 C30 1_555 1_555
C32 C31 1_555 1_555
C33 C29 1_555 1_555
C34 C35 1_555 1_555
C35 C38 1_555 1_555
C36 C34 1_555 1_555
C37 C34 1_555 1_555
C38 C37 1_555 1_555
C39 C37 1_555 1_555
Cd1A O1A 1_555 1_555
Cd1A_2 N5 1_555 1_555
Cd1B N2B 1_555 1_555
F1A C8A 1_555 1_555
F2A C9A 1_555 1_555
F3A C10A 1_555 1_555
F4A C13A 1_555 1_555
F5A C14A 1_555 1_555
F6A C15A 1_555 1_555
F7B C30B 1_555 1_555
F8B C31B 1_555 1_555
F9B C33B 1_555 1_555
O1A N3A 1_555 1_555
O2A Cd1A 1_555 1_555
O3A N3A 1_555 1_555
O4A Cd1A 1_555 1_555
O5A Cd1A 1_555 1_555
O6A N4A 1_555 1_555
N1A Cd1A 1_555 1_555
N2B C23B 1_555 1_555
N2A Cd1A 1_555 1_555
N3A O2A 1_555 1_555
N4A O4A 1_555 1_555
N5A Cd1 1_555 1_555
N5_2 Cd1A 1_555 1_555
C1A N1A 1_555 1_555
H1A C1A 1_555 1_555
C2A N1A 1_555 1_555
H2A C2A 1_555 1_555
C3A C1A 1_555 1_555
H3A C3A 1_555 1_555
C4A C2A 1_555 1_555
H4A C4A 1_555 1_555
C5A C3A 1_555 1_555
C6A C5A 1_555 1_555
H5A C6A 1_555 1_555
H6A C6A 1_555 1_555
C7A C6A 1_555 1_555
C8A C7A 1_555 1_555
C9A C7A 1_555 1_555
C10A C8A 1_555 1_555
C11A C9A 1_555 1_555
C12A C10A 1_555 1_555
C13A C11A 1_555 1_555
C14A C12A 1_555 1_555
C15A C13A 1_555 1_555
C16A C14A 1_555 1_555
C17A C16A 1_555 1_555
H7A C17A 1_555 1_555
H8A C17A 1_555 1_555
C18A C17A 1_555 1_555
C19A C18A 1_555 1_555
H9A C19A 1_555 1_555
C20A C18A 1_555 1_555
H10A C20A 1_555 1_555
C21A N5A 1_555 1_555
H11A C21A 1_555 1_555
C22A N5A 1_555 1_555
H12A C22A 1_555 1_555
C23B H13B 1_555 1_555
C24B N2B 1_555 1_555
H14B C24B 1_555 1_555
C25B C23B 1_555 1_555
H15B C25B 1_555 1_555
C26B C24B 1_555 1_555
H16B C26B 1_555 1_555
C27B C25B 1_555 1_555
C28B C27B 1_555 1_555
H17B C28B 1_555 1_555
H18B C28B 1_555 1_555
C29B C28B 1_555 1_555
C30B C29B 1_555 1_555
C31B C30B 1_555 1_555
C32B C32 1_555 1_555
C33B C32 1_555 1_555
C34B C34 1_555 1_555
C35B C34 1_555 1_555
C36B C34B 1_555 1_555
C37B C34B 1_555 1_555
C38B C35B 1_555 1_555
C39B C37B 1_555 1_555
O5 N4 1_555 1_555
C4 C5 1_555 1_555
C11 C12 1_555 1_555
C15 C16 1_555 1_555
C20 C22 1_555 1_555
C26 C27 1_555 1_555
C33 C32B 1_555 1_555
C35 C34B 1_555 1_555
C36 C37 1_555 1_555
C38 C39 1_555 1_555
O5A N4A 1_555 1_555
C4A C5A 1_555 1_555
C11A C12A 1_555 1_555
C15A C16A 1_555 1_555
C19A C21A 1_555 1_555
C20A C22A 1_555 1_555
C26B C27B 1_555 1_555
C29B C33B 1_555 1_555
C31B C32B 1_555 1_555
C34B C35B 1_555 1_555
C36B C37B 1_555 1_555
C37B C38B 1_555 1_555
C38B C39B 1_555 1_555

#END
