
#######################################################################
#
#                 Cambridge Crystallographic Data Centre
#                                CCDC 
#
#######################################################################
#
# If this CIF has been generated from an entry in the Cambridge 
# Structural Database, then it will include bibliographic, chemical, 
# crystal, experimental, refinement or atomic coordinate data resulting 
# from the CCDC's data processing and validation procedures.
#
#######################################################################

data_MICSAT
_symmetry_cell_setting           monoclinic
_symmetry_space_group_name_H-M   'P 21/c'
_symmetry_Int_Tables_number      14
_space_group_name_Hall           '-P 2ybc'
loop_
_symmetry_equiv_pos_site_id
_symmetry_equiv_pos_as_xyz
1 x,y,z
2 -x,1/2+y,1/2-z
3 -x,-y,-z
4 x,1/2-y,1/2+z
_cell_length_a                   8.1700(13)
_cell_length_b                   20.445(3)
_cell_length_c                   16.354(3)
_cell_angle_alpha                90
_cell_angle_beta                 100.204(3)
_cell_angle_gamma                90
_cell_volume                     2688.49
loop_
_atom_site_label
_atom_site_type_symbol
_atom_site_fract_x
_atom_site_fract_y
_atom_site_fract_z
Cd1 Cd 0.5000 1.0000 0.5000
F1 F -0.15814(13) 1.06569(5) 0.80454(6)
F2 F 0.37123(12) 0.99392(5) 0.93003(6)
F3 F -0.30117(13) 0.96507(5) 0.86657(7)
F4 F 0.39869(13) 0.89304(5) 1.02302(7)
F5 F -0.27302(14) 0.85933(5) 0.95628(7)
F6 F -0.08274(14) 0.78011(5) 1.06039(7)
O1 O 0.23293(15) 0.99967(6) 0.41836(7)
O2 O 0.0834(2) 1.08804(7) 0.40957(10)
O3 O 0.1979(3) 1.05978(8) 0.30766(10)
N1 N 0.38237(18) 1.03686(7) 0.61169(9)
N2 N 0.42741(19) 0.60760(7) 1.02837(9)
N3 N 0.16939(19) 1.05042(7) 0.37710(9)
C1 C 0.4845(2) 1.04740(9) 0.68450(11)
C2 C 0.2182(2) 1.04349(9) 0.60976(11)
C3 C 0.4266(2) 1.06525(9) 0.75614(11)
C4 C 0.1517(2) 1.06010(9) 0.67897(11)
C5 C 0.2581(2) 1.07190(8) 0.75411(10)
C6 C 0.1895(2) 1.08950(9) 0.83159(11)
C7 C 0.1115(2) 1.03086(8) 0.86620(10)
C8 C -0.0615(2) 1.02092(9) 0.85093(11)
C9 C 0.2054(2) 0.98504(8) 0.91451(10)
C10 C -0.1344(2) 0.96947(9) 0.88222(11)
C11 C 0.1377(2) 0.93047(8) 0.95014(10)
C12 C -0.0385(2) 0.92243(8) 0.93291(10)
C13 C 0.2323(2) 0.88504(9) 1.00507(11)
C14 C -0.1073(2) 0.86902(9) 0.97045(11)
C15 C -0.0087(2) 0.82848(9) 1.02361(11)
C16 C 0.1651(2) 0.83570(8) 1.04440(10)
C17 C 0.2678(3) 0.79369(9) 1.11083(12)
C18 C 0.3235(2) 0.72934(8) 1.07873(10)
C19 C 0.2151(2) 0.67692(9) 1.06485(12)
C20 C 0.4847(2) 0.71972(9) 1.06491(12)
C21 C 0.2707(2) 0.61778(9) 1.03981(12)
C22 C 0.5318(2) 0.65888(9) 1.04049(12)
H7 H 0.597(2) 1.0412(9) 0.6852(11)
H8 H 0.146(2) 1.0359(9) 0.5578(12)
H9 H 0.509(3) 1.0714(9) 0.8053(12)
H10 H 0.038(2) 1.0634(8) 0.6757(10)
H11 H 0.283(2) 1.1044(9) 0.8734(11)
H12 H 0.105(2) 1.1226(8) 0.8179(10)
H13 H 0.363(2) 0.8193(9) 1.1327(11)
H14 H 0.203(2) 0.7850(9) 1.1562(12)
H15 H 0.109(2) 0.6822(8) 1.0758(11)
H16 H 0.559(3) 0.7535(10) 1.0714(12)
H17 H 0.193(2) 0.5810(9) 1.0311(12)
H18 H 0.640(3) 0.6514(9) 1.0306(12)
Cd1C Cd 0.5000 0.5000 1.0000
Cd1C_2 Cd 0.5000 1.5000 0.0000
F1B F 1.15814(13) 0.93431(5) 0.19546(6)
F2B F 0.62877(12) 1.00608(5) 0.06997(6)
F3B F 1.30117(13) 1.03493(5) 0.13343(7)
F4B F 0.60131(13) 1.10696(5) -0.02302(7)
F5B F 1.27302(14) 1.14067(5) 0.04372(7)
F6B F 1.08274(14) 1.21989(5) -0.06039(7)
O1B O 0.76707(15) 1.00033(6) 0.58164(7)
O2B O 0.9166(2) 0.91196(7) 0.59043(10)
O3B O 0.8021(3) 0.94022(8) 0.69234(10)
N1B N 0.61763(18) 0.96314(7) 0.38831(9)
N2B N 0.57259(19) 1.39240(7) -0.02837(9)
N2C N 0.42741(19) 0.89240(7) 0.52837(9)
N2A N 0.57259(19) 1.10760(7) 0.47163(9)
N3B N 0.83061(19) 0.94958(7) 0.62290(9)
C1B C 0.5155(2) 0.95260(9) 0.31550(11)
C2B C 0.7818(2) 0.95651(9) 0.39024(11)
C3B C 0.5734(2) 0.93475(9) 0.24386(11)
C4B C 0.8483(2) 0.93990(9) 0.32103(11)
C5B C 0.7419(2) 0.92810(8) 0.24589(10)
C6B C 0.8105(2) 0.91050(9) 0.16841(11)
C7B C 0.8885(2) 0.96914(8) 0.13380(10)
C8B C 1.0615(2) 0.97908(9) 0.14907(11)
C9B C 0.7946(2) 1.01496(8) 0.08549(10)
C10B C 1.1344(2) 1.03053(9) 0.11778(11)
C11B C 0.8623(2) 1.06953(8) 0.04986(10)
C12B C 1.0385(2) 1.07757(8) 0.06709(10)
C13B C 0.7677(2) 1.11496(9) -0.00507(11)
C14B C 1.1073(2) 1.13098(9) 0.02955(11)
C15B C 1.0087(2) 1.17152(9) -0.02361(11)
C16B C 0.8349(2) 1.16430(8) -0.04440(10)
C17B C 0.7322(3) 1.20631(9) -0.11083(12)
C18B C 0.6765(2) 1.27066(8) -0.07873(10)
C19B C 0.7849(2) 1.32308(9) -0.06485(12)
C20B C 0.5153(2) 1.28028(9) -0.06491(12)
C21B C 0.7293(2) 1.38222(9) -0.03981(12)
C22B C 0.4682(2) 1.34112(9) -0.04049(12)
H7B H 0.403(2) 0.9588(9) 0.3148(11)
H8B H 0.854(2) 0.9641(9) 0.4422(12)
H9B H 0.491(3) 0.9286(9) 0.1947(12)
H10B H 0.962(2) 0.9366(8) 0.3243(10)
H11B H 0.717(2) 0.8956(9) 0.1266(11)
H12B H 0.895(2) 0.8774(8) 0.1821(10)
H13B H 0.637(2) 1.1807(9) -0.1327(11)
H14B H 0.797(2) 1.2150(9) -0.1562(12)
H15B H 0.891(2) 1.3178(8) -0.0758(11)
H16B H 0.441(3) 1.2465(10) -0.0714(12)
H17B H 0.807(2) 1.4190(9) -0.0311(12)
H18B H 0.360(3) 1.3486(9) -0.0306(12)
C23 C 0.0182(3) 0.76980(11) 0.79287(13)
C24 C 0.1114(3) 0.82222(10) 0.77316(12)
C25 C 0.2830(3) 0.82249(10) 0.78960(12)
C26 C 0.3647(3) 0.76760(12) 0.82651(13)
C27 C 0.2745(3) 0.71428(12) 0.84618(14)
C28 C 0.1033(3) 0.71581(11) 0.83054(14)
C29 C -0.1701(3) 0.77201(15) 0.77437(18)
H1 H -0.2067 0.8138 0.7480
H2 H -0.2133 0.7676 0.8263
H3 H -0.2121 0.7360 0.7369
C30 C 0.3805(3) 0.88106(11) 0.76814(15)
H4 H 0.3033 0.9150 0.7427
H5 H 0.4523 0.8678 0.7290
H6 H 0.4490 0.8983 0.8188
H19 H 0.059(3) 0.8577(11) 0.7473(13)
H20 H 0.479(3) 0.7666(11) 0.8348(13)
H21 H 0.336(3) 0.6758(11) 0.8711(14)
H22 H 0.037(3) 0.6811(12) 0.8425(15)
loop_
_geom_bond_atom_site_label_1
_geom_bond_atom_site_label_2
_geom_bond_site_symmetry_1
_geom_bond_site_symmetry_2
Cd1 O1 1_555 1_555
F1 C8 1_555 1_555
F2 C9 1_555 1_555
F3 C10 1_555 1_555
F4 C13 1_555 1_555
F5 C14 1_555 1_555
F6 C15 1_555 1_555
O1 N3 1_555 1_555
O2 N3 1_555 1_555
O3 N3 1_555 1_555
N1 Cd1 1_555 1_555
N2 C21 1_555 1_555
C1 N1 1_555 1_555
C2 N1 1_555 1_555
C3 C1 1_555 1_555
C4 C2 1_555 1_555
C5 C3 1_555 1_555
C6 C5 1_555 1_555
C7 C6 1_555 1_555
C8 C7 1_555 1_555
C9 C7 1_555 1_555
C10 C8 1_555 1_555
C11 C9 1_555 1_555
C12 C10 1_555 1_555
C13 C11 1_555 1_555
C14 C12 1_555 1_555
C15 C14 1_555 1_555
C16 C13 1_555 1_555
C17 C16 1_555 1_555
C18 C17 1_555 1_555
C19 C18 1_555 1_555
C20 C18 1_555 1_555
C21 C19 1_555 1_555
C22 N2 1_555 1_555
C23 C24 1_555 1_555
C24 C25 1_555 1_555
C25 C26 1_555 1_555
C26 C27 1_555 1_555
C27 C28 1_555 1_555
C28 C23 1_555 1_555
C29 C23 1_555 1_555
H1 C29 1_555 1_555
H2 C29 1_555 1_555
H3 C29 1_555 1_555
C30 C25 1_555 1_555
H4 C30 1_555 1_555
H5 C30 1_555 1_555
H6 C30 1_555 1_555
H7 C1 1_555 1_555
H8 C2 1_555 1_555
H9 C3 1_555 1_555
H10 C4 1_555 1_555
H11 C6 1_555 1_555
H12 C6 1_555 1_555
H13 C17 1_555 1_555
H14 C17 1_555 1_555
H15 C19 1_555 1_555
H16 C20 1_555 1_555
H17 C21 1_555 1_555
H18 C22 1_555 1_555
H19 C24 1_555 1_555
H20 C26 1_555 1_555
H21 C27 1_555 1_555
H22 C28 1_555 1_555
Cd1C N2 1_555 1_555
Cd1C_2 N2B 1_555 1_555
F1B C8B 1_555 1_555
F2B C9B 1_555 1_555
F3B C10B 1_555 1_555
F4B C13B 1_555 1_555
F5B C14B 1_555 1_555
F6B C15B 1_555 1_555
O1B Cd1 1_555 1_555
O2B N3B 1_555 1_555
O3B N3B 1_555 1_555
N1B Cd1 1_555 1_555
N2B C21B 1_555 1_555
N2C Cd1 1_555 1_555
N2A Cd1 1_555 1_555
N3B O1B 1_555 1_555
C1B N1B 1_555 1_555
C2B N1B 1_555 1_555
C3B C1B 1_555 1_555
C4B C2B 1_555 1_555
C5B C3B 1_555 1_555
C6B C5B 1_555 1_555
C7B C6B 1_555 1_555
C8B C7B 1_555 1_555
C9B C7B 1_555 1_555
C10B C8B 1_555 1_555
C11B C9B 1_555 1_555
C12B C10B 1_555 1_555
C13B C11B 1_555 1_555
C14B C12B 1_555 1_555
C15B C14B 1_555 1_555
C16B C13B 1_555 1_555
C17B C16B 1_555 1_555
C18B C17B 1_555 1_555
C19B C18B 1_555 1_555
C20B C18B 1_555 1_555
C21B C19B 1_555 1_555
C22B N2B 1_555 1_555
H7B C1B 1_555 1_555
H8B C2B 1_555 1_555
H9B C3B 1_555 1_555
H10B C4B 1_555 1_555
H11B C6B 1_555 1_555
H12B C6B 1_555 1_555
H13B C17B 1_555 1_555
H14B C17B 1_555 1_555
H15B C19B 1_555 1_555
H16B C20B 1_555 1_555
H17B C21B 1_555 1_555
H18B C22B 1_555 1_555
C4 C5 1_555 1_555
C11 C12 1_555 1_555
C15 C16 1_555 1_555
C20 C22 1_555 1_555
C4B C5B 1_555 1_555
C11B C12B 1_555 1_555
C15B C16B 1_555 1_555
C20B C22B 1_555 1_555

#END
