
#######################################################################
#
#                 Cambridge Crystallographic Data Centre
#                                CCDC 
#
#######################################################################
#
# If this CIF has been generated from an entry in the Cambridge 
# Structural Database, then it will include bibliographic, chemical, 
# crystal, experimental, refinement or atomic coordinate data resulting 
# from the CCDC's data processing and validation procedures.
#
#######################################################################

data_MICTAU
_symmetry_cell_setting           orthorhombic
_symmetry_space_group_name_H-M   'P n n n'
_symmetry_Int_Tables_number      48
_space_group_name_Hall           '-P 2ab 2bc'
loop_
_symmetry_equiv_pos_site_id
_symmetry_equiv_pos_as_xyz
1 x,y,z
2 1/2-x,1/2-y,z
3 x,1/2-y,1/2-z
4 1/2-x,y,1/2-z
5 -x,-y,-z
6 1/2+x,1/2+y,-z
7 -x,1/2+y,1/2+z
8 1/2+x,-y,1/2+z
_cell_length_a                   13.494(5)
_cell_length_b                   15.664(5)
_cell_length_c                   26.830(5)
_cell_angle_alpha                90
_cell_angle_beta                 90
_cell_angle_gamma                90
_cell_volume                     5671.06
loop_
_atom_site_label
_atom_site_type_symbol
_atom_site_fract_x
_atom_site_fract_y
_atom_site_fract_z
Cd1 Cd 0.2500 0.2500 -0.2500
Cd2 Cd 0.7500 0.2500 0.2500
F1 F 0.0976(3) 0.0284(3) 0.02190(14)
F2 F 0.4723(2) -0.0946(2) 0.00973(14)
F3 F 0.3578(3) -0.0840(3) -0.07143(15)
F4 F 0.1180(2) 0.0519(3) 0.11487(14)
F5 F 0.2302(3) 0.0302(3) 0.19612(15)
F6 F 0.4874(3) -0.0916(2) 0.10410(14)
O1 O 0.0750(3) 0.2061(3) -0.28115(16)
O2 O -0.0623(5) 0.2500 -0.2500
O3 O 0.6866(3) 0.2088(3) 0.34125(18)
O4 O 0.7500 0.2500 0.4108(2)
N1 N 0.2220(3) 0.1468(3) -0.18755(16)
N2 N 0.0280(5) 0.2500 -0.2500
N3 N 0.6312(3) 0.1454(3) 0.23571(16)
N4 N 0.7500 0.2500 0.3657(2)
C1 C 0.1508(4) 0.0886(4) -0.1924(2)
H1 H 0.1138 0.0868 -0.2225
C2 C 0.2730(4) 0.1484(4) -0.1450(2)
H2 H 0.3243 0.1894 -0.1413
C3 C 0.1287(4) 0.0304(4) -0.1551(2)
H3 H 0.0778 -0.0106 -0.1601
C4 C 0.2542(4) 0.0928(3) -0.10596(19)
H4 H 0.2917 0.0965 -0.0761
C5 C 0.1806(4) 0.0318(4) -0.1106(2)
C6 C 0.1559(5) -0.0327(4) -0.0710(2)
H5 H 0.1608 -0.0905 -0.0857
H6 H 0.0862 -0.0240 -0.0606
C7 C 0.2210(5) -0.0293(4) -0.0249(2)
C8 C 0.3205(4) -0.0625(4) -0.0291(2)
C9 C 0.1890(4) -0.0040(4) 0.0190(2)
C10 C 0.3784(4) -0.0652(4) 0.0130(3)
C11 C 0.2477(4) -0.0070(3) 0.0652(2)
C12 C 0.3415(4) -0.0416(3) 0.0594(2)
C13 C 0.2111(5) 0.0165(4) 0.1109(3)
C14 C 0.3972(4) -0.0541(4) 0.1063(2)
C15 C 0.2662(4) 0.0082(4) 0.1528(2)
C16 C 0.3628(4) -0.0309(4) 0.1508(2)
C17 C 0.4170(4) -0.0479(4) 0.1990(2)
H7 H 0.3681 -0.0529 0.2263
H8 H 0.4524 -0.1030 0.1963
C18 C 0.4902(4) 0.0213(3) 0.2117(2)
C19 C 0.5788(4) 0.0280(4) 0.1860(2)
H9 H 0.5929 -0.0103 0.1595
C20 C 0.4748(4) 0.0788(4) 0.2495(2)
H10 H 0.4148 0.0771 0.2680
C21 C 0.6467(4) 0.0897(4) 0.1987(2)
H11 H 0.7069 0.0929 0.1805
C22 C 0.5464(4) 0.1391(4) 0.2610(2)
H12 H 0.5346 0.1773 0.2878
Cd2_2 Cd -0.2500 0.2500 0.2500
Cd2_3 Cd 0.7500 0.2500 -0.7500
Cd2_4 Cd -0.2500 0.2500 -0.7500
F1A F 0.4024(3) 0.4716(3) 0.02190(14)
F1B F 0.0976(3) 0.4716(3) -0.52190(14)
F1C F 0.4024(3) 0.0284(3) -0.52190(14)
F2A F 0.0277(2) 0.5946(2) 0.00973(14)
F2B F 0.4723(2) 0.5946(2) -0.50973(14)
F2C F 0.0277(2) -0.0946(2) -0.50973(14)
F3A F 0.1422(3) 0.5840(3) -0.07143(15)
F3B F 0.3578(3) 0.5840(3) -0.42857(15)
F3C F 0.1422(3) -0.0840(3) -0.42857(15)
F4A F 0.3820(2) 0.4481(3) 0.11487(14)
F4B F 0.1180(2) 0.4481(3) -0.61487(14)
F4C F 0.3820(2) 0.0519(3) -0.61487(14)
F5A F 0.2698(3) 0.4698(3) 0.19612(15)
F5B F 0.2302(3) 0.4698(3) -0.69612(15)
F5C F 0.2698(3) 0.0302(3) -0.69612(15)
F6A F 0.0126(3) 0.5916(2) 0.10410(14)
F6B F 0.4874(3) 0.5916(2) -0.60410(14)
F6C F 0.0126(3) -0.0916(2) -0.60410(14)
O1B O 0.0750(3) 0.2939(3) -0.21885(16)
O1A O 0.4250(3) 0.2939(3) -0.28115(16)
O1C O 0.4250(3) 0.2061(3) -0.21885(16)
O2A O 0.5623(5) 0.2500 -0.2500
O3A O 0.8134(3) 0.2912(3) 0.34125(18)
O3B O 0.6866(3) 0.2912(3) 0.15875(18)
O3C O 0.8134(3) 0.2088(3) 0.15875(18)
O4B O 0.7500 0.2500 0.0892(2)
N1A N 0.2780(3) 0.3532(3) -0.18755(16)
N1B N 0.2220(3) 0.3532(3) -0.31245(16)
N1C N 0.2780(3) 0.1468(3) -0.31245(16)
N2A N 0.4720(5) 0.2500 -0.2500
N3A N -0.1312(3) 0.3546(3) 0.23571(16)
N3B N 0.6312(3) 0.3546(3) -0.73571(16)
N3C N -0.1312(3) 0.1454(3) -0.73571(16)
N3A_2 N 0.8688(3) 0.3546(3) 0.23571(16)
N3B_2 N 0.6312(3) 0.3546(3) 0.26429(16)
N3C_2 N 0.8688(3) 0.1454(3) 0.26429(16)
N4B N 0.7500 0.2500 0.1343(2)
C1A C 0.3492(4) 0.4114(4) -0.1924(2)
C1B C 0.1508(4) 0.4114(4) -0.3076(2)
C1C C 0.3492(4) 0.0886(4) -0.3076(2)
H1A H 0.3862 0.4132 -0.2225
H1B H 0.1138 0.4132 -0.2775
H1C H 0.3862 0.0868 -0.2775
C2A C 0.2270(4) 0.3516(4) -0.1450(2)
C2B C 0.2730(4) 0.3516(4) -0.3550(2)
C2C C 0.2270(4) 0.1484(4) -0.3550(2)
H2A H 0.1757 0.3106 -0.1413
H2B H 0.3243 0.3106 -0.3587
H2C H 0.1757 0.1894 -0.3587
C3A C 0.3713(4) 0.4696(4) -0.1551(2)
C3B C 0.1287(4) 0.4696(4) -0.3449(2)
C3C C 0.3713(4) 0.0304(4) -0.3449(2)
H3A H 0.4222 0.5106 -0.1601
H3B H 0.0778 0.5106 -0.3399
H3C H 0.4222 -0.0106 -0.3399
C4A C 0.2458(4) 0.4072(3) -0.10596(19)
C4B C 0.2542(4) 0.4072(3) -0.39404(19)
C4C C 0.2458(4) 0.0928(3) -0.39404(19)
H4A H 0.2083 0.4035 -0.0761
H4B H 0.2917 0.4035 -0.4239
H4C H 0.2083 0.0965 -0.4239
C5A C 0.3194(4) 0.4682(4) -0.1106(2)
C5B C 0.1806(4) 0.4682(4) -0.3894(2)
C5C C 0.3194(4) 0.0318(4) -0.3894(2)
C6A C 0.3441(5) 0.5327(4) -0.0710(2)
C6B C 0.1559(5) 0.5327(4) -0.4290(2)
C6C C 0.3441(5) -0.0327(4) -0.4290(2)
H5A H 0.3392 0.5905 -0.0857
H5B H 0.1608 0.5905 -0.4143
H5C H 0.3392 -0.0905 -0.4143
H6A H 0.4138 0.5240 -0.0606
H6B H 0.0862 0.5240 -0.4394
H6C H 0.4138 -0.0240 -0.4394
C7A C 0.2790(5) 0.5293(4) -0.0249(2)
C7B C 0.2210(5) 0.5293(4) -0.4751(2)
C7C C 0.2790(5) -0.0293(4) -0.4751(2)
C8A C 0.1795(4) 0.5625(4) -0.0291(2)
C8B C 0.3205(4) 0.5625(4) -0.4709(2)
C8C C 0.1795(4) -0.0625(4) -0.4709(2)
C9A C 0.3110(4) 0.5040(4) 0.0190(2)
C9B C 0.1890(4) 0.5040(4) -0.5190(2)
C9C C 0.3110(4) -0.0040(4) -0.5190(2)
C10A C 0.1216(4) 0.5652(4) 0.0130(3)
C10B C 0.3784(4) 0.5652(4) -0.5130(3)
C10C C 0.1216(4) -0.0652(4) -0.5130(3)
C11A C 0.2523(4) 0.5070(3) 0.0652(2)
C11B C 0.2477(4) 0.5070(3) -0.5652(2)
C11C C 0.2523(4) -0.0070(3) -0.5652(2)
C12A C 0.1585(4) 0.5416(3) 0.0594(2)
C12B C 0.3415(4) 0.5416(3) -0.5594(2)
C12C C 0.1585(4) -0.0416(3) -0.5594(2)
C13A C 0.2889(5) 0.4835(4) 0.1109(3)
C13B C 0.2111(5) 0.4835(4) -0.6109(3)
C13C C 0.2889(5) 0.0165(4) -0.6109(3)
C14A C 0.1028(4) 0.5541(4) 0.1063(2)
C14B C 0.3972(4) 0.5541(4) -0.6063(2)
C14C C 0.1028(4) -0.0541(4) -0.6063(2)
C15A C 0.2338(4) 0.4918(4) 0.1528(2)
C15B C 0.2662(4) 0.4918(4) -0.6528(2)
C15C C 0.2338(4) 0.0082(4) -0.6528(2)
C16A C 0.1372(4) 0.5309(4) 0.1508(2)
C16B C 0.3628(4) 0.5309(4) -0.6508(2)
C16C C 0.1372(4) -0.0309(4) -0.6508(2)
C17A C 0.0830(4) 0.5479(4) 0.1990(2)
C17B C 0.4170(4) 0.5479(4) -0.6990(2)
C17C C 0.0830(4) -0.0479(4) -0.6990(2)
H7A H 0.1319 0.5529 0.2263
H7B H 0.3681 0.5529 -0.7263
H7C H 0.1319 -0.0529 -0.7263
H8A H 0.0476 0.6030 0.1963
H8B H 0.4524 0.6030 -0.6963
H8C H 0.0476 -0.1030 -0.6963
C18A C 0.0098(4) 0.4787(3) 0.2117(2)
C18B C 0.4902(4) 0.4787(3) -0.7117(2)
C18C C 0.0098(4) 0.0213(3) -0.7117(2)
C19A C -0.0788(4) 0.4720(4) 0.1860(2)
C19B C 0.5788(4) 0.4720(4) -0.6860(2)
C19C C -0.0788(4) 0.0280(4) -0.6860(2)
H9A H -0.0929 0.5103 0.1595
H9B H 0.5929 0.5103 -0.6595
H9C H -0.0929 -0.0103 -0.6595
C20A C 0.0252(4) 0.4212(4) 0.2495(2)
C20B C 0.4748(4) 0.4212(4) -0.7495(2)
C20C C 0.0252(4) 0.0788(4) -0.7495(2)
H10A H 0.0852 0.4229 0.2680
H10B H 0.4148 0.4229 -0.7680
H10C H 0.0852 0.0771 -0.7680
C21A C -0.1467(4) 0.4103(4) 0.1987(2)
C21B C 0.6467(4) 0.4103(4) -0.6987(2)
C21C C -0.1467(4) 0.0897(4) -0.6987(2)
H11A H -0.2069 0.4071 0.1805
H11B H 0.7069 0.4071 -0.6805
H11C H -0.2069 0.0929 -0.6805
C22A C -0.0464(4) 0.3609(4) 0.2610(2)
C22B C 0.5464(4) 0.3609(4) -0.7610(2)
C22C C -0.0464(4) 0.1391(4) -0.7610(2)
H12A H -0.0346 0.3227 0.2878
H12B H 0.5346 0.3227 -0.7878
H12C H -0.0346 0.1773 -0.7878
C23 C 0.2500 0.2500 0.0017(15)
C24 C 0.163(2) 0.2779(15) 0.0128(15)
C25 C 0.161(3) 0.2684(13) 0.0596(9)
C26 C 0.2500 0.2500 0.0919(8)
C27 C 0.2500 0.2500 0.141(2)
C28 C 0.345(2) 0.2328(14) 0.152(2)
C24A C 0.337(2) 0.2221(15) 0.0128(15)
C25A C 0.339(3) 0.2316(13) 0.0596(9)
C28A C 0.155(2) 0.2672(14) 0.152(2)
C29? C 0.427(3) 0.2096(17) 0.1413(12)
C30? C 0.437(2) 0.219(2) 0.0941(19)
C31? C 0.2182(13) 0.7578(15) 0.0773(6)
C32? C 0.2500 0.7500 0.1283(7)
C33? C 0.350(5) 0.718(2) 0.134(2)
C34? C 0.416(9) 0.676(4) 0.116(4)
C35? C 0.3850(11) 0.7086(7) 0.0579(7)
C36? C 0.2915(17) 0.7385(11) 0.0389(9)
C37? C 0.446(5) 0.694(4) 0.104(3)
C38? C 0.405(2) 0.7039(13) 0.0160(9)
loop_
_geom_bond_atom_site_label_1
_geom_bond_atom_site_label_2
_geom_bond_site_symmetry_1
_geom_bond_site_symmetry_2
Cd1 O1 1_555 1_555
Cd2 O3 1_555 1_555
F1 C9 1_555 1_555
F2 C10 1_555 1_555
F3 C8 1_555 1_555
F4 C13 1_555 1_555
F5 C15 1_555 1_555
F6 C14 1_555 1_555
O1 N2 1_555 1_555
O2 N2 1_555 1_555
O3 N4 1_555 1_555
O4 N4 1_555 1_555
N1 Cd1 1_555 1_555
N2 O1B 1_555 1_555
N3 Cd2 1_555 1_555
N4 O3A 1_555 1_555
C1 N1 1_555 1_555
H1 C1 1_555 1_555
C2 N1 1_555 1_555
H2 C2 1_555 1_555
C3 C1 1_555 1_555
H3 C3 1_555 1_555
C4 C2 1_555 1_555
H4 C4 1_555 1_555
C5 C3 1_555 1_555
C6 C5 1_555 1_555
H5 C6 1_555 1_555
H6 C6 1_555 1_555
C7 C6 1_555 1_555
C8 C7 1_555 1_555
C9 C7 1_555 1_555
C10 C8 1_555 1_555
C11 C9 1_555 1_555
C12 C10 1_555 1_555
C13 C11 1_555 1_555
C14 C12 1_555 1_555
C15 C13 1_555 1_555
C16 C14 1_555 1_555
C17 C16 1_555 1_555
H7 C17 1_555 1_555
H8 C17 1_555 1_555
C18 C17 1_555 1_555
C19 C18 1_555 1_555
H9 C19 1_555 1_555
C20 C18 1_555 1_555
H10 C20 1_555 1_555
C21 N3 1_555 1_555
H11 C21 1_555 1_555
C22 N3 1_555 1_555
H12 C22 1_555 1_555
C23 C24 1_555 1_555
C24 C25 1_555 1_555
C25 C26 1_555 1_555
C26 C27 1_555 1_555
C27 C28 1_555 1_555
Cd2_2 N3A 1_555 1_555
Cd2_3 N3B 1_555 1_555
Cd2_4 N3C 1_555 1_555
F1A C9A 1_555 1_555
F1B C9B 1_555 1_555
F1C C9C 1_555 1_555
F2A C10A 1_555 1_555
F2B C10B 1_555 1_555
F2C C10C 1_555 1_555
F3A C8A 1_555 1_555
F3B C8B 1_555 1_555
F3C C8C 1_555 1_555
F4A C13A 1_555 1_555
F4B C13B 1_555 1_555
F4C C13C 1_555 1_555
F5A C15A 1_555 1_555
F5B C15B 1_555 1_555
F5C C15C 1_555 1_555
F6A C14A 1_555 1_555
F6B C14B 1_555 1_555
F6C C14C 1_555 1_555
O1B Cd1 1_555 1_555
O1A Cd1 1_555 1_555
O1C Cd1 1_555 1_555
O2A N2A 1_555 1_555
O3A Cd2 1_555 1_555
O3B Cd2 1_555 1_555
O3C Cd2 1_555 1_555
O4B N4B 1_555 1_555
N1A Cd1 1_555 1_555
N1B Cd1 1_555 1_555
N1C Cd1 1_555 1_555
N2A O1A 1_555 1_555
N3A C21A 1_555 1_555
N3B C21B 1_555 1_555
N3C C21C 1_555 1_555
N3A_2 Cd2 1_555 1_555
N3B_2 Cd2 1_555 1_555
N3C_2 Cd2 1_555 1_555
N4B O3B 1_555 1_555
C1A N1A 1_555 1_555
C1B N1B 1_555 1_555
C1C N1C 1_555 1_555
H1A C1A 1_555 1_555
H1B C1B 1_555 1_555
H1C C1C 1_555 1_555
C2A N1A 1_555 1_555
C2B N1B 1_555 1_555
C2C N1C 1_555 1_555
H2A C2A 1_555 1_555
H2B C2B 1_555 1_555
H2C C2C 1_555 1_555
C3A C1A 1_555 1_555
C3B C1B 1_555 1_555
C3C C1C 1_555 1_555
H3A C3A 1_555 1_555
H3B C3B 1_555 1_555
H3C C3C 1_555 1_555
C4A C2A 1_555 1_555
C4B C2B 1_555 1_555
C4C C2C 1_555 1_555
H4A C4A 1_555 1_555
H4B C4B 1_555 1_555
H4C C4C 1_555 1_555
C5A C3A 1_555 1_555
C5B C3B 1_555 1_555
C5C C3C 1_555 1_555
C6A C5A 1_555 1_555
C6B C5B 1_555 1_555
C6C C5C 1_555 1_555
H5A C6A 1_555 1_555
H5B C6B 1_555 1_555
H5C C6C 1_555 1_555
H6A C6A 1_555 1_555
H6B C6B 1_555 1_555
H6C C6C 1_555 1_555
C7A C6A 1_555 1_555
C7B C6B 1_555 1_555
C7C C6C 1_555 1_555
C8A C7A 1_555 1_555
C8B C7B 1_555 1_555
C8C C7C 1_555 1_555
C9A C7A 1_555 1_555
C9B C7B 1_555 1_555
C9C C7C 1_555 1_555
C10A C8A 1_555 1_555
C10B C8B 1_555 1_555
C10C C8C 1_555 1_555
C11A C9A 1_555 1_555
C11B C9B 1_555 1_555
C11C C9C 1_555 1_555
C12A C10A 1_555 1_555
C12B C10B 1_555 1_555
C12C C10C 1_555 1_555
C13A C11A 1_555 1_555
C13B C11B 1_555 1_555
C13C C11C 1_555 1_555
C14A C12A 1_555 1_555
C14B C12B 1_555 1_555
C14C C12C 1_555 1_555
C15A C13A 1_555 1_555
C15B C13B 1_555 1_555
C15C C13C 1_555 1_555
C16A C14A 1_555 1_555
C16B C14B 1_555 1_555
C16C C14C 1_555 1_555
C17A C16A 1_555 1_555
C17B C16B 1_555 1_555
C17C C16C 1_555 1_555
H7A C17A 1_555 1_555
H7B C17B 1_555 1_555
H7C C17C 1_555 1_555
H8A C17A 1_555 1_555
H8B C17B 1_555 1_555
H8C C17C 1_555 1_555
C18A C17A 1_555 1_555
C18B C17B 1_555 1_555
C18C C17C 1_555 1_555
C19A C18A 1_555 1_555
C19B C18B 1_555 1_555
C19C C18C 1_555 1_555
H9A C19A 1_555 1_555
H9B C19B 1_555 1_555
H9C C19C 1_555 1_555
C20A C18A 1_555 1_555
C20B C18B 1_555 1_555
C20C C18C 1_555 1_555
H10A C20A 1_555 1_555
H10B C20B 1_555 1_555
H10C C20C 1_555 1_555
C21A C19A 1_555 1_555
C21B C19B 1_555 1_555
C21C C19C 1_555 1_555
H11A C21A 1_555 1_555
H11B C21B 1_555 1_555
H11C C21C 1_555 1_555
C22A N3A 1_555 1_555
C22B N3B 1_555 1_555
C22C N3C 1_555 1_555
H12A C22A 1_555 1_555
H12B C22B 1_555 1_555
H12C C22C 1_555 1_555
C24A C23 1_555 1_555
C25A C26 1_555 1_555
C28A C27 1_555 1_555
C4 C5 1_555 1_555
C11 C12 1_555 1_555
C15 C16 1_555 1_555
C19 C21 1_555 1_555
C20 C22 1_555 1_555
O1C N2A 1_555 1_555
O3C N4B 1_555 1_555
C4A C5A 1_555 1_555
C4B C5B 1_555 1_555
C4C C5C 1_555 1_555
C11A C12A 1_555 1_555
C11B C12B 1_555 1_555
C11C C12C 1_555 1_555
C15A C16A 1_555 1_555
C15B C16B 1_555 1_555
C15C C16C 1_555 1_555
C20A C22A 1_555 1_555
C20B C22B 1_555 1_555
C20C C22C 1_555 1_555
C24A C25A 1_555 1_555

#END
