
#######################################################################
#
#                 Cambridge Crystallographic Data Centre
#                                CCDC 
#
#######################################################################
#
# If this CIF has been generated from an entry in the Cambridge 
# Structural Database, then it will include bibliographic, chemical, 
# crystal, experimental, refinement or atomic coordinate data resulting 
# from the CCDC's data processing and validation procedures.
#
#######################################################################

data_MICYII
_symmetry_cell_setting           monoclinic
_symmetry_space_group_name_H-M   'P 21/c'
_symmetry_Int_Tables_number      14
_space_group_name_Hall           '-P 2ybc'
loop_
_symmetry_equiv_pos_site_id
_symmetry_equiv_pos_as_xyz
1 x,y,z
2 -x,1/2+y,1/2-z
3 -x,-y,-z
4 x,1/2-y,1/2+z
_cell_length_a                   7.5649(8)
_cell_length_b                   15.708(3)
_cell_length_c                   34.689(5)
_cell_angle_alpha                90
_cell_angle_beta                 94.689(9)
_cell_angle_gamma                90
_cell_volume                     4108.28
loop_
_atom_site_label
_atom_site_type_symbol
_atom_site_fract_x
_atom_site_fract_y
_atom_site_fract_z
Gd1 Gd 0.38916(5) 0.71071(3) 0.013626(12)
Fe1 Fe -0.16351(15) 0.72184(8) -0.09943(3)
Fe2 Fe 0.68056(17) 0.80914(8) 0.15343(4)
O1 O 0.1747(10) 0.6183(5) 0.0383(3)
O2 O 0.1765(11) 0.8050(6) 0.0389(3)
N1 N 0.1237(10) 0.7267(5) -0.0329(2)
N2 N -0.1974(14) 0.5343(6) -0.0790(3)
N3 N -0.4723(11) 0.7449(5) -0.0484(2)
N4 N 0.1488(12) 0.6814(6) -0.1476(3)
N5 N 0.4659(11) 0.7400(5) 0.0825(2)
N6 N 0.7464(16) 0.6276(8) 0.1809(4)
N7 N 0.9946(14) 0.7900(8) 0.1045(4)
N8 N 0.3386(14) 0.8219(7) 0.1945(3)
N9 N -0.1523(10) 0.8454(5) -0.1109(2)
N10 N -0.3191(9) 0.7229(6) -0.1489(2)
N11 N 0.8218(10) 0.8574(5) 0.1992(2)
N12 N 0.6627(10) 0.9322(5) 0.1377(2)
N13 N 0.5450(10) 0.5690(5) 0.0404(2)
N14 N 0.6059(9) 0.4231(4) 0.0321(2)
C1 C 0.0105(11) 0.7266(6) -0.0561(2)
C2 C -0.1853(13) 0.6024(7) -0.0877(3)
C3 C -0.3606(12) 0.7386(6) -0.0682(3)
C4 C 0.0319(12) 0.6962(6) -0.1304(3)
C5 C 0.5403(12) 0.7670(5) 0.1101(3)
C6 C 0.7151(15) 0.6941(8) 0.1701(3)
C7 C 0.8847(14) 0.7987(7) 0.1243(3)
C8 C 0.4667(15) 0.8178(7) 0.1793(3)
C9 C -0.0783(12) 0.9069(6) -0.0886(3)
H1 H -0.0221 0.8929 -0.0646
C10 C -0.0832(14) 0.9908(7) -0.1004(3)
H2 H -0.0339 1.0329 -0.0840
C11 C -0.1606(15) 1.0122(8) -0.1361(4)
H3 H -0.1590 1.0684 -0.1444
C12 C -0.2413(13) 0.9501(7) -0.1598(3)
C13 C -0.2364(11) 0.8659(6) -0.1457(3)
C14 C -0.3206(11) 0.8013(7) -0.1659(3)
C15 C -0.4093(13) 0.8148(9) -0.2027(3)
C16 C -0.4907(15) 0.7462(12) -0.2212(4)
H4 H -0.5467 0.7531 -0.2458
C17 C -0.4911(15) 0.6692(11) -0.2041(4)
H5 H -0.5505 0.6237 -0.2165
C18 C -0.3993(14) 0.6582(8) -0.1669(3)
H6 H -0.3961 0.6048 -0.1553
C19 C -0.4057(15) 0.8999(10) -0.2175(3)
H7 H -0.4592 0.9114 -0.2421
C20 C -0.3283(16) 0.9624(10) -0.1971(4)
H8 H -0.3309 1.0168 -0.2077
C21 C 0.9020(14) 0.8190(8) 0.2294(3)
H9 H 0.8972 0.7599 0.2305
C22 C 0.9923(16) 0.8616(9) 0.2593(3)
H10 H 1.0476 0.8312 0.2799
C23 C 1.0019(15) 0.9485(11) 0.2590(3)
H11 H 1.0630 0.9777 0.2793
C24 C 0.9161(13) 0.9933(7) 0.2270(3)
C25 C 0.8295(12) 0.9436(6) 0.1981(3)
C26 C 0.7457(12) 0.9836(6) 0.1652(3)
C27 C 0.7512(13) 1.0724(6) 0.1609(3)
C28 C 0.6704(14) 1.1056(7) 0.1264(4)
H12 H 0.6715 1.1640 0.1222
C29 C 0.5905(14) 1.0534(7) 0.0992(3)
H13 H 0.5366 1.0762 0.0764
C30 C 0.5892(13) 0.9650(7) 0.1054(3)
H14 H 0.5358 0.9294 0.0864
C31 C 0.8415(14) 1.1197(7) 0.1917(4)
H15 H 0.8481 1.1787 0.1896
C32 C 0.9146(15) 1.0827(8) 0.2225(4)
H16 H 0.9679 1.1162 0.2422
C33 C 0.6232(16) 0.5641(7) 0.0768(3)
H17 H 0.6313 0.6129 0.0919
C34 C 0.6905(14) 0.4897(6) 0.0919(3)
H18 H 0.7444 0.4868 0.1169
C35 C 0.6751(12) 0.4197(6) 0.0686(3)
H19 H 0.7145 0.3675 0.0786
C36 C 0.5407(11) 0.4981(5) 0.0199(2)
O3 O 0.501(2) 0.8503(7) 0.0145(4)
N15 N 0.683(2) 0.8197(11) 0.0172(5)
O4 O 0.7172(9) 0.7332(5) 0.0246(2)
O5 O 0.8435(13) 0.8629(8) 0.0134(4)
N13B N 0.4550(10) 0.4310(5) -0.0404(2)
N14B N 0.3941(9) 0.5769(4) -0.0321(2)
C33B C 0.3768(16) 0.4359(7) -0.0768(3)
H17B H 0.3687 0.3871 -0.0919
C34B C 0.3095(14) 0.5103(6) -0.0919(3)
H18B H 0.2556 0.5132 -0.1169
C35B C 0.3249(12) 0.5803(6) -0.0686(3)
H19B H 0.2855 0.6325 -0.0786
C36B C 0.4593(11) 0.5019(5) -0.0199(2)
Gd1B Gd 0.61084(5) 0.28929(3) -0.013626(12)
Fe1B Fe 1.16351(15) 0.27816(8) 0.09943(3)
Fe2B Fe 0.31944(17) 0.19086(8) -0.15343(4)
O1B O 0.8253(10) 0.3817(5) -0.0383(3)
O2B O 0.8235(11) 0.1950(6) -0.0389(3)
N1B N 0.8763(10) 0.2733(5) 0.0329(2)
N2B N 1.1974(14) 0.4657(6) 0.0790(3)
N3B N 1.4723(11) 0.2551(5) 0.0484(2)
N4B N 0.8512(12) 0.3186(6) 0.1476(3)
N5B N 0.5341(11) 0.2600(5) -0.0825(2)
N6B N 0.2536(16) 0.3724(8) -0.1809(4)
N7B N 0.0054(14) 0.2100(8) -0.1045(4)
N8B N 0.6614(14) 0.1781(7) -0.1945(3)
N9B N 1.1523(10) 0.1546(5) 0.1109(2)
N10B N 1.3191(9) 0.2771(6) 0.1489(2)
N11B N 0.1782(10) 0.1426(5) -0.1992(2)
N12B N 0.3373(10) 0.0678(5) -0.1377(2)
C1B C 0.9895(11) 0.2734(6) 0.0561(2)
C2B C 1.1853(13) 0.3976(7) 0.0877(3)
C3B C 1.3606(12) 0.2614(6) 0.0682(3)
C4B C 0.9681(12) 0.3038(6) 0.1304(3)
C5B C 0.4597(12) 0.2330(5) -0.1101(3)
C6B C 0.2849(15) 0.3059(8) -0.1701(3)
C7B C 0.1153(14) 0.2013(7) -0.1243(3)
C8B C 0.5333(15) 0.1822(7) -0.1793(3)
C9B C 1.0783(12) 0.0931(6) 0.0886(3)
H1B H 1.0221 0.1071 0.0646
C10B C 1.0832(14) 0.0092(7) 0.1004(3)
H2B H 1.0339 -0.0329 0.0840
C11B C 1.1606(15) -0.0122(8) 0.1361(4)
H3B H 1.1590 -0.0684 0.1444
C12B C 1.2413(13) 0.0499(7) 0.1598(3)
C13B C 1.2364(11) 0.1341(6) 0.1457(3)
C14B C 1.3206(11) 0.1987(7) 0.1659(3)
C15B C 1.4093(13) 0.1852(9) 0.2027(3)
C16B C 1.4907(15) 0.2538(12) 0.2212(4)
H4B H 1.5467 0.2469 0.2458
C17B C 1.4911(15) 0.3308(11) 0.2041(4)
H5B H 1.5505 0.3763 0.2165
C18B C 1.3993(14) 0.3418(8) 0.1669(3)
H6B H 1.3961 0.3952 0.1553
C19B C 1.4057(15) 0.1001(10) 0.2175(3)
H7B H 1.4592 0.0886 0.2421
C20B C 1.3283(16) 0.0376(10) 0.1971(4)
H8B H 1.3309 -0.0168 0.2077
C21B C 0.0980(14) 0.1810(8) -0.2294(3)
H9B H 0.1028 0.2401 -0.2305
C22B C 0.0077(16) 0.1384(9) -0.2593(3)
H10B H -0.0476 0.1688 -0.2799
C23B C -0.0019(15) 0.0515(11) -0.2590(3)
H11B H -0.0630 0.0223 -0.2793
C24B C 0.0839(13) 0.0067(7) -0.2270(3)
C25B C 0.1705(12) 0.0564(6) -0.1981(3)
C26B C 0.2543(12) 0.0164(6) -0.1652(3)
C27B C 0.2488(13) -0.0724(6) -0.1609(3)
C28B C 0.3296(14) -0.1056(7) -0.1264(4)
H12B H 0.3285 -0.1640 -0.1222
C29B C 0.4095(14) -0.0534(7) -0.0992(3)
H13B H 0.4634 -0.0762 -0.0764
C30B C 0.4108(13) 0.0350(7) -0.1054(3)
H14B H 0.4642 0.0706 -0.0864
C31B C 0.1585(14) -0.1197(7) -0.1917(4)
H15B H 0.1519 -0.1787 -0.1896
C32B C 0.0854(15) -0.0827(8) -0.2225(4)
H16B H 0.0321 -0.1162 -0.2422
O3B O 0.499(2) 0.1497(7) -0.0145(4)
N15B N 0.317(2) 0.1803(11) -0.0172(5)
O4B O 0.2828(9) 0.2668(5) -0.0246(2)
O5B O 0.1565(13) 0.1371(8) -0.0134(4)
Gd1_2 Gd -0.61084(5) 0.71071(3) 0.013626(12)
Gd1B_2 Gd 1.61084(5) 0.28929(3) -0.013626(12)
N3_2 N 0.5277(11) 0.7449(5) -0.0484(2)
N3B_2 N 0.4723(11) 0.2551(5) 0.0484(2)
O6 O 0.702(4) 0.9748(13) -0.0141(6)
N16 N 0.348(2) 0.5341(12) 0.2009(5)
C37 C 0.188(2) 0.6257(11) 0.1519(6)
H20 H 0.0844 0.6483 0.1625
H21 H 0.1533 0.5944 0.1287
H22 H 0.2651 0.6716 0.1460
C38 C 0.275(2) 0.5727(12) 0.1783(5)
loop_
_geom_bond_atom_site_label_1
_geom_bond_atom_site_label_2
_geom_bond_site_symmetry_1
_geom_bond_site_symmetry_2
Gd1 O1 1_555 1_555
Fe1 N9 1_555 1_555
Fe2 N11 1_555 1_555
O2 Gd1 1_555 1_555
N1 Gd1 1_555 1_555
N2 C2 1_555 1_555
N3 C3 1_555 1_555
N4 C4 1_555 1_555
N5 Gd1 1_555 1_555
N6 C6 1_555 1_555
N7 C7 1_555 1_555
N8 C8 1_555 1_555
N9 C9 1_555 1_555
N10 Fe1 1_555 1_555
N11 C21 1_555 1_555
N12 Fe2 1_555 1_555
N13 Gd1 1_555 1_555
N14 C35 1_555 1_555
C1 Fe1 1_555 1_555
C2 Fe1 1_555 1_555
C3 Fe1 1_555 1_555
C4 Fe1 1_555 1_555
C5 Fe2 1_555 1_555
C6 Fe2 1_555 1_555
C7 Fe2 1_555 1_555
C8 Fe2 1_555 1_555
C9 H1 1_555 1_555
C10 C9 1_555 1_555
H2 C10 1_555 1_555
C11 C10 1_555 1_555
H3 C11 1_555 1_555
C12 C11 1_555 1_555
C13 N9 1_555 1_555
C14 N10 1_555 1_555
C15 C14 1_555 1_555
C16 C15 1_555 1_555
H4 C16 1_555 1_555
C17 C16 1_555 1_555
H5 C17 1_555 1_555
C18 N10 1_555 1_555
H6 C18 1_555 1_555
C19 C15 1_555 1_555
H7 C19 1_555 1_555
C20 C12 1_555 1_555
H8 C20 1_555 1_555
C21 H9 1_555 1_555
C22 C21 1_555 1_555
H10 C22 1_555 1_555
C23 C22 1_555 1_555
H11 C23 1_555 1_555
C24 C23 1_555 1_555
C25 N11 1_555 1_555
C26 N12 1_555 1_555
C27 C26 1_555 1_555
C28 C27 1_555 1_555
H12 C28 1_555 1_555
C29 C28 1_555 1_555
H13 C29 1_555 1_555
C30 N12 1_555 1_555
H14 C30 1_555 1_555
C31 C27 1_555 1_555
H15 C31 1_555 1_555
C32 C24 1_555 1_555
H16 C32 1_555 1_555
C33 N13 1_555 1_555
H17 C33 1_555 1_555
C34 C33 1_555 1_555
H18 C34 1_555 1_555
C35 C34 1_555 1_555
H19 C35 1_555 1_555
C36 N13 1_555 1_555
O3 Gd1 1_555 1_555
N15 O3 1_555 1_555
O4 Gd1 1_555 1_555
O5 N15 1_555 1_555
N16 C38 1_555 1_555
C37 H20 1_555 1_555
H21 C37 1_555 1_555
H22 C37 1_555 1_555
C38 C37 1_555 1_555
N13B C33B 1_555 1_555
N14B Gd1 1_555 1_555
C33B H17B 1_555 1_555
C34B C33B 1_555 1_555
H18B C34B 1_555 1_555
C35B N14B 1_555 1_555
H19B C35B 1_555 1_555
C36B C36 1_555 1_555
Gd1B N14 1_555 1_555
Fe1B N9B 1_555 1_555
Fe2B N11B 1_555 1_555
O1B Gd1B 1_555 1_555
O2B Gd1B 1_555 1_555
N1B Gd1B 1_555 1_555
N2B C2B 1_555 1_555
N3B C3B 1_555 1_555
N4B C4B 1_555 1_555
N5B Gd1B 1_555 1_555
N6B C6B 1_555 1_555
N7B C7B 1_555 1_555
N8B C8B 1_555 1_555
N9B C9B 1_555 1_555
N10B Fe1B 1_555 1_555
N11B C21B 1_555 1_555
N12B Fe2B 1_555 1_555
C1B Fe1B 1_555 1_555
C2B Fe1B 1_555 1_555
C3B Fe1B 1_555 1_555
C4B Fe1B 1_555 1_555
C5B Fe2B 1_555 1_555
C6B Fe2B 1_555 1_555
C7B Fe2B 1_555 1_555
C8B Fe2B 1_555 1_555
C9B H1B 1_555 1_555
C10B C9B 1_555 1_555
H2B C10B 1_555 1_555
C11B C10B 1_555 1_555
H3B C11B 1_555 1_555
C12B C11B 1_555 1_555
C13B N9B 1_555 1_555
C14B N10B 1_555 1_555
C15B C14B 1_555 1_555
C16B C15B 1_555 1_555
H4B C16B 1_555 1_555
C17B C16B 1_555 1_555
H5B C17B 1_555 1_555
C18B N10B 1_555 1_555
H6B C18B 1_555 1_555
C19B C15B 1_555 1_555
H7B C19B 1_555 1_555
C20B C12B 1_555 1_555
H8B C20B 1_555 1_555
C21B H9B 1_555 1_555
C22B C21B 1_555 1_555
H10B C22B 1_555 1_555
C23B C22B 1_555 1_555
H11B C23B 1_555 1_555
C24B C23B 1_555 1_555
C25B N11B 1_555 1_555
C26B N12B 1_555 1_555
C27B C26B 1_555 1_555
C28B C27B 1_555 1_555
H12B C28B 1_555 1_555
C29B C28B 1_555 1_555
H13B C29B 1_555 1_555
C30B N12B 1_555 1_555
H14B C30B 1_555 1_555
C31B C27B 1_555 1_555
H15B C31B 1_555 1_555
C32B C24B 1_555 1_555
H16B C32B 1_555 1_555
O3B Gd1B 1_555 1_555
N15B O3B 1_555 1_555
O4B Gd1B 1_555 1_555
O5B N15B 1_555 1_555
Gd1_2 N3 1_555 1_555
Gd1B_2 N3B 1_555 1_555
N3_2 Gd1 1_555 1_555
N3B_2 Gd1B 1_555 1_555
N1 C1 1_555 1_555
N5 C5 1_555 1_555
N14 C36 1_555 1_555
C12 C13 1_555 1_555
C13 C14 1_555 1_555
C17 C18 1_555 1_555
C19 C20 1_555 1_555
C24 C25 1_555 1_555
C25 C26 1_555 1_555
C29 C30 1_555 1_555
C31 C32 1_555 1_555
N15 O4 1_555 1_555
N13B C36B 1_555 1_555
N13B Gd1B 1_555 1_555
N14B C36B 1_555 1_555
C34B C35B 1_555 1_555
N1B C1B 1_555 1_555
N5B C5B 1_555 1_555
C12B C13B 1_555 1_555
C13B C14B 1_555 1_555
C17B C18B 1_555 1_555
C19B C20B 1_555 1_555
C24B C25B 1_555 1_555
C25B C26B 1_555 1_555
C29B C30B 1_555 1_555
C31B C32B 1_555 1_555
N15B O4B 1_555 1_555

#END
