
#######################################################################
#
#                 Cambridge Crystallographic Data Centre
#                                CCDC 
#
#######################################################################
#
# If this CIF has been generated from an entry in the Cambridge 
# Structural Database, then it will include bibliographic, chemical, 
# crystal, experimental, refinement or atomic coordinate data resulting 
# from the CCDC's data processing and validation procedures.
#
#######################################################################

data_MICYUU
_symmetry_cell_setting           monoclinic
_symmetry_space_group_name_H-M   'P 21/c'
_symmetry_Int_Tables_number      14
_space_group_name_Hall           '-P 2ybc'
loop_
_symmetry_equiv_pos_site_id
_symmetry_equiv_pos_as_xyz
1 x,y,z
2 -x,1/2+y,1/2-z
3 -x,-y,-z
4 x,1/2-y,1/2+z
_cell_length_a                   7.6360(2)
_cell_length_b                   15.8490(3)
_cell_length_c                   34.9820(9)
_cell_angle_alpha                90
_cell_angle_beta                 94.9910(10)
_cell_angle_gamma                90
_cell_volume                     4217.57
loop_
_atom_site_label
_atom_site_type_symbol
_atom_site_fract_x
_atom_site_fract_y
_atom_site_fract_z
N16 N 0.346(4) 0.5367(17) 0.2008(8)
C37 C 0.186(4) 0.6273(13) 0.1507(8)
H20 H 0.0832 0.6500 0.1608
H21 H 0.1525 0.5960 0.1278
H22 H 0.2631 0.6726 0.1449
C38 C 0.273(3) 0.5740(17) 0.1779(8)
Sm1 Sm 0.38866(7) 0.71148(4) 0.013883(17)
O1 O 0.1732(17) 0.8044(9) 0.0399(4)
O2 O 0.1740(16) 0.6171(9) 0.0394(4)
O3 O 0.550(3) 0.8447(12) 0.0176(7)
O4 O 0.7224(15) 0.7310(7) 0.0249(3)
N1 N 0.1211(14) 0.7283(7) -0.0331(3)
N2 N 0.4663(15) 0.7411(8) 0.0840(3)
N3 N 0.5451(17) 0.5686(6) 0.0410(3)
O5 O 0.442(3) 0.8634(18) 0.0071(9)
N4 N 0.3956(13) 0.5765(6) -0.0321(3)
N5 N 0.5285(15) 0.7456(8) -0.0491(4)
N6 N 0.707(2) 0.8098(13) 0.0180(5)
C1 C 0.0061(16) 0.7263(8) -0.0562(4)
C2 C 0.5432(17) 0.7667(8) 0.1109(4)
C3 C 0.623(2) 0.5648(9) 0.0775(5)
C4 C 0.5453(15) 0.4976(7) 0.0196(3)
C5 C 0.3247(18) 0.5796(8) -0.0685(4)
O6 O 0.834(4) 0.8632(18) 0.0110(15)
Fe1 Fe -0.1640(2) 0.72236(11) -0.09962(5)
Fe2 Fe 0.6817(2) 0.80991(11) 0.15376(5)
H1 H 0.6335 0.6135 0.0924
C6 C 0.688(2) 0.4892(8) 0.0927(4)
H2 H 0.2816 0.6311 -0.0780
N7 N -0.1509(14) 0.8445(8) -0.1112(3)
N8 N -0.3194(14) 0.7222(8) -0.1490(3)
C7 C -0.1851(18) 0.6020(10) -0.0888(4)
C8 C -0.3611(16) 0.7402(8) -0.0680(4)
C9 C 0.0313(17) 0.6953(7) -0.1301(4)
N9 N 0.8216(14) 0.8584(7) 0.1994(3)
N10 N 0.6636(14) 0.9335(7) 0.1380(3)
C10 C 0.716(2) 0.6926(11) 0.1705(5)
C11 C 0.884(2) 0.8008(10) 0.1240(5)
C12 C 0.465(2) 0.8181(10) 0.1799(4)
H3 H 0.7369 0.4851 0.1178
C13 C -0.0799(18) 0.9075(9) -0.0897(4)
C14 C -0.2366(15) 0.8655(9) -0.1456(4)
C15 C -0.3212(17) 0.8017(9) -0.1660(4)
C16 C -0.3993(19) 0.6578(10) -0.1671(5)
N11 N -0.197(2) 0.5328(9) -0.0798(5)
N12 N 0.1471(16) 0.6816(9) -0.1473(4)
C17 C 0.904(2) 0.8202(11) 0.2292(5)
C18 C 0.8312(17) 0.9456(8) 0.1979(4)
C19 C 0.7460(17) 0.9839(9) 0.1655(4)
C20 C 0.5898(18) 0.9655(9) 0.1061(4)
N13 N 0.746(2) 0.6275(9) 0.1813(6)
N14 N 0.994(2) 0.7920(11) 0.1044(6)
N15 N 0.3383(18) 0.8211(9) 0.1946(4)
H4 H -0.0241 0.8944 -0.0658
C21 C -0.085(2) 0.9918(9) -0.1012(5)
C22 C -0.2401(17) 0.9490(9) -0.1598(4)
C23 C -0.4094(19) 0.8136(11) -0.2030(4)
C24 C -0.491(2) 0.6692(14) -0.2041(6)
H5 H -0.3957 0.6047 -0.1557
H6 H 0.9028 0.7616 0.2301
C25 C 0.993(2) 0.8644(12) 0.2594(4)
C26 C 0.9164(19) 0.9951(9) 0.2279(4)
C27 C 0.7516(19) 1.0720(8) 0.1604(5)
C28 C 0.592(2) 1.0542(9) 0.0993(5)
H7 H 0.5352 0.9299 0.0875
H8 H -0.0354 1.0333 -0.0848
C29 C -0.160(2) 1.0129(9) -0.1356(5)
C30 C -0.330(2) 0.9587(15) -0.1980(6)
C31 C -0.491(2) 0.7479(14) -0.2205(5)
C32 C -0.407(2) 0.8981(13) -0.2181(5)
H9 H -0.5493 0.6244 -0.2168
H10 H 1.0470 0.8347 0.2803
C33 C 1.004(2) 0.9504(13) 0.2589(4)
C34 C 0.916(2) 1.0840(12) 0.2227(6)
C35 C 0.6701(19) 1.1057(10) 0.1270(5)
C36 C 0.838(2) 1.1211(10) 0.1911(5)
H11 H 0.5416 1.0766 0.0764
H12 H -0.1596 1.0687 -0.1438
H13 H -0.3329 1.0123 -0.2088
H14 H -0.5509 0.7557 -0.2446
H15 H -0.4614 0.9095 -0.2425
H16 H 1.0669 0.9793 0.2788
H17 H 0.9722 1.1177 0.2418
H18 H 0.6684 1.1638 0.1234
H19 H 0.8391 1.1796 0.1891
C4B C 0.4547(15) 0.5024(7) -0.0196(3)
N4B N 0.6044(13) 0.4235(6) 0.0321(3)
C6B C 0.312(2) 0.5108(8) -0.0927(4)
N3B N 0.4549(17) 0.4314(6) -0.0410(3)
C5B C 0.6753(18) 0.4204(8) 0.0685(4)
Sm1B Sm 0.61134(7) 0.28852(4) -0.013883(17)
C3B C 0.377(2) 0.4352(9) -0.0775(5)
H3B H 0.2631 0.5149 -0.1178
N5_2 N -0.4715(15) 0.7456(8) -0.0491(4)
H2B H 0.7184 0.3689 0.0780
O1B O 0.8268(17) 0.1956(9) -0.0399(4)
O2B O 0.8260(16) 0.3829(9) -0.0394(4)
O3B O 0.450(3) 0.1553(12) -0.0176(7)
O4B O 0.2776(15) 0.2690(7) -0.0249(3)
N1B N 0.8789(14) 0.2717(7) 0.0331(3)
N2B N 0.5337(15) 0.2589(8) -0.0840(3)
O5B O 0.558(3) 0.1366(18) -0.0071(9)
N5B N 0.4715(15) 0.2544(8) 0.0491(4)
H1B H 0.3665 0.3865 -0.0924
Sm1_2 Sm -0.61134(7) 0.71148(4) 0.013883(17)
N6B N 0.293(2) 0.1902(13) -0.0180(5)
C1B C 0.9939(16) 0.2737(8) 0.0562(4)
C2B C 0.4568(17) 0.2333(8) -0.1109(4)
O6B O 0.166(4) 0.1368(18) -0.0110(15)
Fe1B Fe 1.1640(2) 0.27764(11) 0.09962(5)
Fe2B Fe 0.3183(2) 0.19009(11) -0.15376(5)
N7B N 1.1509(14) 0.1555(8) 0.1112(3)
N8B N 1.3194(14) 0.2778(8) 0.1490(3)
C7B C 1.1851(18) 0.3980(10) 0.0888(4)
C8B C 1.3611(16) 0.2598(8) 0.0680(4)
C9B C 0.9687(17) 0.3047(7) 0.1301(4)
N9B N 0.1784(14) 0.1416(7) -0.1994(3)
N10B N 0.3364(14) 0.0665(7) -0.1380(3)
C10B C 0.284(2) 0.3074(11) -0.1705(5)
C11B C 0.116(2) 0.1992(10) -0.1240(5)
C12B C 0.535(2) 0.1819(10) -0.1799(4)
C13B C 1.0799(18) 0.0925(9) 0.0897(4)
C14B C 1.2366(15) 0.1345(9) 0.1456(4)
C15B C 1.3212(17) 0.1983(9) 0.1660(4)
C16B C 1.3993(19) 0.3422(10) 0.1671(5)
N11B N 1.197(2) 0.4672(9) 0.0798(5)
N5B_2 N 1.4715(15) 0.2544(8) 0.0491(4)
N12B N 0.8529(16) 0.3184(9) 0.1473(4)
C17B C 0.096(2) 0.1798(11) -0.2292(5)
C18B C 0.1688(17) 0.0544(8) -0.1979(4)
C19B C 0.2540(17) 0.0161(9) -0.1655(4)
C20B C 0.4102(18) 0.0345(9) -0.1061(4)
N13B N 0.254(2) 0.3725(9) -0.1813(6)
N14B N 0.006(2) 0.2080(11) -0.1044(6)
N15B N 0.6617(18) 0.1789(9) -0.1946(4)
H4B H 1.0241 0.1056 0.0658
C21B C 1.085(2) 0.0082(9) 0.1012(5)
C22B C 1.2401(17) 0.0510(9) 0.1598(4)
C23B C 1.4094(19) 0.1864(11) 0.2030(4)
C24B C 1.491(2) 0.3308(14) 0.2041(6)
H5B H 1.3957 0.3953 0.1557
Sm1B_2 Sm 1.61134(7) 0.28852(4) -0.013883(17)
H6B H 0.0972 0.2384 -0.2301
C25B C 0.007(2) 0.1356(12) -0.2594(4)
C26B C 0.0836(19) 0.0049(9) -0.2279(4)
C27B C 0.2484(19) -0.0720(8) -0.1604(5)
C28B C 0.408(2) -0.0542(9) -0.0993(5)
H7B H 0.4648 0.0701 -0.0875
H8B H 1.0354 -0.0333 0.0848
C29B C 1.160(2) -0.0129(9) 0.1356(5)
C30B C 1.330(2) 0.0413(15) 0.1980(6)
C31B C 1.491(2) 0.2521(14) 0.2205(5)
C32B C 1.407(2) 0.1019(13) 0.2181(5)
H9B H 1.5493 0.3756 0.2168
H10B H -0.0470 0.1653 -0.2803
C33B C -0.004(2) 0.0496(13) -0.2589(4)
C34B C 0.084(2) -0.0840(12) -0.2227(6)
C35B C 0.3299(19) -0.1057(10) -0.1270(5)
C36B C 0.162(2) -0.1211(10) -0.1911(5)
H11B H 0.4584 -0.0766 -0.0764
H12B H 1.1596 -0.0687 0.1438
H13B H 1.3329 -0.0123 0.2088
H14B H 1.5509 0.2443 0.2446
H15B H 1.4614 0.0905 0.2425
H16B H -0.0669 0.0207 -0.2788
H17B H 0.0278 -0.1177 -0.2418
H18B H 0.3316 -0.1638 -0.1234
H19B H 0.1609 -0.1796 -0.1891
O7? O 0.677(2) 0.9803(19) -0.0173(8)
O8? O 0.883(5) 0.881(2) 0.0084(17)
O9? O 0.940(9) 1.020(3) 0.0046(18)
N17? N 0.829(3) 0.9565(17) -0.0016(6)
loop_
_geom_bond_atom_site_label_1
_geom_bond_atom_site_label_2
_geom_bond_site_symmetry_1
_geom_bond_site_symmetry_2
Sm1 O1 1_555 1_555
O2 Sm1 1_555 1_555
O3 Sm1 1_555 1_555
O4 Sm1 1_555 1_555
N1 Sm1 1_555 1_555
N2 Sm1 1_555 1_555
N3 Sm1 1_555 1_555
O5 Sm1 1_555 1_555
N4 Sm1 1_555 1_555
N5 Sm1 1_555 1_555
N6 O3 1_555 1_555
C1 N1 1_555 1_555
C2 N2 1_555 1_555
C3 N3 1_555 1_555
C4 N3 1_555 1_555
C5 N4 1_555 1_555
O6 N6 1_555 1_555
Fe1 C1 1_555 1_555
Fe2 C2 1_555 1_555
H1 C3 1_555 1_555
C6 C3 1_555 1_555
H2 C5 1_555 1_555
N7 Fe1 1_555 1_555
N8 Fe1 1_555 1_555
C7 Fe1 1_555 1_555
C8 Fe1 1_555 1_555
C9 Fe1 1_555 1_555
N9 Fe2 1_555 1_555
N10 Fe2 1_555 1_555
C10 Fe2 1_555 1_555
C11 Fe2 1_555 1_555
C12 Fe2 1_555 1_555
H3 C6 1_555 1_555
C13 N7 1_555 1_555
C14 N7 1_555 1_555
C15 N8 1_555 1_555
C16 N8 1_555 1_555
N11 C7 1_555 1_555
N12 C9 1_555 1_555
C17 N9 1_555 1_555
C18 N9 1_555 1_555
C19 N10 1_555 1_555
C20 N10 1_555 1_555
N13 C10 1_555 1_555
N14 C11 1_555 1_555
N15 C12 1_555 1_555
H4 C13 1_555 1_555
C21 C13 1_555 1_555
C22 C14 1_555 1_555
C23 C15 1_555 1_555
C24 C16 1_555 1_555
H5 C16 1_555 1_555
H6 C17 1_555 1_555
C25 C17 1_555 1_555
C26 C18 1_555 1_555
C27 C19 1_555 1_555
C28 C20 1_555 1_555
H7 C20 1_555 1_555
H8 C21 1_555 1_555
C29 C21 1_555 1_555
C30 C22 1_555 1_555
C31 C23 1_555 1_555
C32 C23 1_555 1_555
H9 C24 1_555 1_555
H10 C25 1_555 1_555
C33 C25 1_555 1_555
C34 C26 1_555 1_555
C35 C27 1_555 1_555
C36 C27 1_555 1_555
H11 C28 1_555 1_555
H12 C29 1_555 1_555
H13 C30 1_555 1_555
H14 C31 1_555 1_555
H15 C32 1_555 1_555
H16 C33 1_555 1_555
H17 C34 1_555 1_555
H18 C35 1_555 1_555
H19 C36 1_555 1_555
N16 C38 1_555 1_555
C37 H20 1_555 1_555
H21 C37 1_555 1_555
H22 C37 1_555 1_555
C38 C37 1_555 1_555
C4B N4 1_555 1_555
N4B C4 1_555 1_555
C6B C5 1_555 1_555
N3B C4B 1_555 1_555
C5B C6 1_555 1_555
Sm1B N4B 1_555 1_555
C3B C6B 1_555 1_555
H3B C6B 1_555 1_555
N5_2 C8 1_555 1_555
H2B C5B 1_555 1_555
O1B Sm1B 1_555 1_555
O2B Sm1B 1_555 1_555
O3B Sm1B 1_555 1_555
O4B Sm1B 1_555 1_555
N1B Sm1B 1_555 1_555
N2B Sm1B 1_555 1_555
O5B Sm1B 1_555 1_555
N5B Sm1B 1_555 1_555
H1B C3B 1_555 1_555
Sm1_2 N5_2 1_555 1_555
N6B O3B 1_555 1_555
C1B N1B 1_555 1_555
C2B N2B 1_555 1_555
O6B N6B 1_555 1_555
Fe1B C1B 1_555 1_555
Fe2B C2B 1_555 1_555
N7B Fe1B 1_555 1_555
N8B Fe1B 1_555 1_555
C7B Fe1B 1_555 1_555
C8B Fe1B 1_555 1_555
C9B Fe1B 1_555 1_555
N9B Fe2B 1_555 1_555
N10B Fe2B 1_555 1_555
C10B Fe2B 1_555 1_555
C11B Fe2B 1_555 1_555
C12B Fe2B 1_555 1_555
C13B N7B 1_555 1_555
C14B N7B 1_555 1_555
C15B N8B 1_555 1_555
C16B N8B 1_555 1_555
N11B C7B 1_555 1_555
N5B_2 C8B 1_555 1_555
N12B C9B 1_555 1_555
C17B N9B 1_555 1_555
C18B N9B 1_555 1_555
C19B N10B 1_555 1_555
C20B N10B 1_555 1_555
N13B C10B 1_555 1_555
N14B C11B 1_555 1_555
N15B C12B 1_555 1_555
H4B C13B 1_555 1_555
C21B C13B 1_555 1_555
C22B C14B 1_555 1_555
C23B C15B 1_555 1_555
C24B C16B 1_555 1_555
H5B C16B 1_555 1_555
Sm1B_2 N5B_2 1_555 1_555
H6B C17B 1_555 1_555
C25B C17B 1_555 1_555
C26B C18B 1_555 1_555
C27B C19B 1_555 1_555
C28B C20B 1_555 1_555
H7B C20B 1_555 1_555
H8B C21B 1_555 1_555
C29B C21B 1_555 1_555
C30B C22B 1_555 1_555
C31B C23B 1_555 1_555
C32B C23B 1_555 1_555
H9B C24B 1_555 1_555
H10B C25B 1_555 1_555
C33B C25B 1_555 1_555
C34B C26B 1_555 1_555
C35B C27B 1_555 1_555
C36B C27B 1_555 1_555
H11B C28B 1_555 1_555
H12B C29B 1_555 1_555
H13B C30B 1_555 1_555
H14B C31B 1_555 1_555
H15B C32B 1_555 1_555
H16B C33B 1_555 1_555
H17B C34B 1_555 1_555
H18B C35B 1_555 1_555
H19B C36B 1_555 1_555
O4 N6 1_555 1_555
C4 C4B 1_555 1_555
C14 C15 1_555 1_555
C18 C19 1_555 1_555
C22 C29 1_555 1_555
C24 C31 1_555 1_555
C26 C33 1_555 1_555
C28 C35 1_555 1_555
C30 C32 1_555 1_555
C34 C36 1_555 1_555
N4B C5B 1_555 1_555
N3B Sm1B 1_555 1_555
N3B C3B 1_555 1_555
O4B N6B 1_555 1_555
C14B C15B 1_555 1_555
C18B C19B 1_555 1_555
C22B C29B 1_555 1_555
C24B C31B 1_555 1_555
C26B C33B 1_555 1_555
C28B C35B 1_555 1_555
C30B C32B 1_555 1_555
C34B C36B 1_555 1_555

#END
