
#######################################################################
#
#                 Cambridge Crystallographic Data Centre
#                                CCDC 
#
#######################################################################
#
# If this CIF has been generated from an entry in the Cambridge 
# Structural Database, then it will include bibliographic, chemical, 
# crystal, experimental, refinement or atomic coordinate data resulting 
# from the CCDC's data processing and validation procedures.
#
#######################################################################

data_MICYOO
_symmetry_cell_setting           monoclinic
_symmetry_space_group_name_H-M   'P 21/c'
_symmetry_Int_Tables_number      14
_space_group_name_Hall           '-P 2ybc'
loop_
_symmetry_equiv_pos_site_id
_symmetry_equiv_pos_as_xyz
1 x,y,z
2 -x,1/2+y,1/2-z
3 -x,-y,-z
4 x,1/2-y,1/2+z
_cell_length_a                   7.6100(10)
_cell_length_b                   15.8000(10)
_cell_length_c                   34.9370(10)
_cell_angle_alpha                90
_cell_angle_beta                 95.178(10)
_cell_angle_gamma                90
_cell_volume                     4183.61
loop_
_atom_site_label
_atom_site_type_symbol
_atom_site_fract_x
_atom_site_fract_y
_atom_site_fract_z
N15 N 0.343(3) 0.5341(14) 0.2009(6)
C37 C 0.184(3) 0.6247(10) 0.1506(6)
H20 H 0.0810 0.6476 0.1607
H21 H 0.1498 0.5925 0.1279
H22 H 0.2605 0.6701 0.1444
C38 C 0.273(3) 0.5720(13) 0.1782(6)
O5 O 0.6706(19) 0.9794(15) -0.0175(6)
O6 O 0.958(6) 0.999(4) -0.001(4)
O7 O 0.848(2) 0.8696(10) 0.0131(6)
N16 N 0.821(3) 0.9466(13) -0.0016(8)
O5B O 1.3294(19) 1.0206(15) 0.0175(6)
O6B O 1.042(6) 1.001(4) 0.001(4)
O7B O 1.152(2) 1.1304(10) -0.0131(6)
N16B N 1.179(3) 1.0534(13) 0.0016(8)
Tb1 Tb 0.38949(6) 0.71025(3) 0.013689(13)
O1 O 0.1776(12) 0.6170(6) 0.0384(3)
O2 O 0.1767(14) 0.8023(7) 0.0393(3)
O3 O 0.534(4) 0.8444(10) 0.0145(4)
O4 O 0.7181(10) 0.7321(6) 0.0244(2)
N1 N 0.1267(12) 0.7270(6) -0.0329(3)
N2 N 0.4678(12) 0.7401(6) 0.0825(3)
N3 N 0.5475(13) 0.5696(5) 0.0409(3)
N4 N 0.3952(11) 0.5772(5) -0.0324(2)
N5 N 0.5268(13) 0.7437(6) -0.0484(3)
C1 C 0.0089(14) 0.7265(6) -0.0563(3)
C2 C 0.5416(13) 0.7655(7) 0.1096(3)
C3 C 0.627(2) 0.5635(8) 0.0769(4)
C4 C 0.5446(13) 0.4968(6) 0.0203(3)
C5 C 0.3225(16) 0.5796(7) -0.0689(3)
Fe1 Fe -0.16417(18) 0.72263(9) -0.09904(4)
Fe2 Fe 0.6813(2) 0.80875(9) 0.15313(4)
H1 H 0.6362 0.6119 0.0921
C6 C 0.6934(18) 0.4895(7) 0.0918(4)
H2 H 0.2810 0.6312 -0.0788
N6 N -0.1516(12) 0.8447(7) -0.1106(2)
N7 N -0.3191(11) 0.7231(6) -0.1483(3)
C7 C -0.1849(15) 0.6016(9) -0.0883(4)
C8 C -0.3618(14) 0.7391(7) -0.0677(3)
C9 C 0.0311(13) 0.6958(6) -0.1296(3)
N8 N 0.8220(12) 0.8562(6) 0.1990(2)
N9 N 0.6630(11) 0.9323(6) 0.1374(2)
C10 C 0.7143(17) 0.6919(9) 0.1692(4)
C11 C 0.8853(17) 0.7969(8) 0.1231(4)
C12 C 0.4644(17) 0.8165(7) 0.1792(3)
H3 H 0.7474 0.4864 0.1168
C13 C -0.0785(16) 0.9080(7) -0.0888(3)
C14 C -0.2363(13) 0.8671(7) -0.1449(3)
C15 C -0.3213(14) 0.8022(7) -0.1657(3)
C16 C -0.4002(17) 0.6586(9) -0.1663(4)
N10 N -0.1996(17) 0.5327(7) -0.0791(4)
N11 N 0.1473(13) 0.6823(7) -0.1472(3)
C17 C 0.9034(17) 0.8192(9) 0.2289(3)
C18 C 0.8300(13) 0.9437(7) 0.1979(3)
C19 C 0.7452(14) 0.9833(7) 0.1646(3)
C20 C 0.5895(15) 0.9648(8) 0.1054(3)
N12 N 0.7481(18) 0.6253(8) 0.1807(4)
N13 N 0.9956(18) 0.7892(9) 0.1038(4)
N14 N 0.3363(16) 0.8193(8) 0.1941(3)
H4 H -0.0230 0.8949 -0.0647
C21 C -0.0823(17) 0.9918(8) -0.1007(4)
C22 C -0.2413(14) 0.9494(7) -0.1590(4)
C23 C -0.4082(16) 0.8140(9) -0.2026(3)
C24 C -0.4933(19) 0.6699(13) -0.2040(5)
H5 H -0.3975 0.6056 -0.1547
H6 H 0.9014 0.7604 0.2299
C25 C 0.9918(18) 0.8617(10) 0.2592(3)
C26 C 0.9176(16) 0.9930(8) 0.2278(4)
C27 C 0.7510(15) 1.0714(6) 0.1600(4)
C28 C 0.5912(17) 1.0535(8) 0.0990(4)
H7 H 0.5355 0.9293 0.0867
H8 H -0.0307 1.0335 -0.0846
C29 C -0.1593(16) 1.0126(8) -0.1349(4)
C30 C -0.3303(19) 0.9590(12) -0.1977(4)
C31 C -0.4921(18) 0.7485(12) -0.2213(4)
C32 C -0.4082(19) 0.8976(11) -0.2181(4)
H9 H -0.5530 0.6248 -0.2164
H10 H 1.0446 0.8312 0.2799
C33 C 1.0036(18) 0.9500(11) 0.2593(4)
C34 C 0.9165(17) 1.0819(9) 0.2227(4)
C35 C 0.6719(16) 1.1053(8) 0.1264(4)
C36 C 0.8400(17) 1.1203(8) 0.1909(4)
H11 H 0.5377 1.0760 0.0762
H12 H -0.1594 1.0687 -0.1430
H13 H -0.3318 1.0127 -0.2087
H14 H -0.5489 0.7564 -0.2457
H15 H -0.4630 0.9085 -0.2425
H16 H 1.0655 0.9790 0.2794
H17 H 0.9709 1.1154 0.2422
H18 H 0.6735 1.1635 0.1224
H19 H 0.8447 1.1789 0.1889
C4B C 0.4554(13) 0.5032(6) -0.0203(3)
N4B N 0.6048(11) 0.4228(5) 0.0324(2)
C6B C 0.3066(18) 0.5105(7) -0.0918(4)
N3B N 0.4525(13) 0.4304(5) -0.0409(3)
C5B C 0.6775(16) 0.4204(7) 0.0689(3)
Tb1B Tb 0.61051(6) 0.28975(3) -0.013689(13)
C3B C 0.373(2) 0.4365(8) -0.0769(4)
H3B H 0.2526 0.5136 -0.1168
N5_2 N -0.4732(13) 0.7437(6) -0.0484(3)
H2B H 0.7190 0.3688 0.0788
O1B O 0.8224(12) 0.3830(6) -0.0384(3)
O2B O 0.8233(14) 0.1977(7) -0.0393(3)
O3B O 0.466(4) 0.1556(10) -0.0145(4)
O4B O 0.2819(10) 0.2679(6) -0.0244(2)
N1B N 0.8733(12) 0.2730(6) 0.0329(3)
N2B N 0.5322(12) 0.2599(6) -0.0825(3)
N5B N 0.4732(13) 0.2563(6) 0.0484(3)
H1B H 0.3638 0.3881 -0.0921
Tb1_2 Tb -0.61051(6) 0.71025(3) 0.013689(13)
C1B C 0.9911(14) 0.2735(6) 0.0563(3)
C2B C 0.4584(13) 0.2345(7) -0.1096(3)
Fe1B Fe 1.16417(18) 0.27737(9) 0.09904(4)
Fe2B Fe 0.3187(2) 0.19125(9) -0.15313(4)
N6B N 1.1516(12) 0.1553(7) 0.1106(2)
N7B N 1.3191(11) 0.2769(6) 0.1483(3)
C7B C 1.1849(15) 0.3984(9) 0.0883(4)
C8B C 1.3618(14) 0.2609(7) 0.0677(3)
C9B C 0.9689(13) 0.3042(6) 0.1296(3)
N8B N 0.1780(12) 0.1438(6) -0.1990(2)
N9B N 0.3370(11) 0.0677(6) -0.1374(2)
C10B C 0.2857(17) 0.3081(9) -0.1692(4)
C11B C 0.1147(17) 0.2031(8) -0.1231(4)
C12B C 0.5356(17) 0.1835(7) -0.1792(3)
C13B C 1.0785(16) 0.0920(7) 0.0888(3)
C14B C 1.2363(13) 0.1329(7) 0.1449(3)
C15B C 1.3213(14) 0.1978(7) 0.1657(3)
C16B C 1.4002(17) 0.3414(9) 0.1663(4)
N10B N 1.1996(17) 0.4673(7) 0.0791(4)
N5B_2 N 1.4732(13) 0.2563(6) 0.0484(3)
N11B N 0.8527(13) 0.3177(7) 0.1472(3)
C17B C 0.0966(17) 0.1808(9) -0.2289(3)
C18B C 0.1700(13) 0.0563(7) -0.1979(3)
C19B C 0.2548(14) 0.0167(7) -0.1646(3)
C20B C 0.4105(15) 0.0352(8) -0.1054(3)
N12B N 0.2519(18) 0.3747(8) -0.1807(4)
N13B N 0.0044(18) 0.2108(9) -0.1038(4)
N14B N 0.6637(16) 0.1807(8) -0.1941(3)
H4B H 1.0230 0.1051 0.0647
C21B C 1.0823(17) 0.0082(8) 0.1007(4)
C22B C 1.2413(14) 0.0506(7) 0.1590(4)
C23B C 1.4082(16) 0.1860(9) 0.2026(3)
C24B C 1.4933(19) 0.3301(13) 0.2040(5)
H5B H 1.3975 0.3944 0.1547
Tb1B_2 Tb 1.61051(6) 0.28975(3) -0.013689(13)
H6B H 0.0986 0.2396 -0.2299
C25B C 0.0082(18) 0.1383(10) -0.2592(3)
C26B C 0.0824(16) 0.0070(8) -0.2278(4)
C27B C 0.2490(15) -0.0714(6) -0.1600(4)
C28B C 0.4088(17) -0.0535(8) -0.0990(4)
H7B H 0.4645 0.0707 -0.0867
H8B H 1.0307 -0.0335 0.0846
C29B C 1.1593(16) -0.0126(8) 0.1349(4)
C30B C 1.3303(19) 0.0410(12) 0.1977(4)
C31B C 1.4921(18) 0.2515(12) 0.2213(4)
C32B C 1.4082(19) 0.1024(11) 0.2181(4)
H9B H 1.5530 0.3752 0.2164
H10B H -0.0446 0.1688 -0.2799
C33B C -0.0036(18) 0.0500(11) -0.2593(4)
C34B C 0.0835(17) -0.0819(9) -0.2227(4)
C35B C 0.3281(16) -0.1053(8) -0.1264(4)
C36B C 0.1600(17) -0.1203(8) -0.1909(4)
H11B H 0.4623 -0.0760 -0.0762
H12B H 1.1594 -0.0687 0.1430
H13B H 1.3318 -0.0127 0.2087
H14B H 1.5489 0.2436 0.2457
H15B H 1.4630 0.0915 0.2425
H16B H -0.0655 0.0210 -0.2794
H17B H 0.0291 -0.1154 -0.2422
H18B H 0.3265 -0.1635 -0.1224
H19B H 0.1553 -0.1789 -0.1889
loop_
_geom_bond_atom_site_label_1
_geom_bond_atom_site_label_2
_geom_bond_site_symmetry_1
_geom_bond_site_symmetry_2
Tb1 O1 1_555 1_555
O2 Tb1 1_555 1_555
O3 Tb1 1_555 1_555
O4 Tb1 1_555 1_555
N1 Tb1 1_555 1_555
N2 Tb1 1_555 1_555
N3 Tb1 1_555 1_555
N4 Tb1 1_555 1_555
N5 Tb1 1_555 1_555
C1 N1 1_555 1_555
C2 N2 1_555 1_555
C3 N3 1_555 1_555
C4 N3 1_555 1_555
C5 N4 1_555 1_555
Fe1 C1 1_555 1_555
Fe2 C2 1_555 1_555
H1 C3 1_555 1_555
C6 C3 1_555 1_555
H2 C5 1_555 1_555
N6 Fe1 1_555 1_555
N7 Fe1 1_555 1_555
C7 Fe1 1_555 1_555
C8 Fe1 1_555 1_555
C9 Fe1 1_555 1_555
N8 Fe2 1_555 1_555
N9 Fe2 1_555 1_555
C10 Fe2 1_555 1_555
C11 Fe2 1_555 1_555
C12 Fe2 1_555 1_555
H3 C6 1_555 1_555
C13 N6 1_555 1_555
C14 N6 1_555 1_555
C15 N7 1_555 1_555
C16 N7 1_555 1_555
N10 C7 1_555 1_555
N11 C9 1_555 1_555
C17 N8 1_555 1_555
C18 N8 1_555 1_555
C19 N9 1_555 1_555
C20 N9 1_555 1_555
N12 C10 1_555 1_555
N13 C11 1_555 1_555
N14 C12 1_555 1_555
H4 C13 1_555 1_555
C21 C13 1_555 1_555
C22 C14 1_555 1_555
C23 C15 1_555 1_555
C24 C16 1_555 1_555
H5 C16 1_555 1_555
H6 C17 1_555 1_555
C25 C17 1_555 1_555
C26 C18 1_555 1_555
C27 C19 1_555 1_555
C28 C20 1_555 1_555
H7 C20 1_555 1_555
H8 C21 1_555 1_555
C29 C21 1_555 1_555
C30 C22 1_555 1_555
C31 C23 1_555 1_555
C32 C23 1_555 1_555
H9 C24 1_555 1_555
H10 C25 1_555 1_555
C33 C25 1_555 1_555
C34 C26 1_555 1_555
C35 C27 1_555 1_555
C36 C27 1_555 1_555
H11 C28 1_555 1_555
H12 C29 1_555 1_555
H13 C30 1_555 1_555
H14 C31 1_555 1_555
H15 C32 1_555 1_555
H16 C33 1_555 1_555
H17 C34 1_555 1_555
H18 C35 1_555 1_555
H19 C36 1_555 1_555
N15 C38 1_555 1_555
C37 H20 1_555 1_555
H21 C37 1_555 1_555
H22 C37 1_555 1_555
C38 C37 1_555 1_555
O5 N16 1_555 1_555
O6 N16 1_555 1_555
O7 N16 1_555 1_555
C4B N4 1_555 1_555
N4B C4 1_555 1_555
C6B C5 1_555 1_555
N3B C4B 1_555 1_555
C5B C6 1_555 1_555
Tb1B N4B 1_555 1_555
C3B C6B 1_555 1_555
H3B C6B 1_555 1_555
N5_2 C8 1_555 1_555
H2B C5B 1_555 1_555
O1B Tb1B 1_555 1_555
O2B Tb1B 1_555 1_555
O3B Tb1B 1_555 1_555
O4B Tb1B 1_555 1_555
N1B Tb1B 1_555 1_555
N2B Tb1B 1_555 1_555
N5B Tb1B 1_555 1_555
H1B C3B 1_555 1_555
Tb1_2 N5_2 1_555 1_555
C1B N1B 1_555 1_555
C2B N2B 1_555 1_555
Fe1B C1B 1_555 1_555
Fe2B C2B 1_555 1_555
N6B Fe1B 1_555 1_555
N7B Fe1B 1_555 1_555
C7B Fe1B 1_555 1_555
C8B Fe1B 1_555 1_555
C9B Fe1B 1_555 1_555
N8B Fe2B 1_555 1_555
N9B Fe2B 1_555 1_555
C10B Fe2B 1_555 1_555
C11B Fe2B 1_555 1_555
C12B Fe2B 1_555 1_555
C13B N6B 1_555 1_555
C14B N6B 1_555 1_555
C15B N7B 1_555 1_555
C16B N7B 1_555 1_555
N10B C7B 1_555 1_555
N5B_2 C8B 1_555 1_555
N11B C9B 1_555 1_555
C17B N8B 1_555 1_555
C18B N8B 1_555 1_555
C19B N9B 1_555 1_555
C20B N9B 1_555 1_555
N12B C10B 1_555 1_555
N13B C11B 1_555 1_555
N14B C12B 1_555 1_555
H4B C13B 1_555 1_555
C21B C13B 1_555 1_555
C22B C14B 1_555 1_555
C23B C15B 1_555 1_555
C24B C16B 1_555 1_555
H5B C16B 1_555 1_555
Tb1B_2 N5B_2 1_555 1_555
H6B C17B 1_555 1_555
C25B C17B 1_555 1_555
C26B C18B 1_555 1_555
C27B C19B 1_555 1_555
C28B C20B 1_555 1_555
H7B C20B 1_555 1_555
H8B C21B 1_555 1_555
C29B C21B 1_555 1_555
C30B C22B 1_555 1_555
C31B C23B 1_555 1_555
C32B C23B 1_555 1_555
H9B C24B 1_555 1_555
H10B C25B 1_555 1_555
C33B C25B 1_555 1_555
C34B C26B 1_555 1_555
C35B C27B 1_555 1_555
C36B C27B 1_555 1_555
H11B C28B 1_555 1_555
H12B C29B 1_555 1_555
H13B C30B 1_555 1_555
H14B C31B 1_555 1_555
H15B C32B 1_555 1_555
H16B C33B 1_555 1_555
H17B C34B 1_555 1_555
H18B C35B 1_555 1_555
H19B C36B 1_555 1_555
O5B N16B 1_555 1_555
O6B O6 1_555 1_555
O7B N16B 1_555 1_555
N16B O6B 1_555 1_555
C4 C4B 1_555 1_555
C14 C15 1_555 1_555
C18 C19 1_555 1_555
C22 C29 1_555 1_555
C24 C31 1_555 1_555
C26 C33 1_555 1_555
C28 C35 1_555 1_555
C30 C32 1_555 1_555
C34 C36 1_555 1_555
N4B C5B 1_555 1_555
N3B Tb1B 1_555 1_555
N3B C3B 1_555 1_555
C14B C15B 1_555 1_555
C18B C19B 1_555 1_555
C22B C29B 1_555 1_555
C24B C31B 1_555 1_555
C26B C33B 1_555 1_555
C28B C35B 1_555 1_555
C30B C32B 1_555 1_555
C34B C36B 1_555 1_555

#END
