
#######################################################################
#
#                 Cambridge Crystallographic Data Centre
#                                CCDC 
#
#######################################################################
#
# If this CIF has been generated from an entry in the Cambridge 
# Structural Database, then it will include bibliographic, chemical, 
# crystal, experimental, refinement or atomic coordinate data resulting 
# from the CCDC's data processing and validation procedures.
#
#######################################################################

data_MICZAB
_symmetry_cell_setting           monoclinic
_symmetry_space_group_name_H-M   'P 21/n'
_symmetry_Int_Tables_number      14
_space_group_name_Hall           '-P 2yn'
loop_
_symmetry_equiv_pos_site_id
_symmetry_equiv_pos_as_xyz
1 x,y,z
2 1/2-x,1/2+y,1/2-z
3 -x,-y,-z
4 1/2+x,1/2-y,1/2+z
_cell_length_a                   9.6270(9)
_cell_length_b                   26.323(2)
_cell_length_c                   10.7260(9)
_cell_angle_alpha                90
_cell_angle_beta                 113.844(6)
_cell_angle_gamma                90
_cell_volume                     2486.1
loop_
_atom_site_label
_atom_site_type_symbol
_atom_site_fract_x
_atom_site_fract_y
_atom_site_fract_z
Pr1 Pr 0.68273(3) -0.069547(10) 0.77258(2)
Fe1 Fe 0.30461(7) 0.09981(2) 0.71579(6)
O1 O 0.8812(4) -0.13070(17) 0.9379(4)
O2 O 0.6867(5) -0.16791(15) 0.7934(4)
O3 O 0.7329(4) 0.00673(13) 0.6590(3)
O4 O 0.8538(6) -0.2118(2) 0.9558(6)
O5 O 0.4190(4) -0.11204(15) 0.6913(4)
O6 O 0.4637(4) -0.07595(16) 0.5327(3)
O7 O 0.2560(5) -0.1179(2) 0.4828(5)
N1 N 0.4772(4) 0.00011(16) 0.7404(4)
N2 N 0.0151(5) 0.0408(2) 0.6704(5)
N3 N 0.2289(5) 0.10466(17) 0.4083(4)
N4 N 0.3857(5) 0.08917(17) 1.0239(4)
N5 N 0.2072(5) 0.16693(15) 0.7092(4)
N6 N 0.4897(4) 0.14313(16) 0.7612(4)
N7 N 0.9825(4) -0.04508(15) 0.8690(4)
N8 N 1.1962(4) -0.00048(15) 1.0242(4)
N9 N 0.8092(6) -0.1715(2) 0.8976(6)
N10 N 0.3757(5) -0.10261(18) 0.5669(4)
C1 C 0.4088(5) 0.0364(2) 0.7267(4)
C2 C 0.1232(6) 0.0620(2) 0.6840(5)
C3 C 0.2538(5) 0.10336(18) 0.5221(5)
C4 C 0.3568(5) 0.09400(18) 0.9109(5)
C5 C 0.0612(6) 0.1778(2) 0.6754(5)
H1 H -0.0094 0.1515 0.6492
C6 C 0.0108(8) 0.2272(3) 0.6781(7)
H2 H -0.0920 0.2336 0.6525
C7 C 0.1115(9) 0.2656(3) 0.7177(8)
H3 H 0.0783 0.2985 0.7219
C8 C 0.2653(8) 0.2564(2) 0.7525(7)
C9 C 0.3081(6) 0.2061(2) 0.7450(5)
C10 C 0.4613(6) 0.1928(2) 0.7753(5)
C11 C 0.5741(7) 0.2299(2) 0.8171(6)
C12 C 0.7229(7) 0.2134(3) 0.8473(7)
H4 H 0.8024 0.2367 0.8770
C13 C 0.7514(7) 0.1635(3) 0.8334(6)
H5 H 0.8501 0.1526 0.8535
C14 C 0.6316(6) 0.1288(2) 0.7886(5)
H6 H 0.6514 0.0949 0.7778
C15 C 0.5292(11) 0.2811(3) 0.8274(8)
H7 H 0.6029 0.3064 0.8562
C16 C 0.3837(11) 0.2936(3) 0.7966(9)
H8 H 0.3593 0.3273 0.8042
C17 C 1.0727(6) -0.0680(2) 0.8194(5)
H9 H 1.0299 -0.0911 0.7485
C18 C 1.2256(5) -0.05899(19) 0.8680(5)
H10 H 1.2873 -0.0757 0.8333
C19 C 1.2827(5) -0.02397(19) 0.9708(5)
H11 H 1.3857 -0.0162 1.0047
C20 C 1.0492(5) -0.01259(17) 0.9709(4)
N7B N 1.0175(4) 0.04508(15) 1.1310(4)
N8B N 0.8038(4) 0.00048(15) 0.9758(4)
C17B C 0.9273(6) 0.0680(2) 1.1806(5)
H9B H 0.9701 0.0911 1.2515
C18B C 0.7744(5) 0.05899(19) 1.1320(5)
H10B H 0.7127 0.0757 1.1667
C19B C 0.7173(5) 0.02397(19) 1.0292(5)
H11B H 0.6143 0.0162 0.9953
C20B C 0.9508(5) 0.01259(17) 1.0291(4)
Pr1B Pr 0.31727(3) 0.069547(10) 0.22742(2)
Fe1B Fe 0.69539(7) -0.09981(2) 0.28421(6)
O1B O 0.1188(4) 0.13070(17) 0.0621(4)
O2B O 0.3133(5) 0.16791(15) 0.2066(4)
O3B O 0.2671(4) -0.00673(13) 0.3410(3)
O4B O 0.1462(6) 0.2118(2) 0.0442(6)
O5B O 0.5810(4) 0.11204(15) 0.3087(4)
O6B O 0.5363(4) 0.07595(16) 0.4673(3)
O7B O 0.7440(5) 0.1179(2) 0.5172(5)
N1B N 0.5228(4) -0.00011(16) 0.2596(4)
N2B N 0.9849(5) -0.0408(2) 0.3296(5)
N3B N 0.7711(5) -0.10466(17) 0.5917(4)
N4B N 0.6143(5) -0.08917(17) -0.0239(4)
N5B N 0.7928(5) -0.16693(15) 0.2908(4)
N6B N 0.5103(4) -0.14313(16) 0.2388(4)
N9B N 0.1908(6) 0.1715(2) 0.1024(6)
N10B N 0.6243(5) 0.10261(18) 0.4331(4)
C1B C 0.5912(5) -0.0364(2) 0.2733(4)
C2B C 0.8768(6) -0.0620(2) 0.3160(5)
C3B C 0.7462(5) -0.10336(18) 0.4779(5)
C4B C 0.6432(5) -0.09400(18) 0.0891(5)
C5B C 0.9388(6) -0.1778(2) 0.3246(5)
H1B H 1.0094 -0.1515 0.3508
C6B C 0.9892(8) -0.2272(3) 0.3219(7)
H2B H 1.0920 -0.2336 0.3475
C7B C 0.8885(9) -0.2656(3) 0.2823(8)
H3B H 0.9217 -0.2985 0.2781
C8B C 0.7347(8) -0.2564(2) 0.2475(7)
C9B C 0.6919(6) -0.2061(2) 0.2550(5)
C10B C 0.5387(6) -0.1928(2) 0.2247(5)
C11B C 0.4259(7) -0.2299(2) 0.1829(6)
C12B C 0.2771(7) -0.2134(3) 0.1527(7)
H4B H 0.1976 -0.2367 0.1230
C13B C 0.2486(7) -0.1635(3) 0.1666(6)
H5B H 0.1499 -0.1526 0.1465
C14B C 0.3684(6) -0.1288(2) 0.2114(5)
H6B H 0.3486 -0.0949 0.2222
C15B C 0.4708(11) -0.2811(3) 0.1726(8)
H7B H 0.3971 -0.3064 0.1438
C16B C 0.6163(11) -0.2936(3) 0.2034(9)
H8B H 0.6407 -0.3273 0.1958
Pr1_2 Pr 0.68273(3) -0.069547(10) -0.22742(2)
Pr1B_2 Pr 0.31727(3) 0.069547(10) 1.22742(2)
Pr1B_3 Pr 1.31727(3) 0.069547(10) 1.22742(2)
N4_2 N 0.3857(5) 0.08917(17) 0.0239(4)
N4B_2 N 0.6143(5) -0.08917(17) 0.9761(4)
N7B_2 N 0.0175(4) 0.04508(15) 0.1310(4)
N8_2 N 0.1962(4) -0.00048(15) 0.0242(4)
loop_
_geom_bond_atom_site_label_1
_geom_bond_atom_site_label_2
_geom_bond_site_symmetry_1
_geom_bond_site_symmetry_2
Pr1 O1 1_555 1_555
Fe1 N5 1_555 1_555
O1 N9 1_555 1_555
O2 Pr1 1_555 1_555
O3 Pr1 1_555 1_555
O4 N9 1_555 1_555
O5 Pr1 1_555 1_555
O6 Pr1 1_555 1_555
O7 N10 1_555 1_555
N1 Pr1 1_555 1_555
N2 C2 1_555 1_555
N3 C3 1_555 1_555
N4 C4 1_555 1_555
N5 C5 1_555 1_555
N6 Fe1 1_555 1_555
N7 Pr1 1_555 1_555
N8 C19 1_555 1_555
N9 O2 1_555 1_555
N10 O5 1_555 1_555
C1 Fe1 1_555 1_555
C2 Fe1 1_555 1_555
C3 Fe1 1_555 1_555
C4 Fe1 1_555 1_555
C5 H1 1_555 1_555
C6 C5 1_555 1_555
H2 C6 1_555 1_555
C7 C6 1_555 1_555
H3 C7 1_555 1_555
C8 C7 1_555 1_555
C9 N5 1_555 1_555
C10 N6 1_555 1_555
C11 C10 1_555 1_555
C12 C11 1_555 1_555
H4 C12 1_555 1_555
C13 C12 1_555 1_555
H5 C13 1_555 1_555
C14 N6 1_555 1_555
H6 C14 1_555 1_555
C15 C11 1_555 1_555
H7 C15 1_555 1_555
C16 C8 1_555 1_555
H8 C16 1_555 1_555
C17 N7 1_555 1_555
H9 C17 1_555 1_555
C18 C17 1_555 1_555
H10 C18 1_555 1_555
C19 C18 1_555 1_555
H11 C19 1_555 1_555
C20 N7 1_555 1_555
N7B C17B 1_555 1_555
N8B Pr1 1_555 1_555
C17B H9B 1_555 1_555
C18B C17B 1_555 1_555
H10B C18B 1_555 1_555
C19B N8B 1_555 1_555
H11B C19B 1_555 1_555
C20B C20 1_555 1_555
Pr1B N3 1_555 1_555
Fe1B N5B 1_555 1_555
O1B Pr1B 1_555 1_555
O2B Pr1B 1_555 1_555
O3B Pr1B 1_555 1_555
O4B N9B 1_555 1_555
O5B Pr1B 1_555 1_555
O6B Pr1B 1_555 1_555
O7B N10B 1_555 1_555
N1B Pr1B 1_555 1_555
N2B C2B 1_555 1_555
N3B Pr1 1_555 1_555
N4B C4B 1_555 1_555
N5B C5B 1_555 1_555
N6B Fe1B 1_555 1_555
N9B O1B 1_555 1_555
N10B O5B 1_555 1_555
C1B Fe1B 1_555 1_555
C2B Fe1B 1_555 1_555
C3B Fe1B 1_555 1_555
C4B Fe1B 1_555 1_555
C5B H1B 1_555 1_555
C6B C5B 1_555 1_555
H2B C6B 1_555 1_555
C7B C6B 1_555 1_555
H3B C7B 1_555 1_555
C8B C7B 1_555 1_555
C9B N5B 1_555 1_555
C10B N6B 1_555 1_555
C11B C10B 1_555 1_555
C12B C11B 1_555 1_555
H4B C12B 1_555 1_555
C13B C12B 1_555 1_555
H5B C13B 1_555 1_555
C14B N6B 1_555 1_555
H6B C14B 1_555 1_555
C15B C11B 1_555 1_555
H7B C15B 1_555 1_555
C16B C8B 1_555 1_555
H8B C16B 1_555 1_555
Pr1_2 N4B 1_555 1_555
Pr1B_2 N4 1_555 1_555
Pr1B_3 N8 1_555 1_555
N4_2 Pr1B 1_555 1_555
N4B_2 Pr1 1_555 1_555
N7B_2 Pr1B 1_555 1_555
N8_2 Pr1B 1_555 1_555
O6 N10 1_555 1_555
N1 C1 1_555 1_555
N8 C20 1_555 1_555
C8 C9 1_555 1_555
C9 C10 1_555 1_555
C13 C14 1_555 1_555
C15 C16 1_555 1_555
N7B C20B 1_555 1_555
N7B Pr1B_3 1_555 1_555
N8B C20B 1_555 1_555
C18B C19B 1_555 1_555
O2B N9B 1_555 1_555
O6B N10B 1_555 1_555
N1B C1B 1_555 1_555
N3B C3B 1_555 1_555
C8B C9B 1_555 1_555
C9B C10B 1_555 1_555
C13B C14B 1_555 1_555
C15B C16B 1_555 1_555

#END
