
#######################################################################
#
#                 Cambridge Crystallographic Data Centre
#                                CCDC 
#
#######################################################################
#
# If this CIF has been generated from an entry in the Cambridge 
# Structural Database, then it will include bibliographic, chemical, 
# crystal, experimental, refinement or atomic coordinate data resulting 
# from the CCDC's data processing and validation procedures.
#
#######################################################################

data_MIDBIM
_symmetry_cell_setting           monoclinic
_symmetry_space_group_name_H-M   'P 21/c'
_symmetry_Int_Tables_number      14
_space_group_name_Hall           '-P 2ybc'
loop_
_symmetry_equiv_pos_site_id
_symmetry_equiv_pos_as_xyz
1 x,y,z
2 -x,1/2+y,1/2-z
3 -x,-y,-z
4 x,1/2-y,1/2+z
_cell_length_a                   9.933(4)
_cell_length_b                   9.1087(16)
_cell_length_c                   14.479(4)
_cell_angle_alpha                90
_cell_angle_beta                 91.352(7)
_cell_angle_gamma                90
_cell_volume                     1309.65
loop_
_atom_site_label
_atom_site_type_symbol
_atom_site_fract_x
_atom_site_fract_y
_atom_site_fract_z
Mn1 Mn 0.5017(3) 0.01733(12) 0.38146(8)
N1 N 0.6743(10) 0.1842(8) 0.3870(5)
C1 C 0.7957(14) 0.1419(12) 0.4061(8)
H1 H 0.8071 0.0429 0.4199
C2 C 0.9071(12) 0.2250(11) 0.4082(8)
H2 H 0.9929 0.1871 0.4195
C3 C 0.8818(13) 0.3784(10) 0.3913(7)
C4 C 0.7571(13) 0.4239(10) 0.3790(8)
H3 H 0.7401 0.5238 0.3723
C5 C 0.6529(13) 0.3280(9) 0.3760(6)
H4 H 0.5656 0.3626 0.3661
N2 N 1.0028(15) 0.4688(8) 0.3957(5)
N3 N 0.9879(13) 0.5844(8) 0.3519(5)
C6 C 1.1039(13) 0.6707(10) 0.3579(7)
C7 C 1.2309(14) 0.6210(10) 0.3770(8)
H5 H 1.2442 0.5217 0.3889
C8 C 1.3423(11) 0.7164(9) 0.3792(8)
H6 H 1.4285 0.6785 0.3889
N4 N 1.3256(10) 0.8615(8) 0.3673(7)
C9 C 1.2012(13) 0.9108(12) 0.3444(7)
H7 H 1.1912 1.0113 0.3350
C10 C 1.0908(16) 0.8274(12) 0.3341(9)
H8 H 1.0094 0.8667 0.3129
N5 N 0.6174(11) -0.1098(8) 0.2839(6)
N6 N 0.6103(9) -0.2268(8) 0.2509(7)
N7 N 0.6053(11) -0.3431(8) 0.2158(6)
N8 N 0.4113(9) 0.1117(8) 0.5044(6)
N9 N 0.3290(15) 0.1906(14) 0.5052(10)
N10 N 0.210(2) 0.263(2) 0.4974(14)
Mn1_2 Mn 1.5017(3) 1.01733(12) 0.38146(8)
Mn1B Mn 0.4983(3) -0.01733(12) 0.61854(8)
Mn1A Mn 0.4983(3) -0.48267(12) 0.11854(8)
N4_2 N 0.3256(10) -0.1385(8) 0.3673(7)
N7A N 0.3947(11) 0.1569(8) 0.2842(6)
N8B N 0.5887(9) -0.1117(8) 0.4956(6)
loop_
_geom_bond_atom_site_label_1
_geom_bond_atom_site_label_2
_geom_bond_site_symmetry_1
_geom_bond_site_symmetry_2
Mn1 N1 1_555 1_555
N1 C1 1_555 1_555
C1 H1 1_555 1_555
C2 C1 1_555 1_555
H2 C2 1_555 1_555
C3 C2 1_555 1_555
C4 C3 1_555 1_555
H3 C4 1_555 1_555
C5 N1 1_555 1_555
H4 C5 1_555 1_555
N2 C3 1_555 1_555
N3 N2 1_555 1_555
C6 N3 1_555 1_555
C7 C6 1_555 1_555
H5 C7 1_555 1_555
C8 C7 1_555 1_555
H6 C8 1_555 1_555
N4 C8 1_555 1_555
C9 N4 1_555 1_555
H7 C9 1_555 1_555
C10 C6 1_555 1_555
H8 C10 1_555 1_555
N5 Mn1 1_555 1_555
N6 N5 1_555 1_555
N7 N6 1_555 1_555
N8 Mn1 1_555 1_555
N9 N8 1_555 1_555
N10 N9 1_555 1_555
Mn1_2 N4 1_555 1_555
Mn1B N8 1_555 1_555
Mn1A N7 1_555 1_555
N4_2 Mn1 1_555 1_555
N7A Mn1 1_555 1_555
N8B Mn1 1_555 1_555
C4 C5 1_555 1_555
C9 C10 1_555 1_555
Mn1B N8B 1_555 1_555

#END
