
#######################################################################
#
#                 Cambridge Crystallographic Data Centre
#                                CCDC 
#
#######################################################################
#
# If this CIF has been generated from an entry in the Cambridge 
# Structural Database, then it will include bibliographic, chemical, 
# crystal, experimental, refinement or atomic coordinate data resulting 
# from the CCDC's data processing and validation procedures.
#
#######################################################################

data_MIDBEI
_symmetry_cell_setting           monoclinic
_symmetry_space_group_name_H-M   'P 21/n'
_symmetry_Int_Tables_number      14
_space_group_name_Hall           '-P 2yn'
loop_
_symmetry_equiv_pos_site_id
_symmetry_equiv_pos_as_xyz
1 x,y,z
2 1/2-x,1/2+y,1/2-z
3 -x,-y,-z
4 1/2+x,1/2-y,1/2+z
_cell_length_a                   7.426(5)
_cell_length_b                   21.307(14)
_cell_length_c                   9.324(6)
_cell_angle_alpha                90
_cell_angle_beta                 90.127(7)
_cell_angle_gamma                90
_cell_volume                     1475.29
loop_
_atom_site_label
_atom_site_type_symbol
_atom_site_fract_x
_atom_site_fract_y
_atom_site_fract_z
C1 C 0.2949(6) 0.2065(2) 0.5762(6)
H1 H 0.2525 0.2474 0.5836
C2 C 0.1705(7) 0.1584(2) 0.5657(7)
H2 H 0.0475 0.1665 0.5696
C3 C 0.2349(6) 0.0971(2) 0.5489(7)
C4 C 0.4209(7) 0.0877(3) 0.5502(7)
H3 H 0.4682 0.0475 0.5402
C5 C 0.5333(7) 0.1383(2) 0.5664(8)
H4 H 0.6568 0.1314 0.5705
C6 C 0.9865(8) 0.3683(3) 0.6773(7)
H5 H 0.9538 0.3528 0.7668
C7 C 1.1379(9) 0.4064(3) 0.6672(7)
H6 H 1.2035 0.4164 0.7491
C8 C 1.1902(8) 0.4291(3) 0.5363(7)
C9 C 1.0878(9) 0.4153(3) 0.4179(9)
H7 H 1.1166 0.4313 0.3280
C10 C 0.9377(9) 0.3760(3) 0.4374(8)
H8 H 0.8693 0.3652 0.3575
N1 N 0.8142(11) 0.2235(2) 0.3988(5)
N2 N 0.9162(6) 0.2004(2) 0.3221(5)
N3 N 1.0168(7) 0.1751(2) 0.2411(5)
N4 N 0.5111(6) 0.3245(2) 0.4053(6)
N5 N 0.4191(6) 0.2987(2) 0.3225(5)
N6 N 0.3254(12) 0.2755(2) 0.2412(6)
N7 N 0.4727(5) 0.19715(19) 0.5764(6)
C11 C 0.1096(7) 0.0454(2) 0.5234(7)
N8 N 0.8884(6) 0.3534(2) 0.5660(6)
C12 C 1.3547(8) 0.4679(3) 0.5170(7)
Mn1 Mn 0.67586(11) 0.27713(3) 0.57457(10)
N9 N 0.1793(7) -0.0120(2) 0.4988(7)
N10 N -0.0670(6) 0.0583(2) 0.5267(6)
N11 N 1.4395(8) 0.4853(3) 0.6347(7)
N12 N 1.4091(7) 0.4810(3) 0.3827(6)
C1B C -0.2949(6) -0.2065(2) 0.4238(6)
H1B H -0.2525 -0.2474 0.4164
C2B C -0.1705(7) -0.1584(2) 0.4343(7)
H2B H -0.0475 -0.1665 0.4304
C3B C -0.2349(6) -0.0971(2) 0.4511(7)
C4B C -0.4209(7) -0.0877(3) 0.4498(7)
H3B H -0.4682 -0.0475 0.4598
C5B C -0.5333(7) -0.1383(2) 0.4336(8)
H4B H -0.6568 -0.1314 0.4295
N7B N -0.4727(5) -0.19715(19) 0.4236(6)
C11B C -0.1096(7) -0.0454(2) 0.4766(7)
N9B N -0.1793(7) 0.0120(2) 0.5012(7)
N10B N 0.0670(6) -0.0583(2) 0.4733(6)
C6B C 2.0135(8) 0.6317(3) 0.3227(7)
H5B H 2.0462 0.6472 0.2332
C7B C 1.8621(9) 0.5936(3) 0.3328(7)
H6B H 1.7965 0.5836 0.2509
C8B C 1.8098(8) 0.5709(3) 0.4637(7)
C9B C 1.9122(9) 0.5847(3) 0.5821(9)
H7B H 1.8834 0.5687 0.6720
C10B C 2.0623(9) 0.6240(3) 0.5626(8)
H8B H 2.1307 0.6348 0.6425
N8B N 2.1116(6) 0.6466(2) 0.4340(6)
C12B C 1.6453(8) 0.5321(3) 0.4830(7)
N11B N 1.5605(8) 0.5147(3) 0.3653(7)
N12B N 1.5909(7) 0.5190(3) 0.6173(6)
N1B N -0.8142(11) -0.2235(2) 0.6012(5)
N2B N -0.9162(6) -0.2004(2) 0.6779(5)
N3B N -1.0168(7) -0.1751(2) 0.7589(5)
N4B N -0.5111(6) -0.3245(2) 0.5947(6)
N5B N -0.4191(6) -0.2987(2) 0.6775(5)
N6B N -0.3254(12) -0.2755(2) 0.7588(6)
Mn1B Mn -0.67586(11) -0.27713(3) 0.42543(10)
N3A N -0.5168(7) -0.3249(2) 0.2589(5)
N3C N 0.5168(7) 0.3249(2) 0.7411(5)
N6A N -0.8254(12) -0.2245(2) 0.2588(6)
N6C N 0.8254(12) 0.2245(2) 0.7412(6)
N8B_2 N -0.8884(6) -0.3534(2) 0.4340(6)
Mn1A Mn -1.17586(11) -0.22287(3) 0.92543(10)
Mn1A_2 Mn -0.17586(11) -0.22287(3) 0.92543(10)
Mn1B_2 Mn 2.32414(11) 0.72287(3) 0.42543(10)
Mn1C Mn 0.17586(11) 0.22287(3) 0.07457(10)
Mn1C_2 Mn 1.17586(11) 0.22287(3) 0.07457(10)
loop_
_geom_bond_atom_site_label_1
_geom_bond_atom_site_label_2
_geom_bond_site_symmetry_1
_geom_bond_site_symmetry_2
C1 H1 1_555 1_555
C2 C1 1_555 1_555
H2 C2 1_555 1_555
C3 C2 1_555 1_555
C4 C3 1_555 1_555
H3 C4 1_555 1_555
C5 C4 1_555 1_555
H4 C5 1_555 1_555
C6 H5 1_555 1_555
C7 C6 1_555 1_555
H6 C7 1_555 1_555
C8 C7 1_555 1_555
C9 C8 1_555 1_555
H7 C9 1_555 1_555
C10 C9 1_555 1_555
H8 C10 1_555 1_555
N1 N2 1_555 1_555
N2 N3 1_555 1_555
N3 Mn1C_2 1_555 1_555
N4 N5 1_555 1_555
N5 N6 1_555 1_555
N6 Mn1C 1_555 1_555
N7 C1 1_555 1_555
C11 C3 1_555 1_555
N8 C6 1_555 1_555
C12 C8 1_555 1_555
Mn1 N1 1_555 1_555
N9 C11 1_555 1_555
N10 C11 1_555 1_555
N11 C12 1_555 1_555
N12 C12 1_555 1_555
C1B H1B 1_555 1_555
C2B C1B 1_555 1_555
H2B C2B 1_555 1_555
C3B C2B 1_555 1_555
C4B C3B 1_555 1_555
H3B C4B 1_555 1_555
C5B C4B 1_555 1_555
H4B C5B 1_555 1_555
N7B C1B 1_555 1_555
C11B C3B 1_555 1_555
N9B N10 1_555 1_555
N10B N9 1_555 1_555
C6B H5B 1_555 1_555
C7B C6B 1_555 1_555
H6B C7B 1_555 1_555
C8B C7B 1_555 1_555
C9B C8B 1_555 1_555
H7B C9B 1_555 1_555
C10B C9B 1_555 1_555
H8B C10B 1_555 1_555
N8B C6B 1_555 1_555
C12B C8B 1_555 1_555
N11B N12 1_555 1_555
N12B N11 1_555 1_555
N1B N2B 1_555 1_555
N2B N3B 1_555 1_555
N3B Mn1A 1_555 1_555
N4B N5B 1_555 1_555
N5B N6B 1_555 1_555
N6B Mn1A_2 1_555 1_555
Mn1B N7B 1_555 1_555
N3A Mn1B 1_555 1_555
N3C Mn1 1_555 1_555
N6A Mn1B 1_555 1_555
N6C Mn1 1_555 1_555
N8B_2 Mn1B 1_555 1_555
Mn1B_2 N8B 1_555 1_555
C5 N7 1_555 1_555
C10 N8 1_555 1_555
N4 Mn1 1_555 1_555
N7 Mn1 1_555 1_555
N8 Mn1 1_555 1_555
C5B N7B 1_555 1_555
C11B N9B 1_555 1_555
C11B N10B 1_555 1_555
C10B N8B 1_555 1_555
C12B N11B 1_555 1_555
C12B N12B 1_555 1_555
N1B Mn1B 1_555 1_555
N4B Mn1B 1_555 1_555

#END
