
#######################################################################
#
#                 Cambridge Crystallographic Data Centre
#                                CCDC 
#
#######################################################################
#
# If this CIF has been generated from an entry in the Cambridge 
# Structural Database, then it will include bibliographic, chemical, 
# crystal, experimental, refinement or atomic coordinate data resulting 
# from the CCDC's data processing and validation procedures.
#
#######################################################################

data_MIDFUB04
_symmetry_cell_setting           monoclinic
_symmetry_space_group_name_H-M   'P 21/c'
_symmetry_Int_Tables_number      14
_space_group_name_Hall           '-P 2ybc'
loop_
_symmetry_equiv_pos_site_id
_symmetry_equiv_pos_as_xyz
1 x,y,z
2 -x,1/2+y,1/2-z
3 -x,-y,-z
4 x,1/2-y,1/2+z
_cell_length_a                   19.1790(4)
_cell_length_b                   11.5855(3)
_cell_length_c                   15.5817(4)
_cell_angle_alpha                90
_cell_angle_beta                 105.4370(10)
_cell_angle_gamma                90
_cell_volume                     3337.32
loop_
_atom_site_label
_atom_site_type_symbol
_atom_site_fract_x
_atom_site_fract_y
_atom_site_fract_z
I1 I 0.330660(19) 0.14235(3) 0.41137(2)
I2 I 0.167868(19) 0.13948(3) 0.56280(2)
I3 I 0.332951(19) 0.41947(3) 0.61884(2)
I4 I 0.167254(19) 0.42572(3) 0.36053(2)
Cu1 Cu 0.19629(4) 0.20214(6) 0.41279(4)
Cu2 Cu 0.30285(4) 0.19812(6) 0.56298(4)
Cu3 Cu 0.30327(4) 0.37260(7) 0.44829(5)
Cu4 Cu 0.19552(4) 0.37042(6) 0.52974(5)
S1 S 0.38345(7) 0.06061(11) 0.87165(8)
S2 S 0.11433(7) 0.06425(12) 0.10501(8)
S3 S 0.38490(7) 0.10573(12) 0.67800(8)
S4 S 0.11330(7) 0.11075(11) 0.29820(8)
C1 C 0.3922(3) -0.0920(5) 0.8708(3)
C2 C 0.4602(3) -0.1375(5) 0.9079(4)
H1 H 0.4994 -0.0878 0.9310
C3 C 0.4708(4) -0.2568(7) 0.9111(5)
H2 H 0.5169 -0.2875 0.9373
C4 C 0.4146(5) -0.3278(7) 0.8765(6)
H3 H 0.4217 -0.4081 0.8788
C5 C 0.3465(4) -0.2835(6) 0.8375(6)
H4 H 0.3083 -0.3337 0.8113
C6 C 0.3345(4) -0.1658(5) 0.8369(5)
H5 H 0.2876 -0.1361 0.8138
C7 C 0.3324(3) 0.0947(5) 0.7590(3)
H6 H 0.3073 0.1682 0.7600
H7 H 0.2954 0.0352 0.7388
C8 C 0.1081(3) -0.0887(5) 0.1087(3)
C9 C 0.0408(3) -0.1377(5) 0.0997(4)
H8 H -0.0001 -0.0902 0.0926
C10 C 0.0333(4) -0.2569(6) 0.1010(5)
H9 H -0.0126 -0.2905 0.0931
C11 C 0.0934(5) -0.3247(6) 0.1139(6)
H10 H 0.0886 -0.4053 0.1160
C12 C 0.1608(4) -0.2771(6) 0.1240(6)
H11 H 0.2016 -0.3251 0.1330
C13 C 0.1686(3) -0.1594(5) 0.1209(5)
H12 H 0.2145 -0.1268 0.1270
C14 C 0.1652(3) 0.0989(5) 0.2173(3)
H13 H 0.2022 0.0393 0.2376
H14 H 0.1904 0.1723 0.2160
C15 C 0.3968(3) -0.0403(5) 0.6508(3)
C16 C 0.3421(3) -0.1038(5) 0.5979(4)
H15 H 0.2965 -0.0698 0.5739
C17 C 0.3535(4) -0.2190(6) 0.5794(5)
H16 H 0.3156 -0.2638 0.5444
C18 C 0.4218(5) -0.2660(6) 0.6135(6)
H17 H 0.4303 -0.3435 0.6014
C19 C 0.4762(4) -0.2019(7) 0.6641(5)
H18 H 0.5223 -0.2348 0.6859
C20 C 0.4647(3) -0.0887(6) 0.6840(4)
H19 H 0.5027 -0.0447 0.7198
C21 C 0.1014(3) -0.0336(4) 0.3286(3)
C22 C 0.0315(3) -0.0706(6) 0.3218(4)
H20 H -0.0079 -0.0208 0.2997
C23 C 0.0203(4) -0.1828(6) 0.3482(5)
H21 H -0.0269 -0.2079 0.3450
C24 C 0.0768(5) -0.2560(6) 0.3783(5)
H22 H 0.0684 -0.3319 0.3944
C25 C 0.1466(4) -0.2190(6) 0.3854(5)
H23 H 0.1857 -0.2697 0.4066
C26 C 0.1593(3) -0.1079(5) 0.3616(4)
H24 H 0.2069 -0.0825 0.3677
Cu3C Cu 0.30327(4) 0.12740(7) 0.94829(5)
Cu4C Cu 0.19552(4) 0.12958(6) 0.02974(5)
S1C S 0.38345(7) 0.43939(11) 0.37165(8)
S2C S 0.11433(7) 0.43575(12) 0.60501(8)
loop_
_geom_bond_atom_site_label_1
_geom_bond_atom_site_label_2
_geom_bond_site_symmetry_1
_geom_bond_site_symmetry_2
I1 Cu1 1_555 1_555
I2 Cu1 1_555 1_555
I3 Cu2 1_555 1_555
I4 Cu1 1_555 1_555
Cu1 S4 1_555 1_555
Cu2 I1 1_555 1_555
Cu3 I1 1_555 1_555
Cu4 I2 1_555 1_555
S1 C1 1_555 1_555
S2 C8 1_555 1_555
S3 Cu2 1_555 1_555
S4 C14 1_555 1_555
C1 C2 1_555 1_555
C2 H1 1_555 1_555
C3 C2 1_555 1_555
H2 C3 1_555 1_555
C4 C3 1_555 1_555
H3 C4 1_555 1_555
C5 C4 1_555 1_555
H4 C5 1_555 1_555
C6 C1 1_555 1_555
H5 C6 1_555 1_555
C7 S1 1_555 1_555
H6 C7 1_555 1_555
H7 C7 1_555 1_555
C8 C9 1_555 1_555
C9 H8 1_555 1_555
C10 C9 1_555 1_555
H9 C10 1_555 1_555
C11 C10 1_555 1_555
H10 C11 1_555 1_555
C12 C11 1_555 1_555
H11 C12 1_555 1_555
C13 C8 1_555 1_555
H12 C13 1_555 1_555
C14 S2 1_555 1_555
H13 C14 1_555 1_555
H14 C14 1_555 1_555
C15 S3 1_555 1_555
C16 C15 1_555 1_555
H15 C16 1_555 1_555
C17 C16 1_555 1_555
H16 C17 1_555 1_555
C18 C17 1_555 1_555
H17 C18 1_555 1_555
C19 C18 1_555 1_555
H18 C19 1_555 1_555
C20 C15 1_555 1_555
H19 C20 1_555 1_555
C21 S4 1_555 1_555
C22 C21 1_555 1_555
H20 C22 1_555 1_555
C23 C22 1_555 1_555
H21 C23 1_555 1_555
C24 C23 1_555 1_555
H22 C24 1_555 1_555
C25 C24 1_555 1_555
H23 C25 1_555 1_555
C26 C21 1_555 1_555
H24 C26 1_555 1_555
Cu3C S1 1_555 1_555
Cu4C S2 1_555 1_555
S1C Cu3 1_555 1_555
S2C Cu4 1_555 1_555
I2 Cu2 1_555 1_555
I3 Cu3 1_555 1_555
I3 Cu4 1_555 1_555
I4 Cu3 1_555 1_555
I4 Cu4 1_555 1_555
S3 C7 1_555 1_555
C5 C6 1_555 1_555
C12 C13 1_555 1_555
C19 C20 1_555 1_555
C25 C26 1_555 1_555

#END
