
#######################################################################
#
#                 Cambridge Crystallographic Data Centre
#                                CCDC 
#
#######################################################################
#
# If this CIF has been generated from an entry in the Cambridge 
# Structural Database, then it will include bibliographic, chemical, 
# crystal, experimental, refinement or atomic coordinate data resulting 
# from the CCDC's data processing and validation procedures.
#
#######################################################################

data_MIDFUB02
_symmetry_cell_setting           monoclinic
_symmetry_space_group_name_H-M   'C 2/c'
_symmetry_Int_Tables_number      15
_space_group_name_Hall           '-C 2yn'
loop_
_symmetry_equiv_pos_site_id
_symmetry_equiv_pos_as_xyz
1 x,y,z
2 -x,y,1/2-z
3 1/2+x,1/2+y,z
4 1/2-x,1/2+y,1/2-z
5 -x,-y,-z
6 x,-y,1/2+z
7 1/2-x,1/2-y,-z
8 1/2+x,1/2-y,1/2+z
_cell_length_a                   20.9419(4)
_cell_length_b                   11.6698(3)
_cell_length_c                   15.5977(4)
_cell_angle_alpha                90
_cell_angle_beta                 119.5360(10)
_cell_angle_gamma                90
_cell_volume                     3316.52
loop_
_atom_site_label
_atom_site_type_symbol
_atom_site_fract_x
_atom_site_fract_y
_atom_site_fract_z
C1 C -0.2163(2) 0.3374(4) -0.2937(3)
H1 H -0.2531 0.2816 -0.3288
C2 C -0.2293(3) 0.4524(4) -0.3195(3)
H2 H -0.2751 0.4748 -0.3738
C3 C -0.1775(3) 0.5337(4) -0.2682(3)
H3 H -0.1875 0.6122 -0.2860
C4 C -0.1099(2) 0.5013(4) -0.1898(3)
H4 H -0.0739 0.5579 -0.1538
C5 C -0.0947(2) 0.3867(4) -0.1639(3)
H5 H -0.0480 0.3644 -0.1116
C6 C -0.14835(19) 0.3050(3) -0.2153(2)
C7 C -0.08580(18) 0.1479(3) -0.0556(2)
H6 H -0.0473 0.2077 -0.0308
H7 H -0.0608 0.0726 -0.0367
C8 C -0.14860(19) 0.3167(3) 0.0082(2)
C9 C -0.2143(2) 0.3650(3) -0.0629(3)
H8 H -0.2525 0.3180 -0.1101
C10 C -0.2234(2) 0.4832(3) -0.0640(3)
H9 H -0.2678 0.5171 -0.1126
C11 C -0.1683(2) 0.5514(4) 0.0051(3)
H10 H -0.1748 0.6321 0.0037
C12 C -0.1032(2) 0.5022(4) 0.0767(3)
H11 H -0.0654 0.5493 0.1246
C13 C -0.0935(2) 0.3843(3) 0.0784(3)
H12 H -0.0493 0.3504 0.1275
Cu1 Cu 0.05239(2) -0.07875(4) 0.22669(3)
Cu2 Cu -0.05578(2) 0.09059(4) 0.15762(3)
I1 I 0.081507(12) 0.145275(19) 0.199199(15)
I2 I -0.083925(12) -0.135040(19) 0.093114(16)
S1 S -0.13648(5) 0.15623(7) -0.18873(6)
S2 S -0.13947(4) 0.16489(7) 0.00633(6)
Cu1A Cu -0.05239(2) -0.07875(4) 0.27331(3)
Cu1D Cu -0.05239(2) 0.07875(4) -0.22669(3)
Cu2A Cu 0.05578(2) 0.09059(4) 0.34238(3)
I1A I -0.081507(12) 0.145275(19) 0.300801(15)
I2A I 0.083925(12) -0.135040(19) 0.406886(16)
S1D S 0.13648(5) -0.15623(7) 0.18873(6)
loop_
_geom_bond_atom_site_label_1
_geom_bond_atom_site_label_2
_geom_bond_site_symmetry_1
_geom_bond_site_symmetry_2
C1 H1 1_555 1_555
C2 C1 1_555 1_555
H2 C2 1_555 1_555
C3 C2 1_555 1_555
H3 C3 1_555 1_555
C4 C3 1_555 1_555
H4 C4 1_555 1_555
C5 C4 1_555 1_555
H5 C5 1_555 1_555
C6 C1 1_555 1_555
C7 H6 1_555 1_555
H7 C7 1_555 1_555
C8 C9 1_555 1_555
C9 H8 1_555 1_555
C10 C9 1_555 1_555
H9 C10 1_555 1_555
C11 C10 1_555 1_555
H10 C11 1_555 1_555
C12 C11 1_555 1_555
H11 C12 1_555 1_555
C13 C8 1_555 1_555
H12 C13 1_555 1_555
Cu1 I1 1_555 1_555
Cu2 I1 1_555 1_555
I1 Cu2A 1_555 1_555
I2 Cu1 1_555 1_555
S1 C6 1_555 1_555
S2 C7 1_555 1_555
Cu1A I2 1_555 1_555
Cu1D S1 1_555 1_555
Cu2A I1A 1_555 1_555
I1A Cu2 1_555 1_555
I2A Cu1 1_555 1_555
S1D Cu1 1_555 1_555
C5 C6 1_555 1_555
C7 S1 1_555 1_555
C8 S2 1_555 1_555
C12 C13 1_555 1_555
Cu2 I2 1_555 1_555
Cu2 S2 1_555 1_555
Cu1A I1A 1_555 1_555
Cu1A I2A 1_555 1_555
Cu2A I2A 1_555 1_555

#END
