
#######################################################################
#
#                 Cambridge Crystallographic Data Centre
#                                CCDC 
#
#######################################################################
#
# If this CIF has been generated from an entry in the Cambridge 
# Structural Database, then it will include bibliographic, chemical, 
# crystal, experimental, refinement or atomic coordinate data resulting 
# from the CCDC's data processing and validation procedures.
#
#######################################################################

data_MIDFUB03
_symmetry_cell_setting           monoclinic
_symmetry_space_group_name_H-M   'C 2/c'
_symmetry_Int_Tables_number      15
_space_group_name_Hall           '-C 2yn'
loop_
_symmetry_equiv_pos_site_id
_symmetry_equiv_pos_as_xyz
1 x,y,z
2 -x,y,1/2-z
3 1/2+x,1/2+y,z
4 1/2-x,1/2+y,1/2-z
5 -x,-y,-z
6 x,-y,1/2+z
7 1/2-x,1/2-y,-z
8 1/2+x,1/2-y,1/2+z
_cell_length_a                   21.0230(5)
_cell_length_b                   11.6821(3)
_cell_length_c                   15.6172(4)
_cell_angle_alpha                90
_cell_angle_beta                 119.6280(10)
_cell_angle_gamma                90
_cell_volume                     3334
loop_
_atom_site_label
_atom_site_type_symbol
_atom_site_fract_x
_atom_site_fract_y
_atom_site_fract_z
C1 C -0.2164(3) 0.3378(4) -0.2929(3)
H1 H -0.2533 0.2821 -0.3274
C2 C -0.2296(3) 0.4520(4) -0.3189(4)
H2 H -0.2754 0.4744 -0.3727
C3 C -0.1775(3) 0.5331(4) -0.2680(4)
H3 H -0.1876 0.6115 -0.2857
C4 C -0.1102(3) 0.5011(4) -0.1907(4)
H4 H -0.0743 0.5578 -0.1553
C5 C -0.0947(2) 0.3868(4) -0.1646(4)
H5 H -0.0480 0.3646 -0.1127
C6 C -0.1484(2) 0.3052(3) -0.2155(3)
C7 C -0.0857(2) 0.1480(3) -0.0558(2)
H6 H -0.0473 0.2078 -0.0309
H7 H -0.0607 0.0729 -0.0369
C8 C -0.1486(2) 0.3165(3) 0.0082(3)
C9 C -0.2142(2) 0.3647(3) -0.0621(3)
H8 H -0.2524 0.3176 -0.1090
C10 C -0.2232(3) 0.4819(4) -0.0632(4)
H9 H -0.2677 0.5157 -0.1116
C11 C -0.1680(3) 0.5505(4) 0.0059(4)
H10 H -0.1746 0.6311 0.0046
C12 C -0.1034(3) 0.5018(4) 0.0765(4)
H11 H -0.0658 0.5488 0.1243
C13 C -0.0933(2) 0.3840(4) 0.0779(3)
H12 H -0.0488 0.3503 0.1263
Cu1 Cu 0.05241(3) -0.07925(5) 0.22678(4)
Cu2 Cu -0.05581(3) 0.09045(5) 0.15733(3)
I1 I 0.081300(13) 0.14497(2) 0.199517(17)
I2 I -0.083733(14) -0.13522(2) 0.093111(17)
S1 S -0.13628(5) 0.15646(8) -0.18889(7)
S2 S -0.13925(5) 0.16488(8) 0.00599(6)
Cu1A Cu -0.05241(3) -0.07925(5) 0.27322(4)
Cu1D Cu -0.05241(3) 0.07925(5) -0.22678(4)
Cu2A Cu 0.05581(3) 0.09045(5) 0.34267(3)
I1A I -0.081300(13) 0.14497(2) 0.300483(17)
I2A I 0.083733(14) -0.13522(2) 0.406889(17)
S1D S 0.13628(5) -0.15646(8) 0.18889(7)
loop_
_geom_bond_atom_site_label_1
_geom_bond_atom_site_label_2
_geom_bond_site_symmetry_1
_geom_bond_site_symmetry_2
C1 H1 1_555 1_555
C2 C1 1_555 1_555
H2 C2 1_555 1_555
C3 C2 1_555 1_555
H3 C3 1_555 1_555
C4 C3 1_555 1_555
H4 C4 1_555 1_555
C5 C4 1_555 1_555
H5 C5 1_555 1_555
C6 C1 1_555 1_555
C7 H6 1_555 1_555
H7 C7 1_555 1_555
C8 C9 1_555 1_555
C9 H8 1_555 1_555
C10 C9 1_555 1_555
H9 C10 1_555 1_555
C11 C10 1_555 1_555
H10 C11 1_555 1_555
C12 C11 1_555 1_555
H11 C12 1_555 1_555
C13 C8 1_555 1_555
H12 C13 1_555 1_555
Cu1 I1 1_555 1_555
Cu2 I1 1_555 1_555
I1 Cu2A 1_555 1_555
I2 Cu1 1_555 1_555
S1 C6 1_555 1_555
S2 C7 1_555 1_555
Cu1A I2 1_555 1_555
Cu1D S1 1_555 1_555
Cu2A I1A 1_555 1_555
I1A Cu2 1_555 1_555
I2A Cu1 1_555 1_555
S1D Cu1 1_555 1_555
C5 C6 1_555 1_555
C7 S1 1_555 1_555
C8 S2 1_555 1_555
C12 C13 1_555 1_555
Cu2 I2 1_555 1_555
Cu2 S2 1_555 1_555
Cu1A I1A 1_555 1_555
Cu1A I2A 1_555 1_555
Cu2A I2A 1_555 1_555

#END
