
#######################################################################
#
#                 Cambridge Crystallographic Data Centre
#                                CCDC 
#
#######################################################################
#
# If this CIF has been generated from an entry in the Cambridge 
# Structural Database, then it will include bibliographic, chemical, 
# crystal, experimental, refinement or atomic coordinate data resulting 
# from the CCDC's data processing and validation procedures.
#
#######################################################################

data_MIDFUB01
_symmetry_cell_setting           monoclinic
_symmetry_space_group_name_H-M   'C 2/c'
_symmetry_Int_Tables_number      15
_space_group_name_Hall           '-C 2yn'
loop_
_symmetry_equiv_pos_site_id
_symmetry_equiv_pos_as_xyz
1 x,y,z
2 -x,y,1/2-z
3 1/2+x,1/2+y,z
4 1/2-x,1/2+y,1/2-z
5 -x,-y,-z
6 x,-y,1/2+z
7 1/2-x,1/2-y,-z
8 1/2+x,1/2-y,1/2+z
_cell_length_a                   20.8678(5)
_cell_length_b                   11.6643(4)
_cell_length_c                   15.5812(5)
_cell_angle_alpha                90
_cell_angle_beta                 119.4890(10)
_cell_angle_gamma                90
_cell_volume                     3301.26
loop_
_atom_site_label
_atom_site_type_symbol
_atom_site_fract_x
_atom_site_fract_y
_atom_site_fract_z
C1 C -0.2162(2) 0.3377(4) -0.2936(3)
H1 H -0.2532 0.2819 -0.3286
C2 C -0.2296(2) 0.4525(4) -0.3203(3)
H2 H -0.2751 0.4750 -0.3752
C3 C -0.1767(2) 0.5338(4) -0.2671(3)
H3 H -0.1867 0.6125 -0.2843
C4 C -0.1096(2) 0.5018(4) -0.1893(3)
H4 H -0.0734 0.5583 -0.1531
C5 C -0.0948(2) 0.3866(3) -0.1638(3)
H5 H -0.0481 0.3639 -0.1114
C6 C -0.14874(19) 0.3050(3) -0.2157(3)
C7 C -0.08585(19) 0.1473(3) -0.0554(2)
H6 H -0.0470 0.2068 -0.0305
H7 H -0.0610 0.0718 -0.0366
C8 C -0.14871(19) 0.3166(3) 0.0087(3)
C9 C -0.2144(2) 0.3658(3) -0.0629(3)
H8 H -0.2527 0.3187 -0.1101
C10 C -0.2237(2) 0.4836(3) -0.0647(3)
H9 H -0.2681 0.5175 -0.1138
C11 C -0.1684(2) 0.5518(3) 0.0047(3)
H10 H -0.1749 0.6325 0.0033
C12 C -0.1033(2) 0.5028(3) 0.0768(3)
H11 H -0.0655 0.5501 0.1246
C13 C -0.0933(2) 0.3846(3) 0.0792(3)
H12 H -0.0490 0.3508 0.1287
Cu1 Cu 0.05240(2) -0.07817(4) 0.22658(3)
Cu2 Cu -0.05573(2) 0.09074(4) 0.15787(3)
I1 I 0.081704(12) 0.145584(19) 0.198877(15)
I2 I -0.084134(12) -0.134822(19) 0.093059(16)
S1 S -0.13675(5) 0.15594(7) -0.18871(6)
S2 S -0.13981(5) 0.16482(7) 0.00656(6)
Cu1A Cu -0.05240(2) -0.07817(4) 0.27342(3)
Cu1D Cu -0.05240(2) 0.07817(4) -0.22658(3)
Cu2A Cu 0.05573(2) 0.09074(4) 0.34213(3)
I1A I -0.081704(12) 0.145584(19) 0.301123(15)
I2A I 0.084134(12) -0.134822(19) 0.406941(16)
S1D S 0.13675(5) -0.15594(7) 0.18871(6)
loop_
_geom_bond_atom_site_label_1
_geom_bond_atom_site_label_2
_geom_bond_site_symmetry_1
_geom_bond_site_symmetry_2
C1 H1 1_555 1_555
C2 C1 1_555 1_555
H2 C2 1_555 1_555
C3 C2 1_555 1_555
H3 C3 1_555 1_555
C4 C3 1_555 1_555
H4 C4 1_555 1_555
C5 C4 1_555 1_555
H5 C5 1_555 1_555
C6 C1 1_555 1_555
C7 H6 1_555 1_555
H7 C7 1_555 1_555
C8 C9 1_555 1_555
C9 H8 1_555 1_555
C10 C9 1_555 1_555
H9 C10 1_555 1_555
C11 C10 1_555 1_555
H10 C11 1_555 1_555
C12 C11 1_555 1_555
H11 C12 1_555 1_555
C13 C8 1_555 1_555
H12 C13 1_555 1_555
Cu1 I1 1_555 1_555
Cu2 I1 1_555 1_555
I1 Cu2A 1_555 1_555
I2 Cu1 1_555 1_555
S1 C6 1_555 1_555
S2 C7 1_555 1_555
Cu1A I2 1_555 1_555
Cu1D S1 1_555 1_555
Cu2A I1A 1_555 1_555
I1A Cu2 1_555 1_555
I2A Cu1 1_555 1_555
S1D Cu1 1_555 1_555
C5 C6 1_555 1_555
C7 S1 1_555 1_555
C8 S2 1_555 1_555
C12 C13 1_555 1_555
Cu2 I2 1_555 1_555
Cu2 S2 1_555 1_555
Cu1A I1A 1_555 1_555
Cu1A I2A 1_555 1_555
Cu2A I2A 1_555 1_555

#END
