
#######################################################################
#
#                 Cambridge Crystallographic Data Centre
#                                CCDC 
#
#######################################################################
#
# If this CIF has been generated from an entry in the Cambridge 
# Structural Database, then it will include bibliographic, chemical, 
# crystal, experimental, refinement or atomic coordinate data resulting 
# from the CCDC's data processing and validation procedures.
#
#######################################################################

data_MIDGAI
_symmetry_cell_setting           monoclinic
_symmetry_space_group_name_H-M   'P 21/n'
_symmetry_Int_Tables_number      14
_space_group_name_Hall           '-P 2yn'
loop_
_symmetry_equiv_pos_site_id
_symmetry_equiv_pos_as_xyz
1 x,y,z
2 1/2-x,1/2+y,1/2-z
3 -x,-y,-z
4 1/2+x,1/2-y,1/2+z
_cell_length_a                   9.4711(18)
_cell_length_b                   7.928(2)
_cell_length_c                   19.632(4)
_cell_angle_alpha                90
_cell_angle_beta                 97.78(2)
_cell_angle_gamma                90
_cell_volume                     1460.54
loop_
_atom_site_label
_atom_site_type_symbol
_atom_site_fract_x
_atom_site_fract_y
_atom_site_fract_z
C1 C 0.7190(4) 0.9245(4) -0.0752(2)
C2 C 0.6021(4) 1.0303(5) -0.0794(2)
H1 H 0.568 1.0684 -0.0388
C3 C 0.5350(5) 1.0805(5) -0.1433(3)
H2 H 0.4536 1.1516 -0.1465
C4 C 0.5858(5) 1.0276(5) -0.2023(2)
H3 H 0.5404 1.0639 -0.246
C5 C 0.7030(4) 0.9217(4) -0.1979(2)
H4 H 0.7381 0.885 -0.2386
C6 C 0.7685(4) 0.8695(4) -0.1343(2)
H5 H 0.8479 0.7954 -0.1312
C7 C 0.9477(3) 1.0055(4) 0.02513(17)
H6 H 0.9102 1.1221 0.0249
H7 H 0.9981 0.9826 0.0718
C8 C 0.5366(4) 0.4157(4) 0.00174(19)
H8 H 0.5537 0.3831 -0.0451
H9 H 0.4723 0.3304 0.0178
C9 C 0.6550(3) 0.4757(4) 0.13835(17)
C10 C 0.7453(4) 0.5798(4) 0.1801(2)
H10 H 0.8275 0.6255 0.164
C11 C 0.7161(4) 0.6178(5) 0.2455(2)
H11 H 0.7794 0.6879 0.2746
C12 C 0.5957(5) 0.5544(5) 0.2686(2)
H12 H 0.5756 0.5811 0.3135
C13 C 0.5044(4) 0.4518(5) 0.2261(2)
H13 H 0.4207 0.4093 0.2418
C14 C 0.5334(4) 0.4108(4) 0.1616(2)
H14 H 0.471 0.3387 0.133
Cu1 Cu 0.87714(5) 0.58539(5) 0.01363(2)
I1 I 0.88509(2) 0.41179(3) -0.098799(11)
S1 S 0.79845(8) 0.86015(10) 0.00786(4)
S2 S 0.70504(9) 0.41244(9) 0.05824(5)
C1B C 1.2810(4) 1.0755(4) 0.0752(2)
C2B C 1.3979(4) 0.9697(5) 0.0794(2)
H1B H 1.432 0.9316 0.0388
C3B C 1.4650(5) 0.9195(5) 0.1433(3)
H2B H 1.5464 0.8484 0.1465
C4B C 1.4142(5) 0.9724(5) 0.2023(2)
H3B H 1.4596 0.9361 0.246
C5B C 1.2970(4) 1.0783(4) 0.1979(2)
H4B H 1.2619 1.115 0.2386
C6B C 1.2315(4) 1.1305(4) 0.1343(2)
H5B H 1.1521 1.2046 0.1312
C7B C 1.0523(3) 0.9945(4) -0.02513(17)
H6B H 1.0898 0.8779 -0.0249
H7B H 1.0019 1.0174 -0.0718
C8B C 0.4634(4) 0.5843(4) -0.00174(19)
H8B H 0.4463 0.6169 0.0451
H9B H 0.5277 0.6696 -0.0178
C9B C 0.3450(3) 0.5243(4) -0.13835(17)
C10B C 0.2547(4) 0.4202(4) -0.1801(2)
H10B H 0.1725 0.3745 -0.164
C11B C 0.2839(4) 0.3822(5) -0.2455(2)
H11B H 0.2206 0.3121 -0.2746
C12B C 0.4043(5) 0.4456(5) -0.2686(2)
H12B H 0.4244 0.4189 -0.3135
C13B C 0.4956(4) 0.5482(5) -0.2261(2)
H13B H 0.5793 0.5907 -0.2418
C14B C 0.4666(4) 0.5892(4) -0.1616(2)
H14B H 0.529 0.6613 -0.133
Cu1B Cu 1.12286(5) 0.41461(5) -0.01363(2)
Cu1B_2 Cu 1.12286(5) 1.41461(5) -0.01363(2)
Cu1B_3 Cu 0.12286(5) 0.41461(5) -0.01363(2)
I1B I 1.11491(2) 0.58821(3) 0.098799(11)
S1B S 1.20155(8) 1.13985(10) -0.00786(4)
S1B_2 S 1.20155(8) 0.13985(10) -0.00786(4)
S2B S 0.29496(9) 0.58756(9) -0.05824(5)
S2B_2 S 1.29496(9) 0.58756(9) -0.05824(5)
loop_
_geom_bond_atom_site_label_1
_geom_bond_atom_site_label_2
_geom_bond_site_symmetry_1
_geom_bond_site_symmetry_2
C1 C2 1_555 1_555
C2 H1 1_555 1_555
C3 C2 1_555 1_555
H2 C3 1_555 1_555
C4 C3 1_555 1_555
H3 C4 1_555 1_555
C5 C4 1_555 1_555
H4 C5 1_555 1_555
C6 C1 1_555 1_555
H5 C6 1_555 1_555
C7 H6 1_555 1_555
H7 C7 1_555 1_555
C8 H8 1_555 1_555
H9 C8 1_555 1_555
C9 C10 1_555 1_555
C10 H10 1_555 1_555
C11 C10 1_555 1_555
H11 C11 1_555 1_555
C12 C11 1_555 1_555
H12 C12 1_555 1_555
C13 C12 1_555 1_555
H13 C13 1_555 1_555
C14 C9 1_555 1_555
H14 C14 1_555 1_555
Cu1 I1 1_555 1_555
I1 Cu1B 1_555 1_555
S1 C1 1_555 1_555
S2 C8 1_555 1_555
C1B C2B 1_555 1_555
C2B H1B 1_555 1_555
C3B C2B 1_555 1_555
H2B C3B 1_555 1_555
C4B C3B 1_555 1_555
H3B C4B 1_555 1_555
C5B C4B 1_555 1_555
H4B C5B 1_555 1_555
C6B C1B 1_555 1_555
H5B C6B 1_555 1_555
C7B C7 1_555 1_555
H6B C7B 1_555 1_555
H7B C7B 1_555 1_555
C8B C8 1_555 1_555
H8B C8B 1_555 1_555
H9B C8B 1_555 1_555
C9B C10B 1_555 1_555
C10B H10B 1_555 1_555
C11B C10B 1_555 1_555
H11B C11B 1_555 1_555
C12B C11B 1_555 1_555
H12B C12B 1_555 1_555
C13B C12B 1_555 1_555
H13B C13B 1_555 1_555
C14B C9B 1_555 1_555
H14B C14B 1_555 1_555
Cu1B I1B 1_555 1_555
Cu1B_2 S1B 1_555 1_555
Cu1B_3 S2B 1_555 1_555
I1B Cu1 1_555 1_555
S1B C1B 1_555 1_555
S1B_2 Cu1B 1_555 1_555
S2B C8B 1_555 1_555
S2B_2 Cu1B 1_555 1_555
C5 C6 1_555 1_555
C7 S1 1_555 1_555
C9 S2 1_555 1_555
C13 C14 1_555 1_555
Cu1 S1 1_555 1_555
Cu1 S2 1_555 1_555
C5B C6B 1_555 1_555
C7B S1B 1_555 1_555
C9B S2B 1_555 1_555
C13B C14B 1_555 1_555

#END
