
#######################################################################
#
#                 Cambridge Crystallographic Data Centre
#                                CCDC 
#
#######################################################################
#
# If this CIF has been generated from an entry in the Cambridge 
# Structural Database, then it will include bibliographic, chemical, 
# crystal, experimental, refinement or atomic coordinate data resulting 
# from the CCDC's data processing and validation procedures.
#
#######################################################################

data_MIDHIS
_symmetry_cell_setting           monoclinic
_symmetry_space_group_name_H-M   'C 2/c'
_symmetry_Int_Tables_number      15
_space_group_name_Hall           '-C 2yn'
loop_
_symmetry_equiv_pos_site_id
_symmetry_equiv_pos_as_xyz
1 x,y,z
2 -x,y,1/2-z
3 1/2+x,1/2+y,z
4 1/2-x,1/2+y,1/2-z
5 -x,-y,-z
6 x,-y,1/2+z
7 1/2-x,1/2-y,-z
8 1/2+x,1/2-y,1/2+z
_cell_length_a                   13.011(5)
_cell_length_b                   15.901(5)
_cell_length_c                   11.739(5)
_cell_angle_alpha                90
_cell_angle_beta                 118.035(5)
_cell_angle_gamma                90
_cell_volume                     2143.68
loop_
_atom_site_label
_atom_site_type_symbol
_atom_site_fract_x
_atom_site_fract_y
_atom_site_fract_z
U1 U 0.5000 0.184356(11) 0.2500
O1 O 0.3638(3) 0.18076(16) 0.2482(3)
O2 O 0.4507(3) 0.29429(18) 0.1076(3)
O3 O 0.5422(3) 0.2736(2) -0.0098(4)
N1 N 0.3824(3) 0.1103(2) 0.0289(3)
N2 N 0.5000 0.0214(3) 0.2500
C1 C 0.3209(4) 0.1556(3) -0.0787(5)
H1 H 0.3191 0.2137 -0.0712
C2 C 0.2604(4) 0.1202(3) -0.1997(5)
H2 H 0.2202 0.1538 -0.2723
C3 C 0.2609(4) 0.0341(3) -0.2103(5)
H3 H 0.2218 0.0084 -0.2907
C4 C 0.3198(4) -0.0134(3) -0.1012(4)
H4 H 0.3195 -0.0718 -0.1073
C5 C 0.3798(3) 0.0251(3) 0.0180(4)
C6 C 0.4423(3) -0.0230(2) 0.1381(4)
C7 C 0.4422(4) -0.1106(3) 0.1365(5)
H5 H 0.4031 -0.1394 0.0587
C8 C 0.5000 -0.1542(4) 0.2500
H6 H 0.5000 -0.2126 0.2500
C9 C 0.4970(4) 0.3201(2) 0.0370(4)
C10 C 0.4960(3) 0.4136(2) 0.0166(4)
C11 C 0.4503(4) 0.4681(2) 0.0725(4)
H7 H 0.4167 0.4472 0.1212
C12 C 0.5455(4) 0.4455(3) -0.0561(4)
H8 H 0.5762 0.4090 -0.0943
O2D O 0.5493(3) 0.70571(18) -0.1076(3)
O3D O 0.4578(3) 0.7264(2) 0.0098(4)
C9D C 0.5030(4) 0.6799(2) -0.0370(4)
C10D C 0.5040(3) 0.5864(2) -0.0166(4)
C11D C 0.5497(4) 0.5319(2) -0.0725(4)
H7D H 0.5833 0.5528 -0.1212
C12D C 0.4545(4) 0.5545(3) 0.0561(4)
H8D H 0.4238 0.5910 0.0943
N1A N 0.6176(3) 0.1103(2) 0.4711(3)
C1A C 0.6791(4) 0.1556(3) 0.5787(5)
H1A H 0.6809 0.2137 0.5712
C2A C 0.7396(4) 0.1202(3) 0.6997(5)
H2A H 0.7798 0.1538 0.7723
C3A C 0.7391(4) 0.0341(3) 0.7103(5)
H3A H 0.7782 0.0084 0.7907
C4A C 0.6802(4) -0.0134(3) 0.6012(4)
H4A H 0.6805 -0.0718 0.6073
C5A C 0.6202(3) 0.0251(3) 0.4820(4)
C6A C 0.5577(3) -0.0230(2) 0.3619(4)
C7A C 0.5578(4) -0.1106(3) 0.3635(5)
H5A H 0.5969 -0.1394 0.4413
O1A O 0.6362(3) 0.18076(16) 0.2518(3)
U1D U 0.5000 0.815644(11) -0.2500
O2A O 0.5493(3) 0.29429(18) 0.3924(3)
loop_
_geom_bond_atom_site_label_1
_geom_bond_atom_site_label_2
_geom_bond_site_symmetry_1
_geom_bond_site_symmetry_2
U1 O1 1_555 1_555
O2 U1 1_555 1_555
O3 C9 1_555 1_555
N1 U1 1_555 1_555
N2 U1 1_555 1_555
C1 N1 1_555 1_555
H1 C1 1_555 1_555
C2 C1 1_555 1_555
H2 C2 1_555 1_555
C3 C2 1_555 1_555
H3 C3 1_555 1_555
C4 C3 1_555 1_555
H4 C4 1_555 1_555
C5 N1 1_555 1_555
C6 N2 1_555 1_555
C7 C6 1_555 1_555
H5 C7 1_555 1_555
C8 C7 1_555 1_555
H6 C8 1_555 1_555
C9 O2 1_555 1_555
C10 C9 1_555 1_555
C11 C10 1_555 1_555
H7 C11 1_555 1_555
C12 C10 1_555 1_555
H8 C12 1_555 1_555
O2D C9D 1_555 1_555
O3D C9D 1_555 1_555
C9D C10D 1_555 1_555
C10D C11D 1_555 1_555
C11D C12 1_555 1_555
H7D C11D 1_555 1_555
C12D C11 1_555 1_555
H8D C12D 1_555 1_555
N1A U1 1_555 1_555
C1A N1A 1_555 1_555
H1A C1A 1_555 1_555
C2A C1A 1_555 1_555
H2A C2A 1_555 1_555
C3A C2A 1_555 1_555
H3A C3A 1_555 1_555
C4A C3A 1_555 1_555
H4A C4A 1_555 1_555
C5A N1A 1_555 1_555
C6A N2 1_555 1_555
C7A C8 1_555 1_555
H5A C7A 1_555 1_555
O1A U1 1_555 1_555
U1D O2D 1_555 1_555
O2A U1 1_555 1_555
C4 C5 1_555 1_555
C5 C6 1_555 1_555
C10D C12D 1_555 1_555
C4A C5A 1_555 1_555
C5A C6A 1_555 1_555
C6A C7A 1_555 1_555

#END
