
#######################################################################
#
#                 Cambridge Crystallographic Data Centre
#                                CCDC 
#
#######################################################################
#
# If this CIF has been generated from an entry in the Cambridge 
# Structural Database, then it will include bibliographic, chemical, 
# crystal, experimental, refinement or atomic coordinate data resulting 
# from the CCDC's data processing and validation procedures.
#
#######################################################################

data_MIDJOA
_symmetry_cell_setting           monoclinic
_symmetry_space_group_name_H-M   'P 21/n'
_symmetry_Int_Tables_number      14
_space_group_name_Hall           '-P 2yn'
loop_
_symmetry_equiv_pos_site_id
_symmetry_equiv_pos_as_xyz
1 x,y,z
2 1/2-x,1/2+y,1/2-z
3 -x,-y,-z
4 1/2+x,1/2-y,1/2+z
_cell_length_a                   8.0139(7)
_cell_length_b                   18.7502(9)
_cell_length_c                   25.509(2)
_cell_angle_alpha                90
_cell_angle_beta                 98.902(10)
_cell_angle_gamma                90
_cell_volume                     3786.87
loop_
_atom_site_label
_atom_site_type_symbol
_atom_site_fract_x
_atom_site_fract_y
_atom_site_fract_z
Cu1 Cu 0.46028(5) 0.07028(2) 0.058489(19)
Cu2 Cu 0.11402(6) 0.30272(2) 0.36188(2)
Cu3 Cu 0.13231(6) 0.39806(2) 0.15582(2)
N1 N 0.3073(3) 0.30534(14) 0.16982(12)
C1 C 0.2635(5) 0.25296(17) 0.20967(16)
H1 H 0.3593 0.2219 0.2207
H2 H 0.1697 0.2236 0.1936
C2 C 0.2159(5) 0.29100(19) 0.25790(16)
H3 H 0.3054 0.3243 0.2710
H4 H 0.1144 0.3186 0.2467
C3 C 0.2928(5) 0.27078(17) 0.11682(15)
H5 H 0.3388 0.3028 0.0928
H6 H 0.1742 0.2638 0.1031
C4 C 0.3854(5) 0.19724(17) 0.11692(15)
H7 H 0.4922 0.1997 0.1406
H8 H 0.3171 0.1606 0.1301
C5 C 0.4760(5) 0.33630(18) 0.18653(17)
H9 H 0.5615 0.3028 0.1791
H10 H 0.4927 0.3448 0.2245
C6 C 0.4958(5) 0.40599(19) 0.15771(18)
H11 H 0.5998 0.4292 0.1734
H12 H 0.5031 0.3962 0.1208
N2 N 0.1859(4) 0.24394(14) 0.30260(13)
N3 N 0.4169(4) 0.17730(15) 0.06230(12)
N4 N 0.3498(4) 0.45474(16) 0.16083(14)
C7 C 0.0417(5) 0.19433(19) 0.28670(17)
H13 H 0.0406 0.1578 0.3136
H14 H 0.0537 0.1712 0.2535
C8 C -0.1242(5) 0.2370(2) 0.28029(19)
H15 H -0.1312 0.2692 0.2503
H16 H -0.2206 0.2052 0.2747
N5 N -0.1208(4) 0.27776(17) 0.33038(15)
H17 H -0.1682 0.2515 0.3537
H18 H -0.1819 0.3179 0.3238
C9 C 0.3422(5) 0.2064(2) 0.32835(16)
H19 H 0.3122 0.1681 0.3507
H20 H 0.4007 0.1859 0.3014
C10 C 0.4541(5) 0.2583(2) 0.36091(17)
H21 H 0.5014 0.2914 0.3379
H22 H 0.5466 0.2333 0.3822
N6 N 0.3543(4) 0.29832(16) 0.39618(14)
H23 H 0.3959 0.3427 0.4017
H24 H 0.3619 0.2762 0.4278
C11 C 0.2697(5) 0.1880(2) 0.02076(16)
H25 H 0.3022 0.1814 -0.0140
H26 H 0.2263 0.2360 0.0228
C12 C 0.1347(5) 0.13388(18) 0.02924(17)
H27 H 0.0949 0.1427 0.0627
H28 H 0.0394 0.1369 0.0008
N7 N 0.2147(4) 0.06313(15) 0.02966(13)
H29 H 0.2017 0.0456 -0.0036
H30 H 0.1643 0.0330 0.0498
C13 C 0.5716(5) 0.21398(19) 0.04956(16)
H31 H 0.5750 0.2628 0.0623
H32 H 0.5700 0.2149 0.0115
C14 C 0.7259(5) 0.17353(18) 0.07626(17)
H33 H 0.8273 0.1923 0.0649
H34 H 0.7370 0.1784 0.1145
N8 N 0.7024(4) 0.09739(14) 0.06074(14)
H35 H 0.7682 0.0698 0.0843
H36 H 0.7331 0.0906 0.0286
C15 C 0.3294(6) 0.5057(2) 0.1151(2)
H37 H 0.2628 0.5464 0.1231
H38 H 0.4393 0.5230 0.1094
C16 C 0.2443(7) 0.4699(3) 0.0663(2)
H39 H 0.2158 0.5045 0.0380
H40 H 0.3186 0.4344 0.0546
N9 N 0.0884(5) 0.43525(19) 0.07888(15)
H41 H 0.0589 0.3988 0.0564
H42 H 0.0030 0.4669 0.0751
C17 C 0.3722(5) 0.4921(2) 0.21310(19)
H43 H 0.4512 0.5312 0.2128
H44 H 0.4181 0.4592 0.2410
C18 C 0.2047(6) 0.5203(2) 0.22384(19)
H45 H 0.2165 0.5392 0.2596
H46 H 0.1669 0.5585 0.1992
N10 N 0.0803(4) 0.46221(15) 0.21755(14)
H47 H -0.0249 0.4800 0.2100
H48 H 0.0880 0.4367 0.2477
C19 C 0.4583(5) -0.0755(2) 0.08206(16)
C20 C 0.4271(5) -0.0411(2) 0.13606(16)
O1 O 0.3946(3) -0.08451(13) 0.17117(11)
O2 O 0.4923(3) -0.03446(12) 0.04672(10)
O3 O 0.4527(3) -0.14165(12) 0.07756(11)
O4 O 0.4378(4) 0.02485(12) 0.13906(11)
Cl1 Cl -0.10516(13) 0.33139(6) 0.14901(5)
N11 N -0.0210(17) 0.1657(7) 0.4436(6)
O5 O 0.0905(6) 0.18380(17) 0.42134(18)
O6 O -0.1752(12) 0.1792(5) 0.4286(4)
O7 O -0.0056(12) 0.1274(5) 0.4877(4)
Cu2A Cu 0.38598(6) -0.19728(2) 0.13812(2)
O1A O 0.1054(3) 0.41549(13) 0.32883(11)
O3A O 0.0473(3) 0.35835(12) 0.42244(11)
O8 O 0.1444(16) 0.0955(5) 0.5404(5)
Cl2 Cl -0.01876(13) -0.04149(5) 0.09071(4)
N12 N 0.6840(17) 0.0811(6) 0.2353(6)
O9 O 0.7190(13) 0.0182(5) 0.2548(5)
O10 O 0.7454(14) 0.1102(5) 0.1950(5)
O11 O 0.5809(13) 0.1136(5) 0.2582(5)
O12 O 0.0387(5) 0.09856(15) 0.16502(13)
O13 O 0.0947(8) 0.4279(3) -0.0662(3)
O14 O 0.8326(4) -0.09243(14) 0.19139(12)
O15 O -0.0822(3) 0.31681(11) -0.01010(9)
O16 O 0.2145(2) 0.41689(10) -0.17236(8)
Cl3? Cl 0.7340(6) 0.0562(3) 0.2095(2)
loop_
_geom_bond_atom_site_label_1
_geom_bond_atom_site_label_2
_geom_bond_site_symmetry_1
_geom_bond_site_symmetry_2
Cu1 N3 1_555 1_555
Cu2 N2 1_555 1_555
Cu3 N1 1_555 1_555
N1 C1 1_555 1_555
C1 H1 1_555 1_555
H2 C1 1_555 1_555
C2 C1 1_555 1_555
H3 C2 1_555 1_555
H4 C2 1_555 1_555
C3 N1 1_555 1_555
H5 C3 1_555 1_555
H6 C3 1_555 1_555
C4 C3 1_555 1_555
H7 C4 1_555 1_555
H8 C4 1_555 1_555
C5 N1 1_555 1_555
H9 C5 1_555 1_555
H10 C5 1_555 1_555
C6 C5 1_555 1_555
H11 C6 1_555 1_555
H12 C6 1_555 1_555
N2 C2 1_555 1_555
N3 C4 1_555 1_555
N4 Cu3 1_555 1_555
C7 N2 1_555 1_555
H13 C7 1_555 1_555
H14 C7 1_555 1_555
C8 C7 1_555 1_555
H15 C8 1_555 1_555
H16 C8 1_555 1_555
N5 Cu2 1_555 1_555
H17 N5 1_555 1_555
H18 N5 1_555 1_555
C9 N2 1_555 1_555
H19 C9 1_555 1_555
H20 C9 1_555 1_555
C10 C9 1_555 1_555
H21 C10 1_555 1_555
H22 C10 1_555 1_555
N6 Cu2 1_555 1_555
H23 N6 1_555 1_555
H24 N6 1_555 1_555
C11 N3 1_555 1_555
H25 C11 1_555 1_555
H26 C11 1_555 1_555
C12 C11 1_555 1_555
H27 C12 1_555 1_555
H28 C12 1_555 1_555
N7 Cu1 1_555 1_555
H29 N7 1_555 1_555
H30 N7 1_555 1_555
C13 N3 1_555 1_555
H31 C13 1_555 1_555
H32 C13 1_555 1_555
C14 C13 1_555 1_555
H33 C14 1_555 1_555
H34 C14 1_555 1_555
N8 Cu1 1_555 1_555
H35 N8 1_555 1_555
H36 N8 1_555 1_555
C15 N4 1_555 1_555
H37 C15 1_555 1_555
H38 C15 1_555 1_555
C16 C15 1_555 1_555
H39 C16 1_555 1_555
H40 C16 1_555 1_555
N9 Cu3 1_555 1_555
H41 N9 1_555 1_555
H42 N9 1_555 1_555
C17 N4 1_555 1_555
H43 C17 1_555 1_555
H44 C17 1_555 1_555
C18 C17 1_555 1_555
H45 C18 1_555 1_555
H46 C18 1_555 1_555
N10 Cu3 1_555 1_555
H47 N10 1_555 1_555
H48 N10 1_555 1_555
C19 C20 1_555 1_555
C20 O1 1_555 1_555
O1 Cu2A 1_555 1_555
O2 Cu1 1_555 1_555
O3 C19 1_555 1_555
O4 Cu1 1_555 1_555
Cl1 Cu3 1_555 1_555
N11 O5 1_555 1_555
O5 Cu2 1_555 1_555
O6 N11 1_555 1_555
O7 N11 1_555 1_555
N12 O9 1_555 1_555
O10 N12 1_555 1_555
O11 N12 1_555 1_555
Cu2A O3 1_555 1_555
O1A Cu2 1_555 1_555
O3A Cu2 1_555 1_555
C6 N4 1_555 1_555
C8 N5 1_555 1_555
C10 N6 1_555 1_555
C12 N7 1_555 1_555
C14 N8 1_555 1_555
C16 N9 1_555 1_555
C18 N10 1_555 1_555
C19 O2 1_555 1_555
C20 O4 1_555 1_555

#END
