
#######################################################################
#
#                 Cambridge Crystallographic Data Centre
#                                CCDC 
#
#######################################################################
#
# If this CIF has been generated from an entry in the Cambridge 
# Structural Database, then it will include bibliographic, chemical, 
# crystal, experimental, refinement or atomic coordinate data resulting 
# from the CCDC's data processing and validation procedures.
#
#######################################################################

data_MIDJIT
_symmetry_cell_setting           monoclinic
_symmetry_space_group_name_H-M   'P 21/n'
_symmetry_Int_Tables_number      14
_space_group_name_Hall           '-P 2yn'
loop_
_symmetry_equiv_pos_site_id
_symmetry_equiv_pos_as_xyz
1 x,y,z
2 1/2-x,1/2+y,1/2-z
3 -x,-y,-z
4 1/2+x,1/2-y,1/2+z
_cell_length_a                   8.8339(17)
_cell_length_b                   12.660(3)
_cell_length_c                   11.858(2)
_cell_angle_alpha                90
_cell_angle_beta                 100.013(3)
_cell_angle_gamma                90
_cell_volume                     1305.97
loop_
_atom_site_label
_atom_site_type_symbol
_atom_site_fract_x
_atom_site_fract_y
_atom_site_fract_z
Co1 Co 0.0000 0.0000 1.0000
S1 S 0.42794(8) 0.04369(6) 1.16394(6)
O1 O 0.4281(2) 0.15569(14) 0.97403(15)
O2 O 0.1249(2) -0.09434(14) 1.13058(15)
H1 H 0.2187 -0.0757 1.1449
H2 H 0.0802 -0.1044 1.1876
N1 N 0.2071(2) 0.07661(16) 0.97572(18)
N2 N 0.1980(2) 0.12957(17) 0.87134(18)
N3 N 0.4515(2) 0.38344(16) 0.62537(18)
C1 C 0.3750(3) 0.2428(2) 0.7879(2)
C2 C 0.5211(3) 0.2859(2) 0.7992(2)
H3 H 0.5962 0.2680 0.8614
C3 C 0.5539(3) 0.3554(2) 0.7174(2)
H4 H 0.6521 0.3844 0.7266
C4 C 0.3104(3) 0.3400(2) 0.6141(2)
H5 H 0.2378 0.3584 0.5506
C5 C 0.2684(3) 0.2700(2) 0.6916(2)
H6 H 0.1701 0.2411 0.6798
C6 C 0.3291(3) 0.1739(2) 0.8746(2)
C7 C 0.3463(3) 0.09059(19) 1.0353(2)
Co1C Co 0.5000 0.5000 0.5000
Co1C_2 Co -0.5000 -0.5000 1.5000
S1B S -0.42794(8) -0.04369(6) 0.83606(6)
O1B O -0.4281(2) -0.15569(14) 1.02597(15)
O2B O -0.1249(2) 0.09434(14) 0.86942(15)
H1B H -0.2187 0.0757 0.8551
H2B H -0.0802 0.1044 0.8124
N1B N -0.2071(2) -0.07661(16) 1.02428(18)
N2B N -0.1980(2) -0.12957(17) 1.12866(18)
N3B N -0.4515(2) -0.38344(16) 1.37463(18)
N3C N -0.0485(2) 0.11656(16) 1.12537(18)
N3A N 0.0485(2) -0.11656(16) 0.87463(18)
C1B C -0.3750(3) -0.2428(2) 1.2121(2)
C2B C -0.5211(3) -0.2859(2) 1.2008(2)
H3B H -0.5962 -0.2680 1.1386
C3B C -0.5539(3) -0.3554(2) 1.2826(2)
H4B H -0.6521 -0.3844 1.2734
C4B C -0.3104(3) -0.3400(2) 1.3859(2)
H5B H -0.2378 -0.3584 1.4494
C5B C -0.2684(3) -0.2700(2) 1.3084(2)
H6B H -0.1701 -0.2411 1.3202
C6B C -0.3291(3) -0.1739(2) 1.1254(2)
C7B C -0.3463(3) -0.09059(19) 0.9647(2)
N4 N 0.2015(4) 0.4019(2) 0.9905(3)
O3 O 0.4032(4) 0.4017(3) 1.1346(3)
C8 C 0.2799(6) 0.3701(4) 1.0905(4)
H7 H 0.2346 0.3186 1.1297
C9 C 0.2567(5) 0.4823(3) 0.9210(4)
H8 H 0.3627 0.4971 0.9506
H9 H 0.1970 0.5454 0.9228
H10 H 0.2469 0.4576 0.8435
C10 C 0.0502(5) 0.3573(3) 0.9474(4)
H11 H 0.0233 0.3080 1.0021
H12 H 0.0523 0.3217 0.8762
H13 H -0.0246 0.4130 0.9354
loop_
_geom_bond_atom_site_label_1
_geom_bond_atom_site_label_2
_geom_bond_site_symmetry_1
_geom_bond_site_symmetry_2
Co1 O2 1_555 1_555
S1 C7 1_555 1_555
O1 C6 1_555 1_555
O2 H1 1_555 1_555
H2 O2 1_555 1_555
N1 Co1 1_555 1_555
N2 N1 1_555 1_555
N3 C3 1_555 1_555
N4 C8 1_555 1_555
C1 C2 1_555 1_555
C2 H3 1_555 1_555
C3 C2 1_555 1_555
H4 C3 1_555 1_555
C4 N3 1_555 1_555
H5 C4 1_555 1_555
C5 C1 1_555 1_555
H6 C5 1_555 1_555
C6 N2 1_555 1_555
C7 O1 1_555 1_555
O3 C8 1_555 1_555
C8 H7 1_555 1_555
C9 N4 1_555 1_555
H8 C9 1_555 1_555
H9 C9 1_555 1_555
H10 C9 1_555 1_555
C10 N4 1_555 1_555
H11 C10 1_555 1_555
H12 C10 1_555 1_555
H13 C10 1_555 1_555
Co1C N3 1_555 1_555
Co1C_2 N3B 1_555 1_555
S1B C7B 1_555 1_555
O1B C6B 1_555 1_555
O2B Co1 1_555 1_555
H1B O2B 1_555 1_555
H2B O2B 1_555 1_555
N1B Co1 1_555 1_555
N2B N1B 1_555 1_555
N3B C3B 1_555 1_555
N3C Co1 1_555 1_555
N3A Co1 1_555 1_555
C1B C2B 1_555 1_555
C2B H3B 1_555 1_555
C3B C2B 1_555 1_555
H4B C3B 1_555 1_555
C4B N3B 1_555 1_555
H5B C4B 1_555 1_555
C5B C1B 1_555 1_555
H6B C5B 1_555 1_555
C6B N2B 1_555 1_555
C7B O1B 1_555 1_555
N1 C7 1_555 1_555
C1 C6 1_555 1_555
C4 C5 1_555 1_555
N1B C7B 1_555 1_555
C1B C6B 1_555 1_555
C4B C5B 1_555 1_555

#END
