
#######################################################################
#
#                 Cambridge Crystallographic Data Centre
#                                CCDC 
#
#######################################################################
#
# If this CIF has been generated from an entry in the Cambridge 
# Structural Database, then it will include bibliographic, chemical, 
# crystal, experimental, refinement or atomic coordinate data resulting 
# from the CCDC's data processing and validation procedures.
#
#######################################################################

data_MIDKEP
_symmetry_cell_setting           monoclinic
_symmetry_space_group_name_H-M   'C 2/c'
_symmetry_Int_Tables_number      15
_space_group_name_Hall           '-C 2yn'
loop_
_symmetry_equiv_pos_site_id
_symmetry_equiv_pos_as_xyz
1 x,y,z
2 -x,y,1/2-z
3 1/2+x,1/2+y,z
4 1/2-x,1/2+y,1/2-z
5 -x,-y,-z
6 x,-y,1/2+z
7 1/2-x,1/2-y,-z
8 1/2+x,1/2-y,1/2+z
_cell_length_a                   25.7884(3)
_cell_length_b                   11.7579(2)
_cell_length_c                   20.1441(3)
_cell_angle_alpha                90
_cell_angle_beta                 121.353(1)
_cell_angle_gamma                90
_cell_volume                     5216.13
loop_
_atom_site_label
_atom_site_type_symbol
_atom_site_fract_x
_atom_site_fract_y
_atom_site_fract_z
C1 C 0.2728(10) -0.2730(20) -0.3882(9)
O5 O 0.1948(10) -0.2404(15) -0.4619(12)
Zn1 Zn -0.0198(1) -0.3310(1) -0.1881(1)
O6 O -0.0564(1) -0.3357(2) -0.3057(2)
N1 N 0.0326(2) -0.3358(3) -0.0701(2)
N2 N -0.1037(2) -0.3298(3) -0.2035(2)
N3 N -0.0210(2) -0.1370(3) -0.1833(2)
N4 N -0.0229(2) 0.4617(3) -0.1816(2)
C2 C -0.1131(2) -0.3542(3) -0.3601(2)
C3 C -0.1595(2) -0.3622(3) -0.3439(3)
C4 C -0.2186(2) -0.3846(4) -0.4022(3)
C5 C -0.2346(2) -0.4000(4) -0.4787(3)
C6 C -0.1901(2) -0.3900(4) -0.4945(3)
C7 C -0.1302(2) -0.3669(4) -0.4387(3)
C8 C -0.3004(2) -0.4229(5) -0.5409(4)
C9 C 0.0890(2) -0.3537(4) -0.0323(3)
C10 C 0.0027(2) -0.3177(4) -0.0255(3)
C11 C -0.0603(2) -0.3670(5) -0.0635(3)
C12 C -0.1084(2) -0.3105(4) -0.1347(3)
C13 C -0.1524(2) -0.3458(3) -0.2684(3)
C14 C -0.0706(2) -0.0782(4) -0.2265(3)
C15 C -0.0732(2) 0.0368(4) -0.2253(3)
C16 C -0.0218(2) 0.0993(4) -0.1761(2)
C17 C 0.0288(2) 0.0373(4) -0.1319(4)
C18 C 0.0279(2) -0.0785(4) -0.1365(3)
C19 C -0.0221(2) 0.2230(3) -0.1756(2)
C20 C -0.0748(2) 0.2861(4) -0.2035(3)
C21 C -0.0734(2) 0.4020(4) -0.2055(3)
C22 C 0.0281(2) 0.4016(4) -0.1537(3)
C23 C 0.0304(2) 0.2863(4) -0.1490(3)
H1 H -0.2485 -0.3894 -0.3897
H2 H -0.2002 -0.3990 -0.5458
H3 H -0.3037 -0.4316 -0.5904
H4 H -0.3251 -0.3603 -0.5433
H5 H -0.3138 -0.4913 -0.5285
H6 H 0.1069 -0.3593 0.0213
H7 H 0.0005 -0.2366 -0.0184
H8 H 0.0275 -0.3515 0.0256
H9 H -0.0583 -0.4459 -0.0760
H10 H -0.0727 -0.3666 -0.0255
H11 H -0.1477 -0.3377 -0.1458
H12 H -0.1068 -0.2293 -0.1252
H13 H -0.1892 -0.3457 -0.2672
H14 H -0.1061 -0.1177 -0.2599
H15 H -0.1098 0.0739 -0.2577
H16 H 0.0650 0.0741 -0.0976
H17 H 0.0638 -0.1179 -0.1047
H18 H -0.1116 0.2490 -0.2212
H19 H -0.1098 0.4413 -0.2246
H20 H 0.0642 0.4409 -0.1365
H21 H 0.0676 0.2495 -0.1276
Zn1A Zn 0.0198(1) -0.3310(1) -0.3119(1)
O6A O 0.0564(1) -0.3357(2) -0.1943(2)
C7A C 0.1302(2) -0.3669(4) -0.0613(3)
C2A C 0.1131(2) -0.3542(3) -0.1399(2)
C3A C 0.1595(2) -0.3622(3) -0.1561(3)
C4A C 0.2186(2) -0.3846(4) -0.0978(3)
C5A C 0.2346(2) -0.4000(4) -0.0213(3)
C6A C 0.1901(2) -0.3900(4) -0.0055(3)
H2A H 0.2002 -0.3990 0.0458
C8A C 0.3004(2) -0.4229(5) 0.0409(4)
H3A H 0.3037 -0.4316 0.0904
H4A H 0.3251 -0.3603 0.0433
H5A H 0.3138 -0.4913 0.0285
H1A H 0.2485 -0.3894 -0.1103
C13A C 0.1524(2) -0.3458(3) -0.2316(3)
N2A N 0.1037(2) -0.3298(3) -0.2965(2)
N1A N -0.0326(2) -0.3358(3) -0.4299(2)
C9A C -0.0890(2) -0.3537(4) -0.4677(3)
N4_2 N -0.0229(2) -0.5383(3) -0.1816(2)
Zn1_2 Zn -0.0198(1) 0.6690(1) -0.1881(1)
H6A H -0.1069 -0.3593 -0.5213
C10A C -0.0027(2) -0.3177(4) -0.4745(3)
C11A C 0.0603(2) -0.3670(5) -0.4365(3)
C12A C 0.1084(2) -0.3105(4) -0.3653(3)
H11A H 0.1477 -0.3377 -0.3542
H12A H 0.1068 -0.2293 -0.3748
H9A H 0.0583 -0.4459 -0.4240
H10A H 0.0727 -0.3666 -0.4745
H7A H -0.0005 -0.2366 -0.4816
H8A H -0.0275 -0.3515 -0.5256
N3A N 0.0210(2) -0.1370(3) -0.3167(2)
C14A C 0.0706(2) -0.0782(4) -0.2735(3)
C15A C 0.0732(2) 0.0368(4) -0.2747(3)
C16A C 0.0218(2) 0.0993(4) -0.3239(2)
C17A C -0.0288(2) 0.0373(4) -0.3681(4)
C18A C -0.0279(2) -0.0785(4) -0.3635(3)
H17A H -0.0638 -0.1179 -0.3953
H16A H -0.0650 0.0741 -0.4024
C19A C 0.0221(2) 0.2230(3) -0.3244(2)
C20A C 0.0748(2) 0.2861(4) -0.2965(3)
C21A C 0.0734(2) 0.4020(4) -0.2945(3)
N4A N 0.0229(2) 0.4617(3) -0.3184(2)
Zn1A_2 Zn 0.0198(1) 0.6690(1) -0.3119(1)
C22A C -0.0281(2) 0.4016(4) -0.3463(3)
C23A C -0.0304(2) 0.2863(4) -0.3510(3)
H21A H -0.0676 0.2495 -0.3724
H20A H -0.0642 0.4409 -0.3635
H19A H 0.1098 0.4413 -0.2754
H18A H 0.1116 0.2490 -0.2788
H15A H 0.1098 0.0739 -0.2423
H14A H 0.1061 -0.1177 -0.2401
N4A_2 N 0.0229(2) -0.5383(3) -0.3184(2)
H13A H 0.1892 -0.3457 -0.2328
Cl1 Cl -0.2372(1) -0.4093(2) -0.7196(1)
O1 O -0.2204(6) -0.2845(9) -0.7047(8)
O2 O -0.2839(3) -0.4000(9) -0.7111(6)
O3 O -0.1863(4) -0.4582(7) -0.6624(5)
O4 O -0.2411(6) -0.4309(9) -0.7855(5)
C24? C -0.3679(11) -0.3790(20) -0.4007(14)
C25? C -0.3799(14) -0.4770(30) -0.4213(17)
C26? C -0.4617(10) -0.5010(20) -0.4702(15)
loop_
_geom_bond_atom_site_label_1
_geom_bond_atom_site_label_2
_geom_bond_site_symmetry_1
_geom_bond_site_symmetry_2
Cl1 O1 1_555 1_555
O2 Cl1 1_555 1_555
O3 Cl1 1_555 1_555
O4 Cl1 1_555 1_555
C1 O5 1_555 1_555
Zn1 O6 1_555 1_555
O6 C2 1_555 1_555
N1 Zn1 1_555 1_555
N2 Zn1 1_555 1_555
N3 Zn1 1_555 1_555
N4 C21 1_555 1_555
C2 C3 1_555 1_555
C3 C4 1_555 1_555
C4 C5 1_555 1_555
C5 C6 1_555 1_555
C6 C7 1_555 1_555
C7 C2 1_555 1_555
C8 C5 1_555 1_555
C9 N1 1_555 1_555
C10 N1 1_555 1_555
C11 C10 1_555 1_555
C12 N2 1_555 1_555
C13 N2 1_555 1_555
C14 N3 1_555 1_555
C15 C14 1_555 1_555
C16 C15 1_555 1_555
C17 C16 1_555 1_555
C18 N3 1_555 1_555
C19 C16 1_555 1_555
C20 C19 1_555 1_555
C21 C20 1_555 1_555
C22 N4 1_555 1_555
C23 C19 1_555 1_555
H1 C4 1_555 1_555
H2 C6 1_555 1_555
H3 C8 1_555 1_555
H4 C8 1_555 1_555
H5 C8 1_555 1_555
H6 C9 1_555 1_555
H7 C10 1_555 1_555
H8 C10 1_555 1_555
H9 C11 1_555 1_555
H10 C11 1_555 1_555
H11 C12 1_555 1_555
H12 C12 1_555 1_555
H13 C13 1_555 1_555
H14 C14 1_555 1_555
H15 C15 1_555 1_555
H16 C17 1_555 1_555
H17 C18 1_555 1_555
H18 C20 1_555 1_555
H19 C21 1_555 1_555
H20 C22 1_555 1_555
H21 C23 1_555 1_555
Zn1A O6 1_555 1_555
O6A Zn1 1_555 1_555
C7A C9 1_555 1_555
C2A O6A 1_555 1_555
C3A C2A 1_555 1_555
C4A C3A 1_555 1_555
C5A C4A 1_555 1_555
C6A C7A 1_555 1_555
H2A C6A 1_555 1_555
C8A C5A 1_555 1_555
H3A C8A 1_555 1_555
H4A C8A 1_555 1_555
H5A C8A 1_555 1_555
H1A C4A 1_555 1_555
C13A C3A 1_555 1_555
N2A Zn1A 1_555 1_555
N1A Zn1A 1_555 1_555
C9A C7 1_555 1_555
N4_2 Zn1 1_555 1_555
Zn1_2 N4 1_555 1_555
H6A C9A 1_555 1_555
C10A N1A 1_555 1_555
C11A C10A 1_555 1_555
C12A N2A 1_555 1_555
H11A C12A 1_555 1_555
H12A C12A 1_555 1_555
H9A C11A 1_555 1_555
H10A C11A 1_555 1_555
H7A C10A 1_555 1_555
H8A C10A 1_555 1_555
N3A Zn1A 1_555 1_555
C14A N3A 1_555 1_555
C15A C14A 1_555 1_555
C16A C15A 1_555 1_555
C17A C16A 1_555 1_555
C18A N3A 1_555 1_555
H17A C18A 1_555 1_555
H16A C17A 1_555 1_555
C19A C16A 1_555 1_555
C20A C19A 1_555 1_555
C21A C20A 1_555 1_555
N4A C21A 1_555 1_555
Zn1A_2 N4A 1_555 1_555
C22A N4A 1_555 1_555
C23A C19A 1_555 1_555
H21A C23A 1_555 1_555
H20A C22A 1_555 1_555
H19A C21A 1_555 1_555
H18A C20A 1_555 1_555
H15A C15A 1_555 1_555
H14A C14A 1_555 1_555
N4A_2 Zn1A 1_555 1_555
H13A C13A 1_555 1_555
C3 C13 1_555 1_555
C11 C12 1_555 1_555
C17 C18 1_555 1_555
C22 C23 1_555 1_555
Zn1A O6A 1_555 1_555
C7A C2A 1_555 1_555
C5A C6A 1_555 1_555
C13A N2A 1_555 1_555
N1A C9A 1_555 1_555
C11A C12A 1_555 1_555
C17A C18A 1_555 1_555
C22A C23A 1_555 1_555

#END
