
#######################################################################
#
#                 Cambridge Crystallographic Data Centre
#                                CCDC 
#
#######################################################################
#
# If this CIF has been generated from an entry in the Cambridge 
# Structural Database, then it will include bibliographic, chemical, 
# crystal, experimental, refinement or atomic coordinate data resulting 
# from the CCDC's data processing and validation procedures.
#
#######################################################################

data_MIDKIT
_symmetry_cell_setting           monoclinic
_symmetry_space_group_name_H-M   'C 2/c'
_symmetry_Int_Tables_number      15
_space_group_name_Hall           '-C 2yn'
loop_
_symmetry_equiv_pos_site_id
_symmetry_equiv_pos_as_xyz
1 x,y,z
2 -x,y,1/2-z
3 1/2+x,1/2+y,z
4 1/2-x,1/2+y,1/2-z
5 -x,-y,-z
6 x,-y,1/2+z
7 1/2-x,1/2-y,-z
8 1/2+x,1/2-y,1/2+z
_cell_length_a                   26.2211(4)
_cell_length_b                   11.8317(1)
_cell_length_c                   20.8467(4)
_cell_angle_alpha                90
_cell_angle_beta                 122.677(2)
_cell_angle_gamma                90
_cell_volume                     5443.86
loop_
_atom_site_label
_atom_site_type_symbol
_atom_site_fract_x
_atom_site_fract_y
_atom_site_fract_z
Zn1 Zn 0.4796(1) 0.3445(1) -0.1904(1)
Cl1 Cl 0.1893(1) 0.4261(1) -0.5545(1)
O1 O 0.4428(1) 0.3474(2) -0.3063(1)
N1 N 0.3949(1) 0.3428(2) -0.2083(2)
N2 N 0.5329(1) 0.3417(2) -0.0729(2)
N3 N 0.4767(1) 0.1486(2) -0.1880(2)
N4 N 0.4776(1) -0.4531(3) -0.1836(2)
C1 C 0.3860(1) 0.3622(3) -0.3621(2)
C2 C 0.3688(2) 0.3709(3) -0.4392(2)
C3 C 0.3084(2) 0.3904(4) -0.4977(2)
C4 C 0.2643(2) 0.4001(4) -0.4806(2)
C5 C 0.2790(2) 0.3899(4) -0.4071(2)
C6 C 0.3390(2) 0.3698(3) -0.3469(2)
C7 C 0.3460(2) 0.3555(3) -0.2734(2)
C8 C 0.3898(2) 0.3231(4) -0.1423(3)
C9 C 0.4403(2) 0.3770(4) -0.0693(3)
C10 C 0.5021(2) 0.3217(4) -0.0321(2)
C11 C 0.5902(2) 0.3582(3) -0.0332(2)
C12 C 0.4235(2) -0.0273(3) -0.2262(2)
C13 C 0.4250(2) 0.0890(3) -0.2283(2)
C14 C 0.5272(2) 0.0901(3) -0.1421(2)
C15 C 0.5294(2) -0.0263(3) -0.1403(2)
C16 C 0.4767(2) -0.0895(3) -0.1812(2)
C17 C 0.4767(2) -0.2141(3) -0.1792(2)
C18 C 0.4245(2) -0.2776(3) -0.2075(3)
C19 C 0.4269(2) -0.3932(3) -0.2092(3)
C20 C 0.5285(2) -0.3917(3) -0.1533(3)
C21 C 0.5305(2) -0.2761(3) -0.1501(2)
H1 H 0.2979 0.3969 -0.5479
H2 H 0.2487 0.3964 -0.3969
H3 H 0.3103 0.3557 -0.2738
H4 H 0.3898 0.2423 -0.1344
H5 H 0.3512 0.3528 -0.1537
H6 H 0.4282 0.3774 -0.0328
H7 H 0.4442 0.4551 -0.0801
H8 H 0.5275 0.3501 0.0195
H9 H 0.4975 0.2409 -0.0290
H10 H 0.6081 0.3626 0.0193
H11 H 0.3867 -0.0648 -0.2550
H12 H 0.3888 0.1278 -0.2588
H13 H 0.5634 0.1298 -0.1166
H14 H 0.5664 -0.0626 -0.1095
H15 H 0.3876 -0.2416 -0.2254
H16 H 0.3907 -0.4328 -0.2296
H17 H 0.5649 -0.4304 -0.1332
H18 H 0.5674 -0.2387 -0.1286
Zn1A Zn 0.5204(1) 0.3445(1) -0.3096(1)
O1A O 0.5572(1) 0.3474(2) -0.1937(1)
C11A C 0.4098(2) 0.3582(3) -0.4668(2)
N2A N 0.4671(1) 0.3417(2) -0.4271(2)
N1A N 0.6051(1) 0.3428(2) -0.2917(2)
C7A C 0.6540(2) 0.3555(3) -0.2266(2)
C6A C 0.6610(2) 0.3698(3) -0.1531(2)
C1A C 0.6140(1) 0.3622(3) -0.1379(2)
C2A C 0.6312(2) 0.3709(3) -0.0608(2)
C3A C 0.6916(2) 0.3904(4) -0.0023(2)
C4A C 0.7357(2) 0.4001(4) -0.0194(2)
Cl1A Cl 0.8107(1) 0.4261(1) 0.0545(1)
C5A C 0.7210(2) 0.3899(4) -0.0929(2)
H2A H 0.7513 0.3964 -0.1031
H1A H 0.7021 0.3969 0.0479
N4_2 N 0.4776(1) 0.5469(3) -0.1836(2)
Zn1_2 Zn 0.4796(1) -0.6555(1) -0.1904(1)
H3A H 0.6897 0.3557 -0.2262
C8A C 0.6102(2) 0.3231(4) -0.3577(3)
C9A C 0.5597(2) 0.3770(4) -0.4307(3)
C10A C 0.4979(2) 0.3217(4) -0.4679(2)
H8A H 0.4725 0.3501 -0.5195
H9A H 0.5025 0.2409 -0.4710
H6A H 0.5718 0.3774 -0.4672
H7A H 0.5558 0.4551 -0.4199
H4A H 0.6102 0.2423 -0.3656
H5A H 0.6488 0.3528 -0.3463
N3A N 0.5233(1) 0.1486(2) -0.3120(2)
C13A C 0.5750(2) 0.0890(3) -0.2717(2)
C12A C 0.5765(2) -0.0273(3) -0.2738(2)
C16A C 0.5233(2) -0.0895(3) -0.3188(2)
C15A C 0.4706(2) -0.0263(3) -0.3597(2)
C14A C 0.4728(2) 0.0901(3) -0.3579(2)
H13A H 0.4366 0.1298 -0.3834
H14A H 0.4336 -0.0626 -0.3905
C17A C 0.5233(2) -0.2141(3) -0.3208(2)
C18A C 0.5755(2) -0.2776(3) -0.2925(3)
C19A C 0.5731(2) -0.3932(3) -0.2908(3)
N4A N 0.5224(1) -0.4531(3) -0.3164(2)
Zn1A_2 Zn 0.5204(1) -0.6555(1) -0.3096(1)
C20A C 0.4715(2) -0.3917(3) -0.3467(3)
C21A C 0.4695(2) -0.2761(3) -0.3499(2)
H18A H 0.4326 -0.2387 -0.3714
H17A H 0.4351 -0.4304 -0.3668
H16A H 0.6093 -0.4328 -0.2704
H15A H 0.6124 -0.2416 -0.2746
H11A H 0.6133 -0.0648 -0.2450
H12A H 0.6112 0.1278 -0.2412
N4A_2 N 0.5224(1) 0.5469(3) -0.3164(2)
H10A H 0.3919 0.3626 -0.5193
Cl2 Cl 0.2700(1) 0.3866(1) -0.7167(1)
O2 O 0.2826(4) 0.2712(5) -0.7079(6)
O3 O 0.2668(3) 0.4248(5) -0.7817(3)
O4 O 0.3193(3) 0.4378(6) -0.6546(3)
O5 O 0.2185(3) 0.3995(7) -0.7164(5)
O6 O 0.2216(9) 0.2055(14) -0.9228(12)
O7 O 0.2945(7) 0.2560(12) -0.9032(4)
H19 H 0.3197 0.3255 -0.8992
H20 H 0.3138 0.2121 -0.9141
O8 O 0.1282(5) 0.5833(12) -0.9053(6)
C22 C 0.1145(7) 0.4180(18) -0.9550(7)
C23 C 0.0579(9) 0.4876(14) -0.9593(9)
H21 H 0.1546 0.5510 -0.8665
H22 H 0.1005 0.3456 -0.9792
H23 H 0.1464 0.4074 -0.9026
H24 H 0.1296 0.4609 -0.9805
H25 H 0.0428 0.4565 -0.9295
H26 H 0.0260 0.5133 -1.0094
loop_
_geom_bond_atom_site_label_1
_geom_bond_atom_site_label_2
_geom_bond_site_symmetry_1
_geom_bond_site_symmetry_2
Zn1 O1 1_555 1_555
Cl1 C4 1_555 1_555
O1 C1 1_555 1_555
N1 Zn1 1_555 1_555
N2 Zn1 1_555 1_555
N3 Zn1 1_555 1_555
N4 C19 1_555 1_555
C1 C2 1_555 1_555
C2 C3 1_555 1_555
C3 C4 1_555 1_555
C4 C5 1_555 1_555
C5 C6 1_555 1_555
C6 C1 1_555 1_555
C7 N1 1_555 1_555
C8 N1 1_555 1_555
C9 C8 1_555 1_555
C10 N2 1_555 1_555
C11 N2 1_555 1_555
C12 C13 1_555 1_555
C13 N3 1_555 1_555
C14 N3 1_555 1_555
C15 C14 1_555 1_555
C16 C12 1_555 1_555
C17 C16 1_555 1_555
C18 C17 1_555 1_555
C19 C18 1_555 1_555
C20 N4 1_555 1_555
C21 C17 1_555 1_555
H1 C3 1_555 1_555
H2 C5 1_555 1_555
H3 C7 1_555 1_555
H4 C8 1_555 1_555
H5 C8 1_555 1_555
H6 C9 1_555 1_555
H7 C9 1_555 1_555
H8 C10 1_555 1_555
H9 C10 1_555 1_555
H10 C11 1_555 1_555
H11 C12 1_555 1_555
H12 C13 1_555 1_555
H13 C14 1_555 1_555
H14 C15 1_555 1_555
H15 C18 1_555 1_555
H16 C19 1_555 1_555
H17 C20 1_555 1_555
H18 C21 1_555 1_555
Cl2 O2 1_555 1_555
O3 Cl2 1_555 1_555
O4 Cl2 1_555 1_555
O5 Cl2 1_555 1_555
O7 H19 1_555 1_555
H20 O7 1_555 1_555
O8 C23 1_555 1_555
C22 C23 1_555 1_555
C23 H25 1_555 1_555
H21 O8 1_555 1_555
H22 C22 1_555 1_555
H23 C22 1_555 1_555
H24 C22 1_555 1_555
H26 C23 1_555 1_555
Zn1A O1 1_555 1_555
O1A Zn1 1_555 1_555
C11A C2 1_555 1_555
N2A Zn1A 1_555 1_555
N1A Zn1A 1_555 1_555
C7A N1A 1_555 1_555
C6A C7A 1_555 1_555
C1A O1A 1_555 1_555
C2A C11 1_555 1_555
C3A C2A 1_555 1_555
C4A C3A 1_555 1_555
Cl1A C4A 1_555 1_555
C5A C6A 1_555 1_555
H2A C5A 1_555 1_555
H1A C3A 1_555 1_555
N4_2 Zn1 1_555 1_555
Zn1_2 N4 1_555 1_555
H3A C7A 1_555 1_555
C8A N1A 1_555 1_555
C9A C8A 1_555 1_555
C10A N2A 1_555 1_555
H8A C10A 1_555 1_555
H9A C10A 1_555 1_555
H6A C9A 1_555 1_555
H7A C9A 1_555 1_555
H4A C8A 1_555 1_555
H5A C8A 1_555 1_555
N3A Zn1A 1_555 1_555
C13A N3A 1_555 1_555
C12A C13A 1_555 1_555
C16A C12A 1_555 1_555
C15A C16A 1_555 1_555
C14A N3A 1_555 1_555
H13A C14A 1_555 1_555
H14A C15A 1_555 1_555
C17A C16A 1_555 1_555
C18A C17A 1_555 1_555
C19A C18A 1_555 1_555
N4A C19A 1_555 1_555
Zn1A_2 N4A 1_555 1_555
C20A N4A 1_555 1_555
C21A C17A 1_555 1_555
H18A C21A 1_555 1_555
H17A C20A 1_555 1_555
H16A C19A 1_555 1_555
H15A C18A 1_555 1_555
H11A C12A 1_555 1_555
H12A C13A 1_555 1_555
N4A_2 Zn1A 1_555 1_555
H10A C11A 1_555 1_555
C6 C7 1_555 1_555
C9 C10 1_555 1_555
C15 C16 1_555 1_555
C20 C21 1_555 1_555
Zn1A O1A 1_555 1_555
C11A N2A 1_555 1_555
C6A C1A 1_555 1_555
C1A C2A 1_555 1_555
C4A C5A 1_555 1_555
C9A C10A 1_555 1_555
C15A C14A 1_555 1_555
C20A C21A 1_555 1_555

#END
