
#######################################################################
#
#                 Cambridge Crystallographic Data Centre
#                                CCDC 
#
#######################################################################
#
# If this CIF has been generated from an entry in the Cambridge 
# Structural Database, then it will include bibliographic, chemical, 
# crystal, experimental, refinement or atomic coordinate data resulting 
# from the CCDC's data processing and validation procedures.
#
#######################################################################

data_MIDPUM
_symmetry_cell_setting           triclinic
_symmetry_space_group_name_H-M   'P -1'
_symmetry_Int_Tables_number      2
_space_group_name_Hall           '-P 1'
loop_
_symmetry_equiv_pos_site_id
_symmetry_equiv_pos_as_xyz
1 x,y,z
2 -x,-y,-z
_cell_length_a                   6.44190(10)
_cell_length_b                   7.85950(10)
_cell_length_c                   12.7780(2)
_cell_angle_alpha                75.7350(10)
_cell_angle_beta                 85.2860(10)
_cell_angle_gamma                68.4640(10)
_cell_volume                     583.206
loop_
_atom_site_label
_atom_site_type_symbol
_atom_site_fract_x
_atom_site_fract_y
_atom_site_fract_z
U1 U 0.23562(2) 0.661061(17) 0.196530(10)
Co1 Co 0.5000 0.0000 0.5000
Na1 Na 0.2571(3) 0.1614(2) 0.21275(16)
C1 C -0.3088(6) 0.7486(5) 0.2271(3)
C2 C -0.2160(6) 0.5425(5) 0.2207(3)
C3 C 0.1952(6) 0.6142(5) 0.4589(3)
C4 C 0.3013(6) 0.4114(5) 0.4429(3)
C5 C 0.4751(6) 0.4090(5) 0.0214(3)
C6 C 0.0263(6) 1.0688(5) 0.0258(3)
O1 O -0.1662(5) 0.8218(4) 0.2316(3)
O2 O -0.0095(5) 0.4721(4) 0.2102(3)
O3 O -0.3558(5) 0.4639(4) 0.2256(3)
O4 O -0.5169(5) 0.8279(4) 0.2276(2)
O5 O 0.1723(5) 0.7386(4) 0.3696(2)
O6 O 0.3160(5) 0.4012(4) 0.3447(2)
O7 O 0.3648(5) 0.2756(4) 0.5215(2)
O8 O 0.1418(6) 0.6434(5) 0.5485(3)
O9 O 0.3671(5) 0.3992(4) 0.1077(2)
O10 O 0.5455(5) 0.2865(4) -0.0323(2)
O11 O 0.1097(5) 1.0007(4) 0.1199(2)
O12 O -0.0155(5) 1.2328(4) -0.0275(2)
O13 O 0.2137(5) 0.0546(4) 0.4040(3)
H1 H 0.091(5) 0.137(6) 0.412(5)
H2 H 0.212(9) -0.054(4) 0.419(5)
O14 O 0.3189(7) -0.0695(5) 0.6365(3)
H3 H 0.251(9) 0.009(6) 0.673(4)
H4 H 0.343(10) -0.181(3) 0.671(4)
C5A C 0.5249(6) 0.5910(5) -0.0214(3)
O9A O 0.6329(5) 0.6008(4) -0.1077(2)
O10A O 0.4545(5) 0.7135(4) 0.0323(2)
C6A C -0.0263(6) 0.9312(5) -0.0258(3)
O11A O -0.1097(5) 0.9993(4) -0.1199(2)
O12A O 0.0155(5) 0.7672(4) 0.0275(2)
U1A U -0.23562(2) 0.338939(17) -0.196530(10)
Na1A Na -0.2571(3) 0.8386(2) -0.21275(16)
C1A C 0.3088(6) 0.2514(5) -0.2271(3)
C2A C 0.2160(6) 0.4575(5) -0.2207(3)
C3A C -0.1952(6) 0.3858(5) -0.4589(3)
C4A C -0.3013(6) 0.5886(5) -0.4429(3)
O1A O 0.1662(5) 0.1782(4) -0.2316(3)
O2A O 0.0095(5) 0.5279(4) -0.2102(3)
O3A O 0.3558(5) 0.5361(4) -0.2256(3)
O4A O 0.5169(5) 0.1721(4) -0.2276(2)
O5A O -0.1723(5) 0.2614(4) -0.3696(2)
O6A O -0.3160(5) 0.5988(4) -0.3447(2)
O7A O -0.3648(5) 0.7244(4) -0.5215(2)
O8A O -0.1418(6) 0.3566(5) -0.5485(3)
O13A O -0.2137(5) 0.9454(4) -0.4040(3)
H1A H -0.091(5) 0.863(6) -0.412(5)
H2A H -0.212(9) 1.054(4) -0.419(5)
O14A O 0.6811(7) 0.0695(5) 0.3635(3)
H3A H 0.749(9) -0.009(6) 0.327(4)
H4A H 0.657(10) 0.181(3) 0.329(4)
U1_2 U -0.76438(2) 0.661061(17) 0.196530(10)
U1A_2 U -0.23562(2) 1.338939(17) -0.196530(10)
U1A_3 U 0.76438(2) 0.338939(17) -0.196530(10)
Co1_2 Co -0.5000 1.0000 -0.5000
Na1_2 Na -0.7429(3) 1.1614(2) 0.21275(16)
Na1_3 Na 0.2571(3) 1.1614(2) 0.21275(16)
Na1A_2 Na 0.7429(3) -0.1614(2) -0.21275(16)
Na1A_3 Na 0.7429(3) 0.8386(2) -0.21275(16)
O3_2 O 0.6442(5) 0.4639(4) 0.2256(3)
O3A_2 O -0.6442(5) 0.5361(4) -0.2256(3)
O4_2 O 0.4831(5) -0.1721(4) 0.2276(2)
O4_3 O 0.4831(5) 0.8279(4) 0.2276(2)
O4A_2 O -0.4831(5) 0.1721(4) -0.2276(2)
O4A_3 O -0.4831(5) 1.1721(4) -0.2276(2)
O7A_2 O 0.6352(5) -0.2756(4) 0.4785(2)
O9A_2 O -0.3671(5) 0.6008(4) -0.1077(2)
O10_2 O -0.4545(5) 0.2865(4) -0.0323(2)
O11_2 O 0.1097(5) 0.0007(4) 0.1199(2)
O11A_2 O -0.1097(5) -0.0007(4) -0.1199(2)
O12_2 O -0.0155(5) 0.2328(4) -0.0275(2)
O13A_2 O 0.7863(5) -0.0546(4) 0.5960(3)
loop_
_geom_bond_atom_site_label_1
_geom_bond_atom_site_label_2
_geom_bond_site_symmetry_1
_geom_bond_site_symmetry_2
U1 O1 1_555 1_555
Co1 O7 1_555 1_555
Na1 O2 1_555 1_555
C1 C2 1_555 1_555
C2 O2 1_555 1_555
C3 C4 1_555 1_555
C4 O6 1_555 1_555
C5 O9 1_555 1_555
C6 O11 1_555 1_555
O1 C1 1_555 1_555
O2 U1 1_555 1_555
O3 C2 1_555 1_555
O4 C1 1_555 1_555
O5 U1 1_555 1_555
O6 U1 1_555 1_555
O7 C4 1_555 1_555
O8 C3 1_555 1_555
O9 U1 1_555 1_555
O10 C5 1_555 1_555
O11 U1 1_555 1_555
O12 C6 1_555 1_555
O13 Co1 1_555 1_555
H1 O13 1_555 1_555
H2 O13 1_555 1_555
O14 Co1 1_555 1_555
H3 O14 1_555 1_555
H4 O14 1_555 1_555
C5A C5 1_555 1_555
O9A C5A 1_555 1_555
O10A U1 1_555 1_555
C6A C6 1_555 1_555
O11A C6A 1_555 1_555
O12A U1 1_555 1_555
U1A O1A 1_555 1_555
Na1A O11A 1_555 1_555
C1A C2A 1_555 1_555
C2A O2A 1_555 1_555
C3A C4A 1_555 1_555
C4A O6A 1_555 1_555
O1A C1A 1_555 1_555
O2A U1A 1_555 1_555
O3A C2A 1_555 1_555
O4A C1A 1_555 1_555
O5A U1A 1_555 1_555
O6A U1A 1_555 1_555
O7A C4A 1_555 1_555
O8A C3A 1_555 1_555
O13A Na1A 1_555 1_555
H1A O13A 1_555 1_555
H2A O13A 1_555 1_555
O14A Co1 1_555 1_555
H3A O14A 1_555 1_555
H4A O14A 1_555 1_555
U1_2 O3 1_555 1_555
U1A_2 O12 1_555 1_555
U1A_3 O10 1_555 1_555
Co1_2 O7A 1_555 1_555
Na1_2 O4 1_555 1_555
Na1_3 O11 1_555 1_555
Na1A_2 O4A 1_555 1_555
Na1A_3 O9A 1_555 1_555
O3_2 U1 1_555 1_555
O3A_2 U1A 1_555 1_555
O4_2 Na1 1_555 1_555
O4_3 U1 1_555 1_555
O4A_2 U1A 1_555 1_555
O4A_3 Na1A 1_555 1_555
O7A_2 Co1 1_555 1_555
O9A_2 U1A 1_555 1_555
O10_2 U1A 1_555 1_555
O11_2 Na1 1_555 1_555
O11A_2 U1A 1_555 1_555
O12_2 U1A 1_555 1_555
O13A_2 Co1 1_555 1_555
Na1 O6 1_555 1_555
Na1 O9 1_555 1_555
Na1 O13 1_555 1_555
C3 O5 1_555 1_555
O4 U1_2 1_555 1_555
C5A O10A 1_555 1_555
O9A U1A_3 1_555 1_555
C6A O12A 1_555 1_555
O11A U1A_2 1_555 1_555
Na1A O2A 1_555 1_555
Na1A O6A 1_555 1_555
Na1A O9A_2 1_555 1_555
C3A O5A 1_555 1_555
O3A U1A_3 1_555 1_555
O4A U1A_3 1_555 1_555
O13A Co1_2 1_555 1_555
U1A_2 O4A_3 1_555 1_555
Na1_3 O4_3 1_555 1_555

#END
