
#######################################################################
#
#                 Cambridge Crystallographic Data Centre
#                                CCDC 
#
#######################################################################
#
# If this CIF has been generated from an entry in the Cambridge 
# Structural Database, then it will include bibliographic, chemical, 
# crystal, experimental, refinement or atomic coordinate data resulting 
# from the CCDC's data processing and validation procedures.
#
#######################################################################

data_MIDPIA
_symmetry_cell_setting           triclinic
_symmetry_space_group_name_H-M   'P -1'
_symmetry_Int_Tables_number      2
_space_group_name_Hall           '-P 1'
loop_
_symmetry_equiv_pos_site_id
_symmetry_equiv_pos_as_xyz
1 x,y,z
2 -x,-y,-z
_cell_length_a                   6.4556(5)
_cell_length_b                   7.9032(6)
_cell_length_c                   12.7572(9)
_cell_angle_alpha                75.2950(10)
_cell_angle_beta                 85.2310(10)
_cell_angle_gamma                68.8200(10)
_cell_volume                     586.999
loop_
_atom_site_label
_atom_site_type_symbol
_atom_site_fract_x
_atom_site_fract_y
_atom_site_fract_z
U1 U 0.23506(3) 0.65935(3) 0.195769(17)
Mn1 Mn 0.5000 0.0000 0.5000
Na1 Na 0.2601(4) 0.1582(4) 0.2125(2)
C1 C -0.3090(9) 0.7458(8) 0.2247(5)
C2 C -0.2180(9) 0.5400(8) 0.2196(5)
C3 C 0.1956(9) 0.6163(8) 0.4579(5)
C4 C 0.2994(9) 0.4139(8) 0.4433(5)
C5 C 0.4747(9) 0.4089(8) 0.0217(5)
C6 C 0.0264(9) 1.0669(8) 0.0267(5)
O1 O -0.1654(6) 0.8185(6) 0.2290(4)
O2 O -0.0115(6) 0.4701(5) 0.2095(4)
O3 O -0.3570(6) 0.4628(6) 0.2255(4)
O4 O -0.5148(6) 0.8232(6) 0.2266(4)
O5 O 0.1699(7) 0.7396(6) 0.3672(4)
O6 O 0.3114(7) 0.4023(6) 0.3461(4)
O7 O 0.3626(7) 0.2811(6) 0.5234(4)
O8 O 0.1474(8) 0.6456(6) 0.5480(4)
O9 O 0.3646(6) 0.4003(5) 0.1070(3)
O10 O 0.5442(7) 0.2874(6) -0.0314(3)
O11 O 0.1124(6) 0.9984(5) 0.1196(3)
O12 O -0.0175(7) 1.2321(5) -0.0264(3)
O13 O 0.1997(7) 0.0557(6) 0.4023(4)
H1 H 0.080(7) 0.135(8) 0.413(7)
H2 H 0.177(12) -0.036(7) 0.394(7)
O14 O 0.3217(10) -0.0762(7) 0.6490(5)
H3 H 0.270(13) -0.010(9) 0.693(5)
H4 H 0.326(14) -0.184(5) 0.679(6)
C5A C 0.5253(9) 0.5911(8) -0.0217(5)
O9A O 0.6354(6) 0.5997(5) -0.1070(3)
O10A O 0.4558(7) 0.7126(6) 0.0314(3)
C6A C -0.0264(9) 0.9331(8) -0.0267(5)
O11A O -0.1124(6) 1.0016(5) -0.1196(3)
O12A O 0.0175(7) 0.7679(5) 0.0264(3)
U1A U -0.23506(3) 0.34065(3) -0.195769(17)
Na1A Na -0.2601(4) 0.8418(4) -0.2125(2)
C1A C 0.3090(9) 0.2542(8) -0.2247(5)
C2A C 0.2180(9) 0.4600(8) -0.2196(5)
C3A C -0.1956(9) 0.3837(8) -0.4579(5)
C4A C -0.2994(9) 0.5861(8) -0.4433(5)
O1A O 0.1654(6) 0.1815(6) -0.2290(4)
O2A O 0.0115(6) 0.5299(5) -0.2095(4)
O3A O 0.3570(6) 0.5372(6) -0.2255(4)
O4A O 0.5148(6) 0.1768(6) -0.2266(4)
O5A O -0.1699(7) 0.2604(6) -0.3672(4)
O6A O -0.3114(7) 0.5977(6) -0.3461(4)
O7A O -0.3626(7) 0.7189(6) -0.5234(4)
O8A O -0.1474(8) 0.3544(6) -0.5480(4)
O13A O -0.1997(7) 0.9443(6) -0.4023(4)
H1A H -0.080(7) 0.865(8) -0.413(7)
H2A H -0.177(12) 1.036(7) -0.394(7)
O14A O 0.6783(10) 0.0762(7) 0.3510(5)
H3A H 0.730(13) 0.010(9) 0.307(5)
H4A H 0.674(14) 0.184(5) 0.321(6)
U1_2 U -0.76494(3) 0.65935(3) 0.195769(17)
U1A_2 U -0.23506(3) 1.34065(3) -0.195769(17)
U1A_3 U 0.76494(3) 0.34065(3) -0.195769(17)
Mn1_2 Mn -0.5000 1.0000 -0.5000
Na1_2 Na -0.7399(4) 1.1582(4) 0.2125(2)
Na1_3 Na 0.2601(4) 1.1582(4) 0.2125(2)
Na1A_2 Na 0.7399(4) -0.1582(4) -0.2125(2)
Na1A_3 Na 0.7399(4) 0.8418(4) -0.2125(2)
O3_2 O 0.6430(6) 0.4628(6) 0.2255(4)
O3A_2 O -0.6430(6) 0.5372(6) -0.2255(4)
O4_2 O 0.4852(6) -0.1768(6) 0.2266(4)
O4_3 O 0.4852(6) 0.8232(6) 0.2266(4)
O4A_2 O -0.4852(6) 0.1768(6) -0.2266(4)
O4A_3 O -0.4852(6) 1.1768(6) -0.2266(4)
O7A_2 O 0.6374(7) -0.2811(6) 0.4766(4)
O9A_2 O -0.3646(6) 0.5997(5) -0.1070(3)
O10_2 O -0.4558(7) 0.2874(6) -0.0314(3)
O11_2 O 0.1124(6) -0.0016(5) 0.1196(3)
O11A_2 O -0.1124(6) 0.0016(5) -0.1196(3)
O12_2 O -0.0175(7) 0.2321(5) -0.0264(3)
O13A_2 O 0.8003(7) -0.0557(6) 0.5977(4)
loop_
_geom_bond_atom_site_label_1
_geom_bond_atom_site_label_2
_geom_bond_site_symmetry_1
_geom_bond_site_symmetry_2
U1 O1 1_555 1_555
Mn1 O7 1_555 1_555
Na1 O2 1_555 1_555
C1 C2 1_555 1_555
C2 O2 1_555 1_555
C3 C4 1_555 1_555
C4 O6 1_555 1_555
C5 O9 1_555 1_555
C6 O11 1_555 1_555
O1 C1 1_555 1_555
O2 U1 1_555 1_555
O3 C2 1_555 1_555
O4 C1 1_555 1_555
O5 U1 1_555 1_555
O6 U1 1_555 1_555
O7 C4 1_555 1_555
O8 C3 1_555 1_555
O9 U1 1_555 1_555
O10 C5 1_555 1_555
O11 U1 1_555 1_555
O12 C6 1_555 1_555
O13 Mn1 1_555 1_555
H1 O13 1_555 1_555
H2 O13 1_555 1_555
O14 Mn1 1_555 1_555
H3 O14 1_555 1_555
H4 O14 1_555 1_555
C5A C5 1_555 1_555
O9A C5A 1_555 1_555
O10A U1 1_555 1_555
C6A C6 1_555 1_555
O11A C6A 1_555 1_555
O12A U1 1_555 1_555
U1A O1A 1_555 1_555
Na1A O11A 1_555 1_555
C1A C2A 1_555 1_555
C2A O2A 1_555 1_555
C3A C4A 1_555 1_555
C4A O6A 1_555 1_555
O1A C1A 1_555 1_555
O2A U1A 1_555 1_555
O3A C2A 1_555 1_555
O4A C1A 1_555 1_555
O5A U1A 1_555 1_555
O6A U1A 1_555 1_555
O7A C4A 1_555 1_555
O8A C3A 1_555 1_555
O13A Na1A 1_555 1_555
H1A O13A 1_555 1_555
H2A O13A 1_555 1_555
O14A Mn1 1_555 1_555
H3A O14A 1_555 1_555
H4A O14A 1_555 1_555
U1_2 O3 1_555 1_555
U1A_2 O12 1_555 1_555
U1A_3 O10 1_555 1_555
Mn1_2 O7A 1_555 1_555
Na1_2 O4 1_555 1_555
Na1_3 O11 1_555 1_555
Na1A_2 O4A 1_555 1_555
Na1A_3 O9A 1_555 1_555
O3_2 U1 1_555 1_555
O3A_2 U1A 1_555 1_555
O4_2 Na1 1_555 1_555
O4_3 U1 1_555 1_555
O4A_2 U1A 1_555 1_555
O4A_3 Na1A 1_555 1_555
O7A_2 Mn1 1_555 1_555
O9A_2 U1A 1_555 1_555
O10_2 U1A 1_555 1_555
O11_2 Na1 1_555 1_555
O11A_2 U1A 1_555 1_555
O12_2 U1A 1_555 1_555
O13A_2 Mn1 1_555 1_555
Na1 O6 1_555 1_555
Na1 O9 1_555 1_555
Na1 O13 1_555 1_555
C3 O5 1_555 1_555
O4 U1_2 1_555 1_555
C5A O10A 1_555 1_555
O9A U1A_3 1_555 1_555
C6A O12A 1_555 1_555
O11A U1A_2 1_555 1_555
Na1A O2A 1_555 1_555
Na1A O6A 1_555 1_555
Na1A O9A_2 1_555 1_555
C3A O5A 1_555 1_555
O3A U1A_3 1_555 1_555
O4A U1A_3 1_555 1_555
O13A Mn1_2 1_555 1_555
U1A_2 O4A_3 1_555 1_555
Na1_3 O4_3 1_555 1_555

#END
