
#######################################################################
#
#                 Cambridge Crystallographic Data Centre
#                                CCDC 
#
#######################################################################
#
# If this CIF has been generated from an entry in the Cambridge 
# Structural Database, then it will include bibliographic, chemical, 
# crystal, experimental, refinement or atomic coordinate data resulting 
# from the CCDC's data processing and validation procedures.
#
#######################################################################

data_MIDPOG
_symmetry_cell_setting           triclinic
_symmetry_space_group_name_H-M   'P -1'
_symmetry_Int_Tables_number      2
_space_group_name_Hall           '-P 1'
loop_
_symmetry_equiv_pos_site_id
_symmetry_equiv_pos_as_xyz
1 x,y,z
2 -x,-y,-z
_cell_length_a                   6.4504(7)
_cell_length_b                   7.8759(8)
_cell_length_c                   12.7802(13)
_cell_angle_alpha                75.622(2)
_cell_angle_beta                 85.269(2)
_cell_angle_gamma                68.674(2)
_cell_volume                     585.845
loop_
_atom_site_label
_atom_site_type_symbol
_atom_site_fract_x
_atom_site_fract_y
_atom_site_fract_z
U1 U 0.23511(3) 0.66059(3) 0.196284(17)
Fe1 Fe 0.5000 0.0000 0.5000
Na1 Na 0.2581(4) 0.1607(4) 0.21277(19)
C1 C -0.3087(9) 0.7467(8) 0.2266(4)
C2 C -0.2181(9) 0.5414(8) 0.2205(4)
C3 C 0.1952(9) 0.6156(8) 0.4593(4)
C4 C 0.2997(9) 0.4131(8) 0.4429(5)
C5 C 0.4753(9) 0.4090(8) 0.0211(5)
C6 C 0.0277(9) 1.0663(8) 0.0257(4)
O1 O -0.1674(6) 0.8210(6) 0.2305(3)
O2 O -0.0100(6) 0.4705(5) 0.2100(3)
O3 O -0.3564(6) 0.4641(6) 0.2259(3)
O4 O -0.5161(6) 0.8259(6) 0.2271(3)
O5 O 0.1714(7) 0.7390(6) 0.3685(3)
O6 O 0.3143(6) 0.4019(6) 0.3452(3)
O7 O 0.3622(7) 0.2787(6) 0.5226(3)
O8 O 0.1449(7) 0.6450(6) 0.5482(3)
O9 O 0.3652(6) 0.3998(6) 0.1076(3)
O10 O 0.5445(7) 0.2860(6) -0.0319(3)
O11 O 0.1105(6) 1.0009(6) 0.1204(3)
O12 O -0.0161(7) 1.2315(6) -0.0268(3)
O13 O 0.2091(7) 0.0554(6) 0.4033(4)
H1 H 0.099(10) 0.136(9) 0.423(8)
H2 H 0.185(15) -0.044(7) 0.410(8)
O14 O 0.3202(10) -0.0727(7) 0.6412(4)
H3 H 0.274(15) 0.006(9) 0.679(6)
H4 H 0.339(16) -0.180(5) 0.680(6)
C5A C 0.5247(9) 0.5910(8) -0.0211(5)
O9A O 0.6348(6) 0.6002(6) -0.1076(3)
O10A O 0.4555(7) 0.7140(6) 0.0319(3)
C6A C -0.0277(9) 0.9337(8) -0.0257(4)
O11A O -0.1105(6) 0.9991(6) -0.1204(3)
O12A O 0.0161(7) 0.7685(6) 0.0268(3)
U1A U -0.23511(3) 0.33941(3) -0.196284(17)
Na1A Na -0.2581(4) 0.8393(4) -0.21277(19)
C1A C 0.3087(9) 0.2533(8) -0.2266(4)
C2A C 0.2181(9) 0.4586(8) -0.2205(4)
C3A C -0.1952(9) 0.3844(8) -0.4593(4)
C4A C -0.2997(9) 0.5869(8) -0.4429(5)
O1A O 0.1674(6) 0.1790(6) -0.2305(3)
O2A O 0.0100(6) 0.5295(5) -0.2100(3)
O3A O 0.3564(6) 0.5359(6) -0.2259(3)
O4A O 0.5161(6) 0.1741(6) -0.2271(3)
O5A O -0.1714(7) 0.2610(6) -0.3685(3)
O6A O -0.3143(6) 0.5981(6) -0.3452(3)
O7A O -0.3622(7) 0.7213(6) -0.5226(3)
O8A O -0.1449(7) 0.3550(6) -0.5482(3)
O13A O -0.2091(7) 0.9446(6) -0.4033(4)
H1A H -0.099(10) 0.864(9) -0.423(8)
H2A H -0.185(15) 1.044(7) -0.410(8)
O14A O 0.6798(10) 0.0727(7) 0.3588(4)
H3A H 0.726(15) -0.006(9) 0.321(6)
H4A H 0.661(16) 0.180(5) 0.320(6)
U1_2 U -0.76489(3) 0.66059(3) 0.196284(17)
U1A_2 U -0.23511(3) 1.33941(3) -0.196284(17)
U1A_3 U 0.76489(3) 0.33941(3) -0.196284(17)
Fe1_2 Fe -0.5000 1.0000 -0.5000
Na1_2 Na -0.7419(4) 1.1607(4) 0.21277(19)
Na1_3 Na 0.2581(4) 1.1607(4) 0.21277(19)
Na1A_2 Na 0.7419(4) -0.1607(4) -0.21277(19)
Na1A_3 Na 0.7419(4) 0.8393(4) -0.21277(19)
O3_2 O 0.6436(6) 0.4641(6) 0.2259(3)
O3A_2 O -0.6436(6) 0.5359(6) -0.2259(3)
O4_2 O 0.4839(6) -0.1741(6) 0.2271(3)
O4_3 O 0.4839(6) 0.8259(6) 0.2271(3)
O4A_2 O -0.4839(6) 0.1741(6) -0.2271(3)
O4A_3 O -0.4839(6) 1.1741(6) -0.2271(3)
O7A_2 O 0.6378(7) -0.2787(6) 0.4774(3)
O9A_2 O -0.3652(6) 0.6002(6) -0.1076(3)
O10_2 O -0.4555(7) 0.2860(6) -0.0319(3)
O11_2 O 0.1105(6) 0.0009(6) 0.1204(3)
O11A_2 O -0.1105(6) -0.0009(6) -0.1204(3)
O12_2 O -0.0161(7) 0.2315(6) -0.0268(3)
O13A_2 O 0.7909(7) -0.0554(6) 0.5967(4)
loop_
_geom_bond_atom_site_label_1
_geom_bond_atom_site_label_2
_geom_bond_site_symmetry_1
_geom_bond_site_symmetry_2
U1 O1 1_555 1_555
Fe1 O7 1_555 1_555
Na1 O2 1_555 1_555
C1 C2 1_555 1_555
C2 O2 1_555 1_555
C3 C4 1_555 1_555
C4 O6 1_555 1_555
C5 O9 1_555 1_555
C6 O11 1_555 1_555
O1 C1 1_555 1_555
O2 U1 1_555 1_555
O3 C2 1_555 1_555
O4 C1 1_555 1_555
O5 U1 1_555 1_555
O6 U1 1_555 1_555
O7 C4 1_555 1_555
O8 C3 1_555 1_555
O9 U1 1_555 1_555
O10 C5 1_555 1_555
O11 U1 1_555 1_555
O12 C6 1_555 1_555
O13 Fe1 1_555 1_555
H1 O13 1_555 1_555
H2 O13 1_555 1_555
O14 Fe1 1_555 1_555
H3 O14 1_555 1_555
H4 O14 1_555 1_555
C5A C5 1_555 1_555
O9A C5A 1_555 1_555
O10A U1 1_555 1_555
C6A C6 1_555 1_555
O11A C6A 1_555 1_555
O12A U1 1_555 1_555
U1A O1A 1_555 1_555
Na1A O11A 1_555 1_555
C1A C2A 1_555 1_555
C2A O2A 1_555 1_555
C3A C4A 1_555 1_555
C4A O6A 1_555 1_555
O1A C1A 1_555 1_555
O2A U1A 1_555 1_555
O3A C2A 1_555 1_555
O4A C1A 1_555 1_555
O5A U1A 1_555 1_555
O6A U1A 1_555 1_555
O7A C4A 1_555 1_555
O8A C3A 1_555 1_555
O13A Na1A 1_555 1_555
H1A O13A 1_555 1_555
H2A O13A 1_555 1_555
O14A Fe1 1_555 1_555
H3A O14A 1_555 1_555
H4A O14A 1_555 1_555
U1_2 O3 1_555 1_555
U1A_2 O12 1_555 1_555
U1A_3 O10 1_555 1_555
Fe1_2 O7A 1_555 1_555
Na1_2 O4 1_555 1_555
Na1_3 O11 1_555 1_555
Na1A_2 O4A 1_555 1_555
Na1A_3 O9A 1_555 1_555
O3_2 U1 1_555 1_555
O3A_2 U1A 1_555 1_555
O4_2 Na1 1_555 1_555
O4_3 U1 1_555 1_555
O4A_2 U1A 1_555 1_555
O4A_3 Na1A 1_555 1_555
O7A_2 Fe1 1_555 1_555
O9A_2 U1A 1_555 1_555
O10_2 U1A 1_555 1_555
O11_2 Na1 1_555 1_555
O11A_2 U1A 1_555 1_555
O12_2 U1A 1_555 1_555
O13A_2 Fe1 1_555 1_555
Na1 O6 1_555 1_555
Na1 O9 1_555 1_555
Na1 O13 1_555 1_555
C3 O5 1_555 1_555
O4 U1_2 1_555 1_555
C5A O10A 1_555 1_555
O9A U1A_3 1_555 1_555
C6A O12A 1_555 1_555
O11A U1A_2 1_555 1_555
Na1A O2A 1_555 1_555
Na1A O6A 1_555 1_555
Na1A O9A_2 1_555 1_555
C3A O5A 1_555 1_555
O3A U1A_3 1_555 1_555
O4A U1A_3 1_555 1_555
O13A Fe1_2 1_555 1_555
U1A_2 O4A_3 1_555 1_555
Na1_3 O4_3 1_555 1_555

#END
