
#######################################################################
#
#                 Cambridge Crystallographic Data Centre
#                                CCDC 
#
#######################################################################
#
# If this CIF has been generated from an entry in the Cambridge 
# Structural Database, then it will include bibliographic, chemical, 
# crystal, experimental, refinement or atomic coordinate data resulting 
# from the CCDC's data processing and validation procedures.
#
#######################################################################

data_MIDPUK
_symmetry_cell_setting           monoclinic
_symmetry_space_group_name_H-M   'P 21/c'
_symmetry_Int_Tables_number      14
_space_group_name_Hall           '-P 2ybc'
loop_
_symmetry_equiv_pos_site_id
_symmetry_equiv_pos_as_xyz
1 x,y,z
2 x,1/2-y,1/2+z
3 -x,-y,-z
4 -x,1/2+y,1/2-z
_cell_length_a                   7.9377(11)
_cell_length_b                   9.4600(12)
_cell_length_c                   10.7491(12)
_cell_angle_alpha                90
_cell_angle_beta                 109.494(11)
_cell_angle_gamma                90
_cell_volume                     760.888
loop_
_atom_site_label
_atom_site_type_symbol
_atom_site_fract_x
_atom_site_fract_y
_atom_site_fract_z
Cu1 Cu -0.85034(4) -0.88218(4) 0.07354(3)
Cl1 Cl -1.10598(9) -0.92437(8) 0.11617(7)
N1 N -0.6601(3) -0.9912(2) 0.2103(2)
C1 C -1.9191(4) -0.7928(3) -0.5407(3)
H1 H -1.9890 -0.7776 -0.6328
H2 H -1.9588 -0.8735 -0.5021
C2 C -1.7389(4) -0.7751(3) -0.5071(3)
H3 H -1.6992 -0.7438 -0.5797
C3 C -0.3968(4) -1.1457(3) 0.4026(3)
C4 C -0.5735(4) -1.1451(3) 0.3969(3)
H4 H -0.6079 -1.1976 0.4575
C5 C -0.6993(4) -1.0669(3) 0.3017(3)
H5 H -0.8166 -1.0671 0.3013
C6 C -0.4900(4) -0.9943(3) 0.2143(3)
H6 H -0.4600 -0.9434 0.1507
C7 C -0.3570(4) -1.0677(3) 0.3064(3)
H7 H -0.2408 -1.0654 0.3044
C2A C -0.7389(4) -0.7249(3) -0.0071(3)
Cu1B Cu -1.14966(4) -1.11782(4) -0.07354(3)
Cl1B Cl -0.89402(9) -1.07563(8) -0.11617(7)
C2B C -0.2611(4) -1.2249(3) 0.5071(3)
H3B H -0.3008 -1.2562 0.5797
C1A C -0.9191(4) -0.7072(3) -0.0407(3)
H1A H -0.9890 -0.7224 -0.1328
H2A H -0.9588 -0.6265 -0.0021
H3A H -0.6992 -0.7562 -0.0797
N1B N -1.3399(3) -1.0088(2) -0.2103(2)
C5B C -1.3007(4) -0.9331(3) -0.3017(3)
C4B C -1.4265(4) -0.8549(3) -0.3969(3)
C3B C -1.6032(4) -0.8543(3) -0.4026(3)
Cu1A Cu -1.85034(4) -0.61782(4) -0.42646(3)
C7B C -1.6430(4) -0.9323(3) -0.3064(3)
C6B C -1.5100(4) -1.0057(3) -0.2143(3)
H6B H -1.5400 -1.0566 -0.1507
H7B H -1.7592 -0.9346 -0.3044
H4B H -1.3921 -0.8024 -0.4575
H5B H -1.1834 -0.9329 -0.3013
C1C C -1.0809(4) -1.2928(3) 0.0407(3)
C2C C -1.2611(4) -1.2751(3) 0.0071(3)
H3C H -1.3008 -1.2438 0.0797
C3A C -1.3968(4) -1.3543(3) -0.0974(3)
H1C H -1.0110 -1.2776 0.1328
H2C H -1.0412 -1.3735 0.0021
loop_
_geom_bond_atom_site_label_1
_geom_bond_atom_site_label_2
_geom_bond_site_symmetry_1
_geom_bond_site_symmetry_2
Cu1 Cl1 1_555 1_555
Cl1 Cu1B 1_555 1_555
N1 Cu1 1_555 1_555
C1 H1 1_555 1_555
H2 C1 1_555 1_555
C2 C1 1_555 1_555
H3 C2 1_555 1_555
C3 C4 1_555 1_555
C4 H4 1_555 1_555
C5 N1 1_555 1_555
H5 C5 1_555 1_555
C6 N1 1_555 1_555
H6 C6 1_555 1_555
C7 C3 1_555 1_555
H7 C7 1_555 1_555
C2A Cu1 1_555 1_555
Cu1B Cl1B 1_555 1_555
Cl1B Cu1 1_555 1_555
C2B C3 1_555 1_555
H3B C2B 1_555 1_555
C1A Cu1 1_555 1_555
H1A C1A 1_555 1_555
H2A C1A 1_555 1_555
H3A C2A 1_555 1_555
N1B Cu1B 1_555 1_555
C5B N1B 1_555 1_555
C4B C5B 1_555 1_555
C3B C2 1_555 1_555
Cu1A C1 1_555 1_555
C7B C3B 1_555 1_555
C6B N1B 1_555 1_555
H6B C6B 1_555 1_555
H7B C7B 1_555 1_555
H4B C4B 1_555 1_555
H5B C5B 1_555 1_555
C1C Cu1B 1_555 1_555
C2C Cu1B 1_555 1_555
H3C C2C 1_555 1_555
C3A C2C 1_555 1_555
H1C C1C 1_555 1_555
H2C C1C 1_555 1_555
C2 Cu1A 1_555 1_555
C4 C5 1_555 1_555
C6 C7 1_555 1_555
C2A C1A 1_555 1_555
C4B C3B 1_555 1_555
C7B C6B 1_555 1_555
C1C C2C 1_555 1_555

#END
