
#######################################################################
#
#                 Cambridge Crystallographic Data Centre
#                                CCDC 
#
#######################################################################
#
# If this CIF has been generated from an entry in the Cambridge 
# Structural Database, then it will include bibliographic, chemical, 
# crystal, experimental, refinement or atomic coordinate data resulting 
# from the CCDC's data processing and validation procedures.
#
#######################################################################

data_MIDQAT
_symmetry_cell_setting           triclinic
_symmetry_space_group_name_H-M   'P -1'
_symmetry_Int_Tables_number      2
_space_group_name_Hall           '-P 1'
loop_
_symmetry_equiv_pos_site_id
_symmetry_equiv_pos_as_xyz
1 x,y,z
2 -x,-y,-z
_cell_length_a                   6.4418(2)
_cell_length_b                   7.8671(2)
_cell_length_c                   12.8053(4)
_cell_angle_alpha                75.6220(10)
_cell_angle_beta                 85.1850(10)
_cell_angle_gamma                68.4350(10)
_cell_volume                     584.602
loop_
_atom_site_label
_atom_site_type_symbol
_atom_site_fract_x
_atom_site_fract_y
_atom_site_fract_z
U1 U 0.23581(3) 0.66100(2) 0.196330(13)
Zn1 Zn 0.5000 0.0000 0.5000
Na1 Na 0.2559(4) 0.1617(3) 0.21197(18)
C1 C -0.3082(8) 0.7491(7) 0.2266(4)
C2 C -0.2167(8) 0.5435(7) 0.2203(4)
C3 C 0.1972(8) 0.6098(7) 0.4583(4)
C4 C 0.3046(8) 0.4060(7) 0.4422(4)
C5 C 0.4749(7) 0.4095(6) 0.0210(4)
C6 C 0.0265(8) 1.0687(6) 0.0259(4)
O1 O -0.1672(6) 0.8224(5) 0.2309(3)
O2 O -0.0098(5) 0.4718(5) 0.2097(3)
O3 O -0.3557(6) 0.4648(5) 0.2252(3)
O4 O -0.5160(5) 0.8272(5) 0.2274(3)
O5 O 0.1754(6) 0.7350(5) 0.3689(3)
O6 O 0.3167(6) 0.3987(5) 0.3437(3)
O7 O 0.3673(6) 0.2714(5) 0.5209(3)
O8 O 0.1457(7) 0.6382(5) 0.5479(3)
O9 O 0.3673(6) 0.3987(5) 0.1077(3)
O10 O 0.5440(6) 0.2866(5) -0.0319(3)
O11 O 0.1100(6) 1.0014(4) 0.1194(3)
O12 O -0.0161(6) 1.2327(5) -0.0277(3)
O13 O 0.2111(6) 0.0558(5) 0.4017(3)
H1 H 0.096(7) 0.126(7) 0.425(5)
H2 H 0.202(10) -0.047(5) 0.403(5)
O14 O 0.3107(8) -0.0690(5) 0.6356(4)
H3 H 0.250(10) 0.004(7) 0.675(4)
H4 H 0.342(10) -0.180(3) 0.669(4)
C5A C 0.5251(7) 0.5905(6) -0.0210(4)
O9A O 0.6327(6) 0.6013(5) -0.1077(3)
O10A O 0.4560(6) 0.7134(5) 0.0319(3)
C6A C -0.0265(8) 0.9313(6) -0.0259(4)
O11A O -0.1100(6) 0.9986(4) -0.1194(3)
O12A O 0.0161(6) 0.7673(5) 0.0277(3)
U1A U -0.23581(3) 0.33900(2) -0.196330(13)
Na1A Na -0.2559(4) 0.8383(3) -0.21197(18)
C1A C 0.3082(8) 0.2509(7) -0.2266(4)
C2A C 0.2167(8) 0.4565(7) -0.2203(4)
C3A C -0.1972(8) 0.3902(7) -0.4583(4)
C4A C -0.3046(8) 0.5940(7) -0.4422(4)
O1A O 0.1672(6) 0.1776(5) -0.2309(3)
O2A O 0.0098(5) 0.5282(5) -0.2097(3)
O3A O 0.3557(6) 0.5352(5) -0.2252(3)
O4A O 0.5160(5) 0.1728(5) -0.2274(3)
O5A O -0.1754(6) 0.2650(5) -0.3689(3)
O6A O -0.3167(6) 0.6013(5) -0.3437(3)
O7A O -0.3673(6) 0.7286(5) -0.5209(3)
O8A O -0.1457(7) 0.3618(5) -0.5479(3)
O13A O -0.2111(6) 0.9442(5) -0.4017(3)
H1A H -0.096(7) 0.874(7) -0.425(5)
H2A H -0.202(10) 1.047(5) -0.403(5)
O14A O 0.6893(8) 0.0690(5) 0.3644(4)
H3A H 0.750(10) -0.004(7) 0.325(4)
H4A H 0.658(10) 0.180(3) 0.331(4)
U1_2 U -0.76419(3) 0.66100(2) 0.196330(13)
U1A_2 U -0.23581(3) 1.33900(2) -0.196330(13)
U1A_3 U 0.76419(3) 0.33900(2) -0.196330(13)
Zn1_2 Zn -0.5000 1.0000 -0.5000
Na1_2 Na -0.7441(4) 1.1617(3) 0.21197(18)
Na1_3 Na 0.2559(4) 1.1617(3) 0.21197(18)
Na1A_2 Na 0.7441(4) -0.1617(3) -0.21197(18)
Na1A_3 Na 0.7441(4) 0.8383(3) -0.21197(18)
O3_2 O 0.6443(6) 0.4648(5) 0.2252(3)
O3A_2 O -0.6443(6) 0.5352(5) -0.2252(3)
O4_2 O 0.4840(5) -0.1728(5) 0.2274(3)
O4_3 O 0.4840(5) 0.8272(5) 0.2274(3)
O4A_2 O -0.4840(5) 0.1728(5) -0.2274(3)
O4A_3 O -0.4840(5) 1.1728(5) -0.2274(3)
O7A_2 O 0.6327(6) -0.2714(5) 0.4791(3)
O9A_2 O -0.3673(6) 0.6013(5) -0.1077(3)
O10_2 O -0.4560(6) 0.2866(5) -0.0319(3)
O11_2 O 0.1100(6) 0.0014(4) 0.1194(3)
O11A_2 O -0.1100(6) -0.0014(4) -0.1194(3)
O12_2 O -0.0161(6) 0.2327(5) -0.0277(3)
O13A_2 O 0.7889(6) -0.0558(5) 0.5983(3)
loop_
_geom_bond_atom_site_label_1
_geom_bond_atom_site_label_2
_geom_bond_site_symmetry_1
_geom_bond_site_symmetry_2
U1 O1 1_555 1_555
Zn1 O7 1_555 1_555
Na1 O2 1_555 1_555
C1 C2 1_555 1_555
C2 O2 1_555 1_555
C3 C4 1_555 1_555
C4 O6 1_555 1_555
C5 O9 1_555 1_555
C6 O11 1_555 1_555
O1 C1 1_555 1_555
O2 U1 1_555 1_555
O3 C2 1_555 1_555
O4 C1 1_555 1_555
O5 U1 1_555 1_555
O6 U1 1_555 1_555
O7 C4 1_555 1_555
O8 C3 1_555 1_555
O9 U1 1_555 1_555
O10 C5 1_555 1_555
O11 U1 1_555 1_555
O12 C6 1_555 1_555
O13 Zn1 1_555 1_555
H1 O13 1_555 1_555
H2 O13 1_555 1_555
O14 Zn1 1_555 1_555
H3 O14 1_555 1_555
H4 O14 1_555 1_555
C5A C5 1_555 1_555
O9A C5A 1_555 1_555
O10A U1 1_555 1_555
C6A C6 1_555 1_555
O11A C6A 1_555 1_555
O12A U1 1_555 1_555
U1A O1A 1_555 1_555
Na1A O11A 1_555 1_555
C1A C2A 1_555 1_555
C2A O2A 1_555 1_555
C3A C4A 1_555 1_555
C4A O6A 1_555 1_555
O1A C1A 1_555 1_555
O2A U1A 1_555 1_555
O3A C2A 1_555 1_555
O4A C1A 1_555 1_555
O5A U1A 1_555 1_555
O6A U1A 1_555 1_555
O7A C4A 1_555 1_555
O8A C3A 1_555 1_555
O13A Na1A 1_555 1_555
H1A O13A 1_555 1_555
H2A O13A 1_555 1_555
O14A Zn1 1_555 1_555
H3A O14A 1_555 1_555
H4A O14A 1_555 1_555
U1_2 O3 1_555 1_555
U1A_2 O12 1_555 1_555
U1A_3 O10 1_555 1_555
Zn1_2 O7A 1_555 1_555
Na1_2 O4 1_555 1_555
Na1_3 O11 1_555 1_555
Na1A_2 O4A 1_555 1_555
Na1A_3 O9A 1_555 1_555
O3_2 U1 1_555 1_555
O3A_2 U1A 1_555 1_555
O4_2 Na1 1_555 1_555
O4_3 U1 1_555 1_555
O4A_2 U1A 1_555 1_555
O4A_3 Na1A 1_555 1_555
O7A_2 Zn1 1_555 1_555
O9A_2 U1A 1_555 1_555
O10_2 U1A 1_555 1_555
O11_2 Na1 1_555 1_555
O11A_2 U1A 1_555 1_555
O12_2 U1A 1_555 1_555
O13A_2 Zn1 1_555 1_555
Na1 O6 1_555 1_555
Na1 O9 1_555 1_555
Na1 O13 1_555 1_555
C3 O5 1_555 1_555
O4 U1_2 1_555 1_555
C5A O10A 1_555 1_555
O9A U1A_3 1_555 1_555
C6A O12A 1_555 1_555
O11A U1A_2 1_555 1_555
Na1A O2A 1_555 1_555
Na1A O6A 1_555 1_555
Na1A O9A_2 1_555 1_555
C3A O5A 1_555 1_555
O3A U1A_3 1_555 1_555
O4A U1A_3 1_555 1_555
O13A Zn1_2 1_555 1_555
U1A_2 O4A_3 1_555 1_555
Na1_3 O4_3 1_555 1_555

#END
