
#######################################################################
#
#                 Cambridge Crystallographic Data Centre
#                                CCDC 
#
#######################################################################
#
# If this CIF has been generated from an entry in the Cambridge 
# Structural Database, then it will include bibliographic, chemical, 
# crystal, experimental, refinement or atomic coordinate data resulting 
# from the CCDC's data processing and validation procedures.
#
#######################################################################

data_MIDQUM
_symmetry_cell_setting           monoclinic
_symmetry_space_group_name_H-M   'C 2/c'
_symmetry_Int_Tables_number      15
_space_group_name_Hall           '-C 2yn'
loop_
_symmetry_equiv_pos_site_id
_symmetry_equiv_pos_as_xyz
1 x,y,z
2 1/2+x,1/2+y,z
3 -x,y,1/2-z
4 1/2-x,1/2+y,1/2-z
5 -x,-y,-z
6 1/2-x,1/2-y,-z
7 x,-y,1/2+z
8 1/2+x,1/2-y,1/2+z
_cell_length_a                   10.720(3)
_cell_length_b                   14.938(4)
_cell_length_c                   16.088(4)
_cell_angle_alpha                90
_cell_angle_beta                 99.899(5)
_cell_angle_gamma                90
_cell_volume                     2537.9
loop_
_atom_site_label
_atom_site_type_symbol
_atom_site_fract_x
_atom_site_fract_y
_atom_site_fract_z
C1 C 1.5610(3) 0.08202(19) 0.1168(2)
H1 H 1.5292 0.1297 0.1494
H2 H 1.5421 0.0968 0.0566
H3 H 1.6528 0.0763 0.1344
C2 C 1.4977(3) -0.00542(17) 0.13205(17)
C3 C 1.3707(3) -0.02285(18) 0.09283(17)
C4 C 1.3014(3) -0.10119(19) 0.10578(18)
C5 C 1.1701(3) -0.1169(3) 0.0566(3)
H4 H 1.1419 -0.1773 0.0681
H5 H 1.1715 -0.1106 -0.0039
H6 H 1.1116 -0.0728 0.0735
C6 C 1.2135(3) 0.12617(18) 0.08559(18)
C7 C 1.2244(4) 0.1160(2) 0.17220(19)
H7 H 1.2748 0.0695 0.2009
C8 C 1.1604(3) 0.1749(2) 0.21562(19)
H8 H 1.1693 0.1680 0.2751
C9 C 1.0762(3) 0.24937(17) 0.09575(17)
H9 H 1.0238 0.2958 0.0686
C10 C 1.1368(3) 0.19460(18) 0.04717(17)
H10 H 1.1266 0.2033 -0.0121
N1 N 1.0870(2) 0.24091(15) 0.17967(15)
O1 O 1.56519(19) -0.05943(12) 0.18069(13)
O2 O 1.34216(18) -0.16199(12) 0.15743(13)
S1 S 1.29324(8) 0.05805(5) 0.02196(5)
Zn1 Zn 1.0000 0.33600(3) 0.2500
C1B C 0.4390(3) 0.08202(19) 0.3832(2)
H1B H 0.4708 0.1297 0.3506
H2B H 0.4579 0.0968 0.4434
H3B H 0.3472 0.0763 0.3656
C2B C 0.5023(3) -0.00542(17) 0.36795(17)
C3B C 0.6293(3) -0.02285(18) 0.40717(17)
C4B C 0.6986(3) -0.10119(19) 0.39422(18)
C5B C 0.8299(3) -0.1169(3) 0.4434(3)
H4B H 0.8581 -0.1773 0.4319
H5B H 0.8285 -0.1106 0.5039
H6B H 0.8884 -0.0728 0.4265
C6B C 0.7865(3) 0.12617(18) 0.41441(18)
C7B C 0.7756(4) 0.1160(2) 0.32780(19)
H7B H 0.7252 0.0695 0.2991
C8B C 0.8396(3) 0.1749(2) 0.28438(19)
H8B H 0.8307 0.1680 0.2249
C9B C 0.9238(3) 0.24937(17) 0.40425(17)
H9B H 0.9762 0.2958 0.4314
C10B C 0.8632(3) 0.19460(18) 0.45283(17)
H10B H 0.8734 0.2033 0.5121
N1B N 0.9130(2) 0.24091(15) 0.32033(15)
O1B O 0.43481(19) -0.05943(12) 0.31931(13)
O1A O 1.06519(19) 0.44057(12) 0.18069(13)
O1C O 0.93481(19) 0.44057(12) 0.31931(13)
O2B O 0.65784(18) -0.16199(12) 0.34257(13)
O2A O 0.84216(18) 0.33801(12) 0.15743(13)
O2C O 1.15784(18) 0.33801(12) 0.34257(13)
S1B S 0.70676(8) 0.05805(5) 0.47804(5)
Zn1A Zn 1.5000 -0.16400(3) 0.2500
Zn1A_2 Zn 0.5000 -0.16400(3) 0.2500
O3 O 1.3384(8) 0.4008(6) 0.1891(5)
O4? O 1.0000 0.7696(9) 0.2500
O5? O 1.1016(12) 0.8306(8) 0.2922(8)
O6? O 0.9991(19) 0.7832(14) 0.2916(14)
O7? O 1.4018(14) 0.4735(10) 0.1822(10)
loop_
_geom_bond_atom_site_label_1
_geom_bond_atom_site_label_2
_geom_bond_site_symmetry_1
_geom_bond_site_symmetry_2
C1 H1 1_555 1_555
H2 C1 1_555 1_555
H3 C1 1_555 1_555
C2 C1 1_555 1_555
C3 C2 1_555 1_555
C4 C3 1_555 1_555
C5 C4 1_555 1_555
H4 C5 1_555 1_555
H5 C5 1_555 1_555
H6 C5 1_555 1_555
C6 C7 1_555 1_555
C7 H7 1_555 1_555
C8 C7 1_555 1_555
H8 C8 1_555 1_555
C9 H9 1_555 1_555
C10 C6 1_555 1_555
H10 C10 1_555 1_555
N1 C8 1_555 1_555
O1 C2 1_555 1_555
O2 C4 1_555 1_555
S1 C3 1_555 1_555
Zn1 N1 1_555 1_555
C1B H1B 1_555 1_555
H2B C1B 1_555 1_555
H3B C1B 1_555 1_555
C2B C1B 1_555 1_555
C3B C2B 1_555 1_555
C4B C3B 1_555 1_555
C5B C4B 1_555 1_555
H4B C5B 1_555 1_555
H5B C5B 1_555 1_555
H6B C5B 1_555 1_555
C6B C7B 1_555 1_555
C7B H7B 1_555 1_555
C8B C7B 1_555 1_555
H8B C8B 1_555 1_555
C9B H9B 1_555 1_555
C10B C6B 1_555 1_555
H10B C10B 1_555 1_555
N1B Zn1 1_555 1_555
O1B C2B 1_555 1_555
O1A Zn1 1_555 1_555
O1C Zn1 1_555 1_555
O2B C4B 1_555 1_555
O2A Zn1 1_555 1_555
O2C Zn1 1_555 1_555
S1B C3B 1_555 1_555
Zn1A O1 1_555 1_555
Zn1A_2 O1B 1_555 1_555
C6 S1 1_555 1_555
C9 C10 1_555 1_555
C9 N1 1_555 1_555
O2 Zn1A 1_555 1_555
C6B S1B 1_555 1_555
C8B N1B 1_555 1_555
C9B C10B 1_555 1_555
C9B N1B 1_555 1_555
O2B Zn1A_2 1_555 1_555

#END
