
#######################################################################
#
#                 Cambridge Crystallographic Data Centre
#                                CCDC 
#
#######################################################################
#
# If this CIF has been generated from an entry in the Cambridge 
# Structural Database, then it will include bibliographic, chemical, 
# crystal, experimental, refinement or atomic coordinate data resulting 
# from the CCDC's data processing and validation procedures.
#
#######################################################################

data_MIDVIE
_symmetry_cell_setting           monoclinic
_symmetry_space_group_name_H-M   'P 21/c'
_symmetry_Int_Tables_number      14
_space_group_name_Hall           '-P 2ybc'
loop_
_symmetry_equiv_pos_site_id
_symmetry_equiv_pos_as_xyz
1 x,y,z
2 x,1/2-y,1/2+z
3 -x,-y,-z
4 -x,1/2+y,1/2-z
_cell_length_a                   7.1685(4)
_cell_length_b                   23.2264(13)
_cell_length_c                   6.3567(4)
_cell_angle_alpha                90
_cell_angle_beta                 113.7250(10)
_cell_angle_gamma                90
_cell_volume                     968.934
loop_
_atom_site_label
_atom_site_type_symbol
_atom_site_fract_x
_atom_site_fract_y
_atom_site_fract_z
Cu1 Cu 0.5000 0.5000 0.0000
Cu2 Cu 1.21153(6) 0.707227(18) 0.32295(7)
Cl1 Cl 1.31980(12) 0.70797(3) 0.01183(14)
C1 C 0.8052(4) 0.57300(12) -0.0025(5)
C2 C 0.9489(4) 0.61541(13) 0.0578(5)
H1 H 1.0403 0.6163 -0.0126
C3 C 0.8260(4) 0.65400(12) 0.3096(5)
C4 C 0.6823(4) 0.60990(12) 0.2515(5)
H2 H 0.5904 0.6086 0.3212
C5 C 0.7805(4) 0.52634(13) -0.1758(5)
C6 C 0.8306(5) 0.69938(14) 0.4762(6)
H3 H 0.9539 0.6960 0.6125
H4 H 0.7153 0.6949 0.5154
H5 H 0.8255 0.7366 0.4085
N1 N 0.6731(3) 0.56987(10) 0.1000(4)
N2 N 0.9637(3) 0.65579(10) 0.2143(4)
O1 O 0.6527(3) 0.48712(9) -0.1891(4)
O2 O 0.8815(3) 0.52849(9) -0.2940(4)
O3 O 0.2426(3) 0.55042(10) -0.3412(4)
H6 H 0.134(3) 0.5497(17) -0.322(7)
H7 H 0.214(5) 0.5313(14) -0.462(4)
O4 O 1.4314(4) 0.65057(11) 0.6084(5)
H8 H 1.455(6) 0.6637(18) 0.740(3)
H9 H 1.374(6) 0.6208(10) 0.629(8)
C1B C 0.1948(4) 0.42700(12) 0.0025(5)
C2B C 0.0511(4) 0.38459(13) -0.0578(5)
H1B H -0.0403 0.3837 0.0126
C3B C 0.1740(4) 0.34600(12) -0.3096(5)
C4B C 0.3177(4) 0.39010(12) -0.2515(5)
H2B H 0.4096 0.3914 -0.3212
C5B C 0.2195(4) 0.47366(13) 0.1758(5)
C6B C 0.1694(5) 0.30062(14) -0.4762(6)
H3B H 0.0461 0.3040 -0.6125
H4B H 0.2847 0.3051 -0.5154
H5B H 0.1745 0.2634 -0.4085
N1B N 0.3269(3) 0.43013(10) -0.1000(4)
N2B N 0.0363(3) 0.34421(10) -0.2143(4)
O1B O 0.3473(3) 0.51288(9) 0.1891(4)
O2B O 0.1185(3) 0.47151(9) 0.2940(4)
O3B O 0.7574(3) 0.44958(10) 0.3412(4)
H6B H 0.866(3) 0.4503(17) 0.322(7)
H7B H 0.786(5) 0.4687(14) 0.462(4)
Cu2B Cu -0.21153(6) 0.292773(18) -0.32295(7)
Cl1A Cl 1.31980(12) 0.79203(3) 0.51183(14)
O4B O -0.4314(4) 0.34943(11) -0.6084(5)
H8B H -0.455(6) 0.3363(18) -0.740(3)
H9B H -0.374(6) 0.3792(10) -0.629(8)
Cu2A Cu 1.21153(6) 0.792773(18) -0.17705(7)
Cl1B Cl -0.31980(12) 0.29203(3) -0.01183(14)
Cl1C Cl -0.31980(12) 0.20797(3) -0.51183(14)
Cu2A_2 Cu 1.21153(6) 0.792773(18) 0.82295(7)
loop_
_geom_bond_atom_site_label_1
_geom_bond_atom_site_label_2
_geom_bond_site_symmetry_1
_geom_bond_site_symmetry_2
Cu1 N1 1_555 1_555
Cu2 Cl1 1_555 1_555
Cl1 Cu2A 1_555 1_555
C1 C2 1_555 1_555
C2 H1 1_555 1_555
C3 C4 1_555 1_555
C4 H2 1_555 1_555
C5 C1 1_555 1_555
C6 C3 1_555 1_555
H3 C6 1_555 1_555
H4 C6 1_555 1_555
H5 C6 1_555 1_555
N1 C1 1_555 1_555
N2 Cu2 1_555 1_555
O1 Cu1 1_555 1_555
O2 C5 1_555 1_555
O3 Cu1 1_555 1_555
H6 O3 1_555 1_555
H7 O3 1_555 1_555
O4 Cu2 1_555 1_555
H8 O4 1_555 1_555
H9 O4 1_555 1_555
C1B C2B 1_555 1_555
C2B H1B 1_555 1_555
C3B C4B 1_555 1_555
C4B H2B 1_555 1_555
C5B C1B 1_555 1_555
C6B C3B 1_555 1_555
H3B C6B 1_555 1_555
H4B C6B 1_555 1_555
H5B C6B 1_555 1_555
N1B Cu1 1_555 1_555
N2B C2B 1_555 1_555
O1B Cu1 1_555 1_555
O2B C5B 1_555 1_555
O3B Cu1 1_555 1_555
H6B O3B 1_555 1_555
H7B O3B 1_555 1_555
Cu2B N2B 1_555 1_555
Cl1A Cu2 1_555 1_555
O4B Cu2B 1_555 1_555
H8B O4B 1_555 1_555
H9B O4B 1_555 1_555
Cl1B Cu2B 1_555 1_555
Cl1C Cu2B 1_555 1_555
Cu2A_2 Cl1A 1_555 1_555
C2 N2 1_555 1_555
C3 N2 1_555 1_555
C4 N1 1_555 1_555
C5 O1 1_555 1_555
C1B N1B 1_555 1_555
C3B N2B 1_555 1_555
C4B N1B 1_555 1_555
C5B O1B 1_555 1_555

#END
