
#######################################################################
#
#                 Cambridge Crystallographic Data Centre
#                                CCDC 
#
#######################################################################
#
# If this CIF has been generated from an entry in the Cambridge 
# Structural Database, then it will include bibliographic, chemical, 
# crystal, experimental, refinement or atomic coordinate data resulting 
# from the CCDC's data processing and validation procedures.
#
#######################################################################

data_MIDVUQ
_symmetry_cell_setting           orthorhombic
_symmetry_space_group_name_H-M   'P b c a'
_symmetry_Int_Tables_number      61
_space_group_name_Hall           '-P 2ac 2ab'
loop_
_symmetry_equiv_pos_site_id
_symmetry_equiv_pos_as_xyz
1 x,y,z
2 1/2+x,y,1/2-z
3 x,1/2-y,1/2+z
4 1/2-x,1/2+y,z
5 -x,-y,-z
6 1/2-x,-y,1/2+z
7 -x,1/2+y,1/2-z
8 1/2+x,1/2-y,-z
_cell_length_a                   7.6246(6)
_cell_length_b                   7.0831(5)
_cell_length_c                   28.756(2)
_cell_angle_alpha                90
_cell_angle_beta                 90
_cell_angle_gamma                90
_cell_volume                     1552.99
loop_
_atom_site_label
_atom_site_type_symbol
_atom_site_fract_x
_atom_site_fract_y
_atom_site_fract_z
Cu1 Cu 0.0000 0.5000 0.5000
Cu2 Cu 0.05044(10) 0.17131(11) 0.71652(2)
Br1 Br 0.35512(6) 0.02015(7) 0.728579(17)
C1 C 0.1289(6) 0.3041(7) 0.57547(16)
C2 C 0.1399(6) 0.2272(7) 0.61950(16)
H1 H 0.2492 0.1907 0.6307
C3 C -0.1578(6) 0.2493(7) 0.62848(16)
C4 C -0.1697(6) 0.3264(7) 0.58351(17)
H2 H -0.2793 0.3559 0.5713
C5 C 0.2838(6) 0.3375(7) 0.54304(16)
C6 C -0.3193(7) 0.2276(8) 0.65735(17)
H3 H -0.3152 0.1092 0.6736
H4 H -0.4208 0.2308 0.6376
H5 H -0.3257 0.3289 0.6795
N1 N -0.0272(5) 0.3576(6) 0.55837(13)
N2 N -0.0003(5) 0.2035(6) 0.64657(13)
O1 O 0.2458(4) 0.4259(5) 0.50633(12)
O2 O 0.4265(4) 0.2728(5) 0.55434(12)
C1D C -0.1289(6) 0.6959(7) 0.42453(16)
C2D C -0.1399(6) 0.7728(7) 0.38050(16)
H1D H -0.2492 0.8093 0.3693
C3D C 0.1578(6) 0.7507(7) 0.37152(16)
C4D C 0.1697(6) 0.6736(7) 0.41649(17)
H2D H 0.2793 0.6441 0.4287
C5D C -0.2838(6) 0.6625(7) 0.45696(16)
C6D C 0.3193(7) 0.7724(8) 0.34265(17)
H3D H 0.3152 0.8908 0.3264
H4D H 0.4208 0.7692 0.3624
H5D H 0.3257 0.6711 0.3205
N1D N 0.0272(5) 0.6424(6) 0.44163(13)
N2D N 0.0003(5) 0.7965(6) 0.35343(13)
O1D O -0.2458(4) 0.5741(5) 0.49367(12)
O2D O -0.4265(4) 0.7272(5) 0.44566(12)
Cu2D Cu -0.05044(10) 0.82869(11) 0.28348(2)
Br1A Br -0.14488(6) 0.02015(7) 0.771421(17)
O2C O 0.0735(4) 0.7728(5) 0.55434(12)
O2G O -0.0735(4) 0.2272(5) 0.44566(12)
Br1C Br 0.14488(6) 0.52015(7) 0.728579(17)
Cu2A Cu 0.55044(10) 0.17131(11) 0.78348(2)
Cu2C Cu 0.44956(10) -0.32869(11) 0.71652(2)
Cu1C Cu 0.5000 0.0000 0.5000
Cu1C_2 Cu -0.5000 1.0000 0.5000
Br1D Br -0.35512(6) 0.97985(7) 0.271421(17)
Br1E Br 0.14488(6) 0.97985(7) 0.228579(17)
Br1G Br -0.14488(6) 0.47985(7) 0.271421(17)
Cu2A_2 Cu -0.44956(10) 0.17131(11) 0.78348(2)
Cu2F Cu -0.05044(10) -0.32869(11) 0.78348(2)
loop_
_geom_bond_atom_site_label_1
_geom_bond_atom_site_label_2
_geom_bond_site_symmetry_1
_geom_bond_site_symmetry_2
Cu1 N1 1_555 1_555
Cu2 Br1 1_555 1_555
Br1 Cu2A 1_555 1_555
C1 C2 1_555 1_555
C2 H1 1_555 1_555
C3 C4 1_555 1_555
C4 H2 1_555 1_555
C5 C1 1_555 1_555
C6 C3 1_555 1_555
H3 C6 1_555 1_555
H4 C6 1_555 1_555
H5 C6 1_555 1_555
N1 C1 1_555 1_555
N2 Cu2 1_555 1_555
O1 Cu1 1_555 1_555
O2 C5 1_555 1_555
C1D C2D 1_555 1_555
C2D H1D 1_555 1_555
C3D C4D 1_555 1_555
C4D H2D 1_555 1_555
C5D C1D 1_555 1_555
C6D C3D 1_555 1_555
H3D C6D 1_555 1_555
H4D C6D 1_555 1_555
H5D C6D 1_555 1_555
N1D Cu1 1_555 1_555
N2D C2D 1_555 1_555
O1D Cu1 1_555 1_555
O2D C5D 1_555 1_555
Cu2D N2D 1_555 1_555
Br1A Cu2 1_555 1_555
O2C Cu1 1_555 1_555
O2G Cu1 1_555 1_555
Br1C Cu2 1_555 1_555
Cu2C Br1 1_555 1_555
Cu1C O2 1_555 1_555
Cu1C_2 O2D 1_555 1_555
Br1D Cu2D 1_555 1_555
Br1E Cu2D 1_555 1_555
Br1G Cu2D 1_555 1_555
Cu2A_2 Br1A 1_555 1_555
Cu2F Br1A 1_555 1_555
C2 N2 1_555 1_555
C3 N2 1_555 1_555
C4 N1 1_555 1_555
C5 O1 1_555 1_555
C1D N1D 1_555 1_555
C3D N2D 1_555 1_555
C4D N1D 1_555 1_555
C5D O1D 1_555 1_555

#END
