
#######################################################################
#
#                 Cambridge Crystallographic Data Centre
#                                CCDC 
#
#######################################################################
#
# If this CIF has been generated from an entry in the Cambridge 
# Structural Database, then it will include bibliographic, chemical, 
# crystal, experimental, refinement or atomic coordinate data resulting 
# from the CCDC's data processing and validation procedures.
#
#######################################################################

data_MIDXOM
_symmetry_cell_setting           triclinic
_symmetry_space_group_name_H-M   'P -1'
_symmetry_Int_Tables_number      2
_space_group_name_Hall           '-P 1'
loop_
_symmetry_equiv_pos_site_id
_symmetry_equiv_pos_as_xyz
1 x,y,z
2 -x,-y,-z
_cell_length_a                   7.628(4)
_cell_length_b                   8.953(4)
_cell_length_c                   17.197(8)
_cell_angle_alpha                91.34(1)
_cell_angle_beta                 100.65(2)
_cell_angle_gamma                99.31(2)
_cell_volume                     1137.29
loop_
_atom_site_label
_atom_site_type_symbol
_atom_site_fract_x
_atom_site_fract_y
_atom_site_fract_z
Cu1 Cu 0.42064(4) 0.40656(3) 0.54405(2)
Cu2 Cu 0.76856(4) -0.05213(3) 0.99987(2)
Cu3 Cu 0.46579(4) 0.02927(3) 0.88136(2)
N1 N 0.3401(3) 0.1276(3) 0.76001(12)
O1 O 0.4986(3) 0.2453(2) 0.48650(12)
O2 O 0.6334(3) 0.4068(2) 0.41047(12)
O3 O 0.2019(3) 0.3929(2) 0.46241(12)
O4 O 0.3373(2) 0.5545(2) 0.38677(11)
O5 O 0.7443(3) -0.2059(2) 0.91468(11)
O6 O 0.5233(3) -0.1407(2) 0.82501(12)
O7 O 0.6861(2) 0.1677(2) 0.86596(12)
O8 O 0.9169(2) 0.1003(2) 0.94872(10)
O9 O 0.2579(2) -0.0829(2) 0.91570(11)
O10 O 0.3915(3) 0.1752(2) 0.94532(12)
S1 S 0.47096(9) 0.23728(8) 0.71387(4)
N2 N 0.3253(3) 0.2586(2) 0.63540(12)
C1 C -0.0002(4) 0.1627(4) 0.5873(2)
C2 C -0.1467(5) 0.0749(5) 0.6064(2)
C3 C -0.1385(5) 0.0025(5) 0.6793(2)
C4 C 0.0169(4) 0.0137(4) 0.7332(2)
C5 C 0.1648(3) 0.1779(3) 0.64238(15)
C6 C 0.1737(3) 0.1027(3) 0.71479(15)
C7 C 0.5887(3) 0.2765(3) 0.4330(2)
C8 C 0.6484(5) 0.1486(4) 0.3926(2)
C9 C 0.2026(3) 0.4675(3) 0.4013(2)
C10 C 0.0297(5) 0.4498(5) 0.3417(2)
C11 C 0.6359(4) -0.2242(3) 0.84967(15)
C12 C 0.6428(6) -0.3583(4) 0.7963(2)
H1 H 0.5266(16) -0.3893(27) 0.7626(15)
H2 H 0.7324(36) -0.3305(13) 0.7644(16)
H3 H 0.6736(49) -0.4406(14) 0.8280(2)
C13 C 0.8499(3) 0.1817(3) 0.8964(2)
C14 C 0.9768(5) 0.3068(5) 0.8698(3)
C15 C 0.1809(5) -0.2361(4) 0.8983(2)
C16 C 0.4511(5) 0.3316(4) 0.9525(3)
H4 H -0.0087(48) 0.2144(41) 0.5440(22)
H5 H -0.2401(60) 0.0618(50) 0.5775(27)
H6 H -0.2403(56) -0.0534(45) 0.6852(24)
H7 H 0.0264(45) -0.0308(40) 0.7814(21)
H8 H 0.7774(50) 0.1553(37) 0.4065(20)
H9 H 0.6119(56) 0.1470(48) 0.3404(28)
H10 H 0.6132(58) 0.0624(52) 0.4119(26)
H11 H 0.0115(61) 0.3596(56) 0.3139(29)
H12 H 0.0291(55) 0.5107(50) 0.2995(27)
H13 H -0.0630(66) 0.4561(53) 0.3579(28)
H14 H 0.9924(76) 0.3851(64) 0.9019(34)
H15 H 1.0761(74) 0.2894(58) 0.8686(31)
H16 H 0.9194(71) 0.3463(60) 0.8148(33)
H17 H 0.2523(70) -0.2958(56) 0.9171(31)
H18 H 0.1574(64) -0.2616(56) 0.8473(33)
H19 H 0.0623(79) -0.2697(64) 0.9104(34)
H20 H 0.5618(61) 0.3621(46) 0.9587(24)
H21 H 0.3929(63) 0.3772(53) 0.9822(29)
H22 H 0.4159(66) 0.3714(57) 0.9057(32)
O2A O 0.3666(3) 0.5932(2) 0.58953(12)
O4A O 0.6627(2) 0.4455(2) 0.61323(11)
O9A O 0.7421(2) 0.0829(2) 1.08430(11)
O10A O 0.6085(3) -0.1752(2) 1.05468(12)
Cu1A Cu 0.57936(4) 0.59344(3) 0.45595(2)
Cu2A Cu 0.23144(4) 0.05213(3) 1.00013(2)
loop_
_geom_bond_atom_site_label_1
_geom_bond_atom_site_label_2
_geom_bond_site_symmetry_1
_geom_bond_site_symmetry_2
Cu1 O1 1_555 1_555
Cu2 O5 1_555 1_555
Cu3 N1 1_555 1_555
N1 S1 1_555 1_555
O1 C7 1_555 1_555
O2 C7 1_555 1_555
O3 Cu1 1_555 1_555
O4 C9 1_555 1_555
O5 C11 1_555 1_555
O6 Cu3 1_555 1_555
O7 Cu3 1_555 1_555
O8 Cu2 1_555 1_555
O9 Cu3 1_555 1_555
O10 Cu3 1_555 1_555
S1 N2 1_555 1_555
N2 Cu1 1_555 1_555
C1 C2 1_555 1_555
C2 C3 1_555 1_555
C3 C4 1_555 1_555
C4 C6 1_555 1_555
C5 N2 1_555 1_555
C6 N1 1_555 1_555
C7 C8 1_555 1_555
C8 H8 1_555 1_555
C9 O3 1_555 1_555
C10 C9 1_555 1_555
C11 O6 1_555 1_555
C12 C11 1_555 1_555
H1 C12 1_555 1_555
H2 C12 1_555 1_555
H3 C12 1_555 1_555
C13 O7 1_555 1_555
C14 C13 1_555 1_555
C15 O9 1_555 1_555
C16 O10 1_555 1_555
H4 C1 1_555 1_555
H5 C2 1_555 1_555
H6 C3 1_555 1_555
H7 C4 1_555 1_555
H9 C8 1_555 1_555
H10 C8 1_555 1_555
H11 C10 1_555 1_555
H12 C10 1_555 1_555
H13 C10 1_555 1_555
H14 C14 1_555 1_555
H15 C14 1_555 1_555
H16 C14 1_555 1_555
H17 C15 1_555 1_555
H18 C15 1_555 1_555
H19 C15 1_555 1_555
H20 C16 1_555 1_555
H21 C16 1_555 1_555
H22 C16 1_555 1_555
O2A Cu1 1_555 1_555
O4A Cu1 1_555 1_555
O9A Cu2 1_555 1_555
O10A Cu2 1_555 1_555
Cu1A O2 1_555 1_555
Cu2A O9 1_555 1_555
O4 Cu1A 1_555 1_555
O8 C13 1_555 1_555
O10 Cu2A 1_555 1_555
C1 C5 1_555 1_555
C5 C6 1_555 1_555

#END
