
#######################################################################
#
#                 Cambridge Crystallographic Data Centre
#                                CCDC 
#
#######################################################################
#
# If this CIF has been generated from an entry in the Cambridge 
# Structural Database, then it will include bibliographic, chemical, 
# crystal, experimental, refinement or atomic coordinate data resulting 
# from the CCDC's data processing and validation procedures.
#
#######################################################################

data_MIDXED
_symmetry_cell_setting           monoclinic
_symmetry_space_group_name_H-M   'P 21/c'
_symmetry_Int_Tables_number      14
_space_group_name_Hall           '-P 2ybc'
loop_
_symmetry_equiv_pos_site_id
_symmetry_equiv_pos_as_xyz
1 x,y,z
2 -x,1/2+y,1/2-z
3 -x,-y,-z
4 x,1/2-y,1/2+z
_cell_length_a                   11.8846(16)
_cell_length_b                   12.2138(18)
_cell_length_c                   45.809(4)
_cell_angle_alpha                90
_cell_angle_beta                 95.960(7)
_cell_angle_gamma                90
_cell_volume                     6613.51
loop_
_atom_site_label
_atom_site_type_symbol
_atom_site_fract_x
_atom_site_fract_y
_atom_site_fract_z
Ir1 Ir 0.79775(6) 0.30031(6) 0.079791(15)
O1 O 0.6445(11) 0.3844(11) 0.1363(3)
O2 O 0.6139(14) 0.2505(15) 0.0226(4)
C1 C 0.6473(14) 0.3545(16) 0.1103(4)
C2 C 0.6561(14) 0.2387(16) 0.1028(4)
H1 H 0.6734 0.1858 0.1172
C3 C 0.6363(16) 0.2095(18) 0.0716(5)
H2 H 0.6286 0.1357 0.0668
C4 C 0.6284(13) 0.284(2) 0.0486(4)
C5 C 0.6580(16) 0.3945(19) 0.0561(4)
H3 H 0.6695 0.4441 0.0413
C6 C 0.6704(14) 0.4301(16) 0.0861(4)
H4 H 0.6933 0.5015 0.0905
C7 C 0.9370(19) 0.190(2) 0.0884(5)
C8 C 0.9397(16) 0.2284(18) 0.0587(5)
C9 C 0.9558(16) 0.3387(17) 0.0597(4)
C10 C 0.9686(14) 0.3747(18) 0.0911(5)
C11 C 0.9541(15) 0.275(2) 0.1074(5)
C12 C 0.928(2) 0.0731(18) 0.0982(6)
H5 H 1.0013 0.0479 0.1064
H6 H 0.9020 0.0281 0.0817
H7 H 0.8760 0.0686 0.1128
C13 C 0.921(2) 0.163(2) 0.0323(5)
H8 H 0.8715 0.2008 0.0179
H9 H 0.8876 0.0939 0.0368
H10 H 0.9922 0.1494 0.0246
C14 C 0.9630(17) 0.4169(17) 0.0342(5)
H11 H 1.0351 0.4089 0.0267
H12 H 0.9546 0.4908 0.0407
H13 H 0.9038 0.4004 0.0189
C15 C 0.9893(17) 0.482(2) 0.1028(5)
H14 H 0.9421 0.4947 0.1183
H15 H 0.9725 0.5354 0.0876
H16 H 1.0673 0.4883 0.1105
C16 C 0.968(2) 0.269(2) 0.1414(5)
H17 H 0.9392 0.2006 0.1475
H18 H 0.9273 0.3282 0.1492
H19 H 1.0469 0.2750 0.1484
Ir2 Ir 0.69804(6) 0.60135(6) 0.245509(15)
O3 O 0.5495(13) 0.5035(13) 0.1848(3)
O4 O 0.5259(17) 0.7815(14) 0.2791(4)
C17 C 0.5511(15) 0.5694(15) 0.2068(3)
C18 C 0.5959(16) 0.6778(17) 0.2083(4)
H20 H 0.6278 0.7042 0.1919
C19 C 0.5954(18) 0.7498(16) 0.2334(4)
H21 H 0.6282 0.8190 0.2332
C20 C 0.541(2) 0.711(2) 0.2594(5)
C21 C 0.5280(17) 0.5962(16) 0.2610(4)
H22 H 0.5185 0.5642 0.2790
C22 C 0.5286(15) 0.5277(17) 0.2355(4)
H23 H 0.5141 0.4533 0.2374
C23 C 0.878(2) 0.624(3) 0.2396(6)
C24 C 0.857(2) 0.648(3) 0.2683(5)
C25 C 0.819(2) 0.558(3) 0.2832(7)
C26 C 0.810(2) 0.470(4) 0.2646(9)
C27 C 0.845(2) 0.512(3) 0.2340(5)
C28 C 0.918(3) 0.701(3) 0.2180(8)
H24 H 0.8549 0.7246 0.2048
H25 H 0.9722 0.6648 0.2071
H26 H 0.9529 0.7630 0.2281
C29 C 0.877(3) 0.759(3) 0.2820(6)
H27 H 0.9520 0.7839 0.2790
H28 H 0.8704 0.7546 0.3026
H29 H 0.8224 0.8098 0.2730
C30 C 0.800(3) 0.546(3) 0.3149(5)
H30 H 0.8708 0.5517 0.3268
H31 H 0.7658 0.4767 0.3180
H32 H 0.7504 0.6038 0.3201
C31 C 0.765(3) 0.355(3) 0.2693(9)
H33 H 0.8140 0.3175 0.2840
H34 H 0.7609 0.3142 0.2512
H35 H 0.6903 0.3595 0.2756
C32 C 0.842(3) 0.425(4) 0.2119(10)
H36 H 0.8967 0.3701 0.2183
H37 H 0.8600 0.4555 0.1936
H38 H 0.7680 0.3932 0.2093
Ir3 Ir 0.35909(6) 0.76321(6) 0.076893(16)
O5 O 0.4498(11) 0.5582(13) 0.1239(3)
O6 O 0.2842(14) 0.6456(13) 0.0116(3)
C33 C 0.4107(15) 0.5873(15) 0.0986(4)
C34 C 0.4836(19) 0.6271(16) 0.0774(4)
H39 H 0.5593 0.6413 0.0835
C35 C 0.4430(18) 0.6448(16) 0.0478(5)
H40 H 0.4931 0.6613 0.0341
C36 C 0.323(2) 0.6373(18) 0.0389(5)
C37 C 0.250(2) 0.6205(17) 0.0618(5)
H41 H 0.1722 0.6188 0.0572
C38 C 0.2946(18) 0.6075(15) 0.0898(4)
H42 H 0.2458 0.6120 0.1044
C39 C 0.270(2) 0.8897(17) 0.0986(5)
C40 C 0.2764(18) 0.9189(19) 0.0697(5)
C41 C 0.390(2) 0.9346(16) 0.0663(5)
C42 C 0.4566(18) 0.9120(15) 0.0930(5)
C43 C 0.3828(18) 0.8825(19) 0.1128(5)
C44 C 0.1585(18) 0.868(2) 0.1100(6)
H43 H 0.1699 0.8217 0.1270
H44 H 0.1092 0.8314 0.0951
H45 H 0.1251 0.9356 0.1151
C45 C 0.169(2) 0.942(2) 0.0457(6)
H46 H 0.1429 1.0152 0.0479
H47 H 0.1098 0.8911 0.0487
H48 H 0.1918 0.9324 0.0264
C46 C 0.434(2) 0.972(2) 0.0390(6)
H49 H 0.3975 0.9317 0.0226
H50 H 0.5138 0.9606 0.0403
H51 H 0.4175 1.0488 0.0362
C47 C 0.581(2) 0.919(2) 0.0978(6)
H52 H 0.6055 0.9077 0.1182
H53 H 0.6055 0.9893 0.0918
H54 H 0.6136 0.8629 0.0865
C48 C 0.409(2) 0.854(2) 0.1445(4)
H55 H 0.4704 0.8031 0.1468
H56 H 0.3431 0.8214 0.1516
H57 H 0.4288 0.9192 0.1556
Cu1 Cu 0.6122(2) 0.5539(2) 0.14603(5)
Cu2 Cu 0.5257(7) 0.2980(7) 0.17120(17)
N1 N 0.7285(15) 0.6551(14) 0.1410(3)
C49 C 0.794(2) 0.7226(19) 0.1379(5)
C50 C 0.885(2) 0.8053(17) 0.1356(6)
H58 H 0.8628 0.8737 0.1436
H59 H 0.8961 0.8153 0.1153
H60 H 0.9536 0.7801 0.1462
S1 S 0.7121(6) 0.0403(6) 0.18206(14)
O7 O 0.666(3) -0.060(2) 0.1881(5)
O8 O 0.633(3) 0.124(2) 0.1790(6)
O9 O 0.776(2) 0.045(2) 0.1582(4)
C51 C 0.804(3) 0.060(3) 0.2159(11)
F1 F 0.754(3) 0.051(3) 0.2384(5)
F2 F 0.864(3) 0.150(2) 0.2140(8)
F3 F 0.888(2) -0.001(3) 0.2168(8)
O4A O 0.4741(17) 0.2815(14) 0.2209(4)
Cu2A Cu 0.4743(7) 0.7980(7) 0.32880(17)
S2 S 0.8283(7) 0.7444(7) 0.05056(16)
O10 O 0.7595(17) 0.671(2) 0.0635(5)
O11 O 0.815(3) 0.844(2) 0.0589(6)
O12 O 0.9443(17) 0.717(2) 0.0502(7)
C52 C 0.771(2) 0.735(3) 0.0120(8)
F4 F 0.826(2) 0.805(3) -0.0016(5)
F5 F 0.666(2) 0.764(2) 0.0075(5)
F6 F 0.779(3) 0.632(2) 0.0049(5)
S3 S 0.3067(8) 0.2107(8) 0.12072(17)
O13 O 0.416(2) 0.160(4) 0.1235(9)
O14 O 0.304(4) 0.286(3) 0.1372(8)
O15 O 0.2201(19) 0.1344(19) 0.1176(5)
C53 C 0.305(2) 0.276(3) 0.0870(7)
F7 F 0.3870(13) 0.3451(14) 0.0843(4)
F8 F 0.301(5) 0.213(3) 0.0665(6)
F9 F 0.220(2) 0.332(3) 0.0789(9)
N2 N 1.124(4) 0.662(5) 0.1669(9)
C54 C 1.194(4) 0.588(3) 0.1743(7)
C55 C 1.281(3) 0.494(3) 0.1814(8)
H61 H 1.2827 0.4744 0.2018
H62 H 1.3543 0.5173 0.1773
H63 H 1.2583 0.4309 0.1696
loop_
_geom_bond_atom_site_label_1
_geom_bond_atom_site_label_2
_geom_bond_site_symmetry_1
_geom_bond_site_symmetry_2
Ir1 C2 1_555 1_555
O1 C1 1_555 1_555
O2 C4 1_555 1_555
C1 C2 1_555 1_555
C2 H1 1_555 1_555
C3 Ir1 1_555 1_555
H2 C3 1_555 1_555
C4 C3 1_555 1_555
C5 Ir1 1_555 1_555
H3 C5 1_555 1_555
C6 Ir1 1_555 1_555
H4 C6 1_555 1_555
C7 Ir1 1_555 1_555
C8 Ir1 1_555 1_555
C9 Ir1 1_555 1_555
C10 Ir1 1_555 1_555
C11 Ir1 1_555 1_555
C12 C7 1_555 1_555
H5 C12 1_555 1_555
H6 C12 1_555 1_555
H7 C12 1_555 1_555
C13 C8 1_555 1_555
H8 C13 1_555 1_555
H9 C13 1_555 1_555
H10 C13 1_555 1_555
C14 C9 1_555 1_555
H11 C14 1_555 1_555
H12 C14 1_555 1_555
H13 C14 1_555 1_555
C15 C10 1_555 1_555
H14 C15 1_555 1_555
H15 C15 1_555 1_555
H16 C15 1_555 1_555
C16 C11 1_555 1_555
H17 C16 1_555 1_555
H18 C16 1_555 1_555
H19 C16 1_555 1_555
Ir2 C18 1_555 1_555
O3 C17 1_555 1_555
O4 C20 1_555 1_555
C17 C18 1_555 1_555
C18 H20 1_555 1_555
C19 Ir2 1_555 1_555
H21 C19 1_555 1_555
C20 C19 1_555 1_555
C21 Ir2 1_555 1_555
H22 C21 1_555 1_555
C22 Ir2 1_555 1_555
H23 C22 1_555 1_555
C23 Ir2 1_555 1_555
C24 Ir2 1_555 1_555
C25 Ir2 1_555 1_555
C26 Ir2 1_555 1_555
C27 Ir2 1_555 1_555
C28 C23 1_555 1_555
H24 C28 1_555 1_555
H25 C28 1_555 1_555
H26 C28 1_555 1_555
C29 C24 1_555 1_555
H27 C29 1_555 1_555
H28 C29 1_555 1_555
H29 C29 1_555 1_555
C30 C25 1_555 1_555
H30 C30 1_555 1_555
H31 C30 1_555 1_555
H32 C30 1_555 1_555
C31 C26 1_555 1_555
H33 C31 1_555 1_555
H34 C31 1_555 1_555
H35 C31 1_555 1_555
C32 C27 1_555 1_555
H36 C32 1_555 1_555
H37 C32 1_555 1_555
H38 C32 1_555 1_555
Ir3 C34 1_555 1_555
O5 C33 1_555 1_555
O6 C36 1_555 1_555
C33 C34 1_555 1_555
C34 H39 1_555 1_555
C35 Ir3 1_555 1_555
H40 C35 1_555 1_555
C36 C35 1_555 1_555
C37 Ir3 1_555 1_555
H41 C37 1_555 1_555
C38 Ir3 1_555 1_555
H42 C38 1_555 1_555
C39 Ir3 1_555 1_555
C40 Ir3 1_555 1_555
C41 Ir3 1_555 1_555
C42 Ir3 1_555 1_555
C43 Ir3 1_555 1_555
C44 C39 1_555 1_555
H43 C44 1_555 1_555
H44 C44 1_555 1_555
H45 C44 1_555 1_555
C45 C40 1_555 1_555
H46 C45 1_555 1_555
H47 C45 1_555 1_555
H48 C45 1_555 1_555
C46 C41 1_555 1_555
H49 C46 1_555 1_555
H50 C46 1_555 1_555
H51 C46 1_555 1_555
C47 C42 1_555 1_555
H52 C47 1_555 1_555
H53 C47 1_555 1_555
H54 C47 1_555 1_555
C48 C43 1_555 1_555
H55 C48 1_555 1_555
H56 C48 1_555 1_555
H57 C48 1_555 1_555
Cu1 O1 1_555 1_555
Cu2 O1 1_555 1_555
N1 Cu1 1_555 1_555
C49 N1 1_555 1_555
C50 C49 1_555 1_555
H58 C50 1_555 1_555
H59 C50 1_555 1_555
H60 C50 1_555 1_555
S1 O7 1_555 1_555
O8 Cu2 1_555 1_555
O9 S1 1_555 1_555
C51 S1 1_555 1_555
F1 C51 1_555 1_555
F2 C51 1_555 1_555
F3 C51 1_555 1_555
S2 O10 1_555 1_555
O11 S2 1_555 1_555
O12 S2 1_555 1_555
C52 S2 1_555 1_555
F4 C52 1_555 1_555
F5 C52 1_555 1_555
F6 C52 1_555 1_555
S3 O13 1_555 1_555
O14 S3 1_555 1_555
O15 S3 1_555 1_555
C53 S3 1_555 1_555
F7 C53 1_555 1_555
F8 C53 1_555 1_555
F9 C53 1_555 1_555
N2 C54 1_555 1_555
C54 C55 1_555 1_555
C55 H61 1_555 1_555
H62 C55 1_555 1_555
H63 C55 1_555 1_555
O4A Cu2 1_555 1_555
Cu2A O4 1_555 1_555
C1 C6 1_555 1_555
C2 C3 1_555 1_555
C4 C5 1_555 1_555
C5 C6 1_555 1_555
C7 C8 1_555 1_555
C7 C11 1_555 1_555
C8 C9 1_555 1_555
C9 C10 1_555 1_555
C10 C11 1_555 1_555
O3 Cu1 1_555 1_555
O3 Cu2 1_555 1_555
C17 C22 1_555 1_555
C18 C19 1_555 1_555
C20 C21 1_555 1_555
C21 C22 1_555 1_555
C23 C24 1_555 1_555
C23 C27 1_555 1_555
C24 C25 1_555 1_555
C25 C26 1_555 1_555
C26 C27 1_555 1_555
O5 Cu1 1_555 1_555
C33 C38 1_555 1_555
C34 C35 1_555 1_555
C36 C37 1_555 1_555
C37 C38 1_555 1_555
C39 C40 1_555 1_555
C39 C43 1_555 1_555
C40 C41 1_555 1_555
C41 C42 1_555 1_555
C42 C43 1_555 1_555
S1 O8 1_555 1_555

#END
