
#######################################################################
#
#                 Cambridge Crystallographic Data Centre
#                                CCDC 
#
#######################################################################
#
# If this CIF has been generated from an entry in the Cambridge 
# Structural Database, then it will include bibliographic, chemical, 
# crystal, experimental, refinement or atomic coordinate data resulting 
# from the CCDC's data processing and validation procedures.
#
#######################################################################

data_MIDXAZ
_symmetry_cell_setting           triclinic
_symmetry_space_group_name_H-M   'P -1'
_symmetry_Int_Tables_number      2
_space_group_name_Hall           '-P 1'
loop_
_symmetry_equiv_pos_site_id
_symmetry_equiv_pos_as_xyz
1 x,y,z
2 -x,-y,-z
_cell_length_a                   8.1689(3)
_cell_length_b                   11.0554(6)
_cell_length_c                   13.7066(8)
_cell_angle_alpha                97.128(5)
_cell_angle_beta                 105.760(5)
_cell_angle_gamma                105.525(4)
_cell_volume                     1121.7
loop_
_atom_site_label
_atom_site_type_symbol
_atom_site_fract_x
_atom_site_fract_y
_atom_site_fract_z
Ag1 Ag 0.0125(1) 0.83724(7) 0.48308(7)
Ir1 Ir 0.46062(3) 0.85125(2) 0.242041(19)
C1 C 0.240(1) 0.8046(8) 0.3419(6)
C2 C 0.350(1) 0.7205(7) 0.3341(6)
C3 C 0.5379(11) 0.7662(8) 0.3745(6)
C4 C 0.637(1) 0.8994(7) 0.4198(6)
C5 C 0.535(1) 0.9826(8) 0.3898(6)
C6 C 0.344(1) 0.9368(7) 0.3485(6)
C7 C 0.3429(12) 0.8750(9) 0.0867(6)
C8 C 0.5146(12) 0.9690(8) 0.1337(6)
C9 C 0.6456(11) 0.9034(9) 0.1555(6)
C10 C 0.5505(13) 0.7685(8) 0.1221(6)
C11 C 0.3656(13) 0.7527(9) 0.0781(6)
C12 C 0.1677(16) 0.9040(15) 0.0484(9)
C13 C 0.5598(15) 1.114(1) 0.1525(8)
C14 C 0.8446(13) 0.9634(12) 0.206(1)
C15 C 0.639(2) 0.6629(11) 0.1229(12)
C16 C 0.220(2) 0.6262(13) 0.030(1)
C18 C 0.1211(13) 0.625(1) 0.6180(9)
C19 C 0.159(2) 0.5370(13) 0.6851(14)
N1 N 0.0915(14) 0.6946(11) 0.5665(9)
O1 O 0.0763(8) 0.7659(6) 0.3257(6)
O2 O 0.8069(7) 0.9411(6) 0.4645(5)
H1 H 0.2891 0.6275 0.2980
H2 H 0.6070 0.7035 0.3728
H3 H 0.5982 1.0756 0.3977
H4 H 0.2798 0.9986 0.3240
H5 H 0.0648 0.8217 0.0186
H6 H 0.1709 0.9556 -0.0068
H7 H 0.1451 0.9545 0.1071
H8 H 0.6913 1.1561 0.1868
H9 H 0.5225 1.1415 0.0846
H10 H 0.4939 1.1440 0.1981
H11 H 0.9071 0.8958 0.2123
H12 H 0.8984 1.0239 0.1660
H13 H 0.8723 1.0140 0.2790
H14 H 0.5455 0.5765 0.0975
H15 H 0.7188 0.6742 0.0795
H16 H 0.7132 0.6684 0.1971
H17 H 0.2721 0.5519 0.0351
H18 H 0.1588 0.6207 -0.0448
H19 H 0.1271 0.6120 0.0671
H20 H 0.1566 0.4563 0.6434
H21 H 0.0697 0.5198 0.7225
H22 H 0.2829 0.5794 0.7374
Ag1_2 Ag 1.0125(1) 0.83724(7) 0.48308(7)
Ag1A Ag 0.9875(1) 1.16276(7) 0.51692(7)
O2_2 O -0.1931(7) 0.9411(6) 0.4645(5)
O2A O 0.1931(7) 1.0589(6) 0.5355(5)
C17 C 0.671(2) 0.6787(16) 0.6563(16)
S1 S 0.7506(4) 0.6650(3) 0.7848(3)
O3 O 0.8900(19) 0.6141(13) 0.7888(11)
O4 O 0.802(2) 0.7965(17) 0.8381(14)
O5 O 0.606(3) 0.581(2) 0.7975(18)
F1 F 0.793(2) 0.7741(17) 0.6336(14)
F2 F 0.668(3) 0.5912(19) 0.5871(15)
F3 F 0.5309(14) 0.722(1) 0.6361(8)
loop_
_geom_bond_atom_site_label_1
_geom_bond_atom_site_label_2
_geom_bond_site_symmetry_1
_geom_bond_site_symmetry_2
Ag1 N1 1_555 1_555
Ir1 C2 1_555 1_555
C1 C2 1_555 1_555
C2 C3 1_555 1_555
C3 Ir1 1_555 1_555
C4 C3 1_555 1_555
C5 Ir1 1_555 1_555
C6 Ir1 1_555 1_555
C7 Ir1 1_555 1_555
C8 Ir1 1_555 1_555
C9 Ir1 1_555 1_555
C10 Ir1 1_555 1_555
C11 Ir1 1_555 1_555
C12 C7 1_555 1_555
C13 C8 1_555 1_555
C14 C9 1_555 1_555
C15 C10 1_555 1_555
C16 C11 1_555 1_555
C17 S1 1_555 1_555
C18 C19 1_555 1_555
C19 H20 1_555 1_555
N1 C18 1_555 1_555
O1 Ag1 1_555 1_555
O2 C4 1_555 1_555
S1 O3 1_555 1_555
O4 S1 1_555 1_555
O5 S1 1_555 1_555
F1 C17 1_555 1_555
F2 C17 1_555 1_555
F3 C17 1_555 1_555
H1 C2 1_555 1_555
H2 C3 1_555 1_555
H3 C5 1_555 1_555
H4 C6 1_555 1_555
H5 C12 1_555 1_555
H6 C12 1_555 1_555
H7 C12 1_555 1_555
H8 C13 1_555 1_555
H9 C13 1_555 1_555
H10 C13 1_555 1_555
H11 C14 1_555 1_555
H12 C14 1_555 1_555
H13 C14 1_555 1_555
H14 C15 1_555 1_555
H15 C15 1_555 1_555
H16 C15 1_555 1_555
H17 C16 1_555 1_555
H18 C16 1_555 1_555
H19 C16 1_555 1_555
H21 C19 1_555 1_555
H22 C19 1_555 1_555
Ag1_2 O2 1_555 1_555
Ag1A O2 1_555 1_555
O2_2 Ag1 1_555 1_555
O2A Ag1 1_555 1_555
C1 C6 1_555 1_555
C1 O1 1_555 1_555
C4 C5 1_555 1_555
C5 C6 1_555 1_555
C7 C8 1_555 1_555
C7 C11 1_555 1_555
C8 C9 1_555 1_555
C9 C10 1_555 1_555
C10 C11 1_555 1_555

#END
