
#######################################################################
#
#                 Cambridge Crystallographic Data Centre
#                                CCDC 
#
#######################################################################
#
# If this CIF has been generated from an entry in the Cambridge 
# Structural Database, then it will include bibliographic, chemical, 
# crystal, experimental, refinement or atomic coordinate data resulting 
# from the CCDC's data processing and validation procedures.
#
#######################################################################

data_MIDZOP
_symmetry_cell_setting           monoclinic
_symmetry_space_group_name_H-M   'C 2/c'
_symmetry_Int_Tables_number      15
_space_group_name_Hall           '-C 2yn'
loop_
_symmetry_equiv_pos_site_id
_symmetry_equiv_pos_as_xyz
1 x,y,z
2 1/2+x,1/2+y,z
3 -x,y,1/2-z
4 1/2-x,1/2+y,1/2-z
5 -x,-y,-z
6 1/2-x,1/2-y,-z
7 x,-y,1/2+z
8 1/2+x,1/2-y,1/2+z
_cell_length_a                   20.908
_cell_length_b                   12.020
_cell_length_c                   15.279
_cell_angle_alpha                90
_cell_angle_beta                 122.28
_cell_angle_gamma                90
_cell_volume                     3246.38
loop_
_atom_site_label
_atom_site_type_symbol
_atom_site_fract_x
_atom_site_fract_y
_atom_site_fract_z
Ag1 Ag 0.5000 0.12357(3) 1.2500
C1 C 0.32451(18) 0.1198(3) 1.1036(2)
N1 N 0.39201(14) 0.0923(2) 1.1103(2)
N2 N 0.29527(13) 0.0432(2) 0.9550(2)
C2 C 0.2193(2) -0.1148(3) 0.8460(3)
C3 C 0.1886(2) 0.1059(3) 0.9768(3)
H1 H 0.1484 0.0836 0.9123
C4 C 0.37215(16) 0.0475(3) 1.0202(2)
C5 C 0.26369(17) 0.0890(3) 1.0068(2)
C6 C 0.4621(2) 0.1078(3) 0.9692(4)
H2 H 0.4913 0.1512 1.0321
H3 H 0.4228 0.1553 0.9167
C7 C 0.24910(19) -0.0006(3) 0.8489(2)
H4 H 0.2795 -0.0029 0.8183
H5 H 0.2069 0.0493 0.8077
C8 C 0.42599(17) 0.0095(3) 0.9896(3)
H6 H 0.3962 -0.0313 0.9243
C9 C 0.1775(2) 0.1571(3) 1.0475(3)
H7 H 0.1283 0.1705 1.0304
C10 C 0.3117(2) 0.1717(3) 1.1750(3)
H8 H 0.3516 0.1930 1.2401
C11 C 0.1422(3) -0.1335(4) 0.7933(5)
H9 H 0.1085 -0.0745 0.7630
C12 C 0.2377(2) 0.1897(3) 1.1444(3)
H10 H 0.2275 0.2248 1.1899
C13 C 0.4864(2) -0.0689(3) 1.0670(3)
H11 H 0.4626 -0.1329 1.0766
H12 H 0.5165 -0.0314 1.1331
C14 C 0.2670(3) -0.2044(4) 0.8913(3)
H13 H 0.3191 -0.1937 0.9286
C15 C 0.2380(4) -0.3108(4) 0.8817(4)
H14 H 0.2713 -0.3701 0.9125
C16 C 0.1657(5) -0.3298(6) 0.8310(5)
H15 H 0.1477 -0.4020 0.8247
C17 C 0.1153(4) -0.2413(7) 0.7861(6)
H16 H 0.0635 -0.2542 0.7512
N3 N 0.5000 0.3704(7) 1.2500
O1 O 0.5238(3) 0.3231(5) 1.2017(5)
O2 O 0.5000 0.4744(7) 1.2500
Ag1F Ag 0.5000 -0.12357(3) 0.7500
C1D C 0.67549(18) -0.1198(3) 0.8964(2)
N1D N 0.60799(14) -0.0923(2) 0.8897(2)
N1B N 0.60799(14) 0.0923(2) 1.3897(2)
N2D N 0.70473(13) -0.0432(2) 1.0450(2)
C2D C 0.7807(2) 0.1148(3) 1.1540(3)
C3D C 0.8114(2) -0.1059(3) 1.0232(3)
H1D H 0.8516 -0.0836 1.0877
C4D C 0.62785(16) -0.0475(3) 0.9798(2)
C5D C 0.73631(17) -0.0890(3) 0.9932(2)
C6D C 0.5379(2) -0.1078(3) 1.0308(4)
H2D H 0.5087 -0.1512 0.9679
H3D H 0.5772 -0.1553 1.0833
C7D C 0.75090(19) 0.0006(3) 1.1511(2)
H4D H 0.7205 0.0029 1.1817
H5D H 0.7931 -0.0493 1.1923
C8D C 0.57401(17) -0.0095(3) 1.0104(3)
H6D H 0.6038 0.0313 1.0757
C9D C 0.8225(2) -0.1571(3) 0.9525(3)
H7D H 0.8717 -0.1705 0.9696
C10D C 0.6883(2) -0.1717(3) 0.8250(3)
H8D H 0.6484 -0.1930 0.7599
C11D C 0.8578(3) 0.1335(4) 1.2067(5)
H9D H 0.8915 0.0745 1.2370
C12D C 0.7623(2) -0.1897(3) 0.8556(3)
H10D H 0.7725 -0.2248 0.8101
C13D C 0.5136(2) 0.0689(3) 0.9330(3)
H11D H 0.5374 0.1329 0.9234
H12D H 0.4835 0.0314 0.8669
C14D C 0.7330(3) 0.2044(4) 1.1087(3)
H13D H 0.6809 0.1937 1.0714
C15D C 0.7620(4) 0.3108(4) 1.1183(4)
H14D H 0.7287 0.3701 1.0875
C16D C 0.8343(5) 0.3298(6) 1.1690(5)
H15D H 0.8523 0.4020 1.1753
C17D C 0.8847(4) 0.2413(7) 1.2139(6)
H16D H 0.9365 0.2542 1.2488
O1B O 0.4762(3) 0.3231(5) 1.2983(5)
O3 O 0.5000 0.5000 1.0000
O4? O 0.5459(15) 0.398(2) 1.022(2)
loop_
_geom_bond_atom_site_label_1
_geom_bond_atom_site_label_2
_geom_bond_site_symmetry_1
_geom_bond_site_symmetry_2
Ag1 N1 1_555 1_555
C1 N1 1_555 1_555
N1 C4 1_555 1_555
N2 C4 1_555 1_555
C2 C7 1_555 1_555
C3 H1 1_555 1_555
C4 C8 1_555 1_555
C5 C1 1_555 1_555
C6 H2 1_555 1_555
H3 C6 1_555 1_555
C7 N2 1_555 1_555
H4 C7 1_555 1_555
H5 C7 1_555 1_555
C8 C6 1_555 1_555
H6 C8 1_555 1_555
C9 C3 1_555 1_555
H7 C9 1_555 1_555
C10 C1 1_555 1_555
H8 C10 1_555 1_555
C11 C2 1_555 1_555
H9 C11 1_555 1_555
C12 C9 1_555 1_555
H10 C12 1_555 1_555
C13 C8 1_555 1_555
H11 C13 1_555 1_555
H12 C13 1_555 1_555
C14 C2 1_555 1_555
H13 C14 1_555 1_555
C15 C14 1_555 1_555
H14 C15 1_555 1_555
C16 C15 1_555 1_555
H15 C16 1_555 1_555
C17 C11 1_555 1_555
H16 C17 1_555 1_555
N3 O1 1_555 1_555
O1 Ag1 1_555 1_555
O2 N3 1_555 1_555
Ag1F N1D 1_555 1_555
C1D N1D 1_555 1_555
N1D C4D 1_555 1_555
N1B Ag1 1_555 1_555
N2D C4D 1_555 1_555
C2D C7D 1_555 1_555
C3D H1D 1_555 1_555
C4D C8D 1_555 1_555
C5D C1D 1_555 1_555
C6D C13 1_555 1_555
H2D C6D 1_555 1_555
H3D C6D 1_555 1_555
C7D N2D 1_555 1_555
H4D C7D 1_555 1_555
H5D C7D 1_555 1_555
C8D C6D 1_555 1_555
H6D C8D 1_555 1_555
C9D C3D 1_555 1_555
H7D C9D 1_555 1_555
C10D C1D 1_555 1_555
H8D C10D 1_555 1_555
C11D C2D 1_555 1_555
H9D C11D 1_555 1_555
C12D C9D 1_555 1_555
H10D C12D 1_555 1_555
C13D C6 1_555 1_555
H11D C13D 1_555 1_555
H12D C13D 1_555 1_555
C14D C2D 1_555 1_555
H13D C14D 1_555 1_555
C15D C14D 1_555 1_555
H14D C15D 1_555 1_555
C16D C15D 1_555 1_555
H15D C16D 1_555 1_555
C17D C11D 1_555 1_555
H16D C17D 1_555 1_555
O1B Ag1 1_555 1_555
N2 C5 1_555 1_555
C3 C5 1_555 1_555
C10 C12 1_555 1_555
C16 C17 1_555 1_555
N3 O1B 1_555 1_555
N2D C5D 1_555 1_555
C3D C5D 1_555 1_555
C8D C13D 1_555 1_555
C10D C12D 1_555 1_555
C16D C17D 1_555 1_555

#END
