
#######################################################################
#
#                 Cambridge Crystallographic Data Centre
#                                CCDC 
#
#######################################################################
#
# If this CIF has been generated from an entry in the Cambridge 
# Structural Database, then it will include bibliographic, chemical, 
# crystal, experimental, refinement or atomic coordinate data resulting 
# from the CCDC's data processing and validation procedures.
#
#######################################################################

data_MIDZIJ
_symmetry_cell_setting           monoclinic
_symmetry_space_group_name_H-M   'C 2/c'
_symmetry_Int_Tables_number      15
_space_group_name_Hall           '-C 2yn'
loop_
_symmetry_equiv_pos_site_id
_symmetry_equiv_pos_as_xyz
1 x,y,z
2 1/2+x,1/2+y,z
3 -x,y,1/2-z
4 1/2-x,1/2+y,1/2-z
5 -x,-y,-z
6 1/2-x,1/2-y,-z
7 x,-y,1/2+z
8 1/2+x,1/2-y,1/2+z
_cell_length_a                   15.783
_cell_length_b                   13.793
_cell_length_c                   16.890
_cell_angle_alpha                90
_cell_angle_beta                 117.59
_cell_angle_gamma                90
_cell_volume                     3258.75
loop_
_atom_site_label
_atom_site_type_symbol
_atom_site_fract_x
_atom_site_fract_y
_atom_site_fract_z
Hg1 Hg 0.0000 0.96962(4) 0.2500
Br1 Br 0.14937(9) 1.05087(10) 0.26607(8)
C1 C 0.0845(7) 1.0158(6) 0.4879(7)
H1 H 0.1534 1.0159 0.5113
H2 H 0.0564 1.0362 0.4259
N1 N 0.0767(5) 0.8555(6) 0.3649(5)
N2 N 0.1150(6) 0.7523(6) 0.4778(5)
C2 C 0.0800(6) 0.8416(7) 0.4443(6)
C3 C 0.0571(6) 1.0879(6) 0.5404(6)
H3 H 0.0771 1.1525 0.5336
H4 H 0.0897 1.0713 0.6034
C4 C 0.0511(6) 0.9131(7) 0.4926(5)
H5 H 0.0817 0.8940 0.5557
C5 C 0.1096(7) 0.7701(7) 0.3446(7)
C6 C 0.0301(8) 0.6870(7) 0.5570(7)
C7 C 0.1341(7) 0.7054(7) 0.4147(7)
C8 C -0.0380(10) 0.6341(9) 0.4889(8)
H6 H -0.0240 0.6077 0.4457
C9 C 0.0072(9) 0.7227(10) 0.6216(8)
H7 H 0.0524 0.7575 0.6699
C10 C 0.1252(7) 0.7110(8) 0.5617(7)
H8 H 0.1584 0.7570 0.6097
H9 H 0.1636 0.6526 0.5754
C11 C 0.1246(7) 0.7444(9) 0.2740(7)
H10 H 0.1108 0.7873 0.2270
C12 C -0.1245(12) 0.6194(12) 0.4831(11)
H11 H -0.1701 0.5838 0.4359
C13 C 0.1689(9) 0.6122(9) 0.4148(9)
H12 H 0.1853 0.5686 0.4616
C14 C 0.1596(8) 0.6560(9) 0.2740(8)
H13 H 0.1726 0.6398 0.2273
C15 C 0.1768(10) 0.5906(9) 0.3365(10)
H14 H 0.1947 0.5284 0.3290
C16 C -0.0801(14) 0.7071(13) 0.6147(12)
H15 H -0.0951 0.7316 0.6579
C17 C -0.1455(12) 0.6563(13) 0.5457(12)
H16 H -0.2059 0.6466 0.5411
Hg1F Hg 0.0000 1.03038(4) 0.7500
Br1B Br -0.14937(9) 1.05087(10) 0.23393(8)
C1D C -0.0845(7) 0.9842(6) 0.5121(7)
H1D H -0.1534 0.9841 0.4887
H2D H -0.0564 0.9638 0.5741
N1D N -0.0767(5) 1.1445(6) 0.6351(5)
N1B N -0.0767(5) 0.8555(6) 0.1351(5)
N2D N -0.1150(6) 1.2477(6) 0.5222(5)
C2D C -0.0800(6) 1.1584(7) 0.5557(6)
C3D C -0.0571(6) 0.9121(6) 0.4596(6)
H3D H -0.0771 0.8475 0.4664
H4D H -0.0897 0.9287 0.3966
C4D C -0.0511(6) 1.0869(7) 0.5074(5)
H5D H -0.0817 1.1060 0.4443
C5D C -0.1096(7) 1.2299(7) 0.6554(7)
C6D C -0.0301(8) 1.3130(7) 0.4430(7)
C7D C -0.1341(7) 1.2946(7) 0.5853(7)
C8D C 0.0380(10) 1.3659(9) 0.5111(8)
H6D H 0.0240 1.3923 0.5543
C9D C -0.0072(9) 1.2773(10) 0.3784(8)
H7D H -0.0524 1.2425 0.3301
C10D C -0.1252(7) 1.2890(8) 0.4383(7)
H8D H -0.1584 1.2430 0.3903
H9D H -0.1636 1.3474 0.4246
C11D C -0.1246(7) 1.2556(9) 0.7260(7)
H10D H -0.1108 1.2127 0.7730
C12D C 0.1245(12) 1.3806(12) 0.5169(11)
H11D H 0.1701 1.4162 0.5641
C13D C -0.1689(9) 1.3878(9) 0.5852(9)
H12D H -0.1853 1.4314 0.5384
C14D C -0.1596(8) 1.3440(9) 0.7260(8)
H13D H -0.1726 1.3602 0.7727
C15D C -0.1768(10) 1.4094(9) 0.6635(10)
H14D H -0.1947 1.4716 0.6710
C16D C 0.0801(14) 1.2929(13) 0.3853(12)
H15D H 0.0951 1.2684 0.3421
C17D C 0.1455(12) 1.3437(13) 0.4543(12)
H16D H 0.2059 1.3534 0.4589
loop_
_geom_bond_atom_site_label_1
_geom_bond_atom_site_label_2
_geom_bond_site_symmetry_1
_geom_bond_site_symmetry_2
Hg1 Br1 1_555 1_555
C1 H1 1_555 1_555
H2 C1 1_555 1_555
N1 Hg1 1_555 1_555
N2 C2 1_555 1_555
C2 N1 1_555 1_555
C3 C1 1_555 1_555
H3 C3 1_555 1_555
H4 C3 1_555 1_555
C4 C1 1_555 1_555
H5 C4 1_555 1_555
C5 N1 1_555 1_555
C6 C8 1_555 1_555
C7 N2 1_555 1_555
C8 H6 1_555 1_555
C9 C6 1_555 1_555
H7 C9 1_555 1_555
C10 N2 1_555 1_555
H8 C10 1_555 1_555
H9 C10 1_555 1_555
C11 C5 1_555 1_555
H10 C11 1_555 1_555
C12 C8 1_555 1_555
H11 C12 1_555 1_555
C13 C7 1_555 1_555
H12 C13 1_555 1_555
C14 C11 1_555 1_555
H13 C14 1_555 1_555
C15 C13 1_555 1_555
H14 C15 1_555 1_555
C16 C9 1_555 1_555
H15 C16 1_555 1_555
C17 C12 1_555 1_555
H16 C17 1_555 1_555
Hg1F N1D 1_555 1_555
Br1B Hg1 1_555 1_555
C1D H1D 1_555 1_555
H2D C1D 1_555 1_555
N1D C2D 1_555 1_555
N1B Hg1 1_555 1_555
N2D C2D 1_555 1_555
C2D C4D 1_555 1_555
C3D C4 1_555 1_555
H3D C3D 1_555 1_555
H4D C3D 1_555 1_555
C4D C3 1_555 1_555
H5D C4D 1_555 1_555
C5D N1D 1_555 1_555
C6D C8D 1_555 1_555
C7D N2D 1_555 1_555
C8D H6D 1_555 1_555
C9D C6D 1_555 1_555
H7D C9D 1_555 1_555
C10D N2D 1_555 1_555
H8D C10D 1_555 1_555
H9D C10D 1_555 1_555
C11D C5D 1_555 1_555
H10D C11D 1_555 1_555
C12D C8D 1_555 1_555
H11D C12D 1_555 1_555
C13D C7D 1_555 1_555
H12D C13D 1_555 1_555
C14D C11D 1_555 1_555
H13D C14D 1_555 1_555
C15D C13D 1_555 1_555
H14D C15D 1_555 1_555
C16D C9D 1_555 1_555
H15D C16D 1_555 1_555
C17D C12D 1_555 1_555
H16D C17D 1_555 1_555
C2 C4 1_555 1_555
C5 C7 1_555 1_555
C6 C10 1_555 1_555
C14 C15 1_555 1_555
C16 C17 1_555 1_555
C1D C3D 1_555 1_555
C1D C4D 1_555 1_555
C5D C7D 1_555 1_555
C6D C10D 1_555 1_555
C14D C15D 1_555 1_555
C16D C17D 1_555 1_555

#END
