
#######################################################################
#
#                 Cambridge Crystallographic Data Centre
#                                CCDC 
#
#######################################################################
#
# If this CIF has been generated from an entry in the Cambridge 
# Structural Database, then it will include bibliographic, chemical, 
# crystal, experimental, refinement or atomic coordinate data resulting 
# from the CCDC's data processing and validation procedures.
#
#######################################################################

data_MIFCIN
_symmetry_cell_setting           monoclinic
_symmetry_space_group_name_H-M   'C 2/c'
_symmetry_Int_Tables_number      15
_space_group_name_Hall           '-C 2yn'
loop_
_symmetry_equiv_pos_site_id
_symmetry_equiv_pos_as_xyz
1 x,y,z
2 x,-y,1/2+z
3 1/2+x,1/2+y,z
4 1/2+x,1/2-y,1/2+z
5 -x,-y,-z
6 -x,y,1/2-z
7 1/2-x,1/2-y,-z
8 1/2-x,1/2+y,1/2-z
_cell_length_a                   9.885(10)
_cell_length_b                   12.06(1)
_cell_length_c                   12.505(8)
_cell_angle_alpha                90
_cell_angle_beta                 114.41(4)
_cell_angle_gamma                90
_cell_volume                     1357.5
loop_
_atom_site_label
_atom_site_type_symbol
_atom_site_fract_x
_atom_site_fract_y
_atom_site_fract_z
Ni1 Ni 0.2500 0.2500 0.0000
S1 S 0.6545(2) 0.3732(1) -0.0860(1)
O1 O 0.2202(5) 0.1255(3) -0.1239(3)
N1 N 0.4344(6) 0.3006(4) -0.0163(4)
N2 N 0.3946(6) 0.1376(3) 0.1515(4)
N3 N 0.5876(5) -0.0077(3) 0.2035(4)
C1 C 0.5263(7) 0.3325(4) -0.0426(5)
C2 C 0.5000 0.2066(6) 0.2500
C3 C 0.4840(7) 0.0638(4) 0.1086(5)
C4 C 0.3106(7) 0.0638(4) 0.1996(5)
C5 C 0.5000 -0.0782(6) 0.2500
H1 H 0.5364 0.1097 0.0758
H2 H 0.4167 0.0175 0.0452
H3 H 0.2909 0.1183 -0.1570
H4 H 0.1403 0.0761 -0.1437
N2E N 0.6054(6) 0.1376(3) 0.3485(4)
C3E C 0.5160(7) 0.0638(4) 0.3914(5)
N3E N 0.4124(5) -0.0077(3) 0.2965(4)
C4E C 0.6894(7) 0.0638(4) 0.3004(5)
H1E H 0.4636 0.1097 0.4242
H2E H 0.5833 0.0175 0.4548
O1F O 0.2798(5) 0.3745(3) 0.1239(3)
H3F H 0.2091 0.3817 0.1570
H4F H 0.3597 0.4239 0.1437
S1F S -0.1545(2) 0.1268(1) 0.0860(1)
N1F N 0.0656(6) 0.1994(4) 0.0163(4)
C1F C -0.0263(7) 0.1675(4) 0.0426(5)
N2F N 0.1054(6) 0.3624(3) -0.1515(4)
Ni1C Ni 0.7500 0.2500 0.5000
loop_
_geom_bond_atom_site_label_1
_geom_bond_atom_site_label_2
_geom_bond_site_symmetry_1
_geom_bond_site_symmetry_2
Ni1 O1 1_555 1_555
S1 C1 1_555 1_555
O1 H3 1_555 1_555
N1 Ni1 1_555 1_555
N2 Ni1 1_555 1_555
N3 C3 1_555 1_555
C1 N1 1_555 1_555
C2 N2 1_555 1_555
C3 N2 1_555 1_555
C4 N2 1_555 1_555
C5 N3 1_555 1_555
H1 C3 1_555 1_555
H2 C3 1_555 1_555
H4 O1 1_555 1_555
N2E C2 1_555 1_555
C3E N2E 1_555 1_555
N3E C4 1_555 1_555
C4E N3 1_555 1_555
H1E C3E 1_555 1_555
H2E C3E 1_555 1_555
O1F Ni1 1_555 1_555
H3F O1F 1_555 1_555
H4F O1F 1_555 1_555
S1F C1F 1_555 1_555
N1F Ni1 1_555 1_555
C1F N1F 1_555 1_555
N2F Ni1 1_555 1_555
Ni1C N2E 1_555 1_555
C5 N3E 1_555 1_555
N2E C4E 1_555 1_555
C3E N3E 1_555 1_555

#END
