
#######################################################################
#
#                 Cambridge Crystallographic Data Centre
#                                CCDC 
#
#######################################################################
#
# If this CIF has been generated from an entry in the Cambridge 
# Structural Database, then it will include bibliographic, chemical, 
# crystal, experimental, refinement or atomic coordinate data resulting 
# from the CCDC's data processing and validation procedures.
#
#######################################################################

data_MIFFAJ01
_symmetry_cell_setting           triclinic
_symmetry_space_group_name_H-M   'P -1'
_symmetry_Int_Tables_number      2
_space_group_name_Hall           '-P 1'
loop_
_symmetry_equiv_pos_site_id
_symmetry_equiv_pos_as_xyz
1 x,y,z
2 -x,-y,-z
_cell_length_a                   8.646(3)
_cell_length_b                   10.665(3)
_cell_length_c                   11.804(3)
_cell_angle_alpha                113.915(3)
_cell_angle_beta                 96.307(3)
_cell_angle_gamma                106.285(3)
_cell_volume                     923.567
loop_
_atom_site_label
_atom_site_type_symbol
_atom_site_fract_x
_atom_site_fract_y
_atom_site_fract_z
Zn1 Zn 0.5000 0.5000 0.5000
Zn2 Zn 0.23318(6) 0.53614(5) 0.33384(4)
Zn3 Zn 0.22931(6) 0.63639(5) 0.63471(4)
O1 O 0.2545(3) 0.4858(3) 0.4786(2)
O2 O 0.4649(3) 0.5325(3) 0.3351(3)
O3 O 0.9506(4) 1.3940(3) 1.2794(3)
O4 O 0.0760(4) 0.7048(3) 0.5332(3)
O5 O 0.2146(4) 0.7268(3) 0.3889(3)
O6 O 0.5898(4) 0.7305(3) 0.6200(3)
O7 O 1.1035(4) 1.4072(4) 1.1489(3)
O8 O 0.4112(4) 0.8245(3) 0.7139(3)
O9 O 0.6515(4) 0.4466(4) 0.2502(3)
C1 C 0.9644(5) 1.3514(5) 1.1658(4)
C2 C 0.4892(6) 0.5179(5) 0.1295(4)
H1 H 0.4089 0.5681 0.1453
C3 C 0.5402(5) 0.4959(5) 0.2450(4)
C4 C 0.8244(5) 1.2307(5) 1.0558(4)
H2 H 0.7192 1.2294 1.0799
C5 C 0.5549(6) 0.8300(5) 0.7018(4)
C6 C 0.6716(6) 1.1108(5) 0.8228(4)
H3 H 0.6674 1.1206 0.7444
H4 H 0.5663 1.1087 0.8447
C7 C 0.4060(6) 0.3693(5) 0.0104(4)
H5 H 0.4817 0.3156 -0.0022
H6 H 0.3068 0.3126 0.0236
C8 C 0.6973(5) 0.9683(5) 0.8016(4)
H7 H 0.8005 0.9694 0.7742
C9 C 0.6414(6) 0.6136(5) 0.1087(4)
H8 H 0.6883 0.7096 0.1827
H9 H 0.7258 0.5689 0.1000
C10 C 0.8139(6) 1.2424(5) 0.9309(4)
H10 H 0.9185 1.2467 0.9072
H11 H 0.7959 1.3323 0.9432
C11 C 0.1180(6) 0.7593(5) 0.4592(4)
C12 C 0.0494(7) 0.8716(6) 0.4494(6)
H12 H 0.0263 0.8499 0.3590
C13 C 0.8482(7) 1.0883(5) 1.0363(5)
H13 H 0.8460 1.0779 1.1141
H14 H 0.9566 1.0922 1.0200
C14 C 0.7133(7) 0.9544(5) 0.9245(5)
H15 H 0.6072 0.9418 0.9467
H16 H 0.7394 0.8674 0.9106
C15 C 0.1774(7) 1.0209(7) 0.5214(7)
H17 H 0.2750 1.0237 0.4876
H18 H 0.2105 1.0432 0.6107
C16 C -0.1133(7) 0.8624(6) 0.4875(7)
H19 H -0.0976 0.8752 0.5746
H20 H -0.1962 0.7657 0.4319
Zn1_2 Zn 0.5000 0.5000 -0.5000
Zn2A Zn 0.76682(6) 0.46386(5) 0.66616(4)
Zn2_2 Zn 1.23318(6) 1.53614(5) 1.33384(4)
Zn2A_2 Zn 0.76682(6) 0.46386(5) -0.33384(4)
Zn2A_3 Zn -0.23318(6) 1.46386(5) 0.66616(4)
Zn2A_4 Zn -0.23318(6) -0.53614(5) -0.33384(4)
Zn3A Zn 0.77069(6) 0.36361(5) 0.36529(4)
Zn3A_2 Zn 0.77069(6) 1.36361(5) 1.36529(4)
Zn3_2 Zn 0.22931(6) 0.63639(5) -0.36529(4)
Zn3A_3 Zn -0.22931(6) 1.36361(5) 0.36529(4)
Zn3_3 Zn 0.22931(6) -0.36361(5) -0.36529(4)
O1A O 0.7455(3) 0.5142(3) 0.5214(2)
O2A O 0.5351(3) 0.4675(3) -0.3351(3)
O2A_2 O 0.5351(3) 0.4675(3) 0.6649(3)
O3A O 0.0494(4) -0.3940(3) -0.2794(3)
O3_2 O -0.0494(4) 0.3940(3) 0.2794(3)
O3A_2 O 0.0494(4) 0.6060(3) 0.7206(3)
O3A_3 O 1.0494(4) 0.6060(3) 0.7206(3)
O3_3 O 0.9506(4) 0.3940(3) 0.2794(3)
O4A O -0.0760(4) 1.2952(3) 0.4668(3)
O4A_2 O 0.9240(4) 0.2952(3) 0.4668(3)
O5A O -0.2146(4) 1.2732(3) 0.6111(3)
O5A_2 O 0.7854(4) 0.2732(3) 0.6111(3)
O6A O 0.4102(4) 0.2695(3) 0.3800(3)
O7A O -0.1035(4) -0.4072(4) -0.1489(3)
O7_2 O 0.1035(4) 0.4072(4) 0.1489(3)
O7A_2 O 0.8965(4) 0.5928(4) 0.8511(3)
O8A O 0.5888(4) 0.1755(3) 0.2861(3)
O9A O 0.3485(4) 0.5534(4) -0.2502(3)
O9A_2 O 0.3485(4) 0.5534(4) 0.7498(3)
C1A C 0.0356(5) -0.3514(5) -0.1658(4)
C2A C 0.5108(6) 0.4821(5) -0.1295(4)
H1A H 0.5911 0.4319 -0.1453
C3A C 0.4598(5) 0.5041(5) -0.2450(4)
C4A C 0.1756(5) -0.2307(5) -0.0558(4)
H2A H 0.2808 -0.2294 -0.0799
C5A C 0.4451(6) 0.1700(5) 0.2982(4)
C6A C 0.3284(6) -0.1108(5) 0.1772(4)
H3A H 0.3326 -0.1206 0.2556
H4A H 0.4337 -0.1087 0.1553
C7A C 0.5940(6) 0.6307(5) -0.0104(4)
H5A H 0.5183 0.6844 0.0022
H6A H 0.6932 0.6874 -0.0236
C8A C 0.3027(5) 0.0317(5) 0.1984(4)
H7A H 0.1995 0.0306 0.2258
C9A C 0.3586(6) 0.3864(5) -0.1087(4)
H8A H 0.3117 0.2904 -0.1827
H9A H 0.2742 0.4311 -0.1000
C10A C 0.1861(6) -0.2424(5) 0.0691(4)
H10A H 0.0815 -0.2467 0.0928
H11A H 0.2041 -0.3323 0.0568
C11A C -0.1180(6) 1.2407(5) 0.5408(4)
C12A C -0.0494(7) 1.1284(6) 0.5506(6)
H12A H -0.0263 1.1501 0.6410
C13A C 0.1518(7) -0.0883(5) -0.0363(5)
H13A H 0.1540 -0.0779 -0.1141
H14A H 0.0434 -0.0922 -0.0200
C14A C 0.2867(7) 0.0456(5) 0.0755(5)
H15A H 0.3928 0.0582 0.0533
H16A H 0.2606 0.1326 0.0894
C15A C -0.1774(7) 0.9791(7) 0.4786(7)
H17A H -0.2750 0.9763 0.5124
H18A H -0.2105 0.9568 0.3893
C16A C 0.1133(7) 1.1376(6) 0.5125(7)
H19A H 0.0976 1.1248 0.4254
H20A H 0.1962 1.2343 0.5681
loop_
_geom_bond_atom_site_label_1
_geom_bond_atom_site_label_2
_geom_bond_site_symmetry_1
_geom_bond_site_symmetry_2
Zn1 O1 1_555 1_555
Zn2 O1 1_555 1_555
Zn3 O1 1_555 1_555
O2 Zn1 1_555 1_555
O3 C1 1_555 1_555
O4 Zn3 1_555 1_555
O5 Zn2 1_555 1_555
O6 Zn1 1_555 1_555
O7 C1 1_555 1_555
O8 Zn3 1_555 1_555
O9 C3 1_555 1_555
C1 C4 1_555 1_555
C2 H1 1_555 1_555
C3 O2 1_555 1_555
C4 H2 1_555 1_555
C5 O6 1_555 1_555
C6 H3 1_555 1_555
H4 C6 1_555 1_555
C7 C2 1_555 1_555
H5 C7 1_555 1_555
H6 C7 1_555 1_555
C8 C5 1_555 1_555
H7 C8 1_555 1_555
C9 C2 1_555 1_555
H8 C9 1_555 1_555
H9 C9 1_555 1_555
C10 C4 1_555 1_555
H10 C10 1_555 1_555
H11 C10 1_555 1_555
C11 O4 1_555 1_555
C12 C11 1_555 1_555
H12 C12 1_555 1_555
C13 C4 1_555 1_555
H13 C13 1_555 1_555
H14 C13 1_555 1_555
C14 C8 1_555 1_555
H15 C14 1_555 1_555
H16 C14 1_555 1_555
C15 C12 1_555 1_555
H17 C15 1_555 1_555
H18 C15 1_555 1_555
C16 C12 1_555 1_555
H19 C16 1_555 1_555
H20 C16 1_555 1_555
Zn1_2 O2A 1_555 1_555
Zn2A O1A 1_555 1_555
Zn2_2 O3 1_555 1_555
Zn2A_2 O2A 1_555 1_555
Zn2A_3 O5A 1_555 1_555
Zn2A_4 O3A 1_555 1_555
Zn3A O9 1_555 1_555
Zn3A_2 O3 1_555 1_555
Zn3_2 O9A 1_555 1_555
Zn3A_3 O4A 1_555 1_555
Zn3_3 O3A 1_555 1_555
O1A Zn1 1_555 1_555
O2A C3A 1_555 1_555
O2A_2 Zn1 1_555 1_555
O3A C1A 1_555 1_555
O3_2 Zn2 1_555 1_555
O3A_2 Zn3 1_555 1_555
O3A_3 Zn2A 1_555 1_555
O3_3 Zn3A 1_555 1_555
O4A C11A 1_555 1_555
O4A_2 Zn3A 1_555 1_555
O5A C11A 1_555 1_555
O5A_2 Zn2A 1_555 1_555
O6A Zn1 1_555 1_555
O7A Zn2A_4 1_555 1_555
O7_2 Zn2 1_555 1_555
O7A_2 Zn2A 1_555 1_555
O8A Zn3A 1_555 1_555
O9A C3A 1_555 1_555
O9A_2 Zn3 1_555 1_555
C1A O7A 1_555 1_555
C2A H1A 1_555 1_555
C3A C2A 1_555 1_555
C4A C1A 1_555 1_555
H2A C4A 1_555 1_555
C5A O6A 1_555 1_555
C6A H3A 1_555 1_555
H4A C6A 1_555 1_555
C7A C9 1_555 1_555
H5A C7A 1_555 1_555
H6A C7A 1_555 1_555
C8A C5A 1_555 1_555
H7A C8A 1_555 1_555
C9A C7 1_555 1_555
H8A C9A 1_555 1_555
H9A C9A 1_555 1_555
C10A C4A 1_555 1_555
H10A C10A 1_555 1_555
H11A C10A 1_555 1_555
C11A C12A 1_555 1_555
C12A H12A 1_555 1_555
C13A C4A 1_555 1_555
H13A C13A 1_555 1_555
H14A C13A 1_555 1_555
C14A C8A 1_555 1_555
H15A C14A 1_555 1_555
H16A C14A 1_555 1_555
C15A C16 1_555 1_555
H17A C15A 1_555 1_555
H18A C15A 1_555 1_555
C16A C15 1_555 1_555
H19A C16A 1_555 1_555
H20A C16A 1_555 1_555
Zn2 O2 1_555 1_555
O5 C11 1_555 1_555
O7 Zn2_2 1_555 1_555
O8 C5 1_555 1_555
C2 C3 1_555 1_555
C6 C8 1_555 1_555
C6 C10 1_555 1_555
C13 C14 1_555 1_555
Zn2A O2A_2 1_555 1_555
Zn3A O1A 1_555 1_555
O8A C5A 1_555 1_555
C2A C7A 1_555 1_555
C2A C9A 1_555 1_555
C6A C8A 1_555 1_555
C6A C10A 1_555 1_555
C12A C15A 1_555 1_555
C12A C16A 1_555 1_555
C13A C14A 1_555 1_555

#END
