
#######################################################################
#
#                 Cambridge Crystallographic Data Centre
#                                CCDC 
#
#######################################################################
#
# If this CIF has been generated from an entry in the Cambridge 
# Structural Database, then it will include bibliographic, chemical, 
# crystal, experimental, refinement or atomic coordinate data resulting 
# from the CCDC's data processing and validation procedures.
#
#######################################################################

data_MIFGEN
_symmetry_cell_setting           orthorhombic
_symmetry_space_group_name_H-M   'P b c a'
_symmetry_Int_Tables_number      61
_space_group_name_Hall           '-P 2ac 2ab'
loop_
_symmetry_equiv_pos_site_id
_symmetry_equiv_pos_as_xyz
1 x,y,z
2 1/2-x,1/2+y,z
3 x,1/2-y,1/2+z
4 1/2+x,y,1/2-z
5 -x,-y,-z
6 1/2+x,1/2-y,-z
7 -x,1/2+y,1/2-z
8 1/2-x,-y,1/2+z
_cell_length_a                   36.887(5)
_cell_length_b                   32.652(8)
_cell_length_c                   7.5614(6)
_cell_angle_alpha                90
_cell_angle_beta                 90
_cell_angle_gamma                90
_cell_volume                     9107.21
loop_
_atom_site_label
_atom_site_type_symbol
_atom_site_fract_x
_atom_site_fract_y
_atom_site_fract_z
Ti1 Ti 0.41514(2) 0.04875(2) -0.29389(8)
Ti2 Ti 0.40496(2) 0.05790(2) 0.20660(8)
O1 O 0.41431(6) 0.04758(7) -0.0684(3)
O2 O 0.46201(6) 0.07191(7) -0.3372(3)
O3 O 0.41648(6) -0.00974(7) -0.3364(3)
O4 O 0.40460(6) 0.05694(7) -0.5680(3)
O5 O 0.35388(6) 0.04746(8) 0.1654(3)
O6 O 0.41555(6) 0.11437(7) 0.1618(3)
N1 N 0.39520(7) 0.11066(8) -0.2939(3)
N2 N 0.35703(7) 0.04165(8) -0.2924(4)
N3 N 0.41013(8) -0.00797(9) 0.2058(4)
N4 N 0.46272(7) 0.04803(9) 0.1990(4)
C1 C 0.47276(9) 0.1077(1) -0.3999(4)
C2 C 0.50869(9) 0.1123(1) -0.4608(5)
C3 C 0.5211(1) 0.1493(1) -0.5238(5)
C4 C 0.4989(1) 0.1833(1) -0.5287(5)
C5 C 0.4638(1) 0.1796(1) -0.4713(5)
C6 C 0.4501(1) 0.1425(1) -0.4054(5)
C7 C 0.4130(1) 0.1421(1) -0.3454(5)
C8 C 0.3577(1) 0.1141(1) -0.2348(5)
C9 C 0.33641(9) 0.0794(1) -0.3189(5)
C10 C 0.34108(9) 0.0086(1) -0.2527(5)
C11 C 0.35807(9) -0.0309(1) -0.2292(5)
C12 C 0.3368(1) -0.0634(1) -0.1664(6)
C13 C 0.3505(1) -0.1024(1) -0.1472(6)
C14 C 0.3863(1) -0.1093(1) -0.1888(6)
C15 C 0.4080(1) -0.0786(1) -0.2531(5)
C16 C 0.39476(9) -0.0384(1) -0.2736(4)
C17 C 0.3337(1) 0.0185(1) 0.2385(5)
C18 C 0.2967(1) 0.0265(2) 0.2717(6)
C19 C 0.2752(1) -0.0030(2) 0.3496(8)
C20 C 0.2885(2) -0.0413(2) 0.3915(8)
C21 C 0.3239(2) -0.0500(1) 0.3564(6)
C22 C 0.3474(1) -0.0204(1) 0.2810(5)
C23 C 0.3846(1) -0.0324(1) 0.2465(5)
C24 C 0.4466(1) -0.0230(1) 0.1660(5)
C25 C 0.4736(1) 0.0065(1) 0.2496(5)
C26 C 0.48595(9) 0.0738(1) 0.1415(5)
C27 C 0.4790(1) 0.1156(1) 0.0890(5)
C28 C 0.5081(1) 0.1388(1) 0.0258(5)
C29 C 0.5041(1) 0.1792(1) -0.0207(6)
C30 C 0.4705(1) 0.1970(1) -0.0077(6)
C31 C 0.4411(1) 0.1755(1) 0.0525(5)
C32 C 0.44436(9) 0.1342(1) 0.1028(4)
H1 H 0.5246 0.0887 -0.4582
H2 H 0.5462 0.1514 -0.5645
H3 H 0.5077 0.2092 -0.5709
H4 H 0.4481 0.2035 -0.4760
H5 H 0.4006 0.1679 -0.3438
H6 H 0.3476 0.1400 -0.2671
H7 H 0.3564 0.1118 -0.1077
H8 H 0.3332 0.0844 -0.4433
H9 H 0.3127 0.0768 -0.2673
H10 H 0.3153 0.0097 -0.2373
H11 H 0.3117 -0.0582 -0.1369
H12 H 0.3354 -0.1247 -0.1072
H13 H 0.3963 -0.1359 -0.1731
H14 H 0.4328 -0.0847 -0.2842
H15 H 0.2864 0.0534 0.2391
H16 H 0.2502 0.0025 0.3783
H17 H 0.2731 -0.0620 0.4447
H18 H 0.3338 -0.0770 0.3857
H19 H 0.3909 -0.0612 0.2575
H20 H 0.4496 -0.0501 0.2118
H21 H 0.4501 -0.0239 0.0407
H22 H 0.4728 0.0036 0.3763
H23 H 0.4975 0.0007 0.2106
H24 H 0.5107 0.0648 0.1335
H25 H 0.5320 0.1256 0.0131
H26 H 0.5253 0.1947 -0.0580
H27 H 0.4676 0.2254 -0.0421
H28 H 0.4174 0.1886 0.0589
O4_2 O 0.40460(6) 0.05694(7) 0.4320(3)
Ti2_2 Ti 0.40496(2) 0.05790(2) -0.79340(8)
Ti3 Ti 0.22463(2) 0.25591(2) -0.98626(7)
O7 O 0.22521(6) 0.25044(7) -1.2106(3)
O8 O 0.26886(6) 0.28830(7) -0.9674(3)
O9 O 0.18311(6) 0.29041(7) -0.9550(3)
N5 N 0.25983(8) 0.20339(8) -0.9656(3)
N6 N 0.18785(7) 0.20537(9) -0.9535(4)
C33 C 0.30142(9) 0.2804(1) -1.0334(4)
C34 C 0.3243(1) 0.3124(1) -1.0824(5)
C35 C 0.3589(1) 0.3053(1) -1.1453(5)
C36 C 0.3722(1) 0.2658(2) -1.1572(5)
C37 C 0.3501(1) 0.2336(1) -1.1097(5)
C38 C 0.31422(9) 0.2394(1) -1.0499(4)
C39 C 0.2934(1) 0.2036(1) -1.0029(5)
C40 C 0.2418(1) 0.1651(1) -0.9142(5)
C41 C 0.2041(1) 0.1656(1) -0.9946(5)
C42 C 0.1557(1) 0.2079(1) -0.8917(5)
C43 C 0.13697(9) 0.2451(1) -0.8432(5)
C44 C 0.1023(1) 0.2418(1) -0.7666(5)
C45 C 0.0823(1) 0.2749(2) -0.7235(6)
C46 C 0.0965(1) 0.3136(2) -0.7527(6)
C47 C 0.1303(1) 0.3184(1) -0.8276(5)
C48 C 0.15121(9) 0.2845(1) -0.8762(5)
H29 H 0.3156 0.3402 -1.0706
H30 H 0.3740 0.3280 -1.1826
H31 H 0.3964 0.2601 -1.2003
H32 H 0.3590 0.2059 -1.1184
H33 H 0.3060 0.1778 -1.0017
H34 H 0.2401 0.1638 -0.7875
H35 H 0.2554 0.1421 -0.9542
H36 H 0.1894 0.1437 -0.9476
H37 H 0.2054 0.1616 -1.1209
H38 H 0.1429 0.1828 -0.8734
H39 H 0.0927 0.2146 -0.7442
H40 H 0.0583 0.2713 -0.6751
H41 H 0.0826 0.3376 -0.7226
H42 H 0.1398 0.3454 -0.8479
O7B O 0.22521(6) 0.24956(7) -0.7106(3)
Ti3B Ti 0.22463(2) 0.24409(2) -1.48626(7)
O10 O 0.26370(9) 0.3654(1) -0.8090(4)
C49 C 0.2437(2) 0.3863(2) -0.9362(8)
H43 H 0.2661(9) 0.332(1) -0.857(5)
H44 H 0.2500 0.3781 -1.0512
H45 H 0.2181 0.3809 -0.9183
H46 H 0.2472 0.4151 -0.9235
loop_
_geom_bond_atom_site_label_1
_geom_bond_atom_site_label_2
_geom_bond_site_symmetry_1
_geom_bond_site_symmetry_2
Ti1 O1 1_555 1_555
Ti2 O1 1_555 1_555
Ti3 O7 1_555 1_555
O2 Ti1 1_555 1_555
O3 Ti1 1_555 1_555
O4 Ti1 1_555 1_555
O5 Ti2 1_555 1_555
O6 Ti2 1_555 1_555
O7 Ti3B 1_555 1_555
O8 Ti3 1_555 1_555
O9 Ti3 1_555 1_555
O10 C49 1_555 1_555
N1 Ti1 1_555 1_555
N2 Ti1 1_555 1_555
N3 Ti2 1_555 1_555
N4 Ti2 1_555 1_555
N5 Ti3 1_555 1_555
N6 Ti3 1_555 1_555
C1 O2 1_555 1_555
C2 C1 1_555 1_555
C3 C2 1_555 1_555
C4 C3 1_555 1_555
C5 C4 1_555 1_555
C6 C1 1_555 1_555
C7 N1 1_555 1_555
C8 N1 1_555 1_555
C9 N2 1_555 1_555
C10 N2 1_555 1_555
C11 C10 1_555 1_555
C12 C11 1_555 1_555
C13 C12 1_555 1_555
C14 C13 1_555 1_555
C15 C14 1_555 1_555
C16 O3 1_555 1_555
C17 O5 1_555 1_555
C18 C17 1_555 1_555
C19 C18 1_555 1_555
C20 C19 1_555 1_555
C21 C20 1_555 1_555
C22 C17 1_555 1_555
C23 N3 1_555 1_555
C24 N3 1_555 1_555
C25 N4 1_555 1_555
C26 N4 1_555 1_555
C27 C26 1_555 1_555
C28 C27 1_555 1_555
C29 C28 1_555 1_555
C30 C29 1_555 1_555
C31 C30 1_555 1_555
C32 O6 1_555 1_555
C33 O8 1_555 1_555
C34 C33 1_555 1_555
C35 C34 1_555 1_555
C36 C35 1_555 1_555
C37 C36 1_555 1_555
C38 C33 1_555 1_555
C39 N5 1_555 1_555
C40 N5 1_555 1_555
C41 N6 1_555 1_555
C42 N6 1_555 1_555
C43 C42 1_555 1_555
C44 C43 1_555 1_555
C45 C44 1_555 1_555
C46 C45 1_555 1_555
C47 C46 1_555 1_555
C48 O9 1_555 1_555
C49 H44 1_555 1_555
H1 C2 1_555 1_555
H2 C3 1_555 1_555
H3 C4 1_555 1_555
H4 C5 1_555 1_555
H5 C7 1_555 1_555
H6 C8 1_555 1_555
H7 C8 1_555 1_555
H8 C9 1_555 1_555
H9 C9 1_555 1_555
H10 C10 1_555 1_555
H11 C12 1_555 1_555
H12 C13 1_555 1_555
H13 C14 1_555 1_555
H14 C15 1_555 1_555
H15 C18 1_555 1_555
H16 C19 1_555 1_555
H17 C20 1_555 1_555
H18 C21 1_555 1_555
H19 C23 1_555 1_555
H20 C24 1_555 1_555
H21 C24 1_555 1_555
H22 C25 1_555 1_555
H23 C25 1_555 1_555
H24 C26 1_555 1_555
H25 C28 1_555 1_555
H26 C29 1_555 1_555
H27 C30 1_555 1_555
H28 C31 1_555 1_555
H29 C34 1_555 1_555
H30 C35 1_555 1_555
H31 C36 1_555 1_555
H32 C37 1_555 1_555
H33 C39 1_555 1_555
H34 C40 1_555 1_555
H35 C40 1_555 1_555
H36 C41 1_555 1_555
H37 C41 1_555 1_555
H38 C42 1_555 1_555
H39 C44 1_555 1_555
H40 C45 1_555 1_555
H41 C46 1_555 1_555
H42 C47 1_555 1_555
H43 O10 1_555 1_555
H45 C49 1_555 1_555
H46 C49 1_555 1_555
O4_2 Ti2 1_555 1_555
O7B Ti3 1_555 1_555
Ti2_2 O4 1_555 1_555
C5 C6 1_555 1_555
C6 C7 1_555 1_555
C8 C9 1_555 1_555
C11 C16 1_555 1_555
C15 C16 1_555 1_555
C21 C22 1_555 1_555
C22 C23 1_555 1_555
C24 C25 1_555 1_555
C27 C32 1_555 1_555
C31 C32 1_555 1_555
C37 C38 1_555 1_555
C38 C39 1_555 1_555
C40 C41 1_555 1_555
C43 C48 1_555 1_555
C47 C48 1_555 1_555

#END
