
#######################################################################
#
#                 Cambridge Crystallographic Data Centre
#                                CCDC 
#
#######################################################################
#
# If this CIF has been generated from an entry in the Cambridge 
# Structural Database, then it will include bibliographic, chemical, 
# crystal, experimental, refinement or atomic coordinate data resulting 
# from the CCDC's data processing and validation procedures.
#
#######################################################################

data_MIFHUG
_symmetry_cell_setting           monoclinic
_symmetry_space_group_name_H-M   'P 21/n'
_symmetry_Int_Tables_number      14
_space_group_name_Hall           '-P 2yn'
loop_
_symmetry_equiv_pos_site_id
_symmetry_equiv_pos_as_xyz
1 x,y,z
2 1/2-x,1/2+y,1/2-z
3 -x,-y,-z
4 1/2+x,1/2-y,1/2+z
_cell_length_a                   17.357(6)
_cell_length_b                   26.425(8)
_cell_length_c                   17.821(6)
_cell_angle_alpha                90
_cell_angle_beta                 116.889(6)
_cell_angle_gamma                90
_cell_volume                     7290.05
loop_
_atom_site_label
_atom_site_type_symbol
_atom_site_fract_x
_atom_site_fract_y
_atom_site_fract_z
C1 C 0.9412(4) 0.0901(2) 0.1777(4)
C2 C 0.8593(3) 0.0659(2) 0.1674(4)
C3 C 0.8575(3) 0.0150(2) 0.1849(4)
H1 H 0.9082 -0.0038 0.2051
C4 C 0.7813(3) -0.0082(2) 0.1727(4)
H2 H 0.7810 -0.0425 0.1843
C5 C 0.7038(3) 0.01987(19) 0.1426(3)
C6 C 0.7073(3) 0.0713(2) 0.1283(4)
H3 H 0.6577 0.0909 0.1110
C7 C 0.7842(3) 0.0938(2) 0.1396(4)
H4 H 0.7850 0.1281 0.1284
C8 C 0.6211(3) -0.0064(2) 0.1229(4)
C9 C 0.6075(3) -0.05512(19) 0.0899(4)
H5 H 0.6508 -0.0709 0.0813
C10 C 0.5306(3) -0.0806(2) 0.0695(3)
C11 C 0.4668(3) -0.05636(19) 0.0836(3)
H6 H 0.4158 -0.0734 0.0719
C12 C 0.4779(3) -0.00747(19) 0.1147(3)
C13 C 0.5552(3) 0.01697(19) 0.1339(3)
H7 H 0.5631 0.0498 0.1547
C14 C 0.5153(3) -0.1309(2) 0.0287(4)
C15 C 0.5338(4) -0.13875(19) -0.0381(4)
H8 H 0.5600 -0.1131 -0.0541
C16 C 0.5141(4) -0.1836(2) -0.0808(4)
H9 H 0.5246 -0.1874 -0.1273
C17 C 0.4791(3) -0.2233(2) -0.0564(4)
C18 C 0.4636(4) -0.2165(2) 0.0132(4)
H10 H 0.4426 -0.2433 0.0323
C19 C 0.4792(4) -0.1705(2) 0.0539(4)
H11 H 0.4656 -0.1659 0.0982
C20 C 0.4068(3) 0.01785(19) 0.1259(4)
C21 C 0.3566(4) 0.0752(2) 0.1997(4)
H12 H 0.3689 0.0986 0.2426
C22 C 0.2709(3) 0.06296(19) 0.1463(3)
C23 C 0.2538(3) 0.0290(2) 0.0812(4)
H13 H 0.1969 0.0212 0.0440
C24 C 0.4237(3) 0.05305(19) 0.1898(3)
H14 H 0.4805 0.0617 0.2261
C25 C 0.3213(3) 0.0065(2) 0.0711(4)
H15 H 0.3091 -0.0163 0.0274
C26 C 0.4575(4) -0.2721(2) -0.1037(5)
C27 C 0.1973(3) 0.0862(2) 0.1574(4)
C28 C 0.5743(4) -0.4013(2) -0.1781(4)
C29 C 0.6552(3) -0.4276(2) -0.1660(3)
C30 C 0.6557(3) -0.4777(2) -0.1876(4)
H16 H 0.6039 -0.4955 -0.2116
C31 C 0.7301(3) -0.5020(2) -0.1746(4)
H17 H 0.7281 -0.5361 -0.1881
C32 C 0.8087(3) -0.4766(2) -0.1415(4)
C33 C 0.8079(3) -0.4258(2) -0.1235(4)
H18 H 0.8595 -0.4078 -0.1027
C34 C 0.7331(3) -0.4009(2) -0.1353(4)
H19 H 0.7346 -0.3666 -0.1229
C35 C 0.8897(3) -0.50378(19) -0.1222(3)
C36 C 0.9008(3) -0.5529(2) -0.0912(3)
H20 H 0.8564 -0.5685 -0.0843
C37 C 0.9781(3) -0.57916(19) -0.0702(3)
C38 C 1.0440(3) -0.5553(2) -0.0806(3)
H21 H 1.0949 -0.5727 -0.0680
C39 C 1.0348(3) -0.5057(2) -0.1095(3)
C40 C 0.9576(3) -0.48069(19) -0.1294(4)
H22 H 0.9513 -0.4474 -0.1481
C41 C 0.9920(3) -0.6312(2) -0.0327(4)
C42 C 0.9645(4) -0.64204(19) 0.0288(4)
H23 H 0.9329 -0.6182 0.0417
C43 C 0.9846(4) -0.6881(2) 0.0697(4)
H24 H 0.9682 -0.6945 0.1118
C44 C 1.0294(4) -0.7254(2) 0.0491(4)
C45 C 1.0530(4) -0.7155(2) -0.0135(4)
H25 H 1.0806 -0.7405 -0.0292
C46 C 1.0359(3) -0.6685(2) -0.0538(4)
H26 H 1.0538 -0.6621 -0.0948
C47 C 1.1074(3) -0.47979(19) -0.1179(4)
C48 C 1.1914(4) -0.4901(2) -0.0625(4)
H27 H 1.2032 -0.5123 -0.0181
C49 C 1.0902(4) -0.4457(2) -0.1830(4)
H28 H 1.0333 -0.4385 -0.2209
C50 C 1.2599(4) -0.4675(2) -0.0715(4)
H29 H 1.3167 -0.4750 -0.0336
C51 C 1.2427(4) -0.4335(2) -0.1378(4)
C52 C 1.1574(4) -0.4224(2) -0.1918(4)
H30 H 1.1449 -0.3989 -0.2346
C53 C 1.0520(4) -0.7750(2) 0.0965(4)
C54 C 1.3150(4) -0.4107(2) -0.1501(4)
C55 C 0.3237(4) -0.3042(3) -0.3678(5)
H31 H 0.3280 -0.2783 -0.3308
C56 C 0.2649(5) -0.3337(3) -0.5111(5)
H32 H 0.2265 -0.3208 -0.5658
H33 H 0.2415 -0.3644 -0.5009
H34 H 0.3203 -0.3405 -0.5088
C57 C 0.2315(6) -0.2478(3) -0.4799(7)
H35 H 0.1988 -0.2490 -0.5401
H36 H 0.2743 -0.2217 -0.4645
H37 H 0.1934 -0.2408 -0.4555
C58 C 1.1756(7) 0.1329(4) 0.4034(7)
H38 H 1.1840 0.1510 0.4533
H39 H 1.2306 0.1261 0.4049
H40 H 1.1464 0.1016 0.4005
N1 N 0.2744(4) -0.2972(2) -0.4487(4)
O1 O 0.9361(3) 0.12979(19) 0.1368(4)
O2 O 1.0106(3) 0.07215(17) 0.2251(3)
H41 H 1.0286 0.0438 0.2597
O3 O 0.1216(2) 0.07507(15) 0.1089(3)
O4 O 0.2172(2) 0.11662(15) 0.2182(3)
O5 O 0.4391(3) -0.27081(17) -0.1808(3)
O6 O 0.4586(3) -0.31269(17) -0.0670(3)
O7 O 0.5050(2) -0.42649(16) -0.2048(3)
O8 O 0.5770(3) -0.35566(16) -0.1592(4)
O9 O 1.0654(3) -0.81295(16) 0.0618(3)
O10 O 1.0587(3) -0.77492(16) 0.1697(3)
O11 O 1.3911(3) -0.42259(16) -0.1014(3)
O12 O 1.2958(3) -0.38068(17) -0.2101(3)
O13 O 1.1255(3) 0.16231(18) 0.3324(3)
O14 O 0.3650(3) -0.34420(18) -0.3383(3)
Cd1 Cd 1.08249(2) 0.140181(14) 0.19254(3)
Cd2 Cd 0.42633(3) -0.359006(14) -0.19474(3)
O3_2 O 1.1216(2) 0.07507(15) 0.1089(3)
O4_2 O 1.2172(2) 0.11662(15) 0.2182(3)
O9_2 O 1.0654(3) 0.18705(16) 0.0618(3)
O10_2 O 1.0587(3) 0.22508(16) 0.1697(3)
O11_2 O 0.3911(3) -0.42259(16) -0.1014(3)
O12_2 O 0.2958(3) -0.38068(17) -0.2101(3)
Cd1_2 Cd 0.08249(2) 0.140181(14) 0.19254(3)
Cd1_3 Cd 1.08249(2) -0.859819(14) 0.19254(3)
Cd2_2 Cd 1.42633(3) -0.359006(14) -0.19474(3)
C59 C 1.1437(5) 0.2910(3) 0.3343(6)
H42 H 1.1086 0.2851 0.2774
C60 C 1.2394(6) 0.3462(3) 0.4452(5)
H43 H 1.2599 0.3804 0.4515
H44 H 1.2876 0.3234 0.4640
H45 H 1.2091 0.3412 0.4782
C61 C 1.1761(6) 0.3734(4) 0.2968(6)
H46 H 1.2068 0.4034 0.3248
H47 H 1.1166 0.3815 0.2617
H48 H 1.2012 0.3599 0.2627
N2 N 1.1820(4) 0.3365(2) 0.3580(4)
O15 O 1.1536(4) 0.2557(2) 0.3860(4)
C62 C 0.0803(5) -0.0647(3) -0.9607(6)
H49 H 0.1010 -0.0799 -0.9971
H50 H 0.1278 -0.0595 -0.9060
H51 H 0.0538 -0.0328 -0.9837
C63 C -0.0194(5) -0.0764(4) -0.8992(5)
H52 H -0.0612 -0.0991 -0.8964
H53 H -0.0466 -0.0446 -0.9224
H54 H 0.0266 -0.0711 -0.8437
N3 N 0.0160(4) -0.0986(2) -0.9534(4)
C64 C 1.5679(12) -0.3506(8) 0.1303(10)
H55 H 1.5222 -0.3440 0.1453
H56 H 1.5816 -0.3200 0.1098
H57 H 1.6180 -0.3622 0.1790
C65 C 1.6050(7) -0.4076(5) 0.0321(7)
H58 H 1.5885 -0.4336 -0.0100
H59 H 1.6542 -0.4187 0.0821
H60 H 1.6194 -0.3773 0.0114
C66 C 1.536(6) -0.447(4) 0.078(6)
H61 H 1.5822 -0.4629 0.0754
N4 N 1.5343(4) -0.3975(3) 0.0511(4)
O16 O 1.4981(6) -0.4844(4) 0.1080(6)
C67 C 1.1598(12) -0.6370(7) -0.1987(14)
H62 H 1.2131 -0.6373 -0.1476
H63 H 1.1278 -0.6070 -0.2003
H64 H 1.1720 -0.6372 -0.2461
O17 O 1.1105(8) -0.6802(6) -0.2015(7)
C68 C 0.1000(6) -0.2025(4) -0.8182(7)
H65 H 0.0604 -0.1895 -0.8015
C69 C 0.1857(6) -0.2713(4) -0.8192(8)
H66 H 0.2055 -0.3031 -0.7906
H67 H 0.2345 -0.2505 -0.8098
H68 H 0.1522 -0.2773 -0.8784
C70 C 0.1094(9) -0.2736(4) -0.7297(8)
H69 H 0.1397 -0.3053 -0.7143
H70 H 0.0483 -0.2797 -0.7566
H71 H 0.1245 -0.2535 -0.6801
N5 N 0.1336(4) -0.2464(2) -0.7877(5)
O18 O 0.1155(4) -0.1763(2) -0.8670(5)
C71 C 0.8995(12) 0.2535(10) 0.2279(15)
H72 H 0.9180 0.2392 0.2829
H73 H 0.9228 0.2870 0.2330
H74 H 0.9197 0.2327 0.1963
C72 C 0.7808(11) 0.2767(9) 0.0984(13)
H75 H 0.7191 0.2802 0.0745
H76 H 0.7951 0.2538 0.0648
H77 H 0.8062 0.3092 0.0998
C73 C 0.7634(12) 0.2410(10) 0.2169(13)
H78 H 0.7049 0.2436 0.1799
N6 N 0.8163(11) 0.2556(5) 0.1896(13)
O19 O 0.7821(11) 0.2239(8) 0.2875(10)
loop_
_geom_bond_atom_site_label_1
_geom_bond_atom_site_label_2
_geom_bond_site_symmetry_1
_geom_bond_site_symmetry_2
C1 C2 1_555 1_555
C2 C3 1_555 1_555
C3 H1 1_555 1_555
C4 C3 1_555 1_555
H2 C4 1_555 1_555
C5 C4 1_555 1_555
C6 C5 1_555 1_555
H3 C6 1_555 1_555
C7 C2 1_555 1_555
H4 C7 1_555 1_555
C8 C5 1_555 1_555
C9 C8 1_555 1_555
H5 C9 1_555 1_555
C10 C9 1_555 1_555
C11 C10 1_555 1_555
H6 C11 1_555 1_555
C12 C11 1_555 1_555
C13 C8 1_555 1_555
H7 C13 1_555 1_555
C14 C10 1_555 1_555
C15 C14 1_555 1_555
H8 C15 1_555 1_555
C16 C15 1_555 1_555
H9 C16 1_555 1_555
C17 C16 1_555 1_555
C18 C17 1_555 1_555
H10 C18 1_555 1_555
C19 C14 1_555 1_555
H11 C19 1_555 1_555
C20 C12 1_555 1_555
C21 H12 1_555 1_555
C22 C21 1_555 1_555
C23 C22 1_555 1_555
H13 C23 1_555 1_555
C24 C20 1_555 1_555
H14 C24 1_555 1_555
C25 C20 1_555 1_555
H15 C25 1_555 1_555
C26 C17 1_555 1_555
C27 C22 1_555 1_555
C28 C29 1_555 1_555
C29 C30 1_555 1_555
C30 H16 1_555 1_555
C31 C30 1_555 1_555
H17 C31 1_555 1_555
C32 C31 1_555 1_555
C33 C32 1_555 1_555
H18 C33 1_555 1_555
C34 C29 1_555 1_555
H19 C34 1_555 1_555
C35 C32 1_555 1_555
C36 C35 1_555 1_555
H20 C36 1_555 1_555
C37 C36 1_555 1_555
C38 C37 1_555 1_555
H21 C38 1_555 1_555
C39 C38 1_555 1_555
C40 C35 1_555 1_555
H22 C40 1_555 1_555
C41 C37 1_555 1_555
C42 C41 1_555 1_555
H23 C42 1_555 1_555
C43 C42 1_555 1_555
H24 C43 1_555 1_555
C44 C43 1_555 1_555
C45 C44 1_555 1_555
H25 C45 1_555 1_555
C46 C41 1_555 1_555
H26 C46 1_555 1_555
C47 C39 1_555 1_555
C48 C47 1_555 1_555
H27 C48 1_555 1_555
C49 C47 1_555 1_555
H28 C49 1_555 1_555
C50 C48 1_555 1_555
H29 C50 1_555 1_555
C51 C50 1_555 1_555
C52 C49 1_555 1_555
H30 C52 1_555 1_555
C53 C44 1_555 1_555
C54 C51 1_555 1_555
C55 H31 1_555 1_555
C56 H32 1_555 1_555
H33 C56 1_555 1_555
H34 C56 1_555 1_555
C57 H35 1_555 1_555
H36 C57 1_555 1_555
H37 C57 1_555 1_555
C58 H38 1_555 1_555
H39 C58 1_555 1_555
H40 C58 1_555 1_555
N1 C55 1_555 1_555
O1 C1 1_555 1_555
O2 C1 1_555 1_555
H41 O2 1_555 1_555
O3 C27 1_555 1_555
O4 C27 1_555 1_555
O5 C26 1_555 1_555
O6 C26 1_555 1_555
O7 C28 1_555 1_555
O8 C28 1_555 1_555
O9 C53 1_555 1_555
O10 C53 1_555 1_555
O11 C54 1_555 1_555
O12 C54 1_555 1_555
O13 C58 1_555 1_555
O14 C55 1_555 1_555
Cd1 O1 1_555 1_555
Cd2 O5 1_555 1_555
C59 H42 1_555 1_555
C60 H43 1_555 1_555
H44 C60 1_555 1_555
H45 C60 1_555 1_555
C61 H46 1_555 1_555
H47 C61 1_555 1_555
H48 C61 1_555 1_555
N2 C59 1_555 1_555
O15 C59 1_555 1_555
C62 H49 1_555 1_555
H50 C62 1_555 1_555
H51 C62 1_555 1_555
C63 H52 1_555 1_555
H53 C63 1_555 1_555
H54 C63 1_555 1_555
N3 C62 1_555 1_555
C64 H55 1_555 1_555
H56 C64 1_555 1_555
H57 C64 1_555 1_555
C65 H58 1_555 1_555
H59 C65 1_555 1_555
H60 C65 1_555 1_555
C66 H61 1_555 1_555
N4 C64 1_555 1_555
O16 C66 1_555 1_555
C67 H62 1_555 1_555
H63 C67 1_555 1_555
H64 C67 1_555 1_555
O17 C67 1_555 1_555
C68 H65 1_555 1_555
C69 H66 1_555 1_555
H67 C69 1_555 1_555
H68 C69 1_555 1_555
C70 H69 1_555 1_555
H70 C70 1_555 1_555
H71 C70 1_555 1_555
N5 C68 1_555 1_555
O18 C68 1_555 1_555
C71 H72 1_555 1_555
H73 C71 1_555 1_555
H74 C71 1_555 1_555
C72 H75 1_555 1_555
H76 C72 1_555 1_555
H77 C72 1_555 1_555
C73 H78 1_555 1_555
N6 C71 1_555 1_555
O19 C73 1_555 1_555
O3_2 Cd1 1_555 1_555
O4_2 Cd1 1_555 1_555
O9_2 Cd1 1_555 1_555
O10_2 Cd1 1_555 1_555
O11_2 Cd2 1_555 1_555
O12_2 Cd2 1_555 1_555
Cd1_2 O3 1_555 1_555
Cd1_3 O9 1_555 1_555
Cd2_2 O11 1_555 1_555
C6 C7 1_555 1_555
C12 C13 1_555 1_555
C18 C19 1_555 1_555
C21 C24 1_555 1_555
C23 C25 1_555 1_555
C33 C34 1_555 1_555
C39 C40 1_555 1_555
C45 C46 1_555 1_555
C51 C52 1_555 1_555
C56 N1 1_555 1_555
C57 N1 1_555 1_555
O2 Cd1 1_555 1_555
O4 Cd1_2 1_555 1_555
O6 Cd2 1_555 1_555
O7 Cd2 1_555 1_555
O8 Cd2 1_555 1_555
O10 Cd1_3 1_555 1_555
O12 Cd2_2 1_555 1_555
O13 Cd1 1_555 1_555
O14 Cd2 1_555 1_555
C60 N2 1_555 1_555
C61 N2 1_555 1_555
C63 N3 1_555 1_555
C65 N4 1_555 1_555
C66 N4 1_555 1_555
C69 N5 1_555 1_555
C70 N5 1_555 1_555
C72 N6 1_555 1_555
C73 N6 1_555 1_555

#END
