
#######################################################################
#
#                 Cambridge Crystallographic Data Centre
#                                CCDC 
#
#######################################################################
#
# If this CIF has been generated from an entry in the Cambridge 
# Structural Database, then it will include bibliographic, chemical, 
# crystal, experimental, refinement or atomic coordinate data resulting 
# from the CCDC's data processing and validation procedures.
#
#######################################################################

data_MIFHUG01
_symmetry_cell_setting           monoclinic
_symmetry_space_group_name_H-M   'P 21/n'
_symmetry_Int_Tables_number      14
_space_group_name_Hall           '-P 2yn'
loop_
_symmetry_equiv_pos_site_id
_symmetry_equiv_pos_as_xyz
1 x,y,z
2 1/2-x,1/2+y,1/2-z
3 -x,-y,-z
4 1/2+x,1/2-y,1/2+z
_cell_length_a                   17.357(6)
_cell_length_b                   26.425(8)
_cell_length_c                   17.821(6)
_cell_angle_alpha                90
_cell_angle_beta                 116.889(6)
_cell_angle_gamma                90
_cell_volume                     7290.05
loop_
_atom_site_label
_atom_site_type_symbol
_atom_site_fract_x
_atom_site_fract_y
_atom_site_fract_z
C1 C 0.9417(3) 0.09009(18) 0.1788(3)
C2 C 0.8602(2) 0.06630(16) 0.1683(3)
C3 C 0.8578(3) 0.01496(17) 0.1853(3)
H1 H 0.9086 -0.0038 0.2053
C4 C 0.7814(3) -0.00915(17) 0.1730(3)
H2 H 0.7811 -0.0435 0.1844
C5 C 0.7039(2) 0.01993(15) 0.1426(3)
C6 C 0.7068(3) 0.07152(15) 0.1279(3)
H3 H 0.6569 0.0909 0.1106
C7 C 0.7825(3) 0.09416(16) 0.1386(3)
H4 H 0.7825 0.1283 0.1262
C8 C 0.6209(2) -0.00665(15) 0.1231(3)
C9 C 0.6076(3) -0.05500(15) 0.0899(3)
H5 H 0.6507 -0.0705 0.0808
C10 C 0.5310(3) -0.08086(15) 0.0699(3)
C11 C 0.4660(3) -0.05710(14) 0.0830(3)
H6 H 0.4151 -0.0743 0.0711
C12 C 0.4773(2) -0.00733(15) 0.1140(3)
C13 C 0.5553(2) 0.01690(15) 0.1341(3)
H7 H 0.5637 0.0497 0.1553
C14 C 0.5150(3) -0.13069(15) 0.0284(3)
C15 C 0.5336(3) -0.13820(15) -0.0375(3)
H8 H 0.5600 -0.1125 -0.0533
C16 C 0.5136(3) -0.18416(16) -0.0817(3)
H9 H 0.5243 -0.1879 -0.1280
C17 C 0.4783(3) -0.22368(16) -0.0578(3)
C18 C 0.4628(3) -0.21631(17) 0.0134(3)
H10 H 0.4420 -0.2429 0.0332
C19 C 0.4783(3) -0.17034(17) 0.0529(3)
H11 H 0.4641 -0.1655 0.0968
C20 C 0.4064(2) 0.01772(15) 0.1247(3)
C21 C 0.3558(3) 0.07525(16) 0.1995(3)
H12 H 0.3680 0.0985 0.2426
C22 C 0.2711(2) 0.06307(15) 0.1455(3)
C23 C 0.2530(3) 0.02860(16) 0.0806(3)
H13 H 0.1961 0.0201 0.0442
C24 C 0.4228(3) 0.05256(15) 0.1891(3)
H14 H 0.4796 0.0608 0.2258
C25 C 0.3222(3) 0.00669(16) 0.0710(3)
H15 H 0.3102 -0.0158 0.0270
C26 C 0.4577(3) -0.27164(17) -0.1031(3)
C27 C 0.1980(3) 0.08636(16) 0.1585(3)
C28 C 0.5739(3) -0.40150(17) -0.1781(3)
C29 C 0.6549(3) -0.42784(16) -0.1660(3)
C30 C 0.6549(3) -0.47899(18) -0.1871(3)
H16 H 0.6035 -0.4972 -0.2097
C31 C 0.7303(3) -0.50225(15) -0.1746(3)
H17 H 0.7289 -0.5362 -0.1888
C32 C 0.8080(3) -0.47689(16) -0.1415(3)
C33 C 0.8080(3) -0.42591(15) -0.1235(3)
H18 H 0.8597 -0.4080 -0.1026
C34 C 0.7329(3) -0.40083(16) -0.1359(3)
H19 H 0.7342 -0.3664 -0.1244
C35 C 0.8903(3) -0.50375(15) -0.1222(3)
C36 C 0.9004(2) -0.55329(15) -0.0911(3)
H20 H 0.8559 -0.5690 -0.0845
C37 C 0.9784(2) -0.57914(15) -0.0700(3)
C38 C 1.0438(3) -0.55475(16) -0.0804(3)
H21 H 1.0952 -0.5719 -0.0673
C39 C 1.0345(2) -0.50589(15) -0.1097(3)
C40 C 0.9575(3) -0.48075(15) -0.1298(3)
H22 H 0.9512 -0.4475 -0.1488
C41 C 0.9917(2) -0.63146(16) -0.0337(3)
C42 C 0.9645(3) -0.64260(15) 0.0286(3)
H23 H 0.9332 -0.6188 0.0420
C43 C 0.9842(3) -0.68846(17) 0.0691(3)
H24 H 0.9670 -0.6950 0.1106
C44 C 1.0295(3) -0.72548(16) 0.0493(3)
C45 C 1.0539(3) -0.71552(17) -0.0125(3)
H25 H 1.0831 -0.7401 -0.0270
C46 C 1.0354(3) -0.66864(16) -0.0541(3)
H26 H 1.0526 -0.6625 -0.0957
C47 C 1.1073(3) -0.47980(15) -0.1181(3)
C48 C 1.1920(3) -0.49014(17) -0.0622(3)
H27 H 1.2042 -0.5122 -0.0175
C49 C 1.0906(3) -0.44490(16) -0.1831(3)
H28 H 1.0338 -0.4369 -0.2205
C50 C 1.2592(3) -0.46778(16) -0.0724(3)
H29 H 1.3160 -0.4755 -0.0348
C51 C 1.2428(3) -0.43401(16) -0.1380(3)
C52 C 1.1564(3) -0.42272(16) -0.1920(3)
H30 H 1.1439 -0.3994 -0.2351
C53 C 1.0521(3) -0.77473(18) 0.0958(4)
C54 C 1.3144(3) -0.41166(16) -0.1497(3)
C55 C 0.3247(3) -0.3041(2) -0.3660(4)
C56 C 0.2665(4) -0.3347(3) -0.5104(4)
H31 H 0.2282 -0.3228 -0.5657
H32 H 0.2437 -0.3653 -0.4990
H33 H 0.3223 -0.3413 -0.5071
C57 C 0.2313(4) -0.2467(3) -0.4808(5)
H34 H 0.1987 -0.2476 -0.5409
H35 H 0.2745 -0.2208 -0.4650
H36 H 0.1934 -0.2396 -0.4562
C58 C 1.1780(6) 0.1336(4) 0.4055(6)
H37 H 1.1498 0.1020 0.4032
H38 H 1.1861 0.1518 0.4551
H39 H 1.2332 0.1273 0.4071
N1 N 0.2742(3) -0.2971(2) -0.4497(3)
O1 O 0.9359(2) 0.13006(14) 0.1373(3)
O2 O 1.01091(19) 0.07157(12) 0.2251(3)
O3 O 0.12130(18) 0.07497(11) 0.1085(2)
O4 O 0.21738(18) 0.11674(12) 0.2183(2)
O5 O 0.4390(2) -0.27066(12) -0.1803(2)
O6 O 0.4592(2) -0.31245(13) -0.0667(2)
O7 O 0.50518(19) -0.42601(12) -0.2050(2)
O8 O 0.5771(2) -0.35529(12) -0.1590(3)
O9 O 1.0645(2) -0.81334(12) 0.0624(3)
O10 O 1.0592(2) -0.77508(12) 0.1694(2)
O11 O 1.29505(19) -0.38076(13) -0.2108(2)
O12 O 1.3909(2) -0.42248(12) -0.1017(2)
O13 O 1.1260(2) 0.16299(14) 0.3326(2)
O14 O 0.3651(2) -0.34375(13) -0.3380(2)
Cd1 Cd 1.082384(18) 0.140190(11) 0.19255(2)
Cd2 Cd 0.426270(19) -0.359013(11) -0.19472(2)
O3_2 O 1.12130(18) 0.07497(11) 0.1085(2)
O4_2 O 1.21738(18) 0.11674(12) 0.2183(2)
O9_2 O 1.0645(2) 0.18666(12) 0.0624(3)
O10_2 O 1.0592(2) 0.22492(12) 0.1694(2)
O11_2 O 0.29505(19) -0.38076(13) -0.2108(2)
O12_2 O 0.3909(2) -0.42248(12) -0.1017(2)
Cd1_2 Cd 0.082384(18) 0.140190(11) 0.19255(2)
Cd1_3 Cd 1.082384(18) -0.859810(11) 0.19255(2)
Cd2_2 Cd 1.426270(19) -0.359013(11) -0.19472(2)
loop_
_geom_bond_atom_site_label_1
_geom_bond_atom_site_label_2
_geom_bond_site_symmetry_1
_geom_bond_site_symmetry_2
C1 C2 1_555 1_555
C2 C3 1_555 1_555
C3 H1 1_555 1_555
C4 C3 1_555 1_555
H2 C4 1_555 1_555
C5 C4 1_555 1_555
C6 C5 1_555 1_555
H3 C6 1_555 1_555
C7 C2 1_555 1_555
H4 C7 1_555 1_555
C8 C5 1_555 1_555
C9 C8 1_555 1_555
H5 C9 1_555 1_555
C10 C9 1_555 1_555
C11 C10 1_555 1_555
H6 C11 1_555 1_555
C12 C11 1_555 1_555
C13 C8 1_555 1_555
H7 C13 1_555 1_555
C14 C10 1_555 1_555
C15 C14 1_555 1_555
H8 C15 1_555 1_555
C16 C15 1_555 1_555
H9 C16 1_555 1_555
C17 C16 1_555 1_555
C18 C17 1_555 1_555
H10 C18 1_555 1_555
C19 C14 1_555 1_555
H11 C19 1_555 1_555
C20 C12 1_555 1_555
C21 H12 1_555 1_555
C22 C21 1_555 1_555
C23 C22 1_555 1_555
H13 C23 1_555 1_555
C24 C20 1_555 1_555
H14 C24 1_555 1_555
C25 C20 1_555 1_555
H15 C25 1_555 1_555
C26 C17 1_555 1_555
C27 C22 1_555 1_555
C28 C29 1_555 1_555
C29 C30 1_555 1_555
C30 H16 1_555 1_555
C31 C30 1_555 1_555
H17 C31 1_555 1_555
C32 C31 1_555 1_555
C33 C32 1_555 1_555
H18 C33 1_555 1_555
C34 C29 1_555 1_555
H19 C34 1_555 1_555
C35 C32 1_555 1_555
C36 C35 1_555 1_555
H20 C36 1_555 1_555
C37 C36 1_555 1_555
C38 C37 1_555 1_555
H21 C38 1_555 1_555
C39 C38 1_555 1_555
C40 C35 1_555 1_555
H22 C40 1_555 1_555
C41 C37 1_555 1_555
C42 C41 1_555 1_555
H23 C42 1_555 1_555
C43 C42 1_555 1_555
H24 C43 1_555 1_555
C44 C43 1_555 1_555
C45 C44 1_555 1_555
H25 C45 1_555 1_555
C46 C41 1_555 1_555
H26 C46 1_555 1_555
C47 C39 1_555 1_555
C48 C47 1_555 1_555
H27 C48 1_555 1_555
C49 C47 1_555 1_555
H28 C49 1_555 1_555
C50 C48 1_555 1_555
H29 C50 1_555 1_555
C51 C50 1_555 1_555
C52 C49 1_555 1_555
H30 C52 1_555 1_555
C53 C44 1_555 1_555
C54 C51 1_555 1_555
C55 N1 1_555 1_555
C56 H31 1_555 1_555
H32 C56 1_555 1_555
H33 C56 1_555 1_555
C57 H34 1_555 1_555
H35 C57 1_555 1_555
H36 C57 1_555 1_555
C58 H37 1_555 1_555
H38 C58 1_555 1_555
H39 C58 1_555 1_555
N1 C56 1_555 1_555
O1 C1 1_555 1_555
O2 C1 1_555 1_555
O3 C27 1_555 1_555
O4 C27 1_555 1_555
O5 C26 1_555 1_555
O6 C26 1_555 1_555
O7 C28 1_555 1_555
O8 C28 1_555 1_555
O9 C53 1_555 1_555
O10 C53 1_555 1_555
O11 C54 1_555 1_555
O12 C54 1_555 1_555
O13 C58 1_555 1_555
O14 C55 1_555 1_555
Cd1 O1 1_555 1_555
Cd2 O5 1_555 1_555
O3_2 Cd1 1_555 1_555
O4_2 Cd1 1_555 1_555
O9_2 Cd1 1_555 1_555
O10_2 Cd1 1_555 1_555
O11_2 Cd2 1_555 1_555
O12_2 Cd2 1_555 1_555
Cd1_2 O3 1_555 1_555
Cd1_3 O9 1_555 1_555
Cd2_2 O11 1_555 1_555
C6 C7 1_555 1_555
C12 C13 1_555 1_555
C18 C19 1_555 1_555
C21 C24 1_555 1_555
C23 C25 1_555 1_555
C33 C34 1_555 1_555
C39 C40 1_555 1_555
C45 C46 1_555 1_555
C51 C52 1_555 1_555
C57 N1 1_555 1_555
O2 Cd1 1_555 1_555
O4 Cd1_2 1_555 1_555
O6 Cd2 1_555 1_555
O7 Cd2 1_555 1_555
O8 Cd2 1_555 1_555
O10 Cd1_3 1_555 1_555
O12 Cd2_2 1_555 1_555
O13 Cd1 1_555 1_555
O14 Cd2 1_555 1_555

#END
