
#######################################################################
#
#                 Cambridge Crystallographic Data Centre
#                                CCDC 
#
#######################################################################
#
# If this CIF has been generated from an entry in the Cambridge 
# Structural Database, then it will include bibliographic, chemical, 
# crystal, experimental, refinement or atomic coordinate data resulting 
# from the CCDC's data processing and validation procedures.
#
#######################################################################

data_MIFMIZ
_symmetry_cell_setting           triclinic
_symmetry_space_group_name_H-M   'P -1'
_symmetry_Int_Tables_number      2
_space_group_name_Hall           '-P 1'
loop_
_symmetry_equiv_pos_site_id
_symmetry_equiv_pos_as_xyz
1 x,y,z
2 -x,-y,-z
_cell_length_a                   6.2836(16)
_cell_length_b                   10.732(3)
_cell_length_c                   14.356(4)
_cell_angle_alpha                95.441(4)
_cell_angle_beta                 98.941(4)
_cell_angle_gamma                103.448(4)
_cell_volume                     921.438
loop_
_atom_site_label
_atom_site_type_symbol
_atom_site_fract_x
_atom_site_fract_y
_atom_site_fract_z
Ni1 Ni 0.5000 1.0000 0.0000
O1 O 0.3911(5) 0.8665(3) 0.0839(2)
C1 C 0.1556(7) 0.7601(4) 0.1799(3)
O2 O 0.0248(5) 0.8365(3) 0.0382(2)
C2 C 0.3352(7) 0.7435(4) 0.2442(3)
H1 H 0.4832 0.7773 0.2353
O3 O 0.6849(5) 0.1232(3) 0.2249(2)
C3 C 0.2969(7) 0.6778(4) 0.3208(3)
H2 H 0.4195 0.6664 0.3640
O4 O 0.4408(5) 0.1369(3) 0.09791(19)
C4 C 0.0805(7) 0.6278(4) 0.3355(3)
O5 O 0.1859(5) 0.9806(3) -0.07858(19)
C5 C -0.0961(7) 0.6463(4) 0.2719(3)
H3 H -0.2440 0.6136 0.2814
C6 C -0.0609(7) 0.7115(4) 0.1948(3)
H4 H -0.1839 0.7232 0.1520
C7 C 0.0387(6) 0.5583(4) 0.4180(3)
C8 C -0.0749(6) 0.6078(3) 0.4827(2)
C9 C 0.1139(6) 0.4472(4) 0.4352(2)
C10 C 0.2259(7) 0.3824(4) 0.3688(3)
C11 C 0.1402(7) 0.3537(4) 0.2717(3)
H5 H 0.0138 0.3822 0.2461
C12 C 0.2373(7) 0.2840(4) 0.2118(3)
H6 H 0.1775 0.2651 0.1456
C13 C 0.4215(7) 0.2418(4) 0.2484(3)
C14 C 0.5116(7) 0.2725(4) 0.3448(3)
H7 H 0.6406 0.2461 0.3700
C15 C 0.4140(7) 0.3408(4) 0.4035(3)
H8 H 0.4759 0.3605 0.4695
C16 C 0.1929(7) 0.8259(4) 0.0944(3)
C17 C 0.5172(7) 0.1631(4) 0.1841(3)
O1A O -0.3911(5) 0.1335(3) 0.9161(2)
C1A C -0.1556(7) 0.2399(4) 0.8201(3)
O2A O -0.0248(5) 0.1635(3) 0.9618(2)
C2A C -0.3352(7) 0.2565(4) 0.7558(3)
H1A H -0.4832 0.2227 0.7647
O3A O -0.6849(5) 0.8768(3) 0.7751(2)
C3A C -0.2969(7) 0.3222(4) 0.6792(3)
H2A H -0.4195 0.3336 0.6360
O4A O -0.4408(5) 0.8631(3) 0.90209(19)
C4A C -0.0805(7) 0.3722(4) 0.6645(3)
C5A C 0.0961(7) 0.3537(4) 0.7281(3)
H3A H 0.2440 0.3864 0.7186
C6A C 0.0609(7) 0.2885(4) 0.8052(3)
H4A H 0.1839 0.2768 0.8480
C7A C -0.0387(6) 0.4417(4) 0.5820(3)
C8A C 0.0749(6) 0.3922(3) 0.5173(2)
C9A C -0.1139(6) 0.5528(4) 0.5648(2)
C10A C -0.2259(7) 0.6176(4) 0.6312(3)
C11A C -0.1402(7) 0.6463(4) 0.7283(3)
H5A H -0.0138 0.6178 0.7539
C12A C -0.2373(7) 0.7160(4) 0.7882(3)
H6A H -0.1775 0.7349 0.8544
C13A C -0.4215(7) 0.7582(4) 0.7516(3)
C14A C -0.5116(7) 0.7275(4) 0.6552(3)
H7A H -0.6406 0.7539 0.6300
C15A C -0.4140(7) 0.6592(4) 0.5965(3)
H8A H -0.4759 0.6395 0.5305
C16A C -0.1929(7) 0.1741(4) 0.9056(3)
C17A C -0.5172(7) 0.8369(4) 0.8159(3)
O5A O 0.8141(5) 1.0194(3) 0.07858(19)
Ni1_2 Ni -0.5000 0.0000 1.0000
Ni1_3 Ni -0.5000 1.0000 1.0000
Ni1_4 Ni 0.5000 0.0000 0.0000
O1A_2 O 0.6089(5) 1.1335(3) -0.0839(2)
O4_2 O 0.4408(5) 1.1369(3) 0.09791(19)
O4A_2 O 0.5592(5) 0.8631(3) -0.09791(19)
O6 O -0.1648(17) 0.9317(13) 0.4312(8)
C18 C 0.058(2) 0.9978(11) 0.4145(7)
H9 H 0.1184 0.9346 0.3788
H10 H 0.0428 1.0666 0.3746
C19 C -0.2086(17) 0.9478(16) 0.5023(9)
H11 H -0.2911 0.8623 0.5146
H12 H -0.3174 1.0014 0.4955
O6A O 0.1648(17) 1.0683(13) 0.5688(8)
C18A C -0.058(2) 1.0022(11) 0.5855(7)
H9A H -0.1184 1.0654 0.6212
H10A H -0.0428 0.9334 0.6254
C19A C 0.2086(17) 1.0522(16) 0.4977(9)
H11A H 0.2911 1.1377 0.4854
H12A H 0.3174 0.9986 0.5045
O7 O 0.4873(9) 0.5101(5) -0.0978(3)
C20 C 0.6904(13) 0.5094(8) -0.0381(5)
H13 H 0.7731 0.5993 -0.0117
H14 H 0.7840 0.4710 -0.0760
C21 C 0.3567(14) 0.5677(7) -0.0420(5)
H15 H 0.2149 0.5695 -0.0824
H16 H 0.4381 0.6578 -0.0158
O7A O 0.5127(9) 0.4899(5) 0.0978(3)
C20A C 0.3096(13) 0.4906(8) 0.0381(5)
H13A H 0.2269 0.4007 0.0117
H14A H 0.2160 0.5290 0.0760
C21A C 0.6433(14) 0.4323(7) 0.0420(5)
H15A H 0.7851 0.4305 0.0824
H16A H 0.5619 0.3422 0.0158
loop_
_geom_bond_atom_site_label_1
_geom_bond_atom_site_label_2
_geom_bond_site_symmetry_1
_geom_bond_site_symmetry_2
Ni1 O1 1_555 1_555
O1 C16 1_555 1_555
C1 C2 1_555 1_555
O2 C16 1_555 1_555
C2 H1 1_555 1_555
O3 C17 1_555 1_555
C3 C2 1_555 1_555
H2 C3 1_555 1_555
O4 C17 1_555 1_555
C4 C3 1_555 1_555
O5 Ni1 1_555 1_555
C5 C4 1_555 1_555
H3 C5 1_555 1_555
C6 C1 1_555 1_555
H4 C6 1_555 1_555
C7 C4 1_555 1_555
C8 C7 1_555 1_555
C9 C7 1_555 1_555
C10 C9 1_555 1_555
C11 C10 1_555 1_555
H5 C11 1_555 1_555
C12 C11 1_555 1_555
H6 C12 1_555 1_555
C13 C12 1_555 1_555
C14 C13 1_555 1_555
H7 C14 1_555 1_555
C15 C10 1_555 1_555
H8 C15 1_555 1_555
C16 C1 1_555 1_555
C17 C13 1_555 1_555
O6 C18 1_555 1_555
C18 H9 1_555 1_555
H10 C18 1_555 1_555
C19 O6 1_555 1_555
H11 C19 1_555 1_555
H12 C19 1_555 1_555
O7 C20 1_555 1_555
C20 H13 1_555 1_555
H14 C20 1_555 1_555
C21 O7 1_555 1_555
H15 C21 1_555 1_555
H16 C21 1_555 1_555
O1A C16A 1_555 1_555
C1A C2A 1_555 1_555
O2A C16A 1_555 1_555
C2A H1A 1_555 1_555
O3A C17A 1_555 1_555
C3A C2A 1_555 1_555
H2A C3A 1_555 1_555
O4A C17A 1_555 1_555
C4A C3A 1_555 1_555
C5A C4A 1_555 1_555
H3A C5A 1_555 1_555
C6A C1A 1_555 1_555
H4A C6A 1_555 1_555
C7A C4A 1_555 1_555
C8A C9 1_555 1_555
C9A C8 1_555 1_555
C10A C9A 1_555 1_555
C11A C10A 1_555 1_555
H5A C11A 1_555 1_555
C12A C11A 1_555 1_555
H6A C12A 1_555 1_555
C13A C12A 1_555 1_555
C14A C13A 1_555 1_555
H7A C14A 1_555 1_555
C15A C10A 1_555 1_555
H8A C15A 1_555 1_555
C16A C1A 1_555 1_555
C17A C13A 1_555 1_555
O5A Ni1 1_555 1_555
Ni1_2 O1A 1_555 1_555
Ni1_3 O4A 1_555 1_555
Ni1_4 O4 1_555 1_555
O1A_2 Ni1 1_555 1_555
O4_2 Ni1 1_555 1_555
O4A_2 Ni1 1_555 1_555
O6A C18A 1_555 1_555
C18A C19 1_555 1_555
H9A C18A 1_555 1_555
H10A C18A 1_555 1_555
C19A C18 1_555 1_555
H11A C19A 1_555 1_555
H12A C19A 1_555 1_555
O7A C20A 1_555 1_555
C20A C21 1_555 1_555
H13A C20A 1_555 1_555
H14A C20A 1_555 1_555
C21A C20 1_555 1_555
H15A C21A 1_555 1_555
H16A C21A 1_555 1_555
C5 C6 1_555 1_555
C14 C15 1_555 1_555
C5A C6A 1_555 1_555
C7A C8A 1_555 1_555
C7A C9A 1_555 1_555
C14A C15A 1_555 1_555
O6A C19A 1_555 1_555
O7A C21A 1_555 1_555

#END
