
#######################################################################
#
#                 Cambridge Crystallographic Data Centre
#                                CCDC 
#
#######################################################################
#
# If this CIF has been generated from an entry in the Cambridge 
# Structural Database, then it will include bibliographic, chemical, 
# crystal, experimental, refinement or atomic coordinate data resulting 
# from the CCDC's data processing and validation procedures.
#
#######################################################################

data_MIFNAR
_symmetry_cell_setting           monoclinic
_symmetry_space_group_name_H-M   'C 2/c'
_symmetry_Int_Tables_number      15
_space_group_name_Hall           '-C 2yn'
loop_
_symmetry_equiv_pos_site_id
_symmetry_equiv_pos_as_xyz
1 x,y,z
2 -x,y,1/2-z
3 1/2+x,1/2+y,z
4 1/2-x,1/2+y,1/2-z
5 -x,-y,-z
6 x,-y,1/2+z
7 1/2-x,1/2-y,-z
8 1/2+x,1/2-y,1/2+z
_cell_length_a                   19.0349(17)
_cell_length_b                   7.1326(8)
_cell_length_c                   21.4774(16)
_cell_angle_alpha                90
_cell_angle_beta                 109.683(4)
_cell_angle_gamma                90
_cell_volume                     2745.57
loop_
_atom_site_label
_atom_site_type_symbol
_atom_site_fract_x
_atom_site_fract_y
_atom_site_fract_z
U1 U 0.84111(4) 0.34610(12) 0.70294(4)
O1 O 0.7506(8) 0.332(2) 0.6437(6)
O2 O 0.9293(7) 0.353(2) 0.7619(6)
Se1 Se 0.77486(12) -0.1481(3) 0.68777(8)
O3 O 0.8272(9) 0.024(2) 0.7267(6)
O4 O 0.7559(8) -0.135(2) 0.6090(6)
O5 O 0.6945(7) -0.147(2) 0.7025(7)
O6 O 0.8203(8) -0.337(2) 0.7205(6)
C1 C 0.9127(12) 0.085(3) 0.5936(10)
C2 C 0.8819(14) -0.069(4) 0.4936(10)
C3 C 0.9308(16) 0.552(3) 0.6045(10)
C4 C 1.0434(14) 0.640(4) 0.5969(9)
N1 N 0.8969(10) 0.145(3) 0.6361(9)
N2 N 0.9349(10) 0.028(3) 0.5439(8)
N3 N 0.8157(11) -0.108(3) 0.4947(9)
N4 N 0.9062(10) -0.119(3) 0.4459(8)
N5 N 0.8852(12) 0.540(3) 0.6277(11)
N6 N 0.9767(12) 0.555(3) 0.5711(9)
N7 N 1.0657(11) 0.739(3) 0.6535(9)
N8 N 1.0900(11) 0.621(3) 0.5642(9)
U1C U 0.65889(4) -0.15390(12) 0.79706(4)
U1_2 U 0.84111(4) -0.65390(12) 0.70294(4)
Se1C Se 0.72514(12) 0.3519(3) 0.81223(8)
O5C O 0.8055(7) 0.353(2) 0.7975(7)
O6C O 0.6797(8) 0.163(2) 0.7795(6)
O6_2 O 0.8203(8) 0.663(2) 0.7205(6)
O7 O 1.0000 0.876(3) 0.7500
loop_
_geom_bond_atom_site_label_1
_geom_bond_atom_site_label_2
_geom_bond_site_symmetry_1
_geom_bond_site_symmetry_2
U1 O1 1_555 1_555
O2 U1 1_555 1_555
Se1 O3 1_555 1_555
O3 U1 1_555 1_555
O4 Se1 1_555 1_555
O5 Se1 1_555 1_555
O6 Se1 1_555 1_555
C1 N1 1_555 1_555
C2 N2 1_555 1_555
C3 N5 1_555 1_555
C4 N6 1_555 1_555
N1 U1 1_555 1_555
N2 C1 1_555 1_555
N3 C2 1_555 1_555
N4 C2 1_555 1_555
N5 U1 1_555 1_555
N6 C3 1_555 1_555
N7 C4 1_555 1_555
N8 C4 1_555 1_555
U1C O5 1_555 1_555
U1_2 O6 1_555 1_555
Se1C O5C 1_555 1_555
O5C U1 1_555 1_555
O6C U1C 1_555 1_555
O6_2 U1 1_555 1_555
Se1C O6C 1_555 1_555

#END
