
#######################################################################
#
#                 Cambridge Crystallographic Data Centre
#                                CCDC 
#
#######################################################################
#
# If this CIF has been generated from an entry in the Cambridge 
# Structural Database, then it will include bibliographic, chemical, 
# crystal, experimental, refinement or atomic coordinate data resulting 
# from the CCDC's data processing and validation procedures.
#
#######################################################################

data_MIFNEV
_symmetry_cell_setting           triclinic
_symmetry_space_group_name_H-M   'P -1'
_symmetry_Int_Tables_number      2
_space_group_name_Hall           '-P 1'
loop_
_symmetry_equiv_pos_site_id
_symmetry_equiv_pos_as_xyz
1 x,y,z
2 -x,-y,-z
_cell_length_a                   8.371(12)
_cell_length_b                   9.952(14)
_cell_length_c                   14.74(2)
_cell_angle_alpha                88.32(2)
_cell_angle_beta                 76.30(2)
_cell_angle_gamma                87.87(2)
_cell_volume                     1191.94
loop_
_atom_site_label
_atom_site_type_symbol
_atom_site_fract_x
_atom_site_fract_y
_atom_site_fract_z
Er1 Er 0.1006(1) 0.1991(1) 0.1230(1)
Na1 Na -0.3393(2) -0.2543(2) 0.1805(1)
O1 O 0.3435(3) 0.0771(2) 0.1108(2)
O2 O 0.6094(3) 0.0796(3) 0.1034(2)
O3 O 0.1674(3) 0.4056(2) 0.0543(2)
O4 O 0.2318(4) 0.6168(3) 0.0659(2)
O5 O -0.0271(3) -0.0026(3) 0.1479(2)
O6 O -0.1119(5) -0.1831(3) 0.2333(2)
O7 O -0.0705(3) 0.3304(3) 0.2319(2)
O8 O -0.1813(4) 0.3799(3) 0.3800(2)
O9 O -0.1203(3) 0.2294(3) 0.0563(2)
O10 O 0.1921(3) 0.1281(3) -0.0332(2)
O11 O -0.5651(4) -0.2043(3) 0.1199(3)
O12 O -0.2450(5) -0.4662(3) 0.1439(2)
O13 O -0.4715(7) -0.2835(10) 0.3317(3)
N1 N 0.2951(3) 0.3203(3) 0.1972(2)
N2 N 0.0823(4) 0.1039(3) 0.2883(2)
C1 C 0.2786(5) 0.2859(4) 0.2996(2)
C2 C 0.4305(6) 0.3172(5) 0.3343(3)
C3 C 0.4063(7) 0.2879(6) 0.4381(3)
C4 C 0.3644(7) 0.1447(6) 0.4599(4)
C5 C 0.2098(6) 0.1115(5) 0.4281(3)
C6 C 0.2293(5) 0.1406(4) 0.3233(3)
C7 C 0.4559(4) 0.2836(4) 0.1365(3)
C8 C 0.4722(4) 0.1355(4) 0.1165(2)
C9 C 0.2680(5) 0.4671(3) 0.1856(3)
C10 C 0.2199(5) 0.4995(4) 0.0948(3)
C11 C 0.0729(5) -0.0425(4) 0.2845(3)
C12 C -0.0308(5) -0.0809(4) 0.2184(3)
C13 C -0.0764(5) 0.1584(4) 0.3448(3)
C14 C -0.1113(4) 0.3016(4) 0.3182(3)
Na1A Na 0.3393(2) 0.2543(2) -0.1805(1)
O10A O -0.1921(3) -0.1281(3) 0.0332(2)
O14 O 0.2168(6) 0.6886(6) 0.4294(3)
O15 O 0.0531(6) 0.3638(4) 0.6335(3)
loop_
_geom_bond_atom_site_label_1
_geom_bond_atom_site_label_2
_geom_bond_site_symmetry_1
_geom_bond_site_symmetry_2
Er1 O1 1_555 1_555
Na1 O6 1_555 1_555
O1 C8 1_555 1_555
O2 C8 1_555 1_555
O3 Er1 1_555 1_555
O4 C10 1_555 1_555
O5 Er1 1_555 1_555
O6 C12 1_555 1_555
O7 Er1 1_555 1_555
O8 C14 1_555 1_555
O9 Er1 1_555 1_555
O10 Er1 1_555 1_555
O11 Na1 1_555 1_555
O12 Na1 1_555 1_555
O13 Na1 1_555 1_555
N1 Er1 1_555 1_555
N2 Er1 1_555 1_555
C1 N1 1_555 1_555
C2 C1 1_555 1_555
C3 C2 1_555 1_555
C4 C3 1_555 1_555
C5 C4 1_555 1_555
C6 N2 1_555 1_555
C7 N1 1_555 1_555
C8 C7 1_555 1_555
C9 N1 1_555 1_555
C10 O3 1_555 1_555
C11 N2 1_555 1_555
C12 O5 1_555 1_555
C13 N2 1_555 1_555
C14 O7 1_555 1_555
Na1A O10 1_555 1_555
O10A Na1 1_555 1_555
C1 C6 1_555 1_555
C5 C6 1_555 1_555
C9 C10 1_555 1_555
C11 C12 1_555 1_555
C13 C14 1_555 1_555

#END
