
#######################################################################
#
#                 Cambridge Crystallographic Data Centre
#                                CCDC 
#
#######################################################################
#
# If this CIF has been generated from an entry in the Cambridge 
# Structural Database, then it will include bibliographic, chemical, 
# crystal, experimental, refinement or atomic coordinate data resulting 
# from the CCDC's data processing and validation procedures.
#
#######################################################################

data_MIFQIC
_symmetry_cell_setting           monoclinic
_symmetry_space_group_name_H-M   'P 21/c'
_symmetry_Int_Tables_number      14
_space_group_name_Hall           '-P 2ybc'
loop_
_symmetry_equiv_pos_site_id
_symmetry_equiv_pos_as_xyz
1 x,y,z
2 -x,1/2+y,1/2-z
3 -x,-y,-z
4 x,1/2-y,1/2+z
_cell_length_a                   12.5775(5)
_cell_length_b                   10.9340(5)
_cell_length_c                   11.6134(5)
_cell_angle_alpha                90
_cell_angle_beta                 108.132(1)
_cell_angle_gamma                90
_cell_volume                     1517.79
loop_
_atom_site_label
_atom_site_type_symbol
_atom_site_fract_x
_atom_site_fract_y
_atom_site_fract_z
Co1 Co 0.5000 0.0000 0.0000
O1 O 1.06841(19) 0.1410(2) 0.0116(2)
O2 O 0.90609(19) 0.0629(2) 0.3103(2)
N1 N 1.0563(2) 0.1229(2) 0.1156(2)
N2 N 0.9784(2) 0.0774(2) 0.2545(2)
N3 N 0.6481(2) 0.1056(2) -0.0041(2)
N4 N 0.4392(2) 0.1703(3) 0.0462(3)
N5 N 0.4257(2) 0.4598(3) 0.3110(3)
N6 N 0.4243(3) 0.3807(3) 0.1134(3)
C1 C 1.2565(3) 0.0681(4) 0.2127(4)
H1 H 1.280(3) 0.120(4) 0.154(4)
H2 H 1.242(3) -0.017(4) 0.185(4)
H3 H 1.315(4) 0.067(4) 0.291(4)
C2 C 1.1745(3) 0.2561(3) 0.2716(4)
H4 H 1.187(3) 0.299(3) 0.213(3)
H5 H 1.112(3) 0.293(3) 0.295(3)
H6 H 1.244(4) 0.261(4) 0.342(4)
C3 C 1.1530(2) 0.1230(3) 0.2318(3)
C4 C 1.1006(2) 0.0469(3) 0.3125(3)
C5 C 1.1383(3) 0.0804(4) 0.4455(3)
H7 H 1.123(3) 0.168(4) 0.458(3)
H8 H 1.098(3) 0.025(4) 0.483(4)
H9 H 1.212(4) 0.060(4) 0.473(4)
C6 C 1.1093(3) -0.0908(3) 0.2943(4)
H10 H 1.062(3) -0.133(3) 0.334(3)
H11 H 1.085(3) -0.116(3) 0.207(4)
H12 H 1.193(4) -0.117(4) 0.335(4)
C7 C 0.9579(2) 0.1092(3) 0.1379(3)
C8 C 0.8470(2) 0.1357(3) 0.0540(3)
C9 C 0.8327(3) 0.2285(3) -0.0320(3)
H13 H 0.896(2) 0.272(3) -0.043(2)
C10 C 0.7261(3) 0.2618(3) -0.0989(3)
H14 H 0.713(3) 0.322(3) -0.154(3)
C11 C 0.6367(3) 0.2009(3) -0.0805(3)
H15 H 0.563(3) 0.230(3) -0.116(3)
C12 C 0.7522(2) 0.0757(3) 0.0629(3)
H16 H 0.759(2) 0.013(3) 0.117(3)
C13 C 0.4332(3) 0.2665(3) 0.0841(3)
C14 C 0.4251(3) 0.4170(3) 0.2203(3)
Co1C Co 0.5000 0.5000 0.5000
Co1C_2 Co 0.5000 -0.5000 -0.5000
O1B O -0.06841(19) -0.1410(2) -0.0116(2)
O2B O 0.09391(19) -0.0629(2) -0.3103(2)
N1B N -0.0563(2) -0.1229(2) -0.1156(2)
N2B N 0.0216(2) -0.0774(2) -0.2545(2)
N3B N 0.3519(2) -0.1056(2) 0.0041(2)
N4B N 0.5608(2) -0.1703(3) -0.0462(3)
N5B N 0.5743(2) -0.4598(3) -0.3110(3)
N5C N 0.4257(2) 0.0402(3) -0.1890(3)
N5A N 0.5743(2) -0.0402(3) 0.1890(3)
N6B N 0.5757(3) -0.3807(3) -0.1134(3)
C1B C -0.2565(3) -0.0681(4) -0.2127(4)
H1B H -0.280(3) -0.120(4) -0.154(4)
H2B H -0.242(3) 0.017(4) -0.185(4)
H3B H -0.315(4) -0.067(4) -0.291(4)
C2B C -0.1745(3) -0.2561(3) -0.2716(4)
H4B H -0.187(3) -0.299(3) -0.213(3)
H5B H -0.112(3) -0.293(3) -0.295(3)
H6B H -0.244(4) -0.261(4) -0.342(4)
C3B C -0.1530(2) -0.1230(3) -0.2318(3)
C4B C -0.1006(2) -0.0469(3) -0.3125(3)
C5B C -0.1383(3) -0.0804(4) -0.4455(3)
H7B H -0.123(3) -0.168(4) -0.458(3)
H8B H -0.098(3) -0.025(4) -0.483(4)
H9B H -0.212(4) -0.060(4) -0.473(4)
C6B C -0.1093(3) 0.0908(3) -0.2943(4)
H10B H -0.062(3) 0.133(3) -0.334(3)
H11B H -0.085(3) 0.116(3) -0.207(4)
H12B H -0.193(4) 0.117(4) -0.335(4)
C7B C 0.0421(2) -0.1092(3) -0.1379(3)
C8B C 0.1530(2) -0.1357(3) -0.0540(3)
C9B C 0.1673(3) -0.2285(3) 0.0320(3)
H13B H 0.104(2) -0.272(3) 0.043(2)
C10B C 0.2739(3) -0.2618(3) 0.0989(3)
H14B H 0.287(3) -0.322(3) 0.154(3)
C11B C 0.3633(3) -0.2009(3) 0.0805(3)
H15B H 0.437(3) -0.230(3) 0.116(3)
C12B C 0.2478(2) -0.0757(3) -0.0629(3)
H16B H 0.241(2) -0.013(3) -0.117(3)
C13B C 0.5668(3) -0.2665(3) -0.0841(3)
C14B C 0.5749(3) -0.4170(3) -0.2203(3)
loop_
_geom_bond_atom_site_label_1
_geom_bond_atom_site_label_2
_geom_bond_site_symmetry_1
_geom_bond_site_symmetry_2
Co1 N3 1_555 1_555
O1 N1 1_555 1_555
O2 N2 1_555 1_555
N1 C3 1_555 1_555
N2 C4 1_555 1_555
N3 C11 1_555 1_555
N4 Co1 1_555 1_555
N5 C14 1_555 1_555
N6 C13 1_555 1_555
C1 H1 1_555 1_555
H2 C1 1_555 1_555
H3 C1 1_555 1_555
C2 H4 1_555 1_555
H5 C2 1_555 1_555
H6 C2 1_555 1_555
C3 C1 1_555 1_555
C4 C3 1_555 1_555
C5 C4 1_555 1_555
H7 C5 1_555 1_555
H8 C5 1_555 1_555
H9 C5 1_555 1_555
C6 C4 1_555 1_555
H10 C6 1_555 1_555
H11 C6 1_555 1_555
H12 C6 1_555 1_555
C7 N1 1_555 1_555
C8 C7 1_555 1_555
C9 C8 1_555 1_555
H13 C9 1_555 1_555
C10 C9 1_555 1_555
H14 C10 1_555 1_555
C11 C10 1_555 1_555
H15 C11 1_555 1_555
C12 N3 1_555 1_555
H16 C12 1_555 1_555
C13 N4 1_555 1_555
C14 N6 1_555 1_555
Co1C N5 1_555 1_555
Co1C_2 N5B 1_555 1_555
O1B N1B 1_555 1_555
O2B N2B 1_555 1_555
N1B C3B 1_555 1_555
N2B C4B 1_555 1_555
N3B Co1 1_555 1_555
N4B Co1 1_555 1_555
N5B C14B 1_555 1_555
N5C Co1 1_555 1_555
N5A Co1 1_555 1_555
N6B C13B 1_555 1_555
C1B H1B 1_555 1_555
H2B C1B 1_555 1_555
H3B C1B 1_555 1_555
C2B H4B 1_555 1_555
H5B C2B 1_555 1_555
H6B C2B 1_555 1_555
C3B C1B 1_555 1_555
C4B C3B 1_555 1_555
C5B C4B 1_555 1_555
H7B C5B 1_555 1_555
H8B C5B 1_555 1_555
H9B C5B 1_555 1_555
C6B C4B 1_555 1_555
H10B C6B 1_555 1_555
H11B C6B 1_555 1_555
H12B C6B 1_555 1_555
C7B N1B 1_555 1_555
C8B C7B 1_555 1_555
C9B C8B 1_555 1_555
H13B C9B 1_555 1_555
C10B C9B 1_555 1_555
H14B C10B 1_555 1_555
C11B N3B 1_555 1_555
H15B C11B 1_555 1_555
C12B N3B 1_555 1_555
H16B C12B 1_555 1_555
C13B N4B 1_555 1_555
C14B N6B 1_555 1_555
N2 C7 1_555 1_555
C2 C3 1_555 1_555
C8 C12 1_555 1_555
N2B C7B 1_555 1_555
C2B C3B 1_555 1_555
C8B C12B 1_555 1_555
C10B C11B 1_555 1_555

#END
