
#######################################################################
#
#                 Cambridge Crystallographic Data Centre
#                                CCDC 
#
#######################################################################
#
# If this CIF has been generated from an entry in the Cambridge 
# Structural Database, then it will include bibliographic, chemical, 
# crystal, experimental, refinement or atomic coordinate data resulting 
# from the CCDC's data processing and validation procedures.
#
#######################################################################

data_MIFTUS
_symmetry_cell_setting           tetragonal
_symmetry_space_group_name_H-M   'I 41/a'
_symmetry_Int_Tables_number      88
_space_group_name_Hall           '-I 4ad'
loop_
_symmetry_equiv_pos_site_id
_symmetry_equiv_pos_as_xyz
1 x,y,z
2 3/4-y,1/4+x,1/4+z
3 -x,1/2-y,z
4 1/4+y,1/4-x,1/4+z
5 1/2+x,1/2+y,1/2+z
6 1/4-y,3/4+x,3/4+z
7 1/2-x,-y,1/2+z
8 3/4+y,3/4-x,3/4+z
9 -x,-y,-z
10 1/4+y,3/4-x,3/4-z
11 x,1/2+y,-z
12 3/4-y,3/4+x,3/4-z
13 1/2-x,1/2-y,1/2-z
14 3/4+y,1/4-x,1/4-z
15 1/2+x,y,1/2-z
16 1/4-y,1/4+x,1/4-z
_cell_length_a                   45.204(2)
_cell_length_b                   45.204(2)
_cell_length_c                   10.7836(5)
_cell_angle_alpha                90
_cell_angle_beta                 90
_cell_angle_gamma                90
_cell_volume                     22035.2
loop_
_atom_site_label
_atom_site_type_symbol
_atom_site_fract_x
_atom_site_fract_y
_atom_site_fract_z
C1 C 1.05870(19) 0.8582(2) -0.2736(7)
H1 H 1.0507 0.8651 -0.1997
C2 C 1.13619(18) 0.87465(18) -0.6094(8)
C3 C 0.8444(2) 0.9145(2) -0.2665(8)
C4 C 1.0624(2) 0.8286(2) -0.2899(8)
H2 H 1.0569 0.8154 -0.2280
C5 C 1.0742(2) 0.8187(2) -0.3973(8)
H3 H 1.0768 0.7985 -0.4101
C6 C 1.08229(19) 0.83846(19) -0.4870(7)
C7 C 1.0948(2) 0.82681(19) -0.6080(7)
C8 C 1.07825(17) 0.86798(19) -0.4659(7)
C9 C 1.08480(19) 0.89146(18) -0.5553(8)
C10 C 0.8553(3) 0.9501(3) -0.0271(12)
C11 C 1.1094(2) 0.89346(19) -0.6290(7)
C12 C 1.1105(2) 0.91561(18) -0.7141(8)
H4 H 1.1268 0.9172 -0.7665
C13 C 1.0882(2) 0.9353(2) -0.7230(9)
H5 H 1.0882 0.9497 -0.7848
C14 C 1.0657(2) 0.9338(2) -0.6398(8)
H6 H 1.0510 0.9483 -0.6412
C15 C 1.1117(2) 0.9336(2) -0.3623(8)
H7 H 1.1151 0.9141 -0.3394
C16 C 1.1348(2) 0.9500(2) -0.4067(10)
H8 H 1.1539 0.9423 -0.4095
C17 C 1.1289(2) 0.9777(2) -0.4464(10)
H9 H 1.1440 0.9889 -0.4818
C18 C 1.1013(2) 0.9896(2) -0.4353(8)
C19 C 1.0799(2) 0.9727(2) -0.3802(8)
C20 C 1.0495(2) 0.9823(2) -0.3604(8)
C21 C 1.0417(2) 1.00882(19) -0.3085(9)
C22 C 1.0124(2) 1.01539(19) -0.3012(8)
H10 H 1.0063 1.0334 -0.2684
C23 C 0.99205(19) 0.99571(19) -0.3417(8)
H11 H 0.9720 1.0005 -0.3400
C24 C 1.0009(2) 0.9691(2) -0.3844(8)
H12 H 0.9868 0.9552 -0.4080
C25 C 1.0635(2) 1.02862(19) -0.2471(8)
C26 C 1.0955(2) 1.0189(2) -0.4952(9)
C27 C 1.0386(2) 0.9422(2) -0.1108(8)
H13 H 1.0588 0.9462 -0.1100
C28 C 1.0213(2) 0.9562(2) -0.0285(8)
H14 H 1.0291 0.9690 0.0305
C29 C 0.9918(2) 0.9509(2) -0.0350(8)
H15 H 0.9791 0.9606 0.0197
C30 C 0.98008(19) 0.93162(19) -0.1206(7)
C31 C 1.00000(19) 0.91631(18) -0.1938(7)
C32 C 0.99269(18) 0.89271(19) -0.2818(7)
C33 C 0.97466(19) 0.86922(18) -0.2592(7)
C34 C 0.97198(19) 0.84785(19) -0.3458(8)
H16 H 0.9602 0.8314 -0.3301
C35 C 0.98656(18) 0.85026(19) -0.4568(7)
H17 H 0.9844 0.8360 -0.5184
C36 C 1.00412(19) 0.8741(2) -0.4733(8)
H18 H 1.0142 0.8760 -0.5481
C37 C 0.9580(2) 0.86602(19) -0.1394(8)
C38 C 0.94773(19) 0.92952(19) -0.1344(7)
C39 C 0.7700(4) 0.8863(4) -0.1135(14)
H19 H 0.7536 0.8782 -0.0742
C40 C 0.7841(4) 0.8675(4) -0.1702(14)
H20 H 0.7777 0.8483 -0.1859
C41 C 0.8093(4) 0.8787(4) -0.2049(14)
H21 H 0.8233 0.8655 -0.2352
C42 C 0.8173(2) 0.9081(2) -0.2013(9)
C43 C 0.8006(4) 0.9291(4) -0.1510(14)
C44 C 0.8073(4) 0.9602(4) -0.1537(14)
C45 C 0.8326(4) 0.9682(4) -0.1059(14)
C46 C 0.8397(4) 0.9997(4) -0.1386(13)
H22 H 0.8581 1.0068 -0.1138
C47 C 0.8209(3) 1.0201(4) -0.2047(14)
H23 H 0.8261 1.0387 -0.2344
C48 C 0.7941(4) 1.0069(4) -0.2151(14)
H24 H 0.7787 1.0195 -0.2371
N1 N 1.06629(15) 0.87743(16) -0.3613(6)
N2 N 1.06401(15) 0.91220(16) -0.5562(6)
N3 N 1.08478(17) 0.94429(17) -0.3503(7)
N4 N 1.02902(17) 0.96232(17) -0.3934(7)
N5 N 1.02844(15) 0.92291(17) -0.1931(6)
N6 N 1.00767(15) 0.89489(16) -0.3877(6)
N7 N 0.7865(3) 0.9791(3) -0.1988(12)
N8 N 0.7721(3) 0.9158(3) -0.0929(11)
O1 O 1.11419(14) 0.80785(13) -0.5983(6)
O2 O 1.08474(14) 0.83706(13) -0.7049(5)
O3 O 1.14059(13) 0.86670(13) -0.5000(5)
O4 O 1.15198(13) 0.87000(13) -0.6974(6)
O5 O 1.11593(14) 1.03773(14) -0.4874(6)
O6 O 1.07309(16) 1.02317(17) -0.5549(9)
O7 O 1.06722(14) 1.05422(13) -0.2852(6)
O8 O 1.07622(15) 1.01959(14) -0.1526(6)
O9 O 0.93166(14) 0.85823(15) -0.1479(5)
O10 O 0.97129(14) 0.87166(14) -0.0411(5)
O11 O 0.93831(13) 0.92345(14) -0.2373(5)
O12 O 0.93275(13) 0.93598(13) -0.0426(6)
O13 O 0.94221(13) 0.89543(14) 0.1445(5)
H25 H 0.9398 0.8847 0.2095
H26 H 0.9439 0.8841 0.0808
O14 O 0.88981(13) 0.88647(13) -0.0124(5)
H27 H 0.8763 0.8741 0.0221
H28 H 0.8823 0.8923 -0.0860
O15 O 0.86764(14) 0.95120(14) 0.2531(6)
H29 H 0.8492 0.9435 0.2484
H30 H 0.8733 0.9497 0.3332
O16 O 0.8775(2) 0.9598(2) -0.0197(10)
O17 O 0.8452(2) 0.9302(2) 0.0419(10)
O18 O 0.86824(19) 0.90446(19) -0.2248(7)
O19 O 0.84438(14) 0.92921(15) -0.3634(5)
O20 O 0.8903(2) 0.9642(2) -0.2396(9)
H31 H 0.8806 0.9795 -0.2762
H32 H 0.8788 0.9582 -0.1753
O21 O 0.90820(16) 0.87364(14) -0.3615(5)
H33 H 0.9130 0.8685 -0.2835
H34 H 0.8920 0.8632 -0.3819
O22 O 0.94242(13) 0.91534(14) -0.5087(5)
H35 H 0.9414 0.8978 -0.5400
H36 H 0.9430 0.9281 -0.5682
Co1 Co 1.04635(3) 0.91876(3) -0.37482(10)
Gd1 Gd 0.900975(9) 0.927196(10) 0.11899(4)
Gd2 Gd 0.900125(9) 0.924602(10) -0.38046(4)
O3K O 0.88330(13) 0.89059(13) 0.2500(5)
O4K O 0.88000(13) 0.90198(13) -0.5526(6)
O5H O 0.88407(14) 0.96227(14) -0.5126(6)
O6H O 0.92691(16) 0.97683(17) -0.4451(9)
O7H O 0.93278(14) 0.94578(13) 0.2852(6)
O8H O 0.92378(15) 0.98041(14) 0.1526(6)
Gd1H Gd 1.099025(9) 1.072804(10) -0.11899(4)
Gd1I Gd 1.177196(10) 0.849025(9) -0.36899(4)
Gd2H Gd 1.099875(9) 1.075398(10) -0.61954(4)
Gd2I Gd 1.174602(10) 0.849875(9) -0.86954(4)
O23 O 1.0692(2) 0.9977(2) 0.1175(9)
O24 O 0.9986(2) 1.0829(2) -0.2458(10)
O25 O 0.7257(3) 0.9818(2) -0.1532(10)
O26 O 0.8083(3) 0.9583(3) 0.2646(12)
O27 O 1.0392(5) 0.8695(4) -0.787(2)
O28 O 0.7736(6) 1.0674(5) -0.245(2)
loop_
_geom_bond_atom_site_label_1
_geom_bond_atom_site_label_2
_geom_bond_site_symmetry_1
_geom_bond_site_symmetry_2
C1 H1 1_555 1_555
C2 C11 1_555 1_555
C3 C42 1_555 1_555
C4 C1 1_555 1_555
H2 C4 1_555 1_555
C5 C4 1_555 1_555
H3 C5 1_555 1_555
C6 C5 1_555 1_555
C7 C6 1_555 1_555
C8 C6 1_555 1_555
C9 C8 1_555 1_555
C10 C45 1_555 1_555
C11 C9 1_555 1_555
C12 C11 1_555 1_555
H4 C12 1_555 1_555
C13 C12 1_555 1_555
H5 C13 1_555 1_555
C14 C13 1_555 1_555
H6 C14 1_555 1_555
C15 H7 1_555 1_555
C16 C15 1_555 1_555
H8 C16 1_555 1_555
C17 C16 1_555 1_555
H9 C17 1_555 1_555
C18 C17 1_555 1_555
C19 C18 1_555 1_555
C20 C19 1_555 1_555
C21 C20 1_555 1_555
C22 C21 1_555 1_555
H10 C22 1_555 1_555
C23 C22 1_555 1_555
H11 C23 1_555 1_555
C24 C23 1_555 1_555
H12 C24 1_555 1_555
C25 C21 1_555 1_555
C26 C18 1_555 1_555
C27 H13 1_555 1_555
C28 C27 1_555 1_555
H14 C28 1_555 1_555
C29 C28 1_555 1_555
H15 C29 1_555 1_555
C30 C29 1_555 1_555
C31 C30 1_555 1_555
C32 C31 1_555 1_555
C33 C32 1_555 1_555
C34 C33 1_555 1_555
H16 C34 1_555 1_555
C35 C34 1_555 1_555
H17 C35 1_555 1_555
C36 C35 1_555 1_555
H18 C36 1_555 1_555
C37 C33 1_555 1_555
C38 C30 1_555 1_555
C39 H19 1_555 1_555
C40 C39 1_555 1_555
H20 C40 1_555 1_555
C41 C40 1_555 1_555
H21 C41 1_555 1_555
C42 C41 1_555 1_555
C43 C42 1_555 1_555
C44 C43 1_555 1_555
C45 C44 1_555 1_555
C46 C45 1_555 1_555
H22 C46 1_555 1_555
C47 C46 1_555 1_555
H23 C47 1_555 1_555
C48 C47 1_555 1_555
H24 C48 1_555 1_555
N1 C1 1_555 1_555
N2 C9 1_555 1_555
N3 C15 1_555 1_555
N4 C20 1_555 1_555
N5 C27 1_555 1_555
N6 C32 1_555 1_555
N7 C44 1_555 1_555
N8 C39 1_555 1_555
O1 C7 1_555 1_555
O2 C7 1_555 1_555
O3 C2 1_555 1_555
O4 C2 1_555 1_555
O5 C26 1_555 1_555
O6 C26 1_555 1_555
O7 C25 1_555 1_555
O8 C25 1_555 1_555
O9 C37 1_555 1_555
O10 C37 1_555 1_555
O11 C38 1_555 1_555
O12 C38 1_555 1_555
O13 H25 1_555 1_555
H26 O13 1_555 1_555
O14 H27 1_555 1_555
H28 O14 1_555 1_555
O15 H29 1_555 1_555
H30 O15 1_555 1_555
O16 C10 1_555 1_555
O17 C10 1_555 1_555
O18 C3 1_555 1_555
O19 C3 1_555 1_555
O20 H31 1_555 1_555
H32 O20 1_555 1_555
O21 H33 1_555 1_555
H34 O21 1_555 1_555
O22 H35 1_555 1_555
H36 O22 1_555 1_555
Co1 N1 1_555 1_555
Gd1 O12 1_555 1_555
Gd2 O11 1_555 1_555
O3K Gd1 1_555 1_555
O4K Gd2 1_555 1_555
O5H Gd2 1_555 1_555
O6H Gd2 1_555 1_555
O7H Gd1 1_555 1_555
O8H Gd1 1_555 1_555
Gd1H O7 1_555 1_555
Gd1I O3 1_555 1_555
Gd2H O5 1_555 1_555
Gd2I O4 1_555 1_555
C8 N1 1_555 1_555
C14 N2 1_555 1_555
C19 N3 1_555 1_555
C24 N4 1_555 1_555
C31 N5 1_555 1_555
C36 N6 1_555 1_555
C43 N8 1_555 1_555
C48 N7 1_555 1_555
N2 Co1 1_555 1_555
N3 Co1 1_555 1_555
N4 Co1 1_555 1_555
N5 Co1 1_555 1_555
N6 Co1 1_555 1_555
O6 Gd2H 1_555 1_555
O8 Gd1H 1_555 1_555
O13 Gd1 1_555 1_555
O14 Gd1 1_555 1_555
O15 Gd1 1_555 1_555
O16 Gd1 1_555 1_555
O17 Gd1 1_555 1_555
O18 Gd2 1_555 1_555
O19 Gd2 1_555 1_555
O20 Gd2 1_555 1_555
O21 Gd2 1_555 1_555
O22 Gd2 1_555 1_555

#END
