
#######################################################################
#
#                 Cambridge Crystallographic Data Centre
#                                CCDC 
#
#######################################################################
#
# If this CIF has been generated from an entry in the Cambridge 
# Structural Database, then it will include bibliographic, chemical, 
# crystal, experimental, refinement or atomic coordinate data resulting 
# from the CCDC's data processing and validation procedures.
#
#######################################################################

data_MIFVII
_symmetry_cell_setting           monoclinic
_symmetry_space_group_name_H-M   'C 2'
_symmetry_Int_Tables_number      5
_space_group_name_Hall           'C 2y'
loop_
_symmetry_equiv_pos_site_id
_symmetry_equiv_pos_as_xyz
1 x,y,z
2 -x,y,-z
3 1/2+x,1/2+y,z
4 1/2-x,1/2+y,-z
_cell_length_a                   16.4467(3)
_cell_length_b                   8.3661(2)
_cell_length_c                   9.1549(2)
_cell_angle_alpha                90
_cell_angle_beta                 107.6420(10)
_cell_angle_gamma                90
_cell_volume                     1200.42
loop_
_atom_site_label
_atom_site_type_symbol
_atom_site_fract_x
_atom_site_fract_y
_atom_site_fract_z
C1 C 0.90522(15) 0.9902(3) 0.7830(3)
C2 C 0.33883(16) 0.9343(4) 0.8625(3)
H1 H 0.301(2) 0.843(5) 0.843(4)
H2 H 0.313(2) 1.028(5) 0.805(4)
C3 C 0.44792(18) 0.9881(4) 0.7411(3)
H3 H 0.4634 1.0866 0.8032
H4 H 0.4086 1.0166 0.6392
C4 C 0.52671(16) 0.9068(3) 0.7250(3)
H5 H 0.5097 0.8156 0.6533
H6 H 0.5593 0.9831 0.6818
C5 C 0.62728(17) 0.9838(3) 0.9711(3)
H7 H 0.5879 1.0755 0.9613
H8 H 0.6752 1.0182 0.9342
C6 C 0.64218(12) 0.7244(4) 0.8519(2)
H9 H 0.6087 0.6287 0.8062
H10 H 0.6808 0.6929 0.9536
C7 C 0.69654(14) 0.7721(3) 0.7516(3)
C8 C 0.67331(13) 0.7219(4) 0.5994(2)
H11 H 0.6214 0.6652 0.5575
C9 C 0.72525(15) 0.7539(3) 0.5080(3)
H12 H 0.7091 0.7177 0.4048
C10 C 0.80036(16) 0.8383(3) 0.5674(3)
H13 H 0.8357 0.8602 0.5047
C11 C 0.82456(14) 0.8915(3) 0.7193(3)
C12 C 0.77271(14) 0.8565(3) 0.8108(3)
H14 H 0.7894 0.8906 0.9146
Co1 Co 0.5000 0.72994(2) 1.0000
N1 N 0.58147(13) 0.8486(3) 0.8759(2)
O1 O 0.95741(14) 0.9994(3) 0.7095(2)
O2 O 0.91170(11) 1.0608(2) 0.9079(2)
O3 O 0.40907(11) 0.8748(2) 0.8158(2)
C1A C 0.09478(15) 0.9902(3) 1.2170(3)
C2A C 0.66117(16) 0.9343(4) 1.1375(3)
H1A H 0.699(2) 0.843(5) 1.157(4)
H2A H 0.687(2) 1.028(5) 1.195(4)
C3A C 0.55208(18) 0.9881(4) 1.2589(3)
H3A H 0.5366 1.0866 1.1968
H4A H 0.5914 1.0166 1.3608
C4A C 0.47329(16) 0.9068(3) 1.2750(3)
H5A H 0.4903 0.8156 1.3467
H6A H 0.4407 0.9831 1.3182
C5A C 0.37272(17) 0.9838(3) 1.0289(3)
H7A H 0.4121 1.0755 1.0387
H8A H 0.3248 1.0182 1.0658
C6A C 0.35782(12) 0.7244(4) 1.1481(2)
H9A H 0.3913 0.6287 1.1938
H10A H 0.3192 0.6929 1.0464
C7A C 0.30346(14) 0.7721(3) 1.2484(3)
C8A C 0.32669(13) 0.7219(4) 1.4006(2)
H11A H 0.3786 0.6652 1.4425
C9A C 0.27475(15) 0.7539(3) 1.4920(3)
H12A H 0.2909 0.7177 1.5952
C10A C 0.19964(16) 0.8383(3) 1.4326(3)
H13A H 0.1643 0.8602 1.4953
C11A C 0.17544(14) 0.8915(3) 1.2807(3)
C12A C 0.22729(14) 0.8565(3) 1.1892(3)
H14A H 0.2106 0.8906 1.0854
N1A N 0.41853(13) 0.8486(3) 1.1241(2)
O1A O 0.04259(14) 0.9994(3) 1.2905(2)
O2A O 0.08830(11) 1.0608(2) 1.0921(2)
O3A O 0.59093(11) 0.8748(2) 1.1842(2)
Co1B Co 0.0000 1.22994(2) 1.0000
Co1B_2 Co 1.0000 1.22994(2) 1.0000
O2B O 0.41170(11) 0.5608(2) 0.9079(2)
O2C O 0.58830(11) 0.5608(2) 1.0921(2)
O4 O 0.5000 0.3011(5) 0.5000
H15 H 0.5359 0.3425 0.4612
H15A H 0.4641 0.3425 0.5388
O5 O 0.6247(3) 0.3163(5) 0.8004(5)
H16? H 0.4562 0.2884 0.4149
loop_
_geom_bond_atom_site_label_1
_geom_bond_atom_site_label_2
_geom_bond_site_symmetry_1
_geom_bond_site_symmetry_2
C1 C11 1_555 1_555
C2 H1 1_555 1_555
H2 C2 1_555 1_555
C3 H3 1_555 1_555
H4 C3 1_555 1_555
C4 C3 1_555 1_555
H5 C4 1_555 1_555
H6 C4 1_555 1_555
C5 H7 1_555 1_555
H8 C5 1_555 1_555
C6 H9 1_555 1_555
H10 C6 1_555 1_555
C7 C6 1_555 1_555
C8 C7 1_555 1_555
H11 C8 1_555 1_555
C9 C8 1_555 1_555
H12 C9 1_555 1_555
C10 C9 1_555 1_555
H13 C10 1_555 1_555
C11 C10 1_555 1_555
C12 C7 1_555 1_555
H14 C12 1_555 1_555
Co1 N1 1_555 1_555
N1 C4 1_555 1_555
O1 C1 1_555 1_555
O2 C1 1_555 1_555
O3 C2 1_555 1_555
O4 H15 1_555 1_555
C1A C11A 1_555 1_555
C2A C5 1_555 1_555
H1A C2A 1_555 1_555
H2A C2A 1_555 1_555
C3A H3A 1_555 1_555
H4A C3A 1_555 1_555
C4A C3A 1_555 1_555
H5A C4A 1_555 1_555
H6A C4A 1_555 1_555
C5A C2 1_555 1_555
H7A C5A 1_555 1_555
H8A C5A 1_555 1_555
C6A H9A 1_555 1_555
H10A C6A 1_555 1_555
C7A C6A 1_555 1_555
C8A C7A 1_555 1_555
H11A C8A 1_555 1_555
C9A C8A 1_555 1_555
H12A C9A 1_555 1_555
C10A C9A 1_555 1_555
H13A C10A 1_555 1_555
C11A C10A 1_555 1_555
C12A C7A 1_555 1_555
H14A C12A 1_555 1_555
N1A Co1 1_555 1_555
O1A C1A 1_555 1_555
O2A C1A 1_555 1_555
O3A Co1 1_555 1_555
Co1B O2A 1_555 1_555
Co1B_2 O2 1_555 1_555
O2B Co1 1_555 1_555
O2C Co1 1_555 1_555
H15A O4 1_555 1_555
C3 O3 1_555 1_555
C5 N1 1_555 1_555
C6 N1 1_555 1_555
C11 C12 1_555 1_555
Co1 O3 1_555 1_555
C2A O3A 1_555 1_555
C3A O3A 1_555 1_555
C4A N1A 1_555 1_555
C5A N1A 1_555 1_555
C6A N1A 1_555 1_555
C11A C12A 1_555 1_555

#END
