
#######################################################################
#
#                 Cambridge Crystallographic Data Centre
#                                CCDC 
#
#######################################################################
#
# If this CIF has been generated from an entry in the Cambridge 
# Structural Database, then it will include bibliographic, chemical, 
# crystal, experimental, refinement or atomic coordinate data resulting 
# from the CCDC's data processing and validation procedures.
#
#######################################################################

data_MIFWIJ
_symmetry_cell_setting           monoclinic
_symmetry_space_group_name_H-M   'P 21/n'
_symmetry_Int_Tables_number      14
_space_group_name_Hall           '-P 2yn'
loop_
_symmetry_equiv_pos_site_id
_symmetry_equiv_pos_as_xyz
1 x,y,z
2 1/2-x,1/2+y,1/2-z
3 -x,-y,-z
4 1/2+x,1/2-y,1/2+z
_cell_length_a                   7.243(3)
_cell_length_b                   19.491(8)
_cell_length_c                   16.623(7)
_cell_angle_alpha                90
_cell_angle_beta                 91.800(5)
_cell_angle_gamma                90
_cell_volume                     2345.57
loop_
_atom_site_label
_atom_site_type_symbol
_atom_site_fract_x
_atom_site_fract_y
_atom_site_fract_z
O1 O 0.27187(13) 0.15298(5) 0.42981(5)
H1 H 0.35503(18) 0.16520(18) 0.46222(11)
H2 H 0.2686(18) 0.17891(7) 0.39015(7)
Co1 Co 0.66898(5) 0.195217(19) 0.66475(2)
N1 N 0.5763(3) 0.09811(13) 0.64620(15)
N2 N 0.5608(5) -0.01425(15) 0.6230(2)
N3 N 0.3970(4) 0.01552(14) 0.60887(17)
N4 N 0.1937(4) -0.18111(15) 0.71563(19)
N5 N 0.2978(4) -0.18498(17) 0.7833(2)
N6 N 0.0471(3) -0.24964(13) 0.79260(16)
O2 O 0.7904(3) 0.25396(12) 0.58454(12)
O3 O 0.5290(3) 0.21838(12) 0.53171(13)
O4 O 0.3201(3) 0.30015(11) 0.26522(13)
O5 O 0.4949(3) 0.36807(14) 0.19467(13)
C1 C 0.6988(4) 0.29967(15) 0.45695(17)
C2 C 0.5743(4) 0.29743(14) 0.39251(17)
H3 H 0.4745 0.2674 0.3934
C3 C 0.5970(4) 0.33963(15) 0.32652(16)
C4 C 0.7449(4) 0.38440(15) 0.32680(17)
H4 H 0.7609 0.4124 0.2823
C5 C 0.8697(4) 0.38875(15) 0.39123(17)
C6 C 0.8454(4) 0.34478(15) 0.45646(17)
H5 H 0.9290 0.3460 0.5000
C7 C 0.6710(4) 0.25429(15) 0.52787(18)
C8 C 0.4620(4) 0.33635(16) 0.25635(18)
C9 C 1.0229(4) 0.43868(16) 0.39098(18)
C10 C 0.9955(5) 0.50416(18) 0.3610(2)
H6 H 0.8777 0.5172 0.3432
C11 C 1.1376(5) 0.55031(19) 0.3568(2)
H7 H 1.1146 0.5939 0.3360
C12 C 1.3137(5) 0.53318(18) 0.3830(2)
C13 C 1.3415(5) 0.46750(19) 0.4145(2)
H8 H 1.4585 0.4548 0.4336
C14 C 1.1986(4) 0.42142(17) 0.4175(2)
H9 H 1.2210 0.3777 0.4379
C15 C 1.4696(6) 0.5830(2) 0.3794(3)
H10 H 1.4380 0.6188 0.3418
H11 H 1.5785 0.5597 0.3625
H12 H 1.4927 0.6026 0.4318
C16 C 0.4084(5) 0.08152(17) 0.6226(2)
H13 H 0.3107 0.1123 0.6165
C17 C 0.6651(5) 0.03794(18) 0.6476(3)
H14 H 0.7882 0.0332 0.6643
C18 C 0.2331(6) -0.0242(2) 0.5827(3)
H15 H 0.2640 -0.0527 0.5373
H16 H 0.1361 0.0071 0.5650
C19 C 0.1615(5) -0.06968(19) 0.6498(2)
H17 H 0.1836 -0.0472 0.7013
H18 H 0.0293 -0.0759 0.6420
C20 C 0.2526(6) -0.1370(2) 0.6509(3)
H19 H 0.2268 -0.1598 0.5998
H20 H 0.3852 -0.1303 0.6562
C21 C 0.0483(5) -0.21936(17) 0.7220(2)
H21 H -0.0430 -0.2246 0.6819
C22 C 0.2051(5) -0.22745(19) 0.8275(2)
H22 H 0.2454 -0.2411 0.8787
Co1A Co -0.16898(5) -0.304783(19) 0.83525(2)
Co1C Co 0.16898(5) 0.304783(19) 0.16475(2)
N6A N 0.4529(3) 0.25036(13) 0.70740(16)
O4C O 0.8201(3) 0.19985(11) 0.76522(13)
O6 O 0.4955(6) 0.3850(2) 0.0280(2)
H23 H 0.4241 0.3559 0.0462
H24 H 0.6007 0.3685 0.0231
loop_
_geom_bond_atom_site_label_1
_geom_bond_atom_site_label_2
_geom_bond_site_symmetry_1
_geom_bond_site_symmetry_2
O1 H1 1_555 1_555
H2 O1 1_555 1_555
Co1 N1 1_555 1_555
N1 C16 1_555 1_555
N2 N3 1_555 1_555
N3 C16 1_555 1_555
N4 N5 1_555 1_555
N5 C22 1_555 1_555
N6 C21 1_555 1_555
O2 Co1 1_555 1_555
O3 Co1 1_555 1_555
O4 C8 1_555 1_555
O5 C8 1_555 1_555
C1 C2 1_555 1_555
C2 H3 1_555 1_555
C3 C2 1_555 1_555
C4 C3 1_555 1_555
H4 C4 1_555 1_555
C5 C4 1_555 1_555
C6 C1 1_555 1_555
H5 C6 1_555 1_555
C7 O2 1_555 1_555
C8 C3 1_555 1_555
C9 C5 1_555 1_555
C10 C9 1_555 1_555
H6 C10 1_555 1_555
C11 C10 1_555 1_555
H7 C11 1_555 1_555
C12 C11 1_555 1_555
C13 C12 1_555 1_555
H8 C13 1_555 1_555
C14 C9 1_555 1_555
H9 C14 1_555 1_555
C15 C12 1_555 1_555
H10 C15 1_555 1_555
H11 C15 1_555 1_555
H12 C15 1_555 1_555
C16 H13 1_555 1_555
C17 N1 1_555 1_555
H14 C17 1_555 1_555
C18 N3 1_555 1_555
H15 C18 1_555 1_555
H16 C18 1_555 1_555
C19 C18 1_555 1_555
H17 C19 1_555 1_555
H18 C19 1_555 1_555
C20 N4 1_555 1_555
H19 C20 1_555 1_555
H20 C20 1_555 1_555
C21 N4 1_555 1_555
H21 C21 1_555 1_555
C22 N6 1_555 1_555
H22 C22 1_555 1_555
O6 H23 1_555 1_555
H24 O6 1_555 1_555
Co1A N6 1_555 1_555
Co1C O4 1_555 1_555
N6A Co1 1_555 1_555
O4C Co1 1_555 1_555
N2 C17 1_555 1_555
O3 C7 1_555 1_555
C1 C7 1_555 1_555
C5 C6 1_555 1_555
C13 C14 1_555 1_555
C19 C20 1_555 1_555

#END
