
#######################################################################
#
#                 Cambridge Crystallographic Data Centre
#                                CCDC 
#
#######################################################################
#
# If this CIF has been generated from an entry in the Cambridge 
# Structural Database, then it will include bibliographic, chemical, 
# crystal, experimental, refinement or atomic coordinate data resulting 
# from the CCDC's data processing and validation procedures.
#
#######################################################################

data_MIFZUX
_symmetry_cell_setting           monoclinic
_symmetry_space_group_name_H-M   'C 2/c'
_symmetry_Int_Tables_number      15
_space_group_name_Hall           '-C 2yn'
loop_
_symmetry_equiv_pos_site_id
_symmetry_equiv_pos_as_xyz
1 x,y,z
2 1/2+x,1/2+y,z
3 -x,y,1/2-z
4 1/2-x,1/2+y,1/2-z
5 -x,-y,-z
6 1/2-x,1/2-y,-z
7 x,-y,1/2+z
8 1/2+x,1/2-y,1/2+z
_cell_length_a                   16.098(6)
_cell_length_b                   11.550(4)
_cell_length_c                   10.687(4)
_cell_angle_alpha                90
_cell_angle_beta                 128.349(5)
_cell_angle_gamma                90
_cell_volume                     1558.34
loop_
_atom_site_label
_atom_site_type_symbol
_atom_site_fract_x
_atom_site_fract_y
_atom_site_fract_z
Cu1 Cu 1.0000 0.55003(7) 0.7500
C1 C 0.8162(3) 0.4702(3) 0.7079(4)
H1 H 0.7953 0.4219 0.6234
C2 C 0.8950(3) 0.5942(3) 0.8917(4)
H2 H 0.9431 0.6509 0.9610
C3 C 0.6806(3) 0.4100(4) 0.7408(5)
H3 H 0.6478 0.3664 0.6430
H4 H 0.6279 0.4623 0.7258
C4 C 0.7177(3) 0.3277(3) 0.8767(4)
C5 C 0.8028(3) 0.2532(3) 0.9363(5)
H5 H 0.8388 0.2551 0.8940
C6 C 0.6656(3) 0.3236(3) 0.9419(4)
H6 H 0.6088 0.3731 0.9035
N1 N 0.8975(3) 0.5426(3) 0.7800(4)
N2 N 0.8187(3) 0.5572(3) 0.8931(4)
N3 N 0.7692(3) 0.4769(3) 0.7740(3)
Cu1G Cu 0.5000 -0.05003(7) 1.2500
C1E C 0.6838(3) 0.0298(3) 1.2921(4)
H1E H 0.7047 0.0781 1.3766
C2E C 0.6050(3) -0.0942(3) 1.1083(4)
H2E H 0.5569 -0.1509 1.0390
C3E C 0.8194(3) 0.0900(4) 1.2592(5)
H3E H 0.8522 0.1336 1.3570
H4E H 0.8721 0.0377 1.2742
C4E C 0.7823(3) 0.1723(3) 1.1233(4)
C5E C 0.6972(3) 0.2468(3) 1.0637(5)
H5E H 0.6612 0.2449 1.1060
C6E C 0.8344(3) 0.1764(3) 1.0581(4)
H6E H 0.8912 0.1269 1.0965
N1E N 0.6025(3) -0.0426(3) 1.2200(4)
N1B N 1.1025(3) 0.5426(3) 0.7200(4)
N2E N 0.6813(3) -0.0572(3) 1.1069(4)
N3E N 0.7308(3) 0.0231(3) 1.2260(3)
Cl1 Cl 0.5000 0.67676(13) 0.7500
O1 O 0.4610(15) 0.7125(15) 0.840(2)
O2 O 0.5716(14) 0.5829(14) 0.838(2)
O1B O 0.5390(15) 0.7125(15) 0.660(2)
O2B O 0.4284(14) 0.5829(14) 0.662(2)
O3? O 0.4091(12) 0.6380(15) 0.5978(12)
O4? O 0.5486(13) 0.7722(13) 0.7406(19)
O5? O 0.5238(10) 0.5799(9) 0.8375(14)
O6? O 0.3811(6) 0.6946(11) 0.6356(13)
O7? O 0.5456(10) 0.7812(9) 0.8234(14)
O8? O 0.5214(9) 0.6559(11) 0.6319(11)
loop_
_geom_bond_atom_site_label_1
_geom_bond_atom_site_label_2
_geom_bond_site_symmetry_1
_geom_bond_site_symmetry_2
Cu1 N1 1_555 1_555
C1 H1 1_555 1_555
C2 H2 1_555 1_555
C3 H3 1_555 1_555
H4 C3 1_555 1_555
C4 C3 1_555 1_555
C5 C4 1_555 1_555
H5 C5 1_555 1_555
C6 C4 1_555 1_555
H6 C6 1_555 1_555
N1 C1 1_555 1_555
N2 C2 1_555 1_555
N3 C1 1_555 1_555
Cl1 O1 1_555 1_555
O2 Cl1 1_555 1_555
Cu1G N1E 1_555 1_555
C1E H1E 1_555 1_555
C2E H2E 1_555 1_555
C3E H3E 1_555 1_555
H4E C3E 1_555 1_555
C4E C3E 1_555 1_555
C5E C6 1_555 1_555
H5E C5E 1_555 1_555
C6E C5 1_555 1_555
H6E C6E 1_555 1_555
N1E C1E 1_555 1_555
N1B Cu1 1_555 1_555
N2E C2E 1_555 1_555
N3E C1E 1_555 1_555
O1B Cl1 1_555 1_555
O2B Cl1 1_555 1_555
C2 N1 1_555 1_555
C3 N3 1_555 1_555
N2 N3 1_555 1_555
C2E N1E 1_555 1_555
C3E N3E 1_555 1_555
C4E C5E 1_555 1_555
C4E C6E 1_555 1_555
N2E N3E 1_555 1_555

#END
