
#######################################################################
#
#                 Cambridge Crystallographic Data Centre
#                                CCDC 
#
#######################################################################
#
# If this CIF has been generated from an entry in the Cambridge 
# Structural Database, then it will include bibliographic, chemical, 
# crystal, experimental, refinement or atomic coordinate data resulting 
# from the CCDC's data processing and validation procedures.
#
#######################################################################

data_MIGFEO
_symmetry_cell_setting           orthorhombic
_symmetry_space_group_name_H-M   'F d d 2'
_symmetry_Int_Tables_number      43
_space_group_name_Hall           'F 2 -2d'
loop_
_symmetry_equiv_pos_site_id
_symmetry_equiv_pos_as_xyz
1 x,y,z
2 -x,-y,z
3 1/4+x,1/4-y,1/4+z
4 1/4-x,1/4+y,1/4+z
5 x,1/2+y,1/2+z
6 -x,1/2-y,1/2+z
7 1/4+x,3/4-y,3/4+z
8 1/4-x,3/4+y,3/4+z
9 1/2+x,y,1/2+z
10 1/2-x,-y,1/2+z
11 3/4+x,1/4-y,3/4+z
12 3/4-x,1/4+y,3/4+z
13 1/2+x,1/2+y,z
14 1/2-x,1/2-y,z
15 3/4+x,3/4-y,1/4+z
16 3/4-x,3/4+y,1/4+z
_cell_length_a                   20.269(4)
_cell_length_b                   25.503(6)
_cell_length_c                   11.345(11)
_cell_angle_alpha                90
_cell_angle_beta                 90
_cell_angle_gamma                90
_cell_volume                     5864.46
loop_
_atom_site_label
_atom_site_type_symbol
_atom_site_fract_x
_atom_site_fract_y
_atom_site_fract_z
C1 C 0.02738(12) 0.27432(10) 0.0801(2)
C2 C 0.06467(13) 0.29286(11) 0.1730(3)
H1 H 0.0610 0.2776 0.2471
C3 C 0.10721(14) 0.33408(11) 0.1552(3)
H2 H 0.1336 0.3463 0.2163
C4 C 0.11011(14) 0.35688(12) 0.0454(3)
C5 C 0.07312(17) 0.33870(14) -0.0477(3)
H3 H 0.0761 0.3544 -0.1215
C6 C 0.03164(16) 0.29673(13) -0.0292(3)
H4 H 0.0065 0.2836 -0.0911
C7 C 0.02904(12) 0.17011(9) 0.1228(3)
H5 H 0.0568 0.1682 0.0532
H6 H 0.0570 0.1775 0.1901
C8 C -0.00613(12) 0.11761(10) 0.1409(2)
C9 C 0.02268(14) -0.04086(11) -0.1245(3)
H7 H 0.0395 -0.0694 -0.0832
C10 C 0.02241(16) -0.04277(12) -0.2462(3)
H8 H 0.0372 -0.0726 -0.2852
C11 C 0.0000 0.0000 -0.3097(3)
C12 C 0.0000 0.0000 -0.4407(4)
C13 C 0.03408(15) 0.03756(12) -0.5049(2)
H9 H 0.0571 0.0639 -0.4661
C14 C 0.03372(13) 0.03575(11) -0.6264(3)
H10 H 0.0582 0.0607 -0.6672
Cl1 Cl 0.16225(6) 0.41043(5) 0.02446(13)
N1 N 0.0000 0.0000 -0.0636(2)
N2 N 0.0000 0.0000 -0.6890(3)
Ni1 Ni 0.0000 0.0000 0.12362(3)
O1 O -0.06260(11) 0.21128(8) -0.0117(2)
O2 O -0.06426(9) 0.11872(8) 0.1772(2)
O3 O 0.02798(8) 0.07784(6) 0.11784(15)
O4 O 0.09886(8) -0.02184(7) 0.12220(16)
H11 H 0.1000 -0.0534 0.1464
H12 H 0.1248 -0.0079 0.1720
S1 S -0.03045(3) 0.22185(2) 0.10534(6)
C1A C -0.02738(12) -0.27432(10) 0.0801(2)
C2A C -0.06467(13) -0.29286(11) 0.1730(3)
H1A H -0.0610 -0.2776 0.2471
C3A C -0.10721(14) -0.33408(11) 0.1552(3)
H2A H -0.1336 -0.3463 0.2163
C4A C -0.11011(14) -0.35688(12) 0.0454(3)
C5A C -0.07312(17) -0.33870(14) -0.0477(3)
H3A H -0.0761 -0.3544 -0.1215
C6A C -0.03164(16) -0.29673(13) -0.0292(3)
H4A H -0.0065 -0.2836 -0.0911
C7A C -0.02904(12) -0.17011(9) 0.1228(3)
H5A H -0.0568 -0.1682 0.0532
H6A H -0.0570 -0.1775 0.1901
C8A C 0.00613(12) -0.11761(10) 0.1409(2)
C9A C -0.02268(14) 0.04086(11) -0.1245(3)
H7A H -0.0395 0.0694 -0.0832
C10A C -0.02241(16) 0.04277(12) -0.2462(3)
H8A H -0.0372 0.0726 -0.2852
C13A C -0.03408(15) -0.03756(12) -0.5049(2)
H9A H -0.0571 -0.0639 -0.4661
C14A C -0.03372(13) -0.03575(11) -0.6264(3)
H10A H -0.0582 -0.0607 -0.6672
Cl1A Cl -0.16225(6) -0.41043(5) 0.02446(13)
N2_2 N 0.0000 0.0000 0.3110(3)
Ni1_2 Ni 0.0000 0.0000 -0.87638(3)
O1A O 0.06260(11) -0.21128(8) -0.0117(2)
O2A O 0.06426(9) -0.11872(8) 0.1772(2)
O3A O -0.02798(8) -0.07784(6) 0.11784(15)
O4A O -0.09886(8) 0.02184(7) 0.12220(16)
H11A H -0.1000 0.0534 0.1464
H12A H -0.1248 0.0079 0.1720
S1A S 0.03045(3) -0.22185(2) 0.10534(6)
loop_
_geom_bond_atom_site_label_1
_geom_bond_atom_site_label_2
_geom_bond_site_symmetry_1
_geom_bond_site_symmetry_2
C1 C2 1_555 1_555
C2 H1 1_555 1_555
C3 C2 1_555 1_555
H2 C3 1_555 1_555
C4 C3 1_555 1_555
C5 C4 1_555 1_555
H3 C5 1_555 1_555
C6 C1 1_555 1_555
H4 C6 1_555 1_555
C7 H5 1_555 1_555
H6 C7 1_555 1_555
C8 C7 1_555 1_555
C9 H7 1_555 1_555
C10 C9 1_555 1_555
H8 C10 1_555 1_555
C11 C10 1_555 1_555
C12 C11 1_555 1_555
C13 C12 1_555 1_555
H9 C13 1_555 1_555
C14 C13 1_555 1_555
H10 C14 1_555 1_555
Cl1 C4 1_555 1_555
N1 C9 1_555 1_555
N2 C14 1_555 1_555
Ni1 N1 1_555 1_555
O1 S1 1_555 1_555
O2 C8 1_555 1_555
O3 C8 1_555 1_555
O4 Ni1 1_555 1_555
H11 O4 1_555 1_555
H12 O4 1_555 1_555
S1 C1 1_555 1_555
C1A C2A 1_555 1_555
C2A H1A 1_555 1_555
C3A C2A 1_555 1_555
H2A C3A 1_555 1_555
C4A C3A 1_555 1_555
C5A C4A 1_555 1_555
H3A C5A 1_555 1_555
C6A C1A 1_555 1_555
H4A C6A 1_555 1_555
C7A H5A 1_555 1_555
H6A C7A 1_555 1_555
C8A C7A 1_555 1_555
C9A N1 1_555 1_555
H7A C9A 1_555 1_555
C10A C11 1_555 1_555
H8A C10A 1_555 1_555
C13A C12 1_555 1_555
H9A C13A 1_555 1_555
C14A N2 1_555 1_555
H10A C14A 1_555 1_555
Cl1A C4A 1_555 1_555
N2_2 Ni1 1_555 1_555
Ni1_2 N2 1_555 1_555
O1A S1A 1_555 1_555
O2A C8A 1_555 1_555
O3A Ni1 1_555 1_555
O4A Ni1 1_555 1_555
H11A O4A 1_555 1_555
H12A O4A 1_555 1_555
S1A C1A 1_555 1_555
C5 C6 1_555 1_555
C7 S1 1_555 1_555
Ni1 O3 1_555 1_555
C5A C6A 1_555 1_555
C7A S1A 1_555 1_555
C8A O3A 1_555 1_555
C9A C10A 1_555 1_555
C13A C14A 1_555 1_555

#END
