
#######################################################################
#
#                 Cambridge Crystallographic Data Centre
#                                CCDC 
#
#######################################################################
#
# If this CIF has been generated from an entry in the Cambridge 
# Structural Database, then it will include bibliographic, chemical, 
# crystal, experimental, refinement or atomic coordinate data resulting 
# from the CCDC's data processing and validation procedures.
#
#######################################################################

data_MIGHEQ
_symmetry_cell_setting           monoclinic
_symmetry_space_group_name_H-M   'P 21/n'
_symmetry_Int_Tables_number      14
_space_group_name_Hall           '-P 2yn'
loop_
_symmetry_equiv_pos_site_id
_symmetry_equiv_pos_as_xyz
1 x,y,z
2 1/2-x,1/2+y,1/2-z
3 -x,-y,-z
4 1/2+x,1/2-y,1/2+z
_cell_length_a                   7.3481(15)
_cell_length_b                   13.925(3)
_cell_length_c                   16.531(3)
_cell_angle_alpha                90
_cell_angle_beta                 101.42(3)
_cell_angle_gamma                90
_cell_volume                     1658
loop_
_atom_site_label
_atom_site_type_symbol
_atom_site_fract_x
_atom_site_fract_y
_atom_site_fract_z
Co1 Co 0.17457(4) 0.86364(2) 0.203521(18)
C1 C 0.5626(4) 0.9754(2) 0.1736(2)
H1 H 0.5790 0.9478 0.2278
H2 H 0.4717 1.0257 0.1684
H3 H 0.6785 1.0013 0.1653
C2 C 0.4981(3) 0.8998(2) 0.11066(16)
C3 C 0.5930(4) 0.8817(2) 0.0460(2)
H4 H 0.6973 0.9178 0.0419
C4 C 0.5327(4) 0.8119(2) -0.01033(18)
H5 H 0.5974 0.7997 -0.0522
C5 C 0.3748(4) 0.75839(19) -0.00591(15)
C6 C 0.2852(3) 0.77972(16) 0.05976(13)
C7 C 0.3025(5) 0.6845(2) -0.06323(16)
H6 H 0.3640 0.6690 -0.1055
C8 C 0.1478(5) 0.63745(19) -0.05684(16)
H7 H 0.1021 0.5905 -0.0956
C9 C 0.0506(4) 0.65740(17) 0.00819(15)
C10 C 0.1201(3) 0.72828(15) 0.06690(13)
C11 C -0.1105(4) 0.60941(19) 0.01902(18)
H8 H -0.1647 0.5638 -0.0194
C12 C -0.1875(4) 0.62898(18) 0.08485(19)
H9 H -0.2918 0.5951 0.0927
C13 C -0.1113(3) 0.69973(17) 0.14120(15)
C14 C -0.1931(4) 0.7203(2) 0.21529(18)
H10 H -0.2027 0.7884 0.2219
H11 H -0.1148 0.6936 0.2635
H12 H -0.3144 0.6919 0.2081
C15 C 0.0563(3) 1.05722(17) 0.12152(13)
C16 C 0.1296(4) 1.20845(18) 0.16598(16)
N1 N 0.1251(3) 0.97749(16) 0.32013(12)
N2 N 0.0411(3) 0.97627(14) 0.12771(12)
N3 N 0.0722(4) 1.14768(15) 0.10658(14)
N4 N 0.1824(3) 1.26809(16) 0.21111(13)
N5 N 0.3482(3) 0.84869(13) 0.11715(12)
N6 N 0.0384(2) 0.74995(12) 0.13134(11)
O1 O 0.0919(3) 1.03262(17) 0.37294(13)
O2 O 0.0128(3) 0.91132(14) 0.29068(11)
O3 O 0.2731(3) 0.98178(13) 0.29219(11)
Co1A Co 0.32543(4) 1.36364(2) 0.296479(18)
N4A N 0.3176(3) 0.76809(16) 0.28889(13)
loop_
_geom_bond_atom_site_label_1
_geom_bond_atom_site_label_2
_geom_bond_site_symmetry_1
_geom_bond_site_symmetry_2
Co1 N2 1_555 1_555
C1 H1 1_555 1_555
H2 C1 1_555 1_555
H3 C1 1_555 1_555
C2 C1 1_555 1_555
C3 C2 1_555 1_555
H4 C3 1_555 1_555
C4 C3 1_555 1_555
H5 C4 1_555 1_555
C5 C4 1_555 1_555
C6 C5 1_555 1_555
C7 C5 1_555 1_555
H6 C7 1_555 1_555
C8 C7 1_555 1_555
H7 C8 1_555 1_555
C9 C8 1_555 1_555
C10 C6 1_555 1_555
C11 C9 1_555 1_555
H8 C11 1_555 1_555
C12 C11 1_555 1_555
H9 C12 1_555 1_555
C13 C12 1_555 1_555
C14 C13 1_555 1_555
H10 C14 1_555 1_555
H11 C14 1_555 1_555
H12 C14 1_555 1_555
C15 N2 1_555 1_555
C16 N3 1_555 1_555
N1 O1 1_555 1_555
N3 C15 1_555 1_555
N4 C16 1_555 1_555
N5 Co1 1_555 1_555
N6 Co1 1_555 1_555
O2 Co1 1_555 1_555
O3 Co1 1_555 1_555
Co1A N4 1_555 1_555
N4A Co1 1_555 1_555
C2 N5 1_555 1_555
C6 N5 1_555 1_555
C9 C10 1_555 1_555
C10 N6 1_555 1_555
C13 N6 1_555 1_555
N1 O2 1_555 1_555
N1 O3 1_555 1_555

#END
