
#######################################################################
#
#                 Cambridge Crystallographic Data Centre
#                                CCDC 
#
#######################################################################
#
# If this CIF has been generated from an entry in the Cambridge 
# Structural Database, then it will include bibliographic, chemical, 
# crystal, experimental, refinement or atomic coordinate data resulting 
# from the CCDC's data processing and validation procedures.
#
#######################################################################

data_MIGKOC
_symmetry_cell_setting           triclinic
_symmetry_space_group_name_H-M   'P -1'
_symmetry_Int_Tables_number      2
_space_group_name_Hall           '-P 1'
loop_
_symmetry_equiv_pos_site_id
_symmetry_equiv_pos_as_xyz
1 x,y,z
2 -x,-y,-z
_cell_length_a                   6.9223(14)
_cell_length_b                   7.9382(13)
_cell_length_c                   8.703(2)
_cell_angle_alpha                100.54(2)
_cell_angle_beta                 111.74(2)
_cell_angle_gamma                99.622(15)
_cell_volume                     422.03
loop_
_atom_site_label
_atom_site_type_symbol
_atom_site_fract_x
_atom_site_fract_y
_atom_site_fract_z
Ni1 Ni 0.5000 0.5000 0.5000
Na1 Na 0.74290(10) 0.50463(8) 0.99312(8)
O1 O 0.6147(2) 0.66085(12) 0.75486(12)
O2 O 0.6181(2) 0.73243(12) 0.45534(12)
O3 O 0.8069(2) 1.11455(14) 0.51951(15)
O4 O 0.9002(2) 1.28315(13) 0.88041(14)
O5 O 0.7604(2) 1.00484(13) 1.02614(13)
O6 O 0.7882(2) 0.44736(15) 0.5423(2)
H1 H 0.8006(36) 0.3494(33) 0.5540(29)
H2 H 0.8869(46) 0.5230(38) 0.6222(35)
O7 O 0.8305(2) 0.3517(2) 1.2130(2)
H3 H 0.7641(41) 0.3528(34) 1.2691(33)
H4 H 0.8104(39) 0.2571(32) 1.1706(31)
O8 O 0.6053(2) 0.7068(2) 1.13087(15)
H5 H 0.6428(41) 0.7312(33) 1.2265(35)
H6 H 0.6417(38) 0.7955(34) 1.1112(32)
C1 C 0.6817(2) 0.8163(2) 0.7477(2)
C2 C 0.6884(2) 0.8522(2) 0.5938(2)
C3 C 0.7786(2) 1.0400(2) 0.6242(2)
C4 C 0.8229(2) 1.1238(2) 0.8055(2)
C5 C 0.7549(2) 0.9829(2) 0.8796(2)
O1A O 0.3853(2) 0.33915(12) 0.24514(12)
O2A O 0.3819(2) 0.26757(12) 0.54466(12)
O3A O 0.1931(2) -0.11455(14) 0.48049(15)
O4A O 0.0998(2) -0.28315(13) 0.11959(14)
O5A O 0.2396(2) -0.00484(13) -0.02614(13)
C1A C 0.3183(2) 0.1837(2) 0.2523(2)
C2A C 0.3116(2) 0.1478(2) 0.4062(2)
C3A C 0.2214(2) -0.0400(2) 0.3758(2)
C4A C 0.1771(2) -0.1238(2) 0.1945(2)
C5A C 0.2451(2) 0.0171(2) 0.1204(2)
O6A O 0.2118(2) 0.55264(15) 0.4577(2)
H1A H 0.1994(36) 0.6506(33) 0.4460(29)
H2A H 0.1131(46) 0.4770(38) 0.3778(35)
Na1A Na 0.25710(10) 0.49537(8) 0.00688(8)
O8A O 0.3947(2) 0.2932(2) 0.86913(15)
H5A H 0.3572(41) 0.2688(33) 0.7735(35)
H6A H 0.3583(38) 0.2045(34) 0.8888(32)
O7A O 0.1695(2) 0.6483(2) -0.2130(2)
H3A H 0.2359(41) 0.6472(34) -0.2691(33)
H4A H 0.1896(39) 0.7429(32) -0.1706(31)
O4_2 O 0.9002(2) 0.28315(13) 0.88041(14)
O4A_2 O 1.0998(2) 0.71685(13) 1.11959(14)
Na1_2 Na 0.74290(10) 1.50463(8) 0.99312(8)
Na1A_2 Na 1.25710(10) 1.49537(8) 1.00688(8)
Na1A_3 Na 0.25710(10) 0.49537(8) 1.00688(8)
Na1_3 Na -0.25710(10) -0.49537(8) -0.00688(8)
Na1A_4 Na 0.25710(10) -0.50463(8) 0.00688(8)
O4_3 O -0.0998(2) 0.28315(13) -0.11959(14)
O4A_3 O 0.0998(2) 0.71685(13) 0.11959(14)
O8_2 O 0.6053(2) 0.7068(2) 0.13087(15)
O8A_2 O 0.3947(2) 0.2932(2) -0.13087(15)
H5_2 H 0.6428(41) 0.7312(33) 0.2265(35)
H6_2 H 0.6417(38) 0.7955(34) 0.1112(32)
H5A_2 H 0.3572(41) 0.2688(33) -0.2265(35)
H6A_2 H 0.3583(38) 0.2045(34) -0.1112(32)
loop_
_geom_bond_atom_site_label_1
_geom_bond_atom_site_label_2
_geom_bond_site_symmetry_1
_geom_bond_site_symmetry_2
Ni1 O1 1_555 1_555
Na1 O1 1_555 1_555
O1 C1 1_555 1_555
O2 Ni1 1_555 1_555
O3 C3 1_555 1_555
O4 C4 1_555 1_555
O5 C5 1_555 1_555
O6 Ni1 1_555 1_555
H1 O6 1_555 1_555
H2 O6 1_555 1_555
O7 Na1 1_555 1_555
H3 O7 1_555 1_555
H4 O7 1_555 1_555
O8 Na1 1_555 1_555
H5 O8 1_555 1_555
H6 O8 1_555 1_555
C1 C2 1_555 1_555
C2 O2 1_555 1_555
C3 C2 1_555 1_555
C4 C3 1_555 1_555
C5 C1 1_555 1_555
O1A Ni1 1_555 1_555
O2A Ni1 1_555 1_555
O3A C3A 1_555 1_555
O4A C4A 1_555 1_555
O5A C5A 1_555 1_555
C1A O1A 1_555 1_555
C2A O2A 1_555 1_555
C3A C2A 1_555 1_555
C4A C3A 1_555 1_555
C5A C1A 1_555 1_555
O6A Ni1 1_555 1_555
H1A O6A 1_555 1_555
H2A O6A 1_555 1_555
Na1A O1A 1_555 1_555
O8A Na1 1_555 1_555
H5A O8A 1_555 1_555
H6A O8A 1_555 1_555
O7A Na1A 1_555 1_555
H3A O7A 1_555 1_555
H4A O7A 1_555 1_555
O4_2 Na1 1_555 1_555
O4A_2 Na1 1_555 1_555
Na1_2 O4 1_555 1_555
Na1A_2 O4 1_555 1_555
Na1A_3 O8 1_555 1_555
Na1_3 O4A 1_555 1_555
Na1A_4 O4A 1_555 1_555
O4_3 Na1A 1_555 1_555
O4A_3 Na1A 1_555 1_555
O8_2 Na1A 1_555 1_555
O8A_2 Na1A 1_555 1_555
H5_2 O8_2 1_555 1_555
H6_2 O8_2 1_555 1_555
H5A_2 O8A_2 1_555 1_555
H6A_2 O8A_2 1_555 1_555
C4 C5 1_555 1_555
C1A C2A 1_555 1_555
C4A C5A 1_555 1_555
O8A Na1A_3 1_555 1_555

#END
