
#######################################################################
#
#                 Cambridge Crystallographic Data Centre
#                                CCDC 
#
#######################################################################
#
# If this CIF has been generated from an entry in the Cambridge 
# Structural Database, then it will include bibliographic, chemical, 
# crystal, experimental, refinement or atomic coordinate data resulting 
# from the CCDC's data processing and validation procedures.
#
#######################################################################

data_MIGKOD
_symmetry_cell_setting           orthorhombic
_symmetry_space_group_name_H-M   'F d d 2'
_symmetry_Int_Tables_number      43
_space_group_name_Hall           'F 2 -2d'
loop_
_symmetry_equiv_pos_site_id
_symmetry_equiv_pos_as_xyz
1 x,y,z
2 -x,-y,z
3 1/4-x,1/4+y,1/4+z
4 3/4+x,3/4-y,1/4+z
5 x,1/2+y,1/2+z
6 -x,1/2-y,1/2+z
7 1/4-x,3/4+y,3/4+z
8 3/4+x,1/4-y,3/4+z
9 1/2+x,y,1/2+z
10 1/2-x,-y,1/2+z
11 3/4-x,1/4+y,3/4+z
12 1/4+x,3/4-y,3/4+z
13 1/2+x,1/2+y,z
14 1/2-x,1/2-y,z
15 3/4-x,3/4+y,1/4+z
16 1/4+x,1/4-y,1/4+z
_cell_length_a                   25.664(5)
_cell_length_b                   20.103(7)
_cell_length_c                   11.705(2)
_cell_angle_alpha                90
_cell_angle_beta                 90
_cell_angle_gamma                90
_cell_volume                     6038.88
loop_
_atom_site_label
_atom_site_type_symbol
_atom_site_fract_x
_atom_site_fract_y
_atom_site_fract_z
C1 C 0.27829(11) 0.97188(15) 1.0099(3)
C2 C 0.29867(13) 0.93630(16) 0.9191(3)
H1 H 0.2841 0.9403 0.8467
C3 C 0.34059(13) 0.89508(18) 0.9366(3)
H2 H 0.3539 0.8694 0.8773
C4 C 0.36233(14) 0.89255(17) 1.0430(4)
C5 C 0.34323(17) 0.9276(2) 1.1350(4)
H3 H 0.3591 0.9249 1.2063
C6 C 0.29992(14) 0.96660(19) 1.1179(3)
H4 H 0.2852 0.9895 1.1789
C7 C 0.17595(10) 0.96841(14) 0.9710(3)
H5 H 0.1834 0.9395 0.9067
H6 H 0.1746 0.9413 1.0395
C8 C 0.12325(12) 1.00291(16) 0.9529(2)
C9 C -0.03579(12) 1.03376(16) 0.7185(3)
H7 H -0.0610 1.0576 0.7583
C10 C -0.03732(13) 1.03504(17) 0.6005(3)
H8 H -0.0632 1.0592 0.5634
C11 C 0.0000 1.0000 0.5360(7)
C12 C 0.0000 1.0000 0.4100(6)
C13 C 0.04492(13) 1.0104(2) 0.3517(3)
H9 H 0.0762 1.0168 0.3904
C14 C 0.04330(13) 1.01123(18) 0.2342(4)
H10 H 0.0738 1.0200 0.1941
Cd1 Cd 0.0000 1.0000 0.97656(3)
Cl1 Cl 0.41728(5) 0.84252(7) 1.06118(18)
N1 N 0.0000 1.0000 0.7792(5)
N2 N 0.0000 1.0000 0.1761(5)
O1 O 0.21608(10) 1.06206(14) 1.0980(3)
O2 O 0.12289(9) 1.05949(13) 0.9125(3)
O3 O 0.08505(7) 0.96899(10) 0.9828(2)
O4 O -0.03001(8) 0.88990(9) 0.9748(2)
H11 H -0.0111 0.8637 0.9356
H12 H -0.0602 0.8994 0.9497
S1 S 0.22630(3) 1.02914(3) 0.98480(9)
C1A C -0.27829(11) 1.02812(15) 1.0099(3)
C2A C -0.29867(13) 1.06370(16) 0.9191(3)
H1A H -0.2841 1.0597 0.8467
C3A C -0.34059(13) 1.10492(18) 0.9366(3)
H2A H -0.3539 1.1306 0.8773
C4A C -0.36233(14) 1.10745(17) 1.0430(4)
C5A C -0.34323(17) 1.0724(2) 1.1350(4)
H3A H -0.3591 1.0751 1.2063
C6A C -0.29992(14) 1.03340(19) 1.1179(3)
H4A H -0.2852 1.0105 1.1789
C7A C -0.17595(10) 1.03159(14) 0.9710(3)
H5A H -0.1834 1.0605 0.9067
H6A H -0.1746 1.0587 1.0395
C8A C -0.12325(12) 0.99709(16) 0.9529(2)
C9A C 0.03579(12) 0.96624(16) 0.7185(3)
H7A H 0.0610 0.9424 0.7583
C10A C 0.03732(13) 0.96496(17) 0.6005(3)
H8A H 0.0632 0.9408 0.5634
C13A C -0.04492(13) 0.9896(2) 0.3517(3)
H9A H -0.0762 0.9832 0.3904
C14A C -0.04330(13) 0.98877(18) 0.2342(4)
H10A H -0.0738 0.9800 0.1941
Cd1_2 Cd 0.0000 1.0000 -0.02344(3)
Cl1A Cl -0.41728(5) 1.15748(7) 1.06118(18)
N2_2 N 0.0000 1.0000 1.1761(5)
O1A O -0.21608(10) 0.93794(14) 1.0980(3)
O2A O -0.12289(9) 0.94051(13) 0.9125(3)
O3A O -0.08505(7) 1.03101(10) 0.9828(2)
O4A O 0.03001(8) 1.11010(9) 0.9748(2)
H11A H 0.0111 1.1363 0.9356
H12A H 0.0602 1.1006 0.9497
S1A S -0.22630(3) 0.97086(3) 0.98480(9)
loop_
_geom_bond_atom_site_label_1
_geom_bond_atom_site_label_2
_geom_bond_site_symmetry_1
_geom_bond_site_symmetry_2
C1 C2 1_555 1_555
C2 H1 1_555 1_555
C3 C2 1_555 1_555
H2 C3 1_555 1_555
C4 C3 1_555 1_555
C5 C4 1_555 1_555
H3 C5 1_555 1_555
C6 C1 1_555 1_555
H4 C6 1_555 1_555
C7 H5 1_555 1_555
H6 C7 1_555 1_555
C8 C7 1_555 1_555
C9 H7 1_555 1_555
C10 C9 1_555 1_555
H8 C10 1_555 1_555
C11 C10 1_555 1_555
C12 C11 1_555 1_555
C13 C12 1_555 1_555
H9 C13 1_555 1_555
C14 C13 1_555 1_555
H10 C14 1_555 1_555
Cd1 N1 1_555 1_555
Cl1 C4 1_555 1_555
N1 C9 1_555 1_555
N2 C14 1_555 1_555
O1 S1 1_555 1_555
O2 C8 1_555 1_555
O3 C8 1_555 1_555
O4 Cd1 1_555 1_555
H11 O4 1_555 1_555
H12 O4 1_555 1_555
S1 C1 1_555 1_555
C1A C2A 1_555 1_555
C2A H1A 1_555 1_555
C3A C2A 1_555 1_555
H2A C3A 1_555 1_555
C4A C3A 1_555 1_555
C5A C4A 1_555 1_555
H3A C5A 1_555 1_555
C6A C1A 1_555 1_555
H4A C6A 1_555 1_555
C7A H5A 1_555 1_555
H6A C7A 1_555 1_555
C8A C7A 1_555 1_555
C9A N1 1_555 1_555
H7A C9A 1_555 1_555
C10A C11 1_555 1_555
H8A C10A 1_555 1_555
C13A C12 1_555 1_555
H9A C13A 1_555 1_555
C14A N2 1_555 1_555
H10A C14A 1_555 1_555
Cd1_2 N2 1_555 1_555
Cl1A C4A 1_555 1_555
N2_2 Cd1 1_555 1_555
O1A S1A 1_555 1_555
O2A C8A 1_555 1_555
O3A Cd1 1_555 1_555
O4A Cd1 1_555 1_555
H11A O4A 1_555 1_555
H12A O4A 1_555 1_555
S1A C1A 1_555 1_555
C5 C6 1_555 1_555
C7 S1 1_555 1_555
Cd1 O3 1_555 1_555
C5A C6A 1_555 1_555
C7A S1A 1_555 1_555
C8A O3A 1_555 1_555
C9A C10A 1_555 1_555
C13A C14A 1_555 1_555

#END
