
#######################################################################
#
#                 Cambridge Crystallographic Data Centre
#                                CCDC 
#
#######################################################################
#
# If this CIF has been generated from an entry in the Cambridge 
# Structural Database, then it will include bibliographic, chemical, 
# crystal, experimental, refinement or atomic coordinate data resulting 
# from the CCDC's data processing and validation procedures.
#
#######################################################################

data_MIGKES
_symmetry_cell_setting           tetragonal
_symmetry_space_group_name_H-M   'P 4/n c c'
_symmetry_Int_Tables_number      130
_space_group_name_Hall           '-P 4a 2ac'
loop_
_symmetry_equiv_pos_site_id
_symmetry_equiv_pos_as_xyz
1 x,y,z
2 1/2-y,x,z
3 y,1/2-x,z
4 1/2+y,1/2+x,1/2-z
5 1/2+x,1/2+y,-z
6 x,1/2-y,1/2+z
7 1/2-x,y,1/2+z
8 y,x,1/2+z
9 -x,-y,-z
10 1/2+y,-x,-z
11 -y,1/2+x,-z
12 1/2-y,1/2-x,1/2+z
13 1/2-x,1/2-y,z
14 -x,1/2+y,1/2-z
15 1/2+x,-y,1/2-z
16 -y,-x,1/2-z
_cell_length_a                   15.6617(8)
_cell_length_b                   15.6617(8)
_cell_length_c                   28.468(2)
_cell_angle_alpha                90
_cell_angle_beta                 90
_cell_angle_gamma                90
_cell_volume                     6982.88
loop_
_atom_site_label
_atom_site_type_symbol
_atom_site_fract_x
_atom_site_fract_y
_atom_site_fract_z
Eu1 Eu 0.2500 0.2500 0.050400(16)
S1 S 0.21489(9) 0.04841(9) -0.00455(5)
O1 O 0.1884(2) 0.1401(2) 0.00273(15)
C1 C 0.2139(4) 0.0338(4) -0.0671(2)
O2 O 0.2205(3) 0.3785(3) 0.09308(16)
C2 C 0.1203(4) -0.0116(4) 0.0108(2)
H1 H 0.1273 -0.0701 0.0002
H2 H 0.1148 -0.0127 0.0447
C3 C 0.1851(5) 0.0945(5) -0.0963(3)
H3 H 0.1632 0.1450 -0.0840
C4 C 0.1875(6) 0.0830(8) -0.1438(3)
H4 H 0.1686 0.1256 -0.1641
C5 C 0.2203(8) 0.4138(6) 0.1290(4)
H5 H 0.2387 0.3816 0.1545
C6 C 0.2487(5) -0.0423(5) -0.0832(3)
H6 H 0.2711 -0.0829 -0.0628
C7 C 0.2481(6) -0.0547(8) -0.1327(4)
H7 H 0.2682 -0.1056 -0.1453
C8 C 0.2188(8) 0.0068(10) -0.1611(3)
H8 H 0.2195 -0.0021 -0.1934
C9 C 0.0396(4) 0.0238(4) -0.0098(2)
H9 H 0.0412 0.0179 -0.0437
H10 H 0.0354 0.0841 -0.0024
N1 N 0.1981(6) 0.4912(4) 0.1384(2)
C10 C 0.1673(16) 0.5430(11) 0.1068(5)
H11 H 0.1719 0.5172 0.0764
H12 H 0.1990 0.5955 0.1072
H13 H 0.1084 0.5545 0.1137
C11 C 0.199(2) 0.5298(13) 0.1848(6)
H14 H 0.2250 0.4909 0.2068
H15 H 0.1420 0.5422 0.1945
H16 H 0.2319 0.5817 0.1839
C9H C -0.0396(4) -0.0238(4) 0.0098(2)
C2H C -0.1203(4) 0.0116(4) -0.0108(2)
S1H S -0.21489(9) -0.04841(9) 0.00455(5)
O1H O -0.1884(2) -0.1401(2) -0.00273(15)
C1H C -0.2139(4) -0.0338(4) 0.0671(2)
C3H C -0.1851(5) -0.0945(5) 0.0963(3)
H3H H -0.1632 -0.1450 0.0840
C4H C -0.1875(6) -0.0830(8) 0.1438(3)
H4H H -0.1686 -0.1256 0.1641
C8H C -0.2188(8) -0.0068(10) 0.1611(3)
C7H C -0.2481(6) 0.0547(8) 0.1327(4)
C6H C -0.2487(5) 0.0423(5) 0.0832(3)
H6H H -0.2711 0.0829 0.0628
H7H H -0.2682 0.1056 0.1453
H8H H -0.2195 0.0021 0.1934
H1H H -0.1273 0.0701 -0.0002
H2H H -0.1148 0.0127 -0.0447
H9H H -0.0412 -0.0179 0.0437
H10H H -0.0354 -0.0841 0.0024
S1A S 0.45159(9) 0.21489(9) -0.00455(5)
O1A O 0.3599(2) 0.1884(2) 0.00273(15)
C1A C 0.4662(4) 0.2139(4) -0.0671(2)
C2A C 0.5116(4) 0.1203(4) 0.0108(2)
H1A H 0.5701 0.1273 0.0002
H2A H 0.5127 0.1148 0.0447
C3A C 0.4055(5) 0.1851(5) -0.0963(3)
H3A H 0.3550 0.1632 -0.0840
C4A C 0.4170(8) 0.1875(6) -0.1438(3)
H4A H 0.3744 0.1686 -0.1641
C6A C 0.5423(5) 0.2487(5) -0.0832(3)
H6A H 0.5829 0.2711 -0.0628
C7A C 0.5547(8) 0.2481(6) -0.1327(4)
H7A H 0.6056 0.2682 -0.1453
C8A C 0.4932(10) 0.2188(8) -0.1611(3)
H8A H 0.5021 0.2195 -0.1934
C9A C 0.4762(4) 0.0396(4) -0.0098(2)
H9A H 0.4821 0.0412 -0.0437
H10A H 0.4159 0.0354 -0.0024
C9I C 0.5238(4) -0.0396(4) 0.0098(2)
C2I C 0.4884(4) -0.1203(4) -0.0108(2)
S1I S 0.54841(9) -0.21489(9) 0.00455(5)
O1I O 0.6401(2) -0.1884(2) -0.00273(15)
C1I C 0.5338(4) -0.2139(4) 0.0671(2)
C3I C 0.5945(5) -0.1851(5) 0.0963(3)
H3I H 0.6450 -0.1632 0.0840
C4I C 0.5830(8) -0.1875(6) 0.1438(3)
H4I H 0.6256 -0.1686 0.1641
C8I C 0.5068(10) -0.2188(8) 0.1611(3)
C7I C 0.4453(8) -0.2481(6) 0.1327(4)
C6I C 0.4577(5) -0.2487(5) 0.0832(3)
H6I H 0.4171 -0.2711 0.0628
H7I H 0.3944 -0.2682 0.1453
H8I H 0.4979 -0.2195 0.1934
H1I H 0.4299 -0.1273 -0.0002
H2I H 0.4873 -0.1148 -0.0447
H9I H 0.5179 -0.0412 0.0437
H10I H 0.5841 -0.0354 0.0024
O2A O 0.1215(3) 0.2205(3) 0.09308(16)
C5A C 0.0862(6) 0.2203(8) 0.1290(4)
H5A H 0.1184 0.2387 0.1545
N1A N 0.0088(4) 0.1981(6) 0.1384(2)
C10A C -0.0430(11) 0.1673(16) 0.1068(5)
H11A H -0.0172 0.1719 0.0764
H12A H -0.0955 0.1990 0.1072
H13A H -0.0545 0.1084 0.1137
C11A C -0.0298(13) 0.199(2) 0.1848(6)
H14A H 0.0091 0.2250 0.2068
H15A H -0.0422 0.1420 0.1945
H16A H -0.0817 0.2319 0.1839
O2B O 0.3785(3) 0.2795(3) 0.09308(16)
C5B C 0.4138(6) 0.2797(8) 0.1290(4)
H5B H 0.3816 0.2613 0.1545
N1B N 0.4912(4) 0.3019(6) 0.1384(2)
C10B C 0.5430(11) 0.3327(16) 0.1068(5)
H11B H 0.5172 0.3281 0.0764
H12B H 0.5955 0.3010 0.1072
H13B H 0.5545 0.3916 0.1137
C11B C 0.5298(13) 0.301(2) 0.1848(6)
H14B H 0.4909 0.2750 0.2068
H15B H 0.5422 0.3580 0.1945
H16B H 0.5817 0.2681 0.1839
O2L O 0.2795(3) 0.1215(3) 0.09308(16)
C5L C 0.2797(8) 0.0862(6) 0.1290(4)
H5L H 0.2613 0.1184 0.1545
N1L N 0.3019(6) 0.0088(4) 0.1384(2)
C10L C 0.3327(16) -0.0430(11) 0.1068(5)
H11L H 0.3281 -0.0172 0.0764
H12L H 0.3010 -0.0955 0.1072
H13L H 0.3916 -0.0545 0.1137
C11L C 0.301(2) -0.0298(13) 0.1848(6)
H14L H 0.2750 0.0091 0.2068
H15L H 0.3580 -0.0422 0.1945
H16L H 0.2681 -0.0817 0.1839
O1B O 0.1401(2) 0.3116(2) 0.00273(15)
O1L O 0.3116(2) 0.3599(2) 0.00273(15)
Eu1D Eu -0.2500 -0.2500 -0.050400(16)
Eu1D_2 Eu 0.7500 -0.2500 -0.050400(16)
Cl1 Cl 0.2500 0.7500 0.2500
O4 O 0.2429(12) 0.8163(11) 0.2718(6)
O4C O 0.3163(11) 0.7429(12) 0.2282(6)
O4L O 0.2571(12) 0.6837(11) 0.2718(6)
O4O O 0.1837(11) 0.7571(12) 0.2282(6)
Cl2 Cl 0.2500 0.7500 0.0000
O3 O 0.2607(5) 0.8244(5) 0.0258(4)
O3I O 0.3244(5) 0.7393(5) -0.0258(4)
O3J O 0.1756(5) 0.7607(5) -0.0258(4)
O3L O 0.2393(5) 0.6756(5) 0.0258(4)
Cl3 Cl 0.2500 0.2500 0.2394(2)
O6 O 0.197(8) 0.316(3) 0.2459(9)
O6A O 0.184(3) 0.197(8) 0.2459(9)
O6B O 0.316(3) 0.303(8) 0.2459(9)
O6L O 0.303(8) 0.184(3) 0.2459(9)
O7 O 0.0248(7) 0.3984(8) 0.2583(4)
O8 O 0.4706(10) 0.9359(13) 0.8408(8)
O5? O 0.2500 0.2500 0.1938(6)
loop_
_geom_bond_atom_site_label_1
_geom_bond_atom_site_label_2
_geom_bond_site_symmetry_1
_geom_bond_site_symmetry_2
Eu1 O1 1_555 1_555
S1 O1 1_555 1_555
C1 S1 1_555 1_555
O2 Eu1 1_555 1_555
C2 S1 1_555 1_555
H1 C2 1_555 1_555
H2 C2 1_555 1_555
C3 C1 1_555 1_555
H3 C3 1_555 1_555
C4 C3 1_555 1_555
H4 C4 1_555 1_555
C5 O2 1_555 1_555
H5 C5 1_555 1_555
C6 C1 1_555 1_555
H6 C6 1_555 1_555
C7 C6 1_555 1_555
H7 C7 1_555 1_555
C8 C4 1_555 1_555
H8 C8 1_555 1_555
C9 C2 1_555 1_555
H9 C9 1_555 1_555
H10 C9 1_555 1_555
N1 C5 1_555 1_555
C10 N1 1_555 1_555
H11 C10 1_555 1_555
H12 C10 1_555 1_555
H13 C10 1_555 1_555
C11 N1 1_555 1_555
H14 C11 1_555 1_555
H15 C11 1_555 1_555
H16 C11 1_555 1_555
Cl1 O4 1_555 1_555
Cl2 O3 1_555 1_555
Cl3 O6 1_555 1_555
C9H C9 1_555 1_555
C2H C9H 1_555 1_555
S1H C2H 1_555 1_555
O1H S1H 1_555 1_555
C1H S1H 1_555 1_555
C3H C1H 1_555 1_555
H3H C3H 1_555 1_555
C4H C3H 1_555 1_555
H4H C4H 1_555 1_555
C8H C4H 1_555 1_555
C7H C8H 1_555 1_555
C6H C1H 1_555 1_555
H6H C6H 1_555 1_555
H7H C7H 1_555 1_555
H8H C8H 1_555 1_555
H1H C2H 1_555 1_555
H2H C2H 1_555 1_555
H9H C9H 1_555 1_555
H10H C9H 1_555 1_555
O4C Cl1 1_555 1_555
O4L Cl1 1_555 1_555
O4O Cl1 1_555 1_555
O3I Cl2 1_555 1_555
O3J Cl2 1_555 1_555
O3L Cl2 1_555 1_555
O6A Cl3 1_555 1_555
O6B Cl3 1_555 1_555
O6L Cl3 1_555 1_555
S1A O1A 1_555 1_555
O1A Eu1 1_555 1_555
C1A S1A 1_555 1_555
C2A S1A 1_555 1_555
H1A C2A 1_555 1_555
H2A C2A 1_555 1_555
C3A C1A 1_555 1_555
H3A C3A 1_555 1_555
C4A C3A 1_555 1_555
H4A C4A 1_555 1_555
C6A C1A 1_555 1_555
H6A C6A 1_555 1_555
C7A C6A 1_555 1_555
H7A C7A 1_555 1_555
C8A C4A 1_555 1_555
H8A C8A 1_555 1_555
C9A C2A 1_555 1_555
H9A C9A 1_555 1_555
H10A C9A 1_555 1_555
C9I C9A 1_555 1_555
C2I C9I 1_555 1_555
S1I C2I 1_555 1_555
O1I S1I 1_555 1_555
C1I S1I 1_555 1_555
C3I C1I 1_555 1_555
H3I C3I 1_555 1_555
C4I C3I 1_555 1_555
H4I C4I 1_555 1_555
C8I C4I 1_555 1_555
C7I C8I 1_555 1_555
C6I C1I 1_555 1_555
H6I C6I 1_555 1_555
H7I C7I 1_555 1_555
H8I C8I 1_555 1_555
H1I C2I 1_555 1_555
H2I C2I 1_555 1_555
H9I C9I 1_555 1_555
H10I C9I 1_555 1_555
O2A Eu1 1_555 1_555
C5A O2A 1_555 1_555
H5A C5A 1_555 1_555
N1A C5A 1_555 1_555
C10A N1A 1_555 1_555
H11A C10A 1_555 1_555
H12A C10A 1_555 1_555
H13A C10A 1_555 1_555
C11A N1A 1_555 1_555
H14A C11A 1_555 1_555
H15A C11A 1_555 1_555
H16A C11A 1_555 1_555
O2B Eu1 1_555 1_555
C5B O2B 1_555 1_555
H5B C5B 1_555 1_555
N1B C5B 1_555 1_555
C10B N1B 1_555 1_555
H11B C10B 1_555 1_555
H12B C10B 1_555 1_555
H13B C10B 1_555 1_555
C11B N1B 1_555 1_555
H14B C11B 1_555 1_555
H15B C11B 1_555 1_555
H16B C11B 1_555 1_555
O2L Eu1 1_555 1_555
C5L O2L 1_555 1_555
H5L C5L 1_555 1_555
N1L C5L 1_555 1_555
C10L N1L 1_555 1_555
H11L C10L 1_555 1_555
H12L C10L 1_555 1_555
H13L C10L 1_555 1_555
C11L N1L 1_555 1_555
H14L C11L 1_555 1_555
H15L C11L 1_555 1_555
H16L C11L 1_555 1_555
O1B Eu1 1_555 1_555
O1L Eu1 1_555 1_555
Eu1D O1H 1_555 1_555
Eu1D_2 O1I 1_555 1_555
C7 C8 1_555 1_555
C7H C6H 1_555 1_555
C7A C8A 1_555 1_555
C7I C6I 1_555 1_555

#END
