
#######################################################################
#
#                 Cambridge Crystallographic Data Centre
#                                CCDC 
#
#######################################################################
#
# If this CIF has been generated from an entry in the Cambridge 
# Structural Database, then it will include bibliographic, chemical, 
# crystal, experimental, refinement or atomic coordinate data resulting 
# from the CCDC's data processing and validation procedures.
#
#######################################################################

data_MIGKUI
_symmetry_cell_setting           triclinic
_symmetry_space_group_name_H-M   'P -1'
_symmetry_Int_Tables_number      2
_space_group_name_Hall           '-P 1'
loop_
_symmetry_equiv_pos_site_id
_symmetry_equiv_pos_as_xyz
1 x,y,z
2 -x,-y,-z
_cell_length_a                   6.3924(13)
_cell_length_b                   7.971(2)
_cell_length_c                   8.820(2)
_cell_angle_alpha                84.70(2)
_cell_angle_beta                 83.27(2)
_cell_angle_gamma                70.82(2)
_cell_volume                     420.846
loop_
_atom_site_label
_atom_site_type_symbol
_atom_site_fract_x
_atom_site_fract_y
_atom_site_fract_z
Cu1 Cu 0.0000 0.0000 0.0000
Na1 Na -0.2532(2) -0.0057(2) -0.4199(2)
O1 O -0.1285(3) 0.2474(2) 0.0667(2)
O2 O -0.1456(4) 0.1617(3) -0.2364(2)
O3 O -0.2743(5) 0.4981(3) -0.4310(2)
O4 O -0.3785(4) 0.7918(3) -0.2281(2)
O5 O -0.2962(4) 0.6381(3) 0.0836(2)
O6 O -0.2794(4) -0.0381(3) 0.0727(3)
H1 H -0.3889(70) 0.0419(54) 0.1128(44)
H2 H -0.2937(63) -0.1250(53) 0.0719(42)
O7 O -0.1220(4) 0.1941(3) -0.6008(3)
H3 H -0.1686(69) 0.2824(55) -0.5497(48)
H4 H -0.1145(89) 0.2157(70) -0.6913(66)
O8 O -0.3657(5) -0.1741(4) -0.5912(3)
H5 H -0.307(12) -0.2026(93) -0.6657(84)
H6 H -0.348(12) -0.2680(95) -0.5485(87)
C1 C -0.1913(4) 0.3620(3) -0.0417(3)
C2 C -0.1954(5) 0.3166(3) -0.1968(3)
C3 C -0.2619(5) 0.4829(3) -0.2914(3)
C4 C -0.3117(4) 0.6301(3) -0.1888(3)
C5 C -0.2702(4) 0.5541(3) -0.0331(3)
O1A O 0.1285(3) -0.2474(2) -0.0667(2)
O2A O 0.1456(4) -0.1617(3) 0.2364(2)
O3A O 0.2743(5) -0.4981(3) 0.4310(2)
O4A O 0.3785(4) -0.7918(3) 0.2281(2)
O5A O 0.2962(4) -0.6381(3) -0.0836(2)
C1A C 0.1913(4) -0.3620(3) 0.0417(3)
C2A C 0.1954(5) -0.3166(3) 0.1968(3)
C3A C 0.2619(5) -0.4829(3) 0.2914(3)
C4A C 0.3117(4) -0.6301(3) 0.1888(3)
C5A C 0.2702(4) -0.5541(3) 0.0331(3)
O6A O 0.2794(4) 0.0381(3) -0.0727(3)
H1A H 0.3889(70) -0.0419(54) -0.1128(44)
H2A H 0.2937(63) 0.1250(53) -0.0719(42)
Na1A Na 0.2532(2) 0.0057(2) 0.4199(2)
O7A O 0.1220(4) -0.1941(3) -0.3992(3)
H3A H 0.1686(69) -0.2824(55) -0.4503(48)
H4A H 0.1145(89) -0.2157(70) -0.3087(66)
O8A O -0.6343(5) 0.1741(4) -0.4088(3)
H5A H -0.693(12) 0.2026(93) -0.3343(84)
H6A H -0.652(12) 0.2680(95) -0.4515(87)
O4_2 O -0.3785(4) -0.2082(3) -0.2281(2)
Na1_2 Na -0.2532(2) 0.9943(2) -0.4199(2)
Na1A_2 Na 0.2532(2) 0.0057(2) -0.5801(2)
Na1A_3 Na -0.7468(2) 0.0057(2) -0.5801(2)
Na1A_4 Na 0.2532(2) -0.9943(2) 0.4199(2)
O4A_2 O 0.3785(4) 0.2082(3) 0.2281(2)
O7_2 O -0.1220(4) 0.1941(3) 0.3992(3)
O7A_2 O 0.1220(4) -0.1941(3) 0.6008(3)
O8_2 O 0.6343(5) -0.1741(4) 0.4088(3)
O8A_2 O 0.3657(5) 0.1741(4) 0.5912(3)
H3_2 H -0.1686(69) 0.2824(55) 0.4503(48)
H4_2 H -0.1145(89) 0.2157(70) 0.3087(66)
H3A_2 H 0.1686(69) -0.2824(55) 0.5497(48)
H4A_2 H 0.1145(89) -0.2157(70) 0.6913(66)
H5_2 H 0.693(12) -0.2026(93) 0.3343(84)
H6_2 H 0.652(12) -0.2680(95) 0.4515(87)
H5A_2 H 0.307(12) 0.2026(93) 0.6657(84)
H6A_2 H 0.348(12) 0.2680(95) 0.5485(87)
loop_
_geom_bond_atom_site_label_1
_geom_bond_atom_site_label_2
_geom_bond_site_symmetry_1
_geom_bond_site_symmetry_2
Cu1 O1 1_555 1_555
Na1 O2 1_555 1_555
O1 C1 1_555 1_555
O2 Cu1 1_555 1_555
O3 C3 1_555 1_555
O4 C4 1_555 1_555
O5 C5 1_555 1_555
O6 Cu1 1_555 1_555
H1 O6 1_555 1_555
H2 O6 1_555 1_555
O7 Na1 1_555 1_555
H3 O7 1_555 1_555
H4 O7 1_555 1_555
O8 Na1 1_555 1_555
H5 O8 1_555 1_555
H6 O8 1_555 1_555
C1 C2 1_555 1_555
C2 O2 1_555 1_555
C3 C2 1_555 1_555
C4 C3 1_555 1_555
C5 C1 1_555 1_555
O1A Cu1 1_555 1_555
O2A Cu1 1_555 1_555
O3A C3A 1_555 1_555
O4A C4A 1_555 1_555
O5A C5A 1_555 1_555
C1A O1A 1_555 1_555
C2A O2A 1_555 1_555
C3A C2A 1_555 1_555
C4A C3A 1_555 1_555
C5A C1A 1_555 1_555
O6A Cu1 1_555 1_555
H1A O6A 1_555 1_555
H2A O6A 1_555 1_555
Na1A O2A 1_555 1_555
O7A Na1 1_555 1_555
H3A O7A 1_555 1_555
H4A O7A 1_555 1_555
O8A Na1 1_555 1_555
H5A O8A 1_555 1_555
H6A O8A 1_555 1_555
O4_2 Na1 1_555 1_555
Na1_2 O4 1_555 1_555
Na1A_2 O7 1_555 1_555
Na1A_3 O8 1_555 1_555
Na1A_4 O4A 1_555 1_555
O4A_2 Na1A 1_555 1_555
O7_2 Na1A 1_555 1_555
O7A_2 Na1A 1_555 1_555
O8_2 Na1A 1_555 1_555
O8A_2 Na1A 1_555 1_555
H3_2 O7_2 1_555 1_555
H4_2 O7_2 1_555 1_555
H3A_2 O7A_2 1_555 1_555
H4A_2 O7A_2 1_555 1_555
H5_2 O8_2 1_555 1_555
H6_2 O8_2 1_555 1_555
H5A_2 O8A_2 1_555 1_555
H6A_2 O8A_2 1_555 1_555
C4 C5 1_555 1_555
C1A C2A 1_555 1_555
C4A C5A 1_555 1_555
O7A Na1A_2 1_555 1_555
O8A Na1A_3 1_555 1_555

#END
