
#######################################################################
#
#                 Cambridge Crystallographic Data Centre
#                                CCDC 
#
#######################################################################
#
# If this CIF has been generated from an entry in the Cambridge 
# Structural Database, then it will include bibliographic, chemical, 
# crystal, experimental, refinement or atomic coordinate data resulting 
# from the CCDC's data processing and validation procedures.
#
#######################################################################

data_MIGPOJ
_symmetry_cell_setting           triclinic
_symmetry_space_group_name_H-M   'P 1'
_symmetry_Int_Tables_number      1
_space_group_name_Hall           'P 1'
loop_
_symmetry_equiv_pos_site_id
_symmetry_equiv_pos_as_xyz
1 x,y,z
_cell_length_a                   9.7096(12)
_cell_length_b                   10.6095(14)
_cell_length_c                   14.018(3)
_cell_angle_alpha                101.815(3)
_cell_angle_beta                 93.434(3)
_cell_angle_gamma                117.157(2)
_cell_volume                     1237.99
loop_
_atom_site_label
_atom_site_type_symbol
_atom_site_fract_x
_atom_site_fract_y
_atom_site_fract_z
U1 U 0.64346(7) 0.37945(7) 0.91539(4)
U2 U 0.32901(5) 0.83296(5) 0.93447(4)
U3 U -0.03286(6) -0.06161(5) 0.93497(4)
P1 P 0.3078(5) 0.1806(5) 1.0371(3)
P2 P 0.5546(6) 0.6440(5) 0.8424(3)
P3 P -0.0041(5) 0.5981(5) 0.8171(3)
P4 P -0.2613(6) 0.1267(5) 1.0106(3)
C1 C 0.361(2) 0.2164(18) 1.1685(12)
C2 C 0.511(2) 0.264(2) 1.2143(14)
H1 H 0.5890 0.2796 1.1760
C3 C 0.549(3) 0.288(2) 1.3135(14)
H2 H 0.6521 0.3202 1.3424
C4 C 0.433(3) 0.265(3) 1.3720(14)
H3 H 0.4566 0.2764 1.4395
C5 C 0.283(3) 0.225(2) 1.3300(12)
H4 H 0.2069 0.2161 1.3693
C6 C 0.246(2) 0.199(2) 1.2275(13)
H5 H 0.1437 0.1686 1.1984
C7 C 0.476(2) 0.616(2) 0.7156(12)
C8 C 0.359(3) 0.478(3) 0.6635(16)
H6 H 0.3208 0.4008 0.6935
C9 C 0.301(3) 0.456(3) 0.5655(16)
H7 H 0.2260 0.3629 0.5288
C10 C 0.350(3) 0.569(3) 0.5225(15)
H8 H 0.3065 0.5519 0.4573
C11 C 0.464(3) 0.708(3) 0.5735(14)
H9 H 0.5011 0.7833 0.5423
C12 C 0.524(2) 0.734(2) 0.6740(13)
H10 H 0.5948 0.8281 0.7115
C13 C -0.043(2) 0.6041(18) 0.6934(11)
C14 C -0.197(2) 0.568(2) 0.6545(12)
H11 H -0.2748 0.5421 0.6934
C15 C -0.233(3) 0.570(3) 0.5540(15)
H12 H -0.3348 0.5451 0.5267
C16 C -0.114(2) 0.610(2) 0.4989(13)
H13 H -0.1345 0.6144 0.4343
C17 C 0.031(2) 0.642(2) 0.5376(13)
H14 H 0.1091 0.6690 0.4990
C18 C 0.068(2) 0.638(2) 0.6310(12)
H15 H 0.1696 0.6581 0.6541
C19 C -0.161(2) 0.212(2) 1.1376(11)
C20 C -0.195(2) 0.128(2) 1.2066(15)
H16 H -0.2629 0.0278 1.1852
C21 C -0.131(3) 0.191(3) 1.3049(14)
H17 H -0.1614 0.1354 1.3504
C22 C -0.019(3) 0.341(3) 1.3369(14)
H18 H 0.0288 0.3840 1.4030
C23 C 0.021(3) 0.426(3) 1.2672(13)
H19 H 0.0953 0.5246 1.2865
C24 C -0.054(2) 0.358(2) 1.1686(14)
H20 H -0.0316 0.4136 1.1229
O1 O -0.0642(17) -0.1022(17) 1.0500(9)
O2 O 0.0036(16) -0.0257(15) 0.8190(8)
O3 O 0.7280(16) 0.7467(16) 0.8570(9)
O4 O -0.1786(16) 0.0542(14) 0.9522(8)
O5 O 0.0400(13) 0.7496(13) 0.8859(7)
O6 O 0.1622(14) 0.1939(14) 1.0162(8)
O7 O 0.4463(15) 0.2848(14) 1.0018(8)
O8 O 0.5408(15) 0.2327(14) 0.8073(8)
O9 O 0.7473(14) 0.5294(14) 1.0196(9)
O10 O 0.2922(15) 0.7756(15) 1.0427(8)
O11 O 0.3623(15) 0.8833(14) 0.8222(8)
O12 O 0.1477(15) 0.5861(14) 0.8341(8)
O13 O 0.2580(14) 0.0189(14) 0.9885(8)
O14 O 0.4735(15) 0.7039(13) 0.9140(7)
O15 O -0.4288(15) 0.0175(16) 1.0153(9)
O16 O -0.2587(16) 0.2507(16) 0.9720(8)
O17 O 0.5241(14) 0.4936(13) 0.8540(9)
O18 O -0.1506(14) 0.4740(14) 0.8336(8)
U1_2 U -0.35654(7) 0.37945(7) 0.91539(4)
U2_2 U -0.67099(5) -0.16704(5) 0.93447(4)
U2_3 U 0.32901(5) -0.16704(5) 0.93447(4)
U3_2 U -0.03286(6) 0.93839(5) 0.93497(4)
U3_3 U 0.96714(6) 0.93839(5) 0.93497(4)
O3_2 O -0.2720(16) -0.2533(16) 0.8570(9)
O5_2 O 0.0400(13) -0.2504(13) 0.8859(7)
O13_2 O 0.2580(14) 1.0189(14) 0.9885(8)
O15_2 O 0.5712(15) 1.0175(16) 1.0153(9)
O16_2 O 0.7413(16) 0.2507(16) 0.9720(8)
O18_2 O 0.8494(14) 0.4740(14) 0.8336(8)
C25 C 1.039(2) 0.872(2) 0.3601(12)
C26 C 1.0297(19) 0.955(2) 0.4495(12)
H21 H 1.1186 1.0165 0.4978
C27 C 0.880(2) 0.941(2) 0.4634(12)
C28 C 0.751(2) 0.852(2) 0.3906(11)
H22 H 0.6529 0.8417 0.4012
C29 C 0.7647(19) 0.7801(18) 0.3042(11)
C30 C 0.911(2) 0.790(2) 0.2869(12)
H23 H 0.9201 0.7412 0.2264
C31 C 0.9664(19) 1.0793(19) 0.6401(12)
H24 H 1.0469 1.0579 0.6545
C32 C 0.800(3) 1.161(2) 0.6538(15)
H25 H 0.7457 1.2091 0.6808
C33 C 0.767(2) 1.081(3) 0.5622(14)
H26 H 0.6870 1.0635 0.5132
C34 C 1.308(2) 0.914(2) 0.4196(12)
H27 H 1.3053 0.9331 0.4870
C35 C 1.388(2) 0.884(2) 0.2805(15)
H28 H 1.4515 0.8790 0.2347
C36 C 1.240(2) 0.866(2) 0.2585(13)
H29 H 1.1844 0.8452 0.1960
C37 C 0.626(2) 0.7104(19) 0.1329(12)
H30 H 0.7096 0.7731 0.1075
C38 C 0.392(2) 0.551(2) 0.1479(13)
H31 H 0.2852 0.4847 0.1317
C39 C 0.481(2) 0.589(2) 0.2346(13)
H32 H 0.4503 0.5540 0.2897
N1 N 0.8725(19) 1.0292(17) 0.5514(10)
N2 N 0.9284(19) 1.1621(17) 0.7034(10)
N3 N 1.1897(16) 0.8843(18) 0.3478(9)
N4 N 1.4268(17) 0.911(2) 0.3807(11)
N5 N 0.6328(16) 0.6939(16) 0.2259(10)
N6 N 0.4824(17) 0.6230(17) 0.0848(10)
O19 O 0.2690(17) 0.0184(16) 0.6611(9)
O20 O 0.1166(18) 0.3237(17) 0.8665(10)
loop_
_geom_bond_atom_site_label_1
_geom_bond_atom_site_label_2
_geom_bond_site_symmetry_1
_geom_bond_site_symmetry_2
U1 O7 1_555 1_555
U2 O5 1_555 1_555
U3 O1 1_555 1_555
P1 C1 1_555 1_555
P2 C7 1_555 1_555
P3 C13 1_555 1_555
P4 C19 1_555 1_555
C1 C2 1_555 1_555
C2 H1 1_555 1_555
C3 C2 1_555 1_555
H2 C3 1_555 1_555
C4 C3 1_555 1_555
H3 C4 1_555 1_555
C5 C4 1_555 1_555
H4 C5 1_555 1_555
C6 C1 1_555 1_555
H5 C6 1_555 1_555
C7 C8 1_555 1_555
C8 H6 1_555 1_555
C9 C8 1_555 1_555
H7 C9 1_555 1_555
C10 C9 1_555 1_555
H8 C10 1_555 1_555
C11 C10 1_555 1_555
H9 C11 1_555 1_555
C12 C7 1_555 1_555
H10 C12 1_555 1_555
C13 C14 1_555 1_555
C14 H11 1_555 1_555
C15 C14 1_555 1_555
H12 C15 1_555 1_555
C16 C15 1_555 1_555
H13 C16 1_555 1_555
C17 C16 1_555 1_555
H14 C17 1_555 1_555
C18 C13 1_555 1_555
H15 C18 1_555 1_555
C19 C20 1_555 1_555
C20 H16 1_555 1_555
C21 C20 1_555 1_555
H17 C21 1_555 1_555
C22 C21 1_555 1_555
H18 C22 1_555 1_555
C23 C22 1_555 1_555
H19 C23 1_555 1_555
C24 C19 1_555 1_555
H20 C24 1_555 1_555
O2 U3 1_555 1_555
O3 P2 1_555 1_555
O4 U3 1_555 1_555
O5 P3 1_555 1_555
O6 U3 1_555 1_555
O7 P1 1_555 1_555
O8 U1 1_555 1_555
O9 U1 1_555 1_555
O10 U2 1_555 1_555
O11 U2 1_555 1_555
O12 U2 1_555 1_555
O13 U3 1_555 1_555
O14 U2 1_555 1_555
O15 P4 1_555 1_555
O16 P4 1_555 1_555
O17 U1 1_555 1_555
O18 P3 1_555 1_555
C25 C26 1_555 1_555
C26 H21 1_555 1_555
C27 C26 1_555 1_555
C28 C27 1_555 1_555
H22 C28 1_555 1_555
C29 C28 1_555 1_555
C30 C25 1_555 1_555
H23 C30 1_555 1_555
C31 H24 1_555 1_555
C32 H25 1_555 1_555
C33 C32 1_555 1_555
H26 C33 1_555 1_555
C34 H27 1_555 1_555
C35 H28 1_555 1_555
C36 C35 1_555 1_555
H29 C36 1_555 1_555
C37 H30 1_555 1_555
C38 H31 1_555 1_555
C39 C38 1_555 1_555
H32 C39 1_555 1_555
N1 C27 1_555 1_555
N2 C31 1_555 1_555
N3 C25 1_555 1_555
N4 C34 1_555 1_555
N5 C29 1_555 1_555
N6 C37 1_555 1_555
U1_2 O16 1_555 1_555
U2_2 O15 1_555 1_555
U2_3 O13 1_555 1_555
U3_2 O5 1_555 1_555
U3_3 O3 1_555 1_555
O3_2 U3 1_555 1_555
O5_2 U3 1_555 1_555
O13_2 U2 1_555 1_555
O15_2 U2 1_555 1_555
O16_2 U1 1_555 1_555
O18_2 U1 1_555 1_555
P1 O6 1_555 1_555
P1 O13 1_555 1_555
P2 O14 1_555 1_555
P2 O17 1_555 1_555
P3 O12 1_555 1_555
P4 O4 1_555 1_555
C5 C6 1_555 1_555
C11 C12 1_555 1_555
C17 C18 1_555 1_555
C23 C24 1_555 1_555
O18 U1_2 1_555 1_555
C29 C30 1_555 1_555
C31 N1 1_555 1_555
C32 N2 1_555 1_555
C33 N1 1_555 1_555
C34 N3 1_555 1_555
C35 N4 1_555 1_555
C36 N3 1_555 1_555
C37 N5 1_555 1_555
C38 N6 1_555 1_555
C39 N5 1_555 1_555
U2_3 O5_2 1_555 1_555
U3_2 O13_2 1_555 1_555

#END
