
#######################################################################
#
#                 Cambridge Crystallographic Data Centre
#                                CCDC 
#
#######################################################################
#
# If this CIF has been generated from an entry in the Cambridge 
# Structural Database, then it will include bibliographic, chemical, 
# crystal, experimental, refinement or atomic coordinate data resulting 
# from the CCDC's data processing and validation procedures.
#
#######################################################################

data_MIGPID
_symmetry_cell_setting           triclinic
_symmetry_space_group_name_H-M   'P -1'
_symmetry_Int_Tables_number      2
_space_group_name_Hall           '-P 1'
loop_
_symmetry_equiv_pos_site_id
_symmetry_equiv_pos_as_xyz
1 x,y,z
2 -x,-y,-z
_cell_length_a                   11.7250(9)
_cell_length_b                   13.5150(11)
_cell_length_c                   16.5799(13)
_cell_angle_alpha                104.351(4)
_cell_angle_beta                 94.273(4)
_cell_angle_gamma                96.468(4)
_cell_volume                     2514.76
loop_
_atom_site_label
_atom_site_type_symbol
_atom_site_fract_x
_atom_site_fract_y
_atom_site_fract_z
C1 C 0.8608(11) 0.7158(9) 0.0678(6)
H1 H 0.9288 0.7613 0.0856
H2 H 0.8285 0.6806 0.1040
C2 C 0.8104(8) 0.7012(7) -0.0086(5)
H3 H 0.7424 0.6557 -0.0262
C3 C 0.8612(8) 0.7569(7) -0.0670(5)
C4 C 0.8430(7) 0.7838(6) -0.2009(5)
H4 H 0.9205 0.7680 -0.2096
H5 H 0.8461 0.8580 -0.1810
C5 C 0.7647(7) 0.7441(6) -0.2809(5)
C6 C 0.6865(7) 0.6541(6) -0.2984(5)
H6 H 0.6791 0.6166 -0.2586
C7 C 0.6190(7) 0.6202(6) -0.3758(6)
H7 H 0.5648 0.5613 -0.3878
C8 C 0.6354(7) 0.6765(6) -0.4335(5)
H8 H 0.5942 0.6544 -0.4863
C9 C 0.7143(6) 0.7676(6) -0.4126(5)
C10 C 0.7274(6) 0.8254(6) -0.4743(5)
H9 H 0.6860 0.8028 -0.5271
C11 C 0.7586(8) 0.9394(7) -0.5928(5)
H10 H 0.7475 0.8656 -0.6124
H11 H 0.8037 0.9683 -0.6296
H12 H 0.6849 0.9641 -0.5921
C12 C 0.8897(6) 1.0640(6) -0.4768(4)
C13 C 0.9105(6) 1.1303(6) -0.5267(5)
H13 H 0.8779 1.1138 -0.5820
C14 C 0.9822(7) 1.2232(6) -0.4914(4)
C15 C 1.0056(7) 1.1768(6) -0.3665(5)
C16 C 1.0545(8) 1.2037(6) -0.2783(5)
H14 H 0.9946 1.2203 -0.2428
H15 H 1.1133 1.2622 -0.2680
H16 H 1.0875 1.1463 -0.2666
C17 C 0.9547(7) 1.2753(6) -0.6233(5)
H17 H 1.0015 1.2357 -0.6604
H18 H 0.9508 1.3403 -0.6363
H19 H 0.8783 1.2383 -0.6298
C18 C 1.1198(6) 1.4432(6) -0.5385(5)
H20 H 1.0938 1.4344 -0.5946
C19 C 1.2029(7) 1.5344(6) -0.4928(5)
C20 C 1.2523(7) 1.6038(7) -0.5332(5)
H21 H 1.2347 1.5936 -0.5905
C21 C 1.3282(7) 1.6886(7) -0.4876(6)
H22 H 1.3630 1.7353 -0.5141
C22 C 1.3516(7) 1.7030(7) -0.4024(6)
H23 H 1.4012 1.7601 -0.3705
C23 C 1.2996(7) 1.6306(6) -0.3650(5)
C24 C 1.3077(8) 1.6435(7) -0.2719(5)
H24 H 1.2404 1.6716 -0.2499
H25 H 1.3096 1.5770 -0.2600
C25 C 1.4221(8) 1.7373(8) -0.1491(6)
C26 C 1.5330(9) 1.7981(10) -0.1138(6)
H26 H 1.5830 1.8185 -0.1495
C27 C 1.5643(11) 1.8247(13) -0.0329(8)
H27 H 1.5150 1.8047 0.0033
H28 H 1.6356 1.8635 -0.0118
C28 C 0.9001(9) 0.4442(7) -0.1907(7)
C29 C 1.3040(7) 0.9905(7) -0.1924(5)
C30 C 1.3534(13) 0.9528(11) 0.1385(7)
N1 N 0.7767(5) 0.8002(5) -0.3367(4)
N2 N 0.8002(5) 0.9116(5) -0.4533(4)
N3 N 0.8193(6) 0.9707(5) -0.5077(4)
N4 N 0.9363(6) 1.0864(5) -0.3964(4)
N5 N 1.0300(6) 1.2460(5) -0.4113(4)
N6 N 1.0053(5) 1.2931(5) -0.5372(4)
N7 N 1.0849(5) 1.3780(5) -0.5003(4)
N8 N 1.2267(6) 1.5483(5) -0.4087(4)
O1 O 0.9521(5) 0.8136(4) -0.0510(3)
O2 O 0.7959(5) 0.7335(5) -0.1402(3)
O3 O 1.4097(5) 1.7114(5) -0.2326(4)
O4 O 1.3471(5) 1.7095(6) -0.1098(4)
O5 O 1.1140(5) 0.4644(4) -0.2092(3)
O6 O 1.0416(6) 0.5947(5) -0.1063(4)
O7 O 0.9969(6) 0.5834(6) -0.2526(5)
O8 O 1.1527(5) 0.8382(4) -0.1880(3)
O9 O 1.0950(4) 0.9621(4) -0.2599(3)
O10 O 1.1287(5) 1.0099(5) -0.1077(3)
O11 O 1.1737(10) 0.9732(6) 0.0825(5)
O12 O 1.1920(6) 0.7951(5) 0.0699(4)
O13 O 1.1576(12) 0.9037(7) 0.1982(6)
F1 F 0.9129(5) 0.3868(5) -0.1382(4)
F2 F 0.8725(6) 0.3780(5) -0.2675(4)
F3 F 0.8093(5) 0.4947(5) -0.1742(4)
F4 F 1.3716(4) 0.9740(4) -0.1297(3)
F5 F 1.3201(4) 1.0891(4) -0.1901(4)
F6 F 1.3376(4) 0.9387(4) -0.2634(3)
F7 F 1.3674(8) 1.0295(6) 0.2085(8)
F8 F 1.4177(5) 0.8880(7) 0.1531(4)
F9 F 1.3846(9) 0.9486(9) 0.0617(6)
S1 S 1.0260(2) 0.53024(16) -0.19111(14)
S2 S 1.15367(16) 0.94623(14) -0.18526(11)
S3 S 1.19892(17) 0.89930(16) 0.12277(12)
Ag1 Ag 0.89523(5) 0.96476(4) -0.31270(3)
Ag2 Ag 1.15622(6) 1.40511(5) -0.35493(4)
Ag3 Ag 1.15233(6) 0.76336(5) -0.07488(4)
Ag4 Ag 1.0000 1.0000 0.0000
O14 O 1.334(4) 1.348(3) -0.300(3)
C1A C 1.1392(11) 1.2842(9) -0.0678(6)
H1A H 1.0712 1.2387 -0.0856
H2A H 1.1715 1.3194 -0.1040
C2A C 1.1896(8) 1.2988(7) 0.0086(5)
H3A H 1.2576 1.3443 0.0262
C3A C 1.1388(8) 1.2431(7) 0.0670(5)
C4A C 1.1570(7) 1.2162(6) 0.2009(5)
H4A H 1.0795 1.2320 0.2096
H5A H 1.1539 1.1420 0.1810
C5A C 1.2353(7) 1.2559(6) 0.2809(5)
C6A C 1.3135(7) 1.3459(6) 0.2984(5)
H6A H 1.3209 1.3834 0.2586
C7A C 1.3810(7) 1.3798(6) 0.3758(6)
H7A H 1.4352 1.4387 0.3878
C8A C 1.3646(7) 1.3235(6) 0.4335(5)
H8A H 1.4058 1.3456 0.4863
C9A C 1.2857(6) 1.2324(6) 0.4126(5)
C10A C 1.2726(6) 1.1746(6) 0.4743(5)
H9A H 1.3140 1.1972 0.5271
C11A C 1.2414(8) 1.0606(7) 0.5928(5)
H10A H 1.2525 1.1344 0.6124
H11A H 1.1963 1.0317 0.6296
H12A H 1.3151 1.0359 0.5921
C12A C 1.1103(6) 0.9360(6) 0.4768(4)
C13A C 1.0895(6) 0.8697(6) 0.5267(5)
H13A H 1.1221 0.8862 0.5820
C14A C 1.0178(7) 0.7768(6) 0.4914(4)
C15A C 0.9944(7) 0.8232(6) 0.3665(5)
C16A C 0.9455(8) 0.7963(6) 0.2783(5)
H14A H 1.0054 0.7797 0.2428
H15A H 0.8867 0.7378 0.2680
H16A H 0.9125 0.8537 0.2666
C17A C 1.0453(7) 0.7247(6) 0.6233(5)
H17A H 0.9985 0.7643 0.6604
H18A H 1.0492 0.6597 0.6363
H19A H 1.1217 0.7617 0.6298
C18A C 0.8802(6) 0.5568(6) 0.5385(5)
H20A H 0.9062 0.5656 0.5946
C19A C 0.7971(7) 0.4656(6) 0.4928(5)
C20A C 0.7477(7) 0.3962(7) 0.5332(5)
H21A H 0.7653 0.4064 0.5905
C21A C 0.6718(7) 0.3114(7) 0.4876(6)
H22A H 0.6370 0.2647 0.5141
C22A C 0.6484(7) 0.2970(7) 0.4024(6)
H23A H 0.5988 0.2399 0.3705
C23A C 0.7004(7) 0.3694(6) 0.3650(5)
C24A C 0.6923(8) 0.3565(7) 0.2719(5)
H24A H 0.7596 0.3284 0.2499
H25A H 0.6904 0.4230 0.2600
C25A C 0.5779(8) 0.2627(8) 0.1491(6)
C26A C 0.4670(9) 0.2019(10) 0.1138(6)
H26A H 0.4170 0.1815 0.1495
C27A C 0.4357(11) 0.1753(13) 0.0329(8)
H27A H 0.4850 0.1953 -0.0033
H28A H 0.3644 0.1365 0.0118
C28A C 1.0999(9) 1.5558(7) 0.1907(7)
C29A C 0.6960(7) 1.0095(7) 0.1924(5)
C30A C 0.6466(13) 1.0472(11) -0.1385(7)
N1A N 1.2233(5) 1.1998(5) 0.3367(4)
N2A N 1.1998(5) 1.0884(5) 0.4533(4)
N3A N 1.1807(6) 1.0293(5) 0.5077(4)
N4A N 1.0637(6) 0.9136(5) 0.3964(4)
N5A N 0.9700(6) 0.7540(5) 0.4113(4)
N6A N 0.9947(5) 0.7069(5) 0.5372(4)
N7A N 0.9151(5) 0.6220(5) 0.5003(4)
N8A N 0.7733(6) 0.4517(5) 0.4087(4)
O1A O 1.0479(5) 1.1864(4) 0.0510(3)
O2A O 1.2041(5) 1.2665(5) 0.1402(3)
O3A O 0.5903(5) 0.2886(5) 0.2326(4)
O4A O 0.6529(5) 0.2905(6) 0.1098(4)
O5A O 0.8860(5) 1.5356(4) 0.2092(3)
O6A O 0.9584(6) 1.4053(5) 0.1063(4)
O7A O 1.0031(6) 1.4166(6) 0.2526(5)
O8A O 0.8473(5) 1.1618(4) 0.1880(3)
O9A O 0.9050(4) 1.0379(4) 0.2599(3)
O10A O 0.8713(5) 0.9901(5) 0.1077(3)
O11A O 0.8263(10) 1.0268(6) -0.0825(5)
O12A O 0.8080(6) 1.2049(5) -0.0699(4)
O13A O 0.8424(12) 1.0963(7) -0.1982(6)
F1A F 1.0871(5) 1.6132(5) 0.1382(4)
F2A F 1.1275(6) 1.6220(5) 0.2675(4)
F3A F 1.1907(5) 1.5053(5) 0.1742(4)
F4A F 0.6284(4) 1.0260(4) 0.1297(3)
F5A F 0.6799(4) 0.9109(4) 0.1901(4)
F6A F 0.6624(4) 1.0613(4) 0.2634(3)
F7A F 0.6326(8) 0.9705(6) -0.2085(8)
F8A F 0.5823(5) 1.1120(7) -0.1531(4)
F9A F 0.6154(9) 1.0514(9) -0.0617(6)
S1A S 0.9740(2) 1.46976(16) 0.19111(14)
S2A S 0.84633(16) 1.05377(14) 0.18526(11)
S3A S 0.80108(17) 1.10070(16) -0.12277(12)
Ag1A Ag 1.10477(5) 1.03524(4) 0.31270(3)
Ag2A Ag 0.84378(6) 0.59489(5) 0.35493(4)
Ag3A Ag 0.84767(6) 1.23664(5) 0.07488(4)
O14A O 0.666(4) 0.652(3) 0.300(3)
O4_2 O 1.3471(5) 0.7095(6) -0.1098(4)
O4A_2 O 0.6529(5) 1.2905(6) 0.1098(4)
O5_2 O 1.1140(5) 1.4644(4) -0.2092(3)
O5A_2 O 0.8860(5) 0.5356(4) 0.2092(3)
Ag2_2 Ag 1.15622(6) 0.40511(5) -0.35493(4)
Ag2A_2 Ag 0.84378(6) 1.59489(5) 0.35493(4)
Ag3_2 Ag 1.15233(6) 1.76336(5) -0.07488(4)
Ag3A_2 Ag 0.84767(6) 0.23664(5) 0.07488(4)
loop_
_geom_bond_atom_site_label_1
_geom_bond_atom_site_label_2
_geom_bond_site_symmetry_1
_geom_bond_site_symmetry_2
C1 H1 1_555 1_555
H2 C1 1_555 1_555
C2 C1 1_555 1_555
H3 C2 1_555 1_555
C3 C2 1_555 1_555
C4 H4 1_555 1_555
H5 C4 1_555 1_555
C5 C4 1_555 1_555
C6 C5 1_555 1_555
H6 C6 1_555 1_555
C7 C6 1_555 1_555
H7 C7 1_555 1_555
C8 C7 1_555 1_555
H8 C8 1_555 1_555
C9 C8 1_555 1_555
C10 C9 1_555 1_555
H9 C10 1_555 1_555
C11 H10 1_555 1_555
H11 C11 1_555 1_555
H12 C11 1_555 1_555
C12 C13 1_555 1_555
C13 H13 1_555 1_555
C14 C13 1_555 1_555
C15 C16 1_555 1_555
C16 H14 1_555 1_555
H15 C16 1_555 1_555
H16 C16 1_555 1_555
C17 H17 1_555 1_555
H18 C17 1_555 1_555
H19 C17 1_555 1_555
C18 H20 1_555 1_555
C19 C18 1_555 1_555
C20 C19 1_555 1_555
H21 C20 1_555 1_555
C21 C20 1_555 1_555
H22 C21 1_555 1_555
C22 C21 1_555 1_555
H23 C22 1_555 1_555
C23 C22 1_555 1_555
C24 C23 1_555 1_555
H24 C24 1_555 1_555
H25 C24 1_555 1_555
C25 C26 1_555 1_555
C26 H26 1_555 1_555
C27 C26 1_555 1_555
H27 C27 1_555 1_555
H28 C27 1_555 1_555
C28 F1 1_555 1_555
C29 F4 1_555 1_555
C30 F7 1_555 1_555
N1 C5 1_555 1_555
N2 C10 1_555 1_555
N3 C11 1_555 1_555
N4 C12 1_555 1_555
N5 C14 1_555 1_555
N6 C14 1_555 1_555
N7 C18 1_555 1_555
N8 C19 1_555 1_555
O1 C3 1_555 1_555
O2 C3 1_555 1_555
O3 C24 1_555 1_555
O4 C25 1_555 1_555
O5 S1 1_555 1_555
O6 S1 1_555 1_555
O7 S1 1_555 1_555
O8 S2 1_555 1_555
O9 S2 1_555 1_555
O10 S2 1_555 1_555
O11 S3 1_555 1_555
O12 S3 1_555 1_555
O13 S3 1_555 1_555
F2 C28 1_555 1_555
F3 C28 1_555 1_555
F5 C29 1_555 1_555
F6 C29 1_555 1_555
F8 C30 1_555 1_555
F9 C30 1_555 1_555
S1 C28 1_555 1_555
S2 C29 1_555 1_555
S3 C30 1_555 1_555
Ag1 N1 1_555 1_555
Ag2 N5 1_555 1_555
Ag3 O1 1_555 1_555
Ag4 O1 1_555 1_555
O14 Ag2 1_555 1_555
C1A H1A 1_555 1_555
H2A C1A 1_555 1_555
C2A C1A 1_555 1_555
H3A C2A 1_555 1_555
C3A C2A 1_555 1_555
C4A H4A 1_555 1_555
H5A C4A 1_555 1_555
C5A C4A 1_555 1_555
C6A C5A 1_555 1_555
H6A C6A 1_555 1_555
C7A C6A 1_555 1_555
H7A C7A 1_555 1_555
C8A C7A 1_555 1_555
H8A C8A 1_555 1_555
C9A C8A 1_555 1_555
C10A C9A 1_555 1_555
H9A C10A 1_555 1_555
C11A H10A 1_555 1_555
H11A C11A 1_555 1_555
H12A C11A 1_555 1_555
C12A C13A 1_555 1_555
C13A H13A 1_555 1_555
C14A C13A 1_555 1_555
C15A C16A 1_555 1_555
C16A H14A 1_555 1_555
H15A C16A 1_555 1_555
H16A C16A 1_555 1_555
C17A H17A 1_555 1_555
H18A C17A 1_555 1_555
H19A C17A 1_555 1_555
C18A H20A 1_555 1_555
C19A C18A 1_555 1_555
C20A C19A 1_555 1_555
H21A C20A 1_555 1_555
C21A C20A 1_555 1_555
H22A C21A 1_555 1_555
C22A C21A 1_555 1_555
H23A C22A 1_555 1_555
C23A C22A 1_555 1_555
C24A C23A 1_555 1_555
H24A C24A 1_555 1_555
H25A C24A 1_555 1_555
C25A C26A 1_555 1_555
C26A H26A 1_555 1_555
C27A C26A 1_555 1_555
H27A C27A 1_555 1_555
H28A C27A 1_555 1_555
C28A F1A 1_555 1_555
C29A F4A 1_555 1_555
C30A F7A 1_555 1_555
N1A C5A 1_555 1_555
N2A C10A 1_555 1_555
N3A C11A 1_555 1_555
N4A C12A 1_555 1_555
N5A C14A 1_555 1_555
N6A C14A 1_555 1_555
N7A C18A 1_555 1_555
N8A C19A 1_555 1_555
O1A Ag4 1_555 1_555
O2A C3A 1_555 1_555
O3A C24A 1_555 1_555
O4A C25A 1_555 1_555
O5A S1A 1_555 1_555
O6A S1A 1_555 1_555
O7A S1A 1_555 1_555
O8A S2A 1_555 1_555
O9A S2A 1_555 1_555
O10A Ag4 1_555 1_555
O11A Ag4 1_555 1_555
O12A S3A 1_555 1_555
O13A Ag1 1_555 1_555
F2A C28A 1_555 1_555
F3A C28A 1_555 1_555
F5A C29A 1_555 1_555
F6A C29A 1_555 1_555
F8A C30A 1_555 1_555
F9A C30A 1_555 1_555
S1A C28A 1_555 1_555
S2A C29A 1_555 1_555
S3A C30A 1_555 1_555
Ag1A O13 1_555 1_555
Ag2A N5A 1_555 1_555
Ag3A O1A 1_555 1_555
O14A Ag2A 1_555 1_555
O4_2 Ag3 1_555 1_555
O4A_2 Ag3A 1_555 1_555
O5_2 Ag2 1_555 1_555
O5A_2 Ag2A 1_555 1_555
Ag2_2 O5 1_555 1_555
Ag2A_2 O5A 1_555 1_555
Ag3_2 O4 1_555 1_555
Ag3A_2 O4A 1_555 1_555
C4 O2 1_555 1_555
C9 N1 1_555 1_555
C12 N3 1_555 1_555
C15 N4 1_555 1_555
C15 N5 1_555 1_555
C17 N6 1_555 1_555
C23 N8 1_555 1_555
C25 O3 1_555 1_555
N2 N3 1_555 1_555
N2 Ag1 1_555 1_555
N4 Ag1 1_555 1_555
N6 N7 1_555 1_555
N7 Ag2 1_555 1_555
N8 Ag2 1_555 1_555
O6 Ag3 1_555 1_555
O8 Ag3 1_555 1_555
O9 Ag1 1_555 1_555
O10 Ag4 1_555 1_555
O11 Ag4 1_555 1_555
O12 Ag3 1_555 1_555
C3A O1A 1_555 1_555
C4A O2A 1_555 1_555
C9A N1A 1_555 1_555
C12A N3A 1_555 1_555
C15A N4A 1_555 1_555
C15A N5A 1_555 1_555
C17A N6A 1_555 1_555
C23A N8A 1_555 1_555
C25A O3A 1_555 1_555
N1A Ag1A 1_555 1_555
N2A N3A 1_555 1_555
N2A Ag1A 1_555 1_555
N4A Ag1A 1_555 1_555
N6A N7A 1_555 1_555
N7A Ag2A 1_555 1_555
N8A Ag2A 1_555 1_555
O6A Ag3A 1_555 1_555
O8A Ag3A 1_555 1_555
O9A Ag1A 1_555 1_555
O10A S2A 1_555 1_555
O11A S3A 1_555 1_555
O12A Ag3A 1_555 1_555
O13A S3A 1_555 1_555

#END
