
#######################################################################
#
#                 Cambridge Crystallographic Data Centre
#                                CCDC 
#
#######################################################################
#
# If this CIF has been generated from an entry in the Cambridge 
# Structural Database, then it will include bibliographic, chemical, 
# crystal, experimental, refinement or atomic coordinate data resulting 
# from the CCDC's data processing and validation procedures.
#
#######################################################################

data_MIGQAW
_symmetry_cell_setting           monoclinic
_symmetry_space_group_name_H-M   'P 21/n'
_symmetry_Int_Tables_number      14
_space_group_name_Hall           '-P 2yn'
loop_
_symmetry_equiv_pos_site_id
_symmetry_equiv_pos_as_xyz
1 x,y,z
2 1/2-x,1/2+y,1/2-z
3 -x,-y,-z
4 1/2+x,1/2-y,1/2+z
_cell_length_a                   13.1880(11)
_cell_length_b                   10.4948(9)
_cell_length_c                   21.5361(18)
_cell_angle_alpha                90
_cell_angle_beta                 95.9990(10)
_cell_angle_gamma                90
_cell_volume                     2964.39
loop_
_atom_site_label
_atom_site_type_symbol
_atom_site_fract_x
_atom_site_fract_y
_atom_site_fract_z
U1 U 0.778002(14) 0.049482(18) 0.225548(9)
Zn1 Zn 0.45758(4) 0.05065(6) 0.29267(3)
P1 P 0.56928(10) -0.17032(12) 0.22538(6)
P2 P 0.93175(10) -0.22043(13) 0.28358(7)
O1 O 0.7460(3) 0.0441(4) 0.30384(18)
O2 O 0.8069(3) 0.0536(3) 0.14711(17)
O3 O 0.6585(3) -0.1040(4) 0.19836(17)
O4 O 0.8388(3) -0.2959(4) 0.29965(19)
O5 O 0.9004(3) -0.1034(3) 0.24468(17)
O6 O 0.5961(3) -0.3068(3) 0.24353(18)
O7 O 0.5332(3) -0.1007(3) 0.28027(17)
O8 O 1.0063(3) -0.3016(3) 0.25228(17)
C1 C 0.3834(4) 0.0459(5) 0.4212(2)
H1 H 0.3315 -0.0148 0.4094
C2 C 0.3997(4) 0.1011(6) 0.4777(3)
H2 H 0.3624 0.0873 0.5125
C3 C 0.5112(4) 0.1712(5) 0.4168(2)
H3 H 0.5667 0.2163 0.4025
C4 C 0.5321(4) 0.2541(5) 0.5251(2)
C5 C 0.4804(4) 0.2827(6) 0.5763(3)
H4 H 0.4104 0.2616 0.5762
C6 C 0.6328(4) 0.2896(6) 0.5242(3)
H5 H 0.6679 0.2703 0.4891
C7 C 0.7268(4) 0.5357(5) 0.7678(2)
H6 H 0.7238 0.5891 0.8032
C8 C 0.7837(4) 0.4081(5) 0.7026(3)
H7 H 0.8272 0.3537 0.6820
C9 C 0.6487(4) 0.5159(5) 0.7229(2)
H8 H 0.5823 0.5517 0.7208
C10 C 0.6320(4) 0.3769(5) 0.6267(2)
C11 C 0.6818(4) 0.3531(6) 0.5746(3)
H9 H 0.7502 0.3807 0.5735
C12 C 0.5317(4) 0.3419(6) 0.6273(3)
H10 H 0.4975 0.3587 0.6631
C13 C 0.3707(4) -0.2154(5) 0.1742(3)
H11 H 0.3601 -0.2484 0.2141
C14 C 0.4666(4) -0.1722(5) 0.1628(2)
C15 C 0.4791(4) -0.1257(6) 0.1040(3)
H12 H 0.5442 -0.0957 0.0954
C16 C 0.3981(5) -0.1221(6) 0.0574(3)
H13 H 0.4077 -0.0903 0.0172
C17 C 0.3047(5) -0.1643(6) 0.0697(3)
H14 H 0.2490 -0.1616 0.0380
C18 C 0.2908(4) -0.2105(6) 0.1274(3)
H15 H 0.2253 -0.2396 0.1355
C19 C 0.9974(4) -0.1667(5) 0.3563(2)
C20 C 1.0223(4) -0.0398(6) 0.3677(3)
H16 H 1.0029 0.0223 0.3366
C21 C 1.0748(5) -0.0027(6) 0.4234(3)
H17 H 1.0904 0.0848 0.4306
C22 C 1.1046(5) -0.0911(7) 0.4685(3)
H18 H 1.1414 -0.0651 0.5067
C23 C 1.0812(5) -0.2159(7) 0.4585(3)
H19 H 1.1011 -0.2770 0.4900
C24 C 1.0284(4) -0.2546(6) 0.4027(3)
H20 H 1.0132 -0.3423 0.3961
N1 N 0.4528(3) 0.0901(4) 0.3827(2)
N2 N 0.8113(3) 0.4673(4) 0.7548(2)
N3 N 0.4817(3) 0.1818(4) 0.47483(19)
N4 N 0.6855(3) 0.4332(4) 0.6810(2)
U1A U 0.721998(14) -0.450518(18) 0.274452(9)
Zn1A Zn 1.04242(4) -0.44935(6) 0.20733(3)
Zn1C Zn 0.95758(4) 0.44935(6) 0.79267(3)
O4A O 0.6612(3) 0.2041(4) 0.20035(19)
O6A O 0.9039(3) 0.1932(3) 0.25647(18)
O8A O 0.4937(3) 0.1984(3) 0.24772(17)
N2C N 0.3113(3) 0.0327(4) 0.2548(2)
O9 O 0.7496(3) 0.2443(4) 0.39833(19)
O10 O 0.7467(4) 0.8673(5) 0.4097(2)
loop_
_geom_bond_atom_site_label_1
_geom_bond_atom_site_label_2
_geom_bond_site_symmetry_1
_geom_bond_site_symmetry_2
U1 O1 1_555 1_555
Zn1 O7 1_555 1_555
P1 O3 1_555 1_555
P2 O4 1_555 1_555
O2 U1 1_555 1_555
O3 U1 1_555 1_555
O4 U1A 1_555 1_555
O5 U1 1_555 1_555
O6 P1 1_555 1_555
O7 P1 1_555 1_555
O8 P2 1_555 1_555
C1 H1 1_555 1_555
C2 C1 1_555 1_555
H2 C2 1_555 1_555
C3 H3 1_555 1_555
C4 C5 1_555 1_555
C5 H4 1_555 1_555
C6 C4 1_555 1_555
H5 C6 1_555 1_555
C7 H6 1_555 1_555
C8 H7 1_555 1_555
C9 C7 1_555 1_555
H8 C9 1_555 1_555
C10 C11 1_555 1_555
C11 C6 1_555 1_555
H9 C11 1_555 1_555
C12 C5 1_555 1_555
H10 C12 1_555 1_555
C13 H11 1_555 1_555
C14 P1 1_555 1_555
C15 C14 1_555 1_555
H12 C15 1_555 1_555
C16 C15 1_555 1_555
H13 C16 1_555 1_555
C17 C16 1_555 1_555
H14 C17 1_555 1_555
C18 C13 1_555 1_555
H15 C18 1_555 1_555
C19 P2 1_555 1_555
C20 C19 1_555 1_555
H16 C20 1_555 1_555
C21 C20 1_555 1_555
H17 C21 1_555 1_555
C22 C21 1_555 1_555
H18 C22 1_555 1_555
C23 C22 1_555 1_555
H19 C23 1_555 1_555
C24 C19 1_555 1_555
H20 C24 1_555 1_555
N1 Zn1 1_555 1_555
N2 C7 1_555 1_555
N3 C2 1_555 1_555
N4 C8 1_555 1_555
U1A O6 1_555 1_555
Zn1A O8 1_555 1_555
Zn1C N2 1_555 1_555
O4A U1 1_555 1_555
O6A U1 1_555 1_555
O8A Zn1 1_555 1_555
N2C Zn1 1_555 1_555
P2 O5 1_555 1_555
C1 N1 1_555 1_555
C3 N1 1_555 1_555
C3 N3 1_555 1_555
C4 N3 1_555 1_555
C8 N2 1_555 1_555
C9 N4 1_555 1_555
C10 C12 1_555 1_555
C10 N4 1_555 1_555
C13 C14 1_555 1_555
C17 C18 1_555 1_555
C23 C24 1_555 1_555

#END
