
#######################################################################
#
#                 Cambridge Crystallographic Data Centre
#                                CCDC 
#
#######################################################################
#
# If this CIF has been generated from an entry in the Cambridge 
# Structural Database, then it will include bibliographic, chemical, 
# crystal, experimental, refinement or atomic coordinate data resulting 
# from the CCDC's data processing and validation procedures.
#
#######################################################################

data_MIGSEA01
_symmetry_cell_setting           monoclinic
_symmetry_space_group_name_H-M   'P 21/n'
_symmetry_Int_Tables_number      14
_space_group_name_Hall           '-P 2yn'
loop_
_symmetry_equiv_pos_site_id
_symmetry_equiv_pos_as_xyz
1 x,y,z
2 1/2+x,1/2-y,1/2+z
3 -x,-y,-z
4 1/2-x,1/2+y,1/2-z
_cell_length_a                   16.3005(3)
_cell_length_b                   20.1563(4)
_cell_length_c                   17.2929(5)
_cell_angle_alpha                90
_cell_angle_beta                 92.8350(10)
_cell_angle_gamma                90
_cell_volume                     5674.76
loop_
_atom_site_label
_atom_site_type_symbol
_atom_site_fract_x
_atom_site_fract_y
_atom_site_fract_z
Pd1 Pd 0.68851(2) 0.125577(17) 0.79307(2)
P1 P 0.79223(8) 0.19382(6) 0.83521(9)
P2 P 0.64908(8) 0.19338(7) 0.69342(8)
C1 C 0.8326(3) 0.2534(3) 0.7677(4)
H1 H 0.8697 0.2845 0.7969
H2 H 0.8657 0.2294 0.7303
C2 C 0.7664(4) 0.2935(3) 0.7229(4)
H3 H 0.7258 0.3097 0.7592
H4 H 0.7920 0.3327 0.6993
C3 C 0.7229(4) 0.2529(3) 0.6602(4)
H5 H 0.7647 0.2287 0.6316
H6 H 0.6941 0.2835 0.6232
C4 C 0.7658(2) 0.24156(17) 0.9190(2)
C5 C 0.6882(2) 0.23482(19) 0.9481(2)
H7 H 0.6485 0.2071 0.9223
C6 C 0.6689(2) 0.2687(2) 1.0148(3)
H8 H 0.6158 0.2641 1.0346
C7 C 0.7270(3) 0.3093(2) 1.0525(2)
H9 H 0.7138 0.3324 1.0981
C8 C 0.8046(3) 0.3160(2) 1.0234(3)
H10 H 0.8444 0.3437 1.0492
C9 C 0.82400(19) 0.2822(2) 0.9567(3)
H11 H 0.8770 0.2868 0.9369
C10 C 0.88003(19) 0.14411(17) 0.8645(2)
C11 C 0.9000(2) 0.1301(2) 0.9419(2)
H12 H 0.8691 0.1493 0.9813
C12 C 0.9653(3) 0.0880(2) 0.9616(2)
H13 H 0.9790 0.0784 1.0144
C13 C 1.0106(2) 0.05995(19) 0.9039(4)
H14 H 1.0552 0.0312 0.9173
C14 C 0.9906(2) 0.0740(2) 0.8265(3)
H15 H 1.0216 0.0548 0.7871
C15 C 0.9253(3) 0.1161(2) 0.8069(2)
H16 H 0.9116 0.1256 0.7540
C16 C 0.55714(19) 0.24092(16) 0.7120(2)
C17 C 0.5239(2) 0.28484(19) 0.65691(19)
H17 H 0.5496 0.2906 0.6092
C18 C 0.4532(2) 0.32028(18) 0.6716(2)
H18 H 0.4305 0.3503 0.6340
C19 C 0.4158(2) 0.31180(19) 0.7414(3)
H19 H 0.3674 0.3360 0.7515
C20 C 0.4490(2) 0.2679(2) 0.7965(2)
H20 H 0.4233 0.2621 0.8442
C21 C 0.5197(2) 0.23244(17) 0.7818(2)
H21 H 0.5423 0.2024 0.8194
C22 C 0.6244(3) 0.1433(2) 0.6100(2)
C23 C 0.6886(3) 0.1125(3) 0.5740(3)
H22 H 0.7437 0.1202 0.5922
C24 C 0.6721(4) 0.0706(3) 0.5114(3)
H23 H 0.7159 0.0495 0.4867
C25 C 0.5914(5) 0.0594(3) 0.4847(3)
H24 H 0.5801 0.0307 0.4419
C26 C 0.5272(3) 0.0902(3) 0.5208(3)
H25 H 0.4721 0.0826 0.5026
C27 C 0.5437(3) 0.1322(2) 0.5834(3)
H26 H 0.4999 0.1533 0.6080
N1 N 0.7229(2) 0.05742(18) 0.8802(2)
C28 C 0.6914(3) 0.0570(2) 0.9499(3)
H27 H 0.6540 0.0912 0.9619
C29 C 0.7102(3) 0.0099(2) 1.0054(3)
H28 H 0.6866 0.0120 1.0545
C30 C 0.7643(3) -0.0410(2) 0.9889(3)
C31 C 0.7979(3) -0.0408(2) 0.9169(3)
H29 H 0.8357 -0.0743 0.9034
C32 C 0.7758(3) 0.0085(2) 0.8654(3)
H30 H 0.7993 0.0081 0.8162
N2 N 0.7817(2) -0.08795(18) 1.0456(2)
H31 H 0.7637 -0.0792 1.0916
C33 C 0.8236(3) -0.1465(2) 1.0388(3)
O1 O 0.8584(2) -0.16138(16) 0.9810(2)
N3 N 1.0983(2) -0.55558(18) 1.2580(2)
C34 C 1.0223(3) -0.5528(2) 1.2844(3)
H32 H 1.0047 -0.5877 1.3165
C35 C 0.9692(3) -0.5018(2) 1.2668(3)
H33 H 0.9153 -0.5027 1.2854
C36 C 0.9933(3) -0.4487(2) 1.2220(3)
C37 C 1.0720(3) -0.4523(3) 1.1940(3)
H34 H 1.0912 -0.4182 1.1615
C38 C 1.1213(3) -0.5050(3) 1.2137(3)
H35 H 1.1751 -0.5059 1.1949
N4 N 0.9380(2) -0.39616(19) 1.2087(3)
H36 H 0.8885 -0.4012 1.2260
C39 C 0.9532(3) -0.3380(2) 1.1715(3)
O2 O 1.0169(2) -0.32745(17) 1.1388(2)
C40 C 0.8871(3) -0.2871(2) 1.1717(3)
C41 C 0.7740(4) -0.2324(3) 1.2280(3)
H37 H 0.7368 -0.2291 1.2684
C42 C 0.7684(3) -0.1871(2) 1.1654(3)
H38 H 0.7270 -0.1538 1.1634
C43 C 0.8229(3) -0.1915(2) 1.1076(3)
C44 C 0.8832(3) -0.2419(2) 1.1105(3)
H39 H 0.9212 -0.2450 1.0708
C45 C 0.8330(3) -0.2810(3) 1.2307(3)
H40 H 0.8367 -0.3108 1.2733
N3A N 0.5983(2) 0.05558(18) 0.7580(2)
Pd1A Pd 1.18851(2) -0.625577(17) 1.29307(2)
F1 F 0.5084(5) 0.1491(4) 1.1186(4)
F2 F 0.4071(3) 0.0870(3) 1.1048(3)
F3 F 0.5137(5) 0.0616(4) 1.0617(4)
C46 C 0.4694(5) 0.1137(5) 1.0713(5)
S1 S 0.44346(12) 0.15312(10) 0.98074(11)
O3 O 0.3848(6) 0.1982(4) 1.0003(4)
O4 O 0.5181(4) 0.1697(4) 0.9545(4)
O5 O 0.4036(4) 0.1037(3) 0.9322(3)
F4 F 0.1510(4) -0.0178(4) 0.6340(4)
F5 F 0.2643(4) 0.0343(3) 0.6397(3)
F6 F 0.1564(3) 0.0761(3) 0.6892(3)
C47 C 0.1993(6) 0.0201(4) 0.6783(5)
S2 S 0.22383(9) -0.01957(6) 0.76924(9)
O6 O 0.2726(2) 0.03037(18) 0.8089(2)
O7 O 0.2699(2) -0.07654(19) 0.7474(3)
O8 O 0.1468(2) -0.0323(2) 0.8018(3)
C48 C 0.9298(9) -0.0762(7) 0.6914(11)
H41 H 0.9115 -0.0831 0.7439
H42 H 0.9820 -0.0521 0.6938
H43 H 0.9373 -0.1193 0.6665
C49 C 0.8687(6) -0.0383(5) 0.6469(6)
C50 C 0.8716(17) -0.0488(12) 0.5683(10)
H44 H 0.8247 -0.0269 0.5415
H45 H 0.8694 -0.0965 0.5577
H46 H 0.9228 -0.0305 0.5499
O9 O 0.8207(4) -0.0046(4) 0.6759(4)
O11 O 0.8375(16) 0.1663(10) 0.472(2)
H51 H 0.8040 0.1839 0.5013
C52 C 0.9105(19) 0.1504(15) 0.515(2)
H52 H 0.9050 0.1066 0.5389
H53 H 0.9207 0.1837 0.5559
H54 H 0.9566 0.1500 0.4809
O10? O 0.9049(7) 0.1729(8) 0.6093(8)
H47? H 0.8776 0.1376 0.6048
C51? C 0.9883(11) 0.1580(12) 0.6139(16)
H48? H 1.0081 0.1533 0.5616
H49? H 0.9971 0.1163 0.6423
H50? H 1.0184 0.1938 0.6411
loop_
_geom_bond_atom_site_label_1
_geom_bond_atom_site_label_2
_geom_bond_site_symmetry_1
_geom_bond_site_symmetry_2
Pd1 P1 1_555 1_555
P1 C1 1_555 1_555
P2 Pd1 1_555 1_555
C1 H1 1_555 1_555
H2 C1 1_555 1_555
C2 C1 1_555 1_555
H3 C2 1_555 1_555
H4 C2 1_555 1_555
C3 P2 1_555 1_555
H5 C3 1_555 1_555
H6 C3 1_555 1_555
C4 P1 1_555 1_555
C5 C4 1_555 1_555
H7 C5 1_555 1_555
C6 C5 1_555 1_555
H8 C6 1_555 1_555
C7 C6 1_555 1_555
H9 C7 1_555 1_555
C8 C7 1_555 1_555
H10 C8 1_555 1_555
C9 C4 1_555 1_555
H11 C9 1_555 1_555
C10 P1 1_555 1_555
C11 C10 1_555 1_555
H12 C11 1_555 1_555
C12 C11 1_555 1_555
H13 C12 1_555 1_555
C13 C12 1_555 1_555
H14 C13 1_555 1_555
C14 C13 1_555 1_555
H15 C14 1_555 1_555
C15 C10 1_555 1_555
H16 C15 1_555 1_555
C16 P2 1_555 1_555
C17 C16 1_555 1_555
H17 C17 1_555 1_555
C18 C17 1_555 1_555
H18 C18 1_555 1_555
C19 C18 1_555 1_555
H19 C19 1_555 1_555
C20 C19 1_555 1_555
H20 C20 1_555 1_555
C21 C16 1_555 1_555
H21 C21 1_555 1_555
C22 P2 1_555 1_555
C23 C22 1_555 1_555
H22 C23 1_555 1_555
C24 C23 1_555 1_555
H23 C24 1_555 1_555
C25 C24 1_555 1_555
H24 C25 1_555 1_555
C26 C25 1_555 1_555
H25 C26 1_555 1_555
C27 C22 1_555 1_555
H26 C27 1_555 1_555
N1 Pd1 1_555 1_555
C28 N1 1_555 1_555
H27 C28 1_555 1_555
C29 C28 1_555 1_555
H28 C29 1_555 1_555
C30 C29 1_555 1_555
C31 C30 1_555 1_555
H29 C31 1_555 1_555
C32 N1 1_555 1_555
H30 C32 1_555 1_555
N2 C30 1_555 1_555
H31 N2 1_555 1_555
C33 N2 1_555 1_555
O1 C33 1_555 1_555
N3 C34 1_555 1_555
C34 H32 1_555 1_555
C35 C34 1_555 1_555
H33 C35 1_555 1_555
C36 C35 1_555 1_555
C37 C36 1_555 1_555
H34 C37 1_555 1_555
C38 N3 1_555 1_555
H35 C38 1_555 1_555
N4 C36 1_555 1_555
H36 N4 1_555 1_555
C39 N4 1_555 1_555
O2 C39 1_555 1_555
C40 C39 1_555 1_555
C41 H37 1_555 1_555
C42 C41 1_555 1_555
H38 C42 1_555 1_555
C43 C33 1_555 1_555
C44 C40 1_555 1_555
H39 C44 1_555 1_555
C45 C40 1_555 1_555
H40 C45 1_555 1_555
F1 C46 1_555 1_555
F2 C46 1_555 1_555
F3 C46 1_555 1_555
C46 S1 1_555 1_555
S1 O3 1_555 1_555
O4 S1 1_555 1_555
O5 S1 1_555 1_555
F4 C47 1_555 1_555
F5 C47 1_555 1_555
F6 C47 1_555 1_555
C47 S2 1_555 1_555
S2 O6 1_555 1_555
O7 S2 1_555 1_555
O8 S2 1_555 1_555
C48 H41 1_555 1_555
H42 C48 1_555 1_555
H43 C48 1_555 1_555
C49 C48 1_555 1_555
C50 C49 1_555 1_555
H44 C50 1_555 1_555
H45 C50 1_555 1_555
H46 C50 1_555 1_555
O9 C49 1_555 1_555
O11 H51 1_555 1_555
C52 O11 1_555 1_555
H52 C52 1_555 1_555
H53 C52 1_555 1_555
H54 C52 1_555 1_555
N3A Pd1 1_555 1_555
Pd1A N3 1_555 1_555
C2 C3 1_555 1_555
C8 C9 1_555 1_555
C14 C15 1_555 1_555
C20 C21 1_555 1_555
C26 C27 1_555 1_555
C31 C32 1_555 1_555
C37 C38 1_555 1_555
C41 C45 1_555 1_555
C42 C43 1_555 1_555
C43 C44 1_555 1_555

#END
