
#######################################################################
#
#                 Cambridge Crystallographic Data Centre
#                                CCDC 
#
#######################################################################
#
# If this CIF has been generated from an entry in the Cambridge 
# Structural Database, then it will include bibliographic, chemical, 
# crystal, experimental, refinement or atomic coordinate data resulting 
# from the CCDC's data processing and validation procedures.
#
#######################################################################

data_MIGVUT
_symmetry_cell_setting           orthorhombic
_symmetry_space_group_name_H-M   'P 21 21 21'
_symmetry_Int_Tables_number      19
_space_group_name_Hall           'P 2ac 2ab'
loop_
_symmetry_equiv_pos_site_id
_symmetry_equiv_pos_as_xyz
1 x,y,z
2 1/2-x,-y,1/2+z
3 -x,1/2+y,1/2-z
4 1/2+x,1/2-y,-z
_cell_length_a                   13.6250(14)
_cell_length_b                   21.376(2)
_cell_length_c                   22.072(2)
_cell_angle_alpha                90
_cell_angle_beta                 90
_cell_angle_gamma                90
_cell_volume                     6428.43
loop_
_atom_site_label
_atom_site_type_symbol
_atom_site_fract_x
_atom_site_fract_y
_atom_site_fract_z
Ni1 Ni 0.77421(3) 0.84666(2) 0.13415(2)
Ni2 Ni 0.73116(3) 0.65378(2) 0.36878(2)
S1 S 0.71297(5) 0.76505(3) 0.26233(3)
S2 S 0.86615(12) 0.95452(8) -0.04581(6)
S3 S 0.7380(3) 0.53248(13) 0.54981(10)
O1 O 0.7491(2) 0.70507(10) 0.28632(10)
O2 O 0.7630(2) 0.77585(11) 0.20358(10)
O3 O 0.7364(2) 0.81581(11) 0.30436(10)
O4 O 0.6071(2) 0.76051(13) 0.25149(11)
N1 N 0.6530(2) 0.80195(14) 0.09048(12)
N2 N 0.5739(2) 0.79033(15) 0.12607(13)
H1 H 0.5754(2) 0.79167(15) 0.16500(13)
N3 N 0.3740(2) 0.72034(14) -0.09554(13)
N4 N 0.3344(2) 0.77776(14) -0.08417(13)
H2 H 0.2856(2) 0.79309(14) -0.10392(13)
N5 N 0.8876(2) 0.89067(13) 0.18398(13)
N6 N 0.9651(2) 0.85588(14) 0.20273(14)
H3 H 0.9632(2) 0.81598(14) 0.20756(14)
N7 N 1.1681(2) 1.09269(14) 0.17423(12)
N8 N 1.1869(2) 1.07873(14) 0.23318(13)
H4 H 1.2262(2) 1.10011(14) 0.25559(13)
N9 N 0.8502(2) 0.70550(15) 0.40448(13)
N10 N 0.9291(2) 0.7132(2) 0.36863(15)
H5 H 0.9274(2) 0.7099(2) 0.32981(15)
N11 N 1.1581(2) 0.72286(15) 0.58357(14)
H6 H 1.2016(2) 0.70509(15) 0.60596(14)
N12 N 1.1283(2) 0.78203(15) 0.59127(14)
N13 N 0.4569(2) 1.14055(15) 0.19877(14)
H7 H 0.4531(2) 1.18016(15) 0.20514(14)
N14 N 0.3846(2) 1.10646(15) 0.17429(14)
N15 N 0.6728(2) 0.90749(13) 0.17445(12)
N16 N 0.6760(2) 0.91716(13) 0.23525(13)
H8 H 0.7102(2) 0.89499(13) 0.25999(13)
N17 N 0.8010(2) 0.90336(14) 0.06266(13)
N18 N 0.7237(3) 0.59867(15) 0.44265(14)
C1 C 0.6202(3) 0.7952(2) 0.03360(15)
C2 C 0.5200(3) 0.7793(2) 0.03326(15)
C3 C 0.4924(3) 0.7764(2) 0.0937(2)
C4 C 0.3979(3) 0.7606(3) 0.1227(2)
H9 H 0.4046(3) 0.7633(3) 0.1660(2)
H10 H 0.3791(3) 0.7189(3) 0.1117(2)
H11 H 0.3484(3) 0.7895(3) 0.1095(2)
C5 C 0.6854(3) 0.8028(2) -0.0204(2)
H12 H 0.7503(3) 0.8138(2) -0.0073(2)
H13 H 0.6599(3) 0.8353(2) -0.0460(2)
H14 H 0.6877(3) 0.7642(2) -0.0426(2)
C6 C 0.3799(3) 0.8076(2) -0.0388(2)
C7 C 0.4543(2) 0.7686(2) -0.01890(15)
C8 C 0.4480(2) 0.7152(2) -0.0557(2)
C9 C 0.5147(3) 0.6595(2) -0.0548(2)
H15 H 0.4934(3) 0.6298(2) -0.0847(2)
H16 H 0.5128(3) 0.6404(2) -0.0155(2)
H17 H 0.5805(3) 0.6725(2) -0.0637(2)
C10 C 0.3470(4) 0.8704(2) -0.0169(2)
H18 H 0.2928(4) 0.8846(2) -0.0411(2)
H19 H 0.4002(4) 0.8997(2) -0.0202(2)
H20 H 0.3268(4) 0.8673(2) 0.0247(2)
C11 C 1.0451(3) 0.8909(2) 0.2128(2)
C12 C 1.0197(3) 0.9518(2) 0.20128(15)
C13 C 0.9200(3) 0.9497(2) 0.1838(2)
C14 C 0.8545(3) 1.0040(2) 0.1691(2)
H21 H 0.7903(3) 0.9889(2) 0.1587(2)
H22 H 0.8814(3) 1.0269(2) 0.1356(2)
H23 H 0.8498(3) 1.0310(2) 0.2038(2)
C15 C 1.1400(3) 0.8617(2) 0.2312(3)
H24 H 1.1313(3) 0.8173(2) 0.2354(3)
H25 H 1.1610(3) 0.8790(2) 0.2691(3)
H26 H 1.1887(3) 0.8698(2) 0.2007(3)
C16 C 1.1382(3) 1.0284(2) 0.2527(2)
C17 C 1.0831(3) 1.0072(2) 0.2034(2)
C18 C 1.1048(3) 1.0491(2) 0.1559(2)
C19 C 1.0651(4) 1.0477(2) 0.0928(2)
H27 H 1.0923(4) 1.0818(2) 0.0700(2)
H28 H 0.9949(4) 1.0516(2) 0.0939(2)
H29 H 1.0825(4) 1.0088(2) 0.0738(2)
C20 C 1.1484(4) 1.0046(2) 0.3151(2)
H30 H 1.1928(4) 1.0309(2) 0.3373(2)
H31 H 1.1735(4) 0.9627(2) 0.3141(2)
H32 H 1.0854(4) 1.0048(2) 0.3346(2)
C21 C 0.8822(3) 0.7150(2) 0.4608(2)
C22 C 0.9845(3) 0.7281(2) 0.4602(2)
C23 C 1.0105(3) 0.7266(2) 0.3999(2)
C24 C 1.1068(4) 0.7375(4) 0.3703(2)
H33 H 1.1000(4) 0.7329(4) 0.3273(2)
H34 H 1.1537(4) 0.7077(4) 0.3852(2)
H35 H 1.1291(4) 0.7791(4) 0.3794(2)
C25 C 0.8181(3) 0.7130(3) 0.5149(2)
H36 H 0.7522(3) 0.7031(3) 0.5028(2)
H37 H 0.8188(3) 0.7531(3) 0.5346(2)
H38 H 0.8416(3) 0.6816(3) 0.5425(2)
C26 C 1.1127(3) 0.6941(2) 0.5370(2)
C27 C 1.0491(3) 0.7376(2) 0.5129(2)
C28 C 1.0599(3) 0.7919(2) 0.5484(2)
C29 C 1.0040(4) 0.8509(3) 0.5422(2)
H39 H 1.0260(4) 0.8803(3) 0.5721(2)
H40 H 0.9353(4) 0.8427(3) 0.5480(2)
H41 H 1.0142(4) 0.8680(3) 0.5025(2)
C30 C 1.1329(5) 0.6280(2) 0.5206(3)
H42 H 1.1823(5) 0.6113(2) 0.5471(3)
H43 H 1.1558(5) 0.6260(2) 0.4795(3)
H44 H 1.0738(5) 0.6039(2) 0.5245(3)
C31 C 0.5367(3) 1.1056(2) 0.2123(2)
C32 C 0.5139(3) 1.0445(2) 0.1956(2)
C33 C 0.4173(3) 1.0476(2) 0.1727(2)
C34 C 0.3575(3) 0.9944(2) 0.1494(2)
H45 H 0.2944(3) 1.0096(2) 0.1366(2)
H46 H 0.3490(3) 0.9639(2) 0.1809(2)
H47 H 0.3904(3) 0.9755(2) 0.1156(2)
C35 C 0.6274(4) 1.1333(3) 0.2386(3)
H48 H 0.6180(4) 1.1773(3) 0.2447(3)
H49 H 0.6813(4) 1.1267(3) 0.2114(3)
H50 H 0.6414(4) 1.1136(3) 0.2768(3)
C36 C 0.6192(3) 0.9656(2) 0.2521(2)
C37 C 0.5780(3) 0.9898(2) 0.2004(2)
C38 C 0.6122(3) 0.9516(2) 0.15285(15)
C39 C 0.5891(3) 0.9579(2) 0.0870(2)
H51 H 0.6223(3) 0.9256(2) 0.0648(2)
H52 H 0.6106(3) 0.9981(2) 0.0728(2)
H53 H 0.5196(3) 0.9540(2) 0.0811(2)
C40 C 0.6076(4) 0.9825(3) 0.3177(2)
H54 H 0.6479(4) 0.9555(3) 0.3420(2)
H55 H 0.5401(4) 0.9777(3) 0.3294(2)
H56 H 0.6273(4) 1.0252(3) 0.3238(2)
C41 C 0.7269(5) 0.5718(2) 0.4864(2)
C42 C 0.8284(3) 0.9248(2) 0.0179(2)
N3C N 0.8740(2) 0.77966(14) 0.09554(13)
N7B N 0.8319(2) 0.59269(14) 0.32577(12)
N12C N 0.6283(2) 0.71797(15) 0.40873(14)
N14B N 0.6154(2) 0.60646(15) 0.32571(14)
Ni1C Ni 0.27421(3) 0.65334(2) -0.13415(2)
Ni2B Ni 1.26884(3) 1.15378(2) 0.13122(2)
Ni2C Ni 1.23116(3) 0.84622(2) 0.63122(2)
Ni2B_2 Ni 0.26884(3) 1.15378(2) 0.13122(2)
C43 C 0.6351(5) 1.0082(4) -0.1068(3)
H57 H 0.6937 0.9988 -0.0830
Cl1 Cl 0.6440(4) 1.0836(2) -0.1363(2)
Cl2 Cl 0.6360(10) 0.9513(5) -0.1647(6)
Cl3 Cl 0.5305(6) 1.0031(3) -0.0606(2)
C44 C 0.4245(15) 0.8421(8) 0.3261(8)
H58 H 0.5005 0.8276 0.3287
Cl7 Cl 0.4088(6) 0.8942(2) 0.3709(3)
Cl8 Cl 0.3760(5) 0.7731(2) 0.3260(2)
Cl9 Cl 0.4274(4) 0.8725(3) 0.2450(2)
O5 O 0.9530(2) 0.72300(13) 0.23287(13)
C45 C 1.0043(4) 0.6763(3) 0.2003(3)
H59 H 1.0635(4) 0.6662(3) 0.2216(3)
H60 H 1.0202(4) 0.6915(3) 0.1606(3)
H61 H 0.9643(4) 0.6396(3) 0.1968(3)
O6 O 0.6937(3) 0.6448(2) 0.1602(2)
C46 C 0.6138(6) 0.6105(4) 0.1347(5)
H62 H 0.6381(6) 0.5724(4) 0.1172(5)
H63 H 0.5822(6) 0.6350(4) 0.1040(5)
H64 H 0.5675(6) 0.6007(4) 0.1661(5)
Cl4? Cl 0.6160(17) 1.0863(10) -0.1217(15)
Cl5? Cl 0.6305(7) 0.9645(7) -0.1718(4)
Cl6? Cl 0.5421(12) 0.9730(19) -0.0649(7)
loop_
_geom_bond_atom_site_label_1
_geom_bond_atom_site_label_2
_geom_bond_site_symmetry_1
_geom_bond_site_symmetry_2
Ni1 O2 1_555 1_555
Ni2 O1 1_555 1_555
S1 O1 1_555 1_555
S2 C42 1_555 1_555
S3 C41 1_555 1_555
O2 S1 1_555 1_555
O3 S1 1_555 1_555
O4 S1 1_555 1_555
N1 Ni1 1_555 1_555
N2 N1 1_555 1_555
H1 N2 1_555 1_555
N3 N4 1_555 1_555
N4 H2 1_555 1_555
N5 Ni1 1_555 1_555
N6 N5 1_555 1_555
H3 N6 1_555 1_555
N7 N8 1_555 1_555
N8 H4 1_555 1_555
N9 Ni2 1_555 1_555
N10 N9 1_555 1_555
H5 N10 1_555 1_555
N11 H6 1_555 1_555
N12 N11 1_555 1_555
N13 H7 1_555 1_555
N14 N13 1_555 1_555
N15 Ni1 1_555 1_555
N16 N15 1_555 1_555
H8 N16 1_555 1_555
N17 Ni1 1_555 1_555
N18 Ni2 1_555 1_555
C1 N1 1_555 1_555
C2 C1 1_555 1_555
C3 N2 1_555 1_555
C4 C3 1_555 1_555
H9 C4 1_555 1_555
H10 C4 1_555 1_555
H11 C4 1_555 1_555
C5 C1 1_555 1_555
H12 C5 1_555 1_555
H13 C5 1_555 1_555
H14 C5 1_555 1_555
C6 N4 1_555 1_555
C7 C2 1_555 1_555
C8 N3 1_555 1_555
C9 C8 1_555 1_555
H15 C9 1_555 1_555
H16 C9 1_555 1_555
H17 C9 1_555 1_555
C10 C6 1_555 1_555
H18 C10 1_555 1_555
H19 C10 1_555 1_555
H20 C10 1_555 1_555
C11 N6 1_555 1_555
C12 C11 1_555 1_555
C13 N5 1_555 1_555
C14 C13 1_555 1_555
H21 C14 1_555 1_555
H22 C14 1_555 1_555
H23 C14 1_555 1_555
C15 C11 1_555 1_555
H24 C15 1_555 1_555
H25 C15 1_555 1_555
H26 C15 1_555 1_555
C16 N8 1_555 1_555
C17 C12 1_555 1_555
C18 N7 1_555 1_555
C19 C18 1_555 1_555
H27 C19 1_555 1_555
H28 C19 1_555 1_555
H29 C19 1_555 1_555
C20 C16 1_555 1_555
H30 C20 1_555 1_555
H31 C20 1_555 1_555
H32 C20 1_555 1_555
C21 N9 1_555 1_555
C22 C21 1_555 1_555
C23 N10 1_555 1_555
C24 C23 1_555 1_555
H33 C24 1_555 1_555
H34 C24 1_555 1_555
H35 C24 1_555 1_555
C25 C21 1_555 1_555
H36 C25 1_555 1_555
H37 C25 1_555 1_555
H38 C25 1_555 1_555
C26 N11 1_555 1_555
C27 C22 1_555 1_555
C28 N12 1_555 1_555
C29 C28 1_555 1_555
H39 C29 1_555 1_555
H40 C29 1_555 1_555
H41 C29 1_555 1_555
C30 C26 1_555 1_555
H42 C30 1_555 1_555
H43 C30 1_555 1_555
H44 C30 1_555 1_555
C31 N13 1_555 1_555
C32 C31 1_555 1_555
C33 N14 1_555 1_555
C34 C33 1_555 1_555
H45 C34 1_555 1_555
H46 C34 1_555 1_555
H47 C34 1_555 1_555
C35 C31 1_555 1_555
H48 C35 1_555 1_555
H49 C35 1_555 1_555
H50 C35 1_555 1_555
C36 N16 1_555 1_555
C37 C32 1_555 1_555
C38 N15 1_555 1_555
C39 C38 1_555 1_555
H51 C39 1_555 1_555
H52 C39 1_555 1_555
H53 C39 1_555 1_555
C40 C36 1_555 1_555
H54 C40 1_555 1_555
H55 C40 1_555 1_555
H56 C40 1_555 1_555
C41 N18 1_555 1_555
C42 N17 1_555 1_555
C43 H57 1_555 1_555
C44 H58 1_555 1_555
Cl1 C43 1_555 1_555
Cl2 C43 1_555 1_555
Cl3 C43 1_555 1_555
Cl7 C44 1_555 1_555
Cl8 C44 1_555 1_555
Cl9 C44 1_555 1_555
O5 C45 1_555 1_555
C45 H59 1_555 1_555
H60 C45 1_555 1_555
H61 C45 1_555 1_555
O6 C46 1_555 1_555
C46 H62 1_555 1_555
H63 C46 1_555 1_555
H64 C46 1_555 1_555
N3C Ni1 1_555 1_555
N7B Ni2 1_555 1_555
N12C Ni2 1_555 1_555
N14B Ni2 1_555 1_555
Ni1C N3 1_555 1_555
Ni2B N7 1_555 1_555
Ni2C N12 1_555 1_555
Ni2B_2 N14 1_555 1_555
C2 C3 1_555 1_555
C6 C7 1_555 1_555
C7 C8 1_555 1_555
C12 C13 1_555 1_555
C16 C17 1_555 1_555
C17 C18 1_555 1_555
C22 C23 1_555 1_555
C26 C27 1_555 1_555
C27 C28 1_555 1_555
C32 C33 1_555 1_555
C36 C37 1_555 1_555
C37 C38 1_555 1_555

#END
