
#######################################################################
#
#                 Cambridge Crystallographic Data Centre
#                                CCDC 
#
#######################################################################
#
# If this CIF has been generated from an entry in the Cambridge 
# Structural Database, then it will include bibliographic, chemical, 
# crystal, experimental, refinement or atomic coordinate data resulting 
# from the CCDC's data processing and validation procedures.
#
#######################################################################

data_MIGWUW
_symmetry_cell_setting           monoclinic
_symmetry_space_group_name_H-M   'P 21/n'
_symmetry_Int_Tables_number      14
_space_group_name_Hall           '-P 2yn'
loop_
_symmetry_equiv_pos_site_id
_symmetry_equiv_pos_as_xyz
1 x,y,z
2 1/2-x,1/2+y,1/2-z
3 -x,-y,-z
4 1/2+x,1/2-y,1/2+z
_cell_length_a                   8.8744(5)
_cell_length_b                   29.2893(17)
_cell_length_c                   9.3719(6)
_cell_angle_alpha                90
_cell_angle_beta                 117.643(1)
_cell_angle_gamma                90
_cell_volume                     2157.94
loop_
_atom_site_label
_atom_site_type_symbol
_atom_site_fract_x
_atom_site_fract_y
_atom_site_fract_z
Pr1 Pr 0.739114(15) 1.003395(4) 0.985053(15)
N1 N 0.6522(3) 1.10667(7) 0.5232(2)
N2 N 0.7410(3) 1.09974(7) 0.4408(3)
N3 N 0.8720(3) 0.84189(7) 0.8539(3)
N4 N 0.7446(3) 0.82395(8) 0.7211(3)
N5 N 0.4914(2) 0.83112(7) 1.0179(2)
N6 N 0.5357(3) 0.81134(7) 1.1613(3)
O1 O 0.4953(2) 1.01910(6) 0.6908(2)
O2 O 0.7578(2) 1.03709(6) 0.7476(2)
O3 O 0.9814(2) 0.96099(5) 0.9185(2)
O4 O 0.73380(19) 0.92789(5) 0.84574(19)
O5 O 0.52196(19) 0.95461(6) 1.00615(19)
O6 O 0.3442(2) 0.91078(5) 1.0466(2)
O7 O 0.9204(2) 0.94744(6) 1.2002(2)
O8 O 0.8223(2) 1.03487(6) 1.2655(2)
C1 C 0.6002(3) 1.04108(8) 0.6608(3)
C2 C 0.5304(3) 1.07311(9) 0.5185(3)
H1 H 0.4920 1.0553 0.4205
H2 H 0.4323 1.0888 0.5145
C3 C 0.6989(4) 1.14487(9) 0.6107(3)
H3 H 0.6544 1.1561 0.6763
C4 C 0.8269(4) 1.16478(9) 0.5851(3)
H4 H 0.8852 1.1918 0.6282
C5 C 0.8475(3) 1.13509(9) 0.4808(3)
H5 H 0.9266 1.1393 0.4429
C6 C 0.8844(3) 0.92645(8) 0.8714(3)
C7 C 0.9614(3) 0.88258(8) 0.8490(3)
H6 H 0.9628 0.8838 0.7462
H7 H 1.0784 0.8806 0.9327
C8 C 0.8935(4) 0.81915(10) 0.9878(3)
H8 H 0.9729 0.8259 1.0931
C9 C 0.7780(4) 0.78464(10) 0.9403(4)
H9 H 0.7619 0.7630 1.0046
C10 C 0.6890(4) 0.78911(9) 0.7733(4)
H10 H 0.6011 0.7699 0.7065
C11 C 0.4693(3) 0.91539(8) 1.0222(3)
C12 C 0.5648(3) 0.87434(8) 1.0075(3)
H11 H 0.5670 0.8759 0.9051
H12 H 0.6815 0.8757 1.0922
C13 C 0.3786(4) 0.80552(9) 0.8955(3)
H13 H 0.3310 0.8125 0.7864
C14 C 0.3468(4) 0.76711(10) 0.9618(4)
H14 H 0.2745 0.7429 0.9084
C15 C 0.4474(4) 0.77265(9) 1.1269(4)
H15 H 0.4523 0.7518 1.2038
H16 H 0.917(6) 1.0370(15) 1.326(5)
H17 H 0.904(6) 0.9465(15) 1.273(5)
H18 H 1.043(3) 0.9481(13) 1.228(5)
H19 H 0.776(6) 1.0523(14) 1.306(5)
Pr1B Pr 0.260886(15) 0.996605(4) 1.014947(15)
Pr1B_2 Pr 1.260886(15) 0.996605(4) 1.014947(15)
O3B O 1.0186(2) 1.03901(5) 1.0815(2)
O5B O 0.47804(19) 1.04539(6) 0.99385(19)
O6B O 0.6558(2) 1.08922(5) 0.9534(2)
O9 O 0.8477(2) 0.94615(6) 0.4592(2)
O10 O 0.7549(2) 0.85659(6) 0.4465(2)
loop_
_geom_bond_atom_site_label_1
_geom_bond_atom_site_label_2
_geom_bond_site_symmetry_1
_geom_bond_site_symmetry_2
Pr1 O1 1_555 1_555
N1 N2 1_555 1_555
N2 C5 1_555 1_555
N3 N4 1_555 1_555
N4 C10 1_555 1_555
N5 N6 1_555 1_555
N6 C15 1_555 1_555
O1 C1 1_555 1_555
O2 Pr1 1_555 1_555
O3 Pr1 1_555 1_555
O4 Pr1 1_555 1_555
O5 Pr1 1_555 1_555
O6 C11 1_555 1_555
O7 Pr1 1_555 1_555
O8 Pr1 1_555 1_555
C1 O2 1_555 1_555
C2 N1 1_555 1_555
H1 C2 1_555 1_555
H2 C2 1_555 1_555
C3 N1 1_555 1_555
H3 C3 1_555 1_555
C4 C3 1_555 1_555
H4 C4 1_555 1_555
C5 C4 1_555 1_555
H5 C5 1_555 1_555
C6 O3 1_555 1_555
C7 N3 1_555 1_555
H6 C7 1_555 1_555
H7 C7 1_555 1_555
C8 N3 1_555 1_555
H8 C8 1_555 1_555
C9 C8 1_555 1_555
H9 C9 1_555 1_555
C10 C9 1_555 1_555
H10 C10 1_555 1_555
C11 O5 1_555 1_555
C12 N5 1_555 1_555
H11 C12 1_555 1_555
H12 C12 1_555 1_555
C13 N5 1_555 1_555
H13 C13 1_555 1_555
C14 C13 1_555 1_555
H14 C14 1_555 1_555
C15 C14 1_555 1_555
H15 C15 1_555 1_555
H16 O8 1_555 1_555
H17 O7 1_555 1_555
H18 O7 1_555 1_555
H19 O8 1_555 1_555
Pr1B O5 1_555 1_555
Pr1B_2 O3 1_555 1_555
O3B Pr1 1_555 1_555
O5B Pr1 1_555 1_555
O6B Pr1 1_555 1_555
O4 C6 1_555 1_555
O6 Pr1B 1_555 1_555
C1 C2 1_555 1_555
C6 C7 1_555 1_555
C11 C12 1_555 1_555
Pr1B O5B 1_555 1_555
Pr1B_2 O3B 1_555 1_555

#END
