
#######################################################################
#
#                 Cambridge Crystallographic Data Centre
#                                CCDC 
#
#######################################################################
#
# If this CIF has been generated from an entry in the Cambridge 
# Structural Database, then it will include bibliographic, chemical, 
# crystal, experimental, refinement or atomic coordinate data resulting 
# from the CCDC's data processing and validation procedures.
#
#######################################################################

data_MIGWOQ
_symmetry_cell_setting           monoclinic
_symmetry_space_group_name_H-M   'P 21/n'
_symmetry_Int_Tables_number      14
_space_group_name_Hall           '-P 2yn'
loop_
_symmetry_equiv_pos_site_id
_symmetry_equiv_pos_as_xyz
1 x,y,z
2 1/2-x,1/2+y,1/2-z
3 -x,-y,-z
4 1/2+x,1/2-y,1/2+z
_cell_length_a                   8.8937(5)
_cell_length_b                   29.3072(18)
_cell_length_c                   9.3379(6)
_cell_angle_alpha                90
_cell_angle_beta                 117.433(1)
_cell_angle_gamma                90
_cell_volume                     2160.22
loop_
_atom_site_label
_atom_site_type_symbol
_atom_site_fract_x
_atom_site_fract_y
_atom_site_fract_z
Ce1 Ce 0.26002(2) 0.003316(6) 0.01508(2)
N1 N 0.4913(4) 0.16921(10) 0.0178(3)
N2 N 0.5359(4) 0.18931(11) 0.1609(4)
N3 N 0.3430(4) 0.10789(10) 0.4763(3)
N4 N 0.2530(4) 0.10120(11) 0.5579(4)
N5 N 0.1280(4) -0.15852(11) 0.1473(4)
N6 N 0.2552(4) -0.17641(12) 0.2781(5)
O1 O 0.5221(3) 0.04562(8) 0.0065(3)
O2 O 0.3437(3) 0.08949(8) 0.0463(3)
O3 O 0.2404(3) 0.03769(9) 0.2539(3)
O4 O 0.5030(3) 0.01961(8) 0.3127(3)
O5 O 0.0194(3) -0.03952(8) 0.0803(3)
O6 O 0.2662(3) -0.07303(8) 0.1551(3)
O7 O 0.0806(3) -0.05311(8) -0.2029(3)
O8 O 0.1743(3) 0.03523(9) -0.2686(3)
C1 C 0.4694(4) 0.08481(11) 0.0229(4)
C2 C 0.5663(5) 0.12593(11) 0.0089(5)
H1 H 0.6818 0.1247 0.0949
H2 H 0.5705 0.1243 -0.0929
C3 C 0.4477(5) 0.22777(13) 0.1253(5)
H3 H 0.4521 0.2488 0.2017
C4 C 0.3481(5) 0.23283(14) -0.0395(6)
H4 H 0.2762 0.2569 -0.0937
C5 C 0.3796(5) 0.19431(13) -0.1045(5)
H5 H 0.3321 0.1870 -0.2136
C6 C 0.3972(4) 0.04165(11) 0.3408(4)
C7 C 0.4657(4) 0.07391(12) 0.4839(4)
H6 H 0.5016 0.0563 0.5821
H7 H 0.5645 0.0894 0.4892
C8 C 0.2991(5) 0.14567(13) 0.3883(5)
H8 H 0.3446 0.1566 0.3231
C9 C 0.1708(5) 0.16578(14) 0.4132(5)
H9 H 0.1135 0.1929 0.3694
C10 C 0.1481(5) 0.13658(14) 0.5170(5)
H10 H 0.0685 0.1411 0.5541
C11 C 0.1157(4) -0.07404(11) 0.1282(4)
C12 C 0.0370(4) -0.11800(12) 0.1473(5)
H11 H 0.0298 -0.1167 0.2477
H12 H -0.0776 -0.1202 0.0601
C13 C 0.1081(6) -0.18149(15) 0.0114(5)
H13 H 0.0292 -0.1748 -0.0941
C14 C 0.2239(6) -0.21564(15) 0.0584(6)
H14 H 0.2413 -0.2371 -0.0059
C15 C 0.3121(5) -0.21102(14) 0.2282(6)
H15 H 0.3994 -0.2301 0.2960
H16 H 0.213(7) 0.0549(19) -0.314(7)
H17 H 0.071(7) 0.0384(19) -0.337(7)
H18 H 0.097(7) -0.0559(18) -0.307(4)
H19 H -0.046(3) -0.0540(17) -0.232(6)
Ce1B Ce -0.26002(2) -0.003316(6) -0.01508(2)
Ce1B_2 Ce 0.73998(2) -0.003316(6) -0.01508(2)
O1B O 0.4779(3) -0.04562(8) -0.0065(3)
O5B O -0.0194(3) 0.03952(8) -0.0803(3)
O9 O 0.7521(4) 0.14349(10) 0.4476(4)
O10 O 0.8440(3) 0.05440(8) 0.4610(3)
loop_
_geom_bond_atom_site_label_1
_geom_bond_atom_site_label_2
_geom_bond_site_symmetry_1
_geom_bond_site_symmetry_2
Ce1 O1 1_555 1_555
N1 N2 1_555 1_555
N2 C3 1_555 1_555
N3 N4 1_555 1_555
N4 C10 1_555 1_555
N5 N6 1_555 1_555
N6 C15 1_555 1_555
O1 C1 1_555 1_555
O2 Ce1 1_555 1_555
O3 Ce1 1_555 1_555
O4 Ce1 1_555 1_555
O5 Ce1 1_555 1_555
O6 Ce1 1_555 1_555
O7 Ce1 1_555 1_555
O8 Ce1 1_555 1_555
C1 O2 1_555 1_555
C2 N1 1_555 1_555
H1 C2 1_555 1_555
H2 C2 1_555 1_555
C3 H3 1_555 1_555
C4 C3 1_555 1_555
H4 C4 1_555 1_555
C5 N1 1_555 1_555
H5 C5 1_555 1_555
C6 O3 1_555 1_555
C7 N3 1_555 1_555
H6 C7 1_555 1_555
H7 C7 1_555 1_555
C8 N3 1_555 1_555
H8 C8 1_555 1_555
C9 C8 1_555 1_555
H9 C9 1_555 1_555
C10 C9 1_555 1_555
H10 C10 1_555 1_555
C11 O5 1_555 1_555
C12 N5 1_555 1_555
H11 C12 1_555 1_555
H12 C12 1_555 1_555
C13 N5 1_555 1_555
H13 C13 1_555 1_555
C14 C13 1_555 1_555
H14 C14 1_555 1_555
C15 C14 1_555 1_555
H15 C15 1_555 1_555
H16 O8 1_555 1_555
H17 O8 1_555 1_555
H18 O7 1_555 1_555
H19 O7 1_555 1_555
Ce1B O5 1_555 1_555
Ce1B_2 O1 1_555 1_555
O1B Ce1 1_555 1_555
O5B Ce1 1_555 1_555
O4 C6 1_555 1_555
O6 C11 1_555 1_555
C1 C2 1_555 1_555
C4 C5 1_555 1_555
C6 C7 1_555 1_555
C11 C12 1_555 1_555
Ce1B O5B 1_555 1_555
Ce1B_2 O1B 1_555 1_555

#END
