
#######################################################################
#
#                 Cambridge Crystallographic Data Centre
#                                CCDC 
#
#######################################################################
#
# If this CIF has been generated from an entry in the Cambridge 
# Structural Database, then it will include bibliographic, chemical, 
# crystal, experimental, refinement or atomic coordinate data resulting 
# from the CCDC's data processing and validation procedures.
#
#######################################################################

data_MIGXAD
_symmetry_cell_setting           monoclinic
_symmetry_space_group_name_H-M   'P 21/n'
_symmetry_Int_Tables_number      14
_space_group_name_Hall           '-P 2yn'
loop_
_symmetry_equiv_pos_site_id
_symmetry_equiv_pos_as_xyz
1 x,y,z
2 1/2-x,1/2+y,1/2-z
3 -x,-y,-z
4 1/2+x,1/2-y,1/2+z
_cell_length_a                   9.2686(7)
_cell_length_b                   15.4688(12)
_cell_length_c                   14.4631(12)
_cell_angle_alpha                90
_cell_angle_beta                 99.9630(10)
_cell_angle_gamma                90
_cell_volume                     2042.36
loop_
_atom_site_label
_atom_site_type_symbol
_atom_site_fract_x
_atom_site_fract_y
_atom_site_fract_z
Nd1 Nd 0.260662(17) 0.007506(9) 0.479026(11)
N1 N 0.4858(3) 0.29944(16) 0.52073(18)
N2 N 0.4390(3) 0.37558(17) 0.4802(2)
N3 N 0.3853(3) 0.11157(16) 0.82358(18)
N4 N 0.3000(3) 0.18311(18) 0.8210(2)
N5 N -0.0304(3) 0.28615(17) 0.62820(19)
N6 N -0.0811(3) 0.27611(18) 0.71021(19)
O1 O 0.5208(2) 0.07960(13) 0.46233(15)
O2 O 0.3219(2) 0.15993(13) 0.44285(15)
O3 O 0.2220(2) -0.03897(13) 0.64439(15)
O4 O 0.3696(2) 0.07236(13) 0.63761(14)
O5 O 0.0650(2) 0.09014(14) 0.51790(15)
O6 O -0.1465(2) 0.13512(13) 0.55188(15)
O7 O 0.0716(2) 0.03047(14) 0.33591(15)
O8 O 0.3387(2) -0.04809(15) 0.33585(15)
C1 C 0.4575(3) 0.15298(18) 0.4572(2)
C2 C 0.5532(3) 0.23376(19) 0.4712(2)
H1 H 0.6486 0.2191 0.5067
H2 H 0.5670 0.2560 0.4106
C3 C 0.3826(4) 0.4171(2) 0.5467(2)
H3 H 0.3418 0.4721 0.5393
C4 C 0.3921(4) 0.3687(2) 0.6279(2)
H4 H 0.3603 0.3840 0.6832
C5 C 0.4588(4) 0.2934(2) 0.6090(2)
H5 H 0.4812 0.2467 0.6496
C6 C 0.3026(3) 0.02122(19) 0.6833(2)
C7 C 0.3187(4) 0.0311(2) 0.7890(2)
H6 H 0.2225 0.0271 0.8066
H7 H 0.3775 -0.0162 0.8190
C8 C 0.5296(4) 0.1291(2) 0.8466(2)
H8 H 0.6066 0.0899 0.8517
C9 C 0.5391(4) 0.2168(3) 0.8611(3)
H9 H 0.6240 0.2493 0.8781
C10 C 0.3971(5) 0.2468(2) 0.8453(2)
H10 H 0.3716 0.3045 0.8508
C11 C -0.0123(3) 0.14354(19) 0.5526(2)
C12 C 0.0666(3) 0.22224(19) 0.6004(2)
H11 H 0.1341 0.2033 0.6555
H12 H 0.1237 0.2488 0.5578
C13 C -0.0937(4) 0.3536(2) 0.5787(2)
H13 H -0.0760 0.3721 0.5205
C14 C -0.1898(4) 0.3905(2) 0.6300(2)
H14 H -0.2495 0.4385 0.6142
C15 C -0.1778(4) 0.3404(2) 0.7106(2)
H15 H -0.2304 0.3502 0.7588
Nd1B Nd -0.260662(17) -0.007506(9) 0.520974(11)
Nd1B_2 Nd 0.739338(17) -0.007506(9) 0.520974(11)
O1B O 0.4792(2) -0.07960(13) 0.53767(15)
O6B O 0.1465(2) -0.13512(13) 0.44812(15)
O9 O 0.5988(2) 0.60623(14) 0.71627(16)
loop_
_geom_bond_atom_site_label_1
_geom_bond_atom_site_label_2
_geom_bond_site_symmetry_1
_geom_bond_site_symmetry_2
Nd1 O1 1_555 1_555
N1 N2 1_555 1_555
N2 C3 1_555 1_555
N3 N4 1_555 1_555
N4 C10 1_555 1_555
N5 N6 1_555 1_555
N6 C15 1_555 1_555
O1 C1 1_555 1_555
O2 Nd1 1_555 1_555
O3 Nd1 1_555 1_555
O4 Nd1 1_555 1_555
O5 Nd1 1_555 1_555
O6 C11 1_555 1_555
O7 Nd1 1_555 1_555
O8 Nd1 1_555 1_555
C1 O2 1_555 1_555
C2 N1 1_555 1_555
H1 C2 1_555 1_555
H2 C2 1_555 1_555
C3 H3 1_555 1_555
C4 C3 1_555 1_555
H4 C4 1_555 1_555
C5 N1 1_555 1_555
H5 C5 1_555 1_555
C6 O3 1_555 1_555
C7 N3 1_555 1_555
H6 C7 1_555 1_555
H7 C7 1_555 1_555
C8 N3 1_555 1_555
H8 C8 1_555 1_555
C9 C8 1_555 1_555
H9 C9 1_555 1_555
C10 C9 1_555 1_555
H10 C10 1_555 1_555
C11 O5 1_555 1_555
C12 N5 1_555 1_555
H11 C12 1_555 1_555
H12 C12 1_555 1_555
C13 N5 1_555 1_555
H13 C13 1_555 1_555
C14 C13 1_555 1_555
H14 C14 1_555 1_555
C15 C14 1_555 1_555
H15 C15 1_555 1_555
Nd1B O6 1_555 1_555
Nd1B_2 O1 1_555 1_555
O1B Nd1 1_555 1_555
O6B Nd1 1_555 1_555
O4 C6 1_555 1_555
C1 C2 1_555 1_555
C4 C5 1_555 1_555
C6 C7 1_555 1_555
C11 C12 1_555 1_555
Nd1B_2 O1B 1_555 1_555

#END
