
#######################################################################
#
#                 Cambridge Crystallographic Data Centre
#                                CCDC 
#
#######################################################################
#
# If this CIF has been generated from an entry in the Cambridge 
# Structural Database, then it will include bibliographic, chemical, 
# crystal, experimental, refinement or atomic coordinate data resulting 
# from the CCDC's data processing and validation procedures.
#
#######################################################################

data_MIHBOW
_symmetry_cell_setting           monoclinic
_symmetry_space_group_name_H-M   'P 21/c'
_symmetry_Int_Tables_number      14
_space_group_name_Hall           '-P 2ybc'
loop_
_symmetry_equiv_pos_site_id
_symmetry_equiv_pos_as_xyz
1 x,y,z
2 -x,1/2+y,1/2-z
3 -x,-y,-z
4 x,1/2-y,1/2+z
_cell_length_a                   8.4488(2)
_cell_length_b                   24.5977(5)
_cell_length_c                   8.6842(2)
_cell_angle_alpha                90
_cell_angle_beta                 90.522(2)
_cell_angle_gamma                90
_cell_volume                     1804.68
loop_
_atom_site_label
_atom_site_type_symbol
_atom_site_fract_x
_atom_site_fract_y
_atom_site_fract_z
P1 P -0.01317(4) 0.306057(11) 0.92141(3)
Na1 Na -0.00053(5) 0.292177(16) 1.24871(4)
N1 N -0.11227(9) 0.37044(3) 1.38500(9)
N2 N 0.23290(10) 0.33917(4) 1.36094(10)
C1 C -0.14596(12) 0.36305(4) 0.88606(10)
C2 C -0.31061(13) 0.35251(4) 0.88079(11)
C3 C -0.41826(14) 0.39429(5) 0.85279(13)
C4 C -0.37016(13) 0.44740(5) 0.82740(13)
C5 C -0.20926(13) 0.45776(4) 0.83524(12)
C6 C -0.09726(12) 0.41750(4) 0.86504(11)
C7 C -0.37220(18) 0.29591(5) 0.90237(18)
C8 C -0.48780(18) 0.49183(6) 0.7894(2)
C9 C 0.07421(14) 0.43374(5) 0.87537(14)
C10 C 0.01719(13) 0.39342(5) 1.47760(13)
C11 C 0.17318(13) 0.39373(5) 1.39336(15)
C12 C -0.17269(16) 0.41004(6) 1.27374(14)
C13 C -0.24067(14) 0.35326(6) 1.48620(14)
C14 C 0.35871(15) 0.34240(8) 1.24592(16)
C15 C 0.29354(16) 0.31301(7) 1.50066(16)
H1 H 0.1354(12) 0.3387(4) 0.9112(12)
H2 H -0.5289(15) 0.3869(5) 0.8502(14)
H3 H -0.1745(14) 0.4942(5) 0.8203(14)
H4 H -0.3339(17) 0.2714(6) 0.8239(18)
H5 H -0.4865(18) 0.2937(6) 0.8971(17)
H6 H -0.3386(17) 0.2802(6) 0.9999(19)
H7 H -0.454(2) 0.5261(7) 0.835(2)
H8 H -0.5856(18) 0.4845(7) 0.8338(18)
H9 H -0.498(2) 0.4984(8) 0.6848(16)
H10 H 0.0842(17) 0.4729(7) 0.8609(16)
H11 H 0.1378(15) 0.4177(6) 0.7966(16)
H12 H 0.1252(16) 0.4230(6) 0.9770(17)
H13 H -0.0089(14) 0.4302(6) 1.5070(15)
H14 H 0.0246(13) 0.3703(5) 1.5738(14)
H15 H 0.1597(15) 0.4124(5) 1.2919(16)
H16 H 0.2522(16) 0.4152(6) 1.4572(16)
H17 H -0.0900(15) 0.4213(5) 1.2032(15)
H18 H -0.2592(15) 0.3954(5) 1.2108(15)
H19 H -0.2154(14) 0.4421(6) 1.3247(15)
H20 H -0.3199(15) 0.3363(5) 1.4235(15)
H21 H -0.2868(14) 0.3860(6) 1.5404(15)
H22 H -0.1994(16) 0.3281(6) 1.5611(17)
H23 H 0.4027(17) 0.3051(7) 1.2343(17)
H24 H 0.3167(15) 0.3587(6) 1.1476(16)
H25 H 0.4480(18) 0.3653(6) 1.2833(17)
H26 H 0.3358(18) 0.2787(7) 1.4789(17)
H27 H 0.2118(16) 0.3098(6) 1.5752(16)
H28 H 0.3878(17) 0.3348(6) 1.5461(17)
P1C P -0.01317(4) 0.193943(11) 1.42141(3)
Na1C Na -0.00053(5) 0.207823(16) 0.74871(4)
loop_
_geom_bond_atom_site_label_1
_geom_bond_atom_site_label_2
_geom_bond_site_symmetry_1
_geom_bond_site_symmetry_2
P1 Na1 1_555 1_555
Na1 N1 1_555 1_555
N1 C10 1_555 1_555
N2 Na1 1_555 1_555
C1 P1 1_555 1_555
C2 C1 1_555 1_555
C3 C2 1_555 1_555
C4 C3 1_555 1_555
C5 C4 1_555 1_555
C6 C1 1_555 1_555
C7 C2 1_555 1_555
C8 C4 1_555 1_555
C9 C6 1_555 1_555
C10 C11 1_555 1_555
C11 N2 1_555 1_555
C12 N1 1_555 1_555
C13 N1 1_555 1_555
C14 N2 1_555 1_555
C15 N2 1_555 1_555
H1 P1 1_555 1_555
H2 C3 1_555 1_555
H3 C5 1_555 1_555
H4 C7 1_555 1_555
H5 C7 1_555 1_555
H6 C7 1_555 1_555
H7 C8 1_555 1_555
H8 C8 1_555 1_555
H9 C8 1_555 1_555
H10 C9 1_555 1_555
H11 C9 1_555 1_555
H12 C9 1_555 1_555
H13 C10 1_555 1_555
H14 C10 1_555 1_555
H15 C11 1_555 1_555
H16 C11 1_555 1_555
H17 C12 1_555 1_555
H18 C12 1_555 1_555
H19 C12 1_555 1_555
H20 C13 1_555 1_555
H21 C13 1_555 1_555
H22 C13 1_555 1_555
H23 C14 1_555 1_555
H24 C14 1_555 1_555
H25 C14 1_555 1_555
H26 C15 1_555 1_555
H27 C15 1_555 1_555
H28 C15 1_555 1_555
P1C Na1 1_555 1_555
Na1C P1 1_555 1_555
C5 C6 1_555 1_555

#END
