
#######################################################################
#
#                 Cambridge Crystallographic Data Centre
#                                CCDC 
#
#######################################################################
#
# If this CIF has been generated from an entry in the Cambridge 
# Structural Database, then it will include bibliographic, chemical, 
# crystal, experimental, refinement or atomic coordinate data resulting 
# from the CCDC's data processing and validation procedures.
#
#######################################################################

data_MIHCUC
_symmetry_cell_setting           orthorhombic
_symmetry_space_group_name_H-M   'P 21 21 21'
_symmetry_Int_Tables_number      19
_space_group_name_Hall           'P 2ac 2ab'
loop_
_symmetry_equiv_pos_site_id
_symmetry_equiv_pos_as_xyz
1 x,y,z
2 1/2-x,-y,1/2+z
3 -x,1/2+y,1/2-z
4 1/2+x,1/2-y,-z
_cell_length_a                   6.54460(10)
_cell_length_b                   25.6151(5)
_cell_length_c                   26.3379(6)
_cell_angle_alpha                90
_cell_angle_beta                 90
_cell_angle_gamma                90
_cell_volume                     4415.3
loop_
_atom_site_label
_atom_site_type_symbol
_atom_site_fract_x
_atom_site_fract_y
_atom_site_fract_z
Cu1 Cu 0.21306(3) 0.212926(9) 0.474525(8)
Cl1 Cl 0.27641(7) 0.283742(17) 0.524650(16)
O1 O 0.1312(3) 0.06603(6) 0.34645(6)
O2 O -0.1910(2) 0.09351(6) 0.35908(6)
O3 O 0.1212(2) 0.40727(6) 0.42929(5)
H1 H 0.096(4) 0.4327(8) 0.4460(9)
N1 N 0.2046(2) 0.16440(6) 0.53403(6)
N2 N 0.1924(2) 0.14377(6) 0.43406(6)
N3 N 0.2309(3) 0.25494(6) 0.41183(6)
N4 N 0.2154(3) 0.32503(6) 0.36362(6)
C1 C 0.2430(3) 0.17644(8) 0.58303(7)
H2 H 0.2860 0.2108 0.5912
C2 C 0.2214(3) 0.14029(8) 0.62156(8)
H3 H 0.2473 0.1499 0.6558
C3 C 0.1616(3) 0.08971(8) 0.60972(8)
H4 H 0.1465 0.0642 0.6357
C4 C 0.1244(3) 0.07707(8) 0.55976(8)
H5 H 0.0857 0.0426 0.5507
C5 C 0.1442(3) 0.11558(7) 0.52273(7)
C6 C 0.0869(3) 0.10615(7) 0.46823(8)
H6 H 0.1248 0.0701 0.4586
H7 H -0.0628 0.1098 0.4642
C7 C 0.4066(3) 0.12534(8) 0.42555(8)
H8 H 0.4041 0.0917 0.4079
H9 H 0.4756 0.1213 0.4583
H10 H 0.4803 0.1510 0.4049
C8 C 0.1756(3) 0.18328(8) 0.34632(7)
H11 H 0.3135 0.1689 0.3398
H12 H 0.0972 0.1813 0.3142
C9 C 0.0692(3) 0.14998(7) 0.38649(8)
H13 H -0.0606 0.1681 0.3959
C10 C 0.0112(3) 0.09794(7) 0.36231(7)
C11 C -0.2694(4) 0.04813(9) 0.33299(9)
H14 H -0.4181 0.0511 0.3297
H15 H -0.2358 0.0167 0.3524
H16 H -0.2076 0.0459 0.2992
C12 C 0.1949(3) 0.23926(8) 0.36198(7)
C13 C 0.1826(3) 0.28228(8) 0.33216(7)
H17 H 0.1567 0.2831 0.2967
C14 C 0.2433(3) 0.30642(8) 0.41102(8)
H18 H 0.2686 0.3275 0.4400
C15 C 0.1764(3) 0.41928(8) 0.38094(8)
C16 C 0.1955(3) 0.47057(8) 0.36398(8)
H19 H 0.1614 0.4985 0.3861
C17 C 0.2635(3) 0.48128(8) 0.31534(8)
H20 H 0.2760 0.5165 0.3044
C18 C 0.3135(3) 0.44104(8) 0.28254(8)
H21 H 0.3594 0.4484 0.2491
C19 C 0.2959(3) 0.38951(8) 0.29912(8)
H22 H 0.3321 0.3617 0.2770
C20 C 0.2261(3) 0.37852(7) 0.34753(8)
Cu1C Cu 0.71306(3) 0.287074(9) 0.525475(8)
Cl1C Cl -0.22359(7) 0.216258(17) 0.475350(16)
Cl2 Cl 0.31525(8) 0.70718(2) 0.23655(2)
O4 O 0.3859(4) 0.65487(8) 0.24279(8)
O5 O 0.4509(3) 0.74232(7) 0.26367(7)
O6 O 0.3091(3) 0.72055(8) 0.18392(6)
O7 O 0.1144(3) 0.71272(9) 0.25888(7)
Cl3 Cl 0.13170(8) 0.518003(18) 0.513547(19)
O8 O -0.0231(2) 0.48867(6) 0.48540(6)
O9 O 0.3264(2) 0.49289(6) 0.50616(7)
O10 O 0.1371(3) 0.57053(6) 0.49490(6)
O11 O 0.0774(3) 0.51740(7) 0.56630(6)
Cu2 Cu 0.14189(4) 0.776745(8) 0.533130(8)
Cl4 Cl 0.05891(7) 0.718229(17) 0.470626(17)
O12 O 0.1211(3) 0.94018(7) 0.65143(6)
O13 O 0.4080(3) 0.89556(6) 0.66664(6)
O14 O 0.2629(2) 0.80009(5) 0.34067(5)
H23 H 0.304(4) 0.7855(9) 0.3162(7)
N5 N 0.1652(2) 0.72091(6) 0.58516(6)
N6 N 0.1450(3) 0.82529(6) 0.59751(6)
N7 N 0.1256(3) 0.83540(6) 0.48568(6)
N8 N 0.1714(3) 0.87781(6) 0.41374(6)
C21 C 0.1405(3) 0.66890(7) 0.57827(7)
H24 H 0.0954 0.6565 0.5462
C22 C 0.1789(3) 0.63329(8) 0.61651(8)
H25 H 0.1594 0.5970 0.6108
C23 C 0.2461(3) 0.65103(8) 0.66325(8)
H26 H 0.2747 0.6271 0.6899
C24 C 0.2708(3) 0.70413(8) 0.67068(7)
H27 H 0.3154 0.7172 0.7026
C25 C 0.2295(3) 0.73805(7) 0.63076(7)
C26 C 0.2658(3) 0.79556(7) 0.63576(7)
H28 H 0.2267 0.8071 0.6703
H29 H 0.4130 0.8030 0.6310
C27 C -0.0711(3) 0.82905(8) 0.61524(8)
H30 H -0.0770 0.8502 0.6462
H31 H -0.1237 0.7940 0.6224
H32 H -0.1546 0.8454 0.5888
C28 C 0.1286(3) 0.91025(7) 0.54866(7)
H33 H -0.0172 0.9127 0.5584
H34 H 0.1852 0.9461 0.5484
C29 C 0.2417(3) 0.87815(7) 0.58869(7)
H35 H 0.3854 0.8727 0.5769
C30 C 0.2471(3) 0.90909(8) 0.63865(8)
C31 C 0.4093(4) 0.91504(10) 0.71835(9)
H36 H 0.5261 0.9003 0.7367
H37 H 0.2823 0.9048 0.7354
H38 H 0.4203 0.9532 0.7179
C32 C 0.1424(3) 0.88824(7) 0.49633(7)
C33 C 0.1430(3) 0.83073(7) 0.43570(7)
H39 H 0.1363 0.7986 0.4178
C34 C 0.1699(3) 0.91447(7) 0.45243(7)
H40 H 0.1854 0.9512 0.4487
C35 C 0.2286(3) 0.84974(8) 0.32495(8)
C36 C 0.2310(3) 0.86288(8) 0.27326(8)
H41 H 0.2565 0.8365 0.2487
C37 C 0.1967(3) 0.91355(9) 0.25751(8)
H42 H 0.1965 0.9217 0.2223
C38 C 0.1627(4) 0.95248(8) 0.29303(8)
H43 H 0.1441 0.9876 0.2824
C39 C 0.1561(4) 0.93988(8) 0.34429(8)
H44 H 0.1294 0.9665 0.3685
C40 C 0.1879(3) 0.88905(8) 0.36064(7)
Cu2C Cu -0.35811(4) 0.723255(8) 0.466870(8)
Cl4C Cl 0.55891(7) 0.781771(17) 0.529374(17)
loop_
_geom_bond_atom_site_label_1
_geom_bond_atom_site_label_2
_geom_bond_site_symmetry_1
_geom_bond_site_symmetry_2
Cu1 Cl1 1_555 1_555
Cl1 Cu1C 1_555 1_555
O1 C10 1_555 1_555
O2 C10 1_555 1_555
O3 H1 1_555 1_555
N1 Cu1 1_555 1_555
N2 Cu1 1_555 1_555
N3 Cu1 1_555 1_555
N4 C13 1_555 1_555
C1 N1 1_555 1_555
H2 C1 1_555 1_555
C2 C1 1_555 1_555
H3 C2 1_555 1_555
C3 C2 1_555 1_555
H4 C3 1_555 1_555
C4 C3 1_555 1_555
H5 C4 1_555 1_555
C5 N1 1_555 1_555
C6 N2 1_555 1_555
H6 C6 1_555 1_555
H7 C6 1_555 1_555
C7 N2 1_555 1_555
H8 C7 1_555 1_555
H9 C7 1_555 1_555
H10 C7 1_555 1_555
C8 H11 1_555 1_555
H12 C8 1_555 1_555
C9 N2 1_555 1_555
H13 C9 1_555 1_555
C10 C9 1_555 1_555
C11 O2 1_555 1_555
H14 C11 1_555 1_555
H15 C11 1_555 1_555
H16 C11 1_555 1_555
C12 N3 1_555 1_555
C13 C12 1_555 1_555
H17 C13 1_555 1_555
C14 N3 1_555 1_555
H18 C14 1_555 1_555
C15 O3 1_555 1_555
C16 C15 1_555 1_555
H19 C16 1_555 1_555
C17 C16 1_555 1_555
H20 C17 1_555 1_555
C18 C17 1_555 1_555
H21 C18 1_555 1_555
C19 C18 1_555 1_555
H22 C19 1_555 1_555
C20 N4 1_555 1_555
Cl2 O4 1_555 1_555
O5 Cl2 1_555 1_555
O6 Cl2 1_555 1_555
O7 Cl2 1_555 1_555
Cl3 O8 1_555 1_555
O9 Cl3 1_555 1_555
O10 Cl3 1_555 1_555
O11 Cl3 1_555 1_555
Cu2 Cl4 1_555 1_555
Cl4 Cu2C 1_555 1_555
O12 C30 1_555 1_555
O13 C30 1_555 1_555
O14 H23 1_555 1_555
N5 Cu2 1_555 1_555
N6 Cu2 1_555 1_555
N7 Cu2 1_555 1_555
N8 C33 1_555 1_555
C21 N5 1_555 1_555
H24 C21 1_555 1_555
C22 C21 1_555 1_555
H25 C22 1_555 1_555
C23 C22 1_555 1_555
H26 C23 1_555 1_555
C24 C23 1_555 1_555
H27 C24 1_555 1_555
C25 N5 1_555 1_555
C26 N6 1_555 1_555
H28 C26 1_555 1_555
H29 C26 1_555 1_555
C27 N6 1_555 1_555
H30 C27 1_555 1_555
H31 C27 1_555 1_555
H32 C27 1_555 1_555
C28 H33 1_555 1_555
H34 C28 1_555 1_555
C29 N6 1_555 1_555
H35 C29 1_555 1_555
C30 C29 1_555 1_555
C31 O13 1_555 1_555
H36 C31 1_555 1_555
H37 C31 1_555 1_555
H38 C31 1_555 1_555
C32 N7 1_555 1_555
C33 N7 1_555 1_555
H39 C33 1_555 1_555
C34 N8 1_555 1_555
H40 C34 1_555 1_555
C35 O14 1_555 1_555
C36 C35 1_555 1_555
H41 C36 1_555 1_555
C37 C36 1_555 1_555
H42 C37 1_555 1_555
C38 C37 1_555 1_555
H43 C38 1_555 1_555
C39 C38 1_555 1_555
H44 C39 1_555 1_555
C40 N8 1_555 1_555
Cl1C Cu1 1_555 1_555
Cl4C Cu2 1_555 1_555
N4 C14 1_555 1_555
C4 C5 1_555 1_555
C5 C6 1_555 1_555
C8 C9 1_555 1_555
C8 C12 1_555 1_555
C15 C20 1_555 1_555
C19 C20 1_555 1_555
C24 C25 1_555 1_555
C25 C26 1_555 1_555
C28 C29 1_555 1_555
C28 C32 1_555 1_555
C32 C34 1_555 1_555
C35 C40 1_555 1_555
C39 C40 1_555 1_555

#END
