
#######################################################################
#
#                 Cambridge Crystallographic Data Centre
#                                CCDC 
#
#######################################################################
#
# If this CIF has been generated from an entry in the Cambridge 
# Structural Database, then it will include bibliographic, chemical, 
# crystal, experimental, refinement or atomic coordinate data resulting 
# from the CCDC's data processing and validation procedures.
#
#######################################################################

data_MIHCOW
_symmetry_cell_setting           orthorhombic
_symmetry_space_group_name_H-M   'P 21 21 21'
_symmetry_Int_Tables_number      19
_space_group_name_Hall           'P 2ac 2ab'
loop_
_symmetry_equiv_pos_site_id
_symmetry_equiv_pos_as_xyz
1 x,y,z
2 1/2-x,-y,1/2+z
3 -x,1/2+y,1/2-z
4 1/2+x,1/2-y,-z
_cell_length_a                   6.6563(11)
_cell_length_b                   16.198(3)
_cell_length_c                   20.176(3)
_cell_angle_alpha                90
_cell_angle_beta                 90
_cell_angle_gamma                90
_cell_volume                     2175.35
loop_
_atom_site_label
_atom_site_type_symbol
_atom_site_fract_x
_atom_site_fract_y
_atom_site_fract_z
Cu1 Cu 0.57894(4) 0.749194(18) 0.553471(13)
Cl1 Cl 0.66585(9) 0.75825(4) 0.44425(3)
O1 O 0.4623(3) 0.52408(11) 0.37457(9)
H1 H 0.440(6) 0.524(2) 0.3353(10)
O2 O 0.3174(3) 0.74956(14) 0.78443(8)
N1 N 0.5954(3) 0.62813(12) 0.55013(10)
N2 N 0.5583(4) 0.50277(13) 0.50935(10)
N3 N 0.5698(3) 0.75366(13) 0.65706(9)
N4 N 0.5643(3) 0.87197(12) 0.56214(10)
C1 C 0.5102(4) 0.44701(15) 0.39578(13)
C2 C 0.5176(4) 0.37909(16) 0.35331(13)
H2 H 0.4856 0.3860 0.3078
C3 C 0.5707(5) 0.30186(16) 0.37651(14)
H3 H 0.5733 0.2563 0.3469
C4 C 0.6202(5) 0.29027(16) 0.44247(15)
H4 H 0.6578 0.2372 0.4582
C5 C 0.6139(5) 0.35754(17) 0.48546(14)
H5 H 0.6481 0.3501 0.5308
C6 C 0.5582(4) 0.43549(15) 0.46288(12)
C7 C 0.5922(4) 0.58319(16) 0.49514(12)
H6 H 0.6110 0.6046 0.4517
C8 C 0.5397(4) 0.49650(16) 0.57751(13)
H7 H 0.5150 0.4476 0.6021
C9 C 0.5638(4) 0.57414(15) 0.60251(12)
C10 C 0.5673(4) 0.59911(15) 0.67319(12)
H8 H 0.7091 0.6023 0.6877
H9 H 0.5017 0.5552 0.6996
C11 C 0.4655(4) 0.68106(15) 0.68954(12)
H10 H 0.3254 0.6787 0.6718
C12 C 0.4513(4) 0.68704(16) 0.76494(12)
H11 H 0.4053 0.6335 0.7831
H12 H 0.5861 0.6987 0.7834
C13 C 0.3645(5) 0.78278(19) 0.84779(14)
H13 H 0.2718 0.8280 0.8580
H14 H 0.5026 0.8037 0.8476
H15 H 0.3514 0.7395 0.8815
C14 C 0.4627(4) 0.83198(15) 0.67325(12)
H16 H 0.5067 0.8518 0.7174
H17 H 0.3164 0.8213 0.6753
C15 C 0.5038(4) 0.89747(15) 0.62242(12)
C16 C 0.4700(4) 0.98061(16) 0.63650(12)
H18 H 0.4278 0.9974 0.6794
C17 C 0.4992(4) 1.03831(16) 0.58662(13)
H19 H 0.4773 1.0953 0.5950
C18 C 0.5607(5) 1.01196(15) 0.52445(13)
H20 H 0.5807 1.0506 0.4896
C19 C 0.5925(4) 0.92876(16) 0.51391(13)
H21 H 0.6355 0.9108 0.4714
C20 C 0.7849(4) 0.76205(18) 0.67739(13)
H22 H 0.7928 0.7687 0.7256
H23 H 0.8438 0.8105 0.6557
H24 H 0.8591 0.7124 0.6642
Cu1C Cu 1.07894(4) 0.750806(18) 0.446529(13)
Cl1C Cl 0.16585(9) 0.74175(4) 0.55575(3)
Cl2 Cl 0.43748(10) 0.53364(4) 0.19412(3)
O3 O 0.4329(3) 0.45344(12) 0.16362(11)
O4 O 0.3835(4) 0.59516(14) 0.14680(12)
O5 O 0.6330(3) 0.55052(14) 0.22168(11)
O6 O 0.2949(3) 0.53386(16) 0.24909(11)
loop_
_geom_bond_atom_site_label_1
_geom_bond_atom_site_label_2
_geom_bond_site_symmetry_1
_geom_bond_site_symmetry_2
Cu1 Cl1 1_555 1_555
Cl1 Cu1C 1_555 1_555
O1 H1 1_555 1_555
O2 C12 1_555 1_555
N1 Cu1 1_555 1_555
N2 C6 1_555 1_555
N3 Cu1 1_555 1_555
N4 Cu1 1_555 1_555
C1 O1 1_555 1_555
C2 C1 1_555 1_555
H2 C2 1_555 1_555
C3 C2 1_555 1_555
H3 C3 1_555 1_555
C4 C3 1_555 1_555
H4 C4 1_555 1_555
C5 C4 1_555 1_555
H5 C5 1_555 1_555
C6 C1 1_555 1_555
C7 N1 1_555 1_555
H6 C7 1_555 1_555
C8 N2 1_555 1_555
H7 C8 1_555 1_555
C9 N1 1_555 1_555
C10 C9 1_555 1_555
H8 C10 1_555 1_555
H9 C10 1_555 1_555
C11 N3 1_555 1_555
H10 C11 1_555 1_555
C12 C11 1_555 1_555
H11 C12 1_555 1_555
H12 C12 1_555 1_555
C13 O2 1_555 1_555
H13 C13 1_555 1_555
H14 C13 1_555 1_555
H15 C13 1_555 1_555
C14 N3 1_555 1_555
H16 C14 1_555 1_555
H17 C14 1_555 1_555
C15 N4 1_555 1_555
C16 C15 1_555 1_555
H18 C16 1_555 1_555
C17 C16 1_555 1_555
H19 C17 1_555 1_555
C18 C17 1_555 1_555
H20 C18 1_555 1_555
C19 N4 1_555 1_555
H21 C19 1_555 1_555
C20 N3 1_555 1_555
H22 C20 1_555 1_555
H23 C20 1_555 1_555
H24 C20 1_555 1_555
Cl2 O3 1_555 1_555
O4 Cl2 1_555 1_555
O5 Cl2 1_555 1_555
O6 Cl2 1_555 1_555
Cl1C Cu1 1_555 1_555
N2 C7 1_555 1_555
C5 C6 1_555 1_555
C8 C9 1_555 1_555
C10 C11 1_555 1_555
C14 C15 1_555 1_555
C18 C19 1_555 1_555

#END
