
#######################################################################
#
#                 Cambridge Crystallographic Data Centre
#                                CCDC 
#
#######################################################################
#
# If this CIF has been generated from an entry in the Cambridge 
# Structural Database, then it will include bibliographic, chemical, 
# crystal, experimental, refinement or atomic coordinate data resulting 
# from the CCDC's data processing and validation procedures.
#
#######################################################################

data_MIHFOA
_symmetry_cell_setting           monoclinic
_symmetry_space_group_name_H-M   'P 21/n'
_symmetry_Int_Tables_number      14
_space_group_name_Hall           '-P 2yn'
loop_
_symmetry_equiv_pos_site_id
_symmetry_equiv_pos_as_xyz
1 x,y,z
2 1/2-x,1/2+y,1/2-z
3 -x,-y,-z
4 1/2+x,1/2-y,1/2+z
_cell_length_a                   10.42050(10)
_cell_length_b                   19.4854(2)
_cell_length_c                   11.0792(2)
_cell_angle_alpha                90
_cell_angle_beta                 109.6310(10)
_cell_angle_gamma                90
_cell_volume                     2118.85
loop_
_atom_site_label
_atom_site_type_symbol
_atom_site_fract_x
_atom_site_fract_y
_atom_site_fract_z
Mn1 Mn 0.28713(3) 0.089375(12) 0.30108(3)
Mn2 Mn 0.60572(3) 0.059953(12) 0.48621(3)
O1 O -0.14667(14) -0.00685(6) -0.24289(15)
O2 O 0.78153(16) 0.04993(8) 0.42287(18)
H1 H 0.847(3) 0.0749(14) 0.460(2)
H2 H 0.757(3) 0.0589(17) 0.3431(16)
O3 O -0.27884(14) 0.08364(6) -0.32015(14)
O4 O 0.10159(15) 0.33049(6) -0.04935(16)
O5 O -0.11052(14) 0.31433(6) -0.18162(16)
O6 O 0.26932(13) 0.09067(6) 0.08792(12)
O7 O 0.47675(14) 0.04543(7) 0.27434(13)
O8 O 0.61826(17) 0.05225(11) 0.16191(18)
O9 O 0.39730(13) 0.05235(6) 0.48713(12)
N1 N 0.09376(16) 0.15603(8) 0.26167(16)
N2 N -0.4998(2) 0.36443(11) 0.0461(2)
C1 C -0.05912(17) 0.10260(8) -0.16997(16)
C2 C -0.07375(17) 0.17330(8) -0.18290(17)
H3 H -0.1516 0.1917 -0.2428
C3 C 0.02691(18) 0.21692(8) -0.10719(17)
C4 C 0.14435(18) 0.18911(8) -0.01935(17)
H4 H 0.2133 0.2177 0.0306
C5 C 0.15742(18) 0.11871(9) -0.00721(16)
C6 C 0.05780(18) 0.07489(8) -0.08086(17)
H5 H 0.0685 0.0276 -0.0712
C7 C -0.17019(18) 0.05623(8) -0.25099(17)
C8 C 0.00509(19) 0.29363(8) -0.11352(18)
C9 C 0.3899(2) 0.08444(16) 0.0582(2)
H6 H 0.4146 0.1287 0.0327
H7 H 0.3754 0.0529 -0.0129
C10 C 0.5043(2) 0.05813(11) 0.1743(2)
C11 C -0.0121(2) 0.26685(10) 0.2186(2)
H8 H -0.0011 0.3142 0.2171
C12 C 0.1008(2) 0.22452(10) 0.2592(2)
H9 H 0.1866 0.2448 0.2862
C13 C -0.0316(2) 0.12917(10) 0.2242(2)
H10 H -0.0398 0.0817 0.2254
C14 C -0.1489(2) 0.16752(11) 0.1842(2)
H11 H -0.2333 0.1459 0.1597
C15 C -0.1416(2) 0.23866(10) 0.1802(2)
C16 C -0.2664(2) 0.28210(11) 0.1372(2)
C17 C -0.3912(2) 0.25524(12) 0.0628(2)
H12 H -0.3991 0.2090 0.0410
C18 C -0.5037(2) 0.29784(14) 0.0214(2)
H13 H -0.5870 0.2786 -0.0264
C19 C -0.3815(3) 0.38984(12) 0.1190(3)
H14 H -0.3771 0.4363 0.1389
C20 C -0.2635(2) 0.35114(12) 0.1677(2)
H15 H -0.1833 0.3714 0.2201
Mn1B Mn -0.28713(3) -0.089375(12) -0.30108(3)
Mn1C Mn -0.21287(3) 0.410625(12) -0.19892(3)
Mn2_2 Mn -0.39428(3) 0.059953(12) -0.51379(3)
Mn2B Mn 0.39428(3) -0.059953(12) 0.51379(3)
Mn2C Mn 0.10572(3) 0.440047(12) -0.01379(3)
O1B O 0.14667(14) 0.00685(6) 0.24289(15)
O3_2 O 0.72116(14) 0.08364(6) 0.67985(14)
O4C O 0.60159(15) 0.16951(6) 0.45065(16)
O5C O 0.38948(14) 0.18567(6) 0.31838(16)
O9B O 0.60270(13) -0.05235(6) 0.51287(12)
O10 O 0.5960(5) 0.0977(2) 0.8993(5)
H16 H 0.643(4) 0.0722(18) 0.953(3)
H17 H 0.557(3) 0.0846(16) 0.832(2)
loop_
_geom_bond_atom_site_label_1
_geom_bond_atom_site_label_2
_geom_bond_site_symmetry_1
_geom_bond_site_symmetry_2
Mn1 O6 1_555 1_555
Mn2 O2 1_555 1_555
O1 C7 1_555 1_555
O2 H1 1_555 1_555
H2 O2 1_555 1_555
O3 C7 1_555 1_555
O4 C8 1_555 1_555
O5 C8 1_555 1_555
O6 C5 1_555 1_555
O7 Mn1 1_555 1_555
O8 C10 1_555 1_555
O9 Mn1 1_555 1_555
N1 Mn1 1_555 1_555
N2 C18 1_555 1_555
C1 C2 1_555 1_555
C2 H3 1_555 1_555
C3 C2 1_555 1_555
C4 C3 1_555 1_555
H4 C4 1_555 1_555
C5 C4 1_555 1_555
C6 C1 1_555 1_555
H5 C6 1_555 1_555
C7 C1 1_555 1_555
C8 C3 1_555 1_555
C9 O6 1_555 1_555
H6 C9 1_555 1_555
H7 C9 1_555 1_555
C10 O7 1_555 1_555
C11 H8 1_555 1_555
C12 N1 1_555 1_555
H9 C12 1_555 1_555
C13 N1 1_555 1_555
H10 C13 1_555 1_555
C14 C13 1_555 1_555
H11 C14 1_555 1_555
C15 C11 1_555 1_555
C16 C15 1_555 1_555
C17 C16 1_555 1_555
H12 C17 1_555 1_555
C18 C17 1_555 1_555
H13 C18 1_555 1_555
C19 N2 1_555 1_555
H14 C19 1_555 1_555
C20 C16 1_555 1_555
H15 C20 1_555 1_555
O10 H16 1_555 1_555
H17 O10 1_555 1_555
Mn1B O1 1_555 1_555
Mn1C O5 1_555 1_555
Mn2_2 O3 1_555 1_555
Mn2B O9 1_555 1_555
Mn2C O4 1_555 1_555
O1B Mn1 1_555 1_555
O3_2 Mn2 1_555 1_555
O4C Mn2 1_555 1_555
O5C Mn1 1_555 1_555
O9B Mn2 1_555 1_555
Mn2 O7 1_555 1_555
Mn2 O9 1_555 1_555
C5 C6 1_555 1_555
C9 C10 1_555 1_555
C11 C12 1_555 1_555
C14 C15 1_555 1_555
C19 C20 1_555 1_555
Mn2B O9B 1_555 1_555

#END
