
#######################################################################
#
#                 Cambridge Crystallographic Data Centre
#                                CCDC 
#
#######################################################################
#
# If this CIF has been generated from an entry in the Cambridge 
# Structural Database, then it will include bibliographic, chemical, 
# crystal, experimental, refinement or atomic coordinate data resulting 
# from the CCDC's data processing and validation procedures.
#
#######################################################################

data_MIHHIU
_symmetry_cell_setting           orthorhombic
_symmetry_space_group_name_H-M   'P 21 21 21'
_symmetry_Int_Tables_number      19
_space_group_name_Hall           'P 2ac 2ab'
loop_
_symmetry_equiv_pos_site_id
_symmetry_equiv_pos_as_xyz
1 x,y,z
2 1/2-x,-y,1/2+z
3 -x,1/2+y,1/2-z
4 1/2+x,1/2-y,-z
_cell_length_a                   13.8639(8)
_cell_length_b                   15.1012(8)
_cell_length_c                   19.4313(11)
_cell_angle_alpha                90
_cell_angle_beta                 90
_cell_angle_gamma                90
_cell_volume                     4068.17
loop_
_atom_site_label
_atom_site_type_symbol
_atom_site_fract_x
_atom_site_fract_y
_atom_site_fract_z
Cd1 Cd -0.20171(3) 0.36143(2) 1.035198(19)
O1 O -0.3030(3) 0.4476(2) 0.86755(19)
H1 H -0.2584 0.4620 0.8929
N1 N -0.3667(3) 0.3805(3) 1.0074(2)
O2 O -0.6850(3) 0.2709(3) 1.0248(2)
N2 N -0.2113(4) 0.3198(3) 1.1503(2)
O3 O -0.1019(3) 0.3083(3) 1.3927(2)
H2 H -0.0561 0.2869 1.3717
C1 C -0.4027(3) 0.3505(4) 0.9378(3)
H3 H -0.4162 0.2871 0.9421
C2 C -0.3283(4) 0.3597(4) 0.8805(2)
H4 H -0.2703 0.3265 0.8932
C3 C -0.2014(5) 0.2833(3) 1.2927(3)
C4 C -0.5387(4) 0.3512(4) 1.0438(3)
H5 H -0.5689 0.3726 1.0862
C5 C -0.2327(4) 0.2374(4) 1.1748(3)
O4 O -0.5512(3) 0.2060(3) 0.9909(2)
C6 C -0.3706(4) 0.3199(4) 0.8150(3)
C7 C -0.1822(4) 0.3643(4) 1.2660(3)
H6 H -0.1641 0.4099 1.2954
C8 C -0.5008(4) 0.3959(4) 0.9222(3)
H7 H -0.4907 0.4472 0.8931
H8 H -0.5428 0.3550 0.8980
C9 C -0.3854(4) 0.2262(4) 0.8068(3)
C10 C -0.2304(4) 0.2164(4) 1.2462(3)
C11 C -0.3951(4) 0.3717(5) 0.7613(3)
H9 H -0.3834 0.4322 0.7642
C12 C -0.4279(4) 0.1987(4) 0.7438(3)
C13 C -0.5472(4) 0.4239(4) 0.9894(3)
H10 H -0.6148 0.4403 0.9822
C14 C -0.5958(4) 0.2688(4) 1.0185(3)
N3 N -0.4541(4) 0.2545(4) 0.6931(3)
C15 C -0.1889(5) 0.3810(3) 1.1954(3)
H11 H -0.1769 0.4382 1.1797
C16 C -0.4209(5) 0.0469(5) 0.7830(4)
H12 H -0.4329 -0.0131 0.7762
C17 C -0.2815(5) 0.0894(4) 1.1489(3)
H13 H -0.2983 0.0464 1.1167
C18 C -0.2583(5) 0.1695(4) 1.1276(3)
H14 H -0.2588 0.1818 1.0807
C19 C -0.4301(4) 0.3340(4) 1.0586(3)
H15 H -0.4147 0.3546 1.1046
H16 H -0.4176 0.2709 1.0569
C20 C -0.3625(4) 0.1624(4) 0.8566(3)
H17 H -0.3356 0.1800 0.8982
C21 C -0.4889(5) 0.5034(4) 1.0167(4)
H18 H -0.5094 0.5180 1.0631
H19 H -0.4994 0.5547 0.9876
C22 C -0.4433(5) 0.1062(5) 0.7336(4)
H20 H -0.4693 0.0865 0.6922
O5 O -0.3627(4) 0.0070(3) 0.8917(3)
C23 C -0.2565(4) 0.1294(4) 1.2664(3)
H21 H -0.2562 0.1150 1.3129
C24 C -0.1874(4) 0.2698(4) 1.3694(3)
H22 H -0.1872 0.2064 1.3799
C25 C -0.2814(5) 0.0673(4) 1.2205(3)
C26 C -0.3816(4) 0.4780(4) 1.0165(3)
H23 H -0.3493 0.5093 0.9795
H24 H -0.3526 0.4965 1.0596
O6 O -0.3098(6) -0.0144(3) 1.2407(3)
C27 C -0.4366(5) 0.3389(4) 0.7023(3)
H25 H -0.4530 0.3783 0.6675
C28 C -0.3790(5) 0.0767(4) 0.8450(3)
C29 C -0.3411(8) 0.0332(6) 0.9597(5)
H26 H -0.3313 -0.0184 0.9877
H27 H -0.3937 0.0672 0.9778
H28 H -0.2836 0.0686 0.9597
C30 C -0.2655(4) 0.3167(4) 1.4130(3)
H29 H -0.2633 0.3798 1.4013
N4 N -0.3647(4) 0.2847(3) 1.3970(3)
C31 C -0.2448(5) 0.3092(4) 1.4899(3)
H30 H -0.2064 0.3592 1.5050
H31 H -0.2091 0.2553 1.4993
C32 C -0.3420(5) 0.3078(4) 1.5284(3)
H32 H -0.3329 0.3160 1.5780
C33 C -0.4082(5) 0.3793(4) 1.4982(3)
H33 H -0.4692 0.3764 1.5236
C34 C -0.3921(7) 0.2186(4) 1.5125(4)
H34 H -0.3607 0.1709 1.5372
H35 H -0.4592 0.2208 1.5264
C35 C -0.3670(4) 0.4739(4) 1.5091(3)
C36 C -0.4308(4) 0.3545(5) 1.4235(3)
H36 H -0.4968 0.3334 1.4206
H37 H -0.4253 0.4068 1.3948
C37 C -0.3847(6) 0.2032(5) 1.4351(4)
H38 H -0.3337 0.1607 1.4262
H39 H -0.4448 0.1779 1.4187
O7 O -0.3506(4) 0.4978(3) 1.5685(2)
O8 O -0.3467(3) 0.5209(3) 1.4584(3)
C38 C -0.3219(14) -0.0850(9) 1.1958(9)
H40 H -0.3429 -0.1361 1.2210
H41 H -0.2617 -0.0977 1.1735
H42 H -0.3694 -0.0699 1.1618
O2C O -0.1850(3) 0.2291(3) 0.9752(2)
O4C O -0.0512(3) 0.2940(3) 1.0091(2)
O7A O -0.1494(4) 0.5022(3) 1.0685(2)
O8A O -0.1533(3) 0.4791(3) 0.9584(3)
Cd1C Cd -0.70171(3) 0.13857(2) 0.964802(19)
Cd1A Cd -0.29829(3) 0.63857(2) 1.535198(19)
loop_
_geom_bond_atom_site_label_1
_geom_bond_atom_site_label_2
_geom_bond_site_symmetry_1
_geom_bond_site_symmetry_2
Cd1 N1 1_555 1_555
O1 H1 1_555 1_555
N1 C1 1_555 1_555
O2 C14 1_555 1_555
N2 Cd1 1_555 1_555
O3 H2 1_555 1_555
C1 H3 1_555 1_555
C2 O1 1_555 1_555
H4 C2 1_555 1_555
C3 C7 1_555 1_555
C4 H5 1_555 1_555
C5 N2 1_555 1_555
O4 C14 1_555 1_555
C6 C2 1_555 1_555
C7 H6 1_555 1_555
C8 C1 1_555 1_555
H7 C8 1_555 1_555
H8 C8 1_555 1_555
C9 C6 1_555 1_555
C10 C3 1_555 1_555
C11 C6 1_555 1_555
H9 C11 1_555 1_555
C12 C9 1_555 1_555
C13 C4 1_555 1_555
H10 C13 1_555 1_555
C14 C4 1_555 1_555
N3 C12 1_555 1_555
C15 N2 1_555 1_555
H11 C15 1_555 1_555
C16 H12 1_555 1_555
C17 H13 1_555 1_555
C18 C5 1_555 1_555
H14 C18 1_555 1_555
C19 N1 1_555 1_555
H15 C19 1_555 1_555
H16 C19 1_555 1_555
C20 C9 1_555 1_555
H17 C20 1_555 1_555
C21 C13 1_555 1_555
H18 C21 1_555 1_555
H19 C21 1_555 1_555
C22 C12 1_555 1_555
H20 C22 1_555 1_555
O5 C28 1_555 1_555
C23 C10 1_555 1_555
H21 C23 1_555 1_555
C24 O3 1_555 1_555
H22 C24 1_555 1_555
C25 C17 1_555 1_555
C26 N1 1_555 1_555
H23 C26 1_555 1_555
H24 C26 1_555 1_555
O6 C25 1_555 1_555
C27 C11 1_555 1_555
H25 C27 1_555 1_555
C28 C16 1_555 1_555
C29 O5 1_555 1_555
H26 C29 1_555 1_555
H27 C29 1_555 1_555
H28 C29 1_555 1_555
C30 C24 1_555 1_555
H29 C30 1_555 1_555
N4 C30 1_555 1_555
C31 C30 1_555 1_555
H30 C31 1_555 1_555
H31 C31 1_555 1_555
C32 C31 1_555 1_555
H32 C32 1_555 1_555
C33 C32 1_555 1_555
H33 C33 1_555 1_555
C34 C32 1_555 1_555
H34 C34 1_555 1_555
H35 C34 1_555 1_555
C35 C33 1_555 1_555
C36 N4 1_555 1_555
H36 C36 1_555 1_555
H37 C36 1_555 1_555
C37 N4 1_555 1_555
H38 C37 1_555 1_555
H39 C37 1_555 1_555
O7 C35 1_555 1_555
O8 C35 1_555 1_555
C38 O6 1_555 1_555
H40 C38 1_555 1_555
H41 C38 1_555 1_555
H42 C38 1_555 1_555
O2C Cd1 1_555 1_555
O4C Cd1 1_555 1_555
O7A Cd1 1_555 1_555
O8A Cd1 1_555 1_555
Cd1C O2 1_555 1_555
Cd1A O7 1_555 1_555
C1 C2 1_555 1_555
C3 C24 1_555 1_555
C4 C19 1_555 1_555
C5 C10 1_555 1_555
O4 Cd1C 1_555 1_555
C7 C15 1_555 1_555
C8 C13 1_555 1_555
N3 C27 1_555 1_555
C16 C22 1_555 1_555
C17 C18 1_555 1_555
C20 C28 1_555 1_555
C21 C26 1_555 1_555
C23 C25 1_555 1_555
C33 C36 1_555 1_555
C34 C37 1_555 1_555
O8 Cd1A 1_555 1_555

#END
