
#######################################################################
#
#                 Cambridge Crystallographic Data Centre
#                                CCDC 
#
#######################################################################
#
# If this CIF has been generated from an entry in the Cambridge 
# Structural Database, then it will include bibliographic, chemical, 
# crystal, experimental, refinement or atomic coordinate data resulting 
# from the CCDC's data processing and validation procedures.
#
#######################################################################

data_MIHHOA
_symmetry_cell_setting           orthorhombic
_symmetry_space_group_name_H-M   'P 21 21 21'
_symmetry_Int_Tables_number      19
_space_group_name_Hall           'P 2ac 2ab'
loop_
_symmetry_equiv_pos_site_id
_symmetry_equiv_pos_as_xyz
1 x,y,z
2 1/2-x,-y,1/2+z
3 -x,1/2+y,1/2-z
4 1/2+x,1/2-y,-z
_cell_length_a                   13.7818(9)
_cell_length_b                   15.0617(10)
_cell_length_c                   19.3555(13)
_cell_angle_alpha                90
_cell_angle_beta                 90
_cell_angle_gamma                90
_cell_volume                     4017.76
loop_
_atom_site_label
_atom_site_type_symbol
_atom_site_fract_x
_atom_site_fract_y
_atom_site_fract_z
Cd1 Cd 0.302315(18) 0.139032(17) 0.966301(13)
O1 O 0.1988(2) 0.04906(16) 1.13345(12)
H1 H 0.2440 0.0349 1.1082
C1 C 0.3171(3) 0.1374(3) 0.73545(17)
H2 H 0.3339 0.0916 0.7055
O2 O 0.3946(2) 0.1989(2) 0.60840(14)
H3 H 0.4004 0.2067 0.5667
N1 N 0.2918(2) 0.18230(19) 0.85177(14)
C2 C 0.1732(2) 0.1395(3) 1.12081(16)
H4 H 0.2318 0.1730 1.1088
C3 C 0.0988(2) 0.1480(2) 1.06189(16)
H5 H 0.0846 0.2116 1.0576
C4 C 0.2955(3) 0.2198(2) 0.70914(17)
C5 C 0.0729(3) 0.2986(3) 1.2586(2)
C6 C -0.0344(3) 0.1491(3) 0.95465(18)
H6 H -0.0639 0.1283 0.9115
C7 C 0.2675(3) 0.2655(2) 0.82817(19)
N2 N 0.0437(3) 0.2409(3) 1.30977(17)
C8 C 0.1300(3) 0.1774(2) 1.18605(18)
C9 C 0.1154(3) 0.2705(3) 1.19493(19)
C10 C 0.1017(3) 0.1212(3) 1.23849(18)
H7 H 0.1111 0.0603 1.2340
C11 C 0.0593(3) 0.1550(3) 1.2981(2)
H8 H 0.0406 0.1149 1.3321
C12 C -0.0435(3) 0.0742(3) 1.0080(2)
H9 H -0.1117 0.0576 1.0142
N3 N 0.1360(2) 0.11881(18) 0.99263(14)
C13 C 0.1402(3) 0.3355(3) 1.1459(2)
H10 H 0.1687 0.3185 1.1044
C14 C 0.0604(4) 0.3898(3) 1.2713(2)
H11 H 0.0362 0.4087 1.3137
C15 C 0.0141(3) -0.0037(3) 0.9819(3)
H12 H -0.0044 -0.0175 0.9348
H13 H 0.0018 -0.0554 1.0104
C16 C 0.1218(2) 0.02109(18) 0.98496(13)
H14 H 0.1519 -0.0091 1.0237
H15 H 0.1535 0.0011 0.9430
C17 C 0.3067(2) 0.23413(18) 0.63049(13)
H16 H 0.3042 0.2977 0.6199
C18 C 0.1232(3) 0.4225(3) 1.1582(2)
C19 C 0.2662(3) 0.2865(2) 0.75658(19)
C20 C 0.0010(3) 0.1023(3) 1.0770(2)
H17 H 0.0109 0.0508 1.1062
H18 H -0.0422 0.1431 1.1008
C21 C 0.3143(3) 0.1214(2) 0.80584(19)
H19 H 0.3291 0.0647 0.8214
C22 C 0.2147(4) 0.4124(3) 0.8553(2)
H20 H 0.1992 0.4551 0.8882
C23 C 0.2356(3) 0.3721(3) 0.7372(2)
H21 H 0.2337 0.3870 0.6905
O3 O 0.1404(3) 0.4902(2) 1.11312(19)
C24 C 0.0835(4) 0.4502(3) 1.2222(3)
H22 H 0.0733 0.5102 1.2306
C25 C 0.2424(3) 0.3314(3) 0.8759(2)
H23 H 0.2450 0.3187 0.9229
O4 O 0.1750(4) 0.5138(2) 0.7680(3)
C26 C 0.2087(4) 0.4337(3) 0.7853(2)
C27 C 0.0736(3) 0.1643(2) 0.94100(18)
H24 H 0.0896 0.1426 0.8952
H25 H 0.0870 0.2275 0.9421
C28 C -0.0912(3) 0.2300(3) 0.97898(17)
O5 O -0.18162(18) 0.22859(17) 0.97292(13)
O6 O -0.0483(2) 0.29243(19) 1.00786(15)
C29 C 0.1637(5) 0.4664(4) 1.0459(3)
H26 H 0.1739 0.5190 1.0188
H27 H 0.1115 0.4325 1.0263
H28 H 0.2218 0.4313 1.0460
C31 C 0.1386(8) 0.5374(6) 0.7096(4)
H30 H 0.1204 0.5989 0.7116
H31 H 0.0824 0.5019 0.6999
H32 H 0.1860 0.5290 0.6738
C35 C 0.2285(3) 0.1855(3) 0.58987(18)
H42 H 0.2343 0.1225 0.6019
C36 C 0.2472(3) 0.1923(3) 0.51202(19)
H43 H 0.2820 0.2467 0.5016
H44 H 0.2859 0.1424 0.4965
N4 N 0.1286(3) 0.2119(2) 0.60651(18)
C37 C 0.0642(3) 0.1418(3) 0.5807(2)
H45 H -0.0026 0.1611 0.5852
H46 H 0.0724 0.0891 0.6088
C38 C 0.1054(4) 0.2952(3) 0.5691(2)
H47 H 0.1551 0.3391 0.5788
H48 H 0.0439 0.3183 0.5856
C39 C 0.0993(4) 0.2802(3) 0.4913(2)
H49 H 0.0320 0.2787 0.4766
H50 H 0.1319 0.3279 0.4669
C40 C 0.1481(3) 0.1922(3) 0.4756(2)
H51 H 0.1563 0.1846 0.4256
C41 C 0.0844(3) 0.1185(3) 0.5053(2)
H52 H 0.0222 0.1204 0.4807
C42 C 0.1284(3) 0.0260(3) 0.4932(2)
O8 O 0.1518(2) -0.02162(19) 0.54352(15)
O9 O 0.1393(3) 0.00037(19) 0.43235(16)
O5C O 0.31838(18) 0.27141(17) 1.02708(13)
O6C O 0.4517(2) 0.20757(19) 0.99214(15)
O8A O 0.3482(2) 0.02162(19) 1.04352(15)
O9A O 0.3607(3) -0.00037(19) 0.93235(16)
Cd1C Cd -0.197685(18) 0.360968(17) 1.033699(13)
Cd1A Cd 0.197685(18) -0.139032(17) 0.466301(13)
C30 C 0.5410(11) -0.3158(8) 1.2440(8)
H29 H 0.4947 -0.3601 1.2269
C32 C 0.5512(9) -0.3284(10) 1.3165(5)
H33 H 0.4887 -0.3244 1.3382
H34 H 0.5932 -0.2835 1.3350
H35 H 0.5787 -0.3859 1.3253
C33 C 0.6345(10) -0.3180(14) 1.1944(8)
H36 H 0.6893 -0.2845 1.2120
H37 H 0.6206 -0.3021 1.1468
O7 O 0.4867(8) -0.2195(7) 1.2442(6)
H38 H 0.4397 -0.2213 1.2701
C34 C 0.6430(15) -0.4254(12) 1.2074(10)
H39 H 0.6973 -0.4484 1.1820
H40 H 0.5846 -0.4539 1.1919
H41 H 0.6521 -0.4367 1.2557
loop_
_geom_bond_atom_site_label_1
_geom_bond_atom_site_label_2
_geom_bond_site_symmetry_1
_geom_bond_site_symmetry_2
Cd1 N1 1_555 1_555
O1 H1 1_555 1_555
C1 H2 1_555 1_555
O2 H3 1_555 1_555
N1 C7 1_555 1_555
C2 O1 1_555 1_555
H4 C2 1_555 1_555
C3 C2 1_555 1_555
H5 C3 1_555 1_555
C4 C1 1_555 1_555
C5 N2 1_555 1_555
C6 H6 1_555 1_555
C7 C19 1_555 1_555
N2 C11 1_555 1_555
C8 C2 1_555 1_555
C9 C5 1_555 1_555
C10 C8 1_555 1_555
H7 C10 1_555 1_555
C11 C10 1_555 1_555
H8 C11 1_555 1_555
C12 C6 1_555 1_555
H9 C12 1_555 1_555
N3 Cd1 1_555 1_555
C13 C9 1_555 1_555
H10 C13 1_555 1_555
C14 C5 1_555 1_555
H11 C14 1_555 1_555
C15 C12 1_555 1_555
H12 C15 1_555 1_555
H13 C15 1_555 1_555
C16 N3 1_555 1_555
H14 C16 1_555 1_555
H15 C16 1_555 1_555
C17 O2 1_555 1_555
H16 C17 1_555 1_555
C18 C13 1_555 1_555
C19 C4 1_555 1_555
C20 C3 1_555 1_555
H17 C20 1_555 1_555
H18 C20 1_555 1_555
C21 C1 1_555 1_555
H19 C21 1_555 1_555
C22 H20 1_555 1_555
C23 C19 1_555 1_555
H21 C23 1_555 1_555
O3 C18 1_555 1_555
C24 C14 1_555 1_555
H22 C24 1_555 1_555
C25 C7 1_555 1_555
H23 C25 1_555 1_555
O4 C26 1_555 1_555
C26 C22 1_555 1_555
C27 C6 1_555 1_555
H24 C27 1_555 1_555
H25 C27 1_555 1_555
C28 C6 1_555 1_555
O5 C28 1_555 1_555
O6 C28 1_555 1_555
C29 O3 1_555 1_555
H26 C29 1_555 1_555
H27 C29 1_555 1_555
H28 C29 1_555 1_555
C30 H29 1_555 1_555
C31 O4 1_555 1_555
H30 C31 1_555 1_555
H31 C31 1_555 1_555
H32 C31 1_555 1_555
C32 C30 1_555 1_555
H33 C32 1_555 1_555
H34 C32 1_555 1_555
H35 C32 1_555 1_555
C33 C30 1_555 1_555
H36 C33 1_555 1_555
H37 C33 1_555 1_555
O7 C30 1_555 1_555
H38 O7 1_555 1_555
C34 C33 1_555 1_555
H39 C34 1_555 1_555
H40 C34 1_555 1_555
H41 C34 1_555 1_555
C35 C17 1_555 1_555
H42 C35 1_555 1_555
C36 C35 1_555 1_555
H43 C36 1_555 1_555
H44 C36 1_555 1_555
N4 C35 1_555 1_555
C37 N4 1_555 1_555
H45 C37 1_555 1_555
H46 C37 1_555 1_555
C38 N4 1_555 1_555
H47 C38 1_555 1_555
H48 C38 1_555 1_555
C39 C38 1_555 1_555
H49 C39 1_555 1_555
H50 C39 1_555 1_555
C40 C36 1_555 1_555
H51 C40 1_555 1_555
C41 C37 1_555 1_555
H52 C41 1_555 1_555
C42 C41 1_555 1_555
O8 C42 1_555 1_555
O9 C42 1_555 1_555
O5C Cd1 1_555 1_555
O6C Cd1 1_555 1_555
O8A Cd1 1_555 1_555
O9A Cd1 1_555 1_555
Cd1C O5 1_555 1_555
Cd1A O8 1_555 1_555
N1 C21 1_555 1_555
C3 N3 1_555 1_555
C4 C17 1_555 1_555
C8 C9 1_555 1_555
C12 C20 1_555 1_555
N3 C27 1_555 1_555
C15 C16 1_555 1_555
C18 C24 1_555 1_555
C22 C25 1_555 1_555
C23 C26 1_555 1_555
O6 Cd1C 1_555 1_555
C39 C40 1_555 1_555
C40 C41 1_555 1_555
O9 Cd1A 1_555 1_555

#END
