
#######################################################################
#
#                 Cambridge Crystallographic Data Centre
#                                CCDC 
#
#######################################################################
#
# If this CIF has been generated from an entry in the Cambridge 
# Structural Database, then it will include bibliographic, chemical, 
# crystal, experimental, refinement or atomic coordinate data resulting 
# from the CCDC's data processing and validation procedures.
#
#######################################################################

data_MIHKEU
_symmetry_cell_setting           monoclinic
_symmetry_space_group_name_H-M   'P 21/n'
_symmetry_Int_Tables_number      14
_space_group_name_Hall           '-P 2yn'
loop_
_symmetry_equiv_pos_site_id
_symmetry_equiv_pos_as_xyz
1 x,y,z
2 1/2-x,1/2+y,1/2-z
3 -x,-y,-z
4 1/2+x,1/2-y,1/2+z
_cell_length_a                   9.0895(9)
_cell_length_b                   9.9518(10)
_cell_length_c                   15.1892(15)
_cell_angle_alpha                90
_cell_angle_beta                 98.945(2)
_cell_angle_gamma                90
_cell_volume                     1357.26
loop_
_atom_site_label
_atom_site_type_symbol
_atom_site_fract_x
_atom_site_fract_y
_atom_site_fract_z
C1 C 0.16056(15) 0.46456(14) 0.36694(9)
C2 C 0.32814(16) 0.61040(14) 0.34542(10)
C3 C 0.34330(15) 0.59158(14) 0.43454(9)
C4 C -0.10947(15) 0.13635(14) 0.64793(9)
C5 C -0.10850(17) 0.14557(16) 0.50283(9)
C6 C -0.21582(18) 0.06035(17) 0.52008(10)
C7 C 0.07455(14) 0.29351(14) 0.59750(9)
C8 C 0.14238(15) 0.33013(16) 0.68225(9)
C9 C 0.24726(16) 0.43182(16) 0.68776(9)
C10 C 0.28181(16) 0.49155(15) 0.61082(10)
C11 C 0.20749(15) 0.44355(14) 0.53045(9)
Cl1 Cl 0.06887(4) 0.73521(3) 0.12494(2)
Cl2 Cl -0.07008(4) 0.38450(4) 0.16558(2)
H1 H 0.0853 0.4027 0.3591
H2 H 0.3802 0.6720 0.3146
H3 H 0.4084 0.6342 0.4818
H4 H -0.0869 0.1545 0.7056
H5 H -0.0785 0.1687 0.4495
H6 H -0.2750 0.0078 0.4801
H7 H 0.1188 0.2891 0.7340
H8 H 0.2928 0.4627 0.7442
H9 H 0.3509 0.5640 0.6140
N1 N 0.23548(13) 0.49816(11) 0.44789(8)
N2 N 0.21292(13) 0.53102(11) 0.30331(8)
N3 N -0.21561(13) 0.05479(12) 0.61125(8)
N4 N -0.03963(13) 0.19375(12) 0.58442(7)
N5 N 0.10473(12) 0.34757(12) 0.52243(7)
Zn1 Zn 0.123292(17) 0.525324(16) 0.172940(10)
N3C N 0.28439(13) 0.44521(12) 0.11125(8)
Zn1C Zn -0.376708(17) -0.025324(16) 0.672940(10)
loop_
_geom_bond_atom_site_label_1
_geom_bond_atom_site_label_2
_geom_bond_site_symmetry_1
_geom_bond_site_symmetry_2
C1 H1 1_555 1_555
C2 C3 1_555 1_555
C3 H3 1_555 1_555
C4 H4 1_555 1_555
C5 C6 1_555 1_555
C6 H6 1_555 1_555
C7 C8 1_555 1_555
C8 C9 1_555 1_555
C9 C10 1_555 1_555
C10 C11 1_555 1_555
C11 N1 1_555 1_555
Cl1 Zn1 1_555 1_555
Cl2 Zn1 1_555 1_555
H2 C2 1_555 1_555
H5 C5 1_555 1_555
H7 C8 1_555 1_555
H8 C9 1_555 1_555
H9 C10 1_555 1_555
N1 C1 1_555 1_555
N2 C1 1_555 1_555
N3 C4 1_555 1_555
N4 C4 1_555 1_555
N5 C7 1_555 1_555
Zn1 N2 1_555 1_555
N3C Zn1 1_555 1_555
Zn1C N3 1_555 1_555
C2 N2 1_555 1_555
C3 N1 1_555 1_555
C5 N4 1_555 1_555
C6 N3 1_555 1_555
C7 N4 1_555 1_555
C11 N5 1_555 1_555

#END
