
#######################################################################
#
#                 Cambridge Crystallographic Data Centre
#                                CCDC 
#
#######################################################################
#
# If this CIF has been generated from an entry in the Cambridge 
# Structural Database, then it will include bibliographic, chemical, 
# crystal, experimental, refinement or atomic coordinate data resulting 
# from the CCDC's data processing and validation procedures.
#
#######################################################################

data_MIHKUL
_symmetry_cell_setting           triclinic
_symmetry_space_group_name_H-M   'P -1'
_symmetry_Int_Tables_number      2
_space_group_name_Hall           '-P 1'
loop_
_symmetry_equiv_pos_site_id
_symmetry_equiv_pos_as_xyz
1 x,y,z
2 -x,-y,-z
_cell_length_a                   8.0878(7)
_cell_length_b                   8.8044(8)
_cell_length_c                   11.3643(10)
_cell_angle_alpha                85.133(2)
_cell_angle_beta                 75.9090(10)
_cell_angle_gamma                87.445(2)
_cell_volume                     781.812
loop_
_atom_site_label
_atom_site_type_symbol
_atom_site_fract_x
_atom_site_fract_y
_atom_site_fract_z
Cu1 Cu -0.10123(4) 0.62797(3) 0.41819(3)
O1 O 0.2779(3) 1.1570(2) 0.61598(19)
N1 N 0.0906(3) 0.7747(3) 0.41524(19)
C1 C 0.1973(4) 0.8221(4) 0.3101(3)
H1 H 0.1904 0.7784 0.2397
Cu2 Cu -0.5000 0.5000 0.5000
O2 O -0.1740(2) 0.6362(2) 0.59794(16)
N2 N 0.1800(3) 0.9457(3) 0.7328(2)
H2 H 0.1569 0.8509 0.7351
C2 C 0.3165(4) 0.9318(4) 0.3006(3)
H3 H 0.3869 0.9620 0.2253
O3 O -0.4501(3) 0.5787(3) 0.64295(19)
C3 C 0.3308(4) 0.9969(3) 0.4042(3)
H4 H 0.4090 1.0727 0.3998
O4 O -0.0230(2) 0.4204(2) 0.74790(16)
C4 C 0.2250(3) 0.9458(3) 0.5149(2)
O5 O 0.0989(2) 0.6265(2) 0.78899(18)
C5 C 0.1079(3) 0.8351(3) 0.5165(2)
H5 H 0.0381 0.8009 0.5909
O6 O -0.2685(2) 0.4837(2) 0.42346(17)
C6 C 0.2306(3) 1.0245(3) 0.6265(3)
C7 C 0.1632(5) 1.0182(4) 0.8463(3)
H6 H 0.1520 1.1278 0.8310
H7 H 0.2656 0.9970 0.8756
C8 C 0.0127(5) 0.9626(4) 0.9413(3)
H8 H 0.0260 0.8533 0.9575
H9 H -0.0886 0.9808 0.9103
C9 C -0.3168(3) 0.6125(3) 0.6701(2)
C10 C -0.3342(3) 0.6342(3) 0.8027(2)
C11 C -0.4927(4) 0.6840(4) 0.8706(3)
H10 H -0.5831 0.7019 0.8335
C12 C -0.5156(4) 0.7067(4) 0.9921(3)
H11 H -0.6209 0.7416 1.0361
C13 C -0.3838(4) 0.6779(4) 1.0487(3)
H12 H -0.4005 0.6918 1.1311
C14 C -0.2263(4) 0.6283(3) 0.9827(2)
H13 H -0.1374 0.6095 1.0211
C15 C -0.1994(3) 0.6062(3) 0.8595(2)
C16 C -0.0266(3) 0.5492(3) 0.7928(2)
O1A O -0.2779(3) 0.8430(2) 1.38402(19)
N1A N -0.0906(3) 1.2253(3) 1.58476(19)
C1A C -0.1973(4) 1.1779(4) 1.6899(3)
H1A H -0.1904 1.2216 1.7603
N2A N -0.1800(3) 1.0543(3) 1.2672(2)
H2A H -0.1569 1.1491 1.2649
C2A C -0.3165(4) 1.0682(4) 1.6994(3)
H3A H -0.3869 1.0380 1.7747
C3A C -0.3308(4) 1.0031(3) 1.5958(3)
H4A H -0.4090 0.9273 1.6002
C4A C -0.2250(3) 1.0542(3) 1.4851(2)
C5A C -0.1079(3) 1.1649(3) 1.4835(2)
H5A H -0.0381 1.1991 1.4091
C6A C -0.2306(3) 0.9755(3) 1.3735(3)
C7A C -0.1632(5) 0.9818(4) 1.1537(3)
H6A H -0.1520 0.8722 1.1690
H7A H -0.2656 1.0030 1.1244
C8A C -0.0127(5) 1.0374(4) 1.0587(3)
H8A H -0.0260 1.1467 1.0425
H9A H 0.0886 1.0192 1.0897
Cu1A Cu -0.89877(4) 0.37203(3) 0.58181(3)
O2A O -0.8260(2) 0.3638(2) 0.40206(16)
O3A O -0.5499(3) 0.4213(3) 0.35705(19)
O4A O -0.9770(2) 0.5796(2) 0.25210(16)
O5A O -1.0989(2) 0.3735(2) 0.21101(18)
O6A O -0.7315(2) 0.5163(2) 0.57654(17)
C9A C -0.6832(3) 0.3875(3) 0.3299(2)
C10A C -0.6658(3) 0.3658(3) 0.1973(2)
C11A C -0.5073(4) 0.3160(4) 0.1294(3)
H10A H -0.4169 0.2981 0.1665
C12A C -0.4844(4) 0.2933(4) 0.0079(3)
H11A H -0.3791 0.2584 -0.0361
C13A C -0.6162(4) 0.3221(4) -0.0487(3)
H12A H -0.5995 0.3082 -0.1311
C14A C -0.7737(4) 0.3717(3) 0.0173(2)
H13A H -0.8626 0.3905 -0.0211
C15A C -0.8006(3) 0.3938(3) 0.1405(2)
C16A C -0.9734(3) 0.4508(3) 0.2072(2)
Cu1_2 Cu -1.10123(4) 0.62797(3) 0.41819(3)
Cu1_3 Cu -0.10123(4) 0.62797(3) 1.41819(3)
Cu1A_2 Cu 0.10123(4) 0.37203(3) 0.58181(3)
Cu1A_3 Cu 0.10123(4) 1.37203(3) 0.58181(3)
Cu1A_4 Cu 0.10123(4) 1.37203(3) 1.58181(3)
O1_2 O -0.7221(3) 0.1570(2) 0.61598(19)
O1A_2 O -0.2779(3) 0.8430(2) 0.38402(19)
N1A_2 N -1.0906(3) 0.2253(3) 0.58476(19)
O4_2 O -1.0230(2) 0.4204(2) 0.74790(16)
O4A_2 O 0.0230(2) 0.5796(2) 0.25210(16)
loop_
_geom_bond_atom_site_label_1
_geom_bond_atom_site_label_2
_geom_bond_site_symmetry_1
_geom_bond_site_symmetry_2
Cu1 N1 1_555 1_555
O1 C6 1_555 1_555
N1 C1 1_555 1_555
C1 H1 1_555 1_555
Cu2 O3 1_555 1_555
O2 Cu1 1_555 1_555
N2 H2 1_555 1_555
C2 C1 1_555 1_555
H3 C2 1_555 1_555
O3 C9 1_555 1_555
C3 C2 1_555 1_555
H4 C3 1_555 1_555
O4 C16 1_555 1_555
C4 C3 1_555 1_555
O5 C16 1_555 1_555
C5 N1 1_555 1_555
H5 C5 1_555 1_555
O6 Cu1 1_555 1_555
C6 N2 1_555 1_555
C7 N2 1_555 1_555
H6 C7 1_555 1_555
H7 C7 1_555 1_555
C8 C7 1_555 1_555
H8 C8 1_555 1_555
H9 C8 1_555 1_555
C9 O2 1_555 1_555
C10 C9 1_555 1_555
C11 C10 1_555 1_555
H10 C11 1_555 1_555
C12 C11 1_555 1_555
H11 C12 1_555 1_555
C13 C12 1_555 1_555
H12 C13 1_555 1_555
C14 C13 1_555 1_555
H13 C14 1_555 1_555
C15 C10 1_555 1_555
C16 C15 1_555 1_555
O1A C6A 1_555 1_555
N1A C1A 1_555 1_555
C1A H1A 1_555 1_555
N2A H2A 1_555 1_555
C2A C1A 1_555 1_555
H3A C2A 1_555 1_555
C3A C2A 1_555 1_555
H4A C3A 1_555 1_555
C4A C3A 1_555 1_555
C5A N1A 1_555 1_555
H5A C5A 1_555 1_555
C6A N2A 1_555 1_555
C7A N2A 1_555 1_555
H6A C7A 1_555 1_555
H7A C7A 1_555 1_555
C8A C8 1_555 1_555
H8A C8A 1_555 1_555
H9A C8A 1_555 1_555
Cu1A O2A 1_555 1_555
O2A C9A 1_555 1_555
O3A Cu2 1_555 1_555
O4A C16A 1_555 1_555
O5A C16A 1_555 1_555
O6A Cu2 1_555 1_555
C9A O3A 1_555 1_555
C10A C9A 1_555 1_555
C11A C10A 1_555 1_555
H10A C11A 1_555 1_555
C12A C11A 1_555 1_555
H11A C12A 1_555 1_555
C13A C12A 1_555 1_555
H12A C13A 1_555 1_555
C14A C13A 1_555 1_555
H13A C14A 1_555 1_555
C15A C10A 1_555 1_555
C16A C15A 1_555 1_555
Cu1_2 O4A 1_555 1_555
Cu1_3 O1A 1_555 1_555
Cu1A_2 O4 1_555 1_555
Cu1A_3 O1 1_555 1_555
Cu1A_4 N1A 1_555 1_555
O1_2 Cu1A 1_555 1_555
O1A_2 Cu1 1_555 1_555
N1A_2 Cu1A 1_555 1_555
O4_2 Cu1A 1_555 1_555
O4A_2 Cu1 1_555 1_555
Cu2 O6 1_555 1_555
C4 C5 1_555 1_555
C4 C6 1_555 1_555
C14 C15 1_555 1_555
C4A C5A 1_555 1_555
C4A C6A 1_555 1_555
C7A C8A 1_555 1_555
Cu1A O6A 1_555 1_555
C14A C15A 1_555 1_555

#END
