
#######################################################################
#
#                 Cambridge Crystallographic Data Centre
#                                CCDC 
#
#######################################################################
#
# If this CIF has been generated from an entry in the Cambridge 
# Structural Database, then it will include bibliographic, chemical, 
# crystal, experimental, refinement or atomic coordinate data resulting 
# from the CCDC's data processing and validation procedures.
#
#######################################################################

data_MIHKUK
_symmetry_cell_setting           trigonal
_symmetry_space_group_name_H-M   'P 32 2 1'
_symmetry_Int_Tables_number      154
_space_group_name_Hall           'P 32 2"'
loop_
_symmetry_equiv_pos_site_id
_symmetry_equiv_pos_as_xyz
1 x,y,z
2 -y,x-y,2/3+z
3 -x+y,-x,1/3+z
4 y,x,-z
5 x-y,-y,1/3-z
6 -x,-x+y,2/3-z
_cell_length_a                   9.61160(10)
_cell_length_b                   9.61160(10)
_cell_length_c                   25.2776(6)
_cell_angle_alpha                90
_cell_angle_beta                 90
_cell_angle_gamma                120
_cell_volume                     2022.36
loop_
_atom_site_label
_atom_site_type_symbol
_atom_site_fract_x
_atom_site_fract_y
_atom_site_fract_z
C1 C 1.3129(3) 1.4641(3) 0.27230(9)
C2 C 1.1851(3) 1.5819(4) 0.30176(10)
C3 C 1.1041(3) 1.4966(3) 0.25879(10)
C4 C 0.6982(3) 1.0079(3) 0.08269(9)
C5 C 0.6980(3) 1.1937(3) 0.13480(9)
C6 C 0.5554(3) 1.1095(3) 0.11052(10)
C7 C 0.9493(3) 1.1795(3) 0.13374(9)
C8 C 1.0460(3) 1.1361(4) 0.10633(10)
C9 C 1.1971(4) 1.1878(4) 0.12630(12)
C10 C 1.2492(3) 1.2827(4) 0.17153(10)
C11 C 1.1423(3) 1.3203(3) 0.19449(9)
Cl1 Cl 1.72416(9) 1.79840(9) 0.35939(2)
Cl2 Cl 1.35424(8) 1.75815(8) 0.42441(2)
N1 N 1.1856(2) 1.4221(3) 0.23984(8)
N2 N 1.3161(3) 1.5599(3) 0.31028(7)
N3 N 0.5548(3) 0.9934(3) 0.07777(8)
N4 N 0.7902(2) 1.1298(3) 0.11734(7)
N5 N 0.9944(2) 1.2705(2) 0.17711(8)
Zn1 Zn 1.46071(3) 1.64149(3) 0.373940(10)
H1 H 1.3856 1.4317 0.2638
H2 H 1.1600 1.6399 0.3261
H3 H 1.0095 1.4748 0.2417
H4 H 0.7407 0.9355 0.0655
H5 H 0.7424 1.2851 0.1597
H6 H 0.4582 1.1286 0.1081
H7 H 1.0196 1.0926 0.0735
H8 H 1.2722 1.1625 0.1109
H9 H 1.3462 1.3127 0.1852
N3B N 1.4386(4) 1.4452(3) 0.41110(8)
Zn1A Zn 0.35851(3) 0.81922(4) 0.040607(10)
O1 O 0.8466(8) 0.8466(8) 0.0000
loop_
_geom_bond_atom_site_label_1
_geom_bond_atom_site_label_2
_geom_bond_site_symmetry_1
_geom_bond_site_symmetry_2
C1 N1 1_555 1_555
C2 C3 1_555 1_555
C3 N1 1_555 1_555
C4 N3 1_555 1_555
C5 C6 1_555 1_555
C6 N3 1_555 1_555
C7 C8 1_555 1_555
C8 C9 1_555 1_555
C9 C10 1_555 1_555
C10 C11 1_555 1_555
C11 N1 1_555 1_555
Cl1 Zn1 1_555 1_555
Cl2 Zn1 1_555 1_555
N2 C1 1_555 1_555
N3 Zn1A 1_555 1_555
N4 C4 1_555 1_555
N5 C7 1_555 1_555
Zn1 N2 1_555 1_555
H1 C1 1_555 1_555
H2 C2 1_555 1_555
H3 C3 1_555 1_555
H4 C4 1_555 1_555
H5 C5 1_555 1_555
H6 C6 1_555 1_555
H7 C8 1_555 1_555
H8 C9 1_555 1_555
H9 C10 1_555 1_555
N3B Zn1 1_555 1_555
C2 N2 1_555 1_555
C5 N4 1_555 1_555
C7 N4 1_555 1_555
C11 N5 1_555 1_555

#END
