
#######################################################################
#
#                 Cambridge Crystallographic Data Centre
#                                CCDC 
#
#######################################################################
#
# If this CIF has been generated from an entry in the Cambridge 
# Structural Database, then it will include bibliographic, chemical, 
# crystal, experimental, refinement or atomic coordinate data resulting 
# from the CCDC's data processing and validation procedures.
#
#######################################################################

data_MIHKOF
_symmetry_cell_setting           triclinic
_symmetry_space_group_name_H-M   'P -1'
_symmetry_Int_Tables_number      2
_space_group_name_Hall           '-P 1'
loop_
_symmetry_equiv_pos_site_id
_symmetry_equiv_pos_as_xyz
1 x,y,z
2 -x,-y,-z
_cell_length_a                   5.9159(12)
_cell_length_b                   11.620(2)
_cell_length_c                   12.661(3)
_cell_angle_alpha                74.184(4)
_cell_angle_beta                 80.552(4)
_cell_angle_gamma                81.929(4)
_cell_volume                     821.836
loop_
_atom_site_label
_atom_site_type_symbol
_atom_site_fract_x
_atom_site_fract_y
_atom_site_fract_z
Cu1 Cu 0.42449(8) 0.10794(4) 0.53012(4)
O1 O 0.6622(4) 0.1621(2) 0.4065(2)
N1 N 0.2056(5) 0.2518(3) 0.4788(2)
C1 C 0.8070(6) 0.0984(3) 0.3550(3)
O2 O 0.8166(4) -0.0142(2) 0.3697(2)
C2 C 0.9715(6) 0.1670(3) 0.2633(3)
O3 O 1.4020(6) -0.0720(3) 0.2482(3)
N2 N 0.0890(6) 0.6364(3) 0.2156(3)
C3 C 0.8891(7) 0.2809(4) 0.2036(3)
H1 H 0.7392 0.3119 0.2234
O4 O 1.3359(4) 0.0014(2) 0.3967(2)
C4 C 1.0243(8) 0.3479(4) 0.1167(4)
H2 H 0.9658 0.4235 0.0783
C5 C 1.2478(8) 0.3033(4) 0.0861(4)
H3 H 1.3408 0.3488 0.0276
C6 C 1.3312(7) 0.1903(4) 0.1435(3)
H4 H 1.4801 0.1596 0.1217
C7 C 1.1979(6) 0.1212(3) 0.2331(3)
C8 C 1.3172(6) 0.0055(4) 0.2960(3)
O5 O 0.4352(5) 0.5257(3) 0.2190(3)
C9 C -0.0115(7) 0.2615(3) 0.5282(3)
H5 H -0.0592 0.2001 0.5889
C10 C -0.1667(7) 0.3585(4) 0.4926(3)
H6 H -0.3167 0.3621 0.5288
C11 C -0.0994(7) 0.4503(4) 0.4032(3)
H7 H -0.2035 0.5159 0.3776
C12 C 0.1271(7) 0.4435(3) 0.3518(3)
C13 C 0.2707(7) 0.3430(3) 0.3917(3)
H8 H 0.4215 0.3374 0.3569
C14 C 0.2285(8) 0.5390(4) 0.2549(3)
C15 C 0.1727(8) 0.7331(4) 0.1207(3)
H9 H 0.1992 0.7049 0.0539
H10 H 0.3180 0.7538 0.1327
C16 C 0.0007(8) 0.8432(4) 0.1059(3)
H11 H -0.0260 0.8711 0.1729
H12 H -0.1445 0.8223 0.0940
C17 C 0.0844(7) 0.9439(3) 0.0085(3)
H13 H 0.2301 0.9640 0.0206
H14 H 0.1112 0.9156 -0.0582
N1A N -0.2056(5) 1.7482(3) -0.4788(2)
N2A N -0.0890(6) 1.3636(3) -0.2156(3)
O5A O -0.4352(5) 1.4743(3) -0.2190(3)
C9A C 0.0115(7) 1.7385(3) -0.5282(3)
H5A H 0.0592 1.7999 -0.5889
C10A C 0.1667(7) 1.6415(4) -0.4926(3)
H6A H 0.3167 1.6379 -0.5288
C11A C 0.0994(7) 1.5497(4) -0.4032(3)
H7A H 0.2035 1.4841 -0.3776
C12A C -0.1271(7) 1.5565(3) -0.3518(3)
C13A C -0.2707(7) 1.6570(3) -0.3917(3)
H8A H -0.4215 1.6626 -0.3569
C14A C -0.2285(8) 1.4610(4) -0.2549(3)
C15A C -0.1727(8) 1.2669(4) -0.1207(3)
H9A H -0.1992 1.2951 -0.0539
H10A H -0.3180 1.2462 -0.1327
C16A C -0.0007(8) 1.1568(4) -0.1059(3)
H11A H 0.0260 1.1289 -0.1729
H12A H 0.1445 1.1777 -0.0940
C17A C -0.0844(7) 1.0561(3) -0.0085(3)
H13A H -0.2301 1.0360 -0.0206
H14A H -0.1112 1.0844 0.0582
Cu1A Cu -0.42449(8) 1.89206(4) -0.53012(4)
O1A O -0.6622(4) 1.8379(2) -0.4065(2)
C1A C -0.8070(6) 1.9016(3) -0.3550(3)
O2A O -0.8166(4) 2.0142(2) -0.3697(2)
C2A C -0.9715(6) 1.8330(3) -0.2633(3)
O3A O -1.4020(6) 2.0720(3) -0.2482(3)
C3A C -0.8891(7) 1.7191(4) -0.2036(3)
H1A H -0.7392 1.6881 -0.2234
O4A O -1.3359(4) 1.9986(2) -0.3967(2)
C4A C -1.0243(8) 1.6521(4) -0.1167(4)
H2A H -0.9658 1.5765 -0.0783
C5A C -1.2478(8) 1.6967(4) -0.0861(4)
H3A H -1.3408 1.6512 -0.0276
C6A C -1.3312(7) 1.8097(4) -0.1435(3)
H4A H -1.4801 1.8404 -0.1217
C7A C -1.1979(6) 1.8788(3) -0.2331(3)
C8A C -1.3172(6) 1.9945(4) -0.2960(3)
Cu1_2 Cu -1.57551(8) 2.10794(4) -0.46988(4)
Cu1_3 Cu -0.57551(8) 2.10794(4) -0.46988(4)
Cu1_4 Cu 1.42449(8) 0.10794(4) 0.53012(4)
Cu1A_2 Cu -1.42449(8) 1.89206(4) -0.53012(4)
Cu1A_3 Cu 0.57551(8) -0.10794(4) 0.46988(4)
Cu1A_4 Cu 1.57551(8) -0.10794(4) 0.46988(4)
O2_2 O -0.1834(4) 1.9858(2) -0.6303(2)
O2A_2 O 0.1834(4) 0.0142(2) 0.6303(2)
O4_2 O -0.6641(4) 2.0014(2) -0.6033(2)
O4_3 O 0.3359(4) 0.0014(2) 0.3967(2)
O4A_2 O -0.3359(4) 1.9986(2) -0.3967(2)
O4A_3 O 0.6641(4) -0.0014(2) 0.6033(2)
O6 O 0.6114(6) 0.6982(3) 0.2992(3)
H15 H 0.5770 0.6614 0.2516
H16 H 0.5426 0.7671 0.2834
loop_
_geom_bond_atom_site_label_1
_geom_bond_atom_site_label_2
_geom_bond_site_symmetry_1
_geom_bond_site_symmetry_2
Cu1 O1 1_555 1_555
O1 C1 1_555 1_555
N1 Cu1 1_555 1_555
C1 O2 1_555 1_555
O2 Cu1A_3 1_555 1_555
C2 C1 1_555 1_555
O3 C8 1_555 1_555
N2 C14 1_555 1_555
C3 C2 1_555 1_555
H1 C3 1_555 1_555
O4 C8 1_555 1_555
C4 C3 1_555 1_555
H2 C4 1_555 1_555
C5 C4 1_555 1_555
H3 C5 1_555 1_555
C6 C5 1_555 1_555
H4 C6 1_555 1_555
C7 C2 1_555 1_555
C8 C7 1_555 1_555
O5 C14 1_555 1_555
C9 N1 1_555 1_555
H5 C9 1_555 1_555
C10 C9 1_555 1_555
H6 C10 1_555 1_555
C11 C10 1_555 1_555
H7 C11 1_555 1_555
C12 C11 1_555 1_555
C13 N1 1_555 1_555
H8 C13 1_555 1_555
C14 C12 1_555 1_555
C15 N2 1_555 1_555
H9 C15 1_555 1_555
H10 C15 1_555 1_555
C16 C15 1_555 1_555
H11 C16 1_555 1_555
H12 C16 1_555 1_555
C17 C16 1_555 1_555
H13 C17 1_555 1_555
H14 C17 1_555 1_555
O6 H15 1_555 1_555
H16 O6 1_555 1_555
N1A C9A 1_555 1_555
N2A C14A 1_555 1_555
O5A C14A 1_555 1_555
C9A H5A 1_555 1_555
C10A C9A 1_555 1_555
H6A C10A 1_555 1_555
C11A C10A 1_555 1_555
H7A C11A 1_555 1_555
C12A C11A 1_555 1_555
C13A N1A 1_555 1_555
H8A C13A 1_555 1_555
C14A C12A 1_555 1_555
C15A N2A 1_555 1_555
H9A C15A 1_555 1_555
H10A C15A 1_555 1_555
C16A C15A 1_555 1_555
H11A C16A 1_555 1_555
H12A C16A 1_555 1_555
C17A C17 1_555 1_555
H13A C17A 1_555 1_555
H14A C17A 1_555 1_555
Cu1A N1A 1_555 1_555
O1A Cu1A 1_555 1_555
C1A O1A 1_555 1_555
O2A C1A 1_555 1_555
C2A C1A 1_555 1_555
O3A C8A 1_555 1_555
C3A C2A 1_555 1_555
H1A C3A 1_555 1_555
O4A C8A 1_555 1_555
C4A C3A 1_555 1_555
H2A C4A 1_555 1_555
C5A C4A 1_555 1_555
H3A C5A 1_555 1_555
C6A C5A 1_555 1_555
H4A C6A 1_555 1_555
C7A C2A 1_555 1_555
C8A C7A 1_555 1_555
Cu1_2 O4A 1_555 1_555
Cu1_3 O2A 1_555 1_555
Cu1_4 O4 1_555 1_555
Cu1A_2 O4A 1_555 1_555
Cu1A_3 O4_3 1_555 1_555
Cu1A_4 O4 1_555 1_555
O2_2 Cu1A 1_555 1_555
O2A_2 Cu1 1_555 1_555
O4_2 Cu1A 1_555 1_555
O4_3 Cu1 1_555 1_555
O4A_2 Cu1A 1_555 1_555
O4A_3 Cu1 1_555 1_555
C6 C7 1_555 1_555
C12 C13 1_555 1_555
C12A C13A 1_555 1_555
C16A C17A 1_555 1_555
C6A C7A 1_555 1_555
Cu1_3 O4_2 1_555 1_555
Cu1_3 O4A_2 1_555 1_555
Cu1A_3 O4A_3 1_555 1_555

#END
