
#######################################################################
#
#                 Cambridge Crystallographic Data Centre
#                                CCDC 
#
#######################################################################
#
# If this CIF has been generated from an entry in the Cambridge 
# Structural Database, then it will include bibliographic, chemical, 
# crystal, experimental, refinement or atomic coordinate data resulting 
# from the CCDC's data processing and validation procedures.
#
#######################################################################

data_MIHKOE
_symmetry_cell_setting           trigonal
_symmetry_space_group_name_H-M   'P 32 2 1'
_symmetry_Int_Tables_number      154
_space_group_name_Hall           'P 32 2"'
loop_
_symmetry_equiv_pos_site_id
_symmetry_equiv_pos_as_xyz
1 x,y,z
2 -y,x-y,2/3+z
3 -x+y,-x,1/3+z
4 y,x,-z
5 x-y,-y,1/3-z
6 -x,-x+y,2/3-z
_cell_length_a                   9.7240(5)
_cell_length_b                   9.7240(5)
_cell_length_c                   25.710(3)
_cell_angle_alpha                90
_cell_angle_beta                 90
_cell_angle_gamma                120
_cell_volume                     2105.34
loop_
_atom_site_label
_atom_site_type_symbol
_atom_site_fract_x
_atom_site_fract_y
_atom_site_fract_z
Br1 Br 0.75397(3) 0.34182(3) 0.074535(10)
Br2 Br 0.78436(3) 0.72268(3) 0.144708(11)
C1 C 0.2930(3) 0.2963(3) 0.08239(9)
C2 C 0.4307(3) 0.5415(3) 0.05956(11)
C3 C 0.2908(3) 0.4835(3) 0.03501(11)
C4 C -0.3029(3) 0.1466(3) -0.10717(10)
C5 C -0.1028(3) 0.3878(3) -0.08975(11)
C6 C -0.1803(3) 0.3914(3) -0.13284(11)
C7 C -0.1418(3) 0.1701(3) -0.02873(9)
C8 C -0.2479(4) 0.0242(3) -0.00774(11)
C9 C -0.1986(4) -0.0202(3) 0.03657(12)
C10 C -0.0508(3) 0.0778(3) 0.05772(10)
C11 C 0.0459(3) 0.2190(3) 0.03214(9)
N1 N 0.2022(2) 0.3271(2) 0.04962(8)
N2 N 0.4320(2) 0.4234(2) 0.08936(8)
N3 N -0.3046(3) 0.2411(3) -0.14368(8)
N4 N -0.1816(2) 0.2307(2) -0.07336(8)
N5 N 0.0034(2) 0.2664(2) -0.01066(8)
Zn1 Zn 0.62568(3) 0.44701(3) 0.126894(11)
H1 H 0.2613 0.1971 0.0963
H2 H 0.5230 0.6369 0.0589
H3 H 0.2516 0.5229 0.0117
H4 H -0.3686 0.0415 -0.1054
H5 H -0.0159 0.4571 -0.0716
H6 H -0.1529 0.4715 -0.1536
H7 H -0.3473 -0.0361 -0.0209
H8 H -0.2563 -0.1266 0.0478
H9 H -0.0167 0.0562 0.0876
N3B N 0.5457(4) 0.3046(3) 0.18965(8)
Zn1A Zn -0.44701(3) 0.17867(4) -0.206439(11)
O1 O -0.1506(13) -0.1506(13) 0.5000
loop_
_geom_bond_atom_site_label_1
_geom_bond_atom_site_label_2
_geom_bond_site_symmetry_1
_geom_bond_site_symmetry_2
Br1 Zn1 1_555 1_555
Br2 Zn1 1_555 1_555
C1 N1 1_555 1_555
C2 C3 1_555 1_555
C3 N1 1_555 1_555
C4 N3 1_555 1_555
C5 C6 1_555 1_555
C6 N3 1_555 1_555
C7 C8 1_555 1_555
C8 C9 1_555 1_555
C9 C10 1_555 1_555
C10 C11 1_555 1_555
C11 N1 1_555 1_555
N2 C1 1_555 1_555
N3 Zn1A 1_555 1_555
N4 C4 1_555 1_555
N5 C7 1_555 1_555
Zn1 N2 1_555 1_555
H1 C1 1_555 1_555
H2 C2 1_555 1_555
H3 C3 1_555 1_555
H4 C4 1_555 1_555
H5 C5 1_555 1_555
H6 C6 1_555 1_555
H7 C8 1_555 1_555
H8 C9 1_555 1_555
H9 C10 1_555 1_555
N3B Zn1 1_555 1_555
C2 N2 1_555 1_555
C5 N4 1_555 1_555
C7 N4 1_555 1_555
C11 N5 1_555 1_555

#END
