
#######################################################################
#
#                 Cambridge Crystallographic Data Centre
#                                CCDC 
#
#######################################################################
#
# If this CIF has been generated from an entry in the Cambridge 
# Structural Database, then it will include bibliographic, chemical, 
# crystal, experimental, refinement or atomic coordinate data resulting 
# from the CCDC's data processing and validation procedures.
#
#######################################################################

data_MIHKEU01
_symmetry_cell_setting           orthorhombic
_symmetry_space_group_name_H-M   'P b c a'
_symmetry_Int_Tables_number      61
_space_group_name_Hall           '-P 2ac 2ab'
loop_
_symmetry_equiv_pos_site_id
_symmetry_equiv_pos_as_xyz
1 x,y,z
2 1/2-x,-y,1/2+z
3 -x,1/2+y,1/2-z
4 1/2+x,1/2-y,-z
5 -x,-y,-z
6 1/2+x,y,1/2-z
7 x,1/2-y,1/2+z
8 1/2-x,1/2+y,z
_cell_length_a                   9.4515(5)
_cell_length_b                   14.2276(8)
_cell_length_c                   20.1329(11)
_cell_angle_alpha                90
_cell_angle_beta                 90
_cell_angle_gamma                90
_cell_volume                     2707.31
loop_
_atom_site_label
_atom_site_type_symbol
_atom_site_fract_x
_atom_site_fract_y
_atom_site_fract_z
C1 C -0.12461(15) 0.39064(10) 0.63315(8)
H1 H -0.1177 0.3640 0.5900
C2 C -0.19239(18) 0.42052(11) 0.73347(8)
H2 H -0.2438 0.4176 0.7740
C3 C -0.08014(18) 0.47719(11) 0.72170(8)
H3 H -0.0394 0.5214 0.7515
C4 C 0.15922(16) 0.36016(11) 0.44870(8)
H4 H 0.0813 0.3344 0.4722
C5 C 0.34074(17) 0.45103(11) 0.42199(8)
H5 H 0.4109 0.4988 0.4226
C6 C 0.32294(17) 0.38365(11) 0.37537(8)
H6 H 0.3800 0.3759 0.3369
C7 C 0.20844(16) 0.48867(10) 0.52735(7)
C8 C 0.28428(16) 0.56943(11) 0.54247(8)
H7 H 0.3553 0.5931 0.5135
C9 C 0.25163(18) 0.61396(11) 0.60172(8)
H8 H 0.3014 0.6692 0.6143
C10 C 0.14669(17) 0.57831(11) 0.64277(8)
H9 H 0.1238 0.6073 0.6839
C11 C 0.07675(15) 0.49831(10) 0.62086(7)
Cl1 Cl 0.06044(4) 0.27328(3) 0.236426(19)
Cl2 Cl -0.04635(4) 0.16482(3) 0.40675(2)
N1 N 0.23519(13) 0.43591(9) 0.46873(6)
N2 N 0.20823(14) 0.32754(9) 0.39241(6)
N3 N -0.22069(14) 0.36751(9) 0.67755(6)
N4 N -0.03678(13) 0.45771(9) 0.65742(6)
N5 N 0.10559(13) 0.45371(9) 0.56473(6)
Zn1 Zn 0.118771(19) 0.223154(12) 0.337591(9)
N3C N 0.27931(14) 0.13249(9) 0.32245(6)
Zn1C Zn -0.381229(19) 0.276846(12) 0.662409(9)
loop_
_geom_bond_atom_site_label_1
_geom_bond_atom_site_label_2
_geom_bond_site_symmetry_1
_geom_bond_site_symmetry_2
C1 H1 1_555 1_555
C2 H2 1_555 1_555
C3 C2 1_555 1_555
H3 C3 1_555 1_555
C4 H4 1_555 1_555
C5 H5 1_555 1_555
C6 C5 1_555 1_555
H6 C6 1_555 1_555
C7 C8 1_555 1_555
C8 H7 1_555 1_555
C9 C8 1_555 1_555
H8 C9 1_555 1_555
C10 C9 1_555 1_555
H9 C10 1_555 1_555
C11 C10 1_555 1_555
Cl1 Zn1 1_555 1_555
Cl2 Zn1 1_555 1_555
N1 C4 1_555 1_555
N2 C4 1_555 1_555
N3 C1 1_555 1_555
N4 C1 1_555 1_555
N5 C7 1_555 1_555
Zn1 N2 1_555 1_555
N3C Zn1 1_555 1_555
Zn1C N3 1_555 1_555
C2 N3 1_555 1_555
C3 N4 1_555 1_555
C5 N1 1_555 1_555
C6 N2 1_555 1_555
C7 N1 1_555 1_555
C11 N4 1_555 1_555
C11 N5 1_555 1_555

#END
