
#######################################################################
#
#                 Cambridge Crystallographic Data Centre
#                                CCDC 
#
#######################################################################
#
# If this CIF has been generated from an entry in the Cambridge 
# Structural Database, then it will include bibliographic, chemical, 
# crystal, experimental, refinement or atomic coordinate data resulting 
# from the CCDC's data processing and validation procedures.
#
#######################################################################

data_MIHKIZ
_symmetry_cell_setting           triclinic
_symmetry_space_group_name_H-M   'P -1'
_symmetry_Int_Tables_number      2
_space_group_name_Hall           '-P 1'
loop_
_symmetry_equiv_pos_site_id
_symmetry_equiv_pos_as_xyz
1 x,y,z
2 -x,-y,-z
_cell_length_a                   9.8528(6)
_cell_length_b                   13.4639(8)
_cell_length_c                   14.2272(10)
_cell_angle_alpha                92.229(5)
_cell_angle_beta                 90.403(5)
_cell_angle_gamma                96.000(5)
_cell_volume                     1875.46
loop_
_atom_site_label
_atom_site_type_symbol
_atom_site_fract_x
_atom_site_fract_y
_atom_site_fract_z
Gd1 Gd 0.74812(2) 0.493301(17) 0.487944(18)
O1 O 0.9688(8) 0.7023(6) 0.9173(6)
O2 O 0.9243(8) 0.5692(6) 0.8523(8)
O3 O 0.5866(4) 0.5390(3) 0.5966(3)
O4 O 0.3910(4) 0.6008(3) 0.6274(3)
O5 O 0.5043(8) 0.0455(6) 0.8976(6)
O6 O 0.4685(8) 0.0564(5) 0.7569(6)
O7 O 0.6564(4) 0.3418(3) 0.5779(3)
O8 O 0.8341(4) 0.4352(2) 0.6391(3)
O9 O 1.1802(10) 0.0138(6) 0.1740(6)
O10 O 1.2607(9) 0.0529(6) 0.3069(7)
O11 O 0.9022(4) 0.3805(3) 0.4506(3)
O12 O 1.1238(4) 0.3663(3) 0.4442(3)
O13 O 0.8773(4) 0.5548(4) 0.3540(3)
H1 H 0.9610(11) 0.559(5) 0.3543(19)
H2 H 0.841(2) 0.553(5) 0.3013(11)
O14 O 0.6363(4) 0.6264(3) 0.4162(3)
H3 H 0.676(6) 0.683(2) 0.410(5)
H4 H 0.553(5) 0.622(4) 0.405(5)
N1 N 0.8919(6) 0.6439(5) 0.8754(5)
N2 N 0.5271(7) 0.0865(5) 0.8276(6)
N3 N 1.1728(8) 0.0541(5) 0.2493(5)
C1 C 0.7555(10) 0.8015(6) 0.9846(6)
H5 H 0.7702 0.7556 1.0327
H6 H 0.6930 0.8471 1.0069
H7 H 0.8408 0.8383 0.9695
C2 C 0.6958(7) 0.7436(5) 0.8969(5)
C3 C 0.7571(6) 0.6710(4) 0.8461(4)
C4 C 0.7009(5) 0.6219(4) 0.7664(4)
H8 H 0.7472 0.5743 0.7346
C5 C 0.5752(5) 0.6435(4) 0.7335(4)
C6 C 0.5110(7) 0.7153(5) 0.7829(5)
H9 H 0.4260 0.7306 0.7625
C7 C 0.5706(9) 0.7646(6) 0.8618(6)
H10 H 0.5254 0.8135 0.8926
C8 C 0.5135(5) 0.5905(4) 0.6457(4)
C9 C 0.7343(9) 0.1348(6) 0.9863(5)
H11 H 0.6608 0.0819 0.9858
H12 H 0.7249 0.1799 1.0391
H13 H 0.8197 0.1069 0.9910
C10 C 0.7301(7) 0.1911(5) 0.8956(4)
C11 C 0.6371(6) 0.1690(4) 0.8214(5)
C12 C 0.6398(6) 0.2225(4) 0.7397(4)
H14 H 0.5754 0.2050 0.6922
C13 C 0.7388(6) 0.3017(4) 0.7296(4)
C14 C 0.8328(6) 0.3250(4) 0.8019(4)
H15 H 0.9002 0.3781 0.7963
C15 C 0.8278(7) 0.2704(5) 0.8822(5)
H16 H 0.8930 0.2878 0.9293
C16 C 0.7433(5) 0.3629(4) 0.6438(4)
C17 C 0.8949(10) -0.0154(5) 0.1713(6)
H17 H 0.7980 -0.0334 0.1681
H18 H 0.9385 -0.0695 0.1961
H19 H 0.9285 -0.0020 0.1094
C18 C 0.9258(8) 0.0772(4) 0.2350(5)
C19 C 1.0548(7) 0.1091(4) 0.2730(4)
C20 C 1.0810(6) 0.1913(4) 0.3332(4)
H20 H 1.1686 0.2088 0.3573
C21 C 0.9771(5) 0.2474(4) 0.3576(4)
C22 C 0.8471(6) 0.2172(4) 0.3215(5)
H21 H 0.7746 0.2532 0.3379
C23 C 0.8255(7) 0.1342(5) 0.2614(5)
H22 H 0.7378 0.1163 0.2377
C24 C 1.0019(6) 0.3386(4) 0.4223(4)
Gd1A Gd 0.25188(2) 0.506699(17) 0.512056(18)
Gd1A_2 Gd 1.25188(2) 0.506699(17) 0.512056(18)
O4A O 0.6090(4) 0.3992(3) 0.3726(3)
O12A O 0.8762(4) 0.6337(3) 0.5558(3)
N4 N 0.2071(9) 0.1966(5) 0.6194(6)
C25 C 0.0720(10) 0.1948(7) 0.6107(7)
H23 H 0.0326 0.2493 0.6366
C26 C -0.0110(10) 0.1230(6) 0.5689(6)
H24 H -0.1047 0.1268 0.5680
C27 C 0.0442(9) 0.0407(5) 0.5258(6)
C28 C 0.1816(11) 0.0391(7) 0.5372(7)
H25 H 0.2236 -0.0159 0.5153
C29 C 0.2576(11) 0.1193(7) 0.5815(8)
H26 H 0.3518 0.1182 0.5844
N4A N -0.2071(9) -0.1966(5) 0.3806(6)
C25A C -0.0720(10) -0.1948(7) 0.3893(7)
H23A H -0.0326 -0.2493 0.3634
C26A C 0.0110(10) -0.1230(6) 0.4311(6)
H24A H 0.1047 -0.1268 0.4320
C27A C -0.0442(9) -0.0407(5) 0.4742(6)
C28A C -0.1816(11) -0.0391(7) 0.4628(7)
H25A H -0.2236 0.0159 0.4847
C29A C -0.2576(11) -0.1193(7) 0.4185(8)
H26A H -0.3518 -0.1182 0.4156
N5 N 0.2562(7) 0.4457(6) 0.8168(5)
C30 C 0.2398(10) 0.5115(9) 0.8836(8)
H27 H 0.1620 0.5450 0.8824
C31 C 0.4489(7) 0.4879(5) 0.9617(5)
C32 C 0.4622(9) 0.4185(6) 0.8918(6)
H28 H 0.5384 0.3831 0.8910
C33 C 0.3655(11) 0.3997(7) 0.8224(6)
H29 H 0.3785 0.3509 0.7762
C34 C 0.3331(10) 0.5342(8) 0.9568(7)
H30 H 0.3161 0.5818 1.0032
N5A N 0.7438(7) 0.5543(6) 1.1832(5)
C30A C 0.7602(10) 0.4885(9) 1.1164(8)
H27A H 0.8380 0.4550 1.1176
C31A C 0.5511(7) 0.5121(5) 1.0383(5)
C32A C 0.5378(9) 0.5815(6) 1.1082(6)
H28A H 0.4616 0.6169 1.1090
C33A C 0.6345(11) 0.6003(7) 1.1776(6)
H29A H 0.6215 0.6491 1.2238
C34A C 0.6669(10) 0.4658(8) 1.0432(7)
H30A H 0.6839 0.4182 0.9968
O15 O 0.6030(12) 0.1397(7) 0.5035(9)
H31 H 0.6025 0.1986 0.5203
C35 C 0.514(2) 0.1176(18) 0.4248(14)
H32 H 0.5550 0.1477 0.3703
H33 H 0.4288 0.1437 0.4371
H34 H 0.4989 0.0465 0.4138
loop_
_geom_bond_atom_site_label_1
_geom_bond_atom_site_label_2
_geom_bond_site_symmetry_1
_geom_bond_site_symmetry_2
Gd1 O3 1_555 1_555
O1 N1 1_555 1_555
O2 N1 1_555 1_555
O3 C8 1_555 1_555
O4 C8 1_555 1_555
O5 N2 1_555 1_555
O6 N2 1_555 1_555
O7 Gd1 1_555 1_555
O8 Gd1 1_555 1_555
O9 N3 1_555 1_555
O10 N3 1_555 1_555
O11 Gd1 1_555 1_555
O12 C24 1_555 1_555
O13 Gd1 1_555 1_555
H1 O13 1_555 1_555
H2 O13 1_555 1_555
O14 Gd1 1_555 1_555
H3 O14 1_555 1_555
H4 O14 1_555 1_555
N1 C3 1_555 1_555
N2 C11 1_555 1_555
N3 C19 1_555 1_555
C1 H5 1_555 1_555
H6 C1 1_555 1_555
H7 C1 1_555 1_555
C2 C1 1_555 1_555
C3 C2 1_555 1_555
C4 C3 1_555 1_555
H8 C4 1_555 1_555
C5 C4 1_555 1_555
C6 C5 1_555 1_555
H9 C6 1_555 1_555
C7 C2 1_555 1_555
H10 C7 1_555 1_555
C8 C5 1_555 1_555
C9 H11 1_555 1_555
H12 C9 1_555 1_555
H13 C9 1_555 1_555
C10 C9 1_555 1_555
C11 C10 1_555 1_555
C12 C11 1_555 1_555
H14 C12 1_555 1_555
C13 C12 1_555 1_555
C14 C13 1_555 1_555
H15 C14 1_555 1_555
C15 C10 1_555 1_555
H16 C15 1_555 1_555
C16 O7 1_555 1_555
C17 H17 1_555 1_555
H18 C17 1_555 1_555
H19 C17 1_555 1_555
C18 C17 1_555 1_555
C19 C18 1_555 1_555
C20 C19 1_555 1_555
H20 C20 1_555 1_555
C21 C20 1_555 1_555
C22 C21 1_555 1_555
H21 C22 1_555 1_555
C23 C18 1_555 1_555
H22 C23 1_555 1_555
C24 O11 1_555 1_555
N4 C25 1_555 1_555
C25 H23 1_555 1_555
C26 C25 1_555 1_555
H24 C26 1_555 1_555
C27 C26 1_555 1_555
C28 C27 1_555 1_555
H25 C28 1_555 1_555
C29 N4 1_555 1_555
H26 C29 1_555 1_555
N5 C30 1_555 1_555
C30 H27 1_555 1_555
C31 C32 1_555 1_555
C32 H28 1_555 1_555
C33 N5 1_555 1_555
H29 C33 1_555 1_555
C34 C30 1_555 1_555
H30 C34 1_555 1_555
O15 H31 1_555 1_555
C35 O15 1_555 1_555
H32 C35 1_555 1_555
H33 C35 1_555 1_555
H34 C35 1_555 1_555
Gd1A O4 1_555 1_555
Gd1A_2 O12 1_555 1_555
O4A Gd1 1_555 1_555
O12A Gd1 1_555 1_555
N4A C25A 1_555 1_555
C25A H23A 1_555 1_555
C26A C25A 1_555 1_555
H24A C26A 1_555 1_555
C27A C27 1_555 1_555
C28A C27A 1_555 1_555
H25A C28A 1_555 1_555
C29A N4A 1_555 1_555
H26A C29A 1_555 1_555
N5A C30A 1_555 1_555
C30A H27A 1_555 1_555
C31A C31 1_555 1_555
C32A C31A 1_555 1_555
H28A C32A 1_555 1_555
C33A N5A 1_555 1_555
H29A C33A 1_555 1_555
C34A C30A 1_555 1_555
H30A C34A 1_555 1_555
O8 C16 1_555 1_555
C6 C7 1_555 1_555
C13 C16 1_555 1_555
C14 C15 1_555 1_555
C21 C24 1_555 1_555
C22 C23 1_555 1_555
C28 C29 1_555 1_555
C31 C34 1_555 1_555
C32 C33 1_555 1_555
C26A C27A 1_555 1_555
C28A C29A 1_555 1_555
C31A C34A 1_555 1_555
C32A C33A 1_555 1_555

#END
