
#######################################################################
#
#                 Cambridge Crystallographic Data Centre
#                                CCDC 
#
#######################################################################
#
# If this CIF has been generated from an entry in the Cambridge 
# Structural Database, then it will include bibliographic, chemical, 
# crystal, experimental, refinement or atomic coordinate data resulting 
# from the CCDC's data processing and validation procedures.
#
#######################################################################

data_MIHLIA
_symmetry_cell_setting           triclinic
_symmetry_space_group_name_H-M   'P -1'
_symmetry_Int_Tables_number      2
_space_group_name_Hall           '-P 1'
loop_
_symmetry_equiv_pos_site_id
_symmetry_equiv_pos_as_xyz
1 x,y,z
2 -x,-y,-z
_cell_length_a                   6.9268(7)
_cell_length_b                   10.0557(11)
_cell_length_c                   11.1566(13)
_cell_angle_alpha                104.553(2)
_cell_angle_beta                 99.146(2)
_cell_angle_gamma                98.756(2)
_cell_volume                     727.434
loop_
_atom_site_label
_atom_site_type_symbol
_atom_site_fract_x
_atom_site_fract_y
_atom_site_fract_z
Cu1 Cu 0.30954(7) 1.21753(4) 0.34085(4)
O1 O 0.1758(4) 1.0305(2) 0.3338(2)
O2 O 0.6441(4) 1.2007(3) 0.3764(3)
H1 H 0.739(7) 1.224(5) 0.351(4)
H2 H 0.606(7) 1.122(5) 0.356(4)
N1 N -0.3584(4) 0.7221(3) 0.4634(3)
H3 H -0.4312 0.6530 0.4779
H4 H -0.3892 0.8035 0.4803
C1 C 0.2547(5) 0.9266(3) 0.3438(3)
O3 O 0.4352(4) 0.9227(2) 0.3483(3)
N2 N 0.3249(4) 1.1679(3) 0.1556(3)
C2 C 0.1140(5) 0.8007(3) 0.3526(3)
O4 O -0.0297(4) 0.3058(2) 0.2739(3)
N3 N 0.7636(4) 1.4056(3) 0.0252(3)
H5 H 0.8011 1.3706 0.0858
C3 C -0.0637(5) 0.8159(3) 0.3933(3)
H6 H -0.1010 0.9026 0.4086
O5 O 0.2890(3) 0.4153(2) 0.3469(2)
C4 C -0.1859(5) 0.7017(3) 0.4111(3)
O6 O 0.5162(4) 1.3880(3) -0.1406(2)
C5 C -0.1340(5) 0.5713(3) 0.3832(3)
H7 H -0.2174 0.4940 0.3917
C6 C 0.0438(5) 0.5563(3) 0.3424(3)
C7 C 0.1023(6) 0.4148(3) 0.3180(3)
C8 C 0.1671(5) 0.6705(3) 0.3276(3)
H8 H 0.2857 0.6599 0.3008
C9 C 0.4351(5) 1.2636(4) 0.1163(3)
H9 H 0.4998 1.3481 0.1752
C10 C 0.4569(5) 1.2424(4) -0.0074(3)
C11 C 0.5820(5) 1.3522(4) -0.0484(4)
C12 C 0.9005(5) 1.5204(4) 0.0073(4)
H10 H 0.9210 1.6023 0.0794
H11 H 0.8429 1.5444 -0.0677
C13 C 0.3566(5) 1.1168(4) -0.0965(4)
H12 H 0.3627 1.1013 -0.1814
C14 C 0.2482(6) 1.0164(4) -0.0557(4)
H13 H 0.1834 0.9306 -0.1126
C15 C 0.2368(5) 1.0444(4) 0.0704(4)
H14 H 0.1657 0.9752 0.0974
N2A N 1.6751(4) 1.8321(3) -0.1556(3)
N3A N 1.2364(4) 1.5944(3) -0.0252(3)
H5A H 1.1989 1.6294 -0.0858
O6A O 1.4838(4) 1.6120(3) 0.1406(2)
C9A C 1.5649(5) 1.7364(4) -0.1163(3)
H9A H 1.5002 1.6519 -0.1752
C10A C 1.5431(5) 1.7576(4) 0.0074(3)
C11A C 1.4180(5) 1.6478(4) 0.0484(4)
C12A C 1.0995(5) 1.4796(4) -0.0073(4)
H10A H 1.0790 1.3977 -0.0794
H11A H 1.1571 1.4556 0.0677
C13A C 1.6434(5) 1.8832(4) 0.0965(4)
H12A H 1.6373 1.8987 0.1814
C14A C 1.7518(6) 1.9836(4) 0.0557(4)
H13A H 1.8166 2.0694 0.1126
C15A C 1.7632(5) 1.9556(4) -0.0704(4)
H14A H 1.8343 2.0248 -0.0974
Cu1A Cu -0.30954(7) 0.78247(4) 0.65915(4)
O1A O -0.1758(4) 0.9695(2) 0.6662(2)
O2A O -0.6441(4) 0.7993(3) 0.6236(3)
H1A H -0.739(7) 0.776(5) 0.649(4)
H2A H -0.606(7) 0.878(5) 0.644(4)
N1A N 0.3584(4) 1.2779(3) 0.5366(3)
H3A H 0.4312 1.3470 0.5221
H4A H 0.3892 1.1965 0.5197
C1A C -0.2547(5) 1.0734(3) 0.6562(3)
O3A O -0.4352(4) 1.0773(2) 0.6517(3)
C2A C -0.1140(5) 1.1993(3) 0.6474(3)
O4A O 0.0297(4) 1.6942(2) 0.7261(3)
C3A C 0.0637(5) 1.1841(3) 0.6067(3)
H6A H 0.1010 1.0974 0.5914
O5A O -0.2890(3) 1.5847(2) 0.6531(2)
C4A C 0.1859(5) 1.2983(3) 0.5889(3)
C5A C 0.1340(5) 1.4287(3) 0.6168(3)
H7A H 0.2174 1.5060 0.6083
C6A C -0.0438(5) 1.4437(3) 0.6576(3)
C7A C -0.1023(6) 1.5852(3) 0.6820(3)
C8A C -0.1671(5) 1.3295(3) 0.6724(3)
H8A H -0.2857 1.3401 0.6992
Cu1_2 Cu 0.30954(7) 0.21753(4) 0.34085(4)
Cu1A_2 Cu -0.30954(7) 1.78247(4) 0.65915(4)
Cu1A_3 Cu 1.69046(7) 1.78247(4) -0.34085(4)
N2A_2 N -0.3249(4) 0.8321(3) 0.8444(3)
O4_2 O -0.0297(4) 1.3058(2) 0.2739(3)
O4A_2 O 0.0297(4) 0.6942(2) 0.7261(3)
O5_2 O 0.2890(3) 1.4153(2) 0.3469(2)
O5A_2 O -0.2890(3) 0.5847(2) 0.6531(2)
loop_
_geom_bond_atom_site_label_1
_geom_bond_atom_site_label_2
_geom_bond_site_symmetry_1
_geom_bond_site_symmetry_2
Cu1 O1 1_555 1_555
O1 C1 1_555 1_555
O2 Cu1 1_555 1_555
H1 O2 1_555 1_555
H2 O2 1_555 1_555
N1 H3 1_555 1_555
H4 N1 1_555 1_555
C1 O3 1_555 1_555
N2 Cu1 1_555 1_555
C2 C1 1_555 1_555
O4 C7 1_555 1_555
N3 H5 1_555 1_555
C3 C2 1_555 1_555
H6 C3 1_555 1_555
O5 C7 1_555 1_555
C4 N1 1_555 1_555
O6 C11 1_555 1_555
C5 C4 1_555 1_555
H7 C5 1_555 1_555
C6 C5 1_555 1_555
C7 C6 1_555 1_555
C8 C2 1_555 1_555
H8 C8 1_555 1_555
C9 N2 1_555 1_555
H9 C9 1_555 1_555
C10 C9 1_555 1_555
C11 N3 1_555 1_555
C12 N3 1_555 1_555
H10 C12 1_555 1_555
H11 C12 1_555 1_555
C13 C10 1_555 1_555
H12 C13 1_555 1_555
C14 C13 1_555 1_555
H13 C14 1_555 1_555
C15 N2 1_555 1_555
H14 C15 1_555 1_555
N2A C9A 1_555 1_555
N3A H5A 1_555 1_555
O6A C11A 1_555 1_555
C9A H9A 1_555 1_555
C10A C9A 1_555 1_555
C11A N3A 1_555 1_555
C12A C12 1_555 1_555
H10A C12A 1_555 1_555
H11A C12A 1_555 1_555
C13A C10A 1_555 1_555
H12A C13A 1_555 1_555
C14A C13A 1_555 1_555
H13A C14A 1_555 1_555
C15A N2A 1_555 1_555
H14A C15A 1_555 1_555
Cu1A N1 1_555 1_555
O1A Cu1A 1_555 1_555
O2A Cu1A 1_555 1_555
H1A O2A 1_555 1_555
H2A O2A 1_555 1_555
N1A Cu1 1_555 1_555
H3A N1A 1_555 1_555
H4A N1A 1_555 1_555
C1A O1A 1_555 1_555
O3A C1A 1_555 1_555
C2A C1A 1_555 1_555
O4A C7A 1_555 1_555
C3A C2A 1_555 1_555
H6A C3A 1_555 1_555
O5A C7A 1_555 1_555
C4A N1A 1_555 1_555
C5A C4A 1_555 1_555
H7A C5A 1_555 1_555
C6A C5A 1_555 1_555
C7A C6A 1_555 1_555
C8A C2A 1_555 1_555
H8A C8A 1_555 1_555
Cu1_2 O4 1_555 1_555
Cu1A_2 O4A 1_555 1_555
Cu1A_3 N2A 1_555 1_555
N2A_2 Cu1A 1_555 1_555
O4_2 Cu1 1_555 1_555
O4A_2 Cu1A 1_555 1_555
O5_2 Cu1 1_555 1_555
O5A_2 Cu1A 1_555 1_555
C3 C4 1_555 1_555
O5 Cu1_2 1_555 1_555
C6 C8 1_555 1_555
C10 C11 1_555 1_555
C14 C15 1_555 1_555
N3A C12A 1_555 1_555
C10A C11A 1_555 1_555
C14A C15A 1_555 1_555
C3A C4A 1_555 1_555
O5A Cu1A_2 1_555 1_555
C6A C8A 1_555 1_555

#END
