
#######################################################################
#
#                 Cambridge Crystallographic Data Centre
#                                CCDC 
#
#######################################################################
#
# If this CIF has been generated from an entry in the Cambridge 
# Structural Database, then it will include bibliographic, chemical, 
# crystal, experimental, refinement or atomic coordinate data resulting 
# from the CCDC's data processing and validation procedures.
#
#######################################################################

data_MIHLUM
_symmetry_cell_setting           monoclinic
_symmetry_space_group_name_H-M   'P 21/c'
_symmetry_Int_Tables_number      14
_space_group_name_Hall           '-P 2ybc'
loop_
_symmetry_equiv_pos_site_id
_symmetry_equiv_pos_as_xyz
1 x,y,z
2 -x,1/2+y,1/2-z
3 -x,-y,-z
4 x,1/2-y,1/2+z
_cell_length_a                   9.0931(6)
_cell_length_b                   13.8662(10)
_cell_length_c                   20.4468(15)
_cell_angle_alpha                90
_cell_angle_beta                 92.7390(10)
_cell_angle_gamma                90
_cell_volume                     2575.13
loop_
_atom_site_label
_atom_site_type_symbol
_atom_site_fract_x
_atom_site_fract_y
_atom_site_fract_z
Cu1 Cu 0.09185(4) 0.19175(2) 0.244109(16)
O1 O 0.1235(2) 0.11003(13) 0.16682(9)
N1 N 0.3238(4) 0.0613(2) 0.03901(18)
C1 C 0.1942(3) 0.0310(2) 0.16801(14)
O2 O 0.0145(2) 0.31650(15) 0.16487(11)
H1 H -0.0714 0.3109 0.1469
H2 H 0.0265 0.3580 0.1952
O3 O 0.2811(3) 0.00322(19) 0.21155(13)
N2 N 0.2997(2) 0.24231(16) 0.24862(11)
C2 C 0.1587(3) -0.0333(2) 0.10897(14)
O4 O 0.4002(4) 0.0857(2) 0.08719(17)
N3 N 0.5106(3) 0.30927(19) 0.07526(13)
H3 H 0.4182 0.3203 0.0786
C3 C 0.2152(3) -0.0165(2) 0.04732(15)
O5 O 0.3403(5) 0.0923(3) -0.01511(19)
N4 N 0.8931(2) 0.37307(17) -0.24918(11)
C4 C 0.1784(4) -0.0709(3) -0.00757(16)
H4 H 0.2192 -0.0571 -0.0474
O6 O -0.0451(2) -0.22907(14) 0.17927(10)
N5 N 0.7168(3) 0.40628(19) -0.06427(12)
H5 H 0.8088 0.3960 -0.0695
C5 C 0.0807(5) -0.1456(3) -0.00251(17)
H6 H 0.0515 -0.1815 -0.0393
O7 O -0.0010(4) -0.08459(16) 0.22307(12)
C6 C 0.0260(4) -0.1673(2) 0.05756(15)
H7 H -0.0373 -0.2195 0.0611
O8 O 0.7268(2) 0.2773(2) 0.12739(13)
C7 C 0.0633(3) -0.1128(2) 0.11283(13)
O9 O 0.4972(2) 0.4424(2) -0.11282(12)
C8 C 0.0009(3) -0.1428(2) 0.17774(14)
C9 C 0.3717(3) 0.2509(2) 0.19326(14)
H8 H 0.3230 0.2339 0.1539
C10 C 0.5147(3) 0.2838(2) 0.19195(15)
C11 C 0.5932(3) 0.2906(2) 0.12896(16)
C12 C 0.5719(4) 0.3117(3) 0.01067(16)
H9 H 0.4924 0.3094 -0.0227
H10 H 0.6334 0.2553 0.0053
C13 C 0.5880(3) 0.3073(2) 0.25068(16)
H11 H 0.6854 0.3280 0.2516
C14 C 0.5148(4) 0.2997(2) 0.30740(16)
H12 H 0.5617 0.3163 0.3472
C15 C 0.3710(3) 0.2674(2) 0.30521(15)
H13 H 0.3221 0.2629 0.3440
C16 C 0.8322(3) 0.3809(2) -0.19081(14)
H14 H 0.8838 0.3562 -0.1542
C17 C 0.6978(3) 0.4234(2) -0.18211(14)
C18 C 0.6293(3) 0.4258(2) -0.11665(15)
C19 C 0.6626(4) 0.4018(2) 0.00146(15)
H15 H 0.7453 0.4023 0.0332
H16 H 0.6027 0.4582 0.0091
C20 C 0.6193(3) 0.4585(2) -0.23721(16)
H17 H 0.5267 0.4858 -0.2335
C21 C 0.6806(3) 0.4521(3) -0.29694(16)
H18 H 0.6310 0.4766 -0.3342
C22 C 0.8170(3) 0.4090(2) -0.30148(14)
H19 H 0.8575 0.4048 -0.3423
Cu1A Cu -0.09185(4) -0.30825(2) 0.255891(16)
Cu1C Cu 1.09185(4) 0.30825(2) -0.255891(16)
N4C N -0.1069(2) 0.12693(17) 0.25082(11)
O6A O 0.0451(2) 0.27093(14) 0.32073(10)
O10 O 0.2012(3) 0.0488(2) 0.34048(13)
H20 H 0.2052 0.0126 0.3070
H21 H 0.2827 0.0789 0.3434
O11 O 0.1939(3) 0.3385(3) 0.05990(15)
H22 H 0.1475 0.3252 0.0939
H23 H 0.1309 0.3539 0.0297
O12 O 0.0382(2) 0.42791(19) -0.04865(12)
H24 H 0.0133 0.4337 -0.0891
H25 H 0.1300 0.4391 -0.0441
loop_
_geom_bond_atom_site_label_1
_geom_bond_atom_site_label_2
_geom_bond_site_symmetry_1
_geom_bond_site_symmetry_2
Cu1 O1 1_555 1_555
O1 C1 1_555 1_555
N1 O4 1_555 1_555
C1 O3 1_555 1_555
O2 Cu1 1_555 1_555
H1 O2 1_555 1_555
H2 O2 1_555 1_555
N2 Cu1 1_555 1_555
C2 C1 1_555 1_555
N3 H3 1_555 1_555
C3 N1 1_555 1_555
O5 N1 1_555 1_555
N4 C16 1_555 1_555
C4 C3 1_555 1_555
H4 C4 1_555 1_555
O6 C8 1_555 1_555
N5 H5 1_555 1_555
C5 C4 1_555 1_555
H6 C5 1_555 1_555
O7 C8 1_555 1_555
C6 C5 1_555 1_555
H7 C6 1_555 1_555
O8 C11 1_555 1_555
C7 C2 1_555 1_555
O9 C18 1_555 1_555
C8 C7 1_555 1_555
C9 N2 1_555 1_555
H8 C9 1_555 1_555
C10 C9 1_555 1_555
C11 N3 1_555 1_555
C12 N3 1_555 1_555
H9 C12 1_555 1_555
H10 C12 1_555 1_555
C13 C10 1_555 1_555
H11 C13 1_555 1_555
C14 C13 1_555 1_555
H12 C14 1_555 1_555
C15 N2 1_555 1_555
H13 C15 1_555 1_555
C16 H14 1_555 1_555
C17 C16 1_555 1_555
C18 N5 1_555 1_555
C19 N5 1_555 1_555
H15 C19 1_555 1_555
H16 C19 1_555 1_555
C20 C17 1_555 1_555
H17 C20 1_555 1_555
C21 C20 1_555 1_555
H18 C21 1_555 1_555
C22 N4 1_555 1_555
H19 C22 1_555 1_555
O10 H20 1_555 1_555
H21 O10 1_555 1_555
O11 H22 1_555 1_555
H23 O11 1_555 1_555
O12 H24 1_555 1_555
H25 O12 1_555 1_555
Cu1A O6 1_555 1_555
Cu1C N4 1_555 1_555
N4C Cu1 1_555 1_555
O6A Cu1 1_555 1_555
C2 C3 1_555 1_555
C6 C7 1_555 1_555
C10 C11 1_555 1_555
C12 C19 1_555 1_555
C14 C15 1_555 1_555
C17 C18 1_555 1_555
C21 C22 1_555 1_555

#END
