
#######################################################################
#
#                 Cambridge Crystallographic Data Centre
#                                CCDC 
#
#######################################################################
#
# If this CIF has been generated from an entry in the Cambridge 
# Structural Database, then it will include bibliographic, chemical, 
# crystal, experimental, refinement or atomic coordinate data resulting 
# from the CCDC's data processing and validation procedures.
#
#######################################################################

data_MIHLOG
_symmetry_cell_setting           triclinic
_symmetry_space_group_name_H-M   'P -1'
_symmetry_Int_Tables_number      2
_space_group_name_Hall           '-P 1'
loop_
_symmetry_equiv_pos_site_id
_symmetry_equiv_pos_as_xyz
1 x,y,z
2 -x,-y,-z
_cell_length_a                   10.004(3)
_cell_length_b                   10.719(3)
_cell_length_c                   11.754(3)
_cell_angle_alpha                106.938(5)
_cell_angle_beta                 101.838(5)
_cell_angle_gamma                92.317(4)
_cell_volume                     1173.32
loop_
_atom_site_label
_atom_site_type_symbol
_atom_site_fract_x
_atom_site_fract_y
_atom_site_fract_z
Cu1 Cu 0.86523(3) 0.14352(3) 0.51345(3)
O1 O 0.75960(18) 0.36566(19) 0.5749(2)
C1 C 0.6619(2) 0.2850(3) 0.5655(2)
O2 O 0.67216(17) 0.16233(18) 0.53986(17)
N1 N 0.9444(2) 0.1801(2) 0.6953(2)
C2 C 0.5252(2) 0.3306(2) 0.5836(2)
O3 O 0.03962(17) 0.22925(18) 0.50588(17)
N2 N 1.2377(3) 0.5009(3) 1.0376(2)
H1 H 1.2606 0.4386 1.0677
C3 C 0.4087(2) 0.2416(2) 0.5511(2)
H2 H 0.4165 0.1522 0.5230
O4 O 1.1056(2) 0.5602(2) 0.8895(2)
N3 N 1.7944(2) 1.1077(2) 1.3313(2)
C4 C 0.2803(2) 0.2840(2) 0.5599(2)
O5 O 1.6197(2) 0.7729(2) 0.9642(2)
N4 N 1.4983(2) 0.7884(2) 1.1076(2)
H3 H 1.4793 0.8361 1.1738
C5 C 0.1554(3) 0.1850(2) 0.5219(2)
O6 O 0.17299(19) 0.06883(18) 0.50976(19)
C6 C 0.2706(3) 0.4175(3) 0.6057(3)
H4 H 0.1854 0.4472 0.6113
C7 C 0.3870(3) 0.5067(3) 0.6430(3)
H5 H 0.3802 0.5955 0.6768
C8 C 0.5133(3) 0.4641(3) 0.6302(3)
H6 H 0.5906 0.5247 0.6527
C9 C 1.0093(3) 0.2997(3) 0.7574(2)
H7 H 1.0126 0.3609 0.7157
C10 C 1.0718(3) 0.3371(3) 0.8803(2)
C11 C 1.1404(3) 0.4748(3) 0.9366(3)
C12 C 1.3075(3) 0.6334(3) 1.0995(3)
H8 H 1.3397 0.6444 1.1859
H9 H 1.2429 0.6970 1.0912
C13 C 1.0641(3) 0.2463(3) 0.9434(3)
H10 H 1.1044 0.2676 1.0262
C14 C 0.9952(3) 0.1238(3) 0.8796(3)
H11 H 0.9872 0.0618 0.9198
C15 C 0.9383(3) 0.0933(3) 0.7568(3)
H12 H 0.8940 0.0096 0.7149
C16 C 1.7114(3) 0.9992(3) 1.2632(2)
H13 H 1.6789 0.9442 1.3022
C17 C 1.6716(3) 0.9652(3) 1.1371(3)
C18 C 1.5929(3) 0.8351(3) 1.0623(3)
C19 C 1.4263(3) 0.6581(3) 1.0475(4)
H14 H 1.4900 0.5935 1.0552
H15 H 1.3936 0.6472 0.9612
C20 C 1.7158(3) 1.0504(3) 1.0800(3)
H16 H 1.6911 1.0307 0.9955
C21 C 1.7970(3) 1.1645(3) 1.1507(3)
H17 H 1.8252 1.2242 1.1145
C22 C 1.8360(3) 1.1898(3) 1.2749(3)
H18 H 1.8929 1.2661 1.3215
Cu1_2 Cu -0.13477(3) 0.14352(3) 0.51345(3)
Cu1_3 Cu 1.86523(3) 1.14352(3) 1.51345(3)
Cu1A Cu 0.13477(3) -0.14352(3) 0.48655(3)
O3_2 O 1.03962(17) 0.22925(18) 0.50588(17)
N3_2 N 0.7944(2) 0.1077(2) 0.3313(2)
O6A O 0.82701(19) -0.06883(18) 0.49024(19)
O7 O 0.3947(2) -0.0425(2) 0.2898(2)
H19 H 0.4542 0.0223 0.3294
H20 H 0.3634 -0.0699 0.3413
O8 O 0.8717(3) 0.6109(3) 0.7324(3)
H21 H 0.8359 0.5357 0.6843
H22 H 0.9568 0.6165 0.7334
O9 O 0.7437(4) -0.1582(3) -0.2119(3)
H23 H 0.6893 -0.2279 -0.2436
H24 H 0.7953 -0.1551 -0.2607
loop_
_geom_bond_atom_site_label_1
_geom_bond_atom_site_label_2
_geom_bond_site_symmetry_1
_geom_bond_site_symmetry_2
Cu1 O1 1_555 1_555
O1 C1 1_555 1_555
C1 O2 1_555 1_555
O2 Cu1 1_555 1_555
N1 Cu1 1_555 1_555
C2 C1 1_555 1_555
O3 C5 1_555 1_555
N2 H1 1_555 1_555
C3 C2 1_555 1_555
H2 C3 1_555 1_555
O4 C11 1_555 1_555
N3 C16 1_555 1_555
C4 C3 1_555 1_555
O5 C18 1_555 1_555
N4 H3 1_555 1_555
C5 C4 1_555 1_555
O6 C5 1_555 1_555
C6 C4 1_555 1_555
H4 C6 1_555 1_555
C7 C6 1_555 1_555
H5 C7 1_555 1_555
C8 C2 1_555 1_555
H6 C8 1_555 1_555
C9 N1 1_555 1_555
H7 C9 1_555 1_555
C10 C9 1_555 1_555
C11 N2 1_555 1_555
C12 N2 1_555 1_555
H8 C12 1_555 1_555
H9 C12 1_555 1_555
C13 C10 1_555 1_555
H10 C13 1_555 1_555
C14 C13 1_555 1_555
H11 C14 1_555 1_555
C15 N1 1_555 1_555
H12 C15 1_555 1_555
C16 H13 1_555 1_555
C17 C16 1_555 1_555
C18 N4 1_555 1_555
C19 N4 1_555 1_555
H14 C19 1_555 1_555
H15 C19 1_555 1_555
C20 C17 1_555 1_555
H16 C20 1_555 1_555
C21 C20 1_555 1_555
H17 C21 1_555 1_555
C22 N3 1_555 1_555
H18 C22 1_555 1_555
O7 H19 1_555 1_555
H20 O7 1_555 1_555
O8 H21 1_555 1_555
H22 O8 1_555 1_555
O9 H23 1_555 1_555
H24 O9 1_555 1_555
Cu1_2 O3 1_555 1_555
Cu1_3 N3 1_555 1_555
Cu1A O6 1_555 1_555
O3_2 Cu1 1_555 1_555
N3_2 Cu1 1_555 1_555
O6A Cu1 1_555 1_555
C7 C8 1_555 1_555
C10 C11 1_555 1_555
C12 C19 1_555 1_555
C14 C15 1_555 1_555
C17 C18 1_555 1_555
C21 C22 1_555 1_555

#END
