
#######################################################################
#
#                 Cambridge Crystallographic Data Centre
#                                CCDC 
#
#######################################################################
#
# If this CIF has been generated from an entry in the Cambridge 
# Structural Database, then it will include bibliographic, chemical, 
# crystal, experimental, refinement or atomic coordinate data resulting 
# from the CCDC's data processing and validation procedures.
#
#######################################################################

data_MIHMIA
_symmetry_cell_setting           triclinic
_symmetry_space_group_name_H-M   'P -1'
_symmetry_Int_Tables_number      2
_space_group_name_Hall           '-P 1'
loop_
_symmetry_equiv_pos_site_id
_symmetry_equiv_pos_as_xyz
1 x,y,z
2 -x,-y,-z
_cell_length_a                   9.0754(4)
_cell_length_b                   14.5477(5)
_cell_length_c                   17.2021(8)
_cell_angle_alpha                73.8877(18)
_cell_angle_beta                 85.6121(18)
_cell_angle_gamma                81.146(3)
_cell_volume                     2154.55
loop_
_atom_site_label
_atom_site_type_symbol
_atom_site_fract_x
_atom_site_fract_y
_atom_site_fract_z
Co1 Co 0.73479(6) 0.09351(4) 0.48109(3)
Co2 Co 0.79658(7) -0.29679(4) 1.03750(3)
C1 C 0.9295(5) 0.1080(3) 0.6103(2)
C2 C 1.0313(5) 0.0487(3) 0.6705(2)
H1 H 1.0940 0.0707 0.7012
C3 C 1.0205(5) -0.0444(3) 0.6749(2)
H2 H 1.0746 -0.1002 0.7091
C4 C 0.9121(5) -0.0426(3) 0.6183(2)
C5 C 0.8607(5) -0.1252(3) 0.6097(2)
C6 C 0.7701(5) -0.1226(3) 0.5481(2)
C7 C 0.7273(5) -0.2071(3) 0.5344(2)
H3 H 0.7428 -0.2707 0.5694
C8 C 0.6606(5) -0.1797(3) 0.4625(2)
H4 H 0.6242 -0.2208 0.4363
C9 C 0.6551(5) -0.0766(3) 0.4330(2)
C10 C 0.6003(5) -0.0214(3) 0.3583(2)
C11 C 0.5868(4) 0.0788(3) 0.3349(2)
C12 C 0.5156(5) 0.1386(3) 0.2624(2)
H5 H 0.4828 0.1171 0.2202
C13 C 0.5044(5) 0.2312(3) 0.2660(2)
H6 H 0.4599 0.2868 0.2273
C14 C 0.5719(5) 0.2301(3) 0.3388(2)
C15 C 0.5786(5) 0.3115(3) 0.3645(2)
C16 C 0.6503(5) 0.3097(3) 0.4335(2)
C17 C 0.6611(5) 0.3941(3) 0.4597(2)
H7 H 0.6134 0.4578 0.4366
C18 C 0.7515(5) 0.3658(3) 0.5229(2)
H8 H 0.7797 0.4058 0.5528
C19 C 0.7976(5) 0.2630(3) 0.5369(2)
C20 C 0.8964(5) 0.2082(3) 0.5957(2)
N1 N 0.8614(4) 0.0509(2) 0.57547(19)
N2 N 0.7208(4) -0.0409(2) 0.48638(18)
N3 N 0.6250(4) 0.1358(2) 0.38108(19)
N4 N 0.7317(4) 0.2285(2) 0.48264(18)
C21 C 0.9063(5) -0.2193(3) 0.6715(2)
C22 C 0.8669(5) -0.2265(3) 0.7524(2)
H9 H 0.8105 -0.1730 0.7673
C23 C 0.9103(5) -0.3128(3) 0.8125(2)
C24 C 0.9923(5) -0.3914(3) 0.7907(2)
H10 H 1.0227 -0.4494 0.8311
C25 C 1.0294(5) -0.3847(3) 0.7099(2)
H11 H 1.0836 -0.4387 0.6948
C26 C 0.9877(5) -0.2991(3) 0.6504(2)
H12 H 1.0148 -0.2950 0.5952
C27 C 0.8726(5) -0.3160(3) 0.8990(2)
O1 O 0.7706(4) -0.2523(2) 0.91582(17)
O2 O 0.9405(4) -0.3780(2) 0.95543(17)
C28 C 0.5634(5) -0.0748(3) 0.3008(2)
C29 C 0.6432(5) -0.0678(3) 0.2276(2)
H13 H 0.7112 -0.0219 0.2107
C30 C 0.6251(5) -0.1269(3) 0.1785(2)
C31 C 0.5230(5) -0.1931(3) 0.2032(3)
H14 H 0.5103 -0.2342 0.1706
C32 C 0.4407(5) -0.1989(3) 0.2747(3)
H15 H 0.3716 -0.2441 0.2912
C33 C 0.4583(5) -0.1393(3) 0.3226(2)
H16 H 0.3983 -0.1422 0.3707
C34 C 0.7169(5) -0.1223(3) 0.1021(3)
O3 O 0.8174(5) -0.0687(3) 0.0848(2)
O4 O 0.6901(4) -0.1750(2) 0.05788(18)
C35 C 0.5074(5) 0.4072(3) 0.3134(2)
C36 C 0.5813(5) 0.4561(3) 0.2437(2)
H17 H 0.6788 0.4300 0.2294
C37 C 0.5118(5) 0.5437(3) 0.1945(2)
C38 C 0.3698(5) 0.5821(3) 0.2154(2)
H18 H 0.3220 0.6405 0.1813
C39 C 0.2971(5) 0.5354(3) 0.2861(3)
H19 H 0.2010 0.5626 0.3012
C40 C 0.3664(5) 0.4483(3) 0.3347(2)
H20 H 0.3167 0.4166 0.3830
C41 C 0.5944(5) 0.5976(3) 0.1213(2)
O5 O 0.5233(4) 0.6558(2) 0.06352(17)
O6 O 0.7370(3) 0.5857(2) 0.12071(17)
C42 C 0.9662(5) 0.2553(3) 0.6484(2)
C43 C 0.9376(5) 0.2293(3) 0.7319(2)
H21 H 0.8743 0.1816 0.7546
C44 C 0.9995(5) 0.2714(3) 0.7825(2)
C45 C 1.0963(5) 0.3394(3) 0.7492(2)
H22 H 1.1407 0.3681 0.7832
C46 C 1.1275(5) 0.3649(3) 0.6664(3)
H23 H 1.1942 0.4106 0.6440
C47 C 1.0621(5) 0.3243(3) 0.6158(2)
H24 H 1.0825 0.3434 0.5591
C48 C 0.9537(5) 0.2459(3) 0.8715(2)
O7 O 0.8593(4) 0.1899(2) 0.89637(18)
O8 O 1.0057(4) 0.2892(2) 0.91716(17)
Co2_2 Co 0.79658(7) -0.29679(4) 0.03750(3)
Co2_3 Co 0.79658(7) 0.70321(4) 0.03750(3)
Co2A Co 1.20342(7) 0.29679(4) 0.96250(3)
O4_2 O 0.6901(4) -0.1750(2) 1.05788(18)
O6_2 O 0.7370(3) -0.4143(2) 1.12071(17)
O8A O 0.9943(4) -0.2892(2) 1.08284(17)
C49 C 0.7438(6) 0.4601(4) 0.9724(4)
H25 H 0.6456 0.4927 0.9847
H26 H 0.7666 0.4814 0.9141
H27 H 0.8199 0.4761 1.0020
N5 N 0.7424(5) 0.3537(3) 0.9973(2)
H28 H 0.831(8) 0.319(4) 0.979(4)
H29 H 0.659(8) 0.339(4) 0.973(4)
C50 C 0.7119(7) 0.3150(5) 1.0848(3)
H30 H 0.7931 0.3244 1.1150
H31 H 0.7047 0.2459 1.0970
H32 H 0.6176 0.3491 1.1007
C51 C 0.7443(8) -0.0100(4) 0.8791(4)
H33 H 0.7632 0.0124 0.8205
H34 H 0.6665 0.0357 0.8962
H35 H 0.7113 -0.0738 0.8926
N6 N 0.8826(6) -0.0165(3) 0.9213(2)
H36 H 0.841(10) -0.031(5) 0.974(5)
H37 H 0.917(6) 0.043(4) 0.912(3)
C52 C 1.0072(7) -0.0858(4) 0.9012(3)
H38 H 0.9789 -0.1510 0.9177
H39 H 1.0959 -0.0847 0.9298
H40 H 1.0292 -0.0675 0.8427
O9 O 0.6203(7) 0.1371(4) 0.0146(4)
H41 H 0.5439 0.1207 0.0662
H42 H 0.5437 0.1940 -0.0033
loop_
_geom_bond_atom_site_label_1
_geom_bond_atom_site_label_2
_geom_bond_site_symmetry_1
_geom_bond_site_symmetry_2
Co1 N1 1_555 1_555
Co2 O1 1_555 1_555
C1 C2 1_555 1_555
C2 H1 1_555 1_555
C3 C2 1_555 1_555
H2 C3 1_555 1_555
C4 C3 1_555 1_555
C5 C4 1_555 1_555
C6 C5 1_555 1_555
C7 C6 1_555 1_555
H3 C7 1_555 1_555
C8 C7 1_555 1_555
H4 C8 1_555 1_555
C9 C8 1_555 1_555
C10 C9 1_555 1_555
C11 C10 1_555 1_555
C12 C11 1_555 1_555
H5 C12 1_555 1_555
C13 C12 1_555 1_555
H6 C13 1_555 1_555
C14 C13 1_555 1_555
C15 C14 1_555 1_555
C16 C15 1_555 1_555
C17 C16 1_555 1_555
H7 C17 1_555 1_555
C18 C17 1_555 1_555
H8 C18 1_555 1_555
C19 C18 1_555 1_555
C20 C1 1_555 1_555
N1 C1 1_555 1_555
N2 Co1 1_555 1_555
N3 Co1 1_555 1_555
N4 Co1 1_555 1_555
C21 C5 1_555 1_555
C22 C21 1_555 1_555
H9 C22 1_555 1_555
C23 C22 1_555 1_555
C24 C23 1_555 1_555
H10 C24 1_555 1_555
C25 C24 1_555 1_555
H11 C25 1_555 1_555
C26 C21 1_555 1_555
H12 C26 1_555 1_555
C27 C23 1_555 1_555
O1 C27 1_555 1_555
O2 Co2 1_555 1_555
C28 C10 1_555 1_555
C29 C28 1_555 1_555
H13 C29 1_555 1_555
C30 C29 1_555 1_555
C31 C30 1_555 1_555
H14 C31 1_555 1_555
C32 C31 1_555 1_555
H15 C32 1_555 1_555
C33 C28 1_555 1_555
H16 C33 1_555 1_555
C34 C30 1_555 1_555
O3 C34 1_555 1_555
O4 C34 1_555 1_555
C35 C15 1_555 1_555
C36 C35 1_555 1_555
H17 C36 1_555 1_555
C37 C36 1_555 1_555
C38 C37 1_555 1_555
H18 C38 1_555 1_555
C39 C38 1_555 1_555
H19 C39 1_555 1_555
C40 C35 1_555 1_555
H20 C40 1_555 1_555
C41 C37 1_555 1_555
O5 C41 1_555 1_555
O6 C41 1_555 1_555
C42 C20 1_555 1_555
C43 C42 1_555 1_555
H21 C43 1_555 1_555
C44 C43 1_555 1_555
C45 C44 1_555 1_555
H22 C45 1_555 1_555
C46 C45 1_555 1_555
H23 C46 1_555 1_555
C47 C42 1_555 1_555
H24 C47 1_555 1_555
C48 C44 1_555 1_555
O7 C48 1_555 1_555
O8 C48 1_555 1_555
C49 H25 1_555 1_555
H26 C49 1_555 1_555
H27 C49 1_555 1_555
N5 C49 1_555 1_555
H28 N5 1_555 1_555
H29 N5 1_555 1_555
C50 N5 1_555 1_555
H30 C50 1_555 1_555
H31 C50 1_555 1_555
H32 C50 1_555 1_555
C51 H33 1_555 1_555
H34 C51 1_555 1_555
H35 C51 1_555 1_555
N6 C51 1_555 1_555
H36 N6 1_555 1_555
H37 N6 1_555 1_555
C52 N6 1_555 1_555
H38 C52 1_555 1_555
H39 C52 1_555 1_555
H40 C52 1_555 1_555
O9 H41 1_555 1_555
H42 O9 1_555 1_555
Co2_2 O4 1_555 1_555
Co2_3 O6 1_555 1_555
Co2A O8 1_555 1_555
O4_2 Co2 1_555 1_555
O6_2 Co2 1_555 1_555
O8A Co2 1_555 1_555
C4 N1 1_555 1_555
C6 N2 1_555 1_555
C9 N2 1_555 1_555
C11 N3 1_555 1_555
C14 N3 1_555 1_555
C16 N4 1_555 1_555
C19 C20 1_555 1_555
C19 N4 1_555 1_555
C25 C26 1_555 1_555
C27 O2 1_555 1_555
C32 C33 1_555 1_555
C39 C40 1_555 1_555
C46 C47 1_555 1_555

#END
