
#######################################################################
#
#                 Cambridge Crystallographic Data Centre
#                                CCDC 
#
#######################################################################
#
# If this CIF has been generated from an entry in the Cambridge 
# Structural Database, then it will include bibliographic, chemical, 
# crystal, experimental, refinement or atomic coordinate data resulting 
# from the CCDC's data processing and validation procedures.
#
#######################################################################

data_MIHMOG
_symmetry_cell_setting           triclinic
_symmetry_space_group_name_H-M   'P -1'
_symmetry_Int_Tables_number      2
_space_group_name_Hall           '-P 1'
loop_
_symmetry_equiv_pos_site_id
_symmetry_equiv_pos_as_xyz
1 x,y,z
2 -x,-y,-z
_cell_length_a                   7.954(3)
_cell_length_b                   8.984(4)
_cell_length_c                   9.863(4)
_cell_angle_alpha                71.192(4)
_cell_angle_beta                 86.803(4)
_cell_angle_gamma                64.858(4)
_cell_volume                     601.238
loop_
_atom_site_label
_atom_site_type_symbol
_atom_site_fract_x
_atom_site_fract_y
_atom_site_fract_z
Cd1 Cd 1.0000 0.0000 0.5000
S1 S 1.04927(13) -0.46279(10) 0.29789(9)
N1 N 0.5435(3) 0.1748(3) 0.5472(2)
N2 N 0.7036(3) 0.0184(3) 0.5786(2)
N3 N 0.5097(3) -0.0177(3) 0.7377(2)
N4 N 0.5698(3) -0.2590(2) 0.9382(2)
N5 N 0.6684(3) -0.5099(3) 1.1344(2)
N6 N 0.8373(3) -0.7636(3) 1.2901(2)
N7 N 0.9170(3) -0.7533(3) 1.1616(2)
N8 N 1.0384(3) -0.1967(3) 0.3888(3)
C1 C 0.4315(4) 0.1491(4) 0.6430(3)
H1 H 0.3135 0.2331 0.6469
C2 C 0.6787(4) -0.0911(3) 0.6909(3)
H2 H 0.7659 -0.2057 0.7340
C3 C 0.4515(3) -0.0944(3) 0.8706(2)
C4 C 0.2937(3) -0.0018(3) 0.9256(3)
H3 H 0.2142 0.1131 0.8745
C5 C 0.2582(3) -0.0868(3) 1.0605(3)
H4 H 0.1525 -0.0290 1.1013
C6 C 0.3795(3) -0.2574(3) 1.1346(3)
H5 H 0.3587 -0.3167 1.2255
C7 C 0.5318(3) -0.3346(3) 1.0678(2)
C8 C 0.6900(4) -0.6184(3) 1.2715(3)
H6 H 0.6106 -0.5923 1.3418
C9 C 0.8141(4) -0.6012(3) 1.0720(3)
H7 H 0.8371 -0.5598 0.9770
C10 C 1.0469(3) -0.3093(3) 0.3536(3)
Cd1_2 Cd 1.0000 -1.0000 1.5000
Cd1_3 Cd 1.0000 1.0000 -0.5000
S1A S 0.95073(13) 0.46279(10) 0.70211(9)
N1A N 1.4565(3) -0.1748(3) 0.4528(2)
N2A N 1.2964(3) -0.0184(3) 0.4214(2)
N3A N 1.4903(3) 0.0177(3) 0.2623(2)
N4A N 1.4302(3) 0.2590(2) 0.0618(2)
N5A N 1.3316(3) 0.5099(3) -0.1344(2)
N6A N 1.1627(3) 0.7636(3) -0.2901(2)
N6_2 N 0.8373(3) 0.2364(3) 0.2901(2)
N6A_2 N 1.1627(3) -0.2364(3) 0.7099(2)
N7A N 1.0830(3) 0.7533(3) -0.1616(2)
N8A N 0.9616(3) 0.1967(3) 0.6112(3)
C1A C 1.5685(4) -0.1491(4) 0.3570(3)
H1A H 1.6865 -0.2331 0.3531
C2A C 1.3213(4) 0.0911(3) 0.3091(3)
H2A H 1.2341 0.2057 0.2660
C3A C 1.5485(3) 0.0944(3) 0.1294(2)
C4A C 1.7063(3) 0.0018(3) 0.0744(3)
H3A H 1.7858 -0.1131 0.1255
C5A C 1.7418(3) 0.0868(3) -0.0605(3)
H4A H 1.8475 0.0290 -0.1013
C6A C 1.6205(3) 0.2574(3) -0.1346(3)
H5A H 1.6413 0.3167 -0.2255
C7A C 1.4682(3) 0.3346(3) -0.0678(2)
C8A C 1.3100(4) 0.6184(3) -0.2715(3)
H6A H 1.3894 0.5923 -0.3418
C9A C 1.1859(4) 0.6012(3) -0.0720(3)
H7A H 1.1629 0.5598 0.0230
C10A C 0.9531(3) 0.3093(3) 0.6464(3)
loop_
_geom_bond_atom_site_label_1
_geom_bond_atom_site_label_2
_geom_bond_site_symmetry_1
_geom_bond_site_symmetry_2
Cd1 N2 1_555 1_555
S1 C10 1_555 1_555
N1 N2 1_555 1_555
N2 C2 1_555 1_555
N3 C1 1_555 1_555
N4 C3 1_555 1_555
N5 C7 1_555 1_555
N6 N7 1_555 1_555
N7 C9 1_555 1_555
N8 Cd1 1_555 1_555
C1 N1 1_555 1_555
H1 C1 1_555 1_555
C2 N3 1_555 1_555
H2 C2 1_555 1_555
C3 N3 1_555 1_555
C4 C3 1_555 1_555
H3 C4 1_555 1_555
C5 C4 1_555 1_555
H4 C5 1_555 1_555
C6 C5 1_555 1_555
H5 C6 1_555 1_555
C7 N4 1_555 1_555
C8 N5 1_555 1_555
H6 C8 1_555 1_555
C9 N5 1_555 1_555
H7 C9 1_555 1_555
C10 N8 1_555 1_555
Cd1_2 N6 1_555 1_555
Cd1_3 N6A 1_555 1_555
S1A C10A 1_555 1_555
N1A N2A 1_555 1_555
N2A Cd1 1_555 1_555
N3A C1A 1_555 1_555
N4A C3A 1_555 1_555
N5A C7A 1_555 1_555
N6A N7A 1_555 1_555
N6_2 Cd1 1_555 1_555
N6A_2 Cd1 1_555 1_555
N7A C9A 1_555 1_555
N8A Cd1 1_555 1_555
C1A N1A 1_555 1_555
H1A C1A 1_555 1_555
C2A N2A 1_555 1_555
H2A C2A 1_555 1_555
C3A N3A 1_555 1_555
C4A C3A 1_555 1_555
H3A C4A 1_555 1_555
C5A C4A 1_555 1_555
H4A C5A 1_555 1_555
C6A C5A 1_555 1_555
H5A C6A 1_555 1_555
C7A N4A 1_555 1_555
C8A N5A 1_555 1_555
H6A C8A 1_555 1_555
C9A N5A 1_555 1_555
H7A C9A 1_555 1_555
C10A N8A 1_555 1_555
N6 C8 1_555 1_555
C6 C7 1_555 1_555
N3A C2A 1_555 1_555
N6A C8A 1_555 1_555
C6A C7A 1_555 1_555

#END
