
#######################################################################
#
#                 Cambridge Crystallographic Data Centre
#                                CCDC 
#
#######################################################################
#
# If this CIF has been generated from an entry in the Cambridge 
# Structural Database, then it will include bibliographic, chemical, 
# crystal, experimental, refinement or atomic coordinate data resulting 
# from the CCDC's data processing and validation procedures.
#
#######################################################################

data_MIHMUM
_symmetry_cell_setting           triclinic
_symmetry_space_group_name_H-M   'P -1'
_symmetry_Int_Tables_number      2
_space_group_name_Hall           '-P 1'
loop_
_symmetry_equiv_pos_site_id
_symmetry_equiv_pos_as_xyz
1 x,y,z
2 -x,-y,-z
_cell_length_a                   9.1032(11)
_cell_length_b                   10.8342(13)
_cell_length_c                   17.829(3)
_cell_angle_alpha                103.492(2)
_cell_angle_beta                 99.696(2)
_cell_angle_gamma                104.7180(10)
_cell_volume                     1604.57
loop_
_atom_site_label
_atom_site_type_symbol
_atom_site_fract_x
_atom_site_fract_y
_atom_site_fract_z
Zn1 Zn 0.5000 1.0000 0.5000
Zn2 Zn 0.18113(4) 1.37125(4) 1.17939(2)
S1 S 0.06750(12) 0.95996(11) 1.23963(7)
S2 S 0.60294(10) 1.60293(9) 1.39505(6)
S3 S -0.22764(13) 1.55315(14) 1.20283(7)
N1 N 0.4425(3) 1.0696(2) 0.61217(14)
N2 N 0.2957(3) 1.0694(3) 0.62394(15)
N3 N 0.4700(3) 1.1634(2) 0.73781(14)
N4 N 0.4320(3) 1.2412(3) 0.86259(14)
N5 N 0.3672(3) 1.3093(3) 0.98176(15)
N6 N 0.2447(3) 1.3437(3) 1.07500(16)
N7 N 0.1341(4) 1.2959(5) 1.00310(19)
N8 N 0.6177(3) 0.8857(2) 0.55435(13)
N9 N 0.5382(3) 0.8019(3) 0.59225(16)
N10 N 0.7618(2) 0.7646(2) 0.58542(14)
N11 N 0.8350(2) 0.5769(2) 0.59055(14)
N12 N 0.8850(2) 0.3772(2) 0.58814(14)
N13 N 0.7199(3) 0.1749(2) 0.54663(14)
N14 N 0.8700(3) 0.1667(2) 0.57350(16)
N15 N 0.1243(4) 1.2015(4) 1.2033(2)
N16 N 0.3730(4) 1.4925(4) 1.2556(2)
N17 N 0.0144(4) 1.4514(4) 1.1761(2)
C1 C 0.5425(3) 1.1257(3) 0.68023(17)
H1 H 0.6496 1.1383 0.6884
C2 C 0.3168(3) 1.1262(3) 0.69882(19)
H2 H 0.2372 1.1400 0.7230
C3 C 0.5363(3) 1.2281(3) 0.82062(17)
C4 C 0.6958(4) 1.2703(4) 0.8526(2)
H3 H 0.7653 1.2598 0.8206
C5 C 0.7479(4) 1.3284(4) 0.9331(2)
H4 H 0.8546 1.3576 0.9568
C6 C 0.6425(4) 1.3436(4) 0.9790(2)
H5 H 0.6750 1.3827 1.0338
C7 C 0.4873(4) 1.2981(3) 0.93986(18)
C8 C 0.3811(4) 1.3513(4) 1.06118(19)
H6 H 0.4747 1.3811 1.0999
C9 C 0.2117(4) 1.2769(6) 0.9495(2)
H7 H 0.1664 1.2447 0.8951
C10 C 0.7501(3) 0.8628(3) 0.55199(16)
H8 H 0.8260 0.9074 0.5304
C11 C 0.6271(3) 0.7311(3) 0.6093(2)
H9 H 0.6017 0.6655 0.6347
C12 C 0.8840(3) 0.7047(3) 0.59344(16)
C13 C 1.0375(3) 0.7772(3) 0.60279(18)
H10 H 1.0652 0.8662 0.6034
C14 C 1.1476(3) 0.7121(3) 0.6112(2)
H11 H 1.2527 0.7572 0.6179
C15 C 1.1020(3) 0.5789(3) 0.60964(19)
H12 H 1.1749 0.5333 0.6162
C16 C 0.9449(3) 0.5174(3) 0.59805(16)
C17 C 0.7336(3) 0.3009(3) 0.55646(18)
H13 H 0.6509 0.3339 0.5435
C18 C 0.9635(3) 0.2874(3) 0.5968(2)
H14 H 1.0710 0.3103 0.6170
C19 C 0.0998(4) 1.0998(4) 1.2174(2)
C20 C 0.4705(4) 1.5394(3) 1.3133(2)
C21 C -0.0860(4) 1.4939(4) 1.1870(2)
Zn1_2 Zn 0.5000 0.0000 0.5000
Zn1_3 Zn 0.5000 2.0000 0.5000
Zn2A Zn 0.81887(4) 0.62875(4) -0.17939(2)
S1A S 0.93250(12) 1.04004(11) -0.23963(7)
S2A S 0.39706(10) 0.39707(9) -0.39505(6)
S3A S 1.22764(13) 0.44685(14) -0.20283(7)
N1A N 0.5575(3) 0.9304(2) 0.38783(14)
N2A N 0.7043(3) 0.9306(3) 0.37606(15)
N3A N 0.5300(3) 0.8366(2) 0.26219(14)
N4A N 0.5680(3) 0.7588(3) 0.13741(14)
N5A N 0.6328(3) 0.6907(3) 0.01824(15)
N6A N 0.7553(3) 0.6563(3) -0.07500(16)
N7A N 0.8659(4) 0.7041(5) -0.00310(19)
N8A N 0.3823(3) 1.1143(2) 0.44565(13)
N9A N 0.4618(3) 1.1981(3) 0.40775(16)
N10A N 0.2382(2) 1.2354(2) 0.41458(14)
N11A N 0.1650(2) 1.4231(2) 0.40945(14)
N12A N 0.1150(2) 1.6228(2) 0.41186(14)
N13A N 0.2801(3) 1.8251(2) 0.45337(14)
N13_2 N 0.7199(3) 1.1749(2) 0.54663(14)
N13A_2 N 0.2801(3) 0.8251(2) 0.45337(14)
N14A N 0.1300(3) 1.8333(2) 0.42650(16)
N15A N 0.8757(4) 0.7985(4) -0.2033(2)
N16A N 0.6270(4) 0.5075(4) -0.2556(2)
N17A N 0.9856(4) 0.5486(4) -0.1761(2)
C1A C 0.4575(3) 0.8743(3) 0.31977(17)
H1A H 0.3504 0.8617 0.3116
C2A C 0.6832(3) 0.8738(3) 0.30118(19)
H2A H 0.7628 0.8600 0.2770
C3A C 0.4637(3) 0.7719(3) 0.17938(17)
C4A C 0.3042(4) 0.7297(4) 0.1474(2)
H3A H 0.2347 0.7402 0.1794
C5A C 0.2521(4) 0.6716(4) 0.0669(2)
H4A H 0.1454 0.6424 0.0432
C6A C 0.3575(4) 0.6564(4) 0.0210(2)
H5A H 0.3250 0.6173 -0.0338
C7A C 0.5127(4) 0.7019(3) 0.06014(18)
C8A C 0.6189(4) 0.6487(4) -0.06118(19)
H6A H 0.5253 0.6189 -0.0999
C9A C 0.7883(4) 0.7231(6) 0.0505(2)
H7A H 0.8336 0.7553 0.1049
C10A C 0.2499(3) 1.1372(3) 0.44801(16)
H8A H 0.1740 1.0926 0.4696
C11A C 0.3729(3) 1.2689(3) 0.3907(2)
H9A H 0.3983 1.3345 0.3653
C12A C 0.1160(3) 1.2953(3) 0.40656(16)
C13A C -0.0375(3) 1.2228(3) 0.39721(18)
H10A H -0.0652 1.1338 0.3966
C14A C -0.1476(3) 1.2879(3) 0.3888(2)
H11A H -0.2527 1.2428 0.3821
C15A C -0.1020(3) 1.4211(3) 0.39036(19)
H12A H -0.1749 1.4667 0.3838
C16A C 0.0551(3) 1.4826(3) 0.40195(16)
C17A C 0.2664(3) 1.6991(3) 0.44354(18)
H13A H 0.3491 1.6661 0.4565
C18A C 0.0365(3) 1.7126(3) 0.4032(2)
H14A H -0.0710 1.6897 0.3830
C19A C 0.9002(4) 0.9002(4) -0.2174(2)
C20A C 0.5295(4) 0.4606(3) -0.3133(2)
C21A C 1.0860(4) 0.5061(4) -0.1870(2)
O1 O 0.3490(16) 0.8600(14) 0.8263(9)
C22 C 0.4896(18) 0.8567(16) 0.8012(9)
O3 O 0.8293(15) 0.0592(13) 0.0101(8)
H15 H 0.8919 0.0191 -0.0064
H16 H 0.7328 0.0237 -0.0137
O2? O 0.3747(19) 0.8459(16) 0.9038(10)
C23? C 0.547(2) 0.901(2) 0.9236(13)
loop_
_geom_bond_atom_site_label_1
_geom_bond_atom_site_label_2
_geom_bond_site_symmetry_1
_geom_bond_site_symmetry_2
Zn1 N1 1_555 1_555
Zn2 N6 1_555 1_555
S1 C19 1_555 1_555
S2 C20 1_555 1_555
S3 C21 1_555 1_555
N1 N2 1_555 1_555
N2 C2 1_555 1_555
N3 C1 1_555 1_555
N4 C3 1_555 1_555
N5 C7 1_555 1_555
N6 N7 1_555 1_555
N7 C9 1_555 1_555
N8 Zn1 1_555 1_555
N9 N8 1_555 1_555
N10 C10 1_555 1_555
N11 C12 1_555 1_555
N12 C16 1_555 1_555
N13 N14 1_555 1_555
N14 C18 1_555 1_555
N15 Zn2 1_555 1_555
N16 Zn2 1_555 1_555
N17 Zn2 1_555 1_555
C1 N1 1_555 1_555
H1 C1 1_555 1_555
C2 N3 1_555 1_555
H2 C2 1_555 1_555
C3 N3 1_555 1_555
C4 C3 1_555 1_555
H3 C4 1_555 1_555
C5 C4 1_555 1_555
H4 C5 1_555 1_555
C6 C5 1_555 1_555
H5 C6 1_555 1_555
C7 N4 1_555 1_555
C8 N5 1_555 1_555
H6 C8 1_555 1_555
C9 N5 1_555 1_555
H7 C9 1_555 1_555
C10 N8 1_555 1_555
H8 C10 1_555 1_555
C11 N9 1_555 1_555
H9 C11 1_555 1_555
C12 N10 1_555 1_555
C13 C12 1_555 1_555
H10 C13 1_555 1_555
C14 C13 1_555 1_555
H11 C14 1_555 1_555
C15 C14 1_555 1_555
H12 C15 1_555 1_555
C16 N11 1_555 1_555
C17 N12 1_555 1_555
H13 C17 1_555 1_555
C18 N12 1_555 1_555
H14 C18 1_555 1_555
C19 N15 1_555 1_555
C20 N16 1_555 1_555
C21 N17 1_555 1_555
O1 C22 1_555 1_555
O3 H15 1_555 1_555
H16 O3 1_555 1_555
Zn1_2 N13 1_555 1_555
Zn1_3 N13A 1_555 1_555
Zn2A N6A 1_555 1_555
S1A C19A 1_555 1_555
S2A C20A 1_555 1_555
S3A C21A 1_555 1_555
N1A Zn1 1_555 1_555
N2A N1A 1_555 1_555
N3A C1A 1_555 1_555
N4A C3A 1_555 1_555
N5A C7A 1_555 1_555
N6A N7A 1_555 1_555
N7A C9A 1_555 1_555
N8A Zn1 1_555 1_555
N9A N8A 1_555 1_555
N10A C10A 1_555 1_555
N11A C12A 1_555 1_555
N12A C16A 1_555 1_555
N13A N14A 1_555 1_555
N13_2 Zn1 1_555 1_555
N13A_2 Zn1 1_555 1_555
N14A C18A 1_555 1_555
N15A Zn2A 1_555 1_555
N16A Zn2A 1_555 1_555
N17A Zn2A 1_555 1_555
C1A N1A 1_555 1_555
H1A C1A 1_555 1_555
C2A N2A 1_555 1_555
H2A C2A 1_555 1_555
C3A N3A 1_555 1_555
C4A C3A 1_555 1_555
H3A C4A 1_555 1_555
C5A C4A 1_555 1_555
H4A C5A 1_555 1_555
C6A C5A 1_555 1_555
H5A C6A 1_555 1_555
C7A N4A 1_555 1_555
C8A N5A 1_555 1_555
H6A C8A 1_555 1_555
C9A N5A 1_555 1_555
H7A C9A 1_555 1_555
C10A N8A 1_555 1_555
H8A C10A 1_555 1_555
C11A N9A 1_555 1_555
H9A C11A 1_555 1_555
C12A N10A 1_555 1_555
C13A C12A 1_555 1_555
H10A C13A 1_555 1_555
C14A C13A 1_555 1_555
H11A C14A 1_555 1_555
C15A C14A 1_555 1_555
H12A C15A 1_555 1_555
C16A N11A 1_555 1_555
C17A N12A 1_555 1_555
H13A C17A 1_555 1_555
C18A N12A 1_555 1_555
H14A C18A 1_555 1_555
C19A N15A 1_555 1_555
C20A N16A 1_555 1_555
C21A N17A 1_555 1_555
N6 C8 1_555 1_555
N10 C11 1_555 1_555
N13 C17 1_555 1_555
C6 C7 1_555 1_555
C15 C16 1_555 1_555
N3A C2A 1_555 1_555
N6A C8A 1_555 1_555
N10A C11A 1_555 1_555
N13A C17A 1_555 1_555
C6A C7A 1_555 1_555
C15A C16A 1_555 1_555

#END
