
#######################################################################
#
#                 Cambridge Crystallographic Data Centre
#                                CCDC 
#
#######################################################################
#
# If this CIF has been generated from an entry in the Cambridge 
# Structural Database, then it will include bibliographic, chemical, 
# crystal, experimental, refinement or atomic coordinate data resulting 
# from the CCDC's data processing and validation procedures.
#
#######################################################################

data_MIHNEX
_symmetry_cell_setting           triclinic
_symmetry_space_group_name_H-M   'P -1'
_symmetry_Int_Tables_number      2
_space_group_name_Hall           '-P 1'
loop_
_symmetry_equiv_pos_site_id
_symmetry_equiv_pos_as_xyz
1 x,y,z
2 -x,-y,-z
_cell_length_a                   7.0837(14)
_cell_length_b                   9.878(2)
_cell_length_c                   12.549(3)
_cell_angle_alpha                94.59(3)
_cell_angle_beta                 103.44(3)
_cell_angle_gamma                102.43(3)
_cell_volume                     826.167
loop_
_atom_site_label
_atom_site_type_symbol
_atom_site_fract_x
_atom_site_fract_y
_atom_site_fract_z
C1 C 1.5468(5) 0.0263(4) 0.4528(3)
O1 O 1.5216(4) 0.3799(3) 0.5945(2)
C2 C 1.5691(5) 0.4898(3) 0.5546(3)
O2 O 1.4932(4) 0.1284(3) 0.4121(2)
O3 O 1.7228(4) 0.5864(3) 0.5967(2)
Cd1 Cd 1.25966(4) 0.21004(2) 0.48248(2)
C3 C 0.7932(5) 0.1194(4) 0.0339(3)
C4 C 0.7156(5) 0.2917(4) -0.0620(3)
N1 N 0.9836(5) -0.0278(3) 0.2748(3)
N2 N 0.7201(5) 0.4367(3) -0.0582(3)
N3 N 0.7963(4) 0.2542(3) 0.0336(2)
N4 N 0.8827(4) 0.0858(3) 0.1387(2)
N5 N 1.0478(4) 0.1131(3) 0.3119(2)
C5 C 0.9868(5) 0.1780(4) 0.2296(3)
H1 H 1.0112 0.2748 0.2326
N6 N 0.6757(5) 0.6376(4) -0.1068(3)
N7 N 0.7412(5) 0.6534(3) 0.0079(3)
C6 C 0.8850(6) -0.0412(4) 0.1714(3)
H2 H 0.8247 -0.1262 0.1263
C7 C 0.6293(6) 0.0611(4) -0.1547(3)
H3 H 0.5734 -0.0039 -0.2181
C8 C 0.7112(6) 0.0179(4) -0.0567(3)
H4 H 0.7113 -0.0756 -0.0519
C9 C 0.6290(6) 0.2020(4) -0.1598(3)
H5 H 0.5739 0.2334 -0.2252
C10 C 0.7685(6) 0.5331(4) 0.0347(3)
H6 H 0.8144 0.5152 0.1066
C11 C 0.6643(6) 0.5092(4) -0.1435(3)
H7 H 0.6236 0.4715 -0.2178
O6 O 1.6625(4) -0.0368(3) 0.4218(2)
O7 O 1.0432(5) 0.2311(3) 0.5801(3)
H8 H 1.0269 0.1736 0.6341
H9 H 0.9683 0.2975 0.5672
C1A C 1.4532(5) -0.0263(4) 0.5472(3)
O1A O 1.4784(4) 0.6201(3) 0.4055(2)
C2A C 1.4309(5) 0.5102(3) 0.4454(3)
O2A O 1.5068(4) -0.1284(3) 0.5879(2)
O2A_2 O 1.5068(4) 0.8716(3) 0.5879(2)
O3A O 1.2772(4) 0.4136(3) 0.4033(2)
Cd1A Cd 1.74034(4) 0.78996(2) 0.51752(2)
Cd1A_2 Cd 1.74034(4) -0.21004(2) 0.51752(2)
C3A C 2.2068(5) 0.8806(4) 0.9661(3)
C4A C 2.2844(5) 0.7083(4) 1.0620(3)
N1A N 2.0164(5) 1.0278(3) 0.7252(3)
N2A N 2.2799(5) 0.5633(3) 1.0582(3)
N3A N 2.2037(4) 0.7458(3) 0.9664(2)
N4A N 2.1173(4) 0.9142(3) 0.8613(2)
N5A N 1.9522(4) 0.8869(3) 0.6881(2)
C5A C 2.0132(5) 0.8220(4) 0.7704(3)
H1A H 1.9888 0.7252 0.7674
N6A N 2.3243(5) 0.3624(4) 1.1068(3)
N7A N 2.2588(5) 0.3466(3) 0.9921(3)
C6A C 2.1150(6) 1.0412(4) 0.8286(3)
H2A H 2.1753 1.1262 0.8737
C7A C 2.3707(6) 0.9389(4) 1.1547(3)
H3A H 2.4266 1.0039 1.2181
C8A C 2.2888(6) 0.9821(4) 1.0567(3)
H4A H 2.2887 1.0756 1.0519
C9A C 2.3710(6) 0.7980(4) 1.1598(3)
H5A H 2.4261 0.7666 1.2252
C10A C 2.2315(6) 0.4669(4) 0.9653(3)
H6A H 2.1856 0.4848 0.8934
C11A C 2.3357(6) 0.4908(4) 1.1435(3)
H7A H 2.3764 0.5285 1.2178
O6A O 1.3375(4) 0.0368(3) 0.5782(2)
O6_2 O 1.6625(4) 0.9632(3) 0.4218(2)
O7A O 1.9568(5) 0.7689(3) 0.4199(3)
H8A H 1.9731 0.8264 0.3659
H9A H 2.0317 0.7025 0.4328
O4 O 0.0487(4) 0.4772(3) 0.6953(3)
O5 O 0.6387(5) 0.2969(4) 0.2744(3)
loop_
_geom_bond_atom_site_label_1
_geom_bond_atom_site_label_2
_geom_bond_site_symmetry_1
_geom_bond_site_symmetry_2
C1 O2 1_555 1_555
O1 C2 1_555 1_555
C2 O3 1_555 1_555
O2 Cd1 1_555 1_555
O3 Cd1A 1_555 1_555
Cd1 O1 1_555 1_555
C3 N3 1_555 1_555
C4 N2 1_555 1_555
N1 N5 1_555 1_555
N2 C10 1_555 1_555
N3 C4 1_555 1_555
N4 C3 1_555 1_555
N5 Cd1 1_555 1_555
C5 N4 1_555 1_555
H1 C5 1_555 1_555
N6 N7 1_555 1_555
N7 C10 1_555 1_555
C6 N1 1_555 1_555
H2 C6 1_555 1_555
C7 H3 1_555 1_555
C8 C3 1_555 1_555
H4 C8 1_555 1_555
C9 C4 1_555 1_555
H5 C9 1_555 1_555
C10 H6 1_555 1_555
C11 N2 1_555 1_555
H7 C11 1_555 1_555
O6 C1 1_555 1_555
O7 Cd1 1_555 1_555
H8 O7 1_555 1_555
H9 O7 1_555 1_555
C1A C1 1_555 1_555
O1A C2A 1_555 1_555
C2A C2 1_555 1_555
O2A C1A 1_555 1_555
O2A_2 Cd1A 1_555 1_555
O3A Cd1 1_555 1_555
Cd1A O1A 1_555 1_555
Cd1A_2 O6 1_555 1_555
C3A N3A 1_555 1_555
C4A N2A 1_555 1_555
N1A N5A 1_555 1_555
N2A C10A 1_555 1_555
N3A C4A 1_555 1_555
N4A C3A 1_555 1_555
N5A Cd1A 1_555 1_555
C5A N4A 1_555 1_555
H1A C5A 1_555 1_555
N6A N7A 1_555 1_555
N7A C10A 1_555 1_555
C6A N1A 1_555 1_555
H2A C6A 1_555 1_555
C7A H3A 1_555 1_555
C8A C3A 1_555 1_555
H4A C8A 1_555 1_555
C9A C4A 1_555 1_555
H5A C9A 1_555 1_555
C10A H6A 1_555 1_555
C11A N2A 1_555 1_555
H7A C11A 1_555 1_555
O6A Cd1 1_555 1_555
O6_2 Cd1A 1_555 1_555
O7A Cd1A 1_555 1_555
H8A O7A 1_555 1_555
H9A O7A 1_555 1_555
N4 C6 1_555 1_555
N5 C5 1_555 1_555
N6 C11 1_555 1_555
C7 C8 1_555 1_555
C7 C9 1_555 1_555
C1A O6A 1_555 1_555
C2A O3A 1_555 1_555
O2A Cd1A_2 1_555 1_555
N4A C6A 1_555 1_555
N5A C5A 1_555 1_555
N6A C11A 1_555 1_555
C7A C8A 1_555 1_555
C7A C9A 1_555 1_555

#END
