
#######################################################################
#
#                 Cambridge Crystallographic Data Centre
#                                CCDC 
#
#######################################################################
#
# If this CIF has been generated from an entry in the Cambridge 
# Structural Database, then it will include bibliographic, chemical, 
# crystal, experimental, refinement or atomic coordinate data resulting 
# from the CCDC's data processing and validation procedures.
#
#######################################################################

data_MIHNOH
_symmetry_cell_setting           monoclinic
_symmetry_space_group_name_H-M   'P 2/n'
_symmetry_Int_Tables_number      13
_space_group_name_Hall           '-P 2yac'
loop_
_symmetry_equiv_pos_site_id
_symmetry_equiv_pos_as_xyz
1 x,y,z
2 1/2-x,y,1/2-z
3 -x,-y,-z
4 1/2+x,-y,1/2+z
_cell_length_a                   13.3835(10)
_cell_length_b                   6.9617(5)
_cell_length_c                   15.6162(11)
_cell_angle_alpha                90
_cell_angle_beta                 110.1930(10)
_cell_angle_gamma                90
_cell_volume                     1365.56
loop_
_atom_site_label
_atom_site_type_symbol
_atom_site_fract_x
_atom_site_fract_y
_atom_site_fract_z
Zn1 Zn 0.71821(2) 0.17576(5) 0.59689(2)
N1 N 0.72458(18) 0.1805(3) 0.46895(15)
O1 O 0.62714(14) 0.3183(3) 0.64879(13)
O2 O 0.50242(15) 0.2424(3) 0.51882(13)
O3 O 0.63116(16) 0.1239(3) 0.81922(14)
O4 O 0.64240(16) 0.4345(3) 0.84332(14)
C1 C 0.5301(2) 0.2927(4) 0.59960(18)
C2 C 0.4496(2) 0.3165(4) 0.64597(18)
C3 C 0.3418(2) 0.3330(4) 0.59320(19)
H1 H 0.3215 0.3386 0.5300
C4 C 0.2649(2) 0.3409(4) 0.63361(19)
H2 H 0.1937 0.3524 0.5970
C5 C 0.2917(2) 0.3320(4) 0.72836(18)
C6 C 0.3999(2) 0.3189(4) 0.78043(18)
H3 H 0.4201 0.3151 0.8437
C7 C 0.4785(2) 0.3114(4) 0.74067(18)
C8 C 0.5917(2) 0.2903(4) 0.80345(18)
C9 C 0.8200(2) 0.1817(5) 0.45814(19)
H4 H 0.8807 0.1859 0.5102
C10 C 0.8329(2) 0.1770(5) 0.3753(2)
H5 H 0.9010 0.1778 0.3720
C11 C 0.7442(2) 0.1709(4) 0.29563(17)
C12 C 0.6465(2) 0.1690(4) 0.30681(18)
H6 H 0.5847 0.1647 0.2558
C13 C 0.6391(2) 0.1732(4) 0.39257(18)
H7 H 0.5719 0.1709 0.3976
O5 O 0.66792(19) -0.0929(3) 0.60449(14)
H8 H 0.609(2) -0.132(6) 0.567(2)
H9 H 0.689(3) -0.163(5) 0.6534(19)
Zn1A Zn 0.78179(2) 0.17576(5) -0.09689(2)
Zn1A_2 Zn 0.78179(2) 0.17576(5) 0.90311(2)
Zn1A_3 Zn -0.21821(2) 0.17576(5) 0.90311(2)
Zn1_2 Zn -0.28179(2) 0.17576(5) 0.59689(2)
N1A N 0.77542(18) 0.1805(3) 0.03105(15)
O1A O -0.12714(14) 0.3183(3) 0.85121(13)
O1A_2 O 0.87286(14) 0.3183(3) -0.14879(13)
O2A O -0.00242(15) 0.2424(3) 0.98118(13)
O3A O -0.13116(16) 0.1239(3) 0.68078(14)
O3A_2 O 0.86884(16) 0.1239(3) 0.68078(14)
O3_2 O 0.63116(16) 0.1239(3) -0.18078(14)
O4A O -0.14240(16) 0.4345(3) 0.65668(14)
O4A_2 O 0.85760(16) 0.4345(3) 0.65668(14)
O4_2 O 0.64240(16) 0.4345(3) -0.15668(14)
C1A C -0.0301(2) 0.2927(4) 0.90040(18)
C2A C 0.0504(2) 0.3165(4) 0.85403(18)
C3A C 0.1582(2) 0.3330(4) 0.90680(19)
H1A H 0.1785 0.3386 0.9700
C4A C 0.2351(2) 0.3409(4) 0.86639(19)
H2A H 0.3063 0.3524 0.9030
C5A C 0.2083(2) 0.3320(4) 0.77164(18)
C6A C 0.1001(2) 0.3189(4) 0.71957(18)
H3A H 0.0799 0.3151 0.6563
C7A C 0.0215(2) 0.3114(4) 0.75933(18)
C8A C -0.0917(2) 0.2903(4) 0.69655(18)
C9A C 0.6800(2) 0.1817(5) 0.04186(19)
H4A H 0.6193 0.1859 -0.0102
C10A C 0.6671(2) 0.1770(5) 0.1247(2)
H5A H 0.5990 0.1778 0.1280
C11A C 0.7558(2) 0.1709(4) 0.20437(17)
C12A C 0.8535(2) 0.1690(4) 0.19319(18)
H6A H 0.9153 0.1647 0.2442
C13A C 0.8609(2) 0.1732(4) 0.10743(18)
H7A H 0.9281 0.1709 0.1024
O5A O 0.83208(19) -0.0929(3) -0.10449(14)
H8A H 0.891(2) -0.132(6) -0.067(2)
H9A H 0.811(3) -0.163(5) -0.1534(19)
O6 O 0.7500 0.6736(4) 0.7500
H12 H 0.792(3) 0.604(5) 0.736(3)
H12A H 0.708(3) 0.604(5) 0.764(3)
O7 O 0.5827(3) 0.7751(5) 0.9087(3)
H10 H 0.600(3) 0.667(4) 0.890(3)
H11 H 0.596(4) 0.860(5) 0.875(3)
loop_
_geom_bond_atom_site_label_1
_geom_bond_atom_site_label_2
_geom_bond_site_symmetry_1
_geom_bond_site_symmetry_2
Zn1 N1 1_555 1_555
N1 C9 1_555 1_555
O1 Zn1 1_555 1_555
O2 C1 1_555 1_555
O3 C8 1_555 1_555
O4 C8 1_555 1_555
C1 O1 1_555 1_555
C2 C1 1_555 1_555
C3 C2 1_555 1_555
H1 C3 1_555 1_555
C4 C3 1_555 1_555
H2 C4 1_555 1_555
C5 C4 1_555 1_555
C6 C5 1_555 1_555
H3 C6 1_555 1_555
C7 C2 1_555 1_555
C8 C7 1_555 1_555
C9 H4 1_555 1_555
C10 C9 1_555 1_555
H5 C10 1_555 1_555
C11 C10 1_555 1_555
C12 C11 1_555 1_555
H6 C12 1_555 1_555
C13 N1 1_555 1_555
H7 C13 1_555 1_555
O5 Zn1 1_555 1_555
O6 H12 1_555 1_555
O7 H10 1_555 1_555
H8 O5 1_555 1_555
H9 O5 1_555 1_555
H11 O7 1_555 1_555
Zn1A N1A 1_555 1_555
Zn1A_2 O3 1_555 1_555
Zn1A_3 O1A 1_555 1_555
Zn1_2 O3A 1_555 1_555
N1A C9A 1_555 1_555
O1A C1A 1_555 1_555
O1A_2 Zn1A 1_555 1_555
O2A C1A 1_555 1_555
O3A C8A 1_555 1_555
O3A_2 Zn1 1_555 1_555
O3_2 Zn1A 1_555 1_555
O4A Zn1_2 1_555 1_555
O4A_2 Zn1 1_555 1_555
O4_2 Zn1A 1_555 1_555
C1A C2A 1_555 1_555
C2A C3A 1_555 1_555
C3A H1A 1_555 1_555
C4A C3A 1_555 1_555
H2A C4A 1_555 1_555
C5A C5 1_555 1_555
C6A C5A 1_555 1_555
H3A C6A 1_555 1_555
C7A C2A 1_555 1_555
C8A O4A 1_555 1_555
C9A H4A 1_555 1_555
C10A C9A 1_555 1_555
H5A C10A 1_555 1_555
C11A C11 1_555 1_555
C12A C11A 1_555 1_555
H6A C12A 1_555 1_555
C13A N1A 1_555 1_555
H7A C13A 1_555 1_555
O5A Zn1A 1_555 1_555
H8A O5A 1_555 1_555
H9A O5A 1_555 1_555
H12A O6 1_555 1_555
O4 Zn1A_2 1_555 1_555
C6 C7 1_555 1_555
C12 C13 1_555 1_555
C4A C5A 1_555 1_555
C6A C7A 1_555 1_555
C7A C8A 1_555 1_555
C10A C11A 1_555 1_555
C12A C13A 1_555 1_555

#END
