
#######################################################################
#
#                 Cambridge Crystallographic Data Centre
#                                CCDC 
#
#######################################################################
#
# If this CIF has been generated from an entry in the Cambridge 
# Structural Database, then it will include bibliographic, chemical, 
# crystal, experimental, refinement or atomic coordinate data resulting 
# from the CCDC's data processing and validation procedures.
#
#######################################################################

data_MIHNAT
_symmetry_cell_setting           orthorhombic
_symmetry_space_group_name_H-M   'P 21 21 21'
_symmetry_Int_Tables_number      19
_space_group_name_Hall           'P 2ac 2ab'
loop_
_symmetry_equiv_pos_site_id
_symmetry_equiv_pos_as_xyz
1 x,y,z
2 1/2-x,-y,1/2+z
3 1/2+x,1/2-y,-z
4 -x,1/2+y,1/2-z
_cell_length_a                   12.4410(15)
_cell_length_b                   13.1626(15)
_cell_length_c                   14.4671(17)
_cell_angle_alpha                90
_cell_angle_beta                 90
_cell_angle_gamma                90
_cell_volume                     2369.07
loop_
_atom_site_label
_atom_site_type_symbol
_atom_site_fract_x
_atom_site_fract_y
_atom_site_fract_z
Cd1 Cd 0.2264 0.2472 0.249
O1 O 0.1591(2) 0.1119(2) 0.1587(2)
O2 O 0.2963(3) 0.1035(2) 0.0665(2)
O3 O 0.1423(3) 0.0459(2) 0.0235(2)
O4 O 0.2920(2) 0.3814(2) 0.3403(2)
O5 O 0.1575(3) 0.3825(2) 0.4355(2)
O6 O 0.3119(3) 0.4392(2) 0.4782(2)
N1 N 0.4027(2) 0.1890(2) 0.2761(2)
N2 N 0.4353(3) 0.1765(2) 0.3669(2)
N3 N 0.5725(2) 0.1456(2) 0.2757(2)
N4 N 0.6969(2) 0.1421(2) 0.1564(2)
N5 N 0.8136(2) 0.1403(2) 0.0312(2)
N6 N 0.7820(2) 0.1709(2) -0.1144(2)
N7 N 0.8881(3) 0.1429(3) -0.1058(2)
N8 N 0.1756(3) 0.1612(2) 0.3825(2)
N9 N 0.0671(3) 0.1394(3) 0.3927(2)
N10 N 0.1443(2) 0.1319(2) 0.5284(2)
N11 N 0.2594(2) 0.1338(2) 0.6548(2)
N12 N 0.3845(2) 0.1385(2) 0.7742(2)
N13 N 0.5201(3) 0.1708(2) 0.8670(2)
N14 N 0.5528(2) 0.1863(2) 0.7751(2)
N15 N 0.2006(3) 0.0877(2) 0.0817(2)
N16 N 0.2526(3) 0.4009(2) 0.4192(2)
C1 C 0.4850(3) 0.1708(2) 0.2234(2)
H1 H 0.4844 0.1744 0.1592
C2 C 0.5355(3) 0.1498(3) 0.3651(2)
H2 H 0.5767 0.1355 0.4171
C3 C 0.6794(3) 0.1243(2) 0.2460(3)
C4 C 0.7558(3) 0.0882(3) 0.3080(3)
H3 H 0.7384 0.0749 0.3693
C5 C 0.8574(3) 0.0731(3) 0.2751(2)
H4 H 0.9112 0.0507 0.3148
C6 C 0.8809(3) 0.0910(3) 0.1827(2)
H5 H 0.9497 0.0817 0.1590
C7 C 0.7966(3) 0.1235(2) 0.1275(2)
C8 C 0.7395(3) 0.1677(2) -0.0327(2)
H6 H 0.6679 0.1822 -0.0196
C9 C 0.9049(3) 0.1245(3) -0.0188(2)
H7 H 0.9702 0.1035 0.0060
C10 C 0.2188(3) 0.1555(3) 0.4644(2)
H8 H 0.2912 0.1663 0.4770
C11 C 0.0510(3) 0.1232(4) 0.4798(3)
H9 H -0.0154 0.1077 0.5057
C12 C 0.1597(3) 0.1173(2) 0.6259(2)
C13 C 0.0750(3) 0.0902(3) 0.6818(2)
H10 H 0.0058 0.0829 0.6584
C14 C 0.0973(3) 0.0744(3) 0.7737(2)
H11 H 0.0428 0.0550 0.8140
C15 C 0.1999(3) 0.0872(3) 0.8059(2)
H12 H 0.2168 0.0757 0.8676
C16 C 0.2772(2) 0.1178(2) 0.7434(3)
C17 C 0.4207(3) 0.1426(3) 0.8632(2)
H13 H 0.3790 0.1271 0.9147
C18 C 0.4699(3) 0.1670(2) 0.7227(2)
H14 H 0.4696 0.1721 0.6586
Cd1B Cd 0.7264 0.2528 -0.249
Cd1B_2 Cd 0.7264 0.2528 0.751
N6B N 0.2820(2) 0.3291(2) 0.1144(2)
N14B N 0.0528(2) 0.3137(2) 0.2249(2)
loop_
_geom_bond_atom_site_label_1
_geom_bond_atom_site_label_2
_geom_bond_site_symmetry_1
_geom_bond_site_symmetry_2
Cd1 O1 1_555 1_555
O1 N15 1_555 1_555
O2 N15 1_555 1_555
O3 N15 1_555 1_555
O4 Cd1 1_555 1_555
O5 N16 1_555 1_555
O6 N16 1_555 1_555
N1 Cd1 1_555 1_555
N2 N1 1_555 1_555
N3 C1 1_555 1_555
N4 C3 1_555 1_555
N5 C7 1_555 1_555
N6 N7 1_555 1_555
N7 C9 1_555 1_555
N8 Cd1 1_555 1_555
N9 N8 1_555 1_555
N10 C10 1_555 1_555
N11 C12 1_555 1_555
N12 C16 1_555 1_555
N13 N14 1_555 1_555
N14 C18 1_555 1_555
N16 O4 1_555 1_555
C1 N1 1_555 1_555
H1 C1 1_555 1_555
C2 N2 1_555 1_555
H2 C2 1_555 1_555
C3 N3 1_555 1_555
C4 C3 1_555 1_555
H3 C4 1_555 1_555
C5 C4 1_555 1_555
H4 C5 1_555 1_555
C6 C5 1_555 1_555
H5 C6 1_555 1_555
C7 N4 1_555 1_555
C8 N5 1_555 1_555
H6 C8 1_555 1_555
C9 N5 1_555 1_555
H7 C9 1_555 1_555
C10 N8 1_555 1_555
H8 C10 1_555 1_555
C11 N9 1_555 1_555
H9 C11 1_555 1_555
C12 N10 1_555 1_555
C13 C12 1_555 1_555
H10 C13 1_555 1_555
C14 C13 1_555 1_555
H11 C14 1_555 1_555
C15 C14 1_555 1_555
H12 C15 1_555 1_555
C16 N11 1_555 1_555
C17 N12 1_555 1_555
H13 C17 1_555 1_555
C18 N12 1_555 1_555
H14 C18 1_555 1_555
Cd1B N6 1_555 1_555
Cd1B_2 N14 1_555 1_555
N6B Cd1 1_555 1_555
N14B Cd1 1_555 1_555
N3 C2 1_555 1_555
N6 C8 1_555 1_555
N10 C11 1_555 1_555
N13 C17 1_555 1_555
C6 C7 1_555 1_555
C15 C16 1_555 1_555

#END
