
#######################################################################
#
#                 Cambridge Crystallographic Data Centre
#                                CCDC 
#
#######################################################################
#
# If this CIF has been generated from an entry in the Cambridge 
# Structural Database, then it will include bibliographic, chemical, 
# crystal, experimental, refinement or atomic coordinate data resulting 
# from the CCDC's data processing and validation procedures.
#
#######################################################################

data_MIHNIB
_symmetry_cell_setting           triclinic
_symmetry_space_group_name_H-M   'P -1'
_symmetry_Int_Tables_number      2
_space_group_name_Hall           '-P 1'
loop_
_symmetry_equiv_pos_site_id
_symmetry_equiv_pos_as_xyz
1 x,y,z
2 -x,-y,-z
_cell_length_a                   4.7735(10)
_cell_length_b                   6.7584(14)
_cell_length_c                   12.087(3)
_cell_angle_alpha                85.662(3)
_cell_angle_beta                 88.264(3)
_cell_angle_gamma                82.804(3)
_cell_volume                     385.676
loop_
_atom_site_label
_atom_site_type_symbol
_atom_site_fract_x
_atom_site_fract_y
_atom_site_fract_z
Zn1 Zn 0.43725(10) -0.26203(7) 0.86070(4)
O1 O 0.3108(6) -0.0406(4) 0.7537(2)
O2 O 0.1005(6) 0.1392(4) 0.8869(2)
O3 O 0.2650(6) 0.5205(4) 0.8027(2)
O4 O -0.1530(6) 0.6840(4) 0.8380(2)
O5 O 0.4065(7) -0.2528(5) 1.0199(3)
C1 C 0.1385(8) 0.1027(6) 0.7879(4)
C2 C -0.0368(8) 0.2264(6) 0.7000(3)
C3 C -0.1384(9) 0.1340(6) 0.6143(3)
H1 H -0.0849 -0.0021 0.6087
C4 C -0.3178(10) 0.2385(6) 0.5366(4)
H2 H -0.3838 0.1714 0.4802
C5 C -0.4014(8) 0.4431(6) 0.5414(3)
C6 C -0.2953(8) 0.5349(6) 0.6262(3)
H3 H -0.3467 0.6715 0.6307
C7 C -0.1149(8) 0.4329(6) 0.7055(3)
C8 C 0.0035(9) 0.5509(6) 0.7890(3)
H4 H 0.533(6) -0.224(6) 1.057(3)
H5 H 0.260(8) -0.212(9) 1.057(4)
Zn1A Zn -1.43725(10) 1.26203(7) 0.13930(4)
Zn1_2 Zn 0.43725(10) 0.73797(7) 0.86070(4)
Zn1_3 Zn -0.56275(10) 0.73797(7) 0.86070(4)
Zn1A_2 Zn -1.43725(10) 0.26203(7) 0.13930(4)
Zn1A_3 Zn -0.43725(10) 0.26203(7) 0.13930(4)
O1A O -1.3108(6) 1.0406(4) 0.2463(2)
O2A O -1.1005(6) 0.8608(4) 0.1131(2)
O3A O -1.2650(6) 0.4795(4) 0.1973(2)
O3_2 O 0.2650(6) -0.4795(4) 0.8027(2)
O3A_2 O -1.2650(6) 1.4795(4) 0.1973(2)
O4A O -0.8470(6) 0.3160(4) 0.1620(2)
O4_2 O 0.8470(6) -0.3160(4) 0.8380(2)
O4A_2 O -1.8470(6) 1.3160(4) 0.1620(2)
O5A O -1.4065(7) 1.2528(5) -0.0199(3)
C1A C -1.1385(8) 0.8973(6) 0.2121(4)
C2A C -0.9632(8) 0.7736(6) 0.3000(3)
C3A C -0.8616(9) 0.8660(6) 0.3857(3)
H1A H -0.9151 1.0021 0.3913
C4A C -0.6822(10) 0.7615(6) 0.4634(4)
H2A H -0.6162 0.8286 0.5198
C5A C -0.5986(8) 0.5569(6) 0.4586(3)
C6A C -0.7047(8) 0.4651(6) 0.3738(3)
H3A H -0.6533 0.3285 0.3693
C7A C -0.8851(8) 0.5671(6) 0.2945(3)
C8A C -1.0035(9) 0.4491(6) 0.2110(3)
H4A H -1.533(6) 1.224(6) -0.057(3)
H5A H -1.260(8) 1.212(9) -0.057(4)
loop_
_geom_bond_atom_site_label_1
_geom_bond_atom_site_label_2
_geom_bond_site_symmetry_1
_geom_bond_site_symmetry_2
Zn1 O1 1_555 1_555
O1 C1 1_555 1_555
O2 C1 1_555 1_555
O3 C8 1_555 1_555
O4 C8 1_555 1_555
O5 Zn1 1_555 1_555
C1 C2 1_555 1_555
C2 C3 1_555 1_555
C3 H1 1_555 1_555
C4 C3 1_555 1_555
H2 C4 1_555 1_555
C5 C4 1_555 1_555
C6 C5 1_555 1_555
H3 C6 1_555 1_555
C7 C2 1_555 1_555
C8 C7 1_555 1_555
H4 O5 1_555 1_555
H5 O5 1_555 1_555
Zn1A O1A 1_555 1_555
Zn1_2 O3 1_555 1_555
Zn1_3 O4 1_555 1_555
Zn1A_2 O3A 1_555 1_555
Zn1A_3 O4A 1_555 1_555
O1A C1A 1_555 1_555
O2A C1A 1_555 1_555
O3A C8A 1_555 1_555
O3_2 Zn1 1_555 1_555
O3A_2 Zn1A 1_555 1_555
O4A C8A 1_555 1_555
O4_2 Zn1 1_555 1_555
O4A_2 Zn1A 1_555 1_555
O5A Zn1A 1_555 1_555
C1A C2A 1_555 1_555
C2A C3A 1_555 1_555
C3A H1A 1_555 1_555
C4A C3A 1_555 1_555
H2A C4A 1_555 1_555
C5A C5 1_555 1_555
C6A C5A 1_555 1_555
H3A C6A 1_555 1_555
C7A C2A 1_555 1_555
C8A C7A 1_555 1_555
H4A O5A 1_555 1_555
H5A O5A 1_555 1_555
C6 C7 1_555 1_555
C4A C5A 1_555 1_555
C6A C7A 1_555 1_555

#END
