
#######################################################################
#
#                 Cambridge Crystallographic Data Centre
#                                CCDC 
#
#######################################################################
#
# If this CIF has been generated from an entry in the Cambridge 
# Structural Database, then it will include bibliographic, chemical, 
# crystal, experimental, refinement or atomic coordinate data resulting 
# from the CCDC's data processing and validation procedures.
#
#######################################################################

data_MIHNUN
_symmetry_cell_setting           monoclinic
_symmetry_space_group_name_H-M   'P 21/c'
_symmetry_Int_Tables_number      14
_space_group_name_Hall           '-P 2ybc'
loop_
_symmetry_equiv_pos_site_id
_symmetry_equiv_pos_as_xyz
1 x,y,z
2 -x,1/2+y,1/2-z
3 -x,-y,-z
4 x,1/2-y,1/2+z
_cell_length_a                   12.0568(19)
_cell_length_b                   24.049(4)
_cell_length_c                   10.6693(17)
_cell_angle_alpha                90
_cell_angle_beta                 105.964(2)
_cell_angle_gamma                90
_cell_volume                     2974.3
loop_
_atom_site_label
_atom_site_type_symbol
_atom_site_fract_x
_atom_site_fract_y
_atom_site_fract_z
Zn1 Zn -0.08550(3) -0.051286(13) 0.11091(3)
N1 N 0.0562(2) -0.06123(10) 0.2994(2)
N2 N 0.4473(2) -0.14202(14) 0.8958(3)
N3 N -0.2062(2) -0.06306(10) -0.0788(2)
N4 N -0.5609(2) -0.11491(12) -0.7174(2)
O1 O -0.09369(18) 0.02997(8) 0.14573(18)
O2 O -0.04848(17) 0.06310(8) -0.02905(17)
O3 O -0.26665(18) 0.12426(9) -0.0651(2)
H1 H -0.3214 0.1255 -0.1307
O4 O -0.2220(2) 0.20493(10) -0.1405(2)
O5 O 0.45704(19) 0.23649(9) 0.8390(2)
O6 O 0.38665(18) 0.15702(9) 0.8918(2)
H2 H 0.4431 0.1589 0.9554
O7 O 0.13138(18) 0.13059(9) 0.83464(18)
O8 O 0.2127(2) 0.06319(9) 0.7520(2)
C1 C -0.0693(2) 0.06890(11) 0.0789(3)
C2 C -0.0583(2) 0.12608(11) 0.1364(2)
C3 C 0.0178(2) 0.13323(11) 0.2589(3)
H3 H 0.0493 0.1020 0.3069
C4 C 0.0486(2) 0.18570(12) 0.3124(3)
C5 C 0.0025(3) 0.23194(12) 0.2391(3)
H4 H 0.0240 0.2675 0.2711
C6 C -0.0761(3) 0.22510(13) 0.1178(3)
H5 H -0.1072 0.2563 0.0694
C7 C -0.1091(2) 0.17283(12) 0.0672(3)
C8 C -0.2040(3) 0.16935(13) -0.0583(3)
C9 C 0.1881(3) 0.11291(13) 0.7590(3)
C10 C 0.2099(2) 0.15442(11) 0.6624(2)
C11 C 0.1310(2) 0.15226(12) 0.5399(2)
H6 H 0.0759 0.1241 0.5221
C12 C 0.1318(2) 0.19058(11) 0.4434(2)
C13 C 0.2138(3) 0.23260(12) 0.4719(3)
H7 H 0.2140 0.2598 0.4101
C14 C 0.2954(2) 0.23425(12) 0.5918(3)
H8 H 0.3515 0.2619 0.6081
C15 C 0.2952(2) 0.19546(11) 0.6885(3)
C16 C 0.3878(2) 0.19881(12) 0.8140(3)
C17 C 0.0786(3) -0.02722(12) 0.4022(3)
H9 H 0.0432 0.0075 0.3917
C18 C 0.1509(3) -0.04043(13) 0.5231(3)
H10 H 0.1632 -0.0151 0.5914
C19 C 0.2051(2) -0.09184(12) 0.5414(3)
C20 C 0.1837(3) -0.12663(13) 0.4332(3)
H11 H 0.2196 -0.1612 0.4398
C21 C 0.1102(3) -0.11022(13) 0.3172(3)
H12 H 0.0972 -0.1345 0.2469
C22 C 0.4269(4) -0.08903(18) 0.8659(4)
H13 H 0.4689 -0.0626 0.9231
C23 C 0.3471(3) -0.07065(15) 0.7554(3)
H14 H 0.3352 -0.0328 0.7398
C24 C 0.2849(3) -0.10909(13) 0.6676(3)
C25 C 0.3029(3) -0.16450(14) 0.7016(3)
H15 H 0.2603 -0.1919 0.6479
C26 C 0.3843(3) -0.17890(16) 0.8155(3)
H16 H 0.3953 -0.2164 0.8367
C27 C -0.2409(3) -0.02257(13) -0.1661(3)
H17 H -0.2191 0.0137 -0.1408
C28 C -0.3073(3) -0.03166(14) -0.2913(3)
H18 H -0.3288 -0.0019 -0.3484
C29 C -0.3421(2) -0.08492(12) -0.3327(3)
C30 C -0.3056(3) -0.12693(13) -0.2424(3)
H19 H -0.3262 -0.1636 -0.2652
C31 C -0.2391(3) -0.11461(13) -0.1193(3)
H20 H -0.2156 -0.1437 -0.0606
C32 C -0.4886(3) -0.07234(16) -0.6918(3)
H21 H -0.4868 -0.0484 -0.7597
C33 C -0.4161(3) -0.06159(15) -0.5702(3)
H22 H -0.3673 -0.0309 -0.5575
C34 C -0.4157(2) -0.09625(13) -0.4670(3)
C35 C -0.4875(3) -0.14234(14) -0.4946(3)
H23 H -0.4885 -0.1680 -0.4298
C36 C -0.5577(3) -0.14951(14) -0.6200(3)
H24 H -0.6056 -0.1805 -0.6369
Zn1B Zn 0.08550(3) 0.051286(13) -0.11091(3)
Zn1B_2 Zn 0.08550(3) 0.051286(13) 0.88909(3)
O2B O 0.04848(17) -0.06310(8) 0.02905(17)
O7B O -0.13138(18) -0.13059(9) 0.16536(18)
O8B O -0.2127(2) -0.06319(9) 0.2480(2)
O9 O 0.3731(16) 0.0056(8) 0.9627(19)
loop_
_geom_bond_atom_site_label_1
_geom_bond_atom_site_label_2
_geom_bond_site_symmetry_1
_geom_bond_site_symmetry_2
Zn1 N1 1_555 1_555
N1 C17 1_555 1_555
N2 C22 1_555 1_555
N3 Zn1 1_555 1_555
N4 C32 1_555 1_555
O1 Zn1 1_555 1_555
O2 C1 1_555 1_555
O3 H1 1_555 1_555
O4 C8 1_555 1_555
O5 C16 1_555 1_555
O6 H2 1_555 1_555
O7 C9 1_555 1_555
O8 C9 1_555 1_555
C1 O1 1_555 1_555
C2 C1 1_555 1_555
C3 C2 1_555 1_555
H3 C3 1_555 1_555
C4 C3 1_555 1_555
C5 C4 1_555 1_555
H4 C5 1_555 1_555
C6 C5 1_555 1_555
H5 C6 1_555 1_555
C7 C2 1_555 1_555
C8 O3 1_555 1_555
C9 C10 1_555 1_555
C10 C11 1_555 1_555
C11 H6 1_555 1_555
C12 C4 1_555 1_555
C13 C12 1_555 1_555
H7 C13 1_555 1_555
C14 C13 1_555 1_555
H8 C14 1_555 1_555
C15 C10 1_555 1_555
C16 O6 1_555 1_555
C17 H9 1_555 1_555
C18 C17 1_555 1_555
H10 C18 1_555 1_555
C19 C18 1_555 1_555
C20 C19 1_555 1_555
H11 C20 1_555 1_555
C21 N1 1_555 1_555
H12 C21 1_555 1_555
C22 H13 1_555 1_555
C23 C22 1_555 1_555
H14 C23 1_555 1_555
C24 C19 1_555 1_555
C25 C24 1_555 1_555
H15 C25 1_555 1_555
C26 N2 1_555 1_555
H16 C26 1_555 1_555
C27 N3 1_555 1_555
H17 C27 1_555 1_555
C28 C27 1_555 1_555
H18 C28 1_555 1_555
C29 C28 1_555 1_555
C30 C29 1_555 1_555
H19 C30 1_555 1_555
C31 N3 1_555 1_555
H20 C31 1_555 1_555
C32 H21 1_555 1_555
C33 C32 1_555 1_555
H22 C33 1_555 1_555
C34 C29 1_555 1_555
C35 C34 1_555 1_555
H23 C35 1_555 1_555
C36 N4 1_555 1_555
H24 C36 1_555 1_555
Zn1B O2 1_555 1_555
Zn1B_2 O7 1_555 1_555
O2B Zn1 1_555 1_555
O7B Zn1 1_555 1_555
O8B Zn1 1_555 1_555
O8 Zn1B_2 1_555 1_555
C6 C7 1_555 1_555
C7 C8 1_555 1_555
C11 C12 1_555 1_555
C14 C15 1_555 1_555
C15 C16 1_555 1_555
C20 C21 1_555 1_555
C23 C24 1_555 1_555
C25 C26 1_555 1_555
C30 C31 1_555 1_555
C33 C34 1_555 1_555
C35 C36 1_555 1_555

#END
