
#######################################################################
#
#                 Cambridge Crystallographic Data Centre
#                                CCDC 
#
#######################################################################
#
# If this CIF has been generated from an entry in the Cambridge 
# Structural Database, then it will include bibliographic, chemical, 
# crystal, experimental, refinement or atomic coordinate data resulting 
# from the CCDC's data processing and validation procedures.
#
#######################################################################

data_MIHPAV
_symmetry_cell_setting           triclinic
_symmetry_space_group_name_H-M   'P -1'
_symmetry_Int_Tables_number      2
_space_group_name_Hall           '-P 1'
loop_
_symmetry_equiv_pos_site_id
_symmetry_equiv_pos_as_xyz
1 x,y,z
2 -x,-y,-z
_cell_length_a                   9.2671(17)
_cell_length_b                   10.8252(19)
_cell_length_c                   12.390(2)
_cell_angle_alpha                97.306(2)
_cell_angle_beta                 106.614(2)
_cell_angle_gamma                93.547(2)
_cell_volume                     1175.06
loop_
_atom_site_label
_atom_site_type_symbol
_atom_site_fract_x
_atom_site_fract_y
_atom_site_fract_z
Zn1 Zn 1.07463(9) 0.84857(7) 0.90194(7)
N1 N 0.8869(6) 0.6908(4) 0.8750(5)
N2 N 0.2375(6) -0.0013(4) 0.8991(5)
O1 O 0.9017(5) 0.9581(4) 0.8570(4)
O2 O 0.8742(5) 1.1535(4) 0.9275(3)
O3 O 0.5937(5) 0.9504(4) 0.7057(4)
H1 H 0.5303 0.8905 0.6959
O4 O 0.6187(5) 0.8504(4) 0.5442(4)
O5 O 1.4251(5) 1.6658(4) 0.5385(4)
H2 H 1.4802 1.7300 0.5444
O6 O 1.3947(5) 1.7666(4) 0.6983(4)
O7 O 1.0744(5) 1.7658(4) 0.7270(4)
O8 O 1.2124(5) 1.6935(4) 0.8781(4)
C1 C 0.8786(6) 1.0708(5) 0.8472(5)
C2 C 0.8635(7) 1.1105(5) 0.7328(5)
C3 C 0.9579(7) 1.2128(5) 0.7284(5)
H3 H 1.0125 1.2636 0.7960
C4 C 0.9732(7) 1.2417(5) 0.6254(5)
C5 C 0.8916(7) 1.1656(5) 0.5247(5)
H4 H 0.9038 1.1813 0.4556
C6 C 0.7918(7) 1.0661(6) 0.5278(6)
H5 H 0.7345 1.0171 0.4601
C7 C 0.7764(7) 1.0389(5) 0.6303(5)
C8 C 0.6572(7) 0.9382(6) 0.6261(6)
C9 C 1.3651(7) 1.6743(6) 0.6208(6)
C10 C 1.2619(7) 1.5642(5) 0.6217(5)
C11 C 1.2535(7) 1.4542(6) 0.5483(5)
H6 H 1.3114 1.4509 0.4980
C12 C 1.1615(8) 1.3506(6) 0.5485(6)
H7 H 1.1577 1.2780 0.4984
C13 C 1.0734(7) 1.3523(5) 0.6226(5)
C14 C 1.0823(7) 1.4636(5) 0.6962(5)
H8 H 1.0257 1.4660 0.7473
C15 C 1.1731(7) 1.5713(5) 0.6958(5)
C16 C 1.1585(7) 1.6877(5) 0.7721(6)
C17 C 0.7852(8) 0.6500(6) 0.7746(6)
H9 H 0.7810 0.6961 0.7155
C18 C 0.6857(8) 0.5432(6) 0.7529(6)
H10 H 0.6169 0.5199 0.6808
C19 C 0.6871(8) 0.4710(7) 0.8366(7)
C20 C 0.7887(9) 0.5172(7) 0.9415(7)
H11 H 0.7908 0.4771 1.0039
C21 C 0.8871(9) 0.6223(6) 0.9542(6)
H12 H 0.9593 0.6462 1.0247
C22 C 0.5880(9) 0.3454(7) 0.8171(7)
H13 H 0.5231 0.3295 0.7389
H14 H 0.6528 0.2782 0.8285
C23 C 0.4979(10) 0.3458(7) 0.8913(7)
H15 H 0.4223 0.4037 0.8708
H16 H 0.5614 0.3767 0.9682
C24 C 0.2439(8) 0.0329(6) 0.8012(6)
H17 H 0.1877 -0.0176 0.7340
C25 C 0.3276(8) 0.1373(6) 0.7930(6)
H18 H 0.3258 0.1566 0.7217
C26 C 0.4156(8) 0.2152(7) 0.8905(7)
C27 C 0.4114(9) 0.1796(7) 0.9916(7)
H19 H 0.4677 0.2283 1.0598
C28 C 0.3249(8) 0.0727(7) 0.9937(6)
H20 H 0.3269 0.0504 1.0641
Zn1_2 Zn 0.07463(9) -0.15143(7) 0.90194(7)
Zn1A Zn 0.92537(9) 1.15143(7) 1.09806(7)
Zn1_3 Zn 1.07463(9) 1.84857(7) 0.90194(7)
N2_2 N 1.2375(6) 0.9987(4) 0.8991(5)
O2A O 1.1258(5) 0.8465(4) 1.0725(3)
O7_2 O 1.0744(5) 0.7658(4) 0.7270(4)
O8_2 O 1.2124(5) 0.6935(4) 0.8781(4)
loop_
_geom_bond_atom_site_label_1
_geom_bond_atom_site_label_2
_geom_bond_site_symmetry_1
_geom_bond_site_symmetry_2
Zn1 N1 1_555 1_555
N1 C17 1_555 1_555
N2 C24 1_555 1_555
O1 Zn1 1_555 1_555
O2 C1 1_555 1_555
O3 H1 1_555 1_555
O4 C8 1_555 1_555
O5 H2 1_555 1_555
O6 C9 1_555 1_555
O7 C16 1_555 1_555
O8 C16 1_555 1_555
C1 O1 1_555 1_555
C2 C1 1_555 1_555
C3 C2 1_555 1_555
H3 C3 1_555 1_555
C4 C3 1_555 1_555
C5 C4 1_555 1_555
H4 C5 1_555 1_555
C6 C5 1_555 1_555
H5 C6 1_555 1_555
C7 C2 1_555 1_555
C8 O3 1_555 1_555
C9 O5 1_555 1_555
C10 C9 1_555 1_555
C11 C10 1_555 1_555
H6 C11 1_555 1_555
C12 C11 1_555 1_555
H7 C12 1_555 1_555
C13 C4 1_555 1_555
C14 C13 1_555 1_555
H8 C14 1_555 1_555
C15 C10 1_555 1_555
C16 C15 1_555 1_555
C17 H9 1_555 1_555
C18 C17 1_555 1_555
H10 C18 1_555 1_555
C19 C18 1_555 1_555
C20 C19 1_555 1_555
H11 C20 1_555 1_555
C21 N1 1_555 1_555
H12 C21 1_555 1_555
C22 C19 1_555 1_555
H13 C22 1_555 1_555
H14 C22 1_555 1_555
C23 C22 1_555 1_555
H15 C23 1_555 1_555
H16 C23 1_555 1_555
C24 H17 1_555 1_555
C25 C24 1_555 1_555
H18 C25 1_555 1_555
C26 C23 1_555 1_555
C27 C26 1_555 1_555
H19 C27 1_555 1_555
C28 N2 1_555 1_555
H20 C28 1_555 1_555
Zn1_2 N2 1_555 1_555
Zn1A O2 1_555 1_555
Zn1_3 O7 1_555 1_555
N2_2 Zn1 1_555 1_555
O2A Zn1 1_555 1_555
O7_2 Zn1 1_555 1_555
O8_2 Zn1 1_555 1_555
O8 Zn1_3 1_555 1_555
C6 C7 1_555 1_555
C7 C8 1_555 1_555
C12 C13 1_555 1_555
C14 C15 1_555 1_555
C20 C21 1_555 1_555
C25 C26 1_555 1_555
C27 C28 1_555 1_555

#END
