
#######################################################################
#
#                 Cambridge Crystallographic Data Centre
#                                CCDC 
#
#######################################################################
#
# If this CIF has been generated from an entry in the Cambridge 
# Structural Database, then it will include bibliographic, chemical, 
# crystal, experimental, refinement or atomic coordinate data resulting 
# from the CCDC's data processing and validation procedures.
#
#######################################################################

data_MIJDEQ
_symmetry_cell_setting           monoclinic
_symmetry_space_group_name_H-M   'P 21/n'
_symmetry_Int_Tables_number      14
_space_group_name_Hall           '-P 2yn'
loop_
_symmetry_equiv_pos_site_id
_symmetry_equiv_pos_as_xyz
1 x,y,z
2 1/2-x,1/2+y,1/2-z
3 -x,-y,-z
4 1/2+x,1/2-y,1/2+z
_cell_length_a                   18.2505(9)
_cell_length_b                   19.0852(7)
_cell_length_c                   23.3236(11)
_cell_angle_alpha                90
_cell_angle_beta                 101.2170(10)
_cell_angle_gamma                90
_cell_volume                     7968.76
loop_
_atom_site_label
_atom_site_type_symbol
_atom_site_fract_x
_atom_site_fract_y
_atom_site_fract_z
Cu1 Cu 0.18296(3) 0.26879(3) 0.23417(2)
Cu2 Cu 0.30752(3) 0.20285(3) 0.28340(2)
Cu3 Cu 0.03052(3) 0.50147(3) 0.55702(2)
S1 S 0.25115(9) 0.28716(9) -0.11639(6)
S2 S 0.19904(10) 0.10599(9) 0.56806(7)
S3 S -0.10698(10) -0.07264(10) 0.15420(11)
N1 N 0.2400(3) 0.2856(3) -0.04898(19)
H1 H 0.2097 0.3162 -0.0397
N2 N 0.2246(3) 0.1880(3) 0.56661(19)
H2 H 0.2134 0.2071 0.5972
N3 N -0.0482(3) -0.0103(3) 0.1776(3)
H3 H -0.0670 0.0309 0.1784
O1 O 0.21760(19) 0.25644(19) 0.16073(14)
O2 O 0.3221(2) 0.1995(2) 0.20128(14)
O3 O 0.4509(2) 0.06312(19) 0.06772(14)
O4 O 0.4021(2) 0.0675(2) -0.02801(15)
O5 O 0.1994(3) 0.3391(3) -0.14385(19)
O6 O 0.2470(3) 0.2172(3) -0.13851(18)
O7 O 0.14561(19) 0.17084(17) 0.22871(16)
O8 O 0.25148(19) 0.11480(17) 0.26802(16)
O9 O 0.1515(2) -0.20111(17) 0.20904(16)
O10 O 0.2556(2) -0.14494(17) 0.25093(16)
O11 O -0.1785(3) -0.0381(3) 0.1406(4)
O12 O -0.0939(3) -0.1295(3) 0.1940(2)
O13 O 0.1640(2) 0.27476(19) 0.31350(14)
O14 O 0.2663(2) 0.21532(18) 0.35585(14)
O15 O 0.0373(2) 0.41937(19) 0.43932(15)
O16 O 0.0853(2) 0.41965(19) 0.53472(15)
O17 O 0.1952(3) 0.0779(2) 0.5104(2)
O18 O 0.2480(3) 0.0751(3) 0.6163(2)
C1 C 0.2758(3) 0.2231(2) 0.1582(2)
C2 C 0.2933(3) 0.2100(2) 0.0987(2)
C3 C 0.3424(3) 0.1576(3) 0.0905(2)
H4 H 0.3671 0.1316 0.1220
C4 C 0.3545(3) 0.1442(3) 0.0345(2)
C5 C 0.3206(3) 0.1847(3) -0.0125(2)
H5 H 0.3289 0.1750 -0.0498
C6 C 0.2739(3) 0.2401(3) -0.0036(2)
C7 C 0.2592(3) 0.2512(3) 0.0518(2)
H6 H 0.2263 0.2865 0.0577
C8 C 0.4065(3) 0.0869(2) 0.0237(2)
C9 C 0.3419(4) 0.3178(3) -0.1167(2)
C10 C 0.3577(4) 0.3875(4) -0.1098(3)
H7 H 0.3218 0.4186 -0.1016
C11 C 0.4279(5) 0.4118(4) -0.1150(4)
H8 H 0.4378 0.4595 -0.1112
C12 C 0.4825(4) 0.3680(5) -0.1256(3)
C13 C 0.4665(5) 0.2979(5) -0.1309(4)
H9 H 0.5032 0.2667 -0.1374
C14 C 0.3963(4) 0.2726(4) -0.1268(4)
H10 H 0.3863 0.2249 -0.1308
C15 C 0.5592(5) 0.3968(5) -0.1328(4)
H11 H 0.5608 0.4464 -0.1262
H12 H 0.5667 0.3872 -0.1717
H13 H 0.5980 0.3745 -0.1050
C16 C 0.2076(3) 0.2488(2) 0.3569(2)
C17 C 0.1864(3) 0.2607(2) 0.4155(2)
C18 C 0.1394(3) 0.3161(2) 0.4220(2)
H14 H 0.1175 0.3423 0.3895
C19 C 0.1249(3) 0.3326(3) 0.4766(2)
C20 C 0.1532(3) 0.2899(3) 0.5246(2)
H15 H 0.1433 0.3004 0.5612
C21 C 0.1964(3) 0.2316(3) 0.5171(2)
C22 C 0.2157(3) 0.2192(3) 0.4633(2)
H16 H 0.2485 0.1830 0.4593
C23 C 0.0791(3) 0.3953(2) 0.4844(2)
C24 C 0.1086(4) 0.1046(4) 0.5839(3)
C25 C 0.0470(5) 0.1082(5) 0.5396(4)
H17 H 0.0529 0.1105 0.5009
C26 C -0.0239(5) 0.1085(6) 0.5525(4)
H18 H -0.0653 0.1122 0.5223
C27 C -0.0343(5) 0.1033(5) 0.6095(4)
C28 C 0.0279(5) 0.0983(4) 0.6530(3)
H19 H 0.0222 0.0936 0.6915
C29 C 0.0982(4) 0.1001(4) 0.6407(3)
H20 H 0.1396 0.0982 0.6711
C30 C -0.1123(5) 0.1037(7) 0.6233(5)
H21 H -0.1089 0.0992 0.6647
H22 H -0.1405 0.0652 0.6037
H23 H -0.1367 0.1469 0.6101
C31 C 0.1835(3) 0.1164(2) 0.24343(19)
C32 C 0.1443(3) 0.0473(2) 0.2297(2)
C33 C 0.1840(3) -0.0158(2) 0.2356(2)
H24 H 0.2354 -0.0159 0.2492
C34 C 0.1461(3) -0.0785(2) 0.2210(2)
C35 C 0.0686(3) -0.0789(3) 0.2018(3)
H25 H 0.0433 -0.1210 0.1925
C36 C 0.0292(3) -0.0153(3) 0.1967(3)
C37 C 0.0679(3) 0.0468(3) 0.2105(2)
H26 H 0.0419 0.0890 0.2068
C38 C 0.1876(3) -0.1474(2) 0.2273(2)
C39 C -0.0851(5) -0.1009(5) 0.0875(4)
C40 C -0.0856(6) -0.1705(5) 0.0755(4)
H27 H -0.0939 -0.2027 0.1035
C41 C -0.0738(6) -0.1943(6) 0.0212(5)
H28 H -0.0729 -0.2422 0.0139
C42 C -0.0632(7) -0.1470(7) -0.0216(5)
C43 C -0.0606(7) -0.0805(7) -0.0079(5)
H29 H -0.0512 -0.0483 -0.0355
C44 C -0.0713(6) -0.0553(6) 0.0460(5)
H30 H -0.0690 -0.0074 0.0535
C45 C -0.0504(8) -0.1741(8) -0.0808(5)
H31 H -0.0948 -0.1972 -0.1009
H32 H -0.0095 -0.2067 -0.0746
H33 H -0.0389 -0.1355 -0.1039
N4 N 0.4088(2) 0.1520(2) 0.3247(2)
C46 C 0.4269(4) 0.0905(4) 0.3030(4)
H34 H 0.3941 0.0719 0.2711
C47 C 0.4909(5) 0.0535(5) 0.3251(5)
H35 H 0.5017 0.0119 0.3077
C48 C 0.5374(6) 0.0785(6) 0.3722(5)
H36 H 0.5802 0.0538 0.3889
C49 C 0.5212(6) 0.1398(6) 0.3950(5)
H37 H 0.5538 0.1588 0.4269
C50 C 0.4549(5) 0.1755(5) 0.3706(4)
H38 H 0.4435 0.2170 0.3878
N5 N 0.0917(2) 0.5025(2) 0.64654(15)
C51 C 0.1448(3) 0.5544(3) 0.6636(2)
H39 H 0.1499 0.5907 0.6380
C52 C 0.1902(3) 0.5522(4) 0.7188(2)
H40 H 0.2258 0.5870 0.7302
C53 C 0.1825(4) 0.4980(4) 0.75697(19)
H41 H 0.2129 0.4965 0.7939
C54 C 0.1294(5) 0.4460(4) 0.7399(2)
H42 H 0.1242 0.4097 0.7655
C55 C 0.0840(4) 0.4482(3) 0.6847(2)
H43 H 0.0484 0.4135 0.6733
O19 O 0.0769(2) 0.3135(3) 0.1937(2)
C56 C 0.0191(5) 0.2980(6) 0.2082(5)
H44 H 0.0232 0.2674 0.2397
N6 N -0.0499(5) 0.3192(7) 0.1849(6)
C57 C -0.1128(10) 0.3027(16) 0.2103(14)
H45 H -0.0960 0.2848 0.2491
H46 H -0.1429 0.2680 0.1868
H47 H -0.1420 0.3442 0.2120
C58 C -0.0560(8) 0.3524(9) 0.1264(7)
H48 H -0.0069 0.3600 0.1185
H49 H -0.0815 0.3964 0.1259
H50 H -0.0835 0.3221 0.0970
Cu1A Cu 0.31704(3) -0.23121(3) 0.26583(2)
Cu2A Cu 0.19248(3) -0.29715(3) 0.21660(2)
Cu3A Cu 0.46948(3) 0.00147(3) -0.05702(2)
Cu3B Cu -0.03052(3) 0.49853(3) 0.44298(2)
Cu3C Cu 0.53052(3) -0.00147(3) 0.05702(2)
O3C O -0.0491(2) 0.43688(19) 0.56772(14)
O4A O 0.0979(2) 0.5675(2) 0.52801(15)
O9A O 0.3485(2) 0.29889(17) 0.29096(16)
O10A O 0.2444(2) 0.35506(17) 0.24907(16)
O15B O -0.0373(2) 0.58063(19) 0.56068(15)
O20 O 0.3308(3) -0.1054(3) 0.5002(2)
C59 C 0.3081(5) -0.0525(5) 0.4770(4)
H51 H 0.2774 -0.0266 0.4965
N7 N 0.3190(5) -0.0250(4) 0.4290(3)
C60 C 0.2866(7) 0.0378(5) 0.3996(5)
H52 H 0.2832 0.0734 0.4280
H53 H 0.2375 0.0275 0.3778
H54 H 0.3175 0.0542 0.3734
C61 C 0.3476(8) -0.0711(6) 0.3873(5)
H55 H 0.3514 -0.1183 0.4019
H56 H 0.3960 -0.0552 0.3827
H57 H 0.3139 -0.0699 0.3501
O21 O -0.1857(3) -0.2516(3) 0.3306(2)
C62 C -0.1463(4) -0.2555(4) 0.2931(3)
H58 H -0.1692 -0.2456 0.2547
N8 N -0.0756(4) -0.2724(4) 0.3026(3)
C63 C -0.0313(8) -0.2767(12) 0.3630(4)
C64 C -0.0336(6) -0.2757(5) 0.2548(4)
H59 H -0.0666 -0.2661 0.2183
H60 H -0.0124 -0.3216 0.2536
H61 H 0.0057 -0.2414 0.2614
O22 O -0.1520(6) 0.1463(6) 0.0553(4)
C66 C -0.1911(8) 0.0981(7) 0.0321(6)
H62 H -0.2185 0.0743 0.0556
N9 N -0.1986(6) 0.0764(6) -0.0211(5)
C67 C -0.1557(8) 0.1124(8) -0.0589(6)
H63 H -0.1258 0.1484 -0.0370
H64 H -0.1893 0.1331 -0.0913
H65 H -0.1238 0.0794 -0.0731
C68 C -0.2476(10) 0.0176(8) -0.0423(8)
H66 H -0.2714 0.0013 -0.0115
H67 H -0.2187 -0.0197 -0.0543
H68 H -0.2849 0.0325 -0.0749
C69 C -0.1660(9) 0.1228(9) 0.2091(7)
H69 H -0.1419 0.1142 0.2488
H70 H -0.1920 0.1667 0.2066
H71 H -0.2009 0.0858 0.1960
O23 O -0.1071(4) 0.1247(4) 0.1737(3)
H72 H -0.1268 0.1322 0.1381
O24 O 0.4055(16) -0.0212(15) 0.1836(13)
C65? C -0.047(2) -0.319(2) 0.3521(14)
O25? O 0.3892(18) -0.0492(18) 0.2154(15)
loop_
_geom_bond_atom_site_label_1
_geom_bond_atom_site_label_2
_geom_bond_site_symmetry_1
_geom_bond_site_symmetry_2
Cu1 Cu2 1_555 1_555
Cu2 O2 1_555 1_555
Cu3 O16 1_555 1_555
S1 N1 1_555 1_555
S2 N2 1_555 1_555
S3 N3 1_555 1_555
N1 H1 1_555 1_555
N2 H2 1_555 1_555
N3 H3 1_555 1_555
O1 Cu1 1_555 1_555
O2 C1 1_555 1_555
O3 C8 1_555 1_555
O4 C8 1_555 1_555
O5 S1 1_555 1_555
O6 S1 1_555 1_555
O7 Cu1 1_555 1_555
O8 Cu2 1_555 1_555
O9 C38 1_555 1_555
O10 C38 1_555 1_555
O11 S3 1_555 1_555
O12 S3 1_555 1_555
O13 Cu1 1_555 1_555
O14 Cu2 1_555 1_555
O15 C23 1_555 1_555
O16 C23 1_555 1_555
O17 S2 1_555 1_555
O18 S2 1_555 1_555
C1 O1 1_555 1_555
C2 C1 1_555 1_555
C3 C2 1_555 1_555
H4 C3 1_555 1_555
C4 C3 1_555 1_555
C5 C4 1_555 1_555
H5 C5 1_555 1_555
C6 N1 1_555 1_555
C7 C2 1_555 1_555
H6 C7 1_555 1_555
C8 C4 1_555 1_555
C9 S1 1_555 1_555
C10 C9 1_555 1_555
H7 C10 1_555 1_555
C11 C10 1_555 1_555
H8 C11 1_555 1_555
C12 C11 1_555 1_555
C13 C12 1_555 1_555
H9 C13 1_555 1_555
C14 C9 1_555 1_555
H10 C14 1_555 1_555
C15 C12 1_555 1_555
H11 C15 1_555 1_555
H12 C15 1_555 1_555
H13 C15 1_555 1_555
C16 O13 1_555 1_555
C17 C16 1_555 1_555
C18 C17 1_555 1_555
H14 C18 1_555 1_555
C19 C18 1_555 1_555
C20 C19 1_555 1_555
H15 C20 1_555 1_555
C21 N2 1_555 1_555
C22 C17 1_555 1_555
H16 C22 1_555 1_555
C23 C19 1_555 1_555
C24 S2 1_555 1_555
C25 C24 1_555 1_555
H17 C25 1_555 1_555
C26 C25 1_555 1_555
H18 C26 1_555 1_555
C27 C26 1_555 1_555
C28 C27 1_555 1_555
H19 C28 1_555 1_555
C29 C24 1_555 1_555
H20 C29 1_555 1_555
C30 C27 1_555 1_555
H21 C30 1_555 1_555
H22 C30 1_555 1_555
H23 C30 1_555 1_555
C31 O7 1_555 1_555
C32 C31 1_555 1_555
C33 C32 1_555 1_555
H24 C33 1_555 1_555
C34 C33 1_555 1_555
C35 C34 1_555 1_555
H25 C35 1_555 1_555
C36 N3 1_555 1_555
C37 C32 1_555 1_555
H26 C37 1_555 1_555
C38 C34 1_555 1_555
C39 S3 1_555 1_555
C40 C39 1_555 1_555
H27 C40 1_555 1_555
C41 C40 1_555 1_555
H28 C41 1_555 1_555
C42 C41 1_555 1_555
C43 C42 1_555 1_555
H29 C43 1_555 1_555
C44 C39 1_555 1_555
H30 C44 1_555 1_555
C45 C42 1_555 1_555
H31 C45 1_555 1_555
H32 C45 1_555 1_555
H33 C45 1_555 1_555
N4 Cu2 1_555 1_555
C46 N4 1_555 1_555
H34 C46 1_555 1_555
C47 C46 1_555 1_555
H35 C47 1_555 1_555
C48 C47 1_555 1_555
H36 C48 1_555 1_555
C49 C48 1_555 1_555
H37 C49 1_555 1_555
C50 N4 1_555 1_555
H38 C50 1_555 1_555
N5 Cu3 1_555 1_555
C51 N5 1_555 1_555
H39 C51 1_555 1_555
C52 C51 1_555 1_555
H40 C52 1_555 1_555
C53 C52 1_555 1_555
H41 C53 1_555 1_555
C54 C53 1_555 1_555
H42 C54 1_555 1_555
C55 N5 1_555 1_555
H43 C55 1_555 1_555
O19 Cu1 1_555 1_555
C56 O19 1_555 1_555
H44 C56 1_555 1_555
N6 C56 1_555 1_555
C57 N6 1_555 1_555
H45 C57 1_555 1_555
H46 C57 1_555 1_555
H47 C57 1_555 1_555
C58 N6 1_555 1_555
H48 C58 1_555 1_555
H49 C58 1_555 1_555
H50 C58 1_555 1_555
O20 C59 1_555 1_555
C59 H51 1_555 1_555
N7 C59 1_555 1_555
C60 N7 1_555 1_555
H52 C60 1_555 1_555
H53 C60 1_555 1_555
H54 C60 1_555 1_555
C61 N7 1_555 1_555
H55 C61 1_555 1_555
H56 C61 1_555 1_555
H57 C61 1_555 1_555
O21 C62 1_555 1_555
C62 H58 1_555 1_555
N8 C62 1_555 1_555
C63 N8 1_555 1_555
C64 N8 1_555 1_555
H59 C64 1_555 1_555
H60 C64 1_555 1_555
H61 C64 1_555 1_555
O22 C66 1_555 1_555
C66 H62 1_555 1_555
N9 C66 1_555 1_555
C67 N9 1_555 1_555
H63 C67 1_555 1_555
H64 C67 1_555 1_555
H65 C67 1_555 1_555
C68 N9 1_555 1_555
H66 C68 1_555 1_555
H67 C68 1_555 1_555
H68 C68 1_555 1_555
C69 H69 1_555 1_555
H70 C69 1_555 1_555
H71 C69 1_555 1_555
O23 C69 1_555 1_555
H72 O23 1_555 1_555
Cu1A O10 1_555 1_555
Cu2A O9 1_555 1_555
Cu3A O4 1_555 1_555
Cu3B Cu3 1_555 1_555
Cu3C O3 1_555 1_555
O3C Cu3 1_555 1_555
O4A Cu3 1_555 1_555
O9A Cu2 1_555 1_555
O10A Cu1 1_555 1_555
O15B Cu3 1_555 1_555
O8 C31 1_555 1_555
O14 C16 1_555 1_555
O15 Cu3B 1_555 1_555
C5 C6 1_555 1_555
C6 C7 1_555 1_555
C13 C14 1_555 1_555
C20 C21 1_555 1_555
C21 C22 1_555 1_555
C28 C29 1_555 1_555
C35 C36 1_555 1_555
C36 C37 1_555 1_555
C43 C44 1_555 1_555
C49 C50 1_555 1_555
C54 C55 1_555 1_555
Cu1A Cu2A 1_555 1_555
Cu3A Cu3C 1_555 1_555

#END
