
#######################################################################
#
#                 Cambridge Crystallographic Data Centre
#                                CCDC 
#
#######################################################################
#
# If this CIF has been generated from an entry in the Cambridge 
# Structural Database, then it will include bibliographic, chemical, 
# crystal, experimental, refinement or atomic coordinate data resulting 
# from the CCDC's data processing and validation procedures.
#
#######################################################################

data_MIJDIS
_symmetry_cell_setting           monoclinic
_symmetry_space_group_name_H-M   'P 21/n'
_symmetry_Int_Tables_number      14
_space_group_name_Hall           '-P 2yn'
loop_
_symmetry_equiv_pos_site_id
_symmetry_equiv_pos_as_xyz
1 x,y,z
2 1/2+x,1/2-y,1/2+z
3 -x,-y,-z
4 1/2-x,1/2+y,1/2-z
_cell_length_a                   20.899(4)
_cell_length_b                   8.958(2)
_cell_length_c                   24.523(2)
_cell_angle_alpha                90
_cell_angle_beta                 99.139(1)
_cell_angle_gamma                90
_cell_volume                     4532.75
loop_
_atom_site_label
_atom_site_type_symbol
_atom_site_fract_x
_atom_site_fract_y
_atom_site_fract_z
Ag1 Ag 0.242875(9) 0.25974(2) 1.002720(8)
S1 S 0.24167(3) 0.04408(6) 1.07837(2)
S2 S 0.31466(3) 0.05001(6) 0.97093(2)
S3 S 0.33912(3) -0.25332(6) 0.91471(2)
S4 S 0.24532(3) -0.53096(6) 0.92604(2)
S5 S 0.16674(3) -0.53144(6) 1.03109(2)
S6 S 0.14409(3) -0.22824(6) 1.08853(2)
C1 C 0.2370(1) -0.1104(2) 1.03187(9)
C2 C 0.2751(1) -0.1131(2) 0.98925(9)
C3 C 0.2813(1) -0.2459(2) 0.96018(9)
C4 C 0.2437(1) -0.3711(2) 0.96936(10)
C5 C 0.2052(1) -0.3669(2) 1.01139(10)
C6 C 0.1990(1) -0.2337(2) 1.04064(9)
C7 C 0.3266(1) 0.0378(2) 1.10494(9)
C8 C 0.3619(1) 0.1694(3) 1.1115(1)
C9 C 0.4271(1) 0.1662(3) 1.1343(1)
C10 C 0.4582(1) 0.0334(3) 1.1498(1)
C11 C 0.4220(1) -0.0977(3) 1.1437(1)
C12 C 0.3565(1) -0.0959(3) 1.1222(1)
C13 C 0.5300(1) 0.0298(3) 1.1714(1)
C14 C 0.2833(1) 0.0647(2) 0.89882(10)
C15 C 0.3227(1) 0.1360(3) 0.8663(1)
C16 C 0.2999(1) 0.1627(3) 0.8113(1)
C17 C 0.2380(1) 0.1210(3) 0.7873(1)
C18 C 0.1993(1) 0.0472(3) 0.8204(1)
C19 C 0.2211(1) 0.0212(3) 0.8758(1)
C20 C 0.2127(2) 0.1506(5) 0.7271(1)
C21 C 0.3834(1) -0.4161(2) 0.9392(1)
C22 C 0.4135(1) -0.4923(3) 0.9008(1)
C23 C 0.4497(1) -0.6202(3) 0.9176(1)
C24 C 0.4554(1) -0.6729(3) 0.9710(1)
C25 C 0.4262(1) -0.5932(3) 1.0090(1)
C26 C 0.3914(1) -0.4639(3) 0.9935(1)
C27 C 0.4913(1) -0.8160(3) 0.9875(1)
C28 C 0.1632(1) -0.5329(2) 0.89180(10)
C29 C 0.1248(1) -0.6590(3) 0.8938(1)
C30 C 0.0631(1) -0.6643(3) 0.8631(1)
C31 C 0.0379(1) -0.5433(3) 0.8311(1)
C32 C 0.0771(1) -0.4187(3) 0.8292(1)
C33 C 0.1392(1) -0.4123(3) 0.8589(1)
C34 C -0.0302(1) -0.5493(3) 0.7997(1)
C35 C 0.2009(1) -0.5462(2) 1.10270(10)
C36 C 0.2634(1) -0.4993(3) 1.1237(1)
C37 C 0.2880(1) -0.5235(3) 1.1789(1)
C38 C 0.2515(1) -0.5972(3) 1.2135(1)
C39 C 0.1896(1) -0.6428(3) 1.1914(1)
C40 C 0.1640(1) -0.6185(3) 1.1368(1)
C41 C 0.2792(2) -0.6246(4) 1.2734(1)
C42 C 0.1007(1) -0.0592(2) 1.07063(10)
C43 C 0.0692(1) -0.0004(3) 1.11183(10)
C44 C 0.0306(1) 0.1265(3) 1.1009(1)
C45 C 0.0240(1) 0.1969(2) 1.0499(1)
C46 C 0.0560(1) 0.1372(3) 1.0095(1)
C47 C 0.0934(1) 0.0091(3) 1.0192(1)
C48 C -0.0178(1) 0.3337(3) 1.0386(1)
H1 H 0.3409 0.2629 1.1009
H2 H 0.4511 0.2572 1.1392
H3 H 0.4428 -0.1911 1.1548
H4 H 0.3313 -0.1868 1.1200
H5 H 0.5439 -0.0701 1.1802
H6 H 0.5538 0.0678 1.1442
H7 H 0.5394 0.0895 1.2038
H8 H 0.3652 0.1673 0.8822
H9 H 0.3275 0.2111 0.7889
H10 H 0.1569 0.0137 0.8048
H11 H 0.1935 -0.0273 0.8979
H12 H 0.2125 0.2546 0.7195
H13 H 0.2390 0.1011 0.7042
H14 H 0.1693 0.1134 0.7180
H15 H 0.4093 -0.4575 0.8633
H16 H 0.4710 -0.6728 0.8910
H17 H 0.4306 -0.6267 1.0469
H18 H 0.3725 -0.4072 1.0201
H19 H 0.4909 -0.8352 1.0255
H20 H 0.4710 -0.8965 0.9661
H21 H 0.5350 -0.8074 0.9812
H22 H 0.1411 -0.7425 0.9164
H23 H 0.0371 -0.7527 0.8642
H24 H 0.0603 -0.3359 0.8063
H25 H 0.1659 -0.3250 0.8564
H26 H -0.0410 -0.4583 0.7794
H27 H -0.0342 -0.6296 0.7732
H28 H -0.0611 -0.5648 0.8236
H29 H 0.2887 -0.4484 1.1001
H30 H 0.3306 -0.4872 1.1933
H31 H 0.1636 -0.6899 1.2155
H32 H 0.1211 -0.6513 1.1225
H33 H 0.2808 -0.7287 1.2810
H34 H 0.3229 -0.5861 1.2807
H35 H 0.2542 -0.5758 1.2969
H36 H 0.0740 -0.0459 1.1478
H37 H 0.0079 0.1652 1.1290
H38 H 0.0515 0.1851 0.9737
H39 H 0.1145 -0.0327 0.9905
H40 H -0.0027 0.4108 1.0645
H41 H -0.0169 0.3694 1.0023
H42 H -0.0616 0.3103 1.0423
S4_2 S 0.24532(3) 0.46904(6) 0.92604(2)
S5_2 S 0.16674(3) 0.46856(6) 1.03109(2)
Ag1_2 Ag 0.242875(9) -0.74026(2) 1.002720(8)
P1 P 0.50365(3) 0.47352(8) 0.76225(3)
F1 F 0.54460(8) 0.4681(2) 0.82366(7)
F2 F 0.46118(8) 0.6072(2) 0.78027(7)
F3 F 0.45338(9) 0.3555(2) 0.78027(8)
F4 F 0.54623(9) 0.3394(2) 0.74425(7)
F5 F 0.55418(8) 0.5905(2) 0.74455(7)
F6 F 0.46283(8) 0.4778(2) 0.70106(7)
loop_
_geom_bond_atom_site_label_1
_geom_bond_atom_site_label_2
_geom_bond_site_symmetry_1
_geom_bond_site_symmetry_2
Ag1 S1 1_555 1_555
S1 C1 1_555 1_555
S2 Ag1 1_555 1_555
S3 C3 1_555 1_555
S4 C4 1_555 1_555
S5 C5 1_555 1_555
S6 C6 1_555 1_555
P1 F1 1_555 1_555
F2 P1 1_555 1_555
F3 P1 1_555 1_555
F4 P1 1_555 1_555
F5 P1 1_555 1_555
F6 P1 1_555 1_555
C1 C2 1_555 1_555
C2 S2 1_555 1_555
C3 C2 1_555 1_555
C4 C3 1_555 1_555
C5 C4 1_555 1_555
C6 C1 1_555 1_555
C7 S1 1_555 1_555
C8 C7 1_555 1_555
C9 C8 1_555 1_555
C10 C9 1_555 1_555
C11 C10 1_555 1_555
C12 C7 1_555 1_555
C13 C10 1_555 1_555
C14 S2 1_555 1_555
C15 C14 1_555 1_555
C16 C15 1_555 1_555
C17 C16 1_555 1_555
C18 C17 1_555 1_555
C19 C14 1_555 1_555
C20 C17 1_555 1_555
C21 S3 1_555 1_555
C22 C21 1_555 1_555
C23 C22 1_555 1_555
C24 C23 1_555 1_555
C25 C24 1_555 1_555
C26 C21 1_555 1_555
C27 C24 1_555 1_555
C28 S4 1_555 1_555
C29 C28 1_555 1_555
C30 C29 1_555 1_555
C31 C30 1_555 1_555
C32 C31 1_555 1_555
C33 C28 1_555 1_555
C34 C31 1_555 1_555
C35 S5 1_555 1_555
C36 C35 1_555 1_555
C37 C36 1_555 1_555
C38 C37 1_555 1_555
C39 C38 1_555 1_555
C40 C35 1_555 1_555
C41 C38 1_555 1_555
C42 S6 1_555 1_555
C43 C42 1_555 1_555
C44 C43 1_555 1_555
C45 C44 1_555 1_555
C46 C45 1_555 1_555
C47 C42 1_555 1_555
C48 C45 1_555 1_555
H1 C8 1_555 1_555
H2 C9 1_555 1_555
H3 C11 1_555 1_555
H4 C12 1_555 1_555
H5 C13 1_555 1_555
H6 C13 1_555 1_555
H7 C13 1_555 1_555
H8 C15 1_555 1_555
H9 C16 1_555 1_555
H10 C18 1_555 1_555
H11 C19 1_555 1_555
H12 C20 1_555 1_555
H13 C20 1_555 1_555
H14 C20 1_555 1_555
H15 C22 1_555 1_555
H16 C23 1_555 1_555
H17 C25 1_555 1_555
H18 C26 1_555 1_555
H19 C27 1_555 1_555
H20 C27 1_555 1_555
H21 C27 1_555 1_555
H22 C29 1_555 1_555
H23 C30 1_555 1_555
H24 C32 1_555 1_555
H25 C33 1_555 1_555
H26 C34 1_555 1_555
H27 C34 1_555 1_555
H28 C34 1_555 1_555
H29 C36 1_555 1_555
H30 C37 1_555 1_555
H31 C39 1_555 1_555
H32 C40 1_555 1_555
H33 C41 1_555 1_555
H34 C41 1_555 1_555
H35 C41 1_555 1_555
H36 C43 1_555 1_555
H37 C44 1_555 1_555
H38 C46 1_555 1_555
H39 C47 1_555 1_555
H40 C48 1_555 1_555
H41 C48 1_555 1_555
H42 C48 1_555 1_555
S4_2 Ag1 1_555 1_555
S5_2 Ag1 1_555 1_555
Ag1_2 S4 1_555 1_555
S5 Ag1_2 1_555 1_555
C5 C6 1_555 1_555
C11 C12 1_555 1_555
C18 C19 1_555 1_555
C25 C26 1_555 1_555
C32 C33 1_555 1_555
C39 C40 1_555 1_555
C46 C47 1_555 1_555

#END
