
#######################################################################
#
#                 Cambridge Crystallographic Data Centre
#                                CCDC 
#
#######################################################################
#
# If this CIF has been generated from an entry in the Cambridge 
# Structural Database, then it will include bibliographic, chemical, 
# crystal, experimental, refinement or atomic coordinate data resulting 
# from the CCDC's data processing and validation procedures.
#
#######################################################################

data_MIJFAM
_symmetry_cell_setting           monoclinic
_symmetry_space_group_name_H-M   'I 2/a'
_symmetry_Int_Tables_number      15
_space_group_name_Hall           '-I 2ya'
loop_
_symmetry_equiv_pos_site_id
_symmetry_equiv_pos_as_xyz
1 x,y,z
2 1/2+x,1/2+y,1/2+z
3 1/2+x,-y,z
4 x,1/2-y,1/2+z
5 -x,-y,-z
6 1/2-x,1/2-y,1/2-z
7 1/2-x,y,-z
8 -x,1/2+y,1/2-z
_cell_length_a                   17.1905(9)
_cell_length_b                   16.2420(9)
_cell_length_c                   26.8593(18)
_cell_angle_alpha                90
_cell_angle_beta                 91.593(2)
_cell_angle_gamma                90
_cell_volume                     7496.44
loop_
_atom_site_label
_atom_site_type_symbol
_atom_site_fract_x
_atom_site_fract_y
_atom_site_fract_z
Cu1 Cu -0.2500 -0.57015(5) 0.0000
Cl1 Cl -0.14644(8) -0.56729(9) -0.07870(5)
Cu2 Cu 0.2500 0.06922(5) 0.0000
Cl2 Cl 0.36006(8) 0.06663(9) 0.07857(5)
N1 N -0.1839(2) -0.4822(2) 0.03623(15)
C1 C -0.2157(3) -0.4220(3) 0.0626(2)
H1 H -0.2697 -0.4180 0.0625
C2 C -0.1727(3) -0.3653(3) 0.0899(2)
H2 H -0.1977 -0.3248 0.1080
C3 C -0.0923(3) -0.3689(3) 0.09043(18)
C4 C -0.0596(3) -0.4311(3) 0.0627(2)
H3 H -0.0058 -0.4362 0.0619
C5 C -0.1065(3) -0.4854(3) 0.0363(2)
H4 H -0.0830 -0.5262 0.0177
C6 C -0.0427(4) -0.3092(3) 0.1203(2)
H5 H -0.0066 -0.3402 0.1414
H6 H -0.0759 -0.2777 0.1417
C7 C 0.0030(3) -0.2504(3) 0.08892(19)
H7 H -0.0328 -0.2189 0.0679
H8 H 0.0365 -0.2816 0.0674
C8 C 0.0522(3) -0.1918(3) 0.12038(19)
H9 H 0.0183 -0.1608 0.1417
H10 H 0.0872 -0.2239 0.1417
N2 N 0.1867(2) -0.0188(3) 0.03595(16)
C9 C 0.1092(3) -0.0151(3) 0.03655(19)
H11 H 0.0840 0.0265 0.0186
C10 C 0.0648(3) -0.0697(3) 0.0624(2)
H12 H 0.0108 -0.0653 0.0610
C11 C 0.1000(3) -0.1318(3) 0.09075(18)
C12 C 0.1804(3) -0.1355(3) 0.0896(2)
H13 H 0.2072 -0.1763 0.1074
C13 C 0.2209(3) -0.0792(3) 0.0622(2)
H14 H 0.2748 -0.0834 0.0620
N3 N -0.3124(2) -0.6600(3) -0.03693(15)
C14 C -0.3148(3) -0.6633(4) -0.0871(2)
H15 H -0.2888 -0.6228 -0.1046
C15 C -0.3529(3) -0.7224(3) -0.1132(2)
H16 H -0.3518 -0.7218 -0.1478
C16 C -0.3940(3) -0.7842(3) -0.0895(2)
C17 C -0.3913(3) -0.7800(3) -0.0380(2)
H17 H -0.4172 -0.8197 -0.0198
C18 C -0.3514(3) -0.7188(3) -0.0131(2)
H18 H -0.3514 -0.7180 0.0215
C19 C -0.4379(4) -0.8515(3) -0.1170(2)
H19 H -0.4298 -0.9028 -0.0991
H20 H -0.4931 -0.8389 -0.1165
C20 C -0.4155(5) -0.8637(5) -0.1698(3)
H21 H -0.3603 -0.8758 -0.1705
H22 H -0.4245 -0.8128 -0.1880
C21 C -0.4610(6) -0.9339(5) -0.1965(3)
H23 H -0.4369 -0.9445 -0.2281
H24 H -0.4556 -0.9834 -0.1765
N4 N -0.7039(5) -0.8895(5) -0.2263(3)
C22 C -0.6470(8) -0.8451(5) -0.2464(3)
H25 H -0.6620 -0.8024 -0.2676
C23 C -0.5695(6) -0.8571(4) -0.2386(3)
H26 H -0.5333 -0.8248 -0.2547
C24 C -0.5460(5) -0.9183(4) -0.2062(2)
C25 C -0.6023(6) -0.9647(4) -0.1854(2)
H27 H -0.5885 -1.0072 -0.1637
C26 C -0.6787(7) -0.9496(5) -0.1962(3)
H28 H -0.7155 -0.9832 -0.1817
N5 N 0.1910(2) 0.1592(3) 0.03695(15)
C27 C 0.1512(3) 0.2187(3) 0.0134(2)
H29 H 0.1488 0.2184 -0.0212
C28 C 0.1135(3) 0.2806(3) 0.0380(2)
H30 H 0.0866 0.3208 0.0199
C29 C 0.1153(3) 0.2835(3) 0.0895(2)
C30 C 0.1561(3) 0.2218(3) 0.1135(2)
H31 H 0.1590 0.2208 0.1481
C31 C 0.1926(3) 0.1615(4) 0.08682(19)
H32 H 0.2196 0.1205 0.1042
C32 C 0.0724(4) 0.3512(4) 0.1169(2)
H33 H 0.0772 0.4023 0.0985
H34 H 0.0176 0.3372 0.1174
C33 C 0.1017(5) 0.3648(5) 0.1695(3)
H35 H 0.1570 0.3770 0.1692
H36 H 0.0950 0.3146 0.1884
C34 C 0.0595(6) 0.4356(5) 0.1955(3)
H37 H 0.0863 0.4466 0.2271
H38 H 0.0635 0.4847 0.1752
N6 N -0.1831(4) 0.3883(5) 0.2246(3)
C35 C -0.1237(7) 0.3452(4) 0.2453(2)
H39 H -0.1362 0.3021 0.2664
C36 C -0.0457(6) 0.3595(4) 0.2377(3)
H40 H -0.0077 0.3284 0.2544
C37 C -0.0250(6) 0.4205(4) 0.2052(2)
C38 C -0.0852(7) 0.4657(4) 0.1845(3)
H41 H -0.0740 0.5087 0.1630
C39 C -0.1601(7) 0.4493(5) 0.1945(3)
H42 H -0.1983 0.4824 0.1796
Cl1F Cl -0.35356(8) -0.56729(9) 0.07870(5)
N1F N -0.3161(2) -0.4822(2) -0.03623(15)
C1F C -0.2843(3) -0.4220(3) -0.0626(2)
H1F H -0.2303 -0.4180 -0.0625
C2F C -0.3273(3) -0.3653(3) -0.0899(2)
H2F H -0.3023 -0.3248 -0.1080
C3F C -0.4077(3) -0.3689(3) -0.09043(18)
C4F C -0.4404(3) -0.4311(3) -0.0627(2)
H3F H -0.4942 -0.4362 -0.0619
C5F C -0.3935(3) -0.4854(3) -0.0363(2)
H4F H -0.4170 -0.5262 -0.0177
C6F C -0.4573(4) -0.3092(3) -0.1203(2)
H5F H -0.4934 -0.3402 -0.1414
H6F H -0.4241 -0.2777 -0.1417
C7F C -0.5030(3) -0.2504(3) -0.08892(19)
H7F H -0.4672 -0.2189 -0.0679
H8F H -0.5365 -0.2816 -0.0674
C8F C -0.5522(3) -0.1918(3) -0.12038(19)
H9F H -0.5183 -0.1608 -0.1417
H10F H -0.5872 -0.2239 -0.1417
N2F N -0.6867(2) -0.0188(3) -0.03595(16)
C9F C -0.6092(3) -0.0151(3) -0.03655(19)
H11F H -0.5840 0.0265 -0.0186
C10F C -0.5648(3) -0.0697(3) -0.0624(2)
H12F H -0.5108 -0.0653 -0.0610
C11F C -0.6000(3) -0.1318(3) -0.09075(18)
C12F C -0.6804(3) -0.1355(3) -0.0896(2)
H13F H -0.7072 -0.1763 -0.1074
C13F C -0.7209(3) -0.0792(3) -0.0622(2)
H14F H -0.7748 -0.0834 -0.0620
N3F N -0.1876(2) -0.6600(3) 0.03693(15)
C14F C -0.1852(3) -0.6633(4) 0.0871(2)
H15F H -0.2112 -0.6228 0.1046
C15F C -0.1471(3) -0.7224(3) 0.1132(2)
H16F H -0.1482 -0.7218 0.1478
C16F C -0.1060(3) -0.7842(3) 0.0895(2)
C17F C -0.1087(3) -0.7800(3) 0.0380(2)
H17F H -0.0828 -0.8197 0.0198
C18F C -0.1486(3) -0.7188(3) 0.0131(2)
H18F H -0.1486 -0.7180 -0.0215
C19F C -0.0621(4) -0.8515(3) 0.1170(2)
H19F H -0.0702 -0.9028 0.0991
H20F H -0.0069 -0.8389 0.1165
C20F C -0.0845(5) -0.8637(5) 0.1698(3)
H21F H -0.1397 -0.8758 0.1705
H22F H -0.0755 -0.8128 0.1880
C21F C -0.0390(6) -0.9339(5) 0.1965(3)
H23F H -0.0631 -0.9445 0.2281
H24F H -0.0444 -0.9834 0.1765
N4F N 0.2039(5) -0.8895(5) 0.2263(3)
C22F C 0.1470(8) -0.8451(5) 0.2464(3)
H25F H 0.1620 -0.8024 0.2676
C23F C 0.0695(6) -0.8571(4) 0.2386(3)
H26F H 0.0333 -0.8248 0.2547
C24F C 0.0460(5) -0.9183(4) 0.2062(2)
C25F C 0.1023(6) -0.9647(4) 0.1854(2)
H27F H 0.0885 -1.0072 0.1637
C26F C 0.1787(7) -0.9496(5) 0.1962(3)
H28F H 0.2155 -0.9832 0.1817
Cl2F Cl 0.13994(8) 0.06663(9) -0.07857(5)
N5F N 0.3090(2) 0.1592(3) -0.03695(15)
C27F C 0.3488(3) 0.2187(3) -0.0134(2)
H29F H 0.3512 0.2184 0.0212
C28F C 0.3865(3) 0.2806(3) -0.0380(2)
H30F H 0.4134 0.3208 -0.0199
C29F C 0.3847(3) 0.2835(3) -0.0895(2)
C30F C 0.3439(3) 0.2218(3) -0.1135(2)
H31F H 0.3410 0.2208 -0.1481
C31F C 0.3074(3) 0.1615(4) -0.08682(19)
H32F H 0.2804 0.1205 -0.1042
C32F C 0.4276(4) 0.3512(4) -0.1169(2)
H33F H 0.4228 0.4023 -0.0985
H34F H 0.4824 0.3372 -0.1174
C33F C 0.3983(5) 0.3648(5) -0.1695(3)
H35F H 0.3430 0.3770 -0.1692
H36F H 0.4050 0.3146 -0.1884
C34F C 0.4405(6) 0.4356(5) -0.1955(3)
H37F H 0.4137 0.4466 -0.2271
H38F H 0.4365 0.4847 -0.1752
N6F N 0.6831(4) 0.3883(5) -0.2246(3)
C35F C 0.6237(7) 0.3452(4) -0.2453(2)
H39F H 0.6362 0.3021 -0.2664
C36F C 0.5457(6) 0.3595(4) -0.2377(3)
H40F H 0.5077 0.3284 -0.2544
C37F C 0.5250(6) 0.4205(4) -0.2052(2)
C38F C 0.5852(7) 0.4657(4) -0.1845(3)
H41F H 0.5740 0.5087 -0.1630
C39F C 0.6601(7) 0.4493(5) -0.1945(3)
H42F H 0.6983 0.4824 -0.1796
N2F_2 N 0.3133(2) -0.0188(3) -0.03595(16)
Cu2_2 Cu -0.7500 0.06922(5) 0.0000
O1 O -0.1424(4) -0.1562(4) 0.1896(2)
O2 O 0.1544(4) -0.3463(4) 0.1923(3)
loop_
_geom_bond_atom_site_label_1
_geom_bond_atom_site_label_2
_geom_bond_site_symmetry_1
_geom_bond_site_symmetry_2
Cu1 Cl1 1_555 1_555
Cu2 Cl2 1_555 1_555
N1 Cu1 1_555 1_555
C1 N1 1_555 1_555
H1 C1 1_555 1_555
C2 C1 1_555 1_555
H2 C2 1_555 1_555
C3 C2 1_555 1_555
C4 C3 1_555 1_555
H3 C4 1_555 1_555
C5 N1 1_555 1_555
H4 C5 1_555 1_555
C6 C3 1_555 1_555
H5 C6 1_555 1_555
H6 C6 1_555 1_555
C7 C6 1_555 1_555
H7 C7 1_555 1_555
H8 C7 1_555 1_555
C8 C7 1_555 1_555
H9 C8 1_555 1_555
H10 C8 1_555 1_555
N2 Cu2 1_555 1_555
C9 N2 1_555 1_555
H11 C9 1_555 1_555
C10 C9 1_555 1_555
H12 C10 1_555 1_555
C11 C8 1_555 1_555
C12 C11 1_555 1_555
H13 C12 1_555 1_555
C13 N2 1_555 1_555
H14 C13 1_555 1_555
N3 Cu1 1_555 1_555
C14 N3 1_555 1_555
H15 C14 1_555 1_555
C15 C14 1_555 1_555
H16 C15 1_555 1_555
C16 C15 1_555 1_555
C17 C16 1_555 1_555
H17 C17 1_555 1_555
C18 N3 1_555 1_555
H18 C18 1_555 1_555
C19 C16 1_555 1_555
H19 C19 1_555 1_555
H20 C19 1_555 1_555
C20 C19 1_555 1_555
H21 C20 1_555 1_555
H22 C20 1_555 1_555
C21 C20 1_555 1_555
H23 C21 1_555 1_555
H24 C21 1_555 1_555
N4 C22 1_555 1_555
C22 H25 1_555 1_555
C23 C22 1_555 1_555
H26 C23 1_555 1_555
C24 C21 1_555 1_555
C25 C24 1_555 1_555
H27 C25 1_555 1_555
C26 N4 1_555 1_555
H28 C26 1_555 1_555
N5 Cu2 1_555 1_555
C27 N5 1_555 1_555
H29 C27 1_555 1_555
C28 C27 1_555 1_555
H30 C28 1_555 1_555
C29 C28 1_555 1_555
C30 C29 1_555 1_555
H31 C30 1_555 1_555
C31 N5 1_555 1_555
H32 C31 1_555 1_555
C32 C29 1_555 1_555
H33 C32 1_555 1_555
H34 C32 1_555 1_555
C33 C32 1_555 1_555
H35 C33 1_555 1_555
H36 C33 1_555 1_555
C34 C33 1_555 1_555
H37 C34 1_555 1_555
H38 C34 1_555 1_555
N6 C35 1_555 1_555
C35 H39 1_555 1_555
C36 C35 1_555 1_555
H40 C36 1_555 1_555
C37 C34 1_555 1_555
C38 C37 1_555 1_555
H41 C38 1_555 1_555
C39 N6 1_555 1_555
H42 C39 1_555 1_555
Cl1F Cu1 1_555 1_555
N1F Cu1 1_555 1_555
C1F N1F 1_555 1_555
H1F C1F 1_555 1_555
C2F C1F 1_555 1_555
H2F C2F 1_555 1_555
C3F C2F 1_555 1_555
C4F C3F 1_555 1_555
H3F C4F 1_555 1_555
C5F N1F 1_555 1_555
H4F C5F 1_555 1_555
C6F C3F 1_555 1_555
H5F C6F 1_555 1_555
H6F C6F 1_555 1_555
C7F C6F 1_555 1_555
H7F C7F 1_555 1_555
H8F C7F 1_555 1_555
C8F C7F 1_555 1_555
H9F C8F 1_555 1_555
H10F C8F 1_555 1_555
N2F C9F 1_555 1_555
C9F H11F 1_555 1_555
C10F C9F 1_555 1_555
H12F C10F 1_555 1_555
C11F C8F 1_555 1_555
C12F C11F 1_555 1_555
H13F C12F 1_555 1_555
C13F N2F 1_555 1_555
H14F C13F 1_555 1_555
N3F Cu1 1_555 1_555
C14F N3F 1_555 1_555
H15F C14F 1_555 1_555
C15F C14F 1_555 1_555
H16F C15F 1_555 1_555
C16F C15F 1_555 1_555
C17F C16F 1_555 1_555
H17F C17F 1_555 1_555
C18F N3F 1_555 1_555
H18F C18F 1_555 1_555
C19F C16F 1_555 1_555
H19F C19F 1_555 1_555
H20F C19F 1_555 1_555
C20F C19F 1_555 1_555
H21F C20F 1_555 1_555
H22F C20F 1_555 1_555
C21F C20F 1_555 1_555
H23F C21F 1_555 1_555
H24F C21F 1_555 1_555
N4F C22F 1_555 1_555
C22F H25F 1_555 1_555
C23F C22F 1_555 1_555
H26F C23F 1_555 1_555
C24F C21F 1_555 1_555
C25F C24F 1_555 1_555
H27F C25F 1_555 1_555
C26F N4F 1_555 1_555
H28F C26F 1_555 1_555
Cl2F Cu2 1_555 1_555
N5F Cu2 1_555 1_555
C27F N5F 1_555 1_555
H29F C27F 1_555 1_555
C28F C27F 1_555 1_555
H30F C28F 1_555 1_555
C29F C28F 1_555 1_555
C30F C29F 1_555 1_555
H31F C30F 1_555 1_555
C31F N5F 1_555 1_555
H32F C31F 1_555 1_555
C32F C29F 1_555 1_555
H33F C32F 1_555 1_555
H34F C32F 1_555 1_555
C33F C32F 1_555 1_555
H35F C33F 1_555 1_555
H36F C33F 1_555 1_555
C34F C33F 1_555 1_555
H37F C34F 1_555 1_555
H38F C34F 1_555 1_555
N6F C35F 1_555 1_555
C35F H39F 1_555 1_555
C36F C35F 1_555 1_555
H40F C36F 1_555 1_555
C37F C34F 1_555 1_555
C38F C37F 1_555 1_555
H41F C38F 1_555 1_555
C39F N6F 1_555 1_555
H42F C39F 1_555 1_555
N2F_2 Cu2 1_555 1_555
Cu2_2 N2F 1_555 1_555
C4 C5 1_555 1_555
C10 C11 1_555 1_555
C12 C13 1_555 1_555
C17 C18 1_555 1_555
C23 C24 1_555 1_555
C25 C26 1_555 1_555
C30 C31 1_555 1_555
C36 C37 1_555 1_555
C38 C39 1_555 1_555
C4F C5F 1_555 1_555
C10F C11F 1_555 1_555
C12F C13F 1_555 1_555
C17F C18F 1_555 1_555
C23F C24F 1_555 1_555
C25F C26F 1_555 1_555
C30F C31F 1_555 1_555
C36F C37F 1_555 1_555
C38F C39F 1_555 1_555

#END
