
#######################################################################
#
#                 Cambridge Crystallographic Data Centre
#                                CCDC 
#
#######################################################################
#
# If this CIF has been generated from an entry in the Cambridge 
# Structural Database, then it will include bibliographic, chemical, 
# crystal, experimental, refinement or atomic coordinate data resulting 
# from the CCDC's data processing and validation procedures.
#
#######################################################################

data_MIJHET
_symmetry_cell_setting           triclinic
_symmetry_space_group_name_H-M   'P -1'
_symmetry_Int_Tables_number      2
_space_group_name_Hall           '-P 1'
loop_
_symmetry_equiv_pos_site_id
_symmetry_equiv_pos_as_xyz
1 x,y,z
2 -x,-y,-z
_cell_length_a                   9.079(2)
_cell_length_b                   10.186(2)
_cell_length_c                   14.673(3)
_cell_angle_alpha                109.15(5)
_cell_angle_beta                 94.39(7)
_cell_angle_gamma                106.36(6)
_cell_volume                     1208.4
loop_
_atom_site_label
_atom_site_type_symbol
_atom_site_fract_x
_atom_site_fract_y
_atom_site_fract_z
Tb1 Tb 0.730565(17) 0.537425(16) 0.529711(11)
O1 O 0.8720(4) 0.7222(4) 0.4769(3)
H1 H 0.8997 0.8100 0.5178
H2 H 0.8231 0.7194 0.4241
O2 O 0.6778(3) 0.5074(3) 0.6880(2)
O3 O 0.6686(4) 0.2841(3) 0.5139(2)
H3 H 0.7092 0.2227 0.4807
H4 H 0.6592 0.2712 0.5678
O4 O 0.7791(3) 0.3995(3) 0.37904(19)
O5 O 0.3038(4) 0.2457(3) 0.3695(2)
O6 O 1.0305(3) 0.4233(4) 0.3910(2)
O7 O 0.4727(3) 0.4712(3) 0.58282(18)
O8 O 0.6301(4) 0.0758(3) 0.3323(2)
O9 O 0.5376(6) 0.2593(4) 0.8059(3)
O10 O 0.5722(5) 0.7424(4) 0.9023(2)
N1 N 0.5219(4) 0.4917(4) 0.8346(2)
N2 N 0.4466(4) 0.0922(4) 0.2272(3)
H5 H 0.4377 0.1406 0.1815
C1 C 0.5354(4) 0.4828(4) 0.6666(3)
C2 C 0.4318(5) 0.4652(5) 0.7411(3)
H6 H 0.3574 0.3664 0.7162
H7 H 0.3735 0.5336 0.7500
C3 C 0.5763(6) 0.3875(5) 0.8565(3)
C4 C 0.6829(6) 0.4680(6) 0.9529(4)
C5 C 0.7659(8) 0.4177(8) 1.0096(5)
H8 H 0.7607 0.3197 0.9897
C6 C 0.8588(7) 0.5237(9) 1.0995(5)
H9 H 0.9190 0.4953 1.1388
C7 C 0.8625(7) 0.6668(8) 1.1302(4)
H10 H 0.9229 0.7331 1.1906
C8 C 0.7777(6) 0.7148(6) 1.0727(4)
H11 H 0.7798 0.8120 1.0934
C9 C 0.6901(5) 0.6129(5) 0.9837(3)
C10 C 0.5917(5) 0.6302(5) 0.9057(3)
C11 C 0.8923(4) 0.3665(4) 0.3463(3)
C12 C 0.8590(4) 0.2554(4) 0.2429(3)
C13 C 0.7129(4) 0.1474(4) 0.2011(3)
C14 C 0.6846(5) 0.0576(4) 0.1024(3)
H12 H 0.5870 -0.0128 0.0736
C15 C 0.8000(6) 0.0722(5) 0.0469(3)
H13 H 0.7798 0.0124 -0.0191
C16 C 0.9454(6) 0.1756(5) 0.0896(3)
H14 H 1.0237 0.1841 0.0525
C17 C 0.9755(5) 0.2667(5) 0.1873(3)
H15 H 1.0740 0.3357 0.2156
C18 C 0.5929(5) 0.1071(4) 0.2609(3)
C19 C 0.2647(5) 0.1112(4) 0.3504(3)
O11 O 0.1844(5) 0.0433(4) 0.3958(3)
C20 C 0.3154(5) 0.0175(5) 0.2625(3)
H16 H 0.2265 -0.0308 0.2086
H17 H 0.3412 -0.0587 0.2794
Tb1A Tb 0.269435(17) 0.462575(16) 0.470289(11)
Tb1A_2 Tb 1.269435(17) 0.462575(16) 0.470289(11)
O5A O 0.6962(4) 0.7543(3) 0.6305(2)
O6A O 0.9695(3) 0.5767(4) 0.6090(2)
O7A O 0.5273(3) 0.5288(3) 0.41718(18)
O12 O 0.0775(4) 0.7402(4) 0.3544(3)
H18 H 0.0847 0.7063 0.2944
H19 H 0.0943 0.8321 0.3707
O13 O 0.5719(5) 0.8599(5) 0.4239(3)
H20 H 0.6392 0.9103 0.4765
H21 H 0.6067 0.8863 0.3783
loop_
_geom_bond_atom_site_label_1
_geom_bond_atom_site_label_2
_geom_bond_site_symmetry_1
_geom_bond_site_symmetry_2
Tb1 O1 1_555 1_555
O1 H1 1_555 1_555
H2 O1 1_555 1_555
O2 Tb1 1_555 1_555
O3 Tb1 1_555 1_555
H3 O3 1_555 1_555
H4 O3 1_555 1_555
O4 Tb1 1_555 1_555
O5 C19 1_555 1_555
O6 C11 1_555 1_555
O7 Tb1 1_555 1_555
O8 C18 1_555 1_555
O9 C3 1_555 1_555
O10 C10 1_555 1_555
N1 C2 1_555 1_555
N2 H5 1_555 1_555
C1 O2 1_555 1_555
C2 C1 1_555 1_555
H6 C2 1_555 1_555
H7 C2 1_555 1_555
C3 N1 1_555 1_555
C4 C3 1_555 1_555
C5 C4 1_555 1_555
H8 C5 1_555 1_555
C6 C5 1_555 1_555
H9 C6 1_555 1_555
C7 C6 1_555 1_555
H10 C7 1_555 1_555
C8 C7 1_555 1_555
H11 C8 1_555 1_555
C9 C4 1_555 1_555
C10 N1 1_555 1_555
C11 O4 1_555 1_555
C12 C11 1_555 1_555
C13 C12 1_555 1_555
C14 C13 1_555 1_555
H12 C14 1_555 1_555
C15 C14 1_555 1_555
H13 C15 1_555 1_555
C16 C15 1_555 1_555
H14 C16 1_555 1_555
C17 C12 1_555 1_555
H15 C17 1_555 1_555
C18 N2 1_555 1_555
C19 O11 1_555 1_555
C20 N2 1_555 1_555
H16 C20 1_555 1_555
H17 C20 1_555 1_555
O12 H18 1_555 1_555
H19 O12 1_555 1_555
O13 H20 1_555 1_555
H21 O13 1_555 1_555
Tb1A O5 1_555 1_555
Tb1A_2 O6 1_555 1_555
O5A Tb1 1_555 1_555
O6A Tb1 1_555 1_555
O7A Tb1 1_555 1_555
O7 C1 1_555 1_555
O7 Tb1A 1_555 1_555
C8 C9 1_555 1_555
C9 C10 1_555 1_555
C13 C18 1_555 1_555
C16 C17 1_555 1_555
C19 C20 1_555 1_555
Tb1A O7A 1_555 1_555

#END
