
#######################################################################
#
#                 Cambridge Crystallographic Data Centre
#                                CCDC 
#
#######################################################################
#
# If this CIF has been generated from an entry in the Cambridge 
# Structural Database, then it will include bibliographic, chemical, 
# crystal, experimental, refinement or atomic coordinate data resulting 
# from the CCDC's data processing and validation procedures.
#
#######################################################################

data_MIJJAS
_symmetry_cell_setting           monoclinic
_symmetry_space_group_name_H-M   'P 21/c'
_symmetry_Int_Tables_number      14
_space_group_name_Hall           '-P 2ybc'
loop_
_symmetry_equiv_pos_site_id
_symmetry_equiv_pos_as_xyz
1 x,y,z
2 -x,1/2+y,1/2-z
3 -x,-y,-z
4 x,1/2-y,1/2+z
_cell_length_a                   22.191(3)
_cell_length_b                   16.5760(19)
_cell_length_c                   12.8734(16)
_cell_angle_alpha                90
_cell_angle_beta                 94.590(4)
_cell_angle_gamma                90
_cell_volume                     4720.14
loop_
_atom_site_label
_atom_site_type_symbol
_atom_site_fract_x
_atom_site_fract_y
_atom_site_fract_z
C1 C 0.5740(2) 0.0877(3) 0.2030(3)
C2 C 0.5889(2) 0.1712(3) 0.2473(3)
H1 H 0.6261 0.1906 0.2213
H2 H 0.5568 0.2085 0.2249
C3 C 0.6242(2) 0.2402(3) 0.4095(3)
C4 C 0.6005(2) 0.3168(3) 0.3868(4)
H3 H 0.5664 0.3223 0.3406
C5 C 0.6278(2) 0.3846(3) 0.4328(4)
H4 H 0.6118 0.4354 0.4171
C6 C 0.6786(2) 0.3777(3) 0.5016(4)
H5 H 0.6972 0.4232 0.5317
C7 C 0.7013(2) 0.3009(3) 0.5251(4)
H6 H 0.7352 0.2952 0.5719
C8 C 0.6743(2) 0.2330(3) 0.4800(4)
H7 H 0.6900 0.1822 0.4970
C9 C 0.53554(19) 0.1546(3) 0.4023(3)
H8 H 0.5111 0.1218 0.3527
H9 H 0.5154 0.2060 0.4086
C10 C 0.5410(2) 0.1131(3) 0.5065(3)
C11 C 0.5013(2) 0.1294(3) 0.5813(4)
H10 H 0.4715 0.1685 0.5696
C12 C 0.5067(2) 0.0868(3) 0.6735(4)
H11 H 0.4797 0.0956 0.7240
C13 C 0.5524(2) 0.0311(3) 0.6902(3)
H12 H 0.5567 0.0021 0.7522
C14 C 0.5926(2) 0.0184(3) 0.6127(3)
C15 C 0.6449(2) -0.0381(3) 0.6318(3)
H13 H 0.6567 -0.0400 0.7060
H14 H 0.6323 -0.0919 0.6099
C16 C 0.7352(2) 0.0463(3) 0.6242(3)
C17 C 0.7128(2) 0.1002(3) 0.6968(4)
H15 H 0.6742 0.0923 0.7184
C18 C 0.7470(2) 0.1647(3) 0.7367(4)
H16 H 0.7310 0.1994 0.7841
C19 C 0.8047(2) 0.1780(3) 0.7070(4)
H17 H 0.8271 0.2222 0.7324
C20 C 0.8288(2) 0.1242(3) 0.6386(4)
H18 H 0.8679 0.1318 0.6192
C21 C 0.7946(2) 0.0586(3) 0.5988(4)
H19 H 0.8118 0.0225 0.5545
C22 C 0.7270(2) -0.0846(3) 0.5340(4)
H20 H 0.7374 -0.1224 0.5901
H21 H 0.7642 -0.0678 0.5057
C23 C 0.6871(2) -0.1267(3) 0.4494(3)
C24 C 0.7586(2) 0.0477(3) 0.3200(3)
C25 C 0.8235(2) 0.0811(3) 0.3360(3)
H22 H 0.8220 0.1395 0.3401
H23 H 0.8425 0.0611 0.4014
C26 C 0.9249(2) 0.0586(3) 0.2729(4)
C27 C 0.9529(2) 0.0763(4) 0.3700(4)
H24 H 0.9296 0.0902 0.4243
C28 C 1.0154(2) 0.0738(4) 0.3875(5)
H25 H 1.0334 0.0853 0.4535
C29 C 1.0506(2) 0.0545(4) 0.3093(5)
H26 H 1.0925 0.0539 0.3211
C30 C 1.0233(3) 0.0359(4) 0.2125(5)
H27 H 1.0469 0.0221 0.1587
C31 C 0.9611(2) 0.0377(4) 0.1946(5)
H28 H 0.9434 0.0247 0.1288
C32 C 0.8382(2) 0.0949(3) 0.1517(3)
H29 H 0.8653 0.1386 0.1370
H30 H 0.7987 0.1182 0.1592
C33 C 0.8335(2) 0.0381(3) 0.0603(3)
C34 C 0.8309(2) 0.0673(3) -0.0407(4)
H31 H 0.8321 0.1226 -0.0530
C35 C 0.8264(2) 0.0139(3) -0.1227(4)
H32 H 0.8237 0.0326 -0.1911
C36 C 0.8259(2) -0.0689(3) -0.1020(4)
H33 H 0.8242 -0.1060 -0.1562
C37 C 0.82796(19) -0.0946(3) 0.0001(3)
C38 C 0.8250(2) -0.1821(3) 0.0297(3)
H34 H 0.7832 -0.1977 0.0340
H35 H 0.8416 -0.2148 -0.0236
C39 C 0.9245(2) -0.1992(3) 0.1266(4)
C40 C 0.9520(2) -0.1878(4) 0.0352(5)
H36 H 0.9286 -0.1798 -0.0270
C41 C 1.0143(3) -0.1883(4) 0.0359(6)
H37 H 1.0323 -0.1795 -0.0259
C42 C 1.0498(3) -0.2013(4) 0.1256(6)
H38 H 1.0916 -0.2036 0.1247
C43 C 1.0229(3) -0.2112(4) 0.2186(5)
H39 H 1.0468 -0.2189 0.2805
C44 C 0.9607(2) -0.2096(3) 0.2190(5)
H40 H 0.9429 -0.2156 0.2815
C45 C 0.8339(2) -0.2654(3) 0.1847(4)
H41 H 0.8618 -0.2810 0.2431
H42 H 0.8292 -0.3110 0.1375
C46 C 0.7726(2) -0.2446(3) 0.2244(3)
N1 N 0.59578(16) 0.1679(2) 0.3630(3)
N2 N 0.58552(16) 0.0580(2) 0.5214(3)
N3 N 0.69759(17) -0.0142(2) 0.5759(3)
N4 N 0.85990(17) 0.0574(2) 0.2505(3)
N5 N 0.83138(16) -0.0414(2) 0.0796(3)
N6 N 0.85917(17) -0.1970(2) 0.1305(3)
O1 O 0.69746(15) -0.20142(18) 0.4418(2)
O2 O 0.64880(14) -0.08724(18) 0.3933(2)
O3 O 0.59529(14) 0.02735(19) 0.2561(2)
O4 O 0.54337(16) 0.0824(2) 0.1194(3)
O5 O 0.72171(14) 0.07995(19) 0.3743(2)
O6 O 0.74823(14) -0.00970(18) 0.2570(2)
O7 O 0.75429(13) -0.17312(18) 0.2194(2)
O8 O 0.74484(14) -0.30284(19) 0.2606(2)
O9 O 0.52851(17) -0.0842(2) 0.0803(3)
Cl1 Cl 0.67309(5) -0.09698(7) -0.06496(9)
Cl2 Cl 0.86402(5) -0.11590(7) 0.38815(9)
Cl3 Cl 0.58975(5) -0.26577(7) 0.23638(10)
Zn1 Zn 0.63882(2) 0.03867(3) 0.39748(4)
Zn2 Zn 0.82115(2) -0.08384(3) 0.22795(4)
Zn3 Zn 0.67184(2) -0.28810(3) 0.34298(4)
K1 K 0.64340(4) -0.10316(6) 0.16817(7)
H43 H 0.534(3) -0.030(4) 0.083(5)
H44 H 0.515(3) -0.093(4) 0.025(5)
Cl1C Cl 0.67309(5) -0.40302(7) 0.43504(9)
Zn3C Zn 0.67184(2) -0.21190(3) -0.15702(4)
loop_
_geom_bond_atom_site_label_1
_geom_bond_atom_site_label_2
_geom_bond_site_symmetry_1
_geom_bond_site_symmetry_2
C1 C2 1_555 1_555
C2 H1 1_555 1_555
H2 C2 1_555 1_555
C3 C4 1_555 1_555
C4 H3 1_555 1_555
C5 C4 1_555 1_555
H4 C5 1_555 1_555
C6 C5 1_555 1_555
H5 C6 1_555 1_555
C7 C6 1_555 1_555
H6 C7 1_555 1_555
C8 C3 1_555 1_555
H7 C8 1_555 1_555
C9 H8 1_555 1_555
H9 C9 1_555 1_555
C10 C9 1_555 1_555
C11 C10 1_555 1_555
H10 C11 1_555 1_555
C12 C11 1_555 1_555
H11 C12 1_555 1_555
C13 C12 1_555 1_555
H12 C13 1_555 1_555
C14 C13 1_555 1_555
C15 C14 1_555 1_555
H13 C15 1_555 1_555
H14 C15 1_555 1_555
C16 C17 1_555 1_555
C17 H15 1_555 1_555
C18 C17 1_555 1_555
H16 C18 1_555 1_555
C19 C18 1_555 1_555
H17 C19 1_555 1_555
C20 C19 1_555 1_555
H18 C20 1_555 1_555
C21 C16 1_555 1_555
H19 C21 1_555 1_555
C22 H20 1_555 1_555
H21 C22 1_555 1_555
C23 C22 1_555 1_555
C24 C25 1_555 1_555
C25 H22 1_555 1_555
H23 C25 1_555 1_555
C26 C27 1_555 1_555
C27 H24 1_555 1_555
C28 C27 1_555 1_555
H25 C28 1_555 1_555
C29 C28 1_555 1_555
H26 C29 1_555 1_555
C30 C29 1_555 1_555
H27 C30 1_555 1_555
C31 C26 1_555 1_555
H28 C31 1_555 1_555
C32 H29 1_555 1_555
H30 C32 1_555 1_555
C33 C32 1_555 1_555
C34 C33 1_555 1_555
H31 C34 1_555 1_555
C35 C34 1_555 1_555
H32 C35 1_555 1_555
C36 C35 1_555 1_555
H33 C36 1_555 1_555
C37 C36 1_555 1_555
C38 C37 1_555 1_555
H34 C38 1_555 1_555
H35 C38 1_555 1_555
C39 C40 1_555 1_555
C40 H36 1_555 1_555
C41 C40 1_555 1_555
H37 C41 1_555 1_555
C42 C41 1_555 1_555
H38 C42 1_555 1_555
C43 C42 1_555 1_555
H39 C43 1_555 1_555
C44 C39 1_555 1_555
H40 C44 1_555 1_555
C45 H41 1_555 1_555
H42 C45 1_555 1_555
C46 C45 1_555 1_555
N1 C2 1_555 1_555
N2 C10 1_555 1_555
N3 C15 1_555 1_555
N4 C25 1_555 1_555
N5 C33 1_555 1_555
N6 C38 1_555 1_555
O1 C23 1_555 1_555
O2 C23 1_555 1_555
O3 C1 1_555 1_555
O4 C1 1_555 1_555
O5 C24 1_555 1_555
O6 C24 1_555 1_555
O7 C46 1_555 1_555
O8 C46 1_555 1_555
O9 K1 1_555 1_555
Cl1 K1 1_555 1_555
Cl2 Zn2 1_555 1_555
Cl3 Zn3 1_555 1_555
Zn1 N1 1_555 1_555
Zn2 N4 1_555 1_555
Zn3 O1 1_555 1_555
K1 O2 1_555 1_555
H43 O9 1_555 1_555
H44 O9 1_555 1_555
Cl1C Zn3 1_555 1_555
Zn3C Cl1 1_555 1_555
C3 N1 1_555 1_555
C7 C8 1_555 1_555
C9 N1 1_555 1_555
C14 N2 1_555 1_555
C16 N3 1_555 1_555
C20 C21 1_555 1_555
C22 N3 1_555 1_555
C26 N4 1_555 1_555
C30 C31 1_555 1_555
C32 N4 1_555 1_555
C37 N5 1_555 1_555
C39 N6 1_555 1_555
C43 C44 1_555 1_555
C45 N6 1_555 1_555
N2 Zn1 1_555 1_555
N5 Zn2 1_555 1_555
N6 Zn2 1_555 1_555
O2 Zn1 1_555 1_555
O3 Zn1 1_555 1_555
O3 K1 1_555 1_555
O5 Zn1 1_555 1_555
O6 Zn2 1_555 1_555
O6 K1 1_555 1_555
O7 Zn2 1_555 1_555
O7 K1 1_555 1_555
O8 Zn3 1_555 1_555
Cl3 K1 1_555 1_555

#END
