
#######################################################################
#
#                 Cambridge Crystallographic Data Centre
#                                CCDC 
#
#######################################################################
#
# If this CIF has been generated from an entry in the Cambridge 
# Structural Database, then it will include bibliographic, chemical, 
# crystal, experimental, refinement or atomic coordinate data resulting 
# from the CCDC's data processing and validation procedures.
#
#######################################################################

data_MIJJIZ
_symmetry_cell_setting           orthorhombic
_symmetry_space_group_name_H-M   'P n m a'
_symmetry_Int_Tables_number      62
_space_group_name_Hall           '-P 2ac 2n'
loop_
_symmetry_equiv_pos_site_id
_symmetry_equiv_pos_as_xyz
1 x,y,z
2 1/2-x,-y,1/2+z
3 -x,1/2+y,-z
4 1/2+x,1/2-y,1/2-z
5 -x,-y,-z
6 1/2+x,y,1/2-z
7 x,1/2-y,z
8 1/2-x,1/2+y,1/2+z
_cell_length_a                   10.0248(10)
_cell_length_b                   14.7795(11)
_cell_length_c                   5.3288(5)
_cell_angle_alpha                90
_cell_angle_beta                 90
_cell_angle_gamma                90
_cell_volume                     789.523
loop_
_atom_site_label
_atom_site_type_symbol
_atom_site_fract_x
_atom_site_fract_y
_atom_site_fract_z
Ag1 Ag 0.48759(3) 0.7500 0.02054(5)
O1 O 0.33386(19) 0.50721(11) 0.4312(4)
N1 N 0.40433(18) 0.45320(12) 0.2560(4)
C1 C 0.4581(2) 0.51366(16) 0.1076(4)
N2 N 0.42989(17) 0.60275(13) 0.1674(3)
C2 C 0.3549(2) 0.59384(15) 0.3650(4)
H1 H 0.3185 0.6437 0.4541
N3 N 0.6505(3) 0.7500 -0.4566(5)
O2 O 0.5265(2) 0.7500 -0.4180(5)
O3 O 0.7305(2) 0.7500 -0.2760(4)
O4 O 0.6931(2) 0.7500 -0.6801(4)
Ag1_2 Ag 0.48759(3) 0.7500 -0.97946(5)
Ag1D Ag 0.51241(3) 0.2500 -0.02054(5)
O1D O 0.66614(19) 0.49279(11) -0.4312(4)
N1D N 0.59567(18) 0.54680(12) -0.2560(4)
C1D C 0.5419(2) 0.48634(16) -0.1076(4)
N2D N 0.57011(17) 0.39725(13) -0.1674(3)
N2F N 0.42989(17) 0.89725(13) 0.1674(3)
C2D C 0.6451(2) 0.40616(15) -0.3650(4)
H1D H 0.6815 0.3563 -0.4541
O4_2 O 0.6931(2) 0.7500 0.3199(4)
loop_
_geom_bond_atom_site_label_1
_geom_bond_atom_site_label_2
_geom_bond_site_symmetry_1
_geom_bond_site_symmetry_2
Ag1 N2 1_555 1_555
O1 N1 1_555 1_555
N1 C1 1_555 1_555
C1 N2 1_555 1_555
N2 C2 1_555 1_555
C2 O1 1_555 1_555
H1 C2 1_555 1_555
N3 O2 1_555 1_555
O2 Ag1 1_555 1_555
O3 N3 1_555 1_555
O4 N3 1_555 1_555
Ag1_2 O4 1_555 1_555
Ag1D N2D 1_555 1_555
O1D N1D 1_555 1_555
N1D C1D 1_555 1_555
C1D C1 1_555 1_555
N2D C1D 1_555 1_555
N2F Ag1 1_555 1_555
C2D O1D 1_555 1_555
H1D C2D 1_555 1_555
O4_2 Ag1 1_555 1_555
N2D C2D 1_555 1_555

#END
