
#######################################################################
#
#                 Cambridge Crystallographic Data Centre
#                                CCDC 
#
#######################################################################
#
# If this CIF has been generated from an entry in the Cambridge 
# Structural Database, then it will include bibliographic, chemical, 
# crystal, experimental, refinement or atomic coordinate data resulting 
# from the CCDC's data processing and validation procedures.
#
#######################################################################

data_MIJJUL
_symmetry_cell_setting           orthorhombic
_symmetry_space_group_name_H-M   'I b a m'
_symmetry_Int_Tables_number      72
_space_group_name_Hall           '-I 2 2c'
loop_
_symmetry_equiv_pos_site_id
_symmetry_equiv_pos_as_xyz
1 x,y,z
2 1/2+x,1/2+y,1/2+z
3 -x,-y,z
4 1/2-x,1/2+y,-z
5 1/2+x,1/2-y,-z
6 1/2-x,1/2-y,1/2+z
7 -x,y,1/2-z
8 x,-y,1/2-z
9 -x,-y,-z
10 1/2-x,1/2-y,1/2-z
11 x,y,-z
12 1/2+x,1/2-y,z
13 1/2-x,1/2+y,z
14 1/2+x,1/2+y,1/2-z
15 x,-y,1/2+z
16 -x,y,1/2+z
_cell_length_a                   12.472(2)
_cell_length_b                   19.788(4)
_cell_length_c                   37.901(7)
_cell_angle_alpha                90
_cell_angle_beta                 90
_cell_angle_gamma                90
_cell_volume                     9353.81
loop_
_atom_site_label
_atom_site_type_symbol
_atom_site_fract_x
_atom_site_fract_y
_atom_site_fract_z
Zn1 Zn 0.102471(16) 0.369112(10) 0.076188(5)
O1 O -0.03158(13) 0.30226(9) 0.10534(5)
O2 O 0.14220(12) 0.29217(7) 0.10830(4)
N1 N 0.03781(12) 0.35406(8) 0.02870(4)
N2 N 0.09672(17) 0.36433(11) 0.0000
N3 N 0.25440(13) 0.41053(8) 0.06639(4)
N4 N -0.02092(12) 0.10737(8) 0.18710(4)
N5 N 0.03746(12) 0.45015(7) 0.09969(4)
N6 N 0.0000 0.5000 0.07935(5)
C1 C -0.06425(15) 0.33696(10) 0.01830(5)
C2 C -0.15752(18) 0.32143(15) 0.03758(6)
H1 H -0.1581 0.3217 0.0621
C3 C -0.2474(2) 0.30581(17) 0.01845(7)
H2 H -0.3103 0.2949 0.0304
C4 C 0.25951(16) 0.47296(11) 0.05300(6)
H3 H 0.1966 0.4928 0.0448
C5 C 0.35361(16) 0.50944(11) 0.05071(6)
H4 H 0.3532 0.5530 0.0415
C6 C 0.44853(15) 0.48086(10) 0.06226(5)
C7 C 0.44366(18) 0.41519(13) 0.07491(7)
H5 H 0.5060 0.3932 0.0820
C8 C 0.34638(18) 0.38254(12) 0.07697(6)
H6 H 0.3446 0.3390 0.0862
C9 C 0.06941(15) 0.10482(9) 0.16677(5)
C10 C 0.12994(17) 0.04458(10) 0.16790(6)
H7 H 0.1076 0.0089 0.1821
C11 C 0.22089(18) 0.03858(11) 0.14829(7)
H8 H 0.2595 -0.0016 0.1488
C12 C 0.25684(18) 0.09239(12) 0.12741(7)
H9 H 0.3202 0.0880 0.1147
C13 C 0.19998(16) 0.15114(11) 0.12553(6)
H10 H 0.2253 0.1865 0.1117
C14 C 0.10266(14) 0.15876(9) 0.14445(5)
C15 C 0.03212(14) 0.21477(9) 0.14198(5)
C16 C 0.04829(16) 0.27323(9) 0.11682(5)
C17 C -0.06001(15) 0.21526(9) 0.16174(5)
H11 H -0.1074 0.2513 0.1599
C18 C -0.08345(14) 0.16106(9) 0.18502(5)
C19 C -0.17978(15) 0.16200(9) 0.20822(5)
C20 C -0.26496(16) 0.20568(10) 0.20238(5)
H12 H -0.2637 0.2343 0.1829
C21 C -0.35209(16) 0.20717(12) 0.22523(6)
H13 H -0.4086 0.2368 0.2211
C22 C -0.35476(17) 0.16492(13) 0.25400(6)
H14 H -0.4126 0.1663 0.2694
C23 C -0.2718(2) 0.12053(13) 0.25992(6)
H15 H -0.2742 0.0914 0.2792
C24 C -0.18451(18) 0.11911(12) 0.23728(6)
H16 H -0.1285 0.0892 0.2415
C25 C 0.02358(14) 0.46814(9) 0.13422(5)
C26 C 0.04841(18) 0.43434(11) 0.16582(5)
H17 H 0.0796 0.3917 0.1660
C27 C 0.0239(2) 0.46795(12) 0.19637(6)
H18 H 0.0395 0.4475 0.2179
Zn1J Zn 0.102471(16) 0.369112(10) -0.076188(5)
Zn1B Zn 0.897529(16) 0.630888(10) 0.076188(5)
Zn1B_2 Zn -0.102471(16) 0.630888(10) 0.076188(5)
O1J O -0.03158(13) 0.30226(9) -0.10534(5)
O2J O 0.14220(12) 0.29217(7) -0.10830(4)
N1J N 0.03781(12) 0.35406(8) -0.02870(4)
N3B N 0.74560(13) 0.58947(8) 0.06639(4)
N3J N 0.25440(13) 0.41053(8) -0.06639(4)
N4J N -0.02092(12) 0.10737(8) -0.18710(4)
N5B N -0.03746(12) 0.54985(7) 0.09969(4)
N5J N 0.03746(12) 0.45015(7) -0.09969(4)
C1J C -0.06425(15) 0.33696(10) -0.01830(5)
C2J C -0.15752(18) 0.32143(15) -0.03758(6)
H1J H -0.1581 0.3217 -0.0621
C3J C -0.2474(2) 0.30581(17) -0.01845(7)
H2J H -0.3103 0.2949 -0.0304
C4B C 0.74049(16) 0.52704(11) 0.05300(6)
H3B H 0.8034 0.5072 0.0448
C5B C 0.64639(16) 0.49056(11) 0.05071(6)
H4B H 0.6468 0.4470 0.0415
C6B C 0.55147(15) 0.51914(10) 0.06226(5)
C7B C 0.55634(18) 0.58481(13) 0.07491(7)
H5B H 0.4940 0.6068 0.0820
C8B C 0.65362(18) 0.61746(12) 0.07697(6)
H6B H 0.6554 0.6610 0.0862
C9J C 0.06941(15) 0.10482(9) -0.16677(5)
C10J C 0.12994(17) 0.04458(10) -0.16790(6)
H7J H 0.1076 0.0089 -0.1821
C11J C 0.22089(18) 0.03858(11) -0.14829(7)
H8J H 0.2595 -0.0016 -0.1488
C12J C 0.25684(18) 0.09239(12) -0.12741(7)
H9J H 0.3202 0.0880 -0.1147
C13J C 0.19998(16) 0.15114(11) -0.12553(6)
H10J H 0.2253 0.1865 -0.1117
C14J C 0.10266(14) 0.15876(9) -0.14445(5)
C15J C 0.03212(14) 0.21477(9) -0.14198(5)
C16J C 0.04829(16) 0.27323(9) -0.11682(5)
C17J C -0.06001(15) 0.21526(9) -0.16174(5)
H11J H -0.1074 0.2513 -0.1599
C18J C -0.08345(14) 0.16106(9) -0.18502(5)
C19J C -0.17978(15) 0.16200(9) -0.20822(5)
C20J C -0.26496(16) 0.20568(10) -0.20238(5)
H12J H -0.2637 0.2343 -0.1829
C21J C -0.35209(16) 0.20717(12) -0.22523(6)
H13J H -0.4086 0.2368 -0.2211
C22J C -0.35476(17) 0.16492(13) -0.25400(6)
H14J H -0.4126 0.1663 -0.2694
C23J C -0.2718(2) 0.12053(13) -0.25992(6)
H15J H -0.2742 0.0914 -0.2792
C24J C -0.18451(18) 0.11911(12) -0.23728(6)
H16J H -0.1285 0.0892 -0.2415
C25B C -0.02358(14) 0.53186(9) 0.13422(5)
C26B C -0.04841(18) 0.56566(11) 0.16582(5)
H17B H -0.0796 0.6083 0.1660
C27B C -0.0239(2) 0.53205(12) 0.19637(6)
H18B H -0.0395 0.5525 0.2179
loop_
_geom_bond_atom_site_label_1
_geom_bond_atom_site_label_2
_geom_bond_site_symmetry_1
_geom_bond_site_symmetry_2
Zn1 O1 1_555 1_555
O1 C16 1_555 1_555
O2 Zn1 1_555 1_555
N1 Zn1 1_555 1_555
N2 N1 1_555 1_555
N3 Zn1 1_555 1_555
N4 C9 1_555 1_555
N5 Zn1 1_555 1_555
N6 N5 1_555 1_555
C1 N1 1_555 1_555
C2 C1 1_555 1_555
H1 C2 1_555 1_555
C3 C2 1_555 1_555
H2 C3 1_555 1_555
C4 N3 1_555 1_555
H3 C4 1_555 1_555
C5 C4 1_555 1_555
H4 C5 1_555 1_555
C6 C5 1_555 1_555
C7 C6 1_555 1_555
H5 C7 1_555 1_555
C8 N3 1_555 1_555
H6 C8 1_555 1_555
C9 C10 1_555 1_555
C10 H7 1_555 1_555
C11 C10 1_555 1_555
H8 C11 1_555 1_555
C12 C11 1_555 1_555
H9 C12 1_555 1_555
C13 C12 1_555 1_555
H10 C13 1_555 1_555
C14 C9 1_555 1_555
C15 C14 1_555 1_555
C16 O2 1_555 1_555
C17 C15 1_555 1_555
H11 C17 1_555 1_555
C18 N4 1_555 1_555
C19 C18 1_555 1_555
C20 C19 1_555 1_555
H12 C20 1_555 1_555
C21 C20 1_555 1_555
H13 C21 1_555 1_555
C22 C21 1_555 1_555
H14 C22 1_555 1_555
C23 C22 1_555 1_555
H15 C23 1_555 1_555
C24 C19 1_555 1_555
H16 C24 1_555 1_555
C25 N5 1_555 1_555
C26 C25 1_555 1_555
H17 C26 1_555 1_555
C27 C26 1_555 1_555
H18 C27 1_555 1_555
Zn1J O1J 1_555 1_555
Zn1B N3B 1_555 1_555
Zn1B_2 N5B 1_555 1_555
O1J C16J 1_555 1_555
O2J Zn1J 1_555 1_555
N1J N2 1_555 1_555
N3B C4B 1_555 1_555
N3J Zn1J 1_555 1_555
N4J C9J 1_555 1_555
N5B N6 1_555 1_555
N5J Zn1J 1_555 1_555
C1J C1 1_555 1_555
C2J C1J 1_555 1_555
H1J C2J 1_555 1_555
C3J C3 1_555 1_555
H2J C3J 1_555 1_555
C4B H3B 1_555 1_555
C5B C4B 1_555 1_555
H4B C5B 1_555 1_555
C6B C6 1_555 1_555
C7B C6B 1_555 1_555
H5B C7B 1_555 1_555
C8B N3B 1_555 1_555
H6B C8B 1_555 1_555
C9J C10J 1_555 1_555
C10J H7J 1_555 1_555
C11J C10J 1_555 1_555
H8J C11J 1_555 1_555
C12J C11J 1_555 1_555
H9J C12J 1_555 1_555
C13J C12J 1_555 1_555
H10J C13J 1_555 1_555
C14J C9J 1_555 1_555
C15J C14J 1_555 1_555
C16J O2J 1_555 1_555
C17J C15J 1_555 1_555
H11J C17J 1_555 1_555
C18J N4J 1_555 1_555
C19J C18J 1_555 1_555
C20J C19J 1_555 1_555
H12J C20J 1_555 1_555
C21J C20J 1_555 1_555
H13J C21J 1_555 1_555
C22J C21J 1_555 1_555
H14J C22J 1_555 1_555
C23J C22J 1_555 1_555
H15J C23J 1_555 1_555
C24J C19J 1_555 1_555
H16J C24J 1_555 1_555
C25B C25 1_555 1_555
C26B C25B 1_555 1_555
H17B C26B 1_555 1_555
C27B C27 1_555 1_555
H18B C27B 1_555 1_555
C7 C8 1_555 1_555
C13 C14 1_555 1_555
C15 C16 1_555 1_555
C17 C18 1_555 1_555
C23 C24 1_555 1_555
Zn1J N1J 1_555 1_555
N1J C1J 1_555 1_555
N5B C25B 1_555 1_555
C2J C3J 1_555 1_555
C5B C6B 1_555 1_555
C7B C8B 1_555 1_555
C13J C14J 1_555 1_555
C15J C16J 1_555 1_555
C17J C18J 1_555 1_555
C23J C24J 1_555 1_555
C26B C27B 1_555 1_555

#END
