
#######################################################################
#
#                 Cambridge Crystallographic Data Centre
#                                CCDC 
#
#######################################################################
#
# If this CIF has been generated from an entry in the Cambridge 
# Structural Database, then it will include bibliographic, chemical, 
# crystal, experimental, refinement or atomic coordinate data resulting 
# from the CCDC's data processing and validation procedures.
#
#######################################################################

data_MIJJOF
_symmetry_cell_setting           monoclinic
_symmetry_space_group_name_H-M   'P 2/c'
_symmetry_Int_Tables_number      13
_space_group_name_Hall           '-P 2yc'
loop_
_symmetry_equiv_pos_site_id
_symmetry_equiv_pos_as_xyz
1 x,y,z
2 -x,y,1/2-z
3 -x,-y,-z
4 x,-y,1/2+z
_cell_length_a                   13.1351(8)
_cell_length_b                   11.4648(5)
_cell_length_c                   23.0231(13)
_cell_angle_alpha                90
_cell_angle_beta                 105.031(3)
_cell_angle_gamma                90
_cell_volume                     3348.45
loop_
_atom_site_label
_atom_site_type_symbol
_atom_site_fract_x
_atom_site_fract_y
_atom_site_fract_z
Zn1 Zn 0.0000 0.39659(3) 0.2500
Zn2 Zn 0.05779(2) 0.37747(2) 0.400718(10)
Zn3 Zn 0.09903(2) 0.57517(2) 0.038020(10)
O1 O 0.06291(16) 0.31495(15) 0.32235(7)
O2 O -0.02107(12) 0.40560(13) 0.46439(6)
O3 O 0.18522(13) 0.48055(16) 0.42030(7)
O4 O 0.22461(13) 0.49728(16) 0.52038(7)
O5 O 0.11881(17) 0.22400(15) 0.43985(7)
O6 O 0.14120(15) 0.24979(14) 0.53801(7)
N1 N 0.08227(16) 0.50839(17) 0.21071(8)
N2 N 0.05748(15) 0.50296(17) 0.15099(7)
N3 N 0.11392(15) 0.57850(16) 0.12842(8)
N4 N 0.52123(19) 0.7132(2) 0.47113(12)
N5 N 0.13509(17) -0.18378(17) 0.52967(9)
C1 C 0.17726(18) 0.6371(2) 0.17604(9)
C2 C 0.2519(2) 0.7267(2) 0.17875(11)
H1 H 0.2645 0.7591 0.1442
C3 C 0.3047(2) 0.7634(3) 0.23519(12)
H2 H 0.3546 0.8224 0.2389
C4 C 0.2860(3) 0.7146(3) 0.28797(12)
H3 H 0.3243 0.7420 0.3253
C5 C 0.2137(2) 0.6289(2) 0.28565(11)
H4 H 0.2014 0.5969 0.3203
C6 C 0.15836(19) 0.5913(2) 0.22798(10)
C7 C 0.4638(2) 0.7334(3) 0.50923(14)
C8 C 0.3744(2) 0.6638(2) 0.50947(12)
H5 H 0.3356 0.6798 0.5371
C9 C 0.34450(19) 0.5741(2) 0.46989(11)
C10 C 0.4059(2) 0.5484(3) 0.42860(12)
C11 C 0.3888(2) 0.4549(3) 0.38757(13)
H6 H 0.3333 0.4036 0.3860
C12 C 0.4532(3) 0.4389(4) 0.34997(15)
H7 H 0.4412 0.3766 0.3232
C13 C 0.5366(3) 0.5152(4) 0.35157(18)
H8 H 0.5784 0.5048 0.3249
C14 C 0.5573(3) 0.6041(4) 0.39155(16)
H9 H 0.6140 0.6534 0.3926
C15 C 0.4941(2) 0.6227(3) 0.43161(13)
C16 C 0.4956(2) 0.8326(3) 0.55184(16)
C17 C 0.5839(3) 0.8965(4) 0.5532(2)
H10 H 0.6264 0.8763 0.5282
C18 C 0.6108(4) 0.9913(5) 0.5915(2)
H11 H 0.6711 1.0340 0.5917
C19 C 0.5520(4) 1.0221(4) 0.6280(3)
H12 H 0.5707 1.0862 0.6533
C20 C 0.4658(5) 0.9603(5) 0.6281(3)
H13 H 0.4243 0.9814 0.6536
C21 C 0.4378(4) 0.8644(5) 0.5902(3)
H14 H 0.3783 0.8213 0.5912
C22 C 0.24492(18) 0.5107(2) 0.47037(11)
C23 C 0.15709(19) -0.1045(2) 0.57261(11)
C24 C 0.1560(2) 0.0162(2) 0.55957(10)
H15 H 0.1693 0.0696 0.5910
C25 C 0.13586(18) 0.0557(2) 0.50177(10)
C26 C 0.11504(19) -0.0278(2) 0.45393(10)
C27 C 0.0918(2) -0.0029(2) 0.39142(11)
H16 H 0.0913 0.0742 0.3788
C28 C 0.0704(3) -0.0895(3) 0.34979(12)
H17 H 0.0549 -0.0708 0.3091
C29 C 0.0713(2) -0.2063(3) 0.36705(12)
H18 H 0.0565 -0.2647 0.3380
C30 C 0.0938(2) -0.2345(2) 0.42616(12)
H19 H 0.0947 -0.3125 0.4374
C31 C 0.11586(19) -0.1470(2) 0.47122(11)
C32 C 0.1859(2) -0.1458(2) 0.63630(11)
C33 C 0.2217(2) -0.2590(2) 0.64991(13)
H20 H 0.2230 -0.3109 0.6191
C34 C 0.2556(3) -0.2952(3) 0.70947(14)
H21 H 0.2796 -0.3712 0.7182
C35 C 0.2540(3) -0.2197(3) 0.75543(14)
H22 H 0.2780 -0.2440 0.7952
C36 C 0.2168(3) -0.1080(3) 0.74254(14)
H23 H 0.2141 -0.0573 0.7736
C37 C 0.1834(3) -0.0707(3) 0.68340(13)
H24 H 0.1590 0.0052 0.6751
C38 C 0.13219(19) 0.1875(2) 0.49222(10)
Zn2A Zn -0.05779(2) 0.37747(2) 0.099282(10)
Zn2C Zn 0.05779(2) 0.62253(2) -0.099282(10)
Zn3A Zn -0.09903(2) 0.57517(2) 0.461980(10)
Zn3C Zn 0.09903(2) 0.42483(2) 0.538020(10)
Zn3B Zn -0.09903(2) 0.42483(2) -0.038020(10)
O1A O -0.06291(16) 0.31495(15) 0.17765(7)
O2C O -0.02107(12) 0.59440(13) -0.03561(6)
O2A O 0.02107(12) 0.40560(13) 0.03561(6)
O2B O 0.02107(12) 0.59440(13) 0.53561(6)
O3C O 0.18522(13) 0.51945(16) -0.07970(7)
O3A O -0.18522(13) 0.48055(16) 0.07970(7)
O4C O 0.22461(13) 0.50272(16) 0.02038(7)
O4B O -0.22461(13) 0.50272(16) 0.47962(7)
O5C O 0.11881(17) 0.77600(15) -0.06015(7)
O5A O -0.11881(17) 0.22400(15) 0.06015(7)
O6C O 0.14120(15) 0.75021(14) 0.03801(7)
O6B O -0.14120(15) 0.75021(14) 0.46199(7)
N1A N -0.08227(16) 0.50839(17) 0.28929(8)
N2A N -0.05748(15) 0.50296(17) 0.34901(7)
N3A N -0.11392(15) 0.57850(16) 0.37158(8)
N4C N 0.52123(19) 0.2868(2) -0.02887(12)
N5C N 0.13509(17) 1.18378(17) 0.02967(9)
C1A C -0.17726(18) 0.6371(2) 0.32396(9)
C2A C -0.2519(2) 0.7267(2) 0.32125(11)
H1A H -0.2645 0.7591 0.3558
C3A C -0.3047(2) 0.7634(3) 0.26481(12)
H2A H -0.3546 0.8224 0.2611
C4A C -0.2860(3) 0.7146(3) 0.21203(12)
H3A H -0.3243 0.7420 0.1747
C5A C -0.2137(2) 0.6289(2) 0.21435(11)
H4A H -0.2014 0.5969 0.1797
C6A C -0.15836(19) 0.5913(2) 0.27202(10)
C7C C 0.4638(2) 0.2666(3) 0.00923(14)
C8C C 0.3744(2) 0.3362(2) 0.00947(12)
H5C H 0.3356 0.3202 0.0371
C9C C 0.34450(19) 0.4259(2) -0.03011(11)
C10C C 0.4059(2) 0.4516(3) -0.07140(12)
C11C C 0.3888(2) 0.5451(3) -0.11243(13)
H6C H 0.3333 0.5964 -0.1140
C12C C 0.4532(3) 0.5611(4) -0.15003(15)
H7C H 0.4412 0.6234 -0.1768
C13C C 0.5366(3) 0.4848(4) -0.14843(18)
H8C H 0.5784 0.4952 -0.1751
C14C C 0.5573(3) 0.3959(4) -0.10845(16)
H9C H 0.6140 0.3466 -0.1074
C15C C 0.4941(2) 0.3773(3) -0.06839(13)
C16C C 0.4956(2) 0.1674(3) 0.05184(16)
C17C C 0.5839(3) 0.1035(4) 0.0532(2)
H10C H 0.6264 0.1237 0.0282
C18C C 0.6108(4) 0.0087(5) 0.0915(2)
H11C H 0.6711 -0.0340 0.0917
C19C C 0.5520(4) -0.0221(4) 0.1280(3)
H12C H 0.5707 -0.0862 0.1533
C20C C 0.4658(5) 0.0397(5) 0.1281(3)
H13C H 0.4243 0.0186 0.1536
C21C C 0.4378(4) 0.1356(5) 0.0902(3)
H14C H 0.3783 0.1787 0.0912
C22C C 0.24492(18) 0.4893(2) -0.02963(11)
C23C C 0.15709(19) 1.1045(2) 0.07261(11)
C24C C 0.1560(2) 0.9838(2) 0.05957(10)
H15C H 0.1693 0.9304 0.0910
C25C C 0.13586(18) 0.9443(2) 0.00177(10)
C26C C 0.11504(19) 1.0278(2) -0.04607(10)
C27C C 0.0918(2) 1.0029(2) -0.10858(11)
H16C H 0.0913 0.9258 -0.1212
C28C C 0.0704(3) 1.0895(3) -0.15021(12)
H17C H 0.0549 1.0708 -0.1909
C29C C 0.0713(2) 1.2063(3) -0.13295(12)
H18C H 0.0565 1.2647 -0.1620
C30C C 0.0938(2) 1.2345(2) -0.07384(12)
H19C H 0.0947 1.3125 -0.0626
C31C C 0.11586(19) 1.1470(2) -0.02878(11)
C32C C 0.1859(2) 1.1458(2) 0.13630(11)
C33C C 0.2217(2) 1.2590(2) 0.14991(13)
H20C H 0.2230 1.3109 0.1191
C34C C 0.2556(3) 1.2952(3) 0.20947(14)
H21C H 0.2796 1.3712 0.2182
C35C C 0.2540(3) 1.2197(3) 0.25543(14)
H22C H 0.2780 1.2440 0.2952
C36C C 0.2168(3) 1.1080(3) 0.24254(14)
H23C H 0.2141 1.0573 0.2736
C37C C 0.1834(3) 1.0707(3) 0.18340(13)
H24C H 0.1590 0.9948 0.1751
C38C C 0.13219(19) 0.8125(2) -0.00778(10)
loop_
_geom_bond_atom_site_label_1
_geom_bond_atom_site_label_2
_geom_bond_site_symmetry_1
_geom_bond_site_symmetry_2
Zn1 O1 1_555 1_555
Zn2 O1 1_555 1_555
Zn3 N3 1_555 1_555
O2 Zn2 1_555 1_555
O3 Zn2 1_555 1_555
O4 C22 1_555 1_555
O5 Zn2 1_555 1_555
O6 C38 1_555 1_555
N1 Zn1 1_555 1_555
N2 N1 1_555 1_555
N3 N2 1_555 1_555
N4 C7 1_555 1_555
N5 C23 1_555 1_555
C1 N3 1_555 1_555
C2 C1 1_555 1_555
H1 C2 1_555 1_555
C3 C2 1_555 1_555
H2 C3 1_555 1_555
C4 C3 1_555 1_555
H3 C4 1_555 1_555
C5 C4 1_555 1_555
H4 C5 1_555 1_555
C6 N1 1_555 1_555
C7 C8 1_555 1_555
C8 H5 1_555 1_555
C9 C8 1_555 1_555
C10 C9 1_555 1_555
C11 C10 1_555 1_555
H6 C11 1_555 1_555
C12 C11 1_555 1_555
H7 C12 1_555 1_555
C13 C12 1_555 1_555
H8 C13 1_555 1_555
C14 C13 1_555 1_555
H9 C14 1_555 1_555
C15 N4 1_555 1_555
C16 C7 1_555 1_555
C17 C16 1_555 1_555
H10 C17 1_555 1_555
C18 C17 1_555 1_555
H11 C18 1_555 1_555
C19 C18 1_555 1_555
H12 C19 1_555 1_555
C20 C19 1_555 1_555
H13 C20 1_555 1_555
C21 C16 1_555 1_555
H14 C21 1_555 1_555
C22 O3 1_555 1_555
C23 C24 1_555 1_555
C24 H15 1_555 1_555
C25 C24 1_555 1_555
C26 C25 1_555 1_555
C27 C26 1_555 1_555
H16 C27 1_555 1_555
C28 C27 1_555 1_555
H17 C28 1_555 1_555
C29 C28 1_555 1_555
H18 C29 1_555 1_555
C30 C29 1_555 1_555
H19 C30 1_555 1_555
C31 N5 1_555 1_555
C32 C23 1_555 1_555
C33 C32 1_555 1_555
H20 C33 1_555 1_555
C34 C33 1_555 1_555
H21 C34 1_555 1_555
C35 C34 1_555 1_555
H22 C35 1_555 1_555
C36 C35 1_555 1_555
H23 C36 1_555 1_555
C37 C32 1_555 1_555
H24 C37 1_555 1_555
C38 O5 1_555 1_555
Zn2A N2 1_555 1_555
Zn2C O2C 1_555 1_555
Zn3A O2 1_555 1_555
Zn3C O2 1_555 1_555
Zn3B O2C 1_555 1_555
O1A Zn1 1_555 1_555
O2C Zn3 1_555 1_555
O2A Zn3 1_555 1_555
O2B Zn3A 1_555 1_555
O3C Zn2C 1_555 1_555
O3A Zn2A 1_555 1_555
O4C Zn3 1_555 1_555
O4B Zn3A 1_555 1_555
O5C Zn2C 1_555 1_555
O5A Zn2A 1_555 1_555
O6C Zn3 1_555 1_555
O6B Zn3A 1_555 1_555
N1A Zn1 1_555 1_555
N2A Zn2 1_555 1_555
N3A Zn3A 1_555 1_555
N4C C7C 1_555 1_555
N5C C23C 1_555 1_555
C1A N3A 1_555 1_555
C2A C1A 1_555 1_555
H1A C2A 1_555 1_555
C3A C2A 1_555 1_555
H2A C3A 1_555 1_555
C4A C3A 1_555 1_555
H3A C4A 1_555 1_555
C5A C4A 1_555 1_555
H4A C5A 1_555 1_555
C6A N1A 1_555 1_555
C7C C8C 1_555 1_555
C8C H5C 1_555 1_555
C9C C8C 1_555 1_555
C10C C9C 1_555 1_555
C11C C10C 1_555 1_555
H6C C11C 1_555 1_555
C12C C11C 1_555 1_555
H7C C12C 1_555 1_555
C13C C12C 1_555 1_555
H8C C13C 1_555 1_555
C14C C13C 1_555 1_555
H9C C14C 1_555 1_555
C15C N4C 1_555 1_555
C16C C7C 1_555 1_555
C17C C16C 1_555 1_555
H10C C17C 1_555 1_555
C18C C17C 1_555 1_555
H11C C18C 1_555 1_555
C19C C18C 1_555 1_555
H12C C19C 1_555 1_555
C20C C19C 1_555 1_555
H13C C20C 1_555 1_555
C21C C16C 1_555 1_555
H14C C21C 1_555 1_555
C22C O3C 1_555 1_555
C23C C24C 1_555 1_555
C24C H15C 1_555 1_555
C25C C24C 1_555 1_555
C26C C25C 1_555 1_555
C27C C26C 1_555 1_555
H16C C27C 1_555 1_555
C28C C27C 1_555 1_555
H17C C28C 1_555 1_555
C29C C28C 1_555 1_555
H18C C29C 1_555 1_555
C30C C29C 1_555 1_555
H19C C30C 1_555 1_555
C31C N5C 1_555 1_555
C32C C23C 1_555 1_555
C33C C32C 1_555 1_555
H20C C33C 1_555 1_555
C34C C33C 1_555 1_555
H21C C34C 1_555 1_555
C35C C34C 1_555 1_555
H22C C35C 1_555 1_555
C36C C35C 1_555 1_555
H23C C36C 1_555 1_555
C37C C32C 1_555 1_555
H24C C37C 1_555 1_555
C38C O5C 1_555 1_555
O4 Zn3C 1_555 1_555
O6 Zn3C 1_555 1_555
C1 C6 1_555 1_555
C5 C6 1_555 1_555
C9 C22 1_555 1_555
C10 C15 1_555 1_555
C14 C15 1_555 1_555
C20 C21 1_555 1_555
C25 C38 1_555 1_555
C26 C31 1_555 1_555
C30 C31 1_555 1_555
C36 C37 1_555 1_555
Zn2A O1A 1_555 1_555
Zn2A O2A 1_555 1_555
Zn3C O2B 1_555 1_555
Zn3B O2A 1_555 1_555
O4C C22C 1_555 1_555
O6C C38C 1_555 1_555
N1A N2A 1_555 1_555
N2A N3A 1_555 1_555
C1A C6A 1_555 1_555
C5A C6A 1_555 1_555
C9C C22C 1_555 1_555
C10C C15C 1_555 1_555
C14C C15C 1_555 1_555
C20C C21C 1_555 1_555
C25C C38C 1_555 1_555
C26C C31C 1_555 1_555
C30C C31C 1_555 1_555
C36C C37C 1_555 1_555

#END
