
#######################################################################
#
#                 Cambridge Crystallographic Data Centre
#                                CCDC 
#
#######################################################################
#
# If this CIF has been generated from an entry in the Cambridge 
# Structural Database, then it will include bibliographic, chemical, 
# crystal, experimental, refinement or atomic coordinate data resulting 
# from the CCDC's data processing and validation procedures.
#
#######################################################################

data_MIJKIA
_symmetry_cell_setting           triclinic
_symmetry_space_group_name_H-M   'P -1'
_symmetry_Int_Tables_number      2
_space_group_name_Hall           '-P 1'
loop_
_symmetry_equiv_pos_site_id
_symmetry_equiv_pos_as_xyz
1 x,y,z
2 -x,-y,-z
_cell_length_a                   7.7807(16)
_cell_length_b                   8.4594(17)
_cell_length_c                   11.752(2)
_cell_angle_alpha                99.78(3)
_cell_angle_beta                 93.72(3)
_cell_angle_gamma                104.60(3)
_cell_volume                     732.942
loop_
_atom_site_label
_atom_site_type_symbol
_atom_site_fract_x
_atom_site_fract_y
_atom_site_fract_z
Mn1 Mn -0.15159(7) -0.93800(7) -0.91713(4)
N1 N -0.5094(4) -1.1851(3) -1.0089(2)
N2 N -0.0687(4) -0.9313(4) -1.0913(2)
N3 N -0.1833(4) -0.9633(4) -1.1727(2)
N4 N -0.3663(4) -1.1668(4) -0.9619(3)
N5 N 0.0525(4) -0.6976(4) -0.8312(3)
N6 N -0.1607(4) -0.9167(3) -0.7243(2)
N7 N -0.2891(5) -0.9918(5) -1.2500(3)
C1 C -0.2707(5) -1.0173(4) -0.6733(3)
H1 H -0.3587 -1.1039 -0.7197
C2 C 0.0816(4) -0.6726(4) -0.7146(3)
N8 N 0.3678(4) -0.3886(4) -0.4613(3)
H2 H 0.4363 -0.3175 -0.4942
C3 C -0.1307(5) -0.8762(5) -0.4838(3)
H3 H -0.1206 -0.8641 -0.4034
C4 C 0.2113(4) -0.5345(4) -0.6482(3)
C5 C 0.2377(4) -0.5171(4) -0.5245(3)
C6 C -0.0324(4) -0.7893(4) -0.6571(3)
C7 C 0.1306(5) -0.6325(5) -0.4687(3)
C8 C 0.1501(5) -0.5862(5) -0.8847(4)
H4 H 0.1328 -0.6041 -0.9654
N9 N 0.1549(5) -0.6165(4) -0.3533(3)
H5 H 0.0890 -0.6869 -0.3186
C9 C -0.0125(4) -0.7681(4) -0.5363(3)
C10 C 0.2811(7) -0.4914(6) -0.2950(4)
H6 H 0.3008 -0.4798 -0.2147
N10 N -0.6530(4) -1.2087(4) -1.0541(3)
C11 C -0.2642(5) -1.0025(5) -0.5523(3)
H7 H -0.3473 -1.0755 -0.5192
C12 C 0.3074(6) -0.4183(5) -0.7082(4)
H8 H 0.3920 -0.3237 -0.6677
C13 C 0.3858(6) -0.3764(6) -0.3485(4)
H9 H 0.4721 -0.2871 -0.3033
C14 C 0.2768(6) -0.4439(5) -0.8256(4)
H10 H 0.3399 -0.3671 -0.8661
Mn1A Mn 0.15159(7) -1.06200(7) -1.08287(4)
Mn1A_2 Mn -0.84841(7) -1.06200(7) -1.08287(4)
N2A N 0.0687(4) -1.0687(4) -0.9087(2)
N10A N -0.3470(4) -0.7913(4) -0.9459(3)
loop_
_geom_bond_atom_site_label_1
_geom_bond_atom_site_label_2
_geom_bond_site_symmetry_1
_geom_bond_site_symmetry_2
Mn1 N2 1_555 1_555
N1 N4 1_555 1_555
N2 N3 1_555 1_555
N3 N7 1_555 1_555
N4 Mn1 1_555 1_555
N5 Mn1 1_555 1_555
N6 Mn1 1_555 1_555
C1 N6 1_555 1_555
H1 C1 1_555 1_555
C2 N5 1_555 1_555
N8 H2 1_555 1_555
C3 H3 1_555 1_555
C4 C2 1_555 1_555
C5 N8 1_555 1_555
C6 N6 1_555 1_555
C7 C5 1_555 1_555
C8 N5 1_555 1_555
H4 C8 1_555 1_555
N9 C7 1_555 1_555
H5 N9 1_555 1_555
C9 C3 1_555 1_555
C10 N9 1_555 1_555
H6 C10 1_555 1_555
N10 N1 1_555 1_555
C11 C1 1_555 1_555
H7 C11 1_555 1_555
C12 C4 1_555 1_555
H8 C12 1_555 1_555
C13 N8 1_555 1_555
H9 C13 1_555 1_555
C14 C8 1_555 1_555
H10 C14 1_555 1_555
Mn1A N2 1_555 1_555
Mn1A_2 N10 1_555 1_555
N2A Mn1 1_555 1_555
N10A Mn1 1_555 1_555
C2 C6 1_555 1_555
C3 C11 1_555 1_555
C4 C5 1_555 1_555
C6 C9 1_555 1_555
C7 C9 1_555 1_555
C10 C13 1_555 1_555
C12 C14 1_555 1_555
Mn1A N2A 1_555 1_555

#END
