
#######################################################################
#
#                 Cambridge Crystallographic Data Centre
#                                CCDC 
#
#######################################################################
#
# If this CIF has been generated from an entry in the Cambridge 
# Structural Database, then it will include bibliographic, chemical, 
# crystal, experimental, refinement or atomic coordinate data resulting 
# from the CCDC's data processing and validation procedures.
#
#######################################################################

data_MIJLEX01
_symmetry_cell_setting           monoclinic
_symmetry_space_group_name_H-M   'C 2/c'
_symmetry_Int_Tables_number      15
_space_group_name_Hall           '-C 2yn'
loop_
_symmetry_equiv_pos_site_id
_symmetry_equiv_pos_as_xyz
1 x,y,z
2 1/2+x,1/2+y,z
3 -x,y,1/2-z
4 1/2-x,1/2+y,1/2-z
5 -x,-y,-z
6 1/2-x,1/2-y,-z
7 x,-y,1/2+z
8 1/2+x,1/2-y,1/2+z
_cell_length_a                   10.952(2)
_cell_length_b                   11.844(2)
_cell_length_c                   11.323(2)
_cell_angle_alpha                90
_cell_angle_beta                 113.98(3)
_cell_angle_gamma                90
_cell_volume                     1342
loop_
_atom_site_label
_atom_site_type_symbol
_atom_site_fract_x
_atom_site_fract_y
_atom_site_fract_z
Cu1 Cu 0.21787(6) 0.19122(5) 0.19817(5)
S1 S 0.5000 0.08870(11) 0.2500
N1 N 0.2396(4) 0.2253(4) 0.3757(4)
N2 N 0.0877(4) 0.0798(4) 0.0803(4)
C1 C 0.1770(6) 0.3153(4) 0.3996(5)
H1 H 0.1257 0.3624 0.3318
O1 O 0.5464(4) 0.0187(3) 0.1705(4)
O2 O 0.3905(4) 0.1617(4) 0.1649(4)
C2 C 0.0181(6) 0.0983(5) -0.0476(5)
H2 H 0.0292 0.1661 -0.0834
C3 C 0.0673(5) -0.0200(5) 0.1244(5)
H3 H 0.1137 -0.0364 0.2117
C4 C 0.3120(6) 0.1615(5) 0.4763(5)
H4 H 0.3567 0.0992 0.4631
O3 O 0.1836(5) 0.3558(3) 0.0994(4)
Cu1E Cu 0.28213(6) 0.30878(5) 0.80183(5)
Cu1B Cu 0.78213(6) 0.19122(5) 0.30183(5)
Cu1D Cu -0.21787(6) -0.19122(5) -0.19817(5)
N1E N 0.2604(4) 0.2747(4) 0.6243(4)
N2D N -0.0877(4) -0.0798(4) -0.0803(4)
N2E N 0.4123(4) 0.4202(4) 0.9197(4)
C1E C 0.3230(6) 0.1847(4) 0.6004(5)
H1E H 0.3743 0.1376 0.6682
O1B O 0.4536(4) 0.0187(3) 0.3295(4)
O2B O 0.6095(4) 0.1617(4) 0.3351(4)
O2E O 0.1095(4) 0.3383(4) 0.8351(4)
C2D C -0.0181(6) -0.0983(5) 0.0476(5)
H2D H -0.0292 -0.1661 0.0834
C3D C -0.0673(5) 0.0200(5) -0.1244(5)
H3D H -0.1137 0.0364 -0.2117
C4E C 0.1880(6) 0.3385(5) 0.5237(5)
H4E H 0.1433 0.4008 0.5369
O3E O 0.3164(5) 0.1442(3) 0.9006(4)
loop_
_geom_bond_atom_site_label_1
_geom_bond_atom_site_label_2
_geom_bond_site_symmetry_1
_geom_bond_site_symmetry_2
Cu1 N1 1_555 1_555
S1 O1 1_555 1_555
N1 C1 1_555 1_555
N2 Cu1 1_555 1_555
C1 H1 1_555 1_555
O2 Cu1 1_555 1_555
C2 N2 1_555 1_555
H2 C2 1_555 1_555
C3 N2 1_555 1_555
H3 C3 1_555 1_555
C4 N1 1_555 1_555
H4 C4 1_555 1_555
O3 Cu1 1_555 1_555
Cu1E N1E 1_555 1_555
Cu1B O2B 1_555 1_555
Cu1D N2D 1_555 1_555
N1E C1E 1_555 1_555
N2D C2D 1_555 1_555
N2E Cu1E 1_555 1_555
C1E C4 1_555 1_555
H1E C1E 1_555 1_555
O1B S1 1_555 1_555
O2B S1 1_555 1_555
O2E Cu1E 1_555 1_555
C2D C3 1_555 1_555
H2D C2D 1_555 1_555
C3D C2 1_555 1_555
H3D C3D 1_555 1_555
C4E C1 1_555 1_555
H4E C4E 1_555 1_555
O3E Cu1E 1_555 1_555
S1 O2 1_555 1_555
N1E C4E 1_555 1_555
N2D C3D 1_555 1_555

#END
