
#######################################################################
#
#                 Cambridge Crystallographic Data Centre
#                                CCDC 
#
#######################################################################
#
# If this CIF has been generated from an entry in the Cambridge 
# Structural Database, then it will include bibliographic, chemical, 
# crystal, experimental, refinement or atomic coordinate data resulting 
# from the CCDC's data processing and validation procedures.
#
#######################################################################

data_MIJLEX
_symmetry_cell_setting           monoclinic
_symmetry_space_group_name_H-M   'C 2/c'
_symmetry_Int_Tables_number      15
_space_group_name_Hall           '-C 2yn'
loop_
_symmetry_equiv_pos_site_id
_symmetry_equiv_pos_as_xyz
1 x,y,z
2 1/2+x,1/2+y,z
3 -x,y,1/2-z
4 1/2-x,1/2+y,1/2-z
5 -x,-y,-z
6 1/2-x,1/2-y,-z
7 x,-y,1/2+z
8 1/2+x,1/2-y,1/2+z
_cell_length_a                   10.9841(3)
_cell_length_b                   11.7707(3)
_cell_length_c                   11.3163(2)
_cell_angle_alpha                90
_cell_angle_beta                 114.3500(10)
_cell_angle_gamma                90
_cell_volume                     1332.94
loop_
_atom_site_label
_atom_site_type_symbol
_atom_site_fract_x
_atom_site_fract_y
_atom_site_fract_z
Cu1 Cu 0.71852(3) 0.19276(2) 0.19778(3)
S1 S 1.0000 0.08832(5) 0.2500
N1 N 0.58918(16) 0.08149(14) 0.07994(16)
N2 N 0.74140(16) 0.22695(14) 0.37478(16)
O1 O 0.89009(14) 0.16230(13) 0.16291(14)
O2 O 0.68860(15) 0.35683(13) 0.10119(16)
O3 O 1.04724(14) 0.01782(11) 0.17029(13)
C1 C 0.5697(2) -0.01929(18) 0.1261(2)
C2 C 0.5188(2) 0.09921(17) -0.0475(2)
C3 C 0.8157(2) 0.16284(17) 0.4780(2)
C4 C 0.6761(2) 0.31451(16) 0.3991(2)
H1 H 0.532(3) 0.170(2) -0.083(3)
H2 H 0.863(3) 0.104(2) 0.466(3)
H3 H 0.621(2) -0.034(2) 0.215(3)
H4 H 0.625(3) 0.360(2) 0.330(3)
H5 H 0.647(3) 0.403(3) 0.120(3)
H6 H 0.668(3) 0.356(3) 0.028(4)
Cu1D Cu 0.28148(3) -0.19276(2) -0.19778(3)
Cu1B Cu 1.28148(3) 0.19276(2) 0.30222(3)
Cu1E Cu 0.78148(3) 0.30724(2) 0.80222(3)
N1D N 0.41082(16) -0.08149(14) -0.07994(16)
N2E N 0.75860(16) 0.27305(14) 0.62522(16)
N2D N 0.25860(16) -0.22695(14) -0.37478(16)
O1B O 1.10991(14) 0.16230(13) 0.33709(14)
O1D O 0.10991(14) -0.16230(13) -0.16291(14)
O2D O 0.31140(15) -0.35683(13) -0.10119(16)
O3B O 0.95276(14) 0.01782(11) 0.32971(13)
C1D C 0.4303(2) 0.01929(18) -0.1261(2)
C2D C 0.4812(2) -0.09921(17) 0.0475(2)
C3E C 0.6843(2) 0.33716(17) 0.5220(2)
C4E C 0.8239(2) 0.18549(16) 0.6009(2)
H1D H 0.468(3) -0.170(2) 0.083(3)
H2E H 0.637(3) 0.396(2) 0.534(3)
H3D H 0.379(2) 0.034(2) -0.215(3)
H4E H 0.875(3) 0.140(2) 0.670(3)
H5D H 0.353(3) -0.403(3) -0.120(3)
H6D H 0.332(3) -0.356(3) -0.028(4)
loop_
_geom_bond_atom_site_label_1
_geom_bond_atom_site_label_2
_geom_bond_site_symmetry_1
_geom_bond_site_symmetry_2
Cu1 N1 1_555 1_555
S1 O1 1_555 1_555
N1 C1 1_555 1_555
N2 Cu1 1_555 1_555
O1 Cu1 1_555 1_555
O2 Cu1 1_555 1_555
O3 S1 1_555 1_555
C1 H3 1_555 1_555
C2 N1 1_555 1_555
C3 N2 1_555 1_555
C4 N2 1_555 1_555
H1 C2 1_555 1_555
H2 C3 1_555 1_555
H4 C4 1_555 1_555
H5 O2 1_555 1_555
H6 O2 1_555 1_555
Cu1D N1D 1_555 1_555
Cu1B O1B 1_555 1_555
Cu1E N2E 1_555 1_555
N1D C1D 1_555 1_555
N2E C3E 1_555 1_555
N2D Cu1D 1_555 1_555
O1B S1 1_555 1_555
O1D Cu1D 1_555 1_555
O2D Cu1D 1_555 1_555
O3B S1 1_555 1_555
C1D C2 1_555 1_555
C2D C1 1_555 1_555
C3E C4 1_555 1_555
C4E C3 1_555 1_555
H1D C2D 1_555 1_555
H2E C3E 1_555 1_555
H3D C1D 1_555 1_555
H4E C4E 1_555 1_555
H5D O2D 1_555 1_555
H6D O2D 1_555 1_555
N1D C2D 1_555 1_555
N2E C4E 1_555 1_555

#END
