
#######################################################################
#
#                 Cambridge Crystallographic Data Centre
#                                CCDC 
#
#######################################################################
#
# If this CIF has been generated from an entry in the Cambridge 
# Structural Database, then it will include bibliographic, chemical, 
# crystal, experimental, refinement or atomic coordinate data resulting 
# from the CCDC's data processing and validation procedures.
#
#######################################################################

data_MIJNAU
_symmetry_cell_setting           monoclinic
_symmetry_space_group_name_H-M   'P 21/n'
_symmetry_Int_Tables_number      14
_space_group_name_Hall           '-P 2yn'
loop_
_symmetry_equiv_pos_site_id
_symmetry_equiv_pos_as_xyz
1 x,y,z
2 1/2+x,1/2-y,1/2+z
3 -x,-y,-z
4 1/2-x,1/2+y,1/2-z
_cell_length_a                   11.162(2)
_cell_length_b                   8.3385(17)
_cell_length_c                   15.335(3)
_cell_angle_alpha                90
_cell_angle_beta                 98.93(3)
_cell_angle_gamma                90
_cell_volume                     1409.99
loop_
_atom_site_label
_atom_site_type_symbol
_atom_site_fract_x
_atom_site_fract_y
_atom_site_fract_z
Ni1 Ni 0.23334(3) 0.16117(4) 0.34362(2)
O1 O 0.23989(16) 0.4059(2) 0.32238(12)
O2 O 0.1918(2) 0.4104(3) 0.54574(16)
O3 O 0.25800(18) 0.1993(2) 0.47878(12)
O4 O 0.2444(2) -0.0875(3) 0.37381(15)
H1 H 0.2713 -0.1486 0.3350
H2 H 0.1982 -0.1467 0.3963
O5 O 0.32168(17) 0.6379(2) 0.29316(12)
N1 N 0.4159(2) 0.1507(3) 0.33545(15)
N2 N 1.0486(2) 0.1682(3) 0.34568(15)
C1 C 0.3161(2) 0.5152(3) 0.34116(17)
C2 C 0.4094(2) 0.5058(3) 0.42510(17)
C3 C 0.3865(2) 0.4280(3) 0.50162(17)
C4 C 0.5227(2) 0.5766(3) 0.42501(18)
H5 H 0.5381 0.6286 0.3743
C5 C 0.2670(2) 0.3409(3) 0.50808(17)
C6 C 0.4939(3) 0.1224(4) 0.4088(2)
H6 H 0.461(3) 0.101(4) 0.458(2)
C7 C 0.6172(3) 0.1237(4) 0.4117(2)
H7 H 0.668(3) 0.107(4) 0.465(2)
C8 C 0.5839(3) 0.1907(4) 0.2592(2)
H8 H 0.616(3) 0.222(5) 0.208(2)
C9 C 0.4614(3) 0.1828(4) 0.2617(2)
H9 H 0.408(3) 0.210(4) 0.210(2)
C10 C 0.6650(2) 0.1611(4) 0.3354(2)
C11 C 0.8534(3) 0.2778(4) 0.2920(2)
H10 H 0.811(4) 0.359(5) 0.263(3)
C12 C 0.9939(3) 0.0580(4) 0.3889(2)
H11 H 1.045(3) -0.014(4) 0.4232(19)
C13 C 0.8705(3) 0.0504(4) 0.38635(19)
H12 H 0.8363 -0.0293 0.4171
C14 C 0.7978(2) 0.1624(4) 0.33745(19)
C15 C 0.9776(3) 0.2764(4) 0.2982(2)
H13 H 1.016(3) 0.349(4) 0.265(2)
C4B C 0.4773(2) 0.4234(3) 0.57499(18)
C2B C 0.5906(2) 0.4942(3) 0.57490(17)
C1B C 0.6839(2) 0.4848(3) 0.65884(17)
O1B O 0.76011(16) 0.5941(2) 0.67762(12)
O5B O 0.67832(17) 0.3621(2) 0.70684(12)
C3B C 0.6135(2) 0.5720(3) 0.49838(17)
C5B C 0.7330(2) 0.6591(3) 0.49192(17)
O2B O 0.8082(2) 0.5896(3) 0.45426(16)
O3B O 0.74200(18) 0.8007(2) 0.52122(12)
H5B H 0.4619 0.3714 0.6257
N1_2 N -0.5841(2) 0.1507(3) 0.33545(15)
N2_2 N 0.0486(2) 0.1682(3) 0.34568(15)
C6_2 C -0.5061(3) 0.1224(4) 0.4088(2)
H6_2 H -0.539(3) 0.101(4) 0.458(2)
C7_2 C -0.3828(3) 0.1237(4) 0.4117(2)
H7_2 H -0.332(3) 0.107(4) 0.465(2)
C8_2 C -0.4161(3) 0.1907(4) 0.2592(2)
H8_2 H -0.384(3) 0.222(5) 0.208(2)
C9_2 C -0.5386(3) 0.1828(4) 0.2617(2)
H9_2 H -0.592(3) 0.210(4) 0.210(2)
C10_2 C -0.3350(2) 0.1611(4) 0.3354(2)
C11_2 C -0.1466(3) 0.2778(4) 0.2920(2)
H10_2 H -0.189(4) 0.359(5) 0.263(3)
C12_2 C -0.0061(3) 0.0580(4) 0.3889(2)
H11_2 H 0.045(3) -0.014(4) 0.4232(19)
C13_2 C -0.1295(3) 0.0504(4) 0.38635(19)
H12_2 H -0.1637 -0.0293 0.4171
C14_2 C -0.2022(2) 0.1624(4) 0.33745(19)
C15_2 C -0.0224(3) 0.2764(4) 0.2982(2)
H13_2 H 0.016(3) 0.349(4) 0.265(2)
Ni1B Ni 0.76666(3) 0.83883(4) 0.65638(2)
O4B O 0.7556(2) 1.0875(3) 0.62619(15)
H1B H 0.7287 1.1486 0.6650
H2B H 0.8018 1.1467 0.6037
O5C O 0.17832(17) 0.1379(2) 0.20684(12)
Ni1C Ni 0.26666(3) 0.66117(4) 0.15638(2)
Ni1_2 Ni 1.23334(3) 0.16117(4) 0.34362(2)
Ni1A Ni 0.73334(3) 0.33883(4) 0.84362(2)
Ni1_3 Ni -0.76666(3) 0.16117(4) 0.34362(2)
O5A O 0.82168(17) 0.8621(2) 0.79316(12)
N1B N 0.5841(2) 0.8493(3) 0.66455(15)
N2B N 0.9514(2) 0.8318(3) 0.65432(15)
O6 O 0.0817(3) 0.6870(4) 0.4539(2)
H3 H 0.1146 0.6140 0.4837
H4 H 0.0159 0.6777 0.4553
loop_
_geom_bond_atom_site_label_1
_geom_bond_atom_site_label_2
_geom_bond_site_symmetry_1
_geom_bond_site_symmetry_2
Ni1 O1 1_555 1_555
O1 C1 1_555 1_555
O2 C5 1_555 1_555
O3 Ni1 1_555 1_555
O4 Ni1 1_555 1_555
H1 O4 1_555 1_555
H2 O4 1_555 1_555
O5 C1 1_555 1_555
O6 H3 1_555 1_555
H4 O6 1_555 1_555
N1 Ni1 1_555 1_555
N2 C12 1_555 1_555
C1 C2 1_555 1_555
C2 C3 1_555 1_555
C3 C5 1_555 1_555
C4 C2 1_555 1_555
H5 C4 1_555 1_555
C5 O3 1_555 1_555
C6 N1 1_555 1_555
H6 C6 1_555 1_555
C7 C6 1_555 1_555
H7 C7 1_555 1_555
C8 H8 1_555 1_555
C9 N1 1_555 1_555
H9 C9 1_555 1_555
C10 C7 1_555 1_555
C11 H10 1_555 1_555
C12 H11 1_555 1_555
C13 C12 1_555 1_555
H12 C13 1_555 1_555
C14 C10 1_555 1_555
C15 N2 1_555 1_555
H13 C15 1_555 1_555
C4B C3 1_555 1_555
C2B C4B 1_555 1_555
C1B C2B 1_555 1_555
O1B C1B 1_555 1_555
O5B C1B 1_555 1_555
C3B C4 1_555 1_555
C5B C3B 1_555 1_555
O2B C5B 1_555 1_555
O3B C5B 1_555 1_555
H5B C4B 1_555 1_555
N1_2 C6_2 1_555 1_555
N2_2 Ni1 1_555 1_555
C6_2 H6_2 1_555 1_555
C7_2 C6_2 1_555 1_555
H7_2 C7_2 1_555 1_555
C8_2 H8_2 1_555 1_555
C9_2 N1_2 1_555 1_555
H9_2 C9_2 1_555 1_555
C10_2 C7_2 1_555 1_555
C11_2 H10_2 1_555 1_555
C12_2 N2_2 1_555 1_555
H11_2 C12_2 1_555 1_555
C13_2 C12_2 1_555 1_555
H12_2 C13_2 1_555 1_555
C14_2 C10_2 1_555 1_555
C15_2 N2_2 1_555 1_555
H13_2 C15_2 1_555 1_555
Ni1B O1B 1_555 1_555
O4B Ni1B 1_555 1_555
H1B O4B 1_555 1_555
H2B O4B 1_555 1_555
O5C Ni1 1_555 1_555
Ni1C O5 1_555 1_555
Ni1_2 N2 1_555 1_555
Ni1A O5B 1_555 1_555
Ni1_3 N1_2 1_555 1_555
O5A Ni1B 1_555 1_555
N1B Ni1B 1_555 1_555
N2B Ni1B 1_555 1_555
C8 C10 1_555 1_555
C8 C9 1_555 1_555
C11 C14 1_555 1_555
C11 C15 1_555 1_555
C13 C14 1_555 1_555
C2B C3B 1_555 1_555
O3B Ni1B 1_555 1_555
C8_2 C10_2 1_555 1_555
C8_2 C9_2 1_555 1_555
C11_2 C14_2 1_555 1_555
C11_2 C15_2 1_555 1_555
C13_2 C14_2 1_555 1_555

#END
