
#######################################################################
#
#                 Cambridge Crystallographic Data Centre
#                                CCDC 
#
#######################################################################
#
# If this CIF has been generated from an entry in the Cambridge 
# Structural Database, then it will include bibliographic, chemical, 
# crystal, experimental, refinement or atomic coordinate data resulting 
# from the CCDC's data processing and validation procedures.
#
#######################################################################

data_MIJQED
_symmetry_cell_setting           monoclinic
_symmetry_space_group_name_H-M   'P 21/c'
_symmetry_Int_Tables_number      14
_space_group_name_Hall           '-P 2ybc'
loop_
_symmetry_equiv_pos_site_id
_symmetry_equiv_pos_as_xyz
1 x,y,z
2 -x,1/2+y,1/2-z
3 -x,-y,-z
4 x,1/2-y,1/2+z
_cell_length_a                   10.6041(15)
_cell_length_b                   14.3142(17)
_cell_length_c                   16.9312(11)
_cell_angle_alpha                90
_cell_angle_beta                 125.380(2)
_cell_angle_gamma                90
_cell_volume                     2095.38
loop_
_atom_site_label
_atom_site_type_symbol
_atom_site_fract_x
_atom_site_fract_y
_atom_site_fract_z
C1 C 0.3151(11) 0.6158(7) 0.0643(8)
H1 H 0.2706 0.6373 0.0016
C2 C 0.4925(11) 0.5860(7) 0.2270(8)
H2 H 0.5835 0.5843 0.2892
C3 C -0.2052(11) 0.5962(6) 0.0675(7)
H3 H -0.2912 0.6072 0.0046
C4 C -0.0407(11) 0.5897(7) 0.2321(7)
H4 H -0.0004 0.5958 0.2974
C5 C 0.1196(12) 0.2876(7) 0.1176(7)
C6 C 0.0044(11) 0.2403(6) 0.0218(7)
H5 H -0.0318 0.2856 -0.0297
H6 H -0.0840 0.2209 0.0209
C7 C 0.0666(11) 0.1551(7) -0.0002(7)
H7 H 0.1397 0.1222 0.0598
H8 H -0.0183 0.1129 -0.0423
C8 C 0.1462(12) 0.1817(7) -0.0485(7)
H9 H 0.0787 0.2255 -0.0999
H10 H 0.2393 0.2158 -0.0009
C9 C 0.1919(12) 0.1085(7) -0.0913(8)
C10 C 0.5812(12) 0.3683(7) 0.3219(8)
C11 C 0.5816(11) 0.3267(7) 0.2398(7)
H11 H 0.4749 0.3150 0.1864
H12 H 0.6326 0.2664 0.2614
C12 C 0.6574(11) 0.3819(6) 0.1996(7)
H13 H 0.5765 0.4172 0.1441
H14 H 0.7275 0.4268 0.2486
C13 C 0.7468(11) 0.3293(7) 0.1685(7)
H15 H 0.7942 0.3740 0.1501
H16 H 0.8290 0.2935 0.2230
C14 C 0.6456(12) 0.2642(8) 0.0849(7)
Cd1 Cd 0.0000 0.5000 0.0000
Cd2 Cd 0.25543(8) 0.46711(5) 0.26740(5)
Cd3 Cd 0.62846(8) 0.42921(5) 0.49335(5)
Cd4 Cd 0.35561(8) 0.27596(5) -0.14724(5)
N1 N 0.2406(9) 0.5616(5) 0.0966(6)
N2 N 0.3499(9) 0.5437(6) 0.1964(5)
N3 N 0.4711(8) 0.6310(5) 0.1461(5)
N4 N -0.0677(9) 0.5499(5) 0.0934(6)
N5 N 0.0315(8) 0.5480(6) 0.1962(6)
N6 N -0.1899(10) 0.6227(6) 0.1523(6)
O1 O 0.1167(7) 0.3763(5) 0.1230(4)
O2 O 0.1969(7) 0.2333(5) 0.1866(5)
H17 H 0.1350 0.2025 0.1932
O3 O 0.1985(9) 0.0256(5) -0.0671(5)
O4 O 0.2329(8) 0.1376(5) -0.1464(5)
O5 O 0.4780(7) 0.3541(4) 0.3361(5)
O6 O 0.6976(8) 0.4179(4) 0.3852(5)
O7 O 0.5056(8) 0.2769(5) 0.0230(5)
O8 O 0.7166(7) 0.2028(5) 0.0700(5)
O9 O 0.4389(7) 0.5448(5) 0.4044(5)
C1B C -0.3151(11) 0.3842(7) -0.0643(8)
H1B H -0.2706 0.3627 -0.0016
C2B C -0.4925(11) 0.4140(7) -0.2270(8)
H2B H -0.5835 0.4157 -0.2892
C3B C 0.2052(11) 0.4038(6) -0.0675(7)
H3B H 0.2912 0.3928 -0.0046
C4B C 0.0407(11) 0.4103(7) -0.2321(7)
H4B H 0.0004 0.4042 -0.2974
C5B C -0.1196(12) 0.7124(7) -0.1176(7)
C6B C -0.0044(11) 0.7597(6) -0.0218(7)
H5B H 0.0318 0.7144 0.0297
H6B H 0.0840 0.7791 -0.0209
C7B C -0.0666(11) 0.8449(7) 0.0002(7)
H7B H -0.1397 0.8778 -0.0598
H8B H 0.0183 0.8871 0.0423
C8B C -0.1462(12) 0.8183(7) 0.0485(7)
H9B H -0.0787 0.7745 0.0999
H10B H -0.2393 0.7842 0.0009
C9B C -0.1919(12) 0.8915(7) 0.0913(8)
C10B C -0.5812(12) 0.6317(7) -0.3219(8)
C11B C -0.5816(11) 0.6733(7) -0.2398(7)
H11B H -0.4749 0.6850 -0.1864
H12B H -0.6326 0.7336 -0.2614
C12B C -0.6574(11) 0.6181(6) -0.1996(7)
H13B H -0.5765 0.5828 -0.1441
H14B H -0.7275 0.5732 -0.2486
C13B C -0.7468(11) 0.6707(7) -0.1685(7)
H15B H -0.7942 0.6260 -0.1501
H16B H -0.8290 0.7065 -0.2230
C14B C -0.6456(12) 0.7358(8) -0.0849(7)
Cd2B Cd -0.25543(8) 0.53289(5) -0.26740(5)
Cd3B Cd -0.62846(8) 0.57079(5) -0.49335(5)
Cd4B Cd -0.35561(8) 0.72404(5) 0.14724(5)
N1B N -0.2406(9) 0.4384(5) -0.0966(6)
N2B N -0.3499(9) 0.4563(6) -0.1964(5)
N3B N -0.4711(8) 0.3690(5) -0.1461(5)
N4B N 0.0677(9) 0.4501(5) -0.0934(6)
N5B N -0.0315(8) 0.4520(6) -0.1962(6)
N6B N 0.1899(10) 0.3773(6) -0.1523(6)
O1B O -0.1167(7) 0.6237(5) -0.1230(4)
O2B O -0.1969(7) 0.7667(5) -0.1866(5)
H17B H -0.1350 0.7975 -0.1932
O3B O -0.1985(9) 0.9744(5) 0.0671(5)
O4B O -0.2329(8) 0.8624(5) 0.1464(5)
O5B O -0.4780(7) 0.6459(4) -0.3361(5)
O6B O -0.6976(8) 0.5821(4) -0.3852(5)
O7B O -0.5056(8) 0.7231(5) -0.0230(5)
O8B O -0.7166(7) 0.7972(5) -0.0700(5)
O9B O -0.4389(7) 0.4552(5) -0.4044(5)
Cd2A Cd -0.25543(8) 0.96711(5) 0.23260(5)
Cd2C Cd 0.25543(8) 0.03289(5) -0.23260(5)
Cd3_2 Cd -0.37154(8) 0.42921(5) -0.50665(5)
Cd3A Cd -0.62846(8) 0.92921(5) 0.00665(5)
Cd3A_2 Cd 0.37154(8) -0.07079(5) 0.00665(5)
Cd3B_2 Cd 0.37154(8) 0.57079(5) 0.50665(5)
Cd3C Cd -0.37154(8) 1.07079(5) -0.00665(5)
Cd3C_2 Cd 0.62846(8) 0.07079(5) -0.00665(5)
Cd4_2 Cd -0.64439(8) 0.27596(5) -0.14724(5)
Cd4A Cd -0.35561(8) 0.77596(5) -0.35276(5)
Cd4B_2 Cd 0.64439(8) 0.72404(5) 0.14724(5)
Cd4C Cd 0.35561(8) 0.22404(5) 0.35276(5)
N3_2 N -0.5289(8) 0.6310(5) 0.1461(5)
N3B_2 N 0.5289(8) 0.3690(5) -0.1461(5)
O2A O -0.1969(7) 0.7333(5) 0.3134(5)
O2C O 0.1969(7) 0.2667(5) -0.3134(5)
O3A O 0.8015(9) 0.5256(5) 0.5671(5)
O3C O -0.8015(9) 0.4744(5) -0.5671(5)
O4A O -0.2329(8) 0.6376(5) -0.3536(5)
O4C O 0.2329(8) 0.3624(5) 0.3536(5)
O5A O -0.4780(7) 0.8541(4) 0.1639(5)
O5C O 0.4780(7) 0.1459(4) -0.1639(5)
O8A O -0.7166(7) 0.7028(5) -0.5700(5)
O8C O 0.7166(7) 0.2972(5) 0.5700(5)
O9_2 O -0.5611(7) 0.5448(5) -0.5956(5)
O9B_2 O 0.5611(7) 0.4552(5) 0.5956(5)
loop_
_geom_bond_atom_site_label_1
_geom_bond_atom_site_label_2
_geom_bond_site_symmetry_1
_geom_bond_site_symmetry_2
C1 H1 1_555 1_555
C2 H2 1_555 1_555
C3 H3 1_555 1_555
C4 H4 1_555 1_555
C5 C6 1_555 1_555
C6 H5 1_555 1_555
H6 C6 1_555 1_555
C7 C6 1_555 1_555
H7 C7 1_555 1_555
H8 C7 1_555 1_555
C8 C7 1_555 1_555
H9 C8 1_555 1_555
H10 C8 1_555 1_555
C9 C8 1_555 1_555
C10 C11 1_555 1_555
C11 H11 1_555 1_555
H12 C11 1_555 1_555
C12 C11 1_555 1_555
H13 C12 1_555 1_555
H14 C12 1_555 1_555
C13 C12 1_555 1_555
H15 C13 1_555 1_555
H16 C13 1_555 1_555
C14 C13 1_555 1_555
Cd1 N1 1_555 1_555
Cd2 N2 1_555 1_555
Cd3 O5 1_555 1_555
Cd4 O4 1_555 1_555
N1 C1 1_555 1_555
N2 C2 1_555 1_555
N3 C1 1_555 1_555
N4 C3 1_555 1_555
N5 C4 1_555 1_555
N6 C3 1_555 1_555
O1 C5 1_555 1_555
O2 C5 1_555 1_555
H17 O2 1_555 1_555
O3 C9 1_555 1_555
O4 C9 1_555 1_555
O5 C10 1_555 1_555
O6 C10 1_555 1_555
O7 C14 1_555 1_555
O8 C14 1_555 1_555
O9 Cd2 1_555 1_555
C1B H1B 1_555 1_555
C2B H2B 1_555 1_555
C3B H3B 1_555 1_555
C4B H4B 1_555 1_555
C5B C6B 1_555 1_555
C6B H5B 1_555 1_555
H6B C6B 1_555 1_555
C7B C6B 1_555 1_555
H7B C7B 1_555 1_555
H8B C7B 1_555 1_555
C8B C7B 1_555 1_555
H9B C8B 1_555 1_555
H10B C8B 1_555 1_555
C9B C8B 1_555 1_555
C10B C11B 1_555 1_555
C11B H11B 1_555 1_555
H12B C11B 1_555 1_555
C12B C11B 1_555 1_555
H13B C12B 1_555 1_555
H14B C12B 1_555 1_555
C13B C12B 1_555 1_555
H15B C13B 1_555 1_555
H16B C13B 1_555 1_555
C14B C13B 1_555 1_555
Cd2B N2B 1_555 1_555
Cd3B O5B 1_555 1_555
Cd4B N6 1_555 1_555
N1B Cd1 1_555 1_555
N2B C2B 1_555 1_555
N3B C1B 1_555 1_555
N4B Cd1 1_555 1_555
N5B C4B 1_555 1_555
N6B Cd4 1_555 1_555
O1B Cd1 1_555 1_555
O2B C5B 1_555 1_555
H17B O2B 1_555 1_555
O3B C9B 1_555 1_555
O4B C9B 1_555 1_555
O5B C10B 1_555 1_555
O6B C10B 1_555 1_555
O7B C14B 1_555 1_555
O8B C14B 1_555 1_555
O9B Cd2B 1_555 1_555
Cd2A O4B 1_555 1_555
Cd2C O4 1_555 1_555
Cd3_2 O9B 1_555 1_555
Cd3A O8B 1_555 1_555
Cd3A_2 O3 1_555 1_555
Cd3B_2 O9 1_555 1_555
Cd3C O3B 1_555 1_555
Cd3C_2 O8 1_555 1_555
Cd4_2 N3B 1_555 1_555
Cd4A O2B 1_555 1_555
Cd4B_2 N3 1_555 1_555
Cd4C O2 1_555 1_555
N3_2 Cd4B 1_555 1_555
N3B_2 Cd4 1_555 1_555
O2A Cd4B 1_555 1_555
O2C Cd4 1_555 1_555
O3A Cd3 1_555 1_555
O3C Cd3B 1_555 1_555
O4A Cd2B 1_555 1_555
O4C Cd2 1_555 1_555
O5A Cd4B 1_555 1_555
O5C Cd4 1_555 1_555
O8A Cd3B 1_555 1_555
O8C Cd3 1_555 1_555
O9_2 Cd3B 1_555 1_555
O9B_2 Cd3 1_555 1_555
C2 N3 1_555 1_555
C4 N6 1_555 1_555
Cd1 N4 1_555 1_555
Cd1 O1 1_555 1_555
Cd2 N5 1_555 1_555
Cd2 O1 1_555 1_555
Cd2 O5 1_555 1_555
Cd3 O6 1_555 1_555
Cd3 O9 1_555 1_555
Cd4 O7 1_555 1_555
N1 N2 1_555 1_555
N4 N5 1_555 1_555
O5 Cd4C 1_555 1_555
C1B N1B 1_555 1_555
C2B N3B 1_555 1_555
C3B N4B 1_555 1_555
C3B N6B 1_555 1_555
C4B N6B 1_555 1_555
C5B O1B 1_555 1_555
Cd2B N5B 1_555 1_555
Cd2B O1B 1_555 1_555
Cd2B O5B 1_555 1_555
Cd3B O6B 1_555 1_555
Cd3B O9B 1_555 1_555
Cd4B O4B 1_555 1_555
Cd4B O7B 1_555 1_555
N1B N2B 1_555 1_555
N4B N5B 1_555 1_555
O5B Cd4A 1_555 1_555
Cd2A O5A 1_555 1_555
Cd2C O5C 1_555 1_555
Cd3_2 O9_2 1_555 1_555
Cd3A O5A 1_555 1_555
Cd3B_2 O9B_2 1_555 1_555
Cd3C_2 O5C 1_555 1_555
Cd4A O4A 1_555 1_555
Cd4C O4C 1_555 1_555

#END
