
#######################################################################
#
#                 Cambridge Crystallographic Data Centre
#                                CCDC 
#
#######################################################################
#
# If this CIF has been generated from an entry in the Cambridge 
# Structural Database, then it will include bibliographic, chemical, 
# crystal, experimental, refinement or atomic coordinate data resulting 
# from the CCDC's data processing and validation procedures.
#
#######################################################################

data_MIJQUR
_symmetry_cell_setting           monoclinic
_symmetry_space_group_name_H-M   'P 21'
_symmetry_Int_Tables_number      4
_space_group_name_Hall           'P 2yb'
loop_
_symmetry_equiv_pos_site_id
_symmetry_equiv_pos_as_xyz
1 x,y,z
2 -x,1/2+y,-z
_cell_length_a                   6.9370(4)
_cell_length_b                   14.2520(6)
_cell_length_c                   10.6990(7)
_cell_angle_alpha                90
_cell_angle_beta                 103.843(2)
_cell_angle_gamma                90
_cell_volume                     1027.05
loop_
_atom_site_label
_atom_site_type_symbol
_atom_site_fract_x
_atom_site_fract_y
_atom_site_fract_z
Cu1 Cu 0.61832(8) 0.40400 0.46146(5)
S1 S 0.4651(2) 0.1787(1) 0.5332(1)
S2 S 0.1535(2) 0.2978(1) 0.4039(1)
S3 S -0.0715(2) 0.0454(1) 0.4850(2)
F1 F 1.1236(6) 0.3062(4) 0.8895(4)
F2 F 1.2399(5) 0.3365(3) 0.7250(5)
F3 F 1.0719(5) 0.2133(3) 0.7301(4)
F4 F 0.6651(6) 0.5304(3) 0.9295(3)
F5 F 0.3846(6) 0.5293(3) 0.7998(4)
F6 F 0.5971(8) 0.6271(3) 0.7727(4)
F7 F 0.7847(7) 0.2187(3) 0.1533(4)
F8 F 0.6008(8) 0.29058(5) -0.0044(5)
F9 F 0.8733(7) 0.3462(3) 0.0895(5)
F10 F 0.1510(6) 0.5206(3) 0.0293(3)
F11 F 0.2613(6) 0.6227(3) 0.1754(4)
F12 F 0.0442(5) 0.5239(3) 0.2013(4)
O1 O 0.8351(5) 0.3387(2) 0.5788(3)
O2 O 0.5428(5) 0.4696(2) 0.6051(3)
O3 O 0.7100(5) 0.3465(2) 0.3182(3)
O4 O 0.4116(5) 0.4756(3) 0.3443(3)
N1 N 0.3954(6) 0.2810(3) 0.4646(4)
N2 N 0.1736(6) 0.0456(3) 0.5369(4)
N3 N -0.1020(6) 0.1509(3) 0.4248(5)
C1 C 0.2314(7) 0.1289(3) 0.5084(5)
C2 C 0.0745(7) 0.1893(3) 0.4439(5)
C3 C 0.8958(7) 0.3579(4) 0.6964(5)
C4 C 0.8197(8) 0.4200(4) 0.7704(5)
C5 C 0.6475(8) 0.4715(4) 0.7196(5)
C6 C 1.0846(8) 0.3019(5) 0.7641(6)
C7 C 0.5752(9) 0.5409(5) 0.8061(5)
C8 C 0.6219(8) 0.3554(4) 0.2012(5)
C9 C 0.4576(7) 0.4098(5) 0.1479(5)
C10 C 0.3722(7) 0.4679(4) 0.2231(5)
C11 C 0.7133(9) 0.2998(5) 0.1074(6)
C12 C 0.2025(9) 0.5337(5) 0.1548(5)
H1 H 0.873(7) 0.429(3) 0.850(5)
H2 H 0.412(6) 0.423(3) 0.056(4)
N2A N 0.8264(6) 0.5456(3) 0.4631(4)
Cu1A Cu 0.38168(8) -0.09600 0.53854(5)
loop_
_geom_bond_atom_site_label_1
_geom_bond_atom_site_label_2
_geom_bond_site_symmetry_1
_geom_bond_site_symmetry_2
Cu1 O1 1_555 1_555
S1 N1 1_555 1_555
S2 N1 1_555 1_555
S3 N2 1_555 1_555
F1 C6 1_555 1_555
F2 C6 1_555 1_555
F3 C6 1_555 1_555
F4 C7 1_555 1_555
F5 C7 1_555 1_555
F6 C7 1_555 1_555
F7 C11 1_555 1_555
F8 C11 1_555 1_555
F9 C11 1_555 1_555
F10 C12 1_555 1_555
F11 C12 1_555 1_555
F12 C12 1_555 1_555
O1 C3 1_555 1_555
O2 Cu1 1_555 1_555
O3 Cu1 1_555 1_555
O4 Cu1 1_555 1_555
N1 Cu1 1_555 1_555
N2 C1 1_555 1_555
N3 S3 1_555 1_555
C1 S1 1_555 1_555
C2 S2 1_555 1_555
C3 C4 1_555 1_555
C4 C5 1_555 1_555
C5 O2 1_555 1_555
C6 C3 1_555 1_555
C7 C5 1_555 1_555
C8 O3 1_555 1_555
C9 C8 1_555 1_555
C10 O4 1_555 1_555
C11 C8 1_555 1_555
C12 C10 1_555 1_555
H1 C4 1_555 1_555
H2 C9 1_555 1_555
N2A Cu1 1_555 1_555
Cu1A N2 1_555 1_555
N3 C2 1_555 1_555
C1 C2 1_555 1_555
C9 C10 1_555 1_555

#END
