
#######################################################################
#
#                 Cambridge Crystallographic Data Centre
#                                CCDC 
#
#######################################################################
#
# If this CIF has been generated from an entry in the Cambridge 
# Structural Database, then it will include bibliographic, chemical, 
# crystal, experimental, refinement or atomic coordinate data resulting 
# from the CCDC's data processing and validation procedures.
#
#######################################################################

data_MIJQOL01
_symmetry_cell_setting           monoclinic
_symmetry_space_group_name_H-M   'P 21/n'
_symmetry_Int_Tables_number      14
_space_group_name_Hall           '-P 2yn'
loop_
_symmetry_equiv_pos_site_id
_symmetry_equiv_pos_as_xyz
1 x,y,z
2 1/2-x,1/2+y,1/2-z
3 -x,-y,-z
4 1/2+x,1/2-y,1/2+z
_cell_length_a                   11.9812(8)
_cell_length_b                   8.1698(6)
_cell_length_c                   12.6675(8)
_cell_angle_alpha                90
_cell_angle_beta                 97.5790(10)
_cell_angle_gamma                90
_cell_volume                     1229.11
loop_
_atom_site_label
_atom_site_type_symbol
_atom_site_fract_x
_atom_site_fract_y
_atom_site_fract_z
Co1 Co 0.98722(2) 0.07169(4) 0.30042(2)
O1 O 1.14217(13) 0.03876(19) 0.40768(12)
O2 O 1.10560(13) -0.1273(2) 0.27082(12)
O3 O 1.92617(13) -0.7145(2) 0.35245(12)
O4 O 1.95695(13) -0.6838(2) 0.53035(12)
O5 O 0.90100(15) -0.0854(2) 0.39021(13)
N1 N 1.43486(15) -0.3024(2) 0.31523(14)
N2 N 1.63190(15) -0.4484(2) 0.33592(14)
C1 C 1.33146(18) -0.2380(3) 0.29973(17)
H1 H 1.2885 -0.2518 0.2336
C2 C 1.28524(18) -0.1515(3) 0.37764(17)
C3 C 1.17044(19) -0.0781(3) 0.35098(17)
C4 C 1.34854(19) -0.1326(3) 0.47590(18)
H2 H 1.3205 -0.0727 0.5290
C5 C 1.45473(19) -0.2040(3) 0.49495(18)
H3 H 1.4978 -0.1953 0.5614
C6 C 1.49516(18) -0.2886(3) 0.41259(17)
C7 C 1.60678(18) -0.3709(3) 0.42453(17)
C8 C 1.67870(19) -0.3748(3) 0.51950(18)
H4 H 1.6608 -0.3186 0.5789
C9 C 1.77805(19) -0.4638(3) 0.52478(18)
H5 H 1.8272 -0.4684 0.5880
C10 C 1.80321(18) -0.5455(3) 0.43529(18)
C11 C 1.90516(18) -0.6567(3) 0.44131(18)
C12 C 1.72825(19) -0.5337(3) 0.34209(18)
H6 H 1.7456 -0.5870 0.2815
H7 H 0.873(3) -0.054(4) 0.439(2)
H8 H 0.940(2) -0.154(4) 0.410(2)
O3_2 O 0.92617(13) 0.2855(2) 0.35245(12)
N1A N 1.06514(15) 0.1976(2) 0.18477(14)
N2A N 0.86810(15) 0.0516(2) 0.16408(14)
Co1_2 Co 1.98722(2) -0.92831(4) 0.30042(2)
Co1A Co 1.51278(2) -0.42831(4) 0.19958(2)
O6 O 0.9833(2) 0.5627(3) 0.22344(17)
H9 H 1.025(4) 0.635(7) 0.270(4)
H10 H 0.961(9) 0.470(15) 0.279(9)
loop_
_geom_bond_atom_site_label_1
_geom_bond_atom_site_label_2
_geom_bond_site_symmetry_1
_geom_bond_site_symmetry_2
Co1 O1 1_555 1_555
O1 C3 1_555 1_555
O2 Co1 1_555 1_555
O3 C11 1_555 1_555
O4 C11 1_555 1_555
O5 Co1 1_555 1_555
N1 C1 1_555 1_555
N2 C7 1_555 1_555
C1 H1 1_555 1_555
C2 C1 1_555 1_555
C3 O2 1_555 1_555
C4 C2 1_555 1_555
H2 C4 1_555 1_555
C5 C4 1_555 1_555
H3 C5 1_555 1_555
C6 N1 1_555 1_555
C7 C6 1_555 1_555
C8 C7 1_555 1_555
H4 C8 1_555 1_555
C9 C8 1_555 1_555
H5 C9 1_555 1_555
C10 C9 1_555 1_555
C11 C10 1_555 1_555
C12 N2 1_555 1_555
H6 C12 1_555 1_555
H7 O5 1_555 1_555
H8 O5 1_555 1_555
O6 H9 1_555 1_555
H10 O6 1_555 1_555
O3_2 Co1 1_555 1_555
N1A Co1 1_555 1_555
N2A Co1 1_555 1_555
Co1_2 O3 1_555 1_555
Co1A N1 1_555 1_555
N2 Co1A 1_555 1_555
C2 C3 1_555 1_555
C5 C6 1_555 1_555
C10 C12 1_555 1_555

#END
