
#######################################################################
#
#                 Cambridge Crystallographic Data Centre
#                                CCDC 
#
#######################################################################
#
# If this CIF has been generated from an entry in the Cambridge 
# Structural Database, then it will include bibliographic, chemical, 
# crystal, experimental, refinement or atomic coordinate data resulting 
# from the CCDC's data processing and validation procedures.
#
#######################################################################

data_MIJRON
_symmetry_cell_setting           monoclinic
_symmetry_space_group_name_H-M   'C 2/c'
_symmetry_Int_Tables_number      15
_space_group_name_Hall           '-C 2yn'
loop_
_symmetry_equiv_pos_site_id
_symmetry_equiv_pos_as_xyz
1 x,y,z
2 1/2+x,1/2+y,z
3 -x,y,1/2-z
4 1/2-x,1/2+y,1/2-z
5 -x,-y,-z
6 1/2-x,1/2-y,-z
7 x,-y,1/2+z
8 1/2+x,1/2-y,1/2+z
_cell_length_a                   26.8904(15)
_cell_length_b                   9.1994(4)
_cell_length_c                   20.5075(11)
_cell_angle_alpha                90
_cell_angle_beta                 116.381(2)
_cell_angle_gamma                90
_cell_volume                     4544.74
loop_
_atom_site_label
_atom_site_type_symbol
_atom_site_fract_x
_atom_site_fract_y
_atom_site_fract_z
Zn1 Zn 0.440922(8) 0.37690(2) 0.035678(9)
O1 O 0.44133(6) 0.33362(15) 0.15767(7)
O2 O 0.42324(6) 0.53026(14) 0.09018(6)
O3 O 0.47446(5) 0.41274(14) 0.42094(7)
O4 O 0.41731(6) 0.57284(16) 0.43312(6)
N1 N 0.34962(6) 0.27483(14) -0.01682(7)
N2 N 0.45103(6) 0.15415(16) 0.03698(7)
N3 N 0.25516(6) 0.12778(16) -0.11568(9)
N4 N 0.34915(7) -0.06017(19) -0.15414(9)
C1 C 0.50031(8) 0.0947(2) 0.07946(11)
H1 H 0.5311 0.1554 0.1008
C2 C 0.50751(9) -0.0517(2) 0.09303(12)
H2 H 0.5424 -0.0894 0.1230
C3 C 0.46202(10) -0.1416(2) 0.06129(13)
H3 H 0.4655 -0.2410 0.0705
C4 C 0.41160(8) -0.0827(2) 0.01593(11)
H4 H 0.3807 -0.1424 -0.0069
C5 C 0.40675(7) 0.06657(18) 0.00411(9)
C6 C 0.35280(7) 0.14095(17) -0.03796(9)
C7 C 0.29871(8) 0.33943(19) -0.04347(9)
C8 C 0.29303(9) 0.4818(2) -0.02233(11)
H5 H 0.3242 0.5368 0.0062
C9 C 0.24085(10) 0.5376(2) -0.04450(13)
H6 H 0.2369 0.6310 -0.0301
C10 C 0.19319(9) 0.4580(2) -0.08831(12)
H7 H 0.1583 0.4990 -0.1024
C11 C 0.19759(8) 0.3219(3) -0.11021(11)
H8 H 0.1658 0.2689 -0.1388
C12 C 0.25083(7) 0.2603(2) -0.08942(10)
C13 C 0.30491(7) 0.07225(19) -0.09387(9)
C14 C 0.30839(7) -0.0594(2) -0.13394(10)
C15 C 0.26927(9) -0.1691(2) -0.15140(13)
H9 H 0.2407 -0.1633 -0.1377
C16 C 0.27400(11) -0.2874(3) -0.18969(15)
H10 H 0.2490 -0.3641 -0.2011
C17 C 0.31541(10) -0.2909(3) -0.21062(13)
H11 H 0.3192 -0.3696 -0.2365
C18 C 0.35155(9) -0.1748(3) -0.19253(12)
H12 H 0.3792 -0.1766 -0.2080
C19 C 0.43208(7) 0.49158(17) 0.27080(8)
H13 H 0.4513 0.4040 0.2840
C20 C 0.41591(7) 0.54689(18) 0.20117(8)
C21 C 0.38893(8) 0.6795(2) 0.18250(9)
H14 H 0.3798 0.7194 0.1369
C22 C 0.37549(8) 0.75307(19) 0.23154(10)
H15 H 0.3567 0.8412 0.2184
C23 C 0.39001(7) 0.69581(18) 0.29990(9)
H16 H 0.3799 0.7439 0.3321
C24 C 0.41975(6) 0.56626(17) 0.32069(8)
C25 C 0.42775(7) 0.4629(2) 0.14700(9)
C26 C 0.43937(7) 0.51224(18) 0.39743(8)
Zn1B Zn 0.559078(8) 0.37690(2) 0.464322(9)
Zn1F Zn 0.440922(8) 0.62310(2) 0.535678(9)
O3B O 0.52554(5) 0.41274(14) 0.07906(7)
O4F O 0.41731(6) 0.42716(16) -0.06688(6)
O5 O 0.06049(14) 0.5737(3) 0.2786(2)
H17 H 0.0186 0.6161 0.2432
H18 H 0.0645 0.6761 0.3079
loop_
_geom_bond_atom_site_label_1
_geom_bond_atom_site_label_2
_geom_bond_site_symmetry_1
_geom_bond_site_symmetry_2
Zn1 O1 1_555 1_555
O1 C25 1_555 1_555
O2 Zn1 1_555 1_555
O3 C26 1_555 1_555
O4 C26 1_555 1_555
N1 Zn1 1_555 1_555
N2 Zn1 1_555 1_555
N3 C12 1_555 1_555
N4 C14 1_555 1_555
C1 N2 1_555 1_555
H1 C1 1_555 1_555
C2 C1 1_555 1_555
H2 C2 1_555 1_555
C3 C2 1_555 1_555
H3 C3 1_555 1_555
C4 C3 1_555 1_555
H4 C4 1_555 1_555
C5 N2 1_555 1_555
C6 N1 1_555 1_555
C7 N1 1_555 1_555
C8 C7 1_555 1_555
H5 C8 1_555 1_555
C9 C8 1_555 1_555
H6 C9 1_555 1_555
C10 C9 1_555 1_555
H7 C10 1_555 1_555
C11 C10 1_555 1_555
H8 C11 1_555 1_555
C12 C7 1_555 1_555
C13 N3 1_555 1_555
C14 C13 1_555 1_555
C15 C14 1_555 1_555
H9 C15 1_555 1_555
C16 C15 1_555 1_555
H10 C16 1_555 1_555
C17 C16 1_555 1_555
H11 C17 1_555 1_555
C18 N4 1_555 1_555
H12 C18 1_555 1_555
C19 H13 1_555 1_555
C20 C19 1_555 1_555
C21 C20 1_555 1_555
H14 C21 1_555 1_555
C22 C21 1_555 1_555
H15 C22 1_555 1_555
C23 C22 1_555 1_555
H16 C23 1_555 1_555
C24 C19 1_555 1_555
C25 O2 1_555 1_555
C26 C24 1_555 1_555
O5 H17 1_555 1_555
H18 O5 1_555 1_555
Zn1B O3 1_555 1_555
Zn1F O4 1_555 1_555
O3B Zn1 1_555 1_555
O4F Zn1 1_555 1_555
C4 C5 1_555 1_555
C5 C6 1_555 1_555
C6 C13 1_555 1_555
C11 C12 1_555 1_555
C17 C18 1_555 1_555
C20 C25 1_555 1_555
C23 C24 1_555 1_555

#END
