
#######################################################################
#
#                 Cambridge Crystallographic Data Centre
#                                CCDC 
#
#######################################################################
#
# If this CIF has been generated from an entry in the Cambridge 
# Structural Database, then it will include bibliographic, chemical, 
# crystal, experimental, refinement or atomic coordinate data resulting 
# from the CCDC's data processing and validation procedures.
#
#######################################################################

data_MIJRUU
_symmetry_cell_setting           monoclinic
_symmetry_space_group_name_H-M   'P 21/c'
_symmetry_Int_Tables_number      14
_space_group_name_Hall           '-P 2ybc'
loop_
_symmetry_equiv_pos_site_id
_symmetry_equiv_pos_as_xyz
1 x,y,z
2 -x,1/2+y,1/2-z
3 -x,-y,-z
4 x,1/2-y,1/2+z
_cell_length_a                   14.394(5)
_cell_length_b                   10.364(3)
_cell_length_c                   27.067(8)
_cell_angle_alpha                90
_cell_angle_beta                 114.046(14)
_cell_angle_gamma                90
_cell_volume                     3687.43
loop_
_atom_site_label
_atom_site_type_symbol
_atom_site_fract_x
_atom_site_fract_y
_atom_site_fract_z
Cd1 Cd -0.01803(3) 0.11986(4) 0.552082(16)
Cd2 Cd 0.05458(3) 0.37443(4) 0.432142(15)
O1 O 0.1671(3) 0.1941(5) 0.59106(18)
O2 O -0.0654(3) 0.5440(4) 0.41282(17)
H1 H -0.1077 0.5083 0.4229
H2 H -0.0733 0.6262 0.4143
O3 O 0.1077(3) 0.0308(4) 0.53547(16)
O4 O 0.1717(3) 0.2239(4) 0.46361(18)
O5 O 0.0648(3) 0.0653(4) 0.41988(16)
O6 O 0.6202(5) -0.1673(7) 0.6571(3)
O7 O 0.5774(4) -0.2083(6) 0.5703(4)
O8 O 0.5384(6) -0.2516(7) 0.4853(4)
O9 O -0.0416(3) 0.2656(4) 0.46720(16)
O10 O -0.1561(3) 0.2337(4) 0.50064(15)
O11 O -0.1411(3) 0.5242(4) 0.48710(15)
O12 O -0.2165(3) 0.4845(4) 0.54177(16)
O13 O -0.4947(6) 0.2087(9) 0.2253(4)
O14 O -0.5663(4) 0.3482(6) 0.2573(2)
O15 O -0.6509(4) 0.4770(7) 0.2880(3)
N1 N -0.0078(4) 0.3724(5) 0.34149(18)
N2 N -0.1003(4) 0.4222(5) 0.31283(19)
H3 H -0.1346 0.4644 0.3271
N3 N -0.0261(4) 0.2795(5) 0.12594(19)
N4 N -0.1056(4) 0.2011(5) 0.12042(19)
H4 H -0.1381 0.1553 0.0921
C1 C 0.1190(5) 0.2457(8) 0.3220(3)
H5 H 0.1093 0.1564 0.3281
H6 H 0.1678 0.2831 0.3548
H7 H 0.1434 0.2526 0.2940
C2 C 0.0205(5) 0.3154(6) 0.3053(2)
C3 C -0.0580(4) 0.3306(6) 0.2528(2)
C4 C -0.1336(5) 0.3997(6) 0.2599(2)
C5 C -0.2348(5) 0.4443(8) 0.2208(3)
H8 H -0.2326 0.4595 0.1863
H9 H -0.2526 0.5227 0.2337
H10 H -0.2849 0.3793 0.2170
C6 C 0.0890(5) 0.4265(8) 0.1951(3)
H11 H 0.1279 0.4204 0.1736
H12 H 0.1321 0.4084 0.2322
H13 H 0.0617 0.5121 0.1922
C7 C 0.0036(4) 0.3310(6) 0.1751(2)
C8 C -0.0587(4) 0.2870(6) 0.2009(2)
C9 C -0.1274(5) 0.2033(6) 0.1638(2)
C10 C -0.2094(5) 0.1231(7) 0.1673(3)
H14 H -0.2717 0.1715 0.1542
H15 H -0.1917 0.0990 0.2043
H16 H -0.2182 0.0469 0.1457
C11 C 0.1800(4) 0.1029(6) 0.5649(2)
C12 C 0.2854(4) 0.0623(6) 0.5715(2)
C13 C 0.3582(5) 0.0604(7) 0.6232(3)
H17 H 0.3461 0.1030 0.6502
C14 C 0.4508(5) -0.0040(8) 0.6365(3)
H18 H 0.5001 -0.0030 0.6718
C15 C 0.4680(5) -0.0681(7) 0.5972(3)
C16 C 0.3970(5) -0.0622(6) 0.5425(3)
C17 C 0.3050(4) 0.0082(5) 0.5283(2)
C18 C 0.2394(5) 0.0160(6) 0.4726(3)
C19 C 0.2614(6) -0.0489(7) 0.4343(3)
H19 H 0.2162 -0.0445 0.3981
C20 C 0.3504(6) -0.1214(7) 0.4490(4)
H20 H 0.3639 -0.1661 0.4229
C21 C 0.4173(6) -0.1262(6) 0.5019(4)
C22 C 0.5117(7) -0.1992(9) 0.5156(5)
C23 C 0.5601(6) -0.1488(8) 0.6097(4)
C24 C 0.1498(5) 0.1074(6) 0.4513(2)
C25 C -0.1312(4) 0.2669(5) 0.4626(2)
C26 C -0.2177(4) 0.2921(5) 0.4094(2)
C27 C -0.2186(5) 0.2253(6) 0.3655(2)
H21 H -0.1605 0.1810 0.3683
C28 C -0.3049(5) 0.2220(7) 0.3165(3)
H22 H -0.3041 0.1766 0.2871
C29 C -0.3910(5) 0.2869(7) 0.3126(2)
C30 C -0.3920(4) 0.3603(6) 0.3554(2)
C31 C -0.3046(4) 0.3665(5) 0.4053(2)
C32 C -0.3090(4) 0.4455(6) 0.4471(2)
C33 C -0.3986(5) 0.5036(8) 0.4412(3)
H23 H -0.4017 0.5500 0.4699
C34 C -0.4856(5) 0.4943(8) 0.3926(3)
H24 H -0.5457 0.5343 0.3893
C35 C -0.4819(5) 0.4262(7) 0.3501(3)
C36 C -0.5729(5) 0.4216(8) 0.2978(3)
C37 C -0.4838(7) 0.2778(10) 0.2625(3)
C38 C -0.2161(5) 0.4837(5) 0.4956(2)
Cd1B Cd 0.01803(3) -0.11986(4) 0.447918(16)
Cd1C Cd -0.01803(3) 0.38014(4) 0.052082(16)
Cd2B Cd -0.05458(3) 0.62557(4) 0.567858(15)
O3B O -0.1077(3) -0.0308(4) 0.46453(16)
O5B O -0.0648(3) -0.0653(4) 0.58012(16)
O11B O 0.1411(3) 0.4758(4) 0.51290(15)
O12B O 0.2165(3) 0.5155(4) 0.45823(16)
N3C N -0.0261(4) 0.2205(5) 0.62594(19)
O16 O -0.2629(6) 0.6192(8) 0.3208(3)
H25 H -0.2747 0.5533 0.3360
H26 H -0.2487 0.6815 0.3432
loop_
_geom_bond_atom_site_label_1
_geom_bond_atom_site_label_2
_geom_bond_site_symmetry_1
_geom_bond_site_symmetry_2
Cd1 O1 1_555 1_555
Cd2 O2 1_555 1_555
O1 C11 1_555 1_555
O2 H1 1_555 1_555
H2 O2 1_555 1_555
O3 Cd1 1_555 1_555
O4 Cd2 1_555 1_555
O5 C24 1_555 1_555
O6 C23 1_555 1_555
O7 C22 1_555 1_555
O8 C22 1_555 1_555
O9 Cd1 1_555 1_555
O10 Cd1 1_555 1_555
O11 C38 1_555 1_555
O12 C38 1_555 1_555
O13 C37 1_555 1_555
O14 C36 1_555 1_555
O15 C36 1_555 1_555
N1 Cd2 1_555 1_555
N2 N1 1_555 1_555
H3 N2 1_555 1_555
N3 N4 1_555 1_555
N4 H4 1_555 1_555
C1 H5 1_555 1_555
H6 C1 1_555 1_555
H7 C1 1_555 1_555
C2 N1 1_555 1_555
C3 C2 1_555 1_555
C4 N2 1_555 1_555
C5 C4 1_555 1_555
H8 C5 1_555 1_555
H9 C5 1_555 1_555
H10 C5 1_555 1_555
C6 H11 1_555 1_555
H12 C6 1_555 1_555
H13 C6 1_555 1_555
C7 N3 1_555 1_555
C8 C3 1_555 1_555
C9 N4 1_555 1_555
C10 C9 1_555 1_555
H14 C10 1_555 1_555
H15 C10 1_555 1_555
H16 C10 1_555 1_555
C11 O3 1_555 1_555
C12 C11 1_555 1_555
C13 C12 1_555 1_555
H17 C13 1_555 1_555
C14 C13 1_555 1_555
H18 C14 1_555 1_555
C15 C14 1_555 1_555
C16 C15 1_555 1_555
C17 C12 1_555 1_555
C18 C17 1_555 1_555
C19 C18 1_555 1_555
H19 C19 1_555 1_555
C20 C19 1_555 1_555
H20 C20 1_555 1_555
C21 C16 1_555 1_555
C22 C21 1_555 1_555
C23 O7 1_555 1_555
C24 O4 1_555 1_555
C25 O9 1_555 1_555
C26 C25 1_555 1_555
C27 C26 1_555 1_555
H21 C27 1_555 1_555
C28 C27 1_555 1_555
H22 C28 1_555 1_555
C29 C28 1_555 1_555
C30 C29 1_555 1_555
C31 C26 1_555 1_555
C32 C31 1_555 1_555
C33 C32 1_555 1_555
H23 C33 1_555 1_555
C34 C33 1_555 1_555
H24 C34 1_555 1_555
C35 C30 1_555 1_555
C36 C35 1_555 1_555
C37 O14 1_555 1_555
C38 C32 1_555 1_555
O16 H25 1_555 1_555
H26 O16 1_555 1_555
Cd1B O3 1_555 1_555
Cd1C N3 1_555 1_555
Cd2B O11 1_555 1_555
O3B Cd1 1_555 1_555
O5B Cd1 1_555 1_555
O11B Cd2 1_555 1_555
O12B Cd2 1_555 1_555
N3C Cd1 1_555 1_555
Cd2 O9 1_555 1_555
O5 Cd1B 1_555 1_555
O10 C25 1_555 1_555
O12 Cd2B 1_555 1_555
C1 C2 1_555 1_555
C3 C4 1_555 1_555
C6 C7 1_555 1_555
C7 C8 1_555 1_555
C8 C9 1_555 1_555
C15 C23 1_555 1_555
C16 C17 1_555 1_555
C18 C24 1_555 1_555
C20 C21 1_555 1_555
C29 C37 1_555 1_555
C30 C31 1_555 1_555
C34 C35 1_555 1_555
Cd1B O3B 1_555 1_555

#END
