
#######################################################################
#
#                 Cambridge Crystallographic Data Centre
#                                CCDC 
#
#######################################################################
#
# If this CIF has been generated from an entry in the Cambridge 
# Structural Database, then it will include bibliographic, chemical, 
# crystal, experimental, refinement or atomic coordinate data resulting 
# from the CCDC's data processing and validation procedures.
#
#######################################################################

data_MIJRIH
_symmetry_cell_setting           monoclinic
_symmetry_space_group_name_H-M   'P 21/c'
_symmetry_Int_Tables_number      14
_space_group_name_Hall           '-P 2ybc'
loop_
_symmetry_equiv_pos_site_id
_symmetry_equiv_pos_as_xyz
1 x,y,z
2 -x,1/2+y,1/2-z
3 -x,-y,-z
4 x,1/2-y,1/2+z
_cell_length_a                   14.3494(7)
_cell_length_b                   10.1560(5)
_cell_length_c                   18.8827(9)
_cell_angle_alpha                90
_cell_angle_beta                 111.917(1)
_cell_angle_gamma                90
_cell_volume                     2552.94
loop_
_atom_site_label
_atom_site_type_symbol
_atom_site_fract_x
_atom_site_fract_y
_atom_site_fract_z
Cd1 Cd 0.156899(11) 0.312009(13) 0.481486(8)
O1 O 0.13896(12) 0.56049(14) 0.48747(8)
O2 O 0.16201(13) 1.05878(15) 0.49532(9)
O3 O 0.17264(12) 0.46312(13) 0.39626(9)
O4 O -0.01293(13) 0.3115(2) 0.44810(12)
N1 N 0.33738(12) 0.31064(13) 0.55763(10)
N2 N 0.18339(13) 0.30224(16) 0.61160(10)
O5 O 0.15187(15) 1.16311(13) 0.39178(10)
C1 C 0.15298(14) 0.56423(17) 0.42521(12)
C2 C 0.14570(15) 0.69291(17) 0.38444(12)
C3 C 0.15393(16) 1.05915(18) 0.42727(13)
C4 C 0.13251(19) 0.69512(19) 0.30741(13)
H1 H 0.1292 0.6164 0.2814
C5 C 0.35706(15) 0.33188(17) 0.63069(11)
C6 C 0.41320(16) 0.32537(17) 0.53123(12)
C7 C 0.1244(2) 0.8132(2) 0.26961(15)
H2 H 0.1138 0.8140 0.2179
N3 N 0.52601(13) 0.39926(17) 0.65472(10)
C8 C 0.27839(16) 0.28654(18) 0.65916(11)
C9 C 0.50974(15) 0.3633(2) 0.58163(12)
C10 C 0.39712(18) 0.29238(19) 0.45504(13)
H3 H 0.3336 0.2690 0.4209
C11 C 0.47025(16) 0.44000(19) 0.75638(12)
N4 N 0.39269(14) 0.5007(2) 0.76556(11)
C12 C 0.45157(15) 0.38656(19) 0.67903(11)
C13 C 0.4773(2) 0.2956(2) 0.43263(15)
H4 H 0.4675 0.2736 0.3825
C14 C 0.57396(19) 0.3311(2) 0.48290(16)
H5 H 0.6272 0.3310 0.4661
C15 C 0.56394(18) 0.4302(2) 0.81400(13)
H6 H 0.6167 0.3892 0.8054
C16 C 0.1301(2) 0.2016(3) 0.70417(16)
H7 H 0.0776 0.1772 0.7190
C17 C 0.58989(17) 0.3658(2) 0.55603(14)
H8 H 0.6536 0.3910 0.5890
C18 C 0.30311(19) 0.2213(2) 0.72780(13)
H9 H 0.3701 0.2066 0.7584
C19 C 0.4981(2) 0.5403(2) 0.89567(14)
H10 H 0.5047 0.5731 0.9433
C20 C 0.2273(2) 0.1779(2) 0.75062(15)
H11 H 0.2422 0.1337 0.7967
C21 C 0.11108(18) 0.2620(3) 0.63505(14)
H12 H 0.0446 0.2755 0.6030
C22 C 0.4078(2) 0.5487(2) 0.83480(14)
H13 H 0.3545 0.5902 0.8423
C23 C 0.5775(2) 0.4829(3) 0.88503(14)
H14 H 0.6400 0.4791 0.9247
C24 C 0.13218(18) 0.9308(2) 0.30867(13)
H15 H 0.1275 1.0103 0.2831
C25 C 0.15294(15) 0.81150(16) 0.42276(12)
H16 H 0.1620 0.8108 0.4742
C26 C 0.14695(15) 0.93081(18) 0.38580(12)
H18 H -0.045(2) 0.241(3) 0.4291(16)
H19 H -0.041(2) 0.352(3) 0.4677(18)
Cd1_2 Cd 0.156899(11) 1.312009(13) 0.481486(8)
O2_2 O 0.16201(13) 0.05878(15) 0.49532(9)
O5_2 O 0.15187(15) 0.16311(13) 0.39178(10)
O6 O 0.27426(19) 0.6645(2) 0.63131(15)
H20 H 0.237(6) 0.618(8) 0.594(4)
H21 H 0.296(3) 0.612(4) 0.6693(18)
O7 O -0.1401(2) 0.1065(2) 0.38939(14)
H17 H -0.0681(14) 0.0565(18) 0.4279(11)
H22 H -0.136(5) 0.032(7) 0.430(4)
loop_
_geom_bond_atom_site_label_1
_geom_bond_atom_site_label_2
_geom_bond_site_symmetry_1
_geom_bond_site_symmetry_2
Cd1 O1 1_555 1_555
O1 C1 1_555 1_555
O2 C3 1_555 1_555
O3 Cd1 1_555 1_555
O4 Cd1 1_555 1_555
N1 Cd1 1_555 1_555
N2 Cd1 1_555 1_555
O5 C3 1_555 1_555
C1 O3 1_555 1_555
C2 C1 1_555 1_555
C3 C26 1_555 1_555
C4 C2 1_555 1_555
H1 C4 1_555 1_555
C5 N1 1_555 1_555
C6 N1 1_555 1_555
C7 C4 1_555 1_555
H2 C7 1_555 1_555
N3 C9 1_555 1_555
C8 N2 1_555 1_555
C9 C6 1_555 1_555
C10 C6 1_555 1_555
H3 C10 1_555 1_555
C11 N4 1_555 1_555
N4 C22 1_555 1_555
C12 C5 1_555 1_555
C13 C10 1_555 1_555
H4 C13 1_555 1_555
C14 C13 1_555 1_555
H5 C14 1_555 1_555
C15 C11 1_555 1_555
H6 C15 1_555 1_555
C16 H7 1_555 1_555
C17 C9 1_555 1_555
H8 C17 1_555 1_555
C18 C8 1_555 1_555
H9 C18 1_555 1_555
C19 H10 1_555 1_555
C20 C16 1_555 1_555
H11 C20 1_555 1_555
C21 N2 1_555 1_555
H12 C21 1_555 1_555
C22 C19 1_555 1_555
H13 C22 1_555 1_555
C23 C15 1_555 1_555
H14 C23 1_555 1_555
O6 H20 1_555 1_555
O7 H17 1_555 1_555
C24 C7 1_555 1_555
H15 C24 1_555 1_555
C25 C2 1_555 1_555
H16 C25 1_555 1_555
C26 C24 1_555 1_555
H18 O4 1_555 1_555
H19 O4 1_555 1_555
H21 O6 1_555 1_555
H22 O7 1_555 1_555
Cd1_2 O2 1_555 1_555
O2_2 Cd1 1_555 1_555
O5_2 Cd1 1_555 1_555
O5 Cd1_2 1_555 1_555
C5 C8 1_555 1_555
N3 C12 1_555 1_555
C11 C12 1_555 1_555
C14 C17 1_555 1_555
C16 C21 1_555 1_555
C18 C20 1_555 1_555
C19 C23 1_555 1_555
C25 C26 1_555 1_555

#END
