
#######################################################################
#
#                 Cambridge Crystallographic Data Centre
#                                CCDC 
#
#######################################################################
#
# If this CIF has been generated from an entry in the Cambridge 
# Structural Database, then it will include bibliographic, chemical, 
# crystal, experimental, refinement or atomic coordinate data resulting 
# from the CCDC's data processing and validation procedures.
#
#######################################################################

data_MIJSAB
_symmetry_cell_setting           monoclinic
_symmetry_space_group_name_H-M   'P 21/c'
_symmetry_Int_Tables_number      14
_space_group_name_Hall           '-P 2ybc'
loop_
_symmetry_equiv_pos_site_id
_symmetry_equiv_pos_as_xyz
1 x,y,z
2 -x,1/2+y,1/2-z
3 -x,-y,-z
4 x,1/2-y,1/2+z
_cell_length_a                   14.486(4)
_cell_length_b                   13.881(3)
_cell_length_c                   19.212(5)
_cell_angle_alpha                90
_cell_angle_beta                 105.778(5)
_cell_angle_gamma                90
_cell_volume                     3717.6
loop_
_atom_site_label
_atom_site_type_symbol
_atom_site_fract_x
_atom_site_fract_y
_atom_site_fract_z
Cd1 Cd 0.23669(3) 0.46876(3) 0.21827(3)
O1 O 0.1835(4) 0.4735(4) 0.0818(3)
H1 H 0.2316 0.4936 0.0640
H2 H 0.1650 0.4146 0.0635
O2 O 0.2825(3) 0.4702(3) 0.3585(2)
H3 H 0.3184 0.4190 0.3765
H4 H 0.3159 0.5234 0.3753
N1 N 0.0948(4) 0.5508(4) 0.2021(3)
N2 N 0.0124(4) 0.5102(4) 0.1620(3)
H5 H 0.0103 0.4611 0.1327
N3 N -0.1562(4) 0.8261(3) 0.2849(3)
N4 N -0.1834(4) 0.7481(4) 0.3173(3)
H6 H -0.2208 0.7508 0.3464
N5 N 0.3693(4) 0.3815(4) 0.2099(3)
N6 N 0.4225(4) 0.4143(4) 0.1666(3)
H7 H 0.4026 0.4583 0.1329
N7 N 0.6824(4) 0.1075(4) 0.2933(3)
N8 N 0.7283(4) 0.1817(4) 0.3338(3)
H8 H 0.7854 0.1768 0.3647
C1 C 0.1381(5) 0.6865(5) 0.2887(4)
H9 H 0.1909 0.6477 0.3183
H10 H 0.1061 0.7207 0.3203
H11 H 0.1634 0.7332 0.2604
C2 C 0.0675(4) 0.6219(4) 0.2387(3)
C3 C -0.0330(4) 0.6271(4) 0.2234(4)
C4 C -0.0659(5) 0.5535(5) 0.1722(4)
C5 C -0.1652(6) 0.5218(7) 0.1334(6)
H12 H -0.1884 0.5594 0.0889
H13 H -0.2078 0.5319 0.1646
H14 H -0.1645 0.4532 0.1213
C6 C -0.0545(6) 0.8542(5) 0.2020(5)
H15 H -0.1013 0.9019 0.1763
H16 H -0.0332 0.8149 0.1668
H17 H 0.0008 0.8873 0.2337
C7 C -0.0994(4) 0.7914(4) 0.2458(3)
C8 C -0.0912(4) 0.6901(4) 0.2534(3)
C9 C -0.1457(5) 0.6659(4) 0.2991(4)
C10 C -0.1672(6) 0.5709(5) 0.3279(5)
H18 H -0.2050 0.5811 0.3625
H19 H -0.1069 0.5385 0.3522
H20 H -0.2036 0.5307 0.2878
C11 C 0.3939(6) 0.2621(7) 0.3096(5)
H21 H 0.3901 0.1932 0.2979
H22 H 0.3308 0.2852 0.3116
H23 H 0.4405 0.2722 0.3567
C12 C 0.4247(4) 0.3161(4) 0.2531(3)
C13 C 0.5128(4) 0.3078(4) 0.2365(4)
C14 C 0.5094(5) 0.3721(5) 0.1812(4)
C15 C 0.5812(7) 0.3939(9) 0.1409(7)
H24 H 0.6243 0.3387 0.1440
H25 H 0.6185 0.4507 0.1620
H26 H 0.5481 0.4067 0.0900
C16 C 0.5262(6) 0.0858(6) 0.2016(5)
H27 H 0.4796 0.0606 0.2257
H28 H 0.5577 0.0320 0.1843
H29 H 0.4930 0.1261 0.1606
C17 C 0.5989(4) 0.1441(5) 0.2535(4)
C18 C 0.5933(4) 0.2416(4) 0.2706(3)
C19 C 0.6774(5) 0.2631(5) 0.3219(4)
C20 C 0.7118(7) 0.3546(6) 0.3622(6)
H30 H 0.6750 0.4091 0.3363
H31 H 0.7800 0.3638 0.3657
H32 H 0.7029 0.3506 0.4109
Cd1A Cd -0.23669(3) 0.96876(3) 0.28173(3)
Cd1A_2 Cd 0.76331(3) -0.03124(3) 0.28173(3)
N3A N 0.1562(4) 0.3261(3) 0.2151(3)
N7A N 0.3176(4) 0.6075(4) 0.2067(3)
Cl1 Cl 0.3347(5) 0.3285(5) 0.5183(4)
O3 O 0.2685(9) 0.3235(11) 0.4473(7)
O4 O 0.4280(8) 0.3078(13) 0.5160(9)
O5 O 0.3396(19) 0.4328(11) 0.5385(16)
O6 O 0.2927(9) 0.2816(11) 0.5722(6)
S1 S 0.02375(14) 0.80604(11) 0.49160(10)
O7 O 0.1043(5) 0.8346(4) 0.5503(4)
O8 O 0.0336(6) 0.8376(4) 0.4224(4)
O9 O -0.0665(5) 0.8337(4) 0.5026(4)
C21 C -0.0374(5) 0.5228(4) 0.5112(3)
C22 C -0.0416(5) 0.6263(5) 0.5108(4)
H33 H -0.0912 0.6582 0.5254
C23 C 0.0245(5) 0.6780(4) 0.4898(3)
C24 C 0.1001(5) 0.6322(5) 0.4678(4)
H34 H 0.1468 0.6699 0.4539
C25 C 0.1055(6) 0.5325(5) 0.4668(4)
H35 H 0.1551 0.5018 0.4513
S1B S -0.02375(14) 0.19396(11) 0.50840(10)
O7B O -0.1043(5) 0.1654(4) 0.4497(4)
O8B O -0.0336(6) 0.1624(4) 0.5776(4)
O9B O 0.0665(5) 0.1663(4) 0.4974(4)
C21B C 0.0374(5) 0.4772(4) 0.4888(3)
C22B C 0.0416(5) 0.3737(5) 0.4892(4)
H33B H 0.0912 0.3418 0.4746
C23B C -0.0245(5) 0.3220(4) 0.5102(3)
C24B C -0.1001(5) 0.3678(5) 0.5322(4)
H34B H -0.1468 0.3301 0.5461
C25B C -0.1055(6) 0.4675(5) 0.5332(4)
H35B H -0.1551 0.4982 0.5487
O10 O 0.2758(8) 0.8164(10) 0.4692(8)
H36 H 0.2471 0.8170 0.5023
H37 H 0.2659 0.8705 0.4476
O11 O 0.6388(12) 0.3677(13) 0.5498(9)
H38 H 0.5811 0.3526 0.5475
H39 H 0.6588 0.3285 0.5232
O12 O 0.4131(11) 0.1075(11) 0.4591(8)
H40 H 0.4146 0.0841 0.4175
H41 H 0.3681 0.1507 0.4528
O13 O 0.3754(10) 0.5337(11) 0.0426(8)
H42 H 0.3815 0.5939 0.0369
H43 H 0.3758 0.5060 0.0033
loop_
_geom_bond_atom_site_label_1
_geom_bond_atom_site_label_2
_geom_bond_site_symmetry_1
_geom_bond_site_symmetry_2
Cd1 O1 1_555 1_555
O1 H1 1_555 1_555
H2 O1 1_555 1_555
O2 Cd1 1_555 1_555
H3 O2 1_555 1_555
H4 O2 1_555 1_555
N1 Cd1 1_555 1_555
N2 N1 1_555 1_555
H5 N2 1_555 1_555
N3 N4 1_555 1_555
N4 H6 1_555 1_555
N5 Cd1 1_555 1_555
N6 N5 1_555 1_555
H7 N6 1_555 1_555
N7 N8 1_555 1_555
N8 H8 1_555 1_555
C1 H9 1_555 1_555
H10 C1 1_555 1_555
H11 C1 1_555 1_555
C2 N1 1_555 1_555
C3 C2 1_555 1_555
C4 N2 1_555 1_555
C5 C4 1_555 1_555
H12 C5 1_555 1_555
H13 C5 1_555 1_555
H14 C5 1_555 1_555
C6 H15 1_555 1_555
H16 C6 1_555 1_555
H17 C6 1_555 1_555
C7 N3 1_555 1_555
C8 C3 1_555 1_555
C9 N4 1_555 1_555
C10 C9 1_555 1_555
H18 C10 1_555 1_555
H19 C10 1_555 1_555
H20 C10 1_555 1_555
C11 H21 1_555 1_555
H22 C11 1_555 1_555
H23 C11 1_555 1_555
C12 N5 1_555 1_555
C13 C12 1_555 1_555
C14 N6 1_555 1_555
C15 C14 1_555 1_555
H24 C15 1_555 1_555
H25 C15 1_555 1_555
H26 C15 1_555 1_555
C16 H27 1_555 1_555
H28 C16 1_555 1_555
H29 C16 1_555 1_555
C17 N7 1_555 1_555
C18 C13 1_555 1_555
C19 N8 1_555 1_555
C20 C19 1_555 1_555
H30 C20 1_555 1_555
H31 C20 1_555 1_555
H32 C20 1_555 1_555
Cl1 O3 1_555 1_555
O4 Cl1 1_555 1_555
O5 Cl1 1_555 1_555
O6 Cl1 1_555 1_555
S1 O7 1_555 1_555
O8 S1 1_555 1_555
O9 S1 1_555 1_555
C21 C22 1_555 1_555
C22 H33 1_555 1_555
C23 S1 1_555 1_555
C24 C23 1_555 1_555
H34 C24 1_555 1_555
C25 C24 1_555 1_555
H35 C25 1_555 1_555
O10 H36 1_555 1_555
H37 O10 1_555 1_555
O11 H38 1_555 1_555
H39 O11 1_555 1_555
O12 H40 1_555 1_555
H41 O12 1_555 1_555
O13 H42 1_555 1_555
H43 O13 1_555 1_555
Cd1A N3 1_555 1_555
Cd1A_2 N7 1_555 1_555
N3A Cd1 1_555 1_555
N7A Cd1 1_555 1_555
S1B O7B 1_555 1_555
O8B S1B 1_555 1_555
O9B S1B 1_555 1_555
C21B C21 1_555 1_555
C22B C21B 1_555 1_555
H33B C22B 1_555 1_555
C23B S1B 1_555 1_555
C24B C23B 1_555 1_555
H34B C24B 1_555 1_555
C25B C21 1_555 1_555
H35B C25B 1_555 1_555
C1 C2 1_555 1_555
C3 C4 1_555 1_555
C6 C7 1_555 1_555
C7 C8 1_555 1_555
C8 C9 1_555 1_555
C11 C12 1_555 1_555
C13 C14 1_555 1_555
C16 C17 1_555 1_555
C17 C18 1_555 1_555
C18 C19 1_555 1_555
C22 C23 1_555 1_555
C25 C21B 1_555 1_555
C22B C23B 1_555 1_555
C24B C25B 1_555 1_555

#END
