
#######################################################################
#
#                 Cambridge Crystallographic Data Centre
#                                CCDC 
#
#######################################################################
#
# If this CIF has been generated from an entry in the Cambridge 
# Structural Database, then it will include bibliographic, chemical, 
# crystal, experimental, refinement or atomic coordinate data resulting 
# from the CCDC's data processing and validation procedures.
#
#######################################################################

data_MIJSAA
_symmetry_cell_setting           triclinic
_symmetry_space_group_name_H-M   'P -1'
_symmetry_Int_Tables_number      2
_space_group_name_Hall           '-P 1'
loop_
_symmetry_equiv_pos_site_id
_symmetry_equiv_pos_as_xyz
1 x,y,z
2 -x,-y,-z
_cell_length_a                   11.908(4)
_cell_length_b                   12.171(4)
_cell_length_c                   13.749(5)
_cell_angle_alpha                68.679(4)
_cell_angle_beta                 76.420(4)
_cell_angle_gamma                62.357(4)
_cell_volume                     1639.12
loop_
_atom_site_label
_atom_site_type_symbol
_atom_site_fract_x
_atom_site_fract_y
_atom_site_fract_z
Cd1 Cd 0.87518(2) 0.646703(19) 0.629177(17)
Fe1 Fe 1.11003(4) 0.86512(4) 0.25767(3)
O1 O 0.9260(2) 0.8252(2) 0.52050(19)
O2 O 1.0848(2) 0.63181(19) 0.53183(16)
O3 O 0.9731(2) 0.42527(18) 0.68554(16)
O4 O 0.7823(2) 0.4693(2) 0.7674(2)
O5 O 0.83810(19) 0.62080(19) 0.47535(16)
N1 N 0.6643(2) 0.7893(2) 0.63559(18)
N2 N 0.5009(2) 0.9773(2) 0.64414(18)
N3 N 0.1411(2) 1.3284(2) 1.04921(18)
N4 N 0.0995(2) 1.3299(2) 1.21582(17)
C1 C 1.0359(3) 0.7547(3) 0.4948(2)
C2 C 1.1184(3) 0.8147(3) 0.4157(2)
C3 C 1.2399(3) 0.7490(3) 0.3676(3)
H1 H 1.2886 0.6548 0.3833
C4 C 1.2776(3) 0.8459(3) 0.2912(3)
H2 H 1.3566 0.8293 0.2455
C5 C 1.1802(3) 0.9697(3) 0.2927(3)
H3 H 1.1800 1.0537 0.2487
C6 C 1.0846(3) 0.9503(3) 0.3695(3)
H4 H 1.0052 1.0195 0.3868
C7 C 0.9287(3) 0.2480(3) 0.7971(2)
C8 C 0.8580(3) 0.1838(3) 0.8764(2)
H5 H 0.7751 0.2254 0.9120
C9 C 0.9335(4) 0.0474(3) 0.8950(3)
H6 H 0.9088 -0.0207 0.9446
C10 C 1.0462(3) 0.0257(3) 0.8290(3)
H7 H 1.1132 -0.0591 0.8252
C11 C 1.0454(3) 0.1482(3) 0.7680(2)
H8 H 1.1120 0.1628 0.7147
C12 C 0.8901(3) 0.3902(3) 0.7463(2)
C13 C 0.6266(3) 0.9024(3) 0.6509(2)
H9 H 0.6818 0.9282 0.6651
C14 C 0.5543(3) 0.7889(3) 0.6166(2)
C15 C 0.5362(3) 0.6957(3) 0.5928(2)
H10 H 0.6030 0.6161 0.5910
C16 C 0.4153(3) 0.7269(3) 0.5719(3)
H11 H 0.4007 0.6672 0.5556
C17 C 0.3149(3) 0.8458(4) 0.5747(3)
H12 H 0.2353 0.8634 0.5589
C18 C 0.3287(3) 0.9382(3) 0.6001(2)
H13 H 0.2611 1.0171 0.6024
C19 C 0.4513(3) 0.9057(3) 0.6221(2)
C20 C 0.4309(3) 1.1026(3) 0.6669(2)
H14 H 0.3577 1.1552 0.6256
H15 H 0.4854 1.1481 0.6460
C21 C 0.3859(3) 1.0869(3) 0.7830(2)
H16 H 0.3285 1.0447 0.8032
H17 H 0.4587 1.0314 0.8245
C22 C 0.3183(3) 1.2165(3) 0.8068(2)
H18 H 0.2484 1.2736 0.7625
H19 H 0.3772 1.2566 0.7899
C23 C 0.2669(3) 1.2025(3) 0.9216(2)
H20 H 0.2032 1.1685 0.9376
H21 H 0.3356 1.1414 0.9665
C24 C 0.2083(3) 1.3329(3) 0.9433(2)
H22 H 0.2748 1.3607 0.9363
H23 H 0.1487 1.3968 0.8913
C25 C 0.1812(3) 1.3301(3) 1.1335(2)
H24 H 0.2590 1.3313 1.1325
C26 C 0.0207(3) 1.3310(3) 1.0790(2)
C27 C -0.0672(3) 1.3364(3) 1.0245(3)
H25 H -0.0491 1.3359 0.9550
C28 C -0.1811(3) 1.3425(3) 1.0775(3)
H26 H -0.2431 1.3489 1.0428
C29 C -0.2073(3) 1.3392(3) 1.1838(3)
H27 H -0.2847 1.3402 1.2186
C30 C -0.1195(3) 1.3347(3) 1.2368(3)
H28 H -0.1374 1.3341 1.3065
C31 C -0.0041(3) 1.3309(3) 1.1839(2)
H29 H 0.8313(8) 0.5511(7) 0.4909(19)
H30 H 0.9043(8) 0.6168(14) 0.4362(14)
Cd1A Cd 0.12482(2) 1.353297(19) 1.370823(17)
Cd1A_2 Cd 1.12482(2) 0.353297(19) 0.370823(17)
Fe1A Fe 0.88997(4) 0.13488(4) 0.74233(3)
O1A O 0.0740(2) 1.1748(2) 1.47950(19)
O1A_2 O 1.0740(2) 0.1748(2) 0.47950(19)
O2A O -0.0848(2) 1.36819(19) 1.46817(16)
O2A_2 O 0.9152(2) 0.36819(19) 0.46817(16)
O3A O 1.0269(2) 0.57473(18) 0.31446(16)
O3A_2 O 0.0269(2) 1.57473(18) 1.31446(16)
O4A O 1.2177(2) 0.5307(2) 0.2326(2)
O5A O 0.16190(19) 1.37920(19) 1.52465(16)
N1A N 0.3357(2) 1.2107(2) 1.36441(18)
N2A N 0.4991(2) 1.0227(2) 1.35586(18)
N3A N 0.8589(2) 0.6716(2) 0.95079(18)
N4A N 0.9005(2) 0.6701(2) 0.78418(17)
C1A C 0.9641(3) 0.2453(3) 0.5052(2)
C2A C 0.8816(3) 0.1853(3) 0.5843(2)
C3A C 0.7601(3) 0.2510(3) 0.6324(3)
H1A H 0.7114 0.3452 0.6167
C4A C 0.7224(3) 0.1541(3) 0.7088(3)
H2A H 0.6434 0.1707 0.7545
C5A C 0.8198(3) 0.0303(3) 0.7073(3)
H3A H 0.8200 -0.0537 0.7513
C6A C 0.9154(3) 0.0497(3) 0.6305(3)
H4A H 0.9948 -0.0195 0.6132
C7A C 1.0713(3) 0.7520(3) 0.2029(2)
C8A C 1.1420(3) 0.8162(3) 0.1236(2)
H5A H 1.2249 0.7746 0.0880
C9A C 1.0665(4) 0.9526(3) 0.1050(3)
H6A H 1.0912 1.0207 0.0554
C10A C 0.9538(3) 0.9743(3) 0.1710(3)
H7A H 0.8868 1.0591 0.1748
C11A C 0.9546(3) 0.8518(3) 0.2320(2)
H8A H 0.8880 0.8372 0.2853
C12A C 1.1099(3) 0.6098(3) 0.2537(2)
C13A C 0.3734(3) 1.0976(3) 1.3491(2)
H9A H 0.3182 1.0718 1.3349
C14A C 0.4457(3) 1.2111(3) 1.3834(2)
C15A C 0.4638(3) 1.3043(3) 1.4072(2)
H10A H 0.3970 1.3839 1.4090
C16A C 0.5847(3) 1.2731(3) 1.4281(3)
H11A H 0.5993 1.3328 1.4444
C17A C 0.6851(3) 1.1542(4) 1.4253(3)
H12A H 0.7647 1.1366 1.4411
C18A C 0.6713(3) 1.0618(3) 1.3999(2)
H13A H 0.7389 0.9829 1.3976
C19A C 0.5487(3) 1.0943(3) 1.3779(2)
C20A C 0.5691(3) 0.8974(3) 1.3331(2)
H14A H 0.6423 0.8448 1.3744
H15A H 0.5146 0.8519 1.3540
C21A C 0.6141(3) 0.9131(3) 1.2170(2)
H16A H 0.6715 0.9553 1.1968
H17A H 0.5413 0.9686 1.1755
C22A C 0.6817(3) 0.7835(3) 1.1932(2)
H18A H 0.7516 0.7264 1.2375
H19A H 0.6228 0.7434 1.2101
C23A C 0.7331(3) 0.7975(3) 1.0784(2)
H20A H 0.7968 0.8315 1.0624
H21A H 0.6644 0.8586 1.0335
C24A C 0.7917(3) 0.6671(3) 1.0567(2)
H22A H 0.7252 0.6393 1.0637
H23A H 0.8513 0.6032 1.1087
C25A C 0.8188(3) 0.6699(3) 0.8665(2)
H24A H 0.7410 0.6687 0.8675
C26A C 0.9793(3) 0.6690(3) 0.9210(2)
C27A C 1.0672(3) 0.6636(3) 0.9755(3)
H25A H 1.0491 0.6641 1.0450
C28A C 1.1811(3) 0.6575(3) 0.9225(3)
H26A H 1.2431 0.6511 0.9572
C29A C 1.2073(3) 0.6608(3) 0.8162(3)
H27A H 1.2847 0.6598 0.7814
C30A C 1.1195(3) 0.6653(3) 0.7632(3)
H28A H 1.1374 0.6659 0.6935
C31A C 1.0041(3) 0.6691(3) 0.8161(2)
H29A H 0.1687(8) 1.4489(7) 1.5091(19)
H30A H 0.0957(8) 1.3832(14) 1.5638(14)
O6 O 0.4448(5) 0.5290(5) 0.1519(4)
H31 H 0.463(2) 0.4551(7) 0.1496(14)
H32 H 0.439(3) 0.5807(11) 0.0915(9)
O7 O 0.4913(5) 0.7119(5) 0.9460(5)
H33 H 0.522(2) 0.6354(6) 0.9836(13)
H34 H 0.480(3) 0.7626(9) 0.9784(13)
loop_
_geom_bond_atom_site_label_1
_geom_bond_atom_site_label_2
_geom_bond_site_symmetry_1
_geom_bond_site_symmetry_2
Cd1 O1 1_555 1_555
Fe1 C2 1_555 1_555
O1 C1 1_555 1_555
O2 Cd1 1_555 1_555
O3 Cd1 1_555 1_555
O4 C12 1_555 1_555
O5 Cd1 1_555 1_555
O6 H31 1_555 1_555
O7 H33 1_555 1_555
N1 Cd1 1_555 1_555
N2 C13 1_555 1_555
N3 C24 1_555 1_555
N4 C25 1_555 1_555
C1 O2 1_555 1_555
C2 C1 1_555 1_555
C3 Fe1 1_555 1_555
H1 C3 1_555 1_555
C4 Fe1 1_555 1_555
H2 C4 1_555 1_555
C5 Fe1 1_555 1_555
H3 C5 1_555 1_555
C6 Fe1 1_555 1_555
H4 C6 1_555 1_555
C7 C8 1_555 1_555
C8 H5 1_555 1_555
C9 C8 1_555 1_555
H6 C9 1_555 1_555
C10 C9 1_555 1_555
H7 C10 1_555 1_555
C11 C7 1_555 1_555
H8 C11 1_555 1_555
C12 O3 1_555 1_555
C13 N1 1_555 1_555
H9 C13 1_555 1_555
C14 N1 1_555 1_555
C15 C14 1_555 1_555
H10 C15 1_555 1_555
C16 C15 1_555 1_555
H11 C16 1_555 1_555
C17 C16 1_555 1_555
H12 C17 1_555 1_555
C18 C17 1_555 1_555
H13 C18 1_555 1_555
C19 N2 1_555 1_555
C20 N2 1_555 1_555
H14 C20 1_555 1_555
H15 C20 1_555 1_555
C21 C20 1_555 1_555
H16 C21 1_555 1_555
H17 C21 1_555 1_555
C22 C21 1_555 1_555
H18 C22 1_555 1_555
H19 C22 1_555 1_555
C23 C22 1_555 1_555
H20 C23 1_555 1_555
H21 C23 1_555 1_555
C24 C23 1_555 1_555
H22 C24 1_555 1_555
H23 C24 1_555 1_555
C25 N3 1_555 1_555
H24 C25 1_555 1_555
C26 N3 1_555 1_555
C27 C26 1_555 1_555
H25 C27 1_555 1_555
C28 C27 1_555 1_555
H26 C28 1_555 1_555
C29 C28 1_555 1_555
H27 C29 1_555 1_555
C30 C29 1_555 1_555
H28 C30 1_555 1_555
C31 N4 1_555 1_555
H29 O5 1_555 1_555
H30 O5 1_555 1_555
H32 O6 1_555 1_555
H34 O7 1_555 1_555
Cd1A N4 1_555 1_555
Cd1A_2 O1A_2 1_555 1_555
Fe1A C7 1_555 1_555
O1A Cd1A 1_555 1_555
O1A_2 C1A 1_555 1_555
O2A Cd1A 1_555 1_555
O2A_2 Cd1A_2 1_555 1_555
O3A Cd1A_2 1_555 1_555
O3A_2 Cd1A 1_555 1_555
O4A C12A 1_555 1_555
O5A Cd1A 1_555 1_555
N1A Cd1A 1_555 1_555
N2A C13A 1_555 1_555
N3A C24A 1_555 1_555
N4A Cd1 1_555 1_555
C1A O2A_2 1_555 1_555
C2A Fe1A 1_555 1_555
C3A Fe1A 1_555 1_555
H1A C3A 1_555 1_555
C4A Fe1A 1_555 1_555
H2A C4A 1_555 1_555
C5A Fe1A 1_555 1_555
H3A C5A 1_555 1_555
C6A Fe1A 1_555 1_555
H4A C6A 1_555 1_555
C7A Fe1 1_555 1_555
C8A Fe1 1_555 1_555
H5A C8A 1_555 1_555
C9A Fe1 1_555 1_555
H6A C9A 1_555 1_555
C10A Fe1 1_555 1_555
H7A C10A 1_555 1_555
C11A Fe1 1_555 1_555
H8A C11A 1_555 1_555
C12A O3A 1_555 1_555
C13A N1A 1_555 1_555
H9A C13A 1_555 1_555
C14A N1A 1_555 1_555
C15A C14A 1_555 1_555
H10A C15A 1_555 1_555
C16A C15A 1_555 1_555
H11A C16A 1_555 1_555
C17A C16A 1_555 1_555
H12A C17A 1_555 1_555
C18A C17A 1_555 1_555
H13A C18A 1_555 1_555
C19A N2A 1_555 1_555
C20A N2A 1_555 1_555
H14A C20A 1_555 1_555
H15A C20A 1_555 1_555
C21A C20A 1_555 1_555
H16A C21A 1_555 1_555
H17A C21A 1_555 1_555
C22A C21A 1_555 1_555
H18A C22A 1_555 1_555
H19A C22A 1_555 1_555
C23A C22A 1_555 1_555
H20A C23A 1_555 1_555
H21A C23A 1_555 1_555
C24A C23A 1_555 1_555
H22A C24A 1_555 1_555
H23A C24A 1_555 1_555
C25A N3A 1_555 1_555
H24A C25A 1_555 1_555
C26A N3A 1_555 1_555
C27A C26A 1_555 1_555
H25A C27A 1_555 1_555
C28A C27A 1_555 1_555
H26A C28A 1_555 1_555
C29A C28A 1_555 1_555
H27A C29A 1_555 1_555
C30A C29A 1_555 1_555
H28A C30A 1_555 1_555
C31A N4A 1_555 1_555
H29A O5A 1_555 1_555
H30A O5A 1_555 1_555
C2 C3 1_555 1_555
C2 C6 1_555 1_555
C3 C4 1_555 1_555
C4 C5 1_555 1_555
C5 C6 1_555 1_555
C7 C12 1_555 1_555
C8 Fe1A 1_555 1_555
C9 Fe1A 1_555 1_555
C10 C11 1_555 1_555
C10 Fe1A 1_555 1_555
C11 Fe1A 1_555 1_555
C14 C19 1_555 1_555
C18 C19 1_555 1_555
C26 C31 1_555 1_555
C30 C31 1_555 1_555
N4A C25A 1_555 1_555
C1A C2A 1_555 1_555
C2A C3A 1_555 1_555
C2A C6A 1_555 1_555
C3A C4A 1_555 1_555
C4A C5A 1_555 1_555
C5A C6A 1_555 1_555
C7A C8A 1_555 1_555
C7A C11A 1_555 1_555
C7A C12A 1_555 1_555
C8A C9A 1_555 1_555
C9A C10A 1_555 1_555
C10A C11A 1_555 1_555
C14A C19A 1_555 1_555
C18A C19A 1_555 1_555
C26A C31A 1_555 1_555
C30A C31A 1_555 1_555

#END
