
#######################################################################
#
#                 Cambridge Crystallographic Data Centre
#                                CCDC 
#
#######################################################################
#
# If this CIF has been generated from an entry in the Cambridge 
# Structural Database, then it will include bibliographic, chemical, 
# crystal, experimental, refinement or atomic coordinate data resulting 
# from the CCDC's data processing and validation procedures.
#
#######################################################################

data_MIJSEF
_symmetry_cell_setting           triclinic
_symmetry_space_group_name_H-M   'P -1'
_symmetry_Int_Tables_number      2
_space_group_name_Hall           '-P 1'
loop_
_symmetry_equiv_pos_site_id
_symmetry_equiv_pos_as_xyz
1 x,y,z
2 -x,-y,-z
_cell_length_a                   7.235(3)
_cell_length_b                   10.370(5)
_cell_length_c                   11.560(5)
_cell_angle_alpha                99.736(3)
_cell_angle_beta                 100.996(5)
_cell_angle_gamma                95.670(5)
_cell_volume                     831.392
loop_
_atom_site_label
_atom_site_type_symbol
_atom_site_fract_x
_atom_site_fract_y
_atom_site_fract_z
Ag1 Ag 0.20890(17) 0.74513(13) 0.79064(11)
Eu1 Eu 0.24336(8) 0.02590(6) 0.43292(5)
N1 N 0.0080(17) 0.5701(11) 0.6961(11)
N2 N 0.5404(15) 0.1788(11) 1.0658(9)
O1 O -0.0400(11) 0.1262(8) 0.4953(7)
O2 O 0.2167(12) 0.2613(9) 0.5022(9)
O3 O -0.4300(11) 0.1424(8) 0.5119(8)
O4 O -0.4388(14) 0.2631(9) 0.3703(9)
O5 O 0.3079(12) 0.0630(9) 0.6473(7)
O6 O 0.6006(13) 0.0273(10) 0.7267(8)
O7 O -0.0118(12) -0.0746(9) 0.7490(8)
O8 O -0.0320(12) 0.1342(9) 0.7397(8)
C1 C 0.0544(18) 0.2418(12) 0.5217(11)
C2 C -0.0381(16) 0.3516(12) 0.5731(11)
C3 C 0.0802(18) 0.4644(13) 0.6427(12)
H1 H 0.2112 0.4672 0.6528
C4 C -0.1799(19) 0.5657(13) 0.6772(13)
H2 H -0.2294 0.6397 0.7094
C5 C -0.3052(18) 0.4574(12) 0.6123(12)
H3 H -0.4353 0.4576 0.6055
C6 C -0.2368(17) 0.3484(12) 0.5572(12)
C7 C -0.3759(16) 0.2432(12) 0.4716(11)
C8 C 0.4361(18) 0.0591(12) 0.7323(12)
C9 C 0.4058(18) 0.0997(12) 0.8590(11)
C10 C 0.5575(18) 0.1433(14) 0.9513(12)
H4 H 0.6785 0.1488 0.9348
C11 C 0.365(2) 0.1698(13) 1.0882(11)
H5 H 0.3519 0.1926 1.1672
C12 C 0.2048(18) 0.1282(14) 0.9994(11)
H6 H 0.0853 0.1244 1.0184
C13 C 0.2223(18) 0.0919(12) 0.8810(12)
C14 C 0.0454(19) 0.0478(15) 0.7835(11)
Ag1_2 Ag 0.20890(17) -0.25487(13) 0.79064(11)
Ag1A Ag -0.20890(17) 0.25487(13) 0.20936(11)
Ag1A_2 Ag 0.79110(17) 0.25487(13) 1.20936(11)
Eu1_2 Eu -0.75664(8) 0.02590(6) 0.43292(5)
Eu1A Eu -0.24336(8) -0.02590(6) 0.56708(5)
Eu1A_2 Eu 0.75664(8) -0.02590(6) 0.56708(5)
N2A N 0.4596(15) 0.8212(11) 0.9342(9)
O1A O 0.0400(11) -0.1262(8) 0.5047(7)
O3_2 O 0.5700(11) 0.1424(8) 0.5119(8)
O3A O 0.4300(11) -0.1424(8) 0.4881(8)
O4A O 0.4388(14) 0.7369(9) 0.6297(9)
O6A O 0.3994(13) -0.0273(10) 0.2733(8)
O7_2 O -0.0118(12) 0.9254(9) 0.7490(8)
O7A O 0.0118(12) 0.0746(9) 0.2510(8)
O8A O 0.0320(12) -0.1342(9) 0.2603(8)
O9 O 0.067(6) 0.624(3) 0.089(2)
H7 H 0.0817 0.6165 0.1626
H8 H 0.0978 0.7043 0.0874
O10 O 0.342(13) 0.505(4) 0.030(6)
H9 H 0.2398 0.4746 -0.0217
H10 H 0.3113 0.5429 0.0933
loop_
_geom_bond_atom_site_label_1
_geom_bond_atom_site_label_2
_geom_bond_site_symmetry_1
_geom_bond_site_symmetry_2
Ag1 N1 1_555 1_555
Eu1 O1 1_555 1_555
N1 C3 1_555 1_555
N2 C10 1_555 1_555
O1 C1 1_555 1_555
O2 Eu1 1_555 1_555
O3 C7 1_555 1_555
O4 C7 1_555 1_555
O5 Eu1 1_555 1_555
O6 C8 1_555 1_555
O7 C14 1_555 1_555
O8 C14 1_555 1_555
C1 O2 1_555 1_555
C2 C1 1_555 1_555
C3 C2 1_555 1_555
H1 C3 1_555 1_555
C4 N1 1_555 1_555
H2 C4 1_555 1_555
C5 C4 1_555 1_555
H3 C5 1_555 1_555
C6 C2 1_555 1_555
C7 C6 1_555 1_555
C8 O5 1_555 1_555
C9 C8 1_555 1_555
C10 C9 1_555 1_555
H4 C10 1_555 1_555
C11 N2 1_555 1_555
H5 C11 1_555 1_555
C12 C11 1_555 1_555
H6 C12 1_555 1_555
C13 C9 1_555 1_555
C14 C13 1_555 1_555
O9 H7 1_555 1_555
H8 O9 1_555 1_555
O10 H9 1_555 1_555
H10 O10 1_555 1_555
Ag1_2 O7 1_555 1_555
Ag1A O4 1_555 1_555
Ag1A_2 N2 1_555 1_555
Eu1_2 O3 1_555 1_555
Eu1A O1 1_555 1_555
Eu1A_2 O6 1_555 1_555
N2A Ag1 1_555 1_555
O1A Eu1 1_555 1_555
O3_2 Eu1 1_555 1_555
O3A Eu1 1_555 1_555
O4A Ag1 1_555 1_555
O6A Eu1 1_555 1_555
O7_2 Ag1 1_555 1_555
O7A Eu1 1_555 1_555
O8A Eu1 1_555 1_555
O3 Eu1A 1_555 1_555
O7 Eu1A 1_555 1_555
O8 Eu1A 1_555 1_555
C5 C6 1_555 1_555
C12 C13 1_555 1_555
Ag1A O7A 1_555 1_555
Eu1A O1A 1_555 1_555
Eu1A_2 O3_2 1_555 1_555
Eu1A_2 O3A 1_555 1_555

#END
