
#######################################################################
#
#                 Cambridge Crystallographic Data Centre
#                                CCDC 
#
#######################################################################
#
# If this CIF has been generated from an entry in the Cambridge 
# Structural Database, then it will include bibliographic, chemical, 
# crystal, experimental, refinement or atomic coordinate data resulting 
# from the CCDC's data processing and validation procedures.
#
#######################################################################

data_MIJSEE
_symmetry_cell_setting           monoclinic
_symmetry_space_group_name_H-M   'P 21/n'
_symmetry_Int_Tables_number      14
_space_group_name_Hall           '-P 2yn'
loop_
_symmetry_equiv_pos_site_id
_symmetry_equiv_pos_as_xyz
1 x,y,z
2 1/2-x,1/2+y,1/2-z
3 -x,-y,-z
4 1/2+x,1/2-y,1/2+z
_cell_length_a                   14.347(5)
_cell_length_b                   13.994(5)
_cell_length_c                   16.509(6)
_cell_angle_alpha                90
_cell_angle_beta                 98.175(4)
_cell_angle_gamma                90
_cell_volume                     3280.86
loop_
_atom_site_label
_atom_site_type_symbol
_atom_site_fract_x
_atom_site_fract_y
_atom_site_fract_z
Cd1 Cd 0.53171(2) 0.66065(2) 0.58861(2)
Fe1 Fe 0.27732(6) 0.39185(5) 0.68591(5)
O1 O 0.4216(3) 0.6177(3) 0.6967(3)
O2 O 0.3881(3) 0.5857(3) 0.5666(2)
O3 O 0.5209(3) 0.6580(2) 0.4430(3)
O4 O 0.6543(3) 0.7178(3) 0.5017(3)
O5 O 0.5947(3) 0.5047(2) 0.5797(2)
N1 N 0.6493(3) 0.6797(3) 0.6949(3)
N2 N 0.7993(3) 0.6945(3) 0.7532(3)
N3 N 0.9827(3) 0.4776(3) 0.8953(3)
N4 N 1.0062(3) 0.3209(3) 0.9079(3)
C1 C 0.3695(4) 0.5809(3) 0.6399(3)
C2 C 0.2822(4) 0.5307(3) 0.6536(3)
C3 C 0.2444(4) 0.5217(4) 0.7284(4)
H1 H 0.2709 0.5498 0.7811
C4 C 0.1634(5) 0.4651(5) 0.7140(5)
H2 H 0.1243 0.4461 0.7553
C5 C 0.1493(5) 0.4366(6) 0.6315(5)
H3 H 0.0983 0.3955 0.6056
C6 C 0.2218(4) 0.4777(4) 0.5922(4)
H4 H 0.2296 0.4707 0.5344
C7 C 0.5870(5) 0.6554(4) 0.2842(4)
H5 H 0.5299 0.6161 0.2781
C8 C 0.6423(7) 0.6796(5) 0.2206(5)
H6 H 0.6296 0.6576 0.1638
C9 C 0.7143(7) 0.7342(5) 0.2511(5)
H7 H 0.7626 0.7586 0.2201
C10 C 0.7126(6) 0.7503(4) 0.3365(5)
H8 H 0.7574 0.7889 0.3733
C11 C 0.6312(4) 0.7005(4) 0.3580(4)
C12 C 0.6019(4) 0.6914(3) 0.4384(3)
C13 C 0.7373(4) 0.6572(4) 0.6914(4)
H9 H 0.7557 0.6192 0.6502
C14 C 0.6520(4) 0.7367(4) 0.7657(3)
C15 C 0.5817(4) 0.7812(5) 0.7984(4)
H10 H 0.5188 0.7728 0.7767
C16 C 0.6083(5) 0.8400(5) 0.8657(5)
H11 H 0.5621 0.8748 0.8869
C17 C 0.7001(6) 0.8486(6) 0.9020(5)
H12 H 0.7139 0.8863 0.9486
C18 C 0.7727(5) 0.8023(5) 0.8707(4)
H13 H 0.8351 0.8081 0.8947
C19 C 0.7467(3) 0.7468(4) 0.8019(3)
C20 C 0.9037(4) 0.6922(4) 0.7600(4)
H14 H 0.9299 0.7388 0.8005
H15 H 0.9221 0.7106 0.7079
C21 C 0.9446(4) 0.5953(4) 0.7839(3)
H16 H 1.0108 0.5950 0.7776
H17 H 0.9132 0.5476 0.7471
C22 C 0.9347(4) 0.5677(4) 0.8724(3)
H18 H 0.9614 0.6178 0.9092
H19 H 0.8686 0.5617 0.8778
C23 C 0.9446(4) 0.3893(4) 0.8895(3)
H20 H 0.8807 0.3781 0.8740
C24 C 1.0783(4) 0.4652(3) 0.9191(3)
C25 C 1.1516(4) 0.5309(4) 0.9366(4)
H21 H 1.1424 0.5965 0.9318
C26 C 1.2411(5) 0.4898(5) 0.9622(4)
H22 H 1.2928 0.5299 0.9745
C27 C 1.2544(4) 0.3933(5) 0.9696(4)
H23 H 1.3143 0.3701 0.9883
C28 C 1.1818(4) 0.3294(4) 0.9502(4)
H24 H 1.1921 0.2638 0.9531
C29 C 1.0927(4) 0.3668(4) 0.9262(3)
H25 H 0.6201 0.4925 0.5369
H26 H 0.5654 0.4589 0.5983
Cd1A Cd 0.96829(2) 1.16065(2) 0.91139(2)
Cd1A_2 Cd 0.96829(2) 0.16065(2) 0.91139(2)
Cd1B Cd 0.46829(2) 0.33935(2) 0.41139(2)
Fe1B Fe 0.72268(6) 0.60815(5) 0.31409(5)
O1B O 0.5784(3) 0.3823(3) 0.3033(3)
O2B O 0.6119(3) 0.4143(3) 0.4334(2)
O3B O 0.4791(3) 0.3420(2) 0.5570(3)
O4B O 0.3457(3) 0.2822(3) 0.4983(3)
O5B O 0.4053(3) 0.4953(2) 0.4203(2)
N1A N 0.8507(3) 1.1797(3) 0.8051(3)
N1B N 0.3507(3) 0.3203(3) 0.3051(3)
N2A N 0.7007(3) 1.1945(3) 0.7468(3)
N3A N 0.5173(3) 0.9776(3) 0.6047(3)
N4A N 0.4938(3) 0.8209(3) 0.5921(3)
N4C N 0.5062(3) 0.1791(3) 0.4079(3)
C1B C 0.6305(4) 0.4191(3) 0.3601(3)
C2B C 0.7178(4) 0.4693(3) 0.3464(3)
C3B C 0.7556(4) 0.4783(4) 0.2716(4)
H1B H 0.7291 0.4502 0.2189
C4B C 0.8366(5) 0.5349(5) 0.2860(5)
H2B H 0.8757 0.5539 0.2447
C5B C 0.8507(5) 0.5634(6) 0.3685(5)
H3B H 0.9017 0.6045 0.3944
C6B C 0.7782(4) 0.5223(4) 0.4078(4)
H4B H 0.7704 0.5293 0.4656
C7B C 0.4130(5) 0.3446(4) 0.7158(4)
H5B H 0.4701 0.3839 0.7219
C8B C 0.3577(7) 0.3204(5) 0.7794(5)
H6B H 0.3704 0.3424 0.8362
C9B C 0.2857(7) 0.2658(5) 0.7489(5)
H7B H 0.2374 0.2414 0.7799
C10B C 0.2874(6) 0.2497(4) 0.6635(5)
H8B H 0.2426 0.2111 0.6267
C11B C 0.3688(4) 0.2995(4) 0.6420(4)
C12B C 0.3981(4) 0.3086(3) 0.5616(3)
C13A C 0.7627(4) 1.1572(4) 0.8086(4)
H9A H 0.7443 1.1192 0.8498
C14A C 0.8480(4) 1.2367(4) 0.7343(3)
C15A C 0.9183(4) 1.2812(5) 0.7016(4)
H10A H 0.9812 1.2728 0.7233
C16A C 0.8917(5) 1.3400(5) 0.6343(5)
H11A H 0.9379 1.3748 0.6131
C17A C 0.7999(6) 1.3486(6) 0.5980(5)
H12A H 0.7861 1.3863 0.5514
C18A C 0.7273(5) 1.3023(5) 0.6293(4)
H13A H 0.6649 1.3081 0.6053
C19A C 0.7533(3) 1.2468(4) 0.6981(3)
C20A C 0.5963(4) 1.1922(4) 0.7400(4)
H14A H 0.5701 1.2388 0.6995
H15A H 0.5779 1.2106 0.7921
C21A C 0.5554(4) 1.0953(4) 0.7161(3)
H16A H 0.4892 1.0950 0.7224
H17A H 0.5868 1.0476 0.7529
C22A C 0.5653(4) 1.0677(4) 0.6276(3)
H18A H 0.5386 1.1178 0.5908
H19A H 0.6314 1.0617 0.6222
C23A C 0.5554(4) 0.8893(4) 0.6105(3)
H20A H 0.6193 0.8781 0.6260
C24A C 0.4217(4) 0.9652(3) 0.5809(3)
C25A C 0.3484(4) 1.0309(4) 0.5634(4)
H21A H 0.3576 1.0965 0.5682
C26A C 0.2589(5) 0.9898(5) 0.5378(4)
H22A H 0.2072 1.0299 0.5255
C27A C 0.2456(4) 0.8933(5) 0.5304(4)
H23A H 0.1857 0.8701 0.5117
C28A C 0.3182(4) 0.8294(4) 0.5498(4)
H24A H 0.3079 0.7638 0.5469
C29A C 0.4073(4) 0.8668(4) 0.5738(3)
H25B H 0.3799 0.5075 0.4631
H26B H 0.4346 0.5411 0.4017
O6 O 0.8408(7) 0.9449(7) 0.6755(8)
H27 H 0.8559 1.0009 0.6892
H28 H 0.7898 0.9285 0.6890
O7 O 0.4903(7) 0.5434(8) 0.8584(7)
H29 H 0.5376 0.5438 0.8323
H30 H 0.4842 0.5894 0.8924
O8 O 0.1640(6) 0.2303(6) 0.4565(5)
H31 H 0.1711 0.1953 0.4177
H32 H 0.1200 0.2772 0.4520
loop_
_geom_bond_atom_site_label_1
_geom_bond_atom_site_label_2
_geom_bond_site_symmetry_1
_geom_bond_site_symmetry_2
Cd1 O1 1_555 1_555
Fe1 C2 1_555 1_555
O1 C1 1_555 1_555
O2 Cd1 1_555 1_555
O3 Cd1 1_555 1_555
O4 Cd1 1_555 1_555
O5 Cd1 1_555 1_555
O6 H27 1_555 1_555
O7 H29 1_555 1_555
O8 H31 1_555 1_555
N1 Cd1 1_555 1_555
N2 C13 1_555 1_555
N3 C22 1_555 1_555
N4 C23 1_555 1_555
C1 O2 1_555 1_555
C2 C1 1_555 1_555
C3 Fe1 1_555 1_555
H1 C3 1_555 1_555
C4 Fe1 1_555 1_555
H2 C4 1_555 1_555
C5 Fe1 1_555 1_555
H3 C5 1_555 1_555
C6 Fe1 1_555 1_555
H4 C6 1_555 1_555
C7 H5 1_555 1_555
C8 C7 1_555 1_555
H6 C8 1_555 1_555
C9 C8 1_555 1_555
H7 C9 1_555 1_555
C10 C9 1_555 1_555
H8 C10 1_555 1_555
C11 C7 1_555 1_555
C12 O3 1_555 1_555
C13 N1 1_555 1_555
H9 C13 1_555 1_555
C14 N1 1_555 1_555
C15 C14 1_555 1_555
H10 C15 1_555 1_555
C16 C15 1_555 1_555
H11 C16 1_555 1_555
C17 C16 1_555 1_555
H12 C17 1_555 1_555
C18 C17 1_555 1_555
H13 C18 1_555 1_555
C19 N2 1_555 1_555
C20 N2 1_555 1_555
H14 C20 1_555 1_555
H15 C20 1_555 1_555
C21 C20 1_555 1_555
H16 C21 1_555 1_555
H17 C21 1_555 1_555
C22 C21 1_555 1_555
H18 C22 1_555 1_555
H19 C22 1_555 1_555
C23 N3 1_555 1_555
H20 C23 1_555 1_555
C24 N3 1_555 1_555
C25 C24 1_555 1_555
H21 C25 1_555 1_555
C26 C25 1_555 1_555
H22 C26 1_555 1_555
C27 C26 1_555 1_555
H23 C27 1_555 1_555
C28 C27 1_555 1_555
H24 C28 1_555 1_555
C29 N4 1_555 1_555
H25 O5 1_555 1_555
H26 O5 1_555 1_555
H28 O6 1_555 1_555
H30 O7 1_555 1_555
H32 O8 1_555 1_555
Cd1A N1A 1_555 1_555
Cd1A_2 N4 1_555 1_555
Cd1B O1B 1_555 1_555
Fe1B C7 1_555 1_555
O1B C1B 1_555 1_555
O2B Cd1B 1_555 1_555
O3B Cd1B 1_555 1_555
O4B Cd1B 1_555 1_555
O5B Cd1B 1_555 1_555
N1A C13A 1_555 1_555
N1B Cd1B 1_555 1_555
N2A C13A 1_555 1_555
N3A C22A 1_555 1_555
N4A Cd1 1_555 1_555
N4C Cd1B 1_555 1_555
C1B O2B 1_555 1_555
C2B Fe1B 1_555 1_555
C3B Fe1B 1_555 1_555
H1B C3B 1_555 1_555
C4B Fe1B 1_555 1_555
H2B C4B 1_555 1_555
C5B Fe1B 1_555 1_555
H3B C5B 1_555 1_555
C6B Fe1B 1_555 1_555
H4B C6B 1_555 1_555
C7B Fe1 1_555 1_555
H5B C7B 1_555 1_555
C8B Fe1 1_555 1_555
H6B C8B 1_555 1_555
C9B Fe1 1_555 1_555
H7B C9B 1_555 1_555
C10B Fe1 1_555 1_555
H8B C10B 1_555 1_555
C11B Fe1 1_555 1_555
C12B O3B 1_555 1_555
C13A H9A 1_555 1_555
C14A N1A 1_555 1_555
C15A C14A 1_555 1_555
H10A C15A 1_555 1_555
C16A C15A 1_555 1_555
H11A C16A 1_555 1_555
C17A C16A 1_555 1_555
H12A C17A 1_555 1_555
C18A C17A 1_555 1_555
H13A C18A 1_555 1_555
C19A N2A 1_555 1_555
C20A N2A 1_555 1_555
H14A C20A 1_555 1_555
H15A C20A 1_555 1_555
C21A C20A 1_555 1_555
H16A C21A 1_555 1_555
H17A C21A 1_555 1_555
C22A C21A 1_555 1_555
H18A C22A 1_555 1_555
H19A C22A 1_555 1_555
C23A N3A 1_555 1_555
H20A C23A 1_555 1_555
C24A N3A 1_555 1_555
C25A C24A 1_555 1_555
H21A C25A 1_555 1_555
C26A C25A 1_555 1_555
H22A C26A 1_555 1_555
C27A C26A 1_555 1_555
H23A C27A 1_555 1_555
C28A C27A 1_555 1_555
H24A C28A 1_555 1_555
C29A N4A 1_555 1_555
H25B O5B 1_555 1_555
H26B O5B 1_555 1_555
O4 C12 1_555 1_555
C2 C3 1_555 1_555
C2 C6 1_555 1_555
C3 C4 1_555 1_555
C4 C5 1_555 1_555
C5 C6 1_555 1_555
C8 Fe1B 1_555 1_555
C9 Fe1B 1_555 1_555
C10 C11 1_555 1_555
C10 Fe1B 1_555 1_555
C11 C12 1_555 1_555
C11 Fe1B 1_555 1_555
C14 C19 1_555 1_555
C18 C19 1_555 1_555
C24 C29 1_555 1_555
C28 C29 1_555 1_555
O4B C12B 1_555 1_555
N4A C23A 1_555 1_555
C1B C2B 1_555 1_555
C2B C3B 1_555 1_555
C2B C6B 1_555 1_555
C3B C4B 1_555 1_555
C4B C5B 1_555 1_555
C5B C6B 1_555 1_555
C7B C8B 1_555 1_555
C7B C11B 1_555 1_555
C8B C9B 1_555 1_555
C9B C10B 1_555 1_555
C10B C11B 1_555 1_555
C11B C12B 1_555 1_555
C14A C19A 1_555 1_555
C18A C19A 1_555 1_555
C24A C29A 1_555 1_555
C28A C29A 1_555 1_555

#END
