
#######################################################################
#
#                 Cambridge Crystallographic Data Centre
#                                CCDC 
#
#######################################################################
#
# If this CIF has been generated from an entry in the Cambridge 
# Structural Database, then it will include bibliographic, chemical, 
# crystal, experimental, refinement or atomic coordinate data resulting 
# from the CCDC's data processing and validation procedures.
#
#######################################################################

data_MIJXUY
_symmetry_cell_setting           monoclinic
_symmetry_space_group_name_H-M   'A a'
_symmetry_Int_Tables_number      9
_space_group_name_Hall           'A -2ya'
loop_
_symmetry_equiv_pos_site_id
_symmetry_equiv_pos_as_xyz
1 x,y,z
2 1/2+x,-y,z
3 x,1/2+y,1/2+z
4 1/2+x,1/2-y,1/2+z
_cell_length_a                   15.520(4)
_cell_length_b                   19.010(5)
_cell_length_c                   11.715(4)
_cell_angle_alpha                90
_cell_angle_beta                 108.73(2)
_cell_angle_gamma                90
_cell_volume                     3273.3
loop_
_atom_site_label
_atom_site_type_symbol
_atom_site_fract_x
_atom_site_fract_y
_atom_site_fract_z
Au1 Au 0.24900 -0.12472(8) 0.88900
Au2 Au -0.06372(9) 0.12724(8) 0.8482(1)
Cl1 Cl 0.326(1) -0.2042(8) 1.037(2)
S1 S -0.136(1) 0.2032(7) 0.704(1)
P1 P 0.170(1) -0.0408(6) 0.758(1)
P2 P 0.014(1) 0.0490(6) 0.981(1)
C1 C 0.095(2) 0.007(1) 0.797(3)
C2 C 0.094(2) -0.002(1) 0.913(3)
C3 C -0.089(4) 0.170(3) 0.586(5)
C4 C -0.156(3) 0.154(2) 0.479(4)
C5 C -0.128(4) 0.158(3) 0.368(6)
C6 C -0.020(3) 0.160(2) 0.392(3)
C7 C 0.039(4) 0.171(3) 0.514(5)
C8 C 0.010(4) 0.179(3) 0.596(5)
C9 C 0.110(4) -0.089(3) 0.620(5)
C10 C 0.061(5) -0.029(3) 0.526(6)
C11 C -0.006(5) -0.054(3) 0.404(6)
C12 C -0.027(3) -0.124(2) 0.393(4)
C13 C 0.005(3) -0.166(2) 0.477(4)
C14 C 0.084(5) -0.146(4) 0.610(6)
C15 C 0.237(3) 0.016(2) 0.696(3)
C16 C 0.293(3) -0.007(2) 0.645(4)
C17 C 0.354(3) 0.046(2) 0.632(3)
C18 C 0.359(4) 0.124(2) 0.652(5)
C19 C 0.295(6) 0.145(4) 0.742(6)
C20 C 0.228(4) 0.092(2) 0.757(4)
C21 C 0.091(2) 0.075(1) 1.128(2)
C22 C 0.126(3) 0.152(2) 1.132(3)
C23 C 0.180(3) 0.184(2) 1.227(4)
C24 C 0.193(4) 0.145(3) 1.324(5)
C25 C 0.179(5) 0.065(3) 1.326(5)
C26 C 0.127(4) 0.038(2) 1.234(4)
C27 C -0.056(2) -0.025(1) 1.009(2)
C28 C -0.057(4) -0.092(3) 1.004(4)
C29 C -0.100(4) -0.139(3) 1.038(5)
C30 C -0.162(3) -0.122(2) 1.056(4)
C31 C -0.170(3) -0.065(3) 1.112(4)
C32 C -0.120(2) -0.010(2) 1.071(3)
Au2A Au 0.43628(9) -0.12724(8) 0.8482(1)
Au1A Au -0.25100 0.12472(8) 0.88900
loop_
_geom_bond_atom_site_label_1
_geom_bond_atom_site_label_2
_geom_bond_site_symmetry_1
_geom_bond_site_symmetry_2
Au1 Cl1 1_555 1_555
Au2 S1 1_555 1_555
S1 C3 1_555 1_555
P1 Au1 1_555 1_555
P2 Au2 1_555 1_555
C1 P1 1_555 1_555
C2 P2 1_555 1_555
C3 C4 1_555 1_555
C4 C5 1_555 1_555
C5 C6 1_555 1_555
C6 C7 1_555 1_555
C7 C8 1_555 1_555
C8 C3 1_555 1_555
C9 P1 1_555 1_555
C10 C9 1_555 1_555
C11 C10 1_555 1_555
C12 C11 1_555 1_555
C13 C12 1_555 1_555
C14 C9 1_555 1_555
C15 P1 1_555 1_555
C16 C15 1_555 1_555
C17 C16 1_555 1_555
C18 C17 1_555 1_555
C19 C18 1_555 1_555
C20 C15 1_555 1_555
C21 P2 1_555 1_555
C22 C21 1_555 1_555
C23 C22 1_555 1_555
C24 C23 1_555 1_555
C25 C24 1_555 1_555
C26 C21 1_555 1_555
C27 P2 1_555 1_555
C28 C27 1_555 1_555
C29 C28 1_555 1_555
C30 C29 1_555 1_555
C31 C30 1_555 1_555
C32 C27 1_555 1_555
Au2A Au1 1_555 1_555
Au1A Au2 1_555 1_555
C1 C2 1_555 1_555
C13 C14 1_555 1_555
C19 C20 1_555 1_555
C25 C26 1_555 1_555
C31 C32 1_555 1_555

#END
