
#######################################################################
#
#                 Cambridge Crystallographic Data Centre
#                                CCDC 
#
#######################################################################
#
# If this CIF has been generated from an entry in the Cambridge 
# Structural Database, then it will include bibliographic, chemical, 
# crystal, experimental, refinement or atomic coordinate data resulting 
# from the CCDC's data processing and validation procedures.
#
#######################################################################

data_MIJXUZ
_symmetry_cell_setting           triclinic
_symmetry_space_group_name_H-M   'P -1'
_symmetry_Int_Tables_number      2
_space_group_name_Hall           '-P 1'
loop_
_symmetry_equiv_pos_site_id
_symmetry_equiv_pos_as_xyz
1 x,y,z
2 -x,-y,-z
_cell_length_a                   12.415(4)
_cell_length_b                   20.624(6)
_cell_length_c                   22.114(7)
_cell_angle_alpha                92.201(9)
_cell_angle_beta                 105.575(8)
_cell_angle_gamma                95.105(9)
_cell_volume                     5421.21
loop_
_atom_site_label
_atom_site_type_symbol
_atom_site_fract_x
_atom_site_fract_y
_atom_site_fract_z
Ag1 Ag 0.35955(7) 0.42246(4) 1.03022(4)
Ag2 Ag 0.63235(7) 0.62707(4) 1.37312(4)
Ag3 Ag 0.37538(10) 0.96077(4) 1.56662(5)
C1 C 0.5192(8) 0.5305(5) 1.1565(5)
C2 C 0.5314(8) 0.5671(5) 1.1072(5)
H1 H 0.4841 0.5559 1.0660
C3 C 0.6153(8) 0.6221(5) 1.1182(5)
C4 C 0.6812(8) 0.6375(5) 1.1780(5)
H2 H 0.7342 0.6751 1.1861
C5 C 0.6729(9) 0.5994(5) 1.2275(5)
C6 C 0.5898(9) 0.5465(5) 1.2156(5)
H3 H 0.5820 0.5209 1.2493
C7 C 0.4879(9) 0.8326(5) 1.5020(5)
C8 C 0.4599(9) 0.7722(5) 1.4681(5)
H4 H 0.4133 0.7392 1.4805
C9 C 0.4996(9) 0.7605(5) 1.4167(5)
C10 C 0.5673(8) 0.8084(5) 1.3987(6)
H5 H 0.5968 0.7993 1.3642
C11 C 0.5928(9) 0.8695(5) 1.4300(5)
C12 C 0.5527(10) 0.8821(5) 1.4817(5)
H6 H 0.5689 0.9241 1.5032
P1 P 0.4171(2) 0.45931(13) 1.13891(14)
C13 C 0.4936(9) 0.3964(5) 1.1816(5)
C14 C 0.4376(10) 0.3441(6) 1.2031(6)
H7 H 0.3603 0.3446 1.2012
C15 C 0.4931(13) 0.2916(6) 1.2270(6)
H8 H 0.4553 0.2574 1.2434
C16 C 0.6002(14) 0.2890(6) 1.2269(6)
H9 H 0.6377 0.2523 1.2422
C17 C 0.6570(11) 0.3396(6) 1.2045(6)
H10 H 0.7330 0.3371 1.2043
C18 C 0.6046(9) 0.3930(5) 1.1828(5)
H11 H 0.6447 0.4279 1.1685
C19 C 0.3061(10) 0.4787(5) 1.1745(6)
C20 C 0.2070(10) 0.4916(6) 1.1369(7)
H12 H 0.1920 0.4866 1.0924
C21 C 0.1238(12) 0.5133(7) 1.1654(9)
H13 H 0.0550 0.5254 1.1397
C22 C 0.1431(14) 0.5165(7) 1.2273(10)
H14 H 0.0859 0.5294 1.2449
C23 C 0.2403(13) 0.5021(7) 1.2664(7)
H15 H 0.2513 0.5049 1.3107
C24 C 0.3257(11) 0.4828(6) 1.2402(6)
H16 H 0.3953 0.4727 1.2667
P2 P 0.6361(2) 0.66008(13) 1.04869(13)
C25 C 0.7689(9) 0.7108(5) 1.0771(5)
C26 C 0.8675(10) 0.6809(6) 1.0817(6)
H17 H 0.8639 0.6357 1.0704
C27 C 0.9718(12) 0.7187(8) 1.1033(7)
H18 H 1.0392 0.6982 1.1093
C28 C 0.9774(12) 0.7824(7) 1.1154(7)
H19 H 1.0486 0.8075 1.1274
C29 C 0.8824(14) 0.8125(7) 1.1109(7)
H20 H 0.8886 0.8579 1.1220
C30 C 0.7762(11) 0.7777(6) 1.0903(6)
H21 H 0.7102 0.7992 1.0853
C31 C 0.5297(9) 0.7160(5) 1.0261(5)
C32 C 0.4928(11) 0.7291(6) 0.9635(6)
H22 H 0.5207 0.7076 0.9330
C33 C 0.4155(13) 0.7734(8) 0.9454(7)
H23 H 0.3893 0.7817 0.9022
C34 C 0.3760(12) 0.8056(7) 0.9888(7)
H24 H 0.3251 0.8375 0.9764
C35 C 0.4100(12) 0.7914(6) 1.0486(7)
H25 H 0.3806 0.8129 1.0784
C36 C 0.4838(10) 0.7481(6) 1.0687(6)
H26 H 0.5049 0.7391 1.1119
P3 P 0.7592(2) 0.61529(13) 1.30883(13)
C37 C 0.8677(8) 0.6799(5) 1.3058(5)
C38 C 0.9448(9) 0.6707(6) 1.2723(5)
H27 H 0.9411 0.6302 1.2496
C39 C 1.0291(10) 0.7210(7) 1.2716(7)
H28 H 1.0782 0.7165 1.2457
C40 C 1.0380(12) 0.7765(7) 1.3093(8)
H29 H 1.0996 0.8087 1.3134
C41 C 0.9620(16) 0.7860(7) 1.3404(10)
H30 H 0.9673 0.8265 1.3635
C42 C 0.8752(11) 0.7383(6) 1.3399(8)
H31 H 0.8220 0.7458 1.3626
C43 C 0.8316(8) 0.5428(5) 1.3233(5)
C44 C 0.8683(8) 0.5256(5) 1.3843(5)
H32 H 0.8535 0.5510 1.4174
C45 C 0.9277(9) 0.4704(5) 1.3980(6)
H33 H 0.9526 0.4584 1.4402
C46 C 0.9487(9) 0.4351(5) 1.3513(6)
H34 H 0.9891 0.3981 1.3608
C47 C 0.9132(9) 0.4512(5) 1.2899(6)
H35 H 0.9300 0.4255 1.2577
C48 C 0.8530(9) 0.5046(5) 1.2747(6)
H36 H 0.8267 0.5152 1.2321
P4 P 0.4329(3) 0.85324(14) 1.56818(16)
C49 C 0.3182(11) 0.7894(5) 1.5617(6)
C50 C 0.3178(15) 0.7481(7) 1.6100(7)
H37 H 0.3797 0.7514 1.6466
C51 C 0.2267(15) 0.7024(8) 1.6044(7)
H38 H 0.2257 0.6751 1.6379
C52 C 0.1389(13) 0.6958(6) 1.5521(8)
H39 H 0.0770 0.6642 1.5494
C53 C 0.1384(11) 0.7352(6) 1.5014(7)
H40 H 0.0786 0.7296 1.4638
C54 C 0.2292(10) 0.7832(6) 1.5085(6)
H41 H 0.2290 0.8119 1.4759
C55 C 0.5477(17) 0.8404(8) 1.6366(7)
C56 C 0.567(2) 0.8784(8) 1.6900(9)
H42 H 0.5199 0.9114 1.6926
C57 C 0.656(3) 0.8699(10) 1.7409(9)
H43 H 0.6704 0.8976 1.7782
C58 C 0.725(2) 0.8202(16) 1.7377(12)
H44 H 0.7861 0.8140 1.7726
C59 C 0.7044(17) 0.7844(19) 1.6886(11)
H45 H 0.7539 0.7520 1.6878
C60 C 0.6173(14) 0.7871(12) 1.6355(8)
H46 H 0.6033 0.7564 1.6004
P5 P 0.4666(2) 0.68212(13) 1.36971(14)
C61 C 0.3928(8) 0.7051(5) 1.2920(5)
C62 C 0.3870(10) 0.6621(6) 1.2410(6)
H47 H 0.4211 0.6226 1.2477
C63 C 0.3323(11) 0.6763(8) 1.1810(7)
H48 H 0.3281 0.6463 1.1465
C64 C 0.2834(10) 0.7337(8) 1.1706(6)
H49 H 0.2462 0.7432 1.1289
C65 C 0.2878(10) 0.7763(7) 1.2187(7)
H50 H 0.2536 0.8156 1.2106
C66 C 0.3428(9) 0.7636(6) 1.2814(6)
H51 H 0.3457 0.7939 1.3154
C67 C 0.3615(9) 0.6349(5) 1.3986(5)
C68 C 0.2489(9) 0.6449(6) 1.3796(6)
H52 H 0.2252 0.6789 1.3528
C69 C 0.1722(10) 0.6062(7) 1.3996(6)
H53 H 0.0951 0.6134 1.3864
C70 C 0.2048(10) 0.5565(7) 1.4386(6)
H54 H 0.1506 0.5300 1.4524
C71 C 0.3177(11) 0.5456(6) 1.4576(6)
H55 H 0.3419 0.5112 1.4836
C72 C 0.3943(10) 0.5866(6) 1.4372(6)
H56 H 0.4719 0.5807 1.4508
P6 P 0.6749(3) 0.93487(15) 1.40439(18)
C73 C 0.8197(14) 0.9190(9) 1.4373(12)
C74 C 0.8512(14) 0.8724(10) 1.4765(11)
H57 H 0.7958 0.8442 1.4877
C75 C 0.9659(17) 0.8643(13) 1.5014(14)
H58 H 0.9873 0.8314 1.5298
C76 C 1.045(3) 0.9030(16) 1.485(3)
H59 H 1.1221 0.8961 1.5007
C77 C 1.019(2) 0.9458(16) 1.452(2)
H60 H 1.0792 0.9746 1.4456
C78 C 0.8995(16) 0.9595(10) 1.4164(15)
H61 H 0.8816 0.9903 1.3853
C79 C 0.6457(16) 0.9163(7) 1.3216(8)
C80 C 0.7209(17) 0.8845(8) 1.2956(9)
H62 H 0.7886 0.8721 1.3223
C81 C 0.697(3) 0.8723(15) 1.2348(14)
H63 H 0.7498 0.8527 1.2179
C82 C 0.602(3) 0.8859(12) 1.1958(13)
H64 H 0.5914 0.8774 1.1519
C83 C 0.511(3) 0.9140(12) 1.2169(12)
H65 H 0.4403 0.9210 1.1895
C84 C 0.543(2) 0.9299(9) 1.2855(8)
H66 H 0.4928 0.9495 1.3045
N1 N 0.5793(9) 0.5079(5) 1.3730(5)
C85 C 0.5568(13) 0.4576(8) 1.3799(7)
C86 C 0.510(2) 0.3857(12) 1.3905(12)
H67 H 0.5686 0.3652 1.4201
H68 H 0.4862 0.3597 1.3502
H69 H 0.4450 0.3879 1.4077
O1 O 0.6778(9) 0.6188(5) 1.4869(5)
O2 O 0.7619(11) 0.6304(6) 1.6006(5)
O3 O 0.8674(10) 0.6039(6) 1.5239(6)
S1 S 0.7758(3) 0.6420(2) 1.5319(2)
C87 C 0.8162(19) 0.7201(9) 1.5297(10)
F1 F 0.9060(15) 0.7369(9) 1.5772(8)
F2 F 0.8371(12) 0.7269(7) 1.4724(7)
F3 F 0.7306(13) 0.7527(7) 1.5299(7)
O4 O 0.1924(7) 0.4792(4) 0.9720(4)
O5 O 0.1833(7) 0.5270(4) 0.8721(4)
O6 O 0.3562(7) 0.5397(4) 0.9586(4)
S2 S 0.2360(3) 0.52960(15) 0.93952(15)
C88 C 0.1948(12) 0.6020(7) 0.9691(7)
F4 F 0.2183(8) 0.6529(5) 0.9402(5)
F5 F 0.0819(8) 0.5969(4) 0.9617(4)
F6 F 0.2412(8) 0.6138(5) 1.0299(4)
O7 O 0.2778(12) 0.9643(7) 1.4493(7)
O8 O 0.4058(11) 0.9853(6) 1.3909(6)
O9 O 0.2928(11) 0.8813(6) 1.3729(6)
S3 S 0.3037(3) 0.95015(17) 1.3921(2)
C89 C 0.210(2) 0.9815(14) 1.3251(14)
F7 F 0.1865(15) 1.0410(9) 1.3429(8)
F8 F 0.2214(17) 0.9767(10) 1.2759(10)
F9 F 0.0975(12) 0.9494(7) 1.3273(6)
Ag1A Ag 0.64045(7) 0.57754(4) 0.96978(4)
Ag3A Ag 0.62462(10) 1.03923(4) 1.43338(5)
P2A P 0.3639(2) 0.33992(13) 0.95131(13)
P6A P 0.3251(3) 1.06513(15) 1.59561(18)
C90 C 0.068(2) 0.3209(12) 0.1801(12)
H70 H 0.0209 0.2825 0.1866
H71 H 0.0266 0.3594 0.1781
H72 H 0.1367 0.3278 0.2150
C91 C 0.099(2) 0.3097(12) 0.1178(11)
H73 H 0.0313 0.2995 0.0820
H74 H 0.1443 0.3486 0.1090
O10 O 0.1636(11) 0.2558(6) 0.1282(6)
C92 C 0.2016(18) 0.2405(10) 0.0760(9)
H75 H 0.2508 0.2781 0.0686
H76 H 0.1365 0.2321 0.0383
C93 C 0.2644(18) 0.1827(10) 0.0851(10)
H77 H 0.3203 0.1877 0.1262
H78 H 0.3025 0.1783 0.0519
H79 H 0.2122 0.1436 0.0832
C94 C 0.943(5) 0.200(3) 0.302(2)
H80 H 1.0170 0.1863 0.3044
H81 H 0.9507 0.2380 0.3320
H82 H 0.9078 0.2123 0.2595
C95 C 0.875(4) 0.149(2) 0.317(2)
H83 H 0.8524 0.1593 0.3559
H84 H 0.9110 0.1076 0.3213
O11 O 0.776(3) 0.1471(14) 0.2570(14)
C96 C 0.686(4) 0.092(2) 0.259(2)
H85 H 0.7184 0.0495 0.2663
H86 H 0.6476 0.1013 0.2916
C97 C 0.608(3) 0.0918(19) 0.1933(19)
H87 H 0.5893 0.1363 0.1848
H88 H 0.5388 0.0633 0.1901
H89 H 0.6451 0.0760 0.1626
O12 O 0.817(3) 0.0373(16) 1.8648(15)
O13 O 0.181(4) 0.902(2) 1.0680(19)
O14 O 0.395(7) 0.033(4) 0.993(4)
loop_
_geom_bond_atom_site_label_1
_geom_bond_atom_site_label_2
_geom_bond_site_symmetry_1
_geom_bond_site_symmetry_2
Ag1 P1 1_555 1_555
Ag2 P3 1_555 1_555
Ag3 P4 1_555 1_555
C1 C2 1_555 1_555
C2 H1 1_555 1_555
C3 C2 1_555 1_555
C4 C3 1_555 1_555
H2 C4 1_555 1_555
C5 C4 1_555 1_555
C6 C1 1_555 1_555
H3 C6 1_555 1_555
C7 C8 1_555 1_555
C8 H4 1_555 1_555
C9 C8 1_555 1_555
C10 C9 1_555 1_555
H5 C10 1_555 1_555
C11 C10 1_555 1_555
C12 C7 1_555 1_555
H6 C12 1_555 1_555
P1 C1 1_555 1_555
C13 P1 1_555 1_555
C14 C13 1_555 1_555
H7 C14 1_555 1_555
C15 C14 1_555 1_555
H8 C15 1_555 1_555
C16 C15 1_555 1_555
H9 C16 1_555 1_555
C17 C16 1_555 1_555
H10 C17 1_555 1_555
C18 C13 1_555 1_555
H11 C18 1_555 1_555
C19 P1 1_555 1_555
C20 C19 1_555 1_555
H12 C20 1_555 1_555
C21 C20 1_555 1_555
H13 C21 1_555 1_555
C22 C21 1_555 1_555
H14 C22 1_555 1_555
C23 C22 1_555 1_555
H15 C23 1_555 1_555
C24 C19 1_555 1_555
H16 C24 1_555 1_555
P2 C3 1_555 1_555
C25 P2 1_555 1_555
C26 C25 1_555 1_555
H17 C26 1_555 1_555
C27 C26 1_555 1_555
H18 C27 1_555 1_555
C28 C27 1_555 1_555
H19 C28 1_555 1_555
C29 C28 1_555 1_555
H20 C29 1_555 1_555
C30 C25 1_555 1_555
H21 C30 1_555 1_555
C31 P2 1_555 1_555
C32 C31 1_555 1_555
H22 C32 1_555 1_555
C33 C32 1_555 1_555
H23 C33 1_555 1_555
C34 C33 1_555 1_555
H24 C34 1_555 1_555
C35 C34 1_555 1_555
H25 C35 1_555 1_555
C36 C31 1_555 1_555
H26 C36 1_555 1_555
P3 C5 1_555 1_555
C37 P3 1_555 1_555
C38 C37 1_555 1_555
H27 C38 1_555 1_555
C39 C38 1_555 1_555
H28 C39 1_555 1_555
C40 C39 1_555 1_555
H29 C40 1_555 1_555
C41 C40 1_555 1_555
H30 C41 1_555 1_555
C42 C37 1_555 1_555
H31 C42 1_555 1_555
C43 P3 1_555 1_555
C44 C43 1_555 1_555
H32 C44 1_555 1_555
C45 C44 1_555 1_555
H33 C45 1_555 1_555
C46 C45 1_555 1_555
H34 C46 1_555 1_555
C47 C46 1_555 1_555
H35 C47 1_555 1_555
C48 C43 1_555 1_555
H36 C48 1_555 1_555
P4 C7 1_555 1_555
C49 P4 1_555 1_555
C50 C49 1_555 1_555
H37 C50 1_555 1_555
C51 C50 1_555 1_555
H38 C51 1_555 1_555
C52 C51 1_555 1_555
H39 C52 1_555 1_555
C53 C52 1_555 1_555
H40 C53 1_555 1_555
C54 C49 1_555 1_555
H41 C54 1_555 1_555
C55 P4 1_555 1_555
C56 C55 1_555 1_555
H42 C56 1_555 1_555
C57 C56 1_555 1_555
H43 C57 1_555 1_555
C58 C57 1_555 1_555
H44 C58 1_555 1_555
C59 C58 1_555 1_555
H45 C59 1_555 1_555
C60 C55 1_555 1_555
H46 C60 1_555 1_555
P5 Ag2 1_555 1_555
C61 P5 1_555 1_555
C62 C61 1_555 1_555
H47 C62 1_555 1_555
C63 C62 1_555 1_555
H48 C63 1_555 1_555
C64 C63 1_555 1_555
H49 C64 1_555 1_555
C65 C64 1_555 1_555
H50 C65 1_555 1_555
C66 C61 1_555 1_555
H51 C66 1_555 1_555
C67 P5 1_555 1_555
C68 C67 1_555 1_555
H52 C68 1_555 1_555
C69 C68 1_555 1_555
H53 C69 1_555 1_555
C70 C69 1_555 1_555
H54 C70 1_555 1_555
C71 C70 1_555 1_555
H55 C71 1_555 1_555
C72 C67 1_555 1_555
H56 C72 1_555 1_555
P6 C11 1_555 1_555
C73 P6 1_555 1_555
C74 C73 1_555 1_555
H57 C74 1_555 1_555
C75 C74 1_555 1_555
H58 C75 1_555 1_555
C76 C75 1_555 1_555
H59 C76 1_555 1_555
C77 C76 1_555 1_555
H60 C77 1_555 1_555
C78 C73 1_555 1_555
H61 C78 1_555 1_555
C79 P6 1_555 1_555
C80 C79 1_555 1_555
H62 C80 1_555 1_555
C81 C80 1_555 1_555
H63 C81 1_555 1_555
C82 C81 1_555 1_555
H64 C82 1_555 1_555
C83 C82 1_555 1_555
H65 C83 1_555 1_555
C84 C79 1_555 1_555
H66 C84 1_555 1_555
N1 Ag2 1_555 1_555
C85 N1 1_555 1_555
C86 C85 1_555 1_555
H67 C86 1_555 1_555
H68 C86 1_555 1_555
H69 C86 1_555 1_555
O1 Ag2 1_555 1_555
O2 S1 1_555 1_555
O3 S1 1_555 1_555
S1 O1 1_555 1_555
C87 S1 1_555 1_555
F1 C87 1_555 1_555
F2 C87 1_555 1_555
F3 C87 1_555 1_555
O4 Ag1 1_555 1_555
O5 S2 1_555 1_555
O6 S2 1_555 1_555
S2 O4 1_555 1_555
C88 S2 1_555 1_555
F4 C88 1_555 1_555
F5 C88 1_555 1_555
F6 C88 1_555 1_555
O7 Ag3 1_555 1_555
O8 S3 1_555 1_555
O9 S3 1_555 1_555
S3 O7 1_555 1_555
C89 S3 1_555 1_555
F7 C89 1_555 1_555
F8 C89 1_555 1_555
F9 C89 1_555 1_555
C90 H70 1_555 1_555
H71 C90 1_555 1_555
H72 C90 1_555 1_555
C91 C90 1_555 1_555
H73 C91 1_555 1_555
H74 C91 1_555 1_555
O10 C91 1_555 1_555
C92 O10 1_555 1_555
H75 C92 1_555 1_555
H76 C92 1_555 1_555
C93 C92 1_555 1_555
H77 C93 1_555 1_555
H78 C93 1_555 1_555
H79 C93 1_555 1_555
C94 H80 1_555 1_555
H81 C94 1_555 1_555
H82 C94 1_555 1_555
C95 C94 1_555 1_555
H83 C95 1_555 1_555
H84 C95 1_555 1_555
O11 C95 1_555 1_555
C96 O11 1_555 1_555
H85 C96 1_555 1_555
H86 C96 1_555 1_555
C97 C96 1_555 1_555
H87 C97 1_555 1_555
H88 C97 1_555 1_555
H89 C97 1_555 1_555
Ag1A P2 1_555 1_555
Ag3A P6 1_555 1_555
P2A Ag1 1_555 1_555
P6A Ag3 1_555 1_555
C5 C6 1_555 1_555
C9 P5 1_555 1_555
C11 C12 1_555 1_555
C17 C18 1_555 1_555
C23 C24 1_555 1_555
C29 C30 1_555 1_555
C35 C36 1_555 1_555
C41 C42 1_555 1_555
C47 C48 1_555 1_555
C53 C54 1_555 1_555
C59 C60 1_555 1_555
C65 C66 1_555 1_555
C71 C72 1_555 1_555
C77 C78 1_555 1_555
C83 C84 1_555 1_555

#END
