
#######################################################################
#
#                 Cambridge Crystallographic Data Centre
#                                CCDC 
#
#######################################################################
#
# If this CIF has been generated from an entry in the Cambridge 
# Structural Database, then it will include bibliographic, chemical, 
# crystal, experimental, refinement or atomic coordinate data resulting 
# from the CCDC's data processing and validation procedures.
#
#######################################################################

data_MIJYUZ
_symmetry_cell_setting           monoclinic
_symmetry_space_group_name_H-M   'P 21/a'
_symmetry_Int_Tables_number      14
_space_group_name_Hall           '-P 2yab'
loop_
_symmetry_equiv_pos_site_id
_symmetry_equiv_pos_as_xyz
1 x,y,z
2 1/2-x,1/2+y,-z
3 -x,-y,-z
4 1/2+x,1/2-y,z
_cell_length_a                   9.2020(2)
_cell_length_b                   25.6917(8)
_cell_length_c                   10.6862(3)
_cell_angle_alpha                90
_cell_angle_beta                 94.9635(17)
_cell_angle_gamma                90
_cell_volume                     2516.9
loop_
_atom_site_label
_atom_site_type_symbol
_atom_site_fract_x
_atom_site_fract_y
_atom_site_fract_z
Mn1 Mn 0.5000 1.0000 1.0000
N1 N 0.2791(2) 0.9747(1) 0.8928(2)
N2 N -0.0388(2) 0.8988(1) 1.1272(2)
N3 N 0.4030(2) 1.0644(1) 1.0591(1)
N4 N 0.4403(2) 0.9610(1) 1.1503(1)
C1 C 0.1716(2) 0.9747(1) 0.9416(2)
C2 C 0.0427(2) 0.9769(1) 1.0020(2)
C3 C 0.0000(2) 0.9330(1) 1.0705(2)
C4 C 0.3978(2) 1.1128(1) 1.0022(2)
C5 C 0.3172(2) 1.1482(1) 1.0732(2)
C6 C 0.2747(2) 1.1218(1) 1.1733(2)
C7 C 0.3271(2) 1.0696(1) 1.1650(2)
C8 C 0.3062(2) 1.0307(1) 1.2525(2)
C9 C 0.3582(2) 0.9799(1) 1.2429(2)
C10 C 0.3290(2) 0.9385(1) 1.3272(2)
C11 C 0.3926(2) 0.8949(1) 1.2862(2)
C12 C 0.4623(2) 0.9087(1) 1.1764(2)
C13 C 0.4604(2) 1.1260(1) 0.8926(2)
C14 C 0.4431(2) 1.1810(1) 0.8467(2)
C15 C 0.5248(3) 1.2205(1) 0.9055(3)
C16 C 0.5088(3) 1.2715(1) 0.8635(3)
C17 C 0.4119(3) 1.2835(1) 0.7633(2)
C18 C 0.3305(3) 1.2446(1) 0.7051(3)
C19 C 0.3458(3) 1.1933(1) 0.7463(2)
C20 C 0.2225(2) 1.0438(1) 1.3629(2)
C21 C 0.2900(2) 1.0431(1) 1.4844(2)
C22 C 0.2132(2) 1.0562(1) 1.5860(2)
C23 C 0.0680(3) 1.0703(1) 1.5668(2)
C24 C 0.0000(2) 1.0706(1) 1.4470(2)
C25 C 0.0760(2) 1.0576(1) 1.3450(2)
C2B C -0.0427(2) 1.0231(1) 0.9980(2)
C1B C -0.1716(2) 1.0253(1) 1.0584(2)
N1B N -0.2791(2) 1.0253(1) 1.1072(2)
C3B C 0.0000(2) 1.0670(1) 0.9295(2)
N2B N 0.0388(2) 1.1012(1) 0.8728(2)
C13B C 0.5396(2) 0.8740(1) 1.1074(2)
C4B C 0.6022(2) 0.8872(1) 0.9978(2)
N3B N 0.5970(2) 0.9356(1) 0.9409(1)
C7B C 0.6729(2) 0.9304(1) 0.8350(2)
C6B C 0.7253(2) 0.8782(1) 0.8267(2)
C5B C 0.6828(2) 0.8518(1) 0.9268(2)
C8B C 0.6938(2) 0.9693(1) 0.7475(2)
C9B C 0.6418(2) 1.0201(1) 0.7571(2)
N4B N 0.5597(2) 1.0390(1) 0.8497(1)
C12B C 0.5377(2) 1.0913(1) 0.8236(2)
C11B C 0.6074(2) 1.1051(1) 0.7138(2)
C10B C 0.6710(2) 1.0615(1) 0.6728(2)
C20B C 0.7775(2) 0.9562(1) 0.6371(2)
C21B C 0.7100(2) 0.9569(1) 0.5156(2)
C22B C 0.7868(2) 0.9438(1) 0.4140(2)
C23B C 0.9320(3) 0.9297(1) 0.4332(2)
C24B C 1.0000(2) 0.9294(1) 0.5530(2)
C25B C 0.9240(2) 0.9424(1) 0.6550(2)
C14B C 0.5569(2) 0.8190(1) 1.1533(2)
C15B C 0.4752(3) 0.7795(1) 1.0945(3)
C16B C 0.4912(3) 0.7285(1) 1.1365(3)
C17B C 0.5881(3) 0.7165(1) 1.2367(2)
C18B C 0.6695(3) 0.7554(1) 1.2949(3)
C19B C 0.6542(3) 0.8067(1) 1.2537(2)
N1B_2 N 0.7209(2) 1.0253(1) 1.1072(2)
Mn1_2 Mn -0.5000 1.0000 1.0000
Cl1 Cl 0.5996(1) 1.3018(1) 1.4289(1)
Cl2 Cl 0.8543(1) 1.1677(1) 1.1292(1)
C26 C 0.6228(2) 1.2386(1) 1.3751(2)
C27 C 0.5462(3) 1.1984(1) 1.4244(2)
C28 C 0.5646(3) 1.1484(1) 1.3802(2)
C29 C 0.6587(3) 1.1384(1) 1.2896(2)
C30 C 0.7343(3) 1.1795(1) 1.2431(2)
C31 C 0.7179(3) 1.2300(1) 1.2848(2)
loop_
_geom_bond_atom_site_label_1
_geom_bond_atom_site_label_2
_geom_bond_site_symmetry_1
_geom_bond_site_symmetry_2
Mn1 N1 1_555 1_555
Cl1 C26 1_555 1_555
Cl2 C30 1_555 1_555
N1 C1 1_555 1_555
N2 C3 1_555 1_555
N3 Mn1 1_555 1_555
N4 Mn1 1_555 1_555
C1 C2 1_555 1_555
C2 C3 1_555 1_555
C4 N3 1_555 1_555
C5 C4 1_555 1_555
C6 C5 1_555 1_555
C7 N3 1_555 1_555
C8 C7 1_555 1_555
C9 N4 1_555 1_555
C10 C9 1_555 1_555
C11 C10 1_555 1_555
C12 N4 1_555 1_555
C13 C4 1_555 1_555
C14 C13 1_555 1_555
C15 C14 1_555 1_555
C16 C15 1_555 1_555
C17 C16 1_555 1_555
C18 C17 1_555 1_555
C19 C14 1_555 1_555
C20 C8 1_555 1_555
C21 C20 1_555 1_555
C22 C21 1_555 1_555
C23 C22 1_555 1_555
C24 C23 1_555 1_555
C25 C20 1_555 1_555
C26 C27 1_555 1_555
C27 C28 1_555 1_555
C28 C29 1_555 1_555
C29 C30 1_555 1_555
C30 C31 1_555 1_555
C31 C26 1_555 1_555
C2B C2 1_555 1_555
C1B C2B 1_555 1_555
N1B C1B 1_555 1_555
C3B C2B 1_555 1_555
N2B C3B 1_555 1_555
C13B C12 1_555 1_555
C4B C13B 1_555 1_555
N3B Mn1 1_555 1_555
C7B N3B 1_555 1_555
C6B C7B 1_555 1_555
C5B C4B 1_555 1_555
C8B C7B 1_555 1_555
C9B C8B 1_555 1_555
N4B Mn1 1_555 1_555
C12B C13 1_555 1_555
C11B C12B 1_555 1_555
C10B C9B 1_555 1_555
C20B C8B 1_555 1_555
C21B C20B 1_555 1_555
C22B C21B 1_555 1_555
C23B C22B 1_555 1_555
C24B C23B 1_555 1_555
C25B C20B 1_555 1_555
C14B C13B 1_555 1_555
C15B C14B 1_555 1_555
C16B C15B 1_555 1_555
C17B C16B 1_555 1_555
C18B C17B 1_555 1_555
C19B C14B 1_555 1_555
N1B_2 Mn1 1_555 1_555
Mn1_2 N1B 1_555 1_555
C6 C7 1_555 1_555
C8 C9 1_555 1_555
C11 C12 1_555 1_555
C18 C19 1_555 1_555
C24 C25 1_555 1_555
C4B N3B 1_555 1_555
C6B C5B 1_555 1_555
C9B N4B 1_555 1_555
N4B C12B 1_555 1_555
C11B C10B 1_555 1_555
C24B C25B 1_555 1_555
C18B C19B 1_555 1_555

#END
