
#######################################################################
#
#                 Cambridge Crystallographic Data Centre
#                                CCDC 
#
#######################################################################
#
# If this CIF has been generated from an entry in the Cambridge 
# Structural Database, then it will include bibliographic, chemical, 
# crystal, experimental, refinement or atomic coordinate data resulting 
# from the CCDC's data processing and validation procedures.
#
#######################################################################

data_MIKBAL
_symmetry_cell_setting           triclinic
_symmetry_space_group_name_H-M   'P -1'
_symmetry_Int_Tables_number      2
_space_group_name_Hall           '-P 1'
loop_
_symmetry_equiv_pos_site_id
_symmetry_equiv_pos_as_xyz
1 x,y,z
2 -x,-y,-z
_cell_length_a                   7.8121(4)
_cell_length_b                   8.5243(4)
_cell_length_c                   9.0869(6)
_cell_angle_alpha                84.285(2)
_cell_angle_beta                 70.705(2)
_cell_angle_gamma                80.4720(10)
_cell_volume                     562.597
loop_
_atom_site_label
_atom_site_type_symbol
_atom_site_fract_x
_atom_site_fract_y
_atom_site_fract_z
C1 C 0.1734(3) -0.0683(3) 0.1650(3)
C2 C 0.0903(3) -0.2058(3) 0.2210(3)
H1 H 0.0469 -0.2308 0.3301
C3 C 0.0719(3) -0.3047(3) 0.1176(3)
H2 H 0.0169 -0.3983 0.1563
C4 C 0.1325(3) -0.2698(3) -0.0422(3)
H3 H 0.1191 -0.3390 -0.1123
C5 C 0.2119(3) -0.1345(3) -0.0984(3)
H4 H 0.2533 -0.1104 -0.2077
C6 C 0.2327(3) -0.0309(3) 0.0041(3)
C7 C 0.3179(3) 0.1073(3) -0.0587(3)
H5 H 0.3629 0.1225 -0.1691
C8 C 0.4513(3) 0.4292(3) 0.0344(3)
N1 N 0.3380(3) 0.2142(2) 0.0248(2)
N2 N 0.4294(3) 0.3383(2) -0.0620(2)
O1 O 0.1984(3) 0.02121(19) 0.2668(2)
O2 O 0.3969(2) 0.40545(18) 0.18479(18)
O3 O 0.0464(2) 0.3361(2) 0.3316(2)
O4 O 0.3306(3) 0.18978(19) 0.4172(2)
O5 O 0.3916(3) 0.8186(2) 0.4521(2)
O6 O 0.7146(2) 0.53268(19) 0.4263(2)
Na1 Na 0.46140(14) 0.58201(11) 0.33625(11)
V1 V 0.24598(5) 0.22956(4) 0.27212(4)
H6 H 0.8185 0.4767 0.4010
H7 H 0.4740 0.8437 0.4999
H8 H 0.7430 0.6177 0.4444
H9 H 0.3461 0.9059 0.4242
C1A C 0.8266(3) 1.0683(3) -0.1650(3)
C2A C 0.9097(3) 1.2058(3) -0.2210(3)
H1A H 0.9531 1.2308 -0.3301
C3A C 0.9281(3) 1.3047(3) -0.1176(3)
H2A H 0.9831 1.3983 -0.1563
C4A C 0.8675(3) 1.2698(3) 0.0422(3)
H3A H 0.8809 1.3390 0.1123
C5A C 0.7881(3) 1.1345(3) 0.0984(3)
H4A H 0.7467 1.1104 0.2077
C6A C 0.7673(3) 1.0309(3) -0.0041(3)
C7A C 0.6821(3) 0.8927(3) 0.0587(3)
H5A H 0.6371 0.8775 0.1691
C8A C 0.5487(3) 0.5708(3) -0.0344(3)
N1A N 0.6620(3) 0.7858(2) -0.0248(2)
N2A N 0.5706(3) 0.6617(2) 0.0620(2)
O1A O 0.8016(3) 0.97879(19) -0.2668(2)
O2A O 0.6031(2) 0.59455(18) -0.18479(18)
O3A O 0.9536(2) 0.6639(2) -0.3316(2)
O4A O 0.6694(3) 0.81022(19) -0.4172(2)
O5A O 0.6084(3) 0.1814(2) -0.4521(2)
O6A O 0.2854(2) 0.46732(19) -0.4263(2)
Na1A Na 0.53860(14) 0.41799(11) -0.33625(11)
V1A V 0.75402(5) 0.77044(4) -0.27212(4)
H6A H 0.1815 0.5233 -0.4010
H7A H 0.5260 0.1563 -0.4999
H8A H 0.2570 0.3823 -0.4444
H9A H 0.6539 0.0941 -0.4242
O6_2 O 0.7146(2) 0.53268(19) -0.5737(2)
O6A_2 O 0.2854(2) 0.46732(19) 0.5737(2)
Na1_2 Na 0.46140(14) 0.58201(11) -0.66375(11)
Na1A_2 Na 0.53860(14) 0.41799(11) 0.66375(11)
loop_
_geom_bond_atom_site_label_1
_geom_bond_atom_site_label_2
_geom_bond_site_symmetry_1
_geom_bond_site_symmetry_2
C1 C2 1_555 1_555
C2 H1 1_555 1_555
C3 C2 1_555 1_555
H2 C3 1_555 1_555
C4 C3 1_555 1_555
H3 C4 1_555 1_555
C5 C4 1_555 1_555
H4 C5 1_555 1_555
C6 C1 1_555 1_555
C7 C6 1_555 1_555
H5 C7 1_555 1_555
C8 N2 1_555 1_555
N1 C7 1_555 1_555
N2 N1 1_555 1_555
O1 C1 1_555 1_555
O2 C8 1_555 1_555
O3 V1 1_555 1_555
O4 V1 1_555 1_555
O5 Na1 1_555 1_555
O6 Na1 1_555 1_555
Na1 O2 1_555 1_555
V1 N1 1_555 1_555
H6 O6 1_555 1_555
H7 O5 1_555 1_555
H8 O6 1_555 1_555
H9 O5 1_555 1_555
C1A C2A 1_555 1_555
C2A H1A 1_555 1_555
C3A C2A 1_555 1_555
H2A C3A 1_555 1_555
C4A C3A 1_555 1_555
H3A C4A 1_555 1_555
C5A C4A 1_555 1_555
H4A C5A 1_555 1_555
C6A C1A 1_555 1_555
C7A C6A 1_555 1_555
H5A C7A 1_555 1_555
C8A C8 1_555 1_555
N1A C7A 1_555 1_555
N2A Na1 1_555 1_555
O1A C1A 1_555 1_555
O2A C8A 1_555 1_555
O3A V1A 1_555 1_555
O4A V1A 1_555 1_555
O5A Na1A 1_555 1_555
O6A Na1A 1_555 1_555
Na1A N2 1_555 1_555
V1A N1A 1_555 1_555
H6A O6A 1_555 1_555
H7A O5A 1_555 1_555
H8A O6A 1_555 1_555
H9A O5A 1_555 1_555
O6_2 Na1A 1_555 1_555
O6A_2 Na1 1_555 1_555
Na1_2 O6A 1_555 1_555
Na1A_2 O6 1_555 1_555
C5 C6 1_555 1_555
O1 V1 1_555 1_555
O2 V1 1_555 1_555
C5A C6A 1_555 1_555
C8A N2A 1_555 1_555
N1A N2A 1_555 1_555
O1A V1A 1_555 1_555
O2A Na1A 1_555 1_555
O2A V1A 1_555 1_555
O6_2 Na1_2 1_555 1_555
O6A_2 Na1A_2 1_555 1_555

#END
