
#######################################################################
#
#                 Cambridge Crystallographic Data Centre
#                                CCDC 
#
#######################################################################
#
# If this CIF has been generated from an entry in the Cambridge 
# Structural Database, then it will include bibliographic, chemical, 
# crystal, experimental, refinement or atomic coordinate data resulting 
# from the CCDC's data processing and validation procedures.
#
#######################################################################

data_MIKBEP
_symmetry_cell_setting           monoclinic
_symmetry_space_group_name_H-M   'C c'
_symmetry_Int_Tables_number      9
_space_group_name_Hall           'C -2yc'
loop_
_symmetry_equiv_pos_site_id
_symmetry_equiv_pos_as_xyz
1 x,y,z
2 x,-y,1/2+z
3 1/2+x,1/2+y,z
4 1/2+x,1/2-y,1/2+z
_cell_length_a                   21.1368(3)
_cell_length_b                   25.1483(3)
_cell_length_c                   14.0307(2)
_cell_angle_alpha                90
_cell_angle_beta                 121.8660(10)
_cell_angle_gamma                90
_cell_volume                     6334.04
loop_
_atom_site_label
_atom_site_type_symbol
_atom_site_fract_x
_atom_site_fract_y
_atom_site_fract_z
Ag1 Ag 0.01162(4) 0.24997(2) 0.98522(5)
Ag2 Ag 0.47072(3) 0.23719(2) 1.08414(5)
S1 S -0.05145(10) 0.33797(6) 0.97372(13)
S2 S -0.02367(9) 0.15575(6) 1.00125(12)
S3 S 0.49374(10) 0.14442(7) 1.04473(14)
S4 S 0.48421(9) 0.33205(7) 1.03594(13)
N1 N 0.2220(2) 0.4543(2) 1.0212(4)
H1 H 0.2221 0.4891 1.0145
N2 N -0.1619(4) 0.2354(2) 0.9247(5)
H2 H -0.2010 0.2134 0.8778
H3 H -0.1294 0.2355 0.8999
N3 N 0.2273(3) 0.0299(2) 1.0055(3)
H4 H 0.2261 -0.0051 1.0084
N4 N 0.5809(5) 0.2404(3) 0.9883(7)
H5 H 0.5310 0.2391 0.9630
H6 H 0.5855 0.2383 0.9267
O1 O 0.0281(2) 0.43438(16) 0.9151(4)
O2 O 0.0366(2) 0.05785(15) 0.9172(3)
O3 O 0.4212(2) 0.04839(17) 1.1090(4)
O4 O 0.4138(2) 0.42871(16) 1.1144(3)
C1 C 0.2224(4) 0.3480(3) 1.0471(8)
H7 H 0.2230 0.3107 1.0586
C2 C 0.1577(4) 0.3763(3) 1.0092(6)
H8 H 0.1133 0.3586 0.9922
C3 C 0.1579(3) 0.4304(2) 0.9959(5)
C4 C 0.0922(3) 0.4668(2) 0.9589(5)
H9 H 0.0989 0.4877 1.0233
H10 H 0.0872 0.4917 0.9007
C5 C -0.0384(3) 0.4600(2) 0.8770(5)
C6 C -0.0459(3) 0.5147(2) 0.8766(5)
H11 H -0.0034 0.5369 0.9047
C7 C -0.1163(4) 0.5370(3) 0.8347(5)
H12 H -0.1214 0.5745 0.8352
C8 C -0.1784(4) 0.5052(3) 0.7927(5)
H13 H -0.2262 0.5207 0.7634
C9 C -0.1707(3) 0.4499(2) 0.7934(5)
H14 H -0.2135 0.4279 0.7643
C10 C -0.1005(3) 0.4265(2) 0.8364(4)
C11 C -0.0928(3) 0.3676(2) 0.8346(5)
H15 H -0.0613 0.3590 0.8037
H16 H -0.1425 0.3517 0.7842
C12 C -0.1308(4) 0.3314(3) 0.9892(7)
H17 H -0.1120 0.3223 1.0685
H18 H -0.1553 0.3665 0.9744
C13 C -0.1912(4) 0.2896(3) 0.9138(7)
H19 H -0.2299 0.2891 0.9332
H20 H -0.2153 0.3009 0.8344
C14 C -0.1234(5) 0.2123(3) 1.0379(7)
H21 H -0.1588 0.2098 1.0635
H22 H -0.0826 0.2365 1.0897
C15 C -0.0909(4) 0.1574(3) 1.0445(6)
H23 H -0.1322 0.1327 0.9965
H24 H -0.0665 0.1444 1.1227
C16 C -0.0772(3) 0.1277(2) 0.8592(5)
H25 H -0.1265 0.1453 0.8175
H26 H -0.0510 0.1358 0.8197
C17 C -0.0886(3) 0.0683(2) 0.8570(5)
C18 C -0.1580(3) 0.0474(3) 0.8215(5)
H27 H -0.1982 0.0708 0.8029
C19 C -0.1700(3) -0.0077(3) 0.8123(5)
H28 H -0.2181 -0.0218 0.7870
C20 C -0.1116(4) -0.0409(3) 0.8404(5)
H29 H -0.1191 -0.0783 0.8347
C21 C -0.0401(3) -0.0205(2) 0.8776(5)
H30 H 0.0003 -0.0439 0.8979
C22 C -0.0293(3) 0.0339(2) 0.8844(4)
C23 C 0.0975(3) 0.0234(2) 0.9446(5)
H31 H 0.0850 0.0003 0.8797
H32 H 0.1083 0.0003 1.0088
C24 C 0.1640(3) 0.0571(2) 0.9746(4)
C25 C 0.1656(4) 0.1121(3) 0.9721(6)
H33 H 0.1225 0.1324 0.9530
C26 C 0.2309(4) 0.1368(3) 0.9979(6)
H34 H 0.2325 0.1745 0.9957
C27 C 0.2951(4) 0.1076(3) 1.0274(6)
H35 H 0.3397 0.1249 1.0436
C28 C 0.2915(3) 0.0530(2) 1.0320(4)
C29 C 0.3566(3) 0.0164(2) 1.0693(5)
H36 H 0.3625 -0.0072 1.1299
H37 H 0.3486 -0.0059 1.0057
C30 C 0.4873(3) 0.0226(2) 1.1484(5)
C31 C 0.4954(4) -0.0329(3) 1.1531(5)
H38 H 0.4532 -0.0553 1.1268
C32 C 0.5665(4) -0.0547(3) 1.1971(6)
H39 H 0.5726 -0.0923 1.2013
C33 C 0.6277(4) -0.0221(3) 1.2345(6)
H40 H 0.6757 -0.0374 1.2644
C34 C 0.6198(4) 0.0334(3) 1.2288(5)
H41 H 0.6623 0.0554 1.2543
C35 C 0.5490(3) 0.0564(3) 1.1854(5)
C36 C 0.5406(4) 0.1153(3) 1.1849(5)
H42 H 0.5906 0.1315 1.2310
H43 H 0.5119 0.1241 1.2203
C37 C 0.5720(5) 0.1454(3) 1.0234(8)
H44 H 0.6041 0.1143 1.0624
H45 H 0.5520 0.1410 0.9422
C38 C 0.6189(5) 0.1936(3) 1.0624(8)
H46 H 0.6658 0.1864 1.0650
H47 H 0.6318 0.2021 1.1396
C39 C 0.6123(5) 0.2932(3) 1.0468(8)
H48 H 0.6313 0.2894 1.1278
H49 H 0.6544 0.3036 1.0388
C40 C 0.5546(5) 0.3353(3) 0.9985(8)
H50 H 0.5290 0.3337 0.9157
H51 H 0.5797 0.3703 1.0226
C41 C 0.5343(3) 0.3632(2) 1.1751(5)
H52 H 0.5085 0.3542 1.2149
H53 H 0.5851 0.3480 1.2188
C42 C 0.5401(3) 0.4219(2) 1.1719(4)
C43 C 0.6075(3) 0.4457(2) 1.2018(5)
H54 H 0.6494 0.4239 1.2220
C44 C 0.6150(4) 0.5005(3) 1.2028(5)
H55 H 0.6616 0.5161 1.2246
C45 C 0.5534(3) 0.5319(2) 1.1716(5)
H56 H 0.5582 0.5695 1.1721
C46 C 0.4849(3) 0.5100(2) 1.1395(4)
H57 H 0.4427 0.5321 1.1166
C47 C 0.4789(3) 0.4544(2) 1.1416(5)
C48 C 0.3511(3) 0.4615(2) 1.0796(5)
H58 H 0.3392 0.4812 1.0110
H59 H 0.3619 0.4876 1.1391
C49 C 0.2863(3) 0.4277(3) 1.0564(5)
C50 C 0.2867(4) 0.3736(3) 1.0687(6)
H60 H 0.3308 0.3539 1.0919
N5 N 0.0849(4) 0.2577(2) 0.8544(5)
O5 O 0.0348(3) 0.2906(2) 0.8324(5)
O6 O 0.1094(4) 0.2310(3) 0.9430(6)
O7 O 0.1075(5) 0.2540(2) 0.7910(7)
N6 N 0.3758(4) 0.2506(2) 1.1778(5)
O8 O 0.3680(4) 0.2150(3) 1.1141(5)
O9 O 0.4218(4) 0.2860(2) 1.1978(6)
O10 O 0.3404(4) 0.2516(2) 1.2260(6)
N7 N 0.1013(5) 0.2540(3) 1.2584(7)
O11 O 0.1173(4) 0.2632(3) 1.1846(6)
O12 O 0.0456(7) 0.2294(5) 1.2325(10)
O13 O 0.1440(5) 0.2670(3) 1.3537(5)
Ag2C Ag -0.02928(3) 0.26281(2) 0.58414(5)
O7C O 0.6075(5) 0.2460(2) 1.2910(7)
N8 N 0.2301(4) 0.5869(3) 1.0064(7)
O14 O 0.2715(4) 0.5652(3) 0.9830(6)
O15 O 0.2122(5) 0.6337(3) 0.9774(8)
O16 O 0.1974(4) 0.5604(3) 1.0401(6)
N9 N 0.2028(4) 0.0986(3) 0.4560(8)
O17 O 0.2388(4) 0.0751(3) 0.4228(7)
O18 O 0.1948(5) 0.0766(3) 0.5291(7)
O19 O 0.1749(5) 0.1421(3) 0.4170(7)
N10 N 0.4037(8) 0.2081(6) 0.7734(12)
O20 O 0.4504(9) 0.1784(6) 0.7710(13)
O21 O 0.3338(6) 0.2102(5) 0.6889(9)
O22 O 0.4252(7) 0.2468(4) 0.8368(10)
N11 N 1.2520(5) 0.3688(4) 0.8036(9)
C51 C 1.2703(8) 0.3266(6) 0.8269(12)
C52 C 1.2863(9) 0.2711(7) 0.8575(15)
H61 H 1.3266 0.2594 0.8473
H62 H 1.2416 0.2499 0.8096
H63 H 1.3016 0.2666 0.9362
O23 O 0.2292(4) 0.6606(3) 0.7947(5)
O24 O 0.2483(7) 0.1377(5) 0.7384(11)
O25 O 0.1824(7) 0.1390(6) 0.2087(12)
loop_
_geom_bond_atom_site_label_1
_geom_bond_atom_site_label_2
_geom_bond_site_symmetry_1
_geom_bond_site_symmetry_2
Ag1 S1 1_555 1_555
Ag2 S3 1_555 1_555
S1 C11 1_555 1_555
S2 Ag1 1_555 1_555
S3 C36 1_555 1_555
S4 Ag2 1_555 1_555
N1 H1 1_555 1_555
N2 H2 1_555 1_555
H3 N2 1_555 1_555
N3 H4 1_555 1_555
N4 H5 1_555 1_555
H6 N4 1_555 1_555
O1 C4 1_555 1_555
O2 C22 1_555 1_555
O3 C29 1_555 1_555
O4 C47 1_555 1_555
C1 H7 1_555 1_555
C2 C1 1_555 1_555
H8 C2 1_555 1_555
C3 N1 1_555 1_555
C4 C3 1_555 1_555
H9 C4 1_555 1_555
H10 C4 1_555 1_555
C5 O1 1_555 1_555
C6 C5 1_555 1_555
H11 C6 1_555 1_555
C7 C6 1_555 1_555
H12 C7 1_555 1_555
C8 C7 1_555 1_555
H13 C8 1_555 1_555
C9 C8 1_555 1_555
H14 C9 1_555 1_555
C10 C5 1_555 1_555
C11 C10 1_555 1_555
H15 C11 1_555 1_555
H16 C11 1_555 1_555
C12 S1 1_555 1_555
H17 C12 1_555 1_555
H18 C12 1_555 1_555
C13 N2 1_555 1_555
H19 C13 1_555 1_555
H20 C13 1_555 1_555
C14 N2 1_555 1_555
H21 C14 1_555 1_555
H22 C14 1_555 1_555
C15 S2 1_555 1_555
H23 C15 1_555 1_555
H24 C15 1_555 1_555
C16 S2 1_555 1_555
H25 C16 1_555 1_555
H26 C16 1_555 1_555
C17 C16 1_555 1_555
C18 C17 1_555 1_555
H27 C18 1_555 1_555
C19 C18 1_555 1_555
H28 C19 1_555 1_555
C20 C19 1_555 1_555
H29 C20 1_555 1_555
C21 C20 1_555 1_555
H30 C21 1_555 1_555
C22 C17 1_555 1_555
C23 O2 1_555 1_555
H31 C23 1_555 1_555
H32 C23 1_555 1_555
C24 N3 1_555 1_555
C25 C24 1_555 1_555
H33 C25 1_555 1_555
C26 C25 1_555 1_555
H34 C26 1_555 1_555
C27 C26 1_555 1_555
H35 C27 1_555 1_555
C28 N3 1_555 1_555
C29 C28 1_555 1_555
H36 C29 1_555 1_555
H37 C29 1_555 1_555
C30 O3 1_555 1_555
C31 C30 1_555 1_555
H38 C31 1_555 1_555
C32 C31 1_555 1_555
H39 C32 1_555 1_555
C33 C32 1_555 1_555
H40 C33 1_555 1_555
C34 C33 1_555 1_555
H41 C34 1_555 1_555
C35 C30 1_555 1_555
C36 C35 1_555 1_555
H42 C36 1_555 1_555
H43 C36 1_555 1_555
C37 S3 1_555 1_555
H44 C37 1_555 1_555
H45 C37 1_555 1_555
C38 N4 1_555 1_555
H46 C38 1_555 1_555
H47 C38 1_555 1_555
C39 N4 1_555 1_555
H48 C39 1_555 1_555
H49 C39 1_555 1_555
C40 S4 1_555 1_555
H50 C40 1_555 1_555
H51 C40 1_555 1_555
C41 S4 1_555 1_555
H52 C41 1_555 1_555
H53 C41 1_555 1_555
C42 C41 1_555 1_555
C43 C42 1_555 1_555
H54 C43 1_555 1_555
C44 C43 1_555 1_555
H55 C44 1_555 1_555
C45 C44 1_555 1_555
H56 C45 1_555 1_555
C46 C45 1_555 1_555
H57 C46 1_555 1_555
C47 C42 1_555 1_555
C48 O4 1_555 1_555
H58 C48 1_555 1_555
H59 C48 1_555 1_555
C49 N1 1_555 1_555
C50 C1 1_555 1_555
H60 C50 1_555 1_555
N5 O5 1_555 1_555
O5 Ag1 1_555 1_555
O6 Ag1 1_555 1_555
O7 N5 1_555 1_555
N6 O8 1_555 1_555
O8 Ag2 1_555 1_555
O9 Ag2 1_555 1_555
O10 N6 1_555 1_555
N7 O11 1_555 1_555
O11 Ag1 1_555 1_555
O12 N7 1_555 1_555
O13 N7 1_555 1_555
N8 O14 1_555 1_555
O15 N8 1_555 1_555
O16 N8 1_555 1_555
N9 O17 1_555 1_555
O18 N9 1_555 1_555
O19 N9 1_555 1_555
N10 O20 1_555 1_555
O21 N10 1_555 1_555
O22 N10 1_555 1_555
N11 C51 1_555 1_555
C51 C52 1_555 1_555
C52 H61 1_555 1_555
H62 C52 1_555 1_555
H63 C52 1_555 1_555
Ag2C O7 1_555 1_555
O7C Ag2 1_555 1_555
C2 C3 1_555 1_555
C9 C10 1_555 1_555
C12 C13 1_555 1_555
C14 C15 1_555 1_555
C21 C22 1_555 1_555
C23 C24 1_555 1_555
C27 C28 1_555 1_555
C34 C35 1_555 1_555
C37 C38 1_555 1_555
C39 C40 1_555 1_555
C46 C47 1_555 1_555
C48 C49 1_555 1_555
C49 C50 1_555 1_555
N5 O6 1_555 1_555
N6 O9 1_555 1_555

#END
