
#######################################################################
#
#                 Cambridge Crystallographic Data Centre
#                                CCDC 
#
#######################################################################
#
# If this CIF has been generated from an entry in the Cambridge 
# Structural Database, then it will include bibliographic, chemical, 
# crystal, experimental, refinement or atomic coordinate data resulting 
# from the CCDC's data processing and validation procedures.
#
#######################################################################

data_MIKBOX01
_symmetry_cell_setting           hexagonal
_symmetry_space_group_name_H-M   'P 61'
_symmetry_Int_Tables_number      169
_space_group_name_Hall           'P 61'
loop_
_symmetry_equiv_pos_site_id
_symmetry_equiv_pos_as_xyz
1 x,y,z
2 -x,-y,1/2+z
3 -y,x-y,1/3+z
4 y,-x+y,5/6+z
5 -x+y,-x,2/3+z
6 x-y,x,1/6+z
_cell_length_a                   11.4275(3)
_cell_length_b                   11.4275(3)
_cell_length_c                   20.9322(6)
_cell_angle_alpha                90
_cell_angle_beta                 90
_cell_angle_gamma                120
_cell_volume                     2367.27
loop_
_atom_site_label
_atom_site_type_symbol
_atom_site_fract_x
_atom_site_fract_y
_atom_site_fract_z
Zn1 Zn 0.57094(6) 1.00177(10) 0.49998(4)
S1 S 0.38825(14) 0.64977(15) 0.47291(7)
O1 O 0.4543(5) 0.7708(5) 0.51774(19)
O2 O 0.2571(5) 0.5504(5) 0.4983(3)
O3 O 0.3648(5) 0.6913(5) 0.4104(2)
O4 O 0.4787(7) 0.5936(6) 0.4647(3)
O5 O 0.6807(5) 1.2160(5) 0.4796(2)
O6 O 0.5570(5) 0.9639(6) 0.4045(3)
O7 O 0.5760(6) 1.0252(6) 0.6000(3)
N1 N 0.7614(4) 1.0049(5) 0.5031(3)
N2 N 1.3815(4) 1.0025(6) 0.4974(4)
C1 C 0.7649(6) 0.8902(6) 0.5018(5)
H1 H 0.6836 0.8088 0.5005
C2 C 0.8846(5) 0.8873(6) 0.5022(4)
H2 H 0.8827 0.8050 0.5023
C3 C 1.0071(4) 1.0071(6) 0.5026(4)
C4 C 1.0036(6) 1.1263(6) 0.5042(4)
H3 H 1.0831 1.2093 0.5054
C5 C 0.8795(5) 1.1195(6) 0.5038(5)
H4 H 0.8784 1.2004 0.5041
C6 C 1.2611(5) 0.8924(7) 0.4970(7)
H5 H 1.2595 0.8105 0.4935
C7 C 1.1377(7) 0.8860(7) 0.5012(8)
H6 H 1.0578 0.8038 0.5050
C8 C 1.1372(5) 1.0062(6) 0.4997(4)
C9 C 1.2614(6) 1.1228(7) 0.4997(8)
H7 H 1.2661 1.2062 0.5029
C10 C 1.3794(6) 1.1172(7) 0.4948(6)
H8 H 1.4607 1.1975 0.4896
Zn1_2 Zn 1.57094(6) 1.00177(10) 0.49998(4)
N2_2 N 0.3815(4) 1.0025(6) 0.4974(4)
O8 O 0.1575(7) 0.6249(9) 0.6013(3)
O9 O 0.5635(6) 0.6791(6) 0.3194(3)
loop_
_geom_bond_atom_site_label_1
_geom_bond_atom_site_label_2
_geom_bond_site_symmetry_1
_geom_bond_site_symmetry_2
Zn1 O1 1_555 1_555
S1 O1 1_555 1_555
O2 S1 1_555 1_555
O3 S1 1_555 1_555
O4 S1 1_555 1_555
O5 Zn1 1_555 1_555
O6 Zn1 1_555 1_555
O7 Zn1 1_555 1_555
N1 Zn1 1_555 1_555
N2 C6 1_555 1_555
C1 N1 1_555 1_555
H1 C1 1_555 1_555
C2 C1 1_555 1_555
H2 C2 1_555 1_555
C3 C2 1_555 1_555
C4 C3 1_555 1_555
H3 C4 1_555 1_555
C5 N1 1_555 1_555
H4 C5 1_555 1_555
C6 H5 1_555 1_555
C7 C6 1_555 1_555
H6 C7 1_555 1_555
C8 C3 1_555 1_555
C9 C8 1_555 1_555
H7 C9 1_555 1_555
C10 N2 1_555 1_555
H8 C10 1_555 1_555
Zn1_2 N2 1_555 1_555
N2_2 Zn1 1_555 1_555
C4 C5 1_555 1_555
C7 C8 1_555 1_555
C9 C10 1_555 1_555

#END
