
#######################################################################
#
#                 Cambridge Crystallographic Data Centre
#                                CCDC 
#
#######################################################################
#
# If this CIF has been generated from an entry in the Cambridge 
# Structural Database, then it will include bibliographic, chemical, 
# crystal, experimental, refinement or atomic coordinate data resulting 
# from the CCDC's data processing and validation procedures.
#
#######################################################################

data_MIKBOX
_symmetry_cell_setting           hexagonal
_symmetry_space_group_name_H-M   'P 65'
_symmetry_Int_Tables_number      170
_space_group_name_Hall           'P 65'
loop_
_symmetry_equiv_pos_site_id
_symmetry_equiv_pos_as_xyz
1 x,y,z
2 x-y,x,5/6+z
3 -y,x-y,2/3+z
4 -x,-y,1/2+z
5 -x+y,-x,1/3+z
6 y,-x+y,1/6+z
_cell_length_a                   11.411(2)
_cell_length_b                   11.411(2)
_cell_length_c                   20.908(4)
_cell_angle_alpha                90
_cell_angle_beta                 90
_cell_angle_gamma                120
_cell_volume                     2357.71
loop_
_atom_site_label
_atom_site_type_symbol
_atom_site_fract_x
_atom_site_fract_y
_atom_site_fract_z
Zn1 Zn -0.0027(2) 0.4321(1) 0.2278(1)
S1 S 0.3512(4) 0.6131(4) 0.2037(2)
O1 O 0.2281(10) 0.5439(9) 0.2482(4)
O2 O 0.3053(15) 0.6346(15) 0.1411(6)
O3 O 0.4038(18) 0.5211(17) 0.1971(9)
O4 O 0.4487(18) 0.7420(14) 0.2296(8)
N1 N -0.0101(11) 0.2378(10) 0.2334(7)
N2 N -0.0106(13) -0.3843(12) 0.2271(8)
C1 C 0.1145(14) 0.1178(14) 0.2324(8)
C2 C 0.1076(15) 0.2328(14) 0.2337(9)
C3 C -0.1239(16) 0.1243(14) 0.2360(9)
C4 C -0.1218(15) 0.0001(13) 0.2360(11)
C5 C -0.0110(4) -0.0105(12) 0.2313(9)
C6 C -0.0071(14) -0.1370(13) 0.2302(9)
C7 C 0.1125(16) -0.1406(19) 0.2297(18)
C8 C 0.1065(16) -0.2627(16) 0.2325(16)
C9 C -0.1220(23) -0.3795(18) 0.2265(18)
C10 C -0.1270(17) -0.2605(15) 0.2280(14)
O5 O 0.0374(13) 0.4417(11) 0.1353(5)
O6 O -0.0232(12) 0.4256(12) 0.3312(6)
O7 O -0.2203(11) 0.3185(10) 0.2104(5)
N2_2 N -0.0106(13) 0.6157(12) 0.2271(8)
Zn1_2 Zn -0.0027(2) -0.5679(1) 0.2278(1)
O8 O 0.4386(13) 0.1188(15) 0.2181(7)
O9 O 0.5305(20) 0.3748(17) 0.1649(8)
loop_
_geom_bond_atom_site_label_1
_geom_bond_atom_site_label_2
_geom_bond_site_symmetry_1
_geom_bond_site_symmetry_2
Zn1 O1 1_555 1_555
S1 O1 1_555 1_555
O2 S1 1_555 1_555
O3 S1 1_555 1_555
O4 S1 1_555 1_555
N1 Zn1 1_555 1_555
N2 C8 1_555 1_555
C1 C2 1_555 1_555
C2 N1 1_555 1_555
C3 N1 1_555 1_555
C4 C3 1_555 1_555
C5 C1 1_555 1_555
C6 C5 1_555 1_555
C7 C6 1_555 1_555
C8 C7 1_555 1_555
C9 N2 1_555 1_555
C10 C6 1_555 1_555
O5 Zn1 1_555 1_555
O6 Zn1 1_555 1_555
O7 Zn1 1_555 1_555
N2_2 Zn1 1_555 1_555
Zn1_2 N2 1_555 1_555
C4 C5 1_555 1_555
C9 C10 1_555 1_555

#END
