
#######################################################################
#
#                 Cambridge Crystallographic Data Centre
#                                CCDC 
#
#######################################################################
#
# If this CIF has been generated from an entry in the Cambridge 
# Structural Database, then it will include bibliographic, chemical, 
# crystal, experimental, refinement or atomic coordinate data resulting 
# from the CCDC's data processing and validation procedures.
#
#######################################################################

data_MIKDUH
_symmetry_cell_setting           monoclinic
_symmetry_space_group_name_H-M   'P 21/n'
_symmetry_Int_Tables_number      14
_space_group_name_Hall           '-P 2yn'
loop_
_symmetry_equiv_pos_site_id
_symmetry_equiv_pos_as_xyz
1 x,y,z
2 1/2-x,1/2+y,1/2-z
3 -x,-y,-z
4 1/2+x,1/2-y,1/2+z
_cell_length_a                   9.605(3)
_cell_length_b                   21.278(7)
_cell_length_c                   16.747(5)
_cell_angle_alpha                90
_cell_angle_beta                 91.464(4)
_cell_angle_gamma                90
_cell_volume                     3421.55
loop_
_atom_site_label
_atom_site_type_symbol
_atom_site_fract_x
_atom_site_fract_y
_atom_site_fract_z
U1 U 0.78101(3) 0.241479(14) 0.962603(16)
U2 U 0.70895(3) 0.241901(14) 0.516261(16)
U3 U 1.24392(3) 0.139770(14) 0.742956(15)
Zn1 Zn 0.73621(10) 0.28346(5) 0.73673(6)
P1 P 0.5318(2) 0.34370(10) 1.05641(11)
P2 P 0.9575(2) 0.34748(10) 0.42830(11)
P3 P 0.5000(2) 0.14147(10) 0.57761(11)
P4 P 0.9897(2) 0.13760(10) 0.90717(11)
N1 N 0.6338(8) 0.3679(4) 0.7595(4)
N2 N 0.8941(7) 0.3448(4) 0.7176(4)
O1 O 0.8001(5) 0.2810(3) 0.8688(3)
O2 O 0.7647(6) 0.2011(3) 1.0537(3)
O3 O 0.6798(5) 0.2814(3) 0.6093(3)
O4 O 0.7351(6) 0.2015(3) 0.4266(3)
O5 O 1.2394(6) 0.2220(3) 0.7506(3)
O6 O 1.2496(5) 0.0580(3) 0.7339(3)
O7 O 0.6476(5) 0.3242(3) 1.0027(3)
O8 O 0.4193(5) 0.2927(2) 1.0637(3)
O9 O 0.5880(6) 0.3605(3) 1.1392(3)
O10 O 0.8413(5) 0.3264(3) 0.4813(3)
O11 O 1.0667(5) 0.2960(2) 0.4170(3)
O12 O 0.8998(5) 0.3676(3) 0.3472(3)
O13 O 0.6565(5) 0.1473(2) 0.5885(3)
O14 O 0.4595(5) 0.1953(3) 0.5199(3)
O15 O 0.4259(6) 0.1468(3) 0.6562(3)
O16 O 1.0313(6) 0.1964(3) 0.9552(3)
O17 O 0.8341(5) 0.1454(2) 0.8922(3)
O18 O 1.0677(6) 0.1308(3) 0.8304(3)
O19 O 0.8478(8) 0.2036(4) 0.7295(4)
O20 O 0.5637(8) 0.2342(3) 0.7590(4)
C1 C 0.4469(8) 0.4130(4) 1.0173(5)
H1 H 0.4056 0.4030 0.9654
H2 H 0.3716 0.4240 1.0523
C2 C 0.5404(8) 0.4706(4) 1.0083(5)
H3 H 0.5960 0.4761 1.0570
H4 H 0.6036 0.4633 0.9650
C3 C 1.0444(8) 0.4138(4) 0.4722(4)
H5 H 1.0885 0.4004 0.5221
H6 H 1.1180 0.4265 0.4370
C4 C 0.9560(8) 0.4715(4) 0.4893(5)
H7 H 0.8981 0.4811 0.4426
H8 H 0.8950 0.4622 0.5330
C5 C 1.0284(13) 0.0695(6) 0.9651(7)
C6 C 0.985(2) 0.0106(9) 0.9322(13)
C7 C 0.4556(10) 0.0679(5) 0.5331(5)
C8 C 0.507(2) 0.0119(7) 0.5758(10)
C9 C 0.5033(11) 0.3769(6) 0.7807(6)
H9 H 0.4457 0.3422 0.7864
C10 C 0.4489(13) 0.4375(7) 0.7948(7)
H10 H 0.3566 0.4435 0.8084
C11 C 0.5400(16) 0.4873(7) 0.7872(7)
H11 H 0.5079 0.5275 0.7988
C12 C 0.6766(14) 0.4808(6) 0.7634(6)
C13 C 0.7741(14) 0.5287(6) 0.7521(7)
H12 H 0.7467 0.5703 0.7587
C14 C 0.9064(15) 0.5165(5) 0.7322(7)
H13 H 0.9687 0.5496 0.7266
C15 C 0.9513(13) 0.4551(5) 0.7197(6)
C16 C 1.0867(13) 0.4395(6) 0.7011(6)
H14 H 1.1523 0.4713 0.6962
C17 C 1.1257(12) 0.3799(6) 0.6901(6)
H15 H 1.2171 0.3701 0.6778
C18 C 1.0243(10) 0.3322(5) 0.6975(5)
H16 H 1.0495 0.2907 0.6881
C19 C 0.8562(10) 0.4047(5) 0.7295(5)
C20 C 0.7209(11) 0.4170(5) 0.7510(5)
C21 C 0.528(2) 0.0557(8) 0.4626(11)
C22 C 0.966(3) 0.0560(10) 1.0339(13)
P1B P 0.4682(2) 0.65630(10) 0.94359(11)
O7B O 0.3524(5) 0.6758(3) 0.9973(3)
O8B O 0.5807(5) 0.7073(2) 0.9363(3)
O9B O 0.4120(6) 0.6395(3) 0.8608(3)
C1B C 0.5531(8) 0.5870(4) 0.9827(5)
H1B H 0.5944 0.5970 1.0346
H2B H 0.6284 0.5760 0.9477
C2B C 0.4596(8) 0.5294(4) 0.9917(5)
H3B H 0.4040 0.5239 0.9430
H4B H 0.3964 0.5367 1.0350
P2B P 1.0425(2) 0.65252(10) 0.57170(11)
O10B O 1.1587(5) 0.6736(3) 0.5187(3)
O11B O 0.9333(5) 0.7040(2) 0.5830(3)
O12B O 1.1002(5) 0.6324(3) 0.6528(3)
C3B C 0.9556(8) 0.5862(4) 0.5278(4)
H5B H 0.9115 0.5996 0.4779
H6B H 0.8820 0.5735 0.5630
C4B C 1.0440(8) 0.5285(4) 0.5107(5)
H7B H 1.1019 0.5189 0.5574
H8B H 1.1050 0.5378 0.4670
P3B P 0.5000(2) -0.14147(10) 0.42239(11)
O13B O 0.3435(5) -0.1473(2) 0.4115(3)
O14B O 0.5405(5) -0.1953(3) 0.4801(3)
O15B O 0.5741(6) -0.1468(3) 0.3438(3)
C7B C 0.5444(10) -0.0679(5) 0.4669(5)
C8B C 0.493(2) -0.0119(7) 0.4242(10)
C21B C 0.472(2) -0.0557(8) 0.5374(11)
P4B P 1.0103(2) -0.13760(10) 1.09283(11)
O16B O 0.9687(6) -0.1964(3) 1.0448(3)
O17B O 1.1659(5) -0.1454(2) 1.1078(3)
O18B O 0.9323(6) -0.1308(3) 1.1696(3)
C5B C 0.9716(13) -0.0695(6) 1.0349(7)
C6B C 1.015(2) -0.0106(9) 1.0678(13)
C22B C 1.034(3) -0.0560(10) 0.9661(13)
U1B U 0.21899(3) -0.241479(14) 0.037397(16)
U2B U 0.29105(3) -0.241901(14) 0.483739(16)
Zn1B Zn 0.26379(10) -0.28346(5) 0.26327(6)
N1B N 0.3662(8) -0.3679(4) 0.2405(4)
N2B N 0.1059(7) -0.3448(4) 0.2824(4)
O1B O 0.1999(5) -0.2810(3) 0.1312(3)
O2B O 0.2353(6) -0.2011(3) -0.0537(3)
O3B O 0.3202(5) -0.2814(3) 0.3907(3)
O4B O 0.2649(6) -0.2015(3) 0.5734(3)
O19B O 0.1522(8) -0.2036(4) 0.2705(4)
O20B O 0.4363(8) -0.2342(3) 0.2410(4)
C9B C 0.4967(11) -0.3769(6) 0.2193(6)
H9B H 0.5543 -0.3422 0.2136
C10B C 0.5511(13) -0.4375(7) 0.2052(7)
H10B H 0.6434 -0.4435 0.1916
C11B C 0.4600(16) -0.4873(7) 0.2128(7)
H11B H 0.4921 -0.5275 0.2012
C12B C 0.3234(14) -0.4808(6) 0.2366(6)
C13B C 0.2259(14) -0.5287(6) 0.2479(7)
H12B H 0.2533 -0.5703 0.2413
C14B C 0.0936(15) -0.5165(5) 0.2678(7)
H13B H 0.0313 -0.5496 0.2734
C15B C 0.0487(13) -0.4551(5) 0.2803(6)
C16B C -0.0867(13) -0.4395(6) 0.2989(6)
H14B H -0.1523 -0.4713 0.3038
C17B C -0.1257(12) -0.3799(6) 0.3099(6)
H15B H -0.2171 -0.3701 0.3222
C18B C -0.0243(10) -0.3322(5) 0.3025(5)
H16B H -0.0495 -0.2907 0.3119
C19B C 0.1438(10) -0.4047(5) 0.2705(5)
C20B C 0.2791(11) -0.4170(5) 0.2490(5)
U3C U 0.74392(3) 0.360230(14) 1.242956(15)
O5C O 0.7394(6) 0.2780(3) 1.2506(3)
O6C O 0.7496(5) 0.4420(3) 1.2339(3)
U1A U 0.71899(3) -0.258521(14) 0.537397(16)
U1A_2 U 0.71899(3) 0.741479(14) 0.537397(16)
U1B_2 U 0.21899(3) 0.758521(14) 1.037397(16)
U1B_3 U 1.21899(3) -0.241479(14) 1.037397(16)
U1C U 0.28101(3) 0.258521(14) 0.462603(16)
U1C_2 U 1.28101(3) 0.258521(14) 0.462603(16)
U2A U 0.79105(3) -0.258099(14) 0.983739(16)
U2A_2 U 0.79105(3) 0.741901(14) 0.983739(16)
U2B_2 U 1.29105(3) 0.758099(14) 0.483739(16)
U2C U 0.20895(3) 0.258099(14) 1.016261(16)
U2C_2 U 1.20895(3) 0.258099(14) 1.016261(16)
U3_2 U 0.24392(3) 0.139770(14) 0.742956(15)
U3A U 0.25608(3) 0.639770(14) 0.757044(15)
U3A_2 U 1.25608(3) 0.639770(14) 0.757044(15)
U3B U 0.75608(3) -0.139770(14) 0.257044(15)
U3B_2 U 0.75608(3) -0.139770(14) 1.257044(15)
U3C_2 U 0.74392(3) 0.360230(14) 0.242956(15)
O7B_2 O 0.3524(5) -0.3242(3) -0.0027(3)
O8A O 0.0807(5) -0.2073(2) 0.4363(3)
O8C O 0.9193(5) 0.2073(2) 0.5637(3)
O9C O 1.0880(6) 0.1395(3) 0.6392(3)
O10B_2 O 0.1587(5) -0.3264(3) 0.5187(3)
O11A O 0.4333(5) -0.2040(2) 0.0830(3)
O11C O 0.5667(5) 0.2040(2) 0.9170(3)
O12_2 O 0.8998(5) 0.3676(3) 1.3472(3)
O12C O 1.3998(5) 0.1324(3) 0.8472(3)
O14A O 0.0405(5) -0.3047(3) -0.0199(3)
O14C O 0.9595(5) 0.3047(3) 1.0199(3)
O15_2 O 1.4259(6) 0.1468(3) 0.6562(3)
O15C O 0.9259(6) 0.3532(3) 1.1562(3)
O16A O 0.4687(6) -0.3036(3) 0.5448(3)
O16B_2 O -0.0313(6) -0.1964(3) 0.0448(3)
O16C O 0.5313(6) 0.3036(3) 0.4552(3)
O17B_2 O 0.1659(5) -0.1454(2) 0.1078(3)
O18C O 0.5677(6) 0.3692(3) 1.3304(3)
loop_
_geom_bond_atom_site_label_1
_geom_bond_atom_site_label_2
_geom_bond_site_symmetry_1
_geom_bond_site_symmetry_2
U1 O1 1_555 1_555
U2 O3 1_555 1_555
U3 O5 1_555 1_555
Zn1 N1 1_555 1_555
P1 O7 1_555 1_555
P2 O10 1_555 1_555
P3 O13 1_555 1_555
P4 O16 1_555 1_555
N1 C9 1_555 1_555
N2 Zn1 1_555 1_555
O1 Zn1 1_555 1_555
O2 U1 1_555 1_555
O3 Zn1 1_555 1_555
O4 U2 1_555 1_555
O6 U3 1_555 1_555
O7 U1 1_555 1_555
O8 P1 1_555 1_555
O9 P1 1_555 1_555
O10 U2 1_555 1_555
O11 P2 1_555 1_555
O12 P2 1_555 1_555
O13 U2 1_555 1_555
O14 U2 1_555 1_555
O15 P3 1_555 1_555
O16 U1 1_555 1_555
O17 U1 1_555 1_555
O18 U3 1_555 1_555
O19 Zn1 1_555 1_555
O20 Zn1 1_555 1_555
C1 P1 1_555 1_555
H1 C1 1_555 1_555
H2 C1 1_555 1_555
C2 C1 1_555 1_555
H3 C2 1_555 1_555
H4 C2 1_555 1_555
C3 P2 1_555 1_555
H5 C3 1_555 1_555
H6 C3 1_555 1_555
C4 C3 1_555 1_555
H7 C4 1_555 1_555
H8 C4 1_555 1_555
C5 P4 1_555 1_555
C6 C5 1_555 1_555
C7 P3 1_555 1_555
C8 C7 1_555 1_555
C9 H9 1_555 1_555
C10 C9 1_555 1_555
H10 C10 1_555 1_555
C11 C10 1_555 1_555
H11 C11 1_555 1_555
C12 C11 1_555 1_555
C13 C12 1_555 1_555
H12 C13 1_555 1_555
C14 C13 1_555 1_555
H13 C14 1_555 1_555
C15 C14 1_555 1_555
C16 C15 1_555 1_555
H14 C16 1_555 1_555
C17 C16 1_555 1_555
H15 C17 1_555 1_555
C18 N2 1_555 1_555
H16 C18 1_555 1_555
C19 N2 1_555 1_555
C20 N1 1_555 1_555
C21 C7 1_555 1_555
C22 C5 1_555 1_555
P1B O7B 1_555 1_555
O7B U1B_2 1_555 1_555
O8B P1B 1_555 1_555
O9B P1B 1_555 1_555
C1B P1B 1_555 1_555
H1B C1B 1_555 1_555
H2B C1B 1_555 1_555
C2B C2 1_555 1_555
H3B C2B 1_555 1_555
H4B C2B 1_555 1_555
P2B O10B 1_555 1_555
O10B U2B_2 1_555 1_555
O11B P2B 1_555 1_555
O12B P2B 1_555 1_555
C3B P2B 1_555 1_555
H5B C3B 1_555 1_555
H6B C3B 1_555 1_555
C4B C4 1_555 1_555
H7B C4B 1_555 1_555
H8B C4B 1_555 1_555
P3B O13B 1_555 1_555
O13B U2B 1_555 1_555
O14B P3B 1_555 1_555
O15B P3B 1_555 1_555
C7B P3B 1_555 1_555
C8B C21 1_555 1_555
C21B C8 1_555 1_555
P4B O16B 1_555 1_555
O16B U1B_3 1_555 1_555
O17B P4B 1_555 1_555
O18B P4B 1_555 1_555
C5B P4B 1_555 1_555
C6B C22 1_555 1_555
C22B C6 1_555 1_555
U1B O1B 1_555 1_555
U2B O14B 1_555 1_555
Zn1B N1B 1_555 1_555
N1B C9B 1_555 1_555
N2B Zn1B 1_555 1_555
O1B Zn1B 1_555 1_555
O2B U1B 1_555 1_555
O3B U2B 1_555 1_555
O4B U2B 1_555 1_555
O19B Zn1B 1_555 1_555
O20B Zn1B 1_555 1_555
C9B H9B 1_555 1_555
C10B C9B 1_555 1_555
H10B C10B 1_555 1_555
C11B C10B 1_555 1_555
H11B C11B 1_555 1_555
C12B C11B 1_555 1_555
C13B C12B 1_555 1_555
H12B C13B 1_555 1_555
C14B C13B 1_555 1_555
H13B C14B 1_555 1_555
C15B C14B 1_555 1_555
C16B C15B 1_555 1_555
H14B C16B 1_555 1_555
C17B C16B 1_555 1_555
H15B C17B 1_555 1_555
C18B N2B 1_555 1_555
H16B C18B 1_555 1_555
C19B N2B 1_555 1_555
C20B N1B 1_555 1_555
U3C O9 1_555 1_555
O5C U3C 1_555 1_555
O6C U3C 1_555 1_555
U1A O14B 1_555 1_555
U1A_2 O11B 1_555 1_555
U1B_3 O17B 1_555 1_555
U1C O14 1_555 1_555
U1C_2 O11 1_555 1_555
U2A O16B 1_555 1_555
U2A_2 O8B 1_555 1_555
U2C O8 1_555 1_555
U2C_2 O16 1_555 1_555
U3_2 O15 1_555 1_555
U3A O9B 1_555 1_555
U3A_2 O12B 1_555 1_555
U3B O15B 1_555 1_555
U3B_2 O18B 1_555 1_555
U3C_2 O12 1_555 1_555
O7B_2 U1B 1_555 1_555
O8A U2B 1_555 1_555
O8C U2 1_555 1_555
O9C U3 1_555 1_555
O10B_2 U2B 1_555 1_555
O11A U1B 1_555 1_555
O11C U1 1_555 1_555
O12_2 U3C 1_555 1_555
O12C U3 1_555 1_555
O14A U1B 1_555 1_555
O14C U1 1_555 1_555
O15_2 U3 1_555 1_555
O15C U3C 1_555 1_555
O16A U2B 1_555 1_555
O16B_2 U1B 1_555 1_555
O16C U2 1_555 1_555
O17B_2 U1B 1_555 1_555
O18C U3C 1_555 1_555
P3 O14 1_555 1_555
P4 O17 1_555 1_555
P4 O18 1_555 1_555
C12 C20 1_555 1_555
C15 C19 1_555 1_555
C17 C18 1_555 1_555
C19 C20 1_555 1_555
C1B C2B 1_555 1_555
C3B C4B 1_555 1_555
C7B C8B 1_555 1_555
C7B C21B 1_555 1_555
C5B C6B 1_555 1_555
C5B C22B 1_555 1_555
Zn1B O3B 1_555 1_555
C12B C20B 1_555 1_555
C15B C19B 1_555 1_555
C17B C18B 1_555 1_555
C19B C20B 1_555 1_555
U1A O16A 1_555 1_555
U1C O16C 1_555 1_555
U2C_2 O14C 1_555 1_555

#END
