
#######################################################################
#
#                 Cambridge Crystallographic Data Centre
#                                CCDC 
#
#######################################################################
#
# If this CIF has been generated from an entry in the Cambridge 
# Structural Database, then it will include bibliographic, chemical, 
# crystal, experimental, refinement or atomic coordinate data resulting 
# from the CCDC's data processing and validation procedures.
#
#######################################################################

data_MIKFET
_symmetry_cell_setting           monoclinic
_symmetry_space_group_name_H-M   'P 21/c'
_symmetry_Int_Tables_number      14
_space_group_name_Hall           '-P 2ybc'
loop_
_symmetry_equiv_pos_site_id
_symmetry_equiv_pos_as_xyz
1 x,y,z
2 -x,1/2+y,1/2-z
3 -x,-y,-z
4 x,1/2-y,1/2+z
_cell_length_a                   10.3814(9)
_cell_length_b                   21.4752(18)
_cell_length_c                   8.0597(7)
_cell_angle_alpha                90
_cell_angle_beta                 100.074(2)
_cell_angle_gamma                90
_cell_volume                     1769.15
loop_
_atom_site_label
_atom_site_type_symbol
_atom_site_fract_x
_atom_site_fract_y
_atom_site_fract_z
U1 U 0.23734(2) 0.465960(13) -0.01438(3)
Zn1 Zn 0.26962(8) 0.63056(4) 0.13723(11)
P1 P 0.08448(18) 0.53710(9) 0.2864(2)
P2 P 0.50410(18) 0.53986(9) 0.2468(2)
C1 C 0.2588(8) 0.7672(4) 0.1267(10)
C2 C 0.2934(9) 0.8294(4) 0.1509(11)
H1 H 0.2432 0.8607 0.0915
C3 C 0.4047(9) 0.8433(4) 0.2660(11)
H2 H 0.4300 0.8846 0.2847
C4 C 0.4779(8) 0.7972(4) 0.3525(11)
H3 H 0.5521 0.8063 0.4313
C5 C 0.4375(8) 0.7360(4) 0.3187(10)
H4 H 0.4878 0.7040 0.3742
C6 C 0.1430(8) 0.7464(3) 0.0047(10)
C7 C 0.0259(7) 0.6619(4) -0.1173(10)
H5 H 0.0166 0.6189 -0.1293
C8 C -0.0701(8) 0.7000(5) -0.2075(10)
H6 H -0.1421 0.6829 -0.2776
C9 C -0.0562(8) 0.7624(4) -0.1910(11)
H7 H -0.1183 0.7889 -0.2513
C10 C 0.0514(8) 0.7867(4) -0.0833(11)
H8 H 0.0618 0.8295 -0.0705
C11 C 0.0576(7) 0.5230(3) 0.4958(9)
H9 H 0.1370 0.5061 0.5618
H10 H 0.0393 0.5623 0.5463
C12 C 0.4893(7) 0.5329(3) 0.4647(9)
H11 H 0.5523 0.5605 0.5307
H12 H 0.4027 0.5467 0.4778
N1 N 0.1302(6) 0.6840(3) -0.0150(7)
N2 N 0.3310(6) 0.7217(3) 0.2113(8)
O1 O 0.4268(4) 0.4846(2) 0.1581(6)
O2 O 0.2618(5) 0.3846(3) 0.0233(6)
O3 O 0.1848(4) 0.5889(2) 0.3042(6)
O4 O -0.0460(5) 0.5576(3) 0.1820(6)
O5 O 0.4498(4) 0.6023(2) 0.1792(6)
O6 O 0.1336(5) 0.4769(2) 0.2147(6)
O7 O 0.6488(5) 0.5339(2) 0.2337(6)
O8 O 0.2128(5) 0.5487(2) -0.0470(6)
P1B P -0.08448(18) 0.46290(9) 0.7136(2)
C11B C -0.0576(7) 0.4770(3) 0.5042(9)
H9B H -0.1370 0.4939 0.4382
H10B H -0.0393 0.4377 0.4537
O3B O -0.1848(4) 0.4111(2) 0.6958(6)
O6B O -0.1336(5) 0.5231(2) 0.7853(6)
O4B O 0.0460(5) 0.4424(3) 0.8180(6)
P2B P 0.49590(18) 0.46014(9) 0.7532(2)
C12B C 0.5107(7) 0.4671(3) 0.5353(9)
H11B H 0.4477 0.4395 0.4693
H12B H 0.5973 0.4533 0.5222
O1B O 0.5732(4) 0.5154(2) 0.8419(6)
O5B O 0.5502(4) 0.3977(2) 0.8208(6)
O7B O 0.3512(5) 0.4661(2) 0.7663(6)
U1B U -0.23734(2) 0.534040(13) 0.01438(3)
Zn1B Zn -0.26962(8) 0.36944(4) -0.13723(11)
C1B C -0.2588(8) 0.2328(4) -0.1267(10)
C2B C -0.2934(9) 0.1706(4) -0.1509(11)
H1B H -0.2432 0.1393 -0.0915
C3B C -0.4047(9) 0.1567(4) -0.2660(11)
H2B H -0.4300 0.1154 -0.2847
C4B C -0.4779(8) 0.2028(4) -0.3525(11)
H3B H -0.5521 0.1937 -0.4313
C5B C -0.4375(8) 0.2640(4) -0.3187(10)
H4B H -0.4878 0.2960 -0.3742
C6B C -0.1430(8) 0.2536(3) -0.0047(10)
C7B C -0.0259(7) 0.3381(4) 0.1173(10)
H5B H -0.0166 0.3811 0.1293
C8B C 0.0701(8) 0.3000(5) 0.2075(10)
H6B H 0.1421 0.3171 0.2776
C9B C 0.0562(8) 0.2376(4) 0.1910(11)
H7B H 0.1183 0.2111 0.2513
C10B C -0.0514(8) 0.2133(4) 0.0833(11)
H8B H -0.0618 0.1705 0.0705
N1B N -0.1302(6) 0.3160(3) 0.0150(7)
N2B N -0.3310(6) 0.2783(3) -0.2113(8)
O2B O -0.2618(5) 0.6154(3) -0.0233(6)
O8B O -0.2128(5) 0.4513(2) 0.0470(6)
U1_2 U 0.23734(2) 0.465960(13) 0.98562(3)
U1B_2 U -0.23734(2) 0.534040(13) 1.01438(3)
U1B_3 U 0.76266(2) 0.534040(13) 0.01438(3)
U1B_4 U 0.76266(2) 0.534040(13) 1.01438(3)
Zn1B_2 Zn -0.26962(8) 0.36944(4) 0.86277(11)
Zn1B_3 Zn 0.73038(8) 0.36944(4) 0.86277(11)
O1B_2 O -0.4268(4) 0.5154(2) -0.1581(6)
O3B_2 O -0.1848(4) 0.4111(2) -0.3042(6)
O4B_2 O 0.0460(5) 0.4424(3) -0.1820(6)
O5B_2 O -0.4498(4) 0.3977(2) -0.1792(6)
O6B_2 O -0.1336(5) 0.5231(2) -0.2147(6)
O7_2 O -0.3512(5) 0.5339(2) 0.2337(6)
O7B_2 O 0.3512(5) 0.4661(2) -0.2337(6)
O9 O 0.231(3) 0.383(2) 0.498(5)
loop_
_geom_bond_atom_site_label_1
_geom_bond_atom_site_label_2
_geom_bond_site_symmetry_1
_geom_bond_site_symmetry_2
U1 O1 1_555 1_555
Zn1 N1 1_555 1_555
P1 C11 1_555 1_555
P2 C12 1_555 1_555
C1 C2 1_555 1_555
C2 H1 1_555 1_555
C3 C2 1_555 1_555
H2 C3 1_555 1_555
C4 C3 1_555 1_555
H3 C4 1_555 1_555
C5 C4 1_555 1_555
H4 C5 1_555 1_555
C6 C1 1_555 1_555
C7 H5 1_555 1_555
C8 C7 1_555 1_555
H6 C8 1_555 1_555
C9 C8 1_555 1_555
H7 C9 1_555 1_555
C10 C6 1_555 1_555
H8 C10 1_555 1_555
C11 H9 1_555 1_555
H10 C11 1_555 1_555
C12 H11 1_555 1_555
H12 C12 1_555 1_555
N1 C6 1_555 1_555
N2 Zn1 1_555 1_555
O1 P2 1_555 1_555
O2 U1 1_555 1_555
O3 Zn1 1_555 1_555
O4 P1 1_555 1_555
O5 Zn1 1_555 1_555
O6 U1 1_555 1_555
O7 P2 1_555 1_555
O8 U1 1_555 1_555
P1B C11B 1_555 1_555
C11B C11 1_555 1_555
H9B C11B 1_555 1_555
H10B C11B 1_555 1_555
O3B P1B 1_555 1_555
O6B P1B 1_555 1_555
O4B P1B 1_555 1_555
P2B C12B 1_555 1_555
C12B C12 1_555 1_555
H11B C12B 1_555 1_555
H12B C12B 1_555 1_555
O1B P2B 1_555 1_555
O5B P2B 1_555 1_555
O7B P2B 1_555 1_555
U1B O4 1_555 1_555
Zn1B N1B 1_555 1_555
C1B C2B 1_555 1_555
C2B H1B 1_555 1_555
C3B C2B 1_555 1_555
H2B C3B 1_555 1_555
C4B C3B 1_555 1_555
H3B C4B 1_555 1_555
C5B C4B 1_555 1_555
H4B C5B 1_555 1_555
C6B C1B 1_555 1_555
C7B H5B 1_555 1_555
C8B C7B 1_555 1_555
H6B C8B 1_555 1_555
C9B C8B 1_555 1_555
H7B C9B 1_555 1_555
C10B C6B 1_555 1_555
H8B C10B 1_555 1_555
N1B C6B 1_555 1_555
N2B Zn1B 1_555 1_555
O2B U1B 1_555 1_555
O8B U1B 1_555 1_555
U1_2 O4B 1_555 1_555
U1B_2 O6B 1_555 1_555
U1B_3 O7 1_555 1_555
U1B_4 O1B 1_555 1_555
Zn1B_2 O3B 1_555 1_555
Zn1B_3 O5B 1_555 1_555
O1B_2 U1B 1_555 1_555
O3B_2 Zn1B 1_555 1_555
O4B_2 U1 1_555 1_555
O5B_2 Zn1B 1_555 1_555
O6B_2 U1B 1_555 1_555
O7_2 U1B 1_555 1_555
O7B_2 U1 1_555 1_555
Zn1 O8 1_555 1_555
P1 O3 1_555 1_555
P1 O6 1_555 1_555
P2 O5 1_555 1_555
C1 N2 1_555 1_555
C5 N2 1_555 1_555
C7 N1 1_555 1_555
C9 C10 1_555 1_555
O7B U1_2 1_555 1_555
Zn1B O8B 1_555 1_555
C1B N2B 1_555 1_555
C5B N2B 1_555 1_555
C7B N1B 1_555 1_555
C9B C10B 1_555 1_555

#END
