
#######################################################################
#
#                 Cambridge Crystallographic Data Centre
#                                CCDC 
#
#######################################################################
#
# If this CIF has been generated from an entry in the Cambridge 
# Structural Database, then it will include bibliographic, chemical, 
# crystal, experimental, refinement or atomic coordinate data resulting 
# from the CCDC's data processing and validation procedures.
#
#######################################################################

data_MIKGUK
_symmetry_cell_setting           monoclinic
_symmetry_space_group_name_H-M   'P 21/n'
_symmetry_Int_Tables_number      14
_space_group_name_Hall           '-P 2yn'
loop_
_symmetry_equiv_pos_site_id
_symmetry_equiv_pos_as_xyz
1 x,y,z
2 1/2-x,1/2+y,1/2-z
3 -x,-y,-z
4 1/2+x,1/2-y,1/2+z
_cell_length_a                   9.8628(6)
_cell_length_b                   18.1938(11)
_cell_length_c                   15.8811(9)
_cell_angle_alpha                90
_cell_angle_beta                 106.8580(10)
_cell_angle_gamma                90
_cell_volume                     2727.27
loop_
_atom_site_label
_atom_site_type_symbol
_atom_site_fract_x
_atom_site_fract_y
_atom_site_fract_z
Co1 Co 0.06567(2) 0.031741(13) 0.767162(16)
O1 O 0.21626(13) -0.02307(8) 0.73426(9)
N1 N 0.11745(17) -0.02106(8) 0.89653(10)
C1 C 0.2498(2) -0.01863(13) 0.94917(14)
H1 H 0.3147 0.0109 0.9326
O2 O 0.10439(15) 0.13283(8) 0.83216(10)
H2 H 0.0295 0.1584 0.8235
H3 H 0.1742 0.1600 0.8578
O3 O 0.38793(15) 0.05282(8) 0.80528(10)
N2 N 0.48636(17) -0.40704(9) 0.85641(10)
C2 C 0.2965(2) -0.05754(13) 1.02700(14)
H4 H 0.3903 -0.0540 1.0612
O4 O 0.91388(14) -0.07167(8) 0.69436(10)
C3 C 0.20244(19) -0.10181(10) 1.05357(12)
N3 N 0.38179(16) -0.16006(8) 1.17187(10)
H5 H 0.4393 -0.1344 1.1522
C4 C 0.0631(2) -0.10112(10) 1.00169(12)
H6 H -0.0051 -0.1278 1.0186
O5 O 0.85452(13) 0.02585(7) 0.75684(9)
N4 N 0.54845(17) -0.28773(8) 1.15728(10)
H7 H 0.5006 -0.3276 1.1551
O6 O 0.15185(14) -0.18836(7) 1.15344(9)
C5 C 0.0253(2) -0.06073(11) 0.92471(12)
H8 H -0.0690 -0.0612 0.8908
O7 O 0.65867(19) -0.21338(9) 1.08420(10)
C6 C 0.24367(19) -0.15312(9) 1.13203(12)
C7 C 0.4422(2) -0.20851(10) 1.24691(11)
H9 H 0.3742 -0.2478 1.2468
C8 C 0.4707(3) -0.16576(11) 1.33316(13)
H10 H 0.5290 -0.1233 1.3310
H11 H 0.3816 -0.1483 1.3401
C9 C 0.5455(3) -0.21329(13) 1.41210(14)
H12 H 0.5663 -0.1840 1.4654
H13 H 0.4837 -0.2533 1.4178
C10 C 0.6819(3) -0.24430(13) 1.40113(14)
H14 H 0.7462 -0.2043 1.3996
H15 H 0.7269 -0.2753 1.4512
C11 C 0.6542(2) -0.28878(11) 1.31740(13)
H16 H 0.5966 -0.3312 1.3211
H17 H 0.7435 -0.3064 1.3109
C12 C 0.5783(2) -0.24286(10) 1.23691(12)
H18 H 0.6418 -0.2029 1.2314
C13 C 0.5916(2) -0.26993(10) 1.08809(12)
C14 C 0.55443(19) -0.32131(10) 1.00973(12)
C15 C 0.4744(2) -0.38457(10) 1.00286(13)
H19 H 0.4421 -0.3999 1.0495
C16 C 0.4427(2) -0.42486(10) 0.92549(12)
H20 H 0.3876 -0.4669 0.9217
C17 C 0.6019(3) -0.30295(14) 0.93884(15)
H21 H 0.6574 -0.2612 0.9411
C18 C 0.5669(3) -0.34676(14) 0.86436(15)
H22 H 0.6010 -0.3337 0.8176
C19 C 0.34403(19) -0.00134(10) 0.75743(12)
C20 C 0.44425(19) -0.04652(10) 0.72246(12)
C21 C 0.3991(2) -0.11085(12) 0.67538(16)
H23 H 0.3060 -0.1265 0.6654
C22 C 0.4918(2) -0.15183(13) 0.64321(18)
H24 H 0.4612 -0.1953 0.6127
C23 C 0.6299(2) -0.12817(11) 0.65646(15)
H25 H 0.6919 -0.1556 0.6347
C24 C 0.67573(18) -0.06336(10) 0.70240(12)
C25 C 0.58268(19) -0.02364(9) 0.73559(12)
H26 H 0.6139 0.0192 0.7673
C26 C 0.82339(19) -0.03531(10) 0.71765(12)
Co1_2 Co 1.06567(2) 0.031741(13) 0.767162(16)
Co1A Co 0.43433(2) -0.468259(13) 0.732838(16)
N2A N 0.01364(17) 0.09296(9) 0.64359(10)
O5_2 O -0.14548(13) 0.02585(7) 0.75684(9)
loop_
_geom_bond_atom_site_label_1
_geom_bond_atom_site_label_2
_geom_bond_site_symmetry_1
_geom_bond_site_symmetry_2
Co1 O1 1_555 1_555
O1 C19 1_555 1_555
N1 Co1 1_555 1_555
C1 N1 1_555 1_555
H1 C1 1_555 1_555
O2 Co1 1_555 1_555
H2 O2 1_555 1_555
H3 O2 1_555 1_555
O3 C19 1_555 1_555
N2 C16 1_555 1_555
C2 C1 1_555 1_555
H4 C2 1_555 1_555
O4 C26 1_555 1_555
C3 C2 1_555 1_555
N3 H5 1_555 1_555
C4 C3 1_555 1_555
H6 C4 1_555 1_555
O5 C26 1_555 1_555
N4 H7 1_555 1_555
O6 C6 1_555 1_555
C5 N1 1_555 1_555
H8 C5 1_555 1_555
O7 C13 1_555 1_555
C6 C3 1_555 1_555
C7 N3 1_555 1_555
H9 C7 1_555 1_555
C8 C7 1_555 1_555
H10 C8 1_555 1_555
H11 C8 1_555 1_555
C9 C8 1_555 1_555
H12 C9 1_555 1_555
H13 C9 1_555 1_555
C10 C9 1_555 1_555
H14 C10 1_555 1_555
H15 C10 1_555 1_555
C11 C10 1_555 1_555
H16 C11 1_555 1_555
H17 C11 1_555 1_555
C12 N4 1_555 1_555
H18 C12 1_555 1_555
C13 N4 1_555 1_555
C14 C13 1_555 1_555
C15 C14 1_555 1_555
H19 C15 1_555 1_555
C16 C15 1_555 1_555
H20 C16 1_555 1_555
C17 C14 1_555 1_555
H21 C17 1_555 1_555
C18 N2 1_555 1_555
H22 C18 1_555 1_555
C19 C20 1_555 1_555
C20 C21 1_555 1_555
C21 H23 1_555 1_555
C22 C21 1_555 1_555
H24 C22 1_555 1_555
C23 C22 1_555 1_555
H25 C23 1_555 1_555
C24 C23 1_555 1_555
C25 C20 1_555 1_555
H26 C25 1_555 1_555
C26 C24 1_555 1_555
Co1_2 O5 1_555 1_555
Co1A N2 1_555 1_555
N2A Co1 1_555 1_555
O5_2 Co1 1_555 1_555
N3 C6 1_555 1_555
C4 C5 1_555 1_555
C7 C12 1_555 1_555
C11 C12 1_555 1_555
C17 C18 1_555 1_555
C24 C25 1_555 1_555

#END
