
#######################################################################
#
#                 Cambridge Crystallographic Data Centre
#                                CCDC 
#
#######################################################################
#
# If this CIF has been generated from an entry in the Cambridge 
# Structural Database, then it will include bibliographic, chemical, 
# crystal, experimental, refinement or atomic coordinate data resulting 
# from the CCDC's data processing and validation procedures.
#
#######################################################################

data_MIKGOE
_symmetry_cell_setting           monoclinic
_symmetry_space_group_name_H-M   'P 21/n'
_symmetry_Int_Tables_number      14
_space_group_name_Hall           '-P 2yn'
loop_
_symmetry_equiv_pos_site_id
_symmetry_equiv_pos_as_xyz
1 x,y,z
2 1/2-x,1/2+y,1/2-z
3 -x,-y,-z
4 1/2+x,1/2-y,1/2+z
_cell_length_a                   9.9622(10)
_cell_length_b                   18.3107(18)
_cell_length_c                   15.7167(15)
_cell_angle_alpha                90
_cell_angle_beta                 106.788(2)
_cell_angle_gamma                90
_cell_volume                     2744.77
loop_
_atom_site_label
_atom_site_type_symbol
_atom_site_fract_x
_atom_site_fract_y
_atom_site_fract_z
Cu1 Cu 0.56114(3) 0.027633(15) 0.268714(18)
N1 N 0.5151(2) 0.08606(11) 0.15288(13)
O1 O 0.3480(3) 0.28162(12) -0.07216(14)
O2 O 0.6104(2) 0.13653(11) 0.34122(14)
H1 H 0.5959 0.1591 0.3850
H2 H 0.6661 0.1623 0.3217
N2 N 0.4610(2) 0.21077(11) -0.14636(13)
H3 H 0.5116 0.1723 -0.1441
O3 O 0.85125(18) 0.30899(10) -0.14808(13)
O4 O 0.72280(17) -0.01665(9) 0.24360(12)
N3 N 0.6243(2) 0.33845(11) -0.16505(13)
H4 H 0.5684 0.3646 -0.1450
O5 O 0.90055(18) 0.05582(10) 0.31391(13)
N4 N 0.8919(2) 0.47905(10) 0.10897(13)
O6 O 1.39603(18) -0.07852(10) 0.18072(13)
O7 O 1.35719(16) 0.01891(9) 0.25452(11)
C1 C 0.8512(2) 0.00379(13) 0.26475(16)
C2 C 0.7620(2) 0.34513(12) -0.12626(15)
C3 C 0.4289(3) 0.25560(13) -0.22675(16)
H5 H 0.3675 0.2955 -0.2197
C4 C 1.1674(2) -0.06247(13) 0.19752(16)
C5 C 0.9435(3) 0.39822(14) 0.00313(16)
H6 H 1.0102 0.3714 -0.0144
C6 C 0.8051(3) 0.39771(13) -0.04858(15)
C7 C 0.5347(3) 0.11222(14) 0.00757(17)
H7 H 0.5697 0.0988 -0.0390
C8 C 1.0817(2) -0.02186(12) 0.23543(17)
H8 H 1.1179 0.0192 0.2691
C9 C 0.5627(2) 0.28929(14) -0.23955(15)
H9 H 0.6297 0.2501 -0.2397
C10 C 0.4525(3) 0.17414(14) 0.00107(16)
C11 C 1.3174(2) -0.03987(13) 0.21064(16)
C12 C 0.3498(3) 0.21031(15) -0.30753(18)
H10 H 0.4047 0.1675 -0.3118
H11 H 0.2616 0.1939 -0.2997
C13 C 0.4161(3) 0.22638(14) -0.07696(16)
C14 C 0.5642(3) 0.07032(14) 0.08445(16)
H12 H 0.6209 0.0293 0.0884
C15 C 0.8902(3) -0.10321(17) 0.1737(2)
H13 H 0.7969 -0.1164 0.1644
C16 C 0.7127(3) 0.44340(16) -0.02204(17)
H14 H 0.6199 0.4475 -0.0567
C17 C 0.4330(3) 0.14518(17) 0.14545(19)
H15 H 0.3967 0.1566 0.1921
C18 C 0.3212(4) 0.25387(17) -0.39272(19)
H16 H 0.2588 0.2941 -0.3908
H17 H 0.2749 0.2229 -0.4426
C19 C 0.5319(3) 0.33115(15) -0.32731(18)
H18 H 0.4748 0.3735 -0.3247
H19 H 0.6193 0.3482 -0.3357
C20 C 0.9429(2) -0.04161(14) 0.22378(16)
C21 C 0.9829(2) 0.43835(13) 0.08058(16)
H20 H 1.0763 0.4373 0.1146
C22 C 0.7598(3) 0.48233(16) 0.05584(18)
H21 H 0.6966 0.5125 0.0725
C23 C 0.4003(3) 0.18975(17) 0.07153(19)
H22 H 0.3431 0.2303 0.0691
C24 C 1.1144(3) -0.12499(16) 0.1490(2)
H23 H 1.1716 -0.1531 0.1245
C25 C 0.9761(3) -0.14531(19) 0.1374(3)
H24 H 0.9408 -0.1872 0.1052
C26 C 0.4557(4) 0.28359(18) -0.40597(19)
H25 H 0.4342 0.3122 -0.4602
H26 H 0.5157 0.2434 -0.4119
Cu1_2 Cu 1.56114(3) 0.027633(15) 0.268714(18)
Cu1A Cu 0.93886(3) 0.527633(15) 0.231286(18)
N4A N 0.6081(2) -0.02095(10) 0.39103(13)
O6_2 O 0.39603(18) -0.07852(10) 0.18072(13)
O7_2 O 0.35719(16) 0.01891(9) 0.25452(11)
loop_
_geom_bond_atom_site_label_1
_geom_bond_atom_site_label_2
_geom_bond_site_symmetry_1
_geom_bond_site_symmetry_2
Cu1 N1 1_555 1_555
N1 C14 1_555 1_555
O1 C13 1_555 1_555
O2 Cu1 1_555 1_555
H1 O2 1_555 1_555
H2 O2 1_555 1_555
N2 H3 1_555 1_555
O3 C2 1_555 1_555
O4 Cu1 1_555 1_555
N3 H4 1_555 1_555
O5 C1 1_555 1_555
N4 C21 1_555 1_555
O6 C11 1_555 1_555
O7 C11 1_555 1_555
C1 O4 1_555 1_555
C2 N3 1_555 1_555
C3 N2 1_555 1_555
H5 C3 1_555 1_555
C4 C8 1_555 1_555
C5 H6 1_555 1_555
C6 C2 1_555 1_555
C7 H7 1_555 1_555
C8 H8 1_555 1_555
C9 N3 1_555 1_555
H9 C9 1_555 1_555
C10 C7 1_555 1_555
C11 C4 1_555 1_555
C12 C3 1_555 1_555
H10 C12 1_555 1_555
H11 C12 1_555 1_555
C13 N2 1_555 1_555
C14 C7 1_555 1_555
H12 C14 1_555 1_555
C15 H13 1_555 1_555
C16 C6 1_555 1_555
H14 C16 1_555 1_555
C17 N1 1_555 1_555
H15 C17 1_555 1_555
C18 C12 1_555 1_555
H16 C18 1_555 1_555
H17 C18 1_555 1_555
C19 C9 1_555 1_555
H18 C19 1_555 1_555
H19 C19 1_555 1_555
C20 C1 1_555 1_555
C21 C5 1_555 1_555
H20 C21 1_555 1_555
C22 N4 1_555 1_555
H21 C22 1_555 1_555
C23 C10 1_555 1_555
H22 C23 1_555 1_555
C24 C4 1_555 1_555
H23 C24 1_555 1_555
C25 C15 1_555 1_555
H24 C25 1_555 1_555
C26 C18 1_555 1_555
H25 C26 1_555 1_555
H26 C26 1_555 1_555
Cu1_2 O6 1_555 1_555
Cu1A N4 1_555 1_555
N4A Cu1 1_555 1_555
O6_2 Cu1 1_555 1_555
O7_2 Cu1 1_555 1_555
O7 Cu1_2 1_555 1_555
C3 C9 1_555 1_555
C5 C6 1_555 1_555
C8 C20 1_555 1_555
C10 C13 1_555 1_555
C15 C20 1_555 1_555
C16 C22 1_555 1_555
C17 C23 1_555 1_555
C19 C26 1_555 1_555
C24 C25 1_555 1_555

#END
