
#######################################################################
#
#                 Cambridge Crystallographic Data Centre
#                                CCDC 
#
#######################################################################
#
# If this CIF has been generated from an entry in the Cambridge 
# Structural Database, then it will include bibliographic, chemical, 
# crystal, experimental, refinement or atomic coordinate data resulting 
# from the CCDC's data processing and validation procedures.
#
#######################################################################

data_MIKHOF
_symmetry_cell_setting           triclinic
_symmetry_space_group_name_H-M   'P -1'
_symmetry_Int_Tables_number      2
_space_group_name_Hall           '-P 1'
loop_
_symmetry_equiv_pos_site_id
_symmetry_equiv_pos_as_xyz
1 x,y,z
2 -x,-y,-z
_cell_length_a                   10.1518(6)
_cell_length_b                   11.2296(7)
_cell_length_c                   12.6969(7)
_cell_angle_alpha                86.4710(10)
_cell_angle_beta                 79.7310(10)
_cell_angle_gamma                66.1370(10)
_cell_volume                     1302.43
loop_
_atom_site_label
_atom_site_type_symbol
_atom_site_fract_x
_atom_site_fract_y
_atom_site_fract_z
Cd1 Cd 0.082781(17) 0.123122(15) 0.046821(12)
N1 N 0.0862(2) 0.01310(18) 0.20928(14)
O1 O -0.11003(18) 0.24448(17) -0.03548(15)
C1 C -0.0127(3) -0.0362(2) 0.24765(19)
H1 H -0.0891 -0.0209 0.2106
O2 O -0.76938(18) 0.18393(18) -0.09213(14)
N2 N 1.0054(2) -0.67864(19) 0.15174(16)
C2 C -0.0061(3) -0.1087(3) 0.3398(2)
H2 H -0.0783 -0.1394 0.3651
O3 O -0.67958(18) 0.12207(17) 0.05724(14)
N3 N 0.3886(2) -0.2099(2) 0.47002(15)
H3 H 0.3613 -0.2721 0.4643
C3 C 0.1089(3) -0.1352(3) 0.3937(2)
H4 H 0.1161 -0.1852 0.4553
O4 O -0.15899(17) 0.08174(15) 0.03941(12)
N4 N 0.6975(2) -0.39286(19) 0.44149(16)
H5 H 0.7044 -0.3316 0.3997
C4 C 0.2142(2) -0.0862(2) 0.35483(18)
O5 O 0.3964(2) -0.02441(19) 0.39599(16)
C5 C 0.1970(2) -0.0115(2) 0.26331(18)
H6 H 0.2654 0.0233 0.2379
O6 O 0.7572(2) -0.60910(17) 0.45789(15)
C6 C 0.3414(3) -0.1048(2) 0.40909(18)
C7 C 0.4859(3) -0.2218(2) 0.54660(18)
H7 H 0.5329 -0.1609 0.5263
C8 C 0.3947(3) -0.1841(3) 0.6577(2)
H8 H 0.3433 -0.2407 0.6767
H9 H 0.3223 -0.0955 0.6563
C9 C 0.4872(3) -0.1936(3) 0.7425(2)
H10 H 0.5299 -0.1298 0.7284
H11 H 0.4256 -0.1741 0.8124
C10 C 0.6063(4) -0.3269(3) 0.7431(2)
H12 H 0.5635 -0.3890 0.7673
H13 H 0.6688 -0.3281 0.7930
C11 C 0.6977(3) -0.3676(3) 0.6327(2)
H14 H 0.7687 -0.4566 0.6352
H15 H 0.7508 -0.3125 0.6127
C12 C 0.6040(3) -0.3580(2) 0.54709(18)
H16 H 0.5574 -0.4197 0.5644
C13 C 0.7717(3) -0.5156(2) 0.4084(2)
C14 C 0.8765(2) -0.5376(2) 0.30407(19)
C15 C 0.9165(3) -0.6510(2) 0.2463(2)
H17 H 0.8793 -0.7115 0.2750
C16 C 0.9362(3) -0.4497(2) 0.2621(2)
H18 H 0.9150 -0.3739 0.2997
C17 C 1.0271(3) -0.4760(2) 0.1643(2)
H19 H 1.0673 -0.4179 0.1344
C18 C 1.0572(3) -0.5899(2) 0.1119(2)
H20 H 1.1169 -0.6062 0.0452
C19 C -0.1918(2) 0.1841(2) -0.01584(18)
C20 C -0.3312(2) 0.2341(2) -0.06127(19)
C21 C -0.3537(3) 0.3276(3) -0.1409(3)
H21 H -0.2856 0.3638 -0.1626
C22 C -0.4776(4) 0.3667(3) -0.1879(3)
H22 H -0.4916 0.4278 -0.2423
C23 C -0.5809(3) 0.3150(3) -0.1538(3)
H23 H -0.6642 0.3419 -0.1852
C24 C -0.5608(2) 0.2233(2) -0.07304(19)
C25 C -0.6752(2) 0.1712(2) -0.03339(19)
C26 C -0.4344(2) 0.1819(2) -0.02864(17)
H24 H -0.4187 0.1184 0.0237
Cd1_2 Cd -0.917219(17) 0.123122(15) 0.046821(12)
Cd1_3 Cd 1.082781(17) -0.876878(15) 0.046821(12)
Cd1A Cd -0.082781(17) -0.123122(15) -0.046821(12)
O2_2 O 0.23062(18) 0.18393(18) -0.09213(14)
N2_2 N 0.0054(2) 0.32136(19) 0.15174(16)
O3_2 O 0.32042(18) 0.12207(17) 0.05724(14)
O4A O 0.15899(17) -0.08174(15) -0.03941(12)
O7 O -0.7014(2) 0.16043(18) -0.31763(15)
H25 H -0.7117 0.1589 -0.2497
H26 H -0.6131 0.1082 -0.3374
loop_
_geom_bond_atom_site_label_1
_geom_bond_atom_site_label_2
_geom_bond_site_symmetry_1
_geom_bond_site_symmetry_2
Cd1 N1 1_555 1_555
N1 C1 1_555 1_555
O1 Cd1 1_555 1_555
C1 H1 1_555 1_555
O2 C25 1_555 1_555
N2 C15 1_555 1_555
C2 C1 1_555 1_555
H2 C2 1_555 1_555
O3 C25 1_555 1_555
N3 H3 1_555 1_555
C3 C2 1_555 1_555
H4 C3 1_555 1_555
O4 Cd1 1_555 1_555
N4 H5 1_555 1_555
C4 C3 1_555 1_555
O5 C6 1_555 1_555
C5 N1 1_555 1_555
H6 C5 1_555 1_555
O6 C13 1_555 1_555
C6 N3 1_555 1_555
C7 N3 1_555 1_555
H7 C7 1_555 1_555
C8 C7 1_555 1_555
H8 C8 1_555 1_555
H9 C8 1_555 1_555
C9 C8 1_555 1_555
H10 C9 1_555 1_555
H11 C9 1_555 1_555
C10 C9 1_555 1_555
H12 C10 1_555 1_555
H13 C10 1_555 1_555
C11 C10 1_555 1_555
H14 C11 1_555 1_555
H15 C11 1_555 1_555
C12 N4 1_555 1_555
H16 C12 1_555 1_555
C13 N4 1_555 1_555
C14 C13 1_555 1_555
C15 C14 1_555 1_555
H17 C15 1_555 1_555
C16 C14 1_555 1_555
H18 C16 1_555 1_555
C17 C16 1_555 1_555
H19 C17 1_555 1_555
C18 N2 1_555 1_555
H20 C18 1_555 1_555
C19 O1 1_555 1_555
C20 C19 1_555 1_555
C21 C20 1_555 1_555
H21 C21 1_555 1_555
C22 C21 1_555 1_555
H22 C22 1_555 1_555
C23 C22 1_555 1_555
H23 C23 1_555 1_555
C24 C23 1_555 1_555
C25 C24 1_555 1_555
C26 C20 1_555 1_555
H24 C26 1_555 1_555
O7 H25 1_555 1_555
H26 O7 1_555 1_555
Cd1_2 O2 1_555 1_555
Cd1_3 N2 1_555 1_555
Cd1A O4 1_555 1_555
O2_2 Cd1 1_555 1_555
N2_2 Cd1 1_555 1_555
O3_2 Cd1 1_555 1_555
O4A Cd1 1_555 1_555
O3 Cd1_2 1_555 1_555
O4 C19 1_555 1_555
C4 C5 1_555 1_555
C4 C6 1_555 1_555
C7 C12 1_555 1_555
C11 C12 1_555 1_555
C17 C18 1_555 1_555
C24 C26 1_555 1_555
Cd1A O4A 1_555 1_555

#END
