
#######################################################################
#
#                 Cambridge Crystallographic Data Centre
#                                CCDC 
#
#######################################################################
#
# If this CIF has been generated from an entry in the Cambridge 
# Structural Database, then it will include bibliographic, chemical, 
# crystal, experimental, refinement or atomic coordinate data resulting 
# from the CCDC's data processing and validation procedures.
#
#######################################################################

data_MIKHUL
_symmetry_cell_setting           triclinic
_symmetry_space_group_name_H-M   'P -1'
_symmetry_Int_Tables_number      2
_space_group_name_Hall           '-P 1'
loop_
_symmetry_equiv_pos_site_id
_symmetry_equiv_pos_as_xyz
1 x,y,z
2 -x,-y,-z
_cell_length_a                   9.8769(11)
_cell_length_b                   12.6544(14)
_cell_length_c                   16.4665(18)
_cell_angle_alpha                109.065(2)
_cell_angle_beta                 91.359(2)
_cell_angle_gamma                106.942(2)
_cell_volume                     1844.62
loop_
_atom_site_label
_atom_site_type_symbol
_atom_site_fract_x
_atom_site_fract_y
_atom_site_fract_z
Cu1 Cu 0.49351(3) 0.10972(3) 0.021312(19)
O1 O 0.2953(2) 0.01623(18) -0.03334(14)
N1 N -0.2852(3) -0.5795(2) -0.49509(16)
Cu2 Cu -0.33315(4) -0.61292(3) -0.38764(2)
O2 O 0.3029(2) -0.16848(17) -0.06994(14)
N2 N -0.2251(3) -0.2920(2) -0.62838(17)
H1 H -0.1503 -0.3109 -0.6440
O3 O -0.2943(2) -0.45040(17) -0.31324(13)
N3 N -0.3568(3) -0.3082(2) -0.79056(16)
H2 H -0.4434 -0.3070 -0.7899
N4 N -0.5468(3) -0.7222(2) -0.95037(15)
O4 O -0.0917(2) -0.4841(2) -0.29030(17)
O5 O -0.3719(2) -0.69587(17) -0.29931(12)
C1 C -0.4138(3) -0.9990(2) -0.23741(17)
O6 O -0.3315(3) -0.78017(19) -0.43019(13)
O7 O -0.4495(2) -1.09176(17) -0.13312(12)
O8 O -0.4501(2) -0.90455(17) -0.09438(12)
O9 O -0.4262(2) -0.33865(19) -0.56682(14)
C2 C -0.3856(3) -0.8949(2) -0.25412(17)
H3 H -0.3754 -0.8245 -0.2092
O10 O -0.2124(3) -0.4136(2) -0.8497(2)
C3 C -0.3559(3) -0.7854(3) -0.35660(18)
C4 C -0.2794(3) -0.4614(3) -0.58354(19)
C5 C -0.2518(4) -0.0933(3) -0.7538(2)
H4 H -0.3454 -0.0854 -0.7440
H5 H -0.2410 -0.1024 -0.8139
C6 C -0.3724(3) -0.8955(3) -0.33824(18)
C7 C 0.0924(3) -0.1381(2) -0.11577(17)
C8 C -0.2453(4) -0.1885(3) -0.6421(2)
H6 H -0.3390 -0.1836 -0.6265
C9 C 0.0311(3) -0.2551(2) -0.16893(17)
H7 H 0.0808 -0.3085 -0.1735
C10 C -0.4616(3) -0.5112(2) -0.88384(19)
C11 C 0.2410(3) -0.0943(2) -0.06922(16)
C12 C -0.1659(3) -0.4186(3) -0.27617(19)
C13 C -0.1041(3) -0.2930(2) -0.21533(18)
C14 C -0.4427(3) -0.6218(2) -0.90947(19)
H8 H -0.3523 -0.6258 -0.8973
C15 C -0.4396(3) -0.9983(2) -0.14761(17)
C16 C -0.5977(3) -0.5069(3) -0.9023(2)
H9 H -0.6157 -0.4351 -0.8855
C17 C -0.4266(4) -1.1035(3) -0.30442(19)
H10 H -0.4459 -1.1735 -0.2931
C18 C 0.0153(3) -0.0598(3) -0.10828(19)
H11 H 0.0556 0.0189 -0.0732
C19 C -0.2422(3) -0.2021(2) -0.73746(19)
H12 H -0.1510 -0.2129 -0.7535
C20 C -0.3333(4) -0.4065(3) -0.8398(2)
C21 C -0.1800(3) -0.2142(3) -0.2054(2)
H13 H -0.2718 -0.2398 -0.2347
C22 C -0.3167(3) -0.3577(2) -0.59313(18)
C23 C -0.3100(3) -0.4881(2) -0.50978(19)
H14 H -0.3497 -0.4405 -0.4683
C24 C -0.1205(3) -0.0979(3) -0.1525(2)
H15 H -0.1717 -0.0453 -0.1465
C25 C -0.4110(4) -1.1045(3) -0.3877(2)
H16 H -0.4186 -1.1747 -0.4322
C26 C -0.1315(4) -0.0769(3) -0.5847(2)
H17 H -0.0379 -0.0834 -0.5965
H18 H -0.1390 -0.0684 -0.5244
C27 C -0.7044(4) -0.6093(3) -0.9454(2)
H19 H -0.7956 -0.6080 -0.9592
C28 C -0.6759(3) -0.7139(3) -0.9680(2)
H20 H -0.7499 -0.7829 -0.9971
C29 C -0.3839(4) -1.0005(3) -0.40474(19)
H21 H -0.3733 -1.0010 -0.4608
C30 C -0.1378(4) 0.0179(3) -0.6953(2)
H22 H -0.1501 0.0859 -0.7058
H23 H -0.0442 0.0135 -0.7090
C31 C -0.2299(5) -0.6484(3) -0.5554(3)
H24 H -0.2140 -0.7130 -0.5466
C32 C -0.2205(5) -0.5327(3) -0.6450(3)
H25 H -0.1981 -0.5176 -0.6955
C33 C -0.1960(6) -0.6269(4) -0.6296(3)
H26 H -0.1562 -0.6759 -0.6699
C34 C -0.1464(5) 0.0335(3) -0.6001(2)
H27 H -0.2371 0.0437 -0.5847
H28 H -0.0705 0.1030 -0.5640
Cu1_2 Cu -0.50649(3) -0.89028(3) -0.978688(19)
Cu1_3 Cu -0.50649(3) -0.89028(3) 0.021312(19)
Cu1A Cu -0.49351(3) -1.10972(3) -0.021312(19)
Cu1A_2 Cu 0.50649(3) -0.10972(3) -0.021312(19)
Cu2A Cu -0.66685(4) -0.38708(3) -0.61236(2)
O2A O 0.6971(2) 0.16848(17) 0.06994(14)
N4_2 N 0.4532(3) 0.2778(2) 0.04963(15)
O7A O 0.4495(2) 0.09176(17) 0.13312(12)
O8_2 O 0.5499(2) 0.09545(17) -0.09438(12)
O9A O -0.5738(2) -0.66135(19) -0.43318(14)
O11 O 0.0193(3) -0.3226(3) -0.7100(3)
H29 H 0.0633 -0.3698 -0.7064
H30 H 0.0554 -0.2919 -0.7466
loop_
_geom_bond_atom_site_label_1
_geom_bond_atom_site_label_2
_geom_bond_site_symmetry_1
_geom_bond_site_symmetry_2
Cu1 O1 1_555 1_555
O1 C11 1_555 1_555
N1 Cu2 1_555 1_555
Cu2 O3 1_555 1_555
O2 C11 1_555 1_555
N2 H1 1_555 1_555
O3 C12 1_555 1_555
N3 H2 1_555 1_555
N4 C14 1_555 1_555
O4 Cu2 1_555 1_555
O5 Cu2 1_555 1_555
C1 C2 1_555 1_555
O6 Cu2 1_555 1_555
O7 C15 1_555 1_555
O8 C15 1_555 1_555
O9 C22 1_555 1_555
C2 H3 1_555 1_555
O10 C20 1_555 1_555
C3 O5 1_555 1_555
C4 C22 1_555 1_555
C5 H4 1_555 1_555
H5 C5 1_555 1_555
C6 C2 1_555 1_555
C7 C9 1_555 1_555
C8 N2 1_555 1_555
H6 C8 1_555 1_555
C9 H7 1_555 1_555
C10 C14 1_555 1_555
C11 C7 1_555 1_555
C12 O4 1_555 1_555
C13 C9 1_555 1_555
C14 H8 1_555 1_555
C15 C1 1_555 1_555
C16 C10 1_555 1_555
H9 C16 1_555 1_555
C17 C1 1_555 1_555
H10 C17 1_555 1_555
C18 C7 1_555 1_555
H11 C18 1_555 1_555
C19 N3 1_555 1_555
H12 C19 1_555 1_555
C20 N3 1_555 1_555
C21 C13 1_555 1_555
H13 C21 1_555 1_555
C22 N2 1_555 1_555
C23 N1 1_555 1_555
H14 C23 1_555 1_555
C24 C18 1_555 1_555
H15 C24 1_555 1_555
C25 C17 1_555 1_555
H16 C25 1_555 1_555
C26 C8 1_555 1_555
H17 C26 1_555 1_555
H18 C26 1_555 1_555
C27 C16 1_555 1_555
H19 C27 1_555 1_555
C28 N4 1_555 1_555
H20 C28 1_555 1_555
C29 C6 1_555 1_555
H21 C29 1_555 1_555
C30 C5 1_555 1_555
H22 C30 1_555 1_555
H23 C30 1_555 1_555
C31 N1 1_555 1_555
H24 C31 1_555 1_555
C32 C4 1_555 1_555
H25 C32 1_555 1_555
C33 C31 1_555 1_555
H26 C33 1_555 1_555
C34 C26 1_555 1_555
H27 C34 1_555 1_555
H28 C34 1_555 1_555
O11 H29 1_555 1_555
H30 O11 1_555 1_555
Cu1_2 N4 1_555 1_555
Cu1_3 O8 1_555 1_555
Cu1A O7 1_555 1_555
Cu1A_2 Cu1 1_555 1_555
Cu2A O9 1_555 1_555
O2A Cu1 1_555 1_555
N4_2 Cu1 1_555 1_555
O7A Cu1 1_555 1_555
O8_2 Cu1 1_555 1_555
O9A Cu2 1_555 1_555
O2 Cu1A_2 1_555 1_555
O6 C3 1_555 1_555
C3 C6 1_555 1_555
C4 C23 1_555 1_555
C5 C19 1_555 1_555
C8 C19 1_555 1_555
C10 C20 1_555 1_555
C12 C13 1_555 1_555
C21 C24 1_555 1_555
C25 C29 1_555 1_555
C27 C28 1_555 1_555
C30 C34 1_555 1_555
C32 C33 1_555 1_555
Cu1_3 Cu1A 1_555 1_555

#END
