
#######################################################################
#
#                 Cambridge Crystallographic Data Centre
#                                CCDC 
#
#######################################################################
#
# If this CIF has been generated from an entry in the Cambridge 
# Structural Database, then it will include bibliographic, chemical, 
# crystal, experimental, refinement or atomic coordinate data resulting 
# from the CCDC's data processing and validation procedures.
#
#######################################################################

data_MIKHEV
_symmetry_cell_setting           monoclinic
_symmetry_space_group_name_H-M   'P 21/n'
_symmetry_Int_Tables_number      14
_space_group_name_Hall           '-P 2yn'
loop_
_symmetry_equiv_pos_site_id
_symmetry_equiv_pos_as_xyz
1 x,y,z
2 1/2-x,1/2+y,1/2-z
3 -x,-y,-z
4 1/2+x,1/2-y,1/2+z
_cell_length_a                   9.7361(6)
_cell_length_b                   18.0736(12)
_cell_length_c                   16.1041(10)
_cell_angle_alpha                90
_cell_angle_beta                 105.9560(10)
_cell_angle_gamma                90
_cell_volume                     2724.6
loop_
_atom_site_label
_atom_site_type_symbol
_atom_site_fract_x
_atom_site_fract_y
_atom_site_fract_z
Zn1 Zn 0.43260(2) 0.036840(13) 0.229383(15)
O1 O 0.28875(14) -0.02051(8) 0.26507(10)
N1 N 0.38072(19) -0.01725(10) 0.09973(11)
C1 C 0.2501(2) -0.01209(14) 0.04626(15)
H1 H 0.1859 0.0201 0.0607
O2 O 0.39683(16) 0.13671(8) 0.16781(10)
H2 H 0.4574 0.1595 0.1481
H3 H 0.3193 0.1576 0.1406
O3 O -0.36165(14) 0.01612(8) 0.24562(9)
N2 N 0.01475(19) -0.39936(10) 0.14736(12)
C2 C 0.2041(2) -0.05190(14) -0.02967(15)
H4 H 0.1113 -0.0465 -0.0647
O4 O 0.10987(16) 0.05072(8) 0.19159(10)
N3 N 0.11950(17) -0.15782(9) -0.16905(10)
H5 H 0.0610 -0.1307 -0.1510
C3 C 0.2980(2) -0.09987(11) -0.05293(12)
N4 N -0.04808(18) -0.28510(9) -0.15076(11)
H6 H -0.0009 -0.3257 -0.1482
O5 O -0.40502(16) -0.08004(9) 0.31981(11)
C4 C 0.4362(2) -0.10202(11) 0.00023(13)
H7 H 0.5044 -0.1314 -0.0145
O6 O 0.35039(15) -0.18860(8) -0.14980(10)
C5 C 0.4728(2) -0.06083(12) 0.07478(13)
H8 H 0.5663 -0.0634 0.1096
O7 O -0.15607(19) -0.20760(9) -0.07875(10)
C6 C 0.2578(2) -0.15161(11) -0.12927(13)
C7 C 0.0602(2) -0.20770(11) -0.24154(12)
H9 H 0.1291 -0.2475 -0.2404
C8 C 0.0331(3) -0.16680(13) -0.32726(14)
H10 H -0.0272 -0.1242 -0.3267
H11 H 0.1232 -0.1491 -0.3344
C9 C -0.0387(3) -0.21657(15) -0.40293(15)
H12 H -0.0584 -0.1885 -0.4562
H13 H 0.0249 -0.2569 -0.4068
C10 C -0.1769(3) -0.24747(14) -0.39142(15)
H14 H -0.2428 -0.2072 -0.3918
H15 H -0.2201 -0.2800 -0.4394
C11 C -0.1514(3) -0.28986(12) -0.30774(14)
H16 H -0.0926 -0.3328 -0.3097
H17 H -0.2421 -0.3071 -0.3011
C12 C -0.0777(2) -0.24191(11) -0.23036(13)
H18 H -0.1427 -0.2016 -0.2261
C13 C -0.0899(2) -0.26520(11) -0.08222(13)
C14 C -0.0524(2) -0.31541(12) -0.00431(13)
C15 C 0.0215(3) -0.38101(12) 0.00143(14)
H19 H 0.0500 -0.3986 -0.0456
C16 C 0.0531(3) -0.42061(12) 0.07812(14)
H20 H 0.1039 -0.4646 0.0812
C17 C -0.0588(3) -0.33642(16) 0.14079(17)
H21 H -0.0878 -0.3206 0.1883
C18 C -0.0940(3) -0.29352(16) 0.06712(16)
H22 H -0.1457 -0.2500 0.0656
C19 C 0.1578(2) -0.00104(11) 0.24181(13)
C20 C 0.0606(2) -0.04612(11) 0.28030(13)
C21 C 0.1123(2) -0.10717(13) 0.33130(17)
H23 H 0.2078 -0.1205 0.3418
C22 C 0.0227(3) -0.14856(15) 0.3668(2)
H24 H 0.0577 -0.1903 0.3997
C23 C -0.1180(2) -0.12813(13) 0.35362(17)
H25 H -0.1777 -0.1558 0.3779
C24 C -0.1708(2) -0.06607(11) 0.30392(13)
C25 C -0.0815(2) -0.02628(10) 0.26662(13)
H26 H -0.1174 0.0143 0.2319
C26 C -0.3233(2) -0.04246(11) 0.28991(13)
Zn1_2 Zn -0.56740(2) 0.036840(13) 0.229383(15)
Zn1A Zn 0.06740(2) -0.463160(13) 0.270617(15)
O3_2 O 0.63835(14) 0.01612(8) 0.24562(9)
N2A N 0.48525(19) 0.10064(10) 0.35264(12)
loop_
_geom_bond_atom_site_label_1
_geom_bond_atom_site_label_2
_geom_bond_site_symmetry_1
_geom_bond_site_symmetry_2
Zn1 O1 1_555 1_555
O1 C19 1_555 1_555
N1 Zn1 1_555 1_555
C1 N1 1_555 1_555
H1 C1 1_555 1_555
O2 Zn1 1_555 1_555
H2 O2 1_555 1_555
H3 O2 1_555 1_555
O3 C26 1_555 1_555
N2 C16 1_555 1_555
C2 C1 1_555 1_555
H4 C2 1_555 1_555
O4 C19 1_555 1_555
N3 H5 1_555 1_555
C3 C2 1_555 1_555
N4 H6 1_555 1_555
O5 C26 1_555 1_555
C4 C3 1_555 1_555
H7 C4 1_555 1_555
O6 C6 1_555 1_555
C5 N1 1_555 1_555
H8 C5 1_555 1_555
O7 C13 1_555 1_555
C6 N3 1_555 1_555
C7 N3 1_555 1_555
H9 C7 1_555 1_555
C8 C7 1_555 1_555
H10 C8 1_555 1_555
H11 C8 1_555 1_555
C9 C8 1_555 1_555
H12 C9 1_555 1_555
H13 C9 1_555 1_555
C10 C9 1_555 1_555
H14 C10 1_555 1_555
H15 C10 1_555 1_555
C11 C10 1_555 1_555
H16 C11 1_555 1_555
H17 C11 1_555 1_555
C12 N4 1_555 1_555
H18 C12 1_555 1_555
C13 N4 1_555 1_555
C14 C13 1_555 1_555
C15 C14 1_555 1_555
H19 C15 1_555 1_555
C16 C15 1_555 1_555
H20 C16 1_555 1_555
C17 N2 1_555 1_555
H21 C17 1_555 1_555
C18 C14 1_555 1_555
H22 C18 1_555 1_555
C19 C20 1_555 1_555
C20 C21 1_555 1_555
C21 H23 1_555 1_555
C22 C21 1_555 1_555
H24 C22 1_555 1_555
C23 C22 1_555 1_555
H25 C23 1_555 1_555
C24 C23 1_555 1_555
C25 C20 1_555 1_555
H26 C25 1_555 1_555
C26 C24 1_555 1_555
Zn1_2 O3 1_555 1_555
Zn1A N2 1_555 1_555
O3_2 Zn1 1_555 1_555
N2A Zn1 1_555 1_555
C3 C6 1_555 1_555
C4 C5 1_555 1_555
C7 C12 1_555 1_555
C11 C12 1_555 1_555
C17 C18 1_555 1_555
C24 C25 1_555 1_555

#END
