
#######################################################################
#
#                 Cambridge Crystallographic Data Centre
#                                CCDC 
#
#######################################################################
#
# If this CIF has been generated from an entry in the Cambridge 
# Structural Database, then it will include bibliographic, chemical, 
# crystal, experimental, refinement or atomic coordinate data resulting 
# from the CCDC's data processing and validation procedures.
#
#######################################################################

data_MIKHIZ
_symmetry_cell_setting           triclinic
_symmetry_space_group_name_H-M   'P -1'
_symmetry_Int_Tables_number      2
_space_group_name_Hall           '-P 1'
loop_
_symmetry_equiv_pos_site_id
_symmetry_equiv_pos_as_xyz
1 x,y,z
2 -x,-y,-z
_cell_length_a                   10.1198(12)
_cell_length_b                   10.1243(12)
_cell_length_c                   13.3200(16)
_cell_angle_alpha                99.284(2)
_cell_angle_beta                 99.883(2)
_cell_angle_gamma                109.078(2)
_cell_volume                     1235.48
loop_
_atom_site_label
_atom_site_type_symbol
_atom_site_fract_x
_atom_site_fract_y
_atom_site_fract_z
Cd1 Cd 0.361499(19) 0.085275(19) 0.939389(15)
N1 N 0.4538(2) 0.0946(2) 0.78856(18)
O1 O 0.2394(2) -0.0944(2) 1.01317(17)
C1 C 0.4188(4) 0.1829(4) 0.7338(3)
H1 H 0.3538 0.2231 0.7531
O2 O 0.40490(19) -0.15803(19) 0.95348(15)
N2 N -0.1316(2) 0.0119(2) 0.18372(19)
C2 C 0.4746(4) 0.2172(4) 0.6499(3)
H2 H 0.4470 0.2792 0.6140
O3 O 0.2984(2) -0.76660(19) 1.06394(15)
N3 N 0.5973(2) 0.2801(3) 0.47797(18)
H3 H 0.5349 0.3117 0.4986
C3 C 0.5718(3) 0.1592(3) 0.6192(2)
O4 O 0.3519(2) -0.6798(2) 0.92969(16)
N4 N 0.4036(2) 0.2963(2) 0.29265(17)
H4 H 0.3788 0.2505 0.2280
C4 C 0.6057(3) 0.0668(3) 0.6746(2)
H5 H 0.6695 0.0241 0.6561
O5 O 0.7262(3) 0.1396(3) 0.50539(19)
C5 C 0.5453(3) 0.0370(3) 0.7577(2)
H6 H 0.5697 -0.0262 0.7938
O6 O 0.3301(2) 0.3249(2) 0.44352(16)
C6 C 0.6393(3) 0.1923(3) 0.5291(2)
C7 C 0.6503(3) 0.3260(3) 0.3893(2)
H7 H 0.6446 0.2411 0.3390
C8 C 0.8069(3) 0.4296(3) 0.4251(2)
H8 H 0.8149 0.5098 0.4797
H9 H 0.8665 0.3806 0.4545
C9 C 0.8618(3) 0.4863(3) 0.3348(3)
H10 H 0.9599 0.5548 0.3607
H11 H 0.8620 0.4075 0.2827
C10 C 0.7670(3) 0.5582(3) 0.2850(3)
H12 H 0.8003 0.5901 0.2258
H13 H 0.7733 0.6420 0.3355
C11 C 0.6115(3) 0.4544(3) 0.2482(2)
H14 H 0.5521 0.5034 0.2182
H15 H 0.6048 0.3749 0.1936
C12 C 0.5537(3) 0.3962(3) 0.3361(2)
H16 H 0.5540 0.4766 0.3882
C13 C 0.3038(3) 0.2731(3) 0.3489(2)
C14 C 0.1527(3) 0.1769(3) 0.2898(2)
C15 C 0.0386(3) 0.1898(3) 0.3295(2)
H17 H 0.0556 0.2539 0.3929
C16 C -0.1003(3) 0.1069(3) 0.2743(3)
H18 H -0.1758 0.1176 0.3016
C17 C -0.0210(3) -0.0043(3) 0.1479(2)
H19 H -0.0409 -0.0723 0.0859
C18 C 0.1212(3) 0.0749(3) 0.1982(2)
H20 H 0.1949 0.0595 0.1708
C19 C 0.3006(3) -0.1822(3) 0.9977(2)
C20 C 0.2502(3) -0.3181(3) 1.0356(2)
C21 C 0.1542(3) -0.3342(3) 1.0996(2)
H21 H 0.1182 -0.2623 1.1169
C22 C 0.1118(3) -0.4564(3) 1.1378(3)
H22 H 0.0493 -0.4654 1.1822
C23 C 0.1619(3) -0.5654(3) 1.1103(2)
H23 H 0.1323 -0.6478 1.1359
C24 C 0.2563(3) -0.5528(3) 1.0447(2)
C25 C 0.3002(3) -0.4285(3) 1.0080(2)
H24 H 0.3637 -0.4188 0.9644
C26 C 0.3065(3) -0.6732(3) 1.0107(2)
Cd1_2 Cd 0.361499(19) -0.914725(19) 0.939389(15)
Cd1A Cd -0.361499(19) -0.085275(19) 0.060611(15)
Cd1A_2 Cd 0.638501(19) -0.085275(19) 1.060611(15)
O2A O 0.59510(19) 0.15803(19) 1.04652(15)
N2A N 0.1316(2) -0.0119(2) 0.81628(19)
O3_2 O 0.2984(2) 0.23340(19) 1.06394(15)
O4_2 O 0.3519(2) 0.3202(2) 0.92969(16)
loop_
_geom_bond_atom_site_label_1
_geom_bond_atom_site_label_2
_geom_bond_site_symmetry_1
_geom_bond_site_symmetry_2
Cd1 N1 1_555 1_555
N1 C1 1_555 1_555
O1 Cd1 1_555 1_555
C1 H1 1_555 1_555
O2 Cd1 1_555 1_555
N2 C16 1_555 1_555
C2 C1 1_555 1_555
H2 C2 1_555 1_555
O3 C26 1_555 1_555
N3 H3 1_555 1_555
C3 C2 1_555 1_555
O4 C26 1_555 1_555
N4 H4 1_555 1_555
C4 C3 1_555 1_555
H5 C4 1_555 1_555
O5 C6 1_555 1_555
C5 N1 1_555 1_555
H6 C5 1_555 1_555
O6 C13 1_555 1_555
C6 N3 1_555 1_555
C7 N3 1_555 1_555
H7 C7 1_555 1_555
C8 C7 1_555 1_555
H8 C8 1_555 1_555
H9 C8 1_555 1_555
C9 C8 1_555 1_555
H10 C9 1_555 1_555
H11 C9 1_555 1_555
C10 C9 1_555 1_555
H12 C10 1_555 1_555
H13 C10 1_555 1_555
C11 C10 1_555 1_555
H14 C11 1_555 1_555
H15 C11 1_555 1_555
C12 N4 1_555 1_555
H16 C12 1_555 1_555
C13 N4 1_555 1_555
C14 C13 1_555 1_555
C15 C14 1_555 1_555
H17 C15 1_555 1_555
C16 C15 1_555 1_555
H18 C16 1_555 1_555
C17 N2 1_555 1_555
H19 C17 1_555 1_555
C18 C14 1_555 1_555
H20 C18 1_555 1_555
C19 O1 1_555 1_555
C20 C19 1_555 1_555
C21 C20 1_555 1_555
H21 C21 1_555 1_555
C22 C21 1_555 1_555
H22 C22 1_555 1_555
C23 C22 1_555 1_555
H23 C23 1_555 1_555
C24 C23 1_555 1_555
C25 C20 1_555 1_555
H24 C25 1_555 1_555
C26 C24 1_555 1_555
Cd1_2 O3 1_555 1_555
Cd1A N2 1_555 1_555
Cd1A_2 O2 1_555 1_555
O2A Cd1 1_555 1_555
N2A Cd1 1_555 1_555
O3_2 Cd1 1_555 1_555
O4_2 Cd1 1_555 1_555
O2 C19 1_555 1_555
C3 C6 1_555 1_555
O4 Cd1_2 1_555 1_555
C4 C5 1_555 1_555
C7 C12 1_555 1_555
C11 C12 1_555 1_555
C17 C18 1_555 1_555
C24 C25 1_555 1_555
Cd1A_2 O2A 1_555 1_555

#END
