
#######################################################################
#
#                 Cambridge Crystallographic Data Centre
#                                CCDC 
#
#######################################################################
#
# If this CIF has been generated from an entry in the Cambridge 
# Structural Database, then it will include bibliographic, chemical, 
# crystal, experimental, refinement or atomic coordinate data resulting 
# from the CCDC's data processing and validation procedures.
#
#######################################################################

data_MIKHAR
_symmetry_cell_setting           monoclinic
_symmetry_space_group_name_H-M   'P 21/n'
_symmetry_Int_Tables_number      14
_space_group_name_Hall           '-P 2yn'
loop_
_symmetry_equiv_pos_site_id
_symmetry_equiv_pos_as_xyz
1 x,y,z
2 1/2-x,1/2+y,1/2-z
3 -x,-y,-z
4 1/2+x,1/2-y,1/2+z
_cell_length_a                   9.9566(5)
_cell_length_b                   18.2591(9)
_cell_length_c                   15.6736(8)
_cell_angle_alpha                90
_cell_angle_beta                 107.4670(10)
_cell_angle_gamma                90
_cell_volume                     2718.05
loop_
_atom_site_label
_atom_site_type_symbol
_atom_site_fract_x
_atom_site_fract_y
_atom_site_fract_z
Ni1 Ni -0.05547(2) 0.026341(11) 0.735765(13)
O1 O -0.22058(11) -0.01953(7) 0.75951(8)
N1 N -0.10427(15) -0.02458(8) 0.60755(9)
C1 C -0.01312(18) -0.06274(9) 0.57719(11)
H1 H 0.0814 -0.0624 0.6107
O2 O -0.11356(14) 0.12553(7) 0.67030(10)
H2 H -0.1937 0.1422 0.6406
H3 H -0.0584 0.1472 0.6463
O3 O -0.91270(11) -0.06577(7) 0.80117(8)
N2 N -0.49210(14) -0.41391(8) 0.64249(10)
C2 C -0.05250(18) -0.10261(9) 0.49862(11)
H4 H 0.0148 -0.1282 0.4803
O4 O -0.84691(11) 0.03176(6) 0.74160(8)
N3 N -0.37434(15) -0.16323(8) 0.32858(9)
H5 H -0.4303 -0.1392 0.3507
C3 C -0.19273(17) -0.10435(9) 0.44719(11)
O5 O -0.39434(13) 0.05698(7) 0.68971(9)
N4 N -0.54288(16) -0.28991(8) 0.34114(9)
H6 H -0.4940 -0.3291 0.3435
C4 C -0.28605(19) -0.06126(11) 0.47585(13)
H7 H -0.3801 -0.0583 0.4418
O6 O -0.14545(13) -0.18919(7) 0.34359(9)
C5 C -0.23816(19) -0.02286(11) 0.55510(12)
H8 H -0.3022 0.0057 0.5730
C6 C -0.23546(17) -0.15524(9) 0.36726(11)
O7 O -0.6564(2) -0.21788(9) 0.41376(10)
C7 C -0.43692(18) -0.21018(9) 0.25115(11)
H9 H -0.3707 -0.2496 0.2499
C8 C -0.4670(2) -0.16596(11) 0.16461(12)
H10 H -0.3788 -0.1489 0.1574
H11 H -0.5231 -0.1234 0.1686
C9 C -0.5455(3) -0.21151(13) 0.08287(13)
H12 H -0.5670 -0.1812 0.0296
H13 H -0.4862 -0.2516 0.0753
C10 C -0.6805(2) -0.24169(12) 0.09412(13)
H14 H -0.7278 -0.2713 0.0424
H15 H -0.7424 -0.2015 0.0974
C11 C -0.6518(2) -0.28798(11) 0.17813(13)
H16 H -0.5963 -0.3304 0.1727
H17 H -0.7403 -0.3052 0.1847
C12 C -0.57269(18) -0.24397(9) 0.26095(11)
H18 H -0.6340 -0.2038 0.2678
C13 C -0.58844(19) -0.27340(10) 0.41031(12)
C14 C -0.5749(2) -0.35445(12) 0.63352(14)
H19 H -0.6124 -0.3429 0.6795
C15 C -0.6068(2) -0.30975(12) 0.55885(14)
H20 H -0.6639 -0.2689 0.5556
C16 C -0.55364(18) -0.32586(10) 0.48900(12)
C17 C -0.4695(2) -0.38768(10) 0.49741(12)
H21 H -0.4325 -0.4010 0.4518
C18 C -0.44128(19) -0.42942(10) 0.57483(12)
H22 H -0.3839 -0.4704 0.5798
C19 C -0.34764(17) 0.00259(9) 0.73710(11)
C20 C -0.44510(16) -0.04367(9) 0.77256(11)
C21 C -0.40134(19) -0.10923(11) 0.81756(15)
H23 H -0.3097 -0.1256 0.8263
C22 C -0.4931(2) -0.15048(12) 0.84952(17)
H24 H -0.4632 -0.1946 0.8786
C23 C -0.62934(19) -0.12593(11) 0.83818(14)
H25 H -0.6906 -0.1535 0.8598
C24 C -0.67379(16) -0.06009(9) 0.79435(11)
C25 C -0.58184(17) -0.02005(9) 0.76100(11)
H26 H -0.6126 0.0234 0.7304
C26 C -0.81871(16) -0.02995(9) 0.77952(11)
Ni1_2 Ni -1.05547(2) 0.026341(11) 0.735765(13)
Ni1A Ni -0.44453(2) -0.473659(11) 0.764235(13)
O3_2 O 0.08730(11) -0.06577(7) 0.80117(8)
N2A N -0.00790(14) 0.08609(8) 0.85751(10)
O4_2 O 0.15309(11) 0.03176(6) 0.74160(8)
loop_
_geom_bond_atom_site_label_1
_geom_bond_atom_site_label_2
_geom_bond_site_symmetry_1
_geom_bond_site_symmetry_2
Ni1 O1 1_555 1_555
O1 C19 1_555 1_555
N1 Ni1 1_555 1_555
C1 N1 1_555 1_555
H1 C1 1_555 1_555
O2 Ni1 1_555 1_555
H2 O2 1_555 1_555
H3 O2 1_555 1_555
O3 C26 1_555 1_555
N2 C14 1_555 1_555
C2 C1 1_555 1_555
H4 C2 1_555 1_555
O4 C26 1_555 1_555
N3 H5 1_555 1_555
C3 C2 1_555 1_555
O5 C19 1_555 1_555
N4 H6 1_555 1_555
C4 C3 1_555 1_555
H7 C4 1_555 1_555
O6 C6 1_555 1_555
C5 N1 1_555 1_555
H8 C5 1_555 1_555
C6 N3 1_555 1_555
O7 C13 1_555 1_555
C7 N3 1_555 1_555
H9 C7 1_555 1_555
C8 C7 1_555 1_555
H10 C8 1_555 1_555
H11 C8 1_555 1_555
C9 C8 1_555 1_555
H12 C9 1_555 1_555
H13 C9 1_555 1_555
C10 C9 1_555 1_555
H14 C10 1_555 1_555
H15 C10 1_555 1_555
C11 C10 1_555 1_555
H16 C11 1_555 1_555
H17 C11 1_555 1_555
C12 N4 1_555 1_555
H18 C12 1_555 1_555
C13 N4 1_555 1_555
C14 H19 1_555 1_555
C15 C14 1_555 1_555
H20 C15 1_555 1_555
C16 C13 1_555 1_555
C17 C16 1_555 1_555
H21 C17 1_555 1_555
C18 N2 1_555 1_555
H22 C18 1_555 1_555
C19 C20 1_555 1_555
C20 C21 1_555 1_555
C21 H23 1_555 1_555
C22 C21 1_555 1_555
H24 C22 1_555 1_555
C23 C22 1_555 1_555
H25 C23 1_555 1_555
C24 C23 1_555 1_555
C25 C20 1_555 1_555
H26 C25 1_555 1_555
C26 C24 1_555 1_555
Ni1_2 O3 1_555 1_555
Ni1A N2 1_555 1_555
O3_2 Ni1 1_555 1_555
N2A Ni1 1_555 1_555
O4_2 Ni1 1_555 1_555
O4 Ni1_2 1_555 1_555
C3 C6 1_555 1_555
C4 C5 1_555 1_555
C7 C12 1_555 1_555
C11 C12 1_555 1_555
C15 C16 1_555 1_555
C17 C18 1_555 1_555
C24 C25 1_555 1_555

#END
