
#######################################################################
#
#                 Cambridge Crystallographic Data Centre
#                                CCDC 
#
#######################################################################
#
# If this CIF has been generated from an entry in the Cambridge 
# Structural Database, then it will include bibliographic, chemical, 
# crystal, experimental, refinement or atomic coordinate data resulting 
# from the CCDC's data processing and validation procedures.
#
#######################################################################

data_MIKJUM
_symmetry_cell_setting           orthorhombic
_symmetry_space_group_name_H-M   'F d d 2'
_symmetry_Int_Tables_number      43
_space_group_name_Hall           'F 2 -2d'
loop_
_symmetry_equiv_pos_site_id
_symmetry_equiv_pos_as_xyz
1 x,y,z
2 -x,-y,z
3 1/4-x,1/4+y,1/4+z
4 1/4+x,1/4-y,1/4+z
5 x,1/2+y,1/2+z
6 -x,1/2-y,1/2+z
7 1/4-x,3/4+y,3/4+z
8 1/4+x,3/4-y,3/4+z
9 1/2+x,y,1/2+z
10 1/2-x,-y,1/2+z
11 3/4-x,1/4+y,3/4+z
12 3/4+x,1/4-y,3/4+z
13 1/2+x,1/2+y,z
14 1/2-x,1/2-y,z
15 3/4-x,3/4+y,1/4+z
16 3/4+x,3/4-y,1/4+z
_cell_length_a                   16.8403(6)
_cell_length_b                   24.5868(8)
_cell_length_c                   7.5603(4)
_cell_angle_alpha                90
_cell_angle_beta                 90
_cell_angle_gamma                90
_cell_volume                     3130.34
loop_
_atom_site_label
_atom_site_type_symbol
_atom_site_fract_x
_atom_site_fract_y
_atom_site_fract_z
S1 S -0.15185(7) -0.27435(6) 0.3847(2)
Cd1 Cd 0.0000 -0.5000 0.37726(10)
O1 O -0.0275(2) -0.32933(15) 0.2488(5)
N1 N 0.0863(2) -0.45184(19) 0.1801(6)
N2 N -0.0580(2) -0.41449(18) 0.3008(7)
N3 N 0.1216(2) -0.61725(18) 0.3590(9)
C1 C 0.1552(3) -0.4693(2) 0.1177(9)
H1 H 0.1665 -0.5063 0.1266
C2 C 0.2113(3) -0.4360(3) 0.0402(8)
H2 H 0.2588 -0.4502 -0.0024
C3 C 0.1954(3) -0.3818(3) 0.0278(9)
H3 H 0.2324 -0.3584 -0.0226
C4 C 0.1242(3) -0.3620(3) 0.0903(9)
H4 H 0.1122 -0.3251 0.0824
C5 C 0.0714(3) -0.3978(2) 0.1644(7)
C6 C -0.0060(3) -0.3819(2) 0.2374(8)
C7 C -0.1029(3) -0.3324(2) 0.3294(7)
S1N S -0.09815(7) -0.52435(6) 0.6347(2)
S1C S 0.09815(7) -0.47565(6) 0.6347(2)
S1A S 0.15185(7) -0.72565(6) 0.3847(2)
Cd1J Cd -0.2500 -0.2500 0.12726(10)
Cd1F Cd 0.2500 -0.7500 0.12726(10)
O1A O 0.0275(2) -0.67067(15) 0.2488(5)
N1A N -0.0863(2) -0.54816(19) 0.1801(6)
N2A N 0.0580(2) -0.58551(18) 0.3008(7)
N3A N -0.1216(2) -0.38275(18) 0.3590(9)
C1A C -0.1552(3) -0.5307(2) 0.1177(9)
H1A H -0.1665 -0.4937 0.1266
C2A C -0.2113(3) -0.5640(3) 0.0402(8)
H2A H -0.2588 -0.5498 -0.0024
C3A C -0.1954(3) -0.6182(3) 0.0278(9)
H3A H -0.2324 -0.6416 -0.0226
C4A C -0.1242(3) -0.6380(3) 0.0903(9)
H4A H -0.1122 -0.6749 0.0824
C5A C -0.0714(3) -0.6022(2) 0.1644(7)
C6A C 0.0060(3) -0.6181(2) 0.2374(8)
C7A C 0.1029(3) -0.6676(2) 0.3294(7)
loop_
_geom_bond_atom_site_label_1
_geom_bond_atom_site_label_2
_geom_bond_site_symmetry_1
_geom_bond_site_symmetry_2
S1 C7 1_555 1_555
Cd1 N1 1_555 1_555
O1 C6 1_555 1_555
N1 C1 1_555 1_555
N2 Cd1 1_555 1_555
N3 N2A 1_555 1_555
C1 H1 1_555 1_555
C2 C1 1_555 1_555
H2 C2 1_555 1_555
C3 C2 1_555 1_555
H3 C3 1_555 1_555
C4 C3 1_555 1_555
H4 C4 1_555 1_555
C5 N1 1_555 1_555
C6 N2 1_555 1_555
C7 O1 1_555 1_555
S1N Cd1 1_555 1_555
S1C Cd1 1_555 1_555
S1A Cd1F 1_555 1_555
Cd1J S1 1_555 1_555
O1A C6A 1_555 1_555
N1A Cd1 1_555 1_555
N2A Cd1 1_555 1_555
N3A N2 1_555 1_555
C1A N1A 1_555 1_555
H1A C1A 1_555 1_555
C2A C1A 1_555 1_555
H2A C2A 1_555 1_555
C3A C2A 1_555 1_555
H3A C3A 1_555 1_555
C4A C3A 1_555 1_555
H4A C4A 1_555 1_555
C5A N1A 1_555 1_555
C6A N2A 1_555 1_555
C7A N3 1_555 1_555
C4 C5 1_555 1_555
C5 C6 1_555 1_555
C7 N3A 1_555 1_555
S1A C7A 1_555 1_555
O1A C7A 1_555 1_555
C4A C5A 1_555 1_555
C5A C6A 1_555 1_555

#END
