
#######################################################################
#
#                 Cambridge Crystallographic Data Centre
#                                CCDC 
#
#######################################################################
#
# If this CIF has been generated from an entry in the Cambridge 
# Structural Database, then it will include bibliographic, chemical, 
# crystal, experimental, refinement or atomic coordinate data resulting 
# from the CCDC's data processing and validation procedures.
#
#######################################################################

data_MIKLUO
_symmetry_cell_setting           monoclinic
_symmetry_space_group_name_H-M   'P 21/n'
_symmetry_Int_Tables_number      14
_space_group_name_Hall           '-P 2yn'
loop_
_symmetry_equiv_pos_site_id
_symmetry_equiv_pos_as_xyz
1 x,y,z
2 1/2-x,1/2+y,1/2-z
3 -x,-y,-z
4 1/2+x,1/2-y,1/2+z
_cell_length_a                   11.4052(2)
_cell_length_b                   25.9681(4)
_cell_length_c                   23.2429(4)
_cell_angle_alpha                90
_cell_angle_beta                 102.3070(10)
_cell_angle_gamma                90
_cell_volume                     6725.69
loop_
_atom_site_label
_atom_site_type_symbol
_atom_site_fract_x
_atom_site_fract_y
_atom_site_fract_z
Cu1 Cu 0.35159(5) -0.00185(2) 0.05475(3)
Cu2 Cu 0.43407(6) 0.27027(3) -0.11811(3)
O1 O 0.3190(3) 0.05454(14) 0.00044(16)
O2 O 0.4081(3) -0.06244(13) 0.10696(16)
O3 O 0.5459(4) -0.23381(15) 0.20542(19)
H1 H 0.5097 -0.2525 0.2322
O4 O 0.3599(3) 0.21365(14) -0.08763(18)
O5 O 0.5246(4) 0.33055(15) -0.13876(19)
O6 O 0.7531(4) 0.48014(16) -0.13367(19)
H2 H 0.8327 0.4931 -0.1228
N1 N 0.5165(4) 0.01818(16) 0.08102(19)
N2 N 0.5789(4) -0.01650(16) 0.1222(2)
H3 H 0.6546 -0.0119 0.1396
N3 N 0.5902(4) 0.25215(16) -0.0727(2)
N4 N 0.6764(4) 0.28755(17) -0.0809(2)
H4 H 0.7530 0.2841 -0.0645
N5 N 0.2022(4) -0.03526(17) 0.0155(2)
N6 N 0.1322(4) -0.0128(2) -0.0320(2)
H5 H 0.1460 0.0176 -0.0460
N7 N 0.2812(5) 0.30505(17) -0.1502(2)
N8 N 0.2729(5) 0.3512(2) -0.1772(2)
H6 H 0.3344 0.3679 -0.1854
C1 C 0.3892(5) 0.09316(19) -0.0055(2)
C2 C 0.3401(5) 0.1341(2) -0.0428(2)
C3 C 0.4104(5) 0.17621(19) -0.0533(2)
C4 C 0.5378(4) 0.17629(19) -0.0250(2)
C5 C 0.5831(5) 0.1365(2) 0.0122(2)
H7 H 0.6658 0.1373 0.0309
C6 C 0.5142(4) 0.09502(18) 0.0240(2)
C7 C 0.5719(5) 0.05751(19) 0.0654(2)
H8 H 0.6549 0.0616 0.0823
C8 C 0.5156(5) -0.0575(2) 0.1336(2)
C9 C 0.5807(5) -0.0951(2) 0.1769(2)
H9 H 0.6047 -0.0779 0.2157
H10 H 0.6549 -0.1058 0.1645
C10 C 0.5071(5) -0.1427(2) 0.1836(3)
H11 H 0.4425 -0.1335 0.2042
H12 H 0.4695 -0.1564 0.1442
C11 C 0.5878(6) -0.1835(2) 0.2186(3)
H13 H 0.6692 -0.1803 0.2103
H14 H 0.5944 -0.1770 0.2611
C12 C 0.6203(5) 0.2146(2) -0.0360(2)
H15 H 0.7014 0.2124 -0.0152
C13 C 0.6338(6) 0.3274(2) -0.1158(3)
C14 C 0.7224(7) 0.3684(2) -0.1237(3)
H16 H 0.7956 0.3522 -0.1319
H17 H 0.7457 0.3888 -0.0870
C15 C 0.6641(7) 0.4051(3) -0.1766(3)
H18 H 0.6461 0.3849 -0.2135
H19 H 0.5875 0.4190 -0.1695
C16 C 0.7422(7) 0.4473(3) -0.1832(3)
H20 H 0.8222 0.4340 -0.1860
H21 H 0.7085 0.4667 -0.2197
C17 C 0.2096(5) 0.1320(2) -0.0729(3)
H22 H 0.1955 0.1022 -0.0993
H23 H 0.1879 0.1636 -0.0958
H24 H 0.1603 0.1289 -0.0433
C18 C 0.1518(5) -0.0804(2) 0.0218(3)
H25 H 0.1818 -0.1049 0.0517
C19 C 0.0491(6) -0.0864(3) -0.0216(3)
H26 H -0.0037 -0.1151 -0.0271
C20 C 0.0389(6) -0.0429(3) -0.0550(3)
H27 H -0.0229 -0.0354 -0.0883
C21 C 0.1731(6) 0.2929(3) -0.1441(3)
H28 H 0.1515 0.2629 -0.1254
C22 C 0.0950(7) 0.3321(4) -0.1700(4)
H29 H 0.0107 0.3327 -0.1730
C23 C 0.1600(7) 0.3685(3) -0.1899(3)
H30 H 0.1318 0.3999 -0.2090
Cu3 Cu 0.45199(6) 0.75904(2) -0.10096(3)
Cu4 Cu 0.63357(6) 0.51345(2) -0.06855(3)
O7 O 0.6212(3) 0.29601(13) 0.06734(16)
O8 O 0.4560(4) 0.18185(14) 0.12407(19)
O9 O 0.2798(5) 0.03431(16) 0.1284(2)
H31 H 0.2025 0.0237 0.1328
O10 O 0.6636(3) 0.45554(13) -0.01786(16)
O11 O 0.5775(3) 0.57407(13) -0.11922(17)
O12 O 0.4850(5) 0.72415(19) -0.1911(3)
H32 H 0.5592 0.7374 -0.1970
N9 N 0.3911(4) 0.25911(15) 0.0572(2)
N10 N 0.3043(4) 0.22436(17) 0.0667(2)
H33 H 0.2276 0.2279 0.0506
N11 N 0.4658(4) 0.49539(16) -0.09304(19)
N12 N 0.4027(4) 0.53267(16) -0.12984(19)
H34 H 0.3253 0.5300 -0.1448
N13 N 0.2939(4) 0.78669(17) -0.1348(2)
N14 N 0.1949(5) 0.76474(19) -0.1235(2)
H35 H 0.1947 0.7368 -0.1021
N15 N 0.7847(4) 0.54666(16) -0.0304(2)
N16 N 0.8210(4) 0.59368(16) -0.0448(2)
H36 H 0.7833 0.6124 -0.0747
C24 C 0.5684(5) 0.33449(18) 0.0345(2)
C25 C 0.6400(4) 0.37564(19) 0.0244(2)
C26 C 0.5918(4) 0.41779(19) -0.0110(2)
C27 C 0.4657(4) 0.41722(18) -0.0386(2)
C28 C 0.3951(4) 0.37628(18) -0.0268(2)
H37 H 0.3117 0.3765 -0.0441
C29 C 0.4417(4) 0.33520(18) 0.0092(2)
C30 C 0.3590(5) 0.29724(19) 0.0213(2)
H38 H 0.2769 0.3002 0.0022
C31 C 0.3468(6) 0.1853(2) 0.1022(3)
C32 C 0.2562(7) 0.1466(2) 0.1142(3)
H39 H 0.1806 0.1648 0.1154
H40 H 0.2389 0.1218 0.0811
C33 C 0.2961(11) 0.1171(4) 0.1707(4)
H41 H 0.3550 0.1388 0.1976
H42 H 0.2255 0.1135 0.1889
C34 C 0.3421(13) 0.0729(4) 0.1700(4)
H43 H 0.3522 0.0582 0.2101
H44 H 0.4235 0.0774 0.1623
C35 C 0.4092(5) 0.45653(18) -0.0775(2)
H45 H 0.3252 0.4540 -0.0928
C36 C 0.4673(5) 0.57289(19) -0.1411(2)
C37 C 0.4041(5) 0.6162(2) -0.1770(2)
H46 H 0.3940 0.6448 -0.1504
H47 H 0.3230 0.6045 -0.1970
C38 C 0.4694(6) 0.6362(2) -0.2231(3)
H48 H 0.5570 0.6333 -0.2076
H49 H 0.4482 0.6145 -0.2588
C39 C 0.4383(6) 0.6915(2) -0.2394(3)
H50 H 0.4723 0.7014 -0.2736
H51 H 0.3500 0.6955 -0.2507
C40 C 0.7723(5) 0.3747(2) 0.0517(3)
H52 H 0.7836 0.3706 0.0945
H53 H 0.8091 0.4070 0.0430
H54 H 0.8100 0.3458 0.0355
C41 C 0.2546(6) 0.8275(2) -0.1680(3)
H55 H 0.3046 0.8512 -0.1827
C42 C 0.1311(7) 0.8306(3) -0.1779(3)
H56 H 0.0808 0.8557 -0.2006
C43 C 0.0972(6) 0.7905(3) -0.1487(3)
H57 H 0.0172 0.7822 -0.1465
C44 C 0.8649(5) 0.5323(2) 0.0167(3)
H58 H 0.8625 0.5008 0.0371
C45 C 0.9529(5) 0.5696(2) 0.0323(3)
H59 H 1.0206 0.5684 0.0641
C46 C 0.9221(5) 0.6079(2) -0.0074(3)
H60 H 0.9644 0.6392 -0.0085
Cu2B Cu 0.56593(6) -0.27027(3) 0.11811(3)
O3B O 0.4541(4) 0.23381(15) -0.20542(19)
H1B H 0.4903 0.2525 -0.2322
Cu3B Cu 0.54801(6) 0.24096(2) 0.10096(3)
O7B O 0.3788(3) 0.70399(13) -0.06734(16)
O8B O 0.5440(4) 0.81815(14) -0.12407(19)
N9B N 0.6089(4) 0.74089(15) -0.0572(2)
Cl1 Cl 0.36657(15) 0.47824(7) -0.27789(8)
O13 O 0.3573(6) 0.4441(2) -0.2306(3)
O14 O 0.3392(15) 0.4771(12) -0.3380(7)
O15 O 0.4806(9) 0.5016(7) -0.2596(6)
O16 O 0.2933(19) 0.5211(8) -0.2652(9)
Cl2 Cl 0.05000(14) 0.52593(7) -0.17652(7)
O20 O 0.1532(6) 0.4971(3) -0.1513(3)
O21 O 0.0969(7) 0.5759(3) -0.1846(3)
O22 O -0.0125(7) 0.5082(3) -0.2292(3)
O23 O -0.0223(4) 0.5305(2) -0.1329(2)
Cl3 Cl 0.98481(14) 0.23841(6) -0.01509(9)
O24 O 0.9109(5) 0.2778(3) -0.0065(5)
O25 O 1.0488(7) 0.2145(3) 0.0380(4)
O26 O 0.9149(5) 0.1999(2) -0.0499(3)
O27 O 1.0752(6) 0.2564(3) -0.0408(3)
Cl4 Cl 0.74511(17) 0.75418(8) -0.25974(9)
O28 O 0.6569(6) 0.7778(4) -0.3014(4)
O29 O 0.7194(8) 0.7524(3) -0.2017(4)
O30 O 0.8538(6) 0.7808(3) -0.2546(4)
O31 O 0.7598(9) 0.7027(3) -0.2773(4)
O32 O 0.8014(7) 0.6709(3) -0.1264(3)
H61 H 0.7400 0.6765 -0.1528
C47 C 0.8956(15) 0.6685(6) -0.1499(5)
H62 H 0.9616 0.6880 -0.1256
H63 H 0.8760 0.6832 -0.1896
H64 H 0.9198 0.6325 -0.1521
O33 O 0.1428(6) -0.0314(3) 0.1727(3)
H65 H 0.0823 -0.0374 0.1458
C48 C 0.1919(12) -0.0781(5) 0.1969(7)
H66 H 0.2719 -0.0827 0.1885
H67 H 0.1399 -0.1067 0.1796
H68 H 0.1982 -0.0777 0.2397
O17? O 0.2813(11) 0.4543(4) -0.3238(6)
O18? O 0.4773(10) 0.4580(6) -0.2956(6)
O19? O 0.345(4) 0.5258(7) -0.2745(14)
loop_
_geom_bond_atom_site_label_1
_geom_bond_atom_site_label_2
_geom_bond_site_symmetry_1
_geom_bond_site_symmetry_2
Cu1 O1 1_555 1_555
Cu2 O4 1_555 1_555
O1 C1 1_555 1_555
O2 Cu1 1_555 1_555
O3 H1 1_555 1_555
O4 C3 1_555 1_555
O5 Cu2 1_555 1_555
O6 H2 1_555 1_555
N1 Cu1 1_555 1_555
N2 N1 1_555 1_555
H3 N2 1_555 1_555
N3 Cu2 1_555 1_555
N4 N3 1_555 1_555
H4 N4 1_555 1_555
N5 Cu1 1_555 1_555
N6 N5 1_555 1_555
H5 N6 1_555 1_555
N7 Cu2 1_555 1_555
N8 N7 1_555 1_555
H6 N8 1_555 1_555
C1 C2 1_555 1_555
C2 C3 1_555 1_555
C3 C4 1_555 1_555
C4 C5 1_555 1_555
C5 H7 1_555 1_555
C6 C1 1_555 1_555
C7 N1 1_555 1_555
H8 C7 1_555 1_555
C8 O2 1_555 1_555
C9 C8 1_555 1_555
H9 C9 1_555 1_555
H10 C9 1_555 1_555
C10 C9 1_555 1_555
H11 C10 1_555 1_555
H12 C10 1_555 1_555
C11 O3 1_555 1_555
H13 C11 1_555 1_555
H14 C11 1_555 1_555
C12 N3 1_555 1_555
H15 C12 1_555 1_555
C13 O5 1_555 1_555
C14 C13 1_555 1_555
H16 C14 1_555 1_555
H17 C14 1_555 1_555
C15 C14 1_555 1_555
H18 C15 1_555 1_555
H19 C15 1_555 1_555
C16 O6 1_555 1_555
H20 C16 1_555 1_555
H21 C16 1_555 1_555
C17 C2 1_555 1_555
H22 C17 1_555 1_555
H23 C17 1_555 1_555
H24 C17 1_555 1_555
C18 N5 1_555 1_555
H25 C18 1_555 1_555
C19 C18 1_555 1_555
H26 C19 1_555 1_555
C20 N6 1_555 1_555
H27 C20 1_555 1_555
C21 N7 1_555 1_555
H28 C21 1_555 1_555
C22 C21 1_555 1_555
H29 C22 1_555 1_555
C23 N8 1_555 1_555
H30 C23 1_555 1_555
Cu3 O12 1_555 1_555
Cu4 O6 1_555 1_555
O7 C24 1_555 1_555
O8 C31 1_555 1_555
O9 Cu1 1_555 1_555
H31 O9 1_555 1_555
O10 Cu4 1_555 1_555
O11 Cu4 1_555 1_555
O12 H32 1_555 1_555
N9 N10 1_555 1_555
N10 H33 1_555 1_555
N11 Cu4 1_555 1_555
N12 N11 1_555 1_555
H34 N12 1_555 1_555
N13 Cu3 1_555 1_555
N14 N13 1_555 1_555
H35 N14 1_555 1_555
N15 Cu4 1_555 1_555
N16 N15 1_555 1_555
H36 N16 1_555 1_555
C24 C25 1_555 1_555
C25 C26 1_555 1_555
C26 O10 1_555 1_555
C27 C26 1_555 1_555
C28 C27 1_555 1_555
H37 C28 1_555 1_555
C29 C24 1_555 1_555
C30 N9 1_555 1_555
H38 C30 1_555 1_555
C31 N10 1_555 1_555
C32 C31 1_555 1_555
H39 C32 1_555 1_555
H40 C32 1_555 1_555
C33 C32 1_555 1_555
H41 C33 1_555 1_555
H42 C33 1_555 1_555
C34 O9 1_555 1_555
H43 C34 1_555 1_555
H44 C34 1_555 1_555
C35 N11 1_555 1_555
H45 C35 1_555 1_555
C36 O11 1_555 1_555
C37 C36 1_555 1_555
H46 C37 1_555 1_555
H47 C37 1_555 1_555
C38 C37 1_555 1_555
H48 C38 1_555 1_555
H49 C38 1_555 1_555
C39 O12 1_555 1_555
H50 C39 1_555 1_555
H51 C39 1_555 1_555
C40 C25 1_555 1_555
H52 C40 1_555 1_555
H53 C40 1_555 1_555
H54 C40 1_555 1_555
C41 N13 1_555 1_555
H55 C41 1_555 1_555
C42 C41 1_555 1_555
H56 C42 1_555 1_555
C43 N14 1_555 1_555
H57 C43 1_555 1_555
C44 N15 1_555 1_555
H58 C44 1_555 1_555
C45 C44 1_555 1_555
H59 C45 1_555 1_555
C46 N16 1_555 1_555
H60 C46 1_555 1_555
Cl1 O13 1_555 1_555
O14 Cl1 1_555 1_555
O15 Cl1 1_555 1_555
O16 Cl1 1_555 1_555
Cl2 O20 1_555 1_555
O21 Cl2 1_555 1_555
O22 Cl2 1_555 1_555
O23 Cl2 1_555 1_555
Cl3 O24 1_555 1_555
O25 Cl3 1_555 1_555
O26 Cl3 1_555 1_555
O27 Cl3 1_555 1_555
Cl4 O28 1_555 1_555
O29 Cl4 1_555 1_555
O30 Cl4 1_555 1_555
O31 Cl4 1_555 1_555
O32 H61 1_555 1_555
C47 O32 1_555 1_555
H62 C47 1_555 1_555
H63 C47 1_555 1_555
H64 C47 1_555 1_555
O33 H65 1_555 1_555
C48 O33 1_555 1_555
H66 C48 1_555 1_555
H67 C48 1_555 1_555
H68 C48 1_555 1_555
Cu2B O3 1_555 1_555
O3B Cu2 1_555 1_555
H1B O3B 1_555 1_555
Cu3B O7 1_555 1_555
O7B Cu3 1_555 1_555
O8B Cu3 1_555 1_555
N9B Cu3 1_555 1_555
N2 C8 1_555 1_555
N4 C13 1_555 1_555
C4 C12 1_555 1_555
C5 C6 1_555 1_555
C6 C7 1_555 1_555
C10 C11 1_555 1_555
C15 C16 1_555 1_555
C19 C20 1_555 1_555
C22 C23 1_555 1_555
O8 Cu3B 1_555 1_555
N9 Cu3B 1_555 1_555
N12 C36 1_555 1_555
C27 C35 1_555 1_555
C28 C29 1_555 1_555
C29 C30 1_555 1_555
C33 C34 1_555 1_555
C38 C39 1_555 1_555
C42 C43 1_555 1_555
C45 C46 1_555 1_555

#END
