
#######################################################################
#
#                 Cambridge Crystallographic Data Centre
#                                CCDC 
#
#######################################################################
#
# If this CIF has been generated from an entry in the Cambridge 
# Structural Database, then it will include bibliographic, chemical, 
# crystal, experimental, refinement or atomic coordinate data resulting 
# from the CCDC's data processing and validation procedures.
#
#######################################################################

data_MIKPED
_symmetry_cell_setting           triclinic
_symmetry_space_group_name_H-M   'P -1'
_symmetry_Int_Tables_number      2
_space_group_name_Hall           '-P 1'
loop_
_symmetry_equiv_pos_site_id
_symmetry_equiv_pos_as_xyz
1 x,y,z
2 -x,-y,-z
_cell_length_a                   11.5153(14)
_cell_length_b                   13.7564(17)
_cell_length_c                   14.434(2)
_cell_angle_alpha                78.740(6)
_cell_angle_beta                 69.547(5)
_cell_angle_gamma                68.645(5)
_cell_volume                     1989.18
loop_
_atom_site_label
_atom_site_type_symbol
_atom_site_fract_x
_atom_site_fract_y
_atom_site_fract_z
Cu1 Cu -1.08570(4) -0.03192(3) -0.05279(3)
O1 O -1.09649(19) 0.09881(15) -0.01850(15)
C1 C -1.1968(3) 0.1599(2) 0.0473(2)
C2 C -1.2865(3) 0.1222(2) 0.1282(2)
C3 C -1.2900(3) 0.0155(2) 0.1385(2)
H1 H -1.3469 -0.0056 0.1958
N1 N -1.2189(3) -0.05087(19) 0.07306(19)
O2 O -1.2413(2) -0.14747(16) 0.09993(16)
H2 H -1.1971 -0.1861 0.0548
C4 C -1.3780(3) 0.1893(2) 0.2010(2)
H3 H -1.4351 0.1630 0.2543
C5 C -1.3872(3) 0.2936(2) 0.1971(2)
C6 C -1.4853(3) 0.3627(2) 0.2827(2)
C7 C -1.4585(4) 0.3083(3) 0.3799(3)
H4 H -1.4726 0.2417 0.3923
H5 H -1.5165 0.3510 0.4335
H6 H -1.3694 0.2980 0.3748
C8 C -1.6255(3) 0.3762(3) 0.2884(3)
H7 H -1.6420 0.4117 0.2278
H8 H -1.6859 0.4168 0.3430
H9 H -1.6365 0.3087 0.2979
C9 C -1.4691(4) 0.4710(3) 0.2692(3)
H10 H -1.4909 0.5089 0.2110
H11 H -1.3800 0.4629 0.2619
H12 H -1.5262 0.5090 0.3262
C10 C -1.3040(3) 0.3312(2) 0.1134(2)
H13 H -1.3107 0.4015 0.1069
C11 C -1.2114(3) 0.2671(2) 0.0392(2)
C12 C -1.1212(3) 0.3095(2) -0.0499(2)
H14 H -1.1424 0.3836 -0.0445
H15 H -1.0320 0.2752 -0.0479
N2 N -1.1266(3) 0.2962(2) -0.14675(19)
C13 C -1.0294(3) 0.3374(3) -0.2250(2)
H16 H -1.0338 0.3317 -0.2888
H17 H -0.9433 0.2978 -0.2206
H18 H -1.0479 0.4096 -0.2165
C14 C -1.2574(3) 0.3454(3) -0.1571(3)
H19 H -1.2493 0.3608 -0.2271
H20 H -1.2968 0.4115 -0.1268
C15 C -1.3495(3) 0.2806(3) -0.1113(3)
C16 C -1.3110(3) 0.1795(3) -0.1388(3)
H21 H -1.2305 0.1525 -0.1856
C17 C -1.3929(3) 0.1183(3) -0.0962(3)
H22 H -1.3653 0.0495 -0.1121
C18 C -1.5169(3) 0.1610(3) -0.0295(3)
H23 H -1.5715 0.1202 -0.0011
O3 O -1.93015(19) 0.16521(15) 0.08238(15)
C19 C -1.9778(3) 0.2071(2) 0.1685(2)
C20 C -2.0332(3) 0.1564(2) 0.2588(2)
C21 C -2.0459(3) 0.0542(3) 0.2655(2)
H24 H -2.0870 0.0276 0.3277
N3 N -2.0050(2) -0.00275(19) 0.1924(2)
O4 O -2.0311(2) -0.09766(16) 0.22195(16)
H25 H -1.9870 -0.1382 0.1783
C22 C -2.0785(3) 0.2052(3) 0.3486(3)
H26 H -2.1162 0.1710 0.4074
C23 C -2.0688(3) 0.3018(3) 0.3518(3)
C24 C -2.1117(4) 0.3541(3) 0.4477(3)
C25 C -1.9907(4) 0.3635(3) 0.4625(3)
H27 H -2.0169 0.3994 0.5209
H28 H -1.9304 0.2949 0.4701
H29 H -1.9492 0.4022 0.4059
C26 C -2.2135(4) 0.4652(3) 0.4399(3)
H30 H -2.2393 0.4988 0.4996
H31 H -2.1748 0.5065 0.3843
H32 H -2.2891 0.4586 0.4310
C27 C -2.1761(5) 0.2920(4) 0.5379(3)
H33 H -2.2037 0.3285 0.5961
H34 H -2.2507 0.2842 0.5285
H35 H -2.1144 0.2241 0.5458
C28 C -2.0160(3) 0.3511(3) 0.2601(3)
H36 H -2.0108 0.4172 0.2596
C29 C -1.9713(3) 0.3075(2) 0.1707(2)
C30 C -1.9285(3) 0.3702(2) 0.0751(2)
H37 H -1.9892 0.3826 0.0380
H38 H -1.9347 0.4377 0.0906
N4 N -1.7947(3) 0.3217(2) 0.01086(19)
C31 C -1.7744(3) 0.3836(2) -0.0850(2)
H39 H -1.6872 0.3529 -0.1271
H40 H -1.7861 0.4539 -0.0747
H41 H -1.8365 0.3846 -0.1157
C32 C -1.6979(3) 0.3138(3) 0.0584(2)
H42 H -1.7143 0.2727 0.1214
H43 H -1.7075 0.3833 0.0715
C33 C -1.5590(3) 0.2637(3) -0.0053(2)
C34 C -1.4730(3) 0.3219(2) -0.0455(2)
H44 H -1.4992 0.3898 -0.0277
Cu1A Cu -1.91430(4) 0.03192(3) 0.05279(3)
Cu1A_2 Cu -0.91430(4) 0.03192(3) 0.05279(3)
O1A O -0.90351(19) -0.09881(15) 0.01850(15)
O3A O -1.06985(19) -0.16521(15) -0.08238(15)
N3A N -0.9950(2) 0.00275(19) -0.1924(2)
O5 O -2.4651(2) 0.0330(2) 0.65351(19)
C35 C -2.3150(4) -0.0931(3) 0.7268(3)
H45 H -2.2289 -0.1150 0.7335
H46 H -2.3225 -0.1456 0.6961
H47 H -2.3790 -0.0837 0.7912
C36 C -2.5492(5) 0.2226(4) 0.6740(4)
H48 H -2.4700 0.2232 0.6819
H49 H -2.6082 0.2108 0.7378
H50 H -2.5894 0.2887 0.6430
C37 C -2.2318(4) 0.0015(4) 0.5657(3)
H51 H -2.1483 -0.0197 0.5769
H52 H -2.2469 0.0687 0.5291
H53 H -2.2327 -0.0489 0.5286
C38 C -2.3377(4) 0.0083(3) 0.6637(3)
H54 H -2.3391 0.0628 0.6992
C39 C -2.5173(5) 0.1360(4) 0.6097(3)
H55 H -2.4536 0.1467 0.5459
C40 C -2.6384(5) 0.1348(5) 0.5909(4)
H56 H -2.6150 0.0785 0.5506
H57 H -2.6752 0.2001 0.5571
H58 H -2.7017 0.1248 0.6530
loop_
_geom_bond_atom_site_label_1
_geom_bond_atom_site_label_2
_geom_bond_site_symmetry_1
_geom_bond_site_symmetry_2
Cu1 O1 1_555 1_555
O1 C1 1_555 1_555
C1 C2 1_555 1_555
C2 C3 1_555 1_555
C3 H1 1_555 1_555
N1 Cu1 1_555 1_555
O2 N1 1_555 1_555
H2 O2 1_555 1_555
C4 C2 1_555 1_555
H3 C4 1_555 1_555
C5 C4 1_555 1_555
C6 C5 1_555 1_555
C7 C6 1_555 1_555
H4 C7 1_555 1_555
H5 C7 1_555 1_555
H6 C7 1_555 1_555
C8 C6 1_555 1_555
H7 C8 1_555 1_555
H8 C8 1_555 1_555
H9 C8 1_555 1_555
C9 C6 1_555 1_555
H10 C9 1_555 1_555
H11 C9 1_555 1_555
H12 C9 1_555 1_555
C10 C5 1_555 1_555
H13 C10 1_555 1_555
C11 C1 1_555 1_555
C12 C11 1_555 1_555
H14 C12 1_555 1_555
H15 C12 1_555 1_555
N2 C12 1_555 1_555
C13 N2 1_555 1_555
H16 C13 1_555 1_555
H17 C13 1_555 1_555
H18 C13 1_555 1_555
C14 N2 1_555 1_555
H19 C14 1_555 1_555
H20 C14 1_555 1_555
C15 C14 1_555 1_555
C16 C15 1_555 1_555
H21 C16 1_555 1_555
C17 C16 1_555 1_555
H22 C17 1_555 1_555
C18 C17 1_555 1_555
H23 C18 1_555 1_555
O3 C19 1_555 1_555
C19 C20 1_555 1_555
C20 C21 1_555 1_555
C21 H24 1_555 1_555
N3 C21 1_555 1_555
O4 N3 1_555 1_555
H25 O4 1_555 1_555
C22 C20 1_555 1_555
H26 C22 1_555 1_555
C23 C22 1_555 1_555
C24 C23 1_555 1_555
C25 C24 1_555 1_555
H27 C25 1_555 1_555
H28 C25 1_555 1_555
H29 C25 1_555 1_555
C26 C24 1_555 1_555
H30 C26 1_555 1_555
H31 C26 1_555 1_555
H32 C26 1_555 1_555
C27 C24 1_555 1_555
H33 C27 1_555 1_555
H34 C27 1_555 1_555
H35 C27 1_555 1_555
C28 C23 1_555 1_555
H36 C28 1_555 1_555
C29 C19 1_555 1_555
C30 C29 1_555 1_555
H37 C30 1_555 1_555
H38 C30 1_555 1_555
N4 C30 1_555 1_555
C31 N4 1_555 1_555
H39 C31 1_555 1_555
H40 C31 1_555 1_555
H41 C31 1_555 1_555
C32 N4 1_555 1_555
H42 C32 1_555 1_555
H43 C32 1_555 1_555
C33 C18 1_555 1_555
C34 C15 1_555 1_555
H44 C34 1_555 1_555
O5 C38 1_555 1_555
C35 H45 1_555 1_555
H46 C35 1_555 1_555
H47 C35 1_555 1_555
C36 H48 1_555 1_555
H49 C36 1_555 1_555
H50 C36 1_555 1_555
C37 H51 1_555 1_555
H52 C37 1_555 1_555
H53 C37 1_555 1_555
C38 C35 1_555 1_555
H54 C38 1_555 1_555
C39 O5 1_555 1_555
H55 C39 1_555 1_555
C40 C39 1_555 1_555
H56 C40 1_555 1_555
H57 C40 1_555 1_555
H58 C40 1_555 1_555
Cu1A O3 1_555 1_555
Cu1A_2 O1 1_555 1_555
O1A Cu1 1_555 1_555
O3A Cu1 1_555 1_555
N3A Cu1 1_555 1_555
C3 N1 1_555 1_555
C10 C11 1_555 1_555
N3 Cu1A 1_555 1_555
C28 C29 1_555 1_555
C32 C33 1_555 1_555
C33 C34 1_555 1_555
C36 C39 1_555 1_555
C37 C38 1_555 1_555
Cu1A_2 O1A 1_555 1_555

#END
