
#######################################################################
#
#                 Cambridge Crystallographic Data Centre
#                                CCDC 
#
#######################################################################
#
# If this CIF has been generated from an entry in the Cambridge 
# Structural Database, then it will include bibliographic, chemical, 
# crystal, experimental, refinement or atomic coordinate data resulting 
# from the CCDC's data processing and validation procedures.
#
#######################################################################

data_MIKVOR
_symmetry_cell_setting           monoclinic
_symmetry_space_group_name_H-M   'P 21'
_symmetry_Int_Tables_number      4
_space_group_name_Hall           'P 2yb'
loop_
_symmetry_equiv_pos_site_id
_symmetry_equiv_pos_as_xyz
1 x,y,z
2 -x,1/2+y,-z
_cell_length_a                   13.954(2)
_cell_length_b                   16.297(2)
_cell_length_c                   14.303(2)
_cell_angle_alpha                90
_cell_angle_beta                 99.27(1)
_cell_angle_gamma                90
_cell_volume                     3210.14
loop_
_atom_site_label
_atom_site_type_symbol
_atom_site_fract_x
_atom_site_fract_y
_atom_site_fract_z
Mn1 Mn 0.3713(3) 0.2787(2) 0.3667(3)
Mn2 Mn 0.1020(3) -0.1927(2) 0.1357(3)
Cr1 Cr 0.3993(3) -0.0499(2) 0.3631(3)
Cr2 Cr 0.1297(3) 0.4780(2) 0.1348(3)
O1 O 0.4187(13) 0.0465(10) 0.2811(11)
O2 O 0.3926(13) 0.0443(10) 0.4589(10)
O3 O 0.3544(11) 0.1743(9) 0.4545(13)
O4 O 0.3951(12) 0.1822(10) 0.2730(12)
O5 O 0.3586(12) 0.3617(10) 0.4719(12)
O6 O 0.2273(12) 0.2908(10) 0.3147(12)
O7 O 0.3783(13) 0.3786(10) 0.2792(12)
O8 O 0.5162(10) 0.2898(10) 0.4191(12)
O9 O 0.1244(11) 0.3823(10) 0.2315(13)
O10 O 0.2766(12) 0.4636(11) 0.1876(12)
O11 O 0.1382(13) 0.5731(10) 0.0496(11)
O12 O 0.6093(11) 0.3624(10) 0.5337(13)
O13 O 0.2443(11) -0.0468(10) 0.3325(11)
O14 O 0.4581(12) 0.4288(10) 0.5926(13)
O15 O 0.3737(11) -0.1300(8) 0.2478(13)
O16 O 0.1243(12) -0.1046(10) 0.2351(14)
O17 O 0.0838(13) 0.7079(12) 0.2262(13)
O18 O 0.2474(10) -0.2039(10) 0.1689(12)
O19 O 0.1022(13) 0.5690(11) 0.2200(12)
O20 O 0.0432(13) 0.3354(9) -0.0937(13)
O21 O -0.1155(13) 0.3987(9) -0.0354(13)
O22 O -0.0160(13) 0.4673(10) 0.0770(12)
O23 O 0.1387(12) 0.4027(9) 0.0179(13)
O24 O 0.1088(9) 0.7123(9) 0.0390(11)
C1 C 0.4004(19) 0.1123(19) 0.3113(19)
C2 C 0.3818(14) 0.1073(13) 0.4186(16)
C3 C 0.2088(18) 0.3519(16) 0.2650(20)
C4 C 0.2969(17) 0.4013(13) 0.2422(15)
C5 C 0.5298(15) 0.3354(14) 0.4857(17)
C6 C 0.4422(18) 0.3806(14) 0.5267(16)
C7 C 0.2115(19) -0.1000(14) 0.2685(16)
C8 C 0.2838(16) -0.1542(14) 0.2222(17)
C9 C 0.0994(17) 0.6404(16) 0.1828(19)
C10 C 0.0610(20) 0.3820(14) -0.0220(20)
C11 C -0.0352(19) 0.4154(14) 0.0056(17)
C12 C 0.1162(17) 0.6378(13) 0.0855(19)
O17_2 O 0.0838(13) -0.2921(12) 0.2262(13)
O20A O -0.0432(13) -0.1646(9) 0.0937(13)
O21A O 0.1155(13) -0.1013(9) 0.0354(13)
O24_2 O 0.1088(9) -0.2877(9) 0.0390(11)
O12A O 0.3907(11) -0.1376(10) 0.4663(13)
O14A O 0.5419(12) -0.0712(10) 0.4074(13)
Cr1A Cr 0.6007(3) 0.4501(2) 0.6369(3)
Mn2_2 Mn 0.1020(3) 0.8073(2) 0.1357(3)
Mn2A Mn -0.1020(3) 0.3073(2) -0.1357(3)
P1 P -0.0491(5) -0.0058(4) 0.4573(5)
N1 N 0.3140(17) -0.0224(15) 0.7391(17)
C13 C -0.1424(14) 0.0564(13) 0.4956(17)
C14 C -0.2390(20) 0.0210(17) 0.4800(20)
C15 C -0.3060(19) 0.0760(20) 0.5080(30)
C16 C -0.2911(17) 0.1494(15) 0.5411(19)
C17 C -0.1947(17) 0.1824(11) 0.5594(15)
C18 C -0.1258(17) 0.1324(12) 0.5345(16)
C19 C -0.0899(16) -0.1100(14) 0.4330(20)
C20 C -0.0826(19) -0.1426(1) 0.3420(20)
C21 C -0.1030(20) -0.2365(14) 0.3320(20)
C22 C -0.1420(20) -0.2725(19) 0.4010(20)
C23 C -0.1416(17) -0.2346(15) 0.4918(18)
C24 C -0.1170(20) -0.1549(16) 0.5000(20)
C25 C -0.0245(16) 0.0396(15) 0.3488(18)
C26 C -0.0967(19) 0.0371(15) 0.2720(20)
C27 C -0.0930(20) 0.0820(20) 0.1890(20)
C28 C -0.0010(30) 0.1167(16) 0.1850(20)
C29 C 0.0710(20) 0.1215(17) 0.2570(20)
C30 C 0.0505(18) 0.0771(15) 0.3353(17)
C31 C 0.0522(19) -0.0065(15) 0.5492(19)
C32 C 0.0582(18) 0.0156(12) 0.6407(18)
C33 C 0.1402(19) 0.0152(14) 0.7050(20)
C34 C 0.2297(18) -0.0189(15) 0.6764(19)
C35 C 0.3051(15) 0.0110(17) 0.8432(16)
C36 C 0.4004(15) -0.0575(16) 0.7200(20)
C37 C 0.2265(17) -0.0401(15) 0.5819(18)
C38 C 0.1404(19) -0.0361(17) 0.5230(20)
H1 H -0.2541 -0.0311 0.4554
H2 H -0.3697 0.0572 0.5012
H3 H -0.3431 0.1810 0.5533
H4 H -0.1808 0.2340 0.5862
H5 H -0.0622 0.1513 0.5447
H6 H -0.0668 -0.1105 0.2933
H7 H -0.0899 -0.2659 0.2795
H8 H -0.1699 -0.3241 0.3901
H9 H -0.1579 -0.2639 0.5428
H10 H -0.1192 -0.1296 0.5575
H11 H -0.1507 0.0042 0.2744
H12 H -0.1460 0.0878 0.1408
H13 H 0.0093 0.1380 0.1270
H14 H 0.1282 0.1507 0.2564
H15 H 0.1013 0.0751 0.3860
H16 H 0.0013 0.0325 0.6609
H17 H 0.1406 0.0355 0.7663
H18 H 0.3629 -0.0028 0.8863
H19 H 0.2499 -0.0138 0.8643
H20 H 0.2971 0.0695 0.8412
H21 H 0.3902 -0.1149 0.7062
H22 H 0.4503 -0.0511 0.7738
H23 H 0.4197 -0.0307 0.6661
H24 H 0.2824 -0.0567 0.5596
H25 H 0.1386 -0.0537 0.4606
P2 P 0.4503(5) 0.2619(4) -0.0435(5)
N2 N 0.8027(18) 0.2774(16) 0.2454(19)
C39 C 0.4646(18) 0.2111(16) -0.1510(19)
C40 C 0.3962(17) 0.2136(16) -0.2266(18)
C41 C 0.4133(19) 0.1832(16) -0.3174(19)
C42 C 0.4964(14) 0.1414(14) -0.3240(17)
C43 C 0.5669(16) 0.1388(13) -0.2446(19)
C44 C 0.5618(12) 0.1719(9) -0.1513(14)
C45 C 0.3538(15) 0.2056(12) -0.0010(14)
C46 C 0.2590(16) 0.2259(12) -0.0173(16)
C47 C 0.1805(19) 0.1789(14) 0.0050(20)
C48 C 0.2180(20) 0.0968(14) 0.0450(20)
C49 C 0.3080(18) 0.0777(14) 0.0609(18)
C50 C 0.3840(19) 0.1262(14) 0.0360(19)
C51 C 0.4139(17) 0.3649(13) -0.0715(16)
C52 C 0.4188(18) 0.4068(16) -0.1510(20)
C53 C 0.3860(20) 0.4797(17) -0.1670(20)
C54 C 0.3614(19) 0.5296(17) -0.0960(20)
C55 C 0.3495(19) 0.4949(14) -0.0170(20)
C56 C 0.3787(18) 0.4117(13) 0.0067(16)
C57 C 0.5560(15) 0.2627(15) 0.0395(15)
C58 C 0.5572(18) 0.2374(15) 0.1343(16)
C59 C 0.6370(20) 0.2453(16) 0.2018(19)
C60 C 0.7258(19) 0.2714(14) 0.1816(19)
C61 C 0.8240(20) 0.2492(17) 0.3320(20)
C62 C 0.8950(20) 0.3072(18) 0.2140(20)
C63 C 0.7207(18) 0.3022(14) 0.0880(20)
C64 C 0.6417(16) 0.2974(14) 0.0180(19)
H26 H 0.3358 0.2354 -0.2211
H27 H 0.3675 0.1922 -0.3713
H28 H 0.5053 0.1156 -0.3800
H29 H 0.6246 0.1127 -0.2516
H30 H 0.6114 0.1692 -0.0995
H31 H 0.2434 0.2762 -0.0466
H32 H 0.1161 0.1958 -0.0030
H33 H 0.1731 0.0583 0.0595
H34 H 0.3248 0.0279 0.0909
H35 H 0.4480 0.1082 0.0430
H36 H 0.4479 0.3815 -0.1976
H37 H 0.3779 0.4999 -0.2283
H38 H 0.3537 0.5859 -0.1052
H39 H 0.3208 0.5251 0.0263
H40 H 0.3760 0.3888 0.0658
H41 H 0.5014 0.2145 0.1509
H42 H 0.6317 0.2327 0.2642
H43 H 0.7878 0.2790 0.3722
H44 H 0.8922 0.2559 0.3536
H45 H 0.8075 0.1921 0.3323
H46 H 0.9096 0.2730 0.1640
H47 H 0.9469 0.3049 0.2668
H48 H 0.8859 0.3628 0.1922
H49 H 0.7758 0.3279 0.0735
H50 H 0.6449 0.3167 -0.0426
loop_
_geom_bond_atom_site_label_1
_geom_bond_atom_site_label_2
_geom_bond_site_symmetry_1
_geom_bond_site_symmetry_2
Mn1 O3 1_555 1_555
Mn2 O16 1_555 1_555
Cr1 O1 1_555 1_555
Cr2 O9 1_555 1_555
O1 C1 1_555 1_555
O2 Cr1 1_555 1_555
O3 C2 1_555 1_555
O4 Mn1 1_555 1_555
O5 Mn1 1_555 1_555
O6 Mn1 1_555 1_555
O7 Mn1 1_555 1_555
O8 Mn1 1_555 1_555
O9 C3 1_555 1_555
O10 Cr2 1_555 1_555
O11 Cr2 1_555 1_555
O12 C5 1_555 1_555
O13 Cr1 1_555 1_555
O14 C6 1_555 1_555
O15 Cr1 1_555 1_555
O16 C7 1_555 1_555
O17 C9 1_555 1_555
O18 Mn2 1_555 1_555
O19 Cr2 1_555 1_555
O20 C10 1_555 1_555
O21 C11 1_555 1_555
O22 Cr2 1_555 1_555
O23 Cr2 1_555 1_555
O24 C12 1_555 1_555
C1 O4 1_555 1_555
C2 O2 1_555 1_555
C3 O6 1_555 1_555
C4 O7 1_555 1_555
C5 O8 1_555 1_555
C6 O5 1_555 1_555
C7 O13 1_555 1_555
C8 O15 1_555 1_555
C9 O19 1_555 1_555
C10 O23 1_555 1_555
C11 O22 1_555 1_555
C12 O11 1_555 1_555
P1 C13 1_555 1_555
N1 C34 1_555 1_555
C13 C14 1_555 1_555
C14 C15 1_555 1_555
C15 C16 1_555 1_555
C16 C17 1_555 1_555
C17 C18 1_555 1_555
C18 C13 1_555 1_555
C19 P1 1_555 1_555
C20 C19 1_555 1_555
C21 C20 1_555 1_555
C22 C21 1_555 1_555
C23 C22 1_555 1_555
C24 C19 1_555 1_555
C25 P1 1_555 1_555
C26 C25 1_555 1_555
C27 C26 1_555 1_555
C28 C27 1_555 1_555
C29 C28 1_555 1_555
C30 C25 1_555 1_555
C31 P1 1_555 1_555
C32 C31 1_555 1_555
C33 C32 1_555 1_555
C34 C33 1_555 1_555
C35 N1 1_555 1_555
C36 N1 1_555 1_555
C37 C34 1_555 1_555
C38 C31 1_555 1_555
P2 C39 1_555 1_555
N2 C60 1_555 1_555
C39 C40 1_555 1_555
C40 C41 1_555 1_555
C41 C42 1_555 1_555
C42 C43 1_555 1_555
C43 C44 1_555 1_555
C44 C39 1_555 1_555
C45 P2 1_555 1_555
C46 C45 1_555 1_555
C47 C46 1_555 1_555
C48 C47 1_555 1_555
C49 C48 1_555 1_555
C50 C45 1_555 1_555
C51 P2 1_555 1_555
C52 C51 1_555 1_555
C53 C52 1_555 1_555
C54 C53 1_555 1_555
C55 C54 1_555 1_555
C56 C51 1_555 1_555
C57 P2 1_555 1_555
C58 C57 1_555 1_555
C59 C58 1_555 1_555
C60 C59 1_555 1_555
C61 N2 1_555 1_555
C62 N2 1_555 1_555
C63 C60 1_555 1_555
C64 C57 1_555 1_555
H1 C14 1_555 1_555
H2 C15 1_555 1_555
H3 C16 1_555 1_555
H4 C17 1_555 1_555
H5 C18 1_555 1_555
H6 C20 1_555 1_555
H7 C21 1_555 1_555
H8 C22 1_555 1_555
H9 C23 1_555 1_555
H10 C24 1_555 1_555
H11 C26 1_555 1_555
H12 C27 1_555 1_555
H13 C28 1_555 1_555
H14 C29 1_555 1_555
H15 C30 1_555 1_555
H16 C32 1_555 1_555
H17 C33 1_555 1_555
H18 C35 1_555 1_555
H19 C35 1_555 1_555
H20 C35 1_555 1_555
H21 C36 1_555 1_555
H22 C36 1_555 1_555
H23 C36 1_555 1_555
H24 C37 1_555 1_555
H25 C38 1_555 1_555
H26 C40 1_555 1_555
H27 C41 1_555 1_555
H28 C42 1_555 1_555
H29 C43 1_555 1_555
H30 C44 1_555 1_555
H31 C46 1_555 1_555
H32 C47 1_555 1_555
H33 C48 1_555 1_555
H34 C49 1_555 1_555
H35 C50 1_555 1_555
H36 C52 1_555 1_555
H37 C53 1_555 1_555
H38 C54 1_555 1_555
H39 C55 1_555 1_555
H40 C56 1_555 1_555
H41 C58 1_555 1_555
H42 C59 1_555 1_555
H43 C61 1_555 1_555
H44 C61 1_555 1_555
H45 C61 1_555 1_555
H46 C62 1_555 1_555
H47 C62 1_555 1_555
H48 C62 1_555 1_555
H49 C63 1_555 1_555
H50 C64 1_555 1_555
O17_2 Mn2 1_555 1_555
O20A Mn2 1_555 1_555
O21A Mn2 1_555 1_555
O24_2 Mn2 1_555 1_555
O12A Cr1 1_555 1_555
O14A Cr1 1_555 1_555
Cr1A O12 1_555 1_555
Mn2_2 O17 1_555 1_555
Mn2A O20 1_555 1_555
O10 C4 1_555 1_555
O14 Cr1A 1_555 1_555
O18 C8 1_555 1_555
O21 Mn2A 1_555 1_555
O24 Mn2_2 1_555 1_555
C1 C2 1_555 1_555
C3 C4 1_555 1_555
C5 C6 1_555 1_555
C7 C8 1_555 1_555
C9 C12 1_555 1_555
C10 C11 1_555 1_555
C23 C24 1_555 1_555
C29 C30 1_555 1_555
C37 C38 1_555 1_555
C49 C50 1_555 1_555
C55 C56 1_555 1_555
C63 C64 1_555 1_555

#END
