
#######################################################################
#
#                 Cambridge Crystallographic Data Centre
#                                CCDC 
#
#######################################################################
#
# If this CIF has been generated from an entry in the Cambridge 
# Structural Database, then it will include bibliographic, chemical, 
# crystal, experimental, refinement or atomic coordinate data resulting 
# from the CCDC's data processing and validation procedures.
#
#######################################################################

data_MIKXOU
_symmetry_cell_setting           orthorhombic
_symmetry_space_group_name_H-M   'P b c a'
_symmetry_Int_Tables_number      61
_space_group_name_Hall           '-P 2ac 2ab'
loop_
_symmetry_equiv_pos_site_id
_symmetry_equiv_pos_as_xyz
1 x,y,z
2 1/2+x,1/2-y,-z
3 -x,1/2+y,1/2-z
4 1/2-x,-y,1/2+z
5 -x,-y,-z
6 1/2-x,1/2+y,z
7 x,1/2-y,1/2+z
8 1/2+x,y,1/2-z
_cell_length_a                   8.7996(6)
_cell_length_b                   18.117(1)
_cell_length_c                   21.617(2)
_cell_angle_alpha                90
_cell_angle_beta                 90
_cell_angle_gamma                90
_cell_volume                     3446.23
loop_
_atom_site_label
_atom_site_type_symbol
_atom_site_fract_x
_atom_site_fract_y
_atom_site_fract_z
Cu1 Cu -0.19907(4) -0.24883(2) 0.42197(2)
Cu2 Cu 0.04654(4) -0.15694(2) 0.48451(2)
O1 O -0.0644(2) -0.1659(1) 0.40479(8)
O2 O -0.3374(2) -0.3278(1) 0.44000(9)
O3 O 0.1363(2) 0.0744(1) 0.48301(9)
N1 N -0.2829(3) -0.2481(1) 0.3402(1)
N2 N 0.1780(3) -0.0789(1) 0.4518(1)
N3 N -0.0949(3) -0.2405(1) 0.5015(1)
N4 N -0.0486(4) -0.2927(2) 0.5337(1)
N5 N 0.0017(5) -0.3390(2) 0.5640(2)
C1 C -0.2318(3) -0.2125(2) 0.2933(1)
C2 C -0.1112(3) -0.1579(2) 0.2953(1)
C3 C -0.0742(3) -0.1238(2) 0.2390(1)
C4 C 0.0315(3) -0.0672(2) 0.2345(1)
C5 C 0.1033(3) -0.0454(2) 0.2883(1)
C6 C 0.0763(3) -0.0795(2) 0.3453(1)
C7 C -0.0344(3) -0.1359(2) 0.3501(1)
C8 C 0.1719(3) -0.0544(2) 0.3960(1)
C9 C 0.2835(4) -0.0385(2) 0.4931(1)
C10 C 0.1999(4) 0.0228(2) 0.5259(1)
C11 C -0.3825(4) -0.3606(2) 0.3825(2)
C12 C -0.4097(4) -0.3010(2) 0.3345(1)
C13 C 0.0682(4) -0.0297(2) 0.1737(1)
H1 H 0.195(4) 0.096(2) 0.463(2)
H2 H 0.162(5) -0.031(2) 0.165(2)
H3 H 0.026(4) -0.059(2) 0.140(2)
H4 H 0.035(4) 0.020(2) 0.173(2)
H5 H -0.2774 -0.2229 0.2533
H6 H -0.1247 -0.1404 0.2017
H7 H 0.1751 -0.0048 0.2864
H8 H 0.2399 -0.0138 0.3864
H9 H 0.3656 -0.0177 0.4688
H10 H 0.3250 -0.0724 0.5235
H11 H 0.1186 0.0016 0.5504
H12 H 0.2704 0.0486 0.5528
H13 H -0.4754 -0.3884 0.3886
H14 H -0.3029 -0.3934 0.3681
H15 H -0.4110 -0.3224 0.2933
H16 H -0.5056 -0.2764 0.3423
Cu2A Cu -0.45346(4) -0.34306(2) 0.51549(2)
Cu2D Cu -0.04654(4) 0.15694(2) 0.51549(2)
O2A O 0.1626(2) -0.1722(1) 0.56000(9)
O3D O -0.1363(2) -0.0744(1) 0.51699(9)
H1D H -0.195(4) -0.096(2) 0.537(2)
Cl1 Cl -0.35612(9) -0.16678(5) 0.63685(4)
O4 O -0.2856(3) -0.2380(1) 0.6310(1)
O5 O -0.4978(3) -0.1736(2) 0.6671(2)
O6 O -0.2577(3) -0.1191(2) 0.6689(1)
O7 O -0.3853(4) -0.1378(2) 0.5771(1)
loop_
_geom_bond_atom_site_label_1
_geom_bond_atom_site_label_2
_geom_bond_site_symmetry_1
_geom_bond_site_symmetry_2
Cu1 O1 1_555 1_555
Cu2 O1 1_555 1_555
Cl1 O4 1_555 1_555
O1 C7 1_555 1_555
O2 Cu1 1_555 1_555
O3 C10 1_555 1_555
O5 Cl1 1_555 1_555
O6 Cl1 1_555 1_555
O7 Cl1 1_555 1_555
N1 Cu1 1_555 1_555
N2 Cu2 1_555 1_555
N3 Cu1 1_555 1_555
N4 N3 1_555 1_555
N5 N4 1_555 1_555
C1 N1 1_555 1_555
C2 C1 1_555 1_555
C3 C2 1_555 1_555
C4 C3 1_555 1_555
C5 C4 1_555 1_555
C6 C5 1_555 1_555
C7 C2 1_555 1_555
C8 N2 1_555 1_555
C9 N2 1_555 1_555
C10 C9 1_555 1_555
C11 O2 1_555 1_555
C12 N1 1_555 1_555
C13 C4 1_555 1_555
H1 O3 1_555 1_555
H2 C13 1_555 1_555
H3 C13 1_555 1_555
H4 C13 1_555 1_555
H5 C1 1_555 1_555
H6 C3 1_555 1_555
H7 C5 1_555 1_555
H8 C8 1_555 1_555
H9 C9 1_555 1_555
H10 C9 1_555 1_555
H11 C10 1_555 1_555
H12 C10 1_555 1_555
H13 C11 1_555 1_555
H14 C11 1_555 1_555
H15 C12 1_555 1_555
H16 C12 1_555 1_555
Cu2A O2 1_555 1_555
Cu2D O3 1_555 1_555
O2A Cu2 1_555 1_555
O3D Cu2 1_555 1_555
H1D O3D 1_555 1_555
Cu2 N3 1_555 1_555
C6 C7 1_555 1_555
C6 C8 1_555 1_555
C11 C12 1_555 1_555

#END
