
#######################################################################
#
#                 Cambridge Crystallographic Data Centre
#                                CCDC 
#
#######################################################################
#
# If this CIF has been generated from an entry in the Cambridge 
# Structural Database, then it will include bibliographic, chemical, 
# crystal, experimental, refinement or atomic coordinate data resulting 
# from the CCDC's data processing and validation procedures.
#
#######################################################################

data_MIKYEM
_symmetry_cell_setting           monoclinic
_symmetry_space_group_name_H-M   'P 21/c'
_symmetry_Int_Tables_number      14
_space_group_name_Hall           '-P 2ybc'
loop_
_symmetry_equiv_pos_site_id
_symmetry_equiv_pos_as_xyz
1 x,y,z
2 -x,1/2+y,1/2-z
3 -x,-y,-z
4 x,1/2-y,1/2+z
_cell_length_a                   10.050(2)
_cell_length_b                   14.313(3)
_cell_length_c                   10.965(2)
_cell_angle_alpha                90
_cell_angle_beta                 94.38(2)
_cell_angle_gamma                90
_cell_volume                     1572.66
loop_
_atom_site_label
_atom_site_type_symbol
_atom_site_fract_x
_atom_site_fract_y
_atom_site_fract_z
Pb1 Pb 0.08401(2) 0.25803(2) 0.39388(2)
Cl1 Cl 0.09671(5) 0.31096(4) 0.15340(4)
N1 N 0.20641(18) 0.13431(12) 0.36168(16)
N2 N -0.06077(18) 0.12255(12) 0.29349(16)
N3 N 0.34353(18) 0.28559(13) 0.45912(16)
C1 C 0.3358(2) 0.12061(15) 0.40635(19)
C2 C 0.3779(2) 0.03481(16) 0.3661(2)
H1 H 0.4637 0.0078 0.3827
C3 C 0.2683(2) -0.00536(15) 0.2951(2)
H2 H 0.2667 -0.0645 0.2557
C4 C 0.1647(2) 0.05802(15) 0.29425(19)
C5 C 0.0295(2) 0.06224(15) 0.2274(2)
H3 H 0.0372 0.0873 0.1441
H4 H -0.0084 -0.0015 0.2195
C6 C -0.1183(2) 0.07545(15) 0.3982(2)
H5 H -0.0524 0.0722 0.4700
H6 H -0.1484 0.0114 0.3759
C7 C -0.2368(2) 0.13781(17) 0.4247(2)
H7 H -0.2115 0.1818 0.4922
H8 H -0.3130 0.0995 0.4477
C8 C -0.2734(2) 0.19114(18) 0.3050(2)
H9 H -0.3672 0.1789 0.2750
H10 H -0.2614 0.2592 0.3172
C9 C -0.1779(2) 0.15410(16) 0.2149(2)
H11 H -0.2185 0.1015 0.1665
H12 H -0.1530 0.2039 0.1583
C10 C 0.3958(2) 0.19208(15) 0.4936(2)
H13 H 0.3737 0.1768 0.5778
H14 H 0.4942 0.1916 0.4919
C11 C 0.3644(2) 0.35692(15) 0.5564(2)
H15 H 0.4584 0.3580 0.5907
H16 H 0.3055 0.3457 0.6233
C12 C 0.3274(2) 0.44749(15) 0.4883(2)
H17 H 0.3802 0.5006 0.5237
H18 H 0.2313 0.4616 0.4917
C13 C 0.3612(2) 0.42846(16) 0.3543(2)
H19 H 0.2814 0.4366 0.2966
H20 H 0.4324 0.4710 0.3303
C14 C 0.4085(2) 0.32707(16) 0.35629(19)
H21 H 0.3802 0.2951 0.2785
H22 H 0.5069 0.3234 0.3701
Pb1C Pb 0.08401(2) 0.24197(2) -0.10612(2)
Cl1C Cl 0.09671(5) 0.18904(4) 0.65340(4)
loop_
_geom_bond_atom_site_label_1
_geom_bond_atom_site_label_2
_geom_bond_site_symmetry_1
_geom_bond_site_symmetry_2
Pb1 Cl1 1_555 1_555
Cl1 Pb1C 1_555 1_555
N1 Pb1 1_555 1_555
N2 Pb1 1_555 1_555
N3 Pb1 1_555 1_555
C1 N1 1_555 1_555
C2 C1 1_555 1_555
H1 C2 1_555 1_555
C3 C2 1_555 1_555
H2 C3 1_555 1_555
C4 N1 1_555 1_555
C5 N2 1_555 1_555
H3 C5 1_555 1_555
H4 C5 1_555 1_555
C6 N2 1_555 1_555
H5 C6 1_555 1_555
H6 C6 1_555 1_555
C7 C6 1_555 1_555
H7 C7 1_555 1_555
H8 C7 1_555 1_555
C8 C7 1_555 1_555
H9 C8 1_555 1_555
H10 C8 1_555 1_555
C9 N2 1_555 1_555
H11 C9 1_555 1_555
H12 C9 1_555 1_555
C10 N3 1_555 1_555
H13 C10 1_555 1_555
H14 C10 1_555 1_555
C11 N3 1_555 1_555
H15 C11 1_555 1_555
H16 C11 1_555 1_555
C12 C11 1_555 1_555
H17 C12 1_555 1_555
H18 C12 1_555 1_555
C13 C12 1_555 1_555
H19 C13 1_555 1_555
H20 C13 1_555 1_555
C14 N3 1_555 1_555
H21 C14 1_555 1_555
H22 C14 1_555 1_555
Cl1C Pb1 1_555 1_555
C1 C10 1_555 1_555
C3 C4 1_555 1_555
C4 C5 1_555 1_555
C8 C9 1_555 1_555
C13 C14 1_555 1_555

#END
