
#######################################################################
#
#                 Cambridge Crystallographic Data Centre
#                                CCDC 
#
#######################################################################
#
# If this CIF has been generated from an entry in the Cambridge 
# Structural Database, then it will include bibliographic, chemical, 
# crystal, experimental, refinement or atomic coordinate data resulting 
# from the CCDC's data processing and validation procedures.
#
#######################################################################

data_MILBIS
_symmetry_cell_setting           monoclinic
_symmetry_space_group_name_H-M   'P 21/c'
_symmetry_Int_Tables_number      14
_space_group_name_Hall           '-P 2ybc'
loop_
_symmetry_equiv_pos_site_id
_symmetry_equiv_pos_as_xyz
1 x,y,z
2 -x,1/2+y,1/2-z
3 -x,-y,-z
4 x,1/2-y,1/2+z
_cell_length_a                   9.5104(17)
_cell_length_b                   6.5998(12)
_cell_length_c                   20.268(4)
_cell_angle_alpha                90
_cell_angle_beta                 102.591(2)
_cell_angle_gamma                90
_cell_volume                     1241.56
loop_
_atom_site_label
_atom_site_type_symbol
_atom_site_fract_x
_atom_site_fract_y
_atom_site_fract_z
Tl1 Tl 1.1657(1) 0.4500(1) 0.2697(1)
C1 C 1.2861(11) 0.9656(16) 0.3197(5)
C2 C 1.1946(10) 0.9334(14) 0.2549(5)
C3 C 1.2374(12) 1.0232(15) 0.1977(5)
C4 C 1.4563(10) 1.1590(18) 0.2703(6)
C5 C 1.4164(12) 1.0763(16) 0.3257(6)
C6 C 1.3647(11) 1.1318(16) 0.2070(5)
O1 O 1.0784(7) 0.8199(10) 0.2467(4)
C7 C 1.1412(14) 0.9880(20) 0.1271(6)
C8 C 1.2421(14) 0.8840(20) 0.3830(6)
C9 C 1.1970(30) 1.0580(20) 0.4232(8)
C10 C 1.1895(15) 0.7870(20) 0.0985(6)
C11 C 1.3582(15) 0.7600(30) 0.4265(6)
C12 C 1.1450(18) 1.1570(30) 0.0779(7)
H1 H 1.5437 1.2326 0.2749
H2 H 1.4776 1.0936 0.3691
H3 H 1.3909 1.1905 0.1686
H4 H 1.0396 0.9714 0.1321
H5 H 1.1565 0.7944 0.3678
H6 H 1.2715 1.1626 0.4307
H7 H 1.1831 1.0071 0.4668
H8 H 1.1059 1.1159 0.3978
H9 H 1.2902 0.7993 0.0948
H10 H 1.1286 0.7613 0.0537
H11 H 1.1800 0.6754 0.1289
H12 H 1.3802 0.6432 0.4008
H13 H 1.3255 0.7136 0.4665
H14 H 1.4450 0.8435 0.4407
H15 H 1.1227 1.2854 0.0975
H16 H 1.0734 1.1308 0.0360
H17 H 1.2411 1.1643 0.0679
O1A O 0.9216(7) 0.3199(10) 0.2533(4)
Tl1A Tl 0.8343(1) 0.9500(1) 0.2303(1)
loop_
_geom_bond_atom_site_label_1
_geom_bond_atom_site_label_2
_geom_bond_site_symmetry_1
_geom_bond_site_symmetry_2
Tl1 O1 1_555 1_555
C1 C2 1_555 1_555
C2 C3 1_555 1_555
C3 C6 1_555 1_555
C4 C5 1_555 1_555
C5 C1 1_555 1_555
C6 C4 1_555 1_555
O1 C2 1_555 1_555
C7 C3 1_555 1_555
C8 C1 1_555 1_555
C9 C8 1_555 1_555
C10 C7 1_555 1_555
C11 C8 1_555 1_555
C12 C7 1_555 1_555
H1 C4 1_555 1_555
H2 C5 1_555 1_555
H3 C6 1_555 1_555
H4 C7 1_555 1_555
H5 C8 1_555 1_555
H6 C9 1_555 1_555
H7 C9 1_555 1_555
H8 C9 1_555 1_555
H9 C10 1_555 1_555
H10 C10 1_555 1_555
H11 C10 1_555 1_555
H12 C11 1_555 1_555
H13 C11 1_555 1_555
H14 C11 1_555 1_555
H15 C12 1_555 1_555
H16 C12 1_555 1_555
H17 C12 1_555 1_555
O1A Tl1 1_555 1_555
Tl1A O1 1_555 1_555

#END
