
#######################################################################
#
#                 Cambridge Crystallographic Data Centre
#                                CCDC 
#
#######################################################################
#
# If this CIF has been generated from an entry in the Cambridge 
# Structural Database, then it will include bibliographic, chemical, 
# crystal, experimental, refinement or atomic coordinate data resulting 
# from the CCDC's data processing and validation procedures.
#
#######################################################################

data_MILBEO
_symmetry_cell_setting           rhombohedral
_symmetry_space_group_name_H-M   'R 3 c'
_symmetry_Int_Tables_number      161
_space_group_name_Hall           'R 3 -2"c'
loop_
_symmetry_equiv_pos_site_id
_symmetry_equiv_pos_as_xyz
1 x,y,z
2 -y,x-y,z
3 -y,-x,1/2+z
4 -x+y,-x,z
5 x,x-y,1/2+z
6 -x+y,y,1/2+z
7 1/3+x,2/3+y,2/3+z
8 1/3-y,2/3+x-y,2/3+z
9 1/3-y,2/3-x,1/6+z
10 1/3-x+y,2/3-x,2/3+z
11 1/3+x,2/3+x-y,1/6+z
12 1/3-x+y,2/3+y,1/6+z
13 2/3+x,1/3+y,1/3+z
14 2/3-y,1/3+x-y,1/3+z
15 2/3-y,1/3-x,5/6+z
16 2/3-x+y,1/3-x,1/3+z
17 2/3+x,1/3+x-y,5/6+z
18 2/3-x+y,1/3+y,5/6+z
_cell_length_a                   25.2686(18)
_cell_length_b                   25.2686(18)
_cell_length_c                   6.6317(7)
_cell_angle_alpha                90
_cell_angle_beta                 90
_cell_angle_gamma                120
_cell_volume                     3667.06
loop_
_atom_site_label
_atom_site_type_symbol
_atom_site_fract_x
_atom_site_fract_y
_atom_site_fract_z
Tl1 Tl 0.7131(1) 0.5475(1) 0.8726(1)
O1 O 0.7457(2) 0.5445(2) 0.5047(6)
C1 C 0.6981(3) 0.5372(3) 0.3949(12)
C2 C 0.6507(3) 0.4777(3) 0.3425(9)
C3 C 0.5999(3) 0.4711(3) 0.2394(11)
C4 C 0.5938(3) 0.5204(3) 0.1895(11)
C5 C 0.6404(3) 0.5786(3) 0.2374(10)
C6 C 0.6931(3) 0.5884(3) 0.3383(9)
C7 C 0.7431(4) 0.6507(3) 0.3895(14)
C8 C 0.6577(4) 0.4232(4) 0.3930(13)
H1 H 0.5685 0.4313 0.2025
H2 H 0.5581 0.5148 0.1229
H3 H 0.6365 0.6128 0.2007
H4 H 0.7355 0.6811 0.3245
H5 H 0.7822 0.6558 0.3419
H6 H 0.7448 0.6563 0.5360
H7 H 0.6182 0.3856 0.3768
H8 H 0.6716 0.4264 0.5328
H9 H 0.6877 0.4221 0.3022
O1E O 0.7988(3) 0.5445(2) 1.0047(6)
Tl1E Tl 0.8344(1) 0.5475(1) 0.3726(1)
loop_
_geom_bond_atom_site_label_1
_geom_bond_atom_site_label_2
_geom_bond_site_symmetry_1
_geom_bond_site_symmetry_2
Tl1 O1 1_555 1_555
O1 C1 1_555 1_555
C1 C2 1_555 1_555
C2 C3 1_555 1_555
C3 C4 1_555 1_555
C4 C5 1_555 1_555
C5 C6 1_555 1_555
C6 C1 1_555 1_555
C7 C6 1_555 1_555
C8 C2 1_555 1_555
H1 C3 1_555 1_555
H2 C4 1_555 1_555
H3 C5 1_555 1_555
H4 C7 1_555 1_555
H5 C7 1_555 1_555
H6 C7 1_555 1_555
H7 C8 1_555 1_555
H8 C8 1_555 1_555
H9 C8 1_555 1_555
O1E Tl1 1_555 1_555
Tl1E O1 1_555 1_555

#END
