
#######################################################################
#
#                 Cambridge Crystallographic Data Centre
#                                CCDC 
#
#######################################################################
#
# If this CIF has been generated from an entry in the Cambridge 
# Structural Database, then it will include bibliographic, chemical, 
# crystal, experimental, refinement or atomic coordinate data resulting 
# from the CCDC's data processing and validation procedures.
#
#######################################################################

data_MILDER
_symmetry_cell_setting           monoclinic
_symmetry_space_group_name_H-M   'P 21/n'
_symmetry_Int_Tables_number      14
_space_group_name_Hall           '-P 2yn'
loop_
_symmetry_equiv_pos_site_id
_symmetry_equiv_pos_as_xyz
1 x,y,z
2 1/2-x,1/2+y,1/2-z
3 -x,-y,-z
4 1/2+x,1/2-y,1/2+z
_cell_length_a                   11.30680(10)
_cell_length_b                   6.68510(10)
_cell_length_c                   23.5000(3)
_cell_angle_alpha                90
_cell_angle_beta                 103.4950(10)
_cell_angle_gamma                90
_cell_volume                     1727.25
loop_
_atom_site_label
_atom_site_type_symbol
_atom_site_fract_x
_atom_site_fract_y
_atom_site_fract_z
Zn1 Zn 1.0000 0.0000 1.0000
N1 N 0.99616(17) 0.2281(3) 0.93921(8)
C1 C 1.0792(2) 0.3718(3) 0.95823(10)
C2 C 0.9197(2) 0.2452(4) 0.88685(11)
H1 H 0.8622 0.1454 0.8743
C3 C 0.9234(2) 0.4067(4) 0.85081(11)
H2 H 0.8701 0.4146 0.8142
O1 O 1.13592(15) 0.1853(3) 1.04637(7)
C4 C 1.1618(2) 0.3334(4) 1.01849(10)
O2 O 1.24819(19) 0.4496(3) 1.03517(9)
O3 O 1.15306(18) 0.8541(3) 0.96911(9)
O4 O 1.28092(17) 0.6831(3) 0.92998(9)
C5 C 1.1813(2) 0.7040(4) 0.94349(10)
C6 C 1.0879(2) 0.5400(4) 0.92433(11)
C7 C 1.0074(2) 0.5565(4) 0.86993(11)
H3 H 1.0101 0.6678 0.8465
Zn1_2 Zn 1.0000 1.0000 1.0000
Zn1_3 Zn 1.0000 -1.0000 1.0000
N1B N 1.00384(17) -0.2281(3) 1.06079(8)
C1B C 0.9208(2) -0.3718(3) 1.04177(10)
C2B C 1.0803(2) -0.2452(4) 1.11315(11)
H1B H 1.1378 -0.1454 1.1257
C3B C 1.0766(2) -0.4067(4) 1.14919(11)
H2B H 1.1299 -0.4146 1.1858
O1B O 0.86408(15) -0.1853(3) 0.95363(7)
C4B C 0.8382(2) -0.3334(4) 0.98151(10)
O2B O 0.75181(19) -0.4496(3) 0.96483(9)
O3B O 0.84694(18) -0.8541(3) 1.03089(9)
O3_2 O 1.15306(18) -0.1459(3) 0.96911(9)
O3B_2 O 0.84694(18) 0.1459(3) 1.03089(9)
O4B O 0.71908(17) -0.6831(3) 1.07002(9)
C5B C 0.8187(2) -0.7040(4) 1.05651(10)
C6B C 0.9121(2) -0.5400(4) 1.07567(11)
C7B C 0.9926(2) -0.5565(4) 1.13007(11)
H3B H 0.9899 -0.6678 1.1535
C8 C 0.7055(2) 0.9067(4) 0.18173(11)
C9 C 0.6821(2) 0.9074(4) 0.23734(12)
H4 H 0.6026 0.9050 0.2419
C10 C 0.8256(2) 0.9147(4) 0.17780(12)
H5 H 0.8451 0.9156 0.1415
C11 C 0.7789(3) 0.9117(4) 0.28549(12)
H6 H 0.7626 0.9098 0.3225
C12 C 0.6050(2) 0.8906(4) 0.12851(12)
C13 C 0.9159(2) 0.9214(5) 0.22844(13)
H7 H 0.9963 0.9283 0.2252
C14 C 0.6188(4) 0.7718(5) 0.08204(13)
H8 H 0.6924 0.7070 0.0840
C15 C 0.4020(3) 0.9518(8) 0.0727(3)
H9 H 0.3260 1.0109 0.0686
C16 C 0.4946(3) 0.9869(5) 0.12455(17)
H10 H 0.4816 1.0701 0.1542
C17 C 0.5282(5) 0.7486(6) 0.03438(17)
H11 H 0.5399 0.6695 0.0036
N2 N 0.8944(2) 0.9185(4) 0.28183(11)
H12 H 0.9529 0.9208 0.3127
N3 N 0.4233(4) 0.8364(7) 0.03074(17)
H13 H 0.3662 0.8182 -0.0001
O5 O 0.6333(2) 0.5215(5) 0.85053(11)
H14 H 0.590(2) 0.435(4) 0.8614(10)
H15 H 0.665(5) 0.531(7) 0.896(2)
O6 O 0.8691(3) 0.7131(5) 0.73067(13)
H16 H 0.822(3) 0.611(6) 0.7114(16)
H17 H 0.864(3) 0.764(6) 0.7073(16)
O7? O 0.7408(4) 0.8593(5) 0.80537(17)
H18? H 0.802(7) 0.751(13) 0.763(3)
H19? H 0.744(3) 0.832(5) 0.8295(12)
loop_
_geom_bond_atom_site_label_1
_geom_bond_atom_site_label_2
_geom_bond_site_symmetry_1
_geom_bond_site_symmetry_2
Zn1 N1 1_555 1_555
N1 C1 1_555 1_555
C1 C4 1_555 1_555
C2 N1 1_555 1_555
H1 C2 1_555 1_555
C3 C2 1_555 1_555
H2 C3 1_555 1_555
O1 Zn1 1_555 1_555
C4 O1 1_555 1_555
O2 C4 1_555 1_555
O3 C5 1_555 1_555
O4 C5 1_555 1_555
C5 C6 1_555 1_555
C6 C1 1_555 1_555
C7 C3 1_555 1_555
H3 C7 1_555 1_555
C8 C9 1_555 1_555
C9 H4 1_555 1_555
C10 C8 1_555 1_555
H5 C10 1_555 1_555
C11 C9 1_555 1_555
H6 C11 1_555 1_555
C12 C8 1_555 1_555
C13 C10 1_555 1_555
H7 C13 1_555 1_555
C14 C12 1_555 1_555
H8 C14 1_555 1_555
C15 H9 1_555 1_555
C16 C12 1_555 1_555
H10 C16 1_555 1_555
C17 C14 1_555 1_555
H11 C17 1_555 1_555
N2 C11 1_555 1_555
H12 N2 1_555 1_555
N3 C15 1_555 1_555
H13 N3 1_555 1_555
O5 H14 1_555 1_555
H15 O5 1_555 1_555
O6 H16 1_555 1_555
H17 O6 1_555 1_555
Zn1_2 O3 1_555 1_555
Zn1_3 O3B 1_555 1_555
N1B Zn1 1_555 1_555
C1B N1B 1_555 1_555
C2B N1B 1_555 1_555
H1B C2B 1_555 1_555
C3B C2B 1_555 1_555
H2B C3B 1_555 1_555
O1B Zn1 1_555 1_555
C4B C1B 1_555 1_555
O2B C4B 1_555 1_555
O3B C5B 1_555 1_555
O3_2 Zn1 1_555 1_555
O3B_2 Zn1 1_555 1_555
O4B C5B 1_555 1_555
C5B C6B 1_555 1_555
C6B C1B 1_555 1_555
C7B C3B 1_555 1_555
H3B C7B 1_555 1_555
C6 C7 1_555 1_555
C13 N2 1_555 1_555
C15 C16 1_555 1_555
C17 N3 1_555 1_555
O1B C4B 1_555 1_555
C6B C7B 1_555 1_555

#END
