
#######################################################################
#
#                 Cambridge Crystallographic Data Centre
#                                CCDC 
#
#######################################################################
#
# If this CIF has been generated from an entry in the Cambridge 
# Structural Database, then it will include bibliographic, chemical, 
# crystal, experimental, refinement or atomic coordinate data resulting 
# from the CCDC's data processing and validation procedures.
#
#######################################################################

data_MILDES
_symmetry_cell_setting           monoclinic
_symmetry_space_group_name_H-M   'P 21/c'
_symmetry_Int_Tables_number      14
_space_group_name_Hall           '-P 2ybc'
loop_
_symmetry_equiv_pos_site_id
_symmetry_equiv_pos_as_xyz
1 x,y,z
2 -x,1/2+y,1/2-z
3 -x,-y,-z
4 x,1/2-y,1/2+z
_cell_length_a                   9.7760(11)
_cell_length_b                   19.964(2)
_cell_length_c                   14.1944(16)
_cell_angle_alpha                90
_cell_angle_beta                 106.930(2)
_cell_angle_gamma                90
_cell_volume                     2650.23
loop_
_atom_site_label
_atom_site_type_symbol
_atom_site_fract_x
_atom_site_fract_y
_atom_site_fract_z
Co1 Co 0.65206(5) 0.57892(2) 0.12570(4)
Co2 Co 0.84558(5) 0.43093(2) 0.38510(4)
P1 P 0.91949(10) 0.47603(5) 0.19247(8)
O1 O 0.8440(3) 0.53982(13) 0.1921(2)
O2 O 0.8844(3) 0.41766(14) 0.2463(2)
O3 O 0.8895(3) 0.45409(14) 0.0806(2)
H1 H 0.8311 0.4797 0.0452
O4 O 1.3111(3) 0.44828(13) 0.01422(19)
O5 O 1.5206(3) 0.48906(13) 0.10524(19)
O6 O 1.6479(3) 0.48338(14) 0.3344(2)
O7 O 1.5978(3) 0.58285(13) 0.2589(2)
O8 O 1.0027(3) 0.50547(15) 0.3946(2)
O9 O 1.2003(3) 0.55683(15) 0.4801(2)
N1 N 0.5022(3) 0.65071(15) 0.0440(2)
N2 N 0.7572(3) 0.67307(16) 0.1695(2)
N3 N 0.9975(3) 0.35538(16) 0.4601(3)
N4 N 0.7351(3) 0.33991(15) 0.3372(2)
C1 C 1.1106(4) 0.49118(17) 0.2287(3)
C2 C 1.1809(4) 0.47761(17) 0.1575(3)
H2 H 1.1278 0.4607 0.0968
C3 C 1.3264(4) 0.48836(17) 0.1739(3)
C4 C 1.4067(4) 0.51260(17) 0.2661(3)
C5 C 1.3374(4) 0.52504(17) 0.3375(3)
H3 H 1.3908 0.5409 0.3988
C6 C 1.1919(4) 0.51471(17) 0.3204(3)
C7 C 1.3930(4) 0.47422(17) 0.0916(3)
C8 C 1.5660(4) 0.52677(18) 0.2882(3)
C9 C 1.1214(4) 0.52659(16) 0.4047(3)
C10 C 0.3774(4) 0.6392(2) -0.0202(3)
H4 H 0.3498 0.5949 -0.0353
C11 C 0.2838(5) 0.6900(2) -0.0672(3)
H5 H 0.1960 0.6796 -0.1119
C12 C 0.3232(5) 0.7550(2) -0.0463(3)
H6 H 0.2614 0.7894 -0.0757
C13 C 0.4565(4) 0.7698(2) 0.0190(3)
C14 C 0.5420(4) 0.71585(19) 0.0630(3)
C15 C 0.6792(4) 0.72751(19) 0.1314(3)
C16 C 0.5071(5) 0.8365(2) 0.0462(4)
H7 H 0.4494 0.8727 0.0187
C17 C 0.6361(5) 0.8477(2) 0.1108(4)
H8 H 0.6667 0.8915 0.1263
C18 C 0.7273(5) 0.7934(2) 0.1560(3)
C19 C 0.8631(5) 0.8010(2) 0.2225(4)
H9 H 0.9004 0.8436 0.2403
C20 C 0.9400(5) 0.7460(2) 0.2608(4)
H10 H 1.0302 0.7506 0.3057
C21 C 0.8838(4) 0.6822(2) 0.2328(3)
H11 H 0.9379 0.6449 0.2601
C22 C 1.1249(4) 0.3639(2) 0.5239(3)
H12 H 1.1569 0.4073 0.5414
C23 C 1.2135(5) 0.3103(2) 0.5661(3)
H13 H 1.3023 0.3181 0.6112
C24 C 1.1684(5) 0.2462(2) 0.5405(3)
H14 H 1.2273 0.2102 0.5671
C25 C 1.0333(5) 0.2350(2) 0.4742(3)
C26 C 0.9503(4) 0.29172(19) 0.4357(3)
C27 C 0.8113(4) 0.28379(19) 0.3680(3)
C28 C 0.9764(6) 0.1701(2) 0.4406(4)
H15 H 1.0308 0.1323 0.4646
C29 C 0.8487(5) 0.1627(2) 0.3765(4)
H16 H 0.8154 0.1197 0.3568
C30 C 0.7601(5) 0.2192(2) 0.3365(3)
C31 C 0.6239(5) 0.2150(2) 0.2687(4)
H17 H 0.5849 0.1735 0.2459
C32 C 0.5498(5) 0.2716(2) 0.2367(3)
H18 H 0.4597 0.2692 0.1911
C33 C 0.6081(4) 0.3339(2) 0.2718(3)
H19 H 0.5557 0.3724 0.2484
Co1_2 Co 1.65206(5) 0.57892(2) 0.12570(4)
Co1B Co 1.34794(5) 0.42108(2) -0.12570(4)
Co2_2 Co 1.84558(5) 0.43093(2) 0.38510(4)
Co2B Co 1.15442(5) 0.56907(2) 0.61490(4)
O4B O 0.6889(3) 0.55172(13) -0.01422(19)
O5_2 O 0.5206(3) 0.48906(13) 0.10524(19)
O6_2 O 0.6479(3) 0.48338(14) 0.3344(2)
O7_2 O 0.5978(3) 0.58285(13) 0.2589(2)
O9B O 0.7997(3) 0.44317(15) 0.5199(2)
loop_
_geom_bond_atom_site_label_1
_geom_bond_atom_site_label_2
_geom_bond_site_symmetry_1
_geom_bond_site_symmetry_2
Co1 O1 1_555 1_555
Co2 O2 1_555 1_555
P1 O1 1_555 1_555
O2 P1 1_555 1_555
O3 P1 1_555 1_555
H1 O3 1_555 1_555
O4 C7 1_555 1_555
O5 C7 1_555 1_555
O6 C8 1_555 1_555
O7 C8 1_555 1_555
O8 Co2 1_555 1_555
O9 C9 1_555 1_555
N1 Co1 1_555 1_555
N2 Co1 1_555 1_555
N3 Co2 1_555 1_555
N4 Co2 1_555 1_555
C1 P1 1_555 1_555
C2 C1 1_555 1_555
H2 C2 1_555 1_555
C3 C2 1_555 1_555
C4 C3 1_555 1_555
C5 C4 1_555 1_555
H3 C5 1_555 1_555
C6 C1 1_555 1_555
C7 C3 1_555 1_555
C8 C4 1_555 1_555
C9 O8 1_555 1_555
C10 N1 1_555 1_555
H4 C10 1_555 1_555
C11 C10 1_555 1_555
H5 C11 1_555 1_555
C12 C11 1_555 1_555
H6 C12 1_555 1_555
C13 C12 1_555 1_555
C14 N1 1_555 1_555
C15 N2 1_555 1_555
C16 C13 1_555 1_555
H7 C16 1_555 1_555
C17 C16 1_555 1_555
H8 C17 1_555 1_555
C18 C15 1_555 1_555
C19 C18 1_555 1_555
H9 C19 1_555 1_555
C20 C19 1_555 1_555
H10 C20 1_555 1_555
C21 N2 1_555 1_555
H11 C21 1_555 1_555
C22 N3 1_555 1_555
H12 C22 1_555 1_555
C23 C22 1_555 1_555
H13 C23 1_555 1_555
C24 C23 1_555 1_555
H14 C24 1_555 1_555
C25 C24 1_555 1_555
C26 N3 1_555 1_555
C27 N4 1_555 1_555
C28 C25 1_555 1_555
H15 C28 1_555 1_555
C29 C28 1_555 1_555
H16 C29 1_555 1_555
C30 C27 1_555 1_555
C31 C30 1_555 1_555
H17 C31 1_555 1_555
C32 C31 1_555 1_555
H18 C32 1_555 1_555
C33 N4 1_555 1_555
H19 C33 1_555 1_555
Co1_2 O5 1_555 1_555
Co1B O4 1_555 1_555
Co2_2 O6 1_555 1_555
Co2B O9 1_555 1_555
O4B Co1 1_555 1_555
O5_2 Co1 1_555 1_555
O6_2 Co2 1_555 1_555
O7_2 Co1 1_555 1_555
O9B Co2 1_555 1_555
O7 Co1_2 1_555 1_555
C5 C6 1_555 1_555
C6 C9 1_555 1_555
C13 C14 1_555 1_555
C14 C15 1_555 1_555
C17 C18 1_555 1_555
C20 C21 1_555 1_555
C25 C26 1_555 1_555
C26 C27 1_555 1_555
C29 C30 1_555 1_555
C32 C33 1_555 1_555

#END
