
#######################################################################
#
#                 Cambridge Crystallographic Data Centre
#                                CCDC 
#
#######################################################################
#
# If this CIF has been generated from an entry in the Cambridge 
# Structural Database, then it will include bibliographic, chemical, 
# crystal, experimental, refinement or atomic coordinate data resulting 
# from the CCDC's data processing and validation procedures.
#
#######################################################################

data_MILDIW
_symmetry_cell_setting           monoclinic
_symmetry_space_group_name_H-M   'P 21/n'
_symmetry_Int_Tables_number      14
_space_group_name_Hall           '-P 2yn'
loop_
_symmetry_equiv_pos_site_id
_symmetry_equiv_pos_as_xyz
1 x,y,z
2 1/2-x,1/2+y,1/2-z
3 -x,-y,-z
4 1/2+x,1/2-y,1/2+z
_cell_length_a                   9.9763(16)
_cell_length_b                   20.813(3)
_cell_length_c                   14.630(2)
_cell_angle_alpha                90
_cell_angle_beta                 109.208(3)
_cell_angle_gamma                90
_cell_volume                     2868.62
loop_
_atom_site_label
_atom_site_type_symbol
_atom_site_fract_x
_atom_site_fract_y
_atom_site_fract_z
Co1 Co 1.07903(6) 0.07381(3) 0.36232(4)
Co2 Co -0.03493(6) -0.07344(3) 0.03235(4)
P1 P 0.20014(12) -0.03383(5) 0.23978(8)
O1 O 0.2078(3) -0.08522(12) 0.3191(2)
H1 H 0.2465 -0.0685 0.3745
O2 O 0.1480(3) -0.06576(12) 0.14360(18)
O3 O 0.1171(3) 0.02272(12) 0.25264(18)
O4 O 0.2259(3) 0.06358(12) 0.07372(19)
O5 O 0.3317(3) -0.01386(15) 0.0161(2)
O6 O 0.9159(3) 0.01603(13) 0.3796(2)
O7 O 0.8472(3) 0.08387(14) 0.2585(2)
O8 O 0.7476(3) -0.05415(13) 0.51651(19)
O9 O 0.7426(3) 0.05294(13) 0.51168(19)
O10 O -0.0615(3) 0.03057(11) 0.06513(18)
H2 H -0.0161 0.0384 0.1283
H3 H -0.1570 0.0294 0.0433
N1 N 1.1502(4) 0.15874(15) 0.3147(2)
N2 N 1.0347(4) 0.14635(15) 0.4529(2)
N3 N -0.1303(4) -0.12314(16) 0.1210(2)
N4 N 0.0016(4) -0.17013(15) 0.0023(2)
C1 C 0.4271(4) 0.01274(18) 0.1827(3)
C2 C 0.3819(4) -0.01056(18) 0.2573(3)
C3 C 0.4823(4) -0.01833(17) 0.3494(3)
H4 H 0.4540 -0.0356 0.3987
C4 C 0.6235(4) -0.00078(17) 0.3689(3)
C5 C 0.6678(4) 0.02331(18) 0.2946(3)
C6 C 0.5684(4) 0.02892(18) 0.2025(3)
H5 H 0.5979 0.0441 0.1524
C7 C 0.3255(4) 0.02260(18) 0.0779(3)
C8 C 0.8195(4) 0.04264(19) 0.3116(3)
C9 C 0.7151(4) -0.0012(2) 0.4741(3)
C10 C -0.1965(5) -0.1003(2) 0.1780(3)
H6 H -0.2060 -0.0560 0.1810
C11 C -0.2531(6) -0.1384(3) 0.2341(4)
H7 H -0.2982 -0.1199 0.2741
C12 C -0.2415(6) -0.2030(3) 0.2297(4)
H8 H -0.2809 -0.2293 0.2655
C13 C -0.1702(5) -0.2302(2) 0.1710(3)
C14 C -0.1177(4) -0.1884(2) 0.1165(3)
C15 C -0.0456(5) -0.2132(2) 0.0539(3)
C16 C -0.1518(6) -0.2979(2) 0.1638(4)
H9 H -0.1869 -0.3259 0.2000
C17 C -0.0838(6) -0.3215(2) 0.1050(4)
H10 H -0.0733 -0.3657 0.1012
C18 C -0.0279(5) -0.2801(2) 0.0486(3)
C19 C 0.0455(6) -0.3017(2) -0.0120(4)
H11 H 0.0605 -0.3453 -0.0178
C20 C 0.0942(5) -0.2585(2) -0.0620(4)
H12 H 0.1443 -0.2724 -0.1018
C21 C 0.0698(5) -0.1933(2) -0.0544(3)
H13 H 0.1030 -0.1646 -0.0907
C22 C 1.2136(5) 0.1639(2) 0.2487(3)
H14 H 1.2344 0.1268 0.2208
C23 C 1.2502(5) 0.2233(2) 0.2195(3)
H15 H 1.2941 0.2251 0.1724
C24 C 1.2223(5) 0.2789(2) 0.2594(3)
H16 H 1.2477 0.3184 0.2405
C25 C 1.1553(5) 0.2753(2) 0.3288(3)
C26 C 1.1218(4) 0.21389(19) 0.3545(3)
C27 C 1.0589(4) 0.20730(19) 0.4289(3)
C28 C 1.1250(5) 0.3296(2) 0.3775(3)
H17 H 1.1468 0.3704 0.3607
C29 C 1.0657(5) 0.3234(2) 0.4471(4)
H18 H 1.0471 0.3601 0.4773
C30 C 1.0303(5) 0.2618(2) 0.4758(3)
C31 C 0.9736(5) 0.2509(2) 0.5499(4)
H19 H 0.9506 0.2855 0.5821
C32 C 0.9518(5) 0.1901(2) 0.5749(3)
H20 H 0.9151 0.1828 0.6248
C33 C 0.9852(4) 0.1387(2) 0.5251(3)
H21 H 0.9718 0.0971 0.5438
Co1_2 Co 0.07903(6) 0.07381(3) 0.36232(4)
Co1B Co 0.92097(6) -0.07381(3) 0.63768(4)
Co2B Co 0.03493(6) 0.07344(3) -0.03235(4)
O3_2 O 1.1171(3) 0.02272(12) 0.25264(18)
O4B O -0.2259(3) -0.06358(12) -0.07372(19)
O8B O 1.2524(3) 0.05415(13) 0.48349(19)
O10B O 0.0615(3) -0.03057(11) -0.06513(18)
loop_
_geom_bond_atom_site_label_1
_geom_bond_atom_site_label_2
_geom_bond_site_symmetry_1
_geom_bond_site_symmetry_2
Co1 O6 1_555 1_555
Co2 O2 1_555 1_555
P1 O1 1_555 1_555
O1 H1 1_555 1_555
O2 P1 1_555 1_555
O3 P1 1_555 1_555
O4 C7 1_555 1_555
O5 C7 1_555 1_555
O6 C8 1_555 1_555
O7 Co1 1_555 1_555
O8 C9 1_555 1_555
O9 C9 1_555 1_555
O10 Co2 1_555 1_555
H2 O10 1_555 1_555
H3 O10 1_555 1_555
N1 Co1 1_555 1_555
N2 Co1 1_555 1_555
N3 Co2 1_555 1_555
N4 Co2 1_555 1_555
C1 C2 1_555 1_555
C2 P1 1_555 1_555
C3 C2 1_555 1_555
H4 C3 1_555 1_555
C4 C3 1_555 1_555
C5 C4 1_555 1_555
C6 C1 1_555 1_555
H5 C6 1_555 1_555
C7 C1 1_555 1_555
C8 O7 1_555 1_555
C9 C4 1_555 1_555
C10 N3 1_555 1_555
H6 C10 1_555 1_555
C11 C10 1_555 1_555
H7 C11 1_555 1_555
C12 C11 1_555 1_555
H8 C12 1_555 1_555
C13 C12 1_555 1_555
C14 N3 1_555 1_555
C15 N4 1_555 1_555
C16 C13 1_555 1_555
H9 C16 1_555 1_555
C17 C16 1_555 1_555
H10 C17 1_555 1_555
C18 C15 1_555 1_555
C19 C18 1_555 1_555
H11 C19 1_555 1_555
C20 C19 1_555 1_555
H12 C20 1_555 1_555
C21 N4 1_555 1_555
H13 C21 1_555 1_555
C22 N1 1_555 1_555
H14 C22 1_555 1_555
C23 C22 1_555 1_555
H15 C23 1_555 1_555
C24 C23 1_555 1_555
H16 C24 1_555 1_555
C25 C24 1_555 1_555
C26 N1 1_555 1_555
C27 N2 1_555 1_555
C28 C25 1_555 1_555
H17 C28 1_555 1_555
C29 C28 1_555 1_555
H18 C29 1_555 1_555
C30 C27 1_555 1_555
C31 C30 1_555 1_555
H19 C31 1_555 1_555
C32 C31 1_555 1_555
H20 C32 1_555 1_555
C33 N2 1_555 1_555
H21 C33 1_555 1_555
Co1_2 O3 1_555 1_555
Co1B O8 1_555 1_555
Co2B O4 1_555 1_555
O3_2 Co1 1_555 1_555
O4B Co2 1_555 1_555
O8B Co1 1_555 1_555
O10B Co2 1_555 1_555
O10 Co2B 1_555 1_555
C5 C6 1_555 1_555
C5 C8 1_555 1_555
C13 C14 1_555 1_555
C14 C15 1_555 1_555
C17 C18 1_555 1_555
C20 C21 1_555 1_555
C25 C26 1_555 1_555
C26 C27 1_555 1_555
C29 C30 1_555 1_555
C32 C33 1_555 1_555
Co2B O10B 1_555 1_555

#END
