
#######################################################################
#
#                 Cambridge Crystallographic Data Centre
#                                CCDC 
#
#######################################################################
#
# If this CIF has been generated from an entry in the Cambridge 
# Structural Database, then it will include bibliographic, chemical, 
# crystal, experimental, refinement or atomic coordinate data resulting 
# from the CCDC's data processing and validation procedures.
#
#######################################################################

data_MILJUN
_symmetry_cell_setting           monoclinic
_symmetry_space_group_name_H-M   'C 2/c'
_symmetry_Int_Tables_number      15
_space_group_name_Hall           '-C 2yn'
loop_
_symmetry_equiv_pos_site_id
_symmetry_equiv_pos_as_xyz
1 x,y,z
2 1/2+x,1/2+y,z
3 -x,y,1/2-z
4 1/2-x,1/2+y,1/2-z
5 -x,-y,-z
6 1/2-x,1/2-y,-z
7 x,-y,1/2+z
8 1/2+x,1/2-y,1/2+z
_cell_length_a                   13.7951(14)
_cell_length_b                   18.5094(18)
_cell_length_c                   15.3155(15)
_cell_angle_alpha                90
_cell_angle_beta                 90.317(4)
_cell_angle_gamma                90
_cell_volume                     3910.58
loop_
_atom_site_label
_atom_site_type_symbol
_atom_site_fract_x
_atom_site_fract_y
_atom_site_fract_z
Cl1 Cl 0.0000 0.55902(14) 0.7500
O4 O 0.0574(5) 0.6016(3) 0.8074(4)
O5 O -0.0613(4) 0.5154(3) 0.8015(4)
O4B O -0.0574(5) 0.6016(3) 0.6926(4)
O5B O 0.0613(4) 0.5154(3) 0.6985(4)
Fe1 Fe 0.0000 0.27775(6) 0.7500
Fe2 Fe -0.2500 0.2500 1.0000
Cl2 Cl -0.14917(19) 0.09507(14) 1.0384(3)
O1 O -0.1339(3) 0.3164(2) 0.9762(3)
N1 N -0.0825(4) 0.2027(3) 0.6969(3)
O2 O -0.2449(3) 0.2230(2) 0.8718(3)
N2 N 0.0556(3) 0.3522(2) 0.8278(3)
C1 C -0.0830(4) 0.3169(3) 0.9103(4)
O3 O -0.1399(3) 0.1710(2) 1.0235(3)
N3 N -0.0986(4) 0.2763(2) 0.8370(3)
C2 C -0.1643(5) 0.1874(3) 0.7433(4)
C3 C 0.0052(4) 0.3609(3) 0.9030(4)
C4 C -0.1757(4) 0.2309(3) 0.8237(4)
C5 C 0.1352(5) 0.3923(4) 0.8162(4)
H1 H 0.1698 0.3870 0.7647
C6 C -0.0674(5) 0.1633(3) 0.6228(4)
H2 H -0.0132 0.1733 0.5890
C7 C 0.0345(5) 0.4080(3) 0.9672(4)
H3 H -0.0004 0.4127 1.0186
C8 C 0.1172(5) 0.4483(4) 0.9534(5)
H4 H 0.1388 0.4806 0.9958
C9 C -0.2290(5) 0.1347(4) 0.7192(4)
H5 H -0.2841 0.1260 0.7523
C10 C 0.1675(5) 0.4404(4) 0.8768(5)
H6 H 0.2230 0.4676 0.8665
C11 C -0.1284(6) 0.1104(4) 0.5968(5)
H7 H -0.1153 0.0839 0.5466
C12 C -0.2112(6) 0.0956(4) 0.6457(5)
H8 H -0.2538 0.0593 0.6283
O6 O -0.0583(5) 0.0675(4) 1.0574(6)
O7 O -0.2127(8) 0.0873(6) 1.1111(9)
O8 O -0.1899(11) 0.0641(6) 0.9705(15)
Fe2G Fe 0.2500 0.2500 0.5000
Cl2E Cl -0.35083(19) 0.40493(14) 0.9616(3)
O1B O 0.1339(3) 0.3164(2) 0.5238(3)
O1E O -0.3661(3) 0.1836(2) 1.0238(3)
N1B N 0.0825(4) 0.2027(3) 0.8031(3)
O2B O 0.2449(3) 0.2230(2) 0.6282(3)
O2E O -0.2551(3) 0.2770(2) 1.1282(3)
N2B N -0.0556(3) 0.3522(2) 0.6722(3)
C1B C 0.0830(4) 0.3169(3) 0.5897(4)
O3E O -0.3601(3) 0.3290(2) 0.9765(3)
N3B N 0.0986(4) 0.2763(2) 0.6630(3)
C2B C 0.1643(5) 0.1874(3) 0.7567(4)
C3B C -0.0052(4) 0.3609(3) 0.5970(4)
C4B C 0.1757(4) 0.2309(3) 0.6763(4)
C5B C -0.1352(5) 0.3923(4) 0.6838(4)
H1B H -0.1698 0.3870 0.7353
C6B C 0.0674(5) 0.1633(3) 0.8772(4)
H2B H 0.0132 0.1733 0.9110
C7B C -0.0345(5) 0.4080(3) 0.5328(4)
H3B H 0.0004 0.4127 0.4814
C8B C -0.1172(5) 0.4483(4) 0.5466(5)
H4B H -0.1388 0.4806 0.5042
C9B C 0.2290(5) 0.1347(4) 0.7808(4)
H5B H 0.2841 0.1260 0.7477
C10B C -0.1675(5) 0.4404(4) 0.6232(5)
H6B H -0.2230 0.4676 0.6335
C11B C 0.1284(6) 0.1104(4) 0.9032(5)
H7B H 0.1153 0.0839 0.9534
C12B C 0.2112(6) 0.0956(4) 0.8543(5)
H8B H 0.2538 0.0593 0.8717
O6E O -0.4417(5) 0.4325(4) 0.9426(6)
O7E O -0.2873(8) 0.4127(6) 0.8889(9)
O8E O -0.3101(11) 0.4359(6) 1.0295(15)
N4? N 0.1822(17) 0.2143(12) 0.1096(17)
O9? O 0.0752(18) 0.0407(12) 0.2223(13)
O10? O 0.145(2) 0.2030(12) 0.1845(16)
O11? O 0.1201(17) 0.2529(10) 0.0512(14)
C13? C 0.0561(15) 0.2397(9) 0.1336(15)
N5? N 0.0000 0.020(4) 0.2500
C14? C 0.0000 -0.020(6) 0.2500
loop_
_geom_bond_atom_site_label_1
_geom_bond_atom_site_label_2
_geom_bond_site_symmetry_1
_geom_bond_site_symmetry_2
Fe1 N1 1_555 1_555
Fe2 O1 1_555 1_555
Cl1 O4 1_555 1_555
Cl2 O3 1_555 1_555
O1 C1 1_555 1_555
N1 C2 1_555 1_555
O2 Fe2 1_555 1_555
N2 Fe1 1_555 1_555
C1 N3 1_555 1_555
O3 Fe2 1_555 1_555
N3 Fe1 1_555 1_555
C2 C4 1_555 1_555
C3 N2 1_555 1_555
C4 O2 1_555 1_555
C5 N2 1_555 1_555
H1 C5 1_555 1_555
C6 N1 1_555 1_555
H2 C6 1_555 1_555
C7 C3 1_555 1_555
H3 C7 1_555 1_555
C8 C7 1_555 1_555
H4 C8 1_555 1_555
C9 C2 1_555 1_555
H5 C9 1_555 1_555
C10 C5 1_555 1_555
H6 C10 1_555 1_555
C11 C6 1_555 1_555
H7 C11 1_555 1_555
C12 C9 1_555 1_555
H8 C12 1_555 1_555
O5 Cl1 1_555 1_555
O6 Cl2 1_555 1_555
O7 Cl2 1_555 1_555
O8 Cl2 1_555 1_555
Fe2G O1B 1_555 1_555
Cl2E O3E 1_555 1_555
O1B C1B 1_555 1_555
O1E Fe2 1_555 1_555
N1B Fe1 1_555 1_555
O2B Fe2G 1_555 1_555
O2E Fe2 1_555 1_555
N2B Fe1 1_555 1_555
C1B N3B 1_555 1_555
O3E Fe2 1_555 1_555
N3B Fe1 1_555 1_555
C2B N1B 1_555 1_555
C3B N2B 1_555 1_555
C4B O2B 1_555 1_555
C5B N2B 1_555 1_555
H1B C5B 1_555 1_555
C6B N1B 1_555 1_555
H2B C6B 1_555 1_555
C7B C3B 1_555 1_555
H3B C7B 1_555 1_555
C8B C7B 1_555 1_555
H4B C8B 1_555 1_555
C9B C2B 1_555 1_555
H5B C9B 1_555 1_555
C10B C5B 1_555 1_555
H6B C10B 1_555 1_555
C11B C6B 1_555 1_555
H7B C11B 1_555 1_555
C12B C9B 1_555 1_555
H8B C12B 1_555 1_555
O4B Cl1 1_555 1_555
O5B Cl1 1_555 1_555
O6E Cl2E 1_555 1_555
O7E Cl2E 1_555 1_555
O8E Cl2E 1_555 1_555
C1 C3 1_555 1_555
N3 C4 1_555 1_555
C8 C10 1_555 1_555
C11 C12 1_555 1_555
C1B C3B 1_555 1_555
N3B C4B 1_555 1_555
C2B C4B 1_555 1_555
C8B C10B 1_555 1_555
C11B C12B 1_555 1_555

#END
