
#######################################################################
#
#                 Cambridge Crystallographic Data Centre
#                                CCDC 
#
#######################################################################
#
# If this CIF has been generated from an entry in the Cambridge 
# Structural Database, then it will include bibliographic, chemical, 
# crystal, experimental, refinement or atomic coordinate data resulting 
# from the CCDC's data processing and validation procedures.
#
#######################################################################

data_MILKUN01
_symmetry_cell_setting           monoclinic
_symmetry_space_group_name_H-M   'C 2/c'
_symmetry_Int_Tables_number      15
_space_group_name_Hall           '-C 2yn'
loop_
_symmetry_equiv_pos_site_id
_symmetry_equiv_pos_as_xyz
1 x,y,z
2 1/2+x,1/2+y,z
3 -x,y,1/2-z
4 1/2-x,1/2+y,1/2-z
5 -x,-y,-z
6 1/2-x,1/2-y,-z
7 x,-y,1/2+z
8 1/2+x,1/2-y,1/2+z
_cell_length_a                   31.267(3)
_cell_length_b                   5.6185(6)
_cell_length_c                   7.7202(8)
_cell_angle_alpha                90
_cell_angle_beta                 101.924(2)
_cell_angle_gamma                90
_cell_volume                     1326.97
loop_
_atom_site_label
_atom_site_type_symbol
_atom_site_fract_x
_atom_site_fract_y
_atom_site_fract_z
Ca1 Ca 0.0000 -0.10881(19) 0.2500
P1 P 0.06063(4) 0.33980(18) 0.41844(13)
O1 O 0.04986(8) 0.6006(4) 0.4134(3)
O2 O 0.03561(9) 0.1789(4) 0.5156(3)
O3 O 0.05108(10) 0.2283(5) 0.2274(4)
H1 H 0.0525(17) 0.303(8) 0.135(7)
C1 C 0.11842(14) 0.3037(7) 0.5050(5)
C2 C 0.14829(14) 0.4732(7) 0.4744(5)
H2 H 0.1383 0.6124 0.4085
C3 C 0.19241(14) 0.4411(8) 0.5389(5)
H3 H 0.2126 0.5576 0.5168
C4 C 0.20725(15) 0.2398(7) 0.6357(6)
H4 H 0.2377 0.2173 0.6797
C5 C 0.17771(14) 0.0717(8) 0.6682(5)
H5 H 0.1878 -0.0655 0.7364
C6 C 0.13343(14) 0.1022(7) 0.6017(5)
H6 H 0.1133 -0.0155 0.6226
Ca1_2 Ca 0.0000 0.89119(19) 0.2500
Ca1F Ca 0.0000 0.10881(19) 0.7500
Ca1F_2 Ca 0.0000 0.10881(19) -0.2500
P1B P -0.06063(4) 0.33980(18) 0.08156(13)
O1B O -0.04986(8) 0.6006(4) 0.0866(3)
O1_2 O 0.04986(8) -0.3994(4) 0.4134(3)
O1B_2 O -0.04986(8) -0.3994(4) 0.0866(3)
O2B O -0.03561(9) 0.1789(4) -0.0156(3)
O2F O 0.03561(9) -0.1789(4) 0.0156(3)
O2D O -0.03561(9) -0.1789(4) 0.4844(3)
O3B O -0.05108(10) 0.2283(5) 0.2726(4)
H1B H -0.0525(17) 0.303(8) 0.365(7)
C1B C -0.11842(14) 0.3037(7) -0.0050(5)
C2B C -0.14829(14) 0.4732(7) 0.0256(5)
H2B H -0.1383 0.6124 0.0915
C3B C -0.19241(14) 0.4411(8) -0.0389(5)
H3B H -0.2126 0.5576 -0.0168
C4B C -0.20725(15) 0.2398(7) -0.1357(6)
H4B H -0.2377 0.2173 -0.1797
C5B C -0.17771(14) 0.0717(8) -0.1682(5)
H5B H -0.1878 -0.0655 -0.2364
C6B C -0.13343(14) 0.1022(7) -0.1017(5)
H6B H -0.1133 -0.0155 -0.1226
loop_
_geom_bond_atom_site_label_1
_geom_bond_atom_site_label_2
_geom_bond_site_symmetry_1
_geom_bond_site_symmetry_2
Ca1 O2 1_555 1_555
P1 O1 1_555 1_555
O1 Ca1_2 1_555 1_555
O2 P1 1_555 1_555
O3 Ca1 1_555 1_555
H1 O3 1_555 1_555
C1 P1 1_555 1_555
C2 C1 1_555 1_555
H2 C2 1_555 1_555
C3 C2 1_555 1_555
H3 C3 1_555 1_555
C4 C3 1_555 1_555
H4 C4 1_555 1_555
C5 C4 1_555 1_555
H5 C5 1_555 1_555
C6 C1 1_555 1_555
H6 C6 1_555 1_555
Ca1_2 O1B 1_555 1_555
Ca1F O2 1_555 1_555
Ca1F_2 O2B 1_555 1_555
P1B O1B 1_555 1_555
O1_2 Ca1 1_555 1_555
O1B_2 Ca1 1_555 1_555
O2B Ca1 1_555 1_555
O2F Ca1 1_555 1_555
O2D Ca1 1_555 1_555
O3B Ca1 1_555 1_555
H1B O3B 1_555 1_555
C1B P1B 1_555 1_555
C2B C1B 1_555 1_555
H2B C2B 1_555 1_555
C3B C2B 1_555 1_555
H3B C3B 1_555 1_555
C4B C3B 1_555 1_555
H4B C4B 1_555 1_555
C5B C4B 1_555 1_555
H5B C5B 1_555 1_555
C6B C1B 1_555 1_555
H6B C6B 1_555 1_555
P1 O3 1_555 1_555
C5 C6 1_555 1_555
Ca1F O2D 1_555 1_555
Ca1F_2 O2F 1_555 1_555
P1B O2B 1_555 1_555
P1B O3B 1_555 1_555
C5B C6B 1_555 1_555

#END
