
#######################################################################
#
#                 Cambridge Crystallographic Data Centre
#                                CCDC 
#
#######################################################################
#
# If this CIF has been generated from an entry in the Cambridge 
# Structural Database, then it will include bibliographic, chemical, 
# crystal, experimental, refinement or atomic coordinate data resulting 
# from the CCDC's data processing and validation procedures.
#
#######################################################################

data_MILKUN03
_symmetry_cell_setting           monoclinic
_symmetry_space_group_name_H-M   'C 2/c'
_symmetry_Int_Tables_number      15
_space_group_name_Hall           '-C 2yn'
loop_
_symmetry_equiv_pos_site_id
_symmetry_equiv_pos_as_xyz
1 x,y,z
2 -x,y,1/2-z
3 1/2+x,1/2+y,z
4 1/2-x,1/2+y,1/2-z
5 -x,-y,-z
6 x,-y,1/2+z
7 1/2-x,1/2-y,-z
8 1/2+x,1/2-y,1/2+z
_cell_length_a                   31.4573
_cell_length_b                   5.6432
_cell_length_c                   7.7558
_cell_angle_alpha                90
_cell_angle_beta                 102.2347
_cell_angle_gamma                90
_cell_volume                     1345.54
loop_
_atom_site_label
_atom_site_type_symbol
_atom_site_fract_x
_atom_site_fract_y
_atom_site_fract_z
C1 C 0.3806 0.1970 0.9934
C2 C 0.3506 0.0265 1.0231
C3 C 0.2915 0.2677 0.8655
C4 C 0.3212 0.4371 0.8345
C5 C 0.3062 0.0625 0.9599
C6 C 0.3656 0.4027 0.8988
H1 H 0.3619 -0.1345 1.0947
H2 H 0.2568 0.2958 0.8166
H3 H 0.3102 0.5964 0.7596
H4 H 0.2832 -0.0703 0.9847
H5 H 0.3888 0.5336 0.8737
H6 H 0.4468 0.1882 1.3880
O1 O 0.4637 0.3172 0.9822
O2 O 0.4479 0.2712 1.2723
O3 O 0.4484 -0.1069 1.0848
P1 P 0.4381 0.1578 1.0796
Ca1 Ca 0.5000 0.6080 1.2500
C1A C 0.6194 0.1970 1.5066
C2A C 0.6494 0.0265 1.4769
C3A C 0.7085 0.2677 1.6345
C4A C 0.6788 0.4371 1.6655
C5A C 0.6938 0.0625 1.5401
C6A C 0.6344 0.4027 1.6012
H1A H 0.6381 -0.1345 1.4053
H2A H 0.7432 0.2958 1.6834
H3A H 0.6898 0.5964 1.7404
H4A H 0.7168 -0.0703 1.5153
H5A H 0.6112 0.5336 1.6263
H6A H 0.5532 0.1882 1.1120
O1A O 0.5363 0.3172 1.5178
O2A O 0.5521 0.2712 1.2277
O3A O 0.5516 -0.1069 1.4152
P1A P 0.5619 0.1578 1.4204
O1E O 0.4637 0.6828 1.4822
O1D O 0.5363 0.6828 1.0178
O3_2 O 0.4484 0.8931 1.0848
O3A_2 O 0.5516 0.8931 1.4152
Ca1_2 Ca 0.5000 -0.3920 1.2500
Ca1E Ca 0.5000 0.3920 0.7500
Ca1E_2 Ca 0.5000 0.3920 1.7500
loop_
_geom_bond_atom_site_label_1
_geom_bond_atom_site_label_2
_geom_bond_site_symmetry_1
_geom_bond_site_symmetry_2
C1 C2 1_555 1_555
C2 C5 1_555 1_555
C3 C4 1_555 1_555
C4 C6 1_555 1_555
C5 C3 1_555 1_555
C6 C1 1_555 1_555
H1 C2 1_555 1_555
H2 C3 1_555 1_555
H3 C4 1_555 1_555
H4 C5 1_555 1_555
H5 C6 1_555 1_555
H6 O2 1_555 1_555
O1 P1 1_555 1_555
O2 P1 1_555 1_555
O3 P1 1_555 1_555
P1 C1 1_555 1_555
Ca1 O1 1_555 1_555
C1A C2A 1_555 1_555
C2A C5A 1_555 1_555
C3A C4A 1_555 1_555
C4A C6A 1_555 1_555
C5A C3A 1_555 1_555
C6A C1A 1_555 1_555
H1A C2A 1_555 1_555
H2A C3A 1_555 1_555
H3A C4A 1_555 1_555
H4A C5A 1_555 1_555
H5A C6A 1_555 1_555
H6A O2A 1_555 1_555
O1A Ca1 1_555 1_555
O2A Ca1 1_555 1_555
O3A P1A 1_555 1_555
P1A C1A 1_555 1_555
O1E Ca1 1_555 1_555
O1D Ca1 1_555 1_555
O3_2 Ca1 1_555 1_555
O3A_2 Ca1 1_555 1_555
Ca1_2 O3 1_555 1_555
Ca1E O1 1_555 1_555
Ca1E_2 O1A 1_555 1_555
O2 Ca1 1_555 1_555
O1A P1A 1_555 1_555
O2A P1A 1_555 1_555
O3A Ca1_2 1_555 1_555
O1E Ca1E_2 1_555 1_555
O1D Ca1E 1_555 1_555

#END
