
#######################################################################
#
#                 Cambridge Crystallographic Data Centre
#                                CCDC 
#
#######################################################################
#
# If this CIF has been generated from an entry in the Cambridge 
# Structural Database, then it will include bibliographic, chemical, 
# crystal, experimental, refinement or atomic coordinate data resulting 
# from the CCDC's data processing and validation procedures.
#
#######################################################################

data_MILKIB
_symmetry_cell_setting           orthorhombic
_symmetry_space_group_name_H-M   'P 21 21 21'
_symmetry_Int_Tables_number      19
_space_group_name_Hall           'P 2ac 2ab'
loop_
_symmetry_equiv_pos_site_id
_symmetry_equiv_pos_as_xyz
1 x,y,z
2 1/2-x,-y,1/2+z
3 -x,1/2+y,1/2-z
4 1/2+x,1/2-y,-z
_cell_length_a                   11.932(3)
_cell_length_b                   16.231(4)
_cell_length_c                   24.053(5)
_cell_angle_alpha                90
_cell_angle_beta                 90
_cell_angle_gamma                90
_cell_volume                     4658.3
loop_
_atom_site_label
_atom_site_type_symbol
_atom_site_fract_x
_atom_site_fract_y
_atom_site_fract_z
Rh1 Rh 0.1239(2) 0.31028(10) 0.77527(7)
Rh2 Rh 0.1358(2) 0.28071(10) 0.67696(7)
F1 F 0.3698(20) 0.5057(11) 0.6603(6)
F2 F 0.3735(16) 0.5227(8) 0.7488(5)
F3 F 0.4742(13) 0.4325(11) 0.7123(10)
F4 F -0.2199(12) 0.1608(11) 0.7368(8)
F5 F -0.1177(17) 0.0682(9) 0.7007(6)
F6 F -0.1183(15) 0.0846(9) 0.7896(5)
F7 F 0.4720(13) 0.1647(14) 0.7529(10)
F8 F 0.3809(17) 0.0670(9) 0.7179(6)
F9 F 0.3757(16) 0.0927(10) 0.8044(6)
F10 F -0.1194(16) 0.5270(9) 0.7352(6)
F11 F -0.0883(15) 0.5132(11) 0.6485(7)
F12 F -0.2094(12) 0.4322(11) 0.6890(8)
O1 O 0.2457(13) 0.3942(10) 0.7637(6)
O2 O 0.2577(13) 0.3673(9) 0.6707(7)
C1 C 0.2828(20) 0.4040(17) 0.7151(11)
C2 C 0.3722(16) 0.4661(10) 0.7087(5)
O3 O 0.0012(12) 0.2233(10) 0.7808(7)
O4 O 0.0118(13) 0.1947(10) 0.6876(7)
C3 C -0.0265(19) 0.1879(15) 0.7371(10)
C4 C -0.1201(16) 0.1245(11) 0.7412(5)
O5 O 0.2419(12) 0.2216(11) 0.7874(7)
O6 O 0.2509(14) 0.1953(12) 0.6947(7)
C5 C 0.2803(19) 0.1858(20) 0.7457(13)
C6 C 0.3713(18) 0.1286(10) 0.7547(6)
O7 O 0.0061(15) 0.3966(11) 0.7571(7)
O8 O 0.0180(13) 0.3714(11) 0.6665(7)
C7 C -0.0190(22) 0.4090(16) 0.7094(13)
C8 C -0.1116(16) 0.4714(10) 0.6947(6)
C9 C -0.0414(19) 0.5627(14) 0.9212(8)
H1 H -0.0707(19) 0.5975(14) 0.8907(8)
H2 H 0.0394(19) 0.5751(14) 0.9254(8)
C10 C -0.0547(20) 0.4735(13) 0.9054(8)
H3 H -0.0166(20) 0.4626(13) 0.8696(8)
H4 H -0.1351(20) 0.4597(13) 0.9013(8)
C11 C -0.0020(18) 0.4215(12) 0.9517(7)
H5 H 0.0782(18) 0.4388(12) 0.9548(7)
O9 O -0.0023(14) 0.3323(9) 0.9412(6)
C12 C 0.0567(18) 0.2974(13) 0.8993(9)
O10 O 0.1079(13) 0.3441(9) 0.8671(6)
C13 C 0.0623(22) 0.2065(16) 0.9023(10)
C14 C -0.0560(18) 0.4350(15) 1.0092(10)
C15 C -0.0632(18) 0.5287(12) 1.0230(8)
H6 H 0.0160(18) 0.5455(12) 1.0304(8)
C16 C -0.1241(22) 0.5449(11) 1.0773(8)
H7 H -0.0998(22) 0.5044(11) 1.1057(8)
H8 H -0.2059(22) 0.5387(11) 1.0719(8)
C17 C -0.0975(19) 0.6330(12) 1.0973(9)
H9 H -0.0173(19) 0.6362(12) 1.1077(9)
H10 H -0.1424(19) 0.6451(12) 1.1310(9)
C18 C -0.1228(23) 0.6991(10) 1.0522(8)
H11 H -0.2057(23) 0.6993(10) 1.0461(8)
C19 C -0.0673(19) 0.6748(13) 0.9966(8)
H12 H 0.0129(19) 0.6670(13) 1.0075(8)
C20 C -0.1018(13) 0.5854(13) 0.9749(8)
C21 C -0.2298(14) 0.5821(15) 0.9655(10)
H13 H -0.2676(15) 0.6144(65) 0.9943(32)
H14 H -0.2553(21) 0.5247(17) 0.9674(52)
H15 H -0.2476(17) 0.6049(71) 0.9288(23)
O11 O -0.1590(12) 0.7437(9) 0.9135(5)
C22 C -0.0594(17) 0.7422(12) 0.9501(8)
H16 H 0.0078(17) 0.7301(12) 0.9267(8)
C23 C -0.0463(18) 0.8302(13) 0.9743(8)
H17 H 0.0332(18) 0.8380(13) 0.9849(8)
H18 H -0.0631(18) 0.8702(13) 0.9444(8)
C24 C -0.1190(15) 0.8520(13) 1.0248(7)
C25 C -0.2431(16) 0.8489(15) 1.0068(10)
H19 H -0.2588(32) 0.8946(50) 0.9813(44)
H20 H -0.2913(16) 0.8535(83) 1.0396(11)
H21 H -0.2581(31) 0.7965(38) 0.9879(50)
C26 C -0.0892(17) 0.7863(12) 1.0702(9)
C27 C 0.0349(16) 0.7881(15) 1.0873(8)
H22 H 0.0549(31) 0.8437(23) 1.0998(48)
H23 H 0.0817(17) 0.7730(75) 1.0554(16)
H24 H 0.0474(27) 0.7488(56) 1.1176(35)
C28 C -0.1556(17) 0.8220(13) 1.1182(8)
H25 H -0.1268(17) 0.8013(13) 1.1542(8)
H26 H -0.2359(17) 0.8074(13) 1.1150(8)
C29 C -0.1392(24) 0.9152(13) 1.1136(9)
H27 H -0.0862(24) 0.9346(13) 1.1424(9)
H28 H -0.2116(24) 0.9439(13) 1.1190(9)
C30 C -0.0927(21) 0.9332(14) 1.0556(8)
H29 H -0.0094(21) 0.9373(14) 1.0590(8)
C31 C -0.1347(26) 1.0143(13) 1.0304(7)
H30 H -0.2180(26) 1.0087(13) 1.0279(7)
C32 C -0.0944(22) 1.0304(17) 0.9704(8)
H31 H -0.112(12) 0.9824(46) 0.9472(17)
H32 H -0.0133(32) 1.0398(98) 0.9705(12)
H33 H -0.133(10) 1.0790(64) 0.9555(25)
C33 C -0.1139(19) 1.0855(15) 1.0689(10)
H34 H -0.1546(19) 1.0752(15) 1.1041(10)
H35 H -0.1462(19) 1.1358(15) 1.0520(10)
C34 C 0.0097(19) 1.1023(18) 1.0827(12)
H36 H 0.0460(19) 1.0492(18) 1.0919(12)
H37 H 0.0467(19) 1.1241(18) 1.0489(12)
C35 C 0.0315(25) 1.1629(23) 1.1308(16)
H38 H -0.0006(25) 1.1405(23) 1.1656(16)
H39 H -0.0055(25) 1.2162(23) 1.1228(16)
C36 C 0.1586(26) 1.1762(24) 1.1379(17)
H40 H 0.1956(26) 1.1356(24) 1.1126(17)
C37 C 0.2150(36) 1.2585(24) 1.1264(18)
C38 C 0.1810(46) 1.1457(30) 1.1967(16)
C39 C 0.0229(24) 0.3902(16) 1.0537(10)
H41 H -0.0140(61) 0.3899(88) 1.0901(18)
H42 H 0.0943(55) 0.4198(59) 1.0564(48)
H43 H 0.037(11) 0.3333(34) 1.0418(36)
C40 C -0.1697(19) 0.3904(15) 1.0103(11)
H44 H -0.2059(65) 0.3958(89) 0.9739(25)
H45 H -0.2176(55) 0.4151(70) 1.0389(49)
H46 H -0.1580(23) 0.3319(26) 1.0187(69)
O11B O 0.1590(12) 0.2437(9) 0.5865(5)
Rh2B Rh -0.1358(2) 0.78071(10) 0.82304(7)
loop_
_geom_bond_atom_site_label_1
_geom_bond_atom_site_label_2
_geom_bond_site_symmetry_1
_geom_bond_site_symmetry_2
Rh1 Rh2 1_555 1_555
Rh2 O2 1_555 1_555
F1 C2 1_555 1_555
F2 C2 1_555 1_555
F3 C2 1_555 1_555
F4 C4 1_555 1_555
F5 C4 1_555 1_555
F6 C4 1_555 1_555
F7 C6 1_555 1_555
F8 C6 1_555 1_555
F9 C6 1_555 1_555
F10 C8 1_555 1_555
F11 C8 1_555 1_555
F12 C8 1_555 1_555
O1 Rh1 1_555 1_555
O2 C1 1_555 1_555
C1 O1 1_555 1_555
C2 C1 1_555 1_555
O3 Rh1 1_555 1_555
O4 Rh2 1_555 1_555
C3 O3 1_555 1_555
C4 C3 1_555 1_555
O5 Rh1 1_555 1_555
O6 Rh2 1_555 1_555
C5 O5 1_555 1_555
C6 C5 1_555 1_555
O7 Rh1 1_555 1_555
O8 Rh2 1_555 1_555
C7 O7 1_555 1_555
C8 C7 1_555 1_555
C9 H1 1_555 1_555
H2 C9 1_555 1_555
C10 C9 1_555 1_555
H3 C10 1_555 1_555
H4 C10 1_555 1_555
C11 C10 1_555 1_555
H5 C11 1_555 1_555
O9 C11 1_555 1_555
C12 O9 1_555 1_555
O10 Rh1 1_555 1_555
C13 C12 1_555 1_555
C14 C11 1_555 1_555
C15 C14 1_555 1_555
H6 C15 1_555 1_555
C16 C15 1_555 1_555
H7 C16 1_555 1_555
H8 C16 1_555 1_555
C17 C16 1_555 1_555
H9 C17 1_555 1_555
H10 C17 1_555 1_555
C18 C17 1_555 1_555
H11 C18 1_555 1_555
C19 C18 1_555 1_555
H12 C19 1_555 1_555
C20 C9 1_555 1_555
C21 C20 1_555 1_555
H13 C21 1_555 1_555
H14 C21 1_555 1_555
H15 C21 1_555 1_555
O11 C22 1_555 1_555
C22 C19 1_555 1_555
H16 C22 1_555 1_555
C23 C22 1_555 1_555
H17 C23 1_555 1_555
H18 C23 1_555 1_555
C24 C23 1_555 1_555
C25 C24 1_555 1_555
H19 C25 1_555 1_555
H20 C25 1_555 1_555
H21 C25 1_555 1_555
C26 C18 1_555 1_555
C27 C26 1_555 1_555
H22 C27 1_555 1_555
H23 C27 1_555 1_555
H24 C27 1_555 1_555
C28 C26 1_555 1_555
H25 C28 1_555 1_555
H26 C28 1_555 1_555
C29 C28 1_555 1_555
H27 C29 1_555 1_555
H28 C29 1_555 1_555
C30 C24 1_555 1_555
H29 C30 1_555 1_555
C31 C30 1_555 1_555
H30 C31 1_555 1_555
C32 C31 1_555 1_555
H31 C32 1_555 1_555
H32 C32 1_555 1_555
H33 C32 1_555 1_555
C33 C31 1_555 1_555
H34 C33 1_555 1_555
H35 C33 1_555 1_555
C34 C33 1_555 1_555
H36 C34 1_555 1_555
H37 C34 1_555 1_555
C35 C34 1_555 1_555
H38 C35 1_555 1_555
H39 C35 1_555 1_555
C36 C35 1_555 1_555
H40 C36 1_555 1_555
C37 C36 1_555 1_555
C38 C36 1_555 1_555
C39 C14 1_555 1_555
H41 C39 1_555 1_555
H42 C39 1_555 1_555
H43 C39 1_555 1_555
C40 C14 1_555 1_555
H44 C40 1_555 1_555
H45 C40 1_555 1_555
H46 C40 1_555 1_555
O11B Rh2 1_555 1_555
Rh2B O11 1_555 1_555
O4 C3 1_555 1_555
O6 C5 1_555 1_555
O8 C7 1_555 1_555
C12 O10 1_555 1_555
C15 C20 1_555 1_555
C19 C20 1_555 1_555
C24 C26 1_555 1_555
C29 C30 1_555 1_555

#END
