
#######################################################################
#
#                 Cambridge Crystallographic Data Centre
#                                CCDC 
#
#######################################################################
#
# If this CIF has been generated from an entry in the Cambridge 
# Structural Database, then it will include bibliographic, chemical, 
# crystal, experimental, refinement or atomic coordinate data resulting 
# from the CCDC's data processing and validation procedures.
#
#######################################################################

data_MILQUV
_symmetry_cell_setting           rhombohedral
_symmetry_space_group_name_H-M   'R -3'
_symmetry_Int_Tables_number      148
_space_group_name_Hall           '-R 3'
loop_
_symmetry_equiv_pos_site_id
_symmetry_equiv_pos_as_xyz
1 x,y,z
2 -y,x-y,z
3 -x+y,-x,z
4 2/3+x,1/3+y,1/3+z
5 2/3-y,1/3+x-y,1/3+z
6 2/3-x+y,1/3-x,1/3+z
7 1/3+x,2/3+y,2/3+z
8 1/3-y,2/3+x-y,2/3+z
9 1/3-x+y,2/3-x,2/3+z
10 -x,-y,-z
11 y,-x+y,-z
12 x-y,x,-z
13 1/3-x,2/3-y,2/3-z
14 1/3+y,2/3-x+y,2/3-z
15 1/3+x-y,2/3+x,2/3-z
16 2/3-x,1/3-y,1/3-z
17 2/3+y,1/3-x+y,1/3-z
18 2/3+x-y,1/3+x,1/3-z
_cell_length_a                   18.531(5)
_cell_length_b                   18.531(5)
_cell_length_c                   37.266(5)
_cell_angle_alpha                90
_cell_angle_beta                 90
_cell_angle_gamma                120
_cell_volume                     11082.6
loop_
_atom_site_label
_atom_site_type_symbol
_atom_site_fract_x
_atom_site_fract_y
_atom_site_fract_z
Mo1 Mo 0.3524(6) 0.7816(6) 0.4519(3)
Mo2 Mo 0.5496(6) 0.7317(6) 0.3671(3)
Mo3 Mo 0.4919(6) 0.8793(6) 0.3745(3)
Mo4 Mo 0.4578(6) 0.7708(6) 0.2964(3)
P1 P 0.3333 0.6667 0.3728(14)
O1 O 0.3333 0.6667 0.414(4)
O2 O 0.294(5) 0.801(5) 0.418(2)
O3 O 0.420(4) 0.732(4) 0.359(2)
O4 O 0.546(5) 0.753(5) 0.320(2)
O5 O 0.502(5) 0.869(5) 0.322(2)
O6 O 0.571(5) 0.843(5) 0.379(2)
O7 O 0.385(5) 0.869(5) 0.363(2)
O8 O 0.264(5) 0.687(5) 0.471(2)
O9 O 0.450(5) 0.843(5) 0.420(2)
O10 O 0.353(5) 0.755(5) 0.291(2)
O11 O 0.501(6) 0.802(6) 0.256(3)
O12 O 0.645(5) 0.744(5) 0.373(3)
O13 O 0.552(5) 0.983(5) 0.379(3)
O14 O 0.379(6) 0.862(5) 0.484(3)
O3A O 0.268(4) 0.688(6) 0.359(2)
O3B O 0.312(6) 0.580(4) 0.359(2)
Mo1A Mo 0.2184(6) 0.5708(8) 0.4519(3)
Mo2A Mo 0.2683(6) 0.8179(8) 0.3671(3)
Mo3A Mo 0.1207(6) 0.6126(8) 0.3745(3)
Mo4A Mo 0.2292(6) 0.6870(8) 0.2964(3)
O2A O 0.199(5) 0.493(7) 0.418(2)
O4A O 0.247(5) 0.793(7) 0.320(2)
O5A O 0.131(5) 0.633(7) 0.322(2)
O6A O 0.157(5) 0.728(7) 0.379(2)
O7A O 0.131(5) 0.516(7) 0.363(2)
O8A O 0.313(5) 0.577(7) 0.471(2)
O9A O 0.157(5) 0.607(7) 0.420(2)
O10A O 0.245(5) 0.598(7) 0.291(2)
O11A O 0.198(6) 0.699(8) 0.256(3)
O12A O 0.256(5) 0.901(7) 0.373(3)
O13A O 0.017(5) 0.569(7) 0.379(3)
O14A O 0.138(5) 0.517(8) 0.484(3)
Mo1B Mo 0.4292(8) 0.6476(6) 0.4519(3)
Mo2B Mo 0.1821(8) 0.4504(6) 0.3671(3)
Mo3B Mo 0.3874(8) 0.5081(6) 0.3745(3)
Mo4B Mo 0.3130(8) 0.5422(6) 0.2964(3)
O2B O 0.507(7) 0.706(5) 0.418(2)
O4B O 0.207(7) 0.454(5) 0.320(2)
O5B O 0.367(7) 0.498(5) 0.322(2)
O6B O 0.272(7) 0.429(5) 0.379(2)
O7B O 0.484(7) 0.615(5) 0.363(2)
O8B O 0.423(7) 0.736(5) 0.471(2)
O9B O 0.393(7) 0.550(5) 0.420(2)
O10B O 0.402(7) 0.647(5) 0.291(2)
O11B O 0.301(8) 0.499(6) 0.256(3)
O12B O 0.099(7) 0.355(5) 0.373(3)
O13B O 0.431(7) 0.448(5) 0.379(3)
O14B O 0.483(8) 0.621(6) 0.484(3)
Cu1 Cu 0.5000 1.0000 0.5000
C1 C 0.858(8) 1.223(8) 0.390(4)
C2 C 0.799(8) 1.160(9) 0.369(4)
H1 H 0.7840 1.1734 0.3474
C3 C 0.761(8) 1.078(9) 0.380(4)
H2 H 0.7213 1.0368 0.3654
C4 C 0.780(8) 1.058(8) 0.413(4)
C5 C 0.839(9) 1.121(9) 0.434(5)
H3 H 0.8533 1.1079 0.4560
C6 C 0.877(9) 1.202(9) 0.423(4)
H4 H 0.9168 1.2431 0.4377
C7 C 0.904(9) 1.312(9) 0.377(4)
H5 H 0.9596 1.3262 0.3696
H6 H 0.8751 1.3178 0.3568
C8 C 0.738(8) 0.969(9) 0.426(5)
H7 H 0.7148 0.9312 0.4053
H8 H 0.7781 0.9580 0.4373
C9 C 0.969(8) 1.409(8) 0.430(4)
H9 H 1.0184 1.4087 0.4307
C10 C 0.871(9) 1.433(10) 0.440(4)
H10 H 0.8401 1.4541 0.4504
C11 C 0.580(8) 0.893(8) 0.491(4)
H11 H 0.5462 0.8546 0.5082
C12 C 0.634(8) 0.998(8) 0.456(4)
H12 H 0.6473 1.0469 0.4445
N1 N 0.946(7) 1.449(6) 0.452(3)
N2 N 0.847(9) 1.384(9) 0.412(4)
N3 N 0.911(7) 1.371(7) 0.405(3)
N4 N 0.576(6) 0.962(6) 0.482(3)
N5 N 0.637(7) 0.885(7) 0.473(4)
N6 N 0.671(6) 0.953(6) 0.451(3)
C1B C 0.365(11) 1.142(8) 0.390(4)
C2B C 0.361(12) 1.201(8) 0.369(4)
H1B H 0.3894 1.2160 0.3474
C3B C 0.317(12) 1.239(8) 0.380(4)
H2B H 0.3155 1.2787 0.3654
C4B C 0.278(11) 1.220(8) 0.413(4)
C5B C 0.282(13) 1.161(9) 0.434(5)
H3B H 0.2546 1.1467 0.4560
C6B C 0.325(13) 1.123(9) 0.423(4)
H4B H 0.3263 1.0832 0.4377
C7B C 0.408(13) 1.096(9) 0.377(4)
H5B H 0.3666 1.0404 0.3696
H6B H 0.4427 1.1249 0.3568
C8B C 0.231(12) 1.262(8) 0.426(5)
H7B H 0.2164 1.2852 0.4053
H8B H 0.1799 1.2219 0.4373
C9B C 0.440(11) 1.031(8) 0.430(4)
H9B H 0.3903 0.9816 0.4307
C10B C 0.562(13) 1.129(9) 0.440(4)
H10B H 0.6140 1.1599 0.4504
C11B C 0.313(11) 1.420(8) 0.491(4)
H11B H 0.3084 1.4538 0.5082
C12B C 0.364(11) 1.366(8) 0.456(4)
H12B H 0.3996 1.3527 0.4445
N1B N 0.503(9) 1.054(7) 0.452(3)
N2B N 0.537(13) 1.153(9) 0.412(4)
N3B N 0.460(10) 1.089(7) 0.405(3)
N4B N 0.386(8) 1.424(6) 0.482(3)
N5B N 0.248(10) 1.363(7) 0.473(4)
N6B N 0.282(8) 1.329(6) 0.451(3)
Cu1A Cu 1.0000 1.5000 0.5000
Cu1B Cu 0.5000 1.5000 0.5000
N1K N 0.497(9) 0.946(7) 0.548(3)
N4I N 0.424(6) 1.038(6) 0.518(3)
O15 O 0.686(10) 0.754(10) 0.463(5)
O16 O 0.481(18) 0.804(18) 0.173(9)
loop_
_geom_bond_atom_site_label_1
_geom_bond_atom_site_label_2
_geom_bond_site_symmetry_1
_geom_bond_site_symmetry_2
Mo1 O1 1_555 1_555
Mo2 O3 1_555 1_555
Mo3 O3 1_555 1_555
Mo4 O3 1_555 1_555
P1 O1 1_555 1_555
O1 Mo1A 1_555 1_555
O2 Mo1 1_555 1_555
O3 P1 1_555 1_555
O4 Mo2 1_555 1_555
O5 Mo3 1_555 1_555
O6 Mo2 1_555 1_555
O7 Mo3 1_555 1_555
O8 Mo1 1_555 1_555
O9 Mo1 1_555 1_555
O10 Mo4 1_555 1_555
O11 Mo4 1_555 1_555
O12 Mo2 1_555 1_555
O13 Mo3 1_555 1_555
O14 Mo1 1_555 1_555
Cu1 N4 1_555 1_555
C1 C2 1_555 1_555
C2 H1 1_555 1_555
C3 C2 1_555 1_555
H2 C3 1_555 1_555
C4 C3 1_555 1_555
C5 C4 1_555 1_555
H3 C5 1_555 1_555
C6 C1 1_555 1_555
H4 C6 1_555 1_555
C7 C1 1_555 1_555
H5 C7 1_555 1_555
H6 C7 1_555 1_555
C8 C4 1_555 1_555
H7 C8 1_555 1_555
H8 C8 1_555 1_555
C9 H9 1_555 1_555
C10 H10 1_555 1_555
C11 H11 1_555 1_555
C12 H12 1_555 1_555
N1 C9 1_555 1_555
N2 C10 1_555 1_555
N3 C7 1_555 1_555
N4 C11 1_555 1_555
N5 C11 1_555 1_555
N6 C8 1_555 1_555
O3A P1 1_555 1_555
O3B P1 1_555 1_555
Mo1A O8 1_555 1_555
Mo2A O2 1_555 1_555
Mo3A O3A 1_555 1_555
Mo4A O10 1_555 1_555
O2A Mo1A 1_555 1_555
O4A Mo2A 1_555 1_555
O5A Mo3A 1_555 1_555
O6A Mo2A 1_555 1_555
O7A Mo3A 1_555 1_555
O8A Mo1A 1_555 1_555
O9A Mo1A 1_555 1_555
O10A Mo4A 1_555 1_555
O11A Mo4A 1_555 1_555
O12A Mo2A 1_555 1_555
O13A Mo3A 1_555 1_555
O14A Mo1A 1_555 1_555
Mo1B O1 1_555 1_555
Mo2B O3B 1_555 1_555
Mo3B O3B 1_555 1_555
Mo4B O3B 1_555 1_555
O2B Mo2 1_555 1_555
O4B Mo2B 1_555 1_555
O5B Mo3B 1_555 1_555
O6B Mo2B 1_555 1_555
O7B Mo2 1_555 1_555
O8B Mo1 1_555 1_555
O9B Mo1B 1_555 1_555
O10B Mo4 1_555 1_555
O11B Mo4B 1_555 1_555
O12B Mo2B 1_555 1_555
O13B Mo3B 1_555 1_555
O14B Mo1B 1_555 1_555
C1B C2B 1_555 1_555
C2B H1B 1_555 1_555
C3B C2B 1_555 1_555
H2B C3B 1_555 1_555
C4B C3B 1_555 1_555
C5B C4B 1_555 1_555
H3B C5B 1_555 1_555
C6B C1B 1_555 1_555
H4B C6B 1_555 1_555
C7B C1B 1_555 1_555
H5B C7B 1_555 1_555
H6B C7B 1_555 1_555
C8B C4B 1_555 1_555
H7B C8B 1_555 1_555
H8B C8B 1_555 1_555
C9B H9B 1_555 1_555
C10B H10B 1_555 1_555
C11B H11B 1_555 1_555
C12B H12B 1_555 1_555
N1B Cu1 1_555 1_555
N2B C10B 1_555 1_555
N3B C7B 1_555 1_555
N4B C11B 1_555 1_555
N5B C11B 1_555 1_555
N6B C8B 1_555 1_555
Cu1A N1 1_555 1_555
Cu1B N4B 1_555 1_555
N1K Cu1 1_555 1_555
N4I Cu1 1_555 1_555
Mo3 O6 1_555 1_555
Mo3 O9 1_555 1_555
Mo4 O4 1_555 1_555
Mo4 O5 1_555 1_555
O7 Mo2A 1_555 1_555
C5 C6 1_555 1_555
C9 N3 1_555 1_555
C10 N1 1_555 1_555
C12 N4 1_555 1_555
C12 N6 1_555 1_555
N2 N3 1_555 1_555
N5 N6 1_555 1_555
O3A Mo2A 1_555 1_555
O3A Mo4A 1_555 1_555
Mo3A O6A 1_555 1_555
Mo3A O9A 1_555 1_555
Mo4A O4A 1_555 1_555
Mo4A O5A 1_555 1_555
O2A Mo2B 1_555 1_555
O7A Mo2B 1_555 1_555
O8A Mo1B 1_555 1_555
O10A Mo4B 1_555 1_555
Mo1B O2B 1_555 1_555
Mo1B O8B 1_555 1_555
Mo3B O6B 1_555 1_555
Mo3B O7B 1_555 1_555
Mo3B O9B 1_555 1_555
Mo4B O4B 1_555 1_555
Mo4B O5B 1_555 1_555
Mo4B O10B 1_555 1_555
C5B C6B 1_555 1_555
C9B N1B 1_555 1_555
C9B N3B 1_555 1_555
C10B N1B 1_555 1_555
C12B N4B 1_555 1_555
C12B N6B 1_555 1_555
N2B N3B 1_555 1_555
N5B N6B 1_555 1_555

#END
