
#######################################################################
#
#                 Cambridge Crystallographic Data Centre
#                                CCDC 
#
#######################################################################
#
# If this CIF has been generated from an entry in the Cambridge 
# Structural Database, then it will include bibliographic, chemical, 
# crystal, experimental, refinement or atomic coordinate data resulting 
# from the CCDC's data processing and validation procedures.
#
#######################################################################

data_MILROP
_symmetry_cell_setting           monoclinic
_symmetry_space_group_name_H-M   'P 21/n'
_symmetry_Int_Tables_number      14
_space_group_name_Hall           '-P 2yn'
loop_
_symmetry_equiv_pos_site_id
_symmetry_equiv_pos_as_xyz
1 x,y,z
2 1/2-x,1/2+y,1/2-z
3 -x,-y,-z
4 1/2+x,1/2-y,1/2+z
_cell_length_a                   13.5354(5)
_cell_length_b                   21.7586(5)
_cell_length_c                   13.8682(5)
_cell_angle_alpha                90
_cell_angle_beta                 109.179(3)
_cell_angle_gamma                90
_cell_volume                     3857.65
loop_
_atom_site_label
_atom_site_type_symbol
_atom_site_fract_x
_atom_site_fract_y
_atom_site_fract_z
Ni1 Ni 0.615702(17) 0.335023(10) 0.375814(16)
Ni2 Ni 0.888416(17) 0.375940(10) 0.643702(16)
S1 S 0.70092(4) 0.30408(2) 0.25666(4)
S2 S 0.51228(3) 0.37904(2) 0.47884(3)
S3 S 1.03117(3) 0.41091(2) 0.58297(3)
S4 S 0.74360(3) 0.35953(2) 0.71067(3)
N1 N 0.71176(11) 0.40876(7) 0.43428(11)
N2 N 0.78110(11) 0.42300(7) 0.52839(11)
N3 N 0.53619(12) 0.40031(7) 0.26365(11)
N4 N 0.90766(11) 0.46484(7) 0.71098(11)
N5 N 0.69462(12) 0.26964(7) 0.48205(12)
N6 N 0.78318(12) 0.28035(7) 0.52604(11)
N7 N 0.87195(12) 0.29123(7) 0.57065(12)
N8 N 0.49900(12) 0.27018(7) 0.30993(12)
N9 N 0.49914(11) 0.21732(7) 0.29183(11)
N10 N 0.49580(12) 0.16433(7) 0.27490(11)
C1 C 0.71505(14) 0.51142(8) 0.45066(13)
H1 H 0.7012 0.5530 0.4374
C2 C 0.67250(13) 0.46199(8) 0.38755(13)
C3 C 0.78332(13) 0.48451(8) 0.53843(13)
C4 C 0.59610(14) 0.45912(9) 0.28082(13)
H2 H 0.5479 0.4935 0.2697
H3 H 0.6336 0.4624 0.2322
C5 C 0.52380(17) 0.37449(10) 0.16101(14)
H4 H 0.4930 0.4054 0.1096
H5 H 0.4762 0.3398 0.1482
C6 C 0.62739(18) 0.35364(10) 0.15139(16)
H6 H 0.6693 0.3895 0.1494
H7 H 0.6141 0.3316 0.0876
C7 C 0.82802(17) 0.34152(11) 0.30047(17)
H8 H 0.8180 0.3854 0.3052
H9 H 0.8668 0.3267 0.3683
C8 C 0.8915(2) 0.33013(14) 0.2307(2)
H10 H 0.9031 0.2868 0.2269
H11 H 0.9576 0.3508 0.2572
H12 H 0.8543 0.3456 0.1638
C9 C 0.43124(14) 0.41053(9) 0.27291(14)
H13 H 0.3915 0.3726 0.2577
H14 H 0.3940 0.4412 0.2235
C10 C 0.43943(15) 0.43204(9) 0.37981(14)
H15 H 0.3696 0.4369 0.3836
H16 H 0.4734 0.4719 0.3922
C11 C 0.40971(15) 0.32501(9) 0.47824(15)
H17 H 0.3606 0.3443 0.5063
H18 H 0.3720 0.3123 0.4088
C12 C 0.45920(17) 0.26971(10) 0.54193(16)
H19 H 0.5039 0.2491 0.5110
H20 H 0.4054 0.2420 0.5458
H21 H 0.4997 0.2829 0.6094
C13 C 0.85405(15) 0.51269(8) 0.63466(14)
H22 H 0.9061 0.5378 0.6191
H23 H 0.8135 0.5392 0.6637
C14 C 1.02217(14) 0.47746(9) 0.75364(14)
H24 H 1.0550 0.4471 0.8054
H25 H 1.0333 0.5176 0.7858
C15 C 1.07300(16) 0.47563(9) 0.67039(16)
H26 H 1.1483 0.4737 0.7024
H27 H 1.0567 0.5135 0.6315
C16 C 1.14042(15) 0.35802(10) 0.63008(16)
H28 H 1.2059 0.3805 0.6473
H29 H 1.1372 0.3376 0.6912
C17 C 1.1353(2) 0.31103(12) 0.5487(2)
H30 H 1.0714 0.2882 0.5334
H31 H 1.1937 0.2835 0.5728
H32 H 1.1377 0.3315 0.4882
C18 C 0.86156(15) 0.46247(9) 0.79470(14)
H33 H 0.8615 0.5034 0.8223
H34 H 0.9043 0.4363 0.8491
C19 C 0.75022(15) 0.43774(9) 0.75693(15)
H35 H 0.7077 0.4639 0.7024
H36 H 0.7213 0.4393 0.8122
C20 C 0.78693(15) 0.31729(10) 0.82975(15)
H37 H 0.8113 0.2770 0.8176
H38 H 0.8455 0.3388 0.8776
C21 C 0.70130(18) 0.30948(12) 0.87726(18)
H39 H 0.6794 0.3491 0.8929
H40 H 0.7276 0.2858 0.9388
H41 H 0.6428 0.2886 0.8301
Ni2C Ni 0.388416(17) 0.124060(10) 0.143702(16)
N10C N 0.99580(12) 0.33567(7) 0.77490(11)
Cl1 Cl 0.71741(4) 0.49306(3) 1.01989(4)
O1 O 0.73372(14) 0.49373(9) 1.12604(12)
O2 O 0.6320(5) 0.4592(5) 0.9621(7)
O3 O 0.8113(3) 0.4818(4) 0.9992(3)
O4 O 0.6952(4) 0.55825(18) 0.9945(5)
Cl2 Cl 0.43848(5) 0.37200(3) 0.73884(4)
Cl3 Cl 0.40844(15) 0.31268(8) 0.91493(16)
C22 C 0.4150(2) 0.38336(11) 0.85542(18)
H42 H 0.4707 0.4082 0.9005
H43 H 0.3497 0.4054 0.8429
Cl5 Cl 0.17719(5) 0.33182(3) 0.20878(6)
Cl6 Cl 0.01587(4) 0.39703(3) 0.05103(4)
C23 C 0.13923(18) 0.36137(11) 0.0828(2)
H44 H 0.1907 0.3910 0.0773
H45 H 0.1363 0.3282 0.0352
Cl4? Cl 0.369(3) 0.3211(9) 0.9012(9)
O5? O 0.7877(10) 0.4433(7) 1.0133(5)
O6? O 0.7254(10) 0.5417(6) 0.9614(8)
O7? O 0.6151(7) 0.4665(7) 0.9747(9)
loop_
_geom_bond_atom_site_label_1
_geom_bond_atom_site_label_2
_geom_bond_site_symmetry_1
_geom_bond_site_symmetry_2
Ni1 S1 1_555 1_555
Ni2 S3 1_555 1_555
Cl1 O1 1_555 1_555
Cl2 C22 1_555 1_555
Cl3 C22 1_555 1_555
Cl5 C23 1_555 1_555
Cl6 C23 1_555 1_555
S1 C6 1_555 1_555
S2 Ni1 1_555 1_555
S3 C15 1_555 1_555
S4 Ni2 1_555 1_555
N1 Ni1 1_555 1_555
N2 Ni2 1_555 1_555
N3 Ni1 1_555 1_555
N4 Ni2 1_555 1_555
N5 Ni1 1_555 1_555
N6 N5 1_555 1_555
N7 Ni2 1_555 1_555
N8 Ni1 1_555 1_555
N9 N8 1_555 1_555
N10 N9 1_555 1_555
O2 Cl1 1_555 1_555
O3 Cl1 1_555 1_555
O4 Cl1 1_555 1_555
C1 H1 1_555 1_555
C2 N1 1_555 1_555
C3 N2 1_555 1_555
C4 N3 1_555 1_555
H2 C4 1_555 1_555
H3 C4 1_555 1_555
C5 N3 1_555 1_555
H4 C5 1_555 1_555
H5 C5 1_555 1_555
C6 C5 1_555 1_555
H6 C6 1_555 1_555
H7 C6 1_555 1_555
C7 S1 1_555 1_555
H8 C7 1_555 1_555
H9 C7 1_555 1_555
C8 C7 1_555 1_555
H10 C8 1_555 1_555
H11 C8 1_555 1_555
H12 C8 1_555 1_555
C9 N3 1_555 1_555
H13 C9 1_555 1_555
H14 C9 1_555 1_555
C10 S2 1_555 1_555
H15 C10 1_555 1_555
H16 C10 1_555 1_555
C11 S2 1_555 1_555
H17 C11 1_555 1_555
H18 C11 1_555 1_555
C12 C11 1_555 1_555
H19 C12 1_555 1_555
H20 C12 1_555 1_555
H21 C12 1_555 1_555
C13 N4 1_555 1_555
H22 C13 1_555 1_555
H23 C13 1_555 1_555
C14 N4 1_555 1_555
H24 C14 1_555 1_555
H25 C14 1_555 1_555
C15 C14 1_555 1_555
H26 C15 1_555 1_555
H27 C15 1_555 1_555
C16 S3 1_555 1_555
H28 C16 1_555 1_555
H29 C16 1_555 1_555
C17 C16 1_555 1_555
H30 C17 1_555 1_555
H31 C17 1_555 1_555
H32 C17 1_555 1_555
C18 N4 1_555 1_555
H33 C18 1_555 1_555
H34 C18 1_555 1_555
C19 S4 1_555 1_555
H35 C19 1_555 1_555
H36 C19 1_555 1_555
C20 S4 1_555 1_555
H37 C20 1_555 1_555
H38 C20 1_555 1_555
C21 C20 1_555 1_555
H39 C21 1_555 1_555
H40 C21 1_555 1_555
H41 C21 1_555 1_555
C22 H42 1_555 1_555
H43 C22 1_555 1_555
C23 H44 1_555 1_555
H45 C23 1_555 1_555
Ni2C N10 1_555 1_555
N10C Ni2 1_555 1_555
N1 N2 1_555 1_555
N6 N7 1_555 1_555
C1 C2 1_555 1_555
C1 C3 1_555 1_555
C2 C4 1_555 1_555
C3 C13 1_555 1_555
C9 C10 1_555 1_555
C18 C19 1_555 1_555

#END
