
#######################################################################
#
#                 Cambridge Crystallographic Data Centre
#                                CCDC 
#
#######################################################################
#
# If this CIF has been generated from an entry in the Cambridge 
# Structural Database, then it will include bibliographic, chemical, 
# crystal, experimental, refinement or atomic coordinate data resulting 
# from the CCDC's data processing and validation procedures.
#
#######################################################################

data_MILRAC
_symmetry_cell_setting           rhombohedral
_symmetry_space_group_name_H-M   'R -3'
_symmetry_Int_Tables_number      148
_space_group_name_Hall           '-R 3'
loop_
_symmetry_equiv_pos_site_id
_symmetry_equiv_pos_as_xyz
1 x,y,z
2 -y,x-y,z
3 -x+y,-x,z
4 2/3+x,1/3+y,1/3+z
5 2/3-y,1/3+x-y,1/3+z
6 2/3-x+y,1/3-x,1/3+z
7 1/3+x,2/3+y,2/3+z
8 1/3-y,2/3+x-y,2/3+z
9 1/3-x+y,2/3-x,2/3+z
10 -x,-y,-z
11 y,-x+y,-z
12 x-y,x,-z
13 1/3-x,2/3-y,2/3-z
14 1/3+y,2/3-x+y,2/3-z
15 1/3+x-y,2/3+x,2/3-z
16 2/3-x,1/3-y,1/3-z
17 2/3+y,1/3-x+y,1/3-z
18 2/3+x-y,1/3+x,1/3-z
_cell_length_a                   18.674(5)
_cell_length_b                   18.674(5)
_cell_length_c                   37.262(5)
_cell_angle_alpha                90
_cell_angle_beta                 90
_cell_angle_gamma                120
_cell_volume                     11253.1
loop_
_atom_site_label
_atom_site_type_symbol
_atom_site_fract_x
_atom_site_fract_y
_atom_site_fract_z
P1 P 1.0000 1.0000 0.20611(13)
W1 W 1.02703(3) 0.91030(2) 0.285243(12)
W2 W 0.93252(3) 0.78457(3) 0.203720(13)
W3 W 1.15526(3) 0.94236(3) 0.204878(12)
W4 W 0.90285(3) 0.87419(2) 0.129599(13)
O1 O 1.0503(4) 0.8556(4) 0.3171(2)
O2 O 0.8707(4) 0.8322(4) 0.0882(2)
O3 O 1.2155(4) 0.8996(4) 0.2099(2)
O4 O 1.0000 1.0000 0.2473(3)
O5 O 0.9611(4) 0.8286(4) 0.2519(2)
O6 O 0.8239(4) 0.7671(4) 0.2124(2)
O7 O 0.9118(4) 0.9789(4) 0.1250(2)
O8 O 0.9184(4) 0.6873(4) 0.2091(2)
O9 O 0.8015(4) 0.8347(4) 0.15465(19)
O10 O 0.9142(4) 0.7886(4) 0.1541(2)
O11 O 1.1154(4) 0.9392(4) 0.25222(19)
O12 O 0.9323(4) 0.9107(4) 0.3037(2)
O13 O 0.9356(4) 0.9145(4) 0.19233(19)
O14 O 1.0489(4) 0.8496(4) 0.1958(2)
O13A O 1.0855(4) 1.0211(6) 0.19233(19)
O13B O 0.9789(6) 1.0644(4) 0.19233(19)
W1A W 1.08970(2) 1.11673(4) 0.285243(12)
W2A W 1.21543(3) 1.14795(4) 0.203720(13)
W3A W 1.05764(3) 1.21290(4) 0.204878(12)
W4A W 1.12581(2) 1.02866(4) 0.129599(13)
O1A O 1.1444(4) 1.1947(6) 0.3171(2)
O2A O 1.1678(4) 1.0385(6) 0.0882(2)
O3A O 1.1004(4) 1.3159(6) 0.2099(2)
O5A O 1.1714(4) 1.1325(6) 0.2519(2)
O6A O 1.2329(4) 1.0568(6) 0.2124(2)
O7A O 1.0211(4) 0.9329(6) 0.1250(2)
O8A O 1.3127(4) 1.2311(6) 0.2091(2)
O9A O 1.1653(4) 0.9668(6) 0.15465(19)
O10A O 1.2114(4) 1.1256(6) 0.1541(2)
O11A O 1.0608(4) 1.1762(6) 0.25222(19)
O12A O 1.0893(4) 1.0216(6) 0.3037(2)
O14A O 1.1504(4) 1.1993(6) 0.1958(2)
W1B W 0.88327(4) 0.97297(3) 0.285243(12)
W2B W 0.85205(4) 1.06748(3) 0.203720(13)
W3B W 0.78710(4) 0.84474(3) 0.204878(12)
W4B W 0.97134(4) 1.09715(3) 0.129599(13)
O1B O 0.8053(6) 0.9497(4) 0.3171(2)
O2B O 0.9615(6) 1.1293(4) 0.0882(2)
O3B O 0.6841(6) 0.7845(4) 0.2099(2)
O5B O 0.8675(6) 1.0389(4) 0.2519(2)
O6B O 0.9432(6) 1.1761(4) 0.2124(2)
O7B O 1.0671(6) 1.0882(4) 0.1250(2)
O8B O 0.7689(6) 1.0816(4) 0.2091(2)
O9B O 1.0332(6) 1.1985(4) 0.15465(19)
O10B O 0.8744(6) 1.0858(4) 0.1541(2)
O11B O 0.8238(6) 0.8846(4) 0.25222(19)
O12B O 0.9784(6) 1.0677(4) 0.3037(2)
O14B O 0.8007(6) 0.9511(4) 0.1958(2)
Cu1 Cu 1.1667 0.8333 0.3333
C1 C 0.9810(6) 0.2285(6) 0.3240(3)
H1 H 0.9763 0.1915 0.3418
C2 C 1.0329(6) 0.3321(7) 0.2892(3)
H2 H 1.0696 0.3808 0.2774
C3 C 1.1036(7) 0.7409(7) 0.2633(3)
H3 H 1.0534 0.7397 0.2650
C4 C 1.2244(8) 0.7676(8) 0.2724(4)
H4 H 1.2769 0.7898 0.2824
C5 C 1.0690(7) 0.6445(7) 0.2108(3)
H5 H 1.1020 0.6506 0.1898
H6 H 1.0261 0.6568 0.2039
C6 C 1.0301(7) 0.5582(7) 0.2240(3)
C7 C 1.0316(8) 0.4969(7) 0.2032(3)
H7 H 1.0613 0.5114 0.1819
C8 C 0.9896(8) 0.4148(8) 0.2138(4)
H8 H 0.9913 0.3750 0.1995
C9 C 0.9457(7) 0.3919(7) 0.2451(4)
C10 C 0.9462(8) 0.4522(8) 0.2657(4)
H9 H 0.9189 0.4379 0.2877
C11 C 0.9861(8) 0.5338(8) 0.2551(4)
H10 H 0.9829 0.5728 0.2694
C12 C 0.9020(7) 0.3034(7) 0.2574(4)
H11 H 0.8498 0.2902 0.2684
H12 H 0.8904 0.2673 0.2368
N1 N 1.1651(6) 0.7806(5) 0.2855(3)
N2 N 1.2005(7) 0.7194(7) 0.2433(3)
N3 N 1.1213(6) 0.7032(6) 0.2384(3)
N4 N 1.0535(5) 0.2962(5) 0.3144(2)
N5 N 0.9175(6) 0.2217(6) 0.3050(3)
N6 N 0.9524(5) 0.2888(5) 0.2832(3)
C1L C 1.3523(6) 1.4382(6) 0.3427(3)
H1L H 1.3570 1.4752 0.3249
C2L C 1.3004(6) 1.3346(7) 0.3775(3)
H2L H 1.2637 1.2859 0.3893
C3L C 1.2297(7) 0.9258(7) 0.4034(3)
H3L H 1.2799 0.9270 0.4017
C4L C 1.1089(8) 0.8991(8) 0.3943(4)
H4L H 1.0564 0.8769 0.3843
C5L C 1.2643(7) 1.0222(7) 0.4559(3)
H5L H 1.2313 1.0161 0.4769
H6L H 1.3072 1.0099 0.4628
C6L C 1.3032(7) 1.1085(7) 0.4427(3)
C7L C 1.3017(8) 1.1698(7) 0.4635(3)
H7L H 1.2720 1.1553 0.4848
C8L C 1.3437(8) 1.2519(8) 0.4529(4)
H8L H 1.3420 1.2917 0.4672
C9L C 1.3876(7) 1.2748(7) 0.4216(4)
C10L C 1.3871(8) 1.2145(8) 0.4010(4)
H9L H 1.4144 1.2288 0.3790
C11L C 1.3472(8) 1.1329(8) 0.4116(4)
H10L H 1.3504 1.0939 0.3973
C12L C 1.4313(7) 1.3633(7) 0.4093(4)
H11L H 1.4835 1.3765 0.3983
H12L H 1.4429 1.3994 0.4299
N1L N 1.1682(6) 0.8861(5) 0.3812(3)
N2L N 1.1328(7) 0.9473(7) 0.4234(3)
N3L N 1.2120(6) 0.9635(6) 0.4283(3)
N4L N 1.2798(5) 1.3705(5) 0.3523(2)
N5L N 1.4158(6) 1.4450(6) 0.3617(3)
N6L N 1.3809(5) 1.3779(5) 0.3835(3)
Cu1A Cu 1.1667 0.3334 0.3333
Cu1A_2 Cu 1.1667 1.3334 0.3333
N4B N 1.2427(7) 0.9465(5) 0.3144(2)
N4N N 1.0906(7) 0.7202(5) 0.3523(2)
O15 O 0.9115(7) 0.6498(7) 0.2978(3)
O16 O 0.8030(10) 0.4848(10) 0.3257(5)
loop_
_geom_bond_atom_site_label_1
_geom_bond_atom_site_label_2
_geom_bond_site_symmetry_1
_geom_bond_site_symmetry_2
P1 O4 1_555 1_555
W1 O1 1_555 1_555
W2 O5 1_555 1_555
W3 O3 1_555 1_555
W4 O2 1_555 1_555
O4 W1 1_555 1_555
O5 W1 1_555 1_555
O6 W2 1_555 1_555
O7 W4 1_555 1_555
O8 W2 1_555 1_555
O9 W4 1_555 1_555
O10 W2 1_555 1_555
O11 W1 1_555 1_555
O12 W1 1_555 1_555
O13 P1 1_555 1_555
O14 W2 1_555 1_555
Cu1 N1 1_555 1_555
C1 H1 1_555 1_555
C2 H2 1_555 1_555
C3 H3 1_555 1_555
C4 H4 1_555 1_555
C5 H5 1_555 1_555
H6 C5 1_555 1_555
C6 C5 1_555 1_555
C7 C6 1_555 1_555
H7 C7 1_555 1_555
C8 C7 1_555 1_555
H8 C8 1_555 1_555
C9 C8 1_555 1_555
C10 C9 1_555 1_555
H9 C10 1_555 1_555
C11 C6 1_555 1_555
H10 C11 1_555 1_555
C12 C9 1_555 1_555
H11 C12 1_555 1_555
H12 C12 1_555 1_555
N1 C3 1_555 1_555
N2 C4 1_555 1_555
N3 C3 1_555 1_555
N4 C1 1_555 1_555
N5 C1 1_555 1_555
N6 C2 1_555 1_555
O13A P1 1_555 1_555
O13B P1 1_555 1_555
W1A O4 1_555 1_555
W2A O13A 1_555 1_555
W3A O13B 1_555 1_555
W4A O13A 1_555 1_555
O1A W1A 1_555 1_555
O2A W4A 1_555 1_555
O3A W3A 1_555 1_555
O5A W1A 1_555 1_555
O6A W3 1_555 1_555
O7A W4 1_555 1_555
O8A W2A 1_555 1_555
O9A W3 1_555 1_555
O10A W2A 1_555 1_555
O11A W1A 1_555 1_555
O12A W1 1_555 1_555
O14A W2A 1_555 1_555
W1B O4 1_555 1_555
W2B O13B 1_555 1_555
W3B O6 1_555 1_555
W4B O7 1_555 1_555
O1B W1B 1_555 1_555
O2B W4B 1_555 1_555
O3B W3B 1_555 1_555
O5B W1B 1_555 1_555
O6B W3A 1_555 1_555
O7B W4A 1_555 1_555
O8B W2B 1_555 1_555
O9B W3A 1_555 1_555
O10B W2B 1_555 1_555
O11B W1B 1_555 1_555
O12B W1A 1_555 1_555
O14B W2B 1_555 1_555
C1L H1L 1_555 1_555
C2L H2L 1_555 1_555
C3L H3L 1_555 1_555
C4L H4L 1_555 1_555
C5L H5L 1_555 1_555
H6L C5L 1_555 1_555
C6L C5L 1_555 1_555
C7L C6L 1_555 1_555
H7L C7L 1_555 1_555
C8L C7L 1_555 1_555
H8L C8L 1_555 1_555
C9L C8L 1_555 1_555
C10L C9L 1_555 1_555
H9L C10L 1_555 1_555
C11L C6L 1_555 1_555
H10L C11L 1_555 1_555
C12L C9L 1_555 1_555
H11L C12L 1_555 1_555
H12L C12L 1_555 1_555
N1L Cu1 1_555 1_555
N2L C4L 1_555 1_555
N3L C3L 1_555 1_555
N4L C1L 1_555 1_555
N5L C1L 1_555 1_555
N6L C2L 1_555 1_555
Cu1A N4 1_555 1_555
Cu1A_2 N4L 1_555 1_555
N4B Cu1 1_555 1_555
N4N Cu1 1_555 1_555
W2 O13 1_555 1_555
W3 O11 1_555 1_555
W3 O14 1_555 1_555
W3 O13A 1_555 1_555
W4 O10 1_555 1_555
W4 O13 1_555 1_555
O9 W3B 1_555 1_555
O12 W1B 1_555 1_555
O13 W3B 1_555 1_555
C2 N4 1_555 1_555
C4 N1 1_555 1_555
C5 N3 1_555 1_555
C10 C11 1_555 1_555
C12 N6 1_555 1_555
N2 N3 1_555 1_555
N5 N6 1_555 1_555
O13B W4B 1_555 1_555
W1A O12A 1_555 1_555
W2A O5A 1_555 1_555
W2A O6A 1_555 1_555
W3A O11A 1_555 1_555
W3A O14A 1_555 1_555
W4A O7A 1_555 1_555
W4A O9A 1_555 1_555
W4A O10A 1_555 1_555
W1B O12B 1_555 1_555
W2B O5B 1_555 1_555
W2B O6B 1_555 1_555
W3B O11B 1_555 1_555
W3B O14B 1_555 1_555
W4B O7B 1_555 1_555
W4B O9B 1_555 1_555
W4B O10B 1_555 1_555
C2L N4L 1_555 1_555
C3L N1L 1_555 1_555
C4L N1L 1_555 1_555
C5L N3L 1_555 1_555
C10L C11L 1_555 1_555
C12L N6L 1_555 1_555
N2L N3L 1_555 1_555
N5L N6L 1_555 1_555

#END
