
#######################################################################
#
#                 Cambridge Crystallographic Data Centre
#                                CCDC 
#
#######################################################################
#
# If this CIF has been generated from an entry in the Cambridge 
# Structural Database, then it will include bibliographic, chemical, 
# crystal, experimental, refinement or atomic coordinate data resulting 
# from the CCDC's data processing and validation procedures.
#
#######################################################################

data_MILWIN
_symmetry_cell_setting           monoclinic
_symmetry_space_group_name_H-M   'C 2/c'
_symmetry_Int_Tables_number      15
_space_group_name_Hall           '-C 2yn'
loop_
_symmetry_equiv_pos_site_id
_symmetry_equiv_pos_as_xyz
1 x,y,z
2 1/2+x,1/2+y,z
3 x,-y,1/2+z
4 1/2+x,1/2-y,1/2+z
5 -x,-y,-z
6 1/2-x,1/2-y,-z
7 -x,y,1/2-z
8 1/2-x,1/2+y,1/2-z
_cell_length_a                   25.336(5)
_cell_length_b                   14.954(3)
_cell_length_c                   19.452(4)
_cell_angle_alpha                90
_cell_angle_beta                 126.50(3)
_cell_angle_gamma                90
_cell_volume                     5924.32
loop_
_atom_site_label
_atom_site_type_symbol
_atom_site_fract_x
_atom_site_fract_y
_atom_site_fract_z
La1 La 0.062610(17) 0.22417(2) 0.10948(2)
F1 F 0.0915(4) 0.3497(6) -0.1041(5)
F2 F 0.1966(4) 0.3406(8) -0.0317(5)
F3 F 0.1386(6) 0.2313(7) -0.0842(6)
F4 F 0.0641(5) 0.5760(5) 0.2370(5)
F5 F 0.0967(7) 0.4666(6) 0.3168(6)
F6 F 0.1466(6) 0.5102(9) 0.2732(9)
F7 F 0.1410(4) 0.0297(6) 0.3627(5)
F8 F 0.2348(4) 0.0472(9) 0.4011(5)
F9 F 0.1839(8) -0.0667(6) 0.3410(8)
O1 O -0.0212(2) 0.1869(4) 0.1333(3)
O2 O -0.0241(2) 0.1348(3) -0.0218(3)
O3 O 0.1837(2) 0.2577(4) 0.2049(3)
O4 O 0.0946(2) 0.2887(3) 0.0229(3)
O5 O -0.0273(2) 0.3365(3) 0.0164(3)
O6 O 0.0766(3) 0.3569(4) 0.1931(3)
O7 O 0.1156(3) 0.1016(4) 0.0851(4)
O8 O 0.1112(2) 0.1148(4) 0.2272(3)
N1 N -0.0836(2) 0.2095(4) 0.0956(3)
N2 N -0.0197(2) 0.1294(4) -0.0870(3)
C1 C -0.1016(4) 0.2400(6) 0.1425(5)
H1 H -0.0699 0.2505 0.2005
C2 C -0.1668(4) 0.2567(6) 0.1063(5)
H2 H -0.1786 0.2773 0.1405
C3 C -0.2145(3) 0.2432(4) 0.0204(4)
C4 C -0.1927(4) 0.2179(6) -0.0274(5)
H3 H -0.2227 0.2127 -0.0864
C5 C -0.1280(3) 0.2005(6) 0.0110(5)
H4 H -0.1145 0.1820 -0.0220
C6 C -0.0319(3) 0.2024(4) -0.1344(4)
H5 H -0.0448 0.2554 -0.1233
C7 C -0.0254(3) 0.1986(4) -0.1990(4)
H6 H -0.0347 0.2491 -0.2323
C8 C -0.0053(3) 0.1213(4) -0.2161(4)
C9 C 0.0044(3) 0.0471(4) -0.1675(4)
H7 H 0.0161 -0.0069 -0.1788
C10 C -0.0027(3) 0.0513(4) -0.1039(4)
H8 H 0.0040 0.0005 -0.0720
C11 C 0.2966(4) 0.2482(9) 0.2660(7)
H9 H 0.3115 0.3005 0.3016
H10 H 0.3232 0.2390 0.2466
H11 H 0.3000 0.1971 0.2983
C12 C 0.2249(4) 0.2611(6) 0.1888(6)
C13 C 0.2105(4) 0.2756(6) 0.1077(6)
H12 H 0.2457 0.2765 0.1046
C14 C 0.1484(4) 0.2887(5) 0.0322(6)
C15 C 0.1436(5) 0.3090(8) -0.0453(6)
C16 C -0.1058(4) 0.4518(7) -0.0484(6)
H13 H -0.1141 0.4322 -0.1010
H14 H -0.1032 0.5159 -0.0454
H15 H -0.1407 0.4321 -0.0460
C17 C -0.0421(4) 0.4130(5) 0.0255(5)
C18 C -0.0038(4) 0.4631(6) 0.0999(6)
H16 H -0.0165 0.5220 0.0981
C19 C 0.0509(4) 0.4330(6) 0.1754(5)
C20 C 0.0866(7) 0.4980(8) 0.2493(8)
C21 C 0.1956(6) 0.0110(8) 0.0938(9)
H17 H 0.1630 -0.0102 0.0369
H18 H 0.2243 -0.0374 0.1284
H19 H 0.2207 0.0578 0.0919
C22 C 0.1618(5) 0.0475(7) 0.1327(9)
C23 C 0.1821(5) 0.0214(7) 0.2174(8)
H20 H 0.2155 -0.0207 0.2477
C24 C 0.1546(4) 0.0556(6) 0.2549(6)
C25 C 0.1785(5) 0.0160(8) 0.3386(8)
C3E C -0.2855(3) 0.2568(4) -0.0204(4)
C2E C -0.3332(4) 0.2433(6) -0.1063(5)
C1E C -0.3984(4) 0.2600(6) -0.1425(5)
N1E N -0.4164(2) 0.2905(4) -0.0956(3)
O1E O -0.4788(2) 0.3131(4) -0.1333(3)
C5E C -0.3720(3) 0.2995(6) -0.0110(5)
C4E C -0.3073(4) 0.2821(6) 0.0274(5)
H3E H -0.2773 0.2873 0.0864
H4E H -0.3855 0.3180 0.0220
H1E H -0.4301 0.2495 -0.2005
H2E H -0.3214 0.2227 -0.1405
C8F C 0.0053(3) 0.1213(4) -0.2839(4)
C7F C 0.0254(3) 0.1986(4) -0.3010(4)
C6F C 0.0319(3) 0.2024(4) -0.3656(4)
N2F N 0.0197(2) 0.1294(4) -0.4130(3)
O2F O 0.0241(2) 0.1348(3) -0.4782(3)
C10F C 0.0027(3) 0.0513(4) -0.3961(4)
C9F C -0.0044(3) 0.0471(4) -0.3325(4)
H7F H -0.0161 -0.0069 -0.3212
H8F H -0.0040 0.0005 -0.4280
H5F H 0.0448 0.2554 -0.3767
H6F H 0.0347 0.2491 -0.2677
La1E La -0.562610(17) 0.27583(2) -0.10948(2)
F1E F -0.5915(4) 0.1503(6) 0.1041(5)
F2E F -0.6966(4) 0.1594(8) 0.0317(5)
F3E F -0.6386(6) 0.2687(7) 0.0842(6)
O3E O -0.6837(2) 0.2423(4) -0.2049(3)
O4E O -0.5946(2) 0.2113(3) -0.0229(3)
C11E C -0.7966(4) 0.2518(9) -0.2660(7)
H9E H -0.8115 0.1995 -0.3016
H10E H -0.8232 0.2610 -0.2466
H11E H -0.8000 0.3029 -0.2983
C12E C -0.7249(4) 0.2389(6) -0.1888(6)
C13E C -0.7105(4) 0.2244(6) -0.1077(6)
H12E H -0.7457 0.2235 -0.1046
C14E C -0.6484(4) 0.2113(5) -0.0322(6)
C15E C -0.6436(5) 0.1910(8) 0.0453(6)
F4E F -0.5641(5) -0.0760(5) -0.2370(5)
F5E F -0.5967(7) 0.0334(6) -0.3168(6)
F6E F -0.6466(6) -0.0102(9) -0.2732(9)
O5E O -0.4727(2) 0.1635(3) -0.0164(3)
O6E O -0.5766(3) 0.1431(4) -0.1931(3)
C16E C -0.3942(4) 0.0482(7) 0.0484(6)
H13E H -0.3859 0.0678 0.1010
H14E H -0.3968 -0.0159 0.0454
H15E H -0.3593 0.0679 0.0460
C17E C -0.4579(4) 0.0870(5) -0.0255(5)
C18E C -0.4962(4) 0.0369(6) -0.0999(6)
H16E H -0.4835 -0.0220 -0.0981
C19E C -0.5509(4) 0.0670(6) -0.1754(5)
C20E C -0.5866(7) 0.0020(8) -0.2493(8)
F7E F -0.6410(4) 0.4703(6) -0.3627(5)
F8E F -0.7348(4) 0.4528(9) -0.4011(5)
F9E F -0.6839(8) 0.5667(6) -0.3410(8)
O7E O -0.6156(3) 0.3984(4) -0.0851(4)
O8E O -0.6112(2) 0.3852(4) -0.2272(3)
C21E C -0.6956(6) 0.4890(8) -0.0938(9)
H17E H -0.6630 0.5102 -0.0369
H18E H -0.7243 0.5374 -0.1284
H19E H -0.7207 0.4422 -0.0919
C22E C -0.6618(5) 0.4525(7) -0.1327(9)
C23E C -0.6821(5) 0.4786(7) -0.2174(8)
H20E H -0.7155 0.5207 -0.2477
C24E C -0.6546(4) 0.4444(6) -0.2549(6)
C25E C -0.6785(5) 0.4840(8) -0.3386(8)
La1F La -0.062610(17) 0.22417(2) -0.60948(2)
O2E O -0.4759(2) 0.3652(3) 0.0218(3)
loop_
_geom_bond_atom_site_label_1
_geom_bond_atom_site_label_2
_geom_bond_site_symmetry_1
_geom_bond_site_symmetry_2
La1 O1 1_555 1_555
F1 C15 1_555 1_555
F2 C15 1_555 1_555
F3 C15 1_555 1_555
F4 C20 1_555 1_555
F5 C20 1_555 1_555
F6 C20 1_555 1_555
F7 C25 1_555 1_555
F8 C25 1_555 1_555
F9 C25 1_555 1_555
O1 N1 1_555 1_555
O2 La1 1_555 1_555
O3 La1 1_555 1_555
O4 La1 1_555 1_555
O5 La1 1_555 1_555
O6 La1 1_555 1_555
O7 La1 1_555 1_555
O8 La1 1_555 1_555
N1 C1 1_555 1_555
N2 O2 1_555 1_555
C1 H1 1_555 1_555
C2 C1 1_555 1_555
H2 C2 1_555 1_555
C3 C2 1_555 1_555
C4 C3 1_555 1_555
H3 C4 1_555 1_555
C5 N1 1_555 1_555
H4 C5 1_555 1_555
C6 N2 1_555 1_555
H5 C6 1_555 1_555
C7 C6 1_555 1_555
H6 C7 1_555 1_555
C8 C7 1_555 1_555
C9 C8 1_555 1_555
H7 C9 1_555 1_555
C10 N2 1_555 1_555
H8 C10 1_555 1_555
C11 H9 1_555 1_555
H10 C11 1_555 1_555
H11 C11 1_555 1_555
C12 O3 1_555 1_555
C13 C12 1_555 1_555
H12 C13 1_555 1_555
C14 O4 1_555 1_555
C15 C14 1_555 1_555
C16 H13 1_555 1_555
H14 C16 1_555 1_555
H15 C16 1_555 1_555
C17 O5 1_555 1_555
C18 C17 1_555 1_555
H16 C18 1_555 1_555
C19 O6 1_555 1_555
C20 C19 1_555 1_555
C21 H17 1_555 1_555
H18 C21 1_555 1_555
H19 C21 1_555 1_555
C22 O7 1_555 1_555
C23 C22 1_555 1_555
H20 C23 1_555 1_555
C24 O8 1_555 1_555
C25 C24 1_555 1_555
C3E C3 1_555 1_555
C2E C3E 1_555 1_555
C1E C2E 1_555 1_555
N1E C1E 1_555 1_555
O1E N1E 1_555 1_555
C5E N1E 1_555 1_555
C4E C3E 1_555 1_555
H3E C4E 1_555 1_555
H4E C5E 1_555 1_555
H1E C1E 1_555 1_555
H2E C2E 1_555 1_555
C8F C8 1_555 1_555
C7F C8F 1_555 1_555
C6F C7F 1_555 1_555
N2F C6F 1_555 1_555
O2F N2F 1_555 1_555
C10F N2F 1_555 1_555
C9F C8F 1_555 1_555
H7F C9F 1_555 1_555
H8F C10F 1_555 1_555
H5F C6F 1_555 1_555
H6F C7F 1_555 1_555
La1E O1E 1_555 1_555
F1E C15E 1_555 1_555
F2E C15E 1_555 1_555
F3E C15E 1_555 1_555
O3E La1E 1_555 1_555
O4E La1E 1_555 1_555
C11E H9E 1_555 1_555
H10E C11E 1_555 1_555
H11E C11E 1_555 1_555
C12E O3E 1_555 1_555
C13E C12E 1_555 1_555
H12E C13E 1_555 1_555
C14E O4E 1_555 1_555
C15E C14E 1_555 1_555
F4E C20E 1_555 1_555
F5E C20E 1_555 1_555
F6E C20E 1_555 1_555
O5E La1E 1_555 1_555
O6E La1E 1_555 1_555
C16E H13E 1_555 1_555
H14E C16E 1_555 1_555
H15E C16E 1_555 1_555
C17E O5E 1_555 1_555
C18E C17E 1_555 1_555
H16E C18E 1_555 1_555
C19E O6E 1_555 1_555
C20E C19E 1_555 1_555
F7E C25E 1_555 1_555
F8E C25E 1_555 1_555
F9E C25E 1_555 1_555
O7E La1E 1_555 1_555
O8E La1E 1_555 1_555
C21E H17E 1_555 1_555
H18E C21E 1_555 1_555
H19E C21E 1_555 1_555
C22E O7E 1_555 1_555
C23E C22E 1_555 1_555
H20E C23E 1_555 1_555
C24E O8E 1_555 1_555
C25E C24E 1_555 1_555
La1F O2F 1_555 1_555
O2E La1E 1_555 1_555
C4 C5 1_555 1_555
C9 C10 1_555 1_555
C11 C12 1_555 1_555
C13 C14 1_555 1_555
C16 C17 1_555 1_555
C18 C19 1_555 1_555
C21 C22 1_555 1_555
C23 C24 1_555 1_555
C5E C4E 1_555 1_555
C10F C9F 1_555 1_555
C11E C12E 1_555 1_555
C13E C14E 1_555 1_555
C16E C17E 1_555 1_555
C18E C19E 1_555 1_555
C21E C22E 1_555 1_555
C23E C24E 1_555 1_555

#END
