
#######################################################################
#
#                 Cambridge Crystallographic Data Centre
#                                CCDC 
#
#######################################################################
#
# If this CIF has been generated from an entry in the Cambridge 
# Structural Database, then it will include bibliographic, chemical, 
# crystal, experimental, refinement or atomic coordinate data resulting 
# from the CCDC's data processing and validation procedures.
#
#######################################################################

data_MILXAI
_symmetry_cell_setting           triclinic
_symmetry_space_group_name_H-M   'P -1'
_symmetry_Int_Tables_number      2
_space_group_name_Hall           '-P 1'
loop_
_symmetry_equiv_pos_site_id
_symmetry_equiv_pos_as_xyz
1 x,y,z
2 -x,-y,-z
_cell_length_a                   12.853(4)
_cell_length_b                   14.550(5)
_cell_length_c                   22.905(8)
_cell_angle_alpha                86.152(13)
_cell_angle_beta                 82.553(13)
_cell_angle_gamma                64.101(8)
_cell_volume                     3820.51
loop_
_atom_site_label
_atom_site_type_symbol
_atom_site_fract_x
_atom_site_fract_y
_atom_site_fract_z
W1 W 0.50386(6) -0.88952(5) 0.07204(3)
W2 W 0.28099(6) -1.03618(5) 0.28237(3)
W3 W 0.03058(6) -0.76946(5) 0.30168(3)
W4 W 0.65405(6) -0.82188(5) 0.15612(3)
W5 W 0.25592(6) -0.62040(5) 0.08835(3)
W6 W 0.44206(6) -0.96534(5) 0.37655(3)
W7 W 0.61897(6) -0.86128(5) 0.31492(3)
W8 W 0.19533(6) -0.69736(6) 0.39579(3)
W9 W 0.31053(6) -1.00082(5) 0.13633(3)
W10 W 0.06006(6) -0.73436(5) 0.15486(3)
W11 W 0.40645(6) -0.55583(6) 0.17296(3)
W12 W 0.37218(6) -0.59557(6) 0.33413(3)
W13 W -0.02334(6) -0.45937(6) 0.17602(3)
W14 W -0.04949(6) -0.49537(6) 0.32450(3)
W15 W 0.12945(6) -0.39122(6) 0.26191(3)
Ni1 Ni 0.5380(2) -1.22004(18) 0.33701(10)
Ni2 Ni 0.59343(19) -1.15681(17) 0.07088(10)
Ni3 Ni 0.55885(18) -1.18056(17) 0.20431(9)
Ni4 Ni 0.8645(2) -1.02843(19) 0.22674(11)
Ni5 Ni 0.72429(18) -1.08562(17) 0.14812(10)
Ni6 Ni 0.69714(18) -1.12014(17) 0.28205(10)
Ni7 Ni 0.7661(2) -0.7576(2) 0.40168(11)
P1 P 0.2094(4) -0.6521(3) 0.24139(19)
P2 P 0.4781(3) -0.9379(3) 0.22254(18)
C1 C 0.814(2) -0.604(2) 0.4611(12)
H1 H 0.7766 -0.5589 0.4316
C2 C 0.859(2) -0.568(2) 0.5033(10)
H2 H 0.8602 -0.5042 0.4988
C3 C 0.899(3) -0.627(2) 0.5497(13)
H3 H 0.9211 -0.6036 0.5803
C4 C 0.906(2) -0.725(2) 0.5517(12)
H4 H 0.9395 -0.7679 0.5827
C5 C 0.865(2) -0.763(2) 0.5078(11)
C6 C 0.861(2) -0.860(2) 0.5075(12)
C7 C 0.892(2) -0.929(2) 0.5563(13)
H5 H 0.9211 -0.9158 0.5884
C8 C 0.877(3) -1.014(3) 0.5530(14)
H6 H 0.8909 -1.0593 0.5850
C9 C 0.841(3) -1.038(2) 0.5025(14)
H7 H 0.8333 -1.0980 0.5006
C10 C 0.817(2) -0.9673(19) 0.4547(14)
H8 H 0.7948 -0.9821 0.4209
N1 N 0.8247(15) -0.6983(17) 0.4619(8)
N2 N 0.8264(15) -0.8799(14) 0.4577(8)
O1 O -0.0282(10) -0.7342(10) 0.1039(6)
O2 O -0.1266(11) -0.3834(10) 0.1307(6)
O3 O 0.2319(12) -0.5819(10) 0.0166(5)
O4 O 0.4212(11) -0.5832(10) 0.2549(6)
O5 O 0.4796(12) -0.4801(10) 0.1537(6)
O6 O 0.2906(10) -0.6488(8) 0.1863(5)
O7 O 0.4313(11) -0.5318(9) 0.3691(6)
O8 O 0.5079(11) -0.8918(9) -0.0039(5)
O9 O 0.1248(11) -0.2746(10) 0.2728(6)
O10 O 0.7599(10) -0.7798(10) 0.1373(6)
O11 O 0.4768(9) -0.8991(9) 0.2823(5)
O12 O 0.1156(11) -0.7595(10) 0.3592(6)
O13 O 0.2568(11) -1.0372(10) 0.0824(5)
O14 O 0.2693(9) -0.6750(9) 0.2970(5)
O15 O -0.1686(12) -0.4398(10) 0.3733(6)
O16 O 0.2071(11) -1.0983(9) 0.3210(6)
O17 O 0.1040(9) -0.5379(9) 0.2492(5)
O18 O 0.7151(12) -0.8315(10) 0.3474(6)
O19 O 0.2329(10) -0.4717(9) 0.3164(6)
O20 O 0.3369(11) -0.5417(9) 0.1013(5)
O21 O 0.4242(11) -1.0032(9) 0.4478(5)
O22 O 0.1667(11) -0.6945(10) 0.1073(6)
O23 O 0.4979(9) -0.8711(9) 0.1717(5)
O24 O -0.1171(11) -0.4400(11) 0.2511(6)
O25 O 0.2829(11) -0.6188(9) 0.3998(5)
O26 O 0.2464(10) -1.0483(9) 0.2040(5)
O27 O -0.0252(10) -0.7528(10) 0.2253(5)
O28 O 0.1446(11) -0.7005(11) 0.4686(5)
O29 O -0.0785(10) -0.7940(11) 0.3441(6)
O30 O 0.8241(10) -1.1481(9) 0.2147(5)
O31 O 0.7456(10) -0.9578(9) 0.1649(5)
O32 O 0.6223(10) -0.8032(9) 0.2387(5)
O33 O 0.6876(11) -1.2022(10) 0.1396(5)
O34 O 0.3298(10) -0.8184(9) 0.3904(5)
O35 O 0.0664(11) -0.5689(10) 0.3738(5)
O36 O 0.5555(10) -0.9120(10) 0.3808(6)
O37 O 0.0207(11) -0.3578(9) 0.2030(5)
O38 O 0.1576(10) -0.7248(8) 0.2341(5)
O39 O 0.0014(12) -0.3876(10) 0.3178(5)
O40 O 0.6169(10) -0.8385(9) 0.0799(5)
O41 O 0.2534(10) -0.4419(9) 0.2021(5)
O42 O 0.5527(10) -1.0836(9) 0.3448(5)
O43 O 0.1638(10) -0.8676(9) 0.1530(5)
O44 O 0.7156(11) -0.9869(9) 0.2871(5)
O45 O 0.4551(9) -1.1074(9) 0.1370(5)
O46 O 0.3669(9) -0.9457(8) 0.2186(5)
O47 O 0.1394(10) -0.9009(9) 0.2847(5)
O48 O 0.1133(11) -0.5048(9) 0.1247(5)
O49 O -0.0490(9) -0.6172(9) 0.3053(5)
O50 O -0.0246(10) -0.5841(10) 0.1716(5)
O51 O 0.6030(10) -1.0196(9) 0.0866(5)
O52 O 0.3885(10) -0.7395(9) 0.0772(5)
O53 O 0.5847(9) -1.0488(9) 0.2158(5)
O54 O 0.4289(10) -1.1417(10) 0.2719(5)
O55 O 0.6634(10) -1.2408(10) 0.2693(5)
O56 O 0.4849(10) -0.7296(9) 0.3362(5)
O57 O 0.3200(9) -0.9758(9) 0.3433(5)
O58 O 0.3707(9) -0.9126(9) 0.0932(5)
O59 O 0.5230(10) -0.6815(9) 0.1521(5)
O60 O 0.3983(13) -1.1915(11) 0.4016(6)
O61 O 0.5454(13) -1.3119(10) 0.1894(7)
O62 O 0.5922(13) -1.2997(10) 0.0657(5)
O63 O 0.7413(11) -1.1952(10) 0.0107(6)
O64 O 0.8140(11) -1.1913(11) 0.3440(6)
O65 O 0.8556(11) -1.1259(11) 0.0771(6)
O66 O 0.6370(16) -1.2791(15) 0.4049(8)
O67 O 1.0128(13) -1.0763(13) 0.1693(7)
O68 O 0.5372(14) -1.3590(13) 0.3227(7)
O69 O 0.8872(13) -0.9001(11) 0.2411(7)
O70 O 0.9537(12) -1.0868(12) 0.2997(7)
O71 O 0.6899(13) -0.6220(11) 0.3564(7)
O72 O 0.6032(13) -0.7048(16) 0.4515(7)
Ni2A Ni 0.40657(19) -0.84319(17) -0.07088(10)
Ni7_2 Ni -0.2339(2) -0.7576(2) 0.40168(11)
O8A O 0.4921(11) -1.1082(9) 0.0039(5)
O29_2 O 0.9215(10) -0.7940(11) 0.3441(6)
O73 O 0.0705(16) -0.2547(17) 0.1051(9)
O74 O 0.8450(14) 0.4170(15) 0.0434(8)
O75 O 0.8541(18) -0.965(2) 0.0180(10)
O76 O 0.3104(16) -1.2613(16) 0.1782(11)
O77 O 0.7123(19) 0.439(2) 0.1272(12)
O78 O 0.3108(19) -1.3157(17) 0.3481(11)
O79 O 1.0097(18) 0.3905(18) -0.0075(9)
O80 O 1.0027(18) -0.9360(17) 0.0817(9)
O81 O 0.533(2) -1.1940(18) 0.5094(9)
O82 O 0.367(3) -1.256(3) 0.0462(16)
O83 O 0.530(2) -0.583(2) 0.5452(12)
O84 O 0.749(3) 0.366(3) -0.0223(17)
O85 O 0.717(3) -0.526(3) 0.2456(14)
loop_
_geom_bond_atom_site_label_1
_geom_bond_atom_site_label_2
_geom_bond_site_symmetry_1
_geom_bond_site_symmetry_2
W1 O8 1_555 1_555
W2 O16 1_555 1_555
W3 O12 1_555 1_555
W4 O10 1_555 1_555
W5 O3 1_555 1_555
W6 O11 1_555 1_555
W7 O11 1_555 1_555
W8 O12 1_555 1_555
W9 O13 1_555 1_555
W10 O1 1_555 1_555
W11 O4 1_555 1_555
W12 O4 1_555 1_555
W13 O2 1_555 1_555
W14 O15 1_555 1_555
W15 O9 1_555 1_555
Ni1 O42 1_555 1_555
Ni2 O33 1_555 1_555
Ni3 O33 1_555 1_555
Ni4 O30 1_555 1_555
Ni5 O30 1_555 1_555
Ni6 O30 1_555 1_555
Ni7 N1 1_555 1_555
P1 O6 1_555 1_555
P2 O11 1_555 1_555
C1 H1 1_555 1_555
C2 C1 1_555 1_555
H2 C2 1_555 1_555
C3 C2 1_555 1_555
H3 C3 1_555 1_555
C4 C3 1_555 1_555
H4 C4 1_555 1_555
C5 C4 1_555 1_555
C6 C5 1_555 1_555
C7 C6 1_555 1_555
H5 C7 1_555 1_555
C8 C7 1_555 1_555
H6 C8 1_555 1_555
C9 C8 1_555 1_555
H7 C9 1_555 1_555
C10 C9 1_555 1_555
H8 C10 1_555 1_555
N1 C1 1_555 1_555
N2 Ni7 1_555 1_555
O5 W11 1_555 1_555
O6 W5 1_555 1_555
O7 W12 1_555 1_555
O8 Ni2A 1_555 1_555
O14 W8 1_555 1_555
O17 W13 1_555 1_555
O18 W7 1_555 1_555
O19 W12 1_555 1_555
O20 W5 1_555 1_555
O21 W6 1_555 1_555
O22 W5 1_555 1_555
O23 W1 1_555 1_555
O24 W13 1_555 1_555
O25 W8 1_555 1_555
O26 W2 1_555 1_555
O27 W3 1_555 1_555
O28 W8 1_555 1_555
O29 W3 1_555 1_555
O31 W4 1_555 1_555
O32 W4 1_555 1_555
O33 Ni5 1_555 1_555
O34 W6 1_555 1_555
O35 W8 1_555 1_555
O36 W6 1_555 1_555
O37 W13 1_555 1_555
O38 W3 1_555 1_555
O39 W14 1_555 1_555
O40 W1 1_555 1_555
O41 W11 1_555 1_555
O42 W6 1_555 1_555
O43 W9 1_555 1_555
O44 W7 1_555 1_555
O45 W9 1_555 1_555
O46 W2 1_555 1_555
O47 W2 1_555 1_555
O48 W5 1_555 1_555
O49 W3 1_555 1_555
O50 W10 1_555 1_555
O51 W1 1_555 1_555
O52 W1 1_555 1_555
O53 Ni3 1_555 1_555
O54 W2 1_555 1_555
O55 Ni1 1_555 1_555
O56 W7 1_555 1_555
O57 W2 1_555 1_555
O58 W1 1_555 1_555
O59 W4 1_555 1_555
O60 Ni1 1_555 1_555
O61 Ni3 1_555 1_555
O62 Ni2 1_555 1_555
O63 Ni2 1_555 1_555
O64 Ni6 1_555 1_555
O65 Ni5 1_555 1_555
O66 Ni1 1_555 1_555
O67 Ni4 1_555 1_555
O68 Ni1 1_555 1_555
O69 Ni4 1_555 1_555
O70 Ni4 1_555 1_555
O71 Ni7 1_555 1_555
O72 Ni7 1_555 1_555
Ni7_2 O29 1_555 1_555
O8A Ni2 1_555 1_555
O29_2 Ni7 1_555 1_555
W3 O47 1_555 1_555
W4 O23 1_555 1_555
W4 O40 1_555 1_555
W5 O52 1_555 1_555
W6 O57 1_555 1_555
W7 O32 1_555 1_555
W7 O36 1_555 1_555
W8 O34 1_555 1_555
W9 O26 1_555 1_555
W9 O46 1_555 1_555
W9 O58 1_555 1_555
W10 O22 1_555 1_555
W10 O27 1_555 1_555
W10 O38 1_555 1_555
W10 O43 1_555 1_555
W11 O6 1_555 1_555
W11 O20 1_555 1_555
W11 O59 1_555 1_555
W12 O14 1_555 1_555
W12 O25 1_555 1_555
W12 O56 1_555 1_555
W13 O48 1_555 1_555
W13 O50 1_555 1_555
W14 O17 1_555 1_555
W14 O24 1_555 1_555
W14 O35 1_555 1_555
W14 O49 1_555 1_555
W15 O17 1_555 1_555
W15 O19 1_555 1_555
W15 O37 1_555 1_555
W15 O39 1_555 1_555
W15 O41 1_555 1_555
Ni1 O54 1_555 1_555
Ni2 O45 1_555 1_555
Ni2 O51 1_555 1_555
Ni3 O45 1_555 1_555
Ni3 O54 1_555 1_555
Ni3 O55 1_555 1_555
Ni4 O31 1_555 1_555
Ni4 O44 1_555 1_555
Ni5 O31 1_555 1_555
Ni5 O51 1_555 1_555
Ni5 O53 1_555 1_555
Ni6 O42 1_555 1_555
Ni6 O44 1_555 1_555
Ni6 O53 1_555 1_555
Ni6 O55 1_555 1_555
Ni7 O18 1_555 1_555
P1 O14 1_555 1_555
P1 O17 1_555 1_555
P1 O38 1_555 1_555
P2 O23 1_555 1_555
P2 O46 1_555 1_555
P2 O53 1_555 1_555
C5 N1 1_555 1_555
C6 N2 1_555 1_555
C10 N2 1_555 1_555

#END
