
#######################################################################
#
#                 Cambridge Crystallographic Data Centre
#                                CCDC 
#
#######################################################################
#
# If this CIF has been generated from an entry in the Cambridge 
# Structural Database, then it will include bibliographic, chemical, 
# crystal, experimental, refinement or atomic coordinate data resulting 
# from the CCDC's data processing and validation procedures.
#
#######################################################################

data_MILZIQ
_symmetry_cell_setting           monoclinic
_symmetry_space_group_name_H-M   'P 21/c'
_symmetry_Int_Tables_number      14
_space_group_name_Hall           '-P 2ybc'
loop_
_symmetry_equiv_pos_site_id
_symmetry_equiv_pos_as_xyz
1 x,y,z
2 x,1/2-y,1/2+z
3 -x,-y,-z
4 -x,1/2+y,1/2-z
_cell_length_a                   12.3712(10)
_cell_length_b                   18.4488(15)
_cell_length_c                   14.1062(11)
_cell_angle_alpha                90
_cell_angle_beta                 91.137(2)
_cell_angle_gamma                90
_cell_volume                     3218.88
loop_
_atom_site_label
_atom_site_type_symbol
_atom_site_fract_x
_atom_site_fract_y
_atom_site_fract_z
Sn1 Sn 0.23557(2) 0.218799(13) 0.647633(18)
O1 O 0.2892(2) 0.28398(13) 0.8002(2)
O2 O 0.1945(2) 0.50324(14) 0.8428(2)
N1 N 0.3503(2) 0.38972(17) 0.8623(2)
H1 H 0.3291 0.4318 0.8803
C1 C 0.4626(3) 0.3758(2) 0.8752(3)
C2 C 0.5072(3) 0.3075(2) 0.8680(4)
H2 H 0.4644 0.2677 0.8521
C3 C 0.6185(4) 0.2997(3) 0.8851(4)
H3 H 0.6495 0.2540 0.8806
C4 C 0.6838(4) 0.3584(3) 0.9085(4)
C5 C 0.6371(4) 0.4251(3) 0.9134(4)
H4 H 0.6796 0.4653 0.9281
C6 C 0.5276(4) 0.4338(2) 0.8969(4)
H5 H 0.4974 0.4799 0.9005
C7 C 0.8043(4) 0.3484(4) 0.9258(5)
H6 H 0.8368 0.3944 0.9406
H7 H 0.8363 0.3289 0.8698
H8 H 0.8161 0.3156 0.9778
C8 C 0.2731(3) 0.3467(2) 0.8261(3)
C9 C 0.1630(3) 0.3818(2) 0.8153(3)
H9 H 0.1145 0.3498 0.7788
C10 C 0.1710(3) 0.4570(2) 0.7641(3)
H10 H 0.2229 0.4592 0.7127
C11 C 0.0563(4) 0.4792(3) 0.7371(4)
H11 H 0.0245 0.4786 0.6768
C12 C 0.0116(4) 0.4990(2) 0.8157(4)
H12 H -0.0583 0.5165 0.8228
C13 C 0.0959(3) 0.4881(2) 0.8928(3)
H13 H 0.0854 0.5168 0.9504
C15 C 0.0838(3) 0.1999(2) 0.7119(3)
C16 C 0.0733(4) 0.1935(3) 0.8082(3)
H15 H 0.1341 0.1980 0.8475
C17 C -0.0260(4) 0.1806(4) 0.8477(4)
H16 H -0.0313 0.1759 0.9131
C18 C -0.1167(4) 0.1746(3) 0.7911(5)
H17 H -0.1838 0.1666 0.8177
C19 C -0.1079(4) 0.1804(3) 0.6968(4)
H18 H -0.1694 0.1755 0.6585
C20 C -0.0104(4) 0.1934(3) 0.6556(4)
H19 H -0.0067 0.1980 0.5901
C21 C 0.3772(3) 0.1608(2) 0.6875(3)
C22 C 0.3862(4) 0.1260(3) 0.7735(4)
H20 H 0.3264 0.1234 0.8124
C23 C 0.4825(5) 0.0947(4) 0.8031(5)
H21 H 0.4866 0.0712 0.8614
C24 C 0.5704(5) 0.0978(3) 0.7486(5)
H22 H 0.6351 0.0773 0.7697
C25 C 0.5646(4) 0.1308(4) 0.6633(5)
H23 H 0.6248 0.1322 0.6249
C26 C 0.4680(4) 0.1628(3) 0.6333(4)
H24 H 0.4649 0.1862 0.5749
C27 C 0.2660(4) 0.3241(2) 0.5918(3)
C28 C 0.3647(5) 0.3570(3) 0.6063(4)
H25 H 0.4191 0.3328 0.6400
C29 C 0.3844(7) 0.4266(4) 0.5708(6)
H26 H 0.4515 0.4484 0.5803
C30 C 0.3043(10) 0.4619(4) 0.5223(5)
H27 H 0.3163 0.5087 0.5005
C31 C 0.2087(8) 0.4304(4) 0.5055(5)
H28 H 0.1560 0.4545 0.4698
C32 C 0.1877(6) 0.3613(3) 0.5414(4)
H29 H 0.1202 0.3403 0.5310
O3 O 0.1899(3) 0.43146(17) 1.0607(2)
C33 C 0.1074(3) 0.4051(2) 0.9088(3)
H30 H 0.0351 0.3835 0.9101
C34 C 0.1677(3) 0.3858(2) 1.0010(3)
O4 O 0.1866(2) 0.31703(15) 1.01168(19)
O4A O 0.1866(2) 0.18297(15) 0.51168(19)
Sn1A Sn 0.23557(2) 0.281201(13) 1.147633(18)
Cl1 Cl 0.6632(5) 0.1695(3) 0.0629(5)
Cl2 Cl 0.8561(6) 0.1263(4) 0.0830(7)
C14 C 0.7500(10) 0.1531(7) 0.1614(6)
H14 H 0.7626 0.1905 0.2097
Cl3? Cl 0.7583(13) 0.0649(7) 0.1891(6)
loop_
_geom_bond_atom_site_label_1
_geom_bond_atom_site_label_2
_geom_bond_site_symmetry_1
_geom_bond_site_symmetry_2
Sn1 O1 1_555 1_555
O1 C8 1_555 1_555
O2 C10 1_555 1_555
N1 H1 1_555 1_555
Cl1 C14 1_555 1_555
Cl2 C14 1_555 1_555
C1 N1 1_555 1_555
C2 C1 1_555 1_555
H2 C2 1_555 1_555
C3 C2 1_555 1_555
H3 C3 1_555 1_555
C4 C3 1_555 1_555
C5 C4 1_555 1_555
H4 C5 1_555 1_555
C6 C1 1_555 1_555
H5 C6 1_555 1_555
C7 C4 1_555 1_555
H6 C7 1_555 1_555
H7 C7 1_555 1_555
H8 C7 1_555 1_555
C8 N1 1_555 1_555
C9 C8 1_555 1_555
H9 C9 1_555 1_555
C10 C9 1_555 1_555
H10 C10 1_555 1_555
C11 C10 1_555 1_555
H11 C11 1_555 1_555
C12 C11 1_555 1_555
H12 C12 1_555 1_555
C13 O2 1_555 1_555
H13 C13 1_555 1_555
C14 H14 1_555 1_555
C15 Sn1 1_555 1_555
C16 C15 1_555 1_555
H15 C16 1_555 1_555
C17 C16 1_555 1_555
H16 C17 1_555 1_555
C18 C17 1_555 1_555
H17 C18 1_555 1_555
C19 C18 1_555 1_555
H18 C19 1_555 1_555
C20 C15 1_555 1_555
H19 C20 1_555 1_555
C21 Sn1 1_555 1_555
C22 C21 1_555 1_555
H20 C22 1_555 1_555
C23 C22 1_555 1_555
H21 C23 1_555 1_555
C24 C23 1_555 1_555
H22 C24 1_555 1_555
C25 C24 1_555 1_555
H23 C25 1_555 1_555
C26 C21 1_555 1_555
H24 C26 1_555 1_555
C27 Sn1 1_555 1_555
C28 C27 1_555 1_555
H25 C28 1_555 1_555
C29 C28 1_555 1_555
H26 C29 1_555 1_555
C30 C29 1_555 1_555
H27 C30 1_555 1_555
C31 C30 1_555 1_555
H28 C31 1_555 1_555
C32 C27 1_555 1_555
H29 C32 1_555 1_555
O3 C34 1_555 1_555
C33 C9 1_555 1_555
H30 C33 1_555 1_555
C34 C33 1_555 1_555
O4 C34 1_555 1_555
O4A Sn1 1_555 1_555
Sn1A O4 1_555 1_555
C5 C6 1_555 1_555
C12 C13 1_555 1_555
C13 C33 1_555 1_555
C19 C20 1_555 1_555
C25 C26 1_555 1_555
C31 C32 1_555 1_555

#END
