
#######################################################################
#
#                 Cambridge Crystallographic Data Centre
#                                CCDC 
#
#######################################################################
#
# If this CIF has been generated from an entry in the Cambridge 
# Structural Database, then it will include bibliographic, chemical, 
# crystal, experimental, refinement or atomic coordinate data resulting 
# from the CCDC's data processing and validation procedures.
#
#######################################################################

data_MIMHOH
_symmetry_cell_setting           monoclinic
_symmetry_space_group_name_H-M   'P 21/c'
_symmetry_Int_Tables_number      14
_space_group_name_Hall           '-P 2ybc'
loop_
_symmetry_equiv_pos_site_id
_symmetry_equiv_pos_as_xyz
1 x,y,z
2 -x,1/2+y,1/2-z
3 -x,-y,-z
4 x,1/2-y,1/2+z
_cell_length_a                   8.589(2)
_cell_length_b                   13.047(3)
_cell_length_c                   14.940(4)
_cell_angle_alpha                90
_cell_angle_beta                 96.001(2)
_cell_angle_gamma                90
_cell_volume                     1665.01
loop_
_atom_site_label
_atom_site_type_symbol
_atom_site_fract_x
_atom_site_fract_y
_atom_site_fract_z
Cd1 Cd 0.73304(4) 0.81974(3) 0.21212(3)
O1 O 0.4779(4) 0.8303(4) 0.1544(3)
O2 O 0.6509(5) 0.8545(4) 0.0622(3)
O3 O 0.2722(6) 1.1851(3) 0.1955(3)
O4 O 0.1565(5) 1.1500(3) 0.3141(3)
N1 N 0.7053(5) 0.9250(4) 0.3307(3)
N2 N -0.0266(5) 0.8840(3) 0.1915(3)
C1 C 0.5133(7) 0.8424(6) 0.0774(4)
C2 C 0.3901(6) 0.8343(4) -0.0008(3)
C3 C 0.4367(7) 0.7989(4) -0.0819(4)
H1 H 0.5428 0.7904 -0.0876
C4 C 0.3283(8) 0.7763(5) -0.1541(4)
H2 H 0.3614 0.7515 -0.2073
C5 C 0.1717(8) 0.7905(5) -0.1473(4)
H3 H 0.0978 0.7744 -0.1953
C6 C 0.1248(7) 0.8292(5) -0.0675(4)
H4 H 0.0188 0.8407 -0.0636
C7 C 0.2294(6) 0.8505(4) 0.0050(3)
C8 C 0.1676(6) 0.8946(4) 0.0868(3)
C9 C 0.0419(6) 0.8473(4) 0.1219(4)
H5 H 0.0034 0.7866 0.0954
C10 C 0.0310(6) 0.9700(4) 0.2301(3)
H6 H -0.0135 0.9952 0.2798
C11 C 0.1535(6) 1.0232(4) 0.1996(3)
C12 C 0.2219(6) 0.9856(4) 0.1270(3)
H7 H 0.3040 1.0209 0.1051
C13 C 0.1996(6) 1.1250(4) 0.2408(3)
C14 C 0.6356(13) 1.0142(6) 0.3192(6)
H8 H 0.5891 1.0314 0.2622
C15 C 0.6285(13) 1.0822(7) 0.3870(6)
H9 H 0.5800 1.1453 0.3761
C16 C 0.6921(14) 1.0579(7) 0.4705(7)
H10 H 0.6870 1.1038 0.5177
C17 C 0.7644(11) 0.9649(7) 0.4852(5)
H11 H 0.8097 0.9461 0.5421
C18 C 0.7672(8) 0.9004(5) 0.4124(4)
H12 H 0.8149 0.8367 0.4212
Cd1_2 Cd -0.26696(4) 0.81974(3) 0.21212(3)
Cd1A Cd 0.26696(4) 1.31974(3) 0.28788(3)
O3A O 0.7278(6) 0.6851(3) 0.3045(3)
O4A O 0.8435(5) 0.6500(3) 0.1859(3)
N2_2 N 0.9734(5) 0.8840(3) 0.1915(3)
loop_
_geom_bond_atom_site_label_1
_geom_bond_atom_site_label_2
_geom_bond_site_symmetry_1
_geom_bond_site_symmetry_2
Cd1 O1 1_555 1_555
O1 C1 1_555 1_555
O2 Cd1 1_555 1_555
O3 C13 1_555 1_555
O4 C13 1_555 1_555
N1 Cd1 1_555 1_555
N2 C9 1_555 1_555
C1 O2 1_555 1_555
C2 C1 1_555 1_555
C3 C2 1_555 1_555
H1 C3 1_555 1_555
C4 C3 1_555 1_555
H2 C4 1_555 1_555
C5 C4 1_555 1_555
H3 C5 1_555 1_555
C6 C5 1_555 1_555
H4 C6 1_555 1_555
C7 C2 1_555 1_555
C8 C7 1_555 1_555
C9 C8 1_555 1_555
H5 C9 1_555 1_555
C10 N2 1_555 1_555
H6 C10 1_555 1_555
C11 C10 1_555 1_555
C12 C8 1_555 1_555
H7 C12 1_555 1_555
C13 C11 1_555 1_555
C14 N1 1_555 1_555
H8 C14 1_555 1_555
C15 C14 1_555 1_555
H9 C15 1_555 1_555
C16 C15 1_555 1_555
H10 C16 1_555 1_555
C17 C16 1_555 1_555
H11 C17 1_555 1_555
C18 N1 1_555 1_555
H12 C18 1_555 1_555
Cd1_2 N2 1_555 1_555
Cd1A O3 1_555 1_555
O3A Cd1 1_555 1_555
O4A Cd1 1_555 1_555
N2_2 Cd1 1_555 1_555
O4 Cd1A 1_555 1_555
C6 C7 1_555 1_555
C11 C12 1_555 1_555
C17 C18 1_555 1_555

#END
