
#######################################################################
#
#                 Cambridge Crystallographic Data Centre
#                                CCDC 
#
#######################################################################
#
# If this CIF has been generated from an entry in the Cambridge 
# Structural Database, then it will include bibliographic, chemical, 
# crystal, experimental, refinement or atomic coordinate data resulting 
# from the CCDC's data processing and validation procedures.
#
#######################################################################

data_MIMHAT
_symmetry_cell_setting           monoclinic
_symmetry_space_group_name_H-M   'P 21/n'
_symmetry_Int_Tables_number      14
_space_group_name_Hall           '-P 2yn'
loop_
_symmetry_equiv_pos_site_id
_symmetry_equiv_pos_as_xyz
1 x,y,z
2 1/2-x,1/2+y,1/2-z
3 -x,-y,-z
4 1/2+x,1/2-y,1/2+z
_cell_length_a                   12.880(9)
_cell_length_b                   11.208(7)
_cell_length_c                   20.78(1)
_cell_angle_alpha                90
_cell_angle_beta                 102.79(1)
_cell_angle_gamma                90
_cell_volume                     2925.35
loop_
_atom_site_label
_atom_site_type_symbol
_atom_site_fract_x
_atom_site_fract_y
_atom_site_fract_z
Ag1 Ag 0.64443(2) 0.82163(2) 0.03412(1)
Ag2 Ag 0.84541(2) 0.81504(2) -0.03074(1)
F1 F 0.3085(1) 1.0060(2) -0.28904(9)
F2 F 0.4203(1) 0.9456(2) -0.37846(8)
F3 F 0.6185(1) 0.8476(2) -0.33909(9)
F4 F 0.7025(1) 0.8139(2) -0.21072(9)
F5 F 1.1917(1) 0.9976(2) 0.28763(9)
F6 F 1.0805(2) 0.9369(2) 0.37727(9)
F7 F 0.8810(2) 0.8442(2) 0.33868(9)
F8 F 0.7943(1) 0.8131(2) 0.20984(9)
O1 O 0.5496(2) 0.8308(2) -0.0743(1)
O2 O 0.6973(1) 0.9224(2) -0.0877(1)
O3 O 0.2935(2) 0.9520(2) -0.1601(1)
O4 O 0.4330(2) 1.0601(2) -0.1063(1)
O5 O 0.8029(1) 0.9310(2) 0.0866(1)
O6 O 0.9374(2) 0.8137(2) 0.0748(1)
O7 O 1.0620(2) 1.0458(2) 0.1011(1)
O8 O 1.2064(2) 0.9539(2) 0.1603(1)
N1 N 0.6651(3) 0.6223(3) 0.0417(2)
N2 N 0.8889(3) 0.6656(3) -0.0963(2)
C1 C 0.5530(2) 0.9016(3) -0.1803(1)
C2 C 0.4497(2) 0.9482(3) -0.2006(1)
C3 C 0.4066(2) 0.9598(3) -0.2672(2)
C4 C 0.4630(2) 0.9287(3) -0.3142(2)
C5 C 0.5634(2) 0.8806(3) -0.2945(2)
C6 C 0.6065(2) 0.8671(3) -0.2281(2)
C7 C 0.6029(2) 0.8826(3) -0.1079(2)
C8 C 0.3908(2) 0.9927(3) -0.1504(1)
C9 C 0.9445(2) 0.8980(3) 0.1795(1)
C10 C 1.0486(2) 0.9427(2) 0.1990(1)
C11 C 1.0931(2) 0.9530(3) 0.2657(2)
C12 C 1.0369(3) 0.9220(3) 0.3130(2)
C13 C 0.9357(3) 0.8767(3) 0.2936(2)
C14 C 0.8912(2) 0.8637(3) 0.2272(2)
C15 C 0.8920(2) 0.8800(3) 0.1077(1)
C16 C 1.1061(2) 0.9860(3) 0.1475(2)
C17 C 0.7166(3) 0.4078(3) 0.0147(2)
C18 C 0.6509(3) 0.3117(3) 0.0208(2)
C19 C 0.6836(3) 0.1976(3) 0.0089(2)
C20 C 0.7788(3) 0.1800(3) -0.0085(2)
C21 C 0.8431(3) 0.2757(4) -0.0162(2)
C22 C 0.8125(3) 0.3907(3) -0.0050(2)
C23 C 0.6865(3) 0.5272(3) 0.0291(2)
C24 C 0.9618(3) 0.7198(3) -0.1992(2)
C25 C 0.8961(3) 0.7099(3) -0.2611(2)
C26 C 0.9323(3) 0.7446(4) -0.3159(2)
C27 C 1.0347(3) 0.7896(3) -0.3086(2)
C28 C 1.0998(3) 0.7988(3) -0.2470(2)
C29 C 1.0649(3) 0.7653(4) -0.1919(2)
C30 C 0.9223(3) 0.6879(3) -0.1421(2)
H1 H 0.262(3) 0.992(3) -0.133(2)
H2 H 1.236(3) 0.990(3) 0.135(2)
H3 H 0.584(3) 0.323(3) 0.034(2)
H4 H 0.637(3) 0.139(3) 0.014(2)
H5 H 0.797(3) 0.106(3) -0.018(2)
H6 H 0.908(3) 0.264(3) -0.027(2)
H7 H 0.851(2) 0.469(3) -0.010(2)
H8 H 0.829(3) 0.681(3) -0.268(2)
H9 H 0.890(3) 0.738(3) -0.354(2)
H10 H 1.062(3) 0.814(3) -0.350(2)
H11 H 1.162(3) 0.826(3) -0.241(2)
H12 H 1.102(3) 0.767(3) -0.158(2)
Ag1B Ag 0.35557(2) 1.17837(2) -0.03412(1)
Ag2B Ag 1.15459(2) 1.18496(2) 0.03074(1)
O4B O 0.5670(2) 0.9399(2) 0.1063(1)
O7B O 0.9380(2) 0.9542(2) -0.1011(1)
loop_
_geom_bond_atom_site_label_1
_geom_bond_atom_site_label_2
_geom_bond_site_symmetry_1
_geom_bond_site_symmetry_2
Ag1 O1 1_555 1_555
Ag2 O2 1_555 1_555
F1 C3 1_555 1_555
F2 C4 1_555 1_555
F3 C5 1_555 1_555
F4 C6 1_555 1_555
F5 C11 1_555 1_555
F6 C12 1_555 1_555
F7 C13 1_555 1_555
F8 C14 1_555 1_555
O1 C7 1_555 1_555
O2 C7 1_555 1_555
O3 C8 1_555 1_555
O4 C8 1_555 1_555
O5 Ag1 1_555 1_555
O6 Ag2 1_555 1_555
O7 C16 1_555 1_555
O8 C16 1_555 1_555
N1 Ag1 1_555 1_555
N2 Ag2 1_555 1_555
C1 C2 1_555 1_555
C2 C3 1_555 1_555
C3 C4 1_555 1_555
C4 C5 1_555 1_555
C5 C6 1_555 1_555
C6 C1 1_555 1_555
C7 C1 1_555 1_555
C8 C2 1_555 1_555
C9 C10 1_555 1_555
C10 C11 1_555 1_555
C11 C12 1_555 1_555
C12 C13 1_555 1_555
C13 C14 1_555 1_555
C14 C9 1_555 1_555
C15 O5 1_555 1_555
C16 C10 1_555 1_555
C17 C18 1_555 1_555
C18 C19 1_555 1_555
C19 C20 1_555 1_555
C20 C21 1_555 1_555
C21 C22 1_555 1_555
C22 C17 1_555 1_555
C23 N1 1_555 1_555
C24 C25 1_555 1_555
C25 C26 1_555 1_555
C26 C27 1_555 1_555
C27 C28 1_555 1_555
C28 C29 1_555 1_555
C29 C24 1_555 1_555
C30 N2 1_555 1_555
H1 O3 1_555 1_555
H2 O8 1_555 1_555
H3 C18 1_555 1_555
H4 C19 1_555 1_555
H5 C20 1_555 1_555
H6 C21 1_555 1_555
H7 C22 1_555 1_555
H8 C25 1_555 1_555
H9 C26 1_555 1_555
H10 C27 1_555 1_555
H11 C28 1_555 1_555
H12 C29 1_555 1_555
Ag1B O4 1_555 1_555
Ag2B O7 1_555 1_555
O4B Ag1 1_555 1_555
O7B Ag2 1_555 1_555
O6 C15 1_555 1_555
C9 C15 1_555 1_555
C17 C23 1_555 1_555
C24 C30 1_555 1_555

#END
