
#######################################################################
#
#                 Cambridge Crystallographic Data Centre
#                                CCDC 
#
#######################################################################
#
# If this CIF has been generated from an entry in the Cambridge 
# Structural Database, then it will include bibliographic, chemical, 
# crystal, experimental, refinement or atomic coordinate data resulting 
# from the CCDC's data processing and validation procedures.
#
#######################################################################

data_MIMJID
_symmetry_cell_setting           monoclinic
_symmetry_space_group_name_H-M   'C 2/c'
_symmetry_Int_Tables_number      15
_space_group_name_Hall           '-C 2yn'
loop_
_symmetry_equiv_pos_site_id
_symmetry_equiv_pos_as_xyz
1 x,y,z
2 -x,y,1/2-z
3 1/2+x,1/2+y,z
4 1/2-x,1/2+y,1/2-z
5 -x,-y,-z
6 x,-y,1/2+z
7 1/2-x,1/2-y,-z
8 1/2+x,1/2-y,1/2+z
_cell_length_a                   14.5258(12)
_cell_length_b                   18.4438(15)
_cell_length_c                   21.1634(18)
_cell_angle_alpha                90
_cell_angle_beta                 94.1720(10)
_cell_angle_gamma                90
_cell_volume                     5654.88
loop_
_atom_site_label
_atom_site_type_symbol
_atom_site_fract_x
_atom_site_fract_y
_atom_site_fract_z
Zn1 Zn 0.25727(3) 0.23091(3) 0.68096(2)
N1 N 0.3592(2) 0.22833(18) 0.75518(15)
N2 N 0.4288(2) 0.2655(2) 0.84649(15)
O1 O 0.2980(2) 0.15200(16) 0.62744(14)
C1 C 0.3939(3) 0.2833(2) 0.78851(19)
H1 H 0.3940 0.3305 0.7731
C2 C 0.4167(3) 0.1911(2) 0.85291(18)
C3 C 0.3725(3) 0.1687(2) 0.79590(19)
C4 C 0.2406(3) 0.1006(2) 0.62286(19)
C5 C 0.1793(3) 0.1052(2) 0.47843(18)
H2 H 0.1738 0.1505 0.5012
H3 H 0.1282 0.1025 0.4463
C6 C 0.1731(3) 0.0425(2) 0.52408(18)
H4 H 0.1722 -0.0027 0.5006
H5 H 0.1157 0.0460 0.5446
O2 O 0.1736(2) 0.09673(18) 0.65561(14)
C7 C 0.2699(3) 0.1050(2) 0.44630(17)
H6 H 0.2723 0.0603 0.4214
C8 C 0.2537(3) 0.0413(2) 0.57454(17)
H7 H 0.2514 -0.0052 0.5968
C9 C 0.3515(3) 0.1047(2) 0.49502(19)
H8 H 0.3545 0.1510 0.5169
H9 H 0.4079 0.0991 0.4736
C10 C 0.3695(3) 0.0501(3) 0.8362(2)
H10 H 0.3540 0.0014 0.8316
C11 C 0.3452(3) 0.0440(2) 0.54339(19)
H11 H 0.3949 0.0498 0.5762
H12 H 0.3543 -0.0020 0.5225
C12 C 0.4383(3) 0.1447(3) 0.9029(2)
H13 H 0.4680 0.1606 0.9408
C13 C 0.4715(3) 0.3136(3) 0.89506(18)
H14 H 0.4824 0.3605 0.8762
H15 H 0.5309 0.2937 0.9103
C14 C 0.3488(3) 0.0965(2) 0.7867(2)
H16 H 0.3201 0.0803 0.7486
C15 C 0.4130(3) 0.0736(3) 0.8931(2)
H17 H 0.4254 0.0402 0.9256
O3 O 0.21110(18) 0.16813(14) 0.35404(12)
O4 O 0.3287(2) 0.21802(18) 0.40749(16)
C16 C 0.2727(3) 0.1695(3) 0.4004(2)
C17 C 0.4125(3) 0.3238(2) 0.95094(19)
C18 C 0.4558(3) 0.3284(2) 1.01163(19)
H18 H 0.5194 0.3224 1.0172
C19 C 0.3176(3) 0.3315(2) 0.9432(2)
H19 H 0.2875 0.3287 0.9030
C20 C 0.4064(3) 0.3418(2) 1.06412(19)
C21 C 0.4568(3) 0.3496(2) 1.12828(18)
H20 H 0.5216 0.3387 1.1251
H21 H 0.4522 0.3994 1.1424
C22 C 0.3112(3) 0.3491(2) 1.0549(2)
H22 H 0.2766 0.3580 1.0894
N3 N 0.4197(2) 0.30164(19) 1.17494(15)
C23 C 0.4187(3) 0.2267(2) 1.17268(18)
C24 C 0.3749(3) 0.3206(2) 1.22571(18)
H23 H 0.3667 0.3685 1.2379
C25 C 0.4566(3) 0.1784(3) 1.1316(2)
H24 H 0.4901 0.1940 1.0984
C26 C 0.3701(3) 0.2042(2) 1.22333(18)
C27 C 0.4421(3) 0.1070(3) 1.1427(2)
H25 H 0.4660 0.0728 1.1160
C28 C 0.3924(4) 0.0829(3) 1.1928(2)
H26 H 0.3841 0.0334 1.1986
C29 C 0.3557(3) 0.1307(2) 1.2335(2)
H27 H 0.3225 0.1147 1.2668
C30 C 0.2677(3) 0.3432(2) 0.9954(2)
H28 H 0.2038 0.3471 0.9901
N4 N 0.3435(2) 0.26495(18) 1.25662(15)
Zn1F Zn 0.24273(3) 0.26909(3) 0.31904(2)
Zn1F_2 Zn 0.24273(3) 0.26909(3) 1.31904(2)
O3F O 0.28890(18) 0.33187(14) 0.64596(12)
O4F O 0.1713(2) 0.28198(18) 0.59251(16)
N4F N 0.1565(2) 0.23505(18) 0.74338(15)
O5 O 0.0830(3) 0.9739(2) 0.68407(19)
H29 H 0.0943 1.0053 0.7131
H30 H 0.0246 0.9702 0.6842
O6 O 0.3907(3) 0.4619(2) 0.68448(18)
H31 H 0.3593 0.4244 0.6738
H32 H 0.3842 0.4288 0.7117
loop_
_geom_bond_atom_site_label_1
_geom_bond_atom_site_label_2
_geom_bond_site_symmetry_1
_geom_bond_site_symmetry_2
Zn1 N1 1_555 1_555
N1 C1 1_555 1_555
N2 C1 1_555 1_555
O1 Zn1 1_555 1_555
C1 H1 1_555 1_555
C2 N2 1_555 1_555
C3 N1 1_555 1_555
C4 O1 1_555 1_555
C5 H2 1_555 1_555
H3 C5 1_555 1_555
C6 C5 1_555 1_555
H4 C6 1_555 1_555
H5 C6 1_555 1_555
O2 C4 1_555 1_555
C7 C5 1_555 1_555
H6 C7 1_555 1_555
C8 C4 1_555 1_555
H7 C8 1_555 1_555
C9 C7 1_555 1_555
H8 C9 1_555 1_555
H9 C9 1_555 1_555
C10 H10 1_555 1_555
C11 C8 1_555 1_555
H11 C11 1_555 1_555
H12 C11 1_555 1_555
C12 C2 1_555 1_555
H13 C12 1_555 1_555
C13 N2 1_555 1_555
H14 C13 1_555 1_555
H15 C13 1_555 1_555
C14 C3 1_555 1_555
H16 C14 1_555 1_555
C15 C10 1_555 1_555
H17 C15 1_555 1_555
O3 C16 1_555 1_555
O4 C16 1_555 1_555
C16 C7 1_555 1_555
C17 C13 1_555 1_555
C18 C17 1_555 1_555
H18 C18 1_555 1_555
C19 C17 1_555 1_555
H19 C19 1_555 1_555
C20 C18 1_555 1_555
C21 C20 1_555 1_555
H20 C21 1_555 1_555
H21 C21 1_555 1_555
C22 C20 1_555 1_555
H22 C22 1_555 1_555
N3 C21 1_555 1_555
C23 N3 1_555 1_555
C24 N3 1_555 1_555
H23 C24 1_555 1_555
C25 C23 1_555 1_555
H24 C25 1_555 1_555
C26 C23 1_555 1_555
C27 C25 1_555 1_555
H25 C27 1_555 1_555
C28 C27 1_555 1_555
H26 C28 1_555 1_555
C29 C26 1_555 1_555
H27 C29 1_555 1_555
C30 C19 1_555 1_555
H28 C30 1_555 1_555
N4 C24 1_555 1_555
O5 H29 1_555 1_555
H30 O5 1_555 1_555
O6 H31 1_555 1_555
H32 O6 1_555 1_555
Zn1F O3 1_555 1_555
Zn1F_2 N4 1_555 1_555
O3F Zn1 1_555 1_555
O4F Zn1 1_555 1_555
N4F Zn1 1_555 1_555
C2 C3 1_555 1_555
C6 C8 1_555 1_555
C9 C11 1_555 1_555
C10 C14 1_555 1_555
C12 C15 1_555 1_555
O4 Zn1F 1_555 1_555
C22 C30 1_555 1_555
C26 N4 1_555 1_555
C28 C29 1_555 1_555

#END
