
#######################################################################
#
#                 Cambridge Crystallographic Data Centre
#                                CCDC 
#
#######################################################################
#
# If this CIF has been generated from an entry in the Cambridge 
# Structural Database, then it will include bibliographic, chemical, 
# crystal, experimental, refinement or atomic coordinate data resulting 
# from the CCDC's data processing and validation procedures.
#
#######################################################################

data_MIMJUP
_symmetry_cell_setting           monoclinic
_symmetry_space_group_name_H-M   'P 2/c'
_symmetry_Int_Tables_number      13
_space_group_name_Hall           '-P 2yc'
loop_
_symmetry_equiv_pos_site_id
_symmetry_equiv_pos_as_xyz
1 x,y,z
2 -x,y,1/2-z
3 -x,-y,-z
4 x,-y,1/2+z
_cell_length_a                   7.4937(10)
_cell_length_b                   13.3793(17)
_cell_length_c                   17.9900(19)
_cell_angle_alpha                90
_cell_angle_beta                 114.617(4)
_cell_angle_gamma                90
_cell_volume                     1639.75
loop_
_atom_site_label
_atom_site_type_symbol
_atom_site_fract_x
_atom_site_fract_y
_atom_site_fract_z
Co1 Co -0.58657(4) 0.31312(2) -0.416932(17)
Co2 Co -0.5000 0.5000 -0.5000
O1 O -0.3566(2) 0.37309(11) -0.29881(9)
O2 O -0.5491(2) 0.47377(11) -0.39400(9)
O3 O 0.2147(2) 0.53575(11) -0.06725(9)
O4 O 0.1733(2) 0.69023(11) -0.02868(9)
O5 O -0.3335(3) 0.82565(12) -0.28854(11)
O6 O -0.7610(2) 0.29299(13) -0.35502(10)
H1 H -0.8861 0.2834 -0.3805
H2 H -0.7117 0.3216 -0.3108
O7 O -0.4123(2) 0.34883(11) -0.47969(9)
O8 O -0.1502(3) 0.25068(15) -0.42407(14)
N1 N -0.5451(3) 1.15817(15) -0.41022(12)
N2 N -0.2369(3) 0.32134(17) -0.46602(15)
C1 C -0.6775(4) 1.09313(19) -0.45876(16)
H3 H -0.7865 1.1180 -0.5027
C2 C -0.6615(4) 0.99194(19) -0.44736(18)
H4 H -0.7562 0.9498 -0.4838
C3 C -0.5037(4) 0.95241(18) -0.38136(15)
C4 C -0.3671(4) 1.0194(2) -0.33141(19)
H5 H -0.2581 0.9965 -0.2864
C5 C -0.3918(4) 1.1201(2) -0.34794(18)
H6 H -0.2962 1.1638 -0.3138
C6 C -0.4834(4) 0.84204(18) -0.36718(15)
H7 H -0.6061 0.8140 -0.3708
H8 H -0.4499 0.8102 -0.4081
C7 C -0.2834(3) 0.72892(16) -0.26293(14)
C8 C -0.3756(3) 0.64513(16) -0.30707(13)
H9 H -0.4821 0.6515 -0.3575
C9 C -0.3066(3) 0.55054(15) -0.27490(12)
C10 C -0.1464(3) 0.54069(16) -0.20065(13)
H10 H -0.0982 0.4776 -0.1806
C11 C -0.0568(3) 0.62599(16) -0.15570(13)
C12 C -0.1265(3) 0.71977(17) -0.18678(14)
H11 H -0.0683 0.7766 -0.1567
C13 C -0.4063(3) 0.46021(16) -0.32424(13)
C14 C 0.1242(3) 0.61661(16) -0.07712(12)
Co1A Co 0.58657(4) 0.31312(2) -0.083068(17)
O1A O 0.3566(2) 0.37309(11) -0.20119(9)
O2A O 0.5491(2) 0.47377(11) -0.10600(9)
O3A O -0.2147(2) 0.53575(11) -0.43275(9)
O4A O -0.1733(2) 0.69023(11) -0.47132(9)
O5A O 0.3335(3) 0.82565(12) -0.21146(11)
O6A O 0.7610(2) 0.29299(13) -0.14498(10)
H1A H 0.8861 0.2834 -0.1195
H2A H 0.7117 0.3216 -0.1892
O7A O 0.4123(2) 0.34883(11) -0.02031(9)
O8A O 0.1502(3) 0.25068(15) -0.07593(14)
N1A N 0.5451(3) 1.15817(15) -0.08978(12)
N2A N 0.2369(3) 0.32134(17) -0.03398(15)
C1A C 0.6775(4) 1.09313(19) -0.04124(16)
H3A H 0.7865 1.1180 0.0027
C2A C 0.6615(4) 0.99194(19) -0.05264(18)
H4A H 0.7562 0.9498 -0.0162
C3A C 0.5037(4) 0.95241(18) -0.11864(15)
C4A C 0.3671(4) 1.0194(2) -0.16859(19)
H5A H 0.2581 0.9965 -0.2136
C5A C 0.3918(4) 1.1201(2) -0.15206(18)
H6A H 0.2962 1.1638 -0.1862
C6A C 0.4834(4) 0.84204(18) -0.13282(15)
H7A H 0.6061 0.8140 -0.1292
H8A H 0.4499 0.8102 -0.0919
C7A C 0.2834(3) 0.72892(16) -0.23707(14)
C8A C 0.3756(3) 0.64513(16) -0.19293(13)
H9A H 0.4821 0.6515 -0.1425
C9A C 0.3066(3) 0.55054(15) -0.22510(12)
C10A C 0.1464(3) 0.54069(16) -0.29935(13)
H10A H 0.0982 0.4776 -0.3194
C11A C 0.0568(3) 0.62599(16) -0.34430(13)
C12A C 0.1265(3) 0.71977(17) -0.31322(14)
H11A H 0.0683 0.7766 -0.3433
C13A C 0.4063(3) 0.46021(16) -0.17576(13)
C14A C -0.1242(3) 0.61661(16) -0.42288(12)
Co1_2 Co -0.58657(4) 1.31312(2) -0.416932(17)
Co1A_2 Co 0.58657(4) 1.31312(2) -0.083068(17)
Co1B Co -0.41343(4) 0.68688(2) -0.583068(17)
Co1C Co 0.41343(4) 0.68688(2) 0.083068(17)
Co2A Co 0.5000 0.5000 0.0000
O2B O -0.4509(2) 0.52623(11) -0.60600(9)
O3C O -0.7853(2) 0.46425(11) -0.56725(9)
O4B O 0.8267(2) 0.30977(11) 0.02868(9)
O4C O -0.8267(2) 0.30977(11) -0.52868(9)
O7B O -0.5877(2) 0.65117(11) -0.52031(9)
N1_2 N -0.5451(3) 0.15817(15) -0.41022(12)
N1A_2 N 0.5451(3) 0.15817(15) -0.08978(12)
loop_
_geom_bond_atom_site_label_1
_geom_bond_atom_site_label_2
_geom_bond_site_symmetry_1
_geom_bond_site_symmetry_2
Co1 O1 1_555 1_555
Co2 O2 1_555 1_555
O1 C13 1_555 1_555
O2 Co1 1_555 1_555
O3 C14 1_555 1_555
O4 C14 1_555 1_555
O5 C6 1_555 1_555
O6 Co1 1_555 1_555
H1 O6 1_555 1_555
H2 O6 1_555 1_555
O7 Co1 1_555 1_555
O8 N2 1_555 1_555
N1 C1 1_555 1_555
N2 O7 1_555 1_555
C1 H3 1_555 1_555
C2 C1 1_555 1_555
H4 C2 1_555 1_555
C3 C2 1_555 1_555
C4 C3 1_555 1_555
H5 C4 1_555 1_555
C5 N1 1_555 1_555
H6 C5 1_555 1_555
C6 C3 1_555 1_555
H7 C6 1_555 1_555
H8 C6 1_555 1_555
C7 O5 1_555 1_555
C8 C7 1_555 1_555
H9 C8 1_555 1_555
C9 C8 1_555 1_555
C10 C9 1_555 1_555
H10 C10 1_555 1_555
C11 C10 1_555 1_555
C12 C7 1_555 1_555
H11 C12 1_555 1_555
C13 O2 1_555 1_555
C14 C11 1_555 1_555
Co1A O1A 1_555 1_555
O1A C13A 1_555 1_555
O2A Co1A 1_555 1_555
O3A Co2 1_555 1_555
O4A C14A 1_555 1_555
O5A C6A 1_555 1_555
O6A Co1A 1_555 1_555
H1A O6A 1_555 1_555
H2A O6A 1_555 1_555
O7A Co1A 1_555 1_555
O8A N2A 1_555 1_555
N1A C1A 1_555 1_555
N2A O7A 1_555 1_555
C1A H3A 1_555 1_555
C2A C1A 1_555 1_555
H4A C2A 1_555 1_555
C3A C2A 1_555 1_555
C4A C3A 1_555 1_555
H5A C4A 1_555 1_555
C5A N1A 1_555 1_555
H6A C5A 1_555 1_555
C6A C3A 1_555 1_555
H7A C6A 1_555 1_555
H8A C6A 1_555 1_555
C7A O5A 1_555 1_555
C8A C7A 1_555 1_555
H9A C8A 1_555 1_555
C9A C8A 1_555 1_555
C10A C9A 1_555 1_555
H10A C10A 1_555 1_555
C11A C10A 1_555 1_555
C12A C7A 1_555 1_555
H11A C12A 1_555 1_555
C13A O2A 1_555 1_555
C14A O3A 1_555 1_555
Co1_2 N1 1_555 1_555
Co1A_2 N1A 1_555 1_555
Co1B O4A 1_555 1_555
Co1C O4 1_555 1_555
Co2A O3 1_555 1_555
O2B Co2 1_555 1_555
O3C Co2 1_555 1_555
O4B Co1A 1_555 1_555
O4C Co1 1_555 1_555
O7B Co2 1_555 1_555
N1_2 Co1 1_555 1_555
N1A_2 Co1A 1_555 1_555
Co2 O7 1_555 1_555
C4 C5 1_555 1_555
C9 C13 1_555 1_555
C11 C12 1_555 1_555
O2A Co2A 1_555 1_555
O7A Co2A 1_555 1_555
C4A C5A 1_555 1_555
C9A C13A 1_555 1_555
C11A C12A 1_555 1_555
C11A C14A 1_555 1_555
Co1B O2B 1_555 1_555
Co1B O7B 1_555 1_555

#END
