
#######################################################################
#
#                 Cambridge Crystallographic Data Centre
#                                CCDC 
#
#######################################################################
#
# If this CIF has been generated from an entry in the Cambridge 
# Structural Database, then it will include bibliographic, chemical, 
# crystal, experimental, refinement or atomic coordinate data resulting 
# from the CCDC's data processing and validation procedures.
#
#######################################################################

data_MIMJEX
_symmetry_cell_setting           orthorhombic
_symmetry_space_group_name_H-M   'P 21 21 21'
_symmetry_Int_Tables_number      19
_space_group_name_Hall           'P 2ac 2ab'
loop_
_symmetry_equiv_pos_site_id
_symmetry_equiv_pos_as_xyz
1 x,y,z
2 1/2-x,-y,1/2+z
3 -x,1/2+y,1/2-z
4 1/2+x,1/2-y,-z
_cell_length_a                   10.2820(7)
_cell_length_b                   20.2872(14)
_cell_length_c                   20.5518(14)
_cell_angle_alpha                90
_cell_angle_beta                 90
_cell_angle_gamma                90
_cell_volume                     4286.96
loop_
_atom_site_label
_atom_site_type_symbol
_atom_site_fract_x
_atom_site_fract_y
_atom_site_fract_z
Ag1 Ag -0.64504(4) 0.71659(2) 0.51707(2)
Ag2 Ag 0.58185(3) 0.734861(15) -0.009103(15)
C1 C -0.3890(3) 0.68585(17) 0.40230(17)
C2 C 0.3728(4) 0.82778(18) 0.09409(17)
C3 C -0.5364(4) 0.6110(2) 0.3376(2)
H1 H -0.4739 0.5918 0.3093
C4 C -0.6664(5) 0.5988(2) 0.3376(2)
H2 H -0.7131 0.5698 0.3099
C5 C -0.7164(5) 0.6381(2) 0.3873(2)
H3 H -0.8057 0.6395 0.3990
C6 C -0.2534(4) 0.64030(17) 0.49453(19)
H4 H -0.1916 0.6160 0.4699
C7 C -0.2549(5) 0.6475(2) 0.5606(2)
H5 H -0.1958 0.6290 0.5911
C8 C -0.3617(5) 0.6877(2) 0.57358(19)
H6 H -0.3869 0.7013 0.6160
C9 C -0.4777(4) 0.7877(2) 0.3486(2)
H7 H -0.5483 0.7689 0.3253
C10 C -0.4341(6) 0.8505(2) 0.3434(3)
H8 H -0.4685 0.8845 0.3166
C11 C -0.3292(5) 0.8547(2) 0.3851(3)
H9 H -0.2801 0.8937 0.3922
C12 C 0.2901(4) 0.89898(18) 0.00175(18)
H10 H 0.2509 0.9333 0.0263
C13 C 0.2983(4) 0.8957(2) -0.0641(2)
H11 H 0.2655 0.9263 -0.0950
C14 C 0.3659(5) 0.8371(2) -0.07644(19)
H12 H 0.3869 0.8216 -0.1188
C15 C 0.5550(4) 0.89110(19) 0.14864(19)
H13 H 0.5056 0.9199 0.1754
C16 C 0.6867(4) 0.8916(2) 0.1411(2)
H14 H 0.7473 0.9205 0.1612
C17 C 0.7137(4) 0.8406(2) 0.0975(2)
H15 H 0.7986 0.8291 0.0832
C18 C 0.4115(4) 0.71579(18) 0.14518(17)
H16 H 0.4897 0.7248 0.1681
C19 C 0.3407(5) 0.6597(2) 0.1486(2)
H17 H 0.3595 0.6212 0.1731
C20 C 0.2341(4) 0.6709(2) 0.1081(2)
H18 H 0.1670 0.6396 0.1006
C21 C -0.2790(4) 0.65989(18) 0.35887(18)
H19 H -0.1942 0.6783 0.3727
H20 H -0.2744 0.6112 0.3610
C22 C -0.2077(4) 0.6665(2) 0.24960(19)
H21 H -0.2449 0.6645 0.2052
H22 H -0.1701 0.6227 0.2597
C23 C -0.1016(4) 0.71756(18) 0.25126(16)
C24 C -0.1313(4) 0.7833(2) 0.2409(2)
H23 H -0.2194 0.7963 0.2357
C25 C -0.0328(4) 0.8305(2) 0.2381(2)
H24 H -0.0546 0.8754 0.2304
C26 C 0.0954(4) 0.81309(18) 0.24636(16)
C27 C 0.1244(4) 0.74685(19) 0.25680(19)
H25 H 0.2125 0.7338 0.2622
C28 C 0.0280(4) 0.6999(2) 0.25946(19)
H26 H 0.0502 0.6551 0.2670
C29 C 0.2010(4) 0.8644(2) 0.24536(19)
H27 H 0.1636 0.9070 0.2313
H28 H 0.2356 0.8701 0.2899
C30 C 0.2798(4) 0.86645(18) 0.13813(17)
H29 H 0.2944 0.9144 0.1332
H30 H 0.1884 0.8565 0.1267
C31 C 0.4617(4) 0.5858(2) 0.0192(2)
C32 C 0.4232(7) 0.5223(3) 0.0458(3)
H31 H 0.4476 0.5202 0.0918
H32 H 0.4672 0.4870 0.0219
H33 H 0.3288 0.5171 0.0416
N1 N -0.6250(3) 0.67289(17) 0.41591(17)
N2 N -0.5126(3) 0.65548(15) 0.38511(15)
N3 N -0.4243(3) 0.70477(15) 0.51913(14)
N4 N -0.3554(3) 0.67398(15) 0.47075(13)
N5 N -0.3055(4) 0.79772(17) 0.41387(18)
N6 N -0.4022(3) 0.75674(14) 0.39303(14)
N7 N 0.3967(3) 0.80607(16) -0.02222(15)
N8 N 0.3478(3) 0.84455(14) 0.02595(13)
N9 N 0.6061(3) 0.81025(17) 0.07881(16)
N10 N 0.5071(3) 0.84163(15) 0.11065(15)
N11 N 0.2371(3) 0.73033(16) 0.08138(15)
N12 N 0.3505(3) 0.75683(14) 0.10312(14)
N13 N 0.4944(3) 0.63599(18) 0.00007(19)
O1 O -0.3102(3) 0.68079(13) 0.29559(12)
O2 O 0.3062(3) 0.84665(13) 0.20213(12)
N5C N -0.8055(4) 0.70228(17) 0.58613(18)
N11C N 0.7371(3) 0.76967(16) -0.08138(15)
Ag1C Ag -0.14504(4) 0.78341(2) 0.48293(2)
Ag2C Ag 0.08185(3) 0.765139(15) 0.009103(15)
B1 B 0.5328(6) 0.4719(3) 0.8825(3)
F1 F 0.4365(5) 0.5145(2) 0.8855(2)
F2 F 0.5041(4) 0.4114(2) 0.9050(3)
F3 F 0.6403(3) 0.49040(15) 0.91555(19)
F4 F 0.5578(7) 0.4571(3) 0.8201(3)
B2 B 0.5909(6) 0.5112(2) 0.2075(3)
F5 F 0.5916(3) 0.57593(11) 0.18880(12)
F6 F 0.4658(4) 0.49261(16) 0.2174(2)
F7 F 0.6503(4) 0.47268(14) 0.16118(15)
F8 F 0.6562(4) 0.50632(17) 0.26760(16)
C33 C 0.9713(7) 0.9693(3) 0.4593(3)
H34 H 1.0644 0.9785 0.4511
H35 H 0.9596 0.9210 0.4629
C34 C 0.9282(7) 1.0023(3) 0.5207(3)
H36 H 0.9373 1.0502 0.5160
H37 H 0.9821 0.9871 0.5570
H38 H 0.8369 0.9914 0.5292
C35 C 0.9494(7) 0.9794(3) 0.3456(3)
H39 H 0.9598 0.9311 0.3410
H40 H 1.0362 1.0002 0.3416
C36 C 0.8604(7) 1.0051(3) 0.2941(3)
H41 H 0.7775 0.9814 0.2961
H42 H 0.9002 0.9986 0.2513
H43 H 0.8452 1.0522 0.3013
O3 O 0.8935(4) 0.99466(18) 0.40674(17)
loop_
_geom_bond_atom_site_label_1
_geom_bond_atom_site_label_2
_geom_bond_site_symmetry_1
_geom_bond_site_symmetry_2
Ag1 N1 1_555 1_555
Ag2 N7 1_555 1_555
C1 C21 1_555 1_555
C2 C30 1_555 1_555
C3 H1 1_555 1_555
C4 C3 1_555 1_555
H2 C4 1_555 1_555
C5 C4 1_555 1_555
H3 C5 1_555 1_555
C6 H4 1_555 1_555
C7 C6 1_555 1_555
H5 C7 1_555 1_555
C8 C7 1_555 1_555
H6 C8 1_555 1_555
C9 H7 1_555 1_555
C10 C9 1_555 1_555
H8 C10 1_555 1_555
C11 C10 1_555 1_555
H9 C11 1_555 1_555
C12 H10 1_555 1_555
C13 C12 1_555 1_555
H11 C13 1_555 1_555
C14 C13 1_555 1_555
H12 C14 1_555 1_555
C15 H13 1_555 1_555
C16 C15 1_555 1_555
H14 C16 1_555 1_555
C17 C16 1_555 1_555
H15 C17 1_555 1_555
C18 H16 1_555 1_555
C19 C18 1_555 1_555
H17 C19 1_555 1_555
C20 C19 1_555 1_555
H18 C20 1_555 1_555
C21 H19 1_555 1_555
H20 C21 1_555 1_555
C22 H21 1_555 1_555
H22 C22 1_555 1_555
C23 C22 1_555 1_555
C24 C23 1_555 1_555
H23 C24 1_555 1_555
C25 C24 1_555 1_555
H24 C25 1_555 1_555
C26 C25 1_555 1_555
C27 C26 1_555 1_555
H25 C27 1_555 1_555
C28 C23 1_555 1_555
H26 C28 1_555 1_555
C29 C26 1_555 1_555
H27 C29 1_555 1_555
H28 C29 1_555 1_555
C30 H29 1_555 1_555
H30 C30 1_555 1_555
C31 C32 1_555 1_555
C32 H31 1_555 1_555
H32 C32 1_555 1_555
H33 C32 1_555 1_555
N1 C5 1_555 1_555
N2 C1 1_555 1_555
N3 Ag1 1_555 1_555
N4 C1 1_555 1_555
N5 C11 1_555 1_555
N6 C1 1_555 1_555
N7 C14 1_555 1_555
N8 C2 1_555 1_555
N9 Ag2 1_555 1_555
N10 C2 1_555 1_555
N11 C20 1_555 1_555
N12 C2 1_555 1_555
N13 Ag2 1_555 1_555
O1 C21 1_555 1_555
O2 C29 1_555 1_555
B1 F1 1_555 1_555
B2 F5 1_555 1_555
F2 B1 1_555 1_555
F3 B1 1_555 1_555
F4 B1 1_555 1_555
F6 B2 1_555 1_555
F7 B2 1_555 1_555
F8 B2 1_555 1_555
C33 H34 1_555 1_555
H35 C33 1_555 1_555
C34 C33 1_555 1_555
H36 C34 1_555 1_555
H37 C34 1_555 1_555
H38 C34 1_555 1_555
C35 H39 1_555 1_555
H40 C35 1_555 1_555
C36 C35 1_555 1_555
H41 C36 1_555 1_555
H42 C36 1_555 1_555
H43 C36 1_555 1_555
O3 C33 1_555 1_555
N5C Ag1 1_555 1_555
N11C Ag2 1_555 1_555
Ag1C N5 1_555 1_555
Ag2C N11 1_555 1_555
C3 N2 1_555 1_555
C6 N4 1_555 1_555
C8 N3 1_555 1_555
C9 N6 1_555 1_555
C12 N8 1_555 1_555
C15 N10 1_555 1_555
C17 N9 1_555 1_555
C18 N12 1_555 1_555
C22 O1 1_555 1_555
C27 C28 1_555 1_555
C30 O2 1_555 1_555
C31 N13 1_555 1_555
N1 N2 1_555 1_555
N3 N4 1_555 1_555
N5 N6 1_555 1_555
N7 N8 1_555 1_555
N9 N10 1_555 1_555
N11 N12 1_555 1_555
C35 O3 1_555 1_555

#END
