
#######################################################################
#
#                 Cambridge Crystallographic Data Centre
#                                CCDC 
#
#######################################################################
#
# If this CIF has been generated from an entry in the Cambridge 
# Structural Database, then it will include bibliographic, chemical, 
# crystal, experimental, refinement or atomic coordinate data resulting 
# from the CCDC's data processing and validation procedures.
#
#######################################################################

data_MIMMEC
_symmetry_cell_setting           monoclinic
_symmetry_space_group_name_H-M   'P 21/c'
_symmetry_Int_Tables_number      14
_space_group_name_Hall           '-P 2ybc'
loop_
_symmetry_equiv_pos_site_id
_symmetry_equiv_pos_as_xyz
1 x,y,z
2 -x,1/2+y,1/2-z
3 -x,-y,-z
4 x,1/2-y,1/2+z
_cell_length_a                   10.1385(7)
_cell_length_b                   22.9613(15)
_cell_length_c                   14.0020(7)
_cell_angle_alpha                90
_cell_angle_beta                 131.420(3)
_cell_angle_gamma                90
_cell_volume                     2444.29
loop_
_atom_site_label
_atom_site_type_symbol
_atom_site_fract_x
_atom_site_fract_y
_atom_site_fract_z
Co1 Co 0.89857(5) -0.243049(15) -0.24362(3)
O1 O 1.1142(3) -0.22957(8) -0.35075(19)
O2 O 1.0051(3) -0.29262(8) -0.29696(19)
O3 O 0.6903(3) -0.24002(8) -0.6322(2)
O4 O 0.7993(2) -0.30544(8) -0.68196(18)
O5 O 1.0952(2) -0.28403(8) -0.05809(18)
H1 H 1.0835 -0.3195 -0.0658
O6 O 1.0595(3) -0.17104(8) -0.21017(18)
H2 H 1.0983 -0.1772 -0.2453
O7 O 0.6999(3) -0.20914(9) -0.43460(18)
H3 H 0.6030 -0.2214 -0.4650
O8 O 0.7281(3) -0.31238(8) -0.28532(19)
H4 H 0.6931 -0.3071 -0.2473
C1 C 1.3401(4) -0.37694(13) -0.3790(3)
H5 H 1.4512 -0.3770 -0.3537
C2 C 1.2275(4) -0.42270(12) -0.4476(3)
H6 H 1.2615 -0.4537 -0.4698
C3 C 1.0626(4) -0.42270(12) -0.4840(3)
H7 H 0.9868 -0.4538 -0.5312
C4 C 1.0081(3) -0.37735(11) -0.4514(2)
C5 C 1.1241(3) -0.33060(11) -0.3818(2)
C6 C 1.2877(4) -0.33065(12) -0.3478(3)
H8 H 1.3629 -0.2991 -0.3034
C7 C 0.8283(3) -0.37979(11) -0.4954(2)
C8 C 0.7865(4) -0.42390(12) -0.4513(3)
H9 H 0.8714 -0.4514 -0.3946
C9 C 0.6196(4) -0.42763(13) -0.4906(3)
H10 H 0.5946 -0.4572 -0.4593
C10 C 0.4921(4) -0.38795(13) -0.5753(3)
H11 H 0.3803 -0.3909 -0.6023
C11 C 0.5307(4) -0.34334(12) -0.6204(3)
H12 H 0.4449 -0.3160 -0.6769
C12 C 0.6982(3) -0.33933(11) -0.5812(2)
C13 C 1.0771(3) -0.28034(11) -0.3402(2)
C14 C 0.7327(3) -0.29088(11) -0.6351(2)
Co1C Co 0.89857(5) -0.256951(15) -0.74362(3)
O4C O 0.7993(2) -0.19456(8) -0.18196(18)
O9 O 1.0812(3) -0.09802(9) 0.4386(2)
O10 O 0.0505(3) 0.05136(9) 0.2693(2)
N1 N 0.9438(3) -0.07797(10) 0.4192(2)
N2 N 0.1960(3) 0.03182(10) 0.2997(2)
C15 C 0.8673(4) -0.02741(13) 0.3537(3)
H13 H 0.9118 -0.0075 0.3225
C16 C 0.7246(4) -0.00560(13) 0.3336(3)
H14 H 0.6744 0.0291 0.2889
C17 C 0.6528(4) -0.03387(12) 0.3779(2)
C18 C 0.7363(4) -0.08552(12) 0.4456(3)
H15 H 0.6950 -0.1059 0.4785
C19 C 0.8773(4) -0.10636(13) 0.4638(3)
H16 H 0.9291 -0.1411 0.5081
C20 C 0.4976(4) -0.01111(12) 0.3542(3)
C21 C 0.4474(4) 0.04744(12) 0.3236(3)
H17 H 0.5160 0.0730 0.3210
C22 C 0.3004(4) 0.06768(13) 0.2977(3)
H18 H 0.2710 0.1069 0.2781
C23 C 0.2426(4) -0.02492(13) 0.3324(3)
H19 H 0.1738 -0.0496 0.3366
C24 C 0.3908(4) -0.04605(12) 0.3594(3)
H20 H 0.4205 -0.0850 0.3818
O11 O 0.3894(3) -0.25714(14) -0.5127(3)
H21 H 0.3119 -0.2368 -0.5215
H22 H 0.4741 -0.2351 -0.4883
loop_
_geom_bond_atom_site_label_1
_geom_bond_atom_site_label_2
_geom_bond_site_symmetry_1
_geom_bond_site_symmetry_2
Co1 O2 1_555 1_555
O1 C13 1_555 1_555
O2 C13 1_555 1_555
O3 C14 1_555 1_555
O4 C14 1_555 1_555
O5 Co1 1_555 1_555
H1 O5 1_555 1_555
O6 Co1 1_555 1_555
H2 O6 1_555 1_555
O7 Co1 1_555 1_555
H3 O7 1_555 1_555
O8 Co1 1_555 1_555
H4 O8 1_555 1_555
C1 H5 1_555 1_555
C2 C1 1_555 1_555
H6 C2 1_555 1_555
C3 C2 1_555 1_555
H7 C3 1_555 1_555
C4 C3 1_555 1_555
C5 C4 1_555 1_555
C6 C1 1_555 1_555
H8 C6 1_555 1_555
C7 C4 1_555 1_555
C8 C7 1_555 1_555
H9 C8 1_555 1_555
C9 C8 1_555 1_555
H10 C9 1_555 1_555
C10 C9 1_555 1_555
H11 C10 1_555 1_555
C11 C10 1_555 1_555
H12 C11 1_555 1_555
C12 C7 1_555 1_555
C13 C5 1_555 1_555
C14 C12 1_555 1_555
O9 N1 1_555 1_555
O10 N2 1_555 1_555
N1 C15 1_555 1_555
N2 C22 1_555 1_555
C15 H13 1_555 1_555
C16 C15 1_555 1_555
H14 C16 1_555 1_555
C17 C16 1_555 1_555
C18 C17 1_555 1_555
H15 C18 1_555 1_555
C19 N1 1_555 1_555
H16 C19 1_555 1_555
C20 C17 1_555 1_555
C21 C20 1_555 1_555
H17 C21 1_555 1_555
C22 C21 1_555 1_555
H18 C22 1_555 1_555
C23 N2 1_555 1_555
H19 C23 1_555 1_555
C24 C20 1_555 1_555
H20 C24 1_555 1_555
O11 H21 1_555 1_555
H22 O11 1_555 1_555
Co1C O4 1_555 1_555
O4C Co1 1_555 1_555
C5 C6 1_555 1_555
C11 C12 1_555 1_555
C18 C19 1_555 1_555
C23 C24 1_555 1_555

#END
