
#######################################################################
#
#                 Cambridge Crystallographic Data Centre
#                                CCDC 
#
#######################################################################
#
# If this CIF has been generated from an entry in the Cambridge 
# Structural Database, then it will include bibliographic, chemical, 
# crystal, experimental, refinement or atomic coordinate data resulting 
# from the CCDC's data processing and validation procedures.
#
#######################################################################

data_MIMOXZ
_symmetry_cell_setting           monoclinic
_symmetry_space_group_name_H-M   'P 21/c'
_symmetry_Int_Tables_number      14
_space_group_name_Hall           '-P 2ybc'
loop_
_symmetry_equiv_pos_site_id
_symmetry_equiv_pos_as_xyz
1 x,y,z
2 -x,1/2+y,1/2-z
3 -x,-y,-z
4 x,1/2-y,1/2+z
_cell_length_a                   13.767(5)
_cell_length_b                   11.959(5)
_cell_length_c                   16.993(6)
_cell_angle_alpha                90
_cell_angle_beta                 103.34(4)
_cell_angle_gamma                90
_cell_volume                     2722.23
loop_
_atom_site_label
_atom_site_type_symbol
_atom_site_fract_x
_atom_site_fract_y
_atom_site_fract_z
Zn1 Zn -0.02613 0.19786 0.08369
Zn2 Zn -0.41695 0.31517 -0.06285
C1 C -0.20480 0.31640 0.00940
C2 C -0.24360 0.20090 0.02900
O1 O -0.33500 0.18230 0.00390
O2 O -0.18090 0.13500 0.06910
O3 O -0.11400 0.33370 0.03200
O4 O -0.26920 0.38430 -0.02670
C3 C 0.02010 -0.02900 0.04080
O5 O 0.02700 0.02750 0.10280
O6 O 0.04280 -0.13040 0.03780
C4 C -0.49030 0.47290 0.04230
O7 O -0.44440 0.38200 0.05140
O8 O -0.52070 0.52480 0.09610
N1 N 0.10720 0.27400 0.07520
N2 N 0.21730 0.39930 0.06230
C5 C 0.13000 0.38250 0.08070
C6 C 0.18530 0.22280 0.05190
C7 C 0.25400 0.29880 0.04390
C8 C 0.07300 0.47480 0.10820
H1 H 0.24500 0.45600 0.06400
H2 H 0.18500 0.14200 0.04400
H3 H 0.31600 0.29500 0.02600
N3 N -0.00510 0.21180 0.20780
N4 N -0.00580 0.24830 0.33230
C9 C -0.05290 0.26590 0.25550
C10 C 0.07400 0.16020 0.25800
C11 C 0.07440 0.18210 0.33490
C12 C -0.14490 0.33710 0.22940
H4 H -0.02000 0.27600 0.36500
H5 H 0.11600 0.11500 0.23500
H6 H 0.11600 0.15300 0.38200
N5 N -0.54740 0.22410 -0.07830
N6 N -0.68920 0.14160 -0.12360
C13 C -0.62720 0.22510 -0.13660
C14 C -0.55730 0.13730 -0.02740
C15 C -0.64450 0.08810 -0.05620
C16 C -0.64990 0.30430 -0.20680
H7 H -0.72900 0.13600 -0.16200
H8 H -0.53200 0.11500 0.02800
H9 H -0.67900 0.02300 -0.03800
N7 N -0.39160 0.29210 -0.17780
N8 N -0.40160 0.23320 -0.30130
C17 C -0.40780 0.20380 -0.22660
C18 C -0.37210 0.37750 -0.22470
C19 C -0.37760 0.34430 -0.29970
C20 C -0.42680 0.08610 -0.20280
H10 H -0.42400 0.18900 -0.34800
H11 H -0.35700 0.44800 -0.20700
H12 H -0.37100 0.37700 -0.34400
C3B C -0.02010 0.02900 -0.04080
O5B O -0.02700 -0.02750 -0.10280
O6B O -0.04280 0.13040 -0.03780
C4B C -0.50970 0.52710 -0.04230
O7B O -0.55560 0.61800 -0.05140
O8B O -0.47930 0.47520 -0.09610
Zn1B Zn -0.97387 0.80214 -0.08369
Zn2B Zn -0.58305 0.68483 0.06285
C1B C -0.79520 0.68360 -0.00940
C2B C -0.75640 0.79910 -0.02900
O1B O -0.66500 0.81770 -0.00390
O2B O -0.81910 0.86500 -0.06910
O3B O -0.88600 0.66630 -0.03200
O4B O -0.73080 0.61570 0.02670
N1B N -1.10720 0.72600 -0.07520
N2B N -1.21730 0.60070 -0.06230
C5B C -1.13000 0.61750 -0.08070
C6B C -1.18530 0.77720 -0.05190
C7B C -1.25400 0.70120 -0.04390
C8B C -1.07300 0.52520 -0.10820
H1B H -1.24500 0.54400 -0.06400
H2B H -1.18500 0.85800 -0.04400
H3B H -1.31600 0.70500 -0.02600
N3B N -0.99490 0.78820 -0.20780
N4B N -0.99420 0.75170 -0.33230
C9B C -0.94710 0.73410 -0.25550
C10B C -1.07400 0.83980 -0.25800
C11B C -1.07440 0.81790 -0.33490
C12B C -0.85510 0.66290 -0.22940
H4B H -0.98000 0.72400 -0.36500
H5B H -1.11600 0.88500 -0.23500
H6B H -1.11600 0.84700 -0.38200
N5B N -0.45260 0.77590 0.07830
N6B N -0.31080 0.85840 0.12360
C13B C -0.37280 0.77490 0.13660
C14B C -0.44270 0.86270 0.02740
C15B C -0.35550 0.91190 0.05620
C16B C -0.35010 0.69570 0.20680
H7B H -0.27100 0.86400 0.16200
H8B H -0.46800 0.88500 -0.02800
H9B H -0.32100 0.97700 0.03800
N7B N -0.60840 0.70790 0.17780
N8B N -0.59840 0.76680 0.30130
C17B C -0.59220 0.79620 0.22660
C18B C -0.62790 0.62250 0.22470
C19B C -0.62240 0.65570 0.29970
C20B C -0.57320 0.91390 0.20280
H10B H -0.57600 0.81100 0.34800
H11B H -0.64300 0.55200 0.20700
H12B H -0.62900 0.62300 0.34400
Zn1B_2 Zn 0.02613 -0.19786 -0.08369
O5B_2 O -1.02700 0.97250 -0.10280
O6_2 O -0.95720 0.86960 0.03780
O9 O 0.13680 0.02850 -0.18870
loop_
_geom_bond_atom_site_label_1
_geom_bond_atom_site_label_2
_geom_bond_site_symmetry_1
_geom_bond_site_symmetry_2
Zn1 O2 1_555 1_555
Zn2 O1 1_555 1_555
C1 C2 1_555 1_555
C2 O1 1_555 1_555
O2 C2 1_555 1_555
O3 Zn1 1_555 1_555
O4 Zn2 1_555 1_555
C3 O5 1_555 1_555
O5 Zn1 1_555 1_555
O6 C3 1_555 1_555
C4 O7 1_555 1_555
O7 Zn2 1_555 1_555
O8 C4 1_555 1_555
N1 Zn1 1_555 1_555
N2 C5 1_555 1_555
C5 N1 1_555 1_555
C6 N1 1_555 1_555
C7 N2 1_555 1_555
C8 C5 1_555 1_555
H1 N2 1_555 1_555
H2 C6 1_555 1_555
H3 C7 1_555 1_555
N3 Zn1 1_555 1_555
N4 C9 1_555 1_555
C9 N3 1_555 1_555
C10 N3 1_555 1_555
C11 N4 1_555 1_555
C12 C9 1_555 1_555
H4 N4 1_555 1_555
H5 C10 1_555 1_555
H6 C11 1_555 1_555
N5 Zn2 1_555 1_555
N6 C13 1_555 1_555
C13 N5 1_555 1_555
C14 N5 1_555 1_555
C15 N6 1_555 1_555
C16 C13 1_555 1_555
H7 N6 1_555 1_555
H8 C14 1_555 1_555
H9 C15 1_555 1_555
N7 Zn2 1_555 1_555
N8 C17 1_555 1_555
C17 N7 1_555 1_555
C18 N7 1_555 1_555
C19 N8 1_555 1_555
C20 C17 1_555 1_555
H10 N8 1_555 1_555
H11 C18 1_555 1_555
H12 C19 1_555 1_555
C3B C3 1_555 1_555
O5B C3B 1_555 1_555
O6B Zn1 1_555 1_555
C4B C4 1_555 1_555
O7B C4B 1_555 1_555
O8B Zn2 1_555 1_555
Zn1B O2B 1_555 1_555
Zn2B O8 1_555 1_555
C1B C2B 1_555 1_555
C2B O1B 1_555 1_555
O1B Zn2B 1_555 1_555
O2B C2B 1_555 1_555
O3B Zn1B 1_555 1_555
O4B Zn2B 1_555 1_555
N1B Zn1B 1_555 1_555
N2B C5B 1_555 1_555
C5B N1B 1_555 1_555
C6B N1B 1_555 1_555
C7B N2B 1_555 1_555
C8B C5B 1_555 1_555
H1B N2B 1_555 1_555
H2B C6B 1_555 1_555
H3B C7B 1_555 1_555
N3B Zn1B 1_555 1_555
N4B C9B 1_555 1_555
C9B N3B 1_555 1_555
C10B N3B 1_555 1_555
C11B N4B 1_555 1_555
C12B C9B 1_555 1_555
H4B N4B 1_555 1_555
H5B C10B 1_555 1_555
H6B C11B 1_555 1_555
N5B Zn2B 1_555 1_555
N6B C13B 1_555 1_555
C13B N5B 1_555 1_555
C14B N5B 1_555 1_555
C15B N6B 1_555 1_555
C16B C13B 1_555 1_555
H7B N6B 1_555 1_555
H8B C14B 1_555 1_555
H9B C15B 1_555 1_555
N7B Zn2B 1_555 1_555
N8B C17B 1_555 1_555
C17B N7B 1_555 1_555
C18B N7B 1_555 1_555
C19B N8B 1_555 1_555
C20B C17B 1_555 1_555
H10B N8B 1_555 1_555
H11B C18B 1_555 1_555
H12B C19B 1_555 1_555
Zn1B_2 O6 1_555 1_555
O5B_2 Zn1B 1_555 1_555
O6_2 Zn1B 1_555 1_555
C1 O3 1_555 1_555
C1 O4 1_555 1_555
C6 C7 1_555 1_555
C10 C11 1_555 1_555
C14 C15 1_555 1_555
C18 C19 1_555 1_555
C3B O6B 1_555 1_555
O5B Zn1B_2 1_555 1_555
C4B O8B 1_555 1_555
O7B Zn2B 1_555 1_555
C1B O3B 1_555 1_555
C1B O4B 1_555 1_555
C6B C7B 1_555 1_555
C10B C11B 1_555 1_555
C14B C15B 1_555 1_555
C18B C19B 1_555 1_555

#END
