
#######################################################################
#
#                 Cambridge Crystallographic Data Centre
#                                CCDC 
#
#######################################################################
#
# If this CIF has been generated from an entry in the Cambridge 
# Structural Database, then it will include bibliographic, chemical, 
# crystal, experimental, refinement or atomic coordinate data resulting 
# from the CCDC's data processing and validation procedures.
#
#######################################################################

data_MIMPEE
_symmetry_cell_setting           trigonal
_symmetry_space_group_name_H-M   'P 31 2 1'
_symmetry_Int_Tables_number      152
_space_group_name_Hall           'P 31 2"'
loop_
_symmetry_equiv_pos_site_id
_symmetry_equiv_pos_as_xyz
1 x,y,z
2 -y,x-y,1/3+z
3 -x+y,-x,2/3+z
4 y,x,-z
5 x-y,-y,2/3-z
6 -x,-x+y,1/3-z
_cell_length_a                   9.72760(10)
_cell_length_b                   9.72760(10)
_cell_length_c                   25.7448(5)
_cell_angle_alpha                90
_cell_angle_beta                 90
_cell_angle_gamma                120
_cell_volume                     2109.75
loop_
_atom_site_label
_atom_site_type_symbol
_atom_site_fract_x
_atom_site_fract_y
_atom_site_fract_z
Br1 Br 0.34169(4) 0.75386(4) 0.074607(10)
Br2 Br 0.72296(4) 0.78476(4) 0.144697(10)
C1 C 0.2963(4) 0.2927(4) 0.08254(9)
C2 C 0.5411(4) 0.4304(4) 0.05942(11)
C3 C 0.4837(4) 0.2908(4) 0.03469(10)
C4 C 0.1464(4) -0.3031(4) -0.10699(10)
C5 C 0.3866(4) -0.1029(4) -0.08971(10)
C6 C 0.3910(4) -0.1803(4) -0.13306(10)
C7 C 0.1700(4) -0.1419(4) -0.02861(9)
C8 C 0.0246(4) -0.2474(4) -0.00773(10)
C9 C -0.0196(4) -0.1982(5) 0.03665(12)
C10 C 0.0784(4) -0.0512(4) 0.05760(10)
C11 C 0.2188(4) 0.0463(4) 0.03211(9)
H1 H 0.1972 0.2597 0.0962
H2 H 0.6575 0.5353 0.0583
H3 H 0.5186 0.2321 0.0115
H4 H 0.0401 -0.3818 -0.1036
H5 H 0.4710 -0.0140 -0.0716
H6 H 0.4818 -0.1603 -0.1549
H7 H -0.0446 -0.3376 -0.0258
H8 H -0.1231 -0.2610 0.0491
H9 H 0.0540 -0.0001 0.0805
N1 N 0.3269(3) 0.2021(3) 0.04961(8)
N2 N 0.4235(3) 0.4327(3) 0.08930(8)
N3 N 0.2412(3) -0.3051(3) -0.14355(8)
N4 N 0.2308(3) -0.1816(3) -0.07340(8)
N5 N 0.2665(3) 0.0031(3) -0.01057(8)
Zn1 Zn 0.44715(4) 0.62575(4) 0.126932(11)
N3A N 0.3051(3) 0.5463(4) 0.18978(8)
Zn1B Zn 0.17860(6) -0.44715(4) -0.206401(11)
O1 O -0.1506(15) -0.1506(15) 0.5000
loop_
_geom_bond_atom_site_label_1
_geom_bond_atom_site_label_2
_geom_bond_site_symmetry_1
_geom_bond_site_symmetry_2
Br1 Zn1 1_555 1_555
Br2 Zn1 1_555 1_555
C1 H1 1_555 1_555
C2 C3 1_555 1_555
C3 H3 1_555 1_555
C4 H4 1_555 1_555
C5 C6 1_555 1_555
C6 H6 1_555 1_555
C7 C8 1_555 1_555
C8 C9 1_555 1_555
C9 C10 1_555 1_555
C10 C11 1_555 1_555
C11 N1 1_555 1_555
H2 C2 1_555 1_555
H5 C5 1_555 1_555
H7 C8 1_555 1_555
H8 C9 1_555 1_555
H9 C10 1_555 1_555
N1 C1 1_555 1_555
N2 C1 1_555 1_555
N3 C4 1_555 1_555
N4 C4 1_555 1_555
N5 C7 1_555 1_555
Zn1 N2 1_555 1_555
N3A Zn1 1_555 1_555
Zn1B N3 1_555 1_555
C2 N2 1_555 1_555
C3 N1 1_555 1_555
C5 N4 1_555 1_555
C6 N3 1_555 1_555
C7 N4 1_555 1_555
C11 N5 1_555 1_555

#END
