
#######################################################################
#
#                 Cambridge Crystallographic Data Centre
#                                CCDC 
#
#######################################################################
#
# If this CIF has been generated from an entry in the Cambridge 
# Structural Database, then it will include bibliographic, chemical, 
# crystal, experimental, refinement or atomic coordinate data resulting 
# from the CCDC's data processing and validation procedures.
#
#######################################################################

data_MIMREF02
_symmetry_cell_setting           orthorhombic
_symmetry_space_group_name_H-M   'P 21 21 21'
_symmetry_Int_Tables_number      19
_space_group_name_Hall           'P 2ac 2ab'
loop_
_symmetry_equiv_pos_site_id
_symmetry_equiv_pos_as_xyz
1 x,y,z
2 1/2-x,-y,1/2+z
3 -x,1/2+y,1/2-z
4 1/2+x,1/2-y,-z
_cell_length_a                   7.300(3)
_cell_length_b                   9.289(4)
_cell_length_c                   14.075(6)
_cell_angle_alpha                90
_cell_angle_beta                 90
_cell_angle_gamma                90
_cell_volume                     954.422
loop_
_atom_site_label
_atom_site_type_symbol
_atom_site_fract_x
_atom_site_fract_y
_atom_site_fract_z
Ni1 Ni 0.10109(3) 0.10505(2) 0.733571(17)
N1 N 0.3446(2) 0.14004(16) 0.65974(11)
O1 O 0.1639(2) 0.24383(15) 0.84051(10)
O2 O 0.7517(2) 0.44847(14) 0.68970(11)
O3 O 0.07148(17) -0.03854(13) 0.62546(10)
O4 O 0.96479(18) 0.27933(13) 0.66823(10)
O5 O 0.2291(2) -0.16168(16) 0.51800(11)
O7 O -0.1360(2) 0.02730(17) 0.78954(12)
C1 C 0.3748(3) 0.03644(19) 0.59404(13)
C2 C 0.5412(3) 0.0208(2) 0.54777(15)
H1 H 0.5575 -0.0504 0.5021
C3 C 0.6831(3) 0.1138(2) 0.57110(14)
H2 H 0.7975 0.1040 0.5428
C4 C 0.6516(3) 0.2218(2) 0.63742(14)
C5 C 0.4796(3) 0.23142(19) 0.67945(14)
H3 H 0.4582 0.3047 0.7231
C6 C 0.2142(2) -0.06370(19) 0.57658(13)
C7 C 0.8014(2) 0.32316(19) 0.66746(13)
H4 H -0.120(4) -0.058(3) 0.8153(18)
H5 H 0.093(3) 0.317(3) 0.8513(16)
H6 H 0.203(4) 0.201(3) 0.892(2)
H7 H -0.219(4) 0.057(3) 0.8200(19)
Ni1B Ni 0.89891(3) 0.60505(2) 0.766429(17)
Ni1_2 Ni 1.10109(3) 0.10505(2) 0.733571(17)
O2B O 0.2483(2) -0.05153(14) 0.81030(11)
O4_2 O -0.03521(18) 0.27933(13) 0.66823(10)
O6 O -0.4292(3) 0.0855(3) 0.89045(17)
H8 H -0.377(6) 0.152(4) 0.916(3)
H9 H -0.534(5) 0.064(4) 0.875(3)
loop_
_geom_bond_atom_site_label_1
_geom_bond_atom_site_label_2
_geom_bond_site_symmetry_1
_geom_bond_site_symmetry_2
Ni1 N1 1_555 1_555
N1 C1 1_555 1_555
O1 Ni1 1_555 1_555
O2 C7 1_555 1_555
O3 Ni1 1_555 1_555
O4 C7 1_555 1_555
O5 C6 1_555 1_555
O6 H8 1_555 1_555
O7 Ni1 1_555 1_555
C1 C2 1_555 1_555
C2 H1 1_555 1_555
C3 C2 1_555 1_555
H2 C3 1_555 1_555
C4 C3 1_555 1_555
C5 N1 1_555 1_555
H3 C5 1_555 1_555
C6 O3 1_555 1_555
C7 C4 1_555 1_555
H4 O7 1_555 1_555
H5 O1 1_555 1_555
H6 O1 1_555 1_555
H7 O7 1_555 1_555
H9 O6 1_555 1_555
Ni1B O2 1_555 1_555
Ni1_2 O4 1_555 1_555
O2B Ni1 1_555 1_555
O4_2 Ni1 1_555 1_555
C1 C6 1_555 1_555
C4 C5 1_555 1_555

#END
