
#######################################################################
#
#                 Cambridge Crystallographic Data Centre
#                                CCDC 
#
#######################################################################
#
# If this CIF has been generated from an entry in the Cambridge 
# Structural Database, then it will include bibliographic, chemical, 
# crystal, experimental, refinement or atomic coordinate data resulting 
# from the CCDC's data processing and validation procedures.
#
#######################################################################

data_MIMREF
_symmetry_cell_setting           orthorhombic
_symmetry_space_group_name_H-M   'P 21 21 21'
_symmetry_Int_Tables_number      19
_space_group_name_Hall           'P 2ac 2ab'
loop_
_symmetry_equiv_pos_site_id
_symmetry_equiv_pos_as_xyz
1 x,y,z
2 1/2-x,-y,1/2+z
3 -x,1/2+y,1/2-z
4 1/2+x,1/2-y,-z
_cell_length_a                   7.2944(7)
_cell_length_b                   9.3054(5)
_cell_length_c                   14.0767(8)
_cell_angle_alpha                90
_cell_angle_beta                 90
_cell_angle_gamma                90
_cell_volume                     955.489
loop_
_atom_site_label
_atom_site_type_symbol
_atom_site_fract_x
_atom_site_fract_y
_atom_site_fract_z
Ni1 Ni 0.10094(5) 0.60535(4) 0.76634(3)
O1 O -0.1360(3) 0.5275(3) 0.71044(19)
H1 H -0.115(8) 0.454(7) 0.679(4)
H2 H -0.208(8) 0.555(6) 0.683(4)
O2 O 0.1628(4) 0.7437(3) 0.65911(17)
H3 H 0.098(8) 0.812(6) 0.647(4)
H4 H 0.207(8) 0.715(6) 0.612(4)
O3 O 0.2485(3) 0.4488(2) 0.68972(18)
O4 O 0.0354(3) 0.2798(2) 0.66824(16)
O5 O 0.9285(3) -0.0375(2) 0.62517(16)
O6 O 0.7711(3) -0.1612(3) 0.51771(17)
N1 N 0.6559(4) 0.1401(3) 0.65987(18)
C1 C 0.6252(4) 0.0369(3) 0.5943(2)
C2 C 0.4591(5) 0.0214(4) 0.5483(2)
H5 H 0.4424 -0.0499 0.5029
C3 C 0.3174(4) 0.1148(4) 0.5715(2)
H6 H 0.2030 0.1050 0.5430
C4 C 0.3480(4) 0.2222(4) 0.6373(2)
C5 C 0.5204(4) 0.2319(3) 0.6797(2)
H7 H 0.5419 0.3050 0.7234
C6 C 0.7860(4) -0.0628(3) 0.5766(2)
C7 C 0.1988(4) 0.3231(3) 0.6677(2)
O4B O -0.0354(3) 0.7798(2) 0.83176(16)
O5B O 0.0715(3) 0.4625(2) 0.87483(16)
N1B N 0.3441(4) 0.6401(3) 0.84013(18)
Ni1B Ni -0.10094(5) 0.10535(4) 0.73366(3)
Ni1B_2 Ni 0.89906(5) 0.10535(4) 0.73366(3)
O7 O -0.4295(5) 0.5849(4) 0.6102(3)
H8 H -0.353(9) 0.625(7) 0.581(5)
H9 H -0.482(8) 0.638(7) 0.584(5)
loop_
_geom_bond_atom_site_label_1
_geom_bond_atom_site_label_2
_geom_bond_site_symmetry_1
_geom_bond_site_symmetry_2
Ni1 O1 1_555 1_555
O1 H1 1_555 1_555
H2 O1 1_555 1_555
O2 Ni1 1_555 1_555
H3 O2 1_555 1_555
H4 O2 1_555 1_555
O3 Ni1 1_555 1_555
O4 C7 1_555 1_555
O5 C6 1_555 1_555
O6 C6 1_555 1_555
N1 C1 1_555 1_555
C1 C2 1_555 1_555
C2 H5 1_555 1_555
C3 C2 1_555 1_555
H6 C3 1_555 1_555
C4 C3 1_555 1_555
C5 N1 1_555 1_555
H7 C5 1_555 1_555
C6 C1 1_555 1_555
C7 O3 1_555 1_555
O7 H8 1_555 1_555
H9 O7 1_555 1_555
O4B Ni1 1_555 1_555
O5B Ni1 1_555 1_555
N1B Ni1 1_555 1_555
Ni1B O4 1_555 1_555
Ni1B_2 O5 1_555 1_555
N1 Ni1B_2 1_555 1_555
C4 C7 1_555 1_555
C4 C5 1_555 1_555

#END
