
#######################################################################
#
#                 Cambridge Crystallographic Data Centre
#                                CCDC 
#
#######################################################################
#
# If this CIF has been generated from an entry in the Cambridge 
# Structural Database, then it will include bibliographic, chemical, 
# crystal, experimental, refinement or atomic coordinate data resulting 
# from the CCDC's data processing and validation procedures.
#
#######################################################################

data_MIMRAB
_symmetry_cell_setting           monoclinic
_symmetry_space_group_name_H-M   'C 2/c'
_symmetry_Int_Tables_number      15
_space_group_name_Hall           '-C 2yn'
loop_
_symmetry_equiv_pos_site_id
_symmetry_equiv_pos_as_xyz
1 x,y,z
2 1/2+x,1/2+y,z
3 x,-y,1/2+z
4 1/2+x,1/2-y,1/2+z
5 -x,-y,-z
6 1/2-x,1/2-y,-z
7 -x,y,1/2-z
8 1/2-x,1/2+y,1/2-z
_cell_length_a                   22.6936(17)
_cell_length_b                   6.3333(5)
_cell_length_c                   7.3027(7)
_cell_angle_alpha                90
_cell_angle_beta                 91.748(6)
_cell_angle_gamma                90
_cell_volume                     1049.09
loop_
_atom_site_label
_atom_site_type_symbol
_atom_site_fract_x
_atom_site_fract_y
_atom_site_fract_z
Zn1 Zn 0.5000 0.18160(5) 0.7500
O1 O 0.46443(6) 0.2011(2) 1.0247(2)
O2 O 0.42382(6) -0.0732(3) 1.1620(2)
O3 O 0.5000 0.4934(4) 0.7500
H1 H 0.4898(16) 0.564(5) 0.662(4)
C1 C 0.41999(9) 0.0981(3) 1.0753(3)
C2 C 0.35957(9) 0.1841(3) 1.0353(3)
C3 C 0.31056(9) 0.0690(3) 1.0783(3)
H2 H 0.3141(10) -0.062(4) 1.131(3)
C4 C 0.25319(9) 0.1483(3) 1.0405(3)
H3 H 0.3860(12) 0.465(4) 0.926(3)
C5 C 0.35301(9) 0.3867(4) 0.9540(3)
C6 C 0.20173(9) 0.0320(4) 1.0825(3)
H4 H 0.2057(12) -0.112(4) 1.131(3)
C4E C 0.24681(9) 0.3517(3) 0.9595(3)
C3E C 0.18944(9) 0.4310(3) 0.9217(3)
C2E C 0.14043(9) 0.3159(3) 0.9647(3)
C1E C 0.08001(9) 0.4019(3) 0.9247(3)
O1E O 0.03557(6) 0.2989(2) 0.9753(2)
O2E O 0.07618(6) 0.5732(3) 0.8380(2)
C5E C 0.14699(9) 0.1133(4) 1.0460(3)
H3E H 0.1140(12) 0.035(4) 1.074(3)
H2E H 0.1859(10) 0.562(4) 0.869(3)
C6E C 0.29827(9) 0.4680(4) 0.9175(3)
H4E H 0.2943(12) 0.612(4) 0.869(3)
H1F H 0.5102(16) 0.564(5) 0.838(4)
O1F O 0.53557(6) 0.2011(2) 0.4753(2)
O2B O 0.42382(6) 0.0732(3) 0.6620(2)
O2D O 0.57618(6) 0.0732(3) 0.8380(2)
Zn1B Zn 0.5000 -0.18160(5) 1.2500
Zn1C Zn 0.0000 0.31840(5) 1.2500
Zn1A Zn 0.0000 0.68160(5) 0.7500
loop_
_geom_bond_atom_site_label_1
_geom_bond_atom_site_label_2
_geom_bond_site_symmetry_1
_geom_bond_site_symmetry_2
Zn1 O1 1_555 1_555
O1 C1 1_555 1_555
O2 C1 1_555 1_555
O3 Zn1 1_555 1_555
H1 O3 1_555 1_555
C1 C2 1_555 1_555
C2 C3 1_555 1_555
C3 H2 1_555 1_555
C4 C3 1_555 1_555
H3 C5 1_555 1_555
C5 C2 1_555 1_555
C6 C4 1_555 1_555
H4 C6 1_555 1_555
C4E C4 1_555 1_555
C3E C4E 1_555 1_555
C2E C3E 1_555 1_555
C1E C2E 1_555 1_555
O1E C1E 1_555 1_555
O2E C1E 1_555 1_555
C5E C6 1_555 1_555
H3E C5E 1_555 1_555
H2E C3E 1_555 1_555
C6E C5 1_555 1_555
H4E C6E 1_555 1_555
H1F O3 1_555 1_555
O1F Zn1 1_555 1_555
O2B Zn1 1_555 1_555
O2D Zn1 1_555 1_555
Zn1B O2 1_555 1_555
Zn1C O1E 1_555 1_555
Zn1A O2E 1_555 1_555
C4E C6E 1_555 1_555
C2E C5E 1_555 1_555

#END
