
#######################################################################
#
#                 Cambridge Crystallographic Data Centre
#                                CCDC 
#
#######################################################################
#
# If this CIF has been generated from an entry in the Cambridge 
# Structural Database, then it will include bibliographic, chemical, 
# crystal, experimental, refinement or atomic coordinate data resulting 
# from the CCDC's data processing and validation procedures.
#
#######################################################################

data_MIMVOT
_symmetry_cell_setting           monoclinic
_symmetry_space_group_name_H-M   'C 2/c'
_symmetry_Int_Tables_number      15
_space_group_name_Hall           '-C 2yn'
loop_
_symmetry_equiv_pos_site_id
_symmetry_equiv_pos_as_xyz
1 x,y,z
2 1/2+x,1/2+y,z
3 x,-y,1/2+z
4 1/2+x,1/2-y,1/2+z
5 -x,-y,-z
6 1/2-x,1/2-y,-z
7 -x,y,1/2-z
8 1/2-x,1/2+y,1/2-z
_cell_length_a                   11.922(3)
_cell_length_b                   9.990(2)
_cell_length_c                   20.107(5)
_cell_angle_alpha                90
_cell_angle_beta                 93.708(4)
_cell_angle_gamma                90
_cell_volume                     2389.75
loop_
_atom_site_label
_atom_site_type_symbol
_atom_site_fract_x
_atom_site_fract_y
_atom_site_fract_z
Zn1 Zn 0.0000 -0.09967(6) 0.7500
N1 N 0.0777(2) 0.0391(3) 0.69063(14)
O1 O 0.36497(18) 0.2331(2) 0.77005(12)
O2 O 0.37485(19) 0.3569(2) 0.67985(12)
C1 C 0.3284(3) 0.2664(4) 0.71276(18)
C2 C 0.0370(3) 0.0733(4) 0.62931(18)
H1 H -0.0284 0.0288 0.6111
C3 C 0.0853(3) 0.1698(4) 0.59123(19)
H2 H 0.0539 0.1916 0.5480
C4 C 0.1817(3) 0.2344(4) 0.61812(18)
H3 H 0.2174 0.3008 0.5931
C5 C 0.2245(3) 0.2008(3) 0.68133(17)
C6 C 0.1708(2) 0.1036(4) 0.71573(16)
H4 H 0.2004 0.0807 0.7592
N1F N -0.0777(2) 0.0391(3) 0.80937(14)
O1F O -0.36497(18) 0.2331(2) 0.72995(12)
O2F O -0.37485(19) 0.3569(2) 0.82015(12)
C1F C -0.3284(3) 0.2664(4) 0.78724(18)
C2F C -0.0370(3) 0.0733(4) 0.87069(18)
H1F H 0.0284 0.0288 0.8889
C3F C -0.0853(3) 0.1698(4) 0.90877(19)
H2F H -0.0539 0.1916 0.9520
C4F C -0.1817(3) 0.2344(4) 0.88188(18)
H3F H -0.2174 0.3008 0.9069
C5F C -0.2245(3) 0.2008(3) 0.81867(17)
C6F C -0.1708(2) 0.1036(4) 0.78427(16)
H4F H -0.2004 0.0807 0.7408
O1A O -0.13503(18) -0.2669(2) 0.77005(12)
O1G O 0.13503(18) -0.2669(2) 0.72995(12)
O2A O -0.12515(19) -0.1431(2) 0.67985(12)
O2G O 0.12515(19) -0.1431(2) 0.82015(12)
Zn1A Zn 0.5000 0.40033(6) 0.7500
Zn1A_2 Zn -0.5000 0.40033(6) 0.7500
N2 N 0.7849(3) 0.9119(4) 0.98508(18)
O3 O 0.8547(2) 0.8277(3) 0.97204(14)
O4 O 0.7889(3) 0.9746(4) 1.03747(17)
C7 C 0.6912(3) 0.9381(4) 0.93545(18)
C8 C 0.6856(3) 0.8679(4) 0.87686(19)
H5 H 0.7391 0.8005 0.8685
C9 C 0.5986(3) 0.8992(4) 0.83010(19)
H6 H 0.5924 0.8525 0.7889
C10 C 0.5214(3) 0.9966(4) 0.8427(2)
H7 H 0.4628 1.0173 0.8100
C11 C 0.5286(3) 1.0642(4) 0.9021(2)
H8 H 0.4745 1.1310 0.9106
C12 C 0.6140(3) 1.0357(4) 0.9498(2)
H9 H 0.6195 1.0818 0.9912
loop_
_geom_bond_atom_site_label_1
_geom_bond_atom_site_label_2
_geom_bond_site_symmetry_1
_geom_bond_site_symmetry_2
Zn1 N1 1_555 1_555
N1 C2 1_555 1_555
O1 C1 1_555 1_555
O2 C1 1_555 1_555
C1 C5 1_555 1_555
C2 H1 1_555 1_555
C3 C2 1_555 1_555
H2 C3 1_555 1_555
C4 C3 1_555 1_555
H3 C4 1_555 1_555
C5 C4 1_555 1_555
C6 N1 1_555 1_555
H4 C6 1_555 1_555
N2 O3 1_555 1_555
O4 N2 1_555 1_555
C7 N2 1_555 1_555
C8 C7 1_555 1_555
H5 C8 1_555 1_555
C9 C8 1_555 1_555
H6 C9 1_555 1_555
C10 C9 1_555 1_555
H7 C10 1_555 1_555
C11 C10 1_555 1_555
H8 C11 1_555 1_555
C12 C7 1_555 1_555
H9 C12 1_555 1_555
N1F Zn1 1_555 1_555
O1F C1F 1_555 1_555
O2F C1F 1_555 1_555
C1F C5F 1_555 1_555
C2F N1F 1_555 1_555
H1F C2F 1_555 1_555
C3F C2F 1_555 1_555
H2F C3F 1_555 1_555
C4F C3F 1_555 1_555
H3F C4F 1_555 1_555
C5F C4F 1_555 1_555
C6F N1F 1_555 1_555
H4F C6F 1_555 1_555
O1A Zn1 1_555 1_555
O1G Zn1 1_555 1_555
O2A Zn1 1_555 1_555
O2G Zn1 1_555 1_555
Zn1A O1 1_555 1_555
Zn1A_2 O1F 1_555 1_555
O2 Zn1A 1_555 1_555
C5 C6 1_555 1_555
C11 C12 1_555 1_555
O2F Zn1A_2 1_555 1_555
C5F C6F 1_555 1_555

#END
