
#######################################################################
#
#                 Cambridge Crystallographic Data Centre
#                                CCDC 
#
#######################################################################
#
# If this CIF has been generated from an entry in the Cambridge 
# Structural Database, then it will include bibliographic, chemical, 
# crystal, experimental, refinement or atomic coordinate data resulting 
# from the CCDC's data processing and validation procedures.
#
#######################################################################

data_MIMVIN
_symmetry_cell_setting           monoclinic
_symmetry_space_group_name_H-M   'C 2/c'
_symmetry_Int_Tables_number      15
_space_group_name_Hall           '-C 2yn'
loop_
_symmetry_equiv_pos_site_id
_symmetry_equiv_pos_as_xyz
1 x,y,z
2 1/2+x,1/2+y,z
3 x,-y,1/2+z
4 1/2+x,1/2-y,1/2+z
5 -x,-y,-z
6 1/2-x,1/2-y,-z
7 -x,y,1/2-z
8 1/2-x,1/2+y,1/2-z
_cell_length_a                   10.899(2)
_cell_length_b                   11.292(2)
_cell_length_c                   15.358(3)
_cell_angle_alpha                90
_cell_angle_beta                 100.47(3)
_cell_angle_gamma                90
_cell_volume                     1858.66
loop_
_atom_site_label
_atom_site_type_symbol
_atom_site_fract_x
_atom_site_fract_y
_atom_site_fract_z
Zn1 Zn 0.5000 0.45818(5) 0.2500
N1 N 0.4330(3) 0.5832(2) 0.32790(18)
O1 O 0.1400(2) 0.7988(2) 0.21130(16)
O2 O 0.1455(2) 0.89905(19) 0.33539(15)
C1 C 0.1856(3) 0.8175(3) 0.2898(3)
C2 C 0.2926(3) 0.7441(3) 0.3368(2)
C3 C 0.3439(3) 0.7602(3) 0.4246(2)
H1 H 0.3143 0.8196 0.4573
C4 C 0.4407(3) 0.6868(3) 0.4640(2)
H2 H 0.4765 0.6959 0.5234
C5 C 0.3401(3) 0.6541(3) 0.2912(2)
H3 H 0.3052 0.6425 0.2319
C6 C 0.4826(3) 0.5999(3) 0.4131(2)
H4 H 0.5479 0.5513 0.4392
N1F N 0.5670(3) 0.5832(2) 0.17210(18)
O1F O 0.8600(2) 0.7988(2) 0.28870(16)
O2F O 0.8545(2) 0.89905(19) 0.16461(15)
C1F C 0.8144(3) 0.8175(3) 0.2102(3)
C2F C 0.7074(3) 0.7441(3) 0.1632(2)
C3F C 0.6561(3) 0.7602(3) 0.0754(2)
H1F H 0.6857 0.8196 0.0427
C4F C 0.5593(3) 0.6868(3) 0.0360(2)
H2F H 0.5235 0.6959 -0.0234
C5F C 0.6599(3) 0.6541(3) 0.2088(2)
H3F H 0.6948 0.6425 0.2681
C6F C 0.5174(3) 0.5999(3) 0.0869(2)
H4F H 0.4521 0.5513 0.0608
O1A O 0.6400(2) 0.2988(2) 0.21130(16)
O1G O 0.3600(2) 0.2988(2) 0.28870(16)
O2A O 0.6455(2) 0.39905(19) 0.33539(15)
O2G O 0.3545(2) 0.39905(19) 0.16461(15)
Zn1A Zn 0.0000 0.95818(5) 0.2500
Zn1A_2 Zn 1.0000 0.95818(5) 0.2500
C7 C 0.6792(4) -0.0885(3) 0.4395(3)
H5 H 0.7503 -0.1288 0.4306
C8 C 0.6092(4) -0.0233(3) 0.3705(3)
H6 H 0.6338 -0.0213 0.3156
C9 C 0.5053(4) 0.0375(3) 0.3824(2)
H7 H 0.4608 0.0817 0.3361
C10 C 0.4646(3) 0.0337(3) 0.4650(2)
C11 C 0.6430(4) -0.0928(3) 0.5198(3)
H8 H 0.6906 -0.1358 0.5655
C10D C 0.5354(3) -0.0337(3) 0.5350(2)
C9D C 0.4947(4) -0.0375(3) 0.6176(2)
C8D C 0.3908(4) 0.0233(3) 0.6295(3)
C7D C 0.3208(4) 0.0885(3) 0.5605(3)
H5D H 0.2497 0.1288 0.5694
C11D C 0.3570(4) 0.0928(3) 0.4802(3)
H8D H 0.3094 0.1358 0.4345
H6D H 0.3662 0.0213 0.6844
H7D H 0.5392 -0.0817 0.6639
loop_
_geom_bond_atom_site_label_1
_geom_bond_atom_site_label_2
_geom_bond_site_symmetry_1
_geom_bond_site_symmetry_2
Zn1 N1 1_555 1_555
N1 C5 1_555 1_555
O1 C1 1_555 1_555
O2 C1 1_555 1_555
C1 C2 1_555 1_555
C2 C3 1_555 1_555
C3 H1 1_555 1_555
C4 C3 1_555 1_555
H2 C4 1_555 1_555
C5 C2 1_555 1_555
H3 C5 1_555 1_555
C6 N1 1_555 1_555
H4 C6 1_555 1_555
C7 H5 1_555 1_555
C8 C7 1_555 1_555
H6 C8 1_555 1_555
C9 C8 1_555 1_555
H7 C9 1_555 1_555
C10 C9 1_555 1_555
C11 C7 1_555 1_555
H8 C11 1_555 1_555
C10D C10 1_555 1_555
C9D C10D 1_555 1_555
C8D C9D 1_555 1_555
C7D C8D 1_555 1_555
H5D C7D 1_555 1_555
C11D C10 1_555 1_555
H8D C11D 1_555 1_555
H6D C8D 1_555 1_555
H7D C9D 1_555 1_555
N1F Zn1 1_555 1_555
O1F C1F 1_555 1_555
O2F C1F 1_555 1_555
C1F C2F 1_555 1_555
C2F C3F 1_555 1_555
C3F H1F 1_555 1_555
C4F C3F 1_555 1_555
H2F C4F 1_555 1_555
C5F N1F 1_555 1_555
H3F C5F 1_555 1_555
C6F N1F 1_555 1_555
H4F C6F 1_555 1_555
O1A Zn1 1_555 1_555
O1G Zn1 1_555 1_555
O2A Zn1 1_555 1_555
O2G Zn1 1_555 1_555
Zn1A O1 1_555 1_555
Zn1A_2 O1F 1_555 1_555
O2 Zn1A 1_555 1_555
C4 C6 1_555 1_555
C11 C10D 1_555 1_555
C7D C11D 1_555 1_555
O2F Zn1A_2 1_555 1_555
C2F C5F 1_555 1_555
C4F C6F 1_555 1_555

#END
