
#######################################################################
#
#                 Cambridge Crystallographic Data Centre
#                                CCDC 
#
#######################################################################
#
# If this CIF has been generated from an entry in the Cambridge 
# Structural Database, then it will include bibliographic, chemical, 
# crystal, experimental, refinement or atomic coordinate data resulting 
# from the CCDC's data processing and validation procedures.
#
#######################################################################

data_MIMZOX
_symmetry_cell_setting           triclinic
_symmetry_space_group_name_H-M   'P -1'
_symmetry_Int_Tables_number      2
_space_group_name_Hall           '-P 1'
loop_
_symmetry_equiv_pos_site_id
_symmetry_equiv_pos_as_xyz
1 x,y,z
2 -x,-y,-z
_cell_length_a                   5.653(3)
_cell_length_b                   6.273(4)
_cell_length_c                   12.932(9)
_cell_angle_alpha                82.630(3)
_cell_angle_beta                 89.300(4)
_cell_angle_gamma                86.100(10)
_cell_volume                     453.741
loop_
_atom_site_label
_atom_site_type_symbol
_atom_site_fract_x
_atom_site_fract_y
_atom_site_fract_z
Co1 Co 0.0000 0.0000 0.0000
S1 S -0.21970(9) -0.29078(10) -0.07214(5)
N1 N -0.6918(3) -0.1509(3) -0.04386(16)
N2 N 0.0465(4) -0.1932(3) 0.15426(17)
C1 C -0.4982(4) -0.2090(3) -0.05555(17)
C2 C -0.7363(5) -0.4116(6) 0.4157(2)
C3 C -0.5342(5) -0.3472(5) 0.34743(19)
C4 C -0.4277(6) -0.1567(5) 0.3523(2)
H1 H -0.4880 -0.0606 0.4000
C5 C -0.2366(6) -0.1041(5) 0.2887(2)
H2 H -0.1641 0.0290 0.2916
C6 C -0.1504(4) -0.2440(4) 0.22023(18)
C7 C -0.2601(5) -0.4316(4) 0.2137(2)
H3 H -0.2054 -0.5248 0.1638
C8 C -0.4491(5) -0.4848(5) 0.2775(2)
H4 H -0.5221 -0.6176 0.2744
O1 O -0.8241(5) -0.5850(4) 0.40869(19)
O2 O -0.8090(4) -0.2818(4) 0.47946(18)
H5 H -0.9524 -0.2935 0.5144
H6 H 0.1363 -0.0978 0.1810
H7 H 0.1265 -0.3182 0.1389
S1A S 0.21970(9) 0.29078(10) 0.07214(5)
N1A N 0.6918(3) 0.1509(3) 0.04386(16)
C1A C 0.4982(4) 0.2090(3) 0.05555(17)
N2A N -0.0465(4) 0.1932(3) -0.15426(17)
C2A C 0.7363(5) 0.4116(6) -0.4157(2)
C3A C 0.5342(5) 0.3472(5) -0.34743(19)
C4A C 0.4277(6) 0.1567(5) -0.3523(2)
H1A H 0.4880 0.0606 -0.4000
C5A C 0.2366(6) 0.1041(5) -0.2887(2)
H2A H 0.1641 -0.0290 -0.2916
C6A C 0.1504(4) 0.2440(4) -0.22023(18)
C7A C 0.2601(5) 0.4316(4) -0.2137(2)
H3A H 0.2054 0.5248 -0.1638
C8A C 0.4491(5) 0.4848(5) -0.2775(2)
H4A H 0.5221 0.6176 -0.2744
O1A O 0.8241(5) 0.5850(4) -0.40869(19)
O2A O 0.8090(4) 0.2818(4) -0.47946(18)
H5A H 0.9524 0.2935 -0.5144
H6A H -0.1363 0.0978 -0.1810
H7A H -0.1265 0.3182 -0.1389
N1_2 N 0.3082(3) -0.1509(3) -0.04386(16)
N1A_2 N -0.3082(3) 0.1509(3) 0.04386(16)
Co1_2 Co -1.0000 0.0000 0.0000
Co1_3 Co 1.0000 0.0000 0.0000
loop_
_geom_bond_atom_site_label_1
_geom_bond_atom_site_label_2
_geom_bond_site_symmetry_1
_geom_bond_site_symmetry_2
Co1 S1 1_555 1_555
S1 C1 1_555 1_555
N1 C1 1_555 1_555
N2 Co1 1_555 1_555
C2 C3 1_555 1_555
C3 C4 1_555 1_555
C4 H1 1_555 1_555
C5 C4 1_555 1_555
H2 C5 1_555 1_555
C6 N2 1_555 1_555
C7 C6 1_555 1_555
H3 C7 1_555 1_555
C8 C3 1_555 1_555
H4 C8 1_555 1_555
O1 C2 1_555 1_555
O2 C2 1_555 1_555
H5 O2 1_555 1_555
H6 N2 1_555 1_555
H7 N2 1_555 1_555
S1A Co1 1_555 1_555
N1A C1A 1_555 1_555
C1A S1A 1_555 1_555
N2A Co1 1_555 1_555
C2A C3A 1_555 1_555
C3A C4A 1_555 1_555
C4A H1A 1_555 1_555
C5A C4A 1_555 1_555
H2A C5A 1_555 1_555
C6A N2A 1_555 1_555
C7A C6A 1_555 1_555
H3A C7A 1_555 1_555
C8A C3A 1_555 1_555
H4A C8A 1_555 1_555
O1A C2A 1_555 1_555
O2A C2A 1_555 1_555
H5A O2A 1_555 1_555
H6A N2A 1_555 1_555
H7A N2A 1_555 1_555
N1_2 Co1 1_555 1_555
N1A_2 Co1 1_555 1_555
Co1_2 N1 1_555 1_555
Co1_3 N1A 1_555 1_555
C5 C6 1_555 1_555
C7 C8 1_555 1_555
C5A C6A 1_555 1_555
C7A C8A 1_555 1_555

#END
