
#######################################################################
#
#                 Cambridge Crystallographic Data Centre
#                                CCDC 
#
#######################################################################
#
# If this CIF has been generated from an entry in the Cambridge 
# Structural Database, then it will include bibliographic, chemical, 
# crystal, experimental, refinement or atomic coordinate data resulting 
# from the CCDC's data processing and validation procedures.
#
#######################################################################

data_MIMZUD01
_symmetry_cell_setting           triclinic
_symmetry_space_group_name_H-M   'P -1'
_symmetry_Int_Tables_number      2
_space_group_name_Hall           '-P 1'
loop_
_symmetry_equiv_pos_site_id
_symmetry_equiv_pos_as_xyz
1 x,y,z
2 -x,-y,-z
_cell_length_a                   6.3786(2)
_cell_length_b                   11.6698(3)
_cell_length_c                   12.7460(2)
_cell_angle_alpha                88.68
_cell_angle_beta                 84.7520(10)
_cell_angle_gamma                86.9930(10)
_cell_volume                     943.337
loop_
_atom_site_label
_atom_site_type_symbol
_atom_site_fract_x
_atom_site_fract_y
_atom_site_fract_z
Cd1 Cd 0.46077(4) 0.747614(18) 0.520972(18)
S1 S 0.77773(16) 0.85579(8) 0.59460(9)
S2 S 0.15244(14) 0.63229(7) 0.44921(8)
N1 N 0.6953(5) 1.0832(3) 0.5314(3)
N2 N 0.3730(5) 0.4196(2) 0.4217(2)
N3 N 0.6523(5) 0.7104(3) 0.3498(2)
H1 H 0.7728 0.6702 0.3609
H2 H 0.5749 0.6649 0.3143
N4 N 0.2783(5) 0.7635(3) 0.6967(2)
H3 H 0.3587 0.8032 0.7358
H4 H 0.1581 0.8062 0.6910
O1 O 1.0567(5) 1.1301(3) 0.0925(2)
O2 O 0.7444(6) 1.1388(3) 0.0276(2)
O3 O 0.1837(5) 0.3115(3) 0.9865(2)
O4 O -0.1232(6) 0.3174(3) 0.9144(2)
C1 C 0.7276(5) 0.9898(3) 0.5567(3)
C2 C 0.2823(5) 0.5071(3) 0.4338(3)
C3 C 0.8764(7) 1.0935(3) 0.0874(3)
C4 C 0.8115(6) 0.9944(3) 0.1558(3)
C5 C 0.9483(6) 0.9498(3) 0.2267(3)
H5 H 1.0771 0.9825 0.2307
C6 C 0.8953(6) 0.8577(3) 0.2911(3)
H6 H 0.9862 0.8296 0.3398
C7 C 0.7053(6) 0.8069(3) 0.2831(3)
C8 C 0.5667(6) 0.8523(4) 0.2140(3)
H7 H 0.4375 0.8198 0.2105
C9 C 0.6192(7) 0.9456(4) 0.1502(3)
H8 H 0.5259 0.9756 0.1035
C10 C 0.0538(7) 0.3566(3) 0.9251(3)
C11 C 0.1174(6) 0.4609(3) 0.8641(3)
C12 C 0.3113(7) 0.5074(4) 0.8736(3)
H9 H 0.4058 0.4711 0.9166
C13 C 0.3637(6) 0.6074(4) 0.8194(3)
H10 H 0.4928 0.6386 0.8267
C14 C 0.2250(6) 0.6614(3) 0.7544(3)
C15 C 0.0342(6) 0.6142(3) 0.7436(3)
H11 H -0.0587 0.6495 0.6993
C16 C -0.0193(6) 0.5148(3) 0.7983(3)
H12 H -0.1485 0.4839 0.7908
N1A N 0.3047(5) 0.9168(3) 0.4686(3)
N2A N 0.6270(5) 0.5804(2) 0.5783(2)
Cd1A Cd 0.53923(4) 1.252386(18) 0.479028(18)
Cd1A_2 Cd 0.53923(4) 0.252386(18) 0.479028(18)
loop_
_geom_bond_atom_site_label_1
_geom_bond_atom_site_label_2
_geom_bond_site_symmetry_1
_geom_bond_site_symmetry_2
Cd1 S1 1_555 1_555
S1 C1 1_555 1_555
S2 Cd1 1_555 1_555
N1 C1 1_555 1_555
N2 C2 1_555 1_555
N3 Cd1 1_555 1_555
H1 N3 1_555 1_555
H2 N3 1_555 1_555
N4 Cd1 1_555 1_555
H3 N4 1_555 1_555
H4 N4 1_555 1_555
O1 C3 1_555 1_555
O2 C3 1_555 1_555
O3 C10 1_555 1_555
O4 C10 1_555 1_555
C2 S2 1_555 1_555
C3 C4 1_555 1_555
C4 C5 1_555 1_555
C5 H5 1_555 1_555
C6 C5 1_555 1_555
H6 C6 1_555 1_555
C7 N3 1_555 1_555
C8 C7 1_555 1_555
H7 C8 1_555 1_555
C9 C4 1_555 1_555
H8 C9 1_555 1_555
C10 C11 1_555 1_555
C11 C12 1_555 1_555
C12 H9 1_555 1_555
C13 C12 1_555 1_555
H10 C13 1_555 1_555
C14 N4 1_555 1_555
C15 C14 1_555 1_555
H11 C15 1_555 1_555
C16 C11 1_555 1_555
H12 C16 1_555 1_555
N1A Cd1 1_555 1_555
N2A Cd1 1_555 1_555
Cd1A N1 1_555 1_555
Cd1A_2 N2 1_555 1_555
C6 C7 1_555 1_555
C8 C9 1_555 1_555
C13 C14 1_555 1_555
C15 C16 1_555 1_555

#END
