
#######################################################################
#
#                 Cambridge Crystallographic Data Centre
#                                CCDC 
#
#######################################################################
#
# If this CIF has been generated from an entry in the Cambridge 
# Structural Database, then it will include bibliographic, chemical, 
# crystal, experimental, refinement or atomic coordinate data resulting 
# from the CCDC's data processing and validation procedures.
#
#######################################################################

data_MIMZUD
_symmetry_cell_setting           triclinic
_symmetry_space_group_name_H-M   'P -1'
_symmetry_Int_Tables_number      2
_space_group_name_Hall           '-P 1'
loop_
_symmetry_equiv_pos_site_id
_symmetry_equiv_pos_as_xyz
1 x,y,z
2 -x,-y,-z
_cell_length_a                   6.389(3)
_cell_length_b                   11.698(7)
_cell_length_c                   12.758(8)
_cell_angle_alpha                88.790(4)
_cell_angle_beta                 84.710(6)
_cell_angle_gamma                87.030(10)
_cell_volume                     948.05
loop_
_atom_site_label
_atom_site_type_symbol
_atom_site_fract_x
_atom_site_fract_y
_atom_site_fract_z
Cd1 Cd 0.03942(7) 0.25237(3) 0.47889(3)
S1 S 0.3476(2) 0.36776(12) 0.55057(14)
S2 S -0.2779(3) 0.14428(12) 0.40536(15)
N1 N -0.1516(8) 0.2891(4) 0.6504(4)
H1 H -0.0433 0.3245 0.6747
H2 H -0.2270 0.3234 0.6209
N2 N 0.2229(8) 0.2359(4) 0.3023(4)
H3 H 0.1022 0.1840 0.2801
H4 H 0.3771 0.1939 0.3155
N3 N 0.1266(7) 0.5812(4) 0.5783(4)
N4 N -0.1950(8) -0.0836(4) 0.4690(4)
O1 O -0.5557(8) -0.1300(4) 0.9073(4)
O2 O -0.2429(9) -0.1377(4) 0.9709(4)
O3 O 0.3160(8) 0.6878(4) 0.0136(4)
O4 O 0.6233(8) 0.6828(4) 0.0853(4)
C1 C -0.3772(12) -0.0924(5) 0.9131(5)
C2 C 0.2179(8) 0.4922(4) 0.5660(4)
C3 C -0.2284(9) 0.0099(4) 0.4428(5)
C4 C -0.3097(10) 0.0056(5) 0.8440(4)
C5 C -0.1196(11) 0.0551(5) 0.8496(5)
H5 H -0.0239 0.0233 0.8975
C6 C -0.0669(10) 0.1480(6) 0.7862(5)
H6 H 0.0655 0.1824 0.7897
C7 C -0.2048(9) 0.1932(4) 0.7172(4)
C8 C -0.3943(10) 0.1429(5) 0.7085(5)
H7 H -0.4868 0.1724 0.6580
C9 C -0.4472(10) 0.0499(5) 0.7732(5)
H8 H -0.5797 0.0157 0.7695
C10 C 0.4472(12) 0.6435(5) 0.0745(5)
C11 C 0.3813(10) 0.5392(5) 0.1358(5)
C12 C 0.1892(11) 0.4932(6) 0.1265(5)
H9 H 0.0920 0.5316 0.0829
C13 C 0.1355(10) 0.3921(6) 0.1805(5)
H10 H 0.0037 0.3588 0.1728
C14 C 0.2750(9) 0.3390(5) 0.2454(4)
C15 C 0.4662(10) 0.3856(5) 0.2564(5)
H11 H 0.5609 0.3477 0.3016
C16 C 0.5199(10) 0.4852(5) 0.2025(5)
H12 H 0.6519 0.5182 0.2105
H13 H 0.3526 0.7380 -0.0264
H14 H -0.2941 -0.1893 1.0052
N3A N -0.1266(7) 0.4188(4) 0.4217(4)
N4A N 0.1950(8) 0.0836(4) 0.5310(4)
Cd1A Cd -0.03942(7) 0.74763(3) 0.52111(3)
Cd1A_2 Cd -0.03942(7) -0.25237(3) 0.52111(3)
loop_
_geom_bond_atom_site_label_1
_geom_bond_atom_site_label_2
_geom_bond_site_symmetry_1
_geom_bond_site_symmetry_2
Cd1 S1 1_555 1_555
S1 C2 1_555 1_555
S2 Cd1 1_555 1_555
N1 Cd1 1_555 1_555
H1 N1 1_555 1_555
H2 N1 1_555 1_555
N2 Cd1 1_555 1_555
H3 N2 1_555 1_555
H4 N2 1_555 1_555
N3 C2 1_555 1_555
N4 C3 1_555 1_555
O1 C1 1_555 1_555
O2 C1 1_555 1_555
O3 C10 1_555 1_555
O4 C10 1_555 1_555
C1 C4 1_555 1_555
C3 S2 1_555 1_555
C4 C5 1_555 1_555
C5 H5 1_555 1_555
C6 C5 1_555 1_555
H6 C6 1_555 1_555
C7 N1 1_555 1_555
C8 C7 1_555 1_555
H7 C8 1_555 1_555
C9 C4 1_555 1_555
H8 C9 1_555 1_555
C10 C11 1_555 1_555
C11 C12 1_555 1_555
C12 H9 1_555 1_555
C13 C12 1_555 1_555
H10 C13 1_555 1_555
C14 N2 1_555 1_555
C15 C14 1_555 1_555
H11 C15 1_555 1_555
C16 C11 1_555 1_555
H12 C16 1_555 1_555
H13 O3 1_555 1_555
H14 O2 1_555 1_555
N3A Cd1 1_555 1_555
N4A Cd1 1_555 1_555
Cd1A N3 1_555 1_555
Cd1A_2 N4 1_555 1_555
C6 C7 1_555 1_555
C8 C9 1_555 1_555
C13 C14 1_555 1_555
C15 C16 1_555 1_555

#END
