
#######################################################################
#
#                 Cambridge Crystallographic Data Centre
#                                CCDC 
#
#######################################################################
#
# If this CIF has been generated from an entry in the Cambridge 
# Structural Database, then it will include bibliographic, chemical, 
# crystal, experimental, refinement or atomic coordinate data resulting 
# from the CCDC's data processing and validation procedures.
#
#######################################################################

data_MINBAM
_symmetry_cell_setting           monoclinic
_symmetry_space_group_name_H-M   'P 21/c'
_symmetry_Int_Tables_number      14
_space_group_name_Hall           '-P 2ybc'
loop_
_symmetry_equiv_pos_site_id
_symmetry_equiv_pos_as_xyz
1 x,y,z
2 x,1/2-y,1/2+z
3 -x,-y,-z
4 -x,1/2+y,1/2-z
_cell_length_a                   9.279(2)
_cell_length_b                   6.2810(10)
_cell_length_c                   14.343(3)
_cell_angle_alpha                90
_cell_angle_beta                 93.53(3)
_cell_angle_gamma                90
_cell_volume                     834.344
loop_
_atom_site_label
_atom_site_type_symbol
_atom_site_fract_x
_atom_site_fract_y
_atom_site_fract_z
C1 C 1.2365(3) -0.0628(4) 0.17972(18)
C2 C 1.3865(3) -0.0363(4) 0.14761(17)
C3 C 1.4874(3) -0.1979(4) 0.1655(2)
H1 H 1.4588 -0.3281 0.1942
C4 C 1.6294(3) -0.1708(4) 0.1426(2)
H2 H 1.6981 -0.2837 0.1533
C5 C 1.6709(3) 0.0199(5) 0.10357(18)
C6 C 1.5724(3) 0.1812(4) 0.0851(2)
H3 H 1.6021 0.3124 0.0577
C7 C 1.4291(3) 0.1532(4) 0.1065(2)
H4 H 1.3596 0.2639 0.0931
N1 N 1.8209(2) 0.0530(5) 0.08539(17)
H5 H 1.8861 -0.0502 0.0990
H6 H 1.8489 0.1765 0.0603
N2 N 1.9716(3) -0.0298(4) 0.31663(19)
N3 N 1.9045(3) 0.0089(4) 0.38464(19)
N4 N 1.8452(4) 0.0478(5) 0.4498(2)
O1 O 1.1356(2) 0.0490(4) 0.14164(15)
O2 O 1.2228(2) -0.1977(3) 0.24240(17)
Zn1 Zn 1.95129(3) 0.16570(5) 0.20086(2)
Zn1C Zn 2.04871(3) -0.33430(5) 0.29914(2)
Zn1_2 Zn 0.95129(3) 0.16570(5) 0.20086(2)
Zn1C_2 Zn 1.04871(3) -0.33430(5) 0.29914(2)
N2C N 2.0284(3) 0.4702(4) 0.18337(19)
O1_2 O 2.1356(2) 0.0490(4) 0.14164(15)
O2C O 1.7772(2) 0.3023(3) 0.25760(17)
loop_
_geom_bond_atom_site_label_1
_geom_bond_atom_site_label_2
_geom_bond_site_symmetry_1
_geom_bond_site_symmetry_2
C1 C2 1_555 1_555
C2 C3 1_555 1_555
C3 H1 1_555 1_555
C4 C3 1_555 1_555
H2 C4 1_555 1_555
C5 C4 1_555 1_555
C6 C5 1_555 1_555
H3 C6 1_555 1_555
C7 C2 1_555 1_555
H4 C7 1_555 1_555
N1 C5 1_555 1_555
H5 N1 1_555 1_555
H6 N1 1_555 1_555
N2 N3 1_555 1_555
N3 N4 1_555 1_555
O1 C1 1_555 1_555
O2 C1 1_555 1_555
Zn1 N1 1_555 1_555
Zn1C N2 1_555 1_555
Zn1_2 O1 1_555 1_555
Zn1C_2 O2 1_555 1_555
N2C Zn1 1_555 1_555
O1_2 Zn1 1_555 1_555
O2C Zn1 1_555 1_555
C6 C7 1_555 1_555
N2 Zn1 1_555 1_555

#END
