
#######################################################################
#
#                 Cambridge Crystallographic Data Centre
#                                CCDC 
#
#######################################################################
#
# If this CIF has been generated from an entry in the Cambridge 
# Structural Database, then it will include bibliographic, chemical, 
# crystal, experimental, refinement or atomic coordinate data resulting 
# from the CCDC's data processing and validation procedures.
#
#######################################################################

data_MINCUJ
_symmetry_cell_setting           monoclinic
_symmetry_space_group_name_H-M   'C 2/c'
_symmetry_Int_Tables_number      15
_space_group_name_Hall           '-C 2yn'
loop_
_symmetry_equiv_pos_site_id
_symmetry_equiv_pos_as_xyz
1 x,y,z
2 -x,y,1/2-z
3 1/2+x,1/2+y,z
4 1/2-x,1/2+y,1/2-z
5 -x,-y,-z
6 x,-y,1/2+z
7 1/2-x,1/2-y,-z
8 1/2+x,1/2-y,1/2+z
_cell_length_a                   25.9498(2)
_cell_length_b                   15.6298(2)
_cell_length_c                   26.8239(2)
_cell_angle_alpha                90
_cell_angle_beta                 114.532(2)
_cell_angle_gamma                90
_cell_volume                     9897.41
loop_
_atom_site_label
_atom_site_type_symbol
_atom_site_fract_x
_atom_site_fract_y
_atom_site_fract_z
C1 C 0.1126(3) 0.0675(6) 0.1544(3)
C2 C 0.1403(3) 0.0235(6) 0.2061(3)
C3 C 0.1216(3) 0.0313(6) 0.2476(3)
H1 H 0.0903 0.0678 0.2415
C4 C 0.1462(3) -0.0114(6) 0.2972(3)
C5 C 0.1940(3) -0.0627(7) 0.3084(3)
C6 C 0.2130(4) -0.0714(8) 0.2662(3)
H2 H 0.2441 -0.1083 0.2720
C7 C 0.1887(4) -0.0290(8) 0.2177(3)
H3 H 0.2041 -0.0345 0.1913
C8 C 0.0529(3) 0.0110(6) 0.4580(3)
C9 C 0.0775(3) 0.0074(6) 0.4166(3)
C10 C 0.1247(3) -0.0415(6) 0.4280(3)
H4 H 0.1413 -0.0713 0.4618
C11 C 0.1493(3) -0.0480(6) 0.3889(3)
C12 C 0.1225(3) -0.0055(6) 0.3387(3)
C13 C 0.0736(3) 0.0438(7) 0.3289(3)
H5 H 0.0549 0.0716 0.2945
C14 C 0.0520(3) 0.0527(6) 0.3681(3)
H6 H 0.0205 0.0890 0.3618
C15 C 0.3485(4) -0.2495(7) 0.4330(4)
C16 C 0.2975(3) -0.1956(6) 0.4216(3)
C17 C 0.2706(4) -0.1548(6) 0.3729(3)
H7 H 0.2858 -0.1590 0.3463
C18 C 0.2220(3) -0.1076(6) 0.3606(3)
C19 C 0.2002(3) -0.0982(6) 0.4009(3)
C20 C 0.2302(4) -0.1391(7) 0.4512(3)
H8 H 0.2164 -0.1331 0.4788
C21 C 0.2771(3) -0.1861(6) 0.4631(3)
H9 H 0.2960 -0.2122 0.4980
C22 C 0.0016(6) 0.2011(10) -0.0899(6)
H10 H 0.0416 0.1898 -0.0827
H11 H -0.0062 0.2620 -0.1006
C23 C -0.0365(7) 0.1454(11) -0.1388(6)
H12 H -0.0767 0.1621 -0.1509
H13 H -0.0326 0.0843 -0.1281
C24 C -0.0171(7) 0.1599(11) -0.1859(6)
H14 H -0.0465 0.1916 -0.2158
H15 H -0.0109 0.1045 -0.1996
H16 H 0.0182 0.1928 -0.1720
O1 O 0.1260(3) 0.0474(4) 0.1140(2)
O2 O 0.0763(2) 0.1255(4) 0.1473(2)
O3 O 0.0164(2) 0.0678(4) 0.45288(19)
O4 O 0.0729(2) -0.0368(4) 0.4983(2)
O5 O 0.3731(3) -0.2862(5) 0.4766(2)
O6 O 0.3688(3) -0.2553(6) 0.3978(2)
O7 O -0.0053(4) 0.1879(6) -0.0395(3)
H17 H -0.0282 0.1473 -0.0451
O8 O 0.0075(3) 0.2607(5) 0.0626(3)
H18 H -0.0284 0.2588 0.0462
H19 H 0.0171 0.2809 0.0947
Tb1 Tb 0.058923(19) 0.14322(4) 0.050970(17)
O3A O -0.0164(2) 0.0678(4) 0.04712(19)
O4E O 0.0729(2) 0.0368(4) -0.0017(2)
O5C O 0.1269(3) 0.2138(5) 0.0234(2)
O6C O 0.1312(3) 0.2447(6) 0.1022(2)
Tb1A Tb -0.058923(19) 0.14322(4) 0.449030(17)
Tb1C Tb 0.441077(19) -0.35678(4) 0.449030(17)
Tb1E Tb 0.058923(19) -0.14322(4) 0.550970(17)
loop_
_geom_bond_atom_site_label_1
_geom_bond_atom_site_label_2
_geom_bond_site_symmetry_1
_geom_bond_site_symmetry_2
C1 C2 1_555 1_555
C2 C3 1_555 1_555
C3 H1 1_555 1_555
C4 C3 1_555 1_555
C5 C4 1_555 1_555
C6 C5 1_555 1_555
H2 C6 1_555 1_555
C7 C2 1_555 1_555
H3 C7 1_555 1_555
C8 C9 1_555 1_555
C9 C10 1_555 1_555
C10 H4 1_555 1_555
C11 C10 1_555 1_555
C12 C4 1_555 1_555
C13 C12 1_555 1_555
H5 C13 1_555 1_555
C14 C9 1_555 1_555
H6 C14 1_555 1_555
C15 C16 1_555 1_555
C16 C17 1_555 1_555
C17 H7 1_555 1_555
C18 C5 1_555 1_555
C19 C11 1_555 1_555
C20 C19 1_555 1_555
H8 C20 1_555 1_555
C21 C16 1_555 1_555
H9 C21 1_555 1_555
C22 H10 1_555 1_555
H11 C22 1_555 1_555
C23 C22 1_555 1_555
H12 C23 1_555 1_555
H13 C23 1_555 1_555
C24 C23 1_555 1_555
H14 C24 1_555 1_555
H15 C24 1_555 1_555
H16 C24 1_555 1_555
O1 C1 1_555 1_555
O2 C1 1_555 1_555
O3 C8 1_555 1_555
O4 C8 1_555 1_555
O5 C15 1_555 1_555
O6 C15 1_555 1_555
O7 C22 1_555 1_555
H17 O7 1_555 1_555
O8 H18 1_555 1_555
H19 O8 1_555 1_555
Tb1 O1 1_555 1_555
O3A Tb1 1_555 1_555
O4E Tb1 1_555 1_555
O5C Tb1 1_555 1_555
O6C Tb1 1_555 1_555
Tb1A O3 1_555 1_555
Tb1C O5 1_555 1_555
Tb1E O4 1_555 1_555
C6 C7 1_555 1_555
C11 C12 1_555 1_555
C13 C14 1_555 1_555
C17 C18 1_555 1_555
C18 C19 1_555 1_555
C20 C21 1_555 1_555
O2 Tb1 1_555 1_555
O6 Tb1C 1_555 1_555
O7 Tb1 1_555 1_555
O8 Tb1 1_555 1_555

#END
