
#######################################################################
#
#                 Cambridge Crystallographic Data Centre
#                                CCDC 
#
#######################################################################
#
# If this CIF has been generated from an entry in the Cambridge 
# Structural Database, then it will include bibliographic, chemical, 
# crystal, experimental, refinement or atomic coordinate data resulting 
# from the CCDC's data processing and validation procedures.
#
#######################################################################

data_MINCUH
_symmetry_cell_setting           triclinic
_symmetry_space_group_name_H-M   'P -1'
_symmetry_Int_Tables_number      2
_space_group_name_Hall           '-P 1'
loop_
_symmetry_equiv_pos_site_id
_symmetry_equiv_pos_as_xyz
1 x,y,z
2 -x,-y,-z
_cell_length_a                   7.1239(8)
_cell_length_b                   7.5783(8)
_cell_length_c                   12.055(1)
_cell_angle_alpha                79.756(2)
_cell_angle_beta                 81.105(2)
_cell_angle_gamma                68.230(2)
_cell_volume                     591.957
loop_
_atom_site_label
_atom_site_type_symbol
_atom_site_fract_x
_atom_site_fract_y
_atom_site_fract_z
Na1 Na 0.36155(15) 0.03663(15) -0.36116(8)
Na2 Na 0.13222(14) 0.12360(15) -0.08606(8)
O1 O 0.3010(3) -0.0173(3) -0.54284(16)
H1 H 0.256(6) -0.103(4) -0.541(3)
H2 H 0.218(4) 0.059(4) -0.583(3)
O2 O 0.0384(3) 0.0327(3) -0.25041(17)
H3 H -0.066(4) 0.121(4) -0.265(3)
H4 H 0.021(6) -0.062(4) -0.263(3)
O3 O 0.4706(3) 0.0341(3) -0.18081(15)
H5 H 0.510(6) 0.125(4) -0.188(3)
H6 H 0.544(5) -0.046(4) -0.137(3)
O4 O -0.2015(3) 0.2016(3) 0.00626(15)
H7 H -0.277(5) 0.259(5) -0.043(2)
H8 H -0.256(5) 0.251(5) 0.064(2)
O5 O 0.2670(3) 0.2539(3) 0.03467(16)
H9 H 0.305(5) 0.333(4) -0.007(3)
H10 H 0.197(6) 0.310(6) 0.089(3)
N1 N 0.6843(3) -0.4416(3) -0.45888(17)
N2 N 0.7944(3) -0.5914(3) -0.50101(17)
N3 N 0.6591(3) -0.6360(3) -0.27436(17)
N4 N 0.5469(3) -0.5825(4) -0.17721(18)
N5 N 0.4367(3) -0.3984(4) -0.19117(18)
N6 N 0.4742(3) -0.3244(3) -0.29759(17)
N7 N 0.8173(3) -0.3792(3) -0.67645(17)
N8 N 0.9241(3) -0.4158(4) -0.77709(17)
N9 N 1.0329(3) -0.5988(4) -0.77373(17)
N10 N 1.0003(3) -0.6897(3) -0.67054(18)
C1 C 0.6090(4) -0.4731(4) -0.3452(2)
C2 C 0.8679(3) -0.5504(4) -0.6146(2)
O1A O 0.6990(3) 0.0173(3) -0.45716(16)
N7A N 0.1827(3) 0.3792(3) -0.32355(17)
O4A O 0.2015(3) -0.2016(3) -0.00626(15)
N8A N 0.0759(3) 0.4158(4) -0.22291(17)
Na1A Na 0.63845(15) -0.03663(15) -0.63884(8)
Na2A Na -0.13222(14) -0.12360(15) 0.08606(8)
Na2A_2 Na 0.86778(14) -0.12360(15) -0.91394(8)
H1A H 0.744(6) 0.103(4) -0.459(3)
H2A H 0.782(4) -0.059(4) -0.417(3)
H7A H 0.277(5) -0.259(5) 0.043(2)
H8A H 0.256(5) -0.251(5) -0.064(2)
C2A C 0.1321(3) 0.5504(4) -0.3854(2)
N9A N -0.0329(3) 0.5988(4) -0.22627(17)
N2A N 0.2056(3) 0.5914(3) -0.49899(17)
N10A N -0.0003(3) 0.6897(3) -0.32946(18)
N1A N 0.3157(3) 0.4416(3) -0.54112(17)
C1A C 0.3910(4) 0.4731(4) -0.6548(2)
N3A N 0.3409(3) 0.6360(3) -0.72564(17)
N6A N 0.5258(3) 0.3244(3) -0.70241(17)
N5A N 0.5633(3) 0.3984(4) -0.80883(18)
N4A N 0.4531(3) 0.5825(4) -0.82279(18)
O2A O 0.9616(3) -0.0327(3) -0.74959(17)
O3A O 0.5294(3) -0.0341(3) -0.81919(15)
O4A_2 O 1.2015(3) -0.2016(3) -1.00626(15)
O4_2 O 0.7985(3) 0.2016(3) -0.99374(15)
O5A O 0.7330(3) -0.2539(3) -1.03467(16)
H3A H 1.066(4) -0.121(4) -0.735(3)
H4A H 0.979(6) 0.062(4) -0.737(3)
H5A H 0.490(6) -0.125(4) -0.812(3)
H6A H 0.456(5) 0.046(4) -0.863(3)
H9A H 0.695(5) -0.333(4) -0.993(3)
H10A H 0.803(6) -0.310(6) -1.089(3)
Na2_2 Na 1.13222(14) 0.12360(15) -1.08606(8)
H7_2 H 0.723(5) 0.259(5) -1.043(2)
H8_2 H 0.744(5) 0.251(5) -0.936(2)
H7A_2 H 1.277(5) -0.259(5) -0.957(2)
H8A_2 H 1.256(5) -0.251(5) -1.064(2)
loop_
_geom_bond_atom_site_label_1
_geom_bond_atom_site_label_2
_geom_bond_site_symmetry_1
_geom_bond_site_symmetry_2
Na1 O1 1_555 1_555
Na2 O2 1_555 1_555
O1 H1 1_555 1_555
H2 O1 1_555 1_555
O2 Na1 1_555 1_555
H3 O2 1_555 1_555
H4 O2 1_555 1_555
O3 Na1 1_555 1_555
H5 O3 1_555 1_555
H6 O3 1_555 1_555
O4 Na2 1_555 1_555
H7 O4 1_555 1_555
H8 O4 1_555 1_555
O5 Na2 1_555 1_555
H9 O5 1_555 1_555
H10 O5 1_555 1_555
N1 N2 1_555 1_555
N2 C2 1_555 1_555
N3 N4 1_555 1_555
N4 N5 1_555 1_555
N5 N6 1_555 1_555
N6 Na1 1_555 1_555
N7 N8 1_555 1_555
N8 N9 1_555 1_555
N9 N10 1_555 1_555
N10 C2 1_555 1_555
C1 N1 1_555 1_555
C2 N7 1_555 1_555
O1A Na1 1_555 1_555
N7A Na1 1_555 1_555
O4A Na2 1_555 1_555
N8A Na2 1_555 1_555
Na1A O1 1_555 1_555
Na2A O4 1_555 1_555
Na2A_2 N8 1_555 1_555
H1A O1A 1_555 1_555
H2A O1A 1_555 1_555
H7A O4A 1_555 1_555
H8A O4A 1_555 1_555
C2A N7A 1_555 1_555
N9A N8A 1_555 1_555
N2A C2A 1_555 1_555
N10A C2A 1_555 1_555
N1A N2A 1_555 1_555
C1A N1A 1_555 1_555
N3A C1A 1_555 1_555
N6A Na1A 1_555 1_555
N5A N6A 1_555 1_555
N4A N3A 1_555 1_555
O2A Na1A 1_555 1_555
O3A Na1A 1_555 1_555
O4A_2 Na2A_2 1_555 1_555
O4_2 Na2A_2 1_555 1_555
O5A Na2A_2 1_555 1_555
H3A O2A 1_555 1_555
H4A O2A 1_555 1_555
H5A O3A 1_555 1_555
H6A O3A 1_555 1_555
H9A O5A 1_555 1_555
H10A O5A 1_555 1_555
Na2_2 O4A_2 1_555 1_555
H7_2 O4_2 1_555 1_555
H8_2 O4_2 1_555 1_555
H7A_2 O4A_2 1_555 1_555
H8A_2 O4A_2 1_555 1_555
Na2 O3 1_555 1_555
N3 C1 1_555 1_555
N6 C1 1_555 1_555
N7 Na1A 1_555 1_555
O1A Na1A 1_555 1_555
N7A N8A 1_555 1_555
O4A Na2A 1_555 1_555
Na2A_2 O2A 1_555 1_555
Na2A_2 O3A 1_555 1_555
N9A N10A 1_555 1_555
C1A N6A 1_555 1_555
N5A N4A 1_555 1_555
O4_2 Na2_2 1_555 1_555

#END
