
#######################################################################
#
#                 Cambridge Crystallographic Data Centre
#                                CCDC 
#
#######################################################################
#
# If this CIF has been generated from an entry in the Cambridge 
# Structural Database, then it will include bibliographic, chemical, 
# crystal, experimental, refinement or atomic coordinate data resulting 
# from the CCDC's data processing and validation procedures.
#
#######################################################################

data_MINCUH02
_symmetry_cell_setting           triclinic
_symmetry_space_group_name_H-M   'P -1'
_symmetry_Int_Tables_number      2
_space_group_name_Hall           '-P 1'
loop_
_symmetry_equiv_pos_site_id
_symmetry_equiv_pos_as_xyz
1 x,y,z
2 -x,-y,-z
_cell_length_a                   7.1617(13)
_cell_length_b                   7.5967(14)
_cell_length_c                   12.120(2)
_cell_angle_alpha                79.603(16)
_cell_angle_beta                 80.849(17)
_cell_angle_gamma                67.789(15)
_cell_volume                     597.447
loop_
_atom_site_label
_atom_site_type_symbol
_atom_site_fract_x
_atom_site_fract_y
_atom_site_fract_z
Na1 Na 0.36175(15) -0.45950(14) 0.13799(8)
Na2 Na 0.13162(15) -0.37350(14) 0.41309(8)
O1 O 0.3006(3) -0.5199(3) -0.04146(15)
H1 H 0.2084 -0.4260 -0.0777
H2 H 0.2711 -0.6226 -0.0342
O2 O 0.4701(3) -0.4631(3) 0.31915(16)
H3 H 0.5494 -0.5551 0.3627
H4 H 0.5119 -0.3672 0.3051
O3 O 0.0386(3) -0.4637(3) 0.24961(16)
H5 H 0.0325 -0.5674 0.2346
H6 H -0.0687 -0.3667 0.2332
O4 O -0.2029(3) -0.2987(3) 0.50612(15)
H7 H -0.2753 -0.2443 0.4499
H8 H -0.2647 -0.2478 0.5659
O5 O 0.2628(3) -0.2433(3) 0.53560(17)
H9 H 0.1837 -0.1821 0.5913
H10 H 0.2863 -0.1553 0.4839
N1 N 0.3411(3) 0.1334(3) -0.22555(18)
N2 N 0.4499(3) 0.0829(3) -0.32212(19)
N3 N 0.5601(3) -0.1027(3) -0.30877(19)
N4 N 0.5239(3) -0.1778(3) -0.20360(18)
N5 N 0.3157(3) -0.0599(3) -0.04212(18)
N6 N 0.2079(3) 0.0904(3) -0.00050(18)
N7 N 0.1821(3) -0.1171(3) 0.17530(18)
N8 N 0.0755(3) -0.0805(3) 0.27535(19)
N9 N -0.0305(3) 0.1039(3) 0.26991(19)
N10 N 0.0024(3) 0.1930(3) 0.16768(19)
C1 C 0.3903(4) -0.0293(3) -0.1550(2)
C2 C 0.1336(3) 0.0523(3) 0.1122(2)
Na1A Na 0.63825(15) -0.54050(14) -0.13799(8)
Na2A Na -0.13162(15) -0.62650(14) 0.58691(8)
O1A O 0.6994(3) -0.4801(3) 0.04146(15)
H1A H 0.7916 -0.5740 0.0777
H2A H 0.7289 -0.3774 0.0342
O4A O 0.2029(3) -0.7013(3) 0.49388(15)
H7A H 0.2753 -0.7557 0.5501
H8A H 0.2647 -0.7522 0.4341
N4A N 0.4761(3) -0.8222(3) 0.20360(18)
loop_
_geom_bond_atom_site_label_1
_geom_bond_atom_site_label_2
_geom_bond_site_symmetry_1
_geom_bond_site_symmetry_2
Na1 O1 1_555 1_555
Na2 O2 1_555 1_555
O1 H1 1_555 1_555
H2 O1 1_555 1_555
O2 Na1 1_555 1_555
H3 O2 1_555 1_555
H4 O2 1_555 1_555
O3 Na1 1_555 1_555
H5 O3 1_555 1_555
H6 O3 1_555 1_555
O4 Na2 1_555 1_555
H7 O4 1_555 1_555
H8 O4 1_555 1_555
O5 Na2 1_555 1_555
H9 O5 1_555 1_555
H10 O5 1_555 1_555
N1 N2 1_555 1_555
N2 N3 1_555 1_555
N3 N4 1_555 1_555
N4 C1 1_555 1_555
N5 N6 1_555 1_555
N6 C2 1_555 1_555
N7 Na1 1_555 1_555
N8 Na2 1_555 1_555
N9 N8 1_555 1_555
N10 N9 1_555 1_555
C1 N1 1_555 1_555
C2 N7 1_555 1_555
Na1A O1 1_555 1_555
Na2A O4 1_555 1_555
O1A Na1 1_555 1_555
H1A O1A 1_555 1_555
H2A O1A 1_555 1_555
O4A Na2 1_555 1_555
H7A O4A 1_555 1_555
H8A O4A 1_555 1_555
N4A Na1 1_555 1_555
Na2 O3 1_555 1_555
N4 Na1A 1_555 1_555
N5 C1 1_555 1_555
N7 N8 1_555 1_555
N10 C2 1_555 1_555
Na1A O1A 1_555 1_555
Na2A O4A 1_555 1_555

#END
