
#######################################################################
#
#                 Cambridge Crystallographic Data Centre
#                                CCDC 
#
#######################################################################
#
# If this CIF has been generated from an entry in the Cambridge 
# Structural Database, then it will include bibliographic, chemical, 
# crystal, experimental, refinement or atomic coordinate data resulting 
# from the CCDC's data processing and validation procedures.
#
#######################################################################

data_MINCUH01
_symmetry_cell_setting           triclinic
_symmetry_space_group_name_H-M   'P -1'
_symmetry_Int_Tables_number      2
_space_group_name_Hall           '-P 1'
loop_
_symmetry_equiv_pos_site_id
_symmetry_equiv_pos_as_xyz
1 x,y,z
2 -x,-y,-z
_cell_length_a                   7.115(1)
_cell_length_b                   7.559(1)
_cell_length_c                   12.025(1)
_cell_angle_alpha                79.75(1)
_cell_angle_beta                 81.12(1)
_cell_angle_gamma                68.16(1)
_cell_volume                     587.975
loop_
_atom_site_label
_atom_site_type_symbol
_atom_site_fract_x
_atom_site_fract_y
_atom_site_fract_z
Na1 Na 0.86829(10) 0.37494(10) -0.41359(6)
Na2 Na 0.63848(10) 0.46111(10) -0.13821(6)
O1 O 0.7983(2) 0.7019(2) -0.49351(12)
H1 H 0.719(4) 0.759(4) -0.542(2)
H2 H 0.742(5) 0.754(5) -0.436(3)
O2 O 0.7334(2) 0.2457(2) -0.53500(13)
H3 H 0.693(6) 0.178(5) -0.494(3)
H4 H 0.805(6) 0.188(5) -0.590(3)
O3 O 0.9618(2) 0.4653(2) -0.24922(12)
H5 H 1.061(4) 0.378(4) -0.233(2)
H6 H 0.978(4) 0.559(5) -0.235(2)
O4 O 0.5308(2) 0.4654(2) -0.31966(12)
H7 H 0.450(4) 0.553(4) -0.363(2)
H8 H 0.490(4) 0.376(4) -0.312(2)
O5 O 0.6998(2) 0.5196(2) 0.04250(12)
H9 H 0.736(4) 0.613(5) 0.040(2)
H10 H 0.781(4) 0.437(4) 0.077(2)
N1 N 0.8178(2) 0.1181(2) -0.17665(12)
N2 N 0.9244(2) 0.0816(2) -0.27667(12)
N3 N 1.0332(2) -0.1022(2) -0.27219(13)
N4 N 1.0000(2) -0.1926(2) -0.16909(13)
C1 C 0.8671(2) -0.0526(2) -0.11352(14)
N5 N 0.7928(2) -0.0925(2) -0.00053(12)
N6 N 0.6852(2) 0.0588(2) 0.04124(12)
C2 C 0.6099(2) 0.0276(2) 0.15455(14)
N7 N 0.6591(2) -0.1350(2) 0.22592(13)
N8 N 0.5485(2) -0.0837(2) 0.32295(13)
N9 N 0.4376(2) 0.1016(2) 0.30846(13)
N10 N 0.4746(2) 0.1763(2) 0.20249(12)
Na1A Na 1.13171(10) 0.62506(10) -0.58641(6)
Na2A Na 0.36152(10) 0.53889(10) 0.13821(6)
O1A O 1.2017(2) 0.2981(2) -0.50649(12)
H1A H 1.281(4) 0.241(4) -0.458(2)
H2A H 1.258(5) 0.246(5) -0.564(3)
O5A O 0.3002(2) 0.4804(2) -0.04250(12)
H9A H 0.264(4) 0.387(5) -0.040(2)
H10A H 0.219(4) 0.563(4) -0.077(2)
N10A N 0.5254(2) 0.8237(2) -0.20249(12)
loop_
_geom_bond_atom_site_label_1
_geom_bond_atom_site_label_2
_geom_bond_site_symmetry_1
_geom_bond_site_symmetry_2
Na1 O1 1_555 1_555
Na2 O3 1_555 1_555
O1 H1 1_555 1_555
H2 O1 1_555 1_555
O2 Na1 1_555 1_555
H3 O2 1_555 1_555
H4 O2 1_555 1_555
O3 Na1 1_555 1_555
H5 O3 1_555 1_555
H6 O3 1_555 1_555
O4 Na1 1_555 1_555
H7 O4 1_555 1_555
H8 O4 1_555 1_555
O5 Na2 1_555 1_555
H9 O5 1_555 1_555
H10 O5 1_555 1_555
N1 Na2 1_555 1_555
N2 Na1 1_555 1_555
N3 N2 1_555 1_555
N4 N3 1_555 1_555
C1 N1 1_555 1_555
N5 C1 1_555 1_555
N6 N5 1_555 1_555
C2 N6 1_555 1_555
N7 C2 1_555 1_555
N8 N7 1_555 1_555
N9 N8 1_555 1_555
N10 C2 1_555 1_555
Na1A O1 1_555 1_555
Na2A O5 1_555 1_555
O1A Na1 1_555 1_555
H1A O1A 1_555 1_555
H2A O1A 1_555 1_555
O5A Na2 1_555 1_555
H9A O5A 1_555 1_555
H10A O5A 1_555 1_555
N10A Na2 1_555 1_555
Na2 O4 1_555 1_555
N1 N2 1_555 1_555
N4 C1 1_555 1_555
N9 N10 1_555 1_555
N10 Na2A 1_555 1_555
Na1A O1A 1_555 1_555
Na2A O5A 1_555 1_555

#END
