
#######################################################################
#
#                 Cambridge Crystallographic Data Centre
#                                CCDC 
#
#######################################################################
#
# If this CIF has been generated from an entry in the Cambridge 
# Structural Database, then it will include bibliographic, chemical, 
# crystal, experimental, refinement or atomic coordinate data resulting 
# from the CCDC's data processing and validation procedures.
#
#######################################################################

data_MINCIX
_symmetry_cell_setting           monoclinic
_symmetry_space_group_name_H-M   'C 2/c'
_symmetry_Int_Tables_number      15
_space_group_name_Hall           '-C 2yn'
loop_
_symmetry_equiv_pos_site_id
_symmetry_equiv_pos_as_xyz
1 x,y,z
2 -x,y,1/2-z
3 1/2+x,1/2+y,z
4 1/2-x,1/2+y,1/2-z
5 -x,-y,-z
6 x,-y,1/2+z
7 1/2-x,1/2-y,-z
8 1/2+x,1/2-y,1/2+z
_cell_length_a                   24.7463(2)
_cell_length_b                   16.9612(2)
_cell_length_c                   25.1036(2)
_cell_angle_alpha                90
_cell_angle_beta                 116.887(2)
_cell_angle_gamma                90
_cell_volume                     9397.65
loop_
_atom_site_label
_atom_site_type_symbol
_atom_site_fract_x
_atom_site_fract_y
_atom_site_fract_z
C1 C 0.2839(3) 0.8564(4) 0.1547(3)
C2 C 0.3078(3) 0.8104(4) 0.2115(3)
C3 C 0.3687(2) 0.8124(4) 0.2494(2)
H1 H 0.3940 0.8458 0.2399
C4 C 0.3952(2) 0.7664(4) 0.3020(3)
C5 C 0.3567(3) 0.7167(4) 0.3160(3)
C6 C 0.2943(3) 0.7211(4) 0.2785(3)
H2 H 0.2674 0.6924 0.2888
C7 C 0.2712(3) 0.7656(4) 0.2276(3)
H3 H 0.2287 0.7656 0.2027
C8 C 0.3305(3) 0.5070(5) 0.4433(3)
C9 C 0.3691(3) 0.5651(5) 0.4293(4)
C10 C 0.3457(3) 0.6165(4) 0.3831(3)
H4 H 0.3029 0.6200 0.3603
C11 C 0.3824(3) 0.6646(4) 0.3678(3)
C12 C 0.4459(3) 0.6612(4) 0.4025(3)
C13 C 0.4686(3) 0.6077(5) 0.4505(4)
H5 H 0.5112 0.6041 0.4742
C14 C 0.4325(3) 0.5613(5) 0.4644(4)
H6 H 0.4496 0.5265 0.4976
C15 C 0.6550(3) 0.7485(4) 0.4464(3)
C16 C 0.5869(3) 0.7546(4) 0.4092(3)
C17 C 0.5491(2) 0.7075(4) 0.4220(3)
H7 H 0.5663 0.6722 0.4549
C18 C 0.4852(2) 0.7101(4) 0.3875(3)
C19 C 0.4606(2) 0.7637(4) 0.3391(3)
C20 C 0.5012(3) 0.8119(4) 0.3283(3)
H8 H 0.4851 0.8474 0.2955
C21 C 0.5624(3) 0.8098(4) 0.3627(3)
H9 H 0.5880 0.8452 0.3553
C22 C 0.1887(6) 1.0708(7) -0.0557(6)
H10 H 0.1457 1.0748 -0.0658
H11 H 0.1956 1.0939 -0.0879
H12 H 0.2129 1.0992 -0.0184
C23 C 0.2976(4) 0.8663(5) -0.0762(4)
H13 H 0.3042 0.9233 -0.0758
H14 H 0.2803 0.8469 -0.1174
H15 H 0.3364 0.8399 -0.0523
O1 O 0.31518(17) 0.9058(2) 0.14539(18)
O2 O 0.23106(19) 0.8386(3) 0.1144(2)
O3 O 0.27378(17) 0.5241(2) 0.42350(19)
O4 O 0.35255(19) 0.4496(3) 0.4748(3)
O5 O 0.67291(17) 0.6953(3) 0.4847(2)
O6 O 0.6883(2) 0.7914(3) 0.4361(2)
O7 O 0.2057(2) 0.9926(4) -0.0488(2)
H16 H 0.2303 0.9851 -0.0629
O8 O 0.2582(2) 0.8505(3) -0.0524(2)
H17 H 0.2558 0.8030 -0.0443
O9 O 0.3284(2) 0.9771(4) 0.04148(19)
H18 H 0.3632 0.9884 0.0695
H19 H 0.3246 0.9969 0.0089
Tb1 Tb 0.244643(13) 0.90125(2) 0.034433(14)
O3C O 0.22622(17) 1.0241(2) 0.07650(19)
O4C O 0.14745(19) 0.9496(3) 0.0252(3)
O5G O 0.17291(17) 0.8047(3) -0.0153(2)
O6A O 0.3117(2) 0.7914(3) 0.0639(2)
Tb1A Tb 0.755357(13) 0.90125(2) 0.465567(14)
Tb1C Tb 0.255357(13) 0.40125(2) 0.465567(14)
Tb1G Tb 0.744643(13) 0.59875(2) 0.534433(14)
loop_
_geom_bond_atom_site_label_1
_geom_bond_atom_site_label_2
_geom_bond_site_symmetry_1
_geom_bond_site_symmetry_2
C1 C2 1_555 1_555
C2 C3 1_555 1_555
C3 H1 1_555 1_555
C4 C3 1_555 1_555
C5 C4 1_555 1_555
C6 C5 1_555 1_555
H2 C6 1_555 1_555
C7 C2 1_555 1_555
H3 C7 1_555 1_555
C8 C9 1_555 1_555
C9 C10 1_555 1_555
C10 H4 1_555 1_555
C11 C5 1_555 1_555
C12 C11 1_555 1_555
C13 C12 1_555 1_555
H5 C13 1_555 1_555
C14 C9 1_555 1_555
H6 C14 1_555 1_555
C15 C16 1_555 1_555
C16 C17 1_555 1_555
C17 H7 1_555 1_555
C18 C12 1_555 1_555
C19 C4 1_555 1_555
C20 C19 1_555 1_555
H8 C20 1_555 1_555
C21 C16 1_555 1_555
H9 C21 1_555 1_555
C22 H10 1_555 1_555
H11 C22 1_555 1_555
H12 C22 1_555 1_555
C23 H13 1_555 1_555
H14 C23 1_555 1_555
H15 C23 1_555 1_555
O1 C1 1_555 1_555
O2 C1 1_555 1_555
O3 C8 1_555 1_555
O4 C8 1_555 1_555
O5 C15 1_555 1_555
O6 C15 1_555 1_555
O7 C22 1_555 1_555
H16 O7 1_555 1_555
O8 C23 1_555 1_555
H17 O8 1_555 1_555
O9 H18 1_555 1_555
H19 O9 1_555 1_555
Tb1 O1 1_555 1_555
O3C Tb1 1_555 1_555
O4C Tb1 1_555 1_555
O5G Tb1 1_555 1_555
O6A Tb1 1_555 1_555
Tb1A O6 1_555 1_555
Tb1C O3 1_555 1_555
Tb1G O5 1_555 1_555
C6 C7 1_555 1_555
C10 C11 1_555 1_555
C13 C14 1_555 1_555
C17 C18 1_555 1_555
C18 C19 1_555 1_555
C20 C21 1_555 1_555
O2 Tb1 1_555 1_555
O4 Tb1C 1_555 1_555
O7 Tb1 1_555 1_555
O8 Tb1 1_555 1_555
O9 Tb1 1_555 1_555

#END
