
#######################################################################
#
#                 Cambridge Crystallographic Data Centre
#                                CCDC 
#
#######################################################################
#
# If this CIF has been generated from an entry in the Cambridge 
# Structural Database, then it will include bibliographic, chemical, 
# crystal, experimental, refinement or atomic coordinate data resulting 
# from the CCDC's data processing and validation procedures.
#
#######################################################################

data_MINCAN
_symmetry_cell_setting           triclinic
_symmetry_space_group_name_H-M   'P -1'
_symmetry_Int_Tables_number      2
_space_group_name_Hall           '-P 1'
loop_
_symmetry_equiv_pos_site_id
_symmetry_equiv_pos_as_xyz
1 x,y,z
2 -x,-y,-z
_cell_length_a                   8.8515(16)
_cell_length_b                   8.8826(15)
_cell_length_c                   9.1193(16)
_cell_angle_alpha                88.32(2)
_cell_angle_beta                 82.48(2)
_cell_angle_gamma                61.074(18)
_cell_volume                     621.675
loop_
_atom_site_label
_atom_site_type_symbol
_atom_site_fract_x
_atom_site_fract_y
_atom_site_fract_z
Li1 Li 0.2769(4) 0.3034(4) 0.3797(4)
Li2 Li 0.1105(4) 0.3742(4) 0.0755(4)
N1 N 0.2712(2) 0.82941(19) 0.50902(19)
C1 C 0.1446(2) 0.9294(2) 0.6256(2)
N2 N 0.0185(2) 0.90321(19) 0.69857(19)
N3 N -0.0662(2) 1.0346(2) 0.7974(2)
N4 N 0.0066(2) 1.1341(2) 0.7854(2)
N5 N 0.1402(2) 1.0712(2) 0.6768(2)
N6 N 0.2634(2) 0.69550(18) 0.47704(18)
C2 C 0.3905(2) 0.5935(2) 0.3612(2)
N7 N 0.5223(2) 0.61472(19) 0.29186(19)
N8 N 0.6063(2) 0.48197(19) 0.19358(19)
N9 N 0.5295(2) 0.38622(19) 0.20422(19)
N10 N 0.3928(2) 0.45288(18) 0.31036(19)
O1 O 0.22412(19) 0.33145(17) 0.59491(16)
H1 H 0.199(4) 0.255(4) 0.629(3)
H2 H 0.310(4) 0.326(3) 0.637(3)
O2 O 0.4171(3) 0.0570(2) 0.3315(2)
H3 H 0.380(5) -0.018(5) 0.368(4)
H4 H 0.514(5) 0.015(5) 0.290(5)
O3 O 0.06402(18) 0.36290(17) 0.29190(16)
H5 H -0.031(4) 0.459(3) 0.331(3)
H6 H 0.024(4) 0.288(4) 0.307(4)
O4 O 0.3026(2) 0.20582(19) -0.05450(19)
H7 H 0.403(4) 0.192(3) -0.054(3)
H8 H 0.313(4) 0.110(4) -0.041(3)
O5 O 0.09634(18) 0.59230(17) 0.01214(17)
H9 H 0.076(4) 0.679(4) 0.082(4)
H10 H 0.197(4) 0.568(3) -0.051(3)
O5A O -0.09634(18) 0.40770(17) -0.01214(17)
Li2A Li -0.1105(4) 0.6258(4) -0.0755(4)
H9A H -0.076(4) 0.321(4) -0.082(4)
H10A H -0.197(4) 0.432(3) 0.051(3)
O6 O 0.3650(2) -0.11787(18) 0.0022(2)
H11 H 0.389(4) -0.198(4) -0.067(4)
H12 H 0.261(5) -0.097(4) 0.067(4)
loop_
_geom_bond_atom_site_label_1
_geom_bond_atom_site_label_2
_geom_bond_site_symmetry_1
_geom_bond_site_symmetry_2
Li1 N10 1_555 1_555
Li2 O3 1_555 1_555
N1 C1 1_555 1_555
C1 N2 1_555 1_555
N2 N3 1_555 1_555
N3 N4 1_555 1_555
N4 N5 1_555 1_555
N5 C1 1_555 1_555
N6 N1 1_555 1_555
C2 N6 1_555 1_555
N7 C2 1_555 1_555
N8 N7 1_555 1_555
N9 N8 1_555 1_555
N10 C2 1_555 1_555
O1 Li1 1_555 1_555
H1 O1 1_555 1_555
H2 O1 1_555 1_555
O2 Li1 1_555 1_555
H3 O2 1_555 1_555
H4 O2 1_555 1_555
O3 Li1 1_555 1_555
H5 O3 1_555 1_555
H6 O3 1_555 1_555
O4 Li2 1_555 1_555
H7 O4 1_555 1_555
H8 O4 1_555 1_555
O5 Li2 1_555 1_555
H9 O5 1_555 1_555
H10 O5 1_555 1_555
O6 H11 1_555 1_555
H12 O6 1_555 1_555
O5A Li2 1_555 1_555
Li2A O5 1_555 1_555
H9A O5A 1_555 1_555
H10A O5A 1_555 1_555
N9 N10 1_555 1_555
O5A Li2A 1_555 1_555

#END
