
#######################################################################
#
#                 Cambridge Crystallographic Data Centre
#                                CCDC 
#
#######################################################################
#
# If this CIF has been generated from an entry in the Cambridge 
# Structural Database, then it will include bibliographic, chemical, 
# crystal, experimental, refinement or atomic coordinate data resulting 
# from the CCDC's data processing and validation procedures.
#
#######################################################################

data_MINCER
_symmetry_cell_setting           monoclinic
_symmetry_space_group_name_H-M   'C 2/c'
_symmetry_Int_Tables_number      15
_space_group_name_Hall           '-C 2yn'
loop_
_symmetry_equiv_pos_site_id
_symmetry_equiv_pos_as_xyz
1 x,y,z
2 1/2+x,1/2+y,z
3 x,-y,1/2+z
4 1/2+x,1/2-y,1/2+z
5 -x,-y,-z
6 1/2-x,1/2-y,-z
7 -x,y,1/2-z
8 1/2-x,1/2+y,1/2-z
_cell_length_a                   16.3414(2)
_cell_length_b                   9.4086(2)
_cell_length_c                   8.5886(2)
_cell_angle_alpha                90
_cell_angle_beta                 121.0060(9)
_cell_angle_gamma                90
_cell_volume                     1131.81
loop_
_atom_site_label
_atom_site_type_symbol
_atom_site_fract_x
_atom_site_fract_y
_atom_site_fract_z
Ba1 Ba 0.0000 -0.08080(3) 0.2500
C1 C -0.2498(3) 0.1734(4) -0.3136(5)
N1 N -0.2818(2) 0.2444(3) -0.4803(4)
N2 N -0.3054(3) 0.1697(4) -0.2432(5)
N3 N -0.2558(3) 0.0953(4) -0.0898(6)
N4 N -0.1739(3) 0.0573(4) -0.0704(5)
N5 N -0.1677(3) 0.1055(4) -0.2113(5)
O2 O 0.0000 -0.3783(7) 0.2500
H3 H -0.037(5) -0.439(6) 0.177(10)
O3 O 0.0282(2) -0.1671(3) 0.5945(4)
H4 H -0.012(3) -0.229(4) 0.575(10)
H5 H 0.0803(18) -0.209(5) 0.652(7)
N1E N -0.2182(2) 0.2556(3) -0.5197(4)
C1E C -0.2502(3) 0.3266(4) -0.6864(5)
N2E N -0.1946(3) 0.3303(4) -0.7568(5)
N3E N -0.2442(3) 0.4047(4) -0.9102(6)
N4E N -0.3261(3) 0.4427(4) -0.9296(5)
N5E N -0.3323(3) 0.3945(4) -0.7887(5)
H3F H 0.037(5) -0.439(6) 0.323(10)
O3B O 0.0282(2) 0.1671(3) 0.0945(4)
H4B H -0.012(3) 0.229(4) 0.075(10)
H5B H 0.0803(18) 0.209(5) 0.152(7)
N4F N 0.1739(3) 0.0573(4) 0.5704(5)
N5B N -0.1677(3) -0.1055(4) 0.2887(5)
N5D N 0.1677(3) -0.1055(4) 0.2113(5)
O3D O -0.0282(2) 0.1671(3) 0.4055(4)
O3F O -0.0282(2) -0.1671(3) -0.0945(4)
Ba1B Ba 0.0000 0.08080(3) -0.2500
Ba1B_2 Ba 0.0000 0.08080(3) 0.7500
Ba1C Ba -0.5000 0.58080(3) -1.2500
Ba1A Ba -0.5000 0.41920(3) -0.7500
H4D H 0.012(3) 0.229(4) 0.425(10)
H5D H -0.0803(18) 0.209(5) 0.348(7)
H4F H 0.012(3) -0.229(4) -0.075(10)
H5F H -0.0803(18) -0.209(5) -0.152(7)
O1 O -0.1008(3) 0.4029(3) -0.0025(6)
H1 H -0.151(3) 0.396(6) 0.001(9)
H2 H -0.121(4) 0.424(7) -0.111(3)
loop_
_geom_bond_atom_site_label_1
_geom_bond_atom_site_label_2
_geom_bond_site_symmetry_1
_geom_bond_site_symmetry_2
Ba1 N4 1_555 1_555
C1 N1 1_555 1_555
N1 N1E 1_555 1_555
N2 C1 1_555 1_555
N3 N2 1_555 1_555
N4 N3 1_555 1_555
N5 C1 1_555 1_555
O1 H1 1_555 1_555
H2 O1 1_555 1_555
O2 Ba1 1_555 1_555
H3 O2 1_555 1_555
O3 Ba1 1_555 1_555
H4 O3 1_555 1_555
H5 O3 1_555 1_555
N1E C1E 1_555 1_555
C1E N2E 1_555 1_555
N2E N3E 1_555 1_555
N3E N4E 1_555 1_555
N4E N5E 1_555 1_555
N5E C1E 1_555 1_555
H3F O2 1_555 1_555
O3B Ba1 1_555 1_555
H4B O3B 1_555 1_555
H5B O3B 1_555 1_555
N4F Ba1 1_555 1_555
N5B Ba1 1_555 1_555
N5D Ba1 1_555 1_555
O3D Ba1 1_555 1_555
O3F Ba1 1_555 1_555
Ba1B N5 1_555 1_555
Ba1B_2 O3 1_555 1_555
Ba1C N4E 1_555 1_555
Ba1A N5E 1_555 1_555
H4D O3D 1_555 1_555
H5D O3D 1_555 1_555
H4F O3F 1_555 1_555
H5F O3F 1_555 1_555
N4 N5 1_555 1_555
O3B Ba1B 1_555 1_555
O3D Ba1B_2 1_555 1_555
O3F Ba1B 1_555 1_555

#END
