
#######################################################################
#
#                 Cambridge Crystallographic Data Centre
#                                CCDC 
#
#######################################################################
#
# If this CIF has been generated from an entry in the Cambridge 
# Structural Database, then it will include bibliographic, chemical, 
# crystal, experimental, refinement or atomic coordinate data resulting 
# from the CCDC's data processing and validation procedures.
#
#######################################################################

data_MINDIY
_symmetry_cell_setting           monoclinic
_symmetry_space_group_name_H-M   'P 21/c'
_symmetry_Int_Tables_number      14
_space_group_name_Hall           '-P 2ybc'
loop_
_symmetry_equiv_pos_site_id
_symmetry_equiv_pos_as_xyz
1 x,y,z
2 -x,1/2+y,1/2-z
3 -x,-y,-z
4 x,1/2-y,1/2+z
_cell_length_a                   9.1208(5)
_cell_length_b                   15.7138(9)
_cell_length_c                   14.9519(8)
_cell_angle_alpha                90
_cell_angle_beta                 102.7620(10)
_cell_angle_gamma                90
_cell_volume                     2090
loop_
_atom_site_label
_atom_site_type_symbol
_atom_site_fract_x
_atom_site_fract_y
_atom_site_fract_z
Au1 Au 0.36232(3) 0.744887(14) 0.503478(15)
C1 C 0.3654(7) 0.6525(4) 0.5943(4)
C2 C 0.3029(7) 0.3412(4) 0.5894(4)
Au2 Au 0.29095(3) 0.251184(14) 0.998457(14)
Cd1 Cd 0.32647(4) 0.49902(2) 0.75371(2)
N1 N 0.5790(5) 0.4607(3) 0.8164(3)
N2 N 0.0667(5) 0.5259(3) 0.7041(3)
N3 N 0.2690(6) 0.4001(3) 0.8595(3)
N4 N 0.3112(6) 0.3941(3) 0.6428(3)
N5 N 0.3467(6) 0.6094(3) 0.8596(3)
N6 N 0.3669(6) 0.5995(3) 0.6463(3)
C3 C 0.2744(6) 0.3458(4) 0.9091(4)
C4 C 0.3534(7) 0.6629(4) 0.9117(4)
C5 C 0.6516(7) 0.4930(4) 0.8967(4)
H1 H 0.6042 0.5349 0.9241
C6 C 0.6523(7) 0.4013(4) 0.7797(4)
H2 H 0.6044 0.3782 0.7236
C7 C -0.1547(7) 0.6023(4) 0.7201(5)
C8 C 0.7939(7) 0.3718(4) 0.8192(5)
C9 C -0.0162(7) 0.4878(5) 0.6299(5)
H3 H 0.0295 0.4477 0.5994
C10 C 0.7937(8) 0.4669(5) 0.9406(4)
H4 H 0.8404 0.4908 0.9966
C11 C -0.0039(6) 0.5807(4) 0.7477(4)
H5 H 0.0516 0.6064 0.8005
C12 C 0.8650(7) 0.4059(4) 0.9014(5)
H6 H 0.9609 0.3877 0.9302
C13 C -0.1656(8) 0.5052(5) 0.5969(6)
H7 H -0.2187 0.4790 0.5438
C14 C -0.2353(8) 0.5618(5) 0.6434(5)
H8 H -0.3374 0.5728 0.6230
C15 C -0.2232(9) 0.6676(5) 0.7729(6)
H9 H -0.2124 0.7233 0.7488
H10 H -0.1728 0.6657 0.8365
H11 H -0.3280 0.6552 0.7671
C16 C 0.8670(8) 0.3028(5) 0.7729(6)
H12 H 0.9722 0.3149 0.7804
H13 H 0.8203 0.3010 0.7088
H14 H 0.8547 0.2488 0.8003
Au1C Au 0.36232(3) 0.755113(14) 1.003478(15)
C2C C 0.3029(7) 0.1588(4) 1.0894(4)
Au2C Au 0.29095(3) 0.248816(14) 0.498457(14)
C4C C 0.3534(7) 0.8371(4) 0.4117(4)
loop_
_geom_bond_atom_site_label_1
_geom_bond_atom_site_label_2
_geom_bond_site_symmetry_1
_geom_bond_site_symmetry_2
Au1 C1 1_555 1_555
C1 N6 1_555 1_555
C2 N4 1_555 1_555
Au2 C3 1_555 1_555
Cd1 N1 1_555 1_555
N1 C5 1_555 1_555
N2 Cd1 1_555 1_555
N3 Cd1 1_555 1_555
N4 Cd1 1_555 1_555
N5 Cd1 1_555 1_555
N6 Cd1 1_555 1_555
C3 N3 1_555 1_555
C4 N5 1_555 1_555
C5 H1 1_555 1_555
C6 N1 1_555 1_555
H2 C6 1_555 1_555
C7 C11 1_555 1_555
C8 C6 1_555 1_555
C9 N2 1_555 1_555
H3 C9 1_555 1_555
C10 C5 1_555 1_555
H4 C10 1_555 1_555
C11 N2 1_555 1_555
H5 C11 1_555 1_555
C12 C8 1_555 1_555
H6 C12 1_555 1_555
C13 C9 1_555 1_555
H7 C13 1_555 1_555
C14 C7 1_555 1_555
H8 C14 1_555 1_555
C15 C7 1_555 1_555
H9 C15 1_555 1_555
H10 C15 1_555 1_555
H11 C15 1_555 1_555
C16 C8 1_555 1_555
H12 C16 1_555 1_555
H13 C16 1_555 1_555
H14 C16 1_555 1_555
Au1C C4 1_555 1_555
C2C Au2 1_555 1_555
Au2C C2 1_555 1_555
C4C Au1 1_555 1_555
C10 C12 1_555 1_555
C13 C14 1_555 1_555

#END
