
#######################################################################
#
#                 Cambridge Crystallographic Data Centre
#                                CCDC 
#
#######################################################################
#
# If this CIF has been generated from an entry in the Cambridge 
# Structural Database, then it will include bibliographic, chemical, 
# crystal, experimental, refinement or atomic coordinate data resulting 
# from the CCDC's data processing and validation procedures.
#
#######################################################################

data_MINGAT
_symmetry_cell_setting           triclinic
_symmetry_space_group_name_H-M   'P -1'
_symmetry_Int_Tables_number      2
_space_group_name_Hall           '-P 1'
loop_
_symmetry_equiv_pos_site_id
_symmetry_equiv_pos_as_xyz
1 x,y,z
2 -x,-y,-z
_cell_length_a                   11.2088(4)
_cell_length_b                   13.4710(5)
_cell_length_c                   18.9133(7)
_cell_angle_alpha                69.6480(10)
_cell_angle_beta                 80.1240(10)
_cell_angle_gamma                68.5210(10)
_cell_volume                     2488.37
loop_
_atom_site_label
_atom_site_type_symbol
_atom_site_fract_x
_atom_site_fract_y
_atom_site_fract_z
C1 C 1.1683(3) 0.2415(3) 0.29177(18)
C2 C 1.1610(3) 0.1318(3) 0.29320(18)
C3 C 1.0430(3) 0.1167(3) 0.29977(18)
H1 H 0.9666 0.1749 0.3063
C4 C 1.0352(3) 0.0174(3) 0.29695(18)
C5 C 1.1478(3) -0.0674(3) 0.28762(19)
H2 H 1.1435 -0.1350 0.2846
C6 C 1.2658(3) -0.0539(3) 0.2827(2)
H3 H 1.3423 -0.1126 0.2771
C7 C 1.2727(3) 0.0442(3) 0.28584(19)
H4 H 1.3541 0.0526 0.2830
C8 C 0.9071(3) 0.0023(3) 0.30248(18)
C9 C 0.3346(3) 0.2555(3) 0.71091(17)
C10 C 0.3391(3) 0.3651(3) 0.71219(18)
C11 C 0.4556(3) 0.3833(3) 0.70514(17)
H5 H 0.5331 0.3271 0.6972
C12 C 0.4597(3) 0.4824(3) 0.70960(18)
C13 C 0.3459(3) 0.5646(3) 0.7210(2)
H6 H 0.3482 0.6322 0.7251
C14 C 0.2295(3) 0.5482(3) 0.7265(2)
H7 H 0.1518 0.6051 0.7333
C15 C 0.2262(3) 0.4491(3) 0.7220(2)
H8 H 0.1460 0.4382 0.7257
C16 C 0.5861(3) 0.5015(3) 0.70207(19)
C17 C 1.0306(3) 0.3691(3) 0.44554(18)
H9 H 0.9744 0.3644 0.4154
C18 C 1.1861(3) 0.3961(3) 0.4807(2)
H10 H 1.2608 0.4145 0.4792
C19 C 1.1161(3) 0.3602(3) 0.5442(2)
H11 H 1.1322 0.3489 0.5946
C20 C 0.9167(3) 0.3069(3) 0.57294(19)
H12 H 0.8631 0.3673 0.5946
H13 H 0.9574 0.2399 0.6151
C21 C 0.8322(3) 0.2789(3) 0.53413(19)
C22 C 0.8780(3) 0.1888(3) 0.5069(2)
H14 H 0.9659 0.1436 0.5116
C23 C 0.7991(3) 0.1625(3) 0.4728(2)
H15 H 0.8334 0.1003 0.4539
C24 C 0.6703(3) 0.2262(3) 0.46594(19)
C25 C 0.6239(3) 0.3168(3) 0.4934(2)
H16 H 0.5359 0.3618 0.4891
C26 C 0.7035(3) 0.3430(3) 0.5270(2)
H17 H 0.6697 0.4056 0.5454
C27 C 0.5851(3) 0.1979(3) 0.42727(19)
H18 H 0.5425 0.2654 0.3860
H19 H 0.6390 0.1390 0.4044
C28 C 0.4746(3) 0.1321(3) 0.55469(19)
H20 H 0.5299 0.1384 0.5846
C29 C 0.3222(3) 0.0997(3) 0.52056(19)
H21 H 0.2493 0.0787 0.5224
C30 C 0.3898(3) 0.1378(3) 0.4571(2)
H22 H 0.3737 0.1482 0.4068
C31 C 1.0636(3) 0.6731(3) 0.20771(18)
H23 H 1.0874 0.6998 0.2417
C32 C 1.0492(3) 0.5644(3) 0.1510(2)
H24 H 1.0618 0.4994 0.1377
C33 C 0.9706(3) 0.6695(3) 0.1168(2)
H25 H 0.9187 0.6914 0.0756
C34 C 0.9112(3) 0.8574(3) 0.13767(19)
H26 H 0.9193 0.8803 0.1805
H27 H 0.8190 0.8714 0.1341
C35 C 0.9595(3) 0.9290(3) 0.06538(19)
C36 C 0.8811(3) 1.0373(3) 0.0336(2)
H28 H 0.7984 1.0642 0.0564
C37 C 0.4296(4) -0.4321(4) 0.9400(2)
H29 H 0.3780 -0.3844 0.8982
C38 C 0.5491(3) -0.4309(3) 0.93834(19)
C39 C 0.6209(4) -0.4991(4) 0.9993(2)
H30 H 0.7055 -0.4995 1.0001
C40 C 1.0787(3) 0.8924(3) 0.0312(2)
H31 H 1.1342 0.8180 0.0522
C41 C 0.6045(3) -0.3580(3) 0.8699(2)
H32 H 0.6931 -0.3683 0.8795
H33 H 0.6089 -0.3825 0.8257
C42 C 0.4515(3) -0.1767(3) 0.79481(18)
H34 H 0.4364 -0.2054 0.7591
C43 C 0.4469(3) -0.0653(3) 0.85416(19)
H35 H 0.4269 0.0008 0.8679
C44 C 0.5253(3) -0.1676(3) 0.8912(2)
H36 H 0.5702 -0.1870 0.9350
N1 N 1.1316(2) 0.4017(2) 0.41875(15)
N2 N 1.0180(3) 0.3435(2) 0.52109(15)
N3 N 0.3755(2) 0.0960(2) 0.58225(15)
N4 N 0.4866(2) 0.1584(2) 0.47926(15)
N5 N 1.1076(3) 0.5675(2) 0.20816(15)
N6 N 0.9807(3) 0.7379(2) 0.15290(15)
N7 N 0.4000(2) -0.0710(2) 0.79320(15)
N8 N 0.5273(3) -0.2384(2) 0.85267(16)
O1 O 1.0681(2) 0.32236(19) 0.29137(15)
O2 O 1.2794(2) 0.24650(18) 0.29156(13)
O3 O 0.8062(2) 0.0766(2) 0.31280(15)
O4 O 0.9086(2) -0.0881(2) 0.29473(14)
O5 O 0.2247(2) 0.24750(18) 0.71208(12)
O6 O 0.4361(2) 0.1771(2) 0.70900(14)
O7 O 0.5820(2) 0.5907(2) 0.71313(14)
O8 O 0.6875(2) 0.4331(2) 0.68585(15)
Cd1 Cd 1.21121(2) 0.423270(19) 0.301290(13)
Cd2 Cd 0.29640(2) 0.072572(19) 0.699760(13)
C31A C 0.9364(3) 1.3269(3) -0.20771(18)
H23A H 0.9126 1.3002 -0.2417
C32A C 0.9508(3) 1.4356(3) -0.1510(2)
H24A H 0.9382 1.5006 -0.1377
C33A C 1.0294(3) 1.3305(3) -0.1168(2)
H25A H 1.0813 1.3086 -0.0756
C34A C 1.0888(3) 1.1426(3) -0.13767(19)
H26A H 1.0807 1.1197 -0.1805
H27A H 1.1810 1.1286 -0.1341
C35A C 1.0405(3) 1.0710(3) -0.06538(19)
C36A C 1.1189(3) 0.9627(3) -0.0336(2)
H28A H 1.2016 0.9358 -0.0564
C40A C 0.9213(3) 1.1076(3) -0.0312(2)
H31A H 0.8658 1.1820 -0.0522
N5A N 0.8924(3) 1.4325(2) -0.20816(15)
N6A N 1.0193(3) 1.2621(2) -0.15290(15)
C37A C 0.5704(4) -0.5679(4) 1.0600(2)
H29A H 0.6220 -0.6156 1.1018
C38A C 0.4509(3) -0.5691(3) 1.06166(19)
C39A C 0.3791(4) -0.5009(4) 1.0007(2)
H30A H 0.2945 -0.5005 0.9999
C41A C 0.3955(3) -0.6420(3) 1.1301(2)
H32A H 0.3069 -0.6317 1.1205
H33A H 0.3911 -0.6175 1.1743
C42A C 0.5485(3) -0.8233(3) 1.20519(18)
H34A H 0.5636 -0.7946 1.2409
C43A C 0.5531(3) -0.9347(3) 1.14584(19)
H35A H 0.5731 -1.0008 1.1321
C44A C 0.4747(3) -0.8324(3) 1.1088(2)
H36A H 0.4298 -0.8130 1.0650
N7A N 0.6000(2) -0.9290(2) 1.20680(15)
N8A N 0.4727(3) -0.7616(2) 1.14733(16)
C1A C -0.1683(3) -1.2415(3) 1.70823(18)
C2A C -0.1610(3) -1.1318(3) 1.70680(18)
C3A C -0.0430(3) -1.1167(3) 1.70023(18)
H1A H 0.0334 -1.1749 1.6937
C4A C -0.0352(3) -1.0174(3) 1.70305(18)
C5A C -0.1478(3) -0.9326(3) 1.71238(19)
H2A H -0.1435 -0.8650 1.7154
C6A C -0.2658(3) -0.9461(3) 1.7173(2)
H3A H -0.3423 -0.8874 1.7229
C7A C -0.2727(3) -1.0442(3) 1.71416(19)
H4A H -0.3541 -1.0526 1.7170
C8A C 0.0929(3) -1.0023(3) 1.69752(18)
C9A C 0.6654(3) -1.2555(3) 1.28909(17)
C10A C 0.6609(3) -1.3651(3) 1.28781(18)
C11A C 0.5444(3) -1.3833(3) 1.29486(17)
H5A H 0.4669 -1.3271 1.3028
C12A C 0.5403(3) -1.4824(3) 1.29040(18)
C13A C 0.6541(3) -1.5646(3) 1.2790(2)
H6A H 0.6518 -1.6322 1.2749
C14A C 0.7705(3) -1.5482(3) 1.2735(2)
H7A H 0.8482 -1.6051 1.2667
C15A C 0.7738(3) -1.4491(3) 1.2780(2)
H8A H 0.8540 -1.4382 1.2743
C16A C 0.4139(3) -1.5015(3) 1.29793(19)
C17A C -0.0306(3) -1.3691(3) 1.55446(18)
H9A H 0.0256 -1.3644 1.5846
C18A C -0.1861(3) -1.3961(3) 1.5193(2)
H10A H -0.2608 -1.4145 1.5208
C19A C -0.1161(3) -1.3602(3) 1.4558(2)
H11A H -0.1322 -1.3489 1.4054
C20A C 0.0833(3) -1.3069(3) 1.42706(19)
H12A H 0.1369 -1.3673 1.4054
H13A H 0.0426 -1.2399 1.3849
C21A C 0.1678(3) -1.2789(3) 1.46587(19)
C22A C 0.1220(3) -1.1888(3) 1.4931(2)
H14A H 0.0341 -1.1436 1.4884
C23A C 0.2009(3) -1.1625(3) 1.5272(2)
H15A H 0.1666 -1.1003 1.5461
C24A C 0.3297(3) -1.2262(3) 1.53406(19)
C25A C 0.3761(3) -1.3168(3) 1.5066(2)
H16A H 0.4641 -1.3618 1.5109
C26A C 0.2965(3) -1.3430(3) 1.4730(2)
H17A H 0.3303 -1.4056 1.4546
C27A C 0.4149(3) -1.1979(3) 1.57273(19)
H18A H 0.4575 -1.2654 1.6140
H19A H 0.3610 -1.1390 1.5956
C28A C 0.5254(3) -1.1321(3) 1.44531(19)
H20A H 0.4701 -1.1384 1.4154
C29A C 0.6778(3) -1.0997(3) 1.47944(19)
H21A H 0.7507 -1.0787 1.4776
C30A C 0.6102(3) -1.1378(3) 1.5429(2)
H22A H 0.6263 -1.1482 1.5932
N1A N -0.1316(2) -1.4017(2) 1.58125(15)
N2A N -0.0180(3) -1.3435(2) 1.47891(15)
N3A N 0.6245(2) -1.0960(2) 1.41775(15)
N4A N 0.5134(2) -1.1584(2) 1.52074(15)
O1A O -0.0681(2) -1.32236(19) 1.70863(15)
O2A O -0.2794(2) -1.24650(18) 1.70844(13)
O3A O 0.1938(2) -1.0766(2) 1.68720(15)
O4A O 0.0914(2) -0.9119(2) 1.70527(14)
O5A O 0.7753(2) -1.24750(18) 1.28792(12)
O6A O 0.5639(2) -1.1771(2) 1.29100(14)
O7A O 0.4180(2) -1.5907(2) 1.28687(14)
O8A O 0.3125(2) -1.4331(2) 1.31415(15)
Cd1A Cd -0.21121(2) -1.423270(19) 1.698710(13)
Cd2A Cd 0.70360(2) -1.072572(19) 1.300240(13)
N5A_2 N -0.1076(3) -1.5675(2) 1.79184(15)
O3_2 O 0.8062(2) -0.9234(2) 1.31280(15)
O3A_2 O 0.1938(2) -0.0766(2) 0.68720(15)
O4_2 O 0.9086(2) -1.0881(2) 1.29473(14)
O4A_2 O 0.0914(2) 0.0881(2) 0.70527(14)
O7_2 O -0.4180(2) -1.4093(2) 1.71313(14)
O7A_2 O 1.4180(2) 0.4093(2) 0.28687(14)
O8_2 O -0.3125(2) -1.5669(2) 1.68585(15)
O8A_2 O 1.3125(2) 0.5669(2) 0.31415(15)
Cd1_2 Cd 0.21121(2) -1.576730(19) 1.301290(13)
Cd1A_2 Cd 0.78879(2) 0.576730(19) 0.698710(13)
Cd1A_3 Cd 0.78879(2) 1.576730(19) -0.301290(13)
Cd2_2 Cd 0.29640(2) -0.927428(19) 1.699760(13)
Cd2A_2 Cd 0.70360(2) -0.072572(19) 0.300240(13)
C45 C 0.3929(4) 0.2343(4) 0.9062(2)
H37 H 0.3385 0.3102 0.8972
C46 C 0.5744(5) 0.2978(4) 0.8900(3)
H38 H 0.6680 0.2630 0.8904
H39 H 0.5440 0.3341 0.9295
H40 H 0.5506 0.3540 0.8407
C47 C 0.6051(4) 0.0993(4) 0.9156(3)
H41 H 0.6937 0.0985 0.9119
H42 H 0.5939 0.0702 0.8773
H43 H 0.5866 0.0521 0.9660
N9 N 0.5173(3) 0.2141(3) 0.90346(19)
O9 O 0.3411(3) 0.1626(3) 0.91959(18)
C48 C 0.0501(5) 0.3563(4) 1.0609(3)
H44 H -0.0195 0.4234 1.0597
C49 C 0.1270(4) 0.1555(3) 1.0914(2)
H45 H 0.0925 0.0936 1.1143
H46 H 0.1965 0.1450 1.1212
H47 H 0.1602 0.1568 1.0398
C50 C -0.1017(4) 0.2587(4) 1.1177(3)
H48 H -0.1005 0.1808 1.1365
H49 H -0.1611 0.3016 1.0768
H50 H -0.1297 0.2919 1.1589
N10 N 0.0256(3) 0.2612(3) 1.08964(18)
O10 O 0.1555(3) 0.3657(3) 1.0354(2)
loop_
_geom_bond_atom_site_label_1
_geom_bond_atom_site_label_2
_geom_bond_site_symmetry_1
_geom_bond_site_symmetry_2
C1 C2 1_555 1_555
C2 C3 1_555 1_555
C3 H1 1_555 1_555
C4 C3 1_555 1_555
C5 C4 1_555 1_555
H2 C5 1_555 1_555
C6 C5 1_555 1_555
H3 C6 1_555 1_555
C7 C2 1_555 1_555
H4 C7 1_555 1_555
C8 C4 1_555 1_555
C9 C10 1_555 1_555
C10 C11 1_555 1_555
C11 H5 1_555 1_555
C12 C11 1_555 1_555
C13 C12 1_555 1_555
H6 C13 1_555 1_555
C14 C13 1_555 1_555
H7 C14 1_555 1_555
C15 C10 1_555 1_555
H8 C15 1_555 1_555
C16 C12 1_555 1_555
C17 H9 1_555 1_555
C18 H10 1_555 1_555
C19 C18 1_555 1_555
H11 C19 1_555 1_555
C20 H12 1_555 1_555
H13 C20 1_555 1_555
C21 C20 1_555 1_555
C22 C21 1_555 1_555
H14 C22 1_555 1_555
C23 C22 1_555 1_555
H15 C23 1_555 1_555
C24 C23 1_555 1_555
C25 C24 1_555 1_555
H16 C25 1_555 1_555
C26 C21 1_555 1_555
H17 C26 1_555 1_555
C27 C24 1_555 1_555
H18 C27 1_555 1_555
H19 C27 1_555 1_555
C28 H20 1_555 1_555
C29 H21 1_555 1_555
C30 C29 1_555 1_555
H22 C30 1_555 1_555
C31 H23 1_555 1_555
C32 H24 1_555 1_555
C33 C32 1_555 1_555
H25 C33 1_555 1_555
C34 H26 1_555 1_555
H27 C34 1_555 1_555
C35 C34 1_555 1_555
C36 C35 1_555 1_555
H28 C36 1_555 1_555
C37 H29 1_555 1_555
C38 C37 1_555 1_555
C39 C38 1_555 1_555
H30 C39 1_555 1_555
C40 C35 1_555 1_555
H31 C40 1_555 1_555
C41 C38 1_555 1_555
H32 C41 1_555 1_555
H33 C41 1_555 1_555
C42 H34 1_555 1_555
C43 H35 1_555 1_555
C44 C43 1_555 1_555
H36 C44 1_555 1_555
N1 C17 1_555 1_555
N2 C17 1_555 1_555
N3 C28 1_555 1_555
N4 C27 1_555 1_555
N5 C31 1_555 1_555
N6 C31 1_555 1_555
N7 C42 1_555 1_555
N8 C41 1_555 1_555
O1 C1 1_555 1_555
O2 C1 1_555 1_555
O3 C8 1_555 1_555
O4 C8 1_555 1_555
O5 C9 1_555 1_555
O6 C9 1_555 1_555
O7 C16 1_555 1_555
O8 C16 1_555 1_555
Cd1 N1 1_555 1_555
Cd2 N3 1_555 1_555
C45 H37 1_555 1_555
C46 H38 1_555 1_555
H39 C46 1_555 1_555
H40 C46 1_555 1_555
C47 H41 1_555 1_555
H42 C47 1_555 1_555
H43 C47 1_555 1_555
N9 C45 1_555 1_555
O9 C45 1_555 1_555
C48 H44 1_555 1_555
C49 H45 1_555 1_555
H46 C49 1_555 1_555
H47 C49 1_555 1_555
C50 H48 1_555 1_555
H49 C50 1_555 1_555
H50 C50 1_555 1_555
N10 C48 1_555 1_555
O10 C48 1_555 1_555
C31A H23A 1_555 1_555
C32A H24A 1_555 1_555
C33A C32A 1_555 1_555
H25A C33A 1_555 1_555
C34A H26A 1_555 1_555
H27A C34A 1_555 1_555
C35A C34A 1_555 1_555
C36A C40 1_555 1_555
H28A C36A 1_555 1_555
C40A C36 1_555 1_555
H31A C40A 1_555 1_555
N5A C31A 1_555 1_555
N6A C31A 1_555 1_555
C37A C39 1_555 1_555
H29A C37A 1_555 1_555
C38A C37A 1_555 1_555
C39A C37 1_555 1_555
H30A C39A 1_555 1_555
C41A C38A 1_555 1_555
H32A C41A 1_555 1_555
H33A C41A 1_555 1_555
C42A H34A 1_555 1_555
C43A H35A 1_555 1_555
C44A C43A 1_555 1_555
H36A C44A 1_555 1_555
N7A C42A 1_555 1_555
N8A C41A 1_555 1_555
C1A C2A 1_555 1_555
C2A C3A 1_555 1_555
C3A H1A 1_555 1_555
C4A C3A 1_555 1_555
C5A C4A 1_555 1_555
H2A C5A 1_555 1_555
C6A C5A 1_555 1_555
H3A C6A 1_555 1_555
C7A C2A 1_555 1_555
H4A C7A 1_555 1_555
C8A C4A 1_555 1_555
C9A C10A 1_555 1_555
C10A C11A 1_555 1_555
C11A H5A 1_555 1_555
C12A C11A 1_555 1_555
C13A C12A 1_555 1_555
H6A C13A 1_555 1_555
C14A C13A 1_555 1_555
H7A C14A 1_555 1_555
C15A C10A 1_555 1_555
H8A C15A 1_555 1_555
C16A C12A 1_555 1_555
C17A H9A 1_555 1_555
C18A H10A 1_555 1_555
C19A C18A 1_555 1_555
H11A C19A 1_555 1_555
C20A H12A 1_555 1_555
H13A C20A 1_555 1_555
C21A C20A 1_555 1_555
C22A C21A 1_555 1_555
H14A C22A 1_555 1_555
C23A C22A 1_555 1_555
H15A C23A 1_555 1_555
C24A C23A 1_555 1_555
C25A C24A 1_555 1_555
H16A C25A 1_555 1_555
C26A C21A 1_555 1_555
H17A C26A 1_555 1_555
C27A C24A 1_555 1_555
H18A C27A 1_555 1_555
H19A C27A 1_555 1_555
C28A H20A 1_555 1_555
C29A H21A 1_555 1_555
C30A C29A 1_555 1_555
H22A C30A 1_555 1_555
N1A C17A 1_555 1_555
N2A C17A 1_555 1_555
N3A C28A 1_555 1_555
N4A C27A 1_555 1_555
O1A C1A 1_555 1_555
O2A C1A 1_555 1_555
O3A C8A 1_555 1_555
O4A C8A 1_555 1_555
O5A C9A 1_555 1_555
O6A C9A 1_555 1_555
O7A C16A 1_555 1_555
O8A C16A 1_555 1_555
Cd1A N1A 1_555 1_555
Cd2A N7A 1_555 1_555
N5A_2 Cd1A 1_555 1_555
O3_2 Cd2A 1_555 1_555
O3A_2 Cd2 1_555 1_555
O4_2 Cd2A 1_555 1_555
O4A_2 Cd2 1_555 1_555
O7_2 Cd1A 1_555 1_555
O7A_2 Cd1 1_555 1_555
O8_2 Cd1A 1_555 1_555
O8A_2 Cd1 1_555 1_555
Cd1_2 O7A 1_555 1_555
Cd1A_2 O7 1_555 1_555
Cd1A_3 N5A 1_555 1_555
Cd2_2 O3A 1_555 1_555
Cd2A_2 O3 1_555 1_555
C6 C7 1_555 1_555
C14 C15 1_555 1_555
C18 N1 1_555 1_555
C19 N2 1_555 1_555
C20 N2 1_555 1_555
C25 C26 1_555 1_555
C28 N4 1_555 1_555
C29 N3 1_555 1_555
C30 N4 1_555 1_555
C32 N5 1_555 1_555
C33 N6 1_555 1_555
C34 N6 1_555 1_555
C42 N8 1_555 1_555
C43 N7 1_555 1_555
C44 N8 1_555 1_555
N5 Cd1 1_555 1_555
N7 Cd2 1_555 1_555
O1 Cd1 1_555 1_555
O2 Cd1 1_555 1_555
O4 Cd2A_2 1_555 1_555
O5 Cd2 1_555 1_555
O6 Cd2 1_555 1_555
O8 Cd1A_2 1_555 1_555
C46 N9 1_555 1_555
C47 N9 1_555 1_555
C49 N10 1_555 1_555
C50 N10 1_555 1_555
C32A N5A 1_555 1_555
C33A N6A 1_555 1_555
C34A N6A 1_555 1_555
C35A C36A 1_555 1_555
C35A C40A 1_555 1_555
C38A C39A 1_555 1_555
C42A N8A 1_555 1_555
C43A N7A 1_555 1_555
C44A N8A 1_555 1_555
C6A C7A 1_555 1_555
C14A C15A 1_555 1_555
C18A N1A 1_555 1_555
C19A N2A 1_555 1_555
C20A N2A 1_555 1_555
C25A C26A 1_555 1_555
C28A N4A 1_555 1_555
C29A N3A 1_555 1_555
C30A N4A 1_555 1_555
N3A Cd2A 1_555 1_555
O1A Cd1A 1_555 1_555
O2A Cd1A 1_555 1_555
O4A Cd2_2 1_555 1_555
O5A Cd2A 1_555 1_555
O6A Cd2A 1_555 1_555
O8A Cd1_2 1_555 1_555

#END
