
#######################################################################
#
#                 Cambridge Crystallographic Data Centre
#                                CCDC 
#
#######################################################################
#
# If this CIF has been generated from an entry in the Cambridge 
# Structural Database, then it will include bibliographic, chemical, 
# crystal, experimental, refinement or atomic coordinate data resulting 
# from the CCDC's data processing and validation procedures.
#
#######################################################################

data_MINJOK
_symmetry_cell_setting           triclinic
_symmetry_space_group_name_H-M   'P -1'
_symmetry_Int_Tables_number      2
_space_group_name_Hall           '-P 1'
loop_
_symmetry_equiv_pos_site_id
_symmetry_equiv_pos_as_xyz
1 x,y,z
2 -x,-y,-z
_cell_length_a                   9.1891(5)
_cell_length_b                   10.1201(6)
_cell_length_c                   16.8042(10)
_cell_angle_alpha                95.405(3)
_cell_angle_beta                 91.005(2)
_cell_angle_gamma                97.203(3)
_cell_volume                     1542.79
loop_
_atom_site_label
_atom_site_type_symbol
_atom_site_fract_x
_atom_site_fract_y
_atom_site_fract_z
C1 C 0.27578(12) 0.22797(13) 1.35249(7)
C2 C 0.36158(12) 0.22209(13) 1.27839(7)
C3 C 0.50343(13) 0.19696(14) 1.26828(7)
H1 H 0.5647 0.1802 1.3098
C4 C 0.54694(13) 0.19915(14) 1.18779(7)
H2 H 0.6405 0.1861 1.1712
C5 C 0.43615(12) 0.22258(13) 1.13696(7)
C6 C 0.43307(12) 0.21532(13) 1.04995(7)
C7 C 0.54151(12) 0.25570(12) 0.99842(7)
C8 C 0.49902(12) 0.21762(12) 0.91598(7)
C9 C 0.35822(12) 0.15092(13) 0.90657(7)
C10 C 0.26811(12) 0.09740(13) 0.83570(7)
C11 C 0.15287(13) -0.00478(13) 0.83189(7)
H3 H 0.1247 -0.0523 0.8750
C12 C 0.08217(13) -0.02968(13) 0.75572(7)
H4 H 0.0034 -0.0960 0.7431
C13 C 0.14205(12) 0.05427(13) 0.70249(7)
C14 C 0.09061(12) 0.06229(13) 0.61902(7)
C15 C 0.68551(12) 0.33018(13) 1.02722(7)
C16 C 0.81323(13) 0.26816(14) 1.02230(8)
H5 H 0.8096 0.1815 0.9977
C17 C 0.94581(14) 0.33581(16) 1.05411(9)
H6 H 1.0299 0.2933 1.0517
C18 C 0.95349(14) 0.46557(16) 1.08914(8)
H7 H 1.0423 0.5101 1.1105
C19 C 0.82825(15) 0.52941(15) 1.09247(8)
H8 H 0.8335 0.6174 1.1151
C20 C 0.69485(14) 0.46160(14) 1.06189(8)
H9 H 0.6111 0.5045 1.0646
C21 C 0.60133(12) 0.24183(13) 0.84932(7)
C22 C 0.66762(14) 0.13582(14) 0.81331(8)
H10 H 0.6445 0.0506 0.8296
C23 C 0.76815(15) 0.15618(15) 0.75323(9)
H11 H 0.8117 0.0847 0.7296
C24 C 0.80323(14) 0.28282(15) 0.72869(8)
H12 H 0.8713 0.2968 0.6891
C25 C 0.73673(15) 0.38856(14) 0.76331(8)
H13 H 0.7591 0.4734 0.7463
C26 C 0.63604(14) 0.36822(14) 0.82369(8)
H14 H 0.5920 0.4397 0.8469
C27 C 0.23075(13) -0.16630(14) 0.48385(8)
H15 H 0.2164 -0.0785 0.4776
C28 C 0.46317(14) -0.12025(16) 0.41950(9)
H16 H 0.4321 -0.0332 0.4193
H17 H 0.4721 -0.1577 0.3654
H18 H 0.5564 -0.1128 0.4473
C29 C 0.38567(15) -0.34323(16) 0.46459(11)
H19 H 0.3104 -0.3900 0.4940
H20 H 0.4790 -0.3420 0.4914
H21 H 0.3878 -0.3878 0.4117
C30 C -0.10526(14) -0.47007(14) 0.41903(8)
H22 H -0.0094 -0.4899 0.4225
C31 C -0.33218(15) -0.48030(16) 0.34323(10)
H23 H -0.4003 -0.5487 0.3629
H24 H -0.3538 -0.4749 0.2876
H25 H -0.3405 -0.3958 0.3728
C32 C -0.12902(16) -0.60462(18) 0.29165(9)
H26 H -0.0260 -0.6064 0.3009
H27 H -0.1450 -0.5750 0.2400
H28 H -0.1805 -0.6928 0.2936
O1 O 0.32475(9) 0.18738(10) 1.41466(5)
O2 O 0.15266(9) 0.27188(10) 1.34849(5)
O3 O 0.16448(10) 0.14545(10) 0.57930(5)
O4 O -0.02511(9) -0.01151(10) 0.59436(5)
O5 O 0.13104(10) -0.23854(10) 0.51475(6)
O6 O -0.15275(12) -0.40442(10) 0.47716(6)
S1 S 0.27944(3) 0.24709(3) 1.189028(17)
S2 S 0.27844(3) 0.13362(3) 0.998168(18)
S3 S 0.28760(3) 0.16366(3) 0.745218(18)
Mn1 Mn -0.094239(18) -0.203778(19) 0.532171(11)
N1 N 0.35518(11) -0.20693(12) 0.45959(7)
N2 N -0.18311(12) -0.51307(12) 0.35290(7)
O1A O -0.32475(9) -0.18738(10) 0.58534(5)
O2A O -0.15266(9) -0.27188(10) 0.65151(5)
O3A O -0.16448(10) -0.14545(10) 0.42070(5)
Mn1A Mn 0.094239(18) 0.203778(19) 0.467829(11)
Mn1A_2 Mn 0.094239(18) 0.203778(19) 1.467829(11)
loop_
_geom_bond_atom_site_label_1
_geom_bond_atom_site_label_2
_geom_bond_site_symmetry_1
_geom_bond_site_symmetry_2
C1 C2 1_555 1_555
C2 C3 1_555 1_555
C3 H1 1_555 1_555
C4 C3 1_555 1_555
H2 C4 1_555 1_555
C5 C4 1_555 1_555
C6 C5 1_555 1_555
C7 C6 1_555 1_555
C8 C7 1_555 1_555
C9 C8 1_555 1_555
C10 C9 1_555 1_555
C11 C10 1_555 1_555
H3 C11 1_555 1_555
C12 C11 1_555 1_555
H4 C12 1_555 1_555
C13 C12 1_555 1_555
C14 C13 1_555 1_555
C15 C7 1_555 1_555
C16 C15 1_555 1_555
H5 C16 1_555 1_555
C17 C16 1_555 1_555
H6 C17 1_555 1_555
C18 C17 1_555 1_555
H7 C18 1_555 1_555
C19 C18 1_555 1_555
H8 C19 1_555 1_555
C20 C15 1_555 1_555
H9 C20 1_555 1_555
C21 C8 1_555 1_555
C22 C21 1_555 1_555
H10 C22 1_555 1_555
C23 C22 1_555 1_555
H11 C23 1_555 1_555
C24 C23 1_555 1_555
H12 C24 1_555 1_555
C25 C24 1_555 1_555
H13 C25 1_555 1_555
C26 C21 1_555 1_555
H14 C26 1_555 1_555
C27 H15 1_555 1_555
C28 H16 1_555 1_555
H17 C28 1_555 1_555
H18 C28 1_555 1_555
C29 H19 1_555 1_555
H20 C29 1_555 1_555
H21 C29 1_555 1_555
C30 H22 1_555 1_555
C31 H23 1_555 1_555
H24 C31 1_555 1_555
H25 C31 1_555 1_555
C32 H26 1_555 1_555
H27 C32 1_555 1_555
H28 C32 1_555 1_555
O1 C1 1_555 1_555
O2 C1 1_555 1_555
O3 C14 1_555 1_555
O4 C14 1_555 1_555
O5 C27 1_555 1_555
O6 C30 1_555 1_555
S1 C2 1_555 1_555
S2 C6 1_555 1_555
S3 C10 1_555 1_555
Mn1 O4 1_555 1_555
N1 C27 1_555 1_555
N2 C30 1_555 1_555
O1A Mn1 1_555 1_555
O2A Mn1 1_555 1_555
O3A Mn1 1_555 1_555
Mn1A O3 1_555 1_555
Mn1A_2 O1 1_555 1_555
C5 S1 1_555 1_555
C9 S2 1_555 1_555
C13 S3 1_555 1_555
C19 C20 1_555 1_555
C25 C26 1_555 1_555
C28 N1 1_555 1_555
C29 N1 1_555 1_555
C31 N2 1_555 1_555
C32 N2 1_555 1_555
O2 Mn1A_2 1_555 1_555
O5 Mn1 1_555 1_555
O6 Mn1 1_555 1_555

#END
