
#######################################################################
#
#                 Cambridge Crystallographic Data Centre
#                                CCDC 
#
#######################################################################
#
# If this CIF has been generated from an entry in the Cambridge 
# Structural Database, then it will include bibliographic, chemical, 
# crystal, experimental, refinement or atomic coordinate data resulting 
# from the CCDC's data processing and validation procedures.
#
#######################################################################

data_MINKOL01
_symmetry_cell_setting           orthorhombic
_symmetry_space_group_name_H-M   'P 21 21 21'
_symmetry_Int_Tables_number      19
_space_group_name_Hall           'P 2ac 2ab'
loop_
_symmetry_equiv_pos_site_id
_symmetry_equiv_pos_as_xyz
1 x,y,z
2 1/2-x,-y,1/2+z
3 1/2+x,1/2-y,-z
4 -x,1/2+y,1/2-z
_cell_length_a                   6.958(3)
_cell_length_b                   11.856(5)
_cell_length_c                   15.433(7)
_cell_angle_alpha                90
_cell_angle_beta                 90
_cell_angle_gamma                90
_cell_volume                     1273.13
loop_
_atom_site_label
_atom_site_type_symbol
_atom_site_fract_x
_atom_site_fract_y
_atom_site_fract_z
Na1 Na 0.6683(4) 0.8104(2) 0.40887(18)
O1 O 0.3011(7) 0.3582(4) 0.2401(3)
O2 O 0.2321(7) 0.5368(3) 0.4959(3)
O3 O 0.3418(7) 0.7472(4) 0.3635(3)
O4 O 0.5639(6) 0.6169(4) 0.3922(3)
O5 O 0.9913(8) 0.7859(5) 0.4420(4)
N1 N 0.2870(8) 0.4474(5) 0.3697(4)
C1 C 0.2619(9) 0.4482(5) 0.4585(4)
C2 C 0.2732(9) 0.3375(5) 0.5042(4)
C3 C 0.2833(9) 0.2377(6) 0.4553(4)
C4 C 0.2916(9) 0.2406(6) 0.3640(4)
C5 C 0.2948(9) 0.3513(6) 0.3182(4)
C6 C 0.2652(9) 0.3336(5) 0.5927(4)
H1 H 0.2616 0.4015 0.6253
C7 C 0.2624(9) 0.2285(6) 0.6354(4)
H2 H 0.2569 0.2262 0.6968
C8 C 0.2674(9) 0.1301(6) 0.5896(5)
H3 H 0.2619 0.0601 0.6194
C9 C 0.2807(9) 0.1313(5) 0.4982(5)
C10 C 0.2924(10) 0.0309(6) 0.4475(5)
H4 H 0.2918 -0.0406 0.4752
C11 C 0.3043(9) 0.0372(6) 0.3601(5)
H5 H 0.3119 -0.0302 0.3271
C12 C 0.3056(9) 0.1423(6) 0.3173(5)
H6 H 0.3162 0.1451 0.2560
C13 C 0.2752(10) 0.5571(5) 0.3242(5)
H7 H 0.3296 0.5437 0.2651
C14 C 0.0649(10) 0.5859(6) 0.3103(5)
H8 H 0.0007 0.5229 0.2811
H9 H 0.0548 0.6538 0.2745
H10 H 0.0034 0.5994 0.3665
C15 C 0.4014(9) 0.6477(5) 0.3653(4)
Na1B Na 0.1683(4) 0.6896(2) 0.59113(18)
Na1B_2 Na 1.1683(4) 0.6896(2) 0.59113(18)
Na1C Na 0.3317(4) 0.3104(2) 0.09113(18)
O1C O 0.6989(7) 0.8582(4) 0.2599(3)
O2B O 0.7321(7) 0.9632(3) 0.5041(3)
O5B O 0.4913(8) 0.7141(5) 0.5580(4)
loop_
_geom_bond_atom_site_label_1
_geom_bond_atom_site_label_2
_geom_bond_site_symmetry_1
_geom_bond_site_symmetry_2
Na1 O3 1_555 1_555
O1 C5 1_555 1_555
O2 C1 1_555 1_555
O3 C15 1_555 1_555
O4 Na1 1_555 1_555
O5 Na1 1_555 1_555
N1 C1 1_555 1_555
C1 C2 1_555 1_555
C2 C3 1_555 1_555
C3 C4 1_555 1_555
C4 C5 1_555 1_555
C5 N1 1_555 1_555
C6 C2 1_555 1_555
H1 C6 1_555 1_555
C7 C6 1_555 1_555
H2 C7 1_555 1_555
C8 C7 1_555 1_555
H3 C8 1_555 1_555
C9 C3 1_555 1_555
C10 C9 1_555 1_555
H4 C10 1_555 1_555
C11 C10 1_555 1_555
H5 C11 1_555 1_555
C12 C4 1_555 1_555
H6 C12 1_555 1_555
C13 N1 1_555 1_555
H7 C13 1_555 1_555
C14 C13 1_555 1_555
H8 C14 1_555 1_555
H9 C14 1_555 1_555
H10 C14 1_555 1_555
C15 O4 1_555 1_555
Na1B O2 1_555 1_555
Na1B_2 O5 1_555 1_555
Na1C O1 1_555 1_555
O1C Na1 1_555 1_555
O2B Na1 1_555 1_555
O5B Na1 1_555 1_555
C8 C9 1_555 1_555
C11 C12 1_555 1_555
C13 C15 1_555 1_555
Na1B O5B 1_555 1_555

#END
