
#######################################################################
#
#                 Cambridge Crystallographic Data Centre
#                                CCDC 
#
#######################################################################
#
# If this CIF has been generated from an entry in the Cambridge 
# Structural Database, then it will include bibliographic, chemical, 
# crystal, experimental, refinement or atomic coordinate data resulting 
# from the CCDC's data processing and validation procedures.
#
#######################################################################

data_MINKUR
_symmetry_cell_setting           orthorhombic
_symmetry_space_group_name_H-M   'P 21 21 21'
_symmetry_Int_Tables_number      19
_space_group_name_Hall           'P 2ac 2ab'
loop_
_symmetry_equiv_pos_site_id
_symmetry_equiv_pos_as_xyz
1 x,y,z
2 1/2-x,-y,1/2+z
3 1/2+x,1/2-y,-z
4 -x,1/2+y,1/2-z
_cell_length_a                   6.9329(13)
_cell_length_b                   12.061(2)
_cell_length_c                   14.777(3)
_cell_angle_alpha                90
_cell_angle_beta                 90
_cell_angle_gamma                90
_cell_volume                     1235.62
loop_
_atom_site_label
_atom_site_type_symbol
_atom_site_fract_x
_atom_site_fract_y
_atom_site_fract_z
Na1 Na 0.6986(3) 0.79921(14) 0.42872(14)
O1 O 0.2950(5) 0.3802(3) 0.2431(2)
O2 O 0.2694(5) 0.5288(2) 0.5253(2)
O3 O 0.3641(4) 0.7395(2) 0.4275(2)
O4 O 0.5976(4) 0.6187(2) 0.3960(2)
N1 N 0.2938(5) 0.4552(3) 0.3845(2)
C1 C 0.2826(6) 0.4459(3) 0.4789(3)
C2 C 0.2845(6) 0.3343(3) 0.5178(3)
C3 C 0.2863(6) 0.2400(3) 0.4611(3)
C4 C 0.2925(6) 0.2524(3) 0.3653(3)
C5 C 0.2963(6) 0.3644(4) 0.3250(3)
C6 C 0.2819(6) 0.3222(3) 0.6108(3)
H1 H 0.2861 0.3857 0.6488
C7 C 0.2731(6) 0.2160(4) 0.6488(3)
H2 H 0.2691 0.2081 0.7127
C8 C 0.2701(6) 0.1238(4) 0.5956(3)
H3 H 0.2616 0.0527 0.6229
C9 C 0.2796(6) 0.1328(3) 0.4995(3)
C10 C 0.2820(6) 0.0391(3) 0.4416(3)
H4 H 0.2756 -0.0335 0.4664
C11 C 0.2937(7) 0.0535(4) 0.3499(3)
H5 H 0.2993 -0.0097 0.3116
C12 C 0.2975(7) 0.1596(4) 0.3113(3)
H6 H 0.3036 0.1675 0.2474
C13 C 0.2827(7) 0.5694(4) 0.3475(3)
H7 H 0.3262 0.5645 0.2831
C14 C 0.0734(7) 0.6084(4) 0.3449(4)
H8 H 0.0013 0.5640 0.3009
H9 H 0.0690 0.6867 0.3272
H10 H 0.0154 0.5996 0.4050
C15 C 0.4255(6) 0.6483(3) 0.3956(3)
Na1B Na 0.1986(3) 0.70079(14) 0.57128(14)
Na1C Na 0.3014(3) 0.29921(14) 0.07128(14)
O1C O 0.7050(5) 0.8802(3) 0.2569(2)
O2B O 0.7694(5) 0.9712(2) 0.4747(2)
O3B O 0.8641(4) 0.7605(2) 0.5725(2)
loop_
_geom_bond_atom_site_label_1
_geom_bond_atom_site_label_2
_geom_bond_site_symmetry_1
_geom_bond_site_symmetry_2
Na1 O3 1_555 1_555
O1 C5 1_555 1_555
O2 C1 1_555 1_555
O3 C15 1_555 1_555
O4 Na1 1_555 1_555
N1 C1 1_555 1_555
C1 C2 1_555 1_555
C2 C3 1_555 1_555
C3 C4 1_555 1_555
C4 C5 1_555 1_555
C5 N1 1_555 1_555
C6 C2 1_555 1_555
H1 C6 1_555 1_555
C7 C6 1_555 1_555
H2 C7 1_555 1_555
C8 C7 1_555 1_555
H3 C8 1_555 1_555
C9 C3 1_555 1_555
C10 C9 1_555 1_555
H4 C10 1_555 1_555
C11 C10 1_555 1_555
H5 C11 1_555 1_555
C12 C4 1_555 1_555
H6 C12 1_555 1_555
C13 N1 1_555 1_555
H7 C13 1_555 1_555
C14 C13 1_555 1_555
H8 C14 1_555 1_555
H9 C14 1_555 1_555
H10 C14 1_555 1_555
C15 O4 1_555 1_555
Na1B O2 1_555 1_555
Na1C O1 1_555 1_555
O1C Na1 1_555 1_555
O2B Na1 1_555 1_555
O3B Na1 1_555 1_555
O3 Na1B 1_555 1_555
C8 C9 1_555 1_555
C11 C12 1_555 1_555
C13 C15 1_555 1_555

#END
