
#######################################################################
#
#                 Cambridge Crystallographic Data Centre
#                                CCDC 
#
#######################################################################
#
# If this CIF has been generated from an entry in the Cambridge 
# Structural Database, then it will include bibliographic, chemical, 
# crystal, experimental, refinement or atomic coordinate data resulting 
# from the CCDC's data processing and validation procedures.
#
#######################################################################

data_MINKEB
_symmetry_cell_setting           orthorhombic
_symmetry_space_group_name_H-M   'P 21 21 21'
_symmetry_Int_Tables_number      19
_space_group_name_Hall           'P 2ac 2ab'
loop_
_symmetry_equiv_pos_site_id
_symmetry_equiv_pos_as_xyz
1 x,y,z
2 1/2-x,-y,1/2+z
3 -x,1/2+y,1/2-z
4 1/2+x,1/2-y,-z
_cell_length_a                   6.874(2)
_cell_length_b                   12.842(4)
_cell_length_c                   15.052(4)
_cell_angle_alpha                90
_cell_angle_beta                 90
_cell_angle_gamma                90
_cell_volume                     1328.73
loop_
_atom_site_label
_atom_site_type_symbol
_atom_site_fract_x
_atom_site_fract_y
_atom_site_fract_z
K1 K 0.76692(13) 0.70550(5) 0.42026(4)
O1 O 0.7316(4) 0.51714(14) 0.48135(12)
O2 O 0.6378(3) 0.71518(15) 0.59207(13)
O3 O 0.4305(18) 0.6615(9) 0.3913(8)
O4 O 0.7003(4) 0.36890(16) 0.75353(13)
C1 C 0.7157(4) 0.4376(2) 0.52423(17)
C2 C 0.5724(4) 0.6260(2) 0.61146(17)
C3 C 0.7113(4) 0.3333(2) 0.48376(16)
N1 N 0.7029(4) 0.44362(17) 0.61718(14)
C4 C 0.7130(5) 0.5488(2) 0.65781(17)
O5 O 0.4015(3) 0.59661(15) 0.60183(14)
C5 C 0.7094(4) 0.2434(2) 0.53795(17)
C6 C 0.7145(4) 0.3239(2) 0.39247(17)
C7 C 0.7006(4) 0.3567(2) 0.67352(17)
H1 H 0.6654 0.5411 0.7203
C8 C 0.9226(5) 0.5841(3) 0.6641(2)
C9 C 0.7026(4) 0.2527(2) 0.63198(16)
C10 C 0.7155(4) 0.1435(2) 0.49855(17)
C11 C 0.7215(4) 0.2253(2) 0.35289(16)
H2 H 0.7119 0.3845 0.3563
H3 H 0.9966 0.5345 0.7002
H4 H 0.9280 0.6532 0.6917
H5 H 0.9791 0.5876 0.6044
C12 C 0.6985(4) 0.1644(2) 0.68344(18)
C13 C 0.7131(4) 0.0538(2) 0.55365(18)
C14 C 0.7237(4) 0.1366(2) 0.40404(17)
H6 H 0.7249 0.2197 0.2900
H7 H 0.6924 0.1705 0.7463
C15 C 0.7031(4) 0.0650(2) 0.64442(19)
H8 H 0.7184 -0.0137 0.5280
H9 H 0.7306 0.0703 0.3762
H10 H 0.6993 0.0049 0.6811
K1A K 0.73308(13) 0.29450(5) 0.92026(4)
K1C K 0.26692(13) 0.79450(5) 0.57974(4)
O2C O 1.1378(3) 0.78482(15) 0.40793(13)
O4A O 0.7997(4) 0.63110(16) 0.25353(13)
O5C O 0.9015(3) 0.90339(15) 0.39817(14)
loop_
_geom_bond_atom_site_label_1
_geom_bond_atom_site_label_2
_geom_bond_site_symmetry_1
_geom_bond_site_symmetry_2
K1 O1 1_555 1_555
O1 C1 1_555 1_555
O2 K1 1_555 1_555
O3 K1 1_555 1_555
O4 C7 1_555 1_555
C1 C3 1_555 1_555
C2 O2 1_555 1_555
C3 C5 1_555 1_555
N1 C1 1_555 1_555
C4 C2 1_555 1_555
O5 C2 1_555 1_555
C5 C9 1_555 1_555
C6 C3 1_555 1_555
C7 N1 1_555 1_555
H1 C4 1_555 1_555
C8 C4 1_555 1_555
C9 C7 1_555 1_555
C10 C5 1_555 1_555
C11 C6 1_555 1_555
H2 C6 1_555 1_555
H3 C8 1_555 1_555
H4 C8 1_555 1_555
H5 C8 1_555 1_555
C12 C9 1_555 1_555
C13 C10 1_555 1_555
C14 C10 1_555 1_555
H6 C11 1_555 1_555
H7 C12 1_555 1_555
C15 C12 1_555 1_555
H8 C13 1_555 1_555
H9 C14 1_555 1_555
H10 C15 1_555 1_555
K1A O4 1_555 1_555
K1C O2 1_555 1_555
O2C K1 1_555 1_555
O4A K1 1_555 1_555
O5C K1 1_555 1_555
N1 C4 1_555 1_555
O5 K1C 1_555 1_555
C11 C14 1_555 1_555
C13 C15 1_555 1_555

#END
