
#######################################################################
#
#                 Cambridge Crystallographic Data Centre
#                                CCDC 
#
#######################################################################
#
# If this CIF has been generated from an entry in the Cambridge 
# Structural Database, then it will include bibliographic, chemical, 
# crystal, experimental, refinement or atomic coordinate data resulting 
# from the CCDC's data processing and validation procedures.
#
#######################################################################

data_MINKAX
_symmetry_cell_setting           orthorhombic
_symmetry_space_group_name_H-M   'P 21 21 21'
_symmetry_Int_Tables_number      19
_space_group_name_Hall           'P 2ac 2ab'
loop_
_symmetry_equiv_pos_site_id
_symmetry_equiv_pos_as_xyz
1 x,y,z
2 1/2-x,-y,1/2+z
3 -x,1/2+y,1/2-z
4 1/2+x,1/2-y,-z
_cell_length_a                   6.9520(7)
_cell_length_b                   13.2676(13)
_cell_length_c                   14.9719(15)
_cell_angle_alpha                90
_cell_angle_beta                 90
_cell_angle_gamma                90
_cell_volume                     1380.95
loop_
_atom_site_label
_atom_site_type_symbol
_atom_site_fract_x
_atom_site_fract_y
_atom_site_fract_z
K1 K 0.79454(6) 0.69538(3) 0.41951(3)
C1 C 0.6705(3) 0.35843(14) 0.67349(12)
C2 C 0.6822(3) 0.25715(13) 0.63275(12)
C3 C 0.6907(3) 0.24738(13) 0.53877(12)
C4 C 0.6962(3) 0.33334(13) 0.48320(11)
C5 C 0.7048(3) 0.43458(13) 0.52346(12)
C6 C 0.6822(3) 0.17214(13) 0.68602(12)
H1 H 0.6775 0.1789 0.7491
C7 C 0.6890(3) 0.07588(13) 0.64738(13)
H2 H 0.6898 0.0179 0.6846
C8 C 0.6947(3) 0.06461(13) 0.55667(13)
H3 H 0.6977 -0.0011 0.5316
C9 C 0.6961(3) 0.14966(14) 0.49974(12)
C10 C 0.7025(3) 0.14184(13) 0.40544(12)
H4 H 0.7075 0.0772 0.3782
C11 C 0.7017(3) 0.22660(13) 0.35311(12)
H5 H 0.7027 0.2201 0.2899
C12 C 0.6995(3) 0.32299(13) 0.39198(12)
H6 H 0.7002 0.3812 0.3550
C13 C 0.6942(3) 0.54338(13) 0.65641(12)
H7 H 0.6403 0.5374 0.7181
C14 C 0.9033(3) 0.57450(14) 0.66688(14)
H8 H 0.9711 0.5245 0.7033
H9 H 0.9098 0.6405 0.6962
H10 H 0.9639 0.5786 0.6079
C15 C 0.5650(3) 0.61906(13) 0.60597(11)
N1 N 0.6829(2) 0.44140(10) 0.61596(10)
O1 O 0.6527(2) 0.37150(9) 0.75357(9)
O2 O 0.7308(2) 0.51073(9) 0.47972(8)
O3 O 0.63346(18) 0.70529(9) 0.59100(9)
O4 O 0.39764(18) 0.59234(9) 0.58801(9)
O5 O 0.4209(2) 0.65907(13) 0.38846(13)
H11 H 0.334(5) 0.706(2) 0.389(2)
H12 H 0.413(5) 0.628(2) 0.436(2)
K1A K 0.70546(6) 0.30462(3) 0.91951(3)
K1C K 0.29454(6) 0.80462(3) 0.58049(3)
O1A O 0.8473(2) 0.62850(9) 0.25357(9)
O3C O 1.13346(18) 0.79471(9) 0.40900(9)
O4C O 0.89764(18) 0.90766(9) 0.41199(9)
loop_
_geom_bond_atom_site_label_1
_geom_bond_atom_site_label_2
_geom_bond_site_symmetry_1
_geom_bond_site_symmetry_2
K1 O2 1_555 1_555
C1 C2 1_555 1_555
C2 C3 1_555 1_555
C3 C4 1_555 1_555
C4 C5 1_555 1_555
C5 N1 1_555 1_555
C6 C2 1_555 1_555
H1 C6 1_555 1_555
C7 C6 1_555 1_555
H2 C7 1_555 1_555
C8 C7 1_555 1_555
H3 C8 1_555 1_555
C9 C3 1_555 1_555
C10 C9 1_555 1_555
H4 C10 1_555 1_555
C11 C10 1_555 1_555
H5 C11 1_555 1_555
C12 C4 1_555 1_555
H6 C12 1_555 1_555
C13 H7 1_555 1_555
C14 C13 1_555 1_555
H8 C14 1_555 1_555
H9 C14 1_555 1_555
H10 C14 1_555 1_555
C15 C13 1_555 1_555
N1 C1 1_555 1_555
O1 C1 1_555 1_555
O2 C5 1_555 1_555
O3 K1 1_555 1_555
O4 C15 1_555 1_555
O5 K1 1_555 1_555
H11 O5 1_555 1_555
H12 O5 1_555 1_555
K1A O1 1_555 1_555
K1C O3 1_555 1_555
O1A K1 1_555 1_555
O3C K1 1_555 1_555
O4C K1 1_555 1_555
C8 C9 1_555 1_555
C11 C12 1_555 1_555
C13 N1 1_555 1_555
C15 O3 1_555 1_555
O4 K1C 1_555 1_555

#END
