
#######################################################################
#
#                 Cambridge Crystallographic Data Centre
#                                CCDC 
#
#######################################################################
#
# If this CIF has been generated from an entry in the Cambridge 
# Structural Database, then it will include bibliographic, chemical, 
# crystal, experimental, refinement or atomic coordinate data resulting 
# from the CCDC's data processing and validation procedures.
#
#######################################################################

data_MINKOL
_symmetry_cell_setting           orthorhombic
_symmetry_space_group_name_H-M   'P 21 21 21'
_symmetry_Int_Tables_number      19
_space_group_name_Hall           'P 2ac 2ab'
loop_
_symmetry_equiv_pos_site_id
_symmetry_equiv_pos_as_xyz
1 x,y,z
2 1/2-x,-y,1/2+z
3 1/2+x,1/2-y,-z
4 -x,1/2+y,1/2-z
_cell_length_a                   6.9818(7)
_cell_length_b                   11.8361(13)
_cell_length_c                   15.5125(17)
_cell_angle_alpha                90
_cell_angle_beta                 90
_cell_angle_gamma                90
_cell_volume                     1281.91
loop_
_atom_site_label
_atom_site_type_symbol
_atom_site_fract_x
_atom_site_fract_y
_atom_site_fract_z
Na1 Na 0.66557(10) 0.81075(6) 0.40877(4)
C1 C 0.2946(2) 0.34852(14) 0.31803(11)
C2 C 0.2929(2) 0.23918(14) 0.36380(11)
C3 C 0.2814(2) 0.23686(14) 0.45501(11)
C4 C 0.2710(2) 0.33807(14) 0.50315(10)
C5 C 0.2604(2) 0.44762(14) 0.45798(10)
C6 C 0.3057(3) 0.13967(15) 0.31799(11)
H1 H 0.3147 0.1418 0.2569
C7 C 0.3055(3) 0.03503(14) 0.36088(11)
H2 H 0.3147 -0.0330 0.3286
C8 C 0.2921(2) 0.03057(14) 0.44942(12)
H3 H 0.2912 -0.0406 0.4778
C9 C 0.2798(3) 0.13132(14) 0.49863(11)
C10 C 0.2662(3) 0.13084(14) 0.58986(11)
H4 H 0.2603 0.0609 0.6198
C11 C 0.2614(3) 0.23038(15) 0.63557(11)
H5 H 0.2560 0.2287 0.6967
C12 C 0.2646(2) 0.33486(14) 0.59209(10)
H6 H 0.2622 0.4033 0.6241
C13 C 0.2726(3) 0.55560(13) 0.32252(11)
H7 H 0.3278 0.5424 0.2639
C14 C 0.0635(3) 0.58607(15) 0.30831(11)
H8 H 0.0020 0.5274 0.2733
H9 H 0.0553 0.6588 0.2783
H10 H -0.0016 0.5916 0.3641
C15 C 0.3987(2) 0.64712(14) 0.36467(10)
N1 N 0.2865(2) 0.44655(12) 0.36835(9)
O1 O 0.3011(2) 0.35601(11) 0.23947(8)
O2 O 0.22814(19) 0.53686(10) 0.49474(8)
O3 O 0.33882(18) 0.74724(10) 0.36226(8)
O4 O 0.56013(18) 0.61681(10) 0.39216(8)
O5 O 0.9900(2) 0.78547(13) 0.44235(10)
H11 H 1.022(5) 0.834(2) 0.4821(19)
H12 H 1.092(4) 0.774(2) 0.4111(19)
Na1B Na 0.16557(10) 0.68925(6) 0.59123(4)
Na1B_2 Na 1.16557(10) 0.68925(6) 0.59123(4)
Na1C Na 0.33443(10) 0.31075(6) 0.09123(4)
O1C O 0.6989(2) 0.85601(11) 0.26053(8)
O2B O 0.72814(19) 0.96314(10) 0.50526(8)
O5B O 0.4900(2) 0.71453(13) 0.55765(10)
loop_
_geom_bond_atom_site_label_1
_geom_bond_atom_site_label_2
_geom_bond_site_symmetry_1
_geom_bond_site_symmetry_2
Na1 O3 1_555 1_555
C1 C2 1_555 1_555
C2 C3 1_555 1_555
C3 C4 1_555 1_555
C4 C5 1_555 1_555
C5 N1 1_555 1_555
C6 C2 1_555 1_555
H1 C6 1_555 1_555
C7 C6 1_555 1_555
H2 C7 1_555 1_555
C8 C7 1_555 1_555
H3 C8 1_555 1_555
C9 C3 1_555 1_555
C10 C9 1_555 1_555
H4 C10 1_555 1_555
C11 C10 1_555 1_555
H5 C11 1_555 1_555
C12 C4 1_555 1_555
H6 C12 1_555 1_555
C13 H7 1_555 1_555
C14 C13 1_555 1_555
H8 C14 1_555 1_555
H9 C14 1_555 1_555
H10 C14 1_555 1_555
C15 C13 1_555 1_555
N1 C1 1_555 1_555
O1 C1 1_555 1_555
O2 C5 1_555 1_555
O3 C15 1_555 1_555
O4 Na1 1_555 1_555
O5 Na1 1_555 1_555
H11 O5 1_555 1_555
H12 O5 1_555 1_555
Na1B O2 1_555 1_555
Na1B_2 O5 1_555 1_555
Na1C O1 1_555 1_555
O1C Na1 1_555 1_555
O2B Na1 1_555 1_555
O5B Na1 1_555 1_555
C8 C9 1_555 1_555
C11 C12 1_555 1_555
C13 N1 1_555 1_555
C15 O4 1_555 1_555
Na1B O5B 1_555 1_555

#END
