
#######################################################################
#
#                 Cambridge Crystallographic Data Centre
#                                CCDC 
#
#######################################################################
#
# If this CIF has been generated from an entry in the Cambridge 
# Structural Database, then it will include bibliographic, chemical, 
# crystal, experimental, refinement or atomic coordinate data resulting 
# from the CCDC's data processing and validation procedures.
#
#######################################################################

data_MINLIG
_symmetry_cell_setting           monoclinic
_symmetry_space_group_name_H-M   'P 21'
_symmetry_Int_Tables_number      4
_space_group_name_Hall           'P 2yb'
loop_
_symmetry_equiv_pos_site_id
_symmetry_equiv_pos_as_xyz
1 x,y,z
2 -x,1/2+y,-z
_cell_length_a                   9.2965(12)
_cell_length_b                   6.6108(9)
_cell_length_c                   11.2603(15)
_cell_angle_alpha                90
_cell_angle_beta                 99.668(2)
_cell_angle_gamma                90
_cell_volume                     682.199
loop_
_atom_site_label
_atom_site_type_symbol
_atom_site_fract_x
_atom_site_fract_y
_atom_site_fract_z
Cs1 Cs 0.593158(14) 0.33064(1) 0.122283(13)
O1 O 0.3985(2) 0.3106(8) 0.30219(18)
O2 O 0.3018(3) 0.6041(4) 0.1056(2)
O3 O 0.3024(3) 0.1652(4) 0.0114(2)
C1 C 0.2399(4) 0.1367(5) 0.0996(3)
O4 O -0.09750(19) 0.3342(10) 0.23526(16)
C2 C 0.2858(3) 0.3225(11) 0.3432(2)
H1 H 0.284(4) 0.729(6) 0.131(4)
C3 C 0.1625(4) 0.5128(5) 0.0743(3)
O5 O 0.2379(3) -0.0225(4) 0.1603(2)
C4 C 0.1459(3) 0.3110(9) 0.1350(2)
N1 N 0.1505(2) 0.3272(9) 0.26673(17)
C5 C 0.2853(3) 0.3298(11) 0.4745(2)
H2 H 0.1422 0.4929 -0.0140
H3 H 0.0880 0.6072 0.0954
H4 H 0.0434 0.2687 0.1030
C6 C 0.0163(3) 0.3305(11) 0.3073(2)
C7 C 0.1518(3) 0.3324(12) 0.5190(2)
C8 C 0.4160(3) 0.3320(14) 0.5537(2)
C9 C 0.0181(3) 0.3347(11) 0.4388(2)
C10 C 0.1534(3) 0.3356(11) 0.6449(2)
C11 C 0.4171(3) 0.3330(13) 0.6786(2)
H5 H 0.5055 0.3329 0.5236
C12 C -0.1125(3) 0.3357(15) 0.4826(2)
C13 C 0.0163(3) 0.3396(13) 0.6868(3)
C14 C 0.2887(3) 0.3332(15) 0.7243(2)
H6 H 0.5076 0.3334 0.7322
H7 H -0.2023 0.3356 0.4280
C15 C -0.1130(3) 0.3369(12) 0.6075(2)
H8 H 0.0149 0.3442 0.7709
H9 H 0.2909 0.3317 0.8090
H10 H -0.2030 0.3359 0.6369
Cs1_2 Cs -0.406842(14) 0.33064(1) 0.122283(13)
Cs1A Cs 0.406842(14) -0.16936(1) -0.122283(13)
Cs1A_2 Cs 0.406842(14) 0.83064(1) -0.122283(13)
O2A O 0.6982(3) 0.1041(4) -0.1056(2)
O3A O 0.6976(3) 0.6652(4) -0.0114(2)
O4_2 O 0.90250(19) 0.3342(10) 0.23526(16)
loop_
_geom_bond_atom_site_label_1
_geom_bond_atom_site_label_2
_geom_bond_site_symmetry_1
_geom_bond_site_symmetry_2
Cs1 O1 1_555 1_555
O1 C2 1_555 1_555
O2 Cs1 1_555 1_555
O3 Cs1 1_555 1_555
C1 O3 1_555 1_555
O4 C6 1_555 1_555
C2 N1 1_555 1_555
H1 O2 1_555 1_555
C3 O2 1_555 1_555
O5 C1 1_555 1_555
C4 C1 1_555 1_555
N1 C4 1_555 1_555
C5 C2 1_555 1_555
H2 C3 1_555 1_555
H3 C3 1_555 1_555
H4 C4 1_555 1_555
C6 N1 1_555 1_555
C7 C5 1_555 1_555
C8 C5 1_555 1_555
C9 C6 1_555 1_555
C10 C7 1_555 1_555
C11 C8 1_555 1_555
H5 C8 1_555 1_555
C12 C9 1_555 1_555
C13 C10 1_555 1_555
C14 C10 1_555 1_555
H6 C11 1_555 1_555
H7 C12 1_555 1_555
C15 C12 1_555 1_555
H8 C13 1_555 1_555
H9 C14 1_555 1_555
H10 C15 1_555 1_555
Cs1_2 O4 1_555 1_555
Cs1A O3 1_555 1_555
Cs1A_2 O2 1_555 1_555
O2A Cs1 1_555 1_555
O3A Cs1 1_555 1_555
O4_2 Cs1 1_555 1_555
C3 C4 1_555 1_555
C7 C9 1_555 1_555
C11 C14 1_555 1_555
C13 C15 1_555 1_555
Cs1A O2A 1_555 1_555
Cs1A_2 O3A 1_555 1_555

#END
