
#######################################################################
#
#                 Cambridge Crystallographic Data Centre
#                                CCDC 
#
#######################################################################
#
# If this CIF has been generated from an entry in the Cambridge 
# Structural Database, then it will include bibliographic, chemical, 
# crystal, experimental, refinement or atomic coordinate data resulting 
# from the CCDC's data processing and validation procedures.
#
#######################################################################

data_MINPUV
_symmetry_cell_setting           monoclinic
_symmetry_space_group_name_H-M   'P 21/n'
_symmetry_Int_Tables_number      14
_space_group_name_Hall           '-P 2yn'
loop_
_symmetry_equiv_pos_site_id
_symmetry_equiv_pos_as_xyz
1 x,y,z
2 1/2-x,1/2+y,1/2-z
3 -x,-y,-z
4 1/2+x,1/2-y,1/2+z
_cell_length_a                   3.6071(2)
_cell_length_b                   8.3254(5)
_cell_length_c                   18.9551(11)
_cell_angle_alpha                90
_cell_angle_beta                 91.365(6)
_cell_angle_gamma                90
_cell_volume                     569.071
loop_
_atom_site_label
_atom_site_type_symbol
_atom_site_fract_x
_atom_site_fract_y
_atom_site_fract_z
Na1 Na 0.7584(3) 0.15994(11) 0.21726(5)
O1 O 0.2517(5) 0.27612(19) 0.14761(8)
O2 O -0.0309(5) 0.45323(18) 0.21142(8)
N1 N 0.2119(6) 0.7851(2) 0.06775(10)
N2 N 0.1052(6) 0.9332(2) 0.08751(10)
N3 N -0.0052(6) 0.7608(2) 0.17321(10)
N4 N -0.0209(6) 0.9180(2) 0.15105(10)
N5 N 0.2465(6) 0.5240(2) 0.10900(11)
N6 N 0.1527(6) 0.4207(2) 0.15763(11)
C1 C 0.3574(9) 0.7552(4) -0.00223(15)
C2 C 0.1438(6) 0.6807(3) 0.12014(12)
H1 H 0.519(7) 0.844(3) -0.0167(11)
H2 H 0.499(7) 0.657(3) -0.0002(13)
H3 H 0.164(6) 0.742(3) -0.0349(12)
Na1_2 Na -0.2416(3) 0.15994(11) 0.21726(5)
Na1A Na -0.2584(3) 0.65994(11) 0.28274(5)
Na1_3 Na -0.2416(3) 1.15994(11) 0.21726(5)
O1_2 O 1.2517(5) 0.27612(19) 0.14761(8)
O2_2 O 0.9691(5) 0.45323(18) 0.21142(8)
O2A O 0.5309(5) -0.04677(18) 0.28858(8)
N3A N 0.5052(6) 0.2608(2) 0.32679(10)
N4_2 N 0.9791(6) -0.0820(2) 0.15105(10)
loop_
_geom_bond_atom_site_label_1
_geom_bond_atom_site_label_2
_geom_bond_site_symmetry_1
_geom_bond_site_symmetry_2
Na1 O1 1_555 1_555
O1 N6 1_555 1_555
O2 N6 1_555 1_555
N1 N2 1_555 1_555
N2 N4 1_555 1_555
N3 N4 1_555 1_555
N4 Na1_3 1_555 1_555
N5 N6 1_555 1_555
C1 N1 1_555 1_555
C2 N1 1_555 1_555
H1 C1 1_555 1_555
H2 C1 1_555 1_555
H3 C1 1_555 1_555
Na1_2 O1 1_555 1_555
Na1A O2 1_555 1_555
O1_2 Na1 1_555 1_555
O2_2 Na1 1_555 1_555
O2A Na1 1_555 1_555
N3A Na1 1_555 1_555
N4_2 Na1 1_555 1_555
O2 Na1_2 1_555 1_555
N3 C2 1_555 1_555
N3 Na1A 1_555 1_555
N5 C2 1_555 1_555

#END
