
#######################################################################
#
#                 Cambridge Crystallographic Data Centre
#                                CCDC 
#
#######################################################################
#
# If this CIF has been generated from an entry in the Cambridge 
# Structural Database, then it will include bibliographic, chemical, 
# crystal, experimental, refinement or atomic coordinate data resulting 
# from the CCDC's data processing and validation procedures.
#
#######################################################################

data_MINQOQ
_symmetry_cell_setting           monoclinic
_symmetry_space_group_name_H-M   'P 21/n'
_symmetry_Int_Tables_number      14
_space_group_name_Hall           '-P 2yn'
loop_
_symmetry_equiv_pos_site_id
_symmetry_equiv_pos_as_xyz
1 x,y,z
2 1/2-x,1/2+y,1/2-z
3 -x,-y,-z
4 1/2+x,1/2-y,1/2+z
_cell_length_a                   6.35390(10)
_cell_length_b                   13.4762(3)
_cell_length_c                   8.2876(2)
_cell_angle_alpha                90
_cell_angle_beta                 99.245(2)
_cell_angle_gamma                90
_cell_volume                     700.42
loop_
_atom_site_label
_atom_site_type_symbol
_atom_site_fract_x
_atom_site_fract_y
_atom_site_fract_z
Cs1 Cs 0.13557(4) -0.187211(17) 0.40661(3)
N1 N 0.5115(5) -0.1080(2) 0.7046(4)
O1 O 0.7348(5) -0.19474(19) 0.5875(3)
N2 N 0.5097(5) 0.0759(2) 0.7447(4)
N3 N 0.2355(5) 0.0747(2) 0.8763(4)
N4 N 0.6805(5) -0.1099(2) 0.6290(4)
N5 N 0.2800(5) -0.0194(2) 0.8367(4)
O2 O 0.7821(4) -0.0347(2) 0.5997(3)
N6 N 0.3736(5) 0.1302(2) 0.8207(4)
C1 C 0.4482(6) -0.0171(3) 0.7559(4)
C2 C 0.1608(7) -0.1045(3) 0.8843(5)
H1 H 0.245(7) -0.140(3) 0.971(5)
H2 H 0.127(8) -0.150(4) 0.797(6)
H3 H 0.039(9) -0.085(4) 0.916(6)
Cs1C Cs 0.63557(4) -0.312789(17) 0.90661(3)
Cs1_2 Cs 1.13557(4) -0.187211(17) 0.40661(3)
Cs1B Cs 0.86443(4) 0.187211(17) 0.59339(3)
Cs1A Cs 0.36443(4) 0.312789(17) 1.09339(3)
N1C N 0.0115(5) -0.3920(2) 0.2046(4)
O1_2 O -0.2652(5) -0.19474(19) 0.5875(3)
O1C O 0.2348(5) -0.30526(19) 0.0875(3)
N2B N 0.4903(5) -0.0759(2) 0.2553(4)
O2B O 0.2179(4) 0.0347(2) 0.4003(3)
N6A N 0.1264(5) -0.3698(2) 0.6793(4)
loop_
_geom_bond_atom_site_label_1
_geom_bond_atom_site_label_2
_geom_bond_site_symmetry_1
_geom_bond_site_symmetry_2
Cs1 N1 1_555 1_555
N1 N4 1_555 1_555
O1 N4 1_555 1_555
N2 N6 1_555 1_555
N3 N5 1_555 1_555
N4 O2 1_555 1_555
N5 C1 1_555 1_555
O2 Cs1B 1_555 1_555
N6 N3 1_555 1_555
C1 N1 1_555 1_555
C2 N5 1_555 1_555
H1 C2 1_555 1_555
H2 C2 1_555 1_555
H3 C2 1_555 1_555
Cs1C N1 1_555 1_555
Cs1_2 O1 1_555 1_555
Cs1B N2 1_555 1_555
Cs1A N6 1_555 1_555
N1C Cs1 1_555 1_555
O1_2 Cs1 1_555 1_555
O1C Cs1 1_555 1_555
N2B Cs1 1_555 1_555
O2B Cs1 1_555 1_555
N6A Cs1 1_555 1_555
O1 Cs1C 1_555 1_555
N2 C1 1_555 1_555

#END
