
#######################################################################
#
#                 Cambridge Crystallographic Data Centre
#                                CCDC 
#
#######################################################################
#
# If this CIF has been generated from an entry in the Cambridge 
# Structural Database, then it will include bibliographic, chemical, 
# crystal, experimental, refinement or atomic coordinate data resulting 
# from the CCDC's data processing and validation procedures.
#
#######################################################################

data_MINQIK
_symmetry_cell_setting           monoclinic
_symmetry_space_group_name_H-M   'P 21/n'
_symmetry_Int_Tables_number      14
_space_group_name_Hall           '-P 2yn'
loop_
_symmetry_equiv_pos_site_id
_symmetry_equiv_pos_as_xyz
1 x,y,z
2 1/2-x,1/2+y,1/2-z
3 -x,-y,-z
4 1/2+x,1/2-y,1/2+z
_cell_length_a                   8.7948(2)
_cell_length_b                   10.1640(2)
_cell_length_c                   15.0571(3)
_cell_angle_alpha                90
_cell_angle_beta                 92.470(2)
_cell_angle_gamma                90
_cell_volume                     1344.71
loop_
_atom_site_label
_atom_site_type_symbol
_atom_site_fract_x
_atom_site_fract_y
_atom_site_fract_z
O1 O 0.3267(3) 1.1235(2) 0.21202(14)
O2 O 0.2428(3) 0.8485(2) -0.22811(15)
N1 N 0.2776(3) 1.2196(3) 0.25303(17)
N2 N 0.4020(3) 0.7196(3) -0.15410(17)
N3 N 0.0703(3) 1.1304(3) 0.10672(18)
N4 N 0.1538(3) 1.2859(3) 0.22841(17)
C1 C 0.5093(4) 0.7066(3) -0.0855(2)
N5 N 0.5880(3) 0.5928(3) -0.08285(18)
N6 N 0.6895(3) 0.5952(3) -0.01329(19)
N7 N -0.0194(3) 1.3290(3) 0.11097(17)
N8 N -0.0349(3) 1.1515(3) 0.03874(18)
N9 N -0.0890(3) 1.2705(3) 0.04062(18)
C2 C 0.0779(3) 1.2439(3) 0.1513(2)
C3 C -0.0513(4) 1.4655(3) 0.1340(2)
H1 H 0.0141 1.5242 0.1009
H2 H -0.0313 1.4786 0.1979
H3 H -0.1583 1.4855 0.1187
O3 O 0.3701(3) 0.9336(2) -0.11438(14)
N10 N 0.3386(3) 0.8366(3) -0.16402(18)
C4 C 0.5785(4) 0.4803(3) -0.1432(2)
H4 H 0.6343 0.4058 -0.1163
H5 H 0.4716 0.4558 -0.1543
H6 H 0.6234 0.5038 -0.1995
N11 N 0.5591(3) 0.7804(3) -0.01738(17)
N12 N 0.6709(3) 0.7079(3) 0.02554(18)
O4 O 0.3457(2) 1.2584(2) 0.32327(14)
Rb1 Rb 0.32776(4) 0.93927(3) 0.07874(2)
Rb2 Rb 0.36399(4) 0.62795(3) -0.34627(2)
O3B O 0.6299(3) 1.0664(2) 0.11438(14)
O3A O 0.1299(3) 0.4336(2) -0.38562(14)
N11B N 0.4409(3) 1.2196(3) 0.01738(17)
N12C N 0.1709(3) 0.7921(3) -0.47446(18)
O4A O 0.1543(2) 0.7584(2) 0.17673(14)
O4B O 0.6543(2) 0.7416(2) -0.32327(14)
Rb1B Rb 0.67224(4) 1.06073(3) -0.07874(2)
Rb1A Rb 0.17224(4) 1.43927(3) 0.42126(2)
Rb2A Rb 0.13601(4) 1.12795(3) -0.15373(2)
Rb2C Rb 0.86399(4) 0.87205(3) 0.15373(2)
Rb2B Rb 0.63601(4) 1.37205(3) 0.34627(2)
loop_
_geom_bond_atom_site_label_1
_geom_bond_atom_site_label_2
_geom_bond_site_symmetry_1
_geom_bond_site_symmetry_2
O1 N1 1_555 1_555
O2 N10 1_555 1_555
N1 N4 1_555 1_555
N2 C1 1_555 1_555
N3 N8 1_555 1_555
N4 C2 1_555 1_555
C1 N5 1_555 1_555
N5 N6 1_555 1_555
N6 N12 1_555 1_555
N7 N9 1_555 1_555
N8 N9 1_555 1_555
C2 N3 1_555 1_555
C3 N7 1_555 1_555
H1 C3 1_555 1_555
H2 C3 1_555 1_555
H3 C3 1_555 1_555
O3 N10 1_555 1_555
N10 N2 1_555 1_555
C4 N5 1_555 1_555
H4 C4 1_555 1_555
H5 C4 1_555 1_555
H6 C4 1_555 1_555
N11 C1 1_555 1_555
N12 N11 1_555 1_555
O4 N1 1_555 1_555
Rb1 O1 1_555 1_555
Rb2 O2 1_555 1_555
O3B Rb1 1_555 1_555
O3A Rb2 1_555 1_555
N11B Rb1 1_555 1_555
N12C Rb2 1_555 1_555
O4A Rb1 1_555 1_555
O4B Rb2 1_555 1_555
Rb1B O3 1_555 1_555
Rb1A O4 1_555 1_555
Rb2A O3 1_555 1_555
Rb2C N12 1_555 1_555
Rb2B O4 1_555 1_555
N2 Rb2 1_555 1_555
N3 Rb1 1_555 1_555
N7 C2 1_555 1_555
O3 Rb1 1_555 1_555
N11 Rb1 1_555 1_555
N11 Rb1B 1_555 1_555
O3B Rb1B 1_555 1_555
O3B Rb2C 1_555 1_555
N11B Rb1B 1_555 1_555

#END
