
#######################################################################
#
#                 Cambridge Crystallographic Data Centre
#                                CCDC 
#
#######################################################################
#
# If this CIF has been generated from an entry in the Cambridge 
# Structural Database, then it will include bibliographic, chemical, 
# crystal, experimental, refinement or atomic coordinate data resulting 
# from the CCDC's data processing and validation procedures.
#
#######################################################################

data_MINQEG
_symmetry_cell_setting           monoclinic
_symmetry_space_group_name_H-M   'P 21/c'
_symmetry_Int_Tables_number      14
_space_group_name_Hall           '-P 2ybc'
loop_
_symmetry_equiv_pos_site_id
_symmetry_equiv_pos_as_xyz
1 x,y,z
2 -x,1/2+y,1/2-z
3 -x,-y,-z
4 x,1/2-y,1/2+z
_cell_length_a                   3.63100(10)
_cell_length_b                   8.6487(2)
_cell_length_c                   19.8598(5)
_cell_angle_alpha                90
_cell_angle_beta                 94.945(2)
_cell_angle_gamma                90
_cell_volume                     621.344
loop_
_atom_site_label
_atom_site_type_symbol
_atom_site_fract_x
_atom_site_fract_y
_atom_site_fract_z
O1 O 0.6536(3) 0.29529(12) 0.36165(5)
N1 N 0.5630(3) 0.43486(14) 0.35152(6)
O2 O 0.3762(3) 0.47110(12) 0.29695(5)
N2 N 0.4284(3) 0.91616(15) 0.35589(6)
N3 N 0.5844(3) 0.93022(14) 0.41689(6)
N4 N 0.4183(3) 0.76538(14) 0.33528(6)
C1 C 0.5804(4) 0.68565(17) 0.38729(7)
N5 N 0.6712(3) 0.53307(14) 0.39904(6)
N6 N 0.6831(3) 0.78675(14) 0.43735(6)
C2 C 0.8664(4) 0.75716(19) 0.50460(7)
K1 K 1.10078(8) 0.16083(4) 0.274350(15)
H1 H 1.026(5) 0.842(2) 0.5174(9)
H2 H 0.692(5) 0.744(2) 0.5371(10)
H3 H 1.008(6) 0.666(2) 0.5021(10)
O1_2 O 1.6536(3) 0.29529(12) 0.36165(5)
O2_2 O 1.3762(3) 0.47110(12) 0.29695(5)
O2A O 0.6238(3) -0.02890(12) 0.20305(5)
N2_2 N 1.4284(3) -0.08384(15) 0.35589(6)
N4A N 0.5817(3) 0.26538(14) 0.16472(6)
K1_2 K 0.10078(8) 0.16083(4) 0.274350(15)
K1A K -0.10078(8) 0.66083(4) 0.225650(15)
K1_3 K 0.10078(8) 1.16083(4) 0.274350(15)
loop_
_geom_bond_atom_site_label_1
_geom_bond_atom_site_label_2
_geom_bond_site_symmetry_1
_geom_bond_site_symmetry_2
O1 N1 1_555 1_555
N1 O2 1_555 1_555
O2 K1_2 1_555 1_555
N2 N3 1_555 1_555
N3 N6 1_555 1_555
N4 N2 1_555 1_555
C1 N4 1_555 1_555
N5 N1 1_555 1_555
N6 C1 1_555 1_555
C2 N6 1_555 1_555
K1 O1 1_555 1_555
H1 C2 1_555 1_555
H2 C2 1_555 1_555
H3 C2 1_555 1_555
O1_2 K1 1_555 1_555
O2_2 K1 1_555 1_555
O2A K1 1_555 1_555
N2_2 K1 1_555 1_555
N4A K1 1_555 1_555
K1_2 O1 1_555 1_555
K1A O2 1_555 1_555
K1_3 N2 1_555 1_555
N4 K1A 1_555 1_555
C1 N5 1_555 1_555

#END
