
#######################################################################
#
#                 Cambridge Crystallographic Data Centre
#                                CCDC 
#
#######################################################################
#
# If this CIF has been generated from an entry in the Cambridge 
# Structural Database, then it will include bibliographic, chemical, 
# crystal, experimental, refinement or atomic coordinate data resulting 
# from the CCDC's data processing and validation procedures.
#
#######################################################################

data_MINSAF
_symmetry_cell_setting           monoclinic
_symmetry_space_group_name_H-M   'P 21/c'
_symmetry_Int_Tables_number      14
_space_group_name_Hall           '-P 2ybc'
loop_
_symmetry_equiv_pos_site_id
_symmetry_equiv_pos_as_xyz
1 x,y,z
2 -x,1/2+y,1/2-z
3 -x,-y,-z
4 x,1/2-y,1/2+z
_cell_length_a                   14.939(3)
_cell_length_b                   9.3512(19)
_cell_length_c                   19.626(4)
_cell_angle_alpha                90
_cell_angle_beta                 109.934(3)
_cell_angle_gamma                90
_cell_volume                     2577.44
loop_
_atom_site_label
_atom_site_type_symbol
_atom_site_fract_x
_atom_site_fract_y
_atom_site_fract_z
K1 K 0.78431(4) -0.28178(6) 0.55574(3)
S1 S 0.40321(4) 0.36907(6) 0.34834(3)
S2 S 0.95477(4) 0.36616(7) 0.32716(3)
S3 S 0.69215(5) -0.73829(8) 0.36438(4)
O1 O 0.42585(15) 0.47054(19) 0.30291(10)
O2 O 0.31293(13) 0.37978(19) 0.35786(10)
O3 O 1.05057(13) 0.3661(2) 0.32774(11)
O4 O 0.89236(14) 0.4745(2) 0.28632(10)
N1 N 0.61339(14) -0.1889(2) 0.44665(12)
N2 N 0.41601(14) 0.2022(2) 0.32077(10)
N3 N 0.48801(15) 0.3670(2) 0.43084(12)
N4 N 0.67786(15) -0.0218(2) 0.56674(11)
N5 N 0.83575(15) -0.1811(2) 0.43715(11)
N6 N 0.90692(15) 0.2037(2) 0.30059(11)
N7 N 0.95627(15) 0.3655(2) 0.41332(11)
N8 N 0.89397(14) -0.0134(2) 0.55715(10)
N9 N 0.74731(18) -0.5339(2) 0.47571(14)
C1 C 0.58288(16) -0.0532(2) 0.44033(13)
C2 C 0.57887(18) -0.2736(2) 0.38823(14)
C3 C 0.51563(19) -0.2293(2) 0.32229(14)
C4 C 0.48389(17) -0.0910(2) 0.31547(13)
C5 C 0.51703(16) -0.0007(2) 0.37523(12)
C6 C 0.48371(16) 0.1453(2) 0.37320(12)
C7 C 0.52509(17) 0.2418(2) 0.43802(12)
C8 C 0.59547(16) 0.1848(2) 0.50323(13)
C9 C 0.63442(18) 0.2701(2) 0.56488(14)
C10 C 0.69400(19) 0.2061(3) 0.62716(14)
C11 C 0.71169(18) 0.0619(3) 0.62559(13)
C12 C 0.62028(16) 0.0401(2) 0.50563(12)
C13 C 0.86117(15) -0.0467(2) 0.42862(12)
C14 C 0.80847(18) -0.2658(2) 0.37808(14)
C15 C 0.80493(18) -0.2226(2) 0.30977(14)
C16 C 0.83108(17) -0.0847(2) 0.30090(13)
C17 C 0.85954(16) 0.0049(2) 0.36089(12)
C18 C 0.89287(16) 0.1491(2) 0.35611(12)
C19 C 0.92197(16) 0.2436(2) 0.42226(12)
C20 C 0.91650(16) 0.1897(2) 0.49036(12)
C21 C 0.94012(17) 0.2757(2) 0.55214(13)
C22 C 0.94054(18) 0.2143(2) 0.61621(13)
C23 C 0.91899(17) 0.0703(2) 0.61592(13)
C24 C 0.89126(15) 0.0463(2) 0.49416(12)
C25 C 0.72417(18) -0.6181(2) 0.42955(15)
H1 H 0.5994 -0.3704 0.3926
H2 H 0.4946 -0.2935 0.2825
H3 H 0.4401 -0.0573 0.2709
H4 H 0.6202 0.3693 0.5639
H5 H 0.7222 0.2603 0.6701
H6 H 0.7507 0.0184 0.6694
H7 H 0.7905 -0.3613 0.3837
H8 H 0.7849 -0.2868 0.2699
H9 H 0.8297 -0.0516 0.2548
H10 H 0.9555 0.3739 0.5501
H11 H 0.9552 0.2694 0.6593
H12 H 0.9222 0.0278 0.6607
K1B K 0.21569(4) 0.28178(6) 0.44426(3)
K1B_2 K 1.21569(4) 0.28178(6) 0.44426(3)
O2B O 0.68707(13) -0.37978(19) 0.64214(10)
O3B O 0.94943(13) -0.3661(2) 0.67226(11)
loop_
_geom_bond_atom_site_label_1
_geom_bond_atom_site_label_2
_geom_bond_site_symmetry_1
_geom_bond_site_symmetry_2
K1 N1 1_555 1_555
S1 O1 1_555 1_555
S2 O3 1_555 1_555
S3 C25 1_555 1_555
O2 S1 1_555 1_555
O3 K1B_2 1_555 1_555
O4 S2 1_555 1_555
N1 C1 1_555 1_555
N2 S1 1_555 1_555
N3 S1 1_555 1_555
N4 K1 1_555 1_555
N5 K1 1_555 1_555
N6 S2 1_555 1_555
N7 S2 1_555 1_555
N8 K1 1_555 1_555
N9 K1 1_555 1_555
C1 C5 1_555 1_555
C2 N1 1_555 1_555
C3 C2 1_555 1_555
C4 C3 1_555 1_555
C5 C4 1_555 1_555
C6 N2 1_555 1_555
C7 N3 1_555 1_555
C8 C7 1_555 1_555
C9 C8 1_555 1_555
C10 C9 1_555 1_555
C11 N4 1_555 1_555
C12 N4 1_555 1_555
C13 N5 1_555 1_555
C14 N5 1_555 1_555
C15 C14 1_555 1_555
C16 C15 1_555 1_555
C17 C13 1_555 1_555
C18 N6 1_555 1_555
C19 N7 1_555 1_555
C20 C19 1_555 1_555
C21 C20 1_555 1_555
C22 C21 1_555 1_555
C23 N8 1_555 1_555
C24 N8 1_555 1_555
C25 N9 1_555 1_555
H1 C2 1_555 1_555
H2 C3 1_555 1_555
H3 C4 1_555 1_555
H4 C9 1_555 1_555
H5 C10 1_555 1_555
H6 C11 1_555 1_555
H7 C14 1_555 1_555
H8 C15 1_555 1_555
H9 C16 1_555 1_555
H10 C21 1_555 1_555
H11 C22 1_555 1_555
H12 C23 1_555 1_555
K1B O2 1_555 1_555
O2B K1 1_555 1_555
O3B K1 1_555 1_555
C1 C12 1_555 1_555
C5 C6 1_555 1_555
C6 C7 1_555 1_555
C8 C12 1_555 1_555
C10 C11 1_555 1_555
C13 C24 1_555 1_555
C16 C17 1_555 1_555
C17 C18 1_555 1_555
C18 C19 1_555 1_555
C20 C24 1_555 1_555
C22 C23 1_555 1_555

#END
