
#######################################################################
#
#                 Cambridge Crystallographic Data Centre
#                                CCDC 
#
#######################################################################
#
# If this CIF has been generated from an entry in the Cambridge 
# Structural Database, then it will include bibliographic, chemical, 
# crystal, experimental, refinement or atomic coordinate data resulting 
# from the CCDC's data processing and validation procedures.
#
#######################################################################

data_MIPGAU
_symmetry_cell_setting           monoclinic
_symmetry_space_group_name_H-M   'C 2/c'
_symmetry_Int_Tables_number      15
_space_group_name_Hall           '-C 2yn'
loop_
_symmetry_equiv_pos_site_id
_symmetry_equiv_pos_as_xyz
1 x,y,z
2 1/2+x,1/2+y,z
3 -x,y,1/2-z
4 1/2-x,1/2+y,1/2-z
5 -x,-y,-z
6 1/2-x,1/2-y,-z
7 x,-y,1/2+z
8 1/2+x,1/2-y,1/2+z
_cell_length_a                   28.071(5)
_cell_length_b                   17.472(5)
_cell_length_c                   6.2294(13)
_cell_angle_alpha                90
_cell_angle_beta                 97.557(5)
_cell_angle_gamma                90
_cell_volume                     3028.71
loop_
_atom_site_label
_atom_site_type_symbol
_atom_site_fract_x
_atom_site_fract_y
_atom_site_fract_z
C1 C 0.79191(9) 0.10284(16) 1.0450(4)
C2 C 0.75857(12) 0.14456(17) 0.9086(5)
H1 H 0.7670 0.1689 0.7863
C3 C 0.71207(9) 0.14850(18) 0.9619(5)
C4 C 0.69889(11) 0.11023(17) 1.1432(5)
H2 H 0.6675 0.1123 1.1759
C5 C 0.73381(11) 0.06962(16) 1.2708(5)
H3 H 0.7258 0.0436 1.3913
C6 C 0.78025(10) 0.06654(18) 1.2245(5)
H4 H 0.8036 0.0399 1.3148
C7 C 0.87418(10) 0.05979(18) 1.0975(5)
H5 H 0.8648 0.0065 1.1046
H6 H 0.8814 0.0794 1.2439
C8 C 0.91765(9) 0.06762(16) 0.9777(4)
C9 C 0.68780(10) 0.22659(17) 0.6503(5)
H7 H 0.6977 0.1892 0.5500
H8 H 0.7141 0.2621 0.6884
C10 C 0.64419(10) 0.26897(17) 0.5466(5)
Ca1 Ca 1.0000 0.06888(4) 0.7500
O1 O 0.83678(7) 0.10319(11) 0.9786(3)
O2 O 0.95344(7) 0.02527(11) 1.0442(3)
O3 O 0.91733(7) 0.11031(12) 0.8167(3)
O4 O 0.67599(8) 0.18901(12) 0.8409(4)
O5 O 0.60631(7) 0.27261(12) 0.6205(3)
O6 O 0.65291(7) 0.30255(12) 0.3703(3)
H9 H 0.6275 0.3130 0.2956
O7 O 0.98344(8) 0.16737(11) 0.4794(4)
H10 H 0.9579 0.1560 0.3963
H11 H 0.9797 0.2100 0.5406
C1F C 0.79191(9) -0.10284(16) 0.5450(4)
C2F C 0.75857(12) -0.14456(17) 0.4086(5)
H1F H 0.7670 -0.1689 0.2863
C3F C 0.71207(9) -0.14850(18) 0.4619(5)
C4F C 0.69889(11) -0.11023(17) 0.6432(5)
H2F H 0.6675 -0.1123 0.6759
C5F C 0.73381(11) -0.06962(16) 0.7708(5)
H3F H 0.7258 -0.0436 0.8913
C6F C 0.78025(10) -0.06654(18) 0.7245(5)
H4F H 0.8036 -0.0399 0.8148
C7F C 0.87418(10) -0.05979(18) 0.5975(5)
H5F H 0.8648 -0.0065 0.6046
H6F H 0.8814 -0.0794 0.7439
C8F C 0.91765(9) -0.06762(16) 0.4777(4)
C9F C 0.68780(10) -0.22659(17) 0.1503(5)
H7F H 0.6977 -0.1892 0.0500
H8F H 0.7141 -0.2621 0.1884
C10F C 0.64419(10) -0.26897(17) 0.0466(5)
Ca1F Ca 1.0000 -0.06888(4) 0.2500
Ca1F_2 Ca 1.0000 -0.06888(4) 1.2500
O1F O 0.83678(7) -0.10319(11) 0.4786(3)
O2F O 0.95344(7) -0.02527(11) 0.5442(3)
O2D O 1.04656(7) -0.02527(11) 0.9558(3)
O2B O 1.04656(7) 0.02527(11) 0.4558(3)
O3F O 0.91733(7) -0.11031(12) 0.3167(3)
O3B O 1.08267(7) 0.11031(12) 0.6833(3)
O4F O 0.67599(8) -0.18901(12) 0.3409(4)
O5F O 0.60631(7) -0.27261(12) 0.1205(3)
O6F O 0.65291(7) -0.30255(12) -0.1297(3)
H9F H 0.6275 -0.3130 -0.2044
O7B O 1.01656(8) 0.16737(11) 1.0206(4)
H10B H 1.0421 0.1560 1.1037
H11B H 1.0203 0.2100 0.9594
O8 O 0.56018(9) 0.21362(14) 0.9771(4)
H12 H 0.5885 0.2105 0.9436
H13 H 0.5445 0.2473 0.8987
O9 O 0.5774(2) 0.1061(3) 0.3331(10)
H14 H 0.5500 0.0928 0.2693
H15 H 0.5900 0.1383 0.2552
O10 O 1.0000 0.3860(4) 0.2500
H16 H 0.9846 0.3750 0.1271
H16B H 1.0154 0.3750 0.3729
O11 O 0.5783(3) 0.9932(5) 0.2564(15)
H18 H 0.5529 0.9666 0.2559
H19 H 0.5973 0.9840 0.3713
H17? H 0.9990 0.4341 0.2700
loop_
_geom_bond_atom_site_label_1
_geom_bond_atom_site_label_2
_geom_bond_site_symmetry_1
_geom_bond_site_symmetry_2
C1 C2 1_555 1_555
C2 H1 1_555 1_555
C3 C2 1_555 1_555
C4 C3 1_555 1_555
H2 C4 1_555 1_555
C5 C4 1_555 1_555
H3 C5 1_555 1_555
C6 C1 1_555 1_555
H4 C6 1_555 1_555
C7 H5 1_555 1_555
H6 C7 1_555 1_555
C8 C7 1_555 1_555
C9 H7 1_555 1_555
H8 C9 1_555 1_555
C10 C9 1_555 1_555
Ca1 O2 1_555 1_555
O1 C1 1_555 1_555
O2 C8 1_555 1_555
O3 C8 1_555 1_555
O4 C3 1_555 1_555
O5 C10 1_555 1_555
O6 C10 1_555 1_555
H9 O6 1_555 1_555
O7 Ca1 1_555 1_555
H10 O7 1_555 1_555
H11 O7 1_555 1_555
O8 H12 1_555 1_555
H13 O8 1_555 1_555
O9 H14 1_555 1_555
H15 O9 1_555 1_555
O10 H16 1_555 1_555
O11 H18 1_555 1_555
H19 O11 1_555 1_555
C1F C2F 1_555 1_555
C2F H1F 1_555 1_555
C3F C2F 1_555 1_555
C4F C3F 1_555 1_555
H2F C4F 1_555 1_555
C5F C4F 1_555 1_555
H3F C5F 1_555 1_555
C6F C1F 1_555 1_555
H4F C6F 1_555 1_555
C7F H5F 1_555 1_555
H6F C7F 1_555 1_555
C8F C7F 1_555 1_555
C9F H7F 1_555 1_555
H8F C9F 1_555 1_555
C10F C9F 1_555 1_555
Ca1F O2F 1_555 1_555
Ca1F_2 O2 1_555 1_555
O1F C1F 1_555 1_555
O2F Ca1 1_555 1_555
O2D Ca1 1_555 1_555
O2B Ca1 1_555 1_555
O3F C8F 1_555 1_555
O3B Ca1 1_555 1_555
O4F C3F 1_555 1_555
O5F C10F 1_555 1_555
O6F C10F 1_555 1_555
H9F O6F 1_555 1_555
O7B Ca1 1_555 1_555
H10B O7B 1_555 1_555
H11B O7B 1_555 1_555
H16B O10 1_555 1_555
C5 C6 1_555 1_555
C7 O1 1_555 1_555
C9 O4 1_555 1_555
Ca1 O3 1_555 1_555
C5F C6F 1_555 1_555
C7F O1F 1_555 1_555
C8F O2F 1_555 1_555
C9F O4F 1_555 1_555
Ca1F O2B 1_555 1_555
Ca1F O3F 1_555 1_555
Ca1F_2 O2D 1_555 1_555

#END
