
#######################################################################
#
#                 Cambridge Crystallographic Data Centre
#                                CCDC 
#
#######################################################################
#
# If this CIF has been generated from an entry in the Cambridge 
# Structural Database, then it will include bibliographic, chemical, 
# crystal, experimental, refinement or atomic coordinate data resulting 
# from the CCDC's data processing and validation procedures.
#
#######################################################################

data_MIPLUS
_symmetry_cell_setting           monoclinic
_symmetry_space_group_name_H-M   'P 21/c'
_symmetry_Int_Tables_number      14
_space_group_name_Hall           '-P 2ybc'
loop_
_symmetry_equiv_pos_site_id
_symmetry_equiv_pos_as_xyz
1 x,y,z
2 x,1/2-y,1/2+z
3 -x,-y,-z
4 -x,1/2+y,1/2-z
_cell_length_a                   9.3979(18)
_cell_length_b                   11.645(2)
_cell_length_c                   8.8622(17)
_cell_angle_alpha                90
_cell_angle_beta                 101.957(4)
_cell_angle_gamma                90
_cell_volume                     948.823
loop_
_atom_site_label
_atom_site_type_symbol
_atom_site_fract_x
_atom_site_fract_y
_atom_site_fract_z
Bi1 Bi 0.053970(15) 0.372270(12) 0.356710(16)
Cl1 Cl -0.11287(12) 0.48120(9) 0.13804(13)
N1 N 0.2637(4) 0.4502(3) 0.2821(4)
O1 O 0.2754(4) 0.2404(3) -0.0018(4)
O2 O 0.1193(4) 0.2679(3) 0.1524(4)
O3 O 0.3017(4) 0.6918(3) 0.5257(4)
O4 O 0.1345(3) 0.5510(3) 0.4850(4)
C1 C 0.3247(5) 0.3903(4) 0.1827(5)
C2 C 0.4594(5) 0.4206(4) 0.1549(5)
H1 H 0.5035 0.3764 0.0869
C3 C 0.5291(5) 0.5171(4) 0.2289(5)
H2 H 0.6216 0.5397 0.2118
C4 C 0.4625(5) 0.5801(4) 0.3277(5)
H3 H 0.5072 0.6473 0.3767
O5 O -0.1152(4) 0.1997(3) 0.3322(4)
C5 C 0.3294(5) 0.5430(4) 0.3535(5)
C6 C 0.2345(5) 0.2920(3) 0.1062(5)
C7 C 0.2497(5) 0.6034(4) 0.4629(5)
Bi1A Bi 0.053970(15) 0.127730(12) -0.143290(16)
O1A O 0.2754(4) 0.2596(3) 0.4982(4)
O4B O -0.1345(3) 0.4490(3) 0.5150(4)
Bi1B Bi -0.053970(15) 0.627730(12) 0.643290(16)
loop_
_geom_bond_atom_site_label_1
_geom_bond_atom_site_label_2
_geom_bond_site_symmetry_1
_geom_bond_site_symmetry_2
Bi1 Cl1 1_555 1_555
N1 Bi1 1_555 1_555
O1 C6 1_555 1_555
O2 Bi1 1_555 1_555
O3 C7 1_555 1_555
O4 Bi1 1_555 1_555
C1 N1 1_555 1_555
C2 C1 1_555 1_555
H1 C2 1_555 1_555
C3 C2 1_555 1_555
H2 C3 1_555 1_555
C4 C3 1_555 1_555
H3 C4 1_555 1_555
O5 Bi1 1_555 1_555
C5 N1 1_555 1_555
C6 O2 1_555 1_555
C7 O4 1_555 1_555
Bi1A O1 1_555 1_555
O1A Bi1 1_555 1_555
O4B Bi1 1_555 1_555
Bi1B O4 1_555 1_555
C1 C6 1_555 1_555
C4 C5 1_555 1_555
C5 C7 1_555 1_555
O4B Bi1B 1_555 1_555

#END
