
#######################################################################
#
#                 Cambridge Crystallographic Data Centre
#                                CCDC 
#
#######################################################################
#
# If this CIF has been generated from an entry in the Cambridge 
# Structural Database, then it will include bibliographic, chemical, 
# crystal, experimental, refinement or atomic coordinate data resulting 
# from the CCDC's data processing and validation procedures.
#
#######################################################################

data_MIPMOP
_symmetry_cell_setting           monoclinic
_symmetry_space_group_name_H-M   'P 21/c'
_symmetry_Int_Tables_number      14
_space_group_name_Hall           '-P 2ybc'
loop_
_symmetry_equiv_pos_site_id
_symmetry_equiv_pos_as_xyz
1 x,y,z
2 -x,1/2+y,1/2-z
3 -x,-y,-z
4 x,1/2-y,1/2+z
_cell_length_a                   14.2224(7)
_cell_length_b                   19.3544(9)
_cell_length_c                   27.9524(11)
_cell_angle_alpha                90
_cell_angle_beta                 110.187(2)
_cell_angle_gamma                90
_cell_volume                     7221.69
loop_
_atom_site_label
_atom_site_type_symbol
_atom_site_fract_x
_atom_site_fract_y
_atom_site_fract_z
Cu1 Cu 0.74185(3) 0.268270(19) 0.141217(13)
Cu2 Cu 0.76744(3) -0.268532(18) 0.362759(12)
O1 O 0.9653(2) -0.41111(16) 0.39031(11)
N1 N 0.6090(2) -0.31691(17) 0.33301(10)
O2 O 0.95095(18) -0.29935(14) 0.39197(9)
O3 O 0.81832(17) -0.36406(11) 0.36461(8)
O4 O 0.8633(3) 0.3865(2) 0.1834(2)
O5 O 0.9943(2) 0.36753(15) 0.16636(12)
O6 O 0.89671(18) 0.28280(12) 0.16658(8)
O7 O 0.4848(4) 0.3613(3) 0.09900(17)
O8 O 0.6426(4) 0.3667(3) 0.13187(14)
O9 O 0.5712(3) 0.27413(15) 0.11251(11)
N2 N 0.9152(2) -0.35876(17) 0.38277(10)
N3 N 0.9185(2) 0.34738(16) 0.17217(11)
N4 N 0.5637(2) 0.33621(17) 0.11436(10)
C1 C 0.5851(3) -0.3724(2) 0.32851(13)
C2 C 0.5574(5) -0.4466(3) 0.3231(2)
O10 O 0.59165(15) -0.19709(12) 0.00015(8)
O11 O 0.57853(15) 0.01807(11) 0.08177(8)
O12 O 0.92132(15) 0.02357(10) 0.16483(8)
O13 O 0.93523(15) -0.16635(11) 0.05775(7)
O14 O 0.93197(14) -0.20728(11) 0.22649(7)
O15 O 0.58752(14) -0.19419(11) 0.17128(7)
N5 N 0.76232(18) -0.25043(12) 0.29036(9)
N6 N 0.76012(17) -0.19856(13) 0.19804(9)
N7 N 0.76319(18) -0.18064(13) 0.03079(9)
N8 N 0.76796(19) -0.21847(12) -0.06378(9)
N9 N 0.74465(19) 0.16049(12) 0.12810(9)
N10 N 0.75052(18) 0.01837(13) 0.12248(9)
C3 C 0.5857(2) -0.05430(15) 0.08421(11)
C4 C 0.5860(2) -0.08950(16) 0.04141(11)
H1 H 0.5836 -0.0655 0.0114
C5 C 0.5901(2) -0.16043(16) 0.04355(11)
C6 C 0.5912(2) -0.19691(15) 0.08594(11)
H2 H 0.5925 -0.2460 0.0865
C7 C 0.5903(2) -0.15923(15) 0.12769(11)
C8 C 0.5881(2) -0.08801(15) 0.12811(11)
H3 H 0.5883 -0.0632 0.1574
C9 C 0.9234(2) -0.04759(15) 0.15663(11)
C10 C 0.9260(2) -0.07105(15) 0.11020(11)
H4 H 0.9255 -0.0399 0.0838
C11 C 0.9295(2) -0.14116(16) 0.10408(10)
C12 C 0.9307(2) -0.18787(15) 0.14164(11)
H5 H 0.9326 -0.2363 0.1364
C13 C 0.9291(2) -0.16126(15) 0.18716(11)
C14 C 0.9256(2) -0.09127(16) 0.19597(11)
H6 H 0.9246 -0.0740 0.2276
C15 C 0.8479(2) -0.18357(15) 0.02124(11)
C16 C 0.8523(2) -0.20285(16) -0.02586(11)
H7 H 0.9149 -0.2049 -0.0310
C17 C 0.6811(2) -0.21793(16) -0.05498(11)
H8 H 0.6205 -0.2307 -0.0810
C18 C 0.6814(2) -0.19829(15) -0.00704(11)
C19 C 0.8475(2) -0.24188(15) 0.28135(11)
H9 H 0.9098 -0.2536 0.3066
C20 C 0.8441(2) -0.21564(15) 0.23460(11)
C21 C 0.6769(2) -0.20905(15) 0.20771(11)
C22 C 0.6752(2) -0.23513(15) 0.25371(11)
H10 H 0.6134 -0.2420 0.2591
C23 C 0.8309(2) 0.12692(16) 0.14694(12)
H11 H 0.8915 0.1517 0.1624
C24 C 0.8320(2) 0.05544(15) 0.14399(11)
C25 C 0.6660(2) 0.05340(15) 0.10439(11)
C26 C 0.6606(2) 0.12478(16) 0.10662(11)
H12 H 0.5979 0.1478 0.0931
O16 O 0.92472(15) -0.02596(11) 0.42009(8)
O17 O 0.58177(15) -0.03025(11) 0.34145(9)
O18 O 0.57373(15) 0.19863(12) 0.27643(8)
O19 O 0.91818(14) 0.18580(11) 0.33107(7)
O20 O 0.91429(15) 0.18901(12) 0.50221(7)
O21 O 0.56968(15) 0.16349(12) 0.44555(7)
N11 N 0.75870(18) -0.16692(13) 0.37040(9)
N12 N 0.75331(18) -0.02563(13) 0.38076(9)
N13 N 0.74028(19) 0.21260(14) 0.56746(9)
N14 N 0.74228(18) 0.17451(13) 0.47210(9)
N15 N 0.74374(18) 0.24449(13) 0.21286(9)
N16 N 0.74635(17) 0.19105(13) 0.30526(9)
C27 C 0.9184(2) 0.04656(15) 0.41813(11)
C28 C 0.9169(2) 0.07971(16) 0.37403(11)
H13 H 0.9171 0.0546 0.3449
C29 C 0.9152(2) 0.15073(15) 0.37450(10)
C30 C 0.9143(2) 0.18894(15) 0.41636(11)
H14 H 0.9132 0.2380 0.4157
C31 C 0.9149(2) 0.15242(16) 0.45896(10)
C32 C 0.9176(2) 0.08137(16) 0.46088(11)
H15 H 0.9188 0.0572 0.4907
C33 C 0.5815(2) 0.04142(15) 0.34907(11)
C34 C 0.5816(2) 0.08367(16) 0.30966(11)
H16 H 0.5846 0.0652 0.2787
C35 C 0.5771(2) 0.15384(16) 0.31666(10)
C36 C 0.5741(2) 0.18201(16) 0.36136(11)
H17 H 0.5716 0.2306 0.3657
C37 C 0.5748(2) 0.13657(16) 0.39954(10)
C38 C 0.5778(2) 0.06633(16) 0.39456(11)
H18 H 0.5772 0.0361 0.4213
C39 C 0.8379(2) -0.06068(15) 0.39695(11)
C40 C 0.8436(2) -0.13169(16) 0.39270(11)
H19 H 0.9062 -0.1549 0.4053
C41 C 0.6719(2) -0.13347(16) 0.35306(11)
H20 H 0.6112 -0.1579 0.3370
C42 C 0.6713(2) -0.06217(16) 0.35876(11)
C43 C 0.8267(2) 0.20980(17) 0.55816(11)
H21 H 0.8882 0.2208 0.5843
C44 C 0.8253(2) 0.19075(16) 0.51015(11)
C45 C 0.6583(2) 0.17883(16) 0.48228(11)
C46 C 0.6553(2) 0.19811(17) 0.52957(11)
H22 H 0.5929 0.2009 0.5349
C47 C 0.8304(2) 0.22911(15) 0.24952(11)
H23 H 0.8923 0.2369 0.2444
C48 C 0.8290(2) 0.20173(15) 0.29505(11)
C49 C 0.6621(2) 0.20759(15) 0.26847(11)
C50 C 0.6583(2) 0.23429(15) 0.22186(11)
H24 H 0.5958 0.2452 0.1966
Cu1C Cu 0.74185(3) 0.231730(19) 0.641217(13)
Cu2C Cu 0.76744(3) -0.231468(18) -0.137241(12)
N8C N 0.76796(19) -0.28153(12) 0.43622(9)
N13C N 0.74028(19) 0.28740(14) 0.06746(9)
C51 C -0.1420(4) -0.0782(3) -0.2490(2)
H25 H -0.1079 -0.0609 -0.2157
C52 C -0.2428(4) -0.0886(3) -0.2648(2)
H26 H -0.2781 -0.0787 -0.2423
C53 C -0.2945(3) -0.1134(3) -0.3133(2)
H27 H -0.3650 -0.1199 -0.3246
C54 C -0.2402(4) -0.1284(3) -0.34506(19)
H28 H -0.2734 -0.1458 -0.3784
C55 C -0.1383(4) -0.1180(3) -0.3279(2)
H29 H -0.1013 -0.1288 -0.3494
C56 C -0.0897(4) -0.0923(3) -0.2802(2)
H30 H -0.0196 -0.0843 -0.2690
C57 C 0.2604(5) -0.3705(2) -0.34660(19)
H31 H 0.2225 -0.3579 -0.3807
C58 C 0.3624(4) -0.3725(2) -0.3306(2)
H32 H 0.3953 -0.3612 -0.3539
C59 C 0.4169(3) -0.3898(3) -0.2830(2)
H33 H 0.4879 -0.3909 -0.2728
C60 C 0.3720(4) -0.4058(2) -0.24928(18)
H34 H 0.4122 -0.4175 -0.2154
C61 C 0.2700(4) -0.4058(2) -0.26246(19)
H35 H 0.2397 -0.4180 -0.2382
C62 C 0.2117(3) -0.3876(3) -0.3117(2)
H36 H 0.1407 -0.3866 -0.3218
C63 C 0.2214(8) -0.5064(4) -0.4471(3)
H37 H 0.2265 -0.5461 -0.4263
C64 C 0.1379(5) -0.4742(7) -0.4648(3)
H38 H 0.0807 -0.4916 -0.4587
C65 C 0.1302(7) -0.4134(7) -0.4932(3)
H39 H 0.0700 -0.3873 -0.5053
C66 C 0.2175(9) -0.3935(3) -0.5024(2)
H40 H 0.2184 -0.3531 -0.5216
C67 C 0.2987(4) -0.4329(4) -0.4836(2)
H41 H 0.3580 -0.4211 -0.4901
C68 C 0.2981(6) -0.4858(4) -0.4572(2)
H42 H 0.3582 -0.5118 -0.4440
C69 C 0.1942(4) -0.5596(3) -0.02570(19)
H43 H 0.1376 -0.5762 -0.0185
C70 C 0.1824(3) -0.5077(3) -0.06041(19)
H44 H 0.1177 -0.4892 -0.0776
C71 C 0.2625(4) -0.4825(3) -0.07056(19)
H45 H 0.2541 -0.4457 -0.0941
C72 C 0.3561(4) -0.5105(3) -0.0466(2)
H46 H 0.4120 -0.4932 -0.0540
C73 C 0.3695(4) -0.5636(3) -0.0118(2)
H47 H 0.4339 -0.5832 0.0045
C74 C 0.2864(4) -0.5880(3) -0.00114(19)
H48 H 0.2939 -0.6241 0.0230
N17 N 0.2669(3) -0.0096(2) -0.24406(13)
O22 O 0.3200(4) 0.0380(2) -0.24960(14)
O23 O 0.1786(3) -0.0122(3) -0.26011(17)
O24 O 0.3160(4) -0.0592(2) -0.21801(15)
loop_
_geom_bond_atom_site_label_1
_geom_bond_atom_site_label_2
_geom_bond_site_symmetry_1
_geom_bond_site_symmetry_2
Cu1 O6 1_555 1_555
Cu2 N1 1_555 1_555
O1 N2 1_555 1_555
N1 C1 1_555 1_555
O2 Cu2 1_555 1_555
O3 Cu2 1_555 1_555
O4 N3 1_555 1_555
O5 N3 1_555 1_555
O6 N3 1_555 1_555
O7 N4 1_555 1_555
O8 Cu1 1_555 1_555
O9 Cu1 1_555 1_555
N2 O2 1_555 1_555
N4 O8 1_555 1_555
C1 C2 1_555 1_555
O10 C5 1_555 1_555
O11 C3 1_555 1_555
O12 C9 1_555 1_555
O13 C11 1_555 1_555
O14 C13 1_555 1_555
O15 C7 1_555 1_555
N5 Cu2 1_555 1_555
N6 C20 1_555 1_555
N7 C15 1_555 1_555
N8 C16 1_555 1_555
N9 Cu1 1_555 1_555
N10 C24 1_555 1_555
C3 C4 1_555 1_555
C4 H1 1_555 1_555
C5 C4 1_555 1_555
C6 C5 1_555 1_555
H2 C6 1_555 1_555
C7 C6 1_555 1_555
C8 C3 1_555 1_555
H3 C8 1_555 1_555
C9 C10 1_555 1_555
C10 H4 1_555 1_555
C11 C10 1_555 1_555
C12 C11 1_555 1_555
H5 C12 1_555 1_555
C13 C12 1_555 1_555
C14 C9 1_555 1_555
H6 C14 1_555 1_555
C15 O13 1_555 1_555
C16 C15 1_555 1_555
H7 C16 1_555 1_555
C17 N8 1_555 1_555
H8 C17 1_555 1_555
C18 O10 1_555 1_555
C19 N5 1_555 1_555
H9 C19 1_555 1_555
C20 O14 1_555 1_555
C21 O15 1_555 1_555
C22 N5 1_555 1_555
H10 C22 1_555 1_555
C23 N9 1_555 1_555
H11 C23 1_555 1_555
C24 O12 1_555 1_555
C25 O11 1_555 1_555
C26 N9 1_555 1_555
H12 C26 1_555 1_555
O16 C27 1_555 1_555
O17 C33 1_555 1_555
O18 C35 1_555 1_555
O19 C29 1_555 1_555
O20 C31 1_555 1_555
O21 C37 1_555 1_555
N11 Cu2 1_555 1_555
N12 C39 1_555 1_555
N13 C43 1_555 1_555
N14 C44 1_555 1_555
N15 Cu1 1_555 1_555
N16 C48 1_555 1_555
C27 C28 1_555 1_555
C28 H13 1_555 1_555
C29 C28 1_555 1_555
C30 C29 1_555 1_555
H14 C30 1_555 1_555
C31 C30 1_555 1_555
C32 C27 1_555 1_555
H15 C32 1_555 1_555
C33 C34 1_555 1_555
C34 H16 1_555 1_555
C35 C34 1_555 1_555
C36 C35 1_555 1_555
H17 C36 1_555 1_555
C37 C36 1_555 1_555
C38 C33 1_555 1_555
H18 C38 1_555 1_555
C39 O16 1_555 1_555
C40 N11 1_555 1_555
H19 C40 1_555 1_555
C41 N11 1_555 1_555
H20 C41 1_555 1_555
C42 O17 1_555 1_555
C43 H21 1_555 1_555
C44 O20 1_555 1_555
C45 O21 1_555 1_555
C46 N13 1_555 1_555
H22 C46 1_555 1_555
C47 N15 1_555 1_555
H23 C47 1_555 1_555
C48 O19 1_555 1_555
C49 O18 1_555 1_555
C50 N15 1_555 1_555
H24 C50 1_555 1_555
C51 H25 1_555 1_555
C52 C51 1_555 1_555
H26 C52 1_555 1_555
C53 C52 1_555 1_555
H27 C53 1_555 1_555
C54 C53 1_555 1_555
H28 C54 1_555 1_555
C55 C54 1_555 1_555
H29 C55 1_555 1_555
C56 C51 1_555 1_555
H30 C56 1_555 1_555
C57 H31 1_555 1_555
C58 C57 1_555 1_555
H32 C58 1_555 1_555
C59 C58 1_555 1_555
H33 C59 1_555 1_555
C60 C59 1_555 1_555
H34 C60 1_555 1_555
C61 C60 1_555 1_555
H35 C61 1_555 1_555
C62 C57 1_555 1_555
H36 C62 1_555 1_555
C63 H37 1_555 1_555
C64 C63 1_555 1_555
H38 C64 1_555 1_555
C65 C64 1_555 1_555
H39 C65 1_555 1_555
C66 C65 1_555 1_555
H40 C66 1_555 1_555
C67 C66 1_555 1_555
H41 C67 1_555 1_555
C68 C63 1_555 1_555
H42 C68 1_555 1_555
C69 H43 1_555 1_555
C70 C69 1_555 1_555
H44 C70 1_555 1_555
C71 C70 1_555 1_555
H45 C71 1_555 1_555
C72 C71 1_555 1_555
H46 C72 1_555 1_555
C73 C72 1_555 1_555
H47 C73 1_555 1_555
C74 C69 1_555 1_555
H48 C74 1_555 1_555
N17 O22 1_555 1_555
O23 N17 1_555 1_555
O24 N17 1_555 1_555
Cu1C N13 1_555 1_555
Cu2C N8 1_555 1_555
N8C Cu2 1_555 1_555
N13C Cu1 1_555 1_555
O3 N2 1_555 1_555
O9 N4 1_555 1_555
N6 C21 1_555 1_555
N7 C18 1_555 1_555
N10 C25 1_555 1_555
C7 C8 1_555 1_555
C13 C14 1_555 1_555
C17 C18 1_555 1_555
C19 C20 1_555 1_555
C21 C22 1_555 1_555
C23 C24 1_555 1_555
C25 C26 1_555 1_555
N12 C42 1_555 1_555
N14 C45 1_555 1_555
N16 C49 1_555 1_555
C31 C32 1_555 1_555
C37 C38 1_555 1_555
C39 C40 1_555 1_555
C41 C42 1_555 1_555
C43 C44 1_555 1_555
C45 C46 1_555 1_555
C47 C48 1_555 1_555
C49 C50 1_555 1_555
C55 C56 1_555 1_555
C61 C62 1_555 1_555
C67 C68 1_555 1_555
C73 C74 1_555 1_555

#END
