
#######################################################################
#
#                 Cambridge Crystallographic Data Centre
#                                CCDC 
#
#######################################################################
#
# If this CIF has been generated from an entry in the Cambridge 
# Structural Database, then it will include bibliographic, chemical, 
# crystal, experimental, refinement or atomic coordinate data resulting 
# from the CCDC's data processing and validation procedures.
#
#######################################################################

data_MIPMUV
_symmetry_cell_setting           orthorhombic
_symmetry_space_group_name_H-M   'P b a 2'
_symmetry_Int_Tables_number      32
_space_group_name_Hall           'P 2 -2ab'
loop_
_symmetry_equiv_pos_site_id
_symmetry_equiv_pos_as_xyz
1 x,y,z
2 -x,-y,z
3 1/2+x,1/2-y,z
4 1/2-x,1/2+y,z
_cell_length_a                   24.111(2)
_cell_length_b                   39.900(4)
_cell_length_c                   7.9191(8)
_cell_angle_alpha                90
_cell_angle_beta                 90
_cell_angle_gamma                90
_cell_volume                     7618.4
loop_
_atom_site_label
_atom_site_type_symbol
_atom_site_fract_x
_atom_site_fract_y
_atom_site_fract_z
Ag1 Ag 0.94411(3) 0.15667(2) 0.86889(15)
Ag2 Ag 0.5000 0.0000 0.64680(15)
N1 N 0.5274(5) 0.0577(3) 0.6965(17)
N2 N 0.5706(4) 0.1223(2) 0.7489(11)
N3 N 0.8484(4) 0.1789(3) 0.8467(17)
N4 N 0.7342(4) 0.1833(2) 0.8251(11)
N5 N 0.5616(4) 0.2388(2) 0.8235(11)
N6 N 0.4961(4) 0.2956(2) 0.846(2)
N7 N 0.9090(4) 0.1020(3) 0.8459(14)
N8 N 0.8621(4) 0.0399(2) 0.8187(11)
N9 N 0.5934(3) -0.0188(3) 0.6718(12)
N10 N 0.7060(4) -0.0280(3) 0.7269(11)
N11 N 0.8797(4) -0.0776(2) 0.8292(13)
N12 N 0.9612(4) -0.1267(3) 0.8754(16)
O1 O 0.5761(4) 0.1292(2) 0.4568(10)
O2 O 0.5636(5) 0.1123(3) 1.0341(10)
O3 O 0.7434(4) 0.1919(3) 0.5414(10)
O4 O 0.7291(4) 0.1750(3) 1.1144(11)
O5 O 0.5546(4) 0.2317(2) 1.1139(10)
O6 O 0.5682(5) 0.2480(2) 0.5376(10)
O7 O 0.7209(3) -0.0230(2) 0.4432(9)
O8 O 0.6861(3) -0.0324(3) 1.0134(9)
O9 O 0.8349(5) 0.0429(2) 1.0973(14)
O10 O 0.8914(4) 0.0379(2) 0.5385(11)
O11 O 0.8900(4) -0.0826(2) 0.5382(11)
O12 O 0.8710(4) -0.0746(2) 1.1192(12)
C1 C 0.5362(5) 0.0680(3) 0.8541(19)
H1 H 0.5299 0.0542 0.9469
C2 C 0.5562(6) 0.1020(3) 0.872(2)
C3 C 0.5641(5) 0.1101(3) 0.5970(14)
C4 C 0.5429(5) 0.0784(3) 0.5622(15)
H2 H 0.5391 0.0711 0.4513
C5 C 0.6009(5) 0.1602(3) 0.4913(12)
C6 C 0.6583(6) 0.1599(3) 0.5061(15)
H3 H 0.6784 0.1401 0.5001
C7 C 0.6840(5) 0.1901(3) 0.5300(13)
C8 C 0.6544(5) 0.2196(3) 0.5453(12)
H4 H 0.6724 0.2398 0.5658
C9 C 0.5961(5) 0.2182(3) 0.5288(14)
C10 C 0.5712(4) 0.1887(3) 0.5083(12)
H5 H 0.5327 0.1877 0.5056
C11 C 0.5889(5) 0.1443(3) 1.0512(12)
C12 C 0.6442(6) 0.1448(3) 1.0685(13)
H6 H 0.6644 0.1250 1.0651
C13 C 0.6708(5) 0.1752(3) 1.0913(13)
C14 C 0.6431(6) 0.2040(3) 1.1012(14)
H7 H 0.6617 0.2243 1.1131
C15 C 0.5870(5) 0.2028(3) 1.0934(13)
C16 C 0.5583(5) 0.1725(3) 1.0693(12)
H8 H 0.5197 0.1719 1.0659
C17 C 0.5433(5) 0.2503(3) 0.9673(13)
C18 C 0.5114(6) 0.2792(3) 0.9908(18)
H9 H 0.5013 0.2869 1.0974
C19 C 0.5154(6) 0.2860(3) 0.7022(17)
H10 H 0.5072 0.2982 0.6051
C20 C 0.5495(5) 0.2566(3) 0.6919(15)
C21 C 0.7663(5) 0.1858(3) 0.6820(15)
C22 C 0.8260(6) 0.1829(4) 0.699(2)
H11 H 0.8483 0.1840 0.6030
C23 C 0.8168(5) 0.1757(3) 0.9922(18)
H12 H 0.8325 0.1715 1.0975
C24 C 0.7600(5) 0.1791(3) 0.9689(13)
C25 C 0.9108(5) 0.0841(3) 0.704(2)
H13 H 0.9298 0.0926 0.6113
C26 C 0.8867(4) 0.0549(3) 0.6914(13)
C27 C 0.8848(6) 0.0899(4) 0.978(3)
H14 H 0.8829 0.1019 1.0789
C28 C 0.8605(5) 0.0560(3) 0.9619(14)
C29 C 0.8614(5) 0.0061(3) 0.5273(15)
C30 C 0.8905(5) -0.0222(3) 0.5400(14)
H15 H 0.9289 -0.0220 0.5522
C31 C 0.8603(4) -0.0525(3) 0.5341(13)
C32 C 0.8046(5) -0.0526(3) 0.4941(13)
H16 H 0.7863 -0.0728 0.4753
C33 C 0.7766(4) -0.0231(3) 0.4823(12)
C34 C 0.8042(5) 0.0078(2) 0.4960(12)
H17 H 0.7857 0.0282 0.4849
C35 C 0.8170(5) 0.0099(3) 1.0836(14)
C36 C 0.8538(5) -0.0147(4) 1.1000(14)
H18 H 0.8911 -0.0101 1.1183
C37 C 0.8343(5) -0.0484(3) 1.0887(13)
C38 C 0.7791(5) -0.0543(3) 1.0593(14)
H19 H 0.7656 -0.0760 1.0516
C39 C 0.7441(4) -0.0274(3) 1.0414(14)
C40 C 0.7627(6) 0.0047(3) 1.0516(14)
H20 H 0.7386 0.0227 1.0369
C41 C 0.6855(4) -0.0229(3) 0.5787(14)
C42 C 0.6274(5) -0.0178(3) 0.5485(18)
H21 H 0.6146 -0.0138 0.4396
C43 C 0.6124(5) -0.0244(3) 0.8272(18)
H22 H 0.5885 -0.0260 0.9189
C44 C 0.6681(5) -0.0276(4) 0.8464(18)
C45 C 0.9043(5) -0.0927(3) 0.7039(16)
C46 C 0.9446(6) -0.1170(4) 0.714(2)
H23 H 0.9601 -0.1265 0.6181
C47 C 0.9351(6) -0.1127(4) 1.001(2)
H24 H 0.9427 -0.1197 1.1103
C48 C 0.8958(5) -0.0873(3) 0.9737(16)
Ag1A Ag 0.05589(3) -0.15667(2) 0.86889(15)
N1A N 0.4726(5) -0.0577(3) 0.6965(17)
N2A N 0.4294(4) -0.1223(2) 0.7489(11)
N3A N 0.1516(4) -0.1789(3) 0.8467(17)
N4A N 0.2658(4) -0.1833(2) 0.8251(11)
N5A N 0.4384(4) -0.2388(2) 0.8235(11)
N6A N 0.5039(4) -0.2956(2) 0.846(2)
N7A N 0.0910(4) -0.1020(3) 0.8459(14)
N8A N 0.1379(4) -0.0399(2) 0.8187(11)
N9A N 0.4066(3) 0.0188(3) 0.6718(12)
N10A N 0.2940(4) 0.0280(3) 0.7269(11)
N11A N 0.1203(4) 0.0776(2) 0.8292(13)
N12A N 0.0388(4) 0.1267(3) 0.8754(16)
O1A O 0.4239(4) -0.1292(2) 0.4568(10)
O2A O 0.4364(5) -0.1123(3) 1.0341(10)
O3A O 0.2566(4) -0.1919(3) 0.5414(10)
O4A O 0.2709(4) -0.1750(3) 1.1144(11)
O5A O 0.4454(4) -0.2317(2) 1.1139(10)
O6A O 0.4318(5) -0.2480(2) 0.5376(10)
O7A O 0.2791(3) 0.0230(2) 0.4432(9)
O8A O 0.3139(3) 0.0324(3) 1.0134(9)
O9A O 0.1651(5) -0.0429(2) 1.0973(14)
O10A O 0.1086(4) -0.0379(2) 0.5385(11)
O11A O 0.1100(4) 0.0826(2) 0.5382(11)
O12A O 0.1290(4) 0.0746(2) 1.1192(12)
C1A C 0.4638(5) -0.0680(3) 0.8541(19)
H1A H 0.4701 -0.0542 0.9469
C2A C 0.4438(6) -0.1020(3) 0.872(2)
C3A C 0.4359(5) -0.1101(3) 0.5970(14)
C4A C 0.4571(5) -0.0784(3) 0.5622(15)
H2A H 0.4609 -0.0711 0.4513
C5A C 0.3991(5) -0.1602(3) 0.4913(12)
C6A C 0.3417(6) -0.1599(3) 0.5061(15)
H3A H 0.3216 -0.1401 0.5001
C7A C 0.3160(5) -0.1901(3) 0.5300(13)
C8A C 0.3456(5) -0.2196(3) 0.5453(12)
H4A H 0.3276 -0.2398 0.5658
C9A C 0.4039(5) -0.2182(3) 0.5288(14)
C10A C 0.4288(4) -0.1887(3) 0.5083(12)
H5A H 0.4673 -0.1877 0.5056
C11A C 0.4111(5) -0.1443(3) 1.0512(12)
C12A C 0.3558(6) -0.1448(3) 1.0685(13)
H6A H 0.3356 -0.1250 1.0651
C13A C 0.3292(5) -0.1752(3) 1.0913(13)
C14A C 0.3569(6) -0.2040(3) 1.1012(14)
H7A H 0.3383 -0.2243 1.1131
C15A C 0.4130(5) -0.2028(3) 1.0934(13)
C16A C 0.4417(5) -0.1725(3) 1.0693(12)
H8A H 0.4803 -0.1719 1.0659
C17A C 0.4567(5) -0.2503(3) 0.9673(13)
C18A C 0.4886(6) -0.2792(3) 0.9908(18)
H9A H 0.4987 -0.2869 1.0974
C19A C 0.4846(6) -0.2860(3) 0.7022(17)
H10A H 0.4928 -0.2982 0.6051
C20A C 0.4505(5) -0.2566(3) 0.6919(15)
C21A C 0.2337(5) -0.1858(3) 0.6820(15)
C22A C 0.1740(6) -0.1829(4) 0.699(2)
H11A H 0.1517 -0.1840 0.6030
C23A C 0.1832(5) -0.1757(3) 0.9922(18)
H12A H 0.1675 -0.1715 1.0975
C24A C 0.2400(5) -0.1791(3) 0.9689(13)
C25A C 0.0892(5) -0.0841(3) 0.704(2)
H13A H 0.0702 -0.0926 0.6113
C26A C 0.1133(4) -0.0549(3) 0.6914(13)
C27A C 0.1152(6) -0.0899(4) 0.978(3)
H14A H 0.1171 -0.1019 1.0789
C28A C 0.1395(5) -0.0560(3) 0.9619(14)
C29A C 0.1386(5) -0.0061(3) 0.5273(15)
C30A C 0.1095(5) 0.0222(3) 0.5400(14)
H15A H 0.0711 0.0220 0.5522
C31A C 0.1397(4) 0.0525(3) 0.5341(13)
C32A C 0.1954(5) 0.0526(3) 0.4941(13)
H16A H 0.2137 0.0728 0.4753
C33A C 0.2234(4) 0.0231(3) 0.4823(12)
C34A C 0.1958(5) -0.0078(2) 0.4960(12)
H17A H 0.2143 -0.0282 0.4849
C35A C 0.1830(5) -0.0099(3) 1.0836(14)
C36A C 0.1462(5) 0.0147(4) 1.1000(14)
H18A H 0.1089 0.0101 1.1183
C37A C 0.1657(5) 0.0484(3) 1.0887(13)
C38A C 0.2209(5) 0.0543(3) 1.0593(14)
H19A H 0.2344 0.0760 1.0516
C39A C 0.2559(4) 0.0274(3) 1.0414(14)
C40A C 0.2373(6) -0.0047(3) 1.0516(14)
H20A H 0.2614 -0.0227 1.0369
C41A C 0.3145(4) 0.0229(3) 0.5787(14)
C42A C 0.3726(5) 0.0178(3) 0.5485(18)
H21A H 0.3854 0.0138 0.4396
C43A C 0.3876(5) 0.0244(3) 0.8272(18)
H22A H 0.4115 0.0260 0.9189
C44A C 0.3319(5) 0.0276(4) 0.8464(18)
C45A C 0.0957(5) 0.0927(3) 0.7039(16)
C46A C 0.0554(6) 0.1170(4) 0.714(2)
H23A H 0.0399 0.1265 0.6181
C47A C 0.0649(6) 0.1127(4) 1.001(2)
H24A H 0.0573 0.1197 1.1103
C48A C 0.1042(5) 0.0873(3) 0.9737(16)
Ag1_2 Ag -0.05589(3) 0.15667(2) 0.86889(15)
Ag1A_2 Ag 1.05589(3) -0.15667(2) 0.86889(15)
Ag1B Ag 0.44411(3) 0.34333(2) 0.86889(15)
Ag1C Ag 0.55589(3) -0.34333(2) 0.86889(15)
N6B N 0.9961(4) 0.2044(2) 0.846(2)
N6C N 0.0039(4) -0.2044(2) 0.846(2)
N12_2 N -0.0388(4) -0.1267(3) 0.8754(16)
N12A_2 N 1.0388(4) 0.1267(3) 0.8754(16)
C49 C 0.7668(11) 0.0978(5) 0.631(5)
H25 H 0.7931 0.1074 0.7023
C50 C 0.7755(12) 0.1010(7) 0.458(6)
H26 H 0.8057 0.1128 0.4158
C51 C 0.7377(11) 0.0859(6) 0.353(4)
H27 H 0.7420 0.0866 0.2362
C52 C 0.6956(12) 0.0705(5) 0.421(3)
H28 H 0.6687 0.0624 0.3477
C53 C 0.6865(7) 0.0649(4) 0.591(6)
H29 H 0.6582 0.0507 0.6264
C54 C 0.7210(11) 0.0812(5) 0.710(3)
H30 H 0.7147 0.0812 0.8258
B1 B 0.9479(8) 0.1488(4) 0.334(2)
F1 F 0.9429(5) 0.1601(3) 0.5033(11)
F2 F 0.9685(5) 0.1156(2) 0.3332(13)
F3 F 0.8940(10) 0.1433(5) 0.296(3)
F4 F 0.9878(16) 0.1672(6) 0.283(5)
O13 O 0.872(2) 0.8213(15) 0.303(3)
N13 N 0.7886(18) 0.8521(5) 0.250(4)
C55 C 0.856(3) 0.8494(16) 0.267(11)
H31 H 0.8799 0.8675 0.2517
C56 C 0.7580(14) 0.8222(6) 0.268(3)
H32 H 0.7192 0.8270 0.2563
H33 H 0.7649 0.8127 0.3775
H34 H 0.7691 0.8066 0.1824
C57 C 0.7578(9) 0.8799(6) 0.305(3)
H35 H 0.7190 0.8755 0.2900
H36 H 0.7682 0.8993 0.2410
H37 H 0.7652 0.8839 0.4228
C58 C 0.0000 1.0000 0.249(3)
C59 C 0.0066(7) 0.9689(7) 0.165(4)
C60 C 0.0034(6) 0.9706(6) -0.016(4)
C61 C 0.0000 1.0000 -0.097(5)
C59A C -0.0066(7) 1.0311(7) 0.165(4)
C60A C -0.0034(6) 1.0294(6) -0.016(4)
B2? B 0.5000 0.0000 0.199(4)
F5? F 0.5000 0.0000 0.0340(13)
F6? F 0.5614(10) 0.0195(7) 0.235(3)
F7? F 0.4726(11) 0.0306(7) 0.251(4)
F8? F 0.527(2) 0.0132(7) 0.306(3)
loop_
_geom_bond_atom_site_label_1
_geom_bond_atom_site_label_2
_geom_bond_site_symmetry_1
_geom_bond_site_symmetry_2
Ag1 N3 1_555 1_555
Ag2 N1 1_555 1_555
N1 C1 1_555 1_555
N2 C2 1_555 1_555
N3 C22 1_555 1_555
N4 C21 1_555 1_555
N5 C17 1_555 1_555
N6 C18 1_555 1_555
N7 Ag1 1_555 1_555
N8 C26 1_555 1_555
N9 Ag2 1_555 1_555
N10 C41 1_555 1_555
N11 C45 1_555 1_555
N12 C46 1_555 1_555
O1 C3 1_555 1_555
O2 C2 1_555 1_555
O3 C7 1_555 1_555
O4 C13 1_555 1_555
O5 C15 1_555 1_555
O6 C9 1_555 1_555
O7 C33 1_555 1_555
O8 C39 1_555 1_555
O9 C28 1_555 1_555
O10 C26 1_555 1_555
O11 C31 1_555 1_555
O12 C37 1_555 1_555
C1 H1 1_555 1_555
C2 C1 1_555 1_555
C3 N2 1_555 1_555
C4 N1 1_555 1_555
H2 C4 1_555 1_555
C5 O1 1_555 1_555
C6 C5 1_555 1_555
H3 C6 1_555 1_555
C7 C6 1_555 1_555
C8 C7 1_555 1_555
H4 C8 1_555 1_555
C9 C8 1_555 1_555
C10 C5 1_555 1_555
H5 C10 1_555 1_555
C11 O2 1_555 1_555
C12 C11 1_555 1_555
H6 C12 1_555 1_555
C13 C12 1_555 1_555
C14 C13 1_555 1_555
H7 C14 1_555 1_555
C15 C14 1_555 1_555
C16 C11 1_555 1_555
H8 C16 1_555 1_555
C17 O5 1_555 1_555
C18 C17 1_555 1_555
H9 C18 1_555 1_555
C19 N6 1_555 1_555
H10 C19 1_555 1_555
C20 N5 1_555 1_555
C21 O3 1_555 1_555
C22 C21 1_555 1_555
H11 C22 1_555 1_555
C23 N3 1_555 1_555
H12 C23 1_555 1_555
C24 N4 1_555 1_555
C25 N7 1_555 1_555
H13 C25 1_555 1_555
C26 C25 1_555 1_555
C27 N7 1_555 1_555
H14 C27 1_555 1_555
C28 N8 1_555 1_555
C29 O10 1_555 1_555
C30 C29 1_555 1_555
H15 C30 1_555 1_555
C31 C30 1_555 1_555
C32 C31 1_555 1_555
H16 C32 1_555 1_555
C33 C32 1_555 1_555
C34 C29 1_555 1_555
H17 C34 1_555 1_555
C35 O9 1_555 1_555
C36 C35 1_555 1_555
H18 C36 1_555 1_555
C37 C36 1_555 1_555
C38 C37 1_555 1_555
H19 C38 1_555 1_555
C39 C38 1_555 1_555
C40 C35 1_555 1_555
H20 C40 1_555 1_555
C41 O7 1_555 1_555
C42 N9 1_555 1_555
H21 C42 1_555 1_555
C43 N9 1_555 1_555
H22 C43 1_555 1_555
C44 N10 1_555 1_555
C45 O11 1_555 1_555
C46 C45 1_555 1_555
H23 C46 1_555 1_555
C47 N12 1_555 1_555
H24 C47 1_555 1_555
C48 N11 1_555 1_555
C49 H25 1_555 1_555
C50 C49 1_555 1_555
H26 C50 1_555 1_555
C51 C50 1_555 1_555
H27 C51 1_555 1_555
C52 C51 1_555 1_555
H28 C52 1_555 1_555
C53 C52 1_555 1_555
H29 C53 1_555 1_555
C54 C49 1_555 1_555
H30 C54 1_555 1_555
B1 F1 1_555 1_555
F2 B1 1_555 1_555
F3 B1 1_555 1_555
F4 B1 1_555 1_555
O13 C55 1_555 1_555
N13 C55 1_555 1_555
C55 H31 1_555 1_555
C56 N13 1_555 1_555
H32 C56 1_555 1_555
H33 C56 1_555 1_555
H34 C56 1_555 1_555
C57 N13 1_555 1_555
H35 C57 1_555 1_555
H36 C57 1_555 1_555
H37 C57 1_555 1_555
C58 C59 1_555 1_555
C59 C60 1_555 1_555
C60 C61 1_555 1_555
C61 C60A 1_555 1_555
Ag1A N3A 1_555 1_555
N1A Ag2 1_555 1_555
N2A C2A 1_555 1_555
N3A C22A 1_555 1_555
N4A C21A 1_555 1_555
N5A C17A 1_555 1_555
N6A C18A 1_555 1_555
N7A Ag1A 1_555 1_555
N8A C26A 1_555 1_555
N9A Ag2 1_555 1_555
N10A C41A 1_555 1_555
N11A C45A 1_555 1_555
N12A C46A 1_555 1_555
O1A C3A 1_555 1_555
O2A C2A 1_555 1_555
O3A C7A 1_555 1_555
O4A C13A 1_555 1_555
O5A C15A 1_555 1_555
O6A C9A 1_555 1_555
O7A C33A 1_555 1_555
O8A C39A 1_555 1_555
O9A C28A 1_555 1_555
O10A C26A 1_555 1_555
O11A C31A 1_555 1_555
O12A C37A 1_555 1_555
C1A N1A 1_555 1_555
H1A C1A 1_555 1_555
C2A C1A 1_555 1_555
C3A N2A 1_555 1_555
C4A N1A 1_555 1_555
H2A C4A 1_555 1_555
C5A O1A 1_555 1_555
C6A C5A 1_555 1_555
H3A C6A 1_555 1_555
C7A C6A 1_555 1_555
C8A C7A 1_555 1_555
H4A C8A 1_555 1_555
C9A C8A 1_555 1_555
C10A C5A 1_555 1_555
H5A C10A 1_555 1_555
C11A O2A 1_555 1_555
C12A C11A 1_555 1_555
H6A C12A 1_555 1_555
C13A C12A 1_555 1_555
C14A C13A 1_555 1_555
H7A C14A 1_555 1_555
C15A C14A 1_555 1_555
C16A C11A 1_555 1_555
H8A C16A 1_555 1_555
C17A O5A 1_555 1_555
C18A C17A 1_555 1_555
H9A C18A 1_555 1_555
C19A N6A 1_555 1_555
H10A C19A 1_555 1_555
C20A N5A 1_555 1_555
C21A O3A 1_555 1_555
C22A C21A 1_555 1_555
H11A C22A 1_555 1_555
C23A N3A 1_555 1_555
H12A C23A 1_555 1_555
C24A N4A 1_555 1_555
C25A N7A 1_555 1_555
H13A C25A 1_555 1_555
C26A C25A 1_555 1_555
C27A N7A 1_555 1_555
H14A C27A 1_555 1_555
C28A N8A 1_555 1_555
C29A O10A 1_555 1_555
C30A C29A 1_555 1_555
H15A C30A 1_555 1_555
C31A C30A 1_555 1_555
C32A C31A 1_555 1_555
H16A C32A 1_555 1_555
C33A C32A 1_555 1_555
C34A C29A 1_555 1_555
H17A C34A 1_555 1_555
C35A O9A 1_555 1_555
C36A C35A 1_555 1_555
H18A C36A 1_555 1_555
C37A C36A 1_555 1_555
C38A C37A 1_555 1_555
H19A C38A 1_555 1_555
C39A C38A 1_555 1_555
C40A C35A 1_555 1_555
H20A C40A 1_555 1_555
C41A O7A 1_555 1_555
C42A N9A 1_555 1_555
H21A C42A 1_555 1_555
C43A N9A 1_555 1_555
H22A C43A 1_555 1_555
C44A N10A 1_555 1_555
C45A O11A 1_555 1_555
C46A C45A 1_555 1_555
H23A C46A 1_555 1_555
C47A N12A 1_555 1_555
H24A C47A 1_555 1_555
C48A N11A 1_555 1_555
Ag1_2 N12A 1_555 1_555
Ag1A_2 N12 1_555 1_555
Ag1B N6 1_555 1_555
Ag1C N6A 1_555 1_555
N6B Ag1 1_555 1_555
N6C Ag1A 1_555 1_555
N12_2 Ag1A 1_555 1_555
N12A_2 Ag1 1_555 1_555
C59A C58 1_555 1_555
C60A C59A 1_555 1_555
O4 C24 1_555 1_555
O6 C20 1_555 1_555
O8 C44 1_555 1_555
O12 C48 1_555 1_555
C3 C4 1_555 1_555
C9 C10 1_555 1_555
C15 C16 1_555 1_555
C19 C20 1_555 1_555
C23 C24 1_555 1_555
C27 C28 1_555 1_555
C33 C34 1_555 1_555
C39 C40 1_555 1_555
C41 C42 1_555 1_555
C43 C44 1_555 1_555
C47 C48 1_555 1_555
C53 C54 1_555 1_555
O4A C24A 1_555 1_555
O6A C20A 1_555 1_555
O8A C44A 1_555 1_555
O12A C48A 1_555 1_555
C3A C4A 1_555 1_555
C9A C10A 1_555 1_555
C15A C16A 1_555 1_555
C19A C20A 1_555 1_555
C23A C24A 1_555 1_555
C27A C28A 1_555 1_555
C33A C34A 1_555 1_555
C39A C40A 1_555 1_555
C41A C42A 1_555 1_555
C43A C44A 1_555 1_555
C47A C48A 1_555 1_555

#END
