
#######################################################################
#
#                 Cambridge Crystallographic Data Centre
#                                CCDC 
#
#######################################################################
#
# If this CIF has been generated from an entry in the Cambridge 
# Structural Database, then it will include bibliographic, chemical, 
# crystal, experimental, refinement or atomic coordinate data resulting 
# from the CCDC's data processing and validation procedures.
#
#######################################################################

data_MIPNIK
_symmetry_cell_setting           monoclinic
_symmetry_space_group_name_H-M   'C 2/c'
_symmetry_Int_Tables_number      15
_space_group_name_Hall           '-C 2yn'
loop_
_symmetry_equiv_pos_site_id
_symmetry_equiv_pos_as_xyz
1 x,y,z
2 -x,y,1/2-z
3 1/2+x,1/2+y,z
4 1/2-x,1/2+y,1/2-z
5 -x,-y,-z
6 x,-y,1/2+z
7 1/2-x,1/2-y,-z
8 1/2+x,1/2-y,1/2+z
_cell_length_a                   14.4555(3)
_cell_length_b                   18.4604(4)
_cell_length_c                   13.0973(5)
_cell_angle_alpha                90
_cell_angle_beta                 112.3280(10)
_cell_angle_gamma                90
_cell_volume                     3233.03
loop_
_atom_site_label
_atom_site_type_symbol
_atom_site_fract_x
_atom_site_fract_y
_atom_site_fract_z
Cu1 Cu 0.5000 0.06267(2) 0.2500
Cl1 Cl 0.44875(6) 0.10327(7) 0.07336(9)
O1 O 0.09976(13) 0.09201(12) 0.04856(15)
O2 O 0.22087(14) 0.05933(11) 0.42627(16)
O3 O 0.09535(14) 0.29767(10) 0.43692(15)
N1 N 0.34896(16) 0.05851(12) 0.2395(2)
N2 N 0.15820(16) 0.07634(12) 0.23762(19)
N3 N 0.0000 0.29531(17) 0.2500
N4 N 0.0000 0.44476(16) 0.2500
C1 C 0.00291(19) 0.19472(15) 0.0561(2)
H1 H 0.0522 0.2249 0.0504
C2 C 0.01215(18) 0.12065(15) 0.0562(2)
C3 C 0.17658(19) 0.07858(14) 0.1467(2)
C4 C 0.2712(2) 0.06981(15) 0.1449(2)
H2 H 0.2805 0.0718 0.0784
C5 C 0.3314(2) 0.05228(16) 0.3323(2)
H3 H 0.3833 0.0410 0.3986
C6 C 0.2361(2) 0.06268(14) 0.3293(2)
C7 C 0.14421(18) 0.10503(15) 0.4306(2)
C8 C 0.15686(19) 0.17906(15) 0.4287(2)
H4 H 0.2139 0.1988 0.4231
C9 C 0.08244(19) 0.22246(14) 0.4352(2)
C10 C 0.04594(18) 0.33332(14) 0.3405(2)
C11 C 0.0480(2) 0.40813(15) 0.3428(2)
H5 H 0.0824 0.4326 0.4084
C12 C 0.06039(19) 0.07407(14) 0.4379(2)
H6 H 0.0529 0.0241 0.4388
O1A O -0.09976(13) 0.09201(12) 0.45144(15)
O2A O -0.22087(14) 0.05933(11) 0.07373(16)
O3A O -0.09535(14) 0.29767(10) 0.06308(15)
N1A N -0.34896(16) 0.05851(12) 0.2605(2)
N2A N -0.15820(16) 0.07634(12) 0.26238(19)
C1A C -0.00291(19) 0.19472(15) 0.4439(2)
H1A H -0.0522 0.2249 0.4496
C2A C -0.01215(18) 0.12065(15) 0.4438(2)
C3A C -0.17658(19) 0.07858(14) 0.3533(2)
C4A C -0.2712(2) 0.06981(15) 0.3551(2)
H2A H -0.2805 0.0718 0.4216
C5A C -0.3314(2) 0.05228(16) 0.1677(2)
H3A H -0.3833 0.0410 0.1014
C6A C -0.2361(2) 0.06268(14) 0.1707(2)
C7A C -0.14421(18) 0.10503(15) 0.0694(2)
C8A C -0.15686(19) 0.17906(15) 0.0713(2)
H4A H -0.2139 0.1988 0.0769
C9A C -0.08244(19) 0.22246(14) 0.0648(2)
C10A C -0.04594(18) 0.33332(14) 0.1595(2)
C11A C -0.0480(2) 0.40813(15) 0.1572(2)
H5A H -0.0824 0.4326 0.0916
C12A C -0.06039(19) 0.07407(14) 0.0621(2)
H6A H -0.0529 0.0241 0.0612
Cl1A Cl 0.55125(6) 0.10327(7) 0.42664(9)
Cu1_2 Cu -0.5000 0.06267(2) 0.2500
Cu1B Cu 0.0000 0.56267(2) 0.2500
N1A_2 N 0.65104(16) 0.05851(12) 0.2605(2)
N4B N 0.5000 -0.05524(16) 0.2500
O4 O 0.2557(7) 0.2893(7) 0.2666(9)
C13 C 0.2627(9) 0.3634(6) 0.2472(8)
H7 H 0.1979 0.3822 0.1997
H8 H 0.2852 0.3900 0.3162
C14 C 0.2999(15) 0.2535(6) 0.2135(17)
H9 H 0.2513 0.2246 0.1561
H10 H 0.3491 0.2210 0.2635
C15 C 0.3301(9) 0.3711(5) 0.1971(11)
H11 H 0.3921 0.3920 0.2478
H12 H 0.3032 0.4020 0.1326
C16 C 0.3461(12) 0.3008(8) 0.1670(15)
H13 H 0.3183 0.2959 0.0873
H14 H 0.4172 0.2906 0.1935
loop_
_geom_bond_atom_site_label_1
_geom_bond_atom_site_label_2
_geom_bond_site_symmetry_1
_geom_bond_site_symmetry_2
Cu1 Cl1 1_555 1_555
O1 C2 1_555 1_555
O2 C6 1_555 1_555
O3 C9 1_555 1_555
N1 Cu1 1_555 1_555
N2 C3 1_555 1_555
N3 C10 1_555 1_555
N4 C11 1_555 1_555
C1 H1 1_555 1_555
C2 C1 1_555 1_555
C3 O1 1_555 1_555
C4 N1 1_555 1_555
H2 C4 1_555 1_555
C5 N1 1_555 1_555
H3 C5 1_555 1_555
C6 N2 1_555 1_555
C7 O2 1_555 1_555
C8 C7 1_555 1_555
H4 C8 1_555 1_555
C9 C8 1_555 1_555
C10 O3 1_555 1_555
C11 C10 1_555 1_555
H5 C11 1_555 1_555
C12 C7 1_555 1_555
H6 C12 1_555 1_555
O4 C13 1_555 1_555
C13 H7 1_555 1_555
H8 C13 1_555 1_555
C14 O4 1_555 1_555
H9 C14 1_555 1_555
H10 C14 1_555 1_555
C15 C13 1_555 1_555
H11 C15 1_555 1_555
H12 C15 1_555 1_555
C16 C14 1_555 1_555
H13 C16 1_555 1_555
H14 C16 1_555 1_555
O1A C2A 1_555 1_555
O2A C6A 1_555 1_555
O3A C9A 1_555 1_555
N1A C4A 1_555 1_555
N2A C3A 1_555 1_555
C1A C9 1_555 1_555
H1A C1A 1_555 1_555
C2A C12 1_555 1_555
C3A O1A 1_555 1_555
C4A C3A 1_555 1_555
H2A C4A 1_555 1_555
C5A N1A 1_555 1_555
H3A C5A 1_555 1_555
C6A N2A 1_555 1_555
C7A O2A 1_555 1_555
C8A C7A 1_555 1_555
H4A C8A 1_555 1_555
C9A C1 1_555 1_555
C10A N3 1_555 1_555
C11A N4 1_555 1_555
H5A C11A 1_555 1_555
C12A C2 1_555 1_555
H6A C12A 1_555 1_555
Cl1A Cu1 1_555 1_555
Cu1_2 N1A 1_555 1_555
Cu1B N4 1_555 1_555
N1A_2 Cu1 1_555 1_555
N4B Cu1 1_555 1_555
C3 C4 1_555 1_555
C5 C6 1_555 1_555
C15 C16 1_555 1_555
O3A C10A 1_555 1_555
C1A C2A 1_555 1_555
C5A C6A 1_555 1_555
C7A C12A 1_555 1_555
C8A C9A 1_555 1_555
C10A C11A 1_555 1_555

#END
