
#######################################################################
#
#                 Cambridge Crystallographic Data Centre
#                                CCDC 
#
#######################################################################
#
# If this CIF has been generated from an entry in the Cambridge 
# Structural Database, then it will include bibliographic, chemical, 
# crystal, experimental, refinement or atomic coordinate data resulting 
# from the CCDC's data processing and validation procedures.
#
#######################################################################

data_MIPPOS
_symmetry_cell_setting           triclinic
_symmetry_space_group_name_H-M   'P -1'
_symmetry_Int_Tables_number      2
_space_group_name_Hall           '-P 1'
loop_
_symmetry_equiv_pos_site_id
_symmetry_equiv_pos_as_xyz
1 x,y,z
2 -x,-y,-z
_cell_length_a                   8.9664(3)
_cell_length_b                   12.5605(5)
_cell_length_c                   13.3868(5)
_cell_angle_alpha                99.7180(10)
_cell_angle_beta                 95.0440(10)
_cell_angle_gamma                101.3990(10)
_cell_volume                     1445.19
loop_
_atom_site_label
_atom_site_type_symbol
_atom_site_fract_x
_atom_site_fract_y
_atom_site_fract_z
Cu1 Cu 0.41353(3) 0.66738(2) 0.57260(2)
O1 O 0.50536(17) 1.41071(13) 0.85252(12)
O2 O 0.27670(18) 1.24347(14) 1.11353(12)
O3 O -0.18583(18) 1.11734(15) 0.90468(12)
O4 O 0.02633(17) 1.32775(13) 0.66450(13)
O5 O 0.48068(18) 1.02495(13) 0.85194(12)
O6 O 0.03648(18) 0.94442(13) 0.62501(12)
N1 N 0.3409(2) 0.80120(15) 0.64198(14)
N2 N 0.2571(2) 0.98857(15) 0.73893(14)
N3 N 0.3471(2) 1.54876(16) 0.66952(14)
N4 N 0.2654(2) 1.36564(15) 0.75885(14)
N5 N -0.1085(2) 1.22610(17) 1.17333(15)
N6 N 0.0480(2) 1.18164(16) 1.00642(14)
C1 C 0.4586(2) 1.31597(18) 0.89394(17)
C2 C 0.4899(2) 1.21705(19) 0.84861(17)
H1 H 0.5398 1.2115 0.7888
C3 C 0.4459(2) 1.12631(19) 0.89357(17)
C4 C 0.3757(2) 1.13202(19) 0.98153(17)
H2 H 0.3476 1.0689 1.0117
C5 C 0.3480(2) 1.23354(19) 1.02395(16)
C6 C 0.3885(2) 1.32629(19) 0.98212(17)
H3 H 0.3690 1.3953 1.0128
C7 C -0.0003(2) 1.03950(19) 0.68076(17)
C8 C -0.0730(2) 1.03025(19) 0.76649(17)
H4 H -0.0981 0.9616 0.7885
C9 C -0.1076(2) 1.1246(2) 0.81884(17)
C10 C -0.0741(2) 1.22502(19) 0.78766(17)
H5 H -0.0992 1.2892 0.8247
C11 C -0.0029(2) 1.22889(19) 0.70085(18)
C12 C 0.0349(2) 1.13674(19) 0.64562(17)
H6 H 0.0833 1.1406 0.5856
C13 C 0.4474(3) 1.52369(19) 0.73710(17)
H7 H 0.5484 1.5679 0.7545
C14 C 0.4020(2) 1.43223(19) 0.78146(17)
C15 C 0.1690(2) 1.39290(19) 0.69214(17)
C16 C 0.2059(3) 1.48479(19) 0.64742(18)
H8 H 0.1315 1.5022 0.6014
C17 C 0.1197(3) 1.22330(18) 1.09952(17)
C18 C 0.0441(3) 1.24573(19) 1.18401(18)
H9 H 0.1010 1.2751 1.2495
C19 C -0.1831(3) 1.1853(2) 1.07996(18)
H10 H -0.2920 1.1712 1.0697
C20 C -0.1031(3) 1.16340(19) 0.99801(18)
C21 C 0.4301(3) 0.86697(19) 0.72344(17)
H11 H 0.5229 0.8496 0.7489
C22 C 0.3854(2) 0.96032(18) 0.76989(17)
C23 C 0.1707(2) 0.92048(19) 0.66005(17)
C24 C 0.2098(3) 0.82595(19) 0.60882(17)
H12 H 0.1444 0.7801 0.5515
N7 N 0.6853(2) 0.68837(17) 0.55767(15)
N8 N 0.2490(2) 0.58610(18) 0.37940(15)
O7 O 0.5825(2) 0.6350(2) 0.48614(15)
O8 O 0.8207(2) 0.70625(18) 0.55108(15)
O9 O 0.63070(19) 0.72251(16) 0.63891(13)
O10 O 0.3277(2) 0.6609(2) 0.34883(17)
O11 O 0.1779(3) 0.50075(18) 0.32536(17)
O12 O 0.2357(2) 0.59896(17) 0.47701(13)
Cu1_2 Cu 0.41353(3) 1.66738(2) 0.57260(2)
N3_2 N 0.3471(2) 0.54876(16) 0.66952(14)
C25 C 1.0286(3) 0.5288(2) 0.9072(2)
H13 H 1.0486 0.5484 0.8434
C26 C 0.8796(3) 0.4881(2) 0.9236(2)
H14 H 0.7971 0.4802 0.8714
C27 C 0.8515(3) 0.4590(2) 1.0165(2)
H15 H 0.7494 0.4306 1.0279
C25A C 0.9714(3) 0.4712(2) 1.0928(2)
H13A H 0.9514 0.4516 1.1566
C26A C 1.1204(3) 0.5119(2) 1.0764(2)
H14A H 1.2029 0.5198 1.1286
C27A C 1.1485(3) 0.5410(2) 0.9835(2)
H15A H 1.2506 0.5694 0.9721
C28 C 0.5334(3) 0.9059(3) 0.4450(2)
H16 H 0.5559 0.8412 0.4070
C29 C 0.3979(3) 0.9375(3) 0.4185(2)
H17 H 0.3276 0.8941 0.3623
C30 C 0.3644(3) 1.0314(3) 0.4731(2)
H18 H 0.2716 1.0528 0.4544
C28A C 0.4666(3) 1.0941(3) 0.5550(2)
H16A H 0.4441 1.1588 0.5930
C29A C 0.6021(3) 1.0625(3) 0.5815(2)
H17A H 0.6724 1.1059 0.6377
C30A C 0.6356(3) 0.9686(3) 0.5269(2)
H18A H 0.7284 0.9472 0.5456
loop_
_geom_bond_atom_site_label_1
_geom_bond_atom_site_label_2
_geom_bond_site_symmetry_1
_geom_bond_site_symmetry_2
Cu1 N1 1_555 1_555
O1 C1 1_555 1_555
O2 C5 1_555 1_555
O3 C9 1_555 1_555
O4 C11 1_555 1_555
O5 C3 1_555 1_555
O6 C7 1_555 1_555
N1 C21 1_555 1_555
N2 C22 1_555 1_555
N3 C13 1_555 1_555
N4 C14 1_555 1_555
N5 C18 1_555 1_555
N6 C17 1_555 1_555
C1 C2 1_555 1_555
C2 H1 1_555 1_555
C3 C2 1_555 1_555
C4 C3 1_555 1_555
H2 C4 1_555 1_555
C5 C4 1_555 1_555
C6 C1 1_555 1_555
H3 C6 1_555 1_555
C7 C8 1_555 1_555
C8 H4 1_555 1_555
C9 C8 1_555 1_555
C10 C9 1_555 1_555
H5 C10 1_555 1_555
C11 C10 1_555 1_555
C12 C7 1_555 1_555
H6 C12 1_555 1_555
C13 H7 1_555 1_555
C14 O1 1_555 1_555
C15 O4 1_555 1_555
C16 N3 1_555 1_555
H8 C16 1_555 1_555
C17 O2 1_555 1_555
C18 C17 1_555 1_555
H9 C18 1_555 1_555
C19 N5 1_555 1_555
H10 C19 1_555 1_555
C20 O3 1_555 1_555
C21 H11 1_555 1_555
C22 O5 1_555 1_555
C23 O6 1_555 1_555
C24 N1 1_555 1_555
H12 C24 1_555 1_555
N7 O7 1_555 1_555
N8 O10 1_555 1_555
O7 Cu1 1_555 1_555
O8 N7 1_555 1_555
O9 Cu1 1_555 1_555
O11 N8 1_555 1_555
O12 Cu1 1_555 1_555
C25 H13 1_555 1_555
C26 C25 1_555 1_555
H14 C26 1_555 1_555
C27 C26 1_555 1_555
H15 C27 1_555 1_555
C28 H16 1_555 1_555
C29 C28 1_555 1_555
H17 C29 1_555 1_555
C30 C29 1_555 1_555
H18 C30 1_555 1_555
Cu1_2 N3 1_555 1_555
N3_2 Cu1 1_555 1_555
C25A C27 1_555 1_555
H13A C25A 1_555 1_555
C26A C25A 1_555 1_555
H14A C26A 1_555 1_555
C27A C25 1_555 1_555
H15A C27A 1_555 1_555
C28A C30 1_555 1_555
H16A C28A 1_555 1_555
C29A C28A 1_555 1_555
H17A C29A 1_555 1_555
C30A C28 1_555 1_555
H18A C30A 1_555 1_555
N2 C23 1_555 1_555
N4 C15 1_555 1_555
N6 C20 1_555 1_555
C5 C6 1_555 1_555
C11 C12 1_555 1_555
C13 C14 1_555 1_555
C15 C16 1_555 1_555
C19 C20 1_555 1_555
C21 C22 1_555 1_555
C23 C24 1_555 1_555
N7 O9 1_555 1_555
N8 O12 1_555 1_555
C26A C27A 1_555 1_555
C29A C30A 1_555 1_555

#END
