
#######################################################################
#
#                 Cambridge Crystallographic Data Centre
#                                CCDC 
#
#######################################################################
#
# If this CIF has been generated from an entry in the Cambridge 
# Structural Database, then it will include bibliographic, chemical, 
# crystal, experimental, refinement or atomic coordinate data resulting 
# from the CCDC's data processing and validation procedures.
#
#######################################################################

data_MIPPIM
_symmetry_cell_setting           triclinic
_symmetry_space_group_name_H-M   'P -1'
_symmetry_Int_Tables_number      2
_space_group_name_Hall           '-P 1'
loop_
_symmetry_equiv_pos_site_id
_symmetry_equiv_pos_as_xyz
1 x,y,z
2 -x,-y,-z
_cell_length_a                   8.8580(2)
_cell_length_b                   12.6024(3)
_cell_length_c                   13.4956(4)
_cell_angle_alpha                100.8000(10)
_cell_angle_beta                 93.5000(10)
_cell_angle_gamma                100.6030(10)
_cell_volume                     1447.45
loop_
_atom_site_label
_atom_site_type_symbol
_atom_site_fract_x
_atom_site_fract_y
_atom_site_fract_z
Zn1 Zn 0.39933(2) 0.650171(15) 0.573309(14)
O1 O 0.03806(14) 0.94190(10) 0.62340(9)
O2 O 0.48341(14) 1.02196(10) 0.84328(10)
O3 O 0.27326(14) 1.24255(11) 1.10882(9)
O4 O -0.19018(14) 1.11619(11) 0.90679(9)
O5 O 0.50267(14) 1.40677(10) 0.84768(9)
O6 O 0.02119(13) 1.32433(10) 0.66743(9)
N1 N 0.25937(16) 0.98566(11) 0.73431(11)
N2 N 0.34245(16) 0.79420(11) 0.63916(10)
N3 N 0.34221(16) 1.54001(11) 0.66678(11)
N4 N 0.26171(16) 1.36141(11) 0.75756(11)
N5 N -0.11625(18) 1.22622(13) 1.17347(11)
N6 N 0.04425(16) 1.18052(12) 1.00492(11)
N7 N 0.69423(17) 0.69068(12) 0.56483(11)
N8 N 0.24603(17) 0.57930(13) 0.37507(11)
O7 O 0.82766(15) 0.71065(12) 0.54533(11)
O8 O 0.58451(15) 0.64659(12) 0.49407(10)
O9 O 0.65445(15) 0.71136(12) 0.65239(10)
O10 O 0.1812(2) 0.50179(14) 0.30929(12)
O11 O 0.32147(18) 0.66350(15) 0.35845(14)
O12 O 0.23081(17) 0.57136(14) 0.46730(10)
C1 C 0.17216(19) 0.91734(14) 0.65725(13)
C2 C 0.21122(19) 0.82062(14) 0.60711(13)
H1 H 0.1458 0.7743 0.5512
C3 C 0.43238(19) 0.86071(14) 0.71848(13)
H2 H 0.5251 0.8425 0.7431
C4 C 0.38761(19) 0.95665(14) 0.76390(13)
C5 C 0.16460(19) 1.38745(14) 0.69261(13)
C6 C 0.20083(19) 1.47758(14) 0.64704(13)
H3 H 0.1259 1.4946 0.6023
C7 C 0.44429(19) 1.51696(14) 0.73348(13)
H4 H 0.5451 1.5612 0.7496
C8 C 0.39925(19) 1.42714(14) 0.77837(13)
C9 C -0.10831(19) 1.16258(14) 0.99864(13)
C10 C 0.11528(19) 1.22243(14) 1.09686(13)
C11 C 0.0375(2) 1.24550(14) 1.18223(13)
H5 H 0.0939 1.2750 1.2467
C12 C -0.1901(2) 1.18518(15) 1.08128(14)
H6 H -0.2997 1.1714 1.0724
C13 C -0.00160(19) 1.03655(14) 0.68016(13)
C14 C 0.03275(18) 1.13358(14) 0.64570(13)
H7 H 0.0818 1.1372 0.5854
C15 C -0.00730(18) 1.22551(13) 0.70272(13)
C16 C -0.07937(18) 1.22279(14) 0.79002(13)
H8 H -0.1059 1.2871 0.8278
C17 C -0.11176(18) 1.12298(14) 0.82062(13)
C18 C -0.07508(19) 1.02846(14) 0.76657(13)
H9 H -0.0995 0.9602 0.7880
C19 C 0.44683(18) 1.12353(14) 0.88643(13)
C20 C 0.37579(19) 1.13038(14) 0.97494(13)
H10 H 0.3486 1.0678 1.0048
C21 C 0.34560(18) 1.23162(14) 1.01858(12)
C22 C 0.38601(19) 1.32413(14) 0.97754(13)
H11 H 0.3658 1.3933 1.0092
C23 C 0.45672(18) 1.31251(14) 0.88890(13)
C24 C 0.48964(18) 1.21360(14) 0.84189(13)
H12 H 0.5397 1.2075 0.7814
Zn1_2 Zn 0.39933(2) 1.650171(15) 0.573309(14)
N3_2 N 0.34221(16) 0.54001(11) 0.66678(11)
C25 C -0.0273(2) 0.47046(16) 0.09180(15)
H13 H -0.0462 0.4501 0.1549
C26 C 0.1217(2) 0.51294(16) 0.07365(16)
H14 H 0.2051 0.5218 0.1241
C27 C 0.1483(2) 0.54239(16) -0.01840(16)
H15 H 0.2504 0.5716 -0.0311
C25A C 0.0273(2) 0.52954(16) -0.09180(15)
H13A H 0.0462 0.5499 -0.1549
C26A C -0.1217(2) 0.48706(16) -0.07365(16)
H14A H -0.2051 0.4782 -0.1241
C27A C -0.1483(2) 0.45761(16) 0.01840(16)
H15A H -0.2504 0.4284 0.0311
C28 C 0.3668(2) 1.03472(18) 0.47243(15)
H16 H 0.2755 1.0584 0.4533
C29 C 0.3979(2) 0.93715(19) 0.42019(15)
H17 H 0.3275 0.8938 0.3653
C30 C 0.5311(2) 0.90203(18) 0.44726(15)
H18 H 0.5523 0.8350 0.4110
C28A C 0.6332(2) 0.96528(18) 0.52757(15)
H16A H 0.7245 0.9416 0.5467
C29A C 0.6021(2) 1.06285(19) 0.57981(15)
H17A H 0.6725 1.1062 0.6347
C30A C 0.4689(2) 1.09797(18) 0.55274(15)
H18A H 0.4477 1.1650 0.5890
loop_
_geom_bond_atom_site_label_1
_geom_bond_atom_site_label_2
_geom_bond_site_symmetry_1
_geom_bond_site_symmetry_2
Zn1 N2 1_555 1_555
O1 C1 1_555 1_555
O2 C4 1_555 1_555
O3 C10 1_555 1_555
O4 C9 1_555 1_555
O5 C8 1_555 1_555
O6 C5 1_555 1_555
N1 C1 1_555 1_555
N2 C2 1_555 1_555
N3 C6 1_555 1_555
N4 C5 1_555 1_555
N5 C11 1_555 1_555
N6 C9 1_555 1_555
N7 O7 1_555 1_555
N8 O10 1_555 1_555
O8 Zn1 1_555 1_555
O9 Zn1 1_555 1_555
O11 N8 1_555 1_555
O12 Zn1 1_555 1_555
C1 C2 1_555 1_555
C2 H1 1_555 1_555
C3 N2 1_555 1_555
H2 C3 1_555 1_555
C4 N1 1_555 1_555
C5 C6 1_555 1_555
C6 H3 1_555 1_555
C7 N3 1_555 1_555
H4 C7 1_555 1_555
C8 N4 1_555 1_555
C9 C12 1_555 1_555
C10 N6 1_555 1_555
C11 C10 1_555 1_555
H5 C11 1_555 1_555
C12 N5 1_555 1_555
H6 C12 1_555 1_555
C13 O1 1_555 1_555
C14 C13 1_555 1_555
H7 C14 1_555 1_555
C15 O6 1_555 1_555
C16 C15 1_555 1_555
H8 C16 1_555 1_555
C17 O4 1_555 1_555
C18 C13 1_555 1_555
H9 C18 1_555 1_555
C19 O2 1_555 1_555
C20 C19 1_555 1_555
H10 C20 1_555 1_555
C21 O3 1_555 1_555
C22 C21 1_555 1_555
H11 C22 1_555 1_555
C23 O5 1_555 1_555
C24 C19 1_555 1_555
H12 C24 1_555 1_555
C25 H13 1_555 1_555
C26 C25 1_555 1_555
H14 C26 1_555 1_555
C27 C26 1_555 1_555
H15 C27 1_555 1_555
C28 H16 1_555 1_555
C29 C28 1_555 1_555
H17 C29 1_555 1_555
C30 C29 1_555 1_555
H18 C30 1_555 1_555
Zn1_2 N3 1_555 1_555
N3_2 Zn1 1_555 1_555
C25A C27 1_555 1_555
H13A C25A 1_555 1_555
C26A C25A 1_555 1_555
H14A C26A 1_555 1_555
C27A C25 1_555 1_555
H15A C27A 1_555 1_555
C28A C30 1_555 1_555
H16A C28A 1_555 1_555
C29A C28A 1_555 1_555
H17A C29A 1_555 1_555
C30A C28 1_555 1_555
H18A C30A 1_555 1_555
N7 O8 1_555 1_555
N7 O9 1_555 1_555
N8 O12 1_555 1_555
C3 C4 1_555 1_555
C7 C8 1_555 1_555
C14 C15 1_555 1_555
C16 C17 1_555 1_555
C17 C18 1_555 1_555
C20 C21 1_555 1_555
C22 C23 1_555 1_555
C23 C24 1_555 1_555
C26A C27A 1_555 1_555
C29A C30A 1_555 1_555

#END
