
#######################################################################
#
#                 Cambridge Crystallographic Data Centre
#                                CCDC 
#
#######################################################################
#
# If this CIF has been generated from an entry in the Cambridge 
# Structural Database, then it will include bibliographic, chemical, 
# crystal, experimental, refinement or atomic coordinate data resulting 
# from the CCDC's data processing and validation procedures.
#
#######################################################################

data_MIPPUY
_symmetry_cell_setting           monoclinic
_symmetry_space_group_name_H-M   'P 21/c'
_symmetry_Int_Tables_number      14
_space_group_name_Hall           '-P 2ybc'
loop_
_symmetry_equiv_pos_site_id
_symmetry_equiv_pos_as_xyz
1 x,y,z
2 -x,1/2+y,1/2-z
3 -x,-y,-z
4 x,1/2-y,1/2+z
_cell_length_a                   13.646(2)
_cell_length_b                   10.0009(17)
_cell_length_c                   20.571(3)
_cell_angle_alpha                90
_cell_angle_beta                 104.816(2)
_cell_angle_gamma                90
_cell_volume                     2714.03
loop_
_atom_site_label
_atom_site_type_symbol
_atom_site_fract_x
_atom_site_fract_y
_atom_site_fract_z
Ag1 Ag 0.52073(4) 0.53706(7) 0.24741(3)
O1 O 0.2628(3) 0.5259(4) 0.4136(2)
O2 O 0.1528(4) 0.8374(4) 0.5570(2)
O3 O 0.1259(3) 1.1460(4) 0.3855(2)
O4 O -0.1620(3) 0.8910(4) 0.2645(2)
O5 O -0.0876(3) 0.5408(4) 0.4152(2)
O6 O 0.1664(3) 0.8074(4) 0.2295(2)
N1 N 0.3722(4) 0.5757(5) 0.2750(3)
N2 N 0.2131(4) 0.6705(5) 0.3232(2)
N3 N 0.1393(4) 0.9889(5) 0.4696(2)
N4 N 0.2552(4) 1.1687(5) 0.5609(3)
N5 N -0.1211(3) 0.7144(5) 0.3390(2)
N6 N -0.3185(4) 0.6217(5) 0.2950(3)
C1 C 0.3572(4) 0.5298(6) 0.3330(3)
H1 H 0.4020 0.4653 0.3586
C2 C 0.2759(4) 0.5771(6) 0.3552(3)
C3 C 0.2300(4) 0.7128(6) 0.2658(3)
C4 C 0.3071(4) 0.6649(6) 0.2401(3)
H2 H 0.3138 0.6953 0.1977
C5 C 0.1838(4) 0.5816(6) 0.4369(3)
C6 C 0.2084(4) 0.6809(6) 0.4856(3)
H3 H 0.2764 0.7095 0.5032
C7 C 0.1295(5) 0.7364(6) 0.5073(3)
C8 C 0.0307(4) 0.6942(6) 0.4843(3)
H4 H -0.0222 0.7335 0.5003
C9 C 0.0111(4) 0.5930(6) 0.4373(3)
C10 C 0.0864(5) 0.5352(6) 0.4130(3)
H5 H 0.0714 0.4652 0.3807
C11 C 0.1760(5) 0.9588(6) 0.5342(3)
C12 C 0.2341(5) 1.0484(6) 0.5800(3)
H6 H 0.2590 1.0226 0.6257
C13 C 0.2187(5) 1.2008(6) 0.4958(3)
H7 H 0.2322 1.2866 0.4802
C14 C 0.1616(4) 1.1092(6) 0.4515(3)
C15 C 0.0844(4) 1.0434(5) 0.3403(3)
C16 C -0.0190(4) 1.0169(6) 0.3269(3)
H8 H -0.0614 1.0649 0.3488
C17 C -0.0569(4) 0.9188(6) 0.2809(3)
C18 C 0.0033(4) 0.8473(6) 0.2478(3)
H9 H -0.0245 0.7803 0.2157
C19 C 0.1053(4) 0.8781(6) 0.2637(3)
C20 C 0.1483(4) 0.9756(6) 0.3092(3)
H10 H 0.2186 0.9955 0.3188
C21 C -0.1890(4) 0.7760(6) 0.2912(3)
C22 C -0.2892(4) 0.7315(6) 0.2683(3)
H11 H -0.3359 0.7790 0.2339
C23 C -0.2512(4) 0.5587(6) 0.3443(3)
H12 H -0.2704 0.4813 0.3649
C24 C -0.1530(4) 0.6076(6) 0.3650(3)
N7 N 0.5334(10) 0.3299(13) 0.0730(8)
O7 O 0.5604(14) 0.4151(15) 0.1668(5)
C25 C 0.5202(11) 0.3367(18) 0.1275(7)
H13 H 0.4748 0.2753 0.1396
C26 C 0.4795(9) 0.2127(14) 0.0418(8)
H14 H 0.4392 0.1763 0.0708
H15 H 0.5282 0.1452 0.0353
H16 H 0.4346 0.2371 -0.0019
C27 C 0.6014(18) 0.434(2) 0.0447(12)
H17 H 0.6247 0.5049 0.0778
H18 H 0.5611 0.4728 0.0027
H19 H 0.6602 0.3872 0.0363
Ag1_2 Ag -0.47927(4) 0.53706(7) 0.24741(3)
N6_2 N 0.6815(4) 0.6217(5) 0.2950(3)
N8 N 0.4431(4) 0.7175(7) 0.6288(3)
O8 O 0.4309(5) 0.6197(8) 0.5920(4)
O9 O 0.4063(6) 0.8269(6) 0.6073(4)
O10 O 0.4867(4) 0.7040(6) 0.6898(3)
loop_
_geom_bond_atom_site_label_1
_geom_bond_atom_site_label_2
_geom_bond_site_symmetry_1
_geom_bond_site_symmetry_2
Ag1 N1 1_555 1_555
O1 C2 1_555 1_555
O2 C7 1_555 1_555
O3 C14 1_555 1_555
O4 C17 1_555 1_555
O5 C9 1_555 1_555
O6 C3 1_555 1_555
N1 C1 1_555 1_555
N2 C2 1_555 1_555
N3 C11 1_555 1_555
N4 C12 1_555 1_555
N5 C21 1_555 1_555
N6 C22 1_555 1_555
C1 H1 1_555 1_555
C2 C1 1_555 1_555
C3 N2 1_555 1_555
C4 N1 1_555 1_555
H2 C4 1_555 1_555
C5 O1 1_555 1_555
C6 C5 1_555 1_555
H3 C6 1_555 1_555
C7 C6 1_555 1_555
C8 C7 1_555 1_555
H4 C8 1_555 1_555
C9 C8 1_555 1_555
C10 C5 1_555 1_555
H5 C10 1_555 1_555
C11 O2 1_555 1_555
C12 C11 1_555 1_555
H6 C12 1_555 1_555
C13 N4 1_555 1_555
H7 C13 1_555 1_555
C14 N3 1_555 1_555
C15 O3 1_555 1_555
C16 C15 1_555 1_555
H8 C16 1_555 1_555
C17 C16 1_555 1_555
C18 C17 1_555 1_555
H9 C18 1_555 1_555
C19 O6 1_555 1_555
C20 C15 1_555 1_555
H10 C20 1_555 1_555
C21 O4 1_555 1_555
C22 C21 1_555 1_555
H11 C22 1_555 1_555
C23 N6 1_555 1_555
H12 C23 1_555 1_555
C24 O5 1_555 1_555
N7 C25 1_555 1_555
O7 Ag1 1_555 1_555
C25 O7 1_555 1_555
H13 C25 1_555 1_555
C26 N7 1_555 1_555
H14 C26 1_555 1_555
H15 C26 1_555 1_555
H16 C26 1_555 1_555
C27 N7 1_555 1_555
H17 C27 1_555 1_555
H18 C27 1_555 1_555
H19 C27 1_555 1_555
N8 O8 1_555 1_555
O9 N8 1_555 1_555
O10 N8 1_555 1_555
Ag1_2 N6 1_555 1_555
N6_2 Ag1 1_555 1_555
N5 C24 1_555 1_555
C3 C4 1_555 1_555
C9 C10 1_555 1_555
C13 C14 1_555 1_555
C18 C19 1_555 1_555
C19 C20 1_555 1_555
C23 C24 1_555 1_555

#END
