
#######################################################################
#
#                 Cambridge Crystallographic Data Centre
#                                CCDC 
#
#######################################################################
#
# If this CIF has been generated from an entry in the Cambridge 
# Structural Database, then it will include bibliographic, chemical, 
# crystal, experimental, refinement or atomic coordinate data resulting 
# from the CCDC's data processing and validation procedures.
#
#######################################################################

data_MIPQAF
_symmetry_cell_setting           monoclinic
_symmetry_space_group_name_H-M   'P 21/c'
_symmetry_Int_Tables_number      14
_space_group_name_Hall           '-P 2ybc'
loop_
_symmetry_equiv_pos_site_id
_symmetry_equiv_pos_as_xyz
1 x,y,z
2 -x,1/2+y,1/2-z
3 -x,-y,-z
4 x,1/2-y,1/2+z
_cell_length_a                   29.2291(11)
_cell_length_b                   20.7698(8)
_cell_length_c                   9.1567(4)
_cell_angle_alpha                90
_cell_angle_beta                 98.3360(10)
_cell_angle_gamma                90
_cell_volume                     5500.14
loop_
_atom_site_label
_atom_site_type_symbol
_atom_site_fract_x
_atom_site_fract_y
_atom_site_fract_z
Ag1 Ag 0.150727(6) -0.203106(9) 0.48330(2)
Ag2 Ag -0.356007(7) -0.201494(9) 0.25558(2)
N1 N 0.07262(6) -0.20238(9) 0.4375(2)
N2 N -0.01626(6) -0.16622(9) 0.3191(2)
N3 N -0.17831(7) -0.15544(10) 0.2152(2)
N4 N -0.26819(8) -0.19167(11) 0.2413(3)
N5 N -0.08418(10) 0.09110(11) -0.2084(3)
N6 N -0.08656(7) -0.00982(9) -0.0113(2)
O1 O -0.01724(6) -0.09649(8) 0.51431(17)
O2 O -0.01298(6) -0.23801(9) 0.12827(19)
O3 O -0.17819(6) -0.23053(9) 0.0296(2)
O4 O -0.18196(6) -0.08079(9) 0.4001(2)
O5 O -0.08570(7) 0.06430(8) 0.17687(18)
O6 O -0.08790(8) -0.08098(9) -0.20602(19)
C1 C 0.00548(8) -0.14106(10) 0.4423(2)
C2 C 0.04992(7) -0.15796(11) 0.5041(2)
H1 H 0.0641 -0.1382 0.5927
C3 C 0.05148(8) -0.22964(11) 0.3144(3)
H2 H 0.0666 -0.2622 0.2665
C4 C 0.00725(8) -0.21018(11) 0.2569(3)
C5 C -0.24688(9) -0.14563(13) 0.3262(3)
H3 H -0.2624 -0.1246 0.3971
C6 C -0.20206(8) -0.12842(12) 0.3110(3)
C7 C -0.20051(9) -0.20081(12) 0.1322(3)
C8 C -0.24527(9) -0.21981(14) 0.1434(3)
H4 H -0.2596 -0.2529 0.0813
C9 C -0.09048(8) 0.01119(11) 0.2685(2)
C10 C -0.05104(8) -0.01745(11) 0.3412(2)
H5 H -0.0211 -0.0024 0.3289
C11 C -0.05672(8) -0.06873(11) 0.4327(2)
C12 C -0.09960(8) -0.09160(11) 0.4521(2)
H6 H -0.1028 -0.1274 0.5144
C13 C -0.13777(8) -0.06055(11) 0.3775(2)
C14 C -0.13416(8) -0.00882(11) 0.2859(3)
H7 H -0.1609 0.0122 0.2366
C15 C -0.09060(9) -0.13113(11) -0.1055(2)
C16 C -0.05007(8) -0.15827(11) -0.0360(3)
H8 H -0.0208 -0.1425 -0.0526
C17 C -0.05373(8) -0.20901(11) 0.0580(3)
C18 C -0.09568(8) -0.23329(11) 0.0838(3)
H9 H -0.0974 -0.2681 0.1500
C19 C -0.13507(8) -0.20502(11) 0.0096(3)
C20 C -0.13341(8) -0.15385(12) -0.0852(3)
H10 H -0.1609 -0.1349 -0.1350
C21 C -0.08586(8) 0.05085(11) 0.0310(3)
C22 C -0.08467(10) 0.10201(13) -0.0650(3)
H11 H -0.0842 0.1449 -0.0289
C23 C -0.08537(11) 0.03032(14) -0.2535(3)
H12 H -0.0854 0.0209 -0.3550
C24 C -0.08658(9) -0.01942(12) -0.1535(3)
O7 O -0.39380(6) -0.06322(8) -0.26668(17)
O8 O -0.35588(8) 0.06322(9) 0.14888(19)
O9 O -0.28426(6) 0.21838(9) -0.13032(19)
O10 O -0.32316(6) 0.09334(9) -0.54707(18)
O11 O -0.48478(5) 0.10787(8) -0.50280(18)
O12 O -0.44554(6) 0.23583(10) -0.0910(2)
N7 N -0.36458(7) -0.10755(10) 0.1123(2)
N8 N -0.37408(7) 0.00207(9) -0.0630(2)
N9 N -0.30501(6) 0.15420(10) -0.3355(2)
N10 N -0.21869(6) 0.17686(10) -0.4166(2)
N11 N -0.55646(8) 0.20044(12) -0.2952(3)
N12 N -0.46383(7) 0.16978(10) -0.2942(2)
C25 C -0.38073(8) -0.05621(11) -0.1189(3)
C26 C -0.37601(9) -0.11213(12) -0.0338(3)
H13 H -0.3809 -0.1531 -0.0794
C27 C -0.35783(9) -0.04913(13) 0.1721(3)
H14 H -0.3496 -0.0445 0.2758
C28 C -0.36283(9) 0.00467(12) 0.0823(3)
C29 C -0.24967(8) 0.14070(12) -0.5008(3)
H15 H -0.2425 0.1225 -0.5900
C30 C -0.29252(8) 0.12987(11) -0.4568(2)
C31 C -0.27365(8) 0.19018(11) -0.2553(3)
C32 C -0.23005(8) 0.20177(11) -0.2922(3)
H16 H -0.2084 0.2272 -0.2296
C33 C -0.44141(8) 0.07749(11) -0.4703(2)
C34 C -0.43877(8) 0.02243(11) -0.3850(2)
H17 H -0.4654 0.0053 -0.3507
C35 C -0.39636(8) -0.00692(11) -0.3513(2)
C36 C -0.35732(8) 0.01587(11) -0.4026(2)
H18 H -0.3283 -0.0052 -0.3792
C37 C -0.36202(8) 0.07060(11) -0.4893(2)
C38 C -0.40364(8) 0.10227(11) -0.5253(2)
H19 H -0.4061 0.1397 -0.5856
C39 C -0.40298(8) 0.20311(12) -0.0598(3)
C40 C -0.40074(9) 0.14887(13) 0.0266(3)
H20 H -0.4274 0.1331 0.0633
C41 C -0.35890(9) 0.11796(12) 0.0587(3)
C42 C -0.31951(8) 0.14055(12) 0.0092(3)
H21 H -0.2906 0.1195 0.0341
C43 C -0.32380(8) 0.19482(11) -0.0777(3)
C44 C -0.36512(8) 0.22709(12) -0.1145(3)
H22 H -0.3673 0.2644 -0.1751
C45 C -0.49686(8) 0.14687(11) -0.3942(3)
C46 C -0.54338(8) 0.16109(13) -0.3963(3)
H23 H -0.5659 0.1427 -0.4698
C47 C -0.52377(9) 0.22514(15) -0.1950(3)
H24 H -0.5319 0.2540 -0.1225
C48 C -0.47784(9) 0.20904(13) -0.1959(3)
N13 N 0.16929(7) -0.16777(10) 0.8250(2)
N14 N -0.34202(7) -0.18056(10) 0.5823(2)
O13 O 0.19145(7) -0.12745(9) 0.7646(2)
O14 O 0.17376(7) -0.17271(10) 0.96122(19)
O15 O 0.14209(6) -0.20545(9) 0.74672(19)
O16 O -0.33516(9) -0.18154(10) 0.7194(2)
O17 O -0.35630(8) -0.23079(10) 0.5157(2)
O18 O -0.33437(7) -0.13199(9) 0.5108(2)
Ag1B Ag -0.150727(6) 0.203106(9) -0.48330(2)
Ag1C Ag 0.150727(6) -0.296894(9) 0.98330(2)
Ag2B Ag -0.643993(7) 0.201494(9) -0.25558(2)
Ag2C Ag -0.356007(7) -0.298506(9) 0.75558(2)
N10B N 0.21869(6) -0.17686(10) 0.4166(2)
N11B N -0.44354(8) -0.20044(12) 0.2952(3)
O14C O 0.17376(7) -0.32729(10) 0.46122(19)
O16C O -0.33516(9) -0.31846(10) 0.2194(2)
O17C O -0.35630(8) -0.26921(10) 0.0157(2)
C49 C 0.25680(8) 0.07668(13) 1.1228(5)
H25 H 0.2739 0.1136 1.1015
C50 C 0.24724(9) 0.02832(18) 1.0179(3)
H26 H 0.2578 0.0322 0.9249
C51 C 0.22224(9) -0.02565(14) 1.0490(3)
H27 H 0.2157 -0.0587 0.9773
C52 C 0.20681(8) -0.03127(12) 1.1851(4)
H28 H 0.1897 -0.0682 1.2064
C53 C 0.21638(10) 0.01709(18) 1.2900(2)
H29 H 0.2058 0.0132 1.3830
C54 C 0.24137(10) 0.07106(14) 1.2589(4)
H30 H 0.2479 0.1041 1.3306
C55 C -0.47645(11) -0.0058(2) 0.1403(4)
H31 H -0.4599 -0.0101 0.2371
C56 C -0.47879(12) -0.0561(2) 0.0441(5)
H32 H -0.4642 -0.0958 0.0745
C57 C -0.50228(13) -0.0500(2) -0.0977(5)
H33 H -0.5034 -0.0851 -0.1647
C55B C -0.52355(11) 0.0058(2) -0.1403(4)
H31B H -0.5401 0.0101 -0.2371
C56B C -0.52121(12) 0.0561(2) -0.0441(5)
H32B H -0.5358 0.0958 -0.0745
C57B C -0.49772(13) 0.0500(2) 0.0977(5)
H33B H -0.4966 0.0851 0.1647
loop_
_geom_bond_atom_site_label_1
_geom_bond_atom_site_label_2
_geom_bond_site_symmetry_1
_geom_bond_site_symmetry_2
Ag1 N1 1_555 1_555
Ag2 N4 1_555 1_555
N1 C2 1_555 1_555
N2 C1 1_555 1_555
N3 C6 1_555 1_555
N4 C5 1_555 1_555
N5 C22 1_555 1_555
N6 C21 1_555 1_555
O1 C1 1_555 1_555
O2 C4 1_555 1_555
O3 C7 1_555 1_555
O4 C6 1_555 1_555
O5 C9 1_555 1_555
O6 C15 1_555 1_555
C1 C2 1_555 1_555
C2 H1 1_555 1_555
C3 N1 1_555 1_555
H2 C3 1_555 1_555
C4 N2 1_555 1_555
C5 H3 1_555 1_555
C6 C5 1_555 1_555
C7 N3 1_555 1_555
C8 N4 1_555 1_555
H4 C8 1_555 1_555
C9 C10 1_555 1_555
C10 H5 1_555 1_555
C11 O1 1_555 1_555
C12 C11 1_555 1_555
H6 C12 1_555 1_555
C13 O4 1_555 1_555
C14 C9 1_555 1_555
H7 C14 1_555 1_555
C15 C16 1_555 1_555
C16 H8 1_555 1_555
C17 O2 1_555 1_555
C18 C17 1_555 1_555
H9 C18 1_555 1_555
C19 O3 1_555 1_555
C20 C15 1_555 1_555
H10 C20 1_555 1_555
C21 O5 1_555 1_555
C22 C21 1_555 1_555
H11 C22 1_555 1_555
C23 N5 1_555 1_555
H12 C23 1_555 1_555
C24 N6 1_555 1_555
O7 C25 1_555 1_555
O8 C28 1_555 1_555
O9 C31 1_555 1_555
O10 C30 1_555 1_555
O11 C33 1_555 1_555
O12 C39 1_555 1_555
N7 Ag2 1_555 1_555
N8 C25 1_555 1_555
N9 C30 1_555 1_555
N10 C29 1_555 1_555
N11 C46 1_555 1_555
N12 C45 1_555 1_555
C25 C26 1_555 1_555
C26 N7 1_555 1_555
H13 C26 1_555 1_555
C27 N7 1_555 1_555
H14 C27 1_555 1_555
C28 N8 1_555 1_555
C29 H15 1_555 1_555
C30 C29 1_555 1_555
C31 N9 1_555 1_555
C32 N10 1_555 1_555
H16 C32 1_555 1_555
C33 C34 1_555 1_555
C34 H17 1_555 1_555
C35 O7 1_555 1_555
C36 C35 1_555 1_555
H18 C36 1_555 1_555
C37 O10 1_555 1_555
C38 C33 1_555 1_555
H19 C38 1_555 1_555
C39 C40 1_555 1_555
C40 H20 1_555 1_555
C41 O8 1_555 1_555
C42 C41 1_555 1_555
H21 C42 1_555 1_555
C43 O9 1_555 1_555
C44 C39 1_555 1_555
H22 C44 1_555 1_555
C45 O11 1_555 1_555
C46 C45 1_555 1_555
H23 C46 1_555 1_555
C47 N11 1_555 1_555
H24 C47 1_555 1_555
C48 O12 1_555 1_555
N13 O13 1_555 1_555
N14 O16 1_555 1_555
O14 N13 1_555 1_555
O15 Ag1 1_555 1_555
O16 Ag2C 1_555 1_555
O17 Ag2 1_555 1_555
O18 N14 1_555 1_555
C49 H25 1_555 1_555
C50 C49 1_555 1_555
H26 C50 1_555 1_555
C51 C50 1_555 1_555
H27 C51 1_555 1_555
C52 C51 1_555 1_555
H28 C52 1_555 1_555
C53 C52 1_555 1_555
H29 C53 1_555 1_555
C54 C49 1_555 1_555
H30 C54 1_555 1_555
C55 H31 1_555 1_555
C56 C55 1_555 1_555
H32 C56 1_555 1_555
C57 C56 1_555 1_555
H33 C57 1_555 1_555
Ag1B N10 1_555 1_555
Ag1C O14 1_555 1_555
Ag2B N11 1_555 1_555
Ag2C O17 1_555 1_555
N10B Ag1 1_555 1_555
N11B Ag2 1_555 1_555
O14C Ag1 1_555 1_555
O16C Ag2 1_555 1_555
O17C Ag2 1_555 1_555
C55B C57 1_555 1_555
H31B C55B 1_555 1_555
C56B C55B 1_555 1_555
H32B C56B 1_555 1_555
C57B C55 1_555 1_555
H33B C57B 1_555 1_555
O6 C24 1_555 1_555
C3 C4 1_555 1_555
C7 C8 1_555 1_555
C10 C11 1_555 1_555
C12 C13 1_555 1_555
C13 C14 1_555 1_555
C16 C17 1_555 1_555
C18 C19 1_555 1_555
C19 C20 1_555 1_555
C23 C24 1_555 1_555
N12 C48 1_555 1_555
C27 C28 1_555 1_555
C31 C32 1_555 1_555
C34 C35 1_555 1_555
C36 C37 1_555 1_555
C37 C38 1_555 1_555
C40 C41 1_555 1_555
C42 C43 1_555 1_555
C43 C44 1_555 1_555
C47 C48 1_555 1_555
N13 O15 1_555 1_555
N14 O17 1_555 1_555
C53 C54 1_555 1_555
C56B C57B 1_555 1_555

#END
