
#######################################################################
#
#                 Cambridge Crystallographic Data Centre
#                                CCDC 
#
#######################################################################
#
# If this CIF has been generated from an entry in the Cambridge 
# Structural Database, then it will include bibliographic, chemical, 
# crystal, experimental, refinement or atomic coordinate data resulting 
# from the CCDC's data processing and validation procedures.
#
#######################################################################

data_MIPSOU
_symmetry_cell_setting           monoclinic
_symmetry_space_group_name_H-M   'P 21/c'
_symmetry_Int_Tables_number      14
_space_group_name_Hall           '-P 2ybc'
loop_
_symmetry_equiv_pos_site_id
_symmetry_equiv_pos_as_xyz
1 x,y,z
2 -x,1/2+y,1/2-z
3 -x,-y,-z
4 x,1/2-y,1/2+z
_cell_length_a                   9.7538(14)
_cell_length_b                   17.423(3)
_cell_length_c                   10.0230(15)
_cell_angle_alpha                90
_cell_angle_beta                 118.697(2)
_cell_angle_gamma                90
_cell_volume                     1494.1
loop_
_atom_site_label
_atom_site_type_symbol
_atom_site_fract_x
_atom_site_fract_y
_atom_site_fract_z
C1 C 0.73695(12) 0.85239(7) 0.21725(12)
C2 C 0.70652(12) 0.77095(7) 0.15185(13)
H1 H 0.6381(12) 0.7758(6) 0.0419(12)
C3 C 0.61603(12) 0.72509(6) 0.21417(13)
H2 H 0.6795 0.7199 0.3235
H3 H 0.5218 0.7528 0.1940
C4 C 0.57226(12) 0.64596(7) 0.14280(13)
H4 H 0.5029(11) 0.6526(8) 0.0334(12)
C5 C 0.71658(12) 0.60212(7) 0.16351(13)
H5 H 0.7833 0.5915 0.2707
H6 H 0.6845 0.5534 0.1105
C6 C 0.80909(12) 0.64737(7) 0.10271(13)
H7 H 0.7390(12) 0.6550(6) -0.0062(12)
C7 C 0.85175(12) 0.72752(6) 0.17391(13)
H8 H 0.9243 0.7229 0.2817
H9 H 0.9031 0.7562 0.1274
C8 C 0.48367(12) 0.60025(6) 0.20716(13)
C9 C 0.94792(13) 0.60138(7) 0.11607(12)
C10 C 0.80286(14) 1.05300(9) 0.00015(14)
H10 H 0.8613 1.0073 0.0036
H11 H 0.8768 1.0895 0.0715
C11 C 0.73592(13) 1.08704(7) -0.15825(13)
H12 H 0.6586 1.0526 -0.2322
H13 H 0.6858 1.1358 -0.1626
C12 C 0.86784(14) 1.09843(8) -0.19297(14)
H14 H 0.9458 1.1309 -0.1147
H15 H 0.9161 1.0490 -0.1874
Cd1 Cd 0.789689(9) 1.003931(4) 0.310624(9)
N1 N 0.69258(11) 1.03236(6) 0.05376(11)
H16 H 0.6380 0.9913 -0.0001
H17 H 0.6244 1.0714 0.0306
N2 N 0.82397(11) 1.13292(6) -0.34244(11)
H18 H 0.7608 1.1011 -0.4158
H19 H 0.9096 1.1412 -0.3507
H20 H 0.7750 1.1772 -0.3511
O1 O 0.87168(9) 0.88053(5) 0.27463(10)
O2 O 0.62523(9) 0.88964(5) 0.21080(10)
O3 O 0.36892(9) 0.55993(5) 0.11317(9)
O4 O 0.52508(10) 0.60411(5) 0.34385(9)
O5 O 0.92896(9) 0.53021(5) 0.08809(9)
O6 O 1.07611(9) 0.63222(5) 0.15318(11)
Cd1A Cd 0.210311(9) 0.503931(4) 0.189376(9)
Cd1C Cd 0.789689(9) 0.496069(4) -0.189376(9)
Cd1A_2 Cd 1.210311(9) 0.503931(4) 0.189376(9)
O3A O 0.63108(9) 1.05993(5) 0.38683(9)
O5C O 0.92896(9) 0.96979(5) 0.58809(9)
O5A O 1.07104(9) 1.03021(5) 0.41191(9)
O6A O 0.92389(9) 1.13222(5) 0.34682(11)
O7 O 0.69647(12) 0.22260(7) 0.15171(15)
loop_
_geom_bond_atom_site_label_1
_geom_bond_atom_site_label_2
_geom_bond_site_symmetry_1
_geom_bond_site_symmetry_2
C1 C2 1_555 1_555
C2 H1 1_555 1_555
C3 C2 1_555 1_555
H2 C3 1_555 1_555
H3 C3 1_555 1_555
C4 C3 1_555 1_555
H4 C4 1_555 1_555
C5 C4 1_555 1_555
H5 C5 1_555 1_555
H6 C5 1_555 1_555
C6 C5 1_555 1_555
H7 C6 1_555 1_555
C7 C2 1_555 1_555
H8 C7 1_555 1_555
H9 C7 1_555 1_555
C8 C4 1_555 1_555
C9 C6 1_555 1_555
C10 H10 1_555 1_555
H11 C10 1_555 1_555
C11 C10 1_555 1_555
H12 C11 1_555 1_555
H13 C11 1_555 1_555
C12 C11 1_555 1_555
H14 C12 1_555 1_555
H15 C12 1_555 1_555
Cd1 N1 1_555 1_555
N1 C10 1_555 1_555
H16 N1 1_555 1_555
H17 N1 1_555 1_555
N2 C12 1_555 1_555
H18 N2 1_555 1_555
H19 N2 1_555 1_555
H20 N2 1_555 1_555
O1 C1 1_555 1_555
O2 C1 1_555 1_555
O3 C8 1_555 1_555
O4 C8 1_555 1_555
O5 C9 1_555 1_555
O6 C9 1_555 1_555
Cd1A O3 1_555 1_555
Cd1C O5 1_555 1_555
Cd1A_2 O5 1_555 1_555
O3A Cd1 1_555 1_555
O5C Cd1 1_555 1_555
O5A Cd1 1_555 1_555
O6A Cd1 1_555 1_555
C6 C7 1_555 1_555
Cd1 O1 1_555 1_555
Cd1 O2 1_555 1_555
O6 Cd1A_2 1_555 1_555

#END
