
#######################################################################
#
#                 Cambridge Crystallographic Data Centre
#                                CCDC 
#
#######################################################################
#
# If this CIF has been generated from an entry in the Cambridge 
# Structural Database, then it will include bibliographic, chemical, 
# crystal, experimental, refinement or atomic coordinate data resulting 
# from the CCDC's data processing and validation procedures.
#
#######################################################################

data_MIPTUB
_symmetry_cell_setting           triclinic
_symmetry_space_group_name_H-M   'P -1'
_symmetry_Int_Tables_number      2
_space_group_name_Hall           '-P 1'
loop_
_symmetry_equiv_pos_site_id
_symmetry_equiv_pos_as_xyz
1 x,y,z
2 -x,-y,-z
_cell_length_a                   10.9200(8)
_cell_length_b                   12.3981(9)
_cell_length_c                   13.0399(9)
_cell_angle_alpha                113.3550(10)
_cell_angle_beta                 93.7750(10)
_cell_angle_gamma                99.1350(10)
_cell_volume                     1584
loop_
_atom_site_label
_atom_site_type_symbol
_atom_site_fract_x
_atom_site_fract_y
_atom_site_fract_z
Cu1 Cu -0.01740(16) 0.2821(2) 0.1297(2)
N3 N 0.1585(10) 0.2851(13) 0.1286(11)
N4 N 0.8065(10) 0.2802(11) 0.1324(11)
C11 C 0.2414(12) 0.3821(14) 0.1865(12)
H9 H 0.2140 0.4529 0.2247
C12 C 0.3709(11) 0.3848(12) 0.1938(11)
H10 H 0.4268 0.4558 0.2390
C13 C 0.4162(11) 0.2819(11) 0.1339(10)
C14 C 0.3250(12) 0.1792(13) 0.0698(12)
H11 H 0.3492 0.1081 0.0264
C15 C 0.1992(14) 0.1824(15) 0.0706(15)
H12 H 0.1403 0.1121 0.0300
C16 C 0.5506(11) 0.2789(11) 0.1346(10)
C17 C 0.6434(11) 0.3780(12) 0.2056(11)
H13 H 0.6192 0.4463 0.2554
C18 C 0.5908(13) 0.1818(13) 0.0618(14)
H14 H 0.5337 0.1129 0.0140
C19 C 0.7676(13) 0.3768(14) 0.2035(12)
H15 H 0.8264 0.4439 0.2520
C20 C 0.7206(13) 0.1882(16) 0.0604(18)
H16 H 0.7474 0.1246 0.0062
Cu1_2 Cu 0.98260(16) 0.2821(2) 0.1297(2)
N4_2 N -0.1935(10) 0.2802(11) 0.1324(11)
Cu2 Cu 1.0000 0.5000 1.0000
N2 N 0.8248(11) 0.4963(16) 0.9941(12)
C6 C 0.7380(15) 0.3966(18) 0.9282(15)
H5 H 0.7641 0.3274 0.8829
C7 C 0.6091(13) 0.3964(15) 0.9272(15)
H6 H 0.5512 0.3280 0.8796
C8 C 0.5667(11) 0.4990(11) 0.9980(10)
C9 C 0.6584(12) 0.5985(13) 1.0648(10)
H7 H 0.6354 0.6684 1.1127
C10 C 0.7837(13) 0.5943(16) 1.0605(13)
H8 H 0.8429 0.6627 1.1059
Cu2_2 Cu 0.0000 0.5000 1.0000
N2A N 0.1752(11) 0.5037(16) 1.0059(12)
N2A_2 N 1.1752(11) 0.5037(16) 1.0059(12)
C6A C 0.2620(15) 0.6034(18) 1.0718(15)
H5A H 0.2359 0.6726 1.1171
C7A C 0.3909(13) 0.6036(15) 1.0728(15)
H6A H 0.4488 0.6720 1.1204
C8A C 0.4333(11) 0.5010(11) 1.0020(10)
C9A C 0.3416(12) 0.4015(13) 0.9352(10)
H7A H 0.3646 0.3316 0.8873
C10A C 0.2163(13) 0.4057(16) 0.9395(13)
H8A H 0.1571 0.3373 0.8941
O23 O 0.597(3) 0.978(3) 0.819(3)
N1 N 0.3021(11) 0.7020(11) 0.5445(13)
C1 C 0.3303(12) 0.5034(11) 0.4751(13)
H1 H 0.2976 0.4214 0.4397
C2 C 0.2527(15) 0.5821(13) 0.4907(14)
H2 H 0.1672 0.5548 0.4652
C3 C 0.4576(11) 0.5440(10) 0.5112(10)
C4 C 0.4205(13) 0.7420(13) 0.5796(13)
H3 H 0.4507 0.8244 0.6144
C5 C 0.5024(11) 0.6672(11) 0.5672(11)
H4 H 0.5869 0.6979 0.5956
N1A N 0.6979(11) 0.2980(11) 0.4555(13)
C1A C 0.6697(12) 0.4966(11) 0.5249(13)
H1A H 0.7024 0.5786 0.5603
C2A C 0.7473(15) 0.4179(13) 0.5093(14)
H2A H 0.8328 0.4452 0.5348
C3A C 0.5424(11) 0.4560(10) 0.4888(10)
C4A C 0.5795(13) 0.2580(13) 0.4204(13)
H3A H 0.5493 0.1756 0.3856
C5A C 0.4976(11) 0.3328(11) 0.4328(11)
H4A H 0.4131 0.3021 0.4044
P1 P 1.0000 1.0000 0.5000
W1 W 0.70470(4) 1.05952(4) 0.58347(4)
W2 W 0.97281(5) 0.77465(5) 0.60523(5)
W3 W 0.75693(4) 0.98757(4) 0.29684(4)
W4 W 0.94766(6) 1.06915(5) 0.78392(4)
W5 W 0.73054(4) 0.76429(4) 0.40293(4)
W6 W 0.97336(5) 1.29506(4) 0.67777(4)
O1 O 0.6709(13) 0.8892(9) 0.5123(8)
O2 O 0.9619(9) 0.6652(9) 0.6521(9)
O3 O 0.8033(14) 1.2176(12) 0.6330(12)
O4 O 0.9266(8) 1.1040(8) 0.9193(8)
O5 O 0.6922(10) 1.0585(10) 0.4356(10)
O6 O 0.6044(11) 0.6501(9) 0.3559(9)
O7 O 0.9610(9) 1.4353(9) 0.7630(9)
O8 O 0.7067(10) 0.8354(10) 0.3009(9)
O9 O 0.5695(11) 1.0908(10) 0.6250(10)
O10 O 0.6417(12) 0.9825(10) 0.2027(8)
O11 O 0.9236(11) 0.8997(9) 0.7243(14)
O12 O 0.8493(12) 0.6863(16) 0.3154(10)
O13 O 0.8795(12) 0.9220(11) 0.2056(14)
O14 O 1.0305(11) 0.6954(12) 0.4641(11)
O15 O 0.9803(12) 1.2225(12) 0.7809(12)
O16 O 0.7834(13) 1.0511(13) 0.7134(13)
O17 O 0.9259(14) 1.0711(17) 0.5932(18)
O18 O 0.9481(14) 0.8664(13) 0.4681(11)
O19 O 0.8090(12) 0.7380(13) 0.5245(9)
O20 O 1.1438(11) 0.8561(9) 0.6592(14)
O21 O 0.8604(12) 0.9644(14) 0.4640(12)
O22 O 1.0324(12) 0.9730(12) 0.6041(13)
W1A W 1.29530(4) 0.94048(4) 0.41653(4)
W2A W 1.02719(5) 1.22535(5) 0.39477(5)
W3A W 1.24307(4) 1.01243(4) 0.70316(4)
W4A W 1.05234(6) 0.93085(5) 0.21608(4)
W5A W 1.26946(4) 1.23571(4) 0.59707(4)
W6A W 1.02664(5) 0.70494(4) 0.32223(4)
O1A O 1.3291(13) 1.1108(9) 0.4877(8)
O2A O 1.0381(9) 1.3348(9) 0.3479(9)
O3A O 1.1967(14) 0.7824(12) 0.3670(12)
O4A O 1.0734(8) 0.8960(8) 0.0807(8)
O5A O 1.3078(10) 0.9415(10) 0.5644(10)
O6A O 1.3956(11) 1.3499(9) 0.6441(9)
O7A O 1.0390(9) 0.5647(9) 0.2370(9)
O8A O 1.2933(10) 1.1646(10) 0.6991(9)
O9A O 1.4305(11) 0.9092(10) 0.3750(10)
O10A O 1.3583(12) 1.0175(10) 0.7973(8)
O11A O 1.0764(11) 1.1003(9) 0.2757(14)
O12A O 1.1507(12) 1.3137(16) 0.6846(10)
O13A O 1.1205(12) 1.0780(11) 0.7944(14)
O14A O 0.9695(11) 1.3046(12) 0.5359(11)
O15A O 1.0197(12) 0.7775(12) 0.2191(12)
O16A O 1.2166(13) 0.9489(13) 0.2866(13)
O17A O 1.0741(14) 0.9289(17) 0.4068(18)
O18A O 1.0519(14) 1.1336(13) 0.5319(11)
O19A O 1.1910(12) 1.2620(13) 0.4755(9)
O20A O 0.8562(11) 1.1439(9) 0.3408(14)
O21A O 1.1396(12) 1.0356(14) 0.5360(12)
O22A O 0.9676(12) 1.0270(12) 0.3959(13)
loop_
_geom_bond_atom_site_label_1
_geom_bond_atom_site_label_2
_geom_bond_site_symmetry_1
_geom_bond_site_symmetry_2
P1 O17 1_555 1_555
W1 O1 1_555 1_555
W2 O2 1_555 1_555
W3 O5 1_555 1_555
W4 O4 1_555 1_555
W5 O1 1_555 1_555
W6 O3 1_555 1_555
Cu1 N3 1_555 1_555
Cu2 N2 1_555 1_555
O3 W1 1_555 1_555
O5 W1 1_555 1_555
O6 W5 1_555 1_555
O7 W6 1_555 1_555
O8 W3 1_555 1_555
O9 W1 1_555 1_555
O10 W3 1_555 1_555
O11 W2 1_555 1_555
O12 W5 1_555 1_555
O13 W3 1_555 1_555
O14 W2 1_555 1_555
O15 W4 1_555 1_555
O16 W1 1_555 1_555
O17 W1 1_555 1_555
O18 P1 1_555 1_555
O19 W2 1_555 1_555
O20 W2 1_555 1_555
O21 P1 1_555 1_555
O22 P1 1_555 1_555
N1 C2 1_555 1_555
N2 C6 1_555 1_555
N3 C11 1_555 1_555
N4 C19 1_555 1_555
C1 H1 1_555 1_555
C2 C1 1_555 1_555
H2 C2 1_555 1_555
C3 C1 1_555 1_555
C4 N1 1_555 1_555
H3 C4 1_555 1_555
C5 C3 1_555 1_555
H4 C5 1_555 1_555
C6 H5 1_555 1_555
C7 C6 1_555 1_555
H6 C7 1_555 1_555
C8 C7 1_555 1_555
C9 C8 1_555 1_555
H7 C9 1_555 1_555
C10 N2 1_555 1_555
H8 C10 1_555 1_555
C11 H9 1_555 1_555
C12 C11 1_555 1_555
H10 C12 1_555 1_555
C13 C12 1_555 1_555
C14 C13 1_555 1_555
H11 C14 1_555 1_555
C15 N3 1_555 1_555
H12 C15 1_555 1_555
C16 C13 1_555 1_555
C17 C16 1_555 1_555
H13 C17 1_555 1_555
C18 C16 1_555 1_555
H14 C18 1_555 1_555
C19 C17 1_555 1_555
H15 C19 1_555 1_555
C20 N4 1_555 1_555
H16 C20 1_555 1_555
W1A O1A 1_555 1_555
W2A O2A 1_555 1_555
W3A O20 1_555 1_555
W4A O13 1_555 1_555
W5A O1A 1_555 1_555
W6A O12 1_555 1_555
Cu1_2 N4 1_555 1_555
Cu2_2 N2A 1_555 1_555
O3A W1A 1_555 1_555
O4A W4A 1_555 1_555
O5A W1A 1_555 1_555
O6A W5A 1_555 1_555
O7A W6A 1_555 1_555
O8A W3A 1_555 1_555
O9A W1A 1_555 1_555
O10A W3A 1_555 1_555
O11A W2A 1_555 1_555
O12A W6 1_555 1_555
O13A W4 1_555 1_555
O14A W6 1_555 1_555
O15A W4A 1_555 1_555
O16A W1A 1_555 1_555
O17A P1 1_555 1_555
O18A P1 1_555 1_555
O19A W2A 1_555 1_555
O20A W3 1_555 1_555
O21A P1 1_555 1_555
O22A P1 1_555 1_555
N1A C2A 1_555 1_555
N2A C6A 1_555 1_555
N2A_2 Cu2 1_555 1_555
N4_2 Cu1 1_555 1_555
C1A H1A 1_555 1_555
C2A C1A 1_555 1_555
H2A C2A 1_555 1_555
C3A C3 1_555 1_555
C4A N1A 1_555 1_555
H3A C4A 1_555 1_555
C5A C3A 1_555 1_555
H4A C5A 1_555 1_555
C6A H5A 1_555 1_555
C7A C6A 1_555 1_555
H6A C7A 1_555 1_555
C8A C8 1_555 1_555
C9A C8A 1_555 1_555
H7A C9A 1_555 1_555
C10A N2A 1_555 1_555
H8A C10A 1_555 1_555
W2 O22 1_555 1_555
W3 O22A 1_555 1_555
W4 O11 1_555 1_555
W4 O16 1_555 1_555
W5 O8 1_555 1_555
W5 O18 1_555 1_555
W5 O19 1_555 1_555
W5 O21 1_555 1_555
W6 O15 1_555 1_555
O14 W6A 1_555 1_555
O17 O21 1_555 1_555
O18 O21 1_555 1_555
O22 W3A 1_555 1_555
C4 C5 1_555 1_555
C9 C10 1_555 1_555
C14 C15 1_555 1_555
C18 C20 1_555 1_555
W1A O17A 1_555 1_555
W2A O14A 1_555 1_555
W2A O20A 1_555 1_555
W2A O22A 1_555 1_555
W3A O5A 1_555 1_555
W3A O13A 1_555 1_555
W4A O11A 1_555 1_555
W4A O16A 1_555 1_555
W5A O8A 1_555 1_555
W5A O12A 1_555 1_555
W5A O18A 1_555 1_555
W5A O19A 1_555 1_555
W5A O21A 1_555 1_555
W6A O3A 1_555 1_555
W6A O15A 1_555 1_555
O17A O21A 1_555 1_555
O18A O21A 1_555 1_555
C1A C3A 1_555 1_555
C4A C5A 1_555 1_555
C7A C8A 1_555 1_555
C9A C10A 1_555 1_555

#END
