
#######################################################################
#
#                 Cambridge Crystallographic Data Centre
#                                CCDC 
#
#######################################################################
#
# If this CIF has been generated from an entry in the Cambridge 
# Structural Database, then it will include bibliographic, chemical, 
# crystal, experimental, refinement or atomic coordinate data resulting 
# from the CCDC's data processing and validation procedures.
#
#######################################################################

data_MIPVAJ
_symmetry_cell_setting           triclinic
_symmetry_space_group_name_H-M   'P -1'
_symmetry_Int_Tables_number      2
_space_group_name_Hall           '-P 1'
loop_
_symmetry_equiv_pos_site_id
_symmetry_equiv_pos_as_xyz
1 x,y,z
2 -x,-y,-z
_cell_length_a                   10.881(3)
_cell_length_b                   12.401(3)
_cell_length_c                   13.025(3)
_cell_angle_alpha                113.822(4)
_cell_angle_beta                 93.527(4)
_cell_angle_gamma                98.944(5)
_cell_volume                     1573.15
loop_
_atom_site_label
_atom_site_type_symbol
_atom_site_fract_x
_atom_site_fract_y
_atom_site_fract_z
Cu1 Cu 0.5183(4) -0.2856(5) -0.1312(5)
N2 N 0.345(2) -0.280(3) -0.125(2)
N3 N -0.306(2) -0.283(3) -0.135(3)
C1 C -0.048(3) -0.278(3) -0.134(2)
C7 C -0.220(4) -0.187(4) -0.072(4)
H7 H -0.2478 -0.1169 -0.0297
C8 C 0.254(3) -0.386(3) -0.190(2)
H8 H 0.2813 -0.4566 -0.2312
C9 C -0.263(3) -0.380(3) -0.203(3)
H9 H -0.3217 -0.4495 -0.2475
C10 C -0.143(3) -0.383(3) -0.208(3)
H10 H -0.1188 -0.4506 -0.2599
C11 C -0.092(3) -0.180(3) -0.063(3)
H11 H -0.0373 -0.1115 -0.0108
C12 C 0.180(3) -0.183(3) -0.074(2)
H12 H 0.1566 -0.1097 -0.0336
C13 C 0.298(3) -0.188(4) -0.070(3)
H13 H 0.3546 -0.1183 -0.0232
C16 C 0.086(3) -0.285(3) -0.138(2)
C20 C 0.129(3) -0.387(3) -0.194(3)
H17 H 0.0718 -0.4592 -0.2349
Cu1_2 Cu -0.4817(4) -0.2856(5) -0.1312(5)
N3_2 N 0.694(2) -0.283(3) -0.135(3)
Cu2 Cu 0.5000 0.5000 0.0000
N4 N 0.675(2) 0.502(3) 0.002(3)
C4 C 0.767(4) 0.602(4) 0.071(3)
H4 H 0.7425 0.6713 0.1205
C6 C 0.891(3) 0.601(3) 0.068(3)
H6 H 0.9493 0.6706 0.1138
C15 C 0.935(2) 0.500(3) -0.002(2)
C17 C 0.840(3) 0.404(3) -0.066(2)
H15 H 0.8613 0.3320 -0.1140
C18 C 0.719(3) 0.409(4) -0.062(3)
H16 H 0.6614 0.3400 -0.1083
Cu2_2 Cu 1.5000 0.5000 0.0000
N4A N 1.325(2) 0.498(3) -0.002(3)
N4A_2 N 0.325(2) 0.498(3) -0.002(3)
C4A C 1.233(4) 0.398(4) -0.071(3)
H4A H 1.2575 0.3287 -0.1205
C6A C 1.109(3) 0.399(3) -0.068(3)
H6A H 1.0507 0.3294 -0.1138
C15A C 1.065(2) 0.500(3) 0.002(2)
C17A C 1.160(3) 0.596(3) 0.066(2)
H15A H 1.1387 0.6680 0.1140
C18A C 1.281(3) 0.591(4) 0.062(3)
H16A H 1.3386 0.6600 0.1083
O23 O 0.088(3) 0.958(4) 0.811(3)
N1 N 0.205(3) 0.299(2) 0.458(3)
C2 C 0.084(3) 0.257(3) 0.419(3)
H2 H 0.0554 0.1746 0.3812
C3 C 0.250(3) 0.417(3) 0.507(3)
H3 H 0.3361 0.4451 0.5311
C5 C 0.174(3) 0.500(3) 0.523(2)
H5 H 0.2082 0.5821 0.5543
C14 C -0.004(3) 0.333(3) 0.432(2)
H14 H -0.0882 0.3009 0.4047
C19 C 0.042(3) 0.459(3) 0.490(2)
N1A N -0.205(3) 0.701(2) 0.542(3)
C2A C -0.084(3) 0.743(3) 0.581(3)
H2A H -0.0554 0.8254 0.6188
C3A C -0.250(3) 0.583(3) 0.493(3)
H3A H -0.3361 0.5549 0.4689
C5A C -0.174(3) 0.500(3) 0.477(2)
H5A H -0.2082 0.4179 0.4457
C14A C 0.004(3) 0.667(3) 0.568(2)
H14A H 0.0882 0.6991 0.5953
C19A C -0.042(3) 0.541(3) 0.510(2)
Si1 Si 0.5000 0.0000 0.5000
W1 W 0.52872(12) 0.22072(12) 0.39441(12)
W2 W 0.26104(11) -0.01357(11) 0.29860(10)
W3 W 0.55399(12) -0.07267(13) 0.21833(10)
W4 W 0.23266(10) -0.23121(11) 0.40533(10)
W5 W 0.47388(12) 0.29343(11) 0.67493(10)
W6 W 0.20754(11) 0.06203(12) 0.58172(11)
O1 O 0.465(2) 0.292(2) 0.531(2)
O2 O 0.213(3) -0.159(2) 0.305(2)
O3 O 0.720(3) -0.059(3) 0.286(2)
O4 O 0.356(4) -0.036(3) 0.464(3)
O5 O 0.577(4) -0.085(3) 0.404(3)
O6 O 0.521(3) -0.224(3) 0.219(3)
O7 O 0.578(2) 0.099(2) 0.276(3)
O8 O 0.462(3) 0.025(4) 0.386(3)
O9 O 0.354(3) 0.145(3) 0.334(3)
O10 O 0.196(2) 0.058(2) 0.435(2)
O11 O 0.145(2) -0.019(2) 0.2003(18)
O12 O 0.170(3) -0.111(2) 0.5122(19)
O13 O 0.301(3) 0.220(3) 0.637(3)
O14 O 0.376(2) -0.080(2) 0.200(3)
O15 O 0.350(3) -0.305(3) 0.319(2)
O16 O 0.077(2) 0.097(2) 0.628(2)
O17 O 0.105(2) -0.345(2) 0.360(2)
O18 O 0.465(2) 0.4335(19) 0.7562(19)
O19 O 0.577(2) -0.107(2) 0.0862(17)
O20 O 0.540(2) 0.329(2) 0.350(2)
O21 O 0.686(3) 0.253(3) 0.4738(19)
O22 O 0.442(3) -0.145(4) 0.466(3)
W1A W 0.47128(12) -0.22072(12) 0.60559(12)
W2A W 0.73896(11) 0.01357(11) 0.70140(10)
W3A W 0.44601(12) 0.07267(13) 0.78167(10)
W4A W 0.76734(10) 0.23121(11) 0.59467(10)
W5A W 0.52612(12) -0.29343(11) 0.32507(10)
W6A W 0.79246(11) -0.06203(12) 0.41828(11)
O1A O 0.535(2) -0.292(2) 0.469(2)
O2A O 0.787(3) 0.159(2) 0.695(2)
O3A O 0.280(3) 0.059(3) 0.714(2)
O4A O 0.644(4) 0.036(3) 0.536(3)
O5A O 0.423(4) 0.085(3) 0.596(3)
O6A O 0.479(3) 0.224(3) 0.781(3)
O7A O 0.422(2) -0.099(2) 0.724(3)
O8A O 0.538(3) -0.025(4) 0.614(3)
O9A O 0.646(3) -0.145(3) 0.666(3)
O10A O 0.804(2) -0.058(2) 0.565(2)
O11A O 0.855(2) 0.019(2) 0.7997(18)
O12A O 0.830(3) 0.111(2) 0.4878(19)
O13A O 0.699(3) -0.220(3) 0.363(3)
O14A O 0.624(2) 0.080(2) 0.800(3)
O15A O 0.650(3) 0.305(3) 0.681(2)
O16A O 0.923(2) -0.097(2) 0.372(2)
O17A O 0.895(2) 0.345(2) 0.640(2)
O18A O 0.535(2) -0.4335(19) 0.2438(19)
O19A O 0.423(2) 0.107(2) 0.9138(17)
O20A O 0.460(2) -0.329(2) 0.650(2)
O21A O 0.314(3) -0.253(3) 0.5262(19)
O22A O 0.558(3) 0.145(4) 0.534(3)
H1? H 0.2545 0.2494 0.4522
loop_
_geom_bond_atom_site_label_1
_geom_bond_atom_site_label_2
_geom_bond_site_symmetry_1
_geom_bond_site_symmetry_2
Si1 O4 1_555 1_555
Cu1 N2 1_555 1_555
Cu2 N4 1_555 1_555
W1 O1 1_555 1_555
W2 O2 1_555 1_555
W3 O3 1_555 1_555
W4 O2 1_555 1_555
W5 O1 1_555 1_555
W6 O4 1_555 1_555
O3 W6A 1_555 1_555
O4 W4 1_555 1_555
O5 Si1 1_555 1_555
O6 W3 1_555 1_555
O7 W1 1_555 1_555
O8 Si1 1_555 1_555
O9 W1 1_555 1_555
O10 W2 1_555 1_555
O11 W2 1_555 1_555
O12 W4 1_555 1_555
O13 W5 1_555 1_555
O14 W2 1_555 1_555
O15 W4 1_555 1_555
O16 W6 1_555 1_555
O17 W4 1_555 1_555
O18 W5 1_555 1_555
O19 W3 1_555 1_555
O20 W1 1_555 1_555
O21 W1 1_555 1_555
O22 Si1 1_555 1_555
N1 C2 1_555 1_555
N2 C8 1_555 1_555
N3 C7 1_555 1_555
N4 C4 1_555 1_555
C1 C10 1_555 1_555
C2 H2 1_555 1_555
C3 N1 1_555 1_555
H3 C3 1_555 1_555
C4 H4 1_555 1_555
C5 C3 1_555 1_555
H5 C5 1_555 1_555
C6 C4 1_555 1_555
H6 C6 1_555 1_555
C7 H7 1_555 1_555
C8 H8 1_555 1_555
C9 N3 1_555 1_555
H9 C9 1_555 1_555
C10 C9 1_555 1_555
H10 C10 1_555 1_555
C11 C1 1_555 1_555
H11 C11 1_555 1_555
C12 H12 1_555 1_555
C13 N2 1_555 1_555
H13 C13 1_555 1_555
C14 C2 1_555 1_555
H14 C14 1_555 1_555
C15 C6 1_555 1_555
C16 C1 1_555 1_555
C17 C15 1_555 1_555
H15 C17 1_555 1_555
C18 N4 1_555 1_555
H16 C18 1_555 1_555
C19 C5 1_555 1_555
C20 C8 1_555 1_555
H17 C20 1_555 1_555
Cu1_2 N3 1_555 1_555
Cu2_2 N4A 1_555 1_555
W1A O22 1_555 1_555
W2A O2A 1_555 1_555
W3A O3A 1_555 1_555
W4A O21 1_555 1_555
W5A O5 1_555 1_555
W6A O5 1_555 1_555
O1A W1A 1_555 1_555
O2A W4A 1_555 1_555
O3A W6 1_555 1_555
O4A Si1 1_555 1_555
O5A Si1 1_555 1_555
O6A W5 1_555 1_555
O7A W1A 1_555 1_555
O8A Si1 1_555 1_555
O9A W1A 1_555 1_555
O10A W2A 1_555 1_555
O11A W2A 1_555 1_555
O12A W4A 1_555 1_555
O13A W5A 1_555 1_555
O14A W2A 1_555 1_555
O15A W5 1_555 1_555
O16A W6A 1_555 1_555
O17A W4A 1_555 1_555
O18A W5A 1_555 1_555
O19A W3A 1_555 1_555
O20A W1A 1_555 1_555
O21A W4 1_555 1_555
O22A Si1 1_555 1_555
N1A C2A 1_555 1_555
N3_2 Cu1 1_555 1_555
N4A C4A 1_555 1_555
N4A_2 Cu2 1_555 1_555
C2A H2A 1_555 1_555
C3A N1A 1_555 1_555
H3A C3A 1_555 1_555
C4A H4A 1_555 1_555
C5A C3A 1_555 1_555
H5A C5A 1_555 1_555
C6A C4A 1_555 1_555
H6A C6A 1_555 1_555
C14A C2A 1_555 1_555
H14A C14A 1_555 1_555
C15A C15 1_555 1_555
C17A C15A 1_555 1_555
H15A C17A 1_555 1_555
C18A N4A 1_555 1_555
H16A C18A 1_555 1_555
C19A C19 1_555 1_555
W1 O8 1_555 1_555
W1 O22A 1_555 1_555
W2 O8 1_555 1_555
W2 O9 1_555 1_555
W3 O7 1_555 1_555
W3 O8 1_555 1_555
W3 O14 1_555 1_555
W4 O22 1_555 1_555
W5 O5A 1_555 1_555
W5 O22A 1_555 1_555
W6 O10 1_555 1_555
W6 O12 1_555 1_555
W6 O13 1_555 1_555
W6 O5A 1_555 1_555
O6 W5A 1_555 1_555
O15 W5A 1_555 1_555
O22 W5A 1_555 1_555
C7 C11 1_555 1_555
C12 C13 1_555 1_555
C12 C16 1_555 1_555
C14 C19 1_555 1_555
C16 C20 1_555 1_555
C17 C18 1_555 1_555
W1A O8A 1_555 1_555
W1A O21A 1_555 1_555
W2A O8A 1_555 1_555
W2A O9A 1_555 1_555
W3A O6A 1_555 1_555
W3A O7A 1_555 1_555
W3A O8A 1_555 1_555
W3A O14A 1_555 1_555
W4A O4A 1_555 1_555
W4A O15A 1_555 1_555
W4A O22A 1_555 1_555
W5A O1A 1_555 1_555
W6A O4A 1_555 1_555
W6A O10A 1_555 1_555
W6A O12A 1_555 1_555
W6A O13A 1_555 1_555
C5A C19A 1_555 1_555
C6A C15A 1_555 1_555
C14A C19A 1_555 1_555
C17A C18A 1_555 1_555

#END
