
#######################################################################
#
#                 Cambridge Crystallographic Data Centre
#                                CCDC 
#
#######################################################################
#
# If this CIF has been generated from an entry in the Cambridge 
# Structural Database, then it will include bibliographic, chemical, 
# crystal, experimental, refinement or atomic coordinate data resulting 
# from the CCDC's data processing and validation procedures.
#
#######################################################################

data_MIPWEP
_symmetry_cell_setting           triclinic
_symmetry_space_group_name_H-M   'P -1'
_symmetry_Int_Tables_number      2
_space_group_name_Hall           '-P 1'
loop_
_symmetry_equiv_pos_site_id
_symmetry_equiv_pos_as_xyz
1 x,y,z
2 -x,-y,-z
_cell_length_a                   8.8925(6)
_cell_length_b                   9.3345(6)
_cell_length_c                   10.8401(8)
_cell_angle_alpha                65.197(5)
_cell_angle_beta                 86.104(5)
_cell_angle_gamma                73.474(5)
_cell_volume                     781.695
loop_
_atom_site_label
_atom_site_type_symbol
_atom_site_fract_x
_atom_site_fract_y
_atom_site_fract_z
C1 C 0.4153(7) 0.8928(7) 0.3634(6)
H1 H 0.3127 0.9137 0.3331
C2 C 0.6344(6) 0.9265(7) 0.3987(6)
H2 H 0.7121 0.9759 0.3974
C3 C 0.7515(7) 1.3845(7) -0.1418(6)
H3 H 0.8384 1.3838 -0.0982
C4 C 0.5359(7) 1.3451(7) -0.1783(6)
H4 H 0.4447 1.3119 -0.1649
C5 C 0.4272(7) 1.1869(7) 0.2534(6)
H5 H 0.4766 1.2450 0.2869
H6 H 0.3153 1.2202 0.2645
C6 C 0.4537(7) 1.2378(8) 0.1037(6)
H7 H 0.3848 1.3474 0.0528
H8 H 0.4255 1.1633 0.0745
C7 C 0.6231(7) 1.2378(8) 0.0703(6)
H9 H 0.6585 1.2959 0.1134
H10 H 0.6903 1.1254 0.1060
N1 N 0.5082(5) 0.7453(6) 0.4385(5)
N2 N 0.6508(5) 0.7692(6) 0.4603(5)
N3 N 0.4894(5) 1.0084(6) 0.3370(5)
N4 N 0.7235(5) 1.4503(6) -0.2739(5)
N5 N 0.5845(5) 1.4248(6) -0.2975(5)
N6 N 0.6357(5) 1.3175(6) -0.0777(5)
F1 F 0.9643(4) 0.6356(4) 0.3800(3)
Co1 Co 0.5000 0.5000 0.5000
Co2 Co 0.84030(8) 0.56144(9) 0.55167(8)
O1 O 0.7382(4) 0.4472(4) 0.4555(4)
O2 O 1.0561(4) 0.3174(5) 0.3746(4)
Mo1 Mo 0.85398(6) 0.34513(9) 0.35359(8)
O3 O 0.7954(6) 0.4610(7) 0.1834(5)
O4 O 0.8220(6) 0.1572(6) 0.3950(6)
C1A C 0.5847(7) 0.1072(7) 0.6366(6)
H1A H 0.6873 0.0863 0.6669
C2A C 0.3656(6) 0.0735(7) 0.6013(6)
H2A H 0.2879 0.0241 0.6026
C3A C 0.2485(7) -0.3845(7) 1.1418(6)
H3A H 0.1616 -0.3838 1.0982
C4A C 0.4641(7) -0.3451(7) 1.1783(6)
H4A H 0.5553 -0.3119 1.1649
C5A C 0.5728(7) -0.1869(7) 0.7466(6)
H5A H 0.5234 -0.2450 0.7131
H6A H 0.6847 -0.2202 0.7355
C6A C 0.5463(7) -0.2378(8) 0.8963(6)
H7A H 0.6152 -0.3474 0.9472
H8A H 0.5745 -0.1633 0.9255
C7A C 0.3769(7) -0.2378(8) 0.9297(6)
H9A H 0.3415 -0.2959 0.8866
H10A H 0.3097 -0.1254 0.8940
N1A N 0.4918(5) 0.2547(6) 0.5615(5)
N2A N 0.3492(5) 0.2308(6) 0.5397(5)
N3A N 0.5106(5) -0.0084(6) 0.6630(5)
N4A N 0.2765(5) -0.4503(6) 1.2739(5)
N5A N 0.4155(5) -0.4248(6) 1.2975(5)
N6A N 0.3643(5) -0.3175(6) 1.0777(5)
F1A F 0.0357(4) 0.3644(4) 0.6200(3)
Co2A Co 0.15970(8) 0.43856(9) 0.44833(8)
O1A O 0.2618(4) 0.5528(4) 0.5445(4)
O2A O -0.0561(4) 0.6826(5) 0.6254(4)
Mo1A Mo 0.14602(6) 0.65487(9) 0.64641(8)
O3A O 0.2046(6) 0.5390(7) 0.8166(5)
O4A O 0.1780(6) 0.8428(6) 0.6050(6)
N4_2 N 0.7235(5) 0.4503(6) 0.7261(5)
N4A_2 N 0.2765(5) 0.5497(6) 0.2739(5)
N5_2 N 0.5845(5) 0.4248(6) 0.7025(5)
N5A_2 N 0.4155(5) 0.5752(6) 0.2975(5)
F1_2 F -0.0357(4) 0.6356(4) 0.3800(3)
F1A_2 F 1.0357(4) 0.3644(4) 0.6200(3)
Co1_2 Co 0.5000 -0.5000 1.5000
Co1_3 Co 0.5000 1.5000 -0.5000
Co2_2 Co -0.15970(8) 0.56144(9) 0.55167(8)
Co2_3 Co 0.84030(8) 1.56144(9) -0.44833(8)
Co2A_2 Co 0.15970(8) -0.56144(9) 1.44833(8)
Co2A_3 Co 1.15970(8) 0.43856(9) 0.44833(8)
O2_2 O 0.0561(4) 0.3174(5) 0.3746(4)
O2A_2 O 0.9439(4) 0.6826(5) 0.6254(4)
O5 O 0.9566(6) 0.0768(6) 0.6896(6)
H11 H 0.9844 0.1641 0.6662
H12 H 1.0235 0.0118 0.6631
O6 O 0.2649(7) 1.1671(7) -0.1514(6)
H13 H 0.2016 1.2254 -0.2211
H14 H 0.2116 1.1379 -0.0816
O7 O 1.0353(15) 1.4144(16) 0.0191(15)
O7A O 0.9647(15) 1.5856(16) -0.0191(15)
O8 O 0.049(2) 1.058(2) 0.0339(19)
Mo2? Mo 0.8783(10) 0.2722(13) 0.4381(17)
O9? O 0.898(13) 0.082(6) 0.571(6)
O10? O 0.794(13) 0.267(11) 0.302(6)
O11? O 0.116(2) 1.101(2) 0.088(2)
loop_
_geom_bond_atom_site_label_1
_geom_bond_atom_site_label_2
_geom_bond_site_symmetry_1
_geom_bond_site_symmetry_2
C1 H1 1_555 1_555
C2 H2 1_555 1_555
C3 H3 1_555 1_555
C4 H4 1_555 1_555
C5 H5 1_555 1_555
H6 C5 1_555 1_555
C6 C5 1_555 1_555
H7 C6 1_555 1_555
H8 C6 1_555 1_555
C7 C6 1_555 1_555
H9 C7 1_555 1_555
H10 C7 1_555 1_555
N1 C1 1_555 1_555
N2 C2 1_555 1_555
N3 C1 1_555 1_555
N4 C3 1_555 1_555
N5 C4 1_555 1_555
N6 C3 1_555 1_555
F1 Co2 1_555 1_555
Co1 N1 1_555 1_555
Co2 N2 1_555 1_555
O1 Co1 1_555 1_555
O2 Mo1 1_555 1_555
Mo1 O1 1_555 1_555
O3 Mo1 1_555 1_555
O4 Mo1 1_555 1_555
O5 H11 1_555 1_555
H12 O5 1_555 1_555
O6 H13 1_555 1_555
H14 O6 1_555 1_555
C1A H1A 1_555 1_555
C2A H2A 1_555 1_555
C3A H3A 1_555 1_555
C4A H4A 1_555 1_555
C5A H5A 1_555 1_555
H6A C5A 1_555 1_555
C6A C5A 1_555 1_555
H7A C6A 1_555 1_555
H8A C6A 1_555 1_555
C7A C6A 1_555 1_555
H9A C7A 1_555 1_555
H10A C7A 1_555 1_555
N1A Co1 1_555 1_555
N2A C2A 1_555 1_555
N3A C1A 1_555 1_555
N4A C3A 1_555 1_555
N5A C4A 1_555 1_555
N6A C3A 1_555 1_555
F1A Co2A 1_555 1_555
Co2A N2A 1_555 1_555
O1A Co1 1_555 1_555
O2A Mo1A 1_555 1_555
Mo1A O1A 1_555 1_555
O3A Mo1A 1_555 1_555
O4A Mo1A 1_555 1_555
N4_2 Co2 1_555 1_555
N4A_2 Co2A 1_555 1_555
N5_2 Co1 1_555 1_555
N5A_2 Co1 1_555 1_555
F1_2 Co2A 1_555 1_555
F1A_2 Co2 1_555 1_555
Co1_2 N5A 1_555 1_555
Co1_3 N5 1_555 1_555
Co2_2 F1A 1_555 1_555
Co2_3 N4 1_555 1_555
Co2A_2 N4A 1_555 1_555
Co2A_3 F1 1_555 1_555
O2_2 Co2A 1_555 1_555
O2A_2 Co2 1_555 1_555
C2 N3 1_555 1_555
C4 N6 1_555 1_555
C5 N3 1_555 1_555
C7 N6 1_555 1_555
N1 N2 1_555 1_555
N4 N5 1_555 1_555
Co2 O1 1_555 1_555
Co2 Co2A_3 1_555 1_555
O2 Co2A_3 1_555 1_555
C1A N1A 1_555 1_555
C2A N3A 1_555 1_555
C4A N6A 1_555 1_555
C5A N3A 1_555 1_555
C7A N6A 1_555 1_555
N1A N2A 1_555 1_555
N4A N5A 1_555 1_555
Co2A O1A 1_555 1_555
Co2A Co2_2 1_555 1_555
O2A Co2_2 1_555 1_555
N4_2 N5_2 1_555 1_555
N4A_2 N5A_2 1_555 1_555
F1_2 Co2_2 1_555 1_555
F1A_2 Co2A_3 1_555 1_555

#END
