
#######################################################################
#
#                 Cambridge Crystallographic Data Centre
#                                CCDC 
#
#######################################################################
#
# If this CIF has been generated from an entry in the Cambridge 
# Structural Database, then it will include bibliographic, chemical, 
# crystal, experimental, refinement or atomic coordinate data resulting 
# from the CCDC's data processing and validation procedures.
#
#######################################################################

data_MIPWAJ
_symmetry_cell_setting           monoclinic
_symmetry_space_group_name_H-M   'P 21/c'
_symmetry_Int_Tables_number      14
_space_group_name_Hall           '-P 2ybc'
loop_
_symmetry_equiv_pos_site_id
_symmetry_equiv_pos_as_xyz
1 x,y,z
2 x,1/2-y,1/2+z
3 -x,-y,-z
4 -x,1/2+y,1/2-z
_cell_length_a                   9.897(2)
_cell_length_b                   19.235(4)
_cell_length_c                   7.2050(10)
_cell_angle_alpha                90
_cell_angle_beta                 101.48(3)
_cell_angle_gamma                90
_cell_volume                     1344.17
loop_
_atom_site_label
_atom_site_type_symbol
_atom_site_fract_x
_atom_site_fract_y
_atom_site_fract_z
Cd1 Cd -0.16521(2) 0.179570(12) -0.18852(4)
S1 S -0.11916(9) 0.19460(4) -0.55925(13)
S2 S -0.27537(9) 0.13985(4) -0.72949(12)
O1 O -0.2702(3) 0.15669(17) -0.9246(4)
O2 O -0.2502(3) 0.06738(13) -0.6820(5)
O3 O -0.4060(3) 0.16459(15) -0.6876(4)
O4 O -0.4011(3) 0.19575(16) -0.3183(4)
H1 H -0.406(5) 0.188(2) -0.437(8)
H2 H -0.391(7) 0.239(4) -0.323(9)
N1 N -0.1855(3) 0.06150(15) -0.2260(4)
N2 N 0.0665(3) 0.14913(16) -0.0969(5)
N3 N 0.0476(3) 0.03790(17) -0.2423(5)
H3 H 0.095(5) 0.005(2) -0.271(7)
C1 C -0.3164(4) 0.0369(2) -0.2489(6)
H4 H -0.3866 0.0684 -0.2264
C2 C -0.3548(4) -0.0290(2) -0.3029(6)
H5 H -0.4487 -0.0437 -0.3136
C3 C -0.2532(5) -0.0738(2) -0.3400(6)
H6 H -0.2773 -0.1202 -0.3833
C4 C -0.1195(4) -0.05151(19) -0.3158(6)
H7 H -0.0476 -0.0826 -0.3353
C5 C -0.0889(4) 0.01748(18) -0.2592(5)
C6 C 0.1244(3) 0.09435(19) -0.1657(5)
C7 C 0.2667(4) 0.0922(2) -0.1620(6)
H8 H 0.3059 0.0529 -0.2142
C8 C 0.3494(4) 0.1451(3) -0.0835(7)
H9 H 0.4463 0.1447 -0.0842
C9 C 0.2909(5) 0.2006(2) -0.0042(8)
H10 H 0.3470 0.2379 0.0577
C10 C 0.1519(4) 0.2004(2) -0.0154(7)
H11 H 0.1118 0.2390 0.0388
Cd1A Cd -0.16521(2) 0.320430(12) -0.68852(4)
Cd1_2 Cd -0.16521(2) 0.179570(12) -1.18852(4)
O1_2 O -0.2702(3) 0.15669(17) 0.0754(4)
S1A S -0.11916(9) 0.30540(4) -0.05925(13)
loop_
_geom_bond_atom_site_label_1
_geom_bond_atom_site_label_2
_geom_bond_site_symmetry_1
_geom_bond_site_symmetry_2
Cd1 S1 1_555 1_555
S1 S2 1_555 1_555
S2 O1 1_555 1_555
O1 Cd1_2 1_555 1_555
O2 S2 1_555 1_555
O3 S2 1_555 1_555
O4 Cd1 1_555 1_555
H1 O4 1_555 1_555
H2 O4 1_555 1_555
N1 Cd1 1_555 1_555
N2 Cd1 1_555 1_555
N3 H3 1_555 1_555
C1 N1 1_555 1_555
H4 C1 1_555 1_555
C2 C1 1_555 1_555
H5 C2 1_555 1_555
C3 C2 1_555 1_555
H6 C3 1_555 1_555
C4 C3 1_555 1_555
H7 C4 1_555 1_555
C5 N1 1_555 1_555
C6 N2 1_555 1_555
C7 C6 1_555 1_555
H8 C7 1_555 1_555
C8 C7 1_555 1_555
H9 C8 1_555 1_555
C9 C8 1_555 1_555
H10 C9 1_555 1_555
C10 N2 1_555 1_555
H11 C10 1_555 1_555
Cd1A S1 1_555 1_555
O1_2 Cd1 1_555 1_555
S1A Cd1 1_555 1_555
N3 C5 1_555 1_555
N3 C6 1_555 1_555
C4 C5 1_555 1_555
C9 C10 1_555 1_555

#END
