
#######################################################################
#
#                 Cambridge Crystallographic Data Centre
#                                CCDC 
#
#######################################################################
#
# If this CIF has been generated from an entry in the Cambridge 
# Structural Database, then it will include bibliographic, chemical, 
# crystal, experimental, refinement or atomic coordinate data resulting 
# from the CCDC's data processing and validation procedures.
#
#######################################################################

data_MIQCUL
_symmetry_cell_setting           orthorhombic
_symmetry_space_group_name_H-M   'P n c a'
_symmetry_Int_Tables_number      60
_space_group_name_Hall           '-P 2a 2n'
loop_
_symmetry_equiv_pos_site_id
_symmetry_equiv_pos_as_xyz
1 x,y,z
2 1/2-x,-y,z
3 1/2+x,1/2-y,1/2-z
4 -x,1/2+y,1/2-z
5 -x,-y,-z
6 1/2+x,y,-z
7 1/2-x,1/2+y,1/2+z
8 x,1/2-y,1/2+z
_cell_length_a                   29.135(8)
_cell_length_b                   7.461(2)
_cell_length_c                   6.1111(17)
_cell_angle_alpha                90
_cell_angle_beta                 90
_cell_angle_gamma                90
_cell_volume                     1328.41
loop_
_atom_site_label
_atom_site_type_symbol
_atom_site_fract_x
_atom_site_fract_y
_atom_site_fract_z
Mn1 Mn 0.50255(3) 0.15595(9) 0.18421(11)
O1 O 0.52474(11) -0.1172(4) 0.1445(5)
O2 O 0.43379(12) 0.0563(5) 0.2840(6)
O3 O 0.45186(11) -0.1607(5) 0.5190(5)
O4 O 0.2500 0.0000 0.8405(9)
C1 C 0.37872(17) -0.0182(6) 0.5511(8)
C2 C 0.34364(18) 0.0734(7) 0.4452(9)
H1 H 0.3496 0.1312 0.3134
C3 C 0.29988(18) 0.0797(8) 0.5335(10)
H2 H 0.2764 0.1391 0.4605
C4 C 0.29163(17) -0.0046(7) 0.7339(9)
C5 C 0.32661(18) -0.0869(7) 0.8448(9)
H3 H 0.3211 -0.1384 0.9809
C6 C 0.36971(17) -0.0933(7) 0.7548(9)
H4 H 0.3933 -0.1489 0.8315
C7 C 0.42441(17) -0.0391(6) 0.4460(8)
H5 H 0.5568(5) -0.138(7) 0.144(9)
Mn1D Mn 0.49745(3) -0.15595(9) -0.18421(11)
Mn1C Mn 0.49745(3) -0.34405(9) 0.31579(11)
Mn1D_2 Mn 0.49745(3) -0.15595(9) 0.81579(11)
Mn1A Mn -0.00255(3) -0.15595(9) 0.18421(11)
Mn1E Mn 0.00255(3) 0.15595(9) 0.81579(11)
Mn1B Mn 0.00255(3) 0.34405(9) 0.31579(11)
Mn1G Mn 0.50255(3) 0.34405(9) -0.31579(11)
O1D O 0.47526(11) 0.1172(4) -0.1445(5)
O1C O 0.47526(11) 0.3828(4) 0.3555(5)
O1G O 0.52474(11) -0.3828(4) -0.3555(5)
O2A O 0.06621(12) -0.0563(5) 0.2840(6)
O2D O 0.56621(12) -0.0563(5) -0.2840(6)
O3A O 0.04814(11) 0.1607(5) 0.5190(5)
O3D O 0.54814(11) 0.1607(5) 0.4810(5)
O3C O 0.54814(11) 0.3393(5) -0.0190(5)
O3_2 O 0.45186(11) -0.1607(5) -0.4810(5)
O3G O 0.45186(11) -0.3393(5) 0.0190(5)
C1A C 0.12128(17) 0.0182(6) 0.5511(8)
C2A C 0.15636(18) -0.0734(7) 0.4452(9)
H1A H 0.1504 -0.1312 0.3134
C3A C 0.20012(18) -0.0797(8) 0.5335(10)
H2A H 0.2236 -0.1391 0.4605
C4A C 0.20837(17) 0.0046(7) 0.7339(9)
C5A C 0.17339(18) 0.0869(7) 0.8448(9)
H3A H 0.1789 0.1384 0.9809
C6A C 0.13029(17) 0.0933(7) 0.7548(9)
H4A H 0.1067 0.1489 0.8315
C7A C 0.07559(17) 0.0391(6) 0.4460(8)
H5D H 0.4432(5) 0.138(7) -0.144(9)
H5C H 0.4432(5) 0.362(7) 0.356(9)
H5G H 0.5568(5) -0.362(7) -0.356(9)
loop_
_geom_bond_atom_site_label_1
_geom_bond_atom_site_label_2
_geom_bond_site_symmetry_1
_geom_bond_site_symmetry_2
Mn1 O1 1_555 1_555
O1 H5 1_555 1_555
O2 Mn1 1_555 1_555
O3 C7 1_555 1_555
O4 C4 1_555 1_555
C1 C2 1_555 1_555
C2 H1 1_555 1_555
C3 C2 1_555 1_555
H2 C3 1_555 1_555
C4 C3 1_555 1_555
C5 C4 1_555 1_555
H3 C5 1_555 1_555
C6 C1 1_555 1_555
H4 C6 1_555 1_555
C7 O2 1_555 1_555
Mn1D O1 1_555 1_555
Mn1C O1 1_555 1_555
Mn1D_2 O3 1_555 1_555
Mn1A O2A 1_555 1_555
Mn1E O3A 1_555 1_555
Mn1B O3A 1_555 1_555
Mn1G O1D 1_555 1_555
O1D Mn1 1_555 1_555
O1C Mn1 1_555 1_555
O1G Mn1D 1_555 1_555
O2A C7A 1_555 1_555
O2D Mn1D 1_555 1_555
O3A C7A 1_555 1_555
O3D Mn1 1_555 1_555
O3C Mn1 1_555 1_555
O3_2 Mn1D 1_555 1_555
O3G Mn1D 1_555 1_555
C1A C2A 1_555 1_555
C2A H1A 1_555 1_555
C3A C2A 1_555 1_555
H2A C3A 1_555 1_555
C4A O4 1_555 1_555
C5A C4A 1_555 1_555
H3A C5A 1_555 1_555
C6A C1A 1_555 1_555
H4A C6A 1_555 1_555
C7A C1A 1_555 1_555
H5D O1D 1_555 1_555
H5C O1C 1_555 1_555
H5G O1G 1_555 1_555
O3 Mn1C 1_555 1_555
C1 C7 1_555 1_555
C5 C6 1_555 1_555
Mn1D O1D 1_555 1_555
Mn1C O3G 1_555 1_555
Mn1G O3C 1_555 1_555
C3A C4A 1_555 1_555
C5A C6A 1_555 1_555

#END
