
#######################################################################
#
#                 Cambridge Crystallographic Data Centre
#                                CCDC 
#
#######################################################################
#
# If this CIF has been generated from an entry in the Cambridge 
# Structural Database, then it will include bibliographic, chemical, 
# crystal, experimental, refinement or atomic coordinate data resulting 
# from the CCDC's data processing and validation procedures.
#
#######################################################################

data_MIQKON
_symmetry_cell_setting           triclinic
_symmetry_space_group_name_H-M   'P -1'
_symmetry_Int_Tables_number      2
_space_group_name_Hall           '-P 1'
loop_
_symmetry_equiv_pos_site_id
_symmetry_equiv_pos_as_xyz
1 x,y,z
2 -x,-y,-z
_cell_length_a                   6.4923(5)
_cell_length_b                   9.5272(8)
_cell_length_c                   9.8794(8)
_cell_angle_alpha                62.829(2)
_cell_angle_beta                 78.968(2)
_cell_angle_gamma                78.855(2)
_cell_volume                     529.656
loop_
_atom_site_label
_atom_site_type_symbol
_atom_site_fract_x
_atom_site_fract_y
_atom_site_fract_z
Zn1 Zn 0.5000 0.5000 0.0000
Zn2 Zn 0.19811(3) 0.433597(17) 0.360408(16)
C1 C 0.2543(3) 0.9455(2) 0.0562(2)
C2 C 0.2574(3) 1.0450(3) -0.1007(2)
H1 H 0.2901 1.0000 -0.1717
C3 C 0.2143(3) 1.2051(3) -0.1528(2)
C4 C 0.1721(3) 1.2732(3) -0.0498(2)
H2 H 0.1406 1.3851 -0.0860
C5 C 0.1768(3) 1.1759(2) 0.1059(2)
C6 C 0.2082(3) 1.0126(3) 0.1605(2)
H3 H 0.1987 0.9463 0.2677
C7 C 0.2971(3) 0.7683(3) 0.1112(2)
C8 C 0.2096(3) 1.3122(3) -0.3231(2)
C9 C 0.1508(4) 1.2549(3) 0.2101(2)
O1 O 0.3549(3) 0.72083(19) 0.00731(18)
O2 O 0.2697(3) 0.68329(19) 0.25215(18)
O3 O 0.2553(3) 1.2478(2) -0.41061(17)
O4 O 0.1585(3) 1.46032(18) -0.36914(18)
O5 O 0.0989(3) 1.1827(2) 0.35034(19)
O6 O 0.1965(3) 1.39761(18) 0.14980(18)
O7 O 0.4181(3) 0.6109(2) -0.26601(19)
Zn1_2 Zn 0.5000 1.5000 0.0000
Zn1_3 Zn 0.5000 -0.5000 0.0000
Zn2A Zn 0.80189(3) 0.566403(17) -0.360408(16)
Zn2_2 Zn 0.19811(3) 1.433597(17) -0.639592(16)
Zn2A_2 Zn -0.19811(3) 1.566403(17) -0.360408(16)
Zn2_3 Zn 0.19811(3) 1.433597(17) 0.360408(16)
Zn2A_3 Zn 0.80189(3) -0.433597(17) 0.639592(16)
Zn2_4 Zn 1.19811(3) -0.566403(17) 0.360408(16)
Zn2A_4 Zn 0.80189(3) -0.433597(17) -0.360408(16)
C1A C 0.7457(3) 0.0545(2) -0.0562(2)
C2A C 0.7426(3) -0.0450(3) 0.1007(2)
H1A H 0.7099 0.0000 0.1717
C3A C 0.7857(3) -0.2051(3) 0.1528(2)
C4A C 0.8279(3) -0.2732(3) 0.0498(2)
H2A H 0.8594 -0.3851 0.0860
C5A C 0.8232(3) -0.1759(2) -0.1059(2)
C6A C 0.7918(3) -0.0126(3) -0.1605(2)
H3A H 0.8013 0.0537 -0.2677
C7A C 0.7029(3) 0.2317(3) -0.1112(2)
C8A C 0.7904(3) -0.3122(3) 0.3231(2)
C9A C 0.8492(4) -0.2549(3) -0.2101(2)
O1A O 0.6451(3) 0.27917(19) -0.00731(18)
O2A O 0.7303(3) 0.31671(19) -0.25215(18)
O3A O 0.7447(3) -0.2478(2) 0.41061(17)
O3_2 O 0.2553(3) 0.2478(2) 0.58939(17)
O3A_2 O 0.7447(3) 0.7522(2) -0.58939(17)
O4A O 0.8415(3) -0.46032(18) 0.36914(18)
O4A_2 O -0.1585(3) 0.53968(18) 0.36914(18)
O4_2 O 1.1585(3) 0.46032(18) -0.36914(18)
O5A O 0.9011(3) -0.1827(2) -0.35034(19)
O6A O 0.8035(3) -0.39761(18) -0.14980(18)
O6_2 O 0.1965(3) 0.39761(18) 0.14980(18)
O6A_2 O 0.8035(3) 0.60239(18) -0.14980(18)
O7A O 0.5819(3) 0.3891(2) 0.26601(19)
O8 O 0.3165(4) 0.9243(2) -0.3995(3)
loop_
_geom_bond_atom_site_label_1
_geom_bond_atom_site_label_2
_geom_bond_site_symmetry_1
_geom_bond_site_symmetry_2
Zn1 O1 1_555 1_555
Zn2 O2 1_555 1_555
C1 C2 1_555 1_555
C2 H1 1_555 1_555
C3 C2 1_555 1_555
C4 C3 1_555 1_555
H2 C4 1_555 1_555
C5 C4 1_555 1_555
C6 C1 1_555 1_555
H3 C6 1_555 1_555
C7 C1 1_555 1_555
C8 C3 1_555 1_555
C9 C5 1_555 1_555
O1 C7 1_555 1_555
O2 C7 1_555 1_555
O3 C8 1_555 1_555
O4 C8 1_555 1_555
O5 C9 1_555 1_555
O6 C9 1_555 1_555
O7 Zn1 1_555 1_555
Zn1_2 O6 1_555 1_555
Zn1_3 O6A 1_555 1_555
Zn2A O7 1_555 1_555
Zn2_2 O3 1_555 1_555
Zn2A_2 O4 1_555 1_555
Zn2_3 O6 1_555 1_555
Zn2A_3 O3A 1_555 1_555
Zn2_4 O4A 1_555 1_555
Zn2A_4 O6A 1_555 1_555
C1A C2A 1_555 1_555
C2A H1A 1_555 1_555
C3A C2A 1_555 1_555
C4A C3A 1_555 1_555
H2A C4A 1_555 1_555
C5A C4A 1_555 1_555
C6A C1A 1_555 1_555
H3A C6A 1_555 1_555
C7A C1A 1_555 1_555
C8A C3A 1_555 1_555
C9A C5A 1_555 1_555
O1A Zn1 1_555 1_555
O2A Zn2A 1_555 1_555
O3A C8A 1_555 1_555
O3_2 Zn2 1_555 1_555
O3A_2 Zn2A 1_555 1_555
O4A C8A 1_555 1_555
O4A_2 Zn2 1_555 1_555
O4_2 Zn2A 1_555 1_555
O5A C9A 1_555 1_555
O6A C9A 1_555 1_555
O6_2 Zn1 1_555 1_555
O6A_2 Zn1 1_555 1_555
O7A Zn1 1_555 1_555
Zn2 O6_2 1_555 1_555
Zn2 O7A 1_555 1_555
C5 C6 1_555 1_555
Zn2A O6A_2 1_555 1_555
C5A C6A 1_555 1_555
C7A O1A 1_555 1_555
C7A O2A 1_555 1_555

#END
