
#######################################################################
#
#                 Cambridge Crystallographic Data Centre
#                                CCDC 
#
#######################################################################
#
# If this CIF has been generated from an entry in the Cambridge 
# Structural Database, then it will include bibliographic, chemical, 
# crystal, experimental, refinement or atomic coordinate data resulting 
# from the CCDC's data processing and validation procedures.
#
#######################################################################

data_MIQKUT
_symmetry_cell_setting           orthorhombic
_symmetry_space_group_name_H-M   'P b c a'
_symmetry_Int_Tables_number      61
_space_group_name_Hall           '-P 2ac 2ab'
loop_
_symmetry_equiv_pos_site_id
_symmetry_equiv_pos_as_xyz
1 x,y,z
2 1/2-x,-y,1/2+z
3 -x,1/2+y,1/2-z
4 1/2+x,1/2-y,-z
5 -x,-y,-z
6 1/2+x,y,1/2-z
7 x,1/2-y,1/2+z
8 1/2-x,1/2+y,z
_cell_length_a                   15.3015(7)
_cell_length_b                   16.1390(7)
_cell_length_c                   12.4633(6)
_cell_angle_alpha                90
_cell_angle_beta                 90
_cell_angle_gamma                90
_cell_volume                     3077.82
loop_
_atom_site_label
_atom_site_type_symbol
_atom_site_fract_x
_atom_site_fract_y
_atom_site_fract_z
Zn1 Zn 0.01190(2) 0.411663(15) 0.903989(17)
C1 C -0.13715(8) 0.53790(6) 0.70463(7)
C2 C -0.21682(9) 0.52375(8) 0.65428(9)
H1 H -0.2438 0.4723 0.6602
C3 C -0.25619(10) 0.58648(10) 0.59509(12)
C4 C -0.21588(13) 0.66336(9) 0.58623(12)
H2 H -0.2422 0.7053 0.5466
C5 C -0.13620(13) 0.67751(7) 0.63658(11)
C6 C -0.09684(10) 0.61478(7) 0.69578(9)
H3 H -0.0435 0.6243 0.7295
C7 C -0.0975(2) 0.48071(15) 0.77343(18)
C8 C -0.35315(16) 0.55985(13) 0.53500(15)
C9 C -0.07607(19) 0.76329(16) 0.63521(15)
O1 O -0.1625(2) 0.42445(15) 0.79311(19)
O2 O -0.01546(13) 0.49034(11) 0.80564(13)
O3 O -0.40116(13) 0.61769(9) 0.49210(11)
O4 O -0.38177(12) 0.48444(9) 0.52653(11)
O5 O 0.01768(17) 0.76914(14) 0.66724(17)
O6 O -0.11908(15) 0.81777(11) 0.59835(14)
Zn1A Zn -0.51190(2) 0.588337(15) 0.403989(17)
Zn1E Zn -0.48810(2) 0.411663(15) 0.596011(17)
Zn1B Zn -0.01190(2) 0.911663(15) 0.596011(17)
O3A O -0.09884(13) 0.38231(9) 0.99210(11)
O4E O 0.11823(12) 0.48444(9) 0.97347(11)
O6B O 0.11908(15) 0.31777(11) 0.90165(14)
N1 N 0.2103(2) 0.30745(18) 1.12199(19)
C10 C 0.1089(3) 0.3171(3) 1.1072(2)
H4 H 0.0878 0.3591 1.1564
N2 N 0.0623(3) 0.2426(3) 1.1255(3)
C11 C 0.1385(3) 0.1945(3) 1.1479(3)
H5 H 0.1389 0.1495 1.0962
C12 C 0.2286(3) 0.2290(2) 1.1492(3)
H6 H 0.2550 0.2253 1.2197
C13 C 0.3740(5) 0.3631(15) 1.0473(10)
H7 H 0.4117 0.4100 1.0574
H8 H 0.3594 0.3581 0.9727
H9 H 0.4033 0.3137 1.0707
C14 C 0.2921(3) 0.3748(4) 1.1115(4)
H10 H 0.2661 0.4258 1.0856
H11 H 0.3111 0.3858 1.1844
C15 C -0.0515(5) 0.2118(5) 1.1243(5)
H12 H -0.0560 0.1540 1.1419
H13 H -0.0756 0.2211 1.0542
H14 H -0.0833 0.2439 1.1761
loop_
_geom_bond_atom_site_label_1
_geom_bond_atom_site_label_2
_geom_bond_site_symmetry_1
_geom_bond_site_symmetry_2
Zn1 O2 1_555 1_555
C1 C2 1_555 1_555
C2 H1 1_555 1_555
C3 C2 1_555 1_555
C4 C3 1_555 1_555
H2 C4 1_555 1_555
C5 C4 1_555 1_555
C6 C1 1_555 1_555
H3 C6 1_555 1_555
C7 C1 1_555 1_555
C8 C3 1_555 1_555
C9 C5 1_555 1_555
O1 C7 1_555 1_555
O2 C7 1_555 1_555
O3 C8 1_555 1_555
O4 C8 1_555 1_555
O5 C9 1_555 1_555
O6 C9 1_555 1_555
N1 C10 1_555 1_555
C10 H4 1_555 1_555
N2 C10 1_555 1_555
C11 N2 1_555 1_555
H5 C11 1_555 1_555
C12 N1 1_555 1_555
H6 C12 1_555 1_555
C13 H7 1_555 1_555
H8 C13 1_555 1_555
H9 C13 1_555 1_555
C14 N1 1_555 1_555
H10 C14 1_555 1_555
H11 C14 1_555 1_555
C15 N2 1_555 1_555
H12 C15 1_555 1_555
H13 C15 1_555 1_555
H14 C15 1_555 1_555
Zn1A O3 1_555 1_555
Zn1E O4 1_555 1_555
Zn1B O6 1_555 1_555
O3A Zn1 1_555 1_555
O4E Zn1 1_555 1_555
O6B Zn1 1_555 1_555
C5 C6 1_555 1_555
C11 C12 1_555 1_555
C13 C14 1_555 1_555

#END
