
#######################################################################
#
#                 Cambridge Crystallographic Data Centre
#                                CCDC 
#
#######################################################################
#
# If this CIF has been generated from an entry in the Cambridge 
# Structural Database, then it will include bibliographic, chemical, 
# crystal, experimental, refinement or atomic coordinate data resulting 
# from the CCDC's data processing and validation procedures.
#
#######################################################################

data_MIQLAA
_symmetry_cell_setting           orthorhombic
_symmetry_space_group_name_H-M   'P b c a'
_symmetry_Int_Tables_number      61
_space_group_name_Hall           '-P 2ac 2ab'
loop_
_symmetry_equiv_pos_site_id
_symmetry_equiv_pos_as_xyz
1 x,y,z
2 1/2-x,-y,1/2+z
3 -x,1/2+y,1/2-z
4 1/2+x,1/2-y,-z
5 -x,-y,-z
6 1/2+x,y,1/2-z
7 x,1/2-y,1/2+z
8 1/2-x,1/2+y,z
_cell_length_a                   16.004(3)
_cell_length_b                   12.588(3)
_cell_length_c                   16.646(3)
_cell_angle_alpha                90
_cell_angle_beta                 90
_cell_angle_gamma                90
_cell_volume                     3353.48
loop_
_atom_site_label
_atom_site_type_symbol
_atom_site_fract_x
_atom_site_fract_y
_atom_site_fract_z
Zn1 Zn 0.081305(11) 0.399929(13) 0.499466(17)
C1 C 0.31303(16) 0.35946(17) 0.3716(2)
C2 C 0.36665(15) 0.30335(18) 0.4087(2)
H1 H 0.3575 0.2730 0.4589
C3 C 0.44139(15) 0.29250(17) 0.3649(2)
C4 C 0.46375(15) 0.34315(16) 0.2813(2)
H2 H 0.5169 0.3308 0.2607
C5 C 0.41070(15) 0.40362(17) 0.2370(2)
C6 C 0.33458(15) 0.40966(17) 0.2844(2)
H3 H 0.2915 0.4484 0.2611
C7 C 0.22730(16) 0.36892(17) 0.4202(2)
C8 C 0.49751(16) 0.22787(18) 0.4059(2)
C9 C 0.43520(14) 0.46283(18) 0.1497(2)
O1 O 0.21487(18) 0.3363(2) 0.50374(13)
O2 O 0.17838(12) 0.40847(16) 0.37316(17)
O3 O 0.47954(16) 0.19350(19) 0.49104(15)
O4 O 0.55901(13) 0.20869(18) 0.35820(18)
O5 O 0.50382(10) 0.47009(14) 0.12543(16)
O6 O 0.37692(12) 0.49922(14) 0.10539(14)
Zn1C Zn 0.581305(11) 0.100071(13) 0.500534(17)
Zn1A Zn 0.418695(11) 0.600071(13) -0.000534(17)
O3C O -0.02046(16) 0.30650(19) 0.50896(15)
O6A O 0.12308(12) 0.50078(14) 0.60539(14)
N1 N 0.2150(3) 0.3636(3) -0.0466(3)
N2 N 0.2828(3) 0.3839(3) -0.1961(3)
C10 C 0.4800(5) 0.4270(9) -0.3904(5)
H4 H 0.4738 0.3985 -0.4436
H5 H 0.5260 0.3926 -0.3640
H6 H 0.4907 0.5019 -0.3937
C11 C 0.3987(5) 0.4077(10) -0.3419(4)
H7 H 0.3623 0.4546 -0.3721
H8 H 0.3855 0.3377 -0.3628
C12 C 0.3479(4) 0.4020(4) -0.2660(3)
H9 H 0.3502 0.4781 -0.2573
H10 H 0.3945 0.3758 -0.2344
C13 C 0.2030(3) 0.3609(5) 0.0639(4)
H11 H 0.2511 0.3927 0.0885
H12 H 0.1977 0.2887 0.0817
H13 H 0.1539 0.4000 0.0788
C14 C 0.2802(3) 0.3914(3) -0.0969(3)
H14 H 0.3280 0.4174 -0.0721
C15 C 0.2094(3) 0.3451(3) -0.2154(3)
H15 H 0.1847 0.3265 -0.2640
C16 C 0.1783(5) 0.3422(7) -0.1234(4)
H16 H 0.1227 0.3214 -0.1191
loop_
_geom_bond_atom_site_label_1
_geom_bond_atom_site_label_2
_geom_bond_site_symmetry_1
_geom_bond_site_symmetry_2
Zn1 O1 1_555 1_555
C1 C2 1_555 1_555
C2 H1 1_555 1_555
C3 C2 1_555 1_555
C4 C3 1_555 1_555
H2 C4 1_555 1_555
C5 C4 1_555 1_555
C6 C1 1_555 1_555
H3 C6 1_555 1_555
C7 C1 1_555 1_555
C8 C3 1_555 1_555
C9 C5 1_555 1_555
O1 C7 1_555 1_555
O2 C7 1_555 1_555
O3 C8 1_555 1_555
O4 C8 1_555 1_555
O5 C9 1_555 1_555
O6 C9 1_555 1_555
N1 C13 1_555 1_555
N2 C12 1_555 1_555
C10 H4 1_555 1_555
H5 C10 1_555 1_555
H6 C10 1_555 1_555
C11 C10 1_555 1_555
H7 C11 1_555 1_555
H8 C11 1_555 1_555
C12 C11 1_555 1_555
H9 C12 1_555 1_555
H10 C12 1_555 1_555
C13 H11 1_555 1_555
H12 C13 1_555 1_555
H13 C13 1_555 1_555
C14 N1 1_555 1_555
H14 C14 1_555 1_555
C15 N2 1_555 1_555
H15 C15 1_555 1_555
C16 N1 1_555 1_555
H16 C16 1_555 1_555
Zn1C O3 1_555 1_555
Zn1A O6 1_555 1_555
O3C Zn1 1_555 1_555
O6A Zn1 1_555 1_555
C5 C6 1_555 1_555
N2 C14 1_555 1_555
C15 C16 1_555 1_555

#END
