
#######################################################################
#
#                 Cambridge Crystallographic Data Centre
#                                CCDC 
#
#######################################################################
#
# If this CIF has been generated from an entry in the Cambridge 
# Structural Database, then it will include bibliographic, chemical, 
# crystal, experimental, refinement or atomic coordinate data resulting 
# from the CCDC's data processing and validation procedures.
#
#######################################################################

data_MIQNUX
_symmetry_cell_setting           orthorhombic
_symmetry_space_group_name_H-M   'P 21 21 21'
_symmetry_Int_Tables_number      19
_space_group_name_Hall           'P 2ac 2ab'
loop_
_symmetry_equiv_pos_site_id
_symmetry_equiv_pos_as_xyz
1 x,y,z
2 1/2-x,-y,1/2+z
3 -x,1/2+y,1/2-z
4 1/2+x,1/2-y,-z
_cell_length_a                   22.945(5)
_cell_length_b                   31.803(6)
_cell_length_c                   32.955(7)
_cell_angle_alpha                90
_cell_angle_beta                 90
_cell_angle_gamma                90
_cell_volume                     24047.9
loop_
_atom_site_label
_atom_site_type_symbol
_atom_site_fract_x
_atom_site_fract_y
_atom_site_fract_z
Zn1 Zn 0.04389(5) 0.26896(4) 0.27466(3)
O1 O 0.1235(3) 0.27557(17) 0.25707(15)
O2 O -0.0124(3) 0.2655(2) 0.23078(19)
O3 O 0.0334(3) 0.2118(2) 0.2958(2)
O4 O 0.0107(4) 0.3081(2) 0.3111(2)
Zn2 Zn 0.16851(6) 0.22944(4) 0.27698(4)
Zn3 Zn 0.12220(6) 0.27186(4) 0.19816(3)
Zn4 Zn 0.15298(6) 0.33143(4) 0.27633(4)
C1 C -0.0038(5) 0.2704(3) 0.1925(4)
C2 C 0.0681(6) 0.1877(3) 0.3117(3)
C3 C 0.0442(5) 0.3348(3) 0.3286(3)
O5 O 0.1923(3) 0.1927(2) 0.2343(2)
O6 O 0.1240(3) 0.1948(2) 0.3116(3)
O7 O 0.2368(3) 0.2426(2) 0.3050(2)
O8 O 0.0447(3) 0.2739(3) 0.1768(2)
O9 O 0.1505(4) 0.2177(2) 0.1781(2)
O10 O 0.1656(3) 0.31456(19) 0.17165(18)
O11 O 0.2032(3) 0.3462(2) 0.22685(19)
O12 O 0.2239(3) 0.3129(2) 0.31186(18)
O13 O 0.0999(3) 0.3319(2) 0.32657(18)
O14 O 0.1758(4) 0.3926(2) 0.2927(2)
O15 O 0.0811(4) 0.3564(3) 0.2453(2)
C4 C -0.0575(5) 0.2695(4) 0.1690(3)
C5 C 0.0475(5) 0.1474(3) 0.3298(3)
C6 C 0.0188(5) 0.3674(3) 0.3536(3)
C7 C 0.1784(5) 0.1896(3) 0.1959(3)
C8 C 0.2485(4) 0.2795(4) 0.3183(3)
C9 C 0.1955(5) 0.3432(3) 0.1866(3)
C10 C 0.2277(6) 0.4023(4) 0.2902(3)
C11 C 0.0810(5) 0.3917(5) 0.2322(4)
C12 C -0.1110(5) 0.2611(3) 0.1801(4)
C13 C -0.0515(5) 0.2737(4) 0.1269(4)
C14 C -0.0076(5) 0.1341(3) 0.3236(3)
C15 C 0.0826(6) 0.1242(4) 0.3541(4)
C16 C 0.0482(6) 0.4024(4) 0.3659(4)
C17 C -0.0386(6) 0.3667(3) 0.3637(3)
C18 C 0.1994(6) 0.1539(4) 0.1727(3)
C19 C 0.3055(5) 0.2810(3) 0.3429(3)
C20 C 0.2194(5) 0.3738(4) 0.1605(4)
N1 N 0.2484(4) 0.4430(3) 0.3010(3)
H1 H 0.2548 0.3819 0.2808
N2 N 0.0326(5) 0.4147(3) 0.2212(4)
H2 H 0.1178 0.4051 0.2292
H3 H -0.1170 0.2542 0.2078
C21 C -0.1588(6) 0.2612(3) 0.1558(3)
C22 C -0.1033(5) 0.2839(4) 0.1038(3)
H4 H -0.0149 0.2700 0.1139
H5 H -0.0337 0.1511 0.3084
C23 C -0.0272(6) 0.0945(4) 0.3399(3)
C24 C 0.0649(5) 0.0842(3) 0.3723(4)
H6 H 0.1206 0.1345 0.3596
H7 H 0.0876 0.4054 0.3576
C25 C 0.0243(6) 0.4338(4) 0.3900(3)
C26 C -0.0671(6) 0.3974(3) 0.3905(3)
H8 H -0.0620 0.3449 0.3527
C27 C 0.1835(7) 0.1472(4) 0.1316(3)
C28 C 0.2335(5) 0.1258(4) 0.1913(3)
C29 C 0.3439(5) 0.2482(4) 0.3431(3)
C30 C 0.3179(5) 0.3138(3) 0.3696(3)
C31 C 0.2349(6) 0.4120(5) 0.1724(3)
C32 C 0.2226(5) 0.3705(3) 0.1187(3)
C33 C 0.2051(6) 0.4777(4) 0.3131(6)
C34 C 0.3135(5) 0.4529(5) 0.3000(5)
C35 C -0.0281(7) 0.3961(5) 0.2286(5)
C36 C 0.0356(7) 0.4599(4) 0.2051(5)
H9 H -0.1955 0.2548 0.1677
C37 C -0.1573(5) 0.2699(4) 0.1161(3)
H10 H -0.1000 0.3004 0.0799
H11 H -0.0647 0.0839 0.3334
C38 C 0.0088(5) 0.0727(3) 0.3646(3)
H12 H 0.0906 0.0676 0.3882
H13 H 0.0475 0.4573 0.3974
C39 C -0.0319(5) 0.4315(3) 0.4031(3)
H14 H -0.1065 0.3945 0.3989
H15 H 0.1587 0.1664 0.1179
C40 C 0.2051(6) 0.1118(4) 0.1119(3)
C41 C 0.2572(5) 0.0901(4) 0.1717(3)
H16 H 0.2424 0.1301 0.2191
H17 H 0.3361 0.2251 0.3256
C42 C 0.3946(5) 0.2462(4) 0.3675(3)
C43 C 0.3661(5) 0.3136(3) 0.3937(3)
H18 H 0.2920 0.3370 0.3710
H19 H 0.2308 0.4177 0.2006
C44 C 0.2563(6) 0.4447(4) 0.1493(3)
C45 C 0.2438(5) 0.4002(3) 0.0922(3)
H20 H 0.2088 0.3451 0.1070
H21 H 0.2214 0.4936 0.3363
H22 H 0.1684 0.4644 0.3223
C46 C 0.1909(11) 0.5088(6) 0.2786(7)
H23 H 0.3188 0.4829 0.2929
H24 H 0.3320 0.4359 0.2783
C47 C 0.3453(6) 0.4438(5) 0.3410(4)
H25 H -0.0239 0.3706 0.2456
H26 H -0.0514 0.4167 0.2441
C48 C -0.0615(8) 0.3844(5) 0.1903(5)
H27 H 0.0759 0.4661 0.1962
H28 H 0.0097 0.4626 0.1812
C49 C 0.0174(13) 0.4918(7) 0.2372(8)
C50 C -0.2078(5) 0.2705(4) 0.0901(3)
C51 C -0.0141(6) 0.0327(3) 0.3853(3)
C52 C -0.0540(5) 0.4637(3) 0.4326(4)
H29 H 0.1936 0.1072 0.0846
C53 C 0.2427(5) 0.0826(3) 0.1300(3)
H30 H 0.2823 0.0715 0.1860
H31 H 0.4201 0.2227 0.3662
C54 C 0.4058(5) 0.2796(3) 0.3933(3)
H32 H 0.3732 0.3367 0.4112
H33 H 0.2671 0.4708 0.1611
C55 C 0.2615(6) 0.4372(3) 0.1057(3)
H34 H 0.2457 0.3941 0.0641
H35 H 0.2263 0.5241 0.2710
H36 H 0.1612 0.5288 0.2879
H37 H 0.1761 0.4933 0.2551
H38 H 0.3274 0.4607 0.3626
H39 H 0.3866 0.4513 0.3385
H40 H 0.3417 0.4139 0.3477
H41 H -0.0690 0.4097 0.1743
H42 H -0.0986 0.3712 0.1978
H43 H -0.0384 0.3646 0.1742
H44 H 0.0435 0.4897 0.2606
H45 H -0.0227 0.4860 0.2458
H46 H 0.0196 0.5202 0.2257
C56 C -0.2600(5) 0.2506(4) 0.1003(4)
C57 C -0.2040(6) 0.2909(3) 0.0508(4)
C58 C -0.0730(5) 0.0245(4) 0.3865(3)
C59 C 0.0283(5) 0.0054(4) 0.4025(3)
C60 C -0.0376(6) 0.5053(3) 0.4289(4)
C61 C -0.0966(5) 0.4527(3) 0.4618(3)
C62 C 0.2649(5) 0.0451(3) 0.1085(3)
C63 C 0.4558(4) 0.2800(3) 0.4197(3)
C64 C 0.2884(5) 0.4686(3) 0.0789(3)
H47 H -0.2628 0.2346 0.1245
C65 C -0.3083(6) 0.2544(4) 0.0743(3)
C66 C -0.2548(5) 0.2895(3) 0.0251(3)
H48 H -0.1693 0.3046 0.0424
H49 H -0.1013 0.0423 0.3742
C67 C -0.0881(6) -0.0137(4) 0.4085(3)
C68 C 0.0089(6) -0.0333(3) 0.4223(3)
H50 H 0.0686 0.0122 0.4012
H51 H -0.0135 0.5143 0.4072
C69 C -0.0578(6) 0.5345(3) 0.4585(3)
C70 C -0.1193(5) 0.4794(3) 0.4877(3)
H52 H -0.1095 0.4244 0.4627
C71 C 0.2285(6) 0.0238(3) 0.0799(3)
C72 C 0.3198(6) 0.0308(3) 0.1169(4)
C73 C 0.5079(5) 0.2571(3) 0.4091(3)
C74 C 0.4590(5) 0.3032(3) 0.4566(3)
C75 C 0.2717(6) 0.5106(3) 0.0808(4)
C76 C 0.3262(5) 0.4564(3) 0.0486(3)
H53 H -0.3447 0.2430 0.0825
C77 C -0.3045(5) 0.2735(4) 0.0383(3)
H54 H -0.2525 0.3003 -0.0018
H55 H -0.1279 -0.0219 0.4093
C78 C -0.0489(5) -0.0379(3) 0.4277(3)
H56 H 0.0358 -0.0542 0.4310
H57 H -0.0423 0.5622 0.4590
C79 C -0.1003(5) 0.5229(3) 0.4872(3)
H58 H -0.1479 0.4704 0.5066
H59 H 0.1899 0.0330 0.0746
C80 C 0.2527(6) -0.0121(4) 0.0595(3)
C81 C 0.3416(6) -0.0056(3) 0.0974(3)
H60 H 0.3434 0.0453 0.1360
H61 H 0.5095 0.2420 0.3843
C82 C 0.5556(5) 0.2570(3) 0.4349(3)
C83 C 0.5063(5) 0.3032(3) 0.4813(3)
H62 H 0.4262 0.3196 0.4644
H63 H 0.2453 0.5201 0.1011
C84 C 0.2952(5) 0.5391(3) 0.0515(3)
C85 C 0.3505(5) 0.4851(3) 0.0211(3)
H64 H 0.3361 0.4275 0.0462
C86 C -0.3597(5) 0.2727(3) 0.0095(3)
C87 C -0.0690(5) -0.0791(3) 0.4471(3)
C88 C -0.1258(6) 0.5528(3) 0.5164(3)
H65 H 0.2303 -0.0264 0.0396
C89 C 0.3073(5) -0.0259(3) 0.0686(3)
H66 H 0.3792 -0.0161 0.1039
H67 H 0.5885 0.2401 0.4285
C90 C 0.5561(5) 0.2819(3) 0.4706(3)
H68 H 0.5050 0.3181 0.5062
H69 H 0.2822 0.5674 0.0518
C91 C 0.3364(5) 0.5271(3) 0.0223(3)
H70 H 0.3772 0.4753 0.0011
O16 O -0.4124(3) 0.2700(3) 0.0305(2)
H71 H -0.3598 0.2981 -0.0083
C92 C -0.3589(5) 0.2335(4) -0.0162(4)
O17 O -0.1034(3) -0.1048(2) 0.4206(2)
H72 H -0.0348 -0.0953 0.4574
C93 C -0.1116(6) -0.0690(3) 0.4824(3)
O18 O -0.1414(4) 0.5904(2) 0.49415(19)
H73 H -0.1608 0.5403 0.5300
C94 C -0.0779(5) 0.5645(3) 0.5483(3)
C95 C 0.3299(5) -0.0669(3) 0.0468(3)
C96 C 0.6090(4) 0.2810(3) 0.4983(3)
C97 C 0.3608(5) 0.5559(3) -0.0087(3)
C98 C -0.4233(8) 0.3081(5) 0.0509(5)
O19 O -0.4041(4) 0.2413(3) -0.0460(2)
C99 C -0.2981(6) 0.2256(4) -0.0383(3)
H74 H -0.3694 0.2085 0.0007
C100 C -0.0684(5) -0.1147(4) 0.3842(3)
O20 O -0.1182(4) -0.1101(2) 0.5027(2)
C101 C -0.0827(5) -0.0382(4) 0.5118(3)
H75 H -0.1498 -0.0581 0.4722
C102 C -0.1995(6) 0.6083(4) 0.5038(4)
O21 O -0.1101(3) 0.5909(2) 0.57711(18)
C103 C -0.0565(6) 0.5253(3) 0.5683(3)
H76 H -0.0452 0.5804 0.5354
O22 O 0.3582(3) -0.0935(2) 0.07700(19)
H77 H 0.2963 -0.0822 0.0344
C104 C 0.3741(6) -0.0567(4) 0.0148(3)
O23 O 0.6630(3) 0.2756(2) 0.4746(2)
H78 H 0.6112 0.3084 0.5133
C105 C 0.6129(5) 0.2454(4) 0.5287(4)
O24 O 0.3764(4) 0.5935(2) 0.01111(19)
H79 H 0.3959 0.5429 -0.0215
C106 C 0.3145(5) 0.5648(3) -0.0409(3)
H80 H -0.3932 0.3127 0.0715
H81 H -0.4616 0.3068 0.0640
H82 H -0.4228 0.3313 0.0314
C107 C -0.4154(6) 0.2055(7) -0.0710(5)
C108 C -0.2880(5) 0.2517(4) -0.0729(3)
C109 C -0.2623(5) 0.1978(3) -0.0248(3)
H83 H -0.0636 -0.0893 0.3678
H84 H -0.0885 -0.1363 0.3682
H85 H -0.0301 -0.1252 0.3925
C110 C -0.1648(7) -0.1094(4) 0.5316(5)
C111 C -0.1042(5) 0.0054(3) 0.5129(3)
C112 C -0.0374(5) -0.0512(3) 0.5379(4)
H86 H -0.2248 0.5862 0.5146
H87 H -0.2169 0.6200 0.4791
H88 H -0.1952 0.6306 0.5241
C113 C -0.0720(5) 0.6049(3) 0.6094(3)
C114 C -0.0922(5) 0.5009(3) 0.5930(3)
C115 C 0.0026(6) 0.5107(4) 0.5623(4)
C116 C 0.3221(6) -0.1082(3) 0.1096(3)
O25 O 0.3867(4) -0.0948(2) -0.0017(2)
C117 C 0.3460(2) -0.02498(15) -0.01441(13)
H89 H 0.4097 -0.0443 0.0274
C118 C 0.6765(5) 0.3109(4) 0.4479(3)
O26 O 0.6591(4) 0.2537(3) 0.5544(3)
C119 C 0.5544(5) 0.2441(3) 0.5515(3)
H90 H 0.6194 0.2181 0.5143
C120 C 0.4295(5) 0.6130(3) -0.0034(3)
O27 O 0.3436(3) 0.5924(2) -0.07034(19)
C121 C 0.2949(6) 0.5254(4) -0.0622(3)
H91 H 0.2804 0.5795 -0.0284
H92 H -0.3894 0.2060 -0.0946
H93 H -0.4560 0.2062 -0.0802
H94 H -0.4085 0.1797 -0.0554
C122 C -0.2312(6) 0.2444(3) -0.0922(3)
H95 H -0.3154 0.2718 -0.0824
H96 H -0.2729 0.1814 -0.0019
C123 C -0.2069(6) 0.1911(4) -0.0437(3)
H97 H -0.1530 -0.0928 0.5553
H98 H -0.1738 -0.1382 0.5401
H99 H -0.1993 -0.0967 0.5192
C124 C -0.0809(5) 0.0319(4) 0.5392(3)
H100 H -0.1343 0.0143 0.4950
H101 H -0.0218 -0.0788 0.5363
C125 C -0.0163(5) -0.0225(3) 0.5659(3)
H102 H -0.0604 0.5808 0.6260
H103 H -0.0927 0.6254 0.6264
H104 H -0.0373 0.6181 0.5977
C126 C -0.0731(6) 0.4629(3) 0.6105(3)
H105 H -0.1308 0.5102 0.5982
H106 H 0.0288 0.5269 0.5464
C127 C 0.0213(6) 0.4736(3) 0.5793(3)
H107 H 0.3261 -0.0893 0.1329
H108 H 0.3342 -0.1366 0.1174
H109 H 0.2813 -0.1088 0.1007
C128 C 0.4429(8) -0.0920(4) -0.0193(4)
C129 C 0.3660(2) 0.01620(15) -0.01699(13)
C130 C 0.3043(2) -0.03950(15) -0.04162(13)
H110 H 0.6564 0.3072 0.4219
H111 H 0.7187 0.3121 0.4432
H112 H 0.6636 0.3372 0.4606
C131 C 0.6728(7) 0.2201(7) 0.5822(5)
C132 C 0.5136(5) 0.2139(3) 0.5425(4)
C133 C 0.5421(5) 0.2718(4) 0.5823(3)
H113 H 0.4619 0.5931 -0.0006
H114 H 0.4376 0.6382 0.0126
H115 H 0.4248 0.6207 -0.0320
C134 C 0.3007(5) 0.6114(4) -0.0975(3)
C135 C 0.2349(5) 0.5162(3) -0.0643(3)
C136 C 0.3301(5) 0.4964(4) -0.0833(3)
C137 C -0.1928(6) 0.2159(4) -0.0774(3)
H116 H -0.2211 0.2600 -0.1158
H117 H -0.1805 0.1706 -0.0338
C138 C -0.0381(5) 0.0209(3) 0.5685(4)
H118 H -0.0937 0.0603 0.5385
H119 H 0.0133 -0.0313 0.5842
C139 C -0.0156(5) 0.4485(3) 0.6039(3)
H120 H -0.0991 0.4468 0.6269
H121 H 0.0601 0.4644 0.5744
H122 H 0.4465 -0.0654 -0.0341
H123 H 0.4486 -0.1155 -0.0382
H124 H 0.4725 -0.0932 0.0021
C140 C 0.3442(2) 0.04287(15) -0.04679(13)
H125 H 0.3945 0.0261 0.0016
H126 H 0.2907 -0.0676 -0.0398
C141 C 0.2826(2) -0.01283(15) -0.07142(13)
H127 H 0.6389 0.2144 0.5995
H128 H 0.7059 0.2285 0.5993
H129 H 0.6830 0.1947 0.5669
C142 C 0.4599(6) 0.2121(3) 0.5651(4)
H130 H 0.5208 0.1942 0.5214
H131 H 0.5710 0.2919 0.5893
C143 C 0.4912(5) 0.2722(4) 0.6035(3)
H132 H 0.2749 0.5894 -0.1082
H133 H 0.3208 0.6253 -0.1201
H134 H 0.2776 0.6321 -0.0825
C144 C 0.2121(6) 0.4802(3) -0.0834(3)
H135 H 0.2084 0.5355 -0.0522
H136 H 0.3710 0.5011 -0.0841
C145 C 0.3087(6) 0.4623(4) -0.1024(3)
C146 C -0.1378(5) 0.2085(4) -0.1001(3)
C147 C -0.0152(5) 0.0509(3) 0.5976(3)
C148 C 0.0049(5) 0.4107(4) 0.6241(3)
C149 C 0.3026(2) 0.02835(15) -0.07401(13)
H137 H 0.3579 0.0710 -0.0486
H138 H 0.2541 -0.0228 -0.0900
C150 C 0.4514(5) 0.2410(3) 0.5962(3)
H139 H 0.4310 0.1918 0.5588
H140 H 0.4835 0.2937 0.6228
C151 C 0.2518(5) 0.4537(3) -0.1028(3)
H141 H 0.1715 0.4742 -0.0831
H142 H 0.3348 0.4439 -0.1159
C152 C -0.1024(6) 0.2413(4) -0.1096(4)
C153 C -0.1176(6) 0.1648(4) -0.1109(3)
C154 C -0.0064(5) 0.0939(3) 0.5890(3)
C155 C 0.0082(6) 0.0391(4) 0.6370(4)
C156 C -0.0232(6) 0.3962(4) 0.6592(4)
C157 C 0.0487(6) 0.3889(3) 0.6082(3)
C158 C 0.2745(6) 0.0574(4) -0.1047(3)
C159 C 0.3948(5) 0.2392(3) 0.6199(3)
C160 C 0.2345(2) 0.41284(16) -0.12649(12)
C161 C -0.0511(6) 0.2372(4) -0.1317(3)
H143 H -0.1133 0.2686 -0.1007
H144 H -0.1383 0.1404 -0.1028
C162 C -0.0666(5) 0.1626(4) -0.1336(3)
C163 C 0.0132(5) 0.1214(4) 0.6157(3)
H145 H -0.0152 0.1036 0.5625
H146 H 0.0096 0.0101 0.6440
C164 C 0.0279(5) 0.0676(3) 0.6642(3)
C165 C -0.0054(5) 0.3585(3) 0.6782(3)
H147 H -0.0545 0.4120 0.6703
H148 H 0.0686 0.3985 0.5847
C166 C 0.0642(6) 0.3523(5) 0.6266(3)
C167 C 0.2984(7) 0.1000(5) -0.1055(5)
C168 C 0.2354(5) 0.0438(4) -0.1334(3)
C169 C 0.3446(5) 0.2221(4) 0.6030(3)
C170 C 0.3979(5) 0.2495(3) 0.6616(3)
C171 C 0.1765(2) 0.41468(16) -0.13869(12)
C172 C 0.2676(2) 0.37730(16) -0.13486(12)
C173 C -0.0322(6) 0.1969(4) -0.1427(3)
H149 H -0.0292 0.2613 -0.1392
H150 H -0.0548 0.1359 -0.1434
C174 C 0.0346(5) 0.1074(3) 0.6550(3)
H151 H 0.0135 0.1505 0.6092
H152 H 0.0372 0.0584 0.6909
C175 C 0.0420(5) 0.3355(4) 0.6640(4)
H153 H -0.0263 0.3487 0.7011
H154 H 0.0931 0.3360 0.6132
C176 C 0.2715(7) 0.1270(5) -0.1355(5)
H155 H 0.3288 0.1091 -0.0880
H156 H 0.2246 0.0150 -0.1332
C177 C 0.2104(2) 0.06989(15) -0.16298(13)
C178 C 0.2961(5) 0.2185(4) 0.6254(3)
H157 H 0.3447 0.2130 0.5756
H158 H 0.4330 0.2597 0.6734
C179 C 0.3473(6) 0.2442(3) 0.6850(3)
C180 C 0.1517(2) 0.38097(16) -0.15925(12)
H159 H 0.1539 0.4390 -0.1330
H160 H 0.3072 0.3761 -0.1265
C181 C 0.2428(2) 0.34359(16) -0.15542(12)
C182 C 0.0219(5) 0.1927(4) -0.1696(3)
C183 C 0.0579(4) 0.1381(3) 0.6852(3)
C184 C 0.0661(6) 0.2996(3) 0.6878(3)
C185 C 0.2241(6) 0.1163(4) -0.1608(3)
H161 H 0.2871 0.1545 -0.1385
H162 H 0.1858 0.0588 -0.1836
C186 C 0.2958(5) 0.2300(3) 0.6686(3)
H163 H 0.2614 0.2083 0.6132
H164 H 0.3487 0.2506 0.7132
C187 C 0.1849(2) 0.34543(16) -0.16762(12)
H165 H 0.1121 0.3822 -0.1676
H166 H 0.2655 0.3193 -0.1611
O28 O 0.0292(3) 0.1579(3) -0.18907(19)
O29 O 0.0506(4) 0.2246(3) -0.1730(2)
O30 O 0.0721(3) 0.1724(2) 0.67021(19)
O31 O 0.0653(3) 0.1291(2) 0.72063(17)
O32 O 0.0924(3) 0.2738(2) 0.66801(18)
O33 O 0.0503(4) 0.2963(2) 0.7239(2)
C188 C 0.1945(5) 0.1440(4) -0.1880(4)
C189 C 0.2404(5) 0.2251(3) 0.6931(3)
C190 C 0.1696(2) 0.31076(16) -0.18850(12)
Zn5 Zn 0.08675(6) 0.16274(4) -0.23165(3)
Zn6 Zn 0.05725(6) 0.26094(4) -0.22556(4)
Zn7 Zn 0.11594(6) 0.22106(4) 0.69379(3)
O34 O 0.2169(3) 0.1807(2) -0.19168(19)
O35 O 0.1534(3) 0.1316(2) -0.2107(2)
O36 O 0.1942(3) 0.2130(2) 0.6757(2)
O37 O 0.2446(3) 0.2340(2) 0.73144(18)
O38 O 0.1133(4) 0.3030(2) -0.2009(2)
O39 O 0.2028(3) 0.2791(2) -0.19588(19)
O40 O 0.1135(3) 0.21773(19) 0.75149(14)
O41 O -0.0069(3) 0.2986(2) 0.7958(2)
O42 O -0.0125(4) 0.2215(3) 0.7505(2)
Zn8 Zn 0.18927(5) 0.22672(4) -0.22598(3)
C191 C -0.0042(6) 0.3362(4) 0.7923(4)
C192 C -0.0655(6) 0.2266(4) 0.7584(4)
N3 N -0.0487(6) 0.3630(3) 0.7920(4)
H167 H 0.0336 0.3480 0.7895
N4 N -0.1043(4) 0.2001(3) 0.7544(3)
H168 H -0.0768 0.2535 0.7682
C193 C -0.0380(7) 0.4067(5) 0.7785(6)
C194 C -0.1116(6) 0.3493(4) 0.7994(6)
C195 C -0.0925(7) 0.1518(5) 0.7496(5)
C196 C -0.1677(5) 0.2064(6) 0.7616(5)
H169 H -0.0608 0.4125 0.7536
H170 H 0.0038 0.4104 0.7721
C197 C -0.0557(8) 0.4375(6) 0.8118(7)
H171 H -0.1342 0.3720 0.8127
H172 H -0.1132 0.3238 0.8165
C198 C -0.1367(8) 0.3396(7) 0.7527(6)
H173 H -0.0524 0.1450 0.7584
H174 H -0.1202 0.1355 0.7665
C199 C -0.1002(8) 0.1416(6) 0.7072(6)
H175 H -0.1838 0.2195 0.7368
H176 H -0.1855 0.1782 0.7638
C200 C -0.1883(7) 0.2305(6) 0.7954(5)
H177 H -0.0773 0.4224 0.8329
H178 H -0.0804 0.4595 0.8002
H179 H -0.0207 0.4502 0.8236
H180 H -0.1575 0.3645 0.7426
H181 H -0.1635 0.3156 0.7536
H182 H -0.1040 0.3332 0.7346
H183 H -0.0774 0.1165 0.7006
H184 H -0.0870 0.1652 0.6905
H185 H -0.1416 0.1362 0.7018
H186 H -0.1974 0.2116 0.8180
H187 H -0.2235 0.2460 0.7875
H188 H -0.1581 0.2505 0.8038
Zn5_2 Zn 0.08675(6) 0.16274(4) 0.76835(3)
Zn6_2 Zn 0.05725(6) 0.26094(4) 0.77444(4)
O35_2 O 0.1534(3) 0.1316(2) 0.7893(2)
O28_2 O 0.0292(3) 0.1579(3) 0.81093(19)
O29_2 O 0.0506(4) 0.2246(3) 0.8270(2)
O38_2 O 0.1133(4) 0.3030(2) 0.7991(2)
Zn8_2 Zn 0.18927(5) 0.22672(4) 0.77402(3)
O34_2 O 0.2169(3) 0.1807(2) 0.80832(19)
O39_2 O 0.2028(3) 0.2791(2) 0.80412(19)
loop_
_geom_bond_atom_site_label_1
_geom_bond_atom_site_label_2
_geom_bond_site_symmetry_1
_geom_bond_site_symmetry_2
Zn1 O1 1_555 1_555
O1 Zn2 1_555 1_555
O2 Zn1 1_555 1_555
O3 Zn1 1_555 1_555
O4 Zn1 1_555 1_555
Zn2 O5 1_555 1_555
Zn3 O1 1_555 1_555
Zn4 O1 1_555 1_555
C1 O2 1_555 1_555
C2 O3 1_555 1_555
C3 O4 1_555 1_555
O5 C7 1_555 1_555
O6 Zn2 1_555 1_555
O7 Zn2 1_555 1_555
O8 Zn3 1_555 1_555
O9 Zn3 1_555 1_555
O10 Zn3 1_555 1_555
O11 Zn4 1_555 1_555
O12 Zn4 1_555 1_555
O13 Zn4 1_555 1_555
O14 Zn4 1_555 1_555
O15 Zn4 1_555 1_555
C4 C1 1_555 1_555
C5 C2 1_555 1_555
C6 C3 1_555 1_555
C7 O9 1_555 1_555
C8 O7 1_555 1_555
C9 O10 1_555 1_555
C10 O14 1_555 1_555
C11 O15 1_555 1_555
C12 C4 1_555 1_555
C13 C4 1_555 1_555
C14 C5 1_555 1_555
C15 C5 1_555 1_555
C16 C6 1_555 1_555
C17 C6 1_555 1_555
C18 C7 1_555 1_555
C19 C8 1_555 1_555
C20 C9 1_555 1_555
N1 C10 1_555 1_555
H1 C10 1_555 1_555
N2 C11 1_555 1_555
H2 C11 1_555 1_555
H3 C12 1_555 1_555
C21 C12 1_555 1_555
C22 C13 1_555 1_555
H4 C13 1_555 1_555
H5 C14 1_555 1_555
C23 C14 1_555 1_555
C24 C15 1_555 1_555
H6 C15 1_555 1_555
H7 C16 1_555 1_555
C25 C16 1_555 1_555
C26 C17 1_555 1_555
H8 C17 1_555 1_555
C27 C18 1_555 1_555
C28 C18 1_555 1_555
C29 C19 1_555 1_555
C30 C19 1_555 1_555
C31 C20 1_555 1_555
C32 C20 1_555 1_555
C33 N1 1_555 1_555
C34 N1 1_555 1_555
C35 N2 1_555 1_555
C36 N2 1_555 1_555
H9 C21 1_555 1_555
C37 C21 1_555 1_555
H10 C22 1_555 1_555
H11 C23 1_555 1_555
C38 C23 1_555 1_555
H12 C24 1_555 1_555
H13 C25 1_555 1_555
C39 C25 1_555 1_555
H14 C26 1_555 1_555
H15 C27 1_555 1_555
C40 C27 1_555 1_555
C41 C28 1_555 1_555
H16 C28 1_555 1_555
H17 C29 1_555 1_555
C42 C29 1_555 1_555
C43 C30 1_555 1_555
H18 C30 1_555 1_555
H19 C31 1_555 1_555
C44 C31 1_555 1_555
C45 C32 1_555 1_555
H20 C32 1_555 1_555
H21 C33 1_555 1_555
H22 C33 1_555 1_555
C46 C33 1_555 1_555
H23 C34 1_555 1_555
H24 C34 1_555 1_555
C47 C34 1_555 1_555
H25 C35 1_555 1_555
H26 C35 1_555 1_555
C48 C35 1_555 1_555
H27 C36 1_555 1_555
H28 C36 1_555 1_555
C49 C36 1_555 1_555
C50 C37 1_555 1_555
C51 C38 1_555 1_555
C52 C39 1_555 1_555
H29 C40 1_555 1_555
C53 C40 1_555 1_555
H30 C41 1_555 1_555
H31 C42 1_555 1_555
C54 C42 1_555 1_555
H32 C43 1_555 1_555
H33 C44 1_555 1_555
C55 C44 1_555 1_555
H34 C45 1_555 1_555
H35 C46 1_555 1_555
H36 C46 1_555 1_555
H37 C46 1_555 1_555
H38 C47 1_555 1_555
H39 C47 1_555 1_555
H40 C47 1_555 1_555
H41 C48 1_555 1_555
H42 C48 1_555 1_555
H43 C48 1_555 1_555
H44 C49 1_555 1_555
H45 C49 1_555 1_555
H46 C49 1_555 1_555
C56 C50 1_555 1_555
C57 C50 1_555 1_555
C58 C51 1_555 1_555
C59 C51 1_555 1_555
C60 C52 1_555 1_555
C61 C52 1_555 1_555
C62 C53 1_555 1_555
C63 C54 1_555 1_555
C64 C55 1_555 1_555
H47 C56 1_555 1_555
C65 C56 1_555 1_555
C66 C57 1_555 1_555
H48 C57 1_555 1_555
H49 C58 1_555 1_555
C67 C58 1_555 1_555
C68 C59 1_555 1_555
H50 C59 1_555 1_555
H51 C60 1_555 1_555
C69 C60 1_555 1_555
C70 C61 1_555 1_555
H52 C61 1_555 1_555
C71 C62 1_555 1_555
C72 C62 1_555 1_555
C73 C63 1_555 1_555
C74 C63 1_555 1_555
C75 C64 1_555 1_555
C76 C64 1_555 1_555
H53 C65 1_555 1_555
C77 C65 1_555 1_555
H54 C66 1_555 1_555
H55 C67 1_555 1_555
C78 C67 1_555 1_555
H56 C68 1_555 1_555
H57 C69 1_555 1_555
C79 C69 1_555 1_555
H58 C70 1_555 1_555
H59 C71 1_555 1_555
C80 C71 1_555 1_555
C81 C72 1_555 1_555
H60 C72 1_555 1_555
H61 C73 1_555 1_555
C82 C73 1_555 1_555
C83 C74 1_555 1_555
H62 C74 1_555 1_555
H63 C75 1_555 1_555
C84 C75 1_555 1_555
C85 C76 1_555 1_555
H64 C76 1_555 1_555
C86 C77 1_555 1_555
C87 C78 1_555 1_555
C88 C79 1_555 1_555
H65 C80 1_555 1_555
C89 C80 1_555 1_555
H66 C81 1_555 1_555
H67 C82 1_555 1_555
C90 C82 1_555 1_555
H68 C83 1_555 1_555
H69 C84 1_555 1_555
C91 C84 1_555 1_555
H70 C85 1_555 1_555
O16 C86 1_555 1_555
H71 C86 1_555 1_555
C92 C86 1_555 1_555
O17 C87 1_555 1_555
H72 C87 1_555 1_555
C93 C87 1_555 1_555
O18 C88 1_555 1_555
H73 C88 1_555 1_555
C94 C88 1_555 1_555
C95 C89 1_555 1_555
C96 C90 1_555 1_555
C97 C91 1_555 1_555
C98 O16 1_555 1_555
O19 C92 1_555 1_555
C99 C92 1_555 1_555
H74 C92 1_555 1_555
C100 O17 1_555 1_555
O20 C93 1_555 1_555
C101 C93 1_555 1_555
H75 C93 1_555 1_555
C102 O18 1_555 1_555
O21 C94 1_555 1_555
C103 C94 1_555 1_555
H76 C94 1_555 1_555
O22 C95 1_555 1_555
H77 C95 1_555 1_555
C104 C95 1_555 1_555
O23 C96 1_555 1_555
H78 C96 1_555 1_555
C105 C96 1_555 1_555
O24 C97 1_555 1_555
H79 C97 1_555 1_555
C106 C97 1_555 1_555
H80 C98 1_555 1_555
H81 C98 1_555 1_555
H82 C98 1_555 1_555
C107 O19 1_555 1_555
C108 C99 1_555 1_555
C109 C99 1_555 1_555
H83 C100 1_555 1_555
H84 C100 1_555 1_555
H85 C100 1_555 1_555
C110 O20 1_555 1_555
C111 C101 1_555 1_555
C112 C101 1_555 1_555
H86 C102 1_555 1_555
H87 C102 1_555 1_555
H88 C102 1_555 1_555
C113 O21 1_555 1_555
C114 C103 1_555 1_555
C115 C103 1_555 1_555
C116 O22 1_555 1_555
O25 C104 1_555 1_555
C117 C104 1_555 1_555
H89 C104 1_555 1_555
C118 O23 1_555 1_555
O26 C105 1_555 1_555
C119 C105 1_555 1_555
H90 C105 1_555 1_555
C120 O24 1_555 1_555
O27 C106 1_555 1_555
C121 C106 1_555 1_555
H91 C106 1_555 1_555
H92 C107 1_555 1_555
H93 C107 1_555 1_555
H94 C107 1_555 1_555
C122 C108 1_555 1_555
H95 C108 1_555 1_555
H96 C109 1_555 1_555
C123 C109 1_555 1_555
H97 C110 1_555 1_555
H98 C110 1_555 1_555
H99 C110 1_555 1_555
C124 C111 1_555 1_555
H100 C111 1_555 1_555
H101 C112 1_555 1_555
C125 C112 1_555 1_555
H102 C113 1_555 1_555
H103 C113 1_555 1_555
H104 C113 1_555 1_555
C126 C114 1_555 1_555
H105 C114 1_555 1_555
H106 C115 1_555 1_555
C127 C115 1_555 1_555
H107 C116 1_555 1_555
H108 C116 1_555 1_555
H109 C116 1_555 1_555
C128 O25 1_555 1_555
C129 C117 1_555 1_555
C130 C117 1_555 1_555
H110 C118 1_555 1_555
H111 C118 1_555 1_555
H112 C118 1_555 1_555
C131 O26 1_555 1_555
C132 C119 1_555 1_555
C133 C119 1_555 1_555
H113 C120 1_555 1_555
H114 C120 1_555 1_555
H115 C120 1_555 1_555
C134 O27 1_555 1_555
C135 C121 1_555 1_555
C136 C121 1_555 1_555
C137 C122 1_555 1_555
H116 C122 1_555 1_555
H117 C123 1_555 1_555
C138 C124 1_555 1_555
H118 C124 1_555 1_555
H119 C125 1_555 1_555
C139 C126 1_555 1_555
H120 C126 1_555 1_555
H121 C127 1_555 1_555
H122 C128 1_555 1_555
H123 C128 1_555 1_555
H124 C128 1_555 1_555
C140 C129 1_555 1_555
H125 C129 1_555 1_555
H126 C130 1_555 1_555
C141 C130 1_555 1_555
H127 C131 1_555 1_555
H128 C131 1_555 1_555
H129 C131 1_555 1_555
C142 C132 1_555 1_555
H130 C132 1_555 1_555
H131 C133 1_555 1_555
C143 C133 1_555 1_555
H132 C134 1_555 1_555
H133 C134 1_555 1_555
H134 C134 1_555 1_555
C144 C135 1_555 1_555
H135 C135 1_555 1_555
H136 C136 1_555 1_555
C145 C136 1_555 1_555
C146 C137 1_555 1_555
C147 C138 1_555 1_555
C148 C139 1_555 1_555
C149 C140 1_555 1_555
H137 C140 1_555 1_555
H138 C141 1_555 1_555
C150 C142 1_555 1_555
H139 C142 1_555 1_555
H140 C143 1_555 1_555
C151 C144 1_555 1_555
H141 C144 1_555 1_555
H142 C145 1_555 1_555
C152 C146 1_555 1_555
C153 C146 1_555 1_555
C154 C147 1_555 1_555
C155 C147 1_555 1_555
C156 C148 1_555 1_555
C157 C148 1_555 1_555
C158 C149 1_555 1_555
C159 C150 1_555 1_555
C160 C151 1_555 1_555
C161 C152 1_555 1_555
H143 C152 1_555 1_555
H144 C153 1_555 1_555
C162 C153 1_555 1_555
C163 C154 1_555 1_555
H145 C154 1_555 1_555
H146 C155 1_555 1_555
C164 C155 1_555 1_555
C165 C156 1_555 1_555
H147 C156 1_555 1_555
H148 C157 1_555 1_555
C166 C157 1_555 1_555
C167 C158 1_555 1_555
C168 C158 1_555 1_555
C169 C159 1_555 1_555
C170 C159 1_555 1_555
C171 C160 1_555 1_555
C172 C160 1_555 1_555
C173 C161 1_555 1_555
H149 C161 1_555 1_555
H150 C162 1_555 1_555
C174 C163 1_555 1_555
H151 C163 1_555 1_555
H152 C164 1_555 1_555
C175 C165 1_555 1_555
H153 C165 1_555 1_555
H154 C166 1_555 1_555
C176 C167 1_555 1_555
H155 C167 1_555 1_555
H156 C168 1_555 1_555
C177 C168 1_555 1_555
C178 C169 1_555 1_555
H157 C169 1_555 1_555
H158 C170 1_555 1_555
C179 C170 1_555 1_555
C180 C171 1_555 1_555
H159 C171 1_555 1_555
H160 C172 1_555 1_555
C181 C172 1_555 1_555
C182 C173 1_555 1_555
C183 C174 1_555 1_555
C184 C175 1_555 1_555
C185 C176 1_555 1_555
H161 C176 1_555 1_555
H162 C177 1_555 1_555
C186 C178 1_555 1_555
H163 C178 1_555 1_555
H164 C179 1_555 1_555
C187 C180 1_555 1_555
H165 C180 1_555 1_555
H166 C181 1_555 1_555
O28 C182 1_555 1_555
O29 C182 1_555 1_555
O30 C183 1_555 1_555
O31 C183 1_555 1_555
O32 C184 1_555 1_555
O33 C184 1_555 1_555
C188 C185 1_555 1_555
C189 C186 1_555 1_555
C190 C187 1_555 1_555
Zn5 O28 1_555 1_555
Zn6 O29 1_555 1_555
Zn7 O30 1_555 1_555
O34 C188 1_555 1_555
O35 C188 1_555 1_555
O36 C189 1_555 1_555
O37 C189 1_555 1_555
O38 C190 1_555 1_555
O39 C190 1_555 1_555
O40 Zn7 1_555 1_555
O41 C191 1_555 1_555
O42 C192 1_555 1_555
Zn8 O34 1_555 1_555
C191 N3 1_555 1_555
C192 N4 1_555 1_555
N3 C193 1_555 1_555
H167 C191 1_555 1_555
N4 C195 1_555 1_555
H168 C192 1_555 1_555
C193 H169 1_555 1_555
C194 N3 1_555 1_555
C195 H173 1_555 1_555
C196 N4 1_555 1_555
H170 C193 1_555 1_555
C197 C193 1_555 1_555
H171 C194 1_555 1_555
H172 C194 1_555 1_555
C198 C194 1_555 1_555
H174 C195 1_555 1_555
C199 C195 1_555 1_555
H175 C196 1_555 1_555
H176 C196 1_555 1_555
C200 C196 1_555 1_555
H177 C197 1_555 1_555
H178 C197 1_555 1_555
H179 C197 1_555 1_555
H180 C198 1_555 1_555
H181 C198 1_555 1_555
H182 C198 1_555 1_555
H183 C199 1_555 1_555
H184 C199 1_555 1_555
H185 C199 1_555 1_555
H186 C200 1_555 1_555
H187 C200 1_555 1_555
H188 C200 1_555 1_555
Zn5_2 O31 1_555 1_555
Zn6_2 O33 1_555 1_555
O35_2 Zn5_2 1_555 1_555
O28_2 Zn5_2 1_555 1_555
O29_2 Zn6_2 1_555 1_555
O38_2 Zn6_2 1_555 1_555
Zn8_2 O37 1_555 1_555
O34_2 Zn8_2 1_555 1_555
O39_2 Zn8_2 1_555 1_555
C1 O8 1_555 1_555
C2 O6 1_555 1_555
C3 O13 1_555 1_555
O11 C9 1_555 1_555
O12 C8 1_555 1_555
C22 C37 1_555 1_555
C24 C38 1_555 1_555
C26 C39 1_555 1_555
C41 C53 1_555 1_555
C43 C54 1_555 1_555
C45 C55 1_555 1_555
C66 C77 1_555 1_555
C68 C78 1_555 1_555
C70 C79 1_555 1_555
C81 C89 1_555 1_555
C83 C90 1_555 1_555
C85 C91 1_555 1_555
C123 C137 1_555 1_555
C125 C138 1_555 1_555
C127 C139 1_555 1_555
C141 C149 1_555 1_555
C143 C150 1_555 1_555
C145 C151 1_555 1_555
C162 C173 1_555 1_555
C164 C174 1_555 1_555
C166 C175 1_555 1_555
C177 C185 1_555 1_555
C179 C186 1_555 1_555
C181 C187 1_555 1_555
O32 Zn7 1_555 1_555
Zn5 O35 1_555 1_555
Zn6 O38 1_555 1_555
Zn7 O36 1_555 1_555
O39 Zn8 1_555 1_555
O40 Zn5_2 1_555 1_555
O40 Zn6_2 1_555 1_555
O40 Zn8_2 1_555 1_555
O41 Zn6_2 1_555 1_555
O42 Zn6_2 1_555 1_555

#END
