
#######################################################################
#
#                 Cambridge Crystallographic Data Centre
#                                CCDC 
#
#######################################################################
#
# If this CIF has been generated from an entry in the Cambridge 
# Structural Database, then it will include bibliographic, chemical, 
# crystal, experimental, refinement or atomic coordinate data resulting 
# from the CCDC's data processing and validation procedures.
#
#######################################################################

data_MIQRIP
_symmetry_cell_setting           orthorhombic
_symmetry_space_group_name_H-M   'P b c a'
_symmetry_Int_Tables_number      61
_space_group_name_Hall           '-P 2ac 2ab'
loop_
_symmetry_equiv_pos_site_id
_symmetry_equiv_pos_as_xyz
1 x,y,z
2 1/2-x,-y,1/2+z
3 -x,1/2+y,1/2-z
4 1/2+x,1/2-y,-z
5 -x,-y,-z
6 1/2+x,y,1/2-z
7 x,1/2-y,1/2+z
8 1/2-x,1/2+y,z
_cell_length_a                   9.1591(6)
_cell_length_b                   21.9836(12)
_cell_length_c                   36.153(2)
_cell_angle_alpha                90
_cell_angle_beta                 90
_cell_angle_gamma                90
_cell_volume                     7279.41
loop_
_atom_site_label
_atom_site_type_symbol
_atom_site_fract_x
_atom_site_fract_y
_atom_site_fract_z
W1 W 0.30049(7) 0.31525(2) 0.112465(16)
Mn1 Mn 0.2329(3) 0.06675(10) 0.14116(6)
C1 C 0.2752(15) 0.2220(5) 0.1311(4)
C2 C 0.4086(18) 0.2564(7) 0.0747(4)
C3 C 0.4380(17) 0.3098(8) 0.1607(5)
C4 C 0.508(2) 0.3518(8) 0.1001(5)
C5 C 0.275(2) 0.3666(9) 0.0626(5)
C6 C 0.296(2) 0.4098(7) 0.1305(4)
C7 C 0.093(2) 0.2631(7) 0.0495(6)
H1 H 0.1809 0.2631 0.0355
C8 C -0.028(3) 0.2447(9) 0.0327(7)
H2 H -0.0264 0.2312 0.0078
C9 C -0.155(3) 0.2455(10) 0.0520(7)
H3 H -0.2433 0.2341 0.0403
C10 C -0.155(2) 0.2628(8) 0.0886(7)
H4 H -0.2435 0.2616 0.1025
C11 C -0.029(2) 0.2818(7) 0.1047(6)
C12 C -0.016(2) 0.3016(6) 0.1432(6)
C13 C -0.132(2) 0.3000(7) 0.1667(7)
H5 H -0.2260 0.2876 0.1584
C14 C -0.109(3) 0.3173(9) 0.2031(6)
H6 H -0.1864 0.3169 0.2205
C15 C 0.027(2) 0.3349(7) 0.2135(6)
H7 H 0.0448 0.3469 0.2383
C16 C 0.1382(19) 0.3353(6) 0.1886(5)
H8 H 0.2327 0.3468 0.1968
C17 C 0.155(3) 0.0607(12) -0.0045(8)
H9 H 0.1485 0.0162 -0.0081
H10 H 0.1059 0.0803 -0.0259
C18 C 0.308(3) 0.0787(10) -0.0043(5)
H11 H 0.3145 0.1236 -0.0051
H12 H 0.3558 0.0628 -0.0270
C19 C 0.392(2) 0.0562(8) 0.0290(5)
H13 H 0.4902 0.0750 0.0295
H14 H 0.4042 0.0115 0.0276
C20 C 0.308(2) 0.0730(8) 0.0639(4)
H15 H 0.3061 0.1185 0.0645
C21 C 0.499(2) 0.0263(7) 0.1024(5)
H16 H 0.5524 0.0170 0.0805
C22 C 0.559(2) 0.0066(7) 0.1374(5)
C23 C 0.693(2) -0.0268(7) 0.1363(5)
H17 H 0.7362 -0.0363 0.1131
C24 C 0.7578(19) -0.0449(6) 0.1675(5)
H18 H 0.8421 -0.0700 0.1661
C25 C 0.705(2) -0.0280(7) 0.2016(6)
C26 C 0.718(2) -0.0306(8) 0.2672(5)
H19 H 0.7033 0.0136 0.2682
H20 H 0.7854 -0.0429 0.2868
H21 H 0.6237 -0.0511 0.2708
C27 C 0.5767(18) 0.0053(6) 0.2041(5)
H22 H 0.5386 0.0155 0.2277
C28 C 0.503(2) 0.0240(7) 0.1722(5)
C29 C -0.037(2) 0.1054(6) 0.1730(5)
C30 C -0.1071(19) 0.1264(8) 0.2053(5)
H23 H -0.0618 0.1213 0.2287
C31 C -0.243(2) 0.1549(7) 0.2029(6)
C32 C -0.242(2) 0.1806(9) 0.2677(5)
H24 H -0.2283 0.1389 0.2767
H25 H -0.3036 0.2031 0.2853
H26 H -0.1474 0.2007 0.2655
C33 C -0.313(2) 0.1591(8) 0.1682(7)
H27 H -0.4073 0.1771 0.1667
C34 C -0.251(2) 0.1388(8) 0.1375(6)
H28 H -0.3010 0.1420 0.1146
C35 C -0.106(2) 0.1118(7) 0.1385(5)
C36 C -0.038(2) 0.0940(7) 0.1052(6)
H29 H -0.0957 0.0960 0.0835
C37 C 0.151(3) 0.0535(8) 0.0639(6)
H30 H 0.1468 0.0080 0.0634
C38 C 0.073(2) 0.0774(10) 0.0301(7)
H31 H -0.0266 0.0602 0.0290
H32 H 0.0649 0.1222 0.0318
N1 N 0.2632(13) 0.1726(4) 0.1388(3)
N2 N 0.4707(16) 0.2235(7) 0.0558(4)
N3 N 0.5022(17) 0.3075(7) 0.1871(4)
N4 N 0.6216(18) 0.3716(7) 0.0928(4)
N5 N 0.2626(19) 0.3928(7) 0.0357(5)
N6 N 0.2914(17) 0.4610(6) 0.1384(4)
N7 N 0.1213(15) 0.3206(5) 0.1537(3)
N8 N 0.0997(16) 0.2815(5) 0.0846(4)
N9 N 0.1008(15) 0.0746(5) 0.1010(4)
N10 N 0.3845(16) 0.0542(7) 0.0992(4)
O1 O 0.3832(11) 0.0578(5) 0.1758(3)
O2 O 0.0922(11) 0.0766(4) 0.1772(3)
O3 O 0.7762(14) -0.0470(5) 0.2323(4)
O4 O -0.3115(14) 0.1791(6) 0.2329(4)
Mn1G Mn 0.2671(3) 0.56675(10) 0.14116(6)
N6G N 0.2086(17) -0.0390(6) 0.1384(4)
loop_
_geom_bond_atom_site_label_1
_geom_bond_atom_site_label_2
_geom_bond_site_symmetry_1
_geom_bond_site_symmetry_2
W1 C1 1_555 1_555
Mn1 N1 1_555 1_555
C1 N1 1_555 1_555
C2 W1 1_555 1_555
C3 W1 1_555 1_555
C4 W1 1_555 1_555
C5 W1 1_555 1_555
C6 W1 1_555 1_555
C7 H1 1_555 1_555
C8 C7 1_555 1_555
H2 C8 1_555 1_555
C9 C8 1_555 1_555
H3 C9 1_555 1_555
C10 C9 1_555 1_555
H4 C10 1_555 1_555
C11 C10 1_555 1_555
C12 C11 1_555 1_555
C13 C12 1_555 1_555
H5 C13 1_555 1_555
C14 C13 1_555 1_555
H6 C14 1_555 1_555
C15 C14 1_555 1_555
H7 C15 1_555 1_555
C16 C15 1_555 1_555
H8 C16 1_555 1_555
C17 H9 1_555 1_555
H10 C17 1_555 1_555
C18 C17 1_555 1_555
H11 C18 1_555 1_555
H12 C18 1_555 1_555
C19 C18 1_555 1_555
H13 C19 1_555 1_555
H14 C19 1_555 1_555
C20 C19 1_555 1_555
H15 C20 1_555 1_555
C21 H16 1_555 1_555
C22 C21 1_555 1_555
C23 C22 1_555 1_555
H17 C23 1_555 1_555
C24 C23 1_555 1_555
H18 C24 1_555 1_555
C25 C24 1_555 1_555
C26 H19 1_555 1_555
H20 C26 1_555 1_555
H21 C26 1_555 1_555
C27 C25 1_555 1_555
H22 C27 1_555 1_555
C28 C22 1_555 1_555
C29 C30 1_555 1_555
C30 H23 1_555 1_555
C31 C30 1_555 1_555
C32 H24 1_555 1_555
H25 C32 1_555 1_555
H26 C32 1_555 1_555
C33 C31 1_555 1_555
H27 C33 1_555 1_555
C34 C33 1_555 1_555
H28 C34 1_555 1_555
C35 C29 1_555 1_555
C36 C35 1_555 1_555
H29 C36 1_555 1_555
C37 C20 1_555 1_555
H30 C37 1_555 1_555
C38 C17 1_555 1_555
H31 C38 1_555 1_555
H32 C38 1_555 1_555
N2 C2 1_555 1_555
N3 C3 1_555 1_555
N4 C4 1_555 1_555
N5 C5 1_555 1_555
N6 C6 1_555 1_555
N7 W1 1_555 1_555
N8 W1 1_555 1_555
N9 Mn1 1_555 1_555
N10 Mn1 1_555 1_555
O1 Mn1 1_555 1_555
O2 Mn1 1_555 1_555
O3 C25 1_555 1_555
O4 C31 1_555 1_555
Mn1G N6 1_555 1_555
N6G Mn1 1_555 1_555
C7 N8 1_555 1_555
C11 N8 1_555 1_555
C12 N7 1_555 1_555
C16 N7 1_555 1_555
C20 N10 1_555 1_555
C21 N10 1_555 1_555
C26 O3 1_555 1_555
C27 C28 1_555 1_555
C28 O1 1_555 1_555
C29 O2 1_555 1_555
C32 O4 1_555 1_555
C34 C35 1_555 1_555
C36 N9 1_555 1_555
C37 C38 1_555 1_555
C37 N9 1_555 1_555

#END
