
#######################################################################
#
#                 Cambridge Crystallographic Data Centre
#                                CCDC 
#
#######################################################################
#
# If this CIF has been generated from an entry in the Cambridge 
# Structural Database, then it will include bibliographic, chemical, 
# crystal, experimental, refinement or atomic coordinate data resulting 
# from the CCDC's data processing and validation procedures.
#
#######################################################################

data_MIQREL
_symmetry_cell_setting           monoclinic
_symmetry_space_group_name_H-M   'P 21/n'
_symmetry_Int_Tables_number      14
_space_group_name_Hall           '-P 2yn'
loop_
_symmetry_equiv_pos_site_id
_symmetry_equiv_pos_as_xyz
1 x,y,z
2 1/2-x,1/2+y,1/2-z
3 -x,-y,-z
4 1/2+x,1/2-y,1/2+z
_cell_length_a                   9.2036(2)
_cell_length_b                   21.1875(5)
_cell_length_c                   18.0645(4)
_cell_angle_alpha                90
_cell_angle_beta                 92.8530(10)
_cell_angle_gamma                90
_cell_volume                     3518.23
loop_
_atom_site_label
_atom_site_type_symbol
_atom_site_fract_x
_atom_site_fract_y
_atom_site_fract_z
W1 W 0.84022(3) 0.189211(11) 0.356517(11)
Mn1 Mn 0.72175(11) 0.44600(4) 0.27431(4)
C1 C 0.8121(7) 0.2885(3) 0.3309(3)
C2 C 0.9741(7) 0.2122(3) 0.2652(3)
C3 C 0.9622(7) 0.2344(3) 0.4448(3)
C4 C 1.0478(8) 0.1428(3) 0.3805(3)
C5 C 0.7899(7) 0.1161(3) 0.4337(3)
C6 C 0.8441(6) 0.1019(3) 0.2956(3)
C7 C 0.6614(7) 0.2363(3) 0.4935(3)
H1 H 0.7514 0.2345 0.5192
C8 C 0.5437(8) 0.2537(3) 0.5307(3)
H2 H 0.5538 0.2641 0.5807
C9 C 0.4091(8) 0.2559(3) 0.4940(3)
H3 H 0.3275 0.2683 0.5186
C10 C 0.3971(7) 0.2392(3) 0.4201(3)
H4 H 0.3068 0.2388 0.3946
C11 C 0.5203(7) 0.2234(3) 0.3849(3)
C12 C 0.5190(7) 0.2082(3) 0.3053(3)
C13 C 0.3931(7) 0.2104(3) 0.2594(3)
H5 H 0.3040 0.2194 0.2791
C14 C 0.4013(8) 0.1992(3) 0.1855(3)
H6 H 0.3178 0.1999 0.1543
C15 C 0.5347(8) 0.1867(3) 0.1576(3)
H7 H 0.5429 0.1806 0.1070
C16 C 0.6564(7) 0.1833(3) 0.2055(3)
H8 H 0.7462 0.1739 0.1868
C17 C 0.7968(11) 0.3581(5) 0.1208(5)
H9 H 0.9003 0.3528 0.1202
H10 H 0.7516 0.3401 0.0766
H11 H 0.7612 0.3373 0.1634
C18 C 0.7632(10) 0.4234(4) 0.1238(5)
H12 H 0.7949 0.4437 0.0786
C19 C 0.6041(10) 0.4268(4) 0.1241(4)
H13 H 0.5598 0.3956 0.0909
H14 H 0.5700 0.4684 0.1087
C20 C 0.4393(8) 0.3928(3) 0.2190(3)
C21 C 0.3370(8) 0.3693(4) 0.1571(3)
H15 H 0.3842 0.3716 0.1110
H16 H 0.2510 0.3950 0.1543
H17 H 0.3108 0.3263 0.1666
C22 C 0.3871(7) 0.3936(3) 0.2939(3)
C23 C 0.2490(8) 0.3696(3) 0.3090(3)
H18 H 0.1934 0.3515 0.2702
C24 C 0.1915(7) 0.3716(3) 0.3779(4)
H19 H 0.0989 0.3558 0.3849
C25 C 0.2753(8) 0.3979(3) 0.4375(3)
C26 C 0.3015(7) 0.4200(3) 0.5657(3)
H20 H 0.2474 0.4174 0.6096
H21 H 0.3276 0.4631 0.5570
H22 H 0.3880 0.3949 0.5719
C27 C 0.4093(7) 0.4217(3) 0.4245(3)
H23 H 0.4643 0.4394 0.4638
C28 C 0.4669(7) 0.4206(3) 0.3547(3)
C29 C 0.9934(7) 0.5045(3) 0.3199(3)
C30 C 1.0732(7) 0.5311(3) 0.3797(3)
H24 H 1.0362 0.5290 0.4266
C31 C 1.2033(8) 0.5600(3) 0.3716(4)
C32 C 1.2185(8) 0.5972(3) 0.4961(4)
H25 H 1.2850 0.6187 0.5300
H26 H 1.1972 0.5562 0.5153
H27 H 1.1301 0.6211 0.4899
C33 C 1.2598(8) 0.5626(3) 0.3018(4)
H28 H 1.3491 0.5820 0.2954
C34 C 1.1845(8) 0.5370(3) 0.2431(4)
H29 H 1.2255 0.5391 0.1971
C35 C 1.0488(8) 0.5076(3) 0.2469(3)
C36 C 0.9684(8) 0.4805(3) 0.1840(3)
C37 C 1.0355(8) 0.4868(4) 0.1082(3)
H30 H 0.9723 0.4675 0.0708
H31 H 1.1285 0.4661 0.1097
H32 H 1.0478 0.5306 0.0967
N1 N 0.7885(6) 0.3391(3) 0.3130(2)
N2 N 1.0411(6) 0.2255(3) 0.2171(3)
N3 N 1.0284(6) 0.2580(3) 0.4930(2)
N4 N 1.1543(7) 0.1179(3) 0.3934(3)
N5 N 0.7615(7) 0.0786(3) 0.4765(3)
N6 N 0.8408(6) 0.0549(2) 0.2634(2)
N7 N 0.6540(5) 0.2216(2) 0.4209(2)
N8 N 0.6474(5) 0.1934(2) 0.2788(2)
N9 N 0.5666(6) 0.4134(3) 0.2049(2)
N10 N 0.8472(7) 0.4509(3) 0.1886(2)
O1 O 0.5948(5) 0.44791(19) 0.35018(18)
O2 O 0.8720(5) 0.47581(19) 0.33652(18)
O3 O 1.2826(5) 0.5906(2) 0.4262(3)
O4 O 0.2148(5) 0.3971(2) 0.5042(2)
Mn1A Mn 0.77825(11) -0.05400(4) 0.22569(4)
N6A N 0.6592(6) 0.5549(2) 0.2366(2)
loop_
_geom_bond_atom_site_label_1
_geom_bond_atom_site_label_2
_geom_bond_site_symmetry_1
_geom_bond_site_symmetry_2
W1 C1 1_555 1_555
Mn1 N1 1_555 1_555
C1 N1 1_555 1_555
C2 W1 1_555 1_555
C3 W1 1_555 1_555
C4 W1 1_555 1_555
C5 W1 1_555 1_555
C6 W1 1_555 1_555
C7 H1 1_555 1_555
C8 C7 1_555 1_555
H2 C8 1_555 1_555
C9 C8 1_555 1_555
H3 C9 1_555 1_555
C10 C9 1_555 1_555
H4 C10 1_555 1_555
C11 C10 1_555 1_555
C12 C11 1_555 1_555
C13 C12 1_555 1_555
H5 C13 1_555 1_555
C14 C13 1_555 1_555
H6 C14 1_555 1_555
C15 C14 1_555 1_555
H7 C15 1_555 1_555
C16 C15 1_555 1_555
H8 C16 1_555 1_555
C17 H9 1_555 1_555
H10 C17 1_555 1_555
H11 C17 1_555 1_555
C18 C17 1_555 1_555
H12 C18 1_555 1_555
C19 C18 1_555 1_555
H13 C19 1_555 1_555
H14 C19 1_555 1_555
C20 C21 1_555 1_555
C21 H15 1_555 1_555
H16 C21 1_555 1_555
H17 C21 1_555 1_555
C22 C20 1_555 1_555
C23 C22 1_555 1_555
H18 C23 1_555 1_555
C24 C23 1_555 1_555
H19 C24 1_555 1_555
C25 C24 1_555 1_555
C26 H20 1_555 1_555
H21 C26 1_555 1_555
H22 C26 1_555 1_555
C27 C25 1_555 1_555
H23 C27 1_555 1_555
C28 C22 1_555 1_555
C29 C30 1_555 1_555
C30 H24 1_555 1_555
C31 C30 1_555 1_555
C32 H25 1_555 1_555
H26 C32 1_555 1_555
H27 C32 1_555 1_555
C33 C31 1_555 1_555
H28 C33 1_555 1_555
C34 C33 1_555 1_555
H29 C34 1_555 1_555
C35 C29 1_555 1_555
C36 C35 1_555 1_555
C37 C36 1_555 1_555
H30 C37 1_555 1_555
H31 C37 1_555 1_555
H32 C37 1_555 1_555
N2 C2 1_555 1_555
N3 C3 1_555 1_555
N4 C4 1_555 1_555
N5 C5 1_555 1_555
N6 C6 1_555 1_555
N7 W1 1_555 1_555
N8 W1 1_555 1_555
N9 Mn1 1_555 1_555
N10 Mn1 1_555 1_555
O1 Mn1 1_555 1_555
O2 Mn1 1_555 1_555
O3 C31 1_555 1_555
O4 C25 1_555 1_555
Mn1A N6 1_555 1_555
N6A Mn1 1_555 1_555
C7 N7 1_555 1_555
C11 N7 1_555 1_555
C12 N8 1_555 1_555
C16 N8 1_555 1_555
C18 N10 1_555 1_555
C19 N9 1_555 1_555
C20 N9 1_555 1_555
C26 O4 1_555 1_555
C27 C28 1_555 1_555
C28 O1 1_555 1_555
C29 O2 1_555 1_555
C32 O3 1_555 1_555
C34 C35 1_555 1_555
C36 N10 1_555 1_555

#END
