
#######################################################################
#
#                 Cambridge Crystallographic Data Centre
#                                CCDC 
#
#######################################################################
#
# If this CIF has been generated from an entry in the Cambridge 
# Structural Database, then it will include bibliographic, chemical, 
# crystal, experimental, refinement or atomic coordinate data resulting 
# from the CCDC's data processing and validation procedures.
#
#######################################################################

data_MIQROV
_symmetry_cell_setting           orthorhombic
_symmetry_space_group_name_H-M   'P b c n'
_symmetry_Int_Tables_number      60
_space_group_name_Hall           '-P 2n 2ab'
loop_
_symmetry_equiv_pos_site_id
_symmetry_equiv_pos_as_xyz
1 x,y,z
2 1/2-x,1/2-y,1/2+z
3 -x,y,1/2-z
4 1/2+x,1/2-y,-z
5 -x,-y,-z
6 1/2+x,1/2+y,1/2-z
7 x,-y,1/2+z
8 1/2-x,1/2+y,z
_cell_length_a                   34.516(5)
_cell_length_b                   9.1596(14)
_cell_length_c                   21.727(4)
_cell_angle_alpha                90
_cell_angle_beta                 90
_cell_angle_gamma                90
_cell_volume                     6869.05
loop_
_atom_site_label
_atom_site_type_symbol
_atom_site_fract_x
_atom_site_fract_y
_atom_site_fract_z
W1 W 0.395232(12) 1.05451(6) 1.03049(2)
Mn1 Mn 0.36354(4) 0.9690(3) 0.78121(9)
C1 C 0.3753(3) 1.0362(15) 0.9367(6)
C2 C 0.4363(3) 1.1623(16) 0.9720(6)
C3 C 0.3459(4) 1.1971(16) 1.0230(5)
C4 C 0.4129(4) 1.2576(18) 1.0691(6)
C5 C 0.3745(3) 1.0631(17) 1.1247(6)
C6 C 0.4438(3) 1.0032(14) 1.0892(5)
C7 C 0.3147(4) 0.9009(16) 1.0537(5)
H1 H 0.3075 0.9932 1.0673
C8 C 0.2880(4) 0.792(2) 1.0531(7)
H2 H 0.2628 0.8102 1.0660
C9 C 0.2982(5) 0.656(2) 1.0334(7)
H3 H 0.2798 0.5822 1.0324
C10 C 0.3359(4) 0.6283(18) 1.0148(6)
H4 H 0.3433 0.5359 1.0016
C11 C 0.3618(4) 0.7415(16) 1.0166(5)
C12 C 0.4022(4) 0.7283(18) 0.9934(5)
C13 C 0.4168(4) 0.5970(19) 0.9752(7)
H5 H 0.4022 0.5119 0.9774
C14 C 0.4544(5) 0.597(2) 0.9532(7)
H6 H 0.4657 0.5087 0.9415
C15 C 0.4745(4) 0.719(2) 0.9486(6)
H7 H 0.4992 0.7174 0.9316
C16 C 0.4590(3) 0.8487(17) 0.9688(6)
H8 H 0.4736 0.9337 0.9659
C17 C 0.4458(3) 1.031(2) 0.7806(7)
H9 H 0.4515 1.0450 0.8239
H10 H 0.4663 1.0759 0.7566
C18 C 0.4431(4) 0.868(2) 0.7658(7)
H11 H 0.4457 0.8516 0.7219
H12 H 0.4634 0.8141 0.7869
C19 C 0.4003(4) 0.6865(19) 0.8066(5)
H13 H 0.4220 0.6264 0.8061
C20 C 0.3646(4) 0.6267(19) 0.8282(6)
C21 C 0.3636(4) 0.4842(19) 0.8535(6)
H14 H 0.3866 0.4312 0.8550
C22 C 0.3311(4) 0.4213(19) 0.8754(6)
H15 H 0.3316 0.3275 0.8917
C23 C 0.2969(5) 0.4993(18) 0.8730(6)
C24 C 0.2288(3) 0.5065(15) 0.8983(6)
H16 H 0.2313 0.5949 0.9218
H17 H 0.2093 0.4455 0.9167
H18 H 0.2214 0.5298 0.8569
C25 C 0.2951(4) 0.6328(17) 0.8468(5)
H19 H 0.2712 0.6799 0.8444
C26 C 0.3290(4) 0.7049(18) 0.8223(5)
C27 C 0.3333(4) 1.2432(18) 0.7381(5)
C28 C 0.3003(4) 1.3228(19) 0.7222(6)
H20 H 0.2761 1.2907 0.7350
C29 C 0.3034(4) 1.448(2) 0.6878(6)
C30 C 0.2347(3) 1.4717(17) 0.6880(6)
H21 H 0.2309 1.3766 0.6705
H22 H 0.2148 1.5365 0.6735
H23 H 0.2335 1.4652 0.7321
C31 C 0.3402(4) 1.502(2) 0.6686(6)
H24 H 0.3422 1.5875 0.6458
C32 C 0.3723(4) 1.424(2) 0.6848(6)
H25 H 0.3965 1.4568 0.6723
C33 C 0.3697(4) 1.2939(18) 0.7205(6)
C34 C 0.4058(3) 1.2168(18) 0.7365(6)
H26 H 0.4290 1.2602 0.7245
N1 N 0.3676(3) 1.0137(12) 0.8865(5)
N2 N 0.4568(3) 1.2236(15) 0.9399(5)
N3 N 0.3188(3) 1.2722(13) 1.0229(5)
N4 N 0.4248(3) 1.3644(15) 1.0912(5)
N5 N 0.3632(3) 1.0664(14) 1.1725(5)
N6 N 0.4689(3) 0.9770(16) 1.1207(5)
N7 N 0.3517(2) 0.8781(11) 1.0350(4)
N8 N 0.4225(3) 0.8552(13) 0.9931(4)
N9 N 0.4040(3) 0.8199(15) 0.7877(5)
N10 N 0.4080(3) 1.0970(14) 0.7650(5)
O1 O 0.3249(2) 0.8304(11) 0.7963(4)
O2 O 0.3287(2) 1.1240(10) 0.7717(4)
O3 O 0.2651(3) 0.4309(12) 0.8979(4)
O4 O 0.2724(3) 1.5277(12) 0.6697(4)
Mn1F Mn 0.36354(4) 1.0310(3) 1.28121(9)
N5F N 0.3632(3) 0.9336(14) 0.6725(5)
O5 O 0.5000 0.462(4) 0.2500
O6 O 0.4797(4) 0.6080(17) 0.1414(6)
loop_
_geom_bond_atom_site_label_1
_geom_bond_atom_site_label_2
_geom_bond_site_symmetry_1
_geom_bond_site_symmetry_2
W1 C1 1_555 1_555
Mn1 N1 1_555 1_555
C1 N1 1_555 1_555
C2 W1 1_555 1_555
C3 W1 1_555 1_555
C4 W1 1_555 1_555
C5 W1 1_555 1_555
C6 W1 1_555 1_555
C7 H1 1_555 1_555
C8 C7 1_555 1_555
H2 C8 1_555 1_555
C9 C8 1_555 1_555
H3 C9 1_555 1_555
C10 C9 1_555 1_555
H4 C10 1_555 1_555
C11 C10 1_555 1_555
C12 C11 1_555 1_555
C13 C12 1_555 1_555
H5 C13 1_555 1_555
C14 C13 1_555 1_555
H6 C14 1_555 1_555
C15 C14 1_555 1_555
H7 C15 1_555 1_555
C16 C15 1_555 1_555
H8 C16 1_555 1_555
C17 H9 1_555 1_555
H10 C17 1_555 1_555
C18 C17 1_555 1_555
H11 C18 1_555 1_555
H12 C18 1_555 1_555
C19 H13 1_555 1_555
C20 C19 1_555 1_555
C21 C20 1_555 1_555
H14 C21 1_555 1_555
C22 C21 1_555 1_555
H15 C22 1_555 1_555
C23 C22 1_555 1_555
C24 H16 1_555 1_555
H17 C24 1_555 1_555
H18 C24 1_555 1_555
C25 C23 1_555 1_555
H19 C25 1_555 1_555
C26 C20 1_555 1_555
C27 C28 1_555 1_555
C28 H20 1_555 1_555
C29 C28 1_555 1_555
C30 H21 1_555 1_555
H22 C30 1_555 1_555
H23 C30 1_555 1_555
C31 C29 1_555 1_555
H24 C31 1_555 1_555
C32 C31 1_555 1_555
H25 C32 1_555 1_555
C33 C27 1_555 1_555
C34 C33 1_555 1_555
H26 C34 1_555 1_555
N2 C2 1_555 1_555
N3 C3 1_555 1_555
N4 C4 1_555 1_555
N5 C5 1_555 1_555
N6 C6 1_555 1_555
N7 W1 1_555 1_555
N8 W1 1_555 1_555
N9 Mn1 1_555 1_555
N10 Mn1 1_555 1_555
O1 Mn1 1_555 1_555
O2 Mn1 1_555 1_555
O3 C23 1_555 1_555
O4 C29 1_555 1_555
Mn1F N5 1_555 1_555
N5F Mn1 1_555 1_555
C7 N7 1_555 1_555
C11 N7 1_555 1_555
C12 N8 1_555 1_555
C16 N8 1_555 1_555
C17 N10 1_555 1_555
C18 N9 1_555 1_555
C19 N9 1_555 1_555
C24 O3 1_555 1_555
C25 C26 1_555 1_555
C26 O1 1_555 1_555
C27 O2 1_555 1_555
C30 O4 1_555 1_555
C32 C33 1_555 1_555
C34 N10 1_555 1_555

#END
