
#######################################################################
#
#                 Cambridge Crystallographic Data Centre
#                                CCDC 
#
#######################################################################
#
# If this CIF has been generated from an entry in the Cambridge 
# Structural Database, then it will include bibliographic, chemical, 
# crystal, experimental, refinement or atomic coordinate data resulting 
# from the CCDC's data processing and validation procedures.
#
#######################################################################

data_MIQTOX
_symmetry_cell_setting           orthorhombic
_symmetry_space_group_name_H-M   'P 21 21 21'
_symmetry_Int_Tables_number      19
_space_group_name_Hall           'P 2ac 2ab'
loop_
_symmetry_equiv_pos_site_id
_symmetry_equiv_pos_as_xyz
1 x,y,z
2 1/2-x,-y,1/2+z
3 -x,1/2+y,1/2-z
4 1/2+x,1/2-y,-z
_cell_length_a                   7.125(4)
_cell_length_b                   8.357(5)
_cell_length_c                   26.601(16)
_cell_angle_alpha                90
_cell_angle_beta                 90
_cell_angle_gamma                90
_cell_volume                     1583.92
loop_
_atom_site_label
_atom_site_type_symbol
_atom_site_fract_x
_atom_site_fract_y
_atom_site_fract_z
Zn1 Zn 0.28063(4) 0.04326(3) 0.002337(13)
O1 O 0.0824(3) 0.2313(2) 0.00521(9)
O2 O -0.0963(3) 0.3693(2) 0.05881(8)
N1 N 0.1256(3) -0.1431(3) -0.02386(9)
N2 N 0.1018(4) -0.1926(3) -0.07170(9)
N3 N 0.0281(4) -0.3354(3) -0.07078(10)
N4 N 0.0033(3) -0.3820(3) -0.02219(9)
N5 N 0.1823(3) 0.0269(3) 0.07837(8)
H1 H 0.2782 -0.0064 0.0984
N6 N 0.5605(5) 0.0792(5) 0.21122(14)
H2 H 0.6548 0.0257 0.2224
C1 C 0.0660(3) -0.2609(3) 0.00557(13)
C2 C 0.0670(5) -0.2535(4) 0.06203(11)
H3 H 0.1894 -0.2868 0.0741
H4 H -0.0249 -0.3286 0.0749
C3 C 0.0237(4) -0.0879(4) 0.08293(11)
H5 H -0.0842 -0.0447 0.0653
H6 H -0.0099 -0.0981 0.1181
C4 C 0.1249(4) 0.1887(3) 0.09389(11)
H7 H 0.0343 0.1804 0.1215
C5 C 0.0305(4) 0.2686(3) 0.04891(12)
C6 C 0.2956(5) 0.2864(4) 0.11161(11)
H8 H 0.3898 0.2879 0.0853
H9 H 0.2574 0.3959 0.1181
C7 C 0.3782(5) 0.2165(4) 0.15833(13)
C8 C 0.5408(6) 0.1315(5) 0.16323(16)
H10 H 0.6258 0.1123 0.1374
C9 C 0.2920(6) 0.2142(4) 0.20637(12)
C10 C 0.1275(7) 0.2743(5) 0.22638(14)
H11 H 0.0471 0.3329 0.2059
C11 C 0.0795(9) 0.2491(7) 0.27668(17)
H12 H -0.0312 0.2905 0.2898
C12 C 0.2008(8) 0.1609(7) 0.30653(18)
H13 H 0.1676 0.1430 0.3399
C13 C 0.3660(8) 0.0991(6) 0.28966(18)
H14 H 0.4465 0.0429 0.3108
C14 C 0.4084(7) 0.1241(5) 0.23921(15)
Zn1C Zn -0.21937(4) -0.54326(3) -0.002337(13)
Zn1C_2 Zn -0.21937(4) 0.45674(3) -0.002337(13)
O2C O 0.4037(3) 0.1307(2) -0.05881(8)
N4C N 0.5033(3) -0.1180(3) 0.02219(9)
loop_
_geom_bond_atom_site_label_1
_geom_bond_atom_site_label_2
_geom_bond_site_symmetry_1
_geom_bond_site_symmetry_2
Zn1 O1 1_555 1_555
O1 C5 1_555 1_555
O2 C5 1_555 1_555
N1 Zn1 1_555 1_555
N2 N1 1_555 1_555
N3 N2 1_555 1_555
N4 N3 1_555 1_555
N5 Zn1 1_555 1_555
H1 N5 1_555 1_555
N6 H2 1_555 1_555
C1 N1 1_555 1_555
C2 C1 1_555 1_555
H3 C2 1_555 1_555
H4 C2 1_555 1_555
C3 N5 1_555 1_555
H5 C3 1_555 1_555
H6 C3 1_555 1_555
C4 N5 1_555 1_555
H7 C4 1_555 1_555
C5 C4 1_555 1_555
C6 C4 1_555 1_555
H8 C6 1_555 1_555
H9 C6 1_555 1_555
C7 C6 1_555 1_555
C8 N6 1_555 1_555
H10 C8 1_555 1_555
C9 C7 1_555 1_555
C10 C9 1_555 1_555
H11 C10 1_555 1_555
C11 C10 1_555 1_555
H12 C11 1_555 1_555
C12 C11 1_555 1_555
H13 C12 1_555 1_555
C13 C12 1_555 1_555
H14 C13 1_555 1_555
C14 N6 1_555 1_555
Zn1C N4 1_555 1_555
Zn1C_2 O2 1_555 1_555
O2C Zn1 1_555 1_555
N4C Zn1 1_555 1_555
N4 C1 1_555 1_555
C2 C3 1_555 1_555
C7 C8 1_555 1_555
C9 C14 1_555 1_555
C13 C14 1_555 1_555

#END
