
#######################################################################
#
#                 Cambridge Crystallographic Data Centre
#                                CCDC 
#
#######################################################################
#
# If this CIF has been generated from an entry in the Cambridge 
# Structural Database, then it will include bibliographic, chemical, 
# crystal, experimental, refinement or atomic coordinate data resulting 
# from the CCDC's data processing and validation procedures.
#
#######################################################################

data_MIQWIU
_symmetry_cell_setting           monoclinic
_symmetry_space_group_name_H-M   'C 2/c'
_symmetry_Int_Tables_number      15
_space_group_name_Hall           '-C 2yn'
loop_
_symmetry_equiv_pos_site_id
_symmetry_equiv_pos_as_xyz
1 x,y,z
2 -x,y,1/2-z
3 1/2+x,1/2+y,z
4 1/2-x,1/2+y,1/2-z
5 -x,-y,-z
6 x,-y,1/2+z
7 1/2-x,1/2-y,-z
8 1/2+x,1/2-y,1/2+z
_cell_length_a                   26.455(12)
_cell_length_b                   7.444(3)
_cell_length_c                   28.352(12)
_cell_angle_alpha                90
_cell_angle_beta                 97.915(9)
_cell_angle_gamma                90
_cell_volume                     5530.2
loop_
_atom_site_label
_atom_site_type_symbol
_atom_site_fract_x
_atom_site_fract_y
_atom_site_fract_z
La1 La 0.0000 0.26740(19) 0.2500
O1 O 0.0814(4) 0.1482(18) 0.2964(4)
O2 O 0.0670(4) 0.3933(19) 0.2036(5)
O3 O 0.4753(4) 0.5217(17) 0.3006(5)
O4 O 0.4618(4) 0.0247(17) 0.2012(5)
C1 C 0.1041(7) 0.137(2) 0.3376(7)
C2 C 0.0780(6) 0.397(2) 0.1634(6)
O5 O 0.0855(4) 0.1017(19) 0.3732(4)
C3 C 0.1609(5) 0.172(2) 0.3438(6)
O6 O 0.0500(4) 0.4511(18) 0.1255(4)
C4 C 0.1334(5) 0.365(2) 0.1560(6)
C5 C 0.1884(5) 0.217(2) 0.3878(5)
C6 C 0.1920(6) 0.168(2) 0.3135(5)
C7 C 0.1480(6) 0.329(3) 0.1145(6)
C8 C 0.1730(6) 0.389(2) 0.1892(6)
C9 C 0.2390(5) 0.253(2) 0.3901(5)
H1 H 0.1724 0.2209 0.4150
N1 N 0.2369(4) 0.2122(16) 0.3066(5)
H2 H 0.1761 0.1123 0.2861
C10 C 0.1973(6) 0.290(2) 0.1096(5)
H3 H 0.1237 0.3297 0.0875
N2 N 0.2189(4) 0.3220(17) 0.1928(5)
H4 H 0.1673 0.4655 0.2139
C11 C 0.2624(5) 0.2595(19) 0.3497(5)
H5 H 0.2581 0.2749 0.4195
Cu1 Cu 0.27505(6) 0.2677(3) 0.25027(6)
C12 C 0.2325(5) 0.2824(19) 0.1507(5)
H6 H 0.2071 0.2685 0.0798
C13 C 0.3165(5) 0.311(2) 0.3493(6)
N3 N 0.3271(4) 0.3552(18) 0.3053(5)
N4 N 0.3125(4) 0.1854(16) 0.1956(5)
C14 C 0.2877(6) 0.231(2) 0.1511(6)
C15 C 0.3506(5) 0.314(2) 0.3900(6)
C16 C 0.3768(5) 0.396(2) 0.3049(5)
C17 C 0.3614(6) 0.136(2) 0.1950(6)
C18 C 0.3085(5) 0.235(2) 0.1112(5)
C19 C 0.4017(6) 0.366(3) 0.3879(6)
H7 H 0.3404 0.2827 0.4189
C20 C 0.4144(6) 0.408(2) 0.3443(5)
H8 H 0.3869 0.4180 0.2753
C21 C 0.3865(6) 0.136(2) 0.1564(6)
H9 H 0.3796 0.0981 0.2237
C22 C 0.3601(6) 0.178(2) 0.1118(5)
H10 H 0.2897 0.2739 0.0830
H11 H 0.4256 0.3712 0.4152
C23 C 0.4659(6) 0.474(2) 0.3378(6)
C24 C 0.4408(6) 0.070(3) 0.1626(6)
H12 H 0.3752 0.1691 0.0842
O7 O 0.4973(4) 0.481(2) 0.3754(4)
O8 O 0.4603(4) 0.0622(18) 0.1231(4)
O1A O -0.0814(4) 0.1482(18) 0.2036(4)
O2A O -0.0670(4) 0.3933(19) 0.2964(5)
O3A O -0.4753(4) 0.5217(17) 0.1994(5)
O4A O -0.4618(4) 0.0247(17) 0.2988(5)
C1A C -0.1041(7) 0.137(2) 0.1624(7)
C2A C -0.0780(6) 0.397(2) 0.3366(6)
O5A O -0.0855(4) 0.1017(19) 0.1268(4)
C3A C -0.1609(5) 0.172(2) 0.1562(6)
O6A O -0.0500(4) 0.4511(18) 0.3745(4)
C4A C -0.1334(5) 0.365(2) 0.3440(6)
C5A C -0.1884(5) 0.217(2) 0.1122(5)
C6A C -0.1920(6) 0.168(2) 0.1865(5)
C7A C -0.1480(6) 0.329(3) 0.3855(6)
C8A C -0.1730(6) 0.389(2) 0.3108(6)
C9A C -0.2390(5) 0.253(2) 0.1099(5)
H1A H -0.1724 0.2209 0.0850
N1A N -0.2369(4) 0.2122(16) 0.1934(5)
H2A H -0.1761 0.1123 0.2139
C10A C -0.1973(6) 0.290(2) 0.3904(5)
H3A H -0.1237 0.3297 0.4125
N2A N -0.2189(4) 0.3220(17) 0.3072(5)
H4A H -0.1673 0.4655 0.2861
C11A C -0.2624(5) 0.2595(19) 0.1503(5)
H5A H -0.2581 0.2749 0.0805
Cu1A Cu -0.27505(6) 0.2677(3) 0.24973(6)
C12A C -0.2325(5) 0.2824(19) 0.3493(5)
H6A H -0.2071 0.2685 0.4202
C13A C -0.3165(5) 0.311(2) 0.1507(6)
N3A N -0.3271(4) 0.3552(18) 0.1947(5)
N4A N -0.3125(4) 0.1854(16) 0.3044(5)
C14A C -0.2877(6) 0.231(2) 0.3489(6)
C15A C -0.3506(5) 0.314(2) 0.1100(6)
C16A C -0.3768(5) 0.396(2) 0.1951(5)
C17A C -0.3614(6) 0.136(2) 0.3050(6)
C18A C -0.3085(5) 0.235(2) 0.3888(5)
C19A C -0.4017(6) 0.366(3) 0.1121(6)
H7A H -0.3404 0.2827 0.0811
C20A C -0.4144(6) 0.408(2) 0.1557(5)
H8A H -0.3869 0.4180 0.2247
C21A C -0.3865(6) 0.136(2) 0.3436(6)
H9A H -0.3796 0.0981 0.2763
C22A C -0.3601(6) 0.178(2) 0.3882(5)
H10A H -0.2897 0.2739 0.4170
H11A H -0.4256 0.3712 0.0848
C23A C -0.4659(6) 0.474(2) 0.1622(6)
C24A C -0.4408(6) 0.070(3) 0.3374(6)
H12A H -0.3752 0.1691 0.4158
O7A O -0.4973(4) 0.481(2) 0.1246(4)
O8A O -0.4603(4) 0.0622(18) 0.3769(4)
La1B La -0.5000 -0.23260(19) 0.2500
La1B_2 La -0.5000 0.76740(19) 0.2500
La1B_3 La 0.5000 -0.23260(19) 0.2500
La1B_4 La 0.5000 0.76740(19) 0.2500
O3B O -0.0247(4) 0.0217(17) 0.3006(5)
O3C O 0.0247(4) 0.0217(17) 0.1994(5)
O4B O -0.0382(4) 0.5247(17) 0.2012(5)
O4C O 0.0382(4) 0.5247(17) 0.2988(5)
Cl1 Cl 0.1422(4) 0.1782(15) 0.2400(4)
O9 O -0.2297(5) 0.4922(15) 0.0005(4)
O10 O -0.3160(6) 0.5438(19) 0.0004(5)
O11 O 0.0954(6) -0.016(2) 0.4896(5)
O12 O 0.4551(12) -0.185(4) 0.5096(11)
O13 O 0.3362(10) -0.075(3) 0.0006(7)
loop_
_geom_bond_atom_site_label_1
_geom_bond_atom_site_label_2
_geom_bond_site_symmetry_1
_geom_bond_site_symmetry_2
La1 O1 1_555 1_555
O1 C1 1_555 1_555
O2 La1 1_555 1_555
O3 C23 1_555 1_555
O4 C24 1_555 1_555
C1 O5 1_555 1_555
C2 O2 1_555 1_555
C3 C1 1_555 1_555
O6 C2 1_555 1_555
C4 C2 1_555 1_555
C5 C3 1_555 1_555
C6 C3 1_555 1_555
C7 C4 1_555 1_555
C8 C4 1_555 1_555
C9 C5 1_555 1_555
H1 C5 1_555 1_555
N1 C6 1_555 1_555
H2 C6 1_555 1_555
C10 C7 1_555 1_555
H3 C7 1_555 1_555
N2 C8 1_555 1_555
H4 C8 1_555 1_555
C11 C9 1_555 1_555
H5 C9 1_555 1_555
Cu1 N1 1_555 1_555
C12 C10 1_555 1_555
H6 C10 1_555 1_555
C13 C11 1_555 1_555
N3 Cu1 1_555 1_555
N4 Cu1 1_555 1_555
C14 C12 1_555 1_555
C15 C13 1_555 1_555
C16 N3 1_555 1_555
C17 N4 1_555 1_555
C18 C14 1_555 1_555
C19 C15 1_555 1_555
H7 C15 1_555 1_555
C20 C16 1_555 1_555
H8 C16 1_555 1_555
C21 C17 1_555 1_555
H9 C17 1_555 1_555
C22 C18 1_555 1_555
H10 C18 1_555 1_555
H11 C19 1_555 1_555
C23 C20 1_555 1_555
C24 C21 1_555 1_555
H12 C22 1_555 1_555
O7 C23 1_555 1_555
O8 C24 1_555 1_555
O1A La1 1_555 1_555
O2A La1 1_555 1_555
O3A C23A 1_555 1_555
O4A C24A 1_555 1_555
C1A O1A 1_555 1_555
C2A O2A 1_555 1_555
O5A C1A 1_555 1_555
C3A C1A 1_555 1_555
O6A C2A 1_555 1_555
C4A C2A 1_555 1_555
C5A C3A 1_555 1_555
C6A C3A 1_555 1_555
C7A C4A 1_555 1_555
C8A C4A 1_555 1_555
C9A C5A 1_555 1_555
H1A C5A 1_555 1_555
N1A C6A 1_555 1_555
H2A C6A 1_555 1_555
C10A C7A 1_555 1_555
H3A C7A 1_555 1_555
N2A C8A 1_555 1_555
H4A C8A 1_555 1_555
C11A C9A 1_555 1_555
H5A C9A 1_555 1_555
Cu1A N1A 1_555 1_555
C12A C10A 1_555 1_555
H6A C10A 1_555 1_555
C13A C11A 1_555 1_555
N3A Cu1A 1_555 1_555
N4A Cu1A 1_555 1_555
C14A C12A 1_555 1_555
C15A C13A 1_555 1_555
C16A N3A 1_555 1_555
C17A N4A 1_555 1_555
C18A C14A 1_555 1_555
C19A C15A 1_555 1_555
H7A C15A 1_555 1_555
C20A C16A 1_555 1_555
H8A C16A 1_555 1_555
C21A C17A 1_555 1_555
H9A C17A 1_555 1_555
C22A C18A 1_555 1_555
H10A C18A 1_555 1_555
H11A C19A 1_555 1_555
C23A C20A 1_555 1_555
C24A C21A 1_555 1_555
H12A C22A 1_555 1_555
O7A C23A 1_555 1_555
O8A C24A 1_555 1_555
La1B O4A 1_555 1_555
La1B_2 O3A 1_555 1_555
La1B_3 O4 1_555 1_555
La1B_4 O3 1_555 1_555
O3B La1 1_555 1_555
O3C La1 1_555 1_555
O4B La1 1_555 1_555
O4C La1 1_555 1_555
N1 C11 1_555 1_555
N2 Cu1 1_555 1_555
N2 C12 1_555 1_555
C13 N3 1_555 1_555
N4 C14 1_555 1_555
C19 C20 1_555 1_555
C21 C22 1_555 1_555
N1A C11A 1_555 1_555
N2A Cu1A 1_555 1_555
N2A C12A 1_555 1_555
C13A N3A 1_555 1_555
N4A C14A 1_555 1_555
C19A C20A 1_555 1_555
C21A C22A 1_555 1_555

#END
