
#######################################################################
#
#                 Cambridge Crystallographic Data Centre
#                                CCDC 
#
#######################################################################
#
# If this CIF has been generated from an entry in the Cambridge 
# Structural Database, then it will include bibliographic, chemical, 
# crystal, experimental, refinement or atomic coordinate data resulting 
# from the CCDC's data processing and validation procedures.
#
#######################################################################

data_MIQWOA
_symmetry_cell_setting           monoclinic
_symmetry_space_group_name_H-M   'C 2/c'
_symmetry_Int_Tables_number      15
_space_group_name_Hall           '-C 2yn'
loop_
_symmetry_equiv_pos_site_id
_symmetry_equiv_pos_as_xyz
1 x,y,z
2 -x,y,1/2-z
3 1/2+x,1/2+y,z
4 1/2-x,1/2+y,1/2-z
5 -x,-y,-z
6 x,-y,1/2+z
7 1/2-x,1/2-y,-z
8 1/2+x,1/2-y,1/2+z
_cell_length_a                   26.415(2)
_cell_length_b                   7.4010(6)
_cell_length_c                   28.249(3)
_cell_angle_alpha                90
_cell_angle_beta                 97.8200(10)
_cell_angle_gamma                90
_cell_volume                     5471.25
loop_
_atom_site_label
_atom_site_type_symbol
_atom_site_fract_x
_atom_site_fract_y
_atom_site_fract_z
Pr1 Pr 0.0000 0.27240(17) 0.2500
Cu1 Cu 0.27615(7) 0.2726(3) 0.25008(6)
N1 N 0.3301(4) 0.3579(18) 0.3054(5)
N2 N 0.2366(5) 0.213(2) 0.3061(5)
N3 N 0.3137(4) 0.1872(19) 0.1951(5)
N4 N 0.2210(5) 0.3296(19) 0.1945(5)
O1 O 0.4759(4) 0.525(2) 0.2984(5)
O2 O 0.4988(4) 0.485(3) 0.3763(5)
O3 O 0.0813(4) 0.151(2) 0.2960(5)
O4 O 0.0861(4) 0.103(2) 0.3732(4)
O5 O 0.4608(5) 0.018(2) 0.2003(5)
O6 O 0.4632(4) 0.061(2) 0.1236(5)
O7 O 0.0674(4) 0.390(2) 0.2046(5)
O8 O 0.0495(4) 0.445(2) 0.1264(4)
C1 C 0.4668(5) 0.480(3) 0.3381(6)
C2 C 0.4152(5) 0.410(2) 0.3436(5)
C3 C 0.3780(5) 0.403(2) 0.3039(6)
H1 H 0.3876 0.4322 0.2743
C4 C 0.4021(6) 0.365(3) 0.3879(7)
H2 H 0.4262 0.3686 0.4151
C5 C 0.3518(6) 0.314(3) 0.3905(6)
H3 H 0.3417 0.2817 0.4197
C6 C 0.3167(5) 0.312(2) 0.3491(6)
C7 C 0.2630(6) 0.266(2) 0.3479(6)
C8 C 0.2401(7) 0.258(3) 0.3909(6)
H4 H 0.2595 0.2791 0.4204
C9 C 0.1894(7) 0.219(3) 0.3879(7)
H5 H 0.1733 0.2204 0.4152
C10 C 0.1920(6) 0.175(3) 0.3099(6)
H6 H 0.1747 0.1338 0.2810
C11 C 0.1619(5) 0.176(2) 0.3440(6)
C12 C 0.1041(6) 0.141(2) 0.3359(6)
C13 C 0.4404(5) 0.069(2) 0.1611(5)
C14 C 0.3870(5) 0.133(2) 0.1558(6)
C15 C 0.3628(6) 0.139(3) 0.1950(7)
H7 H 0.3815 0.1079 0.2241
C16 C 0.3602(6) 0.179(3) 0.1125(7)
H8 H 0.3759 0.1750 0.0850
C17 C 0.3100(7) 0.231(3) 0.1099(6)
H9 H 0.2914 0.2617 0.0807
C18 C 0.2870(6) 0.238(2) 0.1522(6)
C19 C 0.2336(5) 0.283(2) 0.1514(5)
C20 C 0.1972(6) 0.290(3) 0.1096(6)
H10 H 0.2077 0.2697 0.0799
C21 C 0.1464(7) 0.326(3) 0.1121(7)
H11 H 0.1220 0.3240 0.0851
C22 C 0.1717(5) 0.367(2) 0.1962(5)
H12 H 0.1624 0.3950 0.2259
C23 C 0.1333(5) 0.366(2) 0.1575(6)
C24 C 0.0786(7) 0.405(3) 0.1632(6)
Cu1A Cu -0.27615(7) 0.2726(3) 0.24992(6)
N1A N -0.3301(4) 0.3579(18) 0.1946(5)
N2A N -0.2366(5) 0.213(2) 0.1939(5)
N3A N -0.3137(4) 0.1872(19) 0.3049(5)
N4A N -0.2210(5) 0.3296(19) 0.3055(5)
O1A O -0.4759(4) 0.525(2) 0.2016(5)
O2A O -0.4988(4) 0.485(3) 0.1237(5)
O3A O -0.0813(4) 0.151(2) 0.2040(5)
O4A O -0.0861(4) 0.103(2) 0.1268(4)
O5A O -0.4608(5) 0.018(2) 0.2997(5)
O6A O -0.4632(4) 0.061(2) 0.3764(5)
O7A O -0.0674(4) 0.390(2) 0.2954(5)
O8A O -0.0495(4) 0.445(2) 0.3736(4)
C1A C -0.4668(5) 0.480(3) 0.1619(6)
C2A C -0.4152(5) 0.410(2) 0.1564(5)
C3A C -0.3780(5) 0.403(2) 0.1961(6)
H1A H -0.3876 0.4322 0.2257
C4A C -0.4021(6) 0.365(3) 0.1121(7)
H2A H -0.4262 0.3686 0.0849
C5A C -0.3518(6) 0.314(3) 0.1095(6)
H3A H -0.3417 0.2817 0.0803
C6A C -0.3167(5) 0.312(2) 0.1509(6)
C7A C -0.2630(6) 0.266(2) 0.1521(6)
C8A C -0.2401(7) 0.258(3) 0.1091(6)
H4A H -0.2595 0.2791 0.0796
C9A C -0.1894(7) 0.219(3) 0.1121(7)
H5A H -0.1733 0.2204 0.0848
C10A C -0.1920(6) 0.175(3) 0.1901(6)
H6A H -0.1747 0.1338 0.2190
C11A C -0.1619(5) 0.176(2) 0.1560(6)
C12A C -0.1041(6) 0.141(2) 0.1641(6)
C13A C -0.4404(5) 0.069(2) 0.3389(5)
C14A C -0.3870(5) 0.133(2) 0.3442(6)
C15A C -0.3628(6) 0.139(3) 0.3050(7)
H7A H -0.3815 0.1079 0.2759
C16A C -0.3602(6) 0.179(3) 0.3875(7)
H8A H -0.3759 0.1750 0.4150
C17A C -0.3100(7) 0.231(3) 0.3901(6)
H9A H -0.2914 0.2617 0.4193
C18A C -0.2870(6) 0.238(2) 0.3478(6)
C19A C -0.2336(5) 0.283(2) 0.3486(5)
C20A C -0.1972(6) 0.290(3) 0.3904(6)
H10A H -0.2077 0.2697 0.4201
C21A C -0.1464(7) 0.326(3) 0.3879(7)
H11A H -0.1220 0.3240 0.4149
C22A C -0.1717(5) 0.367(2) 0.3038(5)
H12A H -0.1624 0.3950 0.2741
C23A C -0.1333(5) 0.366(2) 0.3425(6)
C24A C -0.0786(7) 0.405(3) 0.3368(6)
Pr1B Pr -0.5000 -0.22760(17) 0.2500
Pr1B_2 Pr -0.5000 0.77240(17) 0.2500
Pr1B_3 Pr 0.5000 -0.22760(17) 0.2500
Pr1B_4 Pr 0.5000 0.77240(17) 0.2500
O1B O -0.0241(4) 0.025(2) 0.2984(5)
O1C O 0.0241(4) 0.025(2) 0.2016(5)
O5B O -0.0392(5) 0.518(2) 0.2003(5)
O5C O 0.0392(5) 0.518(2) 0.2997(5)
Cl1 Cl 0.1416(4) 0.1920(18) 0.2489(3)
O9 O -0.2335(6) 0.489(2) -0.0006(4)
O10 O -0.1670(16) 0.444(5) -0.0016(11)
O11 O -0.3164(6) 0.535(2) 0.0001(4)
O12 O 0.0960(7) -0.025(5) 0.4916(6)
O13 O -0.0746(10) 0.722(6) 0.2495(9)
O14 O 0.4669(16) -0.161(7) 0.5055(13)
loop_
_geom_bond_atom_site_label_1
_geom_bond_atom_site_label_2
_geom_bond_site_symmetry_1
_geom_bond_site_symmetry_2
Pr1 O3 1_555 1_555
Cu1 N1 1_555 1_555
N1 C3 1_555 1_555
N2 Cu1 1_555 1_555
N3 Cu1 1_555 1_555
N4 Cu1 1_555 1_555
O1 C1 1_555 1_555
O2 C1 1_555 1_555
O3 C12 1_555 1_555
O4 C12 1_555 1_555
O5 C13 1_555 1_555
O6 C13 1_555 1_555
O7 Pr1 1_555 1_555
O8 C24 1_555 1_555
C1 C2 1_555 1_555
C2 C3 1_555 1_555
C3 H1 1_555 1_555
C4 C2 1_555 1_555
H2 C4 1_555 1_555
C5 C4 1_555 1_555
H3 C5 1_555 1_555
C6 N1 1_555 1_555
C7 N2 1_555 1_555
C8 C7 1_555 1_555
H4 C8 1_555 1_555
C9 C8 1_555 1_555
H5 C9 1_555 1_555
C10 N2 1_555 1_555
H6 C10 1_555 1_555
C11 C9 1_555 1_555
C12 C11 1_555 1_555
C13 C14 1_555 1_555
C14 C15 1_555 1_555
C15 N3 1_555 1_555
H7 C15 1_555 1_555
C16 C14 1_555 1_555
H8 C16 1_555 1_555
C17 C16 1_555 1_555
H9 C17 1_555 1_555
C18 N3 1_555 1_555
C19 N4 1_555 1_555
C20 C19 1_555 1_555
H10 C20 1_555 1_555
C21 C20 1_555 1_555
H11 C21 1_555 1_555
C22 N4 1_555 1_555
H12 C22 1_555 1_555
C23 C21 1_555 1_555
C24 O7 1_555 1_555
Cu1A N1A 1_555 1_555
N1A C3A 1_555 1_555
N2A Cu1A 1_555 1_555
N3A Cu1A 1_555 1_555
N4A Cu1A 1_555 1_555
O1A C1A 1_555 1_555
O2A C1A 1_555 1_555
O3A Pr1 1_555 1_555
O4A C12A 1_555 1_555
O5A C13A 1_555 1_555
O6A C13A 1_555 1_555
O7A Pr1 1_555 1_555
O8A C24A 1_555 1_555
C1A C2A 1_555 1_555
C2A C3A 1_555 1_555
C3A H1A 1_555 1_555
C4A C2A 1_555 1_555
H2A C4A 1_555 1_555
C5A C4A 1_555 1_555
H3A C5A 1_555 1_555
C6A N1A 1_555 1_555
C7A N2A 1_555 1_555
C8A C7A 1_555 1_555
H4A C8A 1_555 1_555
C9A C8A 1_555 1_555
H5A C9A 1_555 1_555
C10A N2A 1_555 1_555
H6A C10A 1_555 1_555
C11A C9A 1_555 1_555
C12A O3A 1_555 1_555
C13A C14A 1_555 1_555
C14A C15A 1_555 1_555
C15A N3A 1_555 1_555
H7A C15A 1_555 1_555
C16A C14A 1_555 1_555
H8A C16A 1_555 1_555
C17A C16A 1_555 1_555
H9A C17A 1_555 1_555
C18A N3A 1_555 1_555
C19A N4A 1_555 1_555
C20A C19A 1_555 1_555
H10A C20A 1_555 1_555
C21A C20A 1_555 1_555
H11A C21A 1_555 1_555
C22A N4A 1_555 1_555
H12A C22A 1_555 1_555
C23A C21A 1_555 1_555
C24A O7A 1_555 1_555
Pr1B O5A 1_555 1_555
Pr1B_2 O1A 1_555 1_555
Pr1B_3 O5 1_555 1_555
Pr1B_4 O1 1_555 1_555
O1B Pr1 1_555 1_555
O1C Pr1 1_555 1_555
O5B Pr1 1_555 1_555
O5C Pr1 1_555 1_555
C5 C6 1_555 1_555
C6 C7 1_555 1_555
C10 C11 1_555 1_555
C17 C18 1_555 1_555
C18 C19 1_555 1_555
C22 C23 1_555 1_555
C23 C24 1_555 1_555
C5A C6A 1_555 1_555
C6A C7A 1_555 1_555
C10A C11A 1_555 1_555
C11A C12A 1_555 1_555
C17A C18A 1_555 1_555
C18A C19A 1_555 1_555
C22A C23A 1_555 1_555
C23A C24A 1_555 1_555

#END
