
#######################################################################
#
#                 Cambridge Crystallographic Data Centre
#                                CCDC 
#
#######################################################################
#
# If this CIF has been generated from an entry in the Cambridge 
# Structural Database, then it will include bibliographic, chemical, 
# crystal, experimental, refinement or atomic coordinate data resulting 
# from the CCDC's data processing and validation procedures.
#
#######################################################################

data_MIQWUG
_symmetry_cell_setting           monoclinic
_symmetry_space_group_name_H-M   'C 2/c'
_symmetry_Int_Tables_number      15
_space_group_name_Hall           '-C 2yn'
loop_
_symmetry_equiv_pos_site_id
_symmetry_equiv_pos_as_xyz
1 x,y,z
2 -x,y,1/2-z
3 1/2+x,1/2+y,z
4 1/2-x,1/2+y,1/2-z
5 -x,-y,-z
6 x,-y,1/2+z
7 1/2-x,1/2-y,-z
8 1/2+x,1/2-y,1/2+z
_cell_length_a                   26.300(7)
_cell_length_b                   7.388(2)
_cell_length_c                   28.164(8)
_cell_angle_alpha                90
_cell_angle_beta                 98.114(5)
_cell_angle_gamma                90
_cell_volume                     5417.61
loop_
_atom_site_label
_atom_site_type_symbol
_atom_site_fract_x
_atom_site_fract_y
_atom_site_fract_z
Eu1 Eu 0.0000 0.26906(11) 0.2500
Cu1 Cu 0.27705(5) 0.2690(2) 0.25037(5)
N1 N 0.3301(3) 0.3530(13) 0.3054(3)
N2 N 0.2380(3) 0.2118(13) 0.3060(3)
N3 N 0.3152(3) 0.1851(13) 0.1956(3)
N4 N 0.2213(3) 0.3257(14) 0.1948(3)
O1 O 0.4770(3) 0.5283(13) 0.2975(3)
O2 O 0.5000(3) 0.493(2) 0.3750(4)
O3 O 0.0821(3) 0.1589(15) 0.2955(3)
O4 O 0.0869(3) 0.1088(17) 0.3739(3)
O5 O 0.4624(3) 0.0105(14) 0.2021(3)
O6 O 0.4636(3) 0.0560(16) 0.1250(3)
O7 O 0.0675(3) 0.3784(14) 0.2050(3)
O8 O 0.0495(3) 0.4389(15) 0.1262(3)
C1 C 0.4687(4) 0.4840(16) 0.3368(4)
C2 C 0.4168(4) 0.4122(16) 0.3432(4)
C3 C 0.3797(3) 0.4010(16) 0.3044(4)
H1 H 0.3892 0.4286 0.2747
C4 C 0.4038(5) 0.3633(19) 0.3869(5)
H2 H 0.4284 0.3622 0.4140
C5 C 0.3534(5) 0.3153(19) 0.3899(4)
H3 H 0.3439 0.2861 0.4195
C6 C 0.3169(4) 0.3103(17) 0.3493(4)
C7 C 0.2634(4) 0.2657(15) 0.3487(4)
C8 C 0.2395(5) 0.2644(19) 0.3894(5)
H4 H 0.2583 0.2951 0.4188
C9 C 0.1889(4) 0.2189(19) 0.3874(5)
H5 H 0.1730 0.2176 0.4148
C10 C 0.1944(4) 0.1721(19) 0.3077(4)
H6 H 0.1780 0.1288 0.2785
C11 C 0.1619(4) 0.1744(16) 0.3425(5)
C12 C 0.1051(4) 0.1440(17) 0.3349(5)
C13 C 0.4424(4) 0.0625(18) 0.1636(5)
C14 C 0.3886(4) 0.1317(16) 0.1573(4)
C15 C 0.3622(4) 0.1359(17) 0.1960(4)
H7 H 0.3801 0.0998 0.2254
C16 C 0.3620(5) 0.178(2) 0.1136(5)
H8 H 0.3778 0.1724 0.0862
C17 C 0.3120(5) 0.2308(18) 0.1109(5)
H9 H 0.2935 0.2657 0.0817
C18 C 0.2895(5) 0.2318(15) 0.1522(4)
C19 C 0.2343(4) 0.2787(16) 0.1508(4)
C20 C 0.1990(5) 0.2855(18) 0.1103(5)
H10 H 0.2090 0.2630 0.0805
C21 C 0.1487(5) 0.326(2) 0.1139(5)
H11 H 0.1241 0.3280 0.0868
C22 C 0.1731(4) 0.3724(14) 0.1945(4)
H12 H 0.1644 0.4178 0.2231
C23 C 0.1355(4) 0.3623(16) 0.1581(4)
C24 C 0.0805(4) 0.3983(18) 0.1651(4)
Cu1A Cu -0.27705(5) 0.2690(2) 0.24963(5)
N1A N -0.3301(3) 0.3530(13) 0.1946(3)
N2A N -0.2380(3) 0.2118(13) 0.1940(3)
N3A N -0.3152(3) 0.1851(13) 0.3044(3)
N4A N -0.2213(3) 0.3257(14) 0.3052(3)
O1A O -0.4770(3) 0.5283(13) 0.2025(3)
O2A O -0.5000(3) 0.493(2) 0.1250(4)
O3A O -0.0821(3) 0.1589(15) 0.2045(3)
O4A O -0.0869(3) 0.1088(17) 0.1261(3)
O5A O -0.4624(3) 0.0105(14) 0.2979(3)
O6A O -0.4636(3) 0.0560(16) 0.3750(3)
O7A O -0.0675(3) 0.3784(14) 0.2950(3)
O8A O -0.0495(3) 0.4389(15) 0.3738(3)
C1A C -0.4687(4) 0.4840(16) 0.1632(4)
C2A C -0.4168(4) 0.4122(16) 0.1568(4)
C3A C -0.3797(3) 0.4010(16) 0.1956(4)
H1A H -0.3892 0.4286 0.2253
C4A C -0.4038(5) 0.3633(19) 0.1131(5)
H2A H -0.4284 0.3622 0.0860
C5A C -0.3534(5) 0.3153(19) 0.1101(4)
H3A H -0.3439 0.2861 0.0805
C6A C -0.3169(4) 0.3103(17) 0.1507(4)
C7A C -0.2634(4) 0.2657(15) 0.1513(4)
C8A C -0.2395(5) 0.2644(19) 0.1106(5)
H4A H -0.2583 0.2951 0.0812
C9A C -0.1889(4) 0.2189(19) 0.1126(5)
H5A H -0.1730 0.2176 0.0852
C10A C -0.1944(4) 0.1721(19) 0.1923(4)
H6A H -0.1780 0.1288 0.2215
C11A C -0.1619(4) 0.1744(16) 0.1575(5)
C12A C -0.1051(4) 0.1440(17) 0.1651(5)
C13A C -0.4424(4) 0.0625(18) 0.3364(5)
C14A C -0.3886(4) 0.1317(16) 0.3427(4)
C15A C -0.3622(4) 0.1359(17) 0.3040(4)
H7A H -0.3801 0.0998 0.2746
C16A C -0.3620(5) 0.178(2) 0.3864(5)
H8A H -0.3778 0.1724 0.4138
C17A C -0.3120(5) 0.2308(18) 0.3891(5)
H9A H -0.2935 0.2657 0.4183
C18A C -0.2895(5) 0.2318(15) 0.3478(4)
C19A C -0.2343(4) 0.2787(16) 0.3492(4)
C20A C -0.1990(5) 0.2855(18) 0.3897(5)
H10A H -0.2090 0.2630 0.4195
C21A C -0.1487(5) 0.326(2) 0.3861(5)
H11A H -0.1241 0.3280 0.4132
C22A C -0.1731(4) 0.3724(14) 0.3055(4)
H12A H -0.1644 0.4178 0.2769
C23A C -0.1355(4) 0.3623(16) 0.3419(4)
C24A C -0.0805(4) 0.3983(18) 0.3349(4)
Eu1B Eu -0.5000 -0.23094(11) 0.2500
Eu1B_2 Eu -0.5000 0.76906(11) 0.2500
Eu1B_3 Eu 0.5000 -0.23094(11) 0.2500
Eu1B_4 Eu 0.5000 0.76906(11) 0.2500
O1B O -0.0230(3) 0.0283(13) 0.2975(3)
O1C O 0.0230(3) 0.0283(13) 0.2025(3)
O5B O -0.0376(3) 0.5105(14) 0.2021(3)
O5C O 0.0376(3) 0.5105(14) 0.2979(3)
Cl1 Cl 0.1310(3) 0.1850(14) 0.2429(3)
O9 O -0.2296(4) 0.4867(12) -0.0007(3)
O10 O -0.3150(5) 0.5376(16) -0.0003(3)
O11 O 0.0957(5) -0.0212(18) 0.4910(4)
O12 O 0.4679(10) -0.169(4) 0.5067(9)
O13 O 0.3404(9) -0.072(3) -0.0011(6)
loop_
_geom_bond_atom_site_label_1
_geom_bond_atom_site_label_2
_geom_bond_site_symmetry_1
_geom_bond_site_symmetry_2
Eu1 O3 1_555 1_555
Cu1 N1 1_555 1_555
N1 C3 1_555 1_555
N2 Cu1 1_555 1_555
N3 Cu1 1_555 1_555
N4 Cu1 1_555 1_555
O1 C1 1_555 1_555
O2 C1 1_555 1_555
O3 C12 1_555 1_555
O4 C12 1_555 1_555
O5 C13 1_555 1_555
O6 C13 1_555 1_555
O7 Eu1 1_555 1_555
O8 C24 1_555 1_555
C1 C2 1_555 1_555
C2 C3 1_555 1_555
C3 H1 1_555 1_555
C4 C2 1_555 1_555
H2 C4 1_555 1_555
C5 C4 1_555 1_555
H3 C5 1_555 1_555
C6 N1 1_555 1_555
C7 N2 1_555 1_555
C8 C7 1_555 1_555
H4 C8 1_555 1_555
C9 C8 1_555 1_555
H5 C9 1_555 1_555
C10 N2 1_555 1_555
H6 C10 1_555 1_555
C11 C9 1_555 1_555
C12 C11 1_555 1_555
C13 C14 1_555 1_555
C14 C15 1_555 1_555
C15 N3 1_555 1_555
H7 C15 1_555 1_555
C16 C14 1_555 1_555
H8 C16 1_555 1_555
C17 C16 1_555 1_555
H9 C17 1_555 1_555
C18 N3 1_555 1_555
C19 N4 1_555 1_555
C20 C19 1_555 1_555
H10 C20 1_555 1_555
C21 C20 1_555 1_555
H11 C21 1_555 1_555
C22 N4 1_555 1_555
H12 C22 1_555 1_555
C23 C21 1_555 1_555
C24 O7 1_555 1_555
Cu1A N1A 1_555 1_555
N1A C3A 1_555 1_555
N2A Cu1A 1_555 1_555
N3A Cu1A 1_555 1_555
N4A Cu1A 1_555 1_555
O1A C1A 1_555 1_555
O2A C1A 1_555 1_555
O3A Eu1 1_555 1_555
O4A C12A 1_555 1_555
O5A C13A 1_555 1_555
O6A C13A 1_555 1_555
O7A Eu1 1_555 1_555
O8A C24A 1_555 1_555
C1A C2A 1_555 1_555
C2A C3A 1_555 1_555
C3A H1A 1_555 1_555
C4A C2A 1_555 1_555
H2A C4A 1_555 1_555
C5A C4A 1_555 1_555
H3A C5A 1_555 1_555
C6A N1A 1_555 1_555
C7A N2A 1_555 1_555
C8A C7A 1_555 1_555
H4A C8A 1_555 1_555
C9A C8A 1_555 1_555
H5A C9A 1_555 1_555
C10A N2A 1_555 1_555
H6A C10A 1_555 1_555
C11A C9A 1_555 1_555
C12A O3A 1_555 1_555
C13A C14A 1_555 1_555
C14A C15A 1_555 1_555
C15A N3A 1_555 1_555
H7A C15A 1_555 1_555
C16A C14A 1_555 1_555
H8A C16A 1_555 1_555
C17A C16A 1_555 1_555
H9A C17A 1_555 1_555
C18A N3A 1_555 1_555
C19A N4A 1_555 1_555
C20A C19A 1_555 1_555
H10A C20A 1_555 1_555
C21A C20A 1_555 1_555
H11A C21A 1_555 1_555
C22A N4A 1_555 1_555
H12A C22A 1_555 1_555
C23A C21A 1_555 1_555
C24A O7A 1_555 1_555
Eu1B O5A 1_555 1_555
Eu1B_2 O1A 1_555 1_555
Eu1B_3 O5 1_555 1_555
Eu1B_4 O1 1_555 1_555
O1B Eu1 1_555 1_555
O1C Eu1 1_555 1_555
O5B Eu1 1_555 1_555
O5C Eu1 1_555 1_555
C5 C6 1_555 1_555
C6 C7 1_555 1_555
C10 C11 1_555 1_555
C17 C18 1_555 1_555
C18 C19 1_555 1_555
C22 C23 1_555 1_555
C23 C24 1_555 1_555
C5A C6A 1_555 1_555
C6A C7A 1_555 1_555
C10A C11A 1_555 1_555
C11A C12A 1_555 1_555
C17A C18A 1_555 1_555
C18A C19A 1_555 1_555
C22A C23A 1_555 1_555
C23A C24A 1_555 1_555

#END
