
#######################################################################
#
#                 Cambridge Crystallographic Data Centre
#                                CCDC 
#
#######################################################################
#
# If this CIF has been generated from an entry in the Cambridge 
# Structural Database, then it will include bibliographic, chemical, 
# crystal, experimental, refinement or atomic coordinate data resulting 
# from the CCDC's data processing and validation procedures.
#
#######################################################################

data_MIQXEP
_symmetry_cell_setting           triclinic
_symmetry_space_group_name_H-M   'P -1'
_symmetry_Int_Tables_number      2
_space_group_name_Hall           '-P 1'
loop_
_symmetry_equiv_pos_site_id
_symmetry_equiv_pos_as_xyz
1 x,y,z
2 -x,-y,-z
_cell_length_a                   9.450(4)
_cell_length_b                   9.634(5)
_cell_length_c                   10.646(7)
_cell_angle_alpha                81.61(4)
_cell_angle_beta                 70.78(4)
_cell_angle_gamma                72.41(4)
_cell_volume                     871.25
loop_
_atom_site_label
_atom_site_type_symbol
_atom_site_fract_x
_atom_site_fract_y
_atom_site_fract_z
Ru1 Ru 0.0261(1) 0.0410(1) 0.5813(1)
O1 O 0.2515(7) -0.0666(8) 0.5072(8)
O2 O 0.2000(7) -0.1509(8) 0.3495(8)
O3 O -0.0204(8) -0.1342(8) 0.6985(8)
O4 O -0.0703(8) -0.2168(7) 0.5345(8)
O5 O 0.0725(9) 0.1094(9) 0.7573(8)
C1 C 0.296(1) -0.141(1) 0.405(1)
C2 C 0.466(1) -0.212(1) 0.343(1)
C3 C 0.558(1) -0.218(2) 0.436(2)
C4 C 0.488(2) -0.358(2) 0.294(2)
C5 C 0.521(2) -0.116(2) 0.222(2)
C6 C -0.061(1) -0.227(1) 0.652(1)
C7 C -0.097(1) -0.357(1) 0.747(1)
C8 C -0.197(2) -0.422(2) 0.705(2)
C9 C -0.181(3) -0.311(2) 0.885(2)
C10 C 0.055(2) -0.465(2) 0.742(3)
C11 C 0.037 0.064 0.857
C12 C 0.149 -0.077 0.901
C13 C 0.276 -0.161 0.811
C14 C 0.359 -0.281 0.831
C15 C 0.356 -0.336 0.975
C16 C 0.197 -0.264 1.062
C17 C -0.115 0.135 0.970
C17A C 0.115 -0.135 1.030
C11A C -0.037 -0.064 1.143
O5A O -0.0725(9) -0.1094(9) 1.2427(8)
C12A C -0.149 0.077 1.099
C13A C -0.276 0.161 1.189
C14A C -0.359 0.281 1.169
C15A C -0.356 0.336 1.025
C16A C -0.197 0.264 0.938
O1A O -0.2515(7) 0.0666(8) 0.4928(8)
O2A O -0.2000(7) 0.1509(8) 0.6505(8)
C1A C -0.296(1) 0.141(1) 0.595(1)
C2A C -0.466(1) 0.212(1) 0.657(1)
C3A C -0.558(1) 0.218(2) 0.564(2)
C4A C -0.488(2) 0.358(2) 0.706(2)
C5A C -0.521(2) 0.116(2) 0.778(2)
O3A O 0.0204(8) 0.1342(8) 0.3015(8)
O4A O 0.0703(8) 0.2168(7) 0.4655(8)
C6A C 0.061(1) 0.227(1) 0.348(1)
C7A C 0.097(1) 0.357(1) 0.253(1)
C8A C 0.197(2) 0.422(2) 0.295(2)
C9A C 0.181(3) 0.311(2) 0.115(2)
C10A C -0.055(2) 0.465(2) 0.258(3)
Ru1A Ru -0.0261(1) -0.0410(1) 0.4187(1)
Ru1A_2 Ru -0.0261(1) -0.0410(1) 1.4187(1)
O5A_2 O -0.0725(9) -0.1094(9) 0.2427(8)
loop_
_geom_bond_atom_site_label_1
_geom_bond_atom_site_label_2
_geom_bond_site_symmetry_1
_geom_bond_site_symmetry_2
Ru1 O1 1_555 1_555
O1 C1 1_555 1_555
O2 C1 1_555 1_555
O3 Ru1 1_555 1_555
O4 C6 1_555 1_555
O5 Ru1 1_555 1_555
C1 C2 1_555 1_555
C2 C3 1_555 1_555
C4 C2 1_555 1_555
C5 C2 1_555 1_555
C6 O3 1_555 1_555
C7 C6 1_555 1_555
C8 C7 1_555 1_555
C9 C7 1_555 1_555
C10 C7 1_555 1_555
C11 O5 1_555 1_555
C12 C11 1_555 1_555
C13 C12 1_555 1_555
C14 C13 1_555 1_555
C15 C14 1_555 1_555
C16 C15 1_555 1_555
C17 C11 1_555 1_555
C17A C12 1_555 1_555
C11A C17A 1_555 1_555
O5A C11A 1_555 1_555
C12A C17 1_555 1_555
C13A C12A 1_555 1_555
C14A C13A 1_555 1_555
C15A C14A 1_555 1_555
C16A C17 1_555 1_555
O1A C1A 1_555 1_555
O2A Ru1 1_555 1_555
C1A O2A 1_555 1_555
C2A C1A 1_555 1_555
C3A C2A 1_555 1_555
C4A C2A 1_555 1_555
C5A C2A 1_555 1_555
O3A C6A 1_555 1_555
O4A Ru1 1_555 1_555
C6A O4A 1_555 1_555
C7A C6A 1_555 1_555
C8A C7A 1_555 1_555
C9A C7A 1_555 1_555
C10A C7A 1_555 1_555
Ru1A Ru1 1_555 1_555
Ru1A_2 O5A 1_555 1_555
O5A_2 Ru1A 1_555 1_555
O2 Ru1A 1_555 1_555
O4 Ru1A 1_555 1_555
C16 C17A 1_555 1_555
C11A C12A 1_555 1_555
C15A C16A 1_555 1_555
O1A Ru1A 1_555 1_555
O3A Ru1A 1_555 1_555

#END
