
#######################################################################
#
#                 Cambridge Crystallographic Data Centre
#                                CCDC 
#
#######################################################################
#
# If this CIF has been generated from an entry in the Cambridge 
# Structural Database, then it will include bibliographic, chemical, 
# crystal, experimental, refinement or atomic coordinate data resulting 
# from the CCDC's data processing and validation procedures.
#
#######################################################################

data_MIRFOK
_symmetry_cell_setting           trigonal
_symmetry_space_group_name_H-M   'P -3 1 m'
_symmetry_Int_Tables_number      162
_space_group_name_Hall           "-P 3 2'"
loop_
_symmetry_equiv_pos_site_id
_symmetry_equiv_pos_as_xyz
1 x,y,z
2 -y,x-y,z
3 -x+y,-x,z
4 -y,-x,-z
5 -x+y,y,-z
6 x,x-y,-z
7 -x,-y,-z
8 y,-x+y,-z
9 x-y,x,-z
10 y,x,z
11 x-y,-y,z
12 -x,-x+y,z
_cell_length_a                   13.9147(2)
_cell_length_b                   13.9147(2)
_cell_length_c                   9.1747(4)
_cell_angle_alpha                90
_cell_angle_beta                 90
_cell_angle_gamma                120
_cell_volume                     1538.4
loop_
_atom_site_label
_atom_site_type_symbol
_atom_site_fract_x
_atom_site_fract_y
_atom_site_fract_z
N1 N 0.4412(3) -0.1176(5) 1.5000
C3 C 0.4091(4) -0.0596(4) 1.5867(5)
C4 C 0.3157(5) -0.1175(5) 1.6787(6)
H1 H 0.2752 -0.1964 1.6796
C5 C 0.2846(5) -0.0585(6) 1.7662(7)
H2 H 0.2222 -0.0970 1.8285
C3D C 0.5313(6) -0.0596(4) 1.4133(5)
C4D C 0.5668(7) -0.1175(5) 1.3213(6)
H1D H 0.5284 -0.1964 1.3204
C5D C 0.6569(8) -0.0585(6) 1.2338(7)
H2D H 0.6808 -0.0970 1.1715
N1F N 0.5588(3) 0.1176(5) 1.5000
C3F C 0.5909(4) 0.0596(4) 1.4133(5)
C4F C 0.6843(5) 0.1175(5) 1.3213(6)
H1F H 0.7248 0.1964 1.3204
C5F C 0.7154(5) 0.0585(6) 1.2338(7)
H2F H 0.7778 0.0970 1.1715
C3J C 0.4687(6) 0.0596(4) 1.5867(5)
C4J C 0.4332(7) 0.1175(5) 1.6787(6)
H1J H 0.4716 0.1964 1.6796
C5J C 0.3431(8) 0.0585(6) 1.7662(7)
H2J H 0.3192 0.0970 1.8285
O2 O 0.3333(5) -0.3334(6) 1.5000(7)
H3 H 0.3689 -0.2622 1.5000
H3A H 0.2622 -0.3689 1.5000
H3B H 0.3689 -0.3689 1.5000
Mn1 Mn 0.6667 0.3333 1.0000
C1 C 0.4249(5) 0.0000 1.1091(7)
Br1 Br 0.32500(5) 0.0000 1.24856(8)
C2 C 0.5126(4) 0.1010(4) 1.0616(5)
O1 O 0.5372(3) 0.1950(3) 1.1095(4)
C1D C 0.5751(5) 0.0000 0.8909(7)
Br1D Br 0.67500(5) 0.0000 0.75144(8)
C2D C 0.5884(6) 0.1010(4) 0.9384(5)
O1D O 0.6578(4) 0.1950(3) 0.8905(4)
C2F C 0.4874(4) -0.1010(4) 0.9384(5)
O1F O 0.4628(3) -0.1950(3) 0.8905(4)
C2J C 0.4116(6) -0.1010(4) 1.0616(5)
O1J O 0.3422(4) -0.1950(3) 1.1095(4)
C1A C 1.0000 0.4249(5) 1.1091(7)
Br1A Br 1.0000 0.32500(5) 1.24856(8)
C2A C 0.8990(4) 0.4116(6) 1.0616(5)
O1A O 0.8050(3) 0.3422(4) 1.1095(4)
C1C C 1.0000 0.5751(5) 0.8909(7)
Br1C Br 1.0000 0.67500(5) 0.75144(8)
C2C C 0.8990(4) 0.4874(4) 0.9384(5)
O1C O 0.8050(3) 0.4628(3) 0.8905(4)
C2G C 1.1010(4) 0.5884(6) 0.9384(5)
O1G O 1.1950(3) 0.6578(4) 0.8905(4)
C2I C 1.1010(4) 0.5126(4) 1.0616(5)
O1I O 1.1950(3) 0.5372(3) 1.1095(4)
C1B C 0.5751(5) 0.5751(5) 1.1091(7)
Br1B Br 0.67500(5) 0.67500(5) 1.24856(8)
C2B C 0.5884(6) 0.4874(4) 1.0616(5)
O1B O 0.6578(4) 0.4628(3) 1.1095(4)
C1E C 0.4249(5) 0.4249(5) 0.8909(7)
Br1E Br 0.32500(5) 0.32500(5) 0.75144(8)
C2E C 0.5126(4) 0.4116(6) 0.9384(5)
O1E O 0.5372(3) 0.3422(4) 0.8905(4)
C2H C 0.4116(6) 0.5126(4) 0.9384(5)
O1H O 0.3422(4) 0.5372(3) 0.8905(4)
C2K C 0.4874(4) 0.5884(6) 1.0616(5)
O1K O 0.4628(3) 0.6578(4) 1.1095(4)
Mn1F Mn 0.3333 -0.3333 1.0000
Mn1F_2 Mn 0.3333 0.6667 1.0000
Mn1F_3 Mn 1.3333 0.6667 1.0000
O1G_2 O 0.1950(3) -0.3422(4) 0.8905(4)
O1H_2 O 0.3422(4) -0.4628(3) 0.8905(4)
O1I_2 O 0.1950(3) -0.4628(3) 1.1095(4)
O1K_2 O 0.4628(3) -0.3422(4) 1.1095(4)
Fe1? Fe 0.6667 0.3333 1.0000
loop_
_geom_bond_atom_site_label_1
_geom_bond_atom_site_label_2
_geom_bond_site_symmetry_1
_geom_bond_site_symmetry_2
Mn1 O1 1_555 1_555
C1 Br1 1_555 1_555
C2 C1 1_555 1_555
O1 C2 1_555 1_555
N1 C3 1_555 1_555
C3 C4 1_555 1_555
C4 H1 1_555 1_555
C5 C4 1_555 1_555
H2 C5 1_555 1_555
O2 H3 1_555 1_555
C1D Br1D 1_555 1_555
C2D C2 1_555 1_555
O1D Mn1 1_555 1_555
C2F C1D 1_555 1_555
O1F C2F 1_555 1_555
C2J C1 1_555 1_555
O1J C2J 1_555 1_555
C1A Br1A 1_555 1_555
C2A C1A 1_555 1_555
O1A Mn1 1_555 1_555
C1C Br1C 1_555 1_555
C2C C2A 1_555 1_555
O1C Mn1 1_555 1_555
C2G C1C 1_555 1_555
O1G C2G 1_555 1_555
C2I C1A 1_555 1_555
O1I C2I 1_555 1_555
C1B Br1B 1_555 1_555
C2B C1B 1_555 1_555
O1B Mn1 1_555 1_555
C1E Br1E 1_555 1_555
C2E C2B 1_555 1_555
O1E Mn1 1_555 1_555
C2H C1E 1_555 1_555
O1H C2H 1_555 1_555
C2K C1B 1_555 1_555
O1K C2K 1_555 1_555
Mn1F O1F 1_555 1_555
Mn1F_2 O1H 1_555 1_555
Mn1F_3 O1G 1_555 1_555
O1G_2 Mn1F 1_555 1_555
O1H_2 Mn1F 1_555 1_555
O1I_2 Mn1F 1_555 1_555
O1K_2 Mn1F 1_555 1_555
C3D N1 1_555 1_555
C4D C3D 1_555 1_555
H1D C4D 1_555 1_555
C5D C4D 1_555 1_555
H2D C5D 1_555 1_555
N1F C3F 1_555 1_555
C3F C3D 1_555 1_555
C4F C3F 1_555 1_555
H1F C4F 1_555 1_555
C5F C5D 1_555 1_555
H2F C5F 1_555 1_555
C3J C3 1_555 1_555
C4J C3J 1_555 1_555
H1J C4J 1_555 1_555
C5J C5 1_555 1_555
H2J C5J 1_555 1_555
H3A O2 1_555 1_555
H3B O2 1_555 1_555
C1D C2D 1_555 1_555
C2D O1D 1_555 1_555
C2F C2J 1_555 1_555
O1J Mn1F 1_555 1_555
C2A O1A 1_555 1_555
C1C C2C 1_555 1_555
C2C O1C 1_555 1_555
C2G C2I 1_555 1_555
O1I Mn1F_3 1_555 1_555
C2B O1B 1_555 1_555
C1E C2E 1_555 1_555
C2E O1E 1_555 1_555
C2H C2K 1_555 1_555
O1K Mn1F_2 1_555 1_555
N1F C3J 1_555 1_555
C4F C5F 1_555 1_555
C4J C5J 1_555 1_555

#END
