
#######################################################################
#
#                 Cambridge Crystallographic Data Centre
#                                CCDC 
#
#######################################################################
#
# If this CIF has been generated from an entry in the Cambridge 
# Structural Database, then it will include bibliographic, chemical, 
# crystal, experimental, refinement or atomic coordinate data resulting 
# from the CCDC's data processing and validation procedures.
#
#######################################################################

data_MIRHIG
_symmetry_cell_setting           triclinic
_symmetry_space_group_name_H-M   'P -1'
_symmetry_Int_Tables_number      2
_space_group_name_Hall           '-P 1'
loop_
_symmetry_equiv_pos_site_id
_symmetry_equiv_pos_as_xyz
1 x,y,z
2 -x,-y,-z
_cell_length_a                   11.658(3)
_cell_length_b                   13.425(3)
_cell_length_c                   17.524(4)
_cell_angle_alpha                83.115(4)
_cell_angle_beta                 78.935(4)
_cell_angle_gamma                86.523(4)
_cell_volume                     2670.27
loop_
_atom_site_label
_atom_site_type_symbol
_atom_site_fract_x
_atom_site_fract_y
_atom_site_fract_z
C1 C 0.5551(7) 1.1441(5) 0.0425(4)
H1 H 0.4970 1.1466 0.0126
C2 C 0.1120(6) 0.5651(5) 0.3674(4)
C3 C -0.0051(6) 0.5957(5) 0.4072(4)
C4 C -0.0154(7) 0.6887(6) 0.4332(4)
H2 H 0.0511 0.7260 0.4270
C5 C -0.1225(8) 0.7288(6) 0.4687(5)
H3 H -0.1288 0.7915 0.4869
C6 C -0.2211(8) 0.6702(7) 0.4759(5)
H4 H -0.2944 0.6962 0.4974
C7 C -0.2123(7) 0.5777(6) 0.4524(5)
H5 H -0.2786 0.5398 0.4602
C8 C -0.1081(6) 0.5392(5) 0.4175(4)
C9 C -0.1932(7) 0.3908(6) 0.3964(6)
H6 H -0.2468 0.4287 0.3668
H7 H -0.2326 0.3784 0.4504
C10 C -0.1571(6) 0.2914(6) 0.3631(5)
C11 C -0.1678(7) 0.2046(7) 0.4145(6)
H8 H -0.1930 0.2098 0.4676
C12 C -0.1179(8) 0.2863(6) 0.2840(5)
C13 C -0.0950(7) 0.1905(7) 0.2582(5)
H9 H -0.0713 0.1860 0.2049
C14 C -0.1064(13) 0.3785(8) 0.2251(7)
H10 H -0.1079 0.4372 0.2518
H11 H -0.1703 0.3833 0.1973
H12 H -0.0339 0.3738 0.1888
C15 C 0.2527(6) 0.4295(6) 0.3232(5)
H13 H 0.2935 0.4058 0.3656
H14 H 0.2964 0.4836 0.2911
C16 C 0.2490(6) 0.3457(6) 0.2749(5)
C17 C 0.2929(10) 0.3517(8) 0.1906(6)
H15 H 0.3249 0.4061 0.1571
C18 C 0.2742(13) 0.2510(10) 0.1718(7)
H16 H 0.2911 0.2351 0.1205
C19 C 0.2338(11) 0.1861(8) 0.2283(7)
H17 H 0.2219 0.1201 0.2214
C20 C -0.4137(6) -0.1348(5) 0.3098(4)
C21 C -0.2974(6) -0.1853(5) 0.2829(4)
C22 C -0.2983(7) -0.2820(6) 0.2656(5)
H18 H -0.3695 -0.3129 0.2732
C23 C -0.1984(7) -0.3344(6) 0.2377(5)
H19 H -0.2014 -0.4003 0.2271
C24 C -0.0952(7) -0.2896(6) 0.2255(5)
H20 H -0.0268 -0.3246 0.2057
C25 C -0.0896(7) -0.1925(6) 0.2420(5)
H21 H -0.0175 -0.1632 0.2342
C26 C -0.1902(6) -0.1381(5) 0.2700(4)
C27 C -0.0811(7) 0.0057(6) 0.2782(6)
H22 H -0.0441 0.0139 0.2234
H23 H -0.0288 -0.0347 0.3074
C28 C -0.1061(6) 0.1045(6) 0.3078(6)
C29 C -0.1422(7) 0.1090(6) 0.3897(5)
C30 C -0.1533(11) 0.0201(8) 0.4484(7)
H24 H -0.1944 -0.0303 0.4311
H25 H -0.1960 0.0388 0.4974
H26 H -0.0769 -0.0061 0.4548
C31 C -0.5311(7) 0.0149(6) 0.3506(6)
H27 H -0.5788 -0.0199 0.3964
H28 H -0.5737 0.0205 0.3078
C32 C -0.5052(7) 0.1184(6) 0.3675(6)
C33 C -0.4836(7) 0.2032(6) 0.3120(7)
H29 H -0.4804 0.2053 0.2583
C34 C -0.4680(8) 0.2835(7) 0.3523(9)
H30 H -0.4557 0.3476 0.3261
C35 C -0.4710(8) 0.2668(8) 0.4276(8)
H31 H -0.4605 0.3149 0.4594
C36 C 0.5665(7) 0.7873(6) 0.1196(5)
C37 C 0.6363(7) 0.6992(6) 0.0856(5)
C38 C 0.5822(8) 0.6100(7) 0.0949(6)
H32 H 0.5059 0.6057 0.1227
C39 C 0.6383(11) 0.5260(8) 0.0641(8)
H33 H 0.5987 0.4668 0.0694
C40 C 0.7523(10) 0.5303(7) 0.0256(7)
H34 H 0.7921 0.4730 0.0075
C41 C 0.8072(9) 0.6203(7) 0.0141(6)
H35 H 0.8835 0.6243 -0.0137
C42 C 0.7501(7) 0.7047(6) 0.0435(5)
C43 C 0.9220(7) 0.8017(7) -0.0053(6)
H36 H 0.9281 0.7876 -0.0590
H37 H 0.9715 0.7530 0.0201
C44 C 0.9592(6) 0.9054(6) -0.0033(5)
C45 C 0.9137(6) 0.9894(6) -0.0435(4)
C46 C 0.8178(9) 0.9836(9) -0.0906(6)
H38 H 0.8392 0.9325 -0.1253
H39 H 0.8081 1.0472 -0.1206
H40 H 0.7458 0.9673 -0.0557
C47 C 0.9544(6) 1.0827(6) -0.0401(5)
H41 H 0.9239 1.1389 -0.0671
C48 C 0.5292(8) 0.9656(6) 0.1281(5)
H42 H 0.4585 0.9687 0.1064
H43 H 0.5070 0.9569 0.1847
C49 C 0.5904(7) 1.0604(6) 0.1034(5)
O1 O 0.3001(5) 0.6193(4) 0.1826(3)
C50 C 0.643(3) 1.2206(10) 0.0461(12)
H44 H 0.6419 1.2837 0.0178
C51 C 0.712(2) 1.1985(13) 0.0851(15)
H45 H 0.7702 1.2418 0.0880
N1 N 0.1361(5) 0.4681(4) 0.3558(4)
N2 N 0.6051(6) 0.8782(5) 0.1016(4)
N3 N -0.4177(5) -0.0426(5) 0.3293(4)
N4 N 0.2150(5) 0.9152(5) 0.3313(5)
N5 N 0.2237(6) 0.6745(6) 0.1586(4)
N6 N 0.4605(7) 0.5815(5) 0.3737(5)
O2 O 0.1896(5) 0.6267(4) 0.3470(3)
O3 O -0.0919(4) 0.4461(4) 0.3918(3)
O4 O -0.5068(4) -0.1779(4) 0.3124(4)
O5 O -0.1920(4) -0.0429(4) 0.2878(3)
O6 O 0.4665(5) 0.7728(4) 0.1614(3)
O7 O 0.8026(5) 0.7958(4) 0.0352(3)
O8 O 0.2245(5) 0.8354(4) 0.3779(3)
O9 O 0.2676(6) 0.9129(4) 0.2638(4)
O10 O 0.1616(6) 0.9894(5) 0.3521(5)
O11 O 0.3949(6) 0.6470(5) 0.4061(4)
O12 O 0.4666(4) 0.5847(4) 0.3001(4)
O13 O 0.5136(8) 0.5177(7) 0.4076(6)
O14 O 0.1979(5) 0.7556(5) 0.1902(4)
O15 O 0.1741(6) 0.6541(6) 0.1079(4)
S1 S -0.4969(3) 0.1437(2) 0.45898(19)
S2 S 0.2034(2) 0.23017(19) 0.31775(18)
S3 S 0.7036(5) 1.0901(4) 0.1334(3)
Sm1 Sm 0.33919(3) 0.73248(3) 0.28170(2)
C1A C 1.4449(7) 0.8559(5) -0.0425(4)
H1A H 1.5030 0.8534 -0.0126
C36A C 1.4335(7) 1.2127(6) -0.1196(5)
C37A C 1.3637(7) 1.3008(6) -0.0856(5)
C38A C 1.4178(8) 1.3900(7) -0.0949(6)
H32A H 1.4941 1.3943 -0.1227
C39A C 1.3617(11) 1.4740(8) -0.0641(8)
H33A H 1.4013 1.5332 -0.0694
C40A C 1.2477(10) 1.4697(7) -0.0256(7)
H34A H 1.2079 1.5270 -0.0075
C41A C 1.1928(9) 1.3797(7) -0.0141(6)
H35A H 1.1165 1.3757 0.0137
C42A C 1.2499(7) 1.2953(6) -0.0435(5)
C43A C 1.0780(7) 1.1983(7) 0.0053(6)
H36A H 1.0719 1.2124 0.0590
H37A H 1.0285 1.2470 -0.0201
C44A C 1.0408(6) 1.0946(6) 0.0033(5)
C45A C 1.0863(6) 1.0106(6) 0.0435(4)
C46A C 1.1822(9) 1.0164(9) 0.0906(6)
H38A H 1.1608 1.0675 0.1253
H39A H 1.1919 0.9528 0.1206
H40A H 1.2542 1.0327 0.0557
C47A C 1.0456(6) 0.9173(6) 0.0401(5)
H41A H 1.0761 0.8611 0.0671
C48A C 1.4708(8) 1.0344(6) -0.1281(5)
H42A H 1.5415 1.0313 -0.1064
H43A H 1.4930 1.0431 -0.1847
C49A C 1.4096(7) 0.9396(6) -0.1034(5)
C50A C 1.357(3) 0.7794(10) -0.0461(12)
H44A H 1.3581 0.7163 -0.0178
C51A C 1.288(2) 0.8015(13) -0.0851(15)
H45A H 1.2298 0.7582 -0.0880
N2A N 1.3949(6) 1.1218(5) -0.1016(4)
O6A O 1.5335(5) 1.2272(4) -0.1614(3)
O7A O 1.1974(5) 1.2042(4) -0.0352(3)
S3A S 1.2964(5) 0.9099(4) -0.1334(3)
C2A C 1.8880(6) 1.4349(5) -0.3674(4)
C3A C 2.0051(6) 1.4043(5) -0.4072(4)
C4A C 2.0154(7) 1.3113(6) -0.4332(4)
H2A H 1.9489 1.2740 -0.4270
C5A C 2.1225(8) 1.2712(6) -0.4687(5)
H3A H 2.1288 1.2085 -0.4869
C6A C 2.2211(8) 1.3298(7) -0.4759(5)
H4A H 2.2944 1.3038 -0.4974
C7A C 2.2123(7) 1.4223(6) -0.4524(5)
H5A H 2.2786 1.4602 -0.4602
C8A C 2.1081(6) 1.4608(5) -0.4175(4)
C9A C 2.1932(7) 1.6092(6) -0.3964(6)
H6A H 2.2468 1.5713 -0.3668
H7A H 2.2326 1.6216 -0.4504
C10A C 2.1571(6) 1.7086(6) -0.3631(5)
C11A C 2.1678(7) 1.7954(7) -0.4145(6)
H8A H 2.1930 1.7902 -0.4676
C12A C 2.1179(8) 1.7137(6) -0.2840(5)
C13A C 2.0950(7) 1.8095(7) -0.2582(5)
H9A H 2.0713 1.8140 -0.2049
C14A C 2.1064(13) 1.6215(8) -0.2251(7)
H10A H 2.1079 1.5628 -0.2518
H11A H 2.1703 1.6167 -0.1973
H12A H 2.0339 1.6262 -0.1888
C15A C 1.7473(6) 1.5705(6) -0.3232(5)
H13A H 1.7065 1.5942 -0.3656
H14A H 1.7036 1.5164 -0.2911
C16A C 1.7510(6) 1.6543(6) -0.2749(5)
C17A C 1.7071(10) 1.6483(8) -0.1906(6)
H15A H 1.6751 1.5939 -0.1571
C18A C 1.7258(13) 1.7490(10) -0.1718(7)
H16A H 1.7089 1.7649 -0.1205
C19A C 1.7662(11) 1.8139(8) -0.2283(7)
H17A H 1.7781 1.8799 -0.2214
C20A C 2.4137(6) 2.1348(5) -0.3098(4)
C21A C 2.2974(6) 2.1853(5) -0.2829(4)
C22A C 2.2983(7) 2.2820(6) -0.2656(5)
H18A H 2.3695 2.3129 -0.2732
C23A C 2.1984(7) 2.3344(6) -0.2377(5)
H19A H 2.2014 2.4003 -0.2271
C24A C 2.0952(7) 2.2896(6) -0.2255(5)
H20A H 2.0268 2.3246 -0.2057
C25A C 2.0896(7) 2.1925(6) -0.2420(5)
H21A H 2.0175 2.1632 -0.2342
C26A C 2.1902(6) 2.1381(5) -0.2700(4)
C27A C 2.0811(7) 1.9943(6) -0.2782(6)
H22A H 2.0441 1.9861 -0.2234
H23A H 2.0288 2.0347 -0.3074
C28A C 2.1061(6) 1.8955(6) -0.3078(6)
C29A C 2.1422(7) 1.8910(6) -0.3897(5)
C30A C 2.1533(11) 1.9799(8) -0.4484(7)
H24A H 2.1944 2.0303 -0.4311
H25A H 2.1960 1.9612 -0.4974
H26A H 2.0769 2.0061 -0.4548
C31A C 2.5311(7) 1.9851(6) -0.3506(6)
H27A H 2.5788 2.0199 -0.3964
H28A H 2.5737 1.9795 -0.3078
C32A C 2.5052(7) 1.8816(6) -0.3675(6)
C33A C 2.4836(7) 1.7968(6) -0.3120(7)
H29A H 2.4804 1.7947 -0.2583
C34A C 2.4680(8) 1.7165(7) -0.3523(9)
H30A H 2.4557 1.6524 -0.3261
C35A C 2.4710(8) 1.7332(8) -0.4276(8)
H31A H 2.4605 1.6851 -0.4594
O1A O 1.6999(5) 1.3807(4) -0.1826(3)
N1A N 1.8639(5) 1.5319(4) -0.3558(4)
N3A N 2.4177(5) 2.0426(5) -0.3293(4)
N4A N 1.7850(5) 1.0848(5) -0.3313(5)
N5A N 1.7763(6) 1.3255(6) -0.1586(4)
N6A N 1.5395(7) 1.4185(5) -0.3737(5)
O2A O 1.8104(5) 1.3733(4) -0.3470(3)
O3A O 2.0919(4) 1.5539(4) -0.3918(3)
O4A O 2.5068(4) 2.1779(4) -0.3124(4)
O5A O 2.1920(4) 2.0429(4) -0.2878(3)
O8A O 1.7755(5) 1.1646(4) -0.3779(3)
O9A O 1.7324(6) 1.0871(4) -0.2638(4)
O10A O 1.8384(6) 1.0106(5) -0.3521(5)
O11A O 1.6051(6) 1.3530(5) -0.4061(4)
O12A O 1.5334(4) 1.4153(4) -0.3001(4)
O13A O 1.4864(8) 1.4823(7) -0.4076(6)
O14A O 1.8021(5) 1.2444(5) -0.1902(4)
O15A O 1.8259(6) 1.3459(6) -0.1079(4)
S1A S 2.4969(3) 1.8563(2) -0.45898(19)
S2A S 1.7966(2) 1.76983(19) -0.31775(18)
Sm1A Sm 1.66081(3) 1.26752(3) -0.28170(2)
O4_2 O 0.4932(4) 0.8221(4) 0.3124(4)
O4A_2 O 1.5068(4) 1.1779(4) -0.3124(4)
Sm1_2 Sm -0.66081(3) -0.26752(3) 0.28170(2)
Sm1A_2 Sm 2.66081(3) 2.26752(3) -0.28170(2)
loop_
_geom_bond_atom_site_label_1
_geom_bond_atom_site_label_2
_geom_bond_site_symmetry_1
_geom_bond_site_symmetry_2
C1 H1 1_555 1_555
C2 C3 1_555 1_555
C3 C4 1_555 1_555
C4 H2 1_555 1_555
C5 C4 1_555 1_555
H3 C5 1_555 1_555
C6 C5 1_555 1_555
H4 C6 1_555 1_555
C7 C6 1_555 1_555
H5 C7 1_555 1_555
C8 C3 1_555 1_555
C9 H6 1_555 1_555
H7 C9 1_555 1_555
C10 C9 1_555 1_555
C11 C10 1_555 1_555
H8 C11 1_555 1_555
C12 C10 1_555 1_555
C13 C12 1_555 1_555
H9 C13 1_555 1_555
C14 C12 1_555 1_555
H10 C14 1_555 1_555
H11 C14 1_555 1_555
H12 C14 1_555 1_555
C15 H13 1_555 1_555
H14 C15 1_555 1_555
C16 C15 1_555 1_555
C17 C16 1_555 1_555
H15 C17 1_555 1_555
C18 C17 1_555 1_555
H16 C18 1_555 1_555
C19 C18 1_555 1_555
H17 C19 1_555 1_555
C20 C21 1_555 1_555
C21 C22 1_555 1_555
C22 H18 1_555 1_555
C23 C22 1_555 1_555
H19 C23 1_555 1_555
C24 C23 1_555 1_555
H20 C24 1_555 1_555
C25 C24 1_555 1_555
H21 C25 1_555 1_555
C26 C21 1_555 1_555
C27 H22 1_555 1_555
H23 C27 1_555 1_555
C28 C13 1_555 1_555
C29 C11 1_555 1_555
C30 C29 1_555 1_555
H24 C30 1_555 1_555
H25 C30 1_555 1_555
H26 C30 1_555 1_555
C31 H27 1_555 1_555
H28 C31 1_555 1_555
C32 C31 1_555 1_555
C33 C32 1_555 1_555
H29 C33 1_555 1_555
C34 C33 1_555 1_555
H30 C34 1_555 1_555
C35 C34 1_555 1_555
H31 C35 1_555 1_555
C36 C37 1_555 1_555
C37 C38 1_555 1_555
C38 H32 1_555 1_555
C39 C38 1_555 1_555
H33 C39 1_555 1_555
C40 C39 1_555 1_555
H34 C40 1_555 1_555
C41 C40 1_555 1_555
H35 C41 1_555 1_555
C42 C37 1_555 1_555
C43 H36 1_555 1_555
H37 C43 1_555 1_555
C44 C43 1_555 1_555
C45 C44 1_555 1_555
C46 C45 1_555 1_555
H38 C46 1_555 1_555
H39 C46 1_555 1_555
H40 C46 1_555 1_555
C47 C45 1_555 1_555
H41 C47 1_555 1_555
C48 H42 1_555 1_555
H43 C48 1_555 1_555
C49 C1 1_555 1_555
O1 N5 1_555 1_555
C50 C1 1_555 1_555
H44 C50 1_555 1_555
C51 C50 1_555 1_555
H45 C51 1_555 1_555
N1 C2 1_555 1_555
N2 C36 1_555 1_555
N3 C20 1_555 1_555
N4 O8 1_555 1_555
N5 O14 1_555 1_555
N6 O11 1_555 1_555
O2 C2 1_555 1_555
O3 C8 1_555 1_555
O4 C20 1_555 1_555
O5 C26 1_555 1_555
O6 C36 1_555 1_555
O7 C42 1_555 1_555
O8 Sm1 1_555 1_555
O9 N4 1_555 1_555
O10 N4 1_555 1_555
O11 Sm1 1_555 1_555
O12 N6 1_555 1_555
O13 N6 1_555 1_555
O14 Sm1 1_555 1_555
O15 N5 1_555 1_555
S1 C32 1_555 1_555
S2 C16 1_555 1_555
S3 C49 1_555 1_555
Sm1 O1 1_555 1_555
C1A H1A 1_555 1_555
C36A C37A 1_555 1_555
C37A C38A 1_555 1_555
C38A H32A 1_555 1_555
C39A C38A 1_555 1_555
H33A C39A 1_555 1_555
C40A C39A 1_555 1_555
H34A C40A 1_555 1_555
C41A C40A 1_555 1_555
H35A C41A 1_555 1_555
C42A C37A 1_555 1_555
C43A H36A 1_555 1_555
H37A C43A 1_555 1_555
C44A C47 1_555 1_555
C45A C44A 1_555 1_555
C46A C45A 1_555 1_555
H38A C46A 1_555 1_555
H39A C46A 1_555 1_555
H40A C46A 1_555 1_555
C47A C44 1_555 1_555
H41A C47A 1_555 1_555
C48A H42A 1_555 1_555
H43A C48A 1_555 1_555
C49A C1A 1_555 1_555
C50A C1A 1_555 1_555
H44A C50A 1_555 1_555
C51A C50A 1_555 1_555
H45A C51A 1_555 1_555
N2A C36A 1_555 1_555
O6A C36A 1_555 1_555
O7A C42A 1_555 1_555
S3A C49A 1_555 1_555
C2A C3A 1_555 1_555
C3A C4A 1_555 1_555
C4A H2A 1_555 1_555
C5A C4A 1_555 1_555
H3A C5A 1_555 1_555
C6A C5A 1_555 1_555
H4A C6A 1_555 1_555
C7A C6A 1_555 1_555
H5A C7A 1_555 1_555
C8A C3A 1_555 1_555
C9A H6A 1_555 1_555
H7A C9A 1_555 1_555
C10A C9A 1_555 1_555
C11A C10A 1_555 1_555
H8A C11A 1_555 1_555
C12A C10A 1_555 1_555
C13A C12A 1_555 1_555
H9A C13A 1_555 1_555
C14A C12A 1_555 1_555
H10A C14A 1_555 1_555
H11A C14A 1_555 1_555
H12A C14A 1_555 1_555
C15A H13A 1_555 1_555
H14A C15A 1_555 1_555
C16A C15A 1_555 1_555
C17A C16A 1_555 1_555
H15A C17A 1_555 1_555
C18A C17A 1_555 1_555
H16A C18A 1_555 1_555
C19A C18A 1_555 1_555
H17A C19A 1_555 1_555
C20A C21A 1_555 1_555
C21A C22A 1_555 1_555
C22A H18A 1_555 1_555
C23A C22A 1_555 1_555
H19A C23A 1_555 1_555
C24A C23A 1_555 1_555
H20A C24A 1_555 1_555
C25A C24A 1_555 1_555
H21A C25A 1_555 1_555
C26A C21A 1_555 1_555
C27A H22A 1_555 1_555
H23A C27A 1_555 1_555
C28A C13A 1_555 1_555
C29A C11A 1_555 1_555
C30A C29A 1_555 1_555
H24A C30A 1_555 1_555
H25A C30A 1_555 1_555
H26A C30A 1_555 1_555
C31A H27A 1_555 1_555
H28A C31A 1_555 1_555
C32A C31A 1_555 1_555
C33A C32A 1_555 1_555
H29A C33A 1_555 1_555
C34A C33A 1_555 1_555
H30A C34A 1_555 1_555
C35A C34A 1_555 1_555
H31A C35A 1_555 1_555
O1A N5A 1_555 1_555
N1A C2A 1_555 1_555
N3A C20A 1_555 1_555
N4A O8A 1_555 1_555
N5A O14A 1_555 1_555
N6A O11A 1_555 1_555
O2A C2A 1_555 1_555
O3A C8A 1_555 1_555
O4A C20A 1_555 1_555
O5A C26A 1_555 1_555
O8A Sm1A 1_555 1_555
O9A N4A 1_555 1_555
O10A N4A 1_555 1_555
O11A Sm1A 1_555 1_555
O12A N6A 1_555 1_555
O13A N6A 1_555 1_555
O14A Sm1A 1_555 1_555
O15A N5A 1_555 1_555
S1A C32A 1_555 1_555
S2A C16A 1_555 1_555
Sm1A O6A 1_555 1_555
O4_2 Sm1 1_555 1_555
O4A_2 Sm1A 1_555 1_555
Sm1_2 O4 1_555 1_555
Sm1A_2 O4A 1_555 1_555
C7 C8 1_555 1_555
C9 O3 1_555 1_555
C15 N1 1_555 1_555
C19 S2 1_555 1_555
C25 C26 1_555 1_555
C27 C28 1_555 1_555
C27 O5 1_555 1_555
C28 C29 1_555 1_555
C31 N3 1_555 1_555
C35 S1 1_555 1_555
C41 C42 1_555 1_555
C43 O7 1_555 1_555
C48 C49 1_555 1_555
C48 N2 1_555 1_555
C51 S3 1_555 1_555
O2 Sm1 1_555 1_555
O6 Sm1 1_555 1_555
O9 Sm1 1_555 1_555
O12 Sm1 1_555 1_555
C41A C42A 1_555 1_555
C43A C44A 1_555 1_555
C43A O7A 1_555 1_555
C45A C47A 1_555 1_555
C48A C49A 1_555 1_555
C48A N2A 1_555 1_555
C51A S3A 1_555 1_555
C7A C8A 1_555 1_555
C9A O3A 1_555 1_555
C15A N1A 1_555 1_555
C19A S2A 1_555 1_555
C25A C26A 1_555 1_555
C27A C28A 1_555 1_555
C27A O5A 1_555 1_555
C28A C29A 1_555 1_555
C31A N3A 1_555 1_555
C35A S1A 1_555 1_555
O1A Sm1A 1_555 1_555
O2A Sm1A 1_555 1_555
O9A Sm1A 1_555 1_555
O12A Sm1A 1_555 1_555

#END
