
#######################################################################
#
#                 Cambridge Crystallographic Data Centre
#                                CCDC 
#
#######################################################################
#
# If this CIF has been generated from an entry in the Cambridge 
# Structural Database, then it will include bibliographic, chemical, 
# crystal, experimental, refinement or atomic coordinate data resulting 
# from the CCDC's data processing and validation procedures.
#
#######################################################################

data_MIRJII
_symmetry_cell_setting           monoclinic
_symmetry_space_group_name_H-M   'C 2/c'
_symmetry_Int_Tables_number      15
_space_group_name_Hall           '-C 2yn'
loop_
_symmetry_equiv_pos_site_id
_symmetry_equiv_pos_as_xyz
1 x,y,z
2 -x,y,1/2-z
3 1/2+x,1/2+y,z
4 1/2-x,1/2+y,1/2-z
5 -x,-y,-z
6 x,-y,1/2+z
7 1/2-x,1/2-y,-z
8 1/2+x,1/2-y,1/2+z
_cell_length_a                   38.949(2)
_cell_length_b                   11.2561(6)
_cell_length_c                   14.4162(8)
_cell_angle_alpha                90
_cell_angle_beta                 105.2620(10)
_cell_angle_gamma                90
_cell_volume                     6097.36
loop_
_atom_site_label
_atom_site_type_symbol
_atom_site_fract_x
_atom_site_fract_y
_atom_site_fract_z
C1 C 0.08039(6) 0.8606(2) -0.11540(15)
C2 C 0.06037(6) 0.9668(2) -0.14343(17)
H1 H 0.0709 1.0316 -0.1678
C3 C 0.02636(7) 0.9769(2) -0.13583(18)
H2 H 0.0138 1.0490 -0.1545
C4 C 0.00944(6) 0.8829(2) -0.10095(16)
C5 C -0.02607(7) 0.8911(3) -0.09305(19)
H3 H -0.0395 0.9611 -0.1143
C6 C -0.04124(7) 0.8003(3) -0.0554(2)
H4 H -0.0651 0.8071 -0.0508
C7 C -0.02164(7) 0.6966(3) -0.0234(2)
H5 H -0.0321 0.6340 0.0039
C8 C 0.01265(7) 0.6850(2) -0.03140(18)
H6 H 0.0256 0.6144 -0.0094
C9 C 0.02899(6) 0.7768(2) -0.07186(16)
C10 C 0.06489(6) 0.7669(2) -0.07991(16)
C11 C 0.08329(6) 0.6500(2) -0.04934(16)
C12 C 0.07375(6) 0.5541(2) -0.11677(16)
C13 C 0.04965(6) 0.5691(2) -0.20973(18)
H7 H 0.0393 0.6448 -0.2281
C14 C 0.04128(7) 0.4757(2) -0.27280(19)
H8 H 0.0253 0.4880 -0.3343
C15 C 0.05592(7) 0.3625(3) -0.2483(2)
H9 H 0.0498 0.2985 -0.2925
C16 C 0.07905(7) 0.3452(2) -0.1604(2)
H10 H 0.0891 0.2687 -0.1438
C17 C 0.08845(6) 0.4394(2) -0.09338(18)
C18 C 0.11175(7) 0.4224(2) -0.00090(19)
H11 H 0.1217 0.3459 0.0167
C19 C 0.12029(6) 0.5132(2) 0.06343(18)
H12 H 0.1360 0.4983 0.1249
C20 C 0.10636(6) 0.6302(2) 0.04127(16)
C21 C 0.13172(6) 0.9706(2) -0.14088(17)
H13 H 0.1261 1.0283 -0.0951
H14 H 0.1195 0.9977 -0.2067
C22 C 0.17189(6) 0.9718(2) -0.12930(17)
C23 C 0.11937(6) 0.7687(2) -0.20432(16)
H15 H 0.1226 0.8161 -0.2592
H16 H 0.0966 0.7253 -0.2263
C24 C 0.14960(6) 0.6789(2) -0.17540(16)
C25 C 0.10159(6) 0.8310(2) 0.11937(17)
H17 H 0.0974 0.8364 0.1840
H18 H 0.0781 0.8324 0.0715
C26 C 0.12307(6) 0.9402(2) 0.10355(16)
C27 C 0.14757(6) 0.6905(2) 0.19759(16)
H19 H 0.1412 0.6161 0.2257
H20 H 0.1485 0.7545 0.2453
C28 C 0.18458(6) 0.6756(2) 0.18303(16)
Cu1 Cu 0.156306(7) 0.78572(2) -0.002625(19)
N1 N 0.11709(5) 0.85184(16) -0.12439(13)
N2 N 0.11905(5) 0.71852(17) 0.11144(14)
Na1 Na 0.22012(3) 0.44127(9) 0.30759(7)
Na2 Na 0.26661(3) 0.69384(9) 0.31755(8)
O1 O 0.18325(5) 1.05454(16) -0.17020(14)
O2 O 0.19028(4) 0.89292(15) -0.07662(12)
O3 O 0.16200(4) 0.65723(14) -0.08600(11)
O4 O 0.15967(4) 0.62913(15) -0.24008(11)
O5 O 0.11329(5) 1.03865(15) 0.12437(12)
O6 O 0.15018(4) 0.92457(14) 0.07059(11)
O7 O 0.20757(4) 0.63430(15) 0.25215(12)
O8 O 0.19077(4) 0.70902(15) 0.10451(11)
O9 O 0.33032(5) 0.70459(16) 0.37350(13)
H21 H 0.3323 0.7631 0.3379
H22 H 0.3502 0.6695 0.3938
O10 O 0.25583(5) 0.89967(18) 0.33431(15)
H23 H 0.2337 0.9104 0.3276
O11 O 0.26459(5) 0.74181(16) 0.15441(13)
H24 H 0.2440 0.7264 0.1184
H25 H 0.2797 0.6999 0.1358
O12 O 0.27690(5) 0.51004(18) 0.39340(15)
H26 H 0.2939 0.4718 0.3807
H27 H 0.2795 0.5138 0.4538
O13 O 0.21366(6) 0.5190(2) 0.47363(15)
H28 H 0.1949 0.4885 0.4828
H29 H 0.2665(10) 0.930(3) 0.387(3)
H30 H 0.2004(10) 0.582(4) 0.465(3)
Na1C Na 0.27988(3) 0.94127(9) 0.19241(7)
Na1E Na 0.22012(3) 0.55873(9) -0.19241(7)
O4E O 0.15967(4) 0.37087(15) 0.25992(11)
O10C O 0.24417(5) 0.39967(18) 0.16569(15)
O11C O 0.23541(5) 0.24181(16) 0.34559(13)
O14 O 0.31641(14) 0.2430(3) 0.0500(3)
H31 H 0.3148 0.2986 0.0900
H32 H 0.3209 0.2577 -0.0058
loop_
_geom_bond_atom_site_label_1
_geom_bond_atom_site_label_2
_geom_bond_site_symmetry_1
_geom_bond_site_symmetry_2
C1 C2 1_555 1_555
C2 H1 1_555 1_555
C3 C2 1_555 1_555
H2 C3 1_555 1_555
C4 C3 1_555 1_555
C5 C4 1_555 1_555
H3 C5 1_555 1_555
C6 C5 1_555 1_555
H4 C6 1_555 1_555
C7 C6 1_555 1_555
H5 C7 1_555 1_555
C8 C7 1_555 1_555
H6 C8 1_555 1_555
C9 C4 1_555 1_555
C10 C1 1_555 1_555
C11 C10 1_555 1_555
C12 C11 1_555 1_555
C13 C12 1_555 1_555
H7 C13 1_555 1_555
C14 C13 1_555 1_555
H8 C14 1_555 1_555
C15 C14 1_555 1_555
H9 C15 1_555 1_555
C16 C15 1_555 1_555
H10 C16 1_555 1_555
C17 C12 1_555 1_555
C18 C17 1_555 1_555
H11 C18 1_555 1_555
C19 C18 1_555 1_555
H12 C19 1_555 1_555
C20 C11 1_555 1_555
C21 H13 1_555 1_555
H14 C21 1_555 1_555
C22 C21 1_555 1_555
C23 H15 1_555 1_555
H16 C23 1_555 1_555
C24 C23 1_555 1_555
C25 H17 1_555 1_555
H18 C25 1_555 1_555
C26 C25 1_555 1_555
C27 H19 1_555 1_555
H20 C27 1_555 1_555
C28 C27 1_555 1_555
Cu1 N1 1_555 1_555
N1 C1 1_555 1_555
N2 C20 1_555 1_555
Na1 O7 1_555 1_555
Na2 O7 1_555 1_555
O1 C22 1_555 1_555
O2 C22 1_555 1_555
O3 C24 1_555 1_555
O4 C24 1_555 1_555
O5 C26 1_555 1_555
O6 C26 1_555 1_555
O7 C28 1_555 1_555
O8 C28 1_555 1_555
O9 Na2 1_555 1_555
H21 O9 1_555 1_555
H22 O9 1_555 1_555
O10 Na2 1_555 1_555
H23 O10 1_555 1_555
O11 Na2 1_555 1_555
H24 O11 1_555 1_555
H25 O11 1_555 1_555
O12 Na1 1_555 1_555
H26 O12 1_555 1_555
H27 O12 1_555 1_555
O13 Na1 1_555 1_555
H28 O13 1_555 1_555
H29 O10 1_555 1_555
H30 O13 1_555 1_555
O14 H31 1_555 1_555
H32 O14 1_555 1_555
Na1C O10 1_555 1_555
Na1E O4 1_555 1_555
O4E Na1 1_555 1_555
O10C Na1 1_555 1_555
O11C Na1 1_555 1_555
C8 C9 1_555 1_555
C9 C10 1_555 1_555
C16 C17 1_555 1_555
C19 C20 1_555 1_555
C21 N1 1_555 1_555
C23 N1 1_555 1_555
C25 N2 1_555 1_555
C27 N2 1_555 1_555
Cu1 N2 1_555 1_555
Cu1 O2 1_555 1_555
Cu1 O3 1_555 1_555
Cu1 O6 1_555 1_555
Cu1 O8 1_555 1_555
Na2 O12 1_555 1_555
O11 Na1C 1_555 1_555

#END
