
#######################################################################
#
#                 Cambridge Crystallographic Data Centre
#                                CCDC 
#
#######################################################################
#
# If this CIF has been generated from an entry in the Cambridge 
# Structural Database, then it will include bibliographic, chemical, 
# crystal, experimental, refinement or atomic coordinate data resulting 
# from the CCDC's data processing and validation procedures.
#
#######################################################################

data_MIRJOO
_symmetry_cell_setting           orthorhombic
_symmetry_space_group_name_H-M   'P b c a'
_symmetry_Int_Tables_number      61
_space_group_name_Hall           '-P 2ac 2ab'
loop_
_symmetry_equiv_pos_site_id
_symmetry_equiv_pos_as_xyz
1 x,y,z
2 1/2-x,-y,1/2+z
3 -x,1/2+y,1/2-z
4 1/2+x,1/2-y,-z
5 -x,-y,-z
6 1/2+x,y,1/2-z
7 x,1/2-y,1/2+z
8 1/2-x,1/2+y,z
_cell_length_a                   10.554(2)
_cell_length_b                   14.869(3)
_cell_length_c                   38.824(8)
_cell_angle_alpha                90
_cell_angle_beta                 90
_cell_angle_gamma                90
_cell_volume                     6092.55
loop_
_atom_site_label
_atom_site_type_symbol
_atom_site_fract_x
_atom_site_fract_y
_atom_site_fract_z
Co1 Co 0.55624(3) 0.84127(2) 0.157634(9)
Co2 Co 0.33304(4) 0.50376(2) 0.213604(9)
C1 C 0.5574(2) 0.93527(17) 0.08470(7)
C2 C 0.6473(3) 0.97529(19) 0.06219(7)
H1 H 0.7027 1.0205 0.0707
C3 C 0.6553(3) 0.94970(19) 0.02840(7)
H2 H 0.7178 0.9763 0.0140
C4 C 0.5727(3) 0.88473(18) 0.01448(7)
C5 C 0.5802(3) 0.8567(2) -0.02011(7)
H3 H 0.6458 0.8798 -0.0343
C6 C 0.4955(3) 0.7971(2) -0.03364(8)
H4 H 0.5013 0.7798 -0.0571
C7 C 0.3993(3) 0.7615(2) -0.01251(8)
H5 H 0.3402 0.7199 -0.0218
C8 C 0.3901(3) 0.7863(2) 0.02134(8)
H6 H 0.3251 0.7610 0.0352
C9 C 0.4758(3) 0.84909(18) 0.03628(7)
C10 C 0.4695(3) 0.87504(18) 0.07178(7)
C11 C 0.3592(3) 0.83834(17) 0.09216(7)
C12 C 0.3644(3) 0.76576(18) 0.11498(7)
C13 C 0.2508(3) 0.73502(19) 0.13074(7)
H7 H 0.2546 0.6862 0.1465
C14 C 0.1364(3) 0.77364(19) 0.12382(8)
H8 H 0.0622 0.7507 0.1345
C15 C 0.1268(3) 0.84698(18) 0.10107(7)
C16 C 0.0086(3) 0.8877(2) 0.09318(8)
H9 H -0.0667 0.8650 0.1034
C17 C 0.0014(3) 0.9588(2) 0.07116(9)
H10 H -0.0784 0.9853 0.0661
C18 C 0.1128(3) 0.9929(2) 0.05587(8)
H11 H 0.1081 1.0434 0.0409
C19 C 0.2273(3) 0.9538(2) 0.06240(8)
H12 H 0.3009 0.9769 0.0514
C20 C 0.2395(3) 0.87945(18) 0.08516(7)
C21 C 0.6806(2) 1.00073(18) 0.13222(7)
H13 H 0.6843 1.0637 0.1240
H14 H 0.7515 0.9675 0.1214
C22 C 0.6977(3) 0.99968(19) 0.17094(7)
C23 C 0.4505(2) 1.01943(18) 0.13083(7)
H15 H 0.3960 1.0286 0.1104
H16 H 0.4845 1.0788 0.1377
C24 C 0.3695(3) 0.98268(18) 0.16011(7)
C25 C 0.5830(3) 0.70755(19) 0.10043(7)
H17 H 0.5635 0.7397 0.0787
H18 H 0.5827 0.6422 0.0955
C26 C 0.7149(3) 0.73545(19) 0.11303(8)
C27 C 0.4758(3) 0.65142(17) 0.15099(7)
H19 H 0.5523 0.6135 0.1484
H20 H 0.4014 0.6140 0.1450
C28 C 0.4648(2) 0.67993(18) 0.18821(7)
N1 N 0.5583(2) 0.95974(15) 0.12108(6)
N2 N 0.4838(2) 0.72792(15) 0.12627(6)
O1 O 0.64568(19) 0.93588(13) 0.18765(5)
O2 O 0.7648(2) 1.05879(17) 0.18410(5)
O3 O 0.38866(18) 0.90324(12) 0.16991(5)
O4 O 0.28758(19) 1.03414(13) 0.17222(5)
O5 O 0.8078(2) 0.70224(15) 0.09892(7)
O6 O 0.71956(18) 0.79263(13) 0.13773(5)
O7 O 0.51342(19) 0.75507(12) 0.19683(5)
O8 O 0.41694(19) 0.62780(13) 0.20968(5)
O9 O 0.19642(18) 0.56147(13) 0.24703(5)
H21 H 0.2116 0.5589 0.2686
H22 H 0.1776 0.6158 0.2424
O10 O 0.46339(18) 0.46878(14) 0.25119(5)
H23 H 0.4324 0.4632 0.2713
H24 H 0.5323 0.4976 0.2533
O11 O 0.2484(2) 0.37971(14) 0.22751(6)
H25 H 0.1937 0.3694 0.2119
H26 H 0.3019 0.3383 0.2238
O12 O 0.4607(3) 0.44557(16) 0.17830(6)
H27 H 0.5303 0.4742 0.1797
H28 H 0.4742 0.3929 0.1860
Co2G Co 0.16696(4) 1.00376(2) 0.213604(9)
O4G O 0.21242(19) 0.53414(13) 0.17222(5)
O13 O 0.0964(2) 0.73415(15) 0.23531(6)
H29 H 0.0604 0.7476 0.2543
H30 H 0.0394 0.7268 0.2199
O14 O 0.8875(3) 0.8061(3) 0.19607(10)
H31 H 0.8498 0.8505 0.2054
H32 H 0.8390 0.8018 0.1786
O15 O 0.8459(11) 0.1268(7) 0.0278(3)
H33 H 0.8070 0.1455 0.0459
H34 H 0.9108 0.1597 0.0248
loop_
_geom_bond_atom_site_label_1
_geom_bond_atom_site_label_2
_geom_bond_site_symmetry_1
_geom_bond_site_symmetry_2
Co1 N1 1_555 1_555
Co2 O8 1_555 1_555
C1 C2 1_555 1_555
C2 H1 1_555 1_555
C3 C2 1_555 1_555
H2 C3 1_555 1_555
C4 C3 1_555 1_555
C5 C4 1_555 1_555
H3 C5 1_555 1_555
C6 C5 1_555 1_555
H4 C6 1_555 1_555
C7 C6 1_555 1_555
H5 C7 1_555 1_555
C8 C7 1_555 1_555
H6 C8 1_555 1_555
C9 C4 1_555 1_555
C10 C1 1_555 1_555
C11 C10 1_555 1_555
C12 C11 1_555 1_555
C13 C12 1_555 1_555
H7 C13 1_555 1_555
C14 C13 1_555 1_555
H8 C14 1_555 1_555
C15 C14 1_555 1_555
C16 C15 1_555 1_555
H9 C16 1_555 1_555
C17 C16 1_555 1_555
H10 C17 1_555 1_555
C18 C17 1_555 1_555
H11 C18 1_555 1_555
C19 C18 1_555 1_555
H12 C19 1_555 1_555
C20 C11 1_555 1_555
C21 H13 1_555 1_555
H14 C21 1_555 1_555
C22 C21 1_555 1_555
C23 H15 1_555 1_555
H16 C23 1_555 1_555
C24 C23 1_555 1_555
C25 H17 1_555 1_555
H18 C25 1_555 1_555
C26 C25 1_555 1_555
C27 H19 1_555 1_555
H20 C27 1_555 1_555
C28 C27 1_555 1_555
N1 C1 1_555 1_555
N2 Co1 1_555 1_555
O1 Co1 1_555 1_555
O2 C22 1_555 1_555
O3 Co1 1_555 1_555
O4 C24 1_555 1_555
O5 C26 1_555 1_555
O6 Co1 1_555 1_555
O7 Co1 1_555 1_555
O8 C28 1_555 1_555
O9 Co2 1_555 1_555
H21 O9 1_555 1_555
H22 O9 1_555 1_555
O10 Co2 1_555 1_555
H23 O10 1_555 1_555
H24 O10 1_555 1_555
O11 Co2 1_555 1_555
H25 O11 1_555 1_555
H26 O11 1_555 1_555
O12 Co2 1_555 1_555
H27 O12 1_555 1_555
H28 O12 1_555 1_555
O13 H29 1_555 1_555
H30 O13 1_555 1_555
O14 H31 1_555 1_555
H32 O14 1_555 1_555
O15 H33 1_555 1_555
H34 O15 1_555 1_555
Co2G O4 1_555 1_555
O4G Co2 1_555 1_555
C8 C9 1_555 1_555
C9 C10 1_555 1_555
C12 N2 1_555 1_555
C15 C20 1_555 1_555
C19 C20 1_555 1_555
C21 N1 1_555 1_555
C22 O1 1_555 1_555
C23 N1 1_555 1_555
C24 O3 1_555 1_555
C25 N2 1_555 1_555
C26 O6 1_555 1_555
C27 N2 1_555 1_555
C28 O7 1_555 1_555

#END
