
#######################################################################
#
#                 Cambridge Crystallographic Data Centre
#                                CCDC 
#
#######################################################################
#
# If this CIF has been generated from an entry in the Cambridge 
# Structural Database, then it will include bibliographic, chemical, 
# crystal, experimental, refinement or atomic coordinate data resulting 
# from the CCDC's data processing and validation procedures.
#
#######################################################################

data_MIRKAB
_symmetry_cell_setting           orthorhombic
_symmetry_space_group_name_H-M   'P b c a'
_symmetry_Int_Tables_number      61
_space_group_name_Hall           '-P 2ac 2ab'
loop_
_symmetry_equiv_pos_site_id
_symmetry_equiv_pos_as_xyz
1 x,y,z
2 1/2-x,-y,1/2+z
3 -x,1/2+y,1/2-z
4 1/2+x,1/2-y,-z
5 -x,-y,-z
6 1/2+x,y,1/2-z
7 x,1/2-y,1/2+z
8 1/2-x,1/2+y,z
_cell_length_a                   10.5108(7)
_cell_length_b                   14.7187(9)
_cell_length_c                   39.043(2)
_cell_angle_alpha                90
_cell_angle_beta                 90
_cell_angle_gamma                90
_cell_volume                     6040.16
loop_
_atom_site_label
_atom_site_type_symbol
_atom_site_fract_x
_atom_site_fract_y
_atom_site_fract_z
Ni1 Ni 0.55332(5) 0.83846(3) 0.157620(12)
Ni2 Ni 0.32990(5) 0.50299(3) 0.214296(13)
C1 C 0.5560(4) 0.9332(3) 0.08570(10)
C2 C 0.6459(4) 0.9745(3) 0.06349(11)
H1 H 0.7007 1.0185 0.0721
C3 C 0.6534(4) 0.9509(3) 0.02996(11)
H2 H 0.7148 0.9779 0.0162
C4 C 0.5694(4) 0.8858(3) 0.01555(11)
C5 C 0.5765(5) 0.8593(3) -0.01927(12)
H3 H 0.6411 0.8824 -0.0330
C6 C 0.4906(6) 0.8005(4) -0.03285(13)
H4 H 0.4954 0.7843 -0.0558
C7 C 0.3947(6) 0.7646(4) -0.01200(13)
H5 H 0.3359 0.7246 -0.0215
C8 C 0.3854(5) 0.7865(4) 0.02153(13)
H6 H 0.3213 0.7608 0.0348
C9 C 0.4733(4) 0.8490(3) 0.03685(11)
C10 C 0.4668(4) 0.8733(3) 0.07223(10)
C11 C 0.3570(4) 0.8363(3) 0.09225(10)
C12 C 0.3615(4) 0.7643(3) 0.11537(10)
C13 C 0.2480(4) 0.7326(3) 0.13083(11)
H7 H 0.2521 0.6844 0.1462
C14 C 0.1327(5) 0.7710(3) 0.12375(12)
H8 H 0.0598 0.7481 0.1341
C15 C 0.1229(4) 0.8448(3) 0.10087(12)
C16 C 0.0037(5) 0.8859(3) 0.09301(14)
H9 H -0.0703 0.8634 0.1030
C17 C -0.0033(5) 0.9577(4) 0.07104(16)
H10 H -0.0816 0.9840 0.0659
C18 C 0.1086(5) 0.9918(4) 0.05618(15)
H11 H 0.1041 1.0417 0.0416
C19 C 0.2236(5) 0.9529(3) 0.06279(13)
H12 H 0.2959 0.9765 0.0523
C20 C 0.2362(4) 0.8778(3) 0.08513(11)
C21 C 0.6799(4) 0.9954(3) 0.13309(11)
H13 H 0.6833 1.0578 0.1252
H14 H 0.7497 0.9627 0.1225
C22 C 0.6968(4) 0.9939(3) 0.17173(12)
C23 C 0.4505(4) 1.0154(3) 0.13218(11)
H15 H 0.3963 1.0251 0.1124
H16 H 0.4855 1.0738 0.1388
C24 C 0.3697(4) 0.9794(3) 0.16142(10)
C25 C 0.5832(4) 0.7072(3) 0.10162(11)
H17 H 0.5667 0.7412 0.0808
H18 H 0.5811 0.6431 0.0960
C26 C 0.7147(4) 0.7318(3) 0.11512(12)
C27 C 0.4750(4) 0.6490(3) 0.15135(11)
H19 H 0.5504 0.6117 0.1485
H20 H 0.4018 0.6121 0.1455
C28 C 0.4648(4) 0.6777(3) 0.18857(10)
N1 N 0.5576(3) 0.9540(2) 0.12202(8)
N2 N 0.4822(3) 0.7273(2) 0.12701(8)
O1 O 0.6412(3) 0.9299(2) 0.18793(7)
O2 O 0.7647(4) 1.0523(3) 0.18494(9)
O3 O 0.3871(3) 0.89819(19) 0.17105(8)
O4 O 0.2891(3) 1.0316(2) 0.17375(8)
O5 O 0.8078(3) 0.6992(2) 0.10076(10)
O6 O 0.7185(3) 0.7865(2) 0.14044(8)
O7 O 0.5180(3) 0.75183(19) 0.19655(7)
O8 O 0.4156(3) 0.6261(2) 0.20992(7)
O9 O 0.1977(3) 0.5628(2) 0.24665(8)
H21 H 0.2129 0.5603 0.2682
H22 H 0.1789 0.6172 0.2421
O10 O 0.4601(3) 0.4708(2) 0.25085(8)
H23 H 0.4291 0.4652 0.2710
H24 H 0.5290 0.4997 0.2529
O11 O 0.2463(3) 0.3800(2) 0.22927(8)
H25 H 0.1916 0.3697 0.2137
H26 H 0.2998 0.3386 0.2256
O12 O 0.4518(4) 0.4408(3) 0.17931(9)
H27 H 0.5213 0.4694 0.1807
H28 H 0.4652 0.3881 0.1870
Ni2G Ni 0.17010(5) 1.00299(3) 0.214296(13)
O4G O 0.2109(3) 0.5316(2) 0.17375(8)
O13 O 0.0925(3) 0.7363(2) 0.23586(8)
H29 H 0.0565 0.7498 0.2549
H30 H 0.0355 0.7290 0.2205
O14 O 0.8809(4) 0.8082(3) 0.19870(12)
H31 H 0.8296 0.8019 0.1820
H32 H 0.8401 0.8193 0.2171
loop_
_geom_bond_atom_site_label_1
_geom_bond_atom_site_label_2
_geom_bond_site_symmetry_1
_geom_bond_site_symmetry_2
Ni1 N1 1_555 1_555
Ni2 O8 1_555 1_555
C1 C2 1_555 1_555
C2 H1 1_555 1_555
C3 C2 1_555 1_555
H2 C3 1_555 1_555
C4 C3 1_555 1_555
C5 C4 1_555 1_555
H3 C5 1_555 1_555
C6 C5 1_555 1_555
H4 C6 1_555 1_555
C7 C6 1_555 1_555
H5 C7 1_555 1_555
C8 C7 1_555 1_555
H6 C8 1_555 1_555
C9 C4 1_555 1_555
C10 C1 1_555 1_555
C11 C10 1_555 1_555
C12 C11 1_555 1_555
C13 C12 1_555 1_555
H7 C13 1_555 1_555
C14 C13 1_555 1_555
H8 C14 1_555 1_555
C15 C14 1_555 1_555
C16 C15 1_555 1_555
H9 C16 1_555 1_555
C17 C16 1_555 1_555
H10 C17 1_555 1_555
C18 C17 1_555 1_555
H11 C18 1_555 1_555
C19 C18 1_555 1_555
H12 C19 1_555 1_555
C20 C11 1_555 1_555
C21 H13 1_555 1_555
H14 C21 1_555 1_555
C22 C21 1_555 1_555
C23 H15 1_555 1_555
H16 C23 1_555 1_555
C24 C23 1_555 1_555
C25 H17 1_555 1_555
H18 C25 1_555 1_555
C26 C25 1_555 1_555
C27 H19 1_555 1_555
H20 C27 1_555 1_555
C28 C27 1_555 1_555
N1 C1 1_555 1_555
N2 Ni1 1_555 1_555
O1 Ni1 1_555 1_555
O2 C22 1_555 1_555
O3 Ni1 1_555 1_555
O4 C24 1_555 1_555
O5 C26 1_555 1_555
O6 Ni1 1_555 1_555
O7 Ni1 1_555 1_555
O8 C28 1_555 1_555
O9 Ni2 1_555 1_555
H21 O9 1_555 1_555
H22 O9 1_555 1_555
O10 Ni2 1_555 1_555
H23 O10 1_555 1_555
H24 O10 1_555 1_555
O11 Ni2 1_555 1_555
H25 O11 1_555 1_555
H26 O11 1_555 1_555
O12 Ni2 1_555 1_555
H27 O12 1_555 1_555
H28 O12 1_555 1_555
O13 H29 1_555 1_555
H30 O13 1_555 1_555
O14 H31 1_555 1_555
H32 O14 1_555 1_555
Ni2G O4 1_555 1_555
O4G Ni2 1_555 1_555
C8 C9 1_555 1_555
C9 C10 1_555 1_555
C12 N2 1_555 1_555
C15 C20 1_555 1_555
C19 C20 1_555 1_555
C21 N1 1_555 1_555
C22 O1 1_555 1_555
C23 N1 1_555 1_555
C24 O3 1_555 1_555
C25 N2 1_555 1_555
C26 O6 1_555 1_555
C27 N2 1_555 1_555
C28 O7 1_555 1_555

#END
