
#######################################################################
#
#                 Cambridge Crystallographic Data Centre
#                                CCDC 
#
#######################################################################
#
# If this CIF has been generated from an entry in the Cambridge 
# Structural Database, then it will include bibliographic, chemical, 
# crystal, experimental, refinement or atomic coordinate data resulting 
# from the CCDC's data processing and validation procedures.
#
#######################################################################

data_MIRLEF
_symmetry_cell_setting           orthorhombic
_symmetry_space_group_name_H-M   'A b m 2'
_symmetry_Int_Tables_number      39
_space_group_name_Hall           'A 2 -2b'
loop_
_symmetry_equiv_pos_site_id
_symmetry_equiv_pos_as_xyz
1 x,y,z
2 -x,-y,z
3 x,1/2-y,z
4 -x,1/2+y,z
5 x,1/2+y,1/2+z
6 -x,1/2-y,1/2+z
7 x,-y,1/2+z
8 -x,y,1/2+z
_cell_length_a                   7.0745(10)
_cell_length_b                   18.4246(10)
_cell_length_c                   13.1383(10)
_cell_angle_alpha                90
_cell_angle_beta                 90
_cell_angle_gamma                90
_cell_volume                     1712.51
loop_
_atom_site_label
_atom_site_type_symbol
_atom_site_fract_x
_atom_site_fract_y
_atom_site_fract_z
U1 U 0.50284(8) 0.7500 0.2457
Cs1 Cs 0.02689(17) 0.7500 0.03417(19)
Cs2 Cs 0.0000 0.5000 -0.0065(2)
O1 O 0.565(2) 0.7500 0.3756(11)
O2 O 0.463(2) 0.7500 0.1125(12)
O3 O 0.3796(13) 0.6293(4) 0.2683(7)
O4 O 0.212(2) 0.6118(5) 0.1297(10)
O5 O 0.2487(9) 0.3294(4) 0.2151(9)
O6 O 0.0509(13) 0.3675(5) 0.3377(9)
O7 O 0.157(2) 0.7500 0.2826(9)
H1 H 0.09(2) 0.712(6) 0.301(15)
O8 O 0.302(3) 0.3823(9) -0.0094(13)
H2 H 0.308(19) 0.352(5) -0.060(5)
H3 H 0.367(14) 0.369(7) 0.041(5)
C1 C 0.2940(16) 0.5920(6) 0.2071(12)
C2 C 0.2627(15) 0.5154(6) 0.2365(17)
C3 C 0.2310(16) 0.4538(6) 0.2550(13)
C4 C 0.1678(19) 0.3771(6) 0.2748(9)
U1A U 0.49716(8) 0.2500 0.2457
U1A_2 U 0.49716(8) 1.2500 0.2457
Cs2F Cs 0.0000 0.5000 0.4935(2)
Cs2B Cs 0.0000 1.0000 -0.0065(2)
Cs2D Cs 0.0000 1.0000 0.4935(2)
O3B O 0.3796(13) 0.8707(4) 0.2683(7)
O4B O 0.212(2) 0.8882(5) 0.1297(10)
O4A O -0.212(2) 0.3882(5) 0.1297(10)
O5B O 0.2487(9) 1.1706(4) 0.2151(9)
O5A O 0.7513(9) 0.6706(4) 0.2151(9)
O5C O 0.7513(9) 0.8294(4) 0.2151(9)
O6B O 0.0509(13) 1.1325(5) 0.3377(9)
O6F O 0.0509(13) 0.6325(5) -0.1623(9)
O6G O -0.0509(13) 0.3675(5) -0.1623(9)
H1B H 0.09(2) 0.788(6) 0.301(15)
O8A O -0.302(3) 0.6177(9) -0.0094(13)
H2A H -0.308(19) 0.648(5) -0.060(5)
H3A H -0.367(14) 0.631(7) 0.041(5)
C1B C 0.2940(16) 0.9080(6) 0.2071(12)
C2B C 0.2627(15) 0.9846(6) 0.2365(17)
C3B C 0.2310(16) 1.0462(6) 0.2550(13)
C4B C 0.1678(19) 1.1229(6) 0.2748(9)
loop_
_geom_bond_atom_site_label_1
_geom_bond_atom_site_label_2
_geom_bond_site_symmetry_1
_geom_bond_site_symmetry_2
U1 O1 1_555 1_555
Cs1 O4 1_555 1_555
Cs2 O4 1_555 1_555
O2 U1 1_555 1_555
O3 U1 1_555 1_555
O4 C1 1_555 1_555
O5 C4 1_555 1_555
O6 C4 1_555 1_555
O7 U1 1_555 1_555
H1 O7 1_555 1_555
O8 Cs2 1_555 1_555
H2 O8 1_555 1_555
H3 O8 1_555 1_555
C1 O3 1_555 1_555
C2 C1 1_555 1_555
C3 C2 1_555 1_555
C4 C3 1_555 1_555
U1A O5 1_555 1_555
U1A_2 O5B 1_555 1_555
Cs2F O6 1_555 1_555
Cs2B O4B 1_555 1_555
Cs2D O6B 1_555 1_555
O3B U1 1_555 1_555
O4B Cs1 1_555 1_555
O4A Cs2 1_555 1_555
O5B C4B 1_555 1_555
O5A U1 1_555 1_555
O5C U1 1_555 1_555
O6B C4B 1_555 1_555
O6F Cs2 1_555 1_555
O6G Cs2 1_555 1_555
H1B O7 1_555 1_555
O8A Cs2 1_555 1_555
H2A O8A 1_555 1_555
H3A O8A 1_555 1_555
C1B O3B 1_555 1_555
C2B C1B 1_555 1_555
C3B C2B 1_555 1_555
C4B C3B 1_555 1_555
O4B C1B 1_555 1_555

#END
