
#######################################################################
#
#                 Cambridge Crystallographic Data Centre
#                                CCDC 
#
#######################################################################
#
# If this CIF has been generated from an entry in the Cambridge 
# Structural Database, then it will include bibliographic, chemical, 
# crystal, experimental, refinement or atomic coordinate data resulting 
# from the CCDC's data processing and validation procedures.
#
#######################################################################

data_MIRLAB
_symmetry_cell_setting           monoclinic
_symmetry_space_group_name_H-M   'C 2/c'
_symmetry_Int_Tables_number      15
_space_group_name_Hall           '-C 2yn'
loop_
_symmetry_equiv_pos_site_id
_symmetry_equiv_pos_as_xyz
1 x,y,z
2 1/2+x,1/2+y,z
3 -x,y,1/2-z
4 1/2-x,1/2+y,1/2-z
5 -x,-y,-z
6 1/2-x,1/2-y,-z
7 x,-y,1/2+z
8 1/2+x,1/2-y,1/2+z
_cell_length_a                   16.254(12)
_cell_length_b                   13.508(8)
_cell_length_c                   7.683(6)
_cell_angle_alpha                90
_cell_angle_beta                 90.91(7)
_cell_angle_gamma                90
_cell_volume                     1686.66
loop_
_atom_site_label
_atom_site_type_symbol
_atom_site_fract_x
_atom_site_fract_y
_atom_site_fract_z
U1 U 0.5000 0.26553(3) 0.2500
K1 K 0.5000 0.36037(19) 0.7500
O1 O 0.4405(4) 0.2663(5) 0.4418(8)
O2 O 0.6214(3) 0.1931(5) 0.3789(8)
O3 O 0.6021(6) 0.2073(9) 0.6613(12)
O4 O 0.9300(3) 0.1018(4) 0.6251(9)
O5 O 0.8653(5) -0.0397(5) 0.6566(15)
C1 C 0.6421(5) 0.1827(6) 0.5360(12)
C2 C 0.7208(5) 0.1349(7) 0.5663(11)
C3 C 0.7868(5) 0.0984(6) 0.5960(12)
C4 C 0.8664(5) 0.0489(6) 0.6291(12)
O6 O 0.5000 0.0829(7) 0.2500
H1 H 0.456(5) 0.059(10) 0.204(19)
U1G U 1.0000 0.23447(3) 0.7500
U1G_2 U 0.0000 0.23447(3) -0.2500
K1A K 1.0000 -0.13963(19) 0.7500
K1_2 K 0.5000 0.36037(19) -0.2500
K1A_2 K 0.0000 -0.13963(19) -0.2500
O1B O 0.5595(4) 0.2663(5) 0.0582(8)
O2B O 0.3786(3) 0.1931(5) 0.1211(8)
O3B O 0.3979(6) 0.2073(9) -0.1613(12)
O3B_2 O 0.3979(6) 0.2073(9) 0.8387(12)
O4B O 0.0700(3) 0.1018(4) -0.1251(9)
O4G O 0.4300(3) 0.3982(4) 0.1251(9)
O4E O 0.5700(3) 0.3982(4) 0.3749(9)
O5B O 0.1347(5) -0.0397(5) -0.1566(15)
O5A O 0.3653(5) 0.4603(5) 0.6566(15)
O5C O 0.6347(5) 0.4603(5) 0.8434(15)
C1B C 0.3579(5) 0.1827(6) -0.0360(12)
C2B C 0.2792(5) 0.1349(7) -0.0663(11)
C3B C 0.2132(5) 0.0984(6) -0.0960(12)
C4B C 0.1336(5) 0.0489(6) -0.1291(12)
H1B H 0.544(5) 0.059(10) 0.296(19)
O7 O 0.7373(4) -0.1712(7) 0.5964(10)
H2 H 0.761(9) -0.118(6) 0.60(2)
H4 H 0.7500 -0.2500 0.5000
O7E O 0.7627(4) -0.3288(7) 0.4036(10)
H2E H 0.739(9) -0.382(6) 0.40(2)
O8 O 0.5983(6) -0.0517(6) 0.4041(12)
H5 H 0.629(9) -0.019(12) 0.333(18)
H6 H 0.566(8) -0.092(10) 0.346(19)
H3? H 0.712(8) -0.155(12) 0.684(12)
loop_
_geom_bond_atom_site_label_1
_geom_bond_atom_site_label_2
_geom_bond_site_symmetry_1
_geom_bond_site_symmetry_2
U1 O1 1_555 1_555
K1 O3 1_555 1_555
O2 U1 1_555 1_555
O3 C1 1_555 1_555
O4 C4 1_555 1_555
O5 C4 1_555 1_555
C1 O2 1_555 1_555
C2 C1 1_555 1_555
C3 C2 1_555 1_555
C4 C3 1_555 1_555
O6 U1 1_555 1_555
H1 O6 1_555 1_555
O7 H2 1_555 1_555
H4 O7 1_555 1_555
O8 H5 1_555 1_555
H6 O8 1_555 1_555
U1G O4 1_555 1_555
U1G_2 O4B 1_555 1_555
K1A O5 1_555 1_555
K1_2 O3B 1_555 1_555
K1A_2 O5B 1_555 1_555
O1B U1 1_555 1_555
O2B U1 1_555 1_555
O3B C1B 1_555 1_555
O3B_2 K1 1_555 1_555
O4B C4B 1_555 1_555
O4G U1 1_555 1_555
O4E U1 1_555 1_555
O5B C4B 1_555 1_555
O5A K1 1_555 1_555
O5C K1 1_555 1_555
C1B O2B 1_555 1_555
C2B C1B 1_555 1_555
C3B C2B 1_555 1_555
C4B C3B 1_555 1_555
H1B O6 1_555 1_555
O7E H4 1_555 1_555
H2E O7E 1_555 1_555

#END
