
#######################################################################
#
#                 Cambridge Crystallographic Data Centre
#                                CCDC 
#
#######################################################################
#
# If this CIF has been generated from an entry in the Cambridge 
# Structural Database, then it will include bibliographic, chemical, 
# crystal, experimental, refinement or atomic coordinate data resulting 
# from the CCDC's data processing and validation procedures.
#
#######################################################################

data_MIRNOR
_symmetry_cell_setting           monoclinic
_symmetry_space_group_name_H-M   'P 21/n'
_symmetry_Int_Tables_number      14
_space_group_name_Hall           '-P 2yn'
loop_
_symmetry_equiv_pos_site_id
_symmetry_equiv_pos_as_xyz
1 x,y,z
2 1/2-x,1/2+y,1/2-z
3 -x,-y,-z
4 1/2+x,1/2-y,1/2+z
_cell_length_a                   8.8107(18)
_cell_length_b                   8.0616(16)
_cell_length_c                   9.2636(19)
_cell_angle_alpha                90
_cell_angle_beta                 112.53(3)
_cell_angle_gamma                90
_cell_volume                     607.761
loop_
_atom_site_label
_atom_site_type_symbol
_atom_site_fract_x
_atom_site_fract_y
_atom_site_fract_z
Cu1 Cu -0.56614(4) 0.13310(4) 0.37825(4)
N1 N -0.3666(2) 0.2628(3) 0.4012(2)
N2 N -0.2956(3) 0.3124(3) 0.8036(3)
N3 N -0.3855(2) 0.2097(3) 0.7295(2)
N4 N -0.4839(3) 0.1128(3) 0.6542(3)
C1 C -0.3700(3) 0.4272(4) 0.3839(3)
H1 H -0.4718 0.4796 0.3449
C2 C -0.2306(3) 0.5243(3) 0.4207(3)
H2 H -0.2402 0.6386 0.4069
C3 C -0.0767(3) 0.4506(3) 0.4784(3)
C4 C -0.0736(3) 0.2788(3) 0.4954(3)
H3 H 0.0263 0.2229 0.5336
C5 C -0.2186(3) 0.1914(4) 0.4556(3)
H4 H -0.2129 0.0768 0.4674
Cu1B Cu -0.43386(4) -0.13310(4) 0.62175(4)
Cu1C Cu -0.06614(4) 0.36690(4) 0.87825(4)
Cu1A Cu -0.93386(4) -0.36690(4) 0.12175(4)
Cu1B_2 Cu 0.56614(4) 0.86690(4) 0.62175(4)
N1B N -0.6334(2) -0.2628(3) 0.5988(2)
N1B_2 N 0.3666(2) 0.7372(3) 0.5988(2)
N2A N -0.2044(3) -0.1876(3) 0.6964(3)
N2C N -0.7956(3) 0.1876(3) 0.3036(3)
N2B N -0.7044(3) -0.3124(3) 0.1964(3)
N3B N -0.6145(2) -0.2097(3) 0.2705(2)
N4B N -0.5161(3) -0.1128(3) 0.3458(3)
C1B C 0.3700(3) 0.5728(4) 0.6161(3)
H1B H 0.4718 0.5204 0.6551
C2B C 0.2306(3) 0.4757(3) 0.5793(3)
H2B H 0.2402 0.3614 0.5931
C3B C 0.0767(3) 0.5494(3) 0.5216(3)
C4B C 0.0736(3) 0.7212(3) 0.5046(3)
H3B H -0.0263 0.7771 0.4664
C5B C 0.2186(3) 0.8086(4) 0.5444(3)
H4B H 0.2129 0.9232 0.5326
loop_
_geom_bond_atom_site_label_1
_geom_bond_atom_site_label_2
_geom_bond_site_symmetry_1
_geom_bond_site_symmetry_2
Cu1 N1 1_555 1_555
N1 C1 1_555 1_555
N2 N3 1_555 1_555
N3 N4 1_555 1_555
N4 Cu1 1_555 1_555
C1 H1 1_555 1_555
C2 C1 1_555 1_555
H2 C2 1_555 1_555
C3 C2 1_555 1_555
C4 C3 1_555 1_555
H3 C4 1_555 1_555
C5 N1 1_555 1_555
H4 C5 1_555 1_555
Cu1B N4 1_555 1_555
Cu1C N2 1_555 1_555
Cu1A N2B 1_555 1_555
Cu1B_2 N1B_2 1_555 1_555
N1B Cu1B 1_555 1_555
N1B_2 C1B 1_555 1_555
N2A Cu1B 1_555 1_555
N2C Cu1 1_555 1_555
N2B N3B 1_555 1_555
N3B N4B 1_555 1_555
N4B Cu1 1_555 1_555
C1B H1B 1_555 1_555
C2B C1B 1_555 1_555
H2B C2B 1_555 1_555
C3B C3 1_555 1_555
C4B C3B 1_555 1_555
H3B C4B 1_555 1_555
C5B N1B_2 1_555 1_555
H4B C5B 1_555 1_555
C4 C5 1_555 1_555
Cu1B N4B 1_555 1_555
C2B C3B 1_555 1_555
C4B C5B 1_555 1_555

#END
