
#######################################################################
#
#                 Cambridge Crystallographic Data Centre
#                                CCDC 
#
#######################################################################
#
# If this CIF has been generated from an entry in the Cambridge 
# Structural Database, then it will include bibliographic, chemical, 
# crystal, experimental, refinement or atomic coordinate data resulting 
# from the CCDC's data processing and validation procedures.
#
#######################################################################

data_MIRPIM
_symmetry_cell_setting           triclinic
_symmetry_space_group_name_H-M   'P -1'
_symmetry_Int_Tables_number      2
_space_group_name_Hall           '-P 1'
loop_
_symmetry_equiv_pos_site_id
_symmetry_equiv_pos_as_xyz
1 x,y,z
2 -x,-y,-z
_cell_length_a                   7.7525(13)
_cell_length_b                   9.595(2)
_cell_length_c                   11.261(2)
_cell_angle_alpha                102.64(2)
_cell_angle_beta                 108.347(14)
_cell_angle_gamma                103.543(15)
_cell_volume                     733.095
loop_
_atom_site_label
_atom_site_type_symbol
_atom_site_fract_x
_atom_site_fract_y
_atom_site_fract_z
Mn1 Mn 0.15249(8) 0.94923(7) 0.89937(5)
Cl1 Cl 0.30918(14) 1.08559(12) 0.77846(10)
Cl2 Cl 0.01389(13) 0.85096(11) 1.06065(9)
Cl3 Cl -0.14641(15) 0.78640(15) 0.70621(10)
N1 N 0.2933(4) 0.7615(4) 0.8868(3)
N2 N 0.5904(5) 0.9007(4) 0.8918(3)
C1 C 0.1781(6) 0.6278(5) 0.8795(4)
C2 C 0.2236(7) 0.5002(5) 0.8646(5)
C3 C 0.3963(7) 0.5016(6) 0.8513(5)
C4 C 0.5159(6) 0.6335(5) 0.8566(4)
C5 C 0.4617(5) 0.7630(4) 0.8767(3)
H1 H 0.6603(55) 0.8860(43) 0.8450(39)
H2 H 0.5275(75) 0.9630(60) 0.8666(49)
H3 H 0.0651(63) 0.6351(47) 0.8930(41)
H4 H 0.1518(52) 0.4131(46) 0.8645(35)
H5 H 0.4225(69) 0.4226(60) 0.8356(48)
H6 H 0.6318(61) 0.6411(44) 0.8476(38)
Cl2A Cl -0.01389(13) 1.14904(11) 0.93935(9)
N2A N 0.4096(5) 1.0993(4) 1.1082(3)
Mn1A Mn -0.15249(8) 1.05077(7) 1.10063(5)
Mn1A_2 Mn 0.84751(8) 1.05077(7) 1.10063(5)
H1A H 0.3397(55) 1.1140(43) 1.1550(39)
H2A H 0.4725(75) 1.0370(60) 1.1334(49)
N3 N -0.1669(7) 1.1827(7) 0.6455(5)
N4 N 0.0530(7) 1.1858(6) 0.5474(4)
H7 H 0.1105(7) 1.1433(6) 0.6001(4)
H8 H 0.0957(7) 1.2077(6) 0.4897(4)
C6 C -0.3178(10) 1.2136(12) 0.6621(7)
C7 C -0.4138(10) 1.2844(13) 0.5870(7)
C8 C -0.3525(8) 1.3225(9) 0.4909(6)
C9 C -0.1992(8) 1.2886(7) 0.4752(5)
C10 C -0.0997(7) 1.2169(6) 0.5553(4)
H9 H -0.1102(87) 1.1429(69) 0.6753(62)
H10 H -0.3317(97) 1.2012(79) 0.7245(74)
H11 H -0.507(13) 1.3116(99) 0.6029(89)
H12 H -0.4214(69) 1.3736(53) 0.4336(49)
H13 H -0.1548(64) 1.3250(50) 0.4227(46)
loop_
_geom_bond_atom_site_label_1
_geom_bond_atom_site_label_2
_geom_bond_site_symmetry_1
_geom_bond_site_symmetry_2
Mn1 Cl1 1_555 1_555
Cl2 Mn1 1_555 1_555
Cl3 Mn1 1_555 1_555
N1 Mn1 1_555 1_555
N2 C5 1_555 1_555
C1 N1 1_555 1_555
C2 C1 1_555 1_555
C3 C2 1_555 1_555
C4 C3 1_555 1_555
C5 N1 1_555 1_555
H1 N2 1_555 1_555
H2 N2 1_555 1_555
H3 C1 1_555 1_555
H4 C2 1_555 1_555
H5 C3 1_555 1_555
H6 C4 1_555 1_555
N3 C6 1_555 1_555
N4 H7 1_555 1_555
H8 N4 1_555 1_555
C6 C7 1_555 1_555
C7 C8 1_555 1_555
C8 C9 1_555 1_555
C9 C10 1_555 1_555
C10 N3 1_555 1_555
H9 N3 1_555 1_555
H10 C6 1_555 1_555
H11 C7 1_555 1_555
H12 C8 1_555 1_555
H13 C9 1_555 1_555
Cl2A Mn1 1_555 1_555
N2A Mn1 1_555 1_555
Mn1A Cl2 1_555 1_555
Mn1A_2 N2 1_555 1_555
H1A N2A 1_555 1_555
H2A N2A 1_555 1_555
C4 C5 1_555 1_555
N4 C10 1_555 1_555
Cl2A Mn1A 1_555 1_555

#END
