
#######################################################################
#
#                 Cambridge Crystallographic Data Centre
#                                CCDC 
#
#######################################################################
#
# If this CIF has been generated from an entry in the Cambridge 
# Structural Database, then it will include bibliographic, chemical, 
# crystal, experimental, refinement or atomic coordinate data resulting 
# from the CCDC's data processing and validation procedures.
#
#######################################################################

data_MIRQUA
_symmetry_cell_setting           triclinic
_symmetry_space_group_name_H-M   'P -1'
_symmetry_Int_Tables_number      2
_space_group_name_Hall           '-P 1'
loop_
_symmetry_equiv_pos_site_id
_symmetry_equiv_pos_as_xyz
1 x,y,z
2 -x,-y,-z
_cell_length_a                   10.208(5)
_cell_length_b                   11.915(5)
_cell_length_c                   13.202(5)
_cell_angle_alpha                100.751(5)
_cell_angle_beta                 112.010(5)
_cell_angle_gamma                102.318(5)
_cell_volume                     1390.06
loop_
_atom_site_label
_atom_site_type_symbol
_atom_site_fract_x
_atom_site_fract_y
_atom_site_fract_z
Mn1 Mn 0.87296(3) 0.44003(2) 0.32348(2)
C1 C 1.1128(2) 0.82195(16) 0.49788(16)
C2 C 1.1270(2) 0.90958(17) 0.59100(16)
H1 H 1.0997 0.8865 0.6456
C3 C 1.1812(2) 1.03007(17) 0.60306(16)
H2 H 1.1903 1.0879 0.6654
C4 C 1.2219(2) 1.06439(16) 0.52159(17)
C5 C 1.2094(2) 0.97946(18) 0.42831(18)
H3 H 1.2378 1.0029 0.3743
C6 C 1.1536(2) 0.85872(17) 0.41711(18)
H4 H 1.1432 0.8010 0.3541
C7 C 1.0531(2) 0.69147(17) 0.48503(18)
C8 C 1.4875(2) 1.36779(17) 0.38123(17)
C9 C 1.3520(2) 1.37948(19) 0.37526(19)
H5 H 1.3122 1.4316 0.3380
C10 C 1.2758(2) 1.31470(19) 0.42401(19)
H6 H 1.1860 1.3237 0.4205
C11 C 1.3354(2) 1.23664(16) 0.47793(17)
C12 C 1.4669(2) 1.21939(18) 0.48114(18)
H7 H 1.5031 1.1635 0.5143
C13 C 1.5432(2) 1.28651(19) 0.43436(18)
H8 H 1.6331 1.2773 0.4384
C14 C 1.5780(2) 1.44426(18) 0.33786(18)
C15 C 0.72279(18) 0.18861(15) 0.16263(14)
C16 C 0.84417(19) 0.18967(15) 0.13214(15)
C17 C 0.8599(2) 0.08327(16) 0.08805(16)
H9 H 0.9375 0.0866 0.0669
C18 C 0.65597(18) -0.03553(15) 0.10430(14)
C19 C 0.62933(18) 0.06987(15) 0.14683(14)
C20 C 0.51069(19) 0.06089(16) 0.17796(15)
H10 H 0.4918 0.1299 0.2068
C21 C 0.42376(19) -0.04923(17) 0.16565(16)
C22 C 0.44917(19) -0.15747(15) 0.12569(15)
C23 C 0.56632(19) -0.14844(15) 0.09490(15)
H11 H 0.5859 -0.2178 0.0677
C24 C 0.3535(2) -0.28055(17) 0.22389(17)
H12 H 0.3440 -0.2084 0.2647
H13 H 0.4467 -0.2906 0.2713
C25 C 0.2255(2) -0.38815(17) 0.20169(19)
H14 H 0.2272 -0.3970 0.2737
H15 H 0.1318 -0.3765 0.1578
C26 C 0.2411(2) -0.48454(17) 0.02785(17)
H16 H 0.1473 -0.4761 -0.0203
H17 H 0.2525 -0.5562 -0.0121
C27 C 0.3680(2) -0.37514(16) 0.04987(16)
H18 H 0.4625 -0.3864 0.0925
H19 H 0.3646 -0.3653 -0.0223
C28 C 0.95504(19) 0.30350(15) 0.14442(16)
C29 C 0.8106(2) -0.13254(17) 0.02814(19)
H20 H 0.8568 -0.1147 -0.0216
H21 H 0.7203 -0.1998 -0.0167
C30 C 0.9141(3) -0.1668(2) 0.1229(2)
H22 H 0.9362 -0.2358 0.0915
H23 H 0.8681 -0.1855 0.1718
H24 H 1.0044 -0.1010 0.1665
F1 F 0.30490(14) -0.05557(11) 0.18978(12)
N1 N 0.77241(17) -0.02611(13) 0.07263(14)
N2 N 0.35453(17) -0.26761(13) 0.11516(13)
N3 N 0.23945(18) -0.49768(14) 0.13743(14)
H25 H 0.1626 -0.5617 0.1228
H26 H 0.3240 -0.5105 0.1802
O1 O 1.01455(17) 0.61842(12) 0.38860(14)
O2 O 1.04421(16) 0.66314(13) 0.56977(14)
O3 O 1.71509(15) 1.46076(13) 0.38222(13)
O4 O 1.51348(18) 1.48909(17) 0.26125(17)
O5 O 1.26452(19) 1.18672(13) 0.53831(14)
O6 O 0.69325(14) 0.28045(11) 0.19922(12)
O7 O 0.96748(15) 0.40179(12) 0.20826(12)
O8 O 1.03114(17) 0.29361(12) 0.08966(14)
Mn1A Mn 1.12704(3) 0.55997(2) 0.67652(2)
Mn1_2 Mn 1.87296(3) 1.44003(2) 0.32348(2)
O2A O 0.95579(16) 0.33686(13) 0.43023(14)
O3_2 O 0.71509(15) 0.46076(13) 0.38222(13)
O9 O 0.7413(5) 0.5678(6) 0.2066(4)
H27 H 0.8224 0.6189 0.2575
H28 H 0.6698 0.5411 0.2226
O10? O 0.7286(5) 0.6219(15) 0.2009(4)
loop_
_geom_bond_atom_site_label_1
_geom_bond_atom_site_label_2
_geom_bond_site_symmetry_1
_geom_bond_site_symmetry_2
Mn1 O1 1_555 1_555
C1 C2 1_555 1_555
C2 H1 1_555 1_555
C3 C2 1_555 1_555
H2 C3 1_555 1_555
C4 C3 1_555 1_555
C5 C4 1_555 1_555
H3 C5 1_555 1_555
C6 C1 1_555 1_555
H4 C6 1_555 1_555
C7 C1 1_555 1_555
C8 C9 1_555 1_555
C9 H5 1_555 1_555
C10 C9 1_555 1_555
H6 C10 1_555 1_555
C11 C10 1_555 1_555
C12 C11 1_555 1_555
H7 C12 1_555 1_555
C13 C8 1_555 1_555
H8 C13 1_555 1_555
C14 C8 1_555 1_555
C15 C16 1_555 1_555
C16 C17 1_555 1_555
C17 H9 1_555 1_555
C18 C19 1_555 1_555
C19 C15 1_555 1_555
C20 C19 1_555 1_555
H10 C20 1_555 1_555
C21 C20 1_555 1_555
C22 C21 1_555 1_555
C23 C18 1_555 1_555
H11 C23 1_555 1_555
C24 H12 1_555 1_555
H13 C24 1_555 1_555
C25 C24 1_555 1_555
H14 C25 1_555 1_555
H15 C25 1_555 1_555
C26 H16 1_555 1_555
H17 C26 1_555 1_555
C27 C26 1_555 1_555
H18 C27 1_555 1_555
H19 C27 1_555 1_555
C28 C16 1_555 1_555
C29 H20 1_555 1_555
H21 C29 1_555 1_555
C30 C29 1_555 1_555
H22 C30 1_555 1_555
H23 C30 1_555 1_555
H24 C30 1_555 1_555
F1 C21 1_555 1_555
N1 C17 1_555 1_555
N2 C22 1_555 1_555
N3 C25 1_555 1_555
H25 N3 1_555 1_555
H26 N3 1_555 1_555
O1 C7 1_555 1_555
O2 C7 1_555 1_555
O3 C14 1_555 1_555
O4 C14 1_555 1_555
O5 C4 1_555 1_555
O6 Mn1 1_555 1_555
O7 Mn1 1_555 1_555
O8 C28 1_555 1_555
O9 H27 1_555 1_555
H28 O9 1_555 1_555
Mn1A O2 1_555 1_555
Mn1_2 O3 1_555 1_555
O2A Mn1 1_555 1_555
O3_2 Mn1 1_555 1_555
C5 C6 1_555 1_555
C11 O5 1_555 1_555
C12 C13 1_555 1_555
C15 O6 1_555 1_555
C18 N1 1_555 1_555
C22 C23 1_555 1_555
C24 N2 1_555 1_555
C26 N3 1_555 1_555
C27 N2 1_555 1_555
C28 O7 1_555 1_555
C29 N1 1_555 1_555

#END
