
#######################################################################
#
#                 Cambridge Crystallographic Data Centre
#                                CCDC 
#
#######################################################################
#
# If this CIF has been generated from an entry in the Cambridge 
# Structural Database, then it will include bibliographic, chemical, 
# crystal, experimental, refinement or atomic coordinate data resulting 
# from the CCDC's data processing and validation procedures.
#
#######################################################################

data_MIRRUB
_symmetry_cell_setting           triclinic
_symmetry_space_group_name_H-M   'P -1'
_symmetry_Int_Tables_number      2
_space_group_name_Hall           '-P 1'
loop_
_symmetry_equiv_pos_site_id
_symmetry_equiv_pos_as_xyz
1 x,y,z
2 -x,-y,-z
_cell_length_a                   8.4135(17)
_cell_length_b                   8.5823(17)
_cell_length_c                   10.399(2)
_cell_angle_alpha                67.86(3)
_cell_angle_beta                 86.03(3)
_cell_angle_gamma                69.80(3)
_cell_volume                     651.134
loop_
_atom_site_label
_atom_site_type_symbol
_atom_site_fract_x
_atom_site_fract_y
_atom_site_fract_z
Mn1 Mn 0.0000 0.0000 0.0000
C1 C 0.86473(18) -0.75738(18) 0.18182(14)
H1 H 0.8775 -0.6635 0.1046
C2 C 0.86795(16) -1.01940(17) 0.31862(13)
C3 C 0.80176(16) -0.90468(18) 0.39082(14)
C4 C 0.7526(2) -0.9643(2) 0.52615(16)
H2 H 0.7086 -0.8870 0.5731
C5 C 0.7723(3) -1.1436(3) 0.58724(17)
H3 H 0.7406 -1.1883 0.6776
C6 C 0.8390(2) -1.2603(2) 0.51652(17)
H4 H 0.8502 -1.3804 0.5610
C7 C 0.8884(2) -1.20089(19) 0.38226(16)
H5 H 0.9335 -1.2789 0.3361
C8 C -0.74694(18) 0.57026(19) -0.32383(16)
H6 H -0.7484 0.5976 -0.4232
H7 H -0.8274 0.5091 -0.2860
C9 C -0.52740(18) 0.26337(19) -0.22661(17)
H8 H -0.6040 0.2185 -0.2475
C10 C -0.36910(19) 0.14894(19) -0.16336(17)
H9 H -0.3422 0.0269 -0.1420
C11 C -0.29472(19) 0.3804(2) -0.16510(19)
H10 H -0.2144 0.4224 -0.1464
C12 C -0.4515(2) 0.5042(2) -0.22668(19)
H11 H -0.4757 0.6254 -0.2462
C13 C -0.57138(16) 0.44572(18) -0.25881(14)
N1 N 0.90604(15) -0.92194(15) 0.18636(12)
N2 N 0.80188(14) -0.73794(15) 0.30045(12)
N3 N -0.25205(14) 0.20399(15) -0.13100(12)
N4 N 0.10239(16) 0.22079(17) -0.07304(13)
N5 N 0.16197(15) 0.28050(15) -0.01100(12)
N6 N 0.2213(2) 0.3409(2) 0.04762(16)
Mn1_2 Mn 1.0000 -1.0000 0.0000
Mn1_3 Mn -1.0000 1.0000 0.0000
C1A C -0.86473(18) 0.75738(18) -0.18182(14)
H1A H -0.8775 0.6635 -0.1046
C2A C -0.86795(16) 1.01940(17) -0.31862(13)
C3A C -0.80176(16) 0.90468(18) -0.39082(14)
C4A C -0.7526(2) 0.9643(2) -0.52615(16)
H2A H -0.7086 0.8870 -0.5731
C5A C -0.7723(3) 1.1436(3) -0.58724(17)
H3A H -0.7406 1.1883 -0.6776
C6A C -0.8390(2) 1.2603(2) -0.51652(17)
H4A H -0.8502 1.3804 -0.5610
C7A C -0.8884(2) 1.20089(19) -0.38226(16)
H5A H -0.9335 1.2789 -0.3361
C8A C 0.74694(18) -0.57026(19) 0.32383(16)
H6A H 0.7484 -0.5976 0.4232
H7A H 0.8274 -0.5091 0.2860
C9A C 0.52740(18) -0.26337(19) 0.22661(17)
H8A H 0.6040 -0.2185 0.2475
C10A C 0.36910(19) -0.14894(19) 0.16336(17)
H9A H 0.3422 -0.0269 0.1420
C11A C 0.29472(19) -0.3804(2) 0.16510(19)
H10A H 0.2144 -0.4224 0.1464
C12A C 0.4515(2) -0.5042(2) 0.22668(19)
H11A H 0.4757 -0.6254 0.2462
C13A C 0.57138(16) -0.44572(18) 0.25881(14)
N1_2 N -0.09396(15) 0.07806(15) 0.18636(12)
N1A N 0.09396(15) -0.07806(15) -0.18636(12)
N1A_2 N -0.90604(15) 0.92194(15) -0.18636(12)
N2A N -0.80188(14) 0.73794(15) -0.30045(12)
N3A N 0.25205(14) -0.20399(15) 0.13100(12)
N4A N -0.10239(16) -0.22079(17) 0.07304(13)
N5A N -0.16197(15) -0.28050(15) 0.01100(12)
N6A N -0.2213(2) -0.3409(2) -0.04762(16)
loop_
_geom_bond_atom_site_label_1
_geom_bond_atom_site_label_2
_geom_bond_site_symmetry_1
_geom_bond_site_symmetry_2
Mn1 N3 1_555 1_555
C1 H1 1_555 1_555
C2 C3 1_555 1_555
C3 C4 1_555 1_555
C4 H2 1_555 1_555
C5 C4 1_555 1_555
H3 C5 1_555 1_555
C6 C5 1_555 1_555
H4 C6 1_555 1_555
C7 C2 1_555 1_555
H5 C7 1_555 1_555
C8 H6 1_555 1_555
H7 C8 1_555 1_555
C9 H8 1_555 1_555
C10 C9 1_555 1_555
H9 C10 1_555 1_555
C11 H10 1_555 1_555
C12 C11 1_555 1_555
H11 C12 1_555 1_555
C13 C8 1_555 1_555
N1 C1 1_555 1_555
N2 C1 1_555 1_555
N3 C10 1_555 1_555
N4 Mn1 1_555 1_555
N5 N4 1_555 1_555
N6 N5 1_555 1_555
Mn1_2 N1 1_555 1_555
Mn1_3 N1A_2 1_555 1_555
C1A H1A 1_555 1_555
C2A C3A 1_555 1_555
C3A C4A 1_555 1_555
C4A H2A 1_555 1_555
C5A C4A 1_555 1_555
H3A C5A 1_555 1_555
C6A C5A 1_555 1_555
H4A C6A 1_555 1_555
C7A C2A 1_555 1_555
H5A C7A 1_555 1_555
C8A N2 1_555 1_555
H6A C8A 1_555 1_555
H7A C8A 1_555 1_555
C9A H8A 1_555 1_555
C10A C9A 1_555 1_555
H9A C10A 1_555 1_555
C11A H10A 1_555 1_555
C12A C11A 1_555 1_555
H11A C12A 1_555 1_555
C13A C8A 1_555 1_555
N1_2 Mn1 1_555 1_555
N1A Mn1 1_555 1_555
N1A_2 C1A 1_555 1_555
N2A C8 1_555 1_555
N3A Mn1 1_555 1_555
N4A Mn1 1_555 1_555
N5A N4A 1_555 1_555
N6A N5A 1_555 1_555
C2 N1 1_555 1_555
C3 N2 1_555 1_555
C6 C7 1_555 1_555
C9 C13 1_555 1_555
C11 N3 1_555 1_555
C12 C13 1_555 1_555
C1A N2A 1_555 1_555
C2A N1A_2 1_555 1_555
C3A N2A 1_555 1_555
C6A C7A 1_555 1_555
C9A C13A 1_555 1_555
C10A N3A 1_555 1_555
C11A N3A 1_555 1_555
C12A C13A 1_555 1_555

#END
