
#######################################################################
#
#                 Cambridge Crystallographic Data Centre
#                                CCDC 
#
#######################################################################
#
# If this CIF has been generated from an entry in the Cambridge 
# Structural Database, then it will include bibliographic, chemical, 
# crystal, experimental, refinement or atomic coordinate data resulting 
# from the CCDC's data processing and validation procedures.
#
#######################################################################

data_MIRSOX
_symmetry_cell_setting           monoclinic
_symmetry_space_group_name_H-M   'P 21/c'
_symmetry_Int_Tables_number      14
_space_group_name_Hall           '-P 2ybc'
loop_
_symmetry_equiv_pos_site_id
_symmetry_equiv_pos_as_xyz
1 x,y,z
2 -x,1/2+y,1/2-z
3 -x,-y,-z
4 x,1/2-y,1/2+z
_cell_length_a                   7.0841(3)
_cell_length_b                   18.3818(7)
_cell_length_c                   14.8668(6)
_cell_angle_alpha                90
_cell_angle_beta                 96.280(4)
_cell_angle_gamma                90
_cell_volume                     1924.32
loop_
_atom_site_label
_atom_site_type_symbol
_atom_site_fract_x
_atom_site_fract_y
_atom_site_fract_z
Mn1 Mn 0.73146(6) 0.07499(2) 0.02900(3)
N1 N 0.9249(3) 0.10907(12) 0.15617(15)
N2 N 0.5895(4) 0.17180(12) 0.09423(16)
O1 O 0.5222(2) 0.02304(10) 0.11165(12)
O2 O 0.4667(3) -0.09532(10) 0.08824(12)
O3 O 0.8379(2) -0.03525(9) 0.02680(11)
O4 O 1.0680(3) -0.11759(10) 0.05513(12)
O5 O 0.8025(3) -0.07787(13) 0.44658(12)
C1 C 1.0942(4) 0.08144(17) 0.1841(2)
H1 H 1.1538 0.0522 0.1447
C2 C 1.1863(5) 0.09453(19) 0.2706(2)
H2 H 1.3049 0.0742 0.2881
C3 C 1.1007(6) 0.1374(2) 0.3287(2)
H3 H 1.1598 0.1456 0.3868
C4 C 0.9244(5) 0.16911(17) 0.3016(2)
C5 C 0.8407(4) 0.15383(16) 0.21345(19)
C6 C 0.6606(4) 0.18598(15) 0.1810(2)
C7 C 0.5667(5) 0.22970(16) 0.2391(2)
C8 C 0.6568(7) 0.2440(2) 0.3285(3)
H4 H 0.5957 0.2737 0.3669
C9 C 0.8254(7) 0.2159(2) 0.3580(2)
H5 H 0.8802 0.2268 0.4162
C10 C 0.3886(6) 0.25726(19) 0.2054(3)
H6 H 0.3212 0.2865 0.2418
C11 C 0.3144(5) 0.24118(19) 0.1194(3)
H7 H 0.1951 0.2584 0.0969
C12 C 0.4197(5) 0.19845(17) 0.0654(2)
H8 H 0.3684 0.1882 0.0065
C13 C 0.5556(4) -0.04282(16) 0.12666(17)
C14 C 0.7157(4) -0.06235(13) 0.19844(16)
C15 C 0.6830(4) -0.05912(15) 0.28873(17)
H9 H 0.5656 -0.0441 0.3044
C16 C 0.8262(4) -0.07841(16) 0.35510(17)
C17 C 0.9995(4) -0.10265(16) 0.33252(19)
H10 H 1.0940 -0.1170 0.3774
C18 C 1.0309(4) -0.10541(15) 0.24265(19)
H11 H 1.1477 -0.1216 0.2274
C19 C 0.8913(3) -0.08445(14) 0.17442(17)
C20 C 0.9349(4) -0.07903(14) 0.07776(17)
C21 C 0.6486(5) -0.03849(18) 0.47195(18)
C22 C 0.4977(5) -0.07507(18) 0.5009(2)
H12 H 0.4960 -0.1257 0.5013
C23 C 0.3482(5) -0.03627(19) 0.5295(2)
H13 H 0.2457 -0.0607 0.5497
O1B O 0.4778(2) -0.02304(10) 0.88835(12)
O2B O 0.5333(3) 0.09532(10) 0.91176(12)
O3B O 0.1621(2) 0.03525(9) 0.97320(11)
O4B O -0.0680(3) 0.11759(10) 0.94487(12)
O5B O 0.1975(3) 0.07787(13) 0.55342(12)
C13B C 0.4444(4) 0.04282(16) 0.87334(17)
C14B C 0.2843(4) 0.06235(13) 0.80156(16)
C15B C 0.3170(4) 0.05912(15) 0.71127(17)
H9B H 0.4344 0.0441 0.6956
C16B C 0.1738(4) 0.07841(16) 0.64490(17)
C17B C 0.0005(4) 0.10265(16) 0.66748(19)
H10B H -0.0940 0.1170 0.6226
C18B C -0.0309(4) 0.10541(15) 0.75735(19)
H11B H -0.1477 0.1216 0.7726
C19B C 0.1087(3) 0.08445(14) 0.82558(17)
C20B C 0.0651(4) 0.07903(14) 0.92224(17)
C21B C 0.3514(5) 0.03849(18) 0.52805(18)
C22B C 0.5023(5) 0.07507(18) 0.4991(2)
H12B H 0.5040 0.1257 0.4987
C23B C 0.6518(5) 0.03627(19) 0.4705(2)
H13B H 0.7543 0.0607 0.4503
Mn1B Mn 0.26854(6) -0.07499(2) -0.02900(3)
N1B N 0.0751(3) -0.10907(12) -0.15617(15)
N2B N 0.4105(4) -0.17180(12) -0.09423(16)
C1B C -0.0942(4) -0.08144(17) -0.1841(2)
H1B H -0.1538 -0.0522 -0.1447
C2B C -0.1863(5) -0.09453(19) -0.2706(2)
H2B H -0.3049 -0.0742 -0.2881
C3B C -0.1007(6) -0.1374(2) -0.3287(2)
H3B H -0.1598 -0.1456 -0.3868
C4B C 0.0756(5) -0.16911(17) -0.3016(2)
C5B C 0.1593(4) -0.15383(16) -0.21345(19)
C6B C 0.3394(4) -0.18598(15) -0.1810(2)
C7B C 0.4333(5) -0.22970(16) -0.2391(2)
C8B C 0.3432(7) -0.2440(2) -0.3285(3)
H4B H 0.4043 -0.2737 -0.3669
C9B C 0.1746(7) -0.2159(2) -0.3580(2)
H5B H 0.1198 -0.2268 -0.4162
C10B C 0.6114(6) -0.25726(19) -0.2054(3)
H6B H 0.6788 -0.2865 -0.2418
C11B C 0.6856(5) -0.24118(19) -0.1194(3)
H7B H 0.8049 -0.2584 -0.0969
C12B C 0.5803(5) -0.19845(17) -0.0654(2)
H8B H 0.6316 -0.1882 -0.0065
Mn1_2 Mn -0.26854(6) 0.07499(2) 1.02900(3)
Mn1_3 Mn 0.73146(6) 0.07499(2) 1.02900(3)
Mn1B_2 Mn 0.26854(6) -0.07499(2) 0.97100(3)
Mn1B_3 Mn 1.26854(6) -0.07499(2) -0.02900(3)
O1B_2 O 0.4778(2) -0.02304(10) -0.11165(12)
O2B_2 O 0.5333(3) 0.09532(10) -0.08824(12)
O3B_2 O 0.1621(2) 0.03525(9) -0.02680(11)
O4_2 O 0.0680(3) -0.11759(10) 0.05513(12)
O4B_2 O 0.9320(3) 0.11759(10) -0.05513(12)
loop_
_geom_bond_atom_site_label_1
_geom_bond_atom_site_label_2
_geom_bond_site_symmetry_1
_geom_bond_site_symmetry_2
Mn1 N1 1_555 1_555
N1 C1 1_555 1_555
N2 Mn1 1_555 1_555
O1 Mn1 1_555 1_555
O2 C13 1_555 1_555
O3 Mn1 1_555 1_555
O4 C20 1_555 1_555
O5 C16 1_555 1_555
C1 H1 1_555 1_555
C2 C1 1_555 1_555
H2 C2 1_555 1_555
C3 C2 1_555 1_555
H3 C3 1_555 1_555
C4 C3 1_555 1_555
C5 N1 1_555 1_555
C6 N2 1_555 1_555
C7 C6 1_555 1_555
C8 C7 1_555 1_555
H4 C8 1_555 1_555
C9 C4 1_555 1_555
H5 C9 1_555 1_555
C10 C7 1_555 1_555
H6 C10 1_555 1_555
C11 C10 1_555 1_555
H7 C11 1_555 1_555
C12 N2 1_555 1_555
H8 C12 1_555 1_555
C13 O1 1_555 1_555
C14 C13 1_555 1_555
C15 C14 1_555 1_555
H9 C15 1_555 1_555
C16 C15 1_555 1_555
C17 C16 1_555 1_555
H10 C17 1_555 1_555
C18 C17 1_555 1_555
H11 C18 1_555 1_555
C19 C14 1_555 1_555
C20 O3 1_555 1_555
C21 O5 1_555 1_555
C22 C21 1_555 1_555
H12 C22 1_555 1_555
C23 C22 1_555 1_555
H13 C23 1_555 1_555
O1B C13B 1_555 1_555
O2B C13B 1_555 1_555
O3B C20B 1_555 1_555
O4B C20B 1_555 1_555
O5B C16B 1_555 1_555
C13B C14B 1_555 1_555
C14B C15B 1_555 1_555
C15B H9B 1_555 1_555
C16B C15B 1_555 1_555
C17B C16B 1_555 1_555
H10B C17B 1_555 1_555
C18B C17B 1_555 1_555
H11B C18B 1_555 1_555
C19B C14B 1_555 1_555
C20B C19B 1_555 1_555
C21B C23 1_555 1_555
C22B C21B 1_555 1_555
H12B C22B 1_555 1_555
C23B C21 1_555 1_555
H13B C23B 1_555 1_555
Mn1B O2 1_555 1_555
N1B Mn1B 1_555 1_555
N2B Mn1B 1_555 1_555
C1B N1B 1_555 1_555
H1B C1B 1_555 1_555
C2B C1B 1_555 1_555
H2B C2B 1_555 1_555
C3B C2B 1_555 1_555
H3B C3B 1_555 1_555
C4B C3B 1_555 1_555
C5B N1B 1_555 1_555
C6B N2B 1_555 1_555
C7B C6B 1_555 1_555
C8B C7B 1_555 1_555
H4B C8B 1_555 1_555
C9B C4B 1_555 1_555
H5B C9B 1_555 1_555
C10B C7B 1_555 1_555
H6B C10B 1_555 1_555
C11B C10B 1_555 1_555
H7B C11B 1_555 1_555
C12B N2B 1_555 1_555
H8B C12B 1_555 1_555
Mn1_2 O4B 1_555 1_555
Mn1_3 O2B 1_555 1_555
Mn1B_2 O1B 1_555 1_555
Mn1B_3 O4 1_555 1_555
O1B_2 Mn1B 1_555 1_555
O2B_2 Mn1 1_555 1_555
O3B_2 Mn1B 1_555 1_555
O4_2 Mn1B 1_555 1_555
O4B_2 Mn1 1_555 1_555
C4 C5 1_555 1_555
C5 C6 1_555 1_555
C8 C9 1_555 1_555
C11 C12 1_555 1_555
C18 C19 1_555 1_555
C19 C20 1_555 1_555
O3B Mn1B_2 1_555 1_555
O5B C21B 1_555 1_555
C18B C19B 1_555 1_555
C22B C23B 1_555 1_555
C4B C5B 1_555 1_555
C5B C6B 1_555 1_555
C8B C9B 1_555 1_555
C11B C12B 1_555 1_555

#END
