
#######################################################################
#
#                 Cambridge Crystallographic Data Centre
#                                CCDC 
#
#######################################################################
#
# If this CIF has been generated from an entry in the Cambridge 
# Structural Database, then it will include bibliographic, chemical, 
# crystal, experimental, refinement or atomic coordinate data resulting 
# from the CCDC's data processing and validation procedures.
#
#######################################################################

data_MIRSUC
_symmetry_cell_setting           monoclinic
_symmetry_space_group_name_H-M   'C 2/c'
_symmetry_Int_Tables_number      15
_space_group_name_Hall           '-C 2yn'
loop_
_symmetry_equiv_pos_site_id
_symmetry_equiv_pos_as_xyz
1 x,y,z
2 1/2+x,1/2+y,z
3 -x,y,1/2-z
4 1/2-x,1/2+y,1/2-z
5 -x,-y,-z
6 1/2-x,1/2-y,-z
7 x,-y,1/2+z
8 1/2+x,1/2-y,1/2+z
_cell_length_a                   11.406(2)
_cell_length_b                   9.1463(18)
_cell_length_c                   10.155(2)
_cell_angle_alpha                90
_cell_angle_beta                 107.76(3)
_cell_angle_gamma                90
_cell_volume                     1008.91
loop_
_atom_site_label
_atom_site_type_symbol
_atom_site_fract_x
_atom_site_fract_y
_atom_site_fract_z
Mn1 Mn 0.0000 0.57159(4) 0.2500
O1 O -0.06002(17) 0.34882(16) 0.31586(18)
O2 O -0.14376(17) 0.58998(18) 0.04818(18)
H1 H -0.2176 0.5432 0.0532
H2 H -0.1160 0.5432 -0.0215
O3 O 0.20027(14) -0.15346(16) 0.04948(16)
O4 O 0.13754(15) -0.34426(15) 0.14530(17)
N1 N 0.0000 -0.1832(2) 0.2500
C1 C 0.0000 0.2830(3) 0.2500
C2 C 0.0000 0.1182(3) 0.2500
C3 C 0.07379(18) 0.0412(2) 0.1868(2)
H3 H 0.1239 0.0901 0.1441
C4 C 0.07040(17) -0.1104(2) 0.18927(19)
C5 C 0.14191(18) -0.2120(2) 0.1247(2)
Mn1_2 Mn 0.0000 -0.42841(4) 0.2500
O1B O 0.06002(17) 0.34882(16) 0.18414(18)
O2B O 0.14376(17) 0.58998(18) 0.45182(18)
H1B H 0.2176 0.5432 0.4468
H2B H 0.1160 0.5432 0.5215
O3B O -0.20027(14) -0.15346(16) 0.45052(16)
O4B O -0.13754(15) -0.34426(15) 0.35470(17)
O4_2 O 0.13754(15) 0.65574(15) 0.14530(17)
O4B_2 O -0.13754(15) 0.65574(15) 0.35470(17)
N1_2 N 0.0000 0.8168(2) 0.2500
C3B C -0.07379(18) 0.0412(2) 0.3132(2)
H3B H -0.1239 0.0901 0.3559
C4B C -0.07040(17) -0.1104(2) 0.31073(19)
C5B C -0.14191(18) -0.2120(2) 0.3753(2)
loop_
_geom_bond_atom_site_label_1
_geom_bond_atom_site_label_2
_geom_bond_site_symmetry_1
_geom_bond_site_symmetry_2
Mn1 O1 1_555 1_555
O1 C1 1_555 1_555
O2 Mn1 1_555 1_555
H1 O2 1_555 1_555
H2 O2 1_555 1_555
O3 C5 1_555 1_555
O4 C5 1_555 1_555
N1 C4 1_555 1_555
C1 C2 1_555 1_555
C2 C3 1_555 1_555
C3 H3 1_555 1_555
C4 C3 1_555 1_555
C5 C4 1_555 1_555
Mn1_2 O4 1_555 1_555
O1B Mn1 1_555 1_555
O2B Mn1 1_555 1_555
H1B O2B 1_555 1_555
H2B O2B 1_555 1_555
O3B C5B 1_555 1_555
O4B Mn1_2 1_555 1_555
O4_2 Mn1 1_555 1_555
O4B_2 Mn1 1_555 1_555
N1_2 Mn1 1_555 1_555
C3B C2 1_555 1_555
H3B C3B 1_555 1_555
C4B N1 1_555 1_555
C5B O4B 1_555 1_555
N1 Mn1_2 1_555 1_555
C1 O1B 1_555 1_555
C3B C4B 1_555 1_555
C4B C5B 1_555 1_555

#END
