
#######################################################################
#
#                 Cambridge Crystallographic Data Centre
#                                CCDC 
#
#######################################################################
#
# If this CIF has been generated from an entry in the Cambridge 
# Structural Database, then it will include bibliographic, chemical, 
# crystal, experimental, refinement or atomic coordinate data resulting 
# from the CCDC's data processing and validation procedures.
#
#######################################################################

data_MIRSAI
_symmetry_cell_setting           monoclinic
_symmetry_space_group_name_H-M   'P 21/c'
_symmetry_Int_Tables_number      14
_space_group_name_Hall           '-P 2ybc'
loop_
_symmetry_equiv_pos_site_id
_symmetry_equiv_pos_as_xyz
1 x,y,z
2 -x,1/2+y,1/2-z
3 -x,-y,-z
4 x,1/2-y,1/2+z
_cell_length_a                   14.978(2)
_cell_length_b                   6.73240(10)
_cell_length_c                   15.729(2)
_cell_angle_alpha                90
_cell_angle_beta                 95.9280(10)
_cell_angle_gamma                90
_cell_volume                     1577.6
loop_
_atom_site_label
_atom_site_type_symbol
_atom_site_fract_x
_atom_site_fract_y
_atom_site_fract_z
C1 C 0.34909(17) 0.9822(4) 0.28171(15)
C2 C 0.26353(19) 0.9927(5) 0.22167(19)
H1 H 0.2339 1.1180 0.2305
H2 H 0.2789 0.9909 0.1632
C3 C 0.19905(18) 0.8260(4) 0.23315(17)
C4 C 0.1889(2) 0.6728(6) 0.1757(2)
H3 H 0.2194 0.6762 0.1272
C5 C 0.1329(3) 0.5102(7) 0.1888(3)
H4 H 0.1263 0.4091 0.1484
C6 C 0.0885(3) 0.4986(7) 0.2594(3)
H5 H 0.0526 0.3890 0.2677
C7 C 0.0967(2) 0.6536(6) 0.3206(2)
C8 C 0.0526(2) 0.6468(8) 0.3968(3)
H6 H 0.0160 0.5394 0.4069
C9 C 0.0640(3) 0.7988(9) 0.4553(3)
H7 H 0.0370 0.7910 0.5058
C10 C 0.1148(3) 0.9617(8) 0.4398(3)
H8 H 0.1197 1.0653 0.4791
C11 C 0.1578(2) 0.9751(6) 0.3689(2)
H9 H 0.1923 1.0868 0.3602
C12 C 0.15083(17) 0.8184(5) 0.30670(18)
C13 C 0.60299(15) 0.3200(3) 0.47788(14)
C14 C 0.68443(17) 0.3703(4) 0.52351(16)
H10 H 0.7174 0.2748 0.5559
C15 C 0.71596(19) 0.5621(4) 0.52051(19)
H11 H 0.7706 0.5961 0.5504
C16 C 0.66657(17) 0.7026(4) 0.47333(17)
H12 H 0.6877 0.8325 0.4728
C17 C 0.55836(16) 0.4708(3) 0.42901(15)
H13 H 0.5052 0.4395 0.3958
Cd1 Cd 0.501556(11) 0.93285(2) 0.390115(10)
H14 H 0.608(2) 1.071(5) 0.266(2)
H15 H 0.606(2) 0.888(5) 0.259(2)
N1 N 0.58848(13) 0.6571(3) 0.42785(13)
O1 O 0.38196(12) 0.8145(3) 0.30183(11)
O2 O 0.38678(13) 1.1377(3) 0.31050(12)
O3 O 0.56726(12) 0.1400(2) 0.48500(10)
O4 O 0.59985(17) 0.9759(3) 0.28914(15)
Cd1_2 Cd 0.501556(11) -0.06715(2) 0.390115(10)
Cd1B Cd 0.498444(11) 0.06715(2) 0.609885(10)
O3_2 O 0.56726(12) 1.1400(2) 0.48500(10)
O3B O 0.43274(12) 0.8600(2) 0.51500(10)
loop_
_geom_bond_atom_site_label_1
_geom_bond_atom_site_label_2
_geom_bond_site_symmetry_1
_geom_bond_site_symmetry_2
C1 C2 1_555 1_555
C2 H1 1_555 1_555
H2 C2 1_555 1_555
C3 C2 1_555 1_555
C4 C3 1_555 1_555
H3 C4 1_555 1_555
C5 C4 1_555 1_555
H4 C5 1_555 1_555
C6 C5 1_555 1_555
H5 C6 1_555 1_555
C7 C6 1_555 1_555
C8 C7 1_555 1_555
H6 C8 1_555 1_555
C9 C8 1_555 1_555
H7 C9 1_555 1_555
C10 C9 1_555 1_555
H8 C10 1_555 1_555
C11 C10 1_555 1_555
H9 C11 1_555 1_555
C12 C3 1_555 1_555
C13 C14 1_555 1_555
C14 H10 1_555 1_555
C15 C14 1_555 1_555
H11 C15 1_555 1_555
C16 C15 1_555 1_555
H12 C16 1_555 1_555
C17 C13 1_555 1_555
H13 C17 1_555 1_555
Cd1 N1 1_555 1_555
H14 O4 1_555 1_555
H15 O4 1_555 1_555
N1 C16 1_555 1_555
O1 C1 1_555 1_555
O2 C1 1_555 1_555
O3 C13 1_555 1_555
O4 Cd1 1_555 1_555
Cd1_2 O3 1_555 1_555
Cd1B O3 1_555 1_555
O3_2 Cd1 1_555 1_555
O3B Cd1 1_555 1_555
C7 C12 1_555 1_555
C11 C12 1_555 1_555
C17 N1 1_555 1_555
Cd1 O1 1_555 1_555
Cd1 O2 1_555 1_555

#END
