
#######################################################################
#
#                 Cambridge Crystallographic Data Centre
#                                CCDC 
#
#######################################################################
#
# If this CIF has been generated from an entry in the Cambridge 
# Structural Database, then it will include bibliographic, chemical, 
# crystal, experimental, refinement or atomic coordinate data resulting 
# from the CCDC's data processing and validation procedures.
#
#######################################################################

data_MIRWAM
_symmetry_cell_setting           monoclinic
_symmetry_space_group_name_H-M   'P 21/n'
_symmetry_Int_Tables_number      14
_space_group_name_Hall           '-P 2yn'
loop_
_symmetry_equiv_pos_site_id
_symmetry_equiv_pos_as_xyz
1 x,y,z
2 1/2-x,1/2+y,1/2-z
3 -x,-y,-z
4 1/2+x,1/2-y,1/2+z
_cell_length_a                   9.5648(3)
_cell_length_b                   11.1913(3)
_cell_length_c                   10.1910(4)
_cell_angle_alpha                90
_cell_angle_beta                 108.284(3)
_cell_angle_gamma                90
_cell_volume                     1035.8
loop_
_atom_site_label
_atom_site_type_symbol
_atom_site_fract_x
_atom_site_fract_y
_atom_site_fract_z
Cu1 Cu -0.27604(2) -0.25372(2) 0.24693(2)
O1 O -0.24644(15) -0.10041(10) 0.34492(12)
O2 O -0.11243(15) -0.31766(11) 0.39838(14)
O3 O -0.21943(14) 0.09526(10) 0.35166(12)
O4 O 0.05990(14) -0.31314(11) 0.59961(12)
N1 N -0.44943(18) -0.31667(15) 0.37545(17)
N2 N -0.6241(2) -0.33708(17) 0.55363(17)
C1 C -0.24994(19) -0.00191(14) 0.28872(19)
C2 C -0.0123(2) -0.26516(16) 0.48872(18)
C3 C -0.4150(3) -0.26424(19) 0.4970(2)
C4 C -0.5028(3) -0.2740(2) 0.5847(2)
C5 C -0.7908(2) -0.46743(19) 0.3880(2)
C6 C -0.8297(2) -0.5261(2) 0.2637(2)
C7 C -0.7434(3) -0.5152(2) 0.1746(2)
C8 C -0.6193(2) -0.44605(19) 0.2109(2)
C9 C -0.5755(2) -0.38497(16) 0.33862(19)
C10 C -0.6627(2) -0.39515(17) 0.42837(19)
H1 H -0.27720 -0.00010 0.19270
H2 H 0.00950 -0.18660 0.47250
H3 H -0.32940 -0.21890 0.52620
H4 H -0.47320 -0.23370 0.66870
H5 H -0.84860 -0.47510 0.44590
H6 H -0.91370 -0.57350 0.23790
H7 H -0.77130 -0.55530 0.09040
H8 H -0.56350 -0.43920 0.15120
Cu1A Cu -0.22396(2) 0.24628(2) 0.25307(2)
Cu1C Cu 0.22396(2) -0.24628(2) 0.74693(2)
O3A O -0.28057(14) -0.40474(10) 0.14834(12)
O4C O -0.44010(14) -0.18686(11) 0.09961(12)
loop_
_geom_bond_atom_site_label_1
_geom_bond_atom_site_label_2
_geom_bond_site_symmetry_1
_geom_bond_site_symmetry_2
Cu1 O1 1_555 1_555
O1 C1 1_555 1_555
O2 Cu1 1_555 1_555
O3 C1 1_555 1_555
O4 C2 1_555 1_555
N1 Cu1 1_555 1_555
N2 C4 1_555 1_555
C1 H1 1_555 1_555
C2 O2 1_555 1_555
C3 N1 1_555 1_555
C4 C3 1_555 1_555
C5 C6 1_555 1_555
C6 C7 1_555 1_555
C7 C8 1_555 1_555
C8 C9 1_555 1_555
C9 N1 1_555 1_555
C10 N2 1_555 1_555
H2 C2 1_555 1_555
H3 C3 1_555 1_555
H4 C4 1_555 1_555
H5 C5 1_555 1_555
H6 C6 1_555 1_555
H7 C7 1_555 1_555
H8 C8 1_555 1_555
Cu1A O3 1_555 1_555
Cu1C O4 1_555 1_555
O3A Cu1 1_555 1_555
O4C Cu1 1_555 1_555
C5 C10 1_555 1_555
C9 C10 1_555 1_555

#END
