
#######################################################################
#
#                 Cambridge Crystallographic Data Centre
#                                CCDC 
#
#######################################################################
#
# If this CIF has been generated from an entry in the Cambridge 
# Structural Database, then it will include bibliographic, chemical, 
# crystal, experimental, refinement or atomic coordinate data resulting 
# from the CCDC's data processing and validation procedures.
#
#######################################################################

data_MIRWER
_symmetry_cell_setting           triclinic
_symmetry_space_group_name_H-M   'P -1'
_symmetry_Int_Tables_number      2
_space_group_name_Hall           '-P 1'
loop_
_symmetry_equiv_pos_site_id
_symmetry_equiv_pos_as_xyz
1 x,y,z
2 -x,-y,-z
_cell_length_a                   8.6014(5)
_cell_length_b                   10.1473(6)
_cell_length_c                   12.0779(7)
_cell_angle_alpha                68.339(5)
_cell_angle_beta                 81.606(5)
_cell_angle_gamma                77.370(5)
_cell_volume                     953.543
loop_
_atom_site_label
_atom_site_type_symbol
_atom_site_fract_x
_atom_site_fract_y
_atom_site_fract_z
C1 C 0.3198(3) 0.0704(3) 0.3605(2)
N1 N 0.7750(3) 0.2396(3) 0.4329(2)
H1 H 0.8309 0.1548 0.4451
H2 H 0.8153 0.3055 0.4414
O1 O 0.4038(2) -0.0344(2) 0.33668(18)
O2 O -0.0455(2) -0.1363(3) 0.4110(2)
H3 H -0.0297 -0.1315 0.4774
H4 H 0.0128 -0.2127 0.4050
Co1 Co 0.19814(4) -0.14070(4) 0.36990(3)
C2 C 0.3919(3) 0.1912(3) 0.3613(2)
N2 N 0.1737(3) -0.0313(3) 0.1838(2)
O3 O 0.1710(2) 0.0721(2) 0.38946(18)
C3 C 0.5507(3) 0.1649(3) 0.3848(2)
H5 H 0.6140 0.0758 0.3914
N3 N -0.0876(3) 0.2752(3) -0.0145(2)
H6 H -0.1143 0.2932 -0.0852
O4 O 0.3228(3) 0.6702(2) 0.36087(19)
C4 C 0.6158(3) 0.2710(3) 0.3986(2)
O5 O 0.1430(2) 0.6201(2) 0.2743(2)
C5 C 0.5230(3) 0.4058(3) 0.3829(2)
H7 H 0.5659 0.4766 0.3934
O6 O -0.1357(4) 0.3539(3) 0.1426(2)
C6 C 0.3653(3) 0.4364(3) 0.3515(2)
C7 C 0.2686(3) 0.5862(3) 0.3268(2)
C8 C 0.2989(3) 0.3272(3) 0.3436(2)
H8 H 0.1927 0.3450 0.3265
C9 C 0.0539(4) 0.0795(3) 0.1445(3)
H9 H -0.0256 0.1003 0.1998
C10 C 0.0432(4) 0.1636(3) 0.0263(3)
C11 C -0.1750(5) 0.3567(4) 0.0476(3)
C12 C -0.3297(4) 0.4434(4) -0.0076(3)
H10 H -0.3102 0.4690 -0.0943
C13 C -0.3849(5) 0.5792(5) 0.0168(4)
H11 H -0.3082 0.6430 -0.0200
H12 H -0.3929 0.5589 0.1023
C14 C -0.4524(5) 0.3475(4) 0.0326(4)
H13 H -0.4657 0.3129 0.1192
H14 H -0.4131 0.2644 0.0083
C15 C 0.1597(4) 0.1321(4) -0.0562(3)
H15 H 0.1541 0.1861 -0.1372
C16 C 0.2838(4) 0.0197(4) -0.0167(3)
H16 H 0.3642 -0.0032 -0.0705
C17 C 0.2878(4) -0.0586(3) 0.1033(3)
H17 H 0.3733 -0.1335 0.1296
N2A N -1.1737(3) 1.0313(3) -0.1838(2)
N3A N -0.9124(3) 0.7248(3) 0.0145(2)
H6A H -0.8857 0.7068 0.0852
O6A O -0.8643(4) 0.6461(3) -0.1426(2)
C9A C -1.0539(4) 0.9205(3) -0.1445(3)
H9A H -0.9744 0.8997 -0.1998
C10A C -1.0432(4) 0.8364(3) -0.0263(3)
C11A C -0.8250(5) 0.6433(4) -0.0476(3)
C12A C -0.6703(4) 0.5566(4) 0.0076(3)
H10A H -0.6898 0.5310 0.0943
C13A C -0.6151(5) 0.4208(5) -0.0168(4)
H11A H -0.6918 0.3570 0.0200
H12A H -0.6071 0.4411 -0.1023
C14A C -0.5476(5) 0.6525(4) -0.0326(4)
H13A H -0.5343 0.6871 -0.1192
H14A H -0.5869 0.7356 -0.0083
C15A C -1.1597(4) 0.8679(4) 0.0562(3)
H15A H -1.1541 0.8139 0.1372
C16A C -1.2838(4) 0.9803(4) 0.0167(3)
H16A H -1.3642 1.0032 0.0705
C17A C -1.2878(4) 1.0586(3) -0.1033(3)
H17A H -1.3733 1.1335 -0.1296
C1A C -1.3198(3) 0.9296(3) -0.3605(2)
N1A N -1.7750(3) 0.7604(3) -0.4329(2)
H1A H -1.8309 0.8452 -0.4451
H2A H -1.8153 0.6945 -0.4414
O1A O -1.4038(2) 1.0344(2) -0.33668(18)
O2A O -0.9545(2) 1.1363(3) -0.4110(2)
H3A H -0.9703 1.1315 -0.4774
H4A H -1.0128 1.2127 -0.4050
Co1A Co -1.19814(4) 1.14070(4) -0.36990(3)
C2A C -1.3919(3) 0.8088(3) -0.3613(2)
O3A O -1.1710(2) 0.9279(2) -0.38946(18)
C3A C -1.5507(3) 0.8351(3) -0.3848(2)
H5A H -1.6140 0.9242 -0.3914
O4A O -1.3228(3) 0.3298(2) -0.36087(19)
C4A C -1.6158(3) 0.7290(3) -0.3986(2)
O5A O -1.1430(2) 0.3799(2) -0.2743(2)
C5A C -1.5230(3) 0.5942(3) -0.3829(2)
H7A H -1.5659 0.5234 -0.3934
C6A C -1.3653(3) 0.5636(3) -0.3515(2)
C7A C -1.2686(3) 0.4138(3) -0.3268(2)
C8A C -1.2989(3) 0.6728(3) -0.3436(2)
H8A H -1.1927 0.6550 -0.3265
N1_2 N -1.2250(3) 1.2396(3) -0.5671(2)
N1A_2 N 0.2250(3) -0.2396(3) 0.5671(2)
Co1_2 Co -1.80186(4) 0.85930(4) -0.63010(3)
Co1_3 Co 0.19814(4) 0.85930(4) 0.36990(3)
Co1A_2 Co -1.19814(4) 0.14070(4) -0.36990(3)
Co1A_3 Co 0.80186(4) 0.14070(4) 0.63010(3)
O4_2 O 0.3228(3) -0.3298(2) 0.36087(19)
O4A_2 O -1.3228(3) 1.3298(2) -0.36087(19)
O7 O 0.1374(3) 0.4755(3) 0.7089(3)
H18 H 0.0423 0.4623 0.7097
H19 H 0.1324 0.5340 0.7450
O8 O 0.2823(3) 0.2089(3) 0.6641(2)
H20 H 0.3774 0.1637 0.6658
H21 H 0.2821 0.2937 0.6122
loop_
_geom_bond_atom_site_label_1
_geom_bond_atom_site_label_2
_geom_bond_site_symmetry_1
_geom_bond_site_symmetry_2
C1 O1 1_555 1_555
N1 H1 1_555 1_555
H2 N1 1_555 1_555
O1 Co1 1_555 1_555
O2 H3 1_555 1_555
H4 O2 1_555 1_555
Co1 O2 1_555 1_555
C2 C1 1_555 1_555
N2 Co1 1_555 1_555
O3 C1 1_555 1_555
C3 C2 1_555 1_555
H5 C3 1_555 1_555
N3 H6 1_555 1_555
O4 C7 1_555 1_555
C4 N1 1_555 1_555
O5 C7 1_555 1_555
C5 C4 1_555 1_555
H7 C5 1_555 1_555
O6 C11 1_555 1_555
C6 C5 1_555 1_555
C7 C6 1_555 1_555
C8 C2 1_555 1_555
H8 C8 1_555 1_555
C9 N2 1_555 1_555
H9 C9 1_555 1_555
C10 N3 1_555 1_555
C11 N3 1_555 1_555
C12 C11 1_555 1_555
H10 C12 1_555 1_555
C13 C12 1_555 1_555
H11 C13 1_555 1_555
H12 C13 1_555 1_555
C14 C12 1_555 1_555
H13 C14 1_555 1_555
H14 C14 1_555 1_555
C15 C10 1_555 1_555
H15 C15 1_555 1_555
C16 C15 1_555 1_555
H16 C16 1_555 1_555
C17 N2 1_555 1_555
H17 C17 1_555 1_555
O7 H18 1_555 1_555
H19 O7 1_555 1_555
O8 H20 1_555 1_555
H21 O8 1_555 1_555
N2A C9A 1_555 1_555
N3A H6A 1_555 1_555
O6A C11A 1_555 1_555
C9A H9A 1_555 1_555
C10A N3A 1_555 1_555
C11A N3A 1_555 1_555
C12A C11A 1_555 1_555
H10A C12A 1_555 1_555
C13A C14 1_555 1_555
H11A C13A 1_555 1_555
H12A C13A 1_555 1_555
C14A C13 1_555 1_555
H13A C14A 1_555 1_555
H14A C14A 1_555 1_555
C15A C10A 1_555 1_555
H15A C15A 1_555 1_555
C16A C15A 1_555 1_555
H16A C16A 1_555 1_555
C17A N2A 1_555 1_555
H17A C17A 1_555 1_555
C1A O1A 1_555 1_555
N1A H1A 1_555 1_555
H2A N1A 1_555 1_555
O1A Co1A 1_555 1_555
O2A H3A 1_555 1_555
H4A O2A 1_555 1_555
Co1A N2A 1_555 1_555
C2A C1A 1_555 1_555
O3A C1A 1_555 1_555
C3A C2A 1_555 1_555
H5A C3A 1_555 1_555
O4A C7A 1_555 1_555
C4A N1A 1_555 1_555
O5A C7A 1_555 1_555
C5A C4A 1_555 1_555
H7A C5A 1_555 1_555
C6A C5A 1_555 1_555
C7A C6A 1_555 1_555
C8A C2A 1_555 1_555
H8A C8A 1_555 1_555
N1_2 Co1A 1_555 1_555
N1A_2 Co1 1_555 1_555
Co1_2 N1A 1_555 1_555
Co1_3 O4 1_555 1_555
Co1A_2 O4A 1_555 1_555
Co1A_3 N1 1_555 1_555
O4_2 Co1 1_555 1_555
O4A_2 Co1A 1_555 1_555
Co1 O3 1_555 1_555
C3 C4 1_555 1_555
C6 C8 1_555 1_555
C9 C10 1_555 1_555
C16 C17 1_555 1_555
C9A C10A 1_555 1_555
C12A C13A 1_555 1_555
C12A C14A 1_555 1_555
C16A C17A 1_555 1_555
O2A Co1A 1_555 1_555
Co1A O3A 1_555 1_555
C3A C4A 1_555 1_555
C6A C8A 1_555 1_555

#END
