
#######################################################################
#
#                 Cambridge Crystallographic Data Centre
#                                CCDC 
#
#######################################################################
#
# If this CIF has been generated from an entry in the Cambridge 
# Structural Database, then it will include bibliographic, chemical, 
# crystal, experimental, refinement or atomic coordinate data resulting 
# from the CCDC's data processing and validation procedures.
#
#######################################################################

data_MIRWIU
_symmetry_cell_setting           triclinic
_symmetry_space_group_name_H-M   'P -1'
_symmetry_Int_Tables_number      2
_space_group_name_Hall           '-P 1'
loop_
_symmetry_equiv_pos_site_id
_symmetry_equiv_pos_as_xyz
1 x,y,z
2 -x,-y,-z
_cell_length_a                   5.75410(10)
_cell_length_b                   8.17040(10)
_cell_length_c                   10.6437(2)
_cell_angle_alpha                106.1570(10)
_cell_angle_beta                 96.8180(10)
_cell_angle_gamma                97.3410(10)
_cell_volume                     470.399
loop_
_atom_site_label
_atom_site_type_symbol
_atom_site_fract_x
_atom_site_fract_y
_atom_site_fract_z
C1 C 0.1666(4) 0.7074(3) 0.7930(2)
H1 H 0.2876 0.7217 0.8633
C2 C 0.1734(4) 0.5879(3) 0.6736(2)
H2 H 0.2965 0.5240 0.6655
C3 C -0.0019(4) 0.5624(3) 0.5655(2)
C4 C -0.1819(4) 0.6612(3) 0.5876(2)
H3 H -0.3058 0.6487 0.5192
C5 C -0.1772(4) 0.7772(3) 0.7101(2)
H4 H -0.3005 0.8405 0.7218
C6 C -0.1281(4) 0.2723(3) -0.1257(2)
C7 C -0.3161(5) 0.3560(3) -0.1868(3)
H5 H -0.2457 0.4146 -0.2444
H6 H -0.3633 0.4428 -0.1163
C8 C -0.5001(4) 0.1218(3) -0.3782(2)
C9 C -0.6973(4) -0.0042(3) -0.4391(3)
H7 H -0.8307 -0.0079 -0.3978
C10 C -0.6996(4) -0.1242(3) -0.5598(3)
H8 H -0.1656 0.2067 -0.4003
N1 N -0.0044(3) 0.8038(2) 0.81332(18)
Ni1 Ni 0.0000 0.0000 0.0000
O1 O -0.2019(3) 0.1349(2) -0.09891(15)
O2 O -1.0799(3) -0.3473(2) -0.8953(2)
O3 O -0.5228(3) 0.2379(2) -0.26119(17)
O4 O -0.3239(3) -0.1425(2) 0.01756(16)
H9 H -0.2733 -0.2183 0.0444
H10 H -0.4307 -0.1122 0.0576
C1A C -0.1666(4) 0.2926(3) 0.2070(2)
H1A H -0.2876 0.2783 0.1367
C2A C -0.1734(4) 0.4121(3) 0.3264(2)
H2A H -0.2965 0.4760 0.3345
C3A C 0.0019(4) 0.4376(3) 0.4345(2)
C4A C 0.1819(4) 0.3388(3) 0.4124(2)
H3A H 0.3058 0.3513 0.4808
C5A C 0.1772(4) 0.2228(3) 0.2899(2)
H4A H 0.3005 0.1595 0.2782
C6A C -0.8719(4) -0.2723(3) -0.8743(2)
C7A C -0.6839(5) -0.3560(3) -0.8132(3)
H5A H -0.7543 -0.4146 -0.7556
H6A H -0.6367 -0.4428 -0.8837
C8A C -0.4999(4) -0.1218(3) -0.6218(2)
C9A C -0.3027(4) 0.0042(3) -0.5609(3)
H7A H -0.1693 0.0079 -0.6022
C10A C -0.3004(4) 0.1242(3) -0.4402(3)
H8A H -0.8344 -0.2067 -0.5997
N1A N 0.0044(3) 0.1962(2) 0.18668(18)
N1_2 N -0.0044(3) -0.1962(2) -0.18668(18)
Ni1_2 Ni 0.0000 1.0000 1.0000
Ni1_3 Ni -1.0000 0.0000 -1.0000
O1A O -0.7981(3) -0.1349(2) -0.90109(15)
O1A_2 O 0.2019(3) -0.1349(2) 0.09891(15)
O2A O 0.0799(3) 0.3473(2) -0.1047(2)
O3A O -0.4772(3) -0.2379(2) -0.73881(17)
O4A O 0.3239(3) 0.1425(2) -0.01756(16)
H9A H 0.2733 0.2183 -0.0444
H10A H 0.4307 0.1122 -0.0576
loop_
_geom_bond_atom_site_label_1
_geom_bond_atom_site_label_2
_geom_bond_site_symmetry_1
_geom_bond_site_symmetry_2
C1 H1 1_555 1_555
C2 C1 1_555 1_555
H2 C2 1_555 1_555
C3 C2 1_555 1_555
C4 C3 1_555 1_555
H3 C4 1_555 1_555
C5 C4 1_555 1_555
H4 C5 1_555 1_555
C6 C7 1_555 1_555
C7 H5 1_555 1_555
H6 C7 1_555 1_555
C8 C9 1_555 1_555
C9 H7 1_555 1_555
C10 C9 1_555 1_555
H8 C10A 1_555 1_555
N1 C1 1_555 1_555
Ni1 O1 1_555 1_555
O1 C6 1_555 1_555
O2 C6A 1_555 1_555
O3 C7 1_555 1_555
O4 Ni1 1_555 1_555
H9 O4 1_555 1_555
H10 O4 1_555 1_555
C1A H1A 1_555 1_555
C2A C1A 1_555 1_555
H2A C2A 1_555 1_555
C3A C3 1_555 1_555
C4A C3A 1_555 1_555
H3A C4A 1_555 1_555
C5A C4A 1_555 1_555
H4A C5A 1_555 1_555
C6A C7A 1_555 1_555
C7A H5A 1_555 1_555
H6A C7A 1_555 1_555
C8A C10 1_555 1_555
C9A C8A 1_555 1_555
H7A C9A 1_555 1_555
C10A C8 1_555 1_555
H8A C10 1_555 1_555
N1A Ni1 1_555 1_555
N1_2 Ni1 1_555 1_555
Ni1_2 N1 1_555 1_555
Ni1_3 O1A 1_555 1_555
O1A C6A 1_555 1_555
O1A_2 Ni1 1_555 1_555
O2A C6 1_555 1_555
O3A C7A 1_555 1_555
O4A Ni1 1_555 1_555
H9A O4A 1_555 1_555
H10A O4A 1_555 1_555
C5 N1 1_555 1_555
C8 O3 1_555 1_555
C1A N1A 1_555 1_555
C2A C3A 1_555 1_555
C5A N1A 1_555 1_555
C8A O3A 1_555 1_555
C9A C10A 1_555 1_555

#END
