
#######################################################################
#
#                 Cambridge Crystallographic Data Centre
#                                CCDC 
#
#######################################################################
#
# If this CIF has been generated from an entry in the Cambridge 
# Structural Database, then it will include bibliographic, chemical, 
# crystal, experimental, refinement or atomic coordinate data resulting 
# from the CCDC's data processing and validation procedures.
#
#######################################################################

data_MIRXIV
_symmetry_cell_setting           triclinic
_symmetry_space_group_name_H-M   'P -1'
_symmetry_Int_Tables_number      2
_space_group_name_Hall           '-P 1'
loop_
_symmetry_equiv_pos_site_id
_symmetry_equiv_pos_as_xyz
1 x,y,z
2 -x,-y,-z
_cell_length_a                   8.9633(2)
_cell_length_b                   9.8121(2)
_cell_length_c                   13.2119(3)
_cell_angle_alpha                101.504(2)
_cell_angle_beta                 106.301(2)
_cell_angle_gamma                113.528(2)
_cell_volume                     956.345
loop_
_atom_site_label
_atom_site_type_symbol
_atom_site_fract_x
_atom_site_fract_y
_atom_site_fract_z
Ni1 Ni -0.5000 -0.5000 0.5000
O1 O -0.4883(4) -0.3951(4) 0.3832(3)
O2 O -0.2238(5) -0.4108(5) 0.5746(3)
N1 N -0.5140(6) -0.7018(5) 0.3881(4)
C1 C -0.3572(6) -0.2784(6) 0.3853(4)
H1 H -0.1881 -0.3769 0.6459
H2 H -0.1720 -0.3350 0.5537
H3 H -0.4886 -0.7535 0.4294
O3 O -0.2130(5) -0.1999(5) 0.4694(3)
C2 C -0.3834(6) -0.2382(6) 0.2808(4)
Ni2 Ni 0.0000 0.0000 0.5000
C3 C -0.5452(7) -0.3345(6) 0.1942(4)
C4 C -0.2490(6) -0.1143(6) 0.2651(4)
O4 O -0.0946(5) -0.0168(5) 0.3374(3)
O5 O 0.1392(8) -0.1224(7) 0.4696(5)
N2 N -0.5932(5) -0.3250(5) 0.0911(3)
H4 H -0.6296 -0.4135 0.2075
C5 C -0.3006(6) -0.1051(6) 0.1519(4)
H5 H 0.2209 -0.0674 0.4513
H6 H 0.0678 -0.2113 0.4163
C6 C -0.4699(6) -0.2122(6) 0.0651(4)
C7 C -0.7752(7) -0.4425(7) 0.0058(5)
C8 C -0.1803(7) 0.0130(6) 0.1263(4)
C9 C -0.5101(7) -0.2068(6) -0.0432(4)
H7 H -0.8154 -0.3944 -0.0457
H8 H -0.8556 -0.4713 0.0434
C10 C -0.7810(9) -0.5890(8) -0.0597(6)
H9 H -0.0693 0.0882 0.1824
C11 C -0.2243(7) 0.0182(6) 0.0216(4)
C12 C -0.3888(7) -0.0924(6) -0.0698(4)
H10 H -0.6210 -0.2814 -0.0996
H11 H -0.9003 -0.6622 -0.1137
H12 H -0.7431 -0.6378 -0.0091
H13 H -0.7035 -0.5611 -0.0984
F1 F -0.1076(5) 0.1417(4) 0.0053(3)
N3 N -0.4307(6) -0.0824(6) -0.1764(3)
H14 H -0.4376 0.0037 -0.1616
C13 C -0.3001(9) -0.0381(7) -0.2271(5)
C14 C -0.6079(8) -0.1889(8) -0.2659(5)
H15 H -0.1819 0.0297 -0.1679
H16 H -0.3242 0.0214 -0.2739
C15 C -0.3073(7) -0.1840(7) -0.2977(4)
C16 C -0.6174(7) -0.3368(7) -0.3352(4)
H17 H -0.6377 -0.1335 -0.3147
H18 H -0.6944 -0.2188 -0.2327
H19 H -0.2224 -0.1511 -0.3319
H20 H -0.2720 -0.2373 -0.2490
H21 H -0.5947 -0.3955 -0.2873
H22 H -0.7362 -0.4041 -0.3938
O2A O -0.7762(5) -0.5892(5) 0.4254(3)
O1A O -0.5117(4) -0.6049(4) 0.6168(3)
N1A N -0.4860(6) -0.2982(5) 0.6119(4)
H1A H -0.8119 -0.6231 0.3541
H2A H -0.8280 -0.6650 0.4463
H3A H -0.5114 -0.2465 0.5706
O5A O -0.1392(8) 0.1224(7) 0.5304(5)
O3A O 0.2130(5) 0.1999(5) 0.5306(3)
O4A O 0.0946(5) 0.0168(5) 0.6626(3)
H5A H -0.2209 0.0674 0.5487
H6A H -0.0678 0.2113 0.5837
C1A C 0.3572(6) 0.2784(6) 0.6147(4)
C4A C 0.2490(6) 0.1143(6) 0.7349(4)
C2A C 0.3834(6) 0.2382(6) 0.7192(4)
O1A_2 O 0.4883(4) 0.3951(4) 0.6168(3)
C5A C 0.3006(6) 0.1051(6) 0.8481(4)
C3A C 0.5452(7) 0.3345(6) 0.8058(4)
Ni1_2 Ni 0.5000 0.5000 0.5000
C8A C 0.1803(7) -0.0130(6) 0.8737(4)
C6A C 0.4699(6) 0.2122(6) 0.9349(4)
H4A H 0.6296 0.4135 0.7925
N2A N 0.5932(5) 0.3250(5) 0.9089(3)
C11A C 0.2243(7) -0.0182(6) 0.9784(4)
H9A H 0.0693 -0.0882 0.8176
C9A C 0.5101(7) 0.2068(6) 1.0432(4)
C7A C 0.7752(7) 0.4425(7) 0.9942(5)
C12A C 0.3888(7) 0.0924(6) 1.0698(4)
F1A F 0.1076(5) -0.1417(4) 0.9947(3)
H10A H 0.6210 0.2814 1.0996
C10A C 0.7810(9) 0.5890(8) 1.0597(6)
H7A H 0.8154 0.3944 1.0457
H8A H 0.8556 0.4713 0.9566
N3A N 0.4307(6) 0.0824(6) 1.1764(3)
H11A H 0.9003 0.6622 1.1137
H12A H 0.7431 0.6378 1.0091
H13A H 0.7035 0.5611 1.0984
C13A C 0.3001(9) 0.0381(7) 1.2271(5)
C14A C 0.6079(8) 0.1889(8) 1.2659(5)
H14A H 0.4376 -0.0037 1.1616
N1A_2 N -0.4860(6) -0.2982(5) -0.3881(4)
H16A H 0.3242 -0.0214 1.2739
C15A C 0.3073(7) 0.1840(7) 1.2977(4)
H15A H 0.1819 -0.0297 1.1679
C16A C 0.6174(7) 0.3368(7) 1.3352(4)
H17A H 0.6377 0.1335 1.3147
H18A H 0.6944 0.2188 1.2327
H3A_2 H -0.5114 -0.2465 -0.4294
Ni1_3 Ni -0.5000 -0.5000 -0.5000
N1_2 N 0.4860(6) 0.2982(5) 1.3881(4)
H20A H 0.2720 0.2373 1.2490
H19A H 0.2224 0.1511 1.3319
H21A H 0.5947 0.3955 1.2873
H22A H 0.7362 0.4041 1.3938
H3_2 H 0.5114 0.2465 1.4294
Ni1_4 Ni 0.5000 0.5000 1.5000
O6 O 0.4635(5) -0.0636(5) 0.4764(3)
H23 H 0.4173 -0.1258 0.4083
O7 O -0.0561(11) -0.4366(8) 0.7796(6)
O8 O 0.0325(17) -0.5690(17) 0.6823(12)
O9 O -0.1718(11) -0.6905(10) 0.7300(8)
N4 N -0.0646(9) -0.5617(9) 0.7316(5)
loop_
_geom_bond_atom_site_label_1
_geom_bond_atom_site_label_2
_geom_bond_site_symmetry_1
_geom_bond_site_symmetry_2
Ni1 O1 1_555 1_555
O1 C1 1_555 1_555
O2 Ni1 1_555 1_555
N1 Ni1 1_555 1_555
C1 O3 1_555 1_555
H1 O2 1_555 1_555
H2 O2 1_555 1_555
H3 N1 1_555 1_555
O3 Ni2 1_555 1_555
C2 C1 1_555 1_555
Ni2 O4 1_555 1_555
C3 C2 1_555 1_555
C4 C2 1_555 1_555
O4 C4 1_555 1_555
O5 Ni2 1_555 1_555
N2 C3 1_555 1_555
H4 C3 1_555 1_555
C5 C4 1_555 1_555
H5 O5 1_555 1_555
H6 O5 1_555 1_555
C6 N2 1_555 1_555
C7 N2 1_555 1_555
C8 C5 1_555 1_555
C9 C6 1_555 1_555
H7 C7 1_555 1_555
H8 C7 1_555 1_555
C10 C7 1_555 1_555
H9 C8 1_555 1_555
C11 C8 1_555 1_555
C12 C9 1_555 1_555
H10 C9 1_555 1_555
H11 C10 1_555 1_555
H12 C10 1_555 1_555
H13 C10 1_555 1_555
F1 C11 1_555 1_555
N3 C12 1_555 1_555
H14 N3 1_555 1_555
C13 N3 1_555 1_555
C14 N3 1_555 1_555
H15 C13 1_555 1_555
H16 C13 1_555 1_555
C15 C13 1_555 1_555
C16 C14 1_555 1_555
H17 C14 1_555 1_555
H18 C14 1_555 1_555
H19 C15 1_555 1_555
H20 C15 1_555 1_555
H21 C16 1_555 1_555
H22 C16 1_555 1_555
O6 H23 1_555 1_555
O7 N4 1_555 1_555
O8 N4 1_555 1_555
O9 N4 1_555 1_555
O2A Ni1 1_555 1_555
O1A Ni1 1_555 1_555
N1A Ni1 1_555 1_555
H1A O2A 1_555 1_555
H2A O2A 1_555 1_555
H3A N1A 1_555 1_555
O5A Ni2 1_555 1_555
O3A Ni2 1_555 1_555
O4A Ni2 1_555 1_555
H5A O5A 1_555 1_555
H6A O5A 1_555 1_555
C1A O3A 1_555 1_555
C4A O4A 1_555 1_555
C2A C1A 1_555 1_555
O1A_2 C1A 1_555 1_555
C5A C4A 1_555 1_555
C3A C2A 1_555 1_555
Ni1_2 O1A_2 1_555 1_555
C8A C5A 1_555 1_555
C6A C5A 1_555 1_555
H4A C3A 1_555 1_555
N2A C3A 1_555 1_555
C11A C8A 1_555 1_555
H9A C8A 1_555 1_555
C9A C6A 1_555 1_555
C7A N2A 1_555 1_555
C12A C11A 1_555 1_555
F1A C11A 1_555 1_555
H10A C9A 1_555 1_555
C10A C7A 1_555 1_555
H7A C7A 1_555 1_555
H8A C7A 1_555 1_555
N3A C12A 1_555 1_555
H11A C10A 1_555 1_555
H12A C10A 1_555 1_555
H13A C10A 1_555 1_555
C13A N3A 1_555 1_555
C14A N3A 1_555 1_555
H14A N3A 1_555 1_555
N1A_2 C15 1_555 1_555
H16A C13A 1_555 1_555
C15A C13A 1_555 1_555
H15A C13A 1_555 1_555
C16A C14A 1_555 1_555
H17A C14A 1_555 1_555
H18A C14A 1_555 1_555
H3A_2 N1A_2 1_555 1_555
Ni1_3 N1A_2 1_555 1_555
N1_2 C15A 1_555 1_555
H20A C15A 1_555 1_555
H19A C15A 1_555 1_555
H21A C16A 1_555 1_555
H22A C16A 1_555 1_555
H3_2 N1_2 1_555 1_555
Ni1_4 N1_2 1_555 1_555
C5 C6 1_555 1_555
C11 C12 1_555 1_555
C16 N1A_2 1_555 1_555
C4A C2A 1_555 1_555
C6A N2A 1_555 1_555
C9A C12A 1_555 1_555
C16A N1_2 1_555 1_555

#END
