
#######################################################################
#
#                 Cambridge Crystallographic Data Centre
#                                CCDC 
#
#######################################################################
#
# If this CIF has been generated from an entry in the Cambridge 
# Structural Database, then it will include bibliographic, chemical, 
# crystal, experimental, refinement or atomic coordinate data resulting 
# from the CCDC's data processing and validation procedures.
#
#######################################################################

data_MIRZOE
_symmetry_cell_setting           triclinic
_symmetry_space_group_name_H-M   'P 1'
_symmetry_Int_Tables_number      1
_space_group_name_Hall           'P 1'
loop_
_symmetry_equiv_pos_site_id
_symmetry_equiv_pos_as_xyz
1 x,y,z
_cell_length_a                   21.701(4)
_cell_length_b                   23.071(5)
_cell_length_c                   23.286(5)
_cell_angle_alpha                63.91(3)
_cell_angle_beta                 68.86(3)
_cell_angle_gamma                64.94(3)
_cell_volume                     9264.45
loop_
_atom_site_label
_atom_site_type_symbol
_atom_site_fract_x
_atom_site_fract_y
_atom_site_fract_z
Zn1 Zn 0.29475(6) 1.20192(6) 1.12019(6)
Zn2 Zn 0.19132(6) 1.15751(6) 1.25725(6)
Zn3 Zn 0.26034(7) 1.06034(6) 1.17468(6)
Zn4 Zn 0.35557(6) 1.08113(6) 1.23562(6)
O1 O 0.2735(3) 1.1229(3) 1.1986(3)
Zn5 Zn -0.13728(6) 0.89979(6) 1.12637(6)
Zn6 Zn -0.10324(6) 1.03998(6) 1.07495(6)
Zn7 Zn -0.19685(6) 1.02167(6) 1.00978(6)
Zn8 Zn -0.03451(6) 0.94545(6) 0.98880(6)
O2 O -0.1153(3) 0.9786(3) 1.0491(3)
Zn9 Zn 0.16722(6) 0.67138(6) 0.75704(6)
Zn10 Zn 0.25230(6) 0.57954(6) 0.66168(6)
Zn11 Zn 0.33662(6) 0.61128(6) 0.72617(6)
Zn12 Zn 0.26215(6) 0.72148(6) 0.61441(6)
O3 O 0.2556(3) 0.6436(3) 0.6918(3)
Zn13 Zn 0.99460(6) 0.43089(6) 0.49026(6)
Zn14 Zn 0.90223(6) 0.52212(6) 0.58722(6)
Zn15 Zn 0.89614(6) 0.37922(6) 0.63139(6)
Zn16 Zn 0.82854(7) 0.48918(6) 0.51400(6)
O4 O 0.9061(3) 0.4570(3) 0.5550(2)
O5 O 0.1980(3) 1.2752(3) 1.1270(3)
O6 O 0.1318(3) 1.2497(3) 1.2272(3)
O7 O -0.0587(4) 1.5728(3) 1.0168(3)
O8 O -0.0963(3) 1.6665(3) 1.0756(3)
O9 O -0.0456(3) 1.5087(3) 1.4071(2)
O10 O -0.1551(3) 1.5177(3) 1.4195(3)
C1 C 0.1452(5) 1.2877(4) 1.1667(4)
C2 C 0.0859(5) 1.3560(4) 1.1467(4)
C3 C 0.1039(4) 1.4038(4) 1.0882(4)
H1 H 0.1487 1.3944 1.0625
C4 C 0.0544(5) 1.4660(4) 1.0681(4)
H2 H 0.0661 1.4996 1.0294
C5 C -0.0152(5) 1.4791(4) 1.1068(4)
C6 C -0.0288(5) 1.4280(4) 1.1659(4)
H3 H -0.0733 1.4352 1.1924
C7 C 0.0211(5) 1.3683(5) 1.1856(4)
H4 H 0.0112 1.3355 1.2259
C8 C -0.0663(5) 1.5504(4) 1.0865(4)
H5 H -0.1140 1.5494 1.1087
C9 C -0.1225(6) 1.6020(6) 0.9960(6)
H6 H -0.1132 1.6149 0.9492
H7 H -0.1504 1.6414 1.0086
H8 H -0.1470 1.5693 1.0160
C10 C -0.0507(5) 1.5979(4) 1.1030(4)
H9 H -0.0021 1.5963 1.0831
C11 C -0.0740(5) 1.7159(4) 1.0756(5)
H10 H -0.1047 1.7605 1.0573
H11 H -0.0275 1.7122 1.0497
H12 H -0.0746 1.7086 1.1196
C12 C -0.0628(4) 1.5791(4) 1.1754(4)
C13 C -0.1293(5) 1.5877(4) 1.2151(4)
H13 H -0.1676 1.6080 1.1958
C14 C -0.1403(5) 1.5668(5) 1.2832(5)
H14 H -0.1851 1.5704 1.3089
C15 C -0.0840(4) 1.5406(4) 1.3124(4)
C16 C -0.0177(5) 1.5312(4) 1.2734(4)
H15 H 0.0204 1.5117 1.2927
C17 C -0.0069(5) 1.5501(4) 1.2071(4)
H16 H 0.0384 1.5437 1.1823
C18 C -0.0940(5) 1.5213(4) 1.3829(4)
O11 O 0.2696(3) 1.1856(3) 1.0516(2)
O12 O 0.2621(3) 1.0811(3) 1.0837(3)
O13 O 0.2847(3) 1.2449(3) 0.7288(3)
O14 O 0.1625(3) 1.2594(3) 0.7127(3)
O15 O -0.0209(3) 1.0668(3) 1.0178(3)
O16 O 0.0231(3) 1.0055(3) 0.9540(3)
C19 C 0.2690(5) 1.1351(4) 1.0410(4)
C20 C 0.2696(4) 1.1475(4) 0.9722(4)
C21 C 0.2606(5) 1.1037(5) 0.9556(4)
H17 H 0.2571 1.0622 0.9871
C22 C 0.2566(5) 1.1183(4) 0.8940(4)
H18 H 0.2486 1.0872 0.8845
C23 C 0.2638(5) 1.1774(4) 0.8451(4)
C24 C 0.2727(5) 1.2245(4) 0.8603(4)
H19 H 0.2743 1.2666 0.8289
C25 C 0.2795(5) 1.2077(4) 0.9241(4)
H20 H 0.2904 1.2366 0.9341
C26 C 0.2474(4) 1.1998(4) 0.7768(4)
H21 H 0.2610 1.1597 0.7648
C27 C 0.3580(5) 1.2107(6) 0.7138(5)
H22 H 0.3810 1.2429 0.6812
H23 H 0.3660 1.1759 0.6975
H24 H 0.3760 1.1904 0.7527
C28 C 0.1694(5) 1.2384(4) 0.7783(3)
H25 H 0.1561 1.2786 0.7901
C29 C 0.0962(5) 1.3045(5) 0.7045(4)
H26 H 0.0925 1.3173 0.6603
H27 H 0.0885 1.3443 0.7132
H28 H 0.0619 1.2829 0.7343
C30 C 0.1254(5) 1.1939(4) 0.8268(4)
C31 C 0.1277(4) 1.1419(4) 0.8134(4)
H29 H 0.1532 1.1365 0.7733
C32 C 0.0930(4) 1.0969(4) 0.8579(4)
H30 H 0.0941 1.0618 0.8476
C33 C 0.0565(4) 1.1034(4) 0.9180(4)
C34 C 0.0561(5) 1.1571(4) 0.9325(4)
H31 H 0.0323 1.1621 0.9730
C35 C 0.0906(5) 1.2013(4) 0.8871(4)
H32 H 0.0908 1.2364 0.8966
C36 C 0.0153(4) 1.0543(4) 0.9663(4)
O17 O 0.8223(3) 1.1278(3) 1.0527(3)
O18 O 0.7504(3) 1.1142(3) 1.0130(3)
O19 O 0.6050(3) 1.4487(3) 1.0556(4)
O20 O 0.4808(3) 1.4518(3) 1.1410(3)
O21 O 0.4153(3) 1.1329(3) 1.2214(2)
O22 O 0.3273(3) 1.2238(3) 1.1818(2)
C37 C 0.7662(5) 1.1479(4) 1.0338(4)
C38 C 0.7160(5) 1.2133(4) 1.0407(4)
C39 C 0.7278(4) 1.2439(4) 1.0731(4)
H33 H 0.7676 1.2224 1.0902
C40 C 0.6830(5) 1.3052(5) 1.0813(5)
H34 H 0.6924 1.3245 1.1035
C41 C 0.6230(5) 1.3375(4) 1.0551(4)
C42 C 0.6116(5) 1.3042(5) 1.0223(4)
H35 H 0.5725 1.3249 1.0041
C43 C 0.6554(4) 1.2445(4) 1.0170(4)
H36 H 0.6452 1.2233 0.9972
C44 C 0.5705(5) 1.4019(5) 1.0651(5)
H37 H 0.5394 1.4235 1.0346
C45 C 0.6409(5) 1.4723(5) 0.9894(6)
H38 H 0.6642 1.5015 0.9854
H39 H 0.6081 1.4971 0.9614
H40 H 0.6745 1.4341 0.9769
C46 C 0.5291(4) 1.3895(4) 1.1337(4)
H41 H 0.5611 1.3711 1.1628
C47 C 0.4450(5) 1.4480(5) 1.2044(6)
H42 H 0.4130 1.4921 1.2048
H43 H 0.4774 1.4329 1.2311
H44 H 0.4196 1.4164 1.2214
C48 C 0.4929(4) 1.3369(4) 1.1530(4)
C49 C 0.4357(5) 1.3563(5) 1.1252(4)
H45 H 0.4203 1.4004 1.0968
C50 C 0.4035(5) 1.3113(4) 1.1395(4)
H46 H 0.3650 1.3253 1.1221
C51 C 0.4259(4) 1.2472(4) 1.1780(4)
C52 C 0.4810(4) 1.2252(4) 1.2088(4)
H47 H 0.4949 1.1804 1.2365
C53 C 0.5137(4) 1.2683(4) 1.1983(4)
H48 H 0.5490 1.2543 1.2198
C54 C 0.3879(4) 1.1964(5) 1.1962(4)
O23 O 0.2095(3) 1.1314(3) 1.3429(2)
O24 O 0.3202(3) 1.0599(3) 1.3321(3)
O25 O 0.1750(3) 0.9594(3) 1.6822(3)
O26 O 0.3039(3) 1.0303(3) 1.6569(3)
O27 O -0.0347(3) 1.2927(3) 1.6299(2)
O28 O 0.0451(3) 1.3418(3) 1.5602(2)
C55 C 0.2626(5) 1.0859(5) 1.3641(4)
C56 C 0.2559(4) 1.0595(4) 1.4384(4)
C57 C 0.1896(5) 1.0688(4) 1.4812(4)
H49 H 0.1497 1.0922 1.4641
C58 C 0.1839(5) 1.0436(4) 1.5473(4)
H50 H 0.1402 1.0511 1.5750
C59 C 0.2432(4) 1.0069(4) 1.5732(4)
C60 C 0.3066(5) 1.0001(4) 1.5308(4)
H51 H 0.3463 0.9775 1.5482
C61 C 0.3147(5) 1.0244(4) 1.4655(4)
H52 H 0.3590 1.0178 1.4386
C62 C 0.2349(5) 0.9793(4) 1.6464(4)
H53 H 0.2751 0.9385 1.6564
C63 C 0.1742(5) 0.9032(4) 1.6727(4)
H54 H 0.1316 0.8932 1.6978
H55 H 0.2130 0.8643 1.6866
H56 H 0.1773 0.9141 1.6271
C64 C 0.2343(4) 1.0279(4) 1.6768(4)
H57 H 0.2226 1.0080 1.7246
C65 C 0.3132(5) 1.0616(5) 1.6906(5)
H58 H 0.3606 1.0616 1.6771
H59 H 0.3030 1.0374 1.7368
H60 H 0.2825 1.1077 1.6813
C66 C 0.1819(4) 1.0956(4) 1.6557(4)
C67 C 0.1993(5) 1.1504(4) 1.6017(4)
H61 H 0.2452 1.1442 1.5783
C68 C 0.1505(4) 1.2121(4) 1.5830(4)
H62 H 0.1636 1.2481 1.5484
C69 C 0.0803(4) 1.2218(4) 1.6158(4)
C70 C 0.0611(5) 1.1686(4) 1.6673(4)
H63 H 0.0144 1.1742 1.6879
C71 C 0.1110(4) 1.1072(4) 1.6882(4)
H64 H 0.0979 1.0725 1.7247
C72 C 0.0270(4) 1.2911(4) 1.5992(4)
O29 O 0.1799(3) 1.0297(3) 1.2310(3)
O30 O 0.1248(3) 1.1087(3) 1.2815(3)
O31 O 0.0012(3) 0.8159(3) 1.4850(3)
O32 O -0.1447(3) 0.9651(3) 1.4932(3)
O33 O -0.1039(3) 0.9103(3) 1.1932(3)
O34 O -0.1084(3) 1.0168(3) 1.1661(2)
C73 C 0.1340(4) 1.0537(4) 1.2740(4)
C74 C 0.0893(4) 1.0111(4) 1.3234(4)
C75 C 0.1038(4) 0.9468(4) 1.3253(4)
H65 H 0.1396 0.9299 1.2942
C76 C 0.0632(5) 0.9056(4) 1.3762(4)
H66 H 0.0720 0.8622 1.3769
C77 C 0.0116(4) 0.9284(4) 1.4239(4)
C78 C -0.0013(4) 0.9962(4) 1.4200(4)
H67 H -0.0368 1.0138 1.4507
C79 C 0.0380(4) 1.0351(4) 1.3717(4)
H68 H 0.0304 1.0782 1.3712
C80 C -0.0306(4) 0.8858(4) 1.4799(4)
H69 H -0.0325 0.8900 1.5207
C81 C 0.0599(5) 0.7822(4) 1.5163(4)
H70 H 0.0792 0.7355 1.5187
H71 H 0.0447 0.7842 1.5598
H72 H 0.0947 0.8044 1.4914
C82 C -0.1057(4) 0.9078(4) 1.4719(4)
H73 H -0.1250 0.8707 1.5018
C83 C -0.2138(8) 0.9675(10) 1.5274(13)
H74 H -0.2366 1.0077 1.5393
H75 H -0.2134 0.9280 1.5662
H76 H -0.2384 0.9684 1.4999
C84 C -0.1087(4) 0.9205(4) 1.4057(4)
C85 C -0.1193(5) 0.9862(4) 1.3605(4)
H77 H -0.1271 1.0219 1.3735
C86 C -0.1182(5) 0.9991(4) 1.2956(4)
H78 H -0.1230 1.0427 1.2651
C87 C -0.1095(4) 0.9442(4) 1.2766(4)
C88 C -0.1026(4) 0.8808(4) 1.3232(4)
H79 H -0.0968 0.8446 1.3118
C89 C -0.1040(4) 0.8698(4) 1.3868(4)
H80 H -0.1017 0.8268 1.4178
C90 C -0.1065(4) 0.9574(4) 1.2058(4)
O35 O 0.4104(3) 0.9899(3) 1.2296(2)
O36 O 0.3344(3) 0.9765(3) 1.1968(3)
O37 O 0.6333(4) 0.6670(4) 1.2111(4)
O38 O 0.5884(4) 0.7392(4) 1.0566(4)
O39 O 0.8241(3) 0.8830(3) 1.0641(3)
O40 O 0.7370(3) 0.9743(3) 1.0252(2)
C91 C 0.3929(5) 0.9569(4) 1.2096(4)
C92 C 0.4443(4) 0.8903(4) 1.2020(4)
C93 C 0.5080(4) 0.8616(4) 1.2192(4)
H81 H 0.5201 0.8828 1.2376
C94 C 0.5546(5) 0.8007(4) 1.2094(4)
H82 H 0.5977 0.7819 1.2206
C95 C 0.5367(5) 0.7693(4) 1.1834(5)
C96 C 0.4727(6) 0.7958(5) 1.1697(5)
H83 H 0.4601 0.7726 1.1539
C97 C 0.4259(5) 0.8552(5) 1.1780(5)
H84 H 0.3825 0.8721 1.1679
C98 C 0.5874(5) 0.7033(5) 1.1704(5)
H85 H 0.5606 0.6750 1.1767
C99 C 0.6079(9) 0.6338(8) 1.2710(9)
H86 H 0.6442 0.6086 1.2952
H87 H 0.5892 0.6030 1.2706
H88 H 0.5716 0.6654 1.2912
C100 C 0.6322(5) 0.7195(5) 1.0982(5)
H89 H 0.6685 0.6770 1.0947
C101 C 0.6265(8) 0.7311(8) 0.9933(7)
H90 H 0.5941 0.7447 0.9670
H91 H 0.6541 0.6843 0.9997
H92 H 0.6564 0.7590 0.9716
C102 C 0.6681(5) 0.7700(5) 1.0824(5)
C103 C 0.6422(5) 0.8341(5) 1.0482(5)
H93 H 0.6023 0.8479 1.0330
C104 C 0.6748(5) 0.8839(5) 1.0336(4)
H94 H 0.6580 0.9285 1.0067
C105 C 0.7304(4) 0.8642(4) 1.0598(4)
C106 C 0.7539(5) 0.7961(5) 1.0989(5)
H95 H 0.7909 0.7816 1.1185
C107 C 0.7219(5) 0.7485(4) 1.1090(5)
H96 H 0.7387 0.7030 1.1340
C108 C 0.7679(5) 0.9097(4) 1.0490(4)
O41 O 0.0252(3) 0.8533(2) 1.0201(2)
O42 O -0.0461(3) 0.8194(2) 1.1173(2)
O43 O 0.2988(3) 0.5712(3) 1.1340(3)
O44 O 0.1889(3) 0.4743(3) 1.1747(2)
O45 O 0.3223(3) 0.5866(3) 0.8204(2)
O46 O 0.2093(3) 0.5972(3) 0.8390(2)
C109 C 0.0108(4) 0.8108(4) 1.0764(4)
C110 C 0.0651(4) 0.7456(4) 1.0972(3)
C111 C 0.1336(4) 0.7346(4) 1.0576(4)
H97 H 0.1429 0.7684 1.0181
C112 C 0.1876(5) 0.6738(4) 1.0770(4)
H98 H 0.2324 0.6677 1.0510
C113 C 0.1729(4) 0.6225(4) 1.1361(4)
C114 C 0.1081(4) 0.6340(4) 1.1741(4)
H99 H 0.0990 0.6012 1.2146
C115 C 0.0563(5) 0.6922(4) 1.1547(4)
H100 H 0.0121 0.6966 1.1817
C116 C 0.2337(4) 0.5603(4) 1.1576(4)
H101 H 0.2243 0.5441 1.2055
C117 C 0.3032(5) 0.6100(5) 1.1626(4)
H102 H 0.3483 0.6161 1.1456
H103 H 0.2966 0.5874 1.2091
H104 H 0.2679 0.6536 1.1529
C118 C 0.2427(4) 0.5012(4) 1.1366(3)
H105 H 0.2863 0.4655 1.1471
C119 C 0.2049(5) 0.4052(4) 1.1793(4)
H106 H 0.1653 0.3898 1.2053
H107 H 0.2441 0.3764 1.1995
H108 H 0.2158 0.4033 1.1363
C120 C 0.2483(4) 0.5221(4) 1.0624(4)
C121 C 0.1899(4) 0.5423(4) 1.0404(4)
H109 H 0.1472 0.5429 1.0697
C122 C 0.1947(5) 0.5622(4) 0.9733(4)
H110 H 0.1553 0.5752 0.9577
C123 C 0.2585(4) 0.5625(4) 0.9297(4)
C124 C 0.3175(5) 0.5419(4) 0.9535(4)
H111 H 0.3605 0.5416 0.9250
C125 C 0.3113(4) 0.5221(4) 1.0202(4)
H112 H 0.3504 0.5086 1.0364
C126 C 0.2659(5) 0.5829(4) 0.8558(4)
O47 O -0.1616(3) 1.0403(3) 0.9142(3)
O48 O -0.0554(3) 0.9639(3) 0.9060(3)
O49 O -0.1152(3) 1.1770(3) 0.5786(2)
O50 O -0.0825(3) 1.0968(3) 0.5064(2)
O51 O 0.1087(3) 0.7528(3) 0.6861(3)
O52 O 0.1833(3) 0.8031(3) 0.6037(3)
C127 C -0.1062(5) 1.0111(4) 0.8807(4)
C128 C -0.0971(5) 1.0326(4) 0.8106(4)
C129 C -0.1522(4) 1.0739(4) 0.7817(4)
H113 H -0.1961 1.0873 0.8075
C130 C -0.1436(4) 1.0976(4) 0.7111(4)
H114 H -0.1823 1.1238 0.6922
C131 C -0.0777(4) 1.0809(4) 0.6717(4)
C132 C -0.0233(4) 1.0391(4) 0.7035(4)
H115 H 0.0212 1.0262 0.6784
C133 C -0.0321(4) 1.0153(4) 0.7713(4)
H116 H 0.0063 0.9875 0.7902
C134 C -0.0720(5) 1.1094(4) 0.5997(4)
H117 H -0.0237 1.1089 0.5788
C135 C -0.0932(5) 1.2222(4) 0.5881(4)
H118 H -0.1243 1.2677 0.5744
H119 H -0.0469 1.2209 0.5627
H120 H -0.0935 1.2081 0.6336
C136 C -0.0875(5) 1.0668(4) 0.5768(4)
H121 H -0.1347 1.0642 0.5989
C137 C -0.1469(5) 1.1338(4) 0.4877(4)
H122 H -0.1394 1.1523 0.4408
H123 H -0.1710 1.1702 0.5052
H124 H -0.1745 1.1042 0.5042
C138 C -0.0363(4) 0.9970(4) 0.5917(4)
C139 C 0.0315(4) 0.9864(4) 0.5532(4)
H125 H 0.0428 1.0227 0.5178
C140 C 0.0822(4) 0.9230(4) 0.5665(4)
H126 H 0.1266 0.9172 0.5397
C141 C 0.0665(4) 0.8688(4) 0.6196(4)
C142 C 0.0003(5) 0.8778(4) 0.6572(4)
H127 H -0.0101 0.8412 0.6930
C143 C -0.0524(5) 0.9411(4) 0.6433(4)
H128 H -0.0976 0.9456 0.6683
C144 C 0.1221(5) 0.8026(4) 0.6394(4)
O53 O 0.2004(3) 0.5180(3) 0.7260(3)
O54 O 0.1234(3) 0.6042(3) 0.7587(3)
O55 O 0.0412(3) 0.2920(3) 0.9934(3)
O56 O -0.1069(3) 0.4375(3) 0.9997(3)
O57 O -0.0944(3) 0.3837(3) 0.7102(3)
O58 O -0.0826(3) 0.4867(3) 0.6759(3)
C145 C 0.1475(5) 0.5426(5) 0.7651(4)
C146 C 0.1126(5) 0.4951(4) 0.8232(4)
C147 C 0.0682(4) 0.5142(5) 0.8752(4)
H129 H 0.0605 0.5570 0.8752
C148 C 0.0356(5) 0.4734(5) 0.9259(4)
H130 H 0.0036 0.4888 0.9595
C149 C 0.0494(5) 0.4065(4) 0.9289(4)
C150 C 0.0952(5) 0.3851(4) 0.8803(4)
H131 H 0.1042 0.3413 0.8821
C151 C 0.1304(5) 0.4280(5) 0.8260(5)
H132 H 0.1642 0.4122 0.7933
C152 C 0.0095(5) 0.3610(4) 0.9873(4)
H133 H 0.0072 0.3663 1.0276
C153 C 0.1013(6) 0.2607(5) 1.0215(6)
H134 H 0.1203 0.2135 1.0256
H135 H 0.0881 0.2647 1.0640
H136 H 0.1356 0.2830 0.9938
C154 C -0.0677(5) 0.3801(5) 0.9802(4)
H137 H -0.0858 0.3426 1.0112
C155 C -0.1804(5) 0.4489(6) 1.0109(6)
H138 H -0.2068 0.4882 1.0240
H139 H -0.1920 0.4098 1.0447
H140 H -0.1913 0.4562 0.9712
C156 C -0.0687(5) 0.3901(5) 0.9106(4)
C157 C -0.0786(5) 0.4587(4) 0.8634(5)
H141 H -0.0834 0.4945 0.8750
C158 C -0.0805(5) 0.4689(5) 0.8026(5)
H142 H -0.0842 0.5121 0.7713
C159 C -0.0772(5) 0.4172(4) 0.7845(4)
C160 C -0.0681(5) 0.3520(4) 0.8321(4)
H143 H -0.0646 0.3162 0.8215
C161 C -0.0643(5) 0.3401(4) 0.8940(4)
H144 H -0.0585 0.2965 0.9248
C162 C -0.0851(4) 0.4305(5) 0.7192(4)
O59 O 0.2756(3) 0.7014(3) 0.5357(3)
O60 O 0.2301(3) 0.6171(3) 0.5754(3)
O61 O 0.2415(3) 0.7789(3) 0.2224(3)
O62 O 0.1233(3) 0.7758(3) 0.2125(2)
O63 O -0.0439(3) 0.5818(3) 0.5288(3)
O64 O 0.0353(3) 0.4984(3) 0.4917(3)
C163 C 0.2510(4) 0.6641(5) 0.5297(4)
C164 C 0.2433(4) 0.6804(4) 0.4618(4)
C165 C 0.2392(5) 0.6322(4) 0.4461(4)
H145 H 0.2416 0.5890 0.4771
C166 C 0.2315(5) 0.6470(5) 0.3837(5)
H146 H 0.2275 0.6138 0.3740
C167 C 0.2297(4) 0.7096(5) 0.3363(4)
C168 C 0.2340(5) 0.7581(5) 0.3543(5)
H147 H 0.2314 0.8015 0.3240
C169 C 0.2420(5) 0.7430(5) 0.4152(4)
H148 H 0.2467 0.7755 0.4253
C170 C 0.2128(4) 0.7288(5) 0.2730(4)
H149 H 0.2313 0.6882 0.2605
C171 C 0.3168(5) 0.7527(5) 0.2020(5)
H150 H 0.3338 0.7885 0.1677
H151 H 0.3286 0.7164 0.1862
H152 H 0.3378 0.7358 0.2386
C172 C 0.1342(4) 0.7584(4) 0.2760(4)
H153 H 0.1166 0.8004 0.2860
C173 C 0.0542(4) 0.8182(4) 0.2065(4)
H154 H 0.0486 0.8285 0.1637
H155 H 0.0452 0.8597 0.2128
H156 H 0.0220 0.7952 0.2390
C174 C 0.0982(5) 0.7100(5) 0.3296(5)
C175 C 0.1099(5) 0.6490(4) 0.3214(4)
H157 H 0.1355 0.6415 0.2822
C176 C 0.0816(5) 0.5986(5) 0.3746(4)
H158 H 0.0905 0.5569 0.3713
C177 C 0.0403(5) 0.6131(5) 0.4316(4)
C178 C 0.0291(5) 0.6741(4) 0.4366(4)
H159 H 0.0010 0.6832 0.4746
C179 C 0.0575(5) 0.7215(4) 0.3881(4)
H160 H 0.0500 0.7617 0.3936
C180 C 0.0086(5) 0.5600(5) 0.4885(5)
O65 O 0.4000(3) 0.5247(3) 0.7110(3)
O66 O 0.3489(3) 0.5213(3) 0.6455(3)
O67 O 0.5621(5) 0.1763(4) 0.7825(5)
O68 O 0.6100(4) 0.1978(5) 0.6132(6)
O69 O 0.8059(3) 0.3663(3) 0.6498(3)
O70 O 0.7746(3) 0.4245(3) 0.5530(3)
C181 C 0.3942(5) 0.4942(5) 0.6821(5)
C182 C 0.4395(4) 0.4237(5) 0.6847(4)
C183 C 0.4848(5) 0.3871(5) 0.7296(5)
H161 H 0.4900 0.4087 0.7524
C184 C 0.5210(5) 0.3188(5) 0.7386(5)
H162 H 0.5503 0.2946 0.7681
C185 C 0.5150(5) 0.2858(5) 0.7052(5)
C186 C 0.4716(5) 0.3224(5) 0.6613(5)
H163 H 0.4668 0.3010 0.6381
C187 C 0.4343(5) 0.3922(5) 0.6512(4)
H164 H 0.4058 0.4163 0.6210
C188 C 0.5522(5) 0.2109(5) 0.7164(7)
H165 H 0.5227 0.1924 0.7104
C189 C 0.5004(8) 0.1692(6) 0.8272(7)
H166 H 0.5088 0.1471 0.8708
H167 H 0.4836 0.1422 0.8183
H168 H 0.4662 0.2133 0.8235
C190 C 0.6220(5) 0.1962(6) 0.6703(8)
H169 H 0.6512 0.1504 0.6912
C191 C 0.6656(9) 0.1683(10) 0.5717(10)
H170 H 0.6498 0.1718 0.5364
H171 H 0.6860 0.1212 0.5953
H172 H 0.6997 0.1913 0.5543
C192 C 0.6601(5) 0.2474(6) 0.6517(8)
C193 C 0.6637(6) 0.2979(7) 0.5931(7)
H173 H 0.6422 0.3034 0.5621
C194 C 0.7002(5) 0.3422(6) 0.5792(6)
H174 H 0.7040 0.3762 0.5385
C195 C 0.7297(5) 0.3356(5) 0.6248(5)
C196 C 0.7279(5) 0.2810(5) 0.6849(6)
H175 H 0.7501 0.2751 0.7155
C197 C 0.6930(5) 0.2357(5) 0.6989(7)
H176 H 0.6918 0.1994 0.7382
C198 C 0.7736(5) 0.3808(5) 0.6072(5)
O71 O 0.3433(3) 0.7460(3) 0.5985(3)
O72 O 0.3891(3) 0.6762(3) 0.6874(3)
O73 O 0.5071(3) 0.9779(3) 0.5287(3)
O74 O 0.6486(3) 0.9339(3) 0.4782(4)
O75 O 0.7609(3) 0.5746(3) 0.5297(3)
O76 O 0.8073(3) 0.5858(3) 0.5952(3)
C199 C 0.3811(5) 0.7304(5) 0.6342(5)
C200 C 0.4244(4) 0.7754(4) 0.6148(4)
C201 C 0.4682(5) 0.7650(5) 0.6541(5)
H177 H 0.4720 0.7285 0.6931
C202 C 0.5041(5) 0.8086(5) 0.6341(5)
H178 H 0.5307 0.8024 0.6612
C203 C 0.5029(5) 0.8621(4) 0.5753(4)
C204 C 0.4623(5) 0.8692(4) 0.5370(4)
H179 H 0.4606 0.9043 0.4969
C205 C 0.4244(4) 0.8265(4) 0.5558(5)
H180 H 0.3986 0.8325 0.5281
C206 C 0.5482(5) 0.9065(4) 0.5514(5)
H181 H 0.5681 0.8978 0.5872
C207 C 0.4649(5) 1.0020(4) 0.5807(5)
H182 H 0.4375 1.0486 0.5636
H183 H 0.4938 0.9987 0.6057
H184 H 0.4346 0.9751 0.6084
C208 C 0.6059(4) 0.8933(5) 0.4943(5)
H185 H 0.5856 0.9077 0.4569
C209 C 0.6943(6) 0.9387(6) 0.4163(6)
H186 H 0.7213 0.9668 0.4075
H187 H 0.6678 0.9585 0.3832
H188 H 0.7250 0.8941 0.4163
C210 C 0.6470(5) 0.8188(5) 0.5107(5)
C211 C 0.6928(5) 0.7911(5) 0.5496(6)
H189 H 0.7001 0.8188 0.5643
C212 C 0.7297(5) 0.7208(5) 0.5685(5)
H190 H 0.7609 0.7022 0.5955
C213 C 0.7190(5) 0.6789(4) 0.5461(4)
C214 C 0.6724(4) 0.7081(5) 0.5061(4)
H191 H 0.6652 0.6814 0.4902
C215 C 0.6362(5) 0.7768(5) 0.4894(4)
H192 H 0.6039 0.7955 0.4634
C216 C 0.7654(6) 0.6078(5) 0.5595(5)
O77 O 1.0874(3) 0.3986(3) 0.4273(2)
O78 O 0.3989(3) 1.1281(3) 1.1018(3)
C217 C 0.4508(6) 1.1437(6) 1.0735(5)
H193 H 0.4480 1.1888 1.0615
N1 N 0.5128(4) 1.0993(4) 1.0582(4)
C218 C 0.5199(6) 1.0296(6) 1.0730(6)
H194 H 0.4956 1.0120 1.1177
H195 H 0.5688 1.0028 1.0697
C219 C 0.4917(5) 1.0215(6) 1.0283(6)
H196 H 0.4971 0.9744 1.0404
H197 H 0.5167 1.0374 0.9841
H198 H 0.4432 1.0476 1.0316
C220 C 0.5785(5) 1.1204(6) 1.0283(5)
H199 H 0.5679 1.1645 1.0310
H200 H 0.6135 1.0880 1.0537
C221 C 0.6074(6) 1.1241(6) 0.9597(6)
H201 H 0.6475 1.1391 0.9431
H202 H 0.5729 1.1557 0.9342
H203 H 0.6207 1.0799 0.9569
O79 O 0.3334(3) 1.2766(3) 1.0435(3)
C222 C 0.2979(6) 1.3176(5) 1.0014(5)
H204 H 0.2536 1.3157 1.0087
N2 N 0.3184(5) 1.3617(4) 0.9495(4)
C223 C 0.3866(6) 1.3677(5) 0.9395(5)
H205 H 0.3880 1.4118 0.9070
H206 H 0.3903 1.3668 0.9802
C224 C 0.4452(6) 1.3173(5) 0.9192(6)
H207 H 0.4869 1.3258 0.9142
H208 H 0.4433 1.3186 0.8781
H209 H 0.4455 1.2734 0.9515
C225 C 0.2781(6) 1.4084(5) 0.8977(4)
H210 H 0.2318 1.4039 0.9134
H211 H 0.2728 1.4547 0.8908
C226 C 0.3084(5) 1.3974(5) 0.8346(5)
H212 H 0.2776 1.4280 0.8052
H213 H 0.3151 1.3513 0.8408
H214 H 0.3525 1.4056 0.8165
O80 O -0.1840(3) 0.8328(3) 1.2034(3)
C227 C -0.1549(5) 0.7816(5) 1.2462(5)
H215 H -0.1068 0.7623 1.2352
N3 N -0.1880(4) 0.7529(4) 1.3063(4)
C228 C -0.2681(6) 0.7859(7) 1.3256(5)
H216 H -0.2820 0.7772 1.3724
H217 H -0.2804 0.8348 1.3034
C229 C -0.3059(7) 0.7580(10) 1.3075(8)
H218 H -0.3551 0.7783 1.3205
H219 H -0.2936 0.7096 1.3293
H220 H -0.2933 0.7679 1.2610
C230 C -0.1560(6) 0.6933(5) 1.3526(5)
H221 H -0.1125 0.6681 1.3305
H222 H -0.1859 0.6648 1.3751
C231 C -0.1414(6) 0.7103(5) 1.4037(5)
H223 H -0.1193 0.6688 1.4348
H224 H -0.1846 0.7344 1.4261
H225 H -0.1114 0.7380 1.3814
O81 O -0.2375(3) 0.9785(3) 1.1468(3)
C232 C -0.2956(5) 0.9671(5) 1.1736(5)
H226 H -0.2975 0.9251 1.1801
N4 N -0.3543(4) 1.0129(5) 1.1929(4)
C233 C -0.3526(6) 1.0809(5) 1.1787(6)
H227 H -0.3997 1.1124 1.1797
H228 H -0.3254 1.0959 1.1348
C234 C -0.3223(8) 1.0846(7) 1.2258(7)
H229 H -0.3233 1.1305 1.2137
H230 H -0.2750 1.0549 1.2241
H231 H -0.3493 1.0707 1.2694
C235 C -0.4178(5) 0.9972(6) 1.2233(6)
H232 H -0.4111 0.9536 1.2216
H233 H -0.4533 1.0314 1.1991
C236 C -0.4432(6) 0.9942(6) 1.2955(6)
H234 H -0.4865 0.9845 1.3138
H235 H -0.4498 1.0373 1.2974
H236 H -0.4090 0.9592 1.3200
O82 O 0.0784(3) 0.7038(3) 0.8228(3)
C237 C 0.0188(6) 0.7171(5) 0.8161(5)
H237 H 0.0160 0.6973 0.7903
N5 N -0.0414(6) 0.7562(7) 0.8413(8)
C238 C -0.0492(15) 0.7670(17) 0.9083(12)
H238 H -0.0939 0.7668 0.9384
H239 H -0.0111 0.7366 0.9305
C239 C -0.044(2) 0.8348(15) 0.869(2)
H240 H -0.0473 0.8570 0.8972
H241 H -0.0807 0.8608 0.8456
H242 H 0.0003 0.8314 0.8385
C240 C -0.1098(10) 0.7732(17) 0.8223(17)
C241 C -0.143(2) 0.782(2) 0.8577(16)
H243 H -0.1884 0.8018 0.8467
H244 H -0.1354 0.8125 0.8695
H245 H -0.1420 0.7399 0.8939
O83 O 0.2128(4) 0.7341(3) 0.7614(3)
C242 C 0.1884(6) 0.7564(5) 0.8064(6)
H246 H 0.1432 0.7566 0.8290
N6 N 0.2211(5) 0.7813(4) 0.8271(4)
C243 C 0.2891(6) 0.7880(6) 0.7909(5)
H247 H 0.2897 0.8324 0.7844
H248 H 0.2991 0.7845 0.7483
C244 C 0.3441(6) 0.7329(6) 0.8283(6)
H249 H 0.3890 0.7378 0.8041
H250 H 0.3438 0.6892 0.8341
H251 H 0.3343 0.7368 0.8703
C245 C 0.1836(6) 0.8092(6) 0.8804(5)
H252 H 0.2142 0.7919 0.9101
H253 H 0.1441 0.7925 0.9047
C246 C 0.1568(7) 0.8881(7) 0.8586(6)
H254 H 0.1342 0.9018 0.8966
H255 H 0.1242 0.9059 0.8313
H256 H 0.1953 0.9054 0.8346
O84 O 0.9483(3) 0.3737(3) 0.4746(3)
C247 C 0.9805(5) 0.3353(5) 0.4417(5)
H257 H 1.0288 0.3213 0.4345
N7 N 0.9563(6) 0.3124(4) 0.4165(4)
C248 C 0.8757(6) 0.3323(6) 0.4298(6)
H258 H 0.8624 0.2916 0.4470
H259 H 0.8543 0.3546 0.4624
C249 C 0.8492(9) 0.3806(7) 0.3661(7)
H260 H 0.7998 0.3907 0.3747
H261 H 0.8716 0.3590 0.3335
H262 H 0.8599 0.4220 0.3506
C250 C 1.0020(10) 0.2708(7) 0.3755(7)
H263 H 0.9793 0.2809 0.3416
H264 H 1.0446 0.2828 0.3541
C251 C 1.0175(8) 0.2066(8) 0.4081(7)
H265 H 1.0480 0.1816 0.3791
H266 H 0.9758 0.1941 0.4281
H267 H 1.0404 0.1962 0.4415
Zn5_2 Zn 0.86272(6) 0.89979(6) 1.12637(6)
Zn6_2 Zn 0.89676(6) 1.03998(6) 1.07495(6)
Zn7_2 Zn 0.80315(6) 1.02167(6) 1.00978(6)
Zn13_2 Zn -0.00540(6) 0.43089(6) 0.49026(6)
Zn13_3 Zn -0.00540(6) 1.43089(6) 1.49026(6)
Zn14_2 Zn -0.09777(6) 0.52212(6) 0.58722(6)
Zn15_2 Zn -0.10386(6) 0.37922(6) 0.63139(6)
Zn15_3 Zn -0.10386(6) 1.37922(6) 1.63139(6)
Zn16_2 Zn -0.17146(7) 1.48918(6) 1.51400(6)
O9_2 O 0.9544(3) 0.5087(3) 0.4071(2)
O10_2 O 0.8449(3) 0.5177(3) 0.4195(3)
O17_2 O -0.1777(3) 1.1278(3) 1.0527(3)
O18_2 O -0.2496(3) 1.1142(3) 1.0130(3)
O27_2 O 0.9653(3) 0.2927(3) 0.6299(2)
O28_2 O 1.0451(3) 0.3418(3) 0.5602(2)
O39_2 O -0.1759(3) 0.8830(3) 1.0641(3)
O40_2 O -0.2630(3) 0.9743(3) 1.0252(2)
O57_2 O 0.9056(3) 0.3837(3) 0.7102(3)
O58_2 O 0.9174(3) 0.4867(3) 0.6759(3)
O63_2 O 0.9561(3) 0.5818(3) 0.5288(3)
O64_2 O 1.0353(3) 0.4984(3) 0.4917(3)
O85 O 0.1425(3) 0.4726(3) 0.3059(3)
O86 O 0.2667(4) 0.4280(3) 0.3386(3)
O87 O 0.6729 0.2670 0.8513
C252 C 0.7332 0.2301 0.8637
H268 H 0.7411 0.1835 0.8843
N8 N 0.7855 0.2529 0.8494
C253 C 0.7745 0.3272 0.8221
H269 H 0.7396 0.3496 0.7958
H270 H 0.8176 0.3355 0.7938
C254 C 0.7509 0.3577 0.8757
H271 H 0.7430 0.4059 0.8562
H272 H 0.7863 0.3372 0.9006
H273 H 0.7085 0.3492 0.9041
C255 C 0.8520 0.2071 0.8647
H274 H 0.8480 0.1623 0.8925
H275 H 0.8663 0.2232 0.8884
C256 C 0.9062 0.2023 0.8028
H276 H 0.9504 0.1725 0.8138
H277 H 0.9098 0.2467 0.7751
H278 H 0.8929 0.1847 0.7803
O88 O 0.5070 0.8444 0.3865
C257 C 0.4459 0.8712 0.3823
H279 H 0.4312 0.9184 0.3647
N9 N 0.3987 0.8431 0.3989
C258 C 0.4160 0.7693 0.4265
H280 H 0.3762 0.7576 0.4592
H281 H 0.4543 0.7507 0.4482
C259 C 0.4354 0.7382 0.3771
H282 H 0.4454 0.6899 0.3978
H283 H 0.4760 0.7480 0.3455
H284 H 0.3977 0.7564 0.3554
C260 C 0.3294 0.8844 0.3827
H285 H 0.3192 0.8639 0.3601
H286 H 0.3306 0.9296 0.3531
C261 C 0.2721 0.8904 0.4420
H287 H 0.2284 0.9171 0.4288
H288 H 0.2811 0.9120 0.4639
H289 H 0.2702 0.8458 0.4713
O89 O 0.2041 0.3651 0.4686
C262 C 0.1950 0.3849 0.5153
H290 H 0.1514 0.4137 0.5282
N10 N 0.2421 0.3673 0.5447
C263 C 0.3115 0.3194 0.5319
H291 H 0.3293 0.3312 0.4850
H292 H 0.3423 0.3239 0.5502
C264 C 0.3123 0.2497 0.5592
H293 H 0.3591 0.2206 0.5498
H294 H 0.2831 0.2446 0.5402
H295 H 0.2953 0.2375 0.6057
C265 C 0.2241 0.3887 0.6030
H296 H 0.1742 0.4106 0.6130
H297 H 0.2359 0.3483 0.6405
C266 C 0.2602 0.4363 0.5935
H298 H 0.2456 0.4481 0.6321
H299 H 0.2484 0.4768 0.5568
H300 H 0.3097 0.4144 0.5854
O90 O 0.3380 0.4987 0.3421
C267 C 0.3886 0.4522 0.3693
H301 H 0.3900 0.4081 0.3791
N11 N 0.4385 0.4557 0.3859
C268 C 0.4235 0.5264 0.3849
H302 H 0.3798 0.5569 0.3717
H303 H 0.4606 0.5451 0.3553
C269 C 0.4193 0.5150 0.4560
H304 H 0.4082 0.5579 0.4607
H305 H 0.4633 0.4855 0.4675
H306 H 0.3837 0.4946 0.4844
C270 C 0.4996 0.3966 0.4027
H307 H 0.5408 0.4096 0.3756
H308 H 0.4996 0.3613 0.3907
C271 C 0.5065 0.3659 0.4736
H309 H 0.5489 0.3284 0.4782
H310 H 0.4676 0.3500 0.5011
H311 H 0.5072 0.3998 0.4864
O91 O 0.4370 0.2720 0.3755
C272 C 0.3889 0.2760 0.3535
H312 H 0.3726 0.3164 0.3207
N12 N 0.3598 0.2285 0.3726
C273 C 0.3861 0.1622 0.4238
H313 H 0.3494 0.1415 0.4471
H314 H 0.3982 0.1706 0.4552
C274 C 0.4491 0.1136 0.3951
H315 H 0.4643 0.0719 0.4295
H316 H 0.4859 0.1336 0.3727
H317 H 0.4372 0.1044 0.3648
C275 C 0.3069 0.2389 0.3414
H318 H 0.3195 0.2000 0.3285
H319 H 0.3056 0.2788 0.3021
C276 C 0.2353 0.2483 0.3859
H320 H 0.2024 0.2542 0.3636
H321 H 0.2219 0.2877 0.3975
H322 H 0.2362 0.2088 0.4248
O92 O 0.3217 0.7431 -0.0147
C277 C 0.3775 0.7318 0.0029
H323 H 0.3827 0.7688 0.0050
N13 N 0.4276 0.6729 0.0180
C278 C 0.4242 0.6126 0.0132
H324 H 0.3759 0.6189 0.0171
H325 H 0.4400 0.5732 0.0500
C279 C 0.4656 0.5976 -0.0478
H326 H 0.4616 0.5568 -0.0457
H327 H 0.5136 0.5915 -0.0527
H328 H 0.4484 0.6348 -0.0846
C280 C 0.4850 0.6710 0.0362
H329 H 0.4813 0.7171 0.0285
H330 H 0.5280 0.6526 0.0084
C281 C 0.4885 0.6294 0.1059
H331 H 0.5275 0.6307 0.1152
H332 H 0.4941 0.5832 0.1135
H333 H 0.4463 0.6474 0.1338
O93 O 0.3380 0.8932 0.0336
C282 C 0.2877 0.9211 0.0744
H334 H 0.2970 0.9436 0.0935
N14 N 0.2240 0.9183 0.0895
C283 C 0.2154 0.8705 0.0663
H335 H 0.2573 0.8315 0.0671
H336 H 0.1769 0.8542 0.0961
C284 C 0.2020 0.9056 -0.0020
H337 H 0.1950 0.8748 -0.0146
H338 H 0.2413 0.9195 -0.0319
H339 H 0.1612 0.9448 -0.0031
C285 C 0.1736 0.9462 0.1387
H340 H 0.1960 0.9631 0.1545
H341 H 0.1583 0.9099 0.1754
C286 C 0.1102 1.0031 0.1154
H342 H 0.0791 1.0190 0.1508
H343 H 0.0867 0.9866 0.1009
H344 H 0.1245 1.0399 0.0798
O94 O 0.5141 0.4407 0.9088
C287 C 0.5575 0.4275 0.8578
H345 H 0.5901 0.3843 0.8640
N15 N 0.5591 0.4713 0.7972
C288 C 0.5050 0.5382 0.7883
H346 H 0.4621 0.5327 0.8195
H347 H 0.4962 0.5565 0.7447
C289 C 0.5250 0.5874 0.7973
H348 H 0.4880 0.6300 0.7915
H349 H 0.5666 0.5941 0.7657
H350 H 0.5332 0.5697 0.8406
C290 C 0.6099 0.4524 0.7427
H351 H 0.5856 0.4578 0.7120
H352 H 0.6365 0.4046 0.7587
C291 C 0.6587 0.4927 0.7076
H353 H 0.6917 0.4768 0.6729
H354 H 0.6829 0.4878 0.7376
H355 H 0.6330 0.5398 0.6896
O95 O 0.9080 0.6367 0.7765
C292 C 0.9662 0.6336 0.7343
H356 H 1.0046 0.6284 0.7472
N16 N 0.9748 0.6373 0.6742
C293 C 0.9104 0.6561 0.6531
H357 H 0.8740 0.6458 0.6914
H358 H 0.9185 0.6293 0.6272
C294 C 0.8869 0.7301 0.6136
H359 H 0.8456 0.7403 0.5999
H360 H 0.9230 0.7405 0.5758
H361 H 0.8770 0.7568 0.6398
C295 C 1.0438 0.6141 0.6353
H362 H 1.0769 0.6237 0.6461
H363 H 1.0433 0.6395 0.5893
C296 C 1.0673 0.5405 0.6460
H364 H 1.1132 0.5278 0.6199
H365 H 1.0358 0.5309 0.6337
H366 H 1.0680 0.5150 0.6915
loop_
_geom_bond_atom_site_label_1
_geom_bond_atom_site_label_2
_geom_bond_site_symmetry_1
_geom_bond_site_symmetry_2
Zn1 O1 1_555 1_555
Zn2 O1 1_555 1_555
Zn3 O1 1_555 1_555
Zn4 O1 1_555 1_555
Zn5 O2 1_555 1_555
Zn6 O2 1_555 1_555
Zn7 O2 1_555 1_555
Zn8 O2 1_555 1_555
Zn9 O3 1_555 1_555
Zn10 O3 1_555 1_555
Zn11 O3 1_555 1_555
Zn12 O3 1_555 1_555
Zn13 O4 1_555 1_555
Zn14 O4 1_555 1_555
Zn15 O4 1_555 1_555
Zn16 O4 1_555 1_555
O5 Zn1 1_555 1_555
O6 Zn2 1_555 1_555
O7 C8 1_555 1_555
O8 C10 1_555 1_555
O9 C18 1_555 1_555
O10 C18 1_555 1_555
C1 O5 1_555 1_555
C2 C1 1_555 1_555
C3 C2 1_555 1_555
H1 C3 1_555 1_555
C4 C3 1_555 1_555
H2 C4 1_555 1_555
C5 C4 1_555 1_555
C6 C5 1_555 1_555
H3 C6 1_555 1_555
C7 C2 1_555 1_555
H4 C7 1_555 1_555
C8 C5 1_555 1_555
H5 C8 1_555 1_555
C9 O7 1_555 1_555
H6 C9 1_555 1_555
H7 C9 1_555 1_555
H8 C9 1_555 1_555
C10 C8 1_555 1_555
H9 C10 1_555 1_555
C11 O8 1_555 1_555
H10 C11 1_555 1_555
H11 C11 1_555 1_555
H12 C11 1_555 1_555
C12 C10 1_555 1_555
C13 C12 1_555 1_555
H13 C13 1_555 1_555
C14 C13 1_555 1_555
H14 C14 1_555 1_555
C15 C14 1_555 1_555
C16 C15 1_555 1_555
H15 C16 1_555 1_555
C17 C12 1_555 1_555
H16 C17 1_555 1_555
C18 C15 1_555 1_555
O11 Zn1 1_555 1_555
O12 Zn3 1_555 1_555
O13 C26 1_555 1_555
O14 C28 1_555 1_555
O15 Zn6 1_555 1_555
O16 Zn8 1_555 1_555
C19 O11 1_555 1_555
C20 C19 1_555 1_555
C21 C20 1_555 1_555
H17 C21 1_555 1_555
C22 C21 1_555 1_555
H18 C22 1_555 1_555
C23 C22 1_555 1_555
C24 C23 1_555 1_555
H19 C24 1_555 1_555
C25 C20 1_555 1_555
H20 C25 1_555 1_555
C26 C23 1_555 1_555
H21 C26 1_555 1_555
C27 O13 1_555 1_555
H22 C27 1_555 1_555
H23 C27 1_555 1_555
H24 C27 1_555 1_555
C28 C26 1_555 1_555
H25 C28 1_555 1_555
C29 O14 1_555 1_555
H26 C29 1_555 1_555
H27 C29 1_555 1_555
H28 C29 1_555 1_555
C30 C28 1_555 1_555
C31 C30 1_555 1_555
H29 C31 1_555 1_555
C32 C31 1_555 1_555
H30 C32 1_555 1_555
C33 C32 1_555 1_555
C34 C33 1_555 1_555
H31 C34 1_555 1_555
C35 C30 1_555 1_555
H32 C35 1_555 1_555
C36 O15 1_555 1_555
O17 C37 1_555 1_555
O18 C37 1_555 1_555
O19 C44 1_555 1_555
O20 C46 1_555 1_555
O21 Zn4 1_555 1_555
O22 Zn1 1_555 1_555
C37 C38 1_555 1_555
C38 C39 1_555 1_555
C39 H33 1_555 1_555
C40 C39 1_555 1_555
H34 C40 1_555 1_555
C41 C40 1_555 1_555
C42 C41 1_555 1_555
H35 C42 1_555 1_555
C43 C38 1_555 1_555
H36 C43 1_555 1_555
C44 C41 1_555 1_555
H37 C44 1_555 1_555
C45 O19 1_555 1_555
H38 C45 1_555 1_555
H39 C45 1_555 1_555
H40 C45 1_555 1_555
C46 C44 1_555 1_555
H41 C46 1_555 1_555
C47 O20 1_555 1_555
H42 C47 1_555 1_555
H43 C47 1_555 1_555
H44 C47 1_555 1_555
C48 C46 1_555 1_555
C49 C48 1_555 1_555
H45 C49 1_555 1_555
C50 C49 1_555 1_555
H46 C50 1_555 1_555
C51 C50 1_555 1_555
C52 C51 1_555 1_555
H47 C52 1_555 1_555
C53 C48 1_555 1_555
H48 C53 1_555 1_555
C54 O21 1_555 1_555
O23 Zn2 1_555 1_555
O24 Zn4 1_555 1_555
O25 C62 1_555 1_555
O26 C64 1_555 1_555
O27 C72 1_555 1_555
O28 C72 1_555 1_555
C55 O23 1_555 1_555
C56 C55 1_555 1_555
C57 C56 1_555 1_555
H49 C57 1_555 1_555
C58 C57 1_555 1_555
H50 C58 1_555 1_555
C59 C58 1_555 1_555
C60 C59 1_555 1_555
H51 C60 1_555 1_555
C61 C56 1_555 1_555
H52 C61 1_555 1_555
C62 C59 1_555 1_555
H53 C62 1_555 1_555
C63 O25 1_555 1_555
H54 C63 1_555 1_555
H55 C63 1_555 1_555
H56 C63 1_555 1_555
C64 C62 1_555 1_555
H57 C64 1_555 1_555
C65 O26 1_555 1_555
H58 C65 1_555 1_555
H59 C65 1_555 1_555
H60 C65 1_555 1_555
C66 C64 1_555 1_555
C67 C66 1_555 1_555
H61 C67 1_555 1_555
C68 C67 1_555 1_555
H62 C68 1_555 1_555
C69 C68 1_555 1_555
C70 C69 1_555 1_555
H63 C70 1_555 1_555
C71 C66 1_555 1_555
H64 C71 1_555 1_555
C72 C69 1_555 1_555
O29 Zn3 1_555 1_555
O30 Zn2 1_555 1_555
O31 C80 1_555 1_555
O32 C82 1_555 1_555
O33 Zn5 1_555 1_555
O34 Zn6 1_555 1_555
C73 O29 1_555 1_555
C74 C73 1_555 1_555
C75 C74 1_555 1_555
H65 C75 1_555 1_555
C76 C75 1_555 1_555
H66 C76 1_555 1_555
C77 C76 1_555 1_555
C78 C77 1_555 1_555
H67 C78 1_555 1_555
C79 C74 1_555 1_555
H68 C79 1_555 1_555
C80 C77 1_555 1_555
H69 C80 1_555 1_555
C81 O31 1_555 1_555
H70 C81 1_555 1_555
H71 C81 1_555 1_555
H72 C81 1_555 1_555
C82 C80 1_555 1_555
H73 C82 1_555 1_555
C83 O32 1_555 1_555
H74 C83 1_555 1_555
H75 C83 1_555 1_555
H76 C83 1_555 1_555
C84 C82 1_555 1_555
C85 C84 1_555 1_555
H77 C85 1_555 1_555
C86 C85 1_555 1_555
H78 C86 1_555 1_555
C87 C86 1_555 1_555
C88 C87 1_555 1_555
H79 C88 1_555 1_555
C89 C84 1_555 1_555
H80 C89 1_555 1_555
C90 O33 1_555 1_555
O35 Zn4 1_555 1_555
O36 Zn3 1_555 1_555
O37 C98 1_555 1_555
O38 C100 1_555 1_555
O39 C108 1_555 1_555
O40 C108 1_555 1_555
C91 O35 1_555 1_555
C92 C91 1_555 1_555
C93 C92 1_555 1_555
H81 C93 1_555 1_555
C94 C93 1_555 1_555
H82 C94 1_555 1_555
C95 C94 1_555 1_555
C96 C95 1_555 1_555
H83 C96 1_555 1_555
C97 C92 1_555 1_555
H84 C97 1_555 1_555
C98 C95 1_555 1_555
H85 C98 1_555 1_555
C99 O37 1_555 1_555
H86 C99 1_555 1_555
H87 C99 1_555 1_555
H88 C99 1_555 1_555
C100 C98 1_555 1_555
H89 C100 1_555 1_555
C101 O38 1_555 1_555
H90 C101 1_555 1_555
H91 C101 1_555 1_555
H92 C101 1_555 1_555
C102 C100 1_555 1_555
C103 C102 1_555 1_555
H93 C103 1_555 1_555
C104 C103 1_555 1_555
H94 C104 1_555 1_555
C105 C104 1_555 1_555
C106 C105 1_555 1_555
H95 C106 1_555 1_555
C107 C102 1_555 1_555
H96 C107 1_555 1_555
C108 C105 1_555 1_555
O41 Zn8 1_555 1_555
O42 Zn5 1_555 1_555
O43 C116 1_555 1_555
O44 C118 1_555 1_555
O45 Zn11 1_555 1_555
O46 Zn9 1_555 1_555
C109 O41 1_555 1_555
C110 C109 1_555 1_555
C111 C110 1_555 1_555
H97 C111 1_555 1_555
C112 C111 1_555 1_555
H98 C112 1_555 1_555
C113 C112 1_555 1_555
C114 C113 1_555 1_555
H99 C114 1_555 1_555
C115 C110 1_555 1_555
H100 C115 1_555 1_555
C116 C113 1_555 1_555
H101 C116 1_555 1_555
C117 O43 1_555 1_555
H102 C117 1_555 1_555
H103 C117 1_555 1_555
H104 C117 1_555 1_555
C118 C116 1_555 1_555
H105 C118 1_555 1_555
C119 O44 1_555 1_555
H106 C119 1_555 1_555
H107 C119 1_555 1_555
H108 C119 1_555 1_555
C120 C118 1_555 1_555
C121 C120 1_555 1_555
H109 C121 1_555 1_555
C122 C121 1_555 1_555
H110 C122 1_555 1_555
C123 C122 1_555 1_555
C124 C123 1_555 1_555
H111 C124 1_555 1_555
C125 C120 1_555 1_555
H112 C125 1_555 1_555
C126 O45 1_555 1_555
O47 Zn7 1_555 1_555
O48 Zn8 1_555 1_555
O49 C134 1_555 1_555
O50 C136 1_555 1_555
O51 Zn9 1_555 1_555
O52 Zn12 1_555 1_555
C127 O47 1_555 1_555
C128 C127 1_555 1_555
C129 C128 1_555 1_555
H113 C129 1_555 1_555
C130 C129 1_555 1_555
H114 C130 1_555 1_555
C131 C130 1_555 1_555
C132 C131 1_555 1_555
H115 C132 1_555 1_555
C133 C128 1_555 1_555
H116 C133 1_555 1_555
C134 C131 1_555 1_555
H117 C134 1_555 1_555
C135 O49 1_555 1_555
H118 C135 1_555 1_555
H119 C135 1_555 1_555
H120 C135 1_555 1_555
C136 C134 1_555 1_555
H121 C136 1_555 1_555
C137 O50 1_555 1_555
H122 C137 1_555 1_555
H123 C137 1_555 1_555
H124 C137 1_555 1_555
C138 C136 1_555 1_555
C139 C138 1_555 1_555
H125 C139 1_555 1_555
C140 C139 1_555 1_555
H126 C140 1_555 1_555
C141 C140 1_555 1_555
C142 C141 1_555 1_555
H127 C142 1_555 1_555
C143 C138 1_555 1_555
H128 C143 1_555 1_555
C144 O51 1_555 1_555
O53 Zn10 1_555 1_555
O54 Zn9 1_555 1_555
O55 C152 1_555 1_555
O56 C154 1_555 1_555
O57 C162 1_555 1_555
O58 C162 1_555 1_555
C145 O53 1_555 1_555
C146 C145 1_555 1_555
C147 C146 1_555 1_555
H129 C147 1_555 1_555
C148 C147 1_555 1_555
H130 C148 1_555 1_555
C149 C148 1_555 1_555
C150 C149 1_555 1_555
H131 C150 1_555 1_555
C151 C146 1_555 1_555
H132 C151 1_555 1_555
C152 C149 1_555 1_555
H133 C152 1_555 1_555
C153 O55 1_555 1_555
H134 C153 1_555 1_555
H135 C153 1_555 1_555
H136 C153 1_555 1_555
C154 C152 1_555 1_555
H137 C154 1_555 1_555
C155 O56 1_555 1_555
H138 C155 1_555 1_555
H139 C155 1_555 1_555
H140 C155 1_555 1_555
C156 C154 1_555 1_555
C157 C156 1_555 1_555
H141 C157 1_555 1_555
C158 C157 1_555 1_555
H142 C158 1_555 1_555
C159 C158 1_555 1_555
C160 C159 1_555 1_555
H143 C160 1_555 1_555
C161 C156 1_555 1_555
H144 C161 1_555 1_555
C162 C159 1_555 1_555
O59 Zn12 1_555 1_555
O60 Zn10 1_555 1_555
O61 C170 1_555 1_555
O62 C172 1_555 1_555
O63 C180 1_555 1_555
O64 C180 1_555 1_555
C163 O59 1_555 1_555
C164 C163 1_555 1_555
C165 C164 1_555 1_555
H145 C165 1_555 1_555
C166 C165 1_555 1_555
H146 C166 1_555 1_555
C167 C166 1_555 1_555
C168 C167 1_555 1_555
H147 C168 1_555 1_555
C169 C164 1_555 1_555
H148 C169 1_555 1_555
C170 C167 1_555 1_555
H149 C170 1_555 1_555
C171 O61 1_555 1_555
H150 C171 1_555 1_555
H151 C171 1_555 1_555
H152 C171 1_555 1_555
C172 C170 1_555 1_555
H153 C172 1_555 1_555
C173 O62 1_555 1_555
H154 C173 1_555 1_555
H155 C173 1_555 1_555
H156 C173 1_555 1_555
C174 C172 1_555 1_555
C175 C174 1_555 1_555
H157 C175 1_555 1_555
C176 C175 1_555 1_555
H158 C176 1_555 1_555
C177 C176 1_555 1_555
C178 C177 1_555 1_555
H159 C178 1_555 1_555
C179 C174 1_555 1_555
H160 C179 1_555 1_555
C180 C177 1_555 1_555
O65 Zn11 1_555 1_555
O66 Zn10 1_555 1_555
O67 C188 1_555 1_555
O68 C190 1_555 1_555
O69 Zn15 1_555 1_555
O70 Zn16 1_555 1_555
C181 O65 1_555 1_555
C182 C181 1_555 1_555
C183 C182 1_555 1_555
H161 C183 1_555 1_555
C184 C183 1_555 1_555
H162 C184 1_555 1_555
C185 C184 1_555 1_555
C186 C185 1_555 1_555
H163 C186 1_555 1_555
C187 C182 1_555 1_555
H164 C187 1_555 1_555
C188 C185 1_555 1_555
H165 C188 1_555 1_555
C189 O67 1_555 1_555
H166 C189 1_555 1_555
H167 C189 1_555 1_555
H168 C189 1_555 1_555
C190 C188 1_555 1_555
H169 C190 1_555 1_555
C191 O68 1_555 1_555
H170 C191 1_555 1_555
H171 C191 1_555 1_555
H172 C191 1_555 1_555
C192 C190 1_555 1_555
C193 C192 1_555 1_555
H173 C193 1_555 1_555
C194 C193 1_555 1_555
H174 C194 1_555 1_555
C195 C194 1_555 1_555
C196 C195 1_555 1_555
H175 C196 1_555 1_555
C197 C192 1_555 1_555
H176 C197 1_555 1_555
C198 O69 1_555 1_555
O71 Zn12 1_555 1_555
O72 Zn11 1_555 1_555
O73 C206 1_555 1_555
O74 C208 1_555 1_555
O75 Zn16 1_555 1_555
O76 Zn14 1_555 1_555
C199 O71 1_555 1_555
C200 C199 1_555 1_555
C201 C200 1_555 1_555
H177 C201 1_555 1_555
C202 C201 1_555 1_555
H178 C202 1_555 1_555
C203 C202 1_555 1_555
C204 C203 1_555 1_555
H179 C204 1_555 1_555
C205 C200 1_555 1_555
H180 C205 1_555 1_555
C206 C203 1_555 1_555
H181 C206 1_555 1_555
C207 O73 1_555 1_555
H182 C207 1_555 1_555
H183 C207 1_555 1_555
H184 C207 1_555 1_555
C208 C206 1_555 1_555
H185 C208 1_555 1_555
C209 O74 1_555 1_555
H186 C209 1_555 1_555
H187 C209 1_555 1_555
H188 C209 1_555 1_555
C210 C208 1_555 1_555
C211 C210 1_555 1_555
H189 C211 1_555 1_555
C212 C211 1_555 1_555
H190 C212 1_555 1_555
C213 C212 1_555 1_555
C214 C213 1_555 1_555
H191 C214 1_555 1_555
C215 C210 1_555 1_555
H192 C215 1_555 1_555
C216 O75 1_555 1_555
O77 Zn13 1_555 1_555
O78 Zn1 1_555 1_555
C217 O78 1_555 1_555
H193 C217 1_555 1_555
N1 C217 1_555 1_555
C218 N1 1_555 1_555
H194 C218 1_555 1_555
H195 C218 1_555 1_555
C219 C218 1_555 1_555
H196 C219 1_555 1_555
H197 C219 1_555 1_555
H198 C219 1_555 1_555
C220 N1 1_555 1_555
H199 C220 1_555 1_555
H200 C220 1_555 1_555
C221 C220 1_555 1_555
H201 C221 1_555 1_555
H202 C221 1_555 1_555
H203 C221 1_555 1_555
O79 Zn1 1_555 1_555
C222 O79 1_555 1_555
H204 C222 1_555 1_555
N2 C222 1_555 1_555
C223 N2 1_555 1_555
H205 C223 1_555 1_555
H206 C223 1_555 1_555
C224 C223 1_555 1_555
H207 C224 1_555 1_555
H208 C224 1_555 1_555
H209 C224 1_555 1_555
C225 N2 1_555 1_555
H210 C225 1_555 1_555
H211 C225 1_555 1_555
C226 C225 1_555 1_555
H212 C226 1_555 1_555
H213 C226 1_555 1_555
H214 C226 1_555 1_555
O80 Zn5 1_555 1_555
C227 O80 1_555 1_555
H215 C227 1_555 1_555
N3 C227 1_555 1_555
C228 N3 1_555 1_555
H216 C228 1_555 1_555
H217 C228 1_555 1_555
C229 C228 1_555 1_555
H218 C229 1_555 1_555
H219 C229 1_555 1_555
H220 C229 1_555 1_555
C230 N3 1_555 1_555
H221 C230 1_555 1_555
H222 C230 1_555 1_555
C231 C230 1_555 1_555
H223 C231 1_555 1_555
H224 C231 1_555 1_555
H225 C231 1_555 1_555
O81 Zn5 1_555 1_555
C232 O81 1_555 1_555
H226 C232 1_555 1_555
N4 C232 1_555 1_555
C233 N4 1_555 1_555
H227 C233 1_555 1_555
H228 C233 1_555 1_555
C234 C233 1_555 1_555
H229 C234 1_555 1_555
H230 C234 1_555 1_555
H231 C234 1_555 1_555
C235 N4 1_555 1_555
H232 C235 1_555 1_555
H233 C235 1_555 1_555
C236 C235 1_555 1_555
H234 C236 1_555 1_555
H235 C236 1_555 1_555
H236 C236 1_555 1_555
O82 Zn9 1_555 1_555
C237 O82 1_555 1_555
H237 C237 1_555 1_555
N5 C237 1_555 1_555
C238 N5 1_555 1_555
H238 C238 1_555 1_555
H239 C238 1_555 1_555
C239 C238 1_555 1_555
H240 C239 1_555 1_555
H241 C239 1_555 1_555
H242 C239 1_555 1_555
C240 N5 1_555 1_555
C241 C240 1_555 1_555
H243 C241 1_555 1_555
H244 C241 1_555 1_555
H245 C241 1_555 1_555
O83 Zn9 1_555 1_555
C242 O83 1_555 1_555
H246 C242 1_555 1_555
N6 C242 1_555 1_555
C243 N6 1_555 1_555
H247 C243 1_555 1_555
H248 C243 1_555 1_555
C244 C243 1_555 1_555
H249 C244 1_555 1_555
H250 C244 1_555 1_555
H251 C244 1_555 1_555
C245 N6 1_555 1_555
H252 C245 1_555 1_555
H253 C245 1_555 1_555
C246 C245 1_555 1_555
H254 C246 1_555 1_555
H255 C246 1_555 1_555
H256 C246 1_555 1_555
O84 Zn13 1_555 1_555
C247 O84 1_555 1_555
H257 C247 1_555 1_555
N7 C247 1_555 1_555
C248 N7 1_555 1_555
H258 C248 1_555 1_555
H259 C248 1_555 1_555
C249 C248 1_555 1_555
H260 C249 1_555 1_555
H261 C249 1_555 1_555
H262 C249 1_555 1_555
C250 N7 1_555 1_555
H263 C250 1_555 1_555
H264 C250 1_555 1_555
C251 C250 1_555 1_555
H265 C251 1_555 1_555
H266 C251 1_555 1_555
H267 C251 1_555 1_555
O87 C252 1_555 1_555
C252 H268 1_555 1_555
N8 C252 1_555 1_555
C253 N8 1_555 1_555
H269 C253 1_555 1_555
H270 C253 1_555 1_555
C254 C253 1_555 1_555
H271 C254 1_555 1_555
H272 C254 1_555 1_555
H273 C254 1_555 1_555
C255 N8 1_555 1_555
H274 C255 1_555 1_555
H275 C255 1_555 1_555
C256 C255 1_555 1_555
H276 C256 1_555 1_555
H277 C256 1_555 1_555
H278 C256 1_555 1_555
O88 C257 1_555 1_555
C257 H279 1_555 1_555
N9 C257 1_555 1_555
C258 N9 1_555 1_555
H280 C258 1_555 1_555
H281 C258 1_555 1_555
C259 C258 1_555 1_555
H282 C259 1_555 1_555
H283 C259 1_555 1_555
H284 C259 1_555 1_555
C260 N9 1_555 1_555
H285 C260 1_555 1_555
H286 C260 1_555 1_555
C261 C260 1_555 1_555
H287 C261 1_555 1_555
H288 C261 1_555 1_555
H289 C261 1_555 1_555
O89 C262 1_555 1_555
C262 H290 1_555 1_555
N10 C262 1_555 1_555
C263 N10 1_555 1_555
H291 C263 1_555 1_555
H292 C263 1_555 1_555
C264 C263 1_555 1_555
H293 C264 1_555 1_555
H294 C264 1_555 1_555
H295 C264 1_555 1_555
C265 N10 1_555 1_555
H296 C265 1_555 1_555
H297 C265 1_555 1_555
C266 C265 1_555 1_555
H298 C266 1_555 1_555
H299 C266 1_555 1_555
H300 C266 1_555 1_555
O90 C267 1_555 1_555
C267 H301 1_555 1_555
N11 C267 1_555 1_555
C268 N11 1_555 1_555
H302 C268 1_555 1_555
H303 C268 1_555 1_555
C269 C268 1_555 1_555
H304 C269 1_555 1_555
H305 C269 1_555 1_555
H306 C269 1_555 1_555
C270 N11 1_555 1_555
H307 C270 1_555 1_555
H308 C270 1_555 1_555
C271 C270 1_555 1_555
H309 C271 1_555 1_555
H310 C271 1_555 1_555
H311 C271 1_555 1_555
O91 C272 1_555 1_555
C272 H312 1_555 1_555
N12 C272 1_555 1_555
C273 N12 1_555 1_555
H313 C273 1_555 1_555
H314 C273 1_555 1_555
C274 C273 1_555 1_555
H315 C274 1_555 1_555
H316 C274 1_555 1_555
H317 C274 1_555 1_555
C275 N12 1_555 1_555
H318 C275 1_555 1_555
H319 C275 1_555 1_555
C276 C275 1_555 1_555
H320 C276 1_555 1_555
H321 C276 1_555 1_555
H322 C276 1_555 1_555
O92 C277 1_555 1_555
C277 H323 1_555 1_555
N13 C277 1_555 1_555
C278 N13 1_555 1_555
H324 C278 1_555 1_555
H325 C278 1_555 1_555
C279 C278 1_555 1_555
H326 C279 1_555 1_555
H327 C279 1_555 1_555
H328 C279 1_555 1_555
C280 N13 1_555 1_555
H329 C280 1_555 1_555
H330 C280 1_555 1_555
C281 C280 1_555 1_555
H331 C281 1_555 1_555
H332 C281 1_555 1_555
H333 C281 1_555 1_555
O93 C282 1_555 1_555
C282 H334 1_555 1_555
N14 C282 1_555 1_555
C283 N14 1_555 1_555
H335 C283 1_555 1_555
H336 C283 1_555 1_555
C284 C283 1_555 1_555
H337 C284 1_555 1_555
H338 C284 1_555 1_555
H339 C284 1_555 1_555
C285 N14 1_555 1_555
H340 C285 1_555 1_555
H341 C285 1_555 1_555
C286 C285 1_555 1_555
H342 C286 1_555 1_555
H343 C286 1_555 1_555
H344 C286 1_555 1_555
O94 C287 1_555 1_555
C287 H345 1_555 1_555
N15 C287 1_555 1_555
C288 N15 1_555 1_555
H346 C288 1_555 1_555
H347 C288 1_555 1_555
C289 C288 1_555 1_555
H348 C289 1_555 1_555
H349 C289 1_555 1_555
H350 C289 1_555 1_555
C290 N15 1_555 1_555
H351 C290 1_555 1_555
H352 C290 1_555 1_555
C291 C290 1_555 1_555
H353 C291 1_555 1_555
H354 C291 1_555 1_555
H355 C291 1_555 1_555
O95 C292 1_555 1_555
C292 H356 1_555 1_555
N16 C292 1_555 1_555
C293 N16 1_555 1_555
H357 C293 1_555 1_555
H358 C293 1_555 1_555
C294 C293 1_555 1_555
H359 C294 1_555 1_555
H360 C294 1_555 1_555
H361 C294 1_555 1_555
C295 N16 1_555 1_555
H362 C295 1_555 1_555
H363 C295 1_555 1_555
C296 C295 1_555 1_555
H364 C296 1_555 1_555
H365 C296 1_555 1_555
H366 C296 1_555 1_555
Zn5_2 O39 1_555 1_555
Zn6_2 O17 1_555 1_555
Zn7_2 O18 1_555 1_555
Zn13_2 O64 1_555 1_555
Zn13_3 O9 1_555 1_555
Zn14_2 O58 1_555 1_555
Zn15_2 O57 1_555 1_555
Zn15_3 O27 1_555 1_555
Zn16_2 O10 1_555 1_555
O9_2 Zn13 1_555 1_555
O10_2 Zn16 1_555 1_555
O17_2 Zn6 1_555 1_555
O18_2 Zn7 1_555 1_555
O27_2 Zn15 1_555 1_555
O28_2 Zn13 1_555 1_555
O39_2 Zn5 1_555 1_555
O40_2 Zn7 1_555 1_555
O57_2 Zn15 1_555 1_555
O58_2 Zn14 1_555 1_555
O63_2 Zn14 1_555 1_555
O64_2 Zn13 1_555 1_555
O6 C1 1_555 1_555
C6 C7 1_555 1_555
C16 C17 1_555 1_555
O12 C19 1_555 1_555
O16 C36 1_555 1_555
C24 C25 1_555 1_555
C33 C36 1_555 1_555
C34 C35 1_555 1_555
O22 C54 1_555 1_555
C42 C43 1_555 1_555
C51 C54 1_555 1_555
C52 C53 1_555 1_555
O24 C55 1_555 1_555
O28 Zn13_3 1_555 1_555
C60 C61 1_555 1_555
C70 C71 1_555 1_555
O30 C73 1_555 1_555
O34 C90 1_555 1_555
C78 C79 1_555 1_555
C87 C90 1_555 1_555
C88 C89 1_555 1_555
O36 C91 1_555 1_555
O40 Zn7_2 1_555 1_555
C96 C97 1_555 1_555
C106 C107 1_555 1_555
O42 C109 1_555 1_555
O46 C126 1_555 1_555
C114 C115 1_555 1_555
C123 C126 1_555 1_555
C124 C125 1_555 1_555
O48 C127 1_555 1_555
O52 C144 1_555 1_555
C132 C133 1_555 1_555
C141 C144 1_555 1_555
C142 C143 1_555 1_555
O54 C145 1_555 1_555
C150 C151 1_555 1_555
C160 C161 1_555 1_555
O60 C163 1_555 1_555
O63 Zn14_2 1_555 1_555
C168 C169 1_555 1_555
C178 C179 1_555 1_555
O66 C181 1_555 1_555
O70 C198 1_555 1_555
C186 C187 1_555 1_555
C195 C198 1_555 1_555
C196 C197 1_555 1_555
O72 C199 1_555 1_555
O76 C216 1_555 1_555
C204 C205 1_555 1_555
C213 C216 1_555 1_555
C214 C215 1_555 1_555

#END
