
#######################################################################
#
#                 Cambridge Crystallographic Data Centre
#                                CCDC 
#
#######################################################################
#
# If this CIF has been generated from an entry in the Cambridge 
# Structural Database, then it will include bibliographic, chemical, 
# crystal, experimental, refinement or atomic coordinate data resulting 
# from the CCDC's data processing and validation procedures.
#
#######################################################################

data_MIRZIY
_symmetry_cell_setting           triclinic
_symmetry_space_group_name_H-M   'P -1'
_symmetry_Int_Tables_number      2
_space_group_name_Hall           '-P 1'
loop_
_symmetry_equiv_pos_site_id
_symmetry_equiv_pos_as_xyz
1 x,y,z
2 -x,-y,-z
_cell_length_a                   9.7845(6)
_cell_length_b                   10.1235(7)
_cell_length_c                   13.6076(8)
_cell_angle_alpha                92.8150(10)
_cell_angle_beta                 107.2430(10)
_cell_angle_gamma                108.5360(10)
_cell_volume                     1205.13
loop_
_atom_site_label
_atom_site_type_symbol
_atom_site_fract_x
_atom_site_fract_y
_atom_site_fract_z
Co1 Co 0.13358(3) 0.38225(3) -0.03303(2)
C1 C -0.4192(3) 0.0450(2) 0.14473(18)
N1 N 0.2866(2) 1.4051(2) -0.87860(16)
O1 O 0.3065(2) 1.3102(2) -0.54189(15)
C2 C -0.3611(3) 0.1687(2) 0.10853(18)
H1 H -0.4001 0.2410 0.1106
N2 N 0.2263(3) 1.1204(2) -0.66577(18)
H2 H 0.2164 1.0926 -0.7291
O2 O 0.2169(2) 0.6407(3) -0.36478(19)
N3 N 0.0055(3) 0.6929(2) -0.44467(17)
H3 H -0.0900 0.6705 -0.4524
C3 C -0.2425(2) 0.1817(2) 0.06878(17)
O3 O -0.23838(18) 0.40520(17) 0.02487(14)
O4 O -0.0438(2) 0.33938(19) 0.02313(16)
N4 N 0.0009(2) 0.3859(2) -0.18979(16)
C4 C -0.1894(2) 0.0711(2) 0.06301(18)
H4 H -0.1096 0.0807 0.0369
O5 O -0.0857(2) -0.15816(18) 0.05865(15)
C5 C -0.2550(2) -0.0552(2) 0.09627(17)
N5 N -0.5402(2) 0.0320(2) 0.19001(17)
O6 O -0.2844(2) -0.29934(17) 0.09073(15)
C6 C -0.3698(3) -0.0681(2) 0.13890(18)
H5 H -0.4125 -0.1505 0.1630
C7 C -0.2047(3) -0.1783(2) 0.08195(18)
O7 O -0.6151(3) 0.1086(3) 0.16852(19)
O8 O -0.5621(3) -0.0566(2) 0.2476(2)
C8 C -0.1694(2) 0.3197(2) 0.03510(17)
C9 C -0.1496(3) 0.3187(3) -0.2299(2)
H6 H -0.1976 0.2552 -0.1930
C10 C -0.2364(3) 0.3397(3) -0.3232(2)
H7 H -0.3403 0.2875 -0.3503
C11 C -0.1688(3) 0.4388(3) -0.3771(2)
H8 H -0.2269 0.4581 -0.4385
C12 C -0.0123(3) 0.5085(3) -0.33694(19)
C13 C 0.0675(3) 0.4753(3) -0.24490(19)
H9 H 0.1732 0.5177 -0.2200
C14 C 0.0819(3) 0.6196(3) -0.3836(2)
C15 C 0.0671(3) 0.8025(3) -0.49682(19)
C16 C -0.0324(3) 0.8285(3) -0.5826(2)
H10 H -0.1358 0.7743 -0.6042
C17 C 0.0204(4) 0.9346(3) -0.6367(2)
H11 H -0.0475 0.9512 -0.6946
C18 C 0.1725(3) 1.0153(3) -0.6055(2)
C19 C 0.2718(3) 0.9919(3) -0.5191(3)
H12 H 0.3748 1.0471 -0.4974
C20 C 0.2196(3) 0.8864(3) -0.4637(2)
H13 H 0.2873 0.8722 -0.4045
C21 C 0.2906(3) 1.2581(3) -0.62978(19)
C22 C 0.3408(3) 1.3476(3) -0.70606(19)
C23 C 0.2465(3) 1.3289(2) -0.80791(19)
H14 H 0.1501 1.2596 -0.8282
C24 C 0.4282(3) 1.5021(3) -0.8486(2)
H15 H 0.4595 1.5542 -0.8974
C25 C 0.5280(3) 1.5272(3) -0.7490(2)
H16 H 0.6252 1.5948 -0.7312
C26 C 0.4836(3) 1.4515(3) -0.6753(2)
H17 H 0.5481 1.4700 -0.6066
Co1_2 Co 0.13358(3) 1.38225(3) -1.03303(2)
Co1A Co -0.13358(3) -0.38225(3) 0.03303(2)
Co1A_2 Co -0.13358(3) 0.61775(3) 0.03303(2)
N1_2 N 0.2866(2) 0.4051(2) 0.12140(16)
O3A O 0.23838(18) 0.59480(17) -0.02487(14)
O5A O 0.0857(2) 0.15816(18) -0.05865(15)
O6A O 0.2844(2) 0.29934(17) -0.09073(15)
loop_
_geom_bond_atom_site_label_1
_geom_bond_atom_site_label_2
_geom_bond_site_symmetry_1
_geom_bond_site_symmetry_2
Co1 O4 1_555 1_555
C1 C2 1_555 1_555
N1 C23 1_555 1_555
O1 C21 1_555 1_555
C2 H1 1_555 1_555
N2 H2 1_555 1_555
O2 C14 1_555 1_555
N3 H3 1_555 1_555
C3 C2 1_555 1_555
O3 C8 1_555 1_555
O4 C8 1_555 1_555
N4 Co1 1_555 1_555
C4 C3 1_555 1_555
H4 C4 1_555 1_555
O5 C7 1_555 1_555
C5 C4 1_555 1_555
N5 C1 1_555 1_555
O6 C7 1_555 1_555
C6 C1 1_555 1_555
H5 C6 1_555 1_555
C7 C5 1_555 1_555
O7 N5 1_555 1_555
O8 N5 1_555 1_555
C8 C3 1_555 1_555
C9 N4 1_555 1_555
H6 C9 1_555 1_555
C10 C9 1_555 1_555
H7 C10 1_555 1_555
C11 C10 1_555 1_555
H8 C11 1_555 1_555
C12 C11 1_555 1_555
C13 N4 1_555 1_555
H9 C13 1_555 1_555
C14 N3 1_555 1_555
C15 N3 1_555 1_555
C16 C15 1_555 1_555
H10 C16 1_555 1_555
C17 C16 1_555 1_555
H11 C17 1_555 1_555
C18 N2 1_555 1_555
C19 C18 1_555 1_555
H12 C19 1_555 1_555
C20 C15 1_555 1_555
H13 C20 1_555 1_555
C21 N2 1_555 1_555
C22 C21 1_555 1_555
C23 C22 1_555 1_555
H14 C23 1_555 1_555
C24 N1 1_555 1_555
H15 C24 1_555 1_555
C25 C24 1_555 1_555
H16 C25 1_555 1_555
C26 C22 1_555 1_555
H17 C26 1_555 1_555
Co1_2 N1 1_555 1_555
Co1A O5 1_555 1_555
Co1A_2 O3 1_555 1_555
N1_2 Co1 1_555 1_555
O3A Co1 1_555 1_555
O5A Co1 1_555 1_555
O6A Co1 1_555 1_555
C5 C6 1_555 1_555
O6 Co1A 1_555 1_555
C12 C13 1_555 1_555
C12 C14 1_555 1_555
C17 C18 1_555 1_555
C19 C20 1_555 1_555
C25 C26 1_555 1_555

#END
