
#######################################################################
#
#                 Cambridge Crystallographic Data Centre
#                                CCDC 
#
#######################################################################
#
# If this CIF has been generated from an entry in the Cambridge 
# Structural Database, then it will include bibliographic, chemical, 
# crystal, experimental, refinement or atomic coordinate data resulting 
# from the CCDC's data processing and validation procedures.
#
#######################################################################

data_MISGOL
_symmetry_cell_setting           monoclinic
_symmetry_space_group_name_H-M   'P 21/c'
_symmetry_Int_Tables_number      14
_space_group_name_Hall           '-P 2ybc'
loop_
_symmetry_equiv_pos_site_id
_symmetry_equiv_pos_as_xyz
1 x,y,z
2 -x,1/2+y,1/2-z
3 -x,-y,-z
4 x,1/2-y,1/2+z
_cell_length_a                   6.9091(5)
_cell_length_b                   8.6855(7)
_cell_length_c                   34.899(3)
_cell_angle_alpha                90
_cell_angle_beta                 92.9740(10)
_cell_angle_gamma                90
_cell_volume                     2091.43
loop_
_atom_site_label
_atom_site_type_symbol
_atom_site_fract_x
_atom_site_fract_y
_atom_site_fract_z
Cu1 Cu 0.95692(6) 0.87437(5) 0.147830(11)
S1 S 0.98543(13) 0.81422(11) 0.25851(2)
S2 S 0.76836(14) 0.34348(12) 0.01097(3)
O1 O 0.8147(4) 0.7737(3) 0.18764(7)
O2 O 1.0496(3) 0.5728(3) 0.32722(7)
O3 O 1.2928(4) 0.6147(3) 0.36954(8)
O4 O 0.7569(4) 0.1764(4) -0.05276(9)
O5 O 0.9776(3) 0.6844(3) 0.12055(7)
O6 O 0.6608(4) 0.6647(3) 0.10854(8)
O7 O 1.1583(5) 0.9511(3) 0.11680(9)
N1 N 0.7013(4) 0.8632(3) 0.20840(8)
N2 N 0.5847(4) 0.1671(4) -0.03813(9)
C1 C 0.7630(5) 0.8959(4) 0.24509(9)
C2 C 0.6413(5) 0.9823(4) 0.26747(10)
H1 H 0.6795 1.0070 0.2927
C3 C 0.4645(6) 1.0307(4) 0.25203(12)
H2 H 0.3823 1.0870 0.2670
C4 C 0.4081(5) 0.9958(5) 0.21415(12)
H3 H 0.2898 1.0304 0.2035
C5 C 0.5277(6) 0.9106(4) 0.19292(11)
H4 H 0.4905 0.8848 0.1677
C6 C 1.0202(5) 0.8859(4) 0.30723(10)
H5 H 1.0299 0.9973 0.3070
H6 H 0.9102 0.8577 0.3219
C7 C 1.2059(5) 0.8166(4) 0.32586(11)
H7 H 1.3028 0.8117 0.3068
H8 H 1.2546 0.8852 0.3461
C8 C 1.1821(5) 0.6575(4) 0.34270(10)
C9 C 0.5595(5) 0.2460(4) -0.00514(10)
C10 C 0.3816(5) 0.2391(4) 0.01102(11)
H9 H 0.3618 0.2925 0.0336
C11 C 0.2331(6) 0.1534(5) -0.00615(13)
H10 H 0.1131 0.1489 0.0047
C12 C 0.2640(6) 0.0752(5) -0.03926(13)
H11 H 0.1653 0.0161 -0.0509
C13 C 0.4397(6) 0.0839(5) -0.05510(11)
H12 H 0.4597 0.0320 -0.0779
C14 C 0.6951(5) 0.4274(4) 0.05541(10)
H13 H 0.5920 0.5017 0.0504
H14 H 0.6489 0.3482 0.0723
C15 C 0.8727(5) 0.5056(4) 0.07359(11)
H15 H 0.9434 0.5546 0.0536
H16 H 0.9566 0.4280 0.0856
C16 C 0.8265(5) 0.6255(4) 0.10336(9)
H17 H 1.192(5) 1.042(2) 0.1184(9)
H18 H 1.184(5) 0.911(3) 0.0958(7)
Cu1A Cu 1.04308(6) 0.37437(5) 0.352170(11)
O2A O 0.9504(3) 1.0728(3) 0.17278(7)
O3A O 0.7072(4) 1.1147(3) 0.13046(8)
O8 O 0.6717(4) 0.0348(4) 0.36558(11)
H21 H 0.567(3) 0.071(4) 0.3727(10)
H22 H 0.767(3) 0.079(4) 0.3772(10)
O9 O 0.6673(5) 0.7248(4) 0.38212(12)
H19 H 0.556(3) 0.696(4) 0.3784(11)
H20 H 0.691(5) 0.814(2) 0.3799(12)
loop_
_geom_bond_atom_site_label_1
_geom_bond_atom_site_label_2
_geom_bond_site_symmetry_1
_geom_bond_site_symmetry_2
Cu1 O1 1_555 1_555
S1 C1 1_555 1_555
S2 C9 1_555 1_555
O1 N1 1_555 1_555
O2 C8 1_555 1_555
O3 C8 1_555 1_555
O4 N2 1_555 1_555
O5 Cu1 1_555 1_555
O6 C16 1_555 1_555
O7 Cu1 1_555 1_555
O8 H21 1_555 1_555
O9 H19 1_555 1_555
N1 C1 1_555 1_555
N2 C9 1_555 1_555
C1 C2 1_555 1_555
C2 H1 1_555 1_555
C3 C2 1_555 1_555
H2 C3 1_555 1_555
C4 C3 1_555 1_555
H3 C4 1_555 1_555
C5 N1 1_555 1_555
H4 C5 1_555 1_555
C6 S1 1_555 1_555
H5 C6 1_555 1_555
H6 C6 1_555 1_555
C7 C6 1_555 1_555
H7 C7 1_555 1_555
H8 C7 1_555 1_555
C8 C7 1_555 1_555
C9 C10 1_555 1_555
C10 H9 1_555 1_555
C11 C10 1_555 1_555
H10 C11 1_555 1_555
C12 C11 1_555 1_555
H11 C12 1_555 1_555
C13 N2 1_555 1_555
H12 C13 1_555 1_555
C14 S2 1_555 1_555
H13 C14 1_555 1_555
H14 C14 1_555 1_555
C15 C14 1_555 1_555
H15 C15 1_555 1_555
H16 C15 1_555 1_555
C16 O5 1_555 1_555
H17 O7 1_555 1_555
H18 O7 1_555 1_555
H20 O9 1_555 1_555
H22 O8 1_555 1_555
Cu1A O2 1_555 1_555
O2A Cu1 1_555 1_555
O3A Cu1 1_555 1_555
O3 Cu1A 1_555 1_555
C4 C5 1_555 1_555
C12 C13 1_555 1_555
C15 C16 1_555 1_555

#END
