
#######################################################################
#
#                 Cambridge Crystallographic Data Centre
#                                CCDC 
#
#######################################################################
#
# If this CIF has been generated from an entry in the Cambridge 
# Structural Database, then it will include bibliographic, chemical, 
# crystal, experimental, refinement or atomic coordinate data resulting 
# from the CCDC's data processing and validation procedures.
#
#######################################################################

data_MISHOM
_symmetry_cell_setting           monoclinic
_symmetry_space_group_name_H-M   'P 21/c'
_symmetry_Int_Tables_number      14
_space_group_name_Hall           '-P 2ybc'
loop_
_symmetry_equiv_pos_site_id
_symmetry_equiv_pos_as_xyz
1 x,y,z
2 -x,1/2+y,1/2-z
3 -x,-y,-z
4 x,1/2-y,1/2+z
_cell_length_a                   14.160(4)
_cell_length_b                   10.105(3)
_cell_length_c                   20.927(4)
_cell_angle_alpha                90
_cell_angle_beta                 99.730(6)
_cell_angle_gamma                90
_cell_volume                     2951.3
loop_
_atom_site_label
_atom_site_type_symbol
_atom_site_fract_x
_atom_site_fract_y
_atom_site_fract_z
Co1 Co 0.0000 0.0000 0.0000
Co2 Co 0.60601(5) -0.18038(6) -0.31282(3)
C1 C -0.2211(4) 0.1803(5) 0.0839(2)
C2 C -0.2593(4) 0.0615(4) 0.1011(2)
H1 H -0.2357 -0.0175 0.0873
C3 C -0.3315(4) 0.0576(4) 0.1382(2)
C4 C -0.3659(4) 0.1764(4) 0.1587(2)
H2 H -0.4155 0.1756 0.1827
C5 C -0.3271(4) 0.2959(4) 0.1437(2)
C6 C -0.2560(4) 0.2975(4) 0.1055(2)
H3 H -0.2314 0.3779 0.0943
C7 C -0.1441(4) 0.1804(5) 0.0434(2)
C8 C -0.3682(4) -0.0701(4) 0.1591(2)
C9 C -0.3577(4) 0.4225(5) 0.1720(2)
C10 C 0.0442(4) 0.0452(5) -0.2916(2)
C11 C 0.0323(5) 0.0285(6) -0.3577(3)
H4 H -0.0145 0.0767 -0.3845
C12 C 0.0893(5) -0.0590(6) -0.3848(3)
H5 H 0.0801 -0.0690 -0.4296
C13 C 0.1586(4) -0.1309(6) -0.3469(3)
C14 C 0.1706(5) -0.1139(7) -0.2816(3)
H6 H 0.2179 -0.1617 -0.2551
C15 C 0.1148(5) -0.0284(7) -0.2542(3)
H7 H 0.1245 -0.0195 -0.2093
C16 C -0.0190(5) 0.1358(6) -0.2614(3)
H8 H 0.0152 0.2174 -0.2487
H9 H -0.0751 0.1575 -0.2930
C17 C 0.2173(4) -0.2320(6) -0.3756(3)
H10 H 0.2216 -0.3117 -0.3494
H11 H 0.1846 -0.2547 -0.4188
C18 C -0.0096(4) 0.0952(6) -0.1425(2)
H12 H 0.0372 0.1584 -0.1288
C19 C -0.1122(5) -0.0232(6) -0.2051(3)
H13 H -0.1504 -0.0594 -0.2414
C20 C -0.1101(5) -0.0610(6) -0.1432(3)
H14 H -0.1472 -0.1280 -0.1297
C21 C 0.3935(4) -0.2166(5) -0.3394(2)
H15 H 0.3965 -0.2733 -0.3041
C22 C 0.4318(5) -0.0816(5) -0.4097(2)
H16 H 0.4673 -0.0264 -0.4321
C23 C 0.3378(5) -0.1013(5) -0.4249(3)
H17 H 0.2968 -0.0640 -0.4596
C24 C 0.6260(4) -0.1024(5) -0.1725(2)
H18 H 0.6031 -0.0175 -0.1829
C25 C 0.6838(6) -0.2709(7) -0.1166(3)
H19 H 0.7095 -0.3257 -0.0823
C26 C 0.6667(6) -0.3038(6) -0.1788(3)
H20 H 0.6770 -0.3871 -0.1952
C27 C 0.6697(5) -0.0642(6) -0.0528(3)
H21 H 0.7130 -0.1103 -0.0193
H22 H 0.7004 0.0181 -0.0615
C28 C 0.5801(4) -0.0318(5) -0.0269(2)
C29 C 0.5267(4) -0.1309(6) -0.0043(2)
H23 H 0.5442 -0.2192 -0.0072
C30 C 0.5524(4) 0.0977(5) -0.0224(2)
H24 H 0.5878 0.1643 -0.0379
N1 N -0.0443(3) 0.0148(4) -0.10300(19)
N2 N -0.0492(4) 0.0764(5) -0.2048(2)
N3 N 0.3129(3) -0.1871(4) -0.37973(19)
N4 N 0.4691(3) -0.1553(4) -0.35562(18)
N5 N 0.6318(3) -0.1967(4) -0.21548(19)
N6 N 0.6574(3) -0.1451(4) -0.11196(19)
O1 O -0.1030(3) 0.2874(4) 0.03588(16)
O2 O -0.1265(3) 0.0715(3) 0.01901(16)
O3 O -0.3241(3) -0.1767(3) 0.14743(15)
O4 O -0.4372(3) -0.0735(3) 0.18735(16)
O5 O -0.4086(3) 0.4172(3) 0.21359(18)
O6 O -0.3272(3) 0.5302(3) 0.15094(16)
O8 O 0.0631(3) 0.1971(4) 0.00627(17)
Co2B Co -0.60601(5) 0.18038(6) 0.31282(3)
Co2C Co -0.39399(5) -0.31962(6) 0.18718(3)
Co2C_2 Co -0.39399(5) 0.68038(6) 0.18718(3)
Co2B_2 Co 0.39399(5) 0.18038(6) 0.31282(3)
Co2A Co 0.39399(5) 0.31962(6) -0.18718(3)
Co2A_2 Co 0.39399(5) -0.68038(6) -0.18718(3)
C1B C 0.2211(4) -0.1803(5) -0.0839(2)
C2B C 0.2593(4) -0.0615(4) -0.1011(2)
H1B H 0.2357 0.0175 -0.0873
C3B C 0.3315(4) -0.0576(4) -0.1382(2)
C4B C 0.3659(4) -0.1764(4) -0.1587(2)
H2B H 0.4155 -0.1756 -0.1827
C5B C 0.3271(4) -0.2959(4) -0.1437(2)
C6B C 0.2560(4) -0.2975(4) -0.1055(2)
H3B H 0.2314 -0.3779 -0.0943
C7B C 0.1441(4) -0.1804(5) -0.0434(2)
C8B C 0.3682(4) 0.0701(4) -0.1591(2)
C9B C 0.3577(4) -0.4225(5) -0.1720(2)
C10B C -0.0442(4) -0.0452(5) 0.2916(2)
C11B C -0.0323(5) -0.0285(6) 0.3577(3)
H4B H 0.0145 -0.0767 0.3845
C12B C -0.0893(5) 0.0590(6) 0.3848(3)
H5B H -0.0801 0.0690 0.4296
C13B C -0.1586(4) 0.1309(6) 0.3469(3)
C14B C -0.1706(5) 0.1139(7) 0.2816(3)
H6B H -0.2179 0.1617 0.2551
C15B C -0.1148(5) 0.0284(7) 0.2542(3)
H7B H -0.1245 0.0195 0.2093
C16B C 0.0190(5) -0.1358(6) 0.2614(3)
H8B H -0.0152 -0.2174 0.2487
H9B H 0.0751 -0.1575 0.2930
C17B C -0.2173(4) 0.2320(6) 0.3756(3)
H10B H -0.2216 0.3117 0.3494
H11B H -0.1846 0.2547 0.4188
C18B C 0.0096(4) -0.0952(6) 0.1425(2)
H12B H -0.0372 -0.1584 0.1288
C19B C 0.1122(5) 0.0232(6) 0.2051(3)
H13B H 0.1504 0.0594 0.2414
C20B C 0.1101(5) 0.0610(6) 0.1432(3)
H14B H 0.1472 0.1280 0.1297
C21B C -0.3935(4) 0.2166(5) 0.3394(2)
H15B H -0.3965 0.2733 0.3041
C22B C -0.4318(5) 0.0816(5) 0.4097(2)
H16B H -0.4673 0.0264 0.4321
C23B C -0.3378(5) 0.1013(5) 0.4249(3)
H17B H -0.2968 0.0640 0.4596
C24B C 0.3740(4) 0.1024(5) 0.1725(2)
H18B H 0.3969 0.0175 0.1829
C25B C 0.3162(6) 0.2709(7) 0.1166(3)
H19B H 0.2905 0.3257 0.0823
C26B C 0.3333(6) 0.3038(6) 0.1788(3)
H20B H 0.3230 0.3871 0.1952
C27B C 0.3303(5) 0.0642(6) 0.0528(3)
H21B H 0.2870 0.1103 0.0193
H22B H 0.2996 -0.0181 0.0615
C28B C 0.4199(4) 0.0318(5) 0.0269(2)
C29B C 0.4733(4) 0.1309(6) 0.0043(2)
H23B H 0.4558 0.2192 0.0072
C30B C 0.4476(4) -0.0977(5) 0.0224(2)
H24B H 0.4122 -0.1643 0.0379
N1B N 0.0443(3) -0.0148(4) 0.10300(19)
N2B N 0.0492(4) -0.0764(5) 0.2048(2)
N3B N -0.3129(3) 0.1871(4) 0.37973(19)
N4B N -0.4691(3) 0.1553(4) 0.35562(18)
N5B N 0.3682(3) 0.1967(4) 0.21548(19)
N5B_2 N -0.6318(3) 0.1967(4) 0.21548(19)
N6B N 0.3426(3) 0.1451(4) 0.11196(19)
O1B O 0.1030(3) -0.2874(4) -0.03588(16)
O2B O 0.1265(3) -0.0715(3) -0.01901(16)
O3B O 0.3241(3) 0.1767(3) -0.14743(15)
O3C O 0.6759(3) -0.3233(3) -0.35257(15)
O3A O -0.6759(3) 0.3233(3) 0.35257(15)
O4B O 0.4372(3) 0.0735(3) -0.18735(16)
O5B O 0.4086(3) -0.4172(3) -0.21359(18)
O6B O 0.3272(3) -0.5302(3) -0.15094(16)
O6C O 0.6728(3) -0.0302(3) -0.34906(16)
O6A O -0.6728(3) 0.0302(3) 0.34906(16)
O8B O -0.0631(3) -0.1971(4) -0.00627(17)
O7 O 0.1962(5) 0.2943(6) -0.0782(4)
loop_
_geom_bond_atom_site_label_1
_geom_bond_atom_site_label_2
_geom_bond_site_symmetry_1
_geom_bond_site_symmetry_2
Co1 N1 1_555 1_555
Co2 N4 1_555 1_555
C1 C2 1_555 1_555
C2 H1 1_555 1_555
C3 C2 1_555 1_555
C4 C3 1_555 1_555
H2 C4 1_555 1_555
C5 C4 1_555 1_555
C6 C1 1_555 1_555
H3 C6 1_555 1_555
C7 C1 1_555 1_555
C8 C3 1_555 1_555
C9 C5 1_555 1_555
C10 C11 1_555 1_555
C11 H4 1_555 1_555
C12 C11 1_555 1_555
H5 C12 1_555 1_555
C13 C12 1_555 1_555
C14 C13 1_555 1_555
H6 C14 1_555 1_555
C15 C10 1_555 1_555
H7 C15 1_555 1_555
C16 C10 1_555 1_555
H8 C16 1_555 1_555
H9 C16 1_555 1_555
C17 C13 1_555 1_555
H10 C17 1_555 1_555
H11 C17 1_555 1_555
C18 H12 1_555 1_555
C19 H13 1_555 1_555
C20 C19 1_555 1_555
H14 C20 1_555 1_555
C21 H15 1_555 1_555
C22 H16 1_555 1_555
C23 C22 1_555 1_555
H17 C23 1_555 1_555
C24 H18 1_555 1_555
C25 H19 1_555 1_555
C26 C25 1_555 1_555
H20 C26 1_555 1_555
C27 H21 1_555 1_555
H22 C27 1_555 1_555
C28 C27 1_555 1_555
C29 C28 1_555 1_555
H23 C29 1_555 1_555
C30 C28 1_555 1_555
H24 C30 1_555 1_555
N1 C18 1_555 1_555
N2 C16 1_555 1_555
N3 C17 1_555 1_555
N4 C21 1_555 1_555
N5 Co2 1_555 1_555
N6 C24 1_555 1_555
O1 C7 1_555 1_555
O2 Co1 1_555 1_555
O3 C8 1_555 1_555
O4 C8 1_555 1_555
O5 C9 1_555 1_555
O6 C9 1_555 1_555
O8 Co1 1_555 1_555
Co2B N4B 1_555 1_555
Co2C O3 1_555 1_555
Co2C_2 O6 1_555 1_555
Co2B_2 N5B 1_555 1_555
Co2A O3B 1_555 1_555
Co2A_2 O6B 1_555 1_555
C1B C2B 1_555 1_555
C2B H1B 1_555 1_555
C3B C2B 1_555 1_555
C4B C3B 1_555 1_555
H2B C4B 1_555 1_555
C5B C4B 1_555 1_555
C6B C1B 1_555 1_555
H3B C6B 1_555 1_555
C7B C1B 1_555 1_555
C8B C3B 1_555 1_555
C9B C5B 1_555 1_555
C10B C11B 1_555 1_555
C11B H4B 1_555 1_555
C12B C11B 1_555 1_555
H5B C12B 1_555 1_555
C13B C12B 1_555 1_555
C14B C13B 1_555 1_555
H6B C14B 1_555 1_555
C15B C10B 1_555 1_555
H7B C15B 1_555 1_555
C16B C10B 1_555 1_555
H8B C16B 1_555 1_555
H9B C16B 1_555 1_555
C17B C13B 1_555 1_555
H10B C17B 1_555 1_555
H11B C17B 1_555 1_555
C18B H12B 1_555 1_555
C19B H13B 1_555 1_555
C20B C19B 1_555 1_555
H14B C20B 1_555 1_555
C21B H15B 1_555 1_555
C22B H16B 1_555 1_555
C23B C22B 1_555 1_555
H17B C23B 1_555 1_555
C24B H18B 1_555 1_555
C25B H19B 1_555 1_555
C26B C25B 1_555 1_555
H20B C26B 1_555 1_555
C27B H21B 1_555 1_555
H22B C27B 1_555 1_555
C28B C27B 1_555 1_555
C29B C30 1_555 1_555
H23B C29B 1_555 1_555
C30B C29 1_555 1_555
H24B C30B 1_555 1_555
N1B Co1 1_555 1_555
N2B C16B 1_555 1_555
N3B C17B 1_555 1_555
N4B C21B 1_555 1_555
N5B C24B 1_555 1_555
N5B_2 Co2B 1_555 1_555
N6B C24B 1_555 1_555
O1B C7B 1_555 1_555
O2B Co1 1_555 1_555
O3B C8B 1_555 1_555
O3C Co2 1_555 1_555
O3A Co2B 1_555 1_555
O4B C8B 1_555 1_555
O5B C9B 1_555 1_555
O6B C9B 1_555 1_555
O6C Co2 1_555 1_555
O6A Co2B 1_555 1_555
O8B Co1 1_555 1_555
C5 C6 1_555 1_555
C7 O2 1_555 1_555
C14 C15 1_555 1_555
C18 N2 1_555 1_555
C19 N2 1_555 1_555
C20 N1 1_555 1_555
C21 N3 1_555 1_555
C22 N4 1_555 1_555
C23 N3 1_555 1_555
C24 N5 1_555 1_555
C25 N6 1_555 1_555
C26 N5 1_555 1_555
C27 N6 1_555 1_555
C5B C6B 1_555 1_555
C7B O2B 1_555 1_555
C14B C15B 1_555 1_555
C18B N1B 1_555 1_555
C18B N2B 1_555 1_555
C19B N2B 1_555 1_555
C20B N1B 1_555 1_555
C21B N3B 1_555 1_555
C22B N4B 1_555 1_555
C23B N3B 1_555 1_555
C25B N6B 1_555 1_555
C26B N5B 1_555 1_555
C27B N6B 1_555 1_555
C28B C29B 1_555 1_555
C28B C30B 1_555 1_555

#END
