
#######################################################################
#
#                 Cambridge Crystallographic Data Centre
#                                CCDC 
#
#######################################################################
#
# If this CIF has been generated from an entry in the Cambridge 
# Structural Database, then it will include bibliographic, chemical, 
# crystal, experimental, refinement or atomic coordinate data resulting 
# from the CCDC's data processing and validation procedures.
#
#######################################################################

data_MISHIG
_symmetry_cell_setting           monoclinic
_symmetry_space_group_name_H-M   'C c'
_symmetry_Int_Tables_number      9
_space_group_name_Hall           'C -2yc'
loop_
_symmetry_equiv_pos_site_id
_symmetry_equiv_pos_as_xyz
1 x,y,z
2 x,-y,1/2+z
3 1/2+x,1/2+y,z
4 1/2+x,1/2-y,1/2+z
_cell_length_a                   40.152(9)
_cell_length_b                   8.353(3)
_cell_length_c                   18.842(5)
_cell_angle_alpha                90
_cell_angle_beta                 113.138(9)
_cell_angle_gamma                90
_cell_volume                     5811.09
loop_
_atom_site_label
_atom_site_type_symbol
_atom_site_fract_x
_atom_site_fract_y
_atom_site_fract_z
Co1 Co 0.833700(10) 0.34795(5) 0.23552(2)
Co2 Co 0.718510(10) 0.86283(5) -0.088650(19)
Co3 Co 1.023204(13) 0.89066(5) 0.55868(2)
C1 C 0.87670(9) 0.5196(4) 0.46064(18)
C2 C 0.91145(9) 0.5659(4) 0.46960(18)
H1 H 0.9189 0.5513 0.4292
C3 C 0.93475(9) 0.6328(4) 0.5376(2)
C4 C 0.92436(9) 0.6514(4) 0.5987(2)
H2 H 0.9400 0.6993 0.6441
C5 C 0.89031(9) 0.5982(4) 0.59222(18)
C6 C 0.86669(8) 0.5353(4) 0.52355(18)
H3 H 0.8438 0.5028 0.5188
C7 C 0.85084(10) 0.4542(4) 0.38543(19)
C8 C 0.97110(9) 0.6922(5) 0.5430(2)
C9 C 0.88050(8) 0.6222(4) 0.66050(18)
C10 C 0.62204(8) 1.1835(4) -0.3853(2)
C11 C 0.64568(8) 1.1205(4) -0.31622(17)
H4 H 0.6404 1.1295 -0.2726
C12 C 0.67730(8) 1.0439(4) -0.31079(17)
C13 C 0.68618(8) 1.0378(4) -0.37460(16)
H5 H 0.7077 0.9895 -0.3709
C14 C 0.66285(8) 1.1042(4) -0.44462(17)
C15 C 0.63070(9) 1.1730(4) -0.44978(19)
H6 H 0.6146 1.2128 -0.4969
C16 C 0.58718(9) 1.2633(4) -0.3913(2)
C17 C 0.70172(9) 0.9692(4) -0.23551(17)
C18 C 0.67257(9) 1.1058(4) -0.51420(16)
C19 C 1.01976(14) 1.3358(5) 0.3083(2)
C20 C 1.04275(14) 1.3972(5) 0.2765(2)
H7 H 1.0478 1.3365 0.2406
C21 C 1.05817(11) 1.5446(5) 0.2965(2)
C22 C 1.05093(12) 1.6375(5) 0.3492(2)
H8 H 1.0611 1.7388 0.3621
C23 C 1.02850(14) 1.5786(6) 0.3824(3)
H9 H 1.0239 1.6397 0.4189
C24 C 1.01265(14) 1.4293(6) 0.3622(3)
H10 H 0.9972 1.3912 0.3845
C25 C 1.0050(2) 1.1705(7) 0.2856(3)
H11 H 0.9847 1.1752 0.2360
H12 H 1.0235 1.1038 0.2797
C26 C 1.08276(11) 1.6076(6) 0.2591(3)
H13 H 1.1008 1.6781 0.2949
H14 H 1.0953 1.5188 0.2474
C27 C 1.01427(11) 1.0163(4) 0.4050(2)
H15 H 1.0385 0.9916 0.4168
C28 C 0.96044(14) 1.1094(7) 0.3456(4)
H16 H 0.9403 1.1603 0.3097
C29 C 0.96214(11) 1.0353(6) 0.4103(3)
H17 H 0.9432 1.0257 0.4268
C30 C 1.05916(9) 1.8534(5) 0.1766(2)
H18 H 1.0722 1.9293 0.2131
C31 C 1.03846(12) 1.6258(5) 0.1212(3)
H19 H 1.0340 1.5170 0.1114
C32 C 1.02334(13) 1.7432(4) 0.0738(2)
H20 H 1.0064 1.7301 0.0235
C33 C 0.66493(9) 0.3935(4) 0.0907(2)
C34 C 0.67292(10) 0.3682(4) 0.0262(2)
H21 H 0.6957 0.3967 0.0284
C35 C 0.64825(10) 0.3023(4) -0.0407(2)
C36 C 0.61506(11) 0.2488(6) -0.0404(3)
H22 H 0.5982 0.1988 -0.0838
C37 C 0.60758(12) 0.2704(7) 0.0240(3)
H23 H 0.5855 0.2359 0.0235
C38 C 0.63196(11) 0.3413(5) 0.0888(3)
H24 H 0.6264 0.3547 0.1319
C39 C 0.69031(10) 0.4763(6) 0.1622(2)
H25 H 0.6808 0.5818 0.1649
H26 H 0.6913 0.4163 0.2070
C40 C 0.65591(12) 0.2791(5) -0.1116(2)
H27 H 0.6646 0.1708 -0.1121
H28 H 0.6336 0.2922 -0.1569
C41 C 0.75422(9) 0.3932(5) 0.2001(2)
H29 H 0.7532 0.3069 0.2304
C42 C 0.77332(10) 0.5634(5) 0.1397(2)
H30 H 0.7883 0.6167 0.1203
C43 C 0.73872(11) 0.6045(5) 0.1258(2)
H31 H 0.7256 0.6897 0.0961
C44 C 0.68079(11) 0.5527(4) -0.1113(2)
H32 H 0.6605 0.6060 -0.1109
C45 C 0.71658(12) 0.3625(5) -0.1148(3)
H33 H 0.7263 0.2621 -0.1162
C46 C 0.73280(12) 0.5052(5) -0.1118(3)
H34 H 0.7557 0.5195 -0.1123
C47 C 0.90247(12) -0.2141(5) 0.2008(3)
C48 C 0.87886(11) -0.1601(5) 0.1295(3)
H35 H 0.8544 -0.1502 0.1203
C49 C 0.88990(11) -0.1212(5) 0.0726(3)
C50 C 0.92663(13) -0.1419(8) 0.0876(4)
H36 H 0.9353 -0.1144 0.0503
C51 C 0.94985(14) -0.2023(9) 0.1570(4)
H37 H 0.9739 -0.2216 0.1650
C52 C 0.93837(13) -0.2346(7) 0.2146(3)
H38 H 0.9546 -0.2702 0.2624
C53 C 0.89022(15) -0.2455(5) 0.2657(3)
H39 H 0.8796 -0.3515 0.2596
H40 H 0.9110 -0.2429 0.3145
C54 C 0.86549(11) -0.0512(7) -0.0032(3)
H41 H 0.8756 0.0500 -0.0104
H42 H 0.8650 -0.1226 -0.0442
C55 C 0.86523(10) 0.0307(5) 0.2551(2)
H43 H 0.8846 0.0777 0.2476
C56 C 0.83185(12) -0.1475(5) 0.2756(3)
H44 H 0.8230 -0.2448 0.2848
C57 C 0.81559(12) -0.0032(5) 0.2682(3)
H45 H 0.7934 0.0160 0.2716
C58 C 0.79931(10) -0.1172(5) -0.0483(2)
H46 H 0.7997 -0.2040 -0.0789
C59 C 0.81691(11) 0.0885(5) 0.0286(3)
H47 H 0.8310 0.1692 0.0603
C60 C 0.78207(11) 0.0606(5) 0.0121(2)
H48 H 0.7675 0.1193 0.0306
N1 N 0.99640(7) 0.9767(4) 0.44781(17)
N2 N 0.99305(12) 1.0966(5) 0.3421(2)
N3 N 1.06230(8) 1.6941(4) 0.18881(18)
N4 N 1.03573(8) 1.8886(4) 0.10787(17)
N5 N 0.78300(7) 0.4332(4) 0.18614(16)
N6 N 0.72710(7) 0.4932(4) 0.16494(18)
N7 N 0.68316(9) 0.3936(4) -0.11539(18)
N8 N 0.71057(9) 0.6254(4) -0.10782(17)
N9 N 0.83720(8) 0.1105(3) 0.25486(16)
N10 N 0.86308(9) -0.1245(3) 0.2673(2)
N11 N 0.82815(9) -0.0243(4) -0.01004(19)
N12 N 0.77082(8) -0.0709(4) -0.03729(16)
O1 O 0.82100(8) 0.4022(4) 0.37739(16)
O2 O 0.86234(7) 0.4545(3) 0.33092(13)
O3 O 0.98440(8) 0.6394(4) 0.49879(19)
O4 O 0.98665(7) 0.8021(4) 0.59319(16)
O5 O 0.90235(7) 0.6743(4) 0.72135(15)
O6 O 0.84740(6) 0.5887(3) 0.64960(12)
O7 O 0.56634(6) 1.3080(3) -0.45648(15)
O8 O 0.58047(8) 1.2802(4) -0.33288(17)
O9 O 0.69166(7) 0.9901(3) -0.17976(13)
O10 O 0.72859(7) 0.8927(4) -0.22982(14)
O11 O 0.70524(6) 1.0743(3) -0.50212(13)
O12 O 0.64910(7) 1.1434(3) -0.57802(14)
Co1A Co 0.833700(10) 0.65205(5) 0.73552(2)
Co2_2 Co 0.718510(10) -0.13717(5) -0.088650(19)
Co2A Co 0.718510(10) 1.13717(5) -0.588650(19)
Co3A Co 1.023204(13) 2.10934(5) 0.05868(2)
Co3B Co 0.523204(13) 1.39066(5) -0.44132(2)
N4A N 1.03573(8) 1.1114(4) 0.60787(17)
N12_2 N 0.77082(8) 0.9291(4) -0.03729(16)
O6A O 0.84740(6) 0.4113(3) 0.14960(12)
O7B O 1.06634(6) 0.8080(3) 0.54352(15)
O11A O 0.70524(6) 0.9257(3) -0.00212(13)
loop_
_geom_bond_atom_site_label_1
_geom_bond_atom_site_label_2
_geom_bond_site_symmetry_1
_geom_bond_site_symmetry_2
Co1 N5 1_555 1_555
Co2 N8 1_555 1_555
Co3 N1 1_555 1_555
C1 C2 1_555 1_555
C2 H1 1_555 1_555
C3 C2 1_555 1_555
C4 C3 1_555 1_555
H2 C4 1_555 1_555
C5 C4 1_555 1_555
C6 C1 1_555 1_555
H3 C6 1_555 1_555
C7 C1 1_555 1_555
C8 C3 1_555 1_555
C9 C5 1_555 1_555
C10 C11 1_555 1_555
C11 H4 1_555 1_555
C12 C11 1_555 1_555
C13 C12 1_555 1_555
H5 C13 1_555 1_555
C14 C13 1_555 1_555
C15 C10 1_555 1_555
H6 C15 1_555 1_555
C16 C10 1_555 1_555
C17 C12 1_555 1_555
C18 C14 1_555 1_555
C19 C20 1_555 1_555
C20 H7 1_555 1_555
C21 C20 1_555 1_555
C22 C21 1_555 1_555
H8 C22 1_555 1_555
C23 C22 1_555 1_555
H9 C23 1_555 1_555
C24 C19 1_555 1_555
H10 C24 1_555 1_555
C25 C19 1_555 1_555
H11 C25 1_555 1_555
H12 C25 1_555 1_555
C26 C21 1_555 1_555
H13 C26 1_555 1_555
H14 C26 1_555 1_555
C27 H15 1_555 1_555
C28 H16 1_555 1_555
C29 C28 1_555 1_555
H17 C29 1_555 1_555
C30 H18 1_555 1_555
C31 H19 1_555 1_555
C32 C31 1_555 1_555
H20 C32 1_555 1_555
C33 C34 1_555 1_555
C34 H21 1_555 1_555
C35 C34 1_555 1_555
C36 C35 1_555 1_555
H22 C36 1_555 1_555
C37 C36 1_555 1_555
H23 C37 1_555 1_555
C38 C33 1_555 1_555
H24 C38 1_555 1_555
C39 C33 1_555 1_555
H25 C39 1_555 1_555
H26 C39 1_555 1_555
C40 C35 1_555 1_555
H27 C40 1_555 1_555
H28 C40 1_555 1_555
C41 H29 1_555 1_555
C42 H30 1_555 1_555
C43 C42 1_555 1_555
H31 C43 1_555 1_555
C44 H32 1_555 1_555
C45 H33 1_555 1_555
C46 C45 1_555 1_555
H34 C46 1_555 1_555
C47 C48 1_555 1_555
C48 H35 1_555 1_555
C49 C48 1_555 1_555
C50 C49 1_555 1_555
H36 C50 1_555 1_555
C51 C50 1_555 1_555
H37 C51 1_555 1_555
C52 C47 1_555 1_555
H38 C52 1_555 1_555
C53 C47 1_555 1_555
H39 C53 1_555 1_555
H40 C53 1_555 1_555
C54 C49 1_555 1_555
H41 C54 1_555 1_555
H42 C54 1_555 1_555
C55 H43 1_555 1_555
C56 H44 1_555 1_555
C57 C56 1_555 1_555
H45 C57 1_555 1_555
C58 H46 1_555 1_555
C59 H47 1_555 1_555
C60 C59 1_555 1_555
H48 C60 1_555 1_555
N1 C27 1_555 1_555
N2 C25 1_555 1_555
N3 C26 1_555 1_555
N4 C30 1_555 1_555
N5 C41 1_555 1_555
N6 C39 1_555 1_555
N7 C40 1_555 1_555
N8 C44 1_555 1_555
N9 Co1 1_555 1_555
N10 C53 1_555 1_555
N11 C54 1_555 1_555
N12 C58 1_555 1_555
O1 C7 1_555 1_555
O2 Co1 1_555 1_555
O3 C8 1_555 1_555
O4 Co3 1_555 1_555
O5 C9 1_555 1_555
O6 C9 1_555 1_555
O7 C16 1_555 1_555
O8 C16 1_555 1_555
O9 Co2 1_555 1_555
O10 C17 1_555 1_555
O11 C18 1_555 1_555
O12 C18 1_555 1_555
Co1A O6 1_555 1_555
Co2_2 N12 1_555 1_555
Co2A O11 1_555 1_555
Co3A N4 1_555 1_555
Co3B O7 1_555 1_555
N4A Co3 1_555 1_555
N12_2 Co2 1_555 1_555
O6A Co1 1_555 1_555
O7B Co3 1_555 1_555
O11A Co2 1_555 1_555
C5 C6 1_555 1_555
C7 O2 1_555 1_555
C8 O4 1_555 1_555
C14 C15 1_555 1_555
C17 O9 1_555 1_555
C23 C24 1_555 1_555
C27 N2 1_555 1_555
C28 N2 1_555 1_555
C29 N1 1_555 1_555
C30 N3 1_555 1_555
C31 N3 1_555 1_555
C32 N4 1_555 1_555
C37 C38 1_555 1_555
C41 N6 1_555 1_555
C42 N5 1_555 1_555
C43 N6 1_555 1_555
C44 N7 1_555 1_555
C45 N7 1_555 1_555
C46 N8 1_555 1_555
C51 C52 1_555 1_555
C55 N9 1_555 1_555
C55 N10 1_555 1_555
C56 N10 1_555 1_555
C57 N9 1_555 1_555
C58 N11 1_555 1_555
C59 N11 1_555 1_555
C60 N12 1_555 1_555

#END
