
#######################################################################
#
#                 Cambridge Crystallographic Data Centre
#                                CCDC 
#
#######################################################################
#
# If this CIF has been generated from an entry in the Cambridge 
# Structural Database, then it will include bibliographic, chemical, 
# crystal, experimental, refinement or atomic coordinate data resulting 
# from the CCDC's data processing and validation procedures.
#
#######################################################################

data_MISJUU
_symmetry_cell_setting           triclinic
_symmetry_space_group_name_H-M   'P -1'
_symmetry_Int_Tables_number      2
_space_group_name_Hall           '-P 1'
loop_
_symmetry_equiv_pos_site_id
_symmetry_equiv_pos_as_xyz
1 x,y,z
2 -x,-y,-z
_cell_length_a                   6.4056(8)
_cell_length_b                   8.2220(6)
_cell_length_c                   9.0916(12)
_cell_angle_alpha                90.946(8)
_cell_angle_beta                 96.487(6)
_cell_angle_gamma                110.425(8)
_cell_volume                     445.044
loop_
_atom_site_label
_atom_site_type_symbol
_atom_site_fract_x
_atom_site_fract_y
_atom_site_fract_z
U1 U 0.32099(2) 0.28619(2) 0.385816(14)
O1 O 0.3227(5) 0.1625(6) 0.5438(3)
O2 O 0.3107(5) 0.3965(6) 0.2201(3)
O3 O -0.0761(4) 0.2450(5) 0.3768(3)
O4 O -0.4319(4) 0.1776(5) 0.2749(3)
O5 O 0.3165(4) 0.5211(5) 0.5263(3)
H1 H 0.1939 0.5445 0.5384
N1 N 0.0855(5) -0.0154(6) 0.2496(3)
C1 C 0.1555(7) -0.1490(8) 0.2801(4)
H2 H 0.2917 -0.1262 0.3396
C2 C 0.0362(7) -0.3174(8) 0.2277(4)
H3 H 0.0919 -0.4058 0.2496
C3 C -0.1693(7) -0.3528(9) 0.1413(4)
H4 H -0.2551 -0.4658 0.1056
C4 C -0.2443(7) -0.2177(8) 0.1095(4)
H5 H -0.3812 -0.2386 0.0515
C5 C -0.1116(6) -0.0479(8) 0.1655(4)
C6 C -0.1882(7) 0.1002(8) 0.1334(4)
H6 H -0.3235 0.0603 0.0627
H7 H -0.0737 0.1888 0.0885
C7 C -0.2358(7) 0.1793(7) 0.2722(4)
U1_2 U -0.67901(2) 0.28619(2) 0.385816(14)
U1A U 0.67901(2) 0.71381(2) 0.614184(14)
O4_2 O 0.5681(4) 0.1776(5) 0.2749(3)
O5A O 0.6835(4) 0.4789(5) 0.4737(3)
H1A H 0.8061 0.4555 0.4616
loop_
_geom_bond_atom_site_label_1
_geom_bond_atom_site_label_2
_geom_bond_site_symmetry_1
_geom_bond_site_symmetry_2
U1 O1 1_555 1_555
O2 U1 1_555 1_555
O3 U1 1_555 1_555
O4 C7 1_555 1_555
O5 U1 1_555 1_555
H1 O5 1_555 1_555
N1 U1 1_555 1_555
C1 N1 1_555 1_555
H2 C1 1_555 1_555
C2 C1 1_555 1_555
H3 C2 1_555 1_555
C3 C2 1_555 1_555
H4 C3 1_555 1_555
C4 C3 1_555 1_555
H5 C4 1_555 1_555
C5 N1 1_555 1_555
C6 C5 1_555 1_555
H6 C6 1_555 1_555
H7 C6 1_555 1_555
C7 O3 1_555 1_555
U1_2 O4 1_555 1_555
U1A O5 1_555 1_555
O4_2 U1 1_555 1_555
O5A U1 1_555 1_555
H1A O5A 1_555 1_555
C4 C5 1_555 1_555
C6 C7 1_555 1_555
U1A O5A 1_555 1_555

#END
