
#######################################################################
#
#                 Cambridge Crystallographic Data Centre
#                                CCDC 
#
#######################################################################
#
# If this CIF has been generated from an entry in the Cambridge 
# Structural Database, then it will include bibliographic, chemical, 
# crystal, experimental, refinement or atomic coordinate data resulting 
# from the CCDC's data processing and validation procedures.
#
#######################################################################

data_MISKUV
_symmetry_cell_setting           monoclinic
_symmetry_space_group_name_H-M   'P 21/n'
_symmetry_Int_Tables_number      14
_space_group_name_Hall           '-P 2yn'
loop_
_symmetry_equiv_pos_site_id
_symmetry_equiv_pos_as_xyz
1 x,y,z
2 1/2-x,1/2+y,1/2-z
3 -x,-y,-z
4 1/2+x,1/2-y,1/2+z
_cell_length_a                   14.677(2)
_cell_length_b                   9.2626(15)
_cell_length_c                   16.990(3)
_cell_angle_alpha                90
_cell_angle_beta                 109.717(2)
_cell_angle_gamma                90
_cell_volume                     2174.32
loop_
_atom_site_label
_atom_site_type_symbol
_atom_site_fract_x
_atom_site_fract_y
_atom_site_fract_z
Mn1 Mn 0.75874(4) 0.58288(7) 0.05458(4)
Mn2 Mn 0.51098(5) 0.91195(7) -0.30233(4)
Mn3 Mn 0.5000 0.5000 0.0000
Mn4 Mn 0.61176(5) 0.75403(6) 0.36739(4)
N1 N 0.8443(3) 0.7891(4) 0.0833(2)
N2 N 0.9352(3) 0.7896(4) 0.1424(2)
N3 N 0.8961(3) 1.0172(4) 0.1041(2)
N4 N 0.6778(3) 0.6400(4) 0.1398(2)
N5 N 0.5842(3) 0.6016(4) 0.1177(2)
N6 N 0.6240(3) 0.7009(4) 0.2427(2)
N7 N 0.6471(3) 0.6946(4) -0.0583(2)
N8 N 0.5525(3) 0.6570(4) -0.0762(2)
N9 N 0.5613(3) 0.7933(4) -0.1807(2)
N10 N 0.8408(3) 0.4749(4) -0.0165(2)
N11 N 0.8865(3) 0.3456(4) 0.0123(2)
N12 N 0.9242(3) 0.4126(4) -0.0989(2)
O1 O 0.8749(2) 0.4857(3) 0.16275(17)
O2 O 0.6402(2) 0.3942(3) 0.01183(19)
O3 O 0.7334(2) 0.2210(4) 0.0860(2)
O4 O 0.6104(3) 1.0715(4) -0.2362(2)
O5 O 0.5453(2) 1.2623(3) -0.3118(2)
C1 C 0.9622(3) 0.9269(5) 0.1526(3)
H1 H 1.0214 0.9572 0.1898
C2 C 0.8256(4) 0.9262(5) 0.0631(3)
H2 H 0.7680 0.9569 0.0234
C3 C 0.5556(3) 0.6412(5) 0.1802(3)
H3 H 0.4927 0.6279 0.1801
C4 C 0.6986(4) 0.6970(6) 0.2144(3)
H4 H 0.7599 0.7317 0.2449
C5 C 0.5050(4) 0.7173(5) -0.1486(3)
H5 H 0.4386 0.7079 -0.1749
C6 C 0.6483(3) 0.7756(5) -0.1216(3)
H6 H 0.7046 0.8170 -0.1251
C7 C 0.9344(3) 0.3150(5) -0.0378(3)
H7 H 0.9725 0.2328 -0.0318
C8 C 0.8650(3) 0.5084(5) -0.0813(3)
H8 H 0.8431 0.5915 -0.1127
C9 C 0.6590(3) 0.2616(4) 0.0307(3)
C10 C 0.5874(4) 0.1493(6) -0.0158(4)
H9 H 0.6024 0.1186 -0.0640
H10 H 0.5233 0.1894 -0.0333
H11 H 0.5906 0.0680 0.0201
C11 C 0.6119(3) 1.2015(5) -0.2552(3)
C12 C 0.6990(5) 1.2881(7) -0.2097(4)
H12 H 0.6994 1.3752 -0.2402
H13 H 0.6978 1.3119 -0.1551
H14 H 0.7562 1.2330 -0.2044
H15 H 0.852(5) 0.482(8) 0.202(3)
Mn1B Mn 0.24126(4) 0.41712(7) -0.05458(4)
Mn1C Mn 0.25874(4) 0.91712(7) -0.44542(4)
Mn1A Mn 0.74126(4) 1.08288(7) -0.55458(4)
Mn2B Mn 0.48902(5) 0.08805(7) 0.30233(4)
Mn2C Mn 1.01098(5) 0.58805(7) 0.19767(4)
Mn2A Mn 0.98902(5) 0.41195(7) -0.19767(4)
Mn2B_2 Mn 0.48902(5) 1.08805(7) 0.30233(4)
Mn4B Mn 0.38824(5) 0.24597(6) -0.36739(4)
Mn4A Mn 0.88824(5) 1.25403(6) 0.13261(4)
Mn4A_2 Mn 0.88824(5) 0.25403(6) 0.13261(4)
Mn4B_2 Mn 0.38824(5) 1.24597(6) -0.36739(4)
Mn4C Mn 0.11176(5) 0.74597(6) -0.13261(4)
Mn4_2 Mn 0.61176(5) 0.75403(6) -0.63261(4)
N1C N 0.3443(3) 0.7109(4) -0.4167(2)
N1B N 0.1557(3) 0.2109(4) -0.0833(2)
N2C N 0.4352(3) 0.7104(4) -0.3576(2)
N2A N 0.5648(3) 0.2896(4) 0.3576(2)
N3C N 0.3961(3) 0.4828(4) -0.3959(2)
N3A N 0.6039(3) 0.5172(4) 0.3959(2)
N4B N 0.3222(3) 0.3600(4) -0.1398(2)
N5B N 0.4158(3) 0.3984(4) -0.1177(2)
N6B N 0.3760(3) 0.2991(4) -0.2427(2)
N7B N 0.3529(3) 0.3054(4) 0.0583(2)
N8B N 0.4475(3) 0.3430(4) 0.0762(2)
N9B N 0.4387(3) 0.2067(4) 0.1807(2)
N10A N 0.6592(3) 0.9749(4) -0.4835(2)
N10B N 0.1592(3) 0.5251(4) 0.0165(2)
N11A N 0.6135(3) 0.8456(4) -0.5123(2)
N11A_2 N 0.6135(3) 0.8456(4) 0.4877(2)
N11C N 0.3865(3) 0.1544(4) -0.4877(2)
N12A N 0.5758(3) 0.9126(4) -0.4011(2)
N12C N 0.4242(3) 0.0874(4) 0.4011(2)
O1C O 0.3749(2) 1.0143(3) -0.33725(17)
O1A O 0.6251(2) 0.9857(3) 0.33725(17)
O1B O 0.1251(2) 0.5143(3) -0.16275(17)
O1A_2 O 0.6251(2) -0.0143(3) 0.33725(17)
O1C_2 O 0.3749(2) 0.0143(3) -0.33725(17)
O2B O 0.3598(2) 0.6058(3) -0.01183(19)
O3B O 0.2666(2) 0.7790(4) -0.0860(2)
O3A O 0.7666(2) 0.7210(4) 0.4140(2)
O3C O 0.2334(2) 0.2790(4) -0.4140(2)
O4B O 0.3896(3) 0.9285(4) 0.2362(2)
O4B_2 O 0.3896(3) -0.0715(4) 0.2362(2)
O5B O 0.4547(2) 0.7377(3) 0.3118(2)
O5_2 O 0.5453(2) 0.2623(3) -0.3118(2)
C1C C 0.4622(3) 0.5731(5) -0.3474(3)
H1C H 0.5214 0.5428 -0.3102
C2C C 0.3256(4) 0.5738(5) -0.4369(3)
H2C H 0.2680 0.5431 -0.4766
C3B C 0.4444(3) 0.3588(5) -0.1802(3)
H3B H 0.5073 0.3721 -0.1801
C4B C 0.3014(4) 0.3030(6) -0.2144(3)
H4B H 0.2401 0.2683 -0.2449
C5B C 0.4950(4) 0.2827(5) 0.1486(3)
H5B H 0.5614 0.2921 0.1749
C6B C 0.3517(3) 0.2244(5) 0.1216(3)
H6B H 0.2954 0.1830 0.1251
C7A C 0.5656(3) 0.8150(5) -0.4622(3)
H7A H 0.5275 0.7328 -0.4682
C8A C 0.6350(3) 1.0084(5) -0.4187(3)
H8A H 0.6569 1.0915 -0.3873
C9B C 0.3410(3) 0.7384(4) -0.0307(3)
C10B C 0.4126(4) 0.8507(6) 0.0158(4)
H9B H 0.3976 0.8814 0.0640
H10B H 0.4767 0.8106 0.0333
H11B H 0.4094 0.9320 -0.0201
C11B C 0.3881(3) 0.7985(5) 0.2552(3)
C12B C 0.3010(5) 0.7119(7) 0.2097(4)
H12B H 0.3006 0.6248 0.2402
H13B H 0.3022 0.6881 0.1551
H14B H 0.2438 0.7670 0.2044
H15C H 0.352(5) 1.018(8) -0.298(3)
H15A H 0.648(5) 0.982(8) 0.298(3)
H15B H 0.148(5) 0.518(8) -0.202(3)
H15A_2 H 0.648(5) -0.018(8) 0.298(3)
H15C_2 H 0.352(5) 0.018(8) -0.298(3)
loop_
_geom_bond_atom_site_label_1
_geom_bond_atom_site_label_2
_geom_bond_site_symmetry_1
_geom_bond_site_symmetry_2
Mn1 N1 1_555 1_555
Mn2 N9 1_555 1_555
Mn3 N5 1_555 1_555
Mn4 N6 1_555 1_555
N1 N2 1_555 1_555
N2 C1 1_555 1_555
N3 C1 1_555 1_555
N4 Mn1 1_555 1_555
N5 N4 1_555 1_555
N6 C3 1_555 1_555
N7 Mn1 1_555 1_555
N8 Mn3 1_555 1_555
N9 C5 1_555 1_555
N10 Mn1 1_555 1_555
N11 N10 1_555 1_555
N12 C7 1_555 1_555
O1 Mn1 1_555 1_555
O2 Mn1 1_555 1_555
O3 C9 1_555 1_555
O4 Mn2 1_555 1_555
O5 C11 1_555 1_555
C1 H1 1_555 1_555
C2 N1 1_555 1_555
H2 C2 1_555 1_555
C3 N5 1_555 1_555
H3 C3 1_555 1_555
C4 N4 1_555 1_555
H4 C4 1_555 1_555
C5 N8 1_555 1_555
H5 C5 1_555 1_555
C6 N7 1_555 1_555
H6 C6 1_555 1_555
C7 N11 1_555 1_555
H7 C7 1_555 1_555
C8 N10 1_555 1_555
H8 C8 1_555 1_555
C9 O2 1_555 1_555
C10 C9 1_555 1_555
H9 C10 1_555 1_555
H10 C10 1_555 1_555
H11 C10 1_555 1_555
C11 O4 1_555 1_555
C12 C11 1_555 1_555
H12 C12 1_555 1_555
H13 C12 1_555 1_555
H14 C12 1_555 1_555
H15 O1 1_555 1_555
Mn1B N1B 1_555 1_555
Mn1C N1C 1_555 1_555
Mn1A N10A 1_555 1_555
Mn2B N2A 1_555 1_555
Mn2C N2 1_555 1_555
Mn2A N12 1_555 1_555
Mn2B_2 O1A 1_555 1_555
Mn4B N3C 1_555 1_555
Mn4A N3 1_555 1_555
Mn4A_2 N11 1_555 1_555
Mn4B_2 O5 1_555 1_555
Mn4C O1B 1_555 1_555
Mn4_2 N11A 1_555 1_555
N1C N2C 1_555 1_555
N2C Mn2 1_555 1_555
N3C C1C 1_555 1_555
N3A Mn4 1_555 1_555
N4B Mn1B 1_555 1_555
N5B Mn3 1_555 1_555
N6B Mn4B 1_555 1_555
N7B Mn1B 1_555 1_555
N8B Mn3 1_555 1_555
N9B Mn2B 1_555 1_555
N10A N11A 1_555 1_555
N10B Mn1B 1_555 1_555
N11A C7A 1_555 1_555
N11A_2 Mn4 1_555 1_555
N11C Mn4B 1_555 1_555
N12A Mn2 1_555 1_555
N12C Mn2B 1_555 1_555
O1C Mn2 1_555 1_555
O1A Mn4 1_555 1_555
O1B Mn1B 1_555 1_555
O1A_2 Mn2B 1_555 1_555
O1C_2 Mn4B 1_555 1_555
O2B Mn3 1_555 1_555
O3B Mn4C 1_555 1_555
O3A Mn4 1_555 1_555
O3C Mn4B 1_555 1_555
O4B Mn2B_2 1_555 1_555
O4B_2 Mn2B 1_555 1_555
O5B Mn4 1_555 1_555
O5_2 Mn4B 1_555 1_555
C1C N2C 1_555 1_555
H1C C1C 1_555 1_555
C2C N1C 1_555 1_555
H2C C2C 1_555 1_555
C3B N5B 1_555 1_555
H3B C3B 1_555 1_555
C4B N4B 1_555 1_555
H4B C4B 1_555 1_555
C5B N8B 1_555 1_555
H5B C5B 1_555 1_555
C6B N7B 1_555 1_555
H6B C6B 1_555 1_555
C7A N12A 1_555 1_555
H7A C7A 1_555 1_555
C8A N10A 1_555 1_555
H8A C8A 1_555 1_555
C9B O2B 1_555 1_555
C10B C9B 1_555 1_555
H9B C10B 1_555 1_555
H10B C10B 1_555 1_555
H11B C10B 1_555 1_555
C11B O4B 1_555 1_555
C12B C11B 1_555 1_555
H12B C12B 1_555 1_555
H13B C12B 1_555 1_555
H14B C12B 1_555 1_555
H15C O1C 1_555 1_555
H15A O1A 1_555 1_555
H15B O1B 1_555 1_555
H15A_2 O1A_2 1_555 1_555
H15C_2 O1C_2 1_555 1_555
Mn3 O2 1_555 1_555
N3 C2 1_555 1_555
N6 C4 1_555 1_555
N7 N8 1_555 1_555
N9 C6 1_555 1_555
N12 C8 1_555 1_555
O1 Mn2C 1_555 1_555
O1 Mn4A_2 1_555 1_555
O3 Mn4A_2 1_555 1_555
Mn1B O2B 1_555 1_555
Mn1C O1C 1_555 1_555
Mn4B_2 O1C 1_555 1_555
N3C C2C 1_555 1_555
N4B N5B 1_555 1_555
N6B C3B 1_555 1_555
N6B C4B 1_555 1_555
N7B N8B 1_555 1_555
N9B C5B 1_555 1_555
N9B C6B 1_555 1_555
N12A C8A 1_555 1_555
O3B C9B 1_555 1_555
O5B C11B 1_555 1_555

#END
