
#######################################################################
#
#                 Cambridge Crystallographic Data Centre
#                                CCDC 
#
#######################################################################
#
# If this CIF has been generated from an entry in the Cambridge 
# Structural Database, then it will include bibliographic, chemical, 
# crystal, experimental, refinement or atomic coordinate data resulting 
# from the CCDC's data processing and validation procedures.
#
#######################################################################

data_MISLEG
_symmetry_cell_setting           monoclinic
_symmetry_space_group_name_H-M   'P 2/c'
_symmetry_Int_Tables_number      13
_space_group_name_Hall           '-P 2yc'
loop_
_symmetry_equiv_pos_site_id
_symmetry_equiv_pos_as_xyz
1 x,y,z
2 -x,y,1/2-z
3 -x,-y,-z
4 x,-y,1/2+z
_cell_length_a                   13.4079(8)
_cell_length_b                   6.5765(4)
_cell_length_c                   16.0390(9)
_cell_angle_alpha                90
_cell_angle_beta                 106.2830(10)
_cell_angle_gamma                90
_cell_volume                     1357.54
loop_
_atom_site_label
_atom_site_type_symbol
_atom_site_fract_x
_atom_site_fract_y
_atom_site_fract_z
Zn1 Zn 0.5000 -0.34394(6) 0.7500
Zn2 Zn 1.0000 0.78742(6) 0.7500
S1 S 0.43938(6) -0.52761(10) 0.62292(4)
S2 S 0.96122(6) 0.60438(12) 0.86184(5)
O1 O 0.09182(14) 0.0180(3) 0.32820(12)
O2 O 0.22106(16) 0.2440(3) 0.36875(13)
O3 O 0.62239(15) -0.1658(3) 0.76481(13)
O4 O 0.56008(15) 0.0335(3) 0.64862(13)
N1 N 0.38953(17) -0.1566(3) 0.55170(14)
H1 H 0.4491 -0.1199 0.5847
N2 N 0.79097(16) 0.4525(3) 0.74755(14)
H2 H 0.7918 0.5632 0.7193
C1 C 0.1796(2) 0.0782(4) 0.37571(16)
C2 C 0.23661(19) -0.0677(4) 0.44346(15)
C3 C 0.1986(2) -0.2630(4) 0.45163(18)
H3 H 0.1323 -0.2988 0.4184
C4 C 0.2577(2) -0.4014(4) 0.50771(17)
H4 H 0.2314 -0.5305 0.5123
C5 C 0.3580(2) -0.3503(4) 0.55854(16)
C6 C 0.3333(2) -0.0187(4) 0.49645(15)
H5 H 0.3600 0.1110 0.4940
C7 C 0.6236(2) -0.0083(4) 0.71967(17)
C8 C 0.7101(2) 0.1385(4) 0.75667(17)
C9 C 0.7883(2) 0.0983(4) 0.83314(17)
H6 H 0.7878 -0.0236 0.8624
C10 C 0.8657(2) 0.2366(4) 0.86529(19)
H7 H 0.9173 0.2080 0.9162
C11 C 0.8679(2) 0.4216(4) 0.82207(16)
C12 C 0.7140(2) 0.3202(4) 0.71574(17)
H8 H 0.6624 0.3518 0.6652
Zn2C Zn 0.0000 0.21258(6) 0.2500
Zn2C_2 Zn 1.0000 0.21258(6) 1.2500
Zn2_2 Zn 0.0000 0.78742(6) 0.7500
S1A S 0.56062(6) -0.52761(10) 0.87708(4)
S2A S 0.03878(6) 0.60438(12) 0.63816(5)
S2A_2 S 1.03878(6) 0.60438(12) 0.63816(5)
O1A O 0.90818(14) 0.0180(3) 1.17180(12)
O1C O 1.09182(14) 0.9820(3) 0.82820(12)
O1B O 0.90818(14) 0.9820(3) 0.67180(12)
O2A O 0.77894(16) 0.2440(3) 1.13125(13)
O3A O 0.37761(15) -0.1658(3) 0.73519(13)
O4A O 0.43992(15) 0.0335(3) 0.85138(13)
N1A N 0.61047(17) -0.1566(3) 0.94830(14)
H1A H 0.5509 -0.1199 0.9153
N2A N 0.20903(16) 0.4525(3) 0.75245(14)
H2A H 0.2082 0.5632 0.7807
C1A C 0.8204(2) 0.0782(4) 1.12429(16)
C2A C 0.76339(19) -0.0677(4) 1.05654(15)
C3A C 0.8014(2) -0.2630(4) 1.04837(18)
H3A H 0.8677 -0.2988 1.0816
C4A C 0.7423(2) -0.4014(4) 0.99229(17)
H4A H 0.7686 -0.5305 0.9877
C5A C 0.6420(2) -0.3503(4) 0.94146(16)
C6A C 0.6667(2) -0.0187(4) 1.00355(15)
H5A H 0.6400 0.1110 1.0060
C7A C 0.3764(2) -0.0083(4) 0.78033(17)
C8A C 0.2899(2) 0.1385(4) 0.74333(17)
C9A C 0.2117(2) 0.0983(4) 0.66686(17)
H6A H 0.2122 -0.0236 0.6376
C10A C 0.1343(2) 0.2366(4) 0.63471(19)
H7A H 0.0827 0.2080 0.5838
C11A C 0.1321(2) 0.4216(4) 0.67793(16)
C12A C 0.2860(2) 0.3202(4) 0.78426(17)
H8A H 0.3376 0.3518 0.8348
loop_
_geom_bond_atom_site_label_1
_geom_bond_atom_site_label_2
_geom_bond_site_symmetry_1
_geom_bond_site_symmetry_2
Zn1 S1 1_555 1_555
Zn2 S2 1_555 1_555
S1 C5 1_555 1_555
S2 C11 1_555 1_555
O1 C1 1_555 1_555
O2 C1 1_555 1_555
O3 Zn1 1_555 1_555
O4 C7 1_555 1_555
N1 H1 1_555 1_555
N2 H2 1_555 1_555
C1 C2 1_555 1_555
C2 C3 1_555 1_555
C3 H3 1_555 1_555
C4 C3 1_555 1_555
H4 C4 1_555 1_555
C5 N1 1_555 1_555
C6 N1 1_555 1_555
H5 C6 1_555 1_555
C7 O3 1_555 1_555
C8 C7 1_555 1_555
C9 C8 1_555 1_555
H6 C9 1_555 1_555
C10 C9 1_555 1_555
H7 C10 1_555 1_555
C11 N2 1_555 1_555
C12 N2 1_555 1_555
H8 C12 1_555 1_555
Zn2C O1 1_555 1_555
Zn2C_2 O1A 1_555 1_555
Zn2_2 S2A 1_555 1_555
S1A Zn1 1_555 1_555
S2A C11A 1_555 1_555
S2A_2 Zn2 1_555 1_555
O1A C1A 1_555 1_555
O1C Zn2 1_555 1_555
O1B Zn2 1_555 1_555
O2A C1A 1_555 1_555
O3A Zn1 1_555 1_555
O4A C7A 1_555 1_555
N1A H1A 1_555 1_555
N2A H2A 1_555 1_555
C1A C2A 1_555 1_555
C2A C3A 1_555 1_555
C3A H3A 1_555 1_555
C4A C3A 1_555 1_555
H4A C4A 1_555 1_555
C5A S1A 1_555 1_555
C6A N1A 1_555 1_555
H5A C6A 1_555 1_555
C7A O3A 1_555 1_555
C8A C7A 1_555 1_555
C9A C8A 1_555 1_555
H6A C9A 1_555 1_555
C10A C9A 1_555 1_555
H7A C10A 1_555 1_555
C11A N2A 1_555 1_555
C12A N2A 1_555 1_555
H8A C12A 1_555 1_555
C2 C6 1_555 1_555
C4 C5 1_555 1_555
C8 C12 1_555 1_555
C10 C11 1_555 1_555
N1A C5A 1_555 1_555
C2A C6A 1_555 1_555
C4A C5A 1_555 1_555
C8A C12A 1_555 1_555
C10A C11A 1_555 1_555

#END
