
#######################################################################
#
#                 Cambridge Crystallographic Data Centre
#                                CCDC 
#
#######################################################################
#
# If this CIF has been generated from an entry in the Cambridge 
# Structural Database, then it will include bibliographic, chemical, 
# crystal, experimental, refinement or atomic coordinate data resulting 
# from the CCDC's data processing and validation procedures.
#
#######################################################################

data_MISLAC
_symmetry_cell_setting           triclinic
_symmetry_space_group_name_H-M   'P -1'
_symmetry_Int_Tables_number      2
_space_group_name_Hall           '-P 1'
loop_
_symmetry_equiv_pos_site_id
_symmetry_equiv_pos_as_xyz
1 x,y,z
2 -x,-y,-z
_cell_length_a                   10.0095(18)
_cell_length_b                   13.293(2)
_cell_length_c                   14.052(3)
_cell_angle_alpha                93.573(3)
_cell_angle_beta                 99.225(3)
_cell_angle_gamma                110.134(2)
_cell_volume                     1718.76
loop_
_atom_site_label
_atom_site_type_symbol
_atom_site_fract_x
_atom_site_fract_y
_atom_site_fract_z
Zn1 Zn 0.62423(8) 0.19713(5) 0.36362(5)
Zn2 Zn 0.73994(8) 0.24244(5) 0.62603(5)
Zn3 Zn 0.5000 0.0000 0.0000
Zn4 Zn 1.0000 0.5000 1.0000
N1 N 0.7606(5) 0.3152(4) 0.2906(4)
N2 N 0.6389(5) 0.3399(4) 0.6913(4)
C1 C 0.8216(6) 0.4544(5) 0.4318(4)
C2 C 0.8481(6) 0.5632(5) 0.4319(5)
H1 H 0.9065 0.6014 0.3903
C3 C 0.7909(7) 0.6180(5) 0.4915(5)
C4 C 0.7048(6) 0.5593(5) 0.5511(5)
H2 H 0.6656 0.5954 0.5921
C5 C 0.6735(6) 0.4498(5) 0.5533(5)
C6 C 0.7353(6) 0.3969(4) 0.4945(4)
C7 C 0.8255(7) 0.7379(5) 0.4927(6)
H3 H 0.7757 0.7621 0.5378
H4 H 0.7938 0.7531 0.4280
H5 H 0.9293 0.7757 0.5129
C8 C 0.8809(6) 0.3942(5) 0.3642(5)
H6 H 0.9481 0.4459 0.3313
H7 H 0.9346 0.3560 0.4022
C9 C 0.6725(6) 0.3681(5) 0.2353(5)
H8 H 0.6573 0.3431 0.1659
H9 H 0.7263 0.4462 0.2451
C10 C 0.5239(7) 0.3464(5) 0.2638(5)
C11 C 0.8099(6) 0.2517(5) 0.2242(5)
H10 H 0.8877 0.2321 0.2602
H11 H 0.8480 0.2946 0.1737
C12 C 0.6824(7) 0.1499(5) 0.1775(5)
C13 C 0.5701(6) 0.3857(5) 0.6123(5)
H12 H 0.5255 0.4322 0.6409
H13 H 0.4926 0.3264 0.5690
C14 C 0.5279(6) 0.2644(4) 0.7353(5)
H14 H 0.4523 0.2941 0.7418
H15 H 0.5720 0.2567 0.8006
C15 C 0.4589(7) 0.1535(5) 0.6750(5)
C16 C 0.7506(6) 0.4252(4) 0.7643(5)
H16 H 0.7147 0.4264 0.8251
H17 H 0.7655 0.4955 0.7410
C17 C 0.8941(7) 0.4095(5) 0.7846(5)
C18 C 0.8567(7) 0.0811(5) 0.6591(5)
C19 C 0.9284(8) 0.0038(6) 0.6305(6)
H18 H 0.9254 -0.0460 0.6784
H19 H 1.0286 0.0442 0.6274
H20 H 0.8774 -0.0363 0.5674
O1 O 0.7090(4) 0.2895(3) 0.4952(3)
O2 O 0.4772(4) 0.2722(3) 0.3127(3)
O3 O 0.4547(5) 0.4039(3) 0.2296(4)
O4 O 0.5844(4) 0.1098(3) 0.2248(3)
O5 O 0.6818(4) 0.1117(3) 0.0934(3)
O6 O 0.5335(4) 0.1268(3) 0.6202(3)
O7 O 0.3362(5) 0.0945(3) 0.6848(3)
O8 O 0.9127(4) 0.3372(3) 0.7291(3)
O9 O 0.9909(4) 0.4693(3) 0.8511(3)
O10 O 0.7732(4) 0.1169(3) 0.3978(3)
H21 H 0.7497 0.0494 0.3826
H22 H 0.8100 0.1330 0.4581
O11 O 0.4597(4) 0.0807(3) 0.4124(3)
H23 H 0.4526 0.0844 0.4719
H24 H 0.4589 0.0183 0.3939
O12 O 0.8322(5) 0.1379(3) 0.5932(3)
O13 O 0.8246(5) 0.0865(3) 0.7394(3)
O14 O 0.3864(4) 0.1102(3) 0.0164(3)
H25 H 0.3411 0.1021 0.0633
H26 H 0.3261 0.0996 -0.0366
O15 O 0.4248(4) -0.0777(3) 0.1138(3)
H27 H 0.4577 -0.0444 0.1711
H28 H 0.3372 -0.1190 0.1099
O16 O 1.1492(4) 0.4212(3) 1.0153(3)
H29 H 1.1534 0.3858 1.0634
H30 H 1.1300 0.3788 0.9630
O17 O 1.1671(5) 0.6451(3) 1.0067(4)
H31 H 1.1640 0.7080 1.0161
H32 H 1.2534 0.6502 1.0039
Zn1A Zn 0.37577(8) -0.19713(5) -0.36362(5)
Zn2A Zn 0.26006(8) -0.24244(5) -0.62603(5)
Zn4_2 Zn 0.0000 -0.5000 -1.0000
N1A N 0.2394(5) -0.3152(4) -0.2906(4)
N2A N 0.3611(5) -0.3399(4) -0.6913(4)
C1A C 0.1784(6) -0.4544(5) -0.4318(4)
C2A C 0.1519(6) -0.5632(5) -0.4319(5)
H1A H 0.0935 -0.6014 -0.3903
C3A C 0.2091(7) -0.6180(5) -0.4915(5)
C4A C 0.2952(6) -0.5593(5) -0.5511(5)
H2A H 0.3344 -0.5954 -0.5921
C5A C 0.3265(6) -0.4498(5) -0.5533(5)
C6A C 0.2647(6) -0.3969(4) -0.4945(4)
C7A C 0.1745(7) -0.7379(5) -0.4927(6)
H3A H 0.2243 -0.7621 -0.5378
H4A H 0.2062 -0.7531 -0.4280
H5A H 0.0707 -0.7757 -0.5129
C8A C 0.1191(6) -0.3942(5) -0.3642(5)
H6A H 0.0519 -0.4459 -0.3313
H7A H 0.0654 -0.3560 -0.4022
C9A C 0.3275(6) -0.3681(5) -0.2353(5)
H8A H 0.3427 -0.3431 -0.1659
H9A H 0.2737 -0.4462 -0.2451
C10A C 0.4761(7) -0.3464(5) -0.2638(5)
C11A C 0.1901(6) -0.2517(5) -0.2242(5)
H10A H 0.1123 -0.2321 -0.2602
H11A H 0.1520 -0.2946 -0.1737
C12A C 0.3176(7) -0.1499(5) -0.1775(5)
C13A C 0.4299(6) -0.3857(5) -0.6123(5)
H12A H 0.4745 -0.4322 -0.6409
H13A H 0.5074 -0.3264 -0.5690
C14A C 0.4721(6) -0.2644(4) -0.7353(5)
H14A H 0.5477 -0.2941 -0.7418
H15A H 0.4280 -0.2567 -0.8006
C15A C 0.5411(7) -0.1535(5) -0.6750(5)
C16A C 0.2494(6) -0.4252(4) -0.7643(5)
H16A H 0.2853 -0.4264 -0.8251
H17A H 0.2345 -0.4955 -0.7410
C17A C 0.1059(7) -0.4095(5) -0.7846(5)
C18A C 0.1433(7) -0.0811(5) -0.6591(5)
C19A C 0.0716(8) -0.0038(6) -0.6305(6)
H18A H 0.0746 0.0460 -0.6784
H19A H -0.0286 -0.0442 -0.6274
H20A H 0.1226 0.0363 -0.5674
O1A O 0.2910(4) -0.2895(3) -0.4952(3)
O2A O 0.5228(4) -0.2722(3) -0.3127(3)
O3A O 0.5453(5) -0.4039(3) -0.2296(4)
O4A O 0.4156(4) -0.1098(3) -0.2248(3)
O5A O 0.3182(4) -0.1117(3) -0.0934(3)
O6A O 0.4665(4) -0.1268(3) -0.6202(3)
O7A O 0.6638(5) -0.0945(3) -0.6848(3)
O8A O 0.0873(4) -0.3372(3) -0.7291(3)
O9A O 0.0091(4) -0.4693(3) -0.8511(3)
O9A_2 O 1.0091(4) 0.5307(3) 1.1489(3)
O10A O 0.2268(4) -0.1169(3) -0.3978(3)
H21A H 0.2503 -0.0494 -0.3826
H22A H 0.1900 -0.1330 -0.4581
O11A O 0.5403(4) -0.0807(3) -0.4124(3)
H23A H 0.5474 -0.0844 -0.4719
H24A H 0.5411 -0.0183 -0.3939
O12A O 0.1678(5) -0.1379(3) -0.5932(3)
O13A O 0.1754(5) -0.0865(3) -0.7394(3)
O14A O 0.6136(4) -0.1102(3) -0.0164(3)
H25A H 0.6589 -0.1021 -0.0633
H26A H 0.6739 -0.0996 0.0366
O15A O 0.5752(4) 0.0777(3) -0.1138(3)
H27A H 0.5423 0.0444 -0.1711
H28A H 0.6628 0.1190 -0.1099
O16A O 0.8508(4) 0.5788(3) 0.9847(3)
H29A H 0.8466 0.6142 0.9366
H30A H 0.8700 0.6212 1.0370
O17A O 0.8329(5) 0.3549(3) 0.9933(4)
H31A H 0.8360 0.2920 0.9839
H32A H 0.7466 0.3498 0.9961
O18 O 0.9875(5) 0.0957(4) 0.0994(4)
H33 H 0.9292 0.0479 0.1256
H34 H 1.0464 0.0702 0.0793
O19 O 0.5820(5) 0.5477(3) 0.1154(4)
H35 H 0.5506 0.5104 0.1595
H36 H 0.5981 0.5079 0.0723
O20 O 0.2607(4) 0.0981(3) 0.1778(3)
H37 H 0.2335 0.0439 0.2086
H38 H 0.3229 0.1513 0.2164
O21 O 0.4477(5) 0.6693(4) 0.0101(3)
H39 H 0.4876 0.7305 -0.0082
H40 H 0.5072 0.6589 0.0552
O22 O 0.1555(5) 0.3179(3) 0.1718(4)
H41 H 0.2456 0.3288 0.1849
H42 H 0.1271 0.3278 0.2243
O23 O 0.8712(5) 0.1678(3) 0.9368(4)
H43 H 0.9155 0.1453 0.9825
H44 H 0.8983 0.1562 0.8842
O24 O 0.2052(5) 0.1005(3) 0.8460(3)
H45 H 0.1787 0.1547 0.8431
H46 H 0.2504 0.0975 0.8002
O25 O 0.1444(5) 0.2896(4) 0.8356(4)
H47 H 0.0700 0.2986 0.8047
H48 H 0.2187 0.3456 0.8362
loop_
_geom_bond_atom_site_label_1
_geom_bond_atom_site_label_2
_geom_bond_site_symmetry_1
_geom_bond_site_symmetry_2
Zn1 N1 1_555 1_555
Zn2 N2 1_555 1_555
Zn3 O5 1_555 1_555
Zn4 O9 1_555 1_555
N1 C8 1_555 1_555
N2 C13 1_555 1_555
C1 C2 1_555 1_555
C2 H1 1_555 1_555
C3 C2 1_555 1_555
C4 C3 1_555 1_555
H2 C4 1_555 1_555
C5 C4 1_555 1_555
C6 C1 1_555 1_555
C7 C3 1_555 1_555
H3 C7 1_555 1_555
H4 C7 1_555 1_555
H5 C7 1_555 1_555
C8 C1 1_555 1_555
H6 C8 1_555 1_555
H7 C8 1_555 1_555
C9 N1 1_555 1_555
H8 C9 1_555 1_555
H9 C9 1_555 1_555
C10 C9 1_555 1_555
C11 N1 1_555 1_555
H10 C11 1_555 1_555
H11 C11 1_555 1_555
C12 C11 1_555 1_555
C13 C5 1_555 1_555
H12 C13 1_555 1_555
H13 C13 1_555 1_555
C14 N2 1_555 1_555
H14 C14 1_555 1_555
H15 C14 1_555 1_555
C15 C14 1_555 1_555
C16 N2 1_555 1_555
H16 C16 1_555 1_555
H17 C16 1_555 1_555
C17 C16 1_555 1_555
C18 C19 1_555 1_555
C19 H18 1_555 1_555
H19 C19 1_555 1_555
H20 C19 1_555 1_555
O1 Zn1 1_555 1_555
O2 Zn1 1_555 1_555
O3 C10 1_555 1_555
O4 Zn1 1_555 1_555
O5 C12 1_555 1_555
O6 Zn2 1_555 1_555
O7 C15 1_555 1_555
O8 Zn2 1_555 1_555
O9 C17 1_555 1_555
O10 Zn1 1_555 1_555
H21 O10 1_555 1_555
H22 O10 1_555 1_555
O11 Zn1 1_555 1_555
H23 O11 1_555 1_555
H24 O11 1_555 1_555
O12 Zn2 1_555 1_555
O13 C18 1_555 1_555
O14 Zn3 1_555 1_555
H25 O14 1_555 1_555
H26 O14 1_555 1_555
O15 Zn3 1_555 1_555
H27 O15 1_555 1_555
H28 O15 1_555 1_555
O16 Zn4 1_555 1_555
H29 O16 1_555 1_555
H30 O16 1_555 1_555
O17 Zn4 1_555 1_555
H31 O17 1_555 1_555
H32 O17 1_555 1_555
O18 H33 1_555 1_555
H34 O18 1_555 1_555
O19 H35 1_555 1_555
H36 O19 1_555 1_555
O20 H37 1_555 1_555
H38 O20 1_555 1_555
O21 H39 1_555 1_555
H40 O21 1_555 1_555
O22 H41 1_555 1_555
H42 O22 1_555 1_555
O23 H43 1_555 1_555
H44 O23 1_555 1_555
O24 H45 1_555 1_555
H46 O24 1_555 1_555
O25 H47 1_555 1_555
H48 O25 1_555 1_555
Zn1A N1A 1_555 1_555
Zn2A N2A 1_555 1_555
Zn4_2 O9A 1_555 1_555
N1A C8A 1_555 1_555
N2A C13A 1_555 1_555
C1A C2A 1_555 1_555
C2A H1A 1_555 1_555
C3A C2A 1_555 1_555
C4A C3A 1_555 1_555
H2A C4A 1_555 1_555
C5A C4A 1_555 1_555
C6A C1A 1_555 1_555
C7A C3A 1_555 1_555
H3A C7A 1_555 1_555
H4A C7A 1_555 1_555
H5A C7A 1_555 1_555
C8A C1A 1_555 1_555
H6A C8A 1_555 1_555
H7A C8A 1_555 1_555
C9A N1A 1_555 1_555
H8A C9A 1_555 1_555
H9A C9A 1_555 1_555
C10A C9A 1_555 1_555
C11A N1A 1_555 1_555
H10A C11A 1_555 1_555
H11A C11A 1_555 1_555
C12A C11A 1_555 1_555
C13A C5A 1_555 1_555
H12A C13A 1_555 1_555
H13A C13A 1_555 1_555
C14A N2A 1_555 1_555
H14A C14A 1_555 1_555
H15A C14A 1_555 1_555
C15A C14A 1_555 1_555
C16A N2A 1_555 1_555
H16A C16A 1_555 1_555
H17A C16A 1_555 1_555
C17A C16A 1_555 1_555
C18A C19A 1_555 1_555
C19A H18A 1_555 1_555
H19A C19A 1_555 1_555
H20A C19A 1_555 1_555
O1A Zn1A 1_555 1_555
O2A Zn1A 1_555 1_555
O3A C10A 1_555 1_555
O4A Zn1A 1_555 1_555
O5A Zn3 1_555 1_555
O6A Zn2A 1_555 1_555
O7A C15A 1_555 1_555
O8A Zn2A 1_555 1_555
O9A C17A 1_555 1_555
O9A_2 Zn4 1_555 1_555
O10A Zn1A 1_555 1_555
H21A O10A 1_555 1_555
H22A O10A 1_555 1_555
O11A Zn1A 1_555 1_555
H23A O11A 1_555 1_555
H24A O11A 1_555 1_555
O12A Zn2A 1_555 1_555
O13A C18A 1_555 1_555
O14A Zn3 1_555 1_555
H25A O14A 1_555 1_555
H26A O14A 1_555 1_555
O15A Zn3 1_555 1_555
H27A O15A 1_555 1_555
H28A O15A 1_555 1_555
O16A Zn4 1_555 1_555
H29A O16A 1_555 1_555
H30A O16A 1_555 1_555
O17A Zn4 1_555 1_555
H31A O17A 1_555 1_555
H32A O17A 1_555 1_555
Zn2 O1 1_555 1_555
C5 C6 1_555 1_555
C6 O1 1_555 1_555
C10 O2 1_555 1_555
C12 O4 1_555 1_555
C15 O6 1_555 1_555
C17 O8 1_555 1_555
C18 O12 1_555 1_555
Zn2A O1A 1_555 1_555
C5A C6A 1_555 1_555
C6A O1A 1_555 1_555
C10A O2A 1_555 1_555
C12A O4A 1_555 1_555
C12A O5A 1_555 1_555
C15A O6A 1_555 1_555
C17A O8A 1_555 1_555
C18A O12A 1_555 1_555

#END
