
#######################################################################
#
#                 Cambridge Crystallographic Data Centre
#                                CCDC 
#
#######################################################################
#
# If this CIF has been generated from an entry in the Cambridge 
# Structural Database, then it will include bibliographic, chemical, 
# crystal, experimental, refinement or atomic coordinate data resulting 
# from the CCDC's data processing and validation procedures.
#
#######################################################################

data_MISNEJ
_symmetry_cell_setting           monoclinic
_symmetry_space_group_name_H-M   'P 21/n'
_symmetry_Int_Tables_number      14
_space_group_name_Hall           '-P 2yn'
loop_
_symmetry_equiv_pos_site_id
_symmetry_equiv_pos_as_xyz
1 x,y,z
2 1/2-x,1/2+y,1/2-z
3 -x,-y,-z
4 1/2+x,1/2-y,1/2+z
_cell_length_a                   14.1364(6)
_cell_length_b                   7.3307(3)
_cell_length_c                   17.5364(7)
_cell_angle_alpha                90
_cell_angle_beta                 104.812(2)
_cell_angle_gamma                90
_cell_volume                     1756.9
loop_
_atom_site_label
_atom_site_type_symbol
_atom_site_fract_x
_atom_site_fract_y
_atom_site_fract_z
Pb1 Pb 0.14505(3) 0.55638(5) 0.08222(2)
Pb2 Pb 0.41114(3) 0.33279(5) 0.05387(2)
N1 N 0.2729(6) 0.7469(12) 0.0665(5)
N2 N 0.3649(6) 0.9900(13) 0.0625(5)
O1 O 0.5744(6) 0.1962(11) 0.1368(5)
O2 O 0.2267(6) 0.3498(14) 0.0074(5)
N3 N 0.5183(7) 0.8355(14) 0.0788(6)
N4 N 0.3394(6) 0.2639(13) 0.2944(5)
N5 N 0.3675(7) 0.6867(12) 0.0741(5)
N6 N 0.3548(7) 0.3174(12) 0.1738(6)
N7 N 0.2711(6) 0.4036(14) 0.1819(5)
O3 O 0.6023(6) 0.4829(12) 0.1124(7)
O4 O 0.0943(6) 0.4195(14) -0.0839(5)
C1 C 0.4191(8) 0.8369(14) 0.0732(6)
C2 C 0.2757(8) 0.9263(14) 0.0596(6)
H1 H 0.2197 1.0022 0.0532
C3 C 0.2654(8) 0.3657(16) 0.2540(7)
H2 H 0.2136 0.4070 0.2751
C4 C 0.3926(8) 0.2371(15) 0.2423(6)
C5 C 0.6309(8) 0.3281(16) 0.1354(7)
C6 C 0.7395(9) 0.292(2) 0.1612(9)
H3 H 0.7534 0.2050 0.2050
H4 H 0.7742 0.4068 0.1784
H5 H 0.7616 0.2418 0.1169
C7 C 0.1720(8) 0.3325(18) -0.0621(7)
C8 C 0.2073(11) 0.211(2) -0.1180(8)
H6 H 0.1752 0.2459 -0.1724
H7 H 0.1915 0.0840 -0.1092
H8 H 0.2783 0.2243 -0.1090
N8 N 0.4730(7) 0.1304(16) 0.2572(6)
H9 H 0.5035 0.1108 0.2201
H10 H 0.4949 0.0804 0.3040
H11 H 0.529(9) 0.946(18) 0.092(7)
H12 H 0.542(8) 0.699(16) 0.105(7)
Pb1A Pb 0.35495(3) 0.05638(5) 0.41778(2)
Pb2_2 Pb 0.41114(3) 1.33279(5) 0.05387(2)
N2_2 N 0.3649(6) -0.0100(13) 0.0625(5)
N4A N 0.1606(6) 0.7639(13) 0.2056(5)
loop_
_geom_bond_atom_site_label_1
_geom_bond_atom_site_label_2
_geom_bond_site_symmetry_1
_geom_bond_site_symmetry_2
Pb1 N1 1_555 1_555
Pb2 O1 1_555 1_555
N1 N5 1_555 1_555
N2 C1 1_555 1_555
O1 C5 1_555 1_555
O2 Pb1 1_555 1_555
N3 C1 1_555 1_555
N4 C3 1_555 1_555
N5 Pb2 1_555 1_555
N6 Pb2 1_555 1_555
N7 Pb1 1_555 1_555
O3 Pb2 1_555 1_555
O4 C7 1_555 1_555
C1 N5 1_555 1_555
C2 N1 1_555 1_555
H1 C2 1_555 1_555
C3 N7 1_555 1_555
H2 C3 1_555 1_555
C4 N4 1_555 1_555
C5 O3 1_555 1_555
C6 C5 1_555 1_555
H3 C6 1_555 1_555
H4 C6 1_555 1_555
H5 C6 1_555 1_555
C7 O2 1_555 1_555
C8 C7 1_555 1_555
H6 C8 1_555 1_555
H7 C8 1_555 1_555
H8 C8 1_555 1_555
N8 C4 1_555 1_555
H9 N8 1_555 1_555
H10 N8 1_555 1_555
H11 N3 1_555 1_555
H12 N3 1_555 1_555
Pb1A N4 1_555 1_555
Pb2_2 N2 1_555 1_555
N2_2 Pb2 1_555 1_555
N4A Pb1 1_555 1_555
Pb2 O2 1_555 1_555
N2 C2 1_555 1_555
N6 N7 1_555 1_555
N6 C4 1_555 1_555

#END
