
#######################################################################
#
#                 Cambridge Crystallographic Data Centre
#                                CCDC 
#
#######################################################################
#
# If this CIF has been generated from an entry in the Cambridge 
# Structural Database, then it will include bibliographic, chemical, 
# crystal, experimental, refinement or atomic coordinate data resulting 
# from the CCDC's data processing and validation procedures.
#
#######################################################################

data_MISNUZ
_symmetry_cell_setting           orthorhombic
_symmetry_space_group_name_H-M   'P c a 21'
_symmetry_Int_Tables_number      29
_space_group_name_Hall           'P 2c -2ac'
loop_
_symmetry_equiv_pos_site_id
_symmetry_equiv_pos_as_xyz
1 x,y,z
2 -x,-y,1/2+z
3 1/2+x,-y,z
4 1/2-x,y,1/2+z
_cell_length_a                   6.745(3)
_cell_length_b                   11.040(3)
_cell_length_c                   23.452(4)
_cell_angle_alpha                90
_cell_angle_beta                 90
_cell_angle_gamma                90
_cell_volume                     1746.35
loop_
_atom_site_label
_atom_site_type_symbol
_atom_site_fract_x
_atom_site_fract_y
_atom_site_fract_z
Mn1 Mn 0.05495(5) 0.19709(3) 1.048027(15)
Mn2 Mn -0.36822(5) 0.33515(3) 0.764881(14)
N1 N 0.1596(3) 0.12677(18) 0.95873(8)
C1 C 0.1322(3) 0.19705(19) 0.91251(9)
C2 C 0.1061(3) 0.1440(2) 0.85853(9)
C3 C 0.0166(3) 0.20725(18) 0.80741(9)
C4 C 0.1318(3) 0.0195(2) 0.85331(10)
H1 H 0.1254 -0.0172 0.8167
C5 C 0.1665(3) -0.0511(2) 0.90071(9)
H2 H 0.1861 -0.1361 0.8975
C6 C 0.1717(3) 0.0063(2) 0.95307(10)
C7 C 0.1846(3) -0.06184(19) 1.00871(9)
O1 O 0.1171(2) -0.00802(13) 1.05252(7)
O2 O 0.2588(3) -0.16527(13) 1.00796(7)
O3 O 0.0919(3) 0.18996(14) 0.75891(7)
O4 O -0.1388(2) 0.26659(15) 0.81775(6)
N2 N 0.0822(3) 0.34926(17) 0.98255(8)
C8 C 0.1301(3) 0.3294(2) 0.92728(10)
C9 C 0.1793(3) 0.42682(19) 0.89106(9)
C10 C 0.2689(3) 0.41288(18) 0.83273(9)
C11 C 0.1680(3) 0.5439(2) 0.91353(9)
H3 H 0.1976 0.6113 0.8898
C12 C 0.1143(3) 0.5632(2) 0.96966(9)
H4 H 0.1036 0.6428 0.9847
C13 C 0.0767(3) 0.4625(2) 1.00315(9)
C14 C 0.0355(3) 0.47114(19) 1.06663(9)
O5 O 0.0225(3) 0.57294(15) 1.08903(7)
O6 O 0.0227(2) 0.37099(15) 1.09296(7)
O7 O 0.3992(3) 0.33162(13) 0.82788(7)
O8 O 0.2164(3) 0.48409(13) 0.79405(7)
O9 O -0.1179(2) 0.13546(16) 1.12753(7)
H5 H -0.1880 0.1858 1.1453
H6 H -0.1924 0.0856 1.1110
O10 O 0.3512(2) 0.20365(15) 1.08501(7)
H7 H 0.4402 0.1532 1.0770
H8 H 0.4087 0.2707 1.0884
O11 O -0.5063(3) 0.15646(15) 0.74313(7)
H9 H -0.4859 0.1313 0.7098
H10 H -0.6304 0.1585 0.7462
O12 O -0.5450(3) 0.42571(16) 0.70284(8)
H11 H -0.6628 0.4379 0.7131
H12 H -0.5606 0.4066 0.6685
O13 O -0.1608(2) 0.30262(15) 0.68941(7)
H13 H -0.1207 0.3531 0.6652
H14 H -0.0658 0.2726 0.7077
Mn1B Mn 0.55495(5) -0.19709(3) 1.048027(15)
Mn2_2 Mn 0.63178(5) 0.33515(3) 0.764881(14)
Mn2B Mn 0.13178(5) 0.66485(3) 0.764881(14)
O2B O -0.2412(3) 0.16527(13) 1.00796(7)
O7_2 O -0.6008(3) 0.33162(13) 0.82788(7)
O8B O -0.2836(3) 0.51591(13) 0.79405(7)
loop_
_geom_bond_atom_site_label_1
_geom_bond_atom_site_label_2
_geom_bond_site_symmetry_1
_geom_bond_site_symmetry_2
Mn1 N1 1_555 1_555
Mn2 O4 1_555 1_555
N1 C1 1_555 1_555
C1 C2 1_555 1_555
C2 C3 1_555 1_555
C3 O3 1_555 1_555
C4 C2 1_555 1_555
H1 C4 1_555 1_555
C5 C4 1_555 1_555
H2 C5 1_555 1_555
C6 N1 1_555 1_555
C7 C6 1_555 1_555
O1 Mn1 1_555 1_555
O2 C7 1_555 1_555
O4 C3 1_555 1_555
N2 Mn1 1_555 1_555
C8 C1 1_555 1_555
C9 C8 1_555 1_555
C10 C9 1_555 1_555
C11 C9 1_555 1_555
H3 C11 1_555 1_555
C12 C11 1_555 1_555
H4 C12 1_555 1_555
C13 N2 1_555 1_555
C14 C13 1_555 1_555
O5 C14 1_555 1_555
O6 Mn1 1_555 1_555
O7 C10 1_555 1_555
O8 C10 1_555 1_555
O9 Mn1 1_555 1_555
H5 O9 1_555 1_555
H6 O9 1_555 1_555
O10 Mn1 1_555 1_555
H7 O10 1_555 1_555
H8 O10 1_555 1_555
O11 Mn2 1_555 1_555
H9 O11 1_555 1_555
H10 O11 1_555 1_555
O12 Mn2 1_555 1_555
H11 O12 1_555 1_555
H12 O12 1_555 1_555
O13 Mn2 1_555 1_555
H13 O13 1_555 1_555
H14 O13 1_555 1_555
Mn1B O2 1_555 1_555
Mn2_2 O7 1_555 1_555
Mn2B O8 1_555 1_555
O2B Mn1 1_555 1_555
O7_2 Mn2 1_555 1_555
O8B Mn2 1_555 1_555
C5 C6 1_555 1_555
C7 O1 1_555 1_555
N2 C8 1_555 1_555
C12 C13 1_555 1_555
C14 O6 1_555 1_555

#END
