
#######################################################################
#
#                 Cambridge Crystallographic Data Centre
#                                CCDC 
#
#######################################################################
#
# If this CIF has been generated from an entry in the Cambridge 
# Structural Database, then it will include bibliographic, chemical, 
# crystal, experimental, refinement or atomic coordinate data resulting 
# from the CCDC's data processing and validation procedures.
#
#######################################################################

data_MISPUB
_symmetry_cell_setting           triclinic
_symmetry_space_group_name_H-M   'P -1'
_symmetry_Int_Tables_number      2
_space_group_name_Hall           '-P 1'
loop_
_symmetry_equiv_pos_site_id
_symmetry_equiv_pos_as_xyz
1 x,y,z
2 -x,-y,-z
_cell_length_a                   9.242(5)
_cell_length_b                   12.795(6)
_cell_length_c                   13.630(7)
_cell_angle_alpha                81.581(6)
_cell_angle_beta                 75.409(6)
_cell_angle_gamma                86.404(6)
_cell_volume                     1542.41
loop_
_atom_site_label
_atom_site_type_symbol
_atom_site_fract_x
_atom_site_fract_y
_atom_site_fract_z
Ni1 Ni 0.6806(3) 0.1935(2) 0.6389(2)
Ni2 Ni 0.7778(3) 0.1641(2) 0.8626(2)
O1 O 0.7319(12) 0.0861(9) 0.7518(9)
N1 N 0.6998(15) 0.0383(14) 0.9654(11)
N2 N 0.7829(17) 0.0958(13) 0.5387(12)
N3 N 0.6456(19) 0.2918(14) 0.4975(12)
N4 N 0.8098(19) 0.2202(13) 0.9985(13)
N5 N 0.4731(17) 0.1179(14) 0.6628(14)
N6 N 0.223(2) 0.054(2) 0.6934(17)
N7 N -0.0010(17) 0.0912(14) 0.8231(14)
C1 C 0.7424(18) -0.0146(14) 0.7522(13)
C2 C 0.7733(18) -0.0648(15) 0.6587(14)
C3 C 0.784(2) -0.1738(15) 0.6633(14)
H1 H 0.8054 -0.2020 0.6019
C4 C 0.766(2) -0.2429(15) 0.7522(15)
C5 C 0.774(3) -0.3636(17) 0.7590(18)
C6 C 0.732(2) -0.1977(16) 0.8419(14)
H2 H 0.7161 -0.2428 0.9034
C7 C 0.7187(18) -0.0886(14) 0.8463(13)
C8 C 0.6900(19) -0.0540(15) 0.9466(14)
H3 H 0.6613 -0.1056 1.0028
C9 C 0.680(2) 0.0547(17) 1.0706(14)
H4 H 0.5883 0.0228 1.1116
H5 H 0.7624 0.0196 1.0962
C10 C 0.676(4) 0.163(3) 1.082(2)
H6 H 0.6839 0.1702 1.1499
H7 H 0.5810 0.1946 1.0730
C11 C 0.923(5) 0.190(3) 1.044(5)
H8 H 0.9353 0.1146 1.0513
H9 H 0.8996 0.2127 1.1109
H10 H 1.0139 0.2218 1.0035
C12 C 0.765(4) 0.323(2) 1.006(3)
H11 H 0.6800 0.3389 0.9780
H12 H 0.8455 0.3681 0.9691
H13 H 0.7393 0.3332 1.0769
C13 C 0.800(2) -0.0023(16) 0.5577(14)
H14 H 0.8339 -0.0389 0.5018
C14 C 0.811(3) 0.151(2) 0.4309(16)
H15 H 0.9030 0.1900 0.4137
H16 H 0.8206 0.1002 0.3834
C15 C 0.684(3) 0.224(2) 0.4245(19)
H17 H 0.7062 0.2661 0.3575
H18 H 0.5974 0.1825 0.4292
C16 C 0.729(3) 0.387(2) 0.473(2)
H19 H 0.6650 0.4451 0.4957
H20 H 0.7682 0.4011 0.3998
H21 H 0.8105 0.3789 0.5055
C17 C 0.486(3) 0.327(3) 0.510(3)
H22 H 0.4399 0.3283 0.5814
H23 H 0.4349 0.2789 0.4837
H24 H 0.4809 0.3966 0.4734
O2 O 0.8850(14) 0.2634(12) 0.6143(10)
O3 O 0.8776(15) 0.2952(11) 0.7724(10)
O4 O 0.5677(14) 0.3021(10) 0.7248(10)
O5 O 0.5655(13) 0.2372(10) 0.8858(10)
C18 C 0.9330(18) 0.3005(13) 0.6783(15)
C19 C 1.080(2) 0.361(2) 0.6394(18)
H25 H 1.0604 0.4342 0.6456
H26 H 1.1227 0.3525 0.5689
H27 H 1.1490 0.3325 0.6795
C20 C 0.518(2) 0.2941(15) 0.8184(15)
C21 C 0.372(3) 0.357(2) 0.8569(19)
H28 H 0.3800 0.4277 0.8212
H29 H 0.3563 0.3592 0.9289
H30 H 0.2899 0.3235 0.8445
C22 C 0.903(3) -0.408(2) 0.807(2)
H31 H 0.9953 -0.3799 0.7652
H32 H 0.9073 -0.4840 0.8106
H33 H 0.8856 -0.3891 0.8743
C23 C 0.628(3) -0.4121(18) 0.820(3)
H34 H 0.5516 -0.3920 0.7832
H35 H 0.5987 -0.3875 0.8852
H36 H 0.6397 -0.4877 0.8289
C24 C 0.811(3) -0.399(2) 0.650(2)
H37 H 0.8922 -0.3592 0.6059
H38 H 0.7242 -0.3869 0.6223
H39 H 0.8377 -0.4730 0.6548
C25 C 0.354(2) 0.0916(17) 0.6822(15)
C26 C 0.108(2) 0.0758(16) 0.7621(15)
Ni2_2 Ni -0.2222(3) 0.1641(2) 0.8626(2)
N7_2 N 0.9990(17) 0.0912(14) 0.8231(14)
loop_
_geom_bond_atom_site_label_1
_geom_bond_atom_site_label_2
_geom_bond_site_symmetry_1
_geom_bond_site_symmetry_2
Ni1 O1 1_555 1_555
Ni2 O1 1_555 1_555
O1 C1 1_555 1_555
N1 Ni2 1_555 1_555
N2 Ni1 1_555 1_555
N3 Ni1 1_555 1_555
N4 Ni2 1_555 1_555
N5 Ni1 1_555 1_555
N6 C25 1_555 1_555
N7 C26 1_555 1_555
C1 C2 1_555 1_555
C2 C3 1_555 1_555
C3 H1 1_555 1_555
C4 C3 1_555 1_555
C5 C4 1_555 1_555
C6 C4 1_555 1_555
H2 C6 1_555 1_555
C7 C1 1_555 1_555
C8 N1 1_555 1_555
H3 C8 1_555 1_555
C9 N1 1_555 1_555
H4 C9 1_555 1_555
H5 C9 1_555 1_555
C10 N4 1_555 1_555
H6 C10 1_555 1_555
H7 C10 1_555 1_555
C11 N4 1_555 1_555
H8 C11 1_555 1_555
H9 C11 1_555 1_555
H10 C11 1_555 1_555
C12 N4 1_555 1_555
H11 C12 1_555 1_555
H12 C12 1_555 1_555
H13 C12 1_555 1_555
C13 N2 1_555 1_555
H14 C13 1_555 1_555
C14 N2 1_555 1_555
H15 C14 1_555 1_555
H16 C14 1_555 1_555
C15 N3 1_555 1_555
H17 C15 1_555 1_555
H18 C15 1_555 1_555
C16 N3 1_555 1_555
H19 C16 1_555 1_555
H20 C16 1_555 1_555
H21 C16 1_555 1_555
C17 N3 1_555 1_555
H22 C17 1_555 1_555
H23 C17 1_555 1_555
H24 C17 1_555 1_555
O2 Ni1 1_555 1_555
O3 Ni2 1_555 1_555
O4 Ni1 1_555 1_555
O5 Ni2 1_555 1_555
C18 O2 1_555 1_555
C19 C18 1_555 1_555
H25 C19 1_555 1_555
H26 C19 1_555 1_555
H27 C19 1_555 1_555
C20 O4 1_555 1_555
C21 C20 1_555 1_555
H28 C21 1_555 1_555
H29 C21 1_555 1_555
H30 C21 1_555 1_555
C22 C5 1_555 1_555
H31 C22 1_555 1_555
H32 C22 1_555 1_555
H33 C22 1_555 1_555
C23 C5 1_555 1_555
H34 C23 1_555 1_555
H35 C23 1_555 1_555
H36 C23 1_555 1_555
C24 C5 1_555 1_555
H37 C24 1_555 1_555
H38 C24 1_555 1_555
H39 C24 1_555 1_555
C25 N5 1_555 1_555
C26 N6 1_555 1_555
Ni2_2 N7 1_555 1_555
N7_2 Ni2 1_555 1_555
C2 C13 1_555 1_555
C6 C7 1_555 1_555
C7 C8 1_555 1_555
C9 C10 1_555 1_555
C14 C15 1_555 1_555
O3 C18 1_555 1_555
O5 C20 1_555 1_555

#END
