
#######################################################################
#
#                 Cambridge Crystallographic Data Centre
#                                CCDC 
#
#######################################################################
#
# If this CIF has been generated from an entry in the Cambridge 
# Structural Database, then it will include bibliographic, chemical, 
# crystal, experimental, refinement or atomic coordinate data resulting 
# from the CCDC's data processing and validation procedures.
#
#######################################################################

data_MISQUB
_symmetry_cell_setting           monoclinic
_symmetry_space_group_name_H-M   'C c'
_symmetry_Int_Tables_number      9
_space_group_name_Hall           'C -2yc'
loop_
_symmetry_equiv_pos_site_id
_symmetry_equiv_pos_as_xyz
1 x,y,z
2 x,-y,1/2+z
3 1/2+x,1/2+y,z
4 1/2+x,1/2-y,1/2+z
_cell_length_a                   8.4254(4)
_cell_length_b                   18.0692(8)
_cell_length_c                   7.4187(3)
_cell_angle_alpha                90
_cell_angle_beta                 114.4120(10)
_cell_angle_gamma                90
_cell_volume                     1028.45
loop_
_atom_site_label
_atom_site_type_symbol
_atom_site_fract_x
_atom_site_fract_y
_atom_site_fract_z
Cu1 Cu 0.39418(3) 0.381360(19) 0.39933(3)
N1 N 0.1873(5) 0.31814(18) 0.4306(5)
N2 N -0.0632(5) 0.2179(2) 0.4255(5)
O1 O 0.4124(6) 0.15523(15) 0.4145(8)
O2 O 0.4816(4) 0.27394(16) 0.4101(5)
O3 O 0.0382(5) 0.09067(18) 0.1974(4)
O4 O 0.1390(5) 0.07149(17) 0.5176(4)
O5 O 0.2715(5) 0.48202(16) 0.3841(6)
H1 H 0.3168 0.5080 0.4872
H2 H 0.1618 0.4890 0.3202
O6 O 0.6011(4) 0.42619(17) 0.3605(4)
H3 H 0.6120 0.4708 0.4021
H4 H 0.6000 0.4220 0.2471
O7 O 0.2584(5) 0.37715(15) 0.0794(5)
H5 H 0.3141 0.3490 0.0379
H6 H 0.1501 0.3750 0.0249
C1 C 0.3817(8) 0.2227(2) 0.4095(8)
C2 C 0.2074(6) 0.2457(2) 0.4108(6)
C3 C 0.0804(6) 0.1953(2) 0.4043(6)
C4 C -0.0791(6) 0.2903(3) 0.4474(6)
H7 H -0.1763 0.3073 0.4642
C5 C 0.0417(6) 0.3408(2) 0.4461(6)
H8 H 0.0227 0.3911 0.4561
C6 C 0.0890(6) 0.1131(2) 0.3690(7)
Cu1C Cu -0.10582(3) 0.118640(19) -0.10067(3)
O3C O 0.5382(5) 0.40933(18) 0.6974(4)
O8 O -0.5604(6) -0.0183(3) -0.2743(8)
H9 H -0.6463 0.0099 -0.3358
H10 H -0.5957 -0.0601 -0.2537
loop_
_geom_bond_atom_site_label_1
_geom_bond_atom_site_label_2
_geom_bond_site_symmetry_1
_geom_bond_site_symmetry_2
Cu1 N1 1_555 1_555
N1 C2 1_555 1_555
N2 C3 1_555 1_555
O1 C1 1_555 1_555
O2 Cu1 1_555 1_555
O3 C6 1_555 1_555
O4 C6 1_555 1_555
O5 Cu1 1_555 1_555
H1 O5 1_555 1_555
H2 O5 1_555 1_555
O6 Cu1 1_555 1_555
H3 O6 1_555 1_555
H4 O6 1_555 1_555
O7 Cu1 1_555 1_555
H5 O7 1_555 1_555
H6 O7 1_555 1_555
C1 O2 1_555 1_555
C2 C1 1_555 1_555
C3 C2 1_555 1_555
C4 N2 1_555 1_555
H7 C4 1_555 1_555
C5 N1 1_555 1_555
H8 C5 1_555 1_555
C6 C3 1_555 1_555
O8 H9 1_555 1_555
H10 O8 1_555 1_555
Cu1C O3 1_555 1_555
O3C Cu1 1_555 1_555
C4 C5 1_555 1_555

#END
