
#######################################################################
#
#                 Cambridge Crystallographic Data Centre
#                                CCDC 
#
#######################################################################
#
# If this CIF has been generated from an entry in the Cambridge 
# Structural Database, then it will include bibliographic, chemical, 
# crystal, experimental, refinement or atomic coordinate data resulting 
# from the CCDC's data processing and validation procedures.
#
#######################################################################

data_MISQAH
_symmetry_cell_setting           monoclinic
_symmetry_space_group_name_H-M   'C 2/c'
_symmetry_Int_Tables_number      15
_space_group_name_Hall           '-C 2yn'
loop_
_symmetry_equiv_pos_site_id
_symmetry_equiv_pos_as_xyz
1 x,y,z
2 1/2+x,1/2+y,z
3 -x,y,1/2-z
4 1/2-x,1/2+y,1/2-z
5 -x,-y,-z
6 1/2-x,1/2-y,-z
7 x,-y,1/2+z
8 1/2+x,1/2-y,1/2+z
_cell_length_a                   19.966(4)
_cell_length_b                   7.8761(9)
_cell_length_c                   13.9861(8)
_cell_angle_alpha                90
_cell_angle_beta                 120.810(10)
_cell_angle_gamma                90
_cell_volume                     1888.98
loop_
_atom_site_label
_atom_site_type_symbol
_atom_site_fract_x
_atom_site_fract_y
_atom_site_fract_z
Nd1 Nd 0.269282(10) 0.78357(2) 0.230560(14)
O1 O 0.1961(2) 0.7564(4) 0.3297(3)
O2 O 0.17965(17) 0.4808(3) 0.3430(2)
O3 O 0.18625(14) 0.4811(3) 0.6347(2)
O4 O 0.17029(17) 0.2677(3) 0.5265(2)
O5 O 0.40816(16) 0.7251(3) 0.3807(2)
O6 O 0.32606(13) 0.5160(3) 0.3399(2)
O7 O 0.33554(16) 0.6094(3) 0.1495(2)
H1 H 0.3218 0.6460 0.0848
H2 H 0.3223 0.5059 0.1454
C1 C 0.1697(2) 0.6327(4) 0.3572(3)
C2 C 0.1225(2) 0.6721(5) 0.4117(3)
H4 H 0.0792 0.7448 0.3624
H5 H 0.1551 0.7350 0.4798
C3 C 0.0903(2) 0.5144(5) 0.4397(3)
H6 H 0.0508 0.5498 0.4563
H7 H 0.0655 0.4409 0.3750
C4 C 0.15256(18) 0.4147(5) 0.5375(3)
C5 C 0.39642(19) 0.5743(5) 0.3931(3)
C6 C 0.4604(2) 0.4567(5) 0.4686(3)
H8 H 0.4630 0.3639 0.4250
H9 H 0.4483 0.4088 0.5219
Nd1C Nd 0.230718(10) 1.28357(2) 0.269440(14)
Nd1C_2 Nd 0.230718(10) 0.28357(2) 0.269440(14)
Nd1F Nd 0.269282(10) 0.21643(2) 0.730560(14)
Nd1E Nd 0.230718(10) 0.71643(2) 0.769440(14)
Nd1D Nd 0.730718(10) 0.21643(2) 0.769440(14)
Nd1G Nd 0.769282(10) 0.71643(2) 0.730560(14)
Nd1F_2 Nd 0.269282(10) 1.21643(2) -0.269440(14)
Nd1E_2 Nd 0.230718(10) 0.71643(2) -0.230560(14)
O1C O 0.3039(2) 1.2564(4) 0.1703(3)
O2C O 0.32035(17) 0.9808(3) 0.1570(2)
O2_2 O 0.17965(17) 1.4808(3) 0.3430(2)
O3C O 0.31375(14) 0.9811(3) -0.1347(2)
O3F O 0.18625(14) 0.5189(3) 0.1347(2)
O3E O 0.31375(14) 1.0189(3) 0.3653(2)
O3F_2 O 0.18625(14) 1.5189(3) 0.1347(2)
O4C O 0.32971(17) 0.7677(3) -0.0265(2)
O4F O 0.17029(17) 0.7323(3) 0.0265(2)
O4E O 0.32971(17) 1.2323(3) 0.4735(2)
O5D O 0.59184(16) 0.2749(3) 0.6193(2)
O5C O 0.09184(16) 1.2251(3) 0.1193(2)
O6D O 0.67394(13) 0.4840(3) 0.6601(2)
O6C O 0.17394(13) 1.0160(3) 0.1601(2)
O6_2 O 0.32606(13) 1.5160(3) 0.3399(2)
O7C O 0.16446(16) 1.1094(3) 0.3505(2)
H1C H 0.1782 1.1460 0.4152
H2C H 0.1777 1.0059 0.3546
C1C C 0.3303(2) 1.1327(4) 0.1428(3)
C2C C 0.3775(2) 1.1721(5) 0.0883(3)
H4C H 0.4208 1.2448 0.1376
H5C H 0.3449 1.2350 0.0202
C3C C 0.4097(2) 1.0144(5) 0.0603(3)
H6C H 0.4492 1.0498 0.0437
H7C H 0.4345 0.9409 0.1250
C4C C 0.34744(18) 0.9147(5) -0.0375(3)
C5D C 0.60358(19) 0.4257(5) 0.6069(3)
C6D C 0.5396(2) 0.5433(5) 0.5314(3)
H8D H 0.5370 0.6361 0.5750
H9D H 0.5517 0.5912 0.4781
O8 O 0.5000 0.5101(10) 0.2500
H3 H 0.5203 0.5710 0.2206
H3B H 0.4797 0.5710 0.2794
loop_
_geom_bond_atom_site_label_1
_geom_bond_atom_site_label_2
_geom_bond_site_symmetry_1
_geom_bond_site_symmetry_2
Nd1 O1 1_555 1_555
O1 C1 1_555 1_555
O2 C1 1_555 1_555
O3 C4 1_555 1_555
O4 C4 1_555 1_555
O5 Nd1 1_555 1_555
O6 Nd1 1_555 1_555
O7 Nd1 1_555 1_555
H1 O7 1_555 1_555
H2 O7 1_555 1_555
O8 H3 1_555 1_555
C1 C2 1_555 1_555
C2 H4 1_555 1_555
H5 C2 1_555 1_555
C3 C2 1_555 1_555
H6 C3 1_555 1_555
H7 C3 1_555 1_555
C4 C3 1_555 1_555
C5 O5 1_555 1_555
C6 C5 1_555 1_555
H8 C6 1_555 1_555
H9 C6 1_555 1_555
Nd1C O1C 1_555 1_555
Nd1C_2 O2 1_555 1_555
Nd1F O3 1_555 1_555
Nd1E O3 1_555 1_555
Nd1D O5D 1_555 1_555
Nd1G O6D 1_555 1_555
Nd1F_2 O3C 1_555 1_555
Nd1E_2 O3C 1_555 1_555
O1C C1C 1_555 1_555
O2C Nd1 1_555 1_555
O2_2 Nd1C 1_555 1_555
O3C C4C 1_555 1_555
O3F Nd1 1_555 1_555
O3E Nd1 1_555 1_555
O3F_2 Nd1C 1_555 1_555
O4C Nd1E_2 1_555 1_555
O4F Nd1 1_555 1_555
O4E Nd1C 1_555 1_555
O5D C5D 1_555 1_555
O5C Nd1C 1_555 1_555
O6D Nd1D 1_555 1_555
O6C Nd1 1_555 1_555
O6_2 Nd1C 1_555 1_555
O7C Nd1C 1_555 1_555
H1C O7C 1_555 1_555
H2C O7C 1_555 1_555
H3B O8 1_555 1_555
C1C O2C 1_555 1_555
C2C C1C 1_555 1_555
H4C C2C 1_555 1_555
H5C C2C 1_555 1_555
C3C C2C 1_555 1_555
H6C C3C 1_555 1_555
H7C C3C 1_555 1_555
C4C O4C 1_555 1_555
C5D O6D 1_555 1_555
C6D C6 1_555 1_555
H8D C6D 1_555 1_555
H9D C6D 1_555 1_555
O4 Nd1F 1_555 1_555
O6 C5 1_555 1_555
O6 Nd1C_2 1_555 1_555
Nd1C O3E 1_555 1_555
Nd1C O6C 1_555 1_555
Nd1C_2 O3F 1_555 1_555
C3C C4C 1_555 1_555
C5D C6D 1_555 1_555

#END
