
#######################################################################
#
#                 Cambridge Crystallographic Data Centre
#                                CCDC 
#
#######################################################################
#
# If this CIF has been generated from an entry in the Cambridge 
# Structural Database, then it will include bibliographic, chemical, 
# crystal, experimental, refinement or atomic coordinate data resulting 
# from the CCDC's data processing and validation procedures.
#
#######################################################################

data_MISRUC
_symmetry_cell_setting           monoclinic
_symmetry_space_group_name_H-M   'C 2/c'
_symmetry_Int_Tables_number      15
_space_group_name_Hall           '-C 2yn'
loop_
_symmetry_equiv_pos_site_id
_symmetry_equiv_pos_as_xyz
1 x,y,z
2 1/2+x,1/2+y,z
3 -x,y,1/2-z
4 1/2-x,1/2+y,1/2-z
5 -x,-y,-z
6 1/2-x,1/2-y,-z
7 x,-y,1/2+z
8 1/2+x,1/2-y,1/2+z
_cell_length_a                   19.0135(16)
_cell_length_b                   9.5522(8)
_cell_length_c                   13.2941(11)
_cell_angle_alpha                90
_cell_angle_beta                 124.7000(10)
_cell_angle_gamma                90
_cell_volume                     1985.05
loop_
_atom_site_label
_atom_site_type_symbol
_atom_site_fract_x
_atom_site_fract_y
_atom_site_fract_z
Zn1 Zn 0.7500 0.2500 0.0000
Zn2 Zn 0.608551(15) 0.45065(2) 0.03030(2)
C1 C 0.86035(13) 0.5153(2) 0.26682(18)
C2 C 0.88598(13) 0.6549(2) 0.29398(19)
H1 H 0.8452 0.7252 0.2673
C3 C 0.97225(12) 0.6892(2) 0.36075(18)
C4 C 1.03360(13) 0.5837(2) 0.40151(18)
H2 H 1.0913 0.6067 0.4444
C5 C 1.00807(13) 0.44384(19) 0.37774(18)
C6 C 0.92153(13) 0.4096(2) 0.31060(18)
H3 H 0.9046 0.3163 0.2950
C7 C 0.76673(13) 0.4864(2) 0.18874(19)
C8 C 0.99830(14) 0.8394(2) 0.39251(19)
C9 C 1.07418(13) 0.3296(2) 0.42459(17)
O1 O 0.71620(11) 0.57059(19) 0.18812(19)
O2 O 0.73631(10) 0.37918(17) 0.11979(15)
O3 O 1.07476(10) 0.87122(16) 0.43728(17)
O4 O 0.94299(11) 0.92837(15) 0.37515(15)
O5 O 1.04756(11) 0.20561(16) 0.41547(16)
O6 O 1.14935(9) 0.36461(15) 0.46726(15)
O7 O 0.82560(13) 0.0987(2) 0.1391(2)
Zn1G Zn 1.2500 0.2500 0.5000
Zn1G_2 Zn 0.2500 0.2500 -0.5000
Zn2E Zn 0.891449(15) 0.04935(2) -0.03030(2)
Zn2G Zn 1.108551(15) 1.04935(2) 0.53030(2)
Zn2C Zn 0.891449(15) 0.95065(2) 0.46970(2)
Zn2G_2 Zn 1.108551(15) 0.04935(2) 0.53030(2)
Zn2B Zn 0.391449(15) -0.54935(2) -0.53030(2)
Zn2F Zn 0.608551(15) -0.45065(2) -0.46970(2)
Zn2B_2 Zn 0.391449(15) 0.45065(2) -0.53030(2)
C1E C 0.63965(13) -0.0153(2) -0.26682(18)
C2E C 0.61402(13) -0.1549(2) -0.29398(19)
H1E H 0.6548 -0.2252 -0.2673
C3E C 0.52775(12) -0.1892(2) -0.36075(18)
C4E C 0.46640(13) -0.0837(2) -0.40151(18)
H2E H 0.4087 -0.1067 -0.4444
C5E C 0.49193(13) 0.05616(19) -0.37774(18)
C6E C 0.57847(13) 0.0904(2) -0.31060(18)
H3E H 0.5954 0.1837 -0.2950
C7E C 0.73327(13) 0.0136(2) -0.18874(19)
C8E C 0.50170(14) -0.3394(2) -0.39251(19)
C9E C 0.42582(13) 0.1704(2) -0.42459(17)
O1E O 0.78380(11) -0.07059(19) -0.18812(19)
O2E O 0.76369(10) 0.12082(17) -0.11979(15)
O3E O 0.42524(10) -0.37122(16) -0.43728(17)
O3G O 0.57476(10) 0.62878(16) -0.06272(17)
O3B O 0.92524(10) -0.12878(16) 0.06272(17)
O4E O 0.55701(11) -0.42837(15) -0.37515(15)
O4C O 0.55701(11) 0.42837(15) 0.12485(15)
O4F O 0.94299(11) 0.07163(15) -0.12485(15)
O5E O 0.45244(11) 0.29439(16) -0.41547(16)
O5G O 0.54756(11) 0.29439(16) -0.08453(16)
O5B O 0.95244(11) 0.20561(16) 0.08453(16)
O6E O 0.35065(9) 0.13539(15) -0.46726(15)
O6G O 0.64935(9) 0.13539(15) -0.03274(15)
O6B O 0.85065(9) 0.36461(15) 0.03274(15)
O7E O 0.67440(13) 0.4013(2) -0.1391(2)
O8 O 1.2499(8) 0.8108(11) 0.4768(11)
loop_
_geom_bond_atom_site_label_1
_geom_bond_atom_site_label_2
_geom_bond_site_symmetry_1
_geom_bond_site_symmetry_2
Zn1 O2 1_555 1_555
Zn2 O1 1_555 1_555
C1 C2 1_555 1_555
C2 H1 1_555 1_555
C3 C2 1_555 1_555
C4 C3 1_555 1_555
H2 C4 1_555 1_555
C5 C4 1_555 1_555
C6 C1 1_555 1_555
H3 C6 1_555 1_555
C7 C1 1_555 1_555
C8 C3 1_555 1_555
C9 C5 1_555 1_555
O1 C7 1_555 1_555
O2 Zn2 1_555 1_555
O3 C8 1_555 1_555
O4 C8 1_555 1_555
O5 C9 1_555 1_555
O6 C9 1_555 1_555
O7 Zn1 1_555 1_555
Zn1G O6 1_555 1_555
Zn1G_2 O6E 1_555 1_555
Zn2E O1E 1_555 1_555
Zn2G O3 1_555 1_555
Zn2C O4 1_555 1_555
Zn2G_2 O5 1_555 1_555
Zn2B O3E 1_555 1_555
Zn2F O4E 1_555 1_555
Zn2B_2 O5E 1_555 1_555
C1E C2E 1_555 1_555
C2E H1E 1_555 1_555
C3E C2E 1_555 1_555
C4E C3E 1_555 1_555
H2E C4E 1_555 1_555
C5E C4E 1_555 1_555
C6E C1E 1_555 1_555
H3E C6E 1_555 1_555
C7E C1E 1_555 1_555
C8E C3E 1_555 1_555
C9E C5E 1_555 1_555
O1E C7E 1_555 1_555
O2E Zn1 1_555 1_555
O3E C8E 1_555 1_555
O3G Zn2 1_555 1_555
O3B Zn2E 1_555 1_555
O4E C8E 1_555 1_555
O4C Zn2 1_555 1_555
O4F Zn2E 1_555 1_555
O5E C9E 1_555 1_555
O5G Zn2 1_555 1_555
O5B Zn2E 1_555 1_555
O6E C9E 1_555 1_555
O6G Zn1 1_555 1_555
O6B Zn1 1_555 1_555
O7E Zn1 1_555 1_555
C5 C6 1_555 1_555
C7 O2 1_555 1_555
Zn2E O2E 1_555 1_555
C5E C6E 1_555 1_555
C7E O2E 1_555 1_555

#END
