
#######################################################################
#
#                 Cambridge Crystallographic Data Centre
#                                CCDC 
#
#######################################################################
#
# If this CIF has been generated from an entry in the Cambridge 
# Structural Database, then it will include bibliographic, chemical, 
# crystal, experimental, refinement or atomic coordinate data resulting 
# from the CCDC's data processing and validation procedures.
#
#######################################################################

data_MITBAS
_symmetry_cell_setting           monoclinic
_symmetry_space_group_name_H-M   'P 2/c'
_symmetry_Int_Tables_number      13
_space_group_name_Hall           '-P 2yc'
loop_
_symmetry_equiv_pos_site_id
_symmetry_equiv_pos_as_xyz
1 x,y,z
2 x,-y,1/2+z
3 -x,-y,-z
4 -x,y,1/2-z
_cell_length_a                   10.744(2)
_cell_length_b                   7.541(2)
_cell_length_c                   13.204(3)
_cell_angle_alpha                90.00
_cell_angle_beta                 94.12(3)
_cell_angle_gamma                90.00
_cell_volume                     1067.03
loop_
_atom_site_label
_atom_site_type_symbol
_atom_site_fract_x
_atom_site_fract_y
_atom_site_fract_z
Ca1 Ca 0.57591(5) 0.13751(7) 0.12900(4)
O1 O 0.5000 0.3750(4) 0.2500
O2 O 0.4462(3) 0.3401(3) 0.02415(17)
O3 O 0.2235(2) -0.5035(3) 0.05191(16)
O4 O 0.3154(2) -0.3911(3) 0.19399(17)
C1 C 0.1872(2) -0.0611(4) 0.12283(17)
O5 O 0.37906(17) -0.0651(3) 0.04408(14)
C2 C 0.3227(2) -0.0167(3) 0.11951(18)
C3 C -0.0627(4) -0.1283(6) 0.1185(3)
C4 C 0.1446(2) -0.2366(4) 0.11684(18)
C5 C 0.2351(2) -0.3893(4) 0.1203(2)
O6 O 0.7649(4) 0.3066(8) 0.1324(3)
N1 N -0.0239(2) 0.0384(4) 0.12588(19)
C6 C 0.0177(3) -0.2653(4) 0.1135(2)
C7 C 0.1001(3) 0.0740(4) 0.1278(2)
O7 O 0.6613(4) -0.1581(4) 0.1408(2)
O8 O 0.37347(17) 0.0748(3) 0.19095(13)
H1 H 0.135(3) 0.195(5) 0.129(2)
H2 H -0.010(3) -0.379(4) 0.108(3)
H3 H -0.100(3) -0.145(5) 0.120(3)
H4 H 0.440(3) 0.449(5) 0.230(3)
H5 H 0.373(4) 0.373(5) 0.044(3)
H6 H 0.672(4) -0.244(7) 0.197(4)
H7 H 0.476(6) 0.396(7) 0.009(5)
H8 H 0.602(2) -0.178(4) 0.152(2)
H9 H 0.726(3) 0.365(5) 0.136(3)
H10 H 0.77(2) 0.39(3) 0.078(16)
H4C H 0.560(3) 0.449(5) 0.270(3)
O3B O 0.7765(2) 0.5035(3) -0.05191(16)
O4B O 0.6846(2) 0.3911(3) -0.19399(17)
C1B C 0.8128(2) 0.0611(4) -0.12283(17)
O5B O 0.62094(17) 0.0651(3) -0.04408(14)
C2B C 0.6773(2) 0.0167(3) -0.11951(18)
C3B C 1.0627(4) 0.1283(6) -0.1185(3)
C4B C 0.8554(2) 0.2366(4) -0.11684(18)
C5B C 0.7649(2) 0.3893(4) -0.1203(2)
N1B N 1.0239(2) -0.0384(4) -0.12588(19)
C6B C 0.9823(3) 0.2653(4) -0.1135(2)
C7B C 0.8999(3) -0.0740(4) -0.1278(2)
O8B O 0.62653(17) -0.0748(3) -0.19095(13)
H1B H 0.865(3) -0.195(5) -0.129(2)
H2B H 1.010(3) 0.379(4) -0.108(3)
H3B H 1.100(3) 0.145(5) -0.120(3)
Ca1C Ca 0.42409(5) 0.13751(7) 0.37100(4)
O2C O 0.5538(3) 0.3401(3) 0.47585(17)
H5C H 0.627(4) 0.373(5) 0.456(3)
H7C H 0.524(6) 0.396(7) 0.491(5)
O6C O 0.2351(4) 0.3066(8) 0.3676(3)
H9C H 0.274(3) 0.365(5) 0.364(3)
H10C H 0.23(2) 0.39(3) 0.422(16)
O7C O 0.3387(4) -0.1581(4) 0.3592(2)
H6C H 0.328(4) -0.244(7) 0.303(4)
H8C H 0.398(2) -0.178(4) 0.348(2)
O8C O 0.62653(17) 0.0748(3) 0.30905(13)
Ca1B Ca 0.42409(5) -0.13751(7) -0.12900(4)
Ca1A Ca 0.57591(5) -0.13751(7) -0.37100(4)
O5A O 0.37906(17) 0.0651(3) 0.54408(14)
O5C O 0.62094(17) -0.0651(3) 0.45592(14)
loop_
_geom_bond_atom_site_label_1
_geom_bond_atom_site_label_2
_geom_bond_site_symmetry_1
_geom_bond_site_symmetry_2
Ca1 O1 1_555 1_555
O1 H4 1_555 1_555
O2 Ca1 1_555 1_555
O3 C5 1_555 1_555
O4 C5 1_555 1_555
C1 C2 1_555 1_555
O5 Ca1 1_555 1_555
C2 O5 1_555 1_555
C3 N1 1_555 1_555
C4 C1 1_555 1_555
C5 C4 1_555 1_555
O6 Ca1 1_555 1_555
N1 C7 1_555 1_555
C6 C3 1_555 1_555
C7 C1 1_555 1_555
O7 Ca1 1_555 1_555
O8 Ca1 1_555 1_555
H1 C7 1_555 1_555
H2 C6 1_555 1_555
H3 C3 1_555 1_555
H5 O2 1_555 1_555
H6 O7 1_555 1_555
H7 O2 1_555 1_555
H8 O7 1_555 1_555
H9 O6 1_555 1_555
H10 O6 1_555 1_555
H4C O1 1_555 1_555
O3B C5B 1_555 1_555
O4B C5B 1_555 1_555
C1B C2B 1_555 1_555
O5B Ca1 1_555 1_555
C2B O5B 1_555 1_555
C3B N1B 1_555 1_555
C4B C1B 1_555 1_555
C5B C4B 1_555 1_555
N1B C7B 1_555 1_555
C6B C3B 1_555 1_555
C7B C1B 1_555 1_555
O8B C2B 1_555 1_555
H1B C7B 1_555 1_555
H2B C6B 1_555 1_555
H3B C3B 1_555 1_555
Ca1C O1 1_555 1_555
O2C Ca1C 1_555 1_555
H5C O2C 1_555 1_555
H7C O2C 1_555 1_555
O6C Ca1C 1_555 1_555
H9C O6C 1_555 1_555
H10C O6C 1_555 1_555
O7C Ca1C 1_555 1_555
H6C O7C 1_555 1_555
H8C O7C 1_555 1_555
O8C Ca1 1_555 1_555
Ca1B O5 1_555 1_555
Ca1A O8B 1_555 1_555
O5A Ca1C 1_555 1_555
O5C Ca1C 1_555 1_555
C2 O8 1_555 1_555
C4 C6 1_555 1_555
O8 Ca1C 1_555 1_555
O5B Ca1B 1_555 1_555
C4B C6B 1_555 1_555
O8B Ca1B 1_555 1_555
Ca1C O8C 1_555 1_555

#END
