
#######################################################################
#
#                 Cambridge Crystallographic Data Centre
#                                CCDC 
#
#######################################################################
#
# If this CIF has been generated from an entry in the Cambridge 
# Structural Database, then it will include bibliographic, chemical, 
# crystal, experimental, refinement or atomic coordinate data resulting 
# from the CCDC's data processing and validation procedures.
#
#######################################################################

data_MITBAS01
_symmetry_cell_setting           monoclinic
_symmetry_space_group_name_H-M   'P 2/c'
_symmetry_Int_Tables_number      13
_space_group_name_Hall           '-P 2yc'
loop_
_symmetry_equiv_pos_site_id
_symmetry_equiv_pos_as_xyz
1 x,y,z
2 -x,y,1/2-z
3 -x,-y,-z
4 x,-y,1/2+z
_cell_length_a                   10.7434(5)
_cell_length_b                   7.5535(4)
_cell_length_c                   13.1524(6)
_cell_angle_alpha                90
_cell_angle_beta                 94.0870(10)
_cell_angle_gamma                90
_cell_volume                     1064.61
loop_
_atom_site_label
_atom_site_type_symbol
_atom_site_fract_x
_atom_site_fract_y
_atom_site_fract_z
C1 C 0.6003(2) 0.9269(3) 0.12771(17)
C2 C 0.68748(18) 1.0619(3) 0.12279(14)
C3 C 0.64552(18) 1.2367(3) 0.11694(15)
C4 C 0.5178(2) 1.2663(3) 0.11364(19)
H1 H 0.4843 1.3823 0.1102
C5 C 0.43566(19) 1.1308(3) 0.11859(18)
H2 H 0.3647 1.1430 0.1193
C6 C 0.82304(18) 1.0162(3) 0.11925(15)
H3 H 0.6271 0.8014 0.1311
C7 C 0.7360(2) 1.3895(3) 0.12040(17)
Ca1 Ca 0.92417(4) 1.13694(5) -0.12895(3)
N1 N 0.47545(19) 0.9636(3) 0.12580(16)
O1 O 0.72436(17) 1.5032(2) 0.05178(15)
O2 O 0.8171(2) 1.3899(3) 0.19347(15)
O3 O 0.87935(14) 1.0637(2) 0.04396(12)
O4 O 0.87334(14) 0.9255(2) 0.19105(11)
O5 O 1.05361(18) 1.3412(2) -0.02428(13)
H4 H 1.0906 1.2817 0.0337
H5 H 1.0053 1.4466 -0.0216
O6 O 1.0000 1.3748(3) -0.2500
O7 O 0.7409(3) 1.3131(5) -0.13285(17)
H6 H 0.7017 1.3392 -0.1893
H7 H 0.7098 1.3433 -0.0778
O8 O 0.8436(3) 0.8401(3) -0.14193(16)
H8 H 1.0592 1.4477 -0.2255
H9 H 0.8403 0.7719 -0.2043
H10 H 0.8875 0.7735 -0.0998
C1B C 1.3997(2) 1.0731(3) -0.12771(17)
C2B C 1.31252(18) 0.9381(3) -0.12279(14)
C3B C 1.35448(18) 0.7633(3) -0.11694(15)
C4B C 1.4822(2) 0.7337(3) -0.11364(19)
H1B H 1.5157 0.6177 -0.1102
C5B C 1.56434(19) 0.8692(3) -0.11859(18)
H2B H 1.6353 0.8570 -0.1193
C6B C 1.17696(18) 0.9838(3) -0.11925(15)
H3B H 1.3729 1.1986 -0.1311
C7B C 1.2640(2) 0.6105(3) -0.12040(17)
Ca1B Ca 1.07583(4) 0.86306(5) 0.12895(3)
Ca1C Ca 0.92417(4) 0.86306(5) 0.37105(3)
Ca1A Ca 1.07583(4) 1.13694(5) -0.37105(3)
N1B N 1.52455(19) 1.0364(3) -0.12580(16)
O1B O 1.27564(17) 0.4968(2) -0.05178(15)
O2B O 1.1829(2) 0.6101(3) -0.19347(15)
O3B O 1.12065(14) 0.9363(2) -0.04396(12)
O4B O 1.12666(14) 1.0745(2) -0.19105(11)
O4C O 0.87334(14) 1.0745(2) -0.30895(11)
O4A O 1.12666(14) 0.9255(2) 0.30895(11)
O5B O 0.94639(18) 0.6588(2) 0.02428(13)
H4B H 0.9094 0.7183 -0.0337
H5B H 0.9947 0.5534 0.0216
O6B O 1.0000 0.6252(3) 0.2500
O7B O 1.2591(3) 0.6869(5) 0.13285(17)
H6B H 1.2983 0.6608 0.1893
H7B H 1.2902 0.6567 0.0778
O8B O 1.1564(3) 1.1599(3) 0.14193(16)
H8A H 0.9408 1.4477 -0.2745
H8B H 0.9408 0.5523 0.2255
H8C H 1.0592 0.5523 0.2745
H9B H 1.1597 1.2281 0.2043
H10B H 1.1125 1.2265 0.0998
loop_
_geom_bond_atom_site_label_1
_geom_bond_atom_site_label_2
_geom_bond_site_symmetry_1
_geom_bond_site_symmetry_2
C1 C2 1_555 1_555
C2 C3 1_555 1_555
C3 C4 1_555 1_555
C4 H1 1_555 1_555
C5 C4 1_555 1_555
H2 C5 1_555 1_555
C6 C2 1_555 1_555
H3 C1 1_555 1_555
C7 C3 1_555 1_555
Ca1 O3 1_555 1_555
N1 C1 1_555 1_555
O1 C7 1_555 1_555
O2 C7 1_555 1_555
O3 C6 1_555 1_555
O4 C6 1_555 1_555
O5 Ca1 1_555 1_555
H4 O5 1_555 1_555
H5 O5 1_555 1_555
O6 Ca1 1_555 1_555
O7 Ca1 1_555 1_555
H6 O7 1_555 1_555
H7 O7 1_555 1_555
O8 Ca1 1_555 1_555
H8 O6 1_555 1_555
H9 O8 1_555 1_555
H10 O8 1_555 1_555
C1B C2B 1_555 1_555
C2B C3B 1_555 1_555
C3B C4B 1_555 1_555
C4B H1B 1_555 1_555
C5B C4B 1_555 1_555
H2B C5B 1_555 1_555
C6B C2B 1_555 1_555
H3B C1B 1_555 1_555
C7B C3B 1_555 1_555
Ca1B O4 1_555 1_555
Ca1C O4 1_555 1_555
Ca1A O6 1_555 1_555
N1B C1B 1_555 1_555
O1B C7B 1_555 1_555
O2B C7B 1_555 1_555
O3B C6B 1_555 1_555
O4B Ca1 1_555 1_555
O4C Ca1 1_555 1_555
O4A Ca1B 1_555 1_555
O5B Ca1B 1_555 1_555
H4B O5B 1_555 1_555
H5B O5B 1_555 1_555
O6B Ca1B 1_555 1_555
O7B Ca1B 1_555 1_555
H6B O7B 1_555 1_555
H7B O7B 1_555 1_555
O8B Ca1B 1_555 1_555
H8A O6 1_555 1_555
H8B O6B 1_555 1_555
H8C O6B 1_555 1_555
H9B O8B 1_555 1_555
H10B O8B 1_555 1_555
C5 N1 1_555 1_555
C5B N1B 1_555 1_555
C6B O4B 1_555 1_555
Ca1B O3B 1_555 1_555
Ca1C O4A 1_555 1_555
Ca1C O6B 1_555 1_555
Ca1A O4B 1_555 1_555
Ca1A O4C 1_555 1_555

#END
