
#######################################################################
#
#                 Cambridge Crystallographic Data Centre
#                                CCDC 
#
#######################################################################
#
# If this CIF has been generated from an entry in the Cambridge 
# Structural Database, then it will include bibliographic, chemical, 
# crystal, experimental, refinement or atomic coordinate data resulting 
# from the CCDC's data processing and validation procedures.
#
#######################################################################

data_MITFIF
_symmetry_cell_setting           monoclinic
_symmetry_space_group_name_H-M   'P 21/c'
_symmetry_Int_Tables_number      14
_space_group_name_Hall           '-P 2ybc'
loop_
_symmetry_equiv_pos_site_id
_symmetry_equiv_pos_as_xyz
1 x,y,z
2 -x,1/2+y,1/2-z
3 -x,-y,-z
4 x,1/2-y,1/2+z
_cell_length_a                   23.568(4)
_cell_length_b                   12.894(2)
_cell_length_c                   21.345(4)
_cell_angle_alpha                90
_cell_angle_beta                 110.065(4)
_cell_angle_gamma                90
_cell_volume                     6092.74
loop_
_atom_site_label
_atom_site_type_symbol
_atom_site_fract_x
_atom_site_fract_y
_atom_site_fract_z
Cl2 Cl 0.44236(16) 0.3606(3) 0.95323(18)
O7 O 0.4731(7) 0.2594(10) 0.9719(9)
O8 O 0.4819(5) 0.4226(9) 0.9256(6)
O9 O 0.4432(5) 0.4006(9) 1.0123(5)
O10 O 0.3851(3) 0.3473(6) 0.9040(4)
Cl3 Cl 0.42192(12) 0.1852(2) 0.20380(15)
O11 O 0.4214(6) 0.2529(9) 0.1514(6)
O12 O 0.3642(3) 0.1854(6) 0.2172(4)
O13 O 0.4648(6) 0.2420(11) 0.2633(7)
O14 O 0.4441(5) 0.0872(7) 0.2002(6)
Cl5 Cl 0.04087(7) 0.22990(11) 0.19478(8)
O19 O 0.0790(5) 0.1913(9) 0.2553(5)
O20 O 0.0344(6) 0.3379(8) 0.1982(7)
O21 O 0.0626(4) 0.2135(7) 0.1380(5)
O22 O -0.0176(4) 0.1779(8) 0.1809(5)
Cl6 Cl 0.89818(15) 0.7328(2) 0.01973(13)
O27 O 0.8594(4) 0.7920(7) -0.0342(5)
O28 O 0.8784(5) 0.6521(10) 0.0411(7)
O29 O 0.9493(5) 0.6881(10) 0.0042(5)
O30 O 0.9293(5) 0.8107(8) 0.0710(5)
Cd1 Cd 0.237380(15) 0.73233(3) 0.138631(17)
Cd2 Cd 0.233978(15) 0.67561(3) 0.322830(17)
N1 N 0.32753(18) 0.6682(3) 0.1390(2)
C1 C 0.3310(2) 0.5676(5) 0.1370(2)
S1 S 0.39811(8) 0.52319(17) 0.13350(9)
C2 C 0.4220(3) 0.6476(6) 0.1342(3)
H1 H 0.4596 0.6665 0.1327
C3 C 0.3794(3) 0.7156(5) 0.1372(3)
C4 C 0.3853(3) 0.8299(6) 0.1373(4)
H2 H 0.4140 0.8520 0.1791
H3 H 0.3468 0.8611 0.1311
H4 H 0.3990 0.8506 0.1016
N2 N 0.22954(18) 0.5423(3) 0.13533(19)
C5 C 0.2822(2) 0.4968(4) 0.1407(2)
C6 C 0.2922(3) 0.3918(5) 0.1524(3)
H5 H 0.3292 0.3622 0.1562
C7 C 0.2456(3) 0.3323(5) 0.1581(3)
H6 H 0.2505 0.2610 0.1646
C8 C 0.1924(3) 0.3778(4) 0.1542(3)
H7 H 0.1610 0.3384 0.1587
C9 C 0.1856(2) 0.4841(4) 0.1433(2)
N3 N 0.13217(16) 0.6219(3) 0.17946(18)
O1 O 0.18674(13) 0.6658(2) 0.20773(15)
C10 C 0.1289(2) 0.5320(4) 0.1438(2)
C11 C 0.0726(2) 0.4888(4) 0.1133(3)
H8 H 0.0686 0.4288 0.0880
C12 C 0.0219(3) 0.5350(5) 0.1204(3)
H9 H -0.0161 0.5065 0.0993
C13 C 0.0279(2) 0.6224(4) 0.1584(3)
H10 H -0.0061 0.6510 0.1644
C14 C 0.0836(2) 0.6687(4) 0.1880(3)
N4 N 0.14102(18) 0.7822(3) 0.2805(2)
C15 C 0.1474(2) 0.8751(4) 0.3110(3)
C16 C 0.1052(3) 0.9523(5) 0.2912(4)
H11 H 0.1109 1.0148 0.3143
C17 C 0.0547(3) 0.9357(5) 0.2368(4)
H12 H 0.0249 0.9866 0.2232
C18 C 0.0475(2) 0.8422(4) 0.2016(3)
H13 H 0.0141 0.8305 0.1634
C19 C 0.0924(2) 0.7671(4) 0.2259(3)
N5 N 0.2536(2) 0.8310(4) 0.3788(2)
C20 C 0.2066(3) 0.8938(5) 0.3664(3)
S2 S 0.22054(10) 1.00314(15) 0.41348(10)
C21 C 0.2936(4) 0.9637(6) 0.4516(4)
H14 H 0.3228 1.0015 0.4842
C22 C 0.3036(3) 0.8706(6) 0.4282(3)
C23 C 0.3616(3) 0.8148(8) 0.4525(4)
H15 H 0.3627 0.7636 0.4203
H16 H 0.3658 0.7813 0.4940
H17 H 0.3942 0.8630 0.4591
N6 N 0.14982(18) 0.8085(3) 0.0770(2)
C24 C 0.1425(2) 0.9041(4) 0.0944(3)
S3 S 0.07801(8) 0.96058(15) 0.04217(12)
C25 C 0.0616(3) 0.8519(6) -0.0059(4)
H18 H 0.0279 0.8443 -0.0443
C26 C 0.1048(2) 0.7769(5) 0.0195(3)
C27 C 0.1064(3) 0.6740(5) -0.0103(3)
H19 H 0.1475 0.6514 0.0015
H20 H 0.0884 0.6787 -0.0579
H21 H 0.0842 0.6252 0.0063
N7 N 0.23856(17) 0.9091(3) 0.1814(2)
C28 C 0.1862(2) 0.9577(4) 0.1523(3)
C29 C 0.1716(3) 1.0509(4) 0.1752(3)
H22 H 0.1347 1.0828 0.1533
C30 C 0.2120(3) 1.0945(5) 0.2298(3)
H23 H 0.2031 1.1570 0.2461
C31 C 0.2667(3) 1.0461(4) 0.2615(3)
H24 H 0.2952 1.0759 0.2988
C32 C 0.2785(2) 0.9517(4) 0.2364(3)
N8 N 0.33553(17) 0.7934(3) 0.2793(2)
O2 O 0.28330(13) 0.7440(2) 0.25424(15)
C33 C 0.3360(2) 0.8984(4) 0.2720(3)
C34 C 0.3908(2) 0.9485(5) 0.2987(3)
H25 H 0.3928 1.0202 0.2955
C35 C 0.4427(3) 0.8920(6) 0.3301(4)
H26 H 0.4795 0.9263 0.3467
C36 C 0.4408(3) 0.7868(6) 0.3370(3)
H27 H 0.4761 0.7497 0.3578
C37 C 0.3855(2) 0.7357(5) 0.3127(3)
N9 N 0.33126(18) 0.5843(3) 0.32961(19)
C38 C 0.3800(2) 0.6236(5) 0.3187(3)
C39 C 0.4255(3) 0.5572(5) 0.3123(3)
H28 H 0.4590 0.5845 0.3047
C40 C 0.4197(3) 0.4530(6) 0.3174(3)
H29 H 0.4496 0.4088 0.3139
C41 C 0.3703(3) 0.4134(5) 0.3275(3)
H30 H 0.3661 0.3421 0.3309
C42 C 0.3260(3) 0.4809(4) 0.3327(2)
N10 N 0.22133(19) 0.4996(3) 0.32921(19)
C43 C 0.2690(3) 0.4424(4) 0.3385(2)
S4 S 0.25980(9) 0.31607(13) 0.35718(9)
C44 C 0.1878(3) 0.3433(5) 0.3517(3)
H31 H 0.1612 0.2950 0.3587
C45 C 0.1740(3) 0.4432(5) 0.3361(3)
C46 C 0.1128(3) 0.4938(5) 0.3249(3)
H32 H 0.0859 0.4777 0.2808
H33 H 0.1178 0.5676 0.3297
H34 H 0.0963 0.4679 0.3572
Cl1 Cl 0.23800(7) 0.86445(17) -0.01871(8)
O3 O 0.2229(3) 0.9484(5) 0.0134(3)
O4 O 0.2530(2) 0.7756(4) 0.0246(2)
O5 O 0.1880(2) 0.8385(4) -0.0771(2)
O6 O 0.2869(2) 0.8904(5) -0.0408(2)
Cd2C Cd 0.233978(15) 0.82439(3) -0.177170(17)
O5C O 0.1880(2) 0.6615(4) 0.4229(2)
Cl4? Cl 0.4191(2) 0.1856(4) 0.2288(3)
O15? O 0.4262(7) 0.1961(12) 0.2970(5)
O16? O 0.4340(5) 0.2791(7) 0.1998(5)
O17? O 0.3556(4) 0.1549(8) 0.1902(5)
O18? O 0.4601(4) 0.0989(7) 0.2328(5)
O23? O 0.0988(5) 0.2688(11) 0.2046(8)
O24? O -0.0024(6) 0.3106(12) 0.1752(8)
O25? O 0.0322(9) 0.1448(10) 0.1541(7)
O26? O 0.0502(8) 0.2021(14) 0.2648(9)
loop_
_geom_bond_atom_site_label_1
_geom_bond_atom_site_label_2
_geom_bond_site_symmetry_1
_geom_bond_site_symmetry_2
Cd1 N1 1_555 1_555
Cd2 O1 1_555 1_555
N1 C1 1_555 1_555
C1 S1 1_555 1_555
S1 C2 1_555 1_555
C2 H1 1_555 1_555
C3 N1 1_555 1_555
C4 C3 1_555 1_555
H2 C4 1_555 1_555
H3 C4 1_555 1_555
H4 C4 1_555 1_555
N2 Cd1 1_555 1_555
C5 C1 1_555 1_555
C6 C5 1_555 1_555
H5 C6 1_555 1_555
C7 C6 1_555 1_555
H6 C7 1_555 1_555
C8 C7 1_555 1_555
H7 C8 1_555 1_555
C9 N2 1_555 1_555
N3 O1 1_555 1_555
O1 Cd1 1_555 1_555
C10 C9 1_555 1_555
C11 C10 1_555 1_555
H8 C11 1_555 1_555
C12 C11 1_555 1_555
H9 C12 1_555 1_555
C13 C12 1_555 1_555
H10 C13 1_555 1_555
C14 N3 1_555 1_555
N4 Cd2 1_555 1_555
C15 N4 1_555 1_555
C16 C15 1_555 1_555
H11 C16 1_555 1_555
C17 C16 1_555 1_555
H12 C17 1_555 1_555
C18 C17 1_555 1_555
H13 C18 1_555 1_555
C19 C14 1_555 1_555
N5 Cd2 1_555 1_555
C20 C15 1_555 1_555
S2 C20 1_555 1_555
C21 S2 1_555 1_555
H14 C21 1_555 1_555
C22 N5 1_555 1_555
C23 C22 1_555 1_555
H15 C23 1_555 1_555
H16 C23 1_555 1_555
H17 C23 1_555 1_555
N6 Cd1 1_555 1_555
C24 N6 1_555 1_555
S3 C24 1_555 1_555
C25 S3 1_555 1_555
H18 C25 1_555 1_555
C26 N6 1_555 1_555
C27 C26 1_555 1_555
H19 C27 1_555 1_555
H20 C27 1_555 1_555
H21 C27 1_555 1_555
N7 Cd1 1_555 1_555
C28 C24 1_555 1_555
C29 C28 1_555 1_555
H22 C29 1_555 1_555
C30 C29 1_555 1_555
H23 C30 1_555 1_555
C31 C30 1_555 1_555
H24 C31 1_555 1_555
C32 N7 1_555 1_555
N8 O2 1_555 1_555
O2 Cd1 1_555 1_555
C33 C32 1_555 1_555
C34 C33 1_555 1_555
H25 C34 1_555 1_555
C35 C34 1_555 1_555
H26 C35 1_555 1_555
C36 C35 1_555 1_555
H27 C36 1_555 1_555
C37 N8 1_555 1_555
N9 Cd2 1_555 1_555
C38 C37 1_555 1_555
C39 C38 1_555 1_555
H28 C39 1_555 1_555
C40 C39 1_555 1_555
H29 C40 1_555 1_555
C41 C40 1_555 1_555
H30 C41 1_555 1_555
C42 N9 1_555 1_555
N10 Cd2 1_555 1_555
C43 C42 1_555 1_555
S4 C43 1_555 1_555
C44 S4 1_555 1_555
H31 C44 1_555 1_555
C45 N10 1_555 1_555
C46 C45 1_555 1_555
H32 C46 1_555 1_555
H33 C46 1_555 1_555
H34 C46 1_555 1_555
Cl1 O3 1_555 1_555
O4 Cd1 1_555 1_555
O5 Cl1 1_555 1_555
O6 Cl1 1_555 1_555
Cl2 O7 1_555 1_555
O8 Cl2 1_555 1_555
O9 Cl2 1_555 1_555
O10 Cl2 1_555 1_555
Cl3 O11 1_555 1_555
O12 Cl3 1_555 1_555
O13 Cl3 1_555 1_555
O14 Cl3 1_555 1_555
Cl5 O19 1_555 1_555
O20 Cl5 1_555 1_555
O21 Cl5 1_555 1_555
O22 Cl5 1_555 1_555
Cl6 O27 1_555 1_555
O28 Cl6 1_555 1_555
O29 Cl6 1_555 1_555
O30 Cl6 1_555 1_555
Cd2C O5 1_555 1_555
O5C Cd2 1_555 1_555
Cd2 O2 1_555 1_555
C2 C3 1_555 1_555
N2 C5 1_555 1_555
C8 C9 1_555 1_555
N3 C10 1_555 1_555
C13 C14 1_555 1_555
N4 C19 1_555 1_555
C18 C19 1_555 1_555
N5 C20 1_555 1_555
C21 C22 1_555 1_555
C25 C26 1_555 1_555
N7 C28 1_555 1_555
C31 C32 1_555 1_555
N8 C33 1_555 1_555
C36 C37 1_555 1_555
N9 C38 1_555 1_555
C41 C42 1_555 1_555
N10 C43 1_555 1_555
C44 C45 1_555 1_555
Cl1 O4 1_555 1_555

#END
