
#######################################################################
#
#                 Cambridge Crystallographic Data Centre
#                                CCDC 
#
#######################################################################
#
# If this CIF has been generated from an entry in the Cambridge 
# Structural Database, then it will include bibliographic, chemical, 
# crystal, experimental, refinement or atomic coordinate data resulting 
# from the CCDC's data processing and validation procedures.
#
#######################################################################

data_MITGEB
_symmetry_cell_setting           rhombohedral
_symmetry_space_group_name_H-M   'R 3'
_symmetry_Int_Tables_number      146
_space_group_name_Hall           'R 3'
loop_
_symmetry_equiv_pos_site_id
_symmetry_equiv_pos_as_xyz
1 x,y,z
2 -y,x-y,z
3 -x+y,-x,z
4 2/3+x,1/3+y,1/3+z
5 2/3-y,1/3+x-y,1/3+z
6 2/3-x+y,1/3-x,1/3+z
7 1/3+x,2/3+y,2/3+z
8 1/3-y,2/3+x-y,2/3+z
9 1/3-x+y,2/3-x,2/3+z
_cell_length_a                   20.4610(10)
_cell_length_b                   20.4610(10)
_cell_length_c                   24.1590(10)
_cell_angle_alpha                90
_cell_angle_beta                 90
_cell_angle_gamma                120.00
_cell_volume                     8759.18
loop_
_atom_site_label
_atom_site_type_symbol
_atom_site_fract_x
_atom_site_fract_y
_atom_site_fract_z
Cu1 Cu 0.16662(10) 0.33311(10) 0.33314(10)
N1 N 0.0020(6) 0.2639(6) 0.3964(5)
N2 N 0.1354(6) 0.2994(6) 0.4134(4)
H1 H 0.1439(6) 0.3403(6) 0.4338(4)
N3 N 0.2601(5) 0.3290(5) 0.3514(4)
H2 H 0.2549(5) 0.2856(5) 0.3371(4)
N4 N 0.3313(6) 0.4008(6) 0.2692(4)
N5 N 0.2004(5) 0.3691(5) 0.2561(4)
H3 H 0.1912(5) 0.3280(5) 0.2356(4)
N6 N 0.0718(6) 0.3360(5) 0.3149(4)
H4 H 0.0779(6) 0.3801(5) 0.3288(4)
C1 C 0.0000(7) 0.3248(7) 0.4302(5)
H5 H -0.0388(28) 0.3337(30) 0.4162(20)
H6 H 0.0479(16) 0.3705(13) 0.4278(24)
H7 H -0.0105(41) 0.3091(18) 0.4682(8)
C2 C 0.0495(8) 0.2403(8) 0.4153(6)
H8 H 0.0409(8) 0.1967(8) 0.3938(6)
H9 H 0.0360(8) 0.2238(8) 0.4534(6)
C3 C 0.1855(7) 0.2726(8) 0.4333(5)
H10 H 0.1680(7) 0.2217(8) 0.4201(5)
H11 H 0.1859(7) 0.2720(8) 0.4734(5)
C4 C 0.2629(8) 0.3247(9) 0.4118(5)
H12 H 0.2819(8) 0.3745(9) 0.4277(5)
H13 H 0.2966(8) 0.3063(9) 0.4223(5)
C5 C 0.3308(7) 0.3936(7) 0.3282(6)
H14 H 0.3381(7) 0.4400(7) 0.3446(6)
H15 H 0.3732(7) 0.3877(7) 0.3390(6)
C6 C 0.3297(8) 0.3389(9) 0.2397(7)
H16 H 0.3328(46) 0.3486(23) 0.2006(7)
H17 H 0.2835(23) 0.2932(12) 0.2478(27)
H18 H 0.3717(27) 0.3334(31) 0.2509(26)
C7 C 0.2784(8) 0.4253(8) 0.2472(6)
H19 H 0.2888(8) 0.4719(8) 0.2653(6)
H20 H 0.2872(8) 0.4354(8) 0.2079(6)
C8 C 0.1507(7) 0.3971(8) 0.2338(5)
H21 H 0.1529(7) 0.3990(8) 0.1936(5)
H22 H 0.1668(7) 0.4474(8) 0.2476(5)
C9 C 0.0690(7) 0.3410(8) 0.2535(5)
H23 H 0.0351(7) 0.3590(8) 0.2429(5)
H24 H 0.0512(7) 0.2917(8) 0.2369(5)
C10 C 0.0007(7) 0.2750(8) 0.3377(5)
H25 H -0.0393(7) 0.2859(8) 0.3297(5)
H26 H -0.0115(7) 0.2283(8) 0.3190(5)
C11 C 0.1224(6) 0.1565(6) 0.3050(4)
C12 C 0.0577(6) 0.0740(5) 0.3018(4)
C13 C -0.0132(6) 0.0604(6) 0.3010(5)
H27 H -0.0231(6) 0.1001(6) 0.3000(5)
C14 C 0.2107(7) 0.5113(6) 0.3619(4)
C15 C 0.2721(6) 0.5901(6) 0.3663(4)
C16 C 0.2589(6) 0.6484(6) 0.3655(5)
H28 H 0.2090(6) 0.6374(6) 0.3644(5)
O1 O 0.1880(5) 0.1669(5) 0.3154(4)
O2 O 0.1055(5) 0.2064(4) 0.2958(4)
O3 O 0.1455(5) 0.4977(4) 0.3503(4)
O4 O 0.2268(5) 0.4603(4) 0.3678(4)
C12A C -0.0740(5) -0.0163(8) 0.3018(4)
C11A C -0.1565(6) -0.0341(8) 0.3050(4)
O1A O -0.1669(5) 0.0211(7) 0.3154(4)
O2A O -0.2064(4) -0.1009(6) 0.2958(4)
C13A C -0.0604(6) -0.0736(8) 0.3010(5)
C12B C 0.0163(8) -0.0577(6) 0.3018(4)
C11B C 0.0341(8) -0.1224(6) 0.3050(4)
O1B O -0.0211(7) -0.1880(5) 0.3154(4)
O2B O 0.1009(6) -0.1055(5) 0.2958(4)
C13B C 0.0736(8) 0.0132(6) 0.3010(5)
H27B H 0.1232(8) 0.0231(6) 0.3000(5)
H27A H -0.1001(6) -0.1232(8) 0.3000(5)
C15B C 0.3180(8) 0.7279(6) 0.3663(4)
C14B C 0.3006(9) 0.7893(7) 0.3619(4)
O3B O 0.3522(6) 0.8545(5) 0.3503(4)
O4B O 0.2335(6) 0.7732(5) 0.3678(4)
C16B C 0.3895(8) 0.7411(6) 0.3655(5)
C15A C 0.4099(6) 0.6820(8) 0.3663(4)
C14A C 0.4887(6) 0.6994(9) 0.3619(4)
O3A O 0.5023(4) 0.6478(6) 0.3503(4)
O4A O 0.5397(4) 0.7665(6) 0.3678(4)
C16A C 0.3516(6) 0.6105(8) 0.3655(5)
H28A H 0.3626(6) 0.5716(8) 0.3644(5)
H28B H 0.4284(8) 0.7910(6) 0.3644(5)
Cu1A Cu -0.33311(10) -0.16649(14) 0.33314(10)
Cu1B Cu 0.16649(14) -0.16662(10) 0.33314(10)
N1A N -0.2639(6) -0.2619(8) 0.3964(5)
N2A N -0.2994(6) -0.1640(8) 0.4134(4)
H1A H -0.3403(6) -0.1964(8) 0.4338(4)
N3A N -0.3290(5) -0.0689(7) 0.3514(4)
H2A H -0.2856(5) -0.0307(7) 0.3371(4)
N4A N -0.4008(6) -0.0695(8) 0.2692(4)
N5A N -0.3691(5) -0.1687(7) 0.2561(4)
H3A H -0.3280(5) -0.1368(7) 0.2356(4)
N6A N -0.3360(5) -0.2642(8) 0.3149(4)
H4A H -0.3801(5) -0.3022(8) 0.3288(4)
C1A C -0.3248(7) -0.3248(10) 0.4302(5)
H5A H -0.3337(30) -0.3725(41) 0.4162(20)
H6A H -0.3705(13) -0.3226(21) 0.4278(24)
H7A H -0.3091(18) -0.3196(45) 0.4682(8)
C2A C -0.2403(8) -0.1908(11) 0.4153(6)
H8A H -0.1967(8) -0.1558(11) 0.3938(6)
H9A H -0.2238(8) -0.1878(11) 0.4534(6)
C3A C -0.2726(8) -0.0871(11) 0.4333(5)
H10A H -0.2217(8) -0.0537(11) 0.4201(5)
H11A H -0.2720(8) -0.0861(11) 0.4734(5)
C4A C -0.3247(9) -0.0618(12) 0.4118(5)
H12A H -0.3745(9) -0.0926(12) 0.4277(5)
H13A H -0.3063(9) -0.0097(12) 0.4223(5)
C5A C -0.3936(7) -0.0628(10) 0.3282(6)
H14A H -0.4400(7) -0.1019(10) 0.3446(6)
H15A H -0.3877(7) -0.0145(10) 0.3390(6)
C6A C -0.3389(9) -0.0092(12) 0.2397(7)
H16A H -0.3486(23) -0.0158(51) 0.2006(7)
H17A H -0.2932(12) -0.0097(26) 0.2478(27)
H18A H -0.3334(31) 0.0383(41) 0.2509(26)
C7A C -0.4253(8) -0.1469(11) 0.2472(6)
H19A H -0.4719(8) -0.1831(11) 0.2653(6)
H20A H -0.4354(8) -0.1482(11) 0.2079(6)
C8A C -0.3971(8) -0.2464(11) 0.2338(5)
H21A H -0.3990(8) -0.2461(11) 0.1936(5)
H22A H -0.4474(8) -0.2806(11) 0.2476(5)
C9A C -0.3410(8) -0.2720(11) 0.2535(5)
H23A H -0.3590(8) -0.3239(11) 0.2429(5)
H24A H -0.2917(8) -0.2405(11) 0.2369(5)
C10A C -0.2750(8) -0.2743(11) 0.3377(5)
H25A H -0.2859(8) -0.3252(11) 0.3297(5)
H26A H -0.2283(8) -0.2398(11) 0.3190(5)
N1B N 0.2619(8) -0.0020(6) 0.3964(5)
N2B N 0.1640(8) -0.1354(6) 0.4134(4)
H1B H 0.1964(8) -0.1439(6) 0.4338(4)
N3B N 0.0689(7) -0.2601(5) 0.3514(4)
H2B H 0.0307(7) -0.2549(5) 0.3371(4)
N4B N 0.0695(8) -0.3313(6) 0.2692(4)
N5B N 0.1687(7) -0.2004(5) 0.2561(4)
H3B H 0.1368(7) -0.1912(5) 0.2356(4)
N6B N 0.2642(8) -0.0718(6) 0.3149(4)
H4B H 0.3022(8) -0.0779(6) 0.3288(4)
C1B C 0.3248(10) 0.0000(7) 0.4302(5)
H5B H 0.3725(41) 0.0388(28) 0.4162(20)
H6B H 0.3226(21) -0.0479(16) 0.4278(24)
H7B H 0.3196(45) 0.0105(41) 0.4682(8)
C2B C 0.1908(11) -0.0495(8) 0.4153(6)
H8B H 0.1558(11) -0.0409(8) 0.3938(6)
H9B H 0.1878(11) -0.0360(8) 0.4534(6)
C3B C 0.0871(11) -0.1855(7) 0.4333(5)
H10B H 0.0537(11) -0.1680(7) 0.4201(5)
H11B H 0.0861(11) -0.1859(7) 0.4734(5)
C4B C 0.0618(12) -0.2629(8) 0.4118(5)
H12B H 0.0926(12) -0.2819(8) 0.4277(5)
H13B H 0.0097(12) -0.2966(8) 0.4223(5)
C5B C 0.0628(10) -0.3308(7) 0.3282(6)
H14B H 0.1019(10) -0.3381(7) 0.3446(6)
H15B H 0.0145(10) -0.3732(7) 0.3390(6)
C6B C 0.0092(12) -0.3297(8) 0.2397(7)
H16B H 0.0158(51) -0.3328(46) 0.2006(7)
H17B H 0.0097(26) -0.2835(23) 0.2478(27)
H18B H -0.0383(41) -0.3717(27) 0.2509(26)
C7B C 0.1469(11) -0.2784(8) 0.2472(6)
H19B H 0.1831(11) -0.2888(8) 0.2653(6)
H20B H 0.1482(11) -0.2872(8) 0.2079(6)
C8B C 0.2464(11) -0.1507(7) 0.2338(5)
H21B H 0.2461(11) -0.1529(7) 0.1936(5)
H22B H 0.2806(11) -0.1668(7) 0.2476(5)
C9B C 0.2720(11) -0.0690(7) 0.2535(5)
H23B H 0.3239(11) -0.0351(7) 0.2429(5)
H24B H 0.2405(11) -0.0512(7) 0.2369(5)
C10B C 0.2743(11) -0.0007(7) 0.3377(5)
H25B H 0.3252(11) 0.0393(7) 0.3297(5)
H26B H 0.2398(11) 0.0115(7) 0.3190(5)
Cu1B_2 Cu 0.16649(14) 0.83338(10) 0.33314(10)
Cu1A_2 Cu 0.66689(10) 0.83351(14) 0.33314(10)
O4A_2 O -0.4603(4) -0.2335(6) 0.3678(4)
O4B_2 O 0.2335(6) -0.2268(5) 0.3678(4)
C17 C 0.3506(8) 0.1750(5) 0.1122(5)
C18 C 0.2767(14) 0.1647(7) 0.1300(12)
H29 H 0.2413(14) 0.1641(7) 0.1056(12)
C19 C 0.2656(13) 0.1556(8) 0.1885(11)
H30 H 0.2194(13) 0.1494(8) 0.1999(11)
C20 C 0.3091(10) 0.1542(9) 0.2314(19)
H31 H 0.2972(10) 0.1472(9) 0.2688(19)
C21 C 0.3802(12) 0.1664(9) 0.2038(8)
H32 H 0.4162(12) 0.1683(9) 0.2283(8)
C22 C 0.4006(11) 0.1747(7) 0.1528(8)
H33 H 0.4470(11) 0.1803(7) 0.1426(8)
O5 O 0.3639(8) 0.1817(8) 0.0626(4)
H44 H 0.381(10) 0.1544(82) 0.0534(15)
C23 C 0.1325(11) 0.2415(12) 0.1144(8)
C24 C 0.1133(13) 0.2346(11) 0.0606(7)
H34 H 0.1435(13) 0.2737(11) 0.0366(7)
C25 C 0.0574(21) 0.1787(22) 0.0417(9)
H35 H 0.0460(21) 0.1781(22) 0.0043(9)
C26 C 0.0104(17) 0.1162(20) 0.0745(13)
H36 H -0.0289(17) 0.0715(20) 0.0603(13)
C27 C 0.0308(17) 0.1293(16) 0.1371(10)
H37 H -0.0014(17) 0.0942(16) 0.1629(10)
C28 C 0.0895(13) 0.1860(13) 0.1532(9)
H38 H 0.1043(13) 0.1913(13) 0.1900(9)
O6 O 0.1922(9) 0.3087(9) 0.1363(6)
H45 H 0.198(10) 0.3446(19) 0.1175(66)
C29 C -0.0928(10) 0.4425(8) 0.2142(5)
C30 C -0.1475(12) 0.4265(12) 0.1794(7)
H39 H -0.1403(12) 0.4193(12) 0.1424(7)
C31 C -0.2195(14) 0.4195(15) 0.1956(11)
H40 H -0.2607(14) 0.4023(15) 0.1719(11)
C32 C -0.2204(13) 0.4389(14) 0.2447(10)
H41 H -0.2617(13) 0.4437(14) 0.2549(10)
C33 C -0.1672(11) 0.4542(12) 0.2858(9)
H42 H -0.1751(11) 0.4635(12) 0.3221(9)
C34 C -0.1010(13) 0.4548(9) 0.2699(7)
H43 H -0.0637(13) 0.4633(9) 0.2956(7)
O7 O -0.0295(7) 0.4415(7) 0.1954(5)
H46 H 0.0071(24) 0.4702(92) 0.2142(57)
O8 O 0.2210(7) 0.4249(7) 0.0749(5)
O9 O 0.0935(7) 0.5368(7) 0.2592(5)
loop_
_geom_bond_atom_site_label_1
_geom_bond_atom_site_label_2
_geom_bond_site_symmetry_1
_geom_bond_site_symmetry_2
Cu1 N2 1_555 1_555
N1 C1 1_555 1_555
N2 H1 1_555 1_555
N3 Cu1 1_555 1_555
H2 N3 1_555 1_555
N4 C5 1_555 1_555
N5 Cu1 1_555 1_555
H3 N5 1_555 1_555
N6 Cu1 1_555 1_555
H4 N6 1_555 1_555
C1 H5 1_555 1_555
H6 C1 1_555 1_555
H7 C1 1_555 1_555
C2 N1 1_555 1_555
H8 C2 1_555 1_555
H9 C2 1_555 1_555
C3 N2 1_555 1_555
H10 C3 1_555 1_555
H11 C3 1_555 1_555
C4 N3 1_555 1_555
H12 C4 1_555 1_555
H13 C4 1_555 1_555
C5 N3 1_555 1_555
H14 C5 1_555 1_555
H15 C5 1_555 1_555
C6 N4 1_555 1_555
H16 C6 1_555 1_555
H17 C6 1_555 1_555
H18 C6 1_555 1_555
C7 N4 1_555 1_555
H19 C7 1_555 1_555
H20 C7 1_555 1_555
C8 N5 1_555 1_555
H21 C8 1_555 1_555
H22 C8 1_555 1_555
C9 N6 1_555 1_555
H23 C9 1_555 1_555
H24 C9 1_555 1_555
C10 N1 1_555 1_555
H25 C10 1_555 1_555
H26 C10 1_555 1_555
C11 C12 1_555 1_555
C12 C13 1_555 1_555
C13 H27 1_555 1_555
C14 C15 1_555 1_555
C15 C16 1_555 1_555
C16 H28 1_555 1_555
C17 C18 1_555 1_555
C18 H29 1_555 1_555
C19 C18 1_555 1_555
H30 C19 1_555 1_555
C20 C19 1_555 1_555
H31 C20 1_555 1_555
C21 C20 1_555 1_555
H32 C21 1_555 1_555
C22 C17 1_555 1_555
H33 C22 1_555 1_555
C23 C24 1_555 1_555
C24 H34 1_555 1_555
C25 C24 1_555 1_555
H35 C25 1_555 1_555
C26 C25 1_555 1_555
H36 C26 1_555 1_555
C27 C26 1_555 1_555
H37 C27 1_555 1_555
C28 C23 1_555 1_555
H38 C28 1_555 1_555
C29 C30 1_555 1_555
C30 H39 1_555 1_555
C31 C30 1_555 1_555
H40 C31 1_555 1_555
C32 C31 1_555 1_555
H41 C32 1_555 1_555
C33 C32 1_555 1_555
H42 C33 1_555 1_555
C34 C29 1_555 1_555
H43 C34 1_555 1_555
O1 C11 1_555 1_555
O2 Cu1 1_555 1_555
O3 C14 1_555 1_555
O4 Cu1 1_555 1_555
O5 C17 1_555 1_555
H44 O5 1_555 1_555
O6 C23 1_555 1_555
H45 O6 1_555 1_555
O7 C29 1_555 1_555
H46 O7 1_555 1_555
C12A C13 1_555 1_555
C11A C12A 1_555 1_555
O1A C11A 1_555 1_555
O2A C11A 1_555 1_555
C13A C12A 1_555 1_555
C12B C13A 1_555 1_555
C11B C12B 1_555 1_555
O1B C11B 1_555 1_555
O2B C11B 1_555 1_555
C13B C12 1_555 1_555
H27B C13B 1_555 1_555
H27A C13A 1_555 1_555
C15B C16 1_555 1_555
C14B C15B 1_555 1_555
O3B C14B 1_555 1_555
O4B C14B 1_555 1_555
C16B C15B 1_555 1_555
C15A C16B 1_555 1_555
C14A C15A 1_555 1_555
O3A C14A 1_555 1_555
O4A C14A 1_555 1_555
C16A C15 1_555 1_555
H28A C16A 1_555 1_555
H28B C16B 1_555 1_555
Cu1A O2A 1_555 1_555
Cu1B O2B 1_555 1_555
N1A C1A 1_555 1_555
N2A Cu1A 1_555 1_555
H1A N2A 1_555 1_555
N3A Cu1A 1_555 1_555
H2A N3A 1_555 1_555
N4A C5A 1_555 1_555
N5A Cu1A 1_555 1_555
H3A N5A 1_555 1_555
N6A Cu1A 1_555 1_555
H4A N6A 1_555 1_555
C1A H5A 1_555 1_555
H6A C1A 1_555 1_555
H7A C1A 1_555 1_555
C2A N1A 1_555 1_555
H8A C2A 1_555 1_555
H9A C2A 1_555 1_555
C3A N2A 1_555 1_555
H10A C3A 1_555 1_555
H11A C3A 1_555 1_555
C4A N3A 1_555 1_555
H12A C4A 1_555 1_555
H13A C4A 1_555 1_555
C5A N3A 1_555 1_555
H14A C5A 1_555 1_555
H15A C5A 1_555 1_555
C6A N4A 1_555 1_555
H16A C6A 1_555 1_555
H17A C6A 1_555 1_555
H18A C6A 1_555 1_555
C7A N4A 1_555 1_555
H19A C7A 1_555 1_555
H20A C7A 1_555 1_555
C8A N5A 1_555 1_555
H21A C8A 1_555 1_555
H22A C8A 1_555 1_555
C9A N6A 1_555 1_555
H23A C9A 1_555 1_555
H24A C9A 1_555 1_555
C10A N1A 1_555 1_555
H25A C10A 1_555 1_555
H26A C10A 1_555 1_555
N1B C1B 1_555 1_555
N2B Cu1B 1_555 1_555
H1B N2B 1_555 1_555
N3B Cu1B 1_555 1_555
H2B N3B 1_555 1_555
N4B C5B 1_555 1_555
N5B Cu1B 1_555 1_555
H3B N5B 1_555 1_555
N6B Cu1B 1_555 1_555
H4B N6B 1_555 1_555
C1B H5B 1_555 1_555
H6B C1B 1_555 1_555
H7B C1B 1_555 1_555
C2B N1B 1_555 1_555
H8B C2B 1_555 1_555
H9B C2B 1_555 1_555
C3B N2B 1_555 1_555
H10B C3B 1_555 1_555
H11B C3B 1_555 1_555
C4B N3B 1_555 1_555
H12B C4B 1_555 1_555
H13B C4B 1_555 1_555
C5B N3B 1_555 1_555
H14B C5B 1_555 1_555
H15B C5B 1_555 1_555
C6B N4B 1_555 1_555
H16B C6B 1_555 1_555
H17B C6B 1_555 1_555
H18B C6B 1_555 1_555
C7B N4B 1_555 1_555
H19B C7B 1_555 1_555
H20B C7B 1_555 1_555
C8B N5B 1_555 1_555
H21B C8B 1_555 1_555
H22B C8B 1_555 1_555
C9B N6B 1_555 1_555
H23B C9B 1_555 1_555
H24B C9B 1_555 1_555
C10B N1B 1_555 1_555
H25B C10B 1_555 1_555
H26B C10B 1_555 1_555
Cu1B_2 O4B 1_555 1_555
Cu1A_2 O4A 1_555 1_555
O4A_2 Cu1A 1_555 1_555
O4B_2 Cu1B 1_555 1_555
N2 C2 1_555 1_555
N5 C7 1_555 1_555
N6 C10 1_555 1_555
C3 C4 1_555 1_555
C8 C9 1_555 1_555
C11 O2 1_555 1_555
C14 O4 1_555 1_555
C21 C22 1_555 1_555
C27 C28 1_555 1_555
C33 C34 1_555 1_555
C12B C13B 1_555 1_555
C15A C16A 1_555 1_555
N2A C2A 1_555 1_555
N5A C7A 1_555 1_555
N6A C10A 1_555 1_555
C3A C4A 1_555 1_555
C8A C9A 1_555 1_555
N2B C2B 1_555 1_555
N5B C7B 1_555 1_555
N6B C10B 1_555 1_555
C3B C4B 1_555 1_555
C8B C9B 1_555 1_555

#END
