
#######################################################################
#
#                 Cambridge Crystallographic Data Centre
#                                CCDC 
#
#######################################################################
#
# If this CIF has been generated from an entry in the Cambridge 
# Structural Database, then it will include bibliographic, chemical, 
# crystal, experimental, refinement or atomic coordinate data resulting 
# from the CCDC's data processing and validation procedures.
#
#######################################################################

data_MITGAX
_symmetry_cell_setting           trigonal
_symmetry_space_group_name_H-M   'P -3'
_symmetry_Int_Tables_number      147
_space_group_name_Hall           '-P 3'
loop_
_symmetry_equiv_pos_site_id
_symmetry_equiv_pos_as_xyz
1 x,y,z
2 -y,x-y,z
3 -x+y,-x,z
4 -x,-y,-z
5 y,-x+y,-z
6 x-y,x,-z
_cell_length_a                   17.7050(10)
_cell_length_b                   17.7050(10)
_cell_length_c                   6.9400(10)
_cell_angle_alpha                90
_cell_angle_beta                 90
_cell_angle_gamma                120
_cell_volume                     1884
loop_
_atom_site_label
_atom_site_type_symbol
_atom_site_fract_x
_atom_site_fract_y
_atom_site_fract_z
Cu1 Cu 0.5000 0.0000 0.5000
N1 N 0.3000(4) -0.1275(4) 0.6637(10)
N2 N 0.4511(4) -0.0976(4) 0.6961(10)
H1 H 0.4572(4) -0.0729(4) 0.8143(10)
N3 N 0.6081(4) -0.0095(4) 0.5035(8)
H2 H 0.6069(4) -0.0398(4) 0.3964(8)
C1 C 0.2860(7) -0.0967(7) 0.8474(14)
H3 H 0.2468(39) -0.0746(45) 0.8296(25)
H4 H 0.2613(46) -0.1441(13) 0.9377(35)
H5 H 0.3407(9) -0.0511(34) 0.8959(54)
C2 C 0.3565(5) -0.1630(5) 0.6699(13)
H6 H 0.3382(5) -0.2047(5) 0.7748(13)
H7 H 0.3498(5) -0.1946(5) 0.5511(13)
C3 C 0.5084(5) -0.1367(5) 0.6907(12)
H8 H 0.5008(5) -0.1700(5) 0.8073(12)
H9 H 0.4934(5) -0.1757(5) 0.5813(12)
C4 C 0.6016(6) -0.0638(6) 0.6743(12)
H10 H 0.6401(6) -0.0876(6) 0.6582(12)
H11 H 0.6187(6) -0.0285(6) 0.7902(12)
C5 C 0.3084(5) -0.0750(5) 0.5000(11)
H12 H 0.3042(5) -0.1073(5) 0.3839(11)
H13 H 0.2603(5) -0.0635(5) 0.4993(11)
C6 C 0.5314(5) 0.1509(5) 0.8179(11)
C7 C 0.6007(4) 0.2449(4) 0.8244(11)
C8 C 0.6893(4) 0.2689(4) 0.8269(9)
H14 H 0.7043(4) 0.2255(4) 0.8303(9)
O1 O 0.4532(4) 0.1334(4) 0.8176(10)
O2 O 0.5548(4) 0.0954(3) 0.8046(11)
C5C C 0.6916(5) 0.0750(5) 0.5000(11)
N1C N 0.7000(4) 0.1275(4) 0.3363(10)
C1C C 0.7140(7) 0.0967(7) 0.1526(14)
H3C H 0.7532(39) 0.0746(45) 0.1704(25)
H4C H 0.7387(46) 0.1441(13) 0.0623(35)
H5C H 0.6593(9) 0.0511(34) 0.1041(54)
C2C C 0.6435(5) 0.1630(5) 0.3301(13)
N2C N 0.5489(4) 0.0976(4) 0.3039(10)
H1C H 0.5428(4) 0.0729(4) 0.1857(10)
C3C C 0.4916(5) 0.1367(5) 0.3093(12)
H8C H 0.4992(5) 0.1700(5) 0.1927(12)
H9C H 0.5066(5) 0.1757(5) 0.4187(12)
C4C C 0.3984(6) 0.0638(6) 0.3257(12)
N3C N 0.3919(4) 0.0095(4) 0.4965(8)
H2C H 0.3931(4) 0.0398(4) 0.6036(8)
H10C H 0.3599(6) 0.0876(6) 0.3418(12)
H11C H 0.3813(6) 0.0285(6) 0.2098(12)
H6C H 0.6618(5) 0.2047(5) 0.2252(13)
H7C H 0.6502(5) 0.1946(5) 0.4489(13)
H12C H 0.6958(5) 0.1073(5) 0.6161(11)
H13C H 0.7397(5) 0.0635(5) 0.5007(11)
C7A C 0.7551(4) 0.3558(6) 0.8244(11)
C6A C 0.8491(5) 0.3805(7) 0.8179(11)
O1A O 0.8666(4) 0.3198(6) 0.8176(10)
O2A O 0.9046(3) 0.4594(5) 0.8046(11)
C8A C 0.7311(4) 0.4204(6) 0.8269(9)
C7B C 0.6442(6) 0.3993(4) 0.8244(11)
C6B C 0.6195(7) 0.4686(5) 0.8179(11)
O1B O 0.6802(6) 0.5468(4) 0.8176(10)
O2B O 0.5406(5) 0.4452(4) 0.8046(11)
C8B C 0.5796(6) 0.3107(4) 0.8269(9)
H14B H 0.5212(6) 0.2957(4) 0.8303(9)
H14A H 0.7745(4) 0.4788(6) 0.8303(9)
C6C C 0.4686(5) -0.1509(5) 0.1821(11)
C7C C 0.3993(4) -0.2449(4) 0.1756(11)
C8C C 0.3107(4) -0.2689(4) 0.1731(9)
H14C H 0.2957(4) -0.2255(4) 0.1697(9)
O1C O 0.5468(4) -0.1334(4) 0.1824(10)
O2C O 0.4452(4) -0.0954(3) 0.1954(11)
C7D C 0.2449(4) -0.3558(6) 0.1756(11)
C6D C 0.1509(5) -0.3805(7) 0.1821(11)
O1D O 0.1334(4) -0.3198(6) 0.1824(10)
O2D O 0.0954(3) -0.4594(5) 0.1954(11)
C8D C 0.2689(4) -0.4204(6) 0.1731(9)
C7E C 0.3558(6) -0.3993(4) 0.1756(11)
C6E C 0.3805(7) -0.4686(5) 0.1821(11)
O1E O 0.3198(6) -0.5468(4) 0.1824(10)
O2E O 0.4594(5) -0.4452(4) 0.1954(11)
C8E C 0.4204(6) -0.3107(4) 0.1731(9)
H14E H 0.4788(6) -0.2957(4) 0.1697(9)
H14D H 0.2255(4) -0.4788(6) 0.1697(9)
Cu1A Cu 1.0000 0.5000 0.5000
Cu1B Cu 0.5000 0.5000 0.5000
N1A N 1.1275(4) 0.4275(6) 0.6637(10)
N2A N 1.0976(4) 0.5487(6) 0.6961(10)
H1A H 1.0729(4) 0.5301(6) 0.8143(10)
N3A N 1.0095(4) 0.6176(6) 0.5035(8)
H2A H 1.0398(4) 0.6467(6) 0.3964(8)
C1A C 1.0967(7) 0.3827(10) 0.8474(14)
H3A H 1.0746(45) 0.3214(60) 0.8296(25)
H4A H 1.1441(13) 0.4054(48) 0.9377(35)
H5A H 1.0511(34) 0.3918(35) 0.8959(54)
C2A C 1.1630(5) 0.5195(7) 0.6699(13)
H6A H 1.2047(5) 0.5429(7) 0.7748(13)
H7A H 1.1946(5) 0.5444(7) 0.5511(13)
C3A C 1.1367(5) 0.6451(7) 0.6907(12)
H8A H 1.1700(5) 0.6708(7) 0.8073(12)
H9A H 1.1757(5) 0.6691(7) 0.5813(12)
C4A C 1.0638(6) 0.6654(8) 0.6743(12)
H10A H 1.0876(6) 0.7277(8) 0.6582(12)
H11A H 1.0285(6) 0.6472(8) 0.7902(12)
C5A C 1.0750(5) 0.3834(7) 0.5000(11)
H12A H 1.1073(5) 0.4115(7) 0.3839(11)
H13A H 1.0635(5) 0.3238(7) 0.4993(11)
C5D C 0.9250(5) 0.6166(7) 0.5000(11)
N1D N 0.8725(4) 0.5725(6) 0.3363(10)
C1D C 0.9033(7) 0.6173(10) 0.1526(14)
H3D H 0.9254(45) 0.6786(60) 0.1704(25)
H4D H 0.8559(13) 0.5946(48) 0.0623(35)
H5D H 0.9489(34) 0.6082(35) 0.1041(54)
C2D C 0.8370(5) 0.4805(7) 0.3301(13)
N2D N 0.9024(4) 0.4513(6) 0.3039(10)
H1D H 0.9271(4) 0.4699(6) 0.1857(10)
C3D C 0.8633(5) 0.3549(7) 0.3093(12)
H8D H 0.8300(5) 0.3292(7) 0.1927(12)
H9D H 0.8243(5) 0.3309(7) 0.4187(12)
C4D C 0.9362(6) 0.3346(8) 0.3257(12)
N3D N 0.9905(4) 0.3824(6) 0.4965(8)
H2D H 0.9602(4) 0.3533(6) 0.6036(8)
H10D H 0.9124(6) 0.2723(8) 0.3418(12)
H11D H 0.9715(6) 0.3528(8) 0.2098(12)
H6D H 0.7953(5) 0.4571(7) 0.2252(13)
H7D H 0.8054(5) 0.4556(7) 0.4489(13)
H12D H 0.8927(5) 0.5885(7) 0.6161(11)
H13D H 0.9365(5) 0.6762(7) 0.5007(11)
N1B N 0.5725(6) 0.7000(4) 0.6637(10)
N2B N 0.4513(6) 0.5489(4) 0.6961(10)
H1B H 0.4699(6) 0.5428(4) 0.8143(10)
N3B N 0.3824(6) 0.3919(4) 0.5035(8)
H2B H 0.3533(6) 0.3931(4) 0.3964(8)
C1B C 0.6173(10) 0.7140(7) 0.8474(14)
H3B H 0.6786(60) 0.7532(39) 0.8296(25)
H4B H 0.5946(48) 0.7387(46) 0.9377(35)
H5B H 0.6082(35) 0.6593(9) 0.8959(54)
C2B C 0.4805(7) 0.6435(5) 0.6699(13)
H6B H 0.4571(7) 0.6618(5) 0.7748(13)
H7B H 0.4556(7) 0.6502(5) 0.5511(13)
C3B C 0.3549(7) 0.4916(5) 0.6907(12)
H8B H 0.3292(7) 0.4992(5) 0.8073(12)
H9B H 0.3309(7) 0.5066(5) 0.5813(12)
C4B C 0.3346(8) 0.3984(6) 0.6743(12)
H10B H 0.2723(8) 0.3599(6) 0.6582(12)
H11B H 0.3528(8) 0.3813(6) 0.7902(12)
C5B C 0.6166(7) 0.6916(5) 0.5000(11)
H12B H 0.5885(7) 0.6958(5) 0.3839(11)
H13B H 0.6762(7) 0.7397(5) 0.4993(11)
C5E C 0.3834(7) 0.3084(5) 0.5000(11)
N1E N 0.4275(6) 0.3000(4) 0.3363(10)
C1E C 0.3827(10) 0.2860(7) 0.1526(14)
H3E H 0.3214(60) 0.2468(39) 0.1704(25)
H4E H 0.4054(48) 0.2613(46) 0.0623(35)
H5E H 0.3918(35) 0.3407(9) 0.1041(54)
C2E C 0.5195(7) 0.3565(5) 0.3301(13)
N2E N 0.5487(6) 0.4511(4) 0.3039(10)
H1E H 0.5301(6) 0.4572(4) 0.1857(10)
C3E C 0.6451(7) 0.5084(5) 0.3093(12)
H8E H 0.6708(7) 0.5008(5) 0.1927(12)
H9E H 0.6691(7) 0.4934(5) 0.4187(12)
C4E C 0.6654(8) 0.6016(6) 0.3257(12)
N3E N 0.6176(6) 0.6081(4) 0.4965(8)
H2E H 0.6467(6) 0.6069(4) 0.6036(8)
H10E H 0.7277(8) 0.6401(6) 0.3418(12)
H11E H 0.6472(8) 0.6187(6) 0.2098(12)
H6E H 0.5429(7) 0.3382(5) 0.2252(13)
H7E H 0.5444(7) 0.3498(5) 0.4489(13)
H12E H 0.4115(7) 0.3042(5) 0.6161(11)
H13E H 0.3238(7) 0.2603(5) 0.5007(11)
Cu1A_2 Cu 0.0000 -0.5000 0.5000
Cu1B_2 Cu 0.5000 -0.5000 0.5000
O2D_2 O 1.0954(3) 0.5406(5) 0.1954(11)
O2E_2 O 0.4594(5) 0.5548(4) 0.1954(11)
O3 O 0.0674(4) -0.1110(4) 0.5280(11)
O4 O 0.0572(5) -0.1152(6) 0.9421(12)
O5 O 0.1212(6) -0.1743(5) 0.2380(11)
loop_
_geom_bond_atom_site_label_1
_geom_bond_atom_site_label_2
_geom_bond_site_symmetry_1
_geom_bond_site_symmetry_2
Cu1 N2 1_555 1_555
N1 C1 1_555 1_555
N2 H1 1_555 1_555
N3 Cu1 1_555 1_555
H2 N3 1_555 1_555
C1 H3 1_555 1_555
H4 C1 1_555 1_555
H5 C1 1_555 1_555
C2 N1 1_555 1_555
H6 C2 1_555 1_555
H7 C2 1_555 1_555
C3 N2 1_555 1_555
H8 C3 1_555 1_555
H9 C3 1_555 1_555
C4 N3 1_555 1_555
H10 C4 1_555 1_555
H11 C4 1_555 1_555
C5 N1 1_555 1_555
H12 C5 1_555 1_555
H13 C5 1_555 1_555
C6 C7 1_555 1_555
C7 C8 1_555 1_555
C8 H14 1_555 1_555
O1 C6 1_555 1_555
O2 Cu1 1_555 1_555
C5C N3 1_555 1_555
N1C C5C 1_555 1_555
C1C N1C 1_555 1_555
H3C C1C 1_555 1_555
H4C C1C 1_555 1_555
H5C C1C 1_555 1_555
C2C N1C 1_555 1_555
N2C Cu1 1_555 1_555
H1C N2C 1_555 1_555
C3C N2C 1_555 1_555
H8C C3C 1_555 1_555
H9C C3C 1_555 1_555
C4C C3C 1_555 1_555
N3C Cu1 1_555 1_555
H2C N3C 1_555 1_555
H10C C4C 1_555 1_555
H11C C4C 1_555 1_555
H6C C2C 1_555 1_555
H7C C2C 1_555 1_555
H12C C5C 1_555 1_555
H13C C5C 1_555 1_555
C7A C8 1_555 1_555
C6A C7A 1_555 1_555
O1A C6A 1_555 1_555
O2A C6A 1_555 1_555
C8A C7A 1_555 1_555
C7B C8A 1_555 1_555
C6B C7B 1_555 1_555
O1B C6B 1_555 1_555
O2B C6B 1_555 1_555
C8B C7 1_555 1_555
H14B C8B 1_555 1_555
H14A C8A 1_555 1_555
C6C C7C 1_555 1_555
C7C C8C 1_555 1_555
C8C H14C 1_555 1_555
O1C C6C 1_555 1_555
O2C Cu1 1_555 1_555
C7D C8C 1_555 1_555
C6D C7D 1_555 1_555
O1D C6D 1_555 1_555
O2D C6D 1_555 1_555
C8D C7D 1_555 1_555
C7E C8D 1_555 1_555
C6E C7E 1_555 1_555
O1E C6E 1_555 1_555
O2E C6E 1_555 1_555
C8E C7C 1_555 1_555
H14E C8E 1_555 1_555
H14D C8D 1_555 1_555
Cu1A O2A 1_555 1_555
Cu1B O2B 1_555 1_555
N1A C1A 1_555 1_555
N2A Cu1A 1_555 1_555
H1A N2A 1_555 1_555
N3A Cu1A 1_555 1_555
H2A N3A 1_555 1_555
C1A H3A 1_555 1_555
H4A C1A 1_555 1_555
H5A C1A 1_555 1_555
C2A N1A 1_555 1_555
H6A C2A 1_555 1_555
H7A C2A 1_555 1_555
C3A N2A 1_555 1_555
H8A C3A 1_555 1_555
H9A C3A 1_555 1_555
C4A N3A 1_555 1_555
H10A C4A 1_555 1_555
H11A C4A 1_555 1_555
C5A N1A 1_555 1_555
H12A C5A 1_555 1_555
H13A C5A 1_555 1_555
C5D N3A 1_555 1_555
N1D C5D 1_555 1_555
C1D N1D 1_555 1_555
H3D C1D 1_555 1_555
H4D C1D 1_555 1_555
H5D C1D 1_555 1_555
C2D N1D 1_555 1_555
N2D Cu1A 1_555 1_555
H1D N2D 1_555 1_555
C3D N2D 1_555 1_555
H8D C3D 1_555 1_555
H9D C3D 1_555 1_555
C4D C3D 1_555 1_555
N3D Cu1A 1_555 1_555
H2D N3D 1_555 1_555
H10D C4D 1_555 1_555
H11D C4D 1_555 1_555
H6D C2D 1_555 1_555
H7D C2D 1_555 1_555
H12D C5D 1_555 1_555
H13D C5D 1_555 1_555
N1B C1B 1_555 1_555
N2B Cu1B 1_555 1_555
H1B N2B 1_555 1_555
N3B Cu1B 1_555 1_555
H2B N3B 1_555 1_555
C1B H3B 1_555 1_555
H4B C1B 1_555 1_555
H5B C1B 1_555 1_555
C2B N1B 1_555 1_555
H6B C2B 1_555 1_555
H7B C2B 1_555 1_555
C3B N2B 1_555 1_555
H8B C3B 1_555 1_555
H9B C3B 1_555 1_555
C4B N3B 1_555 1_555
H10B C4B 1_555 1_555
H11B C4B 1_555 1_555
C5B N1B 1_555 1_555
H12B C5B 1_555 1_555
H13B C5B 1_555 1_555
C5E N3B 1_555 1_555
N1E C5E 1_555 1_555
C1E N1E 1_555 1_555
H3E C1E 1_555 1_555
H4E C1E 1_555 1_555
H5E C1E 1_555 1_555
C2E N1E 1_555 1_555
N2E Cu1B 1_555 1_555
H1E N2E 1_555 1_555
C3E N2E 1_555 1_555
H8E C3E 1_555 1_555
H9E C3E 1_555 1_555
C4E C3E 1_555 1_555
N3E Cu1B 1_555 1_555
H2E N3E 1_555 1_555
H10E C4E 1_555 1_555
H11E C4E 1_555 1_555
H6E C2E 1_555 1_555
H7E C2E 1_555 1_555
H12E C5E 1_555 1_555
H13E C5E 1_555 1_555
Cu1A_2 O2D 1_555 1_555
Cu1B_2 O2E 1_555 1_555
O2D_2 Cu1A 1_555 1_555
O2E_2 Cu1B 1_555 1_555
N2 C2 1_555 1_555
C3 C4 1_555 1_555
C5 N3C 1_555 1_555
C6 O2 1_555 1_555
C2C N2C 1_555 1_555
C4C N3C 1_555 1_555
C7B C8B 1_555 1_555
C6C O2C 1_555 1_555
C7E C8E 1_555 1_555
N2A C2A 1_555 1_555
C3A C4A 1_555 1_555
C5A N3D 1_555 1_555
C2D N2D 1_555 1_555
C4D N3D 1_555 1_555
N2B C2B 1_555 1_555
C3B C4B 1_555 1_555
C5B N3E 1_555 1_555
C2E N2E 1_555 1_555
C4E N3E 1_555 1_555

#END
