
#######################################################################
#
#                 Cambridge Crystallographic Data Centre
#                                CCDC 
#
#######################################################################
#
# If this CIF has been generated from an entry in the Cambridge 
# Structural Database, then it will include bibliographic, chemical, 
# crystal, experimental, refinement or atomic coordinate data resulting 
# from the CCDC's data processing and validation procedures.
#
#######################################################################

data_MITGUR01
_symmetry_cell_setting           monoclinic
_symmetry_space_group_name_H-M   'P 21/n'
_symmetry_Int_Tables_number      14
_space_group_name_Hall           '-P 2yn'
loop_
_symmetry_equiv_pos_site_id
_symmetry_equiv_pos_as_xyz
1 x,y,z
2 1/2-x,1/2+y,1/2-z
3 -x,-y,-z
4 1/2+x,1/2-y,1/2+z
_cell_length_a                   10.723(4)
_cell_length_b                   7.168(3)
_cell_length_c                   17.155(6)
_cell_angle_alpha                90
_cell_angle_beta                 97.079(4)
_cell_angle_gamma                90
_cell_volume                     1308.52
loop_
_atom_site_label
_atom_site_type_symbol
_atom_site_fract_x
_atom_site_fract_y
_atom_site_fract_z
Tb1 Tb 0.324284(11) 0.520259(15) 0.253265(7)
O1 O 0.4152(2) 0.4220(3) 0.38645(12)
O2 O 0.35560(17) 0.1899(2) 0.30794(11)
O3 O 0.29689(17) -0.1913(2) 0.32936(11)
O4 O 0.49367(18) -0.2536(3) 0.31527(12)
O5 O 0.1548(2) 0.4692(3) 0.32315(13)
O6 O 0.11223(19) 0.1787(3) 0.35660(12)
O7 O -0.1532(2) 0.1811(3) 0.35008(13)
O8 O -0.1488(3) 0.0460(3) 0.46748(15)
O9 O 0.5080(2) 0.3841(3) 0.21749(16)
C1 C 0.4044(2) 0.2525(3) 0.37404(15)
C2 C 0.4520(3) 0.1174(4) 0.43832(16)
C3 C 0.4580(3) -0.0739(4) 0.42698(16)
C4 C 0.4158(3) -0.1733(3) 0.35113(15)
C5 C 0.4944(3) 0.1908(4) 0.51189(16)
C6 C 0.1084(2) 0.3527(4) 0.36509(15)
C7 C -0.0537(3) 0.3409(4) 0.46323(17)
C8 C -0.1219(3) 0.1801(4) 0.42073(18)
C9 C 0.0986(3) 0.5898(4) 0.47037(18)
C10 C 0.0472(3) 0.4285(4) 0.43327(16)
H1 H 0.485(4) 0.330(6) 0.523(2)
H2 H 0.168(3) 0.656(5) 0.449(2)
H3 H -0.194(4) -0.037(5) 0.438(3)
H4 H 0.544(3) 0.278(3) 0.233(2)
H5 H 0.569(3) 0.449(5) 0.200(3)
Tb1A Tb 0.175716(11) 0.020259(15) 0.246735(7)
Tb1_2 Tb 0.324284(11) -0.479741(15) 0.253265(7)
Tb1B Tb 0.675716(11) -0.520259(15) 0.746735(7)
Tb1C Tb 0.824284(11) -0.020259(15) 0.753265(7)
Tb1B_2 Tb 0.675716(11) 0.479741(15) 0.746735(7)
Tb1B_3 Tb -0.324284(11) 0.479741(15) 0.746735(7)
Tb1C_2 Tb -0.175716(11) 0.979741(15) 0.753265(7)
O1B O 0.5848(2) -0.4220(3) 0.61355(12)
O2A O 0.14440(17) 0.6899(2) 0.19206(11)
O2B O 0.64440(17) -0.1899(2) 0.69206(11)
O2C O 0.85560(17) -0.6899(2) 0.80794(11)
O3A O 0.20311(17) 0.3087(2) 0.17064(11)
O3_2 O 0.29689(17) 0.8087(2) 0.32936(11)
O3C O 0.79689(17) -0.3087(2) 0.82936(11)
O3B O 0.70311(17) -0.8087(2) 0.67064(11)
O3B_2 O 0.70311(17) 0.1913(2) 0.67064(11)
O4_2 O 0.49367(18) 0.7464(3) 0.31527(12)
O4B O 0.50633(18) -0.7464(3) 0.68473(12)
O4B_2 O 0.50633(18) 0.2536(3) 0.68473(12)
O5B O 0.8452(2) -0.4692(3) 0.67685(13)
O5B_2 O -0.1548(2) 0.5308(3) 0.67685(13)
O6C O 0.61223(19) -0.6787(3) 0.85660(12)
O6A O 0.38777(19) 0.6787(3) 0.14340(12)
O6B O -0.11223(19) 0.8213(3) 0.64340(12)
O7B O 0.1532(2) 0.8189(3) 0.64992(13)
O8B O 0.1488(3) 0.9540(3) 0.53252(15)
O9B O 0.4920(2) -0.3841(3) 0.78251(16)
C1B C 0.5956(2) -0.2525(3) 0.62596(15)
C2B C 0.5480(3) -0.1174(4) 0.56168(16)
C3B C 0.5420(3) 0.0739(4) 0.57302(16)
C4B C 0.5842(3) 0.1733(3) 0.64887(15)
C5B C 0.5056(3) -0.1908(4) 0.48811(16)
C6B C -0.1084(2) 0.6473(4) 0.63491(15)
C7B C 0.0537(3) 0.6591(4) 0.53677(17)
C8B C 0.1219(3) 0.8199(4) 0.57927(18)
C9B C -0.0986(3) 0.4102(4) 0.52963(18)
C10B C -0.0472(3) 0.5715(4) 0.56673(16)
H1B H 0.515(4) -0.330(6) 0.477(2)
H2B H -0.168(3) 0.344(5) 0.551(2)
H3B H 0.194(4) 1.037(5) 0.562(3)
H4B H 0.456(3) -0.278(3) 0.767(2)
H5B H 0.431(3) -0.449(5) 0.800(3)
O10 O 0.7527(3) 0.2599(4) 0.1134(2)
H6 H 0.718(3) 0.163(3) 0.133(2)
H7 H 0.829(2) 0.266(6) 0.139(3)
O11 O 0.8493(3) 0.5616(4) 0.2668(2)
H8 H 0.922(3) 0.509(7) 0.262(4)
H9 H 0.831(8) 0.634(15) 0.226(5)
loop_
_geom_bond_atom_site_label_1
_geom_bond_atom_site_label_2
_geom_bond_site_symmetry_1
_geom_bond_site_symmetry_2
Tb1 O1 1_555 1_555
O1 C1 1_555 1_555
O2 Tb1 1_555 1_555
O3 C4 1_555 1_555
O4 C4 1_555 1_555
O5 Tb1 1_555 1_555
O6 C6 1_555 1_555
O7 C8 1_555 1_555
O8 C8 1_555 1_555
O9 Tb1 1_555 1_555
O10 H6 1_555 1_555
O11 H8 1_555 1_555
C1 O2 1_555 1_555
C2 C1 1_555 1_555
C3 C2 1_555 1_555
C4 C3 1_555 1_555
C5 C2 1_555 1_555
C6 O5 1_555 1_555
C7 C8 1_555 1_555
C9 C10 1_555 1_555
C10 C6 1_555 1_555
H1 C5 1_555 1_555
H2 C9 1_555 1_555
H3 O8 1_555 1_555
H4 O9 1_555 1_555
H5 O9 1_555 1_555
H7 O10 1_555 1_555
H9 O11 1_555 1_555
Tb1A O2 1_555 1_555
Tb1_2 O3 1_555 1_555
Tb1B O1B 1_555 1_555
Tb1C O2B 1_555 1_555
Tb1B_2 O3B_2 1_555 1_555
Tb1B_3 O5B_2 1_555 1_555
Tb1C_2 O6B 1_555 1_555
O1B C1B 1_555 1_555
O2A Tb1 1_555 1_555
O2B Tb1B 1_555 1_555
O2C Tb1B 1_555 1_555
O3A Tb1 1_555 1_555
O3_2 Tb1 1_555 1_555
O3C Tb1B 1_555 1_555
O3B Tb1B 1_555 1_555
O3B_2 Tb1C 1_555 1_555
O4_2 Tb1 1_555 1_555
O4B Tb1B 1_555 1_555
O4B_2 Tb1B_2 1_555 1_555
O5B Tb1B 1_555 1_555
O5B_2 C6B 1_555 1_555
O6C Tb1B 1_555 1_555
O6A Tb1 1_555 1_555
O6B C6B 1_555 1_555
O7B C8B 1_555 1_555
O8B C8B 1_555 1_555
O9B Tb1B 1_555 1_555
C1B O2B 1_555 1_555
C2B C1B 1_555 1_555
C3B C5 1_555 1_555
C4B O3B_2 1_555 1_555
C5B C3 1_555 1_555
C6B C10B 1_555 1_555
C7B C9 1_555 1_555
C8B C7B 1_555 1_555
C9B C7 1_555 1_555
C10B C7B 1_555 1_555
H1B C5B 1_555 1_555
H2B C9B 1_555 1_555
H3B O8B 1_555 1_555
H4B O9B 1_555 1_555
H5B O9B 1_555 1_555
O3 Tb1A 1_555 1_555
O4 Tb1_2 1_555 1_555
O6 Tb1A 1_555 1_555
C7 C10 1_555 1_555
Tb1A O3A 1_555 1_555
Tb1C O3C 1_555 1_555
O4B_2 C4B 1_555 1_555
C2B C3B 1_555 1_555
C2B C5B 1_555 1_555
C3B C4B 1_555 1_555
C9B C10B 1_555 1_555

#END
