
#######################################################################
#
#                 Cambridge Crystallographic Data Centre
#                                CCDC 
#
#######################################################################
#
# If this CIF has been generated from an entry in the Cambridge 
# Structural Database, then it will include bibliographic, chemical, 
# crystal, experimental, refinement or atomic coordinate data resulting 
# from the CCDC's data processing and validation procedures.
#
#######################################################################

data_MITGOL
_symmetry_cell_setting           triclinic
_symmetry_space_group_name_H-M   'P -1'
_symmetry_Int_Tables_number      2
_space_group_name_Hall           '-P 1'
loop_
_symmetry_equiv_pos_site_id
_symmetry_equiv_pos_as_xyz
1 x,y,z
2 -x,-y,-z
_cell_length_a                   9.6739(5)
_cell_length_b                   11.0039(5)
_cell_length_c                   11.5523(6)
_cell_angle_alpha                104.8330(10)
_cell_angle_beta                 91.0000(10)
_cell_angle_gamma                114.2570(10)
_cell_volume                     1073.27
loop_
_atom_site_label
_atom_site_type_symbol
_atom_site_fract_x
_atom_site_fract_y
_atom_site_fract_z
Er1 Er 0.50773(3) 1.00724(3) 0.74647(3)
Er2 Er 0.48314(3) 0.57553(3) 0.67001(3)
O2 O 0.2828(5) 0.8612(5) 0.6015(5)
O3 O 0.4790(7) 1.1693(6) 0.6692(5)
O5 O 0.3944(5) 0.7490(5) 0.6668(4)
O6 O 0.6078(7) 1.2171(6) 0.9110(5)
O8 O 0.4012(5) 0.5533(5) 0.4664(4)
O9 O 0.2741(6) 0.5539(6) 0.7834(5)
O11 O 0.2578(6) 0.4416(6) 0.2903(5)
O12 O 0.4846(7) 0.4318(6) 0.8016(5)
O13 O 0.6287(6) 0.9498(5) 0.8735(5)
O14 O 0.6164(5) 0.7388(5) 0.8506(5)
O15 O 0.6812(6) 1.0290(6) 1.1401(5)
O16 O 0.8168(7) 1.2363(6) 1.1132(6)
O17 O 0.7046(6) 0.6465(5) 0.4124(5)
O18 O 0.6863(5) 0.7418(5) 0.6053(4)
O19 O 0.6123(5) 0.9519(5) 0.5680(5)
O20 O 0.7764(6) 1.1203(6) 0.7170(5)
C1 C 0.2825(8) 0.7498(7) 0.6069(6)
C2 C 0.1408(8) 0.6177(7) 0.5499(6)
C3 C 0.0047(8) 0.6097(7) 0.5928(6)
H1 H 0.0070 0.6835 0.6553
C4 C 0.1344(8) 0.5052(7) 0.4547(6)
C5 C 0.2719(7) 0.5018(7) 0.3991(6)
C6 C 0.6859(8) 0.8707(7) 0.8882(6)
C7 C 0.8471(8) 0.9356(7) 0.9491(6)
C8 C 0.9466(8) 0.8792(7) 0.9047(6)
H2 H 0.9102 0.7978 0.8407
C9 C 0.9011(8) 1.0584(7) 1.0460(6)
C10 C 0.7904(8) 1.1129(8) 1.1028(7)
C11 C 0.7415(7) 0.7464(7) 0.5089(6)
C12 C 0.8734(8) 0.8807(7) 0.5036(6)
C13 C 0.9923(8) 0.8699(7) 0.4459(7)
H3 H 0.9874 0.7822 0.4090
C14 C 0.8797(8) 1.0120(7) 0.5583(6)
C15 C 0.7504(8) 1.0299(7) 0.6176(7)
C4A C -0.1344(8) 0.4948(7) 0.5453(6)
C2A C -0.1408(8) 0.3823(7) 0.4501(6)
C1A C -0.2825(8) 0.2502(7) 0.3931(6)
O2A O -0.2828(5) 0.1388(5) 0.3985(5)
O5A O -0.3944(5) 0.2510(5) 0.3332(4)
C3A C -0.0047(8) 0.3903(7) 0.4072(6)
H1A H -0.0070 0.3165 0.3447
C5A C -0.2719(7) 0.4982(7) 0.6009(6)
O8A O -0.4012(5) 0.4467(5) 0.5336(4)
O11A O -0.2578(6) 0.5584(6) 0.7097(5)
C9A C 1.0989(8) 0.9416(7) 0.9540(6)
C7A C 1.1529(8) 1.0644(7) 1.0509(6)
C6A C 1.3141(8) 1.1293(7) 1.1118(6)
O13A O 1.3713(6) 1.0502(5) 1.1265(5)
O14A O 1.3836(5) 1.2612(5) 1.1494(5)
C8A C 1.0534(8) 1.1208(7) 1.0953(6)
H2A H 1.0898 1.2022 1.1593
C10A C 1.2096(8) 0.8871(8) 0.8972(7)
O15A O 1.3188(6) 0.9710(6) 0.8599(5)
O16A O 1.1832(7) 0.7637(6) 0.8868(6)
C14A C 1.1203(8) 0.9880(7) 0.4417(6)
C12A C 1.1266(8) 1.1193(7) 0.4964(6)
C11A C 1.2585(7) 1.2536(7) 0.4911(6)
O17A O 1.2954(6) 1.3535(5) 0.5876(5)
O18A O 1.3137(5) 1.2582(5) 0.3947(4)
C13A C 1.0077(8) 1.1301(7) 0.5541(7)
H3A H 1.0126 1.2178 0.5910
C15A C 1.2496(8) 0.9701(7) 0.3824(7)
O19A O 1.3877(5) 1.0481(5) 0.4320(5)
O20A O 1.2236(6) 0.8797(6) 0.2830(5)
Er1A Er -0.50773(3) -0.00724(3) 0.25353(3)
Er2A Er -0.48314(3) 0.42447(3) 0.32999(3)
O3A O -0.4790(7) -0.1693(6) 0.3308(5)
O6A O -0.6078(7) -0.2171(6) 0.0890(5)
O9A O -0.2741(6) 0.4461(6) 0.2166(5)
O12A O -0.4846(7) 0.5682(6) 0.1984(5)
O15A_2 O 0.3188(6) 0.9710(6) 0.8599(5)
O8A_2 O 0.5988(5) 0.4467(5) 0.5336(4)
O11A_2 O 0.7422(6) 0.5584(6) 0.7097(5)
O17A_2 O 0.2954(6) 0.3535(5) 0.5876(5)
Er2A_2 Er 0.51686(3) 0.42447(3) 0.32999(3)
Er1A_2 Er 0.49227(3) 0.99276(3) 1.25353(3)
Er2_2 Er -0.51686(3) 0.57553(3) 0.67001(3)
Er1A_3 Er 1.49227(3) 0.99276(3) 1.25353(3)
Er2A_3 Er 1.51686(3) 1.42447(3) 1.32999(3)
Er1_2 Er 1.50773(3) 1.00724(3) 0.74647(3)
Er2_3 Er 1.48314(3) 1.57553(3) 0.67001(3)
Er2A_4 Er 1.51686(3) 1.42447(3) 0.32999(3)
Er1A_4 Er 1.49227(3) 0.99276(3) 0.25353(3)
O13A_2 O -0.6287(6) 0.0502(5) 0.1265(5)
O15_2 O -0.3188(6) 0.0290(6) 0.1401(5)
O19A_2 O -0.6123(5) 0.0481(5) 0.4320(5)
O20A_2 O -0.7764(6) -0.1203(6) 0.2830(5)
O8_2 O -0.5988(5) 0.5533(5) 0.4664(4)
O11_2 O -0.7422(6) 0.4416(6) 0.2903(5)
O14A_2 O -0.6164(5) 0.2612(5) 0.1494(5)
O17_2 O -0.2954(6) 0.6465(5) 0.4124(5)
O18A_2 O -0.6863(5) 0.2582(5) 0.3947(4)
O1 O 0.0375(11) 0.3434(10) 0.8498(9)
O4 O 0.3136(16) 0.3908(15) 0.9851(13)
O7 O 0.149(3) 0.505(2) 1.1018(15)
O10 O 0.235(5) 0.213(3) 0.843(3)
loop_
_geom_bond_atom_site_label_1
_geom_bond_atom_site_label_2
_geom_bond_site_symmetry_1
_geom_bond_site_symmetry_2
Er1 O2 1_555 1_555
Er2 O5 1_555 1_555
O2 C1 1_555 1_555
O3 Er1 1_555 1_555
O5 Er1 1_555 1_555
O6 Er1 1_555 1_555
O8 Er2 1_555 1_555
O9 Er2 1_555 1_555
O11 C5 1_555 1_555
O12 Er2 1_555 1_555
O13 Er1 1_555 1_555
O14 Er2 1_555 1_555
O15 C10 1_555 1_555
O16 C10 1_555 1_555
O17 C11 1_555 1_555
O18 Er2 1_555 1_555
O19 Er1 1_555 1_555
O20 Er1 1_555 1_555
C1 O5 1_555 1_555
C2 C1 1_555 1_555
C3 C2 1_555 1_555
H1 C3 1_555 1_555
C4 C2 1_555 1_555
C5 O8 1_555 1_555
C6 O13 1_555 1_555
C7 C6 1_555 1_555
C8 C7 1_555 1_555
H2 C8 1_555 1_555
C9 C7 1_555 1_555
C10 C9 1_555 1_555
C11 O18 1_555 1_555
C12 C11 1_555 1_555
C13 C12 1_555 1_555
H3 C13 1_555 1_555
C14 C12 1_555 1_555
C15 O19 1_555 1_555
C4A C3 1_555 1_555
C2A C4A 1_555 1_555
C1A C2A 1_555 1_555
O2A C1A 1_555 1_555
O5A C1A 1_555 1_555
C3A C4 1_555 1_555
H1A C3A 1_555 1_555
C5A C4A 1_555 1_555
O8A C5A 1_555 1_555
O11A C5A 1_555 1_555
C9A C8 1_555 1_555
C7A C9A 1_555 1_555
C6A C7A 1_555 1_555
O13A C6A 1_555 1_555
O14A C6A 1_555 1_555
C8A C9 1_555 1_555
H2A C8A 1_555 1_555
C10A C9A 1_555 1_555
O15A C10A 1_555 1_555
O16A C10A 1_555 1_555
C14A C13 1_555 1_555
C12A C14A 1_555 1_555
C11A C12A 1_555 1_555
O17A C11A 1_555 1_555
O18A C11A 1_555 1_555
C13A C14 1_555 1_555
H3A C13A 1_555 1_555
C15A C14A 1_555 1_555
O19A C15A 1_555 1_555
O20A C15A 1_555 1_555
Er1A O2A 1_555 1_555
Er2A O5A 1_555 1_555
O3A Er1A 1_555 1_555
O6A Er1A 1_555 1_555
O9A Er2A 1_555 1_555
O12A Er2A 1_555 1_555
O15A_2 Er1 1_555 1_555
O8A_2 Er2 1_555 1_555
O11A_2 Er2 1_555 1_555
O17A_2 Er2 1_555 1_555
Er2A_2 O8 1_555 1_555
Er1A_2 O15 1_555 1_555
Er2_2 O8A 1_555 1_555
Er1A_3 O13A 1_555 1_555
Er2A_3 O14A 1_555 1_555
Er1_2 O15A 1_555 1_555
Er2_3 O17A 1_555 1_555
Er2A_4 O18A 1_555 1_555
Er1A_4 O19A 1_555 1_555
O13A_2 Er1A 1_555 1_555
O15_2 Er1A 1_555 1_555
O19A_2 Er1A 1_555 1_555
O20A_2 Er1A 1_555 1_555
O8_2 Er2A 1_555 1_555
O11_2 Er2A 1_555 1_555
O14A_2 Er2A 1_555 1_555
O17_2 Er2A 1_555 1_555
O18A_2 Er2A 1_555 1_555
O11 Er2A_2 1_555 1_555
O14 C6 1_555 1_555
O17 Er2A_2 1_555 1_555
O20 C15 1_555 1_555
C4 C5 1_555 1_555
C14 C15 1_555 1_555
C2A C3A 1_555 1_555
O5A Er1A 1_555 1_555
O8A Er2A 1_555 1_555
O11A Er2_2 1_555 1_555
C7A C8A 1_555 1_555
C12A C13A 1_555 1_555
O20A Er1A_4 1_555 1_555
O8A_2 Er2A_2 1_555 1_555
Er2_2 O8_2 1_555 1_555

#END
