
#######################################################################
#
#                 Cambridge Crystallographic Data Centre
#                                CCDC 
#
#######################################################################
#
# If this CIF has been generated from an entry in the Cambridge 
# Structural Database, then it will include bibliographic, chemical, 
# crystal, experimental, refinement or atomic coordinate data resulting 
# from the CCDC's data processing and validation procedures.
#
#######################################################################

data_MITHON
_symmetry_cell_setting           triclinic
_symmetry_space_group_name_H-M   'P -1'
_symmetry_Int_Tables_number      2
_space_group_name_Hall           '-P 1'
loop_
_symmetry_equiv_pos_site_id
_symmetry_equiv_pos_as_xyz
1 x,y,z
2 -x,-y,-z
_cell_length_a                   9.7001(3)
_cell_length_b                   17.1346(5)
_cell_length_c                   24.9317(8)
_cell_angle_alpha                86.6580(10)
_cell_angle_beta                 79.721(2)
_cell_angle_gamma                73.9430(10)
_cell_volume                     3918.08
loop_
_atom_site_label
_atom_site_type_symbol
_atom_site_fract_x
_atom_site_fract_y
_atom_site_fract_z
Cu1 Cu 0.32477(6) 0.13325(3) 1.00174(2)
Cu2 Cu 1.54982(7) 0.13475(4) 1.46614(2)
Cu3 Cu 0.70814(8) 0.40487(4) 1.27515(2)
Cl1 Cl 0.64680(14) 0.28598(7) 1.28612(5)
N1 N 0.2672(4) 0.1410(2) 0.92786(15)
N2 N 0.2945(4) 0.0220(2) 1.01159(15)
N3 N 0.3679(4) 0.1281(2) 1.07775(15)
N4 N 0.3577(5) 0.2437(2) 0.99159(16)
N5 N 0.5976(5) 0.3949(2) 1.17475(16)
N6 N 0.2867(5) 0.4357(2) 0.76376(17)
N7 N 1.4201(5) 0.2451(3) 1.45383(16)
N8 N 1.5190(4) 0.0957(3) 1.39588(16)
N9 N 1.6754(5) 0.0230(3) 1.47965(16)
N10 N 1.5963(5) 0.1759(3) 1.53293(17)
N11 N 1.0468(5) 0.3228(3) 1.26011(18)
N12 N 1.2899(6) 0.5372(3) 1.62051(18)
O1 O 0.6539(4) 0.4383(2) 1.20361(15)
O2 O 0.2846(5) 0.4830(2) 0.71873(15)
O3 O 0.9475(4) 0.3571(3) 1.22948(16)
O4 O 1.2396(6) 0.6064(2) 1.65096(15)
C1 C 0.2554(5) 0.2066(3) 0.89258(18)
C2 C 0.1969(6) 0.1915(3) 0.84627(19)
H1 H 0.1788 0.2271 0.8161
C3 C 0.1726(5) 0.1177(3) 0.85352(19)
H2 H 0.1322 0.0920 0.8299
C4 C 0.2197(5) 0.0850(3) 0.90422(18)
C5 C 0.2213(5) 0.0066(3) 0.92372(18)
C6 C 0.2644(5) -0.0228(3) 0.97357(18)
C7 C 0.2763(6) -0.1048(3) 0.9934(2)
H3 H 0.2642 -0.1483 0.9744
C8 C 0.3076(6) -0.1077(3) 1.0439(2)
H4 H 0.3219 -0.1540 1.0673
C9 C 0.3157(5) -0.0292(3) 1.05634(19)
C10 C 0.3313(5) -0.0056(3) 1.10766(18)
C11 C 0.3514(5) 0.0692(3) 1.11703(18)
C12 C 0.3634(6) 0.0958(3) 1.16944(19)
H5 H 0.3523 0.0676 1.2032
C13 C 0.3935(6) 0.1688(3) 1.16145(19)
H6 H 0.4087 0.2010 1.1884
C14 C 0.3979(5) 0.1880(3) 1.10432(18)
C15 C 0.4241(5) 0.2597(3) 1.08003(19)
C16 C 0.4035(6) 0.2853(3) 1.0275(2)
C17 C 0.4239(7) 0.3603(3) 1.0037(2)
H7 H 0.4568 0.3990 1.0199
C18 C 0.3870(7) 0.3652(3) 0.9534(2)
H8 H 0.3876 0.4087 0.9279
C19 C 0.3466(6) 0.2922(3) 0.94564(19)
C20 C 0.2983(5) 0.2751(3) 0.89947(18)
C21 C 0.1721(5) -0.0473(3) 0.89097(19)
C22 C 0.2430(6) -0.0672(3) 0.8375(2)
H9 H 0.3237 -0.0472 0.8223
C23 C 0.1953(7) -0.1164(3) 0.8067(2)
H10 H 0.2428 -0.1294 0.7703
C24 C 0.0800(7) -0.1460(3) 0.8286(3)
H11 H 0.0478 -0.1796 0.8074
C25 C 0.0106(6) -0.1275(3) 0.8812(3)
H12 H -0.0696 -0.1482 0.8961
C26 C 0.0574(6) -0.0783(3) 0.9128(2)
H13 H 0.0101 -0.0663 0.9493
C27 C 0.3217(5) -0.0646(3) 1.15357(18)
C28 C 0.1982(6) -0.0939(3) 1.1669(2)
H14 H 0.1203 -0.0751 1.1470
C29 C 0.1884(7) -0.1498(4) 1.2087(2)
H15 H 0.1043 -0.1693 1.2172
C30 C 0.3008(7) -0.1773(3) 1.2382(2)
H16 H 0.2942 -0.2160 1.2668
C31 C 0.4243(7) -0.1484(3) 1.2259(2)
H17 H 0.5012 -0.1670 1.2463
C32 C 0.4342(6) -0.0924(3) 1.18371(19)
H18 H 0.5183 -0.0730 1.1753
C33 C 0.4829(6) 0.3088(3) 1.11339(19)
C34 C 0.4004(6) 0.3840(4) 1.1349(2)
H19 H 0.3035 0.4064 1.1285
C35 C 0.4612(6) 0.4255(3) 1.1656(2)
H20 H 0.4055 0.4766 1.1806
C36 C 0.6794(6) 0.3231(3) 1.1548(2)
H21 H 0.7759 0.3023 1.1620
C37 C 0.6239(6) 0.2797(3) 1.1239(2)
H22 H 0.6828 0.2288 1.1094
C38 C 0.2934(6) 0.3353(3) 0.8531(2)
C39 C 0.4201(6) 0.3425(3) 0.8206(2)
H23 H 0.5113 0.3117 0.8292
C40 C 0.4166(7) 0.3937(3) 0.7759(2)
H24 H 0.5043 0.3992 0.7540
C41 C 0.1629(6) 0.3813(3) 0.8395(2)
H25 H 0.0735 0.3787 0.8615
C42 C 1.3833(6) 0.3116(3) 1.4870(2)
C43 C 1.2784(7) 0.3773(3) 1.4663(2)
H26 H 1.2368 0.4298 1.4817
C44 C 1.2502(7) 0.3503(3) 1.4207(2)
H27 H 1.1841 0.3801 1.3982
C45 C 1.3391(6) 0.2678(3) 1.4126(2)
C46 C 1.3470(5) 0.2208(3) 1.36798(19)
C47 C 1.4391(5) 0.1415(3) 1.35918(19)
C48 C 1.4644(6) 0.0980(3) 1.3091(2)
H28 H 1.4229 0.1169 1.2774
C49 C 1.5586(6) 0.0250(3) 1.3159(2)
H29 H 1.5973 -0.0168 1.2896
C50 C 1.5897(6) 0.0226(3) 1.3709(2)
C51 C 1.6714(5) -0.0450(3) 1.3955(2)
C52 C 1.7036(6) -0.0446(3) 1.4481(2)
C53 C 1.7777(6) -0.1147(3) 1.4761(2)
H30 H 1.8060 -0.1692 1.4638
C54 C 1.7997(6) -0.0893(3) 1.5231(2)
H31 H 1.8462 -0.1225 1.5501
C55 C 1.7405(6) -0.0029(3) 1.5250(2)
C56 C 1.7563(6) 0.0482(3) 1.5636(2)
C57 C 1.6931(6) 0.1315(3) 1.5656(2)
C58 C 1.7146(6) 0.1859(3) 1.6036(2)
H32 H 1.7801 0.1719 1.6289
C59 C 1.6253(6) 0.2601(4) 1.5966(2)
H33 H 1.6137 0.3075 1.6168
C60 C 1.5499(6) 0.2535(3) 1.5522(2)
C61 C 1.4458(6) 0.3170(3) 1.5326(2)
C62 C 1.2485(6) 0.2552(3) 1.32772(19)
C63 C 1.1391(6) 0.2193(3) 1.3214(2)
H34 H 1.1332 0.1704 1.3405
C64 C 1.0399(6) 0.2542(4) 1.2878(2)
H35 H 0.9658 0.2293 1.2843
C65 C 1.1524(6) 0.3584(4) 1.2643(2)
H36 H 1.1570 0.4066 1.2441
C66 C 1.2548(6) 0.3250(3) 1.2979(2)
H37 H 1.3290 0.3504 1.3003
C67 C 1.7360(6) -0.1222(3) 1.3636(2)
C68 C 1.6495(6) -0.1655(3) 1.3475(2)
H38 H 1.5466 -0.1450 1.3550
C69 C 1.7134(7) -0.2399(4) 1.3198(2)
H39 H 1.6534 -0.2698 1.3094
C70 C 1.8593(8) -0.2684(4) 1.3082(2)
H40 H 1.9018 -0.3178 1.2889
C71 C 1.9474(7) -0.2265(4) 1.3241(3)
H41 H 2.0502 -0.2480 1.3166
C72 C 1.8876(6) -0.1530(3) 1.3511(2)
H42 H 1.9491 -0.1237 1.3610
C73 C 0.1627(7) 0.4312(3) 0.7939(2)
H43 H 0.0731 0.4622 0.7842
C74 C 1.8486(6) 0.0107(3) 1.6058(2)
C75 C 1.9942(6) -0.0319(3) 1.5905(2)
H44 H 2.0351 -0.0385 1.5530
C76 C 2.0801(6) -0.0647(4) 1.6298(2)
H45 H 2.1791 -0.0937 1.6189
C77 C 2.0230(7) -0.0555(4) 1.6841(2)
H46 H 2.0822 -0.0776 1.7107
C78 C 1.8782(7) -0.0137(4) 1.6999(2)
H47 H 1.8383 -0.0070 1.7376
C79 C 1.7910(6) 0.0184(3) 1.6611(2)
H48 H 1.6913 0.0459 1.6724
C80 C 1.3920(6) 0.3948(3) 1.5633(2)
C81 C 1.2505(7) 0.4185(3) 1.5907(2)
H49 H 1.1877 0.3850 1.5898
C82 C 1.1985(7) 0.4905(3) 1.6198(2)
H50 H 1.1011 0.5065 1.6387
C83 C 1.4251(7) 0.5177(3) 1.5949(2)
H51 H 1.4851 0.5525 1.5967
C84 C 1.4813(7) 0.4463(4) 1.5652(2)
H52 H 1.5789 0.4326 1.5464
Cu3A Cu 0.29186(8) 0.59513(4) 0.72485(2)
Cu3A_2 Cu 1.29186(8) 0.59513(4) 1.72485(2)
O2A O 0.7154(5) 0.5170(2) 1.28127(15)
O4A O 0.7604(6) 0.3936(2) 1.34904(15)
B1 B 0.7738(17) 0.4452(9) 0.7078(8)
F1 F 0.8902(7) 0.4555(4) 0.6749(3)
F2 F 0.8189(7) 0.4466(4) 0.7630(3)
F3 F 0.6529(7) 0.5053(4) 0.7093(3)
F4 F 0.7488(7) 0.3718(4) 0.7017(3)
C85 C 0.7782(10) 0.3295(5) 0.9553(4)
Cl5 Cl 0.7983(9) 0.3037(6) 0.8882(4)
Cl6 Cl 0.9315(13) 0.2692(6) 0.9836(6)
Cl7 Cl 0.7826(10) 0.4301(4) 0.9607(5)
C86 C 0.1739(15) 0.7448(6) 0.5541(5)
O5 O 0.0844(9) 0.6962(5) 0.5750(3)
C87 C 0.0989(15) 0.6089(12) 0.4514(5)
O6 O 0.1662(10) 0.5796(5) 0.4958(3)
C88 C 1.0092(16) 0.3939(15) 0.0889(5)
O7 O 1.0603(8) 0.4140(5) 0.1301(3)
Cl2? Cl 0.7778(7) 0.3428(6) 0.8852(3)
Cl3? Cl 0.9286(10) 0.2587(6) 0.9739(5)
Cl4? Cl 0.7463(8) 0.4250(4) 0.9871(4)
loop_
_geom_bond_atom_site_label_1
_geom_bond_atom_site_label_2
_geom_bond_site_symmetry_1
_geom_bond_site_symmetry_2
Cu1 N1 1_555 1_555
Cu2 N7 1_555 1_555
Cu3 Cl1 1_555 1_555
N1 C1 1_555 1_555
N2 Cu1 1_555 1_555
N3 Cu1 1_555 1_555
N4 Cu1 1_555 1_555
N5 O1 1_555 1_555
N6 O2 1_555 1_555
N7 C42 1_555 1_555
N8 Cu2 1_555 1_555
N9 Cu2 1_555 1_555
N10 Cu2 1_555 1_555
N11 O3 1_555 1_555
N12 O4 1_555 1_555
O1 Cu3 1_555 1_555
O2 Cu3A 1_555 1_555
O3 Cu3 1_555 1_555
O4 Cu3A_2 1_555 1_555
C1 C2 1_555 1_555
C2 H1 1_555 1_555
C3 C2 1_555 1_555
H2 C3 1_555 1_555
C4 N1 1_555 1_555
C5 C4 1_555 1_555
C6 N2 1_555 1_555
C7 C6 1_555 1_555
H3 C7 1_555 1_555
C8 C7 1_555 1_555
H4 C8 1_555 1_555
C9 N2 1_555 1_555
C10 C9 1_555 1_555
C11 N3 1_555 1_555
C12 C11 1_555 1_555
H5 C12 1_555 1_555
C13 C12 1_555 1_555
H6 C13 1_555 1_555
C14 N3 1_555 1_555
C15 C14 1_555 1_555
C16 N4 1_555 1_555
C17 C16 1_555 1_555
H7 C17 1_555 1_555
C18 C17 1_555 1_555
H8 C18 1_555 1_555
C19 N4 1_555 1_555
C20 C1 1_555 1_555
C21 C5 1_555 1_555
C22 C21 1_555 1_555
H9 C22 1_555 1_555
C23 C22 1_555 1_555
H10 C23 1_555 1_555
C24 C23 1_555 1_555
H11 C24 1_555 1_555
C25 C24 1_555 1_555
H12 C25 1_555 1_555
C26 C21 1_555 1_555
H13 C26 1_555 1_555
C27 C10 1_555 1_555
C28 C27 1_555 1_555
H14 C28 1_555 1_555
C29 C28 1_555 1_555
H15 C29 1_555 1_555
C30 C29 1_555 1_555
H16 C30 1_555 1_555
C31 C30 1_555 1_555
H17 C31 1_555 1_555
C32 C27 1_555 1_555
H18 C32 1_555 1_555
C33 C15 1_555 1_555
C34 C33 1_555 1_555
H19 C34 1_555 1_555
C35 N5 1_555 1_555
H20 C35 1_555 1_555
C36 N5 1_555 1_555
H21 C36 1_555 1_555
C37 C33 1_555 1_555
H22 C37 1_555 1_555
C38 C20 1_555 1_555
C39 C38 1_555 1_555
H23 C39 1_555 1_555
C40 N6 1_555 1_555
H24 C40 1_555 1_555
C41 C38 1_555 1_555
H25 C41 1_555 1_555
C42 C43 1_555 1_555
C43 H26 1_555 1_555
C44 C43 1_555 1_555
H27 C44 1_555 1_555
C45 N7 1_555 1_555
C46 C45 1_555 1_555
C47 N8 1_555 1_555
C48 C47 1_555 1_555
H28 C48 1_555 1_555
C49 C48 1_555 1_555
H29 C49 1_555 1_555
C50 N8 1_555 1_555
C51 C50 1_555 1_555
C52 N9 1_555 1_555
C53 C52 1_555 1_555
H30 C53 1_555 1_555
C54 C53 1_555 1_555
H31 C54 1_555 1_555
C55 N9 1_555 1_555
C56 C55 1_555 1_555
C57 N10 1_555 1_555
C58 C57 1_555 1_555
H32 C58 1_555 1_555
C59 C58 1_555 1_555
H33 C59 1_555 1_555
C60 N10 1_555 1_555
C61 C42 1_555 1_555
C62 C46 1_555 1_555
C63 C62 1_555 1_555
H34 C63 1_555 1_555
C64 N11 1_555 1_555
H35 C64 1_555 1_555
C65 N11 1_555 1_555
H36 C65 1_555 1_555
C66 C62 1_555 1_555
H37 C66 1_555 1_555
C67 C51 1_555 1_555
C68 C67 1_555 1_555
H38 C68 1_555 1_555
C69 C68 1_555 1_555
H39 C69 1_555 1_555
C70 C69 1_555 1_555
H40 C70 1_555 1_555
C71 C70 1_555 1_555
H41 C71 1_555 1_555
C72 C67 1_555 1_555
H42 C72 1_555 1_555
C73 N6 1_555 1_555
H43 C73 1_555 1_555
C74 C56 1_555 1_555
C75 C74 1_555 1_555
H44 C75 1_555 1_555
C76 C75 1_555 1_555
H45 C76 1_555 1_555
C77 C76 1_555 1_555
H46 C77 1_555 1_555
C78 C77 1_555 1_555
H47 C78 1_555 1_555
C79 C74 1_555 1_555
H48 C79 1_555 1_555
C80 C61 1_555 1_555
C81 C80 1_555 1_555
H49 C81 1_555 1_555
C82 N12 1_555 1_555
H50 C82 1_555 1_555
C83 N12 1_555 1_555
H51 C83 1_555 1_555
C84 C80 1_555 1_555
H52 C84 1_555 1_555
B1 F1 1_555 1_555
F2 B1 1_555 1_555
F3 B1 1_555 1_555
F4 B1 1_555 1_555
C85 Cl5 1_555 1_555
Cl6 C85 1_555 1_555
Cl7 C85 1_555 1_555
C86 O5 1_555 1_555
C87 O6 1_555 1_555
C88 O7 1_555 1_555
O2A Cu3 1_555 1_555
O4A Cu3 1_555 1_555
C3 C4 1_555 1_555
C5 C6 1_555 1_555
C8 C9 1_555 1_555
C10 C11 1_555 1_555
C13 C14 1_555 1_555
C15 C16 1_555 1_555
C18 C19 1_555 1_555
C19 C20 1_555 1_555
C25 C26 1_555 1_555
C31 C32 1_555 1_555
C34 C35 1_555 1_555
C36 C37 1_555 1_555
C39 C40 1_555 1_555
C41 C73 1_555 1_555
C44 C45 1_555 1_555
C46 C47 1_555 1_555
C49 C50 1_555 1_555
C51 C52 1_555 1_555
C54 C55 1_555 1_555
C56 C57 1_555 1_555
C59 C60 1_555 1_555
C60 C61 1_555 1_555
C63 C64 1_555 1_555
C65 C66 1_555 1_555
C71 C72 1_555 1_555
C78 C79 1_555 1_555
C81 C82 1_555 1_555
C83 C84 1_555 1_555

#END
