
#######################################################################
#
#                 Cambridge Crystallographic Data Centre
#                                CCDC 
#
#######################################################################
#
# If this CIF has been generated from an entry in the Cambridge 
# Structural Database, then it will include bibliographic, chemical, 
# crystal, experimental, refinement or atomic coordinate data resulting 
# from the CCDC's data processing and validation procedures.
#
#######################################################################

data_MITJAB
_symmetry_cell_setting           triclinic
_symmetry_space_group_name_H-M   'P -1'
_symmetry_Int_Tables_number      2
_space_group_name_Hall           '-P 1'
loop_
_symmetry_equiv_pos_site_id
_symmetry_equiv_pos_as_xyz
1 x,y,z
2 -x,-y,-z
_cell_length_a                   9.4956(4)
_cell_length_b                   14.4774(6)
_cell_length_c                   16.5058(6)
_cell_angle_alpha                82.058(2)
_cell_angle_beta                 79.919(2)
_cell_angle_gamma                74.550(2)
_cell_volume                     2143.27
loop_
_atom_site_label
_atom_site_type_symbol
_atom_site_fract_x
_atom_site_fract_y
_atom_site_fract_z
Cd1 Cd -0.5000 1.0000 0.5000
Br1 Br -0.31179(3) 0.937897(19) 0.616849(16)
N1 N 0.0468(2) 0.60083(16) 0.13637(13)
H1 H 0.0343 0.5431 0.1346
N2 N -0.0886(2) 0.46705(16) 0.25425(13)
N3 N 0.0663(2) 0.30591(16) 0.15881(13)
H2 H 0.0532 0.3688 0.1518
N4 N 0.1867(2) 0.44154(16) 0.03677(13)
C1 C 0.1373(3) 0.64481(19) 0.07847(16)
C2 C 0.1303(3) 0.7353(2) 0.10676(17)
H3 H 0.1833 0.7808 0.0799
C3 C 0.0344(3) 0.7450(2) 0.17888(17)
H4 H 0.0092 0.7982 0.2110
C4 C -0.0213(3) 0.66044(19) 0.19743(16)
C5 C -0.1231(3) 0.64006(19) 0.26670(16)
C6 C -0.1576(3) 0.55039(19) 0.29081(16)
C7 C -0.2672(3) 0.5329(2) 0.36039(18)
H5 H -0.3302 0.5793 0.3947
C8 C -0.2624(3) 0.4387(2) 0.36691(18)
H6 H -0.3209 0.4055 0.4069
C9 C -0.1494(3) 0.39694(19) 0.30035(16)
C10 C -0.1057(3) 0.29850(18) 0.28890(15)
C11 C 0.0015(3) 0.25643(19) 0.22581(16)
C12 C 0.0573(3) 0.1558(2) 0.21492(17)
H7 H 0.0336 0.1040 0.2519
C13 C 0.1514(3) 0.1481(2) 0.14122(17)
H8 H 0.2050 0.0898 0.1187
C14 C 0.1542(3) 0.24315(19) 0.10453(16)
C15 C 0.2279(3) 0.26778(19) 0.02638(16)
C16 C 0.2351(3) 0.36220(19) -0.00670(16)
C17 C 0.3037(3) 0.3864(2) -0.09018(16)
H9 H 0.3428 0.3441 -0.1323
C18 C 0.3008(3) 0.4810(2) -0.09584(16)
H10 H 0.3374 0.5183 -0.1428
C19 C 0.2307(3) 0.51415(19) -0.01589(15)
C20 C 0.2178(3) 0.60753(19) 0.00526(16)
C21 C -0.1989(3) 0.72167(19) 0.31834(16)
C22 C -0.1866(3) 0.7164(2) 0.40193(17)
H11 H -0.1273 0.6604 0.4278
C23 C -0.2615(3) 0.7935(2) 0.44705(17)
H12 H -0.2512 0.7887 0.5038
N5 N -0.3478(3) 0.87440(16) 0.41447(14)
C24 C -0.3584(3) 0.8797(2) 0.33356(17)
H13 H -0.4177 0.9367 0.3091
C25 C -0.2870(3) 0.8059(2) 0.28412(17)
H14 H -0.2982 0.8129 0.2273
C26 C -0.1884(3) 0.23287(19) 0.34363(15)
C27 C -0.1215(3) 0.1516(2) 0.39218(16)
H15 H -0.0191 0.1381 0.3957
C28 C -0.2059(3) 0.0906(2) 0.43534(17)
H16 H -0.1587 0.0357 0.4682
N6 N -0.3510(2) 0.10564(17) 0.43282(14)
C29 C -0.4160(3) 0.1852(2) 0.38770(17)
H17 H -0.5192 0.1979 0.3868
C30 C -0.3403(3) 0.24941(19) 0.34250(16)
H18 H -0.3910 0.3043 0.3110
C31 C 0.3105(3) 0.1859(2) -0.02355(16)
C32 C 0.4649(3) 0.1683(2) -0.04425(19)
H19 H 0.5164 0.2092 -0.0282
C33 C 0.5420(4) 0.0898(2) -0.0888(2)
H20 H 0.6462 0.0775 -0.1028
C34 C 0.4688(5) 0.0304(2) -0.1124(2)
H21 H 0.5219 -0.0223 -0.1428
C35 C 0.3182(5) 0.0476(2) -0.0917(2)
H22 H 0.2679 0.0061 -0.1078
C36 C 0.2380(4) 0.1249(2) -0.04760(19)
H23 H 0.1338 0.1359 -0.0340
C37 C 0.2968(3) 0.67120(19) -0.05389(15)
C38 C 0.4498(3) 0.6418(2) -0.07769(17)
H24 H 0.5040 0.5820 -0.0543
C39 C 0.5233(3) 0.6991(3) -0.13515(18)
H25 H 0.6269 0.6780 -0.1510
C40 C 0.4461(4) 0.7870(2) -0.16946(18)
H26 H 0.4966 0.8263 -0.2083
C41 C 0.2942(4) 0.8170(2) -0.14646(19)
H27 H 0.2406 0.8767 -0.1702
C42 C 0.2205(3) 0.7604(2) -0.08918(18)
H28 H 0.1169 0.7821 -0.0735
Cd1_2 Cd -0.5000 0.0000 0.5000
Cd1_3 Cd -0.5000 2.0000 0.5000
Br1A Br -0.68821(3) 1.062103(19) 0.383151(16)
N1A N -1.0468(2) 1.39917(16) 0.86363(13)
H1A H -1.0343 1.4569 0.8654
N2A N -0.9114(2) 1.53295(16) 0.74575(13)
N3A N -1.0663(2) 1.69409(16) 0.84119(13)
H2A H -1.0532 1.6312 0.8482
N4A N -1.1867(2) 1.55846(16) 0.96323(13)
C1A C -1.1373(3) 1.35519(19) 0.92153(16)
C2A C -1.1303(3) 1.2647(2) 0.89324(17)
H3A H -1.1833 1.2192 0.9201
C3A C -1.0344(3) 1.2550(2) 0.82112(17)
H4A H -1.0092 1.2018 0.7890
C4A C -0.9787(3) 1.33956(19) 0.80257(16)
C5A C -0.8769(3) 1.35994(19) 0.73330(16)
C6A C -0.8424(3) 1.44961(19) 0.70919(16)
C7A C -0.7328(3) 1.4671(2) 0.63961(18)
H5A H -0.6698 1.4207 0.6053
C8A C -0.7376(3) 1.5613(2) 0.63309(18)
H6A H -0.6791 1.5945 0.5931
C9A C -0.8506(3) 1.60306(19) 0.69965(16)
C10A C -0.8943(3) 1.70150(18) 0.71110(15)
C11A C -1.0015(3) 1.74357(19) 0.77419(16)
C12A C -1.0573(3) 1.8442(2) 0.78508(17)
H7A H -1.0336 1.8960 0.7481
C13A C -1.1514(3) 1.8519(2) 0.85878(17)
H8A H -1.2050 1.9102 0.8813
C14A C -1.1542(3) 1.75685(19) 0.89547(16)
C15A C -1.2279(3) 1.73222(19) 0.97362(16)
C16A C -1.2351(3) 1.63780(19) 1.00670(16)
C17A C -1.3037(3) 1.6136(2) 1.09018(16)
H9A H -1.3428 1.6559 1.1323
C18A C -1.3008(3) 1.5190(2) 1.09584(16)
H10A H -1.3374 1.4817 1.1428
C19A C -1.2307(3) 1.48585(19) 1.01589(15)
C20A C -1.2178(3) 1.39247(19) 0.99474(16)
C21A C -0.8011(3) 1.27833(19) 0.68166(16)
C22A C -0.8134(3) 1.2836(2) 0.59807(17)
H11A H -0.8727 1.3396 0.5722
C23A C -0.7385(3) 1.2065(2) 0.55295(17)
H12A H -0.7488 1.2113 0.4962
N5A N -0.6522(3) 1.12560(16) 0.58553(14)
C24A C -0.6416(3) 1.1203(2) 0.66644(17)
H13A H -0.5823 1.0633 0.6909
C25A C -0.7130(3) 1.1941(2) 0.71588(17)
H14A H -0.7018 1.1871 0.7727
C26A C -0.8116(3) 1.76713(19) 0.65637(15)
C27A C -0.8785(3) 1.8484(2) 0.60782(16)
H15A H -0.9809 1.8619 0.6043
C28A C -0.7941(3) 1.9094(2) 0.56466(17)
H16A H -0.8413 1.9643 0.5318
N6A N -0.6490(2) 1.89436(17) 0.56718(14)
N6_2 N -0.3510(2) 1.10564(17) 0.43282(14)
N6A_2 N -0.6490(2) 0.89436(17) 0.56718(14)
C29A C -0.5840(3) 1.8148(2) 0.61230(17)
H17A H -0.4808 1.8021 0.6132
C30A C -0.6597(3) 1.75059(19) 0.65750(16)
H18A H -0.6090 1.6957 0.6890
C31A C -1.3105(3) 1.8141(2) 1.02355(16)
C32A C -1.4649(3) 1.8317(2) 1.04425(19)
H19A H -1.5164 1.7908 1.0282
C33A C -1.5420(4) 1.9102(2) 1.0888(2)
H20A H -1.6462 1.9225 1.1028
C34A C -1.4688(5) 1.9696(2) 1.1124(2)
H21A H -1.5219 2.0223 1.1428
C35A C -1.3182(5) 1.9524(2) 1.0917(2)
H22A H -1.2679 1.9939 1.1078
C36A C -1.2380(4) 1.8751(2) 1.04760(19)
H23A H -1.1338 1.8641 1.0340
C37A C -1.2968(3) 1.32880(19) 1.05389(15)
C38A C -1.4498(3) 1.3582(2) 1.07769(17)
H24A H -1.5040 1.4180 1.0543
C39A C -1.5233(3) 1.3009(3) 1.13515(18)
H25A H -1.6269 1.3220 1.1510
C40A C -1.4461(4) 1.2130(2) 1.16946(18)
H26A H -1.4966 1.1737 1.2083
C41A C -1.2942(4) 1.1830(2) 1.14646(19)
H27A H -1.2406 1.1233 1.1702
C42A C -1.2205(3) 1.2396(2) 1.08918(18)
H28A H -1.1169 1.2179 1.0735
C43 C 0.2151(4) 0.4642(3) 0.3283(2)
H29 H 0.1262 0.4946 0.3004
Cl1 Cl 0.1808(2) 0.50534(13) 0.42616(10)
Cl2 Cl 0.36673(15) 0.50000(10) 0.26731(10)
Cl3 Cl 0.24023(10) 0.33879(7) 0.33558(6)
C44 C 0.7238(6) 0.1824(4) 0.6337(3)
H30 H 0.6981 0.1222 0.6248
Cl4 Cl 0.6293(2) 0.27796(11) 0.56836(9)
Cl5 Cl 0.91380(18) 0.1631(2) 0.61170(11)
Cl6 Cl 0.6607(2) 0.2043(2) 0.73632(8)
loop_
_geom_bond_atom_site_label_1
_geom_bond_atom_site_label_2
_geom_bond_site_symmetry_1
_geom_bond_site_symmetry_2
Cd1 Br1 1_555 1_555
N1 H1 1_555 1_555
N2 C6 1_555 1_555
N3 H2 1_555 1_555
N4 C16 1_555 1_555
C1 N1 1_555 1_555
C2 C1 1_555 1_555
H3 C2 1_555 1_555
C3 C2 1_555 1_555
H4 C3 1_555 1_555
C4 N1 1_555 1_555
C5 C4 1_555 1_555
C6 C5 1_555 1_555
C7 C6 1_555 1_555
H5 C7 1_555 1_555
C8 C7 1_555 1_555
H6 C8 1_555 1_555
C9 N2 1_555 1_555
C10 C9 1_555 1_555
C11 N3 1_555 1_555
C12 C11 1_555 1_555
H7 C12 1_555 1_555
C13 C12 1_555 1_555
H8 C13 1_555 1_555
C14 N3 1_555 1_555
C15 C14 1_555 1_555
C16 C15 1_555 1_555
C17 C16 1_555 1_555
H9 C17 1_555 1_555
C18 C17 1_555 1_555
H10 C18 1_555 1_555
C19 N4 1_555 1_555
C20 C1 1_555 1_555
C21 C5 1_555 1_555
C22 C21 1_555 1_555
H11 C22 1_555 1_555
C23 C22 1_555 1_555
H12 C23 1_555 1_555
N5 Cd1 1_555 1_555
C24 N5 1_555 1_555
H13 C24 1_555 1_555
C25 C21 1_555 1_555
H14 C25 1_555 1_555
C26 C10 1_555 1_555
C27 C26 1_555 1_555
H15 C27 1_555 1_555
C28 C27 1_555 1_555
H16 C28 1_555 1_555
N6 C28 1_555 1_555
C29 N6 1_555 1_555
H17 C29 1_555 1_555
C30 C26 1_555 1_555
H18 C30 1_555 1_555
C31 C15 1_555 1_555
C32 C31 1_555 1_555
H19 C32 1_555 1_555
C33 C32 1_555 1_555
H20 C33 1_555 1_555
C34 C33 1_555 1_555
H21 C34 1_555 1_555
C35 C34 1_555 1_555
H22 C35 1_555 1_555
C36 C31 1_555 1_555
H23 C36 1_555 1_555
C37 C20 1_555 1_555
C38 C37 1_555 1_555
H24 C38 1_555 1_555
C39 C38 1_555 1_555
H25 C39 1_555 1_555
C40 C39 1_555 1_555
H26 C40 1_555 1_555
C41 C40 1_555 1_555
H27 C41 1_555 1_555
C42 C37 1_555 1_555
H28 C42 1_555 1_555
C43 H29 1_555 1_555
Cl1 C43 1_555 1_555
Cl2 C43 1_555 1_555
Cl3 C43 1_555 1_555
C44 H30 1_555 1_555
Cl4 C44 1_555 1_555
Cl5 C44 1_555 1_555
Cl6 C44 1_555 1_555
Cd1_2 N6 1_555 1_555
Cd1_3 N6A 1_555 1_555
Br1A Cd1 1_555 1_555
N1A H1A 1_555 1_555
N2A C6A 1_555 1_555
N3A H2A 1_555 1_555
N4A C16A 1_555 1_555
C1A N1A 1_555 1_555
C2A C1A 1_555 1_555
H3A C2A 1_555 1_555
C3A C2A 1_555 1_555
H4A C3A 1_555 1_555
C4A N1A 1_555 1_555
C5A C4A 1_555 1_555
C6A C5A 1_555 1_555
C7A C6A 1_555 1_555
H5A C7A 1_555 1_555
C8A C7A 1_555 1_555
H6A C8A 1_555 1_555
C9A N2A 1_555 1_555
C10A C9A 1_555 1_555
C11A N3A 1_555 1_555
C12A C11A 1_555 1_555
H7A C12A 1_555 1_555
C13A C12A 1_555 1_555
H8A C13A 1_555 1_555
C14A N3A 1_555 1_555
C15A C14A 1_555 1_555
C16A C15A 1_555 1_555
C17A C16A 1_555 1_555
H9A C17A 1_555 1_555
C18A C17A 1_555 1_555
H10A C18A 1_555 1_555
C19A N4A 1_555 1_555
C20A C1A 1_555 1_555
C21A C5A 1_555 1_555
C22A C21A 1_555 1_555
H11A C22A 1_555 1_555
C23A C22A 1_555 1_555
H12A C23A 1_555 1_555
N5A Cd1 1_555 1_555
C24A N5A 1_555 1_555
H13A C24A 1_555 1_555
C25A C21A 1_555 1_555
H14A C25A 1_555 1_555
C26A C10A 1_555 1_555
C27A C26A 1_555 1_555
H15A C27A 1_555 1_555
C28A C27A 1_555 1_555
H16A C28A 1_555 1_555
N6A C28A 1_555 1_555
N6_2 Cd1 1_555 1_555
N6A_2 Cd1 1_555 1_555
C29A N6A 1_555 1_555
H17A C29A 1_555 1_555
C30A C26A 1_555 1_555
H18A C30A 1_555 1_555
C31A C15A 1_555 1_555
C32A C31A 1_555 1_555
H19A C32A 1_555 1_555
C33A C32A 1_555 1_555
H20A C33A 1_555 1_555
C34A C33A 1_555 1_555
H21A C34A 1_555 1_555
C35A C34A 1_555 1_555
H22A C35A 1_555 1_555
C36A C31A 1_555 1_555
H23A C36A 1_555 1_555
C37A C20A 1_555 1_555
C38A C37A 1_555 1_555
H24A C38A 1_555 1_555
C39A C38A 1_555 1_555
H25A C39A 1_555 1_555
C40A C39A 1_555 1_555
H26A C40A 1_555 1_555
C41A C40A 1_555 1_555
H27A C41A 1_555 1_555
C42A C37A 1_555 1_555
H28A C42A 1_555 1_555
C3 C4 1_555 1_555
C8 C9 1_555 1_555
C10 C11 1_555 1_555
C13 C14 1_555 1_555
C18 C19 1_555 1_555
C19 C20 1_555 1_555
C23 N5 1_555 1_555
C24 C25 1_555 1_555
C29 C30 1_555 1_555
C35 C36 1_555 1_555
C41 C42 1_555 1_555
C3A C4A 1_555 1_555
C8A C9A 1_555 1_555
C10A C11A 1_555 1_555
C13A C14A 1_555 1_555
C18A C19A 1_555 1_555
C19A C20A 1_555 1_555
C23A N5A 1_555 1_555
C24A C25A 1_555 1_555
C29A C30A 1_555 1_555
C35A C36A 1_555 1_555
C41A C42A 1_555 1_555

#END
