
#######################################################################
#
#                 Cambridge Crystallographic Data Centre
#                                CCDC 
#
#######################################################################
#
# If this CIF has been generated from an entry in the Cambridge 
# Structural Database, then it will include bibliographic, chemical, 
# crystal, experimental, refinement or atomic coordinate data resulting 
# from the CCDC's data processing and validation procedures.
#
#######################################################################

data_MITJEF
_symmetry_cell_setting           triclinic
_symmetry_space_group_name_H-M   'P -1'
_symmetry_Int_Tables_number      2
_space_group_name_Hall           '-P 1'
loop_
_symmetry_equiv_pos_site_id
_symmetry_equiv_pos_as_xyz
1 x,y,z
2 -x,-y,-z
_cell_length_a                   8.1872(3)
_cell_length_b                   14.4491(5)
_cell_length_c                   16.8506(5)
_cell_angle_alpha                80.7490(10)
_cell_angle_beta                 78.4670(10)
_cell_angle_gamma                75.4150(10)
_cell_volume                     1877.34
loop_
_atom_site_label
_atom_site_type_symbol
_atom_site_fract_x
_atom_site_fract_y
_atom_site_fract_z
Cu3 Cu 0.0527(3) 0.42587(13) 0.55955(13)
Br1 Br 0.09082(14) 0.27208(8) 0.62968(7)
Br2 Br 0.11471(10) 0.57419(5) 0.55911(5)
Cu3A Cu -0.0527(3) 0.57413(13) 0.44045(13)
Br1A Br -0.09082(14) 0.72792(8) 0.37032(7)
Br2A Br -0.11471(10) 0.42581(5) 0.44089(5)
O3 O 0.7183(11) 0.8729(7) 0.4960(5)
O4 O 0.9588(19) 0.1000(14) 0.5839(10)
Cu1 Cu 0.5000 0.5000 0.5000
Cu2 Cu 0.69338(8) 1.05097(4) 0.07457(3)
C1 C 0.6006(7) 1.2247(3) 0.1685(3)
C2 C 0.5779(8) 1.3281(4) 0.1556(3)
H1 H 0.5316 1.3711 0.1958
C3 C 0.6350(8) 1.3523(4) 0.0756(3)
H2 H 0.6357 1.4153 0.0487
C4 C 0.6944(7) 1.2631(3) 0.0394(3)
C5 C 0.7816(7) 1.2562(3) -0.0414(3)
C6 C 0.8339(7) 1.1701(4) -0.0770(3)
C7 C 0.9324(8) 1.1600(4) -0.1571(3)
H3 H 0.9781 1.2085 -0.1930
C8 C 0.9483(7) 1.0676(4) -0.1720(3)
H4 H 1.0094 1.0391 -0.2194
C9 C 0.8538(7) 1.0219(4) -0.1012(3)
C10 C 0.8224(7) 0.9303(3) -0.0957(3)
C11 C 0.7399(7) 0.8847(4) -0.0243(3)
C12 C 0.6969(7) 0.7931(4) -0.0177(3)
H5 H 0.7096 0.7556 -0.0609
C13 C 0.6342(7) 0.7698(4) 0.0627(3)
H6 H 0.5941 0.7135 0.0858
C14 C 0.6407(7) 0.8466(3) 0.1051(3)
C15 C 0.6007(7) 0.8470(3) 0.1895(3)
C16 C 0.5951(7) 0.9248(3) 0.2308(3)
C17 C 0.5628(7) 0.9235(4) 0.3179(3)
H7 H 0.5477 0.8700 0.3573
C18 C 0.5582(7) 1.0143(4) 0.3331(3)
H8 H 0.5395 1.0359 0.3852
C19 C 0.5871(7) 1.0714(3) 0.2551(3)
C20 C 0.5745(7) 1.1699(3) 0.2450(3)
C21 C 0.8178(8) 1.3463(4) -0.0926(3)
C22 C 0.9217(8) 1.3976(4) -0.0703(3)
H9 H 0.9695 1.3765 -0.0218
C23 C 0.9550(9) 1.4807(4) -0.1202(4)
H10 H 1.0237 1.5164 -0.1045
C24 C 0.8896(9) 1.5111(4) -0.1913(4)
H11 H 0.9146 1.5669 -0.2248
C25 C 0.7875(9) 1.4607(4) -0.2143(4)
H12 H 0.7420 1.4816 -0.2635
C26 C 0.7519(8) 1.3785(4) -0.1645(3)
H13 H 0.6811 1.3440 -0.1802
C27 C 0.8757(7) 0.8774(4) -0.1686(3)
C28 C 0.8156(8) 0.9185(4) -0.2413(3)
H14 H 0.7432 0.9812 -0.2448
C29 C 0.8633(8) 0.8661(6) -0.3097(4)
H15 H 0.8228 0.8938 -0.3592
C30 C 0.9685(9) 0.7748(6) -0.3047(4)
H16 H 0.9965 0.7390 -0.3502
C31 C 1.0326(8) 0.7356(5) -0.2345(4)
H17 H 1.1095 0.6741 -0.2325
C32 C 0.9858(7) 0.7854(4) -0.1652(4)
H18 H 1.0283 0.7569 -0.1164
C33 C 0.5619(7) 0.7579(4) 0.2400(3)
C34 C 0.6863(7) 0.6713(4) 0.2393(3)
H19 H 0.7940 0.6686 0.2048
C35 C 0.6533(8) 0.5895(4) 0.2888(3)
H20 H 0.7378 0.5309 0.2880
C36 C 0.3767(7) 0.6745(4) 0.3404(3)
H21 H 0.2700 0.6748 0.3753
C37 C 0.4046(7) 0.7584(4) 0.2914(3)
H22 H 0.3169 0.8157 0.2929
C38 C 0.5353(7) 1.2207(3) 0.3199(3)
C39 C 0.6485(7) 1.1977(4) 0.3753(3)
H23 H 0.7461 1.1459 0.3679
C40 C 0.6208(8) 1.2492(4) 0.4413(3)
H24 H 0.6998 1.2334 0.4784
C41 C 0.3641(7) 1.3431(4) 0.4030(3)
H25 H 0.2640 1.3925 0.4140
C42 C 0.3879(7) 1.2936(4) 0.3362(3)
H26 H 0.3044 1.3091 0.3014
N1 N 0.6665(6) 1.1870(3) 0.0966(2)
N2 N 0.7907(6) 1.0847(3) -0.0420(2)
N3 N 0.7008(6) 0.9188(3) 0.0511(2)
N4 N 0.6148(6) 1.0147(3) 0.1932(2)
N5 N 0.5001(6) 0.5934(3) 0.3385(2)
N6 N 0.4818(6) 1.3215(3) 0.4523(3)
O1 O 0.4718(6) 0.5134(3) 0.3853(2)
O2 O 0.4574(6) 1.3708(3) 0.5163(2)
Cu1_2 Cu 0.5000 1.5000 0.5000
Cu1_3 Cu 0.5000 -0.5000 0.5000
Cu2A Cu 0.30662(8) -0.05097(4) 0.92543(3)
C1A C 0.3994(7) -0.2247(3) 0.8315(3)
C2A C 0.4221(8) -0.3281(4) 0.8444(3)
H1A H 0.4684 -0.3711 0.8042
C3A C 0.3650(8) -0.3523(4) 0.9244(3)
H2A H 0.3643 -0.4153 0.9513
C4A C 0.3056(7) -0.2631(3) 0.9606(3)
C5A C 0.2184(7) -0.2562(3) 1.0414(3)
C6A C 0.1661(7) -0.1701(4) 1.0770(3)
C7A C 0.0676(8) -0.1600(4) 1.1571(3)
H3A H 0.0219 -0.2085 1.1930
C8A C 0.0517(7) -0.0676(4) 1.1720(3)
H4A H -0.0094 -0.0391 1.2194
C9A C 0.1462(7) -0.0219(4) 1.1012(3)
C10A C 0.1776(7) 0.0697(3) 1.0957(3)
C11A C 0.2601(7) 0.1153(4) 1.0243(3)
C12A C 0.3031(7) 0.2069(4) 1.0177(3)
H5A H 0.2904 0.2444 1.0609
C13A C 0.3658(7) 0.2302(4) 0.9373(3)
H6A H 0.4059 0.2865 0.9142
C14A C 0.3593(7) 0.1534(3) 0.8949(3)
C15A C 0.3993(7) 0.1530(3) 0.8105(3)
C16A C 0.4049(7) 0.0752(3) 0.7692(3)
C17A C 0.4372(7) 0.0765(4) 0.6821(3)
H7A H 0.4523 0.1300 0.6427
C18A C 0.4418(7) -0.0143(4) 0.6669(3)
H8A H 0.4605 -0.0359 0.6148
C19A C 0.4129(7) -0.0714(3) 0.7449(3)
C20A C 0.4255(7) -0.1699(3) 0.7550(3)
C21A C 0.1822(8) -0.3463(4) 1.0926(3)
C22A C 0.0783(8) -0.3976(4) 1.0703(3)
H9A H 0.0305 -0.3765 1.0218
C23A C 0.0450(9) -0.4807(4) 1.1202(4)
H10A H -0.0237 -0.5164 1.1045
C24A C 0.1104(9) -0.5111(4) 1.1913(4)
H11A H 0.0854 -0.5669 1.2248
C25A C 0.2125(9) -0.4607(4) 1.2143(4)
H12A H 0.2580 -0.4816 1.2635
C26A C 0.2481(8) -0.3785(4) 1.1645(3)
H13A H 0.3189 -0.3440 1.1802
C27A C 0.1243(7) 0.1226(4) 1.1686(3)
C28A C 0.1844(8) 0.0815(4) 1.2413(3)
H14A H 0.2568 0.0188 1.2448
C29A C 0.1367(8) 0.1339(6) 1.3097(4)
H15A H 0.1772 0.1062 1.3592
C30A C 0.0315(9) 0.2252(6) 1.3047(4)
H16A H 0.0035 0.2610 1.3502
C31A C -0.0326(8) 0.2644(5) 1.2345(4)
H17A H -0.1095 0.3259 1.2325
C32A C 0.0142(7) 0.2146(4) 1.1652(4)
H18A H -0.0283 0.2431 1.1164
C33A C 0.4381(7) 0.2421(4) 0.7600(3)
C34A C 0.3137(7) 0.3287(4) 0.7607(3)
H19A H 0.2060 0.3314 0.7952
C35A C 0.3467(8) 0.4105(4) 0.7112(3)
H20A H 0.2622 0.4691 0.7120
C36A C 0.6233(7) 0.3255(4) 0.6596(3)
H21A H 0.7300 0.3252 0.6247
C37A C 0.5954(7) 0.2416(4) 0.7086(3)
H22A H 0.6831 0.1843 0.7071
C38A C 0.4647(7) -0.2207(3) 0.6801(3)
C39A C 0.3515(7) -0.1977(4) 0.6247(3)
H23A H 0.2539 -0.1459 0.6321
C40A C 0.3792(8) -0.2492(4) 0.5587(3)
H24A H 0.3002 -0.2334 0.5216
C41A C 0.6359(7) -0.3431(4) 0.5970(3)
H25A H 0.7360 -0.3925 0.5860
C42A C 0.6121(7) -0.2936(4) 0.6638(3)
H26A H 0.6956 -0.3091 0.6986
N1A N 0.3335(6) -0.1870(3) 0.9034(2)
N2A N 0.2093(6) -0.0847(3) 1.0420(2)
N3A N 0.2992(6) 0.0812(3) 0.9489(2)
N4A N 0.3852(6) -0.0147(3) 0.8068(2)
N5A N 0.4999(6) 0.4066(3) 0.6615(2)
N6A N 0.5182(6) -0.3215(3) 0.5477(3)
O1A O 0.5282(6) 0.4866(3) 0.6147(2)
O2A O 0.5426(6) -0.3708(3) 0.4837(2)
O2_2 O 0.4574(6) 0.3708(3) 0.5163(2)
O2A_2 O 0.5426(6) 0.6292(3) 0.4837(2)
O5? O 0.965(2) 0.1509(10) 0.5185(9)
loop_
_geom_bond_atom_site_label_1
_geom_bond_atom_site_label_2
_geom_bond_site_symmetry_1
_geom_bond_site_symmetry_2
Cu1 O1 1_555 1_555
Cu2 N1 1_555 1_555
Cu3 Br1 1_555 1_555
Br2 Cu3 1_555 1_555
C1 C2 1_555 1_555
C2 H1 1_555 1_555
C3 C2 1_555 1_555
H2 C3 1_555 1_555
C4 C3 1_555 1_555
C5 C4 1_555 1_555
C6 C5 1_555 1_555
C7 C6 1_555 1_555
H3 C7 1_555 1_555
C8 C7 1_555 1_555
H4 C8 1_555 1_555
C9 C8 1_555 1_555
C10 C9 1_555 1_555
C11 C10 1_555 1_555
C12 C11 1_555 1_555
H5 C12 1_555 1_555
C13 C12 1_555 1_555
H6 C13 1_555 1_555
C14 C13 1_555 1_555
C15 C14 1_555 1_555
C16 C15 1_555 1_555
C17 C16 1_555 1_555
H7 C17 1_555 1_555
C18 C17 1_555 1_555
H8 C18 1_555 1_555
C19 C18 1_555 1_555
C20 C1 1_555 1_555
C21 C5 1_555 1_555
C22 C21 1_555 1_555
H9 C22 1_555 1_555
C23 C22 1_555 1_555
H10 C23 1_555 1_555
C24 C23 1_555 1_555
H11 C24 1_555 1_555
C25 C24 1_555 1_555
H12 C25 1_555 1_555
C26 C21 1_555 1_555
H13 C26 1_555 1_555
C27 C10 1_555 1_555
C28 C27 1_555 1_555
H14 C28 1_555 1_555
C29 C28 1_555 1_555
H15 C29 1_555 1_555
C30 C29 1_555 1_555
H16 C30 1_555 1_555
C31 C30 1_555 1_555
H17 C31 1_555 1_555
C32 C27 1_555 1_555
H18 C32 1_555 1_555
C33 C15 1_555 1_555
C34 C33 1_555 1_555
H19 C34 1_555 1_555
C35 C34 1_555 1_555
H20 C35 1_555 1_555
C36 H21 1_555 1_555
C37 C33 1_555 1_555
H22 C37 1_555 1_555
C38 C20 1_555 1_555
C39 C38 1_555 1_555
H23 C39 1_555 1_555
C40 C39 1_555 1_555
H24 C40 1_555 1_555
C41 H25 1_555 1_555
C42 C38 1_555 1_555
H26 C42 1_555 1_555
N1 C1 1_555 1_555
N2 Cu2 1_555 1_555
N3 Cu2 1_555 1_555
N4 Cu2 1_555 1_555
N5 C35 1_555 1_555
N6 C40 1_555 1_555
O1 N5 1_555 1_555
O2 N6 1_555 1_555
Cu1_2 O2 1_555 1_555
Cu1_3 O2A 1_555 1_555
Cu2A N1A 1_555 1_555
Cu3A Br2 1_555 1_555
Br1A Cu3A 1_555 1_555
Br2A Cu3 1_555 1_555
C1A C2A 1_555 1_555
C2A H1A 1_555 1_555
C3A C2A 1_555 1_555
H2A C3A 1_555 1_555
C4A C3A 1_555 1_555
C5A C4A 1_555 1_555
C6A C5A 1_555 1_555
C7A C6A 1_555 1_555
H3A C7A 1_555 1_555
C8A C7A 1_555 1_555
H4A C8A 1_555 1_555
C9A C8A 1_555 1_555
C10A C9A 1_555 1_555
C11A C10A 1_555 1_555
C12A C11A 1_555 1_555
H5A C12A 1_555 1_555
C13A C12A 1_555 1_555
H6A C13A 1_555 1_555
C14A C13A 1_555 1_555
C15A C14A 1_555 1_555
C16A C15A 1_555 1_555
C17A C16A 1_555 1_555
H7A C17A 1_555 1_555
C18A C17A 1_555 1_555
H8A C18A 1_555 1_555
C19A C18A 1_555 1_555
C20A C1A 1_555 1_555
C21A C5A 1_555 1_555
C22A C21A 1_555 1_555
H9A C22A 1_555 1_555
C23A C22A 1_555 1_555
H10A C23A 1_555 1_555
C24A C23A 1_555 1_555
H11A C24A 1_555 1_555
C25A C24A 1_555 1_555
H12A C25A 1_555 1_555
C26A C21A 1_555 1_555
H13A C26A 1_555 1_555
C27A C10A 1_555 1_555
C28A C27A 1_555 1_555
H14A C28A 1_555 1_555
C29A C28A 1_555 1_555
H15A C29A 1_555 1_555
C30A C29A 1_555 1_555
H16A C30A 1_555 1_555
C31A C30A 1_555 1_555
H17A C31A 1_555 1_555
C32A C27A 1_555 1_555
H18A C32A 1_555 1_555
C33A C15A 1_555 1_555
C34A C33A 1_555 1_555
H19A C34A 1_555 1_555
C35A C34A 1_555 1_555
H20A C35A 1_555 1_555
C36A H21A 1_555 1_555
C37A C33A 1_555 1_555
H22A C37A 1_555 1_555
C38A C20A 1_555 1_555
C39A C38A 1_555 1_555
H23A C39A 1_555 1_555
C40A C39A 1_555 1_555
H24A C40A 1_555 1_555
C41A H25A 1_555 1_555
C42A C38A 1_555 1_555
H26A C42A 1_555 1_555
N1A C1A 1_555 1_555
N2A Cu2A 1_555 1_555
N3A Cu2A 1_555 1_555
N4A Cu2A 1_555 1_555
N5A C35A 1_555 1_555
N6A C40A 1_555 1_555
O1A Cu1 1_555 1_555
O2A N6A 1_555 1_555
O2_2 Cu1 1_555 1_555
O2A_2 Cu1 1_555 1_555
C4 N1 1_555 1_555
C6 N2 1_555 1_555
C9 N2 1_555 1_555
C11 N3 1_555 1_555
C14 N3 1_555 1_555
C16 N4 1_555 1_555
C19 C20 1_555 1_555
C19 N4 1_555 1_555
C25 C26 1_555 1_555
C31 C32 1_555 1_555
C36 C37 1_555 1_555
C36 N5 1_555 1_555
C41 C42 1_555 1_555
C41 N6 1_555 1_555
Cu3A Br2A 1_555 1_555
C4A N1A 1_555 1_555
C6A N2A 1_555 1_555
C9A N2A 1_555 1_555
C11A N3A 1_555 1_555
C14A N3A 1_555 1_555
C16A N4A 1_555 1_555
C19A C20A 1_555 1_555
C19A N4A 1_555 1_555
C25A C26A 1_555 1_555
C31A C32A 1_555 1_555
C36A C37A 1_555 1_555
C36A N5A 1_555 1_555
C41A C42A 1_555 1_555
C41A N6A 1_555 1_555
N5A O1A 1_555 1_555

#END
