
#######################################################################
#
#                 Cambridge Crystallographic Data Centre
#                                CCDC 
#
#######################################################################
#
# If this CIF has been generated from an entry in the Cambridge 
# Structural Database, then it will include bibliographic, chemical, 
# crystal, experimental, refinement or atomic coordinate data resulting 
# from the CCDC's data processing and validation procedures.
#
#######################################################################

data_MITRAJ
_symmetry_cell_setting           orthorhombic
_symmetry_space_group_name_H-M   'P 21 21 2'
_symmetry_Int_Tables_number      18
_space_group_name_Hall           'P 2 2ab'
loop_
_symmetry_equiv_pos_site_id
_symmetry_equiv_pos_as_xyz
1 x,y,z
2 -x,-y,z
3 1/2-x,1/2+y,-z
4 1/2+x,1/2-y,-z
_cell_length_a                   13.8710(14)
_cell_length_b                   33.898(4)
_cell_length_c                   5.4168(6)
_cell_angle_alpha                90
_cell_angle_beta                 90
_cell_angle_gamma                90
_cell_volume                     2546.97
loop_
_atom_site_label
_atom_site_type_symbol
_atom_site_fract_x
_atom_site_fract_y
_atom_site_fract_z
Cd1 Cd 0.863127(18) 0.315992(8) 0.32039(5)
Cd2 Cd 0.5000 0.5000 0.63636(7)
C1 C 0.8426(3) 0.39150(11) 0.5058(8)
C2 C 0.8349(3) 0.43172(11) 0.6343(8)
H1 H 0.8147 0.4513 0.5119
C3 C 0.9313(3) 0.44448(15) 0.7408(11)
H2 H 0.9243 0.4697 0.8198
H3 H 0.9779 0.4465 0.6103
H4 H 0.9526 0.4254 0.8595
C4 C 0.6713(3) 0.44046(11) 0.7844(7)
C5 C 0.6003(3) 0.43499(13) 0.9942(8)
H5 H 0.6231 0.4509 1.1335
C6 C 0.5952(4) 0.39303(17) 1.0797(14)
H6 H 0.5497 0.3909 1.2125
H7 H 0.6576 0.3847 1.1360
H8 H 0.5750 0.3765 0.9453
C7 C 0.3407(3) 0.44614(15) 0.4305(9)
C8 C 0.2659(3) 0.43600(12) 0.2359(9)
H9 H 0.2987 0.4242 0.0937
C9 C 0.2138(5) 0.47270(16) 0.1515(16)
H10 H 0.1668 0.4658 0.0288
H11 H 0.2593 0.4909 0.0822
H12 H 0.1820 0.4847 0.2899
C10 C 0.1421(3) 0.38528(12) 0.1888(9)
C11 C 0.0705(3) 0.35875(12) 0.3264(9)
H13 H 0.0312 0.3757 0.4327
C12 C 0.1193(3) 0.32856(15) 0.4901(10)
H14 H 0.0713 0.3128 0.5710
H15 H 0.1577 0.3418 0.6118
H16 H 0.1598 0.3119 0.3913
C13 C 0.6948(3) 0.27827(13) 0.0112(7)
H17 H 0.6513 0.2813 -0.1298
C14 C 0.6458(3) 0.29294(10) 0.2477(6)
C15 C 0.7189(4) 0.23449(14) 0.0499(11)
H18 H 0.7499 0.2243 -0.0952
H19 H 0.6606 0.2200 0.0801
H20 H 0.7613 0.2318 0.1889
C16 C 0.4921(3) 0.29752(11) 0.4706(7)
H21 H 0.5329 0.3108 0.5928
C17 C 0.4081(3) 0.32488(14) 0.4067(12)
H22 H 0.4326 0.3488 0.3355
H23 H 0.3726 0.3310 0.5540
H24 H 0.3663 0.3120 0.2905
C18 C 0.4540(2) 0.25932(11) 0.5844(7)
O1 O 0.8617(2) 0.36176(7) 0.6368(5)
O2 O 0.8314(2) 0.38941(9) 0.2787(5)
O3 O 0.6456(2) 0.45492(10) 0.5857(5)
O4 O 0.4070(2) 0.46926(9) 0.3630(6)
O5 O 0.3344(4) 0.4317(2) 0.6353(8)
O6 O 0.1435(3) 0.38689(12) -0.0341(7)
O7 O 0.69412(18) 0.30573(9) 0.4212(5)
O8 O 0.4644(2) 0.25399(9) 0.8099(6)
O9 O 0.4117(2) 0.23527(8) 0.4434(5)
N1 N 0.7619(2) 0.42968(9) 0.8252(7)
H25 H 0.7778 0.4212 0.9693
N2 N 0.5061(3) 0.45045(11) 0.9207(7)
H26 H 0.4761 0.4590 1.0580
H27 H 0.4712 0.4302 0.8616
N3 N 0.1985(2) 0.40758(11) 0.3356(8)
H28 H 0.1943 0.4048 0.4930
N4 N 0.0057(2) 0.33934(10) 0.1520(7)
H29 H -0.0001 0.3141 0.1535
H30 H -0.0267 0.3532 0.0479
N5 N 0.7839(2) 0.30022(10) -0.0316(6)
H31 H 0.7698 0.3226 -0.1139
H32 H 0.8230 0.2857 -0.1279
N6 N 0.5505(2) 0.28921(9) 0.2521(5)
H33 H 0.5218 0.2815 0.1199
Cd1A Cd 0.136873(18) 0.684008(8) 0.32039(5)
Cd1C Cd 0.363127(18) 0.184008(8) 0.67961(5)
Cd1_2 Cd -0.136873(18) 0.315992(8) 0.32039(5)
Cd1A_2 Cd 1.136873(18) 0.684008(8) 0.32039(5)
Cd1C_2 Cd 1.363127(18) 0.184008(8) 0.67961(5)
C1A C 0.1574(3) 0.60850(11) 0.5058(8)
C2A C 0.1651(3) 0.56828(11) 0.6343(8)
H1A H 0.1853 0.5487 0.5119
C3A C 0.0687(3) 0.55552(15) 0.7408(11)
H2A H 0.0757 0.5303 0.8198
H3A H 0.0221 0.5535 0.6103
H4A H 0.0474 0.5746 0.8595
C4A C 0.3287(3) 0.55954(11) 0.7844(7)
C5A C 0.3997(3) 0.56501(13) 0.9942(8)
H5A H 0.3769 0.5491 1.1335
C6A C 0.4048(4) 0.60697(17) 1.0797(14)
H6A H 0.4503 0.6091 1.2125
H7A H 0.3424 0.6153 1.1360
H8A H 0.4250 0.6235 0.9453
C7A C 0.6593(3) 0.55386(15) 0.4305(9)
C8A C 0.7341(3) 0.56400(12) 0.2359(9)
H9A H 0.7013 0.5758 0.0937
C9A C 0.7862(5) 0.52730(16) 0.1515(16)
H10A H 0.8332 0.5342 0.0288
H11A H 0.7407 0.5091 0.0822
H12A H 0.8180 0.5153 0.2899
C10A C 0.8579(3) 0.61472(12) 0.1888(9)
C11A C 0.9295(3) 0.64125(12) 0.3264(9)
H13A H 0.9688 0.6243 0.4327
C12A C 0.8807(3) 0.67144(15) 0.4901(10)
H14A H 0.9287 0.6872 0.5710
H15A H 0.8423 0.6582 0.6118
H16A H 0.8402 0.6881 0.3913
C13C C 1.1948(3) 0.22173(13) 0.9888(7)
H17C H 1.1513 0.2187 1.1298
C14C C 1.1458(3) 0.20706(10) 0.7523(6)
C15C C 1.2189(4) 0.26551(14) 0.9501(11)
H18C H 1.2499 0.2757 1.0952
H19C H 1.1606 0.2800 0.9199
H20C H 1.2613 0.2682 0.8111
C16C C 0.9921(3) 0.20248(11) 0.5294(7)
H21C H 1.0329 0.1892 0.4072
C17C C 0.9081(3) 0.17512(14) 0.5933(12)
H22C H 0.9326 0.1512 0.6645
H23C H 0.8726 0.1690 0.4460
H24C H 0.8663 0.1880 0.7095
C18C C 0.9540(2) 0.24068(11) 0.4156(7)
O1A O 0.1383(2) 0.63824(7) 0.6368(5)
O2A O 0.1686(2) 0.61059(9) 0.2787(5)
O3A O 0.3544(2) 0.54508(10) 0.5857(5)
O4A O 0.5930(2) 0.53074(9) 0.3630(6)
O5A O 0.6656(4) 0.5683(2) 0.6353(8)
O6A O 0.8565(3) 0.61311(12) -0.0341(7)
O7C O 1.19412(18) 0.19427(9) 0.5788(5)
O7A O 0.30588(18) 0.69427(9) 0.4212(5)
O8C O 0.9644(2) 0.24601(9) 0.1901(6)
O9C O 0.9117(2) 0.26473(8) 0.5566(5)
O9B O 0.0883(2) 0.73527(8) 0.5566(5)
N1A N 0.2381(2) 0.57032(9) 0.8252(7)
H25A H 0.2222 0.5788 0.9693
N2A N 0.4939(3) 0.54955(11) 0.9207(7)
H26A H 0.5239 0.5410 1.0580
H27A H 0.5288 0.5698 0.8616
N3A N 0.8015(2) 0.59242(11) 0.3356(8)
H28A H 0.8057 0.5952 0.4930
N4A N 0.9943(2) 0.66066(10) 0.1520(7)
N4_2 N 1.0057(2) 0.33934(10) 0.1520(7)
N4A_2 N -0.0057(2) 0.66066(10) 0.1520(7)
H29A H 1.0001 0.6859 0.1535
H29_2 H 0.9999 0.3141 0.1535
H29A_2 H 0.0001 0.6859 0.1535
H30A H 1.0267 0.6468 0.0479
H30_2 H 0.9733 0.3532 0.0479
H30A_2 H 0.0267 0.6468 0.0479
N5C N 1.2839(2) 0.19978(10) 1.0316(6)
N5A N 0.2161(2) 0.69978(10) -0.0316(6)
H31C H 1.2698 0.1774 1.1139
H31A H 0.2302 0.6774 -0.1139
H32C H 1.3230 0.2143 1.1279
H32A H 0.1770 0.7143 -0.1279
N6C N 1.0505(2) 0.21079(9) 0.7479(5)
H33C H 1.0218 0.2185 0.8801
loop_
_geom_bond_atom_site_label_1
_geom_bond_atom_site_label_2
_geom_bond_site_symmetry_1
_geom_bond_site_symmetry_2
Cd1 O1 1_555 1_555
Cd2 O3 1_555 1_555
C1 C2 1_555 1_555
C2 H1 1_555 1_555
C3 C2 1_555 1_555
H2 C3 1_555 1_555
H3 C3 1_555 1_555
H4 C3 1_555 1_555
C4 C5 1_555 1_555
C5 H5 1_555 1_555
C6 C5 1_555 1_555
H6 C6 1_555 1_555
H7 C6 1_555 1_555
H8 C6 1_555 1_555
C7 C8 1_555 1_555
C8 H9 1_555 1_555
C9 C8 1_555 1_555
H10 C9 1_555 1_555
H11 C9 1_555 1_555
H12 C9 1_555 1_555
C10 C11 1_555 1_555
C11 H13 1_555 1_555
C12 C11 1_555 1_555
H14 C12 1_555 1_555
H15 C12 1_555 1_555
H16 C12 1_555 1_555
C13 H17 1_555 1_555
C14 C13 1_555 1_555
C15 C13 1_555 1_555
H18 C15 1_555 1_555
H19 C15 1_555 1_555
H20 C15 1_555 1_555
C16 H21 1_555 1_555
C17 C16 1_555 1_555
H22 C17 1_555 1_555
H23 C17 1_555 1_555
H24 C17 1_555 1_555
C18 C16 1_555 1_555
O1 C1 1_555 1_555
O2 Cd1 1_555 1_555
O3 C4 1_555 1_555
O4 Cd2 1_555 1_555
O5 C7 1_555 1_555
O6 C10 1_555 1_555
O7 Cd1 1_555 1_555
O8 C18 1_555 1_555
O9 C18 1_555 1_555
N1 C2 1_555 1_555
H25 N1 1_555 1_555
N2 Cd2 1_555 1_555
H26 N2 1_555 1_555
H27 N2 1_555 1_555
N3 C8 1_555 1_555
H28 N3 1_555 1_555
N4 C11 1_555 1_555
H29 N4 1_555 1_555
H30 N4 1_555 1_555
N5 Cd1 1_555 1_555
H31 N5 1_555 1_555
H32 N5 1_555 1_555
N6 C14 1_555 1_555
H33 N6 1_555 1_555
Cd1A O1A 1_555 1_555
Cd1C O9 1_555 1_555
Cd1_2 N4 1_555 1_555
Cd1A_2 N4A 1_555 1_555
Cd1C_2 O7C 1_555 1_555
C1A C2A 1_555 1_555
C2A H1A 1_555 1_555
C3A C2A 1_555 1_555
H2A C3A 1_555 1_555
H3A C3A 1_555 1_555
H4A C3A 1_555 1_555
C4A C5A 1_555 1_555
C5A H5A 1_555 1_555
C6A C5A 1_555 1_555
H6A C6A 1_555 1_555
H7A C6A 1_555 1_555
H8A C6A 1_555 1_555
C7A C8A 1_555 1_555
C8A H9A 1_555 1_555
C9A C8A 1_555 1_555
H10A C9A 1_555 1_555
H11A C9A 1_555 1_555
H12A C9A 1_555 1_555
C10A C11A 1_555 1_555
C11A H13A 1_555 1_555
C12A C11A 1_555 1_555
H14A C12A 1_555 1_555
H15A C12A 1_555 1_555
H16A C12A 1_555 1_555
C13C H17C 1_555 1_555
C14C C13C 1_555 1_555
C15C C13C 1_555 1_555
H18C C15C 1_555 1_555
H19C C15C 1_555 1_555
H20C C15C 1_555 1_555
C16C H21C 1_555 1_555
C17C C16C 1_555 1_555
H22C C17C 1_555 1_555
H23C C17C 1_555 1_555
H24C C17C 1_555 1_555
C18C C16C 1_555 1_555
O1A C1A 1_555 1_555
O2A Cd1A 1_555 1_555
O3A Cd2 1_555 1_555
O4A Cd2 1_555 1_555
O5A C7A 1_555 1_555
O6A C10A 1_555 1_555
O7C C14C 1_555 1_555
O7A Cd1A 1_555 1_555
O8C C18C 1_555 1_555
O9C Cd1 1_555 1_555
O9B Cd1A 1_555 1_555
N1A C2A 1_555 1_555
H25A N1A 1_555 1_555
N2A Cd2 1_555 1_555
H26A N2A 1_555 1_555
H27A N2A 1_555 1_555
N3A C8A 1_555 1_555
H28A N3A 1_555 1_555
N4A C11A 1_555 1_555
N4_2 Cd1 1_555 1_555
N4A_2 Cd1A 1_555 1_555
H29A N4A 1_555 1_555
H29_2 N4_2 1_555 1_555
H29A_2 N4A_2 1_555 1_555
H30A N4A 1_555 1_555
H30_2 N4_2 1_555 1_555
H30A_2 N4A_2 1_555 1_555
N5C Cd1C_2 1_555 1_555
N5A Cd1A 1_555 1_555
H31C N5C 1_555 1_555
H31A N5A 1_555 1_555
H32C N5C 1_555 1_555
H32A N5A 1_555 1_555
N6C C14C 1_555 1_555
H33C N6C 1_555 1_555
C1 O2 1_555 1_555
C4 N1 1_555 1_555
C5 N2 1_555 1_555
C7 O4 1_555 1_555
C10 N3 1_555 1_555
C13 N5 1_555 1_555
C14 O7 1_555 1_555
C16 N6 1_555 1_555
C1A O2A 1_555 1_555
C4A O3A 1_555 1_555
C4A N1A 1_555 1_555
C5A N2A 1_555 1_555
C7A O4A 1_555 1_555
C10A N3A 1_555 1_555
C13C N5C 1_555 1_555
C16C N6C 1_555 1_555
C18C O9C 1_555 1_555

#END
