
#######################################################################
#
#                 Cambridge Crystallographic Data Centre
#                                CCDC 
#
#######################################################################
#
# If this CIF has been generated from an entry in the Cambridge 
# Structural Database, then it will include bibliographic, chemical, 
# crystal, experimental, refinement or atomic coordinate data resulting 
# from the CCDC's data processing and validation procedures.
#
#######################################################################

data_MITRUD
_symmetry_cell_setting           orthorhombic
_symmetry_space_group_name_H-M   'F d d 2'
_symmetry_Int_Tables_number      43
_space_group_name_Hall           'F 2 -2d'
loop_
_symmetry_equiv_pos_site_id
_symmetry_equiv_pos_as_xyz
1 x,y,z
2 -x,-y,z
3 1/4+x,1/4-y,1/4+z
4 1/4-x,1/4+y,1/4+z
5 x,1/2+y,1/2+z
6 -x,1/2-y,1/2+z
7 1/4+x,3/4-y,3/4+z
8 1/4-x,3/4+y,3/4+z
9 1/2+x,y,1/2+z
10 1/2-x,-y,1/2+z
11 3/4+x,1/4-y,3/4+z
12 3/4-x,1/4+y,3/4+z
13 1/2+x,1/2+y,z
14 1/2-x,1/2-y,z
15 3/4+x,3/4-y,1/4+z
16 3/4-x,3/4+y,1/4+z
_cell_length_a                   15.8227(10)
_cell_length_b                   45.308(3)
_cell_length_c                   12.7105(8)
_cell_angle_alpha                90
_cell_angle_beta                 90
_cell_angle_gamma                90
_cell_volume                     9112.09
loop_
_atom_site_label
_atom_site_type_symbol
_atom_site_fract_x
_atom_site_fract_y
_atom_site_fract_z
Cd1 Cd 0.0000 0.0000 0.42221(6)
O1 O 0.06977(14) 0.03782(5) 0.5049(2)
O2 O 0.12218(19) -0.00405(4) 0.5576(3)
O3 O 0.43238(12) 0.03830(4) 0.8390(2)
O4 O 0.3791(2) -0.00518(6) 0.7905(3)
O5 O 0.26968(16) 0.13301(6) 0.7468(3)
H6 H 0.2760 0.1211 0.7947
O6 O 0.22988(19) 0.13080(6) 0.5791(3)
C1 C 0.1247(2) 0.02243(8) 0.5542(3)
C2 C 0.1922(2) 0.03808(6) 0.6129(3)
C3 C 0.2508(2) 0.02420(6) 0.6634(4)
H7 H 0.2527 0.0037 0.6618
C4 C 0.31510(19) 0.04091(7) 0.7240(3)
C5 C 0.31514(18) 0.06976(7) 0.7228(3)
H8 H 0.3587 0.0799 0.7563
C6 C 0.2521(2) 0.08570(6) 0.6730(7)
C7 C 0.1931(2) 0.07093(8) 0.6115(3)
H9 H 0.1549 0.0814 0.5702
C8 C 0.3804(2) 0.02348(7) 0.7873(3)
C9 C 0.2534(2) 0.11889(7) 0.6591(4)
Cd1H Cd 0.5000 0.0000 0.92221(6)
Cd1H_2 Cd -0.5000 0.0000 0.92221(6)
O1A O -0.06977(14) -0.03782(5) 0.5049(2)
O2A O -0.12218(19) 0.00405(4) 0.5576(3)
O3A O -0.43238(12) -0.03830(4) 0.8390(2)
O3H O -0.06762(12) 0.03830(4) 0.3390(2)
O3I O 0.06762(12) -0.03830(4) 0.3390(2)
O4A O -0.3791(2) 0.00518(6) 0.7905(3)
O4H O -0.1209(2) -0.00518(6) 0.2905(3)
O4I O 0.1209(2) 0.00518(6) 0.2905(3)
O5A O -0.26968(16) -0.13301(6) 0.7468(3)
H6A H -0.2760 -0.1211 0.7947
O6A O -0.22988(19) -0.13080(6) 0.5791(3)
C1A C -0.1247(2) -0.02243(8) 0.5542(3)
C2A C -0.1922(2) -0.03808(6) 0.6129(3)
C3A C -0.2508(2) -0.02420(6) 0.6634(4)
H7A H -0.2527 -0.0037 0.6618
C4A C -0.31510(19) -0.04091(7) 0.7240(3)
C5A C -0.31514(18) -0.06976(7) 0.7228(3)
H8A H -0.3587 -0.0799 0.7563
C6A C -0.2521(2) -0.08570(6) 0.6730(7)
C7A C -0.1931(2) -0.07093(8) 0.6115(3)
H9A H -0.1549 -0.0814 0.5702
C8A C -0.3804(2) -0.02348(7) 0.7873(3)
C9A C -0.2534(2) -0.11889(7) 0.6591(4)
N1 N -0.15856(19) 0.17809(6) 0.0724(3)
H1 H -0.1576 0.1971 0.0719
H2 H -0.2061 0.1689 0.0719
N2 N 0.0736(2) 0.16362(10) 0.0505(4)
H3 H 0.1063 0.1570 0.0991
N3 N 0.1554(2) 0.17644(7) -0.2220(3)
H4 H 0.1315 0.1617 -0.2523
H5 H 0.1858 0.1885 -0.2582
C10 C -0.0786(2) 0.16131(8) 0.0743(4)
H10 H -0.0761 0.1486 0.0130
H11 H -0.0775 0.1489 0.1364
C11 C -0.0026(2) 0.18096(12) 0.0750(5)
H12 H -0.0096 0.1965 0.0233
H13 H 0.0034 0.1901 0.1437
C12 C 0.0908(3) 0.15825(10) -0.0631(4)
H14 H 0.1180 0.1392 -0.0707
H15 H 0.0374 0.1574 -0.1006
C13 C 0.1448(3) 0.18101(11) -0.1119(4)
H16 H 0.1196 0.2003 -0.1004
H17 H 0.1997 0.1809 -0.0781
O7 O 0.2796(3) 0.10967(9) 0.9462(4)
O8 O 0.1783(3) 0.13706(11) 0.1044(4)
loop_
_geom_bond_atom_site_label_1
_geom_bond_atom_site_label_2
_geom_bond_site_symmetry_1
_geom_bond_site_symmetry_2
Cd1 O1 1_555 1_555
N1 H1 1_555 1_555
H2 N1 1_555 1_555
N2 H3 1_555 1_555
N3 H4 1_555 1_555
H5 N3 1_555 1_555
O1 C1 1_555 1_555
O2 Cd1 1_555 1_555
O3 C8 1_555 1_555
O4 C8 1_555 1_555
O5 H6 1_555 1_555
O6 C9 1_555 1_555
C1 O2 1_555 1_555
C2 C1 1_555 1_555
C3 C2 1_555 1_555
H7 C3 1_555 1_555
C4 C3 1_555 1_555
C5 C4 1_555 1_555
H8 C5 1_555 1_555
C6 C5 1_555 1_555
C7 C2 1_555 1_555
H9 C7 1_555 1_555
C8 C4 1_555 1_555
C9 O5 1_555 1_555
C10 N1 1_555 1_555
H10 C10 1_555 1_555
H11 C10 1_555 1_555
C11 N2 1_555 1_555
H12 C11 1_555 1_555
H13 C11 1_555 1_555
C12 N2 1_555 1_555
H14 C12 1_555 1_555
H15 C12 1_555 1_555
C13 N3 1_555 1_555
H16 C13 1_555 1_555
H17 C13 1_555 1_555
Cd1H O3 1_555 1_555
Cd1H_2 O3A 1_555 1_555
O1A Cd1 1_555 1_555
O2A Cd1 1_555 1_555
O3A C8A 1_555 1_555
O3H Cd1 1_555 1_555
O3I Cd1 1_555 1_555
O4A Cd1H_2 1_555 1_555
O4H Cd1 1_555 1_555
O4I Cd1 1_555 1_555
O5A H6A 1_555 1_555
O6A C9A 1_555 1_555
C1A O1A 1_555 1_555
C2A C1A 1_555 1_555
C3A C2A 1_555 1_555
H7A C3A 1_555 1_555
C4A C3A 1_555 1_555
C5A C4A 1_555 1_555
H8A C5A 1_555 1_555
C6A C5A 1_555 1_555
C7A C2A 1_555 1_555
H9A C7A 1_555 1_555
C8A O4A 1_555 1_555
C9A O5A 1_555 1_555
O4 Cd1H 1_555 1_555
C6 C7 1_555 1_555
C6 C9 1_555 1_555
C10 C11 1_555 1_555
C12 C13 1_555 1_555
O2A C1A 1_555 1_555
C4A C8A 1_555 1_555
C6A C7A 1_555 1_555
C6A C9A 1_555 1_555

#END
