
#######################################################################
#
#                 Cambridge Crystallographic Data Centre
#                                CCDC 
#
#######################################################################
#
# If this CIF has been generated from an entry in the Cambridge 
# Structural Database, then it will include bibliographic, chemical, 
# crystal, experimental, refinement or atomic coordinate data resulting 
# from the CCDC's data processing and validation procedures.
#
#######################################################################

data_MITROX
_symmetry_cell_setting           monoclinic
_symmetry_space_group_name_H-M   'C 2/c'
_symmetry_Int_Tables_number      15
_space_group_name_Hall           '-C 2yn'
loop_
_symmetry_equiv_pos_site_id
_symmetry_equiv_pos_as_xyz
1 x,y,z
2 1/2+x,1/2+y,z
3 -x,y,1/2-z
4 1/2-x,1/2+y,1/2-z
5 -x,-y,-z
6 1/2-x,1/2-y,-z
7 x,-y,1/2+z
8 1/2+x,1/2-y,1/2+z
_cell_length_a                   23.241(8)
_cell_length_b                   4.7300(16)
_cell_length_c                   15.601(5)
_cell_angle_alpha                90
_cell_angle_beta                 96.234(5)
_cell_angle_gamma                90
_cell_volume                     1704.88
loop_
_atom_site_label
_atom_site_type_symbol
_atom_site_fract_x
_atom_site_fract_y
_atom_site_fract_z
Cd1 Cd 0.0000 0.0000 0.5000
O1 O -0.32145(8) -0.6385(4) 0.33508(12)
O2 O -0.18394(8) -0.5886(4) 0.44367(11)
O3 O -0.06231(8) -0.2737(4) 0.40981(11)
O4 O -0.00884(7) -0.6588(4) 0.39099(11)
C1 C -0.38100(11) -0.4007(6) 0.43049(17)
H1 H -0.3695 -0.3277 0.4893
H2 H -0.4042 -0.2515 0.3984
C2 C -0.32622(11) -0.4466(5) 0.38683(16)
C3 C -0.23641(11) -0.2238(6) 0.35843(17)
H3 H -0.2181 -0.0376 0.3717
H4 H -0.2504 -0.2257 0.2962
C4 C -0.19069(10) -0.4519(5) 0.37583(16)
C5 C -0.10474(10) -0.6499(6) 0.32189(16)
H5 H -0.0922 -0.6851 0.2642
H6 H -0.1136 -0.8352 0.3468
C6 C -0.05460(10) -0.5141(6) 0.37915(15)
N1 N -0.41820(9) -0.6455(5) 0.43749(14)
H7 H -0.3987 -0.7823 0.4711
H8 H -0.4289 -0.7205 0.3837
N2 N -0.28551(9) -0.2518(5) 0.40687(14)
H9 H -0.2887 -0.1377 0.4507
N3 N -0.15723(9) -0.4812(5) 0.31174(13)
H10 H -0.1673 -0.3962 0.2622
Cd1_2 Cd 0.0000 -1.0000 0.5000
Cd1A Cd -0.5000 -0.5000 0.5000
Cd1_3 Cd 0.0000 1.0000 0.5000
Cd1A_2 Cd 0.5000 0.5000 0.5000
O1D O 0.32145(8) 0.6385(4) 0.66492(12)
O2D O 0.18394(8) 0.5886(4) 0.55633(11)
O3D O 0.06231(8) 0.2737(4) 0.59019(11)
O4D O 0.00884(7) 0.6588(4) 0.60901(11)
O4_2 O -0.00884(7) 0.3412(4) 0.39099(11)
O4D_2 O 0.00884(7) -0.3412(4) 0.60901(11)
C1D C 0.38100(11) 0.4007(6) 0.56951(17)
H1D H 0.3695 0.3277 0.5107
H2D H 0.4042 0.2515 0.6016
C2D C 0.32622(11) 0.4466(5) 0.61317(16)
C3D C 0.23641(11) 0.2238(6) 0.64157(17)
H3D H 0.2181 0.0376 0.6283
H4D H 0.2504 0.2257 0.7038
C4D C 0.19069(10) 0.4519(5) 0.62417(16)
C5D C 0.10474(10) 0.6499(6) 0.67811(16)
H5D H 0.0922 0.6851 0.7358
H6D H 0.1136 0.8352 0.6532
C6D C 0.05460(10) 0.5141(6) 0.62085(15)
N1D N 0.41820(9) 0.6455(5) 0.56251(14)
N1A N 0.08180(9) -0.1455(5) 0.43749(14)
N1E N -0.08180(9) 0.1455(5) 0.56251(14)
H7D H 0.3987 0.7823 0.5289
H7A H 0.1013 -0.2823 0.4711
H7E H -0.1013 0.2823 0.5289
H8D H 0.4289 0.7205 0.6163
H8A H 0.0711 -0.2205 0.3837
H8E H -0.0711 0.2205 0.6163
N2D N 0.28551(9) 0.2518(5) 0.59313(14)
H9D H 0.2887 0.1377 0.5493
N3D N 0.15723(9) 0.4812(5) 0.68826(13)
H10D H 0.1673 0.3962 0.7378
O5 O 0.5000 0.4184(7) 0.2500
H11 H 0.496(2) 0.530(9) 0.290(3)
H11B H 0.504(2) 0.530(9) 0.210(3)
loop_
_geom_bond_atom_site_label_1
_geom_bond_atom_site_label_2
_geom_bond_site_symmetry_1
_geom_bond_site_symmetry_2
Cd1 O3 1_555 1_555
O1 C2 1_555 1_555
O2 C4 1_555 1_555
O3 C6 1_555 1_555
O4 C6 1_555 1_555
O5 H11 1_555 1_555
C1 H1 1_555 1_555
H2 C1 1_555 1_555
C2 C1 1_555 1_555
C3 H3 1_555 1_555
H4 C3 1_555 1_555
C4 C3 1_555 1_555
C5 H5 1_555 1_555
H6 C5 1_555 1_555
C6 C5 1_555 1_555
N1 C1 1_555 1_555
H7 N1 1_555 1_555
H8 N1 1_555 1_555
N2 C2 1_555 1_555
H9 N2 1_555 1_555
N3 C4 1_555 1_555
H10 N3 1_555 1_555
Cd1_2 O4 1_555 1_555
Cd1A N1 1_555 1_555
Cd1_3 O4D 1_555 1_555
Cd1A_2 N1D 1_555 1_555
O1D C2D 1_555 1_555
O2D C4D 1_555 1_555
O3D Cd1 1_555 1_555
O4D C6D 1_555 1_555
O4_2 Cd1 1_555 1_555
O4D_2 Cd1 1_555 1_555
C1D H1D 1_555 1_555
H2D C1D 1_555 1_555
C2D C1D 1_555 1_555
C3D H3D 1_555 1_555
H4D C3D 1_555 1_555
C4D C3D 1_555 1_555
C5D H5D 1_555 1_555
H6D C5D 1_555 1_555
C6D O3D 1_555 1_555
N1D C1D 1_555 1_555
N1A Cd1 1_555 1_555
N1E Cd1 1_555 1_555
H7D N1D 1_555 1_555
H7A N1A 1_555 1_555
H7E N1E 1_555 1_555
H8D N1D 1_555 1_555
H8A N1A 1_555 1_555
H8E N1E 1_555 1_555
N2D C2D 1_555 1_555
H9D N2D 1_555 1_555
N3D C4D 1_555 1_555
H10D N3D 1_555 1_555
H11B O5 1_555 1_555
C3 N2 1_555 1_555
C5 N3 1_555 1_555
C3D N2D 1_555 1_555
C5D C6D 1_555 1_555
C5D N3D 1_555 1_555

#END
