
#######################################################################
#
#                 Cambridge Crystallographic Data Centre
#                                CCDC 
#
#######################################################################
#
# If this CIF has been generated from an entry in the Cambridge 
# Structural Database, then it will include bibliographic, chemical, 
# crystal, experimental, refinement or atomic coordinate data resulting 
# from the CCDC's data processing and validation procedures.
#
#######################################################################

data_MITREN
_symmetry_cell_setting           monoclinic
_symmetry_space_group_name_H-M   'C 2'
_symmetry_Int_Tables_number      5
_space_group_name_Hall           'C 2y'
loop_
_symmetry_equiv_pos_site_id
_symmetry_equiv_pos_as_xyz
1 x,y,z
2 -x,y,-z
3 1/2+x,1/2+y,z
4 1/2-x,1/2+y,-z
_cell_length_a                   26.188(3)
_cell_length_b                   5.4915(6)
_cell_length_c                   9.0351(10)
_cell_angle_alpha                90
_cell_angle_beta                 107.3240(10)
_cell_angle_gamma                90
_cell_volume                     1240.41
loop_
_atom_site_label
_atom_site_type_symbol
_atom_site_fract_x
_atom_site_fract_y
_atom_site_fract_z
Cd1 Cd 0.0000 0.1558 0.0000
N1 N 0.13459(13) 0.3754(6) -0.4589(4)
H1 H 0.1268 0.2208 -0.4518
N2 N 0.15243(12) 0.1213(10) -0.1809(4)
H2 H 0.162(2) -0.022(13) -0.227(7)
N3 N 0.04659(14) -0.1663(7) -0.0592(4)
H3 H 0.0681 -0.2273 0.0332
H4 H 0.0220 -0.2855 -0.1025
O1 O 0.04145(11) 0.4419(6) -0.8332(3)
O2 O 0.07409(14) 0.1097(7) -0.6958(4)
O3 O 0.17595(12) 0.7081(6) -0.3315(4)
O4 O 0.08771(13) 0.2887(6) -0.0919(4)
C1 C 0.0734(2) 0.3319(9) -0.7199(6)
C2 C 0.11589(16) 0.4932(8) -0.6095(5)
H5 H 0.0993 0.6530 -0.5973
C3 C 0.16128(18) 0.5378(10) -0.6798(5)
H6 H 0.1883 0.6432 -0.6108
H7 H 0.1471 0.6168 -0.7810
H8 H 0.1777 0.3819 -0.6928
C4 C 0.16296(17) 0.4903(9) -0.3312(6)
C5 C 0.18157(18) 0.3447(8) -0.1814(5)
H9 H 0.1775 0.4498 -0.0952
C6 C 0.24134(16) 0.2878(8) -0.1490(6)
H10 H 0.2558 0.2244 -0.0434
H11 H 0.2605 0.4369 -0.1599
H12 H 0.2459 0.1657 -0.2232
C7 C 0.10675(16) 0.1122(10) -0.1394(5)
C8 C 0.08033(16) -0.1350(8) -0.1614(5)
H13 H 0.1084 -0.2649 -0.1392
C9 C 0.04490(17) -0.1573(9) -0.3295(5)
H14 H 0.0290 -0.3203 -0.3467
H15 H 0.0666 -0.1311 -0.3997
H16 H 0.0164 -0.0348 -0.3498
Cd1_2 Cd 0.0000 0.1558 -1.0000
Cd1_3 Cd 0.0000 0.1558 1.0000
N1A N -0.13459(13) 0.3754(6) 0.4589(4)
H1A H -0.1268 0.2208 0.4518
N2A N -0.15243(12) 0.1213(10) 0.1809(4)
H2A H -0.162(2) -0.022(13) 0.227(7)
N3A N -0.04659(14) -0.1663(7) 0.0592(4)
H3A H -0.0681 -0.2273 -0.0332
H4A H -0.0220 -0.2855 0.1025
O1A O -0.04145(11) 0.4419(6) 0.8332(3)
O1_2 O 0.04145(11) 0.4419(6) 0.1668(3)
O1A_2 O -0.04145(11) 0.4419(6) -0.1668(3)
O2A O -0.07409(14) 0.1097(7) 0.6958(4)
O3A O -0.17595(12) 0.7081(6) 0.3315(4)
O4A O -0.08771(13) 0.2887(6) 0.0919(4)
C1A C -0.0734(2) 0.3319(9) 0.7199(6)
C2A C -0.11589(16) 0.4932(8) 0.6095(5)
H5A H -0.0993 0.6530 0.5973
C3A C -0.16128(18) 0.5378(10) 0.6798(5)
H6A H -0.1883 0.6432 0.6108
H7A H -0.1471 0.6168 0.7810
H8A H -0.1777 0.3819 0.6928
C4A C -0.16296(17) 0.4903(9) 0.3312(6)
C5A C -0.18157(18) 0.3447(8) 0.1814(5)
H9A H -0.1775 0.4498 0.0952
C6A C -0.24134(16) 0.2878(8) 0.1490(6)
H10A H -0.2558 0.2244 0.0434
H11A H -0.2605 0.4369 0.1599
H12A H -0.2459 0.1657 0.2232
C7A C -0.10675(16) 0.1122(10) 0.1394(5)
C8A C -0.08033(16) -0.1350(8) 0.1614(5)
H13A H -0.1084 -0.2649 0.1392
C9A C -0.04490(17) -0.1573(9) 0.3295(5)
H14A H -0.0290 -0.3203 0.3467
H15A H -0.0666 -0.1311 0.3997
H16A H -0.0164 -0.0348 0.3498
loop_
_geom_bond_atom_site_label_1
_geom_bond_atom_site_label_2
_geom_bond_site_symmetry_1
_geom_bond_site_symmetry_2
Cd1 N3 1_555 1_555
N1 H1 1_555 1_555
N2 H2 1_555 1_555
N3 H3 1_555 1_555
H4 N3 1_555 1_555
O1 C1 1_555 1_555
O2 C1 1_555 1_555
O3 C4 1_555 1_555
O4 Cd1 1_555 1_555
C1 C2 1_555 1_555
C2 N1 1_555 1_555
H5 C2 1_555 1_555
C3 C2 1_555 1_555
H6 C3 1_555 1_555
H7 C3 1_555 1_555
H8 C3 1_555 1_555
C4 N1 1_555 1_555
C5 N2 1_555 1_555
H9 C5 1_555 1_555
C6 C5 1_555 1_555
H10 C6 1_555 1_555
H11 C6 1_555 1_555
H12 C6 1_555 1_555
C7 N2 1_555 1_555
C8 N3 1_555 1_555
H13 C8 1_555 1_555
C9 C8 1_555 1_555
H14 C9 1_555 1_555
H15 C9 1_555 1_555
H16 C9 1_555 1_555
Cd1_2 O1 1_555 1_555
Cd1_3 O1A 1_555 1_555
N1A H1A 1_555 1_555
N2A H2A 1_555 1_555
N3A Cd1 1_555 1_555
H3A N3A 1_555 1_555
H4A N3A 1_555 1_555
O1A C1A 1_555 1_555
O1_2 Cd1 1_555 1_555
O1A_2 Cd1 1_555 1_555
O2A C1A 1_555 1_555
O3A C4A 1_555 1_555
O4A Cd1 1_555 1_555
C1A C2A 1_555 1_555
C2A N1A 1_555 1_555
H5A C2A 1_555 1_555
C3A C2A 1_555 1_555
H6A C3A 1_555 1_555
H7A C3A 1_555 1_555
H8A C3A 1_555 1_555
C4A N1A 1_555 1_555
C5A N2A 1_555 1_555
H9A C5A 1_555 1_555
C6A C5A 1_555 1_555
H10A C6A 1_555 1_555
H11A C6A 1_555 1_555
H12A C6A 1_555 1_555
C7A N2A 1_555 1_555
C8A N3A 1_555 1_555
H13A C8A 1_555 1_555
C9A C8A 1_555 1_555
H14A C9A 1_555 1_555
H15A C9A 1_555 1_555
H16A C9A 1_555 1_555
O4 C7 1_555 1_555
C4 C5 1_555 1_555
C7 C8 1_555 1_555
O4A C7A 1_555 1_555
C4A C5A 1_555 1_555
C7A C8A 1_555 1_555

#END
