
#######################################################################
#
#                 Cambridge Crystallographic Data Centre
#                                CCDC 
#
#######################################################################
#
# If this CIF has been generated from an entry in the Cambridge 
# Structural Database, then it will include bibliographic, chemical, 
# crystal, experimental, refinement or atomic coordinate data resulting 
# from the CCDC's data processing and validation procedures.
#
#######################################################################

data_MITRIR
_symmetry_cell_setting           monoclinic
_symmetry_space_group_name_H-M   'C 2'
_symmetry_Int_Tables_number      5
_space_group_name_Hall           'C 2y'
loop_
_symmetry_equiv_pos_site_id
_symmetry_equiv_pos_as_xyz
1 x,y,z
2 -x,y,-z
3 1/2+x,1/2+y,z
4 1/2-x,1/2+y,-z
_cell_length_a                   15.257(4)
_cell_length_b                   10.489(3)
_cell_length_c                   8.092(2)
_cell_angle_alpha                90
_cell_angle_beta                 96.809(4)
_cell_angle_gamma                90
_cell_volume                     1285.83
loop_
_atom_site_label
_atom_site_type_symbol
_atom_site_fract_x
_atom_site_fract_y
_atom_site_fract_z
Cd1 Cd 0.0000 0.3100 1.0000
O1 O 0.12868(6) 0.43531(9) 0.98068(11)
O2 O 0.37699(7) 0.38282(9) 0.70170(12)
O3 O 0.40874(6) 0.63773(9) 1.00412(11)
O4 O 0.33223(6) 0.69136(9) 0.76153(11)
C1 C 0.01540(11) 0.61523(15) 0.7366(2)
H1 H -0.0360 0.6292 0.6538
H2 H 0.0594 0.6819 0.7260
H3 H -0.0030 0.6182 0.8485
C2 C 0.05567(7) 0.48482(11) 0.70790(14)
H4 H 0.0736 0.4807 0.5931
C3 C 0.13676(7) 0.46838(11) 0.83642(14)
C4 C 0.29555(7) 0.49705(11) 0.89834(14)
H5 H 0.2797 0.4913 1.0145
C5 C 0.35305(8) 0.38013(11) 0.86771(14)
H6 H 0.4082 0.3834 0.9479
C6 C 0.30498(9) 0.25654(13) 0.89486(17)
H7 H 0.2515 0.2511 0.8152
H8 H 0.2888 0.2546 1.0085
H9 H 0.3436 0.1841 0.8784
C7 C 0.34845(7) 0.61983(11) 0.88460(14)
N1 N -0.00769(7) 0.38184(10) 0.73035(13)
H10 H 0.0043(11) 0.325(3) 0.662(2)
H11 H -0.0632(13) 0.4146(19) 0.698(2)
N2 N 0.21410(6) 0.49886(9) 0.78561(13)
H13 H 0.2158(11) 0.5165(17) 0.689(2)
H21 H 0.4222(15) 0.417(2) 0.704(3)
Cd1B Cd 0.5000 0.8100 1.0000
Cd1B_2 Cd -0.5000 0.8100 1.0000
O1A O -0.12868(6) 0.43531(9) 1.01932(11)
O2A O -0.37699(7) 0.38282(9) 1.29830(12)
O3A O -0.40874(6) 0.63773(9) 0.99588(11)
O3B O -0.09126(6) 0.13773(9) 1.00412(11)
O3C O 0.09126(6) 0.13773(9) 0.99588(11)
O4A O -0.33223(6) 0.69136(9) 1.23847(11)
C1A C -0.01540(11) 0.61523(15) 1.2634(2)
H1A H 0.0360 0.6292 1.3462
H2A H -0.0594 0.6819 1.2740
H3A H 0.0030 0.6182 1.1515
C2A C -0.05567(7) 0.48482(11) 1.29210(14)
H4A H -0.0736 0.4807 1.4069
C3A C -0.13676(7) 0.46838(11) 1.16358(14)
C4A C -0.29555(7) 0.49705(11) 1.10166(14)
H5A H -0.2797 0.4913 0.9855
C5A C -0.35305(8) 0.38013(11) 1.13229(14)
H6A H -0.4082 0.3834 1.0521
C6A C -0.30498(9) 0.25654(13) 1.10514(17)
H7A H -0.2515 0.2511 1.1848
H8A H -0.2888 0.2546 0.9915
H9A H -0.3436 0.1841 1.1216
C7A C -0.34845(7) 0.61983(11) 1.11540(14)
N1A N 0.00769(7) 0.38184(10) 1.26965(13)
H10A H -0.0043(11) 0.325(3) 1.338(2)
H11A H 0.0632(13) 0.4146(19) 1.302(2)
N2A N -0.21410(6) 0.49886(9) 1.21439(13)
H13A H -0.2158(11) 0.5165(17) 1.311(2)
H21A H -0.4222(15) 0.417(2) 1.296(3)
O5 O 0.11512(10) 0.20104(12) 0.55708(16)
H17 H 0.0972(17) 0.140(3) 0.588(3)
H20 H 0.132(2) 0.187(3) 0.477(4)
O6 O 0.45380(9) 0.48490(12) 0.27627(15)
H16 H 0.4154(13) 0.4436(19) 0.282(2)
H18 H 0.4400(15) 0.522(2) 0.185(3)
O7 O 0.20230(8) 0.54051(13) 0.42587(14)
H14 H 0.2326(15) 0.479(2) 0.397(3)
H19 H 0.227(2) 0.601(3) 0.397(4)
O8 O 0.18734(8) 0.83635(10) 0.62946(15)
H12 H 0.1758(13) 0.834(2) 0.535(3)
H15 H 0.2297(14) 0.7750(18) 0.664(3)
loop_
_geom_bond_atom_site_label_1
_geom_bond_atom_site_label_2
_geom_bond_site_symmetry_1
_geom_bond_site_symmetry_2
Cd1 O1 1_555 1_555
O1 C3 1_555 1_555
O2 C5 1_555 1_555
O3 C7 1_555 1_555
O4 C7 1_555 1_555
O5 H17 1_555 1_555
O6 H16 1_555 1_555
O7 H14 1_555 1_555
O8 H12 1_555 1_555
C1 H1 1_555 1_555
H2 C1 1_555 1_555
H3 C1 1_555 1_555
C2 C1 1_555 1_555
H4 C2 1_555 1_555
C3 C2 1_555 1_555
C4 H5 1_555 1_555
C5 C4 1_555 1_555
H6 C5 1_555 1_555
C6 C5 1_555 1_555
H7 C6 1_555 1_555
H8 C6 1_555 1_555
H9 C6 1_555 1_555
C7 C4 1_555 1_555
N1 Cd1 1_555 1_555
H10 N1 1_555 1_555
H11 N1 1_555 1_555
N2 C3 1_555 1_555
H13 N2 1_555 1_555
H15 O8 1_555 1_555
H18 O6 1_555 1_555
H19 O7 1_555 1_555
H20 O5 1_555 1_555
H21 O2 1_555 1_555
Cd1B O3 1_555 1_555
Cd1B_2 O3A 1_555 1_555
O1A Cd1 1_555 1_555
O2A C5A 1_555 1_555
O3A C7A 1_555 1_555
O3B Cd1 1_555 1_555
O3C Cd1 1_555 1_555
O4A C7A 1_555 1_555
C1A H1A 1_555 1_555
H2A C1A 1_555 1_555
H3A C1A 1_555 1_555
C2A C1A 1_555 1_555
H4A C2A 1_555 1_555
C3A O1A 1_555 1_555
C4A H5A 1_555 1_555
C5A C4A 1_555 1_555
H6A C5A 1_555 1_555
C6A C5A 1_555 1_555
H7A C6A 1_555 1_555
H8A C6A 1_555 1_555
H9A C6A 1_555 1_555
C7A C4A 1_555 1_555
N1A Cd1 1_555 1_555
H10A N1A 1_555 1_555
H11A N1A 1_555 1_555
N2A C3A 1_555 1_555
H13A N2A 1_555 1_555
H21A O2A 1_555 1_555
C2 N1 1_555 1_555
C4 N2 1_555 1_555
C2A C3A 1_555 1_555
C2A N1A 1_555 1_555
C4A N2A 1_555 1_555

#END
