
#######################################################################
#
#                 Cambridge Crystallographic Data Centre
#                                CCDC 
#
#######################################################################
#
# If this CIF has been generated from an entry in the Cambridge 
# Structural Database, then it will include bibliographic, chemical, 
# crystal, experimental, refinement or atomic coordinate data resulting 
# from the CCDC's data processing and validation procedures.
#
#######################################################################

data_MITSEO
_symmetry_cell_setting           tetragonal
_symmetry_space_group_name_H-M   'P 4 21 2'
_symmetry_Int_Tables_number      90
_space_group_name_Hall           'P 4ab 2ab'
loop_
_symmetry_equiv_pos_site_id
_symmetry_equiv_pos_as_xyz
1 x,y,z
2 -x,-y,z
3 1/2-y,1/2+x,z
4 1/2+y,1/2-x,z
5 1/2-x,1/2+y,-z
6 1/2+x,1/2-y,-z
7 y,x,-z
8 -y,-x,-z
_cell_length_a                   20.1824(14)
_cell_length_b                   20.1824(14)
_cell_length_c                   12.6052(18)
_cell_angle_alpha                90
_cell_angle_beta                 90
_cell_angle_gamma                90
_cell_volume                     5134.47
loop_
_atom_site_label
_atom_site_type_symbol
_atom_site_fract_x
_atom_site_fract_y
_atom_site_fract_z
N1 N 0.5184(3) 0.3188(3) 0.2202(5)
C10 C 0.5588(4) 0.2672(3) 0.2742(7)
H4 H 0.5971 0.2578 0.2304
H5 H 0.5748 0.2854 0.3407
C11 C 0.5260(4) 0.2063(4) 0.2963(7)
H6 H 0.5561 0.1768 0.3316
H7 H 0.5115 0.1866 0.2310
H8 H 0.4884 0.2145 0.3410
C12 C 0.4643(5) 0.3417(5) 0.2889(10)
H9 H 0.4437 0.3043 0.3243
H10 H 0.4308 0.3642 0.2470
C13 C 0.4946(8) 0.3906(6) 0.3731(9)
H11 H 0.4601 0.4069 0.4185
H12 H 0.5153 0.4272 0.3372
H13 H 0.5271 0.3677 0.4149
C14 C 0.4906(5) 0.2926(5) 0.1136(9)
H14 H 0.4610 0.2559 0.1285
H15 H 0.4644 0.3274 0.0810
C15 C 0.5403(6) 0.2703(6) 0.0369(9)
H16 H 0.5186 0.2559 -0.0268
H17 H 0.5651 0.2342 0.0666
H18 H 0.5698 0.3063 0.0207
Cd1 Cd 0.727615(16) 0.199761(16) 0.39967(3)
Cd2 Cd 1.0000 0.0000 0.0000
Cl1 Cl 0.69335(10) 0.15729(10) 0.22634(14)
O1 O 0.84007(18) 0.2038(2) 0.3786(3)
O2 O 0.89251(17) 0.2586(2) 0.5063(4)
O3 O 0.9669(2) 0.0866(2) 0.1052(4)
O4 O 1.0730(2) 0.0732(2) 0.1280(3)
O5 O 1.19307(18) 0.2262(2) 0.3673(4)
O6 O 1.13847(19) 0.2767(2) 0.4985(4)
C1 C 0.8902(2) 0.2268(2) 0.4213(4)
C2 C 0.9565(2) 0.2124(3) 0.3708(4)
C3 C 0.9584(3) 0.1716(3) 0.2820(4)
H1 H 0.9190 0.1572 0.2515
C4 C 1.0186(3) 0.1522(3) 0.2382(4)
C5 C 1.0767(3) 0.1759(3) 0.2819(4)
H2 H 1.1170 0.1628 0.2533
C6 C 1.0760(2) 0.2195(3) 0.3688(4)
C7 C 1.0144(3) 0.2369(3) 0.4119(4)
H3 H 1.0129 0.2656 0.4696
C8 C 1.0201(3) 0.1009(3) 0.1509(4)
C9 C 1.1409(3) 0.2437(3) 0.4148(5)
Cd1A Cd 1.272385(16) -0.199761(16) 0.39967(3)
Cd1F Cd 1.199761(16) -0.272385(16) -0.39967(3)
Cd1G Cd 0.800239(16) 0.272385(16) -0.39967(3)
Cd1G_2 Cd 0.800239(16) 0.272385(16) 0.60033(3)
Cd1B Cd 1.300239(16) 0.227615(16) 0.39967(3)
Cd1E Cd 1.227615(16) 0.300239(16) 0.60033(3)
Cd1F_2 Cd 1.199761(16) -0.272385(16) 0.60033(3)
Cd1C Cd 0.699761(16) -0.227615(16) 0.39967(3)
Cd1D Cd 0.772385(16) -0.300239(16) 0.60033(3)
Cd1A_2 Cd 1.272385(16) -0.199761(16) -0.60033(3)
Cd1E_2 Cd 1.227615(16) 0.300239(16) -0.39967(3)
Cd1B_2 Cd 1.300239(16) 0.227615(16) -0.60033(3)
Cd1_2 Cd 0.727615(16) 0.199761(16) -0.60033(3)
Cd1D_2 Cd 0.772385(16) -0.300239(16) -0.39967(3)
Cd1C_2 Cd 0.699761(16) -0.227615(16) -0.60033(3)
Cl1A Cl 1.30665(10) -0.15729(10) 0.22634(14)
Cl1F Cl 1.15729(10) -0.30665(10) -0.22634(14)
Cl1G Cl 0.84271(10) 0.30665(10) -0.22634(14)
O1A O 1.15993(18) -0.2038(2) 0.3786(3)
O1F O 1.2038(2) -0.15993(18) -0.3786(3)
O1G O 0.7962(2) 0.15993(18) -0.3786(3)
O2A O 1.10749(17) -0.2586(2) 0.5063(4)
O2F O 1.2586(2) -0.10749(17) -0.5063(4)
O2G O 0.7414(2) 0.10749(17) -0.5063(4)
O2G_2 O 0.7414(2) 0.10749(17) 0.4937(4)
O2F_2 O 1.2586(2) -0.10749(17) 0.4937(4)
O2A_2 O 1.10749(17) -0.2586(2) -0.4937(4)
O2_2 O 0.89251(17) 0.2586(2) -0.4937(4)
O3A O 1.0331(2) -0.0866(2) 0.1052(4)
O3F O 1.0866(2) -0.0331(2) -0.1052(4)
O3G O 0.9134(2) 0.0331(2) -0.1052(4)
O4A O 0.9270(2) -0.0732(2) 0.1280(3)
O4F O 1.0732(2) 0.0730(2) -0.1280(3)
O4G O 0.9268(2) -0.0730(2) -0.1280(3)
O5A O 0.80693(18) -0.2262(2) 0.3673(4)
O5F O 1.2262(2) 0.19307(18) -0.3673(4)
O5G O 0.7738(2) -0.19307(18) -0.3673(4)
O5C O 0.7262(2) 0.30693(18) 0.3673(4)
O5B O 1.2738(2) -0.30693(18) 0.3673(4)
O5D O 1.30693(18) -0.2738(2) -0.3673(4)
O5E O 0.69307(18) 0.2738(2) -0.3673(4)
O6A O 0.86153(19) -0.2767(2) 0.4985(4)
O6F O 1.2767(2) 0.13847(19) -0.4985(4)
O6G O 0.7233(2) -0.13847(19) -0.4985(4)
O6E O 0.63847(19) 0.2233(2) 0.5015(4)
O6D O 1.36153(19) -0.2233(2) 0.5015(4)
O6B O 1.2233(2) -0.36153(19) -0.5015(4)
O6C O 0.7767(2) 0.36153(19) -0.5015(4)
C1A C 1.1098(2) -0.2268(2) 0.4213(4)
C1F C 1.2268(2) -0.1098(2) -0.4213(4)
C1G C 0.7732(2) 0.1098(2) -0.4213(4)
C2A C 1.0435(2) -0.2124(3) 0.3708(4)
C2F C 1.2124(3) -0.0435(2) -0.3708(4)
C2G C 0.7876(3) 0.0435(2) -0.3708(4)
C3A C 1.0416(3) -0.1716(3) 0.2820(4)
C3F C 1.1716(3) -0.0416(3) -0.2820(4)
C3G C 0.8284(3) 0.0416(3) -0.2820(4)
H1A H 1.0810 -0.1572 0.2515
H1F H 1.1572 -0.0810 -0.2515
H1G H 0.8428 0.0810 -0.2515
C4A C 0.9814(3) -0.1522(3) 0.2382(4)
C4F C 1.1522(3) 0.0186(3) -0.2382(4)
C4G C 0.8478(3) -0.0186(3) -0.2382(4)
C5A C 0.9233(3) -0.1759(3) 0.2819(4)
C5F C 1.1759(3) 0.0767(3) -0.2819(4)
C5G C 0.8241(3) -0.0767(3) -0.2819(4)
H2A H 0.8830 -0.1628 0.2533
H2F H 1.1628 0.1170 -0.2533
H2G H 0.8372 -0.1170 -0.2533
C6A C 0.9240(2) -0.2195(3) 0.3688(4)
C6F C 1.2195(3) 0.0760(2) -0.3688(4)
C6G C 0.7805(3) -0.0760(2) -0.3688(4)
C7A C 0.9856(3) -0.2369(3) 0.4119(4)
C7F C 1.2369(3) 0.0144(3) -0.4119(4)
C7G C 0.7631(3) -0.0144(3) -0.4119(4)
H3A H 0.9871 -0.2656 0.4696
H3F H 1.2656 0.0129 -0.4696
H3G H 0.7344 -0.0129 -0.4696
C8A C 0.9799(3) -0.1009(3) 0.1509(4)
C8F C 1.1009(3) 0.0201(3) -0.1509(4)
C8G C 0.8991(3) -0.0201(3) -0.1509(4)
C9A C 0.8591(3) -0.2437(3) 0.4148(5)
C9F C 1.2437(3) 0.1409(3) -0.4148(5)
C9G C 0.7563(3) -0.1409(3) -0.4148(5)
loop_
_geom_bond_atom_site_label_1
_geom_bond_atom_site_label_2
_geom_bond_site_symmetry_1
_geom_bond_site_symmetry_2
Cd1 Cl1 1_555 1_555
Cd2 O3 1_555 1_555
N1 C10 1_555 1_555
O1 Cd1 1_555 1_555
O2 C1 1_555 1_555
O3 C8 1_555 1_555
O4 Cd2 1_555 1_555
O5 C9 1_555 1_555
O6 C9 1_555 1_555
C1 O1 1_555 1_555
C2 C1 1_555 1_555
C3 C2 1_555 1_555
H1 C3 1_555 1_555
C4 C3 1_555 1_555
C5 C4 1_555 1_555
H2 C5 1_555 1_555
C6 C5 1_555 1_555
C7 C2 1_555 1_555
H3 C7 1_555 1_555
C8 O4 1_555 1_555
C9 C6 1_555 1_555
C10 H4 1_555 1_555
H5 C10 1_555 1_555
C11 C10 1_555 1_555
H6 C11 1_555 1_555
H7 C11 1_555 1_555
H8 C11 1_555 1_555
C12 N1 1_555 1_555
H9 C12 1_555 1_555
H10 C12 1_555 1_555
C13 C12 1_555 1_555
H11 C13 1_555 1_555
H12 C13 1_555 1_555
H13 C13 1_555 1_555
C14 N1 1_555 1_555
H14 C14 1_555 1_555
H15 C14 1_555 1_555
C15 C14 1_555 1_555
H16 C15 1_555 1_555
H17 C15 1_555 1_555
H18 C15 1_555 1_555
Cd1A Cl1A 1_555 1_555
Cd1F Cl1F 1_555 1_555
Cd1G Cl1G 1_555 1_555
Cd1G_2 O2 1_555 1_555
Cd1B O5 1_555 1_555
Cd1E O6 1_555 1_555
Cd1F_2 O2A 1_555 1_555
Cd1C O5A 1_555 1_555
Cd1D O6A 1_555 1_555
Cd1A_2 O2F 1_555 1_555
Cd1E_2 O5F 1_555 1_555
Cd1B_2 O6F 1_555 1_555
Cd1_2 O2G 1_555 1_555
Cd1D_2 O5G 1_555 1_555
Cd1C_2 O6G 1_555 1_555
O1A Cd1A 1_555 1_555
O1F Cd1F 1_555 1_555
O1G Cd1G 1_555 1_555
O2A C1A 1_555 1_555
O2F C1F 1_555 1_555
O2G C1G 1_555 1_555
O2G_2 Cd1 1_555 1_555
O2F_2 Cd1A 1_555 1_555
O2A_2 Cd1F 1_555 1_555
O2_2 Cd1G 1_555 1_555
O3A Cd2 1_555 1_555
O3F Cd2 1_555 1_555
O3G Cd2 1_555 1_555
O4A Cd2 1_555 1_555
O4F Cd2 1_555 1_555
O4G Cd2 1_555 1_555
O5A C9A 1_555 1_555
O5F C9F 1_555 1_555
O5G C9G 1_555 1_555
O5C Cd1 1_555 1_555
O5B Cd1A 1_555 1_555
O5D Cd1F 1_555 1_555
O5E Cd1G 1_555 1_555
O6A C9A 1_555 1_555
O6F C9F 1_555 1_555
O6G C9G 1_555 1_555
O6E Cd1 1_555 1_555
O6D Cd1A 1_555 1_555
O6B Cd1F 1_555 1_555
O6C Cd1G 1_555 1_555
C1A O1A 1_555 1_555
C1F O1F 1_555 1_555
C1G O1G 1_555 1_555
C2A C1A 1_555 1_555
C2F C1F 1_555 1_555
C2G C1G 1_555 1_555
C3A C2A 1_555 1_555
C3F C2F 1_555 1_555
C3G C2G 1_555 1_555
H1A C3A 1_555 1_555
H1F C3F 1_555 1_555
H1G C3G 1_555 1_555
C4A C3A 1_555 1_555
C4F C3F 1_555 1_555
C4G C3G 1_555 1_555
C5A C4A 1_555 1_555
C5F C4F 1_555 1_555
C5G C4G 1_555 1_555
H2A C5A 1_555 1_555
H2F C5F 1_555 1_555
H2G C5G 1_555 1_555
C6A C5A 1_555 1_555
C6F C5F 1_555 1_555
C6G C5G 1_555 1_555
C7A C2A 1_555 1_555
C7F C2F 1_555 1_555
C7G C2G 1_555 1_555
H3A C7A 1_555 1_555
H3F C7F 1_555 1_555
H3G C7G 1_555 1_555
C8A O3A 1_555 1_555
C8F O3F 1_555 1_555
C8G O3G 1_555 1_555
C9A C6A 1_555 1_555
C9F C6F 1_555 1_555
C9G C6G 1_555 1_555
C4 C8 1_555 1_555
C6 C7 1_555 1_555
O4A C8A 1_555 1_555
O4F C8F 1_555 1_555
O4G C8G 1_555 1_555
C4A C8A 1_555 1_555
C4F C8F 1_555 1_555
C4G C8G 1_555 1_555
C6A C7A 1_555 1_555
C6F C7F 1_555 1_555
C6G C7G 1_555 1_555

#END
