
#######################################################################
#
#                 Cambridge Crystallographic Data Centre
#                                CCDC 
#
#######################################################################
#
# If this CIF has been generated from an entry in the Cambridge 
# Structural Database, then it will include bibliographic, chemical, 
# crystal, experimental, refinement or atomic coordinate data resulting 
# from the CCDC's data processing and validation procedures.
#
#######################################################################

data_MITSOY
_symmetry_cell_setting           monoclinic
_symmetry_space_group_name_H-M   'P 21/n'
_symmetry_Int_Tables_number      14
_space_group_name_Hall           '-P 2yn'
loop_
_symmetry_equiv_pos_site_id
_symmetry_equiv_pos_as_xyz
1 x,y,z
2 1/2-x,1/2+y,1/2-z
3 -x,-y,-z
4 1/2+x,1/2-y,1/2+z
_cell_length_a                   11.061(2)
_cell_length_b                   16.136(3)
_cell_length_c                   12.343(3)
_cell_angle_alpha                90
_cell_angle_beta                 102.48(3)
_cell_angle_gamma                90
_cell_volume                     2150.93
loop_
_atom_site_label
_atom_site_type_symbol
_atom_site_fract_x
_atom_site_fract_y
_atom_site_fract_z
Zn1 Zn 0.81157(4) 1.07957(3) 0.48202(3)
O1 O 0.7196(3) 0.9884(2) 0.4016(3)
O2 O 0.8409(3) 0.9056(2) 0.3297(3)
O3 O 0.3266(3) 0.8862(2) 0.4556(2)
O4 O 0.2394(3) 0.7749(2) 0.3681(3)
O5 O 0.6525(3) 0.6658(2) 0.1125(3)
O6 O 0.4626(3) 0.6264(2) 0.1191(3)
O7 O 0.9401(2) 1.03491(19) 0.6015(2)
C1 C 0.7424(4) 0.9241(3) 0.3516(4)
C2 C 0.6350(4) 0.8656(3) 0.3200(3)
C3 C 0.6403(4) 0.8003(3) 0.2481(4)
H1 H 0.7095 0.7945 0.2174
C4 C 0.5447(4) 0.7439(3) 0.2212(3)
C5 C 0.4421(3) 0.7528(3) 0.2663(3)
H2 H 0.3771 0.7153 0.2478
C6 C 0.4347(4) 0.8175(3) 0.3394(3)
C7 C 0.5317(4) 0.8738(3) 0.3647(3)
H3 H 0.5268 0.9177 0.4125
C8 C 0.5526(4) 0.6725(3) 0.1450(4)
C9 C 0.3229(4) 0.8257(3) 0.3901(3)
Zn1B Zn 0.18843(4) 0.92043(3) 0.51798(3)
Zn1A Zn 0.68843(4) 0.57957(3) 0.01798(3)
O3B O 0.6734(3) 1.1138(2) 0.5444(2)
O5A O 0.8475(3) 1.1658(2) 0.3875(3)
N1 N 0.4595(4) 0.1892(3) 0.2425(5)
C10 C 0.5219(7) 0.2578(5) 0.3164(8)
H4 H 0.5951 0.2354 0.3655
H5 H 0.5492 0.2996 0.2705
C11 C 0.4478(9) 0.2967(7) 0.3818(8)
H6 H 0.4270 0.2569 0.4337
H7 H 0.3713 0.3158 0.3342
C12 C 0.5144(13) 0.3693(7) 0.4450(8)
H8 H 0.4619 0.3949 0.4879
H9 H 0.5347 0.4089 0.3936
H10 H 0.5890 0.3503 0.4936
C13 C 0.4436(9) 0.1136(6) 0.3037(9)
H11 H 0.4965 0.0722 0.2809
H12 H 0.4791 0.1255 0.3811
C14 C 0.3327(14) 0.0750(8) 0.3020(12)
H13 H 0.2840 0.1129 0.3361
H14 H 0.3509 0.0276 0.3512
C15 C 0.2539(10) 0.0460(7) 0.2031(8)
H15 H 0.1808 0.0221 0.2203
H16 H 0.2964 0.0048 0.1694
H17 H 0.2310 0.0915 0.1527
C16 C 0.5604(13) 0.1672(11) 0.1752(9)
H18 H 0.6315 0.2031 0.1994
H19 H 0.5874 0.1106 0.1918
C17 C 0.5284(13) 0.1736(12) 0.0875(10)
H20 H 0.5082 0.2310 0.0687
H21 H 0.4545 0.1404 0.0624
C18 C 0.6371(14) 0.1426(12) 0.0285(10)
H22 H 0.6097 0.1471 -0.0506
H23 H 0.6570 0.0859 0.0481
H24 H 0.7093 0.1764 0.0528
loop_
_geom_bond_atom_site_label_1
_geom_bond_atom_site_label_2
_geom_bond_site_symmetry_1
_geom_bond_site_symmetry_2
Zn1 O1 1_555 1_555
N1 C10 1_555 1_555
O1 C1 1_555 1_555
O2 C1 1_555 1_555
O3 C9 1_555 1_555
O4 C9 1_555 1_555
O5 C8 1_555 1_555
O6 C8 1_555 1_555
O7 Zn1 1_555 1_555
C1 C2 1_555 1_555
C2 C3 1_555 1_555
C3 H1 1_555 1_555
C4 C3 1_555 1_555
C5 C4 1_555 1_555
H2 C5 1_555 1_555
C6 C5 1_555 1_555
C7 C2 1_555 1_555
H3 C7 1_555 1_555
C8 C4 1_555 1_555
C9 C6 1_555 1_555
C10 H4 1_555 1_555
H5 C10 1_555 1_555
C11 C10 1_555 1_555
H6 C11 1_555 1_555
H7 C11 1_555 1_555
C12 C11 1_555 1_555
H8 C12 1_555 1_555
H9 C12 1_555 1_555
H10 C12 1_555 1_555
C13 N1 1_555 1_555
H11 C13 1_555 1_555
H12 C13 1_555 1_555
C14 C13 1_555 1_555
H13 C14 1_555 1_555
H14 C14 1_555 1_555
C15 C14 1_555 1_555
H15 C15 1_555 1_555
H16 C15 1_555 1_555
H17 C15 1_555 1_555
C16 N1 1_555 1_555
H18 C16 1_555 1_555
H19 C16 1_555 1_555
C17 C16 1_555 1_555
H20 C17 1_555 1_555
H21 C17 1_555 1_555
C18 C17 1_555 1_555
H22 C18 1_555 1_555
H23 C18 1_555 1_555
H24 C18 1_555 1_555
Zn1B O3 1_555 1_555
Zn1A O5 1_555 1_555
O3B Zn1 1_555 1_555
O5A Zn1 1_555 1_555
C6 C7 1_555 1_555

#END
