
#######################################################################
#
#                 Cambridge Crystallographic Data Centre
#                                CCDC 
#
#######################################################################
#
# If this CIF has been generated from an entry in the Cambridge 
# Structural Database, then it will include bibliographic, chemical, 
# crystal, experimental, refinement or atomic coordinate data resulting 
# from the CCDC's data processing and validation procedures.
#
#######################################################################

data_MITSIS
_symmetry_cell_setting           monoclinic
_symmetry_space_group_name_H-M   'P 21/c'
_symmetry_Int_Tables_number      14
_space_group_name_Hall           '-P 2ybc'
loop_
_symmetry_equiv_pos_site_id
_symmetry_equiv_pos_as_xyz
1 x,y,z
2 -x,1/2+y,1/2-z
3 -x,-y,-z
4 x,1/2-y,1/2+z
_cell_length_a                   10.243(2)
_cell_length_b                   36.485(8)
_cell_length_c                   17.971(4)
_cell_angle_alpha                90
_cell_angle_beta                 99.753(4)
_cell_angle_gamma                90
_cell_volume                     6618.98
loop_
_atom_site_label
_atom_site_type_symbol
_atom_site_fract_x
_atom_site_fract_y
_atom_site_fract_z
C28 C 0.4308(15) 0.0630(4) 0.6702(8)
H10 H 0.5040 0.0636 0.6424
H11 H 0.4143 0.0376 0.6810
C29 C 0.3256(19) 0.0760(5) 0.6265(10)
H12 H 0.3076 0.0616 0.5811
H13 H 0.3411 0.1010 0.6139
H14 H 0.2511 0.0748 0.6524
C30 C 0.3746(15) 0.0852(4) 0.7923(8)
H15 H 0.2975 0.0975 0.7645
H16 H 0.4057 0.0994 0.8376
C31 C 0.3341(16) 0.0448(4) 0.8154(9)
H17 H 0.2683 0.0465 0.8475
H18 H 0.4109 0.0324 0.8419
H19 H 0.2989 0.0312 0.7707
C32 C 0.6114(16) 0.0708(4) 0.7922(10)
H20 H 0.6189 0.0807 0.8428
H21 H 0.6076 0.0443 0.7968
C33 C 0.745(2) 0.0803(6) 0.7628(11)
H22 H 0.8193 0.0710 0.7979
H23 H 0.7536 0.1064 0.7585
H24 H 0.7446 0.0692 0.7143
N1 N 0.4751(10) 0.0835(2) 0.7474(5)
Cd1 Cd 0.62550(3) 0.030608(10) 0.447297(19)
Cd2 Cd 0.84219(4) 0.004800(13) 0.99581(2)
Cd3 Cd 0.52492(5) 0.203076(12) 0.84699(3)
C1 C 0.6577(5) -0.01746(15) 0.5955(3)
C2 C 0.7951(4) -0.01690(14) 0.6413(3)
C3 C 0.8115(5) -0.01342(15) 0.7186(3)
H1 H 0.7372 -0.0117 0.7418
C4 C 0.9353(5) -0.01242(16) 0.7620(3)
C5 C 0.9526(6) -0.00957(19) 0.8468(3)
C6 C 1.0458(5) -0.01640(16) 0.7263(3)
H2 H 1.1303 -0.0169 0.7551
C7 C 1.0307(5) -0.01962(15) 0.6495(3)
C8 C 1.1507(5) -0.02384(16) 0.6126(3)
C9 C 0.9042(5) -0.01976(15) 0.6067(3)
H3 H 0.8936 -0.0218 0.5544
C10 C 0.5981(6) 0.10190(17) 0.4867(3)
C11 C 0.5786(6) 0.13920(16) 0.5149(3)
C12 C 0.5683(6) 0.14498(16) 0.5885(3)
H4 H 0.5787 0.1251 0.6215
C13 C 0.5428(7) 0.17948(15) 0.6166(4)
C14 C 0.5262(7) 0.18452(16) 0.6968(4)
C15 C 0.5329(8) 0.20896(17) 0.5667(4)
H5 H 0.5158 0.2322 0.5838
C16 C 0.5482(7) 0.20428(17) 0.4914(4)
C17 C 0.5408(7) 0.2367(2) 0.4404(4)
C18 C 0.5688(7) 0.16943(17) 0.4657(4)
H6 H 0.5762 0.1659 0.4153
C19 C 1.2824(8) 0.1773(2) 0.8716(5)
C20 C 1.1598(6) 0.15979(19) 0.8908(4)
C21 C 1.1653(6) 0.12516(19) 0.9223(4)
H7 H 1.2455 0.1126 0.9323
C22 C 1.0516(7) 0.1093(2) 0.9389(4)
C23 C 1.0572(12) 0.0706(3) 0.9695(4)
C24 C 0.9321(6) 0.1286(2) 0.9238(4)
H8 H 0.8555 0.1179 0.9352
C25 C 0.9258(6) 0.1621(2) 0.8933(4)
C26 C 0.7905(9) 0.1805(3) 0.8782(6)
C27 C 1.0361(7) 0.1787(2) 0.8737(5)
H9 H 1.0302 0.2015 0.8501
O1 O 0.6438(3) -0.01815(10) 0.52507(19)
O2 O 0.5622(3) -0.01870(13) 0.6307(2)
O3 O 0.6133(5) 0.07562(11) 0.5337(2)
O4 O 0.6000(6) 0.09599(12) 0.4189(3)
O5 O 0.8493(5) -0.00460(15) 0.8743(2)
O6 O 1.0683(4) -0.01094(16) 0.8821(2)
O7 O 0.5193(6) 0.21596(12) 0.7220(3)
O8 O 0.5194(6) 0.15698(12) 0.7366(3)
O9 O 1.2770(7) 0.20576(17) 0.8356(4)
O10 O 1.3910(5) 0.16063(14) 0.8947(3)
O11 O 0.5323(6) 0.23206(13) 0.3701(3)
O12 O 0.5407(7) 0.26785(14) 0.4688(3)
O13 O 1.1384(4) -0.03435(14) 0.5460(2)
O14 O 1.2618(4) -0.01616(14) 0.6499(2)
O15 O 0.7818(8) 0.2105(3) 0.8457(6)
O16 O 0.6983(6) 0.1665(2) 0.8986(4)
O17 O 0.9458(7) 0.05789(18) 0.9790(4)
O18 O 1.1677(7) 0.05407(17) 0.9808(3)
O19 O 0.6157(5) 0.02325(16) 0.9916(3)
Cd1B Cd 0.37450(3) -0.030608(10) 0.552703(19)
Cd1B_2 Cd 1.37450(3) -0.030608(10) 0.552703(19)
Cd2B Cd 1.15781(4) -0.004800(13) 1.00419(2)
Cd3_2 Cd 1.52492(5) 0.203076(12) 0.84699(3)
Cd3C Cd 0.52492(5) 0.296924(12) 0.34699(3)
O2B O 0.4378(3) 0.01870(13) 0.3693(2)
O6B O 0.9317(4) 0.01094(16) 1.1179(2)
O9_2 O 0.2770(7) 0.20576(17) 0.8356(4)
O10_2 O 0.3910(5) 0.16063(14) 0.8947(3)
O11C O 0.5323(6) 0.26794(13) 0.8701(3)
O12C O 0.5407(7) 0.23215(14) 0.9688(3)
O13B O 0.8616(4) 0.03435(14) 0.4540(2)
O14B O 0.7382(4) 0.01616(14) 0.3501(2)
O18B O 0.8323(7) -0.05407(17) 1.0192(3)
loop_
_geom_bond_atom_site_label_1
_geom_bond_atom_site_label_2
_geom_bond_site_symmetry_1
_geom_bond_site_symmetry_2
Cd1 O1 1_555 1_555
Cd2 O5 1_555 1_555
Cd3 O7 1_555 1_555
C1 C2 1_555 1_555
C2 C3 1_555 1_555
C3 H1 1_555 1_555
C4 C3 1_555 1_555
C5 C4 1_555 1_555
C6 C4 1_555 1_555
H2 C6 1_555 1_555
C7 C6 1_555 1_555
C8 C7 1_555 1_555
C9 C2 1_555 1_555
H3 C9 1_555 1_555
C10 C11 1_555 1_555
C11 C12 1_555 1_555
C12 H4 1_555 1_555
C13 C12 1_555 1_555
C14 C13 1_555 1_555
C15 C13 1_555 1_555
H5 C15 1_555 1_555
C16 C15 1_555 1_555
C17 C16 1_555 1_555
C18 C11 1_555 1_555
H6 C18 1_555 1_555
C19 C20 1_555 1_555
C20 C21 1_555 1_555
C21 H7 1_555 1_555
C22 C21 1_555 1_555
C23 C22 1_555 1_555
C24 C22 1_555 1_555
H8 C24 1_555 1_555
C25 C24 1_555 1_555
C26 C25 1_555 1_555
C27 C20 1_555 1_555
H9 C27 1_555 1_555
C28 H10 1_555 1_555
H11 C28 1_555 1_555
C29 C28 1_555 1_555
H12 C29 1_555 1_555
H13 C29 1_555 1_555
H14 C29 1_555 1_555
C30 H15 1_555 1_555
H16 C30 1_555 1_555
C31 C30 1_555 1_555
H17 C31 1_555 1_555
H18 C31 1_555 1_555
H19 C31 1_555 1_555
C32 H20 1_555 1_555
H21 C32 1_555 1_555
C33 C32 1_555 1_555
H22 C33 1_555 1_555
H23 C33 1_555 1_555
H24 C33 1_555 1_555
O1 C1 1_555 1_555
O2 C1 1_555 1_555
O3 Cd1 1_555 1_555
O4 Cd1 1_555 1_555
O5 C5 1_555 1_555
O6 C5 1_555 1_555
O7 C14 1_555 1_555
O8 Cd3 1_555 1_555
O9 C19 1_555 1_555
O10 C19 1_555 1_555
O11 C17 1_555 1_555
O12 C17 1_555 1_555
O13 C8 1_555 1_555
O14 C8 1_555 1_555
O15 Cd3 1_555 1_555
O16 Cd3 1_555 1_555
O17 Cd2 1_555 1_555
O18 C23 1_555 1_555
O19 Cd2 1_555 1_555
N1 C28 1_555 1_555
Cd1B O2 1_555 1_555
Cd1B_2 O13 1_555 1_555
Cd2B Cd2 1_555 1_555
Cd3_2 O9 1_555 1_555
Cd3C O11 1_555 1_555
O2B Cd1 1_555 1_555
O6B Cd2 1_555 1_555
O9_2 Cd3 1_555 1_555
O10_2 Cd3 1_555 1_555
O11C Cd3 1_555 1_555
O12C Cd3 1_555 1_555
O13B Cd1 1_555 1_555
O14B Cd1 1_555 1_555
O18B Cd2 1_555 1_555
C7 C9 1_555 1_555
C10 O3 1_555 1_555
C10 O4 1_555 1_555
C14 O8 1_555 1_555
C16 C18 1_555 1_555
C23 O17 1_555 1_555
C25 C27 1_555 1_555
C26 O15 1_555 1_555
C26 O16 1_555 1_555
C30 N1 1_555 1_555
C32 N1 1_555 1_555
O6 Cd2B 1_555 1_555
O10 Cd3_2 1_555 1_555
O12 Cd3C 1_555 1_555
O14 Cd1B_2 1_555 1_555
O18 Cd2B 1_555 1_555

#END
