
#######################################################################
#
#                 Cambridge Crystallographic Data Centre
#                                CCDC 
#
#######################################################################
#
# If this CIF has been generated from an entry in the Cambridge 
# Structural Database, then it will include bibliographic, chemical, 
# crystal, experimental, refinement or atomic coordinate data resulting 
# from the CCDC's data processing and validation procedures.
#
#######################################################################

data_MITXOC
_symmetry_cell_setting           triclinic
_symmetry_space_group_name_H-M   'P -1'
_symmetry_Int_Tables_number      2
_space_group_name_Hall           '-P 1'
loop_
_symmetry_equiv_pos_site_id
_symmetry_equiv_pos_as_xyz
1 x,y,z
2 -x,-y,-z
_cell_length_a                   8.003(4)
_cell_length_b                   10.756(6)
_cell_length_c                   11.083(7)
_cell_angle_alpha                101.80(5)
_cell_angle_beta                 101.96(5)
_cell_angle_gamma                97.02(5)
_cell_volume                     899.999
loop_
_atom_site_label
_atom_site_type_symbol
_atom_site_fract_x
_atom_site_fract_y
_atom_site_fract_z
Ag1 Ag 0.09134(4) 0.33007(3) 0.40739(3)
N1 N 0.3548(4) 0.4054(3) 0.3404(3)
C1 C 0.2754(5) 0.4493(4) 0.2275(4)
H1 H 0.3674 0.4801 0.1891
H2 H 0.2186 0.5222 0.2545
C2 C 0.1428(5) 0.3451(4) 0.1271(4)
H3 H 0.0926 0.3831 0.0577
H4 H 0.2030 0.2774 0.0922
N2 N 0.0006(4) 0.2855(3) 0.1742(3)
C3 C -0.0233(6) 0.1432(4) 0.1443(4)
H5 H -0.0622 0.1110 0.0519
H6 H -0.1161 0.1112 0.1813
C4 C 0.1356(6) 0.0869(4) 0.1906(4)
H7 H 0.1040 -0.0072 0.1713
H8 H 0.2233 0.1078 0.1445
N3 N 0.2114(4) 0.1355(3) 0.3283(3)
C5 C 0.4005(5) 0.1807(4) 0.3607(4)
H9 H 0.4570 0.1105 0.3258
H10 H 0.4434 0.2029 0.4532
C6 C 0.4505(5) 0.2988(4) 0.3092(4)
H11 H 0.5749 0.3312 0.3434
H12 H 0.4302 0.2714 0.2167
C7 C 0.4620(5) 0.5173(4) 0.4377(4)
H13 H 0.3909 0.5840 0.4543
H14 H 0.5569 0.5534 0.4049
C8 C -0.1665(6) 0.3195(5) 0.1179(4)
H15 H -0.2587 0.2723 0.1453
H16 H -0.1897 0.2907 0.0253
C9 C -0.1748(6) 0.4617(5) 0.1521(4)
H17 H -0.0868 0.5091 0.1209
H18 H -0.2886 0.4756 0.1092
C10 C -0.1468(6) 0.5131(4) 0.2885(4)
N4 N -0.1242(5) 0.5481(4) 0.3943(4)
C11 C 0.1632(5) 0.0439(4) 0.4017(4)
H19 H 0.0365 0.0207 0.3803
H20 H 0.2001 0.0871 0.4921
C12 C 0.2408(7) -0.0820(4) 0.3806(5)
H21 H 0.1963 -0.1307 0.2923
H22 H 0.3673 -0.0604 0.3968
C13 C 0.1955(6) -0.1605(4) 0.4650(5)
N5 N 0.1624(6) -0.2178(4) 0.5345(5)
C7A C 0.5380(5) 0.4827(4) 0.5623(4)
N1A N 0.6452(4) 0.5946(3) 0.6596(3)
C1A C 0.7246(5) 0.5507(4) 0.7725(4)
H1A H 0.6326 0.5199 0.8109
H2A H 0.7814 0.4778 0.7455
C2A C 0.8572(5) 0.6549(4) 0.8729(4)
H3A H 0.9074 0.6169 0.9423
H4A H 0.7970 0.7226 0.9078
N2A N 0.9994(4) 0.7145(3) 0.8258(3)
C3A C 1.0233(6) 0.8568(4) 0.8557(4)
H5A H 1.0622 0.8890 0.9481
H6A H 1.1161 0.8888 0.8187
C4A C 0.8644(6) 0.9131(4) 0.8094(4)
H7A H 0.8960 1.0072 0.8287
H8A H 0.7767 0.8922 0.8555
N3A N 0.7886(4) 0.8645(3) 0.6717(3)
C5A C 0.5995(5) 0.8193(4) 0.6393(4)
H9A H 0.5430 0.8895 0.6742
H10A H 0.5566 0.7971 0.5468
C6A C 0.5495(5) 0.7012(4) 0.6908(4)
H11A H 0.4251 0.6688 0.6566
H12A H 0.5698 0.7286 0.7833
C11A C 0.8368(5) 0.9561(4) 0.5983(4)
H19A H 0.9635 0.9793 0.6197
H20A H 0.7999 0.9129 0.5079
C12A C 0.7592(7) 1.0820(4) 0.6194(5)
H21A H 0.8037 1.1307 0.7077
H22A H 0.6327 1.0604 0.6032
C13A C 0.8045(6) 1.1605(4) 0.5350(5)
N5A N 0.8376(6) 1.2178(4) 0.4655(5)
C8A C 1.1665(6) 0.6805(5) 0.8821(4)
H15A H 1.2587 0.7277 0.8547
H16A H 1.1897 0.7093 0.9747
C9A C 1.1748(6) 0.5383(5) 0.8479(4)
H17A H 1.0868 0.4909 0.8791
H18A H 1.2886 0.5244 0.8908
C10A C 1.1468(6) 0.4869(4) 0.7115(4)
N4A N 1.1242(5) 0.4519(4) 0.6057(4)
H13A H 0.6091 0.4160 0.5457
H14A H 0.4431 0.4466 0.5951
Ag1A Ag 0.90866(4) 0.66993(3) 0.59261(3)
N4A_2 N 0.1242(5) 0.4519(4) 0.6057(4)
N5A_2 N -0.1624(6) 0.2178(4) 0.4655(5)
Ag1A_2 Ag -0.09134(4) 0.66993(3) 0.59261(3)
Ag1A_3 Ag -0.09134(4) -0.33007(3) 0.59261(3)
Ag1_2 Ag 1.09134(4) 1.33007(3) 0.40739(3)
Ag1_3 Ag 1.09134(4) 0.33007(3) 0.40739(3)
N4_2 N 0.8758(5) 0.5481(4) 0.3943(4)
N5_2 N 1.1624(6) 0.7822(4) 0.5345(5)
P1 P 0.37721(15) 0.19284(11) 0.82915(11)
F1 F 0.1849(4) 0.2199(4) 0.8100(4)
F2 F 0.3107(5) 0.0579(3) 0.7300(3)
F3 F 0.3478(7) 0.1290(4) 0.9396(4)
F4 F 0.3991(7) 0.2567(4) 0.7181(4)
F5 F 0.4395(5) 0.3269(3) 0.9277(3)
F6 F 0.5657(4) 0.1647(5) 0.8480(4)
loop_
_geom_bond_atom_site_label_1
_geom_bond_atom_site_label_2
_geom_bond_site_symmetry_1
_geom_bond_site_symmetry_2
Ag1 N1 1_555 1_555
N1 C1 1_555 1_555
C1 H1 1_555 1_555
H2 C1 1_555 1_555
C2 C1 1_555 1_555
H3 C2 1_555 1_555
H4 C2 1_555 1_555
N2 Ag1 1_555 1_555
C3 N2 1_555 1_555
H5 C3 1_555 1_555
H6 C3 1_555 1_555
C4 C3 1_555 1_555
H7 C4 1_555 1_555
H8 C4 1_555 1_555
N3 Ag1 1_555 1_555
C5 N3 1_555 1_555
H9 C5 1_555 1_555
H10 C5 1_555 1_555
C6 N1 1_555 1_555
H11 C6 1_555 1_555
H12 C6 1_555 1_555
C7 N1 1_555 1_555
H13 C7 1_555 1_555
H14 C7 1_555 1_555
C8 N2 1_555 1_555
H15 C8 1_555 1_555
H16 C8 1_555 1_555
C9 C8 1_555 1_555
H17 C9 1_555 1_555
H18 C9 1_555 1_555
C10 C9 1_555 1_555
N4 C10 1_555 1_555
C11 N3 1_555 1_555
H19 C11 1_555 1_555
H20 C11 1_555 1_555
C12 C11 1_555 1_555
H21 C12 1_555 1_555
H22 C12 1_555 1_555
C13 C12 1_555 1_555
N5 C13 1_555 1_555
P1 F1 1_555 1_555
F2 P1 1_555 1_555
F3 P1 1_555 1_555
F4 P1 1_555 1_555
F5 P1 1_555 1_555
F6 P1 1_555 1_555
C7A C7 1_555 1_555
N1A C7A 1_555 1_555
C1A N1A 1_555 1_555
H1A C1A 1_555 1_555
H2A C1A 1_555 1_555
C2A C1A 1_555 1_555
H3A C2A 1_555 1_555
H4A C2A 1_555 1_555
N2A C2A 1_555 1_555
C3A N2A 1_555 1_555
H5A C3A 1_555 1_555
H6A C3A 1_555 1_555
C4A C3A 1_555 1_555
H7A C4A 1_555 1_555
H8A C4A 1_555 1_555
N3A C4A 1_555 1_555
C5A N3A 1_555 1_555
H9A C5A 1_555 1_555
H10A C5A 1_555 1_555
C6A N1A 1_555 1_555
H11A C6A 1_555 1_555
H12A C6A 1_555 1_555
C11A N3A 1_555 1_555
H19A C11A 1_555 1_555
H20A C11A 1_555 1_555
C12A C11A 1_555 1_555
H21A C12A 1_555 1_555
H22A C12A 1_555 1_555
C13A C12A 1_555 1_555
N5A C13A 1_555 1_555
C8A N2A 1_555 1_555
H15A C8A 1_555 1_555
H16A C8A 1_555 1_555
C9A C8A 1_555 1_555
H17A C9A 1_555 1_555
H18A C9A 1_555 1_555
C10A C9A 1_555 1_555
N4A C10A 1_555 1_555
H13A C7A 1_555 1_555
H14A C7A 1_555 1_555
Ag1A N1A 1_555 1_555
N4A_2 Ag1 1_555 1_555
N5A_2 Ag1 1_555 1_555
Ag1A_2 N4 1_555 1_555
Ag1A_3 N5 1_555 1_555
Ag1_2 N5A 1_555 1_555
Ag1_3 N4A 1_555 1_555
N4_2 Ag1A 1_555 1_555
N5_2 Ag1A 1_555 1_555
C2 N2 1_555 1_555
C4 N3 1_555 1_555
C5 C6 1_555 1_555
N2A Ag1A 1_555 1_555
N3A Ag1A 1_555 1_555
C5A C6A 1_555 1_555

#END
