
#######################################################################
#
#                 Cambridge Crystallographic Data Centre
#                                CCDC 
#
#######################################################################
#
# If this CIF has been generated from an entry in the Cambridge 
# Structural Database, then it will include bibliographic, chemical, 
# crystal, experimental, refinement or atomic coordinate data resulting 
# from the CCDC's data processing and validation procedures.
#
#######################################################################

data_MIVDAX
_symmetry_cell_setting           orthorhombic
_symmetry_space_group_name_H-M   'P 21 21 21'
_symmetry_Int_Tables_number      19
_space_group_name_Hall           'P 2ac 2ab'
loop_
_symmetry_equiv_pos_site_id
_symmetry_equiv_pos_as_xyz
1 x,y,z
2 1/2-x,-y,1/2+z
3 -x,1/2+y,1/2-z
4 1/2+x,1/2-y,-z
_cell_length_a                   8.8230(18)
_cell_length_b                   11.746(2)
_cell_length_c                   16.791(3)
_cell_angle_alpha                90
_cell_angle_beta                 90
_cell_angle_gamma                90
_cell_volume                     1740.13
loop_
_atom_site_label
_atom_site_type_symbol
_atom_site_fract_x
_atom_site_fract_y
_atom_site_fract_z
Cd1 Cd 1.01906(7) 1.84798(4) 0.47356(5)
C1 C 0.6848(10) 1.8647(6) 0.5196(7)
C2 C 0.6008(10) 2.0746(7) 0.5111(6)
H1 H 0.5581 2.0620 0.4587
H2 H 0.5225 2.0585 0.5501
C3 C 0.7312(9) 1.9930(7) 0.5237(7)
H3 H 0.7620 2.0049 0.5791
O5 O 0.7712(9) 1.7974(7) 0.4942(6)
C4 C 0.7179(9) 2.4270(6) 0.5311(6)
C5 C 0.6687(14) 2.2463(7) 0.5890(7)
H4 H 0.6577 2.2015 0.6343
C6 C 0.6629(13) 2.2631(8) 0.4529(5)
H5 H 0.6505 2.2316 0.4025
C7 C 0.7077(13) 2.3625(7) 0.6001(6)
H6 H 0.7253 2.3933 0.6503
N1 N 0.8643(10) 2.0108(6) 0.4791(8)
H7 H 0.9171 2.0685 0.5009
H8 H 0.8389 2.0315 0.4292
C8 C 0.6463(9) 2.1959(6) 0.5183(6)
C9 C 0.6977(13) 2.3773(8) 0.4600(6)
H9 H 0.7075 2.4210 0.4141
N2 N 0.7435(9) 2.5471(6) 0.5376(6)
H10 H 0.8081 2.5691 0.4990
H11 H 0.7870 2.5622 0.5849
O6 O 0.5469(9) 1.8417(5) 0.5426(5)
O11 O 1.011(3) 1.8543(17) 0.3278(8)
H12 H 0.936(17) 1.803(14) 0.3348(15)
H13 H 0.937(17) 1.905(13) 0.3368(14)
O12 O 1.0536(18) 1.8480(10) 0.6132(5)
H14 H 1.07(2) 1.773(3) 0.610(2)
H15 H 1.154(3) 1.854(14) 0.6050(15)
Cd1C Cd 0.51906(7) 2.65202(4) 0.52644(5)
Cd1C_2 Cd 0.51906(7) 1.65202(4) 0.52644(5)
N2C N 1.2435(9) 1.9529(6) 0.4624(6)
H10C H 1.3081 1.9309 0.5010
H11C H 1.2870 1.9378 0.4151
O6C O 1.0469(9) 1.6583(5) 0.4574(5)
Cl1 Cl 1.0588(8) 1.5682(5) 0.7299(2)
O7 O 0.9103(19) 1.586(2) 0.6941(15)
O8 O 1.124(3) 1.4704(17) 0.6946(14)
O9 O 1.149(3) 1.6668(18) 0.7070(14)
O10 O 1.045(3) 1.563(2) 0.8114(7)
O1? O 1.204(2) 1.518(2) 0.7504(14)
O2? O 0.948(3) 1.479(2) 0.7429(14)
O3? O 1.057(3) 1.603(2) 0.6509(8)
O4? O 1.030(3) 1.6578(16) 0.7848(12)
loop_
_geom_bond_atom_site_label_1
_geom_bond_atom_site_label_2
_geom_bond_site_symmetry_1
_geom_bond_site_symmetry_2
Cd1 O5 1_555 1_555
C1 C3 1_555 1_555
C2 H1 1_555 1_555
H2 C2 1_555 1_555
C3 C2 1_555 1_555
H3 C3 1_555 1_555
O5 C1 1_555 1_555
C4 C7 1_555 1_555
C5 H4 1_555 1_555
C6 H5 1_555 1_555
C7 C5 1_555 1_555
H6 C7 1_555 1_555
N1 Cd1 1_555 1_555
H7 N1 1_555 1_555
H8 N1 1_555 1_555
C8 C2 1_555 1_555
C9 C4 1_555 1_555
H9 C9 1_555 1_555
N2 C4 1_555 1_555
H10 N2 1_555 1_555
H11 N2 1_555 1_555
Cl1 O7 1_555 1_555
O6 C1 1_555 1_555
O8 Cl1 1_555 1_555
O9 Cl1 1_555 1_555
O10 Cl1 1_555 1_555
O11 Cd1 1_555 1_555
H12 O11 1_555 1_555
H13 O11 1_555 1_555
O12 Cd1 1_555 1_555
H14 O12 1_555 1_555
H15 O12 1_555 1_555
Cd1C N2 1_555 1_555
Cd1C_2 O6 1_555 1_555
N2C Cd1 1_555 1_555
H10C N2C 1_555 1_555
H11C N2C 1_555 1_555
O6C Cd1 1_555 1_555
C3 N1 1_555 1_555
C5 C8 1_555 1_555
C6 C8 1_555 1_555
C6 C9 1_555 1_555

#END
