
#######################################################################
#
#                 Cambridge Crystallographic Data Centre
#                                CCDC 
#
#######################################################################
#
# If this CIF has been generated from an entry in the Cambridge 
# Structural Database, then it will include bibliographic, chemical, 
# crystal, experimental, refinement or atomic coordinate data resulting 
# from the CCDC's data processing and validation procedures.
#
#######################################################################

data_MIVDAW
_symmetry_cell_setting           monoclinic
_symmetry_space_group_name_H-M   'P 21/n'
_symmetry_Int_Tables_number      14
_space_group_name_Hall           '-P 2yn'
loop_
_symmetry_equiv_pos_site_id
_symmetry_equiv_pos_as_xyz
1 x,y,z
2 1/2+x,1/2-y,1/2+z
3 -x,-y,-z
4 1/2-x,1/2+y,1/2-z
_cell_length_a                   10.0330(10)
_cell_length_b                   8.7293(8)
_cell_length_c                   12.3735(11)
_cell_angle_alpha                90
_cell_angle_beta                 91.4210(10)
_cell_angle_gamma                90
_cell_volume                     1083.35
loop_
_atom_site_label
_atom_site_type_symbol
_atom_site_fract_x
_atom_site_fract_y
_atom_site_fract_z
I1 I -0.59112(3) -0.00254(3) -0.16646(2)
Cu1 Cu -0.40857(5) -0.11584(6) -0.03237(4)
S1 S -0.13477(10) -0.44576(13) -0.08726(9)
N1 N -0.2214(3) -0.0592(4) -0.0890(3)
N2 N -0.4608(3) -0.3482(4) -0.0177(2)
C1 C -0.1711(4) 0.0785(5) -0.0638(3)
H1 H -0.2174 0.1385 -0.0153
C2 C -0.0553(4) 0.1377(5) -0.1048(3)
H2 H -0.0254 0.2348 -0.0851
C3 C 0.0148(4) 0.0486(6) -0.1758(4)
H3 H 0.0931 0.0845 -0.2055
C4 C -0.0333(4) -0.0941(5) -0.2017(3)
H4 H 0.0129 -0.1564 -0.2488
C5 C -0.1522(4) -0.1461(5) -0.1573(3)
C6 C -0.2028(4) -0.3040(5) -0.1815(3)
H5 H -0.7007 -0.6956 0.1780
H6 H -0.8208 -0.6680 0.2544
C7 C -0.2301(4) -0.4071(5) 0.0346(3)
H7 H -0.2256 -0.2986 0.0513
H8 H -0.1909 -0.4629 0.0952
C8 C -0.3727(4) -0.4536(5) 0.0189(3)
C9 C -0.5862(4) -0.3962(4) -0.0365(3)
H9 H -0.3513 -0.6742 0.0626
I1B I -0.40888(3) 0.00254(3) 0.16646(2)
Cu1B Cu -0.59143(5) 0.11584(6) 0.03237(4)
C8B C -0.6273(4) -0.5464(5) -0.0189(3)
N2B N -0.5392(3) -0.6518(4) 0.0177(2)
Cu1B_2 Cu -0.59143(5) -0.88416(6) 0.03237(4)
I1_2 I -0.59112(3) -1.00254(3) -0.16646(2)
I1B_2 I -0.40888(3) -0.99746(3) 0.16646(2)
N1B N -0.7786(3) -0.9408(4) 0.0890(3)
C1B C -0.8289(4) -1.0785(5) 0.0638(3)
H1B H -0.7826 -1.1385 0.0153
C2B C -0.9447(4) -1.1377(5) 0.1048(3)
H2B H -0.9746 -1.2348 0.0851
C3B C -1.0148(4) -1.0486(6) 0.1758(4)
H3B H -1.0931 -1.0845 0.2055
C4B C -0.9667(4) -0.9059(5) 0.2017(3)
H4B H -1.0129 -0.8436 0.2488
C5B C -0.8478(4) -0.8539(5) 0.1573(3)
C6B C -0.7972(4) -0.6960(5) 0.1815(3)
S1B S -0.86523(10) -0.55424(13) 0.08726(9)
C7B C -0.7699(4) -0.5929(5) -0.0346(3)
H7B H -0.7744 -0.7014 -0.0513
H8B H -0.8091 -0.5371 -0.0952
C9B C -0.4138(4) -0.6038(4) 0.0365(3)
H9B H -0.6487 -0.3258 -0.0626
H5B H -0.2993 -0.3044 -0.1780
H6B H -0.1792 -0.3320 -0.2544
loop_
_geom_bond_atom_site_label_1
_geom_bond_atom_site_label_2
_geom_bond_site_symmetry_1
_geom_bond_site_symmetry_2
I1 Cu1 1_555 1_555
Cu1 N1 1_555 1_555
S1 C6 1_555 1_555
N1 C1 1_555 1_555
N2 Cu1 1_555 1_555
C1 H1 1_555 1_555
C2 C1 1_555 1_555
H2 C2 1_555 1_555
C3 C2 1_555 1_555
H3 C3 1_555 1_555
C4 C3 1_555 1_555
H4 C4 1_555 1_555
C5 N1 1_555 1_555
C6 C5 1_555 1_555
H5 C6B 1_555 1_555
H6 C6B 1_555 1_555
C7 S1 1_555 1_555
H7 C7 1_555 1_555
H8 C7 1_555 1_555
C8 N2 1_555 1_555
C9 N2 1_555 1_555
H9 C9B 1_555 1_555
I1B Cu1 1_555 1_555
Cu1B I1 1_555 1_555
C8B C9 1_555 1_555
N2B C8B 1_555 1_555
Cu1B_2 N2B 1_555 1_555
I1_2 Cu1B_2 1_555 1_555
I1B_2 Cu1B_2 1_555 1_555
N1B Cu1B_2 1_555 1_555
C1B N1B 1_555 1_555
H1B C1B 1_555 1_555
C2B C1B 1_555 1_555
H2B C2B 1_555 1_555
C3B C2B 1_555 1_555
H3B C3B 1_555 1_555
C4B C3B 1_555 1_555
H4B C4B 1_555 1_555
C5B N1B 1_555 1_555
C6B C5B 1_555 1_555
S1B C6B 1_555 1_555
C7B C8B 1_555 1_555
H7B C7B 1_555 1_555
H8B C7B 1_555 1_555
C9B C8 1_555 1_555
H9B C9 1_555 1_555
H5B C6 1_555 1_555
H6B C6 1_555 1_555
C4 C5 1_555 1_555
C7 C8 1_555 1_555
I1B Cu1B 1_555 1_555
N2B C9B 1_555 1_555
C4B C5B 1_555 1_555
S1B C7B 1_555 1_555

#END
