
#######################################################################
#
#                 Cambridge Crystallographic Data Centre
#                                CCDC 
#
#######################################################################
#
# If this CIF has been generated from an entry in the Cambridge 
# Structural Database, then it will include bibliographic, chemical, 
# crystal, experimental, refinement or atomic coordinate data resulting 
# from the CCDC's data processing and validation procedures.
#
#######################################################################

data_MIVNUC
_symmetry_cell_setting           monoclinic
_symmetry_space_group_name_H-M   'P 21/n'
_symmetry_Int_Tables_number      14
_space_group_name_Hall           '-P 2yn'
loop_
_symmetry_equiv_pos_site_id
_symmetry_equiv_pos_as_xyz
1 x,y,z
2 1/2-x,1/2+y,1/2-z
3 -x,-y,-z
4 1/2+x,1/2-y,1/2+z
_cell_length_a                   5.450(2)
_cell_length_b                   8.227(3)
_cell_length_c                   18.268(8)
_cell_angle_alpha                90
_cell_angle_beta                 96.805(15)
_cell_angle_gamma                90
_cell_volume                     813.315
loop_
_atom_site_label
_atom_site_type_symbol
_atom_site_fract_x
_atom_site_fract_y
_atom_site_fract_z
Mo1 Mo 0.33098(13) -0.04016(10) 0.47154(4)
O1 O 0.1372(10) 0.1035(7) 0.5435(3)
N1 N 0.2865(12) 0.1523(9) 0.3913(4)
S1 S 0.3052(4) -0.2905(3) 0.54686(14)
O2 O 0.5068(10) -0.1817(8) 0.3964(3)
C1 C 0.2594(15) 0.1854(11) 0.5941(5)
C2 C 0.4429(16) 0.2757(12) 0.3919(5)
C3 C 0.0998(17) 0.1716(12) 0.3302(5)
C4 C 0.1265(16) 0.2972(12) 0.6398(5)
C5 C 0.3756(17) 0.3998(13) 0.3328(5)
O3 O -0.0597(12) 0.0719(8) 0.3130(4)
C6 C 0.1360(18) 0.3304(13) 0.2913(5)
H1 H 0.0914 0.3997 0.6132
H2 H 0.2296 0.3188 0.6865
H3 H -0.0290 0.2469 0.6498
H4 H 0.5066 0.4096 0.2999
H5 H 0.3466 0.5076 0.3543
H6 H -0.0050 0.4047 0.2947
H7 H 0.1542 0.3119 0.2386
Mo1B Mo 0.66902(13) 0.04016(10) 0.52846(4)
O1B O -0.1372(10) -0.1035(7) 0.4565(3)
Mo1B_2 Mo -0.33098(13) 0.04016(10) 0.52846(4)
S1B S 0.6948(4) 0.2905(3) 0.45314(14)
O2B O 0.4932(10) 0.1817(8) 0.6036(3)
N1B N 0.7135(12) -0.1523(9) 0.6087(4)
O1B_2 O 0.8628(10) -0.1035(7) 0.4565(3)
O1_2 O 1.1372(10) 0.1035(7) 0.5435(3)
C2B C 0.5571(16) -0.2757(12) 0.6081(5)
C1B C 0.7406(15) -0.1854(11) 0.4059(5)
C3B C 0.9002(17) -0.1716(12) 0.6698(5)
Mo1_2 Mo 1.33098(13) -0.04016(10) 0.47154(4)
C5B C 0.6244(17) -0.3998(13) 0.6672(5)
C4B C 0.8735(16) -0.2972(12) 0.3602(5)
C6B C 0.8640(18) -0.3304(13) 0.7087(5)
O3B O 1.0597(12) -0.0719(8) 0.6870(4)
H4B H 0.4934 -0.4096 0.7001
H5B H 0.6534 -0.5076 0.6457
H3B H 1.0290 -0.2469 0.3502
H1B H 0.9086 -0.3997 0.3868
H2B H 0.7704 -0.3188 0.3135
H6B H 1.0050 -0.4047 0.7053
H7B H 0.8458 -0.3119 0.7614
loop_
_geom_bond_atom_site_label_1
_geom_bond_atom_site_label_2
_geom_bond_site_symmetry_1
_geom_bond_site_symmetry_2
Mo1 O1 1_555 1_555
O1 C1 1_555 1_555
N1 Mo1 1_555 1_555
S1 Mo1 1_555 1_555
O2 Mo1 1_555 1_555
C1 C4 1_555 1_555
C2 N1 1_555 1_555
C3 N1 1_555 1_555
C4 H1 1_555 1_555
C5 C2 1_555 1_555
O3 C3 1_555 1_555
C6 C3 1_555 1_555
H2 C4 1_555 1_555
H3 C4 1_555 1_555
H4 C5 1_555 1_555
H5 C5 1_555 1_555
H6 C6 1_555 1_555
H7 C6 1_555 1_555
Mo1B Mo1 1_555 1_555
O1B Mo1 1_555 1_555
Mo1B_2 O1 1_555 1_555
S1B C2 1_555 1_555
O2B C1 1_555 1_555
N1B Mo1B 1_555 1_555
O1B_2 Mo1B 1_555 1_555
O1_2 Mo1B 1_555 1_555
C2B S1 1_555 1_555
C1B O2 1_555 1_555
C3B N1B 1_555 1_555
Mo1_2 O1B_2 1_555 1_555
C5B C2B 1_555 1_555
C4B C1B 1_555 1_555
C6B C3B 1_555 1_555
O3B C3B 1_555 1_555
H4B C5B 1_555 1_555
H5B C5B 1_555 1_555
H3B C4B 1_555 1_555
H1B C4B 1_555 1_555
H2B C4B 1_555 1_555
H6B C6B 1_555 1_555
H7B C6B 1_555 1_555
C5 C6 1_555 1_555
Mo1B S1B 1_555 1_555
Mo1B O2B 1_555 1_555
O1B Mo1B_2 1_555 1_555
N1B C2B 1_555 1_555
O1B_2 C1B 1_555 1_555
O1_2 Mo1_2 1_555 1_555
C5B C6B 1_555 1_555

#END
