
#######################################################################
#
#                 Cambridge Crystallographic Data Centre
#                                CCDC 
#
#######################################################################
#
# If this CIF has been generated from an entry in the Cambridge 
# Structural Database, then it will include bibliographic, chemical, 
# crystal, experimental, refinement or atomic coordinate data resulting 
# from the CCDC's data processing and validation procedures.
#
#######################################################################

data_MIVNAH
_symmetry_cell_setting           monoclinic
_symmetry_space_group_name_H-M   'C 2/c'
_symmetry_Int_Tables_number      15
_space_group_name_Hall           '-C 2yn'
loop_
_symmetry_equiv_pos_site_id
_symmetry_equiv_pos_as_xyz
1 x,y,z
2 1/2+x,1/2+y,z
3 -x,y,1/2-z
4 1/2-x,1/2+y,1/2-z
5 -x,-y,-z
6 1/2-x,1/2-y,-z
7 x,-y,1/2+z
8 1/2+x,1/2-y,1/2+z
_cell_length_a                   11.499(3)
_cell_length_b                   7.502(2)
_cell_length_c                   7.402(2)
_cell_angle_alpha                90
_cell_angle_beta                 93.892(5)
_cell_angle_gamma                90
_cell_volume                     637.065
loop_
_atom_site_label
_atom_site_type_symbol
_atom_site_fract_x
_atom_site_fract_y
_atom_site_fract_z
Cu1 Cu 0.2500 0.7500 0.0000
O1 O 0.2699(4) 0.5041(6) 0.0753(6)
O2 O 0.3796(4) 0.3313(6) 0.2633(7)
N1 N 0.3953(5) 0.7840(7) 0.1558(7)
C1 C 0.4473(6) 0.9373(10) 0.1995(10)
H1 H 0.4129 1.0445 0.1622
C2 C 0.4435(6) 0.6279(9) 0.2085(10)
C3 C 0.3597(6) 0.4699(10) 0.1795(10)
Cu1F Cu 0.2500 0.2500 0.5000
Cu1G Cu 0.7500 0.7500 0.5000
Cu1A Cu 0.7500 0.2500 0.0000
O1B O 0.7301(4) 0.5041(6) 0.4247(6)
O1E O 0.2301(4) 0.9959(6) -0.0753(6)
O2B O 0.6204(4) 0.3313(6) 0.2367(7)
O2F O 0.3796(4) 0.6687(6) -0.2367(7)
O2C O 0.1204(4) 0.8313(6) 0.2367(7)
N1B N 0.6047(5) 0.7840(7) 0.3442(7)
N1E N 0.1047(5) 0.7160(7) -0.1558(7)
C1B C 0.5527(6) 0.9373(10) 0.3005(10)
H1B H 0.5871 1.0445 0.3378
C2B C 0.5565(6) 0.6279(9) 0.2915(10)
C3B C 0.6403(6) 0.4699(10) 0.3205(10)
loop_
_geom_bond_atom_site_label_1
_geom_bond_atom_site_label_2
_geom_bond_site_symmetry_1
_geom_bond_site_symmetry_2
Cu1 O1 1_555 1_555
O1 C3 1_555 1_555
O2 C3 1_555 1_555
N1 Cu1 1_555 1_555
C1 N1 1_555 1_555
H1 C1 1_555 1_555
C2 N1 1_555 1_555
C3 C2 1_555 1_555
Cu1F O2 1_555 1_555
Cu1G O1B 1_555 1_555
Cu1A O2B 1_555 1_555
O1B C3B 1_555 1_555
O1E Cu1 1_555 1_555
O2B C3B 1_555 1_555
O2F Cu1 1_555 1_555
O2C Cu1 1_555 1_555
N1B Cu1G 1_555 1_555
N1E Cu1 1_555 1_555
C1B C1 1_555 1_555
H1B C1B 1_555 1_555
C2B C2 1_555 1_555
C3B C2B 1_555 1_555
N1B C1B 1_555 1_555
N1B C2B 1_555 1_555

#END
