
#######################################################################
#
#                 Cambridge Crystallographic Data Centre
#                                CCDC 
#
#######################################################################
#
# If this CIF has been generated from an entry in the Cambridge 
# Structural Database, then it will include bibliographic, chemical, 
# crystal, experimental, refinement or atomic coordinate data resulting 
# from the CCDC's data processing and validation procedures.
#
#######################################################################

data_MIVNUB
_symmetry_cell_setting           monoclinic
_symmetry_space_group_name_H-M   'P 21/c'
_symmetry_Int_Tables_number      14
_space_group_name_Hall           '-P 2ybc'
loop_
_symmetry_equiv_pos_site_id
_symmetry_equiv_pos_as_xyz
1 x,y,z
2 -x,1/2+y,1/2-z
3 -x,-y,-z
4 x,1/2-y,1/2+z
_cell_length_a                   13.310(3)
_cell_length_b                   12.825(3)
_cell_length_c                   6.6008(13)
_cell_angle_alpha                90
_cell_angle_beta                 103.63(3)
_cell_angle_gamma                90
_cell_volume                     1095.03
loop_
_atom_site_label
_atom_site_type_symbol
_atom_site_fract_x
_atom_site_fract_y
_atom_site_fract_z
Lu1 Lu 0.294477(14) 0.923813(14) 0.73907(3)
O1 O 0.2117(3) 0.8563(3) 0.9709(6)
O2 O 0.1862(3) 0.6904(3) 1.0425(7)
O3 O -0.1455(3) 0.5217(3) 0.8330(7)
O4 O -0.2874(3) 0.6132(3) 0.7221(7)
O5 O 0.3921(3) 0.9548(3) 1.0791(6)
O6 O 0.5388(3) 1.0233(3) 1.2653(6)
O7 O 0.3829(3) 0.7691(3) 0.7656(6)
H1 H 0.3813 0.7427 0.6468
H2 H 0.4394 0.7539 0.8500
O8 O 0.2855(3) 0.9801(3) 0.4025(6)
H3 H 0.3333 0.9914 0.3395
H4 H 0.2278 0.9995 0.3262
N1 N -0.1145(3) 0.8917(3) 0.8066(7)
C1 C -0.0111(4) 0.8821(4) 0.8628(8)
H5 H 0.0288 0.9423 0.8755
C2 C 0.0390(4) 0.7866(4) 0.9030(7)
C3 C -0.0199(4) 0.6977(4) 0.8797(7)
H6 H 0.0113 0.6326 0.9059
C4 C -0.1263(4) 0.7062(4) 0.8167(8)
C5 C -0.1696(4) 0.8040(4) 0.7853(8)
H7 H -0.2413 0.8091 0.7472
C6 C 0.1540(4) 0.7769(4) 0.9752(7)
C7 C -0.1904(4) 0.6095(4) 0.7880(8)
C8 C 0.4805(4) 0.9941(4) 1.1009(8)
Lu1C Lu 0.294477(14) 0.576187(14) 0.23907(3)
Lu1C_2 Lu 0.294477(14) 0.576187(14) 1.23907(3)
Lu1A Lu -0.294477(14) 0.423813(14) 0.76093(3)
Lu1B Lu 0.705523(14) 1.076187(14) 1.26093(3)
Lu1B_2 Lu -0.294477(14) 1.076187(14) 0.26093(3)
O1C O 0.2117(3) 0.6437(3) 0.4709(6)
O2C O 0.1862(3) 0.8096(3) 0.5425(7)
O2_2 O 0.1862(3) 0.6904(3) 0.0425(7)
O3C O -0.1455(3) 0.9783(3) 0.3330(7)
O3A O 0.1455(3) 1.0217(3) 0.6670(7)
O3B O 0.1455(3) 0.4783(3) 0.1670(7)
O4C O -0.2874(3) 0.8868(3) 0.2221(7)
O4A O 0.2874(3) 1.1132(3) 0.7779(7)
O4B O 0.2874(3) 0.3868(3) 0.2779(7)
O5B O 0.6079(3) 1.0452(3) 0.9209(6)
O5C O 0.3921(3) 0.5452(3) 0.5791(6)
O6B O 0.4612(3) 0.9767(3) 0.7347(6)
O6A O 0.4612(3) 0.5233(3) 0.2347(6)
O7C O 0.3829(3) 0.7309(3) 0.2656(6)
H1C H 0.3813 0.7573 0.1468
H2C H 0.4394 0.7461 0.3500
O8C O 0.2855(3) 0.5199(3) -0.0975(6)
H3C H 0.3333 0.5086 -0.1605
H4C H 0.2278 0.5005 -0.1738
N1C N -0.1145(3) 0.6083(3) 0.3066(7)
C1C C -0.0111(4) 0.6179(4) 0.3628(8)
H5C H 0.0288 0.5577 0.3755
C2C C 0.0390(4) 0.7134(4) 0.4030(7)
C3C C -0.0199(4) 0.8023(4) 0.3797(7)
H6C H 0.0113 0.8674 0.4059
C4C C -0.1263(4) 0.7938(4) 0.3167(8)
C5C C -0.1696(4) 0.6960(4) 0.2853(8)
H7C H -0.2413 0.6909 0.2472
C6C C 0.1540(4) 0.7231(4) 0.4752(7)
C7C C -0.1904(4) 0.8905(4) 0.2880(8)
C8B C 0.5195(4) 1.0059(4) 0.8991(8)
O9 O 0.5707(5) 0.7097(6) -0.0487(10)
H8 H 0.6044 0.7357 0.0660
H9 H 0.5920 0.7563 -0.1192
loop_
_geom_bond_atom_site_label_1
_geom_bond_atom_site_label_2
_geom_bond_site_symmetry_1
_geom_bond_site_symmetry_2
Lu1 O1 1_555 1_555
O1 C6 1_555 1_555
O2 C6 1_555 1_555
O3 C7 1_555 1_555
O4 C7 1_555 1_555
O5 Lu1 1_555 1_555
O6 C8 1_555 1_555
O7 Lu1 1_555 1_555
H1 O7 1_555 1_555
H2 O7 1_555 1_555
O8 Lu1 1_555 1_555
H3 O8 1_555 1_555
H4 O8 1_555 1_555
N1 C1 1_555 1_555
C1 H5 1_555 1_555
C2 C1 1_555 1_555
C3 C2 1_555 1_555
H6 C3 1_555 1_555
C4 C3 1_555 1_555
C5 N1 1_555 1_555
H7 C5 1_555 1_555
C6 C2 1_555 1_555
C7 C4 1_555 1_555
C8 O5 1_555 1_555
O9 H8 1_555 1_555
H9 O9 1_555 1_555
Lu1C O1C 1_555 1_555
Lu1C_2 O2 1_555 1_555
Lu1A O3 1_555 1_555
Lu1B O6 1_555 1_555
Lu1B_2 O3C 1_555 1_555
O1C C6C 1_555 1_555
O2C Lu1 1_555 1_555
O2_2 Lu1C 1_555 1_555
O3C C7C 1_555 1_555
O3A Lu1 1_555 1_555
O3B Lu1C 1_555 1_555
O4C Lu1B_2 1_555 1_555
O4A Lu1 1_555 1_555
O4B Lu1C 1_555 1_555
O5B Lu1B 1_555 1_555
O5C Lu1C 1_555 1_555
O6B Lu1 1_555 1_555
O6A Lu1C 1_555 1_555
O7C Lu1C 1_555 1_555
H1C O7C 1_555 1_555
H2C O7C 1_555 1_555
O8C Lu1C 1_555 1_555
H3C O8C 1_555 1_555
H4C O8C 1_555 1_555
N1C C1C 1_555 1_555
C1C H5C 1_555 1_555
C2C C1C 1_555 1_555
C3C C2C 1_555 1_555
H6C C3C 1_555 1_555
C4C C3C 1_555 1_555
C5C N1C 1_555 1_555
H7C C5C 1_555 1_555
C6C O2C 1_555 1_555
C7C O4C 1_555 1_555
C8B C8 1_555 1_555
O4 Lu1A 1_555 1_555
C4 C5 1_555 1_555
O5B C8B 1_555 1_555
O6B C8B 1_555 1_555
C2C C6C 1_555 1_555
C4C C5C 1_555 1_555
C4C C7C 1_555 1_555

#END
