
#######################################################################
#
#                 Cambridge Crystallographic Data Centre
#                                CCDC 
#
#######################################################################
#
# If this CIF has been generated from an entry in the Cambridge 
# Structural Database, then it will include bibliographic, chemical, 
# crystal, experimental, refinement or atomic coordinate data resulting 
# from the CCDC's data processing and validation procedures.
#
#######################################################################

data_MIVPIR
_symmetry_cell_setting           monoclinic
_symmetry_space_group_name_H-M   'P 21/n'
_symmetry_Int_Tables_number      14
_space_group_name_Hall           '-P 2yn'
loop_
_symmetry_equiv_pos_site_id
_symmetry_equiv_pos_as_xyz
1 x,y,z
2 1/2-x,1/2+y,1/2-z
3 -x,-y,-z
4 1/2+x,1/2-y,1/2+z
_cell_length_a                   7.6026(10)
_cell_length_b                   9.7798(13)
_cell_length_c                   14.6423(19)
_cell_angle_alpha                90
_cell_angle_beta                 98.075(2)
_cell_angle_gamma                90
_cell_volume                     1077.89
loop_
_atom_site_label
_atom_site_type_symbol
_atom_site_fract_x
_atom_site_fract_y
_atom_site_fract_z
Yb1 Yb 0.15198(2) 0.045618(15) 0.361647(10)
O1 O -0.1481(5) -0.0288(3) 0.3127(2)
O2 O 0.3310(4) 0.2336(3) 0.35221(18)
O3 O 0.2961(4) 0.0649(3) 0.5209(2)
C1 C 0.3065(5) 0.3619(4) 0.3412(3)
O4 O 0.0198(4) 0.1834(3) 0.23391(19)
C2 C 0.2783(6) 0.4424(4) 0.4244(3)
C3 C 0.4565(6) 0.0319(4) 0.5398(3)
O5 O 0.3041(4) 0.4213(3) 0.2655(2)
C4 C 0.2018(6) 0.5720(4) 0.4193(3)
H1 H 0.1713 0.6150 0.3627
C5 C 0.3311(6) 0.3871(4) 0.5117(3)
H2 H 0.3858 0.3018 0.5151
C6 C 0.0868(5) 0.7751(4) 0.4991(3)
O6 O 0.0959(4) 0.8480(3) 0.4293(2)
O7 O 0.0144(4) 0.8093(3) 0.5675(2)
C7 C 0.1718(5) 0.6363(4) 0.5009(3)
N1 N 0.3086(6) 0.4484(3) 0.5910(3)
C8 C 0.2238(6) 0.5702(4) 0.5848(3)
H3 H 0.1990 0.6116 0.6387
O8 O 0.5530(5) 0.0444(3) 0.6160(2)
H4 H -0.0640 0.1476 0.1918
H5 H -0.2207 0.0343 0.2837
H6 H 0.0584 0.2546 0.2036
H7 H -0.1993 -0.0475 0.3626
Yb1A Yb 0.34802(2) -0.454382(15) 0.138353(10)
Yb1A_2 Yb 0.34802(2) 0.545618(15) 0.138353(10)
Yb1_2 Yb 0.15198(2) 1.045618(15) 0.361647(10)
Yb1B Yb -0.15198(2) 0.954382(15) 0.638353(10)
Yb1B_2 Yb 0.84802(2) -0.045618(15) 0.638353(10)
Yb1C Yb 0.65198(2) 0.454382(15) -0.138353(10)
O1A O 0.6481(5) -0.5288(3) 0.1873(2)
O2A O 0.1690(4) -0.2664(3) 0.14779(18)
O3B O 0.7039(4) -0.0649(3) 0.4791(2)
O3A O 0.2039(4) -0.4351(3) -0.0209(2)
C1A C 0.1935(5) -0.1381(4) 0.1588(3)
O4A O 0.4802(4) -0.3166(3) 0.26609(19)
C2A C 0.2217(6) -0.0576(4) 0.0756(3)
C3B C 0.5435(6) -0.0319(4) 0.4602(3)
O5A O 0.1959(4) -0.0787(3) 0.2345(2)
O5_2 O 0.3041(4) -0.5787(3) 0.2655(2)
C4A C 0.2982(6) 0.0720(4) 0.0807(3)
H1A H 0.3287 0.1150 0.1373
C5A C 0.1689(6) -0.1129(4) -0.0117(3)
H2A H 0.1142 -0.1982 -0.0151
C6A C 0.4132(5) 0.2751(4) 0.0009(3)
O6A O 0.4041(4) 0.3480(3) 0.0707(2)
O6_2 O 0.0959(4) -0.1520(3) 0.4293(2)
O6A_2 O 0.4041(4) -0.6520(3) 0.0707(2)
O7A O 0.4856(4) 0.3093(3) -0.0675(2)
O7B O -0.0144(4) 0.1907(3) 0.4325(2)
O7C O 0.5144(4) -0.3093(3) 0.0675(2)
C7A C 0.3282(5) 0.1363(4) -0.0009(3)
N1A N 0.1914(6) -0.0516(3) -0.0910(3)
C8A C 0.2762(6) 0.0702(4) -0.0848(3)
H3A H 0.3010 0.1116 -0.1387
O8B O 0.4470(5) -0.0444(3) 0.3840(2)
O8C O 0.0530(5) -0.5444(3) 0.1160(2)
H4A H 0.5640 -0.3524 0.3082
H5A H 0.7207 -0.4657 0.2163
H6A H 0.4416 -0.2454 0.2964
H7A H 0.6993 -0.5475 0.1374
O9 O -0.3864(5) 0.1706(4) 0.2525(2)
H8 H -0.4700 0.1275 0.2101
H9 H -0.4544 0.2336 0.2769
loop_
_geom_bond_atom_site_label_1
_geom_bond_atom_site_label_2
_geom_bond_site_symmetry_1
_geom_bond_site_symmetry_2
Yb1 O1 1_555 1_555
O1 H5 1_555 1_555
O2 Yb1 1_555 1_555
O3 Yb1 1_555 1_555
C1 O2 1_555 1_555
O4 Yb1 1_555 1_555
C2 C1 1_555 1_555
C3 O3 1_555 1_555
O5 C1 1_555 1_555
C4 C2 1_555 1_555
H1 C4 1_555 1_555
C5 C2 1_555 1_555
H2 C5 1_555 1_555
C6 O6 1_555 1_555
O6 Yb1_2 1_555 1_555
O7 C6 1_555 1_555
C7 C4 1_555 1_555
N1 C5 1_555 1_555
C8 C7 1_555 1_555
H3 C8 1_555 1_555
O8 C3 1_555 1_555
H4 O4 1_555 1_555
H6 O4 1_555 1_555
H7 O1 1_555 1_555
O9 H8 1_555 1_555
H9 O9 1_555 1_555
Yb1A O1A 1_555 1_555
Yb1A_2 O5 1_555 1_555
Yb1B O7 1_555 1_555
Yb1B_2 O8 1_555 1_555
Yb1C O7A 1_555 1_555
O1A H5A 1_555 1_555
O2A Yb1A 1_555 1_555
O3B Yb1B_2 1_555 1_555
O3A Yb1A 1_555 1_555
C1A O2A 1_555 1_555
O4A Yb1A 1_555 1_555
C2A C1A 1_555 1_555
C3B C3 1_555 1_555
O5A Yb1 1_555 1_555
O5_2 Yb1A 1_555 1_555
C4A C2A 1_555 1_555
H1A C4A 1_555 1_555
C5A C2A 1_555 1_555
H2A C5A 1_555 1_555
C6A O6A 1_555 1_555
O6A Yb1A_2 1_555 1_555
O6_2 Yb1 1_555 1_555
O6A_2 Yb1A 1_555 1_555
O7A C6A 1_555 1_555
O7B Yb1 1_555 1_555
O7C Yb1A 1_555 1_555
C7A C4A 1_555 1_555
N1A C5A 1_555 1_555
C8A C7A 1_555 1_555
H3A C8A 1_555 1_555
O8B Yb1 1_555 1_555
O8C Yb1A 1_555 1_555
H4A O4A 1_555 1_555
H6A O4A 1_555 1_555
H7A O1A 1_555 1_555
C6 C7 1_555 1_555
N1 C8 1_555 1_555
O3B C3B 1_555 1_555
C1A O5A 1_555 1_555
C3B O8B 1_555 1_555
C6A C7A 1_555 1_555
N1A C8A 1_555 1_555

#END
