
#######################################################################
#
#                 Cambridge Crystallographic Data Centre
#                                CCDC 
#
#######################################################################
#
# If this CIF has been generated from an entry in the Cambridge 
# Structural Database, then it will include bibliographic, chemical, 
# crystal, experimental, refinement or atomic coordinate data resulting 
# from the CCDC's data processing and validation procedures.
#
#######################################################################

data_MIVPAJ
_symmetry_cell_setting           monoclinic
_symmetry_space_group_name_H-M   'P 21/n'
_symmetry_Int_Tables_number      14
_space_group_name_Hall           '-P 2yn'
loop_
_symmetry_equiv_pos_site_id
_symmetry_equiv_pos_as_xyz
1 x,y,z
2 1/2-x,1/2+y,1/2-z
3 -x,-y,-z
4 1/2+x,1/2-y,1/2+z
_cell_length_a                   7.6435(15)
_cell_length_b                   9.840(2)
_cell_length_c                   14.785(3)
_cell_angle_alpha                90
_cell_angle_beta                 98.27(3)
_cell_angle_gamma                90
_cell_volume                     1100.45
loop_
_atom_site_label
_atom_site_type_symbol
_atom_site_fract_x
_atom_site_fract_y
_atom_site_fract_z
Gd1 Gd 0.147996(12) 0.954963(9) 0.360785(6)
O1 O 0.33381(19) 0.76402(14) 0.35313(10)
O2 O 0.3048(2) 0.57668(16) 0.26915(10)
O3 O 0.0912(2) 0.15810(15) 0.42920(11)
O4 O 0.0213(2) 0.19413(16) 0.56757(11)
O5 O 0.4473(2) 1.04802(16) 0.38577(10)
O6 O 0.70347(19) 1.06313(15) 0.47933(10)
O7 O -0.1584(2) 1.03059(17) 0.31218(11)
H1 H -0.1928 1.0576 0.3611
H2 H -0.2263 0.9680 0.2884
O8 O 0.0137(2) 0.81295(16) 0.23181(11)
H3 H -0.0583 0.8539 0.1913
H4 H 0.0418 0.7374 0.2100
N1 N 0.3079(3) 0.55254(19) 0.58963(13)
C1 C 0.3308(3) 0.6134(2) 0.51187(14)
H5 H 0.3848 0.6983 0.5153
C2 C 0.2789(3) 0.5579(2) 0.42611(14)
C3 C 0.2037(3) 0.4293(2) 0.42064(14)
H6 H 0.1740 0.3863 0.3645
C4 C 0.1738(3) 0.3665(2) 0.50096(14)
C5 C 0.2260(3) 0.4317(2) 0.58344(15)
H7 H 0.2032 0.3898 0.6369
C6 C 0.3080(2) 0.6373(2) 0.34307(14)
C7 C 0.0887(3) 0.2285(2) 0.49933(14)
C8 C 0.5432(3) 1.0316(2) 0.46098(14)
Gd1A Gd 0.352004(12) 1.454963(9) 0.139215(6)
Gd1A_2 Gd 0.352004(12) 0.454963(9) 0.139215(6)
Gd1_2 Gd 0.147996(12) -0.045037(9) 0.360785(6)
Gd1B Gd -0.147996(12) 0.045037(9) 0.639215(6)
Gd1B_2 Gd 0.852004(12) 1.045037(9) 0.639215(6)
Gd1C Gd 0.647996(12) 0.545037(9) -0.139215(6)
O1A O 0.16619(19) 1.26402(14) 0.14687(10)
O2A O 0.1952(2) 1.07668(16) 0.23085(10)
O2_2 O 0.3048(2) 1.57668(16) 0.26915(10)
O3A O 0.4088(2) 0.65810(15) 0.07080(11)
O3_2 O 0.0912(2) 1.15810(15) 0.42920(11)
O3A_2 O 0.4088(2) 1.65810(15) 0.07080(11)
O4A O 0.4787(2) 0.69413(16) -0.06757(11)
O4B O -0.0213(2) 0.80587(16) 0.43243(11)
O4C O 0.5213(2) 1.30587(16) 0.06757(11)
O5B O 0.5527(2) 0.95198(16) 0.61423(10)
O5A O 0.0527(2) 1.54802(16) 0.11423(10)
O6B O 0.29653(19) 0.93687(15) 0.52067(10)
O6C O 0.20347(19) 1.43687(15) -0.02067(10)
O7A O 0.6584(2) 1.53059(17) 0.18782(11)
H1A H 0.6928 1.5576 0.1389
H2A H 0.7263 1.4680 0.2116
O8A O 0.4863(2) 1.31295(16) 0.26819(11)
H3A H 0.5583 1.3539 0.3087
H4A H 0.4582 1.2374 0.2900
N1A N 0.1921(3) 1.05254(19) -0.08963(13)
C1A C 0.1692(3) 1.1134(2) -0.01187(14)
H5A H 0.1152 1.1983 -0.0153
C2A C 0.2211(3) 1.0579(2) 0.07389(14)
C3A C 0.2963(3) 0.9293(2) 0.07936(14)
H6A H 0.3260 0.8863 0.1355
C4A C 0.3262(3) 0.8665(2) -0.00096(14)
C5A C 0.2740(3) 0.9317(2) -0.08344(15)
H7A H 0.2968 0.8898 -0.1369
C6A C 0.1920(2) 1.1373(2) 0.15693(14)
C7A C 0.4113(3) 0.7285(2) 0.00067(14)
C8B C 0.4568(3) 0.9684(2) 0.53902(14)
O9 O -0.3912(2) 0.8317(2) 0.25221(14)
H8 H -0.4685 0.8093 0.2859
H9 H -0.3624 0.7611 0.2243
loop_
_geom_bond_atom_site_label_1
_geom_bond_atom_site_label_2
_geom_bond_site_symmetry_1
_geom_bond_site_symmetry_2
Gd1 O1 1_555 1_555
O1 C6 1_555 1_555
O2 C6 1_555 1_555
O3 C7 1_555 1_555
O4 C7 1_555 1_555
O5 Gd1 1_555 1_555
O6 C8 1_555 1_555
O7 Gd1 1_555 1_555
H1 O7 1_555 1_555
H2 O7 1_555 1_555
O8 Gd1 1_555 1_555
H3 O8 1_555 1_555
H4 O8 1_555 1_555
N1 C1 1_555 1_555
C1 H5 1_555 1_555
C2 C1 1_555 1_555
C3 C2 1_555 1_555
H6 C3 1_555 1_555
C4 C3 1_555 1_555
C5 N1 1_555 1_555
H7 C5 1_555 1_555
C6 C2 1_555 1_555
C7 C4 1_555 1_555
C8 O5 1_555 1_555
O9 H8 1_555 1_555
H9 O9 1_555 1_555
Gd1A O1A 1_555 1_555
Gd1A_2 O2 1_555 1_555
Gd1_2 O3 1_555 1_555
Gd1B O4 1_555 1_555
Gd1B_2 O6 1_555 1_555
Gd1C O4A 1_555 1_555
O1A C6A 1_555 1_555
O2A Gd1 1_555 1_555
O2_2 Gd1A 1_555 1_555
O3A Gd1A_2 1_555 1_555
O3_2 Gd1 1_555 1_555
O3A_2 Gd1A 1_555 1_555
O4A C7A 1_555 1_555
O4B Gd1 1_555 1_555
O4C Gd1A 1_555 1_555
O5B Gd1B_2 1_555 1_555
O5A Gd1A 1_555 1_555
O6B Gd1 1_555 1_555
O6C Gd1A 1_555 1_555
O7A Gd1A 1_555 1_555
H1A O7A 1_555 1_555
H2A O7A 1_555 1_555
O8A Gd1A 1_555 1_555
H3A O8A 1_555 1_555
H4A O8A 1_555 1_555
N1A C1A 1_555 1_555
C1A H5A 1_555 1_555
C2A C1A 1_555 1_555
C3A C2A 1_555 1_555
H6A C3A 1_555 1_555
C4A C3A 1_555 1_555
C5A N1A 1_555 1_555
H7A C5A 1_555 1_555
C6A O2A 1_555 1_555
C7A O3A 1_555 1_555
C8B C8 1_555 1_555
C4 C5 1_555 1_555
O5B C8B 1_555 1_555
O6B C8B 1_555 1_555
C2A C6A 1_555 1_555
C4A C5A 1_555 1_555
C4A C7A 1_555 1_555

#END
