
#######################################################################
#
#                 Cambridge Crystallographic Data Centre
#                                CCDC 
#
#######################################################################
#
# If this CIF has been generated from an entry in the Cambridge 
# Structural Database, then it will include bibliographic, chemical, 
# crystal, experimental, refinement or atomic coordinate data resulting 
# from the CCDC's data processing and validation procedures.
#
#######################################################################

data_MIVVIY
_symmetry_cell_setting           monoclinic
_symmetry_space_group_name_H-M   'P 21/n'
_symmetry_Int_Tables_number      14
_space_group_name_Hall           '-P 2yn'
loop_
_symmetry_equiv_pos_site_id
_symmetry_equiv_pos_as_xyz
1 x,y,z
2 1/2-x,1/2+y,1/2-z
3 -x,-y,-z
4 1/2+x,1/2-y,1/2+z
_cell_length_a                   9.470(3)
_cell_length_b                   8.587(3)
_cell_length_c                   30.417(9)
_cell_angle_alpha                90
_cell_angle_beta                 100.186(12)
_cell_angle_gamma                90
_cell_volume                     2434.49
loop_
_atom_site_label
_atom_site_type_symbol
_atom_site_fract_x
_atom_site_fract_y
_atom_site_fract_z
Cu1 Cu 1.1299(3) 0.9366(3) 0.02046(7)
I1 I 0.88499(14) 0.77566(14) 0.01432(4)
O1 O 1.6349(15) 0.6461(17) -0.1058(5)
O2 O 1.7874(15) 0.534(2) -0.2464(4)
C1 C 1.732(2) 0.570(2) -0.1290(6)
C2 C 1.703(3) 0.576(3) -0.1756(7)
H1 H 1.6166 0.6161 -0.1906
C3 C 1.805(2) 0.520(3) -0.1995(5)
C4 C 1.928(2) 0.446(4) -0.1792(7)
H2 H 1.9888 0.3957 -0.1956
C5 C 1.958(3) 0.449(3) -0.1313(7)
H3 H 2.0445 0.4108 -0.1158
C6 C 1.854(2) 0.512(3) -0.1078(6)
H4 H 1.8726 0.5126 -0.0768
O3 O 1.562(2) 0.4173(18) -0.0813(6)
N1 N 1.2678(17) 0.8115(17) -0.0116(6)
C7 C 1.261(2) 0.659(2) -0.0179(6)
H5 H 1.1897 0.6049 -0.0070
C8 C 1.352(2) 0.574(2) -0.0392(7)
H6 H 1.3403 0.4662 -0.0415
C9 C 1.459(2) 0.645(2) -0.0574(7)
C10 C 1.465(2) 0.805(2) -0.0514(6)
H7 H 1.5347 0.8625 -0.0622
C11 C 1.3682(18) 0.882(2) -0.0296(6)
H8 H 1.3744 0.9900 -0.0275
C12 C 1.560(2) 0.553(2) -0.0814(6)
O4 O 1.585(3) 0.397(3) -0.2551(5)
N2 N 1.6670(15) 0.5263(15) -0.4112(4)
C13 C 1.583(2) 0.424(3) -0.3945(6)
H9 H 1.5213 0.3625 -0.4148
C14 C 1.580(2) 0.402(3) -0.3489(6)
H10 H 1.5131 0.3372 -0.3391
C15 C 1.680(2) 0.481(2) -0.3199(5)
C16 C 1.765(2) 0.592(2) -0.3368(6)
H11 H 1.8254 0.6572 -0.3174
C17 C 1.759(2) 0.604(2) -0.3838(6)
H12 H 1.8231 0.6688 -0.3948
C18 C 1.678(2) 0.459(3) -0.2712(7)
Cu1B Cu 0.8701(3) 1.0634(3) -0.02046(7)
Cu1C Cu 1.6299(3) 0.5634(3) -0.47954(7)
I1B I 1.11501(14) 1.22434(14) -0.01432(4)
N2C N 1.1670(15) 0.9737(15) 0.0888(4)
N3 N 1.230(4) 0.148(5) -0.3402(14)
C19 C 1.198(3) 0.447(3) -0.3277(10)
C20 C 1.215(4) 0.555(5) -0.3596(10)
H13 H 1.2405 0.5214 -0.3862
C21 C 1.196(4) 0.705(6) -0.3535(18)
H14 H 1.2084 0.7759 -0.3756
C22 C 1.157(4) 0.756(5) -0.3126(19)
H15 H 1.1443 0.8618 -0.3078
C23 C 1.139(3) 0.650(6) -0.2806(12)
H16 H 1.1176 0.6820 -0.2532
C24 C 1.153(3) 0.490(5) -0.2903(11)
H17 H 1.1315 0.4144 -0.2706
C25 C 1.215(4) 0.280(6) -0.3346(13)
loop_
_geom_bond_atom_site_label_1
_geom_bond_atom_site_label_2
_geom_bond_site_symmetry_1
_geom_bond_site_symmetry_2
Cu1 I1 1_555 1_555
I1 Cu1B 1_555 1_555
O1 C1 1_555 1_555
O2 C3 1_555 1_555
C1 C2 1_555 1_555
C2 H1 1_555 1_555
C3 C2 1_555 1_555
C4 C3 1_555 1_555
H2 C4 1_555 1_555
C5 C4 1_555 1_555
H3 C5 1_555 1_555
C6 C1 1_555 1_555
H4 C6 1_555 1_555
O3 C12 1_555 1_555
N1 Cu1 1_555 1_555
C7 N1 1_555 1_555
H5 C7 1_555 1_555
C8 C7 1_555 1_555
H6 C8 1_555 1_555
C9 C8 1_555 1_555
C10 C9 1_555 1_555
H7 C10 1_555 1_555
C11 N1 1_555 1_555
H8 C11 1_555 1_555
C12 O1 1_555 1_555
O4 C18 1_555 1_555
N2 C13 1_555 1_555
C13 H9 1_555 1_555
C14 C13 1_555 1_555
H10 C14 1_555 1_555
C15 C14 1_555 1_555
C16 C15 1_555 1_555
H11 C16 1_555 1_555
C17 N2 1_555 1_555
H12 C17 1_555 1_555
C18 O2 1_555 1_555
N3 C25 1_555 1_555
C19 C20 1_555 1_555
C20 H13 1_555 1_555
C21 C20 1_555 1_555
H14 C21 1_555 1_555
C22 C21 1_555 1_555
H15 C22 1_555 1_555
C23 C22 1_555 1_555
H16 C23 1_555 1_555
C24 C19 1_555 1_555
H17 C24 1_555 1_555
C25 C19 1_555 1_555
Cu1B Cu1 1_555 1_555
Cu1C N2 1_555 1_555
I1B Cu1 1_555 1_555
N2C Cu1 1_555 1_555
C5 C6 1_555 1_555
C9 C12 1_555 1_555
C10 C11 1_555 1_555
C15 C18 1_555 1_555
C16 C17 1_555 1_555
C23 C24 1_555 1_555
Cu1B I1B 1_555 1_555

#END
