
#######################################################################
#
#                 Cambridge Crystallographic Data Centre
#                                CCDC 
#
#######################################################################
#
# If this CIF has been generated from an entry in the Cambridge 
# Structural Database, then it will include bibliographic, chemical, 
# crystal, experimental, refinement or atomic coordinate data resulting 
# from the CCDC's data processing and validation procedures.
#
#######################################################################

data_MIVVEU
_symmetry_cell_setting           monoclinic
_symmetry_space_group_name_H-M   'P 21/n'
_symmetry_Int_Tables_number      14
_space_group_name_Hall           '-P 2yn'
loop_
_symmetry_equiv_pos_site_id
_symmetry_equiv_pos_as_xyz
1 x,y,z
2 1/2-x,1/2+y,1/2-z
3 -x,-y,-z
4 1/2+x,1/2-y,1/2+z
_cell_length_a                   9.608(2)
_cell_length_b                   8.3895(18)
_cell_length_c                   30.122(6)
_cell_angle_alpha                90
_cell_angle_beta                 97.841(6)
_cell_angle_gamma                90
_cell_volume                     2405.32
loop_
_atom_site_label
_atom_site_type_symbol
_atom_site_fract_x
_atom_site_fract_y
_atom_site_fract_z
Cu1 Cu 1.13096(19) 0.9365(2) 0.02053(5)
I1 I 0.89132(9) 0.76880(10) 0.01263(3)
O1 O 1.6285(11) 0.6488(13) -0.1066(3)
O2 O 1.7861(10) 0.5252(16) -0.2466(3)
C1 C 1.7291(14) 0.569(2) -0.1296(4)
C2 C 1.7008(16) 0.577(2) -0.1760(5)
H1 H 1.6187 0.6223 -0.1905
C3 C 1.8046(16) 0.512(2) -0.1999(4)
C4 C 1.9232(16) 0.453(2) -0.1788(5)
H2 H 1.9904 0.4137 -0.1954
C5 C 1.9503(16) 0.449(3) -0.1311(5)
H3 H 2.0329 0.4049 -0.1163
C6 C 1.8494(15) 0.512(2) -0.1075(4)
H4 H 1.8649 0.5143 -0.0764
O3 O 1.5628(15) 0.4147(15) -0.0813(5)
N1 N 1.2670(12) 0.8167(13) -0.0138(4)
C7 C 1.2605(17) 0.6612(18) -0.0180(6)
H5 H 1.1908 0.6072 -0.0055
C8 C 1.3518(18) 0.5728(17) -0.0403(5)
H6 H 1.3427 0.4626 -0.0425
C9 C 1.4557(14) 0.6500(18) -0.0590(5)
C10 C 1.4633(16) 0.8142(19) -0.0536(5)
H7 H 1.5317 0.8721 -0.0657
C11 C 1.3695(15) 0.8912(19) -0.0304(5)
H8 H 1.3786 1.0007 -0.0263
C12 C 1.5563(16) 0.553(2) -0.0812(5)
O4 O 1.5912(16) 0.379(2) -0.2555(4)
N2 N 1.6642(12) 0.5279(13) -0.4114(3)
C13 C 1.5783(17) 0.427(2) -0.3943(4)
H9 H 1.5134 0.3697 -0.4139
C14 C 1.5815(16) 0.402(2) -0.3481(5)
H10 H 1.5187 0.3323 -0.3374
C15 C 1.6773(14) 0.4819(16) -0.3196(4)
C16 C 1.7665(17) 0.587(2) -0.3363(4)
H11 H 1.8309 0.6464 -0.3171
C17 C 1.7585(15) 0.6032(19) -0.3824(5)
H12 H 1.8226 0.6702 -0.3936
C18 C 1.6776(16) 0.4570(19) -0.2707(4)
Cu1B Cu 0.86904(19) 1.0635(2) -0.02053(5)
Cu1C Cu 1.63096(19) 0.5635(2) -0.47947(5)
I1B I 1.10868(9) 1.23120(10) -0.01263(3)
N2C N 1.1642(12) 0.9721(13) 0.0886(3)
O5 O 1.428(3) -0.204(4) -0.2287(10)
O6 O 1.305(3) -0.286(3) -0.1775(14)
N3 N 1.355(3) -0.182(5) -0.1943(14)
C19 C 1.329(2) -0.015(3) -0.1842(8)
C20 C 1.373(3) 0.106(5) -0.2117(9)
H13 H 1.4140 0.0854 -0.2375
C21 C 1.350(3) 0.258(4) -0.1966(10)
H14 H 1.3753 0.3433 -0.2135
C22 C 1.297(3) 0.289(4) -0.1609(10)
H15 H 1.2804 0.3942 -0.1537
C23 C 1.264(4) 0.169(4) -0.1330(10)
H16 H 1.2315 0.1926 -0.1060
C24 C 1.277(2) 0.021(4) -0.1451(7)
H17 H 1.2519 -0.0609 -0.1270
loop_
_geom_bond_atom_site_label_1
_geom_bond_atom_site_label_2
_geom_bond_site_symmetry_1
_geom_bond_site_symmetry_2
Cu1 I1 1_555 1_555
I1 Cu1B 1_555 1_555
O1 C1 1_555 1_555
O2 C3 1_555 1_555
C1 C2 1_555 1_555
C2 H1 1_555 1_555
C3 C2 1_555 1_555
C4 C3 1_555 1_555
H2 C4 1_555 1_555
C5 C4 1_555 1_555
H3 C5 1_555 1_555
C6 C1 1_555 1_555
H4 C6 1_555 1_555
O3 C12 1_555 1_555
N1 Cu1 1_555 1_555
C7 N1 1_555 1_555
H5 C7 1_555 1_555
C8 C7 1_555 1_555
H6 C8 1_555 1_555
C9 C8 1_555 1_555
C10 C9 1_555 1_555
H7 C10 1_555 1_555
C11 N1 1_555 1_555
H8 C11 1_555 1_555
C12 O1 1_555 1_555
O4 C18 1_555 1_555
N2 C13 1_555 1_555
C13 H9 1_555 1_555
C14 C13 1_555 1_555
H10 C14 1_555 1_555
C15 C14 1_555 1_555
C16 C15 1_555 1_555
H11 C16 1_555 1_555
C17 N2 1_555 1_555
H12 C17 1_555 1_555
C18 O2 1_555 1_555
O5 N3 1_555 1_555
O6 N3 1_555 1_555
N3 C19 1_555 1_555
C19 C20 1_555 1_555
C20 H13 1_555 1_555
C21 C20 1_555 1_555
H14 C21 1_555 1_555
C22 C21 1_555 1_555
H15 C22 1_555 1_555
C23 C22 1_555 1_555
H16 C23 1_555 1_555
C24 C19 1_555 1_555
H17 C24 1_555 1_555
Cu1B Cu1 1_555 1_555
Cu1C N2 1_555 1_555
I1B Cu1 1_555 1_555
N2C Cu1 1_555 1_555
C5 C6 1_555 1_555
C9 C12 1_555 1_555
C10 C11 1_555 1_555
C15 C18 1_555 1_555
C16 C17 1_555 1_555
C23 C24 1_555 1_555
Cu1B I1B 1_555 1_555

#END
