
#######################################################################
#
#                 Cambridge Crystallographic Data Centre
#                                CCDC 
#
#######################################################################
#
# If this CIF has been generated from an entry in the Cambridge 
# Structural Database, then it will include bibliographic, chemical, 
# crystal, experimental, refinement or atomic coordinate data resulting 
# from the CCDC's data processing and validation procedures.
#
#######################################################################

data_MIVVOE
_symmetry_cell_setting           monoclinic
_symmetry_space_group_name_H-M   'P 21/n'
_symmetry_Int_Tables_number      14
_space_group_name_Hall           '-P 2yn'
loop_
_symmetry_equiv_pos_site_id
_symmetry_equiv_pos_as_xyz
1 x,y,z
2 1/2-x,1/2+y,1/2-z
3 -x,-y,-z
4 1/2+x,1/2-y,1/2+z
_cell_length_a                   9.6255(19)
_cell_length_b                   8.4480(17)
_cell_length_c                   29.784(6)
_cell_angle_alpha                90
_cell_angle_beta                 94.921(7)
_cell_angle_gamma                90
_cell_volume                     2413
loop_
_atom_site_label
_atom_site_type_symbol
_atom_site_fract_x
_atom_site_fract_y
_atom_site_fract_z
I1 I -0.61194(6) 1.27261(7) 0.013975(19)
Cu1 Cu -0.37446(11) 1.43758(12) 0.02070(3)
O1 O 0.1514(6) 1.1427(8) -0.1020(2)
O2 O 0.2960(7) 1.0147(11) -0.2472(2)
O3 O 0.0624(10) 0.9127(9) -0.0828(4)
N1 N -0.2320(8) 1.3153(9) -0.0124(2)
C1 C -0.1251(10) 1.3873(12) -0.0283(4)
H1 H -0.1172 1.4964 -0.0247
C2 C -0.0232(10) 1.3080(12) -0.0501(4)
H2 H 0.0515 1.3631 -0.0604
C3 C -0.0349(9) 1.1453(11) -0.0564(3)
C4 C -0.1455(11) 1.0713(11) -0.0391(4)
H3 H -0.1546 0.9620 -0.0414
C5 C -0.2435(10) 1.1577(12) -0.0181(3)
H4 H -0.3194 1.1054 -0.0077
C6 C 0.0642(10) 1.0487(12) -0.0803(3)
C7 C 0.2458(10) 1.0648(12) -0.1272(3)
C8 C 0.2180(10) 1.0674(13) -0.1741(3)
H5 H 0.1364 1.1130 -0.1872
C9 C 0.3113(10) 1.0029(14) -0.2001(3)
C10 C 0.4360(11) 0.9348(15) -0.1803(3)
H6 H 0.5008 0.8916 -0.1982
C11 C 0.4603(12) 0.9335(16) -0.1341(3)
H7 H 0.5421 0.8897 -0.1205
C12 C 0.3629(10) 0.9972(15) -0.1081(3)
H8 H 0.3782 0.9935 -0.0768
O4 O 0.1006(13) 0.8791(14) -0.2513(3)
N2 N 0.1631(7) 1.0244(8) -0.4115(2)
C13 C 0.2609(10) 1.0920(11) -0.3848(3)
H9 H 0.3255 1.1557 -0.3977
C14 C 0.2732(10) 1.0729(12) -0.3374(3)
H10 H 0.3438 1.1237 -0.3196
C15 C 0.1810(10) 0.9802(11) -0.3186(3)
C16 C 0.0835(13) 0.9057(14) -0.3453(3)
H11 H 0.0205 0.8386 -0.3329
C17 C 0.0761(11) 0.9283(12) -0.3914(3)
H12 H 0.0078 0.8745 -0.4094
C18 C 0.1849(13) 0.9509(13) -0.2697(3)
I1B I -0.38806(6) 1.72739(7) -0.013975(19)
Cu1B Cu -0.62554(11) 1.56242(12) -0.02070(3)
Cu1C Cu 0.12554(11) 1.06242(12) -0.47930(3)
N2C N -0.3369(7) 1.4756(8) 0.0885(2)
Br2 Br 0.2262(5) 0.8002(6) 0.16407(19)
C19 C 0.1938(16) 0.5775(13) 0.1661(7)
C20 C 0.1448(16) 0.5281(18) 0.2064(5)
H13 H 0.1267 0.6022 0.2283
C21 C 0.1227(16) 0.368(2) 0.2140(5)
H14 H 0.0899 0.3351 0.2409
C22 C 0.1496(16) 0.2574(13) 0.1813(6)
H15 H 0.1349 0.1504 0.1864
C23 C 0.1987(15) 0.3068(18) 0.1410(5)
H16 H 0.2167 0.2328 0.1192
C24 C 0.2207(15) 0.467(2) 0.1334(5)
H17 H 0.2535 0.4999 0.1065
Br1? Br 0.1589(15) 0.7583(15) 0.2075(5)
loop_
_geom_bond_atom_site_label_1
_geom_bond_atom_site_label_2
_geom_bond_site_symmetry_1
_geom_bond_site_symmetry_2
I1 Cu1 1_555 1_555
Cu1 N1 1_555 1_555
O1 C6 1_555 1_555
O2 C9 1_555 1_555
O3 C6 1_555 1_555
N1 C1 1_555 1_555
C1 H1 1_555 1_555
C2 C1 1_555 1_555
H2 C2 1_555 1_555
C3 C2 1_555 1_555
C4 C3 1_555 1_555
H3 C4 1_555 1_555
C5 N1 1_555 1_555
H4 C5 1_555 1_555
C6 C3 1_555 1_555
C7 O1 1_555 1_555
C8 C7 1_555 1_555
H5 C8 1_555 1_555
C9 C8 1_555 1_555
C10 C9 1_555 1_555
H6 C10 1_555 1_555
C11 C10 1_555 1_555
H7 C11 1_555 1_555
C12 C7 1_555 1_555
H8 C12 1_555 1_555
O4 C18 1_555 1_555
N2 C13 1_555 1_555
C13 H9 1_555 1_555
C14 C13 1_555 1_555
H10 C14 1_555 1_555
C15 C14 1_555 1_555
C16 C15 1_555 1_555
H11 C16 1_555 1_555
C17 N2 1_555 1_555
H12 C17 1_555 1_555
C18 O2 1_555 1_555
Br2 C19 1_555 1_555
C19 C20 1_555 1_555
C20 H13 1_555 1_555
C21 C20 1_555 1_555
H14 C21 1_555 1_555
C22 C21 1_555 1_555
H15 C22 1_555 1_555
C23 C22 1_555 1_555
H16 C23 1_555 1_555
C24 C19 1_555 1_555
H17 C24 1_555 1_555
I1B Cu1 1_555 1_555
Cu1B I1 1_555 1_555
Cu1C N2 1_555 1_555
N2C Cu1 1_555 1_555
Cu1 Cu1B 1_555 1_555
C4 C5 1_555 1_555
C11 C12 1_555 1_555
C15 C18 1_555 1_555
C16 C17 1_555 1_555
C23 C24 1_555 1_555
I1B Cu1B 1_555 1_555

#END
