
#######################################################################
#
#                 Cambridge Crystallographic Data Centre
#                                CCDC 
#
#######################################################################
#
# If this CIF has been generated from an entry in the Cambridge 
# Structural Database, then it will include bibliographic, chemical, 
# crystal, experimental, refinement or atomic coordinate data resulting 
# from the CCDC's data processing and validation procedures.
#
#######################################################################

data_MIVWEU
_symmetry_cell_setting           tetragonal
_symmetry_space_group_name_H-M   'I 41/a'
_symmetry_Int_Tables_number      88
_space_group_name_Hall           '-I 4ad'
loop_
_symmetry_equiv_pos_site_id
_symmetry_equiv_pos_as_xyz
1 x,y,z
2 3/4-y,1/4+x,1/4+z
3 1/2+x,1/2+y,1/2+z
4 1/4-y,3/4+x,3/4+z
5 1/4+y,1/4-x,1/4+z
6 1/2-x,-y,1/2+z
7 3/4+y,3/4-x,3/4+z
8 -x,1/2-y,z
9 -x,-y,-z
10 1/4+y,3/4-x,3/4-z
11 1/2-x,1/2-y,1/2-z
12 3/4+y,1/4-x,1/4-z
13 3/4-y,3/4+x,3/4-z
14 1/2+x,y,1/2-z
15 1/4-y,1/4+x,1/4-z
16 x,1/2+y,-z
_cell_length_a                   61.7239(11)
_cell_length_b                   61.7239(11)
_cell_length_c                   26.9189(5)
_cell_angle_alpha                90
_cell_angle_beta                 90
_cell_angle_gamma                90
_cell_volume                     102557
loop_
_atom_site_label
_atom_site_type_symbol
_atom_site_fract_x
_atom_site_fract_y
_atom_site_fract_z
Ag1 Ag 0.707653(11) 0.273931(9) 0.76873(2)
Ag2 Ag 0.736148(10) 0.252487(9) 0.67432(2)
Ag3 Ag 0.465140(11) 0.012000(9) 0.00823(2)
Ag4 Ag 0.320090(8) 0.114570(8) 0.493360(19)
Ag5 Ag 0.267810(8) 0.100100(8) 0.50018(2)
Ag6 Ag 0.669750(8) 0.553670(9) -0.16411(2)
Ag7 Ag 0.653270(8) 0.059460(9) 0.38001(2)
Ag8 Ag 0.688480(9) 0.039050(9) 0.29870(2)
Ag9 Ag 0.676230(9) 0.094050(9) 0.29735(2)
Ag10 Ag 0.220640(8) 0.389790(8) 0.40983(2)
Ag11 Ag 0.234880(8) 0.428850(8) 0.485490(19)
Ag12 Ag 0.258170(8) 0.377880(9) 0.50207(2)
Ag13 Ag 0.690880(9) 0.371740(8) 0.01693(2)
Ag14 Ag 0.708270(8) 0.406270(9) -0.06574(2)
Ag15 Ag 0.666380(8) 0.420740(8) 0.01736(2)
Ag16 Ag 0.424160(9) 0.147860(9) -0.27447(2)
Ag17 Ag 0.459610(9) 0.132630(9) -0.18771(2)
Ag18 Ag 0.443450(9) 0.096390(8) -0.27822(2)
Ag19 Ag 0.379310(8) 0.243980(8) -0.01980(2)
Ag20 Ag 0.430030(9) 0.264020(9) -0.02494(2)
Ag21 Ag 0.399050(8) 0.279890(8) 0.07030(2)
Ag22 Ag 0.583250(9) 0.315730(9) 0.21691(2)
Ag23 Ag 0.532600(9) 0.298910(9) 0.21504(2)
Ag24 Ag 0.549820(8) 0.331050(9) 0.11821(2)
Ag25 Ag 0.587730(9) 0.200630(9) 0.44362(2)
Ag26 Ag 0.617070(9) 0.191550(10) 0.54222(2)
Ag27 Ag 0.597650(9) 0.243410(9) 0.52404(2)
Ag28 Ag 0.282530(8) 0.214960(8) 0.247430(19)
Ag29 Ag 0.273140(8) 0.268280(8) 0.249050(19)
Ag30 Ag 0.254750(8) 0.237490(8) 0.345570(19)
N1 N 0.69084(10) 0.25704(10) 0.7142(2)
N2 N 0.70326(10) 0.24748(10) 0.6785(2)
N3 N 0.49019(10) 0.01840(9) -0.0863(2)
N4 N 0.47696(10) 0.02868(10) -0.0533(2)
N5 N 0.74469(11) 0.29899(10) -0.1843(2)
N6 N 0.72304(11) 0.29445(10) -0.1812(2)
N7 N 0.29826(9) 0.12979(8) 0.4472(2)
N8 N 0.27662(9) 0.12400(9) 0.4501(2)
N9 N 0.66946(9) 0.50690(9) -0.1922(2)
N10 N 0.67533(9) 0.52069(9) -0.1547(2)
N11 N 0.33577(8) 0.08976(9) -0.4176(2)
N12 N 0.34218(8) 0.10327(9) -0.4552(2)
N13 N 0.66172(9) 0.02721(9) 0.3861(2)
N14 N 0.67589(9) 0.01865(9) 0.3517(2)
N15 N 0.69061(9) -0.04684(9) 0.4988(2)
N16 N 0.66858(9) -0.05102(9) 0.4988(2)
N17 N 0.65504(9) 0.10655(10) 0.3494(2)
N18 N 0.64688(9) 0.09220(9) 0.3835(2)
N19 N 0.20543(8) 0.41930(9) 0.4018(2)
N20 N 0.21221(9) 0.43586(9) 0.4318(2)
N21 N 0.17324(9) 0.49206(9) 0.2888(2)
N22 N 0.15369(9) 0.48229(9) 0.2971(2)
N23 N 0.24940(9) 0.35404(9) 0.4506(2)
N24 N 0.23480(9) 0.35971(9) 0.4152(2)
N25 N 0.71180(9) 0.36065(9) -0.0368(2)
N26 N 0.71919(9) 0.37479(9) -0.0722(2)
N27 N 0.69471(9) 0.43673(9) -0.0654(2)
N28 N 0.67857(8) 0.44326(9) -0.0339(2)
N29 N 0.65292(8) 0.39592(8) 0.0609(2)
N30 N 0.66525(9) 0.37775(9) 0.0645(2)
N31 N 0.42989(9) 0.16828(9) -0.2148(2)
N32 N 0.44487(9) 0.16244(9) -0.1798(2)
N33 N 0.47044(9) 0.10095(9) -0.1862(2)
N34 N 0.46312(9) 0.08592(9) -0.2201(2)
N35 N 0.41956(9) 0.10552(9) -0.3291(2)
N36 N 0.41324(9) 0.12653(9) -0.3289(2)
N37 N 0.40036(9) 0.23206(9) -0.0738(2)
N38 N 0.42106(9) 0.24003(9) -0.0737(2)
N39 N 0.44283(8) 0.28426(9) 0.0282(2)
N40 N 0.43039(9) 0.29155(9) 0.0663(2)
N41 N 0.36862(9) 0.26638(9) 0.0766(2)
N42 N 0.36054(9) 0.25266(9) 0.0415(2)
N43 N 0.57286(9) 0.29596(9) 0.2744(2)
N44 N 0.55197(9) 0.28835(9) 0.2715(2)
N45 N 0.51222(9) 0.30693(10) 0.1582(2)
N46 N 0.51814(9) 0.32016(9) 0.1195(2)
N47 N 0.58206(9) 0.34055(9) 0.1191(2)
N48 N 0.59422(9) 0.33549(9) 0.1603(2)
N49 N 0.60362(9) 0.17111(10) 0.4481(2)
N50 N 0.61601(9) 0.16747(10) 0.4892(2)
N51 N 0.62521(9) 0.21647(10) 0.5907(2)
N52 N 0.61908(9) 0.23784(10) 0.5819(2)
N53 N 0.58043(9) 0.24885(9) 0.4591(2)
N54 N 0.57592(9) 0.23155(9) 0.4288(2)
N55 N 0.29614(8) 0.23376(8) 0.1915(2)
N56 N 0.29146(8) 0.25553(8) 0.1915(2)
N57 N 0.25909(8) 0.28312(8) 0.3101(2)
N58 N 0.25252(9) 0.27092(9) 0.3494(2)
N59 N 0.26105(9) 0.20452(9) 0.3457(2)
N60 N 0.27368(8) 0.19615(9) 0.3082(2)
C1 C 0.65225(14) 0.26489(14) 0.7335(3)
C2 C 0.66998(12) 0.25539(12) 0.7017(3)
C3 C 0.66822(12) 0.24417(12) 0.6569(3)
C4 C 0.68959(13) 0.23957(12) 0.6436(3)
C5 C 0.69819(13) 0.22863(14) 0.5984(3)
C6 C 0.50681(14) 0.02499(12) -0.1682(3)
C7 C 0.49241(12) 0.03103(11) -0.1260(3)
C8 C 0.48017(12) 0.05026(11) -0.1194(3)
C9 C 0.47079(12) 0.04786(12) -0.0722(3)
C10 C 0.45663(14) 0.06254(14) -0.0441(3)
C11 C 0.77104(14) 0.32458(14) -0.1492(3)
C12 C 0.74846(13) 0.31599(12) -0.1543(3)
C13 C 0.72947(12) 0.32255(12) -0.1321(3)
C14 C 0.71365(13) 0.30838(12) -0.1497(3)
C15 C 0.69000(13) 0.30740(14) -0.1397(4)
C16 C 0.32161(11) 0.15744(12) 0.4090(3)
C17 C 0.29979(11) 0.14730(10) 0.4185(2)
C18 C 0.27954(10) 0.15347(10) 0.4017(2)
C19 C 0.26523(11) 0.13853(10) 0.4230(2)
C20 C 0.24123(11) 0.13595(12) 0.4172(3)
C21 C 0.66503(12) 0.46772(13) -0.2062(3)
C22 C 0.67080(11) 0.48639(11) -0.1744(3)
C23 C 0.67784(11) 0.48734(11) -0.1253(3)
C24 C 0.68041(10) 0.50895(10) -0.1144(3)
C25 C 0.68800(12) 0.51889(13) -0.0672(3)
C26 C 0.34926(12) 0.07552(13) -0.3385(3)
C27 C 0.35168(10) 0.08901(11) -0.3839(2)
C28 C 0.36862(10) 0.10245(11) -0.3989(3)
C29 C 0.36209(10) 0.11112(10) -0.4444(3)
C30 C 0.37348(11) 0.12611(12) -0.4785(3)
C31 C 0.64441(14) 0.01764(16) 0.4649(3)
C32 C 0.65914(11) 0.01263(12) 0.4220(3)
C33 C 0.67139(10) -0.00549(11) 0.4122(3)
C34 C 0.68164(11) -0.00120(11) 0.3674(3)
C35 C 0.69655(12) -0.01471(14) 0.3372(3)
C36 C 0.71662(12) -0.02207(13) 0.4593(3)
C37 C 0.69427(12) -0.03077(11) 0.4666(3)
C38 C 0.67466(12) -0.02419(11) 0.4453(3)
C39 C 0.65918(11) -0.03763(11) 0.4673(3)
C40 C 0.63518(12) -0.03894(13) 0.4585(3)
C41 C 0.65591(12) 0.14575(14) 0.3340(3)
C42 C 0.64857(11) 0.12643(11) 0.3625(3)
C43 C 0.63611(11) 0.12521(11) 0.4052(3)
C44 C 0.63570(11) 0.10344(11) 0.4179(3)
C45 C 0.62497(12) 0.09223(13) 0.4600(3)
C46 C 0.18175(12) 0.41265(13) 0.3298(3)
C47 C 0.19190(11) 0.42729(10) 0.3679(2)
C48 C 0.18945(10) 0.44965(10) 0.3753(2)
C49 C 0.20283(10) 0.45409(10) 0.4164(2)
C50 C 0.20662(12) 0.47485(13) 0.4429(3)
C51 C 0.21141(11) 0.48822(14) 0.3138(3)
C52 C 0.18831(11) 0.48198(11) 0.3165(2)
C53 C 0.17833(10) 0.46527(10) 0.3436(2)
C54 C 0.15655(11) 0.46636(10) 0.3296(3)
C55 C 0.13809(12) 0.45266(13) 0.3463(3)
C56 C 0.27286(13) 0.32332(13) 0.4733(3)
C57 C 0.25639(10) 0.33405(11) 0.4404(3)
C58 C 0.24651(10) 0.32627(10) 0.3977(2)
C59 C 0.23292(10) 0.34327(11) 0.3833(3)
C60 C 0.21811(12) 0.34503(13) 0.3395(3)
C61 C 0.70992(12) 0.32159(14) -0.0204(3)
C62 C 0.71553(11) 0.34039(12) -0.0522(3)
C63 C 0.72532(11) 0.34112(12) -0.0987(3)
C64 C 0.72756(12) 0.36316(12) -0.1100(3)
C65 C 0.73694(13) 0.37386(14) -0.1548(3)
C66 C 0.71331(13) 0.44961(13) -0.1414(3)
C67 C 0.69659(11) 0.45174(11) -0.1012(3)
C68 C 0.68160(10) 0.46838(10) -0.0934(2)
C69 C 0.67090(10) 0.46200(11) -0.0502(3)
C70 C 0.65291(11) 0.47341(12) -0.0230(3)
C71 C 0.61571(11) 0.40826(11) 0.0794(3)
C72 C 0.63293(11) 0.39199(11) 0.0779(3)
C73 C 0.63220(10) 0.36990(10) 0.0923(3)
C74 C 0.65256(11) 0.36202(12) 0.0833(3)
C75 C 0.66145(11) 0.33949(12) 0.0896(3)
C76 C 0.40276(12) 0.19714(13) -0.2292(3)
C77 C 0.41941(11) 0.18622(11) -0.1987(3)
C78 C 0.42783(11) 0.19196(12) -0.1524(3)
C79 C 0.44373(11) 0.17671(11) -0.1419(3)
C80 C 0.45806(13) 0.17412(13) -0.0972(3)
C81 C 0.48854(14) 0.10205(13) -0.1042(3)
C82 C 0.47850(11) 0.08997(11) -0.1473(2)
C83 C 0.47615(12) 0.06799(11) -0.1545(3)
C84 C 0.46636(12) 0.06620(11) -0.2013(3)
C85 C 0.46046(12) 0.04649(14) -0.2304(3)
C86 C 0.40734(12) 0.07032(12) -0.3623(3)
C87 C 0.40490(11) 0.09387(10) -0.3544(2)
C88 C 0.38866(11) 0.10776(10) -0.3710(2)
C89 C 0.39457(11) 0.12820(11) -0.3543(3)
C90 C 0.38329(12) 0.14956(13) -0.3609(3)
C91 C 0.37961(13) 0.20161(13) -0.1090(4)
C92 C 0.40004(12) 0.21400(11) -0.1024(3)
C93 C 0.42092(12) 0.21026(11) -0.1203(3)
C94 C 0.43331(11) 0.22701(11) -0.1021(3)
C95 C 0.45713(12) 0.23149(13) -0.1086(3)
C96 C 0.48085(12) 0.28445(14) 0.0009(3)
C97 C 0.46319(11) 0.29065(11) 0.0361(3)
C98 C 0.46419(11) 0.30210(11) 0.0808(3)
C99 C 0.44312(11) 0.30222(11) 0.0987(3)
C100 C 0.43393(12) 0.31252(14) 0.1444(3)
C101 C 0.35893(12) 0.28148(12) 0.1584(3)
C102 C 0.35435(10) 0.26770(11) 0.1140(2)
C103 C 0.33665(10) 0.25434(11) 0.1038(3)
C104 C 0.34119(11) 0.24520(11) 0.0574(3)
C105 C 0.32800(11) 0.23064(12) 0.0258(3)
C106 C 0.60514(11) 0.29234(13) 0.3271(3)
C107 C 0.58185(11) 0.28802(11) 0.3155(3)
C108 C 0.56659(11) 0.27515(11) 0.3399(3)
C109 C 0.54811(11) 0.27593(11) 0.3111(3)
C110 C 0.52640(11) 0.26599(12) 0.3184(3)
C111 C 0.48149(13) 0.28479(14) 0.1862(3)
C112 C 0.49196(11) 0.30013(11) 0.1499(3)
C113 C 0.48448(11) 0.30864(11) 0.1053(3)
C114 C 0.50158(11) 0.32120(11) 0.0877(3)
C115 C 0.50327(13) 0.33480(14) 0.0423(3)
C116 C 0.58511(12) 0.36053(13) 0.0403(3)
C117 C 0.59381(11) 0.35366(11) 0.0905(3)
C118 C 0.61368(11) 0.35746(10) 0.1127(3)
C119 C 0.61321(11) 0.34537(11) 0.1560(3)
C120 C 0.63010(11) 0.34251(12) 0.1958(3)
C121 C 0.59764(14) 0.15604(14) 0.3641(4)
C122 C 0.60893(11) 0.15663(11) 0.4128(3)
C123 C 0.62551(11) 0.14311(10) 0.4313(3)
C124 C 0.62931(11) 0.15084(11) 0.4791(3)
C125 C 0.64508(12) 0.14280(13) 0.5170(3)
C126 C 0.65280(13) 0.19569(15) 0.6357(4)
C127 C 0.64303(12) 0.21653(12) 0.6188(3)
C128 C 0.64874(12) 0.23765(12) 0.6298(3)
C129 C 0.63314(11) 0.25030(12) 0.6064(3)
C130 C 0.63067(12) 0.27474(15) 0.6061(3)
C131 C 0.58030(11) 0.28882(14) 0.4545(3)
C132 C 0.57722(11) 0.26693(11) 0.4324(3)
C133 C 0.57063(11) 0.26143(11) 0.3841(3)
C134 C 0.56980(11) 0.23889(10) 0.3841(3)
C135 C 0.56375(12) 0.22371(13) 0.3436(3)
C136 C 0.32082(11) 0.20849(12) 0.1495(3)
C137 C 0.31225(10) 0.23036(10) 0.1589(3)
C138 C 0.31828(10) 0.25009(10) 0.1380(2)
C139 C 0.30455(10) 0.26562(10) 0.1594(2)
C140 C 0.30272(11) 0.28925(12) 0.1504(3)
C141 C 0.26453(11) 0.32140(12) 0.2862(3)
C142 C 0.25784(11) 0.30399(11) 0.3220(3)
C143 C 0.25028(10) 0.30590(10) 0.3707(2)
C144 C 0.24718(10) 0.28478(10) 0.3863(2)
C145 C 0.23819(12) 0.27646(13) 0.4341(3)
C146 C 0.24913(12) 0.19476(13) 0.4309(3)
C147 C 0.26121(10) 0.19034(10) 0.3838(2)
C148 C 0.27394(10) 0.17229(10) 0.3711(2)
C149 C 0.28151(10) 0.17693(11) 0.3234(2)
C150 C 0.29591(11) 0.16393(13) 0.2906(3)
H1 H 0.6586 0.2713 0.7634
H2 H 0.6421 0.2534 0.7430
H3 H 0.6446 0.2761 0.7147
H4 H 0.7140 0.2274 0.6009
H5 H 0.6944 0.2371 0.5690
H6 H 0.6918 0.2141 0.5957
H7 H 0.5211 0.0209 -0.1554
H8 H 0.5083 0.0374 -0.1908
H9 H 0.5005 0.0127 -0.1862
H10 H 0.4470 0.0540 -0.0228
H11 H 0.4480 0.0712 -0.0673
H12 H 0.4655 0.0722 -0.0236
H13 H 0.7814 0.3137 -0.1612
H14 H 0.7740 0.3278 -0.1142
H15 H 0.7725 0.3379 -0.1689
H16 H 0.6827 0.2999 -0.1671
H17 H 0.6842 0.3221 -0.1367
H18 H 0.6874 0.2995 -0.1087
H19 H 0.3312 0.1546 0.4373
H20 H 0.3199 0.1731 0.4047
H21 H 0.3279 0.1512 0.3788
H22 H 0.2379 0.1208 0.4092
H23 H 0.2361 0.1454 0.3904
H24 H 0.2340 0.1400 0.4483
H25 H 0.6555 0.4726 -0.2330
H26 H 0.6576 0.4568 -0.1862
H27 H 0.6782 0.4614 -0.2204
H28 H 0.6879 0.5347 -0.0704
H29 H 0.7028 0.5139 -0.0600
H30 H 0.6783 0.5146 -0.0400
H31 H 0.3341 0.0756 -0.3280
H32 H 0.3583 0.0815 -0.3119
H33 H 0.3538 0.0606 -0.3458
H34 H 0.3691 0.1230 -0.5128
H35 H 0.3892 0.1241 -0.4752
H36 H 0.3697 0.1411 -0.4702
H37 H 0.6441 0.0333 0.4705
H38 H 0.6297 0.0126 0.4573
H39 H 0.6497 0.0103 0.4948
H40 H 0.6937 -0.0123 0.3018
H41 H 0.7116 -0.0107 0.3447
H42 H 0.6943 -0.0300 0.3452
H43 H 0.7249 -0.0238 0.4901
H44 H 0.7238 -0.0300 0.4324
H45 H 0.7158 -0.0067 0.4507
H46 H 0.6309 -0.0542 0.4554
H47 H 0.6275 -0.0323 0.4866
H48 H 0.6315 -0.0312 0.4279
H49 H 0.6648 0.1411 0.3058
H50 H 0.6433 0.1537 0.3218
H51 H 0.6645 0.1552 0.3557
H52 H 0.6248 0.0766 0.4537
H53 H 0.6330 0.0951 0.4907
H54 H 0.6101 0.0975 0.4634
H55 H 0.1926 0.4024 0.3174
H56 H 0.1698 0.4046 0.3450
H57 H 0.1762 0.4214 0.3021
H58 H 0.2055 0.4725 0.4788
H59 H 0.2211 0.4803 0.4348
H60 H 0.1957 0.4855 0.4325
H61 H 0.2126 0.5040 0.3120
H62 H 0.2190 0.4830 0.3436
H63 H 0.2180 0.4817 0.2842
H64 H 0.1249 0.4615 0.3479
H65 H 0.1360 0.4408 0.3227
H66 H 0.1412 0.4467 0.3792
H67 H 0.2833 0.3341 0.4849
H68 H 0.2655 0.3168 0.5019
H69 H 0.2805 0.3121 0.4545
H70 H 0.2046 0.3520 0.3496
H71 H 0.2251 0.3537 0.3135
H72 H 0.2150 0.3305 0.3266
H73 H 0.7148 0.3243 0.0137
H74 H 0.7170 0.3086 -0.0333
H75 H 0.6942 0.3195 -0.0206
H76 H 0.7284 0.3868 -0.1630
H77 H 0.7366 0.3637 -0.1829
H78 H 0.7519 0.3781 -0.1480
H79 H 0.7259 0.4417 -0.1286
H80 H 0.7178 0.4641 -0.1525
H81 H 0.7071 0.4416 -0.1695
H82 H 0.6435 0.4627 -0.0072
H83 H 0.6444 0.4821 -0.0466
H84 H 0.6591 0.4829 0.0024
H85 H 0.6217 0.4224 0.0703
H86 H 0.6097 0.4090 0.1131
H87 H 0.6043 0.4043 0.0559
H88 H 0.6746 0.3379 0.0695
H89 H 0.6506 0.3289 0.0788
H90 H 0.6650 0.3370 0.1247
H91 H 0.4079 0.1984 -0.2635
H92 H 0.4000 0.2116 -0.2158
H93 H 0.3894 0.1886 -0.2286
H94 H 0.4606 0.1587 -0.0910
H95 H 0.4510 0.1807 -0.0682
H96 H 0.4719 0.1813 -0.1033
H97 H 0.4940 0.1161 -0.1158
H98 H 0.5005 0.0935 -0.0905
H99 H 0.4776 0.1044 -0.0784
H100 H 0.4514 0.0507 -0.2588
H101 H 0.4524 0.0364 -0.2091
H102 H 0.4737 0.0394 -0.2424
H103 H 0.4200 0.0651 -0.3439
H104 H 0.4093 0.0674 -0.3978
H105 H 0.3943 0.0628 -0.3505
H106 H 0.3869 0.1592 -0.3332
H107 H 0.3676 0.1472 -0.3618
H108 H 0.3880 0.1562 -0.3922
H109 H 0.3713 0.2019 -0.0780
H110 H 0.3711 0.2082 -0.1357
H111 H 0.3830 0.1866 -0.1175
H112 H 0.4593 0.2470 -0.1141
H113 H 0.4650 0.2270 -0.0787
H114 H 0.4626 0.2234 -0.1373
H115 H 0.4774 0.2705 -0.0146
H116 H 0.4822 0.2956 -0.0249
H117 H 0.4946 0.2832 0.0191
H118 H 0.4197 0.3187 0.1368
H119 H 0.4324 0.3016 0.1705
H120 H 0.4437 0.3240 0.1558
H121 H 0.3746 0.2821 0.1640
H122 H 0.3533 0.2961 0.1527
H123 H 0.3519 0.2752 0.1877
H124 H 0.3299 0.2346 -0.0091
H125 H 0.3327 0.2156 0.0308
H126 H 0.3127 0.2320 0.0349
H127 H 0.6090 0.3070 0.3162
H128 H 0.6075 0.2911 0.3630
H129 H 0.6142 0.2818 0.3097
H130 H 0.5151 0.2768 0.3116
H131 H 0.5247 0.2537 0.2956
H132 H 0.5250 0.2609 0.3527
H133 H 0.4922 0.2742 0.1977
H134 H 0.4759 0.2930 0.2147
H135 H 0.4695 0.2772 0.1699
H136 H 0.5109 0.3483 0.0503
H137 H 0.5113 0.3269 0.0167
H138 H 0.4887 0.3382 0.0300
H139 H 0.5698 0.3565 0.0378
H140 H 0.5866 0.3763 0.0366
H141 H 0.5933 0.3532 0.0140
H142 H 0.6234 0.3444 0.2285
H143 H 0.6363 0.3279 0.1934
H144 H 0.6416 0.3533 0.1914
H145 H 0.5833 0.1626 0.3674
H146 H 0.5961 0.1410 0.3531
H147 H 0.6061 0.1642 0.3395
H148 H 0.6502 0.1550 0.5372
H149 H 0.6574 0.1360 0.5003
H150 H 0.6379 0.1322 0.5385
H151 H 0.6413 0.1849 0.6403
H152 H 0.6604 0.1980 0.6673
H153 H 0.6631 0.1905 0.6107
H154 H 0.6241 0.2793 0.5747
H155 H 0.6450 0.2815 0.6097
H156 H 0.6214 0.2792 0.6338
H157 H 0.5735 0.2893 0.4875
H158 H 0.5736 0.2997 0.4331
H159 H 0.5958 0.2919 0.4577
H160 H 0.5723 0.2104 0.3467
H161 H 0.5667 0.2305 0.3114
H162 H 0.5483 0.2202 0.3461
H163 H 0.3187 0.1995 0.1791
H164 H 0.3363 0.2094 0.1420
H165 H 0.3132 0.2020 0.1213
H166 H 0.2875 0.2937 0.1535
H167 H 0.3079 0.2926 0.1169
H168 H 0.3115 0.2971 0.1749
H169 H 0.2770 0.3164 0.2667
H170 H 0.2685 0.3345 0.3047
H171 H 0.2524 0.3247 0.2639
H172 H 0.2305 0.2628 0.4281
H173 H 0.2281 0.2871 0.4480
H174 H 0.2500 0.2740 0.4577
H175 H 0.2460 0.2103 0.4334
H176 H 0.2579 0.1902 0.4593
H177 H 0.2355 0.1866 0.4308
H178 H 0.2944 0.1689 0.2562
H179 H 0.2919 0.1486 0.2928
H180 H 0.3110 0.1657 0.3013
Ag1_2 Ag 0.707653(11) 0.273931(9) -0.23127(2)
Ag2A Ag 0.497513(9) -0.013852(10) -0.07568(2)
Ag3F Ag 0.762000(9) 0.284860(11) -0.24177(2)
Ag4_2 Ag 0.320090(8) 0.114570(8) -0.506640(19)
Ag5A Ag 0.649900(8) 0.517810(8) -0.24982(2)
Ag6F Ag 0.303670(9) 0.080250(8) -0.41411(2)
Ag8A Ag 0.710950(9) -0.061520(9) 0.54870(2)
Ag9A Ag 0.655950(9) -0.073770(9) 0.54735(2)
Ag11F Ag 0.178850(8) 0.515120(8) 0.235490(19)
Ag12F Ag 0.127880(9) 0.491830(8) 0.25207(2)
N3F N 0.76840(9) 0.25981(10) 0.6637(2)
N5A N 0.45101(10) -0.00531(11) 0.0657(2)
N6_2 N 0.72304(11) 0.29445(10) 0.8188(2)
N9F N 0.25690(9) 0.08054(9) 0.5578(2)
N11A N 0.66024(9) 0.58577(8) -0.1676(2)
N12_2 N 0.34218(8) 0.10327(9) 0.5448(2)
N15F N 0.70316(9) 0.05939(9) 0.2488(2)
N16F N 0.69898(9) 0.08142(9) 0.2488(2)
N21A N 0.25794(9) 0.42324(9) 0.5388(2)
N22A N 0.26771(9) 0.40369(9) 0.5471(2)
C151 C 0.7043(3) 0.3161(2) 0.6911(6)
C152 C 0.7057(3) 0.3032(2) 0.6497(5)
C153 C 0.7246(3) 0.3000(2) 0.6254(5)
C154 C 0.7433(2) 0.3097(2) 0.6421(5)
C155 C 0.7429(3) 0.3229(2) 0.6837(6)
C156 C 0.7233(3) 0.3259(2) 0.7082(5)
C157 C 0.6831(3) 0.3204(2) 0.7173(6)
C158 C 0.7257(3) 0.2871(2) 0.5779(5)
C159 C 0.7626(3) 0.3344(2) 0.7021(6)
H181 H 0.6930 0.2964 0.6376
H182 H 0.7565 0.3074 0.6249
H183 H 0.7228 0.3348 0.7371
H184 H 0.6715 0.3123 0.7007
H185 H 0.6799 0.3359 0.7161
H186 H 0.6842 0.3157 0.7519
H187 H 0.7114 0.2811 0.5704
H188 H 0.7362 0.2753 0.5818
H189 H 0.7303 0.2966 0.5507
H190 H 0.7751 0.3307 0.6811
H191 H 0.7656 0.3300 0.7365
H192 H 0.7602 0.3501 0.7008
C160 C 0.69428(17) 0.34713(15) 0.5746(4)
C161 C 0.71532(18) 0.34728(16) 0.5587(4)
C162 C 0.73121(15) 0.35870(16) 0.5832(4)
C163 C 0.72537(17) 0.37080(15) 0.6240(4)
C164 C 0.70423(19) 0.37126(17) 0.6412(4)
C165 C 0.68901(17) 0.35962(17) 0.6159(4)
C166 C 0.6770(2) 0.33367(19) 0.5504(5)
C167 C 0.75461(16) 0.35764(19) 0.5669(4)
C168 C 0.6986(2) 0.38335(19) 0.6888(4)
H193 H 0.7191 0.3393 0.5298
H194 H 0.7361 0.3791 0.6408
H195 H 0.6744 0.3601 0.6268
H196 H 0.6833 0.3259 0.5221
H197 H 0.6653 0.3431 0.5389
H198 H 0.6713 0.3232 0.5745
H199 H 0.7558 0.3484 0.5374
H200 H 0.7635 0.3516 0.5938
H201 H 0.7597 0.3723 0.5587
H202 H 0.6830 0.3820 0.6953
H203 H 0.7023 0.3987 0.6850
H204 H 0.7068 0.3772 0.7166
C169 C 0.6793(2) 0.4842(2) 0.3862(5)
C170 C 0.6580(3) 0.4811(2) 0.3940(5)
C171 C 0.6469(2) 0.4674(2) 0.3684(6)
C172 C 0.6561(3) 0.4556(2) 0.3337(6)
C173 C 0.6785(4) 0.4572(2) 0.3220(5)
C174 C 0.68993(19) 0.4727(2) 0.3509(5)
C175 C 0.6892(3) 0.5005(2) 0.4196(5)
C176 C 0.6233(3) 0.4599(4) 0.3720(12)
C177 C 0.6926(5) 0.4465(3) 0.2869(6)
H205 H 0.6509 0.4893 0.4191
H206 H 0.6474 0.4455 0.3158
H207 H 0.7050 0.4749 0.3455
H208 H 0.6781 0.5065 0.4416
H209 H 0.6955 0.5122 0.3997
H210 H 0.7006 0.4937 0.4395
H211 H 0.6158 0.4684 0.3976
H212 H 0.6228 0.4445 0.3809
H213 H 0.6161 0.4621 0.3399
H214 H 0.7073 0.4523 0.2902
H215 H 0.6873 0.4490 0.2531
H216 H 0.6927 0.4309 0.2938
C178 C 0.64456(17) 0.58697(15) 0.1130(3)
C179 C 0.62485(15) 0.58713(14) 0.1372(4)
C180 C 0.62063(15) 0.60120(15) 0.1769(3)
C181 C 0.63702(16) 0.61472(15) 0.1920(3)
C182 C 0.65717(16) 0.61476(15) 0.1696(3)
C183 C 0.66044(14) 0.60083(15) 0.1298(3)
C184 C 0.6480(2) 0.57240(18) 0.0683(4)
C185 C 0.59874(16) 0.6022(2) 0.2007(4)
C186 C 0.67512(17) 0.62950(17) 0.1861(4)
H217 H 0.6138 0.5774 0.1267
H218 H 0.6344 0.6244 0.2188
H219 H 0.6741 0.6008 0.1137
H220 H 0.6628 0.5743 0.0558
H221 H 0.6376 0.5762 0.0422
H222 H 0.6459 0.5573 0.0781
H223 H 0.5989 0.6129 0.2275
H224 H 0.5950 0.5879 0.2142
H225 H 0.5879 0.6064 0.1758
H226 H 0.6702 0.6382 0.2144
H227 H 0.6792 0.6391 0.1587
H228 H 0.6877 0.6208 0.1961
C187 C 0.66114(15) 0.64947(15) 0.0500(3)
C188 C 0.65516(15) 0.66234(14) 0.0902(3)
C189 C 0.63464(17) 0.66108(14) 0.1108(3)
C190 C 0.62002(16) 0.64703(16) 0.0894(4)
C191 C 0.62533(16) 0.63453(15) 0.0484(4)
C192 C 0.64598(17) 0.63581(15) 0.0298(3)
C193 C 0.68396(16) 0.65025(18) 0.0313(4)
C194 C 0.62891(18) 0.67388(17) 0.1568(4)
C195 C 0.6090(2) 0.61915(19) 0.0257(5)
H229 H 0.6654 0.6722 0.1038
H230 H 0.6059 0.6459 0.1031
H231 H 0.6499 0.6270 0.0023
H232 H 0.6855 0.6403 0.0031
H233 H 0.6939 0.6459 0.0580
H234 H 0.6874 0.6650 0.0207
H235 H 0.6138 0.6710 0.1660
H236 H 0.6307 0.6894 0.1502
H237 H 0.6385 0.6696 0.1842
H238 H 0.6155 0.6118 -0.0028
H239 H 0.5963 0.6273 0.0146
H240 H 0.6046 0.6084 0.0505
C196 C 0.59611(16) 0.78505(16) -0.0895(5)
C197 C 0.57561(16) 0.78347(16) -0.0676(5)
C198 C 0.55888(17) 0.77227(18) -0.0891(5)
C199 C 0.5628(2) 0.76202(19) -0.1328(6)
C200 C 0.5825(3) 0.76239(19) -0.1567(5)
C201 C 0.59877(19) 0.77403(19) -0.1344(5)
C202 C 0.61304(18) 0.79819(17) -0.0663(6)
C203 C 0.53685(17) 0.7704(2) -0.0651(6)
C204 C 0.5871(3) 0.7506(2) -0.2047(6)
H241 H 0.5732 0.7904 -0.0366
H242 H 0.5512 0.7542 -0.1478
H243 H 0.6125 0.7746 -0.1503
H244 H 0.6262 0.7975 -0.0864
H245 H 0.6161 0.7926 -0.0329
H246 H 0.6081 0.8133 -0.0639
H247 H 0.5273 0.7618 -0.0864
H248 H 0.5307 0.7849 -0.0607
H249 H 0.5383 0.7634 -0.0327
H250 H 0.6022 0.7532 -0.2146
H251 H 0.5774 0.7560 -0.2307
H252 H 0.5848 0.7351 -0.2000
C205 C 0.5274(2) 0.88355(14) -0.3616(4)
C206 C 0.54194(17) 0.89489(15) -0.3341(4)
C207 C 0.53682(16) 0.90549(14) -0.2905(4)
C208 C 0.51578(15) 0.90428(13) -0.2749(3)
C209 C 0.50018(15) 0.89313(14) -0.3007(4)
C210 C 0.50650(18) 0.88332(14) -0.3453(4)
C211 C 0.5325(2) 0.87269(17) -0.4111(4)
C212 C 0.55345(17) 0.91885(15) -0.2633(4)
C213 C 0.47674(16) 0.89306(19) -0.2837(4)
H253 H 0.5565 0.8956 -0.3455
H254 H 0.5118 0.9114 -0.2450
H255 H 0.4958 0.8762 -0.3649
H256 H 0.5480 0.8741 -0.4182
H257 H 0.5241 0.8797 -0.4375
H258 H 0.5286 0.8573 -0.4094
H259 H 0.5469 0.9251 -0.2334
H260 H 0.5586 0.9305 -0.2850
H261 H 0.5657 0.9096 -0.2539
H262 H 0.4756 0.9007 -0.2519
H263 H 0.4718 0.8781 -0.2797
H264 H 0.4677 0.9004 -0.3086
C214 C 0.48079(19) 0.92411(16) -0.4317(5)
C215 C 0.50125(19) 0.92308(16) -0.4507(4)
C216 C 0.51844(17) 0.93246(15) -0.4254(4)
C217 C 0.51451(18) 0.94268(14) -0.3810(5)
C218 C 0.4943(2) 0.94416(17) -0.3607(4)
C219 C 0.4778(2) 0.93466(19) -0.3865(5)
C220 C 0.4627(2) 0.91316(19) -0.4607(6)
C221 C 0.54167(19) 0.93145(18) -0.4446(5)
C222 C 0.4891(3) 0.95476(19) -0.3121(5)
H265 H 0.5037 0.9159 -0.4814
H266 H 0.5264 0.9490 -0.3637
H267 H 0.4636 0.9353 -0.3729
H268 H 0.4686 0.9068 -0.4912
H269 H 0.4516 0.9239 -0.4692
H270 H 0.4562 0.9017 -0.4403
H271 H 0.5513 0.9390 -0.4213
H272 H 0.5425 0.9384 -0.4773
H273 H 0.5462 0.9163 -0.4474
H274 H 0.4735 0.9537 -0.3058
H275 H 0.4933 0.9700 -0.3133
H276 H 0.4970 0.9475 -0.2853
loop_
_geom_bond_atom_site_label_1
_geom_bond_atom_site_label_2
_geom_bond_site_symmetry_1
_geom_bond_site_symmetry_2
Ag1 N1 1_555 1_555
Ag2 N2 1_555 1_555
Ag3 N4 1_555 1_555
Ag4 N7 1_555 1_555
Ag5 N8 1_555 1_555
Ag6 N10 1_555 1_555
Ag7 N13 1_555 1_555
Ag8 N14 1_555 1_555
Ag9 N17 1_555 1_555
Ag10 N19 1_555 1_555
Ag11 N20 1_555 1_555
Ag12 N23 1_555 1_555
Ag13 N25 1_555 1_555
Ag14 N26 1_555 1_555
Ag15 N28 1_555 1_555
Ag16 N31 1_555 1_555
Ag17 N32 1_555 1_555
Ag18 N34 1_555 1_555
Ag19 N37 1_555 1_555
Ag20 N38 1_555 1_555
Ag21 N40 1_555 1_555
Ag22 N43 1_555 1_555
Ag23 N44 1_555 1_555
Ag24 N46 1_555 1_555
Ag25 N49 1_555 1_555
Ag26 N50 1_555 1_555
Ag27 N52 1_555 1_555
Ag28 N55 1_555 1_555
Ag29 N56 1_555 1_555
Ag30 N58 1_555 1_555
N1 N2 1_555 1_555
N2 C4 1_555 1_555
N3 N4 1_555 1_555
N4 C9 1_555 1_555
N5 N6 1_555 1_555
N6 C14 1_555 1_555
N7 N8 1_555 1_555
N8 C19 1_555 1_555
N9 N10 1_555 1_555
N10 C24 1_555 1_555
N11 N12 1_555 1_555
N12 C29 1_555 1_555
N13 N14 1_555 1_555
N14 C34 1_555 1_555
N15 N16 1_555 1_555
N16 C39 1_555 1_555
N17 N18 1_555 1_555
N18 Ag7 1_555 1_555
N19 N20 1_555 1_555
N20 C49 1_555 1_555
N21 N22 1_555 1_555
N22 C54 1_555 1_555
N23 N24 1_555 1_555
N24 Ag10 1_555 1_555
N25 N26 1_555 1_555
N26 C64 1_555 1_555
N27 Ag14 1_555 1_555
N28 N27 1_555 1_555
N29 Ag15 1_555 1_555
N30 Ag13 1_555 1_555
N31 N32 1_555 1_555
N32 C79 1_555 1_555
N33 Ag17 1_555 1_555
N34 N33 1_555 1_555
N35 Ag18 1_555 1_555
N36 Ag16 1_555 1_555
N37 N38 1_555 1_555
N38 C94 1_555 1_555
N39 Ag20 1_555 1_555
N40 N39 1_555 1_555
N41 Ag21 1_555 1_555
N42 Ag19 1_555 1_555
N43 N44 1_555 1_555
N44 C109 1_555 1_555
N45 Ag23 1_555 1_555
N46 N45 1_555 1_555
N47 Ag24 1_555 1_555
N48 Ag22 1_555 1_555
N49 N50 1_555 1_555
N50 C124 1_555 1_555
N51 Ag26 1_555 1_555
N52 N51 1_555 1_555
N53 Ag27 1_555 1_555
N54 Ag25 1_555 1_555
N55 N56 1_555 1_555
N56 C139 1_555 1_555
N57 Ag29 1_555 1_555
N58 N57 1_555 1_555
N59 Ag30 1_555 1_555
N60 Ag28 1_555 1_555
C1 C2 1_555 1_555
C2 N1 1_555 1_555
C3 C2 1_555 1_555
C4 C3 1_555 1_555
C5 C4 1_555 1_555
C6 C7 1_555 1_555
C7 N3 1_555 1_555
C8 C7 1_555 1_555
C9 C8 1_555 1_555
C10 C9 1_555 1_555
C11 C12 1_555 1_555
C12 N5 1_555 1_555
C13 C12 1_555 1_555
C14 C13 1_555 1_555
C15 C14 1_555 1_555
C16 C17 1_555 1_555
C17 N7 1_555 1_555
C18 C17 1_555 1_555
C19 C18 1_555 1_555
C20 C19 1_555 1_555
C21 C22 1_555 1_555
C22 N9 1_555 1_555
C23 C22 1_555 1_555
C24 C23 1_555 1_555
C25 C24 1_555 1_555
C26 C27 1_555 1_555
C27 N11 1_555 1_555
C28 C27 1_555 1_555
C29 C28 1_555 1_555
C30 C29 1_555 1_555
C31 C32 1_555 1_555
C32 N13 1_555 1_555
C33 C32 1_555 1_555
C34 C33 1_555 1_555
C35 C34 1_555 1_555
C36 C37 1_555 1_555
C37 N15 1_555 1_555
C38 C33 1_555 1_555
C39 C38 1_555 1_555
C40 C39 1_555 1_555
C41 C42 1_555 1_555
C42 N17 1_555 1_555
C43 C42 1_555 1_555
C44 N18 1_555 1_555
C45 C44 1_555 1_555
C46 C47 1_555 1_555
C47 N19 1_555 1_555
C48 C47 1_555 1_555
C49 C48 1_555 1_555
C50 C49 1_555 1_555
C51 C52 1_555 1_555
C52 N21 1_555 1_555
C53 C48 1_555 1_555
C54 C53 1_555 1_555
C55 C54 1_555 1_555
C56 C57 1_555 1_555
C57 N23 1_555 1_555
C58 C57 1_555 1_555
C59 N24 1_555 1_555
C60 C59 1_555 1_555
C61 C62 1_555 1_555
C62 N25 1_555 1_555
C63 C13 1_555 1_555
C64 C63 1_555 1_555
C65 C64 1_555 1_555
C66 C67 1_555 1_555
C67 N27 1_555 1_555
C68 C23 1_555 1_555
C69 N28 1_555 1_555
C70 C69 1_555 1_555
C71 C72 1_555 1_555
C72 N29 1_555 1_555
C73 C72 1_555 1_555
C74 N30 1_555 1_555
C75 C74 1_555 1_555
C76 C77 1_555 1_555
C77 N31 1_555 1_555
C78 C77 1_555 1_555
C79 C78 1_555 1_555
C80 C79 1_555 1_555
C81 C82 1_555 1_555
C82 N33 1_555 1_555
C83 C8 1_555 1_555
C84 N34 1_555 1_555
C85 C84 1_555 1_555
C86 C87 1_555 1_555
C87 N35 1_555 1_555
C88 C28 1_555 1_555
C89 N36 1_555 1_555
C90 C89 1_555 1_555
C91 C92 1_555 1_555
C92 N37 1_555 1_555
C93 C78 1_555 1_555
C94 C93 1_555 1_555
C95 C94 1_555 1_555
C96 C97 1_555 1_555
C97 N39 1_555 1_555
C98 C97 1_555 1_555
C99 N40 1_555 1_555
C100 C99 1_555 1_555
C101 C102 1_555 1_555
C102 N41 1_555 1_555
C103 C102 1_555 1_555
C104 N42 1_555 1_555
C105 C104 1_555 1_555
C106 C107 1_555 1_555
C107 N43 1_555 1_555
C108 C107 1_555 1_555
C109 C108 1_555 1_555
C110 C109 1_555 1_555
C111 C112 1_555 1_555
C112 N45 1_555 1_555
C113 C98 1_555 1_555
C114 N46 1_555 1_555
C115 C114 1_555 1_555
C116 C117 1_555 1_555
C117 N47 1_555 1_555
C118 C73 1_555 1_555
C119 N48 1_555 1_555
C120 C119 1_555 1_555
C121 C122 1_555 1_555
C122 N49 1_555 1_555
C123 C43 1_555 1_555
C124 C123 1_555 1_555
C125 C124 1_555 1_555
C126 C127 1_555 1_555
C127 N51 1_555 1_555
C128 C3 1_555 1_555
C129 N52 1_555 1_555
C130 C129 1_555 1_555
C131 C132 1_555 1_555
C132 N53 1_555 1_555
C133 C108 1_555 1_555
C134 N54 1_555 1_555
C135 C134 1_555 1_555
C136 C137 1_555 1_555
C137 N55 1_555 1_555
C138 C103 1_555 1_555
C139 C138 1_555 1_555
C140 C139 1_555 1_555
C141 C142 1_555 1_555
C142 N57 1_555 1_555
C143 C58 1_555 1_555
C144 N58 1_555 1_555
C145 C144 1_555 1_555
C146 C147 1_555 1_555
C147 N59 1_555 1_555
C148 C18 1_555 1_555
C149 N60 1_555 1_555
C150 C149 1_555 1_555
C151 C152 1_555 1_555
C152 C153 1_555 1_555
C153 C154 1_555 1_555
C154 C155 1_555 1_555
C155 C156 1_555 1_555
C156 C151 1_555 1_555
C157 C151 1_555 1_555
C158 C153 1_555 1_555
C159 C155 1_555 1_555
C160 C161 1_555 1_555
C161 C162 1_555 1_555
C162 C163 1_555 1_555
C163 C164 1_555 1_555
C164 C165 1_555 1_555
C165 C160 1_555 1_555
C166 C160 1_555 1_555
C167 C162 1_555 1_555
C168 C164 1_555 1_555
C169 C170 1_555 1_555
C170 C171 1_555 1_555
C171 C172 1_555 1_555
C172 C173 1_555 1_555
C173 C174 1_555 1_555
C174 C169 1_555 1_555
C175 C169 1_555 1_555
C176 C171 1_555 1_555
C177 C173 1_555 1_555
C178 C179 1_555 1_555
C179 C180 1_555 1_555
C180 C181 1_555 1_555
C181 C182 1_555 1_555
C182 C183 1_555 1_555
C183 C178 1_555 1_555
C184 C178 1_555 1_555
C185 C180 1_555 1_555
C186 C182 1_555 1_555
C187 C188 1_555 1_555
C188 C189 1_555 1_555
C189 C190 1_555 1_555
C190 C191 1_555 1_555
C191 C192 1_555 1_555
C192 C187 1_555 1_555
C193 C187 1_555 1_555
C194 C189 1_555 1_555
C195 C191 1_555 1_555
C196 C197 1_555 1_555
C197 C198 1_555 1_555
C198 C199 1_555 1_555
C199 C200 1_555 1_555
C200 C201 1_555 1_555
C201 C196 1_555 1_555
C202 C196 1_555 1_555
C203 C198 1_555 1_555
C204 C200 1_555 1_555
C205 C206 1_555 1_555
C206 C207 1_555 1_555
C207 C208 1_555 1_555
C208 C209 1_555 1_555
C209 C210 1_555 1_555
C210 C205 1_555 1_555
C211 C205 1_555 1_555
C212 C207 1_555 1_555
C213 C209 1_555 1_555
C214 C215 1_555 1_555
C215 C216 1_555 1_555
C216 C217 1_555 1_555
C217 C218 1_555 1_555
C218 C219 1_555 1_555
C219 C214 1_555 1_555
C220 C214 1_555 1_555
C221 C216 1_555 1_555
C222 C218 1_555 1_555
H1 C1 1_555 1_555
H2 C1 1_555 1_555
H3 C1 1_555 1_555
H4 C5 1_555 1_555
H5 C5 1_555 1_555
H6 C5 1_555 1_555
H7 C6 1_555 1_555
H8 C6 1_555 1_555
H9 C6 1_555 1_555
H10 C10 1_555 1_555
H11 C10 1_555 1_555
H12 C10 1_555 1_555
H13 C11 1_555 1_555
H14 C11 1_555 1_555
H15 C11 1_555 1_555
H16 C15 1_555 1_555
H17 C15 1_555 1_555
H18 C15 1_555 1_555
H19 C16 1_555 1_555
H20 C16 1_555 1_555
H21 C16 1_555 1_555
H22 C20 1_555 1_555
H23 C20 1_555 1_555
H24 C20 1_555 1_555
H25 C21 1_555 1_555
H26 C21 1_555 1_555
H27 C21 1_555 1_555
H28 C25 1_555 1_555
H29 C25 1_555 1_555
H30 C25 1_555 1_555
H31 C26 1_555 1_555
H32 C26 1_555 1_555
H33 C26 1_555 1_555
H34 C30 1_555 1_555
H35 C30 1_555 1_555
H36 C30 1_555 1_555
H37 C31 1_555 1_555
H38 C31 1_555 1_555
H39 C31 1_555 1_555
H40 C35 1_555 1_555
H41 C35 1_555 1_555
H42 C35 1_555 1_555
H43 C36 1_555 1_555
H44 C36 1_555 1_555
H45 C36 1_555 1_555
H46 C40 1_555 1_555
H47 C40 1_555 1_555
H48 C40 1_555 1_555
H49 C41 1_555 1_555
H50 C41 1_555 1_555
H51 C41 1_555 1_555
H52 C45 1_555 1_555
H53 C45 1_555 1_555
H54 C45 1_555 1_555
H55 C46 1_555 1_555
H56 C46 1_555 1_555
H57 C46 1_555 1_555
H58 C50 1_555 1_555
H59 C50 1_555 1_555
H60 C50 1_555 1_555
H61 C51 1_555 1_555
H62 C51 1_555 1_555
H63 C51 1_555 1_555
H64 C55 1_555 1_555
H65 C55 1_555 1_555
H66 C55 1_555 1_555
H67 C56 1_555 1_555
H68 C56 1_555 1_555
H69 C56 1_555 1_555
H70 C60 1_555 1_555
H71 C60 1_555 1_555
H72 C60 1_555 1_555
H73 C61 1_555 1_555
H74 C61 1_555 1_555
H75 C61 1_555 1_555
H76 C65 1_555 1_555
H77 C65 1_555 1_555
H78 C65 1_555 1_555
H79 C66 1_555 1_555
H80 C66 1_555 1_555
H81 C66 1_555 1_555
H82 C70 1_555 1_555
H83 C70 1_555 1_555
H84 C70 1_555 1_555
H85 C71 1_555 1_555
H86 C71 1_555 1_555
H87 C71 1_555 1_555
H88 C75 1_555 1_555
H89 C75 1_555 1_555
H90 C75 1_555 1_555
H91 C76 1_555 1_555
H92 C76 1_555 1_555
H93 C76 1_555 1_555
H94 C80 1_555 1_555
H95 C80 1_555 1_555
H96 C80 1_555 1_555
H97 C81 1_555 1_555
H98 C81 1_555 1_555
H99 C81 1_555 1_555
H100 C85 1_555 1_555
H101 C85 1_555 1_555
H102 C85 1_555 1_555
H103 C86 1_555 1_555
H104 C86 1_555 1_555
H105 C86 1_555 1_555
H106 C90 1_555 1_555
H107 C90 1_555 1_555
H108 C90 1_555 1_555
H109 C91 1_555 1_555
H110 C91 1_555 1_555
H111 C91 1_555 1_555
H112 C95 1_555 1_555
H113 C95 1_555 1_555
H114 C95 1_555 1_555
H115 C96 1_555 1_555
H116 C96 1_555 1_555
H117 C96 1_555 1_555
H118 C100 1_555 1_555
H119 C100 1_555 1_555
H120 C100 1_555 1_555
H121 C101 1_555 1_555
H122 C101 1_555 1_555
H123 C101 1_555 1_555
H124 C105 1_555 1_555
H125 C105 1_555 1_555
H126 C105 1_555 1_555
H127 C106 1_555 1_555
H128 C106 1_555 1_555
H129 C106 1_555 1_555
H130 C110 1_555 1_555
H131 C110 1_555 1_555
H132 C110 1_555 1_555
H133 C111 1_555 1_555
H134 C111 1_555 1_555
H135 C111 1_555 1_555
H136 C115 1_555 1_555
H137 C115 1_555 1_555
H138 C115 1_555 1_555
H139 C116 1_555 1_555
H140 C116 1_555 1_555
H141 C116 1_555 1_555
H142 C120 1_555 1_555
H143 C120 1_555 1_555
H144 C120 1_555 1_555
H145 C121 1_555 1_555
H146 C121 1_555 1_555
H147 C121 1_555 1_555
H148 C125 1_555 1_555
H149 C125 1_555 1_555
H150 C125 1_555 1_555
H151 C126 1_555 1_555
H152 C126 1_555 1_555
H153 C126 1_555 1_555
H154 C130 1_555 1_555
H155 C130 1_555 1_555
H156 C130 1_555 1_555
H157 C131 1_555 1_555
H158 C131 1_555 1_555
H159 C131 1_555 1_555
H160 C135 1_555 1_555
H161 C135 1_555 1_555
H162 C135 1_555 1_555
H163 C136 1_555 1_555
H164 C136 1_555 1_555
H165 C136 1_555 1_555
H166 C140 1_555 1_555
H167 C140 1_555 1_555
H168 C140 1_555 1_555
H169 C141 1_555 1_555
H170 C141 1_555 1_555
H171 C141 1_555 1_555
H172 C145 1_555 1_555
H173 C145 1_555 1_555
H174 C145 1_555 1_555
H175 C146 1_555 1_555
H176 C146 1_555 1_555
H177 C146 1_555 1_555
H178 C150 1_555 1_555
H179 C150 1_555 1_555
H180 C150 1_555 1_555
H181 C152 1_555 1_555
H182 C154 1_555 1_555
H183 C156 1_555 1_555
H184 C157 1_555 1_555
H185 C157 1_555 1_555
H186 C157 1_555 1_555
H187 C158 1_555 1_555
H188 C158 1_555 1_555
H189 C158 1_555 1_555
H190 C159 1_555 1_555
H191 C159 1_555 1_555
H192 C159 1_555 1_555
H193 C161 1_555 1_555
H194 C163 1_555 1_555
H195 C165 1_555 1_555
H196 C166 1_555 1_555
H197 C166 1_555 1_555
H198 C166 1_555 1_555
H199 C167 1_555 1_555
H200 C167 1_555 1_555
H201 C167 1_555 1_555
H202 C168 1_555 1_555
H203 C168 1_555 1_555
H204 C168 1_555 1_555
H205 C170 1_555 1_555
H206 C172 1_555 1_555
H207 C174 1_555 1_555
H208 C175 1_555 1_555
H209 C175 1_555 1_555
H210 C175 1_555 1_555
H211 C176 1_555 1_555
H212 C176 1_555 1_555
H213 C176 1_555 1_555
H214 C177 1_555 1_555
H215 C177 1_555 1_555
H216 C177 1_555 1_555
H217 C179 1_555 1_555
H218 C181 1_555 1_555
H219 C183 1_555 1_555
H220 C184 1_555 1_555
H221 C184 1_555 1_555
H222 C184 1_555 1_555
H223 C185 1_555 1_555
H224 C185 1_555 1_555
H225 C185 1_555 1_555
H226 C186 1_555 1_555
H227 C186 1_555 1_555
H228 C186 1_555 1_555
H229 C188 1_555 1_555
H230 C190 1_555 1_555
H231 C192 1_555 1_555
H232 C193 1_555 1_555
H233 C193 1_555 1_555
H234 C193 1_555 1_555
H235 C194 1_555 1_555
H236 C194 1_555 1_555
H237 C194 1_555 1_555
H238 C195 1_555 1_555
H239 C195 1_555 1_555
H240 C195 1_555 1_555
H241 C197 1_555 1_555
H242 C199 1_555 1_555
H243 C201 1_555 1_555
H244 C202 1_555 1_555
H245 C202 1_555 1_555
H246 C202 1_555 1_555
H247 C203 1_555 1_555
H248 C203 1_555 1_555
H249 C203 1_555 1_555
H250 C204 1_555 1_555
H251 C204 1_555 1_555
H252 C204 1_555 1_555
H253 C206 1_555 1_555
H254 C208 1_555 1_555
H255 C210 1_555 1_555
H256 C211 1_555 1_555
H257 C211 1_555 1_555
H258 C211 1_555 1_555
H259 C212 1_555 1_555
H260 C212 1_555 1_555
H261 C212 1_555 1_555
H262 C213 1_555 1_555
H263 C213 1_555 1_555
H264 C213 1_555 1_555
H265 C215 1_555 1_555
H266 C217 1_555 1_555
H267 C219 1_555 1_555
H268 C220 1_555 1_555
H269 C220 1_555 1_555
H270 C220 1_555 1_555
H271 C221 1_555 1_555
H272 C221 1_555 1_555
H273 C221 1_555 1_555
H274 C222 1_555 1_555
H275 C222 1_555 1_555
H276 C222 1_555 1_555
Ag1_2 N6 1_555 1_555
Ag2A N3 1_555 1_555
Ag3F N5 1_555 1_555
Ag4_2 N12 1_555 1_555
Ag5A N9 1_555 1_555
Ag6F N11 1_555 1_555
Ag8A N15 1_555 1_555
Ag9A N16 1_555 1_555
Ag11F N21 1_555 1_555
Ag12F N22 1_555 1_555
N3F Ag2 1_555 1_555
N5A Ag3 1_555 1_555
N6_2 Ag1 1_555 1_555
N9F Ag5 1_555 1_555
N11A Ag6 1_555 1_555
N12_2 Ag4 1_555 1_555
N15F Ag8 1_555 1_555
N16F Ag9 1_555 1_555
N21A Ag11 1_555 1_555
N22A Ag12 1_555 1_555
N29 N30 1_555 1_555
N35 N36 1_555 1_555
N41 N42 1_555 1_555
N47 N48 1_555 1_555
N53 N54 1_555 1_555
N59 N60 1_555 1_555
C37 C38 1_555 1_555
C43 C44 1_555 1_555
C52 C53 1_555 1_555
C58 C59 1_555 1_555
C62 C63 1_555 1_555
C67 C68 1_555 1_555
C68 C69 1_555 1_555
C73 C74 1_555 1_555
C82 C83 1_555 1_555
C83 C84 1_555 1_555
C87 C88 1_555 1_555
C88 C89 1_555 1_555
C92 C93 1_555 1_555
C98 C99 1_555 1_555
C103 C104 1_555 1_555
C112 C113 1_555 1_555
C113 C114 1_555 1_555
C117 C118 1_555 1_555
C118 C119 1_555 1_555
C122 C123 1_555 1_555
C127 C128 1_555 1_555
C128 C129 1_555 1_555
C132 C133 1_555 1_555
C133 C134 1_555 1_555
C137 C138 1_555 1_555
C142 C143 1_555 1_555
C143 C144 1_555 1_555
C147 C148 1_555 1_555
C148 C149 1_555 1_555
N15F N16F 1_555 1_555
N21A N22A 1_555 1_555

#END
