
#######################################################################
#
#                 Cambridge Crystallographic Data Centre
#                                CCDC 
#
#######################################################################
#
# If this CIF has been generated from an entry in the Cambridge 
# Structural Database, then it will include bibliographic, chemical, 
# crystal, experimental, refinement or atomic coordinate data resulting 
# from the CCDC's data processing and validation procedures.
#
#######################################################################

data_MIWBEZ
_symmetry_cell_setting           monoclinic
_symmetry_space_group_name_H-M   'C 2/c'
_symmetry_Int_Tables_number      15
_space_group_name_Hall           '-C 2yn'
loop_
_symmetry_equiv_pos_site_id
_symmetry_equiv_pos_as_xyz
1 x,y,z
2 x,-y,1/2+z
3 1/2+x,1/2+y,z
4 1/2+x,1/2-y,1/2+z
5 -x,-y,-z
6 -x,y,1/2-z
7 1/2-x,1/2-y,-z
8 1/2-x,1/2+y,1/2-z
_cell_length_a                   14.1182(4)
_cell_length_b                   15.5441(4)
_cell_length_c                   7.9715(2)
_cell_angle_alpha                90
_cell_angle_beta                 110.874(2)
_cell_angle_gamma                90
_cell_volume                     1634.56
loop_
_atom_site_label
_atom_site_type_symbol
_atom_site_fract_x
_atom_site_fract_y
_atom_site_fract_z
Zn1 Zn 0.0000 0.35186(2) 0.2500
O1 O -0.0712(1) 0.4539(1) 0.3276(2)
O2 O -0.3128(1) 0.0629(1) 0.4507(2)
O3 O -0.1665(1) 0.1273(1) 0.6116(2)
N1 N -0.0930(1) 0.2601(1) 0.3187(3)
N2 N -0.3859(1) 0.1499(1) 0.0126(2)
C1 C -0.1573(1) 0.2152(1) 0.3202(2)
C2 C -0.3196(2) 0.1544(1) 0.1465(3)
C3 C -0.2387(2) 0.1604(1) 0.3098(3)
C4 C -0.2439(2) 0.1123(1) 0.4602(3)
C5 C -0.1672(3) 0.0817(2) 0.7700(3)
C6 C -0.0872(4) 0.1093(3) 0.9240(4)
H1 H -0.105(2) 0.492(2) 0.244(3)
H2 H -0.099(2) 0.450(2) 0.396(4)
H3 H -0.2293 0.0908 0.7855
H4 H -0.1582 0.0216 0.7543
H5 H -0.0899 0.0782 1.0251
H6 H -0.0959 0.1689 0.9410
H7 H -0.0248 0.0997 0.9098
O1E O 0.0712(1) 0.4539(1) 0.1724(2)
H1E H 0.105(2) 0.492(2) 0.256(3)
H2E H 0.099(2) 0.450(2) 0.104(4)
O2E O 0.3128(1) 0.0629(1) 0.0493(2)
O3E O 0.1665(1) 0.1273(1) -0.1116(2)
N1E N 0.0930(1) 0.2601(1) 0.1813(3)
N2E N 0.3859(1) 0.1499(1) 0.4874(2)
C1E C 0.1573(1) 0.2152(1) 0.1798(2)
C2E C 0.3196(2) 0.1544(1) 0.3535(3)
C3E C 0.2387(2) 0.1604(1) 0.1902(3)
C4E C 0.2439(2) 0.1123(1) 0.0398(3)
C5E C 0.1672(3) 0.0817(2) -0.2700(3)
C6E C 0.0872(4) 0.1093(3) -0.4240(4)
H3E H 0.2293 0.0908 -0.2855
H4E H 0.1582 0.0216 -0.2543
H5E H 0.0899 0.0782 -0.5251
H6E H 0.0959 0.1689 -0.4410
H7E H 0.0248 0.0997 -0.4098
N2C N 0.1141(1) 0.3501(1) 0.5126(2)
N2F N -0.1141(1) 0.3501(1) -0.0126(2)
Zn1C Zn -0.5000 0.14814(2) -0.2500
Zn1C_2 Zn 0.5000 0.14814(2) 0.7500
loop_
_geom_bond_atom_site_label_1
_geom_bond_atom_site_label_2
_geom_bond_site_symmetry_1
_geom_bond_site_symmetry_2
Zn1 O1 1_555 1_555
O1 H1 1_555 1_555
O2 C4 1_555 1_555
O3 C4 1_555 1_555
N1 Zn1 1_555 1_555
N2 C2 1_555 1_555
C1 N1 1_555 1_555
C2 C3 1_555 1_555
C3 C1 1_555 1_555
C4 C3 1_555 1_555
C5 O3 1_555 1_555
C6 C5 1_555 1_555
H2 O1 1_555 1_555
H3 C5 1_555 1_555
H4 C5 1_555 1_555
H5 C6 1_555 1_555
H6 C6 1_555 1_555
H7 C6 1_555 1_555
O1E Zn1 1_555 1_555
H1E O1E 1_555 1_555
H2E O1E 1_555 1_555
O2E C4E 1_555 1_555
O3E C4E 1_555 1_555
N1E Zn1 1_555 1_555
N2E C2E 1_555 1_555
C1E N1E 1_555 1_555
C2E C3E 1_555 1_555
C3E C1E 1_555 1_555
C4E C3E 1_555 1_555
C5E O3E 1_555 1_555
C6E C5E 1_555 1_555
H3E C5E 1_555 1_555
H4E C5E 1_555 1_555
H5E C6E 1_555 1_555
H6E C6E 1_555 1_555
H7E C6E 1_555 1_555
N2C Zn1 1_555 1_555
N2F Zn1 1_555 1_555
Zn1C N2 1_555 1_555
Zn1C_2 N2E 1_555 1_555

#END
