
#######################################################################
#
#                 Cambridge Crystallographic Data Centre
#                                CCDC 
#
#######################################################################
#
# If this CIF has been generated from an entry in the Cambridge 
# Structural Database, then it will include bibliographic, chemical, 
# crystal, experimental, refinement or atomic coordinate data resulting 
# from the CCDC's data processing and validation procedures.
#
#######################################################################

data_MIWBID
_symmetry_cell_setting           monoclinic
_symmetry_space_group_name_H-M   'C 2/c'
_symmetry_Int_Tables_number      15
_space_group_name_Hall           '-C 2yn'
loop_
_symmetry_equiv_pos_site_id
_symmetry_equiv_pos_as_xyz
1 x,y,z
2 x,-y,1/2+z
3 1/2+x,1/2+y,z
4 1/2+x,1/2-y,1/2+z
5 -x,-y,-z
6 -x,y,1/2-z
7 1/2-x,1/2-y,-z
8 1/2-x,1/2+y,1/2-z
_cell_length_a                   12.8978(6)
_cell_length_b                   15.8015(9)
_cell_length_c                   7.3402(5)
_cell_angle_alpha                90
_cell_angle_beta                 105.963(5)
_cell_angle_gamma                90
_cell_volume                     1438.28
loop_
_atom_site_label
_atom_site_type_symbol
_atom_site_fract_x
_atom_site_fract_y
_atom_site_fract_z
Cu1 Cu 0.0000 0.14878(3) 0.7500
O1 O 0.0000 0.0265(2) 0.7500
O2 O 0.3316(1) 0.4435(1) 0.5172(3)
O3 O 0.1771(1) 0.3777(1) 0.3677(2)
N1 N 0.1088(2) 0.2342(1) 0.6805(3)
N2 N 0.4037(2) 0.3520(2) 0.9908(3)
C1 C 0.1742(2) 0.2825(2) 0.6757(3)
C2 C 0.3388(2) 0.3483(2) 0.8492(4)
C3 C 0.2565(2) 0.3417(2) 0.6796(4)
C4 C 0.2610(2) 0.3924(2) 0.5194(4)
C5 C 0.1759(2) 0.4253(2) 0.1981(4)
C6 C 0.0836(2) 0.3936(2) 0.0437(4)
H1 H 0.0580 -0.0052 0.8242
H2 H 0.1670 0.4839 0.2185
H3 H 0.2415 0.4167 0.1655
H4 H 0.0805 0.4235 -0.0699
H5 H 0.0184 0.4021 0.0778
H6 H 0.0929 0.3349 0.0247
H1E H -0.0580 -0.0052 0.6758
O2E O -0.3316(1) 0.4435(1) 0.9828(3)
O3E O -0.1771(1) 0.3777(1) 1.1323(2)
N1E N -0.1088(2) 0.2342(1) 0.8195(3)
N2E N -0.4037(2) 0.3520(2) 0.5092(3)
C1E C -0.1742(2) 0.2825(2) 0.8243(3)
C2E C -0.3388(2) 0.3483(2) 0.6508(4)
C3E C -0.2565(2) 0.3417(2) 0.8204(4)
C4E C -0.2610(2) 0.3924(2) 0.9806(4)
C5E C -0.1759(2) 0.4253(2) 1.3019(4)
C6E C -0.0836(2) 0.3936(2) 1.4563(4)
H2E H -0.1670 0.4839 1.2815
H3E H -0.2415 0.4167 1.3345
H4E H -0.0805 0.4235 1.5699
H5E H -0.0184 0.4021 1.4222
H6E H -0.0929 0.3349 1.4753
N2C N -0.0963(2) 0.1480(2) 0.4908(3)
N2F N 0.0963(2) 0.1480(2) 1.0092(3)
Cu1C Cu 0.5000 0.35122(3) 1.2500
Cu1C_2 Cu -0.5000 0.35122(3) 0.2500
loop_
_geom_bond_atom_site_label_1
_geom_bond_atom_site_label_2
_geom_bond_site_symmetry_1
_geom_bond_site_symmetry_2
Cu1 O1 1_555 1_555
O1 H1 1_555 1_555
O2 C4 1_555 1_555
O3 C4 1_555 1_555
N1 Cu1 1_555 1_555
N2 C2 1_555 1_555
C1 N1 1_555 1_555
C2 C3 1_555 1_555
C3 C1 1_555 1_555
C4 C3 1_555 1_555
C5 O3 1_555 1_555
C6 C5 1_555 1_555
H2 C5 1_555 1_555
H3 C5 1_555 1_555
H4 C6 1_555 1_555
H5 C6 1_555 1_555
H6 C6 1_555 1_555
H1E O1 1_555 1_555
O2E C4E 1_555 1_555
O3E C4E 1_555 1_555
N1E Cu1 1_555 1_555
N2E C2E 1_555 1_555
C1E N1E 1_555 1_555
C2E C3E 1_555 1_555
C3E C1E 1_555 1_555
C4E C3E 1_555 1_555
C5E O3E 1_555 1_555
C6E C5E 1_555 1_555
H2E C5E 1_555 1_555
H3E C5E 1_555 1_555
H4E C6E 1_555 1_555
H5E C6E 1_555 1_555
H6E C6E 1_555 1_555
N2C Cu1 1_555 1_555
N2F Cu1 1_555 1_555
Cu1C N2 1_555 1_555
Cu1C_2 N2E 1_555 1_555

#END
