
#######################################################################
#
#                 Cambridge Crystallographic Data Centre
#                                CCDC 
#
#######################################################################
#
# If this CIF has been generated from an entry in the Cambridge 
# Structural Database, then it will include bibliographic, chemical, 
# crystal, experimental, refinement or atomic coordinate data resulting 
# from the CCDC's data processing and validation procedures.
#
#######################################################################

data_MIWBEZ01
_symmetry_cell_setting           monoclinic
_symmetry_space_group_name_H-M   'C 2/c'
_symmetry_Int_Tables_number      15
_space_group_name_Hall           '-C 2yn'
loop_
_symmetry_equiv_pos_site_id
_symmetry_equiv_pos_as_xyz
1 x,y,z
2 1/2+x,1/2+y,z
3 -x,y,1/2-z
4 1/2-x,1/2+y,1/2-z
5 -x,-y,-z
6 1/2-x,1/2-y,-z
7 x,-y,1/2+z
8 1/2+x,1/2-y,1/2+z
_cell_length_a                   14.1066(8)
_cell_length_b                   15.5407(7)
_cell_length_c                   7.9588(4)
_cell_angle_alpha                90
_cell_angle_beta                 110.927(4)
_cell_angle_gamma                90
_cell_volume                     1629.69
loop_
_atom_site_label
_atom_site_type_symbol
_atom_site_fract_x
_atom_site_fract_y
_atom_site_fract_z
Zn1 Zn 0.50000 0.14816(2) 0.75000
O1 O 0.42888(14) 0.04607(11) 0.8275(2)
O2 O 0.16626(15) 0.12715(13) -0.1115(2)
O3 O 0.31280(15) 0.06279(13) 0.0492(2)
N1 N 0.38587(16) 0.15004(13) 0.4875(3)
N2 N 0.09352(16) 0.26002(15) 0.1814(3)
C1 C 0.31961(17) 0.15451(14) 0.3538(3)
C2 C 0.23823(17) 0.16041(14) 0.1898(3)
C3 C 0.24405(18) 0.11255(16) 0.0397(3)
C4 C 0.1675(3) 0.0817(3) -0.2707(4)
C5 C 0.0877(4) 0.1096(3) -0.4242(5)
C6 C 0.15725(17) 0.21517(15) 0.1799(3)
H1 H 0.39530 0.01350 0.75250
H2 H 0.40420 0.05180 0.89280
H3 H 0.02430 0.09030 -0.41850
H4 H 0.09620 0.08640 -0.52970
H5 H 0.08800 0.17140 -0.42970
H6 H 0.23170 0.09190 -0.28620
H7 H 0.16110 0.02040 -0.25500
Zn1G Zn 0.00000 0.35184(2) 0.25000
Zn1G_2 Zn 1.00000 0.35184(2) 1.25000
O1B O 0.57112(14) 0.04607(11) 0.6725(2)
O2B O 0.83374(15) 0.12715(13) 1.6115(2)
O3B O 0.68720(15) 0.06279(13) 1.4508(2)
N1B N 0.61413(16) 0.15004(13) 1.0125(3)
N2B N 0.90648(16) 0.26002(15) 1.3186(3)
N2G N 0.59352(16) 0.23998(15) 0.6814(3)
N2E N 0.40648(16) 0.23998(15) 0.8186(3)
C1B C 0.68039(17) 0.15451(14) 1.1462(3)
C2B C 0.76177(17) 0.16041(14) 1.3102(3)
C3B C 0.75595(18) 0.11255(16) 1.4603(3)
C4B C 0.8325(3) 0.0817(3) 1.7707(4)
C5B C 0.9123(4) 0.1096(3) 1.9242(5)
C6B C 0.84275(17) 0.21517(15) 1.3201(3)
H1B H 0.60470 0.01350 0.74750
H2B H 0.59580 0.05180 0.60720
H3B H 0.97570 0.09030 1.91850
H4B H 0.90380 0.08640 2.02970
H5B H 0.91200 0.17140 1.92970
H6B H 0.76830 0.09190 1.78620
H7B H 0.83890 0.02040 1.75500
loop_
_geom_bond_atom_site_label_1
_geom_bond_atom_site_label_2
_geom_bond_site_symmetry_1
_geom_bond_site_symmetry_2
Zn1 O1 1_555 1_555
O1 H1 1_555 1_555
O2 C3 1_555 1_555
O3 C3 1_555 1_555
N1 Zn1 1_555 1_555
N2 C6 1_555 1_555
C1 N1 1_555 1_555
C2 C1 1_555 1_555
C3 C2 1_555 1_555
C4 O2 1_555 1_555
C5 C4 1_555 1_555
C6 C2 1_555 1_555
H2 O1 1_555 1_555
H3 C5 1_555 1_555
H4 C5 1_555 1_555
H5 C5 1_555 1_555
H6 C4 1_555 1_555
H7 C4 1_555 1_555
Zn1G N2 1_555 1_555
Zn1G_2 N2B 1_555 1_555
O1B Zn1 1_555 1_555
O2B C3B 1_555 1_555
O3B C3B 1_555 1_555
N1B Zn1 1_555 1_555
N2B C6B 1_555 1_555
N2G Zn1 1_555 1_555
N2E Zn1 1_555 1_555
C1B N1B 1_555 1_555
C2B C1B 1_555 1_555
C3B C2B 1_555 1_555
C4B O2B 1_555 1_555
C5B C4B 1_555 1_555
C6B C2B 1_555 1_555
H1B O1B 1_555 1_555
H2B O1B 1_555 1_555
H3B C5B 1_555 1_555
H4B C5B 1_555 1_555
H5B C5B 1_555 1_555
H6B C4B 1_555 1_555
H7B C4B 1_555 1_555

#END
