
#######################################################################
#
#                 Cambridge Crystallographic Data Centre
#                                CCDC 
#
#######################################################################
#
# If this CIF has been generated from an entry in the Cambridge 
# Structural Database, then it will include bibliographic, chemical, 
# crystal, experimental, refinement or atomic coordinate data resulting 
# from the CCDC's data processing and validation procedures.
#
#######################################################################

data_MIWCOM
_symmetry_cell_setting           monoclinic
_symmetry_space_group_name_H-M   'P 21/n'
_symmetry_Int_Tables_number      14
_space_group_name_Hall           '-P 2yn'
loop_
_symmetry_equiv_pos_site_id
_symmetry_equiv_pos_as_xyz
1 x,y,z
2 1/2-x,1/2+y,1/2-z
3 -x,-y,-z
4 1/2+x,1/2-y,1/2+z
_cell_length_a                   10.130(2)
_cell_length_b                   10.646(2)
_cell_length_c                   28.531(6)
_cell_angle_alpha                90
_cell_angle_beta                 94.23(3)
_cell_angle_gamma                90
_cell_volume                     3068.52
loop_
_atom_site_label
_atom_site_type_symbol
_atom_site_fract_x
_atom_site_fract_y
_atom_site_fract_z
Cd1 Cd 1.50546(3) 0.66820(3) 0.989841(10)
Cd2 Cd 1.21354(3) 0.50827(3) 0.928619(10)
O1 O 1.2556(3) 0.6395(3) 0.98885(9)
O2 O 1.3628(3) 0.8010(3) 1.02222(10)
O3 O 0.6626(3) 0.8244(3) 1.00213(11)
O4 O 0.7403(3) 0.6325(3) 1.01015(10)
O5 O 1.0246(3) 1.0770(3) 1.08994(10)
O6 O 1.0726(3) 0.3898(3) 0.87614(10)
O7 O 0.9890(3) 0.5215(3) 0.92597(10)
O8 O 0.5037(3) 0.4838(3) 0.94953(9)
O9 O 0.3720(3) 0.4203(3) 0.88798(10)
O10 O 0.6819(3) 0.2315(3) 0.77498(10)
N1 N 1.5389(4) 1.1615(5) 1.23694(13)
N2 N 1.6290(4) 1.2432(4) 1.25532(13)
N3 N 1.6162(4) 1.3564(5) 1.23611(17)
N4 N 1.5150(4) 1.3504(4) 1.20398(17)
N5 N 1.7299(5) 1.2148(7) 1.29178(17)
N6 N 0.1894(3) 0.4049(4) 0.63365(12)
N7 N 0.0978(3) 0.3786(3) 0.59880(12)
N8 N 0.1040(3) 0.2610(4) 0.58368(12)
N9 N 0.2047(3) 0.2067(4) 0.60910(11)
N10 N 0.0100(5) 0.4724(5) 0.57728(17)
C1 C 1.1286(4) 0.8003(4) 1.02425(13)
C2 C 1.1366(4) 0.9114(4) 1.04974(14)
H1 H 1.2185 0.9489 1.0571
C3 C 1.0226(4) 0.9664(4) 1.06423(14)
C4 C 0.8995(4) 0.9156(4) 1.05128(14)
H2 H 0.8227 0.9551 1.0596
C5 C 0.8924(4) 0.8041(4) 1.02546(14)
C6 C 1.0058(4) 0.7432(4) 1.01238(13)
H3 H 1.0003 0.6672 0.9963
C7 C 1.2559(4) 0.7428(4) 1.01054(13)
C8 C 0.7577(4) 0.7510(4) 1.01176(14)
C9 C 1.1396(4) 1.1080(4) 1.11745(14)
C10 C 1.2056(4) 1.0219(4) 1.14727(15)
H4 H 1.1770 0.9390 1.1480
C11 C 1.3148(4) 1.0604(4) 1.17601(15)
H5 H 1.3603 1.0031 1.1958
C12 C 1.3562(4) 1.1861(4) 1.17511(14)
C13 C 1.2887(4) 1.2696(4) 1.14526(16)
H6 H 1.3159 1.3530 1.1448
C14 C 1.1803(4) 1.2312(5) 1.11571(16)
H7 H 1.1363 1.2878 1.0952
C15 C 1.4693(4) 1.2310(5) 1.20570(15)
C16 C 0.8383(4) 0.4014(4) 0.87549(14)
C17 C 0.7299(4) 0.4352(4) 0.90029(13)
H8 H 0.7422 0.4801 0.9282
C18 C 0.6030(4) 0.4009(4) 0.88271(13)
C19 C 0.5847(4) 0.3345(4) 0.84027(13)
H9 H 0.5000 0.3117 0.8285
C20 C 0.6932(4) 0.3031(4) 0.81596(13)
C21 C 0.8207(4) 0.3351(4) 0.83341(13)
H10 H 0.8933 0.3125 0.8172
C22 C 0.9753(4) 0.4396(4) 0.89362(14)
C23 C 0.4847(4) 0.4374(4) 0.90748(14)
C24 C 0.5731(4) 0.2498(4) 0.74302(13)
C25 C 0.5255(4) 0.3692(4) 0.73223(15)
H11 H 0.5634 0.4391 0.7475
C26 C 0.4200(4) 0.3838(4) 0.69820(14)
H12 H 0.3868 0.4633 0.6908
C27 C 0.3647(4) 0.2775(4) 0.67526(13)
C28 C 0.4132(4) 0.1583(4) 0.68670(14)
H13 H 0.3754 0.0880 0.6718
C29 C 0.5191(4) 0.1446(4) 0.72065(15)
H14 H 0.5529 0.0653 0.7281
C30 C 0.2540(4) 0.2953(4) 0.63932(14)
H15 H 1.790(6) 1.139(5) 1.286(3)
H16 H 1.692(7) 1.209(7) 1.3237(13)
H17 H -0.015(7) 0.535(6) 0.6022(19)
H18 H -0.069(5) 0.434(7) 0.558(2)
Cd1_2 Cd 0.50546(3) 0.66820(3) 0.989841(10)
Cd1A Cd -0.00546(3) 0.16820(3) 0.510159(10)
Cd1B Cd 0.49454(3) 0.33180(3) 1.010159(10)
Cd2_2 Cd 0.21354(3) 0.50827(3) 0.928619(10)
Cd2A Cd 0.28646(3) 0.00827(3) 0.571381(10)
Cd2B Cd 0.78646(3) 0.49173(3) 1.071381(10)
O3_2 O 1.6626(3) 0.8244(3) 1.00213(11)
O4_2 O 1.7403(3) 0.6325(3) 1.01015(10)
O4B O 1.2597(3) 0.3675(3) 0.98985(10)
O8_2 O 1.5037(3) 0.4838(3) 0.94953(9)
O8B O 1.4963(3) 0.5162(3) 1.05047(9)
O9_2 O 1.3720(3) 0.4203(3) 0.88798(10)
N8A N 1.3960(3) 0.7610(4) 0.91632(12)
N9A N 1.2953(3) 0.7067(4) 0.89090(11)
loop_
_geom_bond_atom_site_label_1
_geom_bond_atom_site_label_2
_geom_bond_site_symmetry_1
_geom_bond_site_symmetry_2
Cd1 O1 1_555 1_555
Cd2 O1 1_555 1_555
O1 C7 1_555 1_555
O2 Cd1 1_555 1_555
O3 C8 1_555 1_555
O4 C8 1_555 1_555
O5 C3 1_555 1_555
O6 Cd2 1_555 1_555
O7 Cd2 1_555 1_555
O8 C23 1_555 1_555
O9 C23 1_555 1_555
O10 C20 1_555 1_555
N1 N2 1_555 1_555
N2 N3 1_555 1_555
N3 N4 1_555 1_555
N4 C15 1_555 1_555
N5 N2 1_555 1_555
N6 N7 1_555 1_555
N7 N8 1_555 1_555
N8 N9 1_555 1_555
N9 C30 1_555 1_555
N10 N7 1_555 1_555
C1 C2 1_555 1_555
C2 H1 1_555 1_555
C3 C2 1_555 1_555
C4 C3 1_555 1_555
H2 C4 1_555 1_555
C5 C4 1_555 1_555
C6 C1 1_555 1_555
H3 C6 1_555 1_555
C7 O2 1_555 1_555
C8 C5 1_555 1_555
C9 O5 1_555 1_555
C10 C9 1_555 1_555
H4 C10 1_555 1_555
C11 C10 1_555 1_555
H5 C11 1_555 1_555
C12 C11 1_555 1_555
C13 C12 1_555 1_555
H6 C13 1_555 1_555
C14 C9 1_555 1_555
H7 C14 1_555 1_555
C15 N1 1_555 1_555
C16 C17 1_555 1_555
C17 H8 1_555 1_555
C18 C17 1_555 1_555
C19 C18 1_555 1_555
H9 C19 1_555 1_555
C20 C19 1_555 1_555
C21 C16 1_555 1_555
H10 C21 1_555 1_555
C22 O6 1_555 1_555
C23 C18 1_555 1_555
C24 O10 1_555 1_555
C25 C24 1_555 1_555
H11 C25 1_555 1_555
C26 C25 1_555 1_555
H12 C26 1_555 1_555
C27 C26 1_555 1_555
C28 C27 1_555 1_555
H13 C28 1_555 1_555
C29 C24 1_555 1_555
H14 C29 1_555 1_555
C30 N6 1_555 1_555
H15 N5 1_555 1_555
H16 N5 1_555 1_555
H17 N10 1_555 1_555
H18 N10 1_555 1_555
Cd1_2 O3 1_555 1_555
Cd1A N8 1_555 1_555
Cd1B O8 1_555 1_555
Cd2_2 O9 1_555 1_555
Cd2A N9 1_555 1_555
Cd2B O4 1_555 1_555
O3_2 Cd1 1_555 1_555
O4_2 Cd1 1_555 1_555
O4B Cd2 1_555 1_555
O8_2 Cd1 1_555 1_555
O8B Cd1 1_555 1_555
O9_2 Cd2 1_555 1_555
N8A Cd1 1_555 1_555
N9A Cd2 1_555 1_555
O4 Cd1_2 1_555 1_555
O7 C22 1_555 1_555
O8 Cd1_2 1_555 1_555
C1 C7 1_555 1_555
C5 C6 1_555 1_555
C12 C15 1_555 1_555
C13 C14 1_555 1_555
C16 C22 1_555 1_555
C20 C21 1_555 1_555
C27 C30 1_555 1_555
C28 C29 1_555 1_555
N8A N9A 1_555 1_555

#END
