
#######################################################################
#
#                 Cambridge Crystallographic Data Centre
#                                CCDC 
#
#######################################################################
#
# If this CIF has been generated from an entry in the Cambridge 
# Structural Database, then it will include bibliographic, chemical, 
# crystal, experimental, refinement or atomic coordinate data resulting 
# from the CCDC's data processing and validation procedures.
#
#######################################################################

data_MIWCOL
_symmetry_cell_setting           monoclinic
_symmetry_space_group_name_H-M   'P 21/n'
_symmetry_Int_Tables_number      14
_space_group_name_Hall           '-P 2yn'
loop_
_symmetry_equiv_pos_site_id
_symmetry_equiv_pos_as_xyz
1 x,y,z
2 1/2-x,1/2+y,1/2-z
3 -x,-y,-z
4 1/2+x,1/2-y,1/2+z
_cell_length_a                   14.9184(8)
_cell_length_b                   29.0382(16)
_cell_length_c                   16.6765(9)
_cell_angle_alpha                90
_cell_angle_beta                 96.581(4)
_cell_angle_gamma                90
_cell_volume                     7176.72
loop_
_atom_site_label
_atom_site_type_symbol
_atom_site_fract_x
_atom_site_fract_y
_atom_site_fract_z
C1 C 0.4799(12) 0.5667(6) 0.8041(9)
H1 H 0.5439 0.5623 0.8009
H2 H 0.4638 0.5977 0.7861
C2 C 0.4590(11) 0.5597(6) 0.8896(9)
H3 H 0.4342 0.5877 0.9101
H4 H 0.5131 0.5514 0.9244
C3 C 0.3915(11) 0.5216(6) 0.8861(10)
H5 H 0.3450 0.5279 0.9208
H6 H 0.4201 0.4925 0.9018
C4 C 0.3538(11) 0.5212(6) 0.8001(9)
H7 H 0.3054 0.5435 0.7905
H8 H 0.3302 0.4910 0.7848
C5 C 0.0769(12) 0.7551(6) 0.2512(10)
H9 H 0.1074 0.7484 0.2043
H10 H 0.0181 0.7405 0.2444
C6 C 0.0675(13) 0.8059(6) 0.2613(10)
H11 H 0.0053 0.8153 0.2470
H12 H 0.1050 0.8223 0.2269
C7 C 0.0966(12) 0.8163(6) 0.3471(10)
H13 H 0.1378 0.8422 0.3513
H14 H 0.0447 0.8243 0.3744
C8 C 0.1423(13) 0.7747(5) 0.3856(10)
H15 H 0.1152 0.7659 0.4334
H16 H 0.2060 0.7807 0.4008
C9 C 0.3861(10) 0.6365(6) 0.3563(11)
H17 H 0.3791 0.6362 0.4134
H18 H 0.4259 0.6616 0.3457
C10 C 0.4220(12) 0.5927(6) 0.3319(10)
H19 H 0.4847 0.5966 0.3230
H20 H 0.4194 0.5703 0.3746
C11 C 0.3703(11) 0.5759(6) 0.2577(10)
H21 H 0.3416 0.5466 0.2664
H22 H 0.4081 0.5726 0.2145
C12 C 0.3047(12) 0.6119(6) 0.2406(10)
H23 H 0.2462 0.5981 0.2244
H24 H 0.3208 0.6301 0.1956
C13 C -0.1698(19) 0.7447(9) 0.3283(16)
H25 H -0.1109 0.7325 0.3206
H26 H -0.2031 0.7491 0.2754
C14 C -0.158(2) 0.7904(9) 0.3700(16)
H27 H -0.1162 0.8102 0.3461
H28 H -0.2151 0.8062 0.3721
C15 C -0.119(2) 0.7718(9) 0.4520(16)
H29 H -0.1401 0.7893 0.4957
H30 H -0.0537 0.7719 0.4579
C16 C -0.1540(19) 0.7257(10) 0.4491(15)
H31 H -0.1033 0.7046 0.4549
H32 H -0.1867 0.7214 0.4956
C17 C -0.3892(15) 0.6109(7) 0.1718(12)
H33 H -0.3409 0.5907 0.1594
H34 H -0.4374 0.5931 0.1910
C18 C -0.4230(15) 0.6430(7) 0.1008(13)
H35 H -0.4594 0.6262 0.0586
H36 H -0.3728 0.6573 0.0781
C19 C -0.4772(14) 0.6775(8) 0.1377(12)
H37 H -0.4934 0.7033 0.1020
H38 H -0.5311 0.6643 0.1559
C20 C -0.4081(14) 0.6904(7) 0.2068(13)
H39 H -0.4373 0.7013 0.2523
H40 H -0.3689 0.7146 0.1907
B1 B 0.1201(7) 0.6109(3) 0.6711(6)
H76 H 0.0920 0.5917 0.7194
B2 B 0.2157(6) 0.5878(3) 0.6186(6)
H77 H 0.2477 0.5543 0.6338
B3 B 0.2056(6) 0.6139(3) 0.5141(7)
H78 H 0.2309 0.5966 0.4625
B4 B 0.1044(7) 0.6529(3) 0.5025(7)
H79 H 0.0659 0.6605 0.4438
B5 B 0.0504(7) 0.6506(3) 0.5999(6)
H80 H -0.0219 0.6567 0.6028
B6 B 0.1324(8) 0.6716(4) 0.6761(7)
H81 H 0.1098 0.6905 0.7274
B7 B 0.2303(7) 0.6352(4) 0.6871(7)
H82 H 0.2715 0.6307 0.7456
B8 B 0.2805(7) 0.6364(4) 0.5933(8)
H83 H 0.3535 0.6325 0.5911
B9 B 0.2154(7) 0.6741(4) 0.5270(7)
H84 H 0.2470 0.6947 0.4825
B10 B 0.1247(8) 0.6958(3) 0.5769(7)
H85 H 0.0975 0.7306 0.5641
B11 B 0.2317(7) 0.6875(4) 0.6328(7)
H86 H 0.2735 0.7166 0.6570
B12 B -0.2898(5) 0.5506(3) 0.4571(5)
H87 H -0.2902 0.5391 0.3942
B13 B -0.3053(5) 0.5097(3) 0.5427(5)
H88 H -0.3153 0.4725 0.5339
B14 B -0.2474(5) 0.5359(3) 0.6396(5)
H89 H -0.2212 0.5151 0.6922
B15 B -0.1948(6) 0.5917(3) 0.6129(6)
H90 H -0.1347 0.6060 0.6488
B16 B -0.2203(6) 0.6013(3) 0.5010(6)
H91 H -0.1763 0.6217 0.4660
B17 B -0.3402(6) 0.6035(4) 0.4799(6)
H92 H -0.3712 0.6251 0.4301
B18 B -0.3899(6) 0.5503(4) 0.5048(6)
H93 H -0.4531 0.5377 0.4716
B19 B -0.3638(6) 0.5414(4) 0.6114(6)
H94 H -0.4103 0.5229 0.6467
B20 B -0.2996(6) 0.5895(4) 0.6520(6)
H95 H -0.3048 0.6023 0.7134
B21 B -0.2841(6) 0.6286(3) 0.5704(6)
H96 H -0.2789 0.6661 0.5789
B22 B -0.3882(6) 0.5984(4) 0.5716(6)
H97 H -0.4505 0.6168 0.5813
B23 B 0.1440(7) 0.4320(4) 0.7340(6)
H98 H 0.2094 0.4318 0.7094
B24 B 0.0974(6) 0.4845(4) 0.7804(5)
H99 H 0.1336 0.5176 0.7852
B25 B -0.0292(6) 0.4802(4) 0.7670(5)
H100 H -0.0731 0.5108 0.7632
B26 B -0.0620(7) 0.4248(3) 0.7133(6)
H101 H -0.1267 0.4201 0.6754
B27 B 0.0460(8) 0.3947(3) 0.6932(6)
H102 H 0.0501 0.3707 0.6427
B28 B 0.1069(8) 0.3834(4) 0.7890(6)
H103 H 0.1497 0.3525 0.7978
B29 B 0.1376(7) 0.4370(4) 0.8401(6)
H104 H 0.2000 0.4405 0.8817
B30 B 0.0353(7) 0.4651(4) 0.8581(6)
H105 H 0.0320 0.4869 0.9117
B31 B -0.0575(7) 0.4297(4) 0.8188(6)
H106 H -0.1206 0.4286 0.8471
B32 B -0.0152(9) 0.3802(4) 0.7757(6)
H107 H -0.0512 0.3471 0.7753
B33 B 0.0421(8) 0.4036(4) 0.8655(6)
H108 H 0.0436 0.3855 0.9236
K1 K 0.41775(12) 0.54701(8) 0.59873(13)
Na1 Na 0.1626(4) 0.66089(15) 0.3458(3)
Na2 Na -0.2455(3) 0.63883(16) 0.3346(3)
O1 O 0.4275(7) 0.5331(4) 0.7537(7)
O2 O 0.1302(8) 0.7385(4) 0.3248(7)
O3 O 0.2979(8) 0.6415(4) 0.3076(7)
O4 O -0.2169(13) 0.7117(7) 0.3730(12)
O5 O -0.3566(10) 0.6489(5) 0.2283(9)
Pd1 Pd 0.0000 0.5000 0.5000
Sn1 Sn 0.07454(3) 0.578573(17) 0.54599(3)
Sn2 Sn -0.15575(3) 0.530091(18) 0.53533(3)
Sn3 Sn 0.03583(3) 0.470028(19) 0.64798(3)
C1B C -0.4799(12) 0.4333(6) 0.1959(9)
H1B H -0.5439 0.4377 0.1991
H2B H -0.4638 0.4023 0.2139
C2B C -0.4590(11) 0.4403(6) 0.1104(9)
H3B H -0.4342 0.4123 0.0899
H4B H -0.5131 0.4486 0.0756
C3B C -0.3915(11) 0.4784(6) 0.1139(10)
H5B H -0.3450 0.4721 0.0792
H6B H -0.4201 0.5075 0.0982
C4B C -0.3538(11) 0.4788(6) 0.1999(9)
H7B H -0.3054 0.4565 0.2095
H8B H -0.3302 0.5090 0.2152
C5B C -0.0769(12) 0.2449(6) 0.7488(10)
H9B H -0.1074 0.2516 0.7957
H10B H -0.0181 0.2595 0.7556
C6B C -0.0675(13) 0.1941(6) 0.7387(10)
H11B H -0.0053 0.1847 0.7530
H12B H -0.1050 0.1777 0.7731
C7B C -0.0966(12) 0.1837(6) 0.6529(10)
H13B H -0.1378 0.1578 0.6487
H14B H -0.0447 0.1757 0.6256
C8B C -0.1423(13) 0.2253(5) 0.6144(10)
H15B H -0.1152 0.2341 0.5666
H16B H -0.2060 0.2193 0.5992
C9B C -0.3861(10) 0.3635(6) 0.6437(11)
H17B H -0.3791 0.3638 0.5866
H18B H -0.4259 0.3384 0.6543
C10B C -0.4220(12) 0.4073(6) 0.6681(10)
H19B H -0.4847 0.4034 0.6770
H20B H -0.4194 0.4297 0.6254
C11B C -0.3703(11) 0.4241(6) 0.7423(10)
H21B H -0.3416 0.4534 0.7336
H22B H -0.4081 0.4274 0.7855
C12B C -0.3047(12) 0.3881(6) 0.7594(10)
H23B H -0.2462 0.4019 0.7756
H24B H -0.3208 0.3699 0.8044
C13B C 0.1698(19) 0.2553(9) 0.6717(16)
H25B H 0.1109 0.2675 0.6794
H26B H 0.2031 0.2509 0.7246
C14B C 0.158(2) 0.2096(9) 0.6300(16)
H27B H 0.1162 0.1898 0.6539
H28B H 0.2151 0.1938 0.6279
C15B C 0.119(2) 0.2282(9) 0.5480(16)
H29B H 0.1401 0.2107 0.5043
H30B H 0.0537 0.2281 0.5421
C16B C 0.1540(19) 0.2743(10) 0.5509(15)
H31B H 0.1033 0.2954 0.5451
H32B H 0.1867 0.2786 0.5044
C17B C 0.3892(15) 0.3891(7) 0.8282(12)
H33B H 0.3409 0.4093 0.8406
H34B H 0.4374 0.4069 0.8090
C18B C 0.4230(15) 0.3570(7) 0.8992(13)
H35B H 0.4594 0.3738 0.9414
H36B H 0.3728 0.3427 0.9219
C19B C 0.4772(14) 0.3225(8) 0.8623(12)
H37B H 0.4934 0.2967 0.8980
H38B H 0.5311 0.3357 0.8441
C20B C 0.4081(14) 0.3096(7) 0.7932(13)
H39B H 0.4373 0.2987 0.7477
H40B H 0.3689 0.2854 0.8093
B1B B -0.1201(7) 0.3891(3) 0.3289(6)
H76B H -0.0920 0.4083 0.2806
B2B B -0.2157(6) 0.4122(3) 0.3814(6)
H77B H -0.2477 0.4457 0.3662
B3B B -0.2056(6) 0.3861(3) 0.4859(7)
H78B H -0.2309 0.4034 0.5375
B4B B -0.1044(7) 0.3471(3) 0.4975(7)
H79B H -0.0659 0.3395 0.5562
B5B B -0.0504(7) 0.3494(3) 0.4001(6)
H80B H 0.0219 0.3433 0.3972
B6B B -0.1324(8) 0.3284(4) 0.3239(7)
H81B H -0.1098 0.3095 0.2726
B7B B -0.2303(7) 0.3648(4) 0.3129(7)
H82B H -0.2715 0.3693 0.2544
B8B B -0.2805(7) 0.3636(4) 0.4067(8)
H83B H -0.3535 0.3675 0.4089
B9B B -0.2154(7) 0.3259(4) 0.4730(7)
H84B H -0.2470 0.3053 0.5175
B10B B -0.1247(8) 0.3042(3) 0.4231(7)
H85B H -0.0975 0.2694 0.4359
B11B B -0.2317(7) 0.3125(4) 0.3672(7)
H86B H -0.2735 0.2834 0.3430
B12B B 0.2898(5) 0.4494(3) 0.5429(5)
H87B H 0.2902 0.4609 0.6058
B13B B 0.3053(5) 0.4903(3) 0.4573(5)
H88B H 0.3153 0.5275 0.4661
B14B B 0.2474(5) 0.4641(3) 0.3604(5)
H89B H 0.2212 0.4849 0.3078
B15B B 0.1948(6) 0.4083(3) 0.3871(6)
H90B H 0.1347 0.3940 0.3512
B16B B 0.2203(6) 0.3987(3) 0.4990(6)
H91B H 0.1763 0.3783 0.5340
B17B B 0.3402(6) 0.3965(4) 0.5201(6)
H92B H 0.3712 0.3749 0.5699
B18B B 0.3899(6) 0.4497(4) 0.4952(6)
B18_2 B 0.6101(6) 0.5503(4) 0.5048(6)
B18B_2 B -0.6101(6) 0.4497(4) 0.4952(6)
H93B H 0.4531 0.4623 0.5284
H93_2 H 0.5469 0.5377 0.4716
H93B_2 H -0.5469 0.4623 0.5284
B19B B 0.3638(6) 0.4586(4) 0.3886(6)
B19_2 B 0.6362(6) 0.5414(4) 0.6114(6)
B19B_2 B -0.6362(6) 0.4586(4) 0.3886(6)
H94B H 0.4103 0.4771 0.3533
H94_2 H 0.5897 0.5229 0.6467
H94B_2 H -0.5897 0.4771 0.3533
B20B B 0.2996(6) 0.4105(4) 0.3480(6)
H95B H 0.3048 0.3977 0.2866
B21B B 0.2841(6) 0.3714(3) 0.4296(6)
H96B H 0.2789 0.3339 0.4211
B22B B 0.3882(6) 0.4016(4) 0.4284(6)
B22_2 B 0.6118(6) 0.5984(4) 0.5716(6)
B22B_2 B -0.6118(6) 0.4016(4) 0.4284(6)
H97B H 0.4505 0.3832 0.4187
H97_2 H 0.5495 0.6168 0.5813
H97B_2 H -0.5495 0.3832 0.4187
B23B B -0.1440(7) 0.5680(4) 0.2660(6)
H98B H -0.2094 0.5682 0.2906
B24B B -0.0974(6) 0.5155(4) 0.2196(5)
H99B H -0.1336 0.4824 0.2148
B25B B 0.0292(6) 0.5198(4) 0.2330(5)
H100B H 0.0731 0.4892 0.2368
B26B B 0.0620(7) 0.5752(3) 0.2867(6)
H101B H 0.1267 0.5799 0.3246
B27B B -0.0460(8) 0.6053(3) 0.3068(6)
H102B H -0.0501 0.6293 0.3573
B28B B -0.1069(8) 0.6166(4) 0.2110(6)
H103B H -0.1497 0.6475 0.2022
B29B B -0.1376(7) 0.5630(4) 0.1599(6)
H104B H -0.2000 0.5595 0.1183
B30B B -0.0353(7) 0.5349(4) 0.1419(6)
H105B H -0.0320 0.5131 0.0883
B31B B 0.0575(7) 0.5703(4) 0.1812(6)
H106B H 0.1206 0.5714 0.1529
B32B B 0.0152(9) 0.6198(4) 0.2243(6)
H107B H 0.0512 0.6529 0.2247
B33B B -0.0421(8) 0.5964(4) 0.1345(6)
H108B H -0.0436 0.6145 0.0764
K1B K -0.41775(12) 0.45299(8) 0.40127(13)
K1_2 K -0.58225(12) 0.54701(8) 0.59873(13)
K1B_2 K 0.58225(12) 0.45299(8) 0.40127(13)
Na1B Na -0.1626(4) 0.33911(15) 0.6542(3)
Na2B Na 0.2455(3) 0.36117(16) 0.6654(3)
O1B O -0.4275(7) 0.4669(4) 0.2463(7)
O2B O -0.1302(8) 0.2615(4) 0.6752(7)
O3B O -0.2979(8) 0.3585(4) 0.6924(7)
O4B O 0.2169(13) 0.2883(7) 0.6270(12)
O5B O 0.3566(10) 0.3511(5) 0.7717(9)
Sn1B Sn -0.07454(3) 0.421427(17) 0.45401(3)
Sn2B Sn 0.15575(3) 0.469909(18) 0.46467(3)
Sn3B Sn -0.03583(3) 0.529972(19) 0.35202(3)
C21 C 0.8665(15) 0.7108(9) 1.0415(13)
H41 H 0.8131 0.7299 1.0316
H42 H 0.8515 0.6808 1.0618
C22 C 0.9417(16) 0.7335(8) 1.0911(14)
H43 H 0.9878 0.7110 1.1089
H44 H 0.9203 0.7470 1.1385
C23 C 0.9808(17) 0.7699(8) 1.0430(13)
H45 H 0.9399 0.7957 1.0323
H46 H 1.0383 0.7809 1.0691
C24 C 0.9916(15) 0.7434(8) 0.9682(14)
H47 H 1.0511 0.7296 0.9704
H48 H 0.9809 0.7626 0.9204
O6 O 0.9210(11) 0.7084(6) 0.9705(10)
C25 C 0.8461(8) 0.6006(5) 0.8522(9)
H49 H 0.7962 0.6220 0.8423
H50 H 0.8509 0.5841 0.8023
C26 C 0.8245(8) 0.5671(6) 0.9139(10)
H51 H 0.8392 0.5807 0.9669
H52 H 0.8622 0.5401 0.9109
C27 C 0.7276(8) 0.5522(5) 0.9051(11)
H53 H 0.6947 0.5703 0.9410
H54 H 0.7007 0.5577 0.8502
C28 C 0.7205(9) 0.5034(5) 0.9244(11)
H55 H 0.6582 0.4945 0.9189
H56 H 0.7469 0.4981 0.9788
H57 H 0.7520 0.4855 0.8880
C29 C 1.0108(7) 0.5967(4) 0.8987(7)
H58 H 0.9955 0.5763 0.9412
H59 H 1.0217 0.5776 0.8530
C30 C 1.0957(7) 0.6213(5) 0.9277(7)
H60 H 1.0834 0.6437 0.9682
H61 H 1.1169 0.6378 0.8830
C31 C 1.1677(8) 0.5892(6) 0.9631(8)
H62 H 1.1828 0.5683 0.9213
H63 H 1.1444 0.5710 1.0047
C32 C 1.2537(11) 0.6136(8) 0.9994(11)
H64 H 1.2975 0.5912 1.0203
H65 H 1.2399 0.6335 1.0424
H66 H 1.2776 0.6316 0.9585
C33 C 0.9433(8) 0.6575(5) 0.8033(7)
H67 H 0.9550 0.6380 0.7585
H68 H 0.9966 0.6762 0.8174
C34 C 0.8665(9) 0.6889(4) 0.7749(8)
H69 H 0.8417 0.7015 0.8215
H70 H 0.8195 0.6712 0.7441
C35 C 0.8937(12) 0.7281(6) 0.7234(10)
H71 H 0.9231 0.7157 0.6792
H72 H 0.9369 0.7474 0.7557
C36 C 0.8121(13) 0.7581(6) 0.6885(11)
H73 H 0.8330 0.7826 0.6569
H74 H 0.7831 0.7708 0.7321
H75 H 0.7700 0.7393 0.6552
N1 N 0.9307(7) 0.6274(5) 0.8735(9)
H109 H 0.9224 0.6459 0.9161
loop_
_geom_bond_atom_site_label_1
_geom_bond_atom_site_label_2
_geom_bond_site_symmetry_1
_geom_bond_site_symmetry_2
C1 H1 1_555 1_555
H2 C1 1_555 1_555
C2 C1 1_555 1_555
H3 C2 1_555 1_555
H4 C2 1_555 1_555
C3 C2 1_555 1_555
H5 C3 1_555 1_555
H6 C3 1_555 1_555
C4 C3 1_555 1_555
H7 C4 1_555 1_555
H8 C4 1_555 1_555
C5 H9 1_555 1_555
H10 C5 1_555 1_555
C6 C5 1_555 1_555
H11 C6 1_555 1_555
H12 C6 1_555 1_555
C7 C6 1_555 1_555
H13 C7 1_555 1_555
H14 C7 1_555 1_555
C8 C7 1_555 1_555
H15 C8 1_555 1_555
H16 C8 1_555 1_555
C9 H17 1_555 1_555
H18 C9 1_555 1_555
C10 C9 1_555 1_555
H19 C10 1_555 1_555
H20 C10 1_555 1_555
C11 C10 1_555 1_555
H21 C11 1_555 1_555
H22 C11 1_555 1_555
C12 C11 1_555 1_555
H23 C12 1_555 1_555
H24 C12 1_555 1_555
C13 H25 1_555 1_555
H26 C13 1_555 1_555
C14 C13 1_555 1_555
H27 C14 1_555 1_555
H28 C14 1_555 1_555
C15 C14 1_555 1_555
H29 C15 1_555 1_555
H30 C15 1_555 1_555
C16 C15 1_555 1_555
H31 C16 1_555 1_555
H32 C16 1_555 1_555
C17 H33 1_555 1_555
H34 C17 1_555 1_555
C18 C17 1_555 1_555
H35 C18 1_555 1_555
H36 C18 1_555 1_555
C19 C18 1_555 1_555
H37 C19 1_555 1_555
H38 C19 1_555 1_555
C20 C19 1_555 1_555
H39 C20 1_555 1_555
H40 C20 1_555 1_555
C21 H41 1_555 1_555
H42 C21 1_555 1_555
C22 C21 1_555 1_555
H43 C22 1_555 1_555
H44 C22 1_555 1_555
C23 C22 1_555 1_555
H45 C23 1_555 1_555
H46 C23 1_555 1_555
C24 C23 1_555 1_555
H47 C24 1_555 1_555
H48 C24 1_555 1_555
C25 H49 1_555 1_555
H50 C25 1_555 1_555
C26 C25 1_555 1_555
H51 C26 1_555 1_555
H52 C26 1_555 1_555
C27 C26 1_555 1_555
H53 C27 1_555 1_555
H54 C27 1_555 1_555
C28 C27 1_555 1_555
H55 C28 1_555 1_555
H56 C28 1_555 1_555
H57 C28 1_555 1_555
C29 H58 1_555 1_555
H59 C29 1_555 1_555
C30 C29 1_555 1_555
H60 C30 1_555 1_555
H61 C30 1_555 1_555
C31 C30 1_555 1_555
H62 C31 1_555 1_555
H63 C31 1_555 1_555
C32 C31 1_555 1_555
H64 C32 1_555 1_555
H65 C32 1_555 1_555
H66 C32 1_555 1_555
C33 H67 1_555 1_555
H68 C33 1_555 1_555
C34 C33 1_555 1_555
H69 C34 1_555 1_555
H70 C34 1_555 1_555
C35 C34 1_555 1_555
H71 C35 1_555 1_555
H72 C35 1_555 1_555
C36 C35 1_555 1_555
H73 C36 1_555 1_555
H74 C36 1_555 1_555
H75 C36 1_555 1_555
B1 H76 1_555 1_555
B2 B1 1_555 1_555
H77 B2 1_555 1_555
B3 B2 1_555 1_555
H78 B3 1_555 1_555
B4 B3 1_555 1_555
H79 B4 1_555 1_555
B5 B1 1_555 1_555
H80 B5 1_555 1_555
B6 B1 1_555 1_555
H81 B6 1_555 1_555
B7 B1 1_555 1_555
H82 B7 1_555 1_555
B8 B2 1_555 1_555
H83 B8 1_555 1_555
B9 B3 1_555 1_555
H84 B9 1_555 1_555
B10 B4 1_555 1_555
H85 B10 1_555 1_555
B11 B6 1_555 1_555
H86 B11 1_555 1_555
B12 H87 1_555 1_555
B13 B12 1_555 1_555
H88 B13 1_555 1_555
B14 B13 1_555 1_555
H89 B14 1_555 1_555
B15 B14 1_555 1_555
H90 B15 1_555 1_555
B16 B12 1_555 1_555
H91 B16 1_555 1_555
B17 B12 1_555 1_555
H92 B17 1_555 1_555
B18 B12 1_555 1_555
H93 B18 1_555 1_555
B19 B13 1_555 1_555
H94 B19 1_555 1_555
B20 B14 1_555 1_555
H95 B20 1_555 1_555
B21 B15 1_555 1_555
H96 B21 1_555 1_555
B22 B17 1_555 1_555
H97 B22 1_555 1_555
B23 H98 1_555 1_555
B24 B23 1_555 1_555
H99 B24 1_555 1_555
B25 B24 1_555 1_555
H100 B25 1_555 1_555
B26 B25 1_555 1_555
H101 B26 1_555 1_555
B27 B23 1_555 1_555
H102 B27 1_555 1_555
B28 B23 1_555 1_555
H103 B28 1_555 1_555
B29 B23 1_555 1_555
H104 B29 1_555 1_555
B30 B24 1_555 1_555
H105 B30 1_555 1_555
B31 B25 1_555 1_555
H106 B31 1_555 1_555
B32 B26 1_555 1_555
H107 B32 1_555 1_555
B33 B28 1_555 1_555
H108 B33 1_555 1_555
K1 B2 1_555 1_555
Na1 B3 1_555 1_555
Na2 B16 1_555 1_555
O1 C1 1_555 1_555
O2 C5 1_555 1_555
O3 C9 1_555 1_555
O4 C13 1_555 1_555
O5 C17 1_555 1_555
O6 C21 1_555 1_555
Pd1 Sn1 1_555 1_555
Sn1 B1 1_555 1_555
Sn2 B12 1_555 1_555
Sn3 B23 1_555 1_555
N1 C25 1_555 1_555
H109 N1 1_555 1_555
C1B H1B 1_555 1_555
H2B C1B 1_555 1_555
C2B C1B 1_555 1_555
H3B C2B 1_555 1_555
H4B C2B 1_555 1_555
C3B C2B 1_555 1_555
H5B C3B 1_555 1_555
H6B C3B 1_555 1_555
C4B C3B 1_555 1_555
H7B C4B 1_555 1_555
H8B C4B 1_555 1_555
C5B H9B 1_555 1_555
H10B C5B 1_555 1_555
C6B C5B 1_555 1_555
H11B C6B 1_555 1_555
H12B C6B 1_555 1_555
C7B C6B 1_555 1_555
H13B C7B 1_555 1_555
H14B C7B 1_555 1_555
C8B C7B 1_555 1_555
H15B C8B 1_555 1_555
H16B C8B 1_555 1_555
C9B H17B 1_555 1_555
H18B C9B 1_555 1_555
C10B C9B 1_555 1_555
H19B C10B 1_555 1_555
H20B C10B 1_555 1_555
C11B C10B 1_555 1_555
H21B C11B 1_555 1_555
H22B C11B 1_555 1_555
C12B C11B 1_555 1_555
H23B C12B 1_555 1_555
H24B C12B 1_555 1_555
C13B H25B 1_555 1_555
H26B C13B 1_555 1_555
C14B C13B 1_555 1_555
H27B C14B 1_555 1_555
H28B C14B 1_555 1_555
C15B C14B 1_555 1_555
H29B C15B 1_555 1_555
H30B C15B 1_555 1_555
C16B C15B 1_555 1_555
H31B C16B 1_555 1_555
H32B C16B 1_555 1_555
C17B H33B 1_555 1_555
H34B C17B 1_555 1_555
C18B C17B 1_555 1_555
H35B C18B 1_555 1_555
H36B C18B 1_555 1_555
C19B C18B 1_555 1_555
H37B C19B 1_555 1_555
H38B C19B 1_555 1_555
C20B C19B 1_555 1_555
H39B C20B 1_555 1_555
H40B C20B 1_555 1_555
B1B H76B 1_555 1_555
B2B B1B 1_555 1_555
H77B B2B 1_555 1_555
B3B B2B 1_555 1_555
H78B B3B 1_555 1_555
B4B B3B 1_555 1_555
H79B B4B 1_555 1_555
B5B B1B 1_555 1_555
H80B B5B 1_555 1_555
B6B B1B 1_555 1_555
H81B B6B 1_555 1_555
B7B B1B 1_555 1_555
H82B B7B 1_555 1_555
B8B B2B 1_555 1_555
H83B B8B 1_555 1_555
B9B B3B 1_555 1_555
H84B B9B 1_555 1_555
B10B B4B 1_555 1_555
H85B B10B 1_555 1_555
B11B B6B 1_555 1_555
H86B B11B 1_555 1_555
B12B K1 1_555 1_555
H87B B12B 1_555 1_555
B13B K1 1_555 1_555
H88B B13B 1_555 1_555
B14B B13B 1_555 1_555
H89B B14B 1_555 1_555
B15B B14B 1_555 1_555
H90B B15B 1_555 1_555
B16B B12B 1_555 1_555
H91B B16B 1_555 1_555
B17B B12B 1_555 1_555
H92B B17B 1_555 1_555
B18B K1 1_555 1_555
B18_2 K1 1_555 1_555
B18B_2 H93B_2 1_555 1_555
H93B B18B 1_555 1_555
H93_2 B18_2 1_555 1_555
B19B B13B 1_555 1_555
B19_2 K1 1_555 1_555
B19B_2 B18B_2 1_555 1_555
H94B B19B 1_555 1_555
H94_2 B19_2 1_555 1_555
H94B_2 B19B_2 1_555 1_555
B20B B14B 1_555 1_555
H95B B20B 1_555 1_555
B21B B15B 1_555 1_555
H96B B21B 1_555 1_555
B22B B17B 1_555 1_555
B22_2 K1 1_555 1_555
B22B_2 B18B_2 1_555 1_555
H97B B22B 1_555 1_555
H97_2 B22_2 1_555 1_555
H97B_2 B22B_2 1_555 1_555
B23B Na2 1_555 1_555
H98B B23B 1_555 1_555
B24B B23B 1_555 1_555
H99B B24B 1_555 1_555
B25B B24B 1_555 1_555
H100B B25B 1_555 1_555
B26B Na1 1_555 1_555
H101B B26B 1_555 1_555
B27B B23B 1_555 1_555
H102B B27B 1_555 1_555
B28B Na2 1_555 1_555
H103B B28B 1_555 1_555
B29B B23B 1_555 1_555
H104B B29B 1_555 1_555
B30B B24B 1_555 1_555
H105B B30B 1_555 1_555
B31B B25B 1_555 1_555
H106B B31B 1_555 1_555
B32B Na1 1_555 1_555
H107B B32B 1_555 1_555
B33B B28B 1_555 1_555
H108B B33B 1_555 1_555
K1B B12 1_555 1_555
K1_2 B18 1_555 1_555
K1B_2 B18B 1_555 1_555
Na1B B26 1_555 1_555
Na2B B23 1_555 1_555
O1B C1B 1_555 1_555
O2B C5B 1_555 1_555
O3B C9B 1_555 1_555
O4B C13B 1_555 1_555
O5B C17B 1_555 1_555
Sn1B Pd1 1_555 1_555
Sn2B Pd1 1_555 1_555
Sn3B Pd1 1_555 1_555
C4 O1 1_555 1_555
C8 O2 1_555 1_555
C12 O3 1_555 1_555
C16 O4 1_555 1_555
C20 O5 1_555 1_555
C24 O6 1_555 1_555
C29 N1 1_555 1_555
C33 N1 1_555 1_555
B2 B7 1_555 1_555
B2 Sn1 1_555 1_555
B3 B8 1_555 1_555
B3 Sn1 1_555 1_555
B4 B5 1_555 1_555
B4 B9 1_555 1_555
B4 Na1 1_555 1_555
B4 Sn1 1_555 1_555
B5 B6 1_555 1_555
B5 B10 1_555 1_555
B5 Sn1 1_555 1_555
B6 B7 1_555 1_555
B6 B10 1_555 1_555
B7 B8 1_555 1_555
B7 B11 1_555 1_555
B8 B9 1_555 1_555
B8 B11 1_555 1_555
B8 K1 1_555 1_555
B9 B10 1_555 1_555
B9 B11 1_555 1_555
B9 Na1 1_555 1_555
B10 B11 1_555 1_555
B13 B18 1_555 1_555
B13 Sn2 1_555 1_555
B13 K1B 1_555 1_555
B14 B19 1_555 1_555
B14 Sn2 1_555 1_555
B15 B16 1_555 1_555
B15 B20 1_555 1_555
B15 Sn2 1_555 1_555
B16 B17 1_555 1_555
B16 B21 1_555 1_555
B16 Sn2 1_555 1_555
B17 B18 1_555 1_555
B17 B21 1_555 1_555
B17 Na2 1_555 1_555
B18 B19 1_555 1_555
B18 B22 1_555 1_555
B18 K1B 1_555 1_555
B19 B20 1_555 1_555
B19 B22 1_555 1_555
B19 K1_2 1_555 1_555
B20 B21 1_555 1_555
B20 B22 1_555 1_555
B21 B22 1_555 1_555
B22 K1_2 1_555 1_555
B24 B29 1_555 1_555
B24 Sn3 1_555 1_555
B25 B30 1_555 1_555
B25 Sn3 1_555 1_555
B26 B27 1_555 1_555
B26 B31 1_555 1_555
B26 Sn3 1_555 1_555
B27 B28 1_555 1_555
B27 B32 1_555 1_555
B27 Sn3 1_555 1_555
B28 B29 1_555 1_555
B28 B32 1_555 1_555
B28 Na2B 1_555 1_555
B29 B30 1_555 1_555
B29 B33 1_555 1_555
B30 B31 1_555 1_555
B30 B33 1_555 1_555
B31 B32 1_555 1_555
B31 B33 1_555 1_555
B32 B33 1_555 1_555
B32 Na1B 1_555 1_555
K1 O1 1_555 1_555
Na1 O2 1_555 1_555
Na1 O3 1_555 1_555
Na2 O4 1_555 1_555
Na2 O5 1_555 1_555
Pd1 Sn2 1_555 1_555
Pd1 Sn3 1_555 1_555
C4B O1B 1_555 1_555
C8B O2B 1_555 1_555
C12B O3B 1_555 1_555
C16B O4B 1_555 1_555
C20B O5B 1_555 1_555
B1B Sn1B 1_555 1_555
B2B B7B 1_555 1_555
B2B K1B 1_555 1_555
B2B Sn1B 1_555 1_555
B3B B8B 1_555 1_555
B3B Na1B 1_555 1_555
B3B Sn1B 1_555 1_555
B4B B5B 1_555 1_555
B4B B9B 1_555 1_555
B4B Na1B 1_555 1_555
B4B Sn1B 1_555 1_555
B5B B6B 1_555 1_555
B5B B10B 1_555 1_555
B5B Sn1B 1_555 1_555
B6B B7B 1_555 1_555
B6B B10B 1_555 1_555
B7B B8B 1_555 1_555
B7B B11B 1_555 1_555
B8B B9B 1_555 1_555
B8B B11B 1_555 1_555
B8B K1B 1_555 1_555
B9B B10B 1_555 1_555
B9B B11B 1_555 1_555
B9B Na1B 1_555 1_555
B10B B11B 1_555 1_555
B12B B13B 1_555 1_555
B12B B18B 1_555 1_555
B12B Sn2B 1_555 1_555
B13B B18B 1_555 1_555
B13B Sn2B 1_555 1_555
B14B B19B 1_555 1_555
B14B Sn2B 1_555 1_555
B15B B16B 1_555 1_555
B15B B20B 1_555 1_555
B15B Sn2B 1_555 1_555
B16B B17B 1_555 1_555
B16B B21B 1_555 1_555
B16B Na2B 1_555 1_555
B16B Sn2B 1_555 1_555
B17B B18B 1_555 1_555
B17B B21B 1_555 1_555
B17B Na2B 1_555 1_555
B18B B19B 1_555 1_555
B18B B22B 1_555 1_555
B18_2 B19_2 1_555 1_555
B18_2 B22_2 1_555 1_555
B18_2 K1B_2 1_555 1_555
B18B_2 K1B 1_555 1_555
B18B_2 K1_2 1_555 1_555
B19B B20B 1_555 1_555
B19B B22B 1_555 1_555
B19B K1B_2 1_555 1_555
B19_2 B22_2 1_555 1_555
B19B_2 B22B_2 1_555 1_555
B19B_2 K1B 1_555 1_555
B20B B21B 1_555 1_555
B20B B22B 1_555 1_555
B21B B22B 1_555 1_555
B22B K1B_2 1_555 1_555
B22B_2 K1B 1_555 1_555
B23B B28B 1_555 1_555
B23B Sn3B 1_555 1_555
B24B B29B 1_555 1_555
B24B Sn3B 1_555 1_555
B25B B26B 1_555 1_555
B25B B30B 1_555 1_555
B25B Sn3B 1_555 1_555
B26B B27B 1_555 1_555
B26B B31B 1_555 1_555
B26B B32B 1_555 1_555
B26B Sn3B 1_555 1_555
B27B B28B 1_555 1_555
B27B B32B 1_555 1_555
B27B Sn3B 1_555 1_555
B28B B29B 1_555 1_555
B28B B32B 1_555 1_555
B29B B30B 1_555 1_555
B29B B33B 1_555 1_555
B30B B31B 1_555 1_555
B30B B33B 1_555 1_555
B31B B32B 1_555 1_555
B31B B33B 1_555 1_555
B32B B33B 1_555 1_555
K1B O1B 1_555 1_555
Na1B O2B 1_555 1_555
Na1B O3B 1_555 1_555
Na2B O4B 1_555 1_555
Na2B O5B 1_555 1_555

#END
