
#######################################################################
#
#                 Cambridge Crystallographic Data Centre
#                                CCDC 
#
#######################################################################
#
# If this CIF has been generated from an entry in the Cambridge 
# Structural Database, then it will include bibliographic, chemical, 
# crystal, experimental, refinement or atomic coordinate data resulting 
# from the CCDC's data processing and validation procedures.
#
#######################################################################

data_MIWCUS
_symmetry_cell_setting           monoclinic
_symmetry_space_group_name_H-M   'C 2/c'
_symmetry_Int_Tables_number      15
_space_group_name_Hall           '-C 2yn'
loop_
_symmetry_equiv_pos_site_id
_symmetry_equiv_pos_as_xyz
1 x,y,z
2 -x,y,1/2-z
3 1/2+x,1/2+y,z
4 1/2-x,1/2+y,1/2-z
5 -x,-y,-z
6 x,-y,1/2+z
7 1/2-x,1/2-y,-z
8 1/2+x,1/2-y,1/2+z
_cell_length_a                   19.408(4)
_cell_length_b                   38.069(8)
_cell_length_c                   14.436(3)
_cell_angle_alpha                90
_cell_angle_beta                 105.32(3)
_cell_angle_gamma                90
_cell_volume                     10286.9
loop_
_atom_site_label
_atom_site_type_symbol
_atom_site_fract_x
_atom_site_fract_y
_atom_site_fract_z
Mn1 Mn 0.2500 0.7500 0.5000
Mn2 Mn 0.19975(3) 0.674014(15) 0.35522(4)
Mn3 Mn 0.2500 0.7500 0.0000
Mn4 Mn 0.29288(3) 0.673630(15) 0.14333(4)
O1 O 0.28215(13) 0.71555(8) 0.3884(2)
O2 O 0.32124(13) 0.67672(8) 0.3027(2)
O3 O 0.59586(14) 0.67954(9) 0.3546(2)
O4 O 0.64913(14) 0.72850(10) 0.4125(2)
O5 O 0.44309(17) 0.81686(9) 0.3599(4)
O6 O 0.21669(13) 0.71863(8) 0.1170(2)
O7 O 0.17019(14) 0.68156(8) 0.1992(2)
O8 O -0.10006(15) 0.69431(11) 0.1351(2)
O9 O -0.14644(14) 0.74723(11) 0.0930(2)
O10 O 0.0553(2) 0.82441(11) 0.0690(3)
O11 O 0.25846(17) 0.65688(8) -0.0011(2)
O12 O 0.23264(17) 0.70586(8) -0.0890(2)
O13 O 0.23539(17) 0.70296(8) -0.4265(2)
O14 O 0.22761(19) 0.65191(9) -0.5047(2)
O15 O 0.25597(18) 0.56126(9) -0.2399(3)
O16 O 0.2028(3) 0.61914(10) 0.3164(3)
O17 O 0.28371(19) 0.61797(9) 0.1715(2)
C1 C 0.6330(2) 0.92915(10) 0.4720(3)
N1 N 0.6181(2) 0.96188(9) 0.4429(3)
N2 N 0.6753(2) 0.98130(9) 0.4798(3)
N3 N 0.7255(2) 0.96057(9) 0.5318(3)
N4 N 0.69934(19) 0.92835(10) 0.5270(3)
N5 N 0.6805(6) 1.0182(2) 0.4709(7)
C2 C 0.0931(3) 0.94626(18) 0.2905(6)
N6 N 0.0826(3) 0.97799(18) 0.2561(6)
N7 N 0.0950(4) 0.99977(18) 0.3281(6)
N8 N 0.1132(4) 0.98149(19) 0.4070(6)
N9 N 0.1120(4) 0.94841(19) 0.3838(6)
N10 N 0.0924(7) 1.0348(3) 0.3554(9)
C3 C 0.0649(3) 0.44862(15) -0.3368(5)
N11 N 0.0020(3) 0.44802(16) -0.3931(5)
N12 N -0.0213(3) 0.41659(16) -0.3962(4)
N13 N 0.0272(4) 0.39775(15) -0.3417(5)
N14 N 0.0805(4) 0.41755(14) -0.3050(5)
N15 N -0.0749(5) 0.3952(3) -0.4428(8)
C4 C 0.4554(2) 0.78125(12) 0.3691(4)
C5 C 0.39430(19) 0.76161(11) 0.3652(3)
H1 H 0.3516 0.7728 0.3650
C6 C 0.39746(17) 0.72533(11) 0.3617(3)
C7 C 0.46130(17) 0.70816(11) 0.3641(3)
H2 H 0.4628 0.6838 0.3592
C8 C 0.52294(18) 0.72833(12) 0.3741(3)
C9 C 0.52011(19) 0.76481(12) 0.3744(3)
H3 H 0.5610 0.7780 0.3780
C10 C 0.33031(17) 0.70472(11) 0.3503(3)
C11 C 0.59352(18) 0.71112(13) 0.3816(3)
C12 C 0.4930(2) 0.84249(13) 0.3930(5)
C13 C 0.4766(4) 0.87449(19) 0.3470(7)
H4 H 0.4349 0.8769 0.2978
C14 C 0.5221(4) 0.90291(18) 0.3741(6)
H5 H 0.5099 0.9244 0.3437
C15 C 0.5848(3) 0.89985(15) 0.4449(4)
C16 C 0.6001(3) 0.86848(14) 0.4888(4)
H6 H 0.6416 0.8661 0.5383
C17 C 0.5557(3) 0.83977(14) 0.4621(4)
H7 H 0.5690 0.8182 0.4919
C18 C 0.0504(2) 0.79053(13) 0.1048(4)
C19 C 0.1103(2) 0.76941(12) 0.1246(3)
H8 H 0.1546 0.7789 0.1253
C20 C 0.10430(18) 0.73376(12) 0.1435(3)
C21 C 0.03842(18) 0.71975(12) 0.1447(3)
H9 H 0.0346 0.6961 0.1589
C22 C -0.02183(19) 0.74118(13) 0.1248(3)
C23 C -0.0156(2) 0.77687(14) 0.1054(3)
H10 H -0.0556 0.7914 0.0931
C24 C 0.16725(18) 0.70982(11) 0.1548(3)
C25 C -0.0951(2) 0.72679(15) 0.1172(3)
C26 C 0.0641(3) 0.85314(17) 0.1272(5)
C27 C 0.0576(4) 0.88557(19) 0.0812(6)
H11 H 0.0475 0.8867 0.0146
C28 C 0.0661(4) 0.9153(2) 0.1335(9)
H12 H 0.0602 0.9370 0.1026
C29 C 0.0841(3) 0.9139(2) 0.2356(7)
C30 C 0.0908(3) 0.8817(2) 0.2785(6)
H13 H 0.1016 0.8803 0.3451
C31 C 0.0818(3) 0.85077(16) 0.2246(6)
H14 H 0.0878 0.8290 0.2548
C32 C 0.2417(2) 0.59753(12) -0.2488(3)
C33 C 0.2430(2) 0.61617(12) -0.1655(3)
H15 H 0.2468 0.6044 -0.1080
C34 C 0.2387(2) 0.65233(11) -0.1689(3)
C35 C 0.2336(2) 0.66970(11) -0.2554(3)
H16 H 0.2307 0.6941 -0.2577
C36 C 0.2329(2) 0.65089(12) -0.3388(3)
C37 C 0.2358(2) 0.61428(12) -0.3353(3)
H17 H 0.2337 0.6013 -0.3906
C38 C 0.2433(2) 0.67320(11) -0.0789(3)
C39 C 0.2320(2) 0.67017(12) -0.4300(3)
C40 C 0.2057(3) 0.53631(15) -0.2637(4)
C41 C 0.1354(4) 0.54205(17) -0.3053(6)
H18 H 0.1186 0.5649 -0.3181
C42 C 0.0880(4) 0.5138(2) -0.3292(6)
H19 H 0.0396 0.5181 -0.3558
C43 C 0.1122(4) 0.47987(17) -0.3138(5)
C44 C 0.1827(4) 0.47446(16) -0.2711(5)
H20 H 0.1993 0.4516 -0.2575
C45 C 0.2302(4) 0.50212(15) -0.2474(5)
H21 H 0.2785 0.4978 -0.2205
Mn2A Mn -0.19975(3) 0.674014(15) 0.14478(4)
Mn4A Mn -0.29288(3) 0.673630(15) 0.35667(4)
O1A O -0.28215(13) 0.71555(8) 0.1116(2)
O2A O -0.32124(13) 0.67672(8) 0.1973(2)
O3A O -0.59586(14) 0.67954(9) 0.1454(2)
O4A O -0.64913(14) 0.72850(10) 0.0875(2)
O5A O -0.44309(17) 0.81686(9) 0.1401(4)
O6A O -0.21669(13) 0.71863(8) 0.3830(2)
O7A O -0.17019(14) 0.68156(8) 0.3008(2)
O8A O 0.10006(15) 0.69431(11) 0.3649(2)
O9A O 0.14644(14) 0.74723(11) 0.4070(2)
O10A O -0.0553(2) 0.82441(11) 0.4310(3)
O11A O -0.25846(17) 0.65688(8) 0.5011(2)
O12A O -0.23264(17) 0.70586(8) 0.5890(2)
O13A O -0.23539(17) 0.70296(8) 0.9265(2)
O14A O -0.22761(19) 0.65191(9) 1.0047(2)
O15A O -0.25597(18) 0.56126(9) 0.7399(3)
O16A O -0.2028(3) 0.61914(10) 0.1836(3)
O17A O -0.28371(19) 0.61797(9) 0.3285(2)
C1A C -0.6330(2) 0.92915(10) 0.0280(3)
N1A N -0.6181(2) 0.96188(9) 0.0571(3)
N2A N -0.6753(2) 0.98130(9) 0.0202(3)
N3A N -0.7255(2) 0.96057(9) -0.0318(3)
N4A N -0.69934(19) 0.92835(10) -0.0270(3)
N5A N -0.6805(6) 1.0182(2) 0.0291(7)
C2A C -0.0931(3) 0.94626(18) 0.2095(6)
N6A N -0.0826(3) 0.97799(18) 0.2439(6)
N7A N -0.0950(4) 0.99977(18) 0.1719(6)
N8A N -0.1132(4) 0.98149(19) 0.0930(6)
N9A N -0.1120(4) 0.94841(19) 0.1162(6)
N10A N -0.0924(7) 1.0348(3) 0.1446(9)
C3A C -0.0649(3) 0.44862(15) 0.8368(5)
N11A N -0.0020(3) 0.44802(16) 0.8931(5)
N12A N 0.0213(3) 0.41659(16) 0.8962(4)
N13A N -0.0272(4) 0.39775(15) 0.8417(5)
N14A N -0.0805(4) 0.41755(14) 0.8050(5)
N15A N 0.0749(5) 0.3952(3) 0.9428(8)
C4A C -0.4554(2) 0.78125(12) 0.1309(4)
C5A C -0.39430(19) 0.76161(11) 0.1348(3)
H1A H -0.3516 0.7728 0.1350
C6A C -0.39746(17) 0.72533(11) 0.1383(3)
C7A C -0.46130(17) 0.70816(11) 0.1359(3)
H2A H -0.4628 0.6838 0.1408
C8A C -0.52294(18) 0.72833(12) 0.1259(3)
C9A C -0.52011(19) 0.76481(12) 0.1256(3)
H3A H -0.5610 0.7780 0.1220
C10A C -0.33031(17) 0.70472(11) 0.1497(3)
C11A C -0.59352(18) 0.71112(13) 0.1184(3)
C12A C -0.4930(2) 0.84249(13) 0.1070(5)
C13A C -0.4766(4) 0.87449(19) 0.1530(7)
H4A H -0.4349 0.8769 0.2022
C14A C -0.5221(4) 0.90291(18) 0.1259(6)
H5A H -0.5099 0.9244 0.1563
C15A C -0.5848(3) 0.89985(15) 0.0551(4)
C16A C -0.6001(3) 0.86848(14) 0.0112(4)
H6A H -0.6416 0.8661 -0.0383
C17A C -0.5557(3) 0.83977(14) 0.0379(4)
H7A H -0.5690 0.8182 0.0081
C18A C -0.0504(2) 0.79053(13) 0.3952(4)
C19A C -0.1103(2) 0.76941(12) 0.3754(3)
H8A H -0.1546 0.7789 0.3747
C20A C -0.10430(18) 0.73376(12) 0.3565(3)
C21A C -0.03842(18) 0.71975(12) 0.3553(3)
H9A H -0.0346 0.6961 0.3411
C22A C 0.02183(19) 0.74118(13) 0.3752(3)
C23A C 0.0156(2) 0.77687(14) 0.3946(3)
H10A H 0.0556 0.7914 0.4069
C24A C -0.16725(18) 0.70982(11) 0.3452(3)
C25A C 0.0951(2) 0.72679(15) 0.3828(3)
C26A C -0.0641(3) 0.85314(17) 0.3728(5)
C27A C -0.0576(4) 0.88557(19) 0.4188(6)
H11A H -0.0475 0.8867 0.4854
C28A C -0.0661(4) 0.9153(2) 0.3665(9)
H12A H -0.0602 0.9370 0.3974
C29A C -0.0841(3) 0.9139(2) 0.2644(7)
C30A C -0.0908(3) 0.8817(2) 0.2215(6)
H13A H -0.1016 0.8803 0.1549
C31A C -0.0818(3) 0.85077(16) 0.2754(6)
H14A H -0.0878 0.8290 0.2452
C32A C -0.2417(2) 0.59753(12) 0.7488(3)
C33A C -0.2430(2) 0.61617(12) 0.6655(3)
H15A H -0.2468 0.6044 0.6080
C34A C -0.2387(2) 0.65233(11) 0.6689(3)
C35A C -0.2336(2) 0.66970(11) 0.7554(3)
H16A H -0.2307 0.6941 0.7577
C36A C -0.2329(2) 0.65089(12) 0.8388(3)
C37A C -0.2358(2) 0.61428(12) 0.8353(3)
H17A H -0.2337 0.6013 0.8906
C38A C -0.2433(2) 0.67320(11) 0.5789(3)
C39A C -0.2320(2) 0.67017(12) 0.9300(3)
C40A C -0.2057(3) 0.53631(15) 0.7637(4)
C41A C -0.1354(4) 0.54205(17) 0.8053(6)
H18A H -0.1186 0.5649 0.8181
C42A C -0.0880(4) 0.5138(2) 0.8292(6)
H19A H -0.0396 0.5181 0.8558
C43A C -0.1122(4) 0.47987(17) 0.8138(5)
C44A C -0.1827(4) 0.47446(16) 0.7711(5)
H20A H -0.1993 0.4516 0.7575
C45A C -0.2302(4) 0.50212(15) 0.7474(5)
H21A H -0.2785 0.4978 0.7205
Mn1_2 Mn 0.2500 0.7500 -0.5000
Mn1A Mn -0.2500 0.7500 0.0000
Mn1A_2 Mn -0.2500 0.7500 1.0000
Mn2_2 Mn 0.19975(3) 0.674014(15) -0.64478(4)
Mn2A_2 Mn -0.19975(3) 0.674014(15) 1.14478(4)
Mn3_2 Mn -0.7500 0.7500 0.0000
Mn3A Mn -0.2500 0.7500 0.5000
Mn3A_2 Mn 0.7500 0.7500 0.5000
Mn4_2 Mn -0.70712(3) 0.673630(15) 0.14333(4)
Mn4A_2 Mn 0.70712(3) 0.673630(15) 0.35667(4)
O1F O 0.21785(13) 0.78445(8) 0.6116(2)
O3_2 O -0.40414(14) 0.67954(9) 0.3546(2)
O3A_2 O 0.40414(14) 0.67954(9) 0.1454(2)
O4A_2 O 0.35087(14) 0.72850(10) 0.0875(2)
O4G O 0.14913(14) 0.77150(10) -0.0875(2)
O6F O 0.28331(13) 0.78137(8) -0.1170(2)
O9G O 0.35356(14) 0.75277(11) 0.5930(2)
O12F O 0.26736(17) 0.79414(8) 0.0890(2)
O13_2 O 0.23539(17) 0.70296(8) 0.5735(2)
O13F O 0.26461(17) 0.79704(8) 0.4265(2)
O14_2 O 0.22761(19) 0.65191(9) 0.4953(2)
O14A_2 O -0.22761(19) 0.65191(9) 0.0047(2)
O18 O 0.1847(12) 0.9172(6) 0.5650(17)
O19 O 0.1042(6) 0.9119(3) 0.7020(8)
O20 O 0.0000 0.8703(2) 0.7500
loop_
_geom_bond_atom_site_label_1
_geom_bond_atom_site_label_2
_geom_bond_site_symmetry_1
_geom_bond_site_symmetry_2
Mn1 O1 1_555 1_555
Mn2 O1 1_555 1_555
Mn3 O6 1_555 1_555
Mn4 O2 1_555 1_555
O1 C10 1_555 1_555
O2 C10 1_555 1_555
O3 C11 1_555 1_555
O4 C11 1_555 1_555
O5 C4 1_555 1_555
O6 Mn4 1_555 1_555
O7 Mn2 1_555 1_555
O8 C25 1_555 1_555
O9 C25 1_555 1_555
O10 C18 1_555 1_555
O11 Mn4 1_555 1_555
O12 Mn3 1_555 1_555
O13 C39 1_555 1_555
O14 C39 1_555 1_555
O15 C32 1_555 1_555
O16 Mn2 1_555 1_555
O17 Mn4 1_555 1_555
C1 N1 1_555 1_555
N1 N2 1_555 1_555
N2 N3 1_555 1_555
N3 N4 1_555 1_555
N4 C1 1_555 1_555
N5 N2 1_555 1_555
C2 N6 1_555 1_555
N6 N7 1_555 1_555
N7 N8 1_555 1_555
N8 N9 1_555 1_555
N9 C2 1_555 1_555
N10 N7 1_555 1_555
C3 N11 1_555 1_555
N11 N12 1_555 1_555
N12 N13 1_555 1_555
N13 N14 1_555 1_555
N14 C3 1_555 1_555
N15 N12 1_555 1_555
C4 C5 1_555 1_555
C5 H1 1_555 1_555
C6 C5 1_555 1_555
C7 C6 1_555 1_555
H2 C7 1_555 1_555
C8 C7 1_555 1_555
C9 C4 1_555 1_555
H3 C9 1_555 1_555
C10 C6 1_555 1_555
C11 C8 1_555 1_555
C12 O5 1_555 1_555
C13 C12 1_555 1_555
H4 C13 1_555 1_555
C14 C13 1_555 1_555
H5 C14 1_555 1_555
C15 C1 1_555 1_555
C16 C15 1_555 1_555
H6 C16 1_555 1_555
C17 C12 1_555 1_555
H7 C17 1_555 1_555
C18 C19 1_555 1_555
C19 H8 1_555 1_555
C20 C19 1_555 1_555
C21 C20 1_555 1_555
H9 C21 1_555 1_555
C22 C21 1_555 1_555
C23 C18 1_555 1_555
H10 C23 1_555 1_555
C24 O6 1_555 1_555
C25 C22 1_555 1_555
C26 O10 1_555 1_555
C27 C26 1_555 1_555
H11 C27 1_555 1_555
C28 C27 1_555 1_555
H12 C28 1_555 1_555
C29 C2 1_555 1_555
C30 C29 1_555 1_555
H13 C30 1_555 1_555
C31 C26 1_555 1_555
H14 C31 1_555 1_555
C32 C33 1_555 1_555
C33 H15 1_555 1_555
C34 C33 1_555 1_555
C35 C34 1_555 1_555
H16 C35 1_555 1_555
C36 C35 1_555 1_555
C37 C32 1_555 1_555
H17 C37 1_555 1_555
C38 O11 1_555 1_555
C39 C36 1_555 1_555
C40 O15 1_555 1_555
C41 C40 1_555 1_555
H18 C41 1_555 1_555
C42 C41 1_555 1_555
H19 C42 1_555 1_555
C43 C3 1_555 1_555
C44 C43 1_555 1_555
H20 C44 1_555 1_555
C45 C40 1_555 1_555
H21 C45 1_555 1_555
Mn2A O8 1_555 1_555
Mn4A O2A 1_555 1_555
O1A Mn2A 1_555 1_555
O2A C10A 1_555 1_555
O3A C11A 1_555 1_555
O4A C11A 1_555 1_555
O5A C4A 1_555 1_555
O6A Mn4A 1_555 1_555
O7A Mn2A 1_555 1_555
O8A Mn2 1_555 1_555
O9A Mn1 1_555 1_555
O10A C18A 1_555 1_555
O11A Mn4A 1_555 1_555
O12A C38A 1_555 1_555
O13A C39A 1_555 1_555
O14A C39A 1_555 1_555
O15A C32A 1_555 1_555
O16A Mn2A 1_555 1_555
O17A Mn4A 1_555 1_555
C1A N1A 1_555 1_555
N1A N2A 1_555 1_555
N2A N3A 1_555 1_555
N3A N4A 1_555 1_555
N4A C1A 1_555 1_555
N5A N2A 1_555 1_555
C2A N6A 1_555 1_555
N6A N7A 1_555 1_555
N7A N8A 1_555 1_555
N8A N9A 1_555 1_555
N9A C2A 1_555 1_555
N10A N7A 1_555 1_555
C3A N11A 1_555 1_555
N11A N12A 1_555 1_555
N12A N13A 1_555 1_555
N13A N14A 1_555 1_555
N14A C3A 1_555 1_555
N15A N12A 1_555 1_555
C4A C5A 1_555 1_555
C5A H1A 1_555 1_555
C6A C5A 1_555 1_555
C7A C6A 1_555 1_555
H2A C7A 1_555 1_555
C8A C7A 1_555 1_555
C9A C4A 1_555 1_555
H3A C9A 1_555 1_555
C10A O1A 1_555 1_555
C11A C8A 1_555 1_555
C12A O5A 1_555 1_555
C13A C12A 1_555 1_555
H4A C13A 1_555 1_555
C14A C13A 1_555 1_555
H5A C14A 1_555 1_555
C15A C1A 1_555 1_555
C16A C15A 1_555 1_555
H6A C16A 1_555 1_555
C17A C12A 1_555 1_555
H7A C17A 1_555 1_555
C18A C19A 1_555 1_555
C19A H8A 1_555 1_555
C20A C19A 1_555 1_555
C21A C20A 1_555 1_555
H9A C21A 1_555 1_555
C22A C21A 1_555 1_555
C23A C18A 1_555 1_555
H10A C23A 1_555 1_555
C24A O6A 1_555 1_555
C25A O8A 1_555 1_555
C26A O10A 1_555 1_555
C27A C26A 1_555 1_555
H11A C27A 1_555 1_555
C28A C27A 1_555 1_555
H12A C28A 1_555 1_555
C29A C2A 1_555 1_555
C30A C29A 1_555 1_555
H13A C30A 1_555 1_555
C31A C26A 1_555 1_555
H14A C31A 1_555 1_555
C32A C33A 1_555 1_555
C33A H15A 1_555 1_555
C34A C33A 1_555 1_555
C35A C34A 1_555 1_555
H16A C35A 1_555 1_555
C36A C35A 1_555 1_555
C37A C32A 1_555 1_555
H17A C37A 1_555 1_555
C38A O11A 1_555 1_555
C39A C36A 1_555 1_555
C40A O15A 1_555 1_555
C41A C40A 1_555 1_555
H18A C41A 1_555 1_555
C42A C41A 1_555 1_555
H19A C42A 1_555 1_555
C43A C3A 1_555 1_555
C44A C43A 1_555 1_555
H20A C44A 1_555 1_555
C45A C40A 1_555 1_555
H21A C45A 1_555 1_555
Mn1_2 O13 1_555 1_555
Mn1A O9 1_555 1_555
Mn1A_2 O13A 1_555 1_555
Mn2_2 O14 1_555 1_555
Mn2A_2 O14A 1_555 1_555
Mn3_2 O4A 1_555 1_555
Mn3A O6A 1_555 1_555
Mn3A_2 O4 1_555 1_555
Mn4_2 O3A 1_555 1_555
Mn4A_2 O3 1_555 1_555
O1F Mn1 1_555 1_555
O3_2 Mn4A 1_555 1_555
O3A_2 Mn4 1_555 1_555
O4A_2 Mn3 1_555 1_555
O4G Mn3 1_555 1_555
O6F Mn3 1_555 1_555
O9G Mn1 1_555 1_555
O12F Mn3 1_555 1_555
O13_2 Mn1 1_555 1_555
O13F Mn1 1_555 1_555
O14_2 Mn2 1_555 1_555
O14A_2 Mn2A 1_555 1_555
O7 C24 1_555 1_555
O12 C38 1_555 1_555
C8 C9 1_555 1_555
C14 C15 1_555 1_555
C16 C17 1_555 1_555
C20 C24 1_555 1_555
C22 C23 1_555 1_555
C28 C29 1_555 1_555
C30 C31 1_555 1_555
C34 C38 1_555 1_555
C36 C37 1_555 1_555
C42 C43 1_555 1_555
C44 C45 1_555 1_555
O1A Mn1A 1_555 1_555
O7A C24A 1_555 1_555
O9A C25A 1_555 1_555
O12A Mn3A 1_555 1_555
C6A C10A 1_555 1_555
C8A C9A 1_555 1_555
C14A C15A 1_555 1_555
C16A C17A 1_555 1_555
C20A C24A 1_555 1_555
C22A C23A 1_555 1_555
C22A C25A 1_555 1_555
C28A C29A 1_555 1_555
C30A C31A 1_555 1_555
C34A C38A 1_555 1_555
C36A C37A 1_555 1_555
C42A C43A 1_555 1_555
C44A C45A 1_555 1_555

#END
