
#######################################################################
#
#                 Cambridge Crystallographic Data Centre
#                                CCDC 
#
#######################################################################
#
# If this CIF has been generated from an entry in the Cambridge 
# Structural Database, then it will include bibliographic, chemical, 
# crystal, experimental, refinement or atomic coordinate data resulting 
# from the CCDC's data processing and validation procedures.
#
#######################################################################

data_MIWCUR
_symmetry_cell_setting           monoclinic
_symmetry_space_group_name_H-M   'P 21/n'
_symmetry_Int_Tables_number      14
_space_group_name_Hall           '-P 2yn'
loop_
_symmetry_equiv_pos_site_id
_symmetry_equiv_pos_as_xyz
1 x,y,z
2 1/2-x,1/2+y,1/2-z
3 -x,-y,-z
4 1/2+x,1/2-y,1/2+z
_cell_length_a                   14.9048(8)
_cell_length_b                   29.0561(10)
_cell_length_c                   16.6484(15)
_cell_angle_alpha                90
_cell_angle_beta                 96.765(4)
_cell_angle_gamma                90
_cell_volume                     7159.81
loop_
_atom_site_label
_atom_site_type_symbol
_atom_site_fract_x
_atom_site_fract_y
_atom_site_fract_z
Pt1 Pt 0.0000 0.5000 0.5000
Sn1 Sn -0.03777(3) 0.529048(18) 0.35106(3)
Sn2 Sn -0.15579(3) 0.530353(18) 0.53558(3)
Sn3 Sn -0.07447(3) 0.420848(17) 0.45646(3)
K1 K -0.41767(12) 0.45231(8) 0.40258(13)
Na1 Na -0.2473(3) 0.63884(16) 0.3319(2)
Na2 Na -0.1621(4) 0.34012(17) 0.6589(3)
B1 B -0.2896(5) 0.5503(3) 0.4573(5)
H1 H -0.2898 0.5381 0.3947
B2 B -0.1944(6) 0.5925(3) 0.6119(6)
H2 H -0.1345 0.6072 0.6478
B3 B -0.2463(5) 0.5370(3) 0.6391(5)
H3 H -0.2189 0.5166 0.6920
B4 B -0.2156(5) 0.4114(3) 0.3824(5)
H4 H -0.2481 0.4447 0.3665
B5 B -0.1042(7) 0.3471(3) 0.5016(6)
H5 H -0.0661 0.3399 0.5609
B6 B -0.3064(5) 0.5107(3) 0.5432(5)
H6 H -0.3179 0.4735 0.5352
B7 B -0.1009(7) 0.5137(4) 0.2198(5)
H7 H -0.1376 0.4808 0.2158
B8 B 0.0583(7) 0.5740(3) 0.2850(5)
H8 H 0.1232 0.5790 0.3228
O1 O -0.4281(8) 0.4651(4) 0.2474(7)
B9 B -0.0497(7) 0.3486(3) 0.4038(6)
H9 H 0.0227 0.3424 0.4014
B10 B -0.1463(7) 0.5670(3) 0.2643(5)
H10 H -0.2118 0.5676 0.2886
B11 B -0.2287(8) 0.3640(4) 0.3149(7)
H11 H -0.2692 0.3683 0.2557
O2 O -0.3596(9) 0.6486(5) 0.2263(8)
O3 O -0.2966(9) 0.3603(5) 0.6944(8)
B12 B -0.3890(6) 0.5506(4) 0.5045(6)
H12 H -0.4520 0.5379 0.4708
B13 B -0.2197(6) 0.6010(3) 0.4995(6)
H13 H -0.1755 0.6208 0.4639
B14 B -0.1392(8) 0.5617(4) 0.1589(6)
H14 H -0.2015 0.5583 0.1169
B15 B -0.2053(7) 0.3855(3) 0.4879(6)
H15 H -0.2312 0.4030 0.5390
B16 B -0.0375(8) 0.5332(4) 0.1405(6)
H16 H -0.0334 0.5113 0.0871
B17 B -0.2998(6) 0.5900(4) 0.6496(6)
H17 H -0.3053 0.6031 0.7108
B18 B -0.3634(6) 0.5425(4) 0.6115(6)
H18 H -0.4096 0.5245 0.6478
B19 B -0.2846(6) 0.6291(3) 0.5689(6)
H19 H -0.2800 0.6666 0.5771
B20 B -0.3406(7) 0.6039(4) 0.4781(6)
H20 H -0.3717 0.6255 0.4281
B21 B -0.1316(7) 0.3279(3) 0.3282(6)
H22 H -0.1090 0.3088 0.2772
B22 B -0.2793(7) 0.3623(4) 0.4083(7)
H23 H -0.3527 0.3658 0.4096
B23 B -0.2145(8) 0.3258(4) 0.4759(7)
H24 H -0.2460 0.3054 0.5207
B24 B 0.0265(7) 0.5187(4) 0.2329(5)
H25 H 0.0707 0.4883 0.2374
B25 B -0.1234(7) 0.3037(3) 0.4273(6)
H26 H -0.0958 0.2690 0.4405
B26 B 0.0544(8) 0.5686(4) 0.1805(6)
H27 H 0.1179 0.5697 0.1529
B27 B -0.0492(7) 0.6041(3) 0.3052(5)
H30 H -0.0533 0.6282 0.3556
B28 B -0.1194(6) 0.3880(3) 0.3312(5)
H31 H -0.0910 0.4067 0.2826
B29 B -0.1094(9) 0.6140(4) 0.2092(6)
H32 H -0.1523 0.6448 0.2000
B30 B -0.2314(7) 0.3121(4) 0.3717(7)
H33 H -0.2738 0.2829 0.3486
O4 O -0.1264(9) 0.2626(5) 0.6816(8)
B31 B -0.0470(8) 0.5938(4) 0.1328(6)
H34 H -0.0498 0.6112 0.0739
O5 O -0.2155(12) 0.7115(6) 0.3708(10)
B32 B -0.3881(6) 0.5981(4) 0.5707(6)
H35 H -0.4509 0.6160 0.5804
B33 B 0.0104(9) 0.6182(4) 0.2221(6)
H40 H 0.0453 0.6515 0.2216
C10 C -0.3568(11) 0.4782(7) 0.2000(9)
H53 H -0.3060 0.4573 0.2104
H54 H -0.3360 0.5091 0.2141
C11 C -0.3024(13) 0.3902(6) 0.7618(11)
H55 H -0.2436 0.4037 0.7781
H56 H -0.3192 0.3723 0.8069
C13 C -0.0942(15) 0.1842(7) 0.6591(11)
H60 H -0.0419 0.1763 0.6324
H61 H -0.1354 0.1582 0.6552
C14 C -0.1399(15) 0.2258(6) 0.6212(12)
H62 H -0.1136 0.2343 0.5727
H63 H -0.2038 0.2200 0.6067
C16 C -0.0664(15) 0.1964(7) 0.7454(11)
H67 H -0.1062 0.1813 0.7793
H68 H -0.0054 0.1855 0.7615
C17 C -0.3675(13) 0.4264(7) 0.7431(11)
H69 H -0.3387 0.4552 0.7317
H70 H -0.4048 0.4309 0.7864
C19 C -0.3938(12) 0.4762(6) 0.1149(10)
H73 H -0.3470 0.4700 0.0804
H74 H -0.4247 0.5045 0.0976
C20 C -0.4273(14) 0.6458(7) 0.0978(12)
H75 H -0.3789 0.6604 0.0729
H76 H -0.4656 0.6293 0.0563
C21 C -0.4777(12) 0.4286(6) 0.2000(9)
H77 H -0.5419 0.4308 0.2041
H78 H -0.4564 0.3985 0.2188
C22 C -0.3846(12) 0.3625(7) 0.6462(12)
H79 H -0.4230 0.3373 0.6594
H80 H -0.3785 0.3615 0.5888
C23 C -0.4802(13) 0.6808(7) 0.1353(11)
H81 H -0.5356 0.6685 0.1520
H82 H -0.4935 0.7075 0.1009
C25 C -0.4209(13) 0.4067(7) 0.6686(11)
H86 H -0.4833 0.4027 0.6785
H87 H -0.4199 0.4282 0.6241
C26 C -0.4587(12) 0.4366(6) 0.1148(10)
H88 H -0.5143 0.4438 0.0808
H89 H -0.4326 0.4092 0.0938
C27 C -0.4103(13) 0.6906(7) 0.2056(12)
H90 H -0.3699 0.7147 0.1915
H91 H -0.4394 0.7010 0.2516
C28 C -0.1566(18) 0.7275(9) 0.4490(14)
H92 H -0.1946 0.7299 0.4923
H93 H -0.1111 0.7042 0.4645
C29 C -0.3873(14) 0.6119(6) 0.1656(11)
H94 H -0.4324 0.5912 0.1829
H95 H -0.3364 0.5944 0.1505
C30 C -0.0703(14) 0.2471(7) 0.7571(11)
H96 H -0.0104 0.2607 0.7618
H97 H -0.0988 0.2548 0.8048
C34 C -0.1125(18) 0.7707(9) 0.4406(15)
H104 H -0.0494 0.7664 0.4336
H105 H -0.1167 0.7902 0.4874
C35 C -0.1758(18) 0.7459(8) 0.3245(15)
H106 H -0.2133 0.7498 0.2732
H107 H -0.1170 0.7352 0.3130
C36 C -0.1648(18) 0.7911(9) 0.3653(14)
H108 H -0.2217 0.8048 0.3753
H109 H -0.1295 0.8127 0.3375
Sn1B Sn 0.03777(3) 0.470952(18) 0.64894(3)
Sn2B Sn 0.15579(3) 0.469647(18) 0.46442(3)
Sn3B Sn 0.07447(3) 0.579152(17) 0.54354(3)
K1B K 0.41767(12) 0.54769(8) 0.59742(13)
K1B_2 K -0.58233(12) 0.54769(8) 0.59742(13)
K1_2 K 0.58233(12) 0.45231(8) 0.40258(13)
Na1B Na 0.2473(3) 0.36116(16) 0.6681(2)
Na2B Na 0.1621(4) 0.65988(17) 0.3411(3)
B1B B 0.2896(5) 0.4497(3) 0.5427(5)
H1B H 0.2898 0.4619 0.6053
B2B B 0.1944(6) 0.4075(3) 0.3881(6)
H2B H 0.1345 0.3928 0.3522
B3B B 0.2463(5) 0.4630(3) 0.3609(5)
H3B H 0.2189 0.4834 0.3080
B4B B 0.2156(5) 0.5886(3) 0.6176(5)
H4B H 0.2481 0.5553 0.6335
B5B B 0.1042(7) 0.6529(3) 0.4984(6)
H5B H 0.0661 0.6601 0.4391
B6B B 0.3064(5) 0.4893(3) 0.4568(5)
H6B H 0.3179 0.5265 0.4648
B7B B 0.1009(7) 0.4863(4) 0.7802(5)
H7B H 0.1376 0.5192 0.7842
B8B B -0.0583(7) 0.4260(3) 0.7150(5)
H8B H -0.1232 0.4210 0.6772
O1B O 0.4281(8) 0.5349(4) 0.7526(7)
B9B B 0.0497(7) 0.6514(3) 0.5962(6)
H9B H -0.0227 0.6576 0.5986
B10B B 0.1463(7) 0.4330(3) 0.7357(5)
H10B H 0.2118 0.4324 0.7114
B11B B 0.2287(8) 0.6360(4) 0.6851(7)
H11B H 0.2692 0.6317 0.7443
O2B O 0.3596(9) 0.3514(5) 0.7737(8)
O3B O 0.2966(9) 0.6397(5) 0.3056(8)
B12B B 0.3890(6) 0.4494(4) 0.4955(6)
B12B_2 B -0.6110(6) 0.4494(4) 0.4955(6)
B12_2 B 0.6110(6) 0.5506(4) 0.5045(6)
H12B H 0.4520 0.4621 0.5292
H12B_2 H -0.5480 0.4621 0.5292
H12_2 H 0.5480 0.5379 0.4708
B13B B 0.2197(6) 0.3990(3) 0.5005(6)
H13B H 0.1755 0.3792 0.5361
B14B B 0.1392(8) 0.4383(4) 0.8411(6)
H14B H 0.2015 0.4417 0.8831
B15B B 0.2053(7) 0.6145(3) 0.5121(6)
H15B H 0.2312 0.5970 0.4610
B16B B 0.0375(8) 0.4668(4) 0.8595(6)
H16B H 0.0334 0.4887 0.9129
B17B B 0.2998(6) 0.4100(4) 0.3504(6)
H17B H 0.3053 0.3969 0.2892
B18B B 0.3634(6) 0.4575(4) 0.3885(6)
B18B_2 B -0.6366(6) 0.4575(4) 0.3885(6)
B18_2 B 0.6366(6) 0.5425(4) 0.6115(6)
H18B H 0.4096 0.4755 0.3522
H18B_2 H -0.5904 0.4755 0.3522
H18_2 H 0.5904 0.5245 0.6478
B19B B 0.2846(6) 0.3709(3) 0.4311(6)
H19B H 0.2800 0.3334 0.4229
B20B B 0.3406(7) 0.3961(4) 0.5219(6)
H20B H 0.3717 0.3745 0.5719
B21B B 0.1316(7) 0.6721(3) 0.6718(6)
H22B H 0.1090 0.6912 0.7228
B22B B 0.2793(7) 0.6377(4) 0.5917(7)
H23B H 0.3527 0.6342 0.5904
B23B B 0.2145(8) 0.6742(4) 0.5241(7)
H24B H 0.2460 0.6946 0.4793
B24B B -0.0265(7) 0.4813(4) 0.7671(5)
H25B H -0.0707 0.5117 0.7626
B25B B 0.1234(7) 0.6963(3) 0.5727(6)
H26B H 0.0958 0.7310 0.5595
B26B B -0.0544(8) 0.4314(4) 0.8195(6)
H27B H -0.1179 0.4303 0.8471
B27B B 0.0492(7) 0.3959(3) 0.6948(5)
H30B H 0.0533 0.3718 0.6444
B28B B 0.1194(6) 0.6120(3) 0.6688(5)
H31B H 0.0910 0.5933 0.7174
B29B B 0.1094(9) 0.3860(4) 0.7908(6)
H32B H 0.1523 0.3552 0.8000
B30B B 0.2314(7) 0.6879(4) 0.6283(7)
H33B H 0.2738 0.7171 0.6514
O4B O 0.1264(9) 0.7374(5) 0.3184(8)
B31B B 0.0470(8) 0.4062(4) 0.8672(6)
H34B H 0.0498 0.3888 0.9261
O5B O 0.2155(12) 0.2885(6) 0.6292(10)
B32B B 0.3881(6) 0.4019(4) 0.4293(6)
B32B_2 B -0.6119(6) 0.4019(4) 0.4293(6)
B32_2 B 0.6119(6) 0.5981(4) 0.5707(6)
H35B H 0.4509 0.3840 0.4196
H35B_2 H -0.5491 0.3840 0.4196
H35_2 H 0.5491 0.6160 0.5804
B33B B -0.0104(9) 0.3818(4) 0.7779(6)
H40B H -0.0453 0.3485 0.7784
C10B C 0.3568(11) 0.5218(7) 0.8000(9)
H53B H 0.3060 0.5427 0.7896
H54B H 0.3360 0.4909 0.7859
C11B C 0.3024(13) 0.6098(6) 0.2382(11)
H55B H 0.2436 0.5963 0.2219
H56B H 0.3192 0.6277 0.1931
C13B C 0.0942(15) 0.8158(7) 0.3409(11)
H60B H 0.0419 0.8237 0.3676
H61B H 0.1354 0.8418 0.3448
C14B C 0.1399(15) 0.7742(6) 0.3788(12)
H62B H 0.1136 0.7657 0.4273
H63B H 0.2038 0.7800 0.3933
C16B C 0.0664(15) 0.8036(7) 0.2546(11)
H67B H 0.1062 0.8187 0.2207
H68B H 0.0054 0.8145 0.2385
C17B C 0.3675(13) 0.5736(7) 0.2569(11)
H69B H 0.3387 0.5448 0.2683
H70B H 0.4048 0.5691 0.2136
C19B C 0.3938(12) 0.5238(6) 0.8851(10)
H73B H 0.3470 0.5300 0.9196
H74B H 0.4247 0.4955 0.9024
C20B C 0.4273(14) 0.3542(7) 0.9022(12)
H75B H 0.3789 0.3396 0.9271
H76B H 0.4656 0.3707 0.9437
C21B C 0.4777(12) 0.5714(6) 0.8000(9)
H77B H 0.5419 0.5692 0.7959
H78B H 0.4564 0.6015 0.7812
C22B C 0.3846(12) 0.6375(7) 0.3538(12)
H79B H 0.4230 0.6627 0.3406
H80B H 0.3785 0.6385 0.4112
C23B C 0.4802(13) 0.3192(7) 0.8647(11)
H81B H 0.5356 0.3315 0.8480
H82B H 0.4935 0.2925 0.8991
C25B C 0.4209(13) 0.5933(7) 0.3314(11)
H86B H 0.4833 0.5973 0.3215
H87B H 0.4199 0.5718 0.3759
C26B C 0.4587(12) 0.5634(6) 0.8852(10)
H88B H 0.5143 0.5562 0.9192
H89B H 0.4326 0.5908 0.9062
C27B C 0.4103(13) 0.3094(7) 0.7944(12)
H90B H 0.3699 0.2853 0.8085
H91B H 0.4394 0.2990 0.7484
C28B C 0.1566(18) 0.2725(9) 0.5510(14)
H92B H 0.1946 0.2701 0.5077
H93B H 0.1111 0.2958 0.5355
C29B C 0.3873(14) 0.3881(6) 0.8344(11)
H94B H 0.4324 0.4088 0.8171
H95B H 0.3364 0.4056 0.8495
C30B C 0.0703(14) 0.7529(7) 0.2429(11)
H96B H 0.0104 0.7393 0.2382
H97B H 0.0988 0.7452 0.1952
C34B C 0.1125(18) 0.2293(9) 0.5594(15)
H104B H 0.0494 0.2336 0.5664
H105B H 0.1167 0.2098 0.5126
C35B C 0.1758(18) 0.2541(8) 0.6755(15)
H106B H 0.2133 0.2502 0.7268
H107B H 0.1170 0.2648 0.6870
C36B C 0.1648(18) 0.2089(9) 0.6347(14)
H108B H 0.2217 0.1952 0.6247
H109B H 0.1295 0.1873 0.6625
N1 N 0.9312(5) 0.6284(3) 0.8713(6)
H21 H 0.9229 0.6469 0.9139
C1 C 0.9449(8) 0.6587(5) 0.8001(7)
H28 H 0.9984 0.6774 0.8141
H29 H 0.9560 0.6393 0.7549
C2 C 1.0124(7) 0.5981(5) 0.8959(7)
H36 H 0.9973 0.5767 0.9369
H37 H 1.0250 0.5802 0.8494
C3 C 1.0960(8) 0.6235(6) 0.9280(8)
H38 H 1.0824 0.6445 0.9702
H39 H 1.1173 0.6415 0.8850
C4 C 0.8673(10) 0.6896(5) 0.7738(8)
H41 H 0.8440 0.7023 0.8211
H42 H 0.8194 0.6719 0.7437
C5 C 0.8472(7) 0.6008(4) 0.8506(7)
H43 H 0.7968 0.6219 0.8395
H44 H 0.8527 0.5839 0.8011
C6 C 0.8259(9) 0.5680(8) 0.9127(10)
H45 H 0.8369 0.5828 0.9652
H46 H 0.8668 0.5421 0.9129
C7 C 0.8950(13) 0.7291(6) 0.7207(9)
H47 H 0.9245 0.7164 0.6768
H48 H 0.9382 0.7486 0.7527
C8 C 1.1698(8) 0.5901(6) 0.9622(8)
H49 H 1.1856 0.5701 0.9194
H50 H 1.1474 0.5711 1.0033
C9 C 0.7306(9) 0.5504(8) 0.9014(13)
H51 H 0.6930 0.5715 0.9278
H52 H 0.7092 0.5507 0.8441
C12 C 0.8135(14) 0.7584(6) 0.6853(10)
H57 H 0.8340 0.7826 0.6525
H58 H 0.7848 0.7716 0.7285
H59 H 0.7711 0.7393 0.6526
C15 C 1.2540(12) 0.6160(9) 0.9992(12)
H64 H 1.2996 0.5944 1.0198
H65 H 1.2387 0.6352 1.0425
H66 H 1.2764 0.6348 0.9585
C24 C 0.7182(18) 0.5036(7) 0.9330(17)
H83 H 0.6560 0.4947 0.9212
H84 H 0.7348 0.5034 0.9905
H85 H 0.7556 0.4824 0.9079
O6 O 0.9222(12) 0.7080(6) 0.9727(10)
C18 C 0.8670(16) 0.7114(10) 1.0425(13)
H71 H 0.8141 0.7309 1.0315
H72 H 0.8508 0.6818 1.0634
C31 C 0.9438(17) 0.7342(9) 1.0929(15)
H98 H 0.9885 0.7114 1.1129
H99 H 0.9223 0.7494 1.1388
C32 C 0.9853(18) 0.7690(9) 1.0410(14)
H100 H 0.9506 0.7973 1.0371
H101 H 1.0470 0.7759 1.0630
C33 C 0.9826(17) 0.7467(8) 0.9615(14)
H102 H 0.9576 0.7669 0.9181
H103 H 1.0420 0.7363 0.9510
loop_
_geom_bond_atom_site_label_1
_geom_bond_atom_site_label_2
_geom_bond_site_symmetry_1
_geom_bond_site_symmetry_2
Pt1 Sn1 1_555 1_555
Sn1 B7 1_555 1_555
Sn2 Pt1 1_555 1_555
Sn3 Pt1 1_555 1_555
K1 B1 1_555 1_555
Na1 B10 1_555 1_555
Na2 B5 1_555 1_555
B1 Sn2 1_555 1_555
H1 B1 1_555 1_555
B2 Sn2 1_555 1_555
H2 B2 1_555 1_555
B3 Sn2 1_555 1_555
H3 B3 1_555 1_555
B4 Sn3 1_555 1_555
H4 B4 1_555 1_555
B5 Sn3 1_555 1_555
H5 B5 1_555 1_555
B6 Sn2 1_555 1_555
H6 B6 1_555 1_555
B7 H7 1_555 1_555
B8 Sn1 1_555 1_555
H8 B8 1_555 1_555
O1 K1 1_555 1_555
B9 Sn3 1_555 1_555
H9 B9 1_555 1_555
B10 Sn1 1_555 1_555
H10 B10 1_555 1_555
B11 B4 1_555 1_555
H11 B11 1_555 1_555
O2 Na1 1_555 1_555
O3 Na2 1_555 1_555
B12 K1 1_555 1_555
H12 B12 1_555 1_555
B13 Sn2 1_555 1_555
H13 B13 1_555 1_555
B14 B7 1_555 1_555
H14 B14 1_555 1_555
B15 Sn3 1_555 1_555
H15 B15 1_555 1_555
B16 B7 1_555 1_555
H16 B16 1_555 1_555
B17 B2 1_555 1_555
H17 B17 1_555 1_555
B18 B3 1_555 1_555
H18 B18 1_555 1_555
B19 B2 1_555 1_555
H19 B19 1_555 1_555
B20 Na1 1_555 1_555
H20 B20 1_555 1_555
N1 H21 1_555 1_555
B21 B9 1_555 1_555
H22 B21 1_555 1_555
B22 K1 1_555 1_555
H23 B22 1_555 1_555
B23 Na2 1_555 1_555
H24 B23 1_555 1_555
B24 Sn1 1_555 1_555
H25 B24 1_555 1_555
B25 B5 1_555 1_555
H26 B25 1_555 1_555
B26 B8 1_555 1_555
H27 B26 1_555 1_555
C1 N1 1_555 1_555
H28 C1 1_555 1_555
H29 C1 1_555 1_555
B27 Sn1 1_555 1_555
H30 B27 1_555 1_555
B28 Sn3 1_555 1_555
H31 B28 1_555 1_555
B29 Na1 1_555 1_555
H32 B29 1_555 1_555
B30 B11 1_555 1_555
H33 B30 1_555 1_555
O4 Na2 1_555 1_555
B31 B14 1_555 1_555
H34 B31 1_555 1_555
O5 Na1 1_555 1_555
B32 B12 1_555 1_555
H35 B32 1_555 1_555
C2 N1 1_555 1_555
H36 C2 1_555 1_555
H37 C2 1_555 1_555
C3 C2 1_555 1_555
H38 C3 1_555 1_555
H39 C3 1_555 1_555
B33 B8 1_555 1_555
H40 B33 1_555 1_555
C4 C1 1_555 1_555
H41 C4 1_555 1_555
H42 C4 1_555 1_555
C5 N1 1_555 1_555
H43 C5 1_555 1_555
H44 C5 1_555 1_555
C6 C5 1_555 1_555
H45 C6 1_555 1_555
H46 C6 1_555 1_555
C7 C4 1_555 1_555
H47 C7 1_555 1_555
H48 C7 1_555 1_555
C8 C3 1_555 1_555
H49 C8 1_555 1_555
H50 C8 1_555 1_555
C9 C6 1_555 1_555
H51 C9 1_555 1_555
H52 C9 1_555 1_555
C10 O1 1_555 1_555
H53 C10 1_555 1_555
H54 C10 1_555 1_555
C11 O3 1_555 1_555
H55 C11 1_555 1_555
H56 C11 1_555 1_555
C12 C7 1_555 1_555
H57 C12 1_555 1_555
H58 C12 1_555 1_555
H59 C12 1_555 1_555
C13 H60 1_555 1_555
H61 C13 1_555 1_555
C14 O4 1_555 1_555
H62 C14 1_555 1_555
H63 C14 1_555 1_555
C15 C8 1_555 1_555
H64 C15 1_555 1_555
H65 C15 1_555 1_555
H66 C15 1_555 1_555
C16 C13 1_555 1_555
H67 C16 1_555 1_555
H68 C16 1_555 1_555
C17 C11 1_555 1_555
H69 C17 1_555 1_555
H70 C17 1_555 1_555
O6 C18 1_555 1_555
C18 H71 1_555 1_555
H72 C18 1_555 1_555
C19 C10 1_555 1_555
H73 C19 1_555 1_555
H74 C19 1_555 1_555
C20 H75 1_555 1_555
H76 C20 1_555 1_555
C21 O1 1_555 1_555
H77 C21 1_555 1_555
H78 C21 1_555 1_555
C22 O3 1_555 1_555
H79 C22 1_555 1_555
H80 C22 1_555 1_555
C23 C20 1_555 1_555
H81 C23 1_555 1_555
H82 C23 1_555 1_555
C24 C9 1_555 1_555
H83 C24 1_555 1_555
H84 C24 1_555 1_555
H85 C24 1_555 1_555
C25 C17 1_555 1_555
H86 C25 1_555 1_555
H87 C25 1_555 1_555
C26 C19 1_555 1_555
H88 C26 1_555 1_555
H89 C26 1_555 1_555
C27 O2 1_555 1_555
H90 C27 1_555 1_555
H91 C27 1_555 1_555
C28 O5 1_555 1_555
H92 C28 1_555 1_555
H93 C28 1_555 1_555
C29 O2 1_555 1_555
H94 C29 1_555 1_555
H95 C29 1_555 1_555
C30 O4 1_555 1_555
H96 C30 1_555 1_555
H97 C30 1_555 1_555
C31 C18 1_555 1_555
H98 C31 1_555 1_555
H99 C31 1_555 1_555
C32 C31 1_555 1_555
H100 C32 1_555 1_555
H101 C32 1_555 1_555
C33 O6 1_555 1_555
H102 C33 1_555 1_555
H103 C33 1_555 1_555
C34 C28 1_555 1_555
H104 C34 1_555 1_555
H105 C34 1_555 1_555
C35 O5 1_555 1_555
H106 C35 1_555 1_555
H107 C35 1_555 1_555
C36 C34 1_555 1_555
H108 C36 1_555 1_555
H109 C36 1_555 1_555
Sn1B Pt1 1_555 1_555
Sn2B Pt1 1_555 1_555
Sn3B Pt1 1_555 1_555
K1B B1B 1_555 1_555
K1B_2 B12 1_555 1_555
K1_2 B12B 1_555 1_555
Na1B B10B 1_555 1_555
Na2B B8 1_555 1_555
B1B Sn2B 1_555 1_555
H1B B1B 1_555 1_555
B2B Sn2B 1_555 1_555
H2B B2B 1_555 1_555
B3B Sn2B 1_555 1_555
H3B B3B 1_555 1_555
B4B Sn3B 1_555 1_555
H4B B4B 1_555 1_555
B5B Sn3B 1_555 1_555
H5B B5B 1_555 1_555
B6B Sn2B 1_555 1_555
H6B B6B 1_555 1_555
B7B Sn1B 1_555 1_555
H7B B7B 1_555 1_555
B8B Na2 1_555 1_555
H8B B8B 1_555 1_555
O1B K1B 1_555 1_555
B9B Sn3B 1_555 1_555
H9B B9B 1_555 1_555
B10B Sn1B 1_555 1_555
H10B B10B 1_555 1_555
B11B B4B 1_555 1_555
H11B B11B 1_555 1_555
O2B Na1B 1_555 1_555
O3B Na2B 1_555 1_555
B12B K1B 1_555 1_555
B12B_2 K1 1_555 1_555
B12_2 K1B 1_555 1_555
H12B B12B 1_555 1_555
H12B_2 B12B_2 1_555 1_555
H12_2 B12_2 1_555 1_555
B13B Sn2B 1_555 1_555
H13B B13B 1_555 1_555
B14B B7B 1_555 1_555
H14B B14B 1_555 1_555
B15B Sn3B 1_555 1_555
H15B B15B 1_555 1_555
B16B B7B 1_555 1_555
H16B B16B 1_555 1_555
B17B B2B 1_555 1_555
H17B B17B 1_555 1_555
B18B K1_2 1_555 1_555
B18B_2 K1 1_555 1_555
B18_2 K1B 1_555 1_555
H18B B18B 1_555 1_555
H18B_2 B18B_2 1_555 1_555
H18_2 B18_2 1_555 1_555
B19B B2B 1_555 1_555
H19B B19B 1_555 1_555
B20B Na1B 1_555 1_555
H20B B20B 1_555 1_555
B21B B9B 1_555 1_555
H22B B21B 1_555 1_555
B22B K1B 1_555 1_555
H23B B22B 1_555 1_555
B23B Na2B 1_555 1_555
H24B B23B 1_555 1_555
B24B Sn1B 1_555 1_555
H25B B24B 1_555 1_555
B25B B5B 1_555 1_555
H26B B25B 1_555 1_555
B26B B8B 1_555 1_555
H27B B26B 1_555 1_555
B27B Sn1B 1_555 1_555
H30B B27B 1_555 1_555
B28B Sn3B 1_555 1_555
H31B B28B 1_555 1_555
B29B Na1B 1_555 1_555
H32B B29B 1_555 1_555
B30B B11B 1_555 1_555
H33B B30B 1_555 1_555
O4B Na2B 1_555 1_555
B31B B14B 1_555 1_555
H34B B31B 1_555 1_555
O5B Na1B 1_555 1_555
B32B K1_2 1_555 1_555
B32B_2 K1 1_555 1_555
B32_2 K1B 1_555 1_555
H35B B32B 1_555 1_555
H35B_2 B32B_2 1_555 1_555
H35_2 B32_2 1_555 1_555
B33B Na2 1_555 1_555
H40B B33B 1_555 1_555
C10B O1B 1_555 1_555
H53B C10B 1_555 1_555
H54B C10B 1_555 1_555
C11B O3B 1_555 1_555
H55B C11B 1_555 1_555
H56B C11B 1_555 1_555
C13B H60B 1_555 1_555
H61B C13B 1_555 1_555
C14B O4B 1_555 1_555
H62B C14B 1_555 1_555
H63B C14B 1_555 1_555
C16B C13B 1_555 1_555
H67B C16B 1_555 1_555
H68B C16B 1_555 1_555
C17B C11B 1_555 1_555
H69B C17B 1_555 1_555
H70B C17B 1_555 1_555
C19B C10B 1_555 1_555
H73B C19B 1_555 1_555
H74B C19B 1_555 1_555
C20B H75B 1_555 1_555
H76B C20B 1_555 1_555
C21B O1B 1_555 1_555
H77B C21B 1_555 1_555
H78B C21B 1_555 1_555
C22B O3B 1_555 1_555
H79B C22B 1_555 1_555
H80B C22B 1_555 1_555
C23B C20B 1_555 1_555
H81B C23B 1_555 1_555
H82B C23B 1_555 1_555
C25B C17B 1_555 1_555
H86B C25B 1_555 1_555
H87B C25B 1_555 1_555
C26B C19B 1_555 1_555
H88B C26B 1_555 1_555
H89B C26B 1_555 1_555
C27B O2B 1_555 1_555
H90B C27B 1_555 1_555
H91B C27B 1_555 1_555
C28B O5B 1_555 1_555
H92B C28B 1_555 1_555
H93B C28B 1_555 1_555
C29B O2B 1_555 1_555
H94B C29B 1_555 1_555
H95B C29B 1_555 1_555
C30B O4B 1_555 1_555
H96B C30B 1_555 1_555
H97B C30B 1_555 1_555
C34B C28B 1_555 1_555
H104B C34B 1_555 1_555
H105B C34B 1_555 1_555
C35B O5B 1_555 1_555
H106B C35B 1_555 1_555
H107B C35B 1_555 1_555
C36B C34B 1_555 1_555
H108B C36B 1_555 1_555
H109B C36B 1_555 1_555
K1 B4 1_555 1_555
K1 B6 1_555 1_555
Na1 B13 1_555 1_555
Na2 B15 1_555 1_555
B1 B6 1_555 1_555
B1 B12 1_555 1_555
B1 B13 1_555 1_555
B1 B20 1_555 1_555
B2 B3 1_555 1_555
B2 B13 1_555 1_555
B3 B6 1_555 1_555
B3 B17 1_555 1_555
B4 B15 1_555 1_555
B4 B22 1_555 1_555
B4 B28 1_555 1_555
B5 B9 1_555 1_555
B5 B15 1_555 1_555
B5 B23 1_555 1_555
B6 B12 1_555 1_555
B6 B18 1_555 1_555
B7 B10 1_555 1_555
B7 B24 1_555 1_555
B8 B24 1_555 1_555
B8 B27 1_555 1_555
B9 B25 1_555 1_555
B9 B28 1_555 1_555
B10 B14 1_555 1_555
B10 B27 1_555 1_555
B10 B29 1_555 1_555
B11 B21 1_555 1_555
B11 B22 1_555 1_555
B11 B28 1_555 1_555
B12 B18 1_555 1_555
B12 B20 1_555 1_555
B13 B19 1_555 1_555
B13 B20 1_555 1_555
B14 B16 1_555 1_555
B14 B29 1_555 1_555
B15 B22 1_555 1_555
B15 B23 1_555 1_555
B16 B24 1_555 1_555
B16 B26 1_555 1_555
B16 B31 1_555 1_555
B17 B18 1_555 1_555
B17 B19 1_555 1_555
B17 B32 1_555 1_555
B18 B32 1_555 1_555
B18 K1B_2 1_555 1_555
B19 B20 1_555 1_555
B19 B32 1_555 1_555
B20 B32 1_555 1_555
B21 B25 1_555 1_555
B21 B28 1_555 1_555
B21 B30 1_555 1_555
B22 B23 1_555 1_555
B22 B30 1_555 1_555
B23 B25 1_555 1_555
B23 B30 1_555 1_555
B24 B26 1_555 1_555
B25 B30 1_555 1_555
B26 B31 1_555 1_555
B26 B33 1_555 1_555
B27 B29 1_555 1_555
B27 B33 1_555 1_555
B29 B31 1_555 1_555
B29 B33 1_555 1_555
B31 B33 1_555 1_555
B32 K1B_2 1_555 1_555
B33 Na2B 1_555 1_555
C13 C14 1_555 1_555
C16 C30 1_555 1_555
C20 C29 1_555 1_555
C21 C26 1_555 1_555
C22 C25 1_555 1_555
C23 C27 1_555 1_555
C32 C33 1_555 1_555
C35 C36 1_555 1_555
Sn1B B8B 1_555 1_555
K1B B4B 1_555 1_555
K1B B6B 1_555 1_555
K1B_2 B12B_2 1_555 1_555
K1_2 B12_2 1_555 1_555
Na1B B13B 1_555 1_555
Na2B B5B 1_555 1_555
Na2B B15B 1_555 1_555
B1B B6B 1_555 1_555
B1B B12B 1_555 1_555
B1B B13B 1_555 1_555
B1B B20B 1_555 1_555
B2B B3B 1_555 1_555
B2B B13B 1_555 1_555
B3B B6B 1_555 1_555
B3B B17B 1_555 1_555
B3B B18B 1_555 1_555
B4B B15B 1_555 1_555
B4B B22B 1_555 1_555
B4B B28B 1_555 1_555
B5B B9B 1_555 1_555
B5B B15B 1_555 1_555
B5B B23B 1_555 1_555
B6B B12B 1_555 1_555
B6B B18B 1_555 1_555
B7B B10B 1_555 1_555
B7B B24B 1_555 1_555
B8B B24B 1_555 1_555
B8B B27B 1_555 1_555
B8B B33B 1_555 1_555
B9B B25B 1_555 1_555
B9B B28B 1_555 1_555
B10B B14B 1_555 1_555
B10B B27B 1_555 1_555
B10B B29B 1_555 1_555
B11B B21B 1_555 1_555
B11B B22B 1_555 1_555
B11B B28B 1_555 1_555
B12B B18B 1_555 1_555
B12B B20B 1_555 1_555
B12B B32B 1_555 1_555
B12B_2 B18B_2 1_555 1_555
B12B_2 B32B_2 1_555 1_555
B12_2 B18_2 1_555 1_555
B12_2 B32_2 1_555 1_555
B13B B19B 1_555 1_555
B13B B20B 1_555 1_555
B14B B16B 1_555 1_555
B14B B29B 1_555 1_555
B15B B22B 1_555 1_555
B15B B23B 1_555 1_555
B16B B24B 1_555 1_555
B16B B26B 1_555 1_555
B16B B31B 1_555 1_555
B17B B18B 1_555 1_555
B17B B19B 1_555 1_555
B17B B32B 1_555 1_555
B18B B32B 1_555 1_555
B18B_2 B32B_2 1_555 1_555
B18_2 B32_2 1_555 1_555
B19B B20B 1_555 1_555
B19B B32B 1_555 1_555
B20B B32B 1_555 1_555
B21B B25B 1_555 1_555
B21B B28B 1_555 1_555
B21B B30B 1_555 1_555
B22B B23B 1_555 1_555
B22B B30B 1_555 1_555
B23B B25B 1_555 1_555
B23B B30B 1_555 1_555
B24B B26B 1_555 1_555
B25B B30B 1_555 1_555
B26B B31B 1_555 1_555
B26B B33B 1_555 1_555
B27B B29B 1_555 1_555
B27B B33B 1_555 1_555
B29B B31B 1_555 1_555
B29B B33B 1_555 1_555
B31B B33B 1_555 1_555
C13B C14B 1_555 1_555
C16B C30B 1_555 1_555
C20B C29B 1_555 1_555
C21B C26B 1_555 1_555
C22B C25B 1_555 1_555
C23B C27B 1_555 1_555
C35B C36B 1_555 1_555

#END
