
#######################################################################
#
#                 Cambridge Crystallographic Data Centre
#                                CCDC 
#
#######################################################################
#
# If this CIF has been generated from an entry in the Cambridge 
# Structural Database, then it will include bibliographic, chemical, 
# crystal, experimental, refinement or atomic coordinate data resulting 
# from the CCDC's data processing and validation procedures.
#
#######################################################################

data_MIWDOM01
_symmetry_cell_setting           triclinic
_symmetry_space_group_name_H-M   'P -1'
_symmetry_Int_Tables_number      2
_space_group_name_Hall           '-P 1'
loop_
_symmetry_equiv_pos_site_id
_symmetry_equiv_pos_as_xyz
1 x,y,z
2 -x,-y,-z
_cell_length_a                   6.8908(3)
_cell_length_b                   7.0438(4)
_cell_length_c                   21.3389(8)
_cell_angle_alpha                92.188(3)
_cell_angle_beta                 93.132(3)
_cell_angle_gamma                99.964(3)
_cell_volume                     1017.39
loop_
_atom_site_label
_atom_site_type_symbol
_atom_site_fract_x
_atom_site_fract_y
_atom_site_fract_z
Cu1 Cu 0.82030(2) 0.66995(3) 0.740619(8)
N1 N 0.78958(19) 0.57029(18) 0.65130(6)
S1 S 0.75994(5) 0.33769(5) 0.635844(16)
C1 C 0.7448(2) 0.3514(2) 0.55354(7)
C2 C 0.7172(2) 0.2006(2) 0.50816(7)
H1 H 0.7062 0.0698 0.5191
C3 C 0.7066(2) 0.2520(2) 0.44556(7)
H2 H 0.6854 0.1538 0.4129
C4 C 0.7264(2) 0.4453(2) 0.43007(7)
H3 H 0.7200 0.4761 0.3871
C5 C 0.7558(2) 0.5946(2) 0.47692(7)
H4 H 0.7702 0.7259 0.4664
C6 C 0.7632(2) 0.5442(2) 0.53947(7)
C7 C 0.7894(2) 0.6752(2) 0.59785(7)
O1 O 0.80717(19) 0.85076(17) 0.59882(6)
O2 O 0.57636(17) 0.23904(17) 0.65803(6)
O3 O 0.93541(17) 0.26578(16) 0.65800(5)
N2 N 0.82202(18) 0.62732(18) 0.83319(6)
S2 S 0.80368(5) 0.79341(5) 0.887106(17)
C8 C 0.7731(2) 0.6370(2) 0.94959(7)
C9 C 0.7524(2) 0.6813(2) 1.01246(7)
H5 H 0.7567 0.8103 1.0279
C10 C 0.7249(2) 0.5259(3) 1.05197(7)
H6 H 0.7095 0.5493 1.0954
C11 C 0.7196(2) 0.3370(3) 1.02856(8)
H7 H 0.6997 0.2340 1.0563
C12 C 0.7433(2) 0.2966(2) 0.96498(8)
H8 H 0.7416 0.1683 0.9493
C13 C 0.7692(2) 0.4501(2) 0.92549(7)
C14 C 0.7976(2) 0.4453(2) 0.85618(7)
O4 O 0.79878(18) 0.29914(17) 0.82290(6)
O5 O 0.62642(17) 0.87376(17) 0.87415(6)
O6 O 0.98517(18) 0.93239(17) 0.89637(6)
N3 N 1.11850(18) 0.66905(18) 0.74128(6)
C15 C 1.1971(2) 0.5178(2) 0.76126(7)
H9 H 1.1134 0.4101 0.7765
C16 C 1.3990(2) 0.5169(2) 0.75986(7)
H10 H 1.4504 0.4082 0.7740
N4 N 1.52234(18) 0.66718(18) 0.73886(6)
C17 C 1.4433(2) 0.8166(2) 0.71797(7)
H11 H 1.5265 0.9235 0.7021
C18 C 1.2415(2) 0.8171(2) 0.71920(7)
H12 H 1.1898 0.9245 0.7041
O7 O 0.87942(16) 0.98622(16) 0.74704(6)
H13 H 0.886(3) 1.049(3) 0.7164(12)
H14 H 0.842(3) 1.055(3) 0.7760(11)
Cu1_2 Cu 1.82030(2) 0.66995(3) 0.740619(8)
N4_2 N 0.52234(18) 0.66718(18) 0.73886(6)
O8 O 1.3369(2) 1.1356(2) 0.83675(7)
H15 H 1.427(4) 1.072(4) 0.8462(13)
H16 H 1.237(4) 1.068(4) 0.8482(13)
loop_
_geom_bond_atom_site_label_1
_geom_bond_atom_site_label_2
_geom_bond_site_symmetry_1
_geom_bond_site_symmetry_2
Cu1 N1 1_555 1_555
N1 S1 1_555 1_555
S1 C1 1_555 1_555
C1 C2 1_555 1_555
C2 H1 1_555 1_555
C3 C2 1_555 1_555
H2 C3 1_555 1_555
C4 C3 1_555 1_555
H3 C4 1_555 1_555
C5 C4 1_555 1_555
H4 C5 1_555 1_555
C6 C1 1_555 1_555
C7 N1 1_555 1_555
O1 C7 1_555 1_555
O2 S1 1_555 1_555
O3 S1 1_555 1_555
N2 Cu1 1_555 1_555
S2 N2 1_555 1_555
C8 S2 1_555 1_555
C9 C8 1_555 1_555
H5 C9 1_555 1_555
C10 C9 1_555 1_555
H6 C10 1_555 1_555
C11 C10 1_555 1_555
H7 C11 1_555 1_555
C12 C11 1_555 1_555
H8 C12 1_555 1_555
C13 C8 1_555 1_555
C14 N2 1_555 1_555
O4 C14 1_555 1_555
O5 S2 1_555 1_555
O6 S2 1_555 1_555
N3 Cu1 1_555 1_555
C15 N3 1_555 1_555
H9 C15 1_555 1_555
C16 C15 1_555 1_555
H10 C16 1_555 1_555
N4 C16 1_555 1_555
C17 N4 1_555 1_555
H11 C17 1_555 1_555
C18 N3 1_555 1_555
H12 C18 1_555 1_555
O7 Cu1 1_555 1_555
H13 O7 1_555 1_555
H14 O7 1_555 1_555
O8 H15 1_555 1_555
H16 O8 1_555 1_555
Cu1_2 N4 1_555 1_555
N4_2 Cu1 1_555 1_555
C5 C6 1_555 1_555
C6 C7 1_555 1_555
C12 C13 1_555 1_555
C13 C14 1_555 1_555
C17 C18 1_555 1_555

#END
