
#######################################################################
#
#                 Cambridge Crystallographic Data Centre
#                                CCDC 
#
#######################################################################
#
# If this CIF has been generated from an entry in the Cambridge 
# Structural Database, then it will include bibliographic, chemical, 
# crystal, experimental, refinement or atomic coordinate data resulting 
# from the CCDC's data processing and validation procedures.
#
#######################################################################

data_MIWGOP
_symmetry_cell_setting           monoclinic
_symmetry_space_group_name_H-M   'P 21/c'
_symmetry_Int_Tables_number      14
_space_group_name_Hall           '-P 2ybc'
loop_
_symmetry_equiv_pos_site_id
_symmetry_equiv_pos_as_xyz
1 x,y,z
2 -x,1/2+y,1/2-z
3 -x,-y,-z
4 x,1/2-y,1/2+z
_cell_length_a                   10.2391(17)
_cell_length_b                   11.704(2)
_cell_length_c                   10.3118(17)
_cell_angle_alpha                90
_cell_angle_beta                 92.359(3)
_cell_angle_gamma                90
_cell_volume                     1234.7
loop_
_atom_site_label
_atom_site_type_symbol
_atom_site_fract_x
_atom_site_fract_y
_atom_site_fract_z
Mg1 Mg -0.24776(6) 0.02256(6) 0.23178(6)
O1 O -0.37912(12) -0.01356(11) 0.07236(12)
O2 O -0.90288(12) -0.00870(11) -0.09526(12)
C1 C -0.1121(2) -0.12775(17) 0.3703(2)
H1 H -0.0292 -0.1181 0.3336
C2 C -0.1408(2) -0.10891(17) 0.4995(2)
H2 H -0.0807 -0.0840 0.5662
C3 C -0.2722(2) -0.13287(18) 0.5139(2)
H3 H -0.3171 -0.1273 0.5924
C4 C -0.3269(2) -0.16624(18) 0.3948(2)
H4 H -0.4156 -0.1872 0.3779
C5 C -0.2287(2) -0.16382(18) 0.3032(2)
H5 H -0.2385 -0.1827 0.2138
C6 C -0.4057(2) 0.16775(19) 0.2884(2)
H6 H -0.4956 0.1573 0.2649
C7 C -0.3153(3) 0.22387(18) 0.2153(2)
H7 H -0.3324 0.2587 0.1331
C8 C -0.2141(2) 0.1611(2) 0.4003(2)
H8 H -0.1495 0.1457 0.4667
C9 C -0.1944(3) 0.2204(2) 0.2833(3)
H9 H -0.1145 0.2519 0.2562
C10 C -0.3436(2) 0.12968(19) 0.4006(2)
H10 H -0.3835 0.0883 0.4677
C11 C -0.9148(2) 0.09270(17) -0.01501(19)
H11 H -0.8280 0.1288 -0.0006
H12 H -0.9736 0.1486 -0.0597
C12 C -0.96905(19) 0.05995(18) 0.1132(2)
H13 H -1.0909 -0.0052 -0.1582
H14 H -1.0249 -0.1288 -0.1685
C13 C -0.48278(19) -0.09708(17) 0.0772(2)
H15 H -0.4800 -0.1338 0.1638
H16 H -0.4690 -0.1572 0.0116
C14 C -0.3858(2) 0.04353(17) -0.05192(18)
H17 H -0.3689 -0.0123 -0.1214
H18 H -0.3174 0.1032 -0.0535
Mg1B Mg -0.75224(6) -0.02256(6) -0.23178(6)
Mg1_2 Mg -1.24776(6) 0.02256(6) 0.23178(6)
O1B O -0.62088(12) 0.01356(11) -0.07236(12)
O2B O -0.09712(12) 0.00870(11) 0.09526(12)
O2B_2 O -1.09712(12) 0.00870(11) 0.09526(12)
C1B C -0.8879(2) 0.12775(17) -0.3703(2)
H1B H -0.9708 0.1181 -0.3336
C2B C -0.8592(2) 0.10891(17) -0.4995(2)
H2B H -0.9193 0.0840 -0.5662
C3B C -0.7278(2) 0.13287(18) -0.5139(2)
H3B H -0.6829 0.1273 -0.5924
C4B C -0.6731(2) 0.16624(18) -0.3948(2)
H4B H -0.5844 0.1872 -0.3779
C5B C -0.7713(2) 0.16382(18) -0.3032(2)
H5B H -0.7615 0.1827 -0.2138
C6B C -0.5943(2) -0.16775(19) -0.2884(2)
H6B H -0.5044 -0.1573 -0.2649
C7B C -0.6847(3) -0.22387(18) -0.2153(2)
H7B H -0.6676 -0.2587 -0.1331
C8B C -0.7859(2) -0.1611(2) -0.4003(2)
H8B H -0.8505 -0.1457 -0.4667
C9B C -0.8056(3) -0.2204(2) -0.2833(3)
H9B H -0.8855 -0.2519 -0.2562
C10B C -0.6564(2) -0.12968(19) -0.4006(2)
H10B H -0.6165 -0.0883 -0.4677
C11B C -1.0852(2) -0.09270(17) 0.01501(19)
H11B H -1.1720 -0.1288 0.0006
H12B H -1.0264 -0.1486 0.0597
C12B C -1.03095(19) -0.05995(18) -0.1132(2)
H13B H -0.9091 0.0052 0.1582
H14B H -0.9751 0.1288 0.1685
C13B C -0.51722(19) 0.09708(17) -0.0772(2)
H15B H -0.5200 0.1338 -0.1638
H16B H -0.5310 0.1572 -0.0116
C14B C -0.6142(2) -0.04353(17) 0.05192(18)
H17B H -0.6311 0.0123 0.1214
H18B H -0.6826 -0.1032 0.0535
loop_
_geom_bond_atom_site_label_1
_geom_bond_atom_site_label_2
_geom_bond_site_symmetry_1
_geom_bond_site_symmetry_2
Mg1 O1 1_555 1_555
O1 C13 1_555 1_555
O2 C11 1_555 1_555
C1 Mg1 1_555 1_555
H1 C1 1_555 1_555
C2 C1 1_555 1_555
H2 C2 1_555 1_555
C3 C2 1_555 1_555
H3 C3 1_555 1_555
C4 C3 1_555 1_555
H4 C4 1_555 1_555
C5 Mg1 1_555 1_555
H5 C5 1_555 1_555
C6 Mg1 1_555 1_555
H6 C6 1_555 1_555
C7 Mg1 1_555 1_555
H7 C7 1_555 1_555
C8 Mg1 1_555 1_555
H8 C8 1_555 1_555
C9 Mg1 1_555 1_555
H9 C9 1_555 1_555
C10 Mg1 1_555 1_555
H10 C10 1_555 1_555
C11 H11 1_555 1_555
H12 C11 1_555 1_555
C12 C11 1_555 1_555
H13 C12B 1_555 1_555
H14 C12B 1_555 1_555
C13 H15 1_555 1_555
H16 C13 1_555 1_555
C14 O1 1_555 1_555
H17 C14 1_555 1_555
H18 C14 1_555 1_555
Mg1B O2 1_555 1_555
Mg1_2 O2B_2 1_555 1_555
O1B Mg1B 1_555 1_555
O2B Mg1 1_555 1_555
O2B_2 C12 1_555 1_555
C1B Mg1B 1_555 1_555
H1B C1B 1_555 1_555
C2B C1B 1_555 1_555
H2B C2B 1_555 1_555
C3B C2B 1_555 1_555
H3B C3B 1_555 1_555
C4B C3B 1_555 1_555
H4B C4B 1_555 1_555
C5B Mg1B 1_555 1_555
H5B C5B 1_555 1_555
C6B Mg1B 1_555 1_555
H6B C6B 1_555 1_555
C7B Mg1B 1_555 1_555
H7B C7B 1_555 1_555
C8B Mg1B 1_555 1_555
H8B C8B 1_555 1_555
C9B Mg1B 1_555 1_555
H9B C9B 1_555 1_555
C10B Mg1B 1_555 1_555
H10B C10B 1_555 1_555
C11B O2B_2 1_555 1_555
H11B C11B 1_555 1_555
H12B C11B 1_555 1_555
C12B O2 1_555 1_555
H13B C12 1_555 1_555
H14B C12 1_555 1_555
C13B C14 1_555 1_555
H15B C13B 1_555 1_555
H16B C13B 1_555 1_555
C14B C13 1_555 1_555
H17B C14B 1_555 1_555
H18B C14B 1_555 1_555
C1 C5 1_555 1_555
C4 C5 1_555 1_555
C6 C7 1_555 1_555
C6 C10 1_555 1_555
C7 C9 1_555 1_555
C8 C9 1_555 1_555
C8 C10 1_555 1_555
O1B C13B 1_555 1_555
O1B C14B 1_555 1_555
C1B C5B 1_555 1_555
C4B C5B 1_555 1_555
C6B C7B 1_555 1_555
C6B C10B 1_555 1_555
C7B C9B 1_555 1_555
C8B C9B 1_555 1_555
C8B C10B 1_555 1_555
C11B C12B 1_555 1_555

#END
