
#######################################################################
#
#                 Cambridge Crystallographic Data Centre
#                                CCDC 
#
#######################################################################
#
# If this CIF has been generated from an entry in the Cambridge 
# Structural Database, then it will include bibliographic, chemical, 
# crystal, experimental, refinement or atomic coordinate data resulting 
# from the CCDC's data processing and validation procedures.
#
#######################################################################

data_MIWHUW
_symmetry_cell_setting           triclinic
_symmetry_space_group_name_H-M   'P -1'
_symmetry_Int_Tables_number      2
_space_group_name_Hall           '-P 1'
loop_
_symmetry_equiv_pos_site_id
_symmetry_equiv_pos_as_xyz
1 x,y,z
2 -x,-y,-z
_cell_length_a                   8.9429(4)
_cell_length_b                   9.1554(4)
_cell_length_c                   10.8933(5)
_cell_angle_alpha                93.036(2)
_cell_angle_beta                 110.662(2)
_cell_angle_gamma                111.063(2)
_cell_volume                     762.086
loop_
_atom_site_label
_atom_site_type_symbol
_atom_site_fract_x
_atom_site_fract_y
_atom_site_fract_z
Ag1 Ag 0.832480(19) 0.549160(18) -0.398480(15)
I1 I -0.051630(16) -1.190960(14) -0.178910(12)
I2 I 0.943050(16) 0.363020(14) -0.200520(13)
S1 S 0.46871(6) -0.53927(5) -0.29224(4)
S2 S 0.29366(6) -0.33607(5) -0.30416(5)
O1 O 0.52968(18) -0.59156(16) -0.38513(14)
O2 O 0.59811(17) -0.43083(16) -0.16838(14)
O3 O 0.13944(18) -0.32919(16) -0.40497(15)
O4 O 0.28773(19) -0.35939(17) -0.17576(14)
N1 N 0.3303(2) -0.46897(18) -0.37648(16)
C1 C 0.3424(2) -0.7153(2) -0.25497(18)
C2 C 0.3422(2) -0.7184(2) -0.12808(19)
H1 H 0.4154 -0.6270 -0.0576
C3 C 0.2330(2) -0.8575(2) -0.10490(19)
H2 H 0.2311 -0.8618 -0.0185
C4 C 0.1274(2) -0.9892(2) -0.20972(19)
C5 C 0.1322(2) -0.9883(2) -0.33596(19)
H3 H 0.0623 -1.0810 -0.4056
C6 C 0.2410(2) -0.8496(2) -0.35848(19)
H4 H 0.2461 -0.8466 -0.4440
C7 C 0.4689(2) -0.1498(2) -0.27697(19)
C8 C 0.5194(3) -0.0329(2) -0.16688(19)
H5 H 0.4639 -0.0551 -0.1060
C9 C 0.6512(2) 0.1169(2) -0.1454(2)
H6 H 0.6866 0.1979 -0.0704
C10 C 0.7302(2) 0.1457(2) -0.2365(2)
C11 C 0.6774(3) 0.0301(2) -0.3485(2)
H7 H 0.7310 0.0530 -0.4106
C12 C 0.5455(3) -0.1195(2) -0.3690(2)
H8 H 0.5083 -0.1998 -0.4450
Ag1_2 Ag -0.167520(19) -0.450840(18) -0.398480(15)
Ag1A Ag 0.167520(19) -0.549160(18) -0.601520(15)
Ag1_3 Ag 0.832480(19) -0.450840(18) -0.398480(15)
Ag1_4 Ag -0.167520(19) -1.450840(18) -0.398480(15)
I1_2 I 0.948370(16) 0.809040(14) -0.178910(12)
O1_2 O 0.52968(18) 0.40844(16) -0.38513(14)
O3_2 O 1.13944(18) 0.67081(16) -0.40497(15)
N1A N 0.6697(2) 0.46897(18) -0.62352(16)
loop_
_geom_bond_atom_site_label_1
_geom_bond_atom_site_label_2
_geom_bond_site_symmetry_1
_geom_bond_site_symmetry_2
Ag1 I2 1_555 1_555
I1 C4 1_555 1_555
I2 C10 1_555 1_555
S1 O1 1_555 1_555
S2 O3 1_555 1_555
O1 Ag1_3 1_555 1_555
O2 S1 1_555 1_555
O3 Ag1_2 1_555 1_555
O4 S2 1_555 1_555
N1 S1 1_555 1_555
C1 S1 1_555 1_555
C2 C1 1_555 1_555
H1 C2 1_555 1_555
C3 C2 1_555 1_555
H2 C3 1_555 1_555
C4 C3 1_555 1_555
C5 C4 1_555 1_555
H3 C5 1_555 1_555
C6 C1 1_555 1_555
H4 C6 1_555 1_555
C7 S2 1_555 1_555
C8 C7 1_555 1_555
H5 C8 1_555 1_555
C9 C8 1_555 1_555
H6 C9 1_555 1_555
C10 C9 1_555 1_555
C11 C10 1_555 1_555
H7 C11 1_555 1_555
C12 C7 1_555 1_555
H8 C12 1_555 1_555
Ag1A N1 1_555 1_555
Ag1_4 I1 1_555 1_555
I1_2 Ag1 1_555 1_555
O1_2 Ag1 1_555 1_555
O3_2 Ag1 1_555 1_555
N1A Ag1 1_555 1_555
S2 N1 1_555 1_555
C5 C6 1_555 1_555
C11 C12 1_555 1_555

#END
