
#######################################################################
#
#                 Cambridge Crystallographic Data Centre
#                                CCDC 
#
#######################################################################
#
# If this CIF has been generated from an entry in the Cambridge 
# Structural Database, then it will include bibliographic, chemical, 
# crystal, experimental, refinement or atomic coordinate data resulting 
# from the CCDC's data processing and validation procedures.
#
#######################################################################

data_MIWJUY
_symmetry_cell_setting           monoclinic
_symmetry_space_group_name_H-M   'P 21/c'
_symmetry_Int_Tables_number      14
_space_group_name_Hall           '-P 2ybc'
loop_
_symmetry_equiv_pos_site_id
_symmetry_equiv_pos_as_xyz
1 x,y,z
2 -x,1/2+y,1/2-z
3 -x,-y,-z
4 x,1/2-y,1/2+z
_cell_length_a                   11.051(3)
_cell_length_b                   13.620(4)
_cell_length_c                   8.010(2)
_cell_angle_alpha                90
_cell_angle_beta                 102.046(5)
_cell_angle_gamma                90
_cell_volume                     1179.07
loop_
_atom_site_label
_atom_site_type_symbol
_atom_site_fract_x
_atom_site_fract_y
_atom_site_fract_z
Cu1 Cu 0.98183(6) 0.85223(4) 0.18171(8)
O1 O 1.0322(3) 0.9889(2) 0.2065(5)
O2 O 1.1714(4) 1.0956(3) 0.1554(5)
O3 O 1.0997(3) 0.8161(2) 0.4645(5)
O4 O 0.9330(4) 0.7162(3) 0.1376(5)
H1 H 0.9758 0.6732 0.0960
H2 H 0.9119 0.6984 0.2331
N1 N 1.1241(4) 0.8423(3) 0.0628(5)
N2 N 0.8294(4) 0.8840(3) 0.2700(6)
C1 C 1.1300(5) 1.0119(4) 0.1527(7)
C2 C 1.1898(4) 0.9278(3) 0.0760(6)
C3 C 1.2966(5) 0.9391(4) 0.0218(7)
H3 H 1.3395 0.9982 0.0363
C4 C 1.3408(6) 0.8583(4) -0.0576(8)
H4 H 1.4142 0.8631 -0.0964
C5 C 1.2745(5) 0.7727(4) -0.0769(7)
H5 H 1.3030 0.7195 -0.1307
C6 C 1.1636(5) 0.7366(4) 0.4833(7)
C7 C 0.8271(5) 0.9641(4) 0.3678(7)
H6 H 0.8960 1.0050 0.3884
C8 C 0.7290(5) 0.9883(4) 0.4383(8)
H7 H 0.7314 1.0450 0.5036
C9 C 0.6248(5) 0.9278(4) 0.4122(8)
C10 C 0.6267(6) 0.8477(5) 0.3098(10)
H8 H 0.5581 0.8065 0.2864
C11 C 0.7277(5) 0.8265(4) 0.2406(8)
H9 H 0.7259 0.7712 0.1720
C12 C 0.5164(7) 0.9499(5) 0.4930(12)
H10 H 0.4448 0.9159 0.4280
H11 H 0.5337 0.9219 0.6069
Cu1C Cu 0.98183(6) 0.64777(4) 0.68171(8)
Cu1C_2 Cu 0.98183(6) 0.64777(4) -0.31829(8)
Cu1B Cu 0.01817(6) 1.14777(4) 0.81829(8)
O1C O 1.0322(3) 0.5111(2) 0.7065(5)
O2C O 1.1714(4) 0.4044(3) 0.6554(5)
O3C O 1.0997(3) 0.6839(2) 0.9645(5)
O3C_2 O 1.0997(3) 0.6839(2) -0.0355(5)
O4C O 0.9330(4) 0.7838(3) 0.6376(5)
H1C H 0.9758 0.8268 0.5960
H2C H 0.9119 0.8016 0.7331
N1C N 1.1241(4) 0.6577(3) 0.5628(5)
N2C N 0.8294(4) 0.6160(3) 0.7700(6)
N2B N 0.1706(4) 1.1160(3) 0.7300(6)
C1C C 1.1300(5) 0.4881(4) 0.6527(7)
C2C C 1.1898(4) 0.5722(3) 0.5760(6)
C3C C 1.2966(5) 0.5609(4) 0.5218(7)
H3C H 1.3395 0.5018 0.5363
C4C C 1.3408(6) 0.6417(4) 0.4424(8)
H4C H 1.4142 0.6369 0.4036
C5C C 1.2745(5) 0.7273(4) 0.4231(7)
H5C H 1.3030 0.7805 0.3693
C6C C 1.1636(5) 0.7634(4) -0.0167(7)
C7B C 0.1729(5) 1.0359(4) 0.6322(7)
H6B H 0.1040 0.9950 0.6116
C8B C 0.2710(5) 1.0117(4) 0.5617(8)
H7B H 0.2686 0.9550 0.4964
C9B C 0.3752(5) 1.0722(4) 0.5878(8)
C10B C 0.3733(6) 1.1523(5) 0.6902(10)
H8B H 0.4419 1.1935 0.7136
C11B C 0.2723(5) 1.1735(4) 0.7594(8)
H9B H 0.2741 1.2288 0.8280
C12B C 0.4836(7) 1.0501(5) 0.5070(12)
H10B H 0.5552 1.0841 0.5720
H11B H 0.4663 1.0781 0.3931
loop_
_geom_bond_atom_site_label_1
_geom_bond_atom_site_label_2
_geom_bond_site_symmetry_1
_geom_bond_site_symmetry_2
Cu1 O1 1_555 1_555
O1 C1 1_555 1_555
O2 C1 1_555 1_555
O3 Cu1 1_555 1_555
O4 Cu1 1_555 1_555
H1 O4 1_555 1_555
H2 O4 1_555 1_555
N1 Cu1 1_555 1_555
N2 Cu1 1_555 1_555
C1 C2 1_555 1_555
C2 N1 1_555 1_555
C3 C2 1_555 1_555
H3 C3 1_555 1_555
C4 C3 1_555 1_555
H4 C4 1_555 1_555
C5 C4 1_555 1_555
H5 C5 1_555 1_555
C6 O3 1_555 1_555
C7 N2 1_555 1_555
H6 C7 1_555 1_555
C8 C7 1_555 1_555
H7 C8 1_555 1_555
C9 C8 1_555 1_555
C10 C9 1_555 1_555
H8 C10 1_555 1_555
C11 N2 1_555 1_555
H9 C11 1_555 1_555
C12 C9 1_555 1_555
H10 C12 1_555 1_555
H11 C12 1_555 1_555
Cu1C O1C 1_555 1_555
Cu1C_2 O3C_2 1_555 1_555
Cu1B N2B 1_555 1_555
O1C C1C 1_555 1_555
O2C C1C 1_555 1_555
O3C Cu1C 1_555 1_555
O3C_2 C6C 1_555 1_555
O4C Cu1C 1_555 1_555
H1C O4C 1_555 1_555
H2C O4C 1_555 1_555
N1C C6 1_555 1_555
N2C Cu1C 1_555 1_555
N2B C7B 1_555 1_555
C1C C2C 1_555 1_555
C2C N1C 1_555 1_555
C3C C2C 1_555 1_555
H3C C3C 1_555 1_555
C4C C3C 1_555 1_555
H4C C4C 1_555 1_555
C5C C6 1_555 1_555
H5C C5C 1_555 1_555
C6C N1 1_555 1_555
C7B H6B 1_555 1_555
C8B C7B 1_555 1_555
H7B C8B 1_555 1_555
C9B C8B 1_555 1_555
C10B C9B 1_555 1_555
H8B C10B 1_555 1_555
C11B N2B 1_555 1_555
H9B C11B 1_555 1_555
C12B C12 1_555 1_555
H10B C12B 1_555 1_555
H11B C12B 1_555 1_555
C5 C6C 1_555 1_555
C10 C11 1_555 1_555
Cu1C N1C 1_555 1_555
C4C C5C 1_555 1_555
C9B C12B 1_555 1_555
C10B C11B 1_555 1_555

#END
