
#######################################################################
#
#                 Cambridge Crystallographic Data Centre
#                                CCDC 
#
#######################################################################
#
# If this CIF has been generated from an entry in the Cambridge 
# Structural Database, then it will include bibliographic, chemical, 
# crystal, experimental, refinement or atomic coordinate data resulting 
# from the CCDC's data processing and validation procedures.
#
#######################################################################

data_MIWJIM
_symmetry_cell_setting           monoclinic
_symmetry_space_group_name_H-M   'P 21/c'
_symmetry_Int_Tables_number      14
_space_group_name_Hall           '-P 2ybc'
loop_
_symmetry_equiv_pos_site_id
_symmetry_equiv_pos_as_xyz
1 x,y,z
2 -x,1/2+y,1/2-z
3 -x,-y,-z
4 x,1/2-y,1/2+z
_cell_length_a                   9.623(3)
_cell_length_b                   12.711(4)
_cell_length_c                   8.950(3)
_cell_angle_alpha                90
_cell_angle_beta                 94.566(5)
_cell_angle_gamma                90
_cell_volume                     1091.27
loop_
_atom_site_label
_atom_site_type_symbol
_atom_site_fract_x
_atom_site_fract_y
_atom_site_fract_z
Cu1 Cu 0.95392(3) 0.86946(2) 0.19443(3)
O1 O 1.04653(19) 1.00143(14) 0.2485(2)
O2 O 1.2314(2) 1.09907(15) 0.2082(2)
O3 O 1.0356(2) 0.78712(14) 0.4154(2)
O4 O 0.8572(2) 0.74622(14) 0.1115(2)
H1 H 0.7744 0.7333 0.1330
H2 H 0.8974 0.7052 0.0536
N1 N 1.1028(2) 0.86051(15) 0.0489(2)
N2 N 0.7882(2) 0.91338(17) 0.3077(2)
C1 C 1.1228(3) 0.71273(19) 0.4402(3)
C2 C 1.2447(3) 0.7040(2) 0.3602(3)
H3 H 1.2590 0.7523 0.2849
C3 C 1.3404(3) 0.6270(2) 0.3914(3)
H4 H 1.4214 0.6245 0.3412
C4 C 1.3155(3) 0.5509(2) 0.5006(3)
H5 H 1.3782 0.4963 0.5229
C5 C 1.1967(3) 0.93994(18) 0.0720(3)
C6 C 1.1574(3) 1.02118(19) 0.1848(3)
C7 C 0.7994(3) 0.9939(2) 0.4041(3)
H6 H 0.8851 1.0275 0.4205
C8 C 0.6895(3) 1.0293(2) 0.4801(3)
H7 H 0.7024 1.0857 0.5458
C9 C 0.5601(3) 0.9817(2) 0.4596(3)
C10 C 0.5503(3) 0.8984(3) 0.3594(5)
H8 H 0.4659 0.8633 0.3413
C11 C 0.6638(3) 0.8672(2) 0.2867(4)
H9 H 0.6533 0.8112 0.2197
Cu1C Cu 0.95392(3) 0.63054(2) 0.69443(3)
Cu1C_2 Cu 0.95392(3) 0.63054(2) -0.30557(3)
Cu1B Cu 0.04608(3) 1.13054(2) 0.80557(3)
O1C O 1.04653(19) 0.49857(14) 0.7485(2)
O2C O 1.2314(2) 0.40093(15) 0.7082(2)
O3C O 1.0356(2) 0.71288(14) 0.9154(2)
O3C_2 O 1.0356(2) 0.71288(14) -0.0846(2)
O4C O 0.8572(2) 0.75378(14) 0.6115(2)
H1C H 0.7744 0.7667 0.6330
H2C H 0.8974 0.7948 0.5536
N1C N 1.1028(2) 0.63949(15) 0.5489(2)
N2C N 0.7882(2) 0.58662(17) 0.8077(2)
N2B N 0.2118(2) 1.08662(17) 0.6923(2)
C1C C 1.1228(3) 0.78727(19) -0.0598(3)
C2C C 1.2447(3) 0.7960(2) -0.1398(3)
H3C H 1.2590 0.7477 -0.2151
C3C C 1.3404(3) 0.8730(2) -0.1086(3)
H4C H 1.4214 0.8755 -0.1588
C4C C 1.3155(3) 0.9491(2) 0.0006(3)
H5C H 1.3782 1.0037 0.0229
C5C C 1.1967(3) 0.56006(18) 0.5720(3)
C6C C 1.1574(3) 0.47882(19) 0.6848(3)
C7B C 0.2006(3) 1.0061(2) 0.5959(3)
H6B H 0.1149 0.9725 0.5795
C8B C 0.3105(3) 0.9707(2) 0.5199(3)
H7B H 0.2976 0.9143 0.4542
C9B C 0.4399(3) 1.0183(2) 0.5404(3)
C10B C 0.4497(3) 1.1016(3) 0.6406(5)
H8B H 0.5341 1.1367 0.6587
C11B C 0.3362(3) 1.1328(2) 0.7133(4)
H9B H 0.3467 1.1888 0.7803
loop_
_geom_bond_atom_site_label_1
_geom_bond_atom_site_label_2
_geom_bond_site_symmetry_1
_geom_bond_site_symmetry_2
Cu1 O1 1_555 1_555
O1 C6 1_555 1_555
O2 C6 1_555 1_555
O3 Cu1 1_555 1_555
O4 Cu1 1_555 1_555
H1 O4 1_555 1_555
H2 O4 1_555 1_555
N1 Cu1 1_555 1_555
N2 Cu1 1_555 1_555
C1 O3 1_555 1_555
C2 C1 1_555 1_555
H3 C2 1_555 1_555
C3 C2 1_555 1_555
H4 C3 1_555 1_555
C4 C3 1_555 1_555
H5 C4 1_555 1_555
C5 N1 1_555 1_555
C6 C5 1_555 1_555
C7 N2 1_555 1_555
H6 C7 1_555 1_555
C8 C7 1_555 1_555
H7 C8 1_555 1_555
C9 C8 1_555 1_555
C10 C9 1_555 1_555
H8 C10 1_555 1_555
C11 N2 1_555 1_555
H9 C11 1_555 1_555
Cu1C O1C 1_555 1_555
Cu1C_2 O3C_2 1_555 1_555
Cu1B N2B 1_555 1_555
O1C C6C 1_555 1_555
O2C C6C 1_555 1_555
O3C Cu1C 1_555 1_555
O3C_2 C1C 1_555 1_555
O4C Cu1C 1_555 1_555
H1C O4C 1_555 1_555
H2C O4C 1_555 1_555
N1C C1 1_555 1_555
N2C Cu1C 1_555 1_555
N2B C7B 1_555 1_555
C1C N1 1_555 1_555
C2C C1C 1_555 1_555
H3C C2C 1_555 1_555
C3C C2C 1_555 1_555
H4C C3C 1_555 1_555
C4C C5 1_555 1_555
H5C C4C 1_555 1_555
C5C C4 1_555 1_555
C6C C5C 1_555 1_555
C7B H6B 1_555 1_555
C8B C7B 1_555 1_555
H7B C8B 1_555 1_555
C9B C9 1_555 1_555
C10B C9B 1_555 1_555
H8B C10B 1_555 1_555
C11B N2B 1_555 1_555
H9B C11B 1_555 1_555
C10 C11 1_555 1_555
Cu1C N1C 1_555 1_555
N1C C5C 1_555 1_555
C3C C4C 1_555 1_555
C8B C9B 1_555 1_555
C10B C11B 1_555 1_555

#END
