
#######################################################################
#
#                 Cambridge Crystallographic Data Centre
#                                CCDC 
#
#######################################################################
#
# If this CIF has been generated from an entry in the Cambridge 
# Structural Database, then it will include bibliographic, chemical, 
# crystal, experimental, refinement or atomic coordinate data resulting 
# from the CCDC's data processing and validation procedures.
#
#######################################################################

data_MIWJOT
_symmetry_cell_setting           monoclinic
_symmetry_space_group_name_H-M   'P 21/c'
_symmetry_Int_Tables_number      14
_space_group_name_Hall           '-P 2ybc'
loop_
_symmetry_equiv_pos_site_id
_symmetry_equiv_pos_as_xyz
1 x,y,z
2 -x,1/2+y,1/2-z
3 -x,-y,-z
4 x,1/2-y,1/2+z
_cell_length_a                   9.236(2)
_cell_length_b                   8.784(2)
_cell_length_c                   29.629(7)
_cell_angle_alpha                90
_cell_angle_beta                 96.361(8)
_cell_angle_gamma                90
_cell_volume                     2388.97
loop_
_atom_site_label
_atom_site_type_symbol
_atom_site_fract_x
_atom_site_fract_y
_atom_site_fract_z
I1 I -0.37210(12) 0.27437(12) -0.48746(4)
Cu1 Cu -0.6139(2) 0.4431(2) -0.48289(6)
C1 C -0.3536(10) 0.4174(13) -0.1303(3)
C2 C -0.3676(8) 0.4258(12) -0.1775(3)
H1 H -0.2967 0.3831 -0.1935
C3 C -0.4876(8) 0.4980(8) -0.2006(2)
C4 C -0.5936(9) 0.5618(10) -0.1766(2)
H2 H -0.6738 0.6101 -0.1921
C5 C -0.5796(11) 0.5534(14) -0.1295(2)
H3 H -0.6505 0.5961 -0.1134
C6 C -0.4596(12) 0.4812(13) -0.1064(2)
H4 H -0.4503 0.4756 -0.0748
O1 O -0.5116(11) 0.5026(11) -0.2471(2)
O2 O -0.6870(13) 0.3180(14) -0.2509(3)
N1 N -0.6239(10) 0.4561(11) -0.4146(2)
C7 C -0.7146(10) 0.3520(11) -0.3964(3)
H5 H -0.7785 0.2929 -0.4155
C8 C -0.7099(11) 0.3362(11) -0.3496(4)
H6 H -0.7706 0.2665 -0.3374
C9 C -0.6144(12) 0.4246(12) -0.3210(2)
C10 C -0.5237(11) 0.5287(11) -0.3392(3)
H7 H -0.4598 0.5879 -0.3201
C11 C -0.5284(11) 0.5445(11) -0.3860(3)
H8 H -0.4677 0.6142 -0.3982
C12 C -0.611(2) 0.406(2) -0.2678(5)
O3 O -0.2308(12) 0.3445(12) -0.1092(4)
O4 O -0.113(2) 0.5710(19) -0.0992(10)
N2 N 0.2219(9) 0.1762(9) -0.0192(3)
C13 C 0.2314(9) 0.3336(10) -0.0226(3)
H9 H 0.3152 0.3839 -0.0103
C14 C 0.1155(11) 0.4160(8) -0.0443(3)
H10 H 0.1218 0.5214 -0.0466
C15 C -0.0099(8) 0.3410(11) -0.0627(3)
C16 C -0.0194(8) 0.1836(11) -0.0593(4)
H11 H -0.1033 0.1334 -0.0716
C17 C 0.0965(11) 0.1012(8) -0.0376(3)
H12 H 0.0902 -0.0042 -0.0353
C18 C -0.117(2) 0.437(3) -0.0914(6)
I1B I -0.62790(12) 0.72563(12) -0.51254(4)
Cu1B Cu -0.3861(2) 0.5569(2) -0.51711(6)
Cu1C Cu 0.3861(2) 0.0569(2) 0.01711(6)
N2C N -0.7781(9) 0.3238(9) -0.5192(3)
loop_
_geom_bond_atom_site_label_1
_geom_bond_atom_site_label_2
_geom_bond_site_symmetry_1
_geom_bond_site_symmetry_2
I1 Cu1 1_555 1_555
Cu1 N1 1_555 1_555
C1 C2 1_555 1_555
C2 H1 1_555 1_555
C3 C2 1_555 1_555
C4 C3 1_555 1_555
H2 C4 1_555 1_555
C5 C4 1_555 1_555
H3 C5 1_555 1_555
C6 C1 1_555 1_555
H4 C6 1_555 1_555
O1 C3 1_555 1_555
O2 C12 1_555 1_555
N1 C7 1_555 1_555
C7 H5 1_555 1_555
C8 C7 1_555 1_555
H6 C8 1_555 1_555
C9 C8 1_555 1_555
C10 C9 1_555 1_555
H7 C10 1_555 1_555
C11 N1 1_555 1_555
H8 C11 1_555 1_555
C12 O1 1_555 1_555
O3 C1 1_555 1_555
O4 C18 1_555 1_555
N2 C13 1_555 1_555
C13 H9 1_555 1_555
C14 C13 1_555 1_555
H10 C14 1_555 1_555
C15 C14 1_555 1_555
C16 C15 1_555 1_555
H11 C16 1_555 1_555
C17 N2 1_555 1_555
H12 C17 1_555 1_555
C18 O3 1_555 1_555
I1B Cu1 1_555 1_555
Cu1B I1 1_555 1_555
Cu1C N2 1_555 1_555
N2C Cu1 1_555 1_555
C5 C6 1_555 1_555
C9 C12 1_555 1_555
C10 C11 1_555 1_555
C15 C18 1_555 1_555
C16 C17 1_555 1_555
I1B Cu1B 1_555 1_555

#END
