
#######################################################################
#
#                 Cambridge Crystallographic Data Centre
#                                CCDC 
#
#######################################################################
#
# If this CIF has been generated from an entry in the Cambridge 
# Structural Database, then it will include bibliographic, chemical, 
# crystal, experimental, refinement or atomic coordinate data resulting 
# from the CCDC's data processing and validation procedures.
#
#######################################################################

data_MIWNAJ
_symmetry_cell_setting           triclinic
_symmetry_space_group_name_H-M   'P -1'
_symmetry_Int_Tables_number      2
_space_group_name_Hall           '-P 1'
loop_
_symmetry_equiv_pos_site_id
_symmetry_equiv_pos_as_xyz
1 x,y,z
2 -x,-y,-z
_cell_length_a                   8.3066(4)
_cell_length_b                   9.3439(4)
_cell_length_c                   11.7372(5)
_cell_angle_alpha                79.248(2)
_cell_angle_beta                 70.499(2)
_cell_angle_gamma                75.926(2)
_cell_volume                     827.408
loop_
_atom_site_label
_atom_site_type_symbol
_atom_site_fract_x
_atom_site_fract_y
_atom_site_fract_z
Pr1 Pr 0.24998(3) 0.02681(2) 0.48702(2)
Pr2 Pr 0.45151(3) -0.35755(2) 0.62670(2)
O1 O 0.3915(4) 0.0018(3) 0.2619(3)
O2 O 0.0745(4) -0.0903(3) 0.4027(3)
O3 O -0.1106(4) -0.2311(3) 0.6420(3)
O4 O -0.0847(4) -0.0726(3) 0.2822(3)
O5 O 0.2398(4) -0.7027(3) 0.5212(3)
O6 O 0.4279(4) -0.2249(3) 0.4179(3)
O7 O 0.4530(4) -0.0960(3) 0.6034(3)
O8 O 0.1578(4) -0.2146(3) 0.6340(3)
O9 O 0.3190(4) -0.5052(3) 0.5413(3)
O10 O 0.4408(4) -0.3866(3) 0.2947(3)
O11 O 0.1919(4) -0.4500(4) 0.7870(3)
O12 O 0.4898(5) -0.3181(4) 0.8117(3)
O13 O 0.6054(5) -0.2157(4) 0.9137(3)
C1 C 0.4216(5) -0.2585(4) 0.3204(4)
C2 C 0.3915(6) -0.1334(4) 0.2216(4)
H1 H 0.4895 -0.1495 0.1473
C3 C 0.2256(6) -0.1262(5) 0.1931(4)
H2 H 0.2191 -0.0501 0.1253
H3 H 0.2306 -0.2204 0.1673
C4 C 0.0610(6) -0.0933(4) 0.2981(4)
C5 C 0.2107(6) -0.5927(5) 0.5771(4)
C6 C 0.0497(6) -0.5585(5) 0.6815(4)
H4 H 0.0402 -0.6464 0.7404
H5 H -0.0506 -0.5366 0.6519
C7 C 0.0432(6) -0.4288(4) 0.7461(4)
H6 H -0.0602 -0.4234 0.8178
C8 C 0.0285(6) -0.2786(4) 0.6668(4)
C9 C 0.5425(6) -0.3174(5) 0.8998(4)
C10 C 0.5262(9) -0.4417(6) 1.0000(5)
H7 H 0.5568 -0.4333 1.0675
H8 H 0.378(7) 0.083(6) 0.201(5)
H9 H 0.169(10) -0.516(8) 0.844(7)
H10 H 0.439(7) -0.074(6) 0.682(2)
O12A O 0.5102(5) -0.6819(4) 1.1883(3)
O13A O 0.3946(5) -0.7843(4) 1.0863(3)
C9A C 0.4575(6) -0.6826(5) 1.1002(4)
C10A C 0.4738(9) -0.5583(6) 1.0000(5)
H7A H 0.4432 -0.5667 0.9325
Pr1A Pr -0.24998(3) -0.02681(2) 0.51298(2)
Pr2A Pr -0.45151(3) 0.35755(2) 0.37330(2)
O1A O -0.3915(4) -0.0018(3) 0.7381(3)
O2A O -0.0745(4) 0.0903(3) 0.5973(3)
O3A O 0.1106(4) 0.2311(3) 0.3580(3)
O4A O 0.0847(4) 0.0726(3) 0.7178(3)
O5A O -0.2398(4) 0.7027(3) 0.4788(3)
O6A O -0.4279(4) 0.2249(3) 0.5821(3)
O7A O -0.4530(4) 0.0960(3) 0.3966(3)
O8A O -0.1578(4) 0.2146(3) 0.3660(3)
O9A O -0.3190(4) 0.5052(3) 0.4587(3)
O10A O -0.4408(4) 0.3866(3) 0.7053(3)
O11A O -0.1919(4) 0.4500(4) 0.2130(3)
C1A C -0.4216(5) 0.2585(4) 0.6796(4)
C2A C -0.3915(6) 0.1334(4) 0.7784(4)
H1A H -0.4895 0.1495 0.8527
C3A C -0.2256(6) 0.1262(5) 0.8069(4)
H2A H -0.2191 0.0501 0.8747
H3A H -0.2306 0.2204 0.8327
C4A C -0.0610(6) 0.0933(4) 0.7019(4)
C5A C -0.2107(6) 0.5927(5) 0.4229(4)
C6A C -0.0497(6) 0.5585(5) 0.3185(4)
H4A H -0.0402 0.6464 0.2596
H5A H 0.0506 0.5366 0.3481
C7A C -0.0432(6) 0.4288(4) 0.2539(4)
H6A H 0.0602 0.4234 0.1822
C8A C -0.0285(6) 0.2786(4) 0.3332(4)
H8A H -0.378(7) -0.083(6) 0.799(5)
H9A H -0.169(10) 0.516(8) 0.156(7)
H10A H -0.439(7) 0.074(6) 0.318(2)
Pr1_2 Pr -0.75002(3) 0.02681(2) 0.48702(2)
Pr1_3 Pr 0.24998(3) -0.97319(2) 0.48702(2)
Pr1A_2 Pr -0.24998(3) 0.97319(2) 0.51298(2)
Pr1A_3 Pr 0.75002(3) -0.02681(2) 0.51298(2)
Pr2_2 Pr -0.54849(3) 0.64245(2) 0.62670(2)
Pr2A_2 Pr 0.54849(3) -0.64245(2) 0.37330(2)
Pr2A_3 Pr 0.54849(3) -0.64245(2) 1.37330(2)
O5_2 O -0.7602(4) 0.2973(3) 0.5212(3)
O5_3 O 0.2398(4) 0.2973(3) 0.5212(3)
O5A_2 O -0.2398(4) -0.2973(3) 0.4788(3)
O5A_3 O 0.7602(4) -0.2973(3) 0.4788(3)
O7_2 O -0.5470(4) -0.0960(3) 0.6034(3)
O7A_2 O 0.5470(4) 0.0960(3) 0.3966(3)
O9_2 O -0.6810(4) 0.4948(3) 0.5413(3)
O9A_2 O 0.6810(4) -0.4948(3) 0.4587(3)
O10_2 O -0.5592(4) 0.6134(3) 0.2947(3)
O10A_2 O 0.5592(4) -0.6134(3) 0.7053(3)
O12A_2 O -0.4898(5) 0.3181(4) 0.1883(3)
O14 O 0.1724(6) 0.3030(4) 0.9436(4)
H11 H 0.2443 0.2847 0.9842
H12 H 0.1216 0.2300 0.9572
O15 O 0.1024(7) 0.8542(4) 0.9358(5)
H13 H 0.0660 0.9295 0.8914
H14 H 0.1872 0.7976 0.8915
loop_
_geom_bond_atom_site_label_1
_geom_bond_atom_site_label_2
_geom_bond_site_symmetry_1
_geom_bond_site_symmetry_2
Pr1 O1 1_555 1_555
Pr2 O6 1_555 1_555
O1 C2 1_555 1_555
O2 Pr1 1_555 1_555
O3 C8 1_555 1_555
O4 C4 1_555 1_555
O5 C5 1_555 1_555
O6 Pr1 1_555 1_555
O7 Pr1 1_555 1_555
O8 Pr1 1_555 1_555
O9 Pr2 1_555 1_555
O10 C1 1_555 1_555
O11 Pr2 1_555 1_555
O12 Pr2 1_555 1_555
O13 C9 1_555 1_555
C1 O6 1_555 1_555
C2 C1 1_555 1_555
H1 C2 1_555 1_555
C3 C2 1_555 1_555
H2 C3 1_555 1_555
H3 C3 1_555 1_555
C4 O2 1_555 1_555
C5 O9 1_555 1_555
C6 C5 1_555 1_555
H4 C6 1_555 1_555
H5 C6 1_555 1_555
C7 O11 1_555 1_555
H6 C7 1_555 1_555
C8 O8 1_555 1_555
C9 O12 1_555 1_555
C10 C9 1_555 1_555
H7 C10 1_555 1_555
H8 O1 1_555 1_555
H9 O11 1_555 1_555
H10 O7 1_555 1_555
O14 H11 1_555 1_555
H12 O14 1_555 1_555
O15 H13 1_555 1_555
H14 O15 1_555 1_555
O12A C9A 1_555 1_555
O13A C9A 1_555 1_555
C9A C10A 1_555 1_555
C10A C10 1_555 1_555
H7A C10A 1_555 1_555
Pr1A O2 1_555 1_555
Pr2A O6A 1_555 1_555
O1A Pr1A 1_555 1_555
O2A Pr1 1_555 1_555
O3A Pr1 1_555 1_555
O4A Pr1 1_555 1_555
O5A C5A 1_555 1_555
O6A Pr1A 1_555 1_555
O7A Pr1A 1_555 1_555
O8A Pr1A 1_555 1_555
O9A Pr2A 1_555 1_555
O10A C1A 1_555 1_555
O11A Pr2A 1_555 1_555
C1A O6A 1_555 1_555
C2A O1A 1_555 1_555
H1A C2A 1_555 1_555
C3A C2A 1_555 1_555
H2A C3A 1_555 1_555
H3A C3A 1_555 1_555
C4A O2A 1_555 1_555
C5A O9A 1_555 1_555
C6A C5A 1_555 1_555
H4A C6A 1_555 1_555
H5A C6A 1_555 1_555
C7A O11A 1_555 1_555
H6A C7A 1_555 1_555
C8A O3A 1_555 1_555
H8A O1A 1_555 1_555
H9A O11A 1_555 1_555
H10A O7A 1_555 1_555
Pr1_2 O7A 1_555 1_555
Pr1_3 O5 1_555 1_555
Pr1A_2 O5A 1_555 1_555
Pr1A_3 O7 1_555 1_555
Pr2_2 O5A 1_555 1_555
Pr2A_2 O5 1_555 1_555
Pr2A_3 O12A 1_555 1_555
O5_2 Pr2A 1_555 1_555
O5_3 Pr1 1_555 1_555
O5A_2 Pr1A 1_555 1_555
O5A_3 Pr2 1_555 1_555
O7_2 Pr1A 1_555 1_555
O7A_2 Pr1 1_555 1_555
O9_2 Pr2A 1_555 1_555
O9A_2 Pr2 1_555 1_555
O10_2 Pr2A 1_555 1_555
O10A_2 Pr2 1_555 1_555
O12A_2 Pr2A 1_555 1_555
Pr2 O7 1_555 1_555
Pr2 O8 1_555 1_555
O3 Pr1A 1_555 1_555
O4 Pr1A 1_555 1_555
O9 Pr2A_2 1_555 1_555
O10 Pr2A_2 1_555 1_555
C3 C4 1_555 1_555
C6 C7 1_555 1_555
C7 C8 1_555 1_555
Pr1A O2A 1_555 1_555
Pr2A O7A 1_555 1_555
Pr2A O8A 1_555 1_555
O4A C4A 1_555 1_555
O8A C8A 1_555 1_555
O9A Pr2_2 1_555 1_555
O10A Pr2_2 1_555 1_555
C1A C2A 1_555 1_555
C3A C4A 1_555 1_555
C6A C7A 1_555 1_555
C7A C8A 1_555 1_555
Pr1_2 O5_2 1_555 1_555
Pr1_2 O7_2 1_555 1_555
Pr1A_3 O5A_3 1_555 1_555
Pr1A_3 O7A_2 1_555 1_555
Pr2_2 O9_2 1_555 1_555
Pr2A_2 O9A_2 1_555 1_555

#END
