
#######################################################################
#
#                 Cambridge Crystallographic Data Centre
#                                CCDC 
#
#######################################################################
#
# If this CIF has been generated from an entry in the Cambridge 
# Structural Database, then it will include bibliographic, chemical, 
# crystal, experimental, refinement or atomic coordinate data resulting 
# from the CCDC's data processing and validation procedures.
#
#######################################################################

data_MIWNIR
_symmetry_cell_setting           triclinic
_symmetry_space_group_name_H-M   'P -1'
_symmetry_Int_Tables_number      2
_space_group_name_Hall           '-P 1'
loop_
_symmetry_equiv_pos_site_id
_symmetry_equiv_pos_as_xyz
1 x,y,z
2 -x,-y,-z
_cell_length_a                   8.2557(5)
_cell_length_b                   9.3918(6)
_cell_length_c                   11.6162(8)
_cell_angle_alpha                80.241(6)
_cell_angle_beta                 70.487(6)
_cell_angle_gamma                75.339(5)
_cell_volume                     817.729
loop_
_atom_site_label
_atom_site_type_symbol
_atom_site_fract_x
_atom_site_fract_y
_atom_site_fract_z
Pr1 Pr 0.24981(4) 0.52682(3) 0.48600(3)
Pr2 Pr 0.45698(4) 0.14539(3) 0.62575(3)
O1 O 0.3953(5) 0.4961(4) 0.2566(4)
O2 O 0.0756(5) 0.4100(4) 0.4007(4)
O3 O -0.0874(5) 0.4154(4) 0.2839(4)
O4 O -0.1109(5) 0.2705(4) 0.6422(4)
O5 O 0.2337(5) -0.1966(4) 0.5235(4)
O6 O 0.4296(5) 0.2740(4) 0.4158(3)
O7 O 0.4550(5) 0.4053(4) 0.6039(3)
O8 O 0.1555(5) 0.2888(4) 0.6386(4)
O9 O 0.3165(5) -0.0033(4) 0.5474(4)
O10 O 0.4342(6) 0.1098(4) 0.2962(4)
O11 O 0.1899(5) 0.0538(4) 0.7959(4)
O12 O 0.4809(7) 0.1812(4) 0.8146(4)
O13 O 0.5944(8) 0.2877(5) 0.9172(4)
C1 C 0.4204(7) 0.2389(5) 0.3188(5)
C2 C 0.3941(7) 0.3610(6) 0.2181(5)
H1 H 0.4935 0.3404 0.1437
C3 C 0.2242(8) 0.3693(7) 0.1885(5)
H2 H 0.2162 0.4457 0.1218
H3 H 0.2303 0.2760 0.1604
C4 C 0.0594(8) 0.4020(5) 0.2958(5)
C5 C 0.2061(7) -0.0883(6) 0.5822(5)
C6 C 0.0485(8) -0.0546(6) 0.6909(6)
H4 H 0.0471 -0.1404 0.7506
H5 H -0.0558 -0.0384 0.6653
C7 C 0.0377(7) 0.0796(6) 0.7535(5)
H6 H -0.0677 0.0891 0.8252
C8 C 0.0267(7) 0.2261(5) 0.6701(5)
C9 C 0.5376(9) 0.1841(6) 0.9021(6)
C10 C 0.5330(10) 0.0560(7) 0.9988(6)
H7 H 0.5805 0.0570 1.0608
H8 H 0.397(7) 0.563(6) 0.201(5)
H9 H 0.422(11) 0.421(8) 0.687(2)
O12A O 0.5191(7) -0.1812(4) 1.1854(4)
O13A O 0.4056(8) -0.2877(5) 1.0828(4)
C9A C 0.4624(9) -0.1841(6) 1.0979(6)
C10A C 0.4670(10) -0.0560(7) 1.0012(6)
H7A H 0.4195 -0.0570 0.9392
Pr1A Pr -0.24981(4) 0.47318(3) 0.51400(3)
Pr2A Pr -0.45698(4) 0.85461(3) 0.37425(3)
O1A O -0.3953(5) 0.5039(4) 0.7434(4)
O2A O -0.0756(5) 0.5900(4) 0.5993(4)
O3A O 0.0874(5) 0.5846(4) 0.7161(4)
O4A O 0.1109(5) 0.7295(4) 0.3578(4)
O5A O -0.2337(5) 1.1966(4) 0.4765(4)
O6A O -0.4296(5) 0.7260(4) 0.5842(3)
O7A O -0.4550(5) 0.5947(4) 0.3961(3)
O8A O -0.1555(5) 0.7112(4) 0.3614(4)
O9A O -0.3165(5) 1.0033(4) 0.4526(4)
O10A O -0.4342(6) 0.8902(4) 0.7038(4)
O11A O -0.1899(5) 0.9462(4) 0.2041(4)
C1A C -0.4204(7) 0.7611(5) 0.6812(5)
C2A C -0.3941(7) 0.6390(6) 0.7819(5)
H1A H -0.4935 0.6596 0.8563
C3A C -0.2242(8) 0.6307(7) 0.8115(5)
H2A H -0.2162 0.5543 0.8782
H3A H -0.2303 0.7240 0.8396
C4A C -0.0594(8) 0.5980(5) 0.7042(5)
C5A C -0.2061(7) 1.0883(6) 0.4178(5)
C6A C -0.0485(8) 1.0546(6) 0.3091(6)
H4A H -0.0471 1.1404 0.2494
H5A H 0.0558 1.0384 0.3347
C7A C -0.0377(7) 0.9204(6) 0.2465(5)
H6A H 0.0677 0.9109 0.1748
C8A C -0.0267(7) 0.7739(5) 0.3299(5)
H8A H -0.397(7) 0.437(6) 0.799(5)
H9A H -0.422(11) 0.579(8) 0.313(2)
Pr1_2 Pr -0.75019(4) 0.52682(3) 0.48600(3)
Pr1_3 Pr 0.24981(4) -0.47318(3) 0.48600(3)
Pr1A_2 Pr -0.24981(4) 1.47318(3) 0.51400(3)
Pr1A_3 Pr 0.75019(4) 0.47318(3) 0.51400(3)
Pr2_2 Pr -0.54302(4) 1.14539(3) 0.62575(3)
Pr2A_2 Pr 0.54302(4) -0.14539(3) 0.37425(3)
Pr2A_3 Pr 0.54302(4) -0.14539(3) 1.37425(3)
O5_2 O -0.7663(5) 0.8034(4) 0.5235(4)
O5_3 O 0.2337(5) 0.8034(4) 0.5235(4)
O5A_2 O -0.2337(5) 0.1966(4) 0.4765(4)
O5A_3 O 0.7663(5) 0.1966(4) 0.4765(4)
O7_2 O -0.5450(5) 0.4053(4) 0.6039(3)
O7A_2 O 0.5450(5) 0.5947(4) 0.3961(3)
O9_2 O -0.6835(5) 0.9967(4) 0.5474(4)
O9A_2 O 0.6835(5) 0.0033(4) 0.4526(4)
O10_2 O -0.5658(6) 1.1098(4) 0.2962(4)
O10A_2 O 0.5658(6) -0.1098(4) 0.7038(4)
O12A_2 O -0.4809(7) 0.8188(4) 0.1854(4)
loop_
_geom_bond_atom_site_label_1
_geom_bond_atom_site_label_2
_geom_bond_site_symmetry_1
_geom_bond_site_symmetry_2
Pr1 O1 1_555 1_555
Pr2 O6 1_555 1_555
O1 C2 1_555 1_555
O2 Pr1 1_555 1_555
O3 C4 1_555 1_555
O4 C8 1_555 1_555
O5 C5 1_555 1_555
O6 Pr1 1_555 1_555
O7 Pr1 1_555 1_555
O8 Pr1 1_555 1_555
O9 Pr2 1_555 1_555
O10 C1 1_555 1_555
O11 Pr2 1_555 1_555
O12 Pr2 1_555 1_555
O13 C9 1_555 1_555
C1 O6 1_555 1_555
C2 C1 1_555 1_555
H1 C2 1_555 1_555
C3 C2 1_555 1_555
H2 C3 1_555 1_555
H3 C3 1_555 1_555
C4 O2 1_555 1_555
C5 O9 1_555 1_555
C6 C5 1_555 1_555
H4 C6 1_555 1_555
H5 C6 1_555 1_555
C7 O11 1_555 1_555
H6 C7 1_555 1_555
C8 O8 1_555 1_555
C9 O12 1_555 1_555
C10 C9 1_555 1_555
H7 C10 1_555 1_555
H8 O1 1_555 1_555
H9 O7 1_555 1_555
O12A C9A 1_555 1_555
O13A C9A 1_555 1_555
C9A C10A 1_555 1_555
C10A C10 1_555 1_555
H7A C10A 1_555 1_555
Pr1A O2 1_555 1_555
Pr2A O6A 1_555 1_555
O1A Pr1A 1_555 1_555
O2A Pr1 1_555 1_555
O3A Pr1 1_555 1_555
O4A Pr1 1_555 1_555
O5A C5A 1_555 1_555
O6A Pr1A 1_555 1_555
O7A Pr1A 1_555 1_555
O8A Pr1A 1_555 1_555
O9A Pr2A 1_555 1_555
O10A C1A 1_555 1_555
O11A Pr2A 1_555 1_555
C1A O6A 1_555 1_555
C2A O1A 1_555 1_555
H1A C2A 1_555 1_555
C3A C2A 1_555 1_555
H2A C3A 1_555 1_555
H3A C3A 1_555 1_555
C4A O2A 1_555 1_555
C5A O9A 1_555 1_555
C6A C5A 1_555 1_555
H4A C6A 1_555 1_555
H5A C6A 1_555 1_555
C7A O11A 1_555 1_555
H6A C7A 1_555 1_555
C8A O4A 1_555 1_555
H8A O1A 1_555 1_555
H9A O7A 1_555 1_555
Pr1_2 O7A 1_555 1_555
Pr1_3 O5 1_555 1_555
Pr1A_2 O5A 1_555 1_555
Pr1A_3 O7 1_555 1_555
Pr2_2 O5A 1_555 1_555
Pr2A_2 O5 1_555 1_555
Pr2A_3 O12A 1_555 1_555
O5_2 Pr2A 1_555 1_555
O5_3 Pr1 1_555 1_555
O5A_2 Pr1A 1_555 1_555
O5A_3 Pr2 1_555 1_555
O7_2 Pr1A 1_555 1_555
O7A_2 Pr1 1_555 1_555
O9_2 Pr2A 1_555 1_555
O9A_2 Pr2 1_555 1_555
O10_2 Pr2A 1_555 1_555
O10A_2 Pr2 1_555 1_555
O12A_2 Pr2A 1_555 1_555
Pr2 O7 1_555 1_555
Pr2 O8 1_555 1_555
O3 Pr1A 1_555 1_555
O4 Pr1A 1_555 1_555
O9 Pr2A_2 1_555 1_555
O10 Pr2A_2 1_555 1_555
C3 C4 1_555 1_555
C6 C7 1_555 1_555
C7 C8 1_555 1_555
Pr1A O2A 1_555 1_555
Pr2A O7A 1_555 1_555
Pr2A O8A 1_555 1_555
O3A C4A 1_555 1_555
O8A C8A 1_555 1_555
O9A Pr2_2 1_555 1_555
O10A Pr2_2 1_555 1_555
C1A C2A 1_555 1_555
C3A C4A 1_555 1_555
C6A C7A 1_555 1_555
C7A C8A 1_555 1_555
Pr1_2 O5_2 1_555 1_555
Pr1_2 O7_2 1_555 1_555
Pr1A_3 O5A_3 1_555 1_555
Pr1A_3 O7A_2 1_555 1_555
Pr2_2 O9_2 1_555 1_555
Pr2A_2 O9A_2 1_555 1_555

#END
