
#######################################################################
#
#                 Cambridge Crystallographic Data Centre
#                                CCDC 
#
#######################################################################
#
# If this CIF has been generated from an entry in the Cambridge 
# Structural Database, then it will include bibliographic, chemical, 
# crystal, experimental, refinement or atomic coordinate data resulting 
# from the CCDC's data processing and validation procedures.
#
#######################################################################

data_MIWNEN
_symmetry_cell_setting           triclinic
_symmetry_space_group_name_H-M   'P -1'
_symmetry_Int_Tables_number      2
_space_group_name_Hall           '-P 1'
loop_
_symmetry_equiv_pos_site_id
_symmetry_equiv_pos_as_xyz
1 x,y,z
2 -x,-y,-z
_cell_length_a                   8.2494(4)
_cell_length_b                   9.3110(4)
_cell_length_c                   11.6959(6)
_cell_angle_alpha                79.306(4)
_cell_angle_beta                 70.324(4)
_cell_angle_gamma                76.048(4)
_cell_volume                     815.581
loop_
_atom_site_label
_atom_site_type_symbol
_atom_site_fract_x
_atom_site_fract_y
_atom_site_fract_z
Nd1 Nd 0.74918(3) 0.47453(3) 0.51334(2)
Nd2 Nd 0.54904(3) 0.85677(3) 0.37435(2)
O1 O 0.6063(5) 0.4998(4) 0.7386(3)
O2 O 0.9262(4) 0.5902(4) 0.5970(3)
O3 O 1.1140(4) 0.7301(4) 0.3559(3)
O4 O 1.0873(4) 0.5703(4) 0.7179(3)
O5 O 0.7597(4) 1.2047(4) 0.4792(3)
O6 O 0.5718(4) 0.7262(4) 0.5825(3)
O7 O 0.5467(4) 0.5961(4) 0.3970(3)
O8 O 0.8424(4) 0.7139(4) 0.3670(3)
O9 O 0.6809(4) 1.0056(4) 0.4586(3)
O10 O 0.5598(5) 0.8900(4) 0.7050(3)
O11 O 0.8082(5) 0.9499(4) 0.2129(3)
O12 O 0.5150(5) 0.8155(4) 0.1891(3)
O13 O 0.3932(5) 0.7162(4) 0.0866(3)
C1 C 0.5749(6) 0.7622(6) 0.6791(4)
C2 C 0.6072(6) 0.6341(6) 0.7788(4)
H1 H 0.5085 0.6497 0.8536
C3 C 0.7747(6) 0.6263(6) 0.8084(5)
H2 H 0.7797 0.5505 0.8769
H3 H 0.7705 0.7209 0.8337
C4 C 0.9431(6) 0.5910(5) 0.7018(5)
C5 C 0.7895(6) 1.0936(6) 0.4236(5)
C6 C 0.9531(6) 1.0592(6) 0.3173(5)
H4 H 1.0543 1.0379 0.3466
H5 H 0.9622 1.1472 0.2581
C7 C 0.9599(6) 0.9283(6) 0.2528(5)
H6 H 1.0638 0.9225 0.1804
C8 C 0.9733(6) 0.7785(6) 0.3335(5)
C9 C 0.4575(7) 0.8164(6) 0.1024(5)
C10 C 0.4700(11) 0.9434(8) 0.0031(8)
H7 H 0.4290 0.9377 -0.0606
H8 H 0.818(9) 1.040(4) 0.160(5)
H9 H 0.621(8) 0.421(5) 0.801(4)
H10 H 0.551(9) 0.556(8) 0.327(4)
O12A O 0.4850(5) 1.1845(4) -0.1891(3)
O13A O 0.6068(5) 1.2838(4) -0.0866(3)
C9A C 0.5425(7) 1.1836(6) -0.1024(5)
C10A C 0.5300(11) 1.0566(8) -0.0031(8)
H7A H 0.5710 1.0623 0.0606
Nd1A Nd 0.25082(3) 0.52547(3) 0.48666(2)
Nd2A Nd 0.45096(3) 0.14323(3) 0.62565(2)
O1A O 0.3937(5) 0.5002(4) 0.2614(3)
O2A O 0.0738(4) 0.4098(4) 0.4030(3)
O3A O -0.1140(4) 0.2699(4) 0.6441(3)
O4A O -0.0873(4) 0.4297(4) 0.2821(3)
O5A O 0.2403(4) -0.2047(4) 0.5208(3)
O6A O 0.4282(4) 0.2738(4) 0.4175(3)
O7A O 0.4533(4) 0.4039(4) 0.6030(3)
O8A O 0.1576(4) 0.2861(4) 0.6330(3)
O9A O 0.3191(4) -0.0056(4) 0.5414(3)
O10A O 0.4402(5) 0.1100(4) 0.2950(3)
O11A O 0.1918(5) 0.0501(4) 0.7871(3)
C1A C 0.4251(6) 0.2378(6) 0.3209(4)
C2A C 0.3928(6) 0.3659(6) 0.2212(4)
H1A H 0.4915 0.3503 0.1464
C3A C 0.2253(6) 0.3737(6) 0.1916(5)
H2A H 0.2203 0.4495 0.1231
H3A H 0.2295 0.2791 0.1663
C4A C 0.0569(6) 0.4090(5) 0.2982(5)
C5A C 0.2105(6) -0.0936(6) 0.5764(5)
C6A C 0.0469(6) -0.0592(6) 0.6827(5)
H4A H -0.0543 -0.0379 0.6534
H5A H 0.0378 -0.1472 0.7419
C7A C 0.0401(6) 0.0717(6) 0.7472(5)
H6A H -0.0638 0.0775 0.8196
C8A C 0.0267(6) 0.2215(6) 0.6665(5)
H8A H 0.182(9) -0.040(4) 0.840(5)
H9A H 0.379(8) 0.579(5) 0.199(4)
H10A H 0.449(9) 0.444(8) 0.673(4)
Nd1_2 Nd -0.25082(3) 0.47453(3) 0.51334(2)
Nd1_3 Nd 0.74918(3) 1.47453(3) 0.51334(2)
Nd1A_2 Nd 0.25082(3) -0.47453(3) 0.48666(2)
Nd1A_3 Nd 1.25082(3) 0.52547(3) 0.48666(2)
Nd2_2 Nd 0.54904(3) -0.14323(3) 0.37435(2)
Nd2A_2 Nd 0.45096(3) 1.14323(3) -0.37435(2)
Nd2A_3 Nd 0.45096(3) 1.14323(3) 0.62565(2)
O2_2 O -0.0738(4) 0.5902(4) 0.5970(3)
O2A_2 O 1.0738(4) 0.4098(4) 0.4030(3)
O3_2 O 0.1140(4) 0.7301(4) 0.3559(3)
O3A_2 O 0.8860(4) 0.2699(4) 0.6441(3)
O4_2 O 0.0873(4) 0.5703(4) 0.7179(3)
O4A_2 O 0.9127(4) 0.4297(4) 0.2821(3)
O5_2 O 0.7597(4) 0.2047(4) 0.4792(3)
O5A_2 O 0.2403(4) 0.7953(4) 0.5208(3)
O9_2 O 0.6809(4) 0.0056(4) 0.4586(3)
O9A_2 O 0.3191(4) 0.9944(4) 0.5414(3)
O10_2 O 0.5598(5) -0.1100(4) 0.7050(3)
O10A_2 O 0.4402(5) 1.1100(4) 0.2950(3)
O12A_2 O 0.4850(5) 0.1845(4) 0.8109(3)
O14 O 0.1055(6) 0.3537(6) 0.9353(5)
O15 O 0.8299(6) 1.1983(5) 0.0553(4)
loop_
_geom_bond_atom_site_label_1
_geom_bond_atom_site_label_2
_geom_bond_site_symmetry_1
_geom_bond_site_symmetry_2
Nd1 O1 1_555 1_555
Nd2 O6 1_555 1_555
O1 C2 1_555 1_555
O2 Nd1 1_555 1_555
O3 C8 1_555 1_555
O4 C4 1_555 1_555
O5 C5 1_555 1_555
O6 Nd1 1_555 1_555
O7 Nd1 1_555 1_555
O8 Nd1 1_555 1_555
O9 Nd2 1_555 1_555
O10 C1 1_555 1_555
O11 Nd2 1_555 1_555
O12 Nd2 1_555 1_555
O13 C9 1_555 1_555
C1 O6 1_555 1_555
C2 C1 1_555 1_555
H1 C2 1_555 1_555
C3 C2 1_555 1_555
H2 C3 1_555 1_555
H3 C3 1_555 1_555
C4 O2 1_555 1_555
C5 O9 1_555 1_555
C6 C5 1_555 1_555
H4 C6 1_555 1_555
H5 C6 1_555 1_555
C7 O11 1_555 1_555
H6 C7 1_555 1_555
C8 O8 1_555 1_555
C9 O12 1_555 1_555
C10 C9 1_555 1_555
H7 C10 1_555 1_555
H8 O11 1_555 1_555
H9 O1 1_555 1_555
H10 O7 1_555 1_555
O12A C9A 1_555 1_555
O13A C9A 1_555 1_555
C9A C10A 1_555 1_555
C10A C10 1_555 1_555
H7A C10A 1_555 1_555
Nd1A O7 1_555 1_555
Nd2A O6A 1_555 1_555
O1A Nd1A 1_555 1_555
O2A Nd1A 1_555 1_555
O3A C8A 1_555 1_555
O4A C4A 1_555 1_555
O5A C5A 1_555 1_555
O6A Nd1A 1_555 1_555
O7A Nd1 1_555 1_555
O8A Nd1A 1_555 1_555
O9A Nd2A 1_555 1_555
O10A C1A 1_555 1_555
O11A Nd2A 1_555 1_555
C1A O6A 1_555 1_555
C2A O1A 1_555 1_555
H1A C2A 1_555 1_555
C3A C2A 1_555 1_555
H2A C3A 1_555 1_555
H3A C3A 1_555 1_555
C4A O2A 1_555 1_555
C5A O9A 1_555 1_555
C6A C5A 1_555 1_555
H4A C6A 1_555 1_555
H5A C6A 1_555 1_555
C7A O11A 1_555 1_555
H6A C7A 1_555 1_555
C8A O8A 1_555 1_555
H8A O11A 1_555 1_555
H9A O1A 1_555 1_555
H10A O7A 1_555 1_555
Nd1_2 O2A 1_555 1_555
Nd1_3 O5 1_555 1_555
Nd1A_2 O5A 1_555 1_555
Nd1A_3 O2 1_555 1_555
Nd2_2 O5A 1_555 1_555
Nd2A_2 O12A 1_555 1_555
Nd2A_3 O5 1_555 1_555
O2_2 Nd1A 1_555 1_555
O2A_2 Nd1 1_555 1_555
O3_2 Nd1A 1_555 1_555
O3A_2 Nd1 1_555 1_555
O4_2 Nd1A 1_555 1_555
O4A_2 Nd1 1_555 1_555
O5_2 Nd1 1_555 1_555
O5A_2 Nd2 1_555 1_555
O9_2 Nd2A 1_555 1_555
O9A_2 Nd2 1_555 1_555
O10_2 Nd2A 1_555 1_555
O10A_2 Nd2 1_555 1_555
O12A_2 Nd2A 1_555 1_555
Nd2 O7 1_555 1_555
Nd2 O8 1_555 1_555
O3 Nd1A_3 1_555 1_555
O4 Nd1A_3 1_555 1_555
O9 Nd2A_3 1_555 1_555
O10 Nd2A_3 1_555 1_555
C3 C4 1_555 1_555
C6 C7 1_555 1_555
C7 C8 1_555 1_555
Nd1A O7A 1_555 1_555
Nd1A O5A_2 1_555 1_555
Nd2A O7A 1_555 1_555
Nd2A O8A 1_555 1_555
Nd2A O5_2 1_555 1_555
O3A Nd1_2 1_555 1_555
O4A Nd1_2 1_555 1_555
O9A Nd2_2 1_555 1_555
O10A Nd2_2 1_555 1_555
C1A C2A 1_555 1_555
C3A C4A 1_555 1_555
C6A C7A 1_555 1_555
C7A C8A 1_555 1_555
Nd1_2 O2_2 1_555 1_555
Nd1A_3 O2A_2 1_555 1_555
Nd2_2 O9_2 1_555 1_555
Nd2A_3 O9A_2 1_555 1_555

#END
