
#######################################################################
#
#                 Cambridge Crystallographic Data Centre
#                                CCDC 
#
#######################################################################
#
# If this CIF has been generated from an entry in the Cambridge 
# Structural Database, then it will include bibliographic, chemical, 
# crystal, experimental, refinement or atomic coordinate data resulting 
# from the CCDC's data processing and validation procedures.
#
#######################################################################

data_MIWPUE
_symmetry_cell_setting           triclinic
_symmetry_space_group_name_H-M   'P -1'
_symmetry_Int_Tables_number      2
_space_group_name_Hall           '-P 1'
loop_
_symmetry_equiv_pos_site_id
_symmetry_equiv_pos_as_xyz
1 x,y,z
2 -x,-y,-z
_cell_length_a                   7.5342(3)
_cell_length_b                   8.9307(4)
_cell_length_c                   15.0189(8)
_cell_angle_alpha                73.0032(15)
_cell_angle_beta                 81.3701(16)
_cell_angle_gamma                65.461(2)
_cell_volume                     878.652
loop_
_atom_site_label
_atom_site_type_symbol
_atom_site_fract_x
_atom_site_fract_y
_atom_site_fract_z
Cu1 Cu -0.53590(6) 0.27669(5) 0.31715(3)
O1 O -0.0686(5) 0.2642(4) -0.0420(2)
H1 H -0.073(10) 0.343(8) -0.069(4)
N1 N -0.4307(4) 0.0244(4) 0.3217(2)
N2 N -0.3882(4) 0.2749(4) 0.2013(2)
N3 N -0.6084(4) 0.5315(4) 0.2620(2)
N4 N -0.3239(5) 0.2513(5) 0.4129(2)
N5 N 0.2429(5) 0.2854(4) 0.4037(2)
N6 N -0.0515(5) 0.2534(6) 0.4805(3)
C1 C -0.4589(6) -0.1013(5) 0.3896(3)
H2 H -0.5423 -0.0730 0.4398
C2 C -0.3703(6) -0.2692(5) 0.3881(3)
H3 H -0.3926 -0.3525 0.4368
C3 C -0.2483(6) -0.3133(5) 0.3139(3)
H4 H -0.1873 -0.4264 0.3114
C4 C -0.2180(6) -0.1848(5) 0.2427(3)
H5 H -0.1368 -0.2110 0.1915
C5 C -0.3095(5) -0.0185(4) 0.2488(2)
C6 C -0.2879(5) 0.1281(4) 0.1778(2)
C7 C -0.1797(6) 0.1218(5) 0.0956(3)
H6 H -0.1098 0.0187 0.0802
C8 C -0.1771(6) 0.2732(5) 0.0359(3)
C9 C -0.2851(6) 0.4267(5) 0.0602(3)
H7 H -0.2860 0.5291 0.0209
C10 C -0.3896(5) 0.4233(4) 0.1431(3)
C11 C -0.5179(5) 0.5716(5) 0.1800(3)
C12 C -0.5464(6) 0.7380(5) 0.1344(3)
H8 H -0.4815 0.7632 0.0779
C13 C -0.6730(7) 0.8659(5) 0.1743(4)
H9 H -0.6962 0.9790 0.1443
C14 C -0.7645(6) 0.8261(5) 0.2583(4)
H10 H -0.8491 0.9114 0.2861
C15 C -0.7295(6) 0.6574(5) 0.3010(3)
H11 H -0.7912 0.6301 0.3582
C16 C -0.1907(5) 0.2507(5) 0.4406(3)
C17 C 0.1020(5) 0.2691(5) 0.4351(3)
Cu1_2 Cu 0.46410(6) 0.27669(5) 0.31715(3)
N5_2 N -0.7571(5) 0.2854(4) 0.4037(2)
N7 N -0.1093(5) 0.6681(4) -0.1752(2)
O2 O -0.0302(7) 0.5123(4) -0.1672(3)
O3 O -0.2340(6) 0.7212(5) -0.1172(3)
O4 O -0.0549(6) 0.7646(4) -0.2382(2)
loop_
_geom_bond_atom_site_label_1
_geom_bond_atom_site_label_2
_geom_bond_site_symmetry_1
_geom_bond_site_symmetry_2
Cu1 N1 1_555 1_555
O1 H1 1_555 1_555
N1 C1 1_555 1_555
N2 Cu1 1_555 1_555
N3 Cu1 1_555 1_555
N4 Cu1 1_555 1_555
N5 C17 1_555 1_555
N6 C16 1_555 1_555
C1 H2 1_555 1_555
C2 C1 1_555 1_555
H3 C2 1_555 1_555
C3 C2 1_555 1_555
H4 C3 1_555 1_555
C4 C3 1_555 1_555
H5 C4 1_555 1_555
C5 N1 1_555 1_555
C6 N2 1_555 1_555
C7 C6 1_555 1_555
H6 C7 1_555 1_555
C8 O1 1_555 1_555
C9 C8 1_555 1_555
H7 C9 1_555 1_555
C10 N2 1_555 1_555
C11 N3 1_555 1_555
C12 C11 1_555 1_555
H8 C12 1_555 1_555
C13 C12 1_555 1_555
H9 C13 1_555 1_555
C14 C13 1_555 1_555
H10 C14 1_555 1_555
C15 N3 1_555 1_555
H11 C15 1_555 1_555
C16 N4 1_555 1_555
C17 N6 1_555 1_555
N7 O2 1_555 1_555
O3 N7 1_555 1_555
O4 N7 1_555 1_555
Cu1_2 N5 1_555 1_555
N5_2 Cu1 1_555 1_555
C4 C5 1_555 1_555
C5 C6 1_555 1_555
C7 C8 1_555 1_555
C9 C10 1_555 1_555
C10 C11 1_555 1_555
C14 C15 1_555 1_555

#END
