
#######################################################################
#
#                 Cambridge Crystallographic Data Centre
#                                CCDC 
#
#######################################################################
#
# If this CIF has been generated from an entry in the Cambridge 
# Structural Database, then it will include bibliographic, chemical, 
# crystal, experimental, refinement or atomic coordinate data resulting 
# from the CCDC's data processing and validation procedures.
#
#######################################################################

data_MIWROB
_symmetry_cell_setting           triclinic
_symmetry_space_group_name_H-M   'P -1'
_symmetry_Int_Tables_number      2
_space_group_name_Hall           '-P 1'
loop_
_symmetry_equiv_pos_site_id
_symmetry_equiv_pos_as_xyz
1 x,y,z
2 -x,-y,-z
_cell_length_a                   9.443(3)
_cell_length_b                   10.445(4)
_cell_length_c                   16.707(6)
_cell_angle_alpha                93.956(4)
_cell_angle_beta                 92.250(4)
_cell_angle_gamma                106.645(4)
_cell_volume                     1572.03
loop_
_atom_site_label
_atom_site_type_symbol
_atom_site_fract_x
_atom_site_fract_y
_atom_site_fract_z
Zn1 Zn -0.05852(4) 0.71297(3) 0.75357(2)
C1 C -0.2974(4) 0.8473(3) 0.8100(2)
H1 H -0.3251 0.7782 0.8436
C2 C -0.3824(4) 0.9372(4) 0.8059(2)
H2 H -0.4630 0.9289 0.8375
C3 C -0.3451(4) 1.0379(3) 0.7547(2)
H3 H -0.4013 1.0974 0.7506
C4 C -0.2212(4) 1.0500(3) 0.70860(19)
C5 C -0.1396(4) 0.9574(3) 0.71778(19)
C6 C -0.1772(4) 1.1494(3) 0.6526(2)
H4 H -0.2316 1.2099 0.6461
C7 C -0.0579(4) 1.1570(3) 0.6089(2)
H5 H -0.0325 1.2216 0.5722
C8 C 0.0308(4) 1.0662(3) 0.61828(19)
C9 C -0.0102(4) 0.9667(3) 0.67236(19)
C10 C 0.1581(4) 1.0714(4) 0.5760(2)
H6 H 0.1895 1.1358 0.5396
C11 C 0.2362(4) 0.9802(4) 0.5888(2)
H7 H 0.3213 0.9830 0.5619
C12 C 0.1843(4) 0.8845(3) 0.6427(2)
H8 H 0.2367 0.8229 0.6507
C13 C 0.0940(4) 0.8840(3) 0.9185(2)
H9 H 0.0238 0.9303 0.9139
C14 C 0.1948(4) 0.9163(4) 0.9863(2)
H10 H 0.1906 0.9823 1.0257
C15 C 0.2988(4) 0.8492(4) 0.9933(2)
H11 H 0.3656 0.8688 1.0380
C16 C 0.3050(4) 0.7504(3) 0.9328(2)
C17 C 0.1992(3) 0.7243(3) 0.86646(19)
C18 C 0.4110(4) 0.6759(4) 0.9343(2)
H12 H 0.4778 0.6892 0.9786
C19 C 0.4159(4) 0.5872(4) 0.8729(3)
H13 H 0.4870 0.5414 0.8753
C20 C 0.3133(4) 0.5618(3) 0.8036(2)
C21 C 0.2025(4) 0.6265(3) 0.8018(2)
C22 C 0.3174(4) 0.4744(4) 0.7350(3)
H14 H 0.3913 0.4317 0.7325
C23 C 0.2129(4) 0.4535(4) 0.6731(2)
H15 H 0.2152 0.3969 0.6280
C24 C 0.1019(4) 0.5180(4) 0.6780(2)
H16 H 0.0292 0.5009 0.6363
C25 C -0.2079(4) 0.6296(3) 0.58320(19)
C26 C -0.3608(4) 0.5627(3) 0.54009(18)
C27 C -0.3901(4) 0.4358(3) 0.49997(18)
C28 C -0.5283(4) 0.3736(3) 0.46035(19)
C29 C -0.2277(4) 0.4909(3) 0.87272(19)
C30 C -0.1071(4) 0.4972(3) 0.93830(18)
C31 C -0.0169(4) 0.4133(3) 0.93130(18)
C32 C 0.0897(3) 0.4163(3) 0.99213(19)
Cl1 Cl -0.25278(10) 0.35567(9) 0.49994(5)
Cl2 Cl -0.56490(11) 0.21514(9) 0.41033(6)
Cl3 Cl -0.03733(10) 0.30527(8) 0.84486(5)
Cl4 Cl 0.20433(10) 0.31306(8) 0.98133(5)
N1 N -0.1787(3) 0.8568(3) 0.76762(17)
N2 N 0.0652(3) 0.8757(2) 0.68320(16)
N3 N 0.0948(3) 0.7900(3) 0.86071(16)
N4 N 0.0967(3) 0.6029(3) 0.74029(17)
O1 O -0.2005(3) 0.6083(2) 0.65674(13)
O2 O -0.1111(3) 0.6940(3) 0.54340(15)
O3 O -0.2048(3) 0.5824(2) 0.82648(13)
O4 O -0.3409(3) 0.3937(2) 0.87093(15)
C25A C -0.7921(4) 0.3704(3) 0.41680(19)
C26A C -0.6392(4) 0.4373(3) 0.45991(18)
C27A C -0.6099(4) 0.5642(3) 0.50003(18)
C28A C -0.4717(4) 0.6264(3) 0.53965(19)
Cl1A Cl -0.74722(10) 0.64433(9) 0.50006(5)
Cl2A Cl -0.43510(11) 0.78486(9) 0.58967(6)
O1A O -0.7995(3) 0.3917(2) 0.34326(13)
O2A O -0.8889(3) 0.3060(3) 0.45660(15)
C29A C 0.2277(4) 0.5091(3) 1.12728(19)
C30A C 0.1071(4) 0.5028(3) 1.06170(18)
C31A C 0.0169(4) 0.5867(3) 1.06870(18)
C32A C -0.0897(3) 0.5837(3) 1.00787(19)
Cl3A Cl 0.03733(10) 0.69473(8) 1.15514(5)
Cl4A Cl -0.20433(10) 0.68694(8) 1.01867(5)
O3A O 0.2048(3) 0.4176(2) 1.17352(13)
O4A O 0.3409(3) 0.6063(2) 1.12907(15)
Zn1A Zn -0.94148(4) 0.28703(3) 0.24643(2)
C1A C -0.7026(4) 0.1527(3) 0.1900(2)
H1A H -0.6749 0.2218 0.1564
C2A C -0.6176(4) 0.0628(4) 0.1941(2)
H2A H -0.5370 0.0711 0.1625
C3A C -0.6549(4) -0.0379(3) 0.2453(2)
H3A H -0.5987 -0.0974 0.2494
C4A C -0.7788(4) -0.0500(3) 0.29140(19)
C5A C -0.8604(4) 0.0426(3) 0.28222(19)
C6A C -0.8228(4) -0.1494(3) 0.3474(2)
H4A H -0.7684 -0.2099 0.3539
C7A C -0.9421(4) -0.1570(3) 0.3911(2)
H5A H -0.9675 -0.2216 0.4278
C8A C -1.0308(4) -0.0662(3) 0.38172(19)
C9A C -0.9898(4) 0.0333(3) 0.32764(19)
C10A C -1.1581(4) -0.0714(4) 0.4240(2)
H6A H -1.1895 -0.1358 0.4604
C11A C -1.2362(4) 0.0198(4) 0.4112(2)
H7A H -1.3213 0.0170 0.4381
C12A C -1.1843(4) 0.1155(3) 0.3573(2)
H8A H -1.2367 0.1771 0.3493
C13A C -1.0940(4) 0.1160(3) 0.0815(2)
H9A H -1.0238 0.0697 0.0861
C14A C -1.1948(4) 0.0837(4) 0.0137(2)
H10A H -1.1906 0.0177 -0.0257
C15A C -1.2988(4) 0.1508(4) 0.0067(2)
H11A H -1.3656 0.1312 -0.0380
C16A C -1.3050(4) 0.2496(3) 0.0672(2)
C17A C -1.1992(3) 0.2757(3) 0.13354(19)
C18A C -1.4110(4) 0.3241(4) 0.0657(2)
H12A H -1.4778 0.3108 0.0214
C19A C -1.4159(4) 0.4128(4) 0.1271(3)
H13A H -1.4870 0.4586 0.1247
C20A C -1.3133(4) 0.4382(3) 0.1964(2)
C21A C -1.2025(4) 0.3735(3) 0.1982(2)
C22A C -1.3174(4) 0.5256(4) 0.2650(3)
H14A H -1.3913 0.5683 0.2675
C23A C -1.2129(4) 0.5465(4) 0.3269(2)
H15A H -1.2152 0.6031 0.3720
C24A C -1.1019(4) 0.4820(4) 0.3220(2)
H16A H -1.0292 0.4991 0.3637
N1A N -0.8213(3) 0.1432(3) 0.23238(17)
N2A N -1.0652(3) 0.1243(2) 0.31680(16)
N3A N -1.0948(3) 0.2100(3) 0.13929(16)
N4A N -1.0967(3) 0.3971(3) 0.25971(17)
Zn1A_2 Zn 0.05852(4) 0.28703(3) 1.24643(2)
O3A_2 O -0.7952(3) 0.4176(2) 0.17352(13)
C33 C 0.3159(5) 0.1450(4) 0.8096(3)
H17 H 0.2598 0.2078 0.8177
H18 H 0.2505 0.0553 0.8067
H19 H 0.3650 0.1593 0.7604
O5 O 0.4220(3) 0.1635(3) 0.87418(19)
H20 H 0.4866 0.2347 0.8718
O6 O 0.6045(3) 0.3527(2) 0.69748(16)
H21 H 0.6087 0.3401 0.7453
H22 H 0.6471 0.4254 0.6813
loop_
_geom_bond_atom_site_label_1
_geom_bond_atom_site_label_2
_geom_bond_site_symmetry_1
_geom_bond_site_symmetry_2
Zn1 N1 1_555 1_555
C1 H1 1_555 1_555
C2 C1 1_555 1_555
H2 C2 1_555 1_555
C3 C2 1_555 1_555
H3 C3 1_555 1_555
C4 C3 1_555 1_555
C5 C4 1_555 1_555
C6 C4 1_555 1_555
H4 C6 1_555 1_555
C7 C6 1_555 1_555
H5 C7 1_555 1_555
C8 C7 1_555 1_555
C9 C5 1_555 1_555
C10 C8 1_555 1_555
H6 C10 1_555 1_555
C11 C10 1_555 1_555
H7 C11 1_555 1_555
C12 C11 1_555 1_555
H8 C12 1_555 1_555
C13 H9 1_555 1_555
C14 C13 1_555 1_555
H10 C14 1_555 1_555
C15 C14 1_555 1_555
H11 C15 1_555 1_555
C16 C15 1_555 1_555
C17 C16 1_555 1_555
C18 C16 1_555 1_555
H12 C18 1_555 1_555
C19 C18 1_555 1_555
H13 C19 1_555 1_555
C20 C19 1_555 1_555
C21 C17 1_555 1_555
C22 C20 1_555 1_555
H14 C22 1_555 1_555
C23 C22 1_555 1_555
H15 C23 1_555 1_555
C24 C23 1_555 1_555
H16 C24 1_555 1_555
C25 C26 1_555 1_555
C26 C27 1_555 1_555
C27 C28 1_555 1_555
C28 Cl2 1_555 1_555
C29 C30 1_555 1_555
C30 C31 1_555 1_555
C31 C32 1_555 1_555
C32 Cl4 1_555 1_555
Cl1 C27 1_555 1_555
Cl3 C31 1_555 1_555
N1 C1 1_555 1_555
N2 Zn1 1_555 1_555
N3 Zn1 1_555 1_555
N4 Zn1 1_555 1_555
O1 Zn1 1_555 1_555
O2 C25 1_555 1_555
O3 Zn1 1_555 1_555
O4 C29 1_555 1_555
C33 H17 1_555 1_555
H18 C33 1_555 1_555
H19 C33 1_555 1_555
O5 C33 1_555 1_555
H20 O5 1_555 1_555
O6 H21 1_555 1_555
H22 O6 1_555 1_555
C25A C26A 1_555 1_555
C26A C28 1_555 1_555
C27A C26A 1_555 1_555
C28A C26 1_555 1_555
Cl1A C27A 1_555 1_555
Cl2A C28A 1_555 1_555
O1A C25A 1_555 1_555
O2A C25A 1_555 1_555
C29A C30A 1_555 1_555
C30A C32 1_555 1_555
C31A C30A 1_555 1_555
C32A C30 1_555 1_555
Cl3A C31A 1_555 1_555
Cl4A C32A 1_555 1_555
O3A C29A 1_555 1_555
O4A C29A 1_555 1_555
Zn1A O1A 1_555 1_555
C1A H1A 1_555 1_555
C2A C1A 1_555 1_555
H2A C2A 1_555 1_555
C3A C2A 1_555 1_555
H3A C3A 1_555 1_555
C4A C3A 1_555 1_555
C5A C4A 1_555 1_555
C6A C4A 1_555 1_555
H4A C6A 1_555 1_555
C7A C6A 1_555 1_555
H5A C7A 1_555 1_555
C8A C7A 1_555 1_555
C9A C5A 1_555 1_555
C10A C8A 1_555 1_555
H6A C10A 1_555 1_555
C11A C10A 1_555 1_555
H7A C11A 1_555 1_555
C12A C11A 1_555 1_555
H8A C12A 1_555 1_555
C13A H9A 1_555 1_555
C14A C13A 1_555 1_555
H10A C14A 1_555 1_555
C15A C14A 1_555 1_555
H11A C15A 1_555 1_555
C16A C15A 1_555 1_555
C17A C16A 1_555 1_555
C18A C16A 1_555 1_555
H12A C18A 1_555 1_555
C19A C18A 1_555 1_555
H13A C19A 1_555 1_555
C20A C19A 1_555 1_555
C21A C17A 1_555 1_555
C22A C20A 1_555 1_555
H14A C22A 1_555 1_555
C23A C22A 1_555 1_555
H15A C23A 1_555 1_555
C24A C23A 1_555 1_555
H16A C24A 1_555 1_555
N1A Zn1A 1_555 1_555
N2A Zn1A 1_555 1_555
N3A Zn1A 1_555 1_555
N4A Zn1A 1_555 1_555
Zn1A_2 O3A 1_555 1_555
O3A_2 Zn1A 1_555 1_555
C5 N1 1_555 1_555
C8 C9 1_555 1_555
C9 N2 1_555 1_555
C12 N2 1_555 1_555
C13 N3 1_555 1_555
C17 N3 1_555 1_555
C20 C21 1_555 1_555
C21 N4 1_555 1_555
C24 N4 1_555 1_555
C25 O1 1_555 1_555
C29 O3 1_555 1_555
C27A C28A 1_555 1_555
C31A C32A 1_555 1_555
C1A N1A 1_555 1_555
C5A N1A 1_555 1_555
C8A C9A 1_555 1_555
C9A N2A 1_555 1_555
C12A N2A 1_555 1_555
C13A N3A 1_555 1_555
C17A N3A 1_555 1_555
C20A C21A 1_555 1_555
C21A N4A 1_555 1_555
C24A N4A 1_555 1_555

#END
