
#######################################################################
#
#                 Cambridge Crystallographic Data Centre
#                                CCDC 
#
#######################################################################
#
# If this CIF has been generated from an entry in the Cambridge 
# Structural Database, then it will include bibliographic, chemical, 
# crystal, experimental, refinement or atomic coordinate data resulting 
# from the CCDC's data processing and validation procedures.
#
#######################################################################

data_MIWSES
_symmetry_cell_setting           orthorhombic
_symmetry_space_group_name_H-M   'P c c n'
_symmetry_Int_Tables_number      56
_space_group_name_Hall           '-P 2ab 2ac'
loop_
_symmetry_equiv_pos_site_id
_symmetry_equiv_pos_as_xyz
1 x,y,z
2 1/2-x,1/2-y,z
3 1/2+x,-y,1/2-z
4 -x,1/2+y,1/2-z
5 -x,-y,-z
6 1/2+x,1/2+y,-z
7 1/2-x,y,1/2+z
8 x,1/2-y,1/2+z
_cell_length_a                   8.0133(7)
_cell_length_b                   11.2963(4)
_cell_length_c                   19.9503(13)
_cell_angle_alpha                90
_cell_angle_beta                 90
_cell_angle_gamma                90
_cell_volume                     1805.91
loop_
_atom_site_label
_atom_site_type_symbol
_atom_site_fract_x
_atom_site_fract_y
_atom_site_fract_z
O4 O 0.7047(5) 0.9468(3) 0.30021(15)
H9 H 0.748(8) 0.974(6) 0.268(3)
H10 H 0.591(8) 0.951(5) 0.293(3)
O5 O 0.7500 0.7500 0.3749(2)
H11 H 0.734(7) 0.810(5) 0.347(2)
H11A H 0.766(7) 0.690(5) 0.347(2)
Zn1 Zn 0.7500 0.2500 0.58153(3)
N1 N 0.8633(5) 0.0509(3) 0.43191(19)
N2 N 0.9702(5) 0.1997(3) 0.53750(17)
O1 O 0.8139(9) 0.2359(7) 0.6793(2)
O2 O 1.1828(4) 0.5677(2) 0.42081(12)
O3 O 1.1475(4) 0.5358(3) 0.31178(13)
C1 C 1.1441(6) 0.5014(4) 0.37244(18)
C2 C 0.9938(5) 0.2350(3) 0.46812(17)
C3 C 1.0633(5) 0.3429(3) 0.45324(18)
H1 H 1.0985 0.3921 0.4879
C4 C 1.0819(5) 0.3798(4) 0.38733(18)
C5 C 1.0338(6) 0.3033(4) 0.33623(19)
H2 H 1.0499 0.3252 0.2918
C6 C 0.9629(6) 0.1958(4) 0.35076(19)
H3 H 0.9318 0.1458 0.3159
C7 C 0.9365(5) 0.1599(3) 0.41704(19)
H4 H 1.041(6) 0.229(4) 0.563(2)
H5 H 0.802(5) 0.048(4) 0.467(2)
H6 H 0.818(6) 0.026(4) 0.396(2)
H7 H 0.957(7) 0.121(5) 0.542(3)
H8 H 0.733(8) 0.188(5) 0.693(2)
O1A O 0.6861(9) 0.2641(7) 0.6793(2)
H8A H 0.767(8) 0.312(5) 0.693(2)
N1A N 0.6367(5) 0.4491(3) 0.43191(19)
N2A N 0.5298(5) 0.3003(3) 0.53750(17)
O2A O 0.3172(4) -0.0677(2) 0.42081(12)
O3A O 0.3525(4) -0.0358(3) 0.31178(13)
C1A C 0.3559(6) -0.0014(4) 0.37244(18)
C2A C 0.5062(5) 0.2650(3) 0.46812(17)
C3A C 0.4367(5) 0.1571(3) 0.45324(18)
H1A H 0.4015 0.1079 0.4879
C4A C 0.4181(5) 0.1202(4) 0.38733(18)
C5A C 0.4662(6) 0.1967(4) 0.33623(19)
H2A H 0.4501 0.1748 0.2918
C6A C 0.5371(6) 0.3042(4) 0.35076(19)
H3A H 0.5682 0.3542 0.3159
C7A C 0.5635(5) 0.3401(3) 0.41704(19)
H4A H 0.459(6) 0.271(4) 0.563(2)
H5A H 0.698(5) 0.452(4) 0.467(2)
H6A H 0.682(6) 0.474(4) 0.396(2)
H7A H 0.543(7) 0.379(5) 0.542(3)
Zn1D Zn 0.2500 -0.2500 0.41847(3)
Zn1D_2 Zn 1.2500 0.7500 0.41847(3)
O2D O 0.8172(4) 0.4323(2) 0.57919(12)
O2E O 0.6828(4) 0.0677(2) 0.57919(12)
loop_
_geom_bond_atom_site_label_1
_geom_bond_atom_site_label_2
_geom_bond_site_symmetry_1
_geom_bond_site_symmetry_2
Zn1 N2 1_555 1_555
N1 C7 1_555 1_555
N2 C2 1_555 1_555
O1 Zn1 1_555 1_555
O2 C1 1_555 1_555
O3 C1 1_555 1_555
C1 C4 1_555 1_555
C2 C3 1_555 1_555
C3 H1 1_555 1_555
C4 C3 1_555 1_555
C5 C4 1_555 1_555
H2 C5 1_555 1_555
C6 C5 1_555 1_555
H3 C6 1_555 1_555
C7 C2 1_555 1_555
H4 N2 1_555 1_555
H5 N1 1_555 1_555
H6 N1 1_555 1_555
H7 N2 1_555 1_555
H8 O1 1_555 1_555
O4 H9 1_555 1_555
H10 O4 1_555 1_555
O5 H11 1_555 1_555
O1A Zn1 1_555 1_555
H8A O1 1_555 1_555
N1A C7A 1_555 1_555
N2A Zn1 1_555 1_555
O2A C1A 1_555 1_555
O3A C1A 1_555 1_555
C1A C4A 1_555 1_555
C2A N2A 1_555 1_555
C3A C2A 1_555 1_555
H1A C3A 1_555 1_555
C4A C3A 1_555 1_555
C5A C4A 1_555 1_555
H2A C5A 1_555 1_555
C6A C5A 1_555 1_555
H3A C6A 1_555 1_555
C7A C2A 1_555 1_555
H4A N2A 1_555 1_555
H5A N1A 1_555 1_555
H6A N1A 1_555 1_555
H7A N2A 1_555 1_555
Zn1D O2A 1_555 1_555
Zn1D_2 O2 1_555 1_555
O2D Zn1 1_555 1_555
O2E Zn1 1_555 1_555
H11A O5 1_555 1_555
O1 O1A 1_555 1_555
C6 C7 1_555 1_555
H8 O1A 1_555 1_555
O1A H8A 1_555 1_555
C6A C7A 1_555 1_555

#END
