
#######################################################################
#
#                 Cambridge Crystallographic Data Centre
#                                CCDC 
#
#######################################################################
#
# If this CIF has been generated from an entry in the Cambridge 
# Structural Database, then it will include bibliographic, chemical, 
# crystal, experimental, refinement or atomic coordinate data resulting 
# from the CCDC's data processing and validation procedures.
#
#######################################################################

data_MIWTAP
_symmetry_cell_setting           triclinic
_symmetry_space_group_name_H-M   'P -1'
_symmetry_Int_Tables_number      2
_space_group_name_Hall           '-P 1'
loop_
_symmetry_equiv_pos_site_id
_symmetry_equiv_pos_as_xyz
1 x,y,z
2 -x,-y,-z
_cell_length_a                   9.404(2)
_cell_length_b                   11.9230(17)
_cell_length_c                   14.556(3)
_cell_angle_alpha                77.240(10)
_cell_angle_beta                 84.170(10)
_cell_angle_gamma                72.490(10)
_cell_volume                     1516.93
loop_
_atom_site_label
_atom_site_type_symbol
_atom_site_fract_x
_atom_site_fract_y
_atom_site_fract_z
Zn1 Zn 0.07093(3) 0.26435(3) 0.637667(19)
O1 O 0.1630(3) 0.1006(2) 0.57971(14)
O2 O 0.1630(2) 0.27206(18) 0.49538(17)
O3 O 0.1007(2) 0.40712(15) 0.66777(12)
O4 O 0.3322(2) 0.31332(15) 0.71263(14)
N1 N -0.1462(2) 0.34462(17) 0.59600(13)
N2 N 0.0494(2) 0.15942(17) 0.76879(13)
N3 N 0.5214(4) -0.0575(3) 0.2100(2)
N4 N 0.3120(4) 0.8574(2) 0.6950(2)
C1 C 0.1958(3) 0.1613(3) 0.5044(2)
C2 C 0.2765(3) 0.1042(2) 0.42617(17)
C3 C 0.3646(4) -0.0139(2) 0.44277(19)
H1 H 0.3688 -0.059 0.5039
C4 C 0.4460(4) -0.0665(2) 0.37172(19)
H2 H 0.5075 -0.1449 0.3859
C5 C 0.4377(3) -0.0042(2) 0.27961(17)
C6 C 0.3481(3) 0.1139(3) 0.26185(19)
H3 H 0.339 0.1575 0.2002
C7 C 0.2723(3) 0.1674(2) 0.33460(19)
H4 H 0.2173 0.2479 0.3214
C8 C 0.2289(3) 0.4058(2) 0.69168(15)
C9 C 0.2478(2) 0.5247(2) 0.69352(14)
C10 C 0.1396(3) 0.6316(2) 0.66178(16)
H5 H 0.051 0.6291 0.6403
C11 C 0.1605(3) 0.7411(2) 0.66139(17)
H6 H 0.0856 0.8111 0.6402
C12 C 0.2919(3) 0.7486(2) 0.69223(16)
C13 C 0.4022(3) 0.6413(2) 0.72386(17)
H7 H 0.4913 0.6435 0.7448
C14 C 0.3790(3) 0.5323(2) 0.72409(15)
H8 H 0.4535 0.4619 0.7453
C15 C -0.2379(3) 0.2870(2) 0.5782(2)
H9 H -0.2072 0.2035 0.5918
C16 C -0.3758(3) 0.3441(2) 0.5409(2)
H10 H -0.4355 0.2993 0.5295
C17 C -0.4257(2) 0.4677(2) 0.52034(15)
C18 C -0.3301(3) 0.5274(2) 0.53816(17)
H11 H -0.3584 0.6108 0.5252
C19 C -0.1936(3) 0.4645(2) 0.57492(18)
H12 H -0.131 0.5073 0.5857
C20 C -0.0015(3) 0.0642(2) 0.78397(17)
H13 H -0.0238 0.0399 0.732
C21 C -0.0230(3) -0.0008(2) 0.87248(17)
H14 H -0.0598 -0.0665 0.8793
C22 C 0.0106(3) 0.03275(19) 0.95144(15)
C23 C 0.0652(3) 0.1309(2) 0.93540(16)
H15 H 0.0902 0.1566 0.9858
C24 C 0.0827(3) 0.1907(2) 0.84424(16)
H16 H 0.1198 0.2565 0.8351
H17 H 0.261(4) 0.916(3) 0.663(3)
H18 H 0.577(4) -0.132(3) 0.225(2)
H19 H 0.500(4) -0.019(3) 0.153(3)
H20 H 0.401(4) 0.855(3) 0.701(2)
N1A N -0.8538(2) 0.65538(17) 0.40400(13)
C15A C -0.7621(3) 0.7130(2) 0.4218(2)
H9A H -0.7928 0.7965 0.4082
C16A C -0.6242(3) 0.6559(2) 0.4591(2)
H10A H -0.5645 0.7007 0.4705
C17A C -0.5743(2) 0.5323(2) 0.47966(15)
C18A C -0.6699(3) 0.4726(2) 0.46184(17)
H11A H -0.6416 0.3892 0.4748
C19A C -0.8064(3) 0.5355(2) 0.42508(18)
H12A H -0.869 0.4927 0.4143
N2A N -0.0494(2) -0.15942(17) 1.23121(13)
C20A C 0.0015(3) -0.0642(2) 1.21603(17)
H13A H 0.0238 -0.0399 1.268
C21A C 0.0230(3) 0.0008(2) 1.12752(17)
H14A H 0.0598 0.0665 1.1207
C22A C -0.0106(3) -0.03275(19) 1.04856(15)
C23A C -0.0652(3) -0.1309(2) 1.06460(16)
H15A H -0.0902 -0.1566 1.0142
C24A C -0.0827(3) -0.1907(2) 1.15576(16)
H16A H -0.1198 -0.2565 1.1649
Zn1A Zn -1.07093(3) 0.73565(3) 0.362333(19)
O1A O -1.1630(3) 0.8994(2) 0.42029(14)
O2A O -1.1630(2) 0.72794(18) 0.50462(17)
O3A O -1.1007(2) 0.59288(15) 0.33223(12)
O4A O -1.3322(2) 0.68668(15) 0.28737(14)
N3A N -1.5214(4) 1.0575(3) 0.7900(2)
N4A N -1.3120(4) 0.1426(2) 0.3050(2)
C1A C -1.1958(3) 0.8387(3) 0.4956(2)
C2A C -1.2765(3) 0.8958(2) 0.57383(17)
C3A C -1.3646(4) 1.0139(2) 0.55723(19)
H1A H -1.3688 1.059 0.4961
C4A C -1.4460(4) 1.0665(2) 0.62828(19)
H2A H -1.5075 1.1449 0.6141
C5A C -1.4377(3) 1.0042(2) 0.72039(17)
C6A C -1.3481(3) 0.8861(3) 0.73815(19)
H3A H -1.339 0.8425 0.7998
C7A C -1.2723(3) 0.8326(2) 0.66540(19)
H4A H -1.2173 0.7521 0.6786
C8A C -1.2289(3) 0.5942(2) 0.30832(15)
C9A C -1.2478(2) 0.4753(2) 0.30648(14)
C10A C -1.1396(3) 0.3684(2) 0.33822(16)
H5A H -1.051 0.3709 0.3597
C11A C -1.1605(3) 0.2589(2) 0.33861(17)
H6A H -1.0856 0.1889 0.3598
C12A C -1.2919(3) 0.2514(2) 0.30777(16)
C13A C -1.4022(3) 0.3587(2) 0.27614(17)
H7A H -1.4913 0.3565 0.2552
C14A C -1.3790(3) 0.4677(2) 0.27591(15)
H8A H -1.4535 0.5381 0.2547
H17A H -1.261(4) 0.084(3) 0.337(3)
H18A H -1.577(4) 1.132(3) 0.775(2)
H19A H -1.500(4) 1.019(3) 0.847(3)
H20A H -1.401(4) 0.145(3) 0.299(2)
Zn1A_2 Zn -0.07093(3) -0.26435(3) 1.362333(19)
N2A_2 N -1.0494(2) 0.84058(17) 0.23121(13)
O5 O -0.4174(6) -0.0435(5) 0.9890(4)
N5 N -0.3683(3) 0.1759(2) 0.9648(2)
N6 N -0.1394(3) 0.6973(2) 0.93985(16)
C25 C -0.2263(3) 0.4891(2) 0.94684(17)
C26 C -0.1232(3) 0.5224(2) 0.87950(18)
H21 H -0.0816 0.4763 0.8344
C27 C -0.0827(3) 0.6240(3) 0.87981(19)
H22 H -0.011 0.6427 0.8352
C28 C -0.2398(3) 0.6659(3) 1.0034(2)
H23 H -0.2824 0.7157 1.0459
C29 C -0.2852(3) 0.5642(3) 1.01043(19)
H24 H -0.3544 0.5462 1.0573
C30 C -0.2718(3) 0.3799(2) 0.95245(18)
C31 C -0.2975(3) 0.3438(2) 0.8726(2)
H25 H -0.2817 0.3872 0.813
C32 C -0.3461(3) 0.2441(3) 0.8820(2)
H26 H -0.3647 0.223 0.8276
C33 C -0.3396(3) 0.2084(3) 1.0411(3)
H27 H -0.3518 0.1609 1.0996
C34 C -0.2926(3) 0.3084(3) 1.0387(2)
H28 H -0.2753 0.3274 1.0943
H29? H -0.538(6) -0.046(4) 1.012(3)
loop_
_geom_bond_atom_site_label_1
_geom_bond_atom_site_label_2
_geom_bond_site_symmetry_1
_geom_bond_site_symmetry_2
Zn1 O1 1_555 1_555
O1 C1 1_555 1_555
O2 Zn1 1_555 1_555
O3 Zn1 1_555 1_555
O4 C8 1_555 1_555
N1 Zn1 1_555 1_555
N2 Zn1 1_555 1_555
N3 C5 1_555 1_555
N4 C12 1_555 1_555
C1 O2 1_555 1_555
C2 C1 1_555 1_555
C3 C2 1_555 1_555
H1 C3 1_555 1_555
C4 C3 1_555 1_555
H2 C4 1_555 1_555
C5 C4 1_555 1_555
C6 C5 1_555 1_555
H3 C6 1_555 1_555
C7 C2 1_555 1_555
H4 C7 1_555 1_555
C8 O3 1_555 1_555
C9 C8 1_555 1_555
C10 C9 1_555 1_555
H5 C10 1_555 1_555
C11 C10 1_555 1_555
H6 C11 1_555 1_555
C12 C11 1_555 1_555
C13 C12 1_555 1_555
H7 C13 1_555 1_555
C14 C9 1_555 1_555
H8 C14 1_555 1_555
C15 N1 1_555 1_555
H9 C15 1_555 1_555
C16 C15 1_555 1_555
H10 C16 1_555 1_555
C17 C16 1_555 1_555
C18 C17 1_555 1_555
H11 C18 1_555 1_555
C19 N1 1_555 1_555
H12 C19 1_555 1_555
C20 N2 1_555 1_555
H13 C20 1_555 1_555
C21 C20 1_555 1_555
H14 C21 1_555 1_555
C22 C21 1_555 1_555
C23 C22 1_555 1_555
H15 C23 1_555 1_555
C24 N2 1_555 1_555
H16 C24 1_555 1_555
H17 N4 1_555 1_555
H18 N3 1_555 1_555
H19 N3 1_555 1_555
H20 N4 1_555 1_555
N5 C32 1_555 1_555
N6 C27 1_555 1_555
C25 C26 1_555 1_555
C26 H21 1_555 1_555
C27 C26 1_555 1_555
H22 C27 1_555 1_555
C28 N6 1_555 1_555
H23 C28 1_555 1_555
C29 C25 1_555 1_555
H24 C29 1_555 1_555
C30 C25 1_555 1_555
C31 C30 1_555 1_555
H25 C31 1_555 1_555
C32 C31 1_555 1_555
H26 C32 1_555 1_555
C33 N5 1_555 1_555
H27 C33 1_555 1_555
C34 C30 1_555 1_555
H28 C34 1_555 1_555
N1A C15A 1_555 1_555
C15A H9A 1_555 1_555
C16A C15A 1_555 1_555
H10A C16A 1_555 1_555
C17A C17 1_555 1_555
C18A C17A 1_555 1_555
H11A C18A 1_555 1_555
C19A N1A 1_555 1_555
H12A C19A 1_555 1_555
N2A C20A 1_555 1_555
C20A H13A 1_555 1_555
C21A C20A 1_555 1_555
H14A C21A 1_555 1_555
C22A C22 1_555 1_555
C23A C22A 1_555 1_555
H15A C23A 1_555 1_555
C24A N2A 1_555 1_555
H16A C24A 1_555 1_555
Zn1A N1A 1_555 1_555
O1A Zn1A 1_555 1_555
O2A Zn1A 1_555 1_555
O3A Zn1A 1_555 1_555
O4A C8A 1_555 1_555
N3A C5A 1_555 1_555
N4A C12A 1_555 1_555
C1A O1A 1_555 1_555
C2A C1A 1_555 1_555
C3A C2A 1_555 1_555
H1A C3A 1_555 1_555
C4A C3A 1_555 1_555
H2A C4A 1_555 1_555
C5A C4A 1_555 1_555
C6A C5A 1_555 1_555
H3A C6A 1_555 1_555
C7A C2A 1_555 1_555
H4A C7A 1_555 1_555
C8A O3A 1_555 1_555
C9A C8A 1_555 1_555
C10A C9A 1_555 1_555
H5A C10A 1_555 1_555
C11A C10A 1_555 1_555
H6A C11A 1_555 1_555
C12A C11A 1_555 1_555
C13A C12A 1_555 1_555
H7A C13A 1_555 1_555
C14A C9A 1_555 1_555
H8A C14A 1_555 1_555
H17A N4A 1_555 1_555
H18A N3A 1_555 1_555
H19A N3A 1_555 1_555
H20A N4A 1_555 1_555
Zn1A_2 N2A 1_555 1_555
N2A_2 Zn1A 1_555 1_555
C6 C7 1_555 1_555
C13 C14 1_555 1_555
C18 C19 1_555 1_555
C23 C24 1_555 1_555
C28 C29 1_555 1_555
C33 C34 1_555 1_555
C16A C17A 1_555 1_555
C18A C19A 1_555 1_555
C21A C22A 1_555 1_555
C23A C24A 1_555 1_555
O2A C1A 1_555 1_555
C6A C7A 1_555 1_555
C13A C14A 1_555 1_555

#END
