
#######################################################################
#
#                 Cambridge Crystallographic Data Centre
#                                CCDC 
#
#######################################################################
#
# If this CIF has been generated from an entry in the Cambridge 
# Structural Database, then it will include bibliographic, chemical, 
# crystal, experimental, refinement or atomic coordinate data resulting 
# from the CCDC's data processing and validation procedures.
#
#######################################################################

data_MIWZEZ
_symmetry_cell_setting           monoclinic
_symmetry_space_group_name_H-M   'P 21/n'
_symmetry_Int_Tables_number      14
_space_group_name_Hall           '-P 2yn'
loop_
_symmetry_equiv_pos_site_id
_symmetry_equiv_pos_as_xyz
1 x,y,z
2 1/2-x,1/2+y,1/2-z
3 -x,-y,-z
4 1/2+x,1/2-y,1/2+z
_cell_length_a                   11.819(3)
_cell_length_b                   13.591(3)
_cell_length_c                   19.602(4)
_cell_angle_alpha                90
_cell_angle_beta                 107.443(4)
_cell_angle_gamma                90
_cell_volume                     3003.92
loop_
_atom_site_label
_atom_site_type_symbol
_atom_site_fract_x
_atom_site_fract_y
_atom_site_fract_z
Cd1 Cd 0.15850(2) -0.22250(2) 0.293950(16)
Cd2 Cd 0.25720(2) 0.03686(2) 0.250103(15)
O1 O 0.0241(3) -0.1035(2) 0.26335(17)
O2 O 0.0834(3) 0.0533(2) 0.27595(17)
O3 O -0.5567(2) 0.0147(2) 0.23802(15)
O4 O -0.5091(3) 0.1746(2) 0.24702(17)
O5 O 0.3413(3) 0.1099(2) 0.35976(15)
O6 O 0.2891(2) 0.2553(2) 0.30799(15)
O7 O 0.7044(2) 0.3432(2) 0.66095(13)
O8 O 0.6182(2) 0.4854(2) 0.63377(15)
O9 O 0.1369(2) -0.2113(2) 0.40851(15)
O10 O -0.6971(2) -0.10679(19) 0.31586(14)
N1 N 0.0241(3) -0.2049(3) 0.40831(17)
N2 N -0.5808(3) -0.1319(2) 0.33682(17)
C1 C 0.0081(4) -0.0134(4) 0.2697(2)
C2 C -0.4836(4) 0.0850(4) 0.2489(2)
C3 C -0.1171(3) 0.0156(3) 0.2685(2)
C4 C -0.2086(3) -0.0398(3) 0.2272(2)
H1 H -0.1928 -0.0928 0.2014
C5 C -0.3271(4) -0.0171(3) 0.2233(2)
H2 H -0.3881 -0.0556 0.1948
C6 C -0.3544(3) 0.0596(3) 0.2601(2)
C7 C -0.2605(3) 0.1166(3) 0.3069(2)
C8 C -0.2806(4) 0.1912(3) 0.3526(2)
H3 H -0.3580 0.2077 0.3501
C9 C -0.1900(5) 0.2386(4) 0.3994(3)
H4 H -0.2058 0.2858 0.4296
C10 C -0.0730(4) 0.2177(4) 0.4029(3)
H5 H -0.0113 0.2518 0.4349
C11 C -0.0482(4) 0.1479(3) 0.3600(2)
H6 H 0.0303 0.1352 0.3628
C12 C -0.1402(3) 0.0939(3) 0.3108(2)
C13 C 0.3383(4) 0.2020(3) 0.3608(2)
C14 C 0.6255(3) 0.3979(3) 0.6190(2)
C15 C 0.4034(3) 0.2532(3) 0.4305(2)
C16 C 0.5176(4) 0.2250(3) 0.4628(2)
H7 H 0.5496 0.1727 0.4442
C17 C 0.5870(3) 0.2740(3) 0.5234(2)
H8 H 0.6651 0.2542 0.5439
C18 C 0.5434(3) 0.3504(3) 0.5535(2)
C19 C 0.4226(3) 0.3809(3) 0.5223(2)
C20 C 0.3690(4) 0.4571(3) 0.5508(2)
H9 H 0.4138 0.4909 0.5911
C21 C 0.2531(4) 0.4819(3) 0.5205(3)
H10 H 0.2198 0.5317 0.5408
C22 C 0.1840(4) 0.4336(4) 0.4595(3)
H11 H 0.1052 0.4517 0.4390
C23 C 0.2319(4) 0.3598(3) 0.4300(2)
H12 H 0.1849 0.3278 0.3895
C24 C 0.3518(3) 0.3307(3) 0.4598(2)
C25 C -0.1654(4) -0.2777(3) 0.3841(2)
H13 H -0.2132 -0.3332 0.3719
C26 C -0.0453(4) -0.2832(3) 0.3926(2)
H14 H -0.0123 -0.3437 0.3870
C27 C -0.0188(4) -0.1187(3) 0.4226(2)
H15 H 0.0317 -0.0651 0.4364
C28 C -0.1377(3) -0.1090(3) 0.4170(2)
H16 H -0.1664 -0.0495 0.4285
C29 C -0.2138(3) -0.1874(3) 0.3943(2)
C30 C -0.3432(3) -0.1732(3) 0.3770(2)
C31 C -0.4218(3) -0.2209(3) 0.3203(2)
H17 H -0.3937 -0.2686 0.2955
C32 C -0.5410(4) -0.1993(3) 0.2997(2)
H18 H -0.5930 -0.2310 0.2607
C33 C -0.5088(3) -0.0852(3) 0.3931(2)
H19 H -0.5397 -0.0399 0.4183
C34 C -0.3888(3) -0.1039(3) 0.4138(2)
H20 H -0.3384 -0.0703 0.4524
Cd1_2 Cd -0.84150(2) -0.22250(2) 0.293950(16)
Cd1A Cd -0.65850(2) 0.27750(2) 0.206050(16)
Cd1A_2 Cd 0.34150(2) 0.27750(2) 0.206050(16)
Cd1B Cd 0.84150(2) 0.22250(2) 0.706050(16)
Cd2_2 Cd -0.74280(2) 0.03686(2) 0.250103(15)
Cd2C Cd 0.75720(2) 0.46314(2) 0.750103(15)
O3_2 O 0.4433(2) 0.0147(2) 0.23802(15)
O4A O 0.0091(3) -0.3254(2) 0.25298(17)
O6A O 0.2109(2) -0.2447(2) 0.19201(15)
O7B O 0.2956(2) -0.3432(2) 0.33905(13)
O7C O 0.2044(2) 0.1568(2) 0.16095(13)
O8C O 0.1182(2) 0.0146(2) 0.13377(15)
O10_2 O 0.3029(2) -0.10679(19) 0.31586(14)
O11 O 0.2411(3) -0.0151(3) 0.45129(17)
H21 H 0.2230 -0.0737 0.4372
H22 H 0.2612 0.0157 0.4190
loop_
_geom_bond_atom_site_label_1
_geom_bond_atom_site_label_2
_geom_bond_site_symmetry_1
_geom_bond_site_symmetry_2
Cd1 O1 1_555 1_555
Cd2 O2 1_555 1_555
O1 C1 1_555 1_555
O2 C1 1_555 1_555
O3 C2 1_555 1_555
O4 C2 1_555 1_555
O5 Cd2 1_555 1_555
O6 C13 1_555 1_555
O7 C14 1_555 1_555
O8 C14 1_555 1_555
O9 Cd1 1_555 1_555
O10 N2 1_555 1_555
N1 O9 1_555 1_555
N2 C32 1_555 1_555
C1 C3 1_555 1_555
C2 C6 1_555 1_555
C3 C4 1_555 1_555
C4 H1 1_555 1_555
C5 C4 1_555 1_555
H2 C5 1_555 1_555
C6 C5 1_555 1_555
C7 C6 1_555 1_555
C8 C7 1_555 1_555
H3 C8 1_555 1_555
C9 C8 1_555 1_555
H4 C9 1_555 1_555
C10 C9 1_555 1_555
H5 C10 1_555 1_555
C11 C10 1_555 1_555
H6 C11 1_555 1_555
C12 C3 1_555 1_555
C13 O5 1_555 1_555
C14 C18 1_555 1_555
C15 C13 1_555 1_555
C16 C15 1_555 1_555
H7 C16 1_555 1_555
C17 C16 1_555 1_555
H8 C17 1_555 1_555
C18 C17 1_555 1_555
C19 C18 1_555 1_555
C20 C19 1_555 1_555
H9 C20 1_555 1_555
C21 C20 1_555 1_555
H10 C21 1_555 1_555
C22 C21 1_555 1_555
H11 C22 1_555 1_555
C23 C22 1_555 1_555
H12 C23 1_555 1_555
C24 C15 1_555 1_555
C25 H13 1_555 1_555
C26 N1 1_555 1_555
H14 C26 1_555 1_555
C27 N1 1_555 1_555
H15 C27 1_555 1_555
C28 C27 1_555 1_555
H16 C28 1_555 1_555
C29 C25 1_555 1_555
C30 C29 1_555 1_555
C31 C30 1_555 1_555
H17 C31 1_555 1_555
C32 C31 1_555 1_555
H18 C32 1_555 1_555
C33 N2 1_555 1_555
H19 C33 1_555 1_555
C34 C30 1_555 1_555
H20 C34 1_555 1_555
O11 H21 1_555 1_555
H22 O11 1_555 1_555
Cd1_2 O10 1_555 1_555
Cd1A O4 1_555 1_555
Cd1A_2 O6 1_555 1_555
Cd1B O7 1_555 1_555
Cd2_2 O3 1_555 1_555
Cd2C O7 1_555 1_555
O3_2 Cd2 1_555 1_555
O4A Cd1 1_555 1_555
O6A Cd1 1_555 1_555
O7B Cd1 1_555 1_555
O7C Cd2 1_555 1_555
O8C Cd2 1_555 1_555
O10_2 Cd1 1_555 1_555
Cd2 O10_2 1_555 1_555
O8 Cd2C 1_555 1_555
O10 Cd2_2 1_555 1_555
C7 C12 1_555 1_555
C11 C12 1_555 1_555
C19 C24 1_555 1_555
C23 C24 1_555 1_555
C25 C26 1_555 1_555
C28 C29 1_555 1_555
C33 C34 1_555 1_555
Cd1A_2 O7C 1_555 1_555

#END
