
#######################################################################
#
#                 Cambridge Crystallographic Data Centre
#                                CCDC 
#
#######################################################################
#
# If this CIF has been generated from an entry in the Cambridge 
# Structural Database, then it will include bibliographic, chemical, 
# crystal, experimental, refinement or atomic coordinate data resulting 
# from the CCDC's data processing and validation procedures.
#
#######################################################################

data_MIXBEC
_symmetry_cell_setting           orthorhombic
_symmetry_space_group_name_H-M   'F m m m'
_symmetry_Int_Tables_number      69
_space_group_name_Hall           '-F 2 2'
loop_
_symmetry_equiv_pos_site_id
_symmetry_equiv_pos_as_xyz
1 x,y,z
2 -x,-y,z
3 -x,y,-z
4 x,-y,-z
5 x,1/2+y,1/2+z
6 -x,1/2-y,1/2+z
7 -x,1/2+y,1/2-z
8 x,1/2-y,1/2-z
9 1/2+x,y,1/2+z
10 1/2-x,-y,1/2+z
11 1/2-x,y,1/2-z
12 1/2+x,-y,1/2-z
13 1/2+x,1/2+y,z
14 1/2-x,1/2-y,z
15 1/2-x,1/2+y,-z
16 1/2+x,1/2-y,-z
17 -x,-y,-z
18 x,y,-z
19 x,-y,z
20 -x,y,z
21 -x,1/2-y,1/2-z
22 x,1/2+y,1/2-z
23 x,1/2-y,1/2+z
24 -x,1/2+y,1/2+z
25 1/2-x,-y,1/2-z
26 1/2+x,y,1/2-z
27 1/2+x,-y,1/2+z
28 1/2-x,y,1/2+z
29 1/2-x,1/2-y,-z
30 1/2+x,1/2+y,-z
31 1/2+x,1/2-y,z
32 1/2-x,1/2+y,z
_cell_length_a                   24.9933(13)
_cell_length_b                   28.2078(12)
_cell_length_c                   38.8733(18)
_cell_angle_alpha                90
_cell_angle_beta                 90
_cell_angle_gamma                90
_cell_volume                     27405.9
loop_
_atom_site_label
_atom_site_type_symbol
_atom_site_fract_x
_atom_site_fract_y
_atom_site_fract_z
Cu1 Cu 0.0000 0.279815(17) 0.223907(13)
Cu2 Cu 0.28657(2) 0.0000 0.225311(13)
O1 O 0.24053(8) 0.04888(7) 0.20514(5)
O2 O 0.05462(9) 0.23720(7) 0.20526(5)
C1 C 0.20037(12) 0.06391(9) 0.21933(6)
C2 C 0.07057(11) 0.20119(10) 0.22065(7)
C3 C 0.11035(12) 0.16998(9) 0.20210(7)
C4 C 0.12240(14) 0.17995(11) 0.16813(7)
H1 H 0.1063 0.2053 0.1569
C5 C 0.15892(16) 0.15141(12) 0.15122(7)
C6 C 0.13422(12) 0.13214(10) 0.21838(7)
H2 H 0.1253 0.1251 0.2410
C7 C 0.17109(12) 0.10468(10) 0.20130(7)
C8 C 0.18388(14) 0.11416(11) 0.16749(7)
H3 H 0.2089 0.0957 0.1559
C9 C 0.1604(2) 0.19750(16) 0.09587(9)
H4 H 0.1450 0.2259 0.1029
C10 C 0.1765(2) 0.18604(18) 0.06351(9)
C11 C 0.1806(3) 0.1877(3) 0.0000
H5 H 0.1849 0.1550 0.0000
C12 C 0.1772(2) 0.2135(2) 0.03127(9)
N1 N 0.17096(16) 0.16010(12) 0.11552(6)
N2 N 0.1953(3) 0.12764(18) 0.09663(9)
N3 N 0.1966(3) 0.1435(2) 0.06464(9)
O3 O 0.17916(8) 0.04970(7) 0.24681(5)
O4 O 0.05519(8) 0.18670(6) 0.24937(5)
C13 C 0.1697(3) 0.2610(2) 0.03141(12)
H6 H 0.1676 0.2772 0.0522
C14 C 0.1651(6) 0.2862(3) 0.0000
H7 H 0.1591 0.3187 0.0000
O5 O 0.34287(17) 0.0000 0.18311(10)
H8 H 0.3585 -0.0255 0.1825
O6 O 0.0000 0.32612(15) 0.17955(10)
H9 H 0.0202 0.3485 0.1830
O1Q O 0.24053(8) 0.04888(7) -0.20514(5)
O2Q O 0.05462(9) 0.23720(7) -0.20526(5)
C1Q C 0.20037(12) 0.06391(9) -0.21933(6)
C2Q C 0.07057(11) 0.20119(10) -0.22065(7)
C3Q C 0.11035(12) 0.16998(9) -0.20210(7)
C4Q C 0.12240(14) 0.17995(11) -0.16813(7)
H1Q H 0.1063 0.2053 -0.1569
C5Q C 0.15892(16) 0.15141(12) -0.15122(7)
C6Q C 0.13422(12) 0.13214(10) -0.21838(7)
H2Q H 0.1253 0.1251 -0.2410
C7Q C 0.17109(12) 0.10468(10) -0.20130(7)
C8Q C 0.18388(14) 0.11416(11) -0.16749(7)
H3Q H 0.2089 0.0957 -0.1559
C9Q C 0.1604(2) 0.19750(16) -0.09587(9)
H4Q H 0.1450 0.2259 -0.1029
C10Q C 0.1765(2) 0.18604(18) -0.06351(9)
C12Q C 0.1772(2) 0.2135(2) -0.03127(9)
N1Q N 0.17096(16) 0.16010(12) -0.11552(6)
N2Q N 0.1953(3) 0.12764(18) -0.09663(9)
N3Q N 0.1966(3) 0.1435(2) -0.06464(9)
O3Q O 0.17916(8) 0.04970(7) -0.24681(5)
O4Q O 0.05519(8) 0.18670(6) -0.24937(5)
C13Q C 0.1697(3) 0.2610(2) -0.03141(12)
H6Q H 0.1676 0.2772 -0.0522
H8R H 0.3585 0.0255 0.1825
H9S H -0.0202 0.3485 0.1830
Cu1B Cu 0.0000 0.279815(17) -0.223907(13)
Cu1E Cu 0.0000 0.220185(17) -0.276093(13)
Cu1G Cu 0.0000 0.220185(17) 0.276093(13)
Cu2C Cu 0.28657(2) 0.0000 -0.225311(13)
Cu2I Cu 0.21343(2) 0.0000 -0.274689(13)
Cu2J Cu 0.21343(2) 0.0000 0.274689(13)
O1R O 0.24053(8) -0.04888(7) 0.20514(5)
O2S O -0.05462(9) 0.23720(7) 0.20526(5)
O3J O 0.32084(8) 0.04970(7) 0.25319(5)
O3X O 0.32084(8) -0.04970(7) 0.25319(5)
O4G O 0.05519(8) 0.31330(6) 0.25063(5)
O4T O -0.05519(8) 0.31330(6) 0.25063(5)
loop_
_geom_bond_atom_site_label_1
_geom_bond_atom_site_label_2
_geom_bond_site_symmetry_1
_geom_bond_site_symmetry_2
Cu1 O2 1_555 1_555
Cu2 O1 1_555 1_555
O1 C1 1_555 1_555
O2 C2 1_555 1_555
C1 C7 1_555 1_555
C2 C3 1_555 1_555
C3 C4 1_555 1_555
C4 H1 1_555 1_555
C5 C4 1_555 1_555
C6 C3 1_555 1_555
H2 C6 1_555 1_555
C7 C6 1_555 1_555
C8 C5 1_555 1_555
H3 C8 1_555 1_555
C9 H4 1_555 1_555
C10 C9 1_555 1_555
C11 H5 1_555 1_555
C12 C10 1_555 1_555
N1 C5 1_555 1_555
N2 N1 1_555 1_555
N3 C10 1_555 1_555
O3 C1 1_555 1_555
O4 C2 1_555 1_555
C13 C12 1_555 1_555
H6 C13 1_555 1_555
C14 C13 1_555 1_555
H7 C14 1_555 1_555
O5 Cu2 1_555 1_555
H8 O5 1_555 1_555
O6 Cu1 1_555 1_555
H9 O6 1_555 1_555
O1Q C1Q 1_555 1_555
O2Q C2Q 1_555 1_555
C1Q C7Q 1_555 1_555
C2Q C3Q 1_555 1_555
C3Q C4Q 1_555 1_555
C4Q H1Q 1_555 1_555
C5Q C4Q 1_555 1_555
C6Q C3Q 1_555 1_555
H2Q C6Q 1_555 1_555
C7Q C6Q 1_555 1_555
C8Q C5Q 1_555 1_555
H3Q C8Q 1_555 1_555
C9Q H4Q 1_555 1_555
C10Q C9Q 1_555 1_555
C12Q C11 1_555 1_555
N1Q C5Q 1_555 1_555
N2Q N1Q 1_555 1_555
N3Q C10Q 1_555 1_555
O3Q C1Q 1_555 1_555
O4Q C2Q 1_555 1_555
C13Q C14 1_555 1_555
H6Q C13Q 1_555 1_555
H8R O5 1_555 1_555
H9S O6 1_555 1_555
Cu1B O2Q 1_555 1_555
Cu1E O4Q 1_555 1_555
Cu1G Cu1 1_555 1_555
Cu2C O1Q 1_555 1_555
Cu2I O3Q 1_555 1_555
Cu2J Cu2 1_555 1_555
O1R Cu2 1_555 1_555
O2S Cu1 1_555 1_555
O3J Cu2 1_555 1_555
O3X Cu2 1_555 1_555
O4G Cu1 1_555 1_555
O4T Cu1 1_555 1_555
C7 C8 1_555 1_555
C9 N1 1_555 1_555
C11 C12 1_555 1_555
N2 N3 1_555 1_555
O3 Cu2J 1_555 1_555
O4 Cu1G 1_555 1_555
C7Q C8Q 1_555 1_555
C9Q N1Q 1_555 1_555
C10Q C12Q 1_555 1_555
C12Q C13Q 1_555 1_555
N2Q N3Q 1_555 1_555
Cu1B Cu1E 1_555 1_555
Cu2C Cu2I 1_555 1_555

#END
