
#######################################################################
#
#                 Cambridge Crystallographic Data Centre
#                                CCDC 
#
#######################################################################
#
# If this CIF has been generated from an entry in the Cambridge 
# Structural Database, then it will include bibliographic, chemical, 
# crystal, experimental, refinement or atomic coordinate data resulting 
# from the CCDC's data processing and validation procedures.
#
#######################################################################

data_MIXCUC
_symmetry_cell_setting           monoclinic
_symmetry_space_group_name_H-M   'P 21/c'
_symmetry_Int_Tables_number      14
_space_group_name_Hall           '-P 2ybc'
loop_
_symmetry_equiv_pos_site_id
_symmetry_equiv_pos_as_xyz
1 x,y,z
2 -x,1/2+y,1/2-z
3 -x,-y,-z
4 x,1/2-y,1/2+z
_cell_length_a                   3.8860(5)
_cell_length_b                   18.543(2)
_cell_length_c                   11.888(1)
_cell_angle_alpha                90
_cell_angle_beta                 92.659(8)
_cell_angle_gamma                90
_cell_volume                     855.704
loop_
_atom_site_label
_atom_site_type_symbol
_atom_site_fract_x
_atom_site_fract_y
_atom_site_fract_z
Cu1 Cu -0.00350 0.13120 0.07200
Cu2 Cu 0.49160 0.00990 0.13150
Cl1 Cl 0.49100 0.10000 -0.04060
Cl2 Cl 0.01070 0.04210 0.22320
O1 O -0.17500 0.28290 0.04570
N1 N -0.01100 0.23210 0.11920
C1 C 0.09200 0.26750 0.20830
C2 C 0.00000 0.34020 0.19770
C3 C -0.16200 0.34720 0.09760
C4 C -0.31600 0.40810 0.03160
C5 C 0.27600 0.23000 0.30390
Cl1_2 Cl -0.50900 0.10000 -0.04060
Cu1_2 Cu 0.99650 0.13120 0.07200
Cu2B Cu 0.50840 -0.00990 -0.13150
Cl1B Cl 0.50900 -0.10000 0.04060
Cl2_2 Cl 1.01070 0.04210 0.22320
Cu2_2 Cu -0.50840 0.00990 0.13150
Cl2B Cl -0.01070 -0.04210 -0.22320
Cl2B_2 Cl 0.98930 -0.04210 -0.22320
Cu1B Cu 0.00350 -0.13120 -0.07200
Cu1B_2 Cu 1.00350 -0.13120 -0.07200
Cu2B_2 Cu -0.49160 -0.00990 -0.13150
Cl1B_2 Cl -0.49100 -0.10000 0.04060
N1B N 0.01100 -0.23210 -0.11920
O1B O 0.17500 -0.28290 -0.04570
C1B C -0.09200 -0.26750 -0.20830
C3B C 0.16200 -0.34720 -0.09760
C2B C 0.00000 -0.34020 -0.19770
C5B C -0.27600 -0.23000 -0.30390
C4B C 0.31600 -0.40810 -0.03160
loop_
_geom_bond_atom_site_label_1
_geom_bond_atom_site_label_2
_geom_bond_site_symmetry_1
_geom_bond_site_symmetry_2
Cu1 Cl1 1_555 1_555
Cu2 Cl1 1_555 1_555
Cl1 Cu1_2 1_555 1_555
Cl2 Cu1 1_555 1_555
O1 N1 1_555 1_555
N1 Cu1 1_555 1_555
C1 N1 1_555 1_555
C2 C1 1_555 1_555
C3 O1 1_555 1_555
C4 C3 1_555 1_555
C5 C1 1_555 1_555
Cl1_2 Cu1 1_555 1_555
Cu2B Cl1 1_555 1_555
Cl1B Cu2 1_555 1_555
Cl2_2 Cu2 1_555 1_555
Cu2_2 Cl2 1_555 1_555
Cl2B Cu2B 1_555 1_555
Cl2B_2 Cu2B 1_555 1_555
Cu1B Cl1B 1_555 1_555
Cu1B_2 Cl1B 1_555 1_555
Cu2B_2 Cl2B 1_555 1_555
Cl1B_2 Cu1B 1_555 1_555
N1B Cu1B 1_555 1_555
O1B N1B 1_555 1_555
C1B N1B 1_555 1_555
C3B O1B 1_555 1_555
C2B C1B 1_555 1_555
C5B C1B 1_555 1_555
C4B C3B 1_555 1_555
Cu2 Cl2 1_555 1_555
C2 C3 1_555 1_555
Cu2B Cl1B 1_555 1_555
Cl2B Cu1B 1_555 1_555
C3B C2B 1_555 1_555

#END
