
#######################################################################
#
#                 Cambridge Crystallographic Data Centre
#                                CCDC 
#
#######################################################################
#
# If this CIF has been generated from an entry in the Cambridge 
# Structural Database, then it will include bibliographic, chemical, 
# crystal, experimental, refinement or atomic coordinate data resulting 
# from the CCDC's data processing and validation procedures.
#
#######################################################################

data_MIXFAC
_symmetry_cell_setting           triclinic
_symmetry_space_group_name_H-M   'P -1'
_symmetry_Int_Tables_number      2
_space_group_name_Hall           '-P 1'
loop_
_symmetry_equiv_pos_site_id
_symmetry_equiv_pos_as_xyz
1 x,y,z
2 -x,-y,-z
_cell_length_a                   6.8408(12)
_cell_length_b                   10.7839(18)
_cell_length_c                   11.553(2)
_cell_angle_alpha                85.637(3)
_cell_angle_beta                 87.766(3)
_cell_angle_gamma                78.553(3)
_cell_volume                     832.648
loop_
_atom_site_label
_atom_site_type_symbol
_atom_site_fract_x
_atom_site_fract_y
_atom_site_fract_z
Cu1 Cu 1.0000 0.0000 1.0000
O1 O 0.7242(3) 0.06540(17) 0.42054(14)
O2 O 0.3159(3) 0.38645(16) 0.60848(14)
O3 O 0.8000(2) -0.16996(14) 1.04461(15)
O4 O 1.0718(2) -0.16648(12) 0.93675(12)
N1 N 0.8447(2) 0.07024(15) 0.85715(14)
N2 N 0.5967(3) 0.16537(16) 0.43999(14)
N3 N 0.3958(2) 0.31362(16) 0.53082(14)
C1 C 0.6499(3) 0.16694(18) 0.65227(17)
C2 C 0.8476(3) 0.1027(2) 0.65070(17)
H1 H 0.9177 0.0908 0.5805
C3 C 0.9380(3) 0.0570(2) 0.75321(17)
H2 H 1.0705 0.0149 0.7507
C4 C 0.6543(3) 0.1313(2) 0.85886(17)
H3 H 0.5876 0.1406 0.9303
C5 C 0.5523(3) 0.1811(2) 0.76036(17)
H4 H 0.4203 0.2235 0.7656
C6 C 0.5496(3) 0.21469(19) 0.54416(17)
C7 C 0.4884(3) 0.24865(19) 0.34296(17)
C8 C 0.6307(4) 0.3310(2) 0.2909(2)
H5 H 0.6640 0.3815 0.3492
H6 H 0.5678 0.3855 0.2277
H7 H 0.7499 0.2778 0.2627
C9 C 0.4366(4) 0.1668(2) 0.2515(2)
H8 H 0.5570 0.1248 0.2144
H9 H 0.3533 0.2193 0.1947
H10 H 0.3669 0.1047 0.2879
C10 C 0.3093(3) 0.3225(2) 0.41213(18)
C11 C 0.1346(4) 0.2541(3) 0.4261(2)
H11 H 0.1818 0.1675 0.4536
H12 H 0.0728 0.2567 0.3525
H13 H 0.0389 0.2950 0.4810
C12 C 0.2406(4) 0.4609(2) 0.3702(2)
H14 H 0.1241 0.4971 0.4143
H15 H 0.2093 0.4665 0.2895
H16 H 0.3451 0.5065 0.3805
C13 C 0.9399(3) -0.22390(18) 0.98458(18)
C14 C 0.9691(3) -0.36403(19) 0.9629(2)
H17 H 0.9789 -0.3707 0.8786
C15 C 1.1663(3) -0.43530(19) 1.0137(2)
H18 H 1.2748 -0.3981 0.9792
H19 H 1.1636 -0.4264 1.0967
C16 C 0.7958(3) -0.4240(2) 1.0086(2)
H20 H 0.6745 -0.3807 0.9709
H21 H 0.7773 -0.4145 1.0914
O3A O 1.2000(2) -0.83004(14) 0.95539(15)
O4A O 0.9282(2) -0.83352(12) 1.06325(12)
C13A C 1.0601(3) -0.77610(18) 1.01542(18)
C14A C 1.0309(3) -0.63597(19) 1.0371(2)
H17A H 1.0211 -0.6293 1.1214
C15A C 0.8337(3) -0.56470(19) 0.9863(2)
H18A H 0.7252 -0.6019 1.0208
H19A H 0.8364 -0.5736 0.9033
C16A C 1.2042(3) -0.5760(2) 0.9914(2)
H20A H 1.3255 -0.6193 1.0291
H21A H 1.2227 -0.5855 0.9086
O1A O 1.2758(3) -0.06540(17) 1.57946(14)
O2A O 1.6841(3) -0.38645(16) 1.39152(14)
N1A N 1.1553(2) -0.07024(15) 1.14285(14)
N2A N 1.4033(3) -0.16537(16) 1.56001(14)
N3A N 1.6042(2) -0.31362(16) 1.46918(14)
C1A C 1.3501(3) -0.16694(18) 1.34773(17)
C2A C 1.1524(3) -0.1027(2) 1.34930(17)
H1A H 1.0823 -0.0908 1.4195
C3A C 1.0620(3) -0.0570(2) 1.24679(17)
H2A H 0.9295 -0.0149 1.2493
C4A C 1.3457(3) -0.1313(2) 1.14114(17)
H3A H 1.4124 -0.1406 1.0697
C5A C 1.4477(3) -0.1811(2) 1.23964(17)
H4A H 1.5797 -0.2235 1.2344
C6A C 1.4504(3) -0.21469(19) 1.45584(17)
C7A C 1.5116(3) -0.24865(19) 1.65704(17)
C8A C 1.3693(4) -0.3310(2) 1.7091(2)
H5A H 1.3360 -0.3815 1.6508
H6A H 1.4322 -0.3855 1.7723
H7A H 1.2501 -0.2778 1.7373
C9A C 1.5634(4) -0.1668(2) 1.7485(2)
H8A H 1.4430 -0.1248 1.7856
H9A H 1.6467 -0.2193 1.8053
H10A H 1.6331 -0.1047 1.7121
C10A C 1.6907(3) -0.3225(2) 1.58787(18)
C11A C 1.8654(4) -0.2541(3) 1.5739(2)
H11A H 1.8182 -0.1675 1.5464
H12A H 1.9272 -0.2567 1.6475
H13A H 1.9611 -0.2950 1.5190
C12A C 1.7594(4) -0.4609(2) 1.6298(2)
H14A H 1.8759 -0.4971 1.5857
H15A H 1.7907 -0.4665 1.7105
H16A H 1.6549 -0.5065 1.6195
Cu1_2 Cu 1.0000 -1.0000 1.0000
O3A_2 O 1.2000(2) 0.16996(14) 0.95539(15)
O4A_2 O 0.9282(2) 0.16648(12) 1.06325(12)
loop_
_geom_bond_atom_site_label_1
_geom_bond_atom_site_label_2
_geom_bond_site_symmetry_1
_geom_bond_site_symmetry_2
Cu1 O3 1_555 1_555
O1 N2 1_555 1_555
O2 N3 1_555 1_555
O3 C13 1_555 1_555
O4 Cu1 1_555 1_555
N1 Cu1 1_555 1_555
N2 C6 1_555 1_555
N3 C6 1_555 1_555
C1 C2 1_555 1_555
C2 H1 1_555 1_555
C3 N1 1_555 1_555
H2 C3 1_555 1_555
C4 N1 1_555 1_555
H3 C4 1_555 1_555
C5 C1 1_555 1_555
H4 C5 1_555 1_555
C6 C1 1_555 1_555
C7 N2 1_555 1_555
C8 C7 1_555 1_555
H5 C8 1_555 1_555
H6 C8 1_555 1_555
H7 C8 1_555 1_555
C9 C7 1_555 1_555
H8 C9 1_555 1_555
H9 C9 1_555 1_555
H10 C9 1_555 1_555
C10 N3 1_555 1_555
C11 C10 1_555 1_555
H11 C11 1_555 1_555
H12 C11 1_555 1_555
H13 C11 1_555 1_555
C12 C10 1_555 1_555
H14 C12 1_555 1_555
H15 C12 1_555 1_555
H16 C12 1_555 1_555
C13 O4 1_555 1_555
C14 C13 1_555 1_555
H17 C14 1_555 1_555
C15 C14 1_555 1_555
H18 C15 1_555 1_555
H19 C15 1_555 1_555
C16 C14 1_555 1_555
H20 C16 1_555 1_555
H21 C16 1_555 1_555
O3A C13A 1_555 1_555
O4A C13A 1_555 1_555
C13A C14A 1_555 1_555
C14A H17A 1_555 1_555
C15A C16 1_555 1_555
H18A C15A 1_555 1_555
H19A C15A 1_555 1_555
C16A C15 1_555 1_555
H20A C16A 1_555 1_555
H21A C16A 1_555 1_555
O1A N2A 1_555 1_555
O2A N3A 1_555 1_555
N1A Cu1 1_555 1_555
N2A C6A 1_555 1_555
N3A C6A 1_555 1_555
C1A C2A 1_555 1_555
C2A H1A 1_555 1_555
C3A N1A 1_555 1_555
H2A C3A 1_555 1_555
C4A N1A 1_555 1_555
H3A C4A 1_555 1_555
C5A C1A 1_555 1_555
H4A C5A 1_555 1_555
C6A C1A 1_555 1_555
C7A N2A 1_555 1_555
C8A C7A 1_555 1_555
H5A C8A 1_555 1_555
H6A C8A 1_555 1_555
H7A C8A 1_555 1_555
C9A C7A 1_555 1_555
H8A C9A 1_555 1_555
H9A C9A 1_555 1_555
H10A C9A 1_555 1_555
C10A N3A 1_555 1_555
C11A C10A 1_555 1_555
H11A C11A 1_555 1_555
H12A C11A 1_555 1_555
H13A C11A 1_555 1_555
C12A C10A 1_555 1_555
H14A C12A 1_555 1_555
H15A C12A 1_555 1_555
H16A C12A 1_555 1_555
Cu1_2 O3A 1_555 1_555
O3A_2 Cu1 1_555 1_555
O4A_2 Cu1 1_555 1_555
C2 C3 1_555 1_555
C4 C5 1_555 1_555
C7 C10 1_555 1_555
O4A Cu1_2 1_555 1_555
C14A C15A 1_555 1_555
C14A C16A 1_555 1_555
C2A C3A 1_555 1_555
C4A C5A 1_555 1_555
C7A C10A 1_555 1_555

#END
