
#######################################################################
#
#                 Cambridge Crystallographic Data Centre
#                                CCDC 
#
#######################################################################
#
# If this CIF has been generated from an entry in the Cambridge 
# Structural Database, then it will include bibliographic, chemical, 
# crystal, experimental, refinement or atomic coordinate data resulting 
# from the CCDC's data processing and validation procedures.
#
#######################################################################

data_MIXHUY
_symmetry_cell_setting           triclinic
_symmetry_space_group_name_H-M   'P -1'
_symmetry_Int_Tables_number      2
_space_group_name_Hall           '-P 1'
loop_
_symmetry_equiv_pos_site_id
_symmetry_equiv_pos_as_xyz
1 x,y,z
2 -x,-y,-z
_cell_length_a                   14.7964(11)
_cell_length_b                   20.3333(13)
_cell_length_c                   20.3264(13)
_cell_angle_alpha                62.713(2)
_cell_angle_beta                 83.993(4)
_cell_angle_gamma                83.977(4)
_cell_volume                     5393.81
loop_
_atom_site_label
_atom_site_type_symbol
_atom_site_fract_x
_atom_site_fract_y
_atom_site_fract_z
Ru2 Ru 0.43269(3) 0.97260(3) 0.00795(3)
N3 N 0.3033(3) 0.9209(3) 0.0328(3)
N4 N 0.1404(3) 0.8996(3) 0.0719(3)
C20 C 0.2247(3) 0.9149(3) 0.0479(3)
C21 C 0.0715(4) 0.9511(4) 0.0346(4)
C22 C 0.0892(3) 1.0190(4) -0.0240(4)
C23 C -0.0191(3) 0.9266(4) 0.0637(4)
C24 C -0.0345(4) 0.8559(4) 0.1225(4)
H5 H 0.15088 1.03045 -0.03905
H6 H -0.0703 0.86126 0.1633
H7 H 0.02404 0.82907 0.13978
H8 H -0.0679 0.82823 0.10519
F11 F -0.4610(3) 0.8692(3) -0.1526(3)
F12 F -0.3684(3) 0.7663(4) -0.1855(4)
F13 F -0.2372(14) 0.6966(13) -0.1112(15)
F14 F -0.1744(3) 0.7114(3) 0.0058(3)
F15 F -0.2670(3) 0.8150(2) 0.0371(2)
F16 F -0.7199(2) 1.1392(2) -0.1845(2)
F17 F -0.7557(2) 1.2369(2) -0.3222(2)
F18 F -0.6303(14) 1.2879(12) -0.4165(13)
F19 F -0.4423(3) 1.2577(2) -0.3889(2)
F20 F -0.4045(2) 1.16152(18) -0.25481(19)
O5 O -0.3699(2) 0.9499(2) -0.0390(2)
O6 O -0.5024(2) 0.9005(2) -0.0264(2)
O7 O -0.46398(19) 1.0972(2) -0.1129(2)
O8 O -0.5944(2) 1.0434(2) -0.0987(2)
C25 C -0.4181(3) 0.9029(3) -0.0395(3)
C26 C -0.3651(3) 0.8449(3) -0.0566(3)
C27 C -0.3935(4) 0.8281(4) -0.1114(4)
C28 C -0.3442(4) 0.7778(4) -0.1287(5)
C29 C -0.2700(5) 0.7341(5) -0.0878(5)
C30 C -0.2464(4) 0.7477(4) -0.0329(5)
C31 C -0.2931(5) 0.8031(4) -0.0181(4)
C32 C -0.5389(3) 1.0894(3) -0.1361(3)
C33 C -0.5605(4) 1.1429(3) -0.2117(3)
C34 C -0.6506(4) 1.1663(3) -0.2339(4)
C35 C -0.6696(4) 1.2179(4) -0.3062(4)
C36 C -0.5986(4) 1.2507(4) -0.3609(4)
C37 C -0.5128(4) 1.2276(3) -0.3377(3)
C38 C -0.4917(4) 1.1798(4) -0.2703(4)
N3A N -0.3033(3) 1.0791(3) -0.0328(3)
N4A N -0.1404(3) 1.1004(3) -0.0719(3)
C20A C -0.2247(3) 1.0851(3) -0.0479(3)
C21A C -0.0715(4) 1.0489(4) -0.0346(4)
C22A C -0.0892(3) 0.9810(4) 0.0240(4)
C23A C 0.0191(3) 1.0734(4) -0.0637(4)
C24A C 0.0345(4) 1.1441(4) -0.1225(4)
H5A H -0.15088 0.96955 0.03905
H6A H 0.0703 1.13874 -0.1633
H7A H -0.02404 1.17093 -0.13978
H8A H 0.0679 1.17177 -0.10519
Ru2A Ru -0.43269(3) 1.02740(3) -0.00795(3)
Ru2_2 Ru -0.56731(3) 0.97260(3) 0.00795(3)
O6A O -0.4976(2) 1.0995(2) 0.0264(2)
O8A O -0.4056(2) 0.9566(2) 0.0987(2)
F12A F -0.6316(3) 1.2337(4) 0.1855(4)
C28A C -0.6558(4) 1.2222(4) 0.1287(5)
F13A F -0.7628(14) 1.3034(13) 0.1112(15)
C29A C -0.7300(5) 1.2659(5) 0.0878(5)
C36A C -0.4014(4) 0.7493(4) 0.3609(4)
C37A C -0.4872(4) 0.7724(3) 0.3377(3)
F18A F -0.3697(14) 0.7121(12) 0.4165(13)
C35A C -0.3304(4) 0.7821(4) 0.3062(4)
F16A F -0.2801(2) 0.8608(2) 0.1845(2)
C34A C -0.3494(4) 0.8337(3) 0.2339(4)
C30A C -0.7536(4) 1.2523(4) 0.0329(5)
C31A C -0.7069(5) 1.1969(4) 0.0181(4)
C25A C -0.5819(3) 1.0971(3) 0.0395(3)
C26A C -0.6349(3) 1.1551(3) 0.0566(3)
C38A C -0.5083(4) 0.8202(4) 0.2703(4)
F15A F -0.7330(3) 1.1850(2) -0.0371(2)
C33A C -0.4395(4) 0.8571(3) 0.2117(3)
C32A C -0.4611(3) 0.9106(3) 0.1361(3)
F19A F -0.5577(3) 0.7423(2) 0.3889(2)
F20A F -0.5955(2) 0.83848(18) 0.25481(19)
O5A O -0.6301(2) 1.0501(2) 0.0390(2)
F17A F -0.2443(2) 0.7631(2) 0.3222(2)
F11A F -0.5390(3) 1.1308(3) 0.1526(3)
C27A C -0.6065(4) 1.1719(4) 0.1114(4)
O7A O -0.53602(19) 0.9028(2) 0.1129(2)
F14A F -0.8256(3) 1.2886(3) -0.0058(3)
N3_2 N -0.6967(3) 0.9209(3) 0.0328(3)
Ru3 Ru 0.93367(3) 0.50999(3) -0.02818(3)
N5 N 0.7974(3) 0.5367(3) -0.0812(3)
N6 N 0.6351(3) 0.5688(3) -0.1007(3)
C39 C 0.7214(4) 0.5492(3) -0.0874(4)
C40 C 0.5725(4) 0.5347(4) -0.0520(4)
C41 C 0.5891(4) 0.4737(4) 0.0221(4)
C42 C 0.4770(4) 0.5566(3) -0.0688(4)
C43 C 0.4595(4) 0.6215(4) -0.1472(4)
H9 H 0.6499 0.45651 0.03541
H10 H 0.4867 0.60736 -0.18537
H11 H 0.48697 0.6658 -0.15305
H12 H 0.39375 0.63209 -0.15251
F21 F 0.2394(2) 0.5343(2) -0.1842(2)
F22 F 0.3311(3) 0.5038(3) -0.2877(3)
F23 F 0.2577(15) 0.4008(15) -0.3190(12)
F24 F 0.1266(3) 0.3229(4) -0.2431(3)
F25 F 0.0362(2) 0.3499(3) -0.1361(3)
F26 F 0.0860(2) 0.2412(2) 0.1619(2)
F27 F 0.0398(3) 0.1066(2) 0.2598(2)
F28 F -0.1354(14) 0.0756(14) 0.2859(14)
F29 F -0.2711(2) 0.1856(3) 0.2303(3)
F30 F -0.2276(2) 0.3212(2) 0.1347(2)
O9 O 0.13145(19) 0.4582(2) -0.0475(2)
O10 O 0.0006(2) 0.4772(2) -0.1041(2)
O11 O 0.0316(2) 0.3825(2) 0.0978(2)
O12 O -0.0981(2) 0.4039(2) 0.0416(2)
C44 C 0.0851(3) 0.4601(3) -0.0990(3)
C45 C 0.1345(3) 0.4428(4) -0.1568(3)
C46 C 0.2110(4) 0.4810(4) -0.1965(4)
C47 C 0.2576(4) 0.4649(5) -0.2498(4)
C48 C 0.2309(5) 0.4109(5) -0.2671(4)
C49 C 0.1563(4) 0.3751(5) -0.2293(5)
C50 C 0.1096(4) 0.3881(4) -0.1716(4)
C51 C -0.0430(4) 0.3633(3) 0.0924(3)
C52 C -0.0685(4) 0.2856(3) 0.1464(3)
C53 C -0.0043(4) 0.2312(4) 0.1775(4)
C54 C -0.0267(4) 0.1589(3) 0.2300(3)
C55 C -0.1179(4) 0.1435(3) 0.2472(3)
C56 C -0.1810(4) 0.2003(4) 0.2146(4)
C57 C -0.1588(4) 0.2688(4) 0.1647(4)
N5A N 0.2026(3) 0.4633(3) 0.0812(3)
N6A N 0.3649(3) 0.4312(3) 0.1007(3)
C39A C 0.2786(4) 0.4508(3) 0.0874(4)
C40A C 0.4275(4) 0.4653(4) 0.0520(4)
C41A C 0.4109(4) 0.5263(4) -0.0221(4)
C42A C 0.5230(4) 0.4434(3) 0.0688(4)
C43A C 0.5405(4) 0.3785(4) 0.1472(4)
H9A H 0.3501 0.54349 -0.03541
H10A H 0.5133 0.39264 0.18537
H11A H 0.51303 0.3342 0.15305
H12A H 0.60625 0.36791 0.15251
Ru3A Ru 0.06633(3) 0.49001(3) 0.02818(3)
Ru3_2 Ru -0.06633(3) 0.50999(3) -0.02818(3)
O10A O -0.0006(2) 0.5228(2) 0.1041(2)
O12A O 0.0981(2) 0.5961(2) -0.0416(2)
F26A F -0.0860(2) 0.7588(2) -0.1619(2)
C53A C 0.0043(4) 0.7688(4) -0.1775(4)
C52A C 0.0685(4) 0.7144(3) -0.1464(3)
C57A C 0.1588(4) 0.7312(4) -0.1647(4)
C49A C -0.1563(4) 0.6249(5) 0.2293(5)
C50A C -0.1096(4) 0.6119(4) 0.1716(4)
F27A F -0.0398(3) 0.8934(2) -0.2598(2)
C54A C 0.0267(4) 0.8411(3) -0.2300(3)
C44A C -0.0851(3) 0.5399(3) 0.0990(3)
C45A C -0.1345(3) 0.5572(4) 0.1568(3)
O11A O -0.0316(2) 0.6175(2) -0.0978(2)
C51A C 0.0430(4) 0.6367(3) -0.0924(3)
C47A C -0.2576(4) 0.5351(5) 0.2498(4)
C48A C -0.2309(5) 0.5891(5) 0.2671(4)
C55A C 0.1179(4) 0.8565(3) -0.2472(3)
C56A C 0.1810(4) 0.7997(4) -0.2146(4)
O9A O -0.13145(19) 0.5418(2) 0.0475(2)
F25A F -0.0362(2) 0.6501(3) 0.1361(3)
N5_2 N -0.2026(3) 0.5367(3) -0.0812(3)
F28A F 0.1354(14) 0.9244(14) -0.2859(14)
F24A F -0.1266(3) 0.6771(4) 0.2431(3)
F23A F -0.2577(15) 0.5992(15) 0.3190(12)
F22A F -0.3311(3) 0.4962(3) 0.2877(3)
F21A F -0.2394(2) 0.4657(2) 0.1842(2)
C46A C -0.2110(4) 0.5190(4) 0.1965(4)
F30A F 0.2276(2) 0.6788(2) -0.1347(2)
F29A F 0.2711(2) 0.8144(3) -0.2303(3)
N7 N 0.8007(3) 0.0328(3) 0.4227(3)
N8 N 0.6415(3) 0.0701(3) 0.4024(3)
C58 C 0.7236(3) 0.0479(3) 0.4158(3)
C59 C 0.5731(4) 0.0348(3) 0.4502(4)
C60 C 0.5881(4) -0.0264(4) 0.5220(4)
C61 C 0.4809(4) 0.0578(3) 0.4320(4)
C62 C 0.4639(4) 0.1250(4) 0.3545(4)
H13 H 0.6485 -0.04417 0.53618
H14 H 0.39864 0.13221 0.34663
H15 H 0.49746 0.11507 0.31553
H16 H 0.48485 0.16992 0.35294
Ru4 Ru 0.93205(3) 0.00832(3) 0.47362(3)
F31 F 0.0339(2) -0.1605(3) 0.3797(3)
F32 F 0.1156(3) -0.1932(3) 0.2740(3)
F33 F 0.2503(13) -0.1072(14) 0.1874(12)
F34 F 0.3076(3) 0.0022(3) 0.2001(2)
F35 F 0.2255(2) 0.0362(2) 0.3058(2)
O13 O 0.12911(19) -0.0401(2) 0.4511(2)
O14 O -0.0041(2) -0.0264(2) 0.3995(2)
C63 C 0.0818(3) -0.0417(3) 0.4027(3)
C64 C 0.1267(3) -0.0616(3) 0.3451(3)
C65 C 0.1028(4) -0.1201(4) 0.3365(4)
C66 C 0.1437(4) -0.1367(4) 0.2806(4)
C67 C 0.2144(4) -0.0972(4) 0.2357(4)
C68 C 0.2397(4) -0.0401(4) 0.2459(4)
C69 C 0.1993(4) -0.0214(4) 0.2994(4)
F36 F 0.0962(2) -0.25261(19) 0.6607(2)
F37 F 0.0582(3) -0.3894(2) 0.7580(2)
F38 F -0.1212(11) -0.4276(10) 0.7851(11)
F39 F -0.2564(2) -0.3220(2) 0.7370(3)
F40 F -0.2203(2) -0.1836(2) 0.6403(2)
O15 O 0.0359(2) -0.1144(2) 0.5969(2)
O16 O -0.0962(2) -0.0962(2) 0.5447(2)
C70 C -0.0390(4) -0.1366(3) 0.5939(3)
C71 C -0.0605(4) -0.2138(3) 0.6487(3)
C72 C 0.0066(4) -0.2659(3) 0.6776(3)
C73 C -0.0123(4) -0.3403(3) 0.7303(3)
C74 C -0.1013(4) -0.3579(3) 0.7487(3)
C75 C -0.1692(4) -0.3031(4) 0.7181(4)
C76 C -0.1494(4) -0.2335(4) 0.6696(4)
N7A N 0.1993(3) -0.0328(3) 0.5773(3)
N8A N 0.3585(3) -0.0701(3) 0.5976(3)
C58A C 0.2764(3) -0.0479(3) 0.5842(3)
C59A C 0.4269(4) -0.0348(3) 0.5498(4)
C60A C 0.4119(4) 0.0264(4) 0.4780(4)
C61A C 0.5191(4) -0.0578(3) 0.5680(4)
C62A C 0.5361(4) -0.1250(4) 0.6455(4)
H13A H 0.3515 0.04417 0.46382
H14A H 0.60136 -0.13221 0.65337
H15A H 0.50254 -0.11507 0.68447
H16A H 0.51515 -0.16992 0.64706
Ru4A Ru 0.06795(3) -0.00832(3) 0.52638(3)
O14A O 0.0041(2) 0.0264(2) 0.6005(2)
O16A O 0.0962(2) 0.0962(2) 0.4553(2)
Ru4_2 Ru -0.06795(3) 0.00832(3) 0.47362(3)
F31A F -0.0339(2) 0.1605(3) 0.6203(3)
C65A C -0.1028(4) 0.1201(4) 0.6635(4)
F32A F -0.1156(3) 0.1932(3) 0.7260(3)
C66A C -0.1437(4) 0.1367(4) 0.7194(4)
F33A F -0.2503(13) 0.1072(14) 0.8126(12)
C67A C -0.2144(4) 0.0972(4) 0.7643(4)
F34A F -0.3076(3) -0.0022(3) 0.7999(2)
C68A C -0.2397(4) 0.0401(4) 0.7541(4)
F35A F -0.2255(2) -0.0362(2) 0.6942(2)
C69A C -0.1993(4) 0.0214(4) 0.7006(4)
O13A O -0.12911(19) 0.0401(2) 0.5489(2)
C63A C -0.0818(3) 0.0417(3) 0.5973(3)
C64A C -0.1267(3) 0.0616(3) 0.6549(3)
F36A F -0.0962(2) 0.25261(19) 0.3393(2)
C72A C -0.0066(4) 0.2659(3) 0.3224(3)
F37A F -0.0582(3) 0.3894(2) 0.2420(2)
C73A C 0.0123(4) 0.3403(3) 0.2697(3)
F38A F 0.1212(11) 0.4276(10) 0.2149(11)
C74A C 0.1013(4) 0.3579(3) 0.2513(3)
F39A F 0.2564(2) 0.3220(2) 0.2630(3)
C75A C 0.1692(4) 0.3031(4) 0.2819(4)
F40A F 0.2203(2) 0.1836(2) 0.3597(2)
C76A C 0.1494(4) 0.2335(4) 0.3304(4)
O15A O -0.0359(2) 0.1144(2) 0.4031(2)
C70A C 0.0390(4) 0.1366(3) 0.4061(3)
C71A C 0.0605(4) 0.2138(3) 0.3513(3)
N7_2 N -0.1993(3) 0.0328(3) 0.4227(3)
C77 C 0.4040(4) 0.9070(4) 0.3952(4)
C78 C 0.5025(4) 0.8937(4) 0.4042(4)
C79 C 0.5649(5) 0.9360(4) 0.3504(5)
C80 C 0.6575(5) 0.9210(4) 0.3614(4)
C81 C 0.6928(4) 0.8640(5) 0.4258(5)
C82 C 0.7946(4) 0.8477(4) 0.4368(4)
C83 C 0.6290(5) 0.8213(4) 0.4817(4)
C84 C 0.5372(5) 0.8349(4) 0.4731(4)
H17 H 0.37412 0.91862 0.43431
H18 H 0.37946 0.86244 0.39873
H19 H 0.39265 0.94868 0.3466
H20 H 0.54484 0.97573 0.30554
H21 H 0.69903 0.95114 0.32306
H22 H 0.82079 0.89165 0.4331
H23 H 0.82432 0.8347 0.39857
H24 H 0.80402 0.80613 0.48595
H25 H 0.64995 0.78208 0.52648
H26 H 0.49571 0.80593 0.51222
C85 C 0.1981(4) 0.6501(4) 0.0666(4)
C86 C 0.2994(4) 0.6352(5) 0.0742(5)
C87 C 0.3609(5) 0.6795(5) 0.0157(4)
C88 C 0.4526(5) 0.6671(4) 0.0220(4)
C89 C 0.4918(5) 0.6097(5) 0.0907(5)
C90 C 0.5901(4) 0.6008(4) 0.0969(4)
C91 C 0.4324(5) 0.5676(4) 0.1458(5)
C92 C 0.3388(5) 0.5800(4) 0.1379(5)
H27 H 0.1734 0.67853 0.09323
H28 H 0.16896 0.60298 0.0876
H29 H 0.18607 0.67866 0.01401
H30 H 0.33781 0.71822 -0.02839
H31 H 0.49225 0.69618 -0.01872
H32 H 0.60427 0.60862 0.13879
H33 H 0.61983 0.63728 0.05107
H34 H 0.61232 0.55069 0.10514
H35 H 0.45473 0.52908 0.19042
H36 H 0.29946 0.54932 0.17797
C93 C 0.9043(4) 0.3994(6) 0.4048(5)
C94 C 1.0076(4) 0.4083(5) 0.3909(5)
C95 C 1.0396(5) 0.4687(5) 0.3407(5)
C96 C 1.1352(5) 0.4763(5) 0.3293(5)
C97 C 1.1955(4) 0.4220(5) 0.3680(5)
C98 C 1.2971(4) 0.4230(5) 0.3592(5)
C99 C 1.1622(5) 0.3568(5) 0.4220(5)
C100 C 1.0681(5) 0.3508(5) 0.4336(5)
H37 H 0.87254 0.44669 0.39775
H38 H 0.89099 0.36145 0.45563
H39 H 0.88354 0.38426 0.36976
H40 H 0.99926 0.50856 0.311
H41 H 1.15705 0.52209 0.29261
H42 H 1.32034 0.41727 0.40502
H43 H 1.31467 0.4702 0.318
H44 H 1.3228 0.38206 0.34872
H45 H 1.20254 0.31649 0.45088
H46 H 1.04483 0.3064 0.47174
C101 C 0.9076(4) 0.9019(5) -0.0960(5)
C102 C 1.0107(4) 0.9115(5) -0.1103(5)
C103 C 1.0441(5) 0.9706(5) -0.1634(5)
C104 C 1.1384(5) 0.9785(5) -0.1760(5)
C105 C 1.1990(4) 0.9242(5) -0.1347(5)
C106 C 1.3010(4) 0.9252(5) -0.1446(5)
C107 C 1.1646(5) 0.8617(5) -0.0795(5)
C108 C 1.0722(4) 0.8544(4) -0.0667(4)
H47 H 0.8827 0.9062 -0.14068
H48 H 0.87792 0.94044 -0.08339
H49 H 0.89665 0.85295 -0.05474
H50 H 1.32293 0.913 -0.18519
H51 H 1.32761 0.88853 -0.09867
H52 H 1.31895 0.97463 -0.15651
H53 H 1.00385 1.00953 -0.19464
H54 H 1.16023 1.02323 -0.21462
H55 H 1.20502 0.82226 -0.04925
H56 H 1.04972 0.81005 -0.02775
Ru1 Ru 0.56704(3) 0.52755(3) 0.48985(3)
O1 O 0.6293(2) 0.4496(2) 0.4575(2)
O2 O 0.53171(19) 0.5979(2) 0.3841(2)
N1 N 0.7010(3) 0.5814(3) 0.4625(3)
O3 O 0.5036(2) 0.6008(2) 0.5251(2)
O4 O 0.5989(2) 0.4568(2) 0.5974(2)
C1 C 0.5802(3) 0.4031(3) 0.4582(3)
C2 C 0.4562(3) 0.5896(3) 0.3641(3)
C3 C 0.7780(3) 0.5883(3) 0.4506(3)
C4 C 0.6293(3) 0.3443(3) 0.4389(3)
C5 C 0.4303(4) 0.6425(3) 0.2883(3)
N2 N 0.8662(3) 0.6043(3) 0.4296(3)
C6 C 0.5985(4) 0.3316(4) 0.3832(3)
C7 C 0.7011(4) 0.3005(4) 0.4761(4)
C8 C 0.3403(4) 0.6641(3) 0.2691(4)
C9 C 0.4972(4) 0.6802(4) 0.2278(4)
C10 C 0.9300(4) 0.5515(4) 0.4663(4)
F1 F 0.5292(2) 0.3743(3) 0.3438(3)
C11 C 0.6439(4) 0.2801(4) 0.3643(4)
F2 F 0.7319(2) 0.3093(2) 0.5314(2)
C12 C 0.7446(4) 0.2449(4) 0.4592(4)
F3 F 0.2713(2) 0.6360(2) 0.3206(2)
C13 C 0.3163(4) 0.7161(4) 0.1971(4)
F4 F 0.5847(2) 0.66441(18) 0.24044(19)
C14 C 0.4711(4) 0.7282(3) 0.1606(4)
C15 C 0.9099(3) 0.4810(4) 0.5230(4)
C16 C 1.0239(4) 0.5744(4) 0.4384(4)
F5 F 0.6146(2) 0.2716(3) 0.3073(3)
C17 C 0.7161(4) 0.2334(4) 0.4038(4)
F6 F 0.8151(3) 0.2049(3) 0.4971(2)
F7 F 0.2299(2) 0.7332(2) 0.1843(2)
C18 C 0.3842(4) 0.7502(4) 0.1403(4)
F8 F 0.5395(3) 0.7595(2) 0.1076(2)
H1 H 0.84767 0.47024 0.53582
C19 C 1.0416(4) 0.6467(4) 0.3831(4)
F9 F 0.7534(13) 0.1948(13) 0.3840(14)
F10 F 0.3533(14) 0.7860(12) 0.0842(13)
H2 H 1.10733 0.65254 0.3767
H3 H 1.01052 0.68316 0.39818
H4 H 1.0192 0.65467 0.33617
C1A C 0.4198(3) 0.5969(3) 0.5418(3)
C2A C 0.5438(3) 0.4104(3) 0.6359(3)
O3A O 0.4964(2) 0.3992(2) 0.4749(2)
O4A O 0.4011(2) 0.5432(2) 0.4026(2)
O1A O 0.3707(2) 0.5504(2) 0.5425(2)
C4A C 0.3707(3) 0.6557(3) 0.5611(3)
O2A O 0.46829(19) 0.4021(2) 0.6159(2)
C5A C 0.5697(4) 0.3575(3) 0.7117(3)
Ru1A Ru 0.43296(3) 0.47245(3) 0.51015(3)
C6A C 0.4015(4) 0.6684(4) 0.6168(3)
C7A C 0.2989(4) 0.6995(4) 0.5239(4)
C8A C 0.6597(4) 0.3359(3) 0.7309(4)
C9A C 0.5028(4) 0.3198(4) 0.7722(4)
N1A N 0.2990(3) 0.4186(3) 0.5375(3)
F1A F 0.4708(2) 0.6257(3) 0.6562(3)
C11A C 0.3561(4) 0.7199(4) 0.6357(4)
F2A F 0.2681(2) 0.6907(2) 0.4686(2)
C12A C 0.2554(4) 0.7551(4) 0.5408(4)
F3A F 0.7287(2) 0.3640(2) 0.6794(2)
C13A C 0.6837(4) 0.2839(4) 0.8029(4)
F4A F 0.4153(2) 0.33559(18) 0.75956(19)
C14A C 0.5289(4) 0.2718(3) 0.8394(4)
C16A C 0.9761(4) 0.4256(4) 0.5616(4)
C15A C 1.0901(3) 0.5190(4) 0.4770(4)
F5A F 0.3854(2) 0.7284(3) 0.6927(3)
C17A C 0.2839(4) 0.7666(4) 0.5962(4)
F6A F 0.1849(3) 0.7951(3) 0.5029(2)
F7A F 0.7701(2) 0.2668(2) 0.8157(2)
C18A C 0.6158(4) 0.2498(4) 0.8597(4)
F8A F 0.4605(3) 0.2405(2) 0.8924(2)
C10A C 1.0700(4) 0.4485(4) 0.5337(4)
C19A C 0.9584(4) 0.3533(4) 0.6169(4)
H1A H 1.15233 0.52976 0.46418
F9A F 0.2466(13) 0.8052(13) 0.6160(14)
F10A F 0.6467(14) 0.2140(12) 0.9158(13)
N2A N 1.1338(3) 0.3957(3) 0.5704(3)
H2A H 0.89267 0.34746 0.6233
H3A H 0.98948 0.31684 0.60182
H4A H 0.9808 0.34533 0.66383
C3A C 1.2220(3) 0.4117(3) 0.5494(3)
N1A_2 N 1.2990(3) 0.4186(3) 0.5375(3)
Ru1A_2 Ru 1.43296(3) 0.47245(3) 0.51015(3)
loop_
_geom_bond_atom_site_label_1
_geom_bond_atom_site_label_2
_geom_bond_site_symmetry_1
_geom_bond_site_symmetry_2
Ru1 O1 1_555 1_555
O1 C1 1_555 1_555
O2 Ru1 1_555 1_555
N1 Ru1 1_555 1_555
O3 Ru1 1_555 1_555
O4 Ru1 1_555 1_555
C1 C4 1_555 1_555
C2 O2 1_555 1_555
C3 N1 1_555 1_555
C4 C6 1_555 1_555
C5 C2 1_555 1_555
N2 C3 1_555 1_555
C6 F1 1_555 1_555
C7 C4 1_555 1_555
C8 C5 1_555 1_555
C9 C5 1_555 1_555
C10 N2 1_555 1_555
C11 C6 1_555 1_555
F2 C7 1_555 1_555
C12 C7 1_555 1_555
F3 C8 1_555 1_555
C13 C8 1_555 1_555
F4 C9 1_555 1_555
C14 C9 1_555 1_555
C15 C10 1_555 1_555
C16 C10 1_555 1_555
F5 C11 1_555 1_555
C17 C11 1_555 1_555
F6 C12 1_555 1_555
F7 C13 1_555 1_555
C18 C13 1_555 1_555
F8 C14 1_555 1_555
H1 C15 1_555 1_555
C19 C16 1_555 1_555
F9 C17 1_555 1_555
F10 C18 1_555 1_555
H2 C19 1_555 1_555
H3 C19 1_555 1_555
H4 C19 1_555 1_555
Ru2 N3 1_555 1_555
N3 C20 1_555 1_555
N4 C20 1_555 1_555
C21 N4 1_555 1_555
C22 C21 1_555 1_555
C23 C21 1_555 1_555
C24 C23 1_555 1_555
H5 C22 1_555 1_555
H6 C24 1_555 1_555
H7 C24 1_555 1_555
H8 C24 1_555 1_555
F11 C27 1_555 1_555
F12 C28 1_555 1_555
F13 C29 1_555 1_555
F14 C30 1_555 1_555
F15 C31 1_555 1_555
F16 C34 1_555 1_555
F17 C35 1_555 1_555
F18 C36 1_555 1_555
F19 C37 1_555 1_555
F20 C38 1_555 1_555
O5 C25 1_555 1_555
O6 C25 1_555 1_555
O7 C32 1_555 1_555
O8 C32 1_555 1_555
C25 C26 1_555 1_555
C26 C27 1_555 1_555
C27 C28 1_555 1_555
C28 C29 1_555 1_555
C29 C30 1_555 1_555
C30 C31 1_555 1_555
C31 C26 1_555 1_555
C32 C33 1_555 1_555
C33 C34 1_555 1_555
C34 C35 1_555 1_555
C35 C36 1_555 1_555
C36 C37 1_555 1_555
C37 C38 1_555 1_555
C38 C33 1_555 1_555
Ru3 N5 1_555 1_555
N5 C39 1_555 1_555
N6 C39 1_555 1_555
C40 N6 1_555 1_555
C41 C40 1_555 1_555
C42 C40 1_555 1_555
C43 C42 1_555 1_555
H9 C41 1_555 1_555
H10 C43 1_555 1_555
H11 C43 1_555 1_555
H12 C43 1_555 1_555
F21 C46 1_555 1_555
F22 C47 1_555 1_555
F23 C48 1_555 1_555
F24 C49 1_555 1_555
F25 C50 1_555 1_555
F26 C53 1_555 1_555
F27 C54 1_555 1_555
F28 C55 1_555 1_555
F29 C56 1_555 1_555
F30 C57 1_555 1_555
O9 C44 1_555 1_555
O10 C44 1_555 1_555
O11 C51 1_555 1_555
O12 C51 1_555 1_555
C44 C45 1_555 1_555
C45 C46 1_555 1_555
C46 C47 1_555 1_555
C47 C48 1_555 1_555
C48 C49 1_555 1_555
C49 C50 1_555 1_555
C50 C45 1_555 1_555
C51 C52 1_555 1_555
C52 C53 1_555 1_555
C53 C54 1_555 1_555
C54 C55 1_555 1_555
C55 C56 1_555 1_555
C56 C57 1_555 1_555
C57 C52 1_555 1_555
N7 C58 1_555 1_555
N8 C58 1_555 1_555
C59 N8 1_555 1_555
C60 C59 1_555 1_555
C61 C59 1_555 1_555
C62 C61 1_555 1_555
H13 C60 1_555 1_555
H14 C62 1_555 1_555
H15 C62 1_555 1_555
H16 C62 1_555 1_555
Ru4 N7 1_555 1_555
F31 C65 1_555 1_555
F32 C66 1_555 1_555
F33 C67 1_555 1_555
F34 C68 1_555 1_555
F35 C69 1_555 1_555
O13 C63 1_555 1_555
O14 C63 1_555 1_555
C63 C64 1_555 1_555
C64 C65 1_555 1_555
C65 C66 1_555 1_555
C66 C67 1_555 1_555
C67 C68 1_555 1_555
C68 C69 1_555 1_555
C69 C64 1_555 1_555
F36 C72 1_555 1_555
F37 C73 1_555 1_555
F38 C74 1_555 1_555
F39 C75 1_555 1_555
F40 C76 1_555 1_555
O15 C70 1_555 1_555
O16 C70 1_555 1_555
C70 C71 1_555 1_555
C71 C72 1_555 1_555
C72 C73 1_555 1_555
C73 C74 1_555 1_555
C74 C75 1_555 1_555
C75 C76 1_555 1_555
C76 C71 1_555 1_555
C77 C78 1_555 1_555
C78 C79 1_555 1_555
C79 C80 1_555 1_555
C80 C81 1_555 1_555
C81 C82 1_555 1_555
C82 H22 1_555 1_555
C83 C81 1_555 1_555
C84 C78 1_555 1_555
H17 C77 1_555 1_555
H18 C77 1_555 1_555
H19 C77 1_555 1_555
H20 C79 1_555 1_555
H21 C80 1_555 1_555
H23 C82 1_555 1_555
H24 C82 1_555 1_555
H25 C83 1_555 1_555
H26 C84 1_555 1_555
C85 C86 1_555 1_555
C86 C87 1_555 1_555
C87 C88 1_555 1_555
C88 C89 1_555 1_555
C89 C90 1_555 1_555
C90 H32 1_555 1_555
C91 C89 1_555 1_555
C92 C86 1_555 1_555
H27 C85 1_555 1_555
H28 C85 1_555 1_555
H29 C85 1_555 1_555
H30 C87 1_555 1_555
H31 C88 1_555 1_555
H33 C90 1_555 1_555
H34 C90 1_555 1_555
H35 C91 1_555 1_555
H36 C92 1_555 1_555
C93 C94 1_555 1_555
C94 C95 1_555 1_555
C95 C96 1_555 1_555
C96 C97 1_555 1_555
C97 C98 1_555 1_555
C98 H42 1_555 1_555
C99 C97 1_555 1_555
C100 C94 1_555 1_555
H37 C93 1_555 1_555
H38 C93 1_555 1_555
H39 C93 1_555 1_555
H40 C95 1_555 1_555
H41 C96 1_555 1_555
H43 C98 1_555 1_555
H44 C98 1_555 1_555
H45 C99 1_555 1_555
H46 C100 1_555 1_555
C101 C102 1_555 1_555
C102 C103 1_555 1_555
C103 C104 1_555 1_555
C104 C105 1_555 1_555
C105 C106 1_555 1_555
C106 H50 1_555 1_555
C107 C105 1_555 1_555
C108 C102 1_555 1_555
H47 C101 1_555 1_555
H48 C101 1_555 1_555
H49 C101 1_555 1_555
H51 C106 1_555 1_555
H52 C106 1_555 1_555
H53 C103 1_555 1_555
H54 C104 1_555 1_555
H55 C107 1_555 1_555
H56 C108 1_555 1_555
C1A O3 1_555 1_555
C2A O4 1_555 1_555
O3A C1 1_555 1_555
O4A C2 1_555 1_555
O1A C1A 1_555 1_555
C4A C1A 1_555 1_555
O2A C2A 1_555 1_555
C5A C2A 1_555 1_555
Ru1A O3A 1_555 1_555
C6A C4A 1_555 1_555
C7A C4A 1_555 1_555
C8A C5A 1_555 1_555
C9A C5A 1_555 1_555
N1A Ru1A 1_555 1_555
F1A C6A 1_555 1_555
C11A C6A 1_555 1_555
F2A C7A 1_555 1_555
C12A C7A 1_555 1_555
F3A C8A 1_555 1_555
C13A C8A 1_555 1_555
F4A C9A 1_555 1_555
C14A C9A 1_555 1_555
C16A C15 1_555 1_555
C15A C16 1_555 1_555
F5A C11A 1_555 1_555
C17A C11A 1_555 1_555
F6A C12A 1_555 1_555
F7A C13A 1_555 1_555
C18A C13A 1_555 1_555
F8A C14A 1_555 1_555
C10A C16A 1_555 1_555
C19A C16A 1_555 1_555
H1A C15A 1_555 1_555
F9A C17A 1_555 1_555
F10A C18A 1_555 1_555
N2A C10A 1_555 1_555
H2A C19A 1_555 1_555
H3A C19A 1_555 1_555
H4A C19A 1_555 1_555
C3A N2A 1_555 1_555
N1A_2 C3A 1_555 1_555
Ru1A_2 N1A_2 1_555 1_555
N3A C20A 1_555 1_555
N4A C20A 1_555 1_555
C21A N4A 1_555 1_555
C22A C23 1_555 1_555
C23A C22 1_555 1_555
C24A C23A 1_555 1_555
H5A C22A 1_555 1_555
H6A C24A 1_555 1_555
H7A C24A 1_555 1_555
H8A C24A 1_555 1_555
Ru2A O5 1_555 1_555
Ru2_2 O6 1_555 1_555
O6A Ru2A 1_555 1_555
O8A Ru2A 1_555 1_555
F12A C28A 1_555 1_555
C28A C29A 1_555 1_555
F13A C29A 1_555 1_555
C29A C30A 1_555 1_555
C36A C37A 1_555 1_555
C37A C38A 1_555 1_555
F18A C36A 1_555 1_555
C35A C36A 1_555 1_555
F16A C34A 1_555 1_555
C34A C35A 1_555 1_555
C30A C31A 1_555 1_555
C31A C26A 1_555 1_555
C25A O6A 1_555 1_555
C26A C25A 1_555 1_555
C38A C33A 1_555 1_555
F15A C31A 1_555 1_555
C33A C34A 1_555 1_555
C32A O8A 1_555 1_555
F19A C37A 1_555 1_555
F20A C38A 1_555 1_555
O5A Ru2_2 1_555 1_555
F17A C35A 1_555 1_555
F11A C27A 1_555 1_555
C27A C28A 1_555 1_555
O7A Ru2_2 1_555 1_555
F14A C30A 1_555 1_555
N3_2 Ru2_2 1_555 1_555
N5A C39A 1_555 1_555
N6A C39A 1_555 1_555
C40A N6A 1_555 1_555
C41A C42 1_555 1_555
C42A C41 1_555 1_555
C43A C42A 1_555 1_555
H9A C41A 1_555 1_555
H10A C43A 1_555 1_555
H11A C43A 1_555 1_555
H12A C43A 1_555 1_555
Ru3A O9 1_555 1_555
Ru3_2 O10 1_555 1_555
O10A Ru3A 1_555 1_555
O12A Ru3A 1_555 1_555
F26A C53A 1_555 1_555
C53A C52A 1_555 1_555
C52A C57A 1_555 1_555
C57A C56A 1_555 1_555
C49A C50A 1_555 1_555
C50A C45A 1_555 1_555
F27A C54A 1_555 1_555
C54A C53A 1_555 1_555
C44A O10A 1_555 1_555
C45A C44A 1_555 1_555
O11A Ru3_2 1_555 1_555
C51A O12A 1_555 1_555
C47A C48A 1_555 1_555
C48A C49A 1_555 1_555
C55A C54A 1_555 1_555
C56A C55A 1_555 1_555
O9A Ru3_2 1_555 1_555
F25A C50A 1_555 1_555
N5_2 Ru3_2 1_555 1_555
F28A C55A 1_555 1_555
F24A C49A 1_555 1_555
F23A C48A 1_555 1_555
F22A C47A 1_555 1_555
F21A C46A 1_555 1_555
C46A C45A 1_555 1_555
F30A C57A 1_555 1_555
F29A C56A 1_555 1_555
N7A C58A 1_555 1_555
N8A C58A 1_555 1_555
C59A N8A 1_555 1_555
C60A C61 1_555 1_555
C61A C60 1_555 1_555
C62A C61A 1_555 1_555
H13A C60A 1_555 1_555
H14A C62A 1_555 1_555
H15A C62A 1_555 1_555
H16A C62A 1_555 1_555
Ru4A O13 1_555 1_555
O14A Ru4A 1_555 1_555
O16A Ru4A 1_555 1_555
Ru4_2 O14 1_555 1_555
F31A C65A 1_555 1_555
C65A C66A 1_555 1_555
F32A C66A 1_555 1_555
C66A C67A 1_555 1_555
F33A C67A 1_555 1_555
C67A C68A 1_555 1_555
F34A C68A 1_555 1_555
C68A C69A 1_555 1_555
F35A C69A 1_555 1_555
C69A C64A 1_555 1_555
O13A Ru4_2 1_555 1_555
C63A O14A 1_555 1_555
C64A C65A 1_555 1_555
F36A C72A 1_555 1_555
C72A C73A 1_555 1_555
F37A C73A 1_555 1_555
C73A C74A 1_555 1_555
F38A C74A 1_555 1_555
C74A C75A 1_555 1_555
F39A C75A 1_555 1_555
C75A C76A 1_555 1_555
F40A C76A 1_555 1_555
C76A C71A 1_555 1_555
O15A Ru4_2 1_555 1_555
C70A O16A 1_555 1_555
C71A C72A 1_555 1_555
N7_2 Ru4_2 1_555 1_555
C12 C17 1_555 1_555
C14 C18 1_555 1_555
O7 Ru2A 1_555 1_555
O8 Ru2_2 1_555 1_555
O11 Ru3A 1_555 1_555
O12 Ru3_2 1_555 1_555
O15 Ru4A 1_555 1_555
O16 Ru4_2 1_555 1_555
C83 C84 1_555 1_555
C91 C92 1_555 1_555
C99 C100 1_555 1_555
C107 C108 1_555 1_555
O4A Ru1A 1_555 1_555
O1A Ru1A 1_555 1_555
O2A Ru1A 1_555 1_555
C12A C17A 1_555 1_555
C14A C18A 1_555 1_555
C15A C10A 1_555 1_555
N3A Ru2A 1_555 1_555
C21A C22A 1_555 1_555
C21A C23A 1_555 1_555
C25A O5A 1_555 1_555
C26A C27A 1_555 1_555
C33A C32A 1_555 1_555
C32A O7A 1_555 1_555
N5A Ru3A 1_555 1_555
C40A C41A 1_555 1_555
C40A C42A 1_555 1_555
C52A C51A 1_555 1_555
C44A O9A 1_555 1_555
O11A C51A 1_555 1_555
C47A C46A 1_555 1_555
N7A Ru4A 1_555 1_555
C59A C60A 1_555 1_555
C59A C61A 1_555 1_555
O13A C63A 1_555 1_555
C63A C64A 1_555 1_555
O15A C70A 1_555 1_555
C70A C71A 1_555 1_555

#END
