
#######################################################################
#
#                 Cambridge Crystallographic Data Centre
#                                CCDC 
#
#######################################################################
#
# If this CIF has been generated from an entry in the Cambridge 
# Structural Database, then it will include bibliographic, chemical, 
# crystal, experimental, refinement or atomic coordinate data resulting 
# from the CCDC's data processing and validation procedures.
#
#######################################################################

data_MIXJOU
_symmetry_cell_setting           triclinic
_symmetry_space_group_name_H-M   'P -1'
_symmetry_Int_Tables_number      2
_space_group_name_Hall           '-P 1'
loop_
_symmetry_equiv_pos_site_id
_symmetry_equiv_pos_as_xyz
1 x,y,z
2 -x,-y,-z
_cell_length_a                   11.6597(10)
_cell_length_b                   12.0190(11)
_cell_length_c                   13.1497(13)
_cell_angle_alpha                109.5400(14)
_cell_angle_beta                 101.6020(9)
_cell_angle_gamma                93.9200(13)
_cell_volume                     1682.7
loop_
_atom_site_label
_atom_site_type_symbol
_atom_site_fract_x
_atom_site_fract_y
_atom_site_fract_z
Ru1 Ru 0.054652(11) -0.003808(11) 0.081075(10)
F1 F -0.24021(11) -0.37296(10) -0.23781(9)
F2 F -0.37541(11) -0.57602(10) -0.26981(10)
F3 F -0.42310(11) -0.62459(11) -0.09350(12)
F4 F -0.33691(12) -0.46423(11) 0.11535(11)
F5 F -0.20269(10) -0.26211(9) 0.15021(8)
F6 F -0.36116(9) 0.18398(10) 0.03327(9)
F7 F -0.47215(10) 0.34758(11) 0.15101(11)
F8 F -0.36127(12) 0.49814(11) 0.35835(12)
F9 F -0.13534(12) 0.48102(11) 0.44887(10)
F10 F -0.01894(10) 0.32106(10) 0.33244(9)
O1 O -0.05944(10) -0.15198(10) 0.06332(9)
O2 O -0.16726(10) -0.14455(10) -0.09575(9)
O3 O -0.04518(10) 0.11129(10) 0.16791(9)
O4 O -0.15100(10) 0.12066(11) 0.00859(9)
N1 N 0.16759(12) 0.00041(13) 0.24439(12)
N2 N 0.28884(13) 0.06897(13) 0.43806(12)
C1 C -0.14254(14) -0.19245(15) -0.02332(14)
C2 C -0.21767(15) -0.30671(15) -0.04230(14)
C3 C -0.26444(16) -0.39115(16) -0.14875(15)
C4 C -0.33286(17) -0.49650(16) -0.16616(16)
C5 C -0.35773(17) -0.52166(17) -0.07757(18)
C6 C -0.31325(17) -0.44065(17) 0.02817(17)
C7 C -0.24357(16) -0.33624(16) 0.04491(15)
C8 C -0.12255(15) 0.15150(15) 0.11322(14)
C9 C -0.18520(15) 0.24466(15) 0.17778(14)
C10 C -0.30122(16) 0.25607(16) 0.13483(15)
C11 C -0.36059(17) 0.33989(17) 0.19490(18)
C12 C -0.30436(19) 0.41606(17) 0.30026(18)
C13 C -0.18952(19) 0.40809(17) 0.34566(16)
C14 C -0.13129(16) 0.32323(16) 0.28482(15)
C15 C 0.22715(15) 0.02759(15) 0.33218(14)
C16 C 0.39003(15) 0.03260(15) 0.46499(14)
C17 C 0.43940(15) -0.05556(15) 0.38725(14)
C18 C 0.45460(15) 0.08847(15) 0.58209(14)
C19 C 0.40049(16) 0.17784(16) 0.66037(14)
H1 H 0.3957 -0.0914 0.3122
H2 H 0.4481 0.1990 0.7364
H3 H 0.3199 0.1437 0.6554
H4 H 0.3979 0.2495 0.6407
N1A N 0.83241(12) -0.00041(13) 0.75561(12)
N2A N 0.71116(13) -0.06897(13) 0.56194(12)
C15A C 0.77285(15) -0.02759(15) 0.66782(14)
C16A C 0.60997(15) -0.03260(15) 0.53501(14)
C17A C 0.56060(15) 0.05556(15) 0.61275(14)
C18A C 0.54540(15) -0.08847(15) 0.41791(14)
C19A C 0.59951(16) -0.17784(16) 0.33963(14)
H1A H 0.6043 0.0914 0.6878
H2A H 0.5519 -0.1990 0.2636
H3A H 0.6801 -0.1437 0.3446
H4A H 0.6021 -0.2495 0.3593
Ru1A Ru -0.054652(11) 0.003808(11) -0.081075(10)
F1A F 0.24021(11) 0.37296(10) 0.23781(9)
F2A F 0.37541(11) 0.57602(10) 0.26981(10)
F3A F 0.42310(11) 0.62459(11) 0.09350(12)
F4A F 0.33691(12) 0.46423(11) -0.11535(11)
F5A F 0.20269(10) 0.26211(9) -0.15021(8)
F6A F 0.36116(9) -0.18398(10) -0.03327(9)
F7A F 0.47215(10) -0.34758(11) -0.15101(11)
F8A F 0.36127(12) -0.49814(11) -0.35835(12)
F9A F 0.13534(12) -0.48102(11) -0.44887(10)
F10A F 0.01894(10) -0.32106(10) -0.33244(9)
O1A O 0.05944(10) 0.15198(10) -0.06332(9)
O2A O 0.16726(10) 0.14455(10) 0.09575(9)
O3A O 0.04518(10) -0.11129(10) -0.16791(9)
O4A O 0.15100(10) -0.12066(11) -0.00859(9)
C1A C 0.14254(14) 0.19245(15) 0.02332(14)
C2A C 0.21767(15) 0.30671(15) 0.04230(14)
C3A C 0.26444(16) 0.39115(16) 0.14875(15)
C4A C 0.33286(17) 0.49650(16) 0.16616(16)
C5A C 0.35773(17) 0.52166(17) 0.07757(18)
C6A C 0.31325(17) 0.44065(17) -0.02817(17)
C7A C 0.24357(16) 0.33624(16) -0.04491(15)
C8A C 0.12255(15) -0.15150(15) -0.11322(14)
C9A C 0.18520(15) -0.24466(15) -0.17778(14)
C10A C 0.30122(16) -0.25607(16) -0.13483(15)
C11A C 0.36059(17) -0.33989(17) -0.19490(18)
C12A C 0.30436(19) -0.41606(17) -0.30026(18)
C13A C 0.18952(19) -0.40809(17) -0.34566(16)
C14A C 0.13129(16) -0.32323(16) -0.28482(15)
Ru1A_2 Ru 0.945348(11) 0.003808(11) 0.918925(10)
N1A_2 N -0.16759(12) -0.00041(13) -0.24439(12)
C20 C 0.6555(2) -0.04181(19) 0.14339(18)
C21 C 0.60417(17) 0.05111(16) 0.22361(16)
C22 C 0.48949(16) 0.07491(16) 0.19144(15)
C23 C 0.44292(16) 0.16241(16) 0.26311(15)
C24 C 0.50843(17) 0.22957(16) 0.37064(15)
C25 C 0.4571(2) 0.32659(18) 0.44633(17)
C26 C 0.62173(17) 0.20418(17) 0.40337(16)
C27 C 0.66890(16) 0.11665(17) 0.33098(17)
H5 H 0.6647 -0.0160 0.0819
H6 H 0.6023 -0.1179 0.1142
H7 H 0.7330 -0.0519 0.1820
H8 H 0.4427 0.0301 0.1190
H9 H 0.3650 0.1772 0.2388
H10 H 0.4466 0.3905 0.4162
H11 H 0.5111 0.3588 0.5203
H12 H 0.3804 0.2936 0.4518
H13 H 0.6677 0.2474 0.4765
H14 H 0.7466 0.1015 0.3554
C28 C 0.04295(17) 0.06119(18) 0.61247(16)
C29 C 0.00817(16) -0.06099(17) 0.57267(15)
C30 C -0.03587(16) -0.12476(17) 0.45964(16)
C31 C -0.0764(2) -0.25739(19) 0.41774(18)
H15 H 0.0721 0.1025 0.6901
H16 H 0.0145 -0.1022 0.6235
H17 H -0.0110 -0.2974 0.4410
H18 H -0.1016 -0.2876 0.3364
H19 H -0.1429 -0.2734 0.4485
C28A C -0.04295(17) -0.06119(18) 0.38753(16)
C29A C -0.00817(16) 0.06099(17) 0.42733(15)
C30A C 0.03587(16) 0.12476(17) 0.54036(16)
C31A C 0.0764(2) 0.25739(19) 0.58226(18)
H15A H -0.0721 -0.1025 0.3099
H16A H -0.0145 0.1022 0.3765
H17A H 0.0110 0.2974 0.5590
H18A H 0.1016 0.2876 0.6636
H19A H 0.1429 0.2734 0.5515
C32 C 0.8766(3) 0.3069(3) 0.7958(3)
C33 C 0.93935(19) 0.40690(19) 0.9008(2)
C34 C 0.92886(19) 0.40726(19) 1.0044(2)
C35 C 1.01216(19) 0.5024(2) 0.8985(2)
H20 H 0.8504 0.3389 0.7370
H21 H 0.8077 0.2669 0.8087
H22 H 0.9307 0.2494 0.7732
H23 H 0.8796 0.3433 1.0083
H24 H 1.0213 0.5053 0.8292
C32A C 1.1234(3) 0.6931(3) 1.2042(3)
C33A C 1.06065(19) 0.59310(19) 1.0992(2)
C34A C 1.07114(19) 0.59274(19) 0.9956(2)
C35A C 0.98784(19) 0.4976(2) 1.1015(2)
H20A H 1.1496 0.6611 1.2630
H21A H 1.1923 0.7331 1.1913
H22A H 1.0693 0.7506 1.2268
H23A H 1.1204 0.6567 0.9917
H24A H 0.9787 0.4947 1.1708
loop_
_geom_bond_atom_site_label_1
_geom_bond_atom_site_label_2
_geom_bond_site_symmetry_1
_geom_bond_site_symmetry_2
Ru1 O1 1_555 1_555
F1 C3 1_555 1_555
F2 C4 1_555 1_555
F3 C5 1_555 1_555
F4 C6 1_555 1_555
F5 C7 1_555 1_555
F6 C10 1_555 1_555
F7 C11 1_555 1_555
F8 C12 1_555 1_555
F9 C13 1_555 1_555
F10 C14 1_555 1_555
O1 C1 1_555 1_555
O2 C1 1_555 1_555
O3 Ru1 1_555 1_555
O4 C8 1_555 1_555
N1 Ru1 1_555 1_555
N2 C15 1_555 1_555
C1 C2 1_555 1_555
C2 C3 1_555 1_555
C3 C4 1_555 1_555
C4 C5 1_555 1_555
C5 C6 1_555 1_555
C6 C7 1_555 1_555
C7 C2 1_555 1_555
C8 O3 1_555 1_555
C9 C8 1_555 1_555
C10 C9 1_555 1_555
C11 C10 1_555 1_555
C12 C11 1_555 1_555
C13 C12 1_555 1_555
C14 C9 1_555 1_555
C15 N1 1_555 1_555
C16 N2 1_555 1_555
C17 C16 1_555 1_555
C18 C16 1_555 1_555
C19 C18 1_555 1_555
H1 C17 1_555 1_555
H2 C19 1_555 1_555
H3 C19 1_555 1_555
H4 C19 1_555 1_555
C20 C21 1_555 1_555
C21 C22 1_555 1_555
C22 C23 1_555 1_555
C23 C24 1_555 1_555
C24 C25 1_555 1_555
C25 H10 1_555 1_555
C26 C24 1_555 1_555
C27 C21 1_555 1_555
H5 C20 1_555 1_555
H6 C20 1_555 1_555
H7 C20 1_555 1_555
H8 C22 1_555 1_555
H9 C23 1_555 1_555
H11 C25 1_555 1_555
H12 C25 1_555 1_555
H13 C26 1_555 1_555
H14 C27 1_555 1_555
C28 C29 1_555 1_555
C29 C30 1_555 1_555
C30 C31 1_555 1_555
C31 H17 1_555 1_555
H15 C28 1_555 1_555
H16 C29 1_555 1_555
H18 C31 1_555 1_555
H19 C31 1_555 1_555
C32 C33 1_555 1_555
C33 C34 1_555 1_555
C34 H23 1_555 1_555
C35 C33 1_555 1_555
H20 C32 1_555 1_555
H21 C32 1_555 1_555
H22 C32 1_555 1_555
H24 C35 1_555 1_555
N1A C15A 1_555 1_555
N2A C15A 1_555 1_555
C16A N2A 1_555 1_555
C17A C18 1_555 1_555
C18A C17 1_555 1_555
C19A C18A 1_555 1_555
H1A C17A 1_555 1_555
H2A C19A 1_555 1_555
H3A C19A 1_555 1_555
H4A C19A 1_555 1_555
Ru1A Ru1 1_555 1_555
F1A C3A 1_555 1_555
F2A C4A 1_555 1_555
F3A C5A 1_555 1_555
F4A C6A 1_555 1_555
F5A C7A 1_555 1_555
F6A C10A 1_555 1_555
F7A C11A 1_555 1_555
F8A C12A 1_555 1_555
F9A C13A 1_555 1_555
F10A C14A 1_555 1_555
O1A Ru1A 1_555 1_555
O2A Ru1 1_555 1_555
O3A Ru1A 1_555 1_555
O4A Ru1 1_555 1_555
C1A O1A 1_555 1_555
C2A C1A 1_555 1_555
C3A C2A 1_555 1_555
C4A C3A 1_555 1_555
C5A C4A 1_555 1_555
C6A C5A 1_555 1_555
C7A C2A 1_555 1_555
C8A O3A 1_555 1_555
C9A C8A 1_555 1_555
C10A C9A 1_555 1_555
C11A C10A 1_555 1_555
C12A C11A 1_555 1_555
C13A C12A 1_555 1_555
C14A C9A 1_555 1_555
Ru1A_2 N1A 1_555 1_555
N1A_2 Ru1A 1_555 1_555
C28A C30 1_555 1_555
C29A C28A 1_555 1_555
C30A C28 1_555 1_555
C31A C30A 1_555 1_555
H15A C28A 1_555 1_555
H16A C29A 1_555 1_555
H17A C31A 1_555 1_555
H18A C31A 1_555 1_555
H19A C31A 1_555 1_555
C32A C33A 1_555 1_555
C33A C34A 1_555 1_555
C34A C35 1_555 1_555
C35A C34 1_555 1_555
H20A C32A 1_555 1_555
H21A C32A 1_555 1_555
H22A C32A 1_555 1_555
H23A C34A 1_555 1_555
H24A C35A 1_555 1_555
O2 Ru1A 1_555 1_555
O4 Ru1A 1_555 1_555
C13 C14 1_555 1_555
C26 C27 1_555 1_555
C16A C17A 1_555 1_555
C16A C18A 1_555 1_555
O2A C1A 1_555 1_555
O4A C8A 1_555 1_555
C6A C7A 1_555 1_555
C13A C14A 1_555 1_555
C29A C30A 1_555 1_555
C33A C35A 1_555 1_555

#END
