
#######################################################################
#
#                 Cambridge Crystallographic Data Centre
#                                CCDC 
#
#######################################################################
#
# If this CIF has been generated from an entry in the Cambridge 
# Structural Database, then it will include bibliographic, chemical, 
# crystal, experimental, refinement or atomic coordinate data resulting 
# from the CCDC's data processing and validation procedures.
#
#######################################################################

data_MIXKIO
_symmetry_cell_setting           rhombohedral
_symmetry_space_group_name_H-M   'R -3'
_symmetry_Int_Tables_number      148
_space_group_name_Hall           '-R 3'
loop_
_symmetry_equiv_pos_site_id
_symmetry_equiv_pos_as_xyz
1 x,y,z
2 -y,x-y,z
3 -x+y,-x,z
4 2/3+x,1/3+y,1/3+z
5 2/3-y,1/3+x-y,1/3+z
6 2/3-x+y,1/3-x,1/3+z
7 1/3+x,2/3+y,2/3+z
8 1/3-y,2/3+x-y,2/3+z
9 1/3-x+y,2/3-x,2/3+z
10 -x,-y,-z
11 y,-x+y,-z
12 x-y,x,-z
13 1/3-x,2/3-y,2/3-z
14 1/3+y,2/3-x+y,2/3-z
15 1/3+x-y,2/3+x,2/3-z
16 2/3-x,1/3-y,1/3-z
17 2/3+y,1/3-x+y,1/3-z
18 2/3+x-y,1/3+x,1/3-z
_cell_length_a                   9.2823(5)
_cell_length_b                   9.2823(5)
_cell_length_c                   48.735(4)
_cell_angle_alpha                90
_cell_angle_beta                 90
_cell_angle_gamma                120.00
_cell_volume                     3636.49
loop_
_atom_site_label
_atom_site_type_symbol
_atom_site_fract_x
_atom_site_fract_y
_atom_site_fract_z
S1 S 1.0000 0.0000 0.0000
O3 O 1.0923(13) 0.1726(10) 0.0029(4)
O3J O 1.1726(10) 0.0803(16) -0.0029(4)
O3A O 0.8274(10) -0.0803(16) 0.0029(4)
O3K O 0.9197(16) 0.0923(13) -0.0029(4)
O3B O 1.0803(16) -0.0923(13) 0.0029(4)
O3I O 0.9077(13) -0.1726(10) -0.0029(4)
O5 O 1.3876(4) 0.3954(4) -0.02028(8)
H3 H 1.3681 0.3124 -0.0302
H4 H 1.4808 0.4848 -0.0214
O6 O 0.3333 -0.3333 0.03758(15)
O7 O 1.3333 0.6667 0.1252(8)
Ag1 Ag 0.6667 0.3333 0.088101(6)
O1 O 0.6667 0.3333 0.03604(9)
O2 O 1.0960(3) 0.8447(2) 0.10604(4)
N1 N 0.8835(3) 0.6012(2) 0.09173(4)
C1 C 0.9918(4) 0.6723(4) 0.06720(6)
H9 H 0.9324 0.6902 0.0524
H10 H 1.0310 0.5991 0.0608
C2 C 1.1348(6) 0.8355(5) 0.07718(7)
H11 H 1.2395 0.8365 0.0755
H12 H 1.1417 0.9280 0.0668
C3 C 0.9511(3) 0.7036(3) 0.11111(5)
C4 C 0.8904(3) 0.6862(3) 0.13976(5)
C5 C 0.7232(3) 0.5794(3) 0.14562(5)
H13 H 0.6492 0.5208 0.1315
C6 C 0.9999(3) 0.7730(3) 0.16085(5)
H14 H 1.1118 0.8445 0.1570
Ag1O Ag 1.0000 1.0000 0.245232(6)
Ag1P Ag -0.0000 -0.0001 0.245232(6)
Ag1P_2 Ag 1.0000 -0.0001 0.245232(6)
O1O O 1.0000 1.0000 0.29729(9)
O2O O 0.5707(3) 0.4886(2) 0.22729(4)
O2A O 0.1553(2) 0.2513(4) 0.10604(4)
O2P O 0.5114(2) 0.0820(4) 0.22729(4)
O2B O 0.7487(4) -0.0960(3) 0.10604(4)
O2Q O 0.9180(4) 0.4293(3) 0.22729(4)
N1O N 0.7832(3) 0.7321(2) 0.24160(4)
N1A N 0.3988(2) 0.2823(4) 0.09173(4)
N1P N 0.2679(2) 0.0510(4) 0.24160(4)
N1B N 0.7177(4) 0.1165(3) 0.09173(4)
N1Q N 0.9490(4) 0.2168(3) 0.24160(4)
N1P_2 N 1.2679(2) 1.0510(4) 0.24160(4)
N1Q_2 N 0.9490(4) 1.2168(3) 0.24160(4)
C1O C 0.6749(4) 0.6610(4) 0.26613(6)
C1A C 0.3277(4) 0.3195(6) 0.06720(6)
C1P C 0.3390(4) 0.0138(6) 0.26613(6)
C1B C 0.6805(6) 0.0082(4) 0.06720(6)
C1Q C 0.9862(6) 0.3251(4) 0.26613(6)
H9O H 0.7343 0.6431 0.2809
H9A H 0.3098 0.2422 0.0524
H9P H 0.3569 0.0911 0.2809
H9B H 0.7578 0.0676 0.0524
H9Q H 0.9089 0.2657 0.2809
H10O H 0.6357 0.7342 0.2725
H10A H 0.4009 0.4319 0.0608
H10P H 0.2658 -0.0986 0.2725
H10B H 0.5681 -0.0310 0.0608
H10Q H 1.0986 0.3643 0.2725
C2O C 0.5319(6) 0.4978(5) 0.25615(7)
C2A C 0.1645(5) 0.2993(8) 0.07718(7)
C2P C 0.5022(5) 0.0340(8) 0.25615(7)
C2B C 0.7007(8) -0.1348(6) 0.07718(7)
C2Q C 0.9660(8) 0.4681(6) 0.25615(7)
H11O H 0.4272 0.4968 0.2578
H11A H 0.1635 0.4030 0.0755
H11P H 0.5032 -0.0697 0.2578
H11B H 0.5970 -0.2395 0.0755
H11Q H 1.0697 0.5728 0.2578
H12O H 0.5250 0.4053 0.2665
H12A H 0.0720 0.2137 0.0668
H12P H 0.5947 0.1196 0.2665
H12B H 0.7863 -0.1417 0.0668
H12Q H 0.8804 0.4750 0.2665
C3O C 0.7156(3) 0.6297(3) 0.22222(5)
C3A C 0.2964(3) 0.2475(4) 0.11111(5)
C3P C 0.3703(3) 0.0858(4) 0.22222(5)
C3B C 0.7525(4) 0.0489(3) 0.11111(5)
C3Q C 0.9142(4) 0.2844(3) 0.22222(5)
C4O C 0.7763(3) 0.6471(3) 0.19357(5)
C4A C 0.3138(3) 0.2042(4) 0.13976(5)
C4P C 0.3529(3) 0.1291(4) 0.19357(5)
C4B C 0.7958(4) 0.1096(3) 0.13976(5)
C4Q C 0.8709(4) 0.2237(3) 0.19357(5)
C5O C 0.9435(3) 0.7539(3) 0.18771(5)
C5A C 0.4206(3) 0.1438(4) 0.14562(5)
C5P C 0.2461(3) 0.1895(4) 0.18771(5)
C5B C 0.8562(4) 0.2768(3) 0.14562(5)
C5Q C 0.8105(4) 0.0565(3) 0.18771(5)
H13O H 1.0175 0.8125 0.2018
H13A H 0.4792 0.1284 0.1315
H13P H 0.1875 0.2049 0.2018
H13B H 0.8716 0.3508 0.1315
H13Q H 0.7951 -0.0175 0.2018
C6O C 0.6668(3) 0.5603(3) 0.17248(5)
C6A C 0.2270(3) 0.2269(4) 0.16085(5)
C6P C 0.4397(3) 0.1064(4) 0.17248(5)
C6B C 0.7731(4) 0.0001(3) 0.16085(5)
C6Q C 0.8936(4) 0.3332(3) 0.17248(5)
H14O H 0.5549 0.4888 0.1763
H14A H 0.1555 0.2673 0.1570
H14P H 0.5112 0.0660 0.1763
H14B H 0.7327 -0.1118 0.1570
H14Q H 0.9340 0.4451 0.1763
H1? H 0.7365 0.4195 0.0273
H2? H 0.5968 0.2471 0.0273
O4? O 1.018(3) 0.105(3) 0.0229(5)
H5? H 0.3837 -0.3577 0.0255
H6? H 0.2350 -0.4050 0.0424
H7? H 1.4103 0.6754 0.1147
H8? H 1.3567 0.7081 0.1412
loop_
_geom_bond_atom_site_label_1
_geom_bond_atom_site_label_2
_geom_bond_site_symmetry_1
_geom_bond_site_symmetry_2
Ag1 O1 1_555 1_555
S1 O3 1_555 1_555
O2 C2 1_555 1_555
O3 O3J 1_555 1_555
O5 H3 1_555 1_555
H4 O5 1_555 1_555
N1 Ag1 1_555 1_555
C1 N1 1_555 1_555
H9 C1 1_555 1_555
H10 C1 1_555 1_555
C2 C1 1_555 1_555
H11 C2 1_555 1_555
H12 C2 1_555 1_555
C3 O2 1_555 1_555
C4 C3 1_555 1_555
C5 C4 1_555 1_555
H13 C5 1_555 1_555
C6 C4 1_555 1_555
H14 C6 1_555 1_555
Ag1O O1O 1_555 1_555
Ag1P N1P 1_555 1_555
Ag1P_2 N1Q 1_555 1_555
O2O C2O 1_555 1_555
O2A C2A 1_555 1_555
O2P C2P 1_555 1_555
O2B C2B 1_555 1_555
O2Q C2Q 1_555 1_555
O3J S1 1_555 1_555
O3A S1 1_555 1_555
O3K S1 1_555 1_555
O3B S1 1_555 1_555
O3I S1 1_555 1_555
N1O Ag1O 1_555 1_555
N1A Ag1 1_555 1_555
N1P C1P 1_555 1_555
N1B Ag1 1_555 1_555
N1Q C1Q 1_555 1_555
N1P_2 Ag1O 1_555 1_555
N1Q_2 Ag1O 1_555 1_555
C1O N1O 1_555 1_555
C1A N1A 1_555 1_555
C1P H9P 1_555 1_555
C1B N1B 1_555 1_555
C1Q H9Q 1_555 1_555
H9O C1O 1_555 1_555
H9A C1A 1_555 1_555
H9B C1B 1_555 1_555
H10O C1O 1_555 1_555
H10A C1A 1_555 1_555
H10P C1P 1_555 1_555
H10B C1B 1_555 1_555
H10Q C1Q 1_555 1_555
C2O C1O 1_555 1_555
C2A C1A 1_555 1_555
C2P C1P 1_555 1_555
C2B C1B 1_555 1_555
C2Q C1Q 1_555 1_555
H11O C2O 1_555 1_555
H11A C2A 1_555 1_555
H11P C2P 1_555 1_555
H11B C2B 1_555 1_555
H11Q C2Q 1_555 1_555
H12O C2O 1_555 1_555
H12A C2A 1_555 1_555
H12P C2P 1_555 1_555
H12B C2B 1_555 1_555
H12Q C2Q 1_555 1_555
C3O O2O 1_555 1_555
C3A O2A 1_555 1_555
C3P O2P 1_555 1_555
C3B O2B 1_555 1_555
C3Q O2Q 1_555 1_555
C4O C3O 1_555 1_555
C4A C3A 1_555 1_555
C4P C3P 1_555 1_555
C4B C3B 1_555 1_555
C4Q C3Q 1_555 1_555
C5O C6 1_555 1_555
C5A C4A 1_555 1_555
C5P C4P 1_555 1_555
C5B C4B 1_555 1_555
C5Q C4Q 1_555 1_555
H13O C5O 1_555 1_555
H13A C5A 1_555 1_555
H13P C5P 1_555 1_555
H13B C5B 1_555 1_555
H13Q C5Q 1_555 1_555
C6O C5 1_555 1_555
C6A C4A 1_555 1_555
C6P C4P 1_555 1_555
C6B C4B 1_555 1_555
C6Q C4Q 1_555 1_555
H14O C6O 1_555 1_555
H14A C6A 1_555 1_555
H14P C6P 1_555 1_555
H14B C6B 1_555 1_555
H14Q C6Q 1_555 1_555
O3 O3K 1_555 1_555
N1 C3 1_555 1_555
O3J O3B 1_555 1_555
O3A O3K 1_555 1_555
O3A O3I 1_555 1_555
O3B O3I 1_555 1_555
N1O C3O 1_555 1_555
N1A C3A 1_555 1_555
N1P C3P 1_555 1_555
N1B C3B 1_555 1_555
N1Q C3Q 1_555 1_555
C4O C5O 1_555 1_555
C4O C6O 1_555 1_555
C5A C6P 1_555 1_555
C5P C6A 1_555 1_555
C5B C6Q 1_555 1_555
C5Q C6B 1_555 1_555

#END
