
#######################################################################
#
#                 Cambridge Crystallographic Data Centre
#                                CCDC 
#
#######################################################################
#
# If this CIF has been generated from an entry in the Cambridge 
# Structural Database, then it will include bibliographic, chemical, 
# crystal, experimental, refinement or atomic coordinate data resulting 
# from the CCDC's data processing and validation procedures.
#
#######################################################################

data_MIXKOU
_symmetry_cell_setting           triclinic
_symmetry_space_group_name_H-M   'P -1'
_symmetry_Int_Tables_number      2
_space_group_name_Hall           '-P 1'
loop_
_symmetry_equiv_pos_site_id
_symmetry_equiv_pos_as_xyz
1 x,y,z
2 -x,-y,-z
_cell_length_a                   11.809(2)
_cell_length_b                   12.869(3)
_cell_length_c                   17.996(4)
_cell_angle_alpha                99.26(3)
_cell_angle_beta                 102.77(3)
_cell_angle_gamma                116.57(3)
_cell_volume                     2277.26
loop_
_atom_site_label
_atom_site_type_symbol
_atom_site_fract_x
_atom_site_fract_y
_atom_site_fract_z
C1 C 0.524(2) 0.3695(18) 0.1889(8)
H1 H 0.4861 0.2965 0.2071
H2 H 0.6171 0.3900 0.1927
C2 C 0.4445(10) 0.3306(17) 0.0993(9)
H3 H 0.4774 0.3991 0.0764
H4 H 0.4478 0.2616 0.0684
C3 C 0.231(2) 0.2952(18) 0.0265(5)
H5 H 0.2831 0.3775 0.0216
H6 H 0.1478 0.2891 0.0339
C4 C 0.187(2) 0.2051(16) -0.0559(7)
H7 H 0.2637 0.1990 -0.0632
H8 H 0.1531 0.2342 -0.0979
H9 H 0.1156 0.1248 -0.0591
C5 C 0.0751(11) 0.1017(16) 0.0953(11)
H10 H 0.0677 0.1539 0.1378
H11 H 0.0534 0.0237 0.1057
H12 H 0.0123 0.0875 0.0438
Cd1 Cd 0.31624(5) 0.43869(5) 0.21378(3)
Cd2 Cd 0.16207(5) 0.58110(4) 0.09685(3)
Cd3 Cd 0.32796(5) 0.42103(4) 0.41744(3)
N1 N 0.0868(6) 0.4756(6) -0.0331(4)
N2 N 0.1501(7) 0.4556(6) -0.0723(4)
N3 N 0.2071(8) 0.4358(9) -0.1114(4)
N4 N 0.3655(6) 0.5864(6) 0.1410(4)
N5 N 0.4794(8) 0.6637(8) 0.1580(6)
N6 N 0.5904(10) 0.7381(11) 0.1767(11)
N7 N 0.2611(6) 0.2939(5) 0.2890(3)
N8 N 0.2358(8) 0.1903(6) 0.2767(4)
N9 N 0.2146(15) 0.0926(8) 0.2654(6)
N10 N 0.5239(6) 0.4188(6) 0.4542(4)
N11 N 0.5602(6) 0.3680(5) 0.4118(4)
N12 N 0.5987(7) 0.3218(7) 0.3719(4)
N13 N 0.2462(6) 0.7869(5) 0.0860(3)
N14 N 0.1314(6) 0.6797(5) 0.2004(3)
N15 N 0.1833(5) 0.4852(5) 0.4404(4)
N16 N 0.1843(6) 0.2724(5) 0.4717(4)
N17 N 0.5343(8) 0.4701(8) 0.2479(5)
H13 H 0.5934 0.5443 0.2443
H14 H 0.5625 0.4668 0.2989
N18 N 0.3087(8) 0.2941(7) 0.1026(5)
O1 O -0.1969(5) 0.1468(5) 0.2556(3)
O2 O 0.1230(5) 0.4421(4) 0.1679(3)
O3 O 0.5515(6) 0.9521(5) 0.3343(3)
O4 O 0.3574(5) 0.5481(4) 0.3407(3)
C6 C 0.2163(8) 0.7850(7) 0.0003(4)
H15 H 0.2259 0.8645 -0.0030
H16 H 0.1218 0.7215 -0.0297
C7 C 0.3066(9) 0.7606(8) -0.0387(5)
H17 H 0.3973 0.8317 -0.0171
H18 H 0.2715 0.7447 -0.0964
H19 H 0.3096 0.6895 -0.0277
C8 C 0.3925(7) 0.8682(6) 0.1328(5)
H20 H 0.4438 0.8390 0.1078
H21 H 0.4079 0.8598 0.1873
C9 C 0.4497(8) 1.0036(7) 0.1397(5)
H22 H 0.4279 1.0131 0.0864
H23 H 0.5474 1.0470 0.1652
H24 H 0.4104 1.0374 0.1720
C10 C 0.1602(7) 0.8214(7) 0.1204(4)
H25 H 0.0661 0.7711 0.0841
H26 H 0.1888 0.9076 0.1239
C11 C 0.1665(8) 0.8052(6) 0.2032(4)
H27 H 0.2581 0.8621 0.2414
H28 H 0.1032 0.8244 0.2218
C12 C 0.0583(7) 0.6287(6) 0.2406(4)
H29 H -0.0206 0.6396 0.2247
C13 C 0.0348(7) 0.4164(6) 0.2070(4)
C14 C 0.0039(7) 0.5026(6) 0.2430(4)
C15 C -0.0904(7) 0.4645(7) 0.2832(4)
H30 H -0.1101 0.5225 0.3078
C16 C -0.1551(7) 0.3493(7) 0.2889(5)
H31 H -0.2171 0.3279 0.3172
C17 C -0.1268(7) 0.2625(6) 0.2511(4)
C18 C -0.0311(7) 0.2970(6) 0.2121(4)
H32 H -0.0103 0.2390 0.1888
C19 C -0.1869(8) 0.0526(7) 0.2076(6)
H33 H -0.2098 0.0524 0.1518
H34 H -0.2491 -0.0265 0.2117
H35 H -0.0950 0.0676 0.2265
C20 C 0.5645(10) 1.0708(7) 0.3511(5)
H36 H 0.4772 1.0633 0.3269
H37 H 0.6297 1.1225 0.3289
H38 H 0.5952 1.1074 0.4090
C21 C 0.3655(7) 0.6560(6) 0.3622(4)
C22 C 0.2889(7) 0.6776(6) 0.4077(4)
C23 C 0.3012(7) 0.7937(7) 0.4251(4)
H39 H 0.2489 0.8077 0.4543
C24 C 0.3852(8) 0.8880(7) 0.4018(5)
H40 H 0.3897 0.9646 0.4138
C25 C 0.4637(7) 0.8675(6) 0.3599(4)
C26 C 0.4511(7) 0.7525(6) 0.3391(4)
H41 H 0.5021 0.7393 0.3086
C27 C 0.2025(7) 0.5927(7) 0.4419(4)
H42 H 0.2327 0.6374 0.4990
C28 C 0.0989(7) 0.4199(7) 0.4853(5)
H43 H 0.0070 0.3605 0.4483
H44 H 0.0931 0.4785 0.5251
C29 C 0.1590(8) 0.3541(7) 0.5273(4)
H45 H 0.2448 0.4150 0.5698
H46 H 0.0974 0.3046 0.5531
C30 C 0.0589(7) 0.1793(7) 0.4061(5)
H47 H 0.0800 0.1256 0.3731
H48 H 0.0292 0.2214 0.3717
C31 C -0.0596(9) 0.0986(8) 0.4316(6)
H49 H -0.0295 0.0629 0.4702
H50 H -0.1321 0.0334 0.3846
H51 H -0.0925 0.1482 0.4561
C32 C 0.2531(8) 0.2215(7) 0.5196(5)
H52 H 0.1967 0.1777 0.5498
H53 H 0.3388 0.2894 0.5588
C33 C 0.2825(9) 0.1345(8) 0.4701(5)
H54 H 0.1980 0.0597 0.4384
H55 H 0.3407 0.1149 0.5058
H56 H 0.3275 0.1732 0.4344
C34 C 0.2196(10) 0.1646(7) 0.0928(7)
H57 H 0.2096 0.1455 0.1429
H58 H 0.2369 0.1075 0.0600
Cd2A Cd -0.16207(5) 0.41890(4) -0.09685(3)
Cd3A Cd 0.67204(5) 0.57897(4) 0.58256(3)
N1A N -0.0868(6) 0.5244(6) 0.0331(4)
N10A N 0.4761(6) 0.5812(6) 0.5458(4)
O5 O 0.1947(10) 0.3052(9) 0.7335(6)
C35? C 0.111(3) 0.188(3) 0.0467(14)
H59? H 0.0882 0.2327 0.0846
H60? H 0.0307 0.1102 0.0145
H61? H 0.1453 0.2364 0.0117
C36? C 0.370(2) 0.3665(14) 0.0522(11)
H62? H 0.4611 0.4341 0.0852
H63? H 0.3158 0.4025 0.0314
C37? C 0.380(4) 0.289(3) -0.0185(12)
H64? H 0.4416 0.2610 0.0017
H65? H 0.4137 0.3392 -0.0529
H66? H 0.2910 0.2193 -0.0493
C38? C 0.5737(17) 0.407(2) 0.1918(16)
H67? H 0.6367 0.3834 0.2192
H68? H 0.6118 0.4552 0.1569
C39? C 0.4319(13) 0.2968(19) 0.1464(11)
H69? H 0.4447 0.2433 0.1072
H70? H 0.4074 0.2534 0.1861
H71? H 0.1095 0.6798 0.2967
H72? H 0.1121 0.5811 0.4179
loop_
_geom_bond_atom_site_label_1
_geom_bond_atom_site_label_2
_geom_bond_site_symmetry_1
_geom_bond_site_symmetry_2
C1 H1 1_555 1_555
H2 C1 1_555 1_555
C2 C1 1_555 1_555
H3 C2 1_555 1_555
H4 C2 1_555 1_555
C3 H5 1_555 1_555
H6 C3 1_555 1_555
C4 C3 1_555 1_555
H7 C4 1_555 1_555
H8 C4 1_555 1_555
H9 C4 1_555 1_555
C5 H10 1_555 1_555
H11 C5 1_555 1_555
H12 C5 1_555 1_555
Cd1 N4 1_555 1_555
Cd2 N1 1_555 1_555
Cd3 N7 1_555 1_555
N1 N2 1_555 1_555
N2 N3 1_555 1_555
N4 Cd2 1_555 1_555
N5 N4 1_555 1_555
N6 N5 1_555 1_555
N7 Cd1 1_555 1_555
N8 N7 1_555 1_555
N9 N8 1_555 1_555
N10 Cd3 1_555 1_555
N11 N10 1_555 1_555
N12 N11 1_555 1_555
N13 Cd2 1_555 1_555
N14 Cd2 1_555 1_555
N15 Cd3 1_555 1_555
N16 Cd3 1_555 1_555
N17 C1 1_555 1_555
H13 N17 1_555 1_555
H14 N17 1_555 1_555
N18 C2 1_555 1_555
O1 C17 1_555 1_555
O2 Cd1 1_555 1_555
O3 C20 1_555 1_555
O4 Cd1 1_555 1_555
C6 N13 1_555 1_555
H15 C6 1_555 1_555
H16 C6 1_555 1_555
C7 C6 1_555 1_555
H17 C7 1_555 1_555
H18 C7 1_555 1_555
H19 C7 1_555 1_555
C8 N13 1_555 1_555
H20 C8 1_555 1_555
H21 C8 1_555 1_555
C9 C8 1_555 1_555
H22 C9 1_555 1_555
H23 C9 1_555 1_555
H24 C9 1_555 1_555
C10 N13 1_555 1_555
H25 C10 1_555 1_555
H26 C10 1_555 1_555
C11 N14 1_555 1_555
H27 C11 1_555 1_555
H28 C11 1_555 1_555
C12 N14 1_555 1_555
H29 C12 1_555 1_555
C13 O2 1_555 1_555
C14 C12 1_555 1_555
C15 C14 1_555 1_555
H30 C15 1_555 1_555
C16 C15 1_555 1_555
H31 C16 1_555 1_555
C17 C16 1_555 1_555
C18 C13 1_555 1_555
H32 C18 1_555 1_555
C19 O1 1_555 1_555
H33 C19 1_555 1_555
H34 C19 1_555 1_555
H35 C19 1_555 1_555
C20 H36 1_555 1_555
H37 C20 1_555 1_555
H38 C20 1_555 1_555
C21 O4 1_555 1_555
C22 C21 1_555 1_555
C23 C22 1_555 1_555
H39 C23 1_555 1_555
C24 C23 1_555 1_555
H40 C24 1_555 1_555
C25 O3 1_555 1_555
C26 C21 1_555 1_555
H41 C26 1_555 1_555
C27 N15 1_555 1_555
H42 C27 1_555 1_555
C28 N15 1_555 1_555
H43 C28 1_555 1_555
H44 C28 1_555 1_555
C29 N16 1_555 1_555
H45 C29 1_555 1_555
H46 C29 1_555 1_555
C30 N16 1_555 1_555
H47 C30 1_555 1_555
H48 C30 1_555 1_555
C31 C30 1_555 1_555
H49 C31 1_555 1_555
H50 C31 1_555 1_555
H51 C31 1_555 1_555
C32 N16 1_555 1_555
H52 C32 1_555 1_555
H53 C32 1_555 1_555
C33 C32 1_555 1_555
H54 C33 1_555 1_555
H55 C33 1_555 1_555
H56 C33 1_555 1_555
C34 C5 1_555 1_555
H57 C34 1_555 1_555
H58 C34 1_555 1_555
Cd2A N1 1_555 1_555
Cd3A N10 1_555 1_555
N1A Cd2 1_555 1_555
N10A Cd3 1_555 1_555
C3 N18 1_555 1_555
Cd1 N17 1_555 1_555
Cd1 N18 1_555 1_555
Cd2 O2 1_555 1_555
Cd3 O4 1_555 1_555
N18 C34 1_555 1_555
C10 C11 1_555 1_555
C13 C14 1_555 1_555
C17 C18 1_555 1_555
C22 C27 1_555 1_555
C24 C25 1_555 1_555
C25 C26 1_555 1_555
C28 C29 1_555 1_555
Cd2A N1A 1_555 1_555
Cd3A N10A 1_555 1_555

#END
