
#######################################################################
#
#                 Cambridge Crystallographic Data Centre
#                                CCDC 
#
#######################################################################
#
# If this CIF has been generated from an entry in the Cambridge 
# Structural Database, then it will include bibliographic, chemical, 
# crystal, experimental, refinement or atomic coordinate data resulting 
# from the CCDC's data processing and validation procedures.
#
#######################################################################

data_MIXLAI
_symmetry_cell_setting           triclinic
_symmetry_space_group_name_H-M   'P -1'
_symmetry_Int_Tables_number      2
_space_group_name_Hall           '-P 1'
loop_
_symmetry_equiv_pos_site_id
_symmetry_equiv_pos_as_xyz
1 x,y,z
2 -x,-y,-z
_cell_length_a                   5.23330(10)
_cell_length_b                   9.1580(3)
_cell_length_c                   14.8415(4)
_cell_angle_alpha                84.1910(10)
_cell_angle_beta                 85.964(2)
_cell_angle_gamma                79.8480(10)
_cell_volume                     695.567
loop_
_atom_site_label
_atom_site_type_symbol
_atom_site_fract_x
_atom_site_fract_y
_atom_site_fract_z
C1 C 0.5943(6) 0.3822(3) 0.6266(2)
C2 C 0.5226(7) 0.2416(4) 0.5995(2)
H1 H 0.6769 0.1654 0.5996
H2 H 0.4666 0.2599 0.5378
C3 C 0.3116(6) 0.1821(4) 0.6591(3)
H3 H 0.1504 0.2525 0.6536
H4 H 0.3576 0.1733 0.7219
C4 C 0.2689(6) 0.0308(3) 0.6348(3)
H5 H 0.1055 0.0105 0.6640
H6 H 0.2525 0.0362 0.5698
C5 C 0.4818(6) -0.0986(3) 0.6613(2)
C6 C 1.0724(7) 0.6735(4) 0.8022(2)
H7 H 1.0500 0.7684 0.7718
C7 C 0.9695(7) 0.4383(4) 0.8219(2)
H8 H 0.8760 0.3688 0.8051
C8 C 1.1323(8) 0.3978(4) 0.8927(3)
H9 H 1.1485 0.3030 0.9231
C9 C 1.2710(7) 0.5013(4) 0.9176(2)
C10 C 1.2401(8) 0.6414(5) 0.8720(3)
H10 H 1.3305 0.7129 0.8879
N1 N 0.9408(5) 0.5733(3) 0.77643(17)
N2 N 1.4398(7) 0.4530(4) 0.9903(2)
O1 O 0.7525(5) 0.4467(3) 0.57480(18)
O2 O 0.5078(6) 0.4351(3) 0.69824(19)
O3 O 1.0324(5) 0.6923(3) 0.57304(17)
O4 O 0.6638(5) -0.0849(3) 0.7052(2)
O5 O 0.4561(4) -0.2248(2) 0.63524(17)
Zn1 Zn 0.75352(6) 0.61627(4) 0.65761(2)
H11 H 1.1680 0.7201 0.5954
H12 H 1.1046 0.6408 0.5224
C6A C 1.9276(7) 0.3265(4) 1.1978(2)
H7A H 1.9500 0.2316 1.2282
C7A C 2.0305(7) 0.5617(4) 1.1781(2)
H8A H 2.1240 0.6312 1.1949
C8A C 1.8677(8) 0.6022(4) 1.1073(3)
H9A H 1.8515 0.6970 1.0769
C9A C 1.7290(7) 0.4987(4) 1.0824(2)
C10A C 1.7599(8) 0.3586(5) 1.1280(3)
H10A H 1.6695 0.2871 1.1121
N1A N 2.0592(5) 0.4267(3) 1.22357(17)
N2A N 1.5602(7) 0.5470(4) 1.0097(2)
C1A C 2.4057(6) 0.6178(3) 1.3734(2)
C2A C 2.4774(7) 0.7584(4) 1.4005(2)
H1A H 2.3231 0.8346 1.4004
H2A H 2.5334 0.7401 1.4622
C3A C 2.6884(6) 0.8179(4) 1.3409(3)
H3A H 2.8496 0.7475 1.3464
H4A H 2.6424 0.8267 1.2781
C4A C 2.7311(6) 0.9692(3) 1.3652(3)
H5A H 2.8945 0.9895 1.3360
H6A H 2.7475 0.9638 1.4302
C5A C 2.5182(6) 1.0986(3) 1.3387(2)
O1A O 2.2475(5) 0.5533(3) 1.42520(18)
O2A O 2.4922(6) 0.5649(3) 1.30176(19)
O3A O 1.9676(5) 0.3077(3) 1.42696(17)
O4A O 2.3362(5) 1.0849(3) 1.2948(2)
O5A O 2.5439(4) 1.2248(2) 1.36476(17)
Zn1A Zn 2.24648(6) 0.38373(4) 1.34239(2)
H11A H 1.8320 0.2799 1.4046
H12A H 1.8954 0.3592 1.4776
O5_2 O 0.4561(4) 0.7752(2) 0.63524(17)
O5A_2 O 2.5439(4) 0.2248(2) 1.36476(17)
Zn1_2 Zn 0.75352(6) -0.38373(4) 0.65761(2)
Zn1A_2 Zn 2.24648(6) 1.38373(4) 1.34239(2)
O6 O 1.497(4) 0.003(3) 0.9196(15)
O7 O 1.191(4) -0.011(3) 1.0003(17)
loop_
_geom_bond_atom_site_label_1
_geom_bond_atom_site_label_2
_geom_bond_site_symmetry_1
_geom_bond_site_symmetry_2
C1 C2 1_555 1_555
C2 H1 1_555 1_555
H2 C2 1_555 1_555
C3 C2 1_555 1_555
H3 C3 1_555 1_555
H4 C3 1_555 1_555
C4 C3 1_555 1_555
H5 C4 1_555 1_555
H6 C4 1_555 1_555
C5 C4 1_555 1_555
C6 H7 1_555 1_555
C7 H8 1_555 1_555
C8 C7 1_555 1_555
H9 C8 1_555 1_555
C9 C8 1_555 1_555
C10 C6 1_555 1_555
H10 C10 1_555 1_555
N1 C6 1_555 1_555
N2 C9 1_555 1_555
O1 C1 1_555 1_555
O2 C1 1_555 1_555
O3 Zn1 1_555 1_555
O4 C5 1_555 1_555
O5 C5 1_555 1_555
Zn1 N1 1_555 1_555
H11 O3 1_555 1_555
H12 O3 1_555 1_555
C6A H7A 1_555 1_555
C7A H8A 1_555 1_555
C8A C7A 1_555 1_555
H9A C8A 1_555 1_555
C9A C8A 1_555 1_555
C10A C6A 1_555 1_555
H10A C10A 1_555 1_555
N1A C6A 1_555 1_555
N2A N2 1_555 1_555
C1A C2A 1_555 1_555
C2A H1A 1_555 1_555
H2A C2A 1_555 1_555
C3A C2A 1_555 1_555
H3A C3A 1_555 1_555
H4A C3A 1_555 1_555
C4A C3A 1_555 1_555
H5A C4A 1_555 1_555
H6A C4A 1_555 1_555
C5A C4A 1_555 1_555
O1A C1A 1_555 1_555
O2A C1A 1_555 1_555
O3A Zn1A 1_555 1_555
O4A C5A 1_555 1_555
O5A C5A 1_555 1_555
Zn1A N1A 1_555 1_555
H11A O3A 1_555 1_555
H12A O3A 1_555 1_555
O5_2 Zn1 1_555 1_555
O5A_2 Zn1A 1_555 1_555
Zn1_2 O5 1_555 1_555
Zn1A_2 O5A 1_555 1_555
C7 N1 1_555 1_555
C9 C10 1_555 1_555
O1 Zn1 1_555 1_555
O2 Zn1 1_555 1_555
C7A N1A 1_555 1_555
C9A C10A 1_555 1_555
C9A N2A 1_555 1_555
O1A Zn1A 1_555 1_555
O2A Zn1A 1_555 1_555

#END
