
#######################################################################
#
#                 Cambridge Crystallographic Data Centre
#                                CCDC 
#
#######################################################################
#
# If this CIF has been generated from an entry in the Cambridge 
# Structural Database, then it will include bibliographic, chemical, 
# crystal, experimental, refinement or atomic coordinate data resulting 
# from the CCDC's data processing and validation procedures.
#
#######################################################################

data_MIXMUC
_symmetry_cell_setting           triclinic
_symmetry_space_group_name_H-M   'P -1'
_symmetry_Int_Tables_number      2
_space_group_name_Hall           '-P 1'
loop_
_symmetry_equiv_pos_site_id
_symmetry_equiv_pos_as_xyz
1 x,y,z
2 -x,-y,-z
_cell_length_a                   8.6530(17)
_cell_length_b                   11.355(2)
_cell_length_c                   11.945(2)
_cell_angle_alpha                111.36(3)
_cell_angle_beta                 102.79(3)
_cell_angle_gamma                100.55(3)
_cell_volume                     1019.99
loop_
_atom_site_label
_atom_site_type_symbol
_atom_site_fract_x
_atom_site_fract_y
_atom_site_fract_z
O7 O 0.0340(8) -0.0828(6) -0.6452(5)
C15 C 0.526(2) -0.4308(12) -0.9015(13)
O8 O 0.6438(14) -0.2636(10) -0.6897(10)
C16 C 0.385(4) -0.456(2) -0.903(3)
C17 C 0.710(3) -0.3811(18) -0.9087(19)
C18 C 0.243(3) -0.544(2) -0.978(2)
O9 O 0.347(3) -0.3483(17) -0.7665(18)
N4 N 0.488(4) -0.348(2) -0.786(2)
O10 O 0.821(3) -0.285(2) -0.8127(19)
C19 C 0.404(3) -0.515(2) -0.991(2)
C20 C 0.658(4) -0.337(3) -0.807(2)
C15A C 0.474(2) -0.5692(12) -1.0985(13)
O8A O 0.3562(14) -0.7364(10) -1.3103(10)
C16A C 0.615(4) -0.544(2) -1.097(3)
C17A C 0.290(3) -0.6189(18) -1.0913(19)
C18A C 0.757(3) -0.456(2) -1.022(2)
O9A O 0.653(3) -0.6517(17) -1.2335(18)
N4A N 0.512(4) -0.652(2) -1.214(2)
O10A O 0.179(3) -0.715(2) -1.1873(19)
C19A C 0.596(3) -0.485(2) -1.009(2)
C20A C 0.342(4) -0.663(3) -1.193(2)
Cu1 Cu 0.0000 0.0000 0.0000
N1 N 0.2156(6) 0.0549(4) -0.0358(4)
O1 O 0.2115(5) -0.0496(4) -0.4030(3)
O2 O 0.1691(6) -0.0614(4) 0.1772(4)
C1 C 0.3618(8) 0.0443(5) -0.1837(4)
C2 C 0.2235(8) 0.0077(5) -0.1537(4)
H1 H 0.1296 -0.0534 -0.2186
C3 C 0.3495(9) 0.1377(5) 0.0583(4)
H2 H 0.3446 0.1696 0.1406
C4 C 0.4982(9) 0.1784(5) 0.0367(5)
H3 H 0.5913 0.2362 0.1043
C5 C 0.5065(8) 0.1324(5) -0.0852(4)
H4 H 0.6041 0.1587 -0.1017
C6 C 0.3478(9) -0.0109(5) -0.3207(5)
N2 N 0.4859(7) -0.0121(5) -0.3506(4)
H5 H 0.5770 0.0140 -0.2899
C7 C 0.4945(8) -0.0544(5) -0.4782(4)
H6 H 0.3969 -0.1272 -0.5352
H7 H 0.5906 -0.0863 -0.4822
O3 O 0.0582(5) 0.1746(4) 0.1410(3)
O4 O -0.0974(7) 0.2663(5) 0.0468(5)
C8 C 0.0563(9) 0.3885(5) 0.2644(6)
C9 C 0.1792(9) 0.3954(6) 0.3641(5)
H8 H 0.2241 0.3253 0.3546
C10 C 0.2359(13) 0.5062(9) 0.4780(7)
C11 C 0.160(2) 0.6134(11) 0.4837(15)
H9 H 0.1896 0.6883 0.5596
C12 C 0.047(2) 0.6042(10) 0.3802(14)
H10 H 0.0094 0.6765 0.3838
C13 C -0.0106(13) 0.4937(7) 0.2727(10)
H11 H -0.0942 0.4867 0.2044
C14 C 0.0014(9) 0.2689(6) 0.1377(6)
N3 N 0.3581(18) 0.5181(14) 0.5837(10)
O5 O 0.4148(18) 0.4273(15) 0.5741(11)
O6 O 0.4058(14) 0.6254(12) 0.6787(7)
Cu1_2 Cu 1.0000 0.0000 -1.0000
N1A N -0.2156(6) -0.0549(4) 0.0358(4)
N1A_2 N 0.7844(6) -0.0549(4) -0.9642(4)
O1A O 0.7885(5) 0.0496(4) -0.5970(3)
O2A O -0.1691(6) 0.0614(4) -0.1772(4)
C1A C 0.6382(8) -0.0443(5) -0.8163(4)
C2A C 0.7765(8) -0.0077(5) -0.8463(4)
H1A H 0.8704 0.0534 -0.7814
C3A C 0.6505(9) -0.1377(5) -1.0583(4)
H2A H 0.6554 -0.1696 -1.1406
C4A C 0.5018(9) -0.1784(5) -1.0367(5)
H3A H 0.4087 -0.2362 -1.1043
C5A C 0.4935(8) -0.1324(5) -0.9148(4)
H4A H 0.3959 -0.1587 -0.8983
C6A C 0.6522(9) 0.0109(5) -0.6793(5)
N2A N 0.5141(7) 0.0121(5) -0.6494(4)
H5A H 0.4230 -0.0140 -0.7101
C7A C 0.5055(8) 0.0544(5) -0.5218(4)
H6A H 0.6031 0.1272 -0.4648
H7A H 0.4094 0.0863 -0.5178
O3A O -0.0582(5) -0.1746(4) -0.1410(3)
O4A O 0.0974(7) -0.2663(5) -0.0468(5)
C8A C -0.0563(9) -0.3885(5) -0.2644(6)
C9A C -0.1792(9) -0.3954(6) -0.3641(5)
H8A H -0.2241 -0.3253 -0.3546
C10A C -0.2359(13) -0.5062(9) -0.4780(7)
C11A C -0.160(2) -0.6134(11) -0.4837(15)
H9A H -0.1896 -0.6883 -0.5596
C12A C -0.047(2) -0.6042(10) -0.3802(14)
H10A H -0.0094 -0.6765 -0.3838
C13A C 0.0106(13) -0.4937(7) -0.2727(10)
H11A H 0.0942 -0.4867 -0.2044
C14A C -0.0014(9) -0.2689(6) -0.1377(6)
N3A N -0.3581(18) -0.5181(14) -0.5837(10)
O5A O -0.4148(18) -0.4273(15) -0.5741(11)
O6A O -0.4058(14) -0.6254(12) -0.6787(7)
loop_
_geom_bond_atom_site_label_1
_geom_bond_atom_site_label_2
_geom_bond_site_symmetry_1
_geom_bond_site_symmetry_2
Cu1 N1 1_555 1_555
N1 C2 1_555 1_555
O1 C6 1_555 1_555
O2 Cu1 1_555 1_555
C1 C2 1_555 1_555
C2 H1 1_555 1_555
C3 N1 1_555 1_555
H2 C3 1_555 1_555
C4 C3 1_555 1_555
H3 C4 1_555 1_555
C5 C1 1_555 1_555
H4 C5 1_555 1_555
C6 C1 1_555 1_555
N2 C6 1_555 1_555
H5 N2 1_555 1_555
C7 N2 1_555 1_555
H6 C7 1_555 1_555
H7 C7 1_555 1_555
O3 Cu1 1_555 1_555
O4 C14 1_555 1_555
C8 C9 1_555 1_555
C9 H8 1_555 1_555
C10 C9 1_555 1_555
C11 C10 1_555 1_555
H9 C11 1_555 1_555
C12 C11 1_555 1_555
H10 C12 1_555 1_555
C13 C8 1_555 1_555
H11 C13 1_555 1_555
C14 O3 1_555 1_555
N3 C10 1_555 1_555
O5 N3 1_555 1_555
O6 N3 1_555 1_555
C15 C16 1_555 1_555
O8 N4 1_555 1_555
C16 C18 1_555 1_555
C17 C15 1_555 1_555
C18 C19 1_555 1_555
O9 N4 1_555 1_555
N4 C15 1_555 1_555
O10 C17 1_555 1_555
C19 C15 1_555 1_555
C20 C15 1_555 1_555
Cu1_2 N1A_2 1_555 1_555
N1A Cu1 1_555 1_555
N1A_2 C2A 1_555 1_555
O1A C6A 1_555 1_555
O2A Cu1 1_555 1_555
C1A C2A 1_555 1_555
C2A H1A 1_555 1_555
C3A N1A_2 1_555 1_555
H2A C3A 1_555 1_555
C4A C3A 1_555 1_555
H3A C4A 1_555 1_555
C5A C1A 1_555 1_555
H4A C5A 1_555 1_555
C6A C1A 1_555 1_555
N2A C6A 1_555 1_555
H5A N2A 1_555 1_555
C7A C7 1_555 1_555
H6A C7A 1_555 1_555
H7A C7A 1_555 1_555
O3A Cu1 1_555 1_555
O4A C14A 1_555 1_555
C8A C9A 1_555 1_555
C9A H8A 1_555 1_555
C10A C9A 1_555 1_555
C11A C10A 1_555 1_555
H9A C11A 1_555 1_555
C12A C11A 1_555 1_555
H10A C12A 1_555 1_555
C13A C8A 1_555 1_555
H11A C13A 1_555 1_555
C14A O3A 1_555 1_555
N3A C10A 1_555 1_555
O5A N3A 1_555 1_555
O6A N3A 1_555 1_555
C15A C19 1_555 1_555
O8A N4A 1_555 1_555
C16A C15A 1_555 1_555
C17A C18 1_555 1_555
C18A C17 1_555 1_555
O9A N4A 1_555 1_555
N4A C15A 1_555 1_555
O10A C17A 1_555 1_555
C19A C15 1_555 1_555
C20A C15A 1_555 1_555
C4 C5 1_555 1_555
C8 C14 1_555 1_555
C12 C13 1_555 1_555
O8 C20 1_555 1_555
C16 N4 1_555 1_555
C16 C19 1_555 1_555
C17 C20 1_555 1_555
C17 C19A 1_555 1_555
N4 C20 1_555 1_555
O10 C20 1_555 1_555
C19 C17A 1_555 1_555
C19 C19A 1_555 1_555
C4A C5A 1_555 1_555
N2A C7A 1_555 1_555
C8A C14A 1_555 1_555
C12A C13A 1_555 1_555
C15A C17A 1_555 1_555
C15A C19A 1_555 1_555
O8A C20A 1_555 1_555
C16A C18A 1_555 1_555
C16A N4A 1_555 1_555
C16A C19A 1_555 1_555
C17A C20A 1_555 1_555
C18A C19A 1_555 1_555
N4A C20A 1_555 1_555
O10A C20A 1_555 1_555

#END
