
#######################################################################
#
#                 Cambridge Crystallographic Data Centre
#                                CCDC 
#
#######################################################################
#
# If this CIF has been generated from an entry in the Cambridge 
# Structural Database, then it will include bibliographic, chemical, 
# crystal, experimental, refinement or atomic coordinate data resulting 
# from the CCDC's data processing and validation procedures.
#
#######################################################################

data_MIXMOW
_symmetry_cell_setting           triclinic
_symmetry_space_group_name_H-M   'P -1'
_symmetry_Int_Tables_number      2
_space_group_name_Hall           '-P 1'
loop_
_symmetry_equiv_pos_site_id
_symmetry_equiv_pos_as_xyz
1 x,y,z
2 -x,-y,-z
_cell_length_a                   8.0207(4)
_cell_length_b                   8.5569(4)
_cell_length_c                   11.4218(5)
_cell_angle_alpha                72.396(2)
_cell_angle_beta                 82.019(2)
_cell_angle_gamma                70.683(2)
_cell_volume                     704.473
loop_
_atom_site_label
_atom_site_type_symbol
_atom_site_fract_x
_atom_site_fract_y
_atom_site_fract_z
Ag1 Ag 0.07857(2) 0.28821(2) 0.334390(17)
Ag2 Ag -0.46355(2) 0.80965(2) 0.472431(19)
O1 O 0.0668(3) 0.5566(2) 0.13676(16)
O2 O -0.4430(2) 0.5380(2) 0.67904(16)
O3 O -0.0011(2) 0.0341(2) 0.34789(17)
O4 O -0.1798(2) -0.1099(2) 0.43788(15)
O5 O -0.2623(2) 0.1673(2) 0.40625(18)
O6 O 0.3799(2) 0.0829(2) 0.33636(17)
O7 O 0.3287(3) 0.2341(4) 0.1522(2)
O8 O 0.5861(3) 0.0618(3) 0.1941(2)
N1 N -0.1341(2) 0.5350(2) 0.35531(16)
N2 N -0.2494(2) 0.5485(2) 0.45885(16)
N3 N -0.1495(2) 0.0314(2) 0.39729(15)
N4 N 0.4340(3) 0.1265(3) 0.22463(19)
C1 C 0.1325(4) 0.6065(4) 0.0202(3)
H1 H 0.2297 0.5381 -0.0150
C2 C 0.0398(4) 0.7659(4) -0.0370(2)
H2 H 0.0595 0.8275 -0.1173
C3 C -0.0945(4) 0.8235(4) 0.0479(2)
H3 H -0.1802 0.9307 0.0349
C4 C -0.0738(3) 0.6918(3) 0.1519(2)
C5 C -0.1706(3) 0.6743(3) 0.2667(2)
H4 H -0.2647 0.7680 0.2782
C6 C -0.2198(3) 0.4076(3) 0.54620(19)
H5 H -0.1293 0.3114 0.5348
C7 C -0.3204(3) 0.3934(3) 0.6595(2)
C8 C -0.3189(3) 0.2567(3) 0.7592(2)
H6 H -0.2479 0.1433 0.7688
C9 C -0.4471(4) 0.3215(4) 0.8455(2)
H7 H -0.4766 0.2594 0.9231
C10 C -0.5173(4) 0.4905(4) 0.7924(3)
H8 H -0.6057 0.5651 0.8290
Ag1A Ag -0.07857(2) -0.28821(2) 0.665610(17)
Ag2_2 Ag 0.53645(2) -0.19035(2) 0.472431(19)
Ag2_3 Ag -0.46355(2) -0.19035(2) 0.472431(19)
Ag2A Ag -0.53645(2) 0.19035(2) 0.527569(19)
Ag2A_2 Ag -0.53645(2) 1.19035(2) 0.527569(19)
O4A O 0.1798(2) 0.1099(2) 0.56212(15)
O4_2 O -0.1798(2) 0.8901(2) 0.43788(15)
O5A O -0.7377(2) 0.8327(2) 0.59375(18)
O6_2 O -0.6201(2) 1.0829(2) 0.33636(17)
loop_
_geom_bond_atom_site_label_1
_geom_bond_atom_site_label_2
_geom_bond_site_symmetry_1
_geom_bond_site_symmetry_2
Ag1 O1 1_555 1_555
Ag2 O2 1_555 1_555
O1 C1 1_555 1_555
O2 C7 1_555 1_555
O3 Ag1 1_555 1_555
O4 N3 1_555 1_555
O5 N3 1_555 1_555
O6 Ag1 1_555 1_555
O7 Ag1 1_555 1_555
O8 N4 1_555 1_555
N1 Ag1 1_555 1_555
N2 Ag2 1_555 1_555
N3 O3 1_555 1_555
N4 O6 1_555 1_555
C1 H1 1_555 1_555
C2 C1 1_555 1_555
H2 C2 1_555 1_555
C3 C2 1_555 1_555
H3 C3 1_555 1_555
C4 O1 1_555 1_555
C5 N1 1_555 1_555
H4 C5 1_555 1_555
C6 N2 1_555 1_555
H5 C6 1_555 1_555
C7 C6 1_555 1_555
C8 C7 1_555 1_555
H6 C8 1_555 1_555
C9 C8 1_555 1_555
H7 C9 1_555 1_555
C10 O2 1_555 1_555
H8 C10 1_555 1_555
Ag1A O4 1_555 1_555
Ag2_2 O6 1_555 1_555
Ag2_3 O4 1_555 1_555
Ag2A O5 1_555 1_555
Ag2A_2 Ag2 1_555 1_555
O4A Ag1 1_555 1_555
O4_2 Ag2 1_555 1_555
O5A Ag2 1_555 1_555
O6_2 Ag2 1_555 1_555
O7 N4 1_555 1_555
N1 N2 1_555 1_555
C3 C4 1_555 1_555
C4 C5 1_555 1_555
C9 C10 1_555 1_555
Ag2_3 Ag2A 1_555 1_555

#END
