
#######################################################################
#
#                 Cambridge Crystallographic Data Centre
#                                CCDC 
#
#######################################################################
#
# If this CIF has been generated from an entry in the Cambridge 
# Structural Database, then it will include bibliographic, chemical, 
# crystal, experimental, refinement or atomic coordinate data resulting 
# from the CCDC's data processing and validation procedures.
#
#######################################################################

data_MIXNEN
_symmetry_cell_setting           triclinic
_symmetry_space_group_name_H-M   'P -1'
_symmetry_Int_Tables_number      2
_space_group_name_Hall           '-P 1'
loop_
_symmetry_equiv_pos_site_id
_symmetry_equiv_pos_as_xyz
1 x,y,z
2 -x,-y,-z
_cell_length_a                   8.6297(17)
_cell_length_b                   8.9671(18)
_cell_length_c                   12.467(3)
_cell_angle_alpha                93.51(3)
_cell_angle_beta                 106.47(3)
_cell_angle_gamma                96.74(3)
_cell_volume                     914.226
loop_
_atom_site_label
_atom_site_type_symbol
_atom_site_fract_x
_atom_site_fract_y
_atom_site_fract_z
Cu1 Cu 1.5000 0.0000 0.5000
O2 O 1.6330(5) -0.2451(5) 0.5697(4)
H3 H 1.5762 -0.2968 0.6133
H4 H 1.5959 -0.2649 0.5098
O3 O 1.1907(5) -0.4164(5) 0.6918(4)
N1 N 1.2700(5) -0.0959(5) 0.4850(3)
C1 C 1.0861(6) -0.2573(6) 0.5517(4)
C2 C 1.2407(6) -0.1818(6) 0.5617(4)
H5 H 1.3265 -0.1919 0.6245
C3 C 1.1428(6) -0.0742(6) 0.3970(4)
H6 H 1.1610 -0.0093 0.3451
C4 C 1.0735(6) -0.3614(6) 0.6395(4)
C5 C 0.9878(6) -0.1459(7) 0.3830(4)
H7 H 0.9030 -0.1319 0.3207
C6 C 0.9583(6) -0.2372(7) 0.4601(4)
H8 H 0.8535 -0.2857 0.4513
N2 N 0.9260(5) -0.3901(6) 0.6556(4)
H9 H 0.8458 -0.3485 0.6176
C7 C 0.9029(7) -0.4922(7) 0.7380(5)
H10 H 0.9622 -0.5766 0.7331
H11 H 0.7880 -0.5320 0.7195
C8 C 0.9585(9) -0.4199(8) 0.8551(5)
H12 H 0.8874 -0.3465 0.8631
H13 H 1.0679 -0.3662 0.8697
C9 C 0.9593(9) -0.5308(9) 0.9411(6)
H14 H 0.8473 -0.5710 0.9344
H15 H 1.0130 -0.6143 0.9235
O4 O 1.4595(4) -0.0422(5) 0.3381(3)
O5 O 1.5344(6) -0.2694(7) 0.3424(4)
C10 C 1.4481(7) -0.1729(7) 0.1674(4)
C11 C 1.3405(7) -0.0860(7) 0.1036(5)
H16 H 1.2926 -0.0164 0.1374
C12 C 1.3071(9) -0.1069(8) -0.0116(5)
C13 C 1.3798(13) -0.1998(10) -0.0650(6)
H17 H 1.3575 -0.2063 -0.1427
C14 C 1.4868(12) -0.2840(10) -0.0018(7)
H18 H 1.5377 -0.3492 -0.0370
C15 C 1.5198(8) -0.2737(8) 0.1122(5)
H19 H 1.5905 -0.3340 0.1538
C16 C 1.4839(6) -0.1619(7) 0.2913(4)
N3 N 1.1921(13) -0.0190(11) -0.0778(8)
O6 O 1.1468(13) -0.0440(9) -0.1790(6)
O7 O 1.1460(10) 0.0829(12) -0.0329(8)
Cu1_2 Cu 0.5000 -1.0000 1.5000
O2A O 1.3670(5) 0.2451(5) 0.4303(4)
H3A H 1.4238 0.2968 0.3867
H4A H 1.4041 0.2649 0.4902
O3A O 0.8093(5) -0.5836(5) 1.3082(4)
N1A N 0.7300(5) -0.9041(5) 1.5150(3)
N1A_2 N 1.7300(5) 0.0959(5) 0.5150(3)
C1A C 0.9139(6) -0.7427(6) 1.4483(4)
C2A C 0.7593(6) -0.8182(6) 1.4383(4)
H5A H 0.6735 -0.8081 1.3755
C3A C 0.8572(6) -0.9258(6) 1.6030(4)
H6A H 0.8390 -0.9907 1.6549
C4A C 0.9265(6) -0.6386(6) 1.3605(4)
C5A C 1.0122(6) -0.8541(7) 1.6170(4)
H7A H 1.0970 -0.8681 1.6793
C6A C 1.0417(6) -0.7628(7) 1.5399(4)
H8A H 1.1465 -0.7143 1.5487
N2A N 1.0740(5) -0.6099(6) 1.3444(4)
H9A H 1.1542 -0.6515 1.3824
C7A C 1.0971(7) -0.5078(7) 1.2620(5)
H10A H 1.0378 -0.4234 1.2669
H11A H 1.2120 -0.4680 1.2805
C8A C 1.0415(9) -0.5801(8) 1.1449(5)
H12A H 1.1126 -0.6535 1.1369
H13A H 0.9321 -0.6338 1.1303
C9A C 1.0407(9) -0.4692(9) 1.0589(6)
H14A H 1.1527 -0.4290 1.0656
H15A H 0.9870 -0.3857 1.0765
O4A O 1.5405(4) 0.0422(5) 0.6619(3)
O5A O 1.4656(6) 0.2694(7) 0.6576(4)
C10A C 1.5519(7) 0.1729(7) 0.8326(4)
C11A C 1.6595(7) 0.0860(7) 0.8964(5)
H16A H 1.7074 0.0164 0.8626
C12A C 1.6929(9) 0.1069(8) 1.0116(5)
C13A C 1.6202(13) 0.1998(10) 1.0650(6)
H17A H 1.6425 0.2063 1.1427
C14A C 1.5132(12) 0.2840(10) 1.0018(7)
H18A H 1.4623 0.3492 1.0370
C15A C 1.4802(8) 0.2737(8) 0.8878(5)
H19A H 1.4095 0.3340 0.8462
C16A C 1.5161(6) 0.1619(7) 0.7087(4)
N3A N 1.8079(13) 0.0190(11) 1.0778(8)
O6A O 1.8532(13) 0.0440(9) 1.1790(6)
O7A O 1.8540(10) -0.0829(12) 1.0329(8)
O1 O 1.4941(6) -0.5779(6) 0.2947(5)
H1 H 1.5457 -0.5212 0.3681
H2 H 1.5910 -0.5812 0.2942
loop_
_geom_bond_atom_site_label_1
_geom_bond_atom_site_label_2
_geom_bond_site_symmetry_1
_geom_bond_site_symmetry_2
Cu1 O2 1_555 1_555
O1 H1 1_555 1_555
H2 O1 1_555 1_555
O2 H3 1_555 1_555
H4 O2 1_555 1_555
O3 C4 1_555 1_555
N1 Cu1 1_555 1_555
C1 C2 1_555 1_555
C2 N1 1_555 1_555
H5 C2 1_555 1_555
C3 N1 1_555 1_555
H6 C3 1_555 1_555
C4 C1 1_555 1_555
C5 C3 1_555 1_555
H7 C5 1_555 1_555
C6 C1 1_555 1_555
H8 C6 1_555 1_555
N2 C4 1_555 1_555
H9 N2 1_555 1_555
C7 N2 1_555 1_555
H10 C7 1_555 1_555
H11 C7 1_555 1_555
C8 C7 1_555 1_555
H12 C8 1_555 1_555
H13 C8 1_555 1_555
C9 C8 1_555 1_555
H14 C9 1_555 1_555
H15 C9 1_555 1_555
O4 Cu1 1_555 1_555
O5 C16 1_555 1_555
C10 C11 1_555 1_555
C11 H16 1_555 1_555
C12 C11 1_555 1_555
C13 C12 1_555 1_555
H17 C13 1_555 1_555
C14 C13 1_555 1_555
H18 C14 1_555 1_555
C15 C10 1_555 1_555
H19 C15 1_555 1_555
C16 O4 1_555 1_555
N3 C12 1_555 1_555
O6 N3 1_555 1_555
O7 N3 1_555 1_555
Cu1_2 N1A 1_555 1_555
O2A Cu1 1_555 1_555
H3A O2A 1_555 1_555
H4A O2A 1_555 1_555
O3A C4A 1_555 1_555
N1A C2A 1_555 1_555
N1A_2 Cu1 1_555 1_555
C1A C2A 1_555 1_555
C2A H5A 1_555 1_555
C3A N1A 1_555 1_555
H6A C3A 1_555 1_555
C4A C1A 1_555 1_555
C5A C3A 1_555 1_555
H7A C5A 1_555 1_555
C6A C1A 1_555 1_555
H8A C6A 1_555 1_555
N2A C4A 1_555 1_555
H9A N2A 1_555 1_555
C7A N2A 1_555 1_555
H10A C7A 1_555 1_555
H11A C7A 1_555 1_555
C8A C7A 1_555 1_555
H12A C8A 1_555 1_555
H13A C8A 1_555 1_555
C9A C9 1_555 1_555
H14A C9A 1_555 1_555
H15A C9A 1_555 1_555
O4A Cu1 1_555 1_555
O5A C16A 1_555 1_555
C10A C11A 1_555 1_555
C11A H16A 1_555 1_555
C12A C11A 1_555 1_555
C13A C12A 1_555 1_555
H17A C13A 1_555 1_555
C14A C13A 1_555 1_555
H18A C14A 1_555 1_555
C15A C10A 1_555 1_555
H19A C15A 1_555 1_555
C16A O4A 1_555 1_555
N3A C12A 1_555 1_555
O6A N3A 1_555 1_555
O7A N3A 1_555 1_555
C5 C6 1_555 1_555
C10 C16 1_555 1_555
C14 C15 1_555 1_555
C5A C6A 1_555 1_555
C8A C9A 1_555 1_555
C10A C16A 1_555 1_555
C14A C15A 1_555 1_555

#END
