
#######################################################################
#
#                 Cambridge Crystallographic Data Centre
#                                CCDC 
#
#######################################################################
#
# If this CIF has been generated from an entry in the Cambridge 
# Structural Database, then it will include bibliographic, chemical, 
# crystal, experimental, refinement or atomic coordinate data resulting 
# from the CCDC's data processing and validation procedures.
#
#######################################################################

data_MIXNAJ
_symmetry_cell_setting           triclinic
_symmetry_space_group_name_H-M   'P -1'
_symmetry_Int_Tables_number      2
_space_group_name_Hall           '-P 1'
loop_
_symmetry_equiv_pos_site_id
_symmetry_equiv_pos_as_xyz
1 x,y,z
2 -x,-y,-z
_cell_length_a                   8.7310(17)
_cell_length_b                   11.137(2)
_cell_length_c                   12.603(3)
_cell_angle_alpha                106.51(3)
_cell_angle_beta                 90.29(3)
_cell_angle_gamma                98.08(3)
_cell_volume                     1161.98
loop_
_atom_site_label
_atom_site_type_symbol
_atom_site_fract_x
_atom_site_fract_y
_atom_site_fract_z
O7 O -0.2905(6) -0.2939(4) -0.7622(3)
O8 O -0.1823(8) -0.3670(6) -0.9182(4)
O9 O -0.5262(11) -0.3266(7) -0.7694(6)
N4 N -0.4031(13) -0.3463(7) -0.8109(8)
C16 C -0.3041(14) -0.3542(8) -0.8574(6)
C17 C -0.4288(6) -0.4306(3) -0.9196(3)
C18 C -0.5955(12) -0.4169(9) -0.8639(8)
C19 C -0.7310(12) -0.4767(10) -0.9178(9)
C20 C -0.2591(12) -0.4450(9) -0.9747(9)
C21 C -0.5459(10) -0.4920(6) -0.9746(6)
O7A O -0.7095(6) -0.7061(4) -1.2378(3)
O8A O -0.8177(8) -0.6330(6) -1.0818(4)
O9A O -0.4738(11) -0.6734(7) -1.2306(6)
N4A N -0.5969(13) -0.6537(7) -1.1891(8)
C16A C -0.6959(14) -0.6458(8) -1.1426(6)
C17A C -0.5712(6) -0.5694(3) -1.0804(3)
C18A C -0.4045(12) -0.5831(9) -1.1361(8)
C19A C -0.2690(12) -0.5233(10) -1.0822(9)
C20A C -0.7409(12) -0.5550(9) -1.0253(9)
C21A C -0.4541(10) -0.5080(6) -1.0254(6)
Cu1 Cu 0.0000 0.0000 0.0000
O1 O -0.6971(2) -0.2936(2) -0.17068(18)
O2 O -0.0854(3) 0.1897(2) -0.14629(17)
O3 O -0.0497(2) -0.00789(18) -0.15503(14)
O4 O -0.3371(7) 0.2541(4) -0.4693(3)
O5 O -0.3741(6) 0.1120(3) -0.6207(2)
N1 N -0.2249(2) -0.06667(19) 0.01545(16)
N2 N -0.4793(2) -0.3484(2) -0.25044(17)
H1 H -0.3801 -0.3419 -0.2446
N3 N -0.3271(5) 0.1497(3) -0.5254(3)
C1 C -0.4616(3) -0.1974(2) -0.06714(19)
C2 C -0.3076(3) -0.1480(2) -0.07241(19)
H2 H -0.2599 -0.1721 -0.1394
C3 C -0.2950(3) -0.0324(3) 0.1118(2)
H3 H -0.2383 0.0233 0.1732
C4 C -0.4488(3) -0.0769(3) 0.1232(2)
H4 H -0.4945 -0.0508 0.1908
C5 C -0.5327(3) -0.1600(3) 0.0331(2)
H5 H -0.6359 -0.1910 0.0390
C6 C -0.5546(3) -0.2843(2) -0.1676(2)
C7 C -0.5623(3) -0.4302(3) -0.3518(2)
H6 H -0.6072 -0.5095 -0.3394
H7 H -0.6462 -0.3899 -0.3701
C8 C -0.4580(3) -0.4566(3) -0.4471(2)
H8 H -0.4144 -0.3772 -0.4600
H9 H -0.3731 -0.4954 -0.4280
C9 C -0.1452(3) 0.0287(3) -0.3163(2)
C10 C -0.2075(4) 0.1086(3) -0.3642(2)
H10 H -0.2142 0.1914 -0.3234
C11 C -0.2601(4) 0.0640(3) -0.4743(2)
C12 C -0.2510(5) -0.0572(3) -0.5384(2)
H11 H -0.2857 -0.0848 -0.6124
C13 C -0.1890(5) -0.1357(3) -0.4894(3)
H12 H -0.1820 -0.2183 -0.5308
C14 C -0.1367(4) -0.0944(3) -0.3794(2)
H13 H -0.0955 -0.1493 -0.3475
C15 C -0.0884(3) 0.0753(3) -0.1960(2)
O6 O -0.0450(2) 0.22173(19) 0.07256(15)
Cu1_2 Cu -1.0000 -1.0000 -1.0000
O1A O -0.3029(2) -0.7064(2) -0.82932(18)
O2A O 0.0854(3) -0.1897(2) 0.14629(17)
O3A O 0.0497(2) 0.00789(18) 0.15503(14)
O4A O 0.3371(7) -0.2541(4) 0.4693(3)
O5A O 0.3741(6) -0.1120(3) 0.6207(2)
N1A N 0.2249(2) 0.06667(19) -0.01545(16)
N1A_2 N -0.7751(2) -0.93333(19) -1.01545(16)
N2A N -0.5207(2) -0.6516(2) -0.74956(17)
H1A H -0.6199 -0.6581 -0.7554
N3A N 0.3271(5) -0.1497(3) 0.5254(3)
C1A C -0.5384(3) -0.8026(2) -0.93286(19)
C2A C -0.6924(3) -0.8520(2) -0.92759(19)
H2A H -0.7401 -0.8279 -0.8606
C3A C -0.7050(3) -0.9676(3) -1.1118(2)
H3A H -0.7617 -1.0233 -1.1732
C4A C -0.5512(3) -0.9231(3) -1.1232(2)
H4A H -0.5055 -0.9492 -1.1908
C5A C -0.4673(3) -0.8400(3) -1.0331(2)
H5A H -0.3641 -0.8090 -1.0390
C6A C -0.4454(3) -0.7157(2) -0.8324(2)
C7A C -0.4377(3) -0.5698(3) -0.6482(2)
H6A H -0.3928 -0.4905 -0.6606
H7A H -0.3538 -0.6101 -0.6299
C8A C -0.5420(3) -0.5434(3) -0.5529(2)
H8A H -0.5856 -0.6228 -0.5400
H9A H -0.6269 -0.5046 -0.5720
C9A C 0.1452(3) -0.0287(3) 0.3163(2)
C10A C 0.2075(4) -0.1086(3) 0.3642(2)
H10A H 0.2142 -0.1914 0.3234
C11A C 0.2601(4) -0.0640(3) 0.4743(2)
C12A C 0.2510(5) 0.0572(3) 0.5384(2)
H11A H 0.2857 0.0848 0.6124
C13A C 0.1890(5) 0.1357(3) 0.4894(3)
H12A H 0.1820 0.2183 0.5308
C14A C 0.1367(4) 0.0944(3) 0.3794(2)
H13A H 0.0955 0.1493 0.3475
C15A C 0.0884(3) -0.0753(3) 0.1960(2)
O6A O 0.0450(2) -0.22173(19) -0.07256(15)
loop_
_geom_bond_atom_site_label_1
_geom_bond_atom_site_label_2
_geom_bond_site_symmetry_1
_geom_bond_site_symmetry_2
Cu1 O3 1_555 1_555
O1 C6 1_555 1_555
O2 C15 1_555 1_555
O3 C15 1_555 1_555
O4 N3 1_555 1_555
O5 N3 1_555 1_555
N1 Cu1 1_555 1_555
N2 H1 1_555 1_555
N3 C11 1_555 1_555
C1 C2 1_555 1_555
C2 N1 1_555 1_555
H2 C2 1_555 1_555
C3 N1 1_555 1_555
H3 C3 1_555 1_555
C4 C3 1_555 1_555
H4 C4 1_555 1_555
C5 C1 1_555 1_555
H5 C5 1_555 1_555
C6 N2 1_555 1_555
C7 N2 1_555 1_555
H6 C7 1_555 1_555
H7 C7 1_555 1_555
C8 C7 1_555 1_555
H8 C8 1_555 1_555
H9 C8 1_555 1_555
C9 C10 1_555 1_555
C10 H10 1_555 1_555
C11 C10 1_555 1_555
C12 C11 1_555 1_555
H11 C12 1_555 1_555
C13 C12 1_555 1_555
H12 C13 1_555 1_555
C14 C9 1_555 1_555
H13 C14 1_555 1_555
C15 C9 1_555 1_555
O6 Cu1 1_555 1_555
O7 N4 1_555 1_555
O8 C16 1_555 1_555
O9 N4 1_555 1_555
N4 C16 1_555 1_555
C16 O7 1_555 1_555
C17 N4 1_555 1_555
C18 O9 1_555 1_555
C19 C18 1_555 1_555
C20 O8 1_555 1_555
C21 C17 1_555 1_555
Cu1_2 N1A_2 1_555 1_555
O1A C6A 1_555 1_555
O2A C15A 1_555 1_555
O3A Cu1 1_555 1_555
O4A N3A 1_555 1_555
O5A N3A 1_555 1_555
N1A Cu1 1_555 1_555
N1A_2 C2A 1_555 1_555
N2A H1A 1_555 1_555
N3A C11A 1_555 1_555
C1A C2A 1_555 1_555
C2A H2A 1_555 1_555
C3A N1A_2 1_555 1_555
H3A C3A 1_555 1_555
C4A C3A 1_555 1_555
H4A C4A 1_555 1_555
C5A C1A 1_555 1_555
H5A C5A 1_555 1_555
C6A N2A 1_555 1_555
C7A N2A 1_555 1_555
H6A C7A 1_555 1_555
H7A C7A 1_555 1_555
C8A C8 1_555 1_555
H8A C8A 1_555 1_555
H9A C8A 1_555 1_555
C9A C10A 1_555 1_555
C10A H10A 1_555 1_555
C11A C10A 1_555 1_555
C12A C11A 1_555 1_555
H11A C12A 1_555 1_555
C13A C12A 1_555 1_555
H12A C13A 1_555 1_555
C14A C9A 1_555 1_555
H13A C14A 1_555 1_555
C15A O3A 1_555 1_555
O6A Cu1 1_555 1_555
O7A N4A 1_555 1_555
O8A C16A 1_555 1_555
O9A N4A 1_555 1_555
N4A C16A 1_555 1_555
C16A O7A 1_555 1_555
C17A C21 1_555 1_555
C18A O9A 1_555 1_555
C19A C20 1_555 1_555
C20A C19 1_555 1_555
C21A C17 1_555 1_555
C1 C6 1_555 1_555
C4 C5 1_555 1_555
C13 C14 1_555 1_555
C16 C17 1_555 1_555
C16 C20 1_555 1_555
C17 C18 1_555 1_555
C17 C20 1_555 1_555
C18 C21 1_555 1_555
C21 C21A 1_555 1_555
C1A C6A 1_555 1_555
C4A C5A 1_555 1_555
C7A C8A 1_555 1_555
C9A C15A 1_555 1_555
C13A C14A 1_555 1_555
O8A C20A 1_555 1_555
N4A C17A 1_555 1_555
C16A C17A 1_555 1_555
C16A C20A 1_555 1_555
C17A C18A 1_555 1_555
C17A C20A 1_555 1_555
C17A C21A 1_555 1_555
C18A C19A 1_555 1_555
C18A C21A 1_555 1_555

#END
