
#######################################################################
#
#                 Cambridge Crystallographic Data Centre
#                                CCDC 
#
#######################################################################
#
# If this CIF has been generated from an entry in the Cambridge 
# Structural Database, then it will include bibliographic, chemical, 
# crystal, experimental, refinement or atomic coordinate data resulting 
# from the CCDC's data processing and validation procedures.
#
#######################################################################

data_MIXNOX
_symmetry_cell_setting           monoclinic
_symmetry_space_group_name_H-M   'C 2/c'
_symmetry_Int_Tables_number      15
_space_group_name_Hall           '-C 2yn'
loop_
_symmetry_equiv_pos_site_id
_symmetry_equiv_pos_as_xyz
1 x,y,z
2 1/2+x,1/2+y,z
3 -x,y,1/2-z
4 1/2-x,1/2+y,1/2-z
5 -x,-y,-z
6 1/2-x,1/2-y,-z
7 x,-y,1/2+z
8 1/2+x,1/2-y,1/2+z
_cell_length_a                   10.196(2)
_cell_length_b                   16.435(3)
_cell_length_c                   12.705(3)
_cell_angle_alpha                90
_cell_angle_beta                 97.14(3)
_cell_angle_gamma                90
_cell_volume                     2112.48
loop_
_atom_site_label
_atom_site_type_symbol
_atom_site_fract_x
_atom_site_fract_y
_atom_site_fract_z
Cu1 Cu 0.2500 0.2500 0.0000
O2 O 0.0220(4) 0.1990(2) -0.0675(3)
N1 N 0.2114(4) 0.2456(2) 0.1546(3)
N2 N 0.0961(4) 0.0823(2) 0.4431(3)
H1 H 0.0757 0.1276 0.4707
O3 O 0.1763(4) 0.0241(2) 0.3016(3)
C1 C 0.1654(4) 0.1686(3) 0.3071(3)
C2 C 0.1928(5) 0.1742(3) 0.2033(4)
H2 H 0.1986 0.1264 0.1651
C3 C 0.2038(5) 0.3139(3) 0.2106(4)
H3 H 0.2175 0.3634 0.1783
C4 C 0.1762(6) 0.3141(3) 0.3150(4)
H4 H 0.1708 0.3627 0.3514
C5 C 0.1572(5) 0.2407(3) 0.3635(4)
H5 H 0.1389 0.2394 0.4334
C6 C 0.1464(5) 0.0852(3) 0.3509(4)
C7 C 0.0736(5) 0.0077(3) 0.5003(4)
H6 H 0.1153 0.0121 0.5730
H7 H 0.1133 -0.0379 0.4674
O4 O 0.1866(4) 0.3627(2) -0.0106(3)
O5 O -0.0317(4) 0.3533(3) -0.0474(4)
C8 C 0.0709(5) 0.3924(3) -0.0244(4)
C9 C 0.0642(6) 0.4837(3) -0.0068(6)
H8 H 0.1250 0.4974 0.0555
H9 H 0.0951 0.5108 -0.0669
Cu1A Cu -0.2500 0.7500 0.0000
Cu1A_2 Cu -0.2500 -0.2500 1.0000
O2E O 0.4780(4) 0.3010(2) 0.0675(3)
N1E N 0.2886(4) 0.2544(2) -0.1546(3)
N1D N -0.2114(4) -0.2456(2) 0.8454(3)
N2D N -0.0961(4) -0.0823(2) 0.5569(3)
H1D H -0.0757 -0.1276 0.5293
O3D O -0.1763(4) -0.0241(2) 0.6984(3)
C1D C -0.1654(4) -0.1686(3) 0.6929(3)
C2D C -0.1928(5) -0.1742(3) 0.7967(4)
H2D H -0.1986 -0.1264 0.8349
C3D C -0.2038(5) -0.3139(3) 0.7894(4)
H3D H -0.2175 -0.3634 0.8217
C4D C -0.1762(6) -0.3141(3) 0.6850(4)
H4D H -0.1708 -0.3627 0.6486
C5D C -0.1572(5) -0.2407(3) 0.6365(4)
H5D H -0.1389 -0.2394 0.5666
C6D C -0.1464(5) -0.0852(3) 0.6491(4)
C7D C -0.0736(5) -0.0077(3) 0.4997(4)
H6D H -0.1153 -0.0121 0.4270
H7D H -0.1133 0.0379 0.5326
O4E O 0.3134(4) 0.1373(2) 0.0106(3)
O4D O -0.1866(4) 0.6373(2) 0.0106(3)
O5D O 0.0317(4) 0.6467(3) 0.0474(4)
C8D C -0.0709(5) 0.6076(3) 0.0244(4)
C9D C -0.0642(6) 0.5163(3) 0.0068(6)
H8D H -0.1250 0.5026 -0.0555
H9D H -0.0951 0.4892 0.0669
O1 O 0.5000 0.3998(3) 0.2500
loop_
_geom_bond_atom_site_label_1
_geom_bond_atom_site_label_2
_geom_bond_site_symmetry_1
_geom_bond_site_symmetry_2
Cu1 O2 1_555 1_555
N1 Cu1 1_555 1_555
N2 H1 1_555 1_555
O3 C6 1_555 1_555
C1 C2 1_555 1_555
C2 N1 1_555 1_555
H2 C2 1_555 1_555
C3 N1 1_555 1_555
H3 C3 1_555 1_555
C4 C3 1_555 1_555
H4 C4 1_555 1_555
C5 C1 1_555 1_555
H5 C5 1_555 1_555
C6 N2 1_555 1_555
C7 N2 1_555 1_555
H6 C7 1_555 1_555
H7 C7 1_555 1_555
O4 Cu1 1_555 1_555
O5 C8 1_555 1_555
C8 O4 1_555 1_555
C9 C8 1_555 1_555
H8 C9 1_555 1_555
H9 C9 1_555 1_555
Cu1A O4D 1_555 1_555
Cu1A_2 N1D 1_555 1_555
O2E Cu1 1_555 1_555
N1E Cu1 1_555 1_555
N1D C2D 1_555 1_555
N2D H1D 1_555 1_555
O3D C6D 1_555 1_555
C1D C2D 1_555 1_555
C2D H2D 1_555 1_555
C3D N1D 1_555 1_555
H3D C3D 1_555 1_555
C4D C3D 1_555 1_555
H4D C4D 1_555 1_555
C5D C1D 1_555 1_555
H5D C5D 1_555 1_555
C6D N2D 1_555 1_555
C7D C7 1_555 1_555
H6D C7D 1_555 1_555
H7D C7D 1_555 1_555
O4E Cu1 1_555 1_555
O4D C8D 1_555 1_555
O5D C8D 1_555 1_555
C8D C9D 1_555 1_555
C9D C9 1_555 1_555
H8D C9D 1_555 1_555
H9D C9D 1_555 1_555
C1 C6 1_555 1_555
C4 C5 1_555 1_555
N2D C7D 1_555 1_555
C1D C6D 1_555 1_555
C4D C5D 1_555 1_555

#END
