
#######################################################################
#
#                 Cambridge Crystallographic Data Centre
#                                CCDC 
#
#######################################################################
#
# If this CIF has been generated from an entry in the Cambridge 
# Structural Database, then it will include bibliographic, chemical, 
# crystal, experimental, refinement or atomic coordinate data resulting 
# from the CCDC's data processing and validation procedures.
#
#######################################################################

data_MIXQOA
_symmetry_cell_setting           triclinic
_symmetry_space_group_name_H-M   'P -1'
_symmetry_Int_Tables_number      2
_space_group_name_Hall           '-P 1'
loop_
_symmetry_equiv_pos_site_id
_symmetry_equiv_pos_as_xyz
1 x,y,z
2 -x,-y,-z
_cell_length_a                   8.335(4)
_cell_length_b                   10.926(5)
_cell_length_c                   13.175(6)
_cell_angle_alpha                102.845(5)
_cell_angle_beta                 99.713(5)
_cell_angle_gamma                92.635(6)
_cell_volume                     1148.67
loop_
_atom_site_label
_atom_site_type_symbol
_atom_site_fract_x
_atom_site_fract_y
_atom_site_fract_z
Co1 Co 0.5000 1.0000 0.0000
Co2 Co 0.5000 0.5000 0.5000
O1 O 0.41495(17) 0.50472(12) 0.34697(10)
O2 O 0.3483(2) 0.30592(13) 0.25766(11)
O3 O 0.3661(2) 0.85480(13) 0.17387(11)
O4 O 0.44247(16) 0.81632(12) 0.01584(10)
O5 O 0.0514(2) 0.27183(17) -0.11454(13)
O6 O 0.1499(4) 0.3914(2) -0.20186(14)
O7 O 0.41560(16) 0.30491(12) 0.46849(10)
H1 H 0.3521 0.2683 0.4988
H2 H 0.3989 0.2848 0.4012
O8 O 0.39557(17) 1.07726(13) 0.12892(11)
H3 H 0.4073 1.1487 0.1725
H4 H 0.3872 1.0125 0.1541
N1 N 1.28129(19) 0.57309(15) 0.54462(12)
N2 N 0.8353(2) 0.82269(17) 0.46370(14)
N3 N 0.7894(2) 0.89924(18) 0.39476(14)
N4 N 1.03834(18) 0.84993(15) 0.38371(12)
N5 N 1.1902(2) 0.83496(19) 0.35150(16)
H5 H 1.1651 0.8143 0.2803
H6 H 1.2513 0.9090 0.3773
N6 N 0.73608(19) 1.01824(15) 0.10606(12)
N7 N 0.1377(3) 0.36273(18) -0.11917(14)
C1 C 1.0707(2) 0.71064(17) 0.51656(14)
C2 C 1.2090(2) 0.65388(18) 0.49228(14)
H7 H 1.2539 0.6727 0.4370
C3 C 1.2173(2) 0.5464(2) 0.62450(16)
H8 H 1.2669 0.4906 0.6613
C4 C 1.0802(3) 0.5989(2) 0.65416(17)
H9 H 1.0384 0.5787 0.7101
C5 C 1.0059(2) 0.6815(2) 0.60013(16)
H10 H 0.9132 0.7175 0.6192
C6 C 0.9844(2) 0.79362(18) 0.45587(14)
C7 C 0.9120(2) 0.91341(18) 0.34678(15)
C8 C 0.9060(2) 0.97818(17) 0.25954(14)
C9 C 0.7571(2) 0.96892(19) 0.19110(15)
H11 H 0.6675 0.9262 0.2052
C10 C 0.8662(2) 1.0796(2) 0.08731(16)
H12 H 0.8541 1.1133 0.0279
C11 C 1.0169(2) 1.0951(2) 0.15178(17)
H13 H 1.1037 1.1401 0.1366
C12 C 1.0389(2) 1.04346(19) 0.23921(16)
H14 H 1.1403 1.0523 0.2834
C13 C 0.3686(2) 0.42111(18) 0.26324(14)
C14 C 0.3339(2) 0.46974(18) 0.16396(14)
C15 C 0.3736(2) 0.59569(18) 0.16893(15)
H15 H 0.4184 0.6490 0.2341
C16 C 0.3483(2) 0.64459(18) 0.07918(14)
C17 C 0.3887(2) 0.78366(18) 0.09073(15)
C18 C 0.2785(3) 0.56596(19) -0.01749(15)
H16 H 0.2648 0.5952 -0.0792
C19 C 0.2298(3) 0.44293(19) -0.01953(15)
C20 C 0.2581(3) 0.39147(19) 0.06788(15)
H17 H 0.2273 0.3071 0.0626
Co2_2 Co 1.5000 0.5000 0.5000
Co2_3 Co 0.5000 1.5000 -0.5000
Co2_4 Co -0.5000 1.5000 -0.5000
O1A O 0.58505(17) 1.49528(12) -0.34697(10)
O1A_2 O 0.58505(17) 0.49528(12) 0.65303(10)
O2A O 0.6517(2) 1.69408(13) -0.25766(11)
O3A O 0.6339(2) 1.14520(13) -0.17387(11)
O4A O 0.55753(16) 1.18368(12) -0.01584(10)
O5A O 0.9486(2) 1.72817(17) 0.11454(13)
O6A O 0.8501(4) 1.6086(2) 0.20186(14)
O7A O 0.58440(16) 0.69509(12) 0.53151(10)
H1A H 0.6479 0.7317 0.5012
H2A H 0.6011 0.7152 0.5988
O8A O 0.60443(17) 0.92274(13) -0.12892(11)
H3A H 0.5927 0.8513 -0.1725
H4A H 0.6128 0.9875 -0.1541
N1A N -0.28129(19) 1.42691(15) -0.54462(12)
N1_2 N 0.28129(19) 0.57309(15) 0.54462(12)
N1A_2 N 0.71871(19) 0.42691(15) 0.45538(12)
N2A N 0.1647(2) 1.17731(17) -0.46370(14)
N3A N 0.2106(2) 1.10076(18) -0.39476(14)
N4A N -0.03834(18) 1.15007(15) -0.38371(12)
N5A N -0.1902(2) 1.16504(19) -0.35150(16)
H5A H -0.1651 1.1857 -0.2803
H6A H -0.2513 1.0910 -0.3773
N6A N 0.26392(19) 0.98176(15) -0.10606(12)
N7A N 0.8623(3) 1.63727(18) 0.11917(14)
C1A C -0.0707(2) 1.28936(17) -0.51656(14)
C2A C -0.2090(2) 1.34612(18) -0.49228(14)
H7A H -0.2539 1.3273 -0.4370
C3A C -0.2173(2) 1.4536(2) -0.62450(16)
H8A H -0.2669 1.5094 -0.6613
C4A C -0.0802(3) 1.4011(2) -0.65416(17)
H9A H -0.0384 1.4213 -0.7101
C5A C -0.0059(2) 1.3185(2) -0.60013(16)
H10A H 0.0868 1.2825 -0.6192
C6A C 0.0156(2) 1.20638(18) -0.45587(14)
C7A C 0.0880(2) 1.08659(18) -0.34678(15)
C8A C 0.0940(2) 1.02182(17) -0.25954(14)
C9A C 0.2429(2) 1.03108(19) -0.19110(15)
H11A H 0.3325 1.0738 -0.2052
C10A C 0.1338(2) 0.9204(2) -0.08731(16)
H12A H 0.1459 0.8867 -0.0279
C11A C -0.0169(2) 0.9049(2) -0.15178(17)
H13A H -0.1037 0.8599 -0.1366
C12A C -0.0389(2) 0.95654(19) -0.23921(16)
H14A H -0.1403 0.9477 -0.2834
C13A C 0.6314(2) 1.57889(18) -0.26324(14)
C14A C 0.6661(2) 1.53026(18) -0.16396(14)
C15A C 0.6264(2) 1.40431(18) -0.16893(15)
H15A H 0.5816 1.3510 -0.2341
C16A C 0.6517(2) 1.35541(18) -0.07918(14)
C17A C 0.6113(2) 1.21634(18) -0.09073(15)
C18A C 0.7215(3) 1.43404(19) 0.01749(15)
H16A H 0.7352 1.4048 0.0792
C19A C 0.7702(3) 1.55707(19) 0.01953(15)
C20A C 0.7419(3) 1.60853(19) -0.06788(15)
H17A H 0.7727 1.6929 -0.0626
O9 O 0.4720(2) 0.0355(2) 0.38831(18)
H18 H 0.5148 0.1084 0.4224
H19 H 0.5367 -0.0211 0.3739
loop_
_geom_bond_atom_site_label_1
_geom_bond_atom_site_label_2
_geom_bond_site_symmetry_1
_geom_bond_site_symmetry_2
Co1 O4 1_555 1_555
Co2 O1 1_555 1_555
O1 C13 1_555 1_555
O2 C13 1_555 1_555
O3 C17 1_555 1_555
O4 C17 1_555 1_555
O5 N7 1_555 1_555
O6 N7 1_555 1_555
O7 Co2 1_555 1_555
H1 O7 1_555 1_555
H2 O7 1_555 1_555
O8 Co1 1_555 1_555
H3 O8 1_555 1_555
H4 O8 1_555 1_555
N1 C2 1_555 1_555
N2 N3 1_555 1_555
N3 C7 1_555 1_555
N4 N5 1_555 1_555
N5 H5 1_555 1_555
H6 N5 1_555 1_555
N6 Co1 1_555 1_555
N7 C19 1_555 1_555
C1 C2 1_555 1_555
C2 H7 1_555 1_555
C3 N1 1_555 1_555
H8 C3 1_555 1_555
C4 C3 1_555 1_555
H9 C4 1_555 1_555
C5 C1 1_555 1_555
H10 C5 1_555 1_555
C6 N2 1_555 1_555
C7 N4 1_555 1_555
C8 C7 1_555 1_555
C9 N6 1_555 1_555
H11 C9 1_555 1_555
C10 N6 1_555 1_555
H12 C10 1_555 1_555
C11 C10 1_555 1_555
H13 C11 1_555 1_555
C12 C8 1_555 1_555
H14 C12 1_555 1_555
C13 C14 1_555 1_555
C14 C15 1_555 1_555
C15 H15 1_555 1_555
C16 C15 1_555 1_555
C17 C16 1_555 1_555
C18 C16 1_555 1_555
H16 C18 1_555 1_555
C19 C18 1_555 1_555
C20 C14 1_555 1_555
H17 C20 1_555 1_555
O9 H18 1_555 1_555
H19 O9 1_555 1_555
Co2_2 N1 1_555 1_555
Co2_3 O1A 1_555 1_555
Co2_4 N1A 1_555 1_555
O1A C13A 1_555 1_555
O1A_2 Co2 1_555 1_555
O2A C13A 1_555 1_555
O3A C17A 1_555 1_555
O4A Co1 1_555 1_555
O5A N7A 1_555 1_555
O6A N7A 1_555 1_555
O7A Co2 1_555 1_555
H1A O7A 1_555 1_555
H2A O7A 1_555 1_555
O8A Co1 1_555 1_555
H3A O8A 1_555 1_555
H4A O8A 1_555 1_555
N1A C2A 1_555 1_555
N1_2 Co2 1_555 1_555
N1A_2 Co2 1_555 1_555
N2A N3A 1_555 1_555
N3A C7A 1_555 1_555
N4A N5A 1_555 1_555
N5A H5A 1_555 1_555
H6A N5A 1_555 1_555
N6A Co1 1_555 1_555
N7A C19A 1_555 1_555
C1A C2A 1_555 1_555
C2A H7A 1_555 1_555
C3A N1A 1_555 1_555
H8A C3A 1_555 1_555
C4A C3A 1_555 1_555
H9A C4A 1_555 1_555
C5A C1A 1_555 1_555
H10A C5A 1_555 1_555
C6A N2A 1_555 1_555
C7A N4A 1_555 1_555
C8A C7A 1_555 1_555
C9A N6A 1_555 1_555
H11A C9A 1_555 1_555
C10A N6A 1_555 1_555
H12A C10A 1_555 1_555
C11A C10A 1_555 1_555
H13A C11A 1_555 1_555
C12A C8A 1_555 1_555
H14A C12A 1_555 1_555
C13A C14A 1_555 1_555
C14A C15A 1_555 1_555
C15A H15A 1_555 1_555
C16A C15A 1_555 1_555
C17A O4A 1_555 1_555
C18A C16A 1_555 1_555
H16A C18A 1_555 1_555
C19A C18A 1_555 1_555
C20A C14A 1_555 1_555
H17A C20A 1_555 1_555
N4 C6 1_555 1_555
C1 C6 1_555 1_555
C4 C5 1_555 1_555
C8 C9 1_555 1_555
C11 C12 1_555 1_555
C19 C20 1_555 1_555
N4A C6A 1_555 1_555
C1A C6A 1_555 1_555
C4A C5A 1_555 1_555
C8A C9A 1_555 1_555
C11A C12A 1_555 1_555
C16A C17A 1_555 1_555
C19A C20A 1_555 1_555

#END
