
#######################################################################
#
#                 Cambridge Crystallographic Data Centre
#                                CCDC 
#
#######################################################################
#
# If this CIF has been generated from an entry in the Cambridge 
# Structural Database, then it will include bibliographic, chemical, 
# crystal, experimental, refinement or atomic coordinate data resulting 
# from the CCDC's data processing and validation procedures.
#
#######################################################################

data_MIXRAN
_symmetry_cell_setting           triclinic
_symmetry_space_group_name_H-M   'P -1'
_symmetry_Int_Tables_number      2
_space_group_name_Hall           '-P 1'
loop_
_symmetry_equiv_pos_site_id
_symmetry_equiv_pos_as_xyz
1 x,y,z
2 -x,-y,-z
_cell_length_a                   9.0733(5)
_cell_length_b                   10.0843(5)
_cell_length_c                   12.3969(7)
_cell_angle_alpha                66.846(1)
_cell_angle_beta                 89.438(2)
_cell_angle_gamma                79.388(1)
_cell_volume                     1022.62
loop_
_atom_site_label
_atom_site_type_symbol
_atom_site_fract_x
_atom_site_fract_y
_atom_site_fract_z
Cu1 Cu 0.66858(3) 0.59780(2) 0.54449(2)
O1 O 0.67625(17) 0.80000(15) 0.53889(13)
O2 O 0.8703(2) 0.64868(17) 0.65595(18)
O3 O 0.57015(18) 1.31392(17) 0.54060(16)
O4 O 0.76490(17) 1.39611(15) 0.58026(14)
N1 N 0.5664(2) 0.54490(19) 0.69893(16)
N2 N 0.4272(2) 0.1945(2) 1.05948(17)
N3 N 0.4775(2) 0.0527(2) 1.14123(17)
N4 N 0.6480(2) 0.11251(19) 1.01409(16)
N5 N 0.7849(2) 0.0992(2) 0.9624(2)
H1 H 0.8520 0.0201 0.9933
H2 H 0.8017 0.1700 0.8997
N6 N 0.7362(2) -0.33418(18) 1.37843(15)
C1 C 0.5118(3) 0.3756(2) 0.88631(19)
C2 C 0.5901(3) 0.4100(2) 0.78593(19)
H3 H 0.6624 0.3364 0.7782
C3 C 0.4640(3) 0.6507(2) 0.7108(2)
H4 H 0.4487 0.7447 0.6514
C4 C 0.3804(3) 0.6264(3) 0.8071(2)
H5 H 0.3093 0.7023 0.8125
C5 C 0.4036(3) 0.4879(3) 0.8955(2)
H6 H 0.3475 0.4691 0.9612
C6 C 0.5298(2) 0.2292(2) 0.98412(19)
C7 C 0.6112(3) 0.0060(2) 1.11352(19)
C8 C 0.7023(2) -0.1394(2) 1.18579(19)
C9 C 0.6677(2) -0.2008(2) 1.30217(19)
H7 H 0.5932 -0.1465 1.3286
C10 C 0.8445(3) -0.4113(2) 1.3401(2)
H8 H 0.8928 -0.5042 1.3920
C11 C 0.8864(3) -0.3571(3) 1.2259(2)
H9 H 0.9625 -0.4129 1.2021
C12 C 0.8154(3) -0.2201(3) 1.1471(2)
H10 H 0.8425 -0.1825 1.0699
C13 C 0.8467(2) 0.9009(2) 0.61531(19)
C14 C 0.7515(2) 1.0366(2) 0.58726(18)
H11 H 0.6526 1.0514 0.5592
C15 C 0.8047(2) 1.1502(2) 0.60131(19)
C16 C 0.9521(3) 1.1272(3) 0.6432(2)
H12 H 0.9877 1.2030 0.6527
C17 C 1.0469(3) 0.9918(3) 0.6712(3)
H13 H 1.1460 0.9771 0.6989
C18 C 0.9941(3) 0.8794(3) 0.6579(2)
H14 H 1.0575 0.7884 0.6774
C19 C 0.7948(2) 0.7752(2) 0.60214(19)
C20 C 0.7026(2) 1.2974(2) 0.57066(17)
Cu1A Cu 0.33142(3) 1.40220(2) 0.45551(2)
Cu1_2 Cu 0.66858(3) 1.59780(2) 0.54449(2)
Cu1_3 Cu 0.66858(3) -0.40220(2) 1.54449(2)
O3A O 0.42985(18) 0.68608(17) 0.45940(16)
O4_2 O 0.76490(17) 0.39611(15) 0.58026(14)
N6_2 N 0.7362(2) 0.66582(18) 0.37843(15)
O5 O 0.8396(2) 0.6360(2) 0.89044(18)
H15 H 0.8484 0.6441 0.8181
H16 H 0.7573 0.6985 0.8913
O6 O 0.8909(2) 0.3251(2) 0.0124(2)
H17 H 0.8655 0.4206 -0.0264
H18 H 0.9753 0.3243 0.0523
loop_
_geom_bond_atom_site_label_1
_geom_bond_atom_site_label_2
_geom_bond_site_symmetry_1
_geom_bond_site_symmetry_2
Cu1 O1 1_555 1_555
O1 C19 1_555 1_555
O2 Cu1 1_555 1_555
O3 C20 1_555 1_555
O4 C20 1_555 1_555
N1 Cu1 1_555 1_555
N2 N3 1_555 1_555
N3 C7 1_555 1_555
N4 N5 1_555 1_555
N5 H1 1_555 1_555
H2 N5 1_555 1_555
N6 C9 1_555 1_555
C1 C2 1_555 1_555
C2 N1 1_555 1_555
H3 C2 1_555 1_555
C3 N1 1_555 1_555
H4 C3 1_555 1_555
C4 C3 1_555 1_555
H5 C4 1_555 1_555
C5 C1 1_555 1_555
H6 C5 1_555 1_555
C6 N2 1_555 1_555
C7 N4 1_555 1_555
C8 C7 1_555 1_555
C9 C8 1_555 1_555
H7 C9 1_555 1_555
C10 N6 1_555 1_555
H8 C10 1_555 1_555
C11 C10 1_555 1_555
H9 C11 1_555 1_555
C12 C8 1_555 1_555
H10 C12 1_555 1_555
C13 C14 1_555 1_555
C14 H11 1_555 1_555
C15 C14 1_555 1_555
C16 C15 1_555 1_555
H12 C16 1_555 1_555
C17 C16 1_555 1_555
H13 C17 1_555 1_555
C18 C13 1_555 1_555
H14 C18 1_555 1_555
C19 O2 1_555 1_555
C20 C15 1_555 1_555
O5 H15 1_555 1_555
H16 O5 1_555 1_555
O6 H17 1_555 1_555
H18 O6 1_555 1_555
Cu1A O3 1_555 1_555
Cu1_2 O4 1_555 1_555
Cu1_3 N6 1_555 1_555
O3A Cu1 1_555 1_555
O4_2 Cu1 1_555 1_555
N6_2 Cu1 1_555 1_555
N4 C6 1_555 1_555
C1 C6 1_555 1_555
C4 C5 1_555 1_555
C11 C12 1_555 1_555
C13 C19 1_555 1_555
C17 C18 1_555 1_555

#END
