
#######################################################################
#
#                 Cambridge Crystallographic Data Centre
#                                CCDC 
#
#######################################################################
#
# If this CIF has been generated from an entry in the Cambridge 
# Structural Database, then it will include bibliographic, chemical, 
# crystal, experimental, refinement or atomic coordinate data resulting 
# from the CCDC's data processing and validation procedures.
#
#######################################################################

data_MIXRAN01
_symmetry_cell_setting           triclinic
_symmetry_space_group_name_H-M   'P -1'
_symmetry_Int_Tables_number      2
_space_group_name_Hall           '-P 1'
loop_
_symmetry_equiv_pos_site_id
_symmetry_equiv_pos_as_xyz
1 x,y,z
2 -x,-y,-z
_cell_length_a                   9.0805(11)
_cell_length_b                   10.0891(11)
_cell_length_c                   12.4016(15)
_cell_angle_alpha                66.8490(10)
_cell_angle_beta                 89.4420(10)
_cell_angle_gamma                79.3890(10)
_cell_volume                     1024.33
loop_
_atom_site_label
_atom_site_type_symbol
_atom_site_fract_x
_atom_site_fract_y
_atom_site_fract_z
Cu1 Cu 0.66859(4) 0.59777(4) 0.54447(3)
O1 O 0.6760(3) 0.8008(2) 0.5387(2)
N1 N 0.7364(3) 0.6662(3) 0.3784(2)
O2 O 0.8694(3) 0.6489(3) 0.6558(3)
C1 C 0.7946(4) 0.7750(3) 0.6023(3)
N2 N 0.4776(3) 1.0537(3) 0.1405(3)
C2 C 0.8462(4) 0.9012(3) 0.6152(3)
C3 C 0.6679(4) 0.7992(3) 0.3020(3)
H1 H 0.5915 0.8543 0.3290
N3 N 0.6482(3) 1.1122(3) 0.0148(2)
C4 C 0.5297(4) 1.2291(4) -0.0163(3)
C5 C 0.7023(4) 0.8609(3) 0.1858(3)
C6 C 0.6107(4) 1.0060(4) 0.1134(3)
C7 C 0.9933(4) 0.8790(4) 0.6584(4)
H2 H 1.0575 0.7859 0.6781
N4 N 0.4262(3) 1.1941(3) 0.0600(3)
C8 C 1.0473(5) 0.9907(4) 0.6729(4)
H3 H 1.1481 0.9750 0.7023
C9 C 0.7515(4) 1.0364(3) 0.5874(3)
H4 H 0.6507 1.0515 0.5583
N5 N 0.7852(4) 1.0991(4) -0.0378(3)
H5 H 0.8537 1.0180 -0.0068
H6 H 0.8023 1.1721 -0.1016
C10 C 0.8156(4) 0.7798(4) 0.1473(3)
H7 H 0.8436 0.8179 0.0685
C11 C 0.8445(4) 0.5885(4) 0.3401(3)
H8 H 0.8934 0.4935 0.3931
C12 C 0.8862(4) 0.6422(4) 0.2269(3)
H9 H 0.9639 0.5848 0.2029
C13 C 0.9527(4) 1.1261(4) 0.6442(4)
H10 H 0.9894 1.2036 0.6534
C14 C 0.8040(4) 1.1499(3) 0.6018(3)
C15 C 0.7032(4) 1.2971(3) 0.5708(3)
O5 O 0.5704(3) 1.3142(3) 0.5410(2)
O6 O 0.7654(3) 1.3961(2) 0.5802(2)
C16 C 0.5113(4) 1.3762(3) -0.1136(3)
N6 N 0.5665(3) 1.5449(3) -0.3009(2)
C17 C 0.5902(4) 1.4091(3) -0.2140(3)
H11 H 0.6632 1.3336 -0.2220
C18 C 0.3804(4) 1.6262(4) -0.1925(3)
H12 H 0.3080 1.7037 -0.1868
C19 C 0.4640(4) 1.6512(4) -0.2900(3)
H13 H 0.4479 1.7470 -0.3509
C20 C 0.4036(4) 1.4875(4) -0.1038(3)
H14 H 0.3465 1.4681 -0.0365
Cu1A Cu 0.33141(4) 1.40223(4) 0.45553(3)
Cu1_2 Cu 0.66859(4) 1.59777(4) 0.54447(3)
Cu1_3 Cu 0.66859(4) 1.59777(4) -0.45553(3)
O5A O 0.4296(3) 0.6858(3) 0.4590(2)
O6_2 O 0.7654(3) 0.3961(2) 0.5802(2)
N6_2 N 0.5665(3) 0.5449(3) 0.6991(2)
O3 O 0.8386(4) 0.6369(4) 0.8886(3)
O4 O 0.8926(4) 1.3262(4) 0.0126(3)
loop_
_geom_bond_atom_site_label_1
_geom_bond_atom_site_label_2
_geom_bond_site_symmetry_1
_geom_bond_site_symmetry_2
Cu1 O1 1_555 1_555
O1 C1 1_555 1_555
N1 Cu1 1_555 1_555
O2 Cu1 1_555 1_555
C1 O2 1_555 1_555
N2 C6 1_555 1_555
C2 C1 1_555 1_555
C3 N1 1_555 1_555
H1 C3 1_555 1_555
N3 C4 1_555 1_555
C4 N4 1_555 1_555
C5 C3 1_555 1_555
C6 N3 1_555 1_555
C7 C2 1_555 1_555
H2 C7 1_555 1_555
N4 N2 1_555 1_555
C8 C7 1_555 1_555
H3 C8 1_555 1_555
C9 C2 1_555 1_555
H4 C9 1_555 1_555
N5 N3 1_555 1_555
H5 N5 1_555 1_555
H6 N5 1_555 1_555
C10 C5 1_555 1_555
H7 C10 1_555 1_555
C11 N1 1_555 1_555
H8 C11 1_555 1_555
C12 C10 1_555 1_555
H9 C12 1_555 1_555
C13 C8 1_555 1_555
H10 C13 1_555 1_555
C14 C9 1_555 1_555
C15 C14 1_555 1_555
O5 C15 1_555 1_555
O6 C15 1_555 1_555
C16 C4 1_555 1_555
N6 C17 1_555 1_555
C17 C16 1_555 1_555
H11 C17 1_555 1_555
C18 H12 1_555 1_555
C19 N6 1_555 1_555
H13 C19 1_555 1_555
C20 C16 1_555 1_555
H14 C20 1_555 1_555
Cu1A O5 1_555 1_555
Cu1_2 O6 1_555 1_555
Cu1_3 N6 1_555 1_555
O5A Cu1 1_555 1_555
O6_2 Cu1 1_555 1_555
N6_2 Cu1 1_555 1_555
C5 C6 1_555 1_555
C11 C12 1_555 1_555
C13 C14 1_555 1_555
C18 C19 1_555 1_555
C18 C20 1_555 1_555

#END
