
#######################################################################
#
#                 Cambridge Crystallographic Data Centre
#                                CCDC 
#
#######################################################################
#
# If this CIF has been generated from an entry in the Cambridge 
# Structural Database, then it will include bibliographic, chemical, 
# crystal, experimental, refinement or atomic coordinate data resulting 
# from the CCDC's data processing and validation procedures.
#
#######################################################################

data_MIXROB
_symmetry_cell_setting           triclinic
_symmetry_space_group_name_H-M   'P -1'
_symmetry_Int_Tables_number      2
_space_group_name_Hall           '-P 1'
loop_
_symmetry_equiv_pos_site_id
_symmetry_equiv_pos_as_xyz
1 x,y,z
2 -x,-y,-z
_cell_length_a                   7.3188(6)
_cell_length_b                   10.3043(8)
_cell_length_c                   14.2348(11)
_cell_angle_alpha                104.880(1)
_cell_angle_beta                 92.569(1)
_cell_angle_gamma                92.138(2)
_cell_volume                     1035.15
loop_
_atom_site_label
_atom_site_type_symbol
_atom_site_fract_x
_atom_site_fract_y
_atom_site_fract_z
Cd1 Cd 0.21080(2) 0.783491(14) 0.881613(10)
O1 O 0.1406(2) 0.88945(15) 0.75658(12)
O2 O 0.2013(2) 1.03438(16) 0.89774(12)
O3 O 0.2520(3) 1.53659(16) 0.90187(12)
O4 O 0.0930(2) 1.58834(14) 0.78178(12)
O5 O -0.0790(2) 0.78715(17) 0.93901(13)
H1 H -0.0946 0.8394 0.9946
H2 H -0.1258 0.7078 0.9297
N1 N 0.3135(3) 0.85769(18) 1.04479(13)
N2 N 0.5115(3) 1.25974(19) 1.19849(13)
N3 N 0.4987(3) 1.38960(18) 1.25448(13)
N4 N 0.3203(2) 1.25478(18) 1.31027(13)
N5 N 0.1868(3) 1.2126(2) 1.36560(15)
H3 H 0.0880 1.1736 1.3287
H4 H 0.2313 1.1549 1.3974
N6 N 0.4126(3) 1.7411(2) 1.46556(18)
C1 C 0.3477(3) 0.9875(2) 1.09030(16)
H5 H 0.3549 1.0493 1.0530
C2 C 0.3056(4) 0.7703(2) 1.09981(18)
H6 H 0.2798 0.6799 1.0692
C3 C 0.3337(4) 0.8077(3) 1.19918(19)
H7 H 0.3293 0.7435 1.2346
C4 C 0.3684(3) 0.9417(3) 1.24585(17)
H8 H 0.3883 0.9694 1.3132
C5 C 0.3731(3) 1.0342(2) 1.19072(16)
C6 C 0.4038(3) 1.1798(2) 1.23240(15)
C7 C 0.3830(3) 1.3850(2) 1.32142(15)
C8 C 0.3445(3) 1.5040(2) 1.39931(15)
C9 C 0.2422(3) 1.5017(2) 1.47837(17)
H9 H 0.1844 1.4219 1.4831
C10 C 0.2268(3) 1.6198(3) 1.55042(18)
H10 H 0.1594 1.6205 1.6044
C11 C 0.3132(3) 1.7355(3) 1.54034(19)
H11 H 0.3014 1.8144 1.5886
C12 C 0.4272(4) 1.6263(2) 1.39633(19)
H12 H 0.4964 1.6287 1.3435
C13 C 0.1636(3) 1.2551(2) 0.81234(16)
H13 H 0.2036 1.2759 0.8777
C14 C 0.1313(3) 1.3577(2) 0.76795(16)
C15 C 0.0724(3) 1.3249(2) 0.66976(17)
H14 H 0.0465 1.3930 0.6399
C16 C 0.0523(3) 1.1928(2) 0.61669(17)
H15 H 0.0169 1.1719 0.5508
C17 C 0.0848(3) 1.0914(2) 0.66137(16)
H16 H 0.0720 1.0022 0.6251
C18 C 0.1365(3) 1.1210(2) 0.75992(15)
C19 C 0.1612(3) 1.0090(2) 0.80797(16)
C20 C 0.1603(3) 1.5040(2) 0.82179(16)
Cd1_2 Cd 0.21080(2) 1.783491(14) 0.881613(10)
Cd1A Cd 0.78920(2) 1.216509(14) 1.118387(10)
O3_2 O 0.2520(3) 0.53659(16) 0.90187(12)
O4_2 O 0.0930(2) 0.58834(14) 0.78178(12)
N2A N 0.4885(3) 0.74026(19) 0.80151(13)
O6 O 0.3710(6) 0.0245(4) 0.4800(3)
O7 O 0.3141(3) 0.4268(2) 0.06059(17)
H17 H 0.4143 0.4384 0.0949
H18 H 0.3114 0.4553 0.0096
loop_
_geom_bond_atom_site_label_1
_geom_bond_atom_site_label_2
_geom_bond_site_symmetry_1
_geom_bond_site_symmetry_2
Cd1 O1 1_555 1_555
O1 C19 1_555 1_555
O2 Cd1 1_555 1_555
O3 C20 1_555 1_555
O4 C20 1_555 1_555
O5 Cd1 1_555 1_555
H1 O5 1_555 1_555
H2 O5 1_555 1_555
N1 Cd1 1_555 1_555
N2 N3 1_555 1_555
N3 C7 1_555 1_555
N4 N5 1_555 1_555
N5 H3 1_555 1_555
H4 N5 1_555 1_555
N6 C11 1_555 1_555
C1 N1 1_555 1_555
H5 C1 1_555 1_555
C2 N1 1_555 1_555
H6 C2 1_555 1_555
C3 C2 1_555 1_555
H7 C3 1_555 1_555
C4 C3 1_555 1_555
H8 C4 1_555 1_555
C5 C1 1_555 1_555
C6 N2 1_555 1_555
C7 N4 1_555 1_555
C8 C7 1_555 1_555
C9 C8 1_555 1_555
H9 C9 1_555 1_555
C10 C9 1_555 1_555
H10 C10 1_555 1_555
C11 C10 1_555 1_555
H11 C11 1_555 1_555
C12 N6 1_555 1_555
H12 C12 1_555 1_555
C13 H13 1_555 1_555
C14 C13 1_555 1_555
C15 C14 1_555 1_555
H14 C15 1_555 1_555
C16 C15 1_555 1_555
H15 C16 1_555 1_555
C17 C16 1_555 1_555
H16 C17 1_555 1_555
C18 C13 1_555 1_555
C19 O2 1_555 1_555
C20 C14 1_555 1_555
O7 H17 1_555 1_555
H18 O7 1_555 1_555
Cd1_2 O3 1_555 1_555
Cd1A N2 1_555 1_555
O3_2 Cd1 1_555 1_555
O4_2 Cd1 1_555 1_555
N2A Cd1 1_555 1_555
O4 Cd1_2 1_555 1_555
N4 C6 1_555 1_555
C4 C5 1_555 1_555
C5 C6 1_555 1_555
C8 C12 1_555 1_555
C17 C18 1_555 1_555
C18 C19 1_555 1_555

#END
