
#######################################################################
#
#                 Cambridge Crystallographic Data Centre
#                                CCDC 
#
#######################################################################
#
# If this CIF has been generated from an entry in the Cambridge 
# Structural Database, then it will include bibliographic, chemical, 
# crystal, experimental, refinement or atomic coordinate data resulting 
# from the CCDC's data processing and validation procedures.
#
#######################################################################

data_MIXRIV
_symmetry_cell_setting           monoclinic
_symmetry_space_group_name_H-M   'P 21/n'
_symmetry_Int_Tables_number      14
_space_group_name_Hall           '-P 2yn'
loop_
_symmetry_equiv_pos_site_id
_symmetry_equiv_pos_as_xyz
1 x,y,z
2 1/2-x,1/2+y,1/2-z
3 -x,-y,-z
4 1/2+x,1/2-y,1/2+z
_cell_length_a                   7.685(6)
_cell_length_b                   14.817(12)
_cell_length_c                   18.713(15)
_cell_angle_alpha                90
_cell_angle_beta                 93.509(12)
_cell_angle_gamma                90
_cell_volume                     2126.83
loop_
_atom_site_label
_atom_site_type_symbol
_atom_site_fract_x
_atom_site_fract_y
_atom_site_fract_z
Cu1 Cu 0.52812(5) 0.24452(2) 0.218656(16)
O1 O 0.8231(3) 0.26931(18) 0.35756(12)
O2 O 0.5531(3) 0.29647(14) 0.31375(10)
O3 O 0.1357(4) 0.4457(2) 0.44268(13)
H1 H 0.0436 0.4723 0.4475
O4 O 0.1693(3) 0.47301(17) 0.55925(11)
O5 O 0.6755(3) 0.29216(18) 0.68773(11)
O6 O 0.9175(3) 0.29800(14) 0.62830(10)
O7 O 0.8266(3) 0.22628(18) 0.21335(12)
H2 H 0.8412 0.2347 0.2582
H3 H 0.9198 0.2169 0.1922
N1 N 0.5137(3) 0.11922(17) 0.26247(12)
N2 N 0.3267(4) -0.08520(17) 0.44344(14)
N3 N 0.2489(4) -0.08338(18) 0.50760(14)
N4 N 0.2888(3) 0.05596(16) 0.47330(12)
N5 N 0.2968(4) 0.15091(18) 0.47817(15)
H4 H 0.2267 0.1667 0.4408
H5 H 0.4044 0.1713 0.4728
N6 N 0.0415(3) 0.12917(16) 0.67786(12)
C1 C 0.4700(5) -0.0548(2) 0.31160(17)
H6 H 0.4542 -0.1135 0.3276
C2 C 0.5364(5) -0.0394(2) 0.24646(18)
H7 H 0.5684 -0.0876 0.2183
C3 C 0.5555(5) 0.0480(2) 0.22304(16)
H8 H 0.5989 0.0577 0.1784
C4 C 0.4517(4) 0.1041(2) 0.32710(15)
H9 H 0.4249 0.1535 0.3550
C5 C 0.4257(4) 0.0188(2) 0.35411(15)
C6 C 0.3502(4) -0.00168(19) 0.42275(15)
C7 C 0.2259(4) 0.0018(2) 0.52480(14)
C8 C 0.1417(4) 0.0264(2) 0.59072(14)
C9 C 0.1147(4) 0.1131(2) 0.61578(15)
H10 H 0.1485 0.1619 0.5886
C10 C -0.0127(4) 0.0590(2) 0.71603(15)
H11 H -0.0655 0.0703 0.7585
C11 C 0.0069(5) -0.0291(2) 0.69454(17)
H12 H -0.0325 -0.0764 0.7220
C12 C 0.0855(4) -0.0460(2) 0.63214(16)
H13 H 0.1015 -0.1051 0.6172
C13 C 0.6131(4) 0.32510(19) 0.43540(14)
C14 C 0.4538(4) 0.3669(2) 0.43799(15)
H14 H 0.3866 0.3775 0.3958
C15 C 0.3923(4) 0.3935(2) 0.50304(15)
C16 C 0.4910(4) 0.3746(2) 0.56603(15)
H15 H 0.4497 0.3912 0.6098
C17 C 0.6497(4) 0.33138(19) 0.56409(14)
C18 C 0.7132(4) 0.30789(19) 0.49823(14)
H16 H 0.8221 0.2809 0.4965
C19 C 0.6725(4) 0.29508(19) 0.36385(14)
C20 C 0.2228(4) 0.4403(2) 0.50436(16)
C21 C 0.7544(4) 0.3053(2) 0.63219(14)
Cu1C Cu 1.02812(5) 0.25548(2) 0.718656(16)
Cu1C_2 Cu 0.02812(5) 0.25548(2) 0.718656(16)
O6C O 0.4175(3) 0.20200(14) 0.12830(10)
N6C N 0.5415(3) 0.37083(16) 0.17786(12)
O8 O 0.1672(4) 0.2464(2) 0.34566(18)
H17 H 0.0771 0.2720 0.3604
H18 H 0.1584 0.2238 0.3038
loop_
_geom_bond_atom_site_label_1
_geom_bond_atom_site_label_2
_geom_bond_site_symmetry_1
_geom_bond_site_symmetry_2
Cu1 O2 1_555 1_555
O1 C19 1_555 1_555
O2 C19 1_555 1_555
O3 H1 1_555 1_555
O4 C20 1_555 1_555
O5 C21 1_555 1_555
O6 C21 1_555 1_555
O7 Cu1 1_555 1_555
H2 O7 1_555 1_555
H3 O7 1_555 1_555
N1 Cu1 1_555 1_555
N2 N3 1_555 1_555
N3 C7 1_555 1_555
N4 N5 1_555 1_555
N5 H4 1_555 1_555
H5 N5 1_555 1_555
N6 C9 1_555 1_555
C1 H6 1_555 1_555
C2 C1 1_555 1_555
H7 C2 1_555 1_555
C3 N1 1_555 1_555
H8 C3 1_555 1_555
C4 N1 1_555 1_555
H9 C4 1_555 1_555
C5 C1 1_555 1_555
C6 N2 1_555 1_555
C7 N4 1_555 1_555
C8 C7 1_555 1_555
C9 C8 1_555 1_555
H10 C9 1_555 1_555
C10 N6 1_555 1_555
H11 C10 1_555 1_555
C11 C10 1_555 1_555
H12 C11 1_555 1_555
C12 C8 1_555 1_555
H13 C12 1_555 1_555
C13 C14 1_555 1_555
C14 H14 1_555 1_555
C15 C14 1_555 1_555
C16 C15 1_555 1_555
H15 C16 1_555 1_555
C17 C16 1_555 1_555
C18 C13 1_555 1_555
H16 C18 1_555 1_555
C19 C13 1_555 1_555
C20 O3 1_555 1_555
C21 C17 1_555 1_555
O8 H17 1_555 1_555
H18 O8 1_555 1_555
Cu1C O6 1_555 1_555
Cu1C_2 N6 1_555 1_555
O6C Cu1 1_555 1_555
N6C Cu1 1_555 1_555
N4 C6 1_555 1_555
C2 C3 1_555 1_555
C4 C5 1_555 1_555
C5 C6 1_555 1_555
C11 C12 1_555 1_555
C15 C20 1_555 1_555
C17 C18 1_555 1_555

#END
