
#######################################################################
#
#                 Cambridge Crystallographic Data Centre
#                                CCDC 
#
#######################################################################
#
# If this CIF has been generated from an entry in the Cambridge 
# Structural Database, then it will include bibliographic, chemical, 
# crystal, experimental, refinement or atomic coordinate data resulting 
# from the CCDC's data processing and validation procedures.
#
#######################################################################

data_MIXRER
_symmetry_cell_setting           triclinic
_symmetry_space_group_name_H-M   'P -1'
_symmetry_Int_Tables_number      2
_space_group_name_Hall           '-P 1'
loop_
_symmetry_equiv_pos_site_id
_symmetry_equiv_pos_as_xyz
1 x,y,z
2 -x,-y,-z
_cell_length_a                   15.987(5)
_cell_length_b                   16.865(5)
_cell_length_c                   18.229(6)
_cell_angle_alpha                95.956(5)
_cell_angle_beta                 95.262(4)
_cell_angle_gamma                110.902(5)
_cell_volume                     4522.65
loop_
_atom_site_label
_atom_site_type_symbol
_atom_site_fract_x
_atom_site_fract_y
_atom_site_fract_z
Cu1 Cu 0.23566(4) 0.61761(4) 0.26182(3)
Cu2 Cu 0.27423(5) 0.12797(4) -0.23321(4)
Cu3 Cu 0.25070(4) 0.12393(4) 0.23555(3)
Cu4 Cu 0.24845(5) 0.61911(4) -0.26490(4)
O1 O 0.1643(2) 0.6015(2) 0.16433(19)
O2 O 0.2708(3) 0.6942(3) 0.1108(2)
O3 O -0.1457(3) 0.5875(4) 0.0558(3)
O4 O -0.1578(3) 0.6236(4) -0.0522(3)
O5 O 0.0510(3) 0.6019(3) -0.2194(2)
O6 O 0.1934(2) 0.6251(2) -0.17307(18)
O7 O 0.2963(3) 0.6277(2) 0.36277(19)
O8 O 0.4334(3) 0.6893(3) 0.3319(2)
O9 O 0.3048(3) 0.6169(2) 0.6447(2)
O10 O 0.4207(3) 0.5928(3) 0.7017(2)
O11 O 0.6686(3) 0.5932(3) 0.5699(3)
O12 O 0.6741(3) 0.6261(4) 0.4598(3)
O13 O 0.2148(3) 0.1314(2) -0.1439(2)
O14 O 0.1055(3) 0.1572(3) -0.2085(2)
O15 O -0.1729(3) 0.1289(4) 0.0117(3)
O16 O -0.1540(3) 0.1662(3) -0.0955(3)
O17 O 0.0475(3) 0.0558(3) 0.1567(2)
O18 O 0.1908(3) 0.1093(2) 0.13247(19)
O19 O 0.3098(3) 0.1402(2) -0.66212(19)
O20 O 0.4563(3) 0.1906(3) -0.6770(2)
O21 O 0.2433(3) 0.1329(3) -0.4024(2)
O22 O 0.3422(3) 0.1175(2) -0.3155(2)
O23 O 0.6239(3) 0.0961(4) -0.3946(3)
O24 O 0.6604(3) 0.1310(4) -0.4985(3)
O25 O 0.1188(2) 0.5119(2) 0.2947(2)
H1 H 0.0674 0.4961 0.2570
H2 H 0.1042 0.5321 0.3412
O26 O 0.3753(3) 0.2385(2) 0.2086(2)
H3 H 0.3606 0.2890 0.2099
H4 H 0.3882 0.2238 0.1597
O27 O 0.1290(3) 0.0105(2) 0.2745(2)
H5 H 0.1435 -0.0402 0.2732
H6 H 0.0743 -0.0016 0.2413
O28 O 0.4048(2) 0.1479(2) -0.1584(2)
H7 H 0.4013 0.0944 -0.1425
H8 H 0.4123 0.1893 -0.1156
N1 N 0.2978(3) 0.5374(3) 0.2230(2)
N2 N 0.4068(4) 0.5495(3) 0.0171(3)
N3 N 0.4097(4) 0.5242(3) -0.0569(3)
N4 N 0.3600(3) 0.4096(3) -0.0028(2)
N5 N 0.3177(3) 0.3236(3) 0.0034(3)
H9 H 0.3588 0.3040 0.0219
H10 H 0.2762 0.3180 0.0339
N6 N 0.3208(3) 0.2584(3) -0.2247(2)
N7 N 0.1915(3) 0.7133(3) 0.2986(2)
N8 N 0.0893(3) 0.7063(3) 0.5060(2)
N9 N 0.0922(3) 0.7327(3) 0.5807(2)
N10 N 0.1431(3) 0.8469(3) 0.5267(2)
N11 N 0.1866(3) 0.9325(3) 0.5186(2)
H11 H 0.1463 0.9516 0.4977
H12 H 0.2293 0.9367 0.4895
N12 N 0.2058(3) 0.9988(3) 0.7507(2)
N13 N 0.1949(3) 0.4901(3) -0.2770(2)
N14 N 0.0936(4) 0.2235(3) -0.4445(3)
N15 N 0.0916(3) 0.1964(3) -0.5189(3)
N16 N 0.1297(3) 0.3359(3) -0.5015(2)
N17 N 0.1585(3) 0.4221(3) -0.5116(2)
H13 H 0.1104 0.4345 -0.5259
H14 H 0.1947 0.4308 -0.5467
N18 N 0.1893(3) 0.2071(3) -0.7287(2)
N19 N 0.3073(3) 1.0377(3) 0.2005(2)
N20 N 0.4068(3) 1.0419(3) -0.0074(2)
N21 N 0.4068(3) 1.0143(3) -0.0809(2)
N22 N 0.3668(3) 0.9022(3) -0.0245(2)
N23 N 0.3344(3) 0.8159(3) -0.0138(2)
H15 H 0.2975 0.8090 0.0207
H16 H 0.3809 0.8016 0.0016
N24 N 0.3077(3) 0.7484(3) -0.2489(2)
C1 C 0.3602(3) 0.4794(3) 0.1261(3)
C2 C 0.3218(3) 0.5352(3) 0.1550(3)
H17 H 0.3122 0.5735 0.1252
C3 C 0.3143(4) 0.4824(3) 0.2650(3)
H18 H 0.2981 0.4825 0.3127
C4 C 0.3535(4) 0.4267(3) 0.2413(3)
H19 H 0.3636 0.3898 0.2725
C5 C 0.3779(4) 0.4250(3) 0.1712(3)
H20 H 0.4059 0.3880 0.1545
C6 C 0.3782(4) 0.4802(4) 0.0481(3)
C7 C 0.3804(4) 0.4404(3) -0.0685(3)
C8 C 0.3696(4) 0.3913(3) -0.1420(3)
C9 C 0.3385(4) 0.3036(4) -0.1560(3)
H21 H 0.3291 0.2734 -0.1156
C10 C 0.3362(4) 0.3021(4) -0.2826(3)
H22 H 0.3236 0.2721 -0.3306
C11 C 0.3700(4) 0.3900(4) -0.2725(4)
H23 H 0.3808 0.4188 -0.3135
C12 C 0.3881(4) 0.4359(4) -0.2027(3)
H24 H 0.4122 0.4955 -0.1957
C13 C 0.1350(3) 0.7746(3) 0.3972(3)
C14 C 0.1738(3) 0.7195(3) 0.3685(3)
H25 H 0.1884 0.6846 0.3996
C15 C 0.1740(4) 0.7662(3) 0.2544(3)
H26 H 0.1875 0.7635 0.2059
C16 C 0.1366(4) 0.8243(4) 0.2792(3)
H27 H 0.1249 0.8602 0.2477
C17 C 0.1166(4) 0.8287(4) 0.3513(3)
H28 H 0.0911 0.8674 0.3688
C18 C 0.1209(3) 0.7757(3) 0.4751(3)
C19 C 0.1262(3) 0.8172(3) 0.5929(3)
C20 C 0.1439(3) 0.8662(3) 0.6677(3)
C21 C 0.1830(4) 0.9542(4) 0.6823(3)
H29 H 0.1941 0.9845 0.6421
C22 C 0.1875(3) 0.9549(3) 0.8081(3)
H30 H 0.2020 0.9848 0.8562
C23 C 0.1480(4) 0.8673(4) 0.7980(3)
H31 H 0.1369 0.8388 0.8392
C24 C 0.1250(4) 0.8215(4) 0.7288(3)
H32 H 0.0974 0.7620 0.7219
C25 C 0.1349(4) 0.3564(3) -0.3607(3)
C26 C 0.1738(4) 0.4452(3) -0.3460(3)
H33 H 0.1860 0.4754 -0.3861
C27 C 0.1773(4) 0.4458(4) -0.2198(3)
H34 H 0.1909 0.4760 -0.1718
C28 C 0.1403(4) 0.3585(4) -0.2287(3)
H35 H 0.1303 0.3299 -0.1875
C29 C 0.1183(4) 0.3134(4) -0.2990(3)
H36 H 0.0920 0.2538 -0.3058
C30 C 0.1184(3) 0.3068(3) -0.4349(3)
C31 C 0.1128(4) 0.2643(4) -0.5529(3)
C32 C 0.1280(4) 0.2648(3) -0.6301(3)
C33 C 0.1706(3) 0.2121(3) -0.6589(3)
H37 H 0.1869 0.1782 -0.6278
C34 C 0.1652(4) 0.2564(3) -0.7729(3)
H38 H 0.1786 0.2548 -0.8215
C35 C 0.1217(4) 0.3091(4) -0.7493(3)
H39 H 0.1056 0.3419 -0.7818
C36 C 0.1017(4) 0.3135(4) -0.6774(3)
H40 H 0.0712 0.3483 -0.6609
C37 C 0.3666(3) 0.9747(3) 0.1037(3)
C38 C 0.3263(3) 1.0303(3) 0.1312(3)
H41 H 0.3117 1.0644 0.0992
C39 C 0.3276(3) 0.9868(3) 0.2450(3)
H42 H 0.3144 0.9903 0.2936
C40 C 0.3670(4) 0.9296(4) 0.2225(3)
H43 H 0.3804 0.8960 0.2555
C41 C 0.3864(3) 0.9228(3) 0.1507(3)
H44 H 0.4122 0.8839 0.1342
C42 C 0.3820(3) 0.9732(3) 0.0258(3)
C43 C 0.3818(3) 0.9309(3) -0.0913(3)
C44 C 0.3668(3) 0.8808(3) -0.1655(3)
C45 C 0.3296(3) 0.7928(3) -0.1796(3)
H45 H 0.3191 0.7625 -0.1395
C46 C 0.3247(4) 0.7923(4) -0.3066(3)
H46 H 0.3096 0.7626 -0.3549
C47 C 0.3641(4) 0.8806(4) -0.2958(3)
H47 H 0.3764 0.9097 -0.3366
C48 C 0.3851(4) 0.9252(4) -0.2263(3)
H48 H 0.4114 0.9848 -0.2190
C49 C 0.1930(4) 0.6434(4) 0.1112(3)
C50 C 0.1233(3) 0.6269(3) 0.0438(3)
C51 C 0.0356(3) 0.6169(3) 0.0532(3)
H49 H 0.0170 0.6149 0.1000
C52 C -0.0232(3) 0.6100(4) -0.0093(3)
N25 N -0.1155(3) 0.6066(4) -0.0005(3)
C53 C 0.0001(4) 0.6086(3) -0.0798(3)
H50 H -0.0422 0.6026 -0.1206
C54 C 0.0873(4) 0.6163(3) -0.0898(3)
C55 C 0.1131(4) 0.6147(4) -0.1666(3)
C56 C 0.1498(3) 0.6283(3) -0.0267(3)
H51 H 0.2097 0.6373 -0.0321
C57 C 0.3823(4) 0.6554(4) 0.3749(3)
C58 C 0.4233(3) 0.6395(3) 0.4475(3)
C59 C 0.3792(3) 0.6279(3) 0.5101(3)
H52 H 0.3215 0.6294 0.5083
C60 C 0.4208(3) 0.6142(3) 0.5752(3)
C61 C 0.3795(4) 0.6066(4) 0.6475(3)
C62 C 0.5053(4) 0.6089(3) 0.5764(3)
H53 H 0.5333 0.5979 0.6191
C63 C 0.5477(4) 0.6201(4) 0.5134(3)
C64 C 0.5089(4) 0.6370(3) 0.4491(3)
H54 H 0.5395 0.6464 0.4080
N26 N 0.6365(3) 0.6129(4) 0.5144(3)
C65 C 0.3939(4) 0.1611(4) -0.6399(3)
C66 C 0.4161(3) 0.1456(3) -0.5621(3)
C67 C 0.3569(4) 0.1374(3) -0.5101(3)
H55 H 0.3005 0.1397 -0.5241
C68 C 0.3790(4) 0.1258(3) -0.4384(3)
C69 C 0.3158(4) 0.1244(3) -0.3808(3)
C70 C 0.4619(4) 0.1192(3) -0.4182(3)
H56 H 0.4783 0.1108 -0.3702
C71 C 0.5197(4) 0.1256(4) -0.4714(3)
C72 C 0.4991(4) 0.1412(3) -0.5426(3)
H57 H 0.5405 0.1486 -0.5763
N27 N 0.6079(3) 0.1179(4) -0.4529(3)
C73 C 0.1402(4) 0.1428(3) -0.1503(3)
C74 C 0.0926(4) 0.1385(3) -0.0835(3)
C75 C 0.1253(4) 0.1203(3) -0.0159(3)
H58 H 0.1821 0.1165 -0.0099
C76 C 0.0738(3) 0.1079(3) 0.0425(3)
C77 C 0.1054(4) 0.0875(3) 0.1169(3)
C78 C -0.0095(4) 0.1142(4) 0.0349(3)
H59 H -0.0449 0.1044 0.0732
C79 C -0.0401(3) 0.1355(4) -0.0310(3)
N28 N -0.1282(3) 0.1444(4) -0.0391(3)
C80 C 0.0092(4) 0.1469(3) -0.0908(3)
H60 H -0.0135 0.1600 -0.1348
O29 O 0.1093(2) 0.5969(2) -0.3513(2)
H61 H 0.0758 0.5897 -0.3170
H62 H 0.1128 0.6382 -0.3755
Cu2_2 Cu 0.27423(5) 1.12797(4) 0.76679(4)
Cu3_2 Cu 0.25070(4) 0.12393(4) -0.76445(3)
Cu3_3 Cu 0.25070(4) 1.12393(4) 0.23555(3)
Cu4_2 Cu 0.24845(5) 0.61911(4) 0.73510(4)
O9_2 O 0.3048(3) 0.6169(2) -0.3553(2)
O19_2 O 0.3098(3) 0.1402(2) 0.33788(19)
N12_2 N 0.2058(3) -0.0012(3) -0.2493(2)
N18_2 N 0.1893(3) 0.2071(3) 0.2713(2)
N19_2 N 0.3073(3) 0.0377(3) 0.2005(2)
O30 O 0.4369(3) 0.7723(3) 0.2127(2)
H63 H 0.4508 0.7375 0.1837
H64 H 0.4434 0.7692 0.2590
O31 O 0.0516(3) 0.5302(2) 0.4291(2)
O32 O 0.4222(4) 0.2202(3) 0.0662(3)
O33 O 0.5396(3) 0.2663(3) 0.9598(3)
O34 O 0.0714(3) 0.0709(3) 0.6467(2)
H65 H 0.0509 0.1109 0.6557
H66 H 0.0879 0.0517 0.6848
O35 O 0.4005(4) 0.6491(3) 0.8440(3)
H67 H 0.4148 0.6331 0.8028
H68 H 0.3946 0.6158 0.8768
O36 O 0.9073(3) 0.9758(3) 0.5685(2)
H69 H 0.9593 1.0052 0.5928
H70 H 0.8892 0.9965 0.5323
loop_
_geom_bond_atom_site_label_1
_geom_bond_atom_site_label_2
_geom_bond_site_symmetry_1
_geom_bond_site_symmetry_2
Cu1 O1 1_555 1_555
Cu2 O13 1_555 1_555
Cu3 O18 1_555 1_555
Cu4 O6 1_555 1_555
O1 C49 1_555 1_555
O2 C49 1_555 1_555
O3 N25 1_555 1_555
O4 N25 1_555 1_555
O5 C55 1_555 1_555
O6 C55 1_555 1_555
O7 Cu1 1_555 1_555
O8 C57 1_555 1_555
O9 C61 1_555 1_555
O10 C61 1_555 1_555
O11 N26 1_555 1_555
O12 N26 1_555 1_555
O13 C73 1_555 1_555
O14 C73 1_555 1_555
O15 N28 1_555 1_555
O16 N28 1_555 1_555
O17 C77 1_555 1_555
O18 C77 1_555 1_555
O19 C65 1_555 1_555
O20 C65 1_555 1_555
O21 C69 1_555 1_555
O22 Cu2 1_555 1_555
O23 N27 1_555 1_555
O24 N27 1_555 1_555
O25 Cu1 1_555 1_555
H1 O25 1_555 1_555
H2 O25 1_555 1_555
O26 Cu3 1_555 1_555
H3 O26 1_555 1_555
H4 O26 1_555 1_555
O27 Cu3 1_555 1_555
H5 O27 1_555 1_555
H6 O27 1_555 1_555
O28 Cu2 1_555 1_555
H7 O28 1_555 1_555
H8 O28 1_555 1_555
N1 Cu1 1_555 1_555
N2 N3 1_555 1_555
N3 C7 1_555 1_555
N4 N5 1_555 1_555
N5 H9 1_555 1_555
H10 N5 1_555 1_555
N6 Cu2 1_555 1_555
N7 Cu1 1_555 1_555
N8 N9 1_555 1_555
N9 C19 1_555 1_555
N10 N11 1_555 1_555
N11 H11 1_555 1_555
H12 N11 1_555 1_555
N12 C21 1_555 1_555
N13 Cu4 1_555 1_555
N14 N15 1_555 1_555
N15 C31 1_555 1_555
N16 N17 1_555 1_555
N17 H13 1_555 1_555
H14 N17 1_555 1_555
N18 C33 1_555 1_555
N19 C38 1_555 1_555
N20 N21 1_555 1_555
N21 C43 1_555 1_555
N22 N23 1_555 1_555
N23 H15 1_555 1_555
H16 N23 1_555 1_555
N24 Cu4 1_555 1_555
C1 C2 1_555 1_555
C2 N1 1_555 1_555
H17 C2 1_555 1_555
C3 N1 1_555 1_555
H18 C3 1_555 1_555
C4 C3 1_555 1_555
H19 C4 1_555 1_555
C5 C1 1_555 1_555
H20 C5 1_555 1_555
C6 N2 1_555 1_555
C7 N4 1_555 1_555
C8 C7 1_555 1_555
C9 N6 1_555 1_555
H21 C9 1_555 1_555
C10 N6 1_555 1_555
H22 C10 1_555 1_555
C11 C10 1_555 1_555
H23 C11 1_555 1_555
C12 C8 1_555 1_555
H24 C12 1_555 1_555
C13 C14 1_555 1_555
C14 N7 1_555 1_555
H25 C14 1_555 1_555
C15 N7 1_555 1_555
H26 C15 1_555 1_555
C16 C15 1_555 1_555
H27 C16 1_555 1_555
C17 C13 1_555 1_555
H28 C17 1_555 1_555
C18 N8 1_555 1_555
C19 N10 1_555 1_555
C20 C19 1_555 1_555
C21 C20 1_555 1_555
H29 C21 1_555 1_555
C22 N12 1_555 1_555
H30 C22 1_555 1_555
C23 C22 1_555 1_555
H31 C23 1_555 1_555
C24 C20 1_555 1_555
H32 C24 1_555 1_555
C25 C26 1_555 1_555
C26 N13 1_555 1_555
H33 C26 1_555 1_555
C27 N13 1_555 1_555
H34 C27 1_555 1_555
C28 C27 1_555 1_555
H35 C28 1_555 1_555
C29 C25 1_555 1_555
H36 C29 1_555 1_555
C30 N14 1_555 1_555
C31 N16 1_555 1_555
C32 C31 1_555 1_555
C33 C32 1_555 1_555
H37 C33 1_555 1_555
C34 N18 1_555 1_555
H38 C34 1_555 1_555
C35 C34 1_555 1_555
H39 C35 1_555 1_555
C36 C32 1_555 1_555
H40 C36 1_555 1_555
C37 C38 1_555 1_555
C38 H41 1_555 1_555
C39 N19 1_555 1_555
H42 C39 1_555 1_555
C40 C39 1_555 1_555
H43 C40 1_555 1_555
C41 C37 1_555 1_555
H44 C41 1_555 1_555
C42 N20 1_555 1_555
C43 N22 1_555 1_555
C44 C43 1_555 1_555
C45 N24 1_555 1_555
H45 C45 1_555 1_555
C46 N24 1_555 1_555
H46 C46 1_555 1_555
C47 C46 1_555 1_555
H47 C47 1_555 1_555
C48 C44 1_555 1_555
H48 C48 1_555 1_555
C49 C50 1_555 1_555
C50 C51 1_555 1_555
C51 H49 1_555 1_555
C52 C51 1_555 1_555
N25 C52 1_555 1_555
C53 C52 1_555 1_555
H50 C53 1_555 1_555
C54 C53 1_555 1_555
C55 C54 1_555 1_555
C56 C50 1_555 1_555
H51 C56 1_555 1_555
C57 O7 1_555 1_555
C58 C57 1_555 1_555
C59 C58 1_555 1_555
H52 C59 1_555 1_555
C60 C59 1_555 1_555
C61 C60 1_555 1_555
C62 C60 1_555 1_555
H53 C62 1_555 1_555
C63 C62 1_555 1_555
C64 C58 1_555 1_555
H54 C64 1_555 1_555
N26 C63 1_555 1_555
C65 C66 1_555 1_555
C66 C67 1_555 1_555
C67 H55 1_555 1_555
C68 C67 1_555 1_555
C69 O22 1_555 1_555
C70 C68 1_555 1_555
H56 C70 1_555 1_555
C71 C70 1_555 1_555
C72 C66 1_555 1_555
H57 C72 1_555 1_555
N27 C71 1_555 1_555
C73 C74 1_555 1_555
C74 C75 1_555 1_555
C75 H58 1_555 1_555
C76 C75 1_555 1_555
C77 C76 1_555 1_555
C78 C76 1_555 1_555
H59 C78 1_555 1_555
C79 C78 1_555 1_555
N28 C79 1_555 1_555
C80 C74 1_555 1_555
H60 C80 1_555 1_555
O29 Cu4 1_555 1_555
H61 O29 1_555 1_555
H62 O29 1_555 1_555
O30 H63 1_555 1_555
H64 O30 1_555 1_555
O34 H65 1_555 1_555
H66 O34 1_555 1_555
O35 H67 1_555 1_555
H68 O35 1_555 1_555
O36 H69 1_555 1_555
H70 O36 1_555 1_555
Cu2_2 N12 1_555 1_555
Cu3_2 O19 1_555 1_555
Cu3_3 N19 1_555 1_555
Cu4_2 O9 1_555 1_555
O9_2 Cu4 1_555 1_555
O19_2 Cu3 1_555 1_555
N12_2 Cu2 1_555 1_555
N18_2 Cu3 1_555 1_555
N19_2 Cu3 1_555 1_555
N4 C6 1_555 1_555
N10 C18 1_555 1_555
N16 C30 1_555 1_555
N18 Cu3_2 1_555 1_555
N22 C42 1_555 1_555
C1 C6 1_555 1_555
C4 C5 1_555 1_555
C8 C9 1_555 1_555
C11 C12 1_555 1_555
C13 C18 1_555 1_555
C16 C17 1_555 1_555
C23 C24 1_555 1_555
C25 C30 1_555 1_555
C28 C29 1_555 1_555
C35 C36 1_555 1_555
C37 C42 1_555 1_555
C40 C41 1_555 1_555
C44 C45 1_555 1_555
C47 C48 1_555 1_555
C54 C56 1_555 1_555
C63 C64 1_555 1_555
C68 C69 1_555 1_555
C71 C72 1_555 1_555
C79 C80 1_555 1_555

#END
