
#######################################################################
#
#                 Cambridge Crystallographic Data Centre
#                                CCDC 
#
#######################################################################
#
# If this CIF has been generated from an entry in the Cambridge 
# Structural Database, then it will include bibliographic, chemical, 
# crystal, experimental, refinement or atomic coordinate data resulting 
# from the CCDC's data processing and validation procedures.
#
#######################################################################

data_MIXSIW
_symmetry_cell_setting           orthorhombic
_symmetry_space_group_name_H-M   'P b c a'
_symmetry_Int_Tables_number      61
_space_group_name_Hall           '-P 2ac 2ab'
loop_
_symmetry_equiv_pos_site_id
_symmetry_equiv_pos_as_xyz
1 x,y,z
2 1/2-x,-y,1/2+z
3 -x,1/2+y,1/2-z
4 1/2+x,1/2-y,-z
5 -x,-y,-z
6 1/2+x,y,1/2-z
7 x,1/2-y,1/2+z
8 1/2-x,1/2+y,z
_cell_length_a                   13.6117(18)
_cell_length_b                   14.957(2)
_cell_length_c                   18.604(3)
_cell_angle_alpha                90
_cell_angle_beta                 90
_cell_angle_gamma                90
_cell_volume                     3787.59
loop_
_atom_site_label
_atom_site_type_symbol
_atom_site_fract_x
_atom_site_fract_y
_atom_site_fract_z
Zn1 Zn 0.84584(3) 0.02090(3) 0.40528(2)
O1 O 0.88450(17) -0.09001(19) 0.32658(14)
N1 N 0.77731(18) -0.05718(16) 0.48860(14)
C1 C 0.8198(2) -0.0893(2) 0.54697(18)
H1 H 0.8861 -0.0776 0.5543
N2 N 0.6951(2) 0.01362(17) 0.37119(15)
O2 O 0.89875(19) 0.11273(19) 0.48354(16)
C2 C 0.7695(2) -0.1399(2) 0.59812(18)
H2 H 0.8015 -0.1604 0.6391
O3 O 0.98779(17) -0.04457(15) 0.40785(12)
C3 C 0.6716(2) -0.1588(2) 0.58699(18)
H3 H 0.6369 -0.1930 0.6201
N3 N 0.4700(2) -0.19500(19) 0.55572(16)
C4 C 0.6253(2) -0.1262(2) 0.52541(17)
N4 N 0.3807(2) -0.1134(2) 0.43513(17)
C5 C 0.5220(2) -0.1422(2) 0.50961(17)
C6 C 0.3755(3) -0.2045(3) 0.5400(2)
H4 H 0.3369 -0.2400 0.5697
C7 C 0.3320(3) -0.1638(2) 0.4813(2)
H5 H 0.2651 -0.1723 0.4739
C8 C 0.4780(2) -0.1035(2) 0.44927(18)
C9 C 0.5359(2) -0.0493(2) 0.39962(17)
C10 C 0.4966(3) -0.0090(2) 0.33803(19)
H6 H 0.4305 -0.0155 0.3268
C11 C 0.5578(3) 0.0404(2) 0.29443(19)
H7 H 0.5333 0.0673 0.2531
C12 C 0.6557(3) 0.0497(2) 0.31254(18)
H8 H 0.6960 0.0828 0.2822
C13 C 0.6356(2) -0.0361(2) 0.41418(16)
C14 C 0.6809(2) -0.0745(2) 0.47772(16)
C15 C 0.9687(2) -0.0898(2) 0.35166(18)
C16 C 1.0500(2) -0.1391(2) 0.31514(16)
C17 C 1.0289(2) -0.2006(2) 0.26085(17)
H9 H 0.9639 -0.2131 0.2491
C18 C 1.1044(2) -0.2432(2) 0.22439(16)
C19 C 1.2014(2) -0.2207(2) 0.24032(18)
H10 H 1.2523 -0.2485 0.2155
C20 C 1.2229(2) -0.1583(2) 0.29194(17)
H11 H 1.2878 -0.1430 0.3013
C21 C 1.1471(2) -0.1180(2) 0.33013(17)
H12 H 1.1616 -0.0767 0.3660
C22 C 1.0826(2) -0.3125(2) 0.16754(18)
O4 O 1.14270(17) -0.37655(16) 0.16485(13)
O5 O 1.00977(18) -0.30342(18) 0.12843(14)
H13 H 0.931(3) 0.143(3) 0.461(2)
H14 H 0.932(3) 0.091(3) 0.520(2)
Zn1B Zn 1.15416(3) -0.47910(3) 0.09472(2)
O4B O 0.85730(17) 0.12345(16) 0.33515(13)
loop_
_geom_bond_atom_site_label_1
_geom_bond_atom_site_label_2
_geom_bond_site_symmetry_1
_geom_bond_site_symmetry_2
Zn1 O1 1_555 1_555
O1 C15 1_555 1_555
N1 Zn1 1_555 1_555
C1 N1 1_555 1_555
H1 C1 1_555 1_555
N2 Zn1 1_555 1_555
O2 Zn1 1_555 1_555
C2 C1 1_555 1_555
H2 C2 1_555 1_555
O3 Zn1 1_555 1_555
C3 C2 1_555 1_555
H3 C3 1_555 1_555
N3 C5 1_555 1_555
C4 C3 1_555 1_555
N4 C7 1_555 1_555
C5 C4 1_555 1_555
C6 N3 1_555 1_555
H4 C6 1_555 1_555
C7 C6 1_555 1_555
H5 C7 1_555 1_555
C8 N4 1_555 1_555
C9 C8 1_555 1_555
C10 C9 1_555 1_555
H6 C10 1_555 1_555
C11 C10 1_555 1_555
H7 C11 1_555 1_555
C12 N2 1_555 1_555
H8 C12 1_555 1_555
C13 N2 1_555 1_555
C14 N1 1_555 1_555
C15 O3 1_555 1_555
C16 C15 1_555 1_555
C17 C16 1_555 1_555
H9 C17 1_555 1_555
C18 C17 1_555 1_555
C19 C18 1_555 1_555
H10 C19 1_555 1_555
C20 C19 1_555 1_555
H11 C20 1_555 1_555
C21 C16 1_555 1_555
H12 C21 1_555 1_555
C22 C18 1_555 1_555
O4 C22 1_555 1_555
O5 C22 1_555 1_555
H13 O2 1_555 1_555
H14 O2 1_555 1_555
Zn1B O4 1_555 1_555
O4B Zn1 1_555 1_555
C4 C14 1_555 1_555
C5 C8 1_555 1_555
C9 C13 1_555 1_555
C11 C12 1_555 1_555
C13 C14 1_555 1_555
C20 C21 1_555 1_555

#END
