
#######################################################################
#
#                 Cambridge Crystallographic Data Centre
#                                CCDC 
#
#######################################################################
#
# If this CIF has been generated from an entry in the Cambridge 
# Structural Database, then it will include bibliographic, chemical, 
# crystal, experimental, refinement or atomic coordinate data resulting 
# from the CCDC's data processing and validation procedures.
#
#######################################################################

data_MIXSAO
_symmetry_cell_setting           monoclinic
_symmetry_space_group_name_H-M   'C 2/c'
_symmetry_Int_Tables_number      15
_space_group_name_Hall           '-C 2yn'
loop_
_symmetry_equiv_pos_site_id
_symmetry_equiv_pos_as_xyz
1 x,y,z
2 1/2+x,1/2+y,z
3 -x,y,1/2-z
4 1/2-x,1/2+y,1/2-z
5 -x,-y,-z
6 1/2-x,1/2-y,-z
7 x,-y,1/2+z
8 1/2+x,1/2-y,1/2+z
_cell_length_a                   22.160(4)
_cell_length_b                   19.009(3)
_cell_length_c                   13.457(2)
_cell_angle_alpha                90
_cell_angle_beta                 124.142(2)
_cell_angle_gamma                90
_cell_volume                     4691.63
loop_
_atom_site_label
_atom_site_type_symbol
_atom_site_fract_x
_atom_site_fract_y
_atom_site_fract_z
Cd1 Cd 0.257511(14) 0.241430(13) 0.28156(2)
O1 O 0.31209(19) 0.17434(15) 0.4703(3)
O2 O 0.29270(16) 0.11449(16) 0.3170(2)
O3 O 0.28974(14) -0.15115(13) 0.3465(2)
O4 O 0.33975(14) -0.19759(13) 0.5288(2)
O5 O 0.46711(15) -0.05538(13) 0.8874(2)
O6 O 0.45856(15) 0.06075(13) 0.8753(2)
H1 H 0.4846 0.0549 0.9614
O7 O 0.23893(14) 0.19707(13) 0.0977(2)
H2 H 0.2199 0.1595 0.0583
H3 H 0.2162 0.2352 0.0670
O8 O 0.25729(19) 0.32606(16) 0.4065(3)
H4 H 0.2359 0.3649 0.3741
H5 H 0.3026 0.3285 0.4628
N1 N 0.13821(16) 0.21583(16) 0.2085(3)
N2 N -0.03976(16) 0.03164(16) 0.0883(3)
N3 N -0.03989(16) -0.04095(15) 0.0869(3)
N4 N 0.07265(16) -0.00524(14) 0.1832(2)
N5 N 0.14941(16) -0.00221(15) 0.2569(3)
H6 H 0.1645 -0.0337 0.3154
H7 H 0.1631 -0.0116 0.2069
N6 N 0.13031(16) -0.22668(15) 0.1755(3)
C1 C 0.04981(19) 0.12671(18) 0.1613(3)
C2 C 0.1192(2) 0.14833(19) 0.1983(3)
H8 H 0.1541 0.1142 0.2168
C3 C 0.0877(2) 0.2652(2) 0.1800(4)
H9 H 0.1005 0.3123 0.1865
C4 C 0.0175(2) 0.24808(19) 0.1414(4)
H10 H -0.0166 0.2833 0.1218
C5 C -0.0019(2) 0.17880(19) 0.1319(3)
H11 H -0.0492 0.1666 0.1061
C6 C 0.02849(19) 0.05225(18) 0.1463(3)
C7 C 0.02788(18) -0.06204(19) 0.1426(3)
C8 C 0.04755(18) -0.13673(18) 0.1517(3)
C9 C 0.11365(19) -0.15900(18) 0.1740(3)
H12 H 0.1480 -0.1252 0.1885
C10 C 0.0811(2) -0.2752(2) 0.1553(3)
H13 H 0.0928 -0.3224 0.1574
C11 C 0.0135(2) -0.25838(19) 0.1313(4)
H14 H -0.0197 -0.2934 0.1170
C12 C -0.00349(19) -0.18814(19) 0.1291(3)
H15 H -0.0487 -0.1753 0.1127
C13 C 0.3140(2) 0.1179(2) 0.4251(3)
C14 C 0.34168(19) 0.05221(19) 0.5005(3)
C15 C 0.32637(19) -0.01345(18) 0.4474(3)
H16 H 0.3021 -0.0166 0.3645
C16 C 0.34624(18) -0.07441(18) 0.5145(3)
C17 C 0.32325(18) -0.14661(18) 0.4574(3)
C18 C 0.38599(18) -0.06847(18) 0.6392(3)
H17 H 0.4007 -0.1089 0.6862
C19 C 0.40373(19) -0.00329(17) 0.6938(3)
C20 C 0.4462(2) -0.00107(17) 0.8283(3)
C21 C 0.38019(19) 0.05745(18) 0.6253(3)
H18 H 0.3899 0.1013 0.6620
Cd1C Cd 0.242489(14) -0.258570(13) 0.21844(2)
O3C O 0.21026(14) 0.34885(13) 0.1535(2)
N6C N 0.36969(16) 0.27332(15) 0.3245(3)
O9 O 0.17411(18) 0.07966(18) 0.9611(3)
O10 O 0.3052(5) 0.4543(4) 0.4094(9)
O11? O 0.2642(5) 0.4832(6) 0.3569(9)
loop_
_geom_bond_atom_site_label_1
_geom_bond_atom_site_label_2
_geom_bond_site_symmetry_1
_geom_bond_site_symmetry_2
Cd1 O1 1_555 1_555
O1 C13 1_555 1_555
O2 Cd1 1_555 1_555
O3 C17 1_555 1_555
O4 C17 1_555 1_555
O5 C20 1_555 1_555
O6 H1 1_555 1_555
O7 Cd1 1_555 1_555
H2 O7 1_555 1_555
H3 O7 1_555 1_555
O8 Cd1 1_555 1_555
H4 O8 1_555 1_555
H5 O8 1_555 1_555
N1 Cd1 1_555 1_555
N2 N3 1_555 1_555
N3 C7 1_555 1_555
N4 N5 1_555 1_555
N5 H6 1_555 1_555
H7 N5 1_555 1_555
N6 C9 1_555 1_555
C1 C2 1_555 1_555
C2 N1 1_555 1_555
H8 C2 1_555 1_555
C3 N1 1_555 1_555
H9 C3 1_555 1_555
C4 C3 1_555 1_555
H10 C4 1_555 1_555
C5 C1 1_555 1_555
H11 C5 1_555 1_555
C6 N2 1_555 1_555
C7 N4 1_555 1_555
C8 C7 1_555 1_555
C9 C8 1_555 1_555
H12 C9 1_555 1_555
C10 N6 1_555 1_555
H13 C10 1_555 1_555
C11 C10 1_555 1_555
H14 C11 1_555 1_555
C12 C8 1_555 1_555
H15 C12 1_555 1_555
C13 O2 1_555 1_555
C14 C13 1_555 1_555
C15 C14 1_555 1_555
H16 C15 1_555 1_555
C16 C15 1_555 1_555
C17 C16 1_555 1_555
C18 C16 1_555 1_555
H17 C18 1_555 1_555
C19 C18 1_555 1_555
C20 O6 1_555 1_555
C21 C14 1_555 1_555
H18 C21 1_555 1_555
Cd1C O3 1_555 1_555
O3C Cd1 1_555 1_555
N6C Cd1 1_555 1_555
N4 C6 1_555 1_555
N6 Cd1C 1_555 1_555
C1 C6 1_555 1_555
C4 C5 1_555 1_555
C11 C12 1_555 1_555
C19 C20 1_555 1_555
C19 C21 1_555 1_555

#END
