
#######################################################################
#
#                 Cambridge Crystallographic Data Centre
#                                CCDC 
#
#######################################################################
#
# If this CIF has been generated from an entry in the Cambridge 
# Structural Database, then it will include bibliographic, chemical, 
# crystal, experimental, refinement or atomic coordinate data resulting 
# from the CCDC's data processing and validation procedures.
#
#######################################################################

data_MIXSUI
_symmetry_cell_setting           monoclinic
_symmetry_space_group_name_H-M   'P 21/n'
_symmetry_Int_Tables_number      14
_space_group_name_Hall           '-P 2yn'
loop_
_symmetry_equiv_pos_site_id
_symmetry_equiv_pos_as_xyz
1 x,y,z
2 1/2-x,1/2+y,1/2-z
3 -x,-y,-z
4 1/2+x,1/2-y,1/2+z
_cell_length_a                   7.5573(16)
_cell_length_b                   23.502(5)
_cell_length_c                   12.903(3)
_cell_angle_alpha                90
_cell_angle_beta                 106.473(4)
_cell_angle_gamma                90
_cell_volume                     2197.66
loop_
_atom_site_label
_atom_site_type_symbol
_atom_site_fract_x
_atom_site_fract_y
_atom_site_fract_z
Zn1 Zn 0.13228(7) 0.106530(18) 0.31659(4)
N1 N 0.2287(4) 0.03835(13) 0.4167(3)
O1 O 0.2301(5) 0.17098(12) 0.4570(2)
C1 C 0.3301(5) -0.11122(14) 0.2764(3)
H1 H 0.3749 -0.0771 0.3104
N2 N -0.0141(4) 0.03401(12) 0.2236(2)
O2 O -0.0573(4) 0.15099(11) 0.3705(2)
C2 C 0.1659(5) -0.01317(16) 0.3799(3)
N3 N -0.0784(5) -0.06415(13) 0.0992(3)
C3 C 0.0633(5) -0.01502(15) 0.2633(3)
C4 C 0.0386(6) -0.06437(16) 0.1955(3)
O3 O -0.3655(6) 0.34241(14) 0.6945(3)
C5 C 0.1569(7) -0.11649(15) 0.2203(3)
C6 C -0.0055(6) 0.22213(15) 0.5069(3)
C7 C 0.1180(6) 0.25432(17) 0.5842(3)
H2 H 0.2440 0.2492 0.5951
C8 C 0.1841(6) -0.05985(17) 0.4483(3)
H3 H 0.1356 -0.0951 0.4217
C9 C 0.3199(6) 0.04388(17) 0.5213(3)
H4 H 0.3661 0.0795 0.5468
C10 C -0.1304(6) 0.03536(16) 0.1219(3)
C11 C 0.0610(7) 0.17900(17) 0.4416(3)
C12 C -0.2192(6) 0.08648(18) 0.0785(3)
H5 H -0.1926 0.1201 0.1178
C13 C -0.1692(6) -0.01486(17) 0.0606(3)
C14 C -0.1901(7) 0.22916(19) 0.4930(3)
H6 H -0.2748 0.2072 0.4424
C15 C -0.1269(7) 0.30172(17) 0.6314(3)
C16 C 0.0572(7) 0.29405(17) 0.6458(3)
H7 H 0.1423 0.3155 0.6970
C17 C 0.3482(6) -0.00046(19) 0.5925(3)
H8 H 0.4156 0.0046 0.6643
C18 C 0.2751(6) -0.05285(18) 0.5559(3)
H9 H 0.2873 -0.0832 0.6036
C19 C 0.4379(7) -0.15528(19) 0.2832(3)
H10 H 0.5611 -0.1515 0.3225
C20 C -0.2976(6) -0.0138(2) -0.0434(3)
H11 H -0.3233 -0.0466 -0.0852
C21 C -0.3426(7) 0.0863(2) -0.0200(4)
H12 H -0.4024 0.1199 -0.0479
C22 C -0.2528(7) 0.2697(2) 0.5553(3)
H13 H -0.3786 0.2747 0.5452
C23 C -0.3824(7) 0.0362(2) -0.0812(4)
H14 H -0.4685 0.0371 -0.1489
N4 N 0.0749(7) -0.16800(17) 0.1702(4)
C24 C 0.1977(8) -0.21402(17) 0.1796(4)
H15 H 0.1550 -0.2488 0.1478
C25 C 0.3791(8) -0.20768(18) 0.2350(4)
H16 H 0.4617 -0.2376 0.2406
O4 O -0.0900(7) 0.37633(15) 0.7617(3)
C26 C -0.1960(10) 0.3440(2) 0.7005(4)
Zn1C Zn -0.36772(7) 0.393470(18) 0.81659(4)
O3C O 0.1345(6) 0.15759(14) 0.1945(3)
O4C O 0.4100(7) 0.12367(15) 0.2617(3)
loop_
_geom_bond_atom_site_label_1
_geom_bond_atom_site_label_2
_geom_bond_site_symmetry_1
_geom_bond_site_symmetry_2
Zn1 N1 1_555 1_555
N1 C2 1_555 1_555
O1 Zn1 1_555 1_555
C1 H1 1_555 1_555
N2 Zn1 1_555 1_555
O2 Zn1 1_555 1_555
C2 C3 1_555 1_555
N3 C4 1_555 1_555
C3 N2 1_555 1_555
C4 C3 1_555 1_555
O3 C26 1_555 1_555
C5 C1 1_555 1_555
C6 C7 1_555 1_555
C7 H2 1_555 1_555
C8 C2 1_555 1_555
H3 C8 1_555 1_555
C9 N1 1_555 1_555
H4 C9 1_555 1_555
C10 N2 1_555 1_555
C11 O1 1_555 1_555
C12 C10 1_555 1_555
H5 C12 1_555 1_555
C13 N3 1_555 1_555
C14 C6 1_555 1_555
H6 C14 1_555 1_555
C15 C16 1_555 1_555
C16 C7 1_555 1_555
H7 C16 1_555 1_555
C17 C9 1_555 1_555
H8 C17 1_555 1_555
C18 C8 1_555 1_555
H9 C18 1_555 1_555
C19 C1 1_555 1_555
H10 C19 1_555 1_555
C20 C13 1_555 1_555
H11 C20 1_555 1_555
C21 C12 1_555 1_555
H12 C21 1_555 1_555
C22 C14 1_555 1_555
H13 C22 1_555 1_555
C23 C20 1_555 1_555
H14 C23 1_555 1_555
N4 C5 1_555 1_555
C24 N4 1_555 1_555
H15 C24 1_555 1_555
C25 C19 1_555 1_555
H16 C25 1_555 1_555
O4 C26 1_555 1_555
C26 C15 1_555 1_555
Zn1C O3 1_555 1_555
O3C Zn1 1_555 1_555
O4C Zn1 1_555 1_555
O2 C11 1_555 1_555
C4 C5 1_555 1_555
C6 C11 1_555 1_555
C10 C13 1_555 1_555
C15 C22 1_555 1_555
C17 C18 1_555 1_555
C21 C23 1_555 1_555
C24 C25 1_555 1_555
O4 Zn1C 1_555 1_555

#END
