
#######################################################################
#
#                 Cambridge Crystallographic Data Centre
#                                CCDC 
#
#######################################################################
#
# If this CIF has been generated from an entry in the Cambridge 
# Structural Database, then it will include bibliographic, chemical, 
# crystal, experimental, refinement or atomic coordinate data resulting 
# from the CCDC's data processing and validation procedures.
#
#######################################################################

data_MIXTAP
_symmetry_cell_setting           monoclinic
_symmetry_space_group_name_H-M   'P 21/n'
_symmetry_Int_Tables_number      14
_space_group_name_Hall           '-P 2yn'
loop_
_symmetry_equiv_pos_site_id
_symmetry_equiv_pos_as_xyz
1 x,y,z
2 1/2-x,1/2+y,1/2-z
3 -x,-y,-z
4 1/2+x,1/2-y,1/2+z
_cell_length_a                   16.767(3)
_cell_length_b                   8.2663(16)
_cell_length_c                   19.495(4)
_cell_angle_alpha                90
_cell_angle_beta                 96.903(4)
_cell_angle_gamma                90
_cell_volume                     2682.44
loop_
_atom_site_label
_atom_site_type_symbol
_atom_site_fract_x
_atom_site_fract_y
_atom_site_fract_z
Zn1 Zn 0.33742(3) -0.13768(6) 0.43853(2)
N1 N 0.40173(19) -0.2687(4) 0.51895(16)
O1 O 0.3465(2) 0.0984(5) 0.52792(19)
C1 C 0.2447(3) 0.2320(7) 0.6175(3)
H1 H 0.2993 0.2556 0.6258
N2 N 0.28748(19) -0.3568(4) 0.39939(17)
C2 C 0.4915(3) -0.4417(7) 0.6202(3)
H2 H 0.5220 -0.5014 0.6543
O2 O 0.2447(2) -0.0337(4) 0.47112(17)
O3 O -0.06967(19) 0.5830(4) 0.89126(17)
N3 N 0.2505(2) -0.2963(5) 0.62007(18)
C3 C 0.1926(3) 0.2950(7) 0.6601(3)
H3 H 0.2126 0.3635 0.6960
O4 O -0.1752(2) 0.5060(4) 0.82238(17)
N4 N 0.1431(2) -0.3878(4) 0.50562(18)
C4 C 0.4087(3) -0.4409(6) 0.6164(3)
H4 H 0.3829 -0.4982 0.6483
C5 C 0.1395(3) -0.2282(7) 0.6806(3)
H5 H 0.1747 -0.1963 0.7188
C6 C 0.1699(3) -0.2854(6) 0.6216(2)
C7 C -0.0465(3) 0.4506(5) 0.7881(2)
C8 C -0.1017(3) 0.5179(6) 0.8363(3)
C9 C 0.2747(3) 0.0643(6) 0.5179(3)
C10 C 0.0563(3) 0.3255(5) 0.6989(2)
C11 C 0.1112(3) 0.2591(6) 0.6510(2)
C12 C 0.3059(3) -0.4125(6) 0.3393(2)
H6 H 0.3337 -0.3449 0.3122
C13 C 0.4820(2) -0.2687(6) 0.5242(2)
H7 H 0.5073 -0.2078 0.4931
C14 C 0.2223(3) -0.6057(6) 0.4157(3)
H8 H 0.1922 -0.6696 0.4423
C15 C -0.0763(3) 0.3901(6) 0.7249(2)
H9 H -0.1315 0.3881 0.7120
C16 C 0.5280(3) -0.3553(6) 0.5740(3)
H10 H 0.5837 -0.3547 0.5761
C17 C 0.2455(2) -0.4532(6) 0.4377(2)
C18 C -0.0256(3) 0.3321(6) 0.6802(2)
H11 H -0.0469 0.2968 0.6366
C19 C 0.2859(3) -0.5652(8) 0.3152(3)
H12 H 0.3007 -0.6010 0.2733
C20 C 0.1161(3) -0.3325(6) 0.5645(2)
C21 C 0.1358(3) 0.1036(6) 0.5520(2)
H13 H 0.1155 0.0398 0.5146
C22 C 0.2436(3) -0.6639(7) 0.3545(3)
H14 H 0.2296 -0.7683 0.3399
C23 C 0.0327(3) -0.3220(6) 0.5683(3)
H15 H -0.0037 -0.3532 0.5309
C24 C 0.0843(3) 0.1651(6) 0.5954(2)
H16 H 0.0297 0.1420 0.5867
C25 C 0.2210(2) -0.3905(5) 0.5033(2)
C26 C 0.0354(3) 0.4473(6) 0.8074(2)
H17 H 0.0567 0.4878 0.8503
C27 C 0.3652(2) -0.3541(6) 0.5647(2)
C28 C 0.2168(3) 0.1355(6) 0.5633(2)
C29 C 0.2760(2) -0.3450(5) 0.5625(2)
C30 C 0.0859(3) 0.3838(6) 0.7632(2)
H18 H 0.1409 0.3804 0.7771
C31 C 0.0593(3) -0.2188(8) 0.6828(3)
H19 H 0.0398 -0.1802 0.7224
C32 C 0.0062(3) -0.2663(7) 0.6267(3)
H20 H -0.0488 -0.2598 0.6291
Zn1C Zn -0.16258(3) 0.63768(6) 0.93853(2)
O3C O 0.43033(19) -0.0830(4) 0.39126(17)
O4C O 0.3248(2) -0.0060(4) 0.32238(17)
O5 O 0.1370(8) -0.0102(16) 0.3418(8)
loop_
_geom_bond_atom_site_label_1
_geom_bond_atom_site_label_2
_geom_bond_site_symmetry_1
_geom_bond_site_symmetry_2
Zn1 N1 1_555 1_555
N1 C13 1_555 1_555
O1 C9 1_555 1_555
C1 H1 1_555 1_555
N2 Zn1 1_555 1_555
C2 H2 1_555 1_555
O2 Zn1 1_555 1_555
O3 C8 1_555 1_555
N3 C6 1_555 1_555
C3 C1 1_555 1_555
H3 C3 1_555 1_555
O4 C8 1_555 1_555
N4 C20 1_555 1_555
C4 C2 1_555 1_555
H4 C4 1_555 1_555
C5 H5 1_555 1_555
C6 C5 1_555 1_555
C7 C8 1_555 1_555
C9 O2 1_555 1_555
C10 C11 1_555 1_555
C11 C3 1_555 1_555
C12 N2 1_555 1_555
H6 C12 1_555 1_555
C13 H7 1_555 1_555
C14 H8 1_555 1_555
C15 C7 1_555 1_555
H9 C15 1_555 1_555
C16 C2 1_555 1_555
H10 C16 1_555 1_555
C17 N2 1_555 1_555
C18 C10 1_555 1_555
H11 C18 1_555 1_555
C19 C12 1_555 1_555
H12 C19 1_555 1_555
C20 C6 1_555 1_555
C21 H13 1_555 1_555
C22 C14 1_555 1_555
H14 C22 1_555 1_555
C23 C20 1_555 1_555
H15 C23 1_555 1_555
C24 C11 1_555 1_555
H16 C24 1_555 1_555
C25 N4 1_555 1_555
C26 C7 1_555 1_555
H17 C26 1_555 1_555
C27 N1 1_555 1_555
C28 C1 1_555 1_555
C29 N3 1_555 1_555
C30 C10 1_555 1_555
H18 C30 1_555 1_555
C31 C5 1_555 1_555
H19 C31 1_555 1_555
C32 C23 1_555 1_555
H20 C32 1_555 1_555
Zn1C O3 1_555 1_555
O3C Zn1 1_555 1_555
O4C Zn1 1_555 1_555
O4 Zn1C 1_555 1_555
C4 C27 1_555 1_555
C9 C28 1_555 1_555
C13 C16 1_555 1_555
C14 C17 1_555 1_555
C15 C18 1_555 1_555
C17 C25 1_555 1_555
C19 C22 1_555 1_555
C21 C24 1_555 1_555
C21 C28 1_555 1_555
C25 C29 1_555 1_555
C26 C30 1_555 1_555
C27 C29 1_555 1_555
C31 C32 1_555 1_555

#END
