
#######################################################################
#
#                 Cambridge Crystallographic Data Centre
#                                CCDC 
#
#######################################################################
#
# If this CIF has been generated from an entry in the Cambridge 
# Structural Database, then it will include bibliographic, chemical, 
# crystal, experimental, refinement or atomic coordinate data resulting 
# from the CCDC's data processing and validation procedures.
#
#######################################################################

data_MIXVUM
_symmetry_cell_setting           tetragonal
_symmetry_space_group_name_H-M   'I 41/a m d'
_symmetry_Int_Tables_number      141
_space_group_name_Hall           '-I 4bd 2'
loop_
_symmetry_equiv_pos_site_id
_symmetry_equiv_pos_as_xyz
1 x,y,z
2 -x,1/2-y,z
3 x,-y,-z
4 -x,1/2+y,-z
5 1/4-y,1/4-x,3/4-z
6 1/4+y,3/4+x,1/4-z
7 1/4+y,1/4-x,3/4+z
8 1/4-y,3/4+x,1/4+z
9 1/2+x,1/2+y,1/2+z
10 1/2-x,-y,1/2+z
11 1/2+x,1/2-y,1/2-z
12 1/2-x,y,1/2-z
13 3/4-y,3/4-x,1/4-z
14 3/4+y,1/4+x,3/4-z
15 3/4+y,3/4-x,1/4+z
16 3/4-y,1/4+x,3/4+z
17 -x,-y,-z
18 x,1/2+y,-z
19 -x,y,z
20 x,1/2-y,z
21 3/4+y,3/4+x,1/4+z
22 3/4-y,1/4-x,3/4+z
23 3/4-y,3/4+x,1/4-z
24 3/4+y,1/4-x,3/4-z
25 1/2-x,1/2-y,1/2-z
26 1/2+x,y,1/2-z
27 1/2-x,1/2+y,1/2+z
28 1/2+x,-y,1/2+z
29 1/4+y,1/4+x,3/4+z
30 1/4-y,3/4-x,1/4+z
31 1/4-y,1/4+x,3/4-z
32 1/4+y,3/4-x,1/4-z
_cell_length_a                   11.5128(2)
_cell_length_b                   11.5128(2)
_cell_length_c                   8.9087(2)
_cell_angle_alpha                90
_cell_angle_beta                 90
_cell_angle_gamma                90
_cell_volume                     1180.8
loop_
_atom_site_label
_atom_site_type_symbol
_atom_site_fract_x
_atom_site_fract_y
_atom_site_fract_z
C1 C 0.2265(4) 0.2500 0.6690(4)
O1 O 0.3005(2) 0.2500 0.5664(3)
O2 O 0.1185(3) 0.2500 0.6551(3)
O3 O 0.2036(6) 0.1080(7) 0.3317(6)
H1 H 0.2500 0.082(4) 0.2500
H2 H 0.2134(19) 0.0366(19) 0.3750
Dy1 Dy 0.5000 0.2500 0.6250
K1 K 0.0000 0.2500 0.3750
C1K C 0.2735(4) 0.2500 0.8310(4)
O1K O 0.1995(2) 0.2500 0.9336(3)
O2K O 0.3815(3) 0.2500 0.8449(3)
O3D O 0.1420(7) 0.0464(6) 0.4183(6)
H1D H 0.168(4) 0.0000 0.5000
C1A C -0.2265(4) 0.2500 0.6690(4)
O1A O -0.3005(2) 0.2500 0.5664(3)
O2A O -0.1185(3) 0.2500 0.6551(3)
O3A O -0.2036(6) 0.3920(7) 0.3317(6)
H1A H -0.2500 0.418(4) 0.2500
H2A H -0.2134(19) 0.4634(19) 0.3750
C1J C -0.2735(4) 0.2500 0.8310(4)
O1J O -0.1995(2) 0.2500 0.9336(3)
O2J O -0.3815(3) 0.2500 0.8449(3)
O3M O -0.1420(7) 0.4536(6) 0.4183(6)
H1M H -0.168(4) 0.5000 0.5000
O3R O -0.2036(6) 0.1080(7) 0.3317(6)
H1R H -0.2500 0.082(4) 0.2500
H2R H -0.2134(19) 0.0366(19) 0.3750
O3W O -0.1420(7) 0.0464(6) 0.4183(6)
H1T H -0.168(4) 0.0000 0.5000
O3S O 0.2036(6) 0.3920(7) 0.3317(6)
H1S H 0.2500 0.418(4) 0.2500
H2S H 0.2134(19) 0.4634(19) 0.3750
O3DA O 0.1420(7) 0.4536(6) 0.4183(6)
H1CA H 0.168(4) 0.5000 0.5000
O1A_2 O 0.6995(2) 0.2500 0.5664(3)
O1E O 0.5000 0.0505(2) 0.6836(3)
O1L O 0.5000 0.4495(2) 0.6836(3)
O2D O 0.0000 0.1315(3) 0.0949(3)
O2F O 0.5000 0.1315(3) 0.4051(3)
O2J_2 O 0.6185(3) 0.2500 0.8449(3)
O2M O 0.0000 0.3685(3) 0.0949(3)
O2O O 0.5000 0.3685(3) 0.4051(3)
O3G O 0.1420(7) -0.0464(6) 0.5817(6)
O3J O -0.2964(6) 0.3920(7) 0.1683(6)
O3K O 0.2964(6) 0.1080(7) 0.1683(6)
O3N O -0.1420(7) 0.5464(6) 0.5817(6)
O3T O -0.1420(7) -0.0464(6) 0.5817(6)
O3X O 0.2964(6) 0.3920(7) 0.1683(6)
O3Y O -0.2964(6) 0.1080(7) 0.1683(6)
O3CA O 0.1420(7) 0.5464(6) 0.5817(6)
Dy1_2 Dy -0.5000 0.2500 0.6250
Dy1G Dy 0.0000 0.2500 0.8750
K1F K -0.5000 0.2500 1.1250
K1F_2 K 0.5000 0.2500 1.1250
loop_
_geom_bond_atom_site_label_1
_geom_bond_atom_site_label_2
_geom_bond_site_symmetry_1
_geom_bond_site_symmetry_2
C1 O1 1_555 1_555
O1 Dy1 1_555 1_555
O2 C1 1_555 1_555
O3 H1 1_555 1_555
H1 O3K 1_555 1_555
H2 O3 1_555 1_555
Dy1 O2K 1_555 1_555
K1 O2 1_555 1_555
C1K C1 1_555 1_555
O1K C1K 1_555 1_555
O2K C1K 1_555 1_555
O3D O3 1_555 1_555
H1D O3D 1_555 1_555
C1A O1A 1_555 1_555
O1A Dy1_2 1_555 1_555
O2A K1 1_555 1_555
O3A K1 1_555 1_555
H1A O3A 1_555 1_555
H2A O3A 1_555 1_555
C1J C1A 1_555 1_555
O1J C1J 1_555 1_555
O2J C1J 1_555 1_555
O3M K1 1_555 1_555
H1M O3M 1_555 1_555
O3R K1 1_555 1_555
H1R O3R 1_555 1_555
H2R O3R 1_555 1_555
O3W K1 1_555 1_555
H1T O3W 1_555 1_555
O3S K1 1_555 1_555
H1S O3S 1_555 1_555
H2S O3S 1_555 1_555
O3DA K1 1_555 1_555
H1CA O3DA 1_555 1_555
O1A_2 Dy1 1_555 1_555
O1E Dy1 1_555 1_555
O1L Dy1 1_555 1_555
O2D K1 1_555 1_555
O2F Dy1 1_555 1_555
O2J_2 Dy1 1_555 1_555
O2M K1 1_555 1_555
O2O Dy1 1_555 1_555
O3G O3D 1_555 1_555
O3J O3A 1_555 1_555
O3K O3 1_555 1_555
O3N O3M 1_555 1_555
O3T O3W 1_555 1_555
O3X O3S 1_555 1_555
O3Y O3R 1_555 1_555
O3CA O3DA 1_555 1_555
Dy1_2 O2J 1_555 1_555
Dy1G O2 1_555 1_555
K1F O2J 1_555 1_555
K1F_2 O2K 1_555 1_555
O3 K1 1_555 1_555
H2 O3D 1_555 1_555
K1 O3D 1_555 1_555
O1K Dy1G 1_555 1_555
H1D O3G 1_555 1_555
C1A O2A 1_555 1_555
O2A Dy1G 1_555 1_555
O3A O3M 1_555 1_555
H1A O3J 1_555 1_555
H2A O3M 1_555 1_555
O1J Dy1G 1_555 1_555
H1M O3N 1_555 1_555
O3R O3W 1_555 1_555
H1R O3Y 1_555 1_555
H2R O3W 1_555 1_555
H1T O3T 1_555 1_555
O3S O3DA 1_555 1_555
H1S O3X 1_555 1_555
H2S O3DA 1_555 1_555
H1CA O3CA 1_555 1_555
O2J_2 K1F_2 1_555 1_555

#END
