
#######################################################################
#
#                 Cambridge Crystallographic Data Centre
#                                CCDC 
#
#######################################################################
#
# If this CIF has been generated from an entry in the Cambridge 
# Structural Database, then it will include bibliographic, chemical, 
# crystal, experimental, refinement or atomic coordinate data resulting 
# from the CCDC's data processing and validation procedures.
#
#######################################################################

data_MIXZIC
_symmetry_cell_setting           orthorhombic
_symmetry_space_group_name_H-M   'C m m a'
_symmetry_Int_Tables_number      67
_space_group_name_Hall           '-C 2a 2'
loop_
_symmetry_equiv_pos_site_id
_symmetry_equiv_pos_as_xyz
1 x,y,z
2 1/2+x,1/2+y,z
3 x,1/2+y,-z
4 x,1/2-y,z
5 -x,y,z
6 1/2+x,y,-z
7 1/2+x,-y,z
8 1/2-x,1/2+y,z
9 -x,-y,-z
10 1/2-x,1/2-y,-z
11 -x,1/2-y,z
12 -x,1/2+y,-z
13 x,-y,-z
14 1/2-x,-y,z
15 1/2-x,y,-z
16 1/2+x,1/2-y,-z
_cell_length_a                   15.4800(10)
_cell_length_b                   15.638(2)
_cell_length_c                   8.0480(10)
_cell_angle_alpha                90
_cell_angle_beta                 90
_cell_angle_gamma                90
_cell_volume                     1948.23
loop_
_atom_site_label
_atom_site_type_symbol
_atom_site_fract_x
_atom_site_fract_y
_atom_site_fract_z
Ni1 Ni 0.0000 0.05907(3) 0.11560(5)
O1 O 0.09200(10) 0.10760(10) -0.0265(2)
O2 O -0.09030(10) -0.00920(10) 0.2250(2)
N1 N 0.0000 0.1718(2) 0.2823(3)
N2 N -0.0788(2) 0.2500 0.4975(4)
C1 C 0.1209(2) 0.0742(2) -0.1568(3)
C2 C 0.1992(2) 0.1155(2) -0.2351(4)
C3 C 0.0000 0.2500 0.1794(6)
C4 C -0.0774(2) 0.1736(2) 0.3915(3)
C5 C 0.0000 0.2500 0.5988(6)
H1 H 0.2140 0.0857 -0.3354
H2 H 0.2469 0.1130 -0.1590
H3 H 0.1865 0.1742 -0.2607
H4 H 0.0507 0.2500 0.1085
H5 H -0.1290 0.1725 0.3234
H6 H -0.0777 0.1229 0.4610
H7 H 0.0000 0.1999 0.6698
O2H O 0.09030(10) 0.00920(10) -0.2250(2)
Ni1H Ni 0.0000 -0.05907(3) -0.11560(5)
O1H O -0.09200(10) -0.10760(10) 0.0265(2)
C1H C -0.1209(2) -0.0742(2) 0.1568(3)
O1D O -0.09200(10) 0.10760(10) -0.0265(2)
C1D C -0.1209(2) 0.0742(2) -0.1568(3)
O2L O -0.09030(10) 0.00920(10) -0.2250(2)
O1L O 0.09200(10) -0.10760(10) 0.0265(2)
C1L C 0.1209(2) -0.0742(2) 0.1568(3)
O2D O 0.09030(10) -0.00920(10) 0.2250(2)
N1C N 0.0000 0.3282(2) 0.2823(3)
Ni1C Ni 0.0000 0.44093(3) 0.11560(5)
C4C C -0.0774(2) 0.3264(2) 0.3915(3)
C4D C 0.0774(2) 0.1736(2) 0.3915(3)
N2D N 0.0788(2) 0.2500 0.4975(4)
C4J C 0.0774(2) 0.3264(2) 0.3915(3)
H5J H 0.1290 0.3275 0.3234
H6J H 0.0777 0.3771 0.4610
H7C H 0.0000 0.3001 0.6698
H5D H 0.1290 0.1725 0.3234
H6D H 0.0777 0.1229 0.4610
H5C H -0.1290 0.3275 0.3234
H6C H -0.0777 0.3771 0.4610
H4D H -0.0507 0.2500 0.1085
C2L C 0.1992(2) -0.1155(2) 0.2351(4)
H1L H 0.2140 -0.0857 0.3354
H2L H 0.2469 -0.1130 0.1590
H3L H 0.1865 -0.1742 0.2607
N1H N 0.0000 -0.1718(2) -0.2823(3)
C2D C -0.1992(2) 0.1155(2) -0.2351(4)
H1D H -0.2140 0.0857 -0.3354
H2D H -0.2469 0.1130 -0.1590
H3D H -0.1865 0.1742 -0.2607
C2H C -0.1992(2) -0.1155(2) 0.2351(4)
H1H H -0.2140 -0.0857 0.3354
H2H H -0.2469 -0.1130 0.1590
H3H H -0.1865 -0.1742 0.2607
loop_
_geom_bond_atom_site_label_1
_geom_bond_atom_site_label_2
_geom_bond_site_symmetry_1
_geom_bond_site_symmetry_2
Ni1 O1 1_555 1_555
O1 C1 1_555 1_555
O2 Ni1 1_555 1_555
N1 Ni1 1_555 1_555
N2 C4 1_555 1_555
C1 C2 1_555 1_555
C2 H1 1_555 1_555
C3 N1 1_555 1_555
C4 N1 1_555 1_555
C5 N2 1_555 1_555
H2 C2 1_555 1_555
H3 C2 1_555 1_555
H4 C3 1_555 1_555
H5 C4 1_555 1_555
H6 C4 1_555 1_555
H7 C5 1_555 1_555
O2H C1 1_555 1_555
Ni1H O2H 1_555 1_555
O1H Ni1H 1_555 1_555
C1H O2 1_555 1_555
O1D Ni1 1_555 1_555
C1D O1D 1_555 1_555
O2L Ni1H 1_555 1_555
O1L Ni1H 1_555 1_555
C1L O1L 1_555 1_555
O2D Ni1 1_555 1_555
N1C C3 1_555 1_555
Ni1C N1C 1_555 1_555
C4C N2 1_555 1_555
C4D N1 1_555 1_555
N2D C5 1_555 1_555
C4J N1C 1_555 1_555
H5J C4J 1_555 1_555
H6J C4J 1_555 1_555
H7C C5 1_555 1_555
H5D C4D 1_555 1_555
H6D C4D 1_555 1_555
H5C C4C 1_555 1_555
H6C C4C 1_555 1_555
H4D C3 1_555 1_555
C2L C1L 1_555 1_555
H1L C2L 1_555 1_555
H2L C2L 1_555 1_555
H3L C2L 1_555 1_555
N1H Ni1H 1_555 1_555
C2D C1D 1_555 1_555
H1D C2D 1_555 1_555
H2D C2D 1_555 1_555
H3D C2D 1_555 1_555
C2H C1H 1_555 1_555
H1H C2H 1_555 1_555
H2H C2H 1_555 1_555
H3H C2H 1_555 1_555
O1H C1H 1_555 1_555
C1D O2L 1_555 1_555
C1L O2D 1_555 1_555
N1C C4C 1_555 1_555
C4D N2D 1_555 1_555
N2D C4J 1_555 1_555

#END
