
#######################################################################
#
#                 Cambridge Crystallographic Data Centre
#                                CCDC 
#
#######################################################################
#
# If this CIF has been generated from an entry in the Cambridge 
# Structural Database, then it will include bibliographic, chemical, 
# crystal, experimental, refinement or atomic coordinate data resulting 
# from the CCDC's data processing and validation procedures.
#
#######################################################################

data_MIYLEM
_symmetry_cell_setting           monoclinic
_symmetry_space_group_name_H-M   'C 2/c'
_symmetry_Int_Tables_number      15
_space_group_name_Hall           '-C 2yn'
loop_
_symmetry_equiv_pos_site_id
_symmetry_equiv_pos_as_xyz
1 x,y,z
2 1/2+x,1/2+y,z
3 -x,y,1/2-z
4 1/2-x,1/2+y,1/2-z
5 -x,-y,-z
6 1/2-x,1/2-y,-z
7 x,-y,1/2+z
8 1/2+x,1/2-y,1/2+z
_cell_length_a                   30.6840(1)
_cell_length_b                   10.9206(2)
_cell_length_c                   17.4967(3)
_cell_angle_alpha                90
_cell_angle_beta                 111.931(1)
_cell_angle_gamma                90
_cell_volume                     5438.65
loop_
_atom_site_label
_atom_site_type_symbol
_atom_site_fract_x
_atom_site_fract_y
_atom_site_fract_z
Tb1 Tb 0.241362(18) 1.30842(5) 0.81950(3)
S1 S 0.13445(10) 1.0521(3) 0.36364(17)
O1 O 0.2270(3) 1.3903(7) 0.6822(4)
O3 O 0.2057(3) 1.1980(7) 0.6828(4)
O4 O 0.2212(3) 1.5902(7) 0.4273(4)
O5 O 0.2114(3) 1.4803(7) 0.3176(4)
O6 O 0.1568(5) 0.9472(9) 0.4129(6)
O7 O 0.0864(3) 1.0665(11) 0.3523(7)
O8 O 0.1431(4) 1.0562(10) 0.2880(6)
O9 O 0.3058(3) 1.4497(7) 0.8345(5)
H2 H 0.318(4) 1.428(13) 0.797(6)
H3 H 0.303(5) 1.531(2) 0.841(8)
O10 O 0.1594(3) 1.2851(8) 0.7861(5)
H4 H 0.148(3) 1.298(13) 0.827(4)
H5 H 0.137(3) 1.262(12) 0.737(3)
O11 O 0.3020(3) 1.2648(7) 0.9582(4)
H6 H 0.311(4) 1.322(9) 0.998(6)
H7 H 0.300(5) 1.184(3) 0.967(8)
O12 O 0.2316(3) 1.1045(8) 0.8535(5)
H8 H 0.251(4) 1.042(8) 0.857(8)
H9 H 0.205(2) 1.070(11) 0.852(8)
O13 O 0.3011(2) 1.2004(8) 0.7957(5)
H10 H 0.288(4) 1.136(7) 0.763(7)
H11 H 0.328(2) 1.173(12) 0.834(6)
C1 C 0.1979(3) 1.2862(9) 0.5521(6)
C2 C 0.2072(4) 1.3852(10) 0.5122(6)
H12 H 0.2204 1.4555 0.5418
C3 C 0.1971(4) 1.3814(10) 0.4279(6)
C4 C 0.1754(4) 1.2788(11) 0.3829(6)
H13 H 0.1684 1.2758 0.3264
C5 C 0.1642(3) 1.1815(10) 0.4222(6)
C6 C 0.1761(4) 1.1823(11) 0.5071(6)
H14 H 0.1696 1.1149 0.5336
C7 C 0.2101(4) 1.2915(11) 0.6432(6)
C8 C 0.2108(4) 1.4899(10) 0.3894(7)
Tb1F Tb 0.241362(18) 1.69158(5) 1.31950(3)
Tb1F_2 Tb 0.241362(18) 1.69158(5) 0.31950(3)
S1F S 0.13445(10) 1.9479(3) 0.86364(17)
O1F O 0.2270(3) 1.6097(7) 1.1822(4)
O3F O 0.2057(3) 1.8020(7) 1.1828(4)
O4F O 0.2212(3) 1.4098(7) 0.9273(4)
O4_2 O 0.2212(3) 1.5902(7) 1.4273(4)
O5F O 0.2114(3) 1.5197(7) 0.8176(4)
O5_2 O 0.2114(3) 1.4803(7) 1.3176(4)
O6F O 0.1568(5) 2.0528(9) 0.9129(6)
O7F O 0.0864(3) 1.9335(11) 0.8523(7)
O8F O 0.1431(4) 1.9438(10) 0.7880(6)
O9F O 0.3058(3) 1.5503(7) 1.3345(5)
H2F H 0.318(4) 1.572(13) 1.297(6)
H3F H 0.303(5) 1.469(2) 1.341(8)
O10F O 0.1594(3) 1.7149(8) 1.2861(5)
H4F H 0.148(3) 1.702(13) 1.327(4)
H5F H 0.137(3) 1.738(12) 1.237(3)
O11F O 0.3020(3) 1.7352(7) 1.4582(4)
H6F H 0.311(4) 1.678(9) 1.498(6)
H7F H 0.300(5) 1.816(3) 1.467(8)
O12F O 0.2316(3) 1.8955(8) 1.3535(5)
H8F H 0.251(4) 1.958(8) 1.357(8)
H9F H 0.205(2) 1.930(11) 1.352(8)
O13F O 0.3011(2) 1.7996(8) 1.2957(5)
H10F H 0.288(4) 1.864(7) 1.263(7)
H11F H 0.328(2) 1.827(12) 1.334(6)
C1F C 0.1979(3) 1.7138(9) 1.0521(6)
C2F C 0.2072(4) 1.6148(10) 1.0122(6)
H12F H 0.2204 1.5445 1.0418
C3F C 0.1971(4) 1.6186(10) 0.9279(6)
C4F C 0.1754(4) 1.7212(11) 0.8829(6)
H13F H 0.1684 1.7242 0.8264
C5F C 0.1642(3) 1.8185(10) 0.9222(6)
C6F C 0.1761(4) 1.8177(11) 1.0071(6)
H14F H 0.1696 1.8851 1.0336
C7F C 0.2101(4) 1.7085(11) 1.1432(6)
C8F C 0.2108(4) 1.5101(10) 0.8894(7)
N1 N 0.1064(5) 0.3555(14) 0.1244(8)
N2 N -0.1001(4) 0.6151(15) 0.1432(9)
C9 C 0.0210(5) 0.4578(14) 0.1165(8)
C10 C 0.0566(5) 0.5280(16) 0.1108(11)
H15 H 0.0525 0.6122 0.1041
C11 C 0.0982(5) 0.4764(19) 0.1147(12)
H16 H 0.1216 0.5271 0.1105
C12 C 0.0720(5) 0.2858(16) 0.1260(11)
H17 H 0.0767 0.2015 0.1293
C13 C 0.0293(6) 0.3301(17) 0.1231(11)
H18 H 0.0062 0.2766 0.1254
C14 C -0.0221(5) 0.5067(13) 0.1214(9)
C15 C -0.0375(5) 0.6248(16) 0.0933(10)
H19 H -0.0219 0.6703 0.0665
C16 C -0.0764(6) 0.6743(18) 0.1054(12)
H20 H -0.0860 0.7529 0.0860
C17 C -0.0859(5) 0.503(2) 0.1685(10)
H21 H -0.1025 0.4590 0.1945
C18 C -0.0482(5) 0.4458(16) 0.1590(10)
H22 H -0.0403 0.3661 0.1778
N3 N 0.0853(4) 0.8384(12) 0.1640(8)
C19 C 0.0886(5) 0.8505(19) 0.0926(12)
H23 H 0.1141 0.8139 0.0849
C20 C 0.0565(6) 0.9147(19) 0.0265(11)
H24 H 0.0617 0.9218 -0.0224
C21 C 0.0174(4) 0.9674(12) 0.0327(8)
C22 C 0.0135(5) 0.9503(16) 0.1086(9)
H25 H -0.0125 0.9813 0.1174
C23 C 0.0484(6) 0.8866(17) 0.1723(10)
H26 H 0.0451 0.8785 0.2227
N3D N -0.0853(4) 1.1616(12) -0.1640(8)
C19D C -0.0886(5) 1.1495(19) -0.0926(12)
H23D H -0.1141 1.1861 -0.0849
C20D C -0.0565(6) 1.0853(19) -0.0265(11)
H24D H -0.0617 1.0782 0.0224
C21D C -0.0174(4) 1.0326(12) -0.0327(8)
C22D C -0.0135(5) 1.0497(16) -0.1086(9)
H25D H 0.0125 1.0187 -0.1174
C23D C -0.0484(6) 1.1134(17) -0.1723(10)
H26D H -0.0451 1.1215 -0.2227
O2 O 0.0000 0.170(2) 0.2500
H1 H 0.029(3) 0.14(2) 0.279(13)
H1B H -0.029(3) 0.14(2) 0.221(13)
loop_
_geom_bond_atom_site_label_1
_geom_bond_atom_site_label_2
_geom_bond_site_symmetry_1
_geom_bond_site_symmetry_2
Tb1 O1 1_555 1_555
S1 O6 1_555 1_555
N1 C11 1_555 1_555
N2 C16 1_555 1_555
N3 C19 1_555 1_555
O1 C7 1_555 1_555
O2 H1 1_555 1_555
O3 Tb1 1_555 1_555
O4 C8 1_555 1_555
O5 C8 1_555 1_555
O7 S1 1_555 1_555
O8 S1 1_555 1_555
O9 Tb1 1_555 1_555
H2 O9 1_555 1_555
H3 O9 1_555 1_555
O10 Tb1 1_555 1_555
H4 O10 1_555 1_555
H5 O10 1_555 1_555
O11 Tb1 1_555 1_555
H6 O11 1_555 1_555
H7 O11 1_555 1_555
O12 Tb1 1_555 1_555
H8 O12 1_555 1_555
H9 O12 1_555 1_555
O13 Tb1 1_555 1_555
H10 O13 1_555 1_555
H11 O13 1_555 1_555
C1 C2 1_555 1_555
C2 H12 1_555 1_555
C3 C2 1_555 1_555
C4 C3 1_555 1_555
H13 C4 1_555 1_555
C5 S1 1_555 1_555
C6 C1 1_555 1_555
H14 C6 1_555 1_555
C7 O3 1_555 1_555
C8 C3 1_555 1_555
C9 C10 1_555 1_555
C10 H15 1_555 1_555
C11 C10 1_555 1_555
H16 C11 1_555 1_555
C12 N1 1_555 1_555
H17 C12 1_555 1_555
C13 C9 1_555 1_555
H18 C13 1_555 1_555
C14 C9 1_555 1_555
C15 C14 1_555 1_555
H19 C15 1_555 1_555
C16 C15 1_555 1_555
H20 C16 1_555 1_555
C17 N2 1_555 1_555
H21 C17 1_555 1_555
C18 C14 1_555 1_555
H22 C18 1_555 1_555
C19 H23 1_555 1_555
C20 C19 1_555 1_555
H24 C20 1_555 1_555
C21 C20 1_555 1_555
C22 C21 1_555 1_555
H25 C22 1_555 1_555
C23 N3 1_555 1_555
H26 C23 1_555 1_555
Tb1F O1F 1_555 1_555
Tb1F_2 O4 1_555 1_555
S1F O6F 1_555 1_555
N3D C19D 1_555 1_555
O1F C7F 1_555 1_555
H1B O2 1_555 1_555
O3F Tb1F 1_555 1_555
O4F Tb1 1_555 1_555
O4_2 Tb1F 1_555 1_555
O5F Tb1 1_555 1_555
O5_2 Tb1F 1_555 1_555
O7F S1F 1_555 1_555
O8F S1F 1_555 1_555
O9F Tb1F 1_555 1_555
H2F O9F 1_555 1_555
H3F O9F 1_555 1_555
O10F Tb1F 1_555 1_555
H4F O10F 1_555 1_555
H5F O10F 1_555 1_555
O11F Tb1F 1_555 1_555
H6F O11F 1_555 1_555
H7F O11F 1_555 1_555
O12F Tb1F 1_555 1_555
H8F O12F 1_555 1_555
H9F O12F 1_555 1_555
O13F Tb1F 1_555 1_555
H10F O13F 1_555 1_555
H11F O13F 1_555 1_555
C1F C2F 1_555 1_555
C2F H12F 1_555 1_555
C3F C2F 1_555 1_555
C4F C3F 1_555 1_555
H13F C4F 1_555 1_555
C5F S1F 1_555 1_555
C6F C1F 1_555 1_555
H14F C6F 1_555 1_555
C7F O3F 1_555 1_555
C8F O4F 1_555 1_555
C19D H23D 1_555 1_555
C20D C19D 1_555 1_555
H24D C20D 1_555 1_555
C21D C21 1_555 1_555
C22D C21D 1_555 1_555
H25D C22D 1_555 1_555
C23D N3D 1_555 1_555
H26D C23D 1_555 1_555
O5 Tb1F_2 1_555 1_555
C1 C7 1_555 1_555
C4 C5 1_555 1_555
C5 C6 1_555 1_555
C12 C13 1_555 1_555
C17 C18 1_555 1_555
C22 C23 1_555 1_555
O5F C8F 1_555 1_555
C1F C7F 1_555 1_555
C3F C8F 1_555 1_555
C4F C5F 1_555 1_555
C5F C6F 1_555 1_555
C20D C21D 1_555 1_555
C22D C23D 1_555 1_555

#END
