
#######################################################################
#
#                 Cambridge Crystallographic Data Centre
#                                CCDC 
#
#######################################################################
#
# If this CIF has been generated from an entry in the Cambridge 
# Structural Database, then it will include bibliographic, chemical, 
# crystal, experimental, refinement or atomic coordinate data resulting 
# from the CCDC's data processing and validation procedures.
#
#######################################################################

data_MIYMOW
_symmetry_cell_setting           monoclinic
_symmetry_space_group_name_H-M   'P 2/c'
_symmetry_Int_Tables_number      13
_space_group_name_Hall           '-P 2yc'
loop_
_symmetry_equiv_pos_site_id
_symmetry_equiv_pos_as_xyz
1 x,y,z
2 x,-y,1/2+z
3 -x,-y,-z
4 -x,y,1/2-z
_cell_length_a                   10.340(2)
_cell_length_b                   10.525(2)
_cell_length_c                   13.891(2)
_cell_angle_alpha                90
_cell_angle_beta                 98.310(10)
_cell_angle_gamma                90
_cell_volume                     1495.86
loop_
_atom_site_label
_atom_site_type_symbol
_atom_site_fract_x
_atom_site_fract_y
_atom_site_fract_z
Mn1 Mn 0.31726(4) 0.25556(4) 0.12762(3)
N1 N 0.1321(2) 0.1386(2) 0.12734(16)
N2 N 0.3773(2) 0.0483(2) 0.12378(17)
C1 C 0.0129(3) 0.1826(3) 0.1303(2)
C2 C -0.0967(3) 0.1049(4) 0.1300(2)
C3 C -0.0815(3) -0.0231(4) 0.1265(2)
C4 C 0.0442(3) -0.0743(3) 0.1243(2)
C5 C 0.0680(4) -0.2077(3) 0.1218(2)
C6 C 0.1896(4) -0.2527(3) 0.1191(2)
C7 C 0.2984(3) -0.1688(3) 0.1180(2)
C8 C 0.4261(4) -0.2106(4) 0.1138(3)
C9 C 0.5250(4) -0.1253(4) 0.1160(3)
C10 C 0.4971(3) 0.0037(4) 0.1219(2)
C11 C 0.2781(3) -0.0371(3) 0.12222(19)
C12 C 0.1481(3) 0.0103(2) 0.12446(19)
O1 O 0.2508(2) 0.30119(19) -0.03255(14)
O2 O 0.2050(2) 0.43076(19) 0.08147(14)
C13 C 0.2084(3) 0.4064(3) -0.0066(2)
C14 C 0.1583(3) 0.5058(3) -0.0815(2)
C15 C 0.1989(3) 0.4888(3) -0.1811(2)
C16 C 0.3457(3) 0.5034(3) -0.1794(3)
C17 C 0.3982(3) 0.6381(3) -0.1696(2)
O3 O 0.5028(2) 0.6556(3) -0.11424(18)
O4 O 0.3363(2) 0.72440(19) -0.21953(15)
H1 H 0.007(3) 0.271(3) 0.134(2)
H2 H -0.179(3) 0.144(3) 0.134(2)
H3 H -0.153(4) -0.075(3) 0.125(2)
H4 H 0.005(4) -0.261(3) 0.123(3)
H5 H 0.206(4) -0.334(4) 0.114(2)
H6 H 0.443(3) -0.296(3) 0.105(2)
H7 H 0.615(4) -0.150(4) 0.109(3)
H8 H 0.563(3) 0.066(3) 0.123(2)
H9 H 0.069(3) 0.507(3) -0.090(2)
H10 H 0.191(3) 0.598(3) -0.059(2)
H11 H 0.152(4) 0.550(4) -0.228(3)
H12 H 0.173(3) 0.398(4) -0.201(2)
H13 H 0.369(4) 0.467(4) -0.245(3)
H14 H 0.390(3) 0.460(3) -0.127(3)
O3B O 0.4972(2) 0.3444(3) 0.11424(18)
O4A O 0.3363(2) 0.27560(19) 0.28047(15)
Mn1B Mn 0.68274(4) 0.74444(4) -0.12762(3)
Mn1A Mn 0.31726(4) 0.74444(4) -0.37238(3)
loop_
_geom_bond_atom_site_label_1
_geom_bond_atom_site_label_2
_geom_bond_site_symmetry_1
_geom_bond_site_symmetry_2
Mn1 N1 1_555 1_555
N1 C1 1_555 1_555
N2 Mn1 1_555 1_555
C1 C2 1_555 1_555
C2 C3 1_555 1_555
C3 C4 1_555 1_555
C4 C5 1_555 1_555
C5 C6 1_555 1_555
C6 C7 1_555 1_555
C7 C8 1_555 1_555
C8 C9 1_555 1_555
C9 C10 1_555 1_555
C10 N2 1_555 1_555
C11 N2 1_555 1_555
C12 N1 1_555 1_555
O1 Mn1 1_555 1_555
O2 Mn1 1_555 1_555
C13 O1 1_555 1_555
C14 C13 1_555 1_555
C15 C14 1_555 1_555
C16 C15 1_555 1_555
C17 C16 1_555 1_555
O3 C17 1_555 1_555
O4 C17 1_555 1_555
H1 C1 1_555 1_555
H2 C2 1_555 1_555
H3 C3 1_555 1_555
H4 C5 1_555 1_555
H5 C6 1_555 1_555
H6 C8 1_555 1_555
H7 C9 1_555 1_555
H8 C10 1_555 1_555
H9 C14 1_555 1_555
H10 C14 1_555 1_555
H11 C15 1_555 1_555
H12 C15 1_555 1_555
H13 C16 1_555 1_555
H14 C16 1_555 1_555
O3B Mn1 1_555 1_555
O4A Mn1 1_555 1_555
Mn1B O3 1_555 1_555
Mn1A O4 1_555 1_555
C4 C12 1_555 1_555
C7 C11 1_555 1_555
C11 C12 1_555 1_555
O2 C13 1_555 1_555

#END
