
#######################################################################
#
#                 Cambridge Crystallographic Data Centre
#                                CCDC 
#
#######################################################################
#
# If this CIF has been generated from an entry in the Cambridge 
# Structural Database, then it will include bibliographic, chemical, 
# crystal, experimental, refinement or atomic coordinate data resulting 
# from the CCDC's data processing and validation procedures.
#
#######################################################################

data_MIYMUD
_symmetry_cell_setting           triclinic
_symmetry_space_group_name_H-M   'P -1'
_symmetry_Int_Tables_number      2
_space_group_name_Hall           '-P 1'
loop_
_symmetry_equiv_pos_site_id
_symmetry_equiv_pos_as_xyz
1 x,y,z
2 -x,-y,-z
_cell_length_a                   10.245(3)
_cell_length_b                   11.467(3)
_cell_length_c                   12.430(4)
_cell_angle_alpha                68.915(5)
_cell_angle_beta                 67.163(4)
_cell_angle_gamma                71.373(4)
_cell_volume                     1227.95
loop_
_atom_site_label
_atom_site_type_symbol
_atom_site_fract_x
_atom_site_fract_y
_atom_site_fract_z
O7 O 0.5203(4) 0.3443(4) 0.2419(3)
H24 H 0.4716 0.3792 0.2994
H25 H 0.4692 0.2945 0.2496
C1 C 0.2280(3) 0.7455(3) 0.4318(3)
C2 C 0.3906(3) 0.7044(2) 0.4080(2)
C3 C 0.4622(3) 0.7557(3) 0.4474(3)
H1 H 0.4115 0.8136 0.4938
C4 C 0.6131(3) 0.7189(2) 0.4163(2)
C5 C 0.6864(3) 0.6348(3) 0.3480(2)
H2 H 0.7869 0.6126 0.3272
C6 C 0.6173(3) 0.5823(3) 0.3090(2)
C7 C 0.4642(3) 0.6163(3) 0.3415(3)
H3 H 0.4140 0.5797 0.3183
C8 C 0.6905(3) 0.7750(3) 0.4602(3)
C9 C -0.1061(3) 0.5491(2) 0.6447(2)
H4 H -0.1231 0.5401 0.5802
C10 C -0.1218(3) 0.4529(2) 0.7493(2)
H5 H -0.1454 0.3791 0.7536
C11 C -0.1031(3) 0.4639(2) 0.8480(3)
C12 C -0.0602(3) 0.5710(3) 0.8333(2)
H6 H -0.0399 0.5800 0.8963
C13 C -0.0469(3) 0.6655(3) 0.7264(2)
H7 H -0.0225 0.7395 0.7205
C14 C -0.1225(3) 0.3622(3) 0.9634(3)
H8 H -0.2097 0.3328 0.9819
H9 H -0.1352 0.3971 1.0281
C15 C 0.0047(3) 0.2502(3) 0.9587(2)
H10 H 0.0922 0.2810 0.9357
H11 H 0.0142 0.2134 0.8962
C16 C -0.0074(3) 0.1459(3) 1.0778(2)
C17 C 0.1068(3) 0.0562(3) 1.0990(3)
H12 H 0.1957 0.0539 1.0384
C18 C 0.0952(3) -0.0312(3) 1.2072(3)
H13 H 0.1802 -0.0887 1.2169
C19 C -0.1351(3) 0.0388(3) 1.2793(2)
H14 H -0.2235 0.0354 1.3403
C20 C -0.1276(3) 0.1314(3) 1.1703(3)
H15 H -0.2133 0.1876 1.1609
Co1 Co -0.03745(4) 0.80629(4) 0.46561(3)
N1 N -0.0673(2) 0.6562(2) 0.63031(19)
N2 N -0.0178(3) -0.0445(2) 1.2975(2)
O1 O 0.1661(2) 0.69458(18) 0.39718(17)
O2 O 0.15702(19) 0.83272(18) 0.48420(17)
O3 O 0.61861(18) 0.84240(18) 0.53199(16)
O4 O 0.82656(19) 0.75153(17) 0.41926(15)
O5 O 0.6939(2) 0.48914(19) 0.25311(17)
H21 H 0.6690 0.4223 0.3069
O6 O -0.19342(16) 0.92572(15) 0.56674(15)
H22 H -0.1983 1.0128 0.5182
H23 H -0.2857 0.9038 0.5916
Co1_2 Co -0.03745(4) -0.19371(4) 1.46561(3)
Co1_3 Co 0.96255(4) 0.80629(4) 0.46561(3)
N2_2 N -0.0178(3) 0.9555(2) 0.2975(2)
O4_2 O -0.17344(19) 0.75153(17) 0.41926(15)
C21? C 0.4562(6) 0.9353(5) 0.8153(5)
H16? H 0.4495 0.9505 0.7406
C22? C 0.4787(6) 1.0288(6) 0.8466(5)
H17? H 0.4809 1.1054 0.7956
C23? C 0.4972(7) 1.0038(6) 0.9581(6)
H18? H 0.5269 1.0586 0.9868
C24? C 0.4826(6) 0.8860(4) 1.0423(5)
H19? H 0.4710 0.8771 1.1128
C25? C 0.4565(6) 0.7921(6) 1.0110(5)
H20? H 0.4637 0.7168 1.0631
N3? N 0.4426(5) 0.8171(4) 0.8968(4)
loop_
_geom_bond_atom_site_label_1
_geom_bond_atom_site_label_2
_geom_bond_site_symmetry_1
_geom_bond_site_symmetry_2
C1 C2 1_555 1_555
C2 C3 1_555 1_555
C3 H1 1_555 1_555
C4 C3 1_555 1_555
C5 C4 1_555 1_555
H2 C5 1_555 1_555
C6 C5 1_555 1_555
C7 C2 1_555 1_555
H3 C7 1_555 1_555
C8 C4 1_555 1_555
C9 H4 1_555 1_555
C10 C9 1_555 1_555
H5 C10 1_555 1_555
C11 C10 1_555 1_555
C12 C11 1_555 1_555
H6 C12 1_555 1_555
C13 C12 1_555 1_555
H7 C13 1_555 1_555
C14 C11 1_555 1_555
H8 C14 1_555 1_555
H9 C14 1_555 1_555
C15 C14 1_555 1_555
H10 C15 1_555 1_555
H11 C15 1_555 1_555
C16 C15 1_555 1_555
C17 C16 1_555 1_555
H12 C17 1_555 1_555
C18 C17 1_555 1_555
H13 C18 1_555 1_555
C19 H14 1_555 1_555
C20 C16 1_555 1_555
H15 C20 1_555 1_555
Co1 N1 1_555 1_555
N1 C9 1_555 1_555
N2 C18 1_555 1_555
O1 C1 1_555 1_555
O2 C1 1_555 1_555
O3 C8 1_555 1_555
O4 C8 1_555 1_555
O5 C6 1_555 1_555
H21 O5 1_555 1_555
O6 Co1 1_555 1_555
H22 O6 1_555 1_555
H23 O6 1_555 1_555
O7 H24 1_555 1_555
H25 O7 1_555 1_555
Co1_2 N2 1_555 1_555
Co1_3 O4 1_555 1_555
N2_2 Co1 1_555 1_555
O4_2 Co1 1_555 1_555
C6 C7 1_555 1_555
C13 N1 1_555 1_555
C19 C20 1_555 1_555
C19 N2 1_555 1_555
Co1 O1 1_555 1_555
Co1 O2 1_555 1_555

#END
