
#######################################################################
#
#                 Cambridge Crystallographic Data Centre
#                                CCDC 
#
#######################################################################
#
# If this CIF has been generated from an entry in the Cambridge 
# Structural Database, then it will include bibliographic, chemical, 
# crystal, experimental, refinement or atomic coordinate data resulting 
# from the CCDC's data processing and validation procedures.
#
#######################################################################

data_MIYNEN
_symmetry_cell_setting           monoclinic
_symmetry_space_group_name_H-M   'C 2/c'
_symmetry_Int_Tables_number      15
_space_group_name_Hall           '-C 2yn'
loop_
_symmetry_equiv_pos_site_id
_symmetry_equiv_pos_as_xyz
1 x,y,z
2 1/2+x,1/2+y,z
3 x,-y,1/2+z
4 1/2+x,1/2-y,1/2+z
5 -x,-y,-z
6 1/2-x,1/2-y,-z
7 -x,y,1/2-z
8 1/2-x,1/2+y,1/2-z
_cell_length_a                   22.479(2)
_cell_length_b                   9.0670(10)
_cell_length_c                   17.494(3)
_cell_angle_alpha                90
_cell_angle_beta                 103.670(10)
_cell_angle_gamma                90
_cell_volume                     3464.57
loop_
_atom_site_label
_atom_site_type_symbol
_atom_site_fract_x
_atom_site_fract_y
_atom_site_fract_z
Cu1 Cu 0.638549(17) 0.67422(4) 0.51822(2)
N1 N 0.55303(12) 0.7411(3) 0.53025(17)
N2 N 0.66359(14) 0.8278(3) 0.61090(18)
C1 C 0.49832(17) 0.6954(4) 0.4900(2)
H1 H 0.4963 0.6185 0.4543
C2 C 0.44356(16) 0.7587(5) 0.4993(3)
H2 H 0.4061 0.7233 0.4706
C3 C 0.44555(17) 0.8719(5) 0.5505(3)
H3 H 0.4095 0.9152 0.5567
C4 C 0.50264(16) 0.9237(4) 0.5944(2)
C5 C 0.50983(19) 1.0444(5) 0.6486(2)
H4 H 0.4752 1.0917 0.6571
C6 C 0.5657(2) 1.0907(5) 0.6877(2)
H5 H 0.5689 1.1705 0.7219
C7 C 0.62021(17) 1.0193(4) 0.67755(19)
C8 C 0.68014(19) 1.0620(5) 0.7164(2)
H6 H 0.6862 1.1406 0.7515
C9 C 0.72870(18) 0.9880(5) 0.7021(2)
H7 H 0.7683 1.0149 0.7278
C10 C 0.71910(16) 0.8709(5) 0.6486(2)
H8 H 0.7529 0.8215 0.6391
C11 C 0.61487(15) 0.9001(4) 0.62517(19)
C12 C 0.55533(15) 0.8523(4) 0.5826(2)
O1 O 0.72360(12) 0.5775(3) 0.54047(16)
O2 O 0.66476(13) 0.4592(4) 0.60239(19)
C13 C 0.71333(15) 0.4691(4) 0.58107(19)
C14 C 0.76215(18) 0.3506(4) 0.6006(2)
H9 H 0.7483 0.2730 0.6305
H10 H 0.7992 0.3927 0.6334
C15 C 0.7766(2) 0.2845(5) 0.5270(3)
H11 H 0.7926 0.3616 0.4989
H12 H 0.8085 0.2108 0.5427
O3 O 0.60337(13) 0.5411(3) 0.42730(15)
O4 O 0.62890(19) 0.6599(4) 0.32823(19)
C16 C 0.60792(16) 0.5541(5) 0.3564(2)
C17 C 0.5855(3) 0.4225(8) 0.3035(3)
H13 H 0.5982 0.3316 0.3320
H14 H 0.6031 0.4250 0.2580
C18 C 0.5160(4) 0.4282(17) 0.2773(4)
H15 H 0.5030 0.3462 0.3050
H16 H 0.5055 0.5161 0.3029
O5 O 0.65556(16) 0.8530(4) 0.4420(2)
H17 H 0.645(3) 0.797(8) 0.401(4)
H18 H 0.694(4) 0.869(8) 0.448(4)
C15E C 0.7234(2) 0.2155(5) 0.4730(3)
C14E C 0.73785(18) 0.1494(4) 0.3994(2)
C13E C 0.78667(15) 0.0309(4) 0.41893(19)
O1E O 0.77640(12) -0.0775(3) 0.45953(16)
O2E O 0.83524(13) 0.0408(4) 0.39761(19)
H9E H 0.7517 0.2270 0.3695
H10E H 0.7008 0.1073 0.3666
H11E H 0.7074 0.1384 0.5011
H12E H 0.6915 0.2892 0.4573
C18F C 0.4840(4) 0.4282(17) 0.2227(4)
C17F C 0.4145(3) 0.4225(8) 0.1965(3)
C16F C 0.39208(16) 0.5541(5) 0.1436(2)
O3F O 0.39663(13) 0.5411(3) 0.07270(15)
O4F O 0.37110(19) 0.6599(4) 0.17177(19)
H13F H 0.4018 0.3316 0.1680
H14F H 0.3969 0.4250 0.2420
H15F H 0.4970 0.3462 0.1950
H16F H 0.4945 0.5161 0.1971
Cu1E Cu 0.861451(17) -0.17422(4) 0.48178(2)
N1E N 0.94697(12) -0.2411(3) 0.46975(17)
N2E N 0.83641(14) -0.3278(3) 0.38910(18)
C1E C 1.00168(17) -0.1954(4) 0.5100(2)
H1E H 1.0037 -0.1185 0.5457
C2E C 1.05644(16) -0.2587(5) 0.5007(3)
H2E H 1.0939 -0.2233 0.5294
C3E C 1.05445(17) -0.3719(5) 0.4495(3)
H3E H 1.0905 -0.4152 0.4433
C4E C 0.99736(16) -0.4237(4) 0.4056(2)
C5E C 0.99017(19) -0.5444(5) 0.3514(2)
H4E H 1.0248 -0.5917 0.3429
C6E C 0.9343(2) -0.5907(5) 0.3123(2)
H5E H 0.9311 -0.6705 0.2781
C7E C 0.87979(17) -0.5193(4) 0.32245(19)
C8E C 0.81986(19) -0.5620(5) 0.2836(2)
H6E H 0.8138 -0.6406 0.2485
C9E C 0.77130(18) -0.4880(5) 0.2979(2)
H7E H 0.7317 -0.5149 0.2722
C10E C 0.78090(16) -0.3709(5) 0.3514(2)
H8E H 0.7471 -0.3215 0.3609
C11E C 0.88513(15) -0.4001(4) 0.37483(19)
C12E C 0.94467(15) -0.3523(4) 0.4174(2)
O5E O 0.84444(16) -0.3530(4) 0.5580(2)
H17E H 0.855(3) -0.297(8) 0.599(4)
H18E H 0.806(4) -0.369(8) 0.552(4)
Cu1F Cu 0.361451(17) 0.67422(4) -0.01822(2)
O3E O 0.89663(13) -0.0411(3) 0.57270(15)
loop_
_geom_bond_atom_site_label_1
_geom_bond_atom_site_label_2
_geom_bond_site_symmetry_1
_geom_bond_site_symmetry_2
Cu1 N1 1_555 1_555
N1 C1 1_555 1_555
N2 Cu1 1_555 1_555
C1 H1 1_555 1_555
C2 C1 1_555 1_555
H2 C2 1_555 1_555
C3 C2 1_555 1_555
H3 C3 1_555 1_555
C4 C3 1_555 1_555
C5 C4 1_555 1_555
H4 C5 1_555 1_555
C6 C5 1_555 1_555
H5 C6 1_555 1_555
C7 C6 1_555 1_555
C8 C7 1_555 1_555
H6 C8 1_555 1_555
C9 C8 1_555 1_555
H7 C9 1_555 1_555
C10 N2 1_555 1_555
H8 C10 1_555 1_555
C11 N2 1_555 1_555
C12 N1 1_555 1_555
O1 Cu1 1_555 1_555
O2 Cu1 1_555 1_555
C13 O1 1_555 1_555
C14 C13 1_555 1_555
H9 C14 1_555 1_555
H10 C14 1_555 1_555
C15 C14 1_555 1_555
H11 C15 1_555 1_555
H12 C15 1_555 1_555
O3 Cu1 1_555 1_555
O4 C16 1_555 1_555
C16 O3 1_555 1_555
C17 C16 1_555 1_555
H13 C17 1_555 1_555
H14 C17 1_555 1_555
C18 C17 1_555 1_555
H15 C18 1_555 1_555
H16 C18 1_555 1_555
O5 Cu1 1_555 1_555
H17 O5 1_555 1_555
H18 O5 1_555 1_555
C15E C15 1_555 1_555
C14E C15E 1_555 1_555
C13E C14E 1_555 1_555
O1E C13E 1_555 1_555
O2E C13E 1_555 1_555
H9E C14E 1_555 1_555
H10E C14E 1_555 1_555
H11E C15E 1_555 1_555
H12E C15E 1_555 1_555
C18F C18 1_555 1_555
C17F C18F 1_555 1_555
C16F C17F 1_555 1_555
O3F C16F 1_555 1_555
O4F C16F 1_555 1_555
H13F C17F 1_555 1_555
H14F C17F 1_555 1_555
H15F C18F 1_555 1_555
H16F C18F 1_555 1_555
Cu1E O1E 1_555 1_555
N1E Cu1E 1_555 1_555
N2E Cu1E 1_555 1_555
C1E N1E 1_555 1_555
H1E C1E 1_555 1_555
C2E C1E 1_555 1_555
H2E C2E 1_555 1_555
C3E C2E 1_555 1_555
H3E C3E 1_555 1_555
C4E C3E 1_555 1_555
C5E C4E 1_555 1_555
H4E C5E 1_555 1_555
C6E C5E 1_555 1_555
H5E C6E 1_555 1_555
C7E C6E 1_555 1_555
C8E C7E 1_555 1_555
H6E C8E 1_555 1_555
C9E C8E 1_555 1_555
H7E C9E 1_555 1_555
C10E N2E 1_555 1_555
H8E C10E 1_555 1_555
C11E N2E 1_555 1_555
C12E N1E 1_555 1_555
O5E Cu1E 1_555 1_555
H17E O5E 1_555 1_555
H18E O5E 1_555 1_555
Cu1F O3F 1_555 1_555
O3E Cu1E 1_555 1_555
C4 C12 1_555 1_555
C7 C11 1_555 1_555
C9 C10 1_555 1_555
C11 C12 1_555 1_555
O2 C13 1_555 1_555
O2E Cu1E 1_555 1_555
C4E C12E 1_555 1_555
C7E C11E 1_555 1_555
C9E C10E 1_555 1_555
C11E C12E 1_555 1_555

#END
