
#######################################################################
#
#                 Cambridge Crystallographic Data Centre
#                                CCDC 
#
#######################################################################
#
# If this CIF has been generated from an entry in the Cambridge 
# Structural Database, then it will include bibliographic, chemical, 
# crystal, experimental, refinement or atomic coordinate data resulting 
# from the CCDC's data processing and validation procedures.
#
#######################################################################

data_MIYNIR
_symmetry_cell_setting           monoclinic
_symmetry_space_group_name_H-M   'C 2/c'
_symmetry_Int_Tables_number      15
_space_group_name_Hall           '-C 2yn'
loop_
_symmetry_equiv_pos_site_id
_symmetry_equiv_pos_as_xyz
1 x,y,z
2 1/2+x,1/2+y,z
3 x,-y,1/2+z
4 1/2+x,1/2-y,1/2+z
5 -x,-y,-z
6 1/2-x,1/2-y,-z
7 -x,y,1/2-z
8 1/2-x,1/2+y,1/2-z
_cell_length_a                   22.635(3)
_cell_length_b                   9.0520(10)
_cell_length_c                   17.571(3)
_cell_angle_alpha                90
_cell_angle_beta                 103.240(10)
_cell_angle_gamma                90
_cell_volume                     3504.46
loop_
_atom_site_label
_atom_site_type_symbol
_atom_site_fract_x
_atom_site_fract_y
_atom_site_fract_z
Zn1 Zn 0.63766(2) 0.67618(6) 0.51434(3)
N1 N 0.55216(15) 0.7434(4) 0.5316(2)
N2 N 0.66300(15) 0.8344(4) 0.6099(2)
C1 C 0.4980(2) 0.6971(5) 0.4934(3)
H1 H 0.4959 0.6192 0.4584
C2 C 0.4437(2) 0.7597(6) 0.5032(3)
H2 H 0.4065 0.7233 0.4755
C3 C 0.4461(2) 0.8742(6) 0.5535(3)
H3 H 0.4105 0.9175 0.5603
C4 C 0.5025(2) 0.9274(5) 0.5955(2)
C5 C 0.5099(2) 1.0486(6) 0.6486(3)
H4 H 0.4755 1.0971 0.6565
C6 C 0.5651(2) 1.0952(6) 0.6879(3)
H5 H 0.5680 1.1741 0.7225
C7 C 0.6191(2) 1.0250(5) 0.6770(2)
C8 C 0.6778(2) 1.0677(6) 0.7157(3)
H6 H 0.6836 1.1455 0.7512
C9 C 0.7261(2) 0.9943(6) 0.7007(3)
H7 H 0.7652 1.0214 0.7263
C10 C 0.7174(2) 0.8796(6) 0.6475(3)
H8 H 0.7514 0.8320 0.6377
C11 C 0.61371(18) 0.9057(5) 0.6242(2)
C12 C 0.55487(19) 0.8558(5) 0.5832(2)
O1 O 0.72859(14) 0.5842(3) 0.53550(18)
O2 O 0.66240(14) 0.4783(4) 0.58897(18)
C13 C 0.7135(2) 0.4793(5) 0.5742(3)
C14 C 0.7577(2) 0.3535(5) 0.5991(3)
H9 H 0.7396 0.2813 0.6277
H10 H 0.7941 0.3911 0.6340
C15 C 0.7746(3) 0.2787(7) 0.5297(3)
H11 H 0.7968 0.3493 0.5054
H12 H 0.8021 0.1979 0.5492
O3 O 0.60148(15) 0.5426(4) 0.42110(18)
O4 O 0.63133(18) 0.6578(5) 0.32480(19)
C16 C 0.6080(2) 0.5518(6) 0.3521(3)
C17 C 0.5856(3) 0.4217(8) 0.2999(3)
H13 H 0.5987 0.3305 0.3276
H14 H 0.6025 0.4253 0.2540
C18 C 0.5163(5) 0.4252(17) 0.2751(4)
H15 H 0.5048 0.3421 0.3034
H16 H 0.5063 0.5120 0.3019
O5 O 0.65316(18) 0.8433(4) 0.4400(3)
H17 H 0.644(3) 0.803(8) 0.397(4)
H18 H 0.688(3) 0.870(6) 0.451(3)
C15E C 0.7254(3) 0.2213(7) 0.4703(3)
C14E C 0.7423(2) 0.1465(5) 0.4009(3)
C13E C 0.7865(2) 0.0207(5) 0.4258(3)
O1E O 0.77141(14) -0.0842(3) 0.46450(18)
O2E O 0.83760(14) 0.0217(4) 0.41103(18)
H9E H 0.7604 0.2187 0.3723
H10E H 0.7059 0.1089 0.3660
H11E H 0.7032 0.1507 0.4946
H12E H 0.6979 0.3021 0.4508
C18F C 0.4837(5) 0.4252(17) 0.2249(4)
C17F C 0.4144(3) 0.4217(8) 0.2001(3)
C16F C 0.3920(2) 0.5518(6) 0.1479(3)
O3F O 0.39852(15) 0.5426(4) 0.07890(18)
O4F O 0.36867(18) 0.6578(5) 0.17520(19)
H13F H 0.4013 0.3305 0.1724
H14F H 0.3975 0.4253 0.2460
H15F H 0.4952 0.3421 0.1966
H16F H 0.4937 0.5120 0.1981
Zn1E Zn 0.86234(2) -0.17618(6) 0.48566(3)
N1E N 0.94784(15) -0.2434(4) 0.4684(2)
N2E N 0.83700(15) -0.3344(4) 0.3901(2)
C1E C 1.0020(2) -0.1971(5) 0.5066(3)
H1E H 1.0041 -0.1192 0.5416
C2E C 1.0563(2) -0.2597(6) 0.4968(3)
H2E H 1.0935 -0.2233 0.5245
C3E C 1.0539(2) -0.3742(6) 0.4465(3)
H3E H 1.0895 -0.4175 0.4397
C4E C 0.9975(2) -0.4274(5) 0.4045(2)
C5E C 0.9901(2) -0.5486(6) 0.3514(3)
H4E H 1.0245 -0.5971 0.3435
C6E C 0.9349(2) -0.5952(6) 0.3121(3)
H5E H 0.9320 -0.6741 0.2775
C7E C 0.8809(2) -0.5250(5) 0.3230(2)
C8E C 0.8222(2) -0.5677(6) 0.2843(3)
H6E H 0.8164 -0.6455 0.2488
C9E C 0.7739(2) -0.4943(6) 0.2993(3)
H7E H 0.7348 -0.5214 0.2737
C10E C 0.7826(2) -0.3796(6) 0.3525(3)
H8E H 0.7486 -0.3320 0.3623
C11E C 0.88629(18) -0.4057(5) 0.3758(2)
C12E C 0.94513(19) -0.3558(5) 0.4168(2)
O5E O 0.84684(18) -0.3433(4) 0.5600(3)
H17E H 0.856(3) -0.303(8) 0.603(4)
H18E H 0.812(3) -0.370(6) 0.549(3)
Zn1F Zn 0.36234(2) 0.67618(6) -0.01434(3)
O3E O 0.89852(15) -0.0426(4) 0.57890(18)
loop_
_geom_bond_atom_site_label_1
_geom_bond_atom_site_label_2
_geom_bond_site_symmetry_1
_geom_bond_site_symmetry_2
Zn1 N1 1_555 1_555
N1 C1 1_555 1_555
N2 Zn1 1_555 1_555
C1 H1 1_555 1_555
C2 C1 1_555 1_555
H2 C2 1_555 1_555
C3 C2 1_555 1_555
H3 C3 1_555 1_555
C4 C3 1_555 1_555
C5 C4 1_555 1_555
H4 C5 1_555 1_555
C6 C5 1_555 1_555
H5 C6 1_555 1_555
C7 C6 1_555 1_555
C8 C7 1_555 1_555
H6 C8 1_555 1_555
C9 C8 1_555 1_555
H7 C9 1_555 1_555
C10 N2 1_555 1_555
H8 C10 1_555 1_555
C11 N2 1_555 1_555
C12 N1 1_555 1_555
O1 Zn1 1_555 1_555
O2 Zn1 1_555 1_555
C13 O1 1_555 1_555
C14 C13 1_555 1_555
H9 C14 1_555 1_555
H10 C14 1_555 1_555
C15 C14 1_555 1_555
H11 C15 1_555 1_555
H12 C15 1_555 1_555
O3 Zn1 1_555 1_555
O4 C16 1_555 1_555
C16 O3 1_555 1_555
C17 C16 1_555 1_555
H13 C17 1_555 1_555
H14 C17 1_555 1_555
C18 C17 1_555 1_555
H15 C18 1_555 1_555
H16 C18 1_555 1_555
O5 Zn1 1_555 1_555
H17 O5 1_555 1_555
H18 O5 1_555 1_555
C15E C15 1_555 1_555
C14E C15E 1_555 1_555
C13E C14E 1_555 1_555
O1E C13E 1_555 1_555
O2E C13E 1_555 1_555
H9E C14E 1_555 1_555
H10E C14E 1_555 1_555
H11E C15E 1_555 1_555
H12E C15E 1_555 1_555
C18F C18 1_555 1_555
C17F C18F 1_555 1_555
C16F C17F 1_555 1_555
O3F C16F 1_555 1_555
O4F C16F 1_555 1_555
H13F C17F 1_555 1_555
H14F C17F 1_555 1_555
H15F C18F 1_555 1_555
H16F C18F 1_555 1_555
Zn1E O1E 1_555 1_555
N1E Zn1E 1_555 1_555
N2E Zn1E 1_555 1_555
C1E N1E 1_555 1_555
H1E C1E 1_555 1_555
C2E C1E 1_555 1_555
H2E C2E 1_555 1_555
C3E C2E 1_555 1_555
H3E C3E 1_555 1_555
C4E C3E 1_555 1_555
C5E C4E 1_555 1_555
H4E C5E 1_555 1_555
C6E C5E 1_555 1_555
H5E C6E 1_555 1_555
C7E C6E 1_555 1_555
C8E C7E 1_555 1_555
H6E C8E 1_555 1_555
C9E C8E 1_555 1_555
H7E C9E 1_555 1_555
C10E N2E 1_555 1_555
H8E C10E 1_555 1_555
C11E N2E 1_555 1_555
C12E N1E 1_555 1_555
O5E Zn1E 1_555 1_555
H17E O5E 1_555 1_555
H18E O5E 1_555 1_555
Zn1F O3F 1_555 1_555
O3E Zn1E 1_555 1_555
C4 C12 1_555 1_555
C7 C11 1_555 1_555
C9 C10 1_555 1_555
C11 C12 1_555 1_555
O2 C13 1_555 1_555
O2E Zn1E 1_555 1_555
C4E C12E 1_555 1_555
C7E C11E 1_555 1_555
C9E C10E 1_555 1_555
C11E C12E 1_555 1_555

#END
