
#######################################################################
#
#                 Cambridge Crystallographic Data Centre
#                                CCDC 
#
#######################################################################
#
# If this CIF has been generated from an entry in the Cambridge 
# Structural Database, then it will include bibliographic, chemical, 
# crystal, experimental, refinement or atomic coordinate data resulting 
# from the CCDC's data processing and validation procedures.
#
#######################################################################

data_MIYSIX
_symmetry_cell_setting           monoclinic
_symmetry_space_group_name_H-M   'C 2/c'
_symmetry_Int_Tables_number      15
_space_group_name_Hall           '-C 2yn'
loop_
_symmetry_equiv_pos_site_id
_symmetry_equiv_pos_as_xyz
1 x,y,z
2 1/2+x,1/2+y,z
3 -x,y,1/2-z
4 1/2-x,1/2+y,1/2-z
5 -x,-y,-z
6 1/2-x,1/2-y,-z
7 x,-y,1/2+z
8 1/2+x,1/2-y,1/2+z
_cell_length_a                   16.447(2)
_cell_length_b                   6.8547(8)
_cell_length_c                   22.978(3)
_cell_angle_alpha                90
_cell_angle_beta                 103.066(2)
_cell_angle_gamma                90
_cell_volume                     2523.45
loop_
_atom_site_label
_atom_site_type_symbol
_atom_site_fract_x
_atom_site_fract_y
_atom_site_fract_z
Hg1 Hg 0.0000 0.09981(7) 0.2500
I1 I 0.03796(4) -0.03690(10) 0.15224(3)
N1 N 0.1020(4) 0.3477(9) 0.2857(3)
C1 C 0.1304(5) 0.3664(11) 0.3440(4)
H1 H 0.1072 0.2882 0.3690
C2 C 0.1926(6) 0.6025(13) 0.2722(4)
H2 H 0.2109 0.6880 0.2464
C3 C 0.1326(6) 0.4657(13) 0.2504(4)
H3 H 0.1127 0.4554 0.2093
N2 N 0.1623(4) 0.4706(8) 0.4662(3)
C4 C 0.1928(5) 0.4955(11) 0.3699(4)
C5 C 0.2221(5) 0.5022(10) 0.4359(4)
C6 C 0.1882(6) 0.4739(10) 0.5253(4)
C7 C 0.3045(5) 0.5349(10) 0.4645(4)
H4 H 0.3457 0.5562 0.4434
C8 C 0.2246(5) 0.6111(11) 0.3314(4)
H5 H 0.2685 0.6957 0.3464
S1 S 0.11508(15) 0.4447(3) 0.56976(10)
N3 N 0.2652(5) 0.5047(9) 0.5575(3)
C9 C 0.3221(6) 0.5341(10) 0.5260(4)
H6 H 0.3769 0.5554 0.5464
C10 C 0.0178(5) 0.4085(10) 0.5147(4)
H7 H 0.0276 0.3185 0.4844
H8 H -0.0226 0.3490 0.5341
Hg1F Hg 0.0000 0.90019(7) 0.7500
I1B I -0.03796(4) -0.03690(10) 0.34776(3)
N1D N -0.1020(4) 0.6523(9) 0.7143(3)
N1B N -0.1020(4) 0.3477(9) 0.2143(3)
C1D C -0.1304(5) 0.6336(11) 0.6560(4)
H1D H -0.1072 0.7118 0.6310
C2D C -0.1926(6) 0.3975(13) 0.7278(4)
H2D H -0.2109 0.3120 0.7536
C3D C -0.1326(6) 0.5343(13) 0.7496(4)
H3D H -0.1127 0.5446 0.7907
N2D N -0.1623(4) 0.5294(8) 0.5338(3)
C4D C -0.1928(5) 0.5045(11) 0.6301(4)
C5D C -0.2221(5) 0.4978(10) 0.5641(4)
C6D C -0.1882(6) 0.5261(10) 0.4747(4)
C7D C -0.3045(5) 0.4651(10) 0.5355(4)
H4D H -0.3457 0.4438 0.5566
C8D C -0.2246(5) 0.3889(11) 0.6686(4)
H5D H -0.2685 0.3043 0.6536
S1D S -0.11508(15) 0.5553(3) 0.43024(10)
N3D N -0.2652(5) 0.4953(9) 0.4425(3)
C9D C -0.3221(6) 0.4659(10) 0.4740(4)
H6D H -0.3769 0.4446 0.4536
C10D C -0.0178(5) 0.5915(10) 0.4853(4)
H7D H -0.0276 0.6815 0.5156
H8D H 0.0226 0.6510 0.4659
loop_
_geom_bond_atom_site_label_1
_geom_bond_atom_site_label_2
_geom_bond_site_symmetry_1
_geom_bond_site_symmetry_2
Hg1 I1 1_555 1_555
N1 Hg1 1_555 1_555
C1 N1 1_555 1_555
H1 C1 1_555 1_555
C2 H2 1_555 1_555
C3 N1 1_555 1_555
H3 C3 1_555 1_555
N2 C5 1_555 1_555
C4 C1 1_555 1_555
C5 C4 1_555 1_555
C6 N2 1_555 1_555
C7 C5 1_555 1_555
H4 C7 1_555 1_555
C8 C2 1_555 1_555
H5 C8 1_555 1_555
S1 C6 1_555 1_555
N3 C6 1_555 1_555
C9 C7 1_555 1_555
H6 C9 1_555 1_555
C10 S1 1_555 1_555
H7 C10 1_555 1_555
H8 C10 1_555 1_555
Hg1F N1D 1_555 1_555
I1B Hg1 1_555 1_555
N1D C1D 1_555 1_555
N1B Hg1 1_555 1_555
C1D H1D 1_555 1_555
C2D H2D 1_555 1_555
C3D N1D 1_555 1_555
H3D C3D 1_555 1_555
N2D C5D 1_555 1_555
C4D C1D 1_555 1_555
C5D C4D 1_555 1_555
C6D N2D 1_555 1_555
C7D C5D 1_555 1_555
H4D C7D 1_555 1_555
C8D C2D 1_555 1_555
H5D C8D 1_555 1_555
S1D C6D 1_555 1_555
N3D C6D 1_555 1_555
C9D C7D 1_555 1_555
H6D C9D 1_555 1_555
C10D C10 1_555 1_555
H7D C10D 1_555 1_555
H8D C10D 1_555 1_555
C2 C3 1_555 1_555
C4 C8 1_555 1_555
N3 C9 1_555 1_555
C2D C3D 1_555 1_555
C4D C8D 1_555 1_555
S1D C10D 1_555 1_555
N3D C9D 1_555 1_555

#END
