
#######################################################################
#
#                 Cambridge Crystallographic Data Centre
#                                CCDC 
#
#######################################################################
#
# If this CIF has been generated from an entry in the Cambridge 
# Structural Database, then it will include bibliographic, chemical, 
# crystal, experimental, refinement or atomic coordinate data resulting 
# from the CCDC's data processing and validation procedures.
#
#######################################################################

data_MIYWEY
_symmetry_cell_setting           monoclinic
_symmetry_space_group_name_H-M   'P 21/n'
_symmetry_Int_Tables_number      14
_space_group_name_Hall           '-P 2yn'
loop_
_symmetry_equiv_pos_site_id
_symmetry_equiv_pos_as_xyz
1 x,y,z
2 1/2-x,1/2+y,1/2-z
3 -x,-y,-z
4 1/2+x,1/2-y,1/2+z
_cell_length_a                   8.5088(15)
_cell_length_b                   15.829(3)
_cell_length_c                   15.795(3)
_cell_angle_alpha                90
_cell_angle_beta                 98.899(3)
_cell_angle_gamma                90
_cell_volume                     2101.75
loop_
_atom_site_label
_atom_site_type_symbol
_atom_site_fract_x
_atom_site_fract_y
_atom_site_fract_z
As1 As 0.74439(4) 0.23400(2) 0.36180(2)
K1 K 0.41384(10) 0.25112(4) 0.46431(5)
C1 C 0.7934(5) 0.1199(2) 0.3271(2)
C2 C 0.6679(5) 0.0713(3) 0.2836(2)
H1 H 0.5625 0.0929 0.2772
C3 C 0.6947(7) -0.0078(3) 0.2496(3)
H2 H 0.6081 -0.0385 0.2191
C4 C 0.8447(7) -0.0416(3) 0.2599(3)
H3 H 0.8621 -0.0961 0.2378
C5 C 0.9686(6) 0.0040(3) 0.3023(3)
H4 H 1.0727 -0.0192 0.3102
C6 C 0.9443(5) 0.0849(2) 0.3343(2)
H5 H 1.033 0.1163 0.3616
C7 C 0.9185(4) 0.2565(2) 0.4540(2)
C8 C 1.0018(4) 0.1969(2) 0.5081(2)
H6 H 0.9812 0.1385 0.4977
C9 C 1.1148(4) 0.2212(3) 0.5774(2)
H7 H 1.1711 0.1791 0.6128
C10 C 1.1465(5) 0.3055(3) 0.5955(2)
H8 H 1.2228 0.3218 0.6431
C11 C 1.0636(5) 0.3661(2) 0.5421(3)
H9 H 1.0833 0.4244 0.5536
C12 C 0.9532(4) 0.3424(2) 0.4727(2)
H10 H 0.8994 0.3848 0.4367
O1 O 0.2796(3) 0.28402(19) 0.29440(16)
C13 C 0.1309(4) 0.3267(3) 0.2696(2)
H11 H 0.1505 0.3824 0.2446
H12 H 0.0796 0.3365 0.3209
C14 C 0.0229(5) 0.2762(3) 0.2059(2)
H13 H -0.0055 0.2233 0.2333
H14 H -0.0763 0.3084 0.188
O2 O 0.0933(3) 0.25558(16) 0.13142(17)
C15 C 0.2416(4) 0.2139(3) 0.1572(2)
H15 H 0.2932 0.2026 0.1063
H16 H 0.2229 0.159 0.184
C16 C 0.3493(5) 0.2673(3) 0.2199(2)
H17 H 0.452 0.2377 0.2366
H18 H 0.3708 0.3213 0.1923
O3 O 0.4343(4) 0.41810(16) 0.49023(18)
C17 C 0.4525(6) 0.4613(3) 0.5708(3)
H19 H 0.4706 0.4197 0.6181
H20 H 0.3537 0.4928 0.5758
C18 C 0.5904(6) 0.5219(3) 0.5786(3)
H21 H 0.6006 0.5518 0.6342
H22 H 0.6902 0.4903 0.5766
O4 O 0.4497(4) 0.08448(16) 0.4914(2)
C19 C 0.3436(5) 0.0194(2) 0.5078(3)
H23 H 0.2339 0.0341 0.4812
H24 H 0.3452 0.0137 0.5704
C20 C 0.3910(5) -0.0622(3) 0.4721(3)
H25 H 0.3171 -0.1073 0.4845
H26 H 0.3835 -0.0573 0.4092
O3B O 0.5657(4) 0.58190(16) 0.50977(18)
C17B C 0.5475(6) 0.5387(3) 0.4292(3)
H19B H 0.5294 0.5803 0.3819
H20B H 0.6463 0.5072 0.4242
C18B C 0.4096(6) 0.4781(3) 0.4214(3)
H21B H 0.3994 0.4482 0.3658
H22B H 0.3098 0.5097 0.4234
O4B O 0.5503(4) -0.08448(16) 0.5086(2)
C19B C 0.6564(5) -0.0194(2) 0.4922(3)
H23B H 0.7661 -0.0341 0.5188
H24B H 0.6548 -0.0137 0.4296
C20B C 0.6090(5) 0.0622(3) 0.5279(3)
H25B H 0.6829 0.1073 0.5155
H26B H 0.6165 0.0573 0.5908
As1B As 0.25561(4) -0.23400(2) 0.63820(2)
K1B K 0.58616(10) -0.25112(4) 0.53569(5)
C1B C 0.2066(5) -0.1199(2) 0.6729(2)
C2B C 0.3321(5) -0.0713(3) 0.7164(2)
H1B H 0.4375 -0.0929 0.7228
C3B C 0.3053(7) 0.0078(3) 0.7504(3)
H2B H 0.3919 0.0385 0.7809
C4B C 0.1553(7) 0.0416(3) 0.7401(3)
H3B H 0.1379 0.0961 0.7622
C5B C 0.0314(6) -0.0040(3) 0.6977(3)
H4B H -0.0727 0.0192 0.6898
C6B C 0.0557(5) -0.0849(2) 0.6657(2)
H5B H -0.033 -0.1163 0.6384
C7B C 0.0815(4) -0.2565(2) 0.5460(2)
C8B C -0.0018(4) -0.1969(2) 0.4919(2)
H6B H 0.0188 -0.1385 0.5023
C9B C -0.1148(4) -0.2212(3) 0.4226(2)
H7B H -0.1711 -0.1791 0.3872
C10B C -0.1465(5) -0.3055(3) 0.4045(2)
H8B H -0.2228 -0.3218 0.3569
C11B C -0.0636(5) -0.3661(2) 0.4579(3)
H9B H -0.0833 -0.4244 0.4464
C12B C 0.0468(4) -0.3424(2) 0.5273(2)
H10B H 0.1006 -0.3848 0.5633
O1B O 0.7204(3) -0.28402(19) 0.70560(16)
C13B C 0.8691(4) -0.3267(3) 0.7304(2)
H11B H 0.8495 -0.3824 0.7554
H12B H 0.9204 -0.3365 0.6791
C14B C 0.9771(5) -0.2762(3) 0.7941(2)
H13B H 1.0055 -0.2233 0.7667
H14B H 1.0763 -0.3084 0.812
O2B O 0.9067(3) -0.25558(16) 0.86858(17)
C15B C 0.7584(4) -0.2139(3) 0.8428(2)
H15B H 0.7068 -0.2026 0.8937
H16B H 0.7771 -0.159 0.816
C16B C 0.6507(5) -0.2673(3) 0.7801(2)
H17B H 0.548 -0.2377 0.7634
H18B H 0.6292 -0.3213 0.8077
K1_2 K 1.41384(10) 0.25112(4) 0.46431(5)
K1A K 1.08616(10) -0.24888(4) 1.03569(5)
K1B_2 K -0.41384(10) -0.25112(4) 0.53569(5)
K1B_3 K 0.58616(10) 0.74888(4) 0.53569(5)
K1C K -0.08616(10) 0.24888(4) -0.03569(5)
C9_2 C 0.1148(4) 0.2212(3) 0.5774(2)
C9B_2 C 0.8852(4) -0.2212(3) 0.4226(2)
O2A O 0.4067(3) -0.24442(16) 0.36858(17)
O2C O 0.5933(3) 0.24442(16) 0.63142(17)
O3B_2 O 0.5657(4) -0.41810(16) 0.50977(18)
loop_
_geom_bond_atom_site_label_1
_geom_bond_atom_site_label_2
_geom_bond_site_symmetry_1
_geom_bond_site_symmetry_2
As1 K1 1_555 1_555
K1 O1 1_555 1_555
C1 As1 1_555 1_555
C2 C1 1_555 1_555
H1 C2 1_555 1_555
C3 C2 1_555 1_555
H2 C3 1_555 1_555
C4 C3 1_555 1_555
H3 C4 1_555 1_555
C5 C4 1_555 1_555
H4 C5 1_555 1_555
C6 C1 1_555 1_555
H5 C6 1_555 1_555
C7 As1 1_555 1_555
C8 C7 1_555 1_555
H6 C8 1_555 1_555
C9 C8 1_555 1_555
H7 C9 1_555 1_555
C10 C9 1_555 1_555
H8 C10 1_555 1_555
C11 C10 1_555 1_555
H9 C11 1_555 1_555
C12 C7 1_555 1_555
H10 C12 1_555 1_555
O1 C13 1_555 1_555
C13 H11 1_555 1_555
H12 C13 1_555 1_555
C14 C13 1_555 1_555
H13 C14 1_555 1_555
H14 C14 1_555 1_555
O2 C14 1_555 1_555
C15 O2 1_555 1_555
H15 C15 1_555 1_555
H16 C15 1_555 1_555
C16 O1 1_555 1_555
H17 C16 1_555 1_555
H18 C16 1_555 1_555
O3 K1 1_555 1_555
C17 O3 1_555 1_555
H19 C17 1_555 1_555
H20 C17 1_555 1_555
C18 C17 1_555 1_555
H21 C18 1_555 1_555
H22 C18 1_555 1_555
O4 K1 1_555 1_555
C19 O4 1_555 1_555
H23 C19 1_555 1_555
H24 C19 1_555 1_555
C20 C19 1_555 1_555
H25 C20 1_555 1_555
H26 C20 1_555 1_555
O3B C18 1_555 1_555
C17B O3B 1_555 1_555
H19B C17B 1_555 1_555
H20B C17B 1_555 1_555
C18B O3 1_555 1_555
H21B C18B 1_555 1_555
H22B C18B 1_555 1_555
O4B C20 1_555 1_555
C19B O4B 1_555 1_555
H23B C19B 1_555 1_555
H24B C19B 1_555 1_555
C20B O4 1_555 1_555
H25B C20B 1_555 1_555
H26B C20B 1_555 1_555
As1B K1B 1_555 1_555
K1B O4B 1_555 1_555
C1B As1B 1_555 1_555
C2B C1B 1_555 1_555
H1B C2B 1_555 1_555
C3B C2B 1_555 1_555
H2B C3B 1_555 1_555
C4B C3B 1_555 1_555
H3B C4B 1_555 1_555
C5B C4B 1_555 1_555
H4B C5B 1_555 1_555
C6B C1B 1_555 1_555
H5B C6B 1_555 1_555
C7B As1B 1_555 1_555
C8B C7B 1_555 1_555
H6B C8B 1_555 1_555
C9B C8B 1_555 1_555
H7B C9B 1_555 1_555
C10B C9B 1_555 1_555
H8B C10B 1_555 1_555
C11B C10B 1_555 1_555
H9B C11B 1_555 1_555
C12B C7B 1_555 1_555
H10B C12B 1_555 1_555
O1B K1B 1_555 1_555
C13B O1B 1_555 1_555
H11B C13B 1_555 1_555
H12B C13B 1_555 1_555
C14B C13B 1_555 1_555
H13B C14B 1_555 1_555
H14B C14B 1_555 1_555
O2B C14B 1_555 1_555
C15B O2B 1_555 1_555
H15B C15B 1_555 1_555
H16B C15B 1_555 1_555
C16B O1B 1_555 1_555
H17B C16B 1_555 1_555
H18B C16B 1_555 1_555
K1_2 C9 1_555 1_555
K1A O2B 1_555 1_555
K1B_2 C9B 1_555 1_555
K1B_3 O3B 1_555 1_555
K1C O2 1_555 1_555
C9_2 K1 1_555 1_555
C9B_2 K1B 1_555 1_555
O2A K1B 1_555 1_555
O2C K1 1_555 1_555
O3B_2 K1B 1_555 1_555
C5 C6 1_555 1_555
C11 C12 1_555 1_555
C15 C16 1_555 1_555
C17B C18B 1_555 1_555
C19B C20B 1_555 1_555
C5B C6B 1_555 1_555
C11B C12B 1_555 1_555
C15B C16B 1_555 1_555

#END
